
#######################################################################
#
#                 Cambridge Crystallographic Data Centre
#                                CCDC 
#
#######################################################################
#
# If this CIF has been generated from an entry in the Cambridge 
# Structural Database, then it will include bibliographic, chemical, 
# crystal, experimental, refinement or atomic coordinate data resulting 
# from the CCDC's data processing and validation procedures.
#
#######################################################################

data_NIZZEC
_chemical_formula_moiety         '(C66 H59 I6 N13 O1 Zn3)n'
_symmetry_cell_setting           orthorhombic
_symmetry_space_group_name_H-M   'P b c a'
_symmetry_Int_Tables_number      61
_space_group_name_Hall           '-P 2ac 2ab'
loop_
_symmetry_equiv_pos_site_id
_symmetry_equiv_pos_as_xyz
1 x,y,z
2 1/2-x,-y,1/2+z
3 -x,1/2+y,1/2-z
4 1/2+x,1/2-y,-z
5 -x,-y,-z
6 1/2+x,y,1/2-z
7 x,1/2-y,1/2+z
8 1/2-x,1/2+y,z
_cell_length_a                   28.40(1)
_cell_length_b                   13.872(6)
_cell_length_c                   44.18(2)
_cell_angle_alpha                90
_cell_angle_beta                 90
_cell_angle_gamma                90
_cell_volume                     17405.4
loop_
_atom_site_label
_atom_site_type_symbol
_atom_site_fract_x
_atom_site_fract_y
_atom_site_fract_z
I1 I 1.06774(2) -0.19905(4) 0.873493(15)
I2 I 1.002972(17) -0.19328(3) 0.965145(12)
I3 I 0.558071(18) -0.31963(3) 0.917152(14)
I4 I 0.487981(16) -0.05184(4) 0.883005(12)
I5 I 0.805120(18) 0.34287(3) 0.686500(12)
I6 I 0.677250(18) 0.17921(4) 0.665450(13)
Zn1 Zn 1.01995(2) -0.11592(5) 0.913883(18)
Zn2 Zn 0.55070(3) -0.13849(5) 0.913178(17)
Zn3 Zn 0.76357(3) 0.18164(5) 0.680280(17)
C1 C 0.9539(2) -0.0646(5) 0.86484(16)
H1 H 0.9824 -0.0606 0.8537
C2 C 0.9118(2) -0.0506(5) 0.84954(16)
H2 H 0.9117 -0.0376 0.8284
C3 C 0.8703(2) -0.0557(4) 0.86537(14)
C4 C 0.8728(2) -0.0733(5) 0.89598(15)
H3 H 0.8448 -0.0765 0.9077
C5 C 0.9162(2) -0.0863(5) 0.90956(15)
H4 H 0.9173 -0.0976 0.9308
C6 C 0.8241(2) -0.0429(4) 0.85005(14)
C7 C 0.7828(2) -0.0045(4) 0.80886(14)
C8 C 0.7455(2) -0.0434(4) 0.85183(13)
C9 C 0.8128(2) 0.1078(6) 0.73419(17)
H5 H 0.8391 0.1358 0.7243
C10 C 0.8190(2) 0.0690(6) 0.76321(16)
H6 H 0.8489 0.0694 0.7728
C11 C 0.7800(2) 0.0302(4) 0.77736(14)
C12 C 0.7370(2) 0.0283(4) 0.76218(15)
H7 H 0.7099 0.0014 0.7716
C13 C 0.7342(2) 0.0662(4) 0.73332(15)
H8 H 0.7051 0.0631 0.7228
C14 C 0.6164(2) -0.0583(5) 0.86796(15)
H9 H 0.5877 -0.0451 0.8577
C15 C 0.6584(2) -0.0408(4) 0.85316(15)
H10 H 0.6584 -0.0168 0.8330
C16 C 0.7002(2) -0.0584(4) 0.86788(13)
C17 C 0.6990(2) -0.0898(5) 0.89747(14)
H11 H 0.7272 -0.1000 0.9085
C18 C 0.6553(2) -0.1063(5) 0.91076(15)
H12 H 0.6542 -0.1280 0.9311
C19 C 1.0689(3) 0.6302(5) 1.02027(16)
H13 H 1.0732 0.6978 1.0223
C20 C 1.0788(3) 0.5894(5) 0.99299(16)
H14 H 1.0890 0.6280 0.9765
C21 C 1.0736(2) 0.4908(4) 0.98966(14)
C22 C 1.0559(2) 0.4386(5) 1.01379(15)
H15 H 1.0507 0.3711 1.0121
C23 C 1.0457(2) 0.4865(5) 1.04030(15)
H16 H 1.0325 0.4510 1.0566
C24 C 1.0880(2) 0.4401(5) 0.96175(14)
C25 C 1.1255(2) 0.4411(4) 0.91717(14)
C26 C 1.0935(2) 0.3046(4) 0.93472(15)
C27 C 1.1725(3) 0.6433(5) 0.87044(17)
H17 H 1.1707 0.7117 0.8702
C28 C 1.1486(3) 0.5943(5) 0.89263(18)
H18 H 1.1309 0.6279 0.9075
C29 C 1.1510(2) 0.4954(4) 0.89287(14)
C30 C 1.1757(3) 0.4488(5) 0.87076(15)
H19 H 1.1768 0.3804 0.8699
C31 C 1.1988(3) 0.5045(5) 0.84993(16)
H20 H 1.2168 0.4727 0.8348
C32 C 1.0466(2) 0.0594(5) 0.94879(15)
H21 H 1.0332 0.0244 0.9651
C33 C 1.0609(2) 0.1507(5) 0.95385(15)
H22 H 1.0576 0.1788 0.9734
C34 C 1.0803(2) 0.2029(4) 0.93025(14)
C35 C 1.0855(3) 0.1583(5) 0.90276(16)
H23 H 1.0993 0.1917 0.8862
C36 C 1.0706(2) 0.0654(5) 0.89941(16)
H24 H 1.0747 0.0347 0.8804
N1 N 0.95645(18) -0.0835(4) 0.89420(12)
N2 N 0.82525(17) -0.0166(4) 0.82107(11)
N3 N 0.78583(17) -0.0573(4) 0.86667(11)
N4 N 0.74211(17) -0.0170(3) 0.82297(11)
N5 N 0.77135(19) 0.1071(4) 0.71982(11)
N6 N 0.61458(17) -0.0928(4) 0.89602(12)
N7 N 1.05367(18) 0.5813(4) 1.04410(12)
N8 N 1.11109(17) 0.4916(4) 0.94099(12)
N9 N 1.07728(18) 0.3475(4) 0.95944(12)
N10 N 1.11914(18) 0.3472(4) 0.91287(12)
N11 N 1.19767(19) 0.6002(4) 0.84960(12)
N12 N 1.05028(17) 0.0158(4) 0.92191(12)
Zn2C Zn 1.05070(3) 0.63849(5) 1.086822(17)
Zn3B Zn 1.23643(3) 0.68164(5) 0.819720(17)
N7C N 0.55367(18) -0.0813(4) 0.95590(12)
N11B N 0.80233(19) 0.1002(4) 0.65040(12)
C37 C 0.6494(6) 0.2088(8) 0.8459(4)
C38 C 0.6003(6) 0.2036(10) 0.8507(4)
C39 C 0.5818(7) 0.1801(11) 0.8785(4)
H25 H 0.5488 0.1713 0.8809
C40 C 0.6119(8) 0.169(3) 0.9032(5)
H26 H 0.5992 0.1591 0.9228
C41 C 0.6604(8) 0.174(3) 0.8994(5)
H27 H 0.6807 0.1636 0.9161
C42 C 0.6791(6) 0.193(3) 0.8708(5)
C43 C 0.7287(6) 0.193(3) 0.8680(5)
C44 C 0.7590(8) 0.170(2) 0.8927(5)
H28 H 0.7458 0.1546 0.9118
C45 C 0.8072(8) 0.171(2) 0.8892(6)
H29 H 0.8270 0.1529 0.9056
C46 C 0.8269(7) 0.197(3) 0.8615(6)
H30 H 0.8601 0.2020 0.8593
C47 C 0.7978(7) 0.217(2) 0.8373(6)
H31 H 0.8114 0.2303 0.8181
C48 C 0.7490(6) 0.218(3) 0.8403(5)
C49 C 0.7196(7) 0.239(2) 0.8149(5)
C50 C 0.7389(7) 0.271(2) 0.7873(5)
H32 H 0.7718 0.2817 0.7860
C51 C 0.7113(8) 0.2865(17) 0.7622(5)
H33 H 0.7252 0.3041 0.7434
C52 C 0.6624(8) 0.276(2) 0.7646(5)
H34 H 0.6428 0.2891 0.7477
C53 C 0.6431(7) 0.248(3) 0.7914(6)
H35 H 0.6100 0.2387 0.7927
C54 C 0.6711(7) 0.231(3) 0.8174(5)
N13 N 0.5689(7) 0.212(2) 0.8252(5)
C55 C 0.5276(9) 0.174(3) 0.8214(8)
H36 H 0.5170 0.1370 0.8381
C56 C 0.4938(9) 0.178(3) 0.7958(6)
H37 H 0.4912 0.2474 0.7902
H38 H 0.5097 0.1462 0.7786
C57 C 0.4460(9) 0.141(3) 0.7962(8)
H39 H 0.4364 0.1340 0.7748
H40 H 0.4261 0.1931 0.8048
C58 C 0.4319(13) 0.052(3) 0.8115(8)
H41 H 0.4610 0.0254 0.8205
H42 H 0.4117 0.0724 0.8286
C59 C 0.4082(14) -0.028(3) 0.7975(10)
H43 H 0.4016 -0.0069 0.7765
H44 H 0.3772 -0.0320 0.8077
C60 C 0.4251(18) -0.125(3) 0.7952(13)
H45 H 0.4012 -0.1652 0.7853
H46 H 0.4314 -0.1504 0.8155
H47 H 0.4541 -0.1263 0.7833
O1 O 0.6436(13) 0.639(2) 0.9982(9)
C85 C 0.6213(11) 0.544(3) 0.9899(11)
C86 C 0.6555(13) 0.470(2) 0.9792(8)
C87 C 0.6479(13) 0.369(2) 0.9862(12)
C88 C 0.6878(13) 0.297(2) 0.9866(16)
C89 C 0.6736(14) 0.195(3) 0.9808(13)
C90 C 0.7032(17) 0.113(3) 0.9880(15)
loop_
_geom_bond_atom_site_label_1
_geom_bond_atom_site_label_2
_geom_bond_site_symmetry_1
_geom_bond_site_symmetry_2
I1 Zn1 1_555 1_555
I2 Zn1 1_555 1_555
I3 Zn2 1_555 1_555
I4 Zn2 1_555 1_555
I5 Zn3 1_555 1_555
I6 Zn3 1_555 1_555
Zn1 N1 1_555 1_555
Zn2 N6 1_555 1_555
Zn3 N5 1_555 1_555
C1 H1 1_555 1_555
C2 C1 1_555 1_555
H2 C2 1_555 1_555
C3 C2 1_555 1_555
C4 C3 1_555 1_555
H3 C4 1_555 1_555
C5 C4 1_555 1_555
H4 C5 1_555 1_555
C6 C3 1_555 1_555
C7 C11 1_555 1_555
C8 C16 1_555 1_555
C9 H5 1_555 1_555
C10 C9 1_555 1_555
H6 C10 1_555 1_555
C11 C10 1_555 1_555
C12 C11 1_555 1_555
H7 C12 1_555 1_555
C13 C12 1_555 1_555
H8 C13 1_555 1_555
C14 H9 1_555 1_555
C15 C14 1_555 1_555
H10 C15 1_555 1_555
C16 C15 1_555 1_555
C17 C16 1_555 1_555
H11 C17 1_555 1_555
C18 C17 1_555 1_555
H12 C18 1_555 1_555
C19 H13 1_555 1_555
C20 C19 1_555 1_555
H14 C20 1_555 1_555
C21 C20 1_555 1_555
C22 C21 1_555 1_555
H15 C22 1_555 1_555
C23 C22 1_555 1_555
H16 C23 1_555 1_555
C24 C21 1_555 1_555
C25 C29 1_555 1_555
C26 C34 1_555 1_555
C27 H17 1_555 1_555
C28 C27 1_555 1_555
H18 C28 1_555 1_555
C29 C28 1_555 1_555
C30 C29 1_555 1_555
H19 C30 1_555 1_555
C31 C30 1_555 1_555
H20 C31 1_555 1_555
C32 H21 1_555 1_555
C33 C32 1_555 1_555
H22 C33 1_555 1_555
C34 C33 1_555 1_555
C35 C34 1_555 1_555
H23 C35 1_555 1_555
C36 C35 1_555 1_555
H24 C36 1_555 1_555
N1 C1 1_555 1_555
N2 C6 1_555 1_555
N3 C6 1_555 1_555
N4 C7 1_555 1_555
N5 C9 1_555 1_555
N6 C14 1_555 1_555
N7 C19 1_555 1_555
N8 C24 1_555 1_555
N9 C24 1_555 1_555
N10 C25 1_555 1_555
N11 C27 1_555 1_555
N12 Zn1 1_555 1_555
C37 C38 1_555 1_555
C38 C39 1_555 1_555
C39 H25 1_555 1_555
C40 C39 1_555 1_555
H26 C40 1_555 1_555
C41 C40 1_555 1_555
H27 C41 1_555 1_555
C42 C37 1_555 1_555
C43 C42 1_555 1_555
C44 C43 1_555 1_555
H28 C44 1_555 1_555
C45 C44 1_555 1_555
H29 C45 1_555 1_555
C46 C45 1_555 1_555
H30 C46 1_555 1_555
C47 C46 1_555 1_555
H31 C47 1_555 1_555
C48 C43 1_555 1_555
C49 C48 1_555 1_555
C50 C49 1_555 1_555
H32 C50 1_555 1_555
C51 C50 1_555 1_555
H33 C51 1_555 1_555
C52 C51 1_555 1_555
H34 C52 1_555 1_555
C53 C52 1_555 1_555
H35 C53 1_555 1_555
C54 C37 1_555 1_555
N13 C38 1_555 1_555
C55 N13 1_555 1_555
H36 C55 1_555 1_555
C56 C55 1_555 1_555
H37 C56 1_555 1_555
H38 C56 1_555 1_555
C57 C56 1_555 1_555
H39 C57 1_555 1_555
H40 C57 1_555 1_555
C58 C57 1_555 1_555
H41 C58 1_555 1_555
H42 C58 1_555 1_555
C59 C58 1_555 1_555
H43 C59 1_555 1_555
H44 C59 1_555 1_555
C60 C59 1_555 1_555
H45 C60 1_555 1_555
H46 C60 1_555 1_555
H47 C60 1_555 1_555
O1 C85 1_555 1_555
C85 C86 1_555 1_555
C86 C87 1_555 1_555
C87 C88 1_555 1_555
C88 C89 1_555 1_555
C89 C90 1_555 1_555
Zn2C N7 1_555 1_555
Zn3B N11 1_555 1_555
N7C Zn2 1_555 1_555
N11B Zn3 1_555 1_555
C5 N1 1_555 1_555
C7 N2 1_555 1_555
C8 N3 1_555 1_555
C8 N4 1_555 1_555
C13 N5 1_555 1_555
C18 N6 1_555 1_555
C23 N7 1_555 1_555
C25 N8 1_555 1_555
C26 N9 1_555 1_555
C26 N10 1_555 1_555
C31 N11 1_555 1_555
C32 N12 1_555 1_555
C36 N12 1_555 1_555
C41 C42 1_555 1_555
C47 C48 1_555 1_555
C49 C54 1_555 1_555
C53 C54 1_555 1_555

#END
