
#######################################################################
#
#                 Cambridge Crystallographic Data Centre
#                                CCDC 
#
#######################################################################
#
# If this CIF has been generated from an entry in the Cambridge 
# Structural Database, then it will include bibliographic, chemical, 
# crystal, experimental, refinement or atomic coordinate data resulting 
# from the CCDC's data processing and validation procedures.
#
#######################################################################

data_NIZZAY
_chemical_formula_moiety         '(C68 H49 I6 N15 O4 Zn3)n'
_symmetry_cell_setting           orthorhombic
_symmetry_space_group_name_H-M   'P b c a'
_symmetry_Int_Tables_number      61
_space_group_name_Hall           '-P 2ac 2ab'
loop_
_symmetry_equiv_pos_site_id
_symmetry_equiv_pos_as_xyz
1 x,y,z
2 1/2-x,-y,1/2+z
3 -x,1/2+y,1/2-z
4 1/2+x,1/2-y,-z
5 -x,-y,-z
6 1/2+x,y,1/2-z
7 x,1/2-y,1/2+z
8 1/2-x,1/2+y,z
_cell_length_a                   27.91(1)
_cell_length_b                   13.839(6)
_cell_length_c                   44.93(2)
_cell_angle_alpha                90
_cell_angle_beta                 90
_cell_angle_gamma                90
_cell_volume                     17354.1
loop_
_atom_site_label
_atom_site_type_symbol
_atom_site_fract_x
_atom_site_fract_y
_atom_site_fract_z
C37 C 0.3252(7) 0.1822(8) 0.1292(4)
C38 C 0.3525(7) 0.1623(10) 0.1039(4)
C39 C 0.4022(7) 0.1626(12) 0.1048(5)
H25 H 0.4203 0.1554 0.0870
C40 C 0.4254(7) 0.174(2) 0.1324(5)
H26 H 0.4593 0.1697 0.1337
C41 C 0.3981(9) 0.191(3) 0.1575(5)
H27 H 0.4139 0.1987 0.1761
C42 C 0.3479(8) 0.198(3) 0.1564(4)
C43 C 0.3212(8) 0.219(2) 0.1828(4)
C44 C 0.3432(8) 0.241(2) 0.2103(5)
H28 H 0.3772 0.2378 0.2119
C45 C 0.3164(9) 0.267(2) 0.2352(4)
H29 H 0.3317 0.2809 0.2535
H30 H 0.2475 0.2889 0.2495
C46 C 0.2664(9) 0.271(2) 0.2328(5)
C47 C 0.2452(8) 0.251(3) 0.2057(6)
H31 H 0.2113 0.2552 0.2040
C48 C 0.2718(8) 0.225(3) 0.1809(4)
C49 C 0.2484(7) 0.206(2) 0.1534(5)
C50 C 0.1989(8) 0.200(2) 0.1535(5)
H32 H 0.1820 0.2118 0.1715
C51 C 0.1739(9) 0.177(3) 0.1281(6)
H33 H 0.1398 0.1758 0.1281
C52 C 0.1997(10) 0.154(2) 0.1020(5)
H34 H 0.1830 0.1341 0.0846
C53 C 0.2491(10) 0.160(3) 0.1017(5)
H35 H 0.2663 0.1506 0.0837
C54 C 0.2739(7) 0.182(3) 0.1284(5)
N13 N 0.3287(9) 0.1570(19) 0.0752(4)
C55 C 0.3305(14) 0.202(4) 0.0220(7)
H36 H 0.3521 0.2462 0.0115
H37 H 0.2974 0.2250 0.0201
H38 H 0.3331 0.1372 0.0132
C56 C 0.3436(14) 0.198(4) 0.0534(8)
H39 H 0.3707 0.2368 0.0577
C77 C 0.8337(8) 0.8953(14) -0.0101(4)
C78 C 0.8583(7) 0.8857(17) 0.0166(5)
H55 H 0.8785 0.9363 0.0234
C79 C 0.8533(7) 0.802(2) 0.0334(4)
H56 H 0.8701 0.7953 0.0517
C80 C 0.8237(8) 0.7278(15) 0.0235(5)
H57 H 0.8203 0.6706 0.0350
C81 C 0.7991(6) 0.7374(15) -0.0033(5)
H58 H 0.7789 0.6868 -0.0101
C82 C 0.8041(6) 0.8212(18) -0.0201(3)
H59 H 0.7873 0.8278 -0.0383
N15 N 0.8407(10) 0.984(2) -0.0245(6)
O1 O 0.8698(11) 1.047(2) -0.0188(5)
O2 O 0.8047(12) 0.999(3) -0.0382(7)
C83 C 0.5700(7) 0.9662(19) 0.2321(3)
C84 C 0.5849(7) 0.9031(14) 0.2098(4)
H60 H 0.5898 0.8367 0.2143
C85 C 0.5927(7) 0.9371(15) 0.1811(4)
H61 H 0.6028 0.8940 0.1659
C86 C 0.5855(6) 1.0343(16) 0.1746(3)
H62 H 0.5908 1.0575 0.1550
C87 C 0.5706(7) 1.0974(13) 0.1969(5)
H63 H 0.5657 1.1638 0.1924
C88 C 0.5629(6) 1.0633(18) 0.2256(4)
H64 H 0.5527 1.1065 0.2407
N16 N 0.5583(10) 0.949(2) 0.2636(4)
O3 O 0.5507(14) 0.868(3) 0.2701(7)
O4 O 0.5509(11) 1.011(2) 0.2823(5)
I1 I 0.83049(3) 1.17109(7) 0.170633(17)
I2 I 0.69613(3) 1.32033(5) 0.189556(16)
I3 I 0.57504(3) 0.29024(6) 0.12357(2)
I4 I 0.50269(3) 0.29907(5) 0.035512(17)
I5 I 0.55994(3) 1.32772(6) -0.07336(2)
I6 I 0.48636(3) 1.06036(9) -0.108510(18)
Zn1 Zn 0.74182(4) 1.16202(7) 0.18340(2)
Zn2 Zn 0.52243(4) 0.37420(8) 0.08589(3)
Zn3 Zn 0.55181(4) 1.14668(9) -0.08001(2)
C1 C 0.7060(4) 0.9874(7) 0.1520(2)
H1 H 0.7224 0.9539 0.1674
C2 C 0.6823(4) 0.9340(7) 0.1301(2)
H2 H 0.6811 0.8655 0.1311
C3 C 0.6608(3) 0.9820(6) 0.10706(18)
C4 C 0.6618(4) 1.0808(7) 0.1076(2)
H3 H 0.6468 1.1160 0.0920
C5 C 0.6840(4) 1.1295(7) 0.1300(2)
H4 H 0.6837 1.1982 0.1298
C6 C 0.6354(3) 0.9294(6) 0.08339(18)
C7 C 0.6013(3) 0.7943(6) 0.06501(19)
C8 C 0.5973(3) 0.9313(6) 0.03936(18)
C9 C 0.5740(4) 0.5550(7) 0.0999(2)
H5 H 0.5779 0.5240 0.1186
C10 C 0.5907(4) 0.6482(7) 0.0966(2)
H6 H 0.6047 0.6814 0.1129
C11 C 0.5867(3) 0.6925(6) 0.0692(2)
C12 C 0.5664(4) 0.6425(7) 0.0461(2)
H7 H 0.5640 0.6708 0.0269
C13 C 0.5493(4) 0.5495(7) 0.0513(2)
H8 H 0.5347 0.5154 0.0353
C14 C 0.5495(5) 0.9873(7) -0.0363(2)
H9 H 0.5345 0.9535 -0.0522
C15 C 0.5614(4) 0.9380(8) -0.0110(2)
H10 H 0.5557 0.8705 -0.0097
C16 C 0.5817(3) 0.9856(7) 0.01275(18)
C17 C 0.5872(4) 1.0823(7) 0.0105(2)
H11 H 0.5997 1.1181 0.0267
C18 C 0.5746(4) 1.1298(7) -0.0159(2)
H12 H 0.5777 1.1981 -0.0169
C19 C 0.5440(4) 0.9203(8) 0.3638(2)
H13 H 0.5152 0.9206 0.3525
C20 C 0.5869(3) 0.9339(8) 0.3490(2)
H14 H 0.5876 0.9425 0.3281
C21 C 0.6276(3) 0.9347(6) 0.36509(18)
C22 C 0.6256(3) 0.9230(7) 0.3956(2)
H15 H 0.6539 0.9235 0.4073
C23 C 0.5817(3) 0.9106(8) 0.4085(2)
H16 H 0.5803 0.9044 0.4295
C24 C 0.6758(3) 0.9461(6) 0.35020(18)
C25 C 0.7196(3) 0.9809(5) 0.31001(17)
C26 C 0.7554(3) 0.9445(5) 0.35315(17)
C27 C 0.6907(3) 1.0794(7) 0.2344(2)
H17 H 0.6636 1.1007 0.2233
C28 C 0.6840(3) 1.0442(7) 0.2629(2)
H18 H 0.6528 1.0419 0.2714
C29 C 0.7235(3) 1.0123(5) 0.27901(17)
C30 C 0.7678(3) 1.0146(6) 0.26515(18)
H19 H 0.7955 0.9922 0.2753
C31 C 0.7714(3) 1.0494(6) 0.23664(18)
H20 H 0.8017 1.0490 0.2270
C32 C 0.8433(3) 0.8875(7) 0.41400(18)
H21 H 0.8428 0.8698 0.4344
C33 C 0.8002(3) 0.9027(7) 0.39972(18)
H22 H 0.7708 0.8946 0.4101
C34 C 0.8005(3) 0.9300(6) 0.37010(17)
C35 C 0.8438(3) 0.9424(6) 0.35606(19)
H23 H 0.8452 0.9632 0.3359
C36 C 0.8850(3) 0.9240(7) 0.37189(19)
H24 H 0.9149 0.9312 0.3621
N1 N 0.7062(3) 1.0833(5) 0.15217(15)
N2 N 0.6276(3) 0.8356(5) 0.08714(15)
N3 N 0.5859(3) 0.8383(5) 0.04084(15)
N4 N 0.6213(3) 0.9815(5) 0.05976(15)
N5 N 0.5525(3) 0.5064(5) 0.07786(17)
N6 N 0.5585(3) 1.0831(6) -0.03935(15)
N7 N 0.5408(3) 0.9068(5) 0.39336(16)
N8 N 0.6756(3) 0.9698(5) 0.32175(14)
N9 N 0.7597(3) 0.9689(5) 0.32437(14)
N10 N 0.7140(2) 0.9337(5) 0.36717(14)
N11 N 0.7333(3) 1.0840(5) 0.22205(15)
N12 N 0.8850(3) 0.8963(5) 0.40070(15)
Zn2B Zn 0.47757(4) 0.87420(8) 0.41411(3)
Zn3A Zn 0.94819(4) 0.85332(9) 0.41999(2)
N7B N 0.4592(3) 0.4068(5) 0.10664(16)
N12A N 0.6150(3) 1.1037(5) -0.09930(15)
loop_
_geom_bond_atom_site_label_1
_geom_bond_atom_site_label_2
_geom_bond_site_symmetry_1
_geom_bond_site_symmetry_2
I1 Zn1 1_555 1_555
I2 Zn1 1_555 1_555
I3 Zn2 1_555 1_555
I4 Zn2 1_555 1_555
I5 Zn3 1_555 1_555
I6 Zn3 1_555 1_555
Zn1 N1 1_555 1_555
Zn2 N5 1_555 1_555
Zn3 N6 1_555 1_555
C1 H1 1_555 1_555
C2 C1 1_555 1_555
H2 C2 1_555 1_555
C3 C2 1_555 1_555
C4 C3 1_555 1_555
H3 C4 1_555 1_555
C5 C4 1_555 1_555
H4 C5 1_555 1_555
C6 C3 1_555 1_555
C7 C11 1_555 1_555
C8 C16 1_555 1_555
C9 H5 1_555 1_555
C10 C9 1_555 1_555
H6 C10 1_555 1_555
C11 C10 1_555 1_555
C12 C11 1_555 1_555
H7 C12 1_555 1_555
C13 C12 1_555 1_555
H8 C13 1_555 1_555
C14 H9 1_555 1_555
C15 C14 1_555 1_555
H10 C15 1_555 1_555
C16 C15 1_555 1_555
C17 C16 1_555 1_555
H11 C17 1_555 1_555
C18 C17 1_555 1_555
H12 C18 1_555 1_555
C19 H13 1_555 1_555
C20 C19 1_555 1_555
H14 C20 1_555 1_555
C21 C20 1_555 1_555
C22 C21 1_555 1_555
H15 C22 1_555 1_555
C23 C22 1_555 1_555
H16 C23 1_555 1_555
C24 C21 1_555 1_555
C25 C29 1_555 1_555
C26 C34 1_555 1_555
C27 H17 1_555 1_555
C28 C27 1_555 1_555
H18 C28 1_555 1_555
C29 C28 1_555 1_555
C30 C29 1_555 1_555
H19 C30 1_555 1_555
C31 C30 1_555 1_555
H20 C31 1_555 1_555
C32 H21 1_555 1_555
C33 C32 1_555 1_555
H22 C33 1_555 1_555
C34 C33 1_555 1_555
C35 C34 1_555 1_555
H23 C35 1_555 1_555
C36 C35 1_555 1_555
H24 C36 1_555 1_555
N1 C1 1_555 1_555
N2 C6 1_555 1_555
N3 C7 1_555 1_555
N4 C6 1_555 1_555
N5 C9 1_555 1_555
N6 C14 1_555 1_555
N7 C19 1_555 1_555
N8 C24 1_555 1_555
N9 C25 1_555 1_555
N10 C24 1_555 1_555
N11 Zn1 1_555 1_555
N12 C32 1_555 1_555
C37 C38 1_555 1_555
C38 C39 1_555 1_555
C39 H25 1_555 1_555
C40 C39 1_555 1_555
H26 C40 1_555 1_555
C41 C40 1_555 1_555
H27 C41 1_555 1_555
C42 C37 1_555 1_555
C43 C42 1_555 1_555
C44 C43 1_555 1_555
H28 C44 1_555 1_555
C45 C44 1_555 1_555
H29 C45 1_555 1_555
H30 C46 1_555 1_555
C46 C45 1_555 1_555
C47 C46 1_555 1_555
H31 C47 1_555 1_555
C48 C43 1_555 1_555
C49 C48 1_555 1_555
C50 C49 1_555 1_555
H32 C50 1_555 1_555
C51 C50 1_555 1_555
H33 C51 1_555 1_555
C52 C51 1_555 1_555
H34 C52 1_555 1_555
C53 C52 1_555 1_555
H35 C53 1_555 1_555
C54 C37 1_555 1_555
N13 C38 1_555 1_555
C55 H36 1_555 1_555
H37 C55 1_555 1_555
H38 C55 1_555 1_555
C56 N13 1_555 1_555
H39 C56 1_555 1_555
C77 C78 1_555 1_555
C78 H55 1_555 1_555
C79 C78 1_555 1_555
H56 C79 1_555 1_555
C80 C79 1_555 1_555
H57 C80 1_555 1_555
C81 C80 1_555 1_555
H58 C81 1_555 1_555
C82 C77 1_555 1_555
H59 C82 1_555 1_555
N15 C77 1_555 1_555
O1 N15 1_555 1_555
O2 N15 1_555 1_555
C83 C84 1_555 1_555
C84 H60 1_555 1_555
C85 C84 1_555 1_555
H61 C85 1_555 1_555
C86 C85 1_555 1_555
H62 C86 1_555 1_555
C87 C86 1_555 1_555
H63 C87 1_555 1_555
C88 C83 1_555 1_555
H64 C88 1_555 1_555
N16 C83 1_555 1_555
O3 N16 1_555 1_555
O4 N16 1_555 1_555
Zn2B N7 1_555 1_555
Zn3A N12 1_555 1_555
N7B Zn2 1_555 1_555
N12A Zn3 1_555 1_555
C5 N1 1_555 1_555
C7 N2 1_555 1_555
C8 N3 1_555 1_555
C8 N4 1_555 1_555
C13 N5 1_555 1_555
C18 N6 1_555 1_555
C23 N7 1_555 1_555
C25 N8 1_555 1_555
C26 N9 1_555 1_555
C26 N10 1_555 1_555
C27 N11 1_555 1_555
C31 N11 1_555 1_555
C36 N12 1_555 1_555
C41 C42 1_555 1_555
C47 C48 1_555 1_555
C49 C54 1_555 1_555
C53 C54 1_555 1_555
C55 C56 1_555 1_555
C81 C82 1_555 1_555
C87 C88 1_555 1_555

#END
