
#######################################################################
#
#                 Cambridge Crystallographic Data Centre
#                                CCDC 
#
#######################################################################
#
# If this CIF has been generated from an entry in the Cambridge 
# Structural Database, then it will include bibliographic, chemical, 
# crystal, experimental, refinement or atomic coordinate data resulting 
# from the CCDC's data processing and validation procedures.
#
#######################################################################

data_NIZZOM
_chemical_formula_moiety         '(C70 H51 I6 N13 O3 Zn3)n'
_symmetry_cell_setting           orthorhombic
_symmetry_space_group_name_H-M   'P b c a'
_symmetry_Int_Tables_number      61
_space_group_name_Hall           '-P 2ac 2ab'
loop_
_symmetry_equiv_pos_site_id
_symmetry_equiv_pos_as_xyz
1 x,y,z
2 1/2-x,-y,1/2+z
3 -x,1/2+y,1/2-z
4 1/2+x,1/2-y,-z
5 -x,-y,-z
6 1/2+x,y,1/2-z
7 x,1/2-y,1/2+z
8 1/2-x,1/2+y,z
_cell_length_a                   28.280(3)
_cell_length_b                   14.012(2)
_cell_length_c                   44.907(5)
_cell_angle_alpha                90
_cell_angle_beta                 90
_cell_angle_gamma                90
_cell_volume                     17794.8
loop_
_atom_site_label
_atom_site_type_symbol
_atom_site_fract_x
_atom_site_fract_y
_atom_site_fract_z
I1 I 0.19672(3) 0.83105(4) -0.187564(14)
I2 I 0.32277(2) 0.66464(6) -0.164876(16)
I3 I 0.05817(3) 0.81287(5) 0.082247(18)
I4 I -0.01207(2) 0.54522(6) 0.114074(14)
I5 I 0.00090(2) -0.19254(4) -0.034370(14)
I6 I 0.07063(3) -0.20276(5) -0.12227(2)
Zn1 Zn 0.23660(3) 0.66869(6) -0.181055(18)
Zn2 Zn 0.05162(3) 0.63288(7) 0.084892(19)
Zn3 Zn 0.01958(3) -0.11692(6) -0.08488(2)
C1 C 0.1742(3) 0.6351(6) -0.13021(18)
H1 H 0.1736 0.7029 -0.1304
C2 C 0.1498(3) 0.5876(6) -0.10784(19)
H2 H 0.1321 0.6221 -0.0935
C3 C 0.1518(3) 0.4888(5) -0.10696(16)
C4 C 0.1768(3) 0.4420(6) -0.1293(2)
H3 H 0.1780 0.3743 -0.1299
C5 C 0.1995(3) 0.4950(6) -0.15052(19)
H4 H 0.2169 0.4625 -0.1655
C6 C 0.1264(2) 0.4358(5) -0.08297(16)
C7 C 0.0941(2) 0.3015(5) -0.06543(16)
C8 C 0.0895(2) 0.4365(5) -0.03858(16)
C9 C 0.0713(3) 0.0608(6) -0.09905(18)
H5 H 0.0764 0.0289 -0.1174
C10 C 0.0872(3) 0.1530(6) -0.09622(18)
H6 H 0.1023 0.1841 -0.1124
C11 C 0.0808(3) 0.2001(5) -0.06930(17)
C12 C 0.0591(3) 0.1511(6) -0.04644(17)
H7 H 0.0548 0.1808 -0.0276
C13 C 0.0439(3) 0.0590(6) -0.05096(17)
H8 H 0.0291 0.0260 -0.0350
C14 C 0.0673(3) 0.6261(6) 0.01872(17)
H9 H 0.0687 0.6936 0.0203
C15 C 0.0777(3) 0.5844(5) -0.00880(18)
H10 H 0.0858 0.6226 -0.0255
C16 C 0.0759(2) 0.4865(5) -0.01088(15)
C17 C 0.0610(3) 0.4348(6) 0.01356(19)
H11 H 0.0577 0.3674 0.0123
C18 C 0.0509(3) 0.4816(6) 0.03965(18)
H12 H 0.0402 0.4451 0.0561
C19 C 0.3443(3) 0.4002(7) -0.41132(17)
H13 H 0.3449 0.3802 -0.4315
C20 C 0.3003(3) 0.4154(6) -0.39777(17)
H14 H 0.2718 0.4072 -0.4087
C21 C 0.2994(2) 0.4425(5) -0.36832(15)
C22 C 0.3420(3) 0.4572(5) -0.35408(15)
H15 H 0.3425 0.4778 -0.3339
C23 C 0.3835(3) 0.4420(6) -0.36896(17)
H16 H 0.4124 0.4531 -0.3588
C24 C 0.1749(2) 0.4569(5) -0.35034(15)
C25 C 0.2543(2) 0.4568(4) -0.35203(15)
C26 C 0.2170(2) 0.4943(5) -0.30926(16)
C27 C 0.0837(3) 0.4173(7) -0.40950(17)
H17 H 0.0828 0.4088 -0.4305
C28 C 0.1272(3) 0.4324(6) -0.39578(18)
H18 H 0.1553 0.4344 -0.4073
C29 C 0.1291(3) 0.4444(5) -0.36557(17)
C30 C 0.0875(3) 0.4450(7) -0.34954(19)
H19 H 0.0876 0.4558 -0.3287
C31 C 0.0454(3) 0.4295(8) -0.3648(2)
H20 H 0.0166 0.4295 -0.3539
C32 C 0.1866(3) 0.5888(8) -0.23326(18)
H21 H 0.1593 0.6089 -0.2226
C33 C 0.1811(3) 0.5531(7) -0.26201(19)
H22 H 0.1505 0.5477 -0.2706
C34 C 0.2205(3) 0.5258(5) -0.27785(15)
C35 C 0.2638(3) 0.5317(6) -0.26397(17)
H23 H 0.2915 0.5117 -0.2742
C36 C 0.2671(3) 0.5662(5) -0.23544(17)
H24 H 0.2973 0.5693 -0.2262
N1 N 0.1982(2) 0.5908(4) -0.15116(13)
N2 N 0.1126(2) 0.4864(4) -0.05921(12)
N3 N 0.1189(2) 0.3428(4) -0.08711(14)
N4 N 0.0787(2) 0.3452(4) -0.04081(14)
N5 N 0.0492(2) 0.0138(4) -0.07727(14)
N6 N 0.0554(2) 0.5760(4) 0.04302(13)
N7 N 0.3851(2) 0.4123(4) -0.39729(13)
N8 N 0.2142(2) 0.4437(4) -0.36652(13)
N9 N 0.2579(2) 0.4826(4) -0.32349(12)
N10 N 0.1745(2) 0.4828(4) -0.32113(13)
N11 N 0.0437(2) 0.4144(4) -0.39432(14)
N12 N 0.2292(2) 0.5957(4) -0.22018(12)
Zn2A Zn 0.44838(3) 0.36712(7) -0.415108(19)
Zn3B Zn -0.01958(3) 0.38308(6) -0.41512(2)
N7A N 0.1149(2) 0.5877(4) 0.10271(13)
N11B N -0.0437(2) -0.0856(4) -0.10568(14)
C37 C 0.3234(5) 0.8071(6) 0.1288(3)
C38 C 0.3524(6) 0.8264(8) 0.1047(3)
C39 C 0.4010(6) 0.8254(10) 0.1059(4)
H25 H 0.4193 0.8298 0.0882
C40 C 0.4229(6) 0.818(2) 0.1339(5)
H26 H 0.4564 0.8193 0.1357
C41 C 0.3947(6) 0.8073(17) 0.1588(4)
H27 H 0.4089 0.8084 0.1780
C42 C 0.3458(5) 0.795(2) 0.1565(4)
C43 C 0.3206(6) 0.773(3) 0.1825(4)
C44 C 0.3444(6) 0.750(2) 0.2091(5)
H28 H 0.3779 0.7553 0.2098
C45 C 0.3198(8) 0.7206(19) 0.2342(4)
H29 H 0.3364 0.7051 0.2520
C46 C 0.2706(8) 0.7138(18) 0.2332(4)
H30 H 0.2531 0.6964 0.2504
C47 C 0.2478(7) 0.7329(19) 0.2065(5)
H31 H 0.2145 0.7239 0.2053
C48 C 0.2717(6) 0.765(2) 0.1815(3)
C49 C 0.2480(5) 0.7870(18) 0.1548(3)
C50 C 0.1992(6) 0.7906(17) 0.1548(4)
H32 H 0.1823 0.7757 0.1725
C51 C 0.1742(6) 0.8159(16) 0.1290(5)
H33 H 0.1406 0.8183 0.1292
C52 C 0.1990(7) 0.837(2) 0.1029(5)
H34 H 0.1824 0.8545 0.0853
C53 C 0.2481(7) 0.8336(18) 0.1030(4)
H35 H 0.2652 0.8498 0.0855
C54 C 0.2729(5) 0.8063(18) 0.1286(4)
N13 N 0.3329(8) 0.830(2) 0.0748(4)
C55 C 0.3520(11) 0.780(3) 0.0529(5)
H36 H 0.3787 0.7409 0.0566
C56 C 0.3318(9) 0.786(4) 0.0224(5)
C57 C 0.3121(12) 0.871(3) 0.0121(7)
H37 H 0.3115 0.9258 0.0247
C58 C 0.2935(10) 0.876(3) -0.0164(8)
H38 H 0.2801 0.9343 -0.0234
C59 C 0.2944(8) 0.796(4) -0.0348(5)
C60 C 0.3141(12) 0.712(3) -0.0246(8)
H39 H 0.3147 0.6571 -0.0371
C61 C 0.3327(11) 0.707(3) 0.0040(9)
H40 H 0.3461 0.6486 0.0110
O1 O 0.2739(10) 0.807(4) -0.0625(6)
C62 C 0.2720(13) 0.733(4) -0.0839(11)
H41 H 0.2524 0.7532 -0.1007
H42 H 0.2583 0.6757 -0.0748
H43 H 0.3041 0.7188 -0.0909
O4 O 0.0028(8) 0.8794(16) 0.1850(5)
C107 C 0.0226(8) 0.8347(16) 0.1737(5)
H78 H 0.0246 0.8395 0.1526
C108 C 0.0503(7) 0.7575(15) 0.1902(4)
C109 C 0.0893(9) 0.7828(16) 0.2073(7)
H79 H 0.0988 0.8477 0.2084
C110 C 0.1144(9) 0.713(2) 0.2226(7)
H80 H 0.1411 0.7305 0.2343
C111 C 0.1005(9) 0.6182(18) 0.2209(6)
C112 C 0.0615(10) 0.5929(15) 0.2038(7)
H81 H 0.0520 0.5280 0.2026
C113 C 0.0364(9) 0.6625(16) 0.1884(6)
H82 H 0.0097 0.6452 0.1768
O5 O 0.1263(11) 0.543(2) 0.2371(8)
C114 C 0.1128(17) 0.460(2) 0.2338(11)
H83 H 0.1330 0.4168 0.2454
H84 H 0.1146 0.4421 0.2127
H85 H 0.0800 0.4536 0.2406
loop_
_geom_bond_atom_site_label_1
_geom_bond_atom_site_label_2
_geom_bond_site_symmetry_1
_geom_bond_site_symmetry_2
I1 Zn1 1_555 1_555
I2 Zn1 1_555 1_555
I3 Zn2 1_555 1_555
I4 Zn2 1_555 1_555
I5 Zn3 1_555 1_555
I6 Zn3 1_555 1_555
Zn1 N1 1_555 1_555
Zn2 N6 1_555 1_555
Zn3 N5 1_555 1_555
C1 H1 1_555 1_555
C2 C1 1_555 1_555
H2 C2 1_555 1_555
C3 C2 1_555 1_555
C4 C3 1_555 1_555
H3 C4 1_555 1_555
C5 C4 1_555 1_555
H4 C5 1_555 1_555
C6 C3 1_555 1_555
C7 C11 1_555 1_555
C8 C16 1_555 1_555
C9 H5 1_555 1_555
C10 C9 1_555 1_555
H6 C10 1_555 1_555
C11 C10 1_555 1_555
C12 C11 1_555 1_555
H7 C12 1_555 1_555
C13 C12 1_555 1_555
H8 C13 1_555 1_555
C14 H9 1_555 1_555
C15 C14 1_555 1_555
H10 C15 1_555 1_555
C16 C15 1_555 1_555
C17 C16 1_555 1_555
H11 C17 1_555 1_555
C18 C17 1_555 1_555
H12 C18 1_555 1_555
C19 H13 1_555 1_555
C20 C19 1_555 1_555
H14 C20 1_555 1_555
C21 C20 1_555 1_555
C22 C21 1_555 1_555
H15 C22 1_555 1_555
C23 C22 1_555 1_555
H16 C23 1_555 1_555
C24 C29 1_555 1_555
C25 C21 1_555 1_555
C26 C34 1_555 1_555
C27 H17 1_555 1_555
C28 C27 1_555 1_555
H18 C28 1_555 1_555
C29 C28 1_555 1_555
C30 C29 1_555 1_555
H19 C30 1_555 1_555
C31 C30 1_555 1_555
H20 C31 1_555 1_555
C32 H21 1_555 1_555
C33 C32 1_555 1_555
H22 C33 1_555 1_555
C34 C33 1_555 1_555
C35 C34 1_555 1_555
H23 C35 1_555 1_555
C36 C35 1_555 1_555
H24 C36 1_555 1_555
N1 C1 1_555 1_555
N2 C6 1_555 1_555
N3 C6 1_555 1_555
N4 C7 1_555 1_555
N5 C9 1_555 1_555
N6 C14 1_555 1_555
N7 C19 1_555 1_555
N8 C24 1_555 1_555
N9 C25 1_555 1_555
N10 C24 1_555 1_555
N11 C27 1_555 1_555
N12 Zn1 1_555 1_555
C37 C38 1_555 1_555
C38 C39 1_555 1_555
C39 H25 1_555 1_555
C40 C39 1_555 1_555
H26 C40 1_555 1_555
C41 C40 1_555 1_555
H27 C41 1_555 1_555
C42 C37 1_555 1_555
C43 C42 1_555 1_555
C44 C43 1_555 1_555
H28 C44 1_555 1_555
C45 C44 1_555 1_555
H29 C45 1_555 1_555
C46 C45 1_555 1_555
H30 C46 1_555 1_555
C47 C46 1_555 1_555
H31 C47 1_555 1_555
C48 C43 1_555 1_555
C49 C48 1_555 1_555
C50 C49 1_555 1_555
H32 C50 1_555 1_555
C51 C50 1_555 1_555
H33 C51 1_555 1_555
C52 C51 1_555 1_555
H34 C52 1_555 1_555
C53 C52 1_555 1_555
H35 C53 1_555 1_555
C54 C37 1_555 1_555
N13 C38 1_555 1_555
C55 N13 1_555 1_555
H36 C55 1_555 1_555
C56 C55 1_555 1_555
C57 C56 1_555 1_555
H37 C57 1_555 1_555
C58 C57 1_555 1_555
H38 C58 1_555 1_555
C59 C58 1_555 1_555
C60 C59 1_555 1_555
H39 C60 1_555 1_555
C61 C56 1_555 1_555
H40 C61 1_555 1_555
O1 C59 1_555 1_555
C62 O1 1_555 1_555
H41 C62 1_555 1_555
H42 C62 1_555 1_555
H43 C62 1_555 1_555
O4 C107 1_555 1_555
C107 H78 1_555 1_555
C108 C107 1_555 1_555
C109 C108 1_555 1_555
H79 C109 1_555 1_555
C110 C109 1_555 1_555
H80 C110 1_555 1_555
C111 C110 1_555 1_555
C112 C111 1_555 1_555
H81 C112 1_555 1_555
C113 C108 1_555 1_555
H82 C113 1_555 1_555
O5 C111 1_555 1_555
C114 O5 1_555 1_555
H83 C114 1_555 1_555
H84 C114 1_555 1_555
H85 C114 1_555 1_555
Zn2A N7 1_555 1_555
Zn3B N11 1_555 1_555
N7A Zn2 1_555 1_555
N11B Zn3 1_555 1_555
C5 N1 1_555 1_555
C7 N3 1_555 1_555
C8 N2 1_555 1_555
C8 N4 1_555 1_555
C13 N5 1_555 1_555
C18 N6 1_555 1_555
C23 N7 1_555 1_555
C25 N8 1_555 1_555
C26 N9 1_555 1_555
C26 N10 1_555 1_555
C31 N11 1_555 1_555
C32 N12 1_555 1_555
C36 N12 1_555 1_555
C41 C42 1_555 1_555
C47 C48 1_555 1_555
C49 C54 1_555 1_555
C53 C54 1_555 1_555
C60 C61 1_555 1_555
C112 C113 1_555 1_555

#END
