
#######################################################################
#
#                 Cambridge Crystallographic Data Centre
#                                CCDC 
#
#######################################################################
#
# If this CIF has been generated from an entry in the Cambridge 
# Structural Database, then it will include bibliographic, chemical, 
# crystal, experimental, refinement or atomic coordinate data resulting 
# from the CCDC's data processing and validation procedures.
#
#######################################################################

data_NIZZIG
_chemical_formula_moiety         '(C60 H47 I6 N13 O2 Zn3)n'
_symmetry_cell_setting           orthorhombic
_symmetry_space_group_name_H-M   'P b c a'
_symmetry_Int_Tables_number      61
_space_group_name_Hall           '-P 2ac 2ab'
loop_
_symmetry_equiv_pos_site_id
_symmetry_equiv_pos_as_xyz
1 x,y,z
2 1/2-x,-y,1/2+z
3 -x,1/2+y,1/2-z
4 1/2+x,1/2-y,-z
5 -x,-y,-z
6 1/2+x,y,1/2-z
7 x,1/2-y,1/2+z
8 1/2-x,1/2+y,z
_cell_length_a                   28.14(1)
_cell_length_b                   14.022(5)
_cell_length_c                   44.48(2)
_cell_angle_alpha                90
_cell_angle_beta                 90
_cell_angle_gamma                90
_cell_volume                     17550.9
loop_
_atom_site_label
_atom_site_type_symbol
_atom_site_fract_x
_atom_site_fract_y
_atom_site_fract_z
_atom_site_U_iso_or_equiv
_atom_site_thermal_displace_type
C37 C 0.8323(8) 0.2374(8) 0.3179(4) 0.1070 Uani
C38 C 0.8619(9) 0.2614(11) 0.2941(5) 0.1313 Uani
H25 H 0.8953 0.2589 0.2967 0.1580 Uiso
C39 C 0.8435(10) 0.2888(13) 0.2666(5) 0.1393 Uani
C40 C 0.7940(10) 0.291(2) 0.2630(5) 0.1273 Uani
H26 H 0.7807 0.3097 0.2443 0.1530 Uiso
C41 C 0.7645(9) 0.267(2) 0.2866(6) 0.1197 Uani
H27 H 0.7311 0.2691 0.2839 0.1440 Uiso
C42 C 0.7835(8) 0.2392(18) 0.3147(4) 0.1023 Uani
C43 C 0.7535(7) 0.214(2) 0.3388(5) 0.1060 Uani
C44 C 0.7040(8) 0.2147(17) 0.3358(6) 0.1140 Uani
H28 H 0.6900 0.2311 0.3171 0.1370 Uiso
C45 C 0.6756(7) 0.191(3) 0.3600(7) 0.1287 Uani
H29 H 0.6420 0.1930 0.3579 0.1540 Uiso
C46 C 0.6958(9) 0.1659(19) 0.3876(7) 0.1267 Uani
H30 H 0.6761 0.1471 0.4040 0.1520 Uiso
C47 C 0.7452(9) 0.1682(17) 0.3909(5) 0.1160 Uani
H31 H 0.7592 0.1550 0.4098 0.1390 Uiso
C48 C 0.7738(6) 0.1897(17) 0.3663(5) 0.1017 Uani
C49 C 0.8233(6) 0.1888(19) 0.3692(5) 0.0903 Uani
C50 C 0.8424(9) 0.165(2) 0.3972(5) 0.1010 Uani
H32 H 0.8220 0.1538 0.4138 0.1210 Uiso
C51 C 0.8914(9) 0.159(2) 0.4006(6) 0.1000 Uani
H33 H 0.9043 0.1424 0.4196 0.1200 Uiso
C52 C 0.9217(8) 0.177(2) 0.3768(7) 0.0977 Uani
H34 H 0.9551 0.1733 0.3796 0.1170 Uiso
C53 C 0.9031(8) 0.201(3) 0.3490(7) 0.1043 Uani
H35 H 0.9237 0.2117 0.3324 0.1250 Uiso
C54 C 0.8531(7) 0.209(2) 0.3453(5) 0.0970 Uani
N13 N 0.8733(12) 0.324(3) 0.2434(7) 0.1783 Uani
C55 C 0.872(2) 0.354(4) 0.2168(8) 0.1967 Uani
H36 H 0.8427 0.3426 0.2064 0.2340 Uiso
C56 C 0.908(3) 0.405(6) 0.1992(13) 0.2567 Uani
H37 H 0.8962 0.4185 0.1790 0.3830 Uiso
H38 H 0.9369 0.3660 0.1978 0.3830 Uiso
H39 H 0.9160 0.4657 0.2093 0.3830 Uiso
C75 C 0.8949(18) 1.023(3) 0.2784(9) 0.2000 Uiso
H53 H 0.9241 1.0039 0.2893 0.2460 Uiso
H54 H 0.8775 1.0693 0.2909 0.2460 Uiso
C76 C 0.9086(19) 1.069(2) 0.2486(12) 0.2400 Uiso
H55 H 0.8796 1.0891 0.2376 0.2820 Uiso
H56 H 0.9283 1.1262 0.2523 0.2820 Uiso
C77 C 0.9031(19) 0.923(4) 0.2244(8) 0.2000 Uiso
H57 H 0.9194 0.8753 0.2117 0.2380 Uiso
H58 H 0.8752 0.9473 0.2132 0.2380 Uiso
C78 C 0.8867(18) 0.877(2) 0.2533(11) 0.1900 Uiso
H59 H 0.8631 0.8266 0.2484 0.2280 Uiso
H60 H 0.9142 0.8451 0.2630 0.2280 Uiso
O1 O 0.8662(11) 0.941(3) 0.2737(7) 0.1510 Uiso
O2 O 0.9349(14) 1.000(4) 0.2307(9) 0.2350 Uiso
I1 I 0.94265(4) -0.32229(6) 0.41699(3) 0.0801 Uani
I2 I 1.01366(3) -0.05651(8) 0.38351(2) 0.0698 Uani
I3 I 0.99399(3) 0.69537(6) 0.53412(2) 0.0680 Uani
I4 I 0.92522(5) 0.69599(9) 0.62417(4) 0.1039 Uani
I5 I 0.67410(4) -0.15761(8) 0.66428(2) 0.0751 Uani
I6 I 0.79804(4) -0.33406(6) 0.68710(2) 0.0672 Uani
Zn1 Zn 0.94973(5) -0.14194(10) 0.41365(3) 0.0486 Uani
Zn2 Zn 0.97677(5) 0.61707(9) 0.58498(3) 0.0497 Uani
Zn3 Zn 0.76076(5) -0.16955(9) 0.68055(3) 0.0460 Uani
C1 C 0.9553(4) 0.0118(9) 0.4597(2) 0.0487 Uani
H1 H 0.9701 0.0462 0.4439 0.0590 Uiso
C2 C 0.9446(4) 0.0581(9) 0.4858(3) 0.0517 Uani
H2 H 0.9514 0.1242 0.4878 0.0620 Uiso
C3 C 0.9240(4) 0.0097(8) 0.5093(2) 0.0413 Uani
C4 C 0.9155(5) -0.0880(8) 0.5062(3) 0.0533 Uani
H3 H 0.9026 -0.1242 0.5224 0.0640 Uiso
C5 C 0.9262(5) -0.1301(8) 0.4792(3) 0.0523 Uani
H4 H 0.9199 -0.1963 0.4769 0.0630 Uiso
C6 C 0.9093(4) 0.0606(8) 0.5369(3) 0.0460 Uani
C7 C 0.9044(4) 0.1956(8) 0.5634(3) 0.0470 Uani
C8 C 0.8719(4) 0.0621(7) 0.5815(2) 0.0410 Uani
C9 C 0.9523(4) 0.4430(8) 0.5501(3) 0.0503 Uani
H5 H 0.9666 0.4781 0.5342 0.0610 Uiso
C10 C 0.9372(5) 0.3487(8) 0.5444(3) 0.0523 Uani
H6 H 0.9403 0.3209 0.5250 0.0630 Uiso
C11 C 0.9173(4) 0.2977(7) 0.5683(3) 0.0437 Uani
C12 C 0.9124(4) 0.3425(9) 0.5954(3) 0.0520 Uani
H7 H 0.8983 0.3096 0.6118 0.0620 Uiso
C13 C 0.9277(4) 0.4344(8) 0.5990(3) 0.0513 Uani
H8 H 0.9242 0.4639 0.6181 0.0620 Uiso
C14 C 0.8023(5) 0.0020(8) 0.6506(3) 0.0623 Uani
H9 H 0.7861 0.0341 0.6664 0.0750 Uiso
C15 C 0.8255(6) 0.0562(9) 0.6291(3) 0.0657 Uani
H10 H 0.8263 0.1238 0.6305 0.0790 Uiso
C16 C 0.8470(4) 0.0100(8) 0.6062(3) 0.0440 Uani
C17 C 0.8439(6) -0.0894(9) 0.6058(3) 0.0727 Uani
H11 H 0.8573 -0.1240 0.5895 0.0870 Uiso
C18 C 0.8222(5) -0.1367(8) 0.6284(3) 0.0567 Uani
H12 H 0.8221 -0.2045 0.6282 0.0680 Uiso
C19 C 0.8831(4) -0.0668(8) 0.3678(3) 0.0467 Uani
H13 H 0.9120 -0.0557 0.3573 0.0560 Uiso
C20 C 0.8411(4) -0.0508(8) 0.3532(2) 0.0447 Uani
H14 H 0.8411 -0.0309 0.3328 0.0530 Uiso
C21 C 0.7989(4) -0.0636(6) 0.3682(2) 0.0347 Uani
C22 C 0.8000(4) -0.0928(8) 0.3982(3) 0.0453 Uani
H15 H 0.7716 -0.1005 0.4095 0.0550 Uiso
C23 C 0.8446(4) -0.1101(8) 0.4108(2) 0.0457 Uani
H16 H 0.8459 -0.1323 0.4310 0.0550 Uiso
C24 C 0.7535(4) -0.0474(7) 0.3522(2) 0.0370 Uani
C25 C 0.7159(4) -0.0064(7) 0.3097(2) 0.0377 Uani
C26 C 0.6737(4) -0.0452(7) 0.3507(2) 0.0387 Uani
C27 C 0.7669(4) 0.0598(8) 0.2348(3) 0.0473 Uani
H17 H 0.7968 0.0560 0.2249 0.0570 Uiso
C28 C 0.7631(4) 0.0263(7) 0.2637(2) 0.0433 Uani
H18 H 0.7904 0.0026 0.2738 0.0520 Uiso
C29 C 0.7193(4) 0.0268(7) 0.2783(2) 0.0380 Uani
C30 C 0.6810(4) 0.0608(8) 0.2621(3) 0.0503 Uani
H19 H 0.6501 0.0586 0.2706 0.0600 Uiso
C31 C 0.6874(5) 0.0981(10) 0.2335(3) 0.0570 Uani
H20 H 0.6610 0.1245 0.2231 0.0680 Uiso
C32 C 0.5816(4) -0.0950(8) 0.4097(3) 0.0487 Uani
H21 H 0.5809 -0.1113 0.4305 0.0580 Uiso
C33 C 0.6246(4) -0.0798(8) 0.3959(3) 0.0457 Uani
H22 H 0.6530 -0.0849 0.4074 0.0550 Uiso
C34 C 0.6273(4) -0.0576(8) 0.3660(3) 0.0473 Uani
C35 C 0.5855(4) -0.0503(10) 0.3506(3) 0.0550 Uani
H23 H 0.5855 -0.0349 0.3299 0.0660 Uiso
C36 C 0.5428(5) -0.0659(9) 0.3658(3) 0.0573 Uani
H24 H 0.5138 -0.0609 0.3550 0.0690 Uiso
N1 N 0.9452(3) -0.0826(6) 0.4556(2) 0.0453 Uani
N2 N 0.9207(4) 0.1535(7) 0.5390(2) 0.0483 Uani
N3 N 0.8786(3) 0.1556(7) 0.5855(2) 0.0473 Uani
N4 N 0.8867(3) 0.0097(6) 0.5578(2) 0.0430 Uani
N5 N 0.9476(3) 0.4842(7) 0.5764(2) 0.0480 Uani
N6 N 0.8015(3) -0.0922(6) 0.6503(2) 0.0447 Uani
N7 N 0.8855(3) -0.0972(6) 0.39628(19) 0.0410 Uani
N8 N 0.7567(3) -0.0213(6) 0.32364(18) 0.0357 Uani
N9 N 0.7127(3) -0.0612(6) 0.36700(19) 0.0370 Uani
N10 N 0.6727(4) -0.0167(6) 0.3217(2) 0.0440 Uani
N11 N 0.7301(3) 0.0975(6) 0.22024(18) 0.0387 Uani
N12 N 0.5412(3) -0.0876(6) 0.3949(2) 0.0453 Uani
Zn2C Zn 0.47677(5) -0.11707(9) 0.41502(3) 0.0497 Uani
Zn3A Zn 0.73924(5) 0.16955(9) 0.18055(3) 0.0460 Uani
N11A N 0.7699(3) -0.0975(6) 0.72024(18) 0.0387 Uani
N12C N 1.0412(3) 0.5876(6) 0.6051(2) 0.0453 Uani
loop_
_atom_site_aniso_label
_atom_site_aniso_U_11
_atom_site_aniso_U_22
_atom_site_aniso_U_33
_atom_site_aniso_U_23
_atom_site_aniso_U_13
_atom_site_aniso_U_12
C37 0.137(10) 0.048(11) 0.136(12) -0.019(12) -0.001(9) 0.006(12)
C38 0.158(13) 0.093(15) 0.143(13) 0.001(14) 0.005(11) 0.004(15)
C39 0.176(15) 0.100(15) 0.142(14) -0.003(14) 0.003(12) 0.012(16)
C40 0.178(16) 0.055(15) 0.149(15) -0.042(14) -0.018(13) 0.018(17)
C41 0.157(14) 0.042(12) 0.160(15) -0.039(14) -0.022(11) 0.005(13)
C42 0.131(9) 0.021(9) 0.155(13) -0.039(11) -0.018(9) 0.001(12)
C43 0.120(9) 0.029(12) 0.169(15) -0.040(13) -0.014(9) 0.003(11)
C44 0.125(8) 0.033(10) 0.184(15) -0.050(11) -0.018(10) -0.003(10)
C45 0.129(13) 0.054(14) 0.203(18) -0.061(15) 0.004(11) -0.005(13)
C46 0.131(13) 0.051(13) 0.198(17) -0.040(15) 0.019(14) -0.024(14)
C47 0.129(13) 0.033(11) 0.186(16) -0.030(14) 0.017(12) 0.001(13)
C48 0.116(10) 0.023(9) 0.166(14) -0.028(12) -0.003(9) -0.008(11)
C49 0.117(10) 0.013(9) 0.141(13) -0.014(12) -0.002(9) -0.001(10)
C50 0.127(14) 0.046(12) 0.130(12) -0.015(12) 0.003(11) 0.000(17)
C51 0.128(16) 0.045(12) 0.127(13) -0.009(13) -0.006(13) -0.002(16)
C52 0.118(14) 0.033(11) 0.142(14) -0.014(12) 0.001(11) 0.015(13)
C53 0.129(10) 0.047(12) 0.137(13) 0.001(12) 0.012(10) 0.013(13)
C54 0.127(10) 0.029(10) 0.135(11) -0.014(11) -0.003(8) -0.004(12)
N13 0.22(2) 0.16(2) 0.155(18) 0.027(19) 0.026(18) 0.02(2)
C55 0.24(3) 0.22(4) 0.13(2) 0.00(3) 0.02(2) 0.00(3)
C56 0.28(6) 0.34(7) 0.15(4) 0.04(4) 0.08(4) 0.02(5)
I1 0.0849(7) 0.0424(5) 0.1130(9) -0.0112(5) -0.0110(6) 0.0191(4)
I2 0.0485(5) 0.0935(7) 0.0674(6) 0.0114(5) 0.0045(4) 0.0111(5)
I3 0.0637 0.0501 0.0903 0.0352 -0.0075 -0.0092
I4 0.087 0.0737 0.1511 -0.0135 0.0419 0.0281
I5 0.0648 0.0901 0.0704 -0.0203 -0.0112 -0.0062
I6 0.0951 0.0373 0.0692 0.0102 0.0174 0.0019
Zn1 0.0496(8) 0.0450(7) 0.0513(8) -0.0033(6) -0.0029(6) 0.0102(6)
Zn2 0.0419 0.0338 0.0735 0.0062 0.0035 -0.0006
Zn3 0.0595 0.0402 0.0383 0.0027 0.0087 -0.0066
C1 0.050(7) 0.057(7) 0.039(6) 0.006(5) 0.003(5) -0.001(5)
C2 0.058(7) 0.042(6) 0.055(7) -0.001(5) 0.002(6) -0.006(5)
C3 0.044(6) 0.047(6) 0.033(5) 0.001(4) -0.005(5) 0.001(5)
C4 0.072(8) 0.039(6) 0.049(7) 0.014(5) -0.008(6) -0.006(6)
C5 0.071(8) 0.035(6) 0.051(7) 0.006(5) -0.014(6) -0.005(6)
C6 0.043(6) 0.045(6) 0.050(6) 0.007(5) -0.001(5) -0.009(5)
C7 0.047(6) 0.041(6) 0.053(7) 0.018(5) -0.004(5) -0.015(5)
C8 0.047(6) 0.030(5) 0.046(6) 0.009(4) 0.006(5) -0.010(4)
C9 0.061(7) 0.041(6) 0.049(7) 0.004(5) 0.008(6) -0.011(5)
C10 0.084(9) 0.035(6) 0.038(6) 0.012(5) -0.002(6) -0.015(6)
C11 0.040(6) 0.026(5) 0.065(7) 0.008(5) 0.000(5) -0.006(4)
C12 0.052(7) 0.049(7) 0.055(7) 0.007(5) 0.009(6) -0.008(5)
C13 0.062(8) 0.042(6) 0.050(7) 0.000(5) 0.015(6) -0.011(6)
C14 0.094(10) 0.032(6) 0.061(8) -0.002(5) 0.036(7) -0.009(6)
C15 0.110(12) 0.035(6) 0.052(7) 0.003(5) 0.030(8) -0.009(7)
C16 0.043(6) 0.041(6) 0.048(6) 0.009(5) 0.000(5) -0.005(5)
C17 0.105(12) 0.036(6) 0.077(9) 0.013(6) 0.048(9) 0.012(7)
C18 0.082(9) 0.026(5) 0.062(7) 0.011(5) 0.034(7) 0.008(5)
C19 0.050(7) 0.040(6) 0.050(7) 0.003(5) -0.004(5) -0.007(5)
C20 0.048(6) 0.046(6) 0.040(6) -0.001(5) -0.005(5) 0.002(5)
C21 0.042(6) 0.025(4) 0.037(5) -0.006(4) -0.006(4) 0.004(4)
C22 0.054(7) 0.038(6) 0.044(6) 0.002(5) -0.002(5) -0.001(5)
C23 0.056(7) 0.045(6) 0.036(6) 0.002(5) -0.007(5) 0.007(5)
C24 0.049(6) 0.026(5) 0.036(5) -0.004(4) -0.006(5) 0.002(4)
C25 0.040(6) 0.026(5) 0.047(6) -0.009(4) -0.005(5) 0.003(4)
C26 0.047(6) 0.026(5) 0.043(6) -0.011(4) 0.001(5) -0.002(4)
C27 0.058(7) 0.037(6) 0.047(6) -0.008(5) 0.005(5) 0.008(5)
C28 0.058(7) 0.026(5) 0.046(6) -0.003(4) -0.005(5) 0.010(5)
C29 0.051(6) 0.022(4) 0.041(5) -0.014(4) -0.013(5) -0.002(4)
C30 0.043(6) 0.051(7) 0.057(7) 0.000(5) -0.007(5) -0.005(5)
C31 0.056(7) 0.069(8) 0.046(7) 0.004(6) -0.011(6) 0.003(6)
C32 0.046(7) 0.050(7) 0.050(7) 0.001(5) 0.002(5) 0.000(5)
C33 0.040(6) 0.046(6) 0.051(7) 0.001(5) -0.007(5) 0.005(5)
C34 0.053(7) 0.036(6) 0.053(7) -0.011(5) -0.003(5) 0.011(5)
C35 0.048(7) 0.071(8) 0.046(7) 0.007(6) -0.002(5) 0.002(6)
C36 0.052(7) 0.065(8) 0.055(7) 0.016(6) -0.011(6) 0.010(6)
N1 0.050(5) 0.036(5) 0.050(5) 0.001(4) -0.007(4) 0.005(4)
N2 0.067(6) 0.043(5) 0.035(5) 0.000(4) 0.008(4) -0.013(5)
N3 0.050(6) 0.048(5) 0.044(5) 0.008(4) 0.002(4) -0.003(4)
N4 0.054(5) 0.034(4) 0.041(5) 0.006(4) 0.006(4) -0.008(4)
N5 0.047(5) 0.038(5) 0.059(6) 0.005(4) 0.005(4) -0.008(4)
N6 0.057(6) 0.033(4) 0.044(5) 0.007(4) 0.007(4) 0.003(4)
N7 0.055(6) 0.033(4) 0.035(5) 0.004(4) 0.000(4) 0.003(4)
N8 0.044(5) 0.029(4) 0.034(4) -0.003(3) -0.002(4) 0.004(4)
N9 0.045(5) 0.027(4) 0.039(4) -0.002(3) 0.002(4) 0.008(4)
N10 0.061(6) 0.032(4) 0.039(5) -0.004(4) -0.006(4) 0.001(4)
N11 0.048(5) 0.039(5) 0.029(4) -0.002(3) 0.000(4) -0.006(4)
N12 0.047(5) 0.034(5) 0.055(6) 0.002(4) 0.002(4) 0.003(4)
Zn2C 0.0419(7) 0.0338(6) 0.0735(9) 0.0062(6) -0.0035(6) 0.0006(5)
Zn3A 0.0595(8) 0.0402(7) 0.0383(6) -0.0027(5) -0.0087(6) -0.0066(6)
N11A 0.048 0.039 0.029 0.002 0 -0.006
N12C 0.047 0.034 0.055 0.002 -0.002 -0.003
loop_
_geom_bond_atom_site_label_1
_geom_bond_atom_site_label_2
_geom_bond_site_symmetry_1
_geom_bond_site_symmetry_2
I1 Zn1 1_555 1_555
I2 Zn1 1_555 1_555
I3 Zn2 1_555 1_555
I4 Zn2 1_555 1_555
I5 Zn3 1_555 1_555
I6 Zn3 1_555 1_555
Zn1 N1 1_555 1_555
Zn2 N5 1_555 1_555
Zn3 N6 1_555 1_555
C1 H1 1_555 1_555
C2 C1 1_555 1_555
H2 C2 1_555 1_555
C3 C2 1_555 1_555
C4 C3 1_555 1_555
H3 C4 1_555 1_555
C5 C4 1_555 1_555
H4 C5 1_555 1_555
C6 C3 1_555 1_555
C7 C11 1_555 1_555
C8 C16 1_555 1_555
C9 H5 1_555 1_555
C10 C9 1_555 1_555
H6 C10 1_555 1_555
C11 C10 1_555 1_555
C12 C11 1_555 1_555
H7 C12 1_555 1_555
C13 C12 1_555 1_555
H8 C13 1_555 1_555
C14 H9 1_555 1_555
C15 C14 1_555 1_555
H10 C15 1_555 1_555
C16 C15 1_555 1_555
C17 C16 1_555 1_555
H11 C17 1_555 1_555
C18 C17 1_555 1_555
H12 C18 1_555 1_555
C19 H13 1_555 1_555
C20 C19 1_555 1_555
H14 C20 1_555 1_555
C21 C20 1_555 1_555
C22 C21 1_555 1_555
H15 C22 1_555 1_555
C23 C22 1_555 1_555
H16 C23 1_555 1_555
C24 C21 1_555 1_555
C25 C29 1_555 1_555
C26 C34 1_555 1_555
C27 H17 1_555 1_555
C28 C27 1_555 1_555
H18 C28 1_555 1_555
C29 C28 1_555 1_555
C30 C29 1_555 1_555
H19 C30 1_555 1_555
C31 C30 1_555 1_555
H20 C31 1_555 1_555
C32 H21 1_555 1_555
C33 C32 1_555 1_555
H22 C33 1_555 1_555
C34 C33 1_555 1_555
C35 C34 1_555 1_555
H23 C35 1_555 1_555
C36 C35 1_555 1_555
H24 C36 1_555 1_555
N1 C1 1_555 1_555
N2 C6 1_555 1_555
N3 C7 1_555 1_555
N4 C6 1_555 1_555
N5 C9 1_555 1_555
N6 C14 1_555 1_555
N7 Zn1 1_555 1_555
N8 C24 1_555 1_555
N9 C24 1_555 1_555
N10 C25 1_555 1_555
N11 C27 1_555 1_555
N12 C32 1_555 1_555
C37 C38 1_555 1_555
C38 H25 1_555 1_555
C39 C38 1_555 1_555
C40 C39 1_555 1_555
H26 C40 1_555 1_555
C41 C40 1_555 1_555
H27 C41 1_555 1_555
C42 C37 1_555 1_555
C43 C42 1_555 1_555
C44 C43 1_555 1_555
H28 C44 1_555 1_555
C45 C44 1_555 1_555
H29 C45 1_555 1_555
C46 C45 1_555 1_555
H30 C46 1_555 1_555
C47 C46 1_555 1_555
H31 C47 1_555 1_555
C48 C43 1_555 1_555
C49 C48 1_555 1_555
C50 C49 1_555 1_555
H32 C50 1_555 1_555
C51 C50 1_555 1_555
H33 C51 1_555 1_555
C52 C51 1_555 1_555
H34 C52 1_555 1_555
C53 C52 1_555 1_555
H35 C53 1_555 1_555
C54 C37 1_555 1_555
N13 C39 1_555 1_555
C55 N13 1_555 1_555
H36 C55 1_555 1_555
C56 C55 1_555 1_555
H37 C56 1_555 1_555
H38 C56 1_555 1_555
H39 C56 1_555 1_555
C75 H53 1_555 1_555
H54 C75 1_555 1_555
C76 C75 1_555 1_555
H55 C76 1_555 1_555
H56 C76 1_555 1_555
C77 H57 1_555 1_555
H58 C77 1_555 1_555
C78 C77 1_555 1_555
H59 C78 1_555 1_555
H60 C78 1_555 1_555
O1 C75 1_555 1_555
O2 C76 1_555 1_555
Zn2C N12 1_555 1_555
Zn3A N11 1_555 1_555
N11A Zn3 1_555 1_555
N12C Zn2 1_555 1_555
C5 N1 1_555 1_555
C7 N2 1_555 1_555
C8 N3 1_555 1_555
C8 N4 1_555 1_555
C13 N5 1_555 1_555
C18 N6 1_555 1_555
C19 N7 1_555 1_555
C23 N7 1_555 1_555
C25 N8 1_555 1_555
C26 N9 1_555 1_555
C26 N10 1_555 1_555
C31 N11 1_555 1_555
C36 N12 1_555 1_555
C41 C42 1_555 1_555
C47 C48 1_555 1_555
C49 C54 1_555 1_555
C53 C54 1_555 1_555
C77 O2 1_555 1_555
C78 O1 1_555 1_555

#END
