
#######################################################################
#
#                 Cambridge Crystallographic Data Centre
#                                CCDC 
#
#######################################################################
#
# If this CIF has been generated from an entry in the Cambridge 
# Structural Database, then it will include bibliographic, chemical, 
# crystal, experimental, refinement or atomic coordinate data resulting 
# from the CCDC's data processing and validation procedures.
#
#######################################################################

data_KAHMOW
_chemical_formula_moiety         '(C34 H16 F12 O8 Zn2)n'
_symmetry_cell_setting           trigonal
_symmetry_space_group_name_H-M   'P 31'
_symmetry_Int_Tables_number      144
_space_group_name_Hall           'P 31'
loop_
_symmetry_equiv_pos_site_id
_symmetry_equiv_pos_as_xyz
1 x,y,z
2 -y,x-y,1/3+z
3 -x+y,-x,2/3+z
_cell_length_a                   21.224(10)
_cell_length_b                   21.224(10)
_cell_length_c                   7.710(5)
_cell_angle_alpha                90
_cell_angle_beta                 90
_cell_angle_gamma                120
_cell_volume                     3007.73
loop_
_atom_site_label
_atom_site_type_symbol
_atom_site_fract_x
_atom_site_fract_y
_atom_site_fract_z
O1 O 0.0917(4) 0.1315(4) 1.2984(10)
O2 O 0.6268(4) 0.4243(4) -0.0362(10)
Zn1 Zn 0.63313(6) 0.36689(6) 0.14908(14)
Zn2 Zn 0.03350(6) 0.06697(6) 1.48212(14)
C1 C 0.6568(6) 0.4473(7) -0.1790(16)
C2 C 0.8755(6) 0.8848(6) -0.8565(16)
C3 C 0.5524(6) 0.3430(6) 0.4786(16)
O3 O 0.9342(4) 0.9065(4) -0.7726(9)
C4 C 0.1146(6) 0.1250(6) 1.1527(16)
O4 O 0.5749(5) 0.3724(4) 0.3349(11)
O5 O 0.5728(4) 0.3055(4) 0.5609(10)
O6 O 0.0928(4) 0.0653(4) 1.0713(10)
O7 O 0.6944(4) 0.4264(4) -0.2621(10)
O8 O 0.8685(4) 0.9085(4) -0.9987(10)
C5 C 0.4959(5) 0.3565(5) 0.5660(14)
C6 C 0.8067(5) 0.8296(5) -0.7671(14)
C7 C 0.6436(5) 0.5035(5) -0.2708(13)
C8 C 0.1707(5) 0.1937(5) 1.0634(14)
C9 C 0.4193(6) 0.3429(6) 0.8120(16)
H1 H 0.4037 0.3264 0.9242
C10 C 0.6694(6) 0.5288(6) -0.4340(15)
H2 H 0.6952 0.5107 -0.4931
C11 C 0.1950(6) 0.1934(6) 0.8954(15)
H3 H 0.1760 0.1499 0.8340
F1 F 0.3354(5) 0.4832(4) 1.0122(15)
C12 C 0.7409(6) 0.8017(6) -0.8531(15)
H4 H 0.7401 0.8184 -0.9642
C13 C 0.8074(6) 0.8052(6) -0.5987(14)
H5 H 0.8510 0.8240 -0.5378
C14 C 0.6063(6) 0.5307(6) -0.1815(16)
H6 H 0.5897 0.5144 -0.0699
F2 F 0.2615(4) 0.3665(5) 0.5571(12)
C15 C 0.1995(6) 0.2597(6) 1.1515(16)
H7 H 0.1839 0.2606 1.2637
C16 C 0.4721(6) 0.3310(5) 0.7316(16)
H8 H 0.4910 0.3059 0.7903
F3 F 0.3313(5) 0.4808(4) 0.6198(14)
C17 C 0.6766(6) 0.7235(6) -0.6132(15)
C18 C 0.2473(6) 0.2576(6) 0.8196(17)
H9 H 0.2636 0.2570 0.7080
C19 C 0.6579(6) 0.5812(6) -0.5134(15)
H10 H 0.6752 0.5972 -0.6249
F4 F 0.6334(5) 0.7386(4) -0.2592(13)
C20 C 0.2757(6) 0.3232(6) 0.9099(17)
C21 C 0.5936(6) 0.5830(6) -0.2579(17)
H11 H 0.5672 0.6001 -0.1976
F5 F 0.4057(4) 0.4391(4) 1.0749(13)
C22 C 0.6071(6) 0.6666(6) -0.5162(17)
C23 C 0.7420(7) 0.7522(6) -0.5221(16)
H12 H 0.7424 0.7362 -0.4100
C24 C 0.3329(7) 0.3942(6) 0.8137(18)
F6 F 0.5171(4) 0.6642(4) -0.7149(14)
F7 F 0.5196(4) 0.6692(5) -0.3219(14)
C25 C 0.4682(6) 0.3942(6) 0.4802(16)
H13 H 0.4850 0.4119 0.3693
F8 F 0.5614(4) 0.5948(4) -0.7762(13)
C26 C 0.4169(6) 0.4060(6) 0.5538(17)
H14 H 0.3991 0.4316 0.4929
F9 F 0.4322(4) 0.5136(4) 0.8623(14)
C27 C 0.6757(6) 0.7494(6) -0.7786(16)
H15 H 0.6321 0.7320 -0.8386
C28 C 0.5425(7) 0.6236(8) -0.648(2)
F10 F 0.4864(4) 0.5678(4) -0.5637(14)
C29 C 0.2504(6) 0.3231(6) 1.0748(16)
H16 H 0.2681 0.3667 1.1347
F11 F 0.2339(4) 0.4142(4) 0.7677(15)
C30 C 0.5857(9) 0.7093(8) -0.390(2)
C31 C 0.3906(6) 0.3801(5) 0.7200(17)
C32 C 0.6200(6) 0.6100(6) -0.4236(16)
C33 C 0.2889(8) 0.4126(8) 0.684(2)
F12 F 0.5855(4) 0.7662(4) -0.4697(14)
C34 C 0.3772(8) 0.4576(7) 0.946(2)
Zn1A Zn 0.63311(6) 0.26624(8) 0.48241(14)
Zn1B Zn 0.73376(8) 0.36687(6) -0.18425(14)
Zn2B Zn 1.03347(8) 0.96650(6) -0.85121(14)
Zn2B_2 Zn 0.03347(8) -0.03350(6) 1.14879(14)
Zn2A Zn 0.93303(6) 0.96653(8) -1.18455(14)
O3A O 0.0935(4) 0.0277(6) 1.5607(9)
O5B O 0.7327(6) 0.4272(4) 0.2276(10)
O6A O -0.0653(4) 0.0275(6) 1.4046(10)
O7A O 0.5736(4) 0.2680(6) 0.0712(10)
O8B O 0.0400(6) 0.1315(4) 1.6680(10)
loop_
_geom_bond_atom_site_label_1
_geom_bond_atom_site_label_2
_geom_bond_site_symmetry_1
_geom_bond_site_symmetry_2
O1 Zn2 1_555 1_555
O2 Zn1 1_555 1_555
Zn1 O4 1_555 1_555
Zn2 O3A 1_555 1_555
C1 O2 1_555 1_555
C2 O3 1_555 1_555
C3 O4 1_555 1_555
O3 Zn2B 1_555 1_555
C4 O1 1_555 1_555
O5 C3 1_555 1_555
O6 C4 1_555 1_555
O7 C1 1_555 1_555
O8 C2 1_555 1_555
C5 C3 1_555 1_555
C6 C2 1_555 1_555
C7 C1 1_555 1_555
C8 C4 1_555 1_555
C9 H1 1_555 1_555
C10 C7 1_555 1_555
H2 C10 1_555 1_555
C11 C8 1_555 1_555
H3 C11 1_555 1_555
F1 C34 1_555 1_555
C12 C6 1_555 1_555
H4 C12 1_555 1_555
C13 C6 1_555 1_555
H5 C13 1_555 1_555
C14 C7 1_555 1_555
H6 C14 1_555 1_555
F2 C33 1_555 1_555
C15 C8 1_555 1_555
H7 C15 1_555 1_555
C16 C5 1_555 1_555
H8 C16 1_555 1_555
F3 C33 1_555 1_555
C17 C22 1_555 1_555
C18 C11 1_555 1_555
H9 C18 1_555 1_555
C19 C10 1_555 1_555
H10 C19 1_555 1_555
F4 C30 1_555 1_555
C20 C18 1_555 1_555
C21 C14 1_555 1_555
H11 C21 1_555 1_555
F5 C34 1_555 1_555
C22 C28 1_555 1_555
C23 C13 1_555 1_555
H12 C23 1_555 1_555
C24 C20 1_555 1_555
F6 C28 1_555 1_555
F7 C30 1_555 1_555
C25 C5 1_555 1_555
H13 C25 1_555 1_555
F8 C28 1_555 1_555
C26 C25 1_555 1_555
H14 C26 1_555 1_555
F9 C34 1_555 1_555
C27 C12 1_555 1_555
H15 C27 1_555 1_555
C28 F10 1_555 1_555
C29 C15 1_555 1_555
H16 C29 1_555 1_555
F11 C33 1_555 1_555
C30 C22 1_555 1_555
C31 C9 1_555 1_555
C32 C19 1_555 1_555
C33 C24 1_555 1_555
F12 C30 1_555 1_555
C34 C24 1_555 1_555
Zn1A O5 1_555 1_555
Zn1B O7 1_555 1_555
Zn2B_2 O6 1_555 1_555
Zn2A O8 1_555 1_555
O5B Zn1 1_555 1_555
O6A Zn2 1_555 1_555
O7A Zn1 1_555 1_555
O8B Zn2 1_555 1_555
C9 C16 1_555 1_555
C17 C23 1_555 1_555
C17 C27 1_555 1_555
C20 C29 1_555 1_555
C21 C32 1_555 1_555
C22 C32 1_555 1_555
C24 C31 1_555 1_555
C26 C31 1_555 1_555

#END
