
#######################################################################
#
#                 Cambridge Crystallographic Data Centre
#                                CCDC 
#
#######################################################################
#
# If this CIF has been generated from an entry in the Cambridge 
# Structural Database, then it will include bibliographic, chemical, 
# crystal, experimental, refinement or atomic coordinate data resulting 
# from the CCDC's data processing and validation procedures.
#
#######################################################################

data_LAWFOH
_chemical_formula_moiety         'C34 H12 Li7 N6 O29 Zn6'
_symmetry_cell_setting           monoclinic
_symmetry_space_group_name_H-M   'C 2/c'
_symmetry_Int_Tables_number      15
_space_group_name_Hall           '-C 2yc'
loop_
_symmetry_equiv_pos_site_id
_symmetry_equiv_pos_as_xyz
1 x,y,z
2 -x,y,1/2-z
3 1/2+x,1/2+y,z
4 1/2-x,1/2+y,1/2-z
5 -x,-y,-z
6 x,-y,1/2+z
7 1/2-x,1/2-y,-z
8 1/2+x,1/2-y,1/2+z
_cell_length_a                   17.5849(9)
_cell_length_b                   18.5060(6)
_cell_length_c                   17.2860(8)
_cell_angle_alpha                90
_cell_angle_beta                 115.122(6)
_cell_angle_gamma                90
_cell_volume                     5093.19
loop_
_atom_site_label
_atom_site_type_symbol
_atom_site_fract_x
_atom_site_fract_y
_atom_site_fract_z
Zn1 Zn 0.75389(3) 0.11970(2) 0.57864(2)
Li1 Li 0.9229(4) 0.1135(3) 0.7524(4)
O1 O 1.15781(16) 0.09047(18) 0.95405(16)
O2 O 1.03680(15) 0.10839(13) 0.84021(15)
C1 C 1.0795(2) 0.0840(2) 0.9124(2)
C2 C 1.0378(2) 0.0407(2) 0.9573(2)
C3 C 1.0744(2) -0.0222(3) 0.9995(3)
C4 C 0.9627(3) 0.0625(3) 0.9574(3)
N1 N 1.1509(8) -0.0495(7) 1.0075(8)
O3 O 1.1570(9) -0.0607(8) 0.9393(9)
O4 O 1.2093(7) -0.0631(8) 1.0790(9)
O5 O 0.75211(17) 0.21347(14) 0.62396(16)
O6 O 0.86601(16) 0.20113(14) 0.74752(16)
O7 O 0.77455(18) 0.53786(16) 0.86978(19)
O8 O 0.64750(18) 0.53313(15) 0.76234(18)
C5 C 0.8025(2) 0.23399(19) 0.6992(2)
C6 C 0.7808(2) 0.3049(2) 0.7261(2)
C7 C 0.8247(3) 0.3286(2) 0.8095(3)
C8 C 0.8043(3) 0.3939(2) 0.8338(3)
C9 C 0.7413(2) 0.4372(2) 0.7782(2)
C10 C 0.6992(3) 0.4136(2) 0.6956(3)
H1 H 0.6553 0.4424 0.6557
C11 C 0.7196(3) 0.3484(2) 0.6694(3)
H2 H 0.6907 0.3338 0.6114
C12 C 0.7182(3) 0.5088(2) 0.8048(2)
N2 N 0.8648(7) 0.4195(6) 0.9173(6)
O9 O 0.8391(6) 0.4108(5) 0.9719(5)
O10 O 0.9352(5) 0.4431(5) 0.9302(5)
N3 N 0.65806(18) 0.12419(15) 0.46025(18)
C13 C 0.6420(2) 0.0650(2) 0.4113(2)
H3 H 0.6744 0.0227 0.4345
C14 C 0.5806(2) 0.0629(2) 0.3287(2)
H4 H 0.5708 0.0199 0.2957
C15 C 0.5331(2) 0.12471(19) 0.2943(2)
C16 C 0.5504(2) 0.1862(2) 0.3454(2)
H5 H 0.5196 0.2294 0.3238
C17 C 0.6130(2) 0.1835(2) 0.4278(2)
H6 H 0.6241 0.2256 0.4625
O1D O 0.84219(16) -0.09047(18) 1.04595(16)
O2D O 0.96320(15) -0.10839(13) 1.15979(15)
C1D C 0.9205(2) -0.0840(2) 1.0876(2)
C2D C 0.9622(2) -0.0407(2) 1.0427(2)
C3D C 0.9256(2) 0.0222(3) 1.0005(3)
C4D C 1.0373(3) -0.0625(3) 1.0426(3)
N1D N 0.8491(8) 0.0495(7) 0.9925(8)
O3D O 0.8430(9) 0.0607(8) 1.0607(9)
O4D O 0.7907(7) 0.0631(8) 0.9210(9)
N3A N 0.34194(18) 0.12419(15) 0.03975(18)
C13A C 0.3580(2) 0.0650(2) 0.0887(2)
H3A H 0.3256 0.0227 0.0655
C14A C 0.4194(2) 0.0629(2) 0.1713(2)
H4A H 0.4292 0.0199 0.2043
C15A C 0.4669(2) 0.12471(19) 0.2057(2)
C16A C 0.4496(2) 0.1862(2) 0.1546(2)
H5A H 0.4804 0.2294 0.1762
C17A C 0.3870(2) 0.1835(2) 0.0722(2)
H6A H 0.3759 0.2256 0.0375
Zn1A Zn 0.24611(3) 0.11970(2) -0.07864(2)
Li1A Li 0.0771(4) 0.1135(3) -0.2524(4)
O5A O 0.24789(17) 0.21347(14) -0.12396(16)
O6A O 0.13399(16) 0.20113(14) -0.24752(16)
O7A O 0.22545(18) 0.53786(16) -0.36978(19)
O8A O 0.35250(18) 0.53313(15) -0.26234(18)
C5A C 0.1975(2) 0.23399(19) -0.1992(2)
C6A C 0.2192(2) 0.3049(2) -0.2261(2)
C7A C 0.1753(3) 0.3286(2) -0.3095(3)
C8A C 0.1957(3) 0.3939(2) -0.3338(3)
C9A C 0.2587(2) 0.4372(2) -0.2782(2)
C10A C 0.3008(3) 0.4136(2) -0.1956(3)
H1A H 0.3447 0.4424 -0.1557
C11A C 0.2804(3) 0.3484(2) -0.1694(3)
H2A H 0.3093 0.3338 -0.1114
C12A C 0.2818(3) 0.5088(2) -0.3048(2)
N2A N 0.1352(7) 0.4195(6) -0.4173(6)
O9A O 0.1609(6) 0.4108(5) -0.4719(5)
O10A O 0.0648(5) 0.4431(5) -0.4302(5)
Zn1A_2 Zn 1.24611(3) 0.11970(2) 0.92136(2)
Zn1B Zn 0.25389(3) 0.61970(2) -0.42136(2)
Zn1C Zn 0.74611(3) 0.61970(2) 0.92136(2)
Zn1E Zn 0.75389(3) -0.11970(2) 1.07864(2)
Li1A_2 Li 1.0771(4) 0.1135(3) 0.7476(4)
Li1B Li 0.4229(4) 0.6135(3) -0.2476(4)
Li1C Li 0.5771(4) 0.6135(3) 0.7476(4)
Li1D Li 1.0771(4) -0.1135(3) 1.2476(4)
Li1E Li 0.9229(4) -0.1135(3) 1.2524(4)
O1_2 O 0.15781(16) 0.09047(18) -0.04595(16)
O1A O 0.84219(16) 0.09047(18) 0.54595(16)
O2_2 O 0.03680(15) 0.10839(13) -0.15979(15)
O2A O -0.03680(15) 0.10839(13) -0.34021(15)
O2A_2 O 0.96320(15) 0.10839(13) 0.65979(15)
O7B O 0.27455(18) 0.03786(16) -0.13022(19)
O7C O 0.72545(18) 0.03786(16) 0.63022(19)
O8B O 0.14750(18) 0.03313(15) -0.23766(18)
O8C O 0.85250(18) 0.03313(15) 0.73766(18)
loop_
_geom_bond_atom_site_label_1
_geom_bond_atom_site_label_2
_geom_bond_site_symmetry_1
_geom_bond_site_symmetry_2
Zn1 O5 1_555 1_555
Li1 O2 1_555 1_555
O1 C1 1_555 1_555
O2 C1 1_555 1_555
C1 C2 1_555 1_555
C2 C3 1_555 1_555
C3 N1 1_555 1_555
C4 C2 1_555 1_555
N1 O3 1_555 1_555
O4 N1 1_555 1_555
O5 C5 1_555 1_555
O6 Li1 1_555 1_555
O7 C12 1_555 1_555
O8 C12 1_555 1_555
C5 O6 1_555 1_555
C6 C5 1_555 1_555
C7 C6 1_555 1_555
C8 C7 1_555 1_555
C9 C8 1_555 1_555
C10 C9 1_555 1_555
H1 C10 1_555 1_555
C11 C6 1_555 1_555
H2 C11 1_555 1_555
C12 C9 1_555 1_555
N2 C8 1_555 1_555
O9 N2 1_555 1_555
O10 N2 1_555 1_555
N3 Zn1 1_555 1_555
C13 N3 1_555 1_555
H3 C13 1_555 1_555
C14 C13 1_555 1_555
H4 C14 1_555 1_555
C15 C14 1_555 1_555
C16 C15 1_555 1_555
H5 C16 1_555 1_555
C17 N3 1_555 1_555
H6 C17 1_555 1_555
O1D C1D 1_555 1_555
O2D C1D 1_555 1_555
C1D C2D 1_555 1_555
C2D C3D 1_555 1_555
C3D C4 1_555 1_555
C4D C3 1_555 1_555
N1D C3D 1_555 1_555
O3D N1D 1_555 1_555
O4D N1D 1_555 1_555
N3A C13A 1_555 1_555
C13A H3A 1_555 1_555
C14A C13A 1_555 1_555
H4A C14A 1_555 1_555
C15A C15 1_555 1_555
C16A C15A 1_555 1_555
H5A C16A 1_555 1_555
C17A N3A 1_555 1_555
H6A C17A 1_555 1_555
Zn1A N3A 1_555 1_555
Li1A O6A 1_555 1_555
O5A Zn1A 1_555 1_555
O6A C5A 1_555 1_555
O7A C12A 1_555 1_555
O8A C12A 1_555 1_555
C5A O5A 1_555 1_555
C6A C5A 1_555 1_555
C7A C6A 1_555 1_555
C8A C7A 1_555 1_555
C9A C8A 1_555 1_555
C10A C9A 1_555 1_555
H1A C10A 1_555 1_555
C11A C6A 1_555 1_555
H2A C11A 1_555 1_555
C12A C9A 1_555 1_555
N2A C8A 1_555 1_555
O9A N2A 1_555 1_555
O10A N2A 1_555 1_555
Zn1A_2 O1 1_555 1_555
Zn1B O7A 1_555 1_555
Zn1C O7 1_555 1_555
Zn1E O1D 1_555 1_555
Li1A_2 O2 1_555 1_555
Li1B O8A 1_555 1_555
Li1C O8 1_555 1_555
Li1D O2D 1_555 1_555
Li1E O2D 1_555 1_555
O1_2 Zn1A 1_555 1_555
O1A Zn1 1_555 1_555
O2_2 Li1A 1_555 1_555
O2A Li1A 1_555 1_555
O2A_2 Li1 1_555 1_555
O7B Zn1A 1_555 1_555
O7C Zn1 1_555 1_555
O8B Li1A 1_555 1_555
O8C Li1 1_555 1_555
C10 C11 1_555 1_555
C16 C17 1_555 1_555
C2D C4D 1_555 1_555
C14A C15A 1_555 1_555
C16A C17A 1_555 1_555
C10A C11A 1_555 1_555
Li1A_2 O2A_2 1_555 1_555

#END
