
#######################################################################
#
#                 Cambridge Crystallographic Data Centre
#                                CCDC 
#
#######################################################################
#
# If this CIF has been generated from an entry in the Cambridge 
# Structural Database, then it will include bibliographic, chemical, 
# crystal, experimental, refinement or atomic coordinate data resulting 
# from the CCDC's data processing and validation procedures.
#
#######################################################################

data_LAWFUN
_chemical_formula_moiety         'C37 H27 Li6 N8 O19 Zn6'
_symmetry_cell_setting           monoclinic
_symmetry_space_group_name_H-M   'C 2/c'
_symmetry_Int_Tables_number      15
_space_group_name_Hall           '-C 2yc'
loop_
_symmetry_equiv_pos_site_id
_symmetry_equiv_pos_as_xyz
1 x,y,z
2 -x,y,1/2-z
3 1/2+x,1/2+y,z
4 1/2-x,1/2+y,1/2-z
5 -x,-y,-z
6 x,-y,1/2+z
7 1/2-x,1/2-y,-z
8 1/2+x,1/2-y,1/2+z
_cell_length_a                   17.0298(5)
_cell_length_b                   18.8904(5)
_cell_length_c                   16.7611(5)
_cell_angle_alpha                90
_cell_angle_beta                 112.447(4)
_cell_angle_gamma                90
_cell_volume                     4983.5
loop_
_atom_site_label
_atom_site_type_symbol
_atom_site_fract_x
_atom_site_fract_y
_atom_site_fract_z
O7 O 0.5109(4) 0.3041(4) 0.4644(5)
C18 C 0.4572(5) 0.3042(5) 0.3912(6)
H11 H 0.4327 0.2603 0.3663
N4 N 0.4320(4) 0.3616(4) 0.3457(5)
C19 C 0.4644(5) 0.4299(7) 0.3788(9)
H12 H 0.4220 0.4661 0.3492
H13 H 0.5167 0.4390 0.3690
H14 H 0.4766 0.4315 0.4408
C20 C 0.3746(6) 0.3610(7) 0.2594(7)
H15 H 0.3249 0.3900 0.2536
H16 H 0.3564 0.3123 0.2418
H17 H 0.4023 0.3804 0.2226
Zn1 Zn 0.24828(2) 0.37168(2) 0.41939(2)
Li1 Li 0.0821(3) 0.3833(2) 0.2470(3)
N1 N 0.34165(14) 0.36492(11) 0.53979(14)
C1 C 0.38743(16) 0.30652(13) 0.57197(16)
H1 H 0.3766 0.2654 0.5367
C2 C 0.44937(16) 0.30342(13) 0.65382(16)
H2 H 0.4802 0.2609 0.6744
C3 C 0.46640(16) 0.36324(13) 0.70605(17)
C4 C 0.41859(19) 0.42355(15) 0.67277(19)
H3 H 0.4280 0.4654 0.7066
C5 C 0.35733(19) 0.42239(15) 0.59030(19)
H4 H 0.3249 0.4640 0.5684
O1 O 0.25717(12) 0.28280(10) 0.36914(12)
O2 O 0.14348(12) 0.29964(9) 0.24782(12)
O3 O 0.34427(13) -0.03860(10) 0.22616(14)
O4 O 0.21846(13) -0.03949(11) 0.11749(15)
C6 C 0.20541(16) 0.26363(13) 0.29422(17)
C7 C 0.22292(16) 0.19315(13) 0.26407(17)
C8 C 0.17542(19) 0.16997(15) 0.18100(19)
C9 C 0.1902(2) 0.10297(17) 0.1538(2)
C10 C 0.25406(18) 0.05990(14) 0.21011(18)
C11 C 0.30069(19) 0.08420(15) 0.29301(18)
H5 H 0.3440 0.0551 0.3317
C12 C 0.28544(19) 0.14941(16) 0.32005(18)
H6 H 0.3177 0.1648 0.3772
C13 C 0.27466(18) -0.01061(14) 0.18394(18)
N2 N 0.1239(4) 0.2123(4) 0.1144(4)
H7 H 0.1194 0.2578 0.1231
H8 H 0.0956 0.1937 0.0632
O5 O 0.15492(11) 0.39447(11) 0.45399(11)
O6 O 0.03291(11) 0.38226(9) 0.34054(11)
C14 C 0.07665(15) 0.40677(13) 0.41375(15)
C15 C 0.03646(16) 0.45406(14) 0.45868(15)
C16 C -0.04747(17) 0.44400(15) 0.45042(17)
C17 C -0.08395(17) 0.48951(16) 0.49123(17)
N3 N -0.0985(7) 0.3922(6) 0.4056(7)
H9 H -0.1507 0.3892 0.4039
H10 H -0.0801 0.3611 0.3778
N1A N 0.65835(14) 0.36492(11) 0.96021(14)
C1A C 0.61257(16) 0.30652(13) 0.92803(16)
H1A H 0.6234 0.2654 0.9633
C2A C 0.55063(16) 0.30342(13) 0.84618(16)
H2A H 0.5198 0.2609 0.8256
C3A C 0.53360(16) 0.36324(13) 0.79395(17)
C4A C 0.58141(19) 0.42355(15) 0.82723(19)
H3A H 0.5720 0.4654 0.7934
C5A C 0.64267(19) 0.42239(15) 0.90970(19)
H4A H 0.6751 0.4640 0.9316
O5D O -0.15492(11) 0.60553(11) 0.54601(11)
O6D O -0.03291(11) 0.61774(9) 0.65946(11)
C14D C -0.07665(15) 0.59323(13) 0.58625(15)
C15D C -0.03646(16) 0.54594(14) 0.54132(15)
C16D C 0.04747(17) 0.55600(15) 0.54958(17)
C17D C 0.08395(17) 0.51049(16) 0.50877(17)
N3D N 0.0985(7) 0.6078(6) 0.5944(7)
H9D H 0.1507 0.6108 0.5961
H10D H 0.0801 0.6389 0.6222
Zn1A Zn -0.24828(2) 0.37168(2) 0.08061(2)
Li1A Li -0.0821(3) 0.3833(2) 0.2530(3)
O1A O -0.25717(12) 0.28280(10) 0.13086(12)
O2A O -0.14348(12) 0.29964(9) 0.25218(12)
O3A O -0.34427(13) -0.03860(10) 0.27384(14)
O4A O -0.21846(13) -0.03949(11) 0.38251(15)
C6A C -0.20541(16) 0.26363(13) 0.20578(17)
C7A C -0.22292(16) 0.19315(13) 0.23593(17)
C8A C -0.17542(19) 0.16997(15) 0.31900(19)
C9A C -0.1902(2) 0.10297(17) 0.3462(2)
C10A C -0.25406(18) 0.05990(14) 0.28989(18)
C11A C -0.30069(19) 0.08420(15) 0.20699(18)
H5A H -0.3440 0.0551 0.1683
C12A C -0.28544(19) 0.14941(16) 0.17995(18)
H6A H -0.3177 0.1648 0.1228
C13A C -0.27466(18) -0.01061(14) 0.31606(18)
N2A N -0.1239(4) 0.2123(4) 0.3856(4)
H7A H -0.1194 0.2578 0.3769
H8A H -0.0956 0.1937 0.4368
Zn1A_2 Zn 0.75172(2) 0.37168(2) 1.08061(2)
Zn1B Zn -0.25172(2) -0.12832(2) 0.41939(2)
Zn1C Zn 0.25172(2) -0.12832(2) 0.08061(2)
Zn1D Zn -0.24828(2) 0.62832(2) 0.58061(2)
Li1B Li -0.4179(3) -0.1167(2) 0.2470(3)
Li1C Li 0.4179(3) -0.1167(2) 0.2530(3)
Li1D Li -0.0821(3) 0.6167(2) 0.7530(3)
Li1E Li 0.0821(3) 0.6167(2) 0.7470(3)
N1A_2 N -0.34165(14) 0.36492(11) -0.03979(14)
O3B O -0.15573(13) 0.46140(10) 0.22616(14)
O3C O 0.15573(13) 0.46140(10) 0.27384(14)
O4B O -0.28154(13) 0.46051(11) 0.11749(15)
O4C O 0.28154(13) 0.46051(11) 0.38251(15)
O5A O -0.15492(11) 0.39447(11) 0.04601(11)
O6A O -0.03291(11) 0.38226(9) 0.15946(11)
loop_
_geom_bond_atom_site_label_1
_geom_bond_atom_site_label_2
_geom_bond_site_symmetry_1
_geom_bond_site_symmetry_2
Zn1 N1 1_555 1_555
Li1 O2 1_555 1_555
N1 C1 1_555 1_555
C1 H1 1_555 1_555
C2 C1 1_555 1_555
H2 C2 1_555 1_555
C3 C2 1_555 1_555
C4 C3 1_555 1_555
H3 C4 1_555 1_555
C5 N1 1_555 1_555
H4 C5 1_555 1_555
O1 Zn1 1_555 1_555
O2 C6 1_555 1_555
O3 C13 1_555 1_555
O4 C13 1_555 1_555
C6 O1 1_555 1_555
C7 C6 1_555 1_555
C8 C7 1_555 1_555
C9 C8 1_555 1_555
C10 C9 1_555 1_555
C11 C10 1_555 1_555
H5 C11 1_555 1_555
C12 C7 1_555 1_555
H6 C12 1_555 1_555
C13 C10 1_555 1_555
N2 C8 1_555 1_555
H7 N2 1_555 1_555
H8 N2 1_555 1_555
O5 Zn1 1_555 1_555
O6 Li1 1_555 1_555
C14 O5 1_555 1_555
C15 C14 1_555 1_555
C16 C15 1_555 1_555
C17 C16 1_555 1_555
N3 C16 1_555 1_555
H9 N3 1_555 1_555
H10 N3 1_555 1_555
O7 C18 1_555 1_555
C18 H11 1_555 1_555
N4 C18 1_555 1_555
C19 N4 1_555 1_555
H12 C19 1_555 1_555
H13 C19 1_555 1_555
H14 C19 1_555 1_555
C20 N4 1_555 1_555
H15 C20 1_555 1_555
H16 C20 1_555 1_555
H17 C20 1_555 1_555
N1A C1A 1_555 1_555
C1A H1A 1_555 1_555
C2A C1A 1_555 1_555
H2A C2A 1_555 1_555
C3A C3 1_555 1_555
C4A C3A 1_555 1_555
H3A C4A 1_555 1_555
C5A N1A 1_555 1_555
H4A C5A 1_555 1_555
O5D C14D 1_555 1_555
O6D C14D 1_555 1_555
C14D C15D 1_555 1_555
C15D C17 1_555 1_555
C16D C15D 1_555 1_555
C17D C15 1_555 1_555
N3D C16D 1_555 1_555
H9D N3D 1_555 1_555
H10D N3D 1_555 1_555
Zn1A O1A 1_555 1_555
Li1A O6 1_555 1_555
O1A C6A 1_555 1_555
O2A Li1A 1_555 1_555
O3A C13A 1_555 1_555
O4A C13A 1_555 1_555
C6A O2A 1_555 1_555
C7A C6A 1_555 1_555
C8A C7A 1_555 1_555
C9A C8A 1_555 1_555
C10A C9A 1_555 1_555
C11A C10A 1_555 1_555
H5A C11A 1_555 1_555
C12A C7A 1_555 1_555
H6A C12A 1_555 1_555
C13A C10A 1_555 1_555
N2A C8A 1_555 1_555
H7A N2A 1_555 1_555
H8A N2A 1_555 1_555
Zn1A_2 N1A 1_555 1_555
Zn1B O4A 1_555 1_555
Zn1C O4 1_555 1_555
Zn1D O5D 1_555 1_555
Li1B O3A 1_555 1_555
Li1C O3 1_555 1_555
Li1D O6D 1_555 1_555
Li1E O6D 1_555 1_555
N1A_2 Zn1A 1_555 1_555
O3B Li1A 1_555 1_555
O3C Li1 1_555 1_555
O4B Zn1A 1_555 1_555
O4C Zn1 1_555 1_555
O5A Zn1A 1_555 1_555
O6A Li1 1_555 1_555
C4 C5 1_555 1_555
C11 C12 1_555 1_555
O6 C14 1_555 1_555
C2A C3A 1_555 1_555
C4A C5A 1_555 1_555
C16D C17D 1_555 1_555
Li1A O6A 1_555 1_555
C11A C12A 1_555 1_555

#END
