
#######################################################################
#
#                 Cambridge Crystallographic Data Centre
#                                CCDC 
#
#######################################################################
#
# If this CIF has been generated from an entry in the Cambridge 
# Structural Database, then it will include bibliographic, chemical, 
# crystal, experimental, refinement or atomic coordinate data resulting 
# from the CCDC's data processing and validation procedures.
#
#######################################################################

data_PUZKOM
_chemical_formula_moiety         'C26 H18 N4 O13 S2 Zn7'
_symmetry_cell_setting           monoclinic
_symmetry_space_group_name_H-M   'C 2/c'
_symmetry_Int_Tables_number      15
_space_group_name_Hall           '-C 2yc'
loop_
_symmetry_equiv_pos_site_id
_symmetry_equiv_pos_as_xyz
1 x,y,z
2 -x,y,1/2-z
3 1/2+x,1/2+y,z
4 1/2-x,1/2+y,1/2-z
5 -x,-y,-z
6 x,-y,1/2+z
7 1/2-x,1/2-y,-z
8 1/2+x,1/2-y,1/2+z
_cell_length_a                   34.681(3)
_cell_length_b                   15.3678(13)
_cell_length_c                   13.7141(10)
_cell_angle_alpha                90
_cell_angle_beta                 112.169(4)
_cell_angle_gamma                90
_cell_volume                     6768.88
loop_
_atom_site_label
_atom_site_type_symbol
_atom_site_fract_x
_atom_site_fract_y
_atom_site_fract_z
N3 N 0.8687(10) 0.3143(16) 0.036(2)
C25 C 0.9132(6) 0.3379(17) 0.0419(18)
C26 C 0.8302(13) 0.3175(16) 0.0024(12)
O9 O 0.0000 -0.174(4) -0.2500
Zn1 Zn 0.11197(2) 0.22069(4) 0.06584(5)
Zn2 Zn 0.20146(2) 0.27979(4) 0.14487(5)
S1 S 0.16737(5) 0.51249(11) 0.34555(13)
S2 S 0.14570(5) 0.01795(11) 0.37187(13)
O1 O 0.17743(15) 0.3691(3) 0.2149(4)
O2 O 0.11071(15) 0.3303(3) 0.1469(4)
O3 O 0.18168(15) 0.6441(3) 0.5130(4)
O4 O 0.11673(16) 0.6958(3) 0.4526(4)
O5 O 0.19776(17) 0.1890(3) 0.2502(4)
O6 O 0.13068(16) 0.1525(4) 0.2026(4)
O7 O 0.20189(14) -0.1759(3) 0.5537(4)
O8 O 0.13676(15) -0.1253(3) 0.5052(4)
N1 N 0.26289(15) 0.3085(4) 0.2106(4)
N2 N 0.55049(16) 0.3022(4) 0.4898(5)
C1 C 0.1399(2) 0.3782(4) 0.2013(5)
C2 C 0.12954(19) 0.4522(4) 0.2544(5)
C3 C 0.0902(2) 0.4812(5) 0.2422(7)
H1 H 0.0656 0.4561 0.1963
C4 C 0.0916(2) 0.5532(6) 0.3073(7)
H2 H 0.0681 0.5814 0.3084
C5 C 0.1315(2) 0.5769(4) 0.3687(5)
C6 C 0.1442(2) 0.6447(4) 0.4516(5)
C7 C 0.2902(2) 0.2638(5) 0.1826(6)
H3 H 0.2801 0.2218 0.1303
C8 C 0.3326(2) 0.2771(6) 0.2276(7)
H4 H 0.3503 0.2441 0.2056
C9 C 0.3487(2) 0.3382(5) 0.3042(6)
C10 C 0.3207(2) 0.3857(5) 0.3311(6)
H5 H 0.3302 0.4294 0.3815
C11 C 0.2787(2) 0.3693(5) 0.2841(6)
H6 H 0.2605 0.4021 0.3045
C12 C 0.3948(2) 0.3518(7) 0.3587(7)
H7 H 0.3997 0.4130 0.3766
H8 H 0.4042 0.3193 0.4241
C13 C 0.4201(3) 0.3266(12) 0.2996(10)
H9 H 0.4159 0.3686 0.2437
H10 H 0.4106 0.2705 0.2670
C14 C 0.1690(2) 0.1446(4) 0.2580(5)
C15 C 0.1814(2) 0.0746(4) 0.3383(5)
C16 C 0.1737(2) -0.1228(4) 0.5080(5)
C17 C 0.18403(19) -0.0494(4) 0.4523(5)
C18 C 0.2206(2) 0.0416(5) 0.3872(6)
H11 H 0.2440 0.0640 0.3783
C19 C 0.2219(2) -0.0289(5) 0.4514(6)
H12 H 0.2462 -0.0590 0.4898
C20 C 0.5351(3) 0.3734(7) 0.4444(10)
H13 H 0.5529 0.4205 0.4530
C21 C 0.4936(3) 0.3844(10) 0.3831(12)
H14 H 0.4844 0.4383 0.3522
C22 C 0.4666(3) 0.3209(10) 0.3670(9)
C23 C 0.4835(4) 0.2421(11) 0.4112(15)
H15 H 0.4661 0.1941 0.4008
C24 C 0.5249(3) 0.2327(8) 0.4697(12)
H16 H 0.5356 0.1782 0.4957
Zn1E Zn 0.11197(2) -0.22069(4) 0.56584(5)
Zn1E_2 Zn 0.11197(2) 0.77931(4) 0.56584(5)
Zn1G Zn 0.61197(2) 0.27931(4) 0.56584(5)
Zn2E Zn 0.20146(2) -0.27979(4) 0.64487(5)
Zn2E_2 Zn 0.20146(2) 0.72021(4) 0.64487(5)
O3E O 0.18168(15) 0.3559(3) 0.0130(4)
O4E O 0.11673(16) 0.3042(3) -0.0474(4)
O7E O 0.20189(14) 0.1759(3) 0.0537(4)
O8E O 0.13676(15) 0.1253(3) 0.0052(4)
N2G N 0.05049(16) 0.1978(4) -0.0102(5)
loop_
_geom_bond_atom_site_label_1
_geom_bond_atom_site_label_2
_geom_bond_site_symmetry_1
_geom_bond_site_symmetry_2
Zn1 O2 1_555 1_555
Zn2 O1 1_555 1_555
S1 C2 1_555 1_555
S2 C15 1_555 1_555
O1 C1 1_555 1_555
O2 C1 1_555 1_555
O3 C6 1_555 1_555
O4 C6 1_555 1_555
O5 Zn2 1_555 1_555
O6 Zn1 1_555 1_555
O7 C16 1_555 1_555
O8 C16 1_555 1_555
N1 Zn2 1_555 1_555
N2 C20 1_555 1_555
C1 C2 1_555 1_555
C2 C3 1_555 1_555
C3 H1 1_555 1_555
C4 C3 1_555 1_555
H2 C4 1_555 1_555
C5 S1 1_555 1_555
C6 C5 1_555 1_555
C7 N1 1_555 1_555
H3 C7 1_555 1_555
C8 C7 1_555 1_555
H4 C8 1_555 1_555
C9 C8 1_555 1_555
C10 C9 1_555 1_555
H5 C10 1_555 1_555
C11 N1 1_555 1_555
H6 C11 1_555 1_555
C12 C9 1_555 1_555
H7 C12 1_555 1_555
H8 C12 1_555 1_555
C13 C12 1_555 1_555
H9 C13 1_555 1_555
H10 C13 1_555 1_555
C14 O5 1_555 1_555
C15 C14 1_555 1_555
C16 C17 1_555 1_555
C17 S2 1_555 1_555
C18 C15 1_555 1_555
H11 C18 1_555 1_555
C19 C17 1_555 1_555
H12 C19 1_555 1_555
C20 H13 1_555 1_555
C21 C20 1_555 1_555
H14 C21 1_555 1_555
C22 C13 1_555 1_555
C23 C22 1_555 1_555
H15 C23 1_555 1_555
C24 N2 1_555 1_555
H16 C24 1_555 1_555
N3 C25 1_555 1_555
C26 N3 1_555 1_555
Zn1E O8 1_555 1_555
Zn1E_2 O4 1_555 1_555
Zn1G N2 1_555 1_555
Zn2E O7 1_555 1_555
Zn2E_2 O3 1_555 1_555
O3E Zn2 1_555 1_555
O4E Zn1 1_555 1_555
O7E Zn2 1_555 1_555
O8E Zn1 1_555 1_555
N2G Zn1 1_555 1_555
O6 C14 1_555 1_555
C4 C5 1_555 1_555
C10 C11 1_555 1_555
C18 C19 1_555 1_555
C21 C22 1_555 1_555
C23 C24 1_555 1_555

#END
