
#######################################################################
#
#                 Cambridge Crystallographic Data Centre
#                                CCDC 
#
#######################################################################
#
# If this CIF has been generated from an entry in the Cambridge 
# Structural Database, then it will include bibliographic, chemical, 
# crystal, experimental, refinement or atomic coordinate data resulting 
# from the CCDC's data processing and validation procedures.
#
#######################################################################

data_UJOWEW
_chemical_formula_moiety         '(C48 H40 Cu2 N16 W1)n'
_symmetry_cell_setting           tetragonal
_symmetry_space_group_name_H-M   'I 41/a'
_symmetry_Int_Tables_number      88
_space_group_name_Hall           '-I 4ad'
loop_
_symmetry_equiv_pos_site_id
_symmetry_equiv_pos_as_xyz
1 x,y,z
2 3/4-y,1/4+x,1/4+z
3 1/2-x,-y,1/2+z
4 3/4+y,3/4-x,3/4+z
5 1/2+x,1/2+y,1/2+z
6 1/4-y,3/4+x,3/4+z
7 -x,1/2-y,z
8 1/4+y,1/4-x,1/4+z
9 -x,-y,-z
10 1/4+y,3/4-x,3/4-z
11 1/2+x,y,1/2-z
12 1/4-y,1/4+x,1/4-z
13 1/2-x,1/2-y,1/2-z
14 3/4+y,1/4-x,1/4-z
15 x,1/2+y,-z
16 3/4-y,3/4+x,3/4-z
_cell_length_a                   19.873(3)
_cell_length_b                   19.873(3)
_cell_length_c                   12.5477(16)
_cell_angle_alpha                90
_cell_angle_beta                 90
_cell_angle_gamma                90
_cell_volume                     4955.54
loop_
_atom_site_label
_atom_site_type_symbol
_atom_site_fract_x
_atom_site_fract_y
_atom_site_fract_z
_atom_site_U_iso_or_equiv
_atom_site_thermal_displace_type
W1 W 0.5000 0.7500 1.1250 0.0195 Uani
Cu1 Cu 0.5000 0.5000 1.0000 0.0325 Uani
N1 N 0.4708(3) 0.5438(3) 0.8216(5) 0.0407 Uani
N2 N 0.3981(3) 0.4884(3) 1.0385(5) 0.0380 Uani
N3 N 0.4972(3) 0.5917(3) 1.0538(5) 0.0337 Uani
N4 N 0.5974(3) 0.7421(3) 0.9080(5) 0.0317 Uani
C1 C 0.4973(3) 0.6472(3) 1.0796(5) 0.0220 Uani
C2 C 0.3538(4) 0.5398(4) 1.0341(6) 0.0447 Uani
H1 H 0.3702 0.5834 1.0169 0.0540 Uiso
C3 C 0.4582(4) 0.5209(4) 0.6355(7) 0.0503 Uani
H2 H 0.4584 0.4886 0.5797 0.0610 Uiso
C4 C 0.4447(5) 0.5876(5) 0.6133(7) 0.0580 Uani
H3 H 0.4363 0.6024 0.5425 0.0700 Uiso
C5 C 0.4439(5) 0.6320(5) 0.6979(8) 0.0660 Uani
H4 H 0.4344 0.6783 0.6867 0.0790 Uiso
C6 C 0.4571(5) 0.6082(4) 0.7988(7) 0.0563 Uani
H5 H 0.4564 0.6395 0.8560 0.0670 Uiso
C7 C 0.4712(4) 0.5016(4) 0.7384(6) 0.0453 Uani
H6 H 0.4811 0.4555 0.7513 0.0540 Uiso
C8 C 0.5640(3) 0.7460(3) 0.9840(5) 0.0230 Uani
C9 C 0.3725(4) 0.4272(4) 1.0637(6) 0.0450 Uani
H7 H 0.4024 0.3900 1.0686 0.0540 Uiso
C10 C 0.3048(5) 0.4166(4) 1.0827(7) 0.0537 Uani
H8 H 0.2888 0.3727 1.0989 0.0640 Uiso
C11 C 0.2616(5) 0.4691(5) 1.0781(8) 0.0583 Uani
H9 H 0.2150 0.4627 1.0915 0.0700 Uiso
C12 C 0.2867(4) 0.5326(5) 1.0533(7) 0.0547 Uani
H10 H 0.2574 0.5704 1.0497 0.0660 Uiso
Cu1F Cu 0.5000 1.0000 1.0000 0.0325 Uani
Cu1G Cu 0.7500 0.7500 1.2500 0.0325 Uani
Cu1A Cu 0.2500 0.7500 1.2500 0.0325 Uani
N1H N 0.5292(3) 0.4562(3) 1.1784(5) 0.0407 Uani
N1F N 0.5292(3) 0.9562(3) 0.8216(5) 0.0407 Uani
N1N N 0.4708(3) 1.0438(3) 1.1784(5) 0.0407 Uani
N2H N 0.6019(3) 0.5116(3) 0.9615(5) 0.0380 Uani
N2F N 0.6019(3) 1.0116(3) 1.0385(5) 0.0380 Uani
N2N N 0.3981(3) 0.9884(3) 0.9615(5) 0.0380 Uani
N3F N 0.5028(3) 0.9083(3) 1.0538(5) 0.0337 Uani
N3K N 0.6583(3) 0.7472(3) 1.1962(5) 0.0337 Uani
N3M N 0.3417(3) 0.7528(3) 1.1962(5) 0.0337 Uani
N3H N 0.5028(3) 0.4083(3) 0.9462(5) 0.0337 Uani
N3N N 0.4972(3) 1.0917(3) 0.9462(5) 0.0337 Uani
N4F N 0.4026(3) 0.7579(3) 0.9080(5) 0.0317 Uani
N4K N 0.5079(3) 0.8474(3) 1.3420(5) 0.0317 Uani
N4M N 0.4921(3) 0.6526(3) 1.3420(5) 0.0317 Uani
C1F C 0.5027(3) 0.8528(3) 1.0796(5) 0.0220 Uani
C1K C 0.6028(3) 0.7473(3) 1.1704(5) 0.0220 Uani
C1M C 0.3972(3) 0.7527(3) 1.1704(5) 0.0220 Uani
C2H C 0.6462(4) 0.4602(4) 0.9659(6) 0.0447 Uani
C2F C 0.6462(4) 0.9602(4) 1.0341(6) 0.0447 Uani
C2N C 0.3538(4) 1.0398(4) 0.9659(6) 0.0447 Uani
H1H H 0.6298 0.4166 0.9831 0.0540 Uiso
H1F H 0.6298 0.9166 1.0169 0.0540 Uiso
H1N H 0.3702 1.0834 0.9831 0.0540 Uiso
C3H C 0.5418(4) 0.4791(4) 1.3645(7) 0.0503 Uani
C3F C 0.5418(4) 0.9791(4) 0.6355(7) 0.0503 Uani
C3N C 0.4582(4) 1.0209(4) 1.3645(7) 0.0503 Uani
H2H H 0.5416 0.5114 1.4203 0.0610 Uiso
H2F H 0.5416 1.0114 0.5797 0.0610 Uiso
H2N H 0.4584 0.9886 1.4203 0.0610 Uiso
C4H C 0.5553(5) 0.4124(5) 1.3867(7) 0.0580 Uani
C4F C 0.5553(5) 0.9124(5) 0.6133(7) 0.0580 Uani
C4N C 0.4447(5) 1.0876(5) 1.3867(7) 0.0580 Uani
H3H H 0.5637 0.3976 1.4575 0.0700 Uiso
H3F H 0.5637 0.8976 0.5425 0.0700 Uiso
H3N H 0.4363 1.1024 1.4575 0.0700 Uiso
C5H C 0.5561(5) 0.3680(5) 1.3021(8) 0.0660 Uani
C5F C 0.5561(5) 0.8680(5) 0.6979(8) 0.0660 Uani
C5N C 0.4439(5) 1.1320(5) 1.3021(8) 0.0660 Uani
H4H H 0.5656 0.3217 1.3133 0.0790 Uiso
H4F H 0.5656 0.8217 0.6867 0.0790 Uiso
H4N H 0.4344 1.1783 1.3133 0.0790 Uiso
C6H C 0.5429(5) 0.3918(4) 1.2012(7) 0.0563 Uani
C6F C 0.5429(5) 0.8918(4) 0.7988(7) 0.0563 Uani
C6N C 0.4571(5) 1.1082(4) 1.2012(7) 0.0563 Uani
H5H H 0.5436 0.3605 1.1440 0.0670 Uiso
H5F H 0.5436 0.8605 0.8560 0.0670 Uiso
H5N H 0.4564 1.1395 1.1440 0.0670 Uiso
C7H C 0.5288(4) 0.4984(4) 1.2616(6) 0.0453 Uani
C7F C 0.5288(4) 0.9984(4) 0.7384(6) 0.0453 Uani
C7N C 0.4712(4) 1.0016(4) 1.2616(6) 0.0453 Uani
H6H H 0.5189 0.5445 1.2487 0.0540 Uiso
H6F H 0.5189 1.0445 0.7513 0.0540 Uiso
H6N H 0.4811 0.9555 1.2487 0.0540 Uiso
C8F C 0.4360(3) 0.7540(3) 0.9840(5) 0.0230 Uani
C8K C 0.5040(3) 0.8140(3) 1.2660(5) 0.0230 Uani
C8M C 0.4960(3) 0.6860(3) 1.2660(5) 0.0230 Uani
C9H C 0.6275(4) 0.5728(4) 0.9363(6) 0.0450 Uani
C9F C 0.6275(4) 1.0728(4) 1.0637(6) 0.0450 Uani
C9N C 0.3725(4) 0.9272(4) 0.9363(6) 0.0450 Uani
H7H H 0.5976 0.6100 0.9314 0.0540 Uiso
H7F H 0.5976 1.1100 1.0686 0.0540 Uiso
H7N H 0.4024 0.8900 0.9314 0.0540 Uiso
C10H C 0.6952(5) 0.5834(4) 0.9173(7) 0.0537 Uani
C10F C 0.6952(5) 1.0834(4) 1.0827(7) 0.0537 Uani
C10N C 0.3048(5) 0.9166(4) 0.9173(7) 0.0537 Uani
H8H H 0.7112 0.6273 0.9011 0.0640 Uiso
H8F H 0.7112 1.1273 1.0989 0.0640 Uiso
H8N H 0.2888 0.8727 0.9011 0.0640 Uiso
C11H C 0.7384(5) 0.5309(5) 0.9219(8) 0.0583 Uani
C11F C 0.7384(5) 1.0309(5) 1.0781(8) 0.0583 Uani
C11N C 0.2616(5) 0.9691(5) 0.9219(8) 0.0583 Uani
H9H H 0.7850 0.5373 0.9085 0.0700 Uiso
H9F H 0.7850 1.0373 1.0915 0.0700 Uiso
H9N H 0.2150 0.9627 0.9085 0.0700 Uiso
C12H C 0.7133(4) 0.4674(5) 0.9467(7) 0.0547 Uani
C12F C 0.7133(4) 0.9674(5) 1.0533(7) 0.0547 Uani
C12N C 0.2867(4) 1.0326(5) 0.9467(7) 0.0547 Uani
H10H H 0.7426 0.4296 0.9503 0.0660 Uiso
H10F H 0.7426 0.9296 1.0497 0.0660 Uiso
H10N H 0.2574 1.0704 0.9503 0.0660 Uiso
loop_
_atom_site_aniso_label
_atom_site_aniso_U_11
_atom_site_aniso_U_22
_atom_site_aniso_U_33
_atom_site_aniso_U_23
_atom_site_aniso_U_13
_atom_site_aniso_U_12
W1 0.01534(18) 0.01534(18) 0.0277(3) 0.000 0.000 0.000
Cu1 0.0454(8) 0.0144(6) 0.0378(7) -0.0042(5) 0.0000(6) -0.0004(5)
N1 0.055(4) 0.023(3) 0.044(4) -0.002(3) -0.001(3) 0.001(3)
N2 0.050(4) 0.026(3) 0.038(4) -0.005(3) -0.004(3) 0.001(3)
N3 0.050(4) 0.015(3) 0.036(4) -0.001(3) -0.002(3) 0.000(3)
N4 0.027(3) 0.038(3) 0.030(3) 0.001(3) 0.005(3) 0.003(3)
C1 0.017(3) 0.028(4) 0.021(3) 0.005(3) 0.000(3) -0.001(3)
C2 0.050(5) 0.037(4) 0.047(5) -0.003(4) -0.008(4) 0.005(4)
C3 0.070(6) 0.045(5) 0.036(5) -0.007(4) 0.004(4) -0.001(4)
C4 0.075(6) 0.064(6) 0.035(5) 0.013(5) -0.003(5) -0.002(5)
C5 0.106(8) 0.038(5) 0.054(6) 0.007(5) -0.011(6) 0.012(5)
C6 0.096(7) 0.028(4) 0.045(5) -0.001(4) -0.005(5) 0.009(5)
C7 0.082(6) 0.021(4) 0.033(4) -0.002(3) 0.016(4) 0.003(4)
C8 0.020(3) 0.019(3) 0.030(4) 0.001(3) -0.002(3) 0.000(3)
C9 0.052(5) 0.036(4) 0.047(5) -0.001(4) 0.002(4) -0.003(4)
C10 0.062(6) 0.048(5) 0.051(5) -0.006(4) 0.008(5) -0.009(4)
C11 0.046(5) 0.056(6) 0.073(7) -0.006(5) 0.006(5) -0.006(5)
C12 0.050(5) 0.054(6) 0.060(6) -0.010(5) -0.007(5) 0.018(4)
Cu1F 0.0454 0.0144 0.0378 0.0042 0 -0.0004
Cu1G 0.0144 0.0454 0.0378 0 -0.0042 0.0004
Cu1A 0.0144 0.0454 0.0378 0 0.0042 0.0004
N1H 0.055 0.023 0.044 -0.002 -0.001 0.001
N1F 0.055 0.023 0.044 0.002 0.001 0.001
N1N 0.055 0.023 0.044 0.002 0.001 0.001
N2H 0.05 0.026 0.038 -0.005 -0.004 0.001
N2F 0.05 0.026 0.038 0.005 0.004 0.001
N2N 0.05 0.026 0.038 0.005 0.004 0.001
N3F 0.05 0.015 0.036 0.001 0.002 0
N3K 0.015 0.05 0.036 0.002 -0.001 0
N3M 0.015 0.05 0.036 -0.002 0.001 0
N3H 0.05 0.015 0.036 -0.001 -0.002 0
N3N 0.05 0.015 0.036 0.001 0.002 0
N4F 0.027 0.038 0.03 -0.001 -0.005 0.003
N4K 0.038 0.027 0.03 -0.005 0.001 -0.003
N4M 0.038 0.027 0.03 0.005 -0.001 -0.003
C1F 0.017 0.028 0.021 -0.005 0 -0.001
C1K 0.028 0.017 0.021 0 0.005 0.001
C1M 0.028 0.017 0.021 0 -0.005 0.001
C2H 0.05 0.037 0.047 -0.003 -0.008 0.005
C2F 0.05 0.037 0.047 0.003 0.008 0.005
C2N 0.05 0.037 0.047 0.003 0.008 0.005
C3H 0.07 0.045 0.036 -0.007 0.004 -0.001
C3F 0.07 0.045 0.036 0.007 -0.004 -0.001
C3N 0.07 0.045 0.036 0.007 -0.004 -0.001
C4H 0.075 0.064 0.035 0.013 -0.003 -0.002
C4F 0.075 0.064 0.035 -0.013 0.003 -0.002
C4N 0.075 0.064 0.035 -0.013 0.003 -0.002
C5H 0.106 0.038 0.054 0.007 -0.011 0.012
C5F 0.106 0.038 0.054 -0.007 0.011 0.012
C5N 0.106 0.038 0.054 -0.007 0.011 0.012
C6H 0.096 0.028 0.045 -0.001 -0.005 0.009
C6F 0.096 0.028 0.045 0.001 0.005 0.009
C6N 0.096 0.028 0.045 0.001 0.005 0.009
C7H 0.082 0.021 0.033 -0.002 0.016 0.003
C7F 0.082 0.021 0.033 0.002 -0.016 0.003
C7N 0.082 0.021 0.033 0.002 -0.016 0.003
C8F 0.02 0.019 0.03 -0.001 0.002 0
C8K 0.019 0.02 0.03 0.002 0.001 0
C8M 0.019 0.02 0.03 -0.002 -0.001 0
C9H 0.052 0.036 0.047 -0.001 0.002 -0.003
C9F 0.052 0.036 0.047 0.001 -0.002 -0.003
C9N 0.052 0.036 0.047 0.001 -0.002 -0.003
C10H 0.062 0.048 0.051 -0.006 0.008 -0.009
C10F 0.062 0.048 0.051 0.006 -0.008 -0.009
C10N 0.062 0.048 0.051 0.006 -0.008 -0.009
C11H 0.046 0.056 0.073 -0.006 0.006 -0.006
C11F 0.046 0.056 0.073 0.006 -0.006 -0.006
C11N 0.046 0.056 0.073 0.006 -0.006 -0.006
C12H 0.05 0.054 0.06 -0.01 -0.007 0.018
C12F 0.05 0.054 0.06 0.01 0.007 0.018
C12N 0.05 0.054 0.06 0.01 0.007 0.018
loop_
_geom_bond_atom_site_label_1
_geom_bond_atom_site_label_2
_geom_bond_site_symmetry_1
_geom_bond_site_symmetry_2
W1 C1 1_555 1_555
Cu1 N1 1_555 1_555
N1 C6 1_555 1_555
N2 Cu1 1_555 1_555
N3 Cu1 1_555 1_555
N4 C8 1_555 1_555
C1 N3 1_555 1_555
C2 N2 1_555 1_555
H1 C2 1_555 1_555
C3 H2 1_555 1_555
C4 C3 1_555 1_555
H3 C4 1_555 1_555
C5 C4 1_555 1_555
H4 C5 1_555 1_555
C6 C5 1_555 1_555
H5 C6 1_555 1_555
C7 N1 1_555 1_555
H6 C7 1_555 1_555
C8 W1 1_555 1_555
C9 N2 1_555 1_555
H7 C9 1_555 1_555
C10 C9 1_555 1_555
H8 C10 1_555 1_555
C11 C10 1_555 1_555
H9 C11 1_555 1_555
C12 C2 1_555 1_555
H10 C12 1_555 1_555
Cu1F N1F 1_555 1_555
Cu1G N3K 1_555 1_555
Cu1A N3M 1_555 1_555
N1H Cu1 1_555 1_555
N1F C6F 1_555 1_555
N1N Cu1F 1_555 1_555
N2H Cu1 1_555 1_555
N2F Cu1F 1_555 1_555
N2N Cu1F 1_555 1_555
N3F Cu1F 1_555 1_555
N3K C1K 1_555 1_555
N3M C1M 1_555 1_555
N3H Cu1 1_555 1_555
N3N Cu1F 1_555 1_555
N4F C8F 1_555 1_555
N4K C8K 1_555 1_555
N4M C8M 1_555 1_555
C1F W1 1_555 1_555
C1K W1 1_555 1_555
C1M W1 1_555 1_555
C2H N2H 1_555 1_555
C2F N2F 1_555 1_555
C2N N2N 1_555 1_555
H1H C2H 1_555 1_555
H1F C2F 1_555 1_555
H1N C2N 1_555 1_555
C3H H2H 1_555 1_555
C3F H2F 1_555 1_555
C3N H2N 1_555 1_555
C4H C3H 1_555 1_555
C4F C3F 1_555 1_555
C4N C3N 1_555 1_555
H3H C4H 1_555 1_555
H3F C4F 1_555 1_555
H3N C4N 1_555 1_555
C5H C4H 1_555 1_555
C5F C4F 1_555 1_555
C5N C4N 1_555 1_555
H4H C5H 1_555 1_555
H4F C5F 1_555 1_555
H4N C5N 1_555 1_555
C6H N1H 1_555 1_555
C6F C5F 1_555 1_555
C6N N1N 1_555 1_555
H5H C6H 1_555 1_555
H5F C6F 1_555 1_555
H5N C6N 1_555 1_555
C7H N1H 1_555 1_555
C7F N1F 1_555 1_555
C7N N1N 1_555 1_555
H6H C7H 1_555 1_555
H6F C7F 1_555 1_555
H6N C7N 1_555 1_555
C8F W1 1_555 1_555
C8K W1 1_555 1_555
C8M W1 1_555 1_555
C9H N2H 1_555 1_555
C9F N2F 1_555 1_555
C9N N2N 1_555 1_555
H7H C9H 1_555 1_555
H7F C9F 1_555 1_555
H7N C9N 1_555 1_555
C10H C9H 1_555 1_555
C10F C9F 1_555 1_555
C10N C9N 1_555 1_555
H8H C10H 1_555 1_555
H8F C10F 1_555 1_555
H8N C10N 1_555 1_555
C11H C10H 1_555 1_555
C11F C10F 1_555 1_555
C11N C10N 1_555 1_555
H9H C11H 1_555 1_555
H9F C11F 1_555 1_555
H9N C11N 1_555 1_555
C12H C2H 1_555 1_555
C12F C2F 1_555 1_555
C12N C2N 1_555 1_555
H10H C12H 1_555 1_555
H10F C12F 1_555 1_555
H10N C12N 1_555 1_555
C3 C7 1_555 1_555
C11 C12 1_555 1_555
N3F C1F 1_555 1_555
C3H C7H 1_555 1_555
C3F C7F 1_555 1_555
C3N C7N 1_555 1_555
C5H C6H 1_555 1_555
C5N C6N 1_555 1_555
C11H C12H 1_555 1_555
C11F C12F 1_555 1_555
C11N C12N 1_555 1_555

#END
