
#######################################################################
#
#                 Cambridge Crystallographic Data Centre
#                                CCDC 
#
#######################################################################
#
# If this CIF has been generated from an entry in the Cambridge 
# Structural Database, then it will include bibliographic, chemical, 
# crystal, experimental, refinement or atomic coordinate data resulting 
# from the CCDC's data processing and validation procedures.
#
#######################################################################

data_GEGBEB
_chemical_formula_moiety         '(C94 H89 Ag3 Cl6 Eu1 N25 O25)n'
_symmetry_cell_setting           monoclinic
_symmetry_space_group_name_H-M   'P 21/c'
_symmetry_Int_Tables_number      14
_space_group_name_Hall           '-P 2ybc'
loop_
_symmetry_equiv_pos_site_id
_symmetry_equiv_pos_as_xyz
1 x,y,z
2 -x,1/2+y,1/2-z
3 -x,-y,-z
4 x,1/2-y,1/2+z
_cell_length_a                   14.2437(3)
_cell_length_b                   25.8296(7)
_cell_length_c                   27.8391(8)
_cell_angle_alpha                90
_cell_angle_beta                 97.592(2)
_cell_angle_gamma                90
_cell_volume                     10152.5
loop_
_atom_site_label
_atom_site_type_symbol
_atom_site_fract_x
_atom_site_fract_y
_atom_site_fract_z
Eu1 Eu 0.522242(17) 0.584857(10) 0.780939(9)
Ag1 Ag 1.07392(4) 0.52020(2) 0.92649(2)
Ag2 Ag 0.91786(4) 0.61498(2) 0.46745(2)
Ag3 Ag 0.01572(6) 0.26053(3) 0.81619(3)
N1 N 0.7094(3) 0.58689(16) 0.78529(14)
N2 N 0.6134(3) 0.51418(17) 0.82851(15)
N3 N 0.7171(3) 0.45031(17) 0.82428(16)
N4 N 1.0151(4) 0.4504(2) 0.8934(2)
N5 N 0.5894(3) 0.57692(17) 0.70225(15)
N6 N 0.6808(3) 0.61705(17) 0.65413(15)
N7 N 0.9056(3) 0.6022(2) 0.54798(18)
N8 N 0.6075(3) 0.66295(17) 0.81972(15)
N9 N 0.7108(3) 0.68269(17) 0.88448(15)
N10 N 0.9272(4) 0.8071(2) 0.92849(18)
N11 N 0.3340(3) 0.58438(17) 0.77409(14)
N12 N 0.4375(3) 0.50088(17) 0.75496(15)
N13 N 0.3495(3) 0.44189(18) 0.78670(16)
N14 N 0.0871(5) 0.3230(3) 0.7802(2)
N15 N 0.4340(3) 0.64984(17) 0.72481(15)
N16 N 0.3342(3) 0.64916(18) 0.65520(16)
N17 N 0.0498(4) 0.7163(3) 0.6313(2)
N18 N 0.4489(3) 0.60177(17) 0.85678(15)
N19 N 0.3546(3) 0.65773(17) 0.88900(15)
N20 N 0.1185(4) 0.5982(2) 0.9449(2)
N21 N 1.0576(5) 0.5636(3) 0.4646(3)
C1 C 0.7445(3) 0.5337(2) 0.78140(18)
H1 H 0.8133 0.5323 0.7929
H2 H 0.7343 0.5222 0.7472
C2 C 0.6924(3) 0.4991(2) 0.81154(18)
C3 C 0.5857(4) 0.4713(2) 0.85398(18)
C4 C 0.5081(4) 0.4653(2) 0.87920(19)
H3 H 0.4652 0.4929 0.8822
C5 C 0.4964(4) 0.4170(2) 0.8997(2)
H4 H 0.4437 0.4112 0.9167
C6 C 0.5616(5) 0.3767(2) 0.8958(2)
H5 H 0.5514 0.3441 0.9102
C7 C 0.6385(4) 0.3829(2) 0.8721(2)
H6 H 0.6822 0.3555 0.8698
C8 C 0.6504(4) 0.4316(2) 0.85124(19)
C9 C 0.7934(4) 0.4202(2) 0.8072(2)
H7 H 0.8122 0.4374 0.7781
H8 H 0.7685 0.3855 0.7971
C10 C 0.8815(4) 0.4133(2) 0.8443(2)
C11 C 0.9092(5) 0.3657(3) 0.8609(3)
H9 H 0.8729 0.3359 0.8505
C12 C 0.9925(6) 0.3610(3) 0.8936(3)
H10 H 1.0131 0.3279 0.9056
C13 C 1.0425(4) 0.4031(3) 0.9077(2)
H11 H 1.1002 0.3991 0.9287
C14 C 0.9341(5) 0.4536(3) 0.8619(3)
H12 H 0.9131 0.4872 0.8515
C15 C 0.7352(3) 0.6181(2) 0.74422(18)
H13 H 0.8012 0.6106 0.7389
H14 H 0.7301 0.6555 0.7513
C16 C 0.6682(3) 0.6039(2) 0.70020(18)
C17 C 0.5477(3) 0.5719(2) 0.65423(19)
C18 C 0.4644(4) 0.5475(2) 0.6347(2)
H15 H 0.4262 0.5294 0.6546
C19 C 0.4391(4) 0.5506(2) 0.5847(2)
H16 H 0.3826 0.5343 0.5702
C20 C 0.4961(4) 0.5775(3) 0.5554(2)
H17 H 0.4760 0.5796 0.5216
C21 C 0.5794(4) 0.6007(3) 0.5740(2)
H18 H 0.6183 0.6182 0.5541
C22 C 0.6038(4) 0.5970(2) 0.62404(19)
C23 C 0.7538(4) 0.6514(2) 0.6393(2)
H19 H 0.7835 0.6710 0.6679
H20 H 0.7237 0.6766 0.6153
C24 C 0.8297(4) 0.6219(2) 0.6175(2)
C25 C 0.8949(4) 0.5908(3) 0.6454(2)
H21 H 0.8927 0.5869 0.6791
C26 C 0.9625(5) 0.5660(3) 0.6235(3)
H22 H 1.0061 0.5434 0.6418
C27 C 0.9673(4) 0.5736(3) 0.5757(2)
H23 H 1.0172 0.5576 0.5616
C28 C 0.8386(4) 0.6264(2) 0.5693(2)
H24 H 0.7947 0.6479 0.5498
C29 C 0.7520(3) 0.6098(2) 0.83190(18)
H25 H 0.7581 0.5830 0.8576
H26 H 0.8159 0.6233 0.8288
C30 C 0.6904(3) 0.6522(2) 0.84485(18)
C31 C 0.5713(4) 0.7042(2) 0.8443(2)
C32 C 0.4876(4) 0.7321(2) 0.8332(2)
H27 H 0.4458 0.7259 0.8042
C33 C 0.4679(4) 0.7694(2) 0.8662(2)
H28 H 0.4116 0.7894 0.8598
C34 C 0.5292(4) 0.7780(2) 0.9087(2)
H29 H 0.5122 0.8029 0.9312
C35 C 0.6139(4) 0.7517(2) 0.9193(2)
H30 H 0.6558 0.7581 0.9482
C36 C 0.6341(4) 0.7159(2) 0.88580(19)
C37 C 0.7953(4) 0.6803(2) 0.9210(2)
H31 H 0.8244 0.6456 0.9202
H32 H 0.7760 0.6852 0.9536
C38 C 0.8678(4) 0.7209(2) 0.9128(2)
C39 C 0.9374(4) 0.7115(3) 0.8832(3)
H33 H 0.9413 0.6789 0.8677
C40 C 1.0007(4) 0.7508(3) 0.8769(3)
H34 H 1.0488 0.7455 0.8568
C41 C 0.9937(5) 0.7972(3) 0.8996(2)
H35 H 1.0378 0.8237 0.8948
C42 C 0.8673(4) 0.7687(2) 0.9352(2)
H36 H 0.8217 0.7745 0.9567
C43 C 0.3018(3) 0.5344(2) 0.79158(19)
H37 H 0.2354 0.5280 0.7774
H38 H 0.3044 0.5354 0.8273
C44 C 0.3635(3) 0.4921(2) 0.77756(18)
C45 C 0.4750(4) 0.4520(2) 0.74755(19)
C46 C 0.5538(4) 0.4372(2) 0.7252(2)
H39 H 0.5900 0.4619 0.7103
C47 C 0.5760(5) 0.3855(2) 0.7259(2)
H40 H 0.6281 0.3742 0.7105
C48 C 0.5246(5) 0.3490(2) 0.7483(2)
H41 H 0.5444 0.3139 0.7491
C49 C 0.4457(5) 0.3622(2) 0.7696(2)
H42 H 0.4099 0.3371 0.7842
C50 C 0.4216(4) 0.4147(2) 0.7683(2)
C51 C 0.2813(4) 0.4200(2) 0.8166(2)
H43 H 0.2568 0.4481 0.8357
H44 H 0.3144 0.3948 0.8397
C52 C 0.1978(4) 0.3930(2) 0.7863(2)
C53 C 0.1543(5) 0.4123(3) 0.7440(3)
H45 H 0.1759 0.4434 0.7310
C54 C 0.0760(6) 0.3853(4) 0.7196(4)
H46 H 0.0460 0.3968 0.6890
C55 C 0.0451(5) 0.3428(3) 0.7406(3)
H47 H -0.0109 0.3266 0.7255
C56 C 0.1657(6) 0.3474(3) 0.8023(3)
H48 H 0.1998 0.3319 0.8303
C57 C 0.2951(3) 0.5918(2) 0.72241(18)
H49 H 0.2960 0.5586 0.7047
H50 H 0.2288 0.6041 0.7198
C58 C 0.3542(4) 0.6306(2) 0.70110(19)
C59 C 0.4679(4) 0.6835(2) 0.6913(2)
C60 C 0.5507(4) 0.7136(2) 0.6957(2)
H51 H 0.5914 0.7160 0.7255
C61 C 0.5702(5) 0.7395(2) 0.6550(2)
H52 H 0.6258 0.7601 0.6566
C62 C 0.5090(5) 0.7360(2) 0.6110(2)
H53 H 0.5260 0.7535 0.5833
C63 C 0.4251(4) 0.7081(2) 0.6063(2)
H54 H 0.3832 0.7068 0.5768
C64 C 0.4067(4) 0.6824(2) 0.6475(2)
C65 C 0.2602(4) 0.6298(3) 0.6185(2)
H55 H 0.2376 0.5961 0.6296
H56 H 0.2883 0.6233 0.5884
C66 C 0.1758(4) 0.6650(2) 0.6065(2)
C67 C 0.1401(5) 0.6731(3) 0.5588(2)
H57 H 0.1705 0.6582 0.5337
C68 C 0.0603(5) 0.7029(3) 0.5474(3)
H58 H 0.0361 0.7098 0.5146
C69 C 0.0171(5) 0.7223(3) 0.5840(3)
H59 H -0.0400 0.7412 0.5758
C70 C 0.1294(5) 0.6869(3) 0.6410(3)
H60 H 0.1542 0.6814 0.6740
C71 C 0.3047(3) 0.6271(2) 0.80395(19)
H61 H 0.2388 0.6215 0.8106
H62 H 0.3072 0.6604 0.7865
C72 C 0.3697(3) 0.6287(2) 0.85012(18)
C73 C 0.4900(3) 0.6143(2) 0.90445(18)
C74 C 0.5746(3) 0.5972(2) 0.93079(19)
H63 H 0.6137 0.5725 0.9179
C75 C 0.5987(4) 0.6181(2) 0.97670(19)
H64 H 0.6555 0.6073 0.9958
C76 C 0.5404(4) 0.6549(2) 0.99539(19)
H65 H 0.5602 0.6693 1.0265
C77 C 0.4554(4) 0.6707(2) 0.97002(19)
H66 H 0.4154 0.6949 0.9831
C78 C 0.4320(4) 0.6494(2) 0.92451(18)
C79 C 0.2764(4) 0.6932(2) 0.8941(2)
H67 H 0.2406 0.7003 0.8618
H68 H 0.3019 0.7264 0.9079
C80 C 0.2106(4) 0.6701(2) 0.9267(2)
C81 C 0.1867(5) 0.6961(3) 0.9663(3)
H69 H 0.2111 0.7298 0.9740
C82 C 0.1269(6) 0.6728(3) 0.9949(3)
H70 H 0.1081 0.6905 1.0220
C83 C 0.0950(5) 0.6239(3) 0.9836(3)
H71 H 0.0549 0.6075 1.0037
C84 C 0.1742(4) 0.6222(3) 0.9174(2)
H72 H 0.1894 0.6047 0.8894
C85 C 1.1260(5) 0.5414(3) 0.4678(3)
C86 C 1.2156(6) 0.5133(3) 0.4702(3)
H73 H 1.2186 0.4869 0.4957
H74 H 1.2685 0.5375 0.4776
H75 H 1.2198 0.4965 0.4390
O21 O 0.0762(5) 0.2016(3) 0.7717(4)
Ag1_2 Ag 0.07392(4) 0.52020(2) 0.92649(2)
Ag2C Ag 0.91786(4) 0.88502(2) 0.96745(2)
Ag3A Ag -0.01572(6) 0.76053(3) 0.68381(3)
N10C N 0.9272(4) 0.6929(2) 0.42849(18)
N17A N -0.0498(4) 0.2163(3) 0.8687(2)
N20_2 N 1.1185(4) 0.5982(2) 0.9449(2)
N22 N 0.7411(6) 0.4872(3) 0.6650(3)
C87 C 0.7829(7) 0.4515(4) 0.6611(3)
C88 C 0.8299(8) 0.4014(4) 0.6557(4)
H76 H 0.8940 0.4074 0.6477
H77 H 0.7935 0.3815 0.6297
H78 H 0.8336 0.3820 0.6862
N23 N 0.7163(6) 0.6233(3) 0.4604(3)
C89 C 0.6477(6) 0.6078(3) 0.4394(3)
C90 C 0.5641(6) 0.5883(3) 0.4115(4)
H79 H 0.5477 0.6100 0.3827
H80 H 0.5118 0.5887 0.4311
H81 H 0.5751 0.5527 0.4014
N24 N 0.7601(5) 0.7519(3) 0.7820(3)
C91 C 0.7417(5) 0.7855(3) 0.8040(2)
C92 C 0.7167(6) 0.8291(3) 0.8324(3)
H82 H 0.7739 0.8489 0.8441
H83 H 0.6875 0.8165 0.8602
H84 H 0.6718 0.8514 0.8123
N25 N 0.2966(4) 0.5096(3) 0.9124(2)
C93 C 0.3268(4) 0.5217(3) 0.9502(2)
C94 C 0.3636(6) 0.5379(3) 0.9976(2)
H85 H 0.3169 0.5597 1.0108
H86 H 0.4219 0.5578 0.9963
H87 H 0.3776 0.5075 1.0184
Cl1 Cl 0.30554(11) 0.66132(6) 0.46155(6)
O1 O 0.2125(4) 0.6760(2) 0.4416(2)
O2 O 0.3023(4) 0.6255(2) 0.4996(2)
O3 O 0.3549(4) 0.7065(2) 0.4804(2)
O4 O 0.3535(4) 0.6379(2) 0.4257(2)
Cl2 Cl 0.20874(12) 0.73299(7) 0.26099(7)
O5 O 0.1410(5) 0.7701(3) 0.2691(4)
O6 O 0.2880(6) 0.7563(4) 0.2456(4)
O7 O 0.2537(8) 0.7178(5) 0.3039(4)
O8 O 0.1663(6) 0.6937(3) 0.2367(4)
Cl3 Cl 0.23698(10) 0.28528(6) 0.92991(5)
O9 O 0.2906(4) 0.3275(2) 0.91484(18)
O10 O 0.2990(3) 0.24747(19) 0.95494(17)
O11 O 0.1730(4) 0.3038(2) 0.96087(17)
O12 O 0.1845(3) 0.26214(16) 0.88756(14)
Cl4 Cl 0.80233(12) 0.52541(6) 0.37164(7)
O13 O 0.8403(4) 0.4926(2) 0.3394(3)
O14 O 0.7114(4) 0.5411(2) 0.3477(3)
O15 O 0.8597(4) 0.5695(2) 0.3807(2)
O16 O 0.7936(5) 0.4982(3) 0.4144(2)
Cl5 Cl 0.16029(10) 0.46933(6) 0.04433(6)
O17 O 0.2400(4) 0.4817(2) 0.07839(18)
O18 O 0.1019(4) 0.4359(2) 0.0678(3)
O19 O 0.1103(4) 0.5146(2) 0.0277(2)
O20 O 0.1939(4) 0.4438(3) 0.0048(2)
Cl6 Cl 0.02618(16) 0.57625(16) 0.78185(11)
O22 O 0.0934(4) 0.5511(3) 0.8192(2)
O23 O -0.0323(6) 0.6058(5) 0.8037(4)
O24 O -0.0369(5) 0.5393(4) 0.7598(3)
O25 O 0.0754(4) 0.5963(3) 0.7465(3)
loop_
_geom_bond_atom_site_label_1
_geom_bond_atom_site_label_2
_geom_bond_site_symmetry_1
_geom_bond_site_symmetry_2
Eu1 N1 1_555 1_555
Ag1 N4 1_555 1_555
Ag2 N7 1_555 1_555
Ag3 N14 1_555 1_555
N1 C1 1_555 1_555
N2 Eu1 1_555 1_555
N3 C2 1_555 1_555
N4 C13 1_555 1_555
N5 Eu1 1_555 1_555
N6 C16 1_555 1_555
N7 C27 1_555 1_555
N8 Eu1 1_555 1_555
N9 C30 1_555 1_555
N10 C41 1_555 1_555
N11 Eu1 1_555 1_555
N12 Eu1 1_555 1_555
N13 C44 1_555 1_555
N14 C55 1_555 1_555
N15 Eu1 1_555 1_555
N16 C58 1_555 1_555
N17 C69 1_555 1_555
N18 Eu1 1_555 1_555
N19 C72 1_555 1_555
N20 C83 1_555 1_555
N21 Ag2 1_555 1_555
N22 C87 1_555 1_555
N23 C89 1_555 1_555
N24 C91 1_555 1_555
N25 C93 1_555 1_555
C1 H1 1_555 1_555
H2 C1 1_555 1_555
C2 N2 1_555 1_555
C3 N2 1_555 1_555
C4 C3 1_555 1_555
H3 C4 1_555 1_555
C5 C4 1_555 1_555
H4 C5 1_555 1_555
C6 C5 1_555 1_555
H5 C6 1_555 1_555
C7 C6 1_555 1_555
H6 C7 1_555 1_555
C8 N3 1_555 1_555
C9 N3 1_555 1_555
H7 C9 1_555 1_555
H8 C9 1_555 1_555
C10 C9 1_555 1_555
C11 C10 1_555 1_555
H9 C11 1_555 1_555
C12 C11 1_555 1_555
H10 C12 1_555 1_555
C13 C12 1_555 1_555
H11 C13 1_555 1_555
C14 N4 1_555 1_555
H12 C14 1_555 1_555
C15 N1 1_555 1_555
H13 C15 1_555 1_555
H14 C15 1_555 1_555
C16 N5 1_555 1_555
C17 N5 1_555 1_555
C18 C17 1_555 1_555
H15 C18 1_555 1_555
C19 C18 1_555 1_555
H16 C19 1_555 1_555
C20 C19 1_555 1_555
H17 C20 1_555 1_555
C21 C20 1_555 1_555
H18 C21 1_555 1_555
C22 N6 1_555 1_555
C23 N6 1_555 1_555
H19 C23 1_555 1_555
H20 C23 1_555 1_555
C24 C23 1_555 1_555
C25 C24 1_555 1_555
H21 C25 1_555 1_555
C26 C25 1_555 1_555
H22 C26 1_555 1_555
C27 C26 1_555 1_555
H23 C27 1_555 1_555
C28 N7 1_555 1_555
H24 C28 1_555 1_555
C29 N1 1_555 1_555
H25 C29 1_555 1_555
H26 C29 1_555 1_555
C30 N8 1_555 1_555
C31 N8 1_555 1_555
C32 C31 1_555 1_555
H27 C32 1_555 1_555
C33 C32 1_555 1_555
H28 C33 1_555 1_555
C34 C33 1_555 1_555
H29 C34 1_555 1_555
C35 C34 1_555 1_555
H30 C35 1_555 1_555
C36 N9 1_555 1_555
C37 N9 1_555 1_555
H31 C37 1_555 1_555
H32 C37 1_555 1_555
C38 C37 1_555 1_555
C39 C38 1_555 1_555
H33 C39 1_555 1_555
C40 C39 1_555 1_555
H34 C40 1_555 1_555
C41 C40 1_555 1_555
H35 C41 1_555 1_555
C42 N10 1_555 1_555
H36 C42 1_555 1_555
C43 N11 1_555 1_555
H37 C43 1_555 1_555
H38 C43 1_555 1_555
C44 N12 1_555 1_555
C45 N12 1_555 1_555
C46 C45 1_555 1_555
H39 C46 1_555 1_555
C47 C46 1_555 1_555
H40 C47 1_555 1_555
C48 C47 1_555 1_555
H41 C48 1_555 1_555
C49 C48 1_555 1_555
H42 C49 1_555 1_555
C50 N13 1_555 1_555
C51 N13 1_555 1_555
H43 C51 1_555 1_555
H44 C51 1_555 1_555
C52 C51 1_555 1_555
C53 C52 1_555 1_555
H45 C53 1_555 1_555
C54 C53 1_555 1_555
H46 C54 1_555 1_555
C55 C54 1_555 1_555
H47 C55 1_555 1_555
C56 N14 1_555 1_555
H48 C56 1_555 1_555
C57 N11 1_555 1_555
H49 C57 1_555 1_555
H50 C57 1_555 1_555
C58 N15 1_555 1_555
C59 N15 1_555 1_555
C60 C59 1_555 1_555
H51 C60 1_555 1_555
C61 C60 1_555 1_555
H52 C61 1_555 1_555
C62 C61 1_555 1_555
H53 C62 1_555 1_555
C63 C62 1_555 1_555
H54 C63 1_555 1_555
C64 N16 1_555 1_555
C65 N16 1_555 1_555
H55 C65 1_555 1_555
H56 C65 1_555 1_555
C66 C65 1_555 1_555
C67 C66 1_555 1_555
H57 C67 1_555 1_555
C68 C67 1_555 1_555
H58 C68 1_555 1_555
C69 C68 1_555 1_555
H59 C69 1_555 1_555
C70 N17 1_555 1_555
H60 C70 1_555 1_555
C71 N11 1_555 1_555
H61 C71 1_555 1_555
H62 C71 1_555 1_555
C72 N18 1_555 1_555
C73 N18 1_555 1_555
C74 C73 1_555 1_555
H63 C74 1_555 1_555
C75 C74 1_555 1_555
H64 C75 1_555 1_555
C76 C75 1_555 1_555
H65 C76 1_555 1_555
C77 C76 1_555 1_555
H66 C77 1_555 1_555
C78 N19 1_555 1_555
C79 N19 1_555 1_555
H67 C79 1_555 1_555
H68 C79 1_555 1_555
C80 C79 1_555 1_555
C81 C80 1_555 1_555
H69 C81 1_555 1_555
C82 C81 1_555 1_555
H70 C82 1_555 1_555
C83 C82 1_555 1_555
H71 C83 1_555 1_555
C84 N20 1_555 1_555
H72 C84 1_555 1_555
C85 N21 1_555 1_555
C86 C85 1_555 1_555
H73 C86 1_555 1_555
H74 C86 1_555 1_555
H75 C86 1_555 1_555
C87 C88 1_555 1_555
C88 H76 1_555 1_555
H77 C88 1_555 1_555
H78 C88 1_555 1_555
C89 C90 1_555 1_555
C90 H79 1_555 1_555
H80 C90 1_555 1_555
H81 C90 1_555 1_555
C91 C92 1_555 1_555
C92 H82 1_555 1_555
H83 C92 1_555 1_555
H84 C92 1_555 1_555
C93 C94 1_555 1_555
C94 H85 1_555 1_555
H86 C94 1_555 1_555
H87 C94 1_555 1_555
Cl1 O1 1_555 1_555
Cl2 O5 1_555 1_555
Cl3 O9 1_555 1_555
Cl4 O13 1_555 1_555
Cl5 O17 1_555 1_555
O2 Cl1 1_555 1_555
O3 Cl1 1_555 1_555
O4 Cl1 1_555 1_555
O6 Cl2 1_555 1_555
O7 Cl2 1_555 1_555
O8 Cl2 1_555 1_555
O10 Cl3 1_555 1_555
O11 Cl3 1_555 1_555
O12 Cl3 1_555 1_555
O14 Cl4 1_555 1_555
O15 Cl4 1_555 1_555
O16 Cl4 1_555 1_555
O18 Cl5 1_555 1_555
O19 Cl5 1_555 1_555
O20 Cl5 1_555 1_555
O21 Ag3 1_555 1_555
Cl6 O22 1_555 1_555
O23 Cl6 1_555 1_555
O24 Cl6 1_555 1_555
O25 Cl6 1_555 1_555
Ag1_2 N20 1_555 1_555
Ag2C N10 1_555 1_555
Ag3A N17 1_555 1_555
N10C Ag2 1_555 1_555
N17A Ag3 1_555 1_555
N20_2 Ag1 1_555 1_555
C1 C2 1_555 1_555
C3 C8 1_555 1_555
C7 C8 1_555 1_555
C10 C14 1_555 1_555
C15 C16 1_555 1_555
C17 C22 1_555 1_555
C21 C22 1_555 1_555
C24 C28 1_555 1_555
C29 C30 1_555 1_555
C31 C36 1_555 1_555
C35 C36 1_555 1_555
C38 C42 1_555 1_555
C43 C44 1_555 1_555
C45 C50 1_555 1_555
C49 C50 1_555 1_555
C52 C56 1_555 1_555
C57 C58 1_555 1_555
C59 C64 1_555 1_555
C63 C64 1_555 1_555
C66 C70 1_555 1_555
C71 C72 1_555 1_555
C73 C78 1_555 1_555
C77 C78 1_555 1_555
C80 C84 1_555 1_555

#END
