
#######################################################################
#
#                 Cambridge Crystallographic Data Centre
#                                CCDC 
#
#######################################################################
#
# If this CIF has been generated from an entry in the Cambridge 
# Structural Database, then it will include bibliographic, chemical, 
# crystal, experimental, refinement or atomic coordinate data resulting 
# from the CCDC's data processing and validation procedures.
#
#######################################################################

data_GEGBOL
_chemical_formula_moiety         '(C94 H89 Ag3 Cl6 Gd1 N25 O25)n'
_symmetry_cell_setting           monoclinic
_symmetry_space_group_name_H-M   'P 21/c'
_symmetry_Int_Tables_number      14
_space_group_name_Hall           '-P 2ybc'
loop_
_symmetry_equiv_pos_site_id
_symmetry_equiv_pos_as_xyz
1 x,y,z
2 -x,1/2+y,1/2-z
3 -x,-y,-z
4 x,1/2-y,1/2+z
_cell_length_a                   14.24580(10)
_cell_length_b                   25.8856(2)
_cell_length_c                   27.8360(2)
_cell_angle_alpha                90
_cell_angle_beta                 97.4470(10)
_cell_angle_gamma                90
_cell_volume                     10178.3
loop_
_atom_site_label
_atom_site_type_symbol
_atom_site_fract_x
_atom_site_fract_y
_atom_site_fract_z
Gd1 Gd 0.52287(3) 0.584291(16) 0.781074(15)
Ag1 Ag 1.07450(5) 0.51991(2) 0.92629(3)
Ag2 Ag 0.91733(6) 0.61500(3) 0.46665(3)
Ag3 Ag 0.01542(8) 0.26006(4) 0.81604(4)
N1 N 0.7096(4) 0.5861(2) 0.7853(2)
N2 N 0.6135(4) 0.5139(2) 0.8288(2)
N3 N 0.7176(4) 0.4499(2) 0.8245(2)
N4 N 1.0156(5) 0.4498(3) 0.8930(3)
N5 N 0.5893(4) 0.5762(2) 0.7023(2)
N6 N 0.6812(4) 0.6161(2) 0.6545(2)
N7 N 0.9041(5) 0.6018(3) 0.5474(3)
N8 N 0.6075(4) 0.6626(2) 0.8196(2)
N9 N 0.7117(5) 0.6818(2) 0.8847(2)
N10 N 0.9272(5) 0.8064(3) 0.9278(3)
N11 N 0.3352(4) 0.5841(2) 0.7744(2)
N12 N 0.4376(4) 0.5007(2) 0.7556(2)
N13 N 0.3495(5) 0.4415(3) 0.7865(2)
N14 N 0.0867(7) 0.3230(4) 0.7802(3)
N15 N 0.4360(4) 0.6492(2) 0.7250(2)
N16 N 0.3355(5) 0.6486(3) 0.6558(2)
N17 N 0.0497(6) 0.7143(4) 0.6321(4)
N18 N 0.4506(4) 0.6015(2) 0.8571(2)
N19 N 0.3558(4) 0.6574(2) 0.8887(2)
N20 N 0.1185(5) 0.5982(3) 0.9452(3)
N21 N 1.0569(8) 0.5638(4) 0.4634(4)
C1 C 0.7449(5) 0.5331(3) 0.7814(3)
H1 H 0.8137 0.5317 0.7926
H2 H 0.7343 0.5214 0.7472
C2 C 0.6928(5) 0.4987(3) 0.8121(3)
C3 C 0.5865(6) 0.4717(3) 0.8541(3)
C4 C 0.5069(6) 0.4652(3) 0.8793(3)
H3 H 0.4632 0.4924 0.8821
C5 C 0.4964(6) 0.4166(3) 0.9001(3)
H4 H 0.4441 0.4107 0.9173
C6 C 0.5602(7) 0.3770(3) 0.8961(3)
H5 H 0.5498 0.3447 0.9108
C7 C 0.6376(6) 0.3821(3) 0.8719(3)
H6 H 0.6804 0.3544 0.8692
C8 C 0.6496(6) 0.4313(3) 0.8512(3)
C9 C 0.7940(6) 0.4196(3) 0.8069(3)
H7 H 0.8133 0.4371 0.7781
H8 H 0.7687 0.3852 0.7964
C10 C 0.8810(6) 0.4122(3) 0.8440(3)
C11 C 0.9096(8) 0.3653(4) 0.8604(4)
H9 H 0.8736 0.3356 0.8496
C12 C 0.9919(8) 0.3598(4) 0.8933(5)
H10 H 1.0114 0.3266 0.9054
C13 C 1.0444(7) 0.4028(3) 0.9077(4)
H11 H 1.1022 0.3989 0.9286
C14 C 0.9361(7) 0.4544(4) 0.8617(4)
H12 H 0.9164 0.4880 0.8510
C15 C 0.7348(5) 0.6173(3) 0.7443(3)
H13 H 0.8010 0.6102 0.7391
H14 H 0.7289 0.6545 0.7514
C16 C 0.6680(5) 0.6028(3) 0.6997(3)
C17 C 0.5482(5) 0.5713(3) 0.6546(3)
C18 C 0.4646(6) 0.5467(3) 0.6345(3)
H15 H 0.4266 0.5282 0.6543
C19 C 0.4392(6) 0.5503(3) 0.5849(3)
H16 H 0.3818 0.5349 0.5706
C20 C 0.4961(7) 0.5761(4) 0.5557(3)
H17 H 0.4769 0.5771 0.5218
C21 C 0.5788(6) 0.6002(3) 0.5740(3)
H18 H 0.6167 0.6183 0.5538
C22 C 0.6040(5) 0.5963(3) 0.6243(3)
C23 C 0.7542(6) 0.6507(3) 0.6393(3)
H19 H 0.7838 0.6704 0.6678
H20 H 0.7236 0.6758 0.6153
C24 C 0.8301(6) 0.6218(3) 0.6173(3)
C25 C 0.8950(7) 0.5903(4) 0.6449(3)
H21 H 0.8911 0.5855 0.6785
C26 C 0.9647(7) 0.5661(5) 0.6238(4)
H22 H 1.0100 0.5449 0.6425
C27 C 0.9678(6) 0.5731(4) 0.5749(3)
H23 H 1.0170 0.5570 0.5604
C28 C 0.8378(6) 0.6259(3) 0.5684(3)
H24 H 0.7934 0.6469 0.5489
C29 C 0.7524(5) 0.6095(3) 0.8318(3)
H25 H 0.7597 0.5829 0.8576
H26 H 0.8159 0.6234 0.8283
C30 C 0.6905(5) 0.6513(3) 0.8449(3)
C31 C 0.5709(5) 0.7033(3) 0.8436(3)
C32 C 0.4873(6) 0.7315(3) 0.8327(3)
H27 H 0.4450 0.7252 0.8040
C33 C 0.4689(6) 0.7691(3) 0.8656(3)
H28 H 0.4135 0.7897 0.8588
C34 C 0.5293(6) 0.7776(3) 0.9083(3)
H29 H 0.5115 0.8022 0.9308
C35 C 0.6150(7) 0.7515(3) 0.9194(3)
H30 H 0.6568 0.7580 0.9483
C36 C 0.6347(5) 0.7154(3) 0.8855(3)
C37 C 0.7948(6) 0.6793(3) 0.9207(3)
H31 H 0.8241 0.6447 0.9196
H32 H 0.7755 0.6840 0.9533
C38 C 0.8677(6) 0.7203(3) 0.9124(3)
C39 C 0.9381(6) 0.7112(4) 0.8826(3)
H33 H 0.9428 0.6788 0.8669
C40 C 1.0018(7) 0.7518(4) 0.8766(4)
H34 H 1.0504 0.7468 0.8567
C41 C 0.9946(7) 0.7966(4) 0.8983(3)
H35 H 1.0382 0.8232 0.8933
C42 C 0.8670(6) 0.7685(3) 0.9345(3)
H36 H 0.8208 0.7748 0.9556
C43 C 0.3021(5) 0.5342(3) 0.7921(3)
H37 H 0.2356 0.5280 0.7781
H38 H 0.3050 0.5351 0.8279
C44 C 0.3641(5) 0.4915(3) 0.7775(3)
C45 C 0.4752(5) 0.4512(3) 0.7477(3)
C46 C 0.5543(6) 0.4371(3) 0.7251(3)
H39 H 0.5907 0.4619 0.7105
C47 C 0.5758(7) 0.3852(4) 0.7255(3)
H40 H 0.6274 0.3740 0.7097
C48 C 0.5252(7) 0.3487(3) 0.7479(4)
H41 H 0.5450 0.3137 0.7483
C49 C 0.4450(7) 0.3622(3) 0.7701(3)
H42 H 0.4091 0.3374 0.7851
C50 C 0.4225(6) 0.4147(3) 0.7685(3)
C51 C 0.2816(6) 0.4191(3) 0.8163(3)
H43 H 0.2583 0.4469 0.8362
H44 H 0.3151 0.3935 0.8387
C52 C 0.1976(6) 0.3931(3) 0.7872(3)
C53 C 0.1538(10) 0.4119(5) 0.7447(5)
H45 H 0.1775 0.4422 0.7312
C54 C 0.0730(10) 0.3867(6) 0.7201(6)
H46 H 0.0417 0.3993 0.6902
C55 C 0.0429(7) 0.3437(5) 0.7414(4)
H47 H -0.0140 0.3279 0.7270
C56 C 0.1656(9) 0.3471(4) 0.8023(4)
H48 H 0.2003 0.3310 0.8297
C57 C 0.2970(5) 0.5917(3) 0.7224(3)
H49 H 0.2983 0.5585 0.7048
H50 H 0.2306 0.6037 0.7197
C58 C 0.3550(5) 0.6299(3) 0.7013(3)
C59 C 0.4699(6) 0.6826(3) 0.6911(3)
C60 C 0.5514(6) 0.7128(3) 0.6960(3)
H51 H 0.5917 0.7153 0.7259
C61 C 0.5710(7) 0.7389(3) 0.6549(4)
H52 H 0.6264 0.7597 0.6567
C62 C 0.5116(8) 0.7356(4) 0.6112(4)
H53 H 0.5293 0.7531 0.5838
C63 C 0.4264(7) 0.7074(3) 0.6061(3)
H54 H 0.3847 0.7059 0.5766
C64 C 0.4084(6) 0.6819(3) 0.6479(3)
C65 C 0.2615(6) 0.6288(3) 0.6185(3)
H55 H 0.2389 0.5952 0.6295
H56 H 0.2901 0.6224 0.5884
C66 C 0.1769(6) 0.6645(3) 0.6067(3)
C67 C 0.1412(7) 0.6720(4) 0.5586(4)
H57 H 0.1716 0.6574 0.5333
C68 C 0.0598(8) 0.7014(4) 0.5483(4)
H58 H 0.0343 0.7079 0.5156
C69 C 0.0173(7) 0.7205(4) 0.5845(4)
H59 H -0.0394 0.7397 0.5764
C70 C 0.1303(8) 0.6859(5) 0.6420(4)
H60 H 0.1556 0.6807 0.6749
C71 C 0.3050(5) 0.6272(3) 0.8036(3)
H61 H 0.2389 0.6219 0.8100
H62 H 0.3083 0.6603 0.7860
C72 C 0.3701(5) 0.6287(3) 0.8504(3)
C73 C 0.4913(5) 0.6135(3) 0.9041(3)
C74 C 0.5751(5) 0.5971(3) 0.9307(3)
H63 H 0.6143 0.5721 0.9182
C75 C 0.5996(6) 0.6184(3) 0.9763(3)
H64 H 0.6572 0.6083 0.9950
C76 C 0.5410(6) 0.6545(3) 0.9952(3)
H65 H 0.5602 0.6686 1.0265
C77 C 0.4576(6) 0.6702(3) 0.9702(3)
H66 H 0.4177 0.6942 0.9835
C78 C 0.4335(5) 0.6495(3) 0.9243(3)
C79 C 0.2780(6) 0.6930(3) 0.8940(3)
H67 H 0.2424 0.7001 0.8617
H68 H 0.3041 0.7261 0.9076
C80 C 0.2117(6) 0.6707(3) 0.9268(3)
C81 C 0.1868(8) 0.6964(4) 0.9660(4)
H69 H 0.2095 0.7304 0.9733
C82 C 0.1274(10) 0.6721(4) 0.9954(5)
H70 H 0.1102 0.6889 1.0233
C83 C 0.0947(8) 0.6234(4) 0.9830(4)
H71 H 0.0532 0.6072 1.0025
C84 C 0.1758(6) 0.6220(3) 0.9175(3)
H72 H 0.1923 0.6042 0.8900
C85 C 1.1265(9) 0.5422(4) 0.4666(4)
C86 C 1.2154(8) 0.5145(4) 0.4693(5)
H73 H 1.2181 0.4883 0.4948
H74 H 1.2680 0.5388 0.4768
H75 H 1.2202 0.4978 0.4381
O25 O 0.0765(7) 0.2013(5) 0.7727(6)
Ag1_2 Ag 0.07450(5) 0.51991(2) 0.92629(3)
Ag2C Ag 0.91733(6) 0.88500(3) 0.96665(3)
Ag3A Ag -0.01542(8) 0.76006(4) 0.68396(4)
N10C N 0.9272(5) 0.6936(3) 0.4278(3)
N17A N -0.0497(6) 0.2143(4) 0.8679(4)
N20_2 N 1.1185(5) 0.5982(3) 0.9452(3)
N22 N 0.7432(9) 0.4872(4) 0.6650(5)
C87 C 0.7839(9) 0.4507(5) 0.6614(4)
C88 C 0.8309(11) 0.3993(7) 0.6573(7)
H76 H 0.8953 0.4046 0.6493
H77 H 0.7945 0.3789 0.6317
H78 H 0.8338 0.3809 0.6882
N23 N 0.7181(9) 0.6238(5) 0.4593(4)
C89 C 0.6482(9) 0.6078(4) 0.4386(4)
C90 C 0.5644(9) 0.5881(4) 0.4125(6)
H79 H 0.5466 0.6092 0.3836
H80 H 0.5134 0.5890 0.4330
H81 H 0.5748 0.5524 0.4029
N24 N 0.7603(8) 0.7497(4) 0.7824(4)
C91 C 0.7420(7) 0.7850(4) 0.8038(4)
C92 C 0.7174(9) 0.8293(4) 0.8323(4)
H82 H 0.7749 0.8488 0.8437
H83 H 0.6880 0.8170 0.8601
H84 H 0.6729 0.8516 0.8120
N25 N 0.2957(7) 0.5090(4) 0.9124(3)
C93 C 0.3260(7) 0.5219(4) 0.9508(3)
C94 C 0.3646(9) 0.5386(5) 0.9978(4)
H85 H 0.3183 0.5604 1.0114
H86 H 0.4224 0.5585 0.9957
H87 H 0.3795 0.5085 1.0187
Cl1 Cl 0.30671(15) 0.66150(8) 0.46168(8)
O1 O 0.2123(5) 0.6760(3) 0.4423(3)
O2 O 0.3042(6) 0.6255(3) 0.5002(3)
O3 O 0.3571(5) 0.7074(3) 0.4806(3)
O4 O 0.3536(6) 0.6379(3) 0.4252(3)
Cl2 Cl 0.20979(16) 0.73366(9) 0.26121(9)
O5 O 0.1414(8) 0.7719(4) 0.2698(5)
O6 O 0.2870(8) 0.7571(5) 0.2442(7)
O7 O 0.2554(15) 0.7186(7) 0.3035(6)
O8 O 0.1690(9) 0.6944(5) 0.2346(5)
Cl3 Cl 0.23658(14) 0.28464(7) 0.93011(7)
O9 O 0.2910(6) 0.3274(3) 0.9146(3)
O10 O 0.2996(5) 0.2473(3) 0.9551(3)
O11 O 0.1714(5) 0.3028(3) 0.9611(2)
O12 O 0.1852(4) 0.2614(2) 0.8879(2)
Cl4 Cl 0.02793(18) 0.57800(15) 0.78424(12)
O13 O 0.0944(6) 0.5521(5) 0.8196(3)
O14 O -0.0307(11) 0.6140(10) 0.8011(8)
O15 O -0.0385(7) 0.5414(6) 0.7596(4)
O16 O 0.0757(6) 0.5978(5) 0.7458(4)
Cl5 Cl 0.80223(17) 0.52572(8) 0.37104(10)
O17 O 0.8394(6) 0.4924(3) 0.3385(4)
O18 O 0.7114(6) 0.5419(3) 0.3475(4)
O19 O 0.8621(6) 0.5701(3) 0.3808(3)
O20 O 0.7939(9) 0.4990(4) 0.4143(4)
Cl6 Cl 0.15990(14) 0.46971(8) 0.04446(8)
O21 O 0.2397(5) 0.4827(3) 0.0785(3)
O22 O 0.1011(5) 0.4367(3) 0.0682(4)
O23 O 0.1090(6) 0.5147(3) 0.0284(3)
O24 O 0.1919(6) 0.4434(4) 0.0044(3)
loop_
_geom_bond_atom_site_label_1
_geom_bond_atom_site_label_2
_geom_bond_site_symmetry_1
_geom_bond_site_symmetry_2
Gd1 N1 1_555 1_555
Ag1 N4 1_555 1_555
Ag2 N7 1_555 1_555
Ag3 N14 1_555 1_555
N1 C1 1_555 1_555
N2 Gd1 1_555 1_555
N3 C2 1_555 1_555
N4 C13 1_555 1_555
N5 Gd1 1_555 1_555
N6 C16 1_555 1_555
N7 C27 1_555 1_555
N8 Gd1 1_555 1_555
N9 C30 1_555 1_555
N10 C41 1_555 1_555
N11 Gd1 1_555 1_555
N12 Gd1 1_555 1_555
N13 C44 1_555 1_555
N14 C55 1_555 1_555
N15 Gd1 1_555 1_555
N16 C58 1_555 1_555
N17 C69 1_555 1_555
N18 Gd1 1_555 1_555
N19 C72 1_555 1_555
N20 C83 1_555 1_555
N21 Ag2 1_555 1_555
N22 C87 1_555 1_555
N23 C89 1_555 1_555
N24 C91 1_555 1_555
N25 C93 1_555 1_555
C1 H1 1_555 1_555
H2 C1 1_555 1_555
C2 N2 1_555 1_555
C3 N2 1_555 1_555
C4 C3 1_555 1_555
H3 C4 1_555 1_555
C5 C4 1_555 1_555
H4 C5 1_555 1_555
C6 C5 1_555 1_555
H5 C6 1_555 1_555
C7 C6 1_555 1_555
H6 C7 1_555 1_555
C8 N3 1_555 1_555
C9 N3 1_555 1_555
H7 C9 1_555 1_555
H8 C9 1_555 1_555
C10 C9 1_555 1_555
C11 C10 1_555 1_555
H9 C11 1_555 1_555
C12 C11 1_555 1_555
H10 C12 1_555 1_555
C13 C12 1_555 1_555
H11 C13 1_555 1_555
C14 N4 1_555 1_555
H12 C14 1_555 1_555
C15 N1 1_555 1_555
H13 C15 1_555 1_555
H14 C15 1_555 1_555
C16 N5 1_555 1_555
C17 N5 1_555 1_555
C18 C17 1_555 1_555
H15 C18 1_555 1_555
C19 C18 1_555 1_555
H16 C19 1_555 1_555
C20 C19 1_555 1_555
H17 C20 1_555 1_555
C21 C20 1_555 1_555
H18 C21 1_555 1_555
C22 N6 1_555 1_555
C23 N6 1_555 1_555
H19 C23 1_555 1_555
H20 C23 1_555 1_555
C24 C23 1_555 1_555
C25 C24 1_555 1_555
H21 C25 1_555 1_555
C26 C25 1_555 1_555
H22 C26 1_555 1_555
C27 C26 1_555 1_555
H23 C27 1_555 1_555
C28 N7 1_555 1_555
H24 C28 1_555 1_555
C29 N1 1_555 1_555
H25 C29 1_555 1_555
H26 C29 1_555 1_555
C30 N8 1_555 1_555
C31 N8 1_555 1_555
C32 C31 1_555 1_555
H27 C32 1_555 1_555
C33 C32 1_555 1_555
H28 C33 1_555 1_555
C34 C33 1_555 1_555
H29 C34 1_555 1_555
C35 C34 1_555 1_555
H30 C35 1_555 1_555
C36 N9 1_555 1_555
C37 N9 1_555 1_555
H31 C37 1_555 1_555
H32 C37 1_555 1_555
C38 C37 1_555 1_555
C39 C38 1_555 1_555
H33 C39 1_555 1_555
C40 C39 1_555 1_555
H34 C40 1_555 1_555
C41 C40 1_555 1_555
H35 C41 1_555 1_555
C42 N10 1_555 1_555
H36 C42 1_555 1_555
C43 N11 1_555 1_555
H37 C43 1_555 1_555
H38 C43 1_555 1_555
C44 N12 1_555 1_555
C45 N12 1_555 1_555
C46 C45 1_555 1_555
H39 C46 1_555 1_555
C47 C46 1_555 1_555
H40 C47 1_555 1_555
C48 C47 1_555 1_555
H41 C48 1_555 1_555
C49 C48 1_555 1_555
H42 C49 1_555 1_555
C50 N13 1_555 1_555
C51 N13 1_555 1_555
H43 C51 1_555 1_555
H44 C51 1_555 1_555
C52 C51 1_555 1_555
C53 C52 1_555 1_555
H45 C53 1_555 1_555
C54 C53 1_555 1_555
H46 C54 1_555 1_555
C55 C54 1_555 1_555
H47 C55 1_555 1_555
C56 N14 1_555 1_555
H48 C56 1_555 1_555
C57 N11 1_555 1_555
H49 C57 1_555 1_555
H50 C57 1_555 1_555
C58 N15 1_555 1_555
C59 N15 1_555 1_555
C60 C59 1_555 1_555
H51 C60 1_555 1_555
C61 C60 1_555 1_555
H52 C61 1_555 1_555
C62 C61 1_555 1_555
H53 C62 1_555 1_555
C63 C62 1_555 1_555
H54 C63 1_555 1_555
C64 N16 1_555 1_555
C65 N16 1_555 1_555
H55 C65 1_555 1_555
H56 C65 1_555 1_555
C66 C65 1_555 1_555
C67 C66 1_555 1_555
H57 C67 1_555 1_555
C68 C67 1_555 1_555
H58 C68 1_555 1_555
C69 C68 1_555 1_555
H59 C69 1_555 1_555
C70 N17 1_555 1_555
H60 C70 1_555 1_555
C71 N11 1_555 1_555
H61 C71 1_555 1_555
H62 C71 1_555 1_555
C72 N18 1_555 1_555
C73 N18 1_555 1_555
C74 C73 1_555 1_555
H63 C74 1_555 1_555
C75 C74 1_555 1_555
H64 C75 1_555 1_555
C76 C75 1_555 1_555
H65 C76 1_555 1_555
C77 C76 1_555 1_555
H66 C77 1_555 1_555
C78 N19 1_555 1_555
C79 N19 1_555 1_555
H67 C79 1_555 1_555
H68 C79 1_555 1_555
C80 C79 1_555 1_555
C81 C80 1_555 1_555
H69 C81 1_555 1_555
C82 C81 1_555 1_555
H70 C82 1_555 1_555
C83 C82 1_555 1_555
H71 C83 1_555 1_555
C84 N20 1_555 1_555
H72 C84 1_555 1_555
C85 N21 1_555 1_555
C86 C85 1_555 1_555
H73 C86 1_555 1_555
H74 C86 1_555 1_555
H75 C86 1_555 1_555
C87 C88 1_555 1_555
C88 H76 1_555 1_555
H77 C88 1_555 1_555
H78 C88 1_555 1_555
C89 C90 1_555 1_555
C90 H79 1_555 1_555
H80 C90 1_555 1_555
H81 C90 1_555 1_555
C91 C92 1_555 1_555
C92 H82 1_555 1_555
H83 C92 1_555 1_555
H84 C92 1_555 1_555
C93 C94 1_555 1_555
C94 H85 1_555 1_555
H86 C94 1_555 1_555
H87 C94 1_555 1_555
Cl1 O1 1_555 1_555
Cl2 O5 1_555 1_555
Cl3 O9 1_555 1_555
Cl4 O13 1_555 1_555
Cl5 O17 1_555 1_555
Cl6 O21 1_555 1_555
O2 Cl1 1_555 1_555
O3 Cl1 1_555 1_555
O4 Cl1 1_555 1_555
O6 Cl2 1_555 1_555
O7 Cl2 1_555 1_555
O8 Cl2 1_555 1_555
O10 Cl3 1_555 1_555
O11 Cl3 1_555 1_555
O12 Cl3 1_555 1_555
O14 Cl4 1_555 1_555
O15 Cl4 1_555 1_555
O16 Cl4 1_555 1_555
O18 Cl5 1_555 1_555
O19 Cl5 1_555 1_555
O20 Cl5 1_555 1_555
O22 Cl6 1_555 1_555
O23 Cl6 1_555 1_555
O24 Cl6 1_555 1_555
O25 Ag3 1_555 1_555
Ag1_2 N20 1_555 1_555
Ag2C N10 1_555 1_555
Ag3A N17 1_555 1_555
N10C Ag2 1_555 1_555
N17A Ag3 1_555 1_555
N20_2 Ag1 1_555 1_555
C1 C2 1_555 1_555
C3 C8 1_555 1_555
C7 C8 1_555 1_555
C10 C14 1_555 1_555
C15 C16 1_555 1_555
C17 C22 1_555 1_555
C21 C22 1_555 1_555
C24 C28 1_555 1_555
C29 C30 1_555 1_555
C31 C36 1_555 1_555
C35 C36 1_555 1_555
C38 C42 1_555 1_555
C43 C44 1_555 1_555
C45 C50 1_555 1_555
C49 C50 1_555 1_555
C52 C56 1_555 1_555
C57 C58 1_555 1_555
C59 C64 1_555 1_555
C63 C64 1_555 1_555
C66 C70 1_555 1_555
C71 C72 1_555 1_555
C73 C78 1_555 1_555
C77 C78 1_555 1_555
C80 C84 1_555 1_555

#END
