
#######################################################################
#
#                 Cambridge Crystallographic Data Centre
#                                CCDC 
#
#######################################################################
#
# If this CIF has been generated from an entry in the Cambridge 
# Structural Database, then it will include bibliographic, chemical, 
# crystal, experimental, refinement or atomic coordinate data resulting 
# from the CCDC's data processing and validation procedures.
#
#######################################################################

data_YUGZIK
_chemical_formula_moiety         '(C56 H34 N6 O4 Zn2)n'
_symmetry_cell_setting           orthorhombic
_symmetry_space_group_name_H-M   'F d d d'
_symmetry_Int_Tables_number      70
_space_group_name_Hall           '-F 2uv 2vw'
loop_
_symmetry_equiv_pos_site_id
_symmetry_equiv_pos_as_xyz
1 x,y,z
2 3/4-x,3/4-y,z
3 3/4-x,y,3/4-z
4 x,3/4-y,3/4-z
5 x,1/2+y,1/2+z
6 3/4-x,1/4-y,1/2+z
7 3/4-x,1/2+y,1/4-z
8 x,1/4-y,1/4-z
9 1/2+x,y,1/2+z
10 1/4-x,3/4-y,1/2+z
11 1/4-x,y,1/4-z
12 1/2+x,3/4-y,1/4-z
13 1/2+x,1/2+y,z
14 1/4-x,1/4-y,z
15 1/4-x,1/2+y,3/4-z
16 1/2+x,1/4-y,3/4-z
17 -x,-y,-z
18 1/4+x,1/4+y,-z
19 1/4+x,-y,1/4+z
20 -x,1/4+y,1/4+z
21 -x,1/2-y,1/2-z
22 1/4+x,3/4+y,1/2-z
23 1/4+x,1/2-y,3/4+z
24 -x,3/4+y,3/4+z
25 1/2-x,-y,1/2-z
26 3/4+x,1/4+y,1/2-z
27 3/4+x,-y,3/4+z
28 1/2-x,1/4+y,3/4+z
29 1/2-x,1/2-y,-z
30 3/4+x,3/4+y,-z
31 3/4+x,1/2-y,1/4+z
32 1/2-x,3/4+y,1/4+z
_cell_length_a                   31.8557(19)
_cell_length_b                   34.817(2)
_cell_length_c                   52.617(3)
_cell_angle_alpha                90
_cell_angle_beta                 90
_cell_angle_gamma                90
_cell_volume                     58358.6
loop_
_atom_site_label
_atom_site_type_symbol
_atom_site_fract_x
_atom_site_fract_y
_atom_site_fract_z
_atom_site_U_iso_or_equiv
_atom_site_thermal_displace_type
Zn1 Zn -0.1250 0.3750 0.133148(6) 0.1035 Uani
Zn2 Zn 0.1250 0.1250 0.097077(5) 0.0706 Uani
N1 N -0.12949(6) 0.31646(5) 0.12722(3) 0.1150 Uani
N2 N -0.06108(5) 0.37151(5) 0.12711(3) 0.1163 Uani
O1 O 0.08053(4) 0.16604(4) 0.10411(3) 0.0974 Uani
O2 O 0.08049(4) 0.16565(4) 0.14651(3) 0.0993 Uani
C1 C -0.16522(9) 0.29530(7) 0.12708(8) 0.1482 Uani
C2 C -0.15473(9) 0.25440(7) 0.12600(8) 0.1882 Uani
H1 H -0.1733 0.2338 0.1255 0.2260 Uiso
C3 C -0.11284(8) 0.25306(8) 0.12597(7) 0.1632 Uani
H2 H -0.0969 0.2307 0.1256 0.1960 Uiso
C4 C -0.09647(8) 0.29063(7) 0.12664(6) 0.1205 Uani
C5 C -0.05416(8) 0.30070(7) 0.12646(6) 0.1111 Uani
C6 C -0.03784(7) 0.33800(7) 0.12646(6) 0.1181 Uani
C7 C 0.00583(8) 0.34840(8) 0.12592(7) 0.1592 Uani
H3 H 0.0283 0.3313 0.1258 0.1910 Uiso
C8 C 0.00884(8) 0.38671(8) 0.12556(8) 0.1860 Uani
H4 H 0.0333 0.4013 0.1248 0.2230 Uiso
C9 C -0.03359(8) 0.40078(8) 0.12653(8) 0.1471 Uani
C10 C -0.20614(8) 0.30924(8) 0.12718(9) 0.1721 Uani
C11 C -0.02302(6) 0.26806(6) 0.12637(6) 0.1108 Uani
C12 C -0.00798(8) 0.25299(7) 0.14792(5) 0.1467 Uani
H5 H -0.0181 0.2619 0.1634 0.1760 Uiso
C13 C 0.02221(8) 0.22447(7) 0.14771(5) 0.1330 Uani
H6 H 0.0330 0.2154 0.1630 0.1600 Uiso
C14 C 0.03626(5) 0.20945(5) 0.12544(5) 0.0911 Uani
C15 C 0.02176(8) 0.22441(7) 0.10364(5) 0.1333 Uani
H7 H 0.0317 0.2154 0.0881 0.1600 Uiso
C16 C -0.00834(9) 0.25359(7) 0.10431(5) 0.1483 Uani
H8 H -0.0186 0.2633 0.0891 0.1780 Uiso
C17 C 0.06858(5) 0.17749(5) 0.12527(6) 0.0829 Uani
C18 C -0.2412(3) 0.2816(3) 0.1340(2) 0.2461 Uiso
C19 C -0.2573(3) 0.2660(3) 0.1132(2) 0.2461 Uiso
H9 H -0.2481 0.2751 0.0976 0.2950 Uiso
C20 C -0.2884(3) 0.2358(3) 0.11344(19) 0.2461 Uiso
H10 H -0.2964 0.2234 0.0986 0.2950 Uiso
C21 C -0.3056(3) 0.2261(3) 0.1365(2) 0.2461 Uiso
H11 H -0.3285 0.2096 0.1367 0.2950 Uiso
C22 C -0.2901(2) 0.2399(2) 0.15967(18) 0.2461 Uiso
H12 H -0.3003 0.2313 0.1752 0.2950 Uiso
C23 C -0.2568(3) 0.2688(2) 0.15780(19) 0.2461 Uiso
H13 H -0.2456 0.2790 0.1726 0.2950 Uiso
N3 N -0.1250 0.3750 0.30872(4) 0.0775 Uani
N4 N -0.1250 0.3750 0.17398(4) 0.1073 Uani
C24 C -0.1250 0.3750 0.25478(6) 0.0935 Uani
C25 C -0.1250 0.3750 0.22753(7) 0.1027 Uani
C26 C -0.1140(2) 0.34415(17) 0.29509(10) 0.1023 Uiso
H14 H -0.1064 0.3220 0.3038 0.1230 Uiso
C27 C -0.11320(19) 0.34320(17) 0.26869(10) 0.1023 Uiso
H15 H -0.1046 0.3210 0.2604 0.1230 Uiso
C28 C -0.13400(17) 0.40785(14) 0.21329(9) 0.1023 Uiso
H16 H -0.1403 0.4307 0.2215 0.1230 Uiso
C29 C -0.13363(17) 0.40663(14) 0.18741(9) 0.1023 Uiso
H17 H -0.1397 0.4291 0.1786 0.1230 Uiso
Zn2G Zn 0.1250 0.1250 0.152923(5) 0.0706 Uani
Zn2S Zn -0.1250 0.3750 0.347077(5) 0.0706 Uani
Zn2A Zn -0.3750 0.6250 0.097077(5) 0.0706 Uani
Zn2F Zn -0.3750 0.6250 0.152923(5) 0.0706 Uani
N1A N -0.12051(6) 0.43354(5) 0.12722(3) 0.1150 Uani
N2A N -0.18892(5) 0.37849(5) 0.12711(3) 0.1163 Uani
O1A O -0.33053(4) 0.58396(4) 0.10411(3) 0.0974 Uani
O1M O 0.16947(4) 0.08396(4) 0.10411(3) 0.0974 Uani
O2A O -0.33049(4) 0.58435(4) 0.14651(3) 0.0993 Uani
O2G O 0.08049(4) 0.08435(4) 0.10349(3) 0.0993 Uani
O2J O 0.16951(4) 0.16565(4) 0.10349(3) 0.0993 Uani
C1A C -0.08478(9) 0.45470(7) 0.12708(8) 0.1482 Uani
C2A C -0.09527(9) 0.49560(7) 0.12600(8) 0.1882 Uani
H1A H -0.0767 0.5162 0.1255 0.2260 Uiso
C3A C -0.13716(8) 0.49694(8) 0.12597(7) 0.1632 Uani
H2A H -0.1531 0.5193 0.1256 0.1960 Uiso
C4A C -0.15353(8) 0.45937(7) 0.12664(6) 0.1205 Uani
C5A C -0.19584(8) 0.44930(7) 0.12646(6) 0.1111 Uani
C6A C -0.21216(7) 0.41200(7) 0.12646(6) 0.1181 Uani
C7A C -0.25583(8) 0.40160(8) 0.12592(7) 0.1592 Uani
H3A H -0.2783 0.4187 0.1258 0.1910 Uiso
C8A C -0.25884(8) 0.36329(8) 0.12556(8) 0.1860 Uani
H4A H -0.2833 0.3487 0.1248 0.2230 Uiso
C9A C -0.21641(8) 0.34922(8) 0.12653(8) 0.1471 Uani
C10A C -0.04386(8) 0.44076(8) 0.12718(9) 0.1721 Uani
C11A C -0.22698(6) 0.48194(6) 0.12637(6) 0.1108 Uani
C12A C -0.24202(8) 0.49701(7) 0.14792(5) 0.1467 Uani
H5A H -0.2319 0.4881 0.1634 0.1760 Uiso
C13A C -0.27221(8) 0.52553(7) 0.14771(5) 0.1330 Uani
H6A H -0.2830 0.5346 0.1630 0.1600 Uiso
C14A C -0.28626(5) 0.54055(5) 0.12544(5) 0.0911 Uani
C15A C -0.27176(8) 0.52559(7) 0.10364(5) 0.1333 Uani
H7A H -0.2817 0.5346 0.0881 0.1600 Uiso
C16A C -0.24166(9) 0.49641(7) 0.10431(5) 0.1483 Uani
H8A H -0.2314 0.4867 0.0891 0.1780 Uiso
C17A C -0.31858(5) 0.57251(5) 0.12527(6) 0.0829 Uani
C18A C -0.0088(3) 0.4684(3) 0.1340(2) 0.2461 Uiso
C19A C 0.0073(3) 0.4840(3) 0.1132(2) 0.2461 Uiso
H9A H -0.0019 0.4749 0.0976 0.2950 Uiso
C20A C 0.0384(3) 0.5142(3) 0.11344(19) 0.2461 Uiso
H10A H 0.0464 0.5266 0.0986 0.2950 Uiso
C21A C 0.0556(3) 0.5239(3) 0.1365(2) 0.2461 Uiso
H11A H 0.0785 0.5404 0.1367 0.2950 Uiso
C22A C 0.0401(2) 0.5101(2) 0.15967(18) 0.2461 Uiso
H12A H 0.0503 0.5187 0.1752 0.2950 Uiso
C23A C 0.0068(3) 0.4812(2) 0.15780(19) 0.2461 Uiso
H13A H -0.0044 0.4710 0.1726 0.2950 Uiso
N3V N 0.1250 0.1250 0.05872(4) 0.0775 Uani
C26A C -0.1360(2) 0.40585(17) 0.29509(10) 0.1023 Uiso
H14A H -0.1436 0.4280 0.3038 0.1230 Uiso
C27A C -0.13680(19) 0.40680(17) 0.26869(10) 0.1023 Uiso
H15A H -0.1454 0.4290 0.2604 0.1230 Uiso
C28A C -0.11600(17) 0.34215(14) 0.21329(9) 0.1023 Uiso
H16A H -0.1097 0.3193 0.2215 0.1230 Uiso
C29A C -0.11637(17) 0.34337(14) 0.18741(9) 0.1023 Uiso
H17A H -0.1103 0.3209 0.1786 0.1230 Uiso
loop_
_atom_site_aniso_label
_atom_site_aniso_U_11
_atom_site_aniso_U_22
_atom_site_aniso_U_33
_atom_site_aniso_U_23
_atom_site_aniso_U_13
_atom_site_aniso_U_12
Zn1 0.1010(2) 0.0900(2) 0.1196(3) 0.000 0.000 0.0477(2)
Zn2 0.05526(15) 0.04671(14) 0.1099(2) 0.000 0.000 0.00035(15)
N1 0.1071(13) 0.0912(12) 0.1468(14) -0.0104(11) -0.0048(19) 0.0485(10)
N2 0.0984(12) 0.0947(12) 0.1559(15) 0.0065(17) 0.0088(11) 0.0523(11)
O1 0.0853(10) 0.0752(9) 0.1317(13) -0.0070(8) 0.0034(8) 0.0299(7)
O2 0.0879(10) 0.0754(9) 0.1347(13) 0.0045(9) -0.0019(9) 0.0315(7)
C1 0.1090(19) 0.1017(18) 0.234(3) -0.028(2) -0.016(2) 0.0355(15)
C2 0.128(2) 0.0977(18) 0.339(4) -0.025(3) -0.022(3) 0.0487(16)
C3 0.136(2) 0.0965(19) 0.257(3) -0.019(2) -0.015(2) 0.0482(16)
C4 0.1196(19) 0.0928(16) 0.149(2) -0.0165(19) -0.010(2) 0.0546(15)
C5 0.1087(17) 0.0959(16) 0.1286(18) -0.0029(18) 0.0003(19) 0.0509(14)
C6 0.0973(17) 0.1077(17) 0.1492(19) 0.003(2) 0.0090(18) 0.0500(14)
C7 0.1005(19) 0.125(2) 0.252(3) 0.014(3) 0.016(2) 0.0503(15)
C8 0.113(2) 0.121(2) 0.324(4) 0.028(3) 0.033(2) 0.0507(17)
C9 0.1011(18) 0.1092(19) 0.231(3) 0.026(2) 0.022(2) 0.0452(15)
C10 0.1147 0.1137 0.288 -0.024 -0.023 0.0416
C11 0.1128(15) 0.1007(14) 0.1190(18) -0.0024(17) 0.0057(17) 0.0609(12)
C12 0.170(3) 0.143(2) 0.127(2) 0.0067(18) 0.0024(19) 0.103(2)
C13 0.149(2) 0.132(2) 0.118(2) 0.0031(17) 0.0050(17) 0.0843(18)
C14 0.0842(12) 0.0738(11) 0.1153(16) 0.0032(15) 0.0003(16) 0.0274(9)
C15 0.147(2) 0.133(2) 0.120(2) -0.0024(17) 0.0035(17) 0.0856(18)
C16 0.176(3) 0.143(2) 0.126(2) -0.0053(18) -0.0206(19) 0.104(2)
C17 0.0635(11) 0.0593(11) 0.1260(18) 0.0026(15) 0.0022(15) 0.0117(8)
N3 0.0699 0.0656 0.097 0 0 0.0035
N4 0.1022 0.087 0.1327 0 0 0.0312
C24 0.098 0.0885 0.094 0 0 0.0078
C25 0.108 0.093 0.107 0 0 0.019
Zn2G 0.05526 0.04671 0.1099 0 0 -0.00035
Zn2S 0.05526 0.04671 0.1099 0 0 -0.00035
Zn2A 0.05526 0.04671 0.1099 0 0 0.00035
Zn2F 0.05526 0.04671 0.1099 0 0 -0.00035
N1A 0.1071 0.0912 0.1468 0.0104 0.0048 0.0485
N2A 0.0984 0.0947 0.1559 -0.0065 -0.0088 0.0523
O1A 0.0853 0.0752 0.1317 0.007 -0.0034 0.0299
O1M 0.0853 0.0752 0.1317 0.007 -0.0034 0.0299
O2A 0.0879 0.0754 0.1347 -0.0045 0.0019 0.0315
O2G 0.0879 0.0754 0.1347 0.0045 0.0019 -0.0315
O2J 0.0879 0.0754 0.1347 -0.0045 -0.0019 -0.0315
C1A 0.109 0.1017 0.234 0.028 0.016 0.0355
C2A 0.128 0.0977 0.339 0.025 0.022 0.0487
C3A 0.136 0.0965 0.257 0.019 0.015 0.0482
C4A 0.1196 0.0928 0.149 0.0165 0.01 0.0546
C5A 0.1087 0.0959 0.1286 0.0029 -0.0003 0.0509
C6A 0.0973 0.1077 0.1492 -0.003 -0.009 0.05
C7A 0.1005 0.125 0.252 -0.014 -0.016 0.0503
C8A 0.113 0.121 0.324 -0.028 -0.033 0.0507
C9A 0.1011 0.1092 0.231 -0.026 -0.022 0.0452
C10A 0.1147(19) 0.1137(19) 0.288(4) 0.024(3) 0.023(3) 0.0416(16)
C11A 0.1128 0.1007 0.119 0.0024 -0.0057 0.0609
C12A 0.17 0.143 0.127 -0.0067 -0.0024 0.103
C13A 0.149 0.132 0.118 -0.0031 -0.005 0.0843
C14A 0.0842 0.0738 0.1153 -0.0032 -0.0003 0.0274
C15A 0.147 0.133 0.12 0.0024 -0.0035 0.0856
C16A 0.176 0.143 0.126 0.0053 0.0206 0.104
C17A 0.0635 0.0593 0.126 -0.0026 -0.0022 0.0117
N3V 0.0699(12) 0.0656(12) 0.0970(15) 0.000 0.000 -0.0035(12)
loop_
_geom_bond_atom_site_label_1
_geom_bond_atom_site_label_2
_geom_bond_site_symmetry_1
_geom_bond_site_symmetry_2
Zn1 N1 1_555 1_555
Zn2 O1 1_555 1_555
N1 C1 1_555 1_555
N2 Zn1 1_555 1_555
O1 C17 1_555 1_555
O2 C17 1_555 1_555
C1 C2 1_555 1_555
C2 H1 1_555 1_555
C3 C2 1_555 1_555
H2 C3 1_555 1_555
C4 N1 1_555 1_555
C5 C4 1_555 1_555
C6 N2 1_555 1_555
C7 C6 1_555 1_555
H3 C7 1_555 1_555
C8 C7 1_555 1_555
H4 C8 1_555 1_555
C9 N2 1_555 1_555
C10 C1 1_555 1_555
C11 C5 1_555 1_555
C12 C11 1_555 1_555
H5 C12 1_555 1_555
C13 C12 1_555 1_555
H6 C13 1_555 1_555
C14 C13 1_555 1_555
C15 C14 1_555 1_555
H7 C15 1_555 1_555
C16 C11 1_555 1_555
H8 C16 1_555 1_555
C17 C14 1_555 1_555
C18 C10 1_555 1_555
C19 C18 1_555 1_555
H9 C19 1_555 1_555
C20 C19 1_555 1_555
H10 C20 1_555 1_555
C21 C20 1_555 1_555
H11 C21 1_555 1_555
C22 C21 1_555 1_555
H12 C22 1_555 1_555
C23 C18 1_555 1_555
H13 C23 1_555 1_555
N3 C26 1_555 1_555
N4 Zn1 1_555 1_555
C24 C25 1_555 1_555
C25 C28 1_555 1_555
C26 H14 1_555 1_555
C27 C24 1_555 1_555
H15 C27 1_555 1_555
C28 H16 1_555 1_555
C29 N4 1_555 1_555
H17 C29 1_555 1_555
Zn2G O2 1_555 1_555
Zn2S N3 1_555 1_555
Zn2A O1A 1_555 1_555
Zn2F O2A 1_555 1_555
N1A Zn1 1_555 1_555
N2A Zn1 1_555 1_555
O1A C17A 1_555 1_555
O1M Zn2 1_555 1_555
O2A C17A 1_555 1_555
O2G Zn2 1_555 1_555
O2J Zn2 1_555 1_555
C1A N1A 1_555 1_555
C2A C1A 1_555 1_555
H1A C2A 1_555 1_555
C3A C2A 1_555 1_555
H2A C3A 1_555 1_555
C4A N1A 1_555 1_555
C5A C4A 1_555 1_555
C6A N2A 1_555 1_555
C7A C6A 1_555 1_555
H3A C7A 1_555 1_555
C8A C7A 1_555 1_555
H4A C8A 1_555 1_555
C9A C10 1_555 1_555
C10A C9 1_555 1_555
C11A C5A 1_555 1_555
C12A C11A 1_555 1_555
H5A C12A 1_555 1_555
C13A C12A 1_555 1_555
H6A C13A 1_555 1_555
C14A C13A 1_555 1_555
C15A C14A 1_555 1_555
H7A C15A 1_555 1_555
C16A C11A 1_555 1_555
H8A C16A 1_555 1_555
C17A C14A 1_555 1_555
C18A C10A 1_555 1_555
C19A C18A 1_555 1_555
H9A C19A 1_555 1_555
C20A C19A 1_555 1_555
H10A C20A 1_555 1_555
C21A C20A 1_555 1_555
H11A C21A 1_555 1_555
C22A C21A 1_555 1_555
H12A C22A 1_555 1_555
C23A C18A 1_555 1_555
H13A C23A 1_555 1_555
N3V Zn2 1_555 1_555
C26A N3 1_555 1_555
H14A C26A 1_555 1_555
C27A C24 1_555 1_555
H15A C27A 1_555 1_555
C28A C25 1_555 1_555
H16A C28A 1_555 1_555
C29A N4 1_555 1_555
H17A C29A 1_555 1_555
C3 C4 1_555 1_555
C5 C6 1_555 1_555
C8 C9 1_555 1_555
C15 C16 1_555 1_555
C22 C23 1_555 1_555
C26 C27 1_555 1_555
C28 C29 1_555 1_555
N2A C9A 1_555 1_555
C1A C10A 1_555 1_555
C3A C4A 1_555 1_555
C5A C6A 1_555 1_555
C8A C9A 1_555 1_555
C15A C16A 1_555 1_555
C22A C23A 1_555 1_555
C26A C27A 1_555 1_555
C28A C29A 1_555 1_555

#END
