
#######################################################################
#
#                 Cambridge Crystallographic Data Centre
#                                CCDC 
#
#######################################################################
#
# If this CIF has been generated from an entry in the Cambridge 
# Structural Database, then it will include bibliographic, chemical, 
# crystal, experimental, refinement or atomic coordinate data resulting 
# from the CCDC's data processing and validation procedures.
#
#######################################################################

data_BEXVEH
_chemical_formula_moiety         'C104 H52 Cu38 O90'
_symmetry_cell_setting           monoclinic
_symmetry_space_group_name_H-M   'P 21/n'
_symmetry_Int_Tables_number      14
_space_group_name_Hall           '-P 2yn'
loop_
_symmetry_equiv_pos_site_id
_symmetry_equiv_pos_as_xyz
1 x,y,z
2 1/2-x,1/2+y,1/2-z
3 -x,-y,-z
4 1/2+x,1/2-y,1/2+z
_cell_length_a                   22.8595(6)
_cell_length_b                   18.7420(6)
_cell_length_c                   29.6690(10)
_cell_angle_alpha                90
_cell_angle_beta                 104.8580(10)
_cell_angle_gamma                90
_cell_volume                     12286.2
loop_
_atom_site_label
_atom_site_type_symbol
_atom_site_fract_x
_atom_site_fract_y
_atom_site_fract_z
Cu1 Cu 0.778881(16) 0.197545(19) 0.470210(12)
Cu2 Cu 0.681874(16) 0.266666(19) 0.484860(12)
Cu3 Cu 0.697899(16) -0.307490(19) 0.498842(12)
Cu4 Cu 0.794047(15) -0.240172(19) 0.485037(12)
Cu5 Cu 0.507409(14) 0.497369(19) 0.805266(11)
Cu6 Cu 0.536103(14) 0.499665(19) 0.724046(11)
O1 O 0.25705(9) 0.76754(12) 0.92021(7)
O2 O 0.17137(9) 0.81695(12) 0.93148(7)
C1 C 0.20651(15) 0.79880(17) 0.90602(11)
C2 C 0.18636(14) 0.81530(18) 0.85562(11)
C3 C 0.13426(13) 0.85318(17) 0.83755(10)
H1 H 0.1095 0.8675 0.8572
C4 C 0.11764(14) 0.87066(19) 0.79031(11)
C5 C 0.06387(13) 0.91630(18) 0.76982(11)
O3 O 0.03154(9) 0.93343(12) 0.79700(7)
O4 O 0.05547(10) 0.93327(15) 0.72805(7)
C6 C 0.15430(18) 0.8500(2) 0.76142(12)
H2 H 0.1444 0.8632 0.7294
C7 C 0.20545(19) 0.8097(3) 0.78080(13)
C8 C 0.22146(18) 0.7923(2) 0.82667(13)
H3 H 0.2566 0.7644 0.8389
O5 O 0.23964(18) 0.7903(3) 0.74848(13)
C9 C 0.28986(19) 0.7500(2) 0.76585(13)
H4 H 0.2779 0.7074 0.7811
H5 H 0.3183 0.7780 0.7903
C10 C 0.32039(19) 0.7273(2) 0.73344(14)
C11 C 0.30461(17) 0.7477(2) 0.68849(13)
H6 H 0.2722 0.7803 0.6778
C12 C 0.33622(14) 0.72070(19) 0.65764(11)
C13 C 0.31354(15) 0.73997(17) 0.60694(11)
O6 O 0.34748(10) 0.71949(12) 0.58094(7)
O7 O 0.26537(9) 0.77319(12) 0.59442(7)
C14 C 0.38424(13) 0.67380(16) 0.67311(10)
H7 H 0.4056 0.6563 0.6518
C15 C 0.40124(13) 0.65225(17) 0.71955(10)
C16 C 0.36970(17) 0.6792(2) 0.75057(12)
H8 H 0.3809 0.6657 0.7825
C17 C 0.44773(13) 0.59765(18) 0.73619(10)
O8 O 0.47769(9) 0.57751(12) 0.70780(7)
O9 O 0.45564(10) 0.57625(14) 0.77712(7)
O10 O 0.58836(9) 0.41935(11) 0.75174(7)
O11 O 0.56411(10) 0.41790(12) 0.82016(7)
C18 C 0.59382(13) 0.39667(17) 0.79215(10)
C19 C 0.63887(14) 0.33883(17) 0.80912(11)
C20 C 0.65266(14) 0.31749(17) 0.85522(10)
H9 H 0.6305 0.3363 0.8756
C21 C 0.69848(15) 0.26904(18) 0.87174(11)
C22 C 0.71635(15) 0.25026(17) 0.92228(10)
O12 O 0.68593(10) 0.27641(12) 0.94734(7)
O13 O 0.76220(10) 0.20964(12) 0.93525(7)
C23 C 0.72697(17) 0.2368(2) 0.84127(12)
H10 H 0.7571 0.2016 0.8523
C24 C 0.71146(18) 0.2560(2) 0.79438(13)
C25 C 0.66786(17) 0.30717(19) 0.77818(12)
H11 H 0.6577 0.3208 0.7463
O14 O 0.74449(18) 0.2226(2) 0.76572(11)
C26 C 0.73062(16) 0.2407(2) 0.71984(11)
H12 H 0.7350 0.2931 0.7178
H13 H 0.6874 0.2293 0.7063
C27 C 0.76422(17) 0.2089(2) 0.69146(13)
C28 C 0.81121(16) 0.1649(2) 0.70933(11)
H14 H 0.8220 0.1540 0.7417
C29 C 0.84373(14) 0.13564(17) 0.68019(11)
C30 C 0.89493(13) 0.08400(17) 0.70064(11)
O15 O 0.90283(9) 0.06760(12) 0.74248(7)
O16 O 0.92560(10) 0.06321(13) 0.67354(7)
C31 C 0.82955(13) 0.15125(16) 0.63317(10)
H15 H 0.8521 0.1309 0.6136
C32 C 0.78238(14) 0.19669(16) 0.61537(10)
C33 C 0.74919(16) 0.2258(2) 0.64403(12)
H16 H 0.7164 0.2571 0.6314
C34 C 0.76311(15) 0.21278(17) 0.56423(11)
O17 O 0.71736(10) 0.25037(12) 0.54996(8)
O18 O 0.79572(10) 0.18599(13) 0.53957(7)
O19 O 0.65329(10) 0.16441(11) 0.47858(9)
O20 O 0.73419(10) 0.11033(11) 0.46353(8)
C35 C 0.68225(14) 0.11095(18) 0.47227(11)
C36 C 0.65356(15) 0.04085(17) 0.47561(14)
C37 C 0.68566(14) -0.02320(17) 0.47434(12)
H17 H 0.7246 -0.0224 0.4685
C38 C 0.65912(15) -0.08782(18) 0.48179(13)
C39 C 0.69242(15) -0.15591(17) 0.48367(11)
O21 O 0.74453(10) -0.15377(11) 0.47650(8)
O22 O 0.66683(10) -0.21028(11) 0.49464(9)
C40 C 0.60204(17) -0.0891(2) 0.48838(18)
H18 H 0.5826 -0.1329 0.4917
C41 C 0.57304(19) -0.0232(2) 0.4900(3)
C42 C 0.59753(17) 0.0387(2) 0.48336(19)
H19 H 0.5758 0.0818 0.4840
C43 C 0.5157(2) -0.0298(3) 0.49775(19)
H20 H 0.4906 -0.0574 0.4713
H21 H 0.5196 -0.0587 0.5263
O23 O 0.81914(10) 0.28844(12) 0.48003(8)
O24 O 0.73719(10) 0.34928(11) 0.48734(8)
C44 C 0.79136(16) 0.34297(18) 0.48543(11)
C45 C 0.88817(16) 0.4120(2) 0.49182(14)
H22 H 0.9072 0.3678 0.4889
C46 C 0.82758(14) 0.41281(18) 0.49111(12)
C47 C 0.79977(15) 0.47662(16) 0.49408(12)
H23 H 0.7581 0.4779 0.4937
C48 C 0.83251(15) 0.53932(18) 0.49760(12)
C49 C 0.80084(14) 0.60996(17) 0.49788(11)
O25 O 0.74654(10) 0.60716(11) 0.50022(8)
O26 O 0.83101(10) 0.66497(11) 0.49586(8)
C50 C 0.89277(16) 0.5389(2) 0.49875(14)
H24 H 0.9150 0.5822 0.5010
C51 C 0.92083(16) 0.47263(19) 0.49656(16)
C52 C 0.98217(16) 0.4710(2) 0.49862(15)
H25 H 1.0019 0.4395 0.5249
H26 H 0.9851 0.4467 0.4696
O27 O 0.61627(10) -0.35770(13) 0.51421(9)
O28 O 0.87530(10) -0.19211(13) 0.47042(8)
O29 O 0.85745(11) 0.14754(14) 0.45549(10)
O30 O 0.60379(11) 0.31867(15) 0.49946(9)
O31 O 0.56770(11) 0.49986(12) 0.66045(8)
O32 O 0.47570(12) 0.49623(13) 0.86953(9)
O19B O 0.34671(10) -0.16441(11) 0.52142(9)
O20B O 0.26581(10) -0.11033(11) 0.53647(8)
C35B C 0.31775(14) -0.11095(18) 0.52773(11)
C36B C 0.34644(15) -0.04085(17) 0.52439(14)
C37B C 0.31434(14) 0.02320(17) 0.52566(12)
H17B H 0.2754 0.0224 0.5315
C38B C 0.34088(15) 0.08782(18) 0.51821(13)
C39B C 0.30758(15) 0.15591(17) 0.51633(11)
O21B O 0.25547(10) 0.15377(11) 0.52350(8)
O22B O 0.33317(10) 0.21028(11) 0.50536(9)
C40B C 0.39796(17) 0.0891(2) 0.51162(18)
H18B H 0.4174 0.1329 0.5083
C41B C 0.42696(19) 0.0232(2) 0.5100(3)
C42B C 0.40247(17) -0.0387(2) 0.51664(19)
H19B H 0.4242 -0.0818 0.5160
C43B C 0.4843(2) 0.0298(3) 0.50225(19)
H20B H 0.5094 0.0574 0.5287
H21B H 0.4804 0.0587 0.4737
O23B O 1.18086(10) 0.71156(12) 0.51997(8)
O24B O 1.26281(10) 0.65072(11) 0.51266(8)
C44B C 1.20864(16) 0.65703(18) 0.51457(11)
C45B C 1.11183(16) 0.5880(2) 0.50818(14)
H22B H 1.0928 0.6322 0.5111
C46B C 1.17242(14) 0.58719(18) 0.50889(12)
C47B C 1.20023(15) 0.52338(16) 0.50592(12)
H23B H 1.2419 0.5221 0.5063
C48B C 1.16749(15) 0.46068(18) 0.50240(12)
C49B C 1.19916(14) 0.39004(17) 0.50212(11)
O25B O 1.25346(10) 0.39284(11) 0.49978(8)
O26B O 1.16899(10) 0.33503(11) 0.50414(8)
C50B C 1.10723(16) 0.4611(2) 0.50125(14)
H24B H 1.0850 0.4178 0.4990
C51B C 1.07917(16) 0.52737(19) 0.50344(16)
C52B C 1.01783(16) 0.5290(2) 0.50138(15)
H25B H 0.9981 0.5605 0.4751
H26B H 1.0149 0.5533 0.5304
Cu1B Cu 0.221119(16) -0.197545(19) 0.529790(12)
Cu2B Cu 0.318126(16) -0.266666(19) 0.515140(12)
Cu3B Cu 0.302101(16) 0.307490(19) 0.501158(12)
Cu4B Cu 0.205953(15) 0.240172(19) 0.514963(12)
Cu5B Cu 0.492591(14) -0.497369(19) 0.194734(11)
Cu6B Cu 0.463897(14) -0.499665(19) 0.275954(11)
O1B O 0.74295(9) -0.76754(12) 0.07979(7)
O2B O 0.82863(9) -0.81695(12) 0.06852(7)
C1B C 0.79349(15) -0.79880(17) 0.09398(11)
C2B C 0.81364(14) -0.81530(18) 0.14438(11)
C3B C 0.86574(13) -0.85318(17) 0.16245(10)
H1B H 0.8905 -0.8675 0.1428
C4B C 0.88236(14) -0.87066(19) 0.20969(11)
C5B C 0.93613(13) -0.91630(18) 0.23018(11)
O3B O 0.96846(9) -0.93343(12) 0.20300(7)
O4B O 0.94453(10) -0.93327(15) 0.27195(7)
C6B C 0.84570(18) -0.8500(2) 0.23858(12)
H2B H 0.8556 -0.8632 0.2706
C7B C 0.79455(19) -0.8097(3) 0.21920(13)
C8B C 0.77854(18) -0.7923(2) 0.17333(13)
H3B H 0.7434 -0.7644 0.1611
O5B O 0.76036(18) -0.7903(3) 0.25152(13)
C9B C 0.71014(19) -0.7500(2) 0.23415(13)
H4B H 0.7221 -0.7074 0.2189
H5B H 0.6817 -0.7780 0.2097
C10B C 0.67961(19) -0.7273(2) 0.26656(14)
C11B C 0.69539(17) -0.7477(2) 0.31151(13)
H6B H 0.7278 -0.7803 0.3222
C12B C 0.66378(14) -0.72070(19) 0.34236(11)
C13B C 0.68646(15) -0.73997(17) 0.39306(11)
O6B O 0.65252(10) -0.71949(12) 0.41906(7)
O7B O 0.73463(9) -0.77319(12) 0.40558(7)
C14B C 0.61576(13) -0.67380(16) 0.32689(10)
H7B H 0.5944 -0.6563 0.3482
C15B C 0.59876(13) -0.65225(17) 0.28045(10)
C16B C 0.63030(17) -0.6792(2) 0.24943(12)
H8B H 0.6191 -0.6657 0.2175
C17B C 0.55227(13) -0.59765(18) 0.26381(10)
O8B O 0.52231(9) -0.57751(12) 0.29220(7)
O9B O 0.54436(10) -0.57625(14) 0.22288(7)
O10B O 0.41164(9) -0.41935(11) 0.24826(7)
O11B O 0.43589(10) -0.41790(12) 0.17984(7)
C18B C 0.40618(13) -0.39667(17) 0.20785(10)
C19B C 0.36113(14) -0.33883(17) 0.19088(11)
C20B C 0.34734(14) -0.31749(17) 0.14478(10)
H9B H 0.3695 -0.3363 0.1244
C21B C 0.30152(15) -0.26904(18) 0.12826(11)
C22B C 0.28365(15) -0.25026(17) 0.07772(10)
O12B O 0.31407(10) -0.27641(12) 0.05266(7)
O13B O 0.23780(10) -0.20964(12) 0.06475(7)
C23B C 0.27303(17) -0.2368(2) 0.15873(12)
H10B H 0.2429 -0.2016 0.1477
C24B C 0.28854(18) -0.2560(2) 0.20562(13)
C25B C 0.33214(17) -0.30717(19) 0.22182(12)
H11B H 0.3423 -0.3208 0.2537
O14B O 0.25551(18) -0.2226(2) 0.23428(11)
C26B C 0.26938(16) -0.2407(2) 0.28016(11)
H12B H 0.2650 -0.2931 0.2822
H13B H 0.3126 -0.2293 0.2937
C27B C 0.23578(17) -0.2089(2) 0.30854(13)
C28B C 0.18879(16) -0.1649(2) 0.29067(11)
H14B H 0.1780 -0.1540 0.2583
C29B C 0.15627(14) -0.13564(17) 0.31981(11)
C30B C 0.10507(13) -0.08400(17) 0.29936(11)
O15B O 0.09717(9) -0.06760(12) 0.25752(7)
O16B O 0.07440(10) -0.06321(13) 0.32646(7)
C31B C 0.17045(13) -0.15125(16) 0.36683(10)
H15B H 0.1479 -0.1309 0.3864
C32B C 0.21762(14) -0.19669(16) 0.38463(10)
C33B C 0.25081(16) -0.2258(2) 0.35597(12)
H16B H 0.2836 -0.2571 0.3686
C34B C 0.23689(15) -0.21278(17) 0.43577(11)
O17B O 0.28264(10) -0.25037(12) 0.45004(8)
O18B O 0.20428(10) -0.18599(13) 0.46043(7)
O27B O 0.38373(10) 0.35770(13) 0.48579(9)
O28B O 0.12470(10) 0.19211(13) 0.52958(8)
O29B O 0.14255(11) -0.14754(14) 0.54451(10)
O30B O 0.39621(11) -0.31867(15) 0.50054(9)
O31B O 0.43230(11) -0.49986(12) 0.33955(8)
O32B O 0.52430(12) -0.49623(13) 0.13047(9)
Cu1_2 Cu 0.778881(16) -0.802455(19) 0.470210(12)
Cu1B_2 Cu 0.221119(16) 0.802455(19) 0.529790(12)
Cu1B_3 Cu 1.221119(16) 0.802455(19) 0.529790(12)
Cu2_2 Cu 0.681874(16) -0.733334(19) 0.484860(12)
Cu2B_2 Cu 0.318126(16) 0.733334(19) 0.515140(12)
Cu2B_3 Cu 1.318126(16) 0.733334(19) 0.515140(12)
Cu3_2 Cu 0.697899(16) 0.692510(19) 0.498842(12)
Cu3A Cu 0.802101(16) -0.807490(19) 0.001158(12)
Cu3A_2 Cu 0.802101(16) 0.192510(19) 1.001158(12)
Cu3B_2 Cu 1.302101(16) 0.307490(19) 0.501158(12)
Cu3C Cu 0.197899(16) -0.192510(19) -0.001158(12)
Cu3C_2 Cu 0.197899(16) 0.807490(19) 0.998842(12)
Cu4_2 Cu 0.794047(15) 0.759828(19) 0.485037(12)
Cu4A Cu 0.705953(15) -0.740172(19) 0.014963(12)
Cu4A_2 Cu 0.705953(15) 0.259828(19) 1.014963(12)
Cu4B_2 Cu 1.205953(15) 0.240172(19) 0.514963(12)
Cu4C Cu 0.294047(15) -0.259828(19) -0.014963(12)
Cu4C_2 Cu 0.294047(15) 0.740172(19) 0.985037(12)
Cu5A Cu -0.007409(14) 0.997369(19) 0.694734(11)
Cu5A_2 Cu 0.992591(14) -0.002631(19) 0.694734(11)
Cu5C Cu 0.007409(14) 0.002631(19) 0.305266(11)
Cu5C_2 Cu 1.007409(14) -0.997369(19) 0.305266(11)
Cu6A Cu -0.036103(14) 0.999665(19) 0.775954(11)
Cu6A_2 Cu 0.963897(14) -0.000335(19) 0.775954(11)
Cu6C Cu 0.036103(14) 0.000335(19) 0.224046(11)
Cu6C_2 Cu 1.036103(14) -0.999665(19) 0.224046(11)
O1A O 0.24295(9) 0.26754(12) 0.57979(7)
O1C O 0.75705(9) -0.26754(12) 0.42021(7)
O2A O 0.32863(9) 0.31695(12) 0.56852(7)
O2C O 0.67137(9) -0.31695(12) 0.43148(7)
O3A O 0.46846(9) 0.43343(12) 0.70300(7)
O3C O 0.53154(9) -0.43343(12) 0.29700(7)
O4A O 0.44453(10) 0.43327(15) 0.77195(7)
O4C O 0.55547(10) -0.43327(15) 0.22805(7)
O6_2 O 0.34748(10) -0.28051(12) 0.58094(7)
O6B_2 O 0.65252(10) 0.28051(12) 0.41906(7)
O7_2 O 0.26537(9) -0.22681(12) 0.59442(7)
O7B_2 O 0.73463(9) 0.22681(12) 0.40558(7)
O12A O 0.81407(10) -0.22359(12) 0.55266(7)
O12C O 0.18593(10) 0.22359(12) 0.44734(7)
O13A O 0.73780(10) -0.29036(12) 0.56475(7)
O13C O 0.26220(10) 0.29036(12) 0.43525(7)
O15A O 0.59717(9) 0.56760(12) 0.75752(7)
O15C O 0.40283(9) -0.56760(12) 0.24248(7)
O16A O 0.57440(10) 0.56321(13) 0.82646(7)
O16C O 0.42560(10) -0.56321(13) 0.17354(7)
O23B_2 O 0.18086(10) -0.28844(12) 0.51997(8)
O24B_2 O 0.26281(10) -0.34928(11) 0.51266(8)
O25_2 O 0.74654(10) -0.39284(11) 0.50022(8)
O25B_2 O 0.25346(10) 0.39284(11) 0.49978(8)
O26_2 O 0.83101(10) -0.33503(11) 0.49586(8)
O26B_2 O 0.16899(10) 0.33503(11) 0.50414(8)
loop_
_geom_bond_atom_site_label_1
_geom_bond_atom_site_label_2
_geom_bond_site_symmetry_1
_geom_bond_site_symmetry_2
Cu1 O18 1_555 1_555
Cu2 O17 1_555 1_555
Cu3 O22 1_555 1_555
Cu4 O21 1_555 1_555
Cu5 O9 1_555 1_555
Cu6 O8 1_555 1_555
O1 C1 1_555 1_555
O2 C1 1_555 1_555
C1 C2 1_555 1_555
C2 C3 1_555 1_555
C3 H1 1_555 1_555
C4 C3 1_555 1_555
C5 C4 1_555 1_555
O3 C5 1_555 1_555
O4 C5 1_555 1_555
C6 C4 1_555 1_555
H2 C6 1_555 1_555
C7 C6 1_555 1_555
C8 C2 1_555 1_555
H3 C8 1_555 1_555
O5 C7 1_555 1_555
C9 O5 1_555 1_555
H4 C9 1_555 1_555
H5 C9 1_555 1_555
C10 C9 1_555 1_555
C11 C10 1_555 1_555
H6 C11 1_555 1_555
C12 C11 1_555 1_555
C13 C12 1_555 1_555
O6 C13 1_555 1_555
O7 C13 1_555 1_555
C14 C12 1_555 1_555
H7 C14 1_555 1_555
C15 C14 1_555 1_555
C16 C10 1_555 1_555
H8 C16 1_555 1_555
C17 C15 1_555 1_555
O8 C17 1_555 1_555
O9 C17 1_555 1_555
O10 Cu6 1_555 1_555
O11 Cu5 1_555 1_555
C18 O10 1_555 1_555
C19 C18 1_555 1_555
C20 C19 1_555 1_555
H9 C20 1_555 1_555
C21 C20 1_555 1_555
C22 C21 1_555 1_555
O12 C22 1_555 1_555
O13 C22 1_555 1_555
C23 C21 1_555 1_555
H10 C23 1_555 1_555
C24 C23 1_555 1_555
C25 C19 1_555 1_555
H11 C25 1_555 1_555
O14 C24 1_555 1_555
C26 O14 1_555 1_555
H12 C26 1_555 1_555
H13 C26 1_555 1_555
C27 C26 1_555 1_555
C28 C27 1_555 1_555
H14 C28 1_555 1_555
C29 C28 1_555 1_555
C30 C29 1_555 1_555
O15 C30 1_555 1_555
O16 C30 1_555 1_555
C31 C29 1_555 1_555
H15 C31 1_555 1_555
C32 C31 1_555 1_555
C33 C27 1_555 1_555
H16 C33 1_555 1_555
C34 C32 1_555 1_555
O17 C34 1_555 1_555
O18 C34 1_555 1_555
O19 Cu2 1_555 1_555
O20 Cu1 1_555 1_555
C35 O19 1_555 1_555
C36 C35 1_555 1_555
C37 C36 1_555 1_555
H17 C37 1_555 1_555
C38 C37 1_555 1_555
C39 C38 1_555 1_555
O21 C39 1_555 1_555
O22 C39 1_555 1_555
C40 C38 1_555 1_555
H18 C40 1_555 1_555
C41 C40 1_555 1_555
C42 C36 1_555 1_555
H19 C42 1_555 1_555
C43 C41 1_555 1_555
H20 C43 1_555 1_555
H21 C43 1_555 1_555
O23 Cu1 1_555 1_555
O24 Cu2 1_555 1_555
C44 O23 1_555 1_555
C45 H22 1_555 1_555
C46 C44 1_555 1_555
C47 C46 1_555 1_555
H23 C47 1_555 1_555
C48 C47 1_555 1_555
C49 C48 1_555 1_555
O25 C49 1_555 1_555
O26 C49 1_555 1_555
C50 C48 1_555 1_555
H24 C50 1_555 1_555
C51 C45 1_555 1_555
C52 C51 1_555 1_555
H25 C52 1_555 1_555
H26 C52 1_555 1_555
O27 Cu3 1_555 1_555
O28 Cu4 1_555 1_555
O29 Cu1 1_555 1_555
O30 Cu2 1_555 1_555
O31 Cu6 1_555 1_555
O32 Cu5 1_555 1_555
O19B C35B 1_555 1_555
O20B C35B 1_555 1_555
C35B C36B 1_555 1_555
C36B C37B 1_555 1_555
C37B H17B 1_555 1_555
C38B C37B 1_555 1_555
C39B C38B 1_555 1_555
O21B C39B 1_555 1_555
O22B C39B 1_555 1_555
C40B C38B 1_555 1_555
H18B C40B 1_555 1_555
C41B C40B 1_555 1_555
C42B C36B 1_555 1_555
H19B C42B 1_555 1_555
C43B C43 1_555 1_555
H20B C43B 1_555 1_555
H21B C43B 1_555 1_555
O23B C44B 1_555 1_555
O24B C44B 1_555 1_555
C44B C46B 1_555 1_555
C45B H22B 1_555 1_555
C46B C45B 1_555 1_555
C47B C46B 1_555 1_555
H23B C47B 1_555 1_555
C48B C47B 1_555 1_555
C49B C48B 1_555 1_555
O25B C49B 1_555 1_555
O26B C49B 1_555 1_555
C50B C48B 1_555 1_555
H24B C50B 1_555 1_555
C51B C45B 1_555 1_555
C52B C52 1_555 1_555
H25B C52B 1_555 1_555
H26B C52B 1_555 1_555
Cu1B O20B 1_555 1_555
Cu2B O19B 1_555 1_555
Cu3B O22B 1_555 1_555
Cu4B O21B 1_555 1_555
Cu5B O9B 1_555 1_555
Cu6B O8B 1_555 1_555
O1B C1B 1_555 1_555
O2B C1B 1_555 1_555
C1B C2B 1_555 1_555
C2B C3B 1_555 1_555
C3B H1B 1_555 1_555
C4B C3B 1_555 1_555
C5B C4B 1_555 1_555
O3B C5B 1_555 1_555
O4B C5B 1_555 1_555
C6B C4B 1_555 1_555
H2B C6B 1_555 1_555
C7B C6B 1_555 1_555
C8B C2B 1_555 1_555
H3B C8B 1_555 1_555
O5B C7B 1_555 1_555
C9B O5B 1_555 1_555
H4B C9B 1_555 1_555
H5B C9B 1_555 1_555
C10B C9B 1_555 1_555
C11B C10B 1_555 1_555
H6B C11B 1_555 1_555
C12B C11B 1_555 1_555
C13B C12B 1_555 1_555
O6B C13B 1_555 1_555
O7B C13B 1_555 1_555
C14B C12B 1_555 1_555
H7B C14B 1_555 1_555
C15B C14B 1_555 1_555
C16B C10B 1_555 1_555
H8B C16B 1_555 1_555
C17B C15B 1_555 1_555
O8B C17B 1_555 1_555
O9B C17B 1_555 1_555
O10B Cu6B 1_555 1_555
O11B Cu5B 1_555 1_555
C18B O10B 1_555 1_555
C19B C18B 1_555 1_555
C20B C19B 1_555 1_555
H9B C20B 1_555 1_555
C21B C20B 1_555 1_555
C22B C21B 1_555 1_555
O12B C22B 1_555 1_555
O13B C22B 1_555 1_555
C23B C21B 1_555 1_555
H10B C23B 1_555 1_555
C24B C23B 1_555 1_555
C25B C19B 1_555 1_555
H11B C25B 1_555 1_555
O14B C24B 1_555 1_555
C26B O14B 1_555 1_555
H12B C26B 1_555 1_555
H13B C26B 1_555 1_555
C27B C26B 1_555 1_555
C28B C27B 1_555 1_555
H14B C28B 1_555 1_555
C29B C28B 1_555 1_555
C30B C29B 1_555 1_555
O15B C30B 1_555 1_555
O16B C30B 1_555 1_555
C31B C29B 1_555 1_555
H15B C31B 1_555 1_555
C32B C31B 1_555 1_555
C33B C27B 1_555 1_555
H16B C33B 1_555 1_555
C34B C32B 1_555 1_555
O17B Cu2B 1_555 1_555
O18B Cu1B 1_555 1_555
O27B Cu3B 1_555 1_555
O28B Cu4B 1_555 1_555
O29B Cu1B 1_555 1_555
O30B Cu2B 1_555 1_555
O31B Cu6B 1_555 1_555
O32B Cu5B 1_555 1_555
Cu1_2 O7B 1_555 1_555
Cu1B_2 O7 1_555 1_555
Cu1B_3 O23B 1_555 1_555
Cu2_2 O6B 1_555 1_555
Cu2B_2 O6 1_555 1_555
Cu2B_3 O24B 1_555 1_555
Cu3_2 O25 1_555 1_555
Cu3A O2B 1_555 1_555
Cu3A_2 O13 1_555 1_555
Cu3B_2 O25B 1_555 1_555
Cu3C O13B 1_555 1_555
Cu3C_2 O2 1_555 1_555
Cu4_2 O26 1_555 1_555
Cu4A O1B 1_555 1_555
Cu4A_2 O12 1_555 1_555
Cu4B_2 O26B 1_555 1_555
Cu4C O12B 1_555 1_555
Cu4C_2 O1 1_555 1_555
Cu5A O4 1_555 1_555
Cu5A_2 O16 1_555 1_555
Cu5C O16B 1_555 1_555
Cu5C_2 O4B 1_555 1_555
Cu6A O3 1_555 1_555
Cu6A_2 O15 1_555 1_555
Cu6C O15B 1_555 1_555
Cu6C_2 O3B 1_555 1_555
O1A Cu4B 1_555 1_555
O1C Cu4 1_555 1_555
O2A Cu3B 1_555 1_555
O2C Cu3 1_555 1_555
O3A Cu6 1_555 1_555
O3C Cu6B 1_555 1_555
O4A Cu5 1_555 1_555
O4C Cu5B 1_555 1_555
O6_2 Cu2B 1_555 1_555
O6B_2 Cu2 1_555 1_555
O7_2 Cu1B 1_555 1_555
O7B_2 Cu1 1_555 1_555
O12A Cu4 1_555 1_555
O12C Cu4B 1_555 1_555
O13A Cu3 1_555 1_555
O13C Cu3B 1_555 1_555
O15A Cu6 1_555 1_555
O15C Cu6B 1_555 1_555
O16A Cu5 1_555 1_555
O16C Cu5B 1_555 1_555
O23B_2 Cu1B 1_555 1_555
O24B_2 Cu2B 1_555 1_555
O25_2 Cu3 1_555 1_555
O25B_2 Cu3B 1_555 1_555
O26_2 Cu4 1_555 1_555
O26B_2 Cu4B 1_555 1_555
C7 C8 1_555 1_555
C15 C16 1_555 1_555
O11 C18 1_555 1_555
C24 C25 1_555 1_555
C32 C33 1_555 1_555
O20 C35 1_555 1_555
C41 C42 1_555 1_555
O24 C44 1_555 1_555
C45 C46 1_555 1_555
C50 C51 1_555 1_555
C41B C42B 1_555 1_555
C41B C43B 1_555 1_555
C50B C51B 1_555 1_555
C51B C52B 1_555 1_555
C7B C8B 1_555 1_555
C15B C16B 1_555 1_555
O11B C18B 1_555 1_555
C24B C25B 1_555 1_555
C32B C33B 1_555 1_555
C34B O17B 1_555 1_555
C34B O18B 1_555 1_555

#END
