
#######################################################################
#
#                 Cambridge Crystallographic Data Centre
#                                CCDC 
#
#######################################################################
#
# If this CIF has been generated from an entry in the Cambridge 
# Structural Database, then it will include bibliographic, chemical, 
# crystal, experimental, refinement or atomic coordinate data resulting 
# from the CCDC's data processing and validation procedures.
#
#######################################################################

data_BEXVIL
_chemical_formula_moiety         'C44 H46 Cd12 N2 O35'
_symmetry_cell_setting           monoclinic
_symmetry_space_group_name_H-M   'P 21/c'
_symmetry_Int_Tables_number      14
_space_group_name_Hall           '-P 2ybc'
loop_
_symmetry_equiv_pos_site_id
_symmetry_equiv_pos_as_xyz
1 x,y,z
2 -x,1/2+y,1/2-z
3 -x,-y,-z
4 x,1/2-y,1/2+z
_cell_length_a                   14.3175(3)
_cell_length_b                   14.4020(3)
_cell_length_c                   22.6162(4)
_cell_angle_alpha                90
_cell_angle_beta                 100.4977(10)
_cell_angle_gamma                90
_cell_volume                     4585.42
loop_
_atom_site_label
_atom_site_type_symbol
_atom_site_fract_x
_atom_site_fract_y
_atom_site_fract_z
Cd1 Cd -0.24472(2) -0.25293(2) 0.241120(13)
Cd2 Cd 0.31474(3) 0.12532(3) 0.139335(14)
O1 O -0.1955(2) -0.1803(2) 0.16262(13)
O2 O -0.1206(2) -0.1377(2) 0.25330(13)
C1 C -0.1322(3) -0.1337(3) 0.1964(2)
C2 C -0.0691(3) -0.0721(4) 0.16728(19)
C3 C -0.0034(3) -0.0146(3) 0.2013(2)
H1 H 0.0017 -0.0122 0.2437
C4 C 0.0547(3) 0.0396(3) 0.1731(2)
C5 C 0.0479(4) 0.0355(4) 0.1112(2)
H2 H 0.0886 0.0728 0.0922
C6 C -0.0174(4) -0.0222(4) 0.0771(2)
C7 C -0.0769(4) -0.0747(4) 0.1050(2)
H3 H -0.1237 -0.1130 0.0816
C8 C -0.0162(8) -0.0497(8) 0.0122(4)
H4 H -0.0797 -0.0693 -0.0092
H5 H 0.0307 -0.0994 0.0095
C9 C 0.1238(3) 0.1075(3) 0.2089(2)
O3 O 0.1233(2) 0.1214(2) 0.26277(14)
O4 O 0.1805(2) 0.1510(2) 0.18093(14)
O5 O 0.3946(3) 0.0940(3) 0.23150(14)
O6 O 0.3517(2) 0.1560(2) 0.31312(15)
C10 C 0.3964(3) 0.1001(3) 0.2869(2)
C11 C 0.4629(3) 0.0340(3) 0.32689(19)
C12 C 0.4661(4) 0.0333(4) 0.3883(2)
H6 H 0.4277 0.0756 0.4055
C13 C 0.5239(4) -0.0278(4) 0.4250(2)
C14 C 0.5780(4) -0.0897(4) 0.4001(2)
H7 H 0.6163 -0.1332 0.4253
C15 C 0.5779(3) -0.0902(3) 0.3386(2)
C16 C 0.5185(3) -0.0278(3) 0.3016(2)
H8 H 0.5164 -0.0280 0.2594
C17 C 0.5367(8) -0.0120(9) 0.4890(5)
H9 H 0.5627 -0.0696 0.5096
H10 H 0.5855 0.0369 0.4995
C18 C 0.6372(4) -0.1582(4) 0.3115(3)
O7 O 0.6442(3) -0.1481(3) 0.2578(2)
O8 O 0.6803(3) -0.2187(3) 0.3456(2)
O9 O 0.2411(3) 0.1571(3) 0.04544(16)
C19 C 0.2111(5) 0.2318(5) 0.0214(3)
C20 C 0.1275(5) 0.2760(6) 0.0424(4)
H11 H 0.0697 0.2646 0.0127
H12 H 0.1381 0.3430 0.0471
H13 H 0.1203 0.2491 0.0811
N1 N 0.2468(4) 0.2692(4) -0.0215(2)
C21 C 0.2076(6) 0.3521(5) -0.0563(3)
H14 H 0.1499 0.3726 -0.0425
H15 H 0.1921 0.3364 -0.0992
H16 H 0.2547 0.4022 -0.0503
C22 C 0.3318(5) 0.2259(5) -0.0390(3)
H17 H 0.3786 0.2120 -0.0028
H18 H 0.3595 0.2687 -0.0646
H19 H 0.3133 0.1682 -0.0610
O10 O 0.2939(5) -0.0266(3) 0.1227(3)
H20 H 0.2709 -0.0370 0.0797
H21 H 0.2470 -0.0499 0.1456
O11 O 0.4566(5) 0.1134(5) 0.1066(3)
H22 H 0.5066 0.0981 0.1409
H23 H 0.4521 0.0639 0.0764
O1B O 0.1955(2) 0.1803(2) -0.16262(13)
O2B O 0.1206(2) 0.1377(2) -0.25330(13)
C1B C 0.1322(3) 0.1337(3) -0.1964(2)
C2B C 0.0691(3) 0.0721(4) -0.16728(19)
C3B C 0.0034(3) 0.0146(3) -0.2013(2)
H1B H -0.0017 0.0122 -0.2437
C4B C -0.0547(3) -0.0396(3) -0.1731(2)
C5B C -0.0479(4) -0.0355(4) -0.1112(2)
H2B H -0.0886 -0.0728 -0.0922
C6B C 0.0174(4) 0.0222(4) -0.0771(2)
C7B C 0.0769(4) 0.0747(4) -0.1050(2)
H3B H 0.1237 0.1130 -0.0816
C8B C 0.0162(8) 0.0497(8) -0.0122(4)
H4B H 0.0797 0.0693 0.0092
H5B H -0.0307 0.0994 -0.0095
C9B C -0.1238(3) -0.1075(3) -0.2089(2)
O3B O -0.1233(2) -0.1214(2) -0.26277(14)
O4B O -0.1805(2) -0.1510(2) -0.18093(14)
O5B O 0.6054(3) -0.0940(3) 0.76850(14)
O6B O 0.6483(2) -0.1560(2) 0.68688(15)
C10B C 0.6036(3) -0.1001(3) 0.7131(2)
C11B C 0.5371(3) -0.0340(3) 0.67311(19)
C12B C 0.5339(4) -0.0333(4) 0.6117(2)
H6B H 0.5723 -0.0756 0.5945
C13B C 0.4761(4) 0.0278(4) 0.5750(2)
C14B C 0.4220(4) 0.0897(4) 0.5999(2)
H7B H 0.3837 0.1332 0.5747
C15B C 0.4221(3) 0.0902(3) 0.6614(2)
C16B C 0.4815(3) 0.0278(3) 0.6984(2)
H8B H 0.4836 0.0280 0.7406
C17B C 0.4633(8) 0.0120(9) 0.5110(5)
H9B H 0.4373 0.0696 0.4904
H10B H 0.4145 -0.0369 0.5005
C18B C 0.3628(4) 0.1582(4) 0.6885(3)
O7B O 0.3558(3) 0.1481(3) 0.7422(2)
O8B O 0.3197(3) 0.2187(3) 0.6544(2)
Cd1B Cd 0.24472(2) 0.25293(2) -0.241120(13)
Cd2B Cd -0.31474(3) -0.12532(3) -0.139335(14)
O9B O -0.2411(3) -0.1571(3) -0.04544(16)
C19B C -0.2111(5) -0.2318(5) -0.0214(3)
C20B C -0.1275(5) -0.2760(6) -0.0424(4)
H11B H -0.0697 -0.2646 -0.0127
H12B H -0.1381 -0.3430 -0.0471
H13B H -0.1203 -0.2491 -0.0811
N1B N -0.2468(4) -0.2692(4) 0.0215(2)
C21B C -0.2076(6) -0.3521(5) 0.0563(3)
H14B H -0.1499 -0.3726 0.0425
H15B H -0.1921 -0.3364 0.0992
H16B H -0.2547 -0.4022 0.0503
C22B C -0.3318(5) -0.2259(5) 0.0390(3)
H17B H -0.3786 -0.2120 0.0028
H18B H -0.3595 -0.2687 0.0646
H19B H -0.3133 -0.1682 0.0610
O10B O -0.2939(5) 0.0266(3) -0.1227(3)
H20B H -0.2709 0.0370 -0.0797
H21B H -0.2470 0.0499 -0.1456
O11B O -0.4566(5) -0.1134(5) -0.1066(3)
H22B H -0.5066 -0.0981 -0.1409
H23B H -0.4521 -0.0639 -0.0764
Cd1_2 Cd 0.75528(2) -0.25293(2) 0.241120(13)
Cd1A Cd 0.24472(2) 0.24707(2) 0.258880(13)
Cd1B_2 Cd 0.24472(2) 0.25293(2) 0.758880(13)
Cd1C Cd -0.24472(2) -0.24707(2) -0.258880(13)
Cd1C_2 Cd 0.75528(2) -0.24707(2) 0.741120(13)
Cd2A Cd 0.68526(3) -0.37468(3) 0.360665(14)
Cd2B_2 Cd 0.68526(3) -0.12532(3) 0.860665(14)
Cd2C Cd 0.31474(3) 0.37468(3) 0.639335(14)
O3A O -0.1233(2) -0.3786(2) 0.23723(14)
O3C O 0.1233(2) 0.3786(2) -0.23723(14)
O4A O -0.1805(2) -0.3490(2) 0.31907(14)
O4C O 0.1805(2) 0.3490(2) -0.31907(14)
O5B_2 O -0.3946(3) -0.0940(3) -0.23150(14)
O6A O -0.3517(2) -0.3440(2) 0.18688(15)
O6C O 0.3517(2) 0.3440(2) -0.18688(15)
O7_2 O -0.3558(3) -0.1481(3) 0.2578(2)
O7B_2 O 0.3558(3) 0.1481(3) -0.2578(2)
O8_2 O -0.3197(3) -0.2187(3) 0.3456(2)
O8A O 0.3197(3) 0.2813(3) 0.1544(2)
O8B_2 O 0.3197(3) 0.2187(3) -0.3456(2)
O8C O -0.3197(3) -0.2813(3) -0.1544(2)
loop_
_geom_bond_atom_site_label_1
_geom_bond_atom_site_label_2
_geom_bond_site_symmetry_1
_geom_bond_site_symmetry_2
Cd1 O1 1_555 1_555
Cd2 O4 1_555 1_555
O1 C1 1_555 1_555
O2 Cd1 1_555 1_555
C1 O2 1_555 1_555
C2 C1 1_555 1_555
C3 C2 1_555 1_555
H1 C3 1_555 1_555
C4 C3 1_555 1_555
C5 C4 1_555 1_555
H2 C5 1_555 1_555
C6 C5 1_555 1_555
C7 C2 1_555 1_555
H3 C7 1_555 1_555
C8 C6 1_555 1_555
H4 C8 1_555 1_555
H5 C8 1_555 1_555
C9 C4 1_555 1_555
O3 C9 1_555 1_555
O4 C9 1_555 1_555
O5 Cd2 1_555 1_555
O6 C10 1_555 1_555
C10 O5 1_555 1_555
C11 C10 1_555 1_555
C12 C11 1_555 1_555
H6 C12 1_555 1_555
C13 C12 1_555 1_555
C14 C13 1_555 1_555
H7 C14 1_555 1_555
C15 C14 1_555 1_555
C16 C11 1_555 1_555
H8 C16 1_555 1_555
C17 C13 1_555 1_555
H9 C17 1_555 1_555
H10 C17 1_555 1_555
C18 C15 1_555 1_555
O7 C18 1_555 1_555
O8 C18 1_555 1_555
O9 Cd2 1_555 1_555
C19 O9 1_555 1_555
C20 C19 1_555 1_555
H11 C20 1_555 1_555
H12 C20 1_555 1_555
H13 C20 1_555 1_555
N1 C19 1_555 1_555
C21 N1 1_555 1_555
H14 C21 1_555 1_555
H15 C21 1_555 1_555
H16 C21 1_555 1_555
C22 N1 1_555 1_555
H17 C22 1_555 1_555
H18 C22 1_555 1_555
H19 C22 1_555 1_555
O10 Cd2 1_555 1_555
H20 O10 1_555 1_555
H21 O10 1_555 1_555
O11 Cd2 1_555 1_555
H22 O11 1_555 1_555
H23 O11 1_555 1_555
O1B C1B 1_555 1_555
O2B C1B 1_555 1_555
C1B C2B 1_555 1_555
C2B C3B 1_555 1_555
C3B H1B 1_555 1_555
C4B C3B 1_555 1_555
C5B C4B 1_555 1_555
H2B C5B 1_555 1_555
C6B C5B 1_555 1_555
C7B C2B 1_555 1_555
H3B C7B 1_555 1_555
C8B C8 1_555 1_555
H4B C8B 1_555 1_555
H5B C8B 1_555 1_555
C9B C4B 1_555 1_555
O3B C9B 1_555 1_555
O4B C9B 1_555 1_555
O5B C10B 1_555 1_555
O6B C10B 1_555 1_555
C10B C11B 1_555 1_555
C11B C12B 1_555 1_555
C12B H6B 1_555 1_555
C13B C12B 1_555 1_555
C14B C13B 1_555 1_555
H7B C14B 1_555 1_555
C15B C14B 1_555 1_555
C16B C11B 1_555 1_555
H8B C16B 1_555 1_555
C17B C17 1_555 1_555
H9B C17B 1_555 1_555
H10B C17B 1_555 1_555
C18B C15B 1_555 1_555
O7B C18B 1_555 1_555
O8B C18B 1_555 1_555
Cd1B O1B 1_555 1_555
Cd2B O4B 1_555 1_555
O9B Cd2B 1_555 1_555
C19B O9B 1_555 1_555
C20B C19B 1_555 1_555
H11B C20B 1_555 1_555
H12B C20B 1_555 1_555
H13B C20B 1_555 1_555
N1B C19B 1_555 1_555
C21B N1B 1_555 1_555
H14B C21B 1_555 1_555
H15B C21B 1_555 1_555
H16B C21B 1_555 1_555
C22B N1B 1_555 1_555
H17B C22B 1_555 1_555
H18B C22B 1_555 1_555
H19B C22B 1_555 1_555
O10B Cd2B 1_555 1_555
H20B O10B 1_555 1_555
H21B O10B 1_555 1_555
O11B Cd2B 1_555 1_555
H22B O11B 1_555 1_555
H23B O11B 1_555 1_555
Cd1_2 O7 1_555 1_555
Cd1A O3 1_555 1_555
Cd1B_2 O7B 1_555 1_555
Cd1C O3B 1_555 1_555
Cd1C_2 O6B 1_555 1_555
Cd2A O8 1_555 1_555
Cd2B_2 O5B 1_555 1_555
Cd2C O8B 1_555 1_555
O3A Cd1 1_555 1_555
O3C Cd1B 1_555 1_555
O4A Cd1 1_555 1_555
O4C Cd1B 1_555 1_555
O5B_2 Cd2B 1_555 1_555
O6A Cd1 1_555 1_555
O6C Cd1B 1_555 1_555
O7_2 Cd1 1_555 1_555
O7B_2 Cd1B 1_555 1_555
O8_2 Cd1 1_555 1_555
O8A Cd2 1_555 1_555
O8B_2 Cd1B 1_555 1_555
O8C Cd2B 1_555 1_555
C6 C7 1_555 1_555
O4 Cd1A 1_555 1_555
O6 Cd1A 1_555 1_555
C15 C16 1_555 1_555
O8 Cd1_2 1_555 1_555
O2B Cd1B 1_555 1_555
C6B C7B 1_555 1_555
C6B C8B 1_555 1_555
O4B Cd1C 1_555 1_555
C13B C17B 1_555 1_555
C15B C16B 1_555 1_555
O8B Cd1B_2 1_555 1_555
Cd1A O8A 1_555 1_555
Cd1C O8C 1_555 1_555

#END
