
#######################################################################
#
#                 Cambridge Crystallographic Data Centre
#                                CCDC 
#
#######################################################################
#
# If this CIF has been generated from an entry in the Cambridge 
# Structural Database, then it will include bibliographic, chemical, 
# crystal, experimental, refinement or atomic coordinate data resulting 
# from the CCDC's data processing and validation procedures.
#
#######################################################################

data_RIPTAM
_chemical_formula_moiety         '(C42 H54 Ca3 N6 O42 Tb2)n'
_symmetry_cell_setting           monoclinic
_symmetry_space_group_name_H-M   'P 2/c'
_symmetry_Int_Tables_number      13
_space_group_name_Hall           '-P 2yc'
loop_
_symmetry_equiv_pos_site_id
_symmetry_equiv_pos_as_xyz
1 x,y,z
2 -x,y,1/2-z
3 -x,-y,-z
4 x,-y,1/2+z
_cell_length_a                   16.2024(12)
_cell_length_b                   9.4391(7)
_cell_length_c                   23.9864(18)
_cell_angle_alpha                90
_cell_angle_beta                 108.3540(10)
_cell_angle_gamma                90
_cell_volume                     3481.77
loop_
_atom_site_label
_atom_site_type_symbol
_atom_site_fract_x
_atom_site_fract_y
_atom_site_fract_z
Tb1 Tb 0.298158(14) 0.50047(2) 0.096960(10)
Ca1 Ca 0.5000 -0.00232(10) 0.2500
Ca2 Ca 0.5000 0.0000 0.0000
Ca3 Ca 0.0000 0.0000 0.0000
N1 N 0.1743(3) 0.5050(4) 0.0018(2)
C1 C 0.2495(3) 0.6963(6) -0.0258(2)
C2 C 0.1705(3) 0.6032(5) -0.0391(2)
C3 C 0.1000(4) 0.6164(7) -0.0889(3)
H1 H 0.0987 0.6867 -0.1164
C4 C 0.0311(5) 0.5233(8) -0.0976(4)
H2 H -0.0174 0.5301 -0.1309
C5 C 0.0355(4) 0.4206(7) -0.0560(3)
H3 H -0.0101 0.3570 -0.0609
C6 C 0.1084(3) 0.4130(5) -0.0068(2)
C7 C 0.1197(3) 0.3068(5) 0.0410(2)
N2 N 0.2644(3) 0.4850(4) 0.19185(19)
C8 C 0.1689(3) 0.6812(6) 0.1545(2)
C9 C 0.2042(3) 0.5695(6) 0.2014(2)
C10 C 0.1749(5) 0.5522(9) 0.2493(3)
H4 H 0.1326 0.6117 0.2551
C11 C 0.2104(5) 0.4439(10) 0.2882(3)
H5 H 0.1935 0.4312 0.3215
C12 C 0.2705(4) 0.3555(7) 0.2776(3)
H6 H 0.2930 0.2796 0.3025
C13 C 0.2972(3) 0.3805(5) 0.2293(2)
C14 C 0.3635(3) 0.2904(5) 0.2132(2)
N3 N 0.4525(3) 0.5048(4) 0.0966(2)
C15 C 0.4116(3) 0.3070(5) 0.0322(2)
C16 C 0.4795(3) 0.4134(5) 0.0653(2)
C17 C 0.5637(4) 0.4165(6) 0.0616(3)
H7 H 0.5817 0.3507 0.0390
C18 C 0.6194(4) 0.5202(7) 0.0925(3)
H8 H 0.6757 0.5262 0.0907
C19 C 0.5910(4) 0.6145(6) 0.1262(3)
H9 H 0.6279 0.6848 0.1475
C20 C 0.5069(3) 0.6031(5) 0.1278(2)
C21 C 0.4681(3) 0.7019(5) 0.1618(2)
O1 O 0.3053(2) 0.6798(4) 0.02498(17)
O2 O 0.2563(3) 0.7794(5) -0.0638(2)
O3 O 0.1857(2) 0.3234(4) 0.08598(17)
O4 O 0.0647(3) 0.2115(4) 0.03469(19)
O5 O 0.1946(2) 0.6730(4) 0.10996(17)
O6 O 0.1164(3) 0.7681(5) 0.1618(2)
O7 O 0.4020(3) 0.1957(4) 0.24759(17)
O8 O 0.3743(2) 0.3188(4) 0.16466(16)
O9 O 0.3358(2) 0.3279(4) 0.03431(17)
O10 O 0.4337(3) 0.2098(4) 0.00539(17)
O11 O 0.3893(2) 0.6786(4) 0.15803(17)
O12 O 0.5133(2) 0.7997(4) 0.19018(17)
O13 O 0.4696(3) 0.0948(4) 0.14831(16)
O14 O 0.3494(3) -0.0866(4) 0.21244(19)
O15 O 0.6134(3) 0.0639(5) 0.0873(2)
O16 O 0.4168(3) -0.0959(5) 0.0534(2)
O17 O 0.1380(3) -0.0999(5) 0.0343(3)
O18 O -0.0095(5) -0.0530(8) 0.0929(3)
H10 H 0.346(6) -0.157(6) 0.190(3)
H11 H 0.314(5) -0.027(6) 0.192(3)
H12 H 0.388(5) -0.172(6) 0.046(4)
H13 H 0.396(8) -0.050(10) 0.077(5)
H14 H 0.179(3) -0.045(6) 0.033(3)
H15 H 0.162(5) -0.176(5) 0.049(4)
Tb1A Tb 0.701842(14) 0.50047(2) 0.403040(10)
Ca1_2 Ca 0.5000 0.99768(10) 0.2500
Ca2C Ca 0.5000 0.0000 0.5000
Ca3C Ca 1.0000 0.0000 0.5000
N1A N 0.8257(3) 0.5050(4) 0.4982(2)
C1A C 0.7505(3) 0.6963(6) 0.5258(2)
C2A C 0.8295(3) 0.6032(5) 0.5391(2)
C3A C 0.9000(4) 0.6164(7) 0.5889(3)
H1A H 0.9013 0.6867 0.6164
C4A C 0.9689(5) 0.5233(8) 0.5976(4)
H2A H 1.0174 0.5301 0.6309
C5A C 0.9645(4) 0.4206(7) 0.5560(3)
H3A H 1.0101 0.3570 0.5609
C6A C 0.8916(3) 0.4130(5) 0.5068(2)
C7A C 0.8803(3) 0.3068(5) 0.4590(2)
N2A N 0.7356(3) 0.4850(4) 0.30815(19)
C8A C 0.8311(3) 0.6812(6) 0.3455(2)
C9A C 0.7958(3) 0.5695(6) 0.2986(2)
C10A C 0.8251(5) 0.5522(9) 0.2507(3)
H4A H 0.8674 0.6117 0.2449
C11A C 0.7896(5) 0.4439(10) 0.2118(3)
H5A H 0.8065 0.4312 0.1785
C12A C 0.7295(4) 0.3555(7) 0.2224(3)
H6A H 0.7070 0.2796 0.1975
C13A C 0.7028(3) 0.3805(5) 0.2707(2)
C14A C 0.6365(3) 0.2904(5) 0.2868(2)
N3A N 0.5475(3) 0.5048(4) 0.4034(2)
C15A C 0.5884(3) 0.3070(5) 0.4678(2)
C16A C 0.5205(3) 0.4134(5) 0.4347(2)
C17A C 0.4363(4) 0.4165(6) 0.4384(3)
H7A H 0.4183 0.3507 0.4610
C18A C 0.3806(4) 0.5202(7) 0.4075(3)
H8A H 0.3243 0.5262 0.4093
C19A C 0.4090(4) 0.6145(6) 0.3738(3)
H9A H 0.3721 0.6848 0.3525
C20A C 0.4931(3) 0.6031(5) 0.3722(2)
C21A C 0.5319(3) 0.7019(5) 0.3382(2)
O1A O 0.6947(2) 0.6798(4) 0.47502(17)
O2A O 0.7437(3) 0.7794(5) 0.5638(2)
O3A O 0.8143(2) 0.3234(4) 0.41402(17)
O4B O -0.0647(3) -0.2115(4) -0.03469(19)
O4A O 0.9353(3) 0.2115(4) 0.46531(19)
O5A O 0.8054(2) 0.6730(4) 0.39004(17)
O6A O 0.8836(3) 0.7681(5) 0.3382(2)
O7A O 0.5980(3) 0.1957(4) 0.25241(17)
O8A O 0.6257(2) 0.3188(4) 0.33534(16)
O9A O 0.6642(2) 0.3279(4) 0.46569(17)
O10B O 0.5663(3) -0.2098(4) -0.00539(17)
O10A O 0.5663(3) 0.2098(4) 0.49461(17)
O11A O 0.6107(2) 0.6786(4) 0.34197(17)
O12_2 O 0.5133(2) -0.2003(4) 0.19018(17)
O12A O 0.4867(2) -0.2003(4) 0.30982(17)
O12A_2 O 0.4867(2) 0.7997(4) 0.30982(17)
O13A O 0.5304(3) 0.0948(4) 0.35169(16)
O14A O 0.6506(3) -0.0866(4) 0.28756(19)
O15B O 0.3866(3) -0.0639(5) -0.0873(2)
O16B O 0.5832(3) 0.0959(5) -0.0534(2)
O17B O -0.1380(3) 0.0999(5) -0.0343(3)
O18B O 0.0095(5) 0.0530(8) -0.0929(3)
H10A H 0.654(6) -0.157(6) 0.310(3)
H11A H 0.686(5) -0.027(6) 0.308(3)
H12B H 0.612(5) 0.172(6) -0.046(4)
H13B H 0.604(8) 0.050(10) -0.077(5)
H14B H -0.179(3) 0.045(6) -0.033(3)
H15B H -0.162(5) 0.176(5) -0.049(4)
O19 O 0.2923(4) 0.9175(7) 0.3148(3)
O20 O 0.2399(4) 0.0823(7) 0.9906(4)
O21 O 0.1976(11) 0.7404(16) 0.3804(7)
O22 O 0.2029(4) 0.0775(7) 0.1550(3)
O23 O 0.8703(11) 0.043(2) 0.1442(8)
O24 O 0.8865(18) 0.037(4) 0.2557(10)
loop_
_geom_bond_atom_site_label_1
_geom_bond_atom_site_label_2
_geom_bond_site_symmetry_1
_geom_bond_site_symmetry_2
Tb1 N1 1_555 1_555
Ca1 O7 1_555 1_555
Ca2 O10 1_555 1_555
Ca3 O4 1_555 1_555
N1 C2 1_555 1_555
C1 C2 1_555 1_555
C2 C3 1_555 1_555
C3 H1 1_555 1_555
C4 C3 1_555 1_555
H2 C4 1_555 1_555
C5 C4 1_555 1_555
H3 C5 1_555 1_555
C6 N1 1_555 1_555
C7 C6 1_555 1_555
N2 Tb1 1_555 1_555
C8 C9 1_555 1_555
C9 N2 1_555 1_555
C10 C9 1_555 1_555
H4 C10 1_555 1_555
C11 C10 1_555 1_555
H5 C11 1_555 1_555
C12 C11 1_555 1_555
H6 C12 1_555 1_555
C13 N2 1_555 1_555
C14 C13 1_555 1_555
N3 Tb1 1_555 1_555
C15 C16 1_555 1_555
C16 N3 1_555 1_555
C17 C16 1_555 1_555
H7 C17 1_555 1_555
C18 C17 1_555 1_555
H8 C18 1_555 1_555
C19 C18 1_555 1_555
H9 C19 1_555 1_555
C20 N3 1_555 1_555
C21 C20 1_555 1_555
O1 Tb1 1_555 1_555
O2 C1 1_555 1_555
O3 Tb1 1_555 1_555
O4 C7 1_555 1_555
O5 Tb1 1_555 1_555
O6 C8 1_555 1_555
O7 C14 1_555 1_555
O8 Tb1 1_555 1_555
O9 Tb1 1_555 1_555
O10 C15 1_555 1_555
O11 Tb1 1_555 1_555
O12 C21 1_555 1_555
O13 Ca1 1_555 1_555
O14 Ca1 1_555 1_555
O15 Ca2 1_555 1_555
O16 Ca2 1_555 1_555
O17 Ca3 1_555 1_555
O18 Ca3 1_555 1_555
H10 O14 1_555 1_555
H11 O14 1_555 1_555
H12 O16 1_555 1_555
H13 O16 1_555 1_555
H14 O17 1_555 1_555
H15 O17 1_555 1_555
Tb1A N1A 1_555 1_555
Ca1_2 O12 1_555 1_555
Ca2C O10A 1_555 1_555
Ca3C O4A 1_555 1_555
N1A C2A 1_555 1_555
C1A C2A 1_555 1_555
C2A C3A 1_555 1_555
C3A H1A 1_555 1_555
C4A C3A 1_555 1_555
H2A C4A 1_555 1_555
C5A C4A 1_555 1_555
H3A C5A 1_555 1_555
C6A N1A 1_555 1_555
C7A C6A 1_555 1_555
N2A Tb1A 1_555 1_555
C8A C9A 1_555 1_555
C9A N2A 1_555 1_555
C10A C9A 1_555 1_555
H4A C10A 1_555 1_555
C11A C10A 1_555 1_555
H5A C11A 1_555 1_555
C12A C11A 1_555 1_555
H6A C12A 1_555 1_555
C13A N2A 1_555 1_555
C14A C13A 1_555 1_555
N3A Tb1A 1_555 1_555
C15A C16A 1_555 1_555
C16A N3A 1_555 1_555
C17A C16A 1_555 1_555
H7A C17A 1_555 1_555
C18A C17A 1_555 1_555
H8A C18A 1_555 1_555
C19A C18A 1_555 1_555
H9A C19A 1_555 1_555
C20A N3A 1_555 1_555
C21A C20A 1_555 1_555
O1A Tb1A 1_555 1_555
O2A C1A 1_555 1_555
O3A Tb1A 1_555 1_555
O4B Ca3 1_555 1_555
O4A C7A 1_555 1_555
O5A Tb1A 1_555 1_555
O6A C8A 1_555 1_555
O7A Ca1 1_555 1_555
O8A Tb1A 1_555 1_555
O9A Tb1A 1_555 1_555
O10B Ca2 1_555 1_555
O10A C15A 1_555 1_555
O11A Tb1A 1_555 1_555
O12_2 Ca1 1_555 1_555
O12A Ca1 1_555 1_555
O12A_2 Ca1_2 1_555 1_555
O13A Ca1 1_555 1_555
O14A Ca1 1_555 1_555
O15B Ca2 1_555 1_555
O16B Ca2 1_555 1_555
O17B Ca3 1_555 1_555
O18B Ca3 1_555 1_555
H10A O14A 1_555 1_555
H11A O14A 1_555 1_555
H12B O16B 1_555 1_555
H13B O16B 1_555 1_555
H14B O17B 1_555 1_555
H15B O17B 1_555 1_555
C1 O1 1_555 1_555
C5 C6 1_555 1_555
C7 O3 1_555 1_555
C8 O5 1_555 1_555
C12 C13 1_555 1_555
C14 O8 1_555 1_555
C15 O9 1_555 1_555
C19 C20 1_555 1_555
C21 O11 1_555 1_555
C1A O1A 1_555 1_555
C5A C6A 1_555 1_555
C7A O3A 1_555 1_555
C8A O5A 1_555 1_555
C12A C13A 1_555 1_555
C14A O7A 1_555 1_555
C14A O8A 1_555 1_555
C15A O9A 1_555 1_555
C19A C20A 1_555 1_555
C21A O11A 1_555 1_555
C21A O12A_2 1_555 1_555

#END
