
#######################################################################
#
#                 Cambridge Crystallographic Data Centre
#                                CCDC 
#
#######################################################################
#
# If this CIF has been generated from an entry in the Cambridge 
# Structural Database, then it will include bibliographic, chemical, 
# crystal, experimental, refinement or atomic coordinate data resulting 
# from the CCDC's data processing and validation procedures.
#
#######################################################################

data_QALTIJ
_chemical_formula_moiety         '(C90 H62 Cd3 N10 O12)n'
_symmetry_cell_setting           triclinic
_symmetry_space_group_name_H-M   'P -1'
_symmetry_Int_Tables_number      2
_space_group_name_Hall           '-P 1'
loop_
_symmetry_equiv_pos_site_id
_symmetry_equiv_pos_as_xyz
1 x,y,z
2 -x,-y,-z
_cell_length_a                   9.8926(16)
_cell_length_b                   13.378(2)
_cell_length_c                   19.747(3)
_cell_angle_alpha                97.526(3)
_cell_angle_beta                 100.724(3)
_cell_angle_gamma                97.005(3)
_cell_volume                     2516.73
loop_
_atom_site_label
_atom_site_type_symbol
_atom_site_fract_x
_atom_site_fract_y
_atom_site_fract_z
C1 C 0.9658(5) 0.1985(3) 0.1278(2)
C2 C 0.9783(5) 0.2885(3) 0.0909(2)
C3 C 1.0576(6) 0.2929(3) 0.0412(3)
H1 H 1.1063 0.2395 0.0311
C4 C 1.0668(6) 0.3751(3) 0.0059(3)
H2 H 1.1223 0.3764 -0.0272
C5 C 0.9945(5) 0.4560(3) 0.0190(2)
C6 C 0.9151(8) 0.4504(4) 0.0687(4)
H3 H 0.8645 0.5029 0.0782
C7 C 0.9078(8) 0.3689(4) 0.1051(3)
H4 H 0.8549 0.3684 0.1394
C8 C 0.7778(5) -0.1443(3) 0.0726(3)
C9 C 0.6852(5) -0.2466(3) 0.0505(3)
C10 C 0.6753(6) -0.3124(3) 0.0991(3)
H5 H 0.7190 -0.2906 0.1455
C11 C 0.6013(5) -0.4099(3) 0.0792(3)
H6 H 0.5943 -0.4515 0.1129
C12 C 0.5380(4) -0.4469(3) 0.0109(2)
C13 C 0.5427(5) -0.3786(3) -0.0364(3)
H7 H 0.4955 -0.3995 -0.0824
C14 C 0.6153(5) -0.2807(3) -0.0172(3)
H8 H 0.6168 -0.2375 -0.0504
C15 C 1.1116(6) 0.0167(4) 0.2987(3)
C16 C 1.2253(7) 0.0092(6) 0.3587(3)
C17 C 1.2001(14) -0.0057(10) 0.4231(6)
H9 H 1.1097 -0.0088 0.4306
C18 C 1.3059(15) -0.0162(12) 0.4770(7)
H10 H 1.2848 -0.0369 0.5175
C19 C 1.4440(7) 0.0041(7) 0.4707(3)
C20 C 1.4579(9) -0.0101(8) 0.4046(4)
H11 H 1.5431 -0.0238 0.3953
C21 C 1.3507(8) -0.0053(7) 0.3481(4)
H12 H 1.3675 -0.0123 0.3030
C22 C 0.7333(5) 0.1146(4) -0.0258(3)
H13 H 0.6986 0.0865 0.0093
C23 C 0.8588(5) 0.1434(3) -0.1018(3)
H14 H 0.9253 0.1398 -0.1294
C24 C 0.6834(5) 0.1894(4) -0.0581(3)
H15 H 0.6091 0.2220 -0.0496
C25 C 0.7552(5) 0.2834(4) -0.1509(3)
C26 C 0.7778(7) 0.2651(4) -0.2169(3)
H16 H 0.7972 0.2015 -0.2340
C27 C 0.7723(7) 0.3394(5) -0.2584(3)
H17 H 0.7846 0.3248 -0.3041
C28 C 0.7487(6) 0.4354(4) -0.2336(3)
C29 C 0.7258(6) 0.4543(4) -0.1663(3)
H18 H 0.7084 0.5186 -0.1491
C30 C 0.72817(3) 0.37875(2) -0.123915(16)
H19 H 0.7122 0.3916 -0.0789
C31 C 0.67997(3) 0.59854(2) -0.260254(16)
C32 C 0.75187(3) 0.69667(2) -0.251086(16)
H20 H 0.8440 0.7074 -0.2560
C33 C 0.68378(3) 0.77877(2) -0.234340(16)
H21 H 0.7310 0.8450 -0.2272
C34 C 0.54723(3) 0.76229(2) -0.228393(16)
C35 C 0.47680(3) 0.66547(2) -0.237564(16)
H22 H 0.3850 0.6545 -0.2321
C36 C 0.54482(3) 0.58315(2) -0.255220(16)
H23 H 0.4966 0.5171 -0.2636
C37 C 0.34317(3) 0.85279(2) -0.228769(16)
H24 H 0.2784 0.7999 -0.2563
C38 C 0.53661(3) 0.94157(2) -0.183098(16)
H25 H 0.6317 0.9647 -0.1697
C39 C 0.43341(3) 0.99847(2) -0.177398(16)
H26 H 0.4466 1.0672 -0.1585
C40 C 0.85445(3) 0.52477(2) -0.316294(16)
C41 C 0.80460(3) 0.55458(2) -0.382485(16)
H27 H 0.7125 0.5631 -0.3976
C42 C 0.90736(3) 0.57000(2) -0.422822(16)
H28 H 0.8839 0.5941 -0.4649
C43 C 1.03016(3) 0.55211(2) -0.403472(16)
H29 H 1.0882 0.5578 -0.4352
C44 C 1.08992(3) 0.52401(2) -0.338135(16)
H30 H 1.1829 0.5159 -0.3258
C45 C 0.98999(3) 0.50936(2) -0.292559(16)
H31 H 1.0169 0.4903 -0.2490
N1 N 0.84479(3) 0.08648(2) -0.053442(16)
N2 N 0.76401(3) 0.20775(2) -0.106083(16)
N3 N 0.75038(3) 0.51424(2) -0.275042(16)
O1 O 1.00114(3) 0.11476(2) 0.103577(16)
O2 O 0.92048(3) 0.20716(2) 0.182554(16)
O3 O 0.82484(3) -0.11787(2) 0.136726(16)
O4 O 0.80259(3) -0.09491(2) 0.025915(16)
O5 O 1.12459(3) -0.00617(2) 0.239100(16)
O6 O 0.99462(3) 0.03608(2) 0.312706(16)
Cd1 Cd 0.90769(3) 0.03665(2) 0.193909(16)
Cd2 Cd 1.00000(3) 0.00000(2) 0.000000(16)
N4 N 0.47873(3) 0.84884(2) -0.210743(16)
N5 N 0.31220(3) 0.94143(2) -0.202615(16)
C1A C 1.0342(5) 0.8015(3) -0.1278(2)
C2A C 1.0217(5) 0.7115(3) -0.0909(2)
C3A C 0.9424(6) 0.7071(3) -0.0412(3)
H1A H 0.8937 0.7605 -0.0311
C4A C 0.9332(6) 0.6249(3) -0.0059(3)
H2A H 0.8777 0.6236 0.0272
C5A C 1.0055(5) 0.5440(3) -0.0190(2)
C6A C 1.0849(8) 0.5496(4) -0.0687(4)
H3A H 1.1355 0.4971 -0.0782
C7A C 1.0922(8) 0.6311(4) -0.1051(3)
H4A H 1.1451 0.6316 -0.1394
O1A O 0.99886(3) 0.88524(2) -0.103577(16)
O2A O 1.07952(3) 0.79284(2) -0.182554(16)
C8A C 0.2222(5) -0.8557(3) -0.0726(3)
C9A C 0.3148(5) -0.7534(3) -0.0505(3)
C10A C 0.3247(6) -0.6876(3) -0.0991(3)
H5A H 0.2810 -0.7094 -0.1455
C11A C 0.3987(5) -0.5901(3) -0.0792(3)
H6A H 0.4057 -0.5485 -0.1129
C12A C 0.4620(4) -0.5531(3) -0.0109(2)
C13A C 0.4573(5) -0.6214(3) 0.0364(3)
H7A H 0.5045 -0.6005 0.0824
C14A C 0.3847(5) -0.7193(3) 0.0172(3)
H8A H 0.3832 -0.7625 0.0504
O3A O 0.17516(3) -0.88213(2) -0.136726(16)
O4A O 0.19741(3) -0.90509(2) -0.025915(16)
C15A C 1.8884(6) -0.0167(4) 0.7013(3)
C16A C 1.7747(7) -0.0092(6) 0.6413(3)
C17A C 1.7999(14) 0.0057(10) 0.5769(6)
H9A H 1.8903 0.0088 0.5694
C18A C 1.6941(15) 0.0162(12) 0.5230(7)
H10A H 1.7152 0.0369 0.4825
C19A C 1.5560(7) -0.0041(7) 0.5293(3)
C20A C 1.5421(9) 0.0101(8) 0.5954(4)
H11A H 1.4569 0.0238 0.6047
C21A C 1.6493(8) 0.0053(7) 0.6519(4)
H12A H 1.6325 0.0123 0.6970
O5A O 1.87541(3) 0.00617(2) 0.760900(16)
O6A O 2.00538(3) -0.03608(2) 0.687294(16)
Cd1A Cd 0.09231(3) -1.03665(2) -0.193909(16)
C22A C 0.2667(5) 0.8854(4) 0.0258(3)
H13A H 0.3014 0.9135 -0.0093
C23A C 0.1412(5) 0.8566(3) 0.1018(3)
H14A H 0.0747 0.8602 0.1294
C24A C 0.3166(5) 0.8106(4) 0.0581(3)
H15A H 0.3909 0.7780 0.0496
C25A C 0.2448(5) 0.7166(4) 0.1509(3)
C26A C 0.2222(7) 0.7349(4) 0.2169(3)
H16A H 0.2028 0.7985 0.2340
C27A C 0.2277(7) 0.6606(5) 0.2584(3)
H17A H 0.2154 0.6752 0.3041
C28A C 0.2513(6) 0.5646(4) 0.2336(3)
C29A C 0.2742(6) 0.5457(4) 0.1663(3)
H18A H 0.2916 0.4814 0.1491
C30A C 0.27183(3) 0.62125(2) 0.123915(16)
H19A H 0.2878 0.6084 0.0789
C31A C 0.32003(3) 0.40146(2) 0.260254(16)
C32A C 0.24813(3) 0.30333(2) 0.251086(16)
H20A H 0.1560 0.2926 0.2560
C33A C 0.31622(3) 0.22123(2) 0.234340(16)
H21A H 0.2690 0.1550 0.2272
C34A C 0.45277(3) 0.23771(2) 0.228393(16)
C35A C 0.52320(3) 0.33453(2) 0.237564(16)
H22A H 0.6150 0.3455 0.2321
C36A C 0.45518(3) 0.41685(2) 0.255220(16)
H23A H 0.5034 0.4829 0.2636
C37A C 0.65683(3) 0.14721(2) 0.228769(16)
H24A H 0.7216 0.2001 0.2563
C38A C 0.46339(3) 0.05843(2) 0.183098(16)
H25A H 0.3683 0.0353 0.1697
C39A C 0.56659(3) 0.00153(2) 0.177398(16)
H26A H 0.5534 -0.0672 0.1585
C40A C 0.14555(3) 0.47523(2) 0.316294(16)
C41A C 0.19540(3) 0.44542(2) 0.382485(16)
H27A H 0.2875 0.4369 0.3976
C42A C 0.09264(3) 0.43000(2) 0.422822(16)
H28A H 0.1161 0.4059 0.4649
C43A C -0.03016(3) 0.44789(2) 0.403472(16)
H29A H -0.0882 0.4422 0.4352
C44A C -0.08992(3) 0.47599(2) 0.338135(16)
H30A H -0.1829 0.4841 0.3258
C45A C 0.01001(3) 0.49064(2) 0.292559(16)
H31A H -0.0169 0.5097 0.2490
N1A N 0.15521(3) 0.91352(2) 0.053442(16)
N2A N 0.23599(3) 0.79225(2) 0.106083(16)
N3A N 0.24962(3) 0.48576(2) 0.275042(16)
N4A N 0.52127(3) 0.15116(2) 0.210743(16)
N5A N 0.68780(3) 0.05857(2) 0.202615(16)
N1A_2 N 1.15521(3) -0.08648(2) 0.053442(16)
O1A_2 O -0.00114(3) -1.11476(2) -0.103577(16)
O1A_3 O 0.99886(3) -0.11476(2) -0.103577(16)
O2A_2 O 0.07952(3) -1.20716(2) -0.182554(16)
O4A_2 O 1.19741(3) 0.09491(2) -0.025915(16)
O5A_2 O -0.12459(3) -0.99383(2) -0.239100(16)
O6A_2 O 0.00538(3) -1.03608(2) -0.312706(16)
Cd1A_2 Cd 0.09231(3) 0.96335(2) -0.193909(16)
Cd1A_3 Cd 1.09231(3) 0.96335(2) -0.193909(16)
Cd1A_4 Cd 2.09231(3) -0.03665(2) 0.806091(16)
Cd2_2 Cd 0.00000(3) -1.00000(2) 0.000000(16)
Cd2_3 Cd 0.00000(3) 1.00000(2) 0.000000(16)
Cd2_4 Cd 1.00000(3) 1.00000(2) 0.000000(16)
N5_2 N 0.31220(3) -1.05857(2) -0.202615(16)
loop_
_geom_bond_atom_site_label_1
_geom_bond_atom_site_label_2
_geom_bond_site_symmetry_1
_geom_bond_site_symmetry_2
C1 C2 1_555 1_555
C2 C3 1_555 1_555
C3 H1 1_555 1_555
C4 C3 1_555 1_555
H2 C4 1_555 1_555
C5 C4 1_555 1_555
C6 C5 1_555 1_555
H3 C6 1_555 1_555
C7 C2 1_555 1_555
H4 C7 1_555 1_555
C8 C9 1_555 1_555
C9 C10 1_555 1_555
C10 H5 1_555 1_555
C11 C10 1_555 1_555
H6 C11 1_555 1_555
C12 C11 1_555 1_555
C13 C12 1_555 1_555
H7 C13 1_555 1_555
C14 C9 1_555 1_555
H8 C14 1_555 1_555
C15 C16 1_555 1_555
C16 C17 1_555 1_555
C17 H9 1_555 1_555
C18 C17 1_555 1_555
H10 C18 1_555 1_555
C19 C18 1_555 1_555
C20 C19 1_555 1_555
H11 C20 1_555 1_555
C21 C16 1_555 1_555
H12 C21 1_555 1_555
C22 H13 1_555 1_555
C23 H14 1_555 1_555
C24 C22 1_555 1_555
H15 C24 1_555 1_555
C25 C26 1_555 1_555
C26 H16 1_555 1_555
C27 C26 1_555 1_555
H17 C27 1_555 1_555
C28 C27 1_555 1_555
C29 C28 1_555 1_555
H18 C29 1_555 1_555
C30 C25 1_555 1_555
H19 C30 1_555 1_555
C31 C32 1_555 1_555
C32 H20 1_555 1_555
C33 C32 1_555 1_555
H21 C33 1_555 1_555
C34 C33 1_555 1_555
C35 C34 1_555 1_555
H22 C35 1_555 1_555
C36 C31 1_555 1_555
H23 C36 1_555 1_555
C37 H24 1_555 1_555
C38 H25 1_555 1_555
C39 C38 1_555 1_555
H26 C39 1_555 1_555
C40 C41 1_555 1_555
C41 H27 1_555 1_555
C42 C41 1_555 1_555
H28 C42 1_555 1_555
C43 C42 1_555 1_555
H29 C43 1_555 1_555
C44 C43 1_555 1_555
H30 C44 1_555 1_555
C45 C40 1_555 1_555
H31 C45 1_555 1_555
N1 C22 1_555 1_555
N2 C23 1_555 1_555
N3 C28 1_555 1_555
O1 C1 1_555 1_555
O2 C1 1_555 1_555
O3 C8 1_555 1_555
O4 C8 1_555 1_555
O5 C15 1_555 1_555
O6 C15 1_555 1_555
Cd1 O1 1_555 1_555
Cd2 N1 1_555 1_555
N4 C34 1_555 1_555
N5 C37 1_555 1_555
C1A C2A 1_555 1_555
C2A C3A 1_555 1_555
C3A H1A 1_555 1_555
C4A C3A 1_555 1_555
H2A C4A 1_555 1_555
C5A C5 1_555 1_555
C6A C5A 1_555 1_555
H3A C6A 1_555 1_555
C7A C2A 1_555 1_555
H4A C7A 1_555 1_555
O1A C1A 1_555 1_555
O2A C1A 1_555 1_555
C8A C9A 1_555 1_555
C9A C10A 1_555 1_555
C10A H5A 1_555 1_555
C11A C10A 1_555 1_555
H6A C11A 1_555 1_555
C12A C12 1_555 1_555
C13A C12A 1_555 1_555
H7A C13A 1_555 1_555
C14A C9A 1_555 1_555
H8A C14A 1_555 1_555
O3A C8A 1_555 1_555
O4A C8A 1_555 1_555
C15A C16A 1_555 1_555
C16A C17A 1_555 1_555
C17A H9A 1_555 1_555
C18A C17A 1_555 1_555
H10A C18A 1_555 1_555
C19A C19 1_555 1_555
C20A C19A 1_555 1_555
H11A C20A 1_555 1_555
C21A C16A 1_555 1_555
H12A C21A 1_555 1_555
O5A C15A 1_555 1_555
O6A C15A 1_555 1_555
Cd1A O3A 1_555 1_555
C22A H13A 1_555 1_555
C23A H14A 1_555 1_555
C24A C22A 1_555 1_555
H15A C24A 1_555 1_555
C25A C26A 1_555 1_555
C26A H16A 1_555 1_555
C27A C26A 1_555 1_555
H17A C27A 1_555 1_555
C28A C27A 1_555 1_555
C29A C28A 1_555 1_555
H18A C29A 1_555 1_555
C30A C25A 1_555 1_555
H19A C30A 1_555 1_555
C31A C32A 1_555 1_555
C32A H20A 1_555 1_555
C33A C32A 1_555 1_555
H21A C33A 1_555 1_555
C34A C33A 1_555 1_555
C35A C34A 1_555 1_555
H22A C35A 1_555 1_555
C36A C31A 1_555 1_555
H23A C36A 1_555 1_555
C37A H24A 1_555 1_555
C38A H25A 1_555 1_555
C39A C38A 1_555 1_555
H26A C39A 1_555 1_555
C40A C41A 1_555 1_555
C41A H27A 1_555 1_555
C42A C41A 1_555 1_555
H28A C42A 1_555 1_555
C43A C42A 1_555 1_555
H29A C43A 1_555 1_555
C44A C43A 1_555 1_555
H30A C44A 1_555 1_555
C45A C40A 1_555 1_555
H31A C45A 1_555 1_555
N1A C22A 1_555 1_555
N2A C23A 1_555 1_555
N3A C28A 1_555 1_555
N4A C34A 1_555 1_555
N5A Cd1 1_555 1_555
N1A_2 Cd2 1_555 1_555
O1A_2 Cd1A 1_555 1_555
O1A_3 Cd2 1_555 1_555
O2A_2 Cd1A 1_555 1_555
O4A_2 Cd2 1_555 1_555
O5A_2 Cd1A 1_555 1_555
O6A_2 Cd1A 1_555 1_555
Cd1A_2 N5 1_555 1_555
Cd1A_3 O1A 1_555 1_555
Cd1A_4 O5A 1_555 1_555
Cd2_2 O4A 1_555 1_555
Cd2_3 N1A 1_555 1_555
Cd2_4 O1A 1_555 1_555
N5_2 Cd1A 1_555 1_555
C6 C7 1_555 1_555
C13 C14 1_555 1_555
C20 C21 1_555 1_555
C23 N1 1_555 1_555
C24 N2 1_555 1_555
C25 N2 1_555 1_555
C29 C30 1_555 1_555
C31 N3 1_555 1_555
C35 C36 1_555 1_555
C37 N4 1_555 1_555
C38 N4 1_555 1_555
C39 N5 1_555 1_555
C40 N3 1_555 1_555
C44 C45 1_555 1_555
O1 Cd2 1_555 1_555
O2 Cd1 1_555 1_555
O3 Cd1 1_555 1_555
O4 Cd2 1_555 1_555
O5 Cd1 1_555 1_555
O6 Cd1 1_555 1_555
C4A C5A 1_555 1_555
C6A C7A 1_555 1_555
O2A Cd1A_3 1_555 1_555
C11A C12A 1_555 1_555
C13A C14A 1_555 1_555
C18A C19A 1_555 1_555
C20A C21A 1_555 1_555
O6A Cd1A_4 1_555 1_555
C23A N1A 1_555 1_555
C24A N2A 1_555 1_555
C25A N2A 1_555 1_555
C29A C30A 1_555 1_555
C31A N3A 1_555 1_555
C35A C36A 1_555 1_555
C37A N4A 1_555 1_555
C37A N5A 1_555 1_555
C38A N4A 1_555 1_555
C39A N5A 1_555 1_555
C40A N3A 1_555 1_555
C44A C45A 1_555 1_555
O1A_2 Cd2_2 1_555 1_555

#END
