
#######################################################################
#
#                 Cambridge Crystallographic Data Centre
#                                CCDC 
#
#######################################################################
#
# If this CIF has been generated from an entry in the Cambridge 
# Structural Database, then it will include bibliographic, chemical, 
# crystal, experimental, refinement or atomic coordinate data resulting 
# from the CCDC's data processing and validation procedures.
#
#######################################################################

data_OTOLIU
_chemical_formula_moiety         '(C24 H10 O20 Ti2 4-)n'
_symmetry_cell_setting           cubic
_symmetry_space_group_name_H-M   'I -4 3 d'
_symmetry_Int_Tables_number      220
_space_group_name_Hall           'I -4bd 2c 3'
loop_
_symmetry_equiv_pos_site_id
_symmetry_equiv_pos_as_xyz
1 x,y,z
2 -x,1/2-y,z
3 -x,1/2+y,1/2-z
4 1/4-x,3/4-z,3/4+y
5 1/4-x,1/4+z,3/4-y
6 1/2-x,-y,1/2+z
7 1/2-x,y,-z
8 3/4-x,1/4-z,1/4+y
9 3/4-x,3/4+z,1/4-y
10 -y,1/2-z,x
11 -y,1/2+z,1/2-x
12 1/4-y,3/4-x,3/4+z
13 1/4-y,1/4+x,3/4-z
14 1/2-y,-z,1/2+x
15 1/2-y,z,-x
16 3/4-y,1/4-x,1/4+z
17 3/4-y,3/4+x,1/4-z
18 -z,1/2-x,y
19 -z,1/2+x,1/2-y
20 1/4-z,3/4-y,3/4+x
21 1/4-z,1/4+y,3/4-x
22 1/2-z,-x,1/2+y
23 1/2-z,x,-y
24 3/4-z,1/4-y,1/4+x
25 3/4-z,3/4+y,1/4-x
26 z,-x,1/2-y
27 z,x,y
28 1/4+z,3/4-y,1/4-x
29 1/4+z,1/4+y,1/4+x
30 1/2+z,1/2-x,-y
31 1/2+z,1/2+x,1/2+y
32 3/4+z,1/4-y,3/4-x
33 3/4+z,3/4+y,3/4+x
34 y,-z,1/2-x
35 y,z,x
36 1/4+y,3/4-x,1/4-z
37 1/4+y,1/4+x,1/4+z
38 1/2+y,1/2-z,-x
39 1/2+y,1/2+z,1/2+x
40 3/4+y,1/4-x,3/4-z
41 3/4+y,3/4+x,3/4+z
42 x,-y,1/2-z
43 1/4+x,3/4-z,1/4-y
44 1/4+x,1/4+z,1/4+y
45 1/2+x,1/2-y,-z
46 1/2+x,1/2+y,1/2+z
47 3/4+x,1/4-z,3/4-y
48 3/4+x,3/4+z,3/4+y
_cell_length_a                   22.91180(37)
_cell_length_b                   22.91180(37)
_cell_length_c                   22.91180(37)
_cell_angle_alpha                90
_cell_angle_beta                 90
_cell_angle_gamma                90
_cell_volume                     12027.6
loop_
_atom_site_label
_atom_site_type_symbol
_atom_site_fract_x
_atom_site_fract_y
_atom_site_fract_z
O4 O 0.7341(12) 0.8973(10) 0.3178(11)
O5 O 0.4254(10) 0.7764(12) 0.3318(11)
Ti1 Ti 0.60095(24) -0.10095(24) 0.10095(24)
O1 O 0.567088 -0.068511 0.391699
O2 O 0.586385 0.020905 0.406000
O3 O 0.576799 0.090288 0.323676
C1 C 0.576799 -0.009575 0.309023
C2 C 0.576799 0.046328 0.287804
C3 C 0.576799 0.055903 0.228781
C4 C 0.576799 -0.019859 0.372413
H1 H 0.576799 0.095892 0.213602
O1OA O 0.567088 0.068511 0.108301
O2OA O 0.586385 -0.020905 0.094000
O3OA O 0.576799 -0.090288 0.176324
C1OA C 0.576799 0.009575 0.190977
C2OA C 0.576799 -0.046328 0.212196
C3OA C 0.576799 -0.055903 0.271219
C4OA C 0.576799 0.019859 0.127587
H1OA H 0.576799 -0.095892 0.286398
O1M O 0.568511 -0.391699 0.067088
O2M O 0.479095 -0.406000 0.086385
O3M O 0.409712 -0.323676 0.076799
C1M C 0.509575 -0.309023 0.076799
C2M C 0.453672 -0.287804 0.076799
C3M C 0.444097 -0.228781 0.076799
C4M C 0.519859 -0.372413 0.076799
H1M H 0.404108 -0.213602 0.076799
O1LA O 0.431489 -0.108301 0.067088
O2LA O 0.520905 -0.094000 0.086385
O3LA O 0.590288 -0.176324 0.076799
C1LA C 0.490425 -0.190977 0.076799
C2LA C 0.546328 -0.212196 0.076799
C3LA C 0.555903 -0.271219 0.076799
C4LA C 0.480141 -0.127587 0.076799
H1LA H 0.595892 -0.286398 0.076799
O1CA O 0.891699 -0.067088 0.068511
O2CA O 0.906000 -0.086385 -0.020905
O3CA O 0.823676 -0.076799 -0.090288
C1CA C 0.809023 -0.076799 0.009575
C2CA C 0.787804 -0.076799 -0.046328
C3CA C 0.728781 -0.076799 -0.055903
C4CA C 0.872413 -0.076799 0.019859
H1CA H 0.713602 -0.076799 -0.095892
O1Q O 0.608301 -0.067088 -0.068511
O2Q O 0.594000 -0.086385 0.020905
O3Q O 0.676324 -0.076799 0.090288
C1Q C 0.690977 -0.076799 -0.009575
C2Q C 0.712196 -0.076799 0.046328
C3Q C 0.771219 -0.076799 0.055903
C4Q C 0.627587 -0.076799 -0.019859
H1Q H 0.786398 -0.076799 0.095892
Ti1N Ti 0.60095(24) 0.10095(24) 0.39905(24)
Ti1A Ti 0.39905(24) -0.39905(24) 0.10095(24)
Ti1F Ti 0.89905(24) -0.10095(24) -0.10095(24)
O2R O 0.594000 0.086385 0.479095
O2KA O 0.520905 0.094000 0.413615
O3R O 0.676324 0.076799 0.409712
O3KA O 0.590288 0.176324 0.423201
loop_
_geom_bond_atom_site_label_1
_geom_bond_atom_site_label_2
_geom_bond_site_symmetry_1
_geom_bond_site_symmetry_2
Ti1 O2OA 1_555 1_555
O1 C4 1_555 1_555
O2 C4 1_555 1_555
O3 C2 1_555 1_555
C1 C2 1_555 1_555
C2 C3 1_555 1_555
C3 H1 1_555 1_555
C4 C1 1_555 1_555
O1OA C4OA 1_555 1_555
O2OA C4OA 1_555 1_555
O3OA Ti1 1_555 1_555
C1OA C3 1_555 1_555
C2OA O3OA 1_555 1_555
C3OA C1 1_555 1_555
C4OA C1OA 1_555 1_555
H1OA C3OA 1_555 1_555
O1M C4M 1_555 1_555
O2M C4M 1_555 1_555
O3M C2M 1_555 1_555
C1M C2M 1_555 1_555
C2M C3M 1_555 1_555
C3M H1M 1_555 1_555
C4M C1M 1_555 1_555
O1LA C4LA 1_555 1_555
O2LA Ti1 1_555 1_555
O3LA Ti1 1_555 1_555
C1LA C3M 1_555 1_555
C2LA O3LA 1_555 1_555
C3LA C1M 1_555 1_555
C4LA O2LA 1_555 1_555
H1LA C3LA 1_555 1_555
O1CA C4CA 1_555 1_555
O2CA C4CA 1_555 1_555
O3CA C2CA 1_555 1_555
C1CA C2CA 1_555 1_555
C2CA C3CA 1_555 1_555
C3CA H1CA 1_555 1_555
C4CA C1CA 1_555 1_555
O1Q C4Q 1_555 1_555
O2Q Ti1 1_555 1_555
O3Q Ti1 1_555 1_555
C1Q C3CA 1_555 1_555
C2Q O3Q 1_555 1_555
C3Q C1CA 1_555 1_555
C4Q O2Q 1_555 1_555
H1Q C3Q 1_555 1_555
Ti1N O2 1_555 1_555
Ti1A O2M 1_555 1_555
Ti1F O2CA 1_555 1_555
O2R Ti1N 1_555 1_555
O2KA Ti1N 1_555 1_555
O3R Ti1N 1_555 1_555
O3KA Ti1N 1_555 1_555
O3 Ti1N 1_555 1_555
C1OA C2OA 1_555 1_555
C2OA C3OA 1_555 1_555
O3M Ti1A 1_555 1_555
C1LA C2LA 1_555 1_555
C1LA C4LA 1_555 1_555
C2LA C3LA 1_555 1_555
O3CA Ti1F 1_555 1_555
C1Q C2Q 1_555 1_555
C1Q C4Q 1_555 1_555
C2Q C3Q 1_555 1_555

#END
