
#######################################################################
#
#                 Cambridge Crystallographic Data Centre
#                                CCDC 
#
#######################################################################
#
# If this CIF has been generated from an entry in the Cambridge 
# Structural Database, then it will include bibliographic, chemical, 
# crystal, experimental, refinement or atomic coordinate data resulting 
# from the CCDC's data processing and validation procedures.
#
#######################################################################

data_IJENER
_chemical_formula_moiety         '(C12 H20 Ag2 O8 S4)n'
_symmetry_cell_setting           tetragonal
_symmetry_space_group_name_H-M   'P 42/n'
_symmetry_Int_Tables_number      86
_space_group_name_Hall           '-P 4bc'
loop_
_symmetry_equiv_pos_site_id
_symmetry_equiv_pos_as_xyz
1 x,y,z
2 1/2-x,1/2-y,z
3 -y,1/2+x,1/2+z
4 1/2+y,-x,1/2+z
5 -x,-y,-z
6 1/2+x,1/2+y,-z
7 y,1/2-x,1/2-z
8 1/2-y,x,1/2-z
_cell_length_a                   12.9677(6)
_cell_length_b                   12.9677(6)
_cell_length_c                   13.5450(13)
_cell_angle_alpha                90
_cell_angle_beta                 90
_cell_angle_gamma                90
_cell_volume                     2277.74
loop_
_atom_site_label
_atom_site_type_symbol
_atom_site_fract_x
_atom_site_fract_y
_atom_site_fract_z
_atom_site_U_iso_or_equiv
_atom_site_thermal_displace_type
C1 C 0.8770(5) 0.3776(5) 0.1361(2) 0.0317 Uani
C2 C 0.9426(6) 0.4409(5) 0.0657(2) 0.0333 Uani
C3 C 1.0034(10) 0.5177(11) 0.1023(7) 0.0339 Uani
C4 C 0.9417(9) 0.4188(9) -0.0371(10) 0.0284 Uani
S1 S 1.0114(3) 0.5296(3) 0.2336(3) 0.0425 Uani
S2 S 0.8542(3) 0.3193(3) -0.0735(2) 0.0425 Uani
C5 C 0.9063(11) 0.6197(15) 0.2491(11) 0.0817 Uani
H1 H 0.9242 0.6855 0.2178 0.1220 Uiso
H2 H 0.8937 0.6308 0.3197 0.1220 Uiso
H3 H 0.8439 0.5917 0.2182 0.1220 Uiso
C6 C 0.9388(12) 0.2078(7) -0.0566(11) 0.0627 Uani
H4 H 0.9711 0.2112 0.0088 0.0940 Uiso
H5 H 0.8982 0.1443 -0.0619 0.0940 Uiso
H6 H 0.9924 0.2081 -0.1076 0.0940 Uiso
Ag1 Ag 1.16809(5) 0.66837(5) 0.252596(16) 0.0337 Uani
O3 O 0.9141(4) 0.2947(4) 0.1631(4) 0.0423 Uani
O4 O 0.7904(4) 0.4147(4) 0.1586(4) 0.0417 Uani
C1D C 1.1230(5) 0.6224(5) -0.1361(2) 0.0317 Uani
C2D C 1.0574(6) 0.5591(5) -0.0657(2) 0.0333 Uani
C3D C 0.9966(10) 0.4823(11) -0.1023(7) 0.0339 Uani
C4D C 1.0583(9) 0.5812(9) 0.0371(10) 0.0284 Uani
S1D S 0.9886(3) 0.4704(3) -0.2336(3) 0.0425 Uani
S2D S 1.1458(3) 0.6807(3) 0.0735(2) 0.0425 Uani
C5D C 1.0937(11) 0.3803(15) -0.2491(11) 0.0817 Uani
H1D H 1.0758 0.3145 -0.2178 0.1220 Uiso
H2D H 1.1063 0.3692 -0.3197 0.1220 Uiso
H3D H 1.1561 0.4083 -0.2182 0.1220 Uiso
C6D C 1.0612(12) 0.7922(7) 0.0566(11) 0.0627 Uani
H4D H 1.0289 0.7888 -0.0088 0.0940 Uiso
H5D H 1.1018 0.8557 0.0619 0.0940 Uiso
H6D H 1.0076 0.7919 0.1076 0.0940 Uiso
Ag1D Ag 0.83191(5) 0.33163(5) -0.252596(16) 0.0337 Uani
Ag1G Ag 0.83163(5) 0.16809(5) 0.247404(16) 0.0337 Uani
Ag1F Ag 0.66837(5) 0.33191(5) 0.247404(16) 0.0337 Uani
Ag1C Ag 1.16837(5) 0.83191(5) -0.247404(16) 0.0337 Uani
Ag1B Ag 1.33163(5) 0.66809(5) -0.247404(16) 0.0337 Uani
O3D O 1.0859(4) 0.7053(4) -0.1631(4) 0.0423 Uani
O3F O 1.2947(4) 0.5859(4) 0.3369(4) 0.0423 Uani
O3B O 0.7053(4) 0.4141(4) -0.3369(4) 0.0423 Uani
O4D O 1.2096(4) 0.5853(4) -0.1586(4) 0.0417 Uani
O4G O 1.0853(4) 0.7904(4) 0.3414(4) 0.0417 Uani
O4C O 0.9147(4) 0.2096(4) -0.3414(4) 0.0417 Uani
O1 O 1.297(2) 0.453(2) -0.009(3) 0.2833 Uani
O2 O 1.1140(14) 0.2704(14) 0.225(2) 0.3560 Uani
O5 O 0.7500 0.7500 -0.015(3) 0.2810 Uani
O6 O 1.0000 1.0000 0.0000 0.5400 Uani
loop_
_atom_site_aniso_label
_atom_site_aniso_U_11
_atom_site_aniso_U_22
_atom_site_aniso_U_33
_atom_site_aniso_U_23
_atom_site_aniso_U_13
_atom_site_aniso_U_12
C1 0.035(4) 0.041(4) 0.0191(12) 0.009(3) -0.014(3) -0.0187(13)
C2 0.049(4) 0.030(3) 0.0208(12) 0.002(3) -0.006(3) -0.0200(13)
C3 0.028(6) 0.056(5) 0.0176(13) 0.006(3) -0.011(3) -0.021(3)
C4 0.019 0.044 0.0223 -0.003 -0.002 -0.015
S1 0.0439(13) 0.0632(13) 0.0203(3) -0.0072(8) 0.0012(10) -0.0342(8)
S2 0.0439 0.0632 0.0203 -0.0072 0.0012 -0.0342
C5 0.050(6) 0.124(11) 0.071(5) -0.044(7) 0.011(5) -0.023(5)
C6 0.099 0.029 0.06 -0.008 -0.01 -0.011
Ag1 0.0363(3) 0.0370(3) 0.02779(14) -0.00976(18) -0.01075(17) -0.00260(9)
O3 0.043(3) 0.039(3) 0.045(3) 0.007(2) 0.004(2) -0.018(3)
O4 0.041(3) 0.040(3) 0.044(3) -0.001(2) 0.004(2) -0.002(3)
C1D 0.035 0.041 0.0191 0.009 -0.014 -0.0187
C2D 0.049 0.03 0.0208 0.002 -0.006 -0.02
C3D 0.028 0.056 0.0176 0.006 -0.011 -0.021
C4D 0.019(6) 0.044(6) 0.0223(17) -0.003(4) -0.002(4) -0.015(4)
S1D 0.0439 0.0632 0.0203 -0.0072 0.0012 -0.0342
S2D 0.0439(13) 0.0632(13) 0.0203(3) -0.0072(8) 0.0012(10) -0.0342(8)
C5D 0.05 0.124 0.071 -0.044 0.011 -0.023
C6D 0.099(8) 0.029(4) 0.060(4) -0.008(4) -0.010(6) -0.011(3)
Ag1D 0.0363 0.037 0.02779 -0.00976 -0.01075 -0.0026
Ag1G 0.037 0.0363 0.02779 0.01075 -0.00976 0.0026
Ag1F 0.037 0.0363 0.02779 -0.01075 0.00976 0.0026
Ag1C 0.037 0.0363 0.02779 0.01075 -0.00976 0.0026
Ag1B 0.037 0.0363 0.02779 -0.01075 0.00976 0.0026
O3D 0.043 0.039 0.045 0.007 0.004 -0.018
O3F 0.039 0.043 0.045 0.004 -0.007 0.018
O3B 0.039 0.043 0.045 0.004 -0.007 0.018
O4D 0.041 0.04 0.044 -0.001 0.004 -0.002
O4G 0.04 0.041 0.044 -0.004 -0.001 0.002
O4C 0.04 0.041 0.044 -0.004 -0.001 0.002
O1 0.19(2) 0.27(3) 0.39(4) 0.24(3) -0.08(2) -0.04(2)
O2 0.130(13) 0.098(12) 0.84(6) 0.03(2) -0.28(2) -0.008(10)
O5 0.193(19) 0.34(3) 0.31(3) 0.000 0.000 -0.061(13)
O6 1.02(8) 0.31(3) 0.29(2) 0.12(3) 0.17(4) 0.38(4)
loop_
_geom_bond_atom_site_label_1
_geom_bond_atom_site_label_2
_geom_bond_site_symmetry_1
_geom_bond_site_symmetry_2
C1 C2 1_555 1_555
C2 C3 1_555 1_555
C3 S1 1_555 1_555
C4 C2 1_555 1_555
S1 C5 1_555 1_555
S2 C4 1_555 1_555
C5 H1 1_555 1_555
H2 C5 1_555 1_555
H3 C5 1_555 1_555
C6 S2 1_555 1_555
H4 C6 1_555 1_555
H5 C6 1_555 1_555
H6 C6 1_555 1_555
Ag1 S1 1_555 1_555
O3 C1 1_555 1_555
O4 C1 1_555 1_555
C1D C2D 1_555 1_555
C2D C3D 1_555 1_555
C3D C4 1_555 1_555
C4D C3 1_555 1_555
S1D C3D 1_555 1_555
S2D Ag1 1_555 1_555
C5D S1D 1_555 1_555
H1D C5D 1_555 1_555
H2D C5D 1_555 1_555
H3D C5D 1_555 1_555
C6D S2D 1_555 1_555
H4D C6D 1_555 1_555
H5D C6D 1_555 1_555
H6D C6D 1_555 1_555
Ag1D S2 1_555 1_555
Ag1G O3 1_555 1_555
Ag1F O4 1_555 1_555
Ag1C O3D 1_555 1_555
Ag1B O4D 1_555 1_555
O3D C1D 1_555 1_555
O3F Ag1 1_555 1_555
O3B Ag1D 1_555 1_555
O4D C1D 1_555 1_555
O4G Ag1 1_555 1_555
O4C Ag1D 1_555 1_555
C2D C4D 1_555 1_555
C4D S2D 1_555 1_555
S1D Ag1D 1_555 1_555

#END
