
#######################################################################
#
#                 Cambridge Crystallographic Data Centre
#                                CCDC 
#
#######################################################################
#
# If this CIF has been generated from an entry in the Cambridge 
# Structural Database, then it will include bibliographic, chemical, 
# crystal, experimental, refinement or atomic coordinate data resulting 
# from the CCDC's data processing and validation procedures.
#
#######################################################################

data_MOYYIJ
_chemical_formula_moiety         '(C14 H10 Cu1 O5)n'
_symmetry_cell_setting           rhombohedral
_symmetry_space_group_name_H-M   'R -3'
_symmetry_Int_Tables_number      148
_space_group_name_Hall           '-R 3'
loop_
_symmetry_equiv_pos_site_id
_symmetry_equiv_pos_as_xyz
1 x,y,z
2 -y,x-y,z
3 -x+y,-x,z
4 2/3+x,1/3+y,1/3+z
5 2/3-y,1/3+x-y,1/3+z
6 2/3-x+y,1/3-x,1/3+z
7 1/3+x,2/3+y,2/3+z
8 1/3-y,2/3+x-y,2/3+z
9 1/3-x+y,2/3-x,2/3+z
10 -x,-y,-z
11 y,-x+y,-z
12 x-y,x,-z
13 1/3-x,2/3-y,2/3-z
14 1/3+y,2/3-x+y,2/3-z
15 1/3+x-y,2/3+x,2/3-z
16 2/3-x,1/3-y,1/3-z
17 2/3+y,1/3-x+y,1/3-z
18 2/3+x-y,1/3+x,1/3-z
_cell_length_a                   31.681(15)
_cell_length_b                   31.681(15)
_cell_length_c                   14.297(10)
_cell_angle_alpha                90
_cell_angle_beta                 90
_cell_angle_gamma                120
_cell_volume                     12427.2
loop_
_atom_site_label
_atom_site_type_symbol
_atom_site_fract_x
_atom_site_fract_y
_atom_site_fract_z
Cu1 Cu 0.156670(10) 0.288350(10) -0.683590(17)
O1 O 0.13421(8) 0.21384(8) -0.71759(19)
O2 O 0.45414(6) 0.47113(6) -0.13024(10)
O3 O 0.51414(6) 0.45489(6) -0.10265(10)
O4 O 0.23354(6) 0.38215(6) -0.58624(11)
O5 O 0.21623(6) 0.30589(6) -0.61436(11)
C1 C 0.47910(9) 0.45210(10) -0.14988(15)
C2 C 0.46622(8) 0.42159(9) -0.23744(15)
C3 C 0.42726(8) 0.41506(8) -0.29097(14)
H1 H 0.4107 0.4315 -0.2755
C4 C 0.41234(9) 0.38384(9) -0.36846(15)
C5 C 0.43775(11) 0.36094(10) -0.39052(19)
H2 H 0.4281 0.3399 -0.4414
C6 C 0.47776(12) 0.36871(10) -0.3377(2)
H3 H 0.4952 0.3535 -0.3546
C7 C 0.49166(10) 0.39839(10) -0.26162(19)
H4 H 0.5182 0.4031 -0.2260
C8 C 0.36870(9) 0.37479(9) -0.42249(15)
C9 C 0.35693(10) 0.41099(10) -0.43729(18)
H5 H 0.3768 0.4418 -0.4118
C10 C 0.31705(9) 0.40279(9) -0.48811(17)
H6 H 0.3104 0.4280 -0.4976
C11 C 0.28617(9) 0.35704(9) -0.52571(14)
C12 C 0.29705(9) 0.32072(9) -0.51071(17)
H7 H 0.2767 0.2899 -0.5353
C13 C 0.33753(10) 0.32902(9) -0.45992(17)
H8 H 0.3440 0.3038 -0.4506
C14 C 0.24175(10) 0.34755(9) -0.58062(15)
H9 H 0.125(3) 0.197(2) -0.766(3)
H10 H 0.132(3) 0.196(2) -0.673(3)
Cu1L Cu 0.176663(10) 0.378317(10) -0.649743(17)
Cu1H Cu 0.465013(14) 0.509997(10) -0.016923(17)
Cu1Q Cu 0.534987(14) 0.490003(10) 0.016923(17)
O2D O 0.19554(6) 0.31634(8) -0.79691(10)
O3P O 0.12156(6) 0.27408(8) -0.56402(10)
O4L O 0.09979(6) 0.28452(6) -0.74709(11)
loop_
_geom_bond_atom_site_label_1
_geom_bond_atom_site_label_2
_geom_bond_site_symmetry_1
_geom_bond_site_symmetry_2
Cu1 O1 1_555 1_555
O1 H9 1_555 1_555
O2 C1 1_555 1_555
O3 C1 1_555 1_555
O4 C14 1_555 1_555
O5 Cu1 1_555 1_555
C1 C2 1_555 1_555
C2 C3 1_555 1_555
C3 H1 1_555 1_555
C4 C3 1_555 1_555
C5 C4 1_555 1_555
H2 C5 1_555 1_555
C6 C5 1_555 1_555
H3 C6 1_555 1_555
C7 C2 1_555 1_555
H4 C7 1_555 1_555
C8 C4 1_555 1_555
C9 C8 1_555 1_555
H5 C9 1_555 1_555
C10 C9 1_555 1_555
H6 C10 1_555 1_555
C11 C10 1_555 1_555
C12 C11 1_555 1_555
H7 C12 1_555 1_555
C13 C8 1_555 1_555
H8 C13 1_555 1_555
C14 O5 1_555 1_555
H10 O1 1_555 1_555
Cu1L O4 1_555 1_555
Cu1H O2 1_555 1_555
Cu1Q O3 1_555 1_555
O2D Cu1 1_555 1_555
O3P Cu1 1_555 1_555
O4L Cu1 1_555 1_555
C6 C7 1_555 1_555
C11 C14 1_555 1_555
C12 C13 1_555 1_555

#END
