
#######################################################################
#
#                 Cambridge Crystallographic Data Centre
#                                CCDC 
#
#######################################################################
#
# If this CIF has been generated from an entry in the Cambridge 
# Structural Database, then it will include bibliographic, chemical, 
# crystal, experimental, refinement or atomic coordinate data resulting 
# from the CCDC's data processing and validation procedures.
#
#######################################################################

data_TOHSAL
_chemical_formula_moiety         '(C52 H38 Cu2 O12)n'
_symmetry_cell_setting           tetragonal
_symmetry_space_group_name_H-M   'I 41/a'
_symmetry_Int_Tables_number      88
_space_group_name_Hall           '-I 4ad'
loop_
_symmetry_equiv_pos_site_id
_symmetry_equiv_pos_as_xyz
1 x,y,z
2 1/2-x,-y,1/2+z
3 3/4-y,1/4+x,1/4+z
4 3/4+y,3/4-x,3/4+z
5 1/2+x,1/2+y,1/2+z
6 -x,1/2-y,z
7 1/4-y,3/4+x,3/4+z
8 1/4+y,1/4-x,1/4+z
9 -x,-y,-z
10 1/2+x,y,1/2-z
11 1/4+y,3/4-x,3/4-z
12 1/4-y,1/4+x,1/4-z
13 1/2-x,1/2-y,1/2-z
14 x,1/2+y,-z
15 3/4+y,1/4-x,1/4-z
16 3/4-y,3/4+x,3/4-z
_cell_length_a                   24.5467(12)
_cell_length_b                   24.5467(12)
_cell_length_c                   72.387(6)
_cell_angle_alpha                90
_cell_angle_beta                 90
_cell_angle_gamma                90
_cell_volume                     43616.1
loop_
_atom_site_label
_atom_site_type_symbol
_atom_site_fract_x
_atom_site_fract_y
_atom_site_fract_z
_atom_site_U_iso_or_equiv
_atom_site_thermal_displace_type
Cu1 Cu 0.46436(3) 0.79007(4) 0.025953(11) 0.0953 Uani
Cu2 Cu 1.03512(4) 0.79011(4) -0.000122(11) 0.1012 Uani
C1 C 0.8604(2) 0.8731(2) 0.07005(7) 0.1373 Uani
C2 C 0.9080(3) 0.89727(19) 0.06288(8) 0.1530 Uani
H1 H 0.9204 0.9302 0.0677 0.1840 Uiso
C3 C 0.9368(2) 0.8716(2) 0.04845(8) 0.1447 Uani
H2 H 0.9682 0.8876 0.0437 0.1740 Uiso
C4 C 0.9180(2) 0.8217(2) 0.04119(6) 0.1120 Uani
C5 C 0.8704(2) 0.79752(19) 0.04836(7) 0.1217 Uani
H3 H 0.8580 0.7646 0.0436 0.1460 Uiso
C6 C 0.8416(2) 0.8232(2) 0.06279(8) 0.1353 Uani
H4 H 0.8102 0.8072 0.0675 0.1620 Uiso
C7 C 0.5580(4) 0.8061(5) 0.04835(13) 0.1250 Uani
C8 C 0.6538(2) 0.8815(3) 0.09009(7) 0.1373 Uani
C9 C 0.66511(19) 0.8266(3) 0.08578(7) 0.1353 Uani
H5 H 0.6949 0.8093 0.0911 0.1620 Uiso
C10 C 0.6312(2) 0.79808(19) 0.07339(7) 0.1323 Uani
H6 H 0.6386 0.7619 0.0705 0.1590 Uiso
C11 C 0.5860(2) 0.8244(2) 0.06532(6) 0.1027 Uani
C12 C 0.57477(19) 0.8793(2) 0.06963(7) 0.1363 Uani
H7 H 0.5450 0.8966 0.0643 0.1640 Uiso
C13 C 0.6087(3) 0.90783(18) 0.08201(8) 0.1420 Uani
H8 H 0.6012 0.9440 0.0849 0.1710 Uiso
C14 C 0.9516(4) 0.8004(3) 0.25068(9) 0.0817 Uani
C15 C 0.7494(3) 0.9748(2) 0.13001(7) 0.1477 Uani
C16 C 0.6921(3) 0.9723(3) 0.13105(7) 0.1717 Uani
C17 C 0.66256(19) 0.9412(3) 0.11810(8) 0.1490 Uani
H9 H 0.6248 0.9396 0.1188 0.1790 Uiso
C18 C 0.6904(2) 0.9125(2) 0.10411(7) 0.1377 Uani
C19 C 0.7477(2) 0.9150(2) 0.10306(7) 0.1353 Uani
C20 C 0.77717(19) 0.9461(3) 0.11602(8) 0.1367 Uani
C21 C 0.8319(4) 0.9537(4) 0.11377(11) 0.1657 Uani
H10 H 0.8507 0.9762 0.1219 0.1990 Uiso
C22 C 0.8607(4) 0.9274(4) 0.09908(13) 0.1667 Uani
H11 H 0.8985 0.9293 0.0983 0.2000 Uiso
C23 C 0.8306(4) 0.8989(4) 0.08611(11) 0.1297 Uani
C24 C 0.7766(4) 0.8911(4) 0.08795(11) 0.1510 Uani
H12 H 0.7580 0.8699 0.0793 0.1810 Uiso
C25 C 0.9231(2) 0.8352(2) 0.23648(6) 0.1107 Uani
C26 C 0.8756(2) 0.81436(18) 0.22811(8) 0.1333 Uani
H13 H 0.8599 0.7825 0.2325 0.1600 Uiso
C27 C 0.8519(2) 0.8419(2) 0.21301(8) 0.1687 Uani
H14 H 0.8206 0.8281 0.2075 0.2020 Uiso
C28 C 0.8757(3) 0.8902(2) 0.20628(6) 0.1413 Uani
C29 C 0.9232(2) 0.91107(18) 0.21465(7) 0.1337 Uani
H15 H 0.9390 0.9430 0.2102 0.1600 Uiso
C30 C 0.94690(19) 0.8836(2) 0.22975(7) 0.1210 Uani
H16 H 0.9782 0.8973 0.2353 0.1450 Uiso
C31 C 0.9539(4) 1.1982(3) 0.22519(9) 0.0833 Uani
C32 C 0.8656(3) 1.0946(2) 0.18573(6) 0.1460 Uani
C33 C 0.9193(3) 1.08120(18) 0.19089(7) 0.1380 Uani
H17 H 0.9363 1.0509 0.1858 0.1660 Uiso
C34 C 0.9474(2) 1.1138(2) 0.20380(7) 0.1273 Uani
H18 H 0.9828 1.1050 0.2072 0.1530 Uiso
C35 C 0.9216(2) 1.1598(2) 0.21156(6) 0.1263 Uani
C36 C 0.8679(2) 1.17316(19) 0.20641(7) 0.1290 Uani
H19 H 0.8509 1.2035 0.2115 0.1550 Uiso
C37 C 0.8399(2) 1.1406(3) 0.19349(8) 0.1483 Uani
H20 H 0.8044 1.1494 0.1901 0.1780 Uiso
C38 C 0.9398(4) 0.8011(5) 0.02492(12) 0.1313 Uani
C39 C 0.7763(2) 1.0007(3) 0.14594(7) 0.1427 Uani
C40 C 0.7800(3) 1.0579(3) 0.14474(7) 0.1570 Uani
C41 C 0.8099(3) 1.08727(18) 0.15804(9) 0.1507 Uani
H21 H 0.8123 1.1250 0.1572 0.1810 Uiso
C42 C 0.8363(2) 1.0594(2) 0.17255(7) 0.1370 Uani
C43 C 0.8327(2) 1.0022(2) 0.17376(6) 0.1143 Uani
C44 C 0.8027(2) 0.97283(18) 0.16045(8) 0.1320 Uani
C45 C 0.7977(3) 0.9154(3) 0.16255(10) 0.1453 Uani
H22 H 0.7764 0.8961 0.1542 0.1750 Uiso
C46 C 0.8230(4) 0.8878(3) 0.17639(11) 0.1810 Uani
H23 H 0.8219 0.8500 0.1770 0.2180 Uiso
C47 C 0.8511(3) 0.9183(4) 0.18983(11) 0.1320 Uani
C48 C 0.8538(3) 0.9740(3) 0.18892(10) 0.1303 Uani
H24 H 0.8699 0.9934 0.1985 0.1570 Uiso
O1 O 0.5129(2) 0.8213(2) 0.04429(6) 0.1107 Uani
O2 O 0.9279(2) 0.7586(2) 0.25587(6) 0.1087 Uani
O3 O 0.9892(2) 0.8204(2) 0.01934(6) 0.1227 Uani
O4 O 0.9260(2) 1.2386(2) 0.23088(6) 0.1193 Uani
O5 O 0.9966(2) 1.1795(2) 0.23065(6) 0.1113 Uani
O6 O 0.9271(2) 0.7513(2) 0.01851(6) 0.1150 Uani
O7 O 0.57206(18) 0.7521(3) 0.04487(6) 0.1140 Uani
O8 O 0.9929(2) 0.8223(2) 0.25639(7) 0.1173 Uani
O9 O 0.6643(3) 0.9929(4) 0.14632(9) 0.2177 Uani
O10 O 0.7550(3) 1.0804(3) 0.12987(9) 0.2017 Uani
C49 C 0.7600(12) 1.1410(6) 0.1277(3) 0.2050 Uiso
H25 H 0.7979 1.1515 0.1290 0.2460 Uiso
H26 H 0.7394 1.1589 0.1374 0.2460 Uiso
C50 C 0.7382(12) 1.1608(8) 0.1082(3) 0.2630 Uiso
H27 H 0.7444 1.1992 0.1069 0.3950 Uiso
H28 H 0.6999 1.1534 0.1073 0.3950 Uiso
H29 H 0.7572 1.1416 0.0986 0.3950 Uiso
C53 C 0.6057(7) 0.9776(12) 0.1499(3) 0.2310 Uiso
H30 H 0.6048 0.9381 0.1500 0.2770 Uiso
H31 H 0.5856 0.9888 0.1390 0.2770 Uiso
C54 C 0.5719(7) 0.9958(11) 0.1663(2) 0.2500 Uiso
H32 H 0.5377 0.9767 0.1663 0.3750 Uiso
H33 H 0.5653 1.0343 0.1655 0.3750 Uiso
H34 H 0.5911 0.9879 0.1775 0.3750 Uiso
O11 O 0.4089(2) 0.8557(2) 0.02580(7) 0.1487 Uani
O12 O 1.0966(2) 0.8536(3) -0.00156(7) 0.1697 Uani
Cu1E Cu 0.53564(3) 0.70993(4) 0.025953(11) 0.0953 Uani
Cu1B Cu 0.95993(4) 0.71436(3) 0.275953(11) 0.0953 Uani
Cu1G Cu 1.04007(4) 0.78564(3) 0.275953(11) 0.0953 Uani
Cu2E Cu 0.96488(4) 0.70989(4) -0.000122(11) 0.1012 Uani
Cu2B Cu 0.95989(4) 1.28512(4) 0.249878(11) 0.1012 Uani
Cu2G Cu 1.04011(4) 1.21488(4) 0.249878(11) 0.1012 Uani
O2C O 0.5086(2) 0.8221(2) 0.00587(6) 0.1087 Uani
O4C O 0.9886(2) 0.8240(2) -0.01912(6) 0.1193 Uani
O5F O 1.0705(2) 0.7466(2) -0.01935(6) 0.1113 Uani
O6E O 1.0729(2) 0.7487(2) 0.01851(6) 0.1150 Uani
O7E O 0.42794(18) 0.7479(3) 0.04487(6) 0.1140 Uani
O8F O 0.4277(2) 0.7429(2) 0.00639(7) 0.1173 Uani
loop_
_atom_site_aniso_label
_atom_site_aniso_U_11
_atom_site_aniso_U_22
_atom_site_aniso_U_33
_atom_site_aniso_U_23
_atom_site_aniso_U_13
_atom_site_aniso_U_12
Cu1 0.0861(7) 0.1148(8) 0.0851(6) -0.0008(5) -0.0048(5) -0.0015(6)
Cu2 0.0903(7) 0.1188(8) 0.0944(6) 0.0031(6) -0.0050(5) 0.0052(6)
C1 0.127(7) 0.143(8) 0.142(7) -0.047(6) -0.002(5) 0.012(6)
C2 0.156(8) 0.125(7) 0.178(8) -0.062(6) 0.023(6) 0.017(5)
C3 0.119(7) 0.159(8) 0.156(7) -0.047(6) 0.016(5) -0.008(6)
C4 0.103(6) 0.119(7) 0.114(6) -0.041(5) -0.003(4) 0.021(5)
C5 0.128(7) 0.138(7) 0.099(5) -0.034(5) 0.006(4) -0.001(5)
C6 0.117(7) 0.131(7) 0.158(7) -0.046(5) 0.014(5) 0.020(5)
C7 0.094(6) 0.158(7) 0.123(6) -0.009(6) -0.011(5) -0.058(6)
C8 0.145(7) 0.159(7) 0.108(6) -0.038(5) -0.057(5) 0.018(6)
C9 0.132(7) 0.164(7) 0.110(6) -0.035(5) -0.037(5) 0.036(6)
C10 0.134(7) 0.154(7) 0.109(6) -0.049(5) -0.031(5) 0.046(5)
C11 0.099(6) 0.134(6) 0.075(4) -0.008(4) -0.004(4) 0.007(5)
C12 0.163(8) 0.124(6) 0.122(6) -0.005(5) -0.078(5) 0.020(6)
C13 0.163(8) 0.138(7) 0.125(7) -0.042(5) -0.052(5) 0.033(6)
C14 0.096(6) 0.092(6) 0.057(4) 0.011(4) 0.002(4) -0.014(4)
C15 0.164(6) 0.181(8) 0.098(6) -0.044(5) -0.059(5) 0.035(7)
C16 0.155(7) 0.262(11) 0.098(6) -0.066(6) -0.035(6) 0.015(8)
C17 0.128(6) 0.236(10) 0.083(5) -0.052(5) -0.020(5) 0.030(6)
C18 0.126(6) 0.184(8) 0.103(6) -0.056(5) -0.032(5) 0.023(6)
C19 0.129(5) 0.165(8) 0.112(6) -0.051(5) -0.013(5) -0.007(6)
C20 0.153(6) 0.187(9) 0.070(5) -0.020(4) -0.041(5) 0.007(7)
C21 0.151(7) 0.224(10) 0.122(7) -0.060(6) -0.042(6) -0.011(8)
C22 0.155(8) 0.185(10) 0.160(8) -0.067(7) -0.020(6) 0.004(7)
C23 0.117(6) 0.153(8) 0.119(6) -0.056(5) -0.019(5) 0.044(6)
C24 0.138(6) 0.199(9) 0.116(6) -0.062(6) -0.008(6) 0.027(7)
C25 0.159(7) 0.110(6) 0.063(5) -0.001(4) -0.008(4) 0.001(5)
C26 0.213(9) 0.054(5) 0.133(6) -0.007(4) -0.061(6) 0.020(5)
C27 0.235(10) 0.138(8) 0.133(7) 0.016(5) -0.104(7) -0.047(7)
C28 0.194(9) 0.128(7) 0.102(6) 0.009(5) -0.056(5) -0.039(6)
C29 0.190(8) 0.106(6) 0.105(6) 0.011(4) -0.066(5) -0.004(5)
C30 0.171(7) 0.073(5) 0.119(6) -0.009(4) -0.043(5) 0.026(5)
C31 0.133(7) 0.069(5) 0.048(4) -0.006(4) -0.020(5) -0.011(4)
C32 0.194(8) 0.119(7) 0.125(6) -0.035(5) -0.010(6) -0.033(6)
C33 0.193(8) 0.127(7) 0.094(6) -0.038(5) -0.010(5) -0.019(6)
C34 0.202(7) 0.075(5) 0.105(6) -0.016(4) 0.023(5) -0.041(5)
C35 0.154(7) 0.103(6) 0.122(6) -0.045(5) -0.008(5) -0.021(5)
C36 0.157(7) 0.100(6) 0.130(6) -0.020(5) -0.012(5) -0.041(5)
C37 0.196(8) 0.131(7) 0.118(6) -0.039(5) -0.045(6) -0.010(6)
C38 0.143(7) 0.155(8) 0.096(6) -0.025(6) 0.021(5) 0.041(6)
C39 0.176(8) 0.132(6) 0.120(6) -0.031(5) -0.058(5) -0.005(6)
C40 0.206(10) 0.135(6) 0.130(7) 0.011(6) -0.061(6) -0.011(7)
C41 0.188(9) 0.104(6) 0.160(8) -0.020(5) -0.039(6) 0.013(6)
C42 0.188(8) 0.118(5) 0.105(6) -0.037(5) -0.031(5) -0.011(6)
C43 0.139(7) 0.108(5) 0.096(5) -0.037(4) -0.031(5) 0.014(5)
C44 0.190(8) 0.105(5) 0.101(6) -0.042(5) -0.060(5) 0.011(6)
C45 0.203(9) 0.120(6) 0.113(6) -0.030(5) -0.062(6) -0.028(7)
C46 0.281(12) 0.134(7) 0.128(7) 0.013(5) -0.104(7) -0.039(8)
C47 0.154(7) 0.120(6) 0.122(6) 0.007(5) -0.063(5) -0.031(6)
C48 0.145(7) 0.135(6) 0.111(6) -0.004(5) -0.038(5) -0.005(6)
O1 0.101(4) 0.158(5) 0.073(3) 0.027(3) -0.019(3) -0.024(4)
O2 0.122(4) 0.114(4) 0.090(3) 0.017(3) 0.019(3) -0.026(3)
O3 0.141(5) 0.140(5) 0.087(3) -0.007(3) 0.011(3) 0.019(4)
O4 0.142(5) 0.117(4) 0.099(4) -0.034(3) -0.011(3) 0.001(4)
O5 0.148(5) 0.109(4) 0.077(3) -0.011(3) 0.003(3) 0.004(4)
O6 0.113(4) 0.150(5) 0.082(3) -0.038(3) 0.005(3) 0.030(4)
O7 0.071(3) 0.175(5) 0.096(3) -0.045(4) -0.004(3) -0.022(4)
O8 0.138(5) 0.103(4) 0.111(4) 0.043(3) -0.001(3) -0.011(3)
O9 0.196(7) 0.291(8) 0.166(5) -0.137(6) -0.033(5) 0.028(7)
O10 0.267(8) 0.177(6) 0.161(5) -0.013(5) -0.074(5) 0.033(6)
O11 0.151(5) 0.159(5) 0.136(4) -0.018(4) -0.022(4) 0.048(4)
O12 0.140(5) 0.199(6) 0.170(5) 0.001(4) -0.041(4) -0.069(4)
Cu1E 0.0861 0.1148 0.0851 0.0008 0.0048 -0.0015
Cu1B 0.1148 0.0861 0.0851 -0.0048 0.0008 0.0015
Cu1G 0.1148 0.0861 0.0851 0.0048 -0.0008 0.0015
Cu2E 0.0903 0.1188 0.0944 -0.0031 0.005 0.0052
Cu2B 0.1188 0.0903 0.0944 -0.005 -0.0031 -0.0052
Cu2G 0.1188 0.0903 0.0944 0.005 0.0031 -0.0052
O2C 0.114 0.122 0.09 -0.019 0.017 0.026
O4C 0.117 0.142 0.099 0.011 -0.034 -0.001
O5F 0.109 0.148 0.077 0.003 0.011 -0.004
O6E 0.113 0.15 0.082 0.038 -0.005 0.03
O7E 0.071 0.175 0.096 0.045 0.004 -0.022
O8F 0.103 0.138 0.111 -0.001 -0.043 0.011
loop_
_geom_bond_atom_site_label_1
_geom_bond_atom_site_label_2
_geom_bond_site_symmetry_1
_geom_bond_site_symmetry_2
Cu1 O1 1_555 1_555
Cu2 O3 1_555 1_555
C1 C2 1_555 1_555
C2 H1 1_555 1_555
C3 C2 1_555 1_555
H2 C3 1_555 1_555
C4 C3 1_555 1_555
C5 C4 1_555 1_555
H3 C5 1_555 1_555
C6 C1 1_555 1_555
H4 C6 1_555 1_555
C7 C11 1_555 1_555
C8 C9 1_555 1_555
C9 H5 1_555 1_555
C10 C9 1_555 1_555
H6 C10 1_555 1_555
C11 C10 1_555 1_555
C12 C11 1_555 1_555
H7 C12 1_555 1_555
C13 C8 1_555 1_555
H8 C13 1_555 1_555
C14 C25 1_555 1_555
C15 C16 1_555 1_555
C16 C17 1_555 1_555
C17 H9 1_555 1_555
C18 C8 1_555 1_555
C19 C18 1_555 1_555
C20 C15 1_555 1_555
C21 C20 1_555 1_555
H10 C21 1_555 1_555
C22 C21 1_555 1_555
H11 C22 1_555 1_555
C23 C1 1_555 1_555
C24 C19 1_555 1_555
H12 C24 1_555 1_555
C25 C26 1_555 1_555
C26 H13 1_555 1_555
C27 C26 1_555 1_555
H14 C27 1_555 1_555
C28 C27 1_555 1_555
C29 C28 1_555 1_555
H15 C29 1_555 1_555
C30 C25 1_555 1_555
H16 C30 1_555 1_555
C31 C35 1_555 1_555
C32 C33 1_555 1_555
C33 H17 1_555 1_555
C34 C33 1_555 1_555
H18 C34 1_555 1_555
C35 C34 1_555 1_555
C36 C35 1_555 1_555
H19 C36 1_555 1_555
C37 C32 1_555 1_555
H20 C37 1_555 1_555
C38 C4 1_555 1_555
C39 C15 1_555 1_555
C40 C39 1_555 1_555
C41 C40 1_555 1_555
H21 C41 1_555 1_555
C42 C32 1_555 1_555
C43 C42 1_555 1_555
C44 C39 1_555 1_555
C45 C44 1_555 1_555
H22 C45 1_555 1_555
C46 C45 1_555 1_555
H23 C46 1_555 1_555
C47 C28 1_555 1_555
C48 C43 1_555 1_555
H24 C48 1_555 1_555
O1 C7 1_555 1_555
O2 C14 1_555 1_555
O3 C38 1_555 1_555
O4 C31 1_555 1_555
O5 C31 1_555 1_555
O6 C38 1_555 1_555
O7 C7 1_555 1_555
O8 C14 1_555 1_555
O9 C16 1_555 1_555
O10 C40 1_555 1_555
C49 O10 1_555 1_555
H25 C49 1_555 1_555
H26 C49 1_555 1_555
C50 C49 1_555 1_555
H27 C50 1_555 1_555
H28 C50 1_555 1_555
H29 C50 1_555 1_555
C53 O9 1_555 1_555
H30 C53 1_555 1_555
H31 C53 1_555 1_555
C54 C53 1_555 1_555
H32 C54 1_555 1_555
H33 C54 1_555 1_555
H34 C54 1_555 1_555
O11 Cu1 1_555 1_555
O12 Cu2 1_555 1_555
Cu1E Cu1 1_555 1_555
Cu1B O2 1_555 1_555
Cu1G O8 1_555 1_555
Cu2E Cu2 1_555 1_555
Cu2B O4 1_555 1_555
Cu2G O5 1_555 1_555
O2C Cu1 1_555 1_555
O4C Cu2 1_555 1_555
O5F Cu2 1_555 1_555
O6E Cu2 1_555 1_555
O7E Cu1 1_555 1_555
O8F Cu1 1_555 1_555
C5 C6 1_555 1_555
C12 C13 1_555 1_555
C17 C18 1_555 1_555
C19 C20 1_555 1_555
C22 C23 1_555 1_555
C23 C24 1_555 1_555
C29 C30 1_555 1_555
C36 C37 1_555 1_555
C41 C42 1_555 1_555
C43 C44 1_555 1_555
C46 C47 1_555 1_555
C47 C48 1_555 1_555
O6 Cu2E 1_555 1_555
O7 Cu1E 1_555 1_555
Cu1B Cu1G 1_555 1_555
Cu2B Cu2G 1_555 1_555

#END
