
#######################################################################
#
#                 Cambridge Crystallographic Data Centre
#                                CCDC 
#
#######################################################################
#
# If this CIF has been generated from an entry in the Cambridge 
# Structural Database, then it will include bibliographic, chemical, 
# crystal, experimental, refinement or atomic coordinate data resulting 
# from the CCDC's data processing and validation procedures.
#
#######################################################################

data_GUPBOJ
_chemical_formula_moiety         'C27 H22 Cd7 N19'
_symmetry_cell_setting           monoclinic
_symmetry_space_group_name_H-M   'C 2/c'
_symmetry_Int_Tables_number      15
_space_group_name_Hall           '-C 2yc'
loop_
_symmetry_equiv_pos_site_id
_symmetry_equiv_pos_as_xyz
1 x,y,z
2 -x,y,1/2-z
3 1/2+x,1/2+y,z
4 1/2-x,1/2+y,1/2-z
5 -x,-y,-z
6 x,-y,1/2+z
7 1/2-x,1/2-y,-z
8 1/2+x,1/2-y,1/2+z
_cell_length_a                   14.7024(10)
_cell_length_b                   17.0783(12)
_cell_length_c                   13.9048(15)
_cell_angle_alpha                90
_cell_angle_beta                 117.4720(10)
_cell_angle_gamma                90
_cell_volume                     3097.68
loop_
_atom_site_label
_atom_site_type_symbol
_atom_site_fract_x
_atom_site_fract_y
_atom_site_fract_z
Cd1 Cd -0.12832(3) 0.65767(2) -0.50814(3)
Cd2 Cd -0.5000 0.42381(3) -0.7500
N1 N -0.3908(3) 0.5035(3) -0.6261(3)
N2 N -0.2752(3) 0.5984(3) -0.5512(3)
N3 N -0.6339(3) 0.2504(3) -0.6204(3)
N4 N -0.5908(3) 0.3454(2) -0.7010(3)
N5 N -0.0454(4) 0.6996(3) -0.3400(3)
N6 N -0.0783(6) 0.5326(5) -0.5075(7)
N7 N -0.0271(6) 0.5727(4) -0.5249(7)
C1 C -0.3126(5) 0.5557(4) -0.7379(5)
H1 H -0.3568 0.5179 -0.7893
H2 H -0.3297 0.6072 -0.7690
H3 H -0.2426 0.5442 -0.7197
C2 C -0.3261(4) 0.5526(3) -0.6381(4)
C3 C -0.3800(5) 0.5192(4) -0.5239(5)
H4 H -0.4154 0.4945 -0.4916
C4 C -0.3095(5) 0.5766(4) -0.4785(5)
H5 H -0.2879 0.5977 -0.4097
C5 C -0.4518(5) 0.2978(5) -0.5268(6)
H6 H -0.4126 0.3364 -0.5416
H7 H -0.4522 0.3100 -0.4596
H8 H -0.4217 0.2471 -0.5217
C6 C -0.5593(4) 0.2975(3) -0.6163(4)
C7 C -0.6927(4) 0.3278(3) -0.7636(4)
H9 H -0.7362 0.3517 -0.8289
C8 C -0.7192(4) 0.2704(3) -0.7151(4)
H10 H -0.7839 0.2481 -0.7411
C9 C 0.0000 0.5682(6) -0.2500
C10 C 0.0000 0.6566(5) -0.2500
C11 C -0.0272(5) 0.7749(3) -0.3042(5)
H11 H -0.0489 0.8192 -0.3478
C12 C -0.0804(11) 0.4468(9) -0.4865(13)
C13 C 0.0000 0.5000 -0.5000
C14 C -0.1268(8) 0.4652(6) -0.4855(10)
C15 C 0.0604(8) 0.5983(6) -0.5370(10)
Cd1A Cd -0.87168(3) 0.65767(2) -0.99186(3)
Cd1B Cd -0.62832(3) 0.15767(2) -0.50814(3)
Cd1A_2 Cd 0.12832(3) 0.65767(2) 0.00814(3)
Cd1D Cd 0.12832(3) 0.34233(2) -0.49186(3)
Cd1C Cd -0.37168(3) 0.15767(2) -0.99186(3)
N1A N -0.6092(3) 0.5035(3) -0.8739(3)
N2A N -0.7248(3) 0.5984(3) -0.9488(3)
N3A N -0.3661(3) 0.2504(3) -0.8796(3)
N3B N -0.1339(3) 0.7504(3) -0.6204(3)
N3C N -0.8661(3) 0.7504(3) -0.8796(3)
N4A N -0.4092(3) 0.3454(2) -0.7990(3)
N5A N 0.0454(4) 0.6996(3) -0.1600(3)
N5A_2 N -0.9546(4) 0.6996(3) -1.1600(3)
N6D N 0.0783(6) 0.4674(5) -0.4925(7)
N6A N -0.9217(6) 0.5326(5) -0.9925(7)
N7D N 0.0271(6) 0.4273(4) -0.4751(7)
N7A N -0.9729(6) 0.5727(4) -0.9751(7)
C1A C -0.6874(5) 0.5557(4) -0.7621(5)
H1A H -0.6432 0.5179 -0.7107
H2A H -0.6703 0.6072 -0.7310
H3A H -0.7574 0.5442 -0.7803
C2A C -0.6739(4) 0.5526(3) -0.8619(4)
C3A C -0.6200(5) 0.5192(4) -0.9761(5)
H4A H -0.5846 0.4945 -1.0084
C4A C -0.6905(5) 0.5766(4) -1.0215(5)
H5A H -0.7121 0.5977 -1.0903
C5A C -0.5482(5) 0.2978(5) -0.9732(6)
H6A H -0.5874 0.3364 -0.9584
H7A H -0.5478 0.3100 -1.0404
H8A H -0.5783 0.2471 -0.9783
C6A C -0.4407(4) 0.2975(3) -0.8837(4)
C7A C -0.3073(4) 0.3278(3) -0.7364(4)
H9A H -0.2638 0.3517 -0.6711
C8A C -0.2808(4) 0.2704(3) -0.7849(4)
H10A H -0.2161 0.2481 -0.7589
C11A C 0.0272(5) 0.7749(3) -0.1958(5)
H11A H 0.0489 0.8192 -0.1522
C12D C 0.0804(11) 0.5532(9) -0.5135(13)
C14D C 0.1268(8) 0.5348(6) -0.5145(10)
C15D C -0.0604(8) 0.4017(6) -0.4630(10)
loop_
_geom_bond_atom_site_label_1
_geom_bond_atom_site_label_2
_geom_bond_site_symmetry_1
_geom_bond_site_symmetry_2
Cd1 N2 1_555 1_555
Cd2 N1 1_555 1_555
N1 C2 1_555 1_555
N2 C2 1_555 1_555
N3 C6 1_555 1_555
N4 Cd2 1_555 1_555
N5 Cd1 1_555 1_555
N6 Cd1 1_555 1_555
N7 Cd1 1_555 1_555
C1 H1 1_555 1_555
H2 C1 1_555 1_555
H3 C1 1_555 1_555
C2 C1 1_555 1_555
C3 N1 1_555 1_555
H4 C3 1_555 1_555
C4 N2 1_555 1_555
H5 C4 1_555 1_555
C5 H6 1_555 1_555
H7 C5 1_555 1_555
H8 C5 1_555 1_555
C6 N4 1_555 1_555
C7 N4 1_555 1_555
H9 C7 1_555 1_555
C8 N3 1_555 1_555
H10 C8 1_555 1_555
C9 C10 1_555 1_555
C10 N5 1_555 1_555
C11 N5 1_555 1_555
H11 C11 1_555 1_555
C12 N6 1_555 1_555
C13 N6 1_555 1_555
C14 N6 1_555 1_555
C15 N7 1_555 1_555
Cd1A N2A 1_555 1_555
Cd1B N3 1_555 1_555
Cd1A_2 N5A 1_555 1_555
Cd1D N6D 1_555 1_555
Cd1C N3A 1_555 1_555
N1A Cd2 1_555 1_555
N2A C2A 1_555 1_555
N3A C6A 1_555 1_555
N3B Cd1 1_555 1_555
N3C Cd1A 1_555 1_555
N4A Cd2 1_555 1_555
N5A C10 1_555 1_555
N5A_2 Cd1A 1_555 1_555
N6D C13 1_555 1_555
N6A Cd1A 1_555 1_555
N7D C12 1_555 1_555
N7A Cd1A 1_555 1_555
C1A H1A 1_555 1_555
H2A C1A 1_555 1_555
H3A C1A 1_555 1_555
C2A N1A 1_555 1_555
C3A N1A 1_555 1_555
H4A C3A 1_555 1_555
C4A N2A 1_555 1_555
H5A C4A 1_555 1_555
C5A H6A 1_555 1_555
H7A C5A 1_555 1_555
H8A C5A 1_555 1_555
C6A N4A 1_555 1_555
C7A N4A 1_555 1_555
H9A C7A 1_555 1_555
C8A N3A 1_555 1_555
H10A C8A 1_555 1_555
C11A C11 1_555 1_555
H11A C11A 1_555 1_555
C12D N7 1_555 1_555
C14D C15 1_555 1_555
C15D C12 1_555 1_555
N6 N7 1_555 1_555
N7 C13 1_555 1_555
C3 C4 1_555 1_555
C5 C6 1_555 1_555
C7 C8 1_555 1_555
C12 C13 1_555 1_555
C12 C14 1_555 1_555
C13 N7D 1_555 1_555
C13 C12D 1_555 1_555
C14 C15D 1_555 1_555
C15 C12D 1_555 1_555
Cd1D N7D 1_555 1_555
N5A C11A 1_555 1_555
N6D N7D 1_555 1_555
N6D C12D 1_555 1_555
N6D C14D 1_555 1_555
N6A N7A 1_555 1_555
N7D C15D 1_555 1_555
C1A C2A 1_555 1_555
C3A C4A 1_555 1_555
C5A C6A 1_555 1_555
C7A C8A 1_555 1_555
C12D C14D 1_555 1_555

#END
