
#######################################################################
#
#                 Cambridge Crystallographic Data Centre
#                                CCDC 
#
#######################################################################
#
# If this CIF has been generated from an entry in the Cambridge 
# Structural Database, then it will include bibliographic, chemical, 
# crystal, experimental, refinement or atomic coordinate data resulting 
# from the CCDC's data processing and validation procedures.
#
#######################################################################

data_GUPCAW
_chemical_formula_moiety         '(C32 H42 Cd4 N16 O1)n'
_symmetry_cell_setting           tetragonal
_symmetry_space_group_name_H-M   'I 4/m'
_symmetry_Int_Tables_number      87
_space_group_name_Hall           '-I 4'
loop_
_symmetry_equiv_pos_site_id
_symmetry_equiv_pos_as_xyz
1 x,y,z
2 -x,-y,z
3 -y,x,z
4 y,-x,z
5 1/2+x,1/2+y,1/2+z
6 1/2-x,1/2-y,1/2+z
7 1/2-y,1/2+x,1/2+z
8 1/2+y,1/2-x,1/2+z
9 -x,-y,-z
10 x,y,-z
11 y,-x,-z
12 -y,x,-z
13 1/2-x,1/2-y,1/2-z
14 1/2+x,1/2+y,1/2-z
15 1/2+y,1/2-x,1/2-z
16 1/2-y,1/2+x,1/2-z
_cell_length_a                   29.220(2)
_cell_length_b                   29.220(2)
_cell_length_c                   20.287(3)
_cell_angle_alpha                90
_cell_angle_beta                 90
_cell_angle_gamma                90
_cell_volume                     17321.2
loop_
_atom_site_label
_atom_site_type_symbol
_atom_site_fract_x
_atom_site_fract_y
_atom_site_fract_z
Cd1 Cd -0.10926(3) 1.26509(3) -0.15758(6)
Cd2 Cd -0.23494(3) 1.39074(3) -0.34236(6)
N1 N -0.1775(4) 1.3666(4) -0.2834(7)
N2 N -0.1336(4) 1.3225(4) -0.2171(7)
N3 N -0.1183(4) 1.2877(4) -0.0555(5)
N4 N -0.0375(3) 1.2453(4) -0.1748(5)
N5 N 0.0386(3) 1.2450(4) -0.1743(5)
N6 N -0.2120(4) 1.3820(4) -0.4452(5)
N7 N -0.2031(4) 1.1498(4) -0.1780(7)
N8 N -0.1497(4) 1.2031(4) -0.1781(7)
C1 C -0.1723(5) 1.3280(6) -0.2513(8)
C2 C -0.0649(7) 1.2314(8) 0.0000
C3 C -0.1002(6) 1.2682(7) 0.0000
C4 C -0.1489(5) 1.3200(5) -0.0318(7)
H1 H -0.1669 1.3389 -0.0580
C5 C 0.0004(5) 1.3206(4) -0.1559(9)
H2 H -0.0305 1.3314 -0.1529
H3 H 0.0162 1.3270 -0.1154
H4 H 0.0157 1.3358 -0.1916
C6 C 0.0004(4) 1.2718(5) -0.1676(6)
C7 C -0.2670(7) 1.4348(8) -0.5000
C8 C -0.2322(7) 1.3985(7) -0.5000
C9 C -0.1802(5) 1.3500(5) -0.4690(6)
H5 H -0.1618 1.3315 -0.4428
C10 C -0.2069(5) 1.2074(5) -0.0902(8)
H6 H -0.2332 1.1903 -0.0764
H7 H -0.1847 1.2078 -0.0553
H8 H -0.2159 1.2382 -0.1004
C11 C -0.1867(5) 1.1859(5) -0.1491(9)
C12 C -0.1765(5) 1.1410(7) -0.2305(10)
H9 H -0.1796 1.1172 -0.2605
C13 C -0.1423(6) 1.1762(5) -0.2303(9)
H10 H -0.1190 1.1797 -0.2612
C14 C -0.2188(10) 1.3026(10) -0.2159(16)
H11 H -0.2273 1.3191 -0.1769
H12 H -0.2439 1.3027 -0.2464
H13 H -0.2113 1.2716 -0.2044
C15 C -0.1313(11) 1.3766(11) -0.3020(17)
H14 H -0.1217 1.3980 -0.3330
C16 C -0.1057(10) 1.3500(9) -0.2669(15)
H15 H -0.0741 1.3479 -0.2714
C17 C -0.0236(10) 1.2040(7) -0.2005(16)
H16 H -0.0424 1.1804 -0.2149
C18 C 0.0230(10) 1.2046(8) -0.2006(17)
H17 H 0.0415 1.1811 -0.2162
Cd1I Cd -0.10926(3) 1.26509(3) 0.15758(6)
Cd1N Cd -0.23491(3) 1.60926(3) -0.34242(6)
Cd1L Cd -0.39074(3) 1.23491(3) -0.34242(6)
Cd2O Cd 0.10926(3) 1.26506(3) -0.15764(6)
Cd2L Cd -0.26506(3) 1.10926(3) -0.15764(6)
Cd2I Cd -0.23494(3) 1.39074(3) -0.65764(6)
Cd2I_2 Cd -0.23494(3) 1.39074(3) 0.34236(6)
N1I N -0.1775(4) 1.3666(4) 0.2834(7)
N1O N 0.1334(4) 1.3225(4) -0.2166(7)
N2I N -0.1336(4) 1.3225(4) 0.2171(7)
N3I N -0.1183(4) 1.2877(4) 0.0555(5)
N4N N -0.2547(4) 1.5375(3) -0.3252(5)
N4I N -0.0375(3) 1.2453(4) 0.1748(5)
N5N N -0.2550(4) 1.4614(3) -0.3257(5)
N6I N -0.2120(4) 1.3820(4) -0.5548(5)
N6O N 0.1180(4) 1.2880(4) -0.0548(5)
N7L N -0.2969(4) 1.3502(4) -0.3220(7)
N7C N 0.1498(4) 1.2031(4) -0.1780(7)
N8L N -0.3503(4) 1.2969(4) -0.3219(7)
N8I N -0.1497(4) 1.2031(4) 0.1781(7)
C1I C -0.1723(5) 1.3280(6) 0.2513(8)
C4I C -0.1489(5) 1.3200(5) 0.0318(7)
H1I H -0.1669 1.3389 0.0580
C5N C -0.1794(4) 1.4996(5) -0.3441(9)
H2N H -0.1686 1.5305 -0.3471
H3N H -0.1730 1.4838 -0.3846
H4N H -0.1642 1.4843 -0.3084
C6N C -0.2282(5) 1.4996(4) -0.3324(6)
C9I C -0.1802(5) 1.3500(5) -0.5310(6)
H5I H -0.1618 1.3315 -0.5572
C10L C -0.2931(5) 1.2926(5) -0.4098(8)
H6L H -0.2668 1.3097 -0.4236
H7L H -0.3153 1.2922 -0.4447
H8L H -0.2841 1.2618 -0.3996
C11L C -0.3133(5) 1.3141(5) -0.3509(9)
C12L C -0.3235(5) 1.3590(7) -0.2695(10)
H9L H -0.3204 1.3828 -0.2395
C13L C -0.3577(6) 1.3238(5) -0.2697(9)
H10L H -0.3810 1.3203 -0.2388
C14I C -0.2188(10) 1.3026(10) 0.2159(16)
H11I H -0.2273 1.3191 0.1769
H12I H -0.2439 1.3027 0.2464
H13I H -0.2113 1.2716 0.2044
C15I C -0.1313(11) 1.3766(11) 0.3020(17)
H14I H -0.1217 1.3980 0.3330
C16I C -0.1057(10) 1.3500(9) 0.2669(15)
H15I H -0.0741 1.3479 0.2714
C17N C -0.2960(7) 1.5236(10) -0.2995(16)
H16N H -0.3196 1.5424 -0.2851
C18N C -0.2954(8) 1.4770(10) -0.2994(17)
H17N H -0.3189 1.4585 -0.2838
O1 O -0.0952(13) 0.9038(13) 0.074(2)
loop_
_geom_bond_atom_site_label_1
_geom_bond_atom_site_label_2
_geom_bond_site_symmetry_1
_geom_bond_site_symmetry_2
Cd1 N2 1_555 1_555
Cd2 N1 1_555 1_555
N1 C1 1_555 1_555
N2 C1 1_555 1_555
N3 Cd1 1_555 1_555
N4 Cd1 1_555 1_555
N5 C6 1_555 1_555
N6 Cd2 1_555 1_555
N7 C11 1_555 1_555
N8 Cd1 1_555 1_555
C1 C14 1_555 1_555
C2 C3 1_555 1_555
C3 N3 1_555 1_555
C4 N3 1_555 1_555
H1 C4 1_555 1_555
C5 H2 1_555 1_555
H3 C5 1_555 1_555
H4 C5 1_555 1_555
C6 N4 1_555 1_555
C7 C8 1_555 1_555
C8 N6 1_555 1_555
C9 N6 1_555 1_555
H5 C9 1_555 1_555
C10 H6 1_555 1_555
H7 C10 1_555 1_555
H8 C10 1_555 1_555
C11 N8 1_555 1_555
C12 N7 1_555 1_555
H9 C12 1_555 1_555
C13 N8 1_555 1_555
H10 C13 1_555 1_555
C14 H11 1_555 1_555
H12 C14 1_555 1_555
H13 C14 1_555 1_555
C15 N1 1_555 1_555
H14 C15 1_555 1_555
C16 N2 1_555 1_555
H15 C16 1_555 1_555
C17 N4 1_555 1_555
H16 C17 1_555 1_555
C18 N5 1_555 1_555
H17 C18 1_555 1_555
Cd1I N2I 1_555 1_555
Cd1N N4N 1_555 1_555
Cd1L N8L 1_555 1_555
Cd2O N5 1_555 1_555
Cd2L N7 1_555 1_555
Cd2I N6I 1_555 1_555
Cd2I_2 N1I 1_555 1_555
N1I C1I 1_555 1_555
N1O Cd2O 1_555 1_555
N2I C1I 1_555 1_555
N3I C3 1_555 1_555
N4N C6N 1_555 1_555
N4I Cd1I 1_555 1_555
N5N Cd2 1_555 1_555
N6I C8 1_555 1_555
N6O Cd2O 1_555 1_555
N7L Cd2 1_555 1_555
N7C Cd2O 1_555 1_555
N8L C11L 1_555 1_555
N8I Cd1I 1_555 1_555
C1I C14I 1_555 1_555
C4I C4 1_555 1_555
H1I C4I 1_555 1_555
C5N H2N 1_555 1_555
H3N C5N 1_555 1_555
H4N C5N 1_555 1_555
C6N N5N 1_555 1_555
C9I C9 1_555 1_555
H5I C9I 1_555 1_555
C10L H6L 1_555 1_555
H7L C10L 1_555 1_555
H8L C10L 1_555 1_555
C11L N7L 1_555 1_555
C12L N7L 1_555 1_555
H9L C12L 1_555 1_555
C13L N8L 1_555 1_555
H10L C13L 1_555 1_555
C14I H11I 1_555 1_555
H12I C14I 1_555 1_555
H13I C14I 1_555 1_555
C15I N1I 1_555 1_555
H14I C15I 1_555 1_555
C16I N2I 1_555 1_555
H15I C16I 1_555 1_555
C17N N4N 1_555 1_555
H16N C17N 1_555 1_555
C18N N5N 1_555 1_555
H17N C18N 1_555 1_555
C5 C6 1_555 1_555
C10 C11 1_555 1_555
C12 C13 1_555 1_555
C15 C16 1_555 1_555
C17 C18 1_555 1_555
Cd1I N3I 1_555 1_555
N3I C4I 1_555 1_555
N6I C9I 1_555 1_555
C5N C6N 1_555 1_555
C10L C11L 1_555 1_555
C12L C13L 1_555 1_555
C15I C16I 1_555 1_555
C17N C18N 1_555 1_555

#END
