
#######################################################################
#
#                 Cambridge Crystallographic Data Centre
#                                CCDC 
#
#######################################################################
#
# If this CIF has been generated from an entry in the Cambridge 
# Structural Database, then it will include bibliographic, chemical, 
# crystal, experimental, refinement or atomic coordinate data resulting 
# from the CCDC's data processing and validation procedures.
#
#######################################################################

data_GUPDIF
_chemical_formula_moiety         '(C12 H18 Cd1 N4)n'
_symmetry_cell_setting           cubic
_symmetry_space_group_name_H-M   'I a -3 d'
_symmetry_Int_Tables_number      230
_space_group_name_Hall           '-I 4bd 2c 3'
loop_
_symmetry_equiv_pos_site_id
_symmetry_equiv_pos_as_xyz
1 x,y,z
2 1/2-x,-y,1/2+z
3 -x,1/2+y,1/2-z
4 1/2+x,1/2-y,-z
5 z,x,y
6 1/2+z,1/2-x,-y
7 1/2-z,-x,1/2+y
8 -z,1/2+x,1/2-y
9 y,z,x
10 -y,1/2+z,1/2-x
11 1/2+y,1/2-z,-x
12 1/2-y,-z,1/2+x
13 3/4+y,1/4+x,1/4-z
14 3/4-y,3/4-x,3/4-z
15 1/4+y,1/4-x,3/4+z
16 1/4-y,3/4+x,1/4+z
17 3/4+x,1/4+z,1/4-y
18 1/4-x,3/4+z,1/4+y
19 3/4-x,3/4-z,3/4-y
20 1/4+x,1/4-z,3/4+y
21 3/4+z,1/4+y,1/4-x
22 1/4+z,1/4-y,3/4+x
23 1/4-z,3/4+y,1/4+x
24 3/4-z,3/4-y,3/4-x
25 1/2+x,1/2+y,1/2+z
26 -x,1/2-y,z
27 1/2-x,y,-z
28 x,-y,1/2-z
29 1/2+z,1/2+x,1/2+y
30 z,-x,1/2-y
31 -z,1/2-x,y
32 1/2-z,x,-y
33 1/2+y,1/2+z,1/2+x
34 1/2-y,z,-x
35 y,-z,1/2-x
36 -y,1/2-z,x
37 1/4+y,3/4+x,3/4-z
38 1/4-y,1/4-x,1/4-z
39 3/4+y,3/4-x,1/4+z
40 3/4-y,1/4+x,3/4+z
41 1/4+x,3/4+z,3/4-y
42 3/4-x,1/4+z,3/4+y
43 1/4-x,1/4-z,1/4-y
44 3/4+x,3/4-z,1/4+y
45 1/4+z,3/4+y,3/4-x
46 3/4+z,3/4-y,1/4+x
47 3/4-z,1/4+y,3/4+x
48 1/4-z,1/4-y,1/4-x
49 -x,-y,-z
50 1/2+x,y,1/2-z
51 x,1/2-y,1/2+z
52 1/2-x,1/2+y,z
53 -z,-x,-y
54 1/2-z,1/2+x,y
55 1/2+z,x,1/2-y
56 z,1/2-x,1/2+y
57 -y,-z,-x
58 y,1/2-z,1/2+x
59 1/2-y,1/2+z,x
60 1/2+y,z,1/2-x
61 1/4-y,3/4-x,3/4+z
62 1/4+y,1/4+x,1/4+z
63 3/4-y,3/4+x,1/4-z
64 3/4+y,1/4-x,3/4-z
65 1/4-x,3/4-z,3/4+y
66 3/4+x,1/4-z,3/4-y
67 1/4+x,1/4+z,1/4+y
68 3/4-x,3/4+z,1/4-y
69 1/4-z,3/4-y,3/4+x
70 3/4-z,3/4+y,1/4-x
71 3/4+z,1/4-y,3/4-x
72 1/4+z,1/4+y,1/4+x
73 1/2-x,1/2-y,1/2-z
74 x,1/2+y,-z
75 1/2+x,-y,z
76 -x,y,1/2+z
77 1/2-z,1/2-x,1/2-y
78 -z,x,1/2+y
79 z,1/2+x,-y
80 1/2+z,-x,y
81 1/2-y,1/2-z,1/2-x
82 1/2+y,-z,x
83 -y,z,1/2+x
84 y,1/2+z,-x
85 3/4-y,1/4-x,1/4+z
86 3/4+y,3/4+x,3/4+z
87 1/4-y,1/4+x,3/4-z
88 1/4+y,3/4-x,1/4-z
89 3/4-x,1/4-z,1/4+y
90 1/4+x,3/4-z,1/4-y
91 3/4+x,3/4+z,3/4+y
92 1/4-x,1/4+z,3/4-y
93 3/4-z,1/4-y,1/4+x
94 1/4-z,1/4+y,3/4-x
95 1/4+z,3/4-y,1/4-x
96 3/4+z,3/4+y,3/4+x
_cell_length_a                   28.0174(7)
_cell_length_b                   28.0174(7)
_cell_length_c                   28.0174(7)
_cell_angle_alpha                90
_cell_angle_beta                 90
_cell_angle_gamma                90
_cell_volume                     21993
loop_
_atom_site_label
_atom_site_type_symbol
_atom_site_fract_x
_atom_site_fract_y
_atom_site_fract_z
_atom_site_U_iso_or_equiv
_atom_site_thermal_displace_type
Cd1 Cd 0.1250 0.660460(11) 0.589540(11) 0.0560 Uani
C1 C 0.1235(5) 0.5373(3) 0.5172(4) 0.1957 Uani
H1 H 0.1020 0.5293 0.4913 0.2350 Uiso
H2 H 0.1049 0.5499 0.5435 0.2350 Uiso
N1 N 0.12130(14) 0.65271(14) 0.51119(14) 0.0653 Uani
C2 C 0.1522(12) 0.4921(5) 0.5334(8) 0.4947 Uani
H3 H 0.1304 0.4681 0.5443 0.7430 Uiso
H4 H 0.1735 0.5007 0.5588 0.7430 Uiso
H5 H 0.1703 0.4800 0.5069 0.7430 Uiso
N2 N 0.13206(14) 0.62822(13) 0.43717(13) 0.0620 Uani
C3 C 0.10406(19) 0.68719(19) 0.48115(18) 0.0743 Uani
H6 H 0.0901 0.7158 0.4904 0.0890 Uiso
C4 C 0.1107(2) 0.67247(19) 0.43560(19) 0.0747 Uani
H7 H 0.1024 0.6892 0.4082 0.0900 Uiso
C5 C 0.1592(3) 0.5729(2) 0.5012(2) 0.0983 Uani
H8 H 0.1784 0.5589 0.4760 0.1180 Uiso
H9 H 0.1803 0.5802 0.5276 0.1180 Uiso
C6 C 0.13784(16) 0.61850(16) 0.48311(16) 0.0617 Uani
Cd1GB Cd 0.160460(11) 0.589540(11) 0.3750 0.0560 Uani
Cd1AB Cd -0.089540(11) 0.6250 0.660460(11) 0.0560 Uani
C1AB C -0.0172(4) 0.6235(5) 0.5373(3) 0.1957 Uani
H1AB H 0.0087 0.6020 0.5293 0.2350 Uiso
H2AB H -0.0435 0.6049 0.5499 0.2350 Uiso
N1AB N -0.01119(14) 0.62130(14) 0.65271(14) 0.0653 Uani
N1PA N 0.12870(14) 0.73881(14) 0.59729(14) 0.0653 Uani
C2AB C -0.0334(8) 0.6522(12) 0.4921(5) 0.4947 Uani
H3AB H -0.0443 0.6304 0.4681 0.7430 Uiso
H4AB H -0.0588 0.6735 0.5007 0.7430 Uiso
H5AB H -0.0069 0.6703 0.4800 0.7430 Uiso
N2AB N 0.06283(13) 0.63206(14) 0.62822(13) 0.0620 Uani
N2RB N 0.18717(13) 0.62178(13) 0.61794(14) 0.0620 Uani
C3AB C 0.01885(18) 0.60406(19) 0.68719(19) 0.0743 Uani
H6AB H 0.0096 0.5901 0.7158 0.0890 Uiso
C4AB C 0.06440(19) 0.6107(2) 0.67247(19) 0.0747 Uani
H7AB H 0.0918 0.6024 0.6892 0.0900 Uiso
C5AB C -0.0012(2) 0.6592(3) 0.5729(2) 0.0983 Uani
H8AB H 0.0240 0.6784 0.5589 0.1180 Uiso
H9AB H -0.0276 0.6803 0.5802 0.1180 Uiso
C6AB C 0.01689(16) 0.63784(16) 0.61850(16) 0.0617 Uani
loop_
_atom_site_aniso_label
_atom_site_aniso_U_11
_atom_site_aniso_U_22
_atom_site_aniso_U_33
_atom_site_aniso_U_23
_atom_site_aniso_U_13
_atom_site_aniso_U_12
Cd1 0.0527(3) 0.0577(3) 0.0577(3) -0.00284(18) 0.00469(13) 0.00469(13)
C1 0.326(17) 0.091(5) 0.170(10) 0.047(6) -0.004(10) -0.008(9)
N1 0.075(2) 0.066(2) 0.055(2) -0.0061(18) 0.0055(17) 0.0093(18)
C2 1.12(8) 0.094(8) 0.27(2) 0.024(11) 0.01(3) 0.14(2)
N2 0.067(2) 0.063(2) 0.056(2) -0.0038(17) 0.0009(17) 0.0034(17)
C3 0.085(3) 0.069(3) 0.069(3) -0.008(2) -0.005(2) 0.019(3)
C4 0.085(3) 0.075(3) 0.064(3) -0.001(2) -0.009(3) 0.018(3)
C5 0.161(6) 0.069(3) 0.065(3) -0.014(3) -0.007(4) 0.024(4)
C6 0.067(3) 0.060(3) 0.058(3) -0.0057(19) 0.002(2) 0.004(2)
Cd1GB 0.0577 0.0577 0.0527 -0.00469 -0.00469 -0.00284
Cd1AB 0.0577 0.0527 0.0577 0.00469 0.00284 -0.00469
C1AB 0.17 0.326 0.091 -0.008 -0.047 0.004
N1AB 0.055 0.075 0.066 0.0093 0.0061 -0.0055
N1PA 0.075 0.055 0.066 -0.0061 0.0093 0.0055
C2AB 0.27 1.12 0.094 0.14 -0.024 -0.01
N2AB 0.056 0.067 0.063 0.0034 0.0038 -0.0009
N2RB 0.056 0.063 0.067 0.0034 -0.0009 0.0038
C3AB 0.069 0.085 0.069 0.019 0.008 0.005
C4AB 0.064 0.085 0.075 0.018 0.001 0.009
C5AB 0.065 0.161 0.069 0.024 0.014 0.007
C6AB 0.058 0.067 0.06 0.004 0.0057 -0.002
loop_
_geom_bond_atom_site_label_1
_geom_bond_atom_site_label_2
_geom_bond_site_symmetry_1
_geom_bond_site_symmetry_2
Cd1 N1 1_555 1_555
C1 H1 1_555 1_555
H2 C1 1_555 1_555
N1 C3 1_555 1_555
C2 C1 1_555 1_555
H3 C2 1_555 1_555
H4 C2 1_555 1_555
H5 C2 1_555 1_555
N2 C4 1_555 1_555
C3 H6 1_555 1_555
C4 C3 1_555 1_555
H7 C4 1_555 1_555
C5 C1 1_555 1_555
H8 C5 1_555 1_555
H9 C5 1_555 1_555
C6 N1 1_555 1_555
Cd1GB N2 1_555 1_555
Cd1AB N1AB 1_555 1_555
C1AB H1AB 1_555 1_555
H2AB C1AB 1_555 1_555
N1AB C3AB 1_555 1_555
N1PA Cd1 1_555 1_555
C2AB C1AB 1_555 1_555
H3AB C2AB 1_555 1_555
H4AB C2AB 1_555 1_555
H5AB C2AB 1_555 1_555
N2AB Cd1 1_555 1_555
N2RB Cd1 1_555 1_555
C3AB H6AB 1_555 1_555
C4AB N2AB 1_555 1_555
H7AB C4AB 1_555 1_555
C5AB C1AB 1_555 1_555
H8AB C5AB 1_555 1_555
H9AB C5AB 1_555 1_555
C6AB N1AB 1_555 1_555
N2 C6 1_555 1_555
C5 C6 1_555 1_555
N2AB C6AB 1_555 1_555
C3AB C4AB 1_555 1_555
C5AB C6AB 1_555 1_555

#END
