
#######################################################################
#
#                 Cambridge Crystallographic Data Centre
#                                CCDC 
#
#######################################################################
#
# If this CIF has been generated from an entry in the Cambridge 
# Structural Database, then it will include bibliographic, chemical, 
# crystal, experimental, refinement or atomic coordinate data resulting 
# from the CCDC's data processing and validation procedures.
#
#######################################################################

data_ISOHEE
_chemical_formula_moiety         '(C36 H22 N6 O8 Zn2)n'
_symmetry_cell_setting           monoclinic
_symmetry_space_group_name_H-M   'P 2/m'
_symmetry_Int_Tables_number      10
_space_group_name_Hall           '-P 2y'
loop_
_symmetry_equiv_pos_site_id
_symmetry_equiv_pos_as_xyz
1 x,y,z
2 -x,y,-z
3 -x,-y,-z
4 x,-y,z
_cell_length_a                   10.070(8)
_cell_length_b                   11.383(8)
_cell_length_c                   13.936(10)
_cell_angle_alpha                90
_cell_angle_beta                 101.955(15)
_cell_angle_gamma                90
_cell_volume                     1562.79
loop_
_atom_site_label
_atom_site_type_symbol
_atom_site_fract_x
_atom_site_fract_y
_atom_site_fract_z
Zn1 Zn 0.62570(6) 0.0000 0.40046(4)
O1 O 0.4322(4) 0.0000 0.3199(3)
N1 N 0.0559(6) 0.0000 0.0276(4)
C1 C 0.3316(5) 0.0000 0.3612(4)
O2 O 0.3374(5) -0.0000 0.4491(3)
N2 N 0.6231(4) 0.1897(4) 0.4035(3)
C2 C 0.1936(6) 0.0000 0.2943(4)
O3 O -0.1644(5) 0.0000 0.4018(3)
C3 C 0.0769(6) 0.0000 0.3317(4)
H1 H 0.0839 -0.0000 0.3993
O4 O -0.2912(5) 0.0000 0.2543(4)
C4 C -0.0521(6) 0.0000 0.2694(4)
C5 C -0.1783(7) 0.0000 0.3110(5)
C6 C -0.0622(6) -0.0000 0.1692(5)
H2 H -0.1471 0.0000 0.1274
C7 C 0.0553(7) 0.0000 0.1303(5)
C8 C 0.1813(6) 0.0000 0.1915(5)
H3 H 0.2589 0.0000 0.1650
C9 C 0.5390(10) 0.2516(6) 0.3383(7)
H4 H 0.4789 0.2111 0.2900
C10 C 0.5336(11) 0.3712(6) 0.3364(8)
H5 H 0.4689 0.4093 0.2894
C11 C 0.6242(5) 0.4363(6) 0.4043(4)
C12 C 0.7148(12) 0.3698(7) 0.4684(8)
H6 H 0.7815 0.4071 0.5144
C13 C 0.7100(10) 0.2518(7) 0.4668(7)
H7 H 0.7724 0.2114 0.5137
Zn1A Zn -0.62570(6) 0.0000 -0.40046(4)
Zn1A_2 Zn 0.37430(6) 0.0000 0.59954(4)
Zn1_2 Zn -0.37430(6) 0.0000 0.40046(4)
Zn1_3 Zn -0.37430(6) 0.0000 -0.59954(4)
Zn1A_3 Zn 0.37430(6) 0.0000 -0.40046(4)
Zn1_4 Zn 0.62570(6) 1.0000 0.40046(4)
Zn1_5 Zn 0.62570(6) -1.0000 0.40046(4)
O1A O -0.4322(4) -0.0000 -0.3199(3)
N1A N -0.0559(6) 0.0000 -0.0276(4)
C1A C -0.3316(5) 0.0000 -0.3612(4)
O2A O -0.3374(5) 0.0000 -0.4491(3)
O2A_2 O 0.6626(5) -0.0000 0.5509(3)
O2_2 O -0.6626(5) 0.0000 -0.5509(3)
N2C N 0.6231(4) 0.8103(4) 0.4035(3)
N2C_2 N 0.6231(4) -0.1897(4) 0.4035(3)
N2_2 N 0.6231(4) -0.8103(4) 0.4035(3)
N2A N -0.6231(4) 0.1897(4) -0.4035(3)
N2B N -0.6231(4) -0.1897(4) -0.4035(3)
C2A C -0.1936(6) 0.0000 -0.2943(4)
O3A O 0.1644(5) -0.0000 -0.4018(3)
O3_2 O 0.8356(5) 0.0000 0.4018(3)
O3A_2 O -0.8356(5) -0.0000 -0.4018(3)
C3A C -0.0769(6) 0.0000 -0.3317(4)
H1A H -0.0839 0.0000 -0.3993
O4A O 0.2912(5) 0.0000 -0.2543(4)
O4_2 O 0.7088(5) 0.0000 0.2543(4)
O4A_2 O -0.7088(5) 0.0000 -0.2543(4)
C4A C 0.0521(6) 0.0000 -0.2694(4)
C5A C 0.1783(7) 0.0000 -0.3110(5)
C6A C 0.0622(6) 0.0000 -0.1692(5)
H2A H 0.1471 0.0000 -0.1274
C7A C -0.0553(7) -0.0000 -0.1303(5)
C8A C -0.1813(6) 0.0000 -0.1915(5)
H3A H -0.2589 0.0000 -0.1650
C9C C 0.5390(10) 0.7484(6) 0.3383(7)
C9C_2 C 0.5390(10) -0.2516(6) 0.3383(7)
C9_2 C 0.5390(10) -0.7484(6) 0.3383(7)
H4C H 0.4789 0.7889 0.2900
H4C_2 H 0.4789 -0.2111 0.2900
H4_2 H 0.4789 -0.7889 0.2900
C10C C 0.5336(11) 0.6288(6) 0.3364(8)
C10C_2 C 0.5336(11) -0.3712(6) 0.3364(8)
C10_2 C 0.5336(11) -0.6288(6) 0.3364(8)
H5C H 0.4689 0.5907 0.2894
H5C_2 H 0.4689 -0.4093 0.2894
H5_2 H 0.4689 -0.5907 0.2894
C11C C 0.6242(5) 0.5637(6) 0.4043(4)
C11C_2 C 0.6242(5) -0.4363(6) 0.4043(4)
C11_2 C 0.6242(5) -0.5637(6) 0.4043(4)
C12C C 0.7148(12) 0.6302(7) 0.4684(8)
C12C_2 C 0.7148(12) -0.3698(7) 0.4684(8)
C12_2 C 0.7148(12) -0.6302(7) 0.4684(8)
H6C H 0.7815 0.5929 0.5144
H6C_2 H 0.7815 -0.4071 0.5144
H6_2 H 0.7815 -0.5929 0.5144
C13C C 0.7100(10) 0.7482(7) 0.4668(7)
C13C_2 C 0.7100(10) -0.2518(7) 0.4668(7)
C13_2 C 0.7100(10) -0.7482(7) 0.4668(7)
H7C H 0.7724 0.7886 0.5137
H7C_2 H 0.7724 -0.2114 0.5137
H7_2 H 0.7724 -0.7886 0.5137
loop_
_geom_bond_atom_site_label_1
_geom_bond_atom_site_label_2
_geom_bond_site_symmetry_1
_geom_bond_site_symmetry_2
Zn1 O1 1_555 1_555
O1 C1 1_555 1_555
N1 C7 1_555 1_555
C1 O2 1_555 1_555
O2 Zn1A_2 1_555 1_555
N2 Zn1 1_555 1_555
C2 C1 1_555 1_555
O3 C5 1_555 1_555
C3 C2 1_555 1_555
H1 C3 1_555 1_555
O4 C5 1_555 1_555
C4 C3 1_555 1_555
C5 C4 1_555 1_555
C6 C4 1_555 1_555
H2 C6 1_555 1_555
C7 C6 1_555 1_555
C8 C2 1_555 1_555
H3 C8 1_555 1_555
C9 N2 1_555 1_555
H4 C9 1_555 1_555
C10 C9 1_555 1_555
H5 C10 1_555 1_555
C11 C10 1_555 1_555
C12 C11 1_555 1_555
H6 C12 1_555 1_555
C13 N2 1_555 1_555
H7 C13 1_555 1_555
Zn1A O1A 1_555 1_555
Zn1_2 O3 1_555 1_555
Zn1_3 O2A 1_555 1_555
Zn1A_3 O3A 1_555 1_555
Zn1_4 N2C 1_555 1_555
Zn1_5 N2_2 1_555 1_555
O1A C1A 1_555 1_555
N1A N1 1_555 1_555
C1A O2A 1_555 1_555
O2A_2 Zn1 1_555 1_555
O2_2 Zn1A 1_555 1_555
N2C C9C 1_555 1_555
N2C_2 Zn1 1_555 1_555
N2_2 C9_2 1_555 1_555
N2A Zn1A 1_555 1_555
N2B Zn1A 1_555 1_555
C2A C1A 1_555 1_555
O3A C5A 1_555 1_555
O3_2 Zn1 1_555 1_555
O3A_2 Zn1A 1_555 1_555
C3A C2A 1_555 1_555
H1A C3A 1_555 1_555
O4A Zn1A_3 1_555 1_555
O4_2 Zn1 1_555 1_555
O4A_2 Zn1A 1_555 1_555
C4A C3A 1_555 1_555
C5A O4A 1_555 1_555
C6A C4A 1_555 1_555
H2A C6A 1_555 1_555
C7A N1A 1_555 1_555
C8A C2A 1_555 1_555
H3A C8A 1_555 1_555
C9C H4C 1_555 1_555
C9C_2 N2C_2 1_555 1_555
C9_2 H4_2 1_555 1_555
H4C_2 C9C_2 1_555 1_555
C10C C9C 1_555 1_555
C10C_2 C9C_2 1_555 1_555
C10_2 C9_2 1_555 1_555
H5C C10C 1_555 1_555
H5C_2 C10C_2 1_555 1_555
H5_2 C10_2 1_555 1_555
C11C C11 1_555 1_555
C11C_2 C10C_2 1_555 1_555
C11_2 C10_2 1_555 1_555
C12C C11C 1_555 1_555
C12C_2 C11C_2 1_555 1_555
C12_2 C11_2 1_555 1_555
H6C C12C 1_555 1_555
H6C_2 C12C_2 1_555 1_555
H6_2 C12_2 1_555 1_555
C13C N2C 1_555 1_555
C13C_2 N2C_2 1_555 1_555
C13_2 N2_2 1_555 1_555
H7C C13C 1_555 1_555
H7C_2 C13C_2 1_555 1_555
H7_2 C13_2 1_555 1_555
O4 Zn1_2 1_555 1_555
C7 C8 1_555 1_555
C12 C13 1_555 1_555
C4A C5A 1_555 1_555
C6A C7A 1_555 1_555
C7A C8A 1_555 1_555
C10C C11C 1_555 1_555
C11C_2 C11_2 1_555 1_555
C12C C13C 1_555 1_555
C12C_2 C13C_2 1_555 1_555
C12_2 C13_2 1_555 1_555

#END
