
#######################################################################
#
#                 Cambridge Crystallographic Data Centre
#                                CCDC 
#
#######################################################################
#
# If this CIF has been generated from an entry in the Cambridge 
# Structural Database, then it will include bibliographic, chemical, 
# crystal, experimental, refinement or atomic coordinate data resulting 
# from the CCDC's data processing and validation procedures.
#
#######################################################################

data_EPAXAW
_chemical_formula_moiety         '(C44 H32 Co2 F6 N4 O8 P1 Zn2 1+)n'
_symmetry_cell_setting           triclinic
_symmetry_space_group_name_H-M   'P -1'
_symmetry_Int_Tables_number      2
_space_group_name_Hall           '-P 1'
loop_
_symmetry_equiv_pos_site_id
_symmetry_equiv_pos_as_xyz
1 x,y,z
2 -x,-y,-z
_cell_length_a                   6.8096(12)
_cell_length_b                   12.270(3)
_cell_length_c                   14.134(3)
_cell_angle_alpha                84.323(16)
_cell_angle_beta                 78.295(15)
_cell_angle_gamma                79.696(16)
_cell_volume                     1135.34
loop_
_atom_site_label
_atom_site_type_symbol
_atom_site_fract_x
_atom_site_fract_y
_atom_site_fract_z
Zn1 Zn 0.37202(9) 0.26792(5) 0.69083(4)
N1 N 0.2367(6) 0.1752(3) 0.6143(3)
N2 N 0.5850(6) 0.3593(3) 0.6097(3)
O1 O 0.5400(5) 0.1510(3) 0.7570(2)
O2 O 0.1609(5) 0.3827(3) 0.7536(2)
C1 C 0.3347(15) 0.1285(8) 0.5284(6)
C2 C 0.0570(16) 0.1484(10) 0.6519(7)
C3 C 0.7154(15) 0.3201(9) 0.5305(7)
C4 C 0.6251(18) 0.4425(9) 0.6509(8)
C5 C 0.0587(7) 0.3425(4) 0.8326(3)
H1 H 0.4661 0.1429 0.5011
C6 C 0.2471(14) 0.0610(8) 0.4805(6)
C7 C -0.0411(16) 0.0802(10) 0.6106(7)
H2 H -0.0103 0.1776 0.7111
H3 H 0.6963 0.2554 0.5054
C8 C 0.8781(15) 0.3733(8) 0.4848(6)
C9 C 0.7859(18) 0.4990(9) 0.6104(7)
H4 H 0.5422 0.4646 0.7097
C10 C -0.0858(7) 0.4258(4) 0.8954(3)
O3 O 0.0714(5) 0.2428(3) 0.8578(2)
H5 H 0.3158 0.0324 0.4213
C11 C 0.0499(8) 0.0368(4) 0.5242(3)
H6 H -0.1692 0.0642 0.6421
H7 H 0.9656 0.3449 0.4292
C12 C 0.9114(7) 0.4715(4) 0.5229(3)
H8 H 0.8097 0.5569 0.6432
C13 C -0.1986(7) 0.3994(4) 0.9886(3)
C14 C -0.1233(8) 0.5440(4) 0.8792(4)
Co1 Co -0.0000 0.5000 1.0000
H9 H -0.2034 0.3274 1.0178
C15 C -0.3026(7) 0.4993(5) 1.0302(4)
C16 C -0.2585(8) 0.5875(5) 0.9629(4)
H10 H -0.0688 0.5854 0.8236
H11 H -0.3861 0.5053 1.0918
H12 H -0.3095 0.6630 0.9714
C17 C -0.5796(7) -0.1825(4) 0.1633(3)
C18 C -0.6723(6) -0.0910(4) 0.1002(3)
O4 O -0.5419(5) -0.2791(3) 0.1389(3)
C19 C -0.7274(7) 0.0250(4) 0.1172(3)
C20 C -0.7031(7) -0.1029(4) 0.0057(3)
Co2 Co -0.5000 0.0000 0.0000
H13 H -0.7224 0.0580 0.1738
C21 C -0.7912(7) 0.0810(4) 0.0324(4)
C22 C -0.7747(7) 0.0019(5) -0.0356(4)
H14 H -0.6795 -0.1702 -0.0245
H15 H -0.8365 0.1576 0.0235
H16 H -0.8060 0.0166 -0.0979
C11A C -0.0499(8) -0.0368(4) 0.4758(3)
C12A C 1.0886(7) 0.5285(4) 0.4771(3)
C10A C 0.0858(7) 0.5742(4) 1.1046(3)
C13A C 0.1986(7) 0.6006(4) 1.0114(3)
C15A C 0.3026(7) 0.5007(5) 0.9698(4)
C16A C 0.2585(8) 0.4125(5) 1.0371(4)
C14A C 0.1233(8) 0.4560(4) 1.1208(4)
C6A C -0.2471(14) -0.0610(8) 0.5195(6)
C7A C 0.0411(16) -0.0802(10) 0.3894(7)
C8A C 1.1219(15) 0.6267(8) 0.5152(6)
C9A C 1.2141(18) 0.5010(9) 0.3896(7)
C5A C -0.0587(7) 0.6575(4) 1.1674(3)
H9A H 0.2034 0.6726 0.9822
H11A H 0.3861 0.4947 0.9082
H12A H 0.3095 0.3370 1.0286
H10A H 0.0688 0.4146 1.1764
C1A C -0.3347(15) -0.1285(8) 0.4716(6)
H5A H -0.3158 -0.0324 0.5787
H6A H 0.1692 -0.0642 0.3579
C2A C -0.0570(16) -0.1484(10) 0.3481(7)
C3A C 1.2846(15) 0.6799(9) 0.4695(7)
H7A H 1.0344 0.6551 0.5708
H8A H 1.1903 0.4431 0.3568
C4A C 1.3749(18) 0.5575(9) 0.3491(8)
O3A O -0.0714(5) 0.7572(3) 1.1422(2)
O2A O -0.1609(5) 0.6173(3) 1.2464(2)
H1A H -0.4661 -0.1429 0.4989
N1A N -0.2367(6) -0.1752(3) 0.3857(3)
H2A H 0.0103 -0.1776 0.2889
H3A H 1.3037 0.7446 0.4946
N2A N 1.4150(6) 0.6407(3) 0.3903(3)
H4A H 1.4578 0.5354 0.2903
Zn1A Zn -0.37202(9) 0.73208(5) 1.30917(4)
Zn1A_2 Zn -0.37202(9) -0.26792(5) 0.30917(4)
Zn1A_3 Zn 1.62798(9) 0.73208(5) 0.30917(4)
O1A O -0.5400(5) -0.1510(3) 0.2430(2)
O2A_2 O -0.1609(5) -0.3827(3) 0.2464(2)
N2A_2 N -0.5850(6) -0.3593(3) 0.3903(3)
C22A C -0.2253(7) -0.0019(5) 0.0356(4)
C20A C -0.2969(7) 0.1029(4) -0.0057(3)
C19A C -0.2726(7) -0.0250(4) -0.1172(3)
C18A C -0.3277(6) 0.0910(4) -0.1002(3)
C21A C -0.2088(7) -0.0810(4) -0.0324(4)
H16A H -0.1940 -0.0166 0.0979
H14A H -0.3205 0.1702 0.0245
H13A H -0.2776 -0.0580 -0.1738
C17A C -0.4204(7) 0.1825(4) -0.1633(3)
H15A H -0.1635 -0.1576 -0.0235
O1_2 O -0.4600(5) 0.1510(3) -0.2430(2)
O4A O -0.4581(5) 0.2791(3) -0.1389(3)
Zn1_2 Zn -0.62798(9) 0.26792(5) -0.30917(4)
F1 F 0.7072(10) 0.3485(4) 0.2579(4)
F2 F 0.8400(7) 0.1944(5) 0.1825(3)
F3 F 0.5753(10) 0.1170(4) 0.2629(4)
F4 F 0.4472(8) 0.2747(4) 0.3351(3)
F5 F 0.7557(10) 0.1889(4) 0.3471(3)
F6 F 0.5284(8) 0.2726(5) 0.1736(3)
P1 P 0.6468(3) 0.23114(13) 0.25992(10)
loop_
_geom_bond_atom_site_label_1
_geom_bond_atom_site_label_2
_geom_bond_site_symmetry_1
_geom_bond_site_symmetry_2
Zn1 N1 1_555 1_555
N1 C1 1_555 1_555
N2 Zn1 1_555 1_555
O1 Zn1 1_555 1_555
O2 Zn1 1_555 1_555
C1 H1 1_555 1_555
C2 N1 1_555 1_555
C3 N2 1_555 1_555
C4 N2 1_555 1_555
C5 O2 1_555 1_555
C6 C1 1_555 1_555
C7 C2 1_555 1_555
H2 C2 1_555 1_555
H3 C3 1_555 1_555
C8 C3 1_555 1_555
C9 C4 1_555 1_555
H4 C4 1_555 1_555
C10 C5 1_555 1_555
O3 C5 1_555 1_555
H5 C6 1_555 1_555
C11 C6 1_555 1_555
H6 C7 1_555 1_555
H7 C8 1_555 1_555
C12 C8 1_555 1_555
H8 C9 1_555 1_555
C13 C10 1_555 1_555
C14 C10 1_555 1_555
Co1 C10 1_555 1_555
H9 C13 1_555 1_555
C15 C13 1_555 1_555
C16 C14 1_555 1_555
H10 C14 1_555 1_555
H11 C15 1_555 1_555
H12 C16 1_555 1_555
C17 C18 1_555 1_555
C18 C19 1_555 1_555
O4 C17 1_555 1_555
C19 Co2 1_555 1_555
C20 C18 1_555 1_555
Co2 C18 1_555 1_555
H13 C19 1_555 1_555
C21 C19 1_555 1_555
C22 C20 1_555 1_555
H14 C20 1_555 1_555
H15 C21 1_555 1_555
H16 C22 1_555 1_555
F1 P1 1_555 1_555
F2 P1 1_555 1_555
F3 P1 1_555 1_555
F4 P1 1_555 1_555
F5 P1 1_555 1_555
F6 P1 1_555 1_555
C11A C11 1_555 1_555
C12A C12 1_555 1_555
C10A Co1 1_555 1_555
C13A Co1 1_555 1_555
C15A Co1 1_555 1_555
C16A Co1 1_555 1_555
C14A Co1 1_555 1_555
C6A C11A 1_555 1_555
C7A C11A 1_555 1_555
C8A C12A 1_555 1_555
C9A C12A 1_555 1_555
C5A C10A 1_555 1_555
H9A C13A 1_555 1_555
H11A C15A 1_555 1_555
H12A C16A 1_555 1_555
H10A C14A 1_555 1_555
C1A C6A 1_555 1_555
H5A C6A 1_555 1_555
H6A C7A 1_555 1_555
C2A C7A 1_555 1_555
C3A C8A 1_555 1_555
H7A C8A 1_555 1_555
H8A C9A 1_555 1_555
C4A C9A 1_555 1_555
O3A C5A 1_555 1_555
O2A C5A 1_555 1_555
H1A C1A 1_555 1_555
N1A C1A 1_555 1_555
H2A C2A 1_555 1_555
H3A C3A 1_555 1_555
N2A C3A 1_555 1_555
H4A C4A 1_555 1_555
Zn1A O2A 1_555 1_555
Zn1A_2 N1A 1_555 1_555
Zn1A_3 N2A 1_555 1_555
O1A C17 1_555 1_555
O2A_2 Zn1A_2 1_555 1_555
N2A_2 Zn1A_2 1_555 1_555
C22A Co2 1_555 1_555
C20A Co2 1_555 1_555
C19A Co2 1_555 1_555
C18A Co2 1_555 1_555
C21A Co2 1_555 1_555
H16A C22A 1_555 1_555
H14A C20A 1_555 1_555
H13A C19A 1_555 1_555
C17A C18A 1_555 1_555
H15A C21A 1_555 1_555
O1_2 C17A 1_555 1_555
O4A C17A 1_555 1_555
Zn1_2 O1_2 1_555 1_555
C7 C11 1_555 1_555
C9 C12 1_555 1_555
C13 Co1 1_555 1_555
C14 Co1 1_555 1_555
Co1 C15 1_555 1_555
Co1 C16 1_555 1_555
C15 C16 1_555 1_555
C20 Co2 1_555 1_555
Co2 C21 1_555 1_555
Co2 C22 1_555 1_555
C21 C22 1_555 1_555
C10A C13A 1_555 1_555
C10A C14A 1_555 1_555
C13A C15A 1_555 1_555
C15A C16A 1_555 1_555
C16A C14A 1_555 1_555
C2A N1A 1_555 1_555
C4A N2A 1_555 1_555
Zn1A_2 O1A 1_555 1_555
C22A C20A 1_555 1_555
C22A C21A 1_555 1_555
C20A C18A 1_555 1_555
C19A C18A 1_555 1_555
C19A C21A 1_555 1_555

#END
