
#######################################################################
#
#                 Cambridge Crystallographic Data Centre
#                                CCDC 
#
#######################################################################
#
# If this CIF has been generated from an entry in the Cambridge 
# Structural Database, then it will include bibliographic, chemical, 
# crystal, experimental, refinement or atomic coordinate data resulting 
# from the CCDC's data processing and validation procedures.
#
#######################################################################

data_IGETUL
_chemical_formula_moiety         '(C81 H49 Eu3 O20)n'
_symmetry_cell_setting           monoclinic
_symmetry_space_group_name_H-M   'P 2/c'
_symmetry_Int_Tables_number      13
_space_group_name_Hall           '-P 2yc'
loop_
_symmetry_equiv_pos_site_id
_symmetry_equiv_pos_as_xyz
1 x,y,z
2 -x,y,1/2-z
3 -x,-y,-z
4 x,-y,1/2+z
_cell_length_a                   10.8511(6)
_cell_length_b                   28.8803(13)
_cell_length_c                   19.1550(8)
_cell_angle_alpha                90
_cell_angle_beta                 123.902(3)
_cell_angle_gamma                90
_cell_volume                     4982.32
loop_
_atom_site_label
_atom_site_type_symbol
_atom_site_fract_x
_atom_site_fract_y
_atom_site_fract_z
Eu1 Eu 0.21901(5) 0.230076(18) 0.28564(3)
Eu2 Eu -0.5000 -0.29132(3) -0.2500
O1 O 0.1057(9) 0.1691(3) 0.1824(6)
O2 O -0.0799(8) 0.2118(3) 0.1618(4)
O3 O -0.5848(8) -0.2134(2) -0.2378(4)
O4 O 0.3330(11) 0.1613(3) 0.3594(5)
H1 H 0.4450 0.1566 0.4066
H2 H 0.2815 0.1294 0.3514
O5 O 0.2908(9) 0.2763(3) 0.1131(5)
O6 O 0.1624(11) 0.2681(3) 0.1677(5)
O7 O -0.6241(10) 0.6353(3) -0.2942(5)
O8 O 0.3987(9) 0.2555(3) 0.4263(4)
O9 O 0.4177(8) 0.2953(2) 0.3390(3)
O10 O 0.8773(8) 0.7011(3) 0.7051(4)
C1 C -0.3153(15) 0.1068(4) -0.0949(6)
C2 C -0.1697(14) 0.0893(4) -0.0334(7)
H3 H -0.1368 0.0617 -0.0426
C3 C -0.0790(13) 0.1144(5) 0.0399(7)
H4 H 0.0179 0.1046 0.0784
C4 C -0.1309(14) 0.1541(4) 0.0564(6)
C5 C -0.2728(12) 0.1706(4) -0.0023(6)
H5 H -0.3066 0.1973 0.0091
C6 C -0.3631(13) 0.1477(4) -0.0767(7)
H6 H -0.4572 0.1593 -0.1160
C7 C -0.4088(13) 0.0817(4) -0.1757(5)
C8 C -0.5000 0.1051(5) -0.2500
H7 H -0.5000 0.1373 -0.2500
C9 C -0.0320(12) 0.1803(4) 0.1386(6)
C10 C -0.3689(13) -0.0682(4) -0.2010(6)
H8 H -0.2800 -0.0524 -0.1664
C11 C -0.4084(11) 0.0329(4) -0.1759(6)
H9 H -0.3462 0.0168 -0.1260
C12 C -0.5000 0.0087(5) -0.2500
C13 C -0.5000 -0.0430(5) -0.2500
C14 C -0.3677(13) -0.1154(4) -0.2027(7)
H10 H -0.2788 -0.1317 -0.1724
C15 C -0.5000 -0.1381(5) -0.2500
C16 C -0.5000 -0.1900(6) -0.2500
C17 C -0.2358(13) 0.3189(4) -0.1206(6)
C18 C -0.0990(15) 0.3240(5) -0.1090(7)
H11 H -0.0962 0.3380 -0.1519
C19 C 0.0311(15) 0.3102(5) -0.0396(7)
H12 H 0.1202 0.3159 -0.0344
C20 C 0.0304(13) 0.2875(4) 0.0233(6)
C21 C -0.1043(13) 0.2804(5) 0.0149(7)
H13 H -0.1080 0.2671 0.0579
C22 C -0.2335(15) 0.2940(4) -0.0607(7)
H14 H -0.3241 0.2853 -0.0701
C23 C -0.3741(13) 0.3418(4) -0.1904(6)
C24 C -0.5000 0.3162(6) -0.2500
H15 H -0.5000 0.2840 -0.2500
C25 C 0.1690(13) 0.2772(4) 0.1048(6)
C26 C -0.6346(14) 0.4908(4) -0.2861(9)
H16 H -0.7242 0.4749 -0.3111
C27 C -0.3736(12) 0.3887(4) -0.1939(7)
H17 H -0.2855 0.4045 -0.1574
C28 C -0.5000 0.4140(6) -0.2500
C29 C -0.5000 0.4659(6) -0.2500
C30 C -0.6333(15) 0.5381(5) -0.2843(8)
H18 H -0.7220 0.5541 -0.3062
C31 C -0.5000 0.5632(6) -0.2500
C32 C -0.5000 0.6134(5) -0.2500
C33 C 0.7580(13) 0.3800(4) 0.6124(6)
C34 C 0.6990(13) 0.3913(4) 0.5299(6)
H19 H 0.7283 0.4186 0.5173
C35 C 0.5949(14) 0.3622(4) 0.4637(7)
H20 H 0.5544 0.3711 0.4083
C36 C 0.5534(11) 0.3221(4) 0.4792(6)
C37 C 0.6110(12) 0.3107(4) 0.5631(6)
H21 H 0.5793 0.2836 0.5747
C38 C 0.7116(12) 0.3379(4) 0.6278(6)
H22 H 0.7504 0.3287 0.6829
C39 C 0.8820(12) 0.4066(4) 0.6827(5)
C40 C 1.0000 0.3835(6) 0.7500
H23 H 1.0000 0.3513 0.7500
C41 C 0.4466(12) 0.2883(3) 0.4113(6)
C42 C 1.1331(13) 0.5564(4) 0.7831(7)
H24 H 1.2223 0.5407 0.8053
C43 C 0.8820(12) 0.4552(4) 0.6840(6)
H25 H 0.8023 0.4715 0.6401
C44 C 1.0000 0.4789(5) 0.7500
C45 C 1.0000 0.5309(5) 0.7500
C46 C 1.1324(12) 0.6023(4) 0.7829(7)
H26 H 1.2220 0.6178 0.8051
C47 C 1.0000 0.6291(5) 0.7500
C48 C 1.0000 0.6800(5) 0.7500
O1A O -1.1057(9) 0.1691(3) -0.6824(6)
O2A O -0.9201(8) 0.2118(3) -0.6618(4)
O3A O -0.4152(8) -0.2134(2) -0.2622(4)
C1A C -0.6847(15) 0.1068(4) -0.4051(6)
C2A C -0.8303(14) 0.0893(4) -0.4666(7)
H3A H -0.8632 0.0617 -0.4574
C3A C -0.9210(13) 0.1144(5) -0.5399(7)
H4A H -1.0179 0.1046 -0.5784
C4A C -0.8691(14) 0.1541(4) -0.5564(6)
C5A C -0.7272(12) 0.1706(4) -0.4977(6)
H5A H -0.6934 0.1973 -0.5091
C6A C -0.6369(13) 0.1477(4) -0.4233(7)
H6A H -0.5428 0.1593 -0.3840
C7A C -0.5912(13) 0.0817(4) -0.3243(5)
C9A C -0.9680(12) 0.1803(4) -0.6386(6)
C10A C -0.6311(13) -0.0682(4) -0.2990(6)
H8A H -0.7200 -0.0524 -0.3336
C11A C -0.5916(11) 0.0329(4) -0.3241(6)
H9A H -0.6538 0.0168 -0.3740
C14A C -0.6323(13) -0.1154(4) -0.2973(7)
H10A H -0.7212 -0.1317 -0.3276
O5A O -1.2908(9) 0.2763(3) -0.6131(5)
O6A O -1.1624(11) 0.2681(3) -0.6677(5)
O7A O -0.3759(10) 0.6353(3) -0.2058(5)
C17A C -0.7642(13) 0.3189(4) -0.3794(6)
C18A C -0.9010(15) 0.3240(5) -0.3910(7)
H11A H -0.9038 0.3380 -0.3481
C19A C -1.0311(15) 0.3102(5) -0.4604(7)
H12A H -1.1202 0.3159 -0.4656
C20A C -1.0304(13) 0.2875(4) -0.5233(6)
C21A C -0.8957(13) 0.2804(5) -0.5149(7)
H13A H -0.8920 0.2671 -0.5579
C22A C -0.7665(15) 0.2940(4) -0.4393(7)
H14A H -0.6759 0.2853 -0.4299
C23A C -0.6259(13) 0.3418(4) -0.3096(6)
C25A C -1.1690(13) 0.2772(4) -0.6048(6)
C26A C -0.3654(14) 0.4908(4) -0.2139(9)
H16A H -0.2758 0.4749 -0.1889
C27A C -0.6264(12) 0.3887(4) -0.3061(7)
H17A H -0.7145 0.4045 -0.3426
C30A C -0.3667(15) 0.5381(5) -0.2157(8)
H18A H -0.2780 0.5541 -0.1938
O8A O 1.6013(9) 0.2555(3) 1.0737(4)
O9A O 1.5823(8) 0.2953(2) 1.1610(3)
O10A O 1.1227(8) 0.7011(3) 0.7949(4)
C33A C 1.2420(13) 0.3800(4) 0.8876(6)
C34A C 1.3010(13) 0.3913(4) 0.9701(6)
H19A H 1.2717 0.4186 0.9827
C35A C 1.4051(14) 0.3622(4) 1.0363(7)
H20A H 1.4456 0.3711 1.0917
C36A C 1.4466(11) 0.3221(4) 1.0208(6)
C37A C 1.3890(12) 0.3107(4) 0.9369(6)
H21A H 1.4207 0.2836 0.9253
C38A C 1.2884(12) 0.3379(4) 0.8722(6)
H22A H 1.2496 0.3287 0.8171
C39A C 1.1180(12) 0.4066(4) 0.8173(5)
C41A C 1.5534(12) 0.2883(3) 1.0887(6)
C42A C 0.8669(13) 0.5564(4) 0.7169(7)
H24A H 0.7777 0.5407 0.6947
C43A C 1.1180(12) 0.4552(4) 0.8160(6)
H25A H 1.1977 0.4715 0.8599
C46A C 0.8676(12) 0.6023(4) 0.7171(7)
H26A H 0.7780 0.6178 0.6949
Eu1A Eu -1.21901(5) 0.230076(18) -0.78564(3)
O4A O -1.3330(11) 0.1613(3) -0.8594(5)
H1A H -1.4450 0.1566 -0.9066
H2A H -1.2815 0.1294 -0.8514
Eu1_2 Eu -0.78099(5) 0.230076(18) -0.71436(3)
Eu1A_2 Eu -0.21901(5) 0.230076(18) 0.21436(3)
Eu1A_3 Eu 1.78099(5) 0.230076(18) 1.21436(3)
Eu1B Eu -0.21901(5) -0.230076(18) -0.28564(3)
Eu1B_2 Eu 0.78099(5) 0.769924(18) 0.71436(3)
Eu1C Eu -0.78099(5) -0.230076(18) -0.21436(3)
Eu1C_2 Eu 1.21901(5) 0.769924(18) 0.78564(3)
Eu2_2 Eu -0.5000 0.70868(3) -0.2500
Eu2B Eu -1.5000 0.29132(3) -0.7500
Eu2B_2 Eu 0.5000 0.29132(3) 0.2500
Eu2B_3 Eu 1.5000 0.29132(3) 1.2500
O2_2 O -1.0799(8) 0.2118(3) -0.8382(4)
O2A_2 O 0.0799(8) 0.2118(3) 0.3382(4)
O3B O -1.4152(8) 0.2134(2) -0.7622(4)
O3C O 0.4152(8) 0.2134(2) 0.2622(4)
O5B O -0.2908(9) -0.2763(3) -0.1131(5)
O5C O -0.7092(9) -0.2763(3) -0.3869(5)
O7_2 O -0.6241(10) -0.3647(3) -0.2942(5)
O7A_2 O -0.3759(10) -0.3647(3) -0.2058(5)
O8A_2 O -1.3987(9) 0.2555(3) -0.9263(4)
O9A_2 O -1.4177(8) 0.2953(2) -0.8390(3)
O9B O -0.4177(8) -0.2953(2) -0.3390(3)
O9C O -0.5823(8) -0.2953(2) -0.1610(3)
O10B O 0.1227(8) 0.2989(3) 0.2949(4)
O10C O -1.1227(8) 0.2989(3) -0.7949(4)
loop_
_geom_bond_atom_site_label_1
_geom_bond_atom_site_label_2
_geom_bond_site_symmetry_1
_geom_bond_site_symmetry_2
Eu1 O1 1_555 1_555
Eu2 O3 1_555 1_555
O1 C9 1_555 1_555
O2 Eu1 1_555 1_555
O3 C16 1_555 1_555
O4 Eu1 1_555 1_555
H1 O4 1_555 1_555
H2 O4 1_555 1_555
O5 C25 1_555 1_555
O6 Eu1 1_555 1_555
O7 C32 1_555 1_555
O8 Eu1 1_555 1_555
O9 Eu1 1_555 1_555
O10 C48 1_555 1_555
C1 C2 1_555 1_555
C2 H3 1_555 1_555
C3 C2 1_555 1_555
H4 C3 1_555 1_555
C4 C3 1_555 1_555
C5 C4 1_555 1_555
H5 C5 1_555 1_555
C6 C1 1_555 1_555
H6 C6 1_555 1_555
C7 C1 1_555 1_555
C8 C7 1_555 1_555
H7 C8 1_555 1_555
C9 O2 1_555 1_555
C10 H8 1_555 1_555
C11 C7 1_555 1_555
H9 C11 1_555 1_555
C12 C11 1_555 1_555
C13 C10 1_555 1_555
C14 C10 1_555 1_555
H10 C14 1_555 1_555
C15 C14 1_555 1_555
C16 C15 1_555 1_555
C17 C18 1_555 1_555
C18 H11 1_555 1_555
C19 C18 1_555 1_555
H12 C19 1_555 1_555
C20 C19 1_555 1_555
C21 C20 1_555 1_555
H13 C21 1_555 1_555
C22 C17 1_555 1_555
H14 C22 1_555 1_555
C23 C17 1_555 1_555
C24 C23 1_555 1_555
H15 C24 1_555 1_555
C25 O6 1_555 1_555
C26 H16 1_555 1_555
C27 C23 1_555 1_555
H17 C27 1_555 1_555
C28 C27 1_555 1_555
C29 C26 1_555 1_555
C30 C26 1_555 1_555
H18 C30 1_555 1_555
C31 C30 1_555 1_555
C32 C31 1_555 1_555
C33 C34 1_555 1_555
C34 H19 1_555 1_555
C35 C34 1_555 1_555
H20 C35 1_555 1_555
C36 C35 1_555 1_555
C37 C36 1_555 1_555
H21 C37 1_555 1_555
C38 C33 1_555 1_555
H22 C38 1_555 1_555
C39 C33 1_555 1_555
C40 C39 1_555 1_555
H23 C40 1_555 1_555
C41 O8 1_555 1_555
C42 H24 1_555 1_555
C43 C39 1_555 1_555
H25 C43 1_555 1_555
C44 C43 1_555 1_555
C45 C42 1_555 1_555
C46 C42 1_555 1_555
H26 C46 1_555 1_555
C47 C46 1_555 1_555
C48 C47 1_555 1_555
O1A C9A 1_555 1_555
O2A C9A 1_555 1_555
O3A Eu2 1_555 1_555
C1A C2A 1_555 1_555
C2A H3A 1_555 1_555
C3A C2A 1_555 1_555
H4A C3A 1_555 1_555
C4A C3A 1_555 1_555
C5A C4A 1_555 1_555
H5A C5A 1_555 1_555
C6A C1A 1_555 1_555
H6A C6A 1_555 1_555
C7A C8 1_555 1_555
C9A C4A 1_555 1_555
C10A C13 1_555 1_555
H8A C10A 1_555 1_555
C11A C12 1_555 1_555
H9A C11A 1_555 1_555
C14A C15 1_555 1_555
H10A C14A 1_555 1_555
O5A C25A 1_555 1_555
O6A C25A 1_555 1_555
O7A C32 1_555 1_555
C17A C18A 1_555 1_555
C18A H11A 1_555 1_555
C19A C18A 1_555 1_555
H12A C19A 1_555 1_555
C20A C19A 1_555 1_555
C21A C20A 1_555 1_555
H13A C21A 1_555 1_555
C22A C17A 1_555 1_555
H14A C22A 1_555 1_555
C23A C24 1_555 1_555
C25A C20A 1_555 1_555
C26A C29 1_555 1_555
H16A C26A 1_555 1_555
C27A C28 1_555 1_555
H17A C27A 1_555 1_555
C30A C31 1_555 1_555
H18A C30A 1_555 1_555
O8A C41A 1_555 1_555
O9A C41A 1_555 1_555
O10A C48 1_555 1_555
C33A C34A 1_555 1_555
C34A H19A 1_555 1_555
C35A C34A 1_555 1_555
H20A C35A 1_555 1_555
C36A C35A 1_555 1_555
C37A C36A 1_555 1_555
H21A C37A 1_555 1_555
C38A C33A 1_555 1_555
H22A C38A 1_555 1_555
C39A C40 1_555 1_555
C41A C36A 1_555 1_555
C42A C45 1_555 1_555
H24A C42A 1_555 1_555
C43A C44 1_555 1_555
H25A C43A 1_555 1_555
C46A C47 1_555 1_555
H26A C46A 1_555 1_555
Eu1A O1A 1_555 1_555
O4A Eu1A 1_555 1_555
H1A O4A 1_555 1_555
H2A O4A 1_555 1_555
Eu1_2 O2A 1_555 1_555
Eu1A_2 O2 1_555 1_555
Eu1A_3 O8A 1_555 1_555
Eu1B O3A 1_555 1_555
Eu1B_2 O10 1_555 1_555
Eu1C O3 1_555 1_555
Eu1C_2 O10A 1_555 1_555
Eu2_2 O7 1_555 1_555
Eu2B O5A 1_555 1_555
Eu2B_2 O5 1_555 1_555
Eu2B_3 O9A 1_555 1_555
O2_2 Eu1A 1_555 1_555
O2A_2 Eu1 1_555 1_555
O3B Eu1A 1_555 1_555
O3C Eu1 1_555 1_555
O5B Eu2 1_555 1_555
O5C Eu2 1_555 1_555
O7_2 Eu2 1_555 1_555
O7A_2 Eu2 1_555 1_555
O8A_2 Eu1A 1_555 1_555
O9A_2 Eu1A 1_555 1_555
O9B Eu2 1_555 1_555
O9C Eu2 1_555 1_555
O10B Eu1 1_555 1_555
O10C Eu1A 1_555 1_555
O9 C41 1_555 1_555
O9 Eu2B_2 1_555 1_555
C4 C9 1_555 1_555
C5 C6 1_555 1_555
C12 C13 1_555 1_555
C16 O3A 1_555 1_555
C20 C25 1_555 1_555
C21 C22 1_555 1_555
C28 C29 1_555 1_555
C36 C41 1_555 1_555
C37 C38 1_555 1_555
C44 C45 1_555 1_555
O2A Eu1A 1_555 1_555
C1A C7A 1_555 1_555
C5A C6A 1_555 1_555
C7A C11A 1_555 1_555
C10A C14A 1_555 1_555
O6A Eu1A 1_555 1_555
O7A Eu2_2 1_555 1_555
C17A C23A 1_555 1_555
C21A C22A 1_555 1_555
C23A C27A 1_555 1_555
C26A C30A 1_555 1_555
O9A Eu1A_3 1_555 1_555
C33A C39A 1_555 1_555
C37A C38A 1_555 1_555
C39A C43A 1_555 1_555
C42A C46A 1_555 1_555
Eu1_2 O2_2 1_555 1_555
Eu1A_2 O2A_2 1_555 1_555
Eu1B O9B 1_555 1_555
Eu1C O9C 1_555 1_555
Eu2B O3B 1_555 1_555
Eu2B O9A_2 1_555 1_555
Eu2B_2 O3C 1_555 1_555

#END
