
#######################################################################
#
#                 Cambridge Crystallographic Data Centre
#                                CCDC 
#
#######################################################################
#
# If this CIF has been generated from an entry in the Cambridge 
# Structural Database, then it will include bibliographic, chemical, 
# crystal, experimental, refinement or atomic coordinate data resulting 
# from the CCDC's data processing and validation procedures.
#
#######################################################################

data_JILWOR
_chemical_formula_moiety         'C14 H6 Al44 N2 O125 P24 1+'
_symmetry_cell_setting           cubic
_symmetry_space_group_name_H-M   'P n -3 n'
_symmetry_Int_Tables_number      222
_space_group_name_Hall           '-P 4a 2bc 3'
loop_
_symmetry_equiv_pos_site_id
_symmetry_equiv_pos_as_xyz
1 x,y,z
2 z,x,y
3 y,z,x
4 y,x,1/2-z
5 y,1/2-x,z
6 1/2-y,x,z
7 x,z,1/2-y
8 1/2-x,z,y
9 x,1/2-z,y
10 z,y,1/2-x
11 z,1/2-y,x
12 1/2-z,y,x
13 1/2-x,1/2-y,z
14 1/2-x,y,1/2-z
15 x,1/2-y,1/2-z
16 z,1/2-x,1/2-y
17 1/2-z,1/2-x,y
18 1/2-z,x,1/2-y
19 1/2-y,z,1/2-x
20 y,1/2-z,1/2-x
21 1/2-y,1/2-z,x
22 1/2-y,1/2-x,1/2-z
23 1/2-x,1/2-z,1/2-y
24 1/2-z,1/2-y,1/2-x
25 -x,-y,-z
26 -z,-x,-y
27 -y,-z,-x
28 -y,-x,1/2+z
29 -y,1/2+x,-z
30 1/2+y,-x,-z
31 -x,-z,1/2+y
32 1/2+x,-z,-y
33 -x,1/2+z,-y
34 -z,-y,1/2+x
35 -z,1/2+y,-x
36 1/2+z,-y,-x
37 1/2+x,1/2+y,-z
38 1/2+x,-y,1/2+z
39 -x,1/2+y,1/2+z
40 -z,1/2+x,1/2+y
41 1/2+z,1/2+x,-y
42 1/2+z,-x,1/2+y
43 1/2+y,-z,1/2+x
44 -y,1/2+z,1/2+x
45 1/2+y,1/2+z,-x
46 1/2+y,1/2+x,1/2+z
47 1/2+x,1/2+z,1/2+y
48 1/2+z,1/2+y,1/2+x
_cell_length_a                   18.9056(17)
_cell_length_b                   18.9056(17)
_cell_length_c                   18.9056(17)
_cell_angle_alpha                90
_cell_angle_beta                 90
_cell_angle_gamma                90
_cell_volume                     6757.27
loop_
_atom_site_label
_atom_site_type_symbol
_atom_site_fract_x
_atom_site_fract_y
_atom_site_fract_z
N2 N -0.2500 0.7500 0.7500
O1 O -0.130(4) 0.630(4) 0.630(4)
P1 P 0.07081(16) 0.55166(13) 0.66723(14)
Al1 Al -0.04564(15) 0.43172(16) 0.66597(16)
O2 O -0.0003(4) 0.5143(4) 0.6602(4)
O3 O 0.0644(4) 0.6211(4) 0.6295(4)
O4 O 0.0866(5) 0.5665(4) 0.7445(4)
O5 O 0.1294(4) 0.5079(4) 0.6367(4)
P1P P -0.16723(14) 0.42919(16) 0.55166(13)
P1U P -0.05166(13) 0.42919(16) 0.83277(14)
P1PA P 0.05166(13) 0.33277(14) 0.57081(16)
P1R P -0.05166(13) 0.66723(14) 0.42919(16)
P1I P -0.33277(14) 0.55166(13) 0.42919(16)
P1X P -0.07081(16) 0.44834(13) 0.33277(14)
P1F P 0.07081(16) 0.66723(14) 0.94834(13)
P1IA P 0.16723(14) 0.44834(13) 0.92919(16)
P1FA P -0.07081(16) 0.16723(14) 0.44834(13)
P1H P 0.07081(16) 0.83277(14) 0.55166(13)
P1NA P 0.16723(14) 0.57081(16) 0.44834(13)
P1K P -0.16723(14) 0.55166(13) 1.07081(16)
P1O P -0.33277(14) 0.42919(16) 0.94834(13)
P1DA P -0.07081(16) 0.33277(14) 1.05166(13)
P1GA P 0.33277(14) 0.44834(13) 0.57081(16)
P1D P -0.44834(13) 0.42919(16) 0.66723(14)
P1EA P -0.42919(16) 0.33277(14) 0.44834(13)
P1UA P 0.16723(14) 0.05166(13) 0.57081(16)
P1E P -0.05166(13) 0.07081(16) 0.66723(14)
P1RA P 0.05166(13) 0.16723(14) 0.92919(16)
P1SA P 0.05166(13) 0.57081(16) 0.16723(14)
P1T P -0.05166(13) 0.83277(14) 1.07081(16)
P1SA_2 P 0.05166(13) 0.57081(16) 1.16723(14)
Al1P Al -0.16597(16) 0.54564(15) 0.43172(16)
Al1U Al 0.06828(16) 0.54564(15) 0.83403(16)
Al1PA Al -0.06828(16) 0.33403(16) 0.45436(15)
Al1R Al 0.06828(16) 0.66597(16) 0.54564(15)
Al1K Al -0.16597(16) 0.43172(16) 0.95436(15)
Al1NA Al 0.16597(16) 0.45436(15) 0.56828(16)
Al1I Al -0.33403(16) 0.43172(16) 0.54564(15)
Al1FA Al 0.04564(15) 0.16597(16) 0.56828(16)
Al1DA Al 0.04564(15) 0.33403(16) 0.93172(16)
Al1X Al 0.04564(15) 0.56828(16) 0.33403(16)
Al1F Al -0.04564(15) 0.66597(16) 1.06828(16)
Al1IA Al 0.16597(16) 0.56828(16) 1.04564(15)
Al1H Al -0.04564(15) 0.83403(16) 0.43172(16)
Al1O Al -0.33403(16) 0.54564(15) 1.06828(16)
Al1GA Al 0.33403(16) 0.56828(16) 0.45436(15)
Al1D Al -0.56828(16) 0.54564(15) 0.66597(16)
Al1EA Al -0.54564(15) 0.33403(16) 0.56828(16)
Al1UA Al 0.16597(16) -0.06828(16) 0.45436(15)
Al1E Al 0.06828(16) -0.04564(15) 0.66597(16)
Al1RA Al -0.06828(16) 0.16597(16) 1.04564(15)
Al1G Al -0.45436(15) 0.66597(16) 0.43172(16)
Al1CA Al -0.06828(16) 0.04564(15) 0.33403(16)
Al1E_2 Al 0.06828(16) 0.95436(15) 0.66597(16)
Al1BA Al -0.43172(16) 0.45436(15) 0.33403(16)
Al1SA Al -0.06828(16) 0.45436(15) 0.16597(16)
Al1T Al 0.06828(16) 0.83403(16) 0.95436(15)
Al1MA Al 0.33403(16) 0.45436(15) 0.93172(16)
Al1W Al -0.16597(16) 0.06828(16) 0.54564(15)
Al1UA_2 Al 0.16597(16) 0.93172(16) 0.45436(15)
Al1SA_2 Al -0.06828(16) 0.45436(15) 1.16597(16)
Al1M Al -0.45436(15) 0.43172(16) 0.83403(16)
Al1Z Al -0.43172(16) 0.33403(16) 1.04564(15)
Al1EA_2 Al 0.45436(15) 0.33403(16) 0.56828(16)
Al1D_2 Al 0.43172(16) 0.54564(15) 0.66597(16)
Al1QA Al -0.43172(16) 0.16597(16) 0.45436(15)
Al1Y Al 0.33403(16) 0.04564(15) 0.56828(16)
Al1N Al -0.04564(15) 0.06828(16) 0.83403(16)
Al1OA Al 0.16597(16) 0.04564(15) 0.93172(16)
Al1IA_2 Al 0.16597(16) 0.56828(16) 0.04564(15)
Al1F_2 Al -0.04564(15) 0.66597(16) 0.06828(16)
Al1Q Al -0.16597(16) 0.95436(15) 1.06828(16)
Al1LA Al 0.04564(15) 0.93172(16) 1.16597(16)
Al1X_2 Al 0.04564(15) 0.56828(16) 1.33403(16)
O2P O -0.1602(4) 0.5003(4) 0.5143(4)
O2U O -0.0143(4) 0.5003(4) 0.8398(4)
O2PA O 0.0143(4) 0.3398(4) 0.4997(4)
O2R O -0.0143(4) 0.6602(4) 0.5003(4)
O2I O -0.3398(4) 0.5143(4) 0.5003(4)
O2X O 0.0003(4) 0.4857(4) 0.3398(4)
O2F O -0.0003(4) 0.6602(4) 0.9857(4)
O2IA O 0.1602(4) 0.4857(4) 1.0003(4)
O2FA O 0.0003(4) 0.1602(4) 0.4857(4)
O2H O -0.0003(4) 0.8398(4) 0.5143(4)
O2NA O 0.1602(4) 0.4997(4) 0.4857(4)
O2K O -0.1602(4) 0.5143(4) 0.9997(4)
O2O O -0.3398(4) 0.5003(4) 0.9857(4)
O2DA O 0.0003(4) 0.3398(4) 1.0143(4)
O2GA O 0.3398(4) 0.4857(4) 0.4997(4)
O2D O -0.4857(4) 0.5003(4) 0.6602(4)
O2EA O -0.5003(4) 0.3398(4) 0.4857(4)
O2UA O 0.1602(4) 0.0143(4) 0.4997(4)
O2E O -0.0143(4) -0.0003(4) 0.6602(4)
O2RA O 0.0143(4) 0.1602(4) 1.0003(4)
O2SA O 0.0143(4) 0.4997(4) 0.1602(4)
O2T O -0.0143(4) 0.8398(4) 0.9997(4)
O2SA_2 O 0.0143(4) 0.4997(4) 1.1602(4)
O2G O -0.4997(4) 0.6602(4) 0.5143(4)
O2CA O 0.0143(4) 0.0003(4) 0.3398(4)
O2E_2 O -0.0143(4) 0.9997(4) 0.6602(4)
O3P O -0.1295(4) 0.4356(4) 0.6211(4)
O3U O -0.1211(4) 0.4356(4) 0.8705(4)
O3PA O 0.1211(4) 0.3705(4) 0.5644(4)
O3R O -0.1211(4) 0.6295(4) 0.4356(4)
O3I O -0.3705(4) 0.6211(4) 0.4356(4)
O3X O -0.0644(4) 0.3789(4) 0.3705(4)
O3F O 0.0644(4) 0.6295(4) 0.8789(4)
O3IA O 0.1295(4) 0.3789(4) 0.9356(4)
O3FA O -0.0644(4) 0.1295(4) 0.3789(4)
O3H O 0.0644(4) 0.8705(4) 0.6211(4)
O3NA O 0.1295(4) 0.5644(4) 0.3789(4)
O3K O -0.1295(4) 0.6211(4) 1.0644(4)
O3O O -0.3705(4) 0.4356(4) 0.8789(4)
O3DA O -0.0644(4) 0.3705(4) 1.1211(4)
O3GA O 0.3705(4) 0.3789(4) 0.5644(4)
O3D O -0.3789(4) 0.4356(4) 0.6295(4)
O3EA O -0.4356(4) 0.3705(4) 0.3789(4)
O3UA O 0.1295(4) 0.1211(4) 0.5644(4)
O3E O -0.1211(4) 0.0644(4) 0.6295(4)
O3RA O 0.1211(4) 0.1295(4) 0.9356(4)
O3SA O 0.1211(4) 0.5644(4) 0.1295(4)
O3T O -0.1211(4) 0.8705(4) 1.0644(4)
O3SA_2 O 0.1211(4) 0.5644(4) 1.1295(4)
O3W O -0.1295(4) 0.8789(4) 0.4356(4)
O3B O -0.3789(4) 0.6295(4) 1.0644(4)
O3BA O 0.3789(4) 0.5644(4) 0.3705(4)
O3G O -0.5644(4) 0.6295(4) 0.6211(4)
O3GA_2 O -0.6295(4) 0.3789(4) 0.5644(4)
O3CA O 0.1211(4) -0.0644(4) 0.3705(4)
O3H_2 O 0.0644(4) -0.1295(4) 0.6211(4)
O3LA O -0.0644(4) 0.1211(4) 1.1295(4)
O4P O -0.2445(4) 0.4134(5) 0.5665(4)
O4U O -0.0665(4) 0.4134(5) 0.7555(4)
O4PA O 0.0665(4) 0.2555(4) 0.5866(5)
O4R O -0.0665(4) 0.7445(4) 0.4134(5)
O4I O -0.2555(4) 0.5665(4) 0.4134(5)
O4X O -0.0866(5) 0.4335(4) 0.2555(4)
O4F O 0.0866(5) 0.7445(4) 0.9335(4)
O4IA O 0.2445(4) 0.4335(4) 0.9134(5)
O4FA O -0.0866(5) 0.2445(4) 0.4335(4)
O4H O 0.0866(5) 0.7555(4) 0.5665(4)
O4NA O 0.2445(4) 0.5866(5) 0.4335(4)
O4K O -0.2445(4) 0.5665(4) 1.0866(5)
O4O O -0.2555(4) 0.4134(5) 0.9335(4)
O4DA O -0.0866(5) 0.2555(4) 1.0665(4)
O4GA O 0.2555(4) 0.4335(4) 0.5866(5)
O4D O -0.4335(4) 0.4134(5) 0.7445(4)
O4EA O -0.4134(5) 0.2555(4) 0.4335(4)
O4UA O 0.2445(4) 0.0665(4) 0.5866(5)
O4E O -0.0665(4) 0.0866(5) 0.7445(4)
O4RA O 0.0665(4) 0.2445(4) 0.9134(5)
O4SA O 0.0665(4) 0.5866(5) 0.2445(4)
O4T O -0.0665(4) 0.7555(4) 1.0866(5)
O4SA_2 O 0.0665(4) 0.5866(5) 1.2445(4)
O4MA O 0.2555(4) 0.5866(5) 1.0665(4)
O4M O -0.5866(5) 0.5665(4) 0.7555(4)
O4QA O -0.5665(4) 0.2445(4) 0.5866(5)
O4Y O 0.2555(4) -0.0866(5) 0.4335(4)
O4N O 0.0866(5) -0.0665(4) 0.7555(4)
O4S O -0.4335(4) 0.7555(4) 0.4134(5)
O4LA O -0.0866(5) 0.0665(4) 0.2445(4)
O4N_2 O 0.0866(5) 0.9335(4) 0.7555(4)
O5P O -0.1367(4) 0.3706(4) 0.5079(4)
O5U O -0.0079(4) 0.3706(4) 0.8633(4)
O5PA O 0.0079(4) 0.3633(4) 0.6294(4)
O5R O -0.0079(4) 0.6367(4) 0.3706(4)
O5I O -0.3633(4) 0.5079(4) 0.3706(4)
O5X O -0.1294(4) 0.4921(4) 0.3633(4)
O5F O 0.1294(4) 0.6367(4) 0.9921(4)
O5IA O 0.1367(4) 0.4921(4) 0.8706(4)
O5FA O -0.1294(4) 0.1367(4) 0.4921(4)
O5H O 0.1294(4) 0.8633(4) 0.5079(4)
O5NA O 0.1367(4) 0.6294(4) 0.4921(4)
O5K O -0.1367(4) 0.5079(4) 1.1294(4)
O5O O -0.3633(4) 0.3706(4) 0.9921(4)
O5DA O -0.1294(4) 0.3633(4) 1.0079(4)
O5GA O 0.3633(4) 0.4921(4) 0.6294(4)
O5D O -0.4921(4) 0.3706(4) 0.6367(4)
O5EA O -0.3706(4) 0.3633(4) 0.4921(4)
O5UA O 0.1367(4) 0.0079(4) 0.6294(4)
O5E O -0.0079(4) 0.1294(4) 0.6367(4)
O5RA O 0.0079(4) 0.1367(4) 0.8706(4)
O5SA O 0.0079(4) 0.6294(4) 0.1367(4)
O5T O -0.0079(4) 0.8633(4) 1.1294(4)
O5SA_2 O 0.0079(4) 0.6294(4) 1.1367(4)
O5CA O 0.0079(4) 0.8706(4) 0.3633(4)
O5KA O -0.3706(4) 0.4921(4) 1.1367(4)
O5G O 0.3706(4) 0.6367(4) 0.5079(4)
O5GA_2 O -0.6367(4) 0.4921(4) 0.6294(4)
O5H_2 O 0.1294(4) -0.1367(4) 0.5079(4)
O5Q O -0.1367(4) 0.1294(4) 0.9921(4)
O5BA O -0.5079(4) 0.6294(4) 0.3633(4)
O5W O -0.1367(4) -0.0079(4) 0.3706(4)
O5UA_2 O 0.1367(4) 1.0079(4) 0.6294(4)
N1 N -0.2500 0.2500 0.7500
C1 C -0.2059(18) 0.3023(16) 0.7046(18)
C2 C -0.1525(11) 0.2500 0.6525(11)
C3 C -0.2500 0.387(3) 0.7500
C1I C -0.2954(18) 0.3023(16) 0.7059(18)
C1J C -0.2954(18) 0.1977(16) 0.7941(18)
C1L C -0.2941(18) 0.1977(16) 0.7046(18)
C1K C -0.2046(18) 0.3023(16) 0.7941(18)
C1W C -0.2046(18) 0.1977(16) 0.7059(18)
C1M C -0.2941(18) 0.3023(16) 0.7954(18)
C1N C -0.2059(18) 0.1977(16) 0.7954(18)
C2J C -0.3475(11) 0.2500 0.8475(11)
C2K C -0.1525(11) 0.2500 0.8475(11)
C2I C -0.3475(11) 0.2500 0.6525(11)
C3J C -0.2500 0.113(3) 0.7500
loop_
_geom_bond_atom_site_label_1
_geom_bond_atom_site_label_2
_geom_bond_site_symmetry_1
_geom_bond_site_symmetry_2
N1 C1 1_555 1_555
C1 C2 1_555 1_555
C2 C1W 1_555 1_555
C3 C1 1_555 1_555
P1 O2 1_555 1_555
Al1 O2 1_555 1_555
O3 P1 1_555 1_555
O4 P1 1_555 1_555
O5 P1 1_555 1_555
C1I N1 1_555 1_555
C1J N1 1_555 1_555
C1L N1 1_555 1_555
C1K N1 1_555 1_555
C1W N1 1_555 1_555
C1M N1 1_555 1_555
C1N N1 1_555 1_555
C2J C1J 1_555 1_555
C2K C1K 1_555 1_555
C2I C1I 1_555 1_555
C3J C1J 1_555 1_555
P1P O2P 1_555 1_555
P1U O2U 1_555 1_555
P1PA O2PA 1_555 1_555
P1R O2R 1_555 1_555
P1I O2I 1_555 1_555
P1X O2X 1_555 1_555
P1F O2F 1_555 1_555
P1IA O2IA 1_555 1_555
P1FA O2FA 1_555 1_555
P1H O2H 1_555 1_555
P1NA O2NA 1_555 1_555
P1K O2K 1_555 1_555
P1O O2O 1_555 1_555
P1DA O2DA 1_555 1_555
P1GA O2GA 1_555 1_555
P1D O2D 1_555 1_555
P1EA O2EA 1_555 1_555
P1UA O2UA 1_555 1_555
P1E O2E 1_555 1_555
P1RA O2RA 1_555 1_555
P1SA O2SA 1_555 1_555
P1T O2T 1_555 1_555
P1SA_2 O2SA_2 1_555 1_555
Al1P O2P 1_555 1_555
Al1U O4 1_555 1_555
Al1PA O2PA 1_555 1_555
Al1R O3 1_555 1_555
Al1K O2K 1_555 1_555
Al1NA O5 1_555 1_555
Al1I O2I 1_555 1_555
Al1FA O2FA 1_555 1_555
Al1DA O2DA 1_555 1_555
Al1X O2X 1_555 1_555
Al1F O2F 1_555 1_555
Al1IA O2IA 1_555 1_555
Al1H O2H 1_555 1_555
Al1O O2O 1_555 1_555
Al1GA O2GA 1_555 1_555
Al1D O2D 1_555 1_555
Al1EA O2EA 1_555 1_555
Al1UA O2UA 1_555 1_555
Al1E O2E 1_555 1_555
Al1RA O2RA 1_555 1_555
Al1G O2G 1_555 1_555
Al1CA O2CA 1_555 1_555
Al1E_2 O2E_2 1_555 1_555
Al1BA O3EA 1_555 1_555
Al1SA O2SA 1_555 1_555
Al1T O2T 1_555 1_555
Al1MA O4IA 1_555 1_555
Al1W O3E 1_555 1_555
Al1UA_2 O5H 1_555 1_555
Al1SA_2 O2SA_2 1_555 1_555
Al1M O3O 1_555 1_555
Al1Z O5O 1_555 1_555
Al1EA_2 O3GA 1_555 1_555
Al1D_2 O5GA 1_555 1_555
Al1QA O4EA 1_555 1_555
Al1Y O4UA 1_555 1_555
Al1N O4E 1_555 1_555
Al1OA O3RA 1_555 1_555
Al1IA_2 O3SA 1_555 1_555
Al1F_2 O5SA 1_555 1_555
Al1Q O3T 1_555 1_555
Al1LA O5T 1_555 1_555
Al1X_2 O4SA_2 1_555 1_555
O2U Al1U 1_555 1_555
O2R Al1R 1_555 1_555
O2NA Al1NA 1_555 1_555
O3P Al1 1_555 1_555
O3U P1U 1_555 1_555
O3PA P1PA 1_555 1_555
O3R P1R 1_555 1_555
O3I P1I 1_555 1_555
O3X P1X 1_555 1_555
O3F P1F 1_555 1_555
O3IA P1IA 1_555 1_555
O3FA P1FA 1_555 1_555
O3H P1H 1_555 1_555
O3NA P1NA 1_555 1_555
O3K P1K 1_555 1_555
O3O P1O 1_555 1_555
O3DA P1DA 1_555 1_555
O3GA P1GA 1_555 1_555
O3D P1D 1_555 1_555
O3EA P1EA 1_555 1_555
O3UA P1UA 1_555 1_555
O3E P1E 1_555 1_555
O3RA P1RA 1_555 1_555
O3SA P1SA 1_555 1_555
O3T P1T 1_555 1_555
O3SA_2 P1SA_2 1_555 1_555
O3W Al1H 1_555 1_555
O3B Al1O 1_555 1_555
O3BA Al1GA 1_555 1_555
O3G Al1D 1_555 1_555
O3GA_2 Al1EA 1_555 1_555
O3CA Al1UA 1_555 1_555
O3H_2 Al1E 1_555 1_555
O3LA Al1RA 1_555 1_555
O4P P1P 1_555 1_555
O4U Al1 1_555 1_555
O4PA P1PA 1_555 1_555
O4R P1R 1_555 1_555
O4I P1I 1_555 1_555
O4X P1X 1_555 1_555
O4F P1F 1_555 1_555
O4IA P1IA 1_555 1_555
O4FA P1FA 1_555 1_555
O4H P1H 1_555 1_555
O4NA P1NA 1_555 1_555
O4K P1K 1_555 1_555
O4O P1O 1_555 1_555
O4DA P1DA 1_555 1_555
O4GA P1GA 1_555 1_555
O4D P1D 1_555 1_555
O4EA P1EA 1_555 1_555
O4UA P1UA 1_555 1_555
O4E P1E 1_555 1_555
O4RA P1RA 1_555 1_555
O4SA P1SA 1_555 1_555
O4T P1T 1_555 1_555
O4SA_2 P1SA_2 1_555 1_555
O4MA Al1IA 1_555 1_555
O4M Al1D 1_555 1_555
O4QA Al1EA 1_555 1_555
O4Y Al1UA 1_555 1_555
O4N Al1E 1_555 1_555
O4S Al1G 1_555 1_555
O4LA Al1CA 1_555 1_555
O4N_2 Al1E_2 1_555 1_555
O5P P1P 1_555 1_555
O5U P1U 1_555 1_555
O5PA Al1 1_555 1_555
O5R P1R 1_555 1_555
O5I P1I 1_555 1_555
O5X P1X 1_555 1_555
O5F P1F 1_555 1_555
O5IA P1IA 1_555 1_555
O5FA P1FA 1_555 1_555
O5H P1H 1_555 1_555
O5NA P1NA 1_555 1_555
O5K P1K 1_555 1_555
O5O P1O 1_555 1_555
O5DA P1DA 1_555 1_555
O5GA P1GA 1_555 1_555
O5D P1D 1_555 1_555
O5EA P1EA 1_555 1_555
O5UA P1UA 1_555 1_555
O5E P1E 1_555 1_555
O5RA P1RA 1_555 1_555
O5SA P1SA 1_555 1_555
O5T P1T 1_555 1_555
O5SA_2 P1SA_2 1_555 1_555
O5CA Al1H 1_555 1_555
O5KA Al1O 1_555 1_555
O5G Al1GA 1_555 1_555
O5GA_2 Al1D 1_555 1_555
O5H_2 Al1UA 1_555 1_555
O5Q Al1RA 1_555 1_555
O5BA Al1G 1_555 1_555
O5W Al1CA 1_555 1_555
O5UA_2 Al1E_2 1_555 1_555
C1 C1I 1_555 1_555
C1 C1K 1_555 1_555
C1 C1W 1_555 1_555
C3 C1I 1_555 1_555
C3 C1K 1_555 1_555
C3 C1M 1_555 1_555
C1I C1L 1_555 1_555
C1I C1M 1_555 1_555
C1J C1L 1_555 1_555
C1J C1M 1_555 1_555
C1J C1N 1_555 1_555
C1L C1W 1_555 1_555
C1L C2I 1_555 1_555
C1L C3J 1_555 1_555
C1K C1M 1_555 1_555
C1K C1N 1_555 1_555
C1W C1N 1_555 1_555
C1W C3J 1_555 1_555
C1M C2J 1_555 1_555
C1N C2K 1_555 1_555
C1N C3J 1_555 1_555
P1P O3P 1_555 1_555
P1U O4U 1_555 1_555
P1PA O5PA 1_555 1_555
Al1P O3R 1_555 1_555
Al1P O4I 1_555 1_555
Al1P O5X 1_555 1_555
Al1U O3F 1_555 1_555
Al1U O5IA 1_555 1_555
Al1PA O3X 1_555 1_555
Al1PA O4FA 1_555 1_555
Al1PA O5P 1_555 1_555
Al1R O4H 1_555 1_555
Al1R O5NA 1_555 1_555
Al1K O3U 1_555 1_555
Al1K O4O 1_555 1_555
Al1K O5DA 1_555 1_555
Al1NA O3PA 1_555 1_555
Al1NA O4GA 1_555 1_555
Al1I O3D 1_555 1_555
Al1I O4P 1_555 1_555
Al1I O5EA 1_555 1_555
Al1FA O3UA 1_555 1_555
Al1FA O4PA 1_555 1_555
Al1FA O5E 1_555 1_555
Al1DA O3IA 1_555 1_555
Al1DA O4RA 1_555 1_555
Al1DA O5U 1_555 1_555
Al1X O3NA 1_555 1_555
Al1X O4SA 1_555 1_555
Al1X O5R 1_555 1_555
Al1F O3K 1_555 1_555
Al1F O4T 1_555 1_555
Al1F O5SA_2 1_555 1_555
Al1IA O3SA_2 1_555 1_555
Al1IA O5F 1_555 1_555
Al1H O4R 1_555 1_555
Al1O O4K 1_555 1_555
Al1GA O4NA 1_555 1_555
Al1EA O5D 1_555 1_555
Al1E O5UA 1_555 1_555
Al1RA O4DA 1_555 1_555
Al1G O3I 1_555 1_555
Al1CA O3FA 1_555 1_555
Al1E_2 O3H 1_555 1_555
Al1BA O5I 1_555 1_555
Al1SA O4X 1_555 1_555
Al1T O4F 1_555 1_555
Al1W O5FA 1_555 1_555
Al1SA_2 O3DA 1_555 1_555
Al1SA_2 O5K 1_555 1_555
Al1M O4D 1_555 1_555
Al1N O5RA 1_555 1_555

#END
