
#######################################################################
#
#                 Cambridge Crystallographic Data Centre
#                                CCDC 
#
#######################################################################
#
# If this CIF has been generated from an entry in the Cambridge 
# Structural Database, then it will include bibliographic, chemical, 
# crystal, experimental, refinement or atomic coordinate data resulting 
# from the CCDC's data processing and validation procedures.
#
#######################################################################

data_JILWIL
_chemical_formula_moiety         '(C8 H28 Al12 N1 O52 P12 2-)n'
_symmetry_cell_setting           tetragonal
_symmetry_space_group_name_H-M   'P 4/n'
_symmetry_Int_Tables_number      85
_space_group_name_Hall           '-P 4a'
loop_
_symmetry_equiv_pos_site_id
_symmetry_equiv_pos_as_xyz
1 x,y,z
2 1/2-y,x,z
3 y,1/2-x,z
4 1/2-x,1/2-y,z
5 -x,-y,-z
6 1/2+y,-x,-z
7 -y,1/2+x,-z
8 1/2+x,1/2+y,-z
_cell_length_a                   18.656(15)
_cell_length_b                   18.656(15)
_cell_length_c                   9.378(7)
_cell_angle_alpha                90
_cell_angle_beta                 90
_cell_angle_gamma                90
_cell_volume                     3263.98
loop_
_atom_site_label
_atom_site_type_symbol
_atom_site_fract_x
_atom_site_fract_y
_atom_site_fract_z
O1 O 0.750(2) 0.002(2) -0.532(4)
O2 O 0.869(2) -0.132(2) 0.212(4)
O3 O 0.7500 -0.2500 -0.346(14)
O4 O 0.7500 -0.2500 -0.15(4)
P1 P 1.06709(11) -0.16619(11) 0.09038(18)
O5 O 0.9976(3) -0.1575(3) 0.0038(5)
O6 O 1.0570(3) -0.1294(3) 0.2344(5)
O7 O 1.1307(3) -0.1338(3) 0.0100(5)
O8 O 1.0828(3) -0.2446(3) 0.1186(5)
Al1 Al 0.95449(13) -0.16578(12) -0.1586(2)
P2 P 0.83429(11) -0.04915(11) -0.1603(2)
O9 O 0.8725(3) -0.1229(3) -0.1562(5)
O10 O 0.8422(3) -0.0143(3) -0.0115(5)
O11 O 0.7548(3) -0.0615(3) -0.1970(6)
O12 O 0.8664(3) -0.0007(3) -0.2791(6)
Al2 Al 1.16654(13) -0.06388(13) -0.0856(2)
P3 P 1.05613(11) -0.06562(11) -0.33634(19)
O13 O 1.1251(3) -0.0600(3) -0.2483(5)
O14 O 1.0162(3) 0.0057(3) -0.3231(5)
O15 O 1.0098(3) -0.1286(3) -0.2885(5)
O16 O 1.0778(3) -0.0782(3) -0.4923(5)
Al3 Al 1.06386(13) -0.05199(13) 0.3345(2)
P1E P 1.33381(11) -0.06709(11) -0.09038(18)
P1B P 0.83381(11) -0.56709(11) 0.09038(18)
P1A P 0.66619(11) 0.06709(11) 0.09038(18)
O5E O 1.3425(3) 0.0024(3) -0.0038(5)
O5B O 0.8425(3) -0.4976(3) 0.0038(5)
O5A O 0.6575(3) -0.0024(3) 0.0038(5)
O6E O 1.3706(3) -0.0570(3) -0.2344(5)
O6B O 0.8706(3) -0.5570(3) 0.2344(5)
O6A O 0.6294(3) 0.0570(3) 0.2344(5)
O6D O 0.9430(3) 0.1294(3) -0.2344(5)
O6F O 1.1294(3) -0.4430(3) -0.2344(5)
O6_2 O 1.0570(3) -0.1294(3) -0.7656(5)
O7E O 1.3662(3) -0.1307(3) -0.0100(5)
O7B O 0.8662(3) -0.6307(3) 0.0100(5)
O7A O 0.6338(3) 0.1307(3) 0.0100(5)
O7F O 1.1338(3) -0.3693(3) -0.0100(5)
O7D O 0.8693(3) 0.1338(3) -0.0100(5)
O8E O 1.2554(3) -0.0828(3) -0.1186(5)
O8B O 0.7554(3) -0.5828(3) 0.1186(5)
O8A O 0.7446(3) 0.0828(3) 0.1186(5)
O8C O 1.4172(3) -0.2554(3) 0.1186(5)
Al1B Al 0.83422(12) -0.45449(13) -0.1586(2)
Al1A Al 0.66578(12) -0.04551(13) -0.1586(2)
Al1E Al 1.33422(12) 0.04551(13) 0.1586(2)
Al1D Al 1.04551(13) 0.16578(12) 0.1586(2)
Al1_2 Al 0.95449(13) -0.16578(12) 0.8414(2)
Al1C Al 0.54551(13) -0.33422(12) -0.1586(2)
P2B P 0.95085(11) -0.33429(11) -0.1603(2)
P2D P 1.16571(11) 0.04915(11) 0.1603(2)
P2C P 0.66571(11) -0.45085(11) -0.1603(2)
O9B O 0.8771(3) -0.3725(3) -0.1562(5)
O9D O 1.1275(3) 0.1229(3) 0.1562(5)
O9C O 0.6275(3) -0.3771(3) -0.1562(5)
O9A O 0.6229(3) -0.1275(3) -0.1562(5)
O9E O 1.3771(3) 0.1275(3) 0.1562(5)
O10B O 0.9857(3) -0.3422(3) -0.0115(5)
O10D O 1.1578(3) 0.0143(3) 0.0115(5)
O10C O 0.6578(3) -0.4857(3) -0.0115(5)
O10A O 1.5143(3) -0.1578(3) -0.0115(5)
O11B O 0.9385(3) -0.2548(3) -0.1970(6)
O11D O 1.2452(3) 0.0615(3) 0.1970(6)
O11C O 0.7452(3) -0.4385(3) -0.1970(6)
O12B O 0.9993(3) -0.3664(3) -0.2791(6)
O12D O 1.1336(3) 0.0007(3) 0.2791(6)
O12C O 0.6336(3) -0.4993(3) -0.2791(6)
O12D_2 O 1.1336(3) 0.0007(3) -0.7209(6)
Al2F Al 1.06388(13) -0.33346(13) 0.0856(2)
Al2D Al 0.83346(13) 0.06388(13) 0.0856(2)
Al2E Al 1.43612(13) -0.16654(13) 0.0856(2)
Al2_2 Al 1.16654(13) -0.06388(13) 0.9144(2)
Al2B Al 0.93612(13) -0.66654(13) -0.0856(2)
Al2G Al 0.66654(13) -0.56388(13) 0.0856(2)
Al2A Al 0.56388(13) 0.16654(13) -0.0856(2)
P3D P 0.94387(11) 0.06562(11) 0.33634(19)
P3_2 P 1.05613(11) -0.06562(11) 0.66366(19)
P3B P 0.93438(11) -0.55613(11) -0.33634(19)
O13D O 0.8749(3) 0.0600(3) 0.2483(5)
O13_2 O 1.1251(3) -0.0600(3) 0.7517(5)
O13B O 0.9400(3) -0.6251(3) -0.2483(5)
O13F O 1.0600(3) -0.3749(3) 0.2483(5)
O13E O 1.4400(3) -0.1251(3) 0.2483(5)
O14D O 0.9838(3) -0.0057(3) 0.3231(5)
O14_2 O 1.0162(3) 0.0057(3) 0.6769(5)
O14B O 1.0057(3) -0.5162(3) -0.3231(5)
O14D_2 O 0.9838(3) -0.0057(3) -0.6769(5)
O15D O 0.9902(3) 0.1286(3) 0.2885(5)
O15_2 O 1.0098(3) -0.1286(3) 0.7115(5)
O15B O 0.8714(3) -0.5098(3) -0.2885(5)
O15A O 0.6286(3) 0.0098(3) -0.2885(5)
O15E O 1.3714(3) -0.0098(3) 0.2885(5)
O16D O 0.9222(3) 0.0782(3) 0.4923(5)
O16_2 O 1.0778(3) -0.0782(3) 0.5077(5)
O16B O 0.9218(3) -0.5778(3) -0.4923(5)
O16D_2 O 0.9222(3) 0.0782(3) -0.5077(5)
O16F O 1.0782(3) -0.4222(3) -0.5077(5)
Al3D Al 0.93614(13) 0.05199(13) -0.3345(2)
Al3F Al 1.05199(13) -0.43614(13) -0.3345(2)
Al3_2 Al 1.06386(13) -0.05199(13) -0.6655(2)
Al3E Al 1.44801(13) -0.06386(13) -0.3345(2)
Al3D_2 Al 0.93614(13) 0.05199(13) 0.6655(2)
Al3B Al 0.94801(13) -0.56386(13) 0.3345(2)
Al3G Al 0.56386(13) -0.55199(13) -0.3345(2)
Al3B_2 Al 0.94801(13) -0.56386(13) -0.6655(2)
Al3A Al 0.55199(13) 0.06386(13) 0.3345(2)
N1 N 0.7500 0.2500 0.5000
C1 C 0.8030(11) 0.2948(11) 0.4098(19)
C2 C 0.8414(7) 0.2508(7) 0.2967(12)
C1E C 0.7948(11) 0.1970(11) 0.5902(19)
C1F C 0.7052(11) 0.3030(11) 0.5902(19)
C1C C 0.6970(11) 0.2052(11) 0.4098(19)
C2E C 0.7508(7) 0.1586(7) 0.7033(12)
C2F C 0.7492(7) 0.3414(7) 0.7033(12)
C2C C 0.6586(7) 0.2492(7) 0.2967(12)
loop_
_geom_bond_atom_site_label_1
_geom_bond_atom_site_label_2
_geom_bond_site_symmetry_1
_geom_bond_site_symmetry_2
N1 C1 1_555 1_555
C1 C2 1_555 1_555
P1 O5 1_555 1_555
O5 Al1 1_555 1_555
O6 P1 1_555 1_555
O7 P1 1_555 1_555
O8 P1 1_555 1_555
Al1 O9 1_555 1_555
P2 O9 1_555 1_555
O10 P2 1_555 1_555
O11 P2 1_555 1_555
O12 P2 1_555 1_555
Al2 O7 1_555 1_555
P3 O13 1_555 1_555
O13 Al2 1_555 1_555
O14 P3 1_555 1_555
O15 Al1 1_555 1_555
O16 P3 1_555 1_555
Al3 O6 1_555 1_555
C1E N1 1_555 1_555
C1F N1 1_555 1_555
C1C N1 1_555 1_555
C2E C1E 1_555 1_555
C2F C1F 1_555 1_555
C2C C1C 1_555 1_555
P1E O5E 1_555 1_555
P1B O5B 1_555 1_555
P1A O5A 1_555 1_555
O5E Al1E 1_555 1_555
O5B Al1B 1_555 1_555
O5A Al1A 1_555 1_555
O6E P1E 1_555 1_555
O6B P1B 1_555 1_555
O6A P1A 1_555 1_555
O6D Al3D 1_555 1_555
O6F Al3F 1_555 1_555
O6_2 Al3_2 1_555 1_555
O7E P1E 1_555 1_555
O7B P1B 1_555 1_555
O7A P1A 1_555 1_555
O7F Al2F 1_555 1_555
O7D Al2D 1_555 1_555
O8E Al2 1_555 1_555
O8B P1B 1_555 1_555
O8A P1A 1_555 1_555
O8C Al2E 1_555 1_555
Al1B O9B 1_555 1_555
Al1A O11 1_555 1_555
Al1E O9E 1_555 1_555
Al1D O9D 1_555 1_555
Al1_2 O15_2 1_555 1_555
Al1C O9C 1_555 1_555
P2B O9B 1_555 1_555
P2D O9D 1_555 1_555
P2C O9C 1_555 1_555
O9A Al1A 1_555 1_555
O10B P2B 1_555 1_555
O10D Al2 1_555 1_555
O10C P2C 1_555 1_555
O10A Al2E 1_555 1_555
O11B Al1 1_555 1_555
O11D Al1E 1_555 1_555
O11C Al1B 1_555 1_555
O12B P2B 1_555 1_555
O12D Al3 1_555 1_555
O12C P2C 1_555 1_555
O12D_2 Al3_2 1_555 1_555
Al2F O8 1_555 1_555
Al2D O10 1_555 1_555
Al2E O7E 1_555 1_555
Al2_2 O13_2 1_555 1_555
Al2B O7B 1_555 1_555
Al2G O8B 1_555 1_555
Al2A O7A 1_555 1_555
P3D O13D 1_555 1_555
P3_2 O13_2 1_555 1_555
P3B O13B 1_555 1_555
O13D Al2D 1_555 1_555
O13B Al2B 1_555 1_555
O13F Al2F 1_555 1_555
O13E Al2E 1_555 1_555
O14D Al3 1_555 1_555
O14_2 P3_2 1_555 1_555
O14B P3B 1_555 1_555
O14D_2 Al3_2 1_555 1_555
O15D Al1D 1_555 1_555
O15_2 P3_2 1_555 1_555
O15B Al1B 1_555 1_555
O15A Al1A 1_555 1_555
O15E Al1E 1_555 1_555
O16D P3D 1_555 1_555
O16_2 Al3 1_555 1_555
O16B P3B 1_555 1_555
O16D_2 Al3D 1_555 1_555
O16F Al3F 1_555 1_555
Al3D O12 1_555 1_555
Al3F O12B 1_555 1_555
Al3_2 O16 1_555 1_555
Al3E O6E 1_555 1_555
Al3D_2 O14_2 1_555 1_555
Al3B O6B 1_555 1_555
Al3G O12C 1_555 1_555
Al3B_2 O16B 1_555 1_555
Al3A O6A 1_555 1_555
P3 O15 1_555 1_555
O14 Al3D 1_555 1_555
P1E O8E 1_555 1_555
O8A Al2D 1_555 1_555
P2B O11B 1_555 1_555
P2D O10D 1_555 1_555
P2D O11D 1_555 1_555
P2D O12D 1_555 1_555
P2C O11C 1_555 1_555
O10B Al2F 1_555 1_555
O10C Al2G 1_555 1_555
P3D O14D 1_555 1_555
P3D O15D 1_555 1_555
P3_2 O16_2 1_555 1_555
P3B O15B 1_555 1_555
O14B Al3F 1_555 1_555
O16D Al3D_2 1_555 1_555

#END
