
#######################################################################
#
#                 Cambridge Crystallographic Data Centre
#                                CCDC 
#
#######################################################################
#
# If this CIF has been generated from an entry in the Cambridge 
# Structural Database, then it will include bibliographic, chemical, 
# crystal, experimental, refinement or atomic coordinate data resulting 
# from the CCDC's data processing and validation procedures.
#
#######################################################################

data_QISVAQ
_chemical_formula_moiety         '(C86 H50 Cl18 Cu6 N6 O39)n'
_symmetry_cell_setting           rhombohedral
_symmetry_space_group_name_H-M   'R -3 c'
_symmetry_Int_Tables_number      167
_space_group_name_Hall           '-R 3 2"c'
loop_
_symmetry_equiv_pos_site_id
_symmetry_equiv_pos_as_xyz
1 x,y,z
2 -y,x-y,z
3 -x+y,-x,z
4 y,x,1/2-z
5 2/3+x,1/3+y,1/3+z
6 2/3-y,1/3+x-y,1/3+z
7 2/3-x+y,1/3-x,1/3+z
8 2/3+y,1/3+x,5/6-z
9 1/3+x,2/3+y,2/3+z
10 1/3+y,2/3+x,1/6-z
11 x-y,-y,1/2-z
12 -x,-x+y,1/2-z
13 1/3-y,2/3+x-y,2/3+z
14 1/3-x+y,2/3-x,2/3+z
15 1/3+x-y,2/3-y,1/6-z
16 1/3-x,2/3-x+y,1/6-z
17 2/3+x-y,1/3-y,5/6-z
18 2/3-x,1/3-x+y,5/6-z
19 -x,-y,-z
20 y,-x+y,-z
21 x-y,x,-z
22 -y,-x,1/2+z
23 1/3-x,2/3-y,2/3-z
24 1/3+y,2/3-x+y,2/3-z
25 1/3+x-y,2/3+x,2/3-z
26 1/3-y,2/3-x,1/6+z
27 2/3-x,1/3-y,1/3-z
28 2/3-y,1/3-x,5/6+z
29 -x+y,y,1/2+z
30 x,x-y,1/2+z
31 2/3+y,1/3-x+y,1/3-z
32 2/3+x-y,1/3+x,1/3-z
33 2/3-x+y,1/3+y,5/6+z
34 2/3+x,1/3+x-y,5/6+z
35 1/3-x+y,2/3+y,1/6+z
36 1/3+x,2/3+x-y,1/6+z
_cell_length_a                   22.3534(4)
_cell_length_b                   22.3534(4)
_cell_length_c                   41.1462(3)
_cell_angle_alpha                90
_cell_angle_beta                 90
_cell_angle_gamma                120.00
_cell_volume                     17805.2
loop_
_atom_site_label
_atom_site_type_symbol
_atom_site_fract_x
_atom_site_fract_y
_atom_site_fract_z
O7 O 0.2999(15) 0.1066(13) 0.1575(4)
O8 O 0.2414(18) -0.0690(17) 0.1077(12)
C15 C 0.1508(16) -0.1443(13) 0.0765(9)
C16 C 0.1942(15) -0.0716(17) 0.0873(11)
C17 C 0.238(2) -0.1311(18) 0.1070(8)
O8I O 0.2643(17) -0.0919(18) 0.0590(12)
C15I C 0.1890(13) -0.1825(16) 0.0902(9)
C16I C 0.2617(17) -0.1391(15) 0.0794(11)
C17I C 0.2022(18) -0.095(2) 0.0597(8)
Cu1 Cu 0.43100(3) 0.00655(3) 0.156185(17)
N1 N 0.5159(3) 0.0678(3) 0.13039(13)
O1 O 0.4618(2) 0.0751(2) 0.19073(10)
O2 O 0.40139(18) 0.25568(18) 0.29222(9)
O3 O 0.4153(2) 0.1764(2) 0.31822(10)
O4 O 0.3600(3) -0.0569(3) 0.18703(14)
O5 O 0.3598(4) 0.0339(4) 0.12812(18)
C1 C 0.4274(3) 0.2178(3) 0.29569(12)
C2 C 0.6667 0.3333 0.2468(2)
C3 C 0.4768(2) 0.2230(2) 0.26900(12)
C4 C 0.5456(2) 0.2756(2) 0.26854(11)
C5 C 0.5932(2) 0.2787(2) 0.24550(11)
C6 C 0.5126(3) 0.0851(4) 0.10001(18)
H1 H 0.4692 0.0730 0.0912
C7 C 0.5714(4) 0.1209(4) 0.08056(17)
H2 H 0.5676 0.1333 0.0592
C8 C 0.6352(3) 0.1376(3) 0.09329(18)
C9 C 0.6377(3) 0.1196(4) 0.12552(17)
H3 H 0.6802 0.1311 0.1352
C10 C 0.5773(3) 0.0848(4) 0.14306(16)
H4 H 0.5794 0.0727 0.1647
Cl1 Cl 0.36809(9) 0.10936(11) 0.24300(6)
Cl2 Cl 0.57193(12) 0.33393(13) 0.30034(6)
Cl3 Cl 0.61900(10) 0.22965(11) 0.18930(6)
O6 O 0.4493(4) 0.1543(3) 0.16591(15)
C11 C 0.4671(3) 0.1308(4) 0.18922(16)
C12 C 0.4966(3) 0.1777(3) 0.21847(15)
C13 C 0.4531(3) 0.1753(4) 0.2433(2)
C14 C 0.5658(3) 0.2294(4) 0.22003(19)
Cu1O Cu 0.90233(3) 0.24222(4) 0.010482(17)
Cu1A Cu 0.99345(3) 0.42445(4) 0.156185(17)
Cu1B Cu 0.57555(4) 0.56900(3) 0.156185(17)
Cu1AA Cu 0.66012(3) -0.09767(3) -0.010482(17)
Cu1FA Cu 0.24222(4) -0.66012(3) -0.010482(17)
Cu1Y Cu 0.32678(3) 0.23567(3) 0.322852(17)
Cu1IA Cu 0.76433(3) 0.09112(4) 0.322852(17)
Cu1HA Cu 0.90888(4) 0.67322(3) 0.322852(17)
Cu1B_2 Cu 0.57555(4) -0.43100(3) 0.156185(17)
Cu1A_2 Cu -0.00655(3) -0.57555(4) 0.156185(17)
Cu1GA Cu 0.09767(3) -0.24222(4) -0.010482(17)
Cu1N Cu 0.75778(4) 0.66012(3) 0.010482(17)
Cu1I Cu 0.33988(3) 0.09767(3) 0.010482(17)
N1O N 0.8174(3) 0.2186(4) 0.03628(13)
N1A N 0.9322(3) 0.4481(4) 0.13039(13)
N1N N 0.7814(4) 0.5989(3) 0.03628(13)
N1B N 0.5519(4) 0.4841(3) 0.13039(13)
N1I N 0.4011(3) 0.1826(3) 0.03628(13)
N1AA N 0.5989(3) -0.1826(3) -0.03628(13)
N1FA N 0.2186(4) -0.5989(3) -0.03628(13)
O1A O 0.9249(2) 0.3867(3) 0.19073(10)
O1B O 0.6133(3) 0.5382(2) 0.19073(10)
O1AA O 0.5916(2) -0.1285(2) 0.02406(10)
O1FA O 0.2800(3) -0.5916(2) 0.02406(10)
O1GA O 0.1285(2) -0.2800(3) 0.02406(10)
O1O O 0.8715(2) 0.2800(3) -0.02406(10)
O2A O 0.74432(18) 0.14571(25) 0.29222(9)
O2B O 0.85429(25) 0.59861(18) 0.29222(9)
O2AA O 0.41099(18) -0.06806(18) 0.12555(9)
O2FA O 0.52096(25) -0.41099(18) 0.12555(9)
O2GA O 0.06806(18) -0.52096(25) 0.12555(9)
O2DA O 0.92235(18) 0.18762(25) 0.04111(9)
O2GA_2 O 1.06806(18) 0.47904(25) 0.12555(9)
O2FA_2 O 0.52096(25) 0.58901(18) 0.12555(9)
O2H O 0.73472(18) -0.07765(18) -0.04111(9)
O2M O 0.18762(25) -0.73472(18) -0.04111(9)
O3A O 0.8236(2) 0.2389(3) 0.31822(10)
O3B O 0.7611(3) 0.5847(2) 0.31822(10)
O3AA O 0.4903(2) -0.0820(2) 0.15155(10)
O3FA O 0.4278(3) -0.4903(2) 0.15155(10)
O3GA O 0.0820(2) -0.4278(3) 0.15155(10)
O4O O 0.9733(3) 0.2498(4) -0.02036(14)
O4A O 1.0569(3) 0.4169(4) 0.18703(14)
O4B O 0.5831(4) 0.6400(3) 0.18703(14)
O4AA O 0.7236(3) -0.0267(3) 0.02036(14)
O4FA O 0.2498(4) -0.7236(3) 0.02036(14)
O5O O 0.9735(4) 0.3408(6) 0.03855(18)
O5A O 0.9661(4) 0.3259(6) 0.12812(18)
O5B O 0.6741(6) 0.6402(4) 0.12812(18)
O5AA O 0.6328(4) -0.0265(4) -0.03855(18)
O5FA O 0.3408(6) -0.6328(4) -0.03855(18)
C1A C 0.7822(3) 0.2096(4) 0.29569(12)
C1B C 0.7904(4) 0.5726(3) 0.29569(12)
C1AA C 0.4489(3) -0.0941(3) 0.12902(12)
C1FA C 0.4571(4) -0.4489(3) 0.12902(12)
C1GA C 0.0941(3) -0.4571(4) 0.12902(12)
C2AA C 0.3334 -0.3334 0.0801(2)
C3A C 0.7770(2) 0.2538(3) 0.26900(12)
C3B C 0.7462(3) 0.5232(2) 0.26900(12)
C3AA C 0.4437(2) -0.1435(2) 0.10233(12)
C3FA C 0.4129(3) -0.4437(2) 0.10233(12)
C3GA C 0.1435(2) -0.4129(3) 0.10233(12)
C4A C 0.7244(2) 0.2700(3) 0.26854(11)
C4B C 0.7300(3) 0.4544(2) 0.26854(11)
C4AA C 0.3911(2) -0.2123(2) 0.10187(11)
C4FA C 0.3967(3) -0.3911(2) 0.10187(11)
C4GA C 0.2123(2) -0.3967(3) 0.10187(11)
C5A C 0.7213(2) 0.3145(3) 0.24550(11)
C5B C 0.6855(3) 0.4068(2) 0.24550(11)
C5AA C 0.3880(2) -0.2599(2) 0.07883(11)
C5FA C 0.3522(3) -0.3880(2) 0.07883(11)
C5GA C 0.2599(2) -0.3522(3) 0.07883(11)
C6O C 0.8207(3) 0.2392(5) 0.06666(18)
C6A C 0.9149(4) 0.4275(5) 0.10001(18)
C6N C 0.7608(5) 0.5816(4) 0.06666(18)
C6B C 0.5725(5) 0.4874(3) 0.10001(18)
C6I C 0.4184(4) 0.1793(3) 0.06666(18)
H1O H 0.8641 0.2705 0.0755
H1A H 0.9270 0.3962 0.0912
H1N H 0.7295 0.5937 0.0755
H1B H 0.6038 0.5308 0.0912
H1I H 0.4063 0.1359 0.0755
C7O C 0.7619(4) 0.2162(6) 0.08611(17)
C7A C 0.8791(4) 0.4505(6) 0.08056(17)
C7N C 0.7838(6) 0.5458(4) 0.08611(17)
C7B C 0.5495(6) 0.4286(4) 0.08056(17)
C7I C 0.4542(4) 0.2381(4) 0.08611(17)
H2O H 0.7657 0.2324 0.1075
H2A H 0.8667 0.4343 0.0592
H2N H 0.7676 0.5334 0.1075
H2B H 0.5657 0.4324 0.0592
H2I H 0.4666 0.2343 0.1075
C8O C 0.6981(3) 0.1691(4) 0.07338(18)
C8A C 0.8624(3) 0.4976(4) 0.09329(18)
C8N C 0.8309(4) 0.5291(3) 0.07338(18)
C8B C 0.5024(4) 0.3648(3) 0.09329(18)
C8I C 0.4709(3) 0.3019(3) 0.07338(18)
C9O C 0.6956(3) 0.1486(5) 0.04115(17)
C9A C 0.8804(4) 0.5181(5) 0.12552(17)
C9N C 0.8514(5) 0.5471(4) 0.04115(17)
C9B C 0.4819(5) 0.3623(3) 0.12552(17)
C9I C 0.4529(4) 0.3044(3) 0.04115(17)
H3O H 0.6531 0.1176 0.0315
H3A H 0.8689 0.5491 0.1352
H3N H 0.8824 0.5356 0.0315
H3B H 0.4509 0.3198 0.1352
H3I H 0.4644 0.3469 0.0315
C10O C 0.7560(3) 0.1742(5) 0.02361(16)
C10A C 0.9152(4) 0.4925(5) 0.14306(16)
C10N C 0.8258(5) 0.5819(4) 0.02361(16)
C10B C 0.5075(5) 0.4227(3) 0.14306(16)
C10I C 0.4181(4) 0.2440(3) 0.02361(16)
H4O H 0.7539 0.1600 0.0020
H4A H 0.9273 0.5067 0.1647
H4N H 0.8400 0.5940 0.0020
H4B H 0.4933 0.4206 0.1647
H4I H 0.4060 0.2461 0.0020
Cl1A Cl 0.89064(11) 0.25873(14) 0.24300(6)
Cl1B Cl 0.74127(14) 0.63191(9) 0.24300(6)
Cl1AA Cl 0.55731(11) -0.03476(9) 0.07633(6)
Cl1FA Cl 0.40794(14) -0.55731(11) 0.07633(6)
Cl1GA Cl 0.03476(9) -0.40794(14) 0.07633(6)
Cl2A Cl 0.66607(13) 0.23800(18) 0.30034(6)
Cl2B Cl 0.76200(18) 0.42807(12) 0.30034(6)
Cl2AA Cl 0.33274(13) -0.23860(12) 0.13367(6)
Cl2FA Cl 0.42867(18) -0.33274(13) 0.13367(6)
Cl2GA Cl 0.23860(12) -0.42867(18) 0.13367(6)
Cl3A Cl 0.77035(11) 0.38935(15) 0.18930(6)
Cl3B Cl 0.61065(15) 0.38100(10) 0.18930(6)
Cl3AA Cl 0.43702(11) -0.28567(10) 0.02263(6)
Cl3FA Cl 0.27732(15) -0.43702(11) 0.02263(6)
Cl3GA Cl 0.28567(10) -0.27732(15) 0.02263(6)
O6A O 0.8457(3) 0.2950(5) 0.16591(15)
O6B O 0.7050(5) 0.5507(4) 0.16591(15)
O6AA O 0.5124(3) -0.1160(4) -0.00076(15)
O6FA O 0.3717(5) -0.5124(3) -0.00076(15)
O6GA O 0.1160(4) -0.3717(5) -0.00076(15)
C11A C 0.8692(4) 0.3363(5) 0.18922(16)
C11B C 0.6637(5) 0.5329(3) 0.18922(16)
C11AA C 0.5359(4) -0.1338(3) 0.02255(16)
C11FA C 0.3304(5) -0.5359(4) 0.02255(16)
C11GA C 0.1338(3) -0.3304(5) 0.02255(16)
C12A C 0.8223(3) 0.3189(4) 0.21847(15)
C12B C 0.6811(4) 0.5034(3) 0.21847(15)
C12AA C 0.4890(3) -0.1633(3) 0.05180(15)
C12FA C 0.3478(4) -0.4890(3) 0.05180(15)
C12GA C 0.1633(3) -0.3478(4) 0.05180(15)
C13A C 0.8247(4) 0.2778(5) 0.2433(2)
C13B C 0.7222(5) 0.5469(3) 0.2433(2)
C13AA C 0.4914(4) -0.1198(3) 0.0766(2)
C13FA C 0.3889(5) -0.4914(4) 0.0766(2)
C13GA C 0.1198(3) -0.3889(5) 0.0766(2)
C14A C 0.7706(4) 0.3364(5) 0.22003(19)
C14B C 0.6636(5) 0.4342(3) 0.22003(19)
C14AA C 0.4373(4) -0.2325(3) 0.05336(19)
C14FA C 0.3303(5) -0.4373(4) 0.05336(19)
C14GA C 0.2325(3) -0.3303(5) 0.05336(19)
loop_
_geom_bond_atom_site_label_1
_geom_bond_atom_site_label_2
_geom_bond_site_symmetry_1
_geom_bond_site_symmetry_2
Cu1 N1 1_555 1_555
N1 C6 1_555 1_555
O1 Cu1 1_555 1_555
O2 C1 1_555 1_555
O3 C1 1_555 1_555
O4 Cu1 1_555 1_555
O5 Cu1 1_555 1_555
C1 C3 1_555 1_555
C2 C5 1_555 1_555
C3 C4 1_555 1_555
C4 C5 1_555 1_555
C5 C14 1_555 1_555
C6 H1 1_555 1_555
C7 C6 1_555 1_555
H2 C7 1_555 1_555
C8 C7 1_555 1_555
C9 C8 1_555 1_555
H3 C9 1_555 1_555
C10 N1 1_555 1_555
H4 C10 1_555 1_555
Cl1 C13 1_555 1_555
Cl2 C4 1_555 1_555
Cl3 C14 1_555 1_555
O6 C11 1_555 1_555
C11 O1 1_555 1_555
C12 C11 1_555 1_555
C13 C3 1_555 1_555
C14 C12 1_555 1_555
O8 C16 1_555 1_555
C15 C16 1_555 1_555
C16 C17I 1_555 1_555
C17 O8 1_555 1_555
Cu1O N1O 1_555 1_555
Cu1A N1A 1_555 1_555
Cu1B N1B 1_555 1_555
Cu1AA N1AA 1_555 1_555
Cu1FA N1FA 1_555 1_555
Cu1Y O2 1_555 1_555
Cu1IA O2A 1_555 1_555
Cu1HA O2B 1_555 1_555
Cu1B_2 O2FA 1_555 1_555
Cu1A_2 O2GA 1_555 1_555
Cu1GA O1GA 1_555 1_555
Cu1N N1N 1_555 1_555
Cu1I N1I 1_555 1_555
N1O C6O 1_555 1_555
N1A C6A 1_555 1_555
N1N C6N 1_555 1_555
N1B C6B 1_555 1_555
N1I C6I 1_555 1_555
O1A Cu1A 1_555 1_555
O1B Cu1B 1_555 1_555
O1AA Cu1AA 1_555 1_555
O1FA Cu1FA 1_555 1_555
O1GA C11GA 1_555 1_555
O1O Cu1O 1_555 1_555
O2A C1A 1_555 1_555
O2B C1B 1_555 1_555
O2AA Cu1 1_555 1_555
O2FA C1FA 1_555 1_555
O2GA C1GA 1_555 1_555
O2DA Cu1O 1_555 1_555
O2GA_2 Cu1A 1_555 1_555
O2FA_2 Cu1B 1_555 1_555
O2H Cu1AA 1_555 1_555
O2M Cu1FA 1_555 1_555
O3A C1A 1_555 1_555
O3B C1B 1_555 1_555
O3AA C1AA 1_555 1_555
O3FA C1FA 1_555 1_555
O3GA C1GA 1_555 1_555
O4O Cu1O 1_555 1_555
O4A Cu1A 1_555 1_555
O4B Cu1B 1_555 1_555
O4AA Cu1AA 1_555 1_555
O4FA Cu1FA 1_555 1_555
O5O Cu1O 1_555 1_555
O5A Cu1A 1_555 1_555
O5B Cu1B 1_555 1_555
O5AA Cu1AA 1_555 1_555
O5FA Cu1FA 1_555 1_555
C1A C3A 1_555 1_555
C1B C3B 1_555 1_555
C1AA O2AA 1_555 1_555
C1FA C3FA 1_555 1_555
C1GA C3GA 1_555 1_555
C2AA C5AA 1_555 1_555
C3A C4A 1_555 1_555
C3B C4B 1_555 1_555
C3AA C1AA 1_555 1_555
C3FA C4FA 1_555 1_555
C3GA C4GA 1_555 1_555
C4A C5A 1_555 1_555
C4B C5B 1_555 1_555
C4AA C3AA 1_555 1_555
C4FA C5FA 1_555 1_555
C4GA C5GA 1_555 1_555
C5A C2 1_555 1_555
C5B C2 1_555 1_555
C5AA C4AA 1_555 1_555
C5FA C2AA 1_555 1_555
C5GA C2AA 1_555 1_555
C6O H1O 1_555 1_555
C6A H1A 1_555 1_555
C6N H1N 1_555 1_555
C6B H1B 1_555 1_555
C6I H1I 1_555 1_555
C7O C6O 1_555 1_555
C7A C6A 1_555 1_555
C7N C6N 1_555 1_555
C7B C6B 1_555 1_555
C7I C6I 1_555 1_555
H2O C7O 1_555 1_555
H2A C7A 1_555 1_555
H2N C7N 1_555 1_555
H2B C7B 1_555 1_555
H2I C7I 1_555 1_555
C8O C8 1_555 1_555
C8A C7A 1_555 1_555
C8N C7N 1_555 1_555
C8B C7B 1_555 1_555
C8I C7I 1_555 1_555
C9O C8O 1_555 1_555
C9A C8A 1_555 1_555
C9N C8N 1_555 1_555
C9B C8B 1_555 1_555
C9I C8I 1_555 1_555
H3O C9O 1_555 1_555
H3A C9A 1_555 1_555
H3N C9N 1_555 1_555
H3B C9B 1_555 1_555
H3I C9I 1_555 1_555
C10O N1O 1_555 1_555
C10A N1A 1_555 1_555
C10N N1N 1_555 1_555
C10B N1B 1_555 1_555
C10I N1I 1_555 1_555
H4O C10O 1_555 1_555
H4A C10A 1_555 1_555
H4N C10N 1_555 1_555
H4B C10B 1_555 1_555
H4I C10I 1_555 1_555
Cl1A C13A 1_555 1_555
Cl1B C13B 1_555 1_555
Cl1AA C13AA 1_555 1_555
Cl1FA C13FA 1_555 1_555
Cl1GA C13GA 1_555 1_555
Cl2A C4A 1_555 1_555
Cl2B C4B 1_555 1_555
Cl2AA C4AA 1_555 1_555
Cl2FA C4FA 1_555 1_555
Cl2GA C4GA 1_555 1_555
Cl3A C14A 1_555 1_555
Cl3B C14B 1_555 1_555
Cl3AA C14AA 1_555 1_555
Cl3FA C14FA 1_555 1_555
Cl3GA C14GA 1_555 1_555
O6A C11A 1_555 1_555
O6B C11B 1_555 1_555
O6AA C11AA 1_555 1_555
O6FA C11FA 1_555 1_555
O6GA C11GA 1_555 1_555
C11A O1A 1_555 1_555
C11B O1B 1_555 1_555
C11AA O1AA 1_555 1_555
C11FA O1FA 1_555 1_555
C11GA C12GA 1_555 1_555
C12A C11A 1_555 1_555
C12B C11B 1_555 1_555
C12AA C11AA 1_555 1_555
C12FA C11FA 1_555 1_555
C12GA C13GA 1_555 1_555
C13A C3A 1_555 1_555
C13B C3B 1_555 1_555
C13AA C3AA 1_555 1_555
C13FA C3FA 1_555 1_555
C13GA C3GA 1_555 1_555
C14A C5A 1_555 1_555
C14B C5B 1_555 1_555
C14AA C5AA 1_555 1_555
C14FA C5FA 1_555 1_555
C14GA C5GA 1_555 1_555
O8I C16I 1_555 1_555
C15I C15 1_555 1_555
C16I C17 1_555 1_555
C17I C15 1_555 1_555
C9 C10 1_555 1_555
C12 C13 1_555 1_555
C17 C15I 1_555 1_555
C7O C8O 1_555 1_555
C8A C8N 1_555 1_555
C8B C8I 1_555 1_555
C9O C10O 1_555 1_555
C9A C10A 1_555 1_555
C9N C10N 1_555 1_555
C9B C10B 1_555 1_555
C9I C10I 1_555 1_555
C12A C13A 1_555 1_555
C12A C14A 1_555 1_555
C12B C13B 1_555 1_555
C12B C14B 1_555 1_555
C12AA C13AA 1_555 1_555
C12AA C14AA 1_555 1_555
C12FA C13FA 1_555 1_555
C12FA C14FA 1_555 1_555
C12GA C14GA 1_555 1_555
O8I C17I 1_555 1_555
C15I C16I 1_555 1_555

#END
