
#######################################################################
#
#                 Cambridge Crystallographic Data Centre
#                                CCDC 
#
#######################################################################
#
# If this CIF has been generated from an entry in the Cambridge 
# Structural Database, then it will include bibliographic, chemical, 
# crystal, experimental, refinement or atomic coordinate data resulting 
# from the CCDC's data processing and validation procedures.
#
#######################################################################

data_RAVFAX
_chemical_formula_moiety         '(C37 H28 Er2 N3 O18 1-)n'
_symmetry_cell_setting           orthorhombic
_symmetry_space_group_name_H-M   'P b c n'
_symmetry_Int_Tables_number      60
_space_group_name_Hall           '-P 2n 2ab'
loop_
_symmetry_equiv_pos_site_id
_symmetry_equiv_pos_as_xyz
1 x,y,z
2 1/2-x,1/2-y,1/2+z
3 -x,y,1/2-z
4 1/2+x,1/2-y,-z
5 -x,-y,-z
6 1/2+x,1/2+y,1/2-z
7 x,-y,1/2+z
8 1/2-x,1/2+y,z
_cell_length_a                   15.7340(5)
_cell_length_b                   10.6914(4)
_cell_length_c                   23.3260(8)
_cell_angle_alpha                90
_cell_angle_beta                 90
_cell_angle_gamma                90
_cell_volume                     3923.86
loop_
_atom_site_label
_atom_site_type_symbol
_atom_site_fract_x
_atom_site_fract_y
_atom_site_fract_z
N1 N 0.8268(2) 0.9121(4) 0.94251(18)
H11 H 0.7898(13) 0.848(2) 0.9326(6)
H12 H 0.7854(13) 0.970(2) 0.9471(7)
C18 C 0.8843(7) 0.9391(9) 0.8957(4)
H13 H 0.8721 0.8831 0.8635
H14 H 0.9430 0.9265 0.9085
H15 H 0.8767 1.0261 0.8835
C19 C 0.8665(3) 0.8807(4) 0.99851(18)
H16 H 0.8242 0.8408 1.0234
H17 H 0.8873 0.9574 1.0168
H18 H 0.9141 0.8232 0.9923
C20 C 0.5000 1.1207(12) 0.7500
N2 N 0.5750(7) 1.1441(13) 0.7372(5)
N2B N 0.4250(7) 1.1441(13) 0.7628(5)
Er1 Er 0.547637(9) 0.969124(14) 0.915936(6)
O1 O 0.46542(15) 0.9422(2) 0.83083(11)
O2 O 0.49034(16) 0.7724(2) 0.88062(10)
O3 O 0.34284(15) 0.8763(2) 0.63298(11)
O4 O 0.2531(2) 0.7217(3) 0.62069(13)
O5 O 0.16739(16) 0.4487(2) 1.03481(11)
O6 O 0.08431(16) 0.4462(2) 0.95825(11)
O7 O 0.42042(16) 0.1807(2) 1.01734(10)
O8 O 0.49010(16) 0.1666(2) 0.93376(10)
O9 O 0.6049(2) 1.1182(3) 0.85090(14)
H1 H 0.655(4) 1.149(5) 0.854(2)
H2 H 0.596(3) 1.125(4) 0.822(2)
C1 C 0.4058(2) 0.7492(3) 0.79719(15)
C2 C 0.3815(2) 0.6283(3) 0.81268(15)
H3 H 0.3990 0.5955 0.8487
C3 C 0.3324(2) 0.5552(3) 0.77658(15)
C4 C 0.3073(2) 0.6051(3) 0.72410(15)
H4 H 0.2715 0.5576 0.6996
C5 C 0.3340(2) 0.7238(3) 0.70685(15)
C6 C 0.3835(2) 0.7964(3) 0.74392(15)
H5 H 0.4017 0.8775 0.7327
C7 C 0.3078(2) 0.4219(3) 0.79125(16)
H6 H 0.2513 0.4046 0.7743
H7 H 0.3491 0.3648 0.7727
C8 C 0.3041(2) 0.3904(3) 0.85427(15)
C9 C 0.2345(2) 0.4268(3) 0.88757(16)
H8 H 0.1893 0.4723 0.8703
C10 C 0.2303(2) 0.3975(3) 0.94548(15)
C11 C 0.2964(2) 0.3293(3) 0.97091(15)
H9 H 0.2946 0.3109 1.0107
C12 C 0.3643(2) 0.2887(3) 0.93789(15)
C13 C 0.3681(2) 0.3200(3) 0.88024(15)
H10 H 0.4152 0.2930 0.8580
C14 C 0.4568(2) 0.8250(3) 0.83885(15)
C15 C 0.3086(2) 0.7768(3) 0.64952(16)
C16 C 0.1554(2) 0.4333(3) 0.98145(15)
C17 C 0.4305(2) 0.2059(3) 0.96519(16)
Er1B Er 0.452363(9) 0.969124(14) 0.584064(6)
Er1C Er 0.047637(9) 0.530876(14) 1.084064(6)
Er1G Er -0.047637(9) 0.469124(14) 0.915936(6)
Er1D Er 0.452363(9) 0.030876(14) 1.084064(6)
Er1_2 Er 0.547637(9) -0.030876(14) 0.915936(6)
Er1A Er 0.952363(9) 0.530876(14) 0.415936(6)
Er1E Er 1.047637(9) 0.469124(14) 0.584064(6)
Er1F Er 0.547637(9) 0.030876(14) 0.415936(6)
Er1B_2 Er 0.452363(9) -0.030876(14) 0.584064(6)
O1B O 0.53458(15) 0.9422(2) 0.66917(11)
O2B O 0.50966(16) 0.7724(2) 0.61938(10)
O3B O 0.65716(15) 0.8763(2) 0.86702(11)
O4B O 0.7469(2) 0.7217(3) 0.87931(13)
O5B O 0.83261(16) 0.4487(2) 0.46519(11)
O5C O 0.66739(16) 1.0513(2) 0.96519(11)
O5A O 0.33261(16) 1.0513(2) 0.53481(11)
O6B O 0.91569(16) 0.4462(2) 0.54175(11)
O6G O 0.41569(16) 0.9462(2) 0.95825(11)
O6E O 0.58431(16) 0.9462(2) 0.54175(11)
O7B O 0.57958(16) 0.1807(2) 0.48266(10)
O7D O 0.57958(16) 0.8193(2) 0.98266(10)
O7F O 0.42042(16) 0.8193(2) 0.51734(10)
O8B O 0.50990(16) 0.1666(2) 0.56624(10)
O8_2 O 0.49010(16) 1.1666(2) 0.93376(10)
O8B_2 O 0.50990(16) 1.1666(2) 0.56624(10)
O9B O 0.3951(2) 1.1182(3) 0.64910(14)
H1B H 0.345(4) 1.149(5) 0.646(2)
H2B H 0.404(3) 1.125(4) 0.678(2)
C1B C 0.5942(2) 0.7492(3) 0.70281(15)
C2B C 0.6185(2) 0.6283(3) 0.68732(15)
H3B H 0.6010 0.5955 0.6513
C3B C 0.6676(2) 0.5552(3) 0.72342(15)
C4B C 0.6927(2) 0.6051(3) 0.77590(15)
H4B H 0.7285 0.5576 0.8004
C5B C 0.6660(2) 0.7238(3) 0.79315(15)
C6B C 0.6165(2) 0.7964(3) 0.75608(15)
H5B H 0.5983 0.8775 0.7673
C7B C 0.6922(2) 0.4219(3) 0.70875(16)
H6B H 0.7487 0.4046 0.7257
H7B H 0.6509 0.3648 0.7273
C8B C 0.6959(2) 0.3904(3) 0.64573(15)
C9B C 0.7655(2) 0.4268(3) 0.61243(16)
H8B H 0.8107 0.4723 0.6297
C10B C 0.7697(2) 0.3975(3) 0.55452(15)
C11B C 0.7036(2) 0.3293(3) 0.52909(15)
H9B H 0.7054 0.3109 0.4893
C12B C 0.6357(2) 0.2887(3) 0.56211(15)
C13B C 0.6319(2) 0.3200(3) 0.61976(15)
H10B H 0.5848 0.2930 0.6420
C14B C 0.5432(2) 0.8250(3) 0.66115(15)
C15B C 0.6914(2) 0.7768(3) 0.85048(16)
C16B C 0.8446(2) 0.4333(3) 0.51855(15)
C17B C 0.5695(2) 0.2059(3) 0.53481(16)
loop_
_geom_bond_atom_site_label_1
_geom_bond_atom_site_label_2
_geom_bond_site_symmetry_1
_geom_bond_site_symmetry_2
Er1 O1 1_555 1_555
O1 C14 1_555 1_555
O2 Er1 1_555 1_555
O3 C15 1_555 1_555
O4 C15 1_555 1_555
O5 C16 1_555 1_555
O6 C16 1_555 1_555
O7 C17 1_555 1_555
O8 C17 1_555 1_555
O9 Er1 1_555 1_555
H1 O9 1_555 1_555
H2 O9 1_555 1_555
C1 C2 1_555 1_555
C2 H3 1_555 1_555
C3 C2 1_555 1_555
C4 C3 1_555 1_555
H4 C4 1_555 1_555
C5 C4 1_555 1_555
C6 C1 1_555 1_555
H5 C6 1_555 1_555
C7 C3 1_555 1_555
H6 C7 1_555 1_555
H7 C7 1_555 1_555
C8 C7 1_555 1_555
C9 C8 1_555 1_555
H8 C9 1_555 1_555
C10 C9 1_555 1_555
C11 C10 1_555 1_555
H9 C11 1_555 1_555
C12 C11 1_555 1_555
C13 C8 1_555 1_555
H10 C13 1_555 1_555
C14 O2 1_555 1_555
C15 C5 1_555 1_555
C16 C10 1_555 1_555
C17 C12 1_555 1_555
N1 H11 1_555 1_555
H12 N1 1_555 1_555
C18 N1 1_555 1_555
H13 C18 1_555 1_555
H14 C18 1_555 1_555
H15 C18 1_555 1_555
C19 N1 1_555 1_555
H16 C19 1_555 1_555
H17 C19 1_555 1_555
H18 C19 1_555 1_555
C20 N2 1_555 1_555
Er1B O3 1_555 1_555
Er1C O5 1_555 1_555
Er1G O6 1_555 1_555
Er1D O7 1_555 1_555
Er1_2 O8 1_555 1_555
Er1A O5B 1_555 1_555
Er1E O6B 1_555 1_555
Er1F O7B 1_555 1_555
Er1B_2 O8B 1_555 1_555
O1B Er1B 1_555 1_555
O2B Er1B 1_555 1_555
O3B Er1 1_555 1_555
O4B C15B 1_555 1_555
O5B C16B 1_555 1_555
O5C Er1 1_555 1_555
O5A Er1B 1_555 1_555
O6B C16B 1_555 1_555
O6G Er1 1_555 1_555
O6E Er1B 1_555 1_555
O7B C17B 1_555 1_555
O7D Er1 1_555 1_555
O7F Er1B 1_555 1_555
O8B C17B 1_555 1_555
O8_2 Er1 1_555 1_555
O8B_2 Er1B 1_555 1_555
O9B Er1B 1_555 1_555
H1B O9B 1_555 1_555
H2B O9B 1_555 1_555
C1B C2B 1_555 1_555
C2B H3B 1_555 1_555
C3B C2B 1_555 1_555
C4B C3B 1_555 1_555
H4B C4B 1_555 1_555
C5B C4B 1_555 1_555
C6B C1B 1_555 1_555
H5B C6B 1_555 1_555
C7B C3B 1_555 1_555
H6B C7B 1_555 1_555
H7B C7B 1_555 1_555
C8B C7B 1_555 1_555
C9B C8B 1_555 1_555
H8B C9B 1_555 1_555
C10B C9B 1_555 1_555
C11B C10B 1_555 1_555
H9B C11B 1_555 1_555
C12B C11B 1_555 1_555
C13B C8B 1_555 1_555
H10B C13B 1_555 1_555
C14B O1B 1_555 1_555
C15B O3B 1_555 1_555
C16B C10B 1_555 1_555
C17B C12B 1_555 1_555
N2B C20 1_555 1_555
C1 C14 1_555 1_555
C5 C6 1_555 1_555
C12 C13 1_555 1_555
O2B C14B 1_555 1_555
C1B C14B 1_555 1_555
C5B C6B 1_555 1_555
C5B C15B 1_555 1_555
C12B C13B 1_555 1_555

#END
