
#######################################################################
#
#                 Cambridge Crystallographic Data Centre
#                                CCDC 
#
#######################################################################
#
# If this CIF has been generated from an entry in the Cambridge 
# Structural Database, then it will include bibliographic, chemical, 
# crystal, experimental, refinement or atomic coordinate data resulting 
# from the CCDC's data processing and validation procedures.
#
#######################################################################

data_LUPDEH
_chemical_formula_moiety         '(C24 H14 Br4 N4 O9 Zn2)n'
_symmetry_cell_setting           monoclinic
_symmetry_space_group_name_H-M   'C 2/c'
_symmetry_Int_Tables_number      15
_space_group_name_Hall           '-C 2yc'
loop_
_symmetry_equiv_pos_site_id
_symmetry_equiv_pos_as_xyz
1 x,y,z
2 -x,y,1/2-z
3 1/2+x,1/2+y,z
4 1/2-x,1/2+y,1/2-z
5 -x,-y,-z
6 x,-y,1/2+z
7 1/2-x,1/2-y,-z
8 1/2+x,1/2-y,1/2+z
_cell_length_a                   14.910(3)
_cell_length_b                   17.044(3)
_cell_length_c                   14.696(3)
_cell_angle_alpha                90
_cell_angle_beta                 120.49(2)
_cell_angle_gamma                90
_cell_volume                     3218.2
loop_
_atom_site_label
_atom_site_type_symbol
_atom_site_fract_x
_atom_site_fract_y
_atom_site_fract_z
Br1 Br 0.36317(3) 0.36297(3) 0.19339(3)
Br2 Br 0.46462(3) -0.09622(3) 0.37957(3)
Zn1 Zn 0.13284(3) 0.13193(3) 0.28808(3)
O1 O 0.0833(2) 0.00908(16) -0.0753(2)
O2 O 0.20705(19) -0.07649(16) -0.0534(2)
O3 O 0.41413(19) 0.28420(16) 0.6400(2)
O4 O 0.55318(18) 0.32581(16) 0.63272(19)
O5 O 0.0000 0.0634(2) 0.2500
H1 H 0.0252 0.0285 0.2980
N1 N 0.2091(2) 0.04696(19) 0.2393(2)
N2 N 0.2617(2) 0.20912(19) 0.3358(2)
C1 C 0.2165(3) -0.0180(2) 0.0984(3)
C2 C 0.1700(3) 0.0328(2) 0.1359(3)
H2 H 0.1076 0.0587 0.0864
C3 C 0.2962(3) 0.0098(2) 0.3085(3)
H3 H 0.3258 0.0202 0.3818
C4 C 0.3443(3) -0.0434(3) 0.2763(3)
C5 C 0.3056(3) -0.0581(2) 0.1697(3)
H4 H 0.3388 -0.0941 0.1469
C6 C 0.1656(3) -0.0291(2) -0.0205(3)
C7 C 0.4044(3) 0.2786(2) 0.4763(3)
C8 C 0.4214(3) 0.3190(2) 0.4044(3)
H5 H 0.4773 0.3552 0.4272
C9 C 0.3536(3) 0.3046(2) 0.2980(3)
C10 C 0.2760(3) 0.2495(2) 0.2665(3)
H6 H 0.2314 0.2399 0.1932
C11 C 0.3247(3) 0.2244(2) 0.4395(3)
H7 H 0.3138 0.1968 0.4892
C12 C 0.4630(3) 0.2970(2) 0.5930(3)
H1A H -0.0252 0.0285 0.2020
Br1A Br -0.36317(3) 0.36297(3) 0.30661(3)
Br2A Br -0.46462(3) -0.09622(3) 0.12043(3)
Zn1A Zn -0.13284(3) 0.13193(3) 0.21192(3)
O1A O -0.0833(2) 0.00908(16) 0.5753(2)
O2A O -0.20705(19) -0.07649(16) 0.5534(2)
O3A O -0.41413(19) 0.28420(16) -0.1400(2)
O4A O -0.55318(18) 0.32581(16) -0.13272(19)
N1A N -0.2091(2) 0.04696(19) 0.2607(2)
N2A N -0.2617(2) 0.20912(19) 0.1642(2)
C1A C -0.2165(3) -0.0180(2) 0.4016(3)
C2A C -0.1700(3) 0.0328(2) 0.3641(3)
H2A H -0.1076 0.0587 0.4136
C3A C -0.2962(3) 0.0098(2) 0.1915(3)
H3A H -0.3258 0.0202 0.1182
C4A C -0.3443(3) -0.0434(3) 0.2237(3)
C5A C -0.3056(3) -0.0581(2) 0.3303(3)
H4A H -0.3388 -0.0941 0.3531
C6A C -0.1656(3) -0.0291(2) 0.5205(3)
C7A C -0.4044(3) 0.2786(2) 0.0237(3)
C8A C -0.4214(3) 0.3190(2) 0.0956(3)
H5A H -0.4773 0.3552 0.0728
C9A C -0.3536(3) 0.3046(2) 0.2020(3)
C10A C -0.2760(3) 0.2495(2) 0.2335(3)
H6A H -0.2314 0.2399 0.3068
C11A C -0.3247(3) 0.2244(2) 0.0605(3)
H7A H -0.3138 0.1968 0.0108
C12A C -0.4630(3) 0.2970(2) -0.0930(3)
Zn1D Zn -0.13284(3) -0.13193(3) 0.71192(3)
Zn1E Zn 0.13284(3) -0.13193(3) -0.21192(3)
Zn1F Zn -0.63284(3) 0.36807(3) -0.28808(3)
Zn1F_2 Zn 0.36716(3) 0.36807(3) 0.71192(3)
Zn1G Zn -0.36716(3) 0.36807(3) -0.21192(3)
Zn1G_2 Zn 0.63284(3) 0.36807(3) 0.78808(3)
O2D O -0.20705(19) 0.07649(16) 0.0534(2)
O2E O 0.20705(19) 0.07649(16) 0.4466(2)
O3F O 0.08587(19) 0.21580(16) 0.3600(2)
O3G O -0.08587(19) 0.21580(16) 0.1400(2)
O4F O -0.05318(18) 0.17419(16) 0.36728(19)
O4G O 0.05318(18) 0.17419(16) 0.13272(19)
loop_
_geom_bond_atom_site_label_1
_geom_bond_atom_site_label_2
_geom_bond_site_symmetry_1
_geom_bond_site_symmetry_2
Br1 C9 1_555 1_555
Br2 C4 1_555 1_555
Zn1 O5 1_555 1_555
O1 C6 1_555 1_555
O2 C6 1_555 1_555
O3 C12 1_555 1_555
O4 C12 1_555 1_555
O5 H1 1_555 1_555
N1 Zn1 1_555 1_555
N2 Zn1 1_555 1_555
C1 C2 1_555 1_555
C2 N1 1_555 1_555
H2 C2 1_555 1_555
C3 N1 1_555 1_555
H3 C3 1_555 1_555
C4 C3 1_555 1_555
C5 C1 1_555 1_555
H4 C5 1_555 1_555
C6 C1 1_555 1_555
C7 C8 1_555 1_555
C8 H5 1_555 1_555
C9 C8 1_555 1_555
C10 N2 1_555 1_555
H6 C10 1_555 1_555
C11 N2 1_555 1_555
H7 C11 1_555 1_555
C12 C7 1_555 1_555
H1A O5 1_555 1_555
Br1A C9A 1_555 1_555
Br2A C4A 1_555 1_555
Zn1A O5 1_555 1_555
O1A C6A 1_555 1_555
O2A C6A 1_555 1_555
O3A C12A 1_555 1_555
O4A C12A 1_555 1_555
N1A Zn1A 1_555 1_555
N2A Zn1A 1_555 1_555
C1A C2A 1_555 1_555
C2A N1A 1_555 1_555
H2A C2A 1_555 1_555
C3A N1A 1_555 1_555
H3A C3A 1_555 1_555
C4A C3A 1_555 1_555
C5A C1A 1_555 1_555
H4A C5A 1_555 1_555
C6A C1A 1_555 1_555
C7A C8A 1_555 1_555
C8A H5A 1_555 1_555
C9A C8A 1_555 1_555
C10A N2A 1_555 1_555
H6A C10A 1_555 1_555
C11A N2A 1_555 1_555
H7A C11A 1_555 1_555
C12A C7A 1_555 1_555
Zn1D O2A 1_555 1_555
Zn1E O2 1_555 1_555
Zn1F O4A 1_555 1_555
Zn1F_2 O3 1_555 1_555
Zn1G O3A 1_555 1_555
Zn1G_2 O4 1_555 1_555
O2D Zn1A 1_555 1_555
O2E Zn1 1_555 1_555
O3F Zn1 1_555 1_555
O3G Zn1A 1_555 1_555
O4F Zn1A 1_555 1_555
O4G Zn1 1_555 1_555
C4 C5 1_555 1_555
C7 C11 1_555 1_555
C9 C10 1_555 1_555
C4A C5A 1_555 1_555
C7A C11A 1_555 1_555
C9A C10A 1_555 1_555

#END
