
#######################################################################
#
#                 Cambridge Crystallographic Data Centre
#                                CCDC 
#
#######################################################################
#
# If this CIF has been generated from an entry in the Cambridge 
# Structural Database, then it will include bibliographic, chemical, 
# crystal, experimental, refinement or atomic coordinate data resulting 
# from the CCDC's data processing and validation procedures.
#
#######################################################################

data_QIFLOI
_chemical_formula_moiety         '(C12 H12 N10 O4 Zn2)n'
_symmetry_cell_setting           tetragonal
_symmetry_space_group_name_H-M   'I 4/m'
_symmetry_Int_Tables_number      87
_space_group_name_Hall           '-I 4'
loop_
_symmetry_equiv_pos_site_id
_symmetry_equiv_pos_as_xyz
1 x,y,z
2 -x,-y,z
3 -y,x,z
4 y,-x,z
5 1/2+x,1/2+y,1/2+z
6 1/2-x,1/2-y,1/2+z
7 1/2-y,1/2+x,1/2+z
8 1/2+y,1/2-x,1/2+z
9 -x,-y,-z
10 x,y,-z
11 y,-x,-z
12 -y,x,-z
13 1/2-x,1/2-y,1/2-z
14 1/2+x,1/2+y,1/2-z
15 1/2+y,1/2-x,1/2-z
16 1/2-y,1/2+x,1/2-z
_cell_length_a                   13.2828(5)
_cell_length_b                   13.2828(5)
_cell_length_c                   26.6491(10)
_cell_angle_alpha                90
_cell_angle_beta                 90
_cell_angle_gamma                90
_cell_volume                     4701.77
loop_
_atom_site_label
_atom_site_type_symbol
_atom_site_fract_x
_atom_site_fract_y
_atom_site_fract_z
_atom_site_U_iso_or_equiv
_atom_site_thermal_displace_type
Zn1 Zn 0.32896(4) 0.77722(4) 0.304855(16) 0.0275 Uani
C1 C 0.3122(4) 0.8107(4) 0.40695(18) 0.0383 Uani
C2 C 0.2814(4) 0.8625(4) 0.45472(18) 0.0460 Uani
C3 C 0.2360(7) 0.9558(5) 0.4548(2) 0.0813 Uani
H1 H 0.2259 0.9898 0.4248 0.0980 Uiso
C4 C 0.2049(9) 0.9993(9) 0.5000 0.0770 Uiso
H2 H 0.1643 1.0563 0.5000 0.0920 Uiso
C5 C 0.3056(6) 0.8173(6) 0.5000 0.0400 Uani
H3 H 0.3386 0.7556 0.5000 0.0480 Uiso
C6 C 0.5237(3) 0.7867(4) 0.24312(16) 0.0380 Uani
C7 C 0.5562(3) 0.7336(4) 0.31723(19) 0.0357 Uani
N1 N 0.6217(3) 0.7716(3) 0.24477(14) 0.0344 Uani
N2 N 0.6430(3) 0.7369(3) 0.29369(14) 0.0309 Uani
N3 N 0.4781(3) 0.7662(3) 0.28804(14) 0.0354 Uani
N4 N 0.4742(4) 0.8183(7) 0.20238(17) 0.0897 Uani
H4 H 0.5064 0.8300 0.1750 0.1070 Uiso
H5 H 0.4100 0.8268 0.2035 0.1070 Uiso
N5 N 0.5433(4) 0.7057(6) 0.3650(2) 0.0853 Uani
H6 H 0.5944 0.6881 0.3828 0.1020 Uiso
H7 H 0.4840 0.7054 0.3779 0.1020 Uiso
O1 O 0.2960(3) 0.8563(3) 0.36546(13) 0.0545 Uani
O2 O 0.3498(3) 0.7262(3) 0.40918(13) 0.0447 Uani
C1I C 0.3122(4) 0.8107(4) 0.59305(18) 0.0383 Uani
C2I C 0.2814(4) 0.8625(4) 0.54528(18) 0.0460 Uani
C3I C 0.2360(7) 0.9558(5) 0.5452(2) 0.0813 Uani
H1I H 0.2259 0.9898 0.5752 0.0980 Uiso
O1I O 0.2960(3) 0.8563(3) 0.63454(13) 0.0545 Uani
O2I O 0.3498(3) 0.7262(3) 0.59082(13) 0.0447 Uani
Zn1B Zn 0.22278(4) 0.32896(4) 0.304855(16) 0.0275 Uani
C6B C 0.2133(4) 0.5237(3) 0.24312(16) 0.0380 Uani
C7B C 0.2664(4) 0.5562(3) 0.31723(19) 0.0357 Uani
N1B N 0.2284(3) 0.6217(3) 0.24477(14) 0.0344 Uani
N2B N 0.2631(3) 0.6430(3) 0.29369(14) 0.0309 Uani
N3B N 0.2338(3) 0.4781(3) 0.28804(14) 0.0354 Uani
N4B N 0.1817(7) 0.4742(4) 0.20238(17) 0.0897 Uani
H4B H 0.1700 0.5064 0.1750 0.1070 Uiso
H5B H 0.1732 0.4100 0.2035 0.1070 Uiso
N5B N 0.2943(6) 0.5433(4) 0.3650(2) 0.0853 Uani
H6B H 0.3119 0.5944 0.3828 0.1020 Uiso
H7B H 0.2946 0.4840 0.3779 0.1020 Uiso
Zn1C Zn 0.77722(4) 0.67104(4) 0.304855(16) 0.0275 Uani
Zn1I Zn 0.32896(4) 0.77722(4) 0.695145(16) 0.0275 Uani
Zn1L Zn 0.17104(4) 0.72278(4) 0.195145(16) 0.0275 Uani
Zn1O Zn 0.72278(4) 0.82896(4) 0.195145(16) 0.0275 Uani
N1M N 0.1217(3) 0.2716(3) 0.25523(14) 0.0344 Uani
N1N N 0.2716(3) 0.8783(3) 0.25523(14) 0.0344 Uani
N2A N 0.3570(3) 0.2631(3) 0.29369(14) 0.0309 Uani
O1B O 0.1437(3) 0.2960(3) 0.36546(13) 0.0545 Uani
loop_
_atom_site_aniso_label
_atom_site_aniso_U_11
_atom_site_aniso_U_22
_atom_site_aniso_U_33
_atom_site_aniso_U_23
_atom_site_aniso_U_13
_atom_site_aniso_U_12
Zn1 0.0327(3) 0.0331(3) 0.0167(3) 0.00315(19) -0.00106(19) -0.0014(2)
C1 0.046(3) 0.047(3) 0.022(2) -0.003(2) -0.001(2) -0.003(2)
C2 0.068(4) 0.050(3) 0.020(2) 0.001(2) 0.003(2) 0.013(3)
C3 0.150(8) 0.073(5) 0.021(3) 0.004(3) 0.002(4) 0.052(5)
C5 0.055(4) 0.040(4) 0.025(3) 0.000 0.000 0.006(3)
C6 0.029(2) 0.066(3) 0.019(2) 0.004(2) 0.0041(18) 0.004(2)
C7 0.031(2) 0.049(3) 0.027(2) 0.016(2) 0.0034(19) 0.010(2)
N1 0.037(2) 0.048(2) 0.0182(17) 0.0066(16) 0.0018(16) -0.0028(18)
N2 0.034(2) 0.038(2) 0.0208(17) 0.0042(16) 0.0016(15) 0.0030(17)
N3 0.031(2) 0.054(3) 0.0211(18) 0.0070(18) 0.0029(16) 0.0009(18)
N4 0.035(3) 0.209(8) 0.025(2) 0.036(4) 0.004(2) 0.022(4)
N5 0.042(3) 0.167(7) 0.047(3) 0.062(4) 0.016(2) 0.034(3)
O1 0.089(3) 0.060(2) 0.0146(16) 0.0000(16) 0.0022(17) 0.009(2)
O2 0.054(2) 0.049(2) 0.0311(18) -0.0076(16) 0.0050(16) 0.0020(18)
C1I 0.046 0.047 0.022 0.003 0.001 -0.003
C2I 0.068 0.05 0.02 -0.001 -0.003 0.013
C3I 0.15 0.073 0.021 -0.004 -0.002 0.052
O1I 0.089 0.06 0.0146 0 -0.0022 0.009
O2I 0.054 0.049 0.0311 0.0076 -0.005 0.002
Zn1B 0.0331 0.0327 0.0167 -0.00106 -0.00315 0.0014
C6B 0.066 0.029 0.019 0.0041 -0.004 -0.004
C7B 0.049 0.031 0.027 0.0034 -0.016 -0.01
N1B 0.048 0.037 0.0182 0.0018 -0.0066 0.0028
N2B 0.038 0.034 0.0208 0.0016 -0.0042 -0.003
N3B 0.054 0.031 0.0211 0.0029 -0.007 -0.0009
N4B 0.209 0.035 0.025 0.004 -0.036 -0.022
N5B 0.167 0.042 0.047 0.016 -0.062 -0.034
Zn1C 0.0331 0.0327 0.0167 0.00106 0.00315 0.0014
Zn1I 0.0327 0.0331 0.0167 -0.00315 0.00106 -0.0014
Zn1L 0.0327 0.0331 0.0167 0.00315 -0.00106 -0.0014
Zn1O 0.0331 0.0327 0.0167 0.00106 0.00315 0.0014
N1M 0.037 0.048 0.0182 -0.0066 -0.0018 -0.0028
N1N 0.048 0.037 0.0182 0.0018 -0.0066 0.0028
N2A 0.034 0.038 0.0208 -0.0042 -0.0016 0.003
O1B 0.06 0.089 0.0146 0.0022 0 -0.009
loop_
_geom_bond_atom_site_label_1
_geom_bond_atom_site_label_2
_geom_bond_site_symmetry_1
_geom_bond_site_symmetry_2
Zn1 N3 1_555 1_555
C1 C2 1_555 1_555
C2 C3 1_555 1_555
C3 H1 1_555 1_555
C4 C3 1_555 1_555
H2 C4 1_555 1_555
C5 C2 1_555 1_555
H3 C5 1_555 1_555
C6 N1 1_555 1_555
C7 N2 1_555 1_555
N1 N2 1_555 1_555
N2 Zn1C 1_555 1_555
N3 C6 1_555 1_555
N4 C6 1_555 1_555
H4 N4 1_555 1_555
H5 N4 1_555 1_555
N5 C7 1_555 1_555
H6 N5 1_555 1_555
H7 N5 1_555 1_555
O1 Zn1 1_555 1_555
O2 C1 1_555 1_555
C1I C2I 1_555 1_555
C2I C5 1_555 1_555
C3I C4 1_555 1_555
H1I C3I 1_555 1_555
O1I C1I 1_555 1_555
O2I C1I 1_555 1_555
Zn1B N3B 1_555 1_555
C6B N1B 1_555 1_555
C7B N2B 1_555 1_555
N1B N2B 1_555 1_555
N2B Zn1 1_555 1_555
N3B C6B 1_555 1_555
N4B C6B 1_555 1_555
H4B N4B 1_555 1_555
H5B N4B 1_555 1_555
N5B C7B 1_555 1_555
H6B N5B 1_555 1_555
H7B N5B 1_555 1_555
Zn1I O1I 1_555 1_555
Zn1L N1B 1_555 1_555
Zn1O N1 1_555 1_555
N1M Zn1B 1_555 1_555
N1N Zn1 1_555 1_555
N2A Zn1B 1_555 1_555
O1B Zn1B 1_555 1_555
C1 O1 1_555 1_555
C7 N3 1_555 1_555
C2I C3I 1_555 1_555
C7B N3B 1_555 1_555

#END
