
#######################################################################
#
#                 Cambridge Crystallographic Data Centre
#                                CCDC 
#
#######################################################################
#
# If this CIF has been generated from an entry in the Cambridge 
# Structural Database, then it will include bibliographic, chemical, 
# crystal, experimental, refinement or atomic coordinate data resulting 
# from the CCDC's data processing and validation procedures.
#
#######################################################################

data_QIFLIC
_chemical_formula_moiety         '(C12 H10 N8 O4 Zn2)n'
_symmetry_cell_setting           tetragonal
_symmetry_space_group_name_H-M   'I 4/m'
_symmetry_Int_Tables_number      87
_space_group_name_Hall           '-I 4'
loop_
_symmetry_equiv_pos_site_id
_symmetry_equiv_pos_as_xyz
1 x,y,z
2 -x,-y,z
3 -y,x,z
4 y,-x,z
5 1/2+x,1/2+y,1/2+z
6 1/2-x,1/2-y,1/2+z
7 1/2-y,1/2+x,1/2+z
8 1/2+y,1/2-x,1/2+z
9 -x,-y,-z
10 x,y,-z
11 y,-x,-z
12 -y,x,-z
13 1/2-x,1/2-y,1/2-z
14 1/2+x,1/2+y,1/2-z
15 1/2+y,1/2-x,1/2-z
16 1/2-y,1/2+x,1/2-z
_cell_length_a                   12.5223(4)
_cell_length_b                   12.5223(4)
_cell_length_c                   26.0224(10)
_cell_angle_alpha                90
_cell_angle_beta                 90
_cell_angle_gamma                90
_cell_volume                     4080.52
loop_
_atom_site_label
_atom_site_type_symbol
_atom_site_fract_x
_atom_site_fract_y
_atom_site_fract_z
_atom_site_U_iso_or_equiv
_atom_site_thermal_displace_type
Zn1 Zn 0.29186(4) 0.81237(4) 0.312541(16) 0.0557 Uani
C1 C 0.4301(4) 0.8240(4) 0.45355(14) 0.0600 Uani
C2 C 0.5390(5) 0.8308(7) 0.4542(2) 0.1120 Uani
H1 H 0.5774 0.8283 0.4227 0.1350 Uiso
C3 C 0.5940(7) 0.8411(11) 0.5000 0.1297 Uani
H2 H 0.6686 0.8552 0.5000 0.1560 Uiso
C4 C 0.3740(5) 0.8221(4) 0.5000 0.0473 Uani
H3 H 0.2981 0.8195 0.5000 0.0570 Uiso
C5 C 0.4422(3) 0.7508(3) 0.17290(14) 0.0431 Uani
C6 C 0.4867(3) 0.7889(3) 0.24895(13) 0.0465 Uani
H4 H 0.5286 0.8070 0.2781 0.0560 Uiso
N1 N 0.3839(3) 0.7745(3) 0.25093(10) 0.0459 Uani
N2 N 0.3517(3) 0.7494(3) 0.20050(11) 0.0456 Uani
N3 N 0.5280(3) 0.7757(3) 0.20134(12) 0.0479 Uani
N4 N 0.4460(3) 0.7283(3) 0.12236(13) 0.0681 Uani
H5 H 0.5075 0.7294 0.1060 0.0820 Uiso
H6 H 0.3870 0.7125 0.1057 0.0820 Uiso
C7 C 0.351(3) 0.8147(12) 0.4064(6) 0.0753 Uani
O1 O 0.253(2) 0.8384(14) 0.4092(8) 0.0913 Uani
O2 O 0.398(3) 0.7928(10) 0.3643(4) 0.0993 Uani
C1I C 0.4301(4) 0.8240(4) 0.54645(14) 0.0600 Uani
C2I C 0.5390(5) 0.8308(7) 0.5458(2) 0.1120 Uani
H1I H 0.5774 0.8283 0.5773 0.1350 Uiso
C7I C 0.351(3) 0.8147(12) 0.5936(6) 0.0753 Uani
O1I O 0.253(2) 0.8384(14) 0.5908(8) 0.0913 Uani
O2I O 0.398(3) 0.7928(10) 0.6357(4) 0.0993 Uani
Zn1I Zn 0.29186(4) 0.81237(4) 0.687459(16) 0.0557 Uani
C5I C 0.4422(3) 0.7508(3) 0.82710(14) 0.0431 Uani
C6I C 0.4867(3) 0.7889(3) 0.75105(13) 0.0465 Uani
H4I H 0.5286 0.8070 0.7219 0.0560 Uiso
N1I N 0.3839(3) 0.7745(3) 0.74907(10) 0.0459 Uani
N2I N 0.3517(3) 0.7494(3) 0.79950(11) 0.0456 Uani
N3I N 0.5280(3) 0.7757(3) 0.79866(12) 0.0479 Uani
N4I N 0.4460(3) 0.7283(3) 0.87764(13) 0.0681 Uani
H5I H 0.5075 0.7294 0.8940 0.0820 Uiso
H6I H 0.3870 0.7125 0.8943 0.0820 Uiso
Zn1E Zn 0.20814(4) 0.68763(4) 0.812541(16) 0.0557 Uani
Zn1F Zn 0.68763(4) 0.79186(4) 0.812541(16) 0.0557 Uani
Zn1L Zn 0.20814(4) 0.68763(4) 0.187459(16) 0.0557 Uani
Zn1O Zn 0.68763(4) 0.79186(4) 0.187459(16) 0.0557 Uani
N2E N 0.1483(3) 0.7506(3) 0.70050(11) 0.0456 Uani
N2L N 0.1483(3) 0.7506(3) 0.29950(11) 0.0456 Uani
N3G N 0.2757(3) 0.9720(3) 0.70134(12) 0.0479 Uani
N3N N 0.2757(3) 0.9720(3) 0.29866(12) 0.0479 Uani
loop_
_atom_site_aniso_label
_atom_site_aniso_U_11
_atom_site_aniso_U_22
_atom_site_aniso_U_33
_atom_site_aniso_U_23
_atom_site_aniso_U_13
_atom_site_aniso_U_12
Zn1 0.0764(4) 0.0695(4) 0.0211(3) -0.01250(19) 0.0108(2) -0.0257(3)
C1 0.081(3) 0.075(3) 0.024(2) 0.0045(19) -0.0057(19) 0.021(2)
C2 0.081(4) 0.206(8) 0.049(3) 0.013(4) 0.028(3) 0.064(5)
C3 0.055(5) 0.256(14) 0.078(6) 0.000 0.000 0.058(7)
C4 0.053(3) 0.048(3) 0.041(3) 0.000 0.000 0.009(3)
C5 0.061(2) 0.043(2) 0.0254(17) -0.0039(15) -0.0031(17) -0.0018(18)
C6 0.056(2) 0.058(2) 0.0255(19) -0.0056(16) -0.0091(17) 0.011(2)
N1 0.068(2) 0.0508(19) 0.0188(14) -0.0058(12) -0.0033(14) 0.0017(17)
N2 0.062(2) 0.0545(19) 0.0204(14) -0.0043(13) 0.0004(13) -0.0089(16)
N3 0.063(2) 0.058(2) 0.0226(15) -0.0073(13) -0.0054(14) 0.0086(17)
N4 0.068(2) 0.114(3) 0.0224(17) -0.0178(18) 0.0037(15) -0.022(2)
C7 0.13(2) 0.054(6) 0.042(7) 0.011(4) -0.030(11) -0.043(12)
O1 0.088(11) 0.075(7) 0.111(9) 0.034(6) -0.066(8) -0.032(7)
O2 0.184(19) 0.080(5) 0.034(3) -0.002(3) -0.034(6) -0.009(8)
C1I 0.081 0.075 0.024 -0.0045 0.0057 0.021
C2I 0.081 0.206 0.049 -0.013 -0.028 0.064
C7I 0.13 0.054 0.042 -0.011 0.03 -0.043
O1I 0.088 0.075 0.111 -0.034 0.066 -0.032
O2I 0.184 0.08 0.034 0.002 0.034 -0.009
Zn1I 0.0764 0.0695 0.0211 0.0125 -0.0108 -0.0257
C5I 0.061 0.043 0.0254 0.0039 0.0031 -0.0018
C6I 0.056 0.058 0.0255 0.0056 0.0091 0.011
N1I 0.068 0.0508 0.0188 0.0058 0.0033 0.0017
N2I 0.062 0.0545 0.0204 0.0043 -0.0004 -0.0089
N3I 0.063 0.058 0.0226 0.0073 0.0054 0.0086
N4I 0.068 0.114 0.0224 0.0178 -0.0037 -0.022
Zn1E 0.0764 0.0695 0.0211 0.0125 -0.0108 -0.0257
Zn1F 0.0695 0.0764 0.0211 0.0108 0.0125 0.0257
Zn1L 0.0764 0.0695 0.0211 -0.0125 0.0108 -0.0257
Zn1O 0.0695 0.0764 0.0211 -0.0108 -0.0125 0.0257
N2E 0.062 0.0545 0.0204 0.0043 -0.0004 -0.0089
N2L 0.062 0.0545 0.0204 -0.0043 0.0004 -0.0089
N3G 0.058 0.063 0.0226 0.0054 -0.0073 -0.0086
N3N 0.058 0.063 0.0226 -0.0054 0.0073 -0.0086
loop_
_geom_bond_atom_site_label_1
_geom_bond_atom_site_label_2
_geom_bond_site_symmetry_1
_geom_bond_site_symmetry_2
Zn1 N1 1_555 1_555
C1 C2 1_555 1_555
C2 H1 1_555 1_555
C3 C2 1_555 1_555
H2 C3 1_555 1_555
C4 C1 1_555 1_555
H3 C4 1_555 1_555
C5 N2 1_555 1_555
C6 H4 1_555 1_555
N1 C6 1_555 1_555
N2 N1 1_555 1_555
N3 C5 1_555 1_555
N4 C5 1_555 1_555
H5 N4 1_555 1_555
H6 N4 1_555 1_555
C7 C1 1_555 1_555
O1 C7 1_555 1_555
O2 Zn1 1_555 1_555
C1I C4 1_555 1_555
C2I C3 1_555 1_555
H1I C2I 1_555 1_555
C7I C1I 1_555 1_555
O1I C7I 1_555 1_555
O2I C7I 1_555 1_555
Zn1I O2I 1_555 1_555
C5I N2I 1_555 1_555
C6I H4I 1_555 1_555
N1I Zn1I 1_555 1_555
N2I N1I 1_555 1_555
N3I C5I 1_555 1_555
N4I C5I 1_555 1_555
H5I N4I 1_555 1_555
H6I N4I 1_555 1_555
Zn1E N2I 1_555 1_555
Zn1F N3I 1_555 1_555
Zn1L N2 1_555 1_555
Zn1O N3 1_555 1_555
N2E Zn1I 1_555 1_555
N2L Zn1 1_555 1_555
N3G Zn1I 1_555 1_555
N3N Zn1 1_555 1_555
C6 N3 1_555 1_555
C7 O2 1_555 1_555
C1I C2I 1_555 1_555
C6I N1I 1_555 1_555
C6I N3I 1_555 1_555

#END
