
#######################################################################
#
#                 Cambridge Crystallographic Data Centre
#                                CCDC 
#
#######################################################################
#
# If this CIF has been generated from an entry in the Cambridge 
# Structural Database, then it will include bibliographic, chemical, 
# crystal, experimental, refinement or atomic coordinate data resulting 
# from the CCDC's data processing and validation procedures.
#
#######################################################################

data_LABRUE
_chemical_formula_moiety         '(C72 H65 Co4 N4 O20 1+)n'
_symmetry_cell_setting           monoclinic
_symmetry_space_group_name_H-M   'C 2/c'
_symmetry_Int_Tables_number      15
_space_group_name_Hall           '-C 2yc'
loop_
_symmetry_equiv_pos_site_id
_symmetry_equiv_pos_as_xyz
1 x,y,z
2 -x,y,1/2-z
3 1/2+x,1/2+y,z
4 1/2-x,1/2+y,1/2-z
5 -x,-y,-z
6 x,-y,1/2+z
7 1/2-x,1/2-y,-z
8 1/2+x,1/2-y,1/2+z
_cell_length_a                   29.689(3)
_cell_length_b                   19.3120(16)
_cell_length_c                   29.424(3)
_cell_angle_alpha                90
_cell_angle_beta                 107.2920(10)
_cell_angle_gamma                90
_cell_volume                     16107.9
loop_
_atom_site_label
_atom_site_type_symbol
_atom_site_fract_x
_atom_site_fract_y
_atom_site_fract_z
C1 C 0.27789(12) 0.28772(17) 0.29223(12)
C2 C 0.63308(13) -0.07376(19) 0.30891(13)
C3 C 0.39464(13) 0.22310(18) 0.28304(15)
H1 H 0.4056 0.1881 0.2674
C4 C 0.27614(11) 0.14988(17) 0.36293(11)
C5 C 0.20185(13) 0.19424(19) 0.48980(13)
H2 H 0.1953 0.2414 0.4864
C6 C 0.32977(12) 0.28245(17) 0.29942(13)
C7 C 0.61592(12) -0.14136(19) 0.40837(12)
C8 C 0.61120(13) -0.00586(19) 0.31375(13)
C9 C 0.64204(12) -0.20172(18) 0.39748(12)
C10 C 0.47498(13) 0.0929(2) 0.44889(13)
C11 C 0.64063(12) -0.0814(2) 0.42723(13)
H3 H 0.6729 -0.0787 0.4316
C12 C 0.55155(14) 0.3179(2) 0.31970(16)
C13 C 0.34781(13) 0.1411(2) 0.43396(12)
H4 H 0.3296 0.1561 0.4529
C14 C 0.35457(12) 0.10881(18) 0.35749(11)
H5 H 0.3408 0.1007 0.3252
C15 C 0.21955(13) 0.09538(19) 0.54039(13)
C16 C 0.64971(12) 0.57465(18) 0.31489(13)
C17 C 0.32721(12) 0.13205(18) 0.38517(12)
C18 C 0.34667(12) 0.23097(18) 0.27565(14)
H6 H 0.3256 0.2017 0.2547
C19 C 0.50428(14) 0.32160(19) 0.31917(18)
H7 H 0.4903 0.3646 0.3192
C20 C 0.64794(12) 0.21000(18) 0.70140(12)
C21 C 0.56755(13) -0.1441(2) 0.40005(13)
H8 H 0.5508 -0.1833 0.3862
C22 C 0.61731(13) -0.0265(2) 0.43938(13)
H9 H 0.6340 0.0133 0.4521
C23 C 0.42375(12) 0.10700(19) 0.42658(13)
C24 C 0.56911(13) 0.12322(19) 0.31991(15)
C25 C 0.22512(15) -0.0056(2) 0.59315(13)
H10 H 0.2259 -0.0330 0.5674
C26 C 0.20994(14) 0.16486(19) 0.53439(13)
H11 H 0.2089 0.1920 0.5601
C27 C 0.40255(12) 0.09753(19) 0.37782(13)
H12 H 0.4208 0.0835 0.3587
C28 C 0.47815(13) 0.2621(2) 0.31856(16)
C29 C 0.42670(13) 0.26762(18) 0.31400(15)
C30 C 0.49970(13) 0.19792(19) 0.31979(17)
H13 H 0.4824 0.1579 0.3203
C31 C 0.36195(13) 0.32596(19) 0.33109(16)
H14 H 0.3511 0.3598 0.3477
C32 C 0.22420(13) 0.0616(2) 0.58667(12)
H15 H 0.2266 0.0899 0.6129
C33 C 0.22507(13) -0.0418(2) 0.63680(13)
C34 C 0.49991(13) 0.1265(2) 0.49051(13)
H16 H 0.4852 0.1612 0.5029
C35 C 0.57187(13) 0.25299(19) 0.31979(15)
H17 H 0.6030 0.2502 0.3195
C36 C 0.57249(13) 0.1378(2) 0.56131(14)
C37 C 0.39533(13) 0.1278(2) 0.45424(13)
H18 H 0.4086 0.1329 0.4869
C38 C 0.62161(13) 0.1862(2) 0.65196(13)
C39 C 0.54703(13) 0.19242(19) 0.32033(16)
C40 C 0.54212(13) 0.0638(2) 0.30640(15)
H19 H 0.5095 0.0669 0.2991
C41 C 0.49776(13) 0.0435(2) 0.42929(13)
H20 H 0.4814 0.0217 0.4011
C42 C 0.22053(15) -0.1492(2) 0.67652(13)
H21 H 0.2202 -0.1974 0.6759
C43 C 0.57005(15) 0.2071(2) 0.57303(14)
H22 H 0.5515 0.2375 0.5507
C44 C 0.22461(13) -0.00922(19) 0.67889(13)
H23 H 0.2269 0.0387 0.6814
C45 C 0.56244(14) 0.0004(2) 0.30343(16)
H24 H 0.5434 -0.0386 0.2945
C46 C 0.56848(13) 0.0590(2) 0.49367(14)
H25 H 0.5997 0.0474 0.5089
C47 C 0.54405(13) -0.0885(2) 0.41232(13)
H26 H 0.5116 -0.0907 0.4067
C48 C 0.40971(14) 0.3187(2) 0.33764(17)
H27 H 0.4308 0.3485 0.3582
C49 C 0.56873(13) -0.0293(2) 0.43298(13)
C50 C 0.54631(13) 0.1092(2) 0.51386(14)
C51 C 0.22354(17) 0.0593(2) 0.50104(14)
H28 H 0.2321 0.0128 0.5039
C52 C 0.22081(13) -0.04797(18) 0.71656(12)
H29 H 0.2205 -0.0250 0.7442
C53 C 0.60086(15) 0.3937(2) 0.28466(17)
H30 H 0.6014 0.3587 0.2632
C54 C 0.54480(13) 0.0261(2) 0.45126(14)
C55 C 0.6026(2) 0.4964(3) 0.3500(2)
H31 H 0.6041 0.5301 0.3730
C56 C 0.59934(14) 0.0935(2) 0.59577(14)
H32 H 0.6012 0.0469 0.5884
C57 C 0.57799(13) 0.38294(19) 0.31831(16)
C58 C 0.62338(14) 0.1166(2) 0.64081(13)
H33 H 0.6407 0.0857 0.6636
C59 C 0.21502(17) 0.0919(2) 0.45819(15)
H34 H 0.2177 0.0663 0.4324
C60 C 0.62442(13) 0.50737(19) 0.31497(14)
C61 C 0.59516(15) 0.2316(2) 0.61792(13)
H35 H 0.5942 0.2783 0.6251
C62 C 0.61781(14) 0.1157(2) 0.3319(2)
H36 H 0.6370 0.1542 0.3422
C63 C 0.63835(14) 0.0523(2) 0.32887(18)
H37 H 0.6710 0.0489 0.3372
C64 C 0.62318(14) 0.4562(2) 0.28224(15)
H38 H 0.6373 0.4634 0.2584
C65 C 0.5784(2) 0.4352(3) 0.3505(3)
H39 H 0.5623 0.4291 0.3729
C66 C 0.22412(16) -0.1141(2) 0.63662(14)
H40 H 0.2259 -0.1385 0.6100
Co1 Co 0.200919(15) 0.17458(2) 0.269699(14)
Co2 Co 0.188937(15) 0.19907(2) 0.381138(15)
Co3 Co 0.192835(15) 0.33214(2) 0.299562(15)
N1 N 0.20301(11) 0.15848(16) 0.45130(10)
N2 N 0.21756(10) -0.11747(15) 0.71575(10)
O1 O 0.64772(9) 0.27309(13) 0.71160(8)
O2 O 0.66839(9) 0.16246(12) 0.72922(8)
O3 O 0.25145(8) 0.24703(12) 0.26309(8)
O4 O 0.26324(8) 0.33272(12) 0.31601(8)
O5 O 0.65564(8) 0.59439(13) 0.27626(8)
O6 O 0.66284(10) 0.60547(13) 0.35416(9)
O7 O 0.25619(8) 0.12876(12) 0.32174(8)
O8 O 0.25801(8) 0.18737(13) 0.38807(8)
O9 O 0.17484(8) 0.23818(11) 0.31260(7)
O10 O 0.68593(8) -0.19790(12) 0.40485(9)
O11 O 0.62067(9) -0.25781(13) 0.38241(9)
O12 O 0.67763(9) -0.07671(13) 0.32159(9)
O13 O 0.60845(10) -0.12481(15) 0.29186(12)
Co1B Co 0.700919(15) 0.67458(2) 0.269699(14)
Co1E Co 0.200919(15) -0.17458(2) 0.769699(14)
Co1G Co 0.700919(15) 0.32542(2) 0.769699(14)
Co2B Co 0.688937(15) -0.30093(2) 0.381138(15)
Co2B_2 Co 0.688937(15) 0.69907(2) 0.381138(15)
Co3B Co 0.692835(15) -0.16786(2) 0.299562(15)
Co3G Co 0.692835(15) 0.16786(2) 0.799562(15)
N2E N 0.21756(10) 0.11747(15) 0.21575(10)
O1G O 0.14772(9) 0.22691(13) 0.21160(8)
O2G O 0.16839(9) 0.33754(12) 0.22922(8)
O5B O 0.15564(8) 0.09439(13) 0.27626(8)
O6B O 0.16284(10) 0.10547(13) 0.35416(9)
O10B O 0.18593(8) 0.30210(12) 0.40485(9)
O11B O 0.12067(9) 0.24219(13) 0.38241(9)
O12B O 0.17763(9) 0.42329(13) 0.32159(9)
C67 C 0.0514(9) 0.1362(13) 0.2092(9)
H41 H 0.0678 0.1365 0.2415
C68 C 0.1011(5) 0.0847(7) 0.1785(5)
H42 H 0.1041 0.1319 0.1696
H43 H 0.1026 0.0545 0.1530
H44 H 0.1262 0.0736 0.2066
C69 C 0.0199(8) 0.0226(12) 0.1784(8)
Co4 Co 0.0000 0.22557(9) 0.2500
N3 N 0.0579(7) 0.0759(13) 0.1875(8)
O14 O 0.0077(10) 0.3055(15) 0.2055(9)
O15 O 0.0239(8) 0.2028(13) 0.1935(8)
O16 O 0.0663(4) 0.1947(6) 0.3004(4)
C67A C -0.0514(9) 0.1362(13) 0.2908(9)
H41A H -0.0678 0.1365 0.2585
C68A C -0.1011(5) 0.0847(7) 0.3215(5)
H42A H -0.1041 0.1319 0.3304
H43A H -0.1026 0.0545 0.3470
H44A H -0.1262 0.0736 0.2934
C69A C -0.0199(8) 0.0226(12) 0.3216(8)
N3A N -0.0579(7) 0.0759(13) 0.3125(8)
O14A O -0.0077(10) 0.3055(15) 0.2945(9)
O15A O -0.0239(8) 0.2028(13) 0.3065(8)
O16A O -0.0663(4) 0.1947(6) 0.1996(4)
O17 O 0.0470(3) 0.4025(5) 0.1953(3)
loop_
_geom_bond_atom_site_label_1
_geom_bond_atom_site_label_2
_geom_bond_site_symmetry_1
_geom_bond_site_symmetry_2
C1 C6 1_555 1_555
C2 C8 1_555 1_555
C3 H1 1_555 1_555
C4 C17 1_555 1_555
C5 H2 1_555 1_555
C6 C18 1_555 1_555
C7 C9 1_555 1_555
C8 C45 1_555 1_555
C9 O10 1_555 1_555
C10 C23 1_555 1_555
C11 C7 1_555 1_555
H3 C11 1_555 1_555
C12 C19 1_555 1_555
C13 H4 1_555 1_555
C14 H5 1_555 1_555
C15 C26 1_555 1_555
C16 C60 1_555 1_555
C17 C13 1_555 1_555
C18 C3 1_555 1_555
H6 C18 1_555 1_555
C19 H7 1_555 1_555
C20 C38 1_555 1_555
C21 C7 1_555 1_555
H8 C21 1_555 1_555
C22 C11 1_555 1_555
H9 C22 1_555 1_555
C23 C27 1_555 1_555
C24 C39 1_555 1_555
C25 H10 1_555 1_555
C26 C5 1_555 1_555
H11 C26 1_555 1_555
C27 C14 1_555 1_555
H12 C27 1_555 1_555
C28 C19 1_555 1_555
C29 C3 1_555 1_555
C30 C28 1_555 1_555
H13 C30 1_555 1_555
C31 C6 1_555 1_555
H14 C31 1_555 1_555
C32 C15 1_555 1_555
H15 C32 1_555 1_555
C33 C25 1_555 1_555
C34 C10 1_555 1_555
H16 C34 1_555 1_555
C35 C12 1_555 1_555
H17 C35 1_555 1_555
C36 C43 1_555 1_555
C37 C13 1_555 1_555
H18 C37 1_555 1_555
C38 C58 1_555 1_555
C39 C30 1_555 1_555
C40 C24 1_555 1_555
H19 C40 1_555 1_555
C41 C10 1_555 1_555
H20 C41 1_555 1_555
C42 H21 1_555 1_555
C43 H22 1_555 1_555
C44 C33 1_555 1_555
H23 C44 1_555 1_555
C45 C40 1_555 1_555
H24 C45 1_555 1_555
C46 H25 1_555 1_555
C47 C21 1_555 1_555
H26 C47 1_555 1_555
C48 C29 1_555 1_555
H27 C48 1_555 1_555
C49 C22 1_555 1_555
C50 C34 1_555 1_555
C51 C15 1_555 1_555
H28 C51 1_555 1_555
C52 C44 1_555 1_555
H29 C52 1_555 1_555
C53 H30 1_555 1_555
C54 C41 1_555 1_555
C55 H31 1_555 1_555
C56 C36 1_555 1_555
H32 C56 1_555 1_555
C57 C12 1_555 1_555
C58 C56 1_555 1_555
H33 C58 1_555 1_555
C59 C51 1_555 1_555
H34 C59 1_555 1_555
C60 C55 1_555 1_555
C61 C38 1_555 1_555
H35 C61 1_555 1_555
C62 C24 1_555 1_555
H36 C62 1_555 1_555
C63 C8 1_555 1_555
H37 C63 1_555 1_555
C64 C53 1_555 1_555
H38 C64 1_555 1_555
C65 C55 1_555 1_555
H39 C65 1_555 1_555
C66 C33 1_555 1_555
H40 C66 1_555 1_555
Co1 O3 1_555 1_555
Co2 N1 1_555 1_555
Co3 O4 1_555 1_555
N1 C5 1_555 1_555
N2 C42 1_555 1_555
O1 C20 1_555 1_555
O2 C20 1_555 1_555
O3 C1 1_555 1_555
O4 C1 1_555 1_555
O5 C16 1_555 1_555
O6 C16 1_555 1_555
O7 C4 1_555 1_555
O8 C4 1_555 1_555
O9 Co1 1_555 1_555
O10 Co2B 1_555 1_555
O11 C9 1_555 1_555
O12 C2 1_555 1_555
O13 C2 1_555 1_555
C67 H41 1_555 1_555
C68 H42 1_555 1_555
H43 C68 1_555 1_555
H44 C68 1_555 1_555
C69 N3 1_555 1_555
Co4 O14 1_555 1_555
N3 C67 1_555 1_555
O15 C67 1_555 1_555
O16 Co4 1_555 1_555
Co1B O5 1_555 1_555
Co1E N2 1_555 1_555
Co1G O1 1_555 1_555
Co2B O11 1_555 1_555
Co2B_2 O6 1_555 1_555
Co3B O12 1_555 1_555
Co3G O2 1_555 1_555
N2E Co1 1_555 1_555
O1G Co1 1_555 1_555
O2G Co3 1_555 1_555
O5B Co1 1_555 1_555
O6B Co2 1_555 1_555
O10B Co2 1_555 1_555
O11B Co2 1_555 1_555
O12B Co3 1_555 1_555
C67A H41A 1_555 1_555
C68A H42A 1_555 1_555
H43A C68A 1_555 1_555
H44A C68A 1_555 1_555
C69A N3A 1_555 1_555
N3A C67A 1_555 1_555
O14A Co4 1_555 1_555
O15A Co4 1_555 1_555
O16A Co4 1_555 1_555
C14 C17 1_555 1_555
C23 C37 1_555 1_555
C25 C32 1_555 1_555
C28 C29 1_555 1_555
C31 C48 1_555 1_555
C35 C39 1_555 1_555
C36 C50 1_555 1_555
C42 C66 1_555 1_555
C43 C61 1_555 1_555
C46 C50 1_555 1_555
C46 C54 1_555 1_555
C47 C49 1_555 1_555
C49 C54 1_555 1_555
C52 N2 1_555 1_555
C53 C57 1_555 1_555
C57 C65 1_555 1_555
C59 N1 1_555 1_555
C60 C64 1_555 1_555
C62 C63 1_555 1_555
Co1 O7 1_555 1_555
Co2 O8 1_555 1_555
Co2 O9 1_555 1_555
Co3 O9 1_555 1_555
C68 N3 1_555 1_555
Co4 O15 1_555 1_555
C67A O15A 1_555 1_555
C68A N3A 1_555 1_555

#END
