
#######################################################################
#
#                 Cambridge Crystallographic Data Centre
#                                CCDC 
#
#######################################################################
#
# If this CIF has been generated from an entry in the Cambridge 
# Structural Database, then it will include bibliographic, chemical, 
# crystal, experimental, refinement or atomic coordinate data resulting 
# from the CCDC's data processing and validation procedures.
#
#######################################################################

data_PUFWOE
_chemical_formula_moiety         '(C15 H11 Cd1 I1 N4 O2)n'
_symmetry_cell_setting           monoclinic
_symmetry_space_group_name_H-M   'C 2/c'
_symmetry_Int_Tables_number      15
_space_group_name_Hall           '-C 2yc'
loop_
_symmetry_equiv_pos_site_id
_symmetry_equiv_pos_as_xyz
1 x,y,z
2 -x,y,1/2-z
3 1/2+x,1/2+y,z
4 1/2-x,1/2+y,1/2-z
5 -x,-y,-z
6 x,-y,1/2+z
7 1/2-x,1/2-y,-z
8 1/2+x,1/2-y,1/2+z
_cell_length_a                   23.3727(14)
_cell_length_b                   6.8588(3)
_cell_length_c                   22.3411(15)
_cell_angle_alpha                90
_cell_angle_beta                 97.911(5)
_cell_angle_gamma                90
_cell_volume                     3547.39
loop_
_atom_site_label
_atom_site_type_symbol
_atom_site_fract_x
_atom_site_fract_y
_atom_site_fract_z
_atom_site_U_iso_or_equiv
_atom_site_thermal_displace_type
C1 C 0.39767(19) 0.2060(8) 0.8531(2) 0.0258 Uani
C2 C 0.3929(2) 0.2972(8) 0.7920(2) 0.0277 Uani
C3 C 0.4188(2) 0.2130(9) 0.7466(2) 0.0365 Uani
H1 H 0.4397 0.0965 0.7542 0.0440 Uiso
C4 C 0.4144(3) 0.2982(9) 0.6894(2) 0.0381 Uani
H2 H 0.4326 0.2411 0.6588 0.0460 Uiso
C5 C 0.3832(2) 0.4663(7) 0.6788(2) 0.0258 Uani
C6 C 0.3571(3) 0.5530(10) 0.7233(3) 0.0497 Uani
H3 H 0.3358 0.6686 0.7153 0.0600 Uiso
C7 C 0.3624(3) 0.4699(10) 0.7799(3) 0.0518 Uani
H4 H 0.3451 0.5304 0.8106 0.0620 Uiso
C8 C 0.4693(2) 0.7453(9) 0.6308(2) 0.0356 Uani
H5 H 0.4974 0.6446 0.6260 0.0540 Uiso
H6 H 0.4666 0.7625 0.6734 0.0540 Uiso
H7 H 0.4813 0.8669 0.6142 0.0540 Uiso
C9 C 0.41233(19) 0.6874(7) 0.59864(19) 0.0231 Uani
C10 C 0.32903(19) 0.5411(7) 0.5754(2) 0.0242 Uani
C11 C 0.27788(19) 0.4180(7) 0.5774(2) 0.0236 Uani
C12 C 0.2806(2) 0.2218(8) 0.5932(2) 0.0316 Uani
H8 H 0.3164 0.1609 0.6055 0.0380 Uiso
C13 C 0.2297(2) 0.1186(8) 0.5906(2) 0.0339 Uani
H9 H 0.2303 -0.0142 0.6010 0.0410 Uiso
C14 C 0.1778(2) 0.2117(8) 0.5724(2) 0.0303 Uani
H10 H 0.1434 0.1397 0.5708 0.0360 Uiso
C15 C 0.22370(19) 0.5014(7) 0.5599(2) 0.0253 Uani
H11 H 0.2218 0.6345 0.5497 0.0300 Uiso
Cd1 Cd 0.084264(14) 0.56738(5) 0.532763(14) 0.0229 Uani
I1 I 0.033529(13) 0.23982(5) 0.472799(14) 0.0280 Uani
N1 N 0.37636(16) 0.5547(6) 0.61959(16) 0.0232 Uani
N2 N 0.38803(17) 0.7508(6) 0.54527(18) 0.0253 Uani
N3 N 0.33552(16) 0.6582(6) 0.53022(17) 0.0254 Uani
N4 N 0.17457(16) 0.4014(6) 0.55699(18) 0.0252 Uani
O1 O 0.37768(16) 0.2960(6) 0.89498(15) 0.0335 Uani
O2 O 0.42305(16) 0.0435(6) 0.86194(16) 0.0335 Uani
Cd1C Cd 0.415736(14) 0.06738(5) 0.967237(14) 0.0229 Uani
Cd1D Cd -0.084264(14) 0.43262(5) 0.467237(14) 0.0229 Uani
Cd1F Cd 0.415736(14) 0.93262(5) 0.467237(14) 0.0229 Uani
I1D I -0.033529(13) 0.76018(5) 0.527201(14) 0.0280 Uani
N2F N 0.11197(17) 0.7492(6) 0.45473(18) 0.0253 Uani
O1C O 0.12232(16) 0.7960(6) 0.60502(15) 0.0335 Uani
O2C O 0.07695(16) 0.5435(6) 0.63806(16) 0.0335 Uani
loop_
_atom_site_aniso_label
_atom_site_aniso_U_11
_atom_site_aniso_U_22
_atom_site_aniso_U_33
_atom_site_aniso_U_23
_atom_site_aniso_U_13
_atom_site_aniso_U_12
C1 0.023(2) 0.034(3) 0.020(2) 0.0007(19) 0.0018(17) 0.0028(19)
C2 0.026(2) 0.031(3) 0.026(2) 0.004(2) 0.0031(18) 0.0059(19)
C3 0.045(3) 0.040(3) 0.026(2) 0.007(2) 0.010(2) 0.018(2)
C4 0.049(3) 0.039(3) 0.029(3) 0.009(2) 0.015(2) 0.019(3)
C5 0.025(2) 0.031(2) 0.021(2) 0.0059(19) 0.0021(17) -0.0004(19)
C6 0.072(4) 0.047(4) 0.033(3) 0.013(3) 0.018(3) 0.031(3)
C7 0.082(5) 0.047(4) 0.030(3) 0.011(3) 0.021(3) 0.032(3)
C8 0.027(2) 0.048(3) 0.031(3) 0.002(2) 0.001(2) -0.011(2)
C9 0.026(2) 0.025(2) 0.0180(19) -0.0008(17) 0.0023(16) -0.0034(18)
C10 0.021(2) 0.026(2) 0.025(2) 0.0027(18) 0.0011(17) -0.0001(18)
C11 0.020(2) 0.030(2) 0.020(2) 0.0017(18) 0.0002(16) -0.0033(18)
C12 0.028(2) 0.031(3) 0.035(3) 0.006(2) 0.002(2) -0.001(2)
C13 0.033(3) 0.026(2) 0.042(3) 0.006(2) 0.003(2) -0.003(2)
C14 0.028(2) 0.030(3) 0.032(2) 0.003(2) 0.0013(19) -0.009(2)
C15 0.026(2) 0.029(2) 0.021(2) 0.0022(18) 0.0041(17) -0.0037(19)
Cd1 0.02348(16) 0.02572(17) 0.01954(16) -0.00099(12) 0.00292(12) -0.00586(13)
I1 0.02589(16) 0.02561(16) 0.03244(17) -0.00652(12) 0.00370(12) -0.00299(12)
N1 0.0216(17) 0.030(2) 0.0177(17) 0.0041(15) 0.0013(14) -0.0022(15)
N2 0.0256(19) 0.027(2) 0.0241(19) 0.0025(16) 0.0059(15) -0.0057(16)
N3 0.0220(18) 0.030(2) 0.0232(18) 0.0058(16) -0.0005(14) -0.0046(16)
N4 0.0209(17) 0.029(2) 0.0249(19) 0.0033(16) 0.0001(14) -0.0040(16)
O1 0.042(2) 0.035(2) 0.0241(17) 0.0053(15) 0.0069(15) 0.0117(16)
O2 0.0383(19) 0.035(2) 0.0280(17) 0.0054(15) 0.0075(15) 0.0143(16)
Cd1C 0.02348 0.02572 0.01954 0.00099 0.00292 0.00586
Cd1D 0.02348 0.02572 0.01954 -0.00099 0.00292 -0.00586
Cd1F 0.02348 0.02572 0.01954 -0.00099 0.00292 -0.00586
I1D 0.02589 0.02561 0.03244 -0.00652 0.0037 -0.00299
N2F 0.0256 0.027 0.0241 0.0025 0.0059 -0.0057
O1C 0.042 0.035 0.0241 -0.0053 0.0069 -0.0117
O2C 0.0383 0.035 0.028 -0.0054 0.0075 -0.0143
loop_
_geom_bond_atom_site_label_1
_geom_bond_atom_site_label_2
_geom_bond_site_symmetry_1
_geom_bond_site_symmetry_2
C1 C2 1_555 1_555
C2 C3 1_555 1_555
C3 H1 1_555 1_555
C4 C3 1_555 1_555
H2 C4 1_555 1_555
C5 C4 1_555 1_555
C6 C5 1_555 1_555
H3 C6 1_555 1_555
C7 C2 1_555 1_555
H4 C7 1_555 1_555
C8 H5 1_555 1_555
H6 C8 1_555 1_555
H7 C8 1_555 1_555
C9 C8 1_555 1_555
C10 C11 1_555 1_555
C11 C12 1_555 1_555
C12 H8 1_555 1_555
C13 C12 1_555 1_555
H9 C13 1_555 1_555
C14 C13 1_555 1_555
H10 C14 1_555 1_555
C15 C11 1_555 1_555
H11 C15 1_555 1_555
Cd1 I1 1_555 1_555
I1 Cd1D 1_555 1_555
N1 C5 1_555 1_555
N2 C9 1_555 1_555
N3 C10 1_555 1_555
N4 C14 1_555 1_555
O1 C1 1_555 1_555
O2 C1 1_555 1_555
Cd1C O1 1_555 1_555
Cd1D I1D 1_555 1_555
Cd1F N2 1_555 1_555
I1D Cd1 1_555 1_555
N2F Cd1 1_555 1_555
O1C Cd1 1_555 1_555
O2C Cd1 1_555 1_555
C6 C7 1_555 1_555
C9 N1 1_555 1_555
C10 N1 1_555 1_555
C15 N4 1_555 1_555
Cd1 N4 1_555 1_555
N2 N3 1_555 1_555
O2 Cd1C 1_555 1_555

#END
