
#######################################################################
#
#                 Cambridge Crystallographic Data Centre
#                                CCDC 
#
#######################################################################
#
# If this CIF has been generated from an entry in the Cambridge 
# Structural Database, then it will include bibliographic, chemical, 
# crystal, experimental, refinement or atomic coordinate data resulting 
# from the CCDC's data processing and validation procedures.
#
#######################################################################

data_PUFWEU
_chemical_formula_moiety         '(C15 H11 Br1 Cd1 N4 O2)n'
_symmetry_cell_setting           monoclinic
_symmetry_space_group_name_H-M   'C 2/c'
_symmetry_Int_Tables_number      15
_space_group_name_Hall           '-C 2yc'
loop_
_symmetry_equiv_pos_site_id
_symmetry_equiv_pos_as_xyz
1 x,y,z
2 -x,y,1/2-z
3 1/2+x,1/2+y,z
4 1/2-x,1/2+y,1/2-z
5 -x,-y,-z
6 x,-y,1/2+z
7 1/2-x,1/2-y,-z
8 1/2+x,1/2-y,1/2+z
_cell_length_a                   22.946(3)
_cell_length_b                   6.7007(6)
_cell_length_c                   22.396(3)
_cell_angle_alpha                90
_cell_angle_beta                 97.210(11)
_cell_angle_gamma                90
_cell_volume                     3416.25
loop_
_atom_site_label
_atom_site_type_symbol
_atom_site_fract_x
_atom_site_fract_y
_atom_site_fract_z
_atom_site_U_iso_or_equiv
_atom_site_thermal_displace_type
C1 C 0.4035(2) 0.1993(8) 0.8511(2) 0.0282 Uani
C2 C 0.3969(2) 0.2844(8) 0.7880(2) 0.0311 Uani
C3 C 0.4195(2) 0.1856(8) 0.7425(2) 0.0325 Uani
H1 H 0.4387 0.0629 0.7502 0.0390 Uiso
C4 C 0.4139(2) 0.2657(9) 0.6852(2) 0.0343 Uani
H2 H 0.4301 0.1997 0.6541 0.0410 Uiso
C5 C 0.38478(19) 0.4407(9) 0.67423(17) 0.0277 Uani
C6 C 0.3621(3) 0.5430(9) 0.7191(2) 0.0479 Uani
H3 H 0.3426 0.6651 0.7110 0.0570 Uiso
C7 C 0.3686(3) 0.4626(9) 0.7766(2) 0.0494 Uani
H4 H 0.3534 0.5309 0.8079 0.0590 Uiso
C8 C 0.4751(2) 0.7059(9) 0.6246(2) 0.0379 Uani
H5 H 0.5019 0.5977 0.6186 0.0570 Uiso
H6 H 0.4733 0.7234 0.6673 0.0570 Uiso
H7 H 0.4891 0.8281 0.6080 0.0570 Uiso
C9 C 0.4159(2) 0.6578(7) 0.59395(18) 0.0246 Uani
C10 C 0.32885(19) 0.5281(7) 0.57314(19) 0.0235 Uani
C11 C 0.27538(18) 0.4100(8) 0.57639(17) 0.0243 Uani
C12 C 0.2752(2) 0.2134(8) 0.5940(2) 0.0344 Uani
H8 H 0.3108 0.1474 0.6066 0.0410 Uiso
C13 C 0.2226(2) 0.1136(8) 0.5932(2) 0.0332 Uani
H9 H 0.2217 -0.0203 0.6056 0.0400 Uiso
C14 C 0.1713(2) 0.2146(8) 0.57385(19) 0.0305 Uani
H10 H 0.1354 0.1464 0.5730 0.0370 Uiso
C15 C 0.2217(2) 0.5002(8) 0.55828(18) 0.0261 Uani
H11 H 0.2214 0.6352 0.5468 0.0310 Uiso
Cd1 Cd 0.079186(15) 0.57834(6) 0.533561(14) 0.0231 Uani
Br1 Br 0.03393(2) 0.26121(8) 0.47408(2) 0.0302 Uani
N1 N 0.37809(16) 0.5300(6) 0.61501(15) 0.0223 Uani
N2 N 0.39163(15) 0.7311(6) 0.54181(15) 0.0248 Uani
N3 N 0.33690(16) 0.6472(6) 0.52918(16) 0.0272 Uani
N4 N 0.17042(15) 0.4049(7) 0.55630(15) 0.0272 Uani
O1 O 0.38527(16) 0.3027(5) 0.89201(13) 0.0376 Uani
O2 O 0.42758(15) 0.0334(5) 0.86025(13) 0.0367 Uani
Cd1C Cd 0.420814(15) 0.07834(6) 0.966439(14) 0.0231 Uani
Cd1D Cd -0.079186(15) 0.42166(6) 0.466439(14) 0.0231 Uani
Cd1F Cd 0.420814(15) 0.92166(6) 0.466439(14) 0.0231 Uani
Br1D Br -0.03393(2) 0.73879(8) 0.52592(2) 0.0302 Uani
N2F N 0.10837(15) 0.7689(6) 0.45819(15) 0.0248 Uani
O1C O 0.11473(16) 0.8027(5) 0.60799(13) 0.0376 Uani
O2C O 0.07242(15) 0.5334(5) 0.63975(13) 0.0367 Uani
loop_
_atom_site_aniso_label
_atom_site_aniso_U_11
_atom_site_aniso_U_22
_atom_site_aniso_U_33
_atom_site_aniso_U_23
_atom_site_aniso_U_13
_atom_site_aniso_U_12
C1 0.025(2) 0.036(4) 0.023(2) 0.004(2) 0.0005(19) 0.005(2)
C2 0.027(2) 0.039(3) 0.026(2) 0.007(2) -0.0021(19) 0.005(2)
C3 0.036(3) 0.036(3) 0.026(2) 0.006(2) 0.006(2) 0.014(2)
C4 0.045(3) 0.040(3) 0.020(2) 0.004(2) 0.012(2) 0.006(3)
C5 0.026(2) 0.038(3) 0.019(2) 0.005(2) 0.0025(17) -0.003(3)
C6 0.074(4) 0.043(4) 0.026(3) 0.010(2) 0.004(3) 0.025(3)
C7 0.075(4) 0.052(5) 0.024(2) 0.006(2) 0.017(3) 0.030(3)
C8 0.032(3) 0.050(4) 0.030(3) 0.005(2) -0.003(2) -0.013(3)
C9 0.024(2) 0.030(3) 0.020(2) 0.0000(19) 0.0040(18) -0.004(2)
C10 0.022(2) 0.025(3) 0.024(2) 0.0025(19) 0.0047(18) -0.001(2)
C11 0.026(2) 0.030(3) 0.0170(18) 0.004(2) 0.0032(17) -0.008(3)
C12 0.029(3) 0.036(3) 0.036(3) 0.004(2) -0.004(2) -0.002(2)
C13 0.039(3) 0.025(3) 0.035(2) 0.006(2) 0.002(2) -0.008(3)
C14 0.024(2) 0.041(4) 0.026(2) 0.002(2) 0.0016(19) -0.013(2)
C15 0.031(3) 0.027(3) 0.020(2) 0.0061(19) 0.0022(19) -0.009(2)
Cd1 0.02304(16) 0.02853(19) 0.01748(14) -0.00050(18) 0.00212(11) -0.00724(19)
Br1 0.0263(2) 0.0301(3) 0.0336(2) -0.0102(2) 0.00141(19) -0.0020(2)
N1 0.0207(19) 0.027(3) 0.0191(17) 0.0048(16) 0.0019(15) -0.0034(17)
N2 0.0226(19) 0.027(2) 0.0257(18) 0.0021(18) 0.0071(15) -0.0063(19)
N3 0.024(2) 0.034(3) 0.0226(18) 0.0076(17) -0.0010(16) -0.0044(18)
N4 0.0257(19) 0.028(2) 0.0275(18) 0.003(2) 0.0018(15) -0.004(2)
O1 0.052(2) 0.039(2) 0.0219(16) 0.0023(15) 0.0053(15) 0.0182(18)
O2 0.045(2) 0.041(3) 0.0244(16) 0.0065(15) 0.0053(15) 0.0170(19)
Cd1C 0.02304 0.02853 0.01748 0.0005 0.00212 0.00724
Cd1D 0.02304 0.02853 0.01748 -0.0005 0.00212 -0.00724
Cd1F 0.02304 0.02853 0.01748 -0.0005 0.00212 -0.00724
Br1D 0.0263 0.0301 0.0336 -0.0102 0.00141 -0.002
N2F 0.0226 0.027 0.0257 0.0021 0.0071 -0.0063
O1C 0.052 0.039 0.0219 -0.0023 0.0053 -0.0182
O2C 0.045 0.041 0.0244 -0.0065 0.0053 -0.017
loop_
_geom_bond_atom_site_label_1
_geom_bond_atom_site_label_2
_geom_bond_site_symmetry_1
_geom_bond_site_symmetry_2
C1 C2 1_555 1_555
C2 C3 1_555 1_555
C3 H1 1_555 1_555
C4 C3 1_555 1_555
H2 C4 1_555 1_555
C5 C4 1_555 1_555
C6 C5 1_555 1_555
H3 C6 1_555 1_555
C7 C2 1_555 1_555
H4 C7 1_555 1_555
C8 H5 1_555 1_555
H6 C8 1_555 1_555
H7 C8 1_555 1_555
C9 C8 1_555 1_555
C10 C11 1_555 1_555
C11 C12 1_555 1_555
C12 H8 1_555 1_555
C13 C12 1_555 1_555
H9 C13 1_555 1_555
C14 C13 1_555 1_555
H10 C14 1_555 1_555
C15 C11 1_555 1_555
H11 C15 1_555 1_555
Cd1 Br1 1_555 1_555
Br1 Cd1D 1_555 1_555
N1 C5 1_555 1_555
N2 C9 1_555 1_555
N3 C10 1_555 1_555
N4 C14 1_555 1_555
O1 C1 1_555 1_555
O2 C1 1_555 1_555
Cd1C O1 1_555 1_555
Cd1D Br1D 1_555 1_555
Cd1F N2 1_555 1_555
Br1D Cd1 1_555 1_555
N2F Cd1 1_555 1_555
O1C Cd1 1_555 1_555
O2C Cd1 1_555 1_555
C6 C7 1_555 1_555
C9 N1 1_555 1_555
C10 N1 1_555 1_555
C15 N4 1_555 1_555
Cd1 N4 1_555 1_555
N2 N3 1_555 1_555
O2 Cd1C 1_555 1_555

#END
