
#######################################################################
#
#                 Cambridge Crystallographic Data Centre
#                                CCDC 
#
#######################################################################
#
# If this CIF has been generated from an entry in the Cambridge 
# Structural Database, then it will include bibliographic, chemical, 
# crystal, experimental, refinement or atomic coordinate data resulting 
# from the CCDC's data processing and validation procedures.
#
#######################################################################

data_PUFXUL
_chemical_formula_moiety         '(C52 H54 Cd2 N16 O9)n'
_symmetry_cell_setting           monoclinic
_symmetry_space_group_name_H-M   'P 21'
_symmetry_Int_Tables_number      4
_space_group_name_Hall           'P 2yb'
loop_
_symmetry_equiv_pos_site_id
_symmetry_equiv_pos_as_xyz
1 x,y,z
2 -x,1/2+y,-z
_cell_length_a                   8.0542(7)
_cell_length_b                   18.7800(14)
_cell_length_c                   19.289(2)
_cell_angle_alpha                90
_cell_angle_beta                 95.641(7)
_cell_angle_gamma                90
_cell_volume                     2903.48
loop_
_atom_site_label
_atom_site_type_symbol
_atom_site_fract_x
_atom_site_fract_y
_atom_site_fract_z
C1 C 0.7070(15) 0.3773(5) 0.5925(5)
C2 C 0.8456(13) 0.3781(5) 0.6491(5)
C3 C 0.9996(13) 0.3541(6) 0.6375(4)
H1 H 1.0166 0.3353 0.5936
C4 C 1.1328(13) 0.3565(6) 0.6893(4)
H2 H 1.2387 0.3397 0.6806
C5 C 1.1073(15) 0.3834(5) 0.7522(5)
C6 C 0.9523(18) 0.4077(7) 0.7664(6)
H3 H 0.9362 0.4259 0.8106
C7 C 0.8223(17) 0.4048(7) 0.7149(6)
H4 H 0.7162 0.4210 0.7240
C8 C 1.1522(16) 0.2906(6) 0.8825(5)
H5 H 1.1868 0.2469 0.8612
H6 H 1.0386 0.3019 0.8645
H7 H 1.1579 0.2844 0.9326
C9 C 1.2639(11) 0.3492(5) 0.8660(4)
C10 C 1.3777(14) 0.4332(5) 0.8104(5)
C11 C 1.4012(17) 0.4857(7) 0.7529(6)
H8 H 1.4933 0.5173 0.7675
H9 H 1.3000 0.5134 0.7429
H10 H 1.4252 0.4601 0.7114
C12 C -0.2495(14) 0.7645(6) 0.5088(5)
C13 C -0.1125(13) 0.7156(5) 0.4944(5)
C14 C -0.1459(15) 0.6530(6) 0.4573(6)
H11 H -0.2561 0.6417 0.4402
C15 C -0.0212(16) 0.6087(5) 0.4456(6)
H12 H -0.0453 0.5665 0.4204
C16 C 0.1388(13) 0.6234(5) 0.4695(5)
C17 C 0.1786(14) 0.6841(5) 0.5057(5)
H13 H 0.2898 0.6943 0.5220
C18 C 0.0510(13) 0.7306(5) 0.5179(5)
H14 H 0.0763 0.7729 0.5426
C19 C 0.1919(16) 0.4787(6) 0.5389(6)
H15 H 0.0897 0.4584 0.5164
H16 H 0.1649 0.5166 0.5701
H17 H 0.2551 0.4420 0.5653
C20 C 0.2927(13) 0.5079(5) 0.4854(5)
C21 C 0.3906(12) 0.5807(5) 0.4096(5)
C22 C 0.4075(16) 0.6443(6) 0.3673(6)
H18 H 0.4847 0.6347 0.3328
H19 H 0.4498 0.6832 0.3970
H20 H 0.2995 0.6571 0.3439
C23 C 1.2659(13) 0.3208(4) 0.1108(4)
C24 C 1.1329(12) 0.3147(5) 0.1606(4)
C25 C 1.1766(14) 0.2996(6) 0.2294(5)
H21 H 1.2893 0.2925 0.2455
C26 C 1.0538(13) 0.2947(5) 0.2757(5)
H22 H 1.0828 0.2838 0.3229
C27 C 0.8894(13) 0.3061(5) 0.2508(4)
C28 C 0.8468(13) 0.3220(6) 0.1805(5)
H23 H 0.7348 0.3298 0.1637
C29 C 0.9683(12) 0.3259(5) 0.1366(4)
H24 H 0.9398 0.3365 0.0893
C30 C 0.8325(15) 0.4097(6) 0.3673(5)
H25 H 0.7811 0.4367 0.4023
H26 H 0.8406 0.4391 0.3265
H27 H 0.9433 0.3947 0.3860
C31 C 0.7309(10) 0.3470(5) 0.3480(4)
C32 C 0.6385(12) 0.2499(5) 0.2956(4)
C33 C 0.6245(17) 0.1896(6) 0.2462(6)
H28 H 0.5172 0.1664 0.2479
H29 H 0.7131 0.1556 0.2589
H30 H 0.6339 0.2070 0.1994
C34 C 1.6492(15) 0.2097(5) -0.0104(5)
C35 C 1.7849(13) 0.1566(5) -0.0238(5)
C36 C 1.7462(14) 0.0888(5) -0.0465(5)
H31 H 1.6341 0.0743 -0.0528
C37 C 1.8705(15) 0.0421(5) -0.0600(6)
H32 H 1.8436 -0.0038 -0.0771
C38 C 2.0330(13) 0.0630(5) -0.0485(5)
C39 C 2.0762(14) 0.1304(5) -0.0223(5)
H33 H 2.1884 0.1439 -0.0126
C40 C 1.9502(13) 0.1760(5) -0.0112(5)
H34 H 1.9766 0.2220 0.0054
C41 C 2.1436(14) -0.0697(5) 0.0366(5)
H35 H 2.1906 -0.1159 0.0497
H36 H 2.0245 -0.0744 0.0241
H37 H 2.1633 -0.0370 0.0755
C42 C 2.2247(13) -0.0413(5) -0.0245(5)
C43 C 2.2802(14) 0.0237(5) -0.1112(5)
C44 C 2.2641(18) 0.0826(6) -0.1634(7)
H38 H 2.3056 0.1265 -0.1416
H39 H 2.1477 0.0885 -0.1808
H40 H 2.3285 0.0711 -0.2019
N1 N 1.3969(10) 0.3710(4) 0.9039(3)
N2 N 1.4692(13) 0.4250(5) 0.8674(4)
N3 N 1.2457(11) 0.3878(4) 0.8066(4)
N4 N 0.4158(11) 0.4769(4) 0.4585(4)
N5 N 0.4784(11) 0.5229(4) 0.4105(4)
N6 N 0.2708(10) 0.5737(4) 0.4559(4)
N7 N 0.5982(10) 0.3246(4) 0.3764(3)
N8 N 0.5393(10) 0.2632(4) 0.3435(4)
N9 N 0.7587(10) 0.3006(4) 0.2971(3)
N10 N 2.3575(10) -0.0664(4) -0.0489(4)
N11 N 2.3926(11) -0.0254(4) -0.1044(4)
N12 N 2.1673(10) 0.0154(4) -0.0628(4)
O1 O 0.7446(9) 0.3646(4) 0.5322(3)
O2 O 0.5608(11) 0.3903(5) 0.6046(4)
O3 O -0.2122(9) 0.8244(3) 0.5372(4)
O4 O -0.3958(10) 0.7474(4) 0.4917(4)
O5 O 1.6994(10) 0.2725(4) 0.0002(4)
O6 O 1.5016(11) 0.1915(4) -0.0123(5)
O7 O 1.2216(8) 0.3366(4) 0.0485(3)
O8 O 1.4164(9) 0.3115(4) 0.1315(3)
Cd1 Cd 0.49037(8) 0.36127(3) 0.47449(3)
Cd2 Cd 1.48326(8) 0.33853(3) 0.01528(3)
N1_2 N 1.3969(10) 0.3710(4) -0.0961(3)
N10A N 1.6425(10) 0.4336(4) 0.0489(4)
O3A O 0.2122(9) 0.3244(3) 0.4628(4)
O4A O 0.3958(10) 0.2474(4) 0.5083(4)
Cd1A Cd -0.49037(8) 0.86127(3) 0.52551(3)
Cd2_2 Cd 1.48326(8) 0.33853(3) 1.01528(3)
Cd2A Cd 2.51674(8) -0.16147(3) -0.01528(3)
C45 C 0.946(3) 0.0765(10) 0.1444(9)
C46 C 1.102(4) 0.1168(13) 0.1689(13)
H41 H 1.0993 0.1301 0.2174
H42 H 1.1095 0.1593 0.1409
H43 H 1.1990 0.0869 0.1644
N13 N 0.850(3) 0.0447(10) 0.1282(10)
C47 C 0.451(3) 0.7391(10) 0.2145(9)
C48 C 0.280(4) 0.7446(15) 0.1907(14)
H44 H 0.2192 0.7056 0.2096
H45 H 0.2661 0.7423 0.1402
H46 H 0.2365 0.7895 0.2059
N14 N 0.573(3) 0.7334(10) 0.2292(10)
C49 C 0.832(3) 0.5916(12) 0.6365(11)
C50 C 0.665(4) 0.5860(16) 0.6040(14)
H47 H 0.6538 0.5427 0.5766
H48 H 0.6404 0.6268 0.5738
H49 H 0.5875 0.5848 0.6394
N15 N 0.954(3) 0.5961(10) 0.6570(9)
C51 C 0.241(3) 0.4933(10) 0.2568(9)
C52 C 0.382(3) 0.4631(10) 0.2488(9)
H50 H 0.3753 0.4128 0.2593
H51 H 0.4695 0.4849 0.2800
H52 H 0.4075 0.4691 0.2010
N16 N 0.134(4) 0.5131(13) 0.2637(12)
O9 O 0.4167(14) 0.0761(6) 0.0807(5)
loop_
_geom_bond_atom_site_label_1
_geom_bond_atom_site_label_2
_geom_bond_site_symmetry_1
_geom_bond_site_symmetry_2
C1 C2 1_555 1_555
C2 C3 1_555 1_555
C3 H1 1_555 1_555
C4 C3 1_555 1_555
H2 C4 1_555 1_555
C5 C4 1_555 1_555
C6 C5 1_555 1_555
H3 C6 1_555 1_555
C7 C2 1_555 1_555
H4 C7 1_555 1_555
C8 H5 1_555 1_555
H6 C8 1_555 1_555
H7 C8 1_555 1_555
C9 C8 1_555 1_555
C10 C11 1_555 1_555
C11 H8 1_555 1_555
H9 C11 1_555 1_555
H10 C11 1_555 1_555
C12 C13 1_555 1_555
C13 C14 1_555 1_555
C14 H11 1_555 1_555
C15 C14 1_555 1_555
H12 C15 1_555 1_555
C16 C15 1_555 1_555
C17 C16 1_555 1_555
H13 C17 1_555 1_555
C18 C13 1_555 1_555
H14 C18 1_555 1_555
C19 H15 1_555 1_555
H16 C19 1_555 1_555
H17 C19 1_555 1_555
C20 C19 1_555 1_555
C21 C22 1_555 1_555
C22 H18 1_555 1_555
H19 C22 1_555 1_555
H20 C22 1_555 1_555
C23 C24 1_555 1_555
C24 C25 1_555 1_555
C25 H21 1_555 1_555
C26 C25 1_555 1_555
H22 C26 1_555 1_555
C27 C26 1_555 1_555
C28 C27 1_555 1_555
H23 C28 1_555 1_555
C29 C24 1_555 1_555
H24 C29 1_555 1_555
C30 H25 1_555 1_555
H26 C30 1_555 1_555
H27 C30 1_555 1_555
C31 C30 1_555 1_555
C32 C33 1_555 1_555
C33 H28 1_555 1_555
H29 C33 1_555 1_555
H30 C33 1_555 1_555
C34 C35 1_555 1_555
C35 C36 1_555 1_555
C36 H31 1_555 1_555
C37 C36 1_555 1_555
H32 C37 1_555 1_555
C38 C37 1_555 1_555
C39 C38 1_555 1_555
H33 C39 1_555 1_555
C40 C35 1_555 1_555
H34 C40 1_555 1_555
C41 H35 1_555 1_555
H36 C41 1_555 1_555
H37 C41 1_555 1_555
C42 C41 1_555 1_555
C43 C44 1_555 1_555
C44 H38 1_555 1_555
H39 C44 1_555 1_555
H40 C44 1_555 1_555
N1 C9 1_555 1_555
N2 C10 1_555 1_555
N3 C5 1_555 1_555
N4 C20 1_555 1_555
N5 C21 1_555 1_555
N6 C16 1_555 1_555
N7 C31 1_555 1_555
N8 C32 1_555 1_555
N9 C27 1_555 1_555
N10 C42 1_555 1_555
N11 C43 1_555 1_555
N12 C38 1_555 1_555
O1 C1 1_555 1_555
O2 C1 1_555 1_555
O3 C12 1_555 1_555
O4 C12 1_555 1_555
O5 C34 1_555 1_555
O6 C34 1_555 1_555
O7 C23 1_555 1_555
O8 C23 1_555 1_555
Cd1 N4 1_555 1_555
Cd2 O5 1_555 1_555
C45 C46 1_555 1_555
C46 H41 1_555 1_555
H42 C46 1_555 1_555
H43 C46 1_555 1_555
N13 C45 1_555 1_555
C47 C48 1_555 1_555
C48 H44 1_555 1_555
H45 C48 1_555 1_555
H46 C48 1_555 1_555
N14 C47 1_555 1_555
C49 C50 1_555 1_555
C50 H47 1_555 1_555
H48 C50 1_555 1_555
H49 C50 1_555 1_555
N15 C49 1_555 1_555
C51 C52 1_555 1_555
C52 H50 1_555 1_555
H51 C52 1_555 1_555
H52 C52 1_555 1_555
N16 C51 1_555 1_555
N1_2 Cd2 1_555 1_555
N10A Cd2 1_555 1_555
O3A Cd1 1_555 1_555
O4A Cd1 1_555 1_555
Cd1A O3 1_555 1_555
Cd2_2 N1 1_555 1_555
Cd2A N10 1_555 1_555
C6 C7 1_555 1_555
C9 N3 1_555 1_555
C10 N3 1_555 1_555
C17 C18 1_555 1_555
C20 N6 1_555 1_555
C21 N6 1_555 1_555
C28 C29 1_555 1_555
C31 N9 1_555 1_555
C32 N9 1_555 1_555
C39 C40 1_555 1_555
C42 N12 1_555 1_555
C43 N12 1_555 1_555
N1 N2 1_555 1_555
N4 N5 1_555 1_555
N7 N8 1_555 1_555
N7 Cd1 1_555 1_555
N10 N11 1_555 1_555
O1 Cd1 1_555 1_555
O2 Cd1 1_555 1_555
O4 Cd1A 1_555 1_555
O6 Cd2 1_555 1_555
O7 Cd2 1_555 1_555
O8 Cd2 1_555 1_555

#END
