
#######################################################################
#
#                 Cambridge Crystallographic Data Centre
#                                CCDC 
#
#######################################################################
#
# If this CIF has been generated from an entry in the Cambridge 
# Structural Database, then it will include bibliographic, chemical, 
# crystal, experimental, refinement or atomic coordinate data resulting 
# from the CCDC's data processing and validation procedures.
#
#######################################################################

data_PUFYEW
_chemical_formula_moiety         '(C75 H51 Cd3 N21 O12)n'
_symmetry_cell_setting           monoclinic
_symmetry_space_group_name_H-M   'C 2/c'
_symmetry_Int_Tables_number      15
_space_group_name_Hall           '-C 2yc'
loop_
_symmetry_equiv_pos_site_id
_symmetry_equiv_pos_as_xyz
1 x,y,z
2 -x,y,1/2-z
3 1/2+x,1/2+y,z
4 1/2-x,1/2+y,1/2-z
5 -x,-y,-z
6 x,-y,1/2+z
7 1/2-x,1/2-y,-z
8 1/2+x,1/2-y,1/2+z
_cell_length_a                   30.3606(17)
_cell_length_b                   27.1114(10)
_cell_length_c                   21.0571(10)
_cell_angle_alpha                90
_cell_angle_beta                 106.486(4)
_cell_angle_gamma                90
_cell_volume                     16619.9
loop_
_atom_site_label
_atom_site_type_symbol
_atom_site_fract_x
_atom_site_fract_y
_atom_site_fract_z
C1 C 0.42024(10) 0.56701(14) 0.16257(15)
C2 C 0.43087(9) 0.53876(12) 0.22793(13)
C3 C 0.44691(13) 0.56261(13) 0.28730(15)
H1 H 0.4525 0.5964 0.2883
C4 C 0.45487(13) 0.53635(13) 0.34606(16)
H2 H 0.4656 0.5527 0.3864
C5 C 0.44708(10) 0.48692(12) 0.34506(13)
C6 C 0.43233(13) 0.46155(13) 0.28589(15)
H3 H 0.4280 0.4276 0.2852
C7 C 0.42417(14) 0.48842(13) 0.22741(15)
H4 H 0.4140 0.4721 0.1871
C8 C 0.54124(12) 0.44982(17) 0.4310(2)
H5 H 0.5658 0.4433 0.4703
H6 H 0.5432 0.4833 0.4173
H7 H 0.5437 0.4279 0.3963
C9 C 0.49588(10) 0.44182(12) 0.44511(15)
C10 C 0.42248(10) 0.44314(11) 0.43636(13)
C11 C 0.08213(12) 0.48154(16) 0.3394(2)
C12 C 0.12416(11) 0.45889(13) 0.38404(19)
C13 C 0.13324(14) 0.40991(17) 0.3783(3)
H8 H 0.1120 0.3903 0.3484
C14 C 0.17481(16) 0.38883(17) 0.4174(3)
H9 H 0.1817 0.3559 0.4124
C15 C 0.20451(11) 0.41800(14) 0.46263(19)
C16 C 0.19496(13) 0.46605(14) 0.4708(2)
H10 H 0.2152 0.4852 0.5028
C17 C 0.15410(13) 0.48646(14) 0.4304(2)
H11 H 0.1475 0.5195 0.4355
C18 C 0.21222(15) 0.3516(2) 0.5839(3)
H12 H 0.1979 0.3800 0.5965
H13 H 0.2235 0.3305 0.6216
H14 H 0.1902 0.3340 0.5497
C19 C 0.25188(13) 0.36783(15) 0.5584(2)
C20 C 0.29064(10) 0.40085(12) 0.49591(16)
C21 C 0.37176(10) 0.45055(13) 0.41674(14)
C22 C 0.34684(15) 0.4776(2) 0.3635(2)
H15 H 0.3613 0.4952 0.3372
C23 C 0.29928(17) 0.4777(3) 0.3503(3)
H16 H 0.2814 0.4950 0.3140
C24 C 0.27827(15) 0.4519(2) 0.3915(2)
H17 H 0.2465 0.4512 0.3826
C25 C 0.30582(11) 0.42760(14) 0.44524(15)
C26 C 0.40728(15) 0.28862(14) 0.4903(2)
C27 C 0.41963(13) 0.24003(12) 0.46499(19)
C28 C 0.45927(18) 0.21452(16) 0.4959(2)
H18 H 0.4793 0.2271 0.5344
C29 C 0.46961(18) 0.17034(16) 0.4702(3)
H19 H 0.4966 0.1537 0.4909
C30 C 0.43943(14) 0.15140(12) 0.4138(2)
C31 C 0.40026(14) 0.17599(14) 0.3822(2)
H20 H 0.3804 0.1628 0.3439
C32 C 0.38995(13) 0.22048(13) 0.4068(2)
H21 H 0.3634 0.2374 0.3848
C33 C 0.4194(3) 0.05219(19) 0.4692(3)
H22 H 0.3972 0.0260 0.4584
H23 H 0.4045 0.0822 0.4759
H24 H 0.4430 0.0440 0.5089
C34 C 0.44065(19) 0.05914(15) 0.4129(3)
C35 C 0.46694(11) 0.09340(11) 0.33722(18)
C36 C 0.48397(11) 0.12651(10) 0.29420(18)
C37 C 0.48286(18) 0.17770(13) 0.2952(3)
H25 H 0.4710 0.1946 0.3252
C38 C 0.5000 0.20282(19) 0.2500
H26 H 0.5000 0.2371 0.2500
Cd1 Cd 0.397736(7) 0.378252(7) 0.548604(9)
Cd2 Cd 0.5000 0.013321(10) 0.2500
N1 N 0.45459(8) 0.45996(9) 0.40679(11)
N2 N 0.49001(8) 0.41658(10) 0.49530(12)
N3 N 0.44370(8) 0.41728(9) 0.48978(11)
N4 N 0.24707(9) 0.39597(11) 0.50300(16)
N5 N 0.29596(10) 0.35451(12) 0.58453(16)
N6 N 0.31975(8) 0.37597(10) 0.54419(14)
N7 N 0.35189(8) 0.42684(9) 0.45737(10)
N8 N 0.44898(12) 0.10402(10) 0.38819(17)
N9 N 0.45286(14) 0.02295(11) 0.3800(2)
N10 N 0.46928(10) 0.04450(9) 0.33230(16)
N11 N 0.5000 0.10228(11) 0.2500
O1 O 0.43017(8) 0.61223(9) 0.16310(11)
O2 O 0.40131(9) 0.54443(9) 0.11047(11)
O3 O 0.05209(9) 0.45393(10) 0.30311(17)
O4 O 0.07647(10) 0.52710(11) 0.33761(17)
O5 O 0.42971(12) 0.30169(10) 0.54821(15)
O6 O 0.37786(10) 0.31567(10) 0.45530(16)
C26A C 0.59272(15) 0.28862(14) 0.0097(2)
C27A C 0.58037(13) 0.24003(12) 0.03501(19)
C28A C 0.54073(18) 0.21452(16) 0.0041(2)
H18A H 0.5207 0.2271 -0.0344
C29A C 0.53039(18) 0.17034(16) 0.0298(3)
H19A H 0.5034 0.1537 0.0091
C30A C 0.56057(14) 0.15140(12) 0.0862(2)
C31A C 0.59974(14) 0.17599(14) 0.1178(2)
H20A H 0.6196 0.1628 0.1561
C32A C 0.61005(13) 0.22048(13) 0.0932(2)
H21A H 0.6366 0.2374 0.1152
C33A C 0.5806(3) 0.05219(19) 0.0308(3)
H22A H 0.6028 0.0260 0.0416
H23A H 0.5955 0.0822 0.0241
H24A H 0.5570 0.0440 -0.0089
C34A C 0.55935(19) 0.05914(15) 0.0871(3)
C35A C 0.53306(11) 0.09340(11) 0.16278(18)
C36A C 0.51603(11) 0.12651(10) 0.20580(18)
C37A C 0.51714(18) 0.17770(13) 0.2048(3)
H25A H 0.5290 0.1946 0.1748
N8A N 0.55102(12) 0.10402(10) 0.11181(17)
N9A N 0.54714(14) 0.02295(11) 0.1200(2)
N10A N 0.53072(10) 0.04450(9) 0.16770(16)
O5A O 0.57029(12) 0.30169(10) -0.04821(15)
O6A O 0.62214(10) 0.31567(10) 0.04470(16)
C1A C 0.57976(10) 0.56701(14) 0.33743(15)
C2A C 0.56913(9) 0.53876(12) 0.27207(13)
C3A C 0.55309(13) 0.56261(13) 0.21270(15)
H1A H 0.5475 0.5964 0.2117
C4A C 0.54513(13) 0.53635(13) 0.15394(16)
H2A H 0.5344 0.5527 0.1136
C5A C 0.55292(10) 0.48692(12) 0.15494(13)
C6A C 0.56767(13) 0.46155(13) 0.21411(15)
H3A H 0.5720 0.4276 0.2148
C7A C 0.57583(14) 0.48842(13) 0.27259(15)
H4A H 0.5860 0.4721 0.3129
C8A C 0.45876(12) 0.44982(17) 0.0690(2)
H5A H 0.4342 0.4433 0.0297
H6A H 0.4568 0.4833 0.0827
H7A H 0.4563 0.4279 0.1037
C9A C 0.50412(10) 0.44182(12) 0.05489(15)
C10A C 0.57752(10) 0.44314(11) 0.06364(13)
C11A C 0.91787(12) 0.48154(16) 0.1606(2)
C12A C 0.87584(11) 0.45889(13) 0.11596(19)
C13A C 0.86676(14) 0.40991(17) 0.1217(3)
H8A H 0.8880 0.3903 0.1516
C14A C 0.82519(16) 0.38883(17) 0.0826(3)
H9A H 0.8183 0.3559 0.0876
C15A C 0.79549(11) 0.41800(14) 0.03737(19)
C16A C 0.80504(13) 0.46605(14) 0.0292(2)
H10A H 0.7848 0.4852 -0.0028
C17A C 0.84590(13) 0.48646(14) 0.0696(2)
H11A H 0.8525 0.5195 0.0645
C18A C 0.78778(15) 0.3516(2) -0.0839(3)
H12A H 0.8021 0.3800 -0.0965
H13A H 0.7765 0.3305 -0.1216
H14A H 0.8098 0.3340 -0.0497
C19A C 0.74812(13) 0.36783(15) -0.0584(2)
C20A C 0.70936(10) 0.40085(12) 0.00409(16)
C21A C 0.62824(10) 0.45055(13) 0.08326(14)
C22A C 0.65316(15) 0.4776(2) 0.1365(2)
H15A H 0.6387 0.4952 0.1628
C23A C 0.70072(17) 0.4777(3) 0.1497(3)
H16A H 0.7186 0.4950 0.1860
C24A C 0.72173(15) 0.4519(2) 0.1085(2)
H17A H 0.7535 0.4512 0.1174
C25A C 0.69418(11) 0.42760(14) 0.05476(15)
Cd1A Cd 0.602264(7) 0.378252(7) -0.048604(9)
N1A N 0.54541(8) 0.45996(9) 0.09321(11)
N2A N 0.50999(8) 0.41658(10) 0.00470(12)
N3A N 0.55630(8) 0.41728(9) 0.01022(11)
N4A N 0.75293(9) 0.39597(11) -0.00300(16)
N5A N 0.70404(10) 0.35451(12) -0.08453(16)
N6A N 0.68025(8) 0.37597(10) -0.04419(14)
N7A N 0.64811(8) 0.42684(9) 0.04263(10)
O1A O 0.56983(8) 0.61223(9) 0.33690(11)
O2A O 0.59869(9) 0.54443(9) 0.38953(11)
O3A O 0.94791(9) 0.45393(10) 0.19689(17)
O4A O 0.92353(10) 0.52710(11) 0.16239(17)
Cd1D Cd 0.602264(7) 0.621748(7) 0.451396(9)
Cd1E Cd 0.397736(7) 0.621748(7) 0.048604(9)
Cd2B Cd 0.0000 0.513321(10) 0.2500
Cd2B_2 Cd 1.0000 0.513321(10) 0.2500
O1D O 0.56983(8) 0.38777(9) -0.16310(11)
O1E O 0.43017(8) 0.38777(9) 0.66310(11)
O2D O 0.59869(9) 0.45557(9) -0.11047(11)
O2E O 0.40131(9) 0.45557(9) 0.61047(11)
O3B O 0.55209(9) -0.04607(10) 0.30311(17)
O3C O 0.44791(9) -0.04607(10) 0.19689(17)
O4B O 0.57647(10) 0.02710(11) 0.33761(17)
O4C O 0.42353(10) 0.02710(11) 0.16239(17)
loop_
_geom_bond_atom_site_label_1
_geom_bond_atom_site_label_2
_geom_bond_site_symmetry_1
_geom_bond_site_symmetry_2
C1 C2 1_555 1_555
C2 C3 1_555 1_555
C3 H1 1_555 1_555
C4 C3 1_555 1_555
H2 C4 1_555 1_555
C5 C4 1_555 1_555
C6 C5 1_555 1_555
H3 C6 1_555 1_555
C7 C2 1_555 1_555
H4 C7 1_555 1_555
C8 H5 1_555 1_555
H6 C8 1_555 1_555
H7 C8 1_555 1_555
C9 C8 1_555 1_555
C10 C21 1_555 1_555
C11 C12 1_555 1_555
C12 C13 1_555 1_555
C13 H8 1_555 1_555
C14 C13 1_555 1_555
H9 C14 1_555 1_555
C15 C14 1_555 1_555
C16 C15 1_555 1_555
H10 C16 1_555 1_555
C17 C12 1_555 1_555
H11 C17 1_555 1_555
C18 H12 1_555 1_555
H13 C18 1_555 1_555
H14 C18 1_555 1_555
C19 C18 1_555 1_555
C20 C25 1_555 1_555
C21 C22 1_555 1_555
C22 H15 1_555 1_555
C23 C22 1_555 1_555
H16 C23 1_555 1_555
C24 C23 1_555 1_555
H17 C24 1_555 1_555
C25 C24 1_555 1_555
C26 C27 1_555 1_555
C27 C28 1_555 1_555
C28 H18 1_555 1_555
C29 C28 1_555 1_555
H19 C29 1_555 1_555
C30 C29 1_555 1_555
C31 C30 1_555 1_555
H20 C31 1_555 1_555
C32 C27 1_555 1_555
H21 C32 1_555 1_555
C33 H22 1_555 1_555
H23 C33 1_555 1_555
H24 C33 1_555 1_555
C34 C33 1_555 1_555
C35 C36 1_555 1_555
C36 C37 1_555 1_555
C37 H25 1_555 1_555
C38 C37 1_555 1_555
H26 C38 1_555 1_555
Cd1 N3 1_555 1_555
Cd2 N10 1_555 1_555
N1 C5 1_555 1_555
N2 C9 1_555 1_555
N3 C10 1_555 1_555
N4 C15 1_555 1_555
N5 C19 1_555 1_555
N6 C20 1_555 1_555
N7 C21 1_555 1_555
N8 C30 1_555 1_555
N9 C34 1_555 1_555
N10 C35 1_555 1_555
N11 C36 1_555 1_555
O1 C1 1_555 1_555
O2 C1 1_555 1_555
O3 C11 1_555 1_555
O4 C11 1_555 1_555
O5 C26 1_555 1_555
O6 C26 1_555 1_555
C26A C27A 1_555 1_555
C27A C28A 1_555 1_555
C28A H18A 1_555 1_555
C29A C28A 1_555 1_555
H19A C29A 1_555 1_555
C30A C29A 1_555 1_555
C31A C30A 1_555 1_555
H20A C31A 1_555 1_555
C32A C27A 1_555 1_555
H21A C32A 1_555 1_555
C33A H22A 1_555 1_555
H23A C33A 1_555 1_555
H24A C33A 1_555 1_555
C34A C33A 1_555 1_555
C35A C36A 1_555 1_555
C36A N11 1_555 1_555
C37A C38 1_555 1_555
H25A C37A 1_555 1_555
N8A C30A 1_555 1_555
N9A C34A 1_555 1_555
N10A Cd2 1_555 1_555
O5A C26A 1_555 1_555
O6A C26A 1_555 1_555
C1A C2A 1_555 1_555
C2A C3A 1_555 1_555
C3A H1A 1_555 1_555
C4A C3A 1_555 1_555
H2A C4A 1_555 1_555
C5A C4A 1_555 1_555
C6A C5A 1_555 1_555
H3A C6A 1_555 1_555
C7A C2A 1_555 1_555
H4A C7A 1_555 1_555
C8A H5A 1_555 1_555
H6A C8A 1_555 1_555
H7A C8A 1_555 1_555
C9A C8A 1_555 1_555
C10A C21A 1_555 1_555
C11A C12A 1_555 1_555
C12A C13A 1_555 1_555
C13A H8A 1_555 1_555
C14A C13A 1_555 1_555
H9A C14A 1_555 1_555
C15A C14A 1_555 1_555
C16A C15A 1_555 1_555
H10A C16A 1_555 1_555
C17A C12A 1_555 1_555
H11A C17A 1_555 1_555
C18A H12A 1_555 1_555
H13A C18A 1_555 1_555
H14A C18A 1_555 1_555
C19A C18A 1_555 1_555
C20A C25A 1_555 1_555
C21A C22A 1_555 1_555
C22A H15A 1_555 1_555
C23A C22A 1_555 1_555
H16A C23A 1_555 1_555
C24A C23A 1_555 1_555
H17A C24A 1_555 1_555
C25A C24A 1_555 1_555
Cd1A O5A 1_555 1_555
N1A C5A 1_555 1_555
N2A C9A 1_555 1_555
N3A C10A 1_555 1_555
N4A C15A 1_555 1_555
N5A C19A 1_555 1_555
N6A C20A 1_555 1_555
N7A C21A 1_555 1_555
O1A C1A 1_555 1_555
O2A C1A 1_555 1_555
O3A C11A 1_555 1_555
O4A C11A 1_555 1_555
Cd1D O1A 1_555 1_555
Cd1E O1 1_555 1_555
Cd2B O3 1_555 1_555
Cd2B_2 O3A 1_555 1_555
O1D Cd1A 1_555 1_555
O1E Cd1 1_555 1_555
O2D Cd1A 1_555 1_555
O2E Cd1 1_555 1_555
O3B Cd2 1_555 1_555
O3C Cd2 1_555 1_555
O4B Cd2 1_555 1_555
O4C Cd2 1_555 1_555
C6 C7 1_555 1_555
C9 N1 1_555 1_555
C10 N1 1_555 1_555
C16 C17 1_555 1_555
C19 N4 1_555 1_555
C20 N4 1_555 1_555
C25 N7 1_555 1_555
C31 C32 1_555 1_555
C34 N8 1_555 1_555
C35 N8 1_555 1_555
Cd1 N6 1_555 1_555
Cd1 N7 1_555 1_555
Cd1 O5 1_555 1_555
Cd1 O6 1_555 1_555
Cd2 N11 1_555 1_555
N2 N3 1_555 1_555
N5 N6 1_555 1_555
N9 N10 1_555 1_555
O2 Cd1E 1_555 1_555
O4 Cd2B 1_555 1_555
C31A C32A 1_555 1_555
C34A N8A 1_555 1_555
C35A N8A 1_555 1_555
C35A N10A 1_555 1_555
C36A C37A 1_555 1_555
N9A N10A 1_555 1_555
O6A Cd1A 1_555 1_555
C6A C7A 1_555 1_555
C9A N1A 1_555 1_555
C10A N1A 1_555 1_555
C16A C17A 1_555 1_555
C19A N4A 1_555 1_555
C20A N4A 1_555 1_555
C25A N7A 1_555 1_555
Cd1A N3A 1_555 1_555
Cd1A N6A 1_555 1_555
Cd1A N7A 1_555 1_555
N2A N3A 1_555 1_555
N5A N6A 1_555 1_555
O2A Cd1D 1_555 1_555
O4A Cd2B_2 1_555 1_555

#END
