
#######################################################################
#
#                 Cambridge Crystallographic Data Centre
#                                CCDC 
#
#######################################################################
#
# If this CIF has been generated from an entry in the Cambridge 
# Structural Database, then it will include bibliographic, chemical, 
# crystal, experimental, refinement or atomic coordinate data resulting 
# from the CCDC's data processing and validation procedures.
#
#######################################################################

data_QOKTUH
_chemical_formula_moiety         'C38 H13 Dy4 N9 O9'
_symmetry_cell_setting           cubic
_symmetry_space_group_name_H-M   'I -4 3 m'
_symmetry_Int_Tables_number      217
_space_group_name_Hall           'I -4 2 3'
loop_
_symmetry_equiv_pos_site_id
_symmetry_equiv_pos_as_xyz
1 x,y,z
2 y,-x,-z
3 -x,-y,z
4 -y,x,-z
5 -x,z,-y
6 x,-y,-z
7 -x,-z,y
8 -z,-y,x
9 -x,y,-z
10 z,-y,-x
11 z,x,y
12 y,z,x
13 -y,-z,x
14 z,-x,-y
15 -y,z,-x
16 -z,-x,y
17 -z,x,-y
18 y,-z,-x
19 -y,-x,z
20 y,x,z
21 x,-z,-y
22 x,z,y
23 -z,y,-x
24 z,y,x
25 1/2+x,1/2+y,1/2+z
26 1/2+y,1/2-x,1/2-z
27 1/2-x,1/2-y,1/2+z
28 1/2-y,1/2+x,1/2-z
29 1/2-x,1/2+z,1/2-y
30 1/2+x,1/2-y,1/2-z
31 1/2-x,1/2-z,1/2+y
32 1/2-z,1/2-y,1/2+x
33 1/2-x,1/2+y,1/2-z
34 1/2+z,1/2-y,1/2-x
35 1/2+z,1/2+x,1/2+y
36 1/2+y,1/2+z,1/2+x
37 1/2-y,1/2-z,1/2+x
38 1/2+z,1/2-x,1/2-y
39 1/2-y,1/2+z,1/2-x
40 1/2-z,1/2-x,1/2+y
41 1/2-z,1/2+x,1/2-y
42 1/2+y,1/2-z,1/2-x
43 1/2-y,1/2-x,1/2+z
44 1/2+y,1/2+x,1/2+z
45 1/2+x,1/2-z,1/2-y
46 1/2+x,1/2+z,1/2+y
47 1/2-z,1/2+y,1/2-x
48 1/2+z,1/2+y,1/2+x
_cell_length_a                   39.5241(8)
_cell_length_b                   39.5241(8)
_cell_length_c                   39.5241(8)
_cell_angle_alpha                90
_cell_angle_beta                 90
_cell_angle_gamma                90
_cell_volume                     61742.7
loop_
_atom_site_label
_atom_site_type_symbol
_atom_site_fract_x
_atom_site_fract_y
_atom_site_fract_z
Dy2 Dy 0.68769(5) 0.31231(5) 0.31231(5)
Dy3 Dy 1.0000 0.44876(5) 0.0000
C1 C 0.74185(16) 0.3334(3) 0.25815(16)
C2 C 0.7605(3) 0.3603(2) 0.2395(3)
C3 C 0.7791(4) 0.3513(2) 0.2098(3)
C4 C 0.7963(7) 0.3760(3) 0.1915(5)
C5 C 0.7947(7) 0.4098(3) 0.2053(5)
C6 C 0.7763(6) 0.4186(2) 0.2302(4)
C7 C 0.7591(4) 0.3940(2) 0.24848(19)
C8 C 0.75223(12) 0.6779(2) 0.24777(12)
C9 C 0.75774(11) 0.6402(2) 0.24227(16)
C10 C 0.7672(3) 0.6283(2) 0.21061(14)
H1 H 0.7701 0.6443 0.1928
C11 C 0.7722(4) 0.5939(2) 0.20558(8)
H2 H 0.7787 0.5861 0.1838
C12 C 0.7678(2) 0.5714(2) 0.2322(2)
C13 C 0.7584(3) 0.5833(2) 0.26395(8)
H3 H 0.7554 0.5674 0.2823
C14 C 0.7533(3) 0.6177(2) 0.26897(14)
H4 H 0.7467 0.6255 0.2913
C15 C 0.95321(14) 0.4987(2) 0.04679(14)
C16 C 0.92696(14) 0.5093(2) 0.07292(9)
C17 C 0.9154(2) 0.5425(2) 0.07388(11)
C18 C 0.8916(3) 0.5519(2) 0.09792(12)
C19 C 0.8792(2) 0.5282(3) 0.1208(2)
C20 C 0.8907(2) 0.4950(2) 0.11947(14)
C21 C 0.91461(19) 0.4855(2) 0.09544(17)
C22 C 0.8257(4) 0.5222(3) 0.1561(4)
C23 C 0.7963(6) 0.5155(4) 0.2090(5)
C24 C 0.8193(4) 0.4668(3) 0.1807(4)
N1 N 0.77278(19) 0.5374(3) 0.22722(19)
N2 N 0.8144(3) 0.4331(3) 0.1856(3)
H5 H 0.8288 0.4228 0.1712
N3 N 0.8556(2) 0.5375(4) 0.1444(2)
N4 N 0.8018(6) 0.4808(4) 0.2076(3)
N5 N 0.8082(6) 0.5362(3) 0.1832(6)
N6 N 0.8312(4) 0.4875(4) 0.1547(2)
O1 O 0.7505(2) 0.3048(3) 0.2495(2)
O2 O 0.72020(17) 0.3390(5) 0.27980(17)
O3 O 0.73022(15) 0.6781(6) 0.26978(15)
O4 O 0.7730(4) 0.7009(4) 0.2444(6)
O5 O 0.9580(2) 0.4684(2) 0.0420(2)
O6 O 0.96803(17) 0.5214(3) 0.03197(17)
C3V C 0.7902(3) 0.3513(2) 0.2209(4)
C4V C 0.8085(5) 0.3760(3) 0.2037(7)
C6V C 0.7698(4) 0.4186(2) 0.2237(6)
C7V C 0.75152(19) 0.3940(2) 0.2409(4)
C10V C 0.78939(14) 0.6283(2) 0.2328(3)
H1V H 0.8072 0.6443 0.2299
C11V C 0.79442(8) 0.5939(2) 0.2278(4)
H2V H 0.8162 0.5861 0.2213
C13V C 0.73605(8) 0.5833(2) 0.2416(3)
H3V H 0.7177 0.5674 0.2446
C14V C 0.73103(14) 0.6177(2) 0.2467(3)
H4V H 0.7087 0.6255 0.2533
C17V C 0.92612(11) 0.5425(2) 0.0846(2)
C18V C 0.90208(12) 0.5519(2) 0.1084(3)
C20V C 0.88053(14) 0.4950(2) 0.1093(2)
C21V C 0.90456(17) 0.4855(2) 0.08539(19)
C22V C 0.8439(4) 0.5222(3) 0.1743(4)
C23V C 0.7910(5) 0.5155(4) 0.2037(6)
N4V N 0.7924(3) 0.4808(4) 0.1982(6)
N5V N 0.8168(6) 0.5362(3) 0.1918(6)
N6V N 0.8453(2) 0.4875(4) 0.1688(4)
O4V O 0.7556(6) 0.7009(4) 0.2270(4)
Dy4 Dy 0.74965(4) 0.74965(4) 0.25035(4)
O7 O 0.6460(4) 0.2996(7) 0.3540(4)
O8 O 0.6537(3) 0.7309(5) 0.3463(3)
Dy1 Dy 0.68769(5) 0.68769(5) 0.31231(5)
loop_
_geom_bond_atom_site_label_1
_geom_bond_atom_site_label_2
_geom_bond_site_symmetry_1
_geom_bond_site_symmetry_2
C1 C2 1_555 1_555
C2 C3 1_555 1_555
C3 C4 1_555 1_555
C4 C5 1_555 1_555
C5 C6 1_555 1_555
C6 C7 1_555 1_555
C7 C2 1_555 1_555
C8 C9 1_555 1_555
C9 C10 1_555 1_555
C10 H1 1_555 1_555
C11 C10 1_555 1_555
H2 C11 1_555 1_555
C12 C11 1_555 1_555
C13 C12 1_555 1_555
H3 C13 1_555 1_555
C14 C9 1_555 1_555
H4 C14 1_555 1_555
C15 C16 1_555 1_555
C16 C17 1_555 1_555
C17 C18 1_555 1_555
C18 C19 1_555 1_555
C19 C20 1_555 1_555
C20 C21 1_555 1_555
C21 C16 1_555 1_555
C22 N3 1_555 1_555
C23 N1 1_555 1_555
C24 N2 1_555 1_555
N1 C12 1_555 1_555
N2 C5 1_555 1_555
H5 N2 1_555 1_555
N3 C19 1_555 1_555
N4 C23 1_555 1_555
N5 C22 1_555 1_555
N6 C22 1_555 1_555
O1 C1 1_555 1_555
O2 C1 1_555 1_555
O3 C8 1_555 1_555
O4 C8 1_555 1_555
O5 C15 1_555 1_555
O6 C15 1_555 1_555
C3V C2 1_555 1_555
C4V C4 1_555 1_555
C6V C5 1_555 1_555
C7V C2 1_555 1_555
C10V C9 1_555 1_555
H1V C10V 1_555 1_555
C11V C11 1_555 1_555
H2V C11V 1_555 1_555
C13V C12 1_555 1_555
H3V C13V 1_555 1_555
C14V C9 1_555 1_555
H4V C14V 1_555 1_555
C17V C16 1_555 1_555
C18V C18 1_555 1_555
C20V C19 1_555 1_555
C21V C16 1_555 1_555
C22V C22 1_555 1_555
C23V N1 1_555 1_555
N4V C23 1_555 1_555
N5V C22 1_555 1_555
N6V C24 1_555 1_555
O4V C8 1_555 1_555
C3 C3V 1_555 1_555
C5 C4V 1_555 1_555
C6 C7V 1_555 1_555
C7 C6V 1_555 1_555
C10 C10V 1_555 1_555
C12 C11V 1_555 1_555
C13 C14 1_555 1_555
C13 C13V 1_555 1_555
C14 C14V 1_555 1_555
C17 C17V 1_555 1_555
C19 C18V 1_555 1_555
C20 C20V 1_555 1_555
C21 C21V 1_555 1_555
C23 N5 1_555 1_555
C23 N5V 1_555 1_555
C24 N4 1_555 1_555
C24 N6 1_555 1_555
C24 N4V 1_555 1_555
N3 C22V 1_555 1_555
N4 C23V 1_555 1_555
N5 C22V 1_555 1_555
N5 C23V 1_555 1_555
N6 N6V 1_555 1_555
O4 O4V 1_555 1_555
C3V C4V 1_555 1_555
C6V C7V 1_555 1_555
C10V C11V 1_555 1_555
C13V C14V 1_555 1_555
C17V C18V 1_555 1_555
C20V C21V 1_555 1_555
C22V N5V 1_555 1_555
C22V N6V 1_555 1_555
C23V N4V 1_555 1_555
C23V N5V 1_555 1_555

#END
