
#######################################################################
#
#                 Cambridge Crystallographic Data Centre
#                                CCDC 
#
#######################################################################
#
# If this CIF has been generated from an entry in the Cambridge 
# Structural Database, then it will include bibliographic, chemical, 
# crystal, experimental, refinement or atomic coordinate data resulting 
# from the CCDC's data processing and validation procedures.
#
#######################################################################

data_GUCTAB
_chemical_formula_moiety         '(C57 H57 N6 O23 Tb4 5+)n'
_symmetry_cell_setting           cubic
_symmetry_space_group_name_H-M   'I -4 3 d'
_symmetry_Int_Tables_number      220
_space_group_name_Hall           'I -4bd 2c 3'
loop_
_symmetry_equiv_pos_site_id
_symmetry_equiv_pos_as_xyz
1 x,y,z
2 1/4+y,3/4-x,1/4-z
3 -x,1/2-y,z
4 1/4-y,1/4+x,3/4-z
5 1/4-x,1/4+z,3/4-y
6 x,-y,1/2-z
7 3/4-x,1/4-z,1/4+y
8 3/4-z,1/4-y,1/4+x
9 1/2-x,y,-z
10 1/4+z,3/4-y,1/4-x
11 z,x,y
12 y,z,x
13 -y,1/2-z,x
14 z,-x,1/2-y
15 1/2-y,z,-x
16 -z,1/2-x,y
17 1/2-z,x,-y
18 y,-z,1/2-x
19 3/4-y,1/4-x,1/4+z
20 1/4+y,1/4+x,1/4+z
21 1/4+x,3/4-z,1/4-y
22 1/4+x,1/4+z,1/4+y
23 1/4-z,1/4+y,3/4-x
24 1/4+z,1/4+y,1/4+x
25 1/2+x,1/2+y,1/2+z
26 3/4+y,1/4-x,3/4-z
27 1/2-x,-y,1/2+z
28 3/4-y,3/4+x,1/4-z
29 3/4-x,3/4+z,1/4-y
30 1/2+x,1/2-y,-z
31 1/4-x,3/4-z,3/4+y
32 1/4-z,3/4-y,3/4+x
33 -x,1/2+y,1/2-z
34 3/4+z,1/4-y,3/4-x
35 1/2+z,1/2+x,1/2+y
36 1/2+y,1/2+z,1/2+x
37 1/2-y,-z,1/2+x
38 1/2+z,1/2-x,-y
39 -y,1/2+z,1/2-x
40 1/2-z,-x,1/2+y
41 -z,1/2+x,1/2-y
42 1/2+y,1/2-z,-x
43 1/4-y,3/4-x,3/4+z
44 3/4+y,3/4+x,3/4+z
45 3/4+x,1/4-z,3/4-y
46 3/4+x,3/4+z,3/4+y
47 3/4-z,3/4+y,1/4-x
48 3/4+z,3/4+y,3/4+x
_cell_length_a                   31.5176(3)
_cell_length_b                   31.5176(3)
_cell_length_c                   31.5176(3)
_cell_angle_alpha                90
_cell_angle_beta                 90
_cell_angle_gamma                90
_cell_volume                     31308.3
loop_
_atom_site_label
_atom_site_type_symbol
_atom_site_fract_x
_atom_site_fract_y
_atom_site_fract_z
Tb1 Tb 0.07406(2) 0.57406(2) -0.07406(2)
O1 O 0.1028(2) 0.5736(3) -0.0074(3)
O2 O 0.0892(2) 0.6447(2) -0.0805(2)
O3 O 0.0315(3) 0.5315(3) -0.0315(3)
C1 C 0.1348(4) 0.5934(4) 0.0071(4)
Tb2 Tb 0.162615(16) 0.654082(17) -0.075043(18)
H1 H 0.0753 0.6600 -0.0632
C2 C 0.1537(4) 0.5790(3) 0.0490(3)
O4 O 0.1537(3) 0.6254(3) -0.0102(3)
O5 O 0.1463(3) 0.6463(3) -0.1463(3)
O6 O 0.2105(3) 0.7016(4) -0.1139(4)
O7 O 0.2051(3) 0.6924(3) -0.0263(4)
O8 O 0.2744(3) 0.6205(3) 0.0818(3)
O9 O 0.2776(3) 0.5742(4) 0.1343(3)
C3 C 0.1320(3) 0.5500(4) 0.0760(4)
C4 C 0.1955(3) 0.5934(4) 0.0597(3)
H2 H 0.1646 0.6646 -0.1646
H3 H 0.2266 0.7143 -0.0964
H4 H 0.2254 0.6871 -0.1310
H5 H 0.1892 0.7078 -0.0110
H6 H 0.2188 0.6752 -0.0106
C5 C 0.2580(4) 0.5919(5) 0.1036(4)
H7 H 0.1051 0.5393 0.0676
C6 C 0.1489(4) 0.5375(4) 0.1135(4)
C7 C 0.2133(3) 0.5792(4) 0.0951(3)
H8 H 0.2101 0.6127 0.0418
C8 C 0.1942(4) 0.5517(4) 0.1192(5)
C9 C 0.1276(4) 0.5055(4) 0.1422(5)
H9 H 0.2099 0.5397 0.1420
H10 H 0.1354 0.5117 0.1720
H11 H 0.0965 0.5086 0.1396
N1 N 0.1390(3) 0.4633(4) 0.1326(4)
C10 C 0.1128(5) 0.4400(5) 0.1098(7)
C11 C 0.1719(5) 0.4468(4) 0.1502(5)
H12 H 0.0864 0.4515 0.1011
C12 C 0.1233(6) 0.3986(6) 0.0983(7)
C13 C 0.1817(6) 0.4073(5) 0.1403(6)
H13 H 0.1887 0.4626 0.1697
H14 H 0.1041 0.3821 0.0820
C14 C 0.1627(4) 0.3814(4) 0.1111(4)
H15 H 0.2048 0.3953 0.1554
C15 C 0.1732(5) 0.3387(4) 0.0975(4)
C16 C 0.1512(6) 0.3167(5) 0.0642(5)
C17 C 0.2062(6) 0.3180(6) 0.1205(6)
H16 H 0.1303 0.3310 0.0479
C18 C 0.1603(6) 0.2755(5) 0.0559(6)
C19 C 0.2143(6) 0.2749(6) 0.1083(7)
H17 H 0.2217 0.3317 0.1424
H18 H 0.1436 0.2609 0.0355
N2 N 0.1927(5) 0.2538(5) 0.0758(5)
H19 H 0.2358 0.2598 0.1231
O1H O 0.3972(2) 0.5736(3) 0.0074(3)
O2H O 0.4108(2) 0.6447(2) 0.0805(2)
C1H C 0.3652(4) 0.5934(4) -0.0071(4)
Tb2H Tb 0.337385(16) 0.654082(17) 0.075043(18)
H1H H 0.4247 0.6600 0.0632
C2H C 0.3463(4) 0.5790(3) -0.0490(3)
O4H O 0.3463(3) 0.6254(3) 0.0102(3)
O6H O 0.2895(3) 0.7016(4) 0.1139(4)
O7H O 0.2949(3) 0.6924(3) 0.0263(4)
O8H O 0.2256(3) 0.6205(3) -0.0818(3)
O9H O 0.2224(3) 0.5742(4) -0.1343(3)
C3H C 0.3680(3) 0.5500(4) -0.0760(4)
C4H C 0.3045(3) 0.5934(4) -0.0597(3)
H3H H 0.2734 0.7143 0.0964
H4H H 0.2746 0.6871 0.1310
H5H H 0.3108 0.7078 0.0110
H6H H 0.2812 0.6752 0.0106
C5H C 0.2420(4) 0.5919(5) -0.1036(4)
H7H H 0.3949 0.5393 -0.0676
C6H C 0.3511(4) 0.5375(4) -0.1135(4)
C7H C 0.2867(3) 0.5792(4) -0.0951(3)
H8H H 0.2899 0.6127 -0.0418
C8H C 0.3058(4) 0.5517(4) -0.1192(5)
C9H C 0.3724(4) 0.5055(4) -0.1422(5)
H9H H 0.2901 0.5397 -0.1420
H10H H 0.3646 0.5117 -0.1720
H11H H 0.4035 0.5086 -0.1396
N1H N 0.3610(3) 0.4633(4) -0.1326(4)
C10H C 0.3872(5) 0.4400(5) -0.1098(7)
C11H C 0.3281(5) 0.4468(4) -0.1502(5)
H12H H 0.4136 0.4515 -0.1011
C12H C 0.3767(6) 0.3986(6) -0.0983(7)
C13H C 0.3183(6) 0.4073(5) -0.1403(6)
H13H H 0.3113 0.4626 -0.1697
H14H H 0.3959 0.3821 -0.0820
C14H C 0.3373(4) 0.3814(4) -0.1111(4)
H15H H 0.2952 0.3953 -0.1554
C15H C 0.3268(5) 0.3387(4) -0.0975(4)
C16H C 0.3488(6) 0.3167(5) -0.0642(5)
C17H C 0.2938(6) 0.3180(6) -0.1205(6)
H16H H 0.3697 0.3310 -0.0479
C18H C 0.3397(6) 0.2755(5) -0.0559(6)
C19H C 0.2857(6) 0.2749(6) -0.1083(7)
H17H H 0.2783 0.3317 -0.1424
H18H H 0.3564 0.2609 -0.0355
N2H N 0.3073(5) 0.2538(5) -0.0758(5)
H19H H 0.2642 0.2598 -0.1231
O1MA O 0.5074(3) 0.8972(2) 0.0736(3)
O2MA O 0.5805(2) 0.9108(2) 0.1447(2)
C1MA C 0.4929(4) 0.8652(4) 0.0934(4)
Tb2MA Tb 0.575043(18) 0.837385(16) 0.154082(17)
H1MA H 0.5632 0.9247 0.1600
C2MA C 0.4510(3) 0.8463(4) 0.0790(3)
O4MA O 0.5102(3) 0.8463(3) 0.1254(3)
O6MA O 0.6139(4) 0.7895(3) 0.2016(4)
O7MA O 0.5263(4) 0.7949(3) 0.1924(3)
O8MA O 0.4182(3) 0.7256(3) 0.1205(3)
O9MA O 0.3657(3) 0.7224(3) 0.0742(4)
C3MA C 0.4240(4) 0.8680(3) 0.0500(4)
C4MA C 0.4403(3) 0.8045(3) 0.0934(4)
H3MA H 0.5964 0.7734 0.2143
H4MA H 0.6310 0.7746 0.1871
H5MA H 0.5110 0.8108 0.2078
H6MA H 0.5106 0.7812 0.1752
C5MA C 0.3964(4) 0.7420(4) 0.0919(5)
H7MA H 0.4324 0.8949 0.0393
C6MA C 0.3865(4) 0.8511(4) 0.0375(4)
C7MA C 0.4049(3) 0.7867(3) 0.0792(4)
H8MA H 0.4582 0.7899 0.1127
C8MA C 0.3808(5) 0.8058(4) 0.0517(4)
C9MA C 0.3578(5) 0.8724(4) 0.0055(4)
H9MA H 0.3580 0.7901 0.0397
H10MA H 0.3280 0.8646 0.0117
H11MA H 0.3604 0.9035 0.0086
N1MA N 0.3674(4) 0.8610(3) -0.0367(4)
C10MA C 0.3902(7) 0.8872(5) -0.0600(5)
C11MA C 0.3498(5) 0.8281(5) -0.0532(4)
H12MA H 0.3989 0.9136 -0.0485
C12MA C 0.4017(7) 0.8767(6) -0.1014(6)
C13MA C 0.3597(6) 0.8183(6) -0.0927(5)
H13MA H 0.3303 0.8113 -0.0374
H14MA H 0.4180 0.8959 -0.1179
C14MA C 0.3889(4) 0.8373(4) -0.1186(4)
H15MA H 0.3446 0.7952 -0.1047
C15MA C 0.4025(4) 0.8268(5) -0.1613(4)
C16MA C 0.4358(5) 0.8488(6) -0.1833(5)
C17MA C 0.3795(6) 0.7938(6) -0.1820(6)
H16MA H 0.4521 0.8697 -0.1690
C18MA C 0.4441(6) 0.8397(6) -0.2245(5)
C19MA C 0.3917(7) 0.7857(6) -0.2251(6)
H17MA H 0.3576 0.7783 -0.1683
H18MA H 0.4645 0.8564 -0.2391
N2MA N 0.4242(5) 0.8073(5) -0.2462(5)
H19MA H 0.3769 0.7642 -0.2402
Tb1H Tb 0.42594(2) 0.57406(2) 0.07406(2)
Tb1K Tb 0.57406(2) 0.92594(2) 0.07406(2)
O1NA O 0.0074(3) 0.6028(2) -0.0736(3)
O1OA O 0.0736(3) 0.5074(3) -0.1028(2)
O2L O 0.3553(2) 0.5805(2) 0.0892(2)
O2CA O 0.5892(2) 0.8553(2) 0.0805(2)
O2NA O 0.0805(2) 0.5892(2) -0.1447(2)
O2OA O 0.1447(2) 0.5805(2) -0.0892(2)
Tb2K Tb 0.654082(17) 0.924957(18) 0.162615(16)
Tb2L Tb 0.345918(17) 0.575043(18) 0.162615(16)
Tb2HA Tb 0.424957(18) 0.662615(16) 0.154082(17)
Tb2NA Tb 0.075043(18) 0.662615(16) -0.154082(17)
Tb2OA Tb 0.154082(17) 0.575043(18) -0.162615(16)
O5H O 0.3537(3) 0.6463(3) 0.1463(3)
O5K O 0.6463(3) 0.8537(3) 0.1463(3)
O8HA O 0.5818(3) 0.7744(3) 0.1205(3)
O9M O 0.1343(3) 0.7224(3) -0.0742(4)
O9Q O 0.5742(4) 0.8657(3) 0.2224(3)
loop_
_geom_bond_atom_site_label_1
_geom_bond_atom_site_label_2
_geom_bond_site_symmetry_1
_geom_bond_site_symmetry_2
Tb1 O1 1_555 1_555
O1 C1 1_555 1_555
O2 Tb1 1_555 1_555
O3 Tb1 1_555 1_555
C1 C2 1_555 1_555
Tb2 O2 1_555 1_555
H1 O2 1_555 1_555
C2 C3 1_555 1_555
O4 C1 1_555 1_555
O5 Tb2 1_555 1_555
O6 Tb2 1_555 1_555
O7 Tb2 1_555 1_555
O8 C5 1_555 1_555
O9 C5 1_555 1_555
C3 H7 1_555 1_555
C4 C2 1_555 1_555
H2 O5 1_555 1_555
H3 O6 1_555 1_555
H4 O6 1_555 1_555
H5 O7 1_555 1_555
H6 O7 1_555 1_555
C5 C7 1_555 1_555
C6 C3 1_555 1_555
C7 C4 1_555 1_555
H8 C4 1_555 1_555
C8 C6 1_555 1_555
C9 C6 1_555 1_555
H9 C8 1_555 1_555
H10 C9 1_555 1_555
H11 C9 1_555 1_555
N1 C9 1_555 1_555
C10 N1 1_555 1_555
C11 N1 1_555 1_555
H12 C10 1_555 1_555
C12 C10 1_555 1_555
C13 C11 1_555 1_555
H13 C11 1_555 1_555
H14 C12 1_555 1_555
C14 C12 1_555 1_555
H15 C13 1_555 1_555
C15 C14 1_555 1_555
C16 C15 1_555 1_555
C17 C15 1_555 1_555
H16 C16 1_555 1_555
C18 C16 1_555 1_555
C19 C17 1_555 1_555
H17 C17 1_555 1_555
H18 C18 1_555 1_555
N2 C18 1_555 1_555
H19 C19 1_555 1_555
O1H C1H 1_555 1_555
O2H Tb2H 1_555 1_555
C1H C2H 1_555 1_555
Tb2H O8 1_555 1_555
H1H O2H 1_555 1_555
C2H C3H 1_555 1_555
O4H C1H 1_555 1_555
O6H Tb2H 1_555 1_555
O7H Tb2H 1_555 1_555
O8H Tb2 1_555 1_555
O9H C5H 1_555 1_555
C3H H7H 1_555 1_555
C4H C2H 1_555 1_555
H3H O6H 1_555 1_555
H4H O6H 1_555 1_555
H5H O7H 1_555 1_555
H6H O7H 1_555 1_555
C5H O8H 1_555 1_555
C6H C3H 1_555 1_555
C7H C4H 1_555 1_555
H8H C4H 1_555 1_555
C8H C6H 1_555 1_555
C9H C6H 1_555 1_555
H9H C8H 1_555 1_555
H10H C9H 1_555 1_555
H11H C9H 1_555 1_555
N1H C9H 1_555 1_555
C10H N1H 1_555 1_555
C11H N1H 1_555 1_555
H12H C10H 1_555 1_555
C12H C10H 1_555 1_555
C13H C11H 1_555 1_555
H13H C11H 1_555 1_555
H14H C12H 1_555 1_555
C14H C12H 1_555 1_555
H15H C13H 1_555 1_555
C15H C14H 1_555 1_555
C16H C15H 1_555 1_555
C17H C15H 1_555 1_555
H16H C16H 1_555 1_555
C18H C16H 1_555 1_555
C19H C17H 1_555 1_555
H17H C17H 1_555 1_555
H18H C18H 1_555 1_555
N2H C18H 1_555 1_555
H19H C19H 1_555 1_555
O1MA C1MA 1_555 1_555
O2MA Tb2MA 1_555 1_555
C1MA C2MA 1_555 1_555
Tb2MA O4MA 1_555 1_555
H1MA O2MA 1_555 1_555
C2MA C3MA 1_555 1_555
O4MA C1MA 1_555 1_555
O6MA Tb2MA 1_555 1_555
O7MA Tb2MA 1_555 1_555
O8MA C5MA 1_555 1_555
O9MA Tb2H 1_555 1_555
C3MA H7MA 1_555 1_555
C4MA C2MA 1_555 1_555
H3MA O6MA 1_555 1_555
H4MA O6MA 1_555 1_555
H5MA O7MA 1_555 1_555
H6MA O7MA 1_555 1_555
C5MA O9MA 1_555 1_555
C6MA C3MA 1_555 1_555
C7MA C4MA 1_555 1_555
H8MA C4MA 1_555 1_555
C8MA C6MA 1_555 1_555
C9MA C6MA 1_555 1_555
H9MA C8MA 1_555 1_555
H10MA C9MA 1_555 1_555
H11MA C9MA 1_555 1_555
N1MA C9MA 1_555 1_555
C10MA N1MA 1_555 1_555
C11MA N1MA 1_555 1_555
H12MA C10MA 1_555 1_555
C12MA C10MA 1_555 1_555
C13MA C11MA 1_555 1_555
H13MA C11MA 1_555 1_555
H14MA C12MA 1_555 1_555
C14MA C12MA 1_555 1_555
H15MA C13MA 1_555 1_555
C15MA C14MA 1_555 1_555
C16MA C15MA 1_555 1_555
C17MA C15MA 1_555 1_555
H16MA C16MA 1_555 1_555
C18MA C16MA 1_555 1_555
C19MA C17MA 1_555 1_555
H17MA C17MA 1_555 1_555
H18MA C18MA 1_555 1_555
N2MA C18MA 1_555 1_555
H19MA C19MA 1_555 1_555
Tb1H O1H 1_555 1_555
Tb1K O1MA 1_555 1_555
O1NA Tb1 1_555 1_555
O1OA Tb1 1_555 1_555
O2L Tb2H 1_555 1_555
O2CA Tb2MA 1_555 1_555
O2NA Tb1 1_555 1_555
O2OA Tb1 1_555 1_555
Tb2K O2MA 1_555 1_555
Tb2L O9 1_555 1_555
Tb2HA O2H 1_555 1_555
Tb2NA O2 1_555 1_555
Tb2OA O5 1_555 1_555
O5H Tb2H 1_555 1_555
O5K Tb2MA 1_555 1_555
O8HA Tb2MA 1_555 1_555
O9M Tb2 1_555 1_555
O9Q Tb2MA 1_555 1_555
Tb2 O4 1_555 1_555
Tb2 O2OA 1_555 1_555
O5 Tb2NA 1_555 1_555
C7 C8 1_555 1_555
C13 C14 1_555 1_555
C19 N2 1_555 1_555
O2H Tb1H 1_555 1_555
Tb2H O4H 1_555 1_555
O9H Tb2OA 1_555 1_555
C5H C7H 1_555 1_555
C7H C8H 1_555 1_555
C13H C14H 1_555 1_555
C19H N2H 1_555 1_555
O2MA Tb1K 1_555 1_555
O8MA Tb2HA 1_555 1_555
C5MA C7MA 1_555 1_555
C7MA C8MA 1_555 1_555
C13MA C14MA 1_555 1_555
C19MA N2MA 1_555 1_555
Tb1H O2L 1_555 1_555
Tb1K O2CA 1_555 1_555
O2L Tb2L 1_555 1_555
O2NA Tb2NA 1_555 1_555
O2NA Tb2OA 1_555 1_555
O2OA Tb2OA 1_555 1_555
Tb2K O5K 1_555 1_555
Tb2L O5H 1_555 1_555
Tb2HA O5H 1_555 1_555

#END
