
#######################################################################
#
#                 Cambridge Crystallographic Data Centre
#                                CCDC 
#
#######################################################################
#
# If this CIF has been generated from an entry in the Cambridge 
# Structural Database, then it will include bibliographic, chemical, 
# crystal, experimental, refinement or atomic coordinate data resulting 
# from the CCDC's data processing and validation procedures.
#
#######################################################################

data_IXOFUX01
_chemical_formula_moiety         '(C14 H14 O5 V1)n'
_symmetry_cell_setting           orthorhombic
_symmetry_space_group_name_H-M   'P 21 21 21'
_symmetry_Int_Tables_number      19
_space_group_name_Hall           'P 2ac 2ab'
loop_
_symmetry_equiv_pos_site_id
_symmetry_equiv_pos_as_xyz
1 x,y,z
2 1/2-x,-y,1/2+z
3 -x,1/2+y,1/2-z
4 1/2+x,1/2-y,-z
_cell_length_a                   6.827(3)
_cell_length_b                   13.965(6)
_cell_length_c                   16.074(6)
_cell_angle_alpha                90
_cell_angle_beta                 90
_cell_angle_gamma                90
_cell_volume                     1532.48
loop_
_atom_site_label
_atom_site_type_symbol
_atom_site_fract_x
_atom_site_fract_y
_atom_site_fract_z
C1 C -0.2756(10) 1.1162(6) 0.8985(4)
C2 C -0.2628(10) 1.0405(6) 0.8339(5)
C3 C -0.4303(12) 0.9968(6) 0.8034(5)
H1 H -0.5512 1.0105 0.8273
C4 C -0.4191(12) 0.9330(6) 0.7380(6)
H2 H -0.5326 0.9045 0.7177
C5 C -0.2249(10) 0.8482(6) 0.6282(5)
C6 C -0.2364(10) 0.9108(6) 0.7016(4)
C7 C -0.0667(12) 0.9511(7) 0.7362(6)
H3 H 0.0555 0.9342 0.7153
C8 C -0.0797(11) 1.0152(6) 0.8006(6)
H4 H 0.0338 1.0422 0.8224
O1 O 0.2823(6) 0.8073(3) 0.5090(3)
O2 O -0.4464(8) 1.1391(4) 0.9260(3)
O3 O -0.0554(8) 0.8308(4) 0.5991(3)
O4 O -0.1131(7) 1.1537(4) 0.9251(3)
O5 O -0.3834(7) 0.8158(4) 0.5982(3)
V1 V 0.06513(13) 0.76403(6) 0.50135(9)
O1C O -0.2177(6) 0.6927(3) 0.4910(3)
O2A O -0.0536(8) 0.8609(4) 0.4260(3)
O4B O 0.1131(7) 0.6537(4) 0.5749(3)
O5C O 0.1166(7) 0.6842(4) 0.4018(3)
V1C V 0.56513(13) 0.73597(6) 0.49865(9)
V1A V -0.56513(13) 1.23597(6) 1.00135(9)
V1B V -0.06513(13) 1.26403(6) 0.99865(9)
V1C_2 V -0.43487(13) 0.73597(6) 0.49865(9)
C9 C 0.344(4) 0.842(2) 0.109(2)
H5 H 0.4657 0.8181 0.1255
C10 C 0.186(7) 0.7982(17) 0.1418(14)
H6 H 0.1939 0.7521 0.1834
C11 C -0.007(5) 0.831(3) 0.105(2)
H7 H -0.0969 0.8406 0.1506
H8 H -0.0581 0.7774 0.0725
C12 C -0.019(4) 0.919(3) 0.049(2)
H9 H -0.1309 0.9140 0.0127
H10 H -0.0360 0.9757 0.0837
C13 C 0.164(6) 0.9293(14) -0.0013(13)
H11 H 0.1684 0.8782 -0.0421
H12 H 0.1593 0.9896 -0.0313
C14 C 0.345(5) 0.926(2) 0.049(2)
H13 H 0.3574 0.9856 0.0797
H14 H 0.4570 0.9210 0.0120
loop_
_geom_bond_atom_site_label_1
_geom_bond_atom_site_label_2
_geom_bond_site_symmetry_1
_geom_bond_site_symmetry_2
C1 C2 1_555 1_555
C2 C3 1_555 1_555
C3 H1 1_555 1_555
C4 C3 1_555 1_555
H2 C4 1_555 1_555
C5 C6 1_555 1_555
C6 C4 1_555 1_555
C7 C6 1_555 1_555
H3 C7 1_555 1_555
C8 C2 1_555 1_555
H4 C8 1_555 1_555
C9 H5 1_555 1_555
C10 C9 1_555 1_555
H6 C10 1_555 1_555
C11 C10 1_555 1_555
H7 C11 1_555 1_555
H8 C11 1_555 1_555
C12 C11 1_555 1_555
H9 C12 1_555 1_555
H10 C12 1_555 1_555
C13 C12 1_555 1_555
H11 C13 1_555 1_555
H12 C13 1_555 1_555
C14 C9 1_555 1_555
H13 C14 1_555 1_555
H14 C14 1_555 1_555
O1 V1 1_555 1_555
O2 C1 1_555 1_555
O3 C5 1_555 1_555
O4 C1 1_555 1_555
O5 C5 1_555 1_555
V1 O3 1_555 1_555
O1C V1 1_555 1_555
O2A V1 1_555 1_555
O4B V1 1_555 1_555
O5C V1 1_555 1_555
V1C O1 1_555 1_555
V1A O2 1_555 1_555
V1B O4 1_555 1_555
V1C_2 O5 1_555 1_555
C7 C8 1_555 1_555
C13 C14 1_555 1_555
O1C V1C_2 1_555 1_555

#END
