
#######################################################################
#
#                 Cambridge Crystallographic Data Centre
#                                CCDC 
#
#######################################################################
#
# If this CIF has been generated from an entry in the Cambridge 
# Structural Database, then it will include bibliographic, chemical, 
# crystal, experimental, refinement or atomic coordinate data resulting 
# from the CCDC's data processing and validation procedures.
#
#######################################################################

data_QIWDOR
_chemical_formula_moiety         '(C22 H18 Cu2 N6 O8)n'
_symmetry_cell_setting           monoclinic
_symmetry_space_group_name_H-M   'C 2/c'
_symmetry_Int_Tables_number      15
_space_group_name_Hall           '-C 2yc'
loop_
_symmetry_equiv_pos_site_id
_symmetry_equiv_pos_as_xyz
1 x,y,z
2 -x,y,1/2-z
3 1/2+x,1/2+y,z
4 1/2-x,1/2+y,1/2-z
5 -x,-y,-z
6 x,-y,1/2+z
7 1/2-x,1/2-y,-z
8 1/2+x,1/2-y,1/2+z
_cell_length_a                   24.119(2)
_cell_length_b                   10.2056(7)
_cell_length_c                   10.8193(7)
_cell_angle_alpha                90
_cell_angle_beta                 91.640(6)
_cell_angle_gamma                90
_cell_volume                     2662.07
loop_
_atom_site_label
_atom_site_type_symbol
_atom_site_fract_x
_atom_site_fract_y
_atom_site_fract_z
_atom_site_U_iso_or_equiv
_atom_site_thermal_displace_type
C1 C 0.7602(3) 0.7113(6) 0.7778(6) 0.0423 Uani
H1 H 0.7410 0.7376 0.7063 0.0510 Uiso
C2 C 0.8234(3) 0.7584(6) 0.9324(5) 0.0393 Uani
H2 H 0.8480 0.8171 0.9704 0.0470 Uiso
C3 C 0.8174(2) 0.6348(6) 0.9831(5) 0.0337 Uani
C4 C 0.7790(3) 0.5568(6) 0.9220(6) 0.0409 Uani
H3 H 0.7721 0.4741 0.9543 0.0490 Uiso
C5 C 0.8498(3) 0.5909(6) 1.0919(5) 0.0341 Uani
C6 C 0.8736(3) 0.6793(7) 1.1762(6) 0.0422 Uani
H4 H 0.8668 0.7684 1.1664 0.0510 Uiso
C7 C 0.9074(3) 0.6368(7) 1.2746(6) 0.0455 Uani
H5 H 0.9233 0.6969 1.3296 0.0550 Uiso
C8 C 0.9169(3) 0.5050(7) 1.2896(6) 0.0413 Uani
C9 C 0.8935(3) 0.4197(7) 1.2096(6) 0.0451 Uani
H6 H 0.9006 0.3307 1.2198 0.0540 Uiso
C10 C 0.8594(3) 0.4599(6) 1.1127(6) 0.0401 Uani
H7 H 0.8426 0.3979 1.0610 0.0480 Uiso
C11 C 0.9829(3) 0.5426(7) 1.4546(6) 0.0455 Uani
H8 H 0.9594 0.6024 1.4990 0.0540 Uiso
H9 H 1.0071 0.5932 1.4027 0.0540 Uiso
Cu1 Cu 0.69753(4) 0.47205(9) 0.73868(9) 0.0616 Uani
N1 N 0.6437(5) 0.631(2) 0.524(2) 0.1185 Uani
N2 N 0.7508(2) 0.5927(5) 0.8190(5) 0.0440 Uani
N3 N 0.7949(2) 0.7960(5) 0.8300(5) 0.0416 Uani
O1 O 0.9508(2) 0.4552(5) 1.3831(4) 0.0523 Uani
O2 O 0.6377(5) 0.5549(12) 0.6083(10) 0.1345 Uani
O3 O 0.6921(4) 0.6583(11) 0.5110(8) 0.1272 Uani
O4 O 0.6416(7) 0.5371(14) 0.4002(13) 0.0903 Uani
C1D C 1.2398(3) 0.2887(6) 2.2222(6) 0.0423 Uani
H1D H 1.2590 0.2624 2.2937 0.0510 Uiso
C2D C 1.1766(3) 0.2416(6) 2.0676(5) 0.0393 Uani
H2D H 1.1520 0.1829 2.0296 0.0470 Uiso
C3D C 1.1826(2) 0.3652(6) 2.0169(5) 0.0337 Uani
C4D C 1.2210(3) 0.4432(6) 2.0780(6) 0.0409 Uani
H3D H 1.2279 0.5259 2.0457 0.0490 Uiso
C5D C 1.1502(3) 0.4091(6) 1.9081(5) 0.0341 Uani
C6D C 1.1264(3) 0.3207(7) 1.8238(6) 0.0422 Uani
H4D H 1.1332 0.2316 1.8336 0.0510 Uiso
C7D C 1.0926(3) 0.3632(7) 1.7254(6) 0.0455 Uani
H5D H 1.0767 0.3031 1.6704 0.0550 Uiso
C8D C 1.0831(3) 0.4950(7) 1.7104(6) 0.0413 Uani
C9D C 1.1065(3) 0.5803(7) 1.7904(6) 0.0451 Uani
H6D H 1.0994 0.6693 1.7802 0.0540 Uiso
C10D C 1.1406(3) 0.5401(6) 1.8873(6) 0.0401 Uani
H7D H 1.1574 0.6021 1.9390 0.0480 Uiso
C11D C 1.0171(3) 0.4574(7) 1.5454(6) 0.0455 Uani
H8D H 1.0406 0.3976 1.5010 0.0540 Uiso
H9D H 0.9929 0.4068 1.5973 0.0540 Uiso
N2D N 1.2492(2) 0.4073(5) 2.1810(5) 0.0440 Uani
N3D N 1.2051(2) 0.2040(5) 2.1700(5) 0.0416 Uani
O1D O 1.0492(2) 0.5448(5) 1.6169(4) 0.0523 Uani
Cu1D Cu 1.30247(4) 0.52795(9) 2.26132(9) 0.0616 Uani
N1D N 1.3563(5) 0.369(2) 2.476(2) 0.1185 Uani
O2D O 1.3623(5) 0.4451(12) 2.3917(10) 0.1345 Uani
O3D O 1.3079(4) 0.3417(11) 2.4890(8) 0.1272 Uani
O4D O 1.3584(7) 0.4629(14) 2.5998(13) 0.0903 Uani
Cu1A Cu 1.30247(4) 0.47205(9) 2.76132(9) 0.0616 Uani
Cu1C Cu 0.80247(4) 0.97205(9) 0.76132(9) 0.0616 Uani
Cu1E Cu 0.69753(4) 0.52795(9) 0.23868(9) 0.0616 Uani
Cu1G Cu 1.19753(4) 0.02795(9) 2.23868(9) 0.0616 Uani
N3C N 0.7051(2) 0.2960(5) 0.6700(5) 0.0416 Uani
N3G N 1.2949(2) 0.7040(5) 2.3300(5) 0.0416 Uani
O4A O 1.3584(7) 0.5371(14) 2.0998(13) 0.0903 Uani
O4E O 0.6416(7) 0.4629(14) 0.9002(13) 0.0903 Uani
loop_
_atom_site_aniso_label
_atom_site_aniso_U_11
_atom_site_aniso_U_22
_atom_site_aniso_U_33
_atom_site_aniso_U_23
_atom_site_aniso_U_13
_atom_site_aniso_U_12
C1 0.053(4) 0.036(3) 0.037(3) -0.006(3) -0.016(3) 0.005(3)
C2 0.047(4) 0.031(3) 0.039(3) -0.005(2) -0.012(3) 0.004(3)
C3 0.033(3) 0.033(3) 0.035(3) 0.000(2) -0.003(2) 0.006(2)
C4 0.053(4) 0.031(3) 0.038(3) 0.000(2) -0.009(3) -0.005(3)
C5 0.035(3) 0.039(3) 0.028(3) 0.001(2) -0.004(2) 0.005(3)
C6 0.048(4) 0.039(3) 0.039(3) 0.001(3) -0.009(3) 0.007(3)
C7 0.049(4) 0.052(4) 0.035(3) -0.006(3) -0.009(3) 0.004(3)
C8 0.039(4) 0.052(4) 0.033(3) 0.013(3) 0.001(3) 0.008(3)
C9 0.056(4) 0.041(3) 0.038(3) 0.010(3) -0.004(3) 0.009(3)
C10 0.045(4) 0.040(4) 0.035(3) 0.002(3) -0.005(3) -0.002(3)
C11 0.047(4) 0.059(4) 0.030(3) 0.008(3) -0.007(3) 0.012(3)
Cu1 0.0787(9) 0.0436(7) 0.0609(7) -0.0125(4) -0.0250(5) -0.0074(4)
N1 0.125 0.104 0.126 0.01 -0.005 -0.006
N2 0.052(3) 0.038(3) 0.041(3) -0.005(2) -0.015(2) 0.004(2)
N3 0.051(3) 0.034(3) 0.039(3) 0.001(2) -0.013(2) 0.008(2)
O1 0.057(3) 0.060(3) 0.039(2) 0.012(2) -0.015(2) 0.006(2)
O2 0.129 0.141 0.132 -0.021 -0.023 0.015
O3 0.117 0.157 0.107 -0.016 -0.005 0.053
O4 0.09 0.094 0.087 -0.001 0.004 0.001
C1D 0.053 0.036 0.037 -0.006 -0.016 0.005
C2D 0.047 0.031 0.039 -0.005 -0.012 0.004
C3D 0.033 0.033 0.035 0 -0.003 0.006
C4D 0.053 0.031 0.038 0 -0.009 -0.005
C5D 0.035 0.039 0.028 0.001 -0.004 0.005
C6D 0.048 0.039 0.039 0.001 -0.009 0.007
C7D 0.049 0.052 0.035 -0.006 -0.009 0.004
C8D 0.039 0.052 0.033 0.013 0.001 0.008
C9D 0.056 0.041 0.038 0.01 -0.004 0.009
C10D 0.045 0.04 0.035 0.002 -0.005 -0.002
C11D 0.047 0.059 0.03 0.008 -0.007 0.012
N2D 0.052 0.038 0.041 -0.005 -0.015 0.004
N3D 0.051 0.034 0.039 0.001 -0.013 0.008
O1D 0.057 0.06 0.039 0.012 -0.015 0.006
Cu1D 0.0787 0.0436 0.0609 -0.0125 -0.025 -0.0074
N1D 0.125 0.104 0.126 0.01 -0.005 -0.006
O2D 0.129 0.141 0.132 -0.021 -0.023 0.015
O3D 0.117 0.157 0.107 -0.016 -0.005 0.053
O4D 0.09 0.094 0.087 -0.001 0.004 0.001
Cu1A 0.0787 0.0436 0.0609 0.0125 -0.025 0.0074
Cu1C 0.0787 0.0436 0.0609 0.0125 -0.025 0.0074
Cu1E 0.0787 0.0436 0.0609 0.0125 -0.025 0.0074
Cu1G 0.0787 0.0436 0.0609 0.0125 -0.025 0.0074
N3C 0.051 0.034 0.039 -0.001 -0.013 -0.008
N3G 0.051 0.034 0.039 -0.001 -0.013 -0.008
O4A 0.09 0.094 0.087 0.001 0.004 -0.001
O4E 0.09 0.094 0.087 0.001 0.004 -0.001
loop_
_geom_bond_atom_site_label_1
_geom_bond_atom_site_label_2
_geom_bond_site_symmetry_1
_geom_bond_site_symmetry_2
C1 H1 1_555 1_555
C2 H2 1_555 1_555
C3 C2 1_555 1_555
C4 C3 1_555 1_555
H3 C4 1_555 1_555
C5 C3 1_555 1_555
C6 C5 1_555 1_555
H4 C6 1_555 1_555
C7 C6 1_555 1_555
H5 C7 1_555 1_555
C8 C7 1_555 1_555
C9 C8 1_555 1_555
H6 C9 1_555 1_555
C10 C5 1_555 1_555
H7 C10 1_555 1_555
C11 H8 1_555 1_555
H9 C11 1_555 1_555
Cu1 N2 1_555 1_555
N1 O2 1_555 1_555
N2 C1 1_555 1_555
N3 C1 1_555 1_555
O1 C8 1_555 1_555
O2 Cu1 1_555 1_555
O3 N1 1_555 1_555
O4 N1 1_555 1_555
C1D H1D 1_555 1_555
C2D H2D 1_555 1_555
C3D C2D 1_555 1_555
C4D C3D 1_555 1_555
H3D C4D 1_555 1_555
C5D C3D 1_555 1_555
C6D C5D 1_555 1_555
H4D C6D 1_555 1_555
C7D C6D 1_555 1_555
H5D C7D 1_555 1_555
C8D C7D 1_555 1_555
C9D C8D 1_555 1_555
H6D C9D 1_555 1_555
C10D C5D 1_555 1_555
H7D C10D 1_555 1_555
C11D C11 1_555 1_555
H8D C11D 1_555 1_555
H9D C11D 1_555 1_555
N2D C1D 1_555 1_555
N3D C1D 1_555 1_555
O1D C8D 1_555 1_555
Cu1D N2D 1_555 1_555
N1D O2D 1_555 1_555
O2D Cu1D 1_555 1_555
O3D N1D 1_555 1_555
O4D N1D 1_555 1_555
Cu1A O4D 1_555 1_555
Cu1C N3 1_555 1_555
Cu1E O4 1_555 1_555
Cu1G N3D 1_555 1_555
N3C Cu1 1_555 1_555
N3G Cu1D 1_555 1_555
O4A Cu1D 1_555 1_555
O4E Cu1 1_555 1_555
C2 N3 1_555 1_555
C4 N2 1_555 1_555
C9 C10 1_555 1_555
C11 O1 1_555 1_555
C2D N3D 1_555 1_555
C4D N2D 1_555 1_555
C9D C10D 1_555 1_555
C11D O1D 1_555 1_555

#END
