
#######################################################################
#
#                 Cambridge Crystallographic Data Centre
#                                CCDC 
#
#######################################################################
#
# If this CIF has been generated from an entry in the Cambridge 
# Structural Database, then it will include bibliographic, chemical, 
# crystal, experimental, refinement or atomic coordinate data resulting 
# from the CCDC's data processing and validation procedures.
#
#######################################################################

data_ISIYUF03
_chemical_formula_moiety         'C15 H24 Er9 N2 O23 2+'
_symmetry_cell_setting           monoclinic
_symmetry_space_group_name_H-M   'C 2/c'
_symmetry_Int_Tables_number      15
_space_group_name_Hall           '-C 2yc'
loop_
_symmetry_equiv_pos_site_id
_symmetry_equiv_pos_as_xyz
1 x,y,z
2 -x,y,1/2-z
3 1/2+x,1/2+y,z
4 1/2-x,1/2+y,1/2-z
5 -x,-y,-z
6 x,-y,1/2+z
7 1/2-x,1/2-y,-z
8 1/2+x,1/2-y,1/2+z
_cell_length_a                   13.12(2)
_cell_length_b                   13.049(2)
_cell_length_c                   12.850(5)
_cell_angle_alpha                90
_cell_angle_beta                 105.70(10)
_cell_angle_gamma                90
_cell_volume                     2117.88
loop_
_atom_site_label
_atom_site_type_symbol
_atom_site_fract_x
_atom_site_fract_y
_atom_site_fract_z
_atom_site_U_iso_or_equiv
_atom_site_thermal_displace_type
N1 N 0.076(5) -0.134(5) 0.421(5) 0.0500 Uiso
H5 H 0.1035 -0.0773 0.4107 0.0600 Uiso
C7 C 0.0005 -0.1267 0.4904 0.0500 Uiso
H6 H -0.0593 -0.0857 0.4540 0.0750 Uiso
H7 H 0.0356 -0.0954 0.5582 0.0750 Uiso
H8 H -0.0232 -0.1940 0.5030 0.0750 Uiso
C8 C 0.010(12) -0.167(7) 0.3118(16) 0.0500 Uiso
H9 H -0.0586 -0.1416 0.3162 0.0600 Uiso
H10 H 0.0067 -0.2397 0.3239 0.0600 Uiso
C9 C 0.154(11) -0.217(8) 0.470(8) 0.0500 Uiso
H11 H 0.1949 -0.1959 0.5410 0.0750 Uiso
H12 H 0.2008 -0.2285 0.4254 0.0750 Uiso
H13 H 0.1169 -0.2791 0.4761 0.0750 Uiso
N1A N -0.076(5) -0.134(5) 0.079(5) 0.0500 Uiso
H5A H -0.1035 -0.0773 0.0893 0.0600 Uiso
C7A C -0.0005 -0.1267 0.0096 0.0500 Uiso
H6A H 0.0593 -0.0857 0.0460 0.0750 Uiso
H7A H -0.0356 -0.0954 -0.0582 0.0750 Uiso
H8A H 0.0232 -0.1940 -0.0030 0.0750 Uiso
C8A C -0.010(12) -0.167(7) 0.1882(16) 0.0500 Uiso
H9A H 0.0586 -0.1416 0.1838 0.0600 Uiso
H10A H -0.0067 -0.2397 0.1761 0.0600 Uiso
C9A C -0.154(11) -0.217(8) 0.030(8) 0.0500 Uiso
H11A H -0.1949 -0.1959 -0.0410 0.0750 Uiso
H12A H -0.2008 -0.2285 0.0746 0.0750 Uiso
H13A H -0.1169 -0.2791 0.0239 0.0750 Uiso
Er1 Er 0.2662(12) 0.0672(4) 0.3232(6) 0.0500 Uiso
O1 O 0.218(12) 0.019(5) -0.043(6) 0.0500 Uiso
O2 O 0.195(7) 0.053(5) 0.117(5) 0.0500 Uiso
O3 O 0.0851(14) 0.068(4) 0.292(5) 0.0500 Uiso
O4 O 0.418(2) 0.084(4) 0.257(6) 0.0500 Uiso
O5 O 0.231(12) 0.407(4) 0.223(6) 0.0500 Uiso
O6 O 0.253(14) 0.242(4) 0.262(7) 0.0500 Uiso
O7 O 0.554(4) -0.054(4) 0.554(4) 0.0500 Uiso
O8 O 0.317(6) 0.188(6) 0.494(10) 0.0500 Uiso
C1 C 0.238(10) 0.013(7) 0.055(6) 0.0500 Uiso
H1 H 0.2946 -0.0297 0.0873 0.0600 Uiso
C2 C 0.0000 0.107(4) 0.2500 0.0500 Uiso
H2 H -0.0000 0.1784 0.2500 0.0600 Uiso
C3 C 0.240(19) 0.317(4) 0.203(6) 0.0500 Uiso
H3 H 0.2369 0.3022 0.1315 0.0600 Uiso
C4 C 0.5000 0.045(4) 0.2500 0.0500 Uiso
H4 H 0.5000 -0.0268 0.2500 0.0600 Uiso
C5 C 0.2500 0.2500 0.5000 0.0500 Uiso
C6 C 0.517(13) 0.030(3) 0.525(11) 0.0500 Uiso
O3A O -0.0851(14) 0.068(4) 0.208(5) 0.0500 Uiso
O4A O 0.582(2) 0.084(4) 0.243(6) 0.0500 Uiso
O7D O 0.446(4) 0.054(4) 0.446(4) 0.0500 Uiso
C6D C 0.483(13) -0.030(3) 0.475(11) 0.0500 Uiso
O8F O 0.183(6) 0.312(6) 0.506(10) 0.0500 Uiso
Er1A Er -0.2662(12) 0.0672(4) 0.1768(6) 0.0500 Uiso
O1A O -0.218(12) 0.019(5) 0.543(6) 0.0500 Uiso
O2A O -0.195(7) 0.053(5) 0.383(5) 0.0500 Uiso
O5A O -0.231(12) 0.407(4) 0.277(6) 0.0500 Uiso
O6A O -0.253(14) 0.242(4) 0.238(7) 0.0500 Uiso
C1A C -0.238(10) 0.013(7) 0.445(6) 0.0500 Uiso
H1A H -0.2946 -0.0297 0.4127 0.0600 Uiso
C3A C -0.240(19) 0.317(4) 0.297(6) 0.0500 Uiso
H3A H -0.2369 0.3022 0.3685 0.0600 Uiso
Er1A_2 Er 0.7338(12) 0.0672(4) 0.1768(6) 0.0500 Uiso
Er1B Er -0.2338(12) 0.5672(4) 0.3232(6) 0.0500 Uiso
Er1C Er 0.2338(12) 0.5672(4) 0.1768(6) 0.0500 Uiso
Er1D Er -0.2662(12) -0.0672(4) 0.6768(6) 0.0500 Uiso
Er1D_2 Er 0.7338(12) -0.0672(4) 0.6768(6) 0.0500 Uiso
Er1E Er 0.2662(12) -0.0672(4) -0.1768(6) 0.0500 Uiso
Er1F Er 0.2338(12) 0.4328(4) 0.6768(6) 0.0500 Uiso
O1D O -0.218(12) -0.019(5) 0.043(6) 0.0500 Uiso
O1E O 0.218(12) -0.019(5) 0.457(6) 0.0500 Uiso
O4A_2 O -0.418(2) 0.084(4) 0.243(6) 0.0500 Uiso
O5B O -0.269(12) -0.093(4) 0.223(6) 0.0500 Uiso
O5C O 0.269(12) -0.093(4) 0.277(6) 0.0500 Uiso
O7E O -0.446(4) 0.054(4) 0.054(4) 0.0500 Uiso
O8A O -0.317(6) 0.188(6) 0.006(10) 0.0500 Uiso
loop_
_geom_bond_atom_site_label_1
_geom_bond_atom_site_label_2
_geom_bond_site_symmetry_1
_geom_bond_site_symmetry_2
Er1 O2 1_555 1_555
O1 C1 1_555 1_555
O2 C1 1_555 1_555
O3 Er1 1_555 1_555
O4 Er1 1_555 1_555
O5 C3 1_555 1_555
O6 Er1 1_555 1_555
O7 C6 1_555 1_555
O8 Er1 1_555 1_555
C1 H1 1_555 1_555
C2 O3 1_555 1_555
H2 C2 1_555 1_555
C3 O6 1_555 1_555
H3 C3 1_555 1_555
C4 O4 1_555 1_555
H4 C4 1_555 1_555
C5 O8 1_555 1_555
C6 O7D 1_555 1_555
N1 H5 1_555 1_555
C7 N1 1_555 1_555
H6 C7 1_555 1_555
H7 C7 1_555 1_555
H8 C7 1_555 1_555
C8 N1 1_555 1_555
H9 C8 1_555 1_555
H10 C8 1_555 1_555
C9 N1 1_555 1_555
H11 C9 1_555 1_555
H12 C9 1_555 1_555
H13 C9 1_555 1_555
O3A C2 1_555 1_555
O4A C4 1_555 1_555
O7D Er1 1_555 1_555
C6D O7 1_555 1_555
O8F C5 1_555 1_555
Er1A O3A 1_555 1_555
O1A C1A 1_555 1_555
O2A Er1A 1_555 1_555
O5A C3A 1_555 1_555
O6A Er1A 1_555 1_555
C1A O2A 1_555 1_555
H1A C1A 1_555 1_555
C3A O6A 1_555 1_555
H3A C3A 1_555 1_555
Er1A_2 O4A 1_555 1_555
Er1B O5A 1_555 1_555
Er1C O5 1_555 1_555
Er1D O1A 1_555 1_555
Er1D_2 O7 1_555 1_555
Er1E O1 1_555 1_555
Er1F O8F 1_555 1_555
O1D Er1A 1_555 1_555
O1E Er1 1_555 1_555
O4A_2 Er1A 1_555 1_555
O5B Er1A 1_555 1_555
O5C Er1 1_555 1_555
O7E Er1A 1_555 1_555
O8A Er1A 1_555 1_555
N1A H5A 1_555 1_555
C7A N1A 1_555 1_555
H6A C7A 1_555 1_555
H7A C7A 1_555 1_555
H8A C7A 1_555 1_555
C8A C8 1_555 1_555
H9A C8A 1_555 1_555
H10A C8A 1_555 1_555
C9A N1A 1_555 1_555
H11A C9A 1_555 1_555
H12A C9A 1_555 1_555
H13A C9A 1_555 1_555
C6 C6D 1_555 1_555
O7D C6D 1_555 1_555
N1A C8A 1_555 1_555

#END
