
#######################################################################
#
#                 Cambridge Crystallographic Data Centre
#                                CCDC 
#
#######################################################################
#
# If this CIF has been generated from an entry in the Cambridge 
# Structural Database, then it will include bibliographic, chemical, 
# crystal, experimental, refinement or atomic coordinate data resulting 
# from the CCDC's data processing and validation procedures.
#
#######################################################################

data_ISIYUF02
_chemical_formula_moiety         '(C14 H26 Er2 N2 O16)n'
_symmetry_cell_setting           monoclinic
_symmetry_space_group_name_H-M   'C 2/c'
_symmetry_Int_Tables_number      15
_space_group_name_Hall           '-C 2yc'
loop_
_symmetry_equiv_pos_site_id
_symmetry_equiv_pos_as_xyz
1 x,y,z
2 -x,y,1/2-z
3 1/2+x,1/2+y,z
4 1/2-x,1/2+y,1/2-z
5 -x,-y,-z
6 x,-y,1/2+z
7 1/2-x,1/2-y,-z
8 1/2+x,1/2-y,1/2+z
_cell_length_a                   14.7243(9)
_cell_length_b                   12.9861(6)
_cell_length_c                   12.7671(7)
_cell_angle_alpha                90
_cell_angle_beta                 105.008(6)
_cell_angle_gamma                90
_cell_volume                     2357.94
loop_
_atom_site_label
_atom_site_type_symbol
_atom_site_fract_x
_atom_site_fract_y
_atom_site_fract_z
Er1 Er 0.235136(19) 0.06821(2) 0.31083(2)
O1 O 0.1878(3) 0.0191(4) -0.0481(4)
O2 O 0.1873(3) 0.0581(4) 0.1201(3)
O3 O 0.0772(4) 0.0875(5) 0.2674(4)
O4 O 0.3834(4) 0.0473(5) 0.2675(4)
O5 O 0.2266(4) -0.1056(4) 0.2744(4)
O6 O 0.2436(4) -0.2713(4) 0.2545(4)
O7 O 0.3829(4) 0.0238(8) 0.4314(5)
O8 O 0.2772(10) 0.1806(9) 0.4519(10)
C1 C 0.2222(5) 0.0179(5) 0.0523(5)
H1 H 0.2790 -0.0164 0.0780
C2 C 0.0000 0.1270(10) 0.2500
H2 H -0.0000 0.1986 0.2500
C3 C 0.2706(6) -0.1810(5) 0.2586(6)
H3 H 0.3302 -0.1693 0.2488
C4 C 0.4243(6) 0.0242(7) 0.3596(7)
H4 H 0.4876 0.0066 0.3760
C5 C 0.2500 0.2500 0.5000
O3A O -0.0772(4) 0.0875(5) 0.2326(4)
O8F O 0.2228(10) 0.3194(9) 0.5481(10)
Er1A Er -0.235136(19) 0.06821(2) 0.18917(2)
O1A O -0.1878(3) 0.0191(4) 0.5481(4)
O2A O -0.1873(3) 0.0581(4) 0.3799(3)
O4A O -0.3834(4) 0.0473(5) 0.2325(4)
O5A O -0.2266(4) -0.1056(4) 0.2256(4)
O6A O -0.2436(4) -0.2713(4) 0.2455(4)
O7A O -0.3829(4) 0.0238(8) 0.0686(5)
C1A C -0.2222(5) 0.0179(5) 0.4477(5)
H1A H -0.2790 -0.0164 0.4220
C3A C -0.2706(6) -0.1810(5) 0.2414(6)
H3A H -0.3302 -0.1693 0.2512
C4A C -0.4243(6) 0.0242(7) 0.1404(7)
H4A H -0.4876 0.0066 0.1240
Er1B Er -0.264864(19) -0.43179(2) 0.31083(2)
Er1C Er 0.264864(19) -0.43179(2) 0.18917(2)
Er1D Er -0.235136(19) -0.06821(2) 0.68917(2)
Er1E Er 0.235136(19) -0.06821(2) -0.18917(2)
Er1F Er 0.264864(19) 0.43179(2) 0.68917(2)
O1D O -0.1878(3) -0.0191(4) 0.0481(4)
O1E O 0.1878(3) -0.0191(4) 0.4519(4)
O6B O -0.2564(4) 0.2287(4) 0.2545(4)
O6C O 0.2564(4) 0.2287(4) 0.2455(4)
O8A O -0.2772(10) 0.1806(9) 0.0481(10)
N1 N 0.0523(5) -0.1782(6) 0.4023(6)
H5 H 0.0856 -0.1211 0.3942
C6 C 0.1134(6) -0.2667(7) 0.4408(7)
H6 H 0.0760 -0.3281 0.4334
H7 H 0.1457 -0.2568 0.5157
H8 H 0.1584 -0.2731 0.3986
C7 C -0.0120(7) -0.1583(11) 0.4688(10)
H9 H -0.0536 -0.1031 0.4375
H10 H 0.0230 -0.1394 0.5405
H11 H -0.0481 -0.2192 0.4723
C8 C -0.0145(19) -0.1589(19) 0.2943(19)
N1A N -0.0523(5) -0.1782(6) 0.0977(6)
H5A H -0.0856 -0.1211 0.1058
C6A C -0.1134(6) -0.2667(7) 0.0592(7)
H6A H -0.0760 -0.3281 0.0666
H7A H -0.1457 -0.2568 -0.0157
H8A H -0.1584 -0.2731 0.1014
C7A C 0.0120(7) -0.1583(11) 0.0312(10)
H9A H 0.0536 -0.1031 0.0625
H10A H -0.0230 -0.1394 -0.0405
H11A H 0.0481 -0.2192 0.0277
C8A C 0.0145(19) -0.1589(19) 0.2057(19)
loop_
_geom_bond_atom_site_label_1
_geom_bond_atom_site_label_2
_geom_bond_site_symmetry_1
_geom_bond_site_symmetry_2
Er1 O2 1_555 1_555
O1 C1 1_555 1_555
O2 C1 1_555 1_555
O3 Er1 1_555 1_555
O4 Er1 1_555 1_555
O5 Er1 1_555 1_555
O6 C3 1_555 1_555
O7 Er1 1_555 1_555
O8 Er1 1_555 1_555
C1 H1 1_555 1_555
C2 O3 1_555 1_555
H2 C2 1_555 1_555
C3 O5 1_555 1_555
H3 C3 1_555 1_555
C4 O4 1_555 1_555
H4 C4 1_555 1_555
C5 O8 1_555 1_555
N1 H5 1_555 1_555
C6 N1 1_555 1_555
H6 C6 1_555 1_555
H7 C6 1_555 1_555
H8 C6 1_555 1_555
C7 N1 1_555 1_555
H9 C7 1_555 1_555
H10 C7 1_555 1_555
H11 C7 1_555 1_555
C8 N1 1_555 1_555
O3A C2 1_555 1_555
O8F C5 1_555 1_555
Er1A O3A 1_555 1_555
O1A C1A 1_555 1_555
O2A Er1A 1_555 1_555
O4A Er1A 1_555 1_555
O5A Er1A 1_555 1_555
O6A C3A 1_555 1_555
O7A Er1A 1_555 1_555
C1A O2A 1_555 1_555
H1A C1A 1_555 1_555
C3A O5A 1_555 1_555
H3A C3A 1_555 1_555
C4A O4A 1_555 1_555
H4A C4A 1_555 1_555
Er1B O6A 1_555 1_555
Er1C O6 1_555 1_555
Er1D O1A 1_555 1_555
Er1E O1 1_555 1_555
Er1F O8F 1_555 1_555
O1D Er1A 1_555 1_555
O1E Er1 1_555 1_555
O6B Er1A 1_555 1_555
O6C Er1 1_555 1_555
O8A Er1A 1_555 1_555
N1A H5A 1_555 1_555
C6A N1A 1_555 1_555
H6A C6A 1_555 1_555
H7A C6A 1_555 1_555
H8A C6A 1_555 1_555
C7A N1A 1_555 1_555
H9A C7A 1_555 1_555
H10A C7A 1_555 1_555
H11A C7A 1_555 1_555
C8A C8 1_555 1_555
O7 C4 1_555 1_555
O7A C4A 1_555 1_555
N1A C8A 1_555 1_555

#END
