
#######################################################################
#
#                 Cambridge Crystallographic Data Centre
#                                CCDC 
#
#######################################################################
#
# If this CIF has been generated from an entry in the Cambridge 
# Structural Database, then it will include bibliographic, chemical, 
# crystal, experimental, refinement or atomic coordinate data resulting 
# from the CCDC's data processing and validation procedures.
#
#######################################################################

data_ISIYUF05
_chemical_formula_moiety         'C14 H25 Er7 N2 O21 2+'
_symmetry_cell_setting           monoclinic
_symmetry_space_group_name_H-M   'C 2/c'
_symmetry_Int_Tables_number      15
_space_group_name_Hall           '-C 2yc'
loop_
_symmetry_equiv_pos_site_id
_symmetry_equiv_pos_as_xyz
1 x,y,z
2 -x,y,1/2-z
3 1/2+x,1/2+y,z
4 1/2-x,1/2+y,1/2-z
5 -x,-y,-z
6 x,-y,1/2+z
7 1/2-x,1/2-y,-z
8 1/2+x,1/2-y,1/2+z
_cell_length_a                   14.6390(17)
_cell_length_b                   12.8520(9)
_cell_length_c                   12.8392(12)
_cell_angle_alpha                90
_cell_angle_beta                 104.290(10)
_cell_angle_gamma                90
_cell_volume                     2340.83
loop_
_atom_site_label
_atom_site_type_symbol
_atom_site_fract_x
_atom_site_fract_y
_atom_site_fract_z
_atom_site_U_iso_or_equiv
_atom_site_thermal_displace_type
N1 N 0.0541(11) -0.1798(13) 0.3985(12) 0.0860 Uiso
H5 H 0.0889 -0.1259 0.3830 0.1030 Uiso
C6 C 0.1141(16) -0.2684(14) 0.4428(16) 0.0998 Uani
H6 H 0.1504 -0.2889 0.3933 0.1500 Uiso
H7 H 0.0754 -0.3255 0.4540 0.1500 Uiso
H8 H 0.1558 -0.2489 0.5100 0.1500 Uiso
C7 C -0.0027(17) -0.147(2) 0.477(2) 0.1531 Uani
H9 H -0.0404 -0.0874 0.4485 0.2310 Uiso
H10 H 0.0392 -0.1296 0.5444 0.2310 Uiso
H11 H -0.0431 -0.2032 0.4862 0.2310 Uiso
C8 C -0.018(2) -0.178(3) 0.300(3) 0.0590 Uiso
H12 H -0.0344 -0.1059 0.2815 0.0710 Uiso
H13 H -0.0741 -0.2112 0.3129 0.0710 Uiso
N1A N -0.0541(11) -0.1798(13) 0.1015(12) 0.0860 Uiso
H5A H -0.0889 -0.1259 0.1170 0.1030 Uiso
C6A C -0.1141(16) -0.2684(14) 0.0572(16) 0.0998 Uani
H6A H -0.1504 -0.2889 0.1067 0.1500 Uiso
H7A H -0.0754 -0.3255 0.0460 0.1500 Uiso
H8A H -0.1558 -0.2489 -0.0100 0.1500 Uiso
C7A C 0.0027(17) -0.147(2) 0.023(2) 0.1531 Uani
H9A H 0.0404 -0.0874 0.0515 0.2310 Uiso
H10A H -0.0392 -0.1296 -0.0444 0.2310 Uiso
H11A H 0.0431 -0.2032 0.0138 0.2310 Uiso
C8A C 0.018(2) -0.178(3) 0.200(3) 0.0590 Uiso
H12A H 0.0344 -0.1059 0.2185 0.0710 Uiso
H13A H 0.0741 -0.2112 0.1871 0.0710 Uiso
Er1 Er 0.23611(4) 0.06735(4) 0.32048(4) 0.0335 Uani
O1 O 0.1959(7) 0.0147(8) -0.0329(7) 0.0591 Uani
O2 O 0.1924(8) 0.0511(8) 0.1335(7) 0.0596 Uani
O3 O 0.0771(8) 0.0703(11) 0.2729(10) 0.0836 Uani
O4 O 0.390(2) 0.062(3) 0.432(2) 0.1400 Uiso
O5 O 0.2258(7) -0.1123(7) 0.2953(8) 0.0622 Uani
O6 O 0.2413(10) -0.2741(7) 0.2511(9) 0.0809 Uani
O7 O 0.3839(11) 0.0407(13) 0.2742(14) 0.1161 Uani
O8 O 0.2884(15) 0.1850(14) 0.4568(18) 0.0860 Uiso
C1 C 0.2305(10) 0.0128(10) 0.0637(11) 0.0499 Uani
H1 H 0.2890 -0.0189 0.0878 0.0600 Uiso
C2 C -0.0000 0.108(2) 0.2500 0.0707 Uani
H2 H -0.0000 0.1799 0.2500 0.0840 Uiso
C3 C 0.2667(12) -0.1842(10) 0.2651(11) 0.0583 Uani
H3 H 0.3245 -0.1684 0.2510 0.0700 Uiso
C4 C 0.4251(14) 0.0201(19) 0.3660(15) 0.1040 Uiso
H4 H 0.4776 -0.0232 0.3840 0.1250 Uiso
C5 C 0.2500 0.2500 0.5000 0.1130 Uiso
O3A O -0.0771(8) 0.0703(11) 0.2271(10) 0.0836 Uani
O8F O 0.2116(15) 0.3150(14) 0.5432(18) 0.0860 Uiso
Er1A Er -0.23611(4) 0.06735(4) 0.17952(4) 0.0335 Uani
O1A O -0.1959(7) 0.0147(8) 0.5329(7) 0.0591 Uani
O2A O -0.1924(8) 0.0511(8) 0.3665(7) 0.0596 Uani
O4A O -0.390(2) 0.062(3) 0.068(2) 0.1400 Uiso
O5A O -0.2258(7) -0.1123(7) 0.2047(8) 0.0622 Uani
O6A O -0.2413(10) -0.2741(7) 0.2489(9) 0.0809 Uani
O7A O -0.3839(11) 0.0407(13) 0.2258(14) 0.1161 Uani
C1A C -0.2305(10) 0.0128(10) 0.4363(11) 0.0499 Uani
H1A H -0.2890 -0.0189 0.4122 0.0600 Uiso
C3A C -0.2667(12) -0.1842(10) 0.2349(11) 0.0583 Uani
H3A H -0.3245 -0.1684 0.2490 0.0700 Uiso
C4A C -0.4251(14) 0.0201(19) 0.1340(15) 0.1040 Uiso
H4A H -0.4776 -0.0232 0.1160 0.1250 Uiso
Er1B Er -0.26389(4) -0.43265(4) 0.32048(4) 0.0335 Uani
Er1C Er 0.26389(4) -0.43265(4) 0.17952(4) 0.0335 Uani
Er1D Er -0.23611(4) -0.06735(4) 0.67952(4) 0.0335 Uani
Er1E Er 0.23611(4) -0.06735(4) -0.17952(4) 0.0335 Uani
Er1F Er 0.26389(4) 0.43265(4) 0.67952(4) 0.0335 Uani
O1D O -0.1959(7) -0.0147(8) 0.0329(7) 0.0591 Uani
O1E O 0.1959(7) -0.0147(8) 0.4671(7) 0.0591 Uani
O6B O -0.2587(10) 0.2259(7) 0.2511(9) 0.0809 Uani
O6C O 0.2587(10) 0.2259(7) 0.2489(9) 0.0809 Uani
O8A O -0.2884(15) 0.1850(14) 0.0432(18) 0.0860 Uiso
loop_
_atom_site_aniso_label
_atom_site_aniso_U_11
_atom_site_aniso_U_22
_atom_site_aniso_U_33
_atom_site_aniso_U_23
_atom_site_aniso_U_13
_atom_site_aniso_U_12
C6 0.120(17) 0.067(13) 0.106(16) 0.022(11) 0.016(13) 0.027(12)
C7 0.098(18) 0.22(3) 0.15(2) -0.09(2) 0.047(17) 0.01(2)
C6A 0.12 0.067 0.106 -0.022 0.016 -0.027
C7A 0.098 0.22 0.15 0.09 0.047 -0.01
Er1 0.0453(4) 0.0262(3) 0.0303(3) 0.0009(2) 0.0120(2) -0.0031(3)
O1 0.089 0.066 0.026 -0.01 0.021 0.011
O2 0.083(8) 0.070(7) 0.032(5) -0.013(5) 0.026(5) 0.004(6)
O3 0.050(7) 0.140(13) 0.059(7) 0.007(7) 0.010(6) 0.018(7)
O5 0.085(8) 0.023(5) 0.072(7) -0.009(5) 0.007(6) 0.004(5)
O6 0.142 0.03 0.086 -0.008 0.057 -0.002
O7 0.083(10) 0.125(12) 0.133(14) -0.019(10) 0.013(9) 0.013(9)
C1 0.069(10) 0.035(7) 0.049(9) -0.009(6) 0.021(7) -0.007(7)
C2 0.09(2) 0.079(17) 0.038(12) 0.000 0.006(13) 0.000
C3 0.094(12) 0.028(7) 0.046(8) 0.005(6) 0.004(8) 0.000(8)
O3A 0.05 0.14 0.059 -0.007 0.01 -0.018
Er1A 0.0453 0.0262 0.0303 -0.0009 0.012 0.0031
O1A 0.089 0.066 0.026 0.01 0.021 -0.011
O2A 0.083 0.07 0.032 0.013 0.026 -0.004
O5A 0.085 0.023 0.072 0.009 0.007 -0.004
O6A 0.142 0.03 0.086 0.008 0.057 0.002
O7A 0.083 0.125 0.133 0.019 0.013 -0.013
C1A 0.069 0.035 0.049 0.009 0.021 0.007
C3A 0.094 0.028 0.046 -0.005 0.004 0
Er1B 0.0453 0.0262 0.0303 0.0009 0.012 -0.0031
Er1C 0.0453 0.0262 0.0303 -0.0009 0.012 0.0031
Er1D 0.0453 0.0262 0.0303 0.0009 0.012 -0.0031
Er1E 0.0453 0.0262 0.0303 -0.0009 0.012 0.0031
Er1F 0.0453 0.0262 0.0303 0.0009 0.012 -0.0031
O1D 0.089 0.066 0.026 -0.01 0.021 0.011
O1E 0.089 0.066 0.026 0.01 0.021 -0.011
O6B 0.142 0.03 0.086 -0.008 0.057 -0.002
O6C 0.142 0.03 0.086 0.008 0.057 0.002
loop_
_geom_bond_atom_site_label_1
_geom_bond_atom_site_label_2
_geom_bond_site_symmetry_1
_geom_bond_site_symmetry_2
Er1 O2 1_555 1_555
O1 C1 1_555 1_555
O2 C1 1_555 1_555
O3 Er1 1_555 1_555
O4 Er1 1_555 1_555
O5 Er1 1_555 1_555
O6 C3 1_555 1_555
O7 Er1 1_555 1_555
O8 Er1 1_555 1_555
C1 H1 1_555 1_555
C2 O3 1_555 1_555
H2 C2 1_555 1_555
C3 O5 1_555 1_555
H3 C3 1_555 1_555
C4 O4 1_555 1_555
H4 C4 1_555 1_555
C5 O8 1_555 1_555
N1 H5 1_555 1_555
C6 N1 1_555 1_555
H6 C6 1_555 1_555
H7 C6 1_555 1_555
H8 C6 1_555 1_555
C7 N1 1_555 1_555
H9 C7 1_555 1_555
H10 C7 1_555 1_555
H11 C7 1_555 1_555
C8 N1 1_555 1_555
H12 C8 1_555 1_555
H13 C8 1_555 1_555
O3A C2 1_555 1_555
O8F C5 1_555 1_555
Er1A O3A 1_555 1_555
O1A C1A 1_555 1_555
O2A Er1A 1_555 1_555
O4A Er1A 1_555 1_555
O5A Er1A 1_555 1_555
O6A C3A 1_555 1_555
O7A Er1A 1_555 1_555
C1A O2A 1_555 1_555
H1A C1A 1_555 1_555
C3A O5A 1_555 1_555
H3A C3A 1_555 1_555
C4A O4A 1_555 1_555
H4A C4A 1_555 1_555
Er1B O6A 1_555 1_555
Er1C O6 1_555 1_555
Er1D O1A 1_555 1_555
Er1E O1 1_555 1_555
Er1F O8F 1_555 1_555
O1D Er1A 1_555 1_555
O1E Er1 1_555 1_555
O6B Er1A 1_555 1_555
O6C Er1 1_555 1_555
O8A Er1A 1_555 1_555
N1A H5A 1_555 1_555
C6A N1A 1_555 1_555
H6A C6A 1_555 1_555
H7A C6A 1_555 1_555
H8A C6A 1_555 1_555
C7A N1A 1_555 1_555
H9A C7A 1_555 1_555
H10A C7A 1_555 1_555
H11A C7A 1_555 1_555
C8A C8 1_555 1_555
H12A C8A 1_555 1_555
H13A C8A 1_555 1_555
O7 C4 1_555 1_555
O7A C4A 1_555 1_555
N1A C8A 1_555 1_555

#END
