
#######################################################################
#
#                 Cambridge Crystallographic Data Centre
#                                CCDC 
#
#######################################################################
#
# If this CIF has been generated from an entry in the Cambridge 
# Structural Database, then it will include bibliographic, chemical, 
# crystal, experimental, refinement or atomic coordinate data resulting 
# from the CCDC's data processing and validation procedures.
#
#######################################################################

data_FEVDIV
_chemical_formula_moiety         '(C34 H30 N4 Ni1 O8)n'
_symmetry_cell_setting           monoclinic
_symmetry_space_group_name_H-M   'P 21/c'
_symmetry_Int_Tables_number      14
_space_group_name_Hall           '-P 2ybc'
loop_
_symmetry_equiv_pos_site_id
_symmetry_equiv_pos_as_xyz
1 x,y,z
2 -x,1/2+y,1/2-z
3 -x,-y,-z
4 x,1/2-y,1/2+z
_cell_length_a                   8.3722(8)
_cell_length_b                   34.923(3)
_cell_length_c                   11.4888(11)
_cell_angle_alpha                90
_cell_angle_beta                 105.590(2)
_cell_angle_gamma                90
_cell_volume                     3235.54
loop_
_atom_site_label
_atom_site_type_symbol
_atom_site_fract_x
_atom_site_fract_y
_atom_site_fract_z
Ni1 Ni 0.52306(5) 0.148604(11) 0.49090(4)
C1 C 0.3920(4) 0.17393(9) 0.2887(3)
C2 C 0.3122(4) 0.19015(9) 0.1666(3)
C3 C 0.1739(4) 0.21335(9) 0.1503(3)
H1 H 0.1324 0.2191 0.2156
C4 C 0.0961(5) 0.22826(10) 0.0361(3)
C5 C -0.0461(4) 0.25449(10) 0.0216(3)
C6 C -0.1711(5) 0.24838(10) 0.0778(3)
H2 H -0.1709 0.2264 0.1234
C7 C -0.2958(5) 0.27512(10) 0.0657(3)
H3 H -0.3791 0.2703 0.1035
C8 C -0.1844(5) 0.31306(10) -0.0533(3)
H4 H -0.1881 0.3353 -0.0986
C9 C -0.0567(5) 0.28761(10) -0.0475(3)
H5 H 0.0218 0.2925 -0.0895
C10 C 0.1581(5) 0.21865(10) -0.0598(3)
H6 H 0.1067 0.2284 -0.1360
C11 C 0.2952(5) 0.19492(10) -0.0459(3)
C12 C 0.3737(5) 0.18103(10) 0.0697(3)
H7 H 0.4674 0.1657 0.0813
C13 C 0.3555(4) 0.18380(9) -0.1511(3)
C14 C 0.2451(5) 0.17838(10) -0.2645(3)
H8 H 0.1322 0.1823 -0.2753
C15 C 0.3030(5) 0.16729(10) -0.3603(3)
H9 H 0.2265 0.1635 -0.4347
C16 C 0.5704(5) 0.16684(10) -0.2427(3)
H10 H 0.6828 0.1630 -0.2345
C17 C 0.5223(5) 0.17758(10) -0.1421(3)
H11 H 0.6011 0.1807 -0.0683
C18 C 0.8365(4) 0.10895(10) 0.6332(3)
C19 C 0.9275(4) 0.07132(9) 0.6574(3)
C20 C 1.0926(4) 0.07048(10) 0.7247(3)
H12 H 1.1473 0.0934 0.7509
C21 C 1.1776(5) 0.03597(10) 0.7537(3)
C22 C 1.0932(5) 0.00220(10) 0.7159(3)
H13 H 1.1479 -0.0210 0.7367
C23 C 0.9277(5) 0.00208(9) 0.6475(3)
C24 C 0.8473(5) 0.03717(9) 0.6166(3)
H14 H 0.7386 0.0376 0.5682
C25 C 0.8356(5) -0.03408(9) 0.6100(3)
C26 C 0.7039(5) -0.03653(10) 0.5073(3)
H15 H 0.6742 -0.0153 0.4572
C27 C 0.6167(5) -0.07011(10) 0.4790(3)
H16 H 0.5287 -0.0706 0.4095
C28 C 0.7798(5) -0.09993(11) 0.6414(4)
H17 H 0.8087 -0.1218 0.6884
C29 C 0.8739(5) -0.06758(10) 0.6764(4)
H18 H 0.9635 -0.0682 0.7448
C30 C 1.3564(5) 0.03610(11) 0.8208(4)
C31 C 1.4274(6) 0.06628(14) 0.8938(5)
H19 H 1.3622 0.0867 0.9058
C32 C 1.5975(8) 0.06612(19) 0.9497(6)
H20 H 1.6427 0.0870 0.9975
C33 C 1.6279(7) 0.00905(19) 0.8726(5)
H21 H 1.6954 -0.0115 0.8652
C34 C 1.4600(6) 0.00662(14) 0.8127(4)
H22 H 1.4185 -0.0150 0.7673
N1 N -0.3036(4) 0.30750(7) 0.0030(2)
N2 N 0.4643(4) 0.16160(7) -0.3523(2)
N3 N 0.6496(4) -0.10201(8) 0.5443(3)
N4 N 1.6975(6) 0.03813(19) 0.9386(5)
O1 O 0.3428(3) 0.18486(6) 0.37845(19)
O2 O 0.5055(3) 0.14936(6) 0.3009(2)
O3 O 0.8925(3) 0.13636(7) 0.7005(2)
O4 O 0.7048(3) 0.10887(6) 0.5459(2)
Ni1_2 Ni 0.52306(5) 0.148604(11) -0.50910(4)
Ni1B Ni 0.47694(5) -0.148604(11) 0.50910(4)
Ni1C Ni -0.47694(5) 0.351396(11) -0.00910(4)
N1C N 0.6964(4) 0.19250(7) 0.5030(2)
N2_2 N 0.4643(4) 0.16160(7) 0.6477(2)
N3B N 0.3504(4) 0.10201(8) 0.4557(3)
O5 O 0.7049(5) 0.08551(10) 0.2982(3)
O6 O 0.8468(6) 0.14908(11) 0.1498(4)
O7 O 0.0327(7) 0.04627(19) 0.0123(5)
O8 O 0.9824(7) 0.11947(17) 0.9675(4)
loop_
_geom_bond_atom_site_label_1
_geom_bond_atom_site_label_2
_geom_bond_site_symmetry_1
_geom_bond_site_symmetry_2
Ni1 O1 1_555 1_555
C1 C2 1_555 1_555
C2 C3 1_555 1_555
C3 H1 1_555 1_555
C4 C3 1_555 1_555
C5 C4 1_555 1_555
C6 C5 1_555 1_555
H2 C6 1_555 1_555
C7 C6 1_555 1_555
H3 C7 1_555 1_555
C8 H4 1_555 1_555
C9 C5 1_555 1_555
H5 C9 1_555 1_555
C10 C4 1_555 1_555
H6 C10 1_555 1_555
C11 C10 1_555 1_555
C12 C2 1_555 1_555
H7 C12 1_555 1_555
C13 C11 1_555 1_555
C14 C13 1_555 1_555
H8 C14 1_555 1_555
C15 C14 1_555 1_555
H9 C15 1_555 1_555
C16 H10 1_555 1_555
C17 C13 1_555 1_555
H11 C17 1_555 1_555
C18 C19 1_555 1_555
C19 C20 1_555 1_555
C20 H12 1_555 1_555
C21 C20 1_555 1_555
C22 C21 1_555 1_555
H13 C22 1_555 1_555
C23 C22 1_555 1_555
C24 C19 1_555 1_555
H14 C24 1_555 1_555
C25 C23 1_555 1_555
C26 C25 1_555 1_555
H15 C26 1_555 1_555
C27 C26 1_555 1_555
H16 C27 1_555 1_555
C28 H17 1_555 1_555
C29 C25 1_555 1_555
H18 C29 1_555 1_555
C30 C21 1_555 1_555
C31 C30 1_555 1_555
H19 C31 1_555 1_555
C32 C31 1_555 1_555
H20 C32 1_555 1_555
C33 H21 1_555 1_555
C34 C30 1_555 1_555
H22 C34 1_555 1_555
N1 C7 1_555 1_555
N2 C15 1_555 1_555
N3 C27 1_555 1_555
N4 C32 1_555 1_555
O1 C1 1_555 1_555
O2 Ni1 1_555 1_555
O3 C18 1_555 1_555
O4 Ni1 1_555 1_555
Ni1_2 N2 1_555 1_555
Ni1B N3 1_555 1_555
Ni1C N1 1_555 1_555
N1C Ni1 1_555 1_555
N2_2 Ni1 1_555 1_555
N3B Ni1 1_555 1_555
C1 O2 1_555 1_555
C8 C9 1_555 1_555
C8 N1 1_555 1_555
C11 C12 1_555 1_555
C16 C17 1_555 1_555
C16 N2 1_555 1_555
C18 O4 1_555 1_555
C23 C24 1_555 1_555
C28 C29 1_555 1_555
C28 N3 1_555 1_555
C33 C34 1_555 1_555
C33 N4 1_555 1_555

#END
