
#######################################################################
#
#                 Cambridge Crystallographic Data Centre
#                                CCDC 
#
#######################################################################
#
# If this CIF has been generated from an entry in the Cambridge 
# Structural Database, then it will include bibliographic, chemical, 
# crystal, experimental, refinement or atomic coordinate data resulting 
# from the CCDC's data processing and validation procedures.
#
#######################################################################

data_FEVDER
_chemical_formula_moiety         '(C34 H30 Co1 N4 O8)n'
_symmetry_cell_setting           monoclinic
_symmetry_space_group_name_H-M   'P 21/c'
_symmetry_Int_Tables_number      14
_space_group_name_Hall           '-P 2ybc'
loop_
_symmetry_equiv_pos_site_id
_symmetry_equiv_pos_as_xyz
1 x,y,z
2 -x,1/2+y,1/2-z
3 -x,-y,-z
4 x,1/2-y,1/2+z
_cell_length_a                   8.4073(14)
_cell_length_b                   35.108(6)
_cell_length_c                   11.491(2)
_cell_angle_alpha                90
_cell_angle_beta                 105.842(3)
_cell_angle_gamma                90
_cell_volume                     3262.9
loop_
_atom_site_label
_atom_site_type_symbol
_atom_site_fract_x
_atom_site_fract_y
_atom_site_fract_z
Co1 Co 0.52575(5) 0.147814(11) 0.49623(3)
C1 C 0.8372(4) 0.10811(9) 0.6380(3)
C2 C 0.9294(4) 0.07115(9) 0.6606(3)
C3 C 0.8502(4) 0.03721(9) 0.6190(3)
H1 H 0.7415 0.0378 0.5709
C4 C 0.9292(4) 0.00253(9) 0.6476(3)
C5 C 0.8377(4) -0.03352(9) 0.6086(3)
C6 C 0.7047(4) -0.03546(10) 0.5069(3)
H2 H 0.6739 -0.0140 0.4583
C7 C 0.6180(4) -0.06863(10) 0.4771(3)
H3 H 0.5290 -0.0687 0.4080
C8 C 0.7837(5) -0.09917(11) 0.6368(4)
H4 H 0.8134 -0.1212 0.6827
C9 C 0.8770(4) -0.06714(10) 0.6724(4)
H5 H 0.9677 -0.0680 0.7401
C10 C 1.0956(4) 0.00246(9) 0.7161(3)
H6 H 1.1506 -0.0206 0.7363
C11 C 1.1784(4) 0.03598(10) 0.7538(3)
C12 C 1.0938(4) 0.07034(9) 0.7272(3)
H7 H 1.1483 0.0930 0.7544
C13 C 1.3574(4) 0.03577(10) 0.8205(3)
C14 C 1.4586(5) 0.00630(13) 0.8124(4)
H8 H 1.4152 -0.0151 0.7669
C15 C 1.6254(6) 0.00788(18) 0.8711(5)
H9 H 1.6907 -0.0128 0.8634
C16 C 1.5984(7) 0.06531(18) 0.9479(6)
H10 H 1.6453 0.0861 0.9951
C17 C 1.4291(5) 0.06596(13) 0.8929(5)
H11 H 1.3651 0.0864 0.9047
C18 C 0.3893(4) 0.17377(9) 0.2915(3)
C19 C 0.3108(4) 0.18987(9) 0.1698(3)
C20 C 0.3719(4) 0.18101(9) 0.0726(3)
H12 H 0.4647 0.1656 0.0838
C21 C 0.2945(4) 0.19519(9) -0.0414(3)
C22 C 0.3539(4) 0.18404(9) -0.1472(3)
C23 C 0.2438(4) 0.17843(10) -0.2597(3)
H13 H 0.1310 0.1819 -0.2707
C24 C 0.3026(4) 0.16771(10) -0.3549(3)
H14 H 0.2265 0.1640 -0.4297
C25 C 0.5677(4) 0.16774(10) -0.2377(3)
H15 H 0.6799 0.1642 -0.2293
C26 C 0.5201(4) 0.17822(10) -0.1375(3)
H16 H 0.5986 0.1814 -0.0635
C27 C 0.1588(4) 0.21872(10) -0.0562(3)
H17 H 0.1080 0.2285 -0.1325
C28 C 0.0970(4) 0.22807(9) 0.0397(3)
C29 C 0.1745(4) 0.21321(9) 0.1528(3)
H18 H 0.1338 0.2191 0.2182
C30 C -0.0434(4) 0.25440(9) 0.0257(3)
C31 C -0.0560(4) 0.28710(10) -0.0444(3)
H19 H 0.0209 0.2918 -0.0875
C32 C -0.1818(4) 0.31246(9) -0.0501(3)
H20 H -0.1858 0.3344 -0.0959
C33 C -0.2907(4) 0.27512(10) 0.0698(3)
H21 H -0.3731 0.2705 0.1080
C34 C -0.1680(4) 0.24826(10) 0.0820(3)
H22 H -0.1684 0.2263 0.1273
N1 N 0.6522(3) -0.10074(7) 0.5399(2)
N2 N 1.6972(5) 0.03672(17) 0.9369(5)
N3 N 0.4625(3) 0.16224(7) -0.3468(2)
N4 N -0.2995(3) 0.30723(7) 0.0072(2)
O1 O 0.7064(2) 0.10829(6) 0.5491(2)
O2 O 0.8906(3) 0.13543(7) 0.7055(2)
O3 O 0.5030(3) 0.14938(6) 0.30379(18)
O4 O 0.3407(3) 0.18425(6) 0.38076(18)
Co1_2 Co 0.52575(5) 0.147814(11) -0.50377(3)
Co1B Co 0.47425(5) -0.147814(11) 0.50377(3)
Co1C Co -0.47425(5) 0.352186(11) -0.00377(3)
N1B N 0.3478(3) 0.10074(7) 0.4601(2)
N3_2 N 0.4625(3) 0.16224(7) 0.6532(2)
N4C N 0.7005(3) 0.19277(7) 0.5072(2)
O5 O 0.8457(6) 0.14963(11) 0.1515(4)
O6 O 0.0313(5) 0.04584(16) 0.0133(4)
O7 O 0.7051(4) 0.08608(11) 0.2976(3)
O8 O -0.0163(6) 0.12109(17) 0.9710(4)
loop_
_geom_bond_atom_site_label_1
_geom_bond_atom_site_label_2
_geom_bond_site_symmetry_1
_geom_bond_site_symmetry_2
Co1 O1 1_555 1_555
C1 C2 1_555 1_555
C2 C3 1_555 1_555
C3 H1 1_555 1_555
C4 C3 1_555 1_555
C5 C4 1_555 1_555
C6 C5 1_555 1_555
H2 C6 1_555 1_555
C7 C6 1_555 1_555
H3 C7 1_555 1_555
C8 H4 1_555 1_555
C9 C5 1_555 1_555
H5 C9 1_555 1_555
C10 C4 1_555 1_555
H6 C10 1_555 1_555
C11 C10 1_555 1_555
C12 C2 1_555 1_555
H7 C12 1_555 1_555
C13 C11 1_555 1_555
C14 C13 1_555 1_555
H8 C14 1_555 1_555
C15 C14 1_555 1_555
H9 C15 1_555 1_555
C16 H10 1_555 1_555
C17 C13 1_555 1_555
H11 C17 1_555 1_555
C18 C19 1_555 1_555
C19 C20 1_555 1_555
C20 H12 1_555 1_555
C21 C20 1_555 1_555
C22 C21 1_555 1_555
C23 C22 1_555 1_555
H13 C23 1_555 1_555
C24 C23 1_555 1_555
H14 C24 1_555 1_555
C25 H15 1_555 1_555
C26 C22 1_555 1_555
H16 C26 1_555 1_555
C27 C21 1_555 1_555
H17 C27 1_555 1_555
C28 C27 1_555 1_555
C29 C19 1_555 1_555
H18 C29 1_555 1_555
C30 C28 1_555 1_555
C31 C30 1_555 1_555
H19 C31 1_555 1_555
C32 C31 1_555 1_555
H20 C32 1_555 1_555
C33 H21 1_555 1_555
C34 C30 1_555 1_555
H22 C34 1_555 1_555
N1 C7 1_555 1_555
N2 C15 1_555 1_555
N3 C24 1_555 1_555
N4 C32 1_555 1_555
O1 C1 1_555 1_555
O2 C1 1_555 1_555
O3 Co1 1_555 1_555
O4 Co1 1_555 1_555
Co1_2 N3 1_555 1_555
Co1B N1 1_555 1_555
Co1C N4 1_555 1_555
N1B Co1 1_555 1_555
N3_2 Co1 1_555 1_555
N4C Co1 1_555 1_555
C8 C9 1_555 1_555
C8 N1 1_555 1_555
C11 C12 1_555 1_555
C16 C17 1_555 1_555
C16 N2 1_555 1_555
C18 O3 1_555 1_555
C18 O4 1_555 1_555
C25 C26 1_555 1_555
C25 N3 1_555 1_555
C28 C29 1_555 1_555
C33 C34 1_555 1_555
C33 N4 1_555 1_555

#END
