
#######################################################################
#
#                 Cambridge Crystallographic Data Centre
#                                CCDC 
#
#######################################################################
#
# If this CIF has been generated from an entry in the Cambridge 
# Structural Database, then it will include bibliographic, chemical, 
# crystal, experimental, refinement or atomic coordinate data resulting 
# from the CCDC's data processing and validation procedures.
#
#######################################################################

data_BUXNOZ
_chemical_formula_moiety         '(C84 H56 Cu10 N16 O50)n'
_symmetry_cell_setting           orthorhombic
_symmetry_space_group_name_H-M   'P b c m'
_symmetry_Int_Tables_number      57
_space_group_name_Hall           '-P 2c 2b'
loop_
_symmetry_equiv_pos_site_id
_symmetry_equiv_pos_as_xyz
1 x,y,z
2 -x,-y,1/2+z
3 x,1/2-y,-z
4 -x,1/2+y,1/2-z
5 -x,-y,-z
6 x,y,1/2-z
7 -x,1/2+y,z
8 x,1/2-y,1/2+z
_cell_length_a                   27.670(6)
_cell_length_b                   29.297(6)
_cell_length_c                   25.912(6)
_cell_angle_alpha                90
_cell_angle_beta                 90
_cell_angle_gamma                90
_cell_volume                     21005.5
loop_
_atom_site_label
_atom_site_type_symbol
_atom_site_fract_x
_atom_site_fract_y
_atom_site_fract_z
C1 C 0.1536(4) 0.4559(3) 0.0741(5)
C2 C 0.1432(7) 0.4088(6) 0.0974(8)
H1 H 0.1220 0.4014 0.1240
C3 C 0.1704(4) 0.3826(3) 0.0721(4)
C4 C 0.1421(5) 0.4991(4) 0.0975(6)
C5 C 0.1388(4) 0.5809(2) 0.0794(5)
C6 C 0.1099(3) 0.5936(2) 0.1237(4)
H2 H 0.0944 0.5713 0.1431
C7 C 0.1056(3) 0.6402(2) 0.1372(4)
C8 C 0.1283(2) 0.67261(18) 0.1121(3)
H3 H 0.1249 0.7029 0.1220
C9 C 0.1577(2) 0.6612(2) 0.0703(3)
C10 C 0.1619(3) 0.6160(2) 0.0541(3)
H4 H 0.1808 0.6094 0.0253
C11 C 0.0713(3) 0.6508(2) 0.1805(3)
C12 C 0.1844(3) 0.6974(2) 0.0393(4)
C13 C 0.1743(4) 0.3323(3) 0.0811(5)
C14 C 0.1324(4) 0.2620(2) 0.1033(5)
C15 C 0.1616(4) 0.2281(2) 0.0801(4)
H5 H 0.1856 0.2366 0.0569
C16 C 0.1549(3) 0.1829(2) 0.0915(4)
C17 C 0.1194(3) 0.1701(2) 0.1255(4)
H6 H 0.1162 0.1396 0.1348
C18 C 0.0880(3) 0.2024(2) 0.1463(4)
C19 C 0.0961(4) 0.2483(2) 0.1349(4)
H7 H 0.0759 0.2703 0.1494
C20 C 0.1859(3) 0.1478(2) 0.0673(4)
C21 C 0.0490(3) 0.1894(2) 0.1844(3)
C22 C 0.3313(3) 0.4754(2) 0.0695(3)
C23 C 0.3612(3) 0.4440(2) 0.0994(3)
H8 H 0.3866 0.4497 0.1221
C24 C 0.3395(4) 0.4014(3) 0.0833(5)
C25 C 0.3580(6) 0.3570(5) 0.1055(7)
C26 C 0.3644(4) 0.2751(2) 0.0955(4)
C27 C 0.3390(3) 0.2403(2) 0.0683(4)
H9 H 0.3169 0.2467 0.0422
C28 C 0.3498(4) 0.1955(2) 0.0839(5)
C29 C 0.3831(3) 0.1859(2) 0.1184(4)
H10 H 0.3907 0.1554 0.1244
C30 C 0.4076(3) 0.2192(2) 0.1460(4)
C31 C 0.3976(4) 0.2653(2) 0.1319(4)
H11 H 0.4142 0.2889 0.1480
C32 C 0.4437(3) 0.2075(2) 0.1828(3)
C33 C 0.3226(3) 0.1573(2) 0.0535(4)
C34 C 0.3280(4) 0.5215(3) 0.0679(4)
C35 C 0.3646(3) 0.5945(2) 0.0923(4)
C36 C 0.3934(3) 0.6111(3) 0.1333(4)
H12 H 0.4102 0.5907 0.1541
C37 C 0.3968(3) 0.6574(2) 0.1426(3)
C38 C 0.3680(3) 0.6878(2) 0.1157(3)
H13 H 0.3686 0.7187 0.1236
C39 C 0.3387(3) 0.6718(2) 0.0772(3)
C40 C 0.3362(3) 0.6262(2) 0.0648(4)
H14 H 0.3160 0.6164 0.0384
C41 C 0.3084(2) 0.7047(2) 0.0467(3)
C42 C 0.4332(3) 0.6715(2) 0.1814(3)
Cu1 Cu 0.25445(3) 0.36895(2) 0.01568(3)
Cu2 Cu 0.24831(3) 0.48489(2) 0.01022(4)
Cu3 Cu -0.00430(4) 0.62728(3) 0.2500
Cu4 Cu 0.02738(4) 0.71256(3) 0.2500
Cu5 Cu 0.24508(3) 0.72189(2) -0.04068(3)
Cu6 Cu 0.47753(4) 0.73281(3) 0.2500
Cu7 Cu 0.50889(4) 0.64767(3) 0.2500
N1 N 0.2027(2) 0.40444(16) 0.0458(3)
N2 N 0.1927(2) 0.44856(16) 0.0456(3)
N3 N 0.3025(3) 0.40559(18) 0.0544(3)
N4 N 0.2964(3) 0.45027(17) 0.0466(3)
N5 N 0.1356(3) 0.3093(2) 0.0937(4)
H15 H 0.1092 0.3246 0.0965
N6 N 0.3495(3) 0.31932(19) 0.0833(3)
H16 H 0.3316 0.3213 0.0562
N7 N 0.1484(3) 0.53719(18) 0.0680(3)
H17 H 0.1603 0.5325 0.0378
N8 N 0.3641(4) 0.5474(2) 0.0852(4)
H18 H 0.3904 0.5333 0.0929
O1 O 0.2179(3) 0.31475(16) 0.0724(3)
O2 O 0.2927(2) 0.53725(16) 0.0404(3)
O3 O 0.1140(4) 0.4977(3) 0.1350(5)
O4 O 0.3819(6) 0.3612(4) 0.1438(6)
O5 O 0.02205(18) 0.22171(14) 0.1994(2)
O6 O 0.04905(17) 0.14893(15) 0.1978(2)
O7 O 0.2464(2) 0.67209(16) -0.1016(2)
O8 O 0.1841(2) 0.10718(16) 0.0820(3)
O9 O 0.21271(18) 0.16160(13) 0.0315(2)
O10 O 0.30317(17) 0.16993(14) 0.0116(2)
O11 O 0.3221(2) 0.11947(16) 0.0720(3)
O12 O 0.4473(2) 0.16725(16) 0.1964(3)
O13 O 0.47165(18) 0.24034(15) 0.1972(2)
O14 O 0.4611(2) 0.64107(16) 0.1976(2)
O15 O 0.43276(17) 0.71227(14) 0.1958(2)
O16 O 0.29691(17) 0.74156(12) 0.0698(2)
O17 O 0.29130(17) 0.69050(13) 0.0056(2)
O18 O 0.19520(18) 0.68909(14) -0.0039(2)
O19 O 0.19795(19) 0.73265(13) 0.0674(2)
O20 O 0.07188(16) 0.69114(13) 0.1959(2)
O21 O 0.04411(18) 0.61864(15) 0.1973(2)
O22 O 0.20573(18) 0.52861(14) -0.0215(2)
O23 O 0.2564(2) 0.44644(17) -0.0554(2)
O24 O 0.5310(3) 0.5787(2) 0.2500
O25 O 0.4559(3) 0.8033(2) 0.2500
O26 O 0.0531(3) 0.7802(2) 0.2500
O27 O -0.0275(3) 0.5577(2) 0.2500
C1B C 0.1536(4) 0.0441(3) -0.0741(5)
C2B C 0.1432(7) 0.0912(6) -0.0974(8)
H1B H 0.1220 0.0986 -0.1240
C3B C 0.1704(4) 0.1174(3) -0.0721(4)
C4B C 0.1421(5) 0.0009(4) -0.0975(6)
C5B C 0.1388(4) -0.0809(2) -0.0794(5)
C6B C 0.1099(3) -0.0936(2) -0.1237(4)
H2B H 0.0944 -0.0713 -0.1431
C7B C 0.1056(3) -0.1402(2) -0.1372(4)
C8B C 0.1283(2) -0.17261(18) -0.1121(3)
H3B H 0.1249 -0.2029 -0.1220
C9B C 0.1577(2) -0.1612(2) -0.0703(3)
C10B C 0.1619(3) -0.1160(2) -0.0541(3)
H4B H 0.1808 -0.1094 -0.0253
C11B C 0.0713(3) -0.1508(2) -0.1805(3)
C12B C 0.1844(3) -0.1974(2) -0.0393(4)
C13B C 0.1743(4) 0.1677(3) -0.0811(5)
C14B C 0.1324(4) 0.2380(2) -0.1033(5)
C15B C 0.1616(4) 0.2719(2) -0.0801(4)
H5B H 0.1856 0.2634 -0.0569
C16B C 0.1549(3) 0.3171(2) -0.0915(4)
C17B C 0.1194(3) 0.3299(2) -0.1255(4)
H6B H 0.1162 0.3604 -0.1348
C18B C 0.0880(3) 0.2976(2) -0.1463(4)
C19B C 0.0961(4) 0.2517(2) -0.1349(4)
H7B H 0.0759 0.2297 -0.1494
C20B C 0.1859(3) 0.3522(2) -0.0673(4)
C21B C 0.0490(3) 0.3106(2) -0.1844(3)
C22B C 0.3313(3) 0.0246(2) -0.0695(3)
C23B C 0.3612(3) 0.0560(2) -0.0994(3)
H8B H 0.3866 0.0503 -0.1221
C24B C 0.3395(4) 0.0986(3) -0.0833(5)
C25B C 0.3580(6) 0.1430(5) -0.1055(7)
C26B C 0.3644(4) 0.2249(2) -0.0955(4)
C27B C 0.3390(3) 0.2597(2) -0.0683(4)
H9B H 0.3169 0.2533 -0.0422
C28B C 0.3498(4) 0.3045(2) -0.0839(5)
C29B C 0.3831(3) 0.3141(2) -0.1184(4)
H10B H 0.3907 0.3446 -0.1244
C30B C 0.4076(3) 0.2808(2) -0.1460(4)
C31B C 0.3976(4) 0.2347(2) -0.1319(4)
H11B H 0.4142 0.2111 -0.1480
C32B C 0.4437(3) 0.2925(2) -0.1828(3)
C33B C 0.3226(3) 0.3427(2) -0.0535(4)
C34B C 0.3280(4) -0.0215(3) -0.0679(4)
C35B C 0.3646(3) -0.0945(2) -0.0923(4)
C36B C 0.3934(3) -0.1111(3) -0.1333(4)
H12B H 0.4102 -0.0907 -0.1541
C37B C 0.3968(3) -0.1574(2) -0.1426(3)
C38B C 0.3680(3) -0.1878(2) -0.1157(3)
H13B H 0.3686 -0.2187 -0.1236
C39B C 0.3387(3) -0.1718(2) -0.0772(3)
C40B C 0.3362(3) -0.1262(2) -0.0648(4)
H14B H 0.3160 -0.1164 -0.0384
C41B C 0.3084(2) -0.2047(2) -0.0467(3)
C42B C 0.4332(3) -0.1715(2) -0.1814(3)
Cu1B Cu 0.25445(3) 0.13105(2) -0.01568(3)
Cu2B Cu 0.24831(3) 0.01511(2) -0.01022(4)
Cu5B Cu 0.24508(3) -0.22189(2) 0.04068(3)
N1B N 0.2027(2) 0.09556(16) -0.0458(3)
N2B N 0.1927(2) 0.05144(16) -0.0456(3)
N3B N 0.3025(3) 0.09441(18) -0.0544(3)
N4B N 0.2964(3) 0.04973(17) -0.0466(3)
N5B N 0.1356(3) 0.1907(2) -0.0937(4)
H15B H 0.1092 0.1754 -0.0965
N6B N 0.3495(3) 0.18068(19) -0.0833(3)
H16B H 0.3316 0.1787 -0.0562
N7B N 0.1484(3) -0.03719(18) -0.0680(3)
H17B H 0.1603 -0.0325 -0.0378
N8B N 0.3641(4) -0.0474(2) -0.0852(4)
H18B H 0.3904 -0.0333 -0.0929
O1B O 0.2179(3) 0.18525(16) -0.0724(3)
O2B O 0.2927(2) -0.03725(16) -0.0404(3)
O3B O 0.1140(4) 0.0023(3) -0.1350(5)
O4B O 0.3819(6) 0.1388(4) -0.1438(6)
O5B O 0.02205(18) 0.27829(14) -0.1994(2)
O6B O 0.04905(17) 0.35107(15) -0.1978(2)
O7B O 0.2464(2) -0.17209(16) 0.1016(2)
O8B O 0.1841(2) 0.39282(16) -0.0820(3)
O9B O 0.21271(18) 0.33840(13) -0.0315(2)
O10B O 0.30317(17) 0.33007(14) -0.0116(2)
O11B O 0.3221(2) 0.38053(16) -0.0720(3)
O12B O 0.4473(2) 0.33275(16) -0.1964(3)
O13B O 0.47165(18) 0.25966(15) -0.1972(2)
O14B O 0.4611(2) -0.14107(16) -0.1976(2)
O15B O 0.43276(17) -0.21227(14) -0.1958(2)
O16B O 0.29691(17) -0.24156(12) -0.0698(2)
O17B O 0.29130(17) -0.19050(13) -0.0056(2)
O18B O 0.19520(18) -0.18909(14) 0.0039(2)
O19B O 0.19795(19) -0.23265(13) -0.0674(2)
O20B O 0.07188(16) -0.19114(13) -0.1959(2)
O21B O 0.04411(18) -0.11864(15) -0.1973(2)
O22B O 0.20573(18) -0.02861(14) 0.0215(2)
O23B O 0.2564(2) 0.05356(17) 0.0554(2)
Cu3A Cu 0.00430(4) 0.37272(3) -0.2500
Cu3B Cu -0.00430(4) -0.12728(3) -0.2500
Cu3C Cu 0.00430(4) 0.12728(3) 0.2500
Cu4A Cu -0.02738(4) 0.28744(3) -0.2500
Cu4B Cu 0.02738(4) -0.21256(3) -0.2500
Cu4C Cu -0.02738(4) 0.21256(3) 0.2500
Cu5_2 Cu 0.24508(3) -0.27811(2) -0.04068(3)
Cu5B_2 Cu 0.24508(3) 0.77811(2) 0.04068(3)
Cu6A Cu 0.52247(4) 0.26719(3) -0.2500
Cu6B Cu 0.47753(4) -0.23281(3) -0.2500
Cu6C Cu 0.52247(4) 0.23281(3) 0.2500
Cu7A Cu 0.49111(4) 0.35233(3) -0.2500
Cu7B Cu 0.50889(4) -0.14767(3) -0.2500
Cu7C Cu 0.49111(4) 0.14767(3) 0.2500
O5C O -0.02205(18) 0.72171(14) 0.3006(2)
O5F O -0.02205(18) 0.72171(14) 0.1994(2)
O6C O -0.04905(17) 0.64893(15) 0.3022(2)
O6F O -0.04905(17) 0.64893(15) 0.1978(2)
O12C O 0.5527(2) 0.66725(16) 0.3036(3)
O12F O 0.5527(2) 0.66725(16) 0.1964(3)
O13C O 0.52835(18) 0.74034(15) 0.3028(2)
O13F O 0.52835(18) 0.74034(15) 0.1972(2)
O14E O 0.4611(2) 0.64107(16) 0.3024(2)
O15E O 0.43276(17) 0.71227(14) 0.3042(2)
O16_2 O 0.29691(17) -0.25844(12) 0.0698(2)
O16B_2 O 0.29691(17) 0.75844(12) -0.0698(2)
O19_2 O 0.19795(19) -0.26735(13) 0.0674(2)
O19B_2 O 0.19795(19) 0.76735(13) -0.0674(2)
O20E O 0.07188(16) 0.69114(13) 0.3041(2)
O21E O 0.04411(18) 0.61864(15) 0.3027(2)
loop_
_geom_bond_atom_site_label_1
_geom_bond_atom_site_label_2
_geom_bond_site_symmetry_1
_geom_bond_site_symmetry_2
C1 C2 1_555 1_555
C2 H1 1_555 1_555
C3 C2 1_555 1_555
C4 C1 1_555 1_555
C5 C6 1_555 1_555
C6 H2 1_555 1_555
C7 C6 1_555 1_555
C8 C7 1_555 1_555
H3 C8 1_555 1_555
C9 C8 1_555 1_555
C10 C5 1_555 1_555
H4 C10 1_555 1_555
C11 C7 1_555 1_555
C12 C9 1_555 1_555
C13 C3 1_555 1_555
C14 C15 1_555 1_555
C15 H5 1_555 1_555
C16 C15 1_555 1_555
C17 C16 1_555 1_555
H6 C17 1_555 1_555
C18 C17 1_555 1_555
C19 C14 1_555 1_555
H7 C19 1_555 1_555
C20 C16 1_555 1_555
C21 C18 1_555 1_555
C22 C23 1_555 1_555
C23 H8 1_555 1_555
C24 C23 1_555 1_555
C25 C24 1_555 1_555
C26 C27 1_555 1_555
C27 H9 1_555 1_555
C28 C27 1_555 1_555
C29 C28 1_555 1_555
H10 C29 1_555 1_555
C30 C29 1_555 1_555
C31 C26 1_555 1_555
H11 C31 1_555 1_555
C32 C30 1_555 1_555
C33 C28 1_555 1_555
C34 C22 1_555 1_555
C35 C36 1_555 1_555
C36 H12 1_555 1_555
C37 C36 1_555 1_555
C38 C37 1_555 1_555
H13 C38 1_555 1_555
C39 C38 1_555 1_555
C40 C35 1_555 1_555
H14 C40 1_555 1_555
C41 C39 1_555 1_555
C42 C37 1_555 1_555
Cu1 N1 1_555 1_555
Cu2 N2 1_555 1_555
Cu3 O21 1_555 1_555
Cu4 O20 1_555 1_555
Cu5 O7 1_555 1_555
Cu6 O15 1_555 1_555
Cu7 O14 1_555 1_555
N1 C3 1_555 1_555
N2 C1 1_555 1_555
N3 C24 1_555 1_555
N4 C22 1_555 1_555
N5 C13 1_555 1_555
H15 N5 1_555 1_555
N6 C25 1_555 1_555
H16 N6 1_555 1_555
N7 C4 1_555 1_555
H17 N7 1_555 1_555
N8 C34 1_555 1_555
H18 N8 1_555 1_555
O1 C13 1_555 1_555
O2 C34 1_555 1_555
O3 C4 1_555 1_555
O4 C25 1_555 1_555
O5 C21 1_555 1_555
O6 C21 1_555 1_555
O8 C20 1_555 1_555
O9 C20 1_555 1_555
O10 C33 1_555 1_555
O11 C33 1_555 1_555
O12 C32 1_555 1_555
O13 C32 1_555 1_555
O14 C42 1_555 1_555
O15 C42 1_555 1_555
O16 C41 1_555 1_555
O17 C41 1_555 1_555
O18 C12 1_555 1_555
O19 C12 1_555 1_555
O20 C11 1_555 1_555
O21 C11 1_555 1_555
O22 Cu2 1_555 1_555
O23 Cu2 1_555 1_555
O24 Cu7 1_555 1_555
O25 Cu6 1_555 1_555
O26 Cu4 1_555 1_555
O27 Cu3 1_555 1_555
C1B C2B 1_555 1_555
C2B H1B 1_555 1_555
C3B C2B 1_555 1_555
C4B C1B 1_555 1_555
C5B C6B 1_555 1_555
C6B H2B 1_555 1_555
C7B C6B 1_555 1_555
C8B C7B 1_555 1_555
H3B C8B 1_555 1_555
C9B C8B 1_555 1_555
C10B C5B 1_555 1_555
H4B C10B 1_555 1_555
C11B C7B 1_555 1_555
C12B C9B 1_555 1_555
C13B C3B 1_555 1_555
C14B C15B 1_555 1_555
C15B H5B 1_555 1_555
C16B C15B 1_555 1_555
C17B C16B 1_555 1_555
H6B C17B 1_555 1_555
C18B C17B 1_555 1_555
C19B C14B 1_555 1_555
H7B C19B 1_555 1_555
C20B C16B 1_555 1_555
C21B C18B 1_555 1_555
C22B C23B 1_555 1_555
C23B H8B 1_555 1_555
C24B C23B 1_555 1_555
C25B C24B 1_555 1_555
C26B C27B 1_555 1_555
C27B H9B 1_555 1_555
C28B C27B 1_555 1_555
C29B C28B 1_555 1_555
H10B C29B 1_555 1_555
C30B C29B 1_555 1_555
C31B C26B 1_555 1_555
H11B C31B 1_555 1_555
C32B C30B 1_555 1_555
C33B C28B 1_555 1_555
C34B C22B 1_555 1_555
C35B C36B 1_555 1_555
C36B H12B 1_555 1_555
C37B C36B 1_555 1_555
C38B C37B 1_555 1_555
H13B C38B 1_555 1_555
C39B C38B 1_555 1_555
C40B C35B 1_555 1_555
H14B C40B 1_555 1_555
C41B C39B 1_555 1_555
C42B C37B 1_555 1_555
Cu1B O9 1_555 1_555
Cu2B N2B 1_555 1_555
Cu5B O7B 1_555 1_555
N1B C3B 1_555 1_555
N2B C1B 1_555 1_555
N3B C24B 1_555 1_555
N4B C22B 1_555 1_555
N5B C13B 1_555 1_555
H15B N5B 1_555 1_555
N6B C25B 1_555 1_555
H16B N6B 1_555 1_555
N7B C4B 1_555 1_555
H17B N7B 1_555 1_555
N8B C34B 1_555 1_555
H18B N8B 1_555 1_555
O1B C13B 1_555 1_555
O2B C34B 1_555 1_555
O3B C4B 1_555 1_555
O4B C25B 1_555 1_555
O5B C21B 1_555 1_555
O6B C21B 1_555 1_555
O8B C20B 1_555 1_555
O9B Cu1 1_555 1_555
O10B Cu1 1_555 1_555
O11B C33B 1_555 1_555
O12B C32B 1_555 1_555
O13B C32B 1_555 1_555
O14B C42B 1_555 1_555
O15B C42B 1_555 1_555
O16B C41B 1_555 1_555
O17B C41B 1_555 1_555
O18B C12B 1_555 1_555
O19B C12B 1_555 1_555
O20B C11B 1_555 1_555
O21B C11B 1_555 1_555
O22B Cu2B 1_555 1_555
O23B Cu2B 1_555 1_555
Cu3A O6B 1_555 1_555
Cu3B O21B 1_555 1_555
Cu3C O6 1_555 1_555
Cu4A O5B 1_555 1_555
Cu4B O20B 1_555 1_555
Cu4C O5 1_555 1_555
Cu5_2 O16B 1_555 1_555
Cu5B_2 O16 1_555 1_555
Cu6A O13B 1_555 1_555
Cu6B O15B 1_555 1_555
Cu6C O13 1_555 1_555
Cu7A O12B 1_555 1_555
Cu7B O14B 1_555 1_555
Cu7C O12 1_555 1_555
O5C Cu4 1_555 1_555
O5F Cu4 1_555 1_555
O6C Cu3 1_555 1_555
O6F Cu3 1_555 1_555
O12C Cu7 1_555 1_555
O12F Cu7 1_555 1_555
O13C Cu6 1_555 1_555
O13F Cu6 1_555 1_555
O14E Cu7 1_555 1_555
O15E Cu6 1_555 1_555
O16_2 Cu5B 1_555 1_555
O16B_2 Cu5 1_555 1_555
O19_2 Cu5B 1_555 1_555
O19B_2 Cu5 1_555 1_555
O20E Cu4 1_555 1_555
O21E Cu3 1_555 1_555
C5 N7 1_555 1_555
C9 C10 1_555 1_555
C14 N5 1_555 1_555
C18 C19 1_555 1_555
C26 N6 1_555 1_555
C30 C31 1_555 1_555
C35 N8 1_555 1_555
C39 C40 1_555 1_555
Cu1 N3 1_555 1_555
Cu1 O1 1_555 1_555
Cu2 N4 1_555 1_555
Cu2 O2 1_555 1_555
Cu5 O17 1_555 1_555
Cu5 O18 1_555 1_555
N1 N2 1_555 1_555
N3 N4 1_555 1_555
O10 Cu1B 1_555 1_555
O19 Cu5B_2 1_555 1_555
C5B N7B 1_555 1_555
C9B C10B 1_555 1_555
C14B N5B 1_555 1_555
C18B C19B 1_555 1_555
C20B O9B 1_555 1_555
C26B N6B 1_555 1_555
C30B C31B 1_555 1_555
C33B O10B 1_555 1_555
C35B N8B 1_555 1_555
C39B C40B 1_555 1_555
Cu1B N1B 1_555 1_555
Cu1B N3B 1_555 1_555
Cu1B O1B 1_555 1_555
Cu2B N4B 1_555 1_555
Cu2B O2B 1_555 1_555
Cu5B O17B 1_555 1_555
Cu5B O18B 1_555 1_555
N1B N2B 1_555 1_555
N3B N4B 1_555 1_555
O19B Cu5_2 1_555 1_555

#END
