
#######################################################################
#
#                 Cambridge Crystallographic Data Centre
#                                CCDC 
#
#######################################################################
#
# If this CIF has been generated from an entry in the Cambridge 
# Structural Database, then it will include bibliographic, chemical, 
# crystal, experimental, refinement or atomic coordinate data resulting 
# from the CCDC's data processing and validation procedures.
#
#######################################################################

data_IYUHOB
_chemical_formula_moiety         '(C40 H26 Mn2 N10 O8)n'
_symmetry_cell_setting           monoclinic
_symmetry_space_group_name_H-M   'P 2/n'
_symmetry_Int_Tables_number      13
_space_group_name_Hall           '-P 2yac'
loop_
_symmetry_equiv_pos_site_id
_symmetry_equiv_pos_as_xyz
1 x,y,z
2 1/2-x,y,1/2-z
3 -x,-y,-z
4 1/2+x,-y,1/2+z
_cell_length_a                   10.1838(7)
_cell_length_b                   13.8721(9)
_cell_length_c                   33.049(2)
_cell_angle_alpha                90
_cell_angle_beta                 93.730(4)
_cell_angle_gamma                90
_cell_volume                     4658.97
loop_
_atom_site_label
_atom_site_type_symbol
_atom_site_fract_x
_atom_site_fract_y
_atom_site_fract_z
Mn2 Mn 0.38906(8) 0.98069(7) 0.70956(3)
O5 O 0.2108(4) 0.9704(4) 0.67119(14)
O6 O -0.3919(4) 0.9935(3) 0.71156(14)
O7 O -0.4910(4) 0.9684(5) 0.65200(15)
N6 N 0.3847(5) 0.8178(3) 0.71302(16)
C21 C -0.1415(13) 0.9649(11) 0.6816(4)
H14 H -0.1447 0.9849 0.7091
N7 N 0.3655(6) 0.1424(5) 0.7061(2)
C22 C 0.1073(6) 0.9759(5) 0.68921(19)
C23 C -0.3882(6) 0.9769(6) 0.6749(2)
C24 C -0.0200(12) 0.9505(11) 0.6642(4)
C25 C 0.4235(7) 0.7691(4) 0.7462(2)
H15 H 0.4523 0.8044 0.7697
C26 C -0.2558(12) 0.9490(11) 0.6575(4)
C27 C 0.3457(7) 0.7646(5) 0.6800(2)
H16 H 0.3168 0.7974 0.6559
C28 C 0.3456(7) 0.6645(5) 0.6797(2)
H17 H 0.3186 0.6304 0.6557
C29 C 0.3854(8) 0.6147(5) 0.7148(3)
C30 C 0.3518(9) 0.3389(5) 0.6969(3)
C31 C 0.4243(8) 0.6699(5) 0.7482(3)
H18 H 0.4520 0.6390 0.7730
C32 C 0.3014(10) 0.1847(6) 0.6748(3)
H19 H 0.2587 0.1445 0.6547
C33 C 0.3859(12) 0.5102(10) 0.7200(4)
H20 H 0.4163 0.4861 0.7458
C34 C 0.3473(10) 0.4446(8) 0.6914(3)
H21 H 0.3146 0.4683 0.6657
C35 C 0.2925(11) 0.2812(6) 0.6695(3)
H22 H 0.2444 0.3072 0.6465
C36 C 0.4160(10) 0.3003(6) 0.7317(3)
H23 H 0.4539 0.3402 0.7527
C37 C 0.4217(9) 0.1993(6) 0.7341(4)
H24 H 0.4680 0.1707 0.7569
C38 C -0.0151(13) 0.9181(11) 0.6259(4)
H25 H 0.0678 0.9076 0.6150
O8 O 0.1038(4) 0.9894(3) 0.72635(13)
C39 C -0.2531(13) 0.9194(11) 0.6188(4)
H26 H -0.3326 0.9113 0.6025
C40 C -0.1286(14) 0.9002(12) 0.6024(4)
N8 N -0.027(2) 0.813(2) 0.5554(8)
N9 N -0.1342(18) 0.8464(17) 0.5652(6)
N10 N 0.059(3) 0.783(2) 0.5392(8)
Mn2_2 Mn -0.61094(8) 0.98069(7) 0.70956(3)
Mn2_3 Mn 0.38906(8) -0.01931(7) 0.70956(3)
Mn2A Mn 0.11094(8) 0.98069(7) 0.79044(3)
O6_2 O 0.6081(4) 0.9935(3) 0.71156(14)
O7_2 O 0.5090(4) 0.9684(5) 0.65200(15)
N7_2 N 0.3655(6) 1.1424(5) 0.7061(2)
O8A O 0.3962(4) 0.9894(3) 0.77365(13)
Mn1 Mn 0.35804(8) 0.51831(7) 0.53970(3)
O1 O 0.3574(4) 0.5061(3) 0.47587(14)
O2 O 0.4642(4) 0.4688(4) 0.42248(14)
O3 O -0.2335(4) 0.4511(5) 0.40545(16)
O4 O -0.1386(4) 0.4798(5) 0.46494(16)
N1 N 0.3674(6) 1.3566(4) 0.54657(19)
N2 N 0.3724(6) 0.6821(4) 0.53381(17)
C1 C 0.1137(6) 0.4618(6) 0.4350(2)
H1 H 0.1093 0.4979 0.4593
C2 C 0.3666(7) 0.8839(4) 0.5311(2)
C3 C 0.3613(6) 0.4782(5) 0.44079(19)
C4 C 0.3618(8) 0.9893(5) 0.5287(2)
H2 H 0.3355 1.0160 0.5030
C5 C 0.3815(7) 1.1572(4) 0.5541(2)
C6 C 0.4070(7) 0.8371(4) 0.5662(2)
H3 H 0.4333 0.8722 0.5900
C7 C 0.3899(8) 1.0512(5) 0.5583(2)
H4 H 0.4176 1.0259 0.5841
C8 C 0.3351(8) 0.7284(5) 0.5002(2)
H5 H 0.3087 0.6917 0.4768
C9 C 0.4309(8) 1.3140(5) 0.5779(2)
H6 H 0.4735 1.3537 0.5981
C10 C 0.3324(8) 0.8272(5) 0.4974(2)
H7 H 0.3069 0.8570 0.4723
C11 C 0.2351(6) 0.4416(6) 0.4197(2)
C12 C 0.4087(8) 0.7368(6) 0.5660(2)
H8 H 0.4375 0.7049 0.5904
C13 C 0.3117(8) 1.2981(5) 0.5185(3)
H9 H 0.2661 1.3270 0.4956
C14 C 0.4390(9) 1.2170(5) 0.5827(2)
H10 H 0.4848 1.1908 0.6062
C15 C -0.0007(7) 0.4287(7) 0.4144(2)
C16 C -0.1332(6) 0.4571(7) 0.4291(2)
C17 C 0.3150(9) 1.1995(5) 0.5201(3)
H11 H 0.2739 1.1613 0.4990
C18 C 0.2418(7) 0.3855(6) 0.3843(2)
H12 H 0.3245 0.3715 0.3739
C19 C 0.1262(7) 0.3509(7) 0.3647(3)
N3 N 0.1216(7) 0.2933(8) 0.3290(3)
C20 C 0.0052(7) 0.3736(7) 0.3793(3)
H13 H -0.0737 0.3516 0.3654
N4 N 0.2291(8) 0.2797(7) 0.3150(3)
N5 N 0.3173(10) 0.2547(9) 0.2988(4)
Mn1_2 Mn 0.35804(8) 1.51831(7) 0.53970(3)
Mn1B Mn -0.35804(8) 0.48169(7) 0.46030(3)
Mn1B_2 Mn 0.64196(8) 0.48169(7) 0.46030(3)
O2B O 0.5358(4) 0.5312(4) 0.57752(14)
O3B O 0.2335(4) 0.5489(5) 0.59455(16)
O4B O 0.1386(4) 0.5202(5) 0.53506(16)
N1_2 N 0.3674(6) 0.3566(4) 0.54657(19)
loop_
_geom_bond_atom_site_label_1
_geom_bond_atom_site_label_2
_geom_bond_site_symmetry_1
_geom_bond_site_symmetry_2
Mn1 O1 1_555 1_555
O1 C3 1_555 1_555
O2 C3 1_555 1_555
O3 C16 1_555 1_555
O4 C16 1_555 1_555
N1 C9 1_555 1_555
N2 Mn1 1_555 1_555
C1 H1 1_555 1_555
C2 C4 1_555 1_555
C3 C11 1_555 1_555
C4 H2 1_555 1_555
C5 C7 1_555 1_555
C6 C2 1_555 1_555
H3 C6 1_555 1_555
C7 C4 1_555 1_555
H4 C7 1_555 1_555
C8 N2 1_555 1_555
H5 C8 1_555 1_555
C9 H6 1_555 1_555
C10 C2 1_555 1_555
H7 C10 1_555 1_555
C11 C1 1_555 1_555
C12 N2 1_555 1_555
H8 C12 1_555 1_555
C13 N1 1_555 1_555
H9 C13 1_555 1_555
C14 C5 1_555 1_555
H10 C14 1_555 1_555
C15 C1 1_555 1_555
C16 C15 1_555 1_555
C17 C5 1_555 1_555
H11 C17 1_555 1_555
C18 C11 1_555 1_555
H12 C18 1_555 1_555
C19 C18 1_555 1_555
N3 C19 1_555 1_555
C20 C15 1_555 1_555
H13 C20 1_555 1_555
N4 N3 1_555 1_555
N5 N4 1_555 1_555
Mn2 O5 1_555 1_555
O5 C22 1_555 1_555
O6 C23 1_555 1_555
O7 C23 1_555 1_555
N6 Mn2 1_555 1_555
C21 H14 1_555 1_555
N7 C32 1_555 1_555
C22 C24 1_555 1_555
C23 C26 1_555 1_555
C24 C21 1_555 1_555
C25 N6 1_555 1_555
H15 C25 1_555 1_555
C26 C21 1_555 1_555
C27 N6 1_555 1_555
H16 C27 1_555 1_555
C28 C27 1_555 1_555
H17 C28 1_555 1_555
C29 C28 1_555 1_555
C30 C34 1_555 1_555
C31 C25 1_555 1_555
H18 C31 1_555 1_555
C32 H19 1_555 1_555
C33 C29 1_555 1_555
H20 C33 1_555 1_555
C34 C33 1_555 1_555
H21 C34 1_555 1_555
C35 C30 1_555 1_555
H22 C35 1_555 1_555
C36 C30 1_555 1_555
H23 C36 1_555 1_555
C37 N7 1_555 1_555
H24 C37 1_555 1_555
C38 C24 1_555 1_555
H25 C38 1_555 1_555
O8 C22 1_555 1_555
C39 C26 1_555 1_555
H26 C39 1_555 1_555
C40 C38 1_555 1_555
N8 N9 1_555 1_555
N9 C40 1_555 1_555
N10 N8 1_555 1_555
Mn1_2 N1 1_555 1_555
Mn1B O3 1_555 1_555
Mn1B_2 O2 1_555 1_555
O2B Mn1 1_555 1_555
O3B Mn1 1_555 1_555
O4B Mn1 1_555 1_555
N1_2 Mn1 1_555 1_555
Mn2_2 O6 1_555 1_555
Mn2_3 N7 1_555 1_555
Mn2A O8 1_555 1_555
O6_2 Mn2 1_555 1_555
O7_2 Mn2 1_555 1_555
N7_2 Mn2 1_555 1_555
O8A Mn2 1_555 1_555
O4 Mn1B 1_555 1_555
C6 C12 1_555 1_555
C8 C10 1_555 1_555
C9 C14 1_555 1_555
C13 C17 1_555 1_555
C19 C20 1_555 1_555
O7 Mn2_2 1_555 1_555
C29 C31 1_555 1_555
C32 C35 1_555 1_555
C36 C37 1_555 1_555
C39 C40 1_555 1_555

#END
