
#######################################################################
#
#                 Cambridge Crystallographic Data Centre
#                                CCDC 
#
#######################################################################
#
# If this CIF has been generated from an entry in the Cambridge 
# Structural Database, then it will include bibliographic, chemical, 
# crystal, experimental, refinement or atomic coordinate data resulting 
# from the CCDC's data processing and validation procedures.
#
#######################################################################

data_SEVTUJ
_chemical_formula_moiety         'C41 H26 N10 Zn5'
_symmetry_cell_setting           tetragonal
_symmetry_space_group_name_H-M   'I 4/m c m'
_symmetry_Int_Tables_number      140
_space_group_name_Hall           '-I 4 2c'
loop_
_symmetry_equiv_pos_site_id
_symmetry_equiv_pos_as_xyz
1 x,y,z
2 -y,x,z
3 y,-x,z
4 y,x,1/2-z
5 1/2+x,1/2+y,1/2+z
6 1/2-y,1/2+x,1/2+z
7 1/2+y,1/2-x,1/2+z
8 1/2+y,1/2+x,-z
9 x,-y,1/2-z
10 -y,-x,1/2-z
11 -x,y,1/2-z
12 -x,-y,z
13 1/2+x,1/2-y,-z
14 1/2-y,1/2-x,-z
15 1/2-x,1/2+y,-z
16 1/2-x,1/2-y,1/2+z
17 -x,-y,-z
18 y,-x,-z
19 -y,x,-z
20 -y,-x,1/2+z
21 1/2-x,1/2-y,1/2-z
22 1/2+y,1/2-x,1/2-z
23 1/2-y,1/2+x,1/2-z
24 1/2-y,1/2-x,z
25 -x,y,1/2+z
26 y,x,1/2+z
27 x,-y,1/2+z
28 x,y,-z
29 1/2-x,1/2+y,z
30 1/2+y,1/2+x,z
31 1/2+x,1/2-y,z
32 1/2+x,1/2+y,1/2-z
_cell_length_a                   12.384(2)
_cell_length_b                   12.384(2)
_cell_length_c                   22.765(3)
_cell_angle_alpha                90
_cell_angle_beta                 90
_cell_angle_gamma                90
_cell_volume                     3491.32
loop_
_atom_site_label
_atom_site_type_symbol
_atom_site_fract_x
_atom_site_fract_y
_atom_site_fract_z
Zn1 Zn 1.0000 0.0000 0.0000
N1 N 1.0000 0.0000 -0.0944(2)
N2 N 0.8591(2) 0.1029(3) 0.0000
C1 C 0.9112(5) -0.0215(8) -0.1255(3)
C2 C 0.9080(6) -0.0220(9) -0.1846(3)
C3 C 1.0000 0.0000 -0.2181(2)
C4 C 0.7727(3) 0.1344(3) 0.0000
C5 C 0.6646(3) 0.1646(3) 0.0000
C6 C 0.5815(4) 0.0815(4) 0.0000
C7 C 0.6069(4) -0.0278(4) 0.000000(10)
H1 H 0.8469 -0.0390 -0.1048
H2 H 0.8416 -0.0365 -0.2039
H3 H 0.6808 -0.0486 0.0000
Zn1X Zn 1.0000 0.0000 -0.5000
Zn1BA Zn 0.5000 0.5000 0.0000
Zn1BA_2 Zn 0.5000 -0.5000 0.0000
Zn1_2 Zn 0.0000 0.0000 0.0000
N1C N 1.0000 0.0000 -0.4056(2)
N1AA N 1.0000 0.0000 0.0944(2)
N2CA N 0.6029(3) 0.3591(2) 0.0000
N2M N 0.3971(3) -0.3591(2) 0.0000
N2P N 0.1409(2) -0.1029(3) 0.0000
N2A N 0.8971(3) -0.1409(2) 0.0000
N2B N 1.1029(3) 0.1409(2) 0.0000
N2P_2 N 1.1409(2) -0.1029(3) 0.0000
C1A C 1.0215(8) -0.0888(5) -0.1255(3)
C1B C 0.9785(8) 0.0888(5) -0.1255(3)
C1K C 1.0888(5) 0.0215(8) -0.1255(3)
C1C C 0.9785(8) -0.0888(5) -0.3745(3)
C1H C 0.9112(5) 0.0215(8) -0.3745(3)
C1I C 1.0215(8) 0.0888(5) -0.3745(3)
C1J C 1.0888(5) -0.0215(8) -0.3745(3)
C2A C 1.0220(9) -0.0920(6) -0.1846(3)
C2B C 0.9780(9) 0.0920(6) -0.1846(3)
C2K C 1.0920(6) 0.0220(9) -0.1846(3)
C2C C 0.9780(9) -0.0920(6) -0.3154(3)
C2H C 0.9080(6) 0.0220(9) -0.3154(3)
C2I C 1.0220(9) 0.0920(6) -0.3154(3)
C2J C 1.0920(6) -0.0220(9) -0.3154(3)
C3C C 1.0000 0.0000 -0.2819(2)
C4CA C 0.6344(3) 0.2727(3) 0.0000
C4M C 0.3656(3) -0.2727(3) 0.0000
C4P C 0.2273(3) -0.1344(3) 0.0000
C5P C 0.3354(3) -0.1646(3) 0.0000
C6P C 0.4185(4) -0.0815(4) 0.0000
C7M C 0.5278(4) -0.1069(4) 0.000000(10)
C7P C 0.3931(4) 0.0278(4) 0.000000(10)
C7CA C 0.4722(4) 0.1069(4) 0.000000(10)
H1K H 1.1531 0.0390 -0.1048
H1J H 1.1531 -0.0390 -0.3952
H1I H 1.0390 0.1531 -0.3952
H1H H 0.8469 0.0390 -0.3952
H1C H 0.9610 -0.1531 -0.3952
H1B H 0.9610 0.1531 -0.1048
H1A H 1.0390 -0.1531 -0.1048
H2B H 0.9635 0.1584 -0.2039
H2J H 1.1584 -0.0365 -0.2961
H2I H 1.0365 0.1584 -0.2961
H2H H 0.8416 0.0365 -0.2961
H2C H 0.9635 -0.1584 -0.2961
H2K H 1.1584 0.0365 -0.2039
H2A H 1.0365 -0.1584 -0.2039
H3CA H 0.4514 0.1808 0.0000
H3P H 0.3192 0.0486 0.0000
H3M H 0.5486 -0.1808 0.0000
C8 C 0.7500(10) 0.2500(10) 0.2500(10)
C9 C 0.8314(10) 0.3314(10) 0.254(1)
C10 C 0.875(2) 0.375(2) 0.202(2)
C11 C 0.839(3) 0.339(3) 0.146(2)
C12 C 0.758(3) 0.258(3) 0.1423(8)
C13 C 0.713(2) 0.213(2) 0.1942(10)
H6 H 0.9293 0.4293 0.2065
H7 H 0.8712 0.3712 0.1123
H8 H 0.7362 0.2362 0.1039
C9I C 0.6686(10) 0.1686(10) 0.246(1)
C10I C 0.625(2) 0.125(2) 0.298(2)
C11I C 0.661(3) 0.161(3) 0.354(2)
C12I C 0.742(3) 0.242(3) 0.3577(8)
C13I C 0.787(2) 0.287(2) 0.3058(10)
H6I H 0.5707 0.0707 0.2935
H7I H 0.6288 0.1288 0.3877
H8I H 0.7638 0.2638 0.3961
loop_
_geom_bond_atom_site_label_1
_geom_bond_atom_site_label_2
_geom_bond_site_symmetry_1
_geom_bond_site_symmetry_2
Zn1 N1 1_555 1_555
N1 C1 1_555 1_555
N2 Zn1 1_555 1_555
C1 C2 1_555 1_555
C2 C3 1_555 1_555
C3 C2A 1_555 1_555
C4 N2 1_555 1_555
C5 C4 1_555 1_555
C6 C5 1_555 1_555
C7 C6 1_555 1_555
C8 C9 1_555 1_555
C9 C10 1_555 1_555
C10 C11 1_555 1_555
C11 C12 1_555 1_555
C12 C13 1_555 1_555
C13 C8 1_555 1_555
H1 C1 1_555 1_555
H2 C2 1_555 1_555
H3 C7 1_555 1_555
H6 C10 1_555 1_555
H7 C11 1_555 1_555
H8 C12 1_555 1_555
Zn1X N1C 1_555 1_555
Zn1BA N2CA 1_555 1_555
Zn1BA_2 N2M 1_555 1_555
Zn1_2 N2P 1_555 1_555
N1C C1C 1_555 1_555
N1AA Zn1 1_555 1_555
N2CA C4CA 1_555 1_555
N2M C4M 1_555 1_555
N2P C4P 1_555 1_555
N2A Zn1 1_555 1_555
N2B Zn1 1_555 1_555
N2P_2 Zn1 1_555 1_555
C1A N1 1_555 1_555
C1B N1 1_555 1_555
C1K N1 1_555 1_555
C1C C1H 1_555 1_555
C1H N1C 1_555 1_555
C1I N1C 1_555 1_555
C1J N1C 1_555 1_555
C2A C2 1_555 1_555
C2B C2 1_555 1_555
C2K C3 1_555 1_555
C2C C1C 1_555 1_555
C2H C1H 1_555 1_555
C2I C1I 1_555 1_555
C2J C1J 1_555 1_555
C3C C3 1_555 1_555
C4CA C5 1_555 1_555
C4M C5P 1_555 1_555
C4P C5P 1_555 1_555
C5P C6P 1_555 1_555
C6P C7M 1_555 1_555
C7M C7 1_555 1_555
C7P C6P 1_555 1_555
C7CA C6 1_555 1_555
C9I C8 1_555 1_555
C10I C9I 1_555 1_555
C11I C10I 1_555 1_555
C12I C11I 1_555 1_555
C13I C8 1_555 1_555
H1K C1K 1_555 1_555
H1J C1J 1_555 1_555
H1I C1I 1_555 1_555
H1H C1H 1_555 1_555
H1C C1C 1_555 1_555
H1B C1B 1_555 1_555
H1A C1A 1_555 1_555
H2B C2B 1_555 1_555
H2J C2J 1_555 1_555
H2I C2I 1_555 1_555
H2H C2H 1_555 1_555
H2C C2C 1_555 1_555
H2K C2K 1_555 1_555
H2A C2A 1_555 1_555
H3CA C7CA 1_555 1_555
H3P C7P 1_555 1_555
H3M C7M 1_555 1_555
H6I C10I 1_555 1_555
H7I C11I 1_555 1_555
H8I C12I 1_555 1_555
C1 C1A 1_555 1_555
C1 C1B 1_555 1_555
C3 C2B 1_555 1_555
C9 C13I 1_555 1_555
C13 C9I 1_555 1_555
C1A C1K 1_555 1_555
C1A C2A 1_555 1_555
C1B C1K 1_555 1_555
C1B C2B 1_555 1_555
C1K C2K 1_555 1_555
C1C C1J 1_555 1_555
C1H C1I 1_555 1_555
C1I C1J 1_555 1_555
C2A C2K 1_555 1_555
C2B C2K 1_555 1_555
C2C C2H 1_555 1_555
C2C C2J 1_555 1_555
C2C C3C 1_555 1_555
C2H C2I 1_555 1_555
C2H C3C 1_555 1_555
C2I C2J 1_555 1_555
C2I C3C 1_555 1_555
C2J C3C 1_555 1_555
C7P C7CA 1_555 1_555
C12I C13I 1_555 1_555

#END
