
#######################################################################
#
#                 Cambridge Crystallographic Data Centre
#                                CCDC 
#
#######################################################################
#
# If this CIF has been generated from an entry in the Cambridge 
# Structural Database, then it will include bibliographic, chemical, 
# crystal, experimental, refinement or atomic coordinate data resulting 
# from the CCDC's data processing and validation procedures.
#
#######################################################################

data_SEVTOD
_chemical_formula_moiety         'C56 H48 N18 O4 Zn8'
_symmetry_cell_setting           tetragonal
_symmetry_space_group_name_H-M   'P 4/n c c'
_symmetry_Int_Tables_number      130
_space_group_name_Hall           '-P 4a 2ac'
loop_
_symmetry_equiv_pos_site_id
_symmetry_equiv_pos_as_xyz
1 x,y,z
2 1/2-y,x,z
3 y,1/2-x,z
4 1/2+y,1/2+x,1/2-z
5 1/2+x,-y,1/2-z
6 -y,-x,1/2-z
7 -x,1/2+y,1/2-z
8 1/2-x,1/2-y,z
9 -x,-y,-z
10 1/2+y,-x,-z
11 -y,1/2+x,-z
12 1/2-y,1/2-x,1/2+z
13 1/2-x,y,1/2+z
14 y,x,1/2+z
15 x,1/2-y,1/2+z
16 1/2+x,1/2+y,-z
_cell_length_a                   17.355(1)
_cell_length_b                   17.355(1)
_cell_length_c                   22.740(2)
_cell_angle_alpha                90
_cell_angle_beta                 90
_cell_angle_gamma                90
_cell_volume                     6849.2
loop_
_atom_site_label
_atom_site_type_symbol
_atom_site_fract_x
_atom_site_fract_y
_atom_site_fract_z
O1 O 0.4838(6) 0.6597(6) 0.2282(5)
C17 C 0.5097(12) 0.6152(10) 0.1814(8)
H4 H 0.5393 0.5733 0.1959
H5 H 0.5393 0.6432 0.1534
H6 H 0.4643 0.5962 0.1631
O2 O 0.6898(8) 0.4751(7) 0.2162(6)
C16 C 0.6711(11) 0.4645(10) 0.1556(7)
H1 H 0.6955 0.4186 0.1425
H2 H 0.6894 0.5070 0.1333
H3 H 0.6169 0.4599 0.1506
O3 O 0.3334(9) 0.4277(9) 0.1684(7)
C18 C 0.330(1) 0.4496(13) 0.1082(8)
H7 H 0.3702 0.4261 0.0865
H8 H 0.3307 0.5037 0.1017
H9 H 0.2817 0.4294 0.0957
O4 O 0.4548(10) 0.3290(10) 0.1885(7)
C19 C 0.4990(12) 0.3111(13) 0.1393(9)
H10 H 0.5253 0.2640 0.1465
H11 H 0.5353 0.3501 0.1299
H12 H 0.4644 0.3045 0.1073
Zn1 Zn 0.2500 0.2500 0.45204(3)
Zn2 Zn 0.7500 0.2500 0.5000
N1 N 0.3731(2) 0.2291(2) 0.4526(1)
N2 N 0.6263(2) 0.2357(2) 0.4996(1)
N3 N 0.7500 0.2500 0.5942(2)
N4 N 0.2500 0.2500 0.5472(2)
N5 N 0.2500 0.2500 0.8588(2)
C1 C 0.4318(2) 0.2027(2) 0.4660(2)
C2 C 0.4999(2) 0.1650(2) 0.4815(2)
C3 C 0.5671(2) 0.2064(2) 0.4910(2)
C4 C 0.4998(2) 0.0809(2) 0.4914(2)
C5 C 0.5659(2) 0.0422(2) 0.5101(2)
C6 C 0.4340(2) 0.0363(2) 0.4809(2)
C7 C 0.6934(3) 0.2832(3) 0.6245(2)
C8 C 0.6908(3) 0.2842(3) 0.6851(2)
C9 C 0.7500 0.2500 0.7169(2)
C10 C 0.2843(5) 0.1955(5) 0.5768(3)
C11 C 0.2859(5) 0.1926(5) 0.6383(3)
C12 C 0.2500 0.2500 0.6700(3)
C13 C 0.2500 0.2500 0.7350(3)
C14 C 0.2134(6) 0.1930(6) 0.7668(3)
C15 C 0.2158(5) 0.1929(5) 0.8288(3)
H13 H 0.6117 0.0707 0.5173
H14 H 0.6527 0.3066 0.6031
H15 H 0.6492 0.3087 0.7048
H16 H 0.3104 0.1563 0.5555
H17 H 0.3100 0.1509 0.6582
H18 H 0.1858 0.1539 0.7465
H19 H 0.1926 0.1515 0.8495
H20 H 0.3882 0.0607 0.4677
Zn1L Zn 0.2500 0.2500 0.95204(3)
Zn1O Zn 0.7500 -0.2500 0.54796(3)
Zn1O_2 Zn 0.7500 0.7500 0.54796(3)
Zn2A Zn 0.2500 -0.2500 0.5000
Zn2L Zn 0.7500 0.2500 1.0000
Zn2A_2 Zn 0.2500 0.7500 0.5000
N1H N 0.6269(2) -0.2291(2) 0.5474(1)
N1A N 0.2709(2) 0.3731(2) 0.4526(1)
N1I N 0.7291(2) 0.6269(2) 0.5474(1)
N1B N 0.2291(2) 0.1269(2) 0.4526(1)
N1G N 0.1269(2) 0.2709(2) 0.4526(1)
N2H N 0.3737(2) -0.2357(2) 0.5004(1)
N2A N 0.2643(2) 0.6263(2) 0.4996(1)
N2I N 0.7357(2) 0.3737(2) 0.5004(1)
N2J N 0.7643(2) 0.1263(2) 0.5004(1)
N2G N 0.8737(2) 0.2643(2) 0.4996(1)
N3C N 0.7500 0.2500 0.9058(2)
N3I N 0.7500 0.2500 0.4058(2)
N5L N 0.2500 0.2500 0.3588(2)
C1H C 0.5682(2) -0.2027(2) 0.5340(2)
C1A C 0.2973(2) 0.4318(2) 0.4660(2)
C1I C 0.7027(2) 0.5682(2) 0.5340(2)
C2H C 0.5001(2) -0.1650(2) 0.5185(2)
C2A C 0.3350(2) 0.4999(2) 0.4815(2)
C2I C 0.6650(2) 0.5001(2) 0.5185(2)
C3H C 0.4329(2) -0.2064(2) 0.5090(2)
C3A C 0.2936(2) 0.5671(2) 0.4910(2)
C3I C 0.7064(2) 0.4329(2) 0.5090(2)
C4H C 0.5002(2) -0.0809(2) 0.5086(2)
C4A C 0.4191(2) 0.4998(2) 0.4914(2)
C4I C 0.5809(2) 0.5002(2) 0.5086(2)
C5H C 0.4341(2) -0.0422(2) 0.4899(2)
C5A C 0.4578(2) 0.5659(2) 0.5101(2)
C5I C 0.5422(2) 0.4341(2) 0.4899(2)
C6H C 0.5660(2) -0.0363(2) 0.5191(2)
C6A C 0.4637(2) 0.4340(2) 0.4809(2)
C6I C 0.5363(2) 0.5660(2) 0.5191(2)
C7G C 0.8066(3) 0.2168(3) 0.6245(2)
C7C C 0.7832(3) 0.1934(3) 0.8755(2)
C7E C 0.7168(3) 0.3066(3) 0.8755(2)
C8G C 0.8092(3) 0.2158(3) 0.6851(2)
C8C C 0.7842(3) 0.1908(3) 0.8149(2)
C8E C 0.7158(3) 0.3092(3) 0.8149(2)
C9C C 0.7500 0.2500 0.7831(2)
C10A C 0.3045(5) 0.2843(5) 0.5768(3)
C10B C 0.1955(5) 0.2157(5) 0.5768(3)
C10G C 0.2157(5) 0.3045(5) 0.5768(3)
C11A C 0.3074(5) 0.2859(5) 0.6383(3)
C11B C 0.1926(5) 0.2141(5) 0.6383(3)
C11G C 0.2141(5) 0.3074(5) 0.6383(3)
C14A C 0.3070(6) 0.2134(6) 0.7668(3)
C14B C 0.1930(6) 0.2866(6) 0.7668(3)
C14G C 0.2866(6) 0.3070(6) 0.7668(3)
C15A C 0.3071(5) 0.2158(5) 0.8288(3)
C15B C 0.1929(5) 0.2842(5) 0.8288(3)
C15G C 0.2842(5) 0.3071(5) 0.8288(3)
H13H H 0.3883 -0.0707 0.4827
H13A H 0.4293 0.6117 0.5173
H13I H 0.5707 0.3883 0.4827
H14G H 0.8473 0.1934 0.6031
H14E H 0.6934 0.3473 0.8969
H14C H 0.8066 0.1527 0.8969
H15G H 0.8508 0.1913 0.7048
H15E H 0.6913 0.3508 0.7952
H15C H 0.8087 0.1492 0.7952
H16G H 0.1896 0.3437 0.5555
H16B H 0.1563 0.1896 0.5555
H16A H 0.3437 0.3104 0.5555
H17B H 0.1509 0.1900 0.6582
H17G H 0.1900 0.3491 0.6582
H17A H 0.3491 0.3100 0.6582
H18G H 0.3142 0.3461 0.7465
H18B H 0.1539 0.3142 0.7465
H18A H 0.3461 0.1858 0.7465
H19G H 0.3074 0.3485 0.8495
H19A H 0.3485 0.1926 0.8495
H19B H 0.1515 0.3074 0.8495
H20H H 0.6118 -0.0607 0.5323
H20A H 0.4393 0.3882 0.4677
H20I H 0.5607 0.6118 0.5323
loop_
_geom_bond_atom_site_label_1
_geom_bond_atom_site_label_2
_geom_bond_site_symmetry_1
_geom_bond_site_symmetry_2
Zn1 N1 1_555 1_555
Zn2 N2 1_555 1_555
O1 C17 1_555 1_555
O2 C16 1_555 1_555
O3 C18 1_555 1_555
O4 C19 1_555 1_555
N1 C1 1_555 1_555
N2 C3 1_555 1_555
N3 Zn2 1_555 1_555
N4 Zn1 1_555 1_555
N5 C15 1_555 1_555
C1 C2 1_555 1_555
C2 C3 1_555 1_555
C4 C2 1_555 1_555
C5 C4 1_555 1_555
C6 C4 1_555 1_555
C7 N3 1_555 1_555
C8 C7 1_555 1_555
C9 C8 1_555 1_555
C10 N4 1_555 1_555
C11 C10 1_555 1_555
C12 C11 1_555 1_555
C13 C12 1_555 1_555
C14 C13 1_555 1_555
C15 C14 1_555 1_555
C16 H1 1_555 1_555
C17 H4 1_555 1_555
C18 H7 1_555 1_555
C19 H10 1_555 1_555
H2 C16 1_555 1_555
H3 C16 1_555 1_555
H5 C17 1_555 1_555
H6 C17 1_555 1_555
H8 C18 1_555 1_555
H9 C18 1_555 1_555
H11 C19 1_555 1_555
H12 C19 1_555 1_555
H13 C5 1_555 1_555
H14 C7 1_555 1_555
H15 C8 1_555 1_555
H16 C10 1_555 1_555
H17 C11 1_555 1_555
H18 C14 1_555 1_555
H19 C15 1_555 1_555
H20 C6 1_555 1_555
Zn1L N5 1_555 1_555
Zn1O N1H 1_555 1_555
Zn1O_2 N1I 1_555 1_555
Zn2A N2H 1_555 1_555
Zn2L N3C 1_555 1_555
Zn2A_2 N2A 1_555 1_555
N1H C1H 1_555 1_555
N1A Zn1 1_555 1_555
N1I C1I 1_555 1_555
N1B Zn1 1_555 1_555
N1G Zn1 1_555 1_555
N2H C3H 1_555 1_555
N2A C3A 1_555 1_555
N2I Zn2 1_555 1_555
N2J Zn2 1_555 1_555
N2G Zn2 1_555 1_555
N3C C7C 1_555 1_555
N3I Zn2 1_555 1_555
N5L Zn1 1_555 1_555
C1H C2H 1_555 1_555
C1A N1A 1_555 1_555
C1I C2I 1_555 1_555
C2H C3H 1_555 1_555
C2A C1A 1_555 1_555
C2I C3I 1_555 1_555
C3A C2A 1_555 1_555
C3I N2I 1_555 1_555
C4H C2H 1_555 1_555
C4A C2A 1_555 1_555
C4I C2I 1_555 1_555
C5H C6 1_555 1_555
C5A C4A 1_555 1_555
C5I C4I 1_555 1_555
C6H C5 1_555 1_555
C6A C4A 1_555 1_555
C6I C4I 1_555 1_555
C7G N3 1_555 1_555
C7C C8C 1_555 1_555
C7E N3C 1_555 1_555
C8G C9 1_555 1_555
C8C C9C 1_555 1_555
C8E C7E 1_555 1_555
C9C C9 1_555 1_555
C10A N4 1_555 1_555
C10B N4 1_555 1_555
C10G N4 1_555 1_555
C11A C11 1_555 1_555
C11B C11 1_555 1_555
C11G C12 1_555 1_555
C14A C13 1_555 1_555
C14B C13 1_555 1_555
C14G C13 1_555 1_555
C15A N5 1_555 1_555
C15B N5 1_555 1_555
C15G N5 1_555 1_555
H13H C5H 1_555 1_555
H13A C5A 1_555 1_555
H13I C5I 1_555 1_555
H14G C7G 1_555 1_555
H14E C7E 1_555 1_555
H14C C7C 1_555 1_555
H15G C8G 1_555 1_555
H15E C8E 1_555 1_555
H15C C8C 1_555 1_555
H16G C10G 1_555 1_555
H16B C10B 1_555 1_555
H16A C10A 1_555 1_555
H17B C11B 1_555 1_555
H17G C11G 1_555 1_555
H17A C11A 1_555 1_555
H18G C14G 1_555 1_555
H18B C14B 1_555 1_555
H18A C14A 1_555 1_555
H19G C15G 1_555 1_555
H19A C15A 1_555 1_555
H19B C15B 1_555 1_555
H20H C6H 1_555 1_555
H20A C6A 1_555 1_555
H20I C6I 1_555 1_555
C10 C10A 1_555 1_555
C10 C10B 1_555 1_555
C12 C11A 1_555 1_555
C12 C11B 1_555 1_555
C14 C14A 1_555 1_555
C14 C14B 1_555 1_555
C15 C15A 1_555 1_555
C15 C15B 1_555 1_555
C4H C5H 1_555 1_555
C4H C6H 1_555 1_555
C5A C6I 1_555 1_555
C5I C6A 1_555 1_555
C7G C8G 1_555 1_555
C8E C9C 1_555 1_555
C10A C10G 1_555 1_555
C10A C11A 1_555 1_555
C10B C10G 1_555 1_555
C10B C11B 1_555 1_555
C10G C11G 1_555 1_555
C11A C11G 1_555 1_555
C11B C11G 1_555 1_555
C14A C14G 1_555 1_555
C14A C15A 1_555 1_555
C14B C14G 1_555 1_555
C14B C15B 1_555 1_555
C14G C15G 1_555 1_555
C15A C15G 1_555 1_555
C15B C15G 1_555 1_555

#END
