
#######################################################################
#
#                 Cambridge Crystallographic Data Centre
#                                CCDC 
#
#######################################################################
#
# If this CIF has been generated from an entry in the Cambridge 
# Structural Database, then it will include bibliographic, chemical, 
# crystal, experimental, refinement or atomic coordinate data resulting 
# from the CCDC's data processing and validation procedures.
#
#######################################################################

data_MOXKAN
_chemical_formula_moiety         '(C60 H68 Ce4 N40)n'
_symmetry_cell_setting           monoclinic
_symmetry_space_group_name_H-M   'P 21/n'
_symmetry_Int_Tables_number      14
_space_group_name_Hall           '-P 2yn'
loop_
_symmetry_equiv_pos_site_id
_symmetry_equiv_pos_as_xyz
1 x,y,z
2 1/2-x,1/2+y,1/2-z
3 -x,-y,-z
4 1/2+x,1/2-y,1/2+z
_cell_length_a                   23.253(5)
_cell_length_b                   14.024(3)
_cell_length_c                   23.455(5)
_cell_angle_alpha                90
_cell_angle_beta                 107.68(3)
_cell_angle_gamma                90
_cell_volume                     7287.41
loop_
_atom_site_label
_atom_site_type_symbol
_atom_site_fract_x
_atom_site_fract_y
_atom_site_fract_z
Ce1 Ce 0.488878(8) 0.797168(13) 0.226355(9)
Ce2 Ce 0.242199(8) 0.644697(12) 0.290758(8)
Ce3 Ce 0.752501(8) 0.557283(12) 0.207636(8)
Ce4 Ce 0.723124(8) 0.699509(13) 0.496385(8)
N1 N 0.41844(14) 0.9284(2) 0.24424(15)
N2 N 0.35863(15) 1.0576(2) 0.23592(16)
N3 N 0.43886(13) 0.7332(2) 0.30159(15)
N4 N 0.35452(15) 0.6821(2) 0.32161(15)
N5 N 0.54594(14) 0.9496(2) 0.21677(15)
N6 N 0.63424(14) 1.0308(2) 0.25231(16)
N7 N 0.57177(13) 0.7200(2) 0.19084(15)
N8 N 0.64436(14) 0.6223(2) 0.17823(15)
N9 N 0.57035(15) 0.8153(2) 0.32661(15)
N10 N 0.63559(14) 0.7771(2) 0.41715(15)
N11 N 0.42607(14) 0.8315(2) 0.11963(15)
N12 N 0.33431(14) 0.8358(2) 0.04939(15)
N13 N 0.44834(15) 0.6244(2) 0.18773(17)
N14 N 0.39823(17) 0.4896(3) 0.1730(2)
N15 N 0.27266(14) 0.4721(2) 0.27287(15)
N16 N 0.26839(14) 0.3200(2) 0.23992(14)
N17 N 0.23718(16) 0.6420(2) 0.17769(15)
N18 N 0.24200(15) 0.6889(2) 0.08678(15)
N19 N 0.27914(15) 0.5742(2) 0.39439(15)
N20 N 0.27859(15) 0.4728(2) 0.46921(15)
N21 N 0.18245(16) 0.7347(2) 0.35398(15)
N22 N 0.14871(18) 0.7408(3) 0.43245(17)
N23 N 0.74029(14) 0.3833(2) 0.23530(14)
N24 N 0.72600(15) 0.2277(2) 0.25260(14)
N25 N 0.73761(15) 0.5602(2) 0.31401(15)
N26 N 0.72280(16) 0.6135(2) 0.39942(14)
N27 N 0.78131(14) 0.9604(2) 0.39267(14)
N28 N 0.77075(14) 0.8443(2) 0.45633(15)
N29 N 0.78960(16) 0.6525(2) 0.12831(15)
N30 N 0.84763(18) 0.6660(3) 0.06968(19)
N31 N 0.62609(16) 0.6785(3) 0.53111(16)
N32 N 0.56021(18) 0.6697(3) 0.58124(19)
C1 C 0.37626(17) 0.9843(3) 0.20795(18)
C2 C 0.42869(16) 0.9686(3) 0.30002(18)
C3 C 0.39260(18) 1.0477(3) 0.29502(19)
C4 C 0.37828(17) 0.7351(3) 0.28682(18)
C5 C 0.45533(17) 0.6732(3) 0.35093(18)
C6 C 0.40482(18) 0.6429(3) 0.36314(18)
C7 C 0.60636(17) 0.9482(3) 0.23077(18)
C8 C 0.53360(17) 1.0416(3) 0.2310(2)
C9 C 0.58655(18) 1.0905(3) 0.2526(2)
C10 C 0.61418(17) 0.6536(3) 0.21485(17)
C11 C 0.57521(18) 0.7314(3) 0.13355(19)
C12 C 0.61952(17) 0.6728(3) 0.12607(18)
C13 C 0.60446(17) 0.7483(3) 0.36177(18)
C14 C 0.58086(17) 0.8956(3) 0.36266(18)
C15 C 0.61981(17) 0.8719(3) 0.41686(17)
C16 C 0.37246(18) 0.7890(3) 0.09532(18)
C17 C 0.42209(17) 0.9134(3) 0.08552(18)
C18 C 0.36649(18) 0.9158(3) 0.04334(18)
C19 C 0.4113(2) 0.5691(3) 0.2058(2)
C20 C 0.4594(2) 0.5757(3) 0.1408(2)
C21 C 0.4286(2) 0.4927(3) 0.1311(2)
C22 C 0.23766(16) 0.3995(2) 0.24505(16)
C23 C 0.33037(17) 0.4366(3) 0.28721(18)
C24 C 0.32778(17) 0.3443(3) 0.26718(18)
C25 C 0.24984(18) 0.7117(3) 0.14404(19)
C26 C 0.2199(2) 0.5673(3) 0.13768(19)
C27 C 0.22337(19) 0.5959(3) 0.08307(18)
C28 C 0.27308(18) 0.4847(3) 0.41101(17)
C29 C 0.2894(2) 0.6241(3) 0.4469(2)
C30 C 0.2890(2) 0.5635(3) 0.49183(19)
C31 C 0.1506(2) 0.6913(3) 0.3841(2)
C32 C 0.2028(2) 0.8170(3) 0.3859(2)
C33 C 0.1827(2) 0.8212(3) 0.4347(2)
C34 C 0.76425(17) 0.3020(2) 0.26198(17)
C35 C 0.68100(17) 0.3583(2) 0.20632(18)
C36 C 0.67272(17) 0.2640(3) 0.21646(18)
C37 C 0.75266(18) 0.6232(3) 0.35948(18)
C38 C 0.69249(17) 0.5057(3) 0.32665(17)
C39 C 0.68391(18) 0.5390(3) 0.37758(18)
C40 C 0.75429(17) 0.8783(3) 0.39998(16)
C41 C 0.81896(18) 0.9792(3) 0.44981(18)
C42 C 0.81223(17) 0.9098(3) 0.48835(17)
C43 C 0.8108(2) 0.6098(3) 0.0891(2)
C44 C 0.8146(2) 0.7429(3) 0.1340(2)
C45 C 0.8502(2) 0.7512(3) 0.0983(2)
C46 C 0.6128(2) 0.7053(3) 0.5796(2)
C47 C 0.5779(2) 0.6233(4) 0.4999(2)
C48 C 0.5373(2) 0.6177(4) 0.5309(3)
H1 H 0.3601 0.9701 0.1662
H2 H 0.4562 0.9442 0.3353
H3 H 0.3892 1.0955 0.3252
H4 H 0.3569 0.7674 0.2545
H5 H 0.4954 0.6565 0.3722
H6 H 0.4004 0.6029 0.3935
H7 H 0.6291 0.8906 0.2272
H8 H 0.4938 1.0599 0.2269
H9 H 0.5907 1.1576 0.2611
H10 H 0.6261 0.6363 0.2544
H11 H 0.5478 0.7735 0.1091
H12 H 0.6327 0.6705 0.0891
H13 H 0.6084 0.6854 0.3475
H14 H 0.3752 0.4411 0.1801
H15 H 0.6353 0.9125 0.4490
H16 H 0.3620 0.7358 0.1102
H17 H 0.4561 0.9583 0.0943
H18 H 0.3485 0.9639 0.0127
H19 H 0.3920 0.5813 0.2369
H20 H 0.4895 0.6028 0.1206
H21 H 0.4273 0.4434 0.1026
H22 H 0.1351 0.7176 0.4605
H23 H 0.3651 0.4716 0.3104
H24 H 0.3589 0.3038 0.2696
H25 H 0.2630 0.7729 0.1615
H26 H 0.2115 0.5086 0.1509
H27 H 0.2147 0.5643 0.0477
H28 H 0.2613 0.4313 0.3837
H29 H 0.3034 0.6958 0.4507
H30 H 0.8710 0.6481 0.0464
H31 H 0.1315 0.6359 0.3741
H32 H 0.5453 0.6783 0.6059
H33 H 0.1932 0.8700 0.4644
H34 H 0.6542 0.4023 0.1858
H35 H 0.7803 0.6690 0.3618
H36 H 0.6564 0.5167 0.3985
H37 H 0.8439 1.0355 0.4585
H38 H 0.8321 0.9056 0.5332
H39 H 0.8058 0.5424 0.0798
H40 H 0.8050 0.7878 0.1607
H41 H 0.8743 0.8016 0.0954
H42 H 0.6393 0.7465 0.6127
H43 H 0.5763 0.5867 0.4645
H44 H 0.5028 0.5876 0.5252
H45 H 0.5645 0.9563 0.3463
H46 H 0.1951 0.4026 0.2281
H47 H 0.2944 0.5771 0.5332
H48 H 0.2283 0.8593 0.3724
H49 H 0.8052 0.2990 0.2862
H50 H 0.6384 0.2260 0.2030
H51 H 0.6726 0.4478 0.3004
H52 H 0.7268 0.8452 0.3675
Ce2A Ce 0.257801(8) 0.144697(12) 0.209242(8)
Ce2A_2 Ce 0.257801(8) 1.144697(12) 0.209242(8)
Ce3A Ce 0.747499(8) 0.057283(12) 0.292364(8)
Ce3A_2 Ce 0.747499(8) 1.057283(12) 0.292364(8)
Ce4B Ce 0.276876(8) 0.300491(13) 0.503615(8)
Ce4C Ce 0.223124(8) 0.800491(13) -0.003615(8)
N2A N 0.14137(15) 0.5576(2) 0.26408(16)
N6A N 0.86576(14) 0.5308(2) 0.24769(16)
N12C N 0.83431(14) 0.6642(2) 0.54939(15)
N16A N 0.23161(14) 0.8200(2) 0.26008(14)
N18C N 0.74200(15) 0.8111(2) 0.58678(15)
N20B N 0.72141(15) 0.5272(2) 0.53079(15)
N24A N 0.77400(15) 0.7277(2) 0.24740(14)
N27A N 0.71869(14) 0.4604(2) 0.10733(14)
N33 N 0.4314(2) 0.8709(3) 0.5098(3)
N34 N 0.5038(2) 0.8585(3) 0.4685(3)
H53 H 0.5225 0.8466 0.4418
C49 C 0.4441(3) 0.8464(4) 0.4605(3)
H54 H 0.4156 0.8238 0.4248
C50 C 0.4849(3) 0.8989(4) 0.5498(3)
H55 H 0.4897 0.9201 0.5895
C51 C 0.5300(3) 0.8921(4) 0.5246(3)
H56 H 0.5713 0.9075 0.5425
N35 N 0.49049(19) 0.3322(3) 0.3223(2)
N36 N 0.51168(19) 0.3323(3) 0.2368(2)
H57 H 0.5138 0.3129 0.2018
C52 C 0.4870(2) 0.2846(3) 0.2732(2)
H58 H 0.4690 0.2234 0.2643
C53 C 0.5189(2) 0.4157(4) 0.3163(2)
H59 H 0.5275 0.4661 0.3447
C54 C 0.5328(2) 0.4162(4) 0.2644(2)
H60 H 0.5531 0.4651 0.2501
N37 N 0.5219(2) 0.2981(3) 0.1173(2)
N38 N 0.5784(2) 0.3163(4) 0.0584(2)
H61 H 0.6004 0.3443 0.0386
C55 C 0.5513(2) 0.3597(4) 0.0943(2)
H62 H 0.5530 0.4263 0.1020
C56 C 0.5312(3) 0.2120(4) 0.0947(3)
H63 H 0.5154 0.1533 0.1035
C57 C 0.5661(2) 0.2216(4) 0.0580(3)
H64 H 0.5791 0.1727 0.0367
N39 N 0.88390(19) 0.3558(3) 0.47820(18)
N40 N 0.84173(19) 0.4400(3) 0.39707(18)
H65 H 0.8140 0.4626 0.3655
C58 C 0.8331(2) 0.3760(3) 0.4356(2)
H66 H 0.7952 0.3480 0.4328
C59 C 0.9267(2) 0.4119(3) 0.4653(2)
H67 H 0.9681 0.4137 0.4880
C60 C 0.90148(19) 0.4643(3) 0.41569(19)
H68 H 0.9212 0.5088 0.3975
loop_
_geom_bond_atom_site_label_1
_geom_bond_atom_site_label_2
_geom_bond_site_symmetry_1
_geom_bond_site_symmetry_2
Ce1 N1 1_555 1_555
Ce2 N4 1_555 1_555
Ce3 N8 1_555 1_555
Ce4 N10 1_555 1_555
N1 C1 1_555 1_555
N2 C1 1_555 1_555
N3 Ce1 1_555 1_555
N4 C4 1_555 1_555
N5 Ce1 1_555 1_555
N6 C7 1_555 1_555
N7 Ce1 1_555 1_555
N8 C10 1_555 1_555
N9 Ce1 1_555 1_555
N10 C13 1_555 1_555
N11 Ce1 1_555 1_555
N12 C16 1_555 1_555
N13 Ce1 1_555 1_555
N14 C19 1_555 1_555
N15 Ce2 1_555 1_555
N16 C22 1_555 1_555
N17 Ce2 1_555 1_555
N18 C25 1_555 1_555
N19 Ce2 1_555 1_555
N20 C28 1_555 1_555
N21 Ce2 1_555 1_555
N22 C31 1_555 1_555
N23 Ce3 1_555 1_555
N24 C34 1_555 1_555
N25 Ce3 1_555 1_555
N26 Ce4 1_555 1_555
N27 C40 1_555 1_555
N28 Ce4 1_555 1_555
N29 Ce3 1_555 1_555
N30 C43 1_555 1_555
N31 Ce4 1_555 1_555
N32 C46 1_555 1_555
C1 H1 1_555 1_555
C2 N1 1_555 1_555
C3 N2 1_555 1_555
C4 N3 1_555 1_555
C5 N3 1_555 1_555
C6 N4 1_555 1_555
C7 N5 1_555 1_555
C8 N5 1_555 1_555
C9 N6 1_555 1_555
C10 N7 1_555 1_555
C11 N7 1_555 1_555
C12 N8 1_555 1_555
C13 N9 1_555 1_555
C14 N9 1_555 1_555
C15 N10 1_555 1_555
C16 N11 1_555 1_555
C17 N11 1_555 1_555
C18 N12 1_555 1_555
C19 N13 1_555 1_555
C20 N13 1_555 1_555
C21 N14 1_555 1_555
C22 N15 1_555 1_555
C23 N15 1_555 1_555
C24 N16 1_555 1_555
C25 N17 1_555 1_555
C26 N17 1_555 1_555
C27 N18 1_555 1_555
C28 N19 1_555 1_555
C29 N19 1_555 1_555
C30 N20 1_555 1_555
C31 N21 1_555 1_555
C32 N21 1_555 1_555
C33 N22 1_555 1_555
C34 N23 1_555 1_555
C35 N23 1_555 1_555
C36 N24 1_555 1_555
C37 N25 1_555 1_555
C38 N25 1_555 1_555
C39 N26 1_555 1_555
C40 N28 1_555 1_555
C41 N27 1_555 1_555
C42 N28 1_555 1_555
C43 N29 1_555 1_555
C44 N29 1_555 1_555
C45 N30 1_555 1_555
C46 N31 1_555 1_555
C47 N31 1_555 1_555
C48 N32 1_555 1_555
H2 C2 1_555 1_555
H3 C3 1_555 1_555
H4 C4 1_555 1_555
H5 C5 1_555 1_555
H6 C6 1_555 1_555
H7 C7 1_555 1_555
H8 C8 1_555 1_555
H9 C9 1_555 1_555
H10 C10 1_555 1_555
H11 C11 1_555 1_555
H12 C12 1_555 1_555
H13 C13 1_555 1_555
H14 N14 1_555 1_555
H15 C15 1_555 1_555
H16 C16 1_555 1_555
H17 C17 1_555 1_555
H18 C18 1_555 1_555
H19 C19 1_555 1_555
H20 C20 1_555 1_555
H21 C21 1_555 1_555
H22 N22 1_555 1_555
H23 C23 1_555 1_555
H24 C24 1_555 1_555
H25 C25 1_555 1_555
H26 C26 1_555 1_555
H27 C27 1_555 1_555
H28 C28 1_555 1_555
H29 C29 1_555 1_555
H30 N30 1_555 1_555
H31 C31 1_555 1_555
H32 N32 1_555 1_555
H33 C33 1_555 1_555
H34 C35 1_555 1_555
H35 C37 1_555 1_555
H36 C39 1_555 1_555
H37 C41 1_555 1_555
H38 C42 1_555 1_555
H39 C43 1_555 1_555
H40 C44 1_555 1_555
H41 C45 1_555 1_555
H42 C46 1_555 1_555
H43 C47 1_555 1_555
H44 C48 1_555 1_555
H45 C14 1_555 1_555
H46 C22 1_555 1_555
H47 C30 1_555 1_555
H48 C32 1_555 1_555
H49 C34 1_555 1_555
H50 C36 1_555 1_555
H51 C38 1_555 1_555
H52 C40 1_555 1_555
N33 C49 1_555 1_555
N34 H53 1_555 1_555
C49 N34 1_555 1_555
H54 C49 1_555 1_555
C50 N33 1_555 1_555
H55 C50 1_555 1_555
C51 N34 1_555 1_555
H56 C51 1_555 1_555
N35 C52 1_555 1_555
N36 H57 1_555 1_555
C52 N36 1_555 1_555
H58 C52 1_555 1_555
C53 N35 1_555 1_555
H59 C53 1_555 1_555
C54 N36 1_555 1_555
H60 C54 1_555 1_555
N37 C55 1_555 1_555
N38 H61 1_555 1_555
C55 N38 1_555 1_555
H62 C55 1_555 1_555
C56 N37 1_555 1_555
H63 C56 1_555 1_555
C57 N38 1_555 1_555
H64 C57 1_555 1_555
N39 C58 1_555 1_555
N40 H65 1_555 1_555
C58 N40 1_555 1_555
H66 C58 1_555 1_555
C59 N39 1_555 1_555
H67 C59 1_555 1_555
C60 N40 1_555 1_555
H68 C60 1_555 1_555
Ce2A N16 1_555 1_555
Ce2A_2 N2 1_555 1_555
Ce3A N24 1_555 1_555
Ce3A_2 N6 1_555 1_555
Ce4B N20 1_555 1_555
Ce4C N12 1_555 1_555
N2A Ce2 1_555 1_555
N6A Ce3 1_555 1_555
N12C Ce4 1_555 1_555
N16A Ce2 1_555 1_555
N18C Ce4 1_555 1_555
N20B Ce4 1_555 1_555
N24A Ce3 1_555 1_555
N27A Ce3 1_555 1_555
N18 Ce4C 1_555 1_555
N26 C37 1_555 1_555
N27 Ce3A_2 1_555 1_555
C2 C3 1_555 1_555
C5 C6 1_555 1_555
C8 C9 1_555 1_555
C11 C12 1_555 1_555
C14 C15 1_555 1_555
C17 C18 1_555 1_555
C20 C21 1_555 1_555
C23 C24 1_555 1_555
C26 C27 1_555 1_555
C29 C30 1_555 1_555
C32 C33 1_555 1_555
C35 C36 1_555 1_555
C38 C39 1_555 1_555
C41 C42 1_555 1_555
C44 C45 1_555 1_555
C47 C48 1_555 1_555
C50 C51 1_555 1_555
C53 C54 1_555 1_555
C56 C57 1_555 1_555
C59 C60 1_555 1_555

#END
