
#######################################################################
#
#                 Cambridge Crystallographic Data Centre
#                                CCDC 
#
#######################################################################
#
# If this CIF has been generated from an entry in the Cambridge 
# Structural Database, then it will include bibliographic, chemical, 
# crystal, experimental, refinement or atomic coordinate data resulting 
# from the CCDC's data processing and validation procedures.
#
#######################################################################

data_GUXZUV
_chemical_formula_moiety         '(C28 H30 N2 O23 P6 U2 2-)n'
_symmetry_cell_setting           triclinic
_symmetry_space_group_name_H-M   'P -1'
_symmetry_Int_Tables_number      2
_space_group_name_Hall           '-P 1'
loop_
_symmetry_equiv_pos_site_id
_symmetry_equiv_pos_as_xyz
1 x,y,z
2 -x,-y,-z
_cell_length_a                   8.8105(6)
_cell_length_b                   12.0084(8)
_cell_length_c                   12.3493(8)
_cell_angle_alpha                63.5180(10)
_cell_angle_beta                 89.2330(10)
_cell_angle_gamma                89.5900(10)
_cell_volume                     1169.36
loop_
_atom_site_label
_atom_site_type_symbol
_atom_site_fract_x
_atom_site_fract_y
_atom_site_fract_z
U1 U 0.97951(3) 0.55022(3) 0.72784(2)
O1 O 1.1362(6) 0.6543(5) 0.6811(5)
O2 O 0.8207(6) 0.4502(5) 0.7726(5)
P1 P 0.8240(2) 0.86529(19) 0.57694(18)
O3 O 0.8045(6) 0.7284(5) 0.6545(5)
O4 O 0.9096(6) 0.8997(5) 0.4597(5)
O5 O 0.9031(6) 0.9226(5) 0.6531(5)
H1 H 0.9604 0.9785 0.6093
C1 C 0.6406(9) 0.9394(7) 0.5366(7)
C2 C 0.6324(10) 1.0692(8) 0.4758(7)
H2 H 0.7207 1.1163 0.4594
C3 C 0.5051(10) 0.8727(8) 0.5596(8)
H3 H 0.5084 0.7863 0.6002
P2 P 0.8264(2) 0.62712(17) 0.41964(16)
O6 O 0.9231(6) 0.5984(5) 0.5279(4)
O7 O 0.7962(6) 0.7723(5) 0.3551(5)
H4 H 0.8356 0.8045 0.3940
O8 O 0.8884(6) 0.5922(5) 0.3253(4)
C4 C 0.6424(8) 0.5582(7) 0.4637(7)
C5 C 0.5713(8) 0.5076(7) 0.3956(7)
H5 H 0.6188 0.5110 0.3265
C6 C 0.5709(9) 0.5481(7) 0.5691(7)
H6 H 0.6188 0.5791 0.6166
P3 P 0.8263(2) 0.6270(2) 0.97023(18)
O9 O 0.9282(7) 0.5943(6) 0.8910(5)
O10 O 0.8849(6) 0.5983(5) 1.0945(5)
O11 O 0.7967(7) 0.7712(6) 0.9004(5)
H7 H 0.8344 0.7984 0.8324
C7 C 0.6426(9) 0.5561(8) 0.9884(8)
C8 C 0.5479(10) 0.5876(9) 0.8871(8)
H8 H 0.5803 0.6463 0.8111
C9 C 0.5908(9) 0.4676(9) 1.0998(7)
H9 H 0.6518 0.4452 1.1672
U1A U 0.02049(3) 1.44978(3) 0.27216(2)
U1A_2 U 1.02049(3) 0.44978(3) 0.27216(2)
U1A_3 U 1.02049(3) 0.44978(3) 1.27216(2)
U1A_4 U 0.02049(3) 0.44978(3) 0.27216(2)
U1_2 U -0.02049(3) 0.55022(3) 0.72784(2)
U1A_5 U 0.02049(3) 0.44978(3) 1.27216(2)
O1A O -0.1362(6) 1.3457(5) 0.3189(5)
O2A O 0.1793(6) 1.5498(5) 0.2274(5)
P1A P 0.1760(2) 1.13471(19) 0.42306(18)
O3A O 0.1955(6) 1.2716(5) 0.3455(5)
O4A O 0.0904(6) 1.1003(5) 0.5403(5)
O5A O 0.0969(6) 1.0774(5) 0.3469(5)
H1A H 0.0396 1.0215 0.3907
C1A C 0.3594(9) 1.0606(7) 0.4634(7)
C2A C 0.3676(10) 0.9308(8) 0.5242(7)
H2A H 0.2793 0.8837 0.5406
C3A C 0.4949(10) 1.1273(8) 0.4404(8)
H3A H 0.4916 1.2137 0.3998
P2A P 0.1736(2) 0.37288(17) 0.58036(16)
O6A O 0.0769(6) 0.4016(5) 0.4721(4)
O6A_2 O 0.0769(6) 1.4016(5) 0.4721(4)
O7A O 0.2038(6) 0.2277(5) 0.6449(5)
H4A H 0.1644 0.1955 0.6060
O8A O 0.1116(6) 0.4078(5) 0.6747(4)
O8A_2 O 1.1116(6) 0.4078(5) 0.6747(4)
O8_2 O -0.1116(6) 1.5922(5) 0.3253(4)
C4A C 0.3576(8) 0.4418(7) 0.5363(7)
C5A C 0.4287(8) 0.4924(7) 0.6044(7)
H5A H 0.3812 0.4890 0.6735
C6A C 0.4291(9) 0.4519(7) 0.4309(7)
H6A H 0.3812 0.4209 0.3834
P3A P 0.1737(2) 0.3730(2) 1.02977(18)
O9A O 0.0718(7) 0.4057(6) 1.1090(5)
O9A_2 O 0.0718(7) 1.4057(6) 0.1090(5)
O10A O 0.1151(6) 0.4017(5) 0.9055(5)
O10A_2 O 1.1151(6) 0.4017(5) 0.9055(5)
O10_2 O -0.1151(6) 1.5983(5) 0.0945(5)
O11A O 0.2033(7) 0.2288(6) 1.0996(5)
H7A H 0.1656 0.2016 1.1676
C7A C 0.3574(9) 0.4439(8) 1.0116(8)
C8A C 0.4521(10) 0.4124(9) 1.1129(8)
H8A H 0.4197 0.3537 1.1889
C9A C 0.4092(9) 0.5324(9) 0.9002(7)
H9A H 0.3482 0.5548 0.8328
N1 N 0.5212(7) 0.1521(6) 1.0160(6)
H10 H 0.4440 0.1503 0.9749
C10 C 0.6246(10) 0.2430(8) 0.9696(8)
H11 H 0.6112 0.3056 0.8915
C11 C 0.7524(11) 0.2477(9) 1.0339(9)
H12 H 0.8229 0.3115 0.9985
C12 C 0.7718(12) 0.1566(9) 1.1500(9)
H13 H 0.8544 0.1580 1.1955
C13 C 0.6651(10) 0.0628(8) 1.1973(8)
H14 H 0.6757 -0.0013 1.2750
C14 C 0.5427(9) 0.0652(7) 1.1280(7)
C15 C 0.4240(9) -0.0304(7) 1.1763(7)
C16 C 0.4310(9) -0.1396(7) 1.2834(7)
H15 H 0.5189 -0.1598 1.3292
C17 C 0.3065(11) -0.2187(8) 1.3220(8)
H16 H 0.3094 -0.2899 1.3956
C18 C 0.1797(10) -0.1923(8) 1.2521(8)
H17 H 0.0973 -0.2463 1.2768
C19 C 0.1754(9) -0.0862(8) 1.1461(8)
H18 H 0.0901 -0.0679 1.0975
N2 N 0.2943(7) -0.0076(6) 1.1113(6)
H19 H 0.2879 0.0600 1.0451
O12 O 0.8382(7) 0.8432(5) 0.0997(5)
loop_
_geom_bond_atom_site_label_1
_geom_bond_atom_site_label_2
_geom_bond_site_symmetry_1
_geom_bond_site_symmetry_2
U1 O1 1_555 1_555
O2 U1 1_555 1_555
P1 O3 1_555 1_555
O3 U1 1_555 1_555
O4 P1 1_555 1_555
O5 P1 1_555 1_555
H1 O5 1_555 1_555
C1 P1 1_555 1_555
C2 C1 1_555 1_555
H2 C2 1_555 1_555
C3 C1 1_555 1_555
H3 C3 1_555 1_555
P2 O6 1_555 1_555
O6 U1 1_555 1_555
O7 P2 1_555 1_555
H4 O7 1_555 1_555
O8 P2 1_555 1_555
C4 P2 1_555 1_555
C5 C4 1_555 1_555
H5 C5 1_555 1_555
C6 C4 1_555 1_555
H6 C6 1_555 1_555
P3 O9 1_555 1_555
O9 U1 1_555 1_555
O10 P3 1_555 1_555
O11 P3 1_555 1_555
H7 O11 1_555 1_555
C7 P3 1_555 1_555
C8 C7 1_555 1_555
H8 C8 1_555 1_555
C9 C7 1_555 1_555
H9 C9 1_555 1_555
N1 H10 1_555 1_555
C10 N1 1_555 1_555
H11 C10 1_555 1_555
C11 C10 1_555 1_555
H12 C11 1_555 1_555
C12 C11 1_555 1_555
H13 C12 1_555 1_555
C13 C12 1_555 1_555
H14 C13 1_555 1_555
C14 N1 1_555 1_555
C15 C14 1_555 1_555
C16 C15 1_555 1_555
H15 C16 1_555 1_555
C17 C16 1_555 1_555
H16 C17 1_555 1_555
C18 C17 1_555 1_555
H17 C18 1_555 1_555
C19 C18 1_555 1_555
H18 C19 1_555 1_555
N2 C15 1_555 1_555
H19 N2 1_555 1_555
U1A O1A 1_555 1_555
U1A_2 O8 1_555 1_555
U1A_3 O10 1_555 1_555
U1A_4 O6A 1_555 1_555
U1_2 O8A 1_555 1_555
U1A_5 O9A 1_555 1_555
O2A U1A 1_555 1_555
P1A O3A 1_555 1_555
O3A U1A 1_555 1_555
O4A P1A 1_555 1_555
O5A P1A 1_555 1_555
H1A O5A 1_555 1_555
C1A P1A 1_555 1_555
C2A C3 1_555 1_555
H2A C2A 1_555 1_555
C3A C2 1_555 1_555
H3A C3A 1_555 1_555
P2A O6A 1_555 1_555
O6A_2 U1A 1_555 1_555
O7A P2A 1_555 1_555
H4A O7A 1_555 1_555
O8A P2A 1_555 1_555
O8A_2 U1 1_555 1_555
O8_2 U1A 1_555 1_555
C4A P2A 1_555 1_555
C5A C6 1_555 1_555
H5A C5A 1_555 1_555
C6A C5 1_555 1_555
H6A C6A 1_555 1_555
P3A O9A 1_555 1_555
O9A_2 U1A 1_555 1_555
O10A U1_2 1_555 1_555
O10A_2 U1 1_555 1_555
O10_2 U1A 1_555 1_555
O11A P3A 1_555 1_555
H7A O11A 1_555 1_555
C7A P3A 1_555 1_555
C8A C9 1_555 1_555
H8A C8A 1_555 1_555
C9A C8 1_555 1_555
H9A C9A 1_555 1_555
C13 C14 1_555 1_555
C19 N2 1_555 1_555
C1A C2A 1_555 1_555
C1A C3A 1_555 1_555
C4A C5A 1_555 1_555
C4A C6A 1_555 1_555
P3A O10A 1_555 1_555
C7A C8A 1_555 1_555
C7A C9A 1_555 1_555

#END
