
#######################################################################
#
#                 Cambridge Crystallographic Data Centre
#                                CCDC 
#
#######################################################################
#
# If this CIF has been generated from an entry in the Cambridge 
# Structural Database, then it will include bibliographic, chemical, 
# crystal, experimental, refinement or atomic coordinate data resulting 
# from the CCDC's data processing and validation procedures.
#
#######################################################################

data_OTOVIE
_chemical_formula_moiety         '(C35 H27 Co2 F4 N5 O9)n'
_symmetry_cell_setting           monoclinic
_symmetry_space_group_name_H-M   'P 21/c'
_symmetry_Int_Tables_number      14
_space_group_name_Hall           '-P 2ybc'
loop_
_symmetry_equiv_pos_site_id
_symmetry_equiv_pos_as_xyz
1 x,y,z
2 -x,1/2+y,1/2-z
3 -x,-y,-z
4 x,1/2-y,1/2+z
_cell_length_a                   9.7353(5)
_cell_length_b                   17.7435(7)
_cell_length_c                   11.7645(6)
_cell_angle_alpha                90
_cell_angle_beta                 104.070(5)
_cell_angle_gamma                90
_cell_volume                     1971.21
loop_
_atom_site_label
_atom_site_type_symbol
_atom_site_fract_x
_atom_site_fract_y
_atom_site_fract_z
C1 C 0.163(2) 0.1263(6) 0.4652(10)
H1 H 0.2269 0.1641 0.4963
H2 H 0.0659 0.1348 0.4538
C2 C 0.3415(17) 0.0464(12) 0.4516(12)
H3 H 0.3849 0.0048 0.4272
C3 C 0.1220(14) 0.0061(6) 0.3810(7)
H4 H 0.0546 0.0274 0.3154
H5 H 0.0727 -0.0166 0.4337
H6 H 0.1774 -0.0314 0.3538
N1 N 0.2081(6) 0.0611(3) 0.4375(3)
O1 O 0.4041(14) 0.1119(7) 0.5154(12)
C4 C -0.0284(2) 0.16190(13) 0.0965(2)
H7 H -0.1239 0.1532 0.0634
C5 C 0.2004(2) 0.12162(13) 0.1379(2)
H8 H 0.2677 0.0856 0.1323
C6 C 0.2445(3) 0.18775(14) 0.1973(3)
C7 C 0.1512(2) 0.24511(13) 0.2064(2)
C8 C 0.0108(3) 0.22991(13) 0.1516(2)
C9 C 0.2059(2) 0.31430(13) 0.2688(2)
H9 H 0.3034 0.3210 0.2838
C10 C 0.2107(2) 0.43612(11) 0.36862(18)
C11 C 0.1354(2) 0.36855(13) 0.3065(2)
H10 H 0.0376 0.3648 0.2944
Co1 Co 0.0000 0.0000 0.0000
F1 F 0.3775(3) 0.19383(17) 0.2553(3)
N2 N 0.06453(19) 0.10770(10) 0.08829(17)
O2 O 0.34309(15) 0.43591(8) 0.39054(14)
O3 O 0.13607(16) 0.48890(8) 0.39211(14)
C12 C 0.3108(3) -0.33900(14) 0.2267(2)
C13 C 0.4551(3) -0.33080(12) 0.4492(2)
H11 H 0.5051 -0.3273 0.5272
C14 C 0.3589(3) -0.40295(13) 0.2896(2)
H12 H 0.3407 -0.4498 0.2535
C15 C 0.3480(3) -0.13485(13) 0.2151(2)
H13 H 0.4349 -0.1303 0.2692
C16 C 0.4097(3) -0.26521(13) 0.3894(2)
H14 H 0.4295 -0.2190 0.4272
C17 C 0.3347(2) -0.26755(13) 0.2733(2)
C18 C 0.2885(2) -0.06800(11) 0.14220(18)
C19 C 0.2813(3) -0.19991(13) 0.2053(2)
H15 H 0.1942 -0.2032 0.1513
Co2 Co 0.5000 -0.5000 0.5000
F2 F 0.2390(2) -0.34685(10) 0.11354(16)
N3 N 0.4312(2) -0.39928(10) 0.40102(17)
O4 O 0.15583(15) -0.06206(8) 0.11514(14)
O5 O 0.37476(16) -0.02268(9) 0.11705(14)
C4B C 0.0284(2) -0.16190(13) -0.0965(2)
H7B H 0.1239 -0.1532 -0.0634
C5B C -0.2004(2) -0.12162(13) -0.1379(2)
H8B H -0.2677 -0.0856 -0.1323
C6B C -0.2445(3) -0.18775(14) -0.1973(3)
C7B C -0.1512(2) -0.24511(13) -0.2064(2)
C8B C -0.0108(3) -0.22991(13) -0.1516(2)
C9B C -0.2059(2) -0.31430(13) -0.2688(2)
H9B H -0.3034 -0.3210 -0.2838
C10B C -0.2107(2) -0.43612(11) -0.36862(18)
C11B C -0.1354(2) -0.36855(13) -0.3065(2)
H10B H -0.0376 -0.3648 -0.2944
F1B F -0.3775(3) -0.19383(17) -0.2553(3)
N2B N -0.06453(19) -0.10770(10) -0.08829(17)
O2B O -0.34309(15) -0.43591(8) -0.39054(14)
O3B O -0.13607(16) -0.48890(8) -0.39211(14)
C12B C -0.3108(3) 0.33900(14) -0.2267(2)
C13B C -0.4551(3) 0.33080(12) -0.4492(2)
H11B H -0.5051 0.3273 -0.5272
C14B C -0.3589(3) 0.40295(13) -0.2896(2)
H12B H -0.3407 0.4498 -0.2535
C15B C -0.3480(3) 0.13485(13) -0.2151(2)
H13B H -0.4349 0.1303 -0.2692
C16B C -0.4097(3) 0.26521(13) -0.3894(2)
H14B H -0.4295 0.2190 -0.4272
C17B C -0.3347(2) 0.26755(13) -0.2733(2)
C18B C -0.2885(2) 0.06800(11) -0.14220(18)
C19B C -0.2813(3) 0.19991(13) -0.2053(2)
H15B H -0.1942 0.2032 -0.1513
F2B F -0.2390(2) 0.34685(10) -0.11354(16)
N3B N -0.4312(2) 0.39928(10) -0.40102(17)
O4B O -0.15583(15) 0.06206(8) -0.11514(14)
O5B O -0.37476(16) 0.02268(9) -0.11705(14)
Co1A Co 0.0000 -0.5000 -0.5000
Co1A_2 Co -0.0000 0.5000 0.5000
O2_2 O 0.34309(15) -0.56409(8) 0.39054(14)
O2B_2 O 0.65691(15) -0.43591(8) 0.60946(14)
O3A O -0.13607(16) -0.01110(8) 0.10789(14)
O3C O 0.13607(16) 0.01110(8) -0.10789(14)
Co2_2 Co -0.5000 -0.5000 -0.5000
Co2_3 Co -0.5000 0.5000 -0.5000
Co2_4 Co 0.5000 0.5000 0.5000
Co2A Co -0.5000 0.0000 0.0000
Co2A_2 Co 0.5000 0.0000 0.0000
N3B_2 N 0.5688(2) -0.60072(10) 0.59898(17)
O5A O 0.62524(16) -0.52268(9) 0.38295(14)
O5C O 0.37476(16) -0.47732(9) 0.61705(14)
loop_
_geom_bond_atom_site_label_1
_geom_bond_atom_site_label_2
_geom_bond_site_symmetry_1
_geom_bond_site_symmetry_2
C1 H1 1_555 1_555
H2 C1 1_555 1_555
C2 H3 1_555 1_555
C3 H4 1_555 1_555
H5 C3 1_555 1_555
H6 C3 1_555 1_555
N1 C1 1_555 1_555
O1 C2 1_555 1_555
C4 H7 1_555 1_555
C5 H8 1_555 1_555
C6 C5 1_555 1_555
C7 C6 1_555 1_555
C8 C4 1_555 1_555
C9 C7 1_555 1_555
H9 C9 1_555 1_555
C10 C11 1_555 1_555
C11 C9 1_555 1_555
H10 C11 1_555 1_555
Co1 N2 1_555 1_555
F1 C6 1_555 1_555
N2 C4 1_555 1_555
O2 C10 1_555 1_555
O3 C10 1_555 1_555
C12 C14 1_555 1_555
C13 H11 1_555 1_555
C14 H12 1_555 1_555
C15 H13 1_555 1_555
C16 C13 1_555 1_555
H14 C16 1_555 1_555
C17 C12 1_555 1_555
C18 C15 1_555 1_555
C19 C15 1_555 1_555
H15 C19 1_555 1_555
Co2 N3 1_555 1_555
F2 C12 1_555 1_555
N3 C13 1_555 1_555
O4 Co1 1_555 1_555
O5 C18 1_555 1_555
C4B H7B 1_555 1_555
C5B H8B 1_555 1_555
C6B C5B 1_555 1_555
C7B C6B 1_555 1_555
C8B C4B 1_555 1_555
C9B C7B 1_555 1_555
H9B C9B 1_555 1_555
C10B C11B 1_555 1_555
C11B C9B 1_555 1_555
H10B C11B 1_555 1_555
F1B C6B 1_555 1_555
N2B Co1 1_555 1_555
O2B C10B 1_555 1_555
O3B C10B 1_555 1_555
C12B C14B 1_555 1_555
C13B H11B 1_555 1_555
C14B H12B 1_555 1_555
C15B H13B 1_555 1_555
C16B C13B 1_555 1_555
H14B C16B 1_555 1_555
C17B C12B 1_555 1_555
C18B C15B 1_555 1_555
C19B C15B 1_555 1_555
H15B C19B 1_555 1_555
F2B C12B 1_555 1_555
N3B C13B 1_555 1_555
O4B Co1 1_555 1_555
O5B C18B 1_555 1_555
Co1A O3B 1_555 1_555
Co1A_2 O3 1_555 1_555
O2_2 Co2 1_555 1_555
O2B_2 Co2 1_555 1_555
O3A Co1 1_555 1_555
O3C Co1 1_555 1_555
Co2_2 O2B 1_555 1_555
Co2_3 N3B 1_555 1_555
Co2_4 O2 1_555 1_555
Co2A O5B 1_555 1_555
Co2A_2 O5 1_555 1_555
N3B_2 Co2 1_555 1_555
O5A Co2 1_555 1_555
O5C Co2 1_555 1_555
C2 N1 1_555 1_555
C3 N1 1_555 1_555
C5 N2 1_555 1_555
C7 C8 1_555 1_555
C14 N3 1_555 1_555
C16 C17 1_555 1_555
C17 C19 1_555 1_555
C18 O4 1_555 1_555
C4B N2B 1_555 1_555
C5B N2B 1_555 1_555
C7B C8B 1_555 1_555
C14B N3B 1_555 1_555
C16B C17B 1_555 1_555
C17B C19B 1_555 1_555
C18B O4B 1_555 1_555

#END
