
#######################################################################
#
#                 Cambridge Crystallographic Data Centre
#                                CCDC 
#
#######################################################################
#
# If this CIF has been generated from an entry in the Cambridge 
# Structural Database, then it will include bibliographic, chemical, 
# crystal, experimental, refinement or atomic coordinate data resulting 
# from the CCDC's data processing and validation procedures.
#
#######################################################################

data_ERALUG
_chemical_formula_moiety         '(C32 H20 F12 O16 Zr3)n'
_symmetry_cell_setting           tetragonal
_symmetry_space_group_name_H-M   'P 42/n c m'
_symmetry_Int_Tables_number      138
_space_group_name_Hall           '-P 4ac 2ac'
loop_
_symmetry_equiv_pos_site_id
_symmetry_equiv_pos_as_xyz
1 x,y,z
2 1/2-y,x,1/2+z
3 1/2-x,1/2-y,z
4 y,1/2-x,1/2+z
5 1/2+x,-y,1/2-z
6 -x,1/2+y,1/2-z
7 1/2+y,1/2+x,-z
8 -y,-x,-z
9 -x,-y,-z
10 1/2+y,-x,1/2-z
11 1/2+x,1/2+y,-z
12 -y,1/2+x,1/2-z
13 1/2-x,y,1/2+z
14 x,1/2-y,1/2+z
15 1/2-y,1/2-x,z
16 y,x,z
_cell_length_a                   34.882(6)
_cell_length_b                   34.882
_cell_length_c                   12.086(2)
_cell_angle_alpha                90
_cell_angle_beta                 90
_cell_angle_gamma                90
_cell_volume                     14705.7
loop_
_atom_site_label
_atom_site_type_symbol
_atom_site_fract_x
_atom_site_fract_y
_atom_site_fract_z
_atom_site_U_iso_or_equiv
_atom_site_thermal_displace_type
Zr1 Zr 0.45499(2) 0.45499(2) 0.40580(10) 0.0216 Uani
Zr2 Zr 0.45021(2) 0.54979(2) 0.5000 0.0185 Uani
Zr3 Zr 0.47683(2) 0.47683(2) 0.68375(10) 0.0222 Uani
O1 O 0.39455(16) 0.53941(16) 0.4294(5) 0.0273 Uani
O2 O 0.39537(18) 0.4788(2) 0.3681(7) 0.0520 Uani
O3 O 0.07391(19) 0.50773(19) 0.2599(6) 0.0407 Uani
O4 O 0.09060(16) 0.55443(17) 0.1379(5) 0.0287 Uani
O5 O 0.4407(3) 0.4897(2) 0.5429(6) 0.0760 Uani
O6 O 0.48595(18) 0.5352(2) 0.6405(7) 0.0573 Uani
O7 O 0.4330(2) 0.4330(2) 0.7197(8) 0.0510 Uani
O8 O 0.4920(2) 0.4920(2) 0.8532(7) 0.0393 Uani
O9 O 0.41337(18) 0.41337(18) 0.4682(9) 0.0570 Uani
O10 O 0.44314(18) 0.44314(18) 0.2326(8) 0.0387 Uani
C1 C 0.37852(11) 0.5101(3) 0.3902(6) 0.0393 Uani
C2 C 0.33588(11) 0.51221(17) 0.3705(4) 0.0460 Uani
C3 C 0.31775(14) 0.54699(14) 0.3908(4) 0.0460 Uani
H1 H 0.3322 0.5683 0.4161 0.0550 Uiso
C4 C 0.25734(10) 0.51930(14) 0.3370(3) 0.0460 Uani
C5 C 0.31474(14) 0.48098(14) 0.3334(4) 0.0460 Uani
H2 H 0.3271 0.4572 0.3195 0.0550 Uiso
C6 C 0.27848(14) 0.55054(12) 0.3740(4) 0.0460 Uani
H3 H 0.2661 0.5743 0.3879 0.0550 Uiso
C7 C 0.27547(14) 0.48451(12) 0.3166(4) 0.0460 Uani
C8 C 0.2569(4) 0.4476(3) 0.2760(7) 0.0460 Uani
F1 F 0.2324(4) 0.4495(6) 0.1897(11) 0.1403 Uani
F2 F 0.2795(4) 0.4176(5) 0.2500(13) 0.1403 Uani
F3 F 0.2342(4) 0.4328(6) 0.3579(13) 0.1403 Uani
C9 C 0.09713(13) 0.53319(14) 0.2183(7) 0.0333 Uani
C10 C 0.13833(12) 0.52872(12) 0.2538(5) 0.0550 Uani
C11 C 0.16734(16) 0.54226(14) 0.1854(4) 0.0550 Uani
H4 H 0.1611 0.5542 0.1170 0.0660 Uiso
C12 C 0.20547(13) 0.53838(15) 0.2168(4) 0.0550 Uani
H5 H 0.2253 0.5476 0.1699 0.0660 Uiso
C13 C 0.21462(12) 0.52095(11) 0.3168(4) 0.0550 Uani
C14 C 0.18561(15) 0.50741(13) 0.3853(3) 0.0550 Uani
C15 C 0.14748(13) 0.51130(14) 0.3538(4) 0.0550 Uani
H6 H 0.1277 0.5020 0.4007 0.0660 Uiso
C16 C 0.1957(2) 0.4901(2) 0.4847(8) 0.0550 Uani
F4 F 0.1670(2) 0.4815(3) 0.5525(7) 0.1403 Uani
F5 F 0.2100(2) 0.4528(2) 0.4653(8) 0.1403 Uani
F6 F 0.2227(2) 0.5034(3) 0.5503(7) 0.1403 Uani
O1G O 0.46059(16) 0.60545(16) 0.5706(5) 0.0273 Uani
O2G O 0.5212(2) 0.60463(18) 0.6319(7) 0.0520 Uani
O3G O 0.49227(19) 0.92609(19) 0.7401(6) 0.0407 Uani
O4G O 0.44557(17) 0.90940(16) 0.8621(5) 0.0287 Uani
O5G O 0.5103(2) 0.5593(3) 0.4571(6) 0.0760 Uani
O6G O 0.4648(2) 0.51405(18) 0.3595(7) 0.0573 Uani
C1G C 0.4899(3) 0.62148(11) 0.6098(6) 0.0393 Uani
C2G C 0.48779(17) 0.66412(11) 0.6295(4) 0.0460 Uani
C3G C 0.45301(14) 0.68225(14) 0.6092(4) 0.0460 Uani
H1G H 0.4317 0.6678 0.5839 0.0550 Uiso
C4G C 0.48070(14) 0.74266(10) 0.6630(3) 0.0460 Uani
C5G C 0.51902(14) 0.68526(14) 0.6666(4) 0.0460 Uani
H2G H 0.5428 0.6729 0.6805 0.0550 Uiso
C6G C 0.44946(12) 0.72152(14) 0.6260(4) 0.0460 Uani
H3G H 0.4257 0.7339 0.6121 0.0550 Uiso
C7G C 0.51549(12) 0.72453(14) 0.6834(4) 0.0460 Uani
C8G C 0.5524(3) 0.7431(4) 0.7240(7) 0.0460 Uani
F1G F 0.5505(6) 0.7676(4) 0.8103(11) 0.1403 Uani
F2G F 0.5824(5) 0.7205(4) 0.7500(13) 0.1403 Uani
F3G F 0.5672(6) 0.7658(4) 0.6421(13) 0.1403 Uani
C9G C 0.46681(14) 0.90287(13) 0.7817(7) 0.0333 Uani
C10G C 0.47128(12) 0.86167(12) 0.7462(5) 0.0550 Uani
C11G C 0.45774(14) 0.83266(16) 0.8146(4) 0.0550 Uani
H4G H 0.4458 0.8389 0.8830 0.0660 Uiso
C12G C 0.46162(15) 0.79453(13) 0.7832(4) 0.0550 Uani
H5G H 0.4524 0.7747 0.8301 0.0660 Uiso
C13G C 0.47905(11) 0.78538(12) 0.6832(4) 0.0550 Uani
C14G C 0.49259(13) 0.81439(15) 0.6147(3) 0.0550 Uani
C15G C 0.48870(14) 0.85252(13) 0.6462(4) 0.0550 Uani
H6G H 0.4980 0.8723 0.5993 0.0660 Uiso
C16G C 0.5099(2) 0.8043(2) 0.5153(8) 0.0550 Uani
F4G F 0.5185(3) 0.8330(2) 0.4475(7) 0.1403 Uani
F5G F 0.5472(2) 0.7900(2) 0.5347(8) 0.1403 Uani
F6G F 0.4966(3) 0.7773(2) 0.4497(7) 0.1403 Uani
Zr1G Zr 0.54501(2) 0.54501(2) 0.59420(10) 0.0216 Uani
Zr2I Zr 0.04979(2) 0.54979(2) 0.0000 0.0185 Uani
Zr2K Zr 0.45021(2) 0.95021(2) 1.0000 0.0185 Uani
Zr3A Zr 0.02317(2) 0.47683(2) 0.18375(10) 0.0222 Uani
Zr3E Zr 0.52317(2) 0.97683(2) 0.81625(10) 0.0222 Uani
Zr3G Zr 0.52317(2) 0.52317(2) 0.31625(10) 0.0222 Uani
O2O O 0.4788(2) 0.39537(18) 0.3681(7) 0.0520 Uani
O3C O 0.50773(19) 0.42609(19) 0.7599(6) 0.0407 Uani
O3L O 0.42609(19) 0.50773(19) 0.7599(6) 0.0407 Uani
O4K O 0.44557(17) 0.59060(16) 0.3621(5) 0.0287 Uani
O4L O 0.40940(16) 0.55443(17) 0.6379(5) 0.0287 Uani
O5O O 0.4897(2) 0.4407(3) 0.5429(6) 0.0760 Uani
O6H O 0.51405(18) 0.4648(2) 0.3595(7) 0.0573 Uani
O6O O 0.5352(2) 0.48595(18) 0.6405(7) 0.0573 Uani
loop_
_atom_site_aniso_label
_atom_site_aniso_U_11
_atom_site_aniso_U_22
_atom_site_aniso_U_33
_atom_site_aniso_U_23
_atom_site_aniso_U_13
_atom_site_aniso_U_12
Zr1 0.0153(4) 0.0153(4) 0.0341(6) -0.0026(3) -0.0026(3) -0.0018(5)
Zr2 0.0111(4) 0.0111(4) 0.0332(6) 0.0014(3) 0.0014(3) -0.0015(4)
Zr3 0.0184(4) 0.0184(4) 0.0298(6) 0.0052(4) 0.0052(4) -0.0001(5)
O1 0.022(4) 0.012(4) 0.048(4) 0.005(3) -0.003(3) 0.000(2)
O2 0.010(4) 0.048(5) 0.098(6) -0.034(4) -0.009(4) 0.008(3)
O3 0.039(5) 0.036(5) 0.047(4) 0.003(3) -0.015(3) -0.005(3)
O4 0.017(4) 0.024(4) 0.045(4) 0.002(3) -0.009(3) -0.001(3)
O5 0.148(9) 0.024(5) 0.056(5) -0.004(4) -0.033(5) 0.020(5)
O6 0.011(4) 0.040(5) 0.121(7) 0.035(4) 0.010(4) 0.004(3)
O7 0.057(4) 0.057(4) 0.039(6) 0.007(3) 0.007(3) -0.013(5)
O8 0.046(4) 0.046(4) 0.026(5) 0.001(3) 0.001(3) 0.013(5)
O9 0.053(5) 0.053(5) 0.065(7) 0.003(3) 0.003(3) -0.036(5)
O10 0.036(4) 0.036(4) 0.044(5) -0.008(3) -0.008(3) -0.005(4)
C1 0.024(6) 0.040(7) 0.054(6) -0.009(5) -0.001(5) 0.013(5)
C2 0.020(2) 0.055(3) 0.063(3) -0.006(2) -0.0094(19) 0.0025(17)
C3 0.020(2) 0.055(3) 0.063(3) -0.006(2) -0.0094(19) 0.0025(17)
C4 0.020(2) 0.055(3) 0.063(3) -0.006(2) -0.0094(19) 0.0025(17)
C5 0.020(2) 0.055(3) 0.063(3) -0.006(2) -0.0094(19) 0.0025(17)
C6 0.020(2) 0.055(3) 0.063(3) -0.006(2) -0.0094(19) 0.0025(17)
C7 0.020(2) 0.055(3) 0.063(3) -0.006(2) -0.0094(19) 0.0025(17)
C8 0.020(2) 0.055(3) 0.063(3) -0.006(2) -0.0094(19) 0.0025(17)
F1 0.067(3) 0.213(6) 0.141(4) 0.058(4) -0.029(3) -0.017(3)
F2 0.067(3) 0.213(6) 0.141(4) 0.058(4) -0.029(3) -0.017(3)
F3 0.067(3) 0.213(6) 0.141(4) 0.058(4) -0.029(3) -0.017(3)
C9 0.016(6) 0.034(7) 0.050(6) 0.003(5) -0.010(4) 0.002(4)
C10 0.022(2) 0.091(4) 0.052(3) 0.021(2) -0.0116(18) -0.009(2)
C11 0.022(2) 0.091(4) 0.052(3) 0.021(2) -0.0116(18) -0.009(2)
C12 0.022(2) 0.091(4) 0.052(3) 0.021(2) -0.0116(18) -0.009(2)
C13 0.022(2) 0.091(4) 0.052(3) 0.021(2) -0.0116(18) -0.009(2)
C14 0.022(2) 0.091(4) 0.052(3) 0.021(2) -0.0116(18) -0.009(2)
C15 0.022(2) 0.091(4) 0.052(3) 0.021(2) -0.0116(18) -0.009(2)
C16 0.022(2) 0.091(4) 0.052(3) 0.021(2) -0.0116(18) -0.009(2)
F4 0.067(3) 0.213(6) 0.141(4) 0.058(4) -0.029(3) -0.017(3)
F5 0.067(3) 0.213(6) 0.141(4) 0.058(4) -0.029(3) -0.017(3)
F6 0.067(3) 0.213(6) 0.141(4) 0.058(4) -0.029(3) -0.017(3)
O1G 0.012 0.022 0.048 -0.003 0.005 0
O2G 0.048 0.01 0.098 -0.009 -0.034 0.008
O3G 0.036 0.039 0.047 -0.015 0.003 -0.005
O4G 0.024 0.017 0.045 -0.009 0.002 -0.001
O5G 0.024 0.148 0.056 -0.033 -0.004 0.02
O6G 0.04 0.011 0.121 0.01 0.035 0.004
C1G 0.04 0.024 0.054 -0.001 -0.009 0.013
C2G 0.055 0.02 0.063 -0.0094 -0.006 0.0025
C3G 0.055 0.02 0.063 -0.0094 -0.006 0.0025
C4G 0.055 0.02 0.063 -0.0094 -0.006 0.0025
C5G 0.055 0.02 0.063 -0.0094 -0.006 0.0025
C6G 0.055 0.02 0.063 -0.0094 -0.006 0.0025
C7G 0.055 0.02 0.063 -0.0094 -0.006 0.0025
C8G 0.055 0.02 0.063 -0.0094 -0.006 0.0025
F1G 0.213 0.067 0.141 -0.029 0.058 -0.017
F2G 0.213 0.067 0.141 -0.029 0.058 -0.017
F3G 0.213 0.067 0.141 -0.029 0.058 -0.017
C9G 0.034 0.016 0.05 -0.01 0.003 0.002
C10G 0.091 0.022 0.052 -0.0116 0.021 -0.009
C11G 0.091 0.022 0.052 -0.0116 0.021 -0.009
C12G 0.091 0.022 0.052 -0.0116 0.021 -0.009
C13G 0.091 0.022 0.052 -0.0116 0.021 -0.009
C14G 0.091 0.022 0.052 -0.0116 0.021 -0.009
C15G 0.091 0.022 0.052 -0.0116 0.021 -0.009
C16G 0.091 0.022 0.052 -0.0116 0.021 -0.009
F4G 0.213 0.067 0.141 -0.029 0.058 -0.017
F5G 0.213 0.067 0.141 -0.029 0.058 -0.017
F6G 0.213 0.067 0.141 -0.029 0.058 -0.017
Zr1G 0.0153 0.0153 0.0341 -0.0026 -0.0026 -0.0018
Zr2I 0.0111 0.0111 0.0332 0.0014 -0.0014 0.0015
Zr2K 0.0111 0.0111 0.0332 -0.0014 0.0014 0.0015
Zr3A 0.0184 0.0184 0.0298 0.0052 -0.0052 0.0001
Zr3E 0.0184 0.0184 0.0298 -0.0052 0.0052 0.0001
Zr3G 0.0184 0.0184 0.0298 0.0052 0.0052 -0.0001
O2O 0.048 0.01 0.098 -0.009 -0.034 0.008
O3C 0.036 0.039 0.047 0.015 0.003 0.005
O3L 0.039 0.036 0.047 0.003 0.015 0.005
O4K 0.024 0.017 0.045 0.009 0.002 0.001
O4L 0.017 0.024 0.045 0.002 0.009 0.001
O5O 0.024 0.148 0.056 -0.033 -0.004 0.02
O6H 0.011 0.04 0.121 0.035 0.01 0.004
O6O 0.04 0.011 0.121 0.01 0.035 0.004
loop_
_geom_bond_atom_site_label_1
_geom_bond_atom_site_label_2
_geom_bond_site_symmetry_1
_geom_bond_site_symmetry_2
Zr1 O2 1_555 1_555
Zr2 O1 1_555 1_555
Zr3 O5 1_555 1_555
O1 C1 1_555 1_555
O2 C1 1_555 1_555
O3 C9 1_555 1_555
O4 C9 1_555 1_555
O5 Zr1 1_555 1_555
O6 Zr2 1_555 1_555
O7 Zr3 1_555 1_555
O8 Zr3 1_555 1_555
O9 Zr1 1_555 1_555
O10 Zr1 1_555 1_555
C1 C2 1_555 1_555
C2 C3 1_555 1_555
C3 H1 1_555 1_555
C4 C6 1_555 1_555
C5 C2 1_555 1_555
H2 C5 1_555 1_555
C6 C3 1_555 1_555
H3 C6 1_555 1_555
C7 C4 1_555 1_555
C8 C7 1_555 1_555
F1 C8 1_555 1_555
F2 C8 1_555 1_555
F3 C8 1_555 1_555
C9 C10 1_555 1_555
C10 C11 1_555 1_555
C11 H4 1_555 1_555
C12 C11 1_555 1_555
H5 C12 1_555 1_555
C13 C4 1_555 1_555
C14 C13 1_555 1_555
C15 C10 1_555 1_555
H6 C15 1_555 1_555
C16 C14 1_555 1_555
F4 C16 1_555 1_555
F5 C16 1_555 1_555
F6 C16 1_555 1_555
O1G Zr2 1_555 1_555
O2G C1G 1_555 1_555
O3G C9G 1_555 1_555
O4G C9G 1_555 1_555
O5G Zr2 1_555 1_555
O6G Zr1 1_555 1_555
C1G O1G 1_555 1_555
C2G C1G 1_555 1_555
C3G C2G 1_555 1_555
H1G C3G 1_555 1_555
C4G C6G 1_555 1_555
C5G C2G 1_555 1_555
H2G C5G 1_555 1_555
C6G C3G 1_555 1_555
H3G C6G 1_555 1_555
C7G C4G 1_555 1_555
C8G C7G 1_555 1_555
F1G C8G 1_555 1_555
F2G C8G 1_555 1_555
F3G C8G 1_555 1_555
C9G C10G 1_555 1_555
C10G C11G 1_555 1_555
C11G H4G 1_555 1_555
C12G C11G 1_555 1_555
H5G C12G 1_555 1_555
C13G C4G 1_555 1_555
C14G C13G 1_555 1_555
C15G C10G 1_555 1_555
H6G C15G 1_555 1_555
C16G C14G 1_555 1_555
F4G C16G 1_555 1_555
F5G C16G 1_555 1_555
F6G C16G 1_555 1_555
Zr1G O6 1_555 1_555
Zr2I O4 1_555 1_555
Zr2K O4G 1_555 1_555
Zr3A O3 1_555 1_555
Zr3E O3G 1_555 1_555
Zr3G O5G 1_555 1_555
O2O Zr1 1_555 1_555
O3C Zr3 1_555 1_555
O3L Zr3 1_555 1_555
O4K Zr2 1_555 1_555
O4L Zr2 1_555 1_555
O5O Zr1 1_555 1_555
O6H Zr1 1_555 1_555
O6O Zr3 1_555 1_555
Zr2 O5 1_555 1_555
Zr2 O6G 1_555 1_555
Zr3 O6 1_555 1_555
Zr3 O5O 1_555 1_555
C5 C7 1_555 1_555
C12 C13 1_555 1_555
C14 C15 1_555 1_555
O2G Zr1G 1_555 1_555
O5G Zr1G 1_555 1_555
O6G Zr3G 1_555 1_555
C5G C7G 1_555 1_555
C12G C13G 1_555 1_555
C14G C15G 1_555 1_555
Zr1G O6O 1_555 1_555
Zr3G O6H 1_555 1_555

#END
