
#######################################################################
#
#                 Cambridge Crystallographic Data Centre
#                                CCDC 
#
#######################################################################
#
# If this CIF has been generated from an entry in the Cambridge 
# Structural Database, then it will include bibliographic, chemical, 
# crystal, experimental, refinement or atomic coordinate data resulting 
# from the CCDC's data processing and validation procedures.
#
#######################################################################

data_ERALIU
_chemical_formula_moiety         '(C28 H20 N4 O24 Zr3)n'
_symmetry_cell_setting           tetragonal
_symmetry_space_group_name_H-M   'P 42/m m c'
_symmetry_Int_Tables_number      131
_space_group_name_Hall           '-P 4c 2'
loop_
_symmetry_equiv_pos_site_id
_symmetry_equiv_pos_as_xyz
1 x,y,z
2 -y,x,1/2+z
3 -x,-y,z
4 y,-x,1/2+z
5 x,-y,-z
6 -x,y,-z
7 y,x,1/2-z
8 -y,-x,1/2-z
9 -x,-y,-z
10 y,-x,1/2-z
11 x,y,-z
12 -y,x,1/2-z
13 -x,y,z
14 x,-y,z
15 -y,-x,1/2+z
16 y,x,1/2+z
_cell_length_a                   24.250(5)
_cell_length_b                   24.250(5)
_cell_length_c                   15.232(3)
_cell_angle_alpha                90
_cell_angle_beta                 90
_cell_angle_gamma                90
_cell_volume                     8957.37
loop_
_atom_site_label
_atom_site_type_symbol
_atom_site_fract_x
_atom_site_fract_y
_atom_site_fract_z
Zr1 Zr 0.5000 0.10037(3) 0.0000
Zr2 Zr 0.42701(2) 0.0000 0.11592(4)
O1 O 0.44557(11) 0.14750(10) 0.0859(2)
O2 O 0.5000 0.04916(17) 0.1170(4)
O3 O 0.39751(13) 0.08398(12) 0.1611(2)
O4 O 0.4263(2) 0.04899(19) 0.0000
O5 O 0.4296(2) 0.0000 0.2593(3)
C1 C 0.40774(18) 0.13222(16) 0.1381(3)
O6 O 0.33606(16) 0.0000 0.1093(4)
C2 C 0.37113(13) 0.17636(11) 0.1740(3)
C3 C 0.30153(16) 0.26027(13) 0.2306(3)
C4 C 0.3832(3) 0.23095(13) 0.1538(6)
H1 H 0.4153 0.2396 0.1206
C5 C 0.3242(3) 0.16373(11) 0.2225(6)
H2 H 0.3160 0.1264 0.2363
C6 C 0.3484(3) 0.27290(10) 0.1821(7)
C7 C 0.2894(3) 0.20568(16) 0.2508(6)
H3 H 0.2574 0.1970 0.2839
O7 O 0.3297(4) 0.3658(2) 0.1616(11)
O8 O 0.4143(3) 0.3395(3) 0.1478(10)
N1 N 0.3652(3) 0.3301(3) 0.1625(5)
O1F O 0.14750(10) 0.44557(11) 0.4141(2)
O3F O 0.08398(12) 0.39751(13) 0.3389(2)
C1F C 0.13222(16) 0.40774(18) 0.3619(3)
C2F C 0.17636(11) 0.37113(13) 0.3260(3)
C3F C 0.26027(13) 0.30153(16) 0.2694(3)
C4F C 0.23095(13) 0.3832(3) 0.3462(6)
H1F H 0.2396 0.4153 0.3794
C5F C 0.16373(11) 0.3242(3) 0.2775(6)
H2F H 0.1264 0.3160 0.2637
C6F C 0.27290(10) 0.3484(3) 0.3179(7)
C7F C 0.20568(16) 0.2894(3) 0.2492(6)
H3F H 0.1970 0.2574 0.2161
O7F O 0.3658(2) 0.3297(4) 0.3384(11)
O8F O 0.3395(3) 0.4143(3) 0.3522(10)
N1F N 0.3301(3) 0.3652(3) 0.3375(5)
Zr2B Zr 0.57299(2) 0.0000 0.11592(4)
O2B O 0.5000 -0.04916(17) 0.1170(4)
O4B O 0.5737(2) -0.04899(19) 0.0000
O5B O 0.5704(2) 0.0000 0.2593(3)
O6B O 0.66394(16) 0.0000 0.1093(4)
O1L O 0.55443(11) 0.14750(10) 0.0859(2)
O3L O 0.60249(13) 0.08398(12) 0.1611(2)
C1L C 0.59226(18) 0.13222(16) 0.1381(3)
C2L C 0.62887(13) 0.17636(11) 0.1740(3)
C3L C 0.69847(16) 0.26027(13) 0.2306(3)
C4L C 0.6168(3) 0.23095(13) 0.1538(6)
H1L H 0.5847 0.2396 0.1206
C5L C 0.6758(3) 0.16373(11) 0.2225(6)
H2L H 0.6840 0.1264 0.2363
C6L C 0.6516(3) 0.27290(10) 0.1821(7)
C7L C 0.7106(3) 0.20568(16) 0.2508(6)
H3L H 0.7426 0.1970 0.2839
O7L O 0.6703(4) 0.3658(2) 0.1616(11)
O8L O 0.5857(3) 0.3395(3) 0.1478(10)
N1L N 0.6348(3) 0.3301(3) 0.1625(5)
O1K O 0.85250(10) 0.44557(11) 0.4141(2)
O3K O 0.91602(12) 0.39751(13) 0.3389(2)
C1K C 0.86778(16) 0.40774(18) 0.3619(3)
C2K C 0.82364(11) 0.37113(13) 0.3260(3)
C3K C 0.73973(13) 0.30153(16) 0.2694(3)
C4K C 0.76905(13) 0.3832(3) 0.3462(6)
H1K H 0.7604 0.4153 0.3794
C5K C 0.83627(11) 0.3242(3) 0.2775(6)
H2K H 0.8736 0.3160 0.2637
C6K C 0.72710(10) 0.3484(3) 0.3179(7)
C7K C 0.79432(16) 0.2894(3) 0.2492(6)
H3K H 0.8030 0.2574 0.2161
O7K O 0.6342(2) 0.3297(4) 0.3384(11)
O8K O 0.6605(3) 0.4143(3) 0.3522(10)
N1K N 0.6699(3) 0.3652(3) 0.3375(5)
Zr1A Zr 0.89963(3) 0.5000 0.5000
Zr1B Zr 0.5000 -0.10037(3) 0.0000
Zr1C Zr 0.10037(3) 0.5000 0.5000
Zr2D Zr 0.42701(2) -0.0000 -0.11592(4)
Zr2E Zr 0.57299(2) -0.0000 -0.11592(4)
Zr2F Zr -0.0000 0.42701(2) 0.38408(4)
Zr2F_2 Zr 1.0000 0.42701(2) 0.38408(4)
O1E O 0.55443(11) 0.14750(10) -0.0859(2)
O1J O 0.44557(11) 0.14750(10) -0.0859(2)
O2E O 0.5000 0.04916(17) -0.1170(4)
O3B O 0.60249(13) -0.08398(12) 0.1611(2)
O3M O 0.39751(13) -0.08398(12) 0.1611(2)
O4D O 0.4263(2) -0.04899(19) 0.0000
O4E O 0.5737(2) 0.04899(19) 0.0000
loop_
_geom_bond_atom_site_label_1
_geom_bond_atom_site_label_2
_geom_bond_site_symmetry_1
_geom_bond_site_symmetry_2
Zr1 O1 1_555 1_555
Zr2 O2 1_555 1_555
O1 C1 1_555 1_555
O2 Zr1 1_555 1_555
O3 Zr2 1_555 1_555
O4 Zr1 1_555 1_555
O5 Zr2 1_555 1_555
C1 O3 1_555 1_555
O6 Zr2 1_555 1_555
C2 C1 1_555 1_555
C3 C6 1_555 1_555
C4 C2 1_555 1_555
H1 C4 1_555 1_555
C5 C2 1_555 1_555
H2 C5 1_555 1_555
C6 C4 1_555 1_555
C7 C3 1_555 1_555
H3 C7 1_555 1_555
O7 N1 1_555 1_555
O8 N1 1_555 1_555
N1 C6 1_555 1_555
O1F C1F 1_555 1_555
O3F C1F 1_555 1_555
C1F C2F 1_555 1_555
C2F C4F 1_555 1_555
C3F C3 1_555 1_555
C4F H1F 1_555 1_555
C5F C2F 1_555 1_555
H2F C5F 1_555 1_555
C6F C3F 1_555 1_555
C7F C3F 1_555 1_555
H3F C7F 1_555 1_555
O7F N1F 1_555 1_555
O8F N1F 1_555 1_555
N1F C6F 1_555 1_555
Zr2B O2 1_555 1_555
O2B Zr2 1_555 1_555
O4B Zr2B 1_555 1_555
O5B Zr2B 1_555 1_555
O6B Zr2B 1_555 1_555
O1L Zr1 1_555 1_555
O3L Zr2B 1_555 1_555
C1L O1L 1_555 1_555
C2L C1L 1_555 1_555
C3L C6L 1_555 1_555
C4L C2L 1_555 1_555
H1L C4L 1_555 1_555
C5L C2L 1_555 1_555
H2L C5L 1_555 1_555
C6L C4L 1_555 1_555
C7L C3L 1_555 1_555
H3L C7L 1_555 1_555
O7L N1L 1_555 1_555
O8L N1L 1_555 1_555
N1L C6L 1_555 1_555
O1K C1K 1_555 1_555
O3K C1K 1_555 1_555
C1K C2K 1_555 1_555
C2K C4K 1_555 1_555
C3K C3L 1_555 1_555
C4K H1K 1_555 1_555
C5K C2K 1_555 1_555
H2K C5K 1_555 1_555
C6K C3K 1_555 1_555
C7K C3K 1_555 1_555
H3K C7K 1_555 1_555
O7K N1K 1_555 1_555
O8K N1K 1_555 1_555
N1K C6K 1_555 1_555
Zr1A O1K 1_555 1_555
Zr1B O2B 1_555 1_555
Zr1C O1F 1_555 1_555
Zr2D O4 1_555 1_555
Zr2E O4B 1_555 1_555
Zr2F O3F 1_555 1_555
Zr2F_2 O3K 1_555 1_555
O1E Zr1 1_555 1_555
O1J Zr1 1_555 1_555
O2E Zr1 1_555 1_555
O3B Zr2B 1_555 1_555
O3M Zr2 1_555 1_555
O4D Zr2 1_555 1_555
O4E Zr1 1_555 1_555
Zr2 O4 1_555 1_555
C5 C7 1_555 1_555
C4F C6F 1_555 1_555
C5F C7F 1_555 1_555
Zr2B O2B 1_555 1_555
Zr2B O4E 1_555 1_555
O4B Zr1B 1_555 1_555
O3L C1L 1_555 1_555
C5L C7L 1_555 1_555
C4K C6K 1_555 1_555
C5K C7K 1_555 1_555
Zr1B O4D 1_555 1_555
Zr2D O2E 1_555 1_555
Zr2D O4D 1_555 1_555
Zr2E O2E 1_555 1_555
Zr2E O4E 1_555 1_555

#END
