
#######################################################################
#
#                 Cambridge Crystallographic Data Centre
#                                CCDC 
#
#######################################################################
#
# If this CIF has been generated from an entry in the Cambridge 
# Structural Database, then it will include bibliographic, chemical, 
# crystal, experimental, refinement or atomic coordinate data resulting 
# from the CCDC's data processing and validation procedures.
#
#######################################################################

data_ERALEQ
_chemical_formula_moiety         '(C32 H32 O20 Zr3)n'
_symmetry_cell_setting           tetragonal
_symmetry_space_group_name_H-M   'P 42/m m c'
_symmetry_Int_Tables_number      131
_space_group_name_Hall           '-P 4c 2'
loop_
_symmetry_equiv_pos_site_id
_symmetry_equiv_pos_as_xyz
1 x,y,z
2 -y,x,1/2+z
3 -x,-y,z
4 y,-x,1/2+z
5 x,-y,-z
6 -x,y,-z
7 y,x,1/2-z
8 -y,-x,1/2-z
9 -x,-y,-z
10 y,-x,1/2-z
11 x,y,-z
12 -y,x,1/2-z
13 -x,y,z
14 x,-y,z
15 -y,-x,1/2+z
16 y,x,1/2+z
_cell_length_a                   24.263(4)
_cell_length_b                   24.263(4)
_cell_length_c                   14.615(3)
_cell_angle_alpha                90
_cell_angle_beta                 90
_cell_angle_gamma                90
_cell_volume                     8603.75
loop_
_atom_site_label
_atom_site_type_symbol
_atom_site_fract_x
_atom_site_fract_y
_atom_site_fract_z
Zr1 Zr 0.10038(3) 0.5000 0.0000
Zr2 Zr 0.0000 0.42775(2) 0.11979(5)
O1 O 0.0502(6) 0.4257(5) 0.0000
O2 O 0.0500(5) 0.5000 0.1273(12)
O3 O 0.0817(3) 0.3975(3) 0.1631(6)
O4 O 0.1477(3) 0.4470(3) 0.0893(6)
O5 O -0.0000 0.3386(5) 0.1148(10)
O6 O -0.0000 0.4307(5) 0.2691(9)
C1 C 0.1308(3) 0.4080(3) 0.1384(4)
C2 C 0.1737(2) 0.36846(17) 0.1725(3)
C3 C 0.25319(19) 0.2952(2) 0.2357(2)
C4 C 0.2286(2) 0.3755(3) 0.1478(6)
H1 H 0.2389 0.4053 0.1094
C5 C 0.26833(19) 0.3389(3) 0.1795(6)
H2 H 0.3058 0.3437 0.1626
C6 C 0.15855(17) 0.3248(3) 0.2287(6)
H3 H 0.1210 0.3200 0.2456
C7 C 0.1983(2) 0.2882(3) 0.2603(5)
O7 O 0.1824(4) 0.2415(6) 0.3204(11)
C8 C 0.1239(6) 0.2317(13) 0.338(3)
H4 H 0.1199 0.1997 0.3789
H5 H 0.1047 0.2245 0.2806
H6 H 0.1078 0.2642 0.3678
O3F O 0.3975(3) 0.0817(3) 0.3369(6)
O4F O 0.4470(3) 0.1477(3) 0.4107(6)
C1F C 0.4080(3) 0.1308(3) 0.3616(4)
C2F C 0.36846(17) 0.1737(2) 0.3275(3)
C3F C 0.2952(2) 0.25319(19) 0.2643(2)
C4F C 0.3755(3) 0.2286(2) 0.3522(6)
H1F H 0.4053 0.2389 0.3906
C5F C 0.3389(3) 0.26833(19) 0.3205(6)
H2F H 0.3437 0.3058 0.3374
C6F C 0.3248(3) 0.15855(17) 0.2713(6)
H3F H 0.3200 0.1210 0.2544
C7F C 0.2882(3) 0.1983(2) 0.2397(5)
O7F O 0.2415(6) 0.1824(4) 0.1796(11)
C8F C 0.2317(13) 0.1239(6) 0.162(3)
H4F H 0.1997 0.1199 0.1211
H5F H 0.2245 0.1047 0.2194
H6F H 0.2642 0.1078 0.1322
Zr2B Zr 0.0000 0.57225(2) 0.11979(5)
O1B O -0.0502(6) 0.5743(5) 0.0000
O2B O -0.0500(5) 0.5000 0.1273(12)
O5B O -0.0000 0.6614(5) 0.1148(10)
O6B O -0.0000 0.5693(5) 0.2691(9)
O3L O -0.0817(3) 0.3975(3) 0.1631(6)
O4L O -0.1477(3) 0.4470(3) 0.0893(6)
C1L C -0.1308(3) 0.4080(3) 0.1384(4)
C2L C -0.1737(2) 0.36846(17) 0.1725(3)
C3L C -0.25319(19) 0.2952(2) 0.2357(2)
C4L C -0.2286(2) 0.3755(3) 0.1478(6)
H1L H -0.2389 0.4053 0.1094
C5L C -0.26833(19) 0.3389(3) 0.1795(6)
H2L H -0.3058 0.3437 0.1626
C6L C -0.15855(17) 0.3248(3) 0.2287(6)
H3L H -0.1210 0.3200 0.2456
C7L C -0.1983(2) 0.2882(3) 0.2603(5)
O7L O -0.1824(4) 0.2415(6) 0.3204(11)
C8L C -0.1239(6) 0.2317(13) 0.338(3)
H4L H -0.1199 0.1997 0.3789
H5L H -0.1047 0.2245 0.2806
H6L H -0.1078 0.2642 0.3678
O3K O -0.3975(3) 0.0817(3) 0.3369(6)
O4K O -0.4470(3) 0.1477(3) 0.4107(6)
C1K C -0.4080(3) 0.1308(3) 0.3616(4)
C2K C -0.36846(17) 0.1737(2) 0.3275(3)
C3K C -0.2952(2) 0.25319(19) 0.2643(2)
C4K C -0.3755(3) 0.2286(2) 0.3522(6)
H1K H -0.4053 0.2389 0.3906
C5K C -0.3389(3) 0.26833(19) 0.3205(6)
H2K H -0.3437 0.3058 0.3374
C6K C -0.3248(3) 0.15855(17) 0.2713(6)
H3K H -0.3200 0.1210 0.2544
C7K C -0.2882(3) 0.1983(2) 0.2397(5)
O7K O -0.2415(6) 0.1824(4) 0.1796(11)
C8K C -0.2317(13) 0.1239(6) 0.162(3)
H4K H -0.1997 0.1199 0.1211
H5K H -0.2245 0.1047 0.2194
H6K H -0.2642 0.1078 0.1322
Zr1A Zr -0.5000 0.10038(3) 0.5000
Zr1A_2 Zr 0.5000 0.10038(3) 0.5000
Zr1B Zr -0.10038(3) 0.5000 0.0000
Zr2D Zr 0.0000 0.57225(2) -0.11979(5)
Zr2E Zr -0.0000 0.42775(2) -0.11979(5)
Zr2F Zr 0.42775(2) 0.0000 0.38021(5)
Zr2G Zr -0.42775(2) 0.0000 0.38021(5)
O1D O 0.0502(6) 0.5743(5) 0.0000
O1E O -0.0502(6) 0.4257(5) 0.0000
O2D O 0.0500(5) 0.5000 -0.1273(12)
O3B O -0.0817(3) 0.6025(3) 0.1631(6)
O3M O 0.0817(3) 0.6025(3) 0.1631(6)
O4D O 0.1477(3) 0.5530(3) -0.0893(6)
O4J O 0.1477(3) 0.4470(3) -0.0893(6)
O4M O 0.1477(3) 0.5530(3) 0.0893(6)
loop_
_geom_bond_atom_site_label_1
_geom_bond_atom_site_label_2
_geom_bond_site_symmetry_1
_geom_bond_site_symmetry_2
Zr1 O1 1_555 1_555
Zr2 O1 1_555 1_555
O1 Zr2E 1_555 1_555
O2 Zr1 1_555 1_555
O3 Zr2 1_555 1_555
O4 Zr1 1_555 1_555
O5 Zr2 1_555 1_555
O6 Zr2 1_555 1_555
C1 O3 1_555 1_555
C2 C1 1_555 1_555
C3 C5 1_555 1_555
C4 C2 1_555 1_555
H1 C4 1_555 1_555
C5 C4 1_555 1_555
H2 C5 1_555 1_555
C6 C2 1_555 1_555
H3 C6 1_555 1_555
C7 C3 1_555 1_555
O7 C7 1_555 1_555
C8 O7 1_555 1_555
H4 C8 1_555 1_555
H5 C8 1_555 1_555
H6 C8 1_555 1_555
O3F C1F 1_555 1_555
O4F C1F 1_555 1_555
C1F C2F 1_555 1_555
C2F C4F 1_555 1_555
C3F C3 1_555 1_555
C4F H1F 1_555 1_555
C5F C3F 1_555 1_555
H2F C5F 1_555 1_555
C6F C2F 1_555 1_555
H3F C6F 1_555 1_555
C7F C3F 1_555 1_555
O7F C7F 1_555 1_555
C8F O7F 1_555 1_555
H4F C8F 1_555 1_555
H5F C8F 1_555 1_555
H6F C8F 1_555 1_555
Zr2B O2 1_555 1_555
O1B Zr2B 1_555 1_555
O2B Zr2 1_555 1_555
O5B Zr2B 1_555 1_555
O6B Zr2B 1_555 1_555
O3L Zr2 1_555 1_555
O4L C1L 1_555 1_555
C1L O3L 1_555 1_555
C2L C1L 1_555 1_555
C3L C5L 1_555 1_555
C4L C2L 1_555 1_555
H1L C4L 1_555 1_555
C5L C4L 1_555 1_555
H2L C5L 1_555 1_555
C6L C2L 1_555 1_555
H3L C6L 1_555 1_555
C7L C3L 1_555 1_555
O7L C7L 1_555 1_555
C8L O7L 1_555 1_555
H4L C8L 1_555 1_555
H5L C8L 1_555 1_555
H6L C8L 1_555 1_555
O3K C1K 1_555 1_555
O4K C1K 1_555 1_555
C1K C2K 1_555 1_555
C2K C4K 1_555 1_555
C3K C3L 1_555 1_555
C4K H1K 1_555 1_555
C5K C3K 1_555 1_555
H2K C5K 1_555 1_555
C6K C2K 1_555 1_555
H3K C6K 1_555 1_555
C7K C3K 1_555 1_555
O7K C7K 1_555 1_555
C8K O7K 1_555 1_555
H4K C8K 1_555 1_555
H5K C8K 1_555 1_555
H6K C8K 1_555 1_555
Zr1A O4K 1_555 1_555
Zr1A_2 O4F 1_555 1_555
Zr1B O1B 1_555 1_555
Zr2D O1B 1_555 1_555
Zr2E O1E 1_555 1_555
Zr2F O3F 1_555 1_555
Zr2G O3K 1_555 1_555
O1D Zr1 1_555 1_555
O1E Zr2 1_555 1_555
O2D Zr1 1_555 1_555
O3B Zr2B 1_555 1_555
O3M Zr2B 1_555 1_555
O4D Zr1 1_555 1_555
O4J Zr1 1_555 1_555
O4M Zr1 1_555 1_555
Zr2 O2 1_555 1_555
O4 C1 1_555 1_555
C6 C7 1_555 1_555
C4F C5F 1_555 1_555
C6F C7F 1_555 1_555
Zr2B O2B 1_555 1_555
Zr2B O1D 1_555 1_555
O2B Zr1B 1_555 1_555
O4L Zr1B 1_555 1_555
C6L C7L 1_555 1_555
C4K C5K 1_555 1_555
C6K C7K 1_555 1_555
Zr1B O1E 1_555 1_555
Zr2D O1D 1_555 1_555
Zr2D O2D 1_555 1_555
Zr2E O2D 1_555 1_555

#END
