
#######################################################################
#
#                 Cambridge Crystallographic Data Centre
#                                CCDC 
#
#######################################################################
#
# If this CIF has been generated from an entry in the Cambridge 
# Structural Database, then it will include bibliographic, chemical, 
# crystal, experimental, refinement or atomic coordinate data resulting 
# from the CCDC's data processing and validation procedures.
#
#######################################################################

data_ERAMOB
_chemical_formula_moiety         '(C68 H60 O32 Zr6)n'
_symmetry_cell_setting           tetragonal
_symmetry_space_group_name_H-M   'P 42/n c m'
_symmetry_Int_Tables_number      138
_space_group_name_Hall           '-P 4ac 2ac'
loop_
_symmetry_equiv_pos_site_id
_symmetry_equiv_pos_as_xyz
1 x,y,z
2 1/2-y,x,1/2+z
3 1/2-x,1/2-y,z
4 y,1/2-x,1/2+z
5 1/2+x,-y,1/2-z
6 -x,1/2+y,1/2-z
7 1/2+y,1/2+x,-z
8 -y,-x,-z
9 -x,-y,-z
10 1/2+y,-x,1/2-z
11 1/2+x,1/2+y,-z
12 -y,1/2+x,1/2-z
13 1/2-x,y,1/2+z
14 x,1/2-y,1/2+z
15 1/2-y,1/2-x,z
16 y,x,z
_cell_length_a                   35.053(17)
_cell_length_b                   35.053
_cell_length_c                   12.665(6)
_cell_angle_alpha                90
_cell_angle_beta                 90
_cell_angle_gamma                90
_cell_volume                     15561.6
loop_
_atom_site_label
_atom_site_type_symbol
_atom_site_fract_x
_atom_site_fract_y
_atom_site_fract_z
Zr1 Zr 0.538030(12) 0.538030(12) 0.62839(5)
Zr2 Zr 0.467858(12) 0.467858(12) 0.65183(5)
Zr3 Zr 0.549689(12) 0.450311(12) 0.5000
O1 O 0.51366(10) 0.59450(9) 0.6815(3)
O2 O 0.45753(10) 0.60091(9) 0.5964(3)
O3 O 0.50549(10) 0.91408(9) 0.7872(3)
O4 O 0.45319(10) 0.90332(9) 0.8880(3)
O5 O 0.52885(10) 0.52885(10) 0.7991(3)
O6 O 0.48391(10) 0.48391(10) 0.8133(4)
O7 O 0.52721(10) 0.47840(10) 0.6338(3)
O8 O 0.58283(10) 0.58283(10) 0.6056(5)
O9 O 0.42285(10) 0.42285(10) 0.6506(5)
O10 O 0.43891(12) 0.48785(9) 0.5119(3)
C1 C 0.48487(10) 0.61329(14) 0.6545(3)
C2 C 0.48432(11) 0.65485(9) 0.6782(2)
C3 C 0.51254(11) 0.67173(11) 0.7397(4)
H1 H 0.5327 0.6567 0.7675
C4 C 0.48172(10) 0.73270(9) 0.7198(2)
C5 C 0.45482(11) 0.67692(11) 0.6376(4)
H2 H 0.4355 0.6654 0.5956
C6 C 0.51123(10) 0.71065(11) 0.7605(3)
C7 C 0.5427(2) 0.7272(4) 0.8277(6)
H3 H 0.5605 0.7068 0.8478
H4 H 0.5318 0.7386 0.8915
H5 H 0.5564 0.7468 0.7876
C8 C 0.45351(11) 0.71583(11) 0.6584(4)
H6 H 0.4333 0.7309 0.6306
C9 C 0.47719(14) 0.89330(16) 0.8215(4)
C10 C 0.47938(9) 0.85172(8) 0.7926(3)
C11 C 0.50514(10) 0.83818(9) 0.7180(3)
H7 H 0.5221 0.8553 0.6837
C12 C 0.50615(10) 0.79951(10) 0.6937(3)
C13 C 0.48139(9) 0.77440(8) 0.7440(3)
C14 C 0.45563(10) 0.78797(10) 0.8185(3)
H8 H 0.4387 0.7708 0.8529
C15 C 0.45461(11) 0.82663(10) 0.8428(3)
H9 H 0.4370 0.8359 0.8937
C16 C 0.5354(3) 0.7853(3) 0.6096(7)
H10 H 0.5603 0.7816 0.6435
H11 H 0.5380 0.8036 0.5516
H12 H 0.5262 0.7608 0.5819
C17 C 0.50731(16) 0.50731(16) 0.8535(7)
C18 C 0.51034(14) 0.51034(14) 0.9669(5)
H13 H 0.5281 0.5281 0.9954
O5G O 0.47115(10) 0.47115(10) 1.2009(3)
O6G O 0.51609(10) 0.51609(10) 1.1867(4)
C17G C 0.49269(16) 0.49269(16) 1.1465(7)
C18G C 0.48966(14) 0.48966(14) 1.0331(5)
H13G H 0.4719 0.4719 1.0046
Zr1G Zr 0.461970(12) 0.461970(12) 0.37161(5)
Zr2G Zr 0.532142(12) 0.532142(12) 0.34817(5)
O1G O 0.40550(9) 0.48634(10) 0.3185(3)
O2G O 0.39909(9) 0.54247(10) 0.4036(3)
O3G O 0.08592(9) 0.49451(10) 0.2128(3)
O4G O 0.09668(9) 0.54681(10) 0.1120(3)
O7G O 0.52160(10) 0.47279(10) 0.3662(3)
O8G O 0.41717(10) 0.41717(10) 0.3944(5)
O9G O 0.57715(10) 0.57715(10) 0.3494(5)
O10G O 0.51215(9) 0.56109(12) 0.4881(3)
C1G C 0.38671(14) 0.51513(10) 0.3455(3)
C2G C 0.34515(9) 0.51568(11) 0.3218(2)
C3G C 0.32827(11) 0.48746(11) 0.2603(4)
H1G H 0.3433 0.4673 0.2325
C4G C 0.26730(9) 0.51828(10) 0.2802(2)
C5G C 0.32308(11) 0.54518(11) 0.3624(4)
H2G H 0.3346 0.5645 0.4044
C6G C 0.28935(11) 0.48877(10) 0.2395(3)
C7G C 0.2728(4) 0.4573(2) 0.1723(6)
H3G H 0.2932 0.4395 0.1522
H4G H 0.2614 0.4682 0.1085
H5G H 0.2532 0.4436 0.2124
C8G C 0.28417(11) 0.54649(11) 0.3416(4)
H6G H 0.2691 0.5667 0.3694
C9G C 0.10670(16) 0.52281(14) 0.1785(4)
C10G C 0.14828(8) 0.52062(9) 0.2074(3)
C11G C 0.16182(9) 0.49486(10) 0.2820(3)
H7G H 0.1447 0.4779 0.3163
C12G C 0.20049(10) 0.49385(10) 0.3063(3)
C13G C 0.22560(8) 0.51861(9) 0.2560(3)
C14G C 0.21203(10) 0.54437(10) 0.1815(3)
H8G H 0.2292 0.5613 0.1471
C15G C 0.17337(10) 0.54539(11) 0.1572(3)
H9G H 0.1641 0.5630 0.1063
C16G C 0.2147(3) 0.4646(3) 0.3904(7)
H10G H 0.2184 0.4397 0.3565
H11G H 0.1964 0.4620 0.4484
H12G H 0.2392 0.4738 0.4181
Zr3H Zr 0.450311(12) 0.549689(12) 0.5000
O1H O 0.48634(10) 0.40550(9) 0.3185(3)
O2H O 0.54247(10) 0.39909(9) 0.4036(3)
O3H O 0.49451(10) 0.08592(9) 0.2128(3)
O4H O 0.54681(10) 0.09668(9) 0.1120(3)
O7H O 0.47279(10) 0.52160(10) 0.3662(3)
O10H O 0.56109(12) 0.51215(9) 0.4881(3)
C1H C 0.51513(10) 0.38671(14) 0.3455(3)
C2H C 0.51568(11) 0.34515(9) 0.3218(2)
C3H C 0.48746(11) 0.32827(11) 0.2603(4)
H1H H 0.4673 0.3433 0.2325
C4H C 0.51828(10) 0.26730(9) 0.2802(2)
C5H C 0.54518(11) 0.32308(11) 0.3624(4)
H2H H 0.5645 0.3346 0.4044
C6H C 0.48877(10) 0.28935(11) 0.2395(3)
C7H C 0.4573(2) 0.2728(4) 0.1723(6)
H3H H 0.4395 0.2932 0.1522
H4H H 0.4682 0.2614 0.1085
H5H H 0.4436 0.2532 0.2124
C8H C 0.54649(11) 0.28417(11) 0.3416(4)
H6H H 0.5667 0.2691 0.3694
C9H C 0.52281(14) 0.10670(16) 0.1785(4)
C10H C 0.52062(9) 0.14828(8) 0.2074(3)
C11H C 0.49486(10) 0.16182(9) 0.2820(3)
H7H H 0.4779 0.1447 0.3163
C12H C 0.49385(10) 0.20049(10) 0.3063(3)
C13H C 0.51861(9) 0.22560(8) 0.2560(3)
C14H C 0.54437(10) 0.21203(10) 0.1815(3)
H8H H 0.5613 0.2292 0.1471
C15H C 0.54539(11) 0.17337(10) 0.1572(3)
H9H H 0.5630 0.1641 0.1063
C16H C 0.4646(3) 0.2147(3) 0.3904(7)
H10H H 0.4397 0.2184 0.3565
H11H H 0.4620 0.1964 0.4484
H12H H 0.4738 0.2392 0.4181
O1O O 0.59450(9) 0.51366(10) 0.6815(3)
O2O O 0.60091(9) 0.45753(10) 0.5964(3)
O3O O 0.91408(9) 0.50549(10) 0.7872(3)
O4O O 0.90332(9) 0.45319(10) 0.8880(3)
O7O O 0.47840(10) 0.52721(10) 0.6338(3)
O10O O 0.48785(9) 0.43891(12) 0.5119(3)
C1O C 0.61329(14) 0.48487(10) 0.6545(3)
C2O C 0.65485(9) 0.48432(11) 0.6782(2)
C3O C 0.67173(11) 0.51254(11) 0.7397(4)
H1O H 0.6567 0.5327 0.7675
C4O C 0.73270(9) 0.48172(10) 0.7198(2)
C5O C 0.67692(11) 0.45482(11) 0.6376(4)
H2O H 0.6654 0.4355 0.5956
C6O C 0.71065(11) 0.51123(10) 0.7605(3)
C7O C 0.7272(4) 0.5427(2) 0.8277(6)
H3O H 0.7068 0.5605 0.8478
H4O H 0.7386 0.5318 0.8915
H5O H 0.7468 0.5564 0.7876
C8O C 0.71583(11) 0.45351(11) 0.6584(4)
H6O H 0.7309 0.4333 0.6306
C9O C 0.89330(16) 0.47719(14) 0.8215(4)
C10O C 0.85172(8) 0.47938(9) 0.7926(3)
C11O C 0.83818(9) 0.50514(10) 0.7180(3)
H7O H 0.8553 0.5221 0.6837
C12O C 0.79951(10) 0.50615(10) 0.6937(3)
C13O C 0.77440(8) 0.48139(9) 0.7440(3)
C14O C 0.78797(10) 0.45563(10) 0.8185(3)
H8O H 0.7708 0.4387 0.8529
C15O C 0.82663(10) 0.45461(11) 0.8428(3)
H9O H 0.8359 0.4370 0.8937
C16O C 0.7853(3) 0.5354(3) 0.6096(7)
H10O H 0.7816 0.5603 0.6435
H11O H 0.8036 0.5380 0.5516
H12O H 0.7608 0.5262 0.5819
Zr1G_2 Zr 0.461970(12) 0.461970(12) 1.37161(5)
Zr2A Zr 0.032142(12) 0.467858(12) 0.15183(5)
Zr2C Zr 0.467858(12) 0.032142(12) 0.15183(5)
Zr2D Zr 0.967858(12) 0.532142(12) 0.84817(5)
Zr2E Zr 0.532142(12) 0.967858(12) 0.84817(5)
Zr2G_2 Zr 0.532142(12) 0.532142(12) 1.34817(5)
Zr3A Zr 0.049689(12) 0.549689(12) 0.0000
Zr3C Zr 0.450311(12) 0.950311(12) 1.0000
Zr3I Zr 0.950311(12) 0.450311(12) 1.0000
Zr3K Zr 0.549689(12) 0.049689(12) 0.0000
O3A O 0.58592(9) 0.50549(10) 0.2872(3)
O3E O 0.49451(10) 0.41408(9) 0.7128(3)
O3I O 0.41408(9) 0.49451(10) 0.7128(3)
O3M O 0.50549(10) 0.58592(9) 0.2872(3)
O4A O 0.59668(9) 0.45319(10) 0.3880(3)
O4E O 0.54681(10) 0.40332(9) 0.6120(3)
O4I O 0.40332(9) 0.54681(10) 0.6120(3)
O4M O 0.45319(10) 0.59668(9) 0.3880(3)
O5G_2 O 0.47115(10) 0.47115(10) 0.2009(3)
O6G_2 O 0.51609(10) 0.51609(10) 0.1867(4)
loop_
_geom_bond_atom_site_label_1
_geom_bond_atom_site_label_2
_geom_bond_site_symmetry_1
_geom_bond_site_symmetry_2
Zr1 O1 1_555 1_555
Zr2 O6 1_555 1_555
Zr3 O7 1_555 1_555
O1 C1 1_555 1_555
O2 C1 1_555 1_555
O3 C9 1_555 1_555
O4 C9 1_555 1_555
O5 Zr1 1_555 1_555
O6 C17 1_555 1_555
O7 Zr1 1_555 1_555
O8 Zr1 1_555 1_555
O9 Zr2 1_555 1_555
O10 Zr2 1_555 1_555
C1 C2 1_555 1_555
C2 C3 1_555 1_555
C3 H1 1_555 1_555
C4 C6 1_555 1_555
C5 C2 1_555 1_555
H2 C5 1_555 1_555
C6 C3 1_555 1_555
C7 C6 1_555 1_555
H3 C7 1_555 1_555
H4 C7 1_555 1_555
H5 C7 1_555 1_555
C8 C4 1_555 1_555
H6 C8 1_555 1_555
C9 C10 1_555 1_555
C10 C11 1_555 1_555
C11 H7 1_555 1_555
C12 C11 1_555 1_555
C13 C4 1_555 1_555
C14 C13 1_555 1_555
H8 C14 1_555 1_555
C15 C10 1_555 1_555
H9 C15 1_555 1_555
C16 C12 1_555 1_555
H10 C16 1_555 1_555
H11 C16 1_555 1_555
H12 C16 1_555 1_555
C17 O5 1_555 1_555
C18 C17 1_555 1_555
H13 C18 1_555 1_555
O5G C17G 1_555 1_555
O6G C17G 1_555 1_555
C17G C18G 1_555 1_555
C18G C18 1_555 1_555
H13G C18G 1_555 1_555
Zr1G O10 1_555 1_555
Zr2G O7G 1_555 1_555
O1G Zr1G 1_555 1_555
O2G C1G 1_555 1_555
O3G C9G 1_555 1_555
O4G C9G 1_555 1_555
O7G Zr3 1_555 1_555
O8G Zr1G 1_555 1_555
O9G Zr2G 1_555 1_555
O10G Zr1 1_555 1_555
C1G O1G 1_555 1_555
C2G C1G 1_555 1_555
C3G C2G 1_555 1_555
H1G C3G 1_555 1_555
C4G C6G 1_555 1_555
C5G C2G 1_555 1_555
H2G C5G 1_555 1_555
C6G C3G 1_555 1_555
C7G C6G 1_555 1_555
H3G C7G 1_555 1_555
H4G C7G 1_555 1_555
H5G C7G 1_555 1_555
C8G C4G 1_555 1_555
H6G C8G 1_555 1_555
C9G C10G 1_555 1_555
C10G C11G 1_555 1_555
C11G H7G 1_555 1_555
C12G C11G 1_555 1_555
C13G C4G 1_555 1_555
C14G C13G 1_555 1_555
H8G C14G 1_555 1_555
C15G C10G 1_555 1_555
H9G C15G 1_555 1_555
C16G C12G 1_555 1_555
H10G C16G 1_555 1_555
H11G C16G 1_555 1_555
H12G C16G 1_555 1_555
Zr3H O2 1_555 1_555
O1H Zr1G 1_555 1_555
O2H Zr3 1_555 1_555
O3H C9H 1_555 1_555
O4H C9H 1_555 1_555
O7H Zr1G 1_555 1_555
O10H Zr1 1_555 1_555
C1H O1H 1_555 1_555
C2H C1H 1_555 1_555
C3H C2H 1_555 1_555
H1H C3H 1_555 1_555
C4H C6H 1_555 1_555
C5H C2H 1_555 1_555
H2H C5H 1_555 1_555
C6H C3H 1_555 1_555
C7H C6H 1_555 1_555
H3H C7H 1_555 1_555
H4H C7H 1_555 1_555
H5H C7H 1_555 1_555
C8H C4H 1_555 1_555
H6H C8H 1_555 1_555
C9H C10H 1_555 1_555
C10H C11H 1_555 1_555
C11H H7H 1_555 1_555
C12H C11H 1_555 1_555
C13H C4H 1_555 1_555
C14H C13H 1_555 1_555
H8H C14H 1_555 1_555
C15H C10H 1_555 1_555
H9H C15H 1_555 1_555
C16H C12H 1_555 1_555
H10H C16H 1_555 1_555
H11H C16H 1_555 1_555
H12H C16H 1_555 1_555
O1O Zr1 1_555 1_555
O2O Zr3 1_555 1_555
O3O C9O 1_555 1_555
O4O C9O 1_555 1_555
O7O Zr1 1_555 1_555
O10O Zr2 1_555 1_555
C1O O1O 1_555 1_555
C2O C1O 1_555 1_555
C3O C2O 1_555 1_555
H1O C3O 1_555 1_555
C4O C6O 1_555 1_555
C5O C2O 1_555 1_555
H2O C5O 1_555 1_555
C6O C3O 1_555 1_555
C7O C6O 1_555 1_555
H3O C7O 1_555 1_555
H4O C7O 1_555 1_555
H5O C7O 1_555 1_555
C8O C4O 1_555 1_555
H6O C8O 1_555 1_555
C9O C10O 1_555 1_555
C10O C11O 1_555 1_555
C11O H7O 1_555 1_555
C12O C11O 1_555 1_555
C13O C4O 1_555 1_555
C14O C13O 1_555 1_555
H8O C14O 1_555 1_555
C15O C10O 1_555 1_555
H9O C15O 1_555 1_555
C16O C12O 1_555 1_555
H10O C16O 1_555 1_555
H11O C16O 1_555 1_555
H12O C16O 1_555 1_555
Zr1G_2 O5G 1_555 1_555
Zr2A O3G 1_555 1_555
Zr2C O3H 1_555 1_555
Zr2D O3O 1_555 1_555
Zr2E O3 1_555 1_555
Zr2G_2 O6G 1_555 1_555
Zr3A O4G 1_555 1_555
Zr3C O4 1_555 1_555
Zr3I O4O 1_555 1_555
Zr3K O4H 1_555 1_555
O3A Zr2G 1_555 1_555
O3E Zr2 1_555 1_555
O3I Zr2 1_555 1_555
O3M Zr2G 1_555 1_555
O4A Zr3 1_555 1_555
O4E Zr3 1_555 1_555
O4I Zr3H 1_555 1_555
O4M Zr3H 1_555 1_555
O5G_2 Zr1G 1_555 1_555
O6G_2 Zr2G 1_555 1_555
Zr2 O7 1_555 1_555
Zr2 O7O 1_555 1_555
Zr3 O10H 1_555 1_555
Zr3 O10O 1_555 1_555
O10 Zr3H 1_555 1_555
C5 C8 1_555 1_555
C12 C13 1_555 1_555
C14 C15 1_555 1_555
Zr1G O7G 1_555 1_555
Zr1G O10O 1_555 1_555
Zr2G O10G 1_555 1_555
Zr2G O7H 1_555 1_555
Zr2G O10H 1_555 1_555
O2G Zr3H 1_555 1_555
O10G Zr3H 1_555 1_555
C5G C8G 1_555 1_555
C12G C13G 1_555 1_555
C14G C15G 1_555 1_555
Zr3H O7H 1_555 1_555
Zr3H O7O 1_555 1_555
O2H C1H 1_555 1_555
C5H C8H 1_555 1_555
C12H C13H 1_555 1_555
C14H C15H 1_555 1_555
O2O C1O 1_555 1_555
C5O C8O 1_555 1_555
C12O C13O 1_555 1_555
C14O C15O 1_555 1_555

#END
