
#######################################################################
#
#                 Cambridge Crystallographic Data Centre
#                                CCDC 
#
#######################################################################
#
# If this CIF has been generated from an entry in the Cambridge 
# Structural Database, then it will include bibliographic, chemical, 
# crystal, experimental, refinement or atomic coordinate data resulting 
# from the CCDC's data processing and validation procedures.
#
#######################################################################

data_EVOTOZ
_chemical_formula_moiety         'C26 H10 N3 O14 Zn7'
_symmetry_cell_setting           monoclinic
_symmetry_space_group_name_H-M   'P 21/c'
_symmetry_Int_Tables_number      14
_space_group_name_Hall           '-P 2ybc'
loop_
_symmetry_equiv_pos_site_id
_symmetry_equiv_pos_as_xyz
1 x,y,z
2 -x,1/2+y,1/2-z
3 -x,-y,-z
4 x,1/2-y,1/2+z
_cell_length_a                   14.0138(2)
_cell_length_b                   10.9075(2)
_cell_length_c                   21.7501(4)
_cell_angle_alpha                90
_cell_angle_beta                 91.524(2)
_cell_angle_gamma                90
_cell_volume                     3323.45
loop_
_atom_site_label
_atom_site_type_symbol
_atom_site_fract_x
_atom_site_fract_y
_atom_site_fract_z
Zn1 Zn 0.09647(2) 0.29547(3) 0.079120(16)
Zn2 Zn 0.30497(2) 0.29607(3) 0.083626(16)
O1 O 0.1179(2) 0.1121(3) 0.08147(17)
O2 O 0.2741(2) 0.1167(3) 0.08698(17)
N1 N -0.55048(19) 0.2959(3) 0.08304(12)
N2 N -0.04765(18) 0.2964(3) 0.08097(13)
C1 C -0.2468(2) 0.2952(3) 0.08224(17)
C2 C -0.3524(2) 0.2960(3) 0.08231(16)
C3 C 0.1974(2) -0.4694(3) 0.07975(15)
C4 C 0.1980(2) -0.3321(3) 0.08267(17)
O3 O 0.12429(19) 0.2880(3) -0.01275(12)
O4 O 0.1313(2) 0.2011(3) -0.32905(12)
O5 O 0.11784(17) -0.5211(2) 0.07818(13)
O6 O 0.2808(2) 0.2875(3) -0.00912(12)
O7 O 0.27558(18) -0.5230(2) 0.07903(15)
C5 C 0.1974(3) 0.0620(3) 0.08463(17)
O8 O 0.2881(2) 0.1980(3) -0.32446(12)
C6 C 0.1983(3) -0.0754(3) 0.08539(18)
C7 C 0.1165(3) -0.2666(3) 0.06766(18)
H1 H 0.0595 -0.3095 0.0568
C8 C 0.1160(3) -0.1405(3) 0.06815(17)
H2 H 0.0593 -0.0974 0.0567
C9 C 0.2029(3) 0.2781(3) -0.03671(15)
C10 C 0.2807(3) -0.1400(4) 0.1020(2)
C11 C 0.2084(3) 0.2033(4) -0.30100(16)
C12 C 0.2805(3) -0.2684(4) 0.1002(2)
C13 C -0.0981(2) 0.3992(3) 0.07050(16)
H3 H -0.0646 0.4733 0.0632
C14 C -0.0970(3) 0.1935(4) 0.0917(2)
H4 H -0.0621 0.1197 0.0985
C15 C 0.2055(3) 0.2546(4) -0.10473(16)
C16 C -0.1960(2) 0.4020(3) 0.06993(17)
H5 H -0.2291 0.4762 0.0612
C17 C 0.2068(3) 0.2173(4) -0.23231(17)
C18 C -0.1947(3) 0.1885(4) 0.0936(2)
H6 H -0.2262 0.1137 0.1024
C19 C -0.4013(3) 0.2375(4) 0.1281(2)
H7 H -0.3674 0.1954 0.1601
C20 C -0.5033(3) 0.3508(4) 0.03844(18)
H8 H -0.5390 0.3894 0.0062
C21 C -0.4053(3) 0.3544(4) 0.03684(19)
H9 H -0.3744 0.3967 0.0047
C22 C -0.4996(3) 0.2406(4) 0.12704(18)
H10 H -0.5323 0.2013 0.1593
C23 C 0.2778(8) 0.1884(11) -0.1955(5)
C24 C 0.1235(7) 0.2794(10) -0.2043(4)
C25 C 0.2802(8) 0.2064(14) -0.1325(5)
C26 C 0.1237(6) 0.2931(10) -0.1422(4)
O9 O 0.3618(4) -0.3266(5) 0.1170(3)
O10 O 0.3561(6) -0.0822(7) 0.1285(7)
Zn1C Zn 0.09647(2) 0.20453(3) -0.420880(16)
Zn1_2 Zn 0.09647(2) -0.70453(3) 0.079120(16)
Zn2_2 Zn -0.69503(2) 0.29607(3) 0.083626(16)
Zn2_3 Zn 0.30497(2) -0.70393(3) 0.083626(16)
Zn2C Zn 0.30497(2) 0.20393(3) -0.416374(16)
N1_2 N 0.44952(19) 0.2959(3) 0.08304(12)
O4C O 0.1313(2) 0.2989(3) 0.17095(12)
O5_2 O 0.11784(17) 0.4789(2) 0.07818(13)
O7_2 O 0.27558(18) 0.4770(2) 0.07903(15)
O8C O 0.2881(2) 0.3020(3) 0.17554(12)
loop_
_geom_bond_atom_site_label_1
_geom_bond_atom_site_label_2
_geom_bond_site_symmetry_1
_geom_bond_site_symmetry_2
Zn1 O1 1_555 1_555
Zn2 O2 1_555 1_555
O1 C5 1_555 1_555
O2 C5 1_555 1_555
N1 C20 1_555 1_555
N2 Zn1 1_555 1_555
C1 C2 1_555 1_555
C2 C19 1_555 1_555
C3 C4 1_555 1_555
C4 C7 1_555 1_555
O3 Zn1 1_555 1_555
O4 C11 1_555 1_555
O5 C3 1_555 1_555
O6 Zn2 1_555 1_555
O7 C3 1_555 1_555
C5 C6 1_555 1_555
O8 C11 1_555 1_555
C6 C8 1_555 1_555
C7 H1 1_555 1_555
C8 C7 1_555 1_555
H2 C8 1_555 1_555
C9 O3 1_555 1_555
C10 C6 1_555 1_555
C11 C17 1_555 1_555
C12 C4 1_555 1_555
C13 N2 1_555 1_555
H3 C13 1_555 1_555
C14 N2 1_555 1_555
H4 C14 1_555 1_555
C15 C9 1_555 1_555
C16 C1 1_555 1_555
H5 C16 1_555 1_555
C17 C23 1_555 1_555
C18 C1 1_555 1_555
H6 C18 1_555 1_555
C19 H7 1_555 1_555
C20 H8 1_555 1_555
C21 C2 1_555 1_555
H9 C21 1_555 1_555
C22 N1 1_555 1_555
H10 C22 1_555 1_555
C23 C25 1_555 1_555
C24 C17 1_555 1_555
C25 C15 1_555 1_555
C26 C15 1_555 1_555
O9 C12 1_555 1_555
O10 C10 1_555 1_555
Zn1C O4 1_555 1_555
Zn1_2 O5 1_555 1_555
Zn2_2 N1 1_555 1_555
Zn2_3 O7 1_555 1_555
Zn2C O8 1_555 1_555
N1_2 Zn2 1_555 1_555
O4C Zn1 1_555 1_555
O5_2 Zn1 1_555 1_555
O7_2 Zn2 1_555 1_555
O8C Zn2 1_555 1_555
O6 C9 1_555 1_555
C10 C12 1_555 1_555
C13 C16 1_555 1_555
C14 C18 1_555 1_555
C19 C22 1_555 1_555
C20 C21 1_555 1_555
C24 C26 1_555 1_555

#END
