
#######################################################################
#
#                 Cambridge Crystallographic Data Centre
#                                CCDC 
#
#######################################################################
#
# If this CIF has been generated from an entry in the Cambridge 
# Structural Database, then it will include bibliographic, chemical, 
# crystal, experimental, refinement or atomic coordinate data resulting 
# from the CCDC's data processing and validation procedures.
#
#######################################################################

data_IXEBEU
_chemical_formula_moiety         '(C40 H32 Cl2 Co1 N12 O10)n'
_symmetry_cell_setting           orthorhombic
_symmetry_space_group_name_H-M   'F d d d'
_symmetry_Int_Tables_number      70
_space_group_name_Hall           '-F 2uv 2vw'
loop_
_symmetry_equiv_pos_site_id
_symmetry_equiv_pos_as_xyz
1 x,y,z
2 3/4-x,3/4-y,z
3 3/4-x,y,3/4-z
4 x,3/4-y,3/4-z
5 x,1/2+y,1/2+z
6 3/4-x,1/4-y,1/2+z
7 3/4-x,1/2+y,1/4-z
8 x,1/4-y,1/4-z
9 1/2+x,y,1/2+z
10 1/4-x,3/4-y,1/2+z
11 1/4-x,y,1/4-z
12 1/2+x,3/4-y,1/4-z
13 1/2+x,1/2+y,z
14 1/4-x,1/4-y,z
15 1/4-x,1/2+y,3/4-z
16 1/2+x,1/4-y,3/4-z
17 -x,-y,-z
18 1/4+x,1/4+y,-z
19 1/4+x,-y,1/4+z
20 -x,1/4+y,1/4+z
21 -x,1/2-y,1/2-z
22 1/4+x,3/4+y,1/2-z
23 1/4+x,1/2-y,3/4+z
24 -x,3/4+y,3/4+z
25 1/2-x,-y,1/2-z
26 3/4+x,1/4+y,1/2-z
27 3/4+x,-y,3/4+z
28 1/2-x,1/4+y,3/4+z
29 1/2-x,1/2-y,-z
30 3/4+x,3/4+y,-z
31 3/4+x,1/2-y,1/4+z
32 1/2-x,3/4+y,1/4+z
_cell_length_a                   8.274(2)
_cell_length_b                   20.563(5)
_cell_length_c                   54.367(13)
_cell_angle_alpha                90
_cell_angle_beta                 90
_cell_angle_gamma                90
_cell_volume                     9249.91
loop_
_atom_site_label
_atom_site_type_symbol
_atom_site_fract_x
_atom_site_fract_y
_atom_site_fract_z
Co1 Co 0.1250 0.1250 0.6250
O1 O 0.3804(6) 0.1250 0.6250
N1 N 0.1207(5) 0.19925(17) 0.59671(5)
C1 C 0.1355(7) 0.2915(2) 0.55883(7)
C2 C 0.1383(6) 0.3389(2) 0.53829(7)
N2 N 0.2330(5) 0.25654(19) 0.51078(6)
N3 N 0.1304(7) 0.4294(2) 0.49970(8)
C3 C 0.1733(7) 0.3676(3) 0.49589(9)
H1 H 0.2004 0.3549 0.4800
C4 C 0.1793(6) 0.3215(2) 0.51453(7)
C5 C 0.0336(7) 0.2367(2) 0.55733(8)
H2 H -0.0313 0.2302 0.5436
C6 C 0.0976(8) 0.4467(3) 0.52202(10)
H3 H 0.0714 0.4900 0.5249
C7 C 0.0994(7) 0.4037(2) 0.54215(9)
H4 H 0.0747 0.4185 0.5579
C8 C 0.0318(7) 0.1927(3) 0.57655(8)
H5 H -0.0355 0.1566 0.5753
C9 C 0.2191(9) 0.2987(3) 0.57975(10)
H6 H 0.2836 0.3353 0.5819
C10 C 0.2115(9) 0.2529(3) 0.59825(10)
H7 H 0.2723 0.2596 0.6124
N1BA N 0.3793(5) 0.30075(17) 0.40329(5)
C1BA C 0.3645(7) 0.2085(2) 0.44117(7)
C2BA C 0.3617(6) 0.1611(2) 0.46171(7)
N2BA N 0.2670(5) 0.24346(19) 0.48922(6)
N3BA N 0.3696(7) 0.0706(2) 0.50030(8)
C3BA C 0.3267(7) 0.1324(3) 0.50411(9)
H1BA H 0.2996 0.1451 0.5200
C4BA C 0.3207(6) 0.1785(2) 0.48547(7)
C5BA C 0.4664(7) 0.2633(2) 0.44267(8)
H2BA H 0.5313 0.2698 0.4564
C6BA C 0.4024(8) 0.0533(3) 0.47798(10)
H3BA H 0.4286 0.0100 0.4751
C7BA C 0.4006(7) 0.0963(2) 0.45785(9)
H4BA H 0.4253 0.0815 0.4421
C8BA C 0.4682(7) 0.3073(3) 0.42345(8)
H5BA H 0.5355 0.3434 0.4247
C9BA C 0.2809(9) 0.2013(3) 0.42025(10)
H6BA H 0.2164 0.1647 0.4181
C10BA C 0.2885(9) 0.2471(3) 0.40175(10)
H7BA H 0.2277 0.2404 0.3876
N1G N 0.1207(5) 0.05075(17) 0.65329(5)
C1G C 0.1355(7) -0.0415(2) 0.69117(7)
C2G C 0.1383(6) -0.0889(2) 0.71171(7)
N2G N 0.2330(5) -0.00654(19) 0.73922(6)
N3G N 0.1304(7) -0.1794(2) 0.75030(8)
C3G C 0.1733(7) -0.1176(3) 0.75411(9)
H1G H 0.2004 -0.1049 0.7700
C4G C 0.1793(6) -0.0715(2) 0.73547(7)
C5G C 0.0336(7) 0.0133(2) 0.69267(8)
H2G H -0.0313 0.0198 0.7064
C6G C 0.0976(8) -0.1967(3) 0.72798(10)
H3G H 0.0714 -0.2400 0.7251
C7G C 0.0994(7) -0.1537(2) 0.70785(9)
H4G H 0.0747 -0.1685 0.6921
C8G C 0.0318(7) 0.0573(3) 0.67345(8)
H5G H -0.0355 0.0934 0.6747
C9G C 0.2191(9) -0.0487(3) 0.67025(10)
H6G H 0.2836 -0.0853 0.6681
C10G C 0.2115(9) -0.0029(3) 0.65175(10)
H7G H 0.2723 -0.0096 0.6376
N1EA N 0.3793(5) -0.05075(17) 0.84671(5)
C1EA C 0.3645(7) 0.0415(2) 0.80883(7)
C2EA C 0.3617(6) 0.0889(2) 0.78829(7)
N2EA N 0.2670(5) 0.00654(19) 0.76078(6)
N3EA N 0.3696(7) 0.1794(2) 0.74970(8)
C3EA C 0.3267(7) 0.1176(3) 0.74589(9)
H1EA H 0.2996 0.1049 0.7300
C4EA C 0.3207(6) 0.0715(2) 0.76453(7)
C5EA C 0.4664(7) -0.0133(2) 0.80733(8)
H2EA H 0.5313 -0.0198 0.7936
C6EA C 0.4024(8) 0.1967(3) 0.77202(10)
H3EA H 0.4286 0.2400 0.7749
C7EA C 0.4006(7) 0.1537(2) 0.79215(9)
H4EA H 0.4253 0.1685 0.8079
C8EA C 0.4682(7) -0.0573(3) 0.82655(8)
H5EA H 0.5355 -0.0934 0.8253
C9EA C 0.2809(9) 0.0487(3) 0.82975(10)
H6EA H 0.2164 0.0853 0.8319
C10EA C 0.2885(9) 0.0029(3) 0.84825(10)
H7EA H 0.2277 0.0096 0.8624
O1J O -0.1304(6) 0.1250 0.6250
Co1Q Co 0.3750 0.3750 0.3750
Co1R Co 0.3750 -0.1250 0.8750
N1J N 0.1293(5) 0.19925(17) 0.65329(5)
N1M N 0.1293(5) 0.05075(17) 0.59671(5)
Cl1 Cl -0.1250 0.3750 0.43334(7)
O2 O -0.2588(11) 0.4247(5) 0.4334(2)
O3 O -0.0448(14) 0.4199(6) 0.4417(2)
O2A O 0.0088(11) 0.3253(5) 0.4334(2)
O3A O -0.2052(14) 0.3301(6) 0.4417(2)
Cl2 Cl -0.1250 0.5662(4) 0.3750
O4 O 0.0467(14) 0.5970(7) 0.3916(2)
O5 O -0.249(2) 0.6051(11) 0.3787(3)
O4B O -0.2967(14) 0.5970(7) 0.3584(2)
O5B O -0.001(2) 0.6051(11) 0.3713(3)
loop_
_geom_bond_atom_site_label_1
_geom_bond_atom_site_label_2
_geom_bond_site_symmetry_1
_geom_bond_site_symmetry_2
Co1 O1 1_555 1_555
N1 Co1 1_555 1_555
C1 C2 1_555 1_555
C2 C4 1_555 1_555
N2 C4 1_555 1_555
N3 C3 1_555 1_555
C3 H1 1_555 1_555
C4 C3 1_555 1_555
C5 C1 1_555 1_555
H2 C5 1_555 1_555
C6 N3 1_555 1_555
H3 C6 1_555 1_555
C7 C2 1_555 1_555
H4 C7 1_555 1_555
C8 N1 1_555 1_555
H5 C8 1_555 1_555
C9 C1 1_555 1_555
H6 C9 1_555 1_555
C10 N1 1_555 1_555
H7 C10 1_555 1_555
Cl1 O2 1_555 1_555
O3 Cl1 1_555 1_555
Cl2 O4 1_555 1_555
O5 Cl2 1_555 1_555
N1BA C8BA 1_555 1_555
C1BA C2BA 1_555 1_555
C2BA C4BA 1_555 1_555
N2BA N2 1_555 1_555
N3BA C3BA 1_555 1_555
C3BA H1BA 1_555 1_555
C4BA N2BA 1_555 1_555
C5BA C1BA 1_555 1_555
H2BA C5BA 1_555 1_555
C6BA N3BA 1_555 1_555
H3BA C6BA 1_555 1_555
C7BA C2BA 1_555 1_555
H4BA C7BA 1_555 1_555
C8BA C5BA 1_555 1_555
H5BA C8BA 1_555 1_555
C9BA C1BA 1_555 1_555
H6BA C9BA 1_555 1_555
C10BA N1BA 1_555 1_555
H7BA C10BA 1_555 1_555
N1G Co1 1_555 1_555
C1G C2G 1_555 1_555
C2G C4G 1_555 1_555
N2G C4G 1_555 1_555
N3G C3G 1_555 1_555
C3G H1G 1_555 1_555
C4G C3G 1_555 1_555
C5G C1G 1_555 1_555
H2G C5G 1_555 1_555
C6G N3G 1_555 1_555
H3G C6G 1_555 1_555
C7G C2G 1_555 1_555
H4G C7G 1_555 1_555
C8G N1G 1_555 1_555
H5G C8G 1_555 1_555
C9G C1G 1_555 1_555
H6G C9G 1_555 1_555
C10G N1G 1_555 1_555
H7G C10G 1_555 1_555
N1EA C8EA 1_555 1_555
C1EA C2EA 1_555 1_555
C2EA C4EA 1_555 1_555
N2EA N2G 1_555 1_555
N3EA C3EA 1_555 1_555
C3EA H1EA 1_555 1_555
C4EA N2EA 1_555 1_555
C5EA C1EA 1_555 1_555
H2EA C5EA 1_555 1_555
C6EA N3EA 1_555 1_555
H3EA C6EA 1_555 1_555
C7EA C2EA 1_555 1_555
H4EA C7EA 1_555 1_555
C8EA C5EA 1_555 1_555
H5EA C8EA 1_555 1_555
C9EA C1EA 1_555 1_555
H6EA C9EA 1_555 1_555
C10EA N1EA 1_555 1_555
H7EA C10EA 1_555 1_555
O1J Co1 1_555 1_555
Co1Q N1BA 1_555 1_555
Co1R N1EA 1_555 1_555
N1J Co1 1_555 1_555
N1M Co1 1_555 1_555
O2A Cl1 1_555 1_555
O3A Cl1 1_555 1_555
O4B Cl2 1_555 1_555
O5B Cl2 1_555 1_555
C5 C8 1_555 1_555
C6 C7 1_555 1_555
C9 C10 1_555 1_555
C3BA C4BA 1_555 1_555
C6BA C7BA 1_555 1_555
C9BA C10BA 1_555 1_555
C5G C8G 1_555 1_555
C6G C7G 1_555 1_555
C9G C10G 1_555 1_555
C3EA C4EA 1_555 1_555
C6EA C7EA 1_555 1_555
C9EA C10EA 1_555 1_555

#END
