
#######################################################################
#
#                 Cambridge Crystallographic Data Centre
#                                CCDC 
#
#######################################################################
#
# If this CIF has been generated from an entry in the Cambridge 
# Structural Database, then it will include bibliographic, chemical, 
# crystal, experimental, refinement or atomic coordinate data resulting 
# from the CCDC's data processing and validation procedures.
#
#######################################################################

data_NIKDEQ
_chemical_formula_moiety         '(C22 H49 Gd1 N4 O14)n'
_symmetry_cell_setting           monoclinic
_symmetry_space_group_name_H-M   'C 2/c'
_symmetry_Int_Tables_number      15
_space_group_name_Hall           '-C 2yc'
loop_
_symmetry_equiv_pos_site_id
_symmetry_equiv_pos_as_xyz
1 x,y,z
2 -x,y,1/2-z
3 1/2+x,1/2+y,z
4 1/2-x,1/2+y,1/2-z
5 -x,-y,-z
6 x,-y,1/2+z
7 1/2-x,1/2-y,-z
8 1/2+x,1/2-y,1/2+z
_cell_length_a                   15.378(2)
_cell_length_b                   14.172(2)
_cell_length_c                   14.264(2)
_cell_angle_alpha                90
_cell_angle_beta                 99.10(1)
_cell_angle_gamma                90
_cell_volume                     3069.53
loop_
_atom_site_label
_atom_site_type_symbol
_atom_site_fract_x
_atom_site_fract_y
_atom_site_fract_z
N1 N 0.2258(7) 0.5528(8) 0.4728(6)
N2 N 0.3465(8) 0.6507(8) 0.6106(7)
C1 C 0.231(1) 0.528(1) 0.5742(9)
C2 C 0.270(1) 0.606(1) 0.6428(9)
C3 C 0.3734(9) 0.733(1) 0.6711(8)
C4 C 0.317(1) 0.819(1) 0.6478(9)
C5 C 0.3286(9) 0.8607(9) 0.554(1)
C6 C 0.189(1) 0.469(1) 0.4119(9)
C7 C 0.250(1) 0.386(1) 0.421(1)
C8 C 0.204(1) 0.304(1) 0.365(1)
C9 C 0.0786(9) 0.916(1) 0.3866(9)
C10 C 0.0140(9) 0.877(1) 0.446(1)
C11 C 0.0474(9) 0.869(1) 0.553(1)
O1 O 0.2511(7) 1.2719(8) 0.6364(7)
O2 O 0.1282(7) 0.3150(8) 0.3215(8)
O3 O 0.1133(6) 0.9150(7) 0.5871(6)
O4 O -0.010(1) 0.852(2) 0.600(1)
O6 O -0.1151(8) 0.8796(7) 0.7303(8)
O7 O 0.047(1) 0.665(1) 0.632(1)
Gd1 Gd 0.0000 0.2288(1) 0.2500
H1 H 0.2709 0.5611 0.4596
H2 H 0.2291 1.0332 0.4087
H3 H 0.3354 0.9818 0.4116
H4 H 0.2780 0.8390 0.3531
H5 H 0.2078 0.9232 0.2878
H6 H 0.0603 0.7502 0.3336
H7 H 0.1327 0.7859 0.2569
H8 H 0.1624 0.6270 0.3003
H9 H 0.2529 0.6975 0.3540
H10 H 0.1036 0.6232 0.4453
H11 H 0.1911 0.6943 0.4993
H12 H 0.3193 1.0096 0.6610
H13 H 0.3707 1.0528 0.5691
H14 H 0.2313 1.1363 0.5071
H15 H 0.1908 1.1008 0.6108
H16 H 0.1017 0.9840 0.4135
H17 H 0.0463 0.9223 0.3132
H18 H -0.0423 0.9254 0.4344
H19 H -0.0097 0.8089 0.4172
N1F N 0.2742(7) 0.9472(8) 0.5272(6)
C1F C 0.269(1) 0.972(1) 0.4258(9)
C2F C 0.230(1) 0.894(1) 0.3572(9)
N2F N 0.1535(8) 0.8493(8) 0.3894(7)
C3F C 0.1266(9) 0.767(1) 0.3289(8)
C4F C 0.183(1) 0.681(1) 0.3522(9)
C5F C 0.1714(9) 0.6393(9) 0.446(1)
Gd1E Gd 0.0000 0.7712(1) 0.7500
O2D O -0.1282(7) 0.6850(8) 0.6785(8)
O2E O 0.1282(7) 0.6850(8) 0.8215(8)
O4A O 0.010(1) 0.852(2) 0.900(1)
O6A O 0.1151(8) 0.8796(7) 0.7697(8)
O7A O -0.047(1) 0.665(1) 0.868(1)
C6F C 0.311(1) 1.031(1) 0.5881(9)
C7F C 0.250(1) 1.114(1) 0.579(1)
C8F C 0.296(1) 1.196(1) 0.635(1)
O2F O 0.3718(7) 1.1850(8) 0.6785(8)
Gd1G Gd 0.5000 1.2712(1) 0.7500
H1F H 0.2291 0.9389 0.5404
H10F H 0.3964 0.8768 0.5547
H11F H 0.3089 0.8057 0.5007
H8F H 0.3376 0.8730 0.6997
H9F H 0.2471 0.8025 0.6460
H6F H 0.4397 0.7498 0.6664
H7F H 0.3673 0.7141 0.7431
C9F C 0.4214(9) 0.584(1) 0.6134(9)
C10F C 0.4860(9) 0.623(1) 0.554(1)
C11F C 0.4526(9) 0.631(1) 0.447(1)
O3F O 0.3867(6) 0.5850(7) 0.4129(6)
O4F O 0.510(1) 0.648(2) 0.400(1)
Gd1C Gd 0.5000 0.7288(1) 0.2500
H18F H 0.5423 0.5746 0.5656
H19F H 0.5097 0.6911 0.5828
H16F H 0.3983 0.5160 0.5865
H17F H 0.4537 0.5777 0.6868
H4F H 0.2220 0.6610 0.6469
H5F H 0.2922 0.5768 0.7122
H2F H 0.2709 0.4668 0.5913
H3F H 0.1646 0.5182 0.5884
H12F H 0.1807 0.4904 0.3390
H13F H 0.1293 0.4472 0.4309
H14F H 0.2687 0.3637 0.4929
H15F H 0.3092 0.3992 0.3892
O1F O 0.2489(7) 0.2281(8) 0.3636(7)
O9 O 0.073(1) 0.659(1) 0.063(1)
O10 O 0.460(2) 1.030(2) 0.304(2)
loop_
_geom_bond_atom_site_label_1
_geom_bond_atom_site_label_2
_geom_bond_site_symmetry_1
_geom_bond_site_symmetry_2
N1 C1 1_555 1_555
N2 C2 1_555 1_555
C1 C2 1_555 1_555
C2 H4F 1_555 1_555
C3 N2 1_555 1_555
C4 C3 1_555 1_555
C5 C4 1_555 1_555
C6 N1 1_555 1_555
C7 C6 1_555 1_555
C8 C7 1_555 1_555
C9 C10 1_555 1_555
C10 C11 1_555 1_555
C11 O3 1_555 1_555
O1 C8F 1_555 1_555
O2 C8 1_555 1_555
O4 C11 1_555 1_555
O6 Gd1E 1_555 1_555
O7 Gd1E 1_555 1_555
Gd1 O2 1_555 1_555
H1 N1 1_555 1_555
H2 C1F 1_555 1_555
H3 C1F 1_555 1_555
H4 C2F 1_555 1_555
H5 C2F 1_555 1_555
H6 C3F 1_555 1_555
H7 C3F 1_555 1_555
H8 C4F 1_555 1_555
H9 C4F 1_555 1_555
H10 C5F 1_555 1_555
H11 C5F 1_555 1_555
H12 C6F 1_555 1_555
H13 C6F 1_555 1_555
H14 C7F 1_555 1_555
H15 C7F 1_555 1_555
H16 C9 1_555 1_555
H17 C9 1_555 1_555
H18 C10 1_555 1_555
H19 C10 1_555 1_555
N1F C5 1_555 1_555
C1F N1F 1_555 1_555
C2F C1F 1_555 1_555
N2F C9 1_555 1_555
C3F N2F 1_555 1_555
C4F C3F 1_555 1_555
C5F N1 1_555 1_555
Gd1E O4 1_555 1_555
O2D Gd1E 1_555 1_555
O2E Gd1E 1_555 1_555
O4A Gd1E 1_555 1_555
O6A Gd1E 1_555 1_555
O7A Gd1E 1_555 1_555
C6F N1F 1_555 1_555
C7F C6F 1_555 1_555
C8F C7F 1_555 1_555
O2F C8F 1_555 1_555
Gd1G O2F 1_555 1_555
H1F N1F 1_555 1_555
H10F C5 1_555 1_555
H11F C5 1_555 1_555
H8F C4 1_555 1_555
H9F C4 1_555 1_555
H6F C3 1_555 1_555
H7F C3 1_555 1_555
C9F N2 1_555 1_555
C10F C9F 1_555 1_555
C11F C10F 1_555 1_555
O3F C11F 1_555 1_555
O4F C11F 1_555 1_555
Gd1C O4F 1_555 1_555
H18F C10F 1_555 1_555
H19F C10F 1_555 1_555
H16F C9F 1_555 1_555
H17F C9F 1_555 1_555
H5F C2 1_555 1_555
H2F C1 1_555 1_555
H3F C1 1_555 1_555
H12F C6 1_555 1_555
H13F C6 1_555 1_555
H14F C7 1_555 1_555
H15F C7 1_555 1_555
O1F C8 1_555 1_555
C2F N2F 1_555 1_555
C4F C5F 1_555 1_555

#END
