
#######################################################################
#
#                 Cambridge Crystallographic Data Centre
#                                CCDC 
#
#######################################################################
#
# If this CIF has been generated from an entry in the Cambridge 
# Structural Database, then it will include bibliographic, chemical, 
# crystal, experimental, refinement or atomic coordinate data resulting 
# from the CCDC's data processing and validation procedures.
#
#######################################################################

data_NIKDIU
_chemical_formula_moiety         '(C22 H49 Eu1 N4 O14)n'
_symmetry_cell_setting           monoclinic
_symmetry_space_group_name_H-M   'C 2/c'
_symmetry_Int_Tables_number      15
_space_group_name_Hall           '-C 2yc'
loop_
_symmetry_equiv_pos_site_id
_symmetry_equiv_pos_as_xyz
1 x,y,z
2 -x,y,1/2-z
3 1/2+x,1/2+y,z
4 1/2-x,1/2+y,1/2-z
5 -x,-y,-z
6 x,-y,1/2+z
7 1/2-x,1/2-y,-z
8 1/2+x,1/2-y,1/2+z
_cell_length_a                   15.32(1)
_cell_length_b                   14.19(1)
_cell_length_c                   14.130(3)
_cell_angle_alpha                90
_cell_angle_beta                 99.41(3)
_cell_angle_gamma                90
_cell_volume                     3030.4
loop_
_atom_site_label
_atom_site_type_symbol
_atom_site_fract_x
_atom_site_fract_y
_atom_site_fract_z
Eu1 Eu 0.5000 1.2663(2) 0.7500
N1 N 0.7243(9) 0.948(1) 0.974(1)
N2 N 0.844(1) 0.848(1) 1.113(1)
C1 C 0.728(1) 0.971(2) 1.076(1)
C2 C 0.769(1) 0.892(1) 1.145(1)
C3 C 0.871(1) 0.767(2) 1.174(1)
C4 C 0.816(1) 0.679(1) 1.149(1)
C5 C 0.830(1) 0.641(1) 1.055(1)
C6 C 0.690(1) 1.030(1) 0.911(1)
C7 C 0.752(1) 1.115(2) 0.921(1)
C8 C 0.707(1) 1.198(1) 0.865(1)
C9 C 0.581(1) 0.583(1) 0.881(1)
C10 C 0.515(1) 0.620(2) 0.942(1)
C11 C 0.545(1) 0.626(2) 1.050(1)
O1 O 0.7492(9) 0.227(1) 1.136(1)
O2 O 0.629(1) 1.187(1) 0.823(1)
O3 O 0.6161(9) 0.582(1) 1.0864(9)
O5 O 0.519(3) 0.705(3) 1.092(3)
O6 O 0.380(1) 0.618(1) 1.232(1)
O7 O 0.546(1) 0.834(2) 1.129(1)
H1 H 0.7703 0.9468 0.9695
H2 H 0.7291 0.4668 0.9087
H3 H 0.8354 0.5182 0.9116
H4 H 0.7780 0.6610 0.8531
H5 H 0.7078 0.5768 0.7878
H6 H 0.5603 0.7498 0.8336
H7 H 0.6327 0.7141 0.7569
H8 H 0.6624 0.8730 0.8003
H9 H 0.7529 0.8025 0.8540
H10 H 0.6036 0.8768 0.9453
H11 H 0.6911 0.8057 0.9993
H12 H 0.8193 0.4904 1.1610
H13 H 0.8707 0.4472 1.0691
H14 H 0.7313 0.3637 1.0071
H15 H 0.6908 0.3992 1.1108
H16 H 0.6017 0.5160 0.9135
H17 H 0.5463 0.5777 0.8132
H18 H 0.4577 0.5746 0.9344
H19 H 0.4903 0.6911 0.9172
N1F N 0.7757(9) 0.552(1) 1.026(1)
C1F C 0.772(1) 0.529(2) 0.924(1)
C2F C 0.731(1) 0.608(1) 0.855(1)
N2F N 0.656(1) 0.652(1) 0.887(1)
C3F C 0.629(1) 0.733(2) 0.826(1)
C4F C 0.684(1) 0.821(1) 0.851(1)
C5F C 0.670(1) 0.859(1) 0.945(1)
Eu1D Eu 0.5000 0.7337(2) 1.2500
O2D O 0.371(1) 0.813(1) 1.177(1)
O2E O 0.629(1) 0.813(1) 1.323(1)
O5A O 0.481(3) 0.705(3) 1.408(3)
O6A O 0.620(1) 0.618(1) 1.268(1)
O7A O 0.454(1) 0.834(2) 1.371(1)
C6F C 0.810(1) 0.470(1) 1.089(1)
C7F C 0.748(1) 0.385(2) 1.079(1)
C8F C 0.793(1) 0.302(1) 1.135(1)
O2F O 0.871(1) 0.313(1) 1.177(1)
Eu1F Eu 1.0000 0.2337(2) 1.2500
H1F H 0.7297 0.5532 1.0305
H10F H 0.8964 0.6232 1.0547
H11F H 0.8089 0.6943 1.0007
H8F H 0.8376 0.6270 1.1997
H9F H 0.7471 0.6975 1.1460
H6F H 0.9397 0.7502 1.1664
H7F H 0.8673 0.7859 1.2431
C9F C 0.919(1) 0.917(1) 1.119(1)
C10F C 0.985(1) 0.880(2) 1.058(1)
C11F C 0.955(1) 0.874(2) 0.950(1)
O3F O 0.8839(9) 0.918(1) 0.9136(9)
O5F O 0.981(3) 0.795(3) 0.908(3)
Eu1B Eu 1.0000 0.7663(2) 0.7500
H18F H 1.0423 0.9254 1.0656
H19F H 1.0097 0.8089 1.0828
H16F H 0.8983 0.9840 1.0865
H17F H 0.9537 0.9223 1.1868
H4F H 0.7220 0.8390 1.1469
H5F H 0.7922 0.9232 1.2122
H2F H 0.7709 1.0332 1.0913
H3F H 0.6646 0.9818 1.0884
H12F H 0.6807 1.0096 0.8390
H13F H 0.6293 1.0528 0.9309
H14F H 0.7687 1.1363 0.9929
H15F H 0.8092 1.1008 0.8892
O1F O 0.7508(9) 1.273(1) 0.864(1)
O9 O 0.075(1) 0.660(1) 0.062(1)
O10 O 0.452(2) 1.022(2) 0.311(2)
loop_
_geom_bond_atom_site_label_1
_geom_bond_atom_site_label_2
_geom_bond_site_symmetry_1
_geom_bond_site_symmetry_2
Eu1 O2 1_555 1_555
N1 C1 1_555 1_555
N2 C2 1_555 1_555
C1 C2 1_555 1_555
C2 H4F 1_555 1_555
C3 N2 1_555 1_555
C4 C3 1_555 1_555
C5 C4 1_555 1_555
C6 N1 1_555 1_555
C7 C6 1_555 1_555
C8 C7 1_555 1_555
C9 C10 1_555 1_555
C10 C11 1_555 1_555
C11 O3 1_555 1_555
O1 C8F 1_555 1_555
O2 C8 1_555 1_555
O5 C11 1_555 1_555
O6 Eu1D 1_555 1_555
O7 Eu1D 1_555 1_555
H1 N1 1_555 1_555
H2 C1F 1_555 1_555
H3 C1F 1_555 1_555
H4 C2F 1_555 1_555
H5 C2F 1_555 1_555
H6 C3F 1_555 1_555
H7 C3F 1_555 1_555
H8 C4F 1_555 1_555
H9 C4F 1_555 1_555
H10 C5F 1_555 1_555
H11 C5F 1_555 1_555
H12 C6F 1_555 1_555
H13 C6F 1_555 1_555
H14 C7F 1_555 1_555
H15 C7F 1_555 1_555
H16 C9 1_555 1_555
H17 C9 1_555 1_555
H18 C10 1_555 1_555
H19 C10 1_555 1_555
N1F C5 1_555 1_555
C1F N1F 1_555 1_555
C2F C1F 1_555 1_555
N2F C9 1_555 1_555
C3F N2F 1_555 1_555
C4F C3F 1_555 1_555
C5F N1 1_555 1_555
Eu1D O5 1_555 1_555
O2D Eu1D 1_555 1_555
O2E Eu1D 1_555 1_555
O5A Eu1D 1_555 1_555
O6A Eu1D 1_555 1_555
O7A Eu1D 1_555 1_555
C6F N1F 1_555 1_555
C7F C6F 1_555 1_555
C8F C7F 1_555 1_555
O2F C8F 1_555 1_555
Eu1F O2F 1_555 1_555
H1F N1F 1_555 1_555
H10F C5 1_555 1_555
H11F C5 1_555 1_555
H8F C4 1_555 1_555
H9F C4 1_555 1_555
H6F C3 1_555 1_555
H7F C3 1_555 1_555
C9F N2 1_555 1_555
C10F C9F 1_555 1_555
C11F C10F 1_555 1_555
O3F C11F 1_555 1_555
O5F C11F 1_555 1_555
Eu1B O5F 1_555 1_555
H18F C10F 1_555 1_555
H19F C10F 1_555 1_555
H16F C9F 1_555 1_555
H17F C9F 1_555 1_555
H5F C2 1_555 1_555
H2F C1 1_555 1_555
H3F C1 1_555 1_555
H12F C6 1_555 1_555
H13F C6 1_555 1_555
H14F C7 1_555 1_555
H15F C7 1_555 1_555
O1F C8 1_555 1_555
C2F N2F 1_555 1_555
C4F C5F 1_555 1_555

#END
