
#######################################################################
#
#                 Cambridge Crystallographic Data Centre
#                                CCDC 
#
#######################################################################
#
# If this CIF has been generated from an entry in the Cambridge 
# Structural Database, then it will include bibliographic, chemical, 
# crystal, experimental, refinement or atomic coordinate data resulting 
# from the CCDC's data processing and validation procedures.
#
#######################################################################

data_NAGCAB
_chemical_formula_moiety         '(C26 H50 Mo12 N4 O65 P8 Zn3 2-)n'
_symmetry_cell_setting           tetragonal
_symmetry_space_group_name_H-M   'I 41/a c d'
_symmetry_Int_Tables_number      142
_space_group_name_Hall           '-I 4bd 2c'
loop_
_symmetry_equiv_pos_site_id
_symmetry_equiv_pos_as_xyz
1 x,y,z
2 1/2-x,-y,1/2+z
3 1/4-y,3/4+x,1/4+z
4 1/4+y,1/4-x,3/4+z
5 1/2-x,y,-z
6 x,-y,1/2-z
7 1/4+y,3/4+x,3/4-z
8 1/4-y,1/4-x,1/4-z
9 1/2+x,1/2+y,1/2+z
10 -x,1/2-y,z
11 3/4-y,1/4+x,3/4+z
12 3/4+y,3/4-x,1/4+z
13 -x,1/2+y,1/2-z
14 1/2+x,1/2-y,-z
15 3/4+y,1/4+x,1/4-z
16 3/4-y,3/4-x,3/4-z
17 -x,-y,-z
18 1/2+x,y,1/2-z
19 3/4+y,1/4-x,3/4-z
20 3/4-y,3/4+x,1/4-z
21 1/2+x,-y,z
22 -x,y,1/2+z
23 3/4-y,1/4-x,1/4+z
24 3/4+y,3/4+x,3/4+z
25 1/2-x,1/2-y,1/2-z
26 x,1/2+y,-z
27 1/4+y,3/4-x,1/4-z
28 1/4-y,1/4+x,3/4-z
29 x,1/2-y,1/2+z
30 1/2-x,1/2+y,z
31 1/4-y,3/4-x,3/4+z
32 1/4+y,1/4+x,1/4+z
_cell_length_a                   31.8033(4)
_cell_length_b                   31.8033(4)
_cell_length_c                   34.5593(8)
_cell_angle_alpha                90
_cell_angle_beta                 90
_cell_angle_gamma                90
_cell_volume                     34955
loop_
_atom_site_label
_atom_site_type_symbol
_atom_site_fract_x
_atom_site_fract_y
_atom_site_fract_z
N1 N 0.27806(16) 0.54339(15) -0.18279(15)
C1 C 0.14431(17) 0.46368(19) -0.20268(16)
H1 H 0.1635 0.4550 -0.2229
H2 H 0.1307 0.4895 -0.2108
C2 C 0.20598(19) 0.4980(2) -0.17273(17)
C5 C 0.1679(2) 0.4710(2) -0.1663(2)
H5 H 0.1766 0.4442 -0.1556
H6 H 0.1496 0.4845 -0.1476
C6 C 0.02384(19) 0.4359(2) -0.26971(15)
H7 H -0.0032 0.4469 -0.2720
C7 C 0.0796(2) 0.39973(15) -0.29780(14)
H8 H 0.0909 0.3858 -0.3190
C8 C 0.11026(16) 0.42858(16) -0.19605(14)
H9 H 0.1239 0.4023 -0.1893
H10 H 0.0919 0.4366 -0.1749
C9 C 0.04487(15) 0.43908(16) -0.23556(13)
H11 H 0.0323 0.4521 -0.2144
C11 C 0.10204(16) 0.40227(15) -0.26419(14)
H13 H 0.1287 0.3903 -0.2626
C12 C 0.08491(13) 0.42289(13) -0.23242(12)
N3 N 0.04203(17) 0.41693(15) -0.30029(12)
C17 C 0.24214(18) 0.56313(17) -0.17890(17)
H20 H 0.2419 0.5924 -0.1787
C18 C 0.20510(18) 0.54200(18) -0.17515(18)
H21 H 0.1797 0.5565 -0.1742
C19 C 0.2796(3) 0.5021(2) -0.1823(3)
H22 H 0.3051 0.4888 -0.1873
C20 C 0.2444(3) 0.4779(2) -0.1745(3)
H23 H 0.2466 0.4490 -0.1707
C3 C 0.12950(18) 0.28816(17) -0.08951(19)
H3 H 0.1440 0.3131 -0.0941
C4 C 0.12015(14) 0.21758(16) -0.10261(13)
H4 H 0.1280 0.1938 -0.1165
N2 N 0.13921(11) 0.25397(14) -0.10937(11)
C10 C 0.09809(15) 0.28718(14) -0.06210(16)
H12 H 0.0911 0.3115 -0.0487
C13 C 0.08879(14) 0.21463(14) -0.07521(12)
H14 H 0.0756 0.1890 -0.0706
C14 C -0.0000 0.2500 -0.05196(14)
H15 H 0.0004 0.2746 -0.0685
C15 C 0.07704(11) 0.25028(12) -0.05453(10)
C16 C 0.04008(10) 0.24934(12) -0.02763(10)
H16 H 0.0408 0.2736 -0.0106
H17 H 0.0409 0.2241 -0.0119
C3I C -0.12950(18) 0.21184(17) -0.08951(19)
H3I H -0.1440 0.1869 -0.0941
C4I C -0.12015(14) 0.28242(16) -0.10261(13)
H4I H -0.1280 0.3062 -0.1165
N2I N -0.13921(11) 0.24603(14) -0.10937(11)
C10I C -0.09809(15) 0.21282(14) -0.06210(16)
H12I H -0.0911 0.1885 -0.0487
C13I C -0.08879(14) 0.28537(14) -0.07521(12)
H14I H -0.0756 0.3110 -0.0706
H15I H -0.0004 0.2254 -0.0685
C15I C -0.07704(11) 0.24972(12) -0.05453(10)
C16I C -0.04008(10) 0.25066(12) -0.02763(10)
H16I H -0.0408 0.2264 -0.0106
H17I H -0.0409 0.2759 -0.0119
P1 P 0.05084(3) 0.50152(3) -0.82936(2)
P2 P 0.17618(2) 0.69861(2) -0.67500(2)
P3 P -0.03315(3) 0.32645(2) -0.92422(2)
P4 P 0.15376(2) 0.58464(3) -0.72768(2)
O1 O 0.22003(6) 0.71025(6) -0.65783(6)
O2 O 0.21739(7) 0.65015(6) -0.77710(6)
O3 O 0.15634(6) 0.73952(6) -0.69078(6)
O4 O -0.01698(8) 0.32929(7) -0.96586(6)
O5 O -0.03434(7) 0.48094(6) -0.94785(6)
O6 O 0.05809(6) 0.51715(6) -0.97272(6)
O7 O -0.06104(7) 0.36456(7) -0.91453(6)
O8 O 0.12432(7) 0.49616(7) -0.91862(6)
O9 O 0.00932(7) 0.54589(6) -0.91073(6)
O10 O -0.07000(7) 0.51855(8) -0.88048(7)
O11 O 0.09025(8) 0.58048(7) -0.92098(7)
O12 O 0.10658(7) 0.69321(7) -0.74374(6)
O13 O 0.14998(8) 0.67728(7) -0.64452(7)
O14 O -0.03309(7) 0.43531(7) -0.87543(6)
O15 O 0.18421(6) 0.66951(6) -0.71027(6)
O16 O 0.18590(6) 0.73168(6) -0.76623(6)
O17 O 0.00066(7) 0.32018(7) -0.89411(7)
O18 O 0.05816(7) 0.51868(8) -0.78929(6)
O19 O 0.20177(7) 0.58587(7) -0.72533(7)
O20 O 0.15624(7) 0.80649(7) -0.73439(6)
O21 O 0.07754(7) 0.52567(8) -0.85899(6)
O22 O 0.00431(7) 0.50413(7) -0.84009(6)
O23 O 0.13782(7) 0.61619(7) -0.75792(7)
O24 O -0.10806(7) 0.43683(8) -0.92257(7)
O25 O 0.14351(8) 0.67539(8) -0.81765(7)
O26 O 0.10778(8) 0.76571(8) -0.79328(7)
O27 O -0.06296(8) 0.28676(7) -0.92453(7)
O28 O 0.28596(8) 0.60646(7) -0.74161(7)
O29 O 0.13930(8) 0.54118(8) -0.73664(9)
O30 O 0.06374(9) 0.45373(8) -0.82798(7)
O31 O 0.13510(8) 0.59702(9) -0.68693(8)
O33 O 0.05141(14) 0.34439(13) -0.80808(10)
Mo1 Mo 0.128160(8) 0.749620(8) -0.750870(7)
Mo2 Mo 0.157110(8) 0.676710(8) -0.770650(7)
Mo3 Mo 0.074370(8) 0.530200(8) -0.919050(7)
Mo4 Mo -0.056440(8) 0.427040(8) -0.926840(7)
Mo5 Mo 0.244920(8) 0.633760(8) -0.724220(7)
Mo6 Mo -0.025890(8) 0.492720(8) -0.892420(7)
Zn1 Zn 0.097900(15) 0.5000 -0.7500
Zn2 Zn 0.2500 0.7500 -0.7500
Zn3 Zn 0.074740(10) 0.324740(10) -0.8750
P1E P 0.05084(3) 0.49848(3) -0.67064(2)
P2J P 0.05139(2) 0.42618(2) -0.92500(2)
P3N P 0.07645(2) 0.21685(3) -0.82578(2)
P4E P 0.15376(2) 0.41536(3) -0.77232(2)
O1J O 0.03975(6) 0.47003(6) -0.90783(6)
O1O O 0.03975(6) 0.52997(6) -0.59217(6)
O2E O 0.21739(7) 0.34985(6) -0.72290(6)
O3J O 0.01048(6) 0.40634(6) -0.94078(6)
O4K O 0.07929(7) 0.76698(8) -0.71586(6)
O4N O 0.07929(7) 0.23302(8) -0.78414(6)
O5E O -0.03434(7) 0.51906(6) -0.55215(6)
O5K O 0.23094(6) 0.78434(7) -0.69785(6)
O5S O 0.26906(6) 0.71566(7) -0.80215(6)
O6K O 0.26715(6) 0.69191(6) -0.72272(6)
O6E O 0.05809(6) 0.48285(6) -0.52728(6)
O6N O 0.26715(6) 0.30809(6) -0.77728(6)
O6S O 0.23285(6) 0.80809(6) -0.77728(6)
O7K O 0.11456(7) 0.81104(7) -0.66453(6)
O7N O 0.11456(7) 0.18896(7) -0.83547(6)
O8K O 0.24616(7) 0.62568(7) -0.66862(6)
O8E O 0.12432(7) 0.50384(7) -0.58138(6)
O8N O 0.24616(7) 0.37432(7) -0.83138(6)
O9E O 0.00932(7) 0.45411(6) -0.58927(6)
O10E O -0.07000(7) 0.48145(8) -0.61952(7)
O11E O 0.09025(8) 0.41952(7) -0.57902(7)
O12E O 0.10658(7) 0.30679(7) -0.75626(6)
O12J O 0.05679(7) 0.35658(7) -0.99374(6)
O13J O 0.07272(7) 0.39998(8) -0.89452(7)
O13E O 0.14998(8) 0.32272(7) -0.85548(7)
O14E O -0.03309(7) 0.56469(7) -0.62457(6)
O14K O 0.18531(7) 0.78309(7) -0.62543(6)
O15J O 0.08049(6) 0.43421(6) -0.96027(6)
O15E O 0.18421(6) 0.33049(6) -0.78973(6)
O16E O 0.18590(6) 0.26832(6) -0.73377(6)
O16J O 0.01832(6) 0.43590(6) -1.01623(6)
O16X O 0.31410(6) 0.76832(6) -0.73377(6)
O17N O 0.07018(7) 0.25066(7) -0.85589(7)
O18E O 0.05816(7) 0.48132(8) -0.71071(6)
O19E O 0.20177(7) 0.41413(7) -0.77467(7)
O20J O -0.05649(7) 0.40624(7) -0.98439(6)
O21E O 0.07754(7) 0.47433(8) -0.64101(6)
O22E O 0.00431(7) 0.49587(7) -0.65991(6)
O23E O 0.13782(7) 0.38381(7) -0.74208(7)
O24K O 0.18683(8) 0.85806(7) -0.67257(7)
O25E O 0.14351(8) 0.32461(8) -0.68235(7)
O26J O -0.01571(8) 0.35778(8) -1.04328(7)
O27N O 0.03676(7) 0.18704(8) -0.82547(7)
O28E O 0.28596(8) 0.39354(7) -0.75839(7)
O29E O 0.13930(8) 0.45882(8) -0.76336(9)
O30E O 0.06374(9) 0.54627(8) -0.67202(7)
O31E O 0.13510(8) 0.40298(9) -0.81307(8)
O33N O 0.09439(13) 0.30141(14) -0.94192(10)
Mo1E Mo 0.128160(8) 0.250380(8) -0.749130(7)
Mo1J Mo 0.000380(8) 0.378160(8) -1.000870(7)
Mo2E Mo 0.157110(8) 0.323290(8) -0.729350(7)
Mo2J Mo 0.073290(8) 0.407110(8) -1.020650(7)
Mo3E Mo 0.074370(8) 0.469800(8) -0.580950(7)
Mo3K Mo 0.280200(8) 0.675630(8) -0.669050(7)
Mo3N Mo 0.280200(8) 0.324370(8) -0.830950(7)
Mo4E Mo -0.056440(8) 0.572960(8) -0.573160(7)
Mo4K Mo 0.177040(8) 0.806440(8) -0.676840(7)
Mo4N Mo 0.177040(8) 0.193560(8) -0.823160(7)
Mo5E Mo 0.244920(8) 0.366240(8) -0.775780(7)
Mo5J Mo 0.116240(8) 0.494920(8) -0.974220(7)
Mo5O Mo 0.116240(8) 0.505080(8) -0.525780(7)
Mo6E Mo -0.025890(8) 0.507280(8) -0.607580(7)
Mo6K Mo 0.242720(8) 0.775890(8) -0.642420(7)
Zn2J Zn 0.0000 0.5000 -1.0000
Zn2E Zn 0.2500 0.2500 -0.7500
Zn2O Zn 0.0000 0.5000 -0.5000
Zn3E Zn 0.074740(10) 0.675260(10) -0.6250
O32 O 0.17490(12) 0.39491(11) -0.08097(10)
H18 H 0.1778 0.3702 -0.0721
H19 H 0.1747 0.4158 -0.0657
loop_
_geom_bond_atom_site_label_1
_geom_bond_atom_site_label_2
_geom_bond_site_symmetry_1
_geom_bond_site_symmetry_2
N1 C17 1_555 1_555
C1 H1 1_555 1_555
H2 C1 1_555 1_555
C2 C5 1_555 1_555
C3 H3 1_555 1_555
C4 H4 1_555 1_555
N2 C3 1_555 1_555
C5 C1 1_555 1_555
H5 C5 1_555 1_555
H6 C5 1_555 1_555
C6 H7 1_555 1_555
C7 H8 1_555 1_555
C8 C1 1_555 1_555
H9 C8 1_555 1_555
H10 C8 1_555 1_555
C9 C6 1_555 1_555
H11 C9 1_555 1_555
C10 C3 1_555 1_555
H12 C10 1_555 1_555
C11 C7 1_555 1_555
H13 C11 1_555 1_555
C12 C8 1_555 1_555
C13 C4 1_555 1_555
H14 C13 1_555 1_555
P1 O18 1_555 1_555
P2 O1 1_555 1_555
P3 O4 1_555 1_555
P4 O19 1_555 1_555
O1 Mo3K 1_555 1_555
O2 Mo2 1_555 1_555
O3 P2 1_555 1_555
O4 Mo1J 1_555 1_555
O5 Mo4 1_555 1_555
O6 Mo3 1_555 1_555
O7 P3 1_555 1_555
O8 Mo3 1_555 1_555
O9 Mo3 1_555 1_555
O10 Mo6 1_555 1_555
O11 Mo3 1_555 1_555
O12 Mo1 1_555 1_555
O13 P2 1_555 1_555
O14 Mo4 1_555 1_555
O15 P2 1_555 1_555
O16 Mo1 1_555 1_555
O17 P3 1_555 1_555
O18 Zn1 1_555 1_555
O19 Mo5 1_555 1_555
O20 Mo1 1_555 1_555
O21 P1 1_555 1_555
O22 P1 1_555 1_555
O23 P4 1_555 1_555
O24 Mo4 1_555 1_555
O25 Mo2 1_555 1_555
O26 Mo1 1_555 1_555
O27 P3 1_555 1_555
O28 Mo5 1_555 1_555
O29 P4 1_555 1_555
O30 P1 1_555 1_555
O31 P4 1_555 1_555
C14 H15 1_555 1_555
C15 C10 1_555 1_555
C16 C14 1_555 1_555
H16 C16 1_555 1_555
H17 C16 1_555 1_555
O32 H18 1_555 1_555
H19 O32 1_555 1_555
O33 Zn3 1_555 1_555
N3 C6 1_555 1_555
C17 H20 1_555 1_555
C18 C2 1_555 1_555
H21 C18 1_555 1_555
C19 N1 1_555 1_555
H22 C19 1_555 1_555
C20 C2 1_555 1_555
H23 C20 1_555 1_555
Mo1 O3 1_555 1_555
Mo2 O12 1_555 1_555
Mo3 O21 1_555 1_555
Mo4 O7 1_555 1_555
Mo5 O2 1_555 1_555
Mo6 O5 1_555 1_555
Zn1 O29 1_555 1_555
Zn2 O16 1_555 1_555
Zn3 O17 1_555 1_555
C3I H3I 1_555 1_555
C4I H4I 1_555 1_555
N2I C3I 1_555 1_555
C10I C3I 1_555 1_555
H12I C10I 1_555 1_555
C13I C4I 1_555 1_555
H14I C13I 1_555 1_555
P1E O18E 1_555 1_555
P2J O1J 1_555 1_555
P3N O4N 1_555 1_555
P4E O19E 1_555 1_555
O1J Mo3 1_555 1_555
O1O Mo3E 1_555 1_555
O2E Mo2E 1_555 1_555
O3J Mo4 1_555 1_555
O4K Mo1 1_555 1_555
O4N Mo1E 1_555 1_555
O5E Mo4E 1_555 1_555
O5K Zn2 1_555 1_555
O5S Zn2 1_555 1_555
O6K Mo5 1_555 1_555
O6E Mo3E 1_555 1_555
O6N Mo3N 1_555 1_555
O6S Zn2 1_555 1_555
O7K Mo4K 1_555 1_555
O7N P3N 1_555 1_555
O8K Mo5 1_555 1_555
O8E Mo3E 1_555 1_555
O8N Mo3N 1_555 1_555
O9E Mo3E 1_555 1_555
O10E Mo6E 1_555 1_555
O11E Mo3E 1_555 1_555
O12E Mo1E 1_555 1_555
O12J Mo1J 1_555 1_555
O13J Zn3 1_555 1_555
O13E Zn3 1_555 1_555
O14E Mo4E 1_555 1_555
O14K Mo4K 1_555 1_555
O15J P2J 1_555 1_555
O15E Mo2E 1_555 1_555
O16E Mo1E 1_555 1_555
O16J Mo1J 1_555 1_555
O16X Zn2 1_555 1_555
O17N Zn3 1_555 1_555
O18E Zn1 1_555 1_555
O19E Mo5E 1_555 1_555
O20J Mo4 1_555 1_555
O21E P1E 1_555 1_555
O22E P1E 1_555 1_555
O23E P4E 1_555 1_555
O24K Mo4K 1_555 1_555
O25E Mo2E 1_555 1_555
O26J Mo1J 1_555 1_555
O27N P3N 1_555 1_555
O28E Mo5E 1_555 1_555
O29E Zn1 1_555 1_555
O30E P1E 1_555 1_555
O31E P4E 1_555 1_555
H15I C14 1_555 1_555
C15I C10I 1_555 1_555
C16I C14 1_555 1_555
H16I C16I 1_555 1_555
H17I C16I 1_555 1_555
O33N Zn3 1_555 1_555
Mo1E Mo2E 1_555 1_555
Mo1J O3J 1_555 1_555
Mo2E O12E 1_555 1_555
Mo2J O12J 1_555 1_555
Mo3E O21E 1_555 1_555
Mo3K Mo5 1_555 1_555
Mo3N Mo5E 1_555 1_555
Mo4E Mo6E 1_555 1_555
Mo4K O3 1_555 1_555
Mo4N O7N 1_555 1_555
Mo5E O2E 1_555 1_555
Mo5J O6 1_555 1_555
Mo5O O6E 1_555 1_555
Mo6E O1O 1_555 1_555
Mo6K O1 1_555 1_555
Zn2J O5 1_555 1_555
Zn2E O6N 1_555 1_555
Zn2O O5E 1_555 1_555
Zn3E O13 1_555 1_555
C4 N2 1_555 1_555
C7 N3 1_555 1_555
C9 C12 1_555 1_555
C11 C12 1_555 1_555
C13 C15 1_555 1_555
O6 Zn2J 1_555 1_555
O8 Mo5J 1_555 1_555
O9 Mo6 1_555 1_555
O14 Mo6 1_555 1_555
O15 Mo2 1_555 1_555
O15 Mo5 1_555 1_555
O16 Mo2 1_555 1_555
O20 Mo4K 1_555 1_555
O22 Mo6 1_555 1_555
O23 Mo2 1_555 1_555
C15 C16 1_555 1_555
C17 C18 1_555 1_555
C19 C20 1_555 1_555
Mo1 Mo2 1_555 1_555
Mo3 Mo5J 1_555 1_555
Mo4 Mo6 1_555 1_555
Mo6 O1J 1_555 1_555
Zn2 O6K 1_555 1_555
C4I N2I 1_555 1_555
C13I C15I 1_555 1_555
P2J O3J 1_555 1_555
P2J O13J 1_555 1_555
P3N O17N 1_555 1_555
P4E O29E 1_555 1_555
O5E Mo6E 1_555 1_555
O5K Mo4K 1_555 1_555
O5K Mo6K 1_555 1_555
O6K Mo3K 1_555 1_555
O6E Zn2O 1_555 1_555
O6N Mo5E 1_555 1_555
O8K Mo3K 1_555 1_555
O8E Mo5O 1_555 1_555
O8N Mo5E 1_555 1_555
O9E Mo6E 1_555 1_555
O14E Mo6E 1_555 1_555
O14K Mo6K 1_555 1_555
O15J Mo2J 1_555 1_555
O15J Mo5J 1_555 1_555
O15E Mo5E 1_555 1_555
O16E Mo2E 1_555 1_555
O16E Zn2E 1_555 1_555
O16J Mo2J 1_555 1_555
O16J Zn2J 1_555 1_555
O20J Mo1J 1_555 1_555
O22E Mo6E 1_555 1_555
O23E Mo2E 1_555 1_555
C15I C16I 1_555 1_555
Mo1J Mo2J 1_555 1_555
Mo3E Mo5O 1_555 1_555
Mo4K Mo6K 1_555 1_555

#END
