
#######################################################################
#
#                 Cambridge Crystallographic Data Centre
#                                CCDC 
#
#######################################################################
#
# If this CIF has been generated from an entry in the Cambridge 
# Structural Database, then it will include bibliographic, chemical, 
# crystal, experimental, refinement or atomic coordinate data resulting 
# from the CCDC's data processing and validation procedures.
#
#######################################################################

data_EMIREX
_chemical_formula_moiety         '(C20 H42 Ba1 N10 O15 S2)n'
_symmetry_cell_setting           tetragonal
_symmetry_space_group_name_H-M   'P 43'
_symmetry_Int_Tables_number      78
_space_group_name_Hall           'P 4cw'
loop_
_symmetry_equiv_pos_site_id
_symmetry_equiv_pos_as_xyz
1 x,y,z
2 -x,-y,1/2+z
3 -y,x,3/4+z
4 y,-x,1/4+z
_cell_length_a                   21.6978(2)
_cell_length_b                   21.6978(2)
_cell_length_c                   7.40570(10)
_cell_angle_alpha                90
_cell_angle_beta                 90
_cell_angle_gamma                90
_cell_volume                     3486.56
loop_
_atom_site_label
_atom_site_type_symbol
_atom_site_fract_x
_atom_site_fract_y
_atom_site_fract_z
_atom_site_U_iso_or_equiv
_atom_site_thermal_displace_type
Ba1 Ba 0.957253(10) 0.462796(9) 0.21367(4) 0.0162 Uani
N1 N 0.81697(14) 0.19326(14) 0.4534(5) 0.0180 Uani
C1 C 0.85107(19) 0.20849(18) 0.3112(6) 0.0191 Uani
N2 N 0.90398(16) 0.23818(16) 0.3398(5) 0.0217 Uani
C2 C 0.9245(2) 0.25853(19) 0.5156(6) 0.0235 Uani
C3 C 0.94256(17) 0.32663(17) 0.5134(5) 0.0140 Uani
O1 O 0.96619(13) 0.34813(12) 0.3717(4) 0.0207 Uani
O2 O 0.93432(13) 0.35532(13) 0.6595(4) 0.0211 Uani
C4 C 0.9803(3) 0.22122(18) 0.5826(9) 0.0450 Uani
C5 C 0.9821(5) 0.1512(3) 0.568(3) 0.0427 Uani
S1 S 1.04813(18) 0.10993(17) 0.5036(8) 0.0558 Uani
C6 C 1.0326(12) 0.1124(11) 0.2713(12) 0.0843 Uani
N3 N 0.83557(17) 0.19498(17) 0.1346(5) 0.0231 Uani
C11 C 0.8732(2) 0.2181(3) -0.0147(7) 0.0380 Uani
C12 C 0.7834(2) 0.15979(19) 0.0938(6) 0.0243 Uani
O3 O 0.77333(15) 0.14408(16) -0.0624(4) 0.0321 Uani
C13 C 0.74418(19) 0.14520(18) 0.2475(6) 0.0206 Uani
N4 N 0.69166(15) 0.11603(15) 0.2017(6) 0.0213 Uani
O4 O 0.65552(13) 0.10002(15) 0.3312(4) 0.0267 Uani
C14 C 0.76370(18) 0.16220(18) 0.4246(6) 0.0193 Uani
N5 N 0.73105(17) 0.14872(18) 0.5679(5) 0.0257 Uani
N6 N 0.69870(15) 0.67143(15) 0.2500(5) 0.0195 Uani
C15 C 0.72001(17) 0.64154(18) 0.1063(6) 0.0268 Uani
N7 N 0.74292(16) 0.58507(15) 0.1249(5) 0.0194 Uani
C16 C 0.74280(18) 0.55149(19) 0.2962(6) 0.0198 Uani
C17 C 0.80928(19) 0.53628(19) 0.3560(6) 0.0201 Uani
O5 O 0.84853(12) 0.52709(13) 0.2390(4) 0.0237 Uani
O6 O 0.81792(14) 0.53351(14) 0.5266(4) 0.0234 Uani
C18 C 0.7085(2) 0.4896(2) 0.2734(7) 0.0253 Uani
C19 C 0.6403(2) 0.4970(2) 0.2298(9) 0.0363 Uani
S4 S 0.60579(6) 0.42868(6) 0.1335(2) 0.0450 Uani
C20 C 0.6341(3) 0.4343(3) -0.0931(9) 0.0510 Uani
N8 N 0.72092(15) 0.66618(15) -0.0655(5) 0.0181 Uani
C21 C 0.7461(2) 0.6308(2) -0.2175(6) 0.0257 Uani
C22 C 0.69186(19) 0.72212(18) -0.1035(6) 0.0191 Uani
O7 O 0.69041(16) 0.74174(14) -0.2600(4) 0.0280 Uani
C23 C 0.66617(18) 0.75384(18) 0.0503(6) 0.0168 Uani
N9 N 0.63596(15) 0.80634(15) 0.0074(5) 0.0199 Uani
O8 O 0.60948(13) 0.83649(13) 0.1321(4) 0.0225 Uani
C24 C 0.67291(16) 0.72692(17) 0.2261(6) 0.0177 Uani
N10 N 0.65346(17) 0.75685(17) 0.3697(5) 0.0243 Uani
O9 O 0.93625(13) 0.54798(11) -0.0689(4) 0.0183 Uani
O10 O 1.06933(13) 0.52130(12) 0.0827(4) 0.0190 Uani
O11 O 1.01385(12) 0.41948(12) -0.1166(4) 0.0189 Uani
O12 O 0.87330(12) 0.40261(12) -0.0322(5) 0.0223 Uani
H1 H 0.9278 0.2458 0.2462 0.0260 Uiso
H2 H 0.8900 0.2529 0.6034 0.0280 Uiso
H3 H 1.0169 0.2371 0.5178 0.0540 Uiso
H4 H 0.9861 0.2315 0.7117 0.0540 Uiso
H10 H 0.9696 0.1349 0.6871 0.0510 Uiso
H11 H 1.0650 0.0903 0.2057 0.1270 Uiso
H12 H 1.0315 0.1554 0.2310 0.1270 Uiso
H13 H 0.9926 0.0929 0.2475 0.1270 Uiso
H17 H 0.9493 0.1368 0.4907 0.0510 Uiso
H33 H 0.8802 0.2624 0.0009 0.0570 Uiso
H34 H 0.8518 0.2108 -0.1292 0.0570 Uiso
H35 H 0.9129 0.1965 -0.0158 0.0570 Uiso
H36 H 0.7441 0.1598 0.6756 0.0310 Uiso
H37 H 0.6961 0.1286 0.5565 0.0310 Uiso
H38 H 0.7589 0.5670 0.0295 0.0230 Uiso
H39 H 0.7220 0.5768 0.3912 0.0240 Uiso
H40 H 0.7284 0.4658 0.1754 0.0300 Uiso
H41 H 0.7127 0.4655 0.3863 0.0300 Uiso
H42 H 0.6353 0.5316 0.1441 0.0440 Uiso
H43 H 0.6180 0.5078 0.3420 0.0440 Uiso
H44 H 0.6167 0.4710 -0.1510 0.0760 Uiso
H45 H 0.6220 0.3976 -0.1611 0.0760 Uiso
H46 H 0.6792 0.4375 -0.0912 0.0760 Uiso
H47 H 0.7891 0.6199 -0.1920 0.0390 Uiso
H48 H 0.7442 0.6558 -0.3276 0.0390 Uiso
H49 H 0.7219 0.5931 -0.2343 0.0390 Uiso
H50 H 0.6576 0.7403 0.4775 0.0290 Uiso
H51 H 0.6363 0.7934 0.3579 0.0290 Uiso
H52 H 0.9016 0.5341 -0.0990 0.0220 Uiso
H53 H 0.9272 0.5818 -0.0204 0.0220 Uiso
H54 H 1.0729 0.5585 0.1128 0.0230 Uiso
H55 H 1.1041 0.5046 0.0714 0.0230 Uiso
H56 H 1.0419 0.3983 -0.0692 0.0230 Uiso
H57 H 0.9928 0.3971 -0.1856 0.0230 Uiso
H58 H 0.8506 0.3841 0.0418 0.0270 Uiso
H59 H 0.8839 0.3775 -0.1129 0.0270 Uiso
O8C O 0.83649(13) 0.39052(13) 0.3821(4) 0.0225 Uani
O9A O 1.06375(13) 0.45202(11) 0.4311(4) 0.0183 Uani
O10A O 0.93067(13) 0.47870(12) 0.5827(4) 0.0190 Uani
O11A O 0.98615(12) 0.58052(12) 0.3834(4) 0.0189 Uani
Ba1B Ba 0.537204(9) 0.957253(10) -0.03633(4) 0.0162 Uani
Ba1A Ba 1.042747(10) 0.537204(9) -0.28633(4) 0.0162 Uani
H52A H 1.0984 0.4659 0.4010 0.0220 Uiso
H53A H 1.0728 0.4182 0.4796 0.0220 Uiso
H54A H 0.9271 0.4415 0.6128 0.0230 Uiso
H55A H 0.8959 0.4954 0.5714 0.0230 Uiso
H56A H 0.9581 0.6017 0.4308 0.0230 Uiso
H57A H 1.0072 0.6029 0.3144 0.0230 Uiso
O13 O 0.7905(2) 0.49769(17) 0.8651(5) 0.0560 Uani
H60 H 0.8159 0.4708 0.8988 0.0670 Uiso
H61 H 0.7930 0.5021 0.7526 0.0670 Uiso
O14 O 1.10685(14) 0.36521(14) 0.0764(5) 0.0272 Uani
H62 H 1.1312 0.3952 0.0843 0.0330 Uiso
H63 H 1.1086 0.3511 0.1820 0.0330 Uiso
O15 O 1.01064(16) 0.26337(17) 0.1120(6) 0.0428 Uani
H64 H 1.0123 0.2950 0.1771 0.0520 Uiso
H65 H 1.0467 0.2498 0.1233 0.0520 Uiso
loop_
_atom_site_aniso_label
_atom_site_aniso_U_11
_atom_site_aniso_U_22
_atom_site_aniso_U_33
_atom_site_aniso_U_23
_atom_site_aniso_U_13
_atom_site_aniso_U_12
Ba1 0.02159(11) 0.01554(10) 0.01155(11) 0.00103(9) -0.00143(9) 0.00029(8)
N1 0.0230(15) 0.0178(14) 0.0132(17) 0.0015(14) -0.0011(15) -0.0080(11)
C1 0.024(2) 0.0162(18) 0.017(2) 0.0006(15) -0.0014(16) -0.0076(15)
N2 0.0250(17) 0.0230(17) 0.0171(19) 0.0022(14) 0.0009(15) -0.0125(14)
C2 0.035(2) 0.0185(19) 0.017(2) 0.0007(15) -0.0050(17) -0.0065(17)
C3 0.0141(16) 0.0160(17) 0.0119(19) 0.0007(13) -0.0048(13) -0.0013(13)
O1 0.0209(14) 0.0176(13) 0.0237(17) 0.0003(12) 0.0035(12) -0.0021(11)
O2 0.0270(15) 0.0197(14) 0.0165(16) -0.0023(11) -0.0028(11) -0.0018(11)
C4 0.070(4) 0.021(2) 0.044(4) 0.001(2) -0.034(3) 0.004(2)
C5 0.086(9) 0.016(3) 0.026(7) -0.006(3) 0.005(6) 0.010(4)
S1 0.0432(19) 0.0331(18) 0.091(4) 0.006(2) -0.022(2) 0.0097(15)
C6 0.105(16) 0.074(13) 0.074(15) -0.008(11) -0.010(13) 0.029(12)
N3 0.0261(18) 0.0290(19) 0.0143(18) -0.0004(15) 0.0015(15) -0.0146(15)
C11 0.044(3) 0.058(3) 0.012(2) -0.001(2) 0.003(2) -0.027(2)
C12 0.030(2) 0.023(2) 0.020(2) 0.0015(17) -0.0009(18) -0.0105(17)
O3 0.0398(18) 0.0464(19) 0.0101(16) -0.0023(14) -0.0032(14) -0.0203(15)
C13 0.0251(19) 0.0198(18) 0.017(2) 0.0009(15) 0.0002(16) -0.0040(15)
N4 0.0220(15) 0.0224(15) 0.0195(18) 0.0000(16) 0.0009(15) -0.0040(12)
O4 0.0223(15) 0.0363(17) 0.0214(17) -0.0075(13) 0.0051(13) -0.0129(13)
C14 0.0233(19) 0.0195(18) 0.015(2) -0.0010(15) -0.0001(15) -0.0041(15)
N5 0.0241(18) 0.039(2) 0.0141(19) -0.0025(16) 0.0035(14) -0.0127(15)
N6 0.0244(16) 0.0211(16) 0.0131(19) -0.0001(13) 0.0004(13) 0.0050(13)
C15 0.0244(18) 0.032(2) 0.024(2) 0.0028(17) -0.0032(16) -0.0017(15)
N7 0.0270(18) 0.0210(17) 0.0103(18) 0.0035(14) 0.0039(14) 0.0084(13)
C16 0.0203(19) 0.022(2) 0.017(2) 0.0028(16) 0.0042(16) 0.0061(15)
C17 0.023(2) 0.0183(19) 0.019(2) 0.0064(16) 0.0026(17) 0.0042(15)
O5 0.0214(13) 0.0313(15) 0.0185(17) 0.0038(13) 0.0023(12) 0.0051(11)
O6 0.0265(15) 0.0262(15) 0.0176(16) 0.0036(12) -0.0008(12) 0.0031(12)
C18 0.026(2) 0.024(2) 0.026(2) 0.0070(17) 0.0014(17) 0.0039(17)
C19 0.026(2) 0.036(2) 0.047(3) 0.011(3) 0.001(2) -0.0016(18)
S4 0.0360(7) 0.0393(7) 0.0596(10) 0.0117(7) -0.0058(6) -0.0125(5)
C20 0.056(4) 0.048(3) 0.049(4) -0.005(3) -0.008(3) -0.001(3)
N8 0.0225(16) 0.0195(15) 0.0122(19) 0.0039(13) 0.0015(13) 0.0063(12)
C21 0.033(2) 0.029(2) 0.015(2) 0.0005(17) 0.0032(18) 0.0074(18)
C22 0.0233(19) 0.0191(18) 0.015(2) 0.0027(15) -0.0005(15) 0.0038(15)
O7 0.0447(18) 0.0251(14) 0.0143(17) 0.0018(13) -0.0016(14) 0.0108(13)
C23 0.0212(19) 0.0153(18) 0.014(2) -0.0001(15) -0.0016(15) 0.0003(14)
N9 0.0228(16) 0.0140(15) 0.023(2) -0.0025(13) -0.0015(14) 0.0014(12)
O8 0.0275(15) 0.0169(13) 0.0232(16) -0.0034(12) 0.0020(13) 0.0033(11)
C24 0.0151(16) 0.0231(17) 0.015(2) -0.0001(18) -0.0023(16) 0.0005(13)
N10 0.034(2) 0.0280(19) 0.0110(18) -0.0013(15) 0.0005(15) 0.0114(15)
O9 0.0231(13) 0.0137(12) 0.0182(17) -0.0016(10) -0.0020(12) -0.0007(10)
O10 0.0213(14) 0.0163(13) 0.0195(16) -0.0033(11) 0.0053(11) -0.0042(11)
O11 0.0159(13) 0.0195(13) 0.0212(16) -0.0048(12) -0.0039(11) -0.0002(10)
O12 0.0227(13) 0.0248(13) 0.0193(15) 0.0010(14) 0.0035(14) -0.0044(10)
O8C 0.0169 0.0275 0.0232 -0.002 -0.0034 -0.0033
O9A 0.0231 0.0137 0.0182 0.0016 0.002 -0.0007
O10A 0.0213 0.0163 0.0195 0.0033 -0.0053 -0.0042
O11A 0.0159 0.0195 0.0212 0.0048 0.0039 -0.0002
Ba1B 0.01554 0.02159 0.01155 -0.00143 -0.00103 -0.00029
Ba1A 0.02159 0.01554 0.01155 -0.00103 0.00143 0.00029
O13 0.106(4) 0.045(2) 0.017(2) -0.0061(17) -0.009(2) 0.042(2)
O14 0.0332(17) 0.0257(15) 0.0228(17) 0.0024(13) -0.0080(14) -0.0006(13)
O15 0.0344(19) 0.047(2) 0.047(3) -0.0118(19) 0.0079(17) -0.0118(16)
loop_
_geom_bond_atom_site_label_1
_geom_bond_atom_site_label_2
_geom_bond_site_symmetry_1
_geom_bond_site_symmetry_2
Ba1 O1 1_555 1_555
N1 C1 1_555 1_555
C1 N2 1_555 1_555
N2 C2 1_555 1_555
C2 C3 1_555 1_555
C3 O1 1_555 1_555
O2 C3 1_555 1_555
C4 C2 1_555 1_555
C5 C4 1_555 1_555
S1 C5 1_555 1_555
C6 S1 1_555 1_555
N3 C1 1_555 1_555
C11 N3 1_555 1_555
C12 N3 1_555 1_555
O3 C12 1_555 1_555
C13 C12 1_555 1_555
N4 C13 1_555 1_555
O4 N4 1_555 1_555
C14 N1 1_555 1_555
N5 C14 1_555 1_555
N6 C15 1_555 1_555
C15 N7 1_555 1_555
N7 C16 1_555 1_555
C16 C17 1_555 1_555
C17 O5 1_555 1_555
O5 Ba1 1_555 1_555
O6 C17 1_555 1_555
C18 C16 1_555 1_555
C19 C18 1_555 1_555
S4 C19 1_555 1_555
C20 S4 1_555 1_555
N8 C15 1_555 1_555
C21 N8 1_555 1_555
C22 N8 1_555 1_555
O7 C22 1_555 1_555
C23 C22 1_555 1_555
N9 C23 1_555 1_555
O8 N9 1_555 1_555
C24 N6 1_555 1_555
N10 C24 1_555 1_555
O9 Ba1 1_555 1_555
O10 Ba1 1_555 1_555
O11 Ba1 1_555 1_555
O12 Ba1 1_555 1_555
O13 H60 1_555 1_555
O14 H62 1_555 1_555
O15 H64 1_555 1_555
H1 N2 1_555 1_555
H2 C2 1_555 1_555
H3 C4 1_555 1_555
H4 C4 1_555 1_555
H10 C5 1_555 1_555
H11 C6 1_555 1_555
H12 C6 1_555 1_555
H13 C6 1_555 1_555
H17 C5 1_555 1_555
H33 C11 1_555 1_555
H34 C11 1_555 1_555
H35 C11 1_555 1_555
H36 N5 1_555 1_555
H37 N5 1_555 1_555
H38 N7 1_555 1_555
H39 C16 1_555 1_555
H40 C18 1_555 1_555
H41 C18 1_555 1_555
H42 C19 1_555 1_555
H43 C19 1_555 1_555
H44 C20 1_555 1_555
H45 C20 1_555 1_555
H46 C20 1_555 1_555
H47 C21 1_555 1_555
H48 C21 1_555 1_555
H49 C21 1_555 1_555
H50 N10 1_555 1_555
H51 N10 1_555 1_555
H52 O9 1_555 1_555
H53 O9 1_555 1_555
H54 O10 1_555 1_555
H55 O10 1_555 1_555
H56 O11 1_555 1_555
H57 O11 1_555 1_555
H58 O12 1_555 1_555
H59 O12 1_555 1_555
H61 O13 1_555 1_555
H63 O14 1_555 1_555
H65 O15 1_555 1_555
O8C Ba1 1_555 1_555
O9A Ba1 1_555 1_555
O10A Ba1 1_555 1_555
O11A Ba1 1_555 1_555
Ba1B O8 1_555 1_555
Ba1A O9 1_555 1_555
H52A O9A 1_555 1_555
H53A O9A 1_555 1_555
H54A O10A 1_555 1_555
H55A O10A 1_555 1_555
H56A O11A 1_555 1_555
H57A O11A 1_555 1_555
C13 C14 1_555 1_555
C23 C24 1_555 1_555
O10 Ba1A 1_555 1_555
O11 Ba1A 1_555 1_555

#END
