
#######################################################################
#
#                 Cambridge Crystallographic Data Centre
#                                CCDC 
#
#######################################################################
#
# If this CIF has been generated from an entry in the Cambridge 
# Structural Database, then it will include bibliographic, chemical, 
# crystal, experimental, refinement or atomic coordinate data resulting 
# from the CCDC's data processing and validation procedures.
#
#######################################################################

data_LERNEC01
_chemical_formula_moiety         '(C11 H10 Co2 N2 O8)n'
_symmetry_cell_setting           monoclinic
_symmetry_space_group_name_H-M   'C 2/c'
_symmetry_Int_Tables_number      15
_space_group_name_Hall           '-C 2yc'
loop_
_symmetry_equiv_pos_site_id
_symmetry_equiv_pos_as_xyz
1 x,y,z
2 1/2+x,1/2+y,z
3 -x,y,1/2-z
4 1/2-x,1/2+y,1/2-z
5 -x,-y,-z
6 1/2-x,1/2-y,-z
7 x,-y,1/2+z
8 1/2+x,1/2-y,1/2+z
_cell_length_a                   23.702(3)
_cell_length_b                   10.0616(11)
_cell_length_c                   15.0200(17)
_cell_angle_alpha                90
_cell_angle_beta                 129.070(2)
_cell_angle_gamma                90
_cell_volume                     2780.96
loop_
_atom_site_label
_atom_site_type_symbol
_atom_site_fract_x
_atom_site_fract_y
_atom_site_fract_z
Co1 Co 0.24480(3) 0.72309(6) 0.10301(5)
Co2 Co -0.21483(3) 0.46525(6) -0.26298(6)
C1 C -0.1036(2) 0.6564(5) -0.2218(4)
C2 C -0.0218(2) 0.6751(5) -0.1509(4)
C3 C 0.0092(3) 0.7980(5) -0.1298(5)
H1 H -0.0203 0.8754 -0.1616
C4 C 0.0834(3) 0.8084(5) -0.0623(5)
H2 H 0.1038 0.8948 -0.0468
C5 C 0.0971(3) 0.5848(5) -0.0414(5)
H3 H 0.1273 0.5083 -0.0136
C6 C 0.0236(3) 0.5668(5) -0.1042(5)
H4 H 0.0043 0.4801 -0.1153
C7 C 0.2045(3) 0.8289(5) 0.2468(4)
C8 C 0.2003(5) 0.9521(9) 0.3050(8)
H5 H 0.1495 0.9865 0.2582
C9 C 0.2253(4) 0.8973(7) 0.4194(6)
H6 H 0.1937 0.8211 0.4035
H7 H 0.2753 0.8624 0.4618
C12 C 0.2253(3) 0.9941(5) 0.4979(4)
N1 N 0.1286(2) 0.7049(4) -0.0172(3)
O1 O -0.14284(16) 0.7535(3) -0.2795(3)
O2 O -0.12294(18) 0.5428(3) -0.2152(3)
O3 O 0.23691(17) 0.8463(3) 0.2060(3)
O4 O 0.17240(18) 0.7240(3) 0.2362(3)
O5 O 0.24823(17) 1.0515(3) 0.3208(3)
O6 O 0.23913(16) 1.1178(3) 0.5019(3)
O7 O 0.2218(2) 0.9358(3) 0.5673(3)
Co1G Co -0.25520(3) 0.77691(6) -0.39699(5)
Co1C Co 0.25520(3) 1.22309(6) 0.39699(5)
Co1F Co 0.24480(3) 1.27691(6) 0.60301(5)
Co2G Co 0.28517(3) 1.03475(6) 0.23702(6)
Co2D Co 0.21483(3) 0.53475(6) 0.26298(6)
Co2A Co 0.28517(3) 0.96525(6) 0.73702(6)
O1G O 0.35716(16) 0.7465(3) 0.2205(3)
O3G O -0.26309(17) 0.6537(3) -0.2940(3)
O4D O -0.17240(18) 0.2760(3) -0.2362(3)
O5C O 0.25177(17) 0.5515(3) 0.1792(3)
O5G O -0.25177(17) 0.4485(3) -0.1792(3)
O6F O 0.23913(16) 0.8822(3) 0.0019(3)
O6C O 0.26087(16) 0.6178(3) -0.0019(3)
O7A O -0.2782(2) 0.4358(3) -0.4327(3)
C13 C 0.5097(13) 0.323(2) 0.3432(19)
H11 H 0.5471 0.3414 0.3386
N2 N 0.4526(12) 0.250(3) 0.2627(18)
H12 H 0.4182 0.2333 0.2674
H13 H 0.4491 0.2198 0.2046
O8 O 0.5137(10) 0.3652(17) 0.4251(15)
loop_
_geom_bond_atom_site_label_1
_geom_bond_atom_site_label_2
_geom_bond_site_symmetry_1
_geom_bond_site_symmetry_2
Co1 N1 1_555 1_555
Co2 O2 1_555 1_555
C1 C2 1_555 1_555
C2 C3 1_555 1_555
C3 H1 1_555 1_555
C4 C3 1_555 1_555
H2 C4 1_555 1_555
C5 H3 1_555 1_555
C6 C2 1_555 1_555
H4 C6 1_555 1_555
C7 C8 1_555 1_555
C8 H5 1_555 1_555
C9 C8 1_555 1_555
H6 C9 1_555 1_555
H7 C9 1_555 1_555
C12 C9 1_555 1_555
N1 C4 1_555 1_555
O1 C1 1_555 1_555
O2 C1 1_555 1_555
O3 Co1 1_555 1_555
O4 C7 1_555 1_555
O5 C8 1_555 1_555
O6 C12 1_555 1_555
O7 C12 1_555 1_555
C13 H11 1_555 1_555
N2 C13 1_555 1_555
H12 N2 1_555 1_555
H13 N2 1_555 1_555
O8 C13 1_555 1_555
Co1G O1 1_555 1_555
Co1C O5 1_555 1_555
Co1F O6 1_555 1_555
Co2G O3 1_555 1_555
Co2D O4 1_555 1_555
Co2A O7 1_555 1_555
O1G Co1 1_555 1_555
O3G Co2 1_555 1_555
O4D Co2 1_555 1_555
O5C Co1 1_555 1_555
O5G Co2 1_555 1_555
O6F Co1 1_555 1_555
O6C Co1 1_555 1_555
O7A Co2 1_555 1_555
C5 C6 1_555 1_555
C5 N1 1_555 1_555
C7 O3 1_555 1_555
O5 Co2G 1_555 1_555
O6 Co1C 1_555 1_555
Co1G O3G 1_555 1_555
Co2D O5C 1_555 1_555

#END
