
#######################################################################
#
#                 Cambridge Crystallographic Data Centre
#                                CCDC 
#
#######################################################################
#
# If this CIF has been generated from an entry in the Cambridge 
# Structural Database, then it will include bibliographic, chemical, 
# crystal, experimental, refinement or atomic coordinate data resulting 
# from the CCDC's data processing and validation procedures.
#
#######################################################################

data_LERNAY02
_chemical_formula_moiety         '(C10 H11 Co2 N1 O9)n'
_symmetry_cell_setting           monoclinic
_symmetry_space_group_name_H-M   'C 2/c'
_symmetry_Int_Tables_number      15
_space_group_name_Hall           '-C 2yc'
loop_
_symmetry_equiv_pos_site_id
_symmetry_equiv_pos_as_xyz
1 x,y,z
2 1/2+x,1/2+y,z
3 -x,y,1/2-z
4 1/2-x,1/2+y,1/2-z
5 -x,-y,-z
6 1/2-x,1/2-y,-z
7 x,-y,1/2+z
8 1/2+x,1/2-y,1/2+z
_cell_length_a                   23.2260(17)
_cell_length_b                   10.1069(7)
_cell_length_c                   14.8903(11)
_cell_angle_alpha                90
_cell_angle_beta                 127.8080(10)
_cell_angle_gamma                90
_cell_volume                     2761.6
loop_
_atom_site_label
_atom_site_type_symbol
_atom_site_fract_x
_atom_site_fract_y
_atom_site_fract_z
_atom_site_U_iso_or_equiv
_atom_site_thermal_displace_type
Co1 Co 0.25710(3) 0.72063(6) 0.11542(5) 0.0139 Uani
Co2 Co 0.71528(3) 0.47067(6) 0.66912(5) 0.0212 Uani
C1 C 0.6048(2) 0.6613(5) 0.4906(4) 0.0199 Uani
C2 C 0.5244(2) 0.6786(5) 0.3976(4) 0.0196 Uani
C3 C 0.4921(3) 0.8023(5) 0.3601(4) 0.0259 Uani
H1 H 0.5211 0.8800 0.3916 0.0310 Uiso
C4 C 0.4181(3) 0.8119(5) 0.2769(4) 0.0262 Uani
H2 H 0.3969 0.8976 0.2544 0.0310 Uiso
C5 C 0.4059(3) 0.5871(5) 0.2597(4) 0.0261 Uani
H3 H 0.3762 0.5111 0.2230 0.0320 Uiso
C6 C 0.4793(3) 0.5680(5) 0.3449(4) 0.0265 Uani
H4 H 0.4990 0.4812 0.3673 0.0320 Uiso
C7 C 0.2933(3) 0.8235(5) 0.3363(4) 0.0238 Uani
C8 C 0.2954(6) 0.9467(8) 0.4002(8) 0.0265 Uani
H5 H 0.3463 0.9817 0.4520 0.0310 Uiso
C9 C 0.2733(5) 0.8971(8) 0.4687(7) 0.0263 Uani
H6 H 0.3050 0.8210 0.5143 0.0320 Uiso
H7 H 0.2228 0.8633 0.4158 0.0320 Uiso
C12 C 0.2764(3) 0.9966(5) 0.5498(5) 0.0289 Uani
N1 N 0.3740(2) 0.7060(4) 0.2257(3) 0.0198 Uani
O1 O 0.64431(16) 0.7599(3) 0.5147(3) 0.0205 Uani
O2 O 0.62440(17) 0.5468(3) 0.5340(3) 0.0253 Uani
O3 O 0.26324(17) 0.8420(3) 0.2340(3) 0.0212 Uani
O4 O 0.3254(2) 0.7192(3) 0.3887(3) 0.0298 Uani
O5 O 0.24798(17) 1.0474(3) 0.3234(2) 0.0197 Uani
O6 O 0.2831(2) 0.9405(3) 0.6303(3) 0.0305 Uani
O7 O 0.25921(16) 1.1194(3) 0.5227(2) 0.0173 Uani
Co1G Co 0.75710(3) 0.77937(6) 0.61542(5) 0.0139 Uani
Co1C Co 0.24290(3) 1.22063(6) 0.38458(5) 0.0139 Uani
Co1F Co 0.25710(3) 1.27937(6) 0.61542(5) 0.0139 Uani
Co2G Co 0.21528(3) 1.02933(6) 0.16912(5) 0.0212 Uani
Co2D Co 0.28472(3) 0.52933(6) 0.33088(5) 0.0212 Uani
Co2A Co 0.21528(3) 0.97067(6) 0.66912(5) 0.0212 Uani
O1G O 0.14431(16) 0.7401(3) 0.0147(3) 0.0205 Uani
O3G O 0.76324(17) 0.6580(3) 0.7340(3) 0.0212 Uani
O4D O 0.6746(2) 0.2808(3) 0.6113(3) 0.0298 Uani
O5C O 0.25202(17) 0.5474(3) 0.1766(2) 0.0197 Uani
O5G O 0.74798(17) 0.4526(3) 0.8234(2) 0.0197 Uani
O6A O 0.7831(2) 0.4405(3) 0.6303(3) 0.0305 Uani
O7F O 0.25921(16) 0.8806(3) 0.0227(2) 0.0173 Uani
O7C O 0.24079(16) 0.6194(3) -0.0227(2) 0.0173 Uani
O8 O 0.4007(4) 0.7468(7) 0.7351(7) 0.1152 Uani
H11 H 0.4397(6) 0.756(4) 0.8044(14) 0.1380 Uiso
H12 H 0.3667 0.7909 0.7308 0.1380 Uiso
O9 O 0.5419(4) 0.7748(10) 0.8929(6) 0.1229 Uani
H13 H 0.5470 0.7467 0.8436 0.1470 Uiso
H14 H 0.576(5) 0.741(11) 0.958(3) 0.1470 Uiso
loop_
_atom_site_aniso_label
_atom_site_aniso_U_11
_atom_site_aniso_U_22
_atom_site_aniso_U_33
_atom_site_aniso_U_23
_atom_site_aniso_U_13
_atom_site_aniso_U_12
Co1 0.0117(3) 0.0164(3) 0.0134(3) 0.0014(2) 0.0076(2) 0.0020(2)
Co2 0.0216 0.0176 0.0184 0.0025 0.0092 -0.0036
C1 0.015 0.026 0.019 -0.0001 0.0106 -0.0003
C2 0.015 0.025 0.019 0.0013 0.0105 -0.0007
C3 0.02 0.02 0.032 0.001 0.013 -0.0046
C4 0.024 0.019 0.034 0.008 0.017 0.004
C5 0.019 0.021 0.034 -0.006 0.014 -0.0026
C6 0.018 0.021 0.032 -0.002 0.011 0.0011
C7 0.028(2) 0.021(2) 0.023(2) -0.0050(19) 0.016(2) -0.0075(19)
C8 0.029(4) 0.020(4) 0.029(4) -0.009(3) 0.017(4) -0.006(3)
C9 0.026(4) 0.026(4) 0.029(4) 0.000(3) 0.018(3) 0.001(3)
C12 0.027(3) 0.028(3) 0.039(3) -0.005(2) 0.024(2) 0.003(2)
N1 0.0171 0.023 0.0203 0.0019 0.0119 0.002
O1 0.0141 0.0173 0.026 -0.0008 0.0102 -0.003
O2 0.0156 0.0221 0.0249 0.0047 0.0056 -0.0014
O3 0.0254(17) 0.0160(15) 0.0229(16) -0.0039(13) 0.0152(14) 0.0016(13)
O4 0.037(2) 0.0221(17) 0.0183(16) -0.0031(14) 0.0108(15) -0.0084(15)
O5 0.0245(16) 0.0143(15) 0.0152(14) 0.0017(12) 0.0095(13) 0.0026(12)
O6 0.0323(19) 0.0250(18) 0.042(2) 0.0089(16) 0.0267(18) 0.0071(15)
O7 0.0171(15) 0.0176(15) 0.0177(15) -0.0034(12) 0.0109(13) -0.0038(12)
Co1G 0.0117 0.0164 0.0134 -0.0014 0.0076 -0.002
Co1C 0.0117 0.0164 0.0134 -0.0014 0.0076 -0.002
Co1F 0.0117 0.0164 0.0134 -0.0014 0.0076 -0.002
Co2G 0.0216(3) 0.0176(3) 0.0184(3) -0.0025(2) 0.0092(3) 0.0036(2)
Co2D 0.0216 0.0176 0.0184 0.0025 0.0092 -0.0036
Co2A 0.0216 0.0176 0.0184 0.0025 0.0092 -0.0036
O1G 0.0141(14) 0.0173(15) 0.0260(16) 0.0008(13) 0.0102(13) 0.0030(12)
O3G 0.0254 0.016 0.0229 0.0039 0.0152 -0.0016
O4D 0.037 0.0221 0.0183 -0.0031 0.0108 -0.0084
O5C 0.0245 0.0143 0.0152 -0.0017 0.0095 -0.0026
O5G 0.0245 0.0143 0.0152 -0.0017 0.0095 -0.0026
O6A 0.0323 0.025 0.042 0.0089 0.0267 0.0071
O7F 0.0171 0.0176 0.0177 0.0034 0.0109 0.0038
O7C 0.0171 0.0176 0.0177 0.0034 0.0109 0.0038
O8 0.080(5) 0.081(5) 0.111(6) -0.003(4) 0.021(4) 0.016(4)
O9 0.077(5) 0.163(8) 0.076(5) 0.031(5) 0.020(4) -0.003(5)
loop_
_geom_bond_atom_site_label_1
_geom_bond_atom_site_label_2
_geom_bond_site_symmetry_1
_geom_bond_site_symmetry_2
Co1 N1 1_555 1_555
Co2 O2 1_555 1_555
C1 C2 1_555 1_555
C2 C3 1_555 1_555
C3 H1 1_555 1_555
C4 C3 1_555 1_555
H2 C4 1_555 1_555
C5 H3 1_555 1_555
C6 C2 1_555 1_555
H4 C6 1_555 1_555
C7 C8 1_555 1_555
C8 H5 1_555 1_555
C9 C8 1_555 1_555
H6 C9 1_555 1_555
H7 C9 1_555 1_555
C12 C9 1_555 1_555
N1 C4 1_555 1_555
O1 C1 1_555 1_555
O2 C1 1_555 1_555
O3 Co1 1_555 1_555
O4 C7 1_555 1_555
O5 C8 1_555 1_555
O6 C12 1_555 1_555
O7 C12 1_555 1_555
O8 H11 1_555 1_555
H12 O8 1_555 1_555
O9 H13 1_555 1_555
H14 O9 1_555 1_555
Co1G O1 1_555 1_555
Co1C O5 1_555 1_555
Co1F O7 1_555 1_555
Co2G O3 1_555 1_555
Co2D O4 1_555 1_555
Co2A O6 1_555 1_555
O1G Co1 1_555 1_555
O3G Co2 1_555 1_555
O4D Co2 1_555 1_555
O5C Co1 1_555 1_555
O5G Co2 1_555 1_555
O6A Co2 1_555 1_555
O7F Co1 1_555 1_555
O7C Co1 1_555 1_555
C5 C6 1_555 1_555
C5 N1 1_555 1_555
C7 O3 1_555 1_555
O5 Co2G 1_555 1_555
O7 Co1C 1_555 1_555
Co1G O3G 1_555 1_555
Co2D O5C 1_555 1_555

#END
