
#######################################################################
#
#                 Cambridge Crystallographic Data Centre
#                                CCDC 
#
#######################################################################
#
# If this CIF has been generated from an entry in the Cambridge 
# Structural Database, then it will include bibliographic, chemical, 
# crystal, experimental, refinement or atomic coordinate data resulting 
# from the CCDC's data processing and validation procedures.
#
#######################################################################

data_LERNAY
_chemical_formula_moiety         '(C10 H11 Co2 N1 O9)n'
_symmetry_cell_setting           monoclinic
_symmetry_space_group_name_H-M   'C 2/c'
_symmetry_Int_Tables_number      15
_space_group_name_Hall           '-C 2yc'
loop_
_symmetry_equiv_pos_site_id
_symmetry_equiv_pos_as_xyz
1 x,y,z
2 1/2+x,1/2+y,z
3 -x,y,1/2-z
4 1/2-x,1/2+y,1/2-z
5 -x,-y,-z
6 1/2-x,1/2-y,-z
7 x,-y,1/2+z
8 1/2+x,1/2-y,1/2+z
_cell_length_a                   23.617(16)
_cell_length_b                   10.096(6)
_cell_length_c                   14.994(12)
_cell_angle_alpha                90
_cell_angle_beta                 128.707(19)
_cell_angle_gamma                90
_cell_volume                     2789.87
loop_
_atom_site_label
_atom_site_type_symbol
_atom_site_fract_x
_atom_site_fract_y
_atom_site_fract_z
_atom_site_U_iso_or_equiv
_atom_site_thermal_displace_type
Co1 Co 0.24378(4) 0.72201(7) 0.10283(6) 0.0222 Uani
Co2 Co -0.21524(4) 0.46764(7) -0.26346(6) 0.0290 Uani
C1 C -0.1051(3) 0.6590(6) -0.2220(5) 0.0315 Uani
C2 C -0.0231(3) 0.6767(6) -0.1502(5) 0.0310 Uani
C3 C 0.0086(3) 0.8000(6) -0.1239(6) 0.0442 Uani
H1 H -0.0203 0.8756 -0.1515 0.0520 Uiso
C4 C 0.0825(3) 0.8102(6) -0.0574(6) 0.0422 Uani
H2 H 0.1029 0.8944 -0.0396 0.0510 Uiso
C5 C 0.0956(3) 0.5869(6) -0.0447(6) 0.0458 Uani
H3 H 0.1253 0.5126 -0.0190 0.0540 Uiso
C6 C 0.0218(3) 0.5690(6) -0.1089(6) 0.0469 Uani
H4 H 0.0027 0.4838 -0.1242 0.0560 Uiso
C7 C 0.2055(3) 0.8274(6) 0.2501(5) 0.0299 Uani
C8 C 0.2031(8) 0.9482(9) 0.3090(12) 0.0326 Uani
H5 H 0.1580 0.9846 0.2441 0.0400 Uiso
C9 C 0.2271(6) 0.8992(9) 0.4222(9) 0.0418 Uani
H6 H 0.2766 0.8675 0.4651 0.0500 Uiso
H7 H 0.1972 0.8235 0.4082 0.0500 Uiso
C12 C 0.2248(3) 0.9961(6) 0.4979(5) 0.0374 Uani
N1 N 0.1268(3) 0.7064(5) -0.0170(4) 0.0303 Uani
O1 O -0.1432(2) 0.7550(4) -0.2775(4) 0.0334 Uani
O2 O -0.1245(2) 0.5443(4) -0.2185(4) 0.0434 Uani
O3 O 0.2358(2) 0.8444(4) 0.2063(3) 0.0316 Uani
O4 O 0.1747(2) 0.7228(4) 0.2417(4) 0.0394 Uani
O5 O 0.2502(2) 1.0499(3) 0.3245(3) 0.0287 Uani
O6 O 0.24014(19) 1.1190(4) 0.5030(3) 0.0264 Uani
O7 O 0.2196(3) 0.9394(4) 0.5666(4) 0.0433 Uani
Co1G Co -0.25622(4) 0.77799(7) -0.39717(6) 0.0222 Uani
Co1C Co 0.25622(4) 1.22201(7) 0.39717(6) 0.0222 Uani
Co1F Co 0.24378(4) 1.27799(7) 0.60283(6) 0.0222 Uani
Co2G Co 0.28476(4) 1.03236(7) 0.23654(6) 0.0290 Uani
Co2D Co 0.21524(4) 0.53236(7) 0.26346(6) 0.0290 Uani
Co2A Co 0.28476(4) 0.96764(7) 0.73654(6) 0.0290 Uani
O1G O 0.3568(2) 0.7450(4) 0.2225(4) 0.0334 Uani
O3G O -0.2642(2) 0.6556(4) -0.2937(3) 0.0316 Uani
O4D O -0.1747(2) 0.2772(4) -0.2417(4) 0.0394 Uani
O5C O 0.2498(2) 0.5499(3) 0.1755(3) 0.0287 Uani
O5G O -0.2498(2) 0.4501(3) -0.1755(3) 0.0287 Uani
O6F O 0.24014(19) 0.8810(4) 0.0030(3) 0.0264 Uani
O6C O 0.25986(19) 0.6190(4) -0.0030(3) 0.0264 Uani
O7A O -0.2804(3) 0.4394(4) -0.4334(4) 0.0433 Uani
O8 O 0.6070(11) 0.259(2) 0.506(2) 0.2723 Uani
H11 H 0.5614(14) 0.273(3) 0.453(2) 0.3260 Uiso
H12 H 0.6460 0.3030 0.5350 0.3260 Uiso
O9 O 0.4660(9) 0.2871(19) 0.3117(15) 0.2723 Uani
H13 H 0.4717(9) 0.219(2) 0.2864(17) 0.3270 Uiso
H14 H 0.4305 0.2728 0.3161 0.3270 Uiso
loop_
_atom_site_aniso_label
_atom_site_aniso_U_11
_atom_site_aniso_U_22
_atom_site_aniso_U_33
_atom_site_aniso_U_23
_atom_site_aniso_U_13
_atom_site_aniso_U_12
Co1 0.0177(4) 0.0236(4) 0.0243(4) -0.0008(3) 0.0127(3) -0.0013(3)
Co2 0.0272 0.0257 0.0386 0.0043 0.0228 0.0012
C1 0.023 0.035 0.032 0.002 0.015 -0.001
C2 0.018 0.035 0.031 0.004 0.011 0
C3 0.019 0.034 0.061 0.006 0.016 0.004
C4 0.024 0.033 0.058 0.004 0.02 -0.003
C5 0.02 0.034 0.058 -0.002 0.012 0.001
C6 0.018 0.034 0.062 0.002 0.012 -0.001
C7 0.031(3) 0.028(3) 0.039(3) -0.001(2) 0.026(3) 0.002(2)
C8 0.039(7) 0.024(5) 0.046(6) -0.001(4) 0.032(6) 0.001(4)
C9 0.041(7) 0.031(5) 0.049(6) -0.002(4) 0.026(6) -0.004(5)
C12 0.034(3) 0.035(3) 0.038(3) -0.003(3) 0.020(3) -0.003(3)
N1 0.02 0.036 0.03 -0.002 0.0132 -0.0013
O1 0.0198 0.032 0.038 0.0047 0.013 0.001
O2 0.022 0.033 0.066 0.009 0.023 0.0022
O3 0.034(2) 0.0286(19) 0.041(2) -0.0082(17) 0.0278(19) -0.0034(17)
O4 0.044(3) 0.030(2) 0.061(3) 0.0007(19) 0.041(2) 0.0013(19)
O5 0.026(2) 0.0230(18) 0.046(2) -0.0030(16) 0.0268(18) -0.0031(15)
O6 0.0253(19) 0.0274(18) 0.0262(18) 0.0008(15) 0.0159(16) 0.0020(15)
O7 0.051(3) 0.037(2) 0.038(2) -0.0025(19) 0.026(2) -0.010(2)
Co1G 0.0177 0.0236 0.0243 0.0008 0.0127 0.0013
Co1C 0.0177 0.0236 0.0243 0.0008 0.0127 0.0013
Co1F 0.0177 0.0236 0.0243 0.0008 0.0127 0.0013
Co2G 0.0272(5) 0.0257(4) 0.0386(5) -0.0043(3) 0.0228(4) -0.0012(3)
Co2D 0.0272 0.0257 0.0386 0.0043 0.0228 0.0012
Co2A 0.0272 0.0257 0.0386 0.0043 0.0228 0.0012
O1G 0.0198(19) 0.032(2) 0.038(2) -0.0047(18) 0.0130(17) -0.0010(16)
O3G 0.034 0.0286 0.041 0.0082 0.0278 0.0034
O4D 0.044 0.03 0.061 0.0007 0.041 0.0013
O5C 0.026 0.023 0.046 0.003 0.0268 0.0031
O5G 0.026 0.023 0.046 0.003 0.0268 0.0031
O6F 0.0253 0.0274 0.0262 -0.0008 0.0159 -0.002
O6C 0.0253 0.0274 0.0262 -0.0008 0.0159 -0.002
O7A 0.051 0.037 0.038 -0.0025 0.026 -0.01
O8 0.245(12) 0.265(12) 0.300(13) 0.031(9) 0.167(9) -0.025(8)
O9 0.254(13) 0.271(13) 0.296(13) 0.034(9) 0.174(9) 0.014(8)
loop_
_geom_bond_atom_site_label_1
_geom_bond_atom_site_label_2
_geom_bond_site_symmetry_1
_geom_bond_site_symmetry_2
Co1 N1 1_555 1_555
Co2 O2 1_555 1_555
C1 C2 1_555 1_555
C2 C3 1_555 1_555
C3 H1 1_555 1_555
C4 C3 1_555 1_555
H2 C4 1_555 1_555
C5 H3 1_555 1_555
C6 C2 1_555 1_555
H4 C6 1_555 1_555
C7 C8 1_555 1_555
C8 H5 1_555 1_555
C9 C8 1_555 1_555
H6 C9 1_555 1_555
H7 C9 1_555 1_555
C12 C9 1_555 1_555
N1 C4 1_555 1_555
O1 C1 1_555 1_555
O2 C1 1_555 1_555
O3 Co1 1_555 1_555
O4 C7 1_555 1_555
O5 C8 1_555 1_555
O6 C12 1_555 1_555
O7 C12 1_555 1_555
O8 H11 1_555 1_555
H12 O8 1_555 1_555
O9 H13 1_555 1_555
H14 O9 1_555 1_555
Co1G O1 1_555 1_555
Co1C O5 1_555 1_555
Co1F O6 1_555 1_555
Co2G O3 1_555 1_555
Co2D O4 1_555 1_555
Co2A O7 1_555 1_555
O1G Co1 1_555 1_555
O3G Co2 1_555 1_555
O4D Co2 1_555 1_555
O5C Co1 1_555 1_555
O5G Co2 1_555 1_555
O6F Co1 1_555 1_555
O6C Co1 1_555 1_555
O7A Co2 1_555 1_555
C5 C6 1_555 1_555
C5 N1 1_555 1_555
C7 O3 1_555 1_555
O5 Co2G 1_555 1_555
O6 Co1C 1_555 1_555
Co1G O3G 1_555 1_555
Co2D O5C 1_555 1_555

#END
