
#######################################################################
#
#                 Cambridge Crystallographic Data Centre
#                                CCDC 
#
#######################################################################
#
# If this CIF has been generated from an entry in the Cambridge 
# Structural Database, then it will include bibliographic, chemical, 
# crystal, experimental, refinement or atomic coordinate data resulting 
# from the CCDC's data processing and validation procedures.
#
#######################################################################

data_LERNEC
_chemical_formula_moiety         '(C11 H10 Co2 N2 O8)n'
_symmetry_cell_setting           monoclinic
_symmetry_space_group_name_H-M   'C 2/c'
_symmetry_Int_Tables_number      15
_space_group_name_Hall           '-C 2yc'
loop_
_symmetry_equiv_pos_site_id
_symmetry_equiv_pos_as_xyz
1 x,y,z
2 1/2+x,1/2+y,z
3 -x,y,1/2-z
4 1/2-x,1/2+y,1/2-z
5 -x,-y,-z
6 1/2-x,1/2-y,-z
7 x,-y,1/2+z
8 1/2+x,1/2-y,1/2+z
_cell_length_a                   23.583(9)
_cell_length_b                   10.104(4)
_cell_length_c                   15.060(6)
_cell_angle_alpha                90
_cell_angle_beta                 128.540(5)
_cell_angle_gamma                90
_cell_volume                     2806.86
loop_
_atom_site_label
_atom_site_type_symbol
_atom_site_fract_x
_atom_site_fract_y
_atom_site_fract_z
_atom_site_U_iso_or_equiv
_atom_site_thermal_displace_type
Co1 Co 0.24397(3) 0.72359(7) 0.10275(6) 0.0184 Uani
Co2 Co -0.21594(4) 0.46504(7) -0.26526(6) 0.0257 Uani
C1 C -0.1044(3) 0.6566(6) -0.2219(4) 0.0259 Uani
C2 C -0.0229(3) 0.6760(6) -0.1505(5) 0.0287 Uani
C3 C 0.0079(3) 0.7977(6) -0.1294(6) 0.0427 Uani
H1 H -0.0211 0.8729 -0.1597 0.0510 Uiso
C4 C 0.0821(3) 0.8093(6) -0.0633(6) 0.0421 Uani
H2 H 0.1018 0.8934 -0.0504 0.0500 Uiso
C5 C 0.0959(3) 0.5864(7) -0.0398(6) 0.0477 Uani
H3 H 0.1257 0.5122 -0.0107 0.0570 Uiso
C6 C 0.0227(3) 0.5677(7) -0.1040(6) 0.0478 Uani
H4 H 0.0039 0.4829 -0.1161 0.0580 Uiso
C7 C 0.2048(3) 0.8294(6) 0.2476(4) 0.0266 Uani
C8 C 0.2024(6) 0.9504(9) 0.3072(9) 0.0323 Uani
H5 H 0.1527 0.9843 0.2623 0.0390 Uiso
C9 C 0.2259(7) 0.8996(9) 0.4200(8) 0.0397 Uani
H6 H 0.2745 0.8643 0.4613 0.0480 Uiso
H7 H 0.1945 0.8261 0.4049 0.0480 Uiso
C12 C 0.2262(3) 0.9949(6) 0.4977(5) 0.0307 Uani
N1 N 0.1271(2) 0.7057(5) -0.0166(4) 0.0262 Uani
O1 O -0.14325(19) 0.7532(4) -0.2796(3) 0.0287 Uani
O2 O -0.1240(2) 0.5444(4) -0.2159(4) 0.0429 Uani
O3 O 0.2347(2) 0.8477(4) 0.2037(3) 0.0275 Uani
O4 O 0.1746(2) 0.7247(4) 0.2412(4) 0.0348 Uani
O5 O 0.2496(2) 1.0518(3) 0.3226(3) 0.0234 Uani
O6 O 0.23943(19) 1.1188(4) 0.5013(3) 0.0237 Uani
O7 O 0.2228(3) 0.9375(4) 0.5670(4) 0.0425 Uani
Co1G Co -0.25603(3) 0.77641(7) -0.39725(6) 0.0184 Uani
Co1C Co 0.25603(3) 1.22359(7) 0.39725(6) 0.0184 Uani
Co1F Co 0.24397(3) 1.27641(7) 0.60275(6) 0.0184 Uani
Co2G Co 0.28406(4) 1.03496(7) 0.23474(6) 0.0257 Uani
Co2D Co 0.21594(4) 0.53496(7) 0.26526(6) 0.0257 Uani
Co2A Co 0.28406(4) 0.96504(7) 0.73474(6) 0.0257 Uani
O1G O 0.35675(19) 0.7468(4) 0.2204(3) 0.0287 Uani
O3G O -0.2653(2) 0.6523(4) -0.2963(3) 0.0275 Uani
O4D O -0.1746(2) 0.2753(4) -0.2412(4) 0.0348 Uani
O5C O 0.2504(2) 0.5518(3) 0.1774(3) 0.0234 Uani
O5G O -0.2504(2) 0.4482(3) -0.1774(3) 0.0234 Uani
O6F O 0.23943(19) 0.8812(4) 0.0013(3) 0.0237 Uani
O6C O 0.26057(19) 0.6188(4) -0.0013(3) 0.0237 Uani
O7A O -0.2772(3) 0.4375(4) -0.4330(4) 0.0425 Uani
C14 C 0.5643(19) 0.351(5) 0.494(4) 0.2979 Uani
H14 H 0.5863 0.4139 0.5509 0.3560 Uiso
N3 N 0.6043(17) 0.253(3) 0.502(2) 0.2162 Uani
H15 H 0.5852 0.1934 0.4500 0.2590 Uiso
H16 H 0.6497 0.2490 0.5594 0.2590 Uiso
O9 O 0.4987(17) 0.362(3) 0.413(2) 0.2341 Uani
loop_
_atom_site_aniso_label
_atom_site_aniso_U_11
_atom_site_aniso_U_22
_atom_site_aniso_U_33
_atom_site_aniso_U_23
_atom_site_aniso_U_13
_atom_site_aniso_U_12
Co1 0.0074(4) 0.0228(4) 0.0162(4) -0.0012(3) 0.0031(3) -0.0018(3)
Co2 0.0179 0.0247 0.0312 0.0042 0.0137 0.001
C1 0.011 0.029 0.025 0 0.005 0.001
C2 0.01 0.033 0.025 0.004 0.002 0.001
C3 0.012 0.034 0.053 0.011 0.006 0.007
C4 0.014 0.035 0.053 0.007 0.009 -0.001
C5 0.009 0.034 0.059 0.003 0.001 0.002
C6 0.009 0.034 0.063 -0.002 0.004 -0.002
C7 0.018(3) 0.030(3) 0.025(3) 0.002(2) 0.010(2) 0.005(2)
C8 0.022(6) 0.031(5) 0.042(6) 0.005(4) 0.019(5) 0.007(4)
C9 0.050(8) 0.024(5) 0.043(6) -0.002(4) 0.028(6) -0.001(5)
C12 0.030(3) 0.031(3) 0.026(3) -0.006(2) 0.015(3) -0.005(3)
N1 0.007 0.036 0.021 0.0001 0.0016 0.0013
O1 0.0077 0.032 0.028 0.0037 0.0021 0.0007
O2 0.009 0.035 0.062 0.009 0.011 0.0011
O3 0.030(2) 0.0234(19) 0.030(2) -0.0095(16) 0.0192(19) -0.0041(17)
O4 0.034(2) 0.031(2) 0.052(3) 0.0007(19) 0.033(2) 0.0023(19)
O5 0.017(2) 0.0224(19) 0.031(2) -0.0047(15) 0.0150(18) -0.0057(14)
O6 0.0165(19) 0.027(2) 0.0229(19) 0.0000(15) 0.0099(16) 0.0008(15)
O7 0.045(3) 0.036(2) 0.031(2) -0.0035(19) 0.016(2) -0.011(2)
Co1G 0.0074 0.0228 0.0162 0.0012 0.0031 0.0018
Co1C 0.0074 0.0228 0.0162 0.0012 0.0031 0.0018
Co1F 0.0074 0.0228 0.0162 0.0012 0.0031 0.0018
Co2G 0.0179(4) 0.0247(4) 0.0312(5) -0.0042(3) 0.0137(4) -0.0010(3)
Co2D 0.0179 0.0247 0.0312 0.0042 0.0137 0.001
Co2A 0.0179 0.0247 0.0312 0.0042 0.0137 0.001
O1G 0.0077(18) 0.032(2) 0.028(2) -0.0037(16) 0.0021(17) -0.0007(15)
O3G 0.03 0.0234 0.03 0.0095 0.0192 0.0041
O4D 0.034 0.031 0.052 0.0007 0.033 0.0023
O5C 0.017 0.0224 0.031 0.0047 0.015 0.0057
O5G 0.017 0.0224 0.031 0.0047 0.015 0.0057
O6F 0.0165 0.027 0.0229 0 0.0099 -0.0008
O6C 0.0165 0.027 0.0229 0 0.0099 -0.0008
O7A 0.045 0.036 0.031 -0.0035 0.016 -0.011
C14 0.30(3) 0.30(3) 0.30(3) 0.013(10) 0.19(2) -0.008(10)
N3 0.214(19) 0.217(19) 0.227(19) 0.017(9) 0.142(13) -0.015(10)
O9 0.236(17) 0.238(17) 0.225(16) 0.028(10) 0.142(12) -0.022(10)
loop_
_geom_bond_atom_site_label_1
_geom_bond_atom_site_label_2
_geom_bond_site_symmetry_1
_geom_bond_site_symmetry_2
Co1 N1 1_555 1_555
Co2 O2 1_555 1_555
C1 C2 1_555 1_555
C2 C3 1_555 1_555
C3 H1 1_555 1_555
C4 C3 1_555 1_555
H2 C4 1_555 1_555
C5 H3 1_555 1_555
C6 C2 1_555 1_555
H4 C6 1_555 1_555
C7 C8 1_555 1_555
C8 H5 1_555 1_555
C9 C8 1_555 1_555
H6 C9 1_555 1_555
H7 C9 1_555 1_555
C12 C9 1_555 1_555
N1 C4 1_555 1_555
O1 C1 1_555 1_555
O2 C1 1_555 1_555
O3 Co1 1_555 1_555
O4 C7 1_555 1_555
O5 C8 1_555 1_555
O6 C12 1_555 1_555
O7 C12 1_555 1_555
C14 H14 1_555 1_555
N3 C14 1_555 1_555
H15 N3 1_555 1_555
H16 N3 1_555 1_555
O9 C14 1_555 1_555
Co1G O1 1_555 1_555
Co1C O5 1_555 1_555
Co1F O6 1_555 1_555
Co2G O3 1_555 1_555
Co2D O4 1_555 1_555
Co2A O7 1_555 1_555
O1G Co1 1_555 1_555
O3G Co2 1_555 1_555
O4D Co2 1_555 1_555
O5C Co1 1_555 1_555
O5G Co2 1_555 1_555
O6F Co1 1_555 1_555
O6C Co1 1_555 1_555
O7A Co2 1_555 1_555
C5 C6 1_555 1_555
C5 N1 1_555 1_555
C7 O3 1_555 1_555
O5 Co2G 1_555 1_555
O6 Co1C 1_555 1_555
Co1G O3G 1_555 1_555
Co2D O5C 1_555 1_555

#END
