
#######################################################################
#
#                 Cambridge Crystallographic Data Centre
#                                CCDC 
#
#######################################################################
#
# If this CIF has been generated from an entry in the Cambridge 
# Structural Database, then it will include bibliographic, chemical, 
# crystal, experimental, refinement or atomic coordinate data resulting 
# from the CCDC's data processing and validation procedures.
#
#######################################################################

data_LERNAY01
_chemical_formula_moiety         '(C10 H11 Co2 N1 O9)n'
_symmetry_cell_setting           monoclinic
_symmetry_space_group_name_H-M   'C 2/c'
_symmetry_Int_Tables_number      15
_space_group_name_Hall           '-C 2yc'
loop_
_symmetry_equiv_pos_site_id
_symmetry_equiv_pos_as_xyz
1 x,y,z
2 1/2+x,1/2+y,z
3 -x,y,1/2-z
4 1/2-x,1/2+y,1/2-z
5 -x,-y,-z
6 1/2-x,1/2-y,-z
7 x,-y,1/2+z
8 1/2+x,1/2-y,1/2+z
_cell_length_a                   23.550(2)
_cell_length_b                   10.0816(10)
_cell_length_c                   14.9781(15)
_cell_angle_alpha                90
_cell_angle_beta                 128.4650(10)
_cell_angle_gamma                90
_cell_volume                     2784.4
loop_
_atom_site_label
_atom_site_type_symbol
_atom_site_fract_x
_atom_site_fract_y
_atom_site_fract_z
_atom_site_U_iso_or_equiv
_atom_site_thermal_displace_type
Co1 Co 0.24408(3) 0.72253(5) 0.10297(4) 0.0193 Uani
Co2 Co 0.28465(3) 1.03287(6) 0.23628(5) 0.0265 Uani
O1 O 0.37596(18) 0.9547(3) 0.2825(3) 0.0432 Uani
O2 O 0.35655(16) 0.7443(3) 0.2210(3) 0.0309 Uani
O3 O 0.23570(16) 0.8451(3) 0.2062(2) 0.0291 Uani
O4 O 0.17436(19) 0.7229(3) 0.2416(3) 0.0377 Uani
O5 O 0.24980(16) 1.0500(3) 0.3238(3) 0.0262 Uani
O6 O 0.23972(14) 1.1188(3) 0.5030(2) 0.0234 Uani
O7 O 0.2197(2) 0.9390(3) 0.5669(3) 0.0396 Uani
N1 N 0.62727(19) 0.7931(4) 0.4843(3) 0.0285 Uani
C1 C 0.3956(2) 0.8410(4) 0.2786(4) 0.0290 Uani
C2 C 0.4768(2) 0.8224(5) 0.3502(3) 0.0287 Uani
C3 C 0.5082(3) 0.6986(5) 0.3772(5) 0.0411 Uani
H1 H 0.4794 0.6230 0.3496 0.0490 Uiso
C4 C 0.5826(3) 0.6895(5) 0.4439(4) 0.0402 Uani
H2 H 0.6030 0.6053 0.4616 0.0480 Uiso
C5 C 0.5955(2) 0.9125(5) 0.4547(4) 0.0419 Uani
H3 H 0.6252 0.9868 0.4805 0.0500 Uiso
C6 C 0.5218(3) 0.9306(5) 0.3907(5) 0.0443 Uani
H4 H 0.5027 1.0157 0.3754 0.0530 Uiso
C7 C 0.2052(2) 0.8270(4) 0.2500(4) 0.0280 Uani
C8 C 0.2017(5) 0.9491(7) 0.3067(7) 0.0305 Uani
H5 H 0.1519 0.9831 0.2610 0.0370 Uiso
C9 C 0.2255(5) 0.8992(7) 0.4203(6) 0.0368 Uani
H6 H 0.2744 0.8650 0.4620 0.0440 Uiso
H7 H 0.1946 0.8250 0.4058 0.0440 Uiso
C12 C 0.2251(3) 0.9962(5) 0.4984(4) 0.0345 Uani
Co1C Co 0.25592(3) 1.22253(5) 0.39703(4) 0.0193 Uani
Co1F Co 0.24408(3) 1.27747(5) 0.60297(4) 0.0193 Uani
Co1G Co 0.74408(3) 0.77747(5) 0.60297(4) 0.0193 Uani
Co2C Co 0.21535(3) 0.53287(6) 0.26372(5) 0.0265 Uani
Co2F Co 0.28465(3) 0.96713(6) 0.73628(5) 0.0265 Uani
O4C O 0.32564(19) 1.2229(3) 0.2584(3) 0.0377 Uani
O5C O 0.25020(16) 0.5500(3) 0.1762(3) 0.0262 Uani
O6F O 0.23972(14) 0.8812(3) 0.0030(2) 0.0234 Uani
O6C O 0.26028(14) 0.6188(3) -0.0030(2) 0.0234 Uani
O7F O 0.2197(2) 1.0610(3) 0.0669(3) 0.0396 Uani
N1G N 0.12727(19) 0.7069(4) -0.0157(3) 0.0285 Uani
O8 O 0.6089(10) 0.2641(16) 0.5019(15) 0.3305 Uani
H11 H 0.5681 0.2535 0.5008 0.3970 Uiso
H12 H 0.6468 0.2968 0.5781 0.3970 Uiso
O9 O 0.4683(8) 0.2915(15) 0.3178(16) 0.2914 Uani
H13 H 0.4932(7) 0.232(2) 0.3155(12) 0.3500 Uiso
H14 H 0.4301 0.2587 0.3078 0.3500 Uiso
loop_
_atom_site_aniso_label
_atom_site_aniso_U_11
_atom_site_aniso_U_22
_atom_site_aniso_U_33
_atom_site_aniso_U_23
_atom_site_aniso_U_13
_atom_site_aniso_U_12
Co1 0.0180(3) 0.0192(3) 0.0189(3) -0.0011(2) 0.0106(2) -0.0016(2)
Co2 0.0272(3) 0.0216(3) 0.0336(3) -0.0046(2) 0.0203(3) -0.0012(2)
O1 0.0256(17) 0.0297(17) 0.066(2) -0.0140(16) 0.0244(17) -0.0011(13)
O2 0.0194(15) 0.0292(16) 0.0330(16) -0.0042(13) 0.0108(13) -0.0017(12)
O3 0.0333(17) 0.0237(15) 0.0335(16) -0.0060(13) 0.0224(14) -0.0028(13)
O4 0.045(2) 0.0286(17) 0.056(2) 0.0014(15) 0.0396(18) 0.0029(15)
O5 0.0335(17) 0.0163(14) 0.0382(16) -0.0043(12) 0.0269(15) -0.0047(12)
O6 0.0254(15) 0.0217(15) 0.0233(14) -0.0007(11) 0.0152(12) -0.0002(12)
O7 0.053(2) 0.0298(17) 0.0299(16) -0.0010(14) 0.0228(16) -0.0118(15)
N1 0.0185(17) 0.032(2) 0.0270(18) 0.0017(15) 0.0102(15) 0.0026(15)
C1 0.022(2) 0.031(2) 0.030(2) -0.0010(18) 0.0142(18) -0.0013(18)
C2 0.019(2) 0.033(2) 0.025(2) -0.0018(18) 0.0092(18) 0.0000(17)
C3 0.026(2) 0.027(2) 0.058(3) -0.008(2) 0.020(2) -0.0048(19)
C4 0.028(2) 0.028(2) 0.050(3) 0.000(2) 0.017(2) 0.0057(19)
C5 0.021(2) 0.027(2) 0.052(3) 0.001(2) 0.010(2) -0.0023(19)
C6 0.024(2) 0.025(2) 0.057(3) 0.000(2) 0.012(2) 0.0033(19)
C7 0.030(2) 0.025(2) 0.031(2) 0.0006(18) 0.020(2) 0.0009(18)
C8 0.030(5) 0.027(4) 0.032(4) 0.001(3) 0.018(4) 0.007(3)
C9 0.045(5) 0.027(4) 0.036(4) -0.002(3) 0.024(4) 0.001(3)
C12 0.034(3) 0.032(3) 0.026(2) -0.0058(19) 0.013(2) 0.000(2)
Co1C 0.018 0.0192 0.0189 0.0011 0.0106 0.0016
Co1F 0.018 0.0192 0.0189 0.0011 0.0106 0.0016
Co1G 0.018 0.0192 0.0189 0.0011 0.0106 0.0016
Co2C 0.0272 0.0216 0.0336 0.0046 0.0203 0.0012
Co2F 0.0272 0.0216 0.0336 0.0046 0.0203 0.0012
O4C 0.045 0.0286 0.056 -0.0014 0.0396 -0.0029
O5C 0.0335 0.0163 0.0382 0.0043 0.0269 0.0047
O6F 0.0254 0.0217 0.0233 0.0007 0.0152 0.0002
O6C 0.0254 0.0217 0.0233 0.0007 0.0152 0.0002
O7F 0.053 0.0298 0.0299 0.001 0.0228 0.0118
N1G 0.0185 0.032 0.027 -0.0017 0.0102 -0.0026
O8 0.302(13) 0.311(12) 0.364(13) 0.041(9) 0.200(10) -0.042(8)
O9 0.259(11) 0.293(12) 0.320(12) 0.045(8) 0.179(9) 0.013(8)
loop_
_geom_bond_atom_site_label_1
_geom_bond_atom_site_label_2
_geom_bond_site_symmetry_1
_geom_bond_site_symmetry_2
Co1 O2 1_555 1_555
Co2 O1 1_555 1_555
O1 C1 1_555 1_555
O2 C1 1_555 1_555
O3 Co1 1_555 1_555
O4 C7 1_555 1_555
O5 Co2 1_555 1_555
O6 C12 1_555 1_555
O7 C12 1_555 1_555
N1 C4 1_555 1_555
C1 C2 1_555 1_555
C2 C3 1_555 1_555
C3 H1 1_555 1_555
C4 C3 1_555 1_555
H2 C4 1_555 1_555
C5 N1 1_555 1_555
H3 C5 1_555 1_555
C6 C2 1_555 1_555
H4 C6 1_555 1_555
C7 O3 1_555 1_555
C8 O5 1_555 1_555
H5 C8 1_555 1_555
C9 C8 1_555 1_555
H6 C9 1_555 1_555
H7 C9 1_555 1_555
C12 C9 1_555 1_555
O8 H11 1_555 1_555
H12 O8 1_555 1_555
O9 H13 1_555 1_555
H14 O9 1_555 1_555
Co1C O5 1_555 1_555
Co1F O6 1_555 1_555
Co1G N1 1_555 1_555
Co2C O4 1_555 1_555
Co2F O7 1_555 1_555
O4C Co2 1_555 1_555
O5C Co1 1_555 1_555
O6F Co1 1_555 1_555
O6C Co1 1_555 1_555
O7F Co2 1_555 1_555
N1G Co1 1_555 1_555
Co2 O3 1_555 1_555
O6 Co1C 1_555 1_555
C5 C6 1_555 1_555
C7 C8 1_555 1_555
Co2C O5C 1_555 1_555

#END
