
#######################################################################
#
#                 Cambridge Crystallographic Data Centre
#                                CCDC 
#
#######################################################################
#
# If this CIF has been generated from an entry in the Cambridge 
# Structural Database, then it will include bibliographic, chemical, 
# crystal, experimental, refinement or atomic coordinate data resulting 
# from the CCDC's data processing and validation procedures.
#
#######################################################################

data_LEWTUD
_chemical_formula_moiety         '(C11 H11 Co2 N1 O8)n'
_symmetry_cell_setting           monoclinic
_symmetry_space_group_name_H-M   'C 2/c'
_symmetry_Int_Tables_number      15
_space_group_name_Hall           '-C 2yc'
loop_
_symmetry_equiv_pos_site_id
_symmetry_equiv_pos_as_xyz
1 x,y,z
2 1/2+x,1/2+y,z
3 -x,y,1/2-z
4 1/2-x,1/2+y,1/2-z
5 -x,-y,-z
6 1/2-x,1/2-y,-z
7 x,-y,1/2+z
8 1/2+x,1/2-y,1/2+z
_cell_length_a                   23.46(2)
_cell_length_b                   10.094(9)
_cell_length_c                   15.044(14)
_cell_angle_alpha                90
_cell_angle_beta                 128.249(13)
_cell_angle_gamma                90
_cell_volume                     2797.73
loop_
_atom_site_label
_atom_site_type_symbol
_atom_site_fract_x
_atom_site_fract_y
_atom_site_fract_z
_atom_site_U_iso_or_equiv
_atom_site_thermal_displace_type
Co1 Co 0.24398(3) 0.72280(7) 0.10270(5) 0.0222 Uani
Co2 Co -0.21621(4) 0.46565(7) -0.26546(6) 0.0292 Uani
C1 C -0.1045(3) 0.6589(6) -0.2222(4) 0.0293 Uani
C2 C -0.0231(3) 0.6773(6) -0.1508(4) 0.0304 Uani
C3 C 0.0082(3) 0.7998(6) -0.1249(5) 0.0429 Uani
H1 H -0.0206 0.8755 -0.1517 0.0510 Uiso
C4 C 0.0831(3) 0.8105(6) -0.0584(5) 0.0414 Uani
H2 H 0.1034 0.8948 -0.0424 0.0490 Uiso
C5 C 0.0961(3) 0.5869(6) -0.0440(6) 0.0497 Uani
H3 H 0.1255 0.5122 -0.0184 0.0600 Uiso
C6 C 0.0214(3) 0.5692(6) -0.1095(6) 0.0501 Uani
H4 H 0.0019 0.4844 -0.1249 0.0600 Uiso
C7 C 0.2045(3) 0.8279(6) 0.2481(4) 0.0314 Uani
C8 C 0.2101(6) 0.9444(7) 0.3187(9) 0.0706 Uani
H5 H 0.1635 0.9827 0.2556 0.0850 Uiso
C9 C 0.1886(14) 0.927(2) 0.3852(18) 0.0916 Uani
H6 H 0.1910 0.8325 0.3992 0.1090 Uiso
H7 H 0.1377 0.9511 0.3387 0.1090 Uiso
C11 C 0.2249(3) 0.9943(6) 0.4971(5) 0.0358 Uani
N1 N 0.1278(2) 0.7062(4) -0.0160(4) 0.0299 Uani
O1 O -0.14350(18) 0.7550(4) -0.2799(3) 0.0319 Uani
O2 O -0.1245(2) 0.5458(4) -0.2169(4) 0.0459 Uani
O3 O 0.23475(19) 0.8469(4) 0.2038(3) 0.0308 Uani
O4 O 0.1733(2) 0.7237(4) 0.2397(4) 0.0401 Uani
O5 O 0.25069(19) 1.0506(3) 0.3243(3) 0.0270 Uani
O6 O 0.2212(2) 0.9374(4) 0.5670(3) 0.0452 Uani
O7 O 0.23964(17) 1.1185(3) 0.5028(3) 0.0255 Uani
Co1G Co -0.25602(3) 0.77720(7) -0.39730(5) 0.0222 Uani
Co1C Co 0.25602(3) 1.22280(7) 0.39730(5) 0.0222 Uani
Co1F Co 0.24398(3) 1.27720(7) 0.60270(5) 0.0222 Uani
Co2G Co 0.28379(4) 1.03435(7) 0.23454(6) 0.0292 Uani
Co2D Co 0.21621(4) 0.53435(7) 0.26546(6) 0.0292 Uani
Co2A Co 0.28379(4) 0.96565(7) 0.73454(6) 0.0292 Uani
O1G O 0.35650(18) 0.7450(4) 0.2201(3) 0.0319 Uani
O3G O -0.26525(19) 0.6531(4) -0.2962(3) 0.0308 Uani
O4D O -0.1733(2) 0.2763(4) -0.2397(4) 0.0401 Uani
O5C O 0.24931(19) 0.5506(3) 0.1757(3) 0.0270 Uani
O5G O -0.24931(19) 0.4494(3) -0.1757(3) 0.0270 Uani
O6A O -0.2788(2) 0.4374(4) -0.4330(3) 0.0452 Uani
O7F O 0.23964(17) 0.8815(3) 0.0028(3) 0.0255 Uani
O7C O 0.26036(17) 0.6185(3) -0.0028(3) 0.0255 Uani
C12 C 0.532(2) 0.348(5) 0.380(5) 0.3337 Uani
H10 H 0.5386 0.3700 0.4484 0.5030 Uiso
H11 H 0.5251 0.4272 0.3399 0.5030 Uiso
H12 H 0.5734 0.3006 0.3990 0.5030 Uiso
O8 O 0.4691(14) 0.266(3) 0.311(3) 0.2138 Uani
H13 H 0.4371 0.2501 0.2442 0.3250 Uiso
loop_
_atom_site_aniso_label
_atom_site_aniso_U_11
_atom_site_aniso_U_22
_atom_site_aniso_U_33
_atom_site_aniso_U_23
_atom_site_aniso_U_13
_atom_site_aniso_U_12
Co1 0.0208(4) 0.0212(4) 0.0260(4) -0.0010(3) 0.0152(3) -0.0016(3)
Co2 0.0307 0.0228 0.0412 0.0039 0.0258 0.001
C1 0.021 0.03 0.037 -0.003 0.018 -0.003
C2 0.023 0.032 0.032 0.002 0.015 -0.003
C3 0.022 0.032 0.06 0.007 0.018 0.004
C4 0.032 0.029 0.054 -0.001 0.022 -0.003
C5 0.026 0.03 0.066 -0.002 0.015 -0.002
C6 0.027 0.028 0.067 0 0.015 -0.001
C7 0.033(3) 0.029(3) 0.037(3) -0.001(2) 0.024(3) 0.002(2)
C8 0.126(7) 0.035(4) 0.118(7) -0.023(4) 0.109(7) -0.024(4)
C9 0.15(2) 0.086(17) 0.099(17) -0.055(13) 0.107(18) -0.090(17)
C11 0.045(3) 0.030(3) 0.035(3) -0.007(3) 0.026(3) -0.003(3)
N1 0.022 0.033 0.034 -0.001 0.017 0
O1 0.0208 0.029 0.039 0.0036 0.0151 0.0011
O2 0.028 0.029 0.07 0.0093 0.025 -0.0008
O3 0.036(2) 0.0235(19) 0.042(2) -0.0093(17) 0.0287(18) -0.0049(17)
O4 0.049(2) 0.025(2) 0.068(3) 0.0057(19) 0.047(2) 0.0042(19)
O5 0.034(2) 0.0135(17) 0.042(2) -0.0033(14) 0.0277(18) -0.0052(14)
O6 0.059(3) 0.035(2) 0.039(2) -0.0033(18) 0.029(2) -0.014(2)
O7 0.0274(18) 0.0251(19) 0.0298(18) 0.0002(15) 0.0206(15) 0.0005(15)
Co1G 0.0208 0.0212 0.026 0.001 0.0152 0.0016
Co1C 0.0208 0.0212 0.026 0.001 0.0152 0.0016
Co1F 0.0208 0.0212 0.026 0.001 0.0152 0.0016
Co2G 0.0307(4) 0.0228(4) 0.0412(5) -0.0039(3) 0.0258(4) -0.0010(3)
Co2D 0.0307 0.0228 0.0412 0.0039 0.0258 0.001
Co2A 0.0307 0.0228 0.0412 0.0039 0.0258 0.001
O1G 0.0208(18) 0.029(2) 0.039(2) -0.0036(16) 0.0151(17) -0.0011(16)
O3G 0.036 0.0235 0.042 0.0093 0.0287 0.0049
O4D 0.049 0.025 0.068 0.0057 0.047 0.0042
O5C 0.034 0.0135 0.042 0.0033 0.0277 0.0052
O5G 0.034 0.0135 0.042 0.0033 0.0277 0.0052
O6A 0.059 0.035 0.039 -0.0033 0.029 -0.014
O7F 0.0274 0.0251 0.0298 -0.0002 0.0206 -0.0005
O7C 0.0274 0.0251 0.0298 -0.0002 0.0206 -0.0005
C12 0.18(4) 0.30(6) 0.50(9) -0.33(7) 0.20(6) -0.10(4)
O8 0.20(3) 0.24(3) 0.32(4) 0.13(3) 0.22(3) 0.09(3)
loop_
_geom_bond_atom_site_label_1
_geom_bond_atom_site_label_2
_geom_bond_site_symmetry_1
_geom_bond_site_symmetry_2
Co1 N1 1_555 1_555
Co2 O2 1_555 1_555
C1 C2 1_555 1_555
C2 C3 1_555 1_555
C3 H1 1_555 1_555
C4 C3 1_555 1_555
H2 C4 1_555 1_555
C5 H3 1_555 1_555
C6 C2 1_555 1_555
H4 C6 1_555 1_555
C7 C8 1_555 1_555
C8 H5 1_555 1_555
C9 C8 1_555 1_555
H6 C9 1_555 1_555
H7 C9 1_555 1_555
C11 C9 1_555 1_555
N1 C4 1_555 1_555
O1 C1 1_555 1_555
O2 C1 1_555 1_555
O3 Co1 1_555 1_555
O4 C7 1_555 1_555
O5 C8 1_555 1_555
O6 C11 1_555 1_555
O7 C11 1_555 1_555
C12 H10 1_555 1_555
H11 C12 1_555 1_555
H12 C12 1_555 1_555
O8 C12 1_555 1_555
H13 O8 1_555 1_555
Co1G O1 1_555 1_555
Co1C O5 1_555 1_555
Co1F O7 1_555 1_555
Co2G O3 1_555 1_555
Co2D O4 1_555 1_555
Co2A O6 1_555 1_555
O1G Co1 1_555 1_555
O3G Co2 1_555 1_555
O4D Co2 1_555 1_555
O5C Co1 1_555 1_555
O5G Co2 1_555 1_555
O6A Co2 1_555 1_555
O7F Co1 1_555 1_555
O7C Co1 1_555 1_555
C5 C6 1_555 1_555
C5 N1 1_555 1_555
C7 O3 1_555 1_555
O5 Co2G 1_555 1_555
O7 Co1C 1_555 1_555
Co1G O3G 1_555 1_555
Co2D O5C 1_555 1_555

#END
