
#######################################################################
#
#                 Cambridge Crystallographic Data Centre
#                                CCDC 
#
#######################################################################
#
# If this CIF has been generated from an entry in the Cambridge 
# Structural Database, then it will include bibliographic, chemical, 
# crystal, experimental, refinement or atomic coordinate data resulting 
# from the CCDC's data processing and validation procedures.
#
#######################################################################

data_LEWTUD01
_chemical_formula_moiety         '(C11 H11 Co2 N1 O8)n'
_symmetry_cell_setting           monoclinic
_symmetry_space_group_name_H-M   'C 2/c'
_symmetry_Int_Tables_number      15
_space_group_name_Hall           '-C 2yc'
loop_
_symmetry_equiv_pos_site_id
_symmetry_equiv_pos_as_xyz
1 x,y,z
2 1/2+x,1/2+y,z
3 -x,y,1/2-z
4 1/2-x,1/2+y,1/2-z
5 -x,-y,-z
6 1/2-x,1/2-y,-z
7 x,-y,1/2+z
8 1/2+x,1/2-y,1/2+z
_cell_length_a                   23.5214(17)
_cell_length_b                   10.0276(7)
_cell_length_c                   14.9851(11)
_cell_angle_alpha                90
_cell_angle_beta                 128.6180(10)
_cell_angle_gamma                90
_cell_volume                     2761.54
loop_
_atom_site_label
_atom_site_type_symbol
_atom_site_fract_x
_atom_site_fract_y
_atom_site_fract_z
Co1 Co 0.24435(3) 0.72232(6) 0.10222(5)
Co2 Co -0.21548(4) 0.46606(6) -0.26375(6)
C1 C -0.1041(3) 0.6596(5) -0.2227(4)
C2 C -0.0229(3) 0.6777(5) -0.1523(4)
C3 C 0.0092(3) 0.8014(5) -0.1264(4)
H1 H -0.0202 0.8794 -0.1554
C4 C 0.0838(3) 0.8123(5) -0.0584(4)
H2 H 0.1048 0.8988 -0.0395
C5 C 0.0967(3) 0.5864(5) -0.0464(5)
H3 H 0.1270 0.5098 -0.0208
C6 C 0.0225(3) 0.5683(5) -0.1115(5)
H4 H 0.0028 0.4809 -0.1282
C7 C 0.2035(3) 0.8275(5) 0.2458(4)
C8 C 0.2003(5) 0.9507(7) 0.3053(7)
H5 H 0.1499 0.9879 0.2581
C9 C 0.2223(5) 0.8958(7) 0.4174(7)
H6 H 0.2711 0.8550 0.4589
H7 H 0.1880 0.8233 0.3993
C12 C 0.2251(3) 0.9929(5) 0.4987(4)
N1 N 0.1280(2) 0.7063(4) -0.0179(3)
O1 O -0.14326(18) 0.7575(3) -0.2797(3)
O2 O -0.12333(19) 0.5462(3) -0.2155(3)
O3 O 0.23496(18) 0.8453(3) 0.2042(3)
O4 O 0.1712(2) 0.7233(3) 0.2357(4)
O5 O 0.25045(18) 1.0492(3) 0.3251(3)
O6 O 0.23995(17) 1.1169(3) 0.5033(3)
O7 O 0.2211(2) 0.9338(4) 0.5682(3)
Co1G Co -0.25565(3) 0.77768(6) -0.39778(5)
Co1C Co 0.25565(3) 1.22232(6) 0.39778(5)
Co1F Co 0.24435(3) 1.27768(6) 0.60222(5)
Co2G Co 0.28452(4) 1.03394(6) 0.23625(6)
Co2D Co 0.21548(4) 0.53394(6) 0.26375(6)
Co2A Co 0.28452(4) 0.96606(6) 0.73625(6)
O1G O 0.35674(18) 0.7425(3) 0.2203(3)
O3G O -0.26504(18) 0.6547(3) -0.2958(3)
O4D O -0.1712(2) 0.2767(3) -0.2357(4)
O5C O 0.24955(18) 0.5492(3) 0.1749(3)
O5G O -0.24955(18) 0.4508(3) -0.1749(3)
O6F O 0.23995(17) 0.8831(3) 0.0033(3)
O6C O 0.26005(17) 0.6169(3) -0.0033(3)
O7A O -0.2789(2) 0.4338(4) -0.4318(3)
C13 C 0.9720(7) 0.8047(13) 0.0752(10)
H11 H 0.9278 0.8156 0.0678
H12 H 0.9629 0.7401 0.0184
H13 H 0.9857 0.8907 0.0625
O8 O 1.0293(6) 0.7578(11) 0.1864(9)
H14 H 1.0668 0.7579 0.1911
loop_
_geom_bond_atom_site_label_1
_geom_bond_atom_site_label_2
_geom_bond_site_symmetry_1
_geom_bond_site_symmetry_2
Co1 N1 1_555 1_555
Co2 O2 1_555 1_555
C1 C2 1_555 1_555
C2 C3 1_555 1_555
C3 H1 1_555 1_555
C4 C3 1_555 1_555
H2 C4 1_555 1_555
C5 H3 1_555 1_555
C6 C2 1_555 1_555
H4 C6 1_555 1_555
C7 C8 1_555 1_555
C8 H5 1_555 1_555
C9 C8 1_555 1_555
H6 C9 1_555 1_555
H7 C9 1_555 1_555
C12 C9 1_555 1_555
N1 C4 1_555 1_555
O1 C1 1_555 1_555
O2 C1 1_555 1_555
O3 Co1 1_555 1_555
O4 C7 1_555 1_555
O5 C8 1_555 1_555
O6 C12 1_555 1_555
O7 C12 1_555 1_555
C13 H11 1_555 1_555
H12 C13 1_555 1_555
H13 C13 1_555 1_555
O8 C13 1_555 1_555
H14 O8 1_555 1_555
Co1G O1 1_555 1_555
Co1C O5 1_555 1_555
Co1F O6 1_555 1_555
Co2G O3 1_555 1_555
Co2D O4 1_555 1_555
Co2A O7 1_555 1_555
O1G Co1 1_555 1_555
O3G Co2 1_555 1_555
O4D Co2 1_555 1_555
O5C Co1 1_555 1_555
O5G Co2 1_555 1_555
O6F Co1 1_555 1_555
O6C Co1 1_555 1_555
O7A Co2 1_555 1_555
C5 C6 1_555 1_555
C5 N1 1_555 1_555
C7 O3 1_555 1_555
O5 Co2G 1_555 1_555
O6 Co1C 1_555 1_555
Co1G O3G 1_555 1_555
Co2D O5C 1_555 1_555

#END
