
#######################################################################
#
#                 Cambridge Crystallographic Data Centre
#                                CCDC 
#
#######################################################################
#
# If this CIF has been generated from an entry in the Cambridge 
# Structural Database, then it will include bibliographic, chemical, 
# crystal, experimental, refinement or atomic coordinate data resulting 
# from the CCDC's data processing and validation procedures.
#
#######################################################################

data_LEWVAL
_chemical_formula_moiety         '(C10 H7 Co2 N1 O7)n'
_symmetry_cell_setting           monoclinic
_symmetry_space_group_name_H-M   'C 2/c'
_symmetry_Int_Tables_number      15
_space_group_name_Hall           '-C 2yc'
loop_
_symmetry_equiv_pos_site_id
_symmetry_equiv_pos_as_xyz
1 x,y,z
2 1/2+x,1/2+y,z
3 -x,y,1/2-z
4 1/2-x,1/2+y,1/2-z
5 -x,-y,-z
6 1/2-x,1/2-y,-z
7 x,-y,1/2+z
8 1/2+x,1/2-y,1/2+z
_cell_length_a                   23.482(3)
_cell_length_b                   10.0597(12)
_cell_length_c                   14.9495(18)
_cell_angle_alpha                90
_cell_angle_beta                 128.342(2)
_cell_angle_gamma                90
_cell_volume                     2769.75
loop_
_atom_site_label
_atom_site_type_symbol
_atom_site_fract_x
_atom_site_fract_y
_atom_site_fract_z
_atom_site_U_iso_or_equiv
_atom_site_thermal_displace_type
Co1 Co 0.24422(2) 0.72243(5) 0.10312(4) 0.0200 Uani
Co2 Co 0.28458(3) 1.03307(5) 0.23597(4) 0.0270 Uani
O1 O 0.37587(16) 0.9548(3) 0.2822(3) 0.0443 Uani
O2 O 0.35683(14) 0.7443(3) 0.2208(2) 0.0307 Uani
O3 O 0.23583(15) 0.8449(3) 0.2061(2) 0.0302 Uani
O4 O 0.17388(18) 0.7228(3) 0.2415(3) 0.0371 Uani
O5 O 0.24983(15) 1.0499(2) 0.3240(2) 0.0270 Uani
O6 O 0.23983(14) 1.1189(2) 0.5033(2) 0.0241 Uani
O7 O 0.21931(18) 0.9394(3) 0.5669(3) 0.0393 Uani
N1 N 0.62726(17) 0.7935(3) 0.4846(3) 0.0281 Uani
C1 C 0.3957(2) 0.8404(4) 0.2783(3) 0.0277 Uani
C2 C 0.4770(2) 0.8231(4) 0.3502(3) 0.0279 Uani
C3 C 0.5088(2) 0.6983(4) 0.3775(4) 0.0395 Uani
H1 H 0.4800 0.6227 0.3499 0.0480 Uiso
C4 C 0.5829(2) 0.6894(4) 0.4455(4) 0.0406 Uani
H2 H 0.6033 0.6052 0.4632 0.0480 Uiso
C5 C 0.5960(2) 0.9122(5) 0.4558(4) 0.0428 Uani
H3 H 0.6257 0.9865 0.4815 0.0510 Uiso
C6 C 0.5211(2) 0.9304(5) 0.3903(4) 0.0435 Uani
H4 H 0.5020 1.0156 0.3749 0.0520 Uiso
C7 C 0.2056(2) 0.8277(4) 0.2501(3) 0.0292 Uani
C8 C 0.2020(4) 0.9502(6) 0.3069(6) 0.0248 Uani
H5 H 0.1522 0.9846 0.2607 0.0300 Uiso
C9 C 0.2248(5) 0.8996(6) 0.4209(6) 0.0317 Uani
H6 H 0.1932 0.8260 0.4056 0.0380 Uiso
H7 H 0.2736 0.8642 0.4630 0.0380 Uiso
C12 C 0.2243(2) 0.9959(4) 0.4976(4) 0.0341 Uani
Co1C Co 0.25578(2) 1.22243(5) 0.39688(4) 0.0200 Uani
Co1F Co 0.24422(2) 1.27757(5) 0.60312(4) 0.0200 Uani
Co1G Co 0.74422(2) 0.77757(5) 0.60312(4) 0.0200 Uani
Co2C Co 0.21542(3) 0.53307(5) 0.26403(4) 0.0270 Uani
Co2F Co 0.28458(3) 0.96693(5) 0.73597(4) 0.0270 Uani
O4C O 0.32612(18) 1.2228(3) 0.2585(3) 0.0371 Uani
O5C O 0.25017(15) 0.5499(2) 0.1760(2) 0.0270 Uani
O6F O 0.23983(14) 0.8811(2) 0.0033(2) 0.0241 Uani
O6C O 0.26017(14) 0.6189(2) -0.0033(2) 0.0241 Uani
O7F O 0.21931(18) 1.0606(3) 0.0669(3) 0.0393 Uani
N1G N 0.12726(17) 0.7065(3) -0.0154(3) 0.0281 Uani
loop_
_atom_site_aniso_label
_atom_site_aniso_U_11
_atom_site_aniso_U_22
_atom_site_aniso_U_33
_atom_site_aniso_U_23
_atom_site_aniso_U_13
_atom_site_aniso_U_12
Co1 0.0182(3) 0.0197(3) 0.0214(3) -0.00109(17) 0.0119(2) -0.00149(17)
Co2 0.0273(3) 0.0221(3) 0.0354(3) -0.0042(2) 0.0213(3) -0.00072(19)
O1 0.0231(14) 0.0316(16) 0.068(2) -0.0112(15) 0.0232(15) -0.0004(12)
O2 0.0182(13) 0.0302(14) 0.0329(15) -0.0036(12) 0.0105(12) -0.0019(11)
O3 0.0368(15) 0.0230(13) 0.0376(15) -0.0091(11) 0.0264(13) -0.0048(11)
O4 0.0445(18) 0.0257(14) 0.058(2) -0.0010(13) 0.0401(17) 0.0015(13)
O5 0.0329(15) 0.0183(12) 0.0400(15) -0.0037(11) 0.0277(13) -0.0036(10)
O6 0.0273(13) 0.0201(12) 0.0259(13) 0.0013(10) 0.0170(11) 0.0016(10)
O7 0.0500(19) 0.0296(15) 0.0370(16) -0.0016(13) 0.0264(15) -0.0130(14)
N1 0.0188(15) 0.0318(17) 0.0278(17) 0.0019(13) 0.0115(14) 0.0031(13)
C1 0.0198(18) 0.028(2) 0.0293(19) -0.0016(16) 0.0122(16) 0.0012(15)
C2 0.0186(18) 0.032(2) 0.0252(18) -0.0020(15) 0.0096(15) 0.0012(15)
C3 0.023(2) 0.029(2) 0.052(3) -0.0062(19) 0.016(2) -0.0025(16)
C4 0.026(2) 0.028(2) 0.054(3) -0.0039(19) 0.018(2) 0.0020(17)
C5 0.020(2) 0.031(2) 0.052(3) 0.002(2) 0.0098(19) -0.0009(17)
C6 0.025(2) 0.029(2) 0.056(3) 0.001(2) 0.015(2) 0.0039(17)
C7 0.032(2) 0.025(2) 0.035(2) 0.0022(16) 0.0229(18) 0.0040(16)
C8 0.023(4) 0.019(3) 0.031(4) 0.001(3) 0.016(3) -0.001(2)
C9 0.035(5) 0.022(3) 0.036(4) -0.001(3) 0.021(4) 0.002(3)
C12 0.037(2) 0.030(2) 0.032(2) -0.0060(17) 0.0198(19) -0.0033(18)
Co1C 0.0182 0.0197 0.0214 0.00109 0.0119 0.00149
Co1F 0.0182 0.0197 0.0214 0.00109 0.0119 0.00149
Co1G 0.0182 0.0197 0.0214 0.00109 0.0119 0.00149
Co2C 0.0273 0.0221 0.0354 0.0042 0.0213 0.00072
Co2F 0.0273 0.0221 0.0354 0.0042 0.0213 0.00072
O4C 0.0445 0.0257 0.058 0.001 0.0401 -0.0015
O5C 0.0329 0.0183 0.04 0.0037 0.0277 0.0036
O6F 0.0273 0.0201 0.0259 -0.0013 0.017 -0.0016
O6C 0.0273 0.0201 0.0259 -0.0013 0.017 -0.0016
O7F 0.05 0.0296 0.037 0.0016 0.0264 0.013
N1G 0.0188 0.0318 0.0278 -0.0019 0.0115 -0.0031
loop_
_geom_bond_atom_site_label_1
_geom_bond_atom_site_label_2
_geom_bond_site_symmetry_1
_geom_bond_site_symmetry_2
Co1 O2 1_555 1_555
Co2 O1 1_555 1_555
O1 C1 1_555 1_555
O2 C1 1_555 1_555
O3 Co1 1_555 1_555
O4 C7 1_555 1_555
O5 Co2 1_555 1_555
O6 C12 1_555 1_555
O7 C12 1_555 1_555
N1 C4 1_555 1_555
C1 C2 1_555 1_555
C2 C3 1_555 1_555
C3 H1 1_555 1_555
C4 C3 1_555 1_555
H2 C4 1_555 1_555
C5 N1 1_555 1_555
H3 C5 1_555 1_555
C6 C2 1_555 1_555
H4 C6 1_555 1_555
C7 O3 1_555 1_555
C8 O5 1_555 1_555
H5 C8 1_555 1_555
C9 C8 1_555 1_555
H6 C9 1_555 1_555
H7 C9 1_555 1_555
C12 C9 1_555 1_555
Co1C O5 1_555 1_555
Co1F O6 1_555 1_555
Co1G N1 1_555 1_555
Co2C O4 1_555 1_555
Co2F O7 1_555 1_555
O4C Co2 1_555 1_555
O5C Co1 1_555 1_555
O6F Co1 1_555 1_555
O6C Co1 1_555 1_555
O7F Co2 1_555 1_555
N1G Co1 1_555 1_555
Co2 O3 1_555 1_555
O6 Co1C 1_555 1_555
C5 C6 1_555 1_555
C7 C8 1_555 1_555
Co2C O5C 1_555 1_555

#END
