
#######################################################################
#
#                 Cambridge Crystallographic Data Centre
#                                CCDC 
#
#######################################################################
#
# If this CIF has been generated from an entry in the Cambridge 
# Structural Database, then it will include bibliographic, chemical, 
# crystal, experimental, refinement or atomic coordinate data resulting 
# from the CCDC's data processing and validation procedures.
#
#######################################################################

data_XUWTOA
_chemical_formula_moiety         '(C3 H16 Co1 N3 O8 Re3 S4)n'
_symmetry_cell_setting           monoclinic
_symmetry_space_group_name_H-M   'P 21/n'
_symmetry_Int_Tables_number      14
_space_group_name_Hall           '-P 2yn'
loop_
_symmetry_equiv_pos_site_id
_symmetry_equiv_pos_as_xyz
1 x,y,z
2 1/2-x,1/2+y,1/2-z
3 -x,-y,-z
4 1/2+x,1/2-y,1/2+z
_cell_length_a                   9.7438(3)
_cell_length_b                   16.3262(6)
_cell_length_c                   12.3331(4)
_cell_angle_alpha                90
_cell_angle_beta                 97.1170(10)
_cell_angle_gamma                90
_cell_volume                     1946.82
loop_
_atom_site_label
_atom_site_type_symbol
_atom_site_fract_x
_atom_site_fract_y
_atom_site_fract_z
Re1 Re 0.38120(4) 0.02127(2) 0.10162(3)
Re2 Re 0.64825(4) 0.01099(2) 0.10701(3)
Re3 Re 0.50870(4) 0.11041(2) -0.03022(3)
S1 S 0.2598(3) 0.1117(2) -0.0330(2)
S2 S 0.2438(3) -0.0918(2) 0.0231(2)
S3 S 0.5189(3) -0.0721(2) 0.2209(2)
S4 S 0.5339(3) 0.1316(2) 0.1646(2)
C1 C 0.2552(11) 0.0461(6) 0.2244(8)
C2 C 0.8128(10) 0.0296(6) 0.2317(8)
N1 N 0.9002(9) 0.0442(5) 0.3018(7)
C3 C 0.5254(10) 0.2360(6) -0.0625(7)
Co1 Co 1.06688(13) 0.06867(8) 0.41847(10)
O1 O 0.9274(6) 0.0616(4) 0.5463(5)
O2 O 1.2414(7) 0.0784(4) 0.5386(5)
N2 N 0.1927(9) 0.0590(5) 0.2969(7)
N3 N 0.5418(9) 0.3054(5) -0.0780(6)
Re2B Re 0.35175(4) -0.01099(2) -0.10701(3)
Re3B Re 0.49130(4) -0.11041(2) 0.03022(3)
S1B S 0.7402(3) -0.1117(2) 0.0330(2)
S2B S 0.7562(3) 0.0918(2) -0.0231(2)
S3B S 0.4811(3) 0.0721(2) -0.2209(2)
Co1_2 Co 0.06688(13) 0.06867(8) 0.41847(10)
Co1B Co 0.93312(13) -0.06867(8) 0.58153(10)
Co1C Co 0.56688(13) 0.43133(8) -0.08153(10)
O1B O 1.0726(6) -0.0616(4) 0.4537(5)
N2_2 N 1.1927(9) 0.0590(5) 0.2969(7)
N3C N 1.0418(9) 0.1946(5) 0.4220(6)
O3 O 0.0085(10) 0.1513(5) -0.2763(6)
O4 O 0.0165(11) 0.2119(5) 0.1460(6)
O5 O 0.4336(9) 0.1843(6) 0.4675(7)
O6 O 0.2186(10) -0.2369(6) 0.2280(7)
O7 O 0.6722(13) 0.0957(8) 0.4388(10)
O8 O 0.7720(16) 0.2520(10) 0.2550(13)
loop_
_geom_bond_atom_site_label_1
_geom_bond_atom_site_label_2
_geom_bond_site_symmetry_1
_geom_bond_site_symmetry_2
Re1 S1 1_555 1_555
Re2 S3 1_555 1_555
Re3 S1 1_555 1_555
S1 Re2B 1_555 1_555
S2 Re1 1_555 1_555
S3 Re1 1_555 1_555
S4 Re1 1_555 1_555
C1 Re1 1_555 1_555
C2 Re2 1_555 1_555
N1 C2 1_555 1_555
C3 Re3 1_555 1_555
Co1 N1 1_555 1_555
O1 Co1 1_555 1_555
O2 Co1 1_555 1_555
N2 C1 1_555 1_555
N3 C3 1_555 1_555
Re2B S2 1_555 1_555
Re3B S2 1_555 1_555
S1B Re2 1_555 1_555
S2B Re2 1_555 1_555
S3B Re3 1_555 1_555
Co1_2 N2 1_555 1_555
Co1B O1 1_555 1_555
Co1C N3 1_555 1_555
O1B Co1 1_555 1_555
N2_2 Co1 1_555 1_555
N3C Co1 1_555 1_555
Re2 S4 1_555 1_555
Re3 S4 1_555 1_555
Re3 S2B 1_555 1_555
S3 Re3B 1_555 1_555
Re2B S3B 1_555 1_555
Re3B S1B 1_555 1_555
Co1B O1B 1_555 1_555

#END
