
#######################################################################
#
#                 Cambridge Crystallographic Data Centre
#                                CCDC 
#
#######################################################################
#
# If this CIF has been generated from an entry in the Cambridge 
# Structural Database, then it will include bibliographic, chemical, 
# crystal, experimental, refinement or atomic coordinate data resulting 
# from the CCDC's data processing and validation procedures.
#
#######################################################################

data_LOJLON
_chemical_formula_moiety         'C28 H16 Au4 Fe2 N11'
_symmetry_cell_setting           orthorhombic
_symmetry_space_group_name_H-M   'C m m a'
_symmetry_Int_Tables_number      67
_space_group_name_Hall           '-C 2a 2'
loop_
_symmetry_equiv_pos_site_id
_symmetry_equiv_pos_as_xyz
1 x,y,z
2 -x,1/2-y,z
3 -x,1/2+y,-z
4 x,-y,-z
5 1/2+x,1/2+y,z
6 1/2-x,-y,z
7 1/2-x,y,-z
8 1/2+x,1/2-y,-z
9 -x,-y,-z
10 x,1/2+y,-z
11 x,1/2-y,z
12 -x,y,z
13 1/2-x,1/2-y,-z
14 1/2+x,y,-z
15 1/2+x,-y,z
16 1/2-x,1/2+y,z
_cell_length_a                   11.9284(5)
_cell_length_b                   17.0825(6)
_cell_length_c                   15.6258(5)
_cell_angle_alpha                90
_cell_angle_beta                 90
_cell_angle_gamma                90
_cell_volume                     3184.02
loop_
_atom_site_label
_atom_site_type_symbol
_atom_site_fract_x
_atom_site_fract_y
_atom_site_fract_z
Au1 Au 0.7500 0.0000 0.39868(3)
C1 C 0.6697(8) 0.1020(5) 0.3949(4)
N1 N 0.6248(6) 0.1585(4) 0.3921(4)
Fe1 Fe 0.5000 0.2500 0.39248(11)
N2 N 0.5000 0.2500 0.2497(7)
C2 C 0.5956(4) 0.2500 0.2045(11)
H1 H 0.6632 0.2500 0.2342
C3 C 0.5990(4) 0.2500 0.1145(11)
H2 H 0.6668 0.2500 0.0851
C4 C 0.5000 0.2500 0.0723(15)
C5 C 0.5000 0.271(3) -0.028(2)
N3 N 0.590(2) 0.2500 -0.0670(18)
N4 N 0.587(2) 0.2500 -0.1530(18)
C6 C 0.5000 0.269(2) -0.1850(17)
C7 C 0.406(3) 0.304(2) -0.066(2)
H3 H 0.3504 0.3284 -0.0339
C8 C 0.401(3) 0.300(3) -0.154(2)
H4 H 0.3401 0.3165 -0.1869
C9 C 0.5000 0.2500 -0.2873(12)
C10 C 0.5991(4) 0.2500 -0.3330(13)
H5 H 0.6675 0.2500 -0.3044
C11 C 0.5960(4) 0.2500 -0.4209(10)
H6 H 0.6639 0.2500 -0.4501
N5 N 0.5000 0.2500 -0.4678(7)
C2A C 0.4044(4) 0.2500 0.2045(11)
H1A H 0.3368 0.2500 0.2342
C3A C 0.4010(4) 0.2500 0.1145(11)
H2A H 0.3332 0.2500 0.0851
C5A C 0.5000 0.229(3) -0.028(2)
N3A N 0.410(2) 0.2500 -0.0670(18)
N4A N 0.413(2) 0.2500 -0.1530(18)
C6A C 0.5000 0.231(2) -0.1850(17)
C7A C 0.594(3) 0.196(2) -0.066(2)
H3A H 0.6496 0.1716 -0.0339
C8A C 0.599(3) 0.200(3) -0.154(2)
H4A H 0.6599 0.1835 -0.1869
C10A C 0.4009(4) 0.2500 -0.3330(13)
H5A H 0.3325 0.2500 -0.3044
C11A C 0.4040(4) 0.2500 -0.4209(10)
H6A H 0.3361 0.2500 -0.4501
C7J C 0.406(3) 0.196(2) -0.066(2)
H3J H 0.3504 0.1716 -0.0339
C8J C 0.401(3) 0.200(3) -0.154(2)
H4J H 0.3401 0.1835 -0.1869
C7K C 0.594(3) 0.304(2) -0.066(2)
H3K H 0.6496 0.3284 -0.0339
C8K C 0.599(3) 0.300(3) -0.154(2)
H4K H 0.6599 0.3165 -0.1869
Au1A Au 0.2500 0.5000 0.39868(3)
C1A C 0.3303(8) 0.3980(5) 0.3949(4)
N1A N 0.3752(6) 0.3415(4) 0.3921(4)
C1J C 0.6697(8) 0.3980(5) 0.3949(4)
N1J N 0.6248(6) 0.3415(4) 0.3921(4)
C1K C 0.3303(8) 0.1020(5) 0.3949(4)
N1K N 0.3752(6) 0.1585(4) 0.3921(4)
Au1J Au 0.7500 0.5000 0.39868(3)
Au1K Au 0.2500 0.0000 0.39868(3)
C1D C 0.1697(8) 0.6020(5) 0.3949(4)
C1E C 0.8303(8) -0.1020(5) 0.3949(4)
Fe1_2 Fe 0.5000 0.2500 -0.60752(11)
N5_2 N 0.5000 0.2500 0.5322(7)
loop_
_geom_bond_atom_site_label_1
_geom_bond_atom_site_label_2
_geom_bond_site_symmetry_1
_geom_bond_site_symmetry_2
Au1 C1 1_555 1_555
C1 N1 1_555 1_555
N1 Fe1 1_555 1_555
Fe1 N2 1_555 1_555
N2 C2 1_555 1_555
C2 H1 1_555 1_555
C3 C2 1_555 1_555
H2 C3 1_555 1_555
C4 C3 1_555 1_555
C5 C4 1_555 1_555
N3 C5 1_555 1_555
N4 N3 1_555 1_555
C6 N4 1_555 1_555
C7 C5 1_555 1_555
H3 C7 1_555 1_555
C8 C6 1_555 1_555
H4 C8 1_555 1_555
C9 C6 1_555 1_555
C10 C9 1_555 1_555
H5 C10 1_555 1_555
C11 C10 1_555 1_555
H6 C11 1_555 1_555
N5 C11 1_555 1_555
C2A N2 1_555 1_555
H1A C2A 1_555 1_555
C3A C4 1_555 1_555
H2A C3A 1_555 1_555
C5A C4 1_555 1_555
N3A C5 1_555 1_555
N4A C6 1_555 1_555
C6A N4 1_555 1_555
C7A C5 1_555 1_555
H3A C7A 1_555 1_555
C8A N3 1_555 1_555
H4A C8A 1_555 1_555
C10A C9 1_555 1_555
H5A C10A 1_555 1_555
C11A N5 1_555 1_555
H6A C11A 1_555 1_555
C7J C5 1_555 1_555
H3J C7J 1_555 1_555
C8J C6 1_555 1_555
H4J C8J 1_555 1_555
C7K C5 1_555 1_555
H3K C7K 1_555 1_555
C8K N3 1_555 1_555
H4K C8K 1_555 1_555
Au1A C1A 1_555 1_555
C1A N1A 1_555 1_555
N1A Fe1 1_555 1_555
C1J N1J 1_555 1_555
N1J Fe1 1_555 1_555
C1K N1K 1_555 1_555
N1K Fe1 1_555 1_555
Au1J C1J 1_555 1_555
Au1K C1K 1_555 1_555
C1D Au1A 1_555 1_555
C1E Au1 1_555 1_555
Fe1_2 N5 1_555 1_555
N5_2 Fe1 1_555 1_555
C5 C5A 1_555 1_555
N3 C5A 1_555 1_555
N3 C7A 1_555 1_555
N3 C7K 1_555 1_555
N4 C7A 1_555 1_555
N4 C8A 1_555 1_555
N4 C7K 1_555 1_555
N4 C8K 1_555 1_555
C6 C6A 1_555 1_555
C6 C8A 1_555 1_555
C6 C8K 1_555 1_555
C7 C8 1_555 1_555
C7 C5A 1_555 1_555
C7 N3A 1_555 1_555
C7 N4A 1_555 1_555
C8 N3A 1_555 1_555
C8 N4A 1_555 1_555
C8 C6A 1_555 1_555
C8 C8J 1_555 1_555
C9 C6A 1_555 1_555
C2A C3A 1_555 1_555
C5A N3A 1_555 1_555
C5A C7A 1_555 1_555
C5A C7J 1_555 1_555
C5A C7K 1_555 1_555
N3A N4A 1_555 1_555
N3A C7J 1_555 1_555
N3A C8J 1_555 1_555
N4A C6A 1_555 1_555
N4A C7J 1_555 1_555
N4A C8J 1_555 1_555
C6A C8A 1_555 1_555
C6A C8J 1_555 1_555
C6A C8K 1_555 1_555
C7A C8A 1_555 1_555
C8A C8K 1_555 1_555
C10A C11A 1_555 1_555
C7J C8J 1_555 1_555
C7K C8K 1_555 1_555

#END
