
#######################################################################
#
#                 Cambridge Crystallographic Data Centre
#                                CCDC 
#
#######################################################################
#
# If this CIF has been generated from an entry in the Cambridge 
# Structural Database, then it will include bibliographic, chemical, 
# crystal, experimental, refinement or atomic coordinate data resulting 
# from the CCDC's data processing and validation procedures.
#
#######################################################################

data_LOJLON01
_chemical_formula_moiety         'C20 H8 Au4 Fe2 N11'
_symmetry_cell_setting           orthorhombic
_symmetry_space_group_name_H-M   'C m m a'
_symmetry_Int_Tables_number      67
_space_group_name_Hall           '-C 2a 2'
loop_
_symmetry_equiv_pos_site_id
_symmetry_equiv_pos_as_xyz
1 x,y,z
2 -x,1/2-y,z
3 -x,1/2+y,-z
4 x,-y,-z
5 1/2+x,1/2+y,z
6 1/2-x,-y,z
7 1/2-x,y,-z
8 1/2+x,1/2-y,-z
9 -x,-y,-z
10 x,1/2+y,-z
11 x,1/2-y,z
12 -x,y,z
13 1/2-x,1/2-y,-z
14 1/2+x,y,-z
15 1/2+x,-y,z
16 1/2-x,1/2+y,z
_cell_length_a                   12.0291(6)
_cell_length_b                   16.2569(7)
_cell_length_c                   15.2715(10)
_cell_angle_alpha                90
_cell_angle_beta                 90
_cell_angle_gamma                90
_cell_volume                     2986.43
loop_
_atom_site_label
_atom_site_type_symbol
_atom_site_fract_x
_atom_site_fract_y
_atom_site_fract_z
Au1 Au 0.7500 0.0000 0.39858(3)
C1 C 0.6659(7) 0.1041(6) 0.3960(5)
N1 N 0.6122(6) 0.1629(4) 0.3938(4)
Fe1 Fe 0.5000 0.2500 0.39304(15)
N2 N 0.5000 0.2500 0.2603(10)
N3 N 0.5000 0.2500 0.5259(11)
C2 C 0.5911(15) 0.2500 0.2126(13)
H1 H 0.6601 0.2500 0.2428
C3 C 0.595(2) 0.2500 0.1225(16)
H2 H 0.6642 0.2500 0.0927
C4 C 0.5000 0.2500 0.0780(19)
C5 C 0.5000 0.266(3) -0.017(2)
N4 N 0.581(4) 0.2500 -0.063(4)
N5 N 0.580(4) 0.2500 -0.153(3)
C6 C 0.5000 0.267(3) -0.196(3)
C7 C 0.5000 0.2500 -0.2904(15)
C8 C 0.5978(19) 0.2500 -0.3421(15)
H3 H 0.6685 0.2500 -0.3144
C9 C 0.5920(14) 0.2500 -0.4270(12)
H4 H 0.6603 0.2500 -0.4582
C1E C 0.8341(7) -0.1041(6) 0.3960(5)
N1A N 0.3878(6) 0.3371(4) 0.3938(4)
N1J N 0.6122(6) 0.3371(4) 0.3938(4)
N1K N 0.3878(6) 0.1629(4) 0.3938(4)
C2A C 0.4089(15) 0.2500 0.2126(13)
C1A C 0.3341(7) 0.3959(6) 0.3960(5)
C1J C 0.6659(7) 0.3959(6) 0.3960(5)
C1K C 0.3341(7) 0.1041(6) 0.3960(5)
H1A H 0.3399 0.2500 0.2428
C3A C 0.405(2) 0.2500 0.1225(16)
Au1A Au 0.2500 0.5000 0.39858(3)
Au1J Au 0.7500 0.5000 0.39858(3)
Au1K Au 0.2500 0.0000 0.39858(3)
H2A H 0.3358 0.2500 0.0927
C1D C 0.1659(7) 0.6041(6) 0.3960(5)
C5A C 0.5000 0.234(3) -0.017(2)
N4A N 0.419(4) 0.2500 -0.063(4)
N5A N 0.420(4) 0.2500 -0.153(3)
C6A C 0.5000 0.233(3) -0.196(3)
C8A C 0.4022(19) 0.2500 -0.3421(15)
H3A H 0.3315 0.2500 -0.3144
C9A C 0.4080(14) 0.2500 -0.4270(12)
N3_2 N 0.5000 0.2500 -0.4741(11)
H4A H 0.3397 0.2500 -0.4582
Fe1_2 Fe 0.5000 0.2500 -0.60696(15)
loop_
_geom_bond_atom_site_label_1
_geom_bond_atom_site_label_2
_geom_bond_site_symmetry_1
_geom_bond_site_symmetry_2
Au1 C1 1_555 1_555
C1 N1 1_555 1_555
N1 Fe1 1_555 1_555
Fe1 N2 1_555 1_555
N2 C2 1_555 1_555
N3 Fe1 1_555 1_555
C2 H1 1_555 1_555
C3 C2 1_555 1_555
H2 C3 1_555 1_555
C4 C3 1_555 1_555
C5 C4 1_555 1_555
N4 C5 1_555 1_555
N5 N4 1_555 1_555
C6 N5 1_555 1_555
C7 C6 1_555 1_555
C8 C7 1_555 1_555
H3 C8 1_555 1_555
C9 C8 1_555 1_555
H4 C9 1_555 1_555
C1E Au1 1_555 1_555
N1A Fe1 1_555 1_555
N1J Fe1 1_555 1_555
N1K Fe1 1_555 1_555
C2A N2 1_555 1_555
C1A N1A 1_555 1_555
C1J N1J 1_555 1_555
C1K N1K 1_555 1_555
H1A C2A 1_555 1_555
C3A C4 1_555 1_555
Au1A C1A 1_555 1_555
Au1J C1J 1_555 1_555
Au1K C1K 1_555 1_555
H2A C3A 1_555 1_555
C1D Au1A 1_555 1_555
C5A C4 1_555 1_555
N4A C5 1_555 1_555
N5A C6 1_555 1_555
C6A N5 1_555 1_555
C8A C7 1_555 1_555
H3A C8A 1_555 1_555
C9A C8A 1_555 1_555
N3_2 C9 1_555 1_555
H4A C9A 1_555 1_555
Fe1_2 N3_2 1_555 1_555
N4 C5A 1_555 1_555
C6 C6A 1_555 1_555
C7 C6A 1_555 1_555
C2A C3A 1_555 1_555
C5A N4A 1_555 1_555
N4A N5A 1_555 1_555
N5A C6A 1_555 1_555
C9A N3_2 1_555 1_555

#END
