
#######################################################################
#
#                 Cambridge Crystallographic Data Centre
#                                CCDC 
#
#######################################################################
#
# If this CIF has been generated from an entry in the Cambridge 
# Structural Database, then it will include bibliographic, chemical, 
# crystal, experimental, refinement or atomic coordinate data resulting 
# from the CCDC's data processing and validation procedures.
#
#######################################################################

data_XADGAM
_chemical_formula_moiety         '(C54 H46 N6 O10 Zn2)n'
_symmetry_cell_setting           monoclinic
_symmetry_space_group_name_H-M   'P 21'
_symmetry_Int_Tables_number      4
_space_group_name_Hall           'P 2yb'
loop_
_symmetry_equiv_pos_site_id
_symmetry_equiv_pos_as_xyz
1 x,y,z
2 -x,1/2+y,-z
_cell_length_a                   19.0493(10)
_cell_length_b                   14.4336(6)
_cell_length_c                   10.9838(6)
_cell_angle_alpha                90
_cell_angle_beta                 122.294(3)
_cell_angle_gamma                90
_cell_volume                     2552.86
loop_
_atom_site_label
_atom_site_type_symbol
_atom_site_fract_x
_atom_site_fract_y
_atom_site_fract_z
C1 C 0.8905(8) 1.2386(9) 0.049(2)
C2 C 0.8337(7) 1.1683(8) 0.0516(17)
C3 C 0.8626(7) 1.1036(10) 0.1565(15)
H1 H 0.9194 1.1008 0.2239
C4 C 0.8106(6) 1.0407(8) 0.1681(11)
H2 H 0.8326 0.9997 0.2452
C5 C 0.7264(6) 1.0396(7) 0.0649(9)
C6 C 0.6069(6) 1.1078(7) -0.1566(10)
H3 H 0.5725 1.0650 -0.1502
C7 C 0.5731(7) 1.1716(9) -0.2673(11)
H4 H 0.5163 1.1722 -0.3356
C8 C 0.6277(7) 1.2372(8) -0.2748(11)
H5 H 0.6058 1.2818 -0.3471
C9 C 0.7090(8) 1.2345(8) -0.1795(16)
H6 H 0.7434 1.2748 -0.1902
C10 C 0.7453(7) 1.1711(8) -0.0601(13)
C11 C 0.6922(6) 1.1067(9) -0.0539(10)
C12 C 0.6732(6) 0.9694(8) 0.0847(11)
C13 C 0.6763(5) 1.7313(6) -0.7121(10)
C14 C 0.7345(5) 1.6658(6) -0.5927(10)
C15 C 0.8168(6) 1.6849(6) -0.5154(11)
H7 H 0.8366 1.7360 -0.5398
C16 C 0.8731(6) 1.6283(7) -0.3978(11)
H8 H 0.9292 1.6438 -0.3446
C17 C 0.8465(5) 1.5504(7) -0.3605(10)
C18 C 0.7293(6) 1.4430(7) -0.4212(11)
H9 H 0.7641 1.4032 -0.3461
C19 C 0.6459(6) 1.4222(7) -0.5115(10)
H10 H 0.6255 1.3676 -0.4969
C20 C 0.5924(6) 1.4800(7) -0.6221(11)
H11 H 0.5365 1.4642 -0.6801
C21 C 0.6200(6) 1.5596(7) -0.6477(11)
H12 H 0.5826 1.5982 -0.7223
C22 C 0.7045(6) 1.5851(7) -0.5628(10)
C23 C 0.7615(6) 1.5249(6) -0.4437(10)
C24 C 0.9127(6) 1.4990(7) -0.2302(11)
C25 C 1.4624(6) 1.0015(7) 0.0338(11)
H13 H 1.4773 1.0155 -0.0321
C26 C 1.3973(6) 1.0508(7) 0.0246(12)
H14 H 1.3673 1.0928 -0.0501
C27 C 1.3780(6) 1.0381(7) 0.1215(12)
C28 C 1.4243(8) 0.9736(9) 0.2317(13)
H15 H 1.4132 0.9638 0.3035
C29 C 1.4870(7) 0.9249(9) 0.2316(12)
H16 H 1.5178 0.8827 0.3055
C30 C 1.3086(7) 1.0839(7) 0.1243(13)
C31 C 1.2690(6) 1.1573(8) 0.0348(14)
C32 C 1.1958(7) 1.2033(7) 0.0207(15)
C33 C 1.1739(8) 1.2933(9) -0.0431(18)
H17 H 1.2044 1.3210 -0.0767
C34 C 1.1077(8) 1.3379(9) -0.054(2)
H18 H 1.0942 1.3968 -0.0949
C35 C 1.0786(6) 1.2168(8) 0.0445(13)
H19 H 1.0457 1.1908 0.0746
C36 C 1.1433(6) 1.1629(8) 0.0598(12)
H20 H 1.1516 1.1026 0.0945
C37 C 1.4293(7) 1.7425(9) 0.9296(12)
H21 H 1.4236 1.7519 1.0076
C38 C 1.3664(7) 1.6978(10) 0.8081(11)
H22 H 1.3199 1.6764 0.8066
C39 C 1.3727(7) 1.6846(8) 0.6860(11)
C40 C 1.4453(6) 1.7159(7) 0.7008(11)
H23 H 1.4533 1.7061 0.6253
C41 C 1.5052(5) 1.7601(7) 0.8195(11)
H24 H 1.5516 1.7822 0.8212
C42 C 1.3064(7) 1.6464(10) 0.5509(14)
C43 C 1.2450(7) 1.5962(11) 0.5468(13)
C44 C 1.1785(6) 1.5489(10) 0.4100(12)
C45 C 1.1309(6) 1.4793(9) 0.4245(11)
H25 H 1.1402 1.4663 0.5149
C46 C 1.0708(6) 1.4304(9) 0.3054(12)
H26 H 1.0434 1.3815 0.3178
C47 C 1.0923(7) 1.5242(10) 0.1545(12)
H27 H 1.0765 1.5432 0.0624
C48 C 1.1579(8) 1.5690(10) 0.2753(12)
H28 H 1.1880 1.6140 0.2618
N1 N 1.5053(5) 0.9353(6) 0.1307(9)
N2 N 1.0601(5) 1.2997(6) -0.0076(10)
N3 N 1.4997(5) 1.7733(6) 0.9377(9)
N4 N 1.0515(5) 1.4527(7) 0.1718(9)
O1 O 0.8834(6) 1.2605(6) -0.0683(15)
O2 O 0.9515(9) 1.2635(13) 0.1695(18)
O3 O 0.6137(4) 0.9309(5) -0.0223(7)
O4 O 0.6934(4) 0.9511(5) 0.2101(7)
O5 O 0.6886(4) 1.7441(5) -0.8147(8)
O6 O 0.6196(4) 1.7686(5) -0.7090(7)
O7 O 0.9846(5) 1.5090(7) -0.1886(9)
O8 O 0.8870(5) 1.4478(7) -0.1672(10)
Zn1 Zn 0.96584(6) 1.37526(7) -0.00105(12)
Zn2 Zn 1.58883(6) 0.85240(6) 0.11246(11)
N3_2 N 1.4997(5) 0.7733(6) -0.0623(9)
O3_2 O 1.6137(4) 0.9309(5) -0.0223(7)
O4_2 O 1.6934(4) 0.9511(5) 0.2101(7)
O5_2 O 1.6886(4) 0.7441(5) 0.1853(8)
O6_2 O 1.6196(4) 0.7686(5) 0.2910(7)
Zn2_2 Zn 1.58883(6) 1.85240(6) 1.11246(11)
Zn2_3 Zn 0.58883(6) 0.85240(6) 0.11246(11)
Zn2_4 Zn 0.58883(6) 1.85240(6) -0.88754(11)
C49 C 0.6065(7) 0.7859(9) 0.5911(12)
C50 C 0.6546(15) 0.9535(13) 0.665(4)
H29 H 0.7065 0.9844 0.6980
H30 H 0.6414 0.9575 0.7377
H31 H 0.6116 0.9826 0.5783
C51 C 0.7440(8) 0.8351(12) 0.6510(16)
H32 H 0.7757 0.8914 0.6847
H33 H 0.7360 0.8183 0.5599
H34 H 0.7734 0.7866 0.7196
N5 N 0.6621(6) 0.8493(8) 0.6340(12)
O9 O 0.5350(6) 0.8044(7) 0.5627(9)
C52 C 0.0092(9) 0.3527(12) -0.4074(16)
C53 C -0.010(4) 0.230(5) -0.512(7)
H35 H -0.0371 0.1707 -0.5383
H36 H 0.0493 0.2209 -0.4555
H37 H -0.0247 0.2642 -0.5973
C54 C -0.0975(12) 0.2762(16) -0.383(2)
H38 H -0.0948 0.3303 -0.3295
H39 H -0.0859 0.2222 -0.3236
H40 H -0.1521 0.2710 -0.4676
N6 N -0.0366(7) 0.2837(9) -0.4233(12)
O10 O 0.0646(7) 0.3573(10) -0.4244(12)
loop_
_geom_bond_atom_site_label_1
_geom_bond_atom_site_label_2
_geom_bond_site_symmetry_1
_geom_bond_site_symmetry_2
C1 C2 1_555 1_555
C2 C3 1_555 1_555
C3 H1 1_555 1_555
C4 C3 1_555 1_555
H2 C4 1_555 1_555
C5 C4 1_555 1_555
C6 H3 1_555 1_555
C7 C6 1_555 1_555
H4 C7 1_555 1_555
C8 C7 1_555 1_555
H5 C8 1_555 1_555
C9 C8 1_555 1_555
H6 C9 1_555 1_555
C10 C2 1_555 1_555
C11 C5 1_555 1_555
C12 C5 1_555 1_555
C13 C14 1_555 1_555
C14 C15 1_555 1_555
C15 H7 1_555 1_555
C16 C15 1_555 1_555
H8 C16 1_555 1_555
C17 C16 1_555 1_555
C18 H9 1_555 1_555
C19 C18 1_555 1_555
H10 C19 1_555 1_555
C20 C19 1_555 1_555
H11 C20 1_555 1_555
C21 C20 1_555 1_555
H12 C21 1_555 1_555
C22 C14 1_555 1_555
C23 C17 1_555 1_555
C24 C17 1_555 1_555
C25 H13 1_555 1_555
C26 C25 1_555 1_555
H14 C26 1_555 1_555
C27 C26 1_555 1_555
C28 C27 1_555 1_555
H15 C28 1_555 1_555
C29 C28 1_555 1_555
H16 C29 1_555 1_555
C30 C27 1_555 1_555
C31 C30 1_555 1_555
C32 C31 1_555 1_555
C33 C32 1_555 1_555
H17 C33 1_555 1_555
C34 C33 1_555 1_555
H18 C34 1_555 1_555
C35 H19 1_555 1_555
C36 C32 1_555 1_555
H20 C36 1_555 1_555
C37 H21 1_555 1_555
C38 C37 1_555 1_555
H22 C38 1_555 1_555
C39 C38 1_555 1_555
C40 C39 1_555 1_555
H23 C40 1_555 1_555
C41 C40 1_555 1_555
H24 C41 1_555 1_555
C42 C39 1_555 1_555
C43 C42 1_555 1_555
C44 C43 1_555 1_555
C45 C44 1_555 1_555
H25 C45 1_555 1_555
C46 C45 1_555 1_555
H26 C46 1_555 1_555
C47 H27 1_555 1_555
C48 C44 1_555 1_555
H28 C48 1_555 1_555
C49 N5 1_555 1_555
C50 H29 1_555 1_555
H30 C50 1_555 1_555
H31 C50 1_555 1_555
C51 H32 1_555 1_555
H33 C51 1_555 1_555
H34 C51 1_555 1_555
C52 N6 1_555 1_555
C53 H35 1_555 1_555
H36 C53 1_555 1_555
H37 C53 1_555 1_555
C54 H38 1_555 1_555
H39 C54 1_555 1_555
H40 C54 1_555 1_555
N1 C25 1_555 1_555
N2 C34 1_555 1_555
N3 C37 1_555 1_555
N4 C46 1_555 1_555
N5 C50 1_555 1_555
N6 C53 1_555 1_555
O1 C1 1_555 1_555
O2 C1 1_555 1_555
O3 C12 1_555 1_555
O4 C12 1_555 1_555
O5 C13 1_555 1_555
O6 C13 1_555 1_555
O7 C24 1_555 1_555
O8 C24 1_555 1_555
O9 C49 1_555 1_555
O10 C52 1_555 1_555
Zn1 N2 1_555 1_555
Zn2 N1 1_555 1_555
N3_2 Zn2 1_555 1_555
O3_2 Zn2 1_555 1_555
O4_2 Zn2 1_555 1_555
O5_2 Zn2 1_555 1_555
O6_2 Zn2 1_555 1_555
Zn2_2 N3 1_555 1_555
Zn2_3 O3 1_555 1_555
Zn2_4 O5 1_555 1_555
C6 C11 1_555 1_555
C9 C10 1_555 1_555
C10 C11 1_555 1_555
C18 C23 1_555 1_555
C21 C22 1_555 1_555
C22 C23 1_555 1_555
C29 N1 1_555 1_555
C35 C36 1_555 1_555
C35 N2 1_555 1_555
C41 N3 1_555 1_555
C47 C48 1_555 1_555
C47 N4 1_555 1_555
C51 N5 1_555 1_555
C54 N6 1_555 1_555
N4 Zn1 1_555 1_555
O1 Zn1 1_555 1_555
O4 Zn2_3 1_555 1_555
O6 Zn2_4 1_555 1_555
O8 Zn1 1_555 1_555

#END
