
#######################################################################
#
#                 Cambridge Crystallographic Data Centre
#                                CCDC 
#
#######################################################################
#
# If this CIF has been generated from an entry in the Cambridge 
# Structural Database, then it will include bibliographic, chemical, 
# crystal, experimental, refinement or atomic coordinate data resulting 
# from the CCDC's data processing and validation procedures.
#
#######################################################################

data_EWESOP
_chemical_formula_moiety         '(C38 H24 N2 O10 Zn2)n'
_symmetry_cell_setting           orthorhombic
_symmetry_space_group_name_H-M   'P c c a'
_symmetry_Int_Tables_number      54
_space_group_name_Hall           '-P 2a 2ac'
loop_
_symmetry_equiv_pos_site_id
_symmetry_equiv_pos_as_xyz
1 x,y,z
2 1/2-x,-y,z
3 -x,y,1/2-z
4 1/2+x,-y,1/2-z
5 -x,-y,-z
6 1/2+x,y,-z
7 x,-y,1/2+z
8 1/2-x,y,1/2+z
_cell_length_a                   16.838(3)
_cell_length_b                   11.026(2)
_cell_length_c                   22.410(5)
_cell_angle_alpha                90
_cell_angle_beta                 90
_cell_angle_gamma                90
_cell_volume                     4160.55
loop_
_atom_site_label
_atom_site_type_symbol
_atom_site_fract_x
_atom_site_fract_y
_atom_site_fract_z
_atom_site_U_iso_or_equiv
_atom_site_thermal_displace_type
Zn1 Zn 0.44146(4) 0.09424(6) 0.00889(3) 0.0394 Uani
O1 O 0.5349(3) 0.1682(5) 0.0535(3) 0.0660 Uani
O2 O 0.6257(3) 0.0248(4) 0.0381(2) 0.0607 Uani
O3 O 1.0051(3) 0.1487(5) 0.4317(2) 0.0623 Uani
O4 O 0.9149(3) 0.0045(4) 0.4183(2) 0.0620 Uani
O5 O 0.8169(3) 0.3649(4) 0.2123(3) 0.0723 Uani
N1 N 0.3699(3) 0.2399(4) 0.0205(3) 0.0457 Uani
C1 C 0.6034(4) 0.1252(6) 0.0604(3) 0.0433 Uani
C2 C 0.6612(4) 0.1930(5) 0.0961(3) 0.0460 Uani
C3 C 0.6368(4) 0.2883(6) 0.1328(3) 0.0517 Uani
H1 H 0.5841 0.3132 0.1315 0.0620 Uiso
C4 C 0.6885(5) 0.3463(6) 0.1707(3) 0.0593 Uani
H2 H 0.6711 0.4108 0.1941 0.0720 Uiso
C5 C 0.7661(4) 0.3082(6) 0.1737(3) 0.0530 Uani
C6 C 0.7933(4) 0.2182(7) 0.1359(3) 0.0603 Uani
H3 H 0.8466 0.1963 0.1361 0.0720 Uiso
C7 C 0.7410(4) 0.1617(6) 0.0983(3) 0.0537 Uani
H4 H 0.7595 0.1004 0.0734 0.0640 Uiso
C8 C 0.8458(4) 0.2977(6) 0.2593(4) 0.0590 Uani
C9 C 0.9084(4) 0.3474(6) 0.2906(3) 0.0583 Uani
H5 H 0.9282 0.4232 0.2800 0.0700 Uiso
C10 C 0.9412(4) 0.2849(6) 0.3370(3) 0.0530 Uani
H6 H 0.9846 0.3172 0.3572 0.0640 Uiso
C11 C 0.9106(4) 0.1738(6) 0.3546(3) 0.0460 Uani
C12 C 0.8457(4) 0.1285(6) 0.3250(3) 0.0513 Uani
H7 H 0.8234 0.0558 0.3376 0.0620 Uiso
C13 C 0.8130(4) 0.1883(7) 0.2772(3) 0.0600 Uani
H8 H 0.7696 0.1558 0.2572 0.0720 Uiso
C14 C 0.9457(4) 0.1039(6) 0.4057(3) 0.0487 Uani
C15 C 0.3955(5) 0.3462(7) 0.0024(4) 0.0697 Uani
H9 H 0.4466 0.3507 -0.0132 0.0840 Uiso
C16 C 0.3512(5) 0.4524(6) 0.0050(4) 0.0757 Uani
H10 H 0.3715 0.5258 -0.0086 0.0910 Uiso
C17 C 0.2748(4) 0.4438(6) 0.0289(3) 0.0540 Uani
C18 C 0.2487(4) 0.3356(6) 0.0465(3) 0.0580 Uani
H11 H 0.1972 0.3273 0.0609 0.0700 Uiso
C19 C 0.2979(4) 0.2355(6) 0.0434(3) 0.0583 Uani
H12 H 0.2794 0.1619 0.0582 0.0700 Uiso
Zn1D Zn 0.55854(4) -0.09424(6) -0.00889(3) 0.0394 Uani
Zn1G Zn 1.05854(4) 0.09424(6) 0.50889(3) 0.0394 Uani
Zn1C Zn 0.94146(4) -0.09424(6) 0.49111(3) 0.0394 Uani
Zn1A Zn 0.05854(4) 0.90576(6) 0.00889(3) 0.0394 Uani
Zn1E Zn -0.05854(4) 1.09424(6) -0.00889(3) 0.0394 Uani
Zn1F Zn -0.55854(4) 0.90576(6) 0.50889(3) 0.0394 Uani
Zn1B Zn -0.44146(4) 1.09424(6) 0.49111(3) 0.0394 Uani
O1A O -0.0349(3) 0.8318(5) 0.0535(3) 0.0660 Uani
O2D O 0.3743(3) -0.0248(4) -0.0381(2) 0.0607 Uani
O2E O 0.1257(3) 1.0248(4) -0.0381(2) 0.0607 Uani
O2A O -0.1257(3) 0.9752(4) 0.0381(2) 0.0607 Uani
O3G O 0.4949(3) 0.1487(5) -0.0683(2) 0.0623 Uani
O3F O 0.0051(3) 0.8513(5) -0.0683(2) 0.0623 Uani
O3A O -0.5051(3) 0.8513(5) 0.4317(2) 0.0623 Uani
O4C O 0.4149(3) -0.0045(4) 0.0817(2) 0.0620 Uani
O4B O 0.0851(3) 1.0045(4) 0.0817(2) 0.0620 Uani
O4A O -0.4149(3) 0.9955(4) 0.4183(2) 0.0620 Uani
O5A O -0.3169(3) 0.6351(4) 0.2123(3) 0.0723 Uani
N1A N 0.1301(3) 0.7601(4) 0.0205(3) 0.0457 Uani
C1A C -0.1034(4) 0.8748(6) 0.0604(3) 0.0433 Uani
C2A C -0.1612(4) 0.8070(5) 0.0961(3) 0.0460 Uani
C3A C -0.1368(4) 0.7117(6) 0.1328(3) 0.0517 Uani
H1A H -0.0841 0.6868 0.1315 0.0620 Uiso
C4A C -0.1885(5) 0.6537(6) 0.1707(3) 0.0593 Uani
H2A H -0.1711 0.5892 0.1941 0.0720 Uiso
C5A C -0.2661(4) 0.6918(6) 0.1737(3) 0.0530 Uani
C6A C -0.2933(4) 0.7818(7) 0.1359(3) 0.0603 Uani
H3A H -0.3466 0.8037 0.1361 0.0720 Uiso
C7A C -0.2410(4) 0.8383(6) 0.0983(3) 0.0537 Uani
H4A H -0.2595 0.8996 0.0734 0.0640 Uiso
C8A C -0.3458(4) 0.7023(6) 0.2593(4) 0.0590 Uani
C9A C -0.4084(4) 0.6526(6) 0.2906(3) 0.0583 Uani
H5A H -0.4282 0.5768 0.2800 0.0700 Uiso
C10A C -0.4412(4) 0.7151(6) 0.3370(3) 0.0530 Uani
H6A H -0.4846 0.6828 0.3572 0.0640 Uiso
C11A C -0.4106(4) 0.8262(6) 0.3546(3) 0.0460 Uani
C12A C -0.3457(4) 0.8715(6) 0.3250(3) 0.0513 Uani
H7A H -0.3234 0.9442 0.3376 0.0620 Uiso
C13A C -0.3130(4) 0.8117(7) 0.2772(3) 0.0600 Uani
H8A H -0.2696 0.8442 0.2572 0.0720 Uiso
C14A C -0.4457(4) 0.8961(6) 0.4057(3) 0.0487 Uani
C15A C 0.1045(5) 0.6538(7) 0.0024(4) 0.0697 Uani
H9A H 0.0534 0.6493 -0.0132 0.0840 Uiso
C16A C 0.1488(5) 0.5476(6) 0.0050(4) 0.0757 Uani
H10A H 0.1285 0.4742 -0.0086 0.0910 Uiso
C17A C 0.2252(4) 0.5562(6) 0.0289(3) 0.0540 Uani
C18A C 0.2513(4) 0.6644(6) 0.0465(3) 0.0580 Uani
H11A H 0.3028 0.6727 0.0609 0.0700 Uiso
C19A C 0.2021(4) 0.7645(6) 0.0434(3) 0.0583 Uani
H12A H 0.2206 0.8381 0.0582 0.0700 Uiso
loop_
_atom_site_aniso_label
_atom_site_aniso_U_11
_atom_site_aniso_U_22
_atom_site_aniso_U_33
_atom_site_aniso_U_23
_atom_site_aniso_U_13
_atom_site_aniso_U_12
Zn1 0.0433 0.0324 0.0425 -0.0026 -0.0008 0.0195
O1 0.047 0.064 0.087 -0.022 -0.022 0.019
O2 0.055 0.049 0.078 -0.016 -0.016 0.018
O3 0.068 0.063 0.056 0.009 -0.014 -0.02
O4 0.084 0.046 0.056 0.011 -0.023 -0.016
O5 0.092 0.041 0.084 0.011 -0.04 -0.013
N1 0.042 0.03 0.065 -0.002 -0.002 0.019
C1 0.05 0.047 0.033 -0.008 -0.007 0.009
C2 0.049 0.038 0.051 -0.001 -0.009 0.011
C3 0.05 0.049 0.056 -0.006 -0.003 0.001
C4 0.077 0.04 0.061 -0.011 -0.003 0.012
C5 0.061 0.041 0.057 0.004 -0.008 -0.004
C6 0.047 0.062 0.072 0.004 -0.016 0.007
C7 0.049 0.042 0.07 0 0.004 0.006
C8 0.065 0.039 0.073 0.001 -0.019 -0.002
C9 0.066 0.043 0.066 0.004 -0.011 -0.02
C10 0.057 0.043 0.059 -0.001 -0.002 -0.017
C11 0.048 0.042 0.048 -0.002 -0.007 -0.008
C12 0.05 0.04 0.064 0.003 0 -0.006
C13 0.058 0.055 0.067 -0.004 -0.016 -0.009
C14 0.055 0.054 0.037 -0.008 0.002 -0.003
C15 0.049 0.046 0.114 0.003 0.013 0.023
C16 0.062 0.026 0.139 0.009 0.011 0.022
C17 0.049 0.04 0.073 -0.006 -0.003 0.025
C18 0.055 0.048 0.071 0.007 0.022 0.032
C19 0.071 0.042 0.062 0.007 0.009 0.025
Zn1D 0.0433 0.0324 0.0425 -0.0026 -0.0008 0.0195
Zn1G 0.0433 0.0324 0.0425 -0.0026 0.0008 -0.0195
Zn1C 0.0433 0.0324 0.0425 -0.0026 0.0008 -0.0195
Zn1A 0.0433(4) 0.0324(4) 0.0425(4) 0.0026(3) 0.0008(3) 0.0195(3)
Zn1E 0.0433 0.0324 0.0425 0.0026 0.0008 0.0195
Zn1F 0.0433 0.0324 0.0425 0.0026 -0.0008 -0.0195
Zn1B 0.0433 0.0324 0.0425 0.0026 -0.0008 -0.0195
O1A 0.047(3) 0.064(3) 0.087(4) 0.022(3) 0.022(3) 0.019(2)
O2D 0.055 0.049 0.078 -0.016 -0.016 0.018
O2E 0.055 0.049 0.078 0.016 0.016 0.018
O2A 0.055(3) 0.049(3) 0.078(3) 0.016(3) 0.016(3) 0.018(2)
O3G 0.068 0.063 0.056 0.009 0.014 0.02
O3F 0.068 0.063 0.056 -0.009 -0.014 0.02
O3A 0.068(3) 0.063(3) 0.056(3) -0.009(2) 0.014(2) -0.020(3)
O4C 0.084 0.046 0.056 0.011 0.023 0.016
O4B 0.084 0.046 0.056 -0.011 -0.023 0.016
O4A 0.084(4) 0.046(3) 0.056(3) -0.011(2) 0.023(3) -0.016(3)
O5A 0.092(4) 0.041(3) 0.084(4) -0.011(3) 0.040(3) -0.013(3)
N1A 0.042(3) 0.030(3) 0.065(4) 0.002(2) 0.002(3) 0.019(2)
C1A 0.050(4) 0.047(4) 0.033(3) 0.008(3) 0.007(3) 0.009(3)
C2A 0.049(4) 0.038(3) 0.051(4) 0.001(3) 0.009(3) 0.011(3)
C3A 0.050(4) 0.049(4) 0.056(4) 0.006(3) 0.003(3) 0.001(3)
C4A 0.077(5) 0.040(4) 0.061(4) 0.011(3) 0.003(4) 0.012(3)
C5A 0.061(5) 0.041(4) 0.057(4) -0.004(3) 0.008(3) -0.004(3)
C6A 0.047(4) 0.062(5) 0.072(5) -0.004(4) 0.016(4) 0.007(3)
C7A 0.049(4) 0.042(3) 0.070(4) 0.000(3) -0.004(3) 0.006(3)
C8A 0.065(5) 0.039(3) 0.073(5) -0.001(3) 0.019(4) -0.002(3)
C9A 0.066(5) 0.043(4) 0.066(5) -0.004(3) 0.011(4) -0.020(3)
C10A 0.057(4) 0.043(4) 0.059(4) 0.001(3) 0.002(3) -0.017(3)
C11A 0.048(4) 0.042(3) 0.048(4) 0.002(3) 0.007(3) -0.008(3)
C12A 0.050(4) 0.040(3) 0.064(4) -0.003(3) 0.000(3) -0.006(3)
C13A 0.058(4) 0.055(4) 0.067(5) 0.004(4) 0.016(4) -0.009(3)
C14A 0.055(4) 0.054(4) 0.037(3) 0.008(3) -0.002(3) -0.003(3)
C15A 0.049(4) 0.046(4) 0.114(7) -0.003(4) -0.013(4) 0.023(3)
C16A 0.062(5) 0.026(3) 0.139(8) -0.009(4) -0.011(5) 0.022(3)
C17A 0.049(4) 0.040(4) 0.073(5) 0.006(3) 0.003(3) 0.025(3)
C18A 0.055(4) 0.048(4) 0.071(5) -0.007(4) -0.022(4) 0.032(3)
C19A 0.071(5) 0.042(4) 0.062(5) -0.007(3) -0.009(4) 0.025(3)
loop_
_geom_bond_atom_site_label_1
_geom_bond_atom_site_label_2
_geom_bond_site_symmetry_1
_geom_bond_site_symmetry_2
Zn1 O1 1_555 1_555
O1 C1 1_555 1_555
O2 C1 1_555 1_555
O3 C14 1_555 1_555
O4 C14 1_555 1_555
O5 C5 1_555 1_555
N1 Zn1 1_555 1_555
C1 C2 1_555 1_555
C2 C3 1_555 1_555
C3 H1 1_555 1_555
C4 C3 1_555 1_555
H2 C4 1_555 1_555
C5 C4 1_555 1_555
C6 C5 1_555 1_555
H3 C6 1_555 1_555
C7 C2 1_555 1_555
H4 C7 1_555 1_555
C8 O5 1_555 1_555
C9 C8 1_555 1_555
H5 C9 1_555 1_555
C10 C9 1_555 1_555
H6 C10 1_555 1_555
C11 C10 1_555 1_555
C12 C11 1_555 1_555
H7 C12 1_555 1_555
C13 C8 1_555 1_555
H8 C13 1_555 1_555
C14 C11 1_555 1_555
C15 N1 1_555 1_555
H9 C15 1_555 1_555
C16 C15 1_555 1_555
H10 C16 1_555 1_555
C17 C16 1_555 1_555
C18 C17 1_555 1_555
H11 C18 1_555 1_555
C19 N1 1_555 1_555
H12 C19 1_555 1_555
Zn1D O2 1_555 1_555
Zn1G O3 1_555 1_555
Zn1C O4 1_555 1_555
Zn1A O1A 1_555 1_555
Zn1E O2A 1_555 1_555
Zn1F O3A 1_555 1_555
Zn1B O4A 1_555 1_555
O1A C1A 1_555 1_555
O2D Zn1 1_555 1_555
O2E Zn1A 1_555 1_555
O2A C1A 1_555 1_555
O3G Zn1 1_555 1_555
O3F Zn1A 1_555 1_555
O3A C14A 1_555 1_555
O4C Zn1 1_555 1_555
O4B Zn1A 1_555 1_555
O4A C14A 1_555 1_555
O5A C5A 1_555 1_555
N1A Zn1A 1_555 1_555
C1A C2A 1_555 1_555
C2A C3A 1_555 1_555
C3A H1A 1_555 1_555
C4A C3A 1_555 1_555
H2A C4A 1_555 1_555
C5A C4A 1_555 1_555
C6A C5A 1_555 1_555
H3A C6A 1_555 1_555
C7A C2A 1_555 1_555
H4A C7A 1_555 1_555
C8A O5A 1_555 1_555
C9A C8A 1_555 1_555
H5A C9A 1_555 1_555
C10A C9A 1_555 1_555
H6A C10A 1_555 1_555
C11A C10A 1_555 1_555
C12A C11A 1_555 1_555
H7A C12A 1_555 1_555
C13A C8A 1_555 1_555
H8A C13A 1_555 1_555
C14A C11A 1_555 1_555
C15A N1A 1_555 1_555
H9A C15A 1_555 1_555
C16A C15A 1_555 1_555
H10A C16A 1_555 1_555
C17A C17 1_555 1_555
C18A C17A 1_555 1_555
H11A C18A 1_555 1_555
C19A N1A 1_555 1_555
H12A C19A 1_555 1_555
C6 C7 1_555 1_555
C12 C13 1_555 1_555
C18 C19 1_555 1_555
C6A C7A 1_555 1_555
C12A C13A 1_555 1_555
C16A C17A 1_555 1_555
C18A C19A 1_555 1_555

#END
