
#######################################################################
#
#                 Cambridge Crystallographic Data Centre
#                                CCDC 
#
#######################################################################
#
# If this CIF has been generated from an entry in the Cambridge 
# Structural Database, then it will include bibliographic, chemical, 
# crystal, experimental, refinement or atomic coordinate data resulting 
# from the CCDC's data processing and validation procedures.
#
#######################################################################

data_NEXVUI
_chemical_formula_moiety         '(C42 H46 Cd4 N2 O29)n'
_symmetry_cell_setting           tetragonal
_symmetry_space_group_name_H-M   'I 41/a'
_symmetry_Int_Tables_number      88
_space_group_name_Hall           '-I 4ad'
loop_
_symmetry_equiv_pos_site_id
_symmetry_equiv_pos_as_xyz
1 x,y,z
2 3/4-y,1/4+x,1/4+z
3 1/2+x,1/2+y,1/2+z
4 1/4-y,3/4+x,3/4+z
5 1/4+y,1/4-x,1/4+z
6 1/2-x,-y,1/2+z
7 3/4+y,3/4-x,3/4+z
8 -x,1/2-y,z
9 -x,-y,-z
10 1/4+y,3/4-x,3/4-z
11 1/2-x,1/2-y,1/2-z
12 3/4+y,1/4-x,1/4-z
13 3/4-y,3/4+x,3/4-z
14 1/2+x,y,1/2-z
15 1/4-y,1/4+x,1/4-z
16 x,1/2+y,-z
_cell_length_a                   40.698(2)
_cell_length_b                   40.698(2)
_cell_length_c                   13.5231(10)
_cell_angle_alpha                90
_cell_angle_beta                 90
_cell_angle_gamma                90
_cell_volume                     22398.7
loop_
_atom_site_label
_atom_site_type_symbol
_atom_site_fract_x
_atom_site_fract_y
_atom_site_fract_z
Cd1 Cd 0.467394(10) 0.583062(10) 0.54914(3)
Cd2 Cd 0.370357(10) 0.619235(9) 0.37126(3)
Cd3 Cd 0.267257(10) 0.699042(11) 0.50475(3)
Cd4 Cd 0.334660(9) 0.723650(9) 1.19076(3)
C1 C 0.43972(13) 0.68837(13) 0.3501(5)
C2 C 0.45015(12) 0.65674(14) 0.3231(4)
C3 C 0.45980(12) 0.65149(13) 0.2251(4)
C4 C 0.46078(15) 0.67797(17) 0.1603(6)
H1 H 0.4674 0.6743 0.0954
C5 C 0.45267(16) 0.70823(18) 0.1867(5)
H2 H 0.4546 0.7257 0.1427
C6 C 0.44114(14) 0.71306(16) 0.2829(5)
H3 H 0.4342 0.7339 0.3015
C7 C 0.42604(16) 0.69524(14) 0.4502(4)
C8 C 0.39182(13) 0.70028(14) 0.4561(4)
C9 C 0.37694(13) 0.71042(14) 0.5485(4)
C10 C 0.39729(15) 0.71553(16) 0.6264(5)
H4 H 0.3881 0.7222 0.6861
C11 C 0.43181(13) 0.71122(13) 0.6214(5)
H5 H 0.4450 0.7157 0.6759
C12 C 0.44569(14) 0.70007(15) 0.5333(5)
H6 H 0.4681 0.6958 0.5300
C13 C 0.46816(17) 0.61847(17) 0.1871(5)
C14 C 0.44984(13) 0.62999(14) 0.3992(4)
C15 C 0.37143(13) 0.69758(13) 0.3658(4)
C16 C 0.34211(14) 0.71368(13) 0.5571(4)
C17 C 0.39618(15) 0.54931(15) 0.9742(4)
H7 H 0.3920 0.5604 1.0331
C18 C 0.41276(14) 0.51846(13) 0.9755(4)
C19 C 0.41715(14) 0.50137(14) 0.8922(4)
C20 C 0.40379(13) 0.51201(13) 0.8010(4)
C21 C 0.38947(14) 0.54217(14) 0.7968(4)
H8 H 0.3815 0.5499 0.7367
C22 C 0.38633(15) 0.56266(15) 0.8854(5)
H9 H 0.3780 0.5839 0.8818
C23 C 0.40646(15) 0.47507(16) 0.5403(5)
C24 C 0.41234(13) 0.49774(13) 0.6214(4)
C25 C 0.40205(13) 0.48945(14) 0.7128(4)
C26 C 0.38583(15) 0.46070(15) 0.7310(4)
H10 H 0.3794 0.4556 0.7952
C27 C 0.37880(15) 0.43885(15) 0.6539(5)
H11 H 0.3673 0.4196 0.6666
C28 C 0.38929(16) 0.44620(16) 0.5566(5)
H12 H 0.3847 0.4319 0.5046
C29 C 0.42505(15) 0.50600(15) 1.0734(4)
C30 C 0.43604(15) 0.46945(13) 0.8989(4)
C31 C 0.43015(14) 0.52880(13) 0.5952(4)
C32 C 0.42206(13) 0.48036(17) 0.4408(4)
C33 C 0.41484(14) 0.62500(14) 0.6654(4)
H13 H 0.4051 0.6231 0.6034
C34 C 0.39778(16) 0.64212(16) 0.7397(4)
H14 H 0.3779 0.6526 0.7262
C35 C 0.41149(15) 0.64296(14) 0.8339(4)
C36 C 0.44334(14) 0.62779(15) 0.8494(4)
H15 H 0.4540 0.6285 0.9102
C37 C 0.45660(15) 0.61257(15) 0.7703(5)
H16 H 0.4765 0.6017 0.7792
C38 C 0.39453(14) 0.66162(14) 0.9165(4)
C39 C 0.37430(15) 0.68937(17) 0.8952(5)
H17 H 0.3715 0.6969 0.8308
C40 C 0.35893(15) 0.70462(14) 0.9743(4)
H18 H 0.3463 0.7232 0.9615
C41 C 0.37907(16) 0.66729(16) 1.0856(5)
H19 H 0.3802 0.6594 1.1501
C42 C 0.39626(16) 0.65046(16) 1.0111(5)
H20 H 0.4087 0.6319 1.0263
N1 N 0.44309(12) 0.61191(12) 0.6789(4)
N2 N 0.36110(12) 0.69428(13) 1.0672(4)
O1 O 0.42246(9) 0.61773(9) 0.4287(3)
O2 O 0.47607(10) 0.62232(11) 0.4385(3)
O3 O 0.45611(12) 0.59354(11) 0.2290(4)
O4 O 0.48566(11) 0.61617(11) 0.1124(3)
O5 O 0.36783(9) 0.67157(10) 0.3221(3)
O6 O 0.36157(10) 0.72477(10) 0.3330(3)
O7 O 0.32327(9) 0.69497(9) 0.5059(3)
O8 O 0.33040(10) 0.73474(9) 0.6128(3)
O9 O 0.46097(9) 0.46545(9) 0.8482(3)
O10 O 0.42597(9) 0.44817(10) 0.9617(3)
O11 O 0.45564(10) 0.50366(11) 1.0867(3)
O12 O 0.40509(10) 0.49733(10) 1.1403(3)
O13 O 0.42189(9) 0.54515(9) 0.5238(3)
O14 O 0.45447(11) 0.53627(9) 0.6489(3)
O15 O 0.40275(12) 0.47873(11) 0.3671(3)
O16 O 0.45119(10) 0.48356(10) 0.4324(3)
O17 O 0.49988(11) 0.54772(10) 0.4558(3)
H21 H 0.5193 0.5579 0.4653
H22 H 0.5041 0.5301 0.4939
O18 O 0.38872(9) 0.59797(10) 0.2243(3)
H23 H 0.4025 0.5808 0.2318
H24 H 0.4023 0.6104 0.1876
O19 O 0.36605(10) 0.56605(10) 0.4328(4)
H25 H 0.3718 0.5681 0.4967
H26 H 0.3850 0.5595 0.4044
O20 O 0.34651(11) 0.63205(11) 0.5188(3)
H27 H 0.3353 0.6508 0.5089
H28 H 0.3332 0.6176 0.5491
O21 O 0.31745(12) 0.61759(12) 0.2968(4)
H29 H 0.3209 0.6198 0.2314
H30 H 0.3073 0.6361 0.3164
O22 O 0.27030(9) 0.75307(9) 0.4658(3)
H31 H 0.2787 0.7640 0.5180
H32 H 0.2497 0.7590 0.4499
O23 O 0.21198(11) 0.69440(11) 0.5559(3)
H33 H 0.2142 0.6940 0.6221
H34 H 0.2017 0.7130 0.5373
O24 O 0.30055(10) 0.75905(10) 1.2716(3)
H35 H 0.2895 0.7692 1.2227
H36 H 0.2869 0.7446 1.3009
Cd1K Cd 0.333062(10) 0.782606(10) 0.70086(3)
Cd3F Cd 0.449042(11) 0.482743(10) 1.25475(3)
Cd3F_2 Cd 0.449042(11) 0.482743(10) 0.25475(3)
Cd4N Cd 0.526350(9) 0.584660(9) 0.05924(3)
Cd4_2 Cd 0.334660(9) 0.723650(9) 0.19076(3)
Cd4F Cd 0.473650(9) 0.415340(9) 0.94076(3)
O4K O 0.36617(11) 0.76434(11) 1.1376(3)
O6_2 O 0.36157(10) 0.72477(10) 1.3330(3)
O8N O 0.51526(9) 0.58040(10) 0.6372(3)
O9A O 0.28455(9) 0.71097(9) 1.0982(3)
O10A O 0.30183(10) 0.67597(9) 1.2117(3)
O11A O 0.24634(11) 0.70564(10) 0.3367(3)
O12A O 0.25267(10) 0.65509(10) 0.3903(3)
O15A O 0.27127(11) 0.65275(12) 0.6171(3)
O16A O 0.26644(10) 0.70119(10) 0.6824(3)
O26 O 0.32680(10) 0.49203(10) 0.9394(3)
H39 H 0.3310(17) 0.4934(17) 1.006(6)
H40 H 0.3359(17) 0.4726(18) 0.919(5)
O27 O 0.25818(11) 0.49795(12) 0.8983(3)
H41 H 0.2588(18) 0.5177(19) 0.865(6)
H42 H 0.2806(16) 0.4903(15) 0.921(5)
O28 O 0.24702(10) 0.42997(11) 0.8954(3)
H43 H 0.2462(15) 0.4513(15) 0.888(5)
H44 H 0.2676(17) 0.4223(16) 0.909(5)
O29 O 0.20522(10) 0.40821(10) 0.0735(3)
H45 H 0.2191(17) 0.4103(17) 0.021(6)
H46 H 0.2172(17) 0.4030(16) 0.129(5)
O30 O 0.18483(11) 0.48143(11) 0.0721(3)
H47 H 0.1881(18) 0.459(2) 0.073(5)
H48 H 0.1684(19) 0.4869(18) 0.115(6)
loop_
_geom_bond_atom_site_label_1
_geom_bond_atom_site_label_2
_geom_bond_site_symmetry_1
_geom_bond_site_symmetry_2
Cd1 N1 1_555 1_555
Cd2 O1 1_555 1_555
Cd3 O7 1_555 1_555
Cd4 N2 1_555 1_555
C1 C2 1_555 1_555
C2 C3 1_555 1_555
C3 C4 1_555 1_555
C4 H1 1_555 1_555
C5 C4 1_555 1_555
H2 C5 1_555 1_555
C6 C1 1_555 1_555
H3 C6 1_555 1_555
C7 C1 1_555 1_555
C8 C7 1_555 1_555
C9 C8 1_555 1_555
C10 C9 1_555 1_555
H4 C10 1_555 1_555
C11 C10 1_555 1_555
H5 C11 1_555 1_555
C12 C7 1_555 1_555
H6 C12 1_555 1_555
C13 C3 1_555 1_555
C14 C2 1_555 1_555
C15 C8 1_555 1_555
C16 C9 1_555 1_555
C17 H7 1_555 1_555
C18 C17 1_555 1_555
C19 C18 1_555 1_555
C20 C19 1_555 1_555
C21 C20 1_555 1_555
H8 C21 1_555 1_555
C22 C17 1_555 1_555
H9 C22 1_555 1_555
C23 C24 1_555 1_555
C24 C25 1_555 1_555
C25 C20 1_555 1_555
C26 C25 1_555 1_555
H10 C26 1_555 1_555
C27 C26 1_555 1_555
H11 C27 1_555 1_555
C28 C23 1_555 1_555
H12 C28 1_555 1_555
C29 C18 1_555 1_555
C30 C19 1_555 1_555
C31 C24 1_555 1_555
C32 C23 1_555 1_555
C33 H13 1_555 1_555
C34 C33 1_555 1_555
H14 C34 1_555 1_555
C35 C34 1_555 1_555
C36 C35 1_555 1_555
H15 C36 1_555 1_555
C37 C36 1_555 1_555
H16 C37 1_555 1_555
C38 C35 1_555 1_555
C39 C38 1_555 1_555
H17 C39 1_555 1_555
C40 C39 1_555 1_555
H18 C40 1_555 1_555
C41 H19 1_555 1_555
C42 C38 1_555 1_555
H20 C42 1_555 1_555
N1 C33 1_555 1_555
N2 C40 1_555 1_555
O1 C14 1_555 1_555
O2 Cd1 1_555 1_555
O3 C13 1_555 1_555
O4 C13 1_555 1_555
O5 Cd2 1_555 1_555
O6 C15 1_555 1_555
O7 C16 1_555 1_555
O8 C16 1_555 1_555
O9 C30 1_555 1_555
O10 C30 1_555 1_555
O11 C29 1_555 1_555
O12 C29 1_555 1_555
O13 Cd1 1_555 1_555
O14 Cd1 1_555 1_555
O15 C32 1_555 1_555
O16 C32 1_555 1_555
O17 Cd1 1_555 1_555
H21 O17 1_555 1_555
H22 O17 1_555 1_555
O18 Cd2 1_555 1_555
H23 O18 1_555 1_555
H24 O18 1_555 1_555
O19 Cd2 1_555 1_555
H25 O19 1_555 1_555
H26 O19 1_555 1_555
O20 Cd2 1_555 1_555
H27 O20 1_555 1_555
H28 O20 1_555 1_555
O21 Cd2 1_555 1_555
H29 O21 1_555 1_555
H30 O21 1_555 1_555
O22 Cd3 1_555 1_555
H31 O22 1_555 1_555
H32 O22 1_555 1_555
O23 Cd3 1_555 1_555
H33 O23 1_555 1_555
H34 O23 1_555 1_555
O24 Cd4 1_555 1_555
H35 O24 1_555 1_555
H36 O24 1_555 1_555
O26 H39 1_555 1_555
H40 O26 1_555 1_555
O27 H41 1_555 1_555
H42 O27 1_555 1_555
O28 H43 1_555 1_555
H44 O28 1_555 1_555
O29 H45 1_555 1_555
H46 O29 1_555 1_555
O30 H47 1_555 1_555
H48 O30 1_555 1_555
Cd1K O8 1_555 1_555
Cd3F O11 1_555 1_555
Cd3F_2 O15 1_555 1_555
Cd4N O4 1_555 1_555
Cd4_2 O6 1_555 1_555
Cd4F O9 1_555 1_555
O4K Cd4 1_555 1_555
O6_2 Cd4 1_555 1_555
O8N Cd1 1_555 1_555
O9A Cd4 1_555 1_555
O10A Cd4 1_555 1_555
O11A Cd3 1_555 1_555
O12A Cd3 1_555 1_555
O15A Cd3 1_555 1_555
O16A Cd3 1_555 1_555
C5 C6 1_555 1_555
C11 C12 1_555 1_555
C14 O2 1_555 1_555
C15 O5 1_555 1_555
C21 C22 1_555 1_555
C27 C28 1_555 1_555
C31 O13 1_555 1_555
C31 O14 1_555 1_555
C37 N1 1_555 1_555
C41 C42 1_555 1_555
C41 N2 1_555 1_555
O10 Cd4F 1_555 1_555
O12 Cd3F 1_555 1_555
O16 Cd3F_2 1_555 1_555

#END
