
#######################################################################
#
#                 Cambridge Crystallographic Data Centre
#                                CCDC 
#
#######################################################################
#
# If this CIF has been generated from an entry in the Cambridge 
# Structural Database, then it will include bibliographic, chemical, 
# crystal, experimental, refinement or atomic coordinate data resulting 
# from the CCDC's data processing and validation procedures.
#
#######################################################################

data_DIBXOD
_chemical_formula_moiety         '(C32 H26 Cu2 Dy2 N10 O21)n'
_symmetry_cell_setting           triclinic
_symmetry_space_group_name_H-M   'P -1'
_symmetry_Int_Tables_number      2
_space_group_name_Hall           '-P 1'
loop_
_symmetry_equiv_pos_site_id
_symmetry_equiv_pos_as_xyz
1 x,y,z
2 -x,-y,-z
_cell_length_a                   10.6761(16)
_cell_length_b                   10.7356(16)
_cell_length_c                   11.9637(18)
_cell_angle_alpha                69.991(2)
_cell_angle_beta                 77.562(2)
_cell_angle_gamma                60.8412(10)
_cell_volume                     1123.18
loop_
_atom_site_label
_atom_site_type_symbol
_atom_site_fract_x
_atom_site_fract_y
_atom_site_fract_z
C1 C 0.8222(16) 0.0213(16) 0.7168(14)
C2 C 0.8284(14) 0.0119(14) 0.8361(12)
C3 C 0.7174(18) 0.0347(18) 0.6432(16)
C4 C 0.7344(13) -0.0044(14) 0.9438(12)
C5 C 0.0558(19) 0.6858(19) 0.5428(17)
H1 H -0.0106 0.7278 0.4853
C6 C 0.1144(19) 0.536(2) 0.5945(17)
H2 H 0.0887 0.4787 0.5699
C7 C 0.2118(15) 0.4670(16) 0.6833(14)
C8 C 0.244(2) 0.559(2) 0.714(2)
H3 H 0.3074 0.5203 0.7730
C9 C 0.183(2) 0.708(2) 0.6567(19)
H4 H 0.2081 0.7672 0.6791
C10 C 0.2767(14) 0.3043(14) 0.7459(12)
C11 C 0.9223(19) -0.6795(19) 0.8666(17)
H5 H 1.0005 -0.7183 0.8152
C12 C 0.8420(18) -0.5286(18) 0.8451(16)
H6 H 0.8672 -0.4652 0.7803
C13 C 0.7240(16) -0.4712(16) 0.9198(14)
C14 C 0.6859(15) -0.5674(15) 1.0147(13)
H7 H 0.6052 -0.5314 1.0650
C15 C 0.7701(16) -0.7164(17) 1.0319(15)
H8 H 0.7443 -0.7816 1.0944
C16 C 0.6286(14) -0.3035(14) 0.8918(12)
Cu1 Cu 1.0000 0.0000 1.0000
Cu2 Cu 1.0000 0.0000 0.5000
Dy1 Dy 0.45137(7) 0.00163(7) 0.83855(6)
N1 N 0.9406(13) 0.0217(14) 0.6628(12)
N2 N 1.0209(12) 0.0214(12) 0.7402(11)
N3 N 0.9529(11) 0.0082(11) 0.8447(10)
N4 N 0.0907(13) 0.7733(14) 0.5719(12)
N5 N 0.8877(12) -0.7726(13) 0.9630(11)
O1 O 0.7644(12) 0.0071(12) 0.5442(11)
O2 O 0.5859(11) 0.0744(11) 0.6851(10)
O3 O 0.6174(9) -0.0065(9) 0.9450(8)
O4 O 0.7786(10) -0.0145(10) 1.0419(9)
O5 O 0.2628(12) 0.2179(12) 0.7063(11)
O6 O 0.3546(13) 0.2582(13) 0.8290(11)
O7 O 0.5125(12) -0.2517(12) 0.9554(11)
O8 O 0.6665(12) -0.2183(13) 0.8079(11)
O9 O 0.3696(13) -0.0796(13) 0.7222(11)
H9 H 0.286(7) -0.039(14) 0.702(15)
H10 H 0.410(13) -0.153(8) 0.701(12)
C1A C 0.1778(16) -0.0213(16) 1.2832(14)
C2A C 0.1716(14) -0.0119(14) 1.1639(12)
C3A C 0.2826(18) -0.0347(18) 1.3568(16)
C4A C 0.2656(13) 0.0044(14) 1.0562(12)
C5A C 0.9442(19) -0.6858(19) 1.4572(17)
H1A H 1.0106 -0.7278 1.5147
C6A C 0.8856(19) -0.536(2) 1.4055(17)
H2A H 0.9113 -0.4787 1.4301
C7A C 0.7882(15) -0.4670(16) 1.3167(14)
C8A C 0.756(2) -0.559(2) 1.286(2)
H3A H 0.6926 -0.5203 1.2270
C9A C 0.817(2) -0.708(2) 1.3433(19)
H4A H 0.7919 -0.7672 1.3209
C10A C 0.7233(14) -0.3043(14) 1.2541(12)
C11A C 0.0777(19) 0.6795(19) 1.1334(17)
H5A H -0.0005 0.7183 1.1848
C12A C 0.1580(18) 0.5286(18) 1.1549(16)
H6A H 0.1328 0.4652 1.2197
C13A C 0.2760(16) 0.4712(16) 1.0802(14)
C14A C 0.3141(15) 0.5674(15) 0.9853(13)
H7A H 0.3948 0.5314 0.9350
C15A C 0.2299(16) 0.7164(17) 0.9681(15)
H8A H 0.2557 0.7816 0.9056
C16A C 0.3714(14) 0.3035(14) 1.1082(12)
Dy1A Dy 0.54863(7) -0.00163(7) 1.16145(6)
N1A N 0.0594(13) -0.0217(14) 1.3372(12)
N2A N -0.0209(12) -0.0214(12) 1.2598(11)
N3A N 0.0471(11) -0.0082(11) 1.1553(10)
N4A N 0.9093(13) -0.7733(14) 1.4281(12)
N5A N 0.1123(12) 0.7726(13) 1.0370(11)
O1A O 0.2356(12) -0.0071(12) 1.4558(11)
O2A O 0.4141(11) -0.0744(11) 1.3149(10)
O3A O 0.3826(9) 0.0065(9) 1.0550(8)
O4A O 0.2214(10) 0.0145(10) 0.9581(9)
O5A O 0.7372(12) -0.2179(12) 1.2937(11)
O6A O 0.6454(13) -0.2582(13) 1.1710(11)
O7A O 0.4875(12) 0.2517(12) 1.0446(11)
O8A O 0.3335(12) 0.2183(13) 1.1921(11)
O9A O 0.6304(13) 0.0796(13) 1.2778(11)
H9A H 0.714(7) 0.039(14) 1.298(15)
H10A H 0.590(13) 0.153(8) 1.299(12)
Cu1_2 Cu 0.0000 0.0000 1.0000
Cu1_3 Cu 0.0000 1.0000 1.0000
Cu1_4 Cu 1.0000 -1.0000 1.0000
Cu2_2 Cu 0.0000 0.0000 1.5000
Cu2_3 Cu -0.0000 1.0000 0.5000
Cu2_4 Cu 1.0000 -1.0000 1.5000
N1A_2 N 1.0594(13) -0.0217(14) 0.3372(12)
N3A_2 N 1.0471(11) -0.0082(11) 1.1553(10)
N4_2 N 1.0907(13) -0.2267(14) 0.5719(12)
N4A_2 N 0.9093(13) 0.2267(14) 0.4281(12)
N5_2 N 0.8877(12) 0.2274(13) 0.9630(11)
N5A_2 N 1.1123(12) -0.2274(13) 1.0370(11)
O1A_2 O 1.2356(12) -0.0071(12) 0.4558(11)
O4A_2 O 1.2214(10) 0.0145(10) 0.9581(9)
O10 O 0.4095(8) 0.6499(14) 0.1990(8)
H11 H 0.4288(10) 0.6498(19) 0.2618(12)
H12 H 0.3308(10) 0.650(2) 0.2147(19)
O11 O 0.479(2) 0.3445(9) 0.3287(9)
H13 H 0.504(11) 0.2780(10) 0.3911(17)
H14 H 0.442(16) 0.4207(9) 0.350(2)
O12 O 0.2770(7) 0.2555(9) 0.457(2)
H15 H 0.3611(7) 0.1928(19) 0.465(6)
H16 H 0.2334(12) 0.2060(18) 0.471(9)
loop_
_geom_bond_atom_site_label_1
_geom_bond_atom_site_label_2
_geom_bond_site_symmetry_1
_geom_bond_site_symmetry_2
C1 C2 1_555 1_555
C2 C4 1_555 1_555
C3 C1 1_555 1_555
C4 O3 1_555 1_555
C5 H1 1_555 1_555
C6 C5 1_555 1_555
H2 C6 1_555 1_555
C7 C6 1_555 1_555
C8 C7 1_555 1_555
H3 C8 1_555 1_555
C9 C8 1_555 1_555
H4 C9 1_555 1_555
C10 C7 1_555 1_555
C11 H5 1_555 1_555
C12 C11 1_555 1_555
H6 C12 1_555 1_555
C13 C12 1_555 1_555
C14 C13 1_555 1_555
H7 C14 1_555 1_555
C15 C14 1_555 1_555
H8 C15 1_555 1_555
C16 C13 1_555 1_555
Cu1 N3 1_555 1_555
Cu2 N1 1_555 1_555
Dy1 O2 1_555 1_555
N1 C1 1_555 1_555
N2 N1 1_555 1_555
N3 C2 1_555 1_555
N4 C5 1_555 1_555
N5 C11 1_555 1_555
O1 C3 1_555 1_555
O2 C3 1_555 1_555
O3 Dy1 1_555 1_555
O4 C4 1_555 1_555
O5 C10 1_555 1_555
O6 C10 1_555 1_555
O7 C16 1_555 1_555
O8 C16 1_555 1_555
O9 Dy1 1_555 1_555
H9 O9 1_555 1_555
H10 O9 1_555 1_555
O10 H11 1_555 1_555
H12 O10 1_555 1_555
O11 H13 1_555 1_555
H14 O11 1_555 1_555
O12 H15 1_555 1_555
H16 O12 1_555 1_555
C1A C2A 1_555 1_555
C2A C4A 1_555 1_555
C3A C1A 1_555 1_555
C4A O3A 1_555 1_555
C5A H1A 1_555 1_555
C6A C5A 1_555 1_555
H2A C6A 1_555 1_555
C7A C6A 1_555 1_555
C8A C7A 1_555 1_555
H3A C8A 1_555 1_555
C9A C8A 1_555 1_555
H4A C9A 1_555 1_555
C10A C7A 1_555 1_555
C11A H5A 1_555 1_555
C12A C11A 1_555 1_555
H6A C12A 1_555 1_555
C13A C12A 1_555 1_555
C14A C13A 1_555 1_555
H7A C14A 1_555 1_555
C15A C14A 1_555 1_555
H8A C15A 1_555 1_555
C16A C13A 1_555 1_555
Dy1A O3 1_555 1_555
N1A C1A 1_555 1_555
N2A N1A 1_555 1_555
N3A C2A 1_555 1_555
N4A C5A 1_555 1_555
N5A C11A 1_555 1_555
O1A C3A 1_555 1_555
O2A C3A 1_555 1_555
O3A Dy1 1_555 1_555
O4A Dy1 1_555 1_555
O5A C10A 1_555 1_555
O6A C10A 1_555 1_555
O7A C16A 1_555 1_555
O8A C16A 1_555 1_555
O9A Dy1A 1_555 1_555
H9A O9A 1_555 1_555
H10A O9A 1_555 1_555
Cu1_2 N3A 1_555 1_555
Cu1_3 N5A 1_555 1_555
Cu1_4 N5 1_555 1_555
Cu2_2 N1A 1_555 1_555
Cu2_3 N4 1_555 1_555
Cu2_4 N4A 1_555 1_555
N1A_2 Cu2 1_555 1_555
N3A_2 Cu1 1_555 1_555
N4_2 Cu2 1_555 1_555
N4A_2 Cu2 1_555 1_555
N5_2 Cu1 1_555 1_555
N5A_2 Cu1 1_555 1_555
O1A_2 Cu2 1_555 1_555
O4A_2 Cu1 1_555 1_555
C9 N4 1_555 1_555
C15 N5 1_555 1_555
Cu1 O4 1_555 1_555
Cu2 O1 1_555 1_555
Dy1 O5 1_555 1_555
Dy1 O6 1_555 1_555
Dy1 O7 1_555 1_555
Dy1 O8 1_555 1_555
N2 N3 1_555 1_555
O4 Dy1A 1_555 1_555
C4A O4A 1_555 1_555
C9A N4A 1_555 1_555
C15A N5A 1_555 1_555
Dy1A O2A 1_555 1_555
Dy1A O3A 1_555 1_555
Dy1A O5A 1_555 1_555
Dy1A O6A 1_555 1_555
Dy1A O7A 1_555 1_555
Dy1A O8A 1_555 1_555
N2A N3A 1_555 1_555
O1A Cu2_2 1_555 1_555
O4A Cu1_2 1_555 1_555

#END
