
#######################################################################
#
#                 Cambridge Crystallographic Data Centre
#                                CCDC 
#
#######################################################################
#
# If this CIF has been generated from an entry in the Cambridge 
# Structural Database, then it will include bibliographic, chemical, 
# crystal, experimental, refinement or atomic coordinate data resulting 
# from the CCDC's data processing and validation procedures.
#
#######################################################################

data_IBUBIT
_chemical_formula_moiety         '(C40 H24 N12 O16 Zn5)n'
_symmetry_cell_setting           orthorhombic
_symmetry_space_group_name_H-M   'I m m a'
_symmetry_Int_Tables_number      74
_space_group_name_Hall           '-I 2b 2'
loop_
_symmetry_equiv_pos_site_id
_symmetry_equiv_pos_as_xyz
1 x,y,z
2 -x,1/2-y,z
3 x,-y,-z
4 -x,1/2+y,-z
5 1/2+x,1/2+y,1/2+z
6 1/2-x,-y,1/2+z
7 1/2+x,1/2-y,1/2-z
8 1/2-x,y,1/2-z
9 -x,-y,-z
10 x,1/2+y,-z
11 -x,y,z
12 x,1/2-y,z
13 1/2-x,1/2-y,1/2-z
14 1/2+x,y,1/2-z
15 1/2-x,1/2+y,1/2+z
16 1/2+x,-y,1/2+z
_cell_length_a                   9.4770(8)
_cell_length_b                   34.800(3)
_cell_length_c                   25.010(2)
_cell_angle_alpha                90
_cell_angle_beta                 90
_cell_angle_gamma                90
_cell_volume                     8248.29
loop_
_atom_site_label
_atom_site_type_symbol
_atom_site_fract_x
_atom_site_fract_y
_atom_site_fract_z
Zn1 Zn 0.0000 -0.09457(3) 0.05524(5)
Zn2 Zn 0.0000 0.09144(3) 0.40838(5)
Zn3 Zn 0.0000 0.0000 0.0000
O1 O 0.0000 0.0174(3) 0.3721(4)
N1 N 0.1554(8) -0.07709(17) 0.0081(2)
N2 N 0.3335(7) -0.07513(18) -0.0506(2)
O2 O 0.0000 -0.0698(2) 0.1240(3)
O3 O 0.0000 -0.0141(2) 0.0844(3)
C1 C 0.2626(11) -0.0961(2) -0.0137(3)
H1 H 0.2865 -0.1212 -0.0046
C2 C 0.0000 0.0218(4) 0.2784(6)
O4 O 0.0000 0.0745(3) 0.3335(3)
C3 C 0.0000 -0.0338(4) 0.1241(6)
O5 O 0.0000 0.1483(3) 0.3998(5)
C4 C 0.0000 -0.0148(3) 0.1756(6)
C5 C -0.0000 -0.1685(6) 0.0682(9)
N3 N 0.1571(9) -0.04151(16) -0.0155(3)
C6 C 0.2609(10) -0.0421(2) -0.0496(3)
H2 H 0.2829 -0.0213 -0.0714
C7 C 0.0000 -0.0341(4) 0.2224(7)
H3 H 0.0000 -0.0608 0.2211
C8 C 0.0000 0.0381(4) 0.3323(6)
C9 C 0.0000 0.0235(4) 0.1826(6)
H4 H 0.0000 0.0391 0.1524
C10 C 0.0000 0.0409(4) 0.2319(7)
H5 H 0.0000 0.0676 0.2331
O6 O 0.0000 0.1560(4) 0.4833(6)
C11 C 0.0000 0.2110(5) 0.4239(9)
C12 C 0.0000 -0.0167(5) 0.2722(6)
H6 H 0.0000 -0.0322 0.3025
C13 C 0.0000 0.2302(4) 0.4722(8)
H7 H 0.0000 0.2166 0.5042
C14 C 0.0000 0.2296(4) 0.3753(8)
H8 H 0.0000 0.2159 0.3434
C15 C -0.0000 0.1683(6) 0.4345(10)
C16 C -0.0000 -0.2114(5) 0.0678(8)
O7 O -0.1062(14) -0.1514(2) 0.0673(4)
C17 C -0.1250(19) -0.2300(3) 0.0670(5)
H9 H -0.2094 -0.2163 0.0665
O5A O 0.0000 0.3517(3) 0.3998(5)
O6A O 0.0000 0.3440(4) 0.4833(6)
C11A C 0.0000 0.2890(5) 0.4239(9)
C13A C 0.0000 0.2698(4) 0.4722(8)
H7A H 0.0000 0.2834 0.5042
C14A C 0.0000 0.2704(4) 0.3753(8)
H8A H 0.0000 0.2841 0.3434
C15A C 0.0000 0.3317(6) 0.4345(10)
O7J O 0.1062(14) -0.1514(2) 0.0673(4)
C17J C 0.1250(19) -0.2300(3) 0.0670(5)
H9J H 0.2094 -0.2163 0.0665
C5A C -0.0000 -0.3315(6) 0.0682(9)
C16A C -0.0000 -0.2886(5) 0.0678(8)
O7K O -0.1062(14) -0.3486(2) 0.0673(4)
C17K C -0.1250(19) -0.2700(3) 0.0670(5)
H9K H -0.2094 -0.2837 0.0665
O7A O 0.1062(14) -0.3486(2) 0.0673(4)
C17A C 0.1250(19) -0.2700(3) 0.0670(5)
H9A H 0.2094 -0.2837 0.0665
Zn1A Zn -0.0000 -0.40543(3) 0.05524(5)
Zn2A Zn 0.0000 -0.59144(3) 0.40838(5)
O1A O 0.0000 -0.5174(3) 0.3721(4)
N1A N -0.1554(8) -0.42291(17) 0.0081(2)
N2A N -0.3335(7) -0.42487(18) -0.0506(2)
O2A O 0.0000 -0.4302(2) 0.1240(3)
O3A O -0.0000 -0.4859(2) 0.0844(3)
C1A C -0.2626(11) -0.4039(2) -0.0137(3)
H1A H -0.2865 -0.3788 -0.0046
C2A C 0.0000 -0.5218(4) 0.2784(6)
O4A O -0.0000 -0.5745(3) 0.3335(3)
C3A C -0.0000 -0.4662(4) 0.1241(6)
C4A C -0.0000 -0.4852(3) 0.1756(6)
N3A N -0.1571(9) -0.45849(16) -0.0155(3)
C6A C -0.2609(10) -0.4579(2) -0.0496(3)
H2A H -0.2829 -0.4787 -0.0714
C7A C 0.0000 -0.4659(4) 0.2224(7)
H3A H 0.0000 -0.4392 0.2211
C8A C 0.0000 -0.5381(4) 0.3323(6)
C9A C -0.0000 -0.5235(4) 0.1826(6)
H4A H -0.0000 -0.5391 0.1524
C10A C -0.0000 -0.5409(4) 0.2319(7)
H5A H -0.0000 -0.5676 0.2331
C12A C -0.0000 -0.4833(5) 0.2722(6)
H6A H 0.0000 -0.4678 0.3025
N1J N -0.1554(8) -0.07709(17) 0.0081(2)
N2J N -0.3335(7) -0.07513(18) -0.0506(2)
C1J C -0.2626(11) -0.0961(2) -0.0137(3)
H1J H -0.2865 -0.1212 -0.0046
N3J N -0.1571(9) -0.04151(16) -0.0155(3)
C6J C -0.2609(10) -0.0421(2) -0.0496(3)
H2J H -0.2829 -0.0213 -0.0714
N1K N 0.1554(8) -0.42291(17) 0.0081(2)
N2K N 0.3335(7) -0.42487(18) -0.0506(2)
C1K C 0.2626(11) -0.4039(2) -0.0137(3)
H1K H 0.2865 -0.3788 -0.0046
N3K N 0.1571(9) -0.45849(16) -0.0155(3)
C6K C 0.2609(10) -0.4579(2) -0.0496(3)
H2K H 0.2829 -0.4787 -0.0714
Zn2A_2 Zn 0.0000 0.40856(3) 0.40838(5)
Zn2D Zn -0.5000 -0.40856(3) -0.09162(5)
Zn2D_2 Zn 0.5000 -0.40856(3) -0.09162(5)
Zn2E Zn -0.5000 -0.09144(3) -0.09162(5)
Zn2E_2 Zn 0.5000 -0.09144(3) -0.09162(5)
Zn3A Zn -0.0000 -0.5000 0.0000
N2D N -0.1665(7) -0.57513(18) 0.4494(2)
N2E N 0.1665(7) 0.07513(18) 0.4494(2)
N2N N 0.1665(7) -0.57513(18) 0.4494(2)
N2O N -0.1665(7) 0.07513(18) 0.4494(2)
O3B O -0.0000 0.0141(2) -0.0844(3)
O5A_2 O 0.0000 -0.6483(3) 0.3998(5)
N3B N 0.1571(9) 0.04151(16) 0.0155(3)
N3H N -0.1571(9) 0.04151(16) 0.0155(3)
loop_
_geom_bond_atom_site_label_1
_geom_bond_atom_site_label_2
_geom_bond_site_symmetry_1
_geom_bond_site_symmetry_2
Zn1 N1 1_555 1_555
Zn2 O4 1_555 1_555
Zn3 O3 1_555 1_555
O1 C8 1_555 1_555
N1 C1 1_555 1_555
N2 C1 1_555 1_555
O2 Zn1 1_555 1_555
O3 C3 1_555 1_555
C1 H1 1_555 1_555
C2 C8 1_555 1_555
O4 C8 1_555 1_555
C3 O2 1_555 1_555
O5 Zn2 1_555 1_555
C4 C3 1_555 1_555
C5 C16 1_555 1_555
N3 Zn3 1_555 1_555
C6 N2 1_555 1_555
H2 C6 1_555 1_555
C7 C4 1_555 1_555
H3 C7 1_555 1_555
C9 C4 1_555 1_555
H4 C9 1_555 1_555
C10 C2 1_555 1_555
H5 C10 1_555 1_555
O6 C15 1_555 1_555
C11 C13 1_555 1_555
C12 C2 1_555 1_555
H6 C12 1_555 1_555
C13 H7 1_555 1_555
C14 C11 1_555 1_555
H8 C14 1_555 1_555
C15 O5 1_555 1_555
C16 C17 1_555 1_555
O7 Zn1 1_555 1_555
C17 H9 1_555 1_555
O5A C15A 1_555 1_555
O6A C15A 1_555 1_555
C11A C13A 1_555 1_555
C13A C13 1_555 1_555
H7A C13A 1_555 1_555
C14A C14 1_555 1_555
H8A C14A 1_555 1_555
C15A C11A 1_555 1_555
O7J Zn1 1_555 1_555
C17J C16 1_555 1_555
H9J C17J 1_555 1_555
C5A C16A 1_555 1_555
C16A C17K 1_555 1_555
O7K C5A 1_555 1_555
C17K C17 1_555 1_555
H9K C17K 1_555 1_555
O7A C5A 1_555 1_555
C17A C17J 1_555 1_555
H9A C17A 1_555 1_555
Zn1A O7K 1_555 1_555
Zn2A O4A 1_555 1_555
O1A C8A 1_555 1_555
N1A Zn1A 1_555 1_555
N2A C1A 1_555 1_555
O2A Zn1A 1_555 1_555
O3A C3A 1_555 1_555
C1A N1A 1_555 1_555
H1A C1A 1_555 1_555
C2A C8A 1_555 1_555
O4A C8A 1_555 1_555
C3A O2A 1_555 1_555
C4A C3A 1_555 1_555
N3A N1A 1_555 1_555
C6A N2A 1_555 1_555
H2A C6A 1_555 1_555
C7A C4A 1_555 1_555
H3A C7A 1_555 1_555
C9A C4A 1_555 1_555
H4A C9A 1_555 1_555
C10A C2A 1_555 1_555
H5A C10A 1_555 1_555
C12A C2A 1_555 1_555
H6A C12A 1_555 1_555
N1J Zn1 1_555 1_555
N2J C1J 1_555 1_555
C1J N1J 1_555 1_555
H1J C1J 1_555 1_555
N3J Zn3 1_555 1_555
C6J N2J 1_555 1_555
H2J C6J 1_555 1_555
N1K Zn1A 1_555 1_555
N2K C1K 1_555 1_555
C1K N1K 1_555 1_555
H1K C1K 1_555 1_555
N3K N1K 1_555 1_555
C6K N2K 1_555 1_555
H2K C6K 1_555 1_555
Zn2A_2 O5A 1_555 1_555
Zn2D N2A 1_555 1_555
Zn2D_2 N2K 1_555 1_555
Zn2E N2J 1_555 1_555
Zn2E_2 N2 1_555 1_555
Zn3A O3A 1_555 1_555
N2D Zn2A 1_555 1_555
N2E Zn2 1_555 1_555
N2N Zn2A 1_555 1_555
N2O Zn2 1_555 1_555
O3B Zn3 1_555 1_555
O5A_2 Zn2A 1_555 1_555
N3B Zn3 1_555 1_555
N3H Zn3 1_555 1_555
N1 N3 1_555 1_555
C5 O7 1_555 1_555
C5 O7J 1_555 1_555
N3 C6 1_555 1_555
C7 C12 1_555 1_555
C9 C10 1_555 1_555
C11 C15 1_555 1_555
C11A C14A 1_555 1_555
C16A C17A 1_555 1_555
O7A Zn1A 1_555 1_555
N3A C6A 1_555 1_555
N3A Zn3A 1_555 1_555
C7A C12A 1_555 1_555
C9A C10A 1_555 1_555
N1J N3J 1_555 1_555
N3J C6J 1_555 1_555
N3K C6K 1_555 1_555
N3K Zn3A 1_555 1_555

#END
