
#######################################################################
#
#                 Cambridge Crystallographic Data Centre
#                                CCDC 
#
#######################################################################
#
# If this CIF has been generated from an entry in the Cambridge 
# Structural Database, then it will include bibliographic, chemical, 
# crystal, experimental, refinement or atomic coordinate data resulting 
# from the CCDC's data processing and validation procedures.
#
#######################################################################

data_IBUBAL
_chemical_formula_moiety         '(C32 H29 Cd4 N9 O14)n'
_symmetry_cell_setting           orthorhombic
_symmetry_space_group_name_H-M   'P b c n'
_symmetry_Int_Tables_number      60
_space_group_name_Hall           '-P 2n 2ab'
loop_
_symmetry_equiv_pos_site_id
_symmetry_equiv_pos_as_xyz
1 x,y,z
2 1/2-x,1/2-y,1/2+z
3 1/2+x,1/2-y,-z
4 -x,y,1/2-z
5 -x,-y,-z
6 1/2+x,1/2+y,1/2-z
7 1/2-x,1/2+y,z
8 x,-y,1/2+z
_cell_length_a                   37.9410(6)
_cell_length_b                   19.9026(4)
_cell_length_c                   14.3533(3)
_cell_angle_alpha                90
_cell_angle_beta                 90
_cell_angle_gamma                90
_cell_volume                     10838.5
loop_
_atom_site_label
_atom_site_type_symbol
_atom_site_fract_x
_atom_site_fract_y
_atom_site_fract_z
Cd1 Cd 0.615763(17) 0.23933(5) 0.50153(6)
Cd2 Cd 0.247731(15) 0.18304(3) 0.75122(5)
Cd3 Cd 0.323936(15) 0.29005(3) 0.41037(5)
Cd4 Cd 0.319850(15) 0.17015(3) 0.58817(5)
C1 C 0.3609(3) 0.2789(6) 0.2032(8)
C2 C 0.2223(3) 0.1023(5) 0.3673(9)
H1 H 0.2096 0.1410 0.3540
C3 C 0.4506(3) 0.2644(8) 0.4450(10)
H2 H 0.4384 0.2942 0.4070
C4 C 0.2770(2) 0.0483(4) 0.3967(6)
H3 H 0.3012 0.0505 0.4067
C5 C 0.2605(2) -0.0131(4) 0.3958(6)
H4 H 0.2738 -0.0522 0.4013
C6 C 0.2343(2) 0.4847(4) 0.6297(6)
C7 C 0.2165(3) 0.5523(4) 0.6252(7)
C8 C 0.3152(3) 0.1954(6) 0.8821(8)
H5 H 0.3013 0.2018 0.9347
C9 C 0.2854(2) 0.2961(4) 0.6041(6)
C10 C 0.3590(2) 0.1917(6) 0.7946(7)
C11 C 0.2243(2) -0.0171(4) 0.3868(6)
C12 C 0.2677(2) 0.3617(4) 0.6185(6)
C13 C 0.5456(3) 0.2281(9) 0.5070(11)
C14 C 0.4513(2) 0.1769(7) 0.5564(8)
H6 H 0.4394 0.1461 0.5936
C15 C 0.2062(2) -0.0834(5) 0.3937(6)
C16 C 0.4879(3) 0.1798(7) 0.5590(9)
H7 H 0.5003 0.1506 0.5976
C17 C 0.2711(2) 0.4812(4) 0.6295(7)
H8 H 0.2844 0.5202 0.6351
C18 C 0.5058(2) 0.2245(8) 0.5060(9)
C19 C 0.2055(3) 0.0406(5) 0.3713(8)
H9 H 0.1812 0.0383 0.3634
C20 C 0.2314(2) 0.3658(4) 0.6247(7)
H10 H 0.2181 0.3265 0.6261
C21 C 0.4325(2) 0.2192(6) 0.4992(8)
C22 C 0.3934(2) 0.2180(5) 0.4979(7)
C23 C 0.2873(2) 0.4206(5) 0.6210(7)
H11 H 0.3117 0.4186 0.6167
C24 C 0.3192(2) 0.3072(5) 0.1111(6)
C25 C 0.2582(2) 0.1062(4) 0.3830(6)
C26 C 0.2752(2) 0.1733(5) 0.3849(6)
C27 C 0.4871(3) 0.2655(8) 0.4470(11)
H12 H 0.4991 0.2945 0.4075
C28 C 0.2147(2) 0.4267(4) 0.6289(7)
H13 H 0.1902 0.4288 0.6311
C29 C 0.6260(7) 0.0963(13) 0.2278(19)
H14 H 0.6282 0.1421 0.2475
H15 H 0.6076 0.0928 0.1821
H16 H 0.6479 0.0815 0.2011
C30 C 0.6122(7) -0.0217(13) 0.2956(19)
H17 H 0.6060 -0.0430 0.3533
H18 H 0.6338 -0.0406 0.2727
H19 H 0.5938 -0.0289 0.2507
C31 C 0.6122(8) 0.0401(14) 0.483(2)
H20 H 0.6116 0.0685 0.5369
H21 H 0.6316 0.0095 0.4875
H22 H 0.5905 0.0152 0.4789
C32 C 0.6165(5) 0.0839(10) 0.3944(15)
O1 O 0.17360(17) -0.0860(3) 0.4061(5)
O2 O 0.2624(2) 0.2206(4) 0.3411(6)
O3 O 0.6168(5) 0.3442(8) 0.5786(10)
H23 H 0.5979 0.3632 0.5960
H24 H 0.6366 0.3630 0.5885
O4 O 0.22399(16) -0.1365(3) 0.3872(4)
O5 O 0.30373(16) 0.1805(3) 0.4320(5)
O6 O 0.2353(2) 0.6046(3) 0.6396(5)
O7 O 0.5608(2) 0.2613(7) 0.4444(8)
O8 O 0.6209(3) 0.1449(6) 0.4042(9)
O9 O 0.18516(18) 0.5563(3) 0.5993(5)
O10 O 0.5612(2) 0.1966(6) 0.5673(7)
O11 O 0.37739(15) 0.1799(4) 0.5531(5)
O12 O 0.31630(15) 0.2943(3) 0.5709(4)
O13 O 0.37887(16) 0.2572(4) 0.4407(5)
O14 O 0.26892(16) 0.2429(3) 0.6209(5)
N1 N 0.33403(19) 0.2910(4) 0.2572(6)
N2 N 0.30699(18) 0.3107(4) 0.1975(6)
N3 N 0.35374(19) 0.2868(5) 0.1124(5)
N4 N 0.3019(4) 0.3263(10) 0.0393(11)
H25 H 0.2810 0.3427 0.0456
H26 H 0.3111 0.3228 -0.0152
N5 N 0.3928(2) 0.1905(7) 0.7625(7)
H27 H 0.3969 0.1827 0.7046
H28 H 0.4100 0.1975 0.8002
N6 N 0.33066(17) 0.1815(4) 0.7426(6)
N7 N 0.30177(19) 0.1823(5) 0.8029(5)
N8 N 0.3506(2) 0.1995(5) 0.8857(6)
N9 N 0.6170(5) 0.0524(10) 0.3112(14)
Cd1C Cd 0.384237(17) 0.23933(5) -0.00153(6)
Cd1C_2 Cd 0.384237(17) 0.23933(5) 0.99847(6)
Cd2A Cd 0.252269(15) 0.31696(3) 0.25122(5)
Cd2F Cd 0.252269(15) 0.68304(3) 0.75122(5)
Cd2G Cd 0.247731(15) -0.18304(3) 0.25122(5)
Cd3F Cd 0.176064(15) -0.20995(3) 0.41037(5)
Cd4F Cd 0.180150(15) 0.67015(3) 0.58817(5)
O1F O 0.32640(17) 0.4140(3) 0.4061(5)
O2A O 0.2376(2) 0.2794(4) 0.8411(6)
O4F O 0.27601(16) 0.3635(3) 0.3872(4)
O4G O 0.22399(16) 0.1365(3) 0.8872(4)
O6F O 0.2647(2) 0.1046(3) 0.6396(5)
O9F O 0.31484(18) 0.0563(3) 0.5993(5)
N2A N 0.19301(18) 0.1893(4) 0.6975(6)
N3C N 0.64626(19) 0.2868(5) 0.3876(5)
N8C N 0.6494(2) 0.1995(5) 0.6143(6)
loop_
_geom_bond_atom_site_label_1
_geom_bond_atom_site_label_2
_geom_bond_site_symmetry_1
_geom_bond_site_symmetry_2
Cd1 O3 1_555 1_555
Cd2 O14 1_555 1_555
Cd3 O5 1_555 1_555
Cd4 O5 1_555 1_555
C1 N1 1_555 1_555
C2 H1 1_555 1_555
C3 H2 1_555 1_555
C4 H3 1_555 1_555
C5 C4 1_555 1_555
H4 C5 1_555 1_555
C6 C7 1_555 1_555
C7 O6 1_555 1_555
C8 H5 1_555 1_555
C9 C12 1_555 1_555
C10 N5 1_555 1_555
C11 C5 1_555 1_555
C12 C20 1_555 1_555
C13 C18 1_555 1_555
C14 H6 1_555 1_555
C15 C11 1_555 1_555
C16 C14 1_555 1_555
H7 C16 1_555 1_555
C17 C6 1_555 1_555
H8 C17 1_555 1_555
C18 C16 1_555 1_555
C19 C2 1_555 1_555
H9 C19 1_555 1_555
C20 H10 1_555 1_555
C21 C3 1_555 1_555
C22 C21 1_555 1_555
C23 C12 1_555 1_555
H11 C23 1_555 1_555
C24 N2 1_555 1_555
C25 C2 1_555 1_555
C26 C25 1_555 1_555
C27 C3 1_555 1_555
H12 C27 1_555 1_555
C28 C6 1_555 1_555
H13 C28 1_555 1_555
C29 H14 1_555 1_555
H15 C29 1_555 1_555
H16 C29 1_555 1_555
C30 H17 1_555 1_555
H18 C30 1_555 1_555
H19 C30 1_555 1_555
C31 H20 1_555 1_555
H21 C31 1_555 1_555
H22 C31 1_555 1_555
C32 C31 1_555 1_555
O1 C15 1_555 1_555
O2 C26 1_555 1_555
O3 H23 1_555 1_555
H24 O3 1_555 1_555
O4 C15 1_555 1_555
O5 C26 1_555 1_555
O6 Cd2F 1_555 1_555
O7 Cd1 1_555 1_555
O8 Cd1 1_555 1_555
O9 C7 1_555 1_555
O10 Cd1 1_555 1_555
O11 Cd4 1_555 1_555
O12 Cd3 1_555 1_555
O13 Cd3 1_555 1_555
O14 Cd4 1_555 1_555
N1 Cd3 1_555 1_555
N2 N1 1_555 1_555
N3 C1 1_555 1_555
N4 C24 1_555 1_555
H25 N4 1_555 1_555
H26 N4 1_555 1_555
N5 H27 1_555 1_555
H28 N5 1_555 1_555
N6 Cd4 1_555 1_555
N7 Cd2 1_555 1_555
N8 C8 1_555 1_555
N9 C29 1_555 1_555
Cd1C N3 1_555 1_555
Cd1C_2 N8 1_555 1_555
Cd2A O2 1_555 1_555
Cd2G O4 1_555 1_555
Cd3F O1 1_555 1_555
Cd4F O6 1_555 1_555
O1F Cd3 1_555 1_555
O2A Cd2 1_555 1_555
O4F Cd3 1_555 1_555
O4G Cd2 1_555 1_555
O6F Cd2 1_555 1_555
O9F Cd4 1_555 1_555
N2A Cd2 1_555 1_555
N3C Cd1 1_555 1_555
N8C Cd1 1_555 1_555
Cd4 O12 1_555 1_555
Cd4 O6F 1_555 1_555
C4 C25 1_555 1_555
C8 N7 1_555 1_555
C9 O12 1_555 1_555
C9 O14 1_555 1_555
C10 N6 1_555 1_555
C10 N8 1_555 1_555
C11 C19 1_555 1_555
C13 O7 1_555 1_555
C13 O10 1_555 1_555
C14 C21 1_555 1_555
C17 C23 1_555 1_555
C18 C27 1_555 1_555
C20 C28 1_555 1_555
C22 O11 1_555 1_555
C22 O13 1_555 1_555
C24 N3 1_555 1_555
C30 N9 1_555 1_555
C32 O8 1_555 1_555
C32 N9 1_555 1_555
O4 Cd3F 1_555 1_555
O9 Cd4F 1_555 1_555
N2 Cd2A 1_555 1_555
N6 N7 1_555 1_555
Cd2A O4F 1_555 1_555

#END
