
#######################################################################
#
#                 Cambridge Crystallographic Data Centre
#                                CCDC 
#
#######################################################################
#
# If this CIF has been generated from an entry in the Cambridge 
# Structural Database, then it will include bibliographic, chemical, 
# crystal, experimental, refinement or atomic coordinate data resulting 
# from the CCDC's data processing and validation procedures.
#
#######################################################################

data_IYOHOU
_chemical_formula_moiety         '(C36 H24 Cl6 N12 Zn3)n'
_symmetry_cell_setting           monoclinic
_symmetry_space_group_name_H-M   'C 2/c'
_symmetry_Int_Tables_number      15
_space_group_name_Hall           '-C 2yc'
loop_
_symmetry_equiv_pos_site_id
_symmetry_equiv_pos_as_xyz
1 x,y,z
2 -x,y,1/2-z
3 1/2+x,1/2+y,z
4 1/2-x,1/2+y,1/2-z
5 -x,-y,-z
6 x,-y,1/2+z
7 1/2-x,1/2-y,-z
8 1/2+x,1/2-y,1/2+z
_cell_length_a                   32.668(3)
_cell_length_b                   14.4026(7)
_cell_length_c                   31.108(3)
_cell_angle_alpha                90
_cell_angle_beta                 100.533(7)
_cell_angle_gamma                90
_cell_volume                     14389.8
loop_
_atom_site_label
_atom_site_type_symbol
_atom_site_fract_x
_atom_site_fract_y
_atom_site_fract_z
_atom_site_U_iso_or_equiv
_atom_site_thermal_displace_type
C1 C 0.30961(17) 0.1040(3) 0.36964(18) 0.0860 Uani
H1 H 0.3106 0.1685 0.3692 0.1030 Uiso
C2 C 0.27994(17) 0.0616(3) 0.33979(18) 0.0892 Uani
H2 H 0.2624 0.0968 0.3192 0.1070 Uiso
C3 C 0.27592(17) -0.0333(3) 0.34011(18) 0.0759 Uani
C4 C 0.30374(17) -0.0823(3) 0.37213(18) 0.0953 Uani
H3 H 0.3024 -0.1467 0.3734 0.1150 Uiso
C5 C 0.33216(18) -0.0356(3) 0.4008(2) 0.1021 Uani
H4 H 0.3492 -0.0691 0.4225 0.1230 Uiso
C6 C 0.24413(17) -0.0812(3) 0.30880(19) 0.0801 Uani
C7 C 0.20981(16) -0.2128(3) 0.28693(17) 0.0619 Uani
C8 C 0.19206(18) -0.0797(3) 0.25183(17) 0.0743 Uani
C9 C 0.20755(15) -0.3181(3) 0.28957(16) 0.0641 Uani
C10 C 0.23294(17) -0.3655(3) 0.3192(2) 0.1073 Uani
H5 H 0.2520 -0.3349 0.3403 0.1290 Uiso
C11 C 0.2310(2) -0.4631(3) 0.3187(3) 0.1316 Uani
H6 H 0.2505 -0.4968 0.3381 0.1580 Uiso
C12 C 0.1761(2) -0.4597(3) 0.2607(2) 0.1121 Uani
H7 H 0.1575 -0.4922 0.2399 0.1350 Uiso
C13 C 0.17618(17) -0.3619(3) 0.25872(17) 0.0927 Uani
H8 H 0.1571 -0.3286 0.2387 0.1110 Uiso
C14 C 0.16567(16) -0.0307(3) 0.21501(17) 0.0646 Uani
C15 C 0.1389(2) -0.0785(3) 0.1837(2) 0.1145 Uani
H9 H 0.1375 -0.1429 0.1849 0.1370 Uiso
C16 C 0.1139(2) -0.0305(3) 0.1504(2) 0.1504 Uani
H10 H 0.0969 -0.0641 0.1285 0.1800 Uiso
C17 C 0.13958(19) 0.1087(3) 0.17883(19) 0.1033 Uani
H11 H 0.1404 0.1731 0.1773 0.1230 Uiso
C18 C 0.16512(18) 0.0665(3) 0.21184(17) 0.0857 Uani
H12 H 0.1825 0.1018 0.2326 0.1030 Uiso
C19 C 0.0859(2) 0.0280(4) 0.0249(3) 0.0932 Uani
H13 H 0.1059 0.0735 0.0238 0.1120 Uiso
C20 C 0.08375(19) -0.0454(3) -0.0030(2) 0.0913 Uani
H14 H 0.1023 -0.0506 -0.0223 0.1090 Uiso
C21 C 0.0530(2) -0.1132(3) -0.0019(2) 0.0669 Uani
C22 C 0.02726(19) -0.1029(3) 0.02735(19) 0.0677 Uani
H15 H 0.0071 -0.1474 0.0296 0.0810 Uiso
C23 C 0.03147(18) -0.0252(3) 0.05384(17) 0.0719 Uani
H16 H 0.0128 -0.0172 0.0728 0.0860 Uiso
C24 C 0.0524(2) -0.1955(3) -0.0315(2) 0.0745 Uani
C25 C 0.0741(2) -0.2775(4) -0.0843(2) 0.0722 Uani
C26 C 0.02071(18) -0.3331(3) -0.0529(2) 0.0610 Uani
C27 C -0.0115(2) -0.4068(3) -0.0506(2) 0.0656 Uani
C28 C -0.01429(18) -0.4832(4) -0.0791(2) 0.0905 Uani
H17 H 0.0036 -0.4906 -0.0989 0.1090 Uiso
C29 C -0.0458(2) -0.5475(4) -0.0758(3) 0.0944 Uani
H18 H -0.0488 -0.5979 -0.0948 0.1130 Uiso
C30 C -0.06731(18) -0.4715(3) -0.01974(18) 0.0787 Uani
H19 H -0.0846 -0.4683 0.0009 0.0950 Uiso
C31 C -0.0371(2) -0.4026(3) -0.0212(2) 0.0733 Uani
H20 H -0.0348 -0.3533 -0.0016 0.0880 Uiso
C32 C 0.1022(3) -0.2905(4) -0.1130(3) 0.0802 Uani
C33 C 0.1414(3) -0.2543(4) -0.1048(3) 0.0934 Uani
H21 H 0.1504 -0.2168 -0.0806 0.1120 Uiso
C34 C 0.1664(3) -0.2754(4) -0.1332(3) 0.1087 Uani
H22 H 0.1936 -0.2542 -0.1255 0.1310 Uiso
C35 C 0.1174(4) -0.3457(5) -0.1779(3) 0.1256 Uani
H23 H 0.1076 -0.3729 -0.2049 0.1510 Uiso
C36 C 0.0876(3) -0.3361(5) -0.1511(3) 0.1176 Uani
H24 H 0.0606 -0.3586 -0.1585 0.1410 Uiso
Cl1 Cl 0.10888(7) 0.25096(8) 0.07883(7) 0.1707 Uani
Cl2 Cl 0.01532(7) 0.15533(12) 0.12851(6) 0.1513 Uani
Cl3 Cl 0.35670(6) 0.12011(11) 0.50757(6) 0.1309 Uani
Cl4 Cl 0.39367(5) 0.25756(8) 0.41215(6) 0.1275 Uani
Cl5 Cl 0.16805(9) -0.68391(10) 0.22321(7) 0.1773 Uani
Cl6 Cl 0.25968(7) -0.70188(9) 0.32237(8) 0.1661 Uani
N1 N 0.33745(14) 0.0599(2) 0.39958(14) 0.0849 Uani
N2 N 0.23915(13) -0.1735(2) 0.31681(13) 0.0721 Uani
N3 N 0.18353(14) -0.1713(2) 0.25484(13) 0.0724 Uani
N4 N 0.22089(15) -0.0331(2) 0.27816(14) 0.0657 Uani
N5 N 0.20181(17) -0.5078(3) 0.29116(17) 0.0940 Uani
N6 N 0.11309(16) 0.0638(3) 0.14816(14) 0.0985 Uani
N7 N 0.06022(19) 0.0375(3) 0.05376(19) 0.0783 Uani
N8 N 0.07804(17) -0.2029(3) -0.05830(19) 0.0804 Uani
N9 N 0.04422(16) -0.3434(3) -0.08225(17) 0.0671 Uani
N10 N 0.02188(14) -0.2610(3) -0.02450(15) 0.0828 Uani
N11 N -0.07099(17) -0.5423(3) -0.04844(19) 0.0717 Uani
N12 N 0.1582(2) -0.3219(3) -0.1710(2) 0.0988 Uani
Zn1 Zn 0.07311(3) 0.13740(4) 0.10186(2) 0.1174 Uani
Zn2 Zn 0.37874(2) 0.12896(3) 0.44525(2) 0.0934 Uani
Zn3 Zn 0.19828(3) -0.65026(4) 0.28987(3) 0.1190 Uani
N11G N 0.42901(17) 0.0423(3) 0.45156(19) 0.0717 Uani
N12E N 0.1582(2) -0.6781(3) 0.3290(2) 0.0988 Uani
Zn2G Zn -0.12126(2) -0.62896(3) -0.05475(2) 0.0934 Uani
Zn3E Zn 0.19828(3) -0.34974(4) -0.21013(3) 0.1190 Uani
loop_
_atom_site_aniso_label
_atom_site_aniso_U_11
_atom_site_aniso_U_22
_atom_site_aniso_U_33
_atom_site_aniso_U_23
_atom_site_aniso_U_13
_atom_site_aniso_U_12
C1 0.086(5) 0.047(3) 0.103(5) -0.002(3) -0.041(4) 0.001(3)
C2 0.098(5) 0.034(2) 0.107(5) 0.006(3) -0.057(4) 0.009(3)
C3 0.078(4) 0.033(2) 0.100(5) 0.007(3) -0.028(4) 0.006(3)
C4 0.097(5) 0.045(3) 0.112(5) -0.004(3) -0.065(4) 0.010(3)
C5 0.100(5) 0.062(3) 0.111(5) 0.013(3) -0.069(4) 0.009(3)
C6 0.080(4) 0.034(2) 0.101(5) -0.005(3) -0.050(4) 0.004(3)
C7 0.066(4) 0.034(2) 0.069(4) -0.007(2) -0.032(3) 0.000(2)
C8 0.104(5) 0.037(3) 0.060(4) 0.004(3) -0.043(3) 0.007(3)
C9 0.059(4) 0.037(2) 0.081(4) -0.011(2) -0.028(3) -0.003(2)
C10 0.095(5) 0.029(2) 0.171(6) 0.014(3) -0.047(4) 0.007(3)
C11 0.141(7) 0.049(3) 0.183(8) -0.008(4) -0.028(6) -0.009(4)
C12 0.152(6) 0.042(3) 0.116(5) -0.021(3) -0.045(5) -0.017(3)
C13 0.116(5) 0.035(2) 0.107(4) 0.006(3) -0.033(4) -0.006(3)
C14 0.071(4) 0.040(2) 0.071(4) -0.014(3) -0.018(3) 0.003(3)
C15 0.140(6) 0.043(3) 0.119(5) -0.013(3) -0.086(5) 0.011(3)
C16 0.186(8) 0.039(3) 0.175(7) -0.021(4) -0.102(6) -0.006(4)
C17 0.128(5) 0.048(3) 0.105(5) -0.013(3) -0.055(4) -0.004(3)
C18 0.119(5) 0.030(2) 0.079(4) 0.009(3) -0.059(4) -0.006(3)
C19 0.096(7) 0.053(4) 0.115(7) 0.005(4) -0.022(5) -0.018(4)
C20 0.095(5) 0.063(3) 0.104(5) -0.008(3) -0.013(4) -0.034(3)
C21 0.069(5) 0.053(3) 0.062(4) -0.001(3) -0.032(3) -0.003(3)
C22 0.083(5) 0.036(3) 0.065(5) 0.001(3) -0.037(4) 0.000(3)
C23 0.079(5) 0.050(3) 0.069(4) 0.013(3) -0.033(3) 0.004(3)
C24 0.086(6) 0.037(3) 0.079(6) -0.006(3) -0.042(4) 0.010(3)
C25 0.083(5) 0.055(4) 0.066(5) 0.006(3) -0.020(4) 0.010(4)
C26 0.037(4) 0.046(3) 0.094(5) 0.006(3) -0.004(3) 0.001(3)
C27 0.061(5) 0.048(3) 0.078(5) -0.003(3) -0.013(4) -0.008(3)
C28 0.076(5) 0.071(3) 0.116(5) -0.039(4) -0.005(4) -0.016(3)
C29 0.092(7) 0.058(3) 0.110(7) -0.032(4) -0.043(5) -0.015(4)
C30 0.096(5) 0.050(3) 0.075(4) 0.004(3) -0.024(4) -0.004(3)
C31 0.075(5) 0.049(3) 0.080(5) -0.001(3) -0.028(4) -0.010(3)
C32 0.101(7) 0.058(3) 0.073(6) -0.007(4) -0.007(5) 0.007(4)
C33 0.093(7) 0.062(3) 0.118(7) -0.012(4) 0.000(5) -0.013(4)
C34 0.153(9) 0.063(4) 0.114(8) 0.006(5) 0.035(7) 0.007(5)
C35 0.133(9) 0.112(6) 0.123(8) -0.006(5) 0.000(7) -0.004(7)
C36 0.101(7) 0.110(5) 0.141(9) -0.009(6) 0.020(6) -0.011(5)
Cl1 0.206(2) 0.0384(7) 0.202(2) 0.0174(10) -0.1367(17) -0.0147(10)
Cl2 0.179(2) 0.1208(13) 0.1157(15) -0.0243(12) -0.0744(14) 0.0732(13)
Cl3 0.1304(15) 0.1104(12) 0.1280(15) -0.0447(11) -0.0393(12) 0.0179(11)
Cl4 0.1348(15) 0.0363(6) 0.1653(16) 0.0016(8) -0.0948(13) -0.0067(8)
Cl5 0.307(3) 0.0727(10) 0.162(2) -0.0512(11) 0.069(2) -0.0849(14)
Cl6 0.169(2) 0.0535(8) 0.289(3) 0.0653(12) 0.077(2) 0.0399(10)
N1 0.111(4) 0.033(2) 0.086(4) -0.010(2) -0.047(3) 0.011(2)
N2 0.083(3) 0.0335(19) 0.081(3) 0.003(2) -0.035(3) -0.003(2)
N3 0.089(3) 0.044(2) 0.067(3) 0.003(2) -0.031(3) 0.006(2)
N4 0.082(3) 0.0448(19) 0.054(3) -0.008(2) -0.031(2) 0.008(2)
N5 0.110(4) 0.040(2) 0.118(5) 0.009(3) -0.016(4) 0.007(3)
N6 0.143(5) 0.040(2) 0.082(4) -0.007(2) -0.060(3) 0.016(3)
N7 0.079(5) 0.046(3) 0.087(5) -0.004(3) -0.045(3) 0.003(3)
N8 0.080(5) 0.057(3) 0.090(5) -0.015(3) -0.022(3) 0.013(3)
N9 0.045(3) 0.050(3) 0.096(4) -0.003(3) -0.014(3) 0.005(3)
N10 0.092(4) 0.048(2) 0.087(3) -0.007(2) -0.040(3) -0.001(3)
N11 0.070(4) 0.044(2) 0.086(5) -0.011(3) -0.026(3) -0.002(3)
N12 0.125(6) 0.057(3) 0.113(6) 0.000(3) 0.018(5) 0.012(3)
Zn1 0.1513(8) 0.0368(3) 0.1201(7) -0.0119(4) -0.0917(6) 0.0201(4)
Zn2 0.0982(6) 0.0403(3) 0.1125(6) -0.0190(4) -0.0581(5) 0.0101(3)
Zn3 0.1629(8) 0.0262(3) 0.1699(9) -0.0037(4) 0.0361(7) -0.0035(4)
N11G 0.07 0.044 0.086 0.011 -0.026 0.002
N12E 0.125 0.057 0.113 0 0.018 -0.012
Zn2G 0.0982 0.0403 0.1125 0.019 -0.0581 -0.0101
Zn3E 0.1629 0.0262 0.1699 0.0037 0.0361 0.0035
loop_
_geom_bond_atom_site_label_1
_geom_bond_atom_site_label_2
_geom_bond_site_symmetry_1
_geom_bond_site_symmetry_2
C1 H1 1_555 1_555
C2 C1 1_555 1_555
H2 C2 1_555 1_555
C3 C2 1_555 1_555
C4 C3 1_555 1_555
H3 C4 1_555 1_555
C5 C4 1_555 1_555
H4 C5 1_555 1_555
C6 C3 1_555 1_555
C7 C9 1_555 1_555
C8 C14 1_555 1_555
C9 C10 1_555 1_555
C10 H5 1_555 1_555
C11 C10 1_555 1_555
H6 C11 1_555 1_555
C12 H7 1_555 1_555
C13 C9 1_555 1_555
H8 C13 1_555 1_555
C14 C15 1_555 1_555
C15 H9 1_555 1_555
C16 C15 1_555 1_555
H10 C16 1_555 1_555
C17 H11 1_555 1_555
C18 C14 1_555 1_555
H12 C18 1_555 1_555
C19 H13 1_555 1_555
C20 C19 1_555 1_555
H14 C20 1_555 1_555
C21 C20 1_555 1_555
C22 C21 1_555 1_555
H15 C22 1_555 1_555
C23 C22 1_555 1_555
H16 C23 1_555 1_555
C24 C21 1_555 1_555
C25 C32 1_555 1_555
C26 C27 1_555 1_555
C27 C28 1_555 1_555
C28 H17 1_555 1_555
C29 C28 1_555 1_555
H18 C29 1_555 1_555
C30 H19 1_555 1_555
C31 C27 1_555 1_555
H20 C31 1_555 1_555
C32 C33 1_555 1_555
C33 H21 1_555 1_555
C34 C33 1_555 1_555
H22 C34 1_555 1_555
C35 H23 1_555 1_555
C36 C32 1_555 1_555
H24 C36 1_555 1_555
Cl1 Zn1 1_555 1_555
Cl2 Zn1 1_555 1_555
Cl3 Zn2 1_555 1_555
Cl4 Zn2 1_555 1_555
Cl5 Zn3 1_555 1_555
Cl6 Zn3 1_555 1_555
N1 C1 1_555 1_555
N2 C6 1_555 1_555
N3 C7 1_555 1_555
N4 C6 1_555 1_555
N5 C11 1_555 1_555
N6 C16 1_555 1_555
N7 C19 1_555 1_555
N8 C24 1_555 1_555
N9 C25 1_555 1_555
N10 C24 1_555 1_555
N11 C29 1_555 1_555
N12 C34 1_555 1_555
Zn1 N6 1_555 1_555
Zn2 N1 1_555 1_555
Zn3 N5 1_555 1_555
N11G Zn2 1_555 1_555
N12E Zn3 1_555 1_555
Zn2G N11 1_555 1_555
Zn3E N12 1_555 1_555
C5 N1 1_555 1_555
C7 N2 1_555 1_555
C8 N3 1_555 1_555
C8 N4 1_555 1_555
C12 C13 1_555 1_555
C12 N5 1_555 1_555
C17 C18 1_555 1_555
C17 N6 1_555 1_555
C23 N7 1_555 1_555
C25 N8 1_555 1_555
C26 N9 1_555 1_555
C26 N10 1_555 1_555
C30 C31 1_555 1_555
C30 N11 1_555 1_555
C35 C36 1_555 1_555
C35 N12 1_555 1_555
N7 Zn1 1_555 1_555

#END
