
#######################################################################
#
#                 Cambridge Crystallographic Data Centre
#                                CCDC 
#
#######################################################################
#
# If this CIF has been generated from an entry in the Cambridge 
# Structural Database, then it will include bibliographic, chemical, 
# crystal, experimental, refinement or atomic coordinate data resulting 
# from the CCDC's data processing and validation procedures.
#
#######################################################################

data_HETDUG
_chemical_formula_moiety         'C48 Cu5 N11'
_symmetry_cell_setting           monoclinic
_symmetry_space_group_name_H-M   'C 2/m'
_symmetry_Int_Tables_number      12
_space_group_name_Hall           '-C 2y'
loop_
_symmetry_equiv_pos_site_id
_symmetry_equiv_pos_as_xyz
1 x,y,z
2 1/2+x,1/2+y,z
3 -x,y,-z
4 1/2-x,1/2+y,-z
5 -x,-y,-z
6 1/2-x,1/2-y,-z
7 x,-y,z
8 1/2+x,1/2-y,z
_cell_length_a                   17.470(4)
_cell_length_b                   16.437(4)
_cell_length_c                   7.155(2)
_cell_angle_alpha                90
_cell_angle_beta                 99.00(4)
_cell_angle_gamma                90
_cell_volume                     2029.29
loop_
_atom_site_label
_atom_site_type_symbol
_atom_site_fract_x
_atom_site_fract_y
_atom_site_fract_z
Cu1 Cu 0.21484(6) -0.0000 0.00751(13)
C1 C 0.2901(7) 0.1440(8) -0.1516(18)
C3 C 0.3017(7) 0.2010(7) -0.2855(18)
C5 C 0.2443(4) 0.2191(4) -0.4282(9)
C6 C 0.1672(17) 0.199(3) -0.391(6)
C8 C 0.163(2) 0.131(5) -0.273(10)
C10 C 0.087(4) 0.063(3) 0.191(13)
C12 C 0.039(3) 0.0697(15) 0.326(9)
C14 C 0.0257(4) 0.0000 0.4257(11)
N1 N 0.2226(4) 0.0998(4) -0.1625(9)
N2 N 0.1264(4) 0.0000 0.1560(9)
N3 N 0.3203(4) 0.0000 0.1904(9)
C15 C 0.4618(5) -0.0000 0.4332(11)
C16 C 0.4474(8) 0.0525(10) 0.290(2)
C17 C 0.4039(8) 0.0509(9) 0.4596(19)
C18 C 0.3767(8) 0.0541(9) 0.172(2)
C19 C 0.3335(7) 0.0497(8) 0.3316(18)
Cu1E Cu 0.28516(6) 0.5000 -1.00751(13)
Cu1D Cu -0.21484(6) 0.0000 0.99249(13)
Cu1D_2 Cu 0.78516(6) 0.0000 0.99249(13)
Cu1E_2 Cu 0.28516(6) -0.5000 -1.00751(13)
C1E C 0.2099(7) 0.3560(8) -0.8484(18)
C1F C 0.2901(7) -0.1440(8) -0.1516(18)
C1C C 0.2099(7) -0.3560(8) -0.8484(18)
C3E C 0.1983(7) 0.2990(7) -0.7145(18)
C3F C 0.3017(7) -0.2010(7) -0.2855(18)
C3C C 0.1983(7) -0.2990(7) -0.7145(18)
C5E C 0.2557(4) 0.2809(4) -0.5718(9)
C5F C 0.2443(4) -0.2191(4) -0.4282(9)
C5C C 0.2557(4) -0.2809(4) -0.5718(9)
C6E C 0.3328(17) 0.301(3) -0.609(6)
C6F C 0.1672(17) -0.199(3) -0.391(6)
C6C C 0.3328(17) -0.301(3) -0.609(6)
C8E C 0.337(2) 0.369(5) -0.727(10)
C8F C 0.163(2) -0.131(5) -0.273(10)
C8C C 0.337(2) -0.369(5) -0.727(10)
C10F C 0.087(4) -0.063(3) 0.191(13)
C10D C -0.087(4) -0.063(3) 0.809(13)
C10B C -0.087(4) 0.063(3) 0.809(13)
C12F C 0.039(3) -0.0697(15) 0.326(9)
C12D C -0.039(3) -0.0697(15) 0.674(9)
C12B C -0.039(3) 0.0697(15) 0.674(9)
C14D C -0.0257(4) 0.0000 0.5743(11)
N1E N 0.2774(4) 0.4002(4) -0.8375(9)
N1F N 0.2226(4) -0.0998(4) -0.1625(9)
N1C N 0.2774(4) -0.4002(4) -0.8375(9)
N1C_2 N 0.2774(4) 0.5998(4) -0.8375(9)
N2D N -0.1264(4) 0.0000 0.8440(9)
N2E N 0.3736(4) 0.5000 -1.1560(9)
N3D N 0.6797(4) 0.0000 0.8096(9)
N3E N 0.1797(4) 0.5000 -1.1904(9)
C15D C 0.5382(5) 0.0000 0.5668(11)
C16D C 0.5526(8) -0.0525(10) 0.710(2)
C16B C 0.5526(8) 0.0525(10) 0.710(2)
C16F C 0.4474(8) -0.0525(10) 0.290(2)
C17D C 0.5961(8) -0.0509(9) 0.5404(19)
C17B C 0.5961(8) 0.0509(9) 0.5404(19)
C17F C 0.4039(8) -0.0509(9) 0.4596(19)
C18B C 0.6233(8) 0.0541(9) 0.828(2)
C18D C 0.6233(8) -0.0541(9) 0.828(2)
C18F C 0.3767(8) -0.0541(9) 0.172(2)
C19B C 0.6665(7) 0.0497(8) 0.6684(18)
C19D C 0.6665(7) -0.0497(8) 0.6684(18)
C19F C 0.3335(7) -0.0497(8) 0.3316(18)
loop_
_geom_bond_atom_site_label_1
_geom_bond_atom_site_label_2
_geom_bond_site_symmetry_1
_geom_bond_site_symmetry_2
Cu1 N1 1_555 1_555
C1 C3 1_555 1_555
C3 C5 1_555 1_555
C5 C6 1_555 1_555
C6 C8 1_555 1_555
C8 N1 1_555 1_555
C10 C12 1_555 1_555
C12 C14 1_555 1_555
C14 C12F 1_555 1_555
N1 C1 1_555 1_555
N2 Cu1 1_555 1_555
N3 Cu1 1_555 1_555
C15 C16 1_555 1_555
C16 C17 1_555 1_555
C17 C15 1_555 1_555
C18 N3 1_555 1_555
C19 N3 1_555 1_555
Cu1E N1E 1_555 1_555
Cu1D N2D 1_555 1_555
Cu1D_2 N3D 1_555 1_555
Cu1E_2 N1C 1_555 1_555
C1E C3E 1_555 1_555
C1F C3F 1_555 1_555
C1C C3C 1_555 1_555
C3E C5E 1_555 1_555
C3F C5F 1_555 1_555
C3C C5C 1_555 1_555
C5E C5 1_555 1_555
C5F C5C 1_555 1_555
C5C C6C 1_555 1_555
C6E C5E 1_555 1_555
C6F C5F 1_555 1_555
C6C C8C 1_555 1_555
C8E C6E 1_555 1_555
C8F C6F 1_555 1_555
C8C N1C 1_555 1_555
C10F N2 1_555 1_555
C10D C12D 1_555 1_555
C10B C12B 1_555 1_555
C12F C10F 1_555 1_555
C12D C14D 1_555 1_555
C12B C14D 1_555 1_555
C14D C14 1_555 1_555
N1E C1E 1_555 1_555
N1F Cu1 1_555 1_555
N1C C1C 1_555 1_555
N1C_2 Cu1E 1_555 1_555
N2D C10D 1_555 1_555
N2E Cu1E 1_555 1_555
N3D C18B 1_555 1_555
N3E Cu1E 1_555 1_555
C15D C15 1_555 1_555
C16D C15D 1_555 1_555
C16B C15D 1_555 1_555
C16F C15 1_555 1_555
C17D C15D 1_555 1_555
C17B C15D 1_555 1_555
C17F C15 1_555 1_555
C18B C16B 1_555 1_555
C18D N3D 1_555 1_555
C18F N3 1_555 1_555
C19B N3D 1_555 1_555
C19D N3D 1_555 1_555
C19F N3 1_555 1_555
C10 N2 1_555 1_555
C16 C18 1_555 1_555
C17 C19 1_555 1_555
C18 C19 1_555 1_555
C19 C19F 1_555 1_555
C1F N1F 1_555 1_555
C8E N1E 1_555 1_555
C8F N1F 1_555 1_555
C10B N2D 1_555 1_555
C16D C17D 1_555 1_555
C16D C18D 1_555 1_555
C16B C17B 1_555 1_555
C16F C17F 1_555 1_555
C16F C18F 1_555 1_555
C17D C19D 1_555 1_555
C17B C19B 1_555 1_555
C17F C19F 1_555 1_555
C18B C19B 1_555 1_555
C18D C19D 1_555 1_555
C18F C19F 1_555 1_555
C19B C19D 1_555 1_555

#END
