
#######################################################################
#
#                 Cambridge Crystallographic Data Centre
#                                CCDC 
#
#######################################################################
#
# If this CIF has been generated from an entry in the Cambridge 
# Structural Database, then it will include bibliographic, chemical, 
# crystal, experimental, refinement or atomic coordinate data resulting 
# from the CCDC's data processing and validation procedures.
#
#######################################################################

data_ZARQAM
_chemical_formula_moiety         '(C2 H6 K1 O21 P4 U3 1-)n'
_symmetry_cell_setting           orthorhombic
_symmetry_space_group_name_H-M   'P 21 21 2'
_symmetry_Int_Tables_number      18
_space_group_name_Hall           'P 2 2ab'
loop_
_symmetry_equiv_pos_site_id
_symmetry_equiv_pos_as_xyz
1 x,y,z
2 -x,-y,z
3 1/2-x,1/2+y,-z
4 1/2+x,1/2-y,-z
_cell_length_a                   23.613(3)
_cell_length_b                   9.0805(11)
_cell_length_c                   12.8303(16)
_cell_angle_alpha                90
_cell_angle_beta                 90
_cell_angle_gamma                90
_cell_volume                     2751.05
loop_
_atom_site_label
_atom_site_type_symbol
_atom_site_fract_x
_atom_site_fract_y
_atom_site_fract_z
O21 O 0.1248(6) 1.5666(15) 0.4418(11)
U1 U 0.266936(18) -0.14598(5) 0.34238(3)
U2 U 0.431580(17) 0.36509(5) 0.07675(3)
U3 U 0.171730(19) 0.30505(5) 0.14925(4)
P1 P 0.33773(12) -0.3216(3) 0.1223(2)
K1 K 0.21205(13) -0.1145(4) 0.0637(2)
P2 P 0.44675(14) -0.2284(4) 0.0354(3)
P3 P 0.31449(12) 0.1689(3) 0.1857(2)
P4 P 0.25846(14) 0.2527(3) 0.3827(2)
O1 O 0.3705(3) 0.1834(9) 0.1238(5)
O2 O 0.2985(3) -0.3093(9) 0.2139(6)
O3 O 0.4103(3) 0.3395(10) -0.0547(6)
O4 O 0.2995(4) 0.0084(9) 0.2085(6)
O5 O 0.1985(3) -0.1544(10) 0.2844(6)
O6 O 0.2133(3) 0.3278(9) 0.3178(6)
O7 O 0.2676(3) 0.3327(8) 0.4861(6)
O8 O 0.2673(4) 0.2471(9) 0.1275(6)
O9 O 0.4186(3) -0.1736(10) -0.0604(6)
O10 O 0.3357(4) -0.1395(11) 0.3995(6)
O11 O 0.1547(3) 0.1206(10) 0.1760(7)
O12 O 0.5033(3) -0.1469(10) 0.0579(6)
O13 O 0.2458(3) 0.0887(9) 0.4023(6)
O14 O 0.4674(3) -0.3899(10) 0.0294(6)
O15 O 0.3561(3) -0.4822(9) 0.1052(7)
O16 O 0.1882(4) 0.4923(10) 0.1200(7)
O17 O 0.2433(6) -0.3987(10) 0.3858(8)
O18 O 0.3108(3) -0.2582(10) 0.0248(6)
O19 O 0.4539(4) 0.3867(10) 0.2071(6)
C1 C 0.4011(5) -0.2125(14) 0.1429(9)
H1 H 0.3906 -0.1079 0.1529
H2 H 0.4207 -0.2467 0.2066
O20 O 0.0969(4) 0.3938(14) 0.2720(8)
C2 C 0.3233(5) 0.2627(12) 0.3086(9)
H3 H 0.3545 0.2164 0.3485
H4 H 0.3334 0.3670 0.2960
U1B U 0.233064(18) 0.35402(5) 0.65762(3)
U2A U 0.568420(17) -0.36509(5) 0.07675(3)
U2_2 U 0.431580(17) -0.63491(5) 0.07675(3)
U3B U 0.328270(19) -0.19495(5) -0.14925(4)
K1B K 0.28795(13) 0.3855(4) -0.0637(2)
K1B_2 K 0.28795(13) -0.6145(4) -0.0637(2)
O3B O 0.0897(3) -0.1605(10) 0.0547(6)
O7B O 0.2324(3) -0.1673(8) 0.5139(6)
O8B O 0.2327(4) -0.2529(9) -0.1275(6)
O9B O 0.0814(3) 0.3264(10) 0.0604(6)
O12A O 0.4967(3) 0.1469(10) 0.0579(6)
O14A O 0.5326(3) 0.3899(10) 0.0294(6)
O14_2 O 0.4674(3) 0.6101(10) 0.0294(6)
O15_2 O 0.3561(3) 0.5178(9) 0.1052(7)
O15B O 0.1439(3) 0.0178(9) -0.1052(7)
O18B O 0.1892(3) 0.2418(10) -0.0248(6)
loop_
_geom_bond_atom_site_label_1
_geom_bond_atom_site_label_2
_geom_bond_site_symmetry_1
_geom_bond_site_symmetry_2
U1 O2 1_555 1_555
U2 O1 1_555 1_555
U3 O6 1_555 1_555
P1 O2 1_555 1_555
K1 O4 1_555 1_555
P2 O9 1_555 1_555
P3 O1 1_555 1_555
P4 O6 1_555 1_555
O3 U2 1_555 1_555
O4 U1 1_555 1_555
O5 U1 1_555 1_555
O7 P4 1_555 1_555
O8 U3 1_555 1_555
O9 U3B 1_555 1_555
O10 U1 1_555 1_555
O11 U3 1_555 1_555
O12 P2 1_555 1_555
O13 U1 1_555 1_555
O14 P2 1_555 1_555
O15 P1 1_555 1_555
O16 U3 1_555 1_555
O17 U1 1_555 1_555
O18 P1 1_555 1_555
O19 U2 1_555 1_555
C1 P1 1_555 1_555
H1 C1 1_555 1_555
H2 C1 1_555 1_555
O20 U3 1_555 1_555
C2 P3 1_555 1_555
H3 C2 1_555 1_555
H4 C2 1_555 1_555
U1B O7 1_555 1_555
U2A O12 1_555 1_555
U2_2 O14 1_555 1_555
U3B O18 1_555 1_555
K1B O3 1_555 1_555
K1B_2 O15 1_555 1_555
O3B K1 1_555 1_555
O7B U1 1_555 1_555
O8B K1 1_555 1_555
O9B U3 1_555 1_555
O12A U2 1_555 1_555
O14A U2 1_555 1_555
O14_2 U2 1_555 1_555
O15_2 U2 1_555 1_555
O15B K1 1_555 1_555
O18B U3 1_555 1_555
K1 O5 1_555 1_555
K1 O11 1_555 1_555
K1 O18 1_555 1_555
P2 C1 1_555 1_555
P3 O4 1_555 1_555
P3 O8 1_555 1_555
P4 O13 1_555 1_555
P4 C2 1_555 1_555
O8 K1B 1_555 1_555
O14 U2A 1_555 1_555
O15 U2_2 1_555 1_555
U3B O8B 1_555 1_555
K1B O15_2 1_555 1_555
K1B O18B 1_555 1_555

#END
