
#######################################################################
#
#                 Cambridge Crystallographic Data Centre
#                                CCDC 
#
#######################################################################
#
# If this CIF has been generated from an entry in the Cambridge 
# Structural Database, then it will include bibliographic, chemical, 
# crystal, experimental, refinement or atomic coordinate data resulting 
# from the CCDC's data processing and validation procedures.
#
#######################################################################

data_LUKWAR
_chemical_formula_moiety         'C26 H18 N3 O5 Zn3'
_symmetry_cell_setting           orthorhombic
_symmetry_space_group_name_H-M   'F d d d'
_symmetry_Int_Tables_number      70
_space_group_name_Hall           '-F 2uv 2vw'
loop_
_symmetry_equiv_pos_site_id
_symmetry_equiv_pos_as_xyz
1 x,y,z
2 3/4-x,3/4-y,z
3 3/4-x,y,3/4-z
4 x,3/4-y,3/4-z
5 x,1/2+y,1/2+z
6 3/4-x,1/4-y,1/2+z
7 3/4-x,1/2+y,1/4-z
8 x,1/4-y,1/4-z
9 1/2+x,y,1/2+z
10 1/4-x,3/4-y,1/2+z
11 1/4-x,y,1/4-z
12 1/2+x,3/4-y,1/4-z
13 1/2+x,1/2+y,z
14 1/4-x,1/4-y,z
15 1/4-x,1/2+y,3/4-z
16 1/2+x,1/4-y,3/4-z
17 -x,-y,-z
18 1/4+x,1/4+y,-z
19 1/4+x,-y,1/4+z
20 -x,1/4+y,1/4+z
21 -x,1/2-y,1/2-z
22 1/4+x,3/4+y,1/2-z
23 1/4+x,1/2-y,3/4+z
24 -x,3/4+y,3/4+z
25 1/2-x,-y,1/2-z
26 3/4+x,1/4+y,1/2-z
27 3/4+x,-y,3/4+z
28 1/2-x,1/4+y,3/4+z
29 1/2-x,1/2-y,-z
30 3/4+x,3/4+y,-z
31 3/4+x,1/2-y,1/4+z
32 1/2-x,3/4+y,1/4+z
_cell_length_a                   14.093(3)
_cell_length_b                   26.670(5)
_cell_length_c                   28.668(6)
_cell_angle_alpha                90
_cell_angle_beta                 90
_cell_angle_gamma                90
_cell_volume                     10775.2
loop_
_atom_site_label
_atom_site_type_symbol
_atom_site_fract_x
_atom_site_fract_y
_atom_site_fract_z
_atom_site_U_iso_or_equiv
_atom_site_thermal_displace_type
Zn1 Zn 0.3750 0.3750 0.58478(2) 0.0366 Uani
N1 N 0.4557(2) 0.41745(13) 0.62916(12) 0.0418 Uani
O1 O 0.4648(3) 0.3460(2) 0.5415(2) 0.1254 Uani
O2 O 0.4995(3) 0.2951(2) 0.5955(3) 0.1273 Uani
C1 C 0.5141(4) 0.3952(2) 0.6587(2) 0.0633 Uani
H1 H 0.5142 0.3599 0.6598 0.0760 Uiso
C2 C 0.5743(3) 0.42058(18) 0.6876(2) 0.0643 Uani
H2 H 0.6143 0.4029 0.7080 0.0770 Uiso
C3 C 0.5761(3) 0.47189(17) 0.68664(16) 0.0457 Uani
C4 C 0.5149(3) 0.49539(17) 0.65640(17) 0.0533 Uani
H3 H 0.5140 0.5306 0.6546 0.0640 Uiso
C5 C 0.4550(3) 0.46765(16) 0.62876(16) 0.0460 Uani
H4 H 0.4122 0.4844 0.6090 0.0550 Uiso
C6 C 0.6421(3) 0.50248(19) 0.71435(17) 0.0527 Uani
H5 H 0.6310 0.5372 0.7160 0.0630 Uiso
C7 C 0.7179(3) 0.48392(19) 0.73770(15) 0.0520 Uani
H6 H 0.7287 0.4491 0.7378 0.0630 Uiso
C8 C 0.5145(4) 0.3164(4) 0.5515(5) 0.1423 Uani
C9 C 0.5960(3) 0.2942(2) 0.5277(3) 0.0770 Uani
C10 C 0.6589(5) 0.2652(3) 0.5472(4) 0.1200 Uani
H7 H 0.6518 0.2577 0.5790 0.1440 Uiso
C11 C 0.6251(8) 0.2994(4) 0.4883(5) 0.0690 Uani
H8 H 0.5880 0.3211 0.4700 0.0830 Uiso
C12 C 0.6966(10) 0.2812(6) 0.4669(5) 0.0860 Uani
H9 H 0.7003 0.2893 0.4351 0.1030 Uiso
C13 C 0.7531(9) 0.2580(4) 0.4797(7) 0.1703 Uani
N1X N 1.0443(2) 0.58255(13) 0.87084(12) 0.0418 Uani
C1X C 0.9859(4) 0.6048(2) 0.8413(2) 0.0633 Uani
H1X H 0.9858 0.6401 0.8402 0.0760 Uiso
C2X C 0.9257(3) 0.57942(18) 0.8124(2) 0.0643 Uani
H2X H 0.8857 0.5971 0.7920 0.0770 Uiso
C3X C 0.9239(3) 0.52811(17) 0.81336(16) 0.0457 Uani
C4X C 0.9851(3) 0.50461(17) 0.84360(17) 0.0533 Uani
H3X H 0.9860 0.4694 0.8454 0.0640 Uiso
C5X C 1.0450(3) 0.53235(16) 0.87124(16) 0.0460 Uani
H4X H 1.0878 0.5156 0.8910 0.0550 Uiso
C6X C 0.8579(3) 0.49752(19) 0.78565(17) 0.0527 Uani
H5X H 0.8690 0.4628 0.7840 0.0630 Uiso
C7X C 0.7821(3) 0.51608(19) 0.76230(15) 0.0520 Uani
H6X H 0.7713 0.5509 0.7622 0.0630 Uiso
O1BA O 1.0352(3) 0.1540(2) 0.4585(2) 0.1254 Uani
O2BA O 1.0005(3) 0.2049(2) 0.4045(3) 0.1273 Uani
C8BA C 0.9855(4) 0.1836(4) 0.4485(5) 0.1423 Uani
C9BA C 0.9040(3) 0.2058(2) 0.4723(3) 0.0770 Uani
C10BA C 0.8411(5) 0.2348(3) 0.4528(4) 0.1200 Uani
H7BA H 0.8482 0.2423 0.4210 0.1440 Uiso
C11BA C 0.8749(8) 0.2006(4) 0.5117(5) 0.0690 Uani
H8BA H 0.9120 0.1789 0.5300 0.0830 Uiso
C12BA C 0.8034(10) 0.2188(6) 0.5331(5) 0.0860 Uani
H9BA H 0.7997 0.2107 0.5649 0.1030 Uiso
C13BA C 0.7469(9) 0.2420(4) 0.5203(7) 0.1703 Uani
Zn1X Zn 1.1250 0.6250 0.91522(2) 0.0366 Uani
Zn1BA Zn 1.1250 0.1250 0.41522(2) 0.0366 Uani
N1A N 0.2943(2) 0.33255(13) 0.62916(12) 0.0418 Uani
O1A O 0.2852(3) 0.4040(2) 0.5415(2) 0.1254 Uani
loop_
_atom_site_aniso_label
_atom_site_aniso_U_11
_atom_site_aniso_U_22
_atom_site_aniso_U_33
_atom_site_aniso_U_23
_atom_site_aniso_U_13
_atom_site_aniso_U_12
Zn1 0.0224(4) 0.0417(5) 0.0457(5) 0.000 0.000 0.0040(2)
N1 0.0297(17) 0.0417(19) 0.054(2) -0.0066(16) -0.0064(15) 0.0017(15)
O1 0.0333(19) 0.137(4) 0.206(6) -0.120(4) -0.018(3) 0.028(2)
O2 0.068(3) 0.133(5) 0.181(6) -0.034(4) 0.040(4) 0.021(3)
C1 0.059(3) 0.043(3) 0.088(4) 0.009(3) -0.033(3) 0.000(2)
C2 0.060(3) 0.051(3) 0.082(4) 0.004(3) -0.038(3) 0.003(2)
C3 0.035(2) 0.051(3) 0.051(3) -0.007(2) -0.0063(19) 0.0009(19)
C4 0.050(2) 0.044(3) 0.066(3) -0.003(2) -0.008(2) 0.004(2)
C5 0.039(2) 0.042(2) 0.057(3) -0.002(2) -0.007(2) 0.0033(19)
C6 0.051(2) 0.054(3) 0.053(3) -0.016(2) -0.009(2) 0.000(2)
C7 0.053(2) 0.059(3) 0.044(3) -0.018(2) -0.008(2) -0.005(2)
C8 0.035(3) 0.129(7) 0.263(13) -0.147(8) 0.033(5) -0.026(4)
C9 0.021(2) 0.055(3) 0.155(7) -0.050(4) 0.014(3) 0.004(2)
C10 0.080(4) 0.101(5) 0.179(9) -0.064(6) 0.031(5) -0.021(4)
C11 0.069(8) 0.058(7) 0.080(9) -0.018(6) -0.007(7) 0.012(5)
C12 0.085(9) 0.100(10) 0.073(9) 0.000(7) -0.013(7) -0.027(8)
C13 0.052(3) 0.049(7) 0.41(3) -0.022(8) -0.065(12) 0.018(5)
N1X 0.0297 0.0417 0.054 -0.0066 -0.0064 0.0017
C1X 0.059 0.043 0.088 0.009 -0.033 0
C2X 0.06 0.051 0.082 0.004 -0.038 0.003
C3X 0.035 0.051 0.051 -0.007 -0.0063 0.0009
C4X 0.05 0.044 0.066 -0.003 -0.008 0.004
C5X 0.039 0.042 0.057 -0.002 -0.007 0.0033
C6X 0.051 0.054 0.053 -0.016 -0.009 0
C7X 0.053 0.059 0.044 -0.018 -0.008 -0.005
O1BA 0.0333 0.137 0.206 -0.12 -0.018 0.028
O2BA 0.068 0.133 0.181 -0.034 0.04 0.021
C8BA 0.035 0.129 0.263 -0.147 0.033 -0.026
C9BA 0.021 0.055 0.155 -0.05 0.014 0.004
C10BA 0.08 0.101 0.179 -0.064 0.031 -0.021
C11BA 0.069 0.058 0.08 -0.018 -0.007 0.012
C12BA 0.085 0.1 0.073 0 -0.013 -0.027
C13BA 0.052 0.049 0.41 -0.022 -0.065 0.018
Zn1X 0.0224 0.0417 0.0457 0 0 0.004
Zn1BA 0.0224 0.0417 0.0457 0 0 0.004
N1A 0.0297 0.0417 0.054 0.0066 0.0064 0.0017
O1A 0.0333 0.137 0.206 0.12 0.018 0.028
loop_
_geom_bond_atom_site_label_1
_geom_bond_atom_site_label_2
_geom_bond_site_symmetry_1
_geom_bond_site_symmetry_2
Zn1 N1 1_555 1_555
N1 C1 1_555 1_555
O1 Zn1 1_555 1_555
O2 C8 1_555 1_555
C1 H1 1_555 1_555
C2 C1 1_555 1_555
H2 C2 1_555 1_555
C3 C2 1_555 1_555
C4 C3 1_555 1_555
H3 C4 1_555 1_555
C5 N1 1_555 1_555
H4 C5 1_555 1_555
C6 C3 1_555 1_555
H5 C6 1_555 1_555
C7 C6 1_555 1_555
H6 C7 1_555 1_555
C8 O1 1_555 1_555
C9 C8 1_555 1_555
C10 C9 1_555 1_555
H7 C10 1_555 1_555
C11 C9 1_555 1_555
H8 C11 1_555 1_555
C12 C11 1_555 1_555
H9 C12 1_555 1_555
C13 C12 1_555 1_555
N1X C1X 1_555 1_555
C1X H1X 1_555 1_555
C2X C1X 1_555 1_555
H2X C2X 1_555 1_555
C3X C2X 1_555 1_555
C4X C3X 1_555 1_555
H3X C4X 1_555 1_555
C5X N1X 1_555 1_555
H4X C5X 1_555 1_555
C6X C3X 1_555 1_555
H5X C6X 1_555 1_555
C7X C7 1_555 1_555
H6X C7X 1_555 1_555
O1BA C8BA 1_555 1_555
O2BA C8BA 1_555 1_555
C8BA C9BA 1_555 1_555
C9BA C10BA 1_555 1_555
C10BA C13 1_555 1_555
H7BA C10BA 1_555 1_555
C11BA C9BA 1_555 1_555
H8BA C11BA 1_555 1_555
C12BA C11BA 1_555 1_555
H9BA C12BA 1_555 1_555
C13BA C10 1_555 1_555
Zn1X N1X 1_555 1_555
Zn1BA O1BA 1_555 1_555
N1A Zn1 1_555 1_555
O1A Zn1 1_555 1_555
C4 C5 1_555 1_555
C13 C13BA 1_555 1_555
C4X C5X 1_555 1_555
C6X C7X 1_555 1_555
C12BA C13BA 1_555 1_555

#END
