
#######################################################################
#
#                 Cambridge Crystallographic Data Centre
#                                CCDC 
#
#######################################################################
#
# If this CIF has been generated from an entry in the Cambridge 
# Structural Database, then it will include bibliographic, chemical, 
# crystal, experimental, refinement or atomic coordinate data resulting 
# from the CCDC's data processing and validation procedures.
#
#######################################################################

data_MALWUU
_chemical_formula_moiety         'C40 H26 Cd10 N4 O27'
_symmetry_cell_setting           orthorhombic
_symmetry_space_group_name_H-M   'I b a m'
_symmetry_Int_Tables_number      72
_space_group_name_Hall           '-I 2 2c'
loop_
_symmetry_equiv_pos_site_id
_symmetry_equiv_pos_as_xyz
1 x,y,z
2 -x,-y,z
3 1/2-x,1/2+y,-z
4 1/2+x,1/2-y,-z
5 1/2+x,1/2+y,1/2+z
6 1/2-x,1/2-y,1/2+z
7 -x,y,1/2-z
8 x,-y,1/2-z
9 -x,-y,-z
10 x,y,-z
11 1/2+x,1/2-y,z
12 1/2-x,1/2+y,z
13 1/2-x,1/2-y,1/2-z
14 1/2+x,1/2+y,1/2-z
15 x,-y,1/2+z
16 -x,y,1/2+z
_cell_length_a                   20.7803(12)
_cell_length_b                   7.9154(8)
_cell_length_c                   17.299(2)
_cell_angle_alpha                90
_cell_angle_beta                 90
_cell_angle_gamma                90
_cell_volume                     2845.42
loop_
_atom_site_label
_atom_site_type_symbol
_atom_site_fract_x
_atom_site_fract_y
_atom_site_fract_z
_atom_site_U_iso_or_equiv
_atom_site_thermal_displace_type
N1 N 0.3648(6) 0.7162(15) 0.5634(7) 0.0397 Uani
H3 H 0.3313 0.7696 0.5794 0.0480 Uiso
C7 C 0.4036(6) 0.6396(16) 0.6167(9) 0.0357 Uani
H4 H 0.3937 0.6457 0.6690 0.0430 Uiso
C8 C 0.4572(7) 0.5536(18) 0.5925(8) 0.0380 Uani
H5 H 0.4843 0.5008 0.6280 0.0460 Uiso
C9 C 0.4701(6) 0.5474(15) 0.5144(7) 0.0303 Uani
C10 C 0.4315(6) 0.6301(19) 0.4615(9) 0.0490 Uani
H6 H 0.4426 0.6305 0.4095 0.0580 Uiso
C11 C 0.3770(6) 0.711(2) 0.4857(8) 0.0343 Uani
H7 H 0.3492 0.7616 0.4505 0.0410 Uiso
N1A N 0.6352(6) 0.2838(15) 0.5634(7) 0.0397 Uani
H3A H 0.6687 0.2304 0.5794 0.0480 Uiso
C7A C 0.5964(6) 0.3604(16) 0.6167(9) 0.0357 Uani
H4A H 0.6063 0.3543 0.6690 0.0430 Uiso
C8A C 0.5428(7) 0.4464(18) 0.5925(8) 0.0380 Uani
H5A H 0.5157 0.4992 0.6280 0.0460 Uiso
C9A C 0.5299(6) 0.4526(15) 0.5144(7) 0.0303 Uani
C10A C 0.5685(6) 0.3699(19) 0.4615(9) 0.0490 Uani
H6A H 0.5574 0.3695 0.4095 0.0580 Uiso
C11A C 0.6230(6) 0.289(2) 0.4857(8) 0.0343 Uani
H7A H 0.6508 0.2384 0.4505 0.0410 Uiso
N1H N 0.6352(6) 0.2838(15) 0.4366(7) 0.0397 Uani
H3H H 0.6687 0.2304 0.4206 0.0480 Uiso
C7H C 0.5964(6) 0.3604(16) 0.3833(9) 0.0357 Uani
H4H H 0.6063 0.3543 0.3310 0.0430 Uiso
C8H C 0.5428(7) 0.4464(18) 0.4075(8) 0.0380 Uani
H5H H 0.5157 0.4992 0.3720 0.0460 Uiso
C9H C 0.5299(6) 0.4526(15) 0.4856(7) 0.0303 Uani
C10H C 0.5685(6) 0.3699(19) 0.5385(9) 0.0490 Uani
H6H H 0.5574 0.3695 0.5905 0.0580 Uiso
C11H C 0.6230(6) 0.289(2) 0.5143(8) 0.0343 Uani
H7H H 0.6508 0.2384 0.5495 0.0410 Uiso
N1I N 0.3648(6) 0.7162(15) 0.4366(7) 0.0397 Uani
H3I H 0.3313 0.7696 0.4206 0.0480 Uiso
C7I C 0.4036(6) 0.6396(16) 0.3833(9) 0.0357 Uani
H4I H 0.3937 0.6457 0.3310 0.0430 Uiso
C8I C 0.4572(7) 0.5536(18) 0.4075(8) 0.0380 Uani
H5I H 0.4843 0.5008 0.3720 0.0460 Uiso
C9I C 0.4701(6) 0.5474(15) 0.4856(7) 0.0303 Uani
C10I C 0.4315(6) 0.6301(19) 0.5385(9) 0.0490 Uani
H6I H 0.4426 0.6305 0.5905 0.0580 Uiso
C11I C 0.3770(6) 0.711(2) 0.5143(8) 0.0343 Uani
H7I H 0.3492 0.7616 0.5495 0.0410 Uiso
O5 O 0.4303(10) 0.5000 0.7500 0.2327 Uani
H8 H 0.394(3) 0.43(2) 0.720(12) 0.3510 Uiso
H8G H 0.394(3) 0.57(2) 0.780(12) 0.3510 Uiso
Cd1 Cd 0.5000 0.0000 0.2500 0.0199 Uani
Cd2 Cd 0.30182(3) 0.0000 0.2500 0.0216 Uani
O1 O 0.2454(3) 0.4310(7) 0.3600(3) 0.0513 Uani
O2 O 0.3152(2) 0.2797(5) 0.2924(2) 0.0243 Uani
O3 O 0.3931(2) -0.0244(6) 0.3304(3) 0.0273 Uani
O4 O 0.4624(2) 0.1861(6) 0.3389(3) 0.0327 Uani
C1 C 0.2974(4) 0.3296(11) 0.5000 0.0163 Uani
H1 H 0.2623 0.4026 0.5000 0.0200 Uiso
C2 C 0.3233(3) 0.2757(7) 0.4299(3) 0.0157 Uani
C3 C 0.3784(3) 0.1742(8) 0.4301(3) 0.0173 Uani
C4 C 0.4051(4) 0.1299(11) 0.5000 0.0207 Uani
H2 H 0.4429 0.0672 0.5000 0.0250 Uiso
C5 C 0.2935(3) 0.3330(8) 0.3554(4) 0.0197 Uani
C6 C 0.4125(3) 0.1095(10) 0.3597(4) 0.0250 Uani
O1I O 0.2454(3) 0.4310(7) 0.6400(3) 0.0513 Uani
O2I O 0.3152(2) 0.2797(5) 0.7076(2) 0.0243 Uani
O3I O 0.3931(2) -0.0244(6) 0.6696(3) 0.0273 Uani
O4I O 0.4624(2) 0.1861(6) 0.6611(3) 0.0327 Uani
C2I C 0.3233(3) 0.2757(7) 0.5701(3) 0.0157 Uani
C3I C 0.3784(3) 0.1742(8) 0.5699(3) 0.0173 Uani
C5I C 0.2935(3) 0.3330(8) 0.6446(4) 0.0197 Uani
C6I C 0.4125(3) 0.1095(10) 0.6403(4) 0.0250 Uani
Cd2A Cd 0.69818(3) 0.0000 0.2500 0.0216 Uani
O1A O 0.7546(3) -0.4310(7) 0.3600(3) 0.0513 Uani
O2A O 0.6848(2) -0.2797(5) 0.2924(2) 0.0243 Uani
O3A O 0.6069(2) 0.0244(6) 0.3304(3) 0.0273 Uani
O4A O 0.5376(2) -0.1861(6) 0.3389(3) 0.0327 Uani
C1A C 0.7026(4) -0.3296(11) 0.5000 0.0163 Uani
H1A H 0.7377 -0.4026 0.5000 0.0200 Uiso
C2A C 0.6767(3) -0.2757(7) 0.4299(3) 0.0157 Uani
C3A C 0.6216(3) -0.1742(8) 0.4301(3) 0.0173 Uani
C4A C 0.5949(4) -0.1299(11) 0.5000 0.0207 Uani
H2A H 0.5571 -0.0672 0.5000 0.0250 Uiso
C5A C 0.7065(3) -0.3330(8) 0.3554(4) 0.0197 Uani
C6A C 0.5875(3) -0.1095(10) 0.3597(4) 0.0250 Uani
O1H O 0.7546(3) -0.4310(7) 0.6400(3) 0.0513 Uani
O2H O 0.6848(2) -0.2797(5) 0.7076(2) 0.0243 Uani
O3H O 0.6069(2) 0.0244(6) 0.6696(3) 0.0273 Uani
O4H O 0.5376(2) -0.1861(6) 0.6611(3) 0.0327 Uani
C2H C 0.6767(3) -0.2757(7) 0.5701(3) 0.0157 Uani
C3H C 0.6216(3) -0.1742(8) 0.5699(3) 0.0173 Uani
C5H C 0.7065(3) -0.3330(8) 0.6446(4) 0.0197 Uani
C6H C 0.5875(3) -0.1095(10) 0.6403(4) 0.0250 Uani
Cd1H Cd 0.5000 0.0000 0.7500 0.0199 Uani
Cd2B Cd 0.19818(3) 0.5000 0.7500 0.0216 Uani
Cd2C Cd 0.80182(3) -0.5000 0.7500 0.0216 Uani
Cd2H Cd 0.69818(3) 0.0000 0.7500 0.0216 Uani
Cd2I Cd 0.30182(3) 0.0000 0.7500 0.0216 Uani
Cd2J Cd 0.80182(3) -0.5000 0.2500 0.0216 Uani
Cd2K Cd 0.19818(3) 0.5000 0.2500 0.0216 Uani
O1J O 0.7454(3) 0.0690(7) 0.3600(3) 0.0513 Uani
O1K O 0.2546(3) -0.0690(7) 0.3600(3) 0.0513 Uani
O1L O 0.2546(3) 0.0690(7) 0.1400(3) 0.0513 Uani
O1M O 0.7454(3) -0.0690(7) 0.1400(3) 0.0513 Uani
O2F O 0.6848(2) 0.2797(5) 0.2076(2) 0.0243 Uani
O2G O 0.3152(2) -0.2797(5) 0.2076(2) 0.0243 Uani
O3F O 0.6069(2) -0.0244(6) 0.1696(3) 0.0273 Uani
O3G O 0.3931(2) 0.0244(6) 0.1696(3) 0.0273 Uani
O4F O 0.5376(2) 0.1861(6) 0.1611(3) 0.0327 Uani
O4G O 0.4624(2) -0.1861(6) 0.1611(3) 0.0327 Uani
loop_
_atom_site_aniso_label
_atom_site_aniso_U_11
_atom_site_aniso_U_22
_atom_site_aniso_U_33
_atom_site_aniso_U_23
_atom_site_aniso_U_13
_atom_site_aniso_U_12
N1 0.031(8) 0.030(8) 0.058(10) -0.016(8) 0.012(8) -0.002(6)
C7 0.051(11) 0.020(8) 0.036(9) -0.007(7) 0.005(8) 0.003(7)
C8 0.045(10) 0.025(9) 0.044(10) -0.004(8) 0.015(9) -0.010(7)
C9 0.028(6) 0.028(7) 0.035(14) -0.013(8) 0.004(8) -0.012(5)
C10 0.036(10) 0.053(12) 0.058(12) -0.014(9) 0.002(9) 0.007(9)
C11 0.025(7) 0.064(10) 0.014(19) 0.000(9) -0.004(7) 0.006(6)
N1A 0.031 0.03 0.058 0.016 -0.012 -0.002
C7A 0.051 0.02 0.036 0.007 -0.005 0.003
C8A 0.045 0.025 0.044 0.004 -0.015 -0.01
C9A 0.028 0.028 0.035 0.013 -0.004 -0.012
C10A 0.036 0.053 0.058 0.014 -0.002 0.007
C11A 0.025 0.064 0.014 0 0.004 0.006
N1H 0.031 0.03 0.058 -0.016 0.012 -0.002
C7H 0.051 0.02 0.036 -0.007 0.005 0.003
C8H 0.045 0.025 0.044 -0.004 0.015 -0.01
C9H 0.028 0.028 0.035 -0.013 0.004 -0.012
C10H 0.036 0.053 0.058 -0.014 0.002 0.007
C11H 0.025 0.064 0.014 0 -0.004 0.006
N1I 0.031 0.03 0.058 0.016 -0.012 -0.002
C7I 0.051 0.02 0.036 0.007 -0.005 0.003
C8I 0.045 0.025 0.044 0.004 -0.015 -0.01
C9I 0.028 0.028 0.035 0.013 -0.004 -0.012
C10I 0.036 0.053 0.058 0.014 -0.002 0.007
C11I 0.025 0.064 0.014 0 0.004 0.006
O5 0.22(2) 0.168(17) 0.31(3) -0.115(14) 0.000 0.000
Cd1 0.0158(4) 0.0291(5) 0.0148(4) 0.000 0.000 0.000
Cd2 0.0198(3) 0.0297(4) 0.0153(3) 0.0000(3) 0.000 0.000
O1 0.048(3) 0.087(4) 0.019(3) -0.009(3) -0.009(3) 0.049(3)
O2 0.025(2) 0.035(3) 0.013(2) 0.000(2) 0.001(2) 0.001(2)
O3 0.027(2) 0.040(4) 0.015(2) -0.004(2) -0.004(2) 0.009(2)
O4 0.024(3) 0.049(3) 0.025(3) -0.009(2) 0.006(2) -0.003(2)
C1 0.014(4) 0.020(5) 0.015(4) 0.000 0.000 -0.003(4)
C2 0.014(3) 0.023(3) 0.010(3) -0.003(3) -0.002(3) 0.001(3)
C3 0.015(3) 0.026(3) 0.011(3) -0.001(3) -0.002(3) -0.003(3)
C4 0.019(5) 0.030(6) 0.013(5) 0.000 0.000 0.011(4)
C5 0.017(3) 0.021(4) 0.021(4) -0.002(3) -0.003(3) -0.004(3)
C6 0.023(4) 0.046(5) 0.006(3) 0.003(3) -0.004(3) 0.012(3)
O1I 0.048 0.087 0.019 0.009 0.009 0.049
O2I 0.025 0.035 0.013 0 -0.001 0.001
O3I 0.027 0.04 0.015 0.004 0.004 0.009
O4I 0.024 0.049 0.025 0.009 -0.006 -0.003
C2I 0.014 0.023 0.01 0.003 0.002 0.001
C3I 0.015 0.026 0.011 0.001 0.002 -0.003
C5I 0.017 0.021 0.021 0.002 0.003 -0.004
C6I 0.023 0.046 0.006 -0.003 0.004 0.012
Cd2A 0.0198 0.0297 0.0153 0 0 0
O1A 0.048 0.087 0.019 0.009 0.009 0.049
O2A 0.025 0.035 0.013 0 -0.001 0.001
O3A 0.027 0.04 0.015 0.004 0.004 0.009
O4A 0.024 0.049 0.025 0.009 -0.006 -0.003
C1A 0.014 0.02 0.015 0 0 -0.003
C2A 0.014 0.023 0.01 0.003 0.002 0.001
C3A 0.015 0.026 0.011 0.001 0.002 -0.003
C4A 0.019 0.03 0.013 0 0 0.011
C5A 0.017 0.021 0.021 0.002 0.003 -0.004
C6A 0.023 0.046 0.006 -0.003 0.004 0.012
O1H 0.048 0.087 0.019 -0.009 -0.009 0.049
O2H 0.025 0.035 0.013 0 0.001 0.001
O3H 0.027 0.04 0.015 -0.004 -0.004 0.009
O4H 0.024 0.049 0.025 -0.009 0.006 -0.003
C2H 0.014 0.023 0.01 -0.003 -0.002 0.001
C3H 0.015 0.026 0.011 -0.001 -0.002 -0.003
C5H 0.017 0.021 0.021 -0.002 -0.003 -0.004
C6H 0.023 0.046 0.006 0.003 -0.004 0.012
Cd1H 0.0158 0.0291 0.0148 0 0 0
Cd2B 0.0198 0.0297 0.0153 0 0 0
Cd2C 0.0198 0.0297 0.0153 0 0 0
Cd2H 0.0198 0.0297 0.0153 0 0 0
Cd2I 0.0198 0.0297 0.0153 0 0 0
Cd2J 0.0198 0.0297 0.0153 0 0 0
Cd2K 0.0198 0.0297 0.0153 0 0 0
O1J 0.048 0.087 0.019 0.009 -0.009 -0.049
O1K 0.048 0.087 0.019 -0.009 0.009 -0.049
O1L 0.048 0.087 0.019 -0.009 -0.009 0.049
O1M 0.048 0.087 0.019 0.009 0.009 0.049
O2F 0.025 0.035 0.013 0 0.001 -0.001
O2G 0.025 0.035 0.013 0 -0.001 -0.001
O3F 0.027 0.04 0.015 0.004 -0.004 -0.009
O3G 0.027 0.04 0.015 -0.004 0.004 -0.009
O4F 0.024 0.049 0.025 0.009 0.006 0.003
O4G 0.024 0.049 0.025 -0.009 -0.006 0.003
loop_
_geom_bond_atom_site_label_1
_geom_bond_atom_site_label_2
_geom_bond_site_symmetry_1
_geom_bond_site_symmetry_2
Cd1 O3 1_555 1_555
Cd2 O2 1_555 1_555
O1 C5 1_555 1_555
O2 C5 1_555 1_555
O3 Cd2 1_555 1_555
O4 Cd1 1_555 1_555
C1 H1 1_555 1_555
C2 C1 1_555 1_555
C3 C2 1_555 1_555
C4 C3 1_555 1_555
H2 C4 1_555 1_555
C5 C2 1_555 1_555
C6 O3 1_555 1_555
N1 H3 1_555 1_555
C7 N1 1_555 1_555
H4 C7 1_555 1_555
C8 C7 1_555 1_555
H5 C8 1_555 1_555
C9 C8 1_555 1_555
C10 C9 1_555 1_555
H6 C10 1_555 1_555
C11 N1 1_555 1_555
H7 C11 1_555 1_555
O5 H8 1_555 1_555
O1I C5I 1_555 1_555
O2I C5I 1_555 1_555
O3I C6I 1_555 1_555
O4I C6I 1_555 1_555
C2I C1 1_555 1_555
C3I C4 1_555 1_555
C5I C2I 1_555 1_555
C6I C3I 1_555 1_555
Cd2A O2A 1_555 1_555
O1A C5A 1_555 1_555
O2A C5A 1_555 1_555
O3A Cd1 1_555 1_555
O4A Cd1 1_555 1_555
C1A H1A 1_555 1_555
C2A C1A 1_555 1_555
C3A C2A 1_555 1_555
C4A C3A 1_555 1_555
H2A C4A 1_555 1_555
C5A C2A 1_555 1_555
C6A O3A 1_555 1_555
O1H C5H 1_555 1_555
O2H C5H 1_555 1_555
O3H C6H 1_555 1_555
O4H C6H 1_555 1_555
C2H C1A 1_555 1_555
C3H C4A 1_555 1_555
C5H C2H 1_555 1_555
C6H C3H 1_555 1_555
Cd1H O3I 1_555 1_555
Cd2B O1I 1_555 1_555
Cd2C O1H 1_555 1_555
Cd2H O2H 1_555 1_555
Cd2I O2I 1_555 1_555
Cd2J O1A 1_555 1_555
Cd2K O1 1_555 1_555
O1J Cd2A 1_555 1_555
O1K Cd2 1_555 1_555
O1L Cd2 1_555 1_555
O1M Cd2A 1_555 1_555
O2F Cd2A 1_555 1_555
O2G Cd2 1_555 1_555
O3F Cd1 1_555 1_555
O3G Cd1 1_555 1_555
O4F Cd1 1_555 1_555
O4G Cd1 1_555 1_555
N1A H3A 1_555 1_555
C7A N1A 1_555 1_555
H4A C7A 1_555 1_555
C8A C7A 1_555 1_555
H5A C8A 1_555 1_555
C9A C9 1_555 1_555
C10A C9A 1_555 1_555
H6A C10A 1_555 1_555
C11A N1A 1_555 1_555
H7A C11A 1_555 1_555
N1H C10A 1_555 1_555
H3H N1H 1_555 1_555
C7H C10A 1_555 1_555
H4H C7H 1_555 1_555
C8H C10A 1_555 1_555
H5H C8H 1_555 1_555
C9H C9 1_555 1_555
C10H N1A 1_555 1_555
H6H C7A 1_555 1_555
C11H N1A 1_555 1_555
H7H C11A 1_555 1_555
N1I C10 1_555 1_555
H3I N1I 1_555 1_555
C7I C10 1_555 1_555
H4I C7I 1_555 1_555
C8I C10 1_555 1_555
H5I C8I 1_555 1_555
C9I C10 1_555 1_555
C10I N1 1_555 1_555
H6I C7 1_555 1_555
C11I N1 1_555 1_555
H7I C11 1_555 1_555
H8G O5 1_555 1_555
Cd2 O3G 1_555 1_555
O4 C6 1_555 1_555
C3 C6 1_555 1_555
C7 C10I 1_555 1_555
C8 C10I 1_555 1_555
C8 H6I 1_555 1_555
C9 C10I 1_555 1_555
C10 C11 1_555 1_555
C10 C10I 1_555 1_555
C10 C11I 1_555 1_555
H6 C7I 1_555 1_555
H6 C8I 1_555 1_555
C11 N1I 1_555 1_555
C11 C10I 1_555 1_555
H7 C11I 1_555 1_555
O3I Cd2I 1_555 1_555
O4I Cd1H 1_555 1_555
C2I C3I 1_555 1_555
Cd2A O3A 1_555 1_555
Cd2A O3F 1_555 1_555
O4A C6A 1_555 1_555
C3A C6A 1_555 1_555
O3H Cd1H 1_555 1_555
O3H Cd2H 1_555 1_555
O4H Cd1H 1_555 1_555
C2H C3H 1_555 1_555
C7A C10H 1_555 1_555
C8A C9A 1_555 1_555
C8A C10H 1_555 1_555
C8A H6H 1_555 1_555
C9A C10H 1_555 1_555
C9A C9I 1_555 1_555
C10A C11A 1_555 1_555
C10A C9H 1_555 1_555
C10A C10H 1_555 1_555
C10A C11H 1_555 1_555
H6A C7H 1_555 1_555
H6A C8H 1_555 1_555
C11A N1H 1_555 1_555
C11A C10H 1_555 1_555
H7A C11H 1_555 1_555
N1H C7H 1_555 1_555
N1H C11H 1_555 1_555
C7H C8H 1_555 1_555
C8H C9H 1_555 1_555
C9H C10H 1_555 1_555
C9H C9I 1_555 1_555
C10H H6H 1_555 1_555
C10H C11H 1_555 1_555
C11H H7H 1_555 1_555
N1I C7I 1_555 1_555
N1I C11I 1_555 1_555
C7I C8I 1_555 1_555
C8I C9I 1_555 1_555
C9I C10I 1_555 1_555
C10I H6I 1_555 1_555
C10I C11I 1_555 1_555
C11I H7I 1_555 1_555

#END
