
#######################################################################
#
#                 Cambridge Crystallographic Data Centre
#                                CCDC 
#
#######################################################################
#
# If this CIF has been generated from an entry in the Cambridge 
# Structural Database, then it will include bibliographic, chemical, 
# crystal, experimental, refinement or atomic coordinate data resulting 
# from the CCDC's data processing and validation procedures.
#
#######################################################################

data_DITJOH
_chemical_formula_moiety         '(C53 H32 O16 Zr3)n'
_symmetry_cell_setting           tetragonal
_symmetry_space_group_name_H-M   'I 4/m'
_symmetry_Int_Tables_number      87
_space_group_name_Hall           '-I 4'
loop_
_symmetry_equiv_pos_site_id
_symmetry_equiv_pos_as_xyz
1 x,y,z
2 -y,x,z
3 -x,-y,z
4 y,-x,z
5 1/2+x,1/2+y,1/2+z
6 1/2-y,1/2+x,1/2+z
7 1/2-x,1/2-y,1/2+z
8 1/2+y,1/2-x,1/2+z
9 -x,-y,-z
10 y,-x,-z
11 x,y,-z
12 -y,x,-z
13 1/2-x,1/2-y,1/2-z
14 1/2+y,1/2-x,1/2-z
15 1/2+x,1/2+y,1/2-z
16 1/2-y,1/2+x,1/2-z
_cell_length_a                   19.936(4)
_cell_length_b                   19.936(4)
_cell_length_c                   42.251(8)
_cell_angle_alpha                90
_cell_angle_beta                 90
_cell_angle_gamma                90
_cell_volume                     16792.4
loop_
_atom_site_label
_atom_site_type_symbol
_atom_site_fract_x
_atom_site_fract_y
_atom_site_fract_z
Zr1 Zr 0.0000 0.0000 0.05781(2)
Zr2 Zr 0.00084(8) 0.12513(6) 0.0000
O1 O 0.0008(3) 0.0924(3) 0.08443(8)
O2 O -0.0785(6) 0.2005(5) 0.0000
O3 O 0.0031(4) 0.1762(3) 0.04792(9)
O4 O 0.0909(6) 0.1934(5) 0.0000
O5 O -0.0645(3) 0.0635(3) 0.02831(10)
C1 C -0.0008(7) 0.1516(6) 0.07725(18)
C2 C 0.0037(4) 0.2026(3) 0.10251(9)
C3 C -0.0080(4) 0.1804(2) 0.13321(12)
H1 H -0.0183 0.1345 0.1370
C4 C -0.0045(4) 0.2252(3) 0.15836(8)
H2 H -0.0125 0.2100 0.1793
C5 C 0.0106(4) 0.2922(3) 0.15281(9)
C6 C 0.0223(4) 0.3144(2) 0.12212(12)
H3 H 0.0326 0.3603 0.1183
C7 C 0.0188(4) 0.2696(3) 0.09697(8)
H4 H 0.0268 0.2848 0.0760
C8 C 0.0117(4) 0.3420(2) 0.18031(8)
C9 C -0.0423(4) 0.3416(3) 0.20112(10)
H5 H -0.0752 0.3073 0.1997
C10 C -0.0481(3) 0.3915(3) 0.22394(9)
H6 H -0.0851 0.3913 0.2382
C11 C -0.0000(3) 0.4417(2) 0.22596(7)
C12 C 0.0540(3) 0.4421(2) 0.20516(11)
H7 H 0.0870 0.4764 0.2065
C13 C 0.0599(3) 0.3922(3) 0.18233(10)
H8 H 0.0968 0.3925 0.1681
C14 C -0.0000 0.5000 0.2500
O1B O -0.0008(3) 0.9076(3) 0.08443(8)
O3B O -0.0031(4) 0.8238(3) 0.04792(9)
C1B C 0.0008(7) 0.8484(6) 0.07725(18)
C2B C -0.0037(4) 0.7974(3) 0.10251(9)
C3B C 0.0080(4) 0.8196(2) 0.13321(12)
H1B H 0.0183 0.8655 0.1370
C4B C 0.0045(4) 0.7748(3) 0.15836(8)
H2B H 0.0125 0.7900 0.1793
C5B C -0.0106(4) 0.7078(3) 0.15281(9)
C6B C -0.0223(4) 0.6856(2) 0.12212(12)
H3B H -0.0326 0.6397 0.1183
C7B C -0.0188(4) 0.7304(3) 0.09697(8)
H4B H -0.0268 0.7152 0.0760
C8B C -0.0117(4) 0.6580(2) 0.18031(8)
C9B C 0.0423(4) 0.6584(3) 0.20112(10)
H5B H 0.0752 0.6927 0.1997
C10B C 0.0481(3) 0.6085(3) 0.22394(9)
H6B H 0.0851 0.6087 0.2382
C11B C 0.0000(3) 0.5583(2) 0.22596(7)
C12B C -0.0540(3) 0.5579(2) 0.20516(11)
H7B H -0.0870 0.5236 0.2065
C13B C -0.0599(3) 0.6078(3) 0.18233(10)
H8B H -0.0968 0.6075 0.1681
O1M O -0.4076(3) 0.4992(3) 0.41557(8)
O3M O -0.3238(3) 0.4969(4) 0.45208(9)
C1M C -0.3484(6) 0.5008(7) 0.42275(18)
C2M C -0.2974(3) 0.4963(4) 0.39749(9)
C3M C -0.3196(2) 0.5080(4) 0.36679(12)
H1M H -0.3655 0.5183 0.3630
C4M C -0.2748(3) 0.5045(4) 0.34164(8)
H2M H -0.2900 0.5125 0.3207
C5M C -0.2078(3) 0.4894(4) 0.34719(9)
C6M C -0.1856(2) 0.4777(4) 0.37788(12)
H3M H -0.1397 0.4674 0.3817
C7M C -0.2304(3) 0.4812(4) 0.40303(8)
H4M H -0.2152 0.4732 0.4240
C8M C -0.1580(2) 0.4883(4) 0.31969(8)
C9M C -0.1584(3) 0.5423(4) 0.29888(10)
H5M H -0.1927 0.5752 0.3003
C10M C -0.1085(3) 0.5481(3) 0.27606(9)
H6M H -0.1087 0.5851 0.2618
C11M C -0.0583(2) 0.5000(3) 0.27404(7)
C12M C -0.0579(2) 0.4460(3) 0.29484(11)
H7M H -0.0236 0.4130 0.2935
C13M C -0.1078(3) 0.4401(3) 0.31767(10)
H8M H -0.1075 0.4032 0.3319
O1O O 0.4076(3) 0.5008(3) 0.41557(8)
O3O O 0.3238(3) 0.5031(4) 0.45208(9)
C1O C 0.3484(6) 0.4992(7) 0.42275(18)
C2O C 0.2974(3) 0.5037(4) 0.39749(9)
C3O C 0.3196(2) 0.4920(4) 0.36679(12)
H1O H 0.3655 0.4817 0.3630
C4O C 0.2748(3) 0.4955(4) 0.34164(8)
H2O H 0.2900 0.4875 0.3207
C5O C 0.2078(3) 0.5106(4) 0.34719(9)
C6O C 0.1856(2) 0.5223(4) 0.37788(12)
H3O H 0.1397 0.5326 0.3817
C7O C 0.2304(3) 0.5188(4) 0.40303(8)
H4O H 0.2152 0.5268 0.4240
C8O C 0.1580(2) 0.5117(4) 0.31969(8)
C9O C 0.1584(3) 0.4577(4) 0.29888(10)
H5O H 0.1927 0.4248 0.3003
C10O C 0.1085(3) 0.4519(3) 0.27606(9)
H6O H 0.1087 0.4149 0.2618
C11O C 0.0583(2) 0.5000(3) 0.27404(7)
C12O C 0.0579(2) 0.5540(3) 0.29484(11)
H7O H 0.0236 0.5870 0.2935
C13O C 0.1078(3) 0.5599(3) 0.31767(10)
H8O H 0.1075 0.5968 0.3319
Zr2A Zr -0.12513(6) 0.00084(8) 0.0000
O2A O -0.2005(5) -0.0785(6) 0.0000
O4A O -0.1934(5) 0.0909(6) 0.0000
O5A O -0.0635(3) -0.0645(3) 0.02831(10)
O5B O 0.0645(3) -0.0635(3) 0.02831(10)
O5C O 0.0635(3) 0.0645(3) 0.02831(10)
Zr1_2 Zr -0.0000 1.0000 0.05781(2)
Zr1L Zr -0.5000 0.5000 0.44219(2)
Zr1L_2 Zr 0.5000 0.5000 0.44219(2)
Zr2B Zr -0.00084(8) -0.12513(6) 0.0000
Zr2B_2 Zr -0.00084(8) 0.87487(6) 0.0000
Zr2C Zr 0.12513(6) -0.00084(8) 0.0000
Zr2E Zr 0.37487(6) 0.50084(8) 0.5000
Zr2G Zr -0.37487(6) 0.49916(8) 0.5000
O1A O -0.0924(3) 0.0008(3) 0.08443(8)
O1B_2 O -0.0008(3) -0.0924(3) 0.08443(8)
O1C O 0.0924(3) -0.0008(3) 0.08443(8)
O3A O -0.1762(3) 0.0031(4) 0.04792(9)
O3J O 0.0031(4) 0.1762(3) -0.04792(9)
O3K O -0.1762(3) 0.0031(4) -0.04792(9)
O5I O 0.0635(3) 0.0645(3) -0.02831(10)
O5J O -0.0645(3) 0.0635(3) -0.02831(10)
O5K O -0.0635(3) -0.0645(3) -0.02831(10)
loop_
_geom_bond_atom_site_label_1
_geom_bond_atom_site_label_2
_geom_bond_site_symmetry_1
_geom_bond_site_symmetry_2
Zr1 O1 1_555 1_555
Zr2 O2 1_555 1_555
O1 C1 1_555 1_555
O3 Zr2 1_555 1_555
O4 Zr2 1_555 1_555
O5 Zr1 1_555 1_555
C1 O3 1_555 1_555
C2 C1 1_555 1_555
C3 C2 1_555 1_555
H1 C3 1_555 1_555
C4 C3 1_555 1_555
H2 C4 1_555 1_555
C5 C4 1_555 1_555
C6 C5 1_555 1_555
H3 C6 1_555 1_555
C7 C2 1_555 1_555
H4 C7 1_555 1_555
C8 C5 1_555 1_555
C9 C8 1_555 1_555
H5 C9 1_555 1_555
C10 C9 1_555 1_555
H6 C10 1_555 1_555
C11 C10 1_555 1_555
C12 C11 1_555 1_555
H7 C12 1_555 1_555
C13 C8 1_555 1_555
H8 C13 1_555 1_555
C14 C11 1_555 1_555
O1B C1B 1_555 1_555
O3B C1B 1_555 1_555
C1B C2B 1_555 1_555
C2B C3B 1_555 1_555
C3B H1B 1_555 1_555
C4B C3B 1_555 1_555
H2B C4B 1_555 1_555
C5B C4B 1_555 1_555
C6B C5B 1_555 1_555
H3B C6B 1_555 1_555
C7B C2B 1_555 1_555
H4B C7B 1_555 1_555
C8B C5B 1_555 1_555
C9B C8B 1_555 1_555
H5B C9B 1_555 1_555
C10B C9B 1_555 1_555
H6B C10B 1_555 1_555
C11B C14 1_555 1_555
C12B C11B 1_555 1_555
H7B C12B 1_555 1_555
C13B C8B 1_555 1_555
H8B C13B 1_555 1_555
O1M C1M 1_555 1_555
O3M C1M 1_555 1_555
C1M C2M 1_555 1_555
C2M C3M 1_555 1_555
C3M H1M 1_555 1_555
C4M C3M 1_555 1_555
H2M C4M 1_555 1_555
C5M C4M 1_555 1_555
C6M C5M 1_555 1_555
H3M C6M 1_555 1_555
C7M C2M 1_555 1_555
H4M C7M 1_555 1_555
C8M C5M 1_555 1_555
C9M C8M 1_555 1_555
H5M C9M 1_555 1_555
C10M C9M 1_555 1_555
H6M C10M 1_555 1_555
C11M C14 1_555 1_555
C12M C11M 1_555 1_555
H7M C12M 1_555 1_555
C13M C8M 1_555 1_555
H8M C13M 1_555 1_555
O1O C1O 1_555 1_555
O3O C1O 1_555 1_555
C1O C2O 1_555 1_555
C2O C3O 1_555 1_555
C3O H1O 1_555 1_555
C4O C3O 1_555 1_555
H2O C4O 1_555 1_555
C5O C4O 1_555 1_555
C6O C5O 1_555 1_555
H3O C6O 1_555 1_555
C7O C2O 1_555 1_555
H4O C7O 1_555 1_555
C8O C5O 1_555 1_555
C9O C8O 1_555 1_555
H5O C9O 1_555 1_555
C10O C9O 1_555 1_555
H6O C10O 1_555 1_555
C11O C14 1_555 1_555
C12O C11O 1_555 1_555
H7O C12O 1_555 1_555
C13O C8O 1_555 1_555
H8O C13O 1_555 1_555
Zr2A O5 1_555 1_555
O2A Zr2A 1_555 1_555
O4A Zr2A 1_555 1_555
O5A Zr1 1_555 1_555
O5B Zr1 1_555 1_555
O5C Zr1 1_555 1_555
Zr1_2 O1B 1_555 1_555
Zr1L O1M 1_555 1_555
Zr1L_2 O1O 1_555 1_555
Zr2B O5A 1_555 1_555
Zr2B_2 O3B 1_555 1_555
Zr2C O5B 1_555 1_555
Zr2E O3O 1_555 1_555
Zr2G O3M 1_555 1_555
O1A Zr1 1_555 1_555
O1B_2 Zr1 1_555 1_555
O1C Zr1 1_555 1_555
O3A Zr2A 1_555 1_555
O3J Zr2 1_555 1_555
O3K Zr2A 1_555 1_555
O5I Zr2 1_555 1_555
O5J Zr2 1_555 1_555
O5K Zr2A 1_555 1_555
Zr2 O5 1_555 1_555
Zr2 O5C 1_555 1_555
C6 C7 1_555 1_555
C12 C13 1_555 1_555
C6B C7B 1_555 1_555
C10B C11B 1_555 1_555
C12B C13B 1_555 1_555
C6M C7M 1_555 1_555
C10M C11M 1_555 1_555
C12M C13M 1_555 1_555
C6O C7O 1_555 1_555
C10O C11O 1_555 1_555
C12O C13O 1_555 1_555
Zr2A O5A 1_555 1_555
Zr2A O5J 1_555 1_555
O5B Zr2B 1_555 1_555
O5C Zr2C 1_555 1_555
Zr2B O5K 1_555 1_555
Zr2C O5I 1_555 1_555

#END
