
#######################################################################
#
#                 Cambridge Crystallographic Data Centre
#                                CCDC 
#
#######################################################################
#
# If this CIF has been generated from an entry in the Cambridge 
# Structural Database, then it will include bibliographic, chemical, 
# crystal, experimental, refinement or atomic coordinate data resulting 
# from the CCDC's data processing and validation procedures.
#
#######################################################################

data_DITJIB
_chemical_formula_moiety         '(C53 H32 Hf3 O16)n'
_symmetry_cell_setting           tetragonal
_symmetry_space_group_name_H-M   'I 4/m'
_symmetry_Int_Tables_number      87
_space_group_name_Hall           '-I 4'
loop_
_symmetry_equiv_pos_site_id
_symmetry_equiv_pos_as_xyz
1 x,y,z
2 -y,x,z
3 -x,-y,z
4 y,-x,z
5 1/2+x,1/2+y,1/2+z
6 1/2-y,1/2+x,1/2+z
7 1/2-x,1/2-y,1/2+z
8 1/2+y,1/2-x,1/2+z
9 -x,-y,-z
10 y,-x,-z
11 x,y,-z
12 -y,x,-z
13 1/2-x,1/2-y,1/2-z
14 1/2+y,1/2-x,1/2-z
15 1/2+x,1/2+y,1/2-z
16 1/2-y,1/2+x,1/2-z
_cell_length_a                   21.04(2)
_cell_length_b                   21.04(2)
_cell_length_c                   40.18(4)
_cell_angle_alpha                90
_cell_angle_beta                 90
_cell_angle_gamma                90
_cell_volume                     17786.9
loop_
_atom_site_label
_atom_site_type_symbol
_atom_site_fract_x
_atom_site_fract_y
_atom_site_fract_z
Hf1 Hf 0.5000 0.5000 0.061218(13)
Hf2 Hf 0.50046(3) 0.38300(2) 0.0000
O1 O 0.5004(3) 0.4116(3) 0.08887(12)
O2 O 0.5011(4) 0.3345(3) 0.04930(14)
O3 O 0.5821(8) 0.3217(6) 0.0000
O4 O 0.4188(9) 0.3207(6) 0.0000
O5 O 0.5588(4) 0.4405(4) 0.02919(15)
C1 C 0.5000 0.0000 0.2500
C2 C 0.50204(17) 0.05786(16) 0.22574(8)
C3 C 0.5000(2) 0.1584(2) 0.18080(11)
C4 C 0.5475(3) 0.1056(3) 0.22778(15)
H1 H 0.5794 0.1039 0.2445
C5 C 0.5466(3) 0.1558(3) 0.20532(17)
H2 H 0.5777 0.1884 0.2067
C6 C 0.4545(3) 0.1106(3) 0.17875(16)
H3 H 0.4227 0.1123 0.1620
C7 C 0.4555(3) 0.0604(3) 0.20122(15)
H4 H 0.4244 0.0278 0.1998
C8 C 0.50007(17) 0.2100(5) 0.1540(2)
C9 C 0.4992(4) 0.2706(5) 0.1628(2)
H5 H 0.4986 0.2815 0.1857
C10 C 0.4992(4) 0.3194(5) 0.1384(2)
H6 H 0.4986 0.3628 0.1449
C11 C 0.5002(4) 0.3031(5) 0.1057(2)
C12 C 0.5011(5) 0.2404(5) 0.0963(2)
H7 H 0.5017 0.2289 0.0734
C13 C 0.5010(4) 0.1936(5) 0.1211(2)
H8 H 0.5016 0.1500 0.1150
C14 C 0.5015(5) 0.3542(4) 0.0788(2)
O1B O 0.4996(3) -0.4116(3) 0.08887(12)
O2B O 0.4989(4) -0.3345(3) 0.04930(14)
C2B C 0.49796(17) -0.05786(16) 0.22574(8)
C3B C 0.5000(2) -0.1584(2) 0.18080(11)
C4B C 0.4525(3) -0.1056(3) 0.22778(15)
H1B H 0.4206 -0.1039 0.2445
C5B C 0.4534(3) -0.1558(3) 0.20532(17)
H2B H 0.4223 -0.1884 0.2067
C6B C 0.5455(3) -0.1106(3) 0.17875(16)
H3B H 0.5773 -0.1123 0.1620
C7B C 0.5445(3) -0.0604(3) 0.20122(15)
H4B H 0.5756 -0.0278 0.1998
C8B C 0.49993(17) -0.2100(5) 0.1540(2)
C9B C 0.5008(4) -0.2706(5) 0.1628(2)
H5B H 0.5014 -0.2815 0.1857
C10B C 0.5008(4) -0.3194(5) 0.1384(2)
H6B H 0.5014 -0.3628 0.1449
C11B C 0.4998(4) -0.3031(5) 0.1057(2)
C12B C 0.4989(5) -0.2404(5) 0.0963(2)
H7B H 0.4983 -0.2289 0.0734
C13B C 0.4990(4) -0.1936(5) 0.1211(2)
H8B H 0.4984 -0.1500 0.1150
C14B C 0.4985(5) -0.3542(4) 0.0788(2)
O1M O 0.9116(3) -0.0004(3) 0.41113(12)
O2M O 0.8345(3) -0.0011(4) 0.45070(14)
C2M C 0.55786(16) -0.00204(17) 0.27426(8)
C3M C 0.6584(2) 0.0000(2) 0.31920(11)
C4M C 0.6056(3) -0.0475(3) 0.27222(15)
H1M H 0.6039 -0.0794 0.2555
C5M C 0.6558(3) -0.0466(3) 0.29468(17)
H2M H 0.6884 -0.0777 0.2933
C6M C 0.6106(3) 0.0455(3) 0.32125(16)
H3M H 0.6123 0.0773 0.3380
C7M C 0.5604(3) 0.0445(3) 0.29878(15)
H4M H 0.5278 0.0756 0.3002
C8M C 0.7100(5) -0.00007(17) 0.3460(2)
C9M C 0.7706(5) 0.0008(4) 0.3372(2)
H5M H 0.7815 0.0014 0.3143
C10M C 0.8194(5) 0.0008(4) 0.3616(2)
H6M H 0.8628 0.0014 0.3551
C11M C 0.8031(5) -0.0002(4) 0.3943(2)
C12M C 0.7404(5) -0.0011(5) 0.4037(2)
H7M H 0.7289 -0.0017 0.4266
C13M C 0.6936(5) -0.0010(4) 0.3789(2)
H8M H 0.6500 -0.0016 0.3850
C14M C 0.8542(4) -0.0015(5) 0.4212(2)
O1O O 0.0884(3) 0.0004(3) 0.41113(12)
O2O O 0.1655(3) 0.0011(4) 0.45070(14)
C2O C 0.44214(16) 0.00204(17) 0.27426(8)
C3O C 0.3416(2) 0.0000(2) 0.31920(11)
C4O C 0.3944(3) 0.0475(3) 0.27222(15)
H1O H 0.3961 0.0794 0.2555
C5O C 0.3442(3) 0.0466(3) 0.29468(17)
H2O H 0.3116 0.0777 0.2933
C6O C 0.3894(3) -0.0455(3) 0.32125(16)
H3O H 0.3877 -0.0773 0.3380
C7O C 0.4396(3) -0.0445(3) 0.29878(15)
H4O H 0.4722 -0.0756 0.3002
C8O C 0.2900(5) 0.00007(17) 0.3460(2)
C9O C 0.2294(5) -0.0008(4) 0.3372(2)
H5O H 0.2185 -0.0014 0.3143
C10O C 0.1806(5) -0.0008(4) 0.3616(2)
H6O H 0.1372 -0.0014 0.3551
C11O C 0.1969(5) 0.0002(4) 0.3943(2)
C12O C 0.2596(5) 0.0011(5) 0.4037(2)
H7O H 0.2711 0.0017 0.4266
C13O C 0.3064(5) 0.0010(4) 0.3789(2)
H8O H 0.3500 0.0016 0.3850
C14O C 0.1458(4) 0.0015(5) 0.4212(2)
Hf2A Hf 0.61700(2) 0.50046(3) 0.0000
O3A O 0.6783(6) 0.5821(8) 0.0000
O4A O 0.6793(6) 0.4188(9) 0.0000
O5A O 0.5595(4) 0.5588(4) 0.02919(15)
O5B O 0.4412(4) 0.5595(4) 0.02919(15)
O5C O 0.4405(4) 0.4412(4) 0.02919(15)
Hf1_2 Hf 0.5000 -0.5000 0.061218(13)
Hf1L Hf 0.0000 0.0000 0.438782(13)
Hf1L_2 Hf 1.0000 0.0000 0.438782(13)
Hf2B Hf 0.49954(3) -0.38300(2) 0.0000
Hf2B_2 Hf 0.49954(3) 0.61700(2) 0.0000
Hf2C Hf 0.38300(2) 0.49954(3) 0.0000
Hf2E Hf 0.11700(2) 0.00046(3) 0.5000
Hf2G Hf 0.88300(2) -0.00046(3) 0.5000
O1A O 0.5884(3) 0.5004(3) 0.08887(12)
O1B_2 O 0.4996(3) 0.5884(3) 0.08887(12)
O1C O 0.4116(3) 0.4996(3) 0.08887(12)
O2A O 0.6655(3) 0.5011(4) 0.04930(14)
O2J O 0.5011(4) 0.3345(3) -0.04930(14)
O2K O 0.6655(3) 0.5011(4) -0.04930(14)
O5I O 0.4405(4) 0.4412(4) -0.02919(15)
O5J O 0.5588(4) 0.4405(4) -0.02919(15)
O5K O 0.5595(4) 0.5588(4) -0.02919(15)
loop_
_geom_bond_atom_site_label_1
_geom_bond_atom_site_label_2
_geom_bond_site_symmetry_1
_geom_bond_site_symmetry_2
Hf1 O1 1_555 1_555
Hf2 O2 1_555 1_555
O1 C14 1_555 1_555
O2 C14 1_555 1_555
O3 Hf2 1_555 1_555
O4 Hf2 1_555 1_555
O5 Hf1 1_555 1_555
C1 C2 1_555 1_555
C2 C4 1_555 1_555
C3 C5 1_555 1_555
C4 H1 1_555 1_555
C5 C4 1_555 1_555
H2 C5 1_555 1_555
C6 C3 1_555 1_555
H3 C6 1_555 1_555
C7 C2 1_555 1_555
H4 C7 1_555 1_555
C8 C3 1_555 1_555
C9 C8 1_555 1_555
H5 C9 1_555 1_555
C10 C9 1_555 1_555
H6 C10 1_555 1_555
C11 C10 1_555 1_555
C12 C11 1_555 1_555
H7 C12 1_555 1_555
C13 C8 1_555 1_555
H8 C13 1_555 1_555
C14 C11 1_555 1_555
O1B C14B 1_555 1_555
O2B C14B 1_555 1_555
C2B C1 1_555 1_555
C3B C5B 1_555 1_555
C4B C2B 1_555 1_555
H1B C4B 1_555 1_555
C5B C4B 1_555 1_555
H2B C5B 1_555 1_555
C6B C3B 1_555 1_555
H3B C6B 1_555 1_555
C7B C2B 1_555 1_555
H4B C7B 1_555 1_555
C8B C3B 1_555 1_555
C9B C8B 1_555 1_555
H5B C9B 1_555 1_555
C10B C9B 1_555 1_555
H6B C10B 1_555 1_555
C11B C10B 1_555 1_555
C12B C11B 1_555 1_555
H7B C12B 1_555 1_555
C13B C8B 1_555 1_555
H8B C13B 1_555 1_555
C14B C11B 1_555 1_555
O1M C14M 1_555 1_555
O2M C14M 1_555 1_555
C2M C1 1_555 1_555
C3M C5M 1_555 1_555
C4M C2M 1_555 1_555
H1M C4M 1_555 1_555
C5M C4M 1_555 1_555
H2M C5M 1_555 1_555
C6M C3M 1_555 1_555
H3M C6M 1_555 1_555
C7M C2M 1_555 1_555
H4M C7M 1_555 1_555
C8M C3M 1_555 1_555
C9M C8M 1_555 1_555
H5M C9M 1_555 1_555
C10M C9M 1_555 1_555
H6M C10M 1_555 1_555
C11M C10M 1_555 1_555
C12M C11M 1_555 1_555
H7M C12M 1_555 1_555
C13M C8M 1_555 1_555
H8M C13M 1_555 1_555
C14M C11M 1_555 1_555
O1O C14O 1_555 1_555
O2O C14O 1_555 1_555
C2O C1 1_555 1_555
C3O C5O 1_555 1_555
C4O C2O 1_555 1_555
H1O C4O 1_555 1_555
C5O C4O 1_555 1_555
H2O C5O 1_555 1_555
C6O C3O 1_555 1_555
H3O C6O 1_555 1_555
C7O C2O 1_555 1_555
H4O C7O 1_555 1_555
C8O C3O 1_555 1_555
C9O C8O 1_555 1_555
H5O C9O 1_555 1_555
C10O C9O 1_555 1_555
H6O C10O 1_555 1_555
C11O C10O 1_555 1_555
C12O C11O 1_555 1_555
H7O C12O 1_555 1_555
C13O C8O 1_555 1_555
H8O C13O 1_555 1_555
C14O C11O 1_555 1_555
Hf2A O5 1_555 1_555
O3A Hf2A 1_555 1_555
O4A Hf2A 1_555 1_555
O5A Hf1 1_555 1_555
O5B Hf1 1_555 1_555
O5C Hf1 1_555 1_555
Hf1_2 O1B 1_555 1_555
Hf1L O1O 1_555 1_555
Hf1L_2 O1M 1_555 1_555
Hf2B O2B 1_555 1_555
Hf2B_2 O5A 1_555 1_555
Hf2C O5B 1_555 1_555
Hf2E O2O 1_555 1_555
Hf2G O2M 1_555 1_555
O1A Hf1 1_555 1_555
O1B_2 Hf1 1_555 1_555
O1C Hf1 1_555 1_555
O2A Hf2A 1_555 1_555
O2J Hf2 1_555 1_555
O2K Hf2A 1_555 1_555
O5I Hf2 1_555 1_555
O5J Hf2 1_555 1_555
O5K Hf2A 1_555 1_555
Hf2 O5 1_555 1_555
Hf2 O5C 1_555 1_555
C6 C7 1_555 1_555
C12 C13 1_555 1_555
C6B C7B 1_555 1_555
C12B C13B 1_555 1_555
C6M C7M 1_555 1_555
C12M C13M 1_555 1_555
C6O C7O 1_555 1_555
C12O C13O 1_555 1_555
Hf2A O5A 1_555 1_555
Hf2A O5J 1_555 1_555
O5B Hf2B_2 1_555 1_555
O5C Hf2C 1_555 1_555
Hf2B_2 O5K 1_555 1_555
Hf2C O5I 1_555 1_555

#END
