
#######################################################################
#
#                 Cambridge Crystallographic Data Centre
#                                CCDC 
#
#######################################################################
#
# If this CIF has been generated from an entry in the Cambridge 
# Structural Database, then it will include bibliographic, chemical, 
# crystal, experimental, refinement or atomic coordinate data resulting 
# from the CCDC's data processing and validation procedures.
#
#######################################################################

data_POKWIX
_chemical_formula_moiety         '(C48 H40 Co2 N4 O13 S2)n'
_symmetry_cell_setting           monoclinic
_symmetry_space_group_name_H-M   'C 2/c'
_symmetry_Int_Tables_number      15
_space_group_name_Hall           '-C 2yc'
loop_
_symmetry_equiv_pos_site_id
_symmetry_equiv_pos_as_xyz
1 x,y,z
2 -x,y,1/2-z
3 1/2+x,1/2+y,z
4 1/2-x,1/2+y,1/2-z
5 -x,-y,-z
6 x,-y,1/2+z
7 1/2-x,1/2-y,-z
8 1/2+x,1/2-y,1/2+z
_cell_length_a                   30.2107(6)
_cell_length_b                   8.2982(2)
_cell_length_c                   24.0244(5)
_cell_angle_alpha                90
_cell_angle_beta                 120.259(2)
_cell_angle_gamma                90
_cell_volume                     5202.22
loop_
_atom_site_label
_atom_site_type_symbol
_atom_site_fract_x
_atom_site_fract_y
_atom_site_fract_z
Co1 Co 0.068088(13) 0.46932(4) 0.278394(15)
N1 N 0.09063(9) -0.3532(3) 0.71796(11)
N2 N 0.36441(9) 0.8773(3) 0.67980(11)
O1 O 0.04978(8) 0.1647(3) 0.36008(9)
O2 O 0.10940(7) 0.3047(2) 0.35216(9)
O3 O 0.14882(10) 0.0022(3) 0.60013(11)
O4 O 0.23240(14) 0.4549(4) 0.58482(13)
O5 O 0.03234(7) 0.6467(2) 0.20890(9)
O6 O -0.05084(7) 0.5841(3) 0.15948(9)
O7 O 0.0000 0.3194(3) 0.2500
H1 H 0.0132 0.2603 0.2835
C1 C 0.12777(10) 0.2225(3) 0.45558(12)
C2 C 0.12104(10) 0.1073(3) 0.49223(13)
H2 H 0.0959 0.0285 0.4724
C3 C 0.15215(11) 0.1101(4) 0.55904(13)
C4 C 0.18886(14) 0.2270(5) 0.58852(15)
H3 H 0.2094 0.2291 0.6332
C5 C 0.19500(15) 0.3411(5) 0.55153(16)
C6 C 0.16473(13) 0.3398(4) 0.48464(14)
H4 H 0.1694 0.4169 0.4600
C7 C 0.09792(13) -0.4401(4) 0.67545(16)
H5 H 0.0960 -0.5518 0.6762
C8 C 0.10807(14) -0.3702(4) 0.63143(16)
H6 H 0.1140 -0.4340 0.6041
C9 C 0.10936(12) -0.2037(4) 0.62798(14)
C10 C 0.10373(14) -0.1166(4) 0.67188(16)
H7 H 0.1063 -0.0049 0.6725
C11 C 0.09409(13) -0.1940(4) 0.71586(16)
H8 H 0.0899 -0.1319 0.7451
C12 C 0.31742(13) 0.9395(4) 0.64658(19)
H9 H 0.3130 1.0487 0.6510
C13 C 0.27480(15) 0.8477(5) 0.6057(2)
H10 H 0.2426 0.8950 0.5827
C14 C 0.28107(16) 0.6850(5) 0.5997(2)
C15 C 0.32912(15) 0.6206(5) 0.6354(2)
H11 H 0.3344 0.5106 0.6338
C16 C 0.36939(13) 0.7203(4) 0.67355(17)
H12 H 0.4020 0.6755 0.6963
C17 C 0.09275(10) 0.2294(3) 0.38362(12)
C18 C 0.11357(15) -0.1243(5) 0.57471(16)
H13 H 0.1248 -0.2024 0.5543
H14 H 0.0804 -0.0833 0.5424
C19 C 0.23612(19) 0.5824(6) 0.5521(2)
H15 H 0.2047 0.6450 0.5331
H16 H 0.2417 0.5453 0.5178
C20 C 0.00421(12) 0.6368(4) 0.03636(13)
C21 C -0.02121(14) 0.5008(4) 0.03908(16)
H17 H -0.0355 0.4999 0.0655
C22 C -0.02550(13) 0.3670(4) 0.00278(15)
H18 H -0.0431 0.2772 0.0047
C23 C -0.02685(12) 0.7910(3) 0.11443(14)
H19 H -0.0284 0.8937 0.1327
H20 H -0.0610 0.7684 0.0789
C24 C -0.01340(11) 0.6622(3) 0.16549(12)
S1 S 0.01463(4) 0.81437(9) 0.08189(4)
O5D O -0.03234(7) 0.3533(2) -0.20890(9)
O6D O 0.05084(7) 0.4159(3) -0.15948(9)
C20D C -0.00421(12) 0.3632(4) -0.03636(13)
C21D C 0.02121(14) 0.4992(4) -0.03908(16)
H17D H 0.0355 0.5001 -0.0655
C22D C 0.02550(13) 0.6330(4) -0.00278(15)
H18D H 0.0431 0.7228 -0.0047
C23D C 0.02685(12) 0.2090(3) -0.11443(14)
H19D H 0.0284 0.1063 -0.1327
H20D H 0.0610 0.2316 -0.0789
C24D C 0.01340(11) 0.3378(3) -0.16549(12)
S1D S -0.01463(4) 0.18563(9) -0.08189(4)
H1A H -0.0132 0.2603 0.2165
Co1A Co -0.068088(13) 0.46932(4) 0.221606(15)
N1A N -0.09063(9) -0.3532(3) -0.21796(11)
N2A N -0.36441(9) 0.8773(3) -0.17980(11)
O1A O -0.04978(8) 0.1647(3) 0.13992(9)
O2A O -0.10940(7) 0.3047(2) 0.14784(9)
O3A O -0.14882(10) 0.0022(3) -0.10013(11)
O4A O -0.23240(14) 0.4549(4) -0.08482(13)
C1A C -0.12777(10) 0.2225(3) 0.04442(12)
C2A C -0.12104(10) 0.1073(3) 0.00777(13)
H2A H -0.0959 0.0285 0.0276
C3A C -0.15215(11) 0.1101(4) -0.05904(13)
C4A C -0.18886(14) 0.2270(5) -0.08852(15)
H3A H -0.2094 0.2291 -0.1332
C5A C -0.19500(15) 0.3411(5) -0.05153(16)
C6A C -0.16473(13) 0.3398(4) 0.01536(14)
H4A H -0.1694 0.4169 0.0400
C7A C -0.09792(13) -0.4401(4) -0.17545(16)
H5A H -0.0960 -0.5518 -0.1762
C8A C -0.10807(14) -0.3702(4) -0.13143(16)
H6A H -0.1140 -0.4340 -0.1041
C9A C -0.10936(12) -0.2037(4) -0.12798(14)
C10A C -0.10373(14) -0.1166(4) -0.17188(16)
H7A H -0.1063 -0.0049 -0.1725
C11A C -0.09409(13) -0.1940(4) -0.21586(16)
H8A H -0.0899 -0.1319 -0.2451
C12A C -0.31742(13) 0.9395(4) -0.14658(19)
H9A H -0.3130 1.0487 -0.1510
C13A C -0.27480(15) 0.8477(5) -0.1057(2)
H10A H -0.2426 0.8950 -0.0827
C14A C -0.28107(16) 0.6850(5) -0.0997(2)
C15A C -0.32912(15) 0.6206(5) -0.1354(2)
H11A H -0.3344 0.5106 -0.1338
C16A C -0.36939(13) 0.7203(4) -0.17355(17)
H12A H -0.4020 0.6755 -0.1963
C17A C -0.09275(10) 0.2294(3) 0.11638(12)
C18A C -0.11357(15) -0.1243(5) -0.07471(16)
H13A H -0.1248 -0.2024 -0.0543
H14A H -0.0804 -0.0833 -0.0424
C19A C -0.23612(19) 0.5824(6) -0.0521(2)
H15A H -0.2047 0.6450 -0.0331
H16A H -0.2417 0.5453 -0.0178
Co1D Co -0.068088(13) -0.46932(4) -0.278394(15)
Co1D_2 Co -0.068088(13) 0.53068(4) -0.278394(15)
Co1E Co 0.068088(13) -0.46932(4) 0.778394(15)
Co1E_2 Co 0.068088(13) 0.53068(4) -0.221606(15)
Co1F Co 0.431912(13) 1.03068(4) 0.721606(15)
Co1G Co -0.431912(13) 1.03068(4) -0.221606(15)
N1D N -0.09063(9) 0.3532(3) 0.28204(11)
N1E N 0.09063(9) 0.3532(3) 0.21796(11)
N2F N 0.13559(9) 0.6227(3) 0.32020(11)
N2G N -0.13559(9) 0.6227(3) 0.17980(11)
O5A O -0.03234(7) 0.6467(2) 0.29110(9)
O6A O 0.05084(7) 0.5841(3) 0.34052(9)
loop_
_geom_bond_atom_site_label_1
_geom_bond_atom_site_label_2
_geom_bond_site_symmetry_1
_geom_bond_site_symmetry_2
Co1 O2 1_555 1_555
N1 C7 1_555 1_555
N2 C12 1_555 1_555
O1 C17 1_555 1_555
O2 C17 1_555 1_555
O3 C3 1_555 1_555
O4 C5 1_555 1_555
O5 Co1 1_555 1_555
O6 C24 1_555 1_555
O7 Co1 1_555 1_555
H1 O7 1_555 1_555
C1 C2 1_555 1_555
C2 H2 1_555 1_555
C3 C2 1_555 1_555
C4 C3 1_555 1_555
H3 C4 1_555 1_555
C5 C4 1_555 1_555
C6 C1 1_555 1_555
H4 C6 1_555 1_555
C7 H5 1_555 1_555
C8 C7 1_555 1_555
H6 C8 1_555 1_555
C9 C8 1_555 1_555
C10 C9 1_555 1_555
H7 C10 1_555 1_555
C11 N1 1_555 1_555
H8 C11 1_555 1_555
C12 H9 1_555 1_555
C13 C12 1_555 1_555
H10 C13 1_555 1_555
C14 C13 1_555 1_555
C15 C14 1_555 1_555
H11 C15 1_555 1_555
C16 N2 1_555 1_555
H12 C16 1_555 1_555
C17 C1 1_555 1_555
C18 O3 1_555 1_555
H13 C18 1_555 1_555
H14 C18 1_555 1_555
C19 O4 1_555 1_555
H15 C19 1_555 1_555
H16 C19 1_555 1_555
C20 C21 1_555 1_555
C21 H17 1_555 1_555
C22 C21 1_555 1_555
H18 C22 1_555 1_555
C23 H19 1_555 1_555
H20 C23 1_555 1_555
C24 O5 1_555 1_555
S1 C20 1_555 1_555
O5D C24D 1_555 1_555
O6D C24D 1_555 1_555
C20D C22 1_555 1_555
C21D C20D 1_555 1_555
H17D C21D 1_555 1_555
C22D C20 1_555 1_555
H18D C22D 1_555 1_555
C23D H19D 1_555 1_555
H20D C23D 1_555 1_555
C24D C23D 1_555 1_555
S1D C20D 1_555 1_555
H1A O7 1_555 1_555
Co1A O6 1_555 1_555
N1A C7A 1_555 1_555
N2A C12A 1_555 1_555
O1A C17A 1_555 1_555
O2A Co1A 1_555 1_555
O3A C3A 1_555 1_555
O4A C5A 1_555 1_555
C1A C2A 1_555 1_555
C2A H2A 1_555 1_555
C3A C2A 1_555 1_555
C4A C3A 1_555 1_555
H3A C4A 1_555 1_555
C5A C4A 1_555 1_555
C6A C1A 1_555 1_555
H4A C6A 1_555 1_555
C7A H5A 1_555 1_555
C8A C7A 1_555 1_555
H6A C8A 1_555 1_555
C9A C8A 1_555 1_555
C10A C9A 1_555 1_555
H7A C10A 1_555 1_555
C11A N1A 1_555 1_555
H8A C11A 1_555 1_555
C12A H9A 1_555 1_555
C13A C12A 1_555 1_555
H10A C13A 1_555 1_555
C14A C13A 1_555 1_555
C15A C14A 1_555 1_555
H11A C15A 1_555 1_555
C16A N2A 1_555 1_555
H12A C16A 1_555 1_555
C17A O2A 1_555 1_555
C18A O3A 1_555 1_555
H13A C18A 1_555 1_555
H14A C18A 1_555 1_555
C19A O4A 1_555 1_555
H15A C19A 1_555 1_555
H16A C19A 1_555 1_555
Co1D N1A 1_555 1_555
Co1D_2 O5D 1_555 1_555
Co1E N1 1_555 1_555
Co1E_2 O6D 1_555 1_555
Co1F N2 1_555 1_555
Co1G N2A 1_555 1_555
N1D Co1A 1_555 1_555
N1E Co1 1_555 1_555
N2F Co1 1_555 1_555
N2G Co1A 1_555 1_555
O5A Co1A 1_555 1_555
O6A Co1 1_555 1_555
O7 Co1A 1_555 1_555
C5 C6 1_555 1_555
C9 C18 1_555 1_555
C10 C11 1_555 1_555
C14 C19 1_555 1_555
C15 C16 1_555 1_555
C23 C24 1_555 1_555
C23 S1 1_555 1_555
C21D C22D 1_555 1_555
C23D S1D 1_555 1_555
C1A C17A 1_555 1_555
C5A C6A 1_555 1_555
C9A C18A 1_555 1_555
C10A C11A 1_555 1_555
C14A C19A 1_555 1_555
C15A C16A 1_555 1_555

#END
