
#######################################################################
#
#                 Cambridge Crystallographic Data Centre
#                                CCDC 
#
#######################################################################
#
# If this CIF has been generated from an entry in the Cambridge 
# Structural Database, then it will include bibliographic, chemical, 
# crystal, experimental, refinement or atomic coordinate data resulting 
# from the CCDC's data processing and validation procedures.
#
#######################################################################

data_LEZZEX
_chemical_formula_moiety         '(C14 H8 O6 S1 Sr1)n'
_symmetry_cell_setting           monoclinic
_symmetry_space_group_name_H-M   'P 21/n'
_symmetry_Int_Tables_number      14
_space_group_name_Hall           '-P 2yn'
loop_
_symmetry_equiv_pos_site_id
_symmetry_equiv_pos_as_xyz
1 x,y,z
2 1/2-x,1/2+y,1/2-z
3 -x,-y,-z
4 1/2+x,1/2-y,1/2+z
_cell_length_a                   12.1704(5)
_cell_length_b                   5.7317(3)
_cell_length_c                   22.8977(9)
_cell_angle_alpha                90
_cell_angle_beta                 98.851(2)
_cell_angle_gamma                90
_cell_volume                     1578.26
loop_
_atom_site_label
_atom_site_type_symbol
_atom_site_fract_x
_atom_site_fract_y
_atom_site_fract_z
Sr1 Sr 0.36673(2) 0.74612(5) 0.775723(11)
O1 O 1.00419(19) 0.5196(4) 0.75873(10)
O2 O 1.0385(2) 0.8976(4) 0.75100(11)
O3 O 0.73443(18) 0.5464(4) 1.17044(9)
O4 O 0.73803(18) 0.9276(4) 1.18664(8)
S1 S 0.59910(6) 0.96269(13) 0.89302(3)
O5 O 0.50786(18) 0.8072(4) 0.87128(9)
O6 O 0.5822(2) 1.2112(4) 0.88878(10)
C1 C 0.7241(3) 0.7534(5) 1.15272(13)
C2 C 0.6972(2) 0.8024(5) 1.08718(12)
C3 C 0.6446(3) 0.6329(6) 1.04930(13)
H1 H 0.6283 0.4882 1.0642
C4 C 0.6165(3) 0.6780(6) 0.98969(13)
H2 H 0.5819 0.5647 0.9642
C5 C 0.6407(2) 0.8940(5) 0.96869(11)
C6 C 0.6958(3) 1.0607(6) 1.00536(12)
H3 H 0.7145 1.2032 0.9901
C7 C 0.7229(3) 1.0144(6) 1.06487(12)
H4 H 0.7589 1.1273 1.0901
C8 C 0.7132(2) 0.8884(5) 0.85772(12)
C9 C 0.7164(3) 0.6742(6) 0.82993(13)
H5 H 0.6594 0.5661 0.8302
C10 C 0.8059(3) 0.6257(5) 0.80191(13)
H6 H 0.8092 0.4825 0.7832
C11 C 0.8920(3) 0.7861(5) 0.80092(13)
C12 C 0.8868(3) 0.9992(6) 0.82884(14)
H7 H 0.9431 1.1082 0.8281
C13 C 0.7978(3) 1.0508(6) 0.85803(13)
H8 H 0.7949 1.1925 0.8775
C14 C 0.9871(3) 0.7292(5) 0.76775(14)
Sr1A Sr 1.13327(2) 0.24612(5) 0.724277(11)
Sr1A_2 Sr 1.13327(2) 1.24612(5) 0.724277(11)
Sr1B Sr 0.63327(2) 0.25388(5) 1.224277(11)
Sr1B_2 Sr 0.63327(2) 1.25388(5) 1.224277(11)
Sr1C Sr 0.86673(2) 0.75388(5) 1.275723(11)
O1A O 0.49581(19) 1.0196(4) 0.74127(10)
O2A O 0.4615(2) 0.3976(4) 0.74900(11)
O3B O 0.26557(18) 0.4536(4) 0.82956(9)
O3C O 0.23443(18) 0.9536(4) 0.67044(9)
O4B O 0.26197(18) 1.0724(4) 0.81336(8)
O4C O 0.23803(18) 0.5724(4) 0.68664(8)
loop_
_geom_bond_atom_site_label_1
_geom_bond_atom_site_label_2
_geom_bond_site_symmetry_1
_geom_bond_site_symmetry_2
Sr1 O5 1_555 1_555
O1 C14 1_555 1_555
O2 C14 1_555 1_555
O3 C1 1_555 1_555
O4 C1 1_555 1_555
S1 O5 1_555 1_555
O6 S1 1_555 1_555
C1 C2 1_555 1_555
C2 C3 1_555 1_555
C3 H1 1_555 1_555
C4 C3 1_555 1_555
H2 C4 1_555 1_555
C5 S1 1_555 1_555
C6 C5 1_555 1_555
H3 C6 1_555 1_555
C7 C2 1_555 1_555
H4 C7 1_555 1_555
C8 S1 1_555 1_555
C9 C8 1_555 1_555
H5 C9 1_555 1_555
C10 C9 1_555 1_555
H6 C10 1_555 1_555
C11 C10 1_555 1_555
C12 C11 1_555 1_555
H7 C12 1_555 1_555
C13 C8 1_555 1_555
H8 C13 1_555 1_555
C14 C11 1_555 1_555
Sr1A O1 1_555 1_555
Sr1A_2 O2 1_555 1_555
Sr1B O3 1_555 1_555
Sr1B_2 O4 1_555 1_555
Sr1C O3 1_555 1_555
O1A Sr1 1_555 1_555
O2A Sr1 1_555 1_555
O3B Sr1 1_555 1_555
O3C Sr1 1_555 1_555
O4B Sr1 1_555 1_555
O4C Sr1 1_555 1_555
O4 Sr1C 1_555 1_555
C4 C5 1_555 1_555
C6 C7 1_555 1_555
C12 C13 1_555 1_555

#END
