
#######################################################################
#
#                 Cambridge Crystallographic Data Centre
#                                CCDC 
#
#######################################################################
#
# If this CIF has been generated from an entry in the Cambridge 
# Structural Database, then it will include bibliographic, chemical, 
# crystal, experimental, refinement or atomic coordinate data resulting 
# from the CCDC's data processing and validation procedures.
#
#######################################################################

data_LIDZUV
_chemical_formula_moiety         '(C14 H8 Ca1 O6 S1)n'
_symmetry_cell_setting           monoclinic
_symmetry_space_group_name_H-M   'P 21/n'
_symmetry_Int_Tables_number      14
_space_group_name_Hall           '-P 2yn'
loop_
_symmetry_equiv_pos_site_id
_symmetry_equiv_pos_as_xyz
1 x,y,z
2 1/2-x,1/2+y,1/2-z
3 -x,-y,-z
4 1/2+x,1/2-y,1/2+z
_cell_length_a                   11.8301(5)
_cell_length_b                   5.5761(2)
_cell_length_c                   22.7922(9)
_cell_angle_alpha                90
_cell_angle_beta                 100.493(2)
_cell_angle_gamma                90
_cell_volume                     1478.36
loop_
_atom_site_label
_atom_site_type_symbol
_atom_site_fract_x
_atom_site_fract_y
_atom_site_fract_z
Ca1 Ca 0.13659(4) 0.74362(7) 0.222844(19)
S1 S -0.10211(5) 0.53618(10) 0.10771(2)
O1 O -0.23728(14) 0.5856(3) -0.19073(7)
O2 O -0.23181(15) 0.9751(3) -0.17169(8)
O3 O -0.51599(15) 0.9745(3) 0.24332(9)
O4 O -0.54325(16) 0.5808(3) 0.25265(9)
O5 O -0.00697(14) 0.6945(3) 0.13123(7)
O6 O -0.08508(16) 0.2811(3) 0.11179(8)
C1 C -0.22297(19) 0.7612(4) -0.15511(10)
C2 C -0.19845(19) 0.7074(4) -0.08926(10)
C3 C -0.2294(2) 0.4888(5) -0.06784(11)
H1 H -0.2676 0.3753 -0.0941
C4 C -0.2035(2) 0.4391(4) -0.00712(11)
H2 H -0.2250 0.2937 0.0075
C5 C -0.14520(19) 0.6092(4) 0.03134(9)
C6 C -0.1165(2) 0.8307(5) 0.01087(10)
H3 H -0.0791 0.9447 0.0373
C7 C -0.1444(2) 0.8795(4) -0.04971(10)
H4 H -0.1268 1.0286 -0.0640
C8 C -0.4956(2) 0.7587(4) 0.23458(11)
C9 C -0.40045(19) 0.7076(4) 0.19963(10)
C10 C -0.3128(2) 0.8758(4) 0.20008(11)
H5 H -0.3161 1.0219 0.2194
C11 C -0.2209(2) 0.8264(4) 0.17183(11)
H6 H -0.1615 0.9363 0.1729
C12 C -0.21937(19) 0.6104(4) 0.14203(9)
C13 C -0.3077(2) 0.4434(4) 0.13956(12)
H7 H -0.3065 0.3013 0.1183
C14 C -0.3978(2) 0.4928(5) 0.16938(12)
H8 H -0.4564 0.3813 0.1690
Ca1A Ca -0.63659(4) 0.24362(7) 0.277156(19)
Ca1A_2 Ca -0.63659(4) 1.24362(7) 0.277156(19)
Ca1B Ca -0.13659(4) 0.25638(7) -0.222844(19)
Ca1B_2 Ca -0.13659(4) 1.25638(7) -0.222844(19)
Ca1C Ca -0.36341(4) 0.75638(7) -0.277156(19)
O1B O 0.23728(14) 0.4144(3) 0.19073(7)
O1C O 0.26272(14) 0.9144(3) 0.30927(7)
O2B O 0.23181(15) 1.0249(3) 0.17169(8)
O3A O 0.01599(15) 0.4745(3) 0.25668(9)
O4A O 0.04325(16) 1.0808(3) 0.24735(9)
loop_
_geom_bond_atom_site_label_1
_geom_bond_atom_site_label_2
_geom_bond_site_symmetry_1
_geom_bond_site_symmetry_2
Ca1 O5 1_555 1_555
S1 O5 1_555 1_555
O1 C1 1_555 1_555
O2 C1 1_555 1_555
O3 C8 1_555 1_555
O4 C8 1_555 1_555
O6 S1 1_555 1_555
C1 C2 1_555 1_555
C2 C3 1_555 1_555
C3 H1 1_555 1_555
C4 C3 1_555 1_555
H2 C4 1_555 1_555
C5 S1 1_555 1_555
C6 C5 1_555 1_555
H3 C6 1_555 1_555
C7 C2 1_555 1_555
H4 C7 1_555 1_555
C8 C9 1_555 1_555
C9 C10 1_555 1_555
C10 H5 1_555 1_555
C11 C10 1_555 1_555
H6 C11 1_555 1_555
C12 S1 1_555 1_555
C13 C12 1_555 1_555
H7 C13 1_555 1_555
C14 C9 1_555 1_555
H8 C14 1_555 1_555
Ca1A O4 1_555 1_555
Ca1A_2 O3 1_555 1_555
Ca1B O1 1_555 1_555
Ca1B_2 O2 1_555 1_555
Ca1C O1 1_555 1_555
O1B Ca1 1_555 1_555
O1C Ca1 1_555 1_555
O2B Ca1 1_555 1_555
O3A Ca1 1_555 1_555
O4A Ca1 1_555 1_555
C4 C5 1_555 1_555
C6 C7 1_555 1_555
C11 C12 1_555 1_555
C13 C14 1_555 1_555

#END
