
#######################################################################
#
#                 Cambridge Crystallographic Data Centre
#                                CCDC 
#
#######################################################################
#
# If this CIF has been generated from an entry in the Cambridge 
# Structural Database, then it will include bibliographic, chemical, 
# crystal, experimental, refinement or atomic coordinate data resulting 
# from the CCDC's data processing and validation procedures.
#
#######################################################################

data_ALIFUY
_chemical_formula_moiety         '(C24 H24 Cd1 Cl1 N3 O11)n'
_symmetry_cell_setting           monoclinic
_symmetry_space_group_name_H-M   'P 21/n'
_symmetry_Int_Tables_number      14
_space_group_name_Hall           '-P 2yn'
loop_
_symmetry_equiv_pos_site_id
_symmetry_equiv_pos_as_xyz
1 x,y,z
2 1/2-x,1/2+y,1/2-z
3 -x,-y,-z
4 1/2+x,1/2-y,1/2+z
_cell_length_a                   11.9869(15)
_cell_length_b                   17.717(2)
_cell_length_c                   12.6414(16)
_cell_angle_alpha                90
_cell_angle_beta                 103.650(2)
_cell_angle_gamma                90
_cell_volume                     2608.85
loop_
_atom_site_label
_atom_site_type_symbol
_atom_site_fract_x
_atom_site_fract_y
_atom_site_fract_z
Cd1 Cd 0.76625(3) 0.435236(18) 0.95578(3)
O1 O 0.6435(3) 0.5242(3) 0.7366(4)
O2 O 0.5891(3) 0.4368(2) 0.8402(3)
O3 O 0.2250(3) 0.94695(18) 0.5164(3)
O4 O 0.3672(3) 0.95061(17) 0.4341(3)
O5 O 0.9252(3) 0.4195(2) 1.1047(3)
H1 H 0.9825 0.3934 1.0976
H2 H 0.9250 0.4397 1.1656
N1 N 0.3058(4) 0.5490(2) 0.5645(4)
N2 N 0.8635(3) 0.3621(2) 0.8579(3)
N3 N 1.1749(3) 0.1422(2) 0.5579(3)
C1 C 0.4165(4) 0.5392(3) 0.6167(4)
H3 H 0.4743 0.5575 0.5858
C2 C 0.4450(4) 0.5026(3) 0.7149(4)
C3 C 0.3581(4) 0.4795(3) 0.7634(5)
H4 H 0.3760 0.4550 0.8303
C4 C 0.2448(4) 0.4932(3) 0.7118(5)
H5 H 0.1861 0.4802 0.7450
C5 C 0.2206(4) 0.5261(3) 0.6110(5)
H6 H 0.1445 0.5329 0.5739
C6 C 0.5712(4) 0.4878(3) 0.7663(5)
C7 C 0.2772(5) 0.5867(3) 0.4569(5)
H7 H 0.1991 0.5742 0.4195
H8 H 0.3279 0.5683 0.4131
C8 C 0.2892(4) 0.6724(3) 0.4684(4)
C9 C 0.2398(4) 0.7119(3) 0.5387(5)
H9 H 0.2023 0.6859 0.5841
C10 C 0.2451(4) 0.7895(3) 0.5432(4)
H10 H 0.2105 0.8155 0.5909
C11 C 0.3013(4) 0.8287(3) 0.4772(4)
C12 C 0.3508(5) 0.7902(3) 0.4068(5)
H11 H 0.3883 0.8164 0.3616
C13 C 0.3456(5) 0.7112(3) 0.4021(5)
H12 H 0.3801 0.6851 0.3545
C14 C 0.2977(4) 0.9142(3) 0.4762(4)
C15 C 0.8585(5) 0.2861(3) 0.8575(5)
H13 H 0.8114 0.2627 0.8966
C16 C 0.9194(5) 0.2412(3) 0.8025(5)
H14 H 0.9139 0.1889 0.8053
C17 C 0.9894(4) 0.2751(3) 0.7426(4)
C18 C 0.9930(4) 0.3530(3) 0.7426(4)
H15 H 1.0386 0.3778 0.7034
C19 C 0.9305(4) 0.3939(3) 0.7994(4)
H16 H 0.9346 0.4463 0.7974
C20 C 1.0688(4) 0.1239(3) 0.5666(4)
H17 H 1.0343 0.0814 0.5296
C21 C 1.0088(4) 0.1639(3) 0.6261(5)
H18 H 0.9364 0.1474 0.6307
C22 C 1.0544(4) 0.2292(3) 0.6805(4)
C23 C 1.1643(4) 0.2488(3) 0.6713(4)
H19 H 1.1995 0.2919 0.7059
C24 C 1.2208(4) 0.2048(3) 0.6112(4)
H20 H 1.2944 0.2189 0.6071
Cd1C Cd 0.26625(3) 1.064764(18) 0.45578(3)
Cd1C_2 Cd 1.26625(3) 0.064764(18) 0.45578(3)
O3C O 0.7250(3) 0.55305(18) 1.0164(3)
O4C O 0.8672(3) 0.54939(17) 0.9341(3)
N3C N 0.6749(3) 0.3578(2) 1.0579(3)
Cl1 Cl 0.93714(12) 0.61872(9) 0.60330(13)
O6 O 0.9215(7) 0.5461(3) 0.6382(6)
O7 O 0.8431(6) 0.6641(5) 0.5970(6)
O8 O 0.9676(4) 0.6137(3) 0.5023(4)
O9 O 1.0319(4) 0.6501(3) 0.6828(4)
O10 O 0.6008(5) 0.6215(3) 0.4831(5)
H21 H 0.6619 0.6470 0.5056
H22 H 0.6038 0.5736 0.4815
O11 O 0.4429(4) 0.3101(2) 0.7593(4)
H23 H 0.4307 0.3279 0.6951
H24 H 0.4857 0.3476 0.7837
loop_
_geom_bond_atom_site_label_1
_geom_bond_atom_site_label_2
_geom_bond_site_symmetry_1
_geom_bond_site_symmetry_2
Cd1 O2 1_555 1_555
O1 C6 1_555 1_555
O2 C6 1_555 1_555
O3 C14 1_555 1_555
O4 C14 1_555 1_555
O5 Cd1 1_555 1_555
H1 O5 1_555 1_555
H2 O5 1_555 1_555
N1 C1 1_555 1_555
N2 Cd1 1_555 1_555
N3 C20 1_555 1_555
C1 H3 1_555 1_555
C2 C1 1_555 1_555
C3 C2 1_555 1_555
H4 C3 1_555 1_555
C4 C3 1_555 1_555
H5 C4 1_555 1_555
C5 N1 1_555 1_555
H6 C5 1_555 1_555
C6 C2 1_555 1_555
C7 N1 1_555 1_555
H7 C7 1_555 1_555
H8 C7 1_555 1_555
C8 C7 1_555 1_555
C9 C8 1_555 1_555
H9 C9 1_555 1_555
C10 C9 1_555 1_555
H10 C10 1_555 1_555
C11 C10 1_555 1_555
C12 C11 1_555 1_555
H11 C12 1_555 1_555
C13 C8 1_555 1_555
H12 C13 1_555 1_555
C14 C11 1_555 1_555
C15 N2 1_555 1_555
H13 C15 1_555 1_555
C16 C15 1_555 1_555
H14 C16 1_555 1_555
C17 C16 1_555 1_555
C18 C17 1_555 1_555
H15 C18 1_555 1_555
C19 N2 1_555 1_555
H16 C19 1_555 1_555
C20 H17 1_555 1_555
C21 C20 1_555 1_555
H18 C21 1_555 1_555
C22 C17 1_555 1_555
C23 C22 1_555 1_555
H19 C23 1_555 1_555
C24 N3 1_555 1_555
H20 C24 1_555 1_555
Cl1 O6 1_555 1_555
O7 Cl1 1_555 1_555
O8 Cl1 1_555 1_555
O9 Cl1 1_555 1_555
O10 H21 1_555 1_555
H22 O10 1_555 1_555
O11 H23 1_555 1_555
H24 O11 1_555 1_555
Cd1C O3 1_555 1_555
Cd1C_2 N3 1_555 1_555
O3C Cd1 1_555 1_555
O4C Cd1 1_555 1_555
N3C Cd1 1_555 1_555
O4 Cd1C 1_555 1_555
C4 C5 1_555 1_555
C12 C13 1_555 1_555
C18 C19 1_555 1_555
C21 C22 1_555 1_555
C23 C24 1_555 1_555

#END
