
#######################################################################
#
#                 Cambridge Crystallographic Data Centre
#                                CCDC 
#
#######################################################################
#
# If this CIF has been generated from an entry in the Cambridge 
# Structural Database, then it will include bibliographic, chemical, 
# crystal, experimental, refinement or atomic coordinate data resulting 
# from the CCDC's data processing and validation procedures.
#
#######################################################################

data_JEXXAM05
_chemical_formula_moiety         '(C3 H7 N1 Ni1 O6)n'
_symmetry_cell_setting           hexagonal
_symmetry_space_group_name_H-M   'P 63 2 2'
_symmetry_Int_Tables_number      182
_space_group_name_Hall           'P 6c 2c'
loop_
_symmetry_equiv_pos_site_id
_symmetry_equiv_pos_as_xyz
1 x,y,z
2 -y,x-y,z
3 -x+y,-x,z
4 -x,-y,1/2+z
5 y,-x+y,1/2+z
6 x-y,x,1/2+z
7 y,x,-z
8 x-y,-y,-z
9 -x,-x+y,-z
10 -y,-x,1/2-z
11 -x+y,y,1/2-z
12 x,x-y,1/2-z
_cell_length_a                   7.28640(16)
_cell_length_b                   7.28640(16)
_cell_length_c                   8.05248(18)
_cell_angle_alpha                90
_cell_angle_beta                 90
_cell_angle_gamma                120
_cell_volume                     370.243
loop_
_atom_site_label
_atom_site_type_symbol
_atom_site_fract_x
_atom_site_fract_y
_atom_site_fract_z
Ni1 Ni 0.6667 0.3333 0.2500
O1 O 0.6911(2) 0.1116(2) 0.10613(16)
C1 C 0.5580(5) 0.0000 0.0000
H1 H 0.4303 0.0000 0.0000
O1G O 0.5795(3) -0.1116(2) -0.10613(16)
O1A O 0.8884(2) 0.5795(3) 0.10613(16)
C1A C 1.0000 0.5580(5) 0.0000
H1A H 1.0000 0.4303 0.0000
O1F O 1.1116(2) 0.6911(2) -0.10613(16)
O1B O 0.4205(3) 0.3089(2) 0.10613(16)
C1B C 0.4420(5) 0.4420(5) 0.0000
H1B H 0.5697 0.5697 0.0000
O1H O 0.3089(2) 0.4205(3) -0.10613(16)
Ni1C Ni 0.3333 -0.3333 -0.2500
Ni1C_2 Ni 0.3333 0.6667 -0.2500
Ni1C_3 Ni 1.3333 0.6667 -0.2500
O1I O 0.8884(2) 0.3089(2) 0.39387(16)
O1J O 0.4205(3) 0.1116(2) 0.39387(16)
O1K O 0.6911(2) 0.5795(3) 0.39387(16)
N1 N 0.0000 0.0000 0.2500
loop_
_geom_bond_atom_site_label_1
_geom_bond_atom_site_label_2
_geom_bond_site_symmetry_1
_geom_bond_site_symmetry_2
Ni1 O1 1_555 1_555
O1 C1 1_555 1_555
C1 H1 1_555 1_555
O1G C1 1_555 1_555
O1A Ni1 1_555 1_555
C1A O1A 1_555 1_555
H1A C1A 1_555 1_555
O1F C1A 1_555 1_555
O1B Ni1 1_555 1_555
C1B O1B 1_555 1_555
H1B C1B 1_555 1_555
O1H C1B 1_555 1_555
Ni1C O1G 1_555 1_555
Ni1C_2 O1H 1_555 1_555
Ni1C_3 O1F 1_555 1_555
O1I Ni1 1_555 1_555
O1J Ni1 1_555 1_555
O1K Ni1 1_555 1_555

#END
