
#######################################################################
#
#                 Cambridge Crystallographic Data Centre
#                                CCDC 
#
#######################################################################
#
# If this CIF has been generated from an entry in the Cambridge 
# Structural Database, then it will include bibliographic, chemical, 
# crystal, experimental, refinement or atomic coordinate data resulting 
# from the CCDC's data processing and validation procedures.
#
#######################################################################

data_ASEJOZ01
_chemical_formula_moiety         '(C18 H26 Cd3 N8 O18)n'
_symmetry_cell_setting           monoclinic
_symmetry_space_group_name_H-M   'I 2/c'
_symmetry_Int_Tables_number      15
_space_group_name_Hall           '-I 2yc'
loop_
_symmetry_equiv_pos_site_id
_symmetry_equiv_pos_as_xyz
1 x,y,z
2 -x,y,1/2-z
3 1/2+x,1/2+y,1/2+z
4 1/2-x,1/2+y,-z
5 -x,-y,-z
6 x,-y,1/2+z
7 1/2-x,1/2-y,1/2-z
8 1/2+x,1/2-y,z
_cell_length_a                   12.8688(3)
_cell_length_b                   18.0925(3)
_cell_length_c                   14.5190(3)
_cell_angle_alpha                90
_cell_angle_beta                 116.053(3)
_cell_angle_gamma                90
_cell_volume                     3036.95
loop_
_atom_site_label
_atom_site_type_symbol
_atom_site_fract_x
_atom_site_fract_y
_atom_site_fract_z
_atom_site_U_iso_or_equiv
_atom_site_thermal_displace_type
Cd1 Cd 0.10940(2) 0.271233(14) 0.557180(18) 0.0227 Uani
Cd2 Cd -0.5000 0.50328(2) 0.2500 0.0243 Uani
O1 O 0.1260(2) 0.31981(14) 0.42020(17) 0.0282 Uani
O2 O 0.37023(19) 0.63544(15) 0.46204(17) 0.0289 Uani
N1 N -0.2834(2) 0.60564(17) 0.3323(2) 0.0278 Uani
N2 N -0.3068(2) 0.53577(17) 0.3098(2) 0.0254 Uani
O3 O -0.0778(2) 0.26196(16) 0.4580(2) 0.0445 Uani
H1 H -0.1191 0.2263 0.4589 0.0670 Uiso
H2 H -0.1201 0.2892 0.4088 0.0670 Uiso
N3 N -0.1699(2) 0.61623(16) 0.3598(2) 0.0222 Uani
O4 O 0.3014(2) 0.36171(15) 0.4518(2) 0.0386 Uani
O5 O -0.4854(2) 0.5835(2) 0.3800(2) 0.0592 Uani
H3 H -0.4201 0.5976 0.4214 0.0890 Uiso
H4 H -0.5344 0.5900 0.4026 0.0890 Uiso
N4 N -0.2108(2) 0.49871(15) 0.3220(2) 0.0232 Uani
C1 C -0.0062(3) 0.5357(2) 0.3751(2) 0.0205 Uani
C2 C -0.1283(3) 0.5496(2) 0.3522(2) 0.0191 Uani
C3 C 0.1519(3) 0.4494(2) 0.4120(2) 0.0196 Uani
C4 C 0.1837(3) 0.5809(2) 0.4073(2) 0.0198 Uani
C5 C 0.0365(3) 0.4633(2) 0.3889(2) 0.0216 Uani
H5 H -0.0127 0.4239 0.3826 0.0260 Uiso
C6 C 0.0671(3) 0.5939(2) 0.3824(2) 0.0211 Uani
H6 H 0.0386 0.6420 0.3706 0.0250 Uiso
C7 C 0.2613(3) 0.6451(2) 0.4180(2) 0.0221 Uani
C8 C 0.1962(3) 0.3710(2) 0.4291(2) 0.0254 Uani
C9 C 0.2252(3) 0.5085(2) 0.4222(2) 0.0217 Uani
H7 H 0.3027 0.4997 0.4390 0.0260 Uiso
O6 O 0.0763(2) 0.23703(15) 0.69392(19) 0.0370 Uani
H8 H 0.1158 0.2546 0.7519 0.0550 Uiso
H9 H 0.0549 0.1945 0.6962 0.0550 Uiso
O7 O -0.4830(3) 0.4082(2) 0.1567(3) 0.0889 Uani
H10 H -0.4504 0.4221 0.1167 0.1340 Uiso
H11 H -0.5523 0.3903 0.1158 0.1340 Uiso
O8 O 0.2184(2) 0.70750(14) 0.38553(18) 0.0291 Uani
Cd1A Cd -1.10940(2) 0.271233(14) -0.057180(18) 0.0227 Uani
O1A O -1.1260(2) 0.31981(14) 0.07980(17) 0.0282 Uani
O2A O -1.37023(19) 0.63544(15) 0.03796(17) 0.0289 Uani
N1A N -0.7166(2) 0.60564(17) 0.1677(2) 0.0278 Uani
N2A N -0.6932(2) 0.53577(17) 0.1902(2) 0.0254 Uani
O3A O -0.9222(2) 0.26196(16) 0.0420(2) 0.0445 Uani
H1A H -0.8809 0.2263 0.0411 0.0670 Uiso
H2A H -0.8799 0.2892 0.0912 0.0670 Uiso
N3A N -0.8301(2) 0.61623(16) 0.1402(2) 0.0222 Uani
O4A O -1.3014(2) 0.36171(15) 0.0482(2) 0.0386 Uani
O5A O -0.5146(2) 0.5835(2) 0.1200(2) 0.0592 Uani
H3A H -0.5799 0.5976 0.0786 0.0890 Uiso
H4A H -0.4656 0.5900 0.0974 0.0890 Uiso
N4A N -0.7892(2) 0.49871(15) 0.1780(2) 0.0232 Uani
C1A C -0.9938(3) 0.5357(2) 0.1249(2) 0.0205 Uani
C2A C -0.8717(3) 0.5496(2) 0.1478(2) 0.0191 Uani
C3A C -1.1519(3) 0.4494(2) 0.0880(2) 0.0196 Uani
C4A C -1.1837(3) 0.5809(2) 0.0927(2) 0.0198 Uani
C5A C -1.0365(3) 0.4633(2) 0.1111(2) 0.0216 Uani
H5A H -0.9873 0.4239 0.1174 0.0260 Uiso
C6A C -1.0671(3) 0.5939(2) 0.1176(2) 0.0211 Uani
H6A H -1.0386 0.6420 0.1294 0.0250 Uiso
C7A C -1.2613(3) 0.6451(2) 0.0820(2) 0.0221 Uani
C8A C -1.1962(3) 0.3710(2) 0.0709(2) 0.0254 Uani
C9A C -1.2252(3) 0.5085(2) 0.0778(2) 0.0217 Uani
H7A H -1.3027 0.4997 0.0610 0.0260 Uiso
O6A O -1.0763(2) 0.23703(15) -0.19392(19) 0.0370 Uani
H8A H -1.1158 0.2546 -0.2519 0.0550 Uiso
H9A H -1.0549 0.1945 -0.1962 0.0550 Uiso
O7A O -0.5170(3) 0.4082(2) 0.3433(3) 0.0889 Uani
H10A H -0.5496 0.4221 0.3833 0.1340 Uiso
H11A H -0.4477 0.3903 0.3842 0.1340 Uiso
O8A O -1.2184(2) 0.70750(14) 0.11447(18) 0.0291 Uani
Cd1B Cd -1.39060(2) 0.771233(14) 0.057180(18) 0.0227 Uani
Cd1C Cd 0.39060(2) 0.771233(14) 0.442820(18) 0.0227 Uani
Cd1D Cd -0.10940(2) 0.728767(14) 0.442820(18) 0.0227 Uani
Cd1E Cd -0.89060(2) 0.728767(14) 0.057180(18) 0.0227 Uani
O2B O -1.12977(19) 0.13544(15) -0.03796(17) 0.0289 Uani
O2C O 0.12977(19) 0.13544(15) 0.53796(17) 0.0289 Uani
N3D N 0.1699(2) 0.38377(16) 0.6402(2) 0.0222 Uani
N3E N -1.1699(2) 0.38377(16) -0.1402(2) 0.0222 Uani
O8B O -1.2816(2) 0.20750(14) -0.11447(18) 0.0291 Uani
O8C O 0.2816(2) 0.20750(14) 0.61447(18) 0.0291 Uani
O9 O -0.2213(3) 0.3408(2) 0.2959(3) 0.0898 Uani
H12 H -0.2699 0.3222 0.2396 0.1340 Uiso
H13 H -0.2246 0.3877 0.2918 0.1340 Uiso
O10 O 0.0000 0.2282(3) 0.2500 0.1034 Uani
H14 H 0.003(10) 0.246(4) 0.211(6) 0.1700 Uiso
H14A H -0.003(10) 0.246(4) 0.289(6) 0.1700 Uiso
loop_
_atom_site_aniso_label
_atom_site_aniso_U_11
_atom_site_aniso_U_22
_atom_site_aniso_U_33
_atom_site_aniso_U_23
_atom_site_aniso_U_13
_atom_site_aniso_U_12
Cd1 0.01900(16) 0.01686(17) 0.03238(16) -0.00156(10) 0.01148(12) 0.00017(11)
Cd2 0.0140(2) 0.0215(2) 0.0349(2) 0.000 0.00844(16) 0.000
O1 0.0324(15) 0.0182(14) 0.0321(13) 0.0000(11) 0.0123(11) -0.0026(12)
O2 0.0150(13) 0.0312(16) 0.0393(14) 0.0058(12) 0.0108(11) -0.0014(12)
N1 0.0143(16) 0.0218(19) 0.0443(17) -0.0054(14) 0.0101(14) -0.0021(14)
N2 0.0158(15) 0.0216(19) 0.0368(16) -0.0017(14) 0.0098(13) 0.0001(14)
O3 0.0249(15) 0.0388(19) 0.0548(17) 0.0149(14) 0.0036(13) -0.0091(14)
N3 0.0112(14) 0.0194(17) 0.0339(15) -0.0037(13) 0.0081(12) 0.0003(13)
O4 0.0220(15) 0.0272(16) 0.0617(17) -0.0046(13) 0.0140(13) 0.0082(13)
O5 0.0194(15) 0.100(3) 0.0552(17) -0.0430(18) 0.0136(13) -0.0072(17)
N4 0.0170(16) 0.0185(17) 0.0335(16) -0.0039(13) 0.0105(13) -0.0011(13)
C1 0.0142(17) 0.023(2) 0.0232(17) 0.0004(15) 0.0072(14) -0.0008(15)
C2 0.0160(17) 0.020(2) 0.0215(16) -0.0015(14) 0.0083(14) -0.0016(15)
C3 0.0201(18) 0.0184(19) 0.0225(16) 0.0008(14) 0.0114(14) -0.0013(16)
C4 0.0145(17) 0.022(2) 0.0234(16) 0.0036(15) 0.0088(14) 0.0005(15)
C5 0.0184(18) 0.021(2) 0.0259(17) -0.0016(15) 0.0101(14) -0.0008(16)
C6 0.0189(18) 0.0172(19) 0.0260(17) 0.0015(14) 0.0087(15) 0.0029(16)
C7 0.024(2) 0.024(2) 0.0224(17) -0.0002(15) 0.0140(15) -0.0028(17)
C8 0.024(2) 0.022(2) 0.0264(18) -0.0045(15) 0.0075(16) 0.0008(17)
C9 0.0133(18) 0.028(2) 0.0243(17) 0.0006(15) 0.0086(14) 0.0016(15)
O6 0.0475(18) 0.0316(17) 0.0371(14) -0.0020(12) 0.0233(13) -0.0034(14)
O7 0.062(3) 0.079(3) 0.085(2) -0.049(2) -0.005(2) 0.020(2)
O8 0.0223(14) 0.0178(14) 0.0446(14) 0.0036(12) 0.0122(12) -0.0025(12)
Cd1A 0.019 0.01686 0.03238 0.00156 0.01148 -0.00017
O1A 0.0324 0.0182 0.0321 0 0.0123 0.0026
O2A 0.015 0.0312 0.0393 -0.0058 0.0108 0.0014
N1A 0.0143 0.0218 0.0443 0.0054 0.0101 0.0021
N2A 0.0158 0.0216 0.0368 0.0017 0.0098 -0.0001
O3A 0.0249 0.0388 0.0548 -0.0149 0.0036 0.0091
N3A 0.0112 0.0194 0.0339 0.0037 0.0081 -0.0003
O4A 0.022 0.0272 0.0617 0.0046 0.014 -0.0082
O5A 0.0194 0.1 0.0552 0.043 0.0136 0.0072
N4A 0.017 0.0185 0.0335 0.0039 0.0105 0.0011
C1A 0.0142 0.023 0.0232 -0.0004 0.0072 0.0008
C2A 0.016 0.02 0.0215 0.0015 0.0083 0.0016
C3A 0.0201 0.0184 0.0225 -0.0008 0.0114 0.0013
C4A 0.0145 0.022 0.0234 -0.0036 0.0088 -0.0005
C5A 0.0184 0.021 0.0259 0.0016 0.0101 0.0008
C6A 0.0189 0.0172 0.026 -0.0015 0.0087 -0.0029
C7A 0.024 0.024 0.0224 0.0002 0.014 0.0028
C8A 0.024 0.022 0.0264 0.0045 0.0075 -0.0008
C9A 0.0133 0.028 0.0243 -0.0006 0.0086 -0.0016
O6A 0.0475 0.0316 0.0371 0.002 0.0233 0.0034
O7A 0.062 0.079 0.085 0.049 -0.005 -0.02
O8A 0.0223 0.0178 0.0446 -0.0036 0.0122 0.0025
Cd1B 0.019 0.01686 0.03238 -0.00156 0.01148 0.00017
Cd1C 0.019 0.01686 0.03238 0.00156 0.01148 -0.00017
Cd1D 0.019 0.01686 0.03238 -0.00156 0.01148 0.00017
Cd1E 0.019 0.01686 0.03238 0.00156 0.01148 -0.00017
O2B 0.015 0.0312 0.0393 0.0058 0.0108 -0.0014
O2C 0.015 0.0312 0.0393 -0.0058 0.0108 0.0014
N3D 0.0112 0.0194 0.0339 -0.0037 0.0081 0.0003
N3E 0.0112 0.0194 0.0339 0.0037 0.0081 -0.0003
O8B 0.0223 0.0178 0.0446 0.0036 0.0122 -0.0025
O8C 0.0223 0.0178 0.0446 -0.0036 0.0122 0.0025
O9 0.080(3) 0.036(2) 0.089(2) 0.0039(18) -0.022(2) 0.008(2)
O10 0.208(10) 0.031(3) 0.048(3) 0.000 0.035(5) 0.000
loop_
_geom_bond_atom_site_label_1
_geom_bond_atom_site_label_2
_geom_bond_site_symmetry_1
_geom_bond_site_symmetry_2
Cd1 O1 1_555 1_555
Cd2 N2 1_555 1_555
O1 C8 1_555 1_555
O2 C7 1_555 1_555
N1 N2 1_555 1_555
N2 N4 1_555 1_555
O3 Cd1 1_555 1_555
H1 O3 1_555 1_555
H2 O3 1_555 1_555
N3 N1 1_555 1_555
O4 C8 1_555 1_555
O5 Cd2 1_555 1_555
H3 O5 1_555 1_555
H4 O5 1_555 1_555
N4 C2 1_555 1_555
C1 C2 1_555 1_555
C2 N3 1_555 1_555
C3 C5 1_555 1_555
C4 C6 1_555 1_555
C5 C1 1_555 1_555
H5 C5 1_555 1_555
C6 C1 1_555 1_555
H6 C6 1_555 1_555
C7 C4 1_555 1_555
C8 C3 1_555 1_555
C9 C3 1_555 1_555
H7 C9 1_555 1_555
O6 Cd1 1_555 1_555
H8 O6 1_555 1_555
H9 O6 1_555 1_555
O7 Cd2 1_555 1_555
H10 O7 1_555 1_555
H11 O7 1_555 1_555
O8 C7 1_555 1_555
O9 H12 1_555 1_555
H13 O9 1_555 1_555
O10 H14 1_555 1_555
Cd1A O1A 1_555 1_555
O1A C8A 1_555 1_555
O2A C7A 1_555 1_555
N1A N2A 1_555 1_555
N2A Cd2 1_555 1_555
O3A Cd1A 1_555 1_555
H1A O3A 1_555 1_555
H2A O3A 1_555 1_555
N3A N1A 1_555 1_555
O4A C8A 1_555 1_555
O5A Cd2 1_555 1_555
H3A O5A 1_555 1_555
H4A O5A 1_555 1_555
N4A N2A 1_555 1_555
C1A C2A 1_555 1_555
C2A N3A 1_555 1_555
C3A C5A 1_555 1_555
C4A C6A 1_555 1_555
C5A C1A 1_555 1_555
H5A C5A 1_555 1_555
C6A C1A 1_555 1_555
H6A C6A 1_555 1_555
C7A C4A 1_555 1_555
C8A C3A 1_555 1_555
C9A C3A 1_555 1_555
H7A C9A 1_555 1_555
O6A Cd1A 1_555 1_555
H8A O6A 1_555 1_555
H9A O6A 1_555 1_555
O7A Cd2 1_555 1_555
H10A O7A 1_555 1_555
H11A O7A 1_555 1_555
O8A C7A 1_555 1_555
Cd1B O2A 1_555 1_555
Cd1C O2 1_555 1_555
Cd1D N3 1_555 1_555
Cd1E N3A 1_555 1_555
O2B Cd1A 1_555 1_555
O2C Cd1 1_555 1_555
N3D Cd1 1_555 1_555
N3E Cd1A 1_555 1_555
O8B Cd1A 1_555 1_555
O8C Cd1 1_555 1_555
H14A O10 1_555 1_555
C4 C9 1_555 1_555
O8 Cd1C 1_555 1_555
N4A C2A 1_555 1_555
C4A C9A 1_555 1_555
O8A Cd1B 1_555 1_555

#END
