
#######################################################################
#
#                 Cambridge Crystallographic Data Centre
#                                CCDC 
#
#######################################################################
#
# If this CIF has been generated from an entry in the Cambridge 
# Structural Database, then it will include bibliographic, chemical, 
# crystal, experimental, refinement or atomic coordinate data resulting 
# from the CCDC's data processing and validation procedures.
#
#######################################################################

data_HOWPOZ
_chemical_formula_moiety         '(C20 H24 Cd2 N6 O11)n'
_symmetry_cell_setting           orthorhombic
_symmetry_space_group_name_H-M   'P b c n'
_symmetry_Int_Tables_number      60
_space_group_name_Hall           '-P 2n 2ab'
loop_
_symmetry_equiv_pos_site_id
_symmetry_equiv_pos_as_xyz
1 x,y,z
2 1/2-x,1/2-y,1/2+z
3 -x,y,1/2-z
4 1/2+x,1/2-y,-z
5 -x,-y,-z
6 1/2+x,1/2+y,1/2-z
7 x,-y,1/2+z
8 1/2-x,1/2+y,z
_cell_length_a                   20.033(5)
_cell_length_b                   13.645(3)
_cell_length_c                   13.199(3)
_cell_angle_alpha                90
_cell_angle_beta                 90
_cell_angle_gamma                90
_cell_volume                     3607.95
loop_
_atom_site_label
_atom_site_type_symbol
_atom_site_fract_x
_atom_site_fract_y
_atom_site_fract_z
O6 O 1.4711(8) -1.7750(12) -0.3787(16)
Cd1 Cd 0.35110(3) 0.43842(5) -0.13371(5)
N1 N 0.2747(4) 0.3533(6) -0.0270(6)
N2 N 0.0531(4) 0.0234(6) -0.2059(5)
N3 N -0.0287(6) 0.1476(9) -0.1706(10)
O1 O 0.2040(4) 0.0869(5) -0.1259(5)
O2 O 0.3521(4) -0.4386(5) 0.0144(5)
O3 O 0.3693(4) -0.3139(6) 0.2318(6)
O4 O 0.2803(4) -0.4087(5) 0.2199(6)
O5 O 0.0721(4) -0.1606(6) -0.0522(6)
C1 C 0.1870(5) 0.1121(7) -0.0371(7)
C2 C 0.2161(5) 0.2034(6) 0.0053(7)
C3 C 0.2117(5) 0.2283(7) 0.1102(7)
C4 C 0.3141(6) -0.3390(7) 0.1912(7)
C5 C 0.2369(5) 0.3181(8) 0.1394(8)
H1 H 0.2669 -0.1617 0.2065
C6 C 0.2677(5) 0.3776(7) 0.0694(7)
H2 H 0.2157 -0.0622 0.0909
C7 C 0.2510(5) -0.2332(7) -0.0573(6)
H3 H 0.2461 -0.2507 -0.1249
C8 C 0.0243(7) 0.0862(11) -0.1294(10)
H4 H -0.0064 0.0462 -0.4249
H5 H -0.0590 0.1277 -0.3990
C9 C 0.0000 -0.0366(9) -0.2500
H6 H 0.0188 -0.0784 -0.3021
C10 C -0.0806(6) 0.0867(10) -0.2124(11)
H7 H 0.0996 0.0461 -0.3407
H8 H 0.1159 0.1277 -0.2604
C11 C 0.0000 0.2032(14) -0.2500
H9 H 0.0342 0.2452 -0.2215
Cd1G Cd 0.14890(3) -0.06158(5) -0.13371(5)
Cd1_2 Cd 0.35110(3) -0.56158(5) -0.13371(5)
Cd1F Cd 0.35110(3) -0.43842(5) 0.36629(5)
Cd1E Cd -0.14890(3) -0.06158(5) -0.36629(5)
Cd1A Cd 0.14890(3) 0.06158(5) 0.36629(5)
N1G N 0.2253(4) -0.1467(6) -0.0270(6)
N2G N 0.4469(4) 0.5234(6) -0.2059(5)
N2B N -0.0531(4) 0.0234(6) -0.2941(5)
N3B N 0.0287(6) 0.1476(9) -0.3294(10)
O1G O 0.2960(4) -0.4131(5) -0.1259(5)
O1G_2 O 0.2960(4) 0.5869(5) -0.1259(5)
O2G O 0.1479(4) 0.0614(5) 0.0144(5)
O2_2 O 0.3521(4) 0.5614(5) 0.0144(5)
O3A O 0.1307(4) -0.1861(6) -0.2682(6)
O3G O 0.1307(4) 0.1861(6) 0.2318(6)
O3F O 0.3693(4) 0.3139(6) -0.2682(6)
O4A O 0.2197(4) -0.0913(5) -0.2801(6)
O4G O 0.2197(4) 0.0913(5) 0.2199(6)
O4F O 0.2803(4) 0.4087(5) -0.2801(6)
O5G O 0.4279(4) 0.3394(6) -0.0522(6)
C1G C 0.3130(5) -0.3879(7) -0.0371(7)
C2G C 0.2839(5) -0.2966(6) 0.0053(7)
C3G C 0.2883(5) -0.2717(7) 0.1102(7)
C4G C 0.1859(6) 0.1610(7) 0.1912(7)
C5G C 0.2631(5) -0.1819(8) 0.1394(8)
H1G H 0.2331 0.3383 0.2065
C6G C 0.2323(5) -0.1224(7) 0.0694(7)
H2G H 0.2843 0.4378 0.0909
C7G C 0.2490(5) 0.2668(7) -0.0573(6)
H3G H 0.2539 0.2493 -0.1249
C8B C -0.0243(7) 0.0862(11) -0.3706(10)
H4B H 0.0064 0.0462 -0.0751
H5B H 0.0590 0.1277 -0.1010
H6B H -0.0188 -0.0784 -0.1979
C10B C 0.0806(6) 0.0867(10) -0.2876(11)
H7B H -0.0996 0.0461 -0.1593
H8B H -0.1159 0.1277 -0.2396
H9B H -0.0342 0.2452 -0.2785
loop_
_geom_bond_atom_site_label_1
_geom_bond_atom_site_label_2
_geom_bond_site_symmetry_1
_geom_bond_site_symmetry_2
Cd1 N1 1_555 1_555
N1 C6 1_555 1_555
N2 C8 1_555 1_555
N3 C8 1_555 1_555
O1 C1 1_555 1_555
O2 Cd1_2 1_555 1_555
O3 C4 1_555 1_555
O4 C4 1_555 1_555
O5 Cd1G 1_555 1_555
C1 C2 1_555 1_555
C2 C3 1_555 1_555
C3 C5 1_555 1_555
C4 C3G 1_555 1_555
C5 C6 1_555 1_555
H1 C5G 1_555 1_555
C6 H2G 1_555 1_555
H2 C6G 1_555 1_555
C7 H3 1_555 1_555
C8 H4B 1_555 1_555
H4 C8B 1_555 1_555
H5 C8B 1_555 1_555
C9 N2 1_555 1_555
H6 C9 1_555 1_555
C10 N3 1_555 1_555
H7 C10B 1_555 1_555
H8 C10B 1_555 1_555
C11 N3 1_555 1_555
H9 C11 1_555 1_555
Cd1G N2 1_555 1_555
Cd1_2 O1G 1_555 1_555
Cd1F O3 1_555 1_555
Cd1E N2B 1_555 1_555
Cd1A O3G 1_555 1_555
N1G C7 1_555 1_555
N2G Cd1 1_555 1_555
N2B C9 1_555 1_555
N3B C11 1_555 1_555
O1G C1G 1_555 1_555
O1G_2 Cd1 1_555 1_555
O2G C1 1_555 1_555
O2_2 Cd1 1_555 1_555
O3A Cd1G 1_555 1_555
O3G C4G 1_555 1_555
O3F Cd1 1_555 1_555
O4A Cd1G 1_555 1_555
O4G Cd1A 1_555 1_555
O4F Cd1 1_555 1_555
O5G Cd1 1_555 1_555
C1G O2 1_555 1_555
C2G C7 1_555 1_555
C3G C2G 1_555 1_555
C4G C3 1_555 1_555
C5G C3G 1_555 1_555
H1G C5 1_555 1_555
C6G N1G 1_555 1_555
C7G N1 1_555 1_555
H3G C7G 1_555 1_555
C8B N2B 1_555 1_555
H5B C8 1_555 1_555
H6B C9 1_555 1_555
C10B N2 1_555 1_555
H7B C10 1_555 1_555
H8B C10 1_555 1_555
H9B C11 1_555 1_555
O1 Cd1G 1_555 1_555
O4 Cd1F 1_555 1_555
C2 C7G 1_555 1_555
C10 N2B 1_555 1_555
Cd1G N1G 1_555 1_555
Cd1G O2G 1_555 1_555
N3B C8B 1_555 1_555
N3B C10B 1_555 1_555
O4G C4G 1_555 1_555
C1G C2G 1_555 1_555
C5G C6G 1_555 1_555

#END
