
#######################################################################
#
#                 Cambridge Crystallographic Data Centre
#                                CCDC 
#
#######################################################################
#
# If this CIF has been generated from an entry in the Cambridge 
# Structural Database, then it will include bibliographic, chemical, 
# crystal, experimental, refinement or atomic coordinate data resulting 
# from the CCDC's data processing and validation procedures.
#
#######################################################################

data_FILYAC
_chemical_formula_moiety         '(C46 H40 Co6 N2 O26)n'
_symmetry_cell_setting           orthorhombic
_symmetry_space_group_name_H-M   'P n n a'
_symmetry_Int_Tables_number      52
_space_group_name_Hall           '-P 2a 2bc'
loop_
_symmetry_equiv_pos_site_id
_symmetry_equiv_pos_as_xyz
1 x,y,z
2 1/2-x,-y,z
3 x,1/2-y,1/2-z
4 1/2-x,1/2+y,1/2-z
5 -x,-y,-z
6 1/2+x,y,-z
7 -x,1/2+y,1/2+z
8 1/2+x,1/2-y,1/2+z
_cell_length_a                   28.764(4)
_cell_length_b                   21.682(3)
_cell_length_c                   10.9330(14)
_cell_angle_alpha                90
_cell_angle_beta                 90
_cell_angle_gamma                90
_cell_volume                     6818.49
loop_
_atom_site_label
_atom_site_type_symbol
_atom_site_fract_x
_atom_site_fract_y
_atom_site_fract_z
C1 C 0.8935(10) -0.2461(16) 0.916(3)
H1 H 0.8911 -0.2432 0.8281
H2 H 0.8748 -0.2797 0.9442
H3 H 0.9254 -0.2531 0.9378
C2 C 0.8827(11) -0.1958(12) 1.099(2)
H4 H 0.8966 -0.2358 1.1079
H5 H 0.8533 -0.1952 1.1405
H6 H 0.9027 -0.1651 1.1339
C3 C 0.7451(10) 0.1713(13) 0.391(2)
H7 H 0.7230 0.2024 0.3824
C4 C 0.7910(8) 0.1764(9) 0.335(2)
H8 H 0.7982 0.1878 0.2553
C5 C 0.8262(12) 0.1580(15) 0.442(3)
H9 H 0.8497 0.1835 0.4712
C6 C 0.8567(3) 0.0690(4) 0.5481(7)
C7 C 0.8179(3) 0.1014(3) 0.4836(7)
C8 C 0.7723(2) 0.0928(3) 0.5185(6)
H10 H 0.7661 0.0682 0.5862
C9 C 0.7357(2) 0.1191(4) 0.4573(7)
C10 C 1.0125(3) 0.1582(3) 0.6130(6)
C11 C 0.9855(2) 0.2065(3) 0.6834(6)
C12 C 1.0086(4) 0.2500 0.7500
H11 H 1.0409 0.2500 0.7500
C13 C 0.9369(3) 0.2071(3) 0.6846(7)
H12 H 0.9207 0.1776 0.6398
C14 C 0.9128(4) 0.2500 0.7500
H13 H 0.8805 0.2500 0.7500
C15 C 0.9368(3) 0.0345(4) 0.8458(6)
C16 C 0.9537(2) 0.0583(4) 0.9706(6)
C17 C 0.9432(2) 0.0256(3) 1.0751(6)
H14 H 0.9249 -0.0096 1.0694
C18 C 0.9596(2) 0.0444(3) 1.1900(5)
C19 C 0.9505(3) 0.0058(3) 1.3016(6)
C20 C 0.9858(3) 0.0979(4) 1.1963(6)
H15 H 0.9961 0.1124 1.2716
C21 C 0.9967(3) 0.1303(4) 1.0886(7)
H16 H 1.0148 0.1658 1.0925
C22 C 0.9808(3) 0.1096(4) 0.9787(7)
H17 H 0.9886 0.1309 0.9078
C23 C 0.8792(3) -0.1349(5) 0.9069(11)
H18 H 0.8825 -0.0977 0.9481
C24 C 0.6870(3) 0.1067(4) 0.4934(8)
Co1 Co 0.95548(3) 0.03592(4) 0.57479(7)
Co2 Co 0.90923(3) -0.08987(4) 0.43605(8)
Co3 Co 0.86638(3) -0.04395(5) 0.71369(8)
N1 N 0.8759(3) -0.1833(4) 0.9761(8)
O1 O 0.92330(14) -0.0510(2) 0.5941(4)
O2 O 0.68041(18) 0.0874(3) 0.5963(6)
O3 O 0.65537(17) 0.1150(2) 0.4162(5)
O4 O 0.90593(19) -0.0065(2) 0.8490(4)
O5 O 0.95546(16) 0.0580(2) 0.7554(4)
O6 O 0.99244(16) 0.1179(2) 0.5493(4)
O7 O 1.05661(18) 0.1619(2) 0.6217(4)
O8 O 0.8787(2) -0.1311(3) 0.7931(5)
O9 O 0.97699(14) 0.01477(18) 1.3931(4)
O10 O 0.89706(16) 0.0748(2) 0.5061(4)
O11 O 0.84531(18) 0.0382(3) 0.6394(5)
O12 O 0.91744(17) -0.0304(2) 1.2991(4)
O13 O 0.8091(2) -0.0341(5) 0.8353(7)
H19 H 0.7823(17) -0.049(4) 0.825(10)
H20 H 0.810(3) -0.001(3) 0.795(10)
H21 H 0.942(3) -0.077(4) 0.621(9)
C10B C 1.0125(3) 0.3418(3) 0.8870(6)
C11B C 0.9855(2) 0.2935(3) 0.8166(6)
C13B C 0.9369(3) 0.2929(3) 0.8154(7)
H12B H 0.9207 0.3224 0.8602
O6B O 0.99244(16) 0.3821(2) 0.9507(4)
O7B O 1.05661(18) 0.3381(2) 0.8783(4)
C1A C 0.6065(10) 0.2461(16) 0.916(3)
H1A H 0.6089 0.2432 0.8281
H2A H 0.6252 0.2797 0.9442
H3A H 0.5746 0.2531 0.9378
C2A C 0.6173(11) 0.1958(12) 1.099(2)
H4A H 0.6034 0.2358 1.1079
H5A H 0.6467 0.1952 1.1405
H6A H 0.5973 0.1651 1.1339
C3A C 0.7549(10) -0.1713(13) 0.391(2)
H7A H 0.7770 -0.2024 0.3824
C4A C 0.7090(8) -0.1764(9) 0.335(2)
H8A H 0.7018 -0.1878 0.2553
C5A C 0.6738(12) -0.1580(15) 0.442(3)
H9A H 0.6503 -0.1835 0.4712
C6A C 0.6433(3) -0.0690(4) 0.5481(7)
C7A C 0.6821(3) -0.1014(3) 0.4836(7)
C8A C 0.7277(2) -0.0928(3) 0.5185(6)
H10A H 0.7339 -0.0682 0.5862
C9A C 0.7643(2) -0.1191(4) 0.4573(7)
C15A C 0.5632(3) -0.0345(4) 0.8458(6)
C16A C 0.5463(2) -0.0583(4) 0.9706(6)
C17A C 0.5568(2) -0.0256(3) 1.0751(6)
H14A H 0.5751 0.0096 1.0694
C18A C 0.5404(2) -0.0444(3) 1.1900(5)
C19A C 0.5495(3) -0.0058(3) 1.3016(6)
C20A C 0.5142(3) -0.0979(4) 1.1963(6)
H15A H 0.5039 -0.1124 1.2716
C21A C 0.5033(3) -0.1303(4) 1.0886(7)
H16A H 0.4852 -0.1658 1.0925
C22A C 0.5192(3) -0.1096(4) 0.9787(7)
H17A H 0.5114 -0.1309 0.9078
C23A C 0.6208(3) 0.1349(5) 0.9069(11)
H18A H 0.6175 0.0977 0.9481
C24A C 0.8130(3) -0.1067(4) 0.4934(8)
Co1A Co 0.54452(3) -0.03592(4) 0.57479(7)
Co2A Co 0.59077(3) 0.08987(4) 0.43605(8)
Co3A Co 0.63362(3) 0.04395(5) 0.71369(8)
N1A N 0.6241(3) 0.1833(4) 0.9761(8)
O1A O 0.57670(14) 0.0510(2) 0.5941(4)
O2A O 0.81959(18) -0.0874(3) 0.5963(6)
O3A O 0.84463(17) -0.1150(2) 0.4162(5)
O4A O 0.59407(19) 0.0065(2) 0.8490(4)
O5A O 0.54454(16) -0.0580(2) 0.7554(4)
O8A O 0.6213(2) 0.1311(3) 0.7931(5)
O9A O 0.52301(14) -0.01477(18) 1.3931(4)
O10A O 0.60294(16) -0.0748(2) 0.5061(4)
O11A O 0.65469(18) -0.0382(3) 0.6394(5)
O12A O 0.58256(17) 0.0304(2) 1.2991(4)
O13A O 0.6909(2) 0.0341(5) 0.8353(7)
H19A H 0.7177(17) 0.049(4) 0.825(10)
H20A H 0.690(3) 0.001(3) 0.795(10)
H21A H 0.558(3) 0.077(4) 0.621(9)
Co1_2 Co 0.95548(3) 0.03592(4) 1.57479(7)
Co1A_2 Co 0.54452(3) -0.03592(4) 1.57479(7)
Co1B Co 0.95548(3) 0.46408(4) 0.92521(7)
Co1D Co 1.04452(3) -0.03592(4) 1.42521(7)
Co1E Co 0.45548(3) 0.03592(4) 1.42521(7)
Co2_2 Co 0.90923(3) -0.08987(4) 1.43605(8)
Co2A_2 Co 0.59077(3) 0.08987(4) 1.43605(8)
Co2D Co 1.09077(3) 0.08987(4) 0.56395(8)
Co2F Co 1.09077(3) 0.41013(4) 0.93605(8)
O6A O 0.50756(16) -0.1179(2) 0.5493(4)
O7D O 0.94339(18) -0.1619(2) 0.3783(4)
O7E O 0.55661(18) 0.1619(2) 0.3783(4)
O9_2 O 0.97699(14) 0.01477(18) 0.3931(4)
O9A_2 O 0.52301(14) -0.01477(18) 0.3931(4)
O9D O 1.02301(14) -0.01477(18) 0.6069(4)
O9E O 0.47699(14) 0.01477(18) 0.6069(4)
O12_2 O 0.91744(17) -0.0304(2) 0.2991(4)
O12A_2 O 0.58256(17) 0.0304(2) 0.2991(4)
loop_
_geom_bond_atom_site_label_1
_geom_bond_atom_site_label_2
_geom_bond_site_symmetry_1
_geom_bond_site_symmetry_2
C1 H1 1_555 1_555
H2 C1 1_555 1_555
H3 C1 1_555 1_555
C2 H4 1_555 1_555
H5 C2 1_555 1_555
H6 C2 1_555 1_555
C3 H7 1_555 1_555
C4 C3 1_555 1_555
H8 C4 1_555 1_555
C5 C4 1_555 1_555
H9 C5 1_555 1_555
C6 C7 1_555 1_555
C7 C5 1_555 1_555
C8 C7 1_555 1_555
H10 C8 1_555 1_555
C9 C3 1_555 1_555
C10 C11 1_555 1_555
C11 C12 1_555 1_555
C12 H11 1_555 1_555
C13 C11 1_555 1_555
H12 C13 1_555 1_555
C14 C13 1_555 1_555
H13 C14 1_555 1_555
C15 C16 1_555 1_555
C16 C17 1_555 1_555
C17 H14 1_555 1_555
C18 C17 1_555 1_555
C19 C18 1_555 1_555
C20 C18 1_555 1_555
H15 C20 1_555 1_555
C21 C20 1_555 1_555
H16 C21 1_555 1_555
C22 C16 1_555 1_555
H17 C22 1_555 1_555
C23 H18 1_555 1_555
C24 C9 1_555 1_555
Co1 O1 1_555 1_555
Co2 O1 1_555 1_555
Co3 O1 1_555 1_555
N1 C1 1_555 1_555
O1 H21 1_555 1_555
O2 C24 1_555 1_555
O3 C24 1_555 1_555
O4 C15 1_555 1_555
O5 C15 1_555 1_555
O6 C10 1_555 1_555
O7 C10 1_555 1_555
O8 C23 1_555 1_555
O9 C19 1_555 1_555
O10 C6 1_555 1_555
O11 C6 1_555 1_555
O12 C19 1_555 1_555
O13 Co3 1_555 1_555
H19 O13 1_555 1_555
H20 O13 1_555 1_555
C10B C11B 1_555 1_555
C11B C12 1_555 1_555
C13B C14 1_555 1_555
H12B C13B 1_555 1_555
O6B C10B 1_555 1_555
O7B C10B 1_555 1_555
C1A H1A 1_555 1_555
H2A C1A 1_555 1_555
H3A C1A 1_555 1_555
C2A H4A 1_555 1_555
H5A C2A 1_555 1_555
H6A C2A 1_555 1_555
C3A H7A 1_555 1_555
C4A C3A 1_555 1_555
H8A C4A 1_555 1_555
C5A C4A 1_555 1_555
H9A C5A 1_555 1_555
C6A C7A 1_555 1_555
C7A C5A 1_555 1_555
C8A C7A 1_555 1_555
H10A C8A 1_555 1_555
C9A C3A 1_555 1_555
C15A C16A 1_555 1_555
C16A C17A 1_555 1_555
C17A H14A 1_555 1_555
C18A C17A 1_555 1_555
C19A C18A 1_555 1_555
C20A C18A 1_555 1_555
H15A C20A 1_555 1_555
C21A C20A 1_555 1_555
H16A C21A 1_555 1_555
C22A C16A 1_555 1_555
H17A C22A 1_555 1_555
C23A H18A 1_555 1_555
C24A C9A 1_555 1_555
Co1A O1A 1_555 1_555
Co2A O3 1_555 1_555
Co3A O2 1_555 1_555
N1A C1A 1_555 1_555
O1A Co2A 1_555 1_555
O2A Co3 1_555 1_555
O3A Co2 1_555 1_555
O4A C15A 1_555 1_555
O5A C15A 1_555 1_555
O8A C23A 1_555 1_555
O9A C19A 1_555 1_555
O10A C6A 1_555 1_555
O11A C6A 1_555 1_555
O12A C19A 1_555 1_555
O13A Co3A 1_555 1_555
H19A O13A 1_555 1_555
H20A O13A 1_555 1_555
H21A O1A 1_555 1_555
Co1_2 O9 1_555 1_555
Co1A_2 O9A 1_555 1_555
Co1B O6B 1_555 1_555
Co1D O9 1_555 1_555
Co1E O9A 1_555 1_555
Co2_2 O12 1_555 1_555
Co2A_2 O12A 1_555 1_555
Co2D O7 1_555 1_555
Co2F O7B 1_555 1_555
O6A Co1A 1_555 1_555
O7D Co2 1_555 1_555
O7E Co2A 1_555 1_555
O9_2 Co1 1_555 1_555
O9A_2 Co1A 1_555 1_555
O9D Co1 1_555 1_555
O9E Co1A 1_555 1_555
O12_2 Co2 1_555 1_555
O12A_2 Co2A 1_555 1_555
C2 N1 1_555 1_555
C8 C9 1_555 1_555
C21 C22 1_555 1_555
C23 N1 1_555 1_555
Co1 O5 1_555 1_555
Co1 O6 1_555 1_555
Co1 O10 1_555 1_555
Co3 O4 1_555 1_555
Co3 O8 1_555 1_555
Co3 O11 1_555 1_555
C11B C13B 1_555 1_555
C2A N1A 1_555 1_555
C8A C9A 1_555 1_555
C21A C22A 1_555 1_555
C23A N1A 1_555 1_555
C24A O2A 1_555 1_555
C24A O3A 1_555 1_555
Co1A O5A 1_555 1_555
Co1A O10A 1_555 1_555
Co3A O1A 1_555 1_555
Co3A O4A 1_555 1_555
Co3A O8A 1_555 1_555
Co3A O11A 1_555 1_555

#END
