
#######################################################################
#
#                 Cambridge Crystallographic Data Centre
#                                CCDC 
#
#######################################################################
#
# If this CIF has been generated from an entry in the Cambridge 
# Structural Database, then it will include bibliographic, chemical, 
# crystal, experimental, refinement or atomic coordinate data resulting 
# from the CCDC's data processing and validation procedures.
#
#######################################################################

data_IVEMIH01
_chemical_formula_moiety         '(C36 H24 Mn3 N6 O12)n'
_symmetry_cell_setting           monoclinic
_symmetry_space_group_name_H-M   'P 21/n'
_symmetry_Int_Tables_number      14
_space_group_name_Hall           '-P 2yn'
loop_
_symmetry_equiv_pos_site_id
_symmetry_equiv_pos_as_xyz
1 x,y,z
2 1/2-x,1/2+y,1/2-z
3 -x,-y,-z
4 1/2+x,1/2-y,1/2+z
_cell_length_a                   9.9242(6)
_cell_length_b                   41.265(2)
_cell_length_c                   9.8226(6)
_cell_angle_alpha                90
_cell_angle_beta                 102.176(3)
_cell_angle_gamma                90
_cell_volume                     3932.08
loop_
_atom_site_label
_atom_site_type_symbol
_atom_site_fract_x
_atom_site_fract_y
_atom_site_fract_z
Mn1 Mn -0.25722(8) -0.16618(2) 0.00609(9)
Mn2 Mn 0.24353(8) -0.16711(2) 0.00370(8)
Mn3 Mn 0.24655(8) 0.00051(2) 0.49681(9)
O1 O -0.3849(4) -0.17511(9) 0.1574(4)
O2 O -0.5955(4) -0.19655(9) 0.1223(4)
O3 O -0.4201(4) -0.13869(9) -0.1270(4)
O4 O -0.6400(4) -0.15470(9) -0.1505(4)
O5 O -0.0948(4) -0.19417(9) 0.1383(4)
O6 O 0.1238(4) -0.17876(9) 0.1558(4)
O7 O -0.1291(4) -0.15821(9) -0.1460(4)
O8 O 0.0818(4) -0.13751(9) -0.1184(4)
O9 O -0.1264(4) -0.00939(10) 0.3487(4)
O10 O 0.0892(4) -0.02681(9) 0.3617(4)
O11 O 0.3730(4) -0.01100(9) 0.3474(4)
O12 O 0.5876(4) -0.03053(9) 0.3846(4)
N1 N -0.3263(5) -0.28577(11) 0.3824(5)
C1 C -0.2999(6) -0.25667(13) 0.4418(6)
H1 H -0.2525 -0.2558 0.5341
C2 C -0.3384(6) -0.22804(14) 0.3747(6)
H2 H -0.3147 -0.2084 0.4202
C3 C -0.4126(5) -0.22836(13) 0.2393(6)
C4 C -0.4414(6) -0.25833(13) 0.1781(6)
H3 H -0.4923 -0.2599 0.0872
C5 C -0.3948(6) -0.28594(14) 0.2515(6)
H4 H -0.4124 -0.3058 0.2065
C6 C -0.4678(5) -0.19709(13) 0.1664(5)
N2 N -0.6813(5) -0.04670(11) -0.3874(5)
C7 C -0.5503(6) -0.05213(14) -0.3283(6)
H5 H -0.4867 -0.0359 -0.3341
C8 C -0.5019(6) -0.08025(13) -0.2588(6)
H6 H -0.4088 -0.0828 -0.2191
C9 C -0.5948(5) -0.10446(12) -0.2496(6)
C10 C -0.7305(6) -0.09958(13) -0.3118(6)
H7 H -0.7959 -0.1156 -0.3093
C11 C -0.7680(6) -0.07055(14) -0.3780(6)
H8 H -0.8606 -0.0675 -0.4189
C12 C -0.5468(6) -0.13537(12) -0.1688(6)
N3 N 0.1710(4) -0.28638(10) 0.3939(5)
C13 C 0.0376(5) -0.28152(13) 0.3322(6)
H9 H -0.0249 -0.2981 0.3365
C14 C -0.0120(5) -0.25326(12) 0.2626(6)
H10 H -0.1050 -0.2510 0.2218
C15 C 0.0796(5) -0.22862(12) 0.2555(5)
C16 C 0.2169(5) -0.23330(14) 0.3190(6)
H11 H 0.2810 -0.2170 0.3160
C17 C 0.2585(6) -0.26201(14) 0.3864(6)
H12 H 0.3510 -0.2646 0.4285
C18 C 0.0311(5) -0.19793(13) 0.1759(6)
N4 N -0.1807(5) -0.04811(11) -0.3786(5)
C19 C -0.2059(6) -0.07698(13) -0.4374(6)
H13 H -0.2509 -0.0779 -0.5305
C20 C -0.1687(6) -0.10606(14) -0.3675(6)
H14 H -0.1925 -0.1257 -0.4125
C21 C -0.0966(5) -0.10553(13) -0.2313(6)
C22 C -0.0692(6) -0.07537(14) -0.1717(6)
H15 H -0.0205 -0.0737 -0.0800
C23 C -0.1125(6) -0.04777(15) -0.2454(7)
H16 H -0.0937 -0.0279 -0.2011
C24 C -0.0455(5) -0.13634(12) -0.1576(5)
N5 N -0.1838(4) -0.11837(11) 0.1150(5)
C25 C -0.0538(6) -0.11386(14) 0.1764(6)
H17 H 0.0073 -0.1309 0.1742
C26 C -0.0014(6) -0.08587(13) 0.2436(6)
H18 H 0.0916 -0.0842 0.2852
C27 C -0.0908(5) -0.06007(13) 0.2480(6)
C28 C -0.2264(6) -0.06426(13) 0.1853(6)
H19 H -0.2900 -0.0478 0.1869
C29 C -0.2680(6) -0.09345(14) 0.1194(6)
H20 H -0.3602 -0.0957 0.0756
C30 C -0.0382(5) -0.02943(13) 0.3276(5)
N6 N 0.3160(5) -0.12063(10) 0.1256(5)
C31 C 0.2900(6) -0.09168(13) 0.0650(6)
H21 H 0.2413 -0.0908 -0.0268
C32 C 0.3327(6) -0.06283(14) 0.1332(6)
H22 H 0.3099 -0.0432 0.0880
C33 C 0.4090(5) -0.06335(13) 0.2679(6)
C34 C 0.4373(6) -0.09324(14) 0.3272(6)
H23 H 0.4902 -0.0949 0.4171
C35 C 0.3885(6) -0.12100(14) 0.2552(6)
H24 H 0.4073 -0.1409 0.2998
C36 C 0.4614(5) -0.03258(13) 0.3409(5)
Mn1C Mn 0.24278(8) -0.33382(2) 0.50609(9)
Mn2_2 Mn -0.75647(8) -0.16711(2) 0.00370(8)
Mn2C Mn -0.25647(8) -0.33289(2) 0.50370(8)
Mn3_2 Mn -0.75345(8) 0.00051(2) -0.50319(9)
Mn3B Mn -0.24655(8) -0.00051(2) -0.49681(9)
Mn3B_2 Mn -0.24655(8) -0.00051(2) 0.50319(9)
Mn3B_3 Mn 0.75345(8) -0.00051(2) 0.50319(9)
O2_2 O 0.4045(4) -0.19655(9) 0.1223(4)
O4_2 O 0.3600(4) -0.15470(9) -0.1505(4)
O9B O 0.1264(4) 0.00939(10) 0.6513(4)
O12B O 0.4124(4) 0.03053(9) 0.6154(4)
N1C N 0.1737(5) -0.21423(11) -0.1176(5)
N2_2 N 0.3187(5) -0.04670(11) 0.6126(5)
N3C N -0.3290(4) -0.21362(10) -0.1061(5)
N4B N 0.1807(5) 0.04811(11) 0.3786(5)
loop_
_geom_bond_atom_site_label_1
_geom_bond_atom_site_label_2
_geom_bond_site_symmetry_1
_geom_bond_site_symmetry_2
Mn1 O1 1_555 1_555
Mn2 O6 1_555 1_555
Mn3 O10 1_555 1_555
O1 C6 1_555 1_555
O2 C6 1_555 1_555
O3 Mn1 1_555 1_555
O4 C12 1_555 1_555
O5 Mn1 1_555 1_555
O6 C18 1_555 1_555
O7 Mn1 1_555 1_555
O8 Mn2 1_555 1_555
O9 C30 1_555 1_555
O10 C30 1_555 1_555
O11 Mn3 1_555 1_555
O12 C36 1_555 1_555
N1 C1 1_555 1_555
C1 H1 1_555 1_555
C2 C1 1_555 1_555
H2 C2 1_555 1_555
C3 C2 1_555 1_555
C4 C3 1_555 1_555
H3 C4 1_555 1_555
C5 N1 1_555 1_555
H4 C5 1_555 1_555
C6 C3 1_555 1_555
N2 C7 1_555 1_555
C7 H5 1_555 1_555
C8 C7 1_555 1_555
H6 C8 1_555 1_555
C9 C8 1_555 1_555
C10 C9 1_555 1_555
H7 C10 1_555 1_555
C11 N2 1_555 1_555
H8 C11 1_555 1_555
C12 O3 1_555 1_555
N3 C13 1_555 1_555
C13 H9 1_555 1_555
C14 C13 1_555 1_555
H10 C14 1_555 1_555
C15 C14 1_555 1_555
C16 C15 1_555 1_555
H11 C16 1_555 1_555
C17 N3 1_555 1_555
H12 C17 1_555 1_555
C18 O5 1_555 1_555
N4 C19 1_555 1_555
C19 H13 1_555 1_555
C20 C19 1_555 1_555
H14 C20 1_555 1_555
C21 C20 1_555 1_555
C22 C21 1_555 1_555
H15 C22 1_555 1_555
C23 N4 1_555 1_555
H16 C23 1_555 1_555
C24 O7 1_555 1_555
N5 Mn1 1_555 1_555
C25 N5 1_555 1_555
H17 C25 1_555 1_555
C26 C25 1_555 1_555
H18 C26 1_555 1_555
C27 C26 1_555 1_555
C28 C27 1_555 1_555
H19 C28 1_555 1_555
C29 N5 1_555 1_555
H20 C29 1_555 1_555
C30 C27 1_555 1_555
N6 Mn2 1_555 1_555
C31 N6 1_555 1_555
H21 C31 1_555 1_555
C32 C31 1_555 1_555
H22 C32 1_555 1_555
C33 C32 1_555 1_555
C34 C33 1_555 1_555
H23 C34 1_555 1_555
C35 N6 1_555 1_555
H24 C35 1_555 1_555
C36 O11 1_555 1_555
Mn1C N3 1_555 1_555
Mn2_2 O2 1_555 1_555
Mn2C N1 1_555 1_555
Mn3_2 N2 1_555 1_555
Mn3B N4 1_555 1_555
Mn3B_2 O9 1_555 1_555
Mn3B_3 O12 1_555 1_555
O2_2 Mn2 1_555 1_555
O4_2 Mn2 1_555 1_555
O9B Mn3 1_555 1_555
O12B Mn3 1_555 1_555
N1C Mn2 1_555 1_555
N2_2 Mn3 1_555 1_555
N3C Mn1 1_555 1_555
N4B Mn3 1_555 1_555
O4 Mn2_2 1_555 1_555
O8 C24 1_555 1_555
C4 C5 1_555 1_555
C9 C12 1_555 1_555
C10 C11 1_555 1_555
C15 C18 1_555 1_555
C16 C17 1_555 1_555
C21 C24 1_555 1_555
C22 C23 1_555 1_555
C28 C29 1_555 1_555
C33 C36 1_555 1_555
C34 C35 1_555 1_555

#END
