
#######################################################################
#
#                 Cambridge Crystallographic Data Centre
#                                CCDC 
#
#######################################################################
#
# If this CIF has been generated from an entry in the Cambridge 
# Structural Database, then it will include bibliographic, chemical, 
# crystal, experimental, refinement or atomic coordinate data resulting 
# from the CCDC's data processing and validation procedures.
#
#######################################################################

data_IVEMIH
_chemical_formula_moiety         '(C36 H24 Mn3 N6 O12)n'
_symmetry_cell_setting           monoclinic
_symmetry_space_group_name_H-M   'P 21/n'
_symmetry_Int_Tables_number      14
_space_group_name_Hall           '-P 2yn'
loop_
_symmetry_equiv_pos_site_id
_symmetry_equiv_pos_as_xyz
1 x,y,z
2 1/2-x,1/2+y,1/2-z
3 -x,-y,-z
4 1/2+x,1/2-y,1/2+z
_cell_length_a                   9.8954(2)
_cell_length_b                   41.4857(6)
_cell_length_c                   9.5207(2)
_cell_angle_alpha                90
_cell_angle_beta                 101.1742(7)
_cell_angle_gamma                90
_cell_volume                     3834.32
loop_
_atom_site_label
_atom_site_type_symbol
_atom_site_fract_x
_atom_site_fract_y
_atom_site_fract_z
Mn1 Mn -0.25981(7) -0.16603(2) 0.00900(7)
Mn2 Mn 0.24118(7) -0.16724(2) 0.00599(7)
Mn3 Mn 0.24673(7) 0.00060(2) 0.49683(8)
O1 O -0.3879(3) -0.17425(7) 0.1665(3)
O2 O -0.5982(3) -0.19648(7) 0.1280(3)
O3 O -0.4220(3) -0.13888(7) -0.1273(3)
O4 O -0.6415(3) -0.15516(7) -0.1540(3)
O5 O -0.0993(3) -0.19385(7) 0.1455(3)
O6 O 0.1208(3) -0.17795(7) 0.1652(3)
O7 O -0.1312(3) -0.15896(7) -0.1499(3)
O8 O 0.0809(3) -0.13795(7) -0.1178(3)
O9 O -0.1241(3) -0.00812(7) 0.3442(3)
O10 O 0.0913(3) -0.02637(7) 0.3567(3)
O11 O 0.3746(3) -0.01037(7) 0.3419(3)
O12 O 0.5892(3) -0.03038(7) 0.3822(3)
N1 N -0.3273(4) -0.28559(9) 0.3872(4)
C1 C -0.2989(4) -0.25684(11) 0.4504(5)
H1 H -0.2507 -0.2564 0.5445
C2 C -0.3374(4) -0.22788(11) 0.3836(5)
H2 H -0.3113 -0.2085 0.4303
C3 C -0.4156(4) -0.22798(11) 0.2458(5)
C4 C -0.4468(5) -0.25785(11) 0.1793(5)
H3 H -0.4986 -0.2591 0.0869
C5 C -0.3995(4) -0.28540(11) 0.2533(5)
H4 H -0.4190 -0.3051 0.2072
C6 C -0.4707(4) -0.19690(10) 0.1729(4)
N2 N -0.6824(4) -0.04661(8) -0.3889(4)
C7 C -0.5493(4) -0.05180(11) -0.3272(5)
H5 H -0.4858 -0.0354 -0.3309
C8 C -0.5027(5) -0.08029(11) -0.2586(5)
H6 H -0.4100 -0.0828 -0.2179
C9 C -0.5948(4) -0.10480(10) -0.2514(5)
C10 C -0.7321(4) -0.09999(11) -0.3158(5)
H7 H -0.7967 -0.1162 -0.3145
C11 C -0.7714(5) -0.07071(11) -0.3820(5)
H8 H -0.8637 -0.0677 -0.4235
C12 C -0.5483(4) -0.13571(10) -0.1709(5)
N3 N 0.1680(4) -0.28635(8) 0.3976(4)
C13 C 0.0353(4) -0.28224(11) 0.3347(5)
H9 H -0.0257 -0.2992 0.3362
C14 C -0.0144(4) -0.25373(10) 0.2676(5)
H10 H -0.1072 -0.2517 0.2260
C15 C 0.0762(4) -0.22837(10) 0.2634(5)
C16 C 0.2138(4) -0.23248(11) 0.3288(5)
H11 H 0.2772 -0.2159 0.3287
C17 C 0.2542(4) -0.26157(10) 0.3938(5)
H12 H 0.3462 -0.2641 0.4372
C18 C 0.0275(4) -0.19747(10) 0.1836(5)
N4 N -0.1810(4) -0.04840(8) -0.3795(4)
C19 C -0.2111(5) -0.07724(11) -0.4417(5)
H13 H -0.2590 -0.0778 -0.5359
C20 C -0.1738(5) -0.10618(11) -0.3719(5)
H14 H -0.1991 -0.1256 -0.4182
C21 C -0.0993(4) -0.10609(10) -0.2336(5)
C22 C -0.0687(5) -0.07623(11) -0.1692(5)
H15 H -0.0187 -0.0750 -0.0760
C23 C -0.1127(5) -0.04820(11) -0.2440(5)
H16 H -0.0939 -0.0285 -0.1979
C24 C -0.0473(4) -0.13724(10) -0.1599(5)
N5 N -0.1870(3) -0.11801(9) 0.1156(4)
C25 C -0.0541(5) -0.11414(11) 0.1801(5)
H17 H 0.0058 -0.1315 0.1812
C26 C -0.0027(5) -0.08578(10) 0.2443(5)
H18 H 0.0899 -0.0841 0.2867
C27 C -0.0906(4) -0.05961(10) 0.2452(5)
C28 C -0.2272(4) -0.06307(10) 0.1774(5)
H19 H -0.2886 -0.0460 0.1742
C29 C -0.2706(5) -0.09253(11) 0.1142(5)
H20 H -0.3622 -0.0946 0.0688
C30 C -0.0367(4) -0.02863(10) 0.3220(5)
N6 N 0.3142(4) -0.12069(8) 0.1268(4)
C31 C 0.2848(4) -0.09187(11) 0.0635(5)
H21 H 0.2330 -0.0914 -0.0291
C32 C 0.3279(4) -0.06300(11) 0.1292(5)
H22 H 0.3024 -0.0436 0.0830
C33 C 0.4096(4) -0.06334(11) 0.2649(5)
C34 C 0.4396(5) -0.09289(11) 0.3308(5)
H23 H 0.4927 -0.0940 0.4227
C35 C 0.3902(5) -0.12075(11) 0.2591(5)
H24 H 0.4108 -0.1404 0.3051
C36 C 0.4624(4) -0.03218(10) 0.3371(5)
Mn1C Mn 0.24019(7) -0.33397(2) 0.50900(7)
Mn2_2 Mn -0.75882(7) -0.16724(2) 0.00599(7)
Mn2C Mn -0.25882(7) -0.33276(2) 0.50599(7)
Mn3_2 Mn -0.75327(7) 0.00060(2) -0.50317(8)
Mn3B Mn -0.24673(7) -0.00060(2) -0.49683(8)
Mn3B_2 Mn -0.24673(7) -0.00060(2) 0.50317(8)
Mn3B_3 Mn 0.75327(7) -0.00060(2) 0.50317(8)
O2_2 O 0.4018(3) -0.19648(7) 0.1280(3)
O4_2 O 0.3585(3) -0.15516(7) -0.1540(3)
O9B O 0.1241(3) 0.00812(7) 0.6558(3)
O12B O 0.4108(3) 0.03038(7) 0.6178(3)
N1C N 0.1727(4) -0.21441(9) -0.1128(4)
N2_2 N 0.3176(4) -0.04661(8) 0.6111(4)
N3C N -0.3320(4) -0.21365(8) -0.1024(4)
N4B N 0.1810(4) 0.04840(8) 0.3795(4)
loop_
_geom_bond_atom_site_label_1
_geom_bond_atom_site_label_2
_geom_bond_site_symmetry_1
_geom_bond_site_symmetry_2
Mn1 O1 1_555 1_555
Mn2 O6 1_555 1_555
Mn3 O10 1_555 1_555
O1 C6 1_555 1_555
O2 C6 1_555 1_555
O3 Mn1 1_555 1_555
O4 C12 1_555 1_555
O5 Mn1 1_555 1_555
O6 C18 1_555 1_555
O7 Mn1 1_555 1_555
O8 Mn2 1_555 1_555
O9 C30 1_555 1_555
O10 C30 1_555 1_555
O11 Mn3 1_555 1_555
O12 C36 1_555 1_555
N1 C1 1_555 1_555
C1 H1 1_555 1_555
C2 C1 1_555 1_555
H2 C2 1_555 1_555
C3 C2 1_555 1_555
C4 C3 1_555 1_555
H3 C4 1_555 1_555
C5 N1 1_555 1_555
H4 C5 1_555 1_555
C6 C3 1_555 1_555
N2 C7 1_555 1_555
C7 H5 1_555 1_555
C8 C7 1_555 1_555
H6 C8 1_555 1_555
C9 C8 1_555 1_555
C10 C9 1_555 1_555
H7 C10 1_555 1_555
C11 N2 1_555 1_555
H8 C11 1_555 1_555
C12 O3 1_555 1_555
N3 C13 1_555 1_555
C13 H9 1_555 1_555
C14 C13 1_555 1_555
H10 C14 1_555 1_555
C15 C14 1_555 1_555
C16 C15 1_555 1_555
H11 C16 1_555 1_555
C17 N3 1_555 1_555
H12 C17 1_555 1_555
C18 O5 1_555 1_555
N4 C19 1_555 1_555
C19 H13 1_555 1_555
C20 C19 1_555 1_555
H14 C20 1_555 1_555
C21 C20 1_555 1_555
C22 C21 1_555 1_555
H15 C22 1_555 1_555
C23 N4 1_555 1_555
H16 C23 1_555 1_555
C24 O7 1_555 1_555
N5 Mn1 1_555 1_555
C25 N5 1_555 1_555
H17 C25 1_555 1_555
C26 C25 1_555 1_555
H18 C26 1_555 1_555
C27 C26 1_555 1_555
C28 C27 1_555 1_555
H19 C28 1_555 1_555
C29 N5 1_555 1_555
H20 C29 1_555 1_555
C30 C27 1_555 1_555
N6 Mn2 1_555 1_555
C31 N6 1_555 1_555
H21 C31 1_555 1_555
C32 C31 1_555 1_555
H22 C32 1_555 1_555
C33 C32 1_555 1_555
C34 C33 1_555 1_555
H23 C34 1_555 1_555
C35 N6 1_555 1_555
H24 C35 1_555 1_555
C36 O11 1_555 1_555
Mn1C N3 1_555 1_555
Mn2_2 O2 1_555 1_555
Mn2C N1 1_555 1_555
Mn3_2 N2 1_555 1_555
Mn3B N4 1_555 1_555
Mn3B_2 O9 1_555 1_555
Mn3B_3 O12 1_555 1_555
O2_2 Mn2 1_555 1_555
O4_2 Mn2 1_555 1_555
O9B Mn3 1_555 1_555
O12B Mn3 1_555 1_555
N1C Mn2 1_555 1_555
N2_2 Mn3 1_555 1_555
N3C Mn1 1_555 1_555
N4B Mn3 1_555 1_555
O4 Mn2_2 1_555 1_555
O8 C24 1_555 1_555
C4 C5 1_555 1_555
C9 C12 1_555 1_555
C10 C11 1_555 1_555
C15 C18 1_555 1_555
C16 C17 1_555 1_555
C21 C24 1_555 1_555
C22 C23 1_555 1_555
C28 C29 1_555 1_555
C33 C36 1_555 1_555
C34 C35 1_555 1_555

#END
