
#######################################################################
#
#                 Cambridge Crystallographic Data Centre
#                                CCDC 
#
#######################################################################
#
# If this CIF has been generated from an entry in the Cambridge 
# Structural Database, then it will include bibliographic, chemical, 
# crystal, experimental, refinement or atomic coordinate data resulting 
# from the CCDC's data processing and validation procedures.
#
#######################################################################

data_IDIWOH03
_chemical_formula_moiety         '(C32 H16 O20 V4)n'
_symmetry_cell_setting           triclinic
_symmetry_space_group_name_H-M   'P 1'
_symmetry_Int_Tables_number      1
_space_group_name_Hall           'P 1'
loop_
_symmetry_equiv_pos_site_id
_symmetry_equiv_pos_as_xyz
1 x,y,z
_cell_length_a                   16.31061
_cell_length_b                   13.91427
_cell_length_c                   6.85121
_cell_angle_alpha                89.98019
_cell_angle_beta                 90.07617
_cell_angle_gamma                89.99968
_cell_volume                     1554.88
loop_
_atom_site_label
_atom_site_type_symbol
_atom_site_fract_x
_atom_site_fract_y
_atom_site_fract_z
_atom_site_U_iso_or_equiv
_atom_site_thermal_displace_type
V1 V 0.748928 0.738876 0.218421 0.0127 Uiso
V2 V 0.748928 0.761084 0.718414 0.0127 Uiso
V3 V 0.248911 0.260843 0.218636 0.0127 Uiso
V4 V 0.248912 0.239135 0.718714 0.0127 Uiso
O1 O 0.661912 0.656177 0.332160 0.0127 Uiso
O2 O 1.162706 1.156658 -0.167484 0.0127 Uiso
O3 O 0.838069 0.665300 0.665970 0.0127 Uiso
O4 O 0.336700 0.164935 0.165587 0.0127 Uiso
O5 O 1.162896 0.336879 0.663853 0.0127 Uiso
O6 O 0.662196 -0.162681 0.163611 0.0127 Uiso
O7 O 0.333449 0.344985 0.334734 0.0127 Uiso
O8 O 0.833422 0.846383 -0.164950 0.0127 Uiso
O9 O 0.336669 0.334999 0.665596 0.0127 Uiso
O10 O 0.838063 0.834642 0.165846 0.0127 Uiso
O11 O 1.162666 0.343314 0.332513 0.0127 Uiso
O12 O 0.661906 -0.156203 -0.167977 0.0127 Uiso
O13 O 0.833404 0.653578 0.335193 0.0127 Uiso
O14 O 0.333405 0.154981 -0.165261 0.0127 Uiso
O15 O 0.662179 0.662637 0.663738 0.0127 Uiso
O16 O 1.162853 1.163067 0.163849 0.0127 Uiso
O17 O 0.748872 0.695812 0.993067 0.0127 Uiso
O18 O 0.248817 0.195446 0.494234 0.0127 Uiso
O19 O 0.248820 0.304568 0.994102 0.0127 Uiso
O20 O 0.748875 0.804147 0.493003 0.0127 Uiso
C1 C 0.528686 0.534954 0.326454 0.0127 Uiso
C2 C 1.029195 1.035458 -0.173473 0.0127 Uiso
C3 C 0.969485 0.535551 0.681435 0.0127 Uiso
C4 C 0.468325 0.035129 0.181245 0.0127 Uiso
C5 C 1.035015 0.471554 0.680961 0.0127 Uiso
C6 C 0.533864 -0.028855 0.180704 0.0127 Uiso
C7 C 0.463036 0.471514 0.326956 0.0127 Uiso
C8 C 0.963520 0.972044 -0.172922 0.0127 Uiso
C9 C 0.468247 0.464847 0.681363 0.0127 Uiso
C10 C 0.969408 0.964428 0.181301 0.0127 Uiso
C11 C 1.029102 0.464454 0.326651 0.0127 Uiso
C12 C 0.528613 -0.035017 -0.173682 0.0127 Uiso
C13 C 0.963427 0.527866 0.327245 0.0127 Uiso
C14 C 0.462959 0.028420 -0.173138 0.0127 Uiso
C15 C 0.533786 0.528834 0.680861 0.0127 Uiso
C16 C 1.034934 1.028425 0.180868 0.0127 Uiso
C17 C 0.564432 0.564082 0.503334 0.0127 Uiso
C18 C 0.634605 0.632475 0.499965 0.0127 Uiso
C19 C 1.065259 1.064153 0.003377 0.0127 Uiso
C20 C 1.135231 1.132632 0.000119 0.0127 Uiso
C21 C 0.933289 0.563951 0.504551 0.0127 Uiso
C22 C 0.863197 0.632473 0.502238 0.0127 Uiso
C23 C 0.432480 0.064048 0.004263 0.0127 Uiso
C24 C 0.362602 0.132674 0.001873 0.0127 Uiso
C25 C 1.065255 0.435796 0.503465 0.0127 Uiso
C26 C 1.135233 0.367325 0.500087 0.0127 Uiso
C27 C 0.564436 -0.064123 0.003166 0.0127 Uiso
C28 C 0.634609 -0.132511 -0.000190 0.0127 Uiso
C29 C 0.432482 0.435905 0.504350 0.0127 Uiso
C30 C 0.362605 0.367277 0.501842 0.0127 Uiso
C31 C 0.933296 0.935994 0.004381 0.0127 Uiso
C32 C 0.863203 0.867477 0.002082 0.0127 Uiso
H1 H 0.553284 0.563150 0.190301 0.0127 Uiso
H2 H 1.053483 1.064022 -0.309629 0.0127 Uiso
H3 H 0.945341 0.564452 0.817478 0.0127 Uiso
H4 H 0.443960 0.063651 0.317395 0.0127 Uiso
H5 H 1.063925 0.448617 0.816636 0.0127 Uiso
H6 H 0.562571 -0.052162 0.316364 0.0127 Uiso
H7 H 0.434359 0.448461 0.191198 0.0127 Uiso
H8 H 0.934517 0.949391 -0.308570 0.0127 Uiso
H9 H 0.443824 0.436343 0.817509 0.0127 Uiso
H10 H 0.945194 0.935554 0.317340 0.0127 Uiso
H11 H 1.053326 0.435864 0.190492 0.0127 Uiso
H12 H 0.553151 -0.063229 -0.309843 0.0127 Uiso
H13 H 0.934357 0.550491 0.191627 0.0127 Uiso
H14 H 0.434223 0.051454 -0.308873 0.0127 Uiso
H15 H 0.562431 0.552160 0.816549 0.0127 Uiso
H16 H 1.063776 1.051393 0.316570 0.0127 Uiso
V1_2 V 0.748928 -0.261124 0.218421 0.0127 Uiso
V1_3 V 0.748928 0.738876 1.218421 0.0127 Uiso
V2_2 V 0.748928 -0.238916 -0.281586 0.0127 Uiso
V2_3 V 0.748928 0.761084 -0.281586 0.0127 Uiso
V3_2 V 0.248911 0.260843 1.218636 0.0127 Uiso
V3_3 V 1.248911 0.260843 0.218636 0.0127 Uiso
V3_4 V 1.248911 1.260843 0.218636 0.0127 Uiso
V4_2 V 0.248912 0.239135 -0.281286 0.0127 Uiso
V4_3 V 1.248912 0.239135 0.718714 0.0127 Uiso
V4_4 V 1.248912 1.239135 -0.281286 0.0127 Uiso
O2_2 O 0.162706 0.156658 0.832516 0.0127 Uiso
O5_2 O 0.162896 0.336879 0.663853 0.0127 Uiso
O6_2 O 0.662196 0.837319 0.163611 0.0127 Uiso
O8_2 O 0.833422 0.846383 0.835050 0.0127 Uiso
O11_2 O 0.162666 0.343314 0.332513 0.0127 Uiso
O12_2 O 0.661906 0.843797 0.832023 0.0127 Uiso
O14_2 O 0.333405 0.154981 0.834739 0.0127 Uiso
O16_2 O 0.162853 0.163067 0.163849 0.0127 Uiso
O17_2 O 0.748872 0.695812 -0.006933 0.0127 Uiso
O19_2 O 0.248820 0.304568 -0.005898 0.0127 Uiso
loop_
_geom_bond_atom_site_label_1
_geom_bond_atom_site_label_2
_geom_bond_site_symmetry_1
_geom_bond_site_symmetry_2
V1 O1 1_555 1_555
V2 O3 1_555 1_555
V3 O4 1_555 1_555
V4 O9 1_555 1_555
O1 C18 1_555 1_555
O2 C20 1_555 1_555
O3 C22 1_555 1_555
O4 C24 1_555 1_555
O5 C26 1_555 1_555
O6 C28 1_555 1_555
O7 V3 1_555 1_555
O8 C32 1_555 1_555
O9 C30 1_555 1_555
O10 V1 1_555 1_555
O11 C26 1_555 1_555
O12 C28 1_555 1_555
O13 V1 1_555 1_555
O14 C24 1_555 1_555
O15 V2 1_555 1_555
O16 C20 1_555 1_555
O17 V2 1_555 1_555
O18 V3 1_555 1_555
O19 V4 1_555 1_555
O20 V1 1_555 1_555
C1 C7 1_555 1_555
C2 C8 1_555 1_555
C3 C5 1_555 1_555
C4 C6 1_555 1_555
C5 C25 1_555 1_555
C6 C27 1_555 1_555
C7 C29 1_555 1_555
C8 C31 1_555 1_555
C9 C15 1_555 1_555
C10 C16 1_555 1_555
C11 C13 1_555 1_555
C12 C14 1_555 1_555
C13 C21 1_555 1_555
C14 C23 1_555 1_555
C15 C17 1_555 1_555
C16 C19 1_555 1_555
C17 C1 1_555 1_555
C18 O15 1_555 1_555
C19 C2 1_555 1_555
C20 C19 1_555 1_555
C21 C3 1_555 1_555
C22 O13 1_555 1_555
C23 C4 1_555 1_555
C24 C23 1_555 1_555
C25 C11 1_555 1_555
C26 C25 1_555 1_555
C27 C12 1_555 1_555
C28 C27 1_555 1_555
C29 C9 1_555 1_555
C30 O7 1_555 1_555
C31 C10 1_555 1_555
C32 O10 1_555 1_555
H1 C1 1_555 1_555
H2 C2 1_555 1_555
H3 C3 1_555 1_555
H4 C4 1_555 1_555
H5 C5 1_555 1_555
H6 C6 1_555 1_555
H7 C7 1_555 1_555
H8 C8 1_555 1_555
H9 C9 1_555 1_555
H10 C10 1_555 1_555
H11 C11 1_555 1_555
H12 C12 1_555 1_555
H13 C13 1_555 1_555
H14 C14 1_555 1_555
H15 C15 1_555 1_555
H16 C16 1_555 1_555
V1_2 O6 1_555 1_555
V1_3 O17 1_555 1_555
V2_2 O12 1_555 1_555
V2_3 O8 1_555 1_555
V3_2 O19 1_555 1_555
V3_3 O11 1_555 1_555
V3_4 O16 1_555 1_555
V4_2 O14 1_555 1_555
V4_3 O5 1_555 1_555
V4_4 O2 1_555 1_555
O2_2 V4 1_555 1_555
O5_2 V4 1_555 1_555
O6_2 V1 1_555 1_555
O8_2 V2 1_555 1_555
O11_2 V3 1_555 1_555
O12_2 V2 1_555 1_555
O14_2 V4 1_555 1_555
O16_2 V3 1_555 1_555
O17_2 V1 1_555 1_555
O19_2 V3 1_555 1_555
V2 O20 1_555 1_555
V4 O18 1_555 1_555
C17 C18 1_555 1_555
C21 C22 1_555 1_555
C29 C30 1_555 1_555
C31 C32 1_555 1_555
V2_3 O17_2 1_555 1_555
V4_2 O19_2 1_555 1_555

#END
