
#######################################################################
#
#                 Cambridge Crystallographic Data Centre
#                                CCDC 
#
#######################################################################
#
# If this CIF has been generated from an entry in the Cambridge 
# Structural Database, then it will include bibliographic, chemical, 
# crystal, experimental, refinement or atomic coordinate data resulting 
# from the CCDC's data processing and validation procedures.
#
#######################################################################

data_IDIWOH06
_chemical_formula_moiety         '(C32 H16 O20 V4)n'
_symmetry_cell_setting           triclinic
_symmetry_space_group_name_H-M   'P 1'
_symmetry_Int_Tables_number      1
_space_group_name_Hall           'P 1'
loop_
_symmetry_equiv_pos_site_id
_symmetry_equiv_pos_as_xyz
1 x,y,z
_cell_length_a                   16.23054
_cell_length_b                   13.97504
_cell_length_c                   6.85427
_cell_angle_alpha                89.99999
_cell_angle_beta                 90.08054
_cell_angle_gamma                89.99999
_cell_volume                     1554.7
loop_
_atom_site_label
_atom_site_type_symbol
_atom_site_fract_x
_atom_site_fract_y
_atom_site_fract_z
_atom_site_U_iso_or_equiv
_atom_site_thermal_displace_type
V1 V 0.748954 0.739195 0.218594 0.0127 Uiso
V2 V 0.748955 0.760761 0.718594 0.0127 Uiso
V3 V 0.248954 0.260761 0.218594 0.0127 Uiso
V4 V 0.248954 0.239195 0.718594 0.0127 Uiso
O1 O 0.662059 0.657344 0.332265 0.0127 Uiso
O2 O 1.162061 1.157342 -0.167735 0.0127 Uiso
O3 O 0.837361 0.665532 0.665668 0.0127 Uiso
O4 O 0.337362 0.165534 0.165668 0.0127 Uiso
O5 O 1.162798 0.336865 0.663534 0.0127 Uiso
O6 O 0.662799 -0.163133 0.163534 0.0127 Uiso
O7 O 0.333590 0.344842 0.335023 0.0127 Uiso
O8 O 0.833592 0.844840 -0.164977 0.0127 Uiso
O9 O 0.337361 0.334423 0.665668 0.0127 Uiso
O10 O 0.837362 0.834421 0.165668 0.0127 Uiso
O11 O 1.162060 0.342613 0.332265 0.0127 Uiso
O12 O 0.662062 -0.157385 -0.167735 0.0127 Uiso
O13 O 0.833589 0.655113 0.335023 0.0127 Uiso
O14 O 0.333591 0.155115 -0.164977 0.0127 Uiso
O15 O 0.662797 0.663092 0.663534 0.0127 Uiso
O16 O 1.162799 1.163090 0.163535 0.0127 Uiso
O17 O 0.748824 0.695645 0.994226 0.0127 Uiso
O18 O 0.248825 0.195645 0.494226 0.0127 Uiso
O19 O 0.248824 0.304311 0.994226 0.0127 Uiso
O20 O 0.748825 0.804311 0.494225 0.0127 Uiso
C1 C 0.527915 0.536598 0.326715 0.0127 Uiso
C2 C 1.027918 1.036594 -0.173285 0.0127 Uiso
C3 C 0.969779 0.536502 0.681048 0.0127 Uiso
C4 C 0.469779 0.036503 0.181047 0.0127 Uiso
C5 C 1.035260 0.472281 0.680531 0.0127 Uiso
C6 C 0.535260 -0.027719 0.180530 0.0127 Uiso
C7 C 0.462324 0.472906 0.327307 0.0127 Uiso
C8 C 0.962327 0.972901 -0.172693 0.0127 Uiso
C9 C 0.469779 0.463453 0.681047 0.0127 Uiso
C10 C 0.969781 0.963451 0.181047 0.0127 Uiso
C11 C 1.027915 0.463358 0.326715 0.0127 Uiso
C12 C 0.527920 -0.036635 -0.173286 0.0127 Uiso
C13 C 0.962324 0.527050 0.327307 0.0127 Uiso
C14 C 0.462328 0.027056 -0.172694 0.0127 Uiso
C15 C 0.535260 0.527675 0.680531 0.0127 Uiso
C16 C 1.035261 1.027673 0.180531 0.0127 Uiso
C17 C 0.564791 0.564456 0.503266 0.0127 Uiso
C18 C 0.634838 0.632989 0.499856 0.0127 Uiso
C19 C 1.064793 1.064453 0.003266 0.0127 Uiso
C20 C 1.134840 1.132987 -0.000144 0.0127 Uiso
C21 C 0.932906 0.564194 0.504395 0.0127 Uiso
C22 C 0.863037 0.632989 0.502004 0.0127 Uiso
C23 C 0.432908 0.064198 0.004394 0.0127 Uiso
C24 C 0.363039 0.132992 0.002004 0.0127 Uiso
C25 C 1.064791 0.435500 0.503266 0.0127 Uiso
C26 C 1.134839 0.366967 0.499855 0.0127 Uiso
C27 C 0.564793 -0.064497 0.003265 0.0127 Uiso
C28 C 0.634841 -0.133030 -0.000145 0.0127 Uiso
C29 C 0.432907 0.435761 0.504395 0.0127 Uiso
C30 C 0.363038 0.366966 0.502004 0.0127 Uiso
C31 C 0.932909 0.935758 0.004395 0.0127 Uiso
C32 C 0.863040 0.866963 0.002004 0.0127 Uiso
H1 H 0.551529 0.566016 0.190715 0.0127 Uiso
H2 H 1.051533 1.066011 -0.309285 0.0127 Uiso
H3 H 0.946283 0.566207 0.816979 0.0127 Uiso
H4 H 0.446281 0.066205 0.316979 0.0127 Uiso
H5 H 1.064743 0.450022 0.816021 0.0127 Uiso
H6 H 0.564742 -0.049981 0.316021 0.0127 Uiso
H7 H 0.432763 0.450906 0.191817 0.0127 Uiso
H8 H 0.932766 0.950901 -0.308184 0.0127 Uiso
H9 H 0.446284 0.433748 0.816979 0.0127 Uiso
H10 H 0.946285 0.933747 0.316979 0.0127 Uiso
H11 H 1.051530 0.433940 0.190715 0.0127 Uiso
H12 H 0.551536 -0.066051 -0.309287 0.0127 Uiso
H13 H 0.932762 0.549049 0.191817 0.0127 Uiso
H14 H 0.432769 0.049058 -0.308185 0.0127 Uiso
H15 H 0.564744 0.549934 0.816021 0.0127 Uiso
H16 H 1.064745 1.049933 0.316021 0.0127 Uiso
V1_2 V 0.748954 -0.260805 0.218594 0.0127 Uiso
V1_3 V 0.748954 0.739195 1.218594 0.0127 Uiso
V2_2 V 0.748955 -0.239239 -0.281406 0.0127 Uiso
V2_3 V 0.748955 0.760761 -0.281406 0.0127 Uiso
V3_2 V 0.248954 0.260761 1.218594 0.0127 Uiso
V3_3 V 1.248954 0.260761 0.218594 0.0127 Uiso
V3_4 V 1.248954 1.260761 0.218594 0.0127 Uiso
V4_2 V 0.248954 0.239195 -0.281406 0.0127 Uiso
V4_3 V 1.248954 0.239195 0.718594 0.0127 Uiso
V4_4 V 1.248954 1.239195 -0.281406 0.0127 Uiso
O2_2 O 0.162061 0.157342 0.832265 0.0127 Uiso
O5_2 O 0.162798 0.336865 0.663534 0.0127 Uiso
O6_2 O 0.662799 0.836867 0.163534 0.0127 Uiso
O8_2 O 0.833592 0.844840 0.835023 0.0127 Uiso
O11_2 O 0.162060 0.342613 0.332265 0.0127 Uiso
O12_2 O 0.662062 0.842615 0.832265 0.0127 Uiso
O14_2 O 0.333591 0.155115 0.835023 0.0127 Uiso
O16_2 O 0.162799 0.163090 0.163535 0.0127 Uiso
O17_2 O 0.748824 0.695645 -0.005774 0.0127 Uiso
O19_2 O 0.248824 0.304311 -0.005774 0.0127 Uiso
loop_
_geom_bond_atom_site_label_1
_geom_bond_atom_site_label_2
_geom_bond_site_symmetry_1
_geom_bond_site_symmetry_2
V1 O1 1_555 1_555
V2 O3 1_555 1_555
V3 O4 1_555 1_555
V4 O9 1_555 1_555
O1 C18 1_555 1_555
O2 C20 1_555 1_555
O3 C22 1_555 1_555
O4 C24 1_555 1_555
O5 C26 1_555 1_555
O6 C28 1_555 1_555
O7 V3 1_555 1_555
O8 C32 1_555 1_555
O9 C30 1_555 1_555
O10 V1 1_555 1_555
O11 C26 1_555 1_555
O12 C28 1_555 1_555
O13 V1 1_555 1_555
O14 C24 1_555 1_555
O15 V2 1_555 1_555
O16 C20 1_555 1_555
O17 V2 1_555 1_555
O18 V3 1_555 1_555
O19 V4 1_555 1_555
O20 V1 1_555 1_555
C1 C7 1_555 1_555
C2 C8 1_555 1_555
C3 C5 1_555 1_555
C4 C6 1_555 1_555
C5 C25 1_555 1_555
C6 C27 1_555 1_555
C7 C29 1_555 1_555
C8 C31 1_555 1_555
C9 C15 1_555 1_555
C10 C16 1_555 1_555
C11 C13 1_555 1_555
C12 C14 1_555 1_555
C13 C21 1_555 1_555
C14 C23 1_555 1_555
C15 C17 1_555 1_555
C16 C19 1_555 1_555
C17 C1 1_555 1_555
C18 O15 1_555 1_555
C19 C2 1_555 1_555
C20 C19 1_555 1_555
C21 C3 1_555 1_555
C22 O13 1_555 1_555
C23 C4 1_555 1_555
C24 C23 1_555 1_555
C25 C11 1_555 1_555
C26 C25 1_555 1_555
C27 C12 1_555 1_555
C28 C27 1_555 1_555
C29 C9 1_555 1_555
C30 O7 1_555 1_555
C31 C10 1_555 1_555
C32 O10 1_555 1_555
H1 C1 1_555 1_555
H2 C2 1_555 1_555
H3 C3 1_555 1_555
H4 C4 1_555 1_555
H5 C5 1_555 1_555
H6 C6 1_555 1_555
H7 C7 1_555 1_555
H8 C8 1_555 1_555
H9 C9 1_555 1_555
H10 C10 1_555 1_555
H11 C11 1_555 1_555
H12 C12 1_555 1_555
H13 C13 1_555 1_555
H14 C14 1_555 1_555
H15 C15 1_555 1_555
H16 C16 1_555 1_555
V1_2 O6 1_555 1_555
V1_3 O17 1_555 1_555
V2_2 O12 1_555 1_555
V2_3 O8 1_555 1_555
V3_2 O19 1_555 1_555
V3_3 O11 1_555 1_555
V3_4 O16 1_555 1_555
V4_2 O14 1_555 1_555
V4_3 O5 1_555 1_555
V4_4 O2 1_555 1_555
O2_2 V4 1_555 1_555
O5_2 V4 1_555 1_555
O6_2 V1 1_555 1_555
O8_2 V2 1_555 1_555
O11_2 V3 1_555 1_555
O12_2 V2 1_555 1_555
O14_2 V4 1_555 1_555
O16_2 V3 1_555 1_555
O17_2 V1 1_555 1_555
O19_2 V3 1_555 1_555
V2 O20 1_555 1_555
V4 O18 1_555 1_555
C17 C18 1_555 1_555
C21 C22 1_555 1_555
C29 C30 1_555 1_555
C31 C32 1_555 1_555
V2_3 O17_2 1_555 1_555
V4_2 O19_2 1_555 1_555

#END
