
#######################################################################
#
#                 Cambridge Crystallographic Data Centre
#                                CCDC 
#
#######################################################################
#
# If this CIF has been generated from an entry in the Cambridge 
# Structural Database, then it will include bibliographic, chemical, 
# crystal, experimental, refinement or atomic coordinate data resulting 
# from the CCDC's data processing and validation procedures.
#
#######################################################################

data_XOJWEZ
_chemical_formula_moiety         '(C10 H14 Br1 Cu1 N4)n'
_symmetry_cell_setting           orthorhombic
_symmetry_space_group_name_H-M   'I m a 2'
_symmetry_Int_Tables_number      46
_space_group_name_Hall           'I 2 -2a'
loop_
_symmetry_equiv_pos_site_id
_symmetry_equiv_pos_as_xyz
1 x,y,z
2 -x,-y,z
3 1/2+x,-y,z
4 1/2-x,y,z
5 1/2+x,1/2+y,1/2+z
6 1/2-x,1/2-y,1/2+z
7 x,1/2-y,1/2+z
8 -x,1/2+y,1/2+z
_cell_length_a                   17.596(7)
_cell_length_b                   12.418(5)
_cell_length_c                   7.181(3)
_cell_angle_alpha                90
_cell_angle_beta                 90
_cell_angle_gamma                90
_cell_volume                     1569.1
loop_
_atom_site_label
_atom_site_type_symbol
_atom_site_fract_x
_atom_site_fract_y
_atom_site_fract_z
_atom_site_U_iso_or_equiv
_atom_site_thermal_displace_type
Br1 Br 0.2500 -0.34474(4) -0.24303(5) 0.0322 Uani
Cu1 Cu 0.2500 -0.13889(6) -0.09052(10) 0.0379 Uani
C1 C 0.4651(2) -0.0333(3) -0.2723(6) 0.0271 Uani
C2 C 0.4465(2) -0.1135(3) -0.3981(7) 0.0327 Uani
N1 N 0.35266(18) -0.1029(3) -0.1884(5) 0.0338 Uani
N2 N 0.3791(2) -0.1524(2) -0.3423(5) 0.0333 Uani
H1 H 0.3553 -0.2034 -0.3986 0.0400 Uiso
C3 C 0.4051(2) -0.0303(3) -0.1424(6) 0.0318 Uani
C4 C 0.3936(3) 0.0427(4) 0.0186(7) 0.0563 Uani
H2 H 0.3472 0.0243 0.0810 0.0840 Uiso
H3 H 0.3909 0.1158 -0.0246 0.0840 Uiso
H4 H 0.4355 0.0354 0.1035 0.0840 Uiso
C5 C 0.4867(4) -0.1558(4) -0.5618(8) 0.0577 Uani
H5 H 0.4569 -0.2119 -0.6180 0.0870 Uiso
H6 H 0.5350 -0.1845 -0.5241 0.0870 Uiso
H7 H 0.4945 -0.0989 -0.6502 0.0870 Uiso
Br1E Br 0.2500 -0.15526(4) 0.25697(5) 0.0322 Uani
Cu1E Cu 0.2500 -0.36111(6) -0.59052(10) 0.0379 Uani
Cu1A Cu 0.7500 0.13889(6) -0.09052(10) 0.0379 Uani
C1A C 0.5349(2) 0.0333(3) -0.2723(6) 0.0271 Uani
C2A C 0.5535(2) 0.1135(3) -0.3981(7) 0.0327 Uani
N1C N 0.14734(18) -0.1029(3) -0.1884(5) 0.0338 Uani
N1A N 0.64734(18) 0.1029(3) -0.1884(5) 0.0338 Uani
N2A N 0.6209(2) 0.1524(2) -0.3423(5) 0.0333 Uani
H1A H 0.6447 0.2034 -0.3986 0.0400 Uiso
C3A C 0.5949(2) 0.0303(3) -0.1424(6) 0.0318 Uani
C4A C 0.6064(3) -0.0427(4) 0.0186(7) 0.0563 Uani
H2A H 0.6528 -0.0243 0.0810 0.0840 Uiso
H3A H 0.6091 -0.1158 -0.0246 0.0840 Uiso
H4A H 0.5645 -0.0354 0.1035 0.0840 Uiso
C5A C 0.5133(4) 0.1558(4) -0.5618(8) 0.0577 Uani
H5A H 0.5431 0.2119 -0.6180 0.0870 Uiso
H6A H 0.4650 0.1845 -0.5241 0.0870 Uiso
H7A H 0.5055 0.0989 -0.6502 0.0870 Uiso
loop_
_atom_site_aniso_label
_atom_site_aniso_U_11
_atom_site_aniso_U_22
_atom_site_aniso_U_33
_atom_site_aniso_U_23
_atom_site_aniso_U_13
_atom_site_aniso_U_12
Br1 0.0308 0.034 0.0317 -0.0025 0 0
Cu1 0.0146 0.05 0.0491 0.007 0 0
C1 0.0174 0.0329 0.031 0.0024 -0.0004 -0.0078
C2 0.0241 0.042 0.032 -0.004 0.003 -0.0112
N1 0.0217 0.0416 0.038 -0.0037 0.0053 -0.0096
N2 0.0243 0.0385 0.037 -0.0061 0 -0.0125
C3 0.0243 0.039 0.032 -0.002 -0.0011 -0.0098
C4 0.044 0.07 0.055 -0.022 0.015 -0.021
C5 0.049 0.073 0.051 -0.022 0.021 -0.022
Br1E 0.0308 0.034 0.0317 0.0025 0 0
Cu1E 0.0146 0.05 0.0491 -0.007 0 0
Cu1A 0.0146(4) 0.0500(5) 0.0491(6) -0.0070(4) 0.000 0.000
C1A 0.0174(18) 0.0329(18) 0.031(2) -0.0024(17) 0.0004(16) -0.0078(14)
C2A 0.0241(18) 0.042(2) 0.032(2) 0.004(2) -0.003(2) -0.0112(15)
N1C 0.0217 0.0416 0.038 -0.0037 -0.0053 0.0096
N1A 0.0217(17) 0.0416(19) 0.038(2) 0.0037(15) -0.0053(15) -0.0096(14)
N2A 0.0243(18) 0.0385(19) 0.037(2) 0.0061(15) 0.0000(14) -0.0125(13)
C3A 0.0243(19) 0.039(2) 0.032(2) 0.0020(17) 0.0011(17) -0.0098(16)
C4A 0.044(3) 0.070(3) 0.055(3) 0.022(3) -0.015(2) -0.021(2)
C5A 0.049(3) 0.073(4) 0.051(4) 0.022(3) -0.021(3) -0.022(2)
loop_
_geom_bond_atom_site_label_1
_geom_bond_atom_site_label_2
_geom_bond_site_symmetry_1
_geom_bond_site_symmetry_2
Br1 Cu1 1_555 1_555
Cu1 N1 1_555 1_555
C1 C2 1_555 1_555
C2 N2 1_555 1_555
N1 N2 1_555 1_555
N2 H1 1_555 1_555
C3 C1 1_555 1_555
C4 C3 1_555 1_555
H2 C4 1_555 1_555
H3 C4 1_555 1_555
H4 C4 1_555 1_555
C5 C2 1_555 1_555
H5 C5 1_555 1_555
H6 C5 1_555 1_555
H7 C5 1_555 1_555
Br1E Cu1 1_555 1_555
Cu1E Br1 1_555 1_555
Cu1A N1A 1_555 1_555
C1A C1 1_555 1_555
C2A C1A 1_555 1_555
N1C Cu1 1_555 1_555
N1A N2A 1_555 1_555
N2A C2A 1_555 1_555
H1A N2A 1_555 1_555
C3A C1A 1_555 1_555
C4A C3A 1_555 1_555
H2A C4A 1_555 1_555
H3A C4A 1_555 1_555
H4A C4A 1_555 1_555
C5A C2A 1_555 1_555
H5A C5A 1_555 1_555
H6A C5A 1_555 1_555
H7A C5A 1_555 1_555
N1 C3 1_555 1_555
N1A C3A 1_555 1_555

#END
