
#######################################################################
#
#                 Cambridge Crystallographic Data Centre
#                                CCDC 
#
#######################################################################
#
# If this CIF has been generated from an entry in the Cambridge 
# Structural Database, then it will include bibliographic, chemical, 
# crystal, experimental, refinement or atomic coordinate data resulting 
# from the CCDC's data processing and validation procedures.
#
#######################################################################

data_MAGBUT01
_chemical_formula_moiety         '(C48 H72 Cl8 Fe2 In2 N24 2+)n'
_symmetry_cell_setting           rhombohedral
_symmetry_space_group_name_H-M   'R -3'
_symmetry_Int_Tables_number      148
_space_group_name_Hall           '-R 3'
loop_
_symmetry_equiv_pos_site_id
_symmetry_equiv_pos_as_xyz
1 x,y,z
2 -y,x-y,z
3 -x+y,-x,z
4 2/3+x,1/3+y,1/3+z
5 2/3-y,1/3+x-y,1/3+z
6 2/3-x+y,1/3-x,1/3+z
7 1/3+x,2/3+y,2/3+z
8 1/3-y,2/3+x-y,2/3+z
9 1/3-x+y,2/3-x,2/3+z
10 -x,-y,-z
11 y,-x+y,-z
12 x-y,x,-z
13 1/3-x,2/3-y,2/3-z
14 1/3+y,2/3-x+y,2/3-z
15 1/3+x-y,2/3+x,2/3-z
16 2/3-x,1/3-y,1/3-z
17 2/3+y,1/3-x+y,1/3-z
18 2/3+x-y,1/3+x,1/3-z
_cell_length_a                   14.7130(10)
_cell_length_b                   14.7130(10)
_cell_length_c                   37.436(5)
_cell_angle_alpha                90
_cell_angle_beta                 90
_cell_angle_gamma                120
_cell_volume                     7018.15
loop_
_atom_site_label
_atom_site_type_symbol
_atom_site_fract_x
_atom_site_fract_y
_atom_site_fract_z
In1 In 0.6667 0.3333 1.01009(3)
Cl1 Cl 0.7920(5) 0.4978(4) 1.02931(19)
Cl2 Cl 0.6667 0.3333 0.94847(14)
Cl1A Cl 0.5022(4) 0.2942(6) 1.02931(19)
Cl1B Cl 0.7058(6) 0.2080(5) 1.02931(19)
In2 In 1.0000 0.0000 0.82073(3)
Cl3 Cl 1.0000 0.0000 0.88206(19)
Cl4 Cl 0.8557(3) 0.0098(3) 0.80318(16)
Cl4A Cl 0.9902(3) -0.1541(4) 0.80318(16)
Cl4B Cl 1.1541(4) 0.1443(3) 0.80318(16)
Fe1 Fe 0.3333 -0.3333 0.6667
Fe2 Fe 0.6667 0.3333 0.8333
N1 N 0.4202(5) -0.1975(4) 0.69941(16)
N2 N 0.5189(5) 0.0232(5) 0.75393(18)
N3 N 0.4267(5) -0.0064(4) 0.74886(16)
N4 N 0.5394(4) 0.2143(4) 0.80129(15)
C1 C 0.4765(6) -0.1275(5) 0.7154(2)
C2 C 0.5602(7) -0.0353(6) 0.7343(3)
C3 C 0.3867(5) 0.0566(5) 0.7671(2)
C4 C 0.4747(5) 0.1470(5) 0.78621(18)
C5 C 0.6115(10) -0.0716(11) 0.7618(3)
H1 H 0.6661 -0.0111 0.7743
H2 H 0.6420 -0.1084 0.7498
H3 H 0.5591 -0.1183 0.7788
C6 C 0.6368(8) 0.0409(8) 0.7062(4)
H4 H 0.6924 0.1021 0.7181
H5 H 0.5993 0.0625 0.6902
H6 H 0.6668 0.0061 0.6927
C7 C 0.3436(8) 0.0961(7) 0.7377(3)
H7 H 0.2863 0.0367 0.7256
H8 H 0.3988 0.1370 0.7206
H9 H 0.3182 0.1396 0.7481
C8 C 0.3043(7) -0.0143(7) 0.7936(3)
H10 H 0.2472 -0.0725 0.7810
H11 H 0.2776 0.0250 0.8062
H12 H 0.3351 -0.0411 0.8105
Fe2_2 Fe -0.3333 -0.6667 0.8333
Fe2_3 Fe 0.6667 -0.6667 0.8333
Fe2F Fe 0.0000 -1.0000 0.5000
Fe2F_2 Fe 0.0000 -0.0000 0.5000
Fe2F_3 Fe 1.0000 -0.0000 0.5000
N1A N 0.1975(4) -0.3823(6) 0.69941(16)
N1B N 0.3823(6) -0.4202(5) 0.69941(16)
N1O N 0.2465(5) -0.4692(4) 0.63392(16)
N1P N 0.4692(4) -0.2844(6) 0.63392(16)
N1Q N 0.2844(6) -0.2465(5) 0.63392(16)
N2A N -0.0232(5) -0.5043(7) 0.75393(18)
N2B N 0.5043(7) -0.5189(5) 0.75393(18)
N2O N 0.1478(5) -0.6899(5) 0.57940(18)
N2P N 0.6899(5) -0.1624(7) 0.57940(18)
N2Q N 0.1624(7) -0.1478(5) 0.57940(18)
N3A N 0.0064(4) -0.5669(6) 0.74886(16)
N3B N 0.5669(6) -0.4267(5) 0.74886(16)
N3O N 0.2400(5) -0.6603(4) 0.58447(16)
N3P N 0.6603(4) -0.0998(6) 0.58447(16)
N3Q N 0.0998(6) -0.2400(5) 0.58447(16)
N4A N -0.2143(4) -0.6749(6) 0.80129(15)
N4B N 0.6749(6) -0.5394(4) 0.80129(15)
N4O N 0.1273(4) -0.8810(4) 0.53204(15)
N4P N 0.8810(4) 0.0082(6) 0.53204(15)
N4Q N -0.0082(6) -0.1273(4) 0.53204(15)
N4A_2 N 0.7857(4) 0.3251(6) 0.80129(15)
N4B_2 N 0.6749(6) 0.4606(4) 0.80129(15)
N4L N 0.7939(4) 0.4524(4) 0.86538(15)
N4M N 0.5476(4) 0.3416(6) 0.86538(15)
N4N N 0.6584(6) 0.2061(4) 0.86538(15)
C1A C 0.1275(5) -0.3960(8) 0.7154(2)
C1B C 0.3960(8) -0.4765(6) 0.7154(2)
C1O C 0.1902(6) -0.5392(5) 0.6179(2)
C1P C 0.5392(5) -0.2707(8) 0.6179(2)
C1Q C 0.2707(8) -0.1902(6) 0.6179(2)
C2A C 0.0353(6) -0.4045(9) 0.7343(3)
C2B C 0.4045(9) -0.5602(7) 0.7343(3)
C2O C 0.1065(7) -0.6314(6) 0.5990(3)
C2P C 0.6314(6) -0.2622(9) 0.5990(3)
C2Q C 0.2622(9) -0.1065(7) 0.5990(3)
C3A C -0.0566(5) -0.6699(7) 0.7671(2)
C3B C 0.6699(7) -0.3867(5) 0.7671(2)
C3O C 0.2800(5) -0.7233(5) 0.5662(2)
C3P C 0.7233(5) 0.0032(7) 0.5662(2)
C3Q C -0.0032(7) -0.2800(5) 0.5662(2)
C4A C -0.1470(5) -0.6723(7) 0.78621(18)
C4B C 0.6723(7) -0.4747(5) 0.78621(18)
C4O C 0.1920(5) -0.8137(5) 0.54712(18)
C4P C 0.8137(5) 0.0056(7) 0.54712(18)
C4Q C -0.0056(7) -0.1920(5) 0.54712(18)
C5A C 0.0716(11) -0.3169(15) 0.7618(3)
C5B C 0.3169(15) -0.6115(10) 0.7618(3)
C5O C 0.0552(10) -0.5951(11) 0.5715(3)
C5P C 0.5951(11) -0.3498(15) 0.5715(3)
C5Q C 0.3498(15) -0.0552(10) 0.5715(3)
H1A H 0.0111 -0.3228 0.7743
H1B H 0.3228 -0.6661 0.7743
H1O H 0.0006 -0.6556 0.5590
H1P H 0.6556 -0.3439 0.5590
H1Q H 0.3439 -0.0006 0.5590
H2A H 0.1084 -0.2496 0.7498
H2B H 0.2496 -0.6420 0.7498
H2O H 0.0247 -0.5583 0.5835
H2P H 0.5583 -0.4171 0.5835
H2Q H 0.4171 -0.0247 0.5835
H3A H 0.1183 -0.3226 0.7788
H3B H 0.3226 -0.5591 0.7788
H3O H 0.1076 -0.5484 0.5545
H3P H 0.5484 -0.3441 0.5545
H3Q H 0.3441 -0.1076 0.5545
C6A C -0.0409(8) -0.4041(11) 0.7062(4)
C6B C 0.4041(11) -0.6368(8) 0.7062(4)
C6O C 0.0299(8) -0.7076(8) 0.6271(4)
C6P C 0.7076(8) -0.2626(11) 0.6271(4)
C6Q C 0.2626(11) -0.0299(8) 0.6271(4)
H4A H -0.1021 -0.4097 0.7181
H4B H 0.4097 -0.6924 0.7181
H4O H -0.0257 -0.7688 0.6152
H4P H 0.7688 -0.2570 0.6152
H4Q H 0.2570 0.0257 0.6152
H5A H -0.0625 -0.4632 0.6902
H5B H 0.4632 -0.5993 0.6902
H5O H 0.0674 -0.7292 0.6431
H5P H 0.7292 -0.2035 0.6431
H5Q H 0.2035 -0.0674 0.6431
H6A H -0.0061 -0.3393 0.6927
H6B H 0.3393 -0.6668 0.6927
H6O H -0.0001 -0.6728 0.6406
H6P H 0.6728 -0.3274 0.6406
H6Q H 0.3274 0.0001 0.6406
C7A C -0.0961(7) -0.7525(11) 0.7377(3)
C7B C 0.7525(11) -0.3436(8) 0.7377(3)
C7O C 0.3231(8) -0.7628(7) 0.5956(3)
C7P C 0.7628(7) 0.0858(11) 0.5956(3)
C7Q C -0.0858(11) -0.3231(8) 0.5956(3)
H7A H -0.0367 -0.7504 0.7256
H7B H 0.7504 -0.2863 0.7256
H7O H 0.3804 -0.7034 0.6077
H7P H 0.7034 0.0837 0.6077
H7Q H -0.0837 -0.3804 0.6077
H8A H -0.1370 -0.7382 0.7206
H8B H 0.7382 -0.3988 0.7206
H8O H 0.2679 -0.8037 0.6127
H8P H 0.8037 0.0715 0.6127
H8Q H -0.0715 -0.2679 0.6127
H9A H -0.1396 -0.8214 0.7481
H9B H 0.8214 -0.3182 0.7481
H9O H 0.3485 -0.8063 0.5852
H9P H 0.8063 0.1547 0.5852
H9Q H -0.1547 -0.3485 0.5852
C8A C 0.0143(7) -0.6814(10) 0.7936(3)
C8B C 0.6814(10) -0.3043(7) 0.7936(3)
C8O C 0.3624(7) -0.6524(7) 0.5397(3)
C8P C 0.6524(7) 0.0147(10) 0.5397(3)
C8Q C -0.0147(10) -0.3624(7) 0.5397(3)
H10A H 0.0725 -0.6803 0.7810
H10B H 0.6803 -0.2472 0.7810
H10O H 0.4195 -0.5942 0.5523
H10P H 0.5942 0.0136 0.5523
H10Q H -0.0136 -0.4195 0.5523
H11A H -0.0250 -0.7474 0.8062
H11B H 0.7474 -0.2776 0.8062
H11O H 0.3891 -0.6917 0.5271
H11P H 0.6917 0.0807 0.5271
H11Q H -0.0807 -0.3891 0.5271
H12A H 0.0411 -0.6238 0.8105
H12B H 0.6238 -0.3351 0.8105
H12O H 0.3316 -0.6256 0.5228
H12P H 0.6256 -0.0429 0.5228
H12Q H 0.0429 -0.3316 0.5228
loop_
_geom_bond_atom_site_label_1
_geom_bond_atom_site_label_2
_geom_bond_site_symmetry_1
_geom_bond_site_symmetry_2
In1 Cl1 1_555 1_555
In2 Cl3 1_555 1_555
Fe1 N1 1_555 1_555
Fe2 N4 1_555 1_555
Cl2 In1 1_555 1_555
Cl4 In2 1_555 1_555
N1 C1 1_555 1_555
N2 N3 1_555 1_555
N3 C3 1_555 1_555
N4 C4 1_555 1_555
C1 C2 1_555 1_555
C2 N2 1_555 1_555
C3 C4 1_555 1_555
C5 C2 1_555 1_555
H1 C5 1_555 1_555
H2 C5 1_555 1_555
H3 C5 1_555 1_555
C6 C2 1_555 1_555
H4 C6 1_555 1_555
H5 C6 1_555 1_555
H6 C6 1_555 1_555
C7 C3 1_555 1_555
H7 C7 1_555 1_555
H8 C7 1_555 1_555
H9 C7 1_555 1_555
C8 C3 1_555 1_555
H10 C8 1_555 1_555
H11 C8 1_555 1_555
H12 C8 1_555 1_555
Fe2_2 N4A 1_555 1_555
Fe2_3 N4B 1_555 1_555
Fe2F N4O 1_555 1_555
Fe2F_2 N4Q 1_555 1_555
Fe2F_3 N4P 1_555 1_555
Cl1A In1 1_555 1_555
Cl1B In1 1_555 1_555
Cl4A In2 1_555 1_555
Cl4B In2 1_555 1_555
N1A Fe1 1_555 1_555
N1B Fe1 1_555 1_555
N1O Fe1 1_555 1_555
N1P Fe1 1_555 1_555
N1Q Fe1 1_555 1_555
N2A N3A 1_555 1_555
N2B N3B 1_555 1_555
N2O N3O 1_555 1_555
N2P N3P 1_555 1_555
N2Q N3Q 1_555 1_555
N3A C3A 1_555 1_555
N3B C3B 1_555 1_555
N3O C3O 1_555 1_555
N3P C3P 1_555 1_555
N3Q C3Q 1_555 1_555
N4A C4A 1_555 1_555
N4B C4B 1_555 1_555
N4O C4O 1_555 1_555
N4P C4P 1_555 1_555
N4Q C4Q 1_555 1_555
N4A_2 Fe2 1_555 1_555
N4B_2 Fe2 1_555 1_555
N4L Fe2 1_555 1_555
N4M Fe2 1_555 1_555
N4N Fe2 1_555 1_555
C1A N1A 1_555 1_555
C1B N1B 1_555 1_555
C1O N1O 1_555 1_555
C1P N1P 1_555 1_555
C1Q N1Q 1_555 1_555
C2A N2A 1_555 1_555
C2B N2B 1_555 1_555
C2O N2O 1_555 1_555
C2P N2P 1_555 1_555
C2Q N2Q 1_555 1_555
C3A C4A 1_555 1_555
C3B C4B 1_555 1_555
C3O C4O 1_555 1_555
C3P C4P 1_555 1_555
C3Q C4Q 1_555 1_555
C5A C2A 1_555 1_555
C5B C2B 1_555 1_555
C5O C2O 1_555 1_555
C5P C2P 1_555 1_555
C5Q C2Q 1_555 1_555
H1A C5A 1_555 1_555
H1B C5B 1_555 1_555
H1O C5O 1_555 1_555
H1P C5P 1_555 1_555
H1Q C5Q 1_555 1_555
H2A C5A 1_555 1_555
H2B C5B 1_555 1_555
H2O C5O 1_555 1_555
H2P C5P 1_555 1_555
H2Q C5Q 1_555 1_555
H3A C5A 1_555 1_555
H3B C5B 1_555 1_555
H3O C5O 1_555 1_555
H3P C5P 1_555 1_555
H3Q C5Q 1_555 1_555
C6A C2A 1_555 1_555
C6B C2B 1_555 1_555
C6O C2O 1_555 1_555
C6P C2P 1_555 1_555
C6Q C2Q 1_555 1_555
H4A C6A 1_555 1_555
H4B C6B 1_555 1_555
H4O C6O 1_555 1_555
H4P C6P 1_555 1_555
H4Q C6Q 1_555 1_555
H5A C6A 1_555 1_555
H5B C6B 1_555 1_555
H5O C6O 1_555 1_555
H5P C6P 1_555 1_555
H5Q C6Q 1_555 1_555
H6A C6A 1_555 1_555
H6B C6B 1_555 1_555
H6O C6O 1_555 1_555
H6P C6P 1_555 1_555
H6Q C6Q 1_555 1_555
C7A C3A 1_555 1_555
C7B C3B 1_555 1_555
C7O C3O 1_555 1_555
C7P C3P 1_555 1_555
C7Q C3Q 1_555 1_555
H7A C7A 1_555 1_555
H7B C7B 1_555 1_555
H7O C7O 1_555 1_555
H7P C7P 1_555 1_555
H7Q C7Q 1_555 1_555
H8A C7A 1_555 1_555
H8B C7B 1_555 1_555
H8O C7O 1_555 1_555
H8P C7P 1_555 1_555
H8Q C7Q 1_555 1_555
H9A C7A 1_555 1_555
H9B C7B 1_555 1_555
H9O C7O 1_555 1_555
H9P C7P 1_555 1_555
H9Q C7Q 1_555 1_555
C8A C3A 1_555 1_555
C8B C3B 1_555 1_555
C8O C3O 1_555 1_555
C8P C3P 1_555 1_555
C8Q C3Q 1_555 1_555
H10A C8A 1_555 1_555
H10B C8B 1_555 1_555
H10O C8O 1_555 1_555
H10P C8P 1_555 1_555
H10Q C8Q 1_555 1_555
H11A C8A 1_555 1_555
H11B C8B 1_555 1_555
H11O C8O 1_555 1_555
H11P C8P 1_555 1_555
H11Q C8Q 1_555 1_555
H12A C8A 1_555 1_555
H12B C8B 1_555 1_555
H12O C8O 1_555 1_555
H12P C8P 1_555 1_555
H12Q C8Q 1_555 1_555
C1A C2A 1_555 1_555
C1B C2B 1_555 1_555
C1O C2O 1_555 1_555
C1P C2P 1_555 1_555
C1Q C2Q 1_555 1_555

#END
