
#######################################################################
#
#                 Cambridge Crystallographic Data Centre
#                                CCDC 
#
#######################################################################
#
# If this CIF has been generated from an entry in the Cambridge 
# Structural Database, then it will include bibliographic, chemical, 
# crystal, experimental, refinement or atomic coordinate data resulting 
# from the CCDC's data processing and validation procedures.
#
#######################################################################

data_MAGDAB
_chemical_formula_moiety         '(C84 H120 Cl8 Fe4 N24 2+)n'
_symmetry_cell_setting           triclinic
_symmetry_space_group_name_H-M   'P -1'
_symmetry_Int_Tables_number      2
_space_group_name_Hall           '-P 1'
loop_
_symmetry_equiv_pos_site_id
_symmetry_equiv_pos_as_xyz
1 x,y,z
2 -x,-y,-z
_cell_length_a                   10.9068(9)
_cell_length_b                   15.8580(11)
_cell_length_c                   16.1047(12)
_cell_angle_alpha                89.575(3)
_cell_angle_beta                 89.485(2)
_cell_angle_gamma                85.889(2)
_cell_volume                     2778.13
loop_
_atom_site_label
_atom_site_type_symbol
_atom_site_fract_x
_atom_site_fract_y
_atom_site_fract_z
Fe1 Fe -0.02574(7) 0.27905(5) 0.74711(5)
N1 N 0.0130(5) 0.2003(3) 0.6384(3)
N2 N -0.0111(5) 0.0276(3) 0.5254(3)
N3 N -0.0617(5) 0.3573(3) 0.8551(3)
N4 N -0.0340(5) 0.4873(3) 1.0277(3)
N5 N -0.0479(5) 0.1680(3) 0.8206(3)
N6 N -0.0001(5) 0.0334(3) 0.9802(3)
N7 N 0.0019(5) 0.3882(4) 0.6739(3)
N8 N 0.0422(5) 0.5231(3) 0.5077(3)
N9 N 0.1669(4) 0.2700(3) 0.7781(3)
N10 N 0.4904(4) 0.2642(3) 0.7886(3)
N11 N 0.7808(5) 0.2827(3) 0.7188(3)
N12 N 0.4599(4) 0.2626(3) 0.7146(3)
C1 C 0.0397(5) 0.1565(4) 0.5851(4)
C2 C 0.0686(6) 0.1004(4) 0.5128(4)
C3 C 0.2054(6) 0.0700(4) 0.5119(4)
H1 H 0.2274 0.0434 0.5661
H2 H 0.2208 0.0268 0.4683
C4 C 0.2854(6) 0.1426(4) 0.4955(4)
H3 H 0.3726 0.1207 0.4925
H4 H 0.2764 0.1830 0.5422
C5 C 0.2503(6) 0.1886(4) 0.4144(5)
H5 H 0.3015 0.2372 0.4068
H6 H 0.2670 0.1497 0.3672
C6 C 0.1157(6) 0.2199(5) 0.4146(5)
H7 H 0.0945 0.2454 0.3599
H8 H 0.1015 0.2644 0.4572
C7 C 0.0319(6) 0.1486(4) 0.4329(4)
H9 H 0.0361 0.1088 0.3857
H10 H -0.0541 0.1726 0.4383
C8 C -0.0785(5) 0.3858(4) 0.9187(4)
C9 C -0.1016(6) 0.4132(4) 1.0059(4)
C10 C -0.0584(6) 0.3395(4) 1.0625(4)
H11 H -0.0604 0.3590 1.1208
H12 H 0.0278 0.3209 1.0483
C11 C -0.1386(6) 0.2636(4) 1.0550(4)
H13 H -0.1286 0.2391 0.9988
H14 H -0.1116 0.2194 1.0959
C12 C -0.2722(6) 0.2917(4) 1.0703(4)
H15 H -0.3226 0.2428 1.0635
H16 H -0.2826 0.3115 1.1283
C13 C -0.3179(6) 0.3616(5) 1.0121(5)
H17 H -0.4048 0.3790 1.0255
H18 H -0.3140 0.3406 0.9543
C14 C -0.2399(6) 0.4381(4) 1.0193(4)
H19 H -0.2526 0.4634 1.0750
H20 H -0.2675 0.4813 0.9775
C15 C -0.0577(5) 0.1071(4) 0.8577(4)
C16 C -0.0821(6) 0.0301(4) 0.9061(4)
C17 C -0.0563(6) -0.0497(4) 0.8530(4)
H21 H 0.0298 -0.0522 0.8327
H22 H -0.0664 -0.1004 0.8879
C18 C -0.1421(6) -0.0504(4) 0.7793(4)
H23 H -0.1259 -0.1038 0.7484
H24 H -0.1265 -0.0029 0.7414
C19 C -0.2755(6) -0.0424(5) 0.8083(5)
H25 H -0.3296 -0.0400 0.7592
H26 H -0.2929 -0.0932 0.8412
C20 C -0.3043(6) 0.0352(5) 0.8602(5)
H27 H -0.3902 0.0355 0.8808
H28 H -0.2975 0.0862 0.8251
C21 C -0.2181(6) 0.0389(4) 0.9341(4)
H29 H -0.2339 -0.0071 0.9738
H30 H -0.2348 0.0935 0.9631
C22 C 0.0358(5) 0.4433(4) 0.6375(4)
C23 C 0.0933(6) 0.5121(4) 0.5916(4)
C24 C 0.2339(5) 0.4896(4) 0.5832(4)
H31 H 0.2479 0.4324 0.5592
H32 H 0.2697 0.5301 0.5445
C25 C 0.2984(6) 0.4917(4) 0.6657(4)
H33 H 0.3881 0.4812 0.6568
H34 H 0.2706 0.4461 0.7021
C26 C 0.2718(6) 0.5771(5) 0.7085(4)
H35 H 0.3109 0.5754 0.7638
H36 H 0.3079 0.6220 0.6751
C27 C 0.1334(6) 0.5981(4) 0.7186(4)
H37 H 0.0991 0.5565 0.7569
H38 H 0.1188 0.6548 0.7435
C28 C 0.0678(6) 0.5966(4) 0.6359(4)
H39 H 0.0951 0.6427 0.5999
H40 H -0.0218 0.6070 0.6453
C29 C 0.2642(6) 0.2644(4) 0.8048(4)
C30 C 0.3849(5) 0.2592(4) 0.8473(4)
C31 C 0.4077(6) 0.1746(4) 0.8935(4)
H41 H 0.3979 0.1278 0.8543
H42 H 0.4933 0.1694 0.9137
C32 C 0.3201(7) 0.1660(4) 0.9669(4)
H43 H 0.3428 0.1127 0.9971
H44 H 0.2353 0.1633 0.9462
C33 C 0.3237(7) 0.2408(4) 1.0271(4)
H45 H 0.2619 0.2354 1.0719
H46 H 0.4058 0.2402 1.0529
C34 C 0.2964(6) 0.3239(4) 0.9801(4)
H47 H 0.2117 0.3259 0.9583
H48 H 0.3012 0.3716 1.0189
C35 C 0.3863(6) 0.3340(4) 0.9083(4)
H49 H 0.4703 0.3371 0.9303
H50 H 0.3638 0.3876 0.8783
C36 C 0.6825(5) 0.2744(4) 0.6947(4)
C37 C 0.5639(5) 0.2598(4) 0.6544(4)
C38 C 0.5355(6) 0.3278(4) 0.5886(4)
H51 H 0.5410 0.3842 0.6136
H52 H 0.4503 0.3241 0.5690
C39 C 0.6246(7) 0.3185(5) 0.5141(4)
H53 H 0.5989 0.3606 0.4708
H54 H 0.7084 0.3298 0.5320
C40 C 0.6263(7) 0.2290(5) 0.4776(4)
H55 H 0.5440 0.2195 0.4555
H56 H 0.6862 0.2239 0.4310
C41 C 0.6610(6) 0.1626(4) 0.5430(4)
H57 H 0.7461 0.1692 0.5615
H58 H 0.6586 0.1057 0.5184
C42 C 0.5740(6) 0.1700(4) 0.6175(4)
H59 H 0.6037 0.1291 0.6609
H60 H 0.4914 0.1551 0.6004
Fe1A Fe 0.02574(7) -0.27905(5) 0.25289(5)
Fe1_2 Fe 0.97426(7) 0.27905(5) 0.74711(5)
Fe1A_2 Fe 0.02574(7) 0.72095(5) 1.25289(5)
Fe1A_3 Fe 0.02574(7) -0.27905(5) 1.25289(5)
Fe1A_4 Fe 0.02574(7) 0.72095(5) 0.25289(5)
Fe1_3 Fe -1.02574(7) 0.27905(5) 0.74711(5)
N1A N -0.0130(5) -0.2003(3) 0.3616(3)
N2A N 0.0111(5) -0.0276(3) 0.4746(3)
N3A N 0.0617(5) 0.6427(3) 1.1449(3)
N3A_2 N 0.0617(5) -0.3573(3) 0.1449(3)
N4A N 0.0340(5) 0.5127(3) 0.9723(3)
N5A N 0.0479(5) -0.1680(3) 1.1794(3)
N5A_2 N 0.0479(5) -0.1680(3) 0.1794(3)
N6A N 0.0001(5) -0.0334(3) 1.0198(3)
N7A N -0.0019(5) 0.6118(4) 0.3261(3)
N7A_2 N -0.0019(5) -0.3882(4) 0.3261(3)
N8A N -0.0422(5) 0.4769(3) 0.4923(3)
N9_2 N -0.8331(4) 0.2700(3) 0.7781(3)
N9A N -0.1669(4) -0.2700(3) 0.2219(3)
N10_2 N -0.5096(4) 0.2642(3) 0.7886(3)
N11_2 N -0.2192(5) 0.2827(3) 0.7188(3)
N11A N 0.2192(5) -0.2827(3) 0.2812(3)
N12_2 N -0.5401(4) 0.2626(3) 0.7146(3)
C1A C -0.0397(5) -0.1565(4) 0.4149(4)
C2A C -0.0686(6) -0.1004(4) 0.4872(4)
C3A C -0.2054(6) -0.0700(4) 0.4881(4)
H1A H -0.2274 -0.0434 0.4339
H2A H -0.2208 -0.0268 0.5317
C4A C -0.2854(6) -0.1426(4) 0.5045(4)
H3A H -0.3726 -0.1207 0.5075
H4A H -0.2764 -0.1830 0.4578
C5A C -0.2503(6) -0.1886(4) 0.5856(5)
H5A H -0.3015 -0.2372 0.5932
H6A H -0.2670 -0.1497 0.6328
C6A C -0.1157(6) -0.2199(5) 0.5854(5)
H7A H -0.0945 -0.2454 0.6401
H8A H -0.1015 -0.2644 0.5428
C7A C -0.0319(6) -0.1486(4) 0.5671(4)
H9A H -0.0361 -0.1088 0.6143
H10A H 0.0541 -0.1726 0.5617
C8A C 0.0785(5) 0.6142(4) 1.0813(4)
C9A C 0.1016(6) 0.5868(4) 0.9941(4)
C10A C 0.0584(6) 0.6605(4) 0.9375(4)
H11A H 0.0604 0.6410 0.8792
H12A H -0.0278 0.6791 0.9517
C11A C 0.1386(6) 0.7364(4) 0.9450(4)
H13A H 0.1286 0.7609 1.0012
H14A H 0.1116 0.7806 0.9041
C12A C 0.2722(6) 0.7083(4) 0.9297(4)
H15A H 0.3226 0.7572 0.9365
H16A H 0.2826 0.6885 0.8717
C13A C 0.3179(6) 0.6384(5) 0.9879(5)
H17A H 0.4048 0.6210 0.9745
H18A H 0.3140 0.6594 1.0457
C14A C 0.2399(6) 0.5619(4) 0.9807(4)
H19A H 0.2526 0.5366 0.9250
H20A H 0.2675 0.5187 1.0225
C15A C 0.0577(5) -0.1071(4) 1.1423(4)
C16A C 0.0821(6) -0.0301(4) 1.0939(4)
C17A C 0.0563(6) 0.0497(4) 1.1470(4)
H21A H -0.0298 0.0522 1.1673
H22A H 0.0664 0.1004 1.1121
C18A C 0.1421(6) 0.0504(4) 1.2207(4)
H23A H 0.1259 0.1038 1.2516
H24A H 0.1265 0.0029 1.2586
C19A C 0.2755(6) 0.0424(5) 1.1917(5)
H25A H 0.3296 0.0400 1.2408
H26A H 0.2929 0.0932 1.1588
C20A C 0.3043(6) -0.0352(5) 1.1398(5)
H27A H 0.3902 -0.0355 1.1192
H28A H 0.2975 -0.0862 1.1749
C21A C 0.2181(6) -0.0389(4) 1.0659(4)
H29A H 0.2339 0.0071 1.0262
H30A H 0.2348 -0.0935 1.0369
C22A C -0.0358(5) 0.5567(4) 0.3625(4)
C23A C -0.0933(6) 0.4879(4) 0.4084(4)
C24A C -0.2339(5) 0.5104(4) 0.4168(4)
H31A H -0.2479 0.5676 0.4408
H32A H -0.2697 0.4699 0.4555
C25A C -0.2984(6) 0.5083(4) 0.3343(4)
H33A H -0.3881 0.5188 0.3432
H34A H -0.2706 0.5539 0.2979
C26A C -0.2718(6) 0.4229(5) 0.2915(4)
H35A H -0.3109 0.4246 0.2362
H36A H -0.3079 0.3780 0.3249
C27A C -0.1334(6) 0.4019(4) 0.2814(4)
H37A H -0.0991 0.4435 0.2431
H38A H -0.1188 0.3452 0.2565
C28A C -0.0678(6) 0.4034(4) 0.3641(4)
H39A H -0.0951 0.3573 0.4001
H40A H 0.0218 0.3930 0.3547
C29_2 C -0.7358(6) 0.2644(4) 0.8048(4)
C30_2 C -0.6151(5) 0.2592(4) 0.8473(4)
C31_2 C -0.5923(6) 0.1746(4) 0.8935(4)
H41_2 H -0.6021 0.1278 0.8543
H42_2 H -0.5067 0.1694 0.9137
C32_2 C -0.6799(7) 0.1660(4) 0.9669(4)
H43_2 H -0.6572 0.1127 0.9971
H44_2 H -0.7647 0.1633 0.9462
C33_2 C -0.6763(7) 0.2408(4) 1.0271(4)
H45_2 H -0.7381 0.2354 1.0719
H46_2 H -0.5942 0.2402 1.0529
C34_2 C -0.7036(6) 0.3239(4) 0.9801(4)
H47_2 H -0.7883 0.3259 0.9583
H48_2 H -0.6988 0.3716 1.0189
C35_2 C -0.6137(6) 0.3340(4) 0.9083(4)
H49_2 H -0.5297 0.3371 0.9303
H50_2 H -0.6362 0.3876 0.8783
C36_2 C -0.3175(5) 0.2744(4) 0.6947(4)
C37_2 C -0.4361(5) 0.2598(4) 0.6544(4)
C38_2 C -0.4645(6) 0.3278(4) 0.5886(4)
H51_2 H -0.4590 0.3842 0.6136
H52_2 H -0.5497 0.3241 0.5690
C39_2 C -0.3754(7) 0.3185(5) 0.5141(4)
H53_2 H -0.4011 0.3606 0.4708
H54_2 H -0.2916 0.3298 0.5320
C40_2 C -0.3737(7) 0.2290(5) 0.4776(4)
H55_2 H -0.4560 0.2195 0.4555
H56_2 H -0.3138 0.2239 0.4310
C41_2 C -0.3390(6) 0.1626(4) 0.5430(4)
H57_2 H -0.2539 0.1692 0.5615
H58_2 H -0.3414 0.1057 0.5184
C42_2 C -0.4260(6) 0.1700(4) 0.6175(4)
H59_2 H -0.3963 0.1291 0.6609
H60_2 H -0.5086 0.1551 0.6004
Fe2 Fe 0.67573(8) 0.06527(6) 0.24873(6)
Cl1 Cl 0.53991(15) 0.05298(11) 0.34906(10)
Cl2 Cl 0.79294(16) -0.05384(11) 0.24979(12)
Cl3 Cl 0.79535(15) 0.16835(11) 0.27086(11)
Cl4 Cl 0.59140(16) 0.07695(11) 0.12538(10)
Fe3 Fe 0.35667(8) 0.40495(7) 0.24855(6)
Cl5 Cl 0.4651(2) 0.28533(14) 0.24007(15)
Cl6 Cl 0.4408(2) 0.50110(18) 0.17277(17)
Cl7 Cl 0.17211(18) 0.3919(2) 0.20084(15)
Cl8 Cl 0.3456(2) 0.44469(17) 0.37846(13)
loop_
_geom_bond_atom_site_label_1
_geom_bond_atom_site_label_2
_geom_bond_site_symmetry_1
_geom_bond_site_symmetry_2
Fe1 N1 1_555 1_555
Fe2 Cl1 1_555 1_555
Fe3 Cl5 1_555 1_555
Cl2 Fe2 1_555 1_555
Cl3 Fe2 1_555 1_555
Cl4 Fe2 1_555 1_555
Cl6 Fe3 1_555 1_555
Cl7 Fe3 1_555 1_555
Cl8 Fe3 1_555 1_555
N1 C1 1_555 1_555
N2 C2 1_555 1_555
N3 Fe1 1_555 1_555
N4 C9 1_555 1_555
N5 Fe1 1_555 1_555
N6 C16 1_555 1_555
N7 Fe1 1_555 1_555
N8 C23 1_555 1_555
N9 Fe1 1_555 1_555
N10 N12 1_555 1_555
N11 C36 1_555 1_555
N12 C37 1_555 1_555
C1 C2 1_555 1_555
C2 C3 1_555 1_555
C3 H1 1_555 1_555
H2 C3 1_555 1_555
C4 C3 1_555 1_555
H3 C4 1_555 1_555
H4 C4 1_555 1_555
C5 C4 1_555 1_555
H5 C5 1_555 1_555
H6 C5 1_555 1_555
C6 C5 1_555 1_555
H7 C6 1_555 1_555
H8 C6 1_555 1_555
C7 C2 1_555 1_555
H9 C7 1_555 1_555
H10 C7 1_555 1_555
C8 N3 1_555 1_555
C9 C8 1_555 1_555
C10 C9 1_555 1_555
H11 C10 1_555 1_555
H12 C10 1_555 1_555
C11 C10 1_555 1_555
H13 C11 1_555 1_555
H14 C11 1_555 1_555
C12 C11 1_555 1_555
H15 C12 1_555 1_555
H16 C12 1_555 1_555
C13 C12 1_555 1_555
H17 C13 1_555 1_555
H18 C13 1_555 1_555
C14 C9 1_555 1_555
H19 C14 1_555 1_555
H20 C14 1_555 1_555
C15 N5 1_555 1_555
C16 C15 1_555 1_555
C17 C16 1_555 1_555
H21 C17 1_555 1_555
H22 C17 1_555 1_555
C18 C17 1_555 1_555
H23 C18 1_555 1_555
H24 C18 1_555 1_555
C19 C18 1_555 1_555
H25 C19 1_555 1_555
H26 C19 1_555 1_555
C20 C19 1_555 1_555
H27 C20 1_555 1_555
H28 C20 1_555 1_555
C21 C16 1_555 1_555
H29 C21 1_555 1_555
H30 C21 1_555 1_555
C22 N7 1_555 1_555
C23 C22 1_555 1_555
C24 C23 1_555 1_555
H31 C24 1_555 1_555
H32 C24 1_555 1_555
C25 C24 1_555 1_555
H33 C25 1_555 1_555
H34 C25 1_555 1_555
C26 C25 1_555 1_555
H35 C26 1_555 1_555
H36 C26 1_555 1_555
C27 C26 1_555 1_555
H37 C27 1_555 1_555
H38 C27 1_555 1_555
C28 C23 1_555 1_555
H39 C28 1_555 1_555
H40 C28 1_555 1_555
C29 N9 1_555 1_555
C30 N10 1_555 1_555
C31 C30 1_555 1_555
H41 C31 1_555 1_555
H42 C31 1_555 1_555
C32 C31 1_555 1_555
H43 C32 1_555 1_555
H44 C32 1_555 1_555
C33 C32 1_555 1_555
H45 C33 1_555 1_555
H46 C33 1_555 1_555
C34 C33 1_555 1_555
H47 C34 1_555 1_555
H48 C34 1_555 1_555
C35 C30 1_555 1_555
H49 C35 1_555 1_555
H50 C35 1_555 1_555
C36 C37 1_555 1_555
C37 C38 1_555 1_555
C38 H51 1_555 1_555
H52 C38 1_555 1_555
C39 C38 1_555 1_555
H53 C39 1_555 1_555
H54 C39 1_555 1_555
C40 C39 1_555 1_555
H55 C40 1_555 1_555
H56 C40 1_555 1_555
C41 C40 1_555 1_555
H57 C41 1_555 1_555
H58 C41 1_555 1_555
C42 C37 1_555 1_555
H59 C42 1_555 1_555
H60 C42 1_555 1_555
Fe1A N1A 1_555 1_555
Fe1_2 N11 1_555 1_555
Fe1A_2 N3A 1_555 1_555
Fe1A_3 N5A 1_555 1_555
Fe1A_4 N7A 1_555 1_555
Fe1_3 N9_2 1_555 1_555
N1A C1A 1_555 1_555
N2A N2 1_555 1_555
N3A C8A 1_555 1_555
N3A_2 Fe1A 1_555 1_555
N4A N4 1_555 1_555
N5A C15A 1_555 1_555
N5A_2 Fe1A 1_555 1_555
N6A N6 1_555 1_555
N7A C22A 1_555 1_555
N7A_2 Fe1A 1_555 1_555
N8A N8 1_555 1_555
N9_2 C29_2 1_555 1_555
N9A Fe1A 1_555 1_555
N10_2 N12_2 1_555 1_555
N11_2 Fe1 1_555 1_555
N11A Fe1A 1_555 1_555
N12_2 C37_2 1_555 1_555
C1A C2A 1_555 1_555
C2A N2A 1_555 1_555
C3A C2A 1_555 1_555
H1A C3A 1_555 1_555
H2A C3A 1_555 1_555
C4A C3A 1_555 1_555
H3A C4A 1_555 1_555
H4A C4A 1_555 1_555
C5A C4A 1_555 1_555
H5A C5A 1_555 1_555
H6A C5A 1_555 1_555
C6A C5A 1_555 1_555
H7A C6A 1_555 1_555
H8A C6A 1_555 1_555
C7A C2A 1_555 1_555
H9A C7A 1_555 1_555
H10A C7A 1_555 1_555
C8A C9A 1_555 1_555
C9A N4A 1_555 1_555
C10A C9A 1_555 1_555
H11A C10A 1_555 1_555
H12A C10A 1_555 1_555
C11A C10A 1_555 1_555
H13A C11A 1_555 1_555
H14A C11A 1_555 1_555
C12A C11A 1_555 1_555
H15A C12A 1_555 1_555
H16A C12A 1_555 1_555
C13A C12A 1_555 1_555
H17A C13A 1_555 1_555
H18A C13A 1_555 1_555
C14A C9A 1_555 1_555
H19A C14A 1_555 1_555
H20A C14A 1_555 1_555
C15A C16A 1_555 1_555
C16A N6A 1_555 1_555
C17A C16A 1_555 1_555
H21A C17A 1_555 1_555
H22A C17A 1_555 1_555
C18A C17A 1_555 1_555
H23A C18A 1_555 1_555
H24A C18A 1_555 1_555
C19A C18A 1_555 1_555
H25A C19A 1_555 1_555
H26A C19A 1_555 1_555
C20A C19A 1_555 1_555
H27A C20A 1_555 1_555
H28A C20A 1_555 1_555
C21A C16A 1_555 1_555
H29A C21A 1_555 1_555
H30A C21A 1_555 1_555
C22A C23A 1_555 1_555
C23A N8A 1_555 1_555
C24A C23A 1_555 1_555
H31A C24A 1_555 1_555
H32A C24A 1_555 1_555
C25A C24A 1_555 1_555
H33A C25A 1_555 1_555
H34A C25A 1_555 1_555
C26A C25A 1_555 1_555
H35A C26A 1_555 1_555
H36A C26A 1_555 1_555
C27A C26A 1_555 1_555
H37A C27A 1_555 1_555
H38A C27A 1_555 1_555
C28A C23A 1_555 1_555
H39A C28A 1_555 1_555
H40A C28A 1_555 1_555
C29_2 C30_2 1_555 1_555
C30_2 N10_2 1_555 1_555
C31_2 C30_2 1_555 1_555
H41_2 C31_2 1_555 1_555
H42_2 C31_2 1_555 1_555
C32_2 C31_2 1_555 1_555
H43_2 C32_2 1_555 1_555
H44_2 C32_2 1_555 1_555
C33_2 C32_2 1_555 1_555
H45_2 C33_2 1_555 1_555
H46_2 C33_2 1_555 1_555
C34_2 C33_2 1_555 1_555
H47_2 C34_2 1_555 1_555
H48_2 C34_2 1_555 1_555
C35_2 C30_2 1_555 1_555
H49_2 C35_2 1_555 1_555
H50_2 C35_2 1_555 1_555
C36_2 N11_2 1_555 1_555
C37_2 C36_2 1_555 1_555
C38_2 C37_2 1_555 1_555
H51_2 C38_2 1_555 1_555
H52_2 C38_2 1_555 1_555
C39_2 C38_2 1_555 1_555
H53_2 C39_2 1_555 1_555
H54_2 C39_2 1_555 1_555
C40_2 C39_2 1_555 1_555
H55_2 C40_2 1_555 1_555
H56_2 C40_2 1_555 1_555
C41_2 C40_2 1_555 1_555
H57_2 C41_2 1_555 1_555
H58_2 C41_2 1_555 1_555
C42_2 C37_2 1_555 1_555
H59_2 C42_2 1_555 1_555
H60_2 C42_2 1_555 1_555
C6 C7 1_555 1_555
C13 C14 1_555 1_555
C20 C21 1_555 1_555
C27 C28 1_555 1_555
C29 C30 1_555 1_555
C34 C35 1_555 1_555
C41 C42 1_555 1_555
C6A C7A 1_555 1_555
C13A C14A 1_555 1_555
C20A C21A 1_555 1_555
C27A C28A 1_555 1_555
C34_2 C35_2 1_555 1_555
C41_2 C42_2 1_555 1_555

#END
