
#######################################################################
#
#                 Cambridge Crystallographic Data Centre
#                                CCDC 
#
#######################################################################
#
# If this CIF has been generated from an entry in the Cambridge 
# Structural Database, then it will include bibliographic, chemical, 
# crystal, experimental, refinement or atomic coordinate data resulting 
# from the CCDC's data processing and validation procedures.
#
#######################################################################

data_HUDCEQ
_chemical_formula_moiety         'C80 H36 N2 O15 Zn9'
_symmetry_cell_setting           tetragonal
_symmetry_space_group_name_H-M   'P 4/m m m'
_symmetry_Int_Tables_number      123
_space_group_name_Hall           '-P 4 2'
loop_
_symmetry_equiv_pos_site_id
_symmetry_equiv_pos_as_xyz
1 x,y,z
2 -x,-y,z
3 -y,x,z
4 y,-x,z
5 -x,y,-z
6 x,-y,-z
7 y,x,-z
8 -y,-x,-z
9 -x,-y,-z
10 x,y,-z
11 y,-x,-z
12 -y,x,-z
13 x,-y,z
14 -x,y,z
15 -y,-x,z
16 y,x,z
_cell_length_a                   15.6918(3)
_cell_length_b                   15.6918(3)
_cell_length_c                   9.4600(3)
_cell_angle_alpha                90
_cell_angle_beta                 90
_cell_angle_gamma                90
_cell_volume                     2329.36
loop_
_atom_site_label
_atom_site_type_symbol
_atom_site_fract_x
_atom_site_fract_y
_atom_site_fract_z
Zn1 Zn 1.0000 1.0000 0.84879(17)
N1 N 1.0000 1.0000 0.6399(13)
C1 C 1.0871(16) 1.0000 0.587(2)
O1 O 0.9105(3) 0.9105(3) 0.8866(8)
C2 C 0.8855(5) 0.8855(5) 1.0000
C3 C 0.8052(11) 0.8338(11) 1.0000
C4 C 0.7679(11) 0.8067(11) 0.8749(9)
H1 H 0.7916 0.8248 0.7874
C5 C 0.6971(12) 0.7540(14) 0.8740(9)
H2 H 0.6747 0.7349 0.7862
C6 C 0.6577(9) 0.7282(10) 1.0000
C7 C 0.5757(6) 0.6750(7) 1.0000
C8 C 0.5000 0.7167(9) 1.0000
H3 H 0.5000 0.7772 1.0000
C9 C 0.5847(4) 0.5847(4) 1.0000
C10 C 0.5439(9) 0.5000 1.0000
C1A C 0.9129(16) 1.0000 0.587(2)
C1B C 1.0000 1.0871(16) 0.587(2)
C1C C 1.0000 0.9129(16) 0.587(2)
N1D N 1.0000 1.0000 0.3601(13)
C1D C 0.9129(16) 1.0000 0.413(2)
C1E C 1.0871(16) 1.0000 0.413(2)
C1F C 1.0000 1.0871(16) 0.413(2)
C1G C 1.0000 0.9129(16) 0.413(2)
O1A O 0.0895(3) 0.0895(3) 0.8866(8)
C2A C 0.1145(5) 0.1145(5) 1.0000
C3A C 0.1948(11) 0.1662(11) 1.0000
C4A C 0.2321(11) 0.1933(11) 0.8749(9)
H1A H 0.2084 0.1752 0.7874
C5A C 0.3029(12) 0.2460(14) 0.8740(9)
H2A H 0.3253 0.2651 0.7862
C6A C 0.3423(9) 0.2718(10) 1.0000
C7A C 0.4243(6) 0.3250(7) 1.0000
C8A C 0.5000 0.2833(9) 1.0000
H3A H 0.5000 0.2228 1.0000
C9A C 0.4153(4) 0.4153(4) 1.0000
C10A C 0.4561(9) 0.5000 1.0000
O1B O 0.0895(3) 0.9105(3) 0.8866(8)
C2B C 0.1145(5) 0.8855(5) 1.0000
C3B C 0.1662(11) 0.8052(11) 1.0000
C4B C 0.1933(11) 0.7679(11) 0.8749(9)
H1B H 0.1752 0.7916 0.7874
C5B C 0.2460(14) 0.6971(12) 0.8740(9)
H2B H 0.2651 0.6747 0.7862
C6B C 0.2718(10) 0.6577(9) 1.0000
C7B C 0.3250(7) 0.5757(6) 1.0000
C8B C 0.2833(9) 0.5000 1.0000
H3B H 0.2228 0.5000 1.0000
C9B C 0.4153(4) 0.5847(4) 1.0000
C10B C 0.5000 0.5439(9) 1.0000
O1C O 0.9105(3) 0.0895(3) 0.8866(8)
C2C C 0.8855(5) 0.1145(5) 1.0000
C3C C 0.8338(11) 0.1948(11) 1.0000
C4C C 0.8067(11) 0.2321(11) 0.8749(9)
H1C H 0.8248 0.2084 0.7874
C5C C 0.7540(14) 0.3029(12) 0.8740(9)
H2C H 0.7349 0.3253 0.7862
C6C C 0.7282(10) 0.3423(9) 1.0000
C7C C 0.6750(7) 0.4243(6) 1.0000
C8C C 0.7167(9) 0.5000 1.0000
H3C H 0.7772 0.5000 1.0000
C9C C 0.5847(4) 0.4153(4) 1.0000
C10C C 0.5000 0.4561(9) 1.0000
O1D O 0.0895(3) 0.9105(3) 1.1134(8)
C3D C 0.1948(11) 0.8338(11) 1.0000
C4D C 0.2321(11) 0.8067(11) 1.1251(9)
H1D H 0.2084 0.8248 1.2126
C5D C 0.3029(12) 0.7540(14) 1.1260(9)
H2D H 0.3253 0.7349 1.2138
C6D C 0.3423(9) 0.7282(10) 1.0000
C7D C 0.4243(6) 0.6750(7) 1.0000
O1E O 0.9105(3) 0.0895(3) 1.1134(8)
C3E C 0.8052(11) 0.1662(11) 1.0000
C4E C 0.7679(11) 0.1933(11) 1.1251(9)
H1E H 0.7916 0.1752 1.2126
C5E C 0.6971(12) 0.2460(14) 1.1260(9)
H2E H 0.6747 0.2651 1.2138
C6E C 0.6577(9) 0.2718(10) 1.0000
C7E C 0.5757(6) 0.3250(7) 1.0000
O1F O 0.9105(3) 0.9105(3) 1.1134(8)
C3F C 0.8338(11) 0.8052(11) 1.0000
C4F C 0.8067(11) 0.7679(11) 1.1251(9)
H1F H 0.8248 0.7916 1.2126
C5F C 0.7540(14) 0.6971(12) 1.1260(9)
H2F H 0.7349 0.6747 1.2138
C6F C 0.7282(10) 0.6577(9) 1.0000
C7F C 0.6750(7) 0.5757(6) 1.0000
O1G O 0.0895(3) 0.0895(3) 1.1134(8)
C3G C 0.1662(11) 0.1948(11) 1.0000
C4G C 0.1933(11) 0.2321(11) 1.1251(9)
H1G H 0.1752 0.2084 1.2126
C5G C 0.2460(14) 0.3029(12) 1.1260(9)
H2G H 0.2651 0.3253 1.2138
C6G C 0.2718(10) 0.3423(9) 1.0000
C7G C 0.3250(7) 0.4243(6) 1.0000
C4H C 0.2321(11) 0.1933(11) 1.1251(9)
H1H H 0.2084 0.1752 1.2126
C5H C 0.3029(12) 0.2460(14) 1.1260(9)
H2H H 0.3253 0.2651 1.2138
C4I C 0.7679(11) 0.8067(11) 1.1251(9)
H1I H 0.7916 0.8248 1.2126
C5I C 0.6971(12) 0.7540(14) 1.1260(9)
H2I H 0.6747 0.7349 1.2138
C4J C 0.8067(11) 0.2321(11) 1.1251(9)
H1J H 0.8248 0.2084 1.2126
C5J C 0.7540(14) 0.3029(12) 1.1260(9)
H2J H 0.7349 0.3253 1.2138
C4K C 0.1933(11) 0.7679(11) 1.1251(9)
H1K H 0.1752 0.7916 1.2126
C5K C 0.2460(14) 0.6971(12) 1.1260(9)
H2K H 0.2651 0.6747 1.2138
C4L C 0.7679(11) 0.1933(11) 0.8749(9)
H1L H 0.7916 0.1752 0.7874
C5L C 0.6971(12) 0.2460(14) 0.8740(9)
H2L H 0.6747 0.2651 0.7862
C4M C 0.2321(11) 0.8067(11) 0.8749(9)
H1M H 0.2084 0.8248 0.7874
C5M C 0.3029(12) 0.7540(14) 0.8740(9)
H2M H 0.3253 0.7349 0.7862
C4N C 0.1933(11) 0.2321(11) 0.8749(9)
H1N H 0.1752 0.2084 0.7874
C5N C 0.2460(14) 0.3029(12) 0.8740(9)
H2N H 0.2651 0.3253 0.7862
C4O C 0.8067(11) 0.7679(11) 0.8749(9)
H1O H 0.8248 0.7916 0.7874
C5O C 0.7540(14) 0.6971(12) 0.8740(9)
H2O H 0.7349 0.6747 0.7862
Zn1D Zn 1.0000 1.0000 0.15121(17)
Zn1_2 Zn 0.0000 0.0000 0.84879(17)
Zn1_3 Zn -0.0000 1.0000 0.84879(17)
Zn1_4 Zn 1.0000 0.0000 0.84879(17)
Zn1D_2 Zn 0.0000 0.0000 1.15121(17)
Zn1D_3 Zn -0.0000 1.0000 1.15121(17)
Zn1D_4 Zn 1.0000 0.0000 1.15121(17)
Zn1D_5 Zn 1.0000 1.0000 1.15121(17)
O1A_2 O 1.0895(3) 1.0895(3) 0.8866(8)
O1B_2 O 1.0895(3) 0.9105(3) 0.8866(8)
O1C_2 O 0.9105(3) 1.0895(3) 0.8866(8)
O1D_2 O 1.0895(3) 0.9105(3) 0.1134(8)
O1E_2 O 0.9105(3) 1.0895(3) 0.1134(8)
O1F_2 O 0.9105(3) 0.9105(3) 0.1134(8)
O1G_2 O 1.0895(3) 1.0895(3) 0.1134(8)
loop_
_geom_bond_atom_site_label_1
_geom_bond_atom_site_label_2
_geom_bond_site_symmetry_1
_geom_bond_site_symmetry_2
Zn1 N1 1_555 1_555
N1 C1 1_555 1_555
C1 C1E 1_555 1_555
O1 Zn1 1_555 1_555
C2 O1 1_555 1_555
C3 C2 1_555 1_555
C4 C3 1_555 1_555
H1 C4 1_555 1_555
C5 C4 1_555 1_555
H2 C5 1_555 1_555
C6 C5 1_555 1_555
C7 C6 1_555 1_555
C8 C7 1_555 1_555
H3 C8 1_555 1_555
C9 C7 1_555 1_555
C10 C9 1_555 1_555
C1A N1 1_555 1_555
C1B N1 1_555 1_555
C1C N1 1_555 1_555
N1D C1D 1_555 1_555
C1D C1A 1_555 1_555
C1E N1D 1_555 1_555
C1F C1B 1_555 1_555
C1G C1C 1_555 1_555
O1A C2A 1_555 1_555
C2A C3A 1_555 1_555
C3A C4A 1_555 1_555
C4A H1A 1_555 1_555
H1A C4N 1_555 1_555
C5A C4A 1_555 1_555
H2A C5A 1_555 1_555
C6A C5A 1_555 1_555
C7A C6A 1_555 1_555
C8A C7A 1_555 1_555
H3A C8A 1_555 1_555
C9A C7A 1_555 1_555
C10A C10 1_555 1_555
O1B C2B 1_555 1_555
C2B C3B 1_555 1_555
C3B C4B 1_555 1_555
C4B H1B 1_555 1_555
H1B C4M 1_555 1_555
C5B C4B 1_555 1_555
H2B C5B 1_555 1_555
C6B C5B 1_555 1_555
C7B C6B 1_555 1_555
C8B C7B 1_555 1_555
H3B C8B 1_555 1_555
C9B C10A 1_555 1_555
C10B C9 1_555 1_555
O1C C2C 1_555 1_555
C2C C3C 1_555 1_555
C3C C4C 1_555 1_555
C4C H1C 1_555 1_555
H1C C4L 1_555 1_555
C5C C4C 1_555 1_555
H2C C5C 1_555 1_555
C6C C5C 1_555 1_555
C7C C6C 1_555 1_555
C8C C7C 1_555 1_555
H3C C8C 1_555 1_555
C9C C10 1_555 1_555
C10C C10 1_555 1_555
O1D C2B 1_555 1_555
C3D C2B 1_555 1_555
C4D C3B 1_555 1_555
H1D C4D 1_555 1_555
C5D C4D 1_555 1_555
H2D C5D 1_555 1_555
C6D C6B 1_555 1_555
C7D C8 1_555 1_555
O1E C2C 1_555 1_555
C3E C2C 1_555 1_555
C4E C3C 1_555 1_555
H1E C4E 1_555 1_555
C5E C4E 1_555 1_555
H2E C5E 1_555 1_555
C6E C6C 1_555 1_555
C7E C8A 1_555 1_555
O1F C2 1_555 1_555
C3F C2 1_555 1_555
C4F C3 1_555 1_555
H1F C4F 1_555 1_555
C5F C4F 1_555 1_555
H2F C5F 1_555 1_555
C6F C6 1_555 1_555
C7F C9 1_555 1_555
O1G C2A 1_555 1_555
C3G C2A 1_555 1_555
C4G C3A 1_555 1_555
H1G C4G 1_555 1_555
C5G C4G 1_555 1_555
H2G C5G 1_555 1_555
C6G C6A 1_555 1_555
C7G C9A 1_555 1_555
C4H C3A 1_555 1_555
H1H C4G 1_555 1_555
C5H C6A 1_555 1_555
H2H C5H 1_555 1_555
C4I C3 1_555 1_555
H1I C4F 1_555 1_555
C5I C6 1_555 1_555
H2I C5I 1_555 1_555
C4J C3C 1_555 1_555
H1J C4E 1_555 1_555
C5J C6C 1_555 1_555
H2J C5J 1_555 1_555
C4K C3B 1_555 1_555
H1K C4D 1_555 1_555
C5K C6B 1_555 1_555
H2K C5K 1_555 1_555
C4L C3C 1_555 1_555
H1L C4C 1_555 1_555
C5L C4C 1_555 1_555
H2L C5L 1_555 1_555
C4M C3B 1_555 1_555
H1M C4B 1_555 1_555
C5M C4B 1_555 1_555
H2M C5M 1_555 1_555
C4N C3A 1_555 1_555
H1N C4A 1_555 1_555
C5N C4A 1_555 1_555
H2N C5N 1_555 1_555
C4O C3 1_555 1_555
H1O C4 1_555 1_555
C5O C4 1_555 1_555
H2O C5O 1_555 1_555
Zn1D N1D 1_555 1_555
Zn1_2 O1A 1_555 1_555
Zn1_3 O1B 1_555 1_555
Zn1_4 O1C 1_555 1_555
Zn1D_2 O1G 1_555 1_555
Zn1D_3 O1D 1_555 1_555
Zn1D_4 O1E 1_555 1_555
Zn1D_5 O1F 1_555 1_555
O1A_2 Zn1 1_555 1_555
O1B_2 Zn1 1_555 1_555
O1C_2 Zn1 1_555 1_555
O1D_2 Zn1D 1_555 1_555
O1E_2 Zn1D 1_555 1_555
O1F_2 Zn1D 1_555 1_555
O1G_2 Zn1D 1_555 1_555
C3 C3F 1_555 1_555
C4 C3F 1_555 1_555
C4 C4O 1_555 1_555
H1 C4O 1_555 1_555
C5 C4O 1_555 1_555
C5 C5O 1_555 1_555
C10 C10B 1_555 1_555
N1D C1F 1_555 1_555
N1D C1G 1_555 1_555
C3A C3G 1_555 1_555
C4A C3G 1_555 1_555
C4A C4N 1_555 1_555
C5A C4N 1_555 1_555
C5A C5N 1_555 1_555
C9A C10A 1_555 1_555
C9A C10C 1_555 1_555
C10A C10B 1_555 1_555
C10A C10C 1_555 1_555
C3B C3D 1_555 1_555
C4B C3D 1_555 1_555
C4B C4M 1_555 1_555
C5B C4M 1_555 1_555
C5B C5M 1_555 1_555
C7B C9B 1_555 1_555
C8B C7G 1_555 1_555
C9B C10B 1_555 1_555
C9B C7D 1_555 1_555
C10B C10C 1_555 1_555
C3C C3E 1_555 1_555
C4C C3E 1_555 1_555
C4C C4L 1_555 1_555
C5C C4L 1_555 1_555
C5C C5L 1_555 1_555
C7C C9C 1_555 1_555
C8C C7F 1_555 1_555
C9C C10C 1_555 1_555
C9C C7E 1_555 1_555
C3D C4D 1_555 1_555
C3D C4K 1_555 1_555
C3D C4M 1_555 1_555
C4D C4K 1_555 1_555
C4D C5K 1_555 1_555
H1D C4K 1_555 1_555
C5D C6D 1_555 1_555
C5D C4K 1_555 1_555
C5D C5K 1_555 1_555
C6D C7D 1_555 1_555
C6D C5M 1_555 1_555
C3E C4E 1_555 1_555
C3E C4J 1_555 1_555
C3E C4L 1_555 1_555
C4E C4J 1_555 1_555
C4E C5J 1_555 1_555
H1E C4J 1_555 1_555
C5E C6E 1_555 1_555
C5E C4J 1_555 1_555
C5E C5J 1_555 1_555
C6E C7E 1_555 1_555
C6E C5L 1_555 1_555
C3F C4F 1_555 1_555
C3F C4I 1_555 1_555
C3F C4O 1_555 1_555
C4F C4I 1_555 1_555
C4F C5I 1_555 1_555
H1F C4I 1_555 1_555
C5F C6F 1_555 1_555
C5F C4I 1_555 1_555
C5F C5I 1_555 1_555
C6F C7F 1_555 1_555
C6F C5O 1_555 1_555
C3G C4G 1_555 1_555
C3G C4H 1_555 1_555
C3G C4N 1_555 1_555
C4G C4H 1_555 1_555
C4G C5H 1_555 1_555
H1G C4H 1_555 1_555
C5G C6G 1_555 1_555
C5G C4H 1_555 1_555
C5G C5H 1_555 1_555
C6G C7G 1_555 1_555
C6G C5N 1_555 1_555
C4H H1H 1_555 1_555
C4H C5H 1_555 1_555
C4I H1I 1_555 1_555
C4I C5I 1_555 1_555
C4J H1J 1_555 1_555
C4J C5J 1_555 1_555
C4K H1K 1_555 1_555
C4K C5K 1_555 1_555
C4L H1L 1_555 1_555
C4L C5L 1_555 1_555
C4M H1M 1_555 1_555
C4M C5M 1_555 1_555
C4N H1N 1_555 1_555
C4N C5N 1_555 1_555
C4O H1O 1_555 1_555
C4O C5O 1_555 1_555

#END
