
#######################################################################
#
#                 Cambridge Crystallographic Data Centre
#                                CCDC 
#
#######################################################################
#
# If this CIF has been generated from an entry in the Cambridge 
# Structural Database, then it will include bibliographic, chemical, 
# crystal, experimental, refinement or atomic coordinate data resulting 
# from the CCDC's data processing and validation procedures.
#
#######################################################################

data_DABGIZ
_chemical_formula_moiety         '(C60 H70 Cd5 Mo16 N12 O76 P8)n'
_symmetry_cell_setting           monoclinic
_symmetry_space_group_name_H-M   'P 21/c'
_symmetry_Int_Tables_number      14
_space_group_name_Hall           '-P 2ybc'
loop_
_symmetry_equiv_pos_site_id
_symmetry_equiv_pos_as_xyz
1 x,y,z
2 -x,1/2+y,1/2-z
3 -x,-y,-z
4 x,1/2-y,1/2+z
_cell_length_a                   12.9676(8)
_cell_length_b                   16.1701(11)
_cell_length_c                   30.9055(15)
_cell_angle_alpha                90
_cell_angle_beta                 91.249(2)
_cell_angle_gamma                90
_cell_volume                     6478.95
loop_
_atom_site_label
_atom_site_type_symbol
_atom_site_fract_x
_atom_site_fract_y
_atom_site_fract_z
Mo1 Mo 0.27865(4) 0.39430(3) -0.065539(17)
Mo2 Mo 0.30006(4) 0.54740(3) -0.092308(17)
Mo3 Mo 0.35138(4) 0.70763(3) -0.016374(18)
Mo4 Mo 0.36347(4) 0.67420(3) 0.066291(18)
Mo5 Mo 0.33325(4) 0.46690(4) 0.101793(17)
Mo6 Mo 0.30469(4) 0.34601(4) 0.046470(18)
Mo7 Mo 0.19492(5) 0.65353(4) 0.236909(19)
Mo8 Mo 0.10979(5) 0.68964(4) 0.307907(18)
Cd1 Cd -0.02210(4) 0.54053(3) 0.057167(16)
Cd2 Cd 0.5000 0.5000 0.0000
Cd3 Cd 0.10592(4) 0.74769(3) 0.066064(17)
P1 P 0.20921(12) 0.53497(10) 0.00865(5)
P2 P 0.17620(13) 0.61760(11) 0.13060(5)
P3 P -0.11485(13) 0.73024(11) 0.01568(6)
P4 P 0.16830(13) 0.72564(11) -0.09187(5)
O1 O 0.1793(3) 0.4760(3) -0.08673(14)
O2 O 0.3933(3) 0.4736(3) -0.05888(15)
O3 O 0.2403(3) 0.4445(3) -0.00066(13)
O4 O -0.1379(4) 0.6637(3) 0.04998(15)
O5 O 0.3528(4) 0.3216(3) -0.01741(14)
O6 O 0.3105(4) 0.3367(3) -0.10804(17)
O7 O 0.4374(3) 0.6287(3) 0.01662(15)
O8 O 0.2578(4) 0.7304(3) 0.03113(15)
O9 O 0.2543(4) 0.6830(3) 0.11383(15)
O10 O 0.2598(3) 0.5591(3) 0.05216(14)
O11 O 0.4231(3) 0.5757(3) 0.10185(16)
O12 O 0.4427(4) 0.7484(3) 0.08410(16)
O13 O 0.4125(4) 0.4316(3) 0.05126(15)
O14 O 0.2162(3) 0.3972(3) 0.08802(15)
O15 O -0.1723(4) 0.7136(3) -0.02644(16)
O16 O 0.3619(4) 0.2665(3) 0.07177(18)
O17 O 0.2556(3) 0.5915(3) -0.02623(14)
O18 O 0.3986(3) 0.6449(3) -0.07311(15)
O19 O 0.1962(4) 0.6395(3) -0.10679(16)
O20 O 0.3431(4) 0.5344(3) -0.14232(16)
O21 O 0.2402(4) 0.7585(3) -0.05631(16)
O22 O 0.4309(4) 0.7882(3) -0.01819(17)
O23 O 0.2289(4) 0.5337(3) 0.13614(15)
O24 O 0.3953(4) 0.4206(3) 0.14346(16)
O25 O 0.0925(4) 0.5415(3) 0.00608(15)
O26 O 0.0854(4) 0.6197(3) 0.09843(15)
O27 O 0.0219(4) 0.4332(4) 0.09804(19)
O28 O -0.0003(4) 0.7332(3) 0.00908(16)
O29 O -0.1464(5) 0.8165(3) 0.03345(19)
O30 O 0.0569(4) 0.7204(4) -0.07371(18)
O31 O 0.0598(4) 0.6954(3) 0.24839(15)
O32 O 0.2507(4) 0.6998(3) 0.29073(16)
O33 O 0.1384(4) 0.6455(3) 0.17449(15)
O34 O 0.2022(5) 0.5504(3) 0.24436(19)
O35 O 0.1642(5) 0.7841(3) -0.12991(17)
O36 O 0.0799(5) 0.5924(3) 0.32364(19)
N1 N 0.1068(6) 0.8883(5) 0.0632(3)
N2 N -0.0085(5) 0.7955(4) 0.1176(2)
N3 N 0.2377(6) 0.7800(4) 0.2071(2)
N4 N 0.3587(5) 0.6499(5) 0.2154(2)
N5 N -0.0537(6) 0.7264(4) 0.3219(2)
N6 N 0.0929(5) 0.8335(4) 0.3036(2)
C1 C 0.1601(10) 0.9293(7) 0.0353(4)
H1 H 0.2071 0.9009 0.0185
C2 C 0.1490(12) 1.0151(9) 0.0295(5)
H2 H 0.1932 1.0439 0.0115
C3 C 0.0709(12) 1.0564(10) 0.0510(5)
H3 H 0.0576 1.1120 0.0457
C4 C 0.0140(11) 1.0127(7) 0.0802(5)
H4 H -0.0364 1.0390 0.0961
C5 C -0.0951(11) 0.9111(7) 0.1452(5)
H5 H -0.1064 0.9679 0.1446
C6 C -0.1459(13) 0.8632(10) 0.1740(6)
H6 H -0.1932 0.8865 0.1926
C7 C -0.1254(10) 0.7758(8) 0.1751(4)
H7 H -0.1570 0.7407 0.1947
C8 C -0.0565(7) 0.7476(6) 0.1457(3)
H8 H -0.0423 0.6912 0.1453
C9 C 0.0335(9) 0.9259(6) 0.0859(3)
C10 C -0.0273(7) 0.8762(6) 0.1170(3)
C11 C 0.1704(9) 0.8388(6) 0.1998(3)
H9 H 0.1027 0.8306 0.2083
C12 C 0.1963(12) 0.9152(8) 0.1795(4)
H10 H 0.1494 0.9582 0.1755
C13 C 0.2966(13) 0.9196(10) 0.1662(6)
H11 H 0.3182 0.9679 0.1528
C14 C 0.3669(13) 0.8567(9) 0.1716(5)
H12 H 0.4333 0.8612 0.1611
C15 C 0.5123(10) 0.7153(10) 0.1887(4)
H13 H 0.5447 0.7616 0.1774
C16 C 0.5649(12) 0.6450(9) 0.1947(5)
H14 H 0.6342 0.6429 0.1878
C17 C 0.5194(11) 0.5775(9) 0.2106(5)
H15 H 0.5568 0.5291 0.2151
C18 C 0.4140(8) 0.5813(8) 0.2202(4)
H16 H 0.3818 0.5339 0.2303
C19 C 0.3364(8) 0.7878(7) 0.1928(3)
C20 C 0.4045(8) 0.7188(8) 0.1998(3)
C21 C -0.1249(9) 0.6701(7) 0.3324(4)
H17 H -0.1034 0.6163 0.3381
C22 C -0.2267(10) 0.6880(9) 0.3350(5)
H18 H -0.2742 0.6478 0.3428
C23 C -0.2568(10) 0.7663(9) 0.3257(5)
H19 H -0.3264 0.7799 0.3263
C24 C -0.1867(8) 0.8256(7) 0.3156(4)
H20 H -0.2079 0.8796 0.3100
C25 C -0.0223(9) 0.9471(6) 0.2976(4)
H21 H -0.0897 0.9668 0.2976
C26 C 0.0592(10) 0.9998(6) 0.2907(4)
H22 H 0.0475 1.0558 0.2860
C27 C 0.1574(8) 0.9691(5) 0.2910(3)
H23 H 0.2132 1.0038 0.2863
C28 C 0.1723(7) 0.8852(5) 0.2982(3)
H24 H 0.2392 0.8644 0.2995
C29 C -0.0844(7) 0.8044(5) 0.3138(3)
C30 C -0.0016(7) 0.8641(5) 0.3046(3)
Mo1B Mo -0.27865(4) 0.60570(3) 0.065539(17)
Mo2B Mo -0.30006(4) 0.45260(3) 0.092308(17)
Mo3B Mo -0.35138(4) 0.29237(3) 0.016374(18)
Mo4B Mo -0.36347(4) 0.32580(3) -0.066291(18)
Mo5B Mo -0.33325(4) 0.53310(4) -0.101793(17)
Mo6B Mo -0.30469(4) 0.65399(4) -0.046470(18)
Mo7B Mo -0.19492(5) 0.34647(4) -0.236909(19)
Mo8B Mo -0.10979(5) 0.31036(4) -0.307907(18)
Cd1B Cd 0.02210(4) 0.45947(3) -0.057167(16)
Cd3B Cd -0.10592(4) 0.25231(3) -0.066064(17)
P1B P -0.20921(12) 0.46503(10) -0.00865(5)
P2B P -0.17620(13) 0.38240(11) -0.13060(5)
P3B P 0.11485(13) 0.26976(11) -0.01568(6)
P4B P -0.16830(13) 0.27436(11) 0.09187(5)
O1B O -0.1793(3) 0.5240(3) 0.08673(14)
O2B O -0.3933(3) 0.5264(3) 0.05888(15)
O3B O -0.2403(3) 0.5555(3) 0.00066(13)
O4B O 0.1379(4) 0.3363(3) -0.04998(15)
O5B O -0.3528(4) 0.6784(3) 0.01741(14)
O6B O -0.3105(4) 0.6633(3) 0.10804(17)
O7B O -0.4374(3) 0.3713(3) -0.01662(15)
O8B O -0.2578(4) 0.2696(3) -0.03113(15)
O9B O -0.2543(4) 0.3170(3) -0.11383(15)
O10B O -0.2598(3) 0.4409(3) -0.05216(14)
O11B O -0.4231(3) 0.4243(3) -0.10185(16)
O12B O -0.4427(4) 0.2516(3) -0.08410(16)
O13B O -0.4125(4) 0.5684(3) -0.05126(15)
O14B O -0.2162(3) 0.6028(3) -0.08802(15)
O15B O 0.1723(4) 0.2864(3) 0.02644(16)
O16B O -0.3619(4) 0.7335(3) -0.07177(18)
O17B O -0.2556(3) 0.4085(3) 0.02623(14)
O18B O -0.3986(3) 0.3551(3) 0.07311(15)
O19B O -0.1962(4) 0.3605(3) 0.10679(16)
O20B O -0.3431(4) 0.4656(3) 0.14232(16)
O21B O -0.2402(4) 0.2415(3) 0.05631(16)
O22B O -0.4309(4) 0.2118(3) 0.01819(17)
O23B O -0.2289(4) 0.4663(3) -0.13614(15)
O24B O -0.3953(4) 0.5794(3) -0.14346(16)
O25B O -0.0925(4) 0.4585(3) -0.00608(15)
O26B O -0.0854(4) 0.3803(3) -0.09843(15)
O27B O -0.0219(4) 0.5668(4) -0.09804(19)
O28B O 0.0003(4) 0.2668(3) -0.00908(16)
O29B O 0.1464(5) 0.1835(3) -0.03345(19)
O30B O -0.0569(4) 0.2796(4) 0.07371(18)
O31B O -0.0598(4) 0.3046(3) -0.24839(15)
O32B O -0.2507(4) 0.3002(3) -0.29073(16)
O33B O -0.1384(4) 0.3545(3) -0.17449(15)
O34B O -0.2022(5) 0.4496(3) -0.24436(19)
O35B O -0.1642(5) 0.2159(3) 0.12991(17)
O36B O -0.0799(5) 0.4076(3) -0.32364(19)
N1B N -0.1068(6) 0.1117(5) -0.0632(3)
N2B N 0.0085(5) 0.2045(4) -0.1176(2)
N3B N -0.2377(6) 0.2200(4) -0.2071(2)
N4B N -0.3587(5) 0.3501(5) -0.2154(2)
N5B N 0.0537(6) 0.2736(4) -0.3219(2)
N6B N -0.0929(5) 0.1665(4) -0.3036(2)
C1B C -0.1601(10) 0.0707(7) -0.0353(4)
H1B H -0.2071 0.0991 -0.0185
C2B C -0.1490(12) -0.0151(9) -0.0295(5)
H2B H -0.1932 -0.0439 -0.0115
C3B C -0.0709(12) -0.0564(10) -0.0510(5)
H3B H -0.0576 -0.1120 -0.0457
C4B C -0.0140(11) -0.0127(7) -0.0802(5)
H4B H 0.0364 -0.0390 -0.0961
C5B C 0.0951(11) 0.0889(7) -0.1452(5)
H5B H 0.1064 0.0321 -0.1446
C6B C 0.1459(13) 0.1368(10) -0.1740(6)
H6B H 0.1932 0.1135 -0.1926
C7B C 0.1254(10) 0.2242(8) -0.1751(4)
H7B H 0.1570 0.2593 -0.1947
C8B C 0.0565(7) 0.2524(6) -0.1457(3)
H8B H 0.0423 0.3088 -0.1453
C9B C -0.0335(9) 0.0741(6) -0.0859(3)
C10B C 0.0273(7) 0.1238(6) -0.1170(3)
C11B C -0.1704(9) 0.1612(6) -0.1998(3)
H9B H -0.1027 0.1694 -0.2083
C12B C -0.1963(12) 0.0848(8) -0.1795(4)
H10B H -0.1494 0.0418 -0.1755
C13B C -0.2966(13) 0.0804(10) -0.1662(6)
H11B H -0.3182 0.0321 -0.1528
C14B C -0.3669(13) 0.1433(9) -0.1716(5)
H12B H -0.4333 0.1388 -0.1611
C15B C -0.5123(10) 0.2847(10) -0.1887(4)
H13B H -0.5447 0.2384 -0.1774
C16B C -0.5649(12) 0.3550(9) -0.1947(5)
H14B H -0.6342 0.3571 -0.1878
C17B C -0.5194(11) 0.4225(9) -0.2106(5)
H15B H -0.5568 0.4709 -0.2151
C18B C -0.4140(8) 0.4187(8) -0.2202(4)
H16B H -0.3818 0.4661 -0.2303
C19B C -0.3364(8) 0.2122(7) -0.1928(3)
C20B C -0.4045(8) 0.2812(8) -0.1998(3)
C21B C 0.1249(9) 0.3299(7) -0.3324(4)
H17B H 0.1034 0.3837 -0.3381
C22B C 0.2267(10) 0.3120(9) -0.3350(5)
H18B H 0.2742 0.3522 -0.3428
C23B C 0.2568(10) 0.2337(9) -0.3257(5)
H19B H 0.3264 0.2201 -0.3263
C24B C 0.1867(8) 0.1744(7) -0.3156(4)
H20B H 0.2079 0.1204 -0.3100
C25B C 0.0223(9) 0.0529(6) -0.2976(4)
H21B H 0.0897 0.0332 -0.2976
C26B C -0.0592(10) 0.0002(6) -0.2907(4)
H22B H -0.0475 -0.0558 -0.2860
C27B C -0.1574(8) 0.0309(5) -0.2910(3)
H23B H -0.2132 -0.0038 -0.2863
C28B C -0.1723(7) 0.1148(5) -0.2982(3)
H24B H -0.2392 0.1356 -0.2995
C29B C 0.0844(7) 0.1956(5) -0.3138(3)
C30B C 0.0016(7) 0.1359(5) -0.3046(3)
Mo8A Mo -0.10979(5) 0.18964(4) 0.192093(18)
Mo8C Mo 0.10979(5) 0.81036(4) -0.192093(18)
Cd2_2 Cd -0.5000 0.5000 0.0000
O2B_2 O 0.6067(3) 0.5264(3) 0.05888(15)
O7B_2 O 0.5626(3) 0.3713(3) -0.01662(15)
O13B_2 O 0.5875(4) 0.5684(3) -0.05126(15)
O35A O -0.1642(5) 0.2841(3) -0.37009(17)
O35C O 0.1642(5) 0.7159(3) 0.37009(17)
O37 O 0.4274(15) 0.7493(11) 0.3400(7)
O38 O 0.3386(12) 0.1487(10) -0.0444(5)
O39 O 0.474(3) 0.860(2) 0.2818(11)
O40 O 0.279(2) 0.9349(16) -0.0809(9)
loop_
_geom_bond_atom_site_label_1
_geom_bond_atom_site_label_2
_geom_bond_site_symmetry_1
_geom_bond_site_symmetry_2
Mo1 O1 1_555 1_555
Mo2 O1 1_555 1_555
Mo3 O7 1_555 1_555
Mo4 O7 1_555 1_555
Mo5 O10 1_555 1_555
Mo6 O3 1_555 1_555
Mo7 O31 1_555 1_555
Mo8 O31 1_555 1_555
Cd1 O4 1_555 1_555
Cd2 O2 1_555 1_555
Cd3 O8 1_555 1_555
P1 O3 1_555 1_555
P2 O9 1_555 1_555
P3 O4 1_555 1_555
P4 O19 1_555 1_555
O1 Cd1B 1_555 1_555
O2 Mo1 1_555 1_555
O3 Mo1 1_555 1_555
O4 Mo1B 1_555 1_555
O5 Mo1 1_555 1_555
O6 Mo1 1_555 1_555
O7 Cd2 1_555 1_555
O8 Mo3 1_555 1_555
O9 Mo4 1_555 1_555
O10 Mo4 1_555 1_555
O11 Mo4 1_555 1_555
O12 Mo4 1_555 1_555
O13 Mo5 1_555 1_555
O14 Mo5 1_555 1_555
O15 P3 1_555 1_555
O16 Mo6 1_555 1_555
O17 Mo2 1_555 1_555
O18 Mo2 1_555 1_555
O19 Mo2 1_555 1_555
O20 Mo2 1_555 1_555
O21 Mo3 1_555 1_555
O22 Mo3 1_555 1_555
O23 Mo5 1_555 1_555
O24 Mo5 1_555 1_555
O25 Cd1 1_555 1_555
O26 Cd1 1_555 1_555
O27 Cd1 1_555 1_555
O28 Cd3 1_555 1_555
O29 P3 1_555 1_555
O30 P4 1_555 1_555
O32 Mo7 1_555 1_555
O33 Mo7 1_555 1_555
O34 Mo7 1_555 1_555
O35 P4 1_555 1_555
O36 Mo8 1_555 1_555
N1 Cd3 1_555 1_555
N2 Cd3 1_555 1_555
N3 Mo7 1_555 1_555
N4 Mo7 1_555 1_555
N5 Mo8 1_555 1_555
N6 Mo8 1_555 1_555
C1 N1 1_555 1_555
H1 C1 1_555 1_555
C2 C1 1_555 1_555
H2 C2 1_555 1_555
C3 C2 1_555 1_555
H3 C3 1_555 1_555
C4 C3 1_555 1_555
H4 C4 1_555 1_555
C5 H5 1_555 1_555
C6 C5 1_555 1_555
H6 C6 1_555 1_555
C7 C6 1_555 1_555
H7 C7 1_555 1_555
C8 N2 1_555 1_555
H8 C8 1_555 1_555
C9 N1 1_555 1_555
C10 N2 1_555 1_555
C11 N3 1_555 1_555
H9 C11 1_555 1_555
C12 C11 1_555 1_555
H10 C12 1_555 1_555
C13 C12 1_555 1_555
H11 C13 1_555 1_555
C14 C13 1_555 1_555
H12 C14 1_555 1_555
C15 H13 1_555 1_555
C16 C15 1_555 1_555
H14 C16 1_555 1_555
C17 C16 1_555 1_555
H15 C17 1_555 1_555
C18 N4 1_555 1_555
H16 C18 1_555 1_555
C19 N3 1_555 1_555
C20 N4 1_555 1_555
C21 N5 1_555 1_555
H17 C21 1_555 1_555
C22 C21 1_555 1_555
H18 C22 1_555 1_555
C23 C22 1_555 1_555
H19 C23 1_555 1_555
C24 C23 1_555 1_555
H20 C24 1_555 1_555
C25 H21 1_555 1_555
C26 C25 1_555 1_555
H22 C26 1_555 1_555
C27 C26 1_555 1_555
H23 C27 1_555 1_555
C28 N6 1_555 1_555
H24 C28 1_555 1_555
C29 N5 1_555 1_555
C30 N6 1_555 1_555
Mo1B O1B 1_555 1_555
Mo2B O1B 1_555 1_555
Mo3B O7B 1_555 1_555
Mo4B O7B 1_555 1_555
Mo5B O10B 1_555 1_555
Mo6B O15 1_555 1_555
Mo7B O31B 1_555 1_555
Mo8B O31B 1_555 1_555
Cd1B O25 1_555 1_555
Cd3B O8B 1_555 1_555
P1B O3B 1_555 1_555
P2B O9B 1_555 1_555
P3B O4B 1_555 1_555
P4B O19B 1_555 1_555
O1B Cd1 1_555 1_555
O2B Mo1B 1_555 1_555
O3B Mo1B 1_555 1_555
O4B Mo1 1_555 1_555
O5B Mo1B 1_555 1_555
O6B Mo1B 1_555 1_555
O7B Cd2_2 1_555 1_555
O8B Mo3B 1_555 1_555
O9B Mo4B 1_555 1_555
O10B Mo4B 1_555 1_555
O11B Mo4B 1_555 1_555
O12B Mo4B 1_555 1_555
O13B Mo5B 1_555 1_555
O14B Mo5B 1_555 1_555
O15B Mo6 1_555 1_555
O16B Mo6B 1_555 1_555
O17B Mo2B 1_555 1_555
O18B Mo2B 1_555 1_555
O19B Mo2B 1_555 1_555
O20B Mo2B 1_555 1_555
O21B Mo3B 1_555 1_555
O22B Mo3B 1_555 1_555
O23B Mo5B 1_555 1_555
O24B Mo5B 1_555 1_555
O25B Cd1 1_555 1_555
O26B Cd1B 1_555 1_555
O27B Cd1B 1_555 1_555
O28B Cd3B 1_555 1_555
O29B P3B 1_555 1_555
O30B P4B 1_555 1_555
O32B Mo7B 1_555 1_555
O33B Mo7B 1_555 1_555
O34B Mo7B 1_555 1_555
O35B P4B 1_555 1_555
O36B Mo8B 1_555 1_555
N1B Cd3B 1_555 1_555
N2B Cd3B 1_555 1_555
N3B Mo7B 1_555 1_555
N4B Mo7B 1_555 1_555
N5B Mo8B 1_555 1_555
N6B Mo8B 1_555 1_555
C1B N1B 1_555 1_555
H1B C1B 1_555 1_555
C2B C1B 1_555 1_555
H2B C2B 1_555 1_555
C3B C2B 1_555 1_555
H3B C3B 1_555 1_555
C4B C3B 1_555 1_555
H4B C4B 1_555 1_555
C5B H5B 1_555 1_555
C6B C5B 1_555 1_555
H6B C6B 1_555 1_555
C7B C6B 1_555 1_555
H7B C7B 1_555 1_555
C8B N2B 1_555 1_555
H8B C8B 1_555 1_555
C9B N1B 1_555 1_555
C10B N2B 1_555 1_555
C11B N3B 1_555 1_555
H9B C11B 1_555 1_555
C12B C11B 1_555 1_555
H10B C12B 1_555 1_555
C13B C12B 1_555 1_555
H11B C13B 1_555 1_555
C14B C13B 1_555 1_555
H12B C14B 1_555 1_555
C15B H13B 1_555 1_555
C16B C15B 1_555 1_555
H14B C16B 1_555 1_555
C17B C16B 1_555 1_555
H15B C17B 1_555 1_555
C18B N4B 1_555 1_555
H16B C18B 1_555 1_555
C19B N3B 1_555 1_555
C20B N4B 1_555 1_555
C21B N5B 1_555 1_555
H17B C21B 1_555 1_555
C22B C21B 1_555 1_555
H18B C22B 1_555 1_555
C23B C22B 1_555 1_555
H19B C23B 1_555 1_555
C24B C23B 1_555 1_555
H20B C24B 1_555 1_555
C25B H21B 1_555 1_555
C26B C25B 1_555 1_555
H22B C26B 1_555 1_555
C27B C26B 1_555 1_555
H23B C27B 1_555 1_555
C28B N6B 1_555 1_555
H24B C28B 1_555 1_555
C29B N5B 1_555 1_555
C30B N6B 1_555 1_555
Mo8A O35B 1_555 1_555
Mo8C O35 1_555 1_555
Cd2_2 O2B 1_555 1_555
O2B_2 Cd2 1_555 1_555
O7B_2 Cd2 1_555 1_555
O13B_2 Cd2 1_555 1_555
O35A Mo8B 1_555 1_555
O35C Mo8 1_555 1_555
Mo2 O2 1_555 1_555
Mo3 O17 1_555 1_555
Mo3 O18 1_555 1_555
Mo4 O8 1_555 1_555
Mo5 O11 1_555 1_555
Mo6 O5 1_555 1_555
Mo6 O13 1_555 1_555
Mo6 O14 1_555 1_555
Mo8 O32 1_555 1_555
Cd2 O13 1_555 1_555
Cd3 O9 1_555 1_555
Cd3 O26 1_555 1_555
P1 O10 1_555 1_555
P1 O17 1_555 1_555
P1 O25 1_555 1_555
P2 O23 1_555 1_555
P2 O26 1_555 1_555
P2 O33 1_555 1_555
P3 O28 1_555 1_555
P4 O21 1_555 1_555
C4 C9 1_555 1_555
C5 C10 1_555 1_555
C7 C8 1_555 1_555
C9 C10 1_555 1_555
C14 C19 1_555 1_555
C15 C20 1_555 1_555
C17 C18 1_555 1_555
C19 C20 1_555 1_555
C24 C29 1_555 1_555
C25 C30 1_555 1_555
C27 C28 1_555 1_555
C29 C30 1_555 1_555
Mo2B O2B 1_555 1_555
Mo3B O17B 1_555 1_555
Mo3B O18B 1_555 1_555
Mo4B O8B 1_555 1_555
Mo5B O11B 1_555 1_555
Mo6B O3B 1_555 1_555
Mo6B O5B 1_555 1_555
Mo6B O13B 1_555 1_555
Mo6B O14B 1_555 1_555
Mo8B O32B 1_555 1_555
Cd1B O4B 1_555 1_555
Cd1B O25B 1_555 1_555
Cd3B O9B 1_555 1_555
Cd3B O26B 1_555 1_555
P1B O10B 1_555 1_555
P1B O17B 1_555 1_555
P1B O25B 1_555 1_555
P2B O23B 1_555 1_555
P2B O26B 1_555 1_555
P2B O33B 1_555 1_555
P3B O15B 1_555 1_555
P3B O28B 1_555 1_555
P4B O21B 1_555 1_555
O13B Cd2_2 1_555 1_555
C4B C9B 1_555 1_555
C5B C10B 1_555 1_555
C7B C8B 1_555 1_555
C9B C10B 1_555 1_555
C14B C19B 1_555 1_555
C15B C20B 1_555 1_555
C17B C18B 1_555 1_555
C19B C20B 1_555 1_555
C24B C29B 1_555 1_555
C25B C30B 1_555 1_555
C27B C28B 1_555 1_555
C29B C30B 1_555 1_555

#END
