
#######################################################################
#
#                 Cambridge Crystallographic Data Centre
#                                CCDC 
#
#######################################################################
#
# If this CIF has been generated from an entry in the Cambridge 
# Structural Database, then it will include bibliographic, chemical, 
# crystal, experimental, refinement or atomic coordinate data resulting 
# from the CCDC's data processing and validation procedures.
#
#######################################################################

data_SIBMIB
_chemical_formula_moiety         '(C42 H32 Cd5 N4 O27)n'
_symmetry_cell_setting           monoclinic
_symmetry_space_group_name_H-M   'P 21/n'
_symmetry_Int_Tables_number      14
_space_group_name_Hall           '-P 2yn'
loop_
_symmetry_equiv_pos_site_id
_symmetry_equiv_pos_as_xyz
1 x,y,z
2 1/2-x,1/2+y,1/2-z
3 -x,-y,-z
4 1/2+x,1/2-y,1/2+z
_cell_length_a                   13.6328(12)
_cell_length_b                   25.846(2)
_cell_length_c                   14.4083(13)
_cell_angle_alpha                90
_cell_angle_beta                 109.819(2)
_cell_angle_gamma                90
_cell_volume                     4776.1
loop_
_atom_site_label
_atom_site_type_symbol
_atom_site_fract_x
_atom_site_fract_y
_atom_site_fract_z
Cd1 Cd 0.36513(3) 0.071744(17) -0.14435(3)
Cd2 Cd 0.36859(3) -0.003580(16) 0.14621(3)
Cd3 Cd 0.26516(3) 0.099192(16) 0.24687(3)
Cd4 Cd 0.24231(3) -0.099728(16) 0.23987(3)
Cd5 Cd 0.64267(3) -0.248651(16) 0.64809(3)
O1 O -0.1295(2) 0.03528(15) -0.1657(3)
O2 O -0.2107(2) -0.03264(14) -0.1290(2)
O3 O -0.1680(3) -0.14198(16) -0.1144(3)
O4 O -0.1137(3) -0.12060(18) 0.0442(3)
O5 O 0.0436(3) -0.19681(15) 0.0060(3)
O6 O 0.1619(3) -0.16053(14) 0.1327(2)
O7 O 0.3095(3) -0.13555(18) -0.0203(3)
O8 O 0.3290(2) -0.09153(14) 0.1186(2)
O9 O 0.3336(3) -0.00458(16) -0.0163(3)
O10 O 0.2226(3) 0.02450(17) -0.1550(3)
O11 O 0.3252(3) 0.03459(15) 0.3608(3)
O12 O 0.3702(2) -0.03564(14) 0.2946(2)
O13 O 0.3737(3) -0.14367(15) 0.3443(3)
O14 O 0.5426(3) -0.12202(17) 0.4006(3)
O15 O 0.4895(3) -0.19409(15) 0.5534(3)
O16 O 0.6198(2) -0.15807(14) 0.6681(3)
O17 O 0.4472(3) -0.12076(17) 0.7951(3)
O18 O 0.5988(2) -0.08296(14) 0.8150(2)
O19 O 0.4568(2) 0.00538(14) 0.8048(2)
O20 O 0.3197(3) 0.03860(15) 0.6898(2)
O21 O 0.4591(3) 0.13102(18) -0.2053(3)
H1 H 0.455(5) 0.129(3) -0.2655(15)
H2 H 0.47(3) 0.162(3) -0.185(10)
O22 O 0.2645(4) 0.1385(2) -0.1307(4)
H3 H 0.273(8) 0.1709(9) -0.137(6)
H4 H 0.284(7) 0.131(3) -0.0695(18)
O23 O 0.4883(4) 0.0921(3) -0.0018(3)
H5 H 0.5534(18) 0.097(4) 0.012(5)
H6 H 0.471(5) 0.097(3) 0.049(3)
O24 O 0.8004(4) -0.2529(2) 0.7910(3)
N1 N 0.1539(3) 0.11116(19) 0.3366(3)
N2 N -0.1533(3) 0.0995(2) 0.6473(3)
N3 N 0.2480(4) -0.26453(19) 1.0593(3)
N4 N 0.5593(4) -0.26154(19) 0.7570(3)
C1 C -0.0290(3) -0.0386(2) -0.0972(3)
C2 C -0.0188(3) -0.0869(2) -0.0517(3)
C3 C 0.0819(3) -0.1081(2) -0.0100(3)
C4 C 0.1696(4) -0.0823(2) -0.0175(3)
C5 C 0.1565(4) -0.0356(2) -0.0685(3)
C6 C 0.0583(4) -0.0140(2) -0.1057(4)
H7 H 0.0502 0.0179 -0.1373
C7 C -0.1305(4) -0.0092(2) -0.1339(3)
C8 C -0.1091(4) -0.1179(2) -0.0390(4)
C9 C 0.0953(4) -0.1588(2) 0.0450(4)
C10 C 0.2776(4) -0.1057(2) 0.0287(3)
C11 C 0.2437(4) -0.0033(2) -0.0810(4)
C12 C 0.3898(3) -0.0372(2) 0.4646(3)
C13 C 0.4354(3) -0.0862(2) 0.4829(3)
C14 C 0.4733(4) -0.1042(2) 0.5813(4)
C15 C 0.4622(4) -0.0750(2) 0.6579(4)
C16 C 0.4107(3) -0.0277(2) 0.6386(3)
C17 C 0.3750(4) -0.0097(2) 0.5419(4)
H8 H 0.3400 0.0218 0.5284
C18 C 0.3585(4) -0.0106(2) 0.3667(4)
C19 C 0.4528(4) -0.1196(2) 0.4016(3)
C20 C 0.5302(4) -0.1555(2) 0.6011(4)
C21 C 0.5042(4) -0.0951(2) 0.7634(4)
C22 C 0.3934(4) 0.0079(2) 0.7149(4)
C23 C 0.1942(4) 0.1034(2) 0.4343(4)
H9 H 0.2663 0.1007 0.4627
C24 C 0.1354(4) 0.0991(3) 0.4953(4)
H10 H 0.1667 0.0924 0.5623
C25 C 0.0278(4) 0.1051(2) 0.4535(4)
C26 C -0.0375(4) 0.1017(3) 0.5192(4)
C27 C -0.1243(4) 0.1328(3) 0.5027(4)
H11 H -0.1462 0.1547 0.4483
C28 C -0.1776(4) 0.1308(3) 0.5683(4)
H12 H -0.2346 0.1527 0.5571
C29 C -0.0714(6) 0.0687(3) 0.6591(5)
H13 H -0.0537 0.0452 0.7112
C30 C -0.0120(5) 0.0694(3) 0.5994(5)
H14 H 0.0459 0.0479 0.6132
C31 C -0.0140(4) 0.1149(3) 0.3550(4)
H15 H -0.0855 0.1195 0.3257
C32 C 0.0498(4) 0.1179(3) 0.2987(4)
H16 H 0.0198 0.1250 0.2317
C33 C 0.2083(4) -0.2769(3) 0.9637(4)
H17 H 0.1374 -0.2840 0.9365
C34 C 0.2680(4) -0.2796(3) 0.9044(5)
H18 H 0.2382 -0.2898 0.8389
C35 C 0.3732(4) -0.2669(2) 0.9423(4)
C36 C 0.4396(4) -0.2663(3) 0.8789(4)
C37 C 0.5185(4) -0.2304(3) 0.8959(4)
H19 H 0.5326 -0.2073 0.9482
C38 C 0.5761(4) -0.2296(3) 0.8335(4)
H20 H 0.6295 -0.2054 0.8455
C39 C 0.4842(4) -0.2976(2) 0.7428(4)
H21 H 0.4730 -0.3212 0.6914
C40 C 0.4241(4) -0.3006(3) 0.8019(4)
H22 H 0.3726 -0.3258 0.7900
C41 C 0.4146(4) -0.2550(2) 1.0407(4)
H23 H 0.4853 -0.2477 1.0693
C42 C 0.3502(4) -0.2540(3) 1.0965(5)
H24 H 0.3790 -0.2455 1.1630
H25 H 0.867(2) -0.257(6) 0.811(9)
H26 H 0.781(9) -0.247(6) 0.841(7)
Cd1_2 Cd 0.36513(3) 0.071744(17) 0.85565(3)
Cd2B Cd -0.36859(3) 0.003580(16) -0.14621(3)
Cd2B_2 Cd 0.63141(3) 0.003580(16) 0.85379(3)
Cd3B Cd -0.26516(3) -0.099192(16) -0.24687(3)
Cd3B_2 Cd 0.73484(3) -0.099192(16) 0.75313(3)
Cd4B Cd -0.24231(3) 0.099728(16) -0.23987(3)
Cd4B_2 Cd -0.24231(3) 0.099728(16) 0.76013(3)
Cd5C Cd 0.14267(3) -0.251349(16) 0.14809(3)
Cd5C_2 Cd 0.14267(3) -0.251349(16) 1.14809(3)
O1B O 0.1295(2) -0.03528(15) 0.1657(3)
O2B O 0.2107(2) 0.03264(14) 0.1290(2)
O3B O 0.1680(3) 0.14198(16) 0.1144(3)
O5C O 0.5436(3) -0.30319(15) 0.5060(3)
O6C O 0.6619(3) -0.33947(14) 0.6327(2)
O16B O 0.3802(2) 0.15807(14) 0.3319(3)
O18B O 0.4012(2) 0.08296(14) 0.1850(2)
O19_2 O 0.4568(2) 0.00538(14) -0.1952(2)
O19B O 0.5432(2) -0.00538(14) 0.1952(2)
O20_2 O 0.3197(3) 0.03860(15) -0.3102(2)
N2B N 0.1533(3) -0.0995(2) 0.3527(3)
N3C N 0.7480(4) -0.23547(19) 0.5593(3)
O25 O 0.3155(4) -0.2592(3) 0.5038(5)
H27 H 0.374(2) -0.2438(19) 0.525(5)
H28 H 0.325(4) -0.2906(10) 0.492(6)
O26 O 0.7467(3) 0.1671(2) 0.2326(4)
H29 H 0.687(2) 0.164(3) 0.238(5)
H30 H 0.741(5) 0.170(4) 0.1723(18)
O27 O 0.8043(4) 0.2540(2) 0.3707(5)
H31 H 0.764(5) 0.253(3) 0.404(5)
H32 H 0.781(6) 0.235(3) 0.320(4)
loop_
_geom_bond_atom_site_label_1
_geom_bond_atom_site_label_2
_geom_bond_site_symmetry_1
_geom_bond_site_symmetry_2
Cd1 O10 1_555 1_555
Cd2 O8 1_555 1_555
Cd3 O11 1_555 1_555
Cd4 O6 1_555 1_555
Cd5 O15 1_555 1_555
O1 C7 1_555 1_555
O2 C7 1_555 1_555
O3 C8 1_555 1_555
O4 C8 1_555 1_555
O5 C9 1_555 1_555
O6 C9 1_555 1_555
O7 C10 1_555 1_555
O8 Cd4 1_555 1_555
O9 Cd2 1_555 1_555
O10 C11 1_555 1_555
O11 C18 1_555 1_555
O12 Cd2 1_555 1_555
O13 Cd4 1_555 1_555
O14 C19 1_555 1_555
O15 C20 1_555 1_555
O16 Cd5 1_555 1_555
O17 C21 1_555 1_555
O18 C21 1_555 1_555
O19 C22 1_555 1_555
O20 C22 1_555 1_555
O21 Cd1 1_555 1_555
H1 O21 1_555 1_555
H2 O21 1_555 1_555
O22 Cd1 1_555 1_555
H3 O22 1_555 1_555
H4 O22 1_555 1_555
O23 Cd1 1_555 1_555
H5 O23 1_555 1_555
H6 O23 1_555 1_555
O24 Cd5 1_555 1_555
N1 Cd3 1_555 1_555
N2 C28 1_555 1_555
N3 C33 1_555 1_555
N4 Cd5 1_555 1_555
C1 C2 1_555 1_555
C2 C3 1_555 1_555
C3 C4 1_555 1_555
C4 C5 1_555 1_555
C5 C6 1_555 1_555
C6 C1 1_555 1_555
H7 C6 1_555 1_555
C7 C1 1_555 1_555
C8 C2 1_555 1_555
C9 C3 1_555 1_555
C10 O8 1_555 1_555
C11 O9 1_555 1_555
C12 C13 1_555 1_555
C13 C14 1_555 1_555
C14 C15 1_555 1_555
C15 C16 1_555 1_555
C16 C17 1_555 1_555
C17 C12 1_555 1_555
H8 C17 1_555 1_555
C18 O12 1_555 1_555
C19 O13 1_555 1_555
C20 O16 1_555 1_555
C21 C15 1_555 1_555
C22 C16 1_555 1_555
C23 N1 1_555 1_555
H9 C23 1_555 1_555
C24 C23 1_555 1_555
H10 C24 1_555 1_555
C25 C24 1_555 1_555
C26 C25 1_555 1_555
C27 C26 1_555 1_555
H11 C27 1_555 1_555
C28 C27 1_555 1_555
H12 C28 1_555 1_555
C29 N2 1_555 1_555
H13 C29 1_555 1_555
C30 C26 1_555 1_555
H14 C30 1_555 1_555
C31 C25 1_555 1_555
H15 C31 1_555 1_555
C32 N1 1_555 1_555
H16 C32 1_555 1_555
C33 H17 1_555 1_555
C34 C33 1_555 1_555
H18 C34 1_555 1_555
C35 C34 1_555 1_555
C36 C35 1_555 1_555
C37 C36 1_555 1_555
H19 C37 1_555 1_555
C38 N4 1_555 1_555
H20 C38 1_555 1_555
C39 N4 1_555 1_555
H21 C39 1_555 1_555
C40 C36 1_555 1_555
H22 C40 1_555 1_555
C41 C35 1_555 1_555
H23 C41 1_555 1_555
C42 N3 1_555 1_555
H24 C42 1_555 1_555
H25 O24 1_555 1_555
H26 O24 1_555 1_555
O25 H27 1_555 1_555
H28 O25 1_555 1_555
O26 H29 1_555 1_555
H30 O26 1_555 1_555
O27 H31 1_555 1_555
H32 O27 1_555 1_555
Cd1_2 O19 1_555 1_555
Cd2B O2 1_555 1_555
Cd2B_2 O18 1_555 1_555
Cd3B O2 1_555 1_555
Cd3B_2 O16 1_555 1_555
Cd4B O1 1_555 1_555
Cd4B_2 N2 1_555 1_555
Cd5C O5 1_555 1_555
Cd5C_2 N3 1_555 1_555
O1B Cd4 1_555 1_555
O2B Cd2 1_555 1_555
O3B Cd3 1_555 1_555
O5C Cd5 1_555 1_555
O6C Cd5 1_555 1_555
O16B Cd3 1_555 1_555
O18B Cd2 1_555 1_555
O19_2 Cd1 1_555 1_555
O19B Cd2 1_555 1_555
O20_2 Cd1 1_555 1_555
N2B Cd4 1_555 1_555
N3C Cd5 1_555 1_555
Cd3 O2B 1_555 1_555
Cd3 O18B 1_555 1_555
Cd4 O12 1_555 1_555
O3 Cd3B 1_555 1_555
O6 Cd5C 1_555 1_555
O18 Cd3B_2 1_555 1_555
O19 Cd2B_2 1_555 1_555
O20 Cd1_2 1_555 1_555
C4 C10 1_555 1_555
C5 C11 1_555 1_555
C12 C18 1_555 1_555
C13 C19 1_555 1_555
C14 C20 1_555 1_555
C29 C30 1_555 1_555
C31 C32 1_555 1_555
C37 C38 1_555 1_555
C39 C40 1_555 1_555
C41 C42 1_555 1_555

#END
