
#######################################################################
#
#                 Cambridge Crystallographic Data Centre
#                                CCDC 
#
#######################################################################
#
# If this CIF has been generated from an entry in the Cambridge 
# Structural Database, then it will include bibliographic, chemical, 
# crystal, experimental, refinement or atomic coordinate data resulting 
# from the CCDC's data processing and validation procedures.
#
#######################################################################

data_OQOCAA
_chemical_formula_moiety         '(C8 H5 Al1 O5)n'
_symmetry_cell_setting           tetragonal
_symmetry_space_group_name_H-M   'I 41/a m d'
_symmetry_Int_Tables_number      141
_space_group_name_Hall           '-I 4bd 2'
loop_
_symmetry_equiv_pos_site_id
_symmetry_equiv_pos_as_xyz
1 x,y,z
2 1/2-x,-y,1/2+z
3 1/2-x,y,1/2-z
4 1/4-y,1/4-x,3/4-z
5 1/4-y,3/4+x,1/4+z
6 1/4+y,1/4-x,3/4+z
7 1/4+y,3/4+x,1/4-z
8 x,-y,-z
9 -x,1/2-y,z
10 -x,1/2+y,-z
11 3/4-y,3/4-x,1/4-z
12 3/4-y,1/4+x,3/4+z
13 3/4+y,3/4-x,1/4+z
14 3/4+y,1/4+x,3/4-z
15 1/2+x,1/2-y,1/2-z
16 1/2+x,1/2+y,1/2+z
17 -x,-y,-z
18 1/2+x,y,1/2-z
19 1/2+x,-y,1/2+z
20 3/4+y,3/4+x,1/4+z
21 3/4+y,1/4-x,3/4-z
22 3/4-y,3/4+x,1/4-z
23 3/4-y,1/4-x,3/4+z
24 -x,y,z
25 x,1/2+y,-z
26 x,1/2-y,z
27 1/4+y,1/4+x,3/4+z
28 1/4+y,3/4-x,1/4-z
29 1/4-y,1/4+x,3/4-z
30 1/4-y,3/4-x,1/4+z
31 1/2-x,1/2+y,1/2+z
32 1/2-x,1/2-y,1/2-z
_cell_length_a                   21.5214(7)
_cell_length_b                   21.5214(7)
_cell_length_c                   10.3218(4)
_cell_angle_alpha                90
_cell_angle_beta                 90
_cell_angle_gamma                90
_cell_volume                     4780.75
loop_
_atom_site_label
_atom_site_type_symbol
_atom_site_fract_x
_atom_site_fract_y
_atom_site_fract_z
Al1 Al 0.3184(4) 0.0000 0.0000
O1 O 0.2568(4) 0.0068(4) 0.1250
O2 O 0.3828(5) 0.0094(4) 0.1248(7)
O3 O 0.3368(4) 0.0675(5) 0.2769(8)
C1 C 0.4435(2) 0.0746(5) 0.4182(7)
C2 C 0.4439(3) 0.0534(5) 0.2895(7)
C3 C 0.3836(4) 0.0386(6) 0.2296(9)
C4 C 0.5000 0.0373(10) 0.2334(18)
C5 C 0.5000 0.0886(9) 0.4789(17)
O2W O 0.6172(5) 0.0094(4) 0.1248(7)
O3W O 0.6632(4) 0.0675(5) 0.2769(8)
C1W C 0.5565(2) 0.0746(5) 0.4182(7)
C2W C 0.5561(3) 0.0534(5) 0.2895(7)
C3W C 0.6164(4) 0.0386(6) 0.2296(9)
Al1P Al 0.6816(4) 0.0000 0.0000
Al1D Al 0.2500 0.0684(4) 0.2500
Al1U Al 0.7500 0.0684(4) 0.2500
O1E O 0.2568(4) -0.0068(4) -0.1250
O2G O 0.3828(5) -0.0094(4) -0.1248(7)
O3E O 0.3175(5) -0.0868(4) 0.0269(8)
O3F O 0.3175(5) 0.0868(4) -0.0269(8)
loop_
_geom_bond_atom_site_label_1
_geom_bond_atom_site_label_2
_geom_bond_site_symmetry_1
_geom_bond_site_symmetry_2
Al1 O1 1_555 1_555
O1 Al1D 1_555 1_555
O2 Al1 1_555 1_555
O3 C3 1_555 1_555
C1 C2 1_555 1_555
C2 C3 1_555 1_555
C3 O2 1_555 1_555
C4 C2 1_555 1_555
C5 C1 1_555 1_555
O2W C3W 1_555 1_555
O3W C3W 1_555 1_555
C1W C5 1_555 1_555
C2W C4 1_555 1_555
C3W C2W 1_555 1_555
Al1P O2W 1_555 1_555
Al1D O3 1_555 1_555
Al1U O3W 1_555 1_555
O1E Al1 1_555 1_555
O2G Al1 1_555 1_555
O3E Al1 1_555 1_555
O3F Al1 1_555 1_555
C1W C2W 1_555 1_555

#END
