
#######################################################################
#
#                 Cambridge Crystallographic Data Centre
#                                CCDC 
#
#######################################################################
#
# If this CIF has been generated from an entry in the Cambridge 
# Structural Database, then it will include bibliographic, chemical, 
# crystal, experimental, refinement or atomic coordinate data resulting 
# from the CCDC's data processing and validation procedures.
#
#######################################################################

data_KINPUU
_chemical_formula_moiety         '(C64 H64 Co2 N16 O13)n'
_symmetry_cell_setting           monoclinic
_symmetry_space_group_name_H-M   'C 2'
_symmetry_Int_Tables_number      5
_space_group_name_Hall           'C 2y'
loop_
_symmetry_equiv_pos_site_id
_symmetry_equiv_pos_as_xyz
1 x,y,z
2 -x,y,-z
3 1/2+x,1/2+y,z
4 1/2-x,1/2+y,-z
_cell_length_a                   27.153(2)
_cell_length_b                   15.103(2)
_cell_length_c                   9.0264(14)
_cell_angle_alpha                90
_cell_angle_beta                 107.047(2)
_cell_angle_gamma                90
_cell_volume                     3539.02
loop_
_atom_site_label
_atom_site_type_symbol
_atom_site_fract_x
_atom_site_fract_y
_atom_site_fract_z
C1 C 0.7899(2) 0.8413(4) 0.4264(7)
H1 H 0.7649 0.8082 0.3555
C2 C 0.8406(2) 0.8334(5) 0.4487(7)
H2 H 0.8569 0.7959 0.3961
C3 C 0.82469(18) 0.9304(4) 0.6029(6)
H3 H 0.8297 0.9723 0.6814
C4 C 1.2439(2) 0.5526(5) 1.2453(7)
H4 H 1.2697 0.5121 1.2452
C5 C 1.2300(2) 0.6193(5) 1.1474(8)
H5 H 1.2440 0.6338 1.0680
C6 C 1.1843(2) 0.6210(4) 1.3062(7)
H6 H 1.1606 0.6384 1.3569
C7 C 1.1789(2) 1.2982(5) 0.6773(7)
H7 H 1.1768 1.2638 0.5903
C8 C 1.1734(2) 1.3376(4) 0.9045(7)
H8 H 1.1675 1.3380 1.0009
C9 C 1.1925(2) 1.4053(4) 0.8352(7)
H9 H 1.2020 1.4608 0.8790
C10 C 0.6284(2) 0.8922(5) 0.3038(7)
C11 C 0.91725(19) 0.9050(4) 0.6314(6)
C12 C 0.93402(19) 0.9888(4) 0.6984(6)
H10 H 0.9108 1.0349 0.6918
C13 C 0.98625(19) 1.0001(4) 0.7743(6)
H11 H 0.9978 1.0542 0.8205
C14 C 1.02096(17) 0.9327(3) 0.7822(5)
C15 C 1.00397(19) 0.8524(4) 0.7083(6)
H12 H 1.0275 0.8079 0.7068
C16 C 0.95156(18) 0.8395(4) 0.6367(6)
H13 H 0.9400 0.7850 0.5920
C17 C 1.09721(19) 1.0261(4) 0.8462(6)
C18 C 1.0945(2) 1.0582(4) 0.6998(7)
H14 H 1.0773 1.0260 0.6120
C19 C 1.1175(2) 1.1385(4) 0.6844(6)
H15 H 1.1157 1.1600 0.5864
C20 C 1.14329(19) 1.1867(4) 0.8155(6)
C21 C 1.1460(2) 1.1545(4) 0.9619(7)
H16 H 1.1632 1.1867 1.0496
C22 C 1.1230(2) 1.0742(4) 0.9773(6)
H17 H 1.1248 1.0527 1.0753
C23 C 1.10319(19) 0.8763(4) 0.9460(6)
C24 C 1.1555(2) 0.8674(4) 0.9563(7)
H18 H 1.1710 0.9085 0.9076
C25 C 1.1835(2) 0.8000(4) 1.0357(7)
H19 H 1.2183 0.7965 1.0427
C26 C 1.1621(2) 0.7360(4) 1.1072(6)
C27 C 1.11166(19) 0.7468(4) 1.1057(6)
H20 H 1.0968 0.7065 1.1579
C28 C 1.08303(19) 0.8164(4) 1.0280(6)
H21 H 1.0493 0.8233 1.0306
C29 C 0.5812(12) 0.871(2) 0.200(2)
H22 H 0.5865 0.8177 0.1475
H23 H 0.5739 0.9179 0.1219
C30 C 0.5336(6) 0.8582(16) 0.2424(15)
H24 H 0.5052 0.8452 0.1510
H25 H 0.5252 0.9112 0.2908
C31 C 0.5428(7) 0.7809(17) 0.355(3)
H26 H 0.5742 0.7892 0.4393
H27 H 0.5451 0.7256 0.3030
C32 C 0.4921(8) 0.7816(17) 0.4193(19)
H28 H 0.4715 0.8339 0.3814
H29 H 0.4711 0.7298 0.3814
Co1 Co 0.70900(2) 0.95816(5) 0.51539(8)
N1 N 0.77956(15) 0.9041(3) 0.5210(5)
N2 N 0.86360(14) 0.8913(3) 0.5638(5)
N3 N 1.21515(18) 0.5512(4) 1.3472(6)
N4 N 1.19124(16) 0.6630(3) 1.1844(5)
N5 N 1.19560(18) 1.3796(3) 0.6936(6)
N6 N 1.16492(17) 1.2696(3) 0.7996(5)
N7 N 1.07351(15) 0.9458(4) 0.8619(5)
N8 N 0.7199(2) 1.1074(4) 0.7149(6)
O1 O 0.62894(13) 0.9560(4) 0.3938(5)
O2 O 0.66831(17) 0.8485(3) 0.3182(5)
O3 O 0.75283(18) 1.0559(3) 0.6922(5)
O4 O 0.67624(19) 1.0861(4) 0.6444(6)
O5 O 0.73161(17) 1.1715(3) 0.7912(5)
C10A C 0.3716(2) 0.8922(5) 0.6962(7)
C29A C 0.4188(12) 0.871(2) 0.800(2)
H22A H 0.4135 0.8177 0.8525
H23A H 0.4261 0.9179 0.8781
C30A C 0.4664(6) 0.8582(16) 0.7576(15)
H24A H 0.4948 0.8452 0.8490
H25A H 0.4748 0.9112 0.7092
C31A C 0.4572(7) 0.7809(17) 0.645(3)
H26A H 0.4258 0.7892 0.5607
H27A H 0.4549 0.7256 0.6970
C32A C 0.5079(8) 0.7816(17) 0.5807(19)
H28A H 0.5285 0.8339 0.6186
H29A H 0.5289 0.7298 0.6186
O1A O 0.37106(13) 0.9560(4) 0.6062(5)
O2A O 0.33169(17) 0.8485(3) 0.6818(5)
C1A C 0.2101(2) 0.8413(4) 0.5736(7)
H1A H 0.2351 0.8082 0.6445
C2A C 0.1594(2) 0.8334(5) 0.5513(7)
H2A H 0.1431 0.7959 0.6039
C3A C 0.17531(18) 0.9304(4) 0.3971(6)
H3A H 0.1703 0.9723 0.3186
C4A C -0.2439(2) 0.5526(5) -0.2453(7)
H4A H -0.2697 0.5121 -0.2452
C5A C -0.2300(2) 0.6193(5) -0.1474(8)
H5A H -0.2440 0.6338 -0.0680
C6A C -0.1843(2) 0.6210(4) -0.3062(7)
H6A H -0.1606 0.6384 -0.3569
C7A C -0.1789(2) 1.2982(5) 0.3227(7)
H7A H -0.1768 1.2638 0.4097
C8A C -0.1734(2) 1.3376(4) 0.0955(7)
H8A H -0.1675 1.3380 -0.0009
C9A C -0.1925(2) 1.4053(4) 0.1648(7)
H9A H -0.2020 1.4608 0.1210
C11A C 0.08275(19) 0.9050(4) 0.3686(6)
C12A C 0.06598(19) 0.9888(4) 0.3016(6)
H10A H 0.0892 1.0349 0.3082
C13A C 0.01375(19) 1.0001(4) 0.2257(6)
H11A H 0.0022 1.0542 0.1795
C14A C -0.02096(17) 0.9327(3) 0.2178(5)
C15A C -0.00397(19) 0.8524(4) 0.2917(6)
H12A H -0.0275 0.8079 0.2932
C16A C 0.04844(18) 0.8395(4) 0.3633(6)
H13A H 0.0600 0.7850 0.4080
C17A C -0.09721(19) 1.0261(4) 0.1538(6)
C18A C -0.0945(2) 1.0582(4) 0.3002(7)
H14A H -0.0773 1.0260 0.3880
C19A C -0.1175(2) 1.1385(4) 0.3156(6)
H15A H -0.1157 1.1600 0.4136
C20A C -0.14329(19) 1.1867(4) 0.1845(6)
C21A C -0.1460(2) 1.1545(4) 0.0381(7)
H16A H -0.1632 1.1867 -0.0496
C22A C -0.1230(2) 1.0742(4) 0.0227(6)
H17A H -0.1248 1.0527 -0.0753
C23A C -0.10319(19) 0.8763(4) 0.0540(6)
C24A C -0.1555(2) 0.8674(4) 0.0437(7)
H18A H -0.1710 0.9085 0.0924
C25A C -0.1835(2) 0.8000(4) -0.0357(7)
H19A H -0.2183 0.7965 -0.0427
C26A C -0.1621(2) 0.7360(4) -0.1072(6)
C27A C -0.11166(19) 0.7468(4) -0.1057(6)
H20A H -0.0968 0.7065 -0.1579
C28A C -0.08303(19) 0.8164(4) -0.0280(6)
H21A H -0.0493 0.8233 -0.0306
Co1A Co 0.29100(2) 0.95816(5) 0.48461(8)
N1A N 0.22044(15) 0.9041(3) 0.4790(5)
N2A N 0.13640(14) 0.8913(3) 0.4362(5)
N3A N -0.21515(18) 0.5512(4) -0.3472(6)
N4A N -0.19124(16) 0.6630(3) -0.1844(5)
N5A N -0.19560(18) 1.3796(3) 0.3064(6)
N6A N -0.16492(17) 1.2696(3) 0.2004(5)
N7A N -0.07351(15) 0.9458(4) 0.1381(5)
N8A N 0.2801(2) 1.1074(4) 0.2851(6)
O3A O 0.24717(18) 1.0559(3) 0.3078(5)
O4A O 0.32376(19) 1.0861(4) 0.3556(6)
O5A O 0.26839(17) 1.1715(3) 0.2088(5)
Co1B Co 1.20900(2) 0.45816(5) 1.51539(8)
Co1B_2 Co 1.20900(2) 1.45816(5) 0.51539(8)
Co1C Co -0.20900(2) 0.45816(5) -0.51539(8)
Co1C_2 Co -0.20900(2) 1.45816(5) 0.48461(8)
N3B N 0.71515(18) 1.0512(4) 0.3472(6)
N3C N 0.28485(18) 1.0512(4) 0.6528(6)
N5B N 0.69560(18) 0.8796(3) 0.6936(6)
N5C N 0.30440(18) 0.8796(3) 0.3064(6)
O6 O 0.9315(4) 0.6051(7) 0.6143(12)
H38 H 0.9184 0.5580 0.6378
H39 H 0.9451 0.5942 0.5425
O7 O 0.5109(6) 0.1175(11) 0.8621(17)
H40 H 0.5359 0.1465 0.8473
H41 H 0.4874 0.1116 0.7766
O8 O 0.0866(5) 0.5009(9) 0.8088(14)
H42 H 0.1149 0.4754 0.8124
H43 H 0.0657 0.4632 0.8259
loop_
_geom_bond_atom_site_label_1
_geom_bond_atom_site_label_2
_geom_bond_site_symmetry_1
_geom_bond_site_symmetry_2
C1 H1 1_555 1_555
C2 C1 1_555 1_555
H2 C2 1_555 1_555
C3 H3 1_555 1_555
C4 H4 1_555 1_555
C5 C4 1_555 1_555
H5 C5 1_555 1_555
C6 H6 1_555 1_555
C7 H7 1_555 1_555
C8 H8 1_555 1_555
C9 C8 1_555 1_555
H9 C9 1_555 1_555
C10 C29 1_555 1_555
C11 C12 1_555 1_555
C12 H10 1_555 1_555
C13 C12 1_555 1_555
H11 C13 1_555 1_555
C14 C13 1_555 1_555
C15 C14 1_555 1_555
H12 C15 1_555 1_555
C16 C11 1_555 1_555
H13 C16 1_555 1_555
C17 C18 1_555 1_555
C18 H14 1_555 1_555
C19 C18 1_555 1_555
H15 C19 1_555 1_555
C20 C19 1_555 1_555
C21 C20 1_555 1_555
H16 C21 1_555 1_555
C22 C17 1_555 1_555
H17 C22 1_555 1_555
C23 C24 1_555 1_555
C24 H18 1_555 1_555
C25 C24 1_555 1_555
H19 C25 1_555 1_555
C26 C25 1_555 1_555
C27 C26 1_555 1_555
H20 C27 1_555 1_555
C28 C23 1_555 1_555
H21 C28 1_555 1_555
C29 H22 1_555 1_555
H23 C29 1_555 1_555
C30 C29 1_555 1_555
H24 C30 1_555 1_555
H25 C30 1_555 1_555
C31 C30 1_555 1_555
H26 C31 1_555 1_555
H27 C31 1_555 1_555
C32 C31 1_555 1_555
H28 C32 1_555 1_555
H29 C32 1_555 1_555
Co1 N1 1_555 1_555
N1 C1 1_555 1_555
N2 C2 1_555 1_555
N3 C4 1_555 1_555
N4 C5 1_555 1_555
N5 C7 1_555 1_555
N6 C7 1_555 1_555
N7 C14 1_555 1_555
N8 O3 1_555 1_555
O1 C10 1_555 1_555
O2 C10 1_555 1_555
O3 Co1 1_555 1_555
O4 N8 1_555 1_555
O5 N8 1_555 1_555
O6 H38 1_555 1_555
H39 O6 1_555 1_555
O7 H40 1_555 1_555
H41 O7 1_555 1_555
O8 H42 1_555 1_555
H43 O8 1_555 1_555
C10A C29A 1_555 1_555
C29A H22A 1_555 1_555
H23A C29A 1_555 1_555
C30A C29A 1_555 1_555
H24A C30A 1_555 1_555
H25A C30A 1_555 1_555
C31A C30A 1_555 1_555
H26A C31A 1_555 1_555
H27A C31A 1_555 1_555
C32A C32 1_555 1_555
H28A C32A 1_555 1_555
H29A C32A 1_555 1_555
O1A C10A 1_555 1_555
O2A C10A 1_555 1_555
C1A H1A 1_555 1_555
C2A C1A 1_555 1_555
H2A C2A 1_555 1_555
C3A H3A 1_555 1_555
C4A H4A 1_555 1_555
C5A C4A 1_555 1_555
H5A C5A 1_555 1_555
C6A H6A 1_555 1_555
C7A H7A 1_555 1_555
C8A H8A 1_555 1_555
C9A C8A 1_555 1_555
H9A C9A 1_555 1_555
C11A C12A 1_555 1_555
C12A H10A 1_555 1_555
C13A C12A 1_555 1_555
H11A C13A 1_555 1_555
C14A C13A 1_555 1_555
C15A C14A 1_555 1_555
H12A C15A 1_555 1_555
C16A C11A 1_555 1_555
H13A C16A 1_555 1_555
C17A C18A 1_555 1_555
C18A H14A 1_555 1_555
C19A C18A 1_555 1_555
H15A C19A 1_555 1_555
C20A C19A 1_555 1_555
C21A C20A 1_555 1_555
H16A C21A 1_555 1_555
C22A C17A 1_555 1_555
H17A C22A 1_555 1_555
C23A C24A 1_555 1_555
C24A H18A 1_555 1_555
C25A C24A 1_555 1_555
H19A C25A 1_555 1_555
C26A C25A 1_555 1_555
C27A C26A 1_555 1_555
H20A C27A 1_555 1_555
C28A C23A 1_555 1_555
H21A C28A 1_555 1_555
Co1A O1A 1_555 1_555
N1A C1A 1_555 1_555
N2A C2A 1_555 1_555
N3A C4A 1_555 1_555
N4A C5A 1_555 1_555
N5A C7A 1_555 1_555
N6A C7A 1_555 1_555
N7A C14A 1_555 1_555
N8A O3A 1_555 1_555
O3A Co1A 1_555 1_555
O4A N8A 1_555 1_555
O5A N8A 1_555 1_555
Co1B N3 1_555 1_555
Co1B_2 N5 1_555 1_555
Co1C N3A 1_555 1_555
Co1C_2 N5A 1_555 1_555
N3B Co1 1_555 1_555
N3C Co1A 1_555 1_555
N5B Co1 1_555 1_555
N5C Co1A 1_555 1_555
C3 N1 1_555 1_555
C3 N2 1_555 1_555
C6 N3 1_555 1_555
C6 N4 1_555 1_555
C8 N6 1_555 1_555
C9 N5 1_555 1_555
C11 N2 1_555 1_555
C15 C16 1_555 1_555
C17 N7 1_555 1_555
C20 N6 1_555 1_555
C21 C22 1_555 1_555
C23 N7 1_555 1_555
C26 N4 1_555 1_555
C27 C28 1_555 1_555
Co1 O1 1_555 1_555
Co1 O2 1_555 1_555
C31A C32A 1_555 1_555
O2A Co1A 1_555 1_555
C3A N1A 1_555 1_555
C3A N2A 1_555 1_555
C6A N3A 1_555 1_555
C6A N4A 1_555 1_555
C8A N6A 1_555 1_555
C9A N5A 1_555 1_555
C11A N2A 1_555 1_555
C15A C16A 1_555 1_555
C17A N7A 1_555 1_555
C20A N6A 1_555 1_555
C21A C22A 1_555 1_555
C23A N7A 1_555 1_555
C26A N4A 1_555 1_555
C27A C28A 1_555 1_555
Co1A N1A 1_555 1_555

#END
