
#######################################################################
#
#                 Cambridge Crystallographic Data Centre
#                                CCDC 
#
#######################################################################
#
# If this CIF has been generated from an entry in the Cambridge 
# Structural Database, then it will include bibliographic, chemical, 
# crystal, experimental, refinement or atomic coordinate data resulting 
# from the CCDC's data processing and validation procedures.
#
#######################################################################

data_KINQAB
_chemical_formula_moiety         '(C64 H64 N16 Ni2 O13)n'
_symmetry_cell_setting           monoclinic
_symmetry_space_group_name_H-M   'C 2'
_symmetry_Int_Tables_number      5
_space_group_name_Hall           'C 2y'
loop_
_symmetry_equiv_pos_site_id
_symmetry_equiv_pos_as_xyz
1 x,y,z
2 -x,y,-z
3 1/2+x,1/2+y,z
4 1/2-x,1/2+y,-z
_cell_length_a                   27.488(3)
_cell_length_b                   14.9399(16)
_cell_length_c                   9.0717(10)
_cell_angle_alpha                90
_cell_angle_beta                 107.373(2)
_cell_angle_gamma                90
_cell_volume                     3555.51
loop_
_atom_site_label
_atom_site_type_symbol
_atom_site_fract_x
_atom_site_fract_y
_atom_site_fract_z
C1 C 0.20595(18) 0.1574(3) 0.5771(6)
H1 H 0.2303 0.1900 0.6510
C2 C 0.15614(19) 0.1666(4) 0.5458(6)
H2 H 0.1391 0.2076 0.5896
C3 C 0.17230(15) 0.0596(4) 0.4024(5)
H3 H 0.1682 0.0127 0.3324
C4 C -0.2413(2) 0.4550(4) -0.2318(7)
H4 H -0.2669 0.4958 -0.2328
C5 C -0.2262(2) 0.3858(4) -0.1299(7)
H5 H -0.2392 0.3715 -0.0493
C6 C -0.18303(19) 0.3889(4) -0.2907(6)
H6 H -0.1593 0.3745 -0.3414
C7 C -0.18252(18) -0.2950(3) 0.3341(6)
H7 H -0.1772 -0.2593 0.4215
C8 C -0.18336(19) -0.3397(3) 0.1057(6)
H8 H -0.1798 -0.3411 0.0070
C9 C -0.2015(2) -0.4056(4) 0.1756(6)
H9 H -0.2117 -0.4618 0.1335
C10 C 0.36959(18) 0.1009(4) 0.6792(6)
C11 C 0.08090(16) 0.0875(3) 0.3662(5)
C12 C 0.06455(17) 0.0038(3) 0.2989(6)
H10 H 0.0876 -0.0427 0.3062
C13 C 0.01294(18) -0.0078(3) 0.2210(5)
H11 H 0.0015 -0.0625 0.1746
C14 C -0.02182(15) 0.0618(3) 0.2120(4)
C15 C -0.00508(17) 0.1415(3) 0.2869(5)
H12 H -0.0284 0.1865 0.2876
C16 C 0.04684(17) 0.1549(3) 0.3618(5)
H13 H 0.0582 0.2096 0.4086
C17 C -0.09847(11) -0.03062(16) 0.1517(3)
C18 C -0.09334(12) -0.06351(19) 0.2989(3)
H14 H -0.0733 -0.0331 0.3851
C19 C -0.11815(13) -0.1419(2) 0.3172(2)
H15 H -0.1147 -0.1639 0.4157
C20 C -0.14810(11) -0.18740(17) 0.1883(3)
C21 C -0.15323(12) -0.1545(2) 0.0411(3)
H16 H -0.1733 -0.1849 -0.0451
C22 C -0.12842(13) -0.0761(2) 0.0228(2)
H17 H -0.1318 -0.0541 -0.0757
C23 C -0.10297(16) 0.1212(3) 0.0546(5)
C24 C -0.15343(19) 0.1345(3) 0.0575(6)
H18 H -0.1676 0.0951 0.1126
C25 C -0.1826(2) 0.2067(4) -0.0222(6)
H19 H -0.2163 0.2139 -0.0232
C26 C -0.16077(17) 0.2659(3) -0.0980(5)
C27 C -0.11043(17) 0.2528(3) -0.1051(5)
H20 H -0.0955 0.2935 -0.1562
C28 C -0.08442(16) 0.1788(3) -0.0351(5)
H21 H -0.0528 0.1667 -0.0483
C29 C 0.4170(2) 0.1301(4) 0.8064(7)
H22 H 0.4236 0.0884 0.8920
H23 H 0.4114 0.1888 0.8440
C30 C 0.4638(3) 0.1334(7) 0.7430(12)
H24 H 0.4951 0.1419 0.8265
H25 H 0.4664 0.0786 0.6887
C31 C 0.4540(9) 0.2109(16) 0.636(3)
H26 H 0.4469 0.2640 0.6877
H27 H 0.4250 0.1990 0.5467
C32 C 0.5049(16) 0.225(3) 0.585(3)
H28 H 0.5205 0.2815 0.6261
H29 H 0.5289 0.1777 0.6294
N1 N 0.21655(13) 0.0916(3) 0.4823(5)
N2 N 0.13402(14) 0.1016(3) 0.4326(4)
N3 N -0.21383(15) 0.4549(3) -0.3282(5)
N4 N -0.18883(14) 0.3422(3) -0.1688(4)
N5 N -0.20252(16) -0.3773(3) 0.3193(5)
N6 N -0.17137(15) -0.2712(3) 0.2071(4)
N7 N -0.07393(12) 0.0503(3) 0.1325(4)
N8 N 0.28526(19) -0.1102(3) 0.3022(5)
Ni1 Ni 0.287293(19) 0.04550(4) 0.49834(6)
O1 O 0.37051(11) 0.0371(3) 0.5930(4)
O2 O 0.32848(12) 0.1402(2) 0.6670(4)
O3 O 0.25813(13) -0.0554(3) 0.3440(4)
O4 O 0.33208(17) -0.0950(3) 0.3361(5)
O5 O 0.26643(15) -0.1736(3) 0.2191(4)
C10A C 0.63041(18) 0.1009(4) 0.3208(6)
C29A C 0.5830(2) 0.1301(4) 0.1936(7)
H22A H 0.5764 0.0884 0.1080
H23A H 0.5886 0.1888 0.1560
C30A C 0.5362(3) 0.1334(7) 0.2570(12)
H24A H 0.5049 0.1419 0.1735
H25A H 0.5336 0.0786 0.3113
C31A C 0.5460(9) 0.2109(16) 0.364(3)
H26A H 0.5531 0.2640 0.3123
H27A H 0.5750 0.1990 0.4533
C32A C 0.4951(16) 0.225(3) 0.415(3)
H28A H 0.4795 0.2815 0.3739
H29A H 0.4711 0.1777 0.3706
O1A O 0.62949(11) 0.0371(3) 0.4070(4)
O2A O 0.67152(12) 0.1402(2) 0.3330(4)
C1A C 0.79405(18) 0.1574(3) 0.4229(6)
H1A H 0.7697 0.1900 0.3490
C2A C 0.84386(19) 0.1666(4) 0.4542(6)
H2A H 0.8609 0.2076 0.4104
C3A C 0.82770(15) 0.0596(4) 0.5976(5)
H3A H 0.8318 0.0127 0.6676
C4A C 1.2413(2) 0.4550(4) 1.2318(7)
H4A H 1.2669 0.4958 1.2328
C5A C 1.2262(2) 0.3858(4) 1.1299(7)
H5A H 1.2392 0.3715 1.0493
C6A C 1.18303(19) 0.3889(4) 1.2907(6)
H6A H 1.1593 0.3745 1.3414
C7A C 1.18252(18) -0.2950(3) 0.6659(6)
H7A H 1.1772 -0.2593 0.5785
C8A C 1.18336(19) -0.3397(3) 0.8943(6)
H8A H 1.1798 -0.3411 0.9930
C9A C 1.2015(2) -0.4056(4) 0.8244(6)
H9A H 1.2117 -0.4618 0.8665
C11A C 0.91910(16) 0.0875(3) 0.6338(5)
C12A C 0.93545(17) 0.0038(3) 0.7011(6)
H10A H 0.9124 -0.0427 0.6938
C13A C 0.98706(18) -0.0078(3) 0.7790(5)
H11A H 0.9985 -0.0625 0.8254
C14A C 1.02182(15) 0.0618(3) 0.7880(4)
C15A C 1.00508(17) 0.1415(3) 0.7131(5)
H12A H 1.0284 0.1865 0.7124
C16A C 0.95316(17) 0.1549(3) 0.6382(5)
H13A H 0.9418 0.2096 0.5914
C17A C 1.09847(11) -0.03062(16) 0.8483(3)
C18A C 1.09334(12) -0.06351(19) 0.7011(3)
H14A H 1.0733 -0.0331 0.6149
C19A C 1.11815(13) -0.1419(2) 0.6828(2)
H15A H 1.1147 -0.1639 0.5843
C20A C 1.14810(11) -0.18740(17) 0.8117(3)
C21A C 1.15323(12) -0.1545(2) 0.9589(3)
H16A H 1.1733 -0.1849 1.0451
C22A C 1.12842(13) -0.0761(2) 0.9772(2)
H17A H 1.1318 -0.0541 1.0757
C23A C 1.10297(16) 0.1212(3) 0.9454(5)
C24A C 1.15343(19) 0.1345(3) 0.9425(6)
H18A H 1.1676 0.0951 0.8874
C25A C 1.1826(2) 0.2067(4) 1.0222(6)
H19A H 1.2163 0.2139 1.0232
C26A C 1.16077(17) 0.2659(3) 1.0980(5)
C27A C 1.11043(17) 0.2528(3) 1.1051(5)
H20A H 1.0955 0.2935 1.1562
C28A C 1.08442(16) 0.1788(3) 1.0351(5)
H21A H 1.0528 0.1667 1.0483
N1A N 0.78345(13) 0.0916(3) 0.5177(5)
N2A N 0.86598(14) 0.1016(3) 0.5674(4)
N3A N 1.21383(15) 0.4549(3) 1.3282(5)
N4A N 1.18883(14) 0.3422(3) 1.1688(4)
N5A N 1.20252(16) -0.3773(3) 0.6807(5)
N6A N 1.17137(15) -0.2712(3) 0.7929(4)
N7A N 1.07393(12) 0.0503(3) 0.8675(4)
N8A N 0.71474(19) -0.1102(3) 0.6978(5)
Ni1A Ni 0.712707(19) 0.04550(4) 0.50166(6)
O3A O 0.74187(13) -0.0554(3) 0.6560(4)
O4A O 0.66792(17) -0.0950(3) 0.6639(5)
O5A O 0.73357(15) -0.1736(3) 0.7809(4)
N3B N 0.28617(15) -0.0451(3) 0.6718(5)
N3C N 0.71383(15) -0.0451(3) 0.3282(5)
N5B N 0.29748(16) 0.1227(3) 0.3193(5)
N5C N 0.70252(16) 0.1227(3) 0.6807(5)
Ni1B Ni -0.212707(19) -0.45450(4) 0.49834(6)
Ni1B_2 Ni -0.212707(19) 0.54550(4) -0.50166(6)
Ni1C Ni 1.212707(19) -0.45450(4) 0.50166(6)
Ni1C_2 Ni 1.212707(19) 0.54550(4) 1.50166(6)
O6 O 0.4268(3) 0.8848(6) 0.6076(9)
H38 H 0.4182 0.9204 0.6685
H39 H 0.4588 0.8768 0.6390
O7 O 0.4079(4) 0.8202(8) 0.2859(13)
H40 H 0.4131 0.8385 0.3780
H41 H 0.3760 0.8137 0.2431
O8 O 0.4417(5) 0.9205(10) 0.1780(16)
H42 H 0.4466 0.9744 0.1558
H43 H 0.4430 0.8864 0.1042
loop_
_geom_bond_atom_site_label_1
_geom_bond_atom_site_label_2
_geom_bond_site_symmetry_1
_geom_bond_site_symmetry_2
C1 H1 1_555 1_555
C2 C1 1_555 1_555
H2 C2 1_555 1_555
C3 H3 1_555 1_555
C4 H4 1_555 1_555
C5 C4 1_555 1_555
H5 C5 1_555 1_555
C6 H6 1_555 1_555
C7 H7 1_555 1_555
C8 H8 1_555 1_555
C9 C8 1_555 1_555
H9 C9 1_555 1_555
C10 C29 1_555 1_555
C11 C12 1_555 1_555
C12 H10 1_555 1_555
C13 C12 1_555 1_555
H11 C13 1_555 1_555
C14 C13 1_555 1_555
C15 C14 1_555 1_555
H12 C15 1_555 1_555
C16 C11 1_555 1_555
H13 C16 1_555 1_555
C17 C18 1_555 1_555
C18 H14 1_555 1_555
C19 C18 1_555 1_555
H15 C19 1_555 1_555
C20 C19 1_555 1_555
C21 C20 1_555 1_555
H16 C21 1_555 1_555
C22 C17 1_555 1_555
H17 C22 1_555 1_555
C23 C24 1_555 1_555
C24 H18 1_555 1_555
C25 C24 1_555 1_555
H19 C25 1_555 1_555
C26 C25 1_555 1_555
C27 C26 1_555 1_555
H20 C27 1_555 1_555
C28 C23 1_555 1_555
H21 C28 1_555 1_555
C29 H22 1_555 1_555
H23 C29 1_555 1_555
C30 C29 1_555 1_555
H24 C30 1_555 1_555
H25 C30 1_555 1_555
C31 C30 1_555 1_555
H26 C31 1_555 1_555
H27 C31 1_555 1_555
C32 C31 1_555 1_555
H28 C32 1_555 1_555
H29 C32 1_555 1_555
N1 C1 1_555 1_555
N2 C2 1_555 1_555
N3 C4 1_555 1_555
N4 C5 1_555 1_555
N5 C7 1_555 1_555
N6 C7 1_555 1_555
N7 C14 1_555 1_555
N8 O3 1_555 1_555
Ni1 N1 1_555 1_555
O1 C10 1_555 1_555
O2 C10 1_555 1_555
O3 Ni1 1_555 1_555
O4 N8 1_555 1_555
O5 N8 1_555 1_555
O6 H38 1_555 1_555
H39 O6 1_555 1_555
O7 H40 1_555 1_555
H41 O7 1_555 1_555
O8 H42 1_555 1_555
H43 O8 1_555 1_555
C10A C29A 1_555 1_555
C29A H22A 1_555 1_555
H23A C29A 1_555 1_555
C30A C29A 1_555 1_555
H24A C30A 1_555 1_555
H25A C30A 1_555 1_555
C31A C30A 1_555 1_555
H26A C31A 1_555 1_555
H27A C31A 1_555 1_555
C32A C32 1_555 1_555
H28A C32A 1_555 1_555
H29A C32A 1_555 1_555
O1A C10A 1_555 1_555
O2A C10A 1_555 1_555
C1A H1A 1_555 1_555
C2A C1A 1_555 1_555
H2A C2A 1_555 1_555
C3A H3A 1_555 1_555
C4A H4A 1_555 1_555
C5A C4A 1_555 1_555
H5A C5A 1_555 1_555
C6A H6A 1_555 1_555
C7A H7A 1_555 1_555
C8A H8A 1_555 1_555
C9A C8A 1_555 1_555
H9A C9A 1_555 1_555
C11A C12A 1_555 1_555
C12A H10A 1_555 1_555
C13A C12A 1_555 1_555
H11A C13A 1_555 1_555
C14A C13A 1_555 1_555
C15A C14A 1_555 1_555
H12A C15A 1_555 1_555
C16A C11A 1_555 1_555
H13A C16A 1_555 1_555
C17A C18A 1_555 1_555
C18A H14A 1_555 1_555
C19A C18A 1_555 1_555
H15A C19A 1_555 1_555
C20A C19A 1_555 1_555
C21A C20A 1_555 1_555
H16A C21A 1_555 1_555
C22A C17A 1_555 1_555
H17A C22A 1_555 1_555
C23A C24A 1_555 1_555
C24A H18A 1_555 1_555
C25A C24A 1_555 1_555
H19A C25A 1_555 1_555
C26A C25A 1_555 1_555
C27A C26A 1_555 1_555
H20A C27A 1_555 1_555
C28A C23A 1_555 1_555
H21A C28A 1_555 1_555
N1A C1A 1_555 1_555
N2A C2A 1_555 1_555
N3A C4A 1_555 1_555
N4A C5A 1_555 1_555
N5A C7A 1_555 1_555
N6A C7A 1_555 1_555
N7A C14A 1_555 1_555
N8A O3A 1_555 1_555
Ni1A O1A 1_555 1_555
O3A Ni1A 1_555 1_555
O4A N8A 1_555 1_555
O5A N8A 1_555 1_555
N3B Ni1 1_555 1_555
N3C Ni1A 1_555 1_555
N5B Ni1 1_555 1_555
N5C Ni1A 1_555 1_555
Ni1B N5 1_555 1_555
Ni1B_2 N3 1_555 1_555
Ni1C N5A 1_555 1_555
Ni1C_2 N3A 1_555 1_555
C3 N1 1_555 1_555
C3 N2 1_555 1_555
C6 N3 1_555 1_555
C6 N4 1_555 1_555
C8 N6 1_555 1_555
C9 N5 1_555 1_555
C11 N2 1_555 1_555
C15 C16 1_555 1_555
C17 N7 1_555 1_555
C20 N6 1_555 1_555
C21 C22 1_555 1_555
C23 N7 1_555 1_555
C26 N4 1_555 1_555
C27 C28 1_555 1_555
Ni1 O1 1_555 1_555
Ni1 O2 1_555 1_555
C31A C32A 1_555 1_555
O2A Ni1A 1_555 1_555
C3A N1A 1_555 1_555
C3A N2A 1_555 1_555
C6A N3A 1_555 1_555
C6A N4A 1_555 1_555
C8A N6A 1_555 1_555
C9A N5A 1_555 1_555
C11A N2A 1_555 1_555
C15A C16A 1_555 1_555
C17A N7A 1_555 1_555
C20A N6A 1_555 1_555
C21A C22A 1_555 1_555
C23A N7A 1_555 1_555
C26A N4A 1_555 1_555
C27A C28A 1_555 1_555
N1A Ni1A 1_555 1_555

#END
