
#######################################################################
#
#                 Cambridge Crystallographic Data Centre
#                                CCDC 
#
#######################################################################
#
# If this CIF has been generated from an entry in the Cambridge 
# Structural Database, then it will include bibliographic, chemical, 
# crystal, experimental, refinement or atomic coordinate data resulting 
# from the CCDC's data processing and validation procedures.
#
#######################################################################

data_FAMPUH
_chemical_formula_moiety         '(C60 H34 Cu4 N4 O20)n'
_symmetry_cell_setting           tetragonal
_symmetry_space_group_name_H-M   'P 4/m n c'
_symmetry_Int_Tables_number      128
_space_group_name_Hall           '-P 4 2n'
loop_
_symmetry_equiv_pos_site_id
_symmetry_equiv_pos_as_xyz
1 x,y,z
2 -x,-y,z
3 1/2-x,1/2+y,1/2-z
4 -y,x,z
5 1/2-y,1/2-x,1/2-z
6 y,-x,z
7 1/2+y,1/2+x,1/2-z
8 1/2+x,1/2-y,1/2-z
9 -x,-y,-z
10 x,y,-z
11 1/2+x,1/2-y,1/2+z
12 y,-x,-z
13 1/2+y,1/2+x,1/2+z
14 -y,x,-z
15 1/2-y,1/2-x,1/2+z
16 1/2-x,1/2+y,1/2+z
_cell_length_a                   18.6680(6)
_cell_length_b                   18.6680(6)
_cell_length_c                   34.8250(15)
_cell_angle_alpha                90
_cell_angle_beta                 90
_cell_angle_gamma                90
_cell_volume                     12136.3
loop_
_atom_site_label
_atom_site_type_symbol
_atom_site_fract_x
_atom_site_fract_y
_atom_site_fract_z
_atom_site_U_iso_or_equiv
_atom_site_thermal_displace_type
C1 C 0.6564(19) 0.8292(14) 0.0822(8) 0.2090 Uiso
C2 C 0.5940(19) 0.8541(14) 0.0935(8) 0.2090 Uiso
D1 D 0.707(2) 0.809(2) 0.0729(12) 0.2090 Uiso
D2 D 0.543(2) 0.874(2) 0.1028(12) 0.2090 Uiso
C3 C 0.815(5) 0.659(6) 0.068(2) 0.2090 Uiso
C4 C 0.767(5) 0.709(6) 0.075(2) 0.2090 Uiso
D3 D 0.855(6) 0.619(7) 0.063(4) 0.2090 Uiso
D4 D 0.727(6) 0.749(7) 0.081(4) 0.2090 Uiso
C5 C 0.395(3) 0.428(3) 0.376(2) 0.2090 Uiso
C6 C 0.402(3) 0.404(3) 0.411(2) 0.2090 Uiso
D5 D 0.389(5) 0.449(5) 0.347(2) 0.2090 Uiso
D6 D 0.408(5) 0.383(5) 0.440(2) 0.2090 Uiso
C7 C 0.1535(12) 0.4578(18) 0.8143(8) 0.2090 Uiso
C8 C 0.1649(12) 0.5271(18) 0.8118(8) 0.2090 Uiso
D7 D 0.144(2) 0.4013(19) 0.8163(13) 0.2090 Uiso
D8 D 0.174(2) 0.5836(19) 0.8098(13) 0.2090 Uiso
C9 C 0.1571(19) 0.020(2) 0.4148(17) 0.2090 Uiso
C10 C 0.1666(19) 0.055(2) 0.3824(17) 0.2090 Uiso
D9 D 0.149(3) -0.008(3) 0.4413(18) 0.2090 Uiso
D10 D 0.174(3) 0.083(3) 0.3559(18) 0.2090 Uiso
C11 C 0.0112(13) 0.4659(9) 0.000000 0.0557 Uiso
C12 C 0.0233(9) 0.4319(7) 0.0336(3) 0.0557 Uiso
C13 C 0.0475(9) 0.3637(7) 0.0336(3) 0.0557 Uiso
C14 C 0.0595(13) 0.3296(9) 0.000000 0.0557 Uiso
H1 H 0.0150(12) 0.4553(8) 0.0567(3) 0.0849 Uiso
H2 H 0.076(2) 0.2826(11) 0.000000 0.0849 Uiso
C15 C 0.0609(11) 0.3249(11) 0.0721(6) 0.0063 Uiso
O1 O 0.106(2) 0.274(2) 0.0715(11) 0.0063 Uiso
N1 N 0.008(3) 0.329(3) 0.0971(14) 0.0063 Uiso
H3 H -0.027(3) 0.357(4) 0.091(2) 0.0101 Uiso
C16 C 0.0135(6) 0.3133(6) 0.1412(3) 0.0063 Uiso
C17 C -0.0500(7) 0.3075(9) 0.1605(3) 0.0063 Uiso
C18 C -0.0508(8) 0.2828(11) 0.1974(4) 0.0063 Uiso
C19 C 0.0118(8) 0.2639(9) 0.2151(5) 0.0063 Uiso
C20 C 0.0753(8) 0.2698(8) 0.1958(4) 0.0063 Uiso
C21 C 0.0761(7) 0.2945(8) 0.1588(3) 0.0063 Uiso
H4 H -0.0926(7) 0.3203(12) 0.1485(4) 0.0101 Uiso
H5 H 0.0112(10) 0.2471(10) 0.2402(5) 0.0101 Uiso
H6 H 0.1193(7) 0.2984(12) 0.1457(4) 0.0101 Uiso
C22 C -0.1166(13) 0.2767(18) 0.2174(6) 0.0063 Uiso
O2 O -0.1772(15) 0.295(3) 0.2041(9) 0.0063 Uiso
O3 O -0.1235(19) 0.252(2) 0.2512(8) 0.0063 Uiso
C23 C 0.1401(13) 0.2502(12) 0.2141(6) 0.0063 Uiso
O4 O 0.2022(15) 0.267(2) 0.2024(9) 0.0063 Uiso
O5 O 0.145(2) 0.2130(16) 0.2445(7) 0.0063 Uiso
Cu1 Cu -0.2621(12) 0.2968(11) 0.2223(6) 0.0063 Uiso
C11A C -0.0112(13) 0.5341(9) 0.000000 0.0557 Uiso
C12A C -0.0233(9) 0.5681(7) 0.0336(3) 0.0557 Uiso
C13A C -0.0475(9) 0.6363(7) 0.0336(3) 0.0557 Uiso
C14A C -0.0595(13) 0.6704(9) 0.000000 0.0557 Uiso
H1A H -0.0150(12) 0.5447(8) 0.0567(3) 0.0849 Uiso
H2A H -0.076(2) 0.7174(11) 0.000000 0.0849 Uiso
C15A C -0.0609(11) 0.6751(11) 0.0721(6) 0.0063 Uiso
O1A O -0.106(2) 0.726(2) 0.0715(11) 0.0063 Uiso
N1A N -0.008(3) 0.671(3) 0.0971(14) 0.0063 Uiso
H3A H 0.027(3) 0.643(4) 0.091(2) 0.0101 Uiso
C16A C -0.0135(6) 0.6867(6) 0.1412(3) 0.0063 Uiso
C17A C 0.0500(7) 0.6925(9) 0.1605(3) 0.0063 Uiso
C18A C 0.0508(8) 0.7172(11) 0.1974(4) 0.0063 Uiso
C19A C -0.0118(8) 0.7361(9) 0.2151(5) 0.0063 Uiso
C20A C -0.0753(8) 0.7302(8) 0.1958(4) 0.0063 Uiso
C21A C -0.0761(7) 0.7055(8) 0.1588(3) 0.0063 Uiso
H4A H 0.0926(7) 0.6797(12) 0.1485(4) 0.0101 Uiso
H5A H -0.0112(10) 0.7529(10) 0.2402(5) 0.0101 Uiso
H6A H -0.1193(7) 0.7016(12) 0.1457(4) 0.0101 Uiso
C22A C 0.1166(13) 0.7233(18) 0.2174(6) 0.0063 Uiso
O2A O 0.1772(15) 0.705(3) 0.2041(9) 0.0063 Uiso
O3A O 0.1235(19) 0.748(2) 0.2512(8) 0.0063 Uiso
C23A C -0.1401(13) 0.7498(12) 0.2141(6) 0.0063 Uiso
O4A O -0.2022(15) 0.733(2) 0.2024(9) 0.0063 Uiso
O5A O -0.145(2) 0.7870(16) 0.2445(7) 0.0063 Uiso
C12I C 0.0233(9) 0.4319(7) -0.0336(3) 0.0557 Uiso
C13I C 0.0475(9) 0.3637(7) -0.0336(3) 0.0557 Uiso
H1I H 0.0150(12) 0.4553(8) -0.0567(3) 0.0849 Uiso
C15I C 0.0609(11) 0.3249(11) -0.0721(6) 0.0063 Uiso
O1I O 0.106(2) 0.274(2) -0.0715(11) 0.0063 Uiso
N1I N 0.008(3) 0.329(3) -0.0971(14) 0.0063 Uiso
H3I H -0.027(3) 0.357(4) -0.091(2) 0.0101 Uiso
C16I C 0.0135(6) 0.3133(6) -0.1412(3) 0.0063 Uiso
C17I C -0.0500(7) 0.3075(9) -0.1605(3) 0.0063 Uiso
C18I C -0.0508(8) 0.2828(11) -0.1974(4) 0.0063 Uiso
C19I C 0.0118(8) 0.2639(9) -0.2151(5) 0.0063 Uiso
C20I C 0.0753(8) 0.2698(8) -0.1958(4) 0.0063 Uiso
C21I C 0.0761(7) 0.2945(8) -0.1588(3) 0.0063 Uiso
H4I H -0.0926(7) 0.3203(12) -0.1485(4) 0.0101 Uiso
H5I H 0.0112(10) 0.2471(10) -0.2402(5) 0.0101 Uiso
H6I H 0.1193(7) 0.2984(12) -0.1457(4) 0.0101 Uiso
C22I C -0.1166(13) 0.2767(18) -0.2174(6) 0.0063 Uiso
O2I O -0.1772(15) 0.295(3) -0.2041(9) 0.0063 Uiso
O3I O -0.1235(19) 0.252(2) -0.2512(8) 0.0063 Uiso
C23I C 0.1401(13) 0.2502(12) -0.2141(6) 0.0063 Uiso
O4I O 0.2022(15) 0.267(2) -0.2024(9) 0.0063 Uiso
O5I O 0.145(2) 0.2130(16) -0.2445(7) 0.0063 Uiso
C12H C -0.0233(9) 0.5681(7) -0.0336(3) 0.0557 Uiso
C13H C -0.0475(9) 0.6363(7) -0.0336(3) 0.0557 Uiso
H1H H -0.0150(12) 0.5447(8) -0.0567(3) 0.0849 Uiso
C15H C -0.0609(11) 0.6751(11) -0.0721(6) 0.0063 Uiso
O1H O -0.106(2) 0.726(2) -0.0715(11) 0.0063 Uiso
N1H N -0.008(3) 0.671(3) -0.0971(14) 0.0063 Uiso
H3H H 0.027(3) 0.643(4) -0.091(2) 0.0101 Uiso
C16H C -0.0135(6) 0.6867(6) -0.1412(3) 0.0063 Uiso
C17H C 0.0500(7) 0.6925(9) -0.1605(3) 0.0063 Uiso
C18H C 0.0508(8) 0.7172(11) -0.1974(4) 0.0063 Uiso
C19H C -0.0118(8) 0.7361(9) -0.2151(5) 0.0063 Uiso
C20H C -0.0753(8) 0.7302(8) -0.1958(4) 0.0063 Uiso
C21H C -0.0761(7) 0.7055(8) -0.1588(3) 0.0063 Uiso
H4H H 0.0926(7) 0.6797(12) -0.1485(4) 0.0101 Uiso
H5H H -0.0112(10) 0.7529(10) -0.2402(5) 0.0101 Uiso
H6H H -0.1193(7) 0.7016(12) -0.1457(4) 0.0101 Uiso
C22H C 0.1166(13) 0.7233(18) -0.2174(6) 0.0063 Uiso
O2H O 0.1772(15) 0.705(3) -0.2041(9) 0.0063 Uiso
O3H O 0.1235(19) 0.748(2) -0.2512(8) 0.0063 Uiso
C23H C -0.1401(13) 0.7498(12) -0.2141(6) 0.0063 Uiso
O4H O -0.2022(15) 0.733(2) -0.2024(9) 0.0063 Uiso
O5H O -0.145(2) 0.7870(16) -0.2445(7) 0.0063 Uiso
Cu1A Cu 0.2621(12) 0.7032(11) 0.2223(6) 0.0063 Uiso
Cu1F Cu -0.2032(11) 0.2379(12) 0.2777(6) 0.0063 Uiso
Cu1E Cu 0.2968(11) 0.2621(12) 0.2223(6) 0.0063 Uiso
O2E O 0.295(3) 0.1772(15) 0.2041(9) 0.0063 Uiso
O2F O -0.205(3) 0.3228(15) 0.2959(9) 0.0063 Uiso
O3D O 0.248(2) 0.6235(19) 0.2488(8) 0.0063 Uiso
O3F O -0.248(2) 0.3765(19) 0.2488(8) 0.0063 Uiso
O3G O 0.3765(19) 0.248(2) 0.2488(8) 0.0063 Uiso
O4C O -0.267(2) 0.2022(15) 0.2024(9) 0.0063 Uiso
O4E O 0.267(2) 0.7978(15) 0.2024(9) 0.0063 Uiso
O4G O -0.2978(15) 0.233(2) 0.2976(9) 0.0063 Uiso
O5B O 0.355(2) 0.7130(16) 0.2555(7) 0.0063 Uiso
O5C O -0.2130(16) 0.145(2) 0.2445(7) 0.0063 Uiso
O5D O 0.2870(16) 0.355(2) 0.2555(7) 0.0063 Uiso
O5G O -0.355(2) 0.2870(16) 0.2555(7) 0.0063 Uiso
Cu1B Cu -0.2379(12) 0.7968(11) 0.2777(6) 0.0063 Uiso
Cu1O Cu -0.2379(12) 0.7968(11) -0.2777(6) 0.0063 Uiso
Cu1M Cu -0.2968(11) 0.7379(12) -0.2223(6) 0.0063 Uiso
Cu1C Cu -0.2968(11) 0.7379(12) 0.2223(6) 0.0063 Uiso
Cu1D Cu 0.2032(11) 0.7621(12) 0.2777(6) 0.0063 Uiso
Cu1N Cu 0.2032(11) 0.7621(12) -0.2777(6) 0.0063 Uiso
Cu1K Cu 0.2968(11) 0.2621(12) -0.2223(6) 0.0063 Uiso
Cu1L Cu -0.2032(11) 0.2379(12) -0.2777(6) 0.0063 Uiso
Cu1I Cu -0.2621(12) 0.2968(11) -0.2223(6) 0.0063 Uiso
Cu1H Cu 0.2621(12) 0.7032(11) -0.2223(6) 0.0063 Uiso
Cu1G Cu 0.2379(12) 0.2032(11) 0.2777(6) 0.0063 Uiso
Cu1J Cu 0.2379(12) 0.2032(11) -0.2777(6) 0.0063 Uiso
C24 C -0.3359(8) 0.3957(11) 0.1877(6) 0.2090 Uiso
C25 C -0.3307(8) 0.3348(11) 0.1689(6) 0.2090 Uiso
D11 D -0.3401(13) 0.4452(13) 0.2029(9) 0.2090 Uiso
D12 D -0.3264(13) 0.2852(13) 0.1536(9) 0.2090 Uiso
loop_
_geom_bond_atom_site_label_1
_geom_bond_atom_site_label_2
_geom_bond_site_symmetry_1
_geom_bond_site_symmetry_2
C1 C2 1_555 1_555
C2 D2 1_555 1_555
D1 C1 1_555 1_555
C3 C4 1_555 1_555
C4 D4 1_555 1_555
D3 C3 1_555 1_555
C5 C6 1_555 1_555
C6 D6 1_555 1_555
D5 C5 1_555 1_555
C7 C8 1_555 1_555
C8 D8 1_555 1_555
D7 C7 1_555 1_555
C9 C10 1_555 1_555
C10 D10 1_555 1_555
D9 C9 1_555 1_555
C11 C12 1_555 1_555
C12 C13 1_555 1_555
C13 C14 1_555 1_555
C14 H2 1_555 1_555
H1 C12 1_555 1_555
C15 C13 1_555 1_555
O1 C15 1_555 1_555
N1 C15 1_555 1_555
H3 N1 1_555 1_555
C16 N1 1_555 1_555
C17 C16 1_555 1_555
C18 C17 1_555 1_555
C19 C18 1_555 1_555
C20 C19 1_555 1_555
C21 C16 1_555 1_555
H4 C17 1_555 1_555
H5 C19 1_555 1_555
H6 C21 1_555 1_555
C22 C18 1_555 1_555
O2 C22 1_555 1_555
O3 C22 1_555 1_555
C23 C20 1_555 1_555
O4 C23 1_555 1_555
O5 C23 1_555 1_555
Cu1 O2 1_555 1_555
C24 C25 1_555 1_555
C25 D12 1_555 1_555
D11 C24 1_555 1_555
C11A C11 1_555 1_555
C12A C11A 1_555 1_555
C13A C12A 1_555 1_555
C14A C13A 1_555 1_555
H1A C12A 1_555 1_555
H2A C14A 1_555 1_555
C15A C13A 1_555 1_555
O1A C15A 1_555 1_555
N1A C15A 1_555 1_555
H3A N1A 1_555 1_555
C16A N1A 1_555 1_555
C17A C16A 1_555 1_555
C18A C17A 1_555 1_555
C19A C18A 1_555 1_555
C20A C19A 1_555 1_555
C21A C16A 1_555 1_555
H4A C17A 1_555 1_555
H5A C19A 1_555 1_555
H6A C21A 1_555 1_555
C22A C18A 1_555 1_555
O2A C22A 1_555 1_555
O3A C22A 1_555 1_555
C23A C20A 1_555 1_555
O4A C23A 1_555 1_555
O5A C23A 1_555 1_555
C12I C11 1_555 1_555
C13I C14 1_555 1_555
H1I C12I 1_555 1_555
C15I C13I 1_555 1_555
O1I C15I 1_555 1_555
N1I C15I 1_555 1_555
H3I N1I 1_555 1_555
C16I N1I 1_555 1_555
C17I C16I 1_555 1_555
C18I C17I 1_555 1_555
C19I C18I 1_555 1_555
C20I C19I 1_555 1_555
C21I C16I 1_555 1_555
H4I C17I 1_555 1_555
H5I C19I 1_555 1_555
H6I C21I 1_555 1_555
C22I C18I 1_555 1_555
O2I C22I 1_555 1_555
O3I C22I 1_555 1_555
C23I C20I 1_555 1_555
O4I C23I 1_555 1_555
O5I C23I 1_555 1_555
C12H C11A 1_555 1_555
C13H C14A 1_555 1_555
H1H C12H 1_555 1_555
C15H C13H 1_555 1_555
O1H C15H 1_555 1_555
N1H C15H 1_555 1_555
H3H N1H 1_555 1_555
C16H N1H 1_555 1_555
C17H C16H 1_555 1_555
C18H C17H 1_555 1_555
C19H C18H 1_555 1_555
C20H C19H 1_555 1_555
C21H C16H 1_555 1_555
H4H C17H 1_555 1_555
H5H C19H 1_555 1_555
H6H C21H 1_555 1_555
C22H C18H 1_555 1_555
O2H C22H 1_555 1_555
O3H C22H 1_555 1_555
C23H C20H 1_555 1_555
O4H C23H 1_555 1_555
O5H C23H 1_555 1_555
Cu1A O2A 1_555 1_555
Cu1F O3 1_555 1_555
Cu1E O4 1_555 1_555
O2E Cu1E 1_555 1_555
O2F Cu1F 1_555 1_555
O3D Cu1A 1_555 1_555
O3F Cu1 1_555 1_555
O3G Cu1E 1_555 1_555
O4C Cu1 1_555 1_555
O4E Cu1A 1_555 1_555
O4G Cu1F 1_555 1_555
O5B Cu1A 1_555 1_555
O5C Cu1F 1_555 1_555
O5D Cu1E 1_555 1_555
O5G Cu1 1_555 1_555
Cu1B O5A 1_555 1_555
Cu1O O5H 1_555 1_555
Cu1M O4H 1_555 1_555
Cu1C O4A 1_555 1_555
Cu1D O3A 1_555 1_555
Cu1N O3H 1_555 1_555
Cu1K O4I 1_555 1_555
Cu1L O3I 1_555 1_555
Cu1I O2I 1_555 1_555
Cu1H O2H 1_555 1_555
Cu1G O5 1_555 1_555
Cu1J O5I 1_555 1_555
C20 C21 1_555 1_555
C20A C21A 1_555 1_555
C12I C13I 1_555 1_555
C20I C21I 1_555 1_555
C12H C13H 1_555 1_555
C20H C21H 1_555 1_555

#END
