
#######################################################################
#
#                 Cambridge Crystallographic Data Centre
#                                CCDC 
#
#######################################################################
#
# If this CIF has been generated from an entry in the Cambridge 
# Structural Database, then it will include bibliographic, chemical, 
# crystal, experimental, refinement or atomic coordinate data resulting 
# from the CCDC's data processing and validation procedures.
#
#######################################################################

data_FAMQES
_chemical_formula_moiety         '(C48 H30 Cu4 N4 O24)n'
_symmetry_cell_setting           tetragonal
_symmetry_space_group_name_H-M   'P 4/m n c'
_symmetry_Int_Tables_number      128
_space_group_name_Hall           '-P 4 2n'
loop_
_symmetry_equiv_pos_site_id
_symmetry_equiv_pos_as_xyz
1 x,y,z
2 -y,x,z
3 -x,-y,z
4 y,-x,z
5 1/2+x,1/2-y,1/2-z
6 1/2-x,1/2+y,1/2-z
7 1/2+y,1/2+x,1/2-z
8 1/2-y,1/2-x,1/2-z
9 -x,-y,-z
10 y,-x,-z
11 x,y,-z
12 -y,x,-z
13 1/2-x,1/2+y,1/2+z
14 1/2+x,1/2-y,1/2+z
15 1/2-y,1/2-x,1/2+z
16 1/2+y,1/2+x,1/2+z
_cell_length_a                   18.6841(7)
_cell_length_b                   18.6841(7)
_cell_length_c                   34.6796(17)
_cell_angle_alpha                90
_cell_angle_beta                 90
_cell_angle_gamma                90
_cell_volume                     12106.5
loop_
_atom_site_label
_atom_site_type_symbol
_atom_site_fract_x
_atom_site_fract_y
_atom_site_fract_z
_atom_site_U_iso_or_equiv
_atom_site_thermal_displace_type
Cu1 Cu 0.73801(4) 0.30469(4) 0.22116(2) 0.0487 Uani
O1 O 0.8370(2) 0.3128(2) 0.20199(9) 0.0631 Uani
O2 O 1.2124(2) 0.2672(2) 0.19641(9) 0.0655 Uani
O3 O 1.1538(2) 0.2225(2) 0.24758(10) 0.0608 Uani
O4 O 0.89063(19) 0.2493(2) 0.24900(9) 0.0589 Uani
C1 C 0.8894(3) 0.2827(3) 0.21685(14) 0.0560 Uani
O5 O 0.6866(3) 0.3580(3) 0.17439(12) 0.0963 Uani
H1 H 0.6685 0.4082 0.1741 0.1450 Uiso
H2 H 0.6756 0.3378 0.1483 0.1450 Uiso
C2 C 1.1556(3) 0.2507(3) 0.21443(13) 0.0593 Uani
C3 C 1.0876(3) 0.2671(3) 0.19459(13) 0.0633 Uani
C4 C 0.9601(3) 0.2869(3) 0.19583(14) 0.0613 Uani
C5 C 1.0230(3) 0.2641(3) 0.21442(13) 0.0567 Uani
H3 H 1.0214 0.2473 0.2396 0.0680 Uiso
C6 C 1.0891(3) 0.2912(4) 0.15650(14) 0.0740 Uani
H4 H 1.1324 0.2934 0.1433 0.0890 Uiso
C7 C 1.0262(3) 0.3118(4) 0.13840(14) 0.0793 Uani
C8 C 0.9620(3) 0.3094(4) 0.15841(14) 0.0670 Uani
H5 H 0.9198 0.3232 0.1462 0.0810 Uiso
C9 C 1.0128(5) 0.4619(5) 0.0000 0.0733 Uani
C10 C 1.0726(5) 0.3246(7) 0.0000 0.0883 Uani
H6 H 1.0954 0.2804 0.0000 0.1060 Uiso
C11 C 1.0284(4) 0.4253(5) 0.03432(14) 0.0867 Uani
H7 H 1.0198 0.4480 0.0577 0.1040 Uiso
C12 C 1.0557(4) 0.3575(5) 0.03445(15) 0.0813 Uani
O6 O 1.1221(4) 0.2808(4) 0.07506(13) 0.1333 Uani
C13 C 1.0704(5) 0.3209(5) 0.07152(16) 0.0960 Uani
N1 N 1.0240(3) 0.3351(5) 0.09972(14) 0.1100 Uani
H8 H 0.9883 0.3617 0.0935 0.1320 Uiso
O1B O 1.1630(2) 0.6872(2) 0.20199(9) 0.0631 Uani
C1B C 1.1106(3) 0.7173(3) 0.21685(14) 0.0560 Uani
C2B C 0.8444(3) 0.7493(3) 0.21443(13) 0.0593 Uani
C3B C 0.9124(3) 0.7329(3) 0.19459(13) 0.0633 Uani
C4B C 1.0399(3) 0.7131(3) 0.19583(14) 0.0613 Uani
C5B C 0.9770(3) 0.7359(3) 0.21442(13) 0.0567 Uani
H3B H 0.9786 0.7527 0.2396 0.0680 Uiso
C6B C 0.9109(3) 0.7088(4) 0.15650(14) 0.0740 Uani
H4B H 0.8676 0.7066 0.1433 0.0890 Uiso
C7B C 0.9738(3) 0.6882(4) 0.13840(14) 0.0793 Uani
C8B C 1.0380(3) 0.6906(4) 0.15841(14) 0.0670 Uani
H5B H 1.0802 0.6768 0.1462 0.0810 Uiso
C9B C 0.9872(5) 0.5381(5) 0.0000 0.0733 Uani
C10B C 0.9274(5) 0.6754(7) 0.0000 0.0883 Uani
H6B H 0.9046 0.7196 0.0000 0.1060 Uiso
C11B C 0.9716(4) 0.5747(5) 0.03432(14) 0.0867 Uani
H7B H 0.9802 0.5520 0.0577 0.1040 Uiso
C12B C 0.9443(4) 0.6425(5) 0.03445(15) 0.0813 Uani
O6B O 0.8779(4) 0.7192(4) 0.07506(13) 0.1333 Uani
C13B C 0.9296(5) 0.6791(5) 0.07152(16) 0.0960 Uani
N1B N 0.9760(3) 0.6649(5) 0.09972(14) 0.1100 Uani
H8B H 1.0117 0.6383 0.0935 0.1320 Uiso
O2B O 0.7876(2) 0.7328(2) 0.19641(9) 0.0655 Uani
O3B O 0.8462(2) 0.7775(2) 0.24758(10) 0.0608 Uani
O4B O 1.10937(19) 0.7507(2) 0.24900(9) 0.0589 Uani
O1H O 1.1630(2) 0.6872(2) -0.20199(9) 0.0631 Uani
C1H C 1.1106(3) 0.7173(3) -0.21685(14) 0.0560 Uani
C2H C 0.8444(3) 0.7493(3) -0.21443(13) 0.0593 Uani
C3H C 0.9124(3) 0.7329(3) -0.19459(13) 0.0633 Uani
C4H C 1.0399(3) 0.7131(3) -0.19583(14) 0.0613 Uani
C5H C 0.9770(3) 0.7359(3) -0.21442(13) 0.0567 Uani
H3H H 0.9786 0.7527 -0.2396 0.0680 Uiso
C6H C 0.9109(3) 0.7088(4) -0.15650(14) 0.0740 Uani
H4H H 0.8676 0.7066 -0.1433 0.0890 Uiso
C7H C 0.9738(3) 0.6882(4) -0.13840(14) 0.0793 Uani
C8H C 1.0380(3) 0.6906(4) -0.15841(14) 0.0670 Uani
H5H H 1.0802 0.6768 -0.1462 0.0810 Uiso
C11H C 0.9716(4) 0.5747(5) -0.03432(14) 0.0867 Uani
H7H H 0.9802 0.5520 -0.0577 0.1040 Uiso
C12H C 0.9443(4) 0.6425(5) -0.03445(15) 0.0813 Uani
O6H O 0.8779(4) 0.7192(4) -0.07506(13) 0.1333 Uani
C13H C 0.9296(5) 0.6791(5) -0.07152(16) 0.0960 Uani
N1H N 0.9760(3) 0.6649(5) -0.09972(14) 0.1100 Uani
H8H H 1.0117 0.6383 -0.0935 0.1320 Uiso
O2H O 0.7876(2) 0.7328(2) -0.19641(9) 0.0655 Uani
O3H O 0.8462(2) 0.7775(2) -0.24758(10) 0.0608 Uani
O4H O 1.10937(19) 0.7507(2) -0.24900(9) 0.0589 Uani
O1J O 0.8370(2) 0.3128(2) -0.20199(9) 0.0631 Uani
C1J C 0.8894(3) 0.2827(3) -0.21685(14) 0.0560 Uani
C2J C 1.1556(3) 0.2507(3) -0.21443(13) 0.0593 Uani
C3J C 1.0876(3) 0.2671(3) -0.19459(13) 0.0633 Uani
C4J C 0.9601(3) 0.2869(3) -0.19583(14) 0.0613 Uani
C5J C 1.0230(3) 0.2641(3) -0.21442(13) 0.0567 Uani
H3J H 1.0214 0.2473 -0.2396 0.0680 Uiso
C6J C 1.0891(3) 0.2912(4) -0.15650(14) 0.0740 Uani
H4J H 1.1324 0.2934 -0.1433 0.0890 Uiso
C7J C 1.0262(3) 0.3118(4) -0.13840(14) 0.0793 Uani
C8J C 0.9620(3) 0.3094(4) -0.15841(14) 0.0670 Uani
H5J H 0.9198 0.3232 -0.1462 0.0810 Uiso
C11J C 1.0284(4) 0.4253(5) -0.03432(14) 0.0867 Uani
H7J H 1.0198 0.4480 -0.0577 0.1040 Uiso
C12J C 1.0557(4) 0.3575(5) -0.03445(15) 0.0813 Uani
O6J O 1.1221(4) 0.2808(4) -0.07506(13) 0.1333 Uani
C13J C 1.0704(5) 0.3209(5) -0.07152(16) 0.0960 Uani
N1J N 1.0240(3) 0.3351(5) -0.09972(14) 0.1100 Uani
H8J H 0.9883 0.3617 -0.0935 0.1320 Uiso
O2J O 1.2124(2) 0.2672(2) -0.19641(9) 0.0655 Uani
O3J O 1.1538(2) 0.2225(2) -0.24758(10) 0.0608 Uani
O4J O 0.89063(19) 0.2493(2) -0.24900(9) 0.0589 Uani
Cu1B Cu 1.26199(4) 0.69531(4) 0.22116(2) 0.0487 Uani
O5B O 1.3134(3) 0.6420(3) 0.17439(12) 0.0963 Uani
H1B H 1.3315 0.5918 0.1741 0.1450 Uiso
H2B H 1.3244 0.6622 0.1483 0.1450 Uiso
Cu1F Cu 0.80469(4) 0.23801(4) 0.27884(2) 0.0487 Uani
O5F O 0.8580(3) 0.1866(3) 0.32561(12) 0.0963 Uani
H1F H 0.9082 0.1685 0.3259 0.1450 Uiso
H2F H 0.8378 0.1756 0.3517 0.1450 Uiso
Cu1C Cu 1.30469(4) 0.26199(4) 0.22116(2) 0.0487 Uani
O5C O 1.3580(3) 0.3134(3) 0.17439(12) 0.0963 Uani
H1C H 1.4082 0.3315 0.1741 0.1450 Uiso
H2C H 1.3378 0.3244 0.1483 0.1450 Uiso
Cu1A Cu 0.69531(4) 0.73801(4) 0.22116(2) 0.0487 Uani
Cu1D Cu 1.23801(4) 0.19531(4) 0.27884(2) 0.0487 Uani
Cu1E Cu 0.76199(4) 0.80469(4) 0.27884(2) 0.0487 Uani
Cu1G Cu 1.19531(4) 0.76199(4) 0.27884(2) 0.0487 Uani
Cu1H Cu 1.26199(4) 0.69531(4) -0.22116(2) 0.0487 Uani
Cu1I Cu 1.30469(4) 0.26199(4) -0.22116(2) 0.0487 Uani
Cu1J Cu 0.73801(4) 0.30469(4) -0.22116(2) 0.0487 Uani
Cu1K Cu 0.69531(4) 0.73801(4) -0.22116(2) 0.0487 Uani
Cu1L Cu 0.76199(4) 0.80469(4) -0.27884(2) 0.0487 Uani
Cu1M Cu 1.23801(4) 0.19531(4) -0.27884(2) 0.0487 Uani
Cu1N Cu 1.19531(4) 0.76199(4) -0.27884(2) 0.0487 Uani
Cu1O Cu 0.80469(4) 0.23801(4) -0.27884(2) 0.0487 Uani
O1C O 1.3128(2) 0.1630(2) 0.20199(9) 0.0631 Uani
O1F O 0.8128(2) 0.3370(2) 0.29801(9) 0.0631 Uani
O2A O 0.7328(2) 0.2124(2) 0.19641(9) 0.0655 Uani
O2C O 1.2672(2) 0.7876(2) 0.19641(9) 0.0655 Uani
O2D O 0.7124(2) 0.2328(2) 0.30359(9) 0.0655 Uani
O3A O 0.7775(2) 0.1538(2) 0.24758(10) 0.0608 Uani
O3D O 0.6538(2) 0.2775(2) 0.25242(10) 0.0608 Uani
O3E O 1.3462(2) 0.7225(2) 0.25242(10) 0.0608 Uani
O3G O 1.2775(2) 0.3462(2) 0.25242(10) 0.0608 Uani
O4D O 1.39063(19) 0.2507(2) 0.25100(9) 0.0589 Uani
O4F O 0.7493(2) 0.39063(19) 0.25100(9) 0.0589 Uani
O4G O 1.2507(2) 0.60937(19) 0.25100(9) 0.0589 Uani
loop_
_atom_site_aniso_label
_atom_site_aniso_U_11
_atom_site_aniso_U_22
_atom_site_aniso_U_33
_atom_site_aniso_U_23
_atom_site_aniso_U_13
_atom_site_aniso_U_12
Cu1 0.0550(5) 0.0541(5) 0.0369(4) 0.0051(3) -0.0048(3) 0.0021(3)
O1 0.058(2) 0.079(3) 0.0522(17) 0.0173(18) 0.0011(16) 0.011(2)
O2 0.057 0.099 0.0404 0.0094 -0.0019 -0.002
O3 0.054 0.078 0.0505 0.0107 -0.0031 -0.003
O4 0.059 0.074 0.0436 0.0112 0.0003 -0.0024
C1 0.059(3) 0.061(3) 0.048(2) -0.002(2) -0.005(2) -0.009(3)
O5 0.123(4) 0.098(3) 0.068(2) 0.020(2) -0.029(3) 0.020(3)
C2 0.065(3) 0.074(4) 0.039(2) 0.003(2) 0.001(2) 0.000(3)
C3 0.068(3) 0.087(4) 0.035(2) 0.000(2) 0.007(2) 0.004(3)
C4 0.053(3) 0.088(4) 0.043(2) 0.001(2) 0.007(2) 0.005(3)
C5 0.061(3) 0.069(3) 0.040(2) 0.001(2) 0.000(2) 0.000(3)
C6 0.064(3) 0.117(5) 0.041(2) -0.004(3) 0.000(2) 0.018(4)
C7 0.066(4) 0.134(6) 0.038(2) 0.007(3) 0.002(2) 0.003(4)
C8 0.057(3) 0.101(5) 0.043(2) 0.001(3) -0.004(2) 0.009(3)
C9 0.062(5) 0.126(8) 0.032(3) 0.000 0.000 -0.009(5)
C10 0.078(6) 0.139(9) 0.048(4) 0.000 0.000 0.007(6)
C11 0.075(4) 0.150(7) 0.035(2) 0.001(3) 0.005(3) 0.007(5)
C12 0.070(4) 0.131(6) 0.043(3) -0.005(3) 0.008(3) 0.001(4)
O6 0.161(6) 0.192(7) 0.047(2) 0.004(3) 0.018(3) 0.076(5)
C13 0.096(5) 0.146(7) 0.046(3) 0.006(4) 0.009(3) 0.031(5)
N1 0.076(4) 0.206(8) 0.048(2) 0.023(4) 0.007(2) 0.031(4)
O1B 0.058 0.079 0.0522 -0.0173 -0.0011 0.011
C1B 0.059 0.061 0.048 0.002 0.005 -0.009
C2B 0.065 0.074 0.039 -0.003 -0.001 0
C3B 0.068 0.087 0.035 0 -0.007 0.004
C4B 0.053 0.088 0.043 -0.001 -0.007 0.005
C5B 0.061 0.069 0.04 -0.001 0 0
C6B 0.064 0.117 0.041 0.004 0 0.018
C7B 0.066 0.134 0.038 -0.007 -0.002 0.003
C8B 0.057 0.101 0.043 -0.001 0.004 0.009
C9B 0.062 0.126 0.032 0 0 -0.009
C10B 0.078 0.139 0.048 0 0 0.007
C11B 0.075 0.15 0.035 -0.001 -0.005 0.007
C12B 0.07 0.131 0.043 0.005 -0.008 0.001
O6B 0.161 0.192 0.047 -0.004 -0.018 0.076
C13B 0.096 0.146 0.046 -0.006 -0.009 0.031
N1B 0.076 0.206 0.048 -0.023 -0.007 0.031
O2B 0.057 0.099 0.0404 -0.0094 0.0019 -0.002
O3B 0.054 0.078 0.0505 -0.0107 0.0031 -0.003
O4B 0.059 0.074 0.0436 -0.0112 -0.0003 -0.0024
O1H 0.058 0.079 0.0522 0.0173 0.0011 0.011
C1H 0.059 0.061 0.048 -0.002 -0.005 -0.009
C2H 0.065 0.074 0.039 0.003 0.001 0
C3H 0.068 0.087 0.035 0 0.007 0.004
C4H 0.053 0.088 0.043 0.001 0.007 0.005
C5H 0.061 0.069 0.04 0.001 0 0
C6H 0.064 0.117 0.041 -0.004 0 0.018
C7H 0.066 0.134 0.038 0.007 0.002 0.003
C8H 0.057 0.101 0.043 0.001 -0.004 0.009
C11H 0.075 0.15 0.035 0.001 0.005 0.007
C12H 0.07 0.131 0.043 -0.005 0.008 0.001
O6H 0.161 0.192 0.047 0.004 0.018 0.076
C13H 0.096 0.146 0.046 0.006 0.009 0.031
N1H 0.076 0.206 0.048 0.023 0.007 0.031
O2H 0.057 0.099 0.0404 0.0094 -0.0019 -0.002
O3H 0.054 0.078 0.0505 0.0107 -0.0031 -0.003
O4H 0.059 0.074 0.0436 0.0112 0.0003 -0.0024
O1J 0.058 0.079 0.0522 -0.0173 -0.0011 0.011
C1J 0.059 0.061 0.048 0.002 0.005 -0.009
C2J 0.065 0.074 0.039 -0.003 -0.001 0
C3J 0.068 0.087 0.035 0 -0.007 0.004
C4J 0.053 0.088 0.043 -0.001 -0.007 0.005
C5J 0.061 0.069 0.04 -0.001 0 0
C6J 0.064 0.117 0.041 0.004 0 0.018
C7J 0.066 0.134 0.038 -0.007 -0.002 0.003
C8J 0.057 0.101 0.043 -0.001 0.004 0.009
C11J 0.075 0.15 0.035 -0.001 -0.005 0.007
C12J 0.07 0.131 0.043 0.005 -0.008 0.001
O6J 0.161 0.192 0.047 -0.004 -0.018 0.076
C13J 0.096 0.146 0.046 -0.006 -0.009 0.031
N1J 0.076 0.206 0.048 -0.023 -0.007 0.031
O2J 0.057 0.099 0.0404 -0.0094 0.0019 -0.002
O3J 0.054 0.078 0.0505 -0.0107 0.0031 -0.003
O4J 0.059 0.074 0.0436 -0.0112 -0.0003 -0.0024
Cu1B 0.055 0.0541 0.0369 -0.0051 0.0048 0.0021
O5B 0.123 0.098 0.068 -0.02 0.029 0.02
Cu1F 0.0541 0.055 0.0369 0.0048 -0.0051 0.0021
O5F 0.098 0.123 0.068 0.029 -0.02 0.02
Cu1C 0.0541 0.055 0.0369 0.0048 0.0051 -0.0021
O5C 0.098 0.123 0.068 0.029 0.02 -0.02
Cu1A 0.0541 0.055 0.0369 -0.0048 -0.0051 -0.0021
Cu1D 0.055 0.0541 0.0369 0.0051 0.0048 -0.0021
Cu1E 0.055 0.0541 0.0369 -0.0051 -0.0048 -0.0021
Cu1G 0.0541 0.055 0.0369 -0.0048 0.0051 0.0021
Cu1H 0.055 0.0541 0.0369 0.0051 -0.0048 0.0021
Cu1I 0.0541 0.055 0.0369 -0.0048 -0.0051 -0.0021
Cu1J 0.055 0.0541 0.0369 -0.0051 0.0048 0.0021
Cu1K 0.0541 0.055 0.0369 0.0048 0.0051 -0.0021
Cu1L 0.055 0.0541 0.0369 0.0051 0.0048 -0.0021
Cu1M 0.055 0.0541 0.0369 -0.0051 -0.0048 -0.0021
Cu1N 0.0541 0.055 0.0369 0.0048 -0.0051 0.0021
Cu1O 0.0541 0.055 0.0369 -0.0048 0.0051 0.0021
O1C 0.079 0.058 0.0522 -0.0011 0.0173 -0.011
O1F 0.079 0.058 0.0522 -0.0011 -0.0173 0.011
O2A 0.099 0.057 0.0404 -0.0019 -0.0094 0.002
O2C 0.099 0.057 0.0404 0.0019 0.0094 0.002
O2D 0.057 0.099 0.0404 0.0094 0.0019 0.002
O3A 0.078 0.054 0.0505 -0.0031 -0.0107 0.003
O3D 0.054 0.078 0.0505 0.0107 0.0031 0.003
O3E 0.054 0.078 0.0505 -0.0107 -0.0031 0.003
O3G 0.078 0.054 0.0505 -0.0031 0.0107 -0.003
O4D 0.059 0.074 0.0436 0.0112 -0.0003 0.0024
O4F 0.074 0.059 0.0436 -0.0003 -0.0112 -0.0024
O4G 0.074 0.059 0.0436 0.0003 0.0112 -0.0024
loop_
_geom_bond_atom_site_label_1
_geom_bond_atom_site_label_2
_geom_bond_site_symmetry_1
_geom_bond_site_symmetry_2
Cu1 O1 1_555 1_555
O1 C1 1_555 1_555
O2 C2 1_555 1_555
O3 C2 1_555 1_555
O4 C1 1_555 1_555
C1 C4 1_555 1_555
O5 Cu1 1_555 1_555
H1 O5 1_555 1_555
H2 O5 1_555 1_555
C2 C3 1_555 1_555
C3 C5 1_555 1_555
C4 C5 1_555 1_555
C5 H3 1_555 1_555
C6 C3 1_555 1_555
H4 C6 1_555 1_555
C7 C6 1_555 1_555
C8 C4 1_555 1_555
H5 C8 1_555 1_555
C9 C11 1_555 1_555
C10 H6 1_555 1_555
C11 H7 1_555 1_555
C12 C10 1_555 1_555
O6 C13 1_555 1_555
C13 C12 1_555 1_555
N1 C7 1_555 1_555
H8 N1 1_555 1_555
O1B C1B 1_555 1_555
C1B C4B 1_555 1_555
C2B C3B 1_555 1_555
C3B C5B 1_555 1_555
C4B C5B 1_555 1_555
C5B H3B 1_555 1_555
C6B C3B 1_555 1_555
H4B C6B 1_555 1_555
C7B C6B 1_555 1_555
C8B C4B 1_555 1_555
H5B C8B 1_555 1_555
C9B C9 1_555 1_555
C10B H6B 1_555 1_555
C11B C9B 1_555 1_555
H7B C11B 1_555 1_555
C12B C10B 1_555 1_555
O6B C13B 1_555 1_555
C13B C12B 1_555 1_555
N1B C7B 1_555 1_555
H8B N1B 1_555 1_555
O2B C2B 1_555 1_555
O3B C2B 1_555 1_555
O4B C1B 1_555 1_555
O1H C1H 1_555 1_555
C1H C4H 1_555 1_555
C2H C3H 1_555 1_555
C3H C5H 1_555 1_555
C4H C5H 1_555 1_555
C5H H3H 1_555 1_555
C6H C3H 1_555 1_555
H4H C6H 1_555 1_555
C7H C6H 1_555 1_555
C8H C4H 1_555 1_555
H5H C8H 1_555 1_555
C11H C9B 1_555 1_555
H7H C11H 1_555 1_555
C12H C10B 1_555 1_555
O6H C13H 1_555 1_555
C13H C12H 1_555 1_555
N1H C7H 1_555 1_555
H8H N1H 1_555 1_555
O2H C2H 1_555 1_555
O3H C2H 1_555 1_555
O4H C1H 1_555 1_555
O1J C1J 1_555 1_555
C1J C4J 1_555 1_555
C2J C3J 1_555 1_555
C3J C5J 1_555 1_555
C4J C5J 1_555 1_555
C5J H3J 1_555 1_555
C6J C3J 1_555 1_555
H4J C6J 1_555 1_555
C7J C6J 1_555 1_555
C8J C4J 1_555 1_555
H5J C8J 1_555 1_555
C11J C9 1_555 1_555
H7J C11J 1_555 1_555
C12J C10 1_555 1_555
O6J C13J 1_555 1_555
C13J C12J 1_555 1_555
N1J C7J 1_555 1_555
H8J N1J 1_555 1_555
O2J C2J 1_555 1_555
O3J C2J 1_555 1_555
O4J C1J 1_555 1_555
Cu1B O1B 1_555 1_555
O5B Cu1B 1_555 1_555
H1B O5B 1_555 1_555
H2B O5B 1_555 1_555
Cu1F Cu1 1_555 1_555
O5F Cu1F 1_555 1_555
H1F O5F 1_555 1_555
H2F O5F 1_555 1_555
Cu1C O2 1_555 1_555
O5C Cu1C 1_555 1_555
H1C O5C 1_555 1_555
H2C O5C 1_555 1_555
Cu1A O2B 1_555 1_555
Cu1D O3 1_555 1_555
Cu1E O3B 1_555 1_555
Cu1G O4B 1_555 1_555
Cu1H O1H 1_555 1_555
Cu1I O2J 1_555 1_555
Cu1J O1J 1_555 1_555
Cu1K O2H 1_555 1_555
Cu1L O3H 1_555 1_555
Cu1M O3J 1_555 1_555
Cu1N O4H 1_555 1_555
Cu1O O4J 1_555 1_555
O1C Cu1C 1_555 1_555
O1F Cu1F 1_555 1_555
O2A Cu1 1_555 1_555
O2C Cu1B 1_555 1_555
O2D Cu1F 1_555 1_555
O3A Cu1F 1_555 1_555
O3D Cu1 1_555 1_555
O3E Cu1B 1_555 1_555
O3G Cu1C 1_555 1_555
O4D Cu1C 1_555 1_555
O4F Cu1 1_555 1_555
O4G Cu1B 1_555 1_555
O4 Cu1F 1_555 1_555
C7 C8 1_555 1_555
C11 C12 1_555 1_555
C13 N1 1_555 1_555
C7B C8B 1_555 1_555
C11B C12B 1_555 1_555
C13B N1B 1_555 1_555
C7H C8H 1_555 1_555
C11H C12H 1_555 1_555
C13H N1H 1_555 1_555
C7J C8J 1_555 1_555
C11J C12J 1_555 1_555
C13J N1J 1_555 1_555
Cu1B Cu1G 1_555 1_555
Cu1C Cu1D 1_555 1_555
Cu1A Cu1E 1_555 1_555
Cu1H Cu1N 1_555 1_555
Cu1I Cu1M 1_555 1_555
Cu1J Cu1O 1_555 1_555
Cu1K Cu1L 1_555 1_555

#END
