
#######################################################################
#
#                 Cambridge Crystallographic Data Centre
#                                CCDC 
#
#######################################################################
#
# If this CIF has been generated from an entry in the Cambridge 
# Structural Database, then it will include bibliographic, chemical, 
# crystal, experimental, refinement or atomic coordinate data resulting 
# from the CCDC's data processing and validation procedures.
#
#######################################################################

data_ESIGES02
_chemical_formula_moiety         '(C21 H22 N2 O12 P2 Zn2)n'
_symmetry_cell_setting           monoclinic
_symmetry_space_group_name_H-M   'P 21/c'
_symmetry_Int_Tables_number      14
_space_group_name_Hall           '-P 2ybc'
loop_
_symmetry_equiv_pos_site_id
_symmetry_equiv_pos_as_xyz
1 x,y,z
2 -x,1/2+y,1/2-z
3 -x,-y,-z
4 x,1/2-y,1/2+z
_cell_length_a                   27.6213(12)
_cell_length_b                   9.1189(4)
_cell_length_c                   9.9954(5)
_cell_angle_alpha                90
_cell_angle_beta                 92.2110(10)
_cell_angle_gamma                90
_cell_volume                     2515.73
loop_
_atom_site_label
_atom_site_type_symbol
_atom_site_fract_x
_atom_site_fract_y
_atom_site_fract_z
_atom_site_U_iso_or_equiv
_atom_site_thermal_displace_type
Zn1 Zn 0.049544(16) 0.32200(5) 0.09595(5) 0.0213 Uani
Zn2 Zn 0.451647(17) 0.32169(6) 0.08788(5) 0.0274 Uani
P1 P 0.02663(4) 0.41946(12) -0.19539(11) 0.0217 Uani
P2 P 0.47664(4) 0.42296(14) -0.19868(11) 0.0273 Uani
O1 O 0.03338(12) 0.2971(3) -0.0949(3) 0.0292 Uani
O2 O 0.02171(11) 0.3572(4) -0.3379(3) 0.0271 Uani
O3 O -0.01638(12) 0.5148(4) -0.1718(3) 0.0374 Uani
O4 O 0.07394(13) 0.5189(4) -0.1868(4) 0.0394 Uani
O5 O 0.46738(12) 0.3029(4) -0.0988(3) 0.0320 Uani
O6 O 0.52475(12) 0.5010(4) -0.1737(4) 0.0381 Uani
O7 O 0.43551(13) 0.5414(4) -0.1887(4) 0.0447 Uani
O8 O 0.47657(12) 0.3626(4) -0.3407(3) 0.0348 Uani
O9 O 0.11821(11) 0.3668(4) 0.1196(4) 0.0409 Uani
O10 O 0.14355(13) 0.1944(5) 0.2643(4) 0.0542 Uani
O11 O 0.35655(14) 0.4599(6) -0.0658(5) 0.0591 Uani
O12 O 0.38197(12) 0.3340(4) 0.1155(4) 0.0435 Uani
C1 C 0.20219(16) 0.3348(6) 0.1545(5) 0.0317 Uani
C2 C 0.24007(18) 0.2662(7) 0.2268(6) 0.0439 Uani
C3 C 0.21277(17) 0.4294(6) 0.0513(5) 0.0362 Uani
C4 C 0.28789(17) 0.2906(7) 0.1932(6) 0.0444 Uani
C5 C 0.26060(17) 0.4527(6) 0.0181(5) 0.0366 Uani
C6 C 0.29827(15) 0.3807(6) 0.0869(5) 0.0330 Uani
C7 C 0.34974(17) 0.3944(6) 0.0394(5) 0.0372 Uani
C21 C 0.15037(16) 0.2953(6) 0.1840(5) 0.0359 Uani
H2 H 0.2688 0.5219 -0.0626 0.0800 Uiso
H6 H 0.1895 0.4896 0.0042 0.0800 Uiso
H8 H 0.2336 0.2117 0.2989 0.0800 Uiso
H10 H 0.3148 0.2332 0.2405 0.0800 Uiso
H20 H 0.0990 0.4509 -0.1761 0.0500 Uiso
H21 H 0.4203 0.5313 -0.1226 0.0500 Uiso
Zn1C Zn 0.049544(16) 0.17800(5) -0.40405(5) 0.0213 Uani
Zn1B Zn -0.049544(16) 0.67800(5) -0.09595(5) 0.0213 Uani
Zn2B Zn 0.548353(17) 0.67831(6) -0.08788(5) 0.0274 Uani
Zn2C Zn 0.451647(17) 0.17831(6) -0.41212(5) 0.0274 Uani
O2C O 0.02171(11) 0.1428(4) 0.1621(3) 0.0271 Uani
O3B O 0.01638(12) 0.4852(4) 0.1718(3) 0.0374 Uani
O6B O 0.47525(12) 0.4990(4) 0.1737(4) 0.0381 Uani
O8C O 0.47657(12) 0.1374(4) 0.1593(3) 0.0348 Uani
C8 C 0.08036(18) 0.7356(6) 0.5313(6) 0.0412 Uani
C9 C 0.12569(18) 0.7445(6) 0.5912(6) 0.0412 Uani
C10 C 0.15859(16) 0.6329(6) 0.5754(5) 0.0356 Uani
C11 C 0.0987(2) 0.5058(6) 0.4385(6) 0.0413 Uani
C12 C 0.14487(19) 0.5141(6) 0.4963(6) 0.0414 Uani
C13 C 0.20727(19) 0.6385(8) 0.6490(6) 0.0510 Uani
C14 C 0.25075(18) 0.6183(7) 0.5602(6) 0.0453 Uani
C15 C 0.29784(18) 0.6339(8) 0.6418(6) 0.0515 Uani
C16 C 0.34330(17) 0.6186(6) 0.5645(5) 0.0389 Uani
C17 C 0.3810(2) 0.7174(8) 0.5845(7) 0.0558 Uani
C18 C 0.3504(2) 0.5027(7) 0.4778(7) 0.0545 Uani
C19 C 0.4226(2) 0.7011(11) 0.5188(7) 0.0707 Uani
C20 C 0.3933(3) 0.4872(9) 0.4130(8) 0.0719 Uani
N1 N 0.06783(14) 0.6173(5) 0.4566(4) 0.0387 Uani
N2 N 0.42837(18) 0.5892(8) 0.4371(6) 0.0676 Uani
H1 H 0.0804 0.4211 0.3844 0.0800 Uiso
H3 H 0.1679 0.4386 0.4824 0.0800 Uiso
H4 H 0.0564 0.8122 0.5199 0.0800 Uiso
H5 H 0.3285 0.4293 0.4804 0.0800 Uiso
H7 H 0.2484 0.5325 0.4910 0.0800 Uiso
H9 H 0.2116 0.7442 0.6938 0.0800 Uiso
H11 H 0.3695 0.8258 0.5835 0.0800 Uiso
H12 H 0.2999 0.7140 0.6984 0.0800 Uiso
H13 H 0.4569 0.7245 0.5205 0.0800 Uiso
H14 H 0.2121 0.5724 0.7229 0.0800 Uiso
H15 H 0.3004 0.5486 0.7210 0.0800 Uiso
H16 H 0.1294 0.8283 0.6492 0.0800 Uiso
H17 H 0.2521 0.7088 0.4943 0.0800 Uiso
H18 H 0.0389 0.6152 0.4148 0.0800 Uiso
H19 H 0.4541 0.5796 0.3694 0.0800 Uiso
loop_
_atom_site_aniso_label
_atom_site_aniso_U_11
_atom_site_aniso_U_22
_atom_site_aniso_U_33
_atom_site_aniso_U_23
_atom_site_aniso_U_13
_atom_site_aniso_U_12
Zn1 0.0170(2) 0.0253(2) 0.0217(2) 0.00098(19) 0.00205(17) 0.00139(18)
Zn2 0.0182(2) 0.0401(3) 0.0239(3) 0.0008(2) 0.00220(19) -0.0011(2)
P1 0.0222(5) 0.0237(5) 0.0192(5) -0.0016(4) 0.0018(4) 0.0033(4)
P2 0.0221(5) 0.0384(6) 0.0217(5) -0.0012(5) 0.0032(4) -0.0045(5)
O1 0.0376(17) 0.0304(17) 0.0194(14) -0.0014(12) -0.0028(12) 0.0063(13)
O2 0.0276 0.0353 0.0183 -0.0037 -0.0011 0.0075
O3 0.0385 0.039 0.0348 -0.0077 0.0019 0.0188
O4 0.0365(19) 0.0385(19) 0.043(2) 0.0007(16) 0.0003(16) -0.0114(15)
O5 0.0304(16) 0.042(2) 0.0242(16) 0.0009(14) 0.0072(13) -0.0007(14)
O6 0.0278 0.049 0.0377 -0.0106 0.0029 -0.012
O7 0.038(2) 0.052(2) 0.045(2) 0.0146(18) 0.0151(17) 0.0102(17)
O8 0.034 0.051 0.0193 -0.0002 0.0004 -0.0111
O9 0.0166(15) 0.052(2) 0.054(2) -0.0006(18) 0.0004(15) 0.0005(14)
O10 0.0289(19) 0.076(3) 0.058(3) 0.023(2) 0.0063(17) -0.0083(19)
O11 0.0285(19) 0.086(3) 0.064(3) 0.021(3) 0.0161(19) 0.003(2)
O12 0.0165(15) 0.066(3) 0.048(2) -0.0008(19) 0.0012(14) 0.0005(15)
C1 0.019(2) 0.044(3) 0.032(2) -0.002(2) 0.0016(17) -0.0031(18)
C2 0.026(2) 0.057(3) 0.049(3) 0.016(3) 0.005(2) -0.002(2)
C3 0.025(2) 0.045(3) 0.039(3) 0.004(2) 0.0063(19) 0.006(2)
C4 0.019(2) 0.062(4) 0.052(3) 0.012(3) -0.001(2) 0.000(2)
C5 0.027(2) 0.047(3) 0.036(3) 0.007(2) 0.005(2) -0.001(2)
C6 0.0162(19) 0.045(3) 0.038(3) -0.005(2) 0.0021(18) -0.0049(18)
C7 0.021(2) 0.046(3) 0.045(3) -0.007(2) 0.007(2) -0.005(2)
C21 0.021(2) 0.050(3) 0.037(3) -0.007(2) 0.0069(18) 0.000(2)
Zn1C 0.017 0.0253 0.0217 -0.00098 0.00205 -0.00139
Zn1B 0.017 0.0253 0.0217 0.00098 0.00205 0.00139
Zn2B 0.0182 0.0401 0.0239 0.0008 0.0022 -0.0011
Zn2C 0.0182 0.0401 0.0239 -0.0008 0.0022 0.0011
O2C 0.0276 0.0353 0.0183 0.0037 -0.0011 -0.0075
O3B 0.0385 0.039 0.0348 -0.0077 0.0019 0.0188
O6B 0.0278 0.049 0.0377 -0.0106 0.0029 -0.012
O8C 0.034 0.051 0.0193 0.0002 0.0004 0.0111
C8 0.030(2) 0.043(3) 0.051(3) 0.008(3) 0.007(2) 0.010(2)
C9 0.030(2) 0.044(3) 0.050(3) -0.003(3) 0.005(2) 0.000(2)
C10 0.021(2) 0.049(3) 0.037(3) -0.001(2) 0.0051(19) 0.001(2)
C11 0.040(3) 0.044(3) 0.040(3) 0.001(2) 0.001(2) -0.005(2)
C12 0.032(3) 0.047(3) 0.045(3) 0.003(2) 0.000(2) 0.007(2)
C13 0.023(2) 0.083(4) 0.047(3) -0.008(3) 0.002(2) 0.004(3)
C14 0.024(2) 0.065(4) 0.047(3) -0.001(3) 0.004(2) 0.001(2)
C15 0.022(2) 0.084(5) 0.049(3) -0.016(3) 0.007(2) 0.001(3)
C16 0.022(2) 0.057(3) 0.038(3) 0.007(2) 0.0040(19) 0.001(2)
C17 0.044(3) 0.066(4) 0.057(4) 0.007(3) -0.004(3) -0.011(3)
C18 0.045(3) 0.057(4) 0.063(4) -0.004(3) 0.021(3) -0.005(3)
C19 0.030(3) 0.127(7) 0.055(4) 0.027(5) 0.000(3) -0.021(4)
C20 0.064(5) 0.086(5) 0.068(5) 0.009(4) 0.034(4) 0.020(4)
N1 0.025(2) 0.056(3) 0.035(2) 0.008(2) -0.0017(17) 0.0014(19)
N2 0.028(2) 0.121(6) 0.055(3) 0.042(4) 0.019(2) 0.018(3)
loop_
_geom_bond_atom_site_label_1
_geom_bond_atom_site_label_2
_geom_bond_site_symmetry_1
_geom_bond_site_symmetry_2
Zn1 O1 1_555 1_555
Zn2 O5 1_555 1_555
P1 O1 1_555 1_555
P2 O5 1_555 1_555
O2 P1 1_555 1_555
O3 P1 1_555 1_555
O4 P1 1_555 1_555
O6 P2 1_555 1_555
O7 P2 1_555 1_555
O8 P2 1_555 1_555
O9 Zn1 1_555 1_555
O10 C21 1_555 1_555
O11 C7 1_555 1_555
O12 Zn2 1_555 1_555
C1 C2 1_555 1_555
C2 C4 1_555 1_555
C3 C1 1_555 1_555
C4 C6 1_555 1_555
C5 C3 1_555 1_555
C6 C5 1_555 1_555
C7 O12 1_555 1_555
C8 C9 1_555 1_555
C9 C10 1_555 1_555
C10 C12 1_555 1_555
C11 C12 1_555 1_555
C12 H3 1_555 1_555
C13 C10 1_555 1_555
C14 C13 1_555 1_555
C15 C14 1_555 1_555
C16 C15 1_555 1_555
C17 C16 1_555 1_555
C18 C16 1_555 1_555
C19 C17 1_555 1_555
C20 C18 1_555 1_555
C21 O9 1_555 1_555
N1 C8 1_555 1_555
N2 C19 1_555 1_555
H1 C11 1_555 1_555
H2 C5 1_555 1_555
H4 C8 1_555 1_555
H5 C18 1_555 1_555
H6 C3 1_555 1_555
H7 C14 1_555 1_555
H8 C2 1_555 1_555
H9 C13 1_555 1_555
H10 C4 1_555 1_555
H11 C17 1_555 1_555
H12 C15 1_555 1_555
H13 C19 1_555 1_555
H14 C13 1_555 1_555
H15 C15 1_555 1_555
H16 C9 1_555 1_555
H17 C14 1_555 1_555
H18 N1 1_555 1_555
H19 N2 1_555 1_555
H20 O4 1_555 1_555
H21 O7 1_555 1_555
Zn1C O2 1_555 1_555
Zn1B O3 1_555 1_555
Zn2B O6 1_555 1_555
Zn2C O8 1_555 1_555
O2C Zn1 1_555 1_555
O3B Zn1 1_555 1_555
O6B Zn2 1_555 1_555
O8C Zn2 1_555 1_555
C1 C21 1_555 1_555
C6 C7 1_555 1_555
C11 N1 1_555 1_555
C20 N2 1_555 1_555

#END
