
#######################################################################
#
#                 Cambridge Crystallographic Data Centre
#                                CCDC 
#
#######################################################################
#
# If this CIF has been generated from an entry in the Cambridge 
# Structural Database, then it will include bibliographic, chemical, 
# crystal, experimental, refinement or atomic coordinate data resulting 
# from the CCDC's data processing and validation procedures.
#
#######################################################################

data_ATEYED
_chemical_formula_moiety         '(C56 H80 Co2 N16 O16 S1 2+)n'
_symmetry_cell_setting           monoclinic
_symmetry_space_group_name_H-M   'C 2/c'
_symmetry_Int_Tables_number      15
_space_group_name_Hall           '-C 2yc'
loop_
_symmetry_equiv_pos_site_id
_symmetry_equiv_pos_as_xyz
1 x,y,z
2 1/2+x,1/2+y,z
3 -x,y,1/2-z
4 1/2-x,1/2+y,1/2-z
5 -x,-y,-z
6 1/2-x,1/2-y,-z
7 x,-y,1/2+z
8 1/2+x,1/2-y,1/2+z
_cell_length_a                   28.132(5)
_cell_length_b                   12.615(2)
_cell_length_c                   24.746(4)
_cell_angle_alpha                90
_cell_angle_beta                 120.026(3)
_cell_angle_gamma                90
_cell_volume                     7603.43
loop_
_atom_site_label
_atom_site_type_symbol
_atom_site_fract_x
_atom_site_fract_y
_atom_site_fract_z
C1 C 0.07261(17) 0.1807(3) 0.3629(2)
H1 H 0.1053 0.1609 0.3649
C2 C 0.06857(18) 0.2478(3) 0.4023(2)
H2 H 0.0973 0.2828 0.4358
C3 C -0.01245(16) 0.1921(3) 0.33407(18)
H3 H -0.0503 0.1825 0.3125
C4 C -0.0104(2) 0.3071(3) 0.4171(2)
H4 H 0.0062 0.2789 0.4592
H5 H -0.0493 0.2903 0.3961
C5 C -0.0441(3) 0.4895(5) 0.3772(2)
H6 H -0.0756 0.4599 0.3442
C6 C -0.00363(19) 0.4250(3) 0.42046(19)
C7 C 0.0426(2) 0.4717(3) 0.4690(2)
H7 H 0.0704 0.4295 0.4988
C8 C 0.0475(2) 0.5803(4) 0.4734(3)
H8 H 0.0788 0.6105 0.5063
C9 C 0.0796(3) 0.8790(4) 0.3621(3)
H9 H 0.1097 0.8979 0.3581
C10 C -0.0017(3) 0.8675(4) 0.3450(3)
H10 H -0.0395 0.8753 0.3276
C11 C 0.0826(4) 0.8184(5) 0.4083(3)
H11 H 0.1137 0.7873 0.4410
C12 C 0.0126(4) 0.7636(4) 0.4383(4)
H12 H -0.0227 0.7930 0.4284
H13 H 0.0387 0.7808 0.4814
C13 C 0.0076(3) 0.6439(4) 0.4308(3)
C14 C -0.0381(3) 0.5993(5) 0.3829(3)
H14 H -0.0657 0.6426 0.3536
N1 N 0.02171(13) 0.1455(2) 0.31926(14)
N2 N 0.01434(14) 0.2546(2) 0.38387(16)
N3 N 0.02742(18) 0.9089(3) 0.32215(19)
N4 N 0.0308(3) 0.8125(3) 0.3971(2)
O1 O 0.08304(13) 0.0260(2) 0.26519(15)
Co1 Co 0.0000 0.02710(5) 0.2500
C1B C -0.07261(17) 0.1807(3) 0.1371(2)
H1B H -0.1053 0.1609 0.1351
C2B C -0.06857(18) 0.2478(3) 0.0977(2)
H2B H -0.0973 0.2828 0.0642
C3B C 0.01245(16) 0.1921(3) 0.16593(18)
H3B H 0.0503 0.1825 0.1875
C4B C 0.0104(2) 0.3071(3) 0.0829(2)
H4B H -0.0062 0.2789 0.0408
H5B H 0.0493 0.2903 0.1039
C5B C 0.0441(3) 0.4895(5) 0.1228(2)
H6B H 0.0756 0.4599 0.1558
C6B C 0.00363(19) 0.4250(3) 0.07954(19)
C7B C -0.0426(2) 0.4717(3) 0.0310(2)
H7B H -0.0704 0.4295 0.0012
C8B C -0.0475(2) 0.5803(4) 0.0266(3)
H8B H -0.0788 0.6105 -0.0063
C9B C -0.0796(3) 0.8790(4) 0.1379(3)
H9B H -0.1097 0.8979 0.1419
C10B C 0.0017(3) 0.8675(4) 0.1550(3)
H10B H 0.0395 0.8753 0.1724
C11B C -0.0826(4) 0.8184(5) 0.0917(3)
H11B H -0.1137 0.7873 0.0590
C12B C -0.0126(4) 0.7636(4) 0.0617(4)
H12B H 0.0227 0.7930 0.0716
H13B H -0.0387 0.7808 0.0186
C13B C -0.0076(3) 0.6439(4) 0.0692(3)
C14B C 0.0381(3) 0.5993(5) 0.1171(3)
H14B H 0.0657 0.6426 0.1464
N1B N -0.02171(13) 0.1455(2) 0.18074(14)
N2B N -0.01434(14) 0.2546(2) 0.11613(16)
N3B N -0.02742(18) 0.9089(3) 0.17785(19)
N4B N -0.0308(3) 0.8125(3) 0.1029(2)
O1B O -0.08304(13) 0.0260(2) 0.23481(15)
Co1_2 Co 0.0000 1.02710(5) 0.2500
N3_2 N 0.02742(18) -0.0911(3) 0.32215(19)
N3B_2 N -0.02742(18) -0.0911(3) 0.17785(19)
C15 C 0.32665(15) 0.3983(3) 0.4785(2)
H15 H 0.3223 0.4503 0.5023
C16 C 0.32122(18) 0.2536(4) 0.4322(2)
H16 H 0.3120 0.1845 0.4176
C17 C 0.3525(2) 0.3192(4) 0.4200(2)
H17 H 0.3686 0.3041 0.3960
C18 C 0.38162(17) 0.5098(3) 0.4455(2)
H18 H 0.3734 0.5662 0.4663
H19 H 0.3656 0.5293 0.4019
C19 C 0.44295(16) 0.5018(3) 0.4739(2)
C20 C 0.47668(17) 0.4681(3) 0.5348(2)
H20 H 0.4611 0.4459 0.5583
C21 C 0.46695(17) 0.5332(3) 0.4390(2)
H21 H 0.4449 0.5551 0.3978
C22 C 0.17325(19) 0.4521(4) 0.4644(2)
H22 H 0.1782 0.4594 0.5043
C23 C 0.17910(17) 0.3940(4) 0.3876(2)
H23 H 0.1885 0.3530 0.3632
C24 C 0.1413(2) 0.5155(4) 0.4153(2)
H24 H 0.1206 0.5731 0.4150
C25 C 0.1180(2) 0.5217(6) 0.3030(2)
H25 H 0.1274 0.4796 0.2768
H26 H 0.1307 0.5935 0.3040
C26 C 0.0280(2) 0.4270(4) 0.2626(2)
H27 H 0.0468 0.3630 0.2711
C27 C 0.0568(2) 0.5220(4) 0.2755(2)
C28 C 0.0282(2) 0.6157(4) 0.2630(2)
H28 H 0.0470 0.6797 0.2720
N5 N 0.30506(13) 0.3036(3) 0.46918(15)
N6 N 0.35578(13) 0.4119(3) 0.44972(17)
N7 N 0.19691(13) 0.3765(3) 0.44689(16)
N8 N 0.14582(16) 0.4778(3) 0.36673(18)
O2 O 0.28681(12) 0.3569(3) 0.57983(14)
Co2 Co 0.2500 0.2500 0.5000
C21D C 0.53305(17) 0.4668(3) 0.5610(2)
C19D C 0.55705(16) 0.4982(3) 0.5261(2)
C18D C 0.61838(17) 0.4902(3) 0.5545(2)
H18D H 0.6266 0.4338 0.5337
H19D H 0.6344 0.4707 0.5981
N6D N 0.64422(13) 0.5881(3) 0.55028(17)
C15D C 0.67335(15) 0.6017(3) 0.5215(2)
H15D H 0.6777 0.5497 0.4977
N5D N 0.69494(13) 0.6964(3) 0.53082(15)
C16D C 0.67878(18) 0.7464(4) 0.5678(2)
H16D H 0.6880 0.8155 0.5824
C17D C 0.6475(2) 0.6808(4) 0.5800(2)
H17D H 0.6314 0.6959 0.6040
C20D C 0.52332(17) 0.5319(3) 0.4652(2)
H20D H 0.5389 0.5541 0.4417
H21D H 0.5551 0.4449 0.6022
C26B C -0.0280(2) 0.4270(4) 0.2374(2)
H27B H -0.0468 0.3630 0.2289
C27B C -0.0568(2) 0.5220(4) 0.2245(2)
C25B C -0.1180(2) 0.5217(6) 0.1970(2)
H25B H -0.1274 0.4796 0.2232
H26B H -0.1307 0.5935 0.1960
N8B N -0.14582(16) 0.4778(3) 0.13327(18)
C23B C -0.17910(17) 0.3940(4) 0.1124(2)
H23B H -0.1885 0.3530 0.1368
N7B N -0.19691(13) 0.3765(3) 0.05311(16)
C22B C -0.17325(19) 0.4521(4) 0.0356(2)
H22B H -0.1782 0.4594 -0.0043
C24B C -0.1413(2) 0.5155(4) 0.0847(2)
H24B H -0.1206 0.5731 0.0850
C28B C -0.0282(2) 0.6157(4) 0.2370(2)
H28B H -0.0470 0.6797 0.2280
O2E O 0.21319(12) 0.1431(3) 0.42017(14)
N5E N 0.19494(13) 0.1964(3) 0.53082(15)
N7E N 0.30309(13) 0.1235(3) 0.55311(16)
Co2A Co 0.7500 0.7500 0.5000
Co2G Co -0.2500 0.2500 0.0000
O3 O 0.1560(3) 0.2746(6) 0.0993(3)
O4 O 0.1827(3) 0.7059(7) 0.2311(5)
O5 O 0.1337(4) 0.8975(7) 0.2176(6)
O6 O 0.2386(4) 0.4827(8) 0.2984(5)
O7 O 0.2419(4) 0.1372(9) 0.1072(8)
O8 O 0.2203(9) 0.9232(13) 0.420(2)
O9 O 0.3094(11) 0.9809(15) 0.3780(11)
O10 O 0.2244(11) 0.820(5) 0.484(2)
O11 O 0.2074(4) 0.0747(6) 0.2600(4)
O12 O 0.2223(2) 0.2578(6) 0.2707(3)
O13 O 0.14028(19) 0.1853(6) 0.1900(2)
O14 O 0.15771(16) 0.1822(4) 0.29326(18)
S1 S 0.18157(6) 0.18044(16) 0.25277(7)
loop_
_geom_bond_atom_site_label_1
_geom_bond_atom_site_label_2
_geom_bond_site_symmetry_1
_geom_bond_site_symmetry_2
C1 H1 1_555 1_555
C2 C1 1_555 1_555
H2 C2 1_555 1_555
C3 H3 1_555 1_555
C4 H4 1_555 1_555
H5 C4 1_555 1_555
C5 H6 1_555 1_555
C6 C4 1_555 1_555
C7 C6 1_555 1_555
H7 C7 1_555 1_555
C8 C7 1_555 1_555
H8 C8 1_555 1_555
C9 H9 1_555 1_555
C10 H10 1_555 1_555
C11 C9 1_555 1_555
H11 C11 1_555 1_555
C12 H12 1_555 1_555
H13 C12 1_555 1_555
C13 C8 1_555 1_555
C14 C5 1_555 1_555
H14 C14 1_555 1_555
N1 C1 1_555 1_555
N2 C2 1_555 1_555
N3 C9 1_555 1_555
N4 C10 1_555 1_555
O1 Co1 1_555 1_555
Co1 N1 1_555 1_555
C15 H15 1_555 1_555
C16 H16 1_555 1_555
C17 C16 1_555 1_555
H17 C17 1_555 1_555
C18 H18 1_555 1_555
H19 C18 1_555 1_555
C19 C18 1_555 1_555
C20 C19 1_555 1_555
H20 C20 1_555 1_555
C21 C19 1_555 1_555
H21 C21 1_555 1_555
C22 H22 1_555 1_555
C23 H23 1_555 1_555
C24 C22 1_555 1_555
H24 C24 1_555 1_555
C25 H25 1_555 1_555
H26 C25 1_555 1_555
C26 H27 1_555 1_555
C27 C25 1_555 1_555
C28 C27 1_555 1_555
H28 C28 1_555 1_555
N5 C15 1_555 1_555
N6 C15 1_555 1_555
N7 C22 1_555 1_555
N8 C23 1_555 1_555
O2 Co2 1_555 1_555
Co2 N5 1_555 1_555
O11 S1 1_555 1_555
O12 S1 1_555 1_555
O13 S1 1_555 1_555
O14 S1 1_555 1_555
C1B H1B 1_555 1_555
C2B C1B 1_555 1_555
H2B C2B 1_555 1_555
C3B H3B 1_555 1_555
C4B H4B 1_555 1_555
H5B C4B 1_555 1_555
C5B H6B 1_555 1_555
C6B C4B 1_555 1_555
C7B C6B 1_555 1_555
H7B C7B 1_555 1_555
C8B C7B 1_555 1_555
H8B C8B 1_555 1_555
C9B H9B 1_555 1_555
C10B H10B 1_555 1_555
C11B C9B 1_555 1_555
H11B C11B 1_555 1_555
C12B H12B 1_555 1_555
H13B C12B 1_555 1_555
C13B C8B 1_555 1_555
C14B C5B 1_555 1_555
H14B C14B 1_555 1_555
N1B Co1 1_555 1_555
N2B C2B 1_555 1_555
N3B C9B 1_555 1_555
N4B C10B 1_555 1_555
O1B Co1 1_555 1_555
Co1_2 N3 1_555 1_555
N3_2 Co1 1_555 1_555
N3B_2 Co1 1_555 1_555
C21D C20 1_555 1_555
C19D C21D 1_555 1_555
C18D C19D 1_555 1_555
H18D C18D 1_555 1_555
H19D C18D 1_555 1_555
N6D C18D 1_555 1_555
C15D N6D 1_555 1_555
H15D C15D 1_555 1_555
N5D C15D 1_555 1_555
C16D N5D 1_555 1_555
H16D C16D 1_555 1_555
C17D N6D 1_555 1_555
H17D C17D 1_555 1_555
C20D C21 1_555 1_555
H20D C20D 1_555 1_555
H21D C21D 1_555 1_555
C26B C26 1_555 1_555
H27B C26B 1_555 1_555
C27B C26B 1_555 1_555
C25B C27B 1_555 1_555
H25B C25B 1_555 1_555
H26B C25B 1_555 1_555
N8B C25B 1_555 1_555
C23B N8B 1_555 1_555
H23B C23B 1_555 1_555
N7B C23B 1_555 1_555
C22B N7B 1_555 1_555
H22B C22B 1_555 1_555
C24B N8B 1_555 1_555
H24B C24B 1_555 1_555
C28B C28 1_555 1_555
H28B C28B 1_555 1_555
O2E Co2 1_555 1_555
N5E Co2 1_555 1_555
N7E Co2 1_555 1_555
Co2A N5D 1_555 1_555
Co2G N7B 1_555 1_555
C3 N1 1_555 1_555
C3 N2 1_555 1_555
C4 N2 1_555 1_555
C5 C6 1_555 1_555
C10 N3 1_555 1_555
C11 N4 1_555 1_555
C12 C13 1_555 1_555
C12 N4 1_555 1_555
C13 C14 1_555 1_555
C16 N5 1_555 1_555
C17 N6 1_555 1_555
C18 N6 1_555 1_555
C23 N7 1_555 1_555
C24 N8 1_555 1_555
C25 N8 1_555 1_555
C26 C27 1_555 1_555
N7 Co2 1_555 1_555
C1B N1B 1_555 1_555
C3B N1B 1_555 1_555
C3B N2B 1_555 1_555
C4B N2B 1_555 1_555
C5B C6B 1_555 1_555
C10B N3B 1_555 1_555
C11B N4B 1_555 1_555
C12B C13B 1_555 1_555
C12B N4B 1_555 1_555
C13B C14B 1_555 1_555
N3B Co1_2 1_555 1_555
C19D C20D 1_555 1_555
C16D C17D 1_555 1_555
C27B C28B 1_555 1_555
C22B C24B 1_555 1_555

#END
