
#######################################################################
#
#                 Cambridge Crystallographic Data Centre
#                                CCDC 
#
#######################################################################
#
# If this CIF has been generated from an entry in the Cambridge 
# Structural Database, then it will include bibliographic, chemical, 
# crystal, experimental, refinement or atomic coordinate data resulting 
# from the CCDC's data processing and validation procedures.
#
#######################################################################

data_AHAMAY
_chemical_formula_moiety         '(C18 H42 N2 O55 P8 Zn10)n'
_symmetry_cell_setting           triclinic
_symmetry_space_group_name_H-M   'P -1'
_symmetry_Int_Tables_number      2
_space_group_name_Hall           '-P 1'
loop_
_symmetry_equiv_pos_site_id
_symmetry_equiv_pos_as_xyz
1 x,y,z
2 -x,-y,-z
_cell_length_a                   10.2492(7)
_cell_length_b                   11.0716(8)
_cell_length_c                   12.8991(9)
_cell_angle_alpha                92.5180(10)
_cell_angle_beta                 95.2550(10)
_cell_angle_gamma                107.3310(10)
_cell_volume                     1387.49
loop_
_atom_site_label
_atom_site_type_symbol
_atom_site_fract_x
_atom_site_fract_y
_atom_site_fract_z
Zn1 Zn -0.38450(4) 0.84909(4) -0.33020(3)
Zn2 Zn -0.02123(4) 0.71857(4) -0.01049(3)
Zn3 Zn -0.61741(4) 0.64828(4) -0.67462(3)
Zn4 Zn -0.07575(4) 0.55982(3) -0.58725(3)
Zn5 Zn 0.08008(4) 0.94119(3) -0.41643(3)
P1 P -0.15643(9) 0.91635(8) -0.12223(7)
P2 P 0.15804(8) 0.56979(8) 0.11577(6)
P3 P -0.22323(8) 0.77120(7) -0.52085(6)
P4 P -0.77685(8) 0.72693(7) -0.48200(6)
O1 O -0.2778(2) 0.8438(2) -0.19744(19)
O2 O -0.1694(3) 1.0471(2) -0.0821(2)
H1 H -0.2488 1.0478 -0.0959
O3 O -0.1302(2) 0.8444(2) -0.02977(18)
O4 O -0.0144(3) 1.0196(2) -0.28114(19)
H2 H 0.0034 1.0960 -0.2665
O5 O 0.0640(3) 0.7717(3) -0.1469(2)
O6 O 0.0349(2) 0.8069(2) -0.31235(18)
O7 O 0.1330(2) 0.6454(2) 0.02454(18)
O8 O 0.2840(2) 0.6443(2) 0.18836(19)
O9 O 0.1672(2) 0.4395(2) 0.07985(19)
O10 O 0.0211(3) 0.4828(2) 0.28328(18)
H3 H 0.0035 0.4060 0.2709
O11 O -0.0295(2) 0.6958(2) 0.30860(18)
O12 O -0.0555(3) 0.7275(2) 0.14248(19)
O13 O -0.1779(2) 0.6542(2) -0.50480(18)
O14 O -0.1019(2) 0.8935(2) -0.51336(17)
O15 O -0.3327(2) 0.7785(2) -0.45265(19)
O16 O -0.4151(2) 0.6387(2) -0.6734(2)
H4 H -0.4112 0.6028 -0.7295
O17 O -0.2822(2) 0.9733(2) -0.67449(19)
O18 O -0.4927(2) 0.8365(2) -0.69473(19)
O19 O -0.8982(2) 0.6058(2) -0.48641(17)
O20 O -0.8209(2) 0.8444(2) -0.49920(17)
O21 O -0.6691(2) 0.7165(2) -0.5504(2)
O22 O -0.5837(2) 0.8599(2) -0.3286(2)
H5 H -0.6140 0.9205 -0.3261
O23 O -0.7231(2) 0.5276(2) -0.31995(19)
O24 O -0.5113(2) 0.6614(2) -0.30144(18)
O25 O -0.3184(3) 1.0368(2) -0.3462(2)
H6 H -0.3579 1.0528 -0.4024
H7 H -0.3378 1.0763 -0.2946
O26 O -0.6780(3) 0.4624(2) -0.6493(2)
H8 H -0.7652 0.4365 -0.6520
H9 H -0.6521 0.4209 -0.6961
C1 C 0.0000(3) 0.9574(3) -0.1881(3)
H10 H 0.0757 1.0135 -0.1402
C2 C 0.0358(3) 0.8371(3) -0.2175(3)
C3 C 0.0052(3) 0.5409(3) 0.1877(2)
H11 H -0.0734 0.4836 0.1432
C4 C -0.0287(3) 0.6630(3) 0.2143(3)
C5 C -0.3050(3) 0.7547(3) -0.6562(3)
H12 H -0.2368 0.7547 -0.7047
C6 C -0.3645(3) 0.8628(3) -0.6766(2)
C7 C -0.6954(3) 0.7448(3) -0.3468(3)
H13 H -0.7640 0.7475 -0.2994
C8 C -0.6395(3) 0.6367(3) -0.3215(2)
Zn1A Zn 0.38450(4) 1.15091(4) -0.66980(3)
Zn1_2 Zn 0.61550(4) 0.84909(4) -0.33020(3)
Zn2A Zn 0.02123(4) 1.28143(4) -0.98951(3)
Zn2A_2 Zn 0.02123(4) 0.28143(4) 0.01049(3)
Zn3_2 Zn 0.38259(4) 0.64828(4) 0.32538(3)
Zn3A Zn -0.38259(4) 0.35172(4) -0.32538(3)
Zn3_3 Zn 0.38259(4) 0.64828(4) -0.67462(3)
Zn3A_2 Zn 0.61741(4) 1.35172(4) -0.32538(3)
Zn4_2 Zn -1.07575(4) 0.55982(3) -0.58725(3)
Zn4_3 Zn -0.07575(4) 0.55982(3) 0.41275(3)
Zn4A Zn -0.92425(4) 0.44018(3) -0.41275(3)
Zn4A_2 Zn 0.07575(4) 0.44018(3) -0.41275(3)
Zn4A_3 Zn 0.07575(4) 1.44018(3) -0.41275(3)
Zn5A Zn -0.08008(4) 1.05881(3) -0.58357(3)
Zn5_2 Zn -0.91992(4) 0.94119(3) -0.41643(3)
P1A P 0.15643(9) 1.08365(8) -0.87777(7)
P2A P -0.15804(8) 0.43021(8) -0.11577(6)
P3A P 0.22323(8) 1.22880(7) -0.47915(6)
P4_2 P 0.22315(8) 0.72693(7) -0.48200(6)
O1A O 0.2778(2) 1.1562(2) -0.80256(19)
O2A O 0.1694(3) 0.9529(2) -0.9179(2)
H1A H 0.2488 0.9522 -0.9041
O3A O 0.1302(2) 1.1556(2) -0.97023(18)
O4A O 0.0144(3) 0.9804(2) -0.71886(19)
H2A H -0.0034 0.9040 -0.7335
O5A O -0.0640(3) 1.2283(3) -0.8531(2)
O6A O -0.0349(2) 1.1931(2) -0.68765(18)
O7A O -0.1330(2) 0.3546(2) -0.02454(18)
O7A_2 O -0.1330(2) 1.3546(2) -1.02454(18)
O8A O -0.2840(2) 0.3557(2) -0.18836(19)
O8_2 O -0.7160(2) 0.6443(2) -0.81164(19)
O9A O -0.1672(2) 0.5605(2) -0.07985(19)
O9_2 O 0.1672(2) 1.4395(2) -0.92015(19)
O10A O -0.0211(3) 0.5172(2) -0.28328(18)
O10_2 O 0.0211(3) 0.4828(2) -0.71672(18)
O10_3 O -0.9789(3) 0.4828(2) -0.71672(18)
H3A H -0.0035 0.5940 -0.2709
H3_2 H 0.0035 0.4060 -0.7291
H3_3 H -0.9965 0.4060 -0.7291
O11A O 0.0295(2) 0.3042(2) -0.30860(18)
O11_2 O -0.0295(2) 0.6958(2) -0.69140(18)
O11_3 O -1.0295(2) 0.6958(2) -0.69140(18)
O12A O 0.0555(3) 0.2725(2) -0.14248(19)
O12A_2 O 0.0555(3) 1.2725(2) -1.14248(19)
O13A O 0.1779(2) 1.3458(2) -0.49520(18)
O13_2 O -1.1779(2) 0.6542(2) -0.50480(18)
O14A O 0.1019(2) 1.1065(2) -0.48664(17)
O15A O 0.3327(2) 1.2215(2) -0.54735(19)
O16A O 0.4151(2) 1.3613(2) -0.3266(2)
O16_2 O 0.5849(2) 0.6387(2) 0.3266(2)
H4A H 0.4112 1.3972 -0.2705
H4_2 H 0.5888 0.6028 0.2705
O17A O 0.2822(2) 1.0267(2) -0.32551(19)
O18A O 0.4927(2) 1.1635(2) -0.30527(19)
O18_2 O 0.5073(2) 0.8365(2) 0.30527(19)
O19_2 O 0.1018(2) 0.6058(2) -0.48641(17)
O19A O -0.1018(2) 0.3942(2) -0.51359(17)
O19A_2 O -1.1018(2) 0.3942(2) -0.51359(17)
O20_2 O 0.1791(2) 0.8444(2) -0.49920(17)
O20A O -0.1791(2) 1.1556(2) -0.50080(17)
O21_2 O 0.3309(2) 0.7165(2) -0.5504(2)
O21_3 O 0.3309(2) 0.7165(2) 0.4496(2)
O22_2 O 0.4163(2) 0.8599(2) -0.3286(2)
O22A O 0.5837(2) 1.1401(2) -0.6714(2)
H5_2 H 0.3860 0.9205 -0.3261
H5A H 0.6140 1.0795 -0.6739
O23_2 O 0.2769(2) 0.5276(2) -0.31995(19)
O23A O -0.2769(2) 0.4724(2) -0.68005(19)
O23A_2 O -1.2769(2) 0.4724(2) -0.68005(19)
O24_2 O 0.4887(2) 0.6614(2) -0.30144(18)
O24A O 0.5113(2) 1.3386(2) -0.69856(18)
O25A O 0.3184(3) 0.9632(2) -0.6538(2)
H6A H 0.3579 0.9472 -0.5976
H7A H 0.3378 0.9237 -0.7054
O26_2 O 0.3220(3) 0.4624(2) 0.3507(2)
H8_2 H 0.2348 0.4365 0.3480
H9_2 H 0.3479 0.4209 0.3039
C1A C 0.0000(3) 1.0426(3) -0.8119(3)
H10A H -0.0757 0.9865 -0.8598
C2A C -0.0358(3) 1.1629(3) -0.7825(3)
C3A C -0.0052(3) 0.4591(3) -0.1877(2)
H11A H 0.0734 0.5164 -0.1432
C4A C 0.0287(3) 0.3370(3) -0.2143(3)
C5A C 0.3050(3) 1.2453(3) -0.3438(3)
H12A H 0.2368 1.2453 -0.2953
C6A C 0.3645(3) 1.1372(3) -0.3234(2)
C7_2 C 0.3046(3) 0.7448(3) -0.3468(3)
H13_2 H 0.2360 0.7475 -0.2994
C8_2 C 0.3605(3) 0.6367(3) -0.3215(2)
O27 O -0.4078(4) 1.0905(4) -0.1100(3)
H14 H -0.4595 1.0883 -0.0618
H15 H -0.3565 1.1661 -0.1129
O28 O -0.3523(4) 0.8022(4) 0.0877(3)
H16 H -0.3690 0.7709 0.1459
H17 H -0.3349 0.8823 0.0952
O29 O -0.6274(4) 0.7754(5) -0.0882(3)
H18 H -0.6692 0.7552 -0.0346
H19 H -0.6210 0.8519 -0.0993
N1 N -0.4142(3) 0.6186(3) -0.0907(3)
H20 H -0.4380 0.6294 -0.1569
H21 H -0.3334 0.6035 -0.0853
H22 H -0.4077 0.6884 -0.0510
C9 C -0.5194(4) 0.5099(4) -0.0557(3)
H23 H -0.5277 0.4340 -0.0995
H24 H -0.6078 0.5258 -0.0621
N1A N -0.5858(3) 0.3814(3) 0.0907(3)
H20A H -0.5620 0.3706 0.1569
H21A H -0.6666 0.3965 0.0853
H22A H -0.5923 0.3116 0.0510
C9A C -0.4806(4) 0.4901(4) 0.0557(3)
H23A H -0.4723 0.5660 0.0995
H24A H -0.3922 0.4742 0.0621
loop_
_geom_bond_atom_site_label_1
_geom_bond_atom_site_label_2
_geom_bond_site_symmetry_1
_geom_bond_site_symmetry_2
Zn1 O1 1_555 1_555
Zn2 O3 1_555 1_555
Zn3 O16 1_555 1_555
Zn4 O13 1_555 1_555
Zn5 O4 1_555 1_555
P1 O1 1_555 1_555
P2 O7 1_555 1_555
P3 O13 1_555 1_555
P4 O19 1_555 1_555
O2 P1 1_555 1_555
H1 O2 1_555 1_555
O3 P1 1_555 1_555
O4 H2 1_555 1_555
O5 Zn2 1_555 1_555
O6 Zn5 1_555 1_555
O7 Zn2 1_555 1_555
O8 P2 1_555 1_555
O9 P2 1_555 1_555
O10 H3 1_555 1_555
O11 C4 1_555 1_555
O12 Zn2 1_555 1_555
O14 Zn5 1_555 1_555
O15 Zn1 1_555 1_555
O16 H4 1_555 1_555
O17 C6 1_555 1_555
O18 Zn3 1_555 1_555
O19 Zn4_2 1_555 1_555
O20 P4 1_555 1_555
O21 Zn3 1_555 1_555
O22 Zn1 1_555 1_555
H5 O22 1_555 1_555
O23 C8 1_555 1_555
O24 Zn1 1_555 1_555
O25 Zn1 1_555 1_555
H6 O25 1_555 1_555
H7 O25 1_555 1_555
O26 Zn3 1_555 1_555
H8 O26 1_555 1_555
H9 O26 1_555 1_555
C1 P1 1_555 1_555
H10 C1 1_555 1_555
C2 O5 1_555 1_555
C3 P2 1_555 1_555
H11 C3 1_555 1_555
C4 O12 1_555 1_555
C5 P3 1_555 1_555
H12 C5 1_555 1_555
C6 O18 1_555 1_555
C7 P4 1_555 1_555
H13 C7 1_555 1_555
C8 O24 1_555 1_555
O27 H14 1_555 1_555
H15 O27 1_555 1_555
O28 H16 1_555 1_555
H17 O28 1_555 1_555
O29 H18 1_555 1_555
H19 O29 1_555 1_555
N1 H20 1_555 1_555
H21 N1 1_555 1_555
H22 N1 1_555 1_555
C9 N1 1_555 1_555
H23 C9 1_555 1_555
H24 C9 1_555 1_555
Zn1A O1A 1_555 1_555
Zn1_2 O22_2 1_555 1_555
Zn2A O3A 1_555 1_555
Zn2A_2 O9 1_555 1_555
Zn3_2 O8 1_555 1_555
Zn3A O8A 1_555 1_555
Zn3_3 O21_2 1_555 1_555
Zn3A_2 O16A 1_555 1_555
Zn4_2 O10_3 1_555 1_555
Zn4_3 O10 1_555 1_555
Zn4A O19 1_555 1_555
Zn4A_2 O10A 1_555 1_555
Zn4A_3 O13A 1_555 1_555
Zn5A O14 1_555 1_555
Zn5_2 O20 1_555 1_555
P1A O1A 1_555 1_555
P2A O7A 1_555 1_555
P3A O13A 1_555 1_555
P4_2 O19_2 1_555 1_555
O2A P1A 1_555 1_555
H1A O2A 1_555 1_555
O3A P1A 1_555 1_555
O4A Zn5A 1_555 1_555
H2A O4A 1_555 1_555
O5A Zn2A 1_555 1_555
O6A Zn5A 1_555 1_555
O7A Zn2A_2 1_555 1_555
O7A_2 Zn2A 1_555 1_555
O8A P2A 1_555 1_555
O8_2 Zn3 1_555 1_555
O9A Zn2 1_555 1_555
O9_2 Zn2A 1_555 1_555
O10A H3A 1_555 1_555
O10_2 Zn4 1_555 1_555
O10_3 H3_3 1_555 1_555
H3_2 O10_2 1_555 1_555
O11A Zn4A_2 1_555 1_555
O11_2 Zn4 1_555 1_555
O11_3 Zn4_2 1_555 1_555
O12A Zn2A_2 1_555 1_555
O12A_2 Zn2A 1_555 1_555
O13_2 Zn4_2 1_555 1_555
O14A Zn5 1_555 1_555
O15A Zn1A 1_555 1_555
O16A H4A 1_555 1_555
O16_2 Zn3_2 1_555 1_555
H4_2 O16_2 1_555 1_555
O17A Zn5 1_555 1_555
O18A Zn3A_2 1_555 1_555
O18_2 Zn3_2 1_555 1_555
O19_2 Zn4 1_555 1_555
O19A Zn4 1_555 1_555
O19A_2 Zn4_2 1_555 1_555
O20_2 Zn5 1_555 1_555
O20A Zn5A 1_555 1_555
O21_2 P4_2 1_555 1_555
O21_3 Zn3_2 1_555 1_555
O22_2 H5_2 1_555 1_555
O22A Zn1A 1_555 1_555
H5A O22A 1_555 1_555
O23_2 Zn4A_2 1_555 1_555
O23A Zn4 1_555 1_555
O23A_2 Zn4_2 1_555 1_555
O24_2 Zn1_2 1_555 1_555
O24A Zn1A 1_555 1_555
O25A Zn1A 1_555 1_555
H6A O25A 1_555 1_555
H7A O25A 1_555 1_555
O26_2 Zn3_2 1_555 1_555
H8_2 O26_2 1_555 1_555
H9_2 O26_2 1_555 1_555
C1A P1A 1_555 1_555
H10A C1A 1_555 1_555
C2A O5A 1_555 1_555
C3A P2A 1_555 1_555
H11A C3A 1_555 1_555
C4A O11A 1_555 1_555
C5A P3A 1_555 1_555
H12A C5A 1_555 1_555
C6A O17A 1_555 1_555
C7_2 P4_2 1_555 1_555
H13_2 C7_2 1_555 1_555
C8_2 O23_2 1_555 1_555
N1A H20A 1_555 1_555
H21A N1A 1_555 1_555
H22A N1A 1_555 1_555
C9A C9 1_555 1_555
H23A C9A 1_555 1_555
H24A C9A 1_555 1_555
P3 O14 1_555 1_555
P3 O15 1_555 1_555
P4 O21 1_555 1_555
O4 C1 1_555 1_555
O6 C2 1_555 1_555
O10 C3 1_555 1_555
O11 Zn4_3 1_555 1_555
O16 C5 1_555 1_555
O17 Zn5A 1_555 1_555
O22 C7 1_555 1_555
O23 Zn4A 1_555 1_555
C1 C2 1_555 1_555
C3 C4 1_555 1_555
C5 C6 1_555 1_555
C7 C8 1_555 1_555
Zn4A O19A_2 1_555 1_555
Zn4A_2 O19_2 1_555 1_555
Zn4A_2 O19A 1_555 1_555
Zn5A O14A 1_555 1_555
P2A O9A 1_555 1_555
P3A O14A 1_555 1_555
P3A O15A 1_555 1_555
P4_2 O20_2 1_555 1_555
O4A C1A 1_555 1_555
O6A C2A 1_555 1_555
O10A C3A 1_555 1_555
O12A C4A 1_555 1_555
O16A C5A 1_555 1_555
O18A C6A 1_555 1_555
O22_2 C7_2 1_555 1_555
O24_2 C8_2 1_555 1_555
C1A C2A 1_555 1_555
C3A C4A 1_555 1_555
C5A C6A 1_555 1_555
C7_2 C8_2 1_555 1_555
N1A C9A 1_555 1_555

#END
