
#######################################################################
#
#                 Cambridge Crystallographic Data Centre
#                                CCDC 
#
#######################################################################
#
# If this CIF has been generated from an entry in the Cambridge 
# Structural Database, then it will include bibliographic, chemical, 
# crystal, experimental, refinement or atomic coordinate data resulting 
# from the CCDC's data processing and validation procedures.
#
#######################################################################

data_POZKUL
_chemical_formula_moiety         '(C6 H6 Au2 N4 Sn1)n'
_symmetry_cell_setting           monoclinic
_symmetry_space_group_name_H-M   'C 2/c'
_symmetry_Int_Tables_number      15
_space_group_name_Hall           '-C 2yc'
loop_
_symmetry_equiv_pos_site_id
_symmetry_equiv_pos_as_xyz
1 x,y,z
2 -x,y,1/2-z
3 1/2+x,1/2+y,z
4 1/2-x,1/2+y,1/2-z
5 -x,-y,-z
6 x,-y,1/2+z
7 1/2-x,1/2-y,-z
8 1/2+x,1/2-y,1/2+z
_cell_length_a                   18.206(14)
_cell_length_b                   11.118(8)
_cell_length_c                   6.579(4)
_cell_angle_alpha                90
_cell_angle_beta                 111.09(3)
_cell_angle_gamma                90
_cell_volume                     1242.48
loop_
_atom_site_label
_atom_site_type_symbol
_atom_site_fract_x
_atom_site_fract_y
_atom_site_fract_z
_atom_site_U_iso_or_equiv
_atom_site_thermal_displace_type
Au1 Au 0.0000 0.0000 0.5000 0.0309 Uani
C1 C 0.1042(4) 0.0732(7) 0.5440(12) 0.0347 Uani
N1 N 0.1627(4) 0.1179(7) 0.5675(11) 0.0429 Uani
Au2 Au 0.0000 0.27294(5) -0.2500 0.0432 Uani
C2 C 0.0981(5) 0.2779(9) 0.0092(13) 0.0476 Uani
N2 N 0.1557(5) 0.2779(8) 0.1580(11) 0.0544 Uani
Sn1 Sn 0.2500 0.2500 0.5000 0.0263 Uani
C3 C 0.1996(6) 0.3914(9) 0.6165(15) 0.0522 Uani
H1 H 0.1547 0.4221 0.4999 0.0780 Uiso
H2 H 0.2377 0.4544 0.6715 0.0780 Uiso
H3 H 0.1834 0.3624 0.7312 0.0780 Uiso
C1D C -0.1042(4) -0.0732(7) 0.4560(12) 0.0347 Uani
N1D N -0.1627(4) -0.1179(7) 0.4325(11) 0.0429 Uani
N1F N 0.3373(4) 0.3821(7) 0.4325(11) 0.0429 Uani
Au2F Au 0.5000 0.22706(5) 1.2500 0.0432 Uani
C2F C 0.4019(5) 0.2221(9) 0.9908(13) 0.0476 Uani
C2A C -0.0981(5) 0.2779(9) -0.5092(13) 0.0476 Uani
N2F N 0.3443(5) 0.2221(8) 0.8420(11) 0.0544 Uani
Sn1B Sn -0.2500 -0.2500 0.5000 0.0263 Uani
C3F C 0.3004(6) 0.1086(9) 0.3835(15) 0.0522 Uani
H1F H 0.3453 0.0779 0.5001 0.0780 Uiso
H2F H 0.2623 0.0456 0.3285 0.0780 Uiso
H3F H 0.3166 0.1376 0.2688 0.0780 Uiso
loop_
_atom_site_aniso_label
_atom_site_aniso_U_11
_atom_site_aniso_U_22
_atom_site_aniso_U_33
_atom_site_aniso_U_23
_atom_site_aniso_U_13
_atom_site_aniso_U_12
Au1 0.0233(2) 0.0323(3) 0.0376(3) 0.00154(14) 0.01148(17) -0.00858(15)
C1 0.027(4) 0.039(4) 0.039(4) 0.004(3) 0.013(3) -0.008(3)
N1 0.034(4) 0.038(4) 0.058(4) 0.001(3) 0.018(3) -0.013(3)
Au2 0.0312(3) 0.0578(4) 0.0292(3) 0.000 -0.00294(19) 0.000
C2 0.036(5) 0.060(6) 0.036(4) 0.011(4) 0.000(4) -0.010(4)
N2 0.043(4) 0.068(6) 0.037(4) 0.004(3) -0.004(3) -0.010(4)
Sn1 0.0174(3) 0.0309(4) 0.0262(4) 0.0007(2) 0.0025(3) -0.0075(2)
C3 0.055(5) 0.048(6) 0.064(5) -0.006(4) 0.034(5) 0.000(5)
C1D 0.027 0.039 0.039 0.004 0.013 -0.008
N1D 0.034 0.038 0.058 0.001 0.018 -0.013
N1F 0.034 0.038 0.058 0.001 0.018 -0.013
Au2F 0.0312 0.0578 0.0292 0 -0.00294 0
C2F 0.036 0.06 0.036 0.011 0 -0.01
C2A 0.036 0.06 0.036 -0.011 0 0.01
N2F 0.043 0.068 0.037 0.004 -0.004 -0.01
Sn1B 0.0174 0.0309 0.0262 0.0007 0.0025 -0.0075
C3F 0.055 0.048 0.064 -0.006 0.034 0
loop_
_geom_bond_atom_site_label_1
_geom_bond_atom_site_label_2
_geom_bond_site_symmetry_1
_geom_bond_site_symmetry_2
Au1 C1 1_555 1_555
C1 N1 1_555 1_555
N1 Sn1 1_555 1_555
Au2 C2 1_555 1_555
C2 N2 1_555 1_555
N2 Sn1 1_555 1_555
Sn1 C3 1_555 1_555
C3 H1 1_555 1_555
H2 C3 1_555 1_555
H3 C3 1_555 1_555
C1D Au1 1_555 1_555
N1D C1D 1_555 1_555
N1F Sn1 1_555 1_555
Au2F C2F 1_555 1_555
C2F N2F 1_555 1_555
C2A Au2 1_555 1_555
N2F Sn1 1_555 1_555
Sn1B N1D 1_555 1_555
C3F Sn1 1_555 1_555
H1F C3F 1_555 1_555
H2F C3F 1_555 1_555
H3F C3F 1_555 1_555

#END
