
#######################################################################
#
#                 Cambridge Crystallographic Data Centre
#                                CCDC 
#
#######################################################################
#
# If this CIF has been generated from an entry in the Cambridge 
# Structural Database, then it will include bibliographic, chemical, 
# crystal, experimental, refinement or atomic coordinate data resulting 
# from the CCDC's data processing and validation procedures.
#
#######################################################################

data_KEBFII
_chemical_formula_moiety         '(C16 H30 Ag1 N4 O17 Tb1)n'
_symmetry_cell_setting           monoclinic
_symmetry_space_group_name_H-M   'P 21/c'
_symmetry_Int_Tables_number      14
_space_group_name_Hall           '-P 2ybc'
loop_
_symmetry_equiv_pos_site_id
_symmetry_equiv_pos_as_xyz
1 x,y,z
2 -x,1/2+y,1/2-z
3 -x,-y,-z
4 x,1/2-y,1/2+z
_cell_length_a                   7.7630(3)
_cell_length_b                   19.3892(9)
_cell_length_c                   17.8634(9)
_cell_angle_alpha                90
_cell_angle_beta                 100.466(2)
_cell_angle_gamma                90
_cell_volume                     2644.04
loop_
_atom_site_label
_atom_site_type_symbol
_atom_site_fract_x
_atom_site_fract_y
_atom_site_fract_z
Tb1 Tb 0.254518(12) 0.469259(5) 0.014713(7)
Ag1 Ag 0.30211(4) 1.005916(15) 0.024920(17)
O1 O 0.4896(2) 0.56910(8) 0.01801(10)
O2 O 0.2353(2) 0.59100(9) 0.04646(11)
O3 O 0.2352(2) 0.51879(10) -0.11276(11)
O4 O -0.0096(2) 0.52840(9) -0.07091(10)
O5 O 0.0979(3) 0.38439(11) -0.07125(17)
O6 O 0.4252(3) 0.48140(17) 0.14115(15)
O7 O 0.2858(4) 0.35917(13) 0.07601(18)
N1 N 0.3938(3) 0.91897(12) 0.09352(16)
N2 N -0.1726(4) 0.58281(14) -0.44998(15)
C1 C 0.4955(4) 0.92566(16) 0.16224(19)
H1 H 0.5358 0.9693 0.1786
C2 C 0.5419(4) 0.87050(16) 0.20903(18)
H2 H 0.6125 0.8766 0.2565
C3 C 0.4832(4) 0.80559(15) 0.18532(18)
H3 H 0.5146 0.7676 0.2166
C4 C 0.3776(3) 0.79727(14) 0.11480(17)
C5 C 0.3367(4) 0.85509(15) 0.07091(18)
H4 H 0.2663 0.8501 0.0232
C6 C 0.3066(4) 0.72795(14) 0.0869(2)
H5 H 0.2153 0.7341 0.0425
H6 H 0.2546 0.7059 0.1262
C7 C 0.4489(3) 0.68145(13) 0.06628(16)
H7 H 0.4968 0.7029 0.0255
H8 H 0.5428 0.6776 0.1100
C8 C 0.3866(3) 0.61092(12) 0.04186(14)
C9 C -0.2006(4) 0.65064(17) -0.46139(19)
H9 H -0.2703 0.6652 -0.5065
C10 C -0.1303(4) 0.69904(16) -0.40907(19)
H10 H -0.1505 0.7457 -0.4190
C11 C -0.0292(4) 0.67799(16) -0.34133(18)
H11 H 0.0172 0.7103 -0.3047
C12 C 0.0028(3) 0.60825(16) -0.32818(16)
C13 C -0.0725(4) 0.56320(16) -0.38446(18)
H12 H -0.0524 0.5163 -0.3763
C14 C 0.1075(4) 0.58085(18) -0.25483(16)
H13 H 0.2007 0.6130 -0.2354
H14 H 0.1607 0.5372 -0.2644
C15 C -0.0085(3) 0.57069(16) -0.19605(15)
H15 H -0.0539 0.6153 -0.1844
H16 H -0.1076 0.5423 -0.2183
C16 C 0.0791(3) 0.53805(13) -0.12329(15)
H17 H -0.000(5) 0.382(2) -0.068(2)
H18 H 0.097(5) 0.383(2) -0.114(2)
H19 H 0.521(6) 0.476(2) 0.143(2)
H20 H 0.406(6) 0.506(2) 0.156(2)
H21 H 0.228(6) 0.337(2) 0.082(2)
H22 H 0.380(6) 0.338(2) 0.092(2)
Tb1B Tb 0.745482(12) 0.530741(5) -0.014713(7)
Tb1B_2 Tb -0.254518(12) 0.530741(5) -0.014713(7)
Ag1A Ag -0.30211(4) 0.505916(15) -0.524920(17)
O1B O 0.5104(2) 0.43090(8) -0.01801(10)
O4B O 0.0096(2) 0.47160(9) 0.07091(10)
N2A N 0.1726(4) 1.08281(14) -0.05002(15)
O8 O 0.6522(6) 0.3138(2) 0.1235(2)
O9 O 0.4929(6) 0.2279(3) 0.1186(3)
O10 O 0.7551(7) 0.2211(3) 0.1698(6)
N3 N 0.6356(5) 0.2539(2) 0.1346(3)
O11 O 0.0991(12) 0.3897(3) -0.3339(4)
O12 O -0.0220(10) 0.4062(4) -0.2406(5)
O13 O 0.1981(12) 0.3513(5) -0.2260(5)
N4 N 0.0948(10) 0.3811(3) -0.2662(5)
O14 O 0.0621(7) 0.2591(2) 0.1052(4)
O15 O 0.3416(12) 0.9181(3) -0.1037(4)
O16 O 0.4068(11) 0.5908(3) 0.2308(3)
O17 O 0.5916(15) 0.8957(5) -0.1374(5)
loop_
_geom_bond_atom_site_label_1
_geom_bond_atom_site_label_2
_geom_bond_site_symmetry_1
_geom_bond_site_symmetry_2
Tb1 O1 1_555 1_555
Ag1 N1 1_555 1_555
O1 C8 1_555 1_555
O2 Tb1 1_555 1_555
O3 Tb1 1_555 1_555
O4 Tb1 1_555 1_555
O5 Tb1 1_555 1_555
O6 Tb1 1_555 1_555
O7 Tb1 1_555 1_555
O8 N3 1_555 1_555
O9 N3 1_555 1_555
O10 N3 1_555 1_555
O11 N4 1_555 1_555
O12 N4 1_555 1_555
O13 N4 1_555 1_555
N1 C1 1_555 1_555
N2 C9 1_555 1_555
C1 H1 1_555 1_555
C2 C1 1_555 1_555
H2 C2 1_555 1_555
C3 C2 1_555 1_555
H3 C3 1_555 1_555
C4 C3 1_555 1_555
C5 N1 1_555 1_555
H4 C5 1_555 1_555
C6 C4 1_555 1_555
H5 C6 1_555 1_555
H6 C6 1_555 1_555
C7 C6 1_555 1_555
H7 C7 1_555 1_555
H8 C7 1_555 1_555
C8 O2 1_555 1_555
C9 H9 1_555 1_555
C10 C9 1_555 1_555
H10 C10 1_555 1_555
C11 C10 1_555 1_555
H11 C11 1_555 1_555
C12 C11 1_555 1_555
C13 N2 1_555 1_555
H12 C13 1_555 1_555
C14 C12 1_555 1_555
H13 C14 1_555 1_555
H14 C14 1_555 1_555
C15 C14 1_555 1_555
H15 C15 1_555 1_555
H16 C15 1_555 1_555
C16 O3 1_555 1_555
H17 O5 1_555 1_555
H18 O5 1_555 1_555
H19 O6 1_555 1_555
H20 O6 1_555 1_555
H21 O7 1_555 1_555
H22 O7 1_555 1_555
Tb1B O1 1_555 1_555
Tb1B_2 O4 1_555 1_555
Ag1A N2 1_555 1_555
O1B Tb1 1_555 1_555
O4B Tb1 1_555 1_555
N2A Ag1 1_555 1_555
O4 C16 1_555 1_555
C4 C5 1_555 1_555
C7 C8 1_555 1_555
C12 C13 1_555 1_555
C15 C16 1_555 1_555
Tb1B O1B 1_555 1_555
Tb1B_2 O4B 1_555 1_555

#END
