
#######################################################################
#
#                 Cambridge Crystallographic Data Centre
#                                CCDC 
#
#######################################################################
#
# If this CIF has been generated from an entry in the Cambridge 
# Structural Database, then it will include bibliographic, chemical, 
# crystal, experimental, refinement or atomic coordinate data resulting 
# from the CCDC's data processing and validation procedures.
#
#######################################################################

data_ACOGAB
_chemical_formula_moiety         '(C34 H42 Br2 Cd1 N12 O5 S1)n'
_symmetry_cell_setting           monoclinic
_symmetry_space_group_name_H-M   'C 2/c'
_symmetry_Int_Tables_number      15
_space_group_name_Hall           '-C 2yc'
loop_
_symmetry_equiv_pos_site_id
_symmetry_equiv_pos_as_xyz
1 x,y,z
2 1/2+x,1/2+y,z
3 -x,y,1/2-z
4 1/2-x,1/2+y,1/2-z
5 -x,-y,-z
6 1/2-x,1/2-y,-z
7 x,-y,1/2+z
8 1/2+x,1/2-y,1/2+z
_cell_length_a                   32.643(2)
_cell_length_b                   9.9817(6)
_cell_length_c                   16.6382(11)
_cell_angle_alpha                90
_cell_angle_beta                 101.032(2)
_cell_angle_gamma                90
_cell_volume                     5321.09
loop_
_atom_site_label
_atom_site_type_symbol
_atom_site_fract_x
_atom_site_fract_y
_atom_site_fract_z
_atom_site_U_iso_or_equiv
_atom_site_thermal_displace_type
Br1 Br -0.04822(2) 0.23206(7) 0.02841(4) 0.0522 Uani
C1 C 0.0361(2) 0.1096(13) 0.1831(5) 0.1035 Uani
H1 H 0.0131 0.1649 0.1670 0.1240 Uiso
C2 C 0.0725(3) -0.0665(9) 0.1640(6) 0.1011 Uani
H2 H 0.0760 -0.1432 0.1343 0.1210 Uiso
C3 C 0.1015(4) -0.0437(9) 0.2345(6) 0.1060 Uani
H3 H 0.1243 -0.1007 0.2494 0.1280 Uiso
C4 C 0.0626(2) 0.1396(12) 0.2550(5) 0.1020 Uani
H4 H 0.0571 0.2132 0.2856 0.1220 Uiso
C5 C 0.09633(18) 0.0637(7) 0.2818(4) 0.0445 Uani
C6 C 0.15977(17) 0.0386(6) 0.3888(3) 0.0378 Uani
C7 C 0.17299(16) 0.2297(6) 0.4871(3) 0.0383 Uani
H5 H 0.1863 0.2387 0.5442 0.0460 Uiso
H6 H 0.1432 0.2415 0.4836 0.0460 Uiso
C8 C 0.18916(17) 0.3412(6) 0.4374(3) 0.0386 Uani
H7 H 0.2119 0.3064 0.4137 0.0460 Uiso
H8 H 0.1670 0.3680 0.3928 0.0460 Uiso
C9 C 0.25623(16) 0.0580(6) 0.4573(3) 0.0377 Uani
H9 H 0.2541 0.1488 0.4361 0.0450 Uiso
H10 H 0.2549 -0.0026 0.4113 0.0450 Uiso
C10 C 0.21936(17) 0.0302(6) 0.4992(4) 0.0398 Uani
H11 H 0.2148 -0.0658 0.5001 0.0480 Uiso
H12 H 0.2264 0.0607 0.5555 0.0480 Uiso
C11 C 0.18150(16) 0.5726(6) 0.4933(3) 0.0370 Uani
C12 C 0.12175(18) 0.7985(6) 0.4872(4) 0.0498 Uani
H13 H 0.1492 0.8216 0.5096 0.0600 Uiso
C13 C 0.11246(17) 0.6757(6) 0.4507(3) 0.0409 Uani
C14 C 0.0705(2) 0.6475(8) 0.4176(5) 0.0671 Uani
H14 H 0.0628 0.5669 0.3909 0.0810 Uiso
C15 C 0.0413(2) 0.7423(8) 0.4257(5) 0.0681 Uani
H15 H 0.0135 0.7217 0.4052 0.0820 Uiso
C16 C 0.08921(19) 0.8871(6) 0.4898(5) 0.0573 Uani
H16 H 0.0959 0.9704 0.5138 0.0690 Uiso
Cd1 Cd 0.0000 0.0000 0.0000 0.0406 Uani
N1 N 0.04069(17) 0.0096(6) 0.1352(3) 0.0536 Uani
N2 N 0.18065(13) 0.0950(4) 0.4594(3) 0.0345 Uani
N3 N 0.12296(14) 0.1001(5) 0.3542(3) 0.0443 Uani
H17 H 0.1156 0.1680 0.3799 0.0530 Uiso
N4 N 0.04963(15) 0.8613(6) 0.4607(3) 0.0523 Uani
N5 N 0.20363(14) 0.4583(5) 0.4872(3) 0.0371 Uani
N6 N 0.14219(14) 0.5779(5) 0.4447(3) 0.0456 Uani
H18 H 0.1356 0.5166 0.4082 0.0550 Uiso
O1 O 0.17265(13) -0.0600(5) 0.3585(3) 0.0518 Uani
O2 O 0.19526(13) 0.6626(4) 0.5400(3) 0.0541 Uani
C1E C 0.4639(2) 0.3904(13) 0.8169(5) 0.1035 Uani
H1E H 0.4869 0.3351 0.8330 0.1240 Uiso
C2E C 0.4275(3) 0.5665(9) 0.8360(6) 0.1011 Uani
H2E H 0.4240 0.6432 0.8657 0.1210 Uiso
C3E C 0.3985(4) 0.5437(9) 0.7655(6) 0.1060 Uani
H3E H 0.3757 0.6007 0.7506 0.1280 Uiso
C4E C 0.4374(2) 0.3604(12) 0.7450(5) 0.1020 Uani
H4E H 0.4429 0.2868 0.7144 0.1220 Uiso
C5E C 0.40367(18) 0.4363(7) 0.7182(4) 0.0445 Uani
C6E C 0.34023(17) 0.4614(6) 0.6112(3) 0.0378 Uani
C7E C 0.32701(16) 0.2703(6) 0.5129(3) 0.0383 Uani
H5E H 0.3137 0.2613 0.4558 0.0460 Uiso
H6E H 0.3568 0.2585 0.5164 0.0460 Uiso
C8E C 0.31084(17) 0.1588(6) 0.5626(3) 0.0386 Uani
H7E H 0.2881 0.1936 0.5863 0.0460 Uiso
H8E H 0.3330 0.1320 0.6072 0.0460 Uiso
C9E C 0.24377(16) 0.4420(6) 0.5427(3) 0.0377 Uani
H9E H 0.2459 0.3512 0.5639 0.0450 Uiso
H10E H 0.2451 0.5026 0.5887 0.0450 Uiso
C10E C 0.28064(17) 0.4698(6) 0.5008(4) 0.0398 Uani
H11E H 0.2852 0.5658 0.4999 0.0480 Uiso
H12E H 0.2736 0.4393 0.4445 0.0480 Uiso
C11E C 0.31850(16) -0.0726(6) 0.5067(3) 0.0370 Uani
C12E C 0.37825(18) -0.2985(6) 0.5128(4) 0.0498 Uani
H13E H 0.3508 -0.3216 0.4904 0.0600 Uiso
C13E C 0.38754(17) -0.1757(6) 0.5493(3) 0.0409 Uani
C14E C 0.4295(2) -0.1475(8) 0.5824(5) 0.0671 Uani
H14E H 0.4372 -0.0669 0.6091 0.0810 Uiso
C15E C 0.4587(2) -0.2423(8) 0.5743(5) 0.0681 Uani
H15E H 0.4865 -0.2217 0.5948 0.0820 Uiso
C16E C 0.41079(19) -0.3871(6) 0.5102(5) 0.0573 Uani
H16E H 0.4041 -0.4704 0.4862 0.0690 Uiso
N1E N 0.45931(17) 0.4904(6) 0.8648(3) 0.0536 Uani
N2E N 0.31935(13) 0.4050(4) 0.5406(3) 0.0345 Uani
N3E N 0.37704(14) 0.3999(5) 0.6458(3) 0.0443 Uani
H17E H 0.3844 0.3320 0.6201 0.0530 Uiso
N4E N 0.45037(15) -0.3613(6) 0.5393(3) 0.0523 Uani
N5E N 0.29637(14) 0.0417(5) 0.5128(3) 0.0371 Uani
N6E N 0.35781(14) -0.0779(5) 0.5553(3) 0.0456 Uani
H18E H 0.3644 -0.0166 0.5918 0.0550 Uiso
O1E O 0.32735(13) 0.5600(5) 0.6415(3) 0.0518 Uani
O2E O 0.30474(13) -0.1626(4) 0.4600(3) 0.0541 Uani
Br1D Br 0.04822(2) -0.23206(7) -0.02841(4) 0.0522 Uani
Cd1A Cd 0.5000 0.5000 1.0000 0.0406 Uani
Cd1B Cd 0.0000 1.0000 0.5000 0.0406 Uani
Cd1C Cd 0.5000 -0.5000 0.5000 0.0406 Uani
N1D N -0.04069(17) -0.0096(6) -0.1352(3) 0.0536 Uani
N4B N -0.04963(15) -0.1387(6) 0.0393(3) 0.0523 Uani
N4F N 0.04963(15) 0.1387(6) -0.0393(3) 0.0523 Uani
C17 C 0.2264(3) 0.6895(9) 0.3259(5) 0.0757 Uani
H19 H 0.1977 0.7161 0.3192 0.1130 Uiso
H20 H 0.2393 0.6943 0.3827 0.1130 Uiso
H21 H 0.2280 0.5992 0.3067 0.1130 Uiso
C18 C 0.2981(3) 0.6997(12) 0.2755(6) 0.0962 Uani
H22 H 0.2906 0.6102 0.2572 0.1440 Uiso
H23 H 0.3128 0.6973 0.3313 0.1440 Uiso
H24 H 0.3156 0.7386 0.2416 0.1440 Uiso
O3 O 0.2308(2) 0.7909(8) 0.1829(3) 0.1023 Uani
S1 S 0.25253(8) 0.7970(2) 0.26915(11) 0.0689 Uani
loop_
_atom_site_aniso_label
_atom_site_aniso_U_11
_atom_site_aniso_U_22
_atom_site_aniso_U_33
_atom_site_aniso_U_23
_atom_site_aniso_U_13
_atom_site_aniso_U_12
Br1 0.0467(4) 0.0550(4) 0.0523(4) 0.0043(3) 0.0030(3) -0.0077(3)
C1 0.050(4) 0.179(11) 0.068(5) -0.049(6) -0.023(4) 0.044(6)
C2 0.126(8) 0.067(5) 0.079(6) -0.026(5) -0.059(6) 0.027(5)
C3 0.129(8) 0.066(5) 0.088(6) -0.030(5) -0.067(6) 0.041(6)
C4 0.055(5) 0.176(11) 0.059(5) -0.048(6) -0.029(4) 0.060(6)
C5 0.033(3) 0.059(4) 0.037(3) -0.006(3) -0.005(2) -0.006(3)
C6 0.033(3) 0.039(3) 0.038(3) -0.003(2) -0.002(2) -0.002(2)
C7 0.026(2) 0.050(3) 0.036(3) -0.014(2) -0.001(2) 0.006(2)
C8 0.034(3) 0.041(3) 0.037(3) -0.004(2) -0.003(2) 0.015(2)
C9 0.031 0.038 0.039 -0.006 -0.006 0.013
C10 0.033(3) 0.040(3) 0.040(3) 0.003(2) -0.009(2) 0.003(2)
C11 0.029(2) 0.041(3) 0.038(3) -0.002(2) -0.001(2) 0.009(2)
C12 0.031(3) 0.036(3) 0.082(5) 0.000(3) 0.010(3) 0.003(2)
C13 0.031(3) 0.046(3) 0.044(3) 0.002(3) 0.003(2) 0.018(2)
C14 0.038(3) 0.073(5) 0.081(5) -0.037(4) -0.012(3) 0.017(3)
C15 0.037(3) 0.083(5) 0.075(5) -0.043(4) -0.013(3) 0.022(3)
C16 0.038(3) 0.036(3) 0.096(5) -0.005(3) 0.008(3) 0.008(3)
Cd1 0.0301(3) 0.0538(4) 0.0330(3) 0.0080(2) -0.0064(2) -0.0221(3)
N1 0.043(3) 0.068(4) 0.043(3) -0.004(3) -0.009(2) -0.010(3)
N2 0.026(2) 0.036(2) 0.036(2) -0.0034(19) -0.0076(17) 0.0019(18)
N3 0.030(2) 0.056(3) 0.040(3) -0.018(2) -0.0103(19) 0.007(2)
N4 0.034(3) 0.055(3) 0.065(3) -0.006(3) 0.002(2) 0.017(2)
N5 0.029(2) 0.034(2) 0.043(3) -0.0068(19) -0.0062(19) 0.0124(18)
N6 0.033(2) 0.049(3) 0.049(3) -0.017(2) -0.007(2) 0.020(2)
O1 0.045(2) 0.050(3) 0.054(3) -0.019(2) -0.007(2) 0.007(2)
O2 0.045(2) 0.041(2) 0.067(3) -0.020(2) -0.013(2) 0.0140(19)
C1E 0.05 0.179 0.068 -0.049 -0.023 0.044
C2E 0.126 0.067 0.079 -0.026 -0.059 0.027
C3E 0.129 0.066 0.088 -0.03 -0.067 0.041
C4E 0.055 0.176 0.059 -0.048 -0.029 0.06
C5E 0.033 0.059 0.037 -0.006 -0.005 -0.006
C6E 0.033 0.039 0.038 -0.003 -0.002 -0.002
C7E 0.026 0.05 0.036 -0.014 -0.001 0.006
C8E 0.034 0.041 0.037 -0.004 -0.003 0.015
C9E 0.031(3) 0.038(3) 0.039(3) -0.006(2) -0.006(2) 0.013(2)
C10E 0.033 0.04 0.04 0.003 -0.009 0.003
C11E 0.029 0.041 0.038 -0.002 -0.001 0.009
C12E 0.031 0.036 0.082 0 0.01 0.003
C13E 0.031 0.046 0.044 0.002 0.003 0.018
C14E 0.038 0.073 0.081 -0.037 -0.012 0.017
C15E 0.037 0.083 0.075 -0.043 -0.013 0.022
C16E 0.038 0.036 0.096 -0.005 0.008 0.008
N1E 0.043 0.068 0.043 -0.004 -0.009 -0.01
N2E 0.026 0.036 0.036 -0.0034 -0.0076 0.0019
N3E 0.03 0.056 0.04 -0.018 -0.0103 0.007
N4E 0.034 0.055 0.065 -0.006 0.002 0.017
N5E 0.029 0.034 0.043 -0.0068 -0.0062 0.0124
N6E 0.033 0.049 0.049 -0.017 -0.007 0.02
O1E 0.045 0.05 0.054 -0.019 -0.007 0.007
O2E 0.045 0.041 0.067 -0.02 -0.013 0.014
Br1D 0.0467 0.055 0.0523 0.0043 0.003 -0.0077
Cd1A 0.0301 0.0538 0.033 0.008 -0.0064 -0.0221
Cd1B 0.0301 0.0538 0.033 -0.008 -0.0064 0.0221
Cd1C 0.0301 0.0538 0.033 -0.008 -0.0064 0.0221
N1D 0.043 0.068 0.043 -0.004 -0.009 -0.01
N4B 0.034 0.055 0.065 0.006 0.002 -0.017
N4F 0.034 0.055 0.065 0.006 0.002 -0.017
C17 0.089(6) 0.065(5) 0.072(5) 0.003(4) 0.013(5) 0.007(4)
C18 0.096(7) 0.128(9) 0.064(5) -0.016(6) 0.014(5) 0.021(6)
O3 0.119(6) 0.141(6) 0.039(3) 0.008(3) -0.005(3) 0.032(5)
S1 0.0979(15) 0.0662(12) 0.0406(9) 0.0006(8) 0.0083(9) 0.0097(11)
loop_
_geom_bond_atom_site_label_1
_geom_bond_atom_site_label_2
_geom_bond_site_symmetry_1
_geom_bond_site_symmetry_2
Br1 Cd1 1_555 1_555
C1 H1 1_555 1_555
C2 H2 1_555 1_555
C3 C2 1_555 1_555
H3 C3 1_555 1_555
C4 C1 1_555 1_555
H4 C4 1_555 1_555
C5 C3 1_555 1_555
C6 N2 1_555 1_555
C7 H5 1_555 1_555
H6 C7 1_555 1_555
C8 C7 1_555 1_555
H7 C8 1_555 1_555
H8 C8 1_555 1_555
C9 H9 1_555 1_555
H10 C9 1_555 1_555
C10 C9 1_555 1_555
H11 C10 1_555 1_555
H12 C10 1_555 1_555
C11 N5 1_555 1_555
C12 H13 1_555 1_555
C13 C12 1_555 1_555
C14 C13 1_555 1_555
H14 C14 1_555 1_555
C15 C14 1_555 1_555
H15 C15 1_555 1_555
C16 C12 1_555 1_555
H16 C16 1_555 1_555
Cd1 N1 1_555 1_555
N1 C1 1_555 1_555
N2 C7 1_555 1_555
N3 C5 1_555 1_555
H17 N3 1_555 1_555
N4 C15 1_555 1_555
N5 C8 1_555 1_555
N6 C11 1_555 1_555
H18 N6 1_555 1_555
O1 C6 1_555 1_555
O2 C11 1_555 1_555
C17 H19 1_555 1_555
H20 C17 1_555 1_555
H21 C17 1_555 1_555
C18 H22 1_555 1_555
H23 C18 1_555 1_555
H24 C18 1_555 1_555
O3 S1 1_555 1_555
S1 C17 1_555 1_555
C1E H1E 1_555 1_555
C2E H2E 1_555 1_555
C3E C2E 1_555 1_555
H3E C3E 1_555 1_555
C4E C1E 1_555 1_555
H4E C4E 1_555 1_555
C5E C3E 1_555 1_555
C6E N2E 1_555 1_555
C7E H5E 1_555 1_555
H6E C7E 1_555 1_555
C8E C7E 1_555 1_555
H7E C8E 1_555 1_555
H8E C8E 1_555 1_555
C9E N5 1_555 1_555
H9E C9E 1_555 1_555
H10E C9E 1_555 1_555
C10E C9E 1_555 1_555
H11E C10E 1_555 1_555
H12E C10E 1_555 1_555
C11E N5E 1_555 1_555
C12E H13E 1_555 1_555
C13E C12E 1_555 1_555
C14E C13E 1_555 1_555
H14E C14E 1_555 1_555
C15E C14E 1_555 1_555
H15E C15E 1_555 1_555
C16E C12E 1_555 1_555
H16E C16E 1_555 1_555
N1E C1E 1_555 1_555
N2E C7E 1_555 1_555
N3E C5E 1_555 1_555
H17E N3E 1_555 1_555
N4E C15E 1_555 1_555
N5E C9 1_555 1_555
N6E C11E 1_555 1_555
H18E N6E 1_555 1_555
O1E C6E 1_555 1_555
O2E C11E 1_555 1_555
Br1D Cd1 1_555 1_555
Cd1A N1E 1_555 1_555
Cd1B N4 1_555 1_555
Cd1C N4E 1_555 1_555
N1D Cd1 1_555 1_555
N4B Cd1 1_555 1_555
N4F Cd1 1_555 1_555
C2 N1 1_555 1_555
C4 C5 1_555 1_555
C6 N3 1_555 1_555
C10 N2 1_555 1_555
C13 N6 1_555 1_555
C16 N4 1_555 1_555
C18 S1 1_555 1_555
C2E N1E 1_555 1_555
C4E C5E 1_555 1_555
C6E N3E 1_555 1_555
C8E N5E 1_555 1_555
C10E N2E 1_555 1_555
C13E N6E 1_555 1_555
C16E N4E 1_555 1_555

#END
