
#######################################################################
#
#                 Cambridge Crystallographic Data Centre
#                                CCDC 
#
#######################################################################
#
# If this CIF has been generated from an entry in the Cambridge 
# Structural Database, then it will include bibliographic, chemical, 
# crystal, experimental, refinement or atomic coordinate data resulting 
# from the CCDC's data processing and validation procedures.
#
#######################################################################

data_OXAMEG
_chemical_formula_moiety         'C58 H57 Dy3 N5 O31'
_symmetry_cell_setting           orthorhombic
_symmetry_space_group_name_H-M   'P b c m'
_symmetry_Int_Tables_number      57
_space_group_name_Hall           '-P 2c 2b'
loop_
_symmetry_equiv_pos_site_id
_symmetry_equiv_pos_as_xyz
1 x,y,z
2 -x,-y,1/2+z
3 x,1/2-y,-z
4 -x,1/2+y,1/2-z
5 -x,-y,-z
6 x,y,1/2-z
7 -x,1/2+y,z
8 x,1/2-y,1/2+z
_cell_length_a                   10.7029(19)
_cell_length_b                   28.176(5)
_cell_length_c                   34.014(6)
_cell_angle_alpha                90
_cell_angle_beta                 90
_cell_angle_gamma                90
_cell_volume                     10257.4
loop_
_atom_site_label
_atom_site_type_symbol
_atom_site_fract_x
_atom_site_fract_y
_atom_site_fract_z
O4 O -0.600(4) 0.5698(14) 0.7500
O8 O 0.213(3) 0.4557(13) 0.7043(11)
O23 O -0.680(3) 0.0075(10) 0.3918(8)
N5 N -0.756(3) -0.0125(12) 0.3361(8)
C42 C -0.643(3) -0.0118(15) 0.3588(10)
C43 C -0.522(3) -0.0406(14) 0.3583(12)
H40 H -0.4676 -0.0300 0.3798
H41 H -0.4790 -0.0358 0.3332
H42 H -0.5412 -0.0743 0.3617
C44 C -0.875(2) 0.0041(12) 0.3491(9)
H43 H -0.8660 0.0202 0.3745
H44 H -0.9323 -0.0230 0.3521
H45 H -0.9095 0.0263 0.3297
C45 C -0.741(4) -0.0395(13) 0.2989(10)
H46 H -0.8202 -0.0395 0.2845
H47 H -0.7164 -0.0722 0.3048
H48 H -0.6762 -0.0244 0.2827
O24 O -0.1789(8) 0.0090(3) 0.4921(3)
N6 N -0.0779(13) 0.0800(5) 0.4983(4)
C46 C -0.0977(16) 0.0391(6) 0.4774(5)
C47 C -0.018(4) 0.0359(14) 0.4396(10)
H49 H -0.0359 0.0059 0.4262
H50 H 0.0707 0.0372 0.4465
H51 H -0.0386 0.0625 0.4222
C48 C -0.146(4) 0.0814(11) 0.5364(9)
H52 H -0.1897 0.0512 0.5404
H53 H -0.2076 0.1073 0.5359
H54 H -0.0871 0.0867 0.5579
C49 C -0.005(2) 0.1186(7) 0.4822(8)
H55 H 0.0293 0.1091 0.4567
H56 H 0.0632 0.1265 0.5002
H57 H -0.0589 0.1465 0.4787
O26 O -0.5940(9) 0.0021(3) 0.4706(3)
Dy1 Dy 0.03356(5) 0.190942(19) 0.7500
Dy2 Dy -0.14629(5) 0.325613(18) 0.7500
Dy3 Dy 0.1789(2) 0.01253(7) 0.7500
N1 N -0.0834(14) -0.0040(6) 0.7500
O1 O -0.0460(13) 0.0359(5) 0.7500
O2 O -0.0137(13) -0.0364(4) 0.7500
O3 O -0.1942(13) -0.0111(8) 0.7500
O9 O 0.3237(6) 0.3577(2) 0.55644(16)
O10 O 0.1278(6) 0.2406(2) 0.70413(18)
O11 O 0.0160(6) 0.3066(2) 0.70909(18)
O12 O 0.2676(6) 0.3609(2) 0.46040(16)
O13 O 0.0169(7) 0.1303(2) 0.70644(17)
O14 O 0.0772(10) 0.0556(3) 0.7025(2)
O15 O 0.5787(6) 0.3520(2) 0.44060(16)
O16 O -0.1256(7) 0.2124(3) 0.7100(2)
O17 O -0.2433(6) 0.2772(2) 0.70341(18)
O18 O 0.6437(6) 0.3669(2) 0.53748(17)
O19 O 0.2024(8) -0.0393(3) 0.7996(2)
O20 O -0.1289(7) 0.3882(2) 0.70735(18)
C1 C 0.4543(8) 0.3598(3) 0.4992(2)
C2 C 0.3953(8) 0.3285(3) 0.5307(2)
H1 H 0.3407 0.3045 0.5182
H2 H 0.4612 0.3118 0.5457
C3 C 0.3582(9) 0.3913(3) 0.4780(2)
H3 H 0.3174 0.4130 0.4970
H4 H 0.4000 0.4107 0.4576
C4 C 0.5147(8) 0.3250(3) 0.4699(2)
H5 H 0.5743 0.3039 0.4837
H6 H 0.4496 0.3050 0.4574
C5 C 0.5471(8) 0.3944(3) 0.5177(2)
H7 H 0.5850 0.4146 0.4971
H8 H 0.5038 0.4151 0.5368
C6 C 0.2724(8) 0.3368(3) 0.5892(2)
C7 C 0.2902(9) 0.2898(3) 0.5997(2)
H9 H 0.3393 0.2695 0.5836
C8 C 0.2358(9) 0.2724(3) 0.6340(2)
H10 H 0.2516 0.2407 0.6420
C9 C 0.1583(8) 0.3013(3) 0.6566(2)
C10 C 0.1422(9) 0.3485(3) 0.6460(3)
H11 H 0.0917 0.3688 0.6617
C11 C 0.1995(9) 0.3661(3) 0.6126(3)
H12 H 0.1888 0.3985 0.6056
C12 C 0.0959(9) 0.2811(3) 0.6932(3)
C13 C 0.2148(9) 0.3752(3) 0.4255(2)
C14 C 0.1542(9) 0.3394(3) 0.4046(2)
H13 H 0.1479 0.3084 0.4155
C15 C 0.1039(10) 0.3490(3) 0.3685(2)
H14 H 0.0619 0.3247 0.3544
C16 C 0.1138(10) 0.3940(3) 0.3524(3)
C17 C 0.1659(11) 0.4300(3) 0.3743(3)
H15 H 0.1674 0.4614 0.3641
C18 C 0.2162(10) 0.4208(3) 0.4111(3)
H16 H 0.2513 0.4458 0.4263
C19 C 0.0676(12) 0.0969(3) 0.6885(3)
C20 C 0.6258(8) 0.3279(3) 0.4087(2)
C21 C 0.6020(8) 0.2804(3) 0.4006(2)
H17 H 0.5517 0.2620 0.4179
C22 C 0.6529(8) 0.2603(3) 0.3670(2)
H18 H 0.6340 0.2283 0.3606
C23 C 0.7307(8) 0.2863(3) 0.3428(2)
C24 C 0.7536(9) 0.3333(3) 0.3514(2)
H19 H 0.8064 0.3514 0.3347
C25 C 0.7014(9) 0.3542(3) 0.3836(3)
H20 H 0.7167 0.3868 0.3889
C26 C -0.2089(9) 0.2362(3) 0.6931(3)
C27 C 0.6851(9) 0.3828(3) 0.5727(2)
C28 C 0.7570(9) 0.3507(3) 0.5938(2)
H21 H 0.7768 0.3205 0.5829
C29 C 0.7995(9) 0.3630(3) 0.6310(3)
H22 H 0.8471 0.3408 0.6457
C30 C 0.7738(9) 0.4071(3) 0.6470(3)
C31 C 0.7053(10) 0.4396(3) 0.6253(3)
H23 H 0.6886 0.4701 0.6360
C32 C 0.6602(10) 0.4281(3) 0.5878(3)
H24 H 0.6137 0.4506 0.5729
C33 C -0.1831(10) 0.4198(3) 0.6878(3)
O21 O 0.2349(9) 0.1614(4) 0.7500
N3 N 0.4416(12) 0.1710(6) 0.7500
C34 C 0.3379(16) 0.1716(10) 0.7681(5)
C35 C 0.3457(15) 0.1660(12) 0.8139(3)
C36 C 0.5725(13) 0.1734(9) 0.7500
C37 C 0.406(2) 0.1674(11) 0.7948(6)
O22 O -0.3536(9) 0.3529(4) 0.7500
N4 N -0.5779(12) 0.3699(7) 0.7500
C38 C -0.4700(15) 0.3396(6) 0.7500
C39 C -0.507(2) 0.2876(5) 0.7500
H34 H -0.4309 0.2679 0.7500
H35 H -0.5561 0.2806 0.7735
C40 C -0.563(2) 0.4227(6) 0.7500
H36 H -0.4742 0.4308 0.7500
H37 H -0.6030 0.4360 0.7265
C41 C -0.7053(15) 0.3498(9) 0.7500
H38 H -0.7003 0.3151 0.7500
H39 H -0.7500 0.3605 0.7735
O10E O 0.1278(6) 0.2406(2) 0.79587(18)
O11E O 0.0160(6) 0.3066(2) 0.79091(18)
O13E O 0.0169(7) 0.1303(2) 0.79356(17)
O14E O 0.0772(10) 0.0556(3) 0.7975(2)
O16E O -0.1256(7) 0.2124(3) 0.7900(2)
O17E O -0.2433(6) 0.2772(2) 0.79659(18)
O19E O 0.2024(8) -0.0393(3) 0.7004(2)
O19C O -0.2024(8) 0.4607(3) 0.7004(2)
O20E O -0.1289(7) 0.3882(2) 0.79265(18)
C16B C 0.1138(10) 0.1060(3) 0.6476(3)
C19B C 0.0676(12) 0.4031(3) 0.3115(3)
C23B C -0.2693(8) 0.2137(3) 0.6572(2)
C26B C 0.7911(9) 0.2638(3) 0.3069(3)
C30_2 C -0.2262(9) 0.4071(3) 0.6470(3)
C33C C 0.1831(10) -0.0802(3) 0.8122(3)
C33_2 C 0.8169(10) 0.4198(3) 0.6878(3)
C34E C 0.3379(16) 0.1716(10) 0.7319(5)
C37E C 0.406(2) 0.1674(11) 0.7052(6)
H35E H -0.5561 0.2806 0.7265
H37E H -0.6030 0.4360 0.7735
H39E H -0.7500 0.3605 0.7265
loop_
_geom_bond_atom_site_label_1
_geom_bond_atom_site_label_2
_geom_bond_site_symmetry_1
_geom_bond_site_symmetry_2
Dy1 O10 1_555 1_555
Dy2 O11 1_555 1_555
Dy3 O1 1_555 1_555
N1 O1 1_555 1_555
O2 Dy3 1_555 1_555
O3 N1 1_555 1_555
O9 C2 1_555 1_555
O10 C12 1_555 1_555
O11 C12 1_555 1_555
O12 C3 1_555 1_555
O13 Dy1 1_555 1_555
O14 Dy3 1_555 1_555
O15 C4 1_555 1_555
O16 Dy1 1_555 1_555
O17 Dy2 1_555 1_555
O18 C5 1_555 1_555
O19 Dy3 1_555 1_555
O20 Dy2 1_555 1_555
C1 C2 1_555 1_555
C2 H1 1_555 1_555
H2 C2 1_555 1_555
C3 C1 1_555 1_555
H3 C3 1_555 1_555
H4 C3 1_555 1_555
C4 C1 1_555 1_555
H5 C4 1_555 1_555
H6 C4 1_555 1_555
C5 C1 1_555 1_555
H7 C5 1_555 1_555
H8 C5 1_555 1_555
C6 O9 1_555 1_555
C7 C6 1_555 1_555
H9 C7 1_555 1_555
C8 C7 1_555 1_555
H10 C8 1_555 1_555
C9 C8 1_555 1_555
C10 C9 1_555 1_555
H11 C10 1_555 1_555
C11 C6 1_555 1_555
H12 C11 1_555 1_555
C12 C9 1_555 1_555
C13 O12 1_555 1_555
C14 C13 1_555 1_555
H13 C14 1_555 1_555
C15 C14 1_555 1_555
H14 C15 1_555 1_555
C16 C15 1_555 1_555
C17 C16 1_555 1_555
H15 C17 1_555 1_555
C18 C13 1_555 1_555
H16 C18 1_555 1_555
C19 O13 1_555 1_555
C20 O15 1_555 1_555
C21 C20 1_555 1_555
H17 C21 1_555 1_555
C22 C21 1_555 1_555
H18 C22 1_555 1_555
C23 C22 1_555 1_555
C24 C23 1_555 1_555
H19 C24 1_555 1_555
C25 C20 1_555 1_555
H20 C25 1_555 1_555
C26 O16 1_555 1_555
C27 O18 1_555 1_555
C28 C27 1_555 1_555
H21 C28 1_555 1_555
C29 C28 1_555 1_555
H22 C29 1_555 1_555
C30 C29 1_555 1_555
C31 C30 1_555 1_555
H23 C31 1_555 1_555
C32 C27 1_555 1_555
H24 C32 1_555 1_555
C33 O20 1_555 1_555
O21 Dy1 1_555 1_555
N3 C34 1_555 1_555
C34 O21 1_555 1_555
C35 C34 1_555 1_555
C36 N3 1_555 1_555
C37 N3 1_555 1_555
O22 Dy2 1_555 1_555
N4 C38 1_555 1_555
C38 O22 1_555 1_555
C39 C38 1_555 1_555
H34 C39 1_555 1_555
H35 C39 1_555 1_555
C40 N4 1_555 1_555
H36 C40 1_555 1_555
H37 C40 1_555 1_555
C41 N4 1_555 1_555
H38 C41 1_555 1_555
H39 C41 1_555 1_555
O23 C42 1_555 1_555
N5 C42 1_555 1_555
C42 C43 1_555 1_555
C43 H40 1_555 1_555
H41 C43 1_555 1_555
H42 C43 1_555 1_555
C44 N5 1_555 1_555
H43 C44 1_555 1_555
H44 C44 1_555 1_555
H45 C44 1_555 1_555
C45 N5 1_555 1_555
H46 C45 1_555 1_555
H47 C45 1_555 1_555
H48 C45 1_555 1_555
O24 C46 1_555 1_555
N6 C46 1_555 1_555
C46 C47 1_555 1_555
C47 H49 1_555 1_555
H50 C47 1_555 1_555
H51 C47 1_555 1_555
C48 N6 1_555 1_555
H52 C48 1_555 1_555
H53 C48 1_555 1_555
H54 C48 1_555 1_555
C49 N6 1_555 1_555
H55 C49 1_555 1_555
H56 C49 1_555 1_555
H57 C49 1_555 1_555
O10E Dy1 1_555 1_555
O11E Dy2 1_555 1_555
O13E Dy1 1_555 1_555
O14E Dy3 1_555 1_555
O16E Dy1 1_555 1_555
O17E Dy2 1_555 1_555
O19E Dy3 1_555 1_555
O19C C33 1_555 1_555
O20E Dy2 1_555 1_555
C16B C19 1_555 1_555
C19B C16 1_555 1_555
C23B C26 1_555 1_555
C26B C23 1_555 1_555
C30_2 C33 1_555 1_555
C33C O19 1_555 1_555
C33_2 C30 1_555 1_555
C34E O21 1_555 1_555
C37E N3 1_555 1_555
H35E C39 1_555 1_555
H37E C40 1_555 1_555
H39E C41 1_555 1_555
N1 O2 1_555 1_555
O14 C19 1_555 1_555
O17 C26 1_555 1_555
C10 C11 1_555 1_555
C17 C18 1_555 1_555
C24 C25 1_555 1_555
C31 C32 1_555 1_555
N3 C34E 1_555 1_555
C34 C37 1_555 1_555
C34 C34E 1_555 1_555
C35 C37 1_555 1_555
C34E C37E 1_555 1_555

#END
