
#######################################################################
#
#                 Cambridge Crystallographic Data Centre
#                                CCDC 
#
#######################################################################
#
# If this CIF has been generated from an entry in the Cambridge 
# Structural Database, then it will include bibliographic, chemical, 
# crystal, experimental, refinement or atomic coordinate data resulting 
# from the CCDC's data processing and validation procedures.
#
#######################################################################

data_HAWWOU
_chemical_formula_moiety         '(C26 H30 Cu1 I3 N7 O5)n'
_symmetry_cell_setting           orthorhombic
_symmetry_space_group_name_H-M   'C m c a'
_symmetry_Int_Tables_number      64
_space_group_name_Hall           '-C 2ac 2'
loop_
_symmetry_equiv_pos_site_id
_symmetry_equiv_pos_as_xyz
1 x,y,z
2 -x,1/2-y,1/2+z
3 x,-y,-z
4 -x,1/2+y,1/2-z
5 1/2+x,1/2+y,z
6 1/2-x,-y,1/2+z
7 1/2+x,1/2-y,-z
8 1/2-x,y,1/2-z
9 -x,-y,-z
10 x,1/2+y,1/2-z
11 -x,y,z
12 x,1/2-y,1/2+z
13 1/2-x,1/2-y,-z
14 1/2+x,y,1/2-z
15 1/2-x,1/2+y,z
16 1/2+x,-y,1/2+z
_cell_length_a                   13.6907(6)
_cell_length_b                   22.2234(8)
_cell_length_c                   22.1776(8)
_cell_angle_alpha                90
_cell_angle_beta                 90
_cell_angle_gamma                90
_cell_volume                     6747.62
loop_
_atom_site_label
_atom_site_type_symbol
_atom_site_fract_x
_atom_site_fract_y
_atom_site_fract_z
_atom_site_U_iso_or_equiv
_atom_site_thermal_displace_type
Cu1 Cu 0.2500 0.49254(4) 0.2500 0.0287 Uani
N1 N 0.2500 0.4025(3) 0.2500 0.0330 Uani
N2 N 0.2418(4) 0.49353(18) 0.3413(2) 0.0297 Uani
O1 O 0.4220(4) 0.4964(2) 0.2535(2) 0.0593 Uani
C1 C 0.2500 0.2752(4) 0.2500 0.0353 Uani
C2 C 0.3170(5) 0.3090(3) 0.2164(4) 0.0450 Uani
H1 H 0.3633 0.2894 0.1928 0.0540 Uiso
C3 C 0.3146(5) 0.3710(3) 0.2180(3) 0.0400 Uani
H2 H 0.3607 0.3920 0.1956 0.0480 Uiso
C4 C 0.2500 0.2089(4) 0.2500 0.0357 Uani
C5 C 0.2375(5) 0.4984(2) 0.4657(3) 0.0377 Uani
C6 C 0.1656(5) 0.5250(3) 0.4327(3) 0.0450 Uani
H3 H 0.1142 0.5448 0.4516 0.0540 Uiso
C7 C 0.3115(5) 0.4687(3) 0.4361(3) 0.0447 Uani
H4 H 0.3618 0.4507 0.4577 0.0540 Uiso
C8 C 0.3151(5) 0.1763(3) 0.2163(4) 0.0513 Uani
H5 H 0.3611 0.1962 0.1927 0.0620 Uiso
C9 C 0.3103(5) 0.4661(3) 0.3732(3) 0.0413 Uani
H6 H 0.3587 0.4445 0.3533 0.0500 Uiso
C10 C 0.1707(5) 0.5219(3) 0.3703(3) 0.0433 Uani
H7 H 0.1220 0.5406 0.3478 0.0520 Uiso
N3 N 0.2500 0.0834(3) 0.2500 0.0265 Uiso
C11 C 0.3130(5) 0.1147(3) 0.2168(3) 0.0497 Uani
H8 H 0.3575 0.0938 0.1930 0.0590 Uiso
N4 N 0.5000 0.4740(5) 0.2648(4) 0.0327 Uani
O2 O 0.5000 0.4238(4) 0.2902(4) 0.0600 Uani
C2G C 0.1830(5) 0.3090(3) 0.2836(4) 0.0450 Uani
H1G H 0.1367 0.2894 0.3072 0.0540 Uiso
C3G C 0.1854(5) 0.3710(3) 0.2820(3) 0.0400 Uani
H2G H 0.1393 0.3920 0.3044 0.0480 Uiso
C8G C 0.1849(5) 0.1763(3) 0.2837(4) 0.0513 Uani
H5G H 0.1389 0.1962 0.3073 0.0620 Uiso
C11G C 0.1870(5) 0.1147(3) 0.2832(3) 0.0497 Uani
H8G H 0.1425 0.0938 0.3070 0.0590 Uiso
N2B N 0.2418(4) 0.50647(18) 0.6587(2) 0.0297 Uani
C5B C 0.2375(5) 0.5016(2) 0.5343(3) 0.0377 Uani
C6B C 0.1656(5) 0.4750(3) 0.5673(3) 0.0450 Uani
H3B H 0.1142 0.4552 0.5484 0.0540 Uiso
C7B C 0.3115(5) 0.5313(3) 0.5639(3) 0.0447 Uani
H4B H 0.3618 0.5493 0.5423 0.0540 Uiso
C9B C 0.3103(5) 0.5339(3) 0.6268(3) 0.0413 Uani
H6B H 0.3587 0.5555 0.6467 0.0500 Uiso
C10B C 0.1707(5) 0.4781(3) 0.6297(3) 0.0433 Uani
H7B H 0.1220 0.4594 0.6522 0.0520 Uiso
O1J O 0.5780(4) 0.4964(2) 0.2535(2) 0.0593 Uani
Cu1B Cu 0.2500 0.50746(4) 0.7500 0.0287 Uani
Cu1I Cu 0.2500 -0.00746(4) 0.2500 0.0287 Uani
Cu1J Cu 0.7500 0.49254(4) 0.2500 0.0287 Uani
N2G N 0.2582(4) 0.49353(18) 0.1587(2) 0.0297 Uani
O1G O 0.0780(4) 0.4964(2) 0.2465(2) 0.0593 Uani
N3I N 0.2500 0.5834(3) 0.2500 0.0265 Uiso
O3 O 0.708(3) 0.7060(18) 0.0536(16) 0.2090 Uiso
N5 N 0.591(2) 0.7389(12) 0.1164(14) 0.2090 Uiso
C12 C 0.666(2) 0.7459(14) 0.0804(15) 0.2090 Uiso
H9 H 0.6890 0.7848 0.0748 0.2510 Uiso
C13 C 0.553(3) 0.6805(14) 0.128(2) 0.2090 Uiso
H10 H 0.4983 0.6837 0.1556 0.3140 Uiso
H11 H 0.5317 0.6623 0.0914 0.3140 Uiso
H12 H 0.6027 0.6560 0.1466 0.3140 Uiso
C14 C 0.544(3) 0.7894(16) 0.146(2) 0.2090 Uiso
H13 H 0.4911 0.7751 0.1705 0.3140 Uiso
H14 H 0.5910 0.8095 0.1715 0.3140 Uiso
H15 H 0.5200 0.8170 0.1165 0.3140 Uiso
O3J O 0.292(3) 0.7060(18) 0.0536(16) 0.2090 Uiso
N5J N 0.409(2) 0.7389(12) 0.1164(14) 0.2090 Uiso
C12J C 0.334(2) 0.7459(14) 0.0804(15) 0.2090 Uiso
H9J H 0.3110 0.7848 0.0748 0.2510 Uiso
C13J C 0.447(3) 0.6805(14) 0.128(2) 0.2090 Uiso
H10J H 0.5017 0.6837 0.1556 0.3140 Uiso
H11J H 0.4683 0.6623 0.0914 0.3140 Uiso
H12J H 0.3973 0.6560 0.1466 0.3140 Uiso
C14J C 0.456(3) 0.7894(16) 0.146(2) 0.2090 Uiso
H13J H 0.5089 0.7751 0.1705 0.3140 Uiso
H14J H 0.4090 0.8095 0.1715 0.3140 Uiso
H15J H 0.4800 0.8170 0.1165 0.3140 Uiso
I1 I 0.5000 0.24444(3) 0.07524(4) 0.0606 Uani
I2 I 0.5000 0.37599(4) 0.07578(4) 0.0831 Uani
I3 I 0.5000 0.11238(4) 0.07403(4) 0.0820 Uani
loop_
_atom_site_aniso_label
_atom_site_aniso_U_11
_atom_site_aniso_U_22
_atom_site_aniso_U_33
_atom_site_aniso_U_23
_atom_site_aniso_U_13
_atom_site_aniso_U_12
Cu1 0.0505(7) 0.0182(5) 0.0173(6) 0.000 -0.0011(6) 0.000
N1 0.052(5) 0.018(3) 0.029(4) 0.000 0.003(4) 0.000
N2 0.052(3) 0.022(2) 0.015(3) 0.0031(19) 0.001(3) 0.002(2)
O1 0.034(3) 0.080(4) 0.064(4) 0.018(3) -0.003(3) 0.003(3)
C1 0.054(6) 0.018(4) 0.034(6) 0.000 0.008(5) 0.000
C2 0.055(4) 0.025(3) 0.055(5) -0.001(3) 0.016(4) -0.003(3)
C3 0.050(4) 0.028(3) 0.042(4) 0.003(3) 0.017(4) -0.009(3)
C4 0.048(6) 0.027(4) 0.032(5) 0.000 0.009(5) 0.000
C5 0.060(4) 0.036(3) 0.017(4) -0.005(3) 0.002(3) -0.002(3)
C6 0.059(5) 0.056(4) 0.020(4) 0.000(3) 0.003(4) 0.017(4)
C7 0.057(4) 0.050(4) 0.027(4) -0.002(3) -0.009(4) 0.009(4)
C8 0.066(5) 0.026(3) 0.062(6) -0.001(3) 0.029(4) 0.001(3)
C9 0.055(4) 0.040(3) 0.029(4) 0.004(3) 0.002(4) 0.008(3)
C10 0.052(4) 0.043(4) 0.035(4) -0.003(3) 0.004(4) 0.017(3)
C11 0.065(5) 0.032(3) 0.052(5) 0.001(3) 0.036(4) 0.007(3)
N4 0.028(6) 0.050(6) 0.020(6) -0.007(4) 0.000 0.000
O2 0.068(6) 0.045(5) 0.067(7) 0.025(5) 0.000 0.000
C2G 0.055 0.025 0.055 0.001 0.016 0.003
C3G 0.05 0.028 0.042 -0.003 0.017 0.009
C8G 0.066 0.026 0.062 0.001 0.029 -0.001
C11G 0.065 0.032 0.052 -0.001 0.036 -0.007
N2B 0.052 0.022 0.015 0.0031 -0.001 -0.002
C5B 0.06 0.036 0.017 -0.005 -0.002 0.002
C6B 0.059 0.056 0.02 0 -0.003 -0.017
C7B 0.057 0.05 0.027 -0.002 0.009 -0.009
C9B 0.055 0.04 0.029 0.004 -0.002 -0.008
C10B 0.052 0.043 0.035 -0.003 -0.004 -0.017
O1J 0.034 0.08 0.064 0.018 0.003 -0.003
Cu1B 0.0505 0.0182 0.0173 0 0.0011 0
Cu1I 0.0505 0.0182 0.0173 0 0.0011 0
Cu1J 0.0505 0.0182 0.0173 0 0.0011 0
N2G 0.052 0.022 0.015 -0.0031 0.001 -0.002
O1G 0.034 0.08 0.064 -0.018 -0.003 -0.003
I1 0.0666(5) 0.0748(5) 0.0405(5) -0.0023(4) 0.000 0.000
I2 0.1123(8) 0.0705(6) 0.0666(7) 0.0027(5) 0.000 0.000
I3 0.1066(8) 0.0724(6) 0.0669(7) -0.0068(5) 0.000 0.000
loop_
_geom_bond_atom_site_label_1
_geom_bond_atom_site_label_2
_geom_bond_site_symmetry_1
_geom_bond_site_symmetry_2
I1 I2 1_555 1_555
I3 I1 1_555 1_555
Cu1 N1 1_555 1_555
N1 C3 1_555 1_555
N2 Cu1 1_555 1_555
O1 Cu1 1_555 1_555
C1 C2 1_555 1_555
C2 H1 1_555 1_555
C3 C2 1_555 1_555
H2 C3 1_555 1_555
C4 C1 1_555 1_555
C5 C6 1_555 1_555
C6 H3 1_555 1_555
C7 C5 1_555 1_555
H4 C7 1_555 1_555
C8 C4 1_555 1_555
H5 C8 1_555 1_555
C9 N2 1_555 1_555
H6 C9 1_555 1_555
C10 N2 1_555 1_555
H7 C10 1_555 1_555
N3 C11 1_555 1_555
C11 C8 1_555 1_555
H8 C11 1_555 1_555
N4 O1 1_555 1_555
O2 N4 1_555 1_555
O3 C12 1_555 1_555
N5 C12 1_555 1_555
C12 H9 1_555 1_555
C13 N5 1_555 1_555
H10 C13 1_555 1_555
H11 C13 1_555 1_555
H12 C13 1_555 1_555
C14 N5 1_555 1_555
H13 C14 1_555 1_555
H14 C14 1_555 1_555
H15 C14 1_555 1_555
C2G C1 1_555 1_555
H1G C2G 1_555 1_555
C3G N1 1_555 1_555
H2G C3G 1_555 1_555
C8G C4 1_555 1_555
H5G C8G 1_555 1_555
C11G N3 1_555 1_555
H8G C11G 1_555 1_555
N2B C9B 1_555 1_555
C5B C5 1_555 1_555
C6B C5B 1_555 1_555
H3B C6B 1_555 1_555
C7B C5B 1_555 1_555
H4B C7B 1_555 1_555
C9B C7B 1_555 1_555
H6B C9B 1_555 1_555
C10B N2B 1_555 1_555
H7B C10B 1_555 1_555
O1J N4 1_555 1_555
Cu1B N2B 1_555 1_555
Cu1I N3 1_555 1_555
Cu1J O1J 1_555 1_555
N2G Cu1 1_555 1_555
O1G Cu1 1_555 1_555
N3I Cu1 1_555 1_555
O3J C12J 1_555 1_555
N5J C12J 1_555 1_555
C12J H9J 1_555 1_555
C13J C13 1_555 1_555
H10J C13 1_555 1_555
H11J C13J 1_555 1_555
H12J C13J 1_555 1_555
C14J C14 1_555 1_555
H13J C14 1_555 1_555
H14J C14J 1_555 1_555
H15J C14 1_555 1_555
C6 C10 1_555 1_555
C7 C9 1_555 1_555
H10 C13J 1_555 1_555
H13 C14J 1_555 1_555
H15 C14J 1_555 1_555
C2G C3G 1_555 1_555
C8G C11G 1_555 1_555
C6B C10B 1_555 1_555
N5J C13J 1_555 1_555
N5J C14J 1_555 1_555
C13J H10J 1_555 1_555
C14J H13J 1_555 1_555
C14J H15J 1_555 1_555

#END
