
#######################################################################
#
#                 Cambridge Crystallographic Data Centre
#                                CCDC 
#
#######################################################################
#
# If this CIF has been generated from an entry in the Cambridge 
# Structural Database, then it will include bibliographic, chemical, 
# crystal, experimental, refinement or atomic coordinate data resulting 
# from the CCDC's data processing and validation procedures.
#
#######################################################################

data_QAPPON
_chemical_formula_moiety         '(C37 H36 Ag3 F18 N18 O2 P3)n'
_symmetry_cell_setting           monoclinic
_symmetry_space_group_name_H-M   'P 21/n'
_symmetry_Int_Tables_number      14
_space_group_name_Hall           '-P 2yn'
loop_
_symmetry_equiv_pos_site_id
_symmetry_equiv_pos_as_xyz
1 x,y,z
2 1/2-x,1/2+y,1/2-z
3 -x,-y,-z
4 1/2+x,1/2-y,1/2+z
_cell_length_a                   10.4641(6)
_cell_length_b                   15.6701(8)
_cell_length_c                   31.1907(17)
_cell_angle_alpha                90
_cell_angle_beta                 94.8840(10)
_cell_angle_gamma                90
_cell_volume                     5095.88
loop_
_atom_site_label
_atom_site_type_symbol
_atom_site_fract_x
_atom_site_fract_y
_atom_site_fract_z
Ag1 Ag 0.33358(2) 0.942104(16) 0.488508(8)
Ag2 Ag 0.48654(2) 0.574758(15) 0.664549(8)
Ag3 Ag -0.82285(2) 0.556460(15) 0.328330(9)
C1 C -0.6521(4) 0.6311(2) 0.40946(12)
H1 H -0.6428 0.5715 0.4146
C2 C -0.5560(4) 0.6846(2) 0.42595(12)
H2 H -0.4821 0.6624 0.4419
C3 C -0.5691(3) 0.7721(2) 0.41885(11)
C4 C -0.6789(3) 0.8021(2) 0.39618(12)
H3 H -0.6916 0.8615 0.3914
C5 C -0.7699(4) 0.7433(2) 0.38054(13)
H4 H -0.8451 0.7639 0.3647
C6 C -0.4693(3) 0.8309(2) 0.43661(11)
C7 C -0.2813(3) 0.8849(2) 0.45565(11)
C8 C 0.0608(5) 0.9205(4) 0.43615(17)
H5 H 0.1070 0.9312 0.4118
C9 C -0.0703(5) 0.9117(3) 0.42893(17)
H6 H -0.1101 0.9169 0.4005
C10 C -0.1405(3) 0.8963(2) 0.46071(12)
C11 C -0.0746(5) 0.8898(3) 0.50504(17)
H7 H -0.1214 0.8812 0.5295
C12 C 0.0571(5) 0.8968(3) 0.50875(17)
H8 H 0.1036 0.8892 0.5360
N1 N 0.1242(3) 0.91568(19) 0.47159(10)
C18 C 0.4770(4) 0.8602(2) 0.57098(12)
H13 H 0.4758 0.9193 0.5779
C19 C 0.5759(3) 0.8108(2) 0.58985(12)
H14 H 0.6416 0.8356 0.6088
C20 C 0.5771(3) 0.7248(2) 0.58051(11)
C21 C 0.4800(3) 0.6910(2) 0.55264(11)
H15 H 0.4776 0.6319 0.5458
C22 C 0.3867(3) 0.7464(2) 0.53516(11)
H16 H 0.3204 0.7236 0.5158
C23 C 0.6792(3) 0.6697(2) 0.60092(11)
C24 C 0.8693(3) 0.6246(2) 0.62389(11)
C25 C 1.2213(3) 0.6083(3) 0.61082(12)
H17 H 1.2766 0.6054 0.5882
C26 C 1.0905(3) 0.6146(3) 0.59958(12)
H18 H 1.0573 0.6162 0.5703
C27 C 1.0097(3) 0.6186(2) 0.63271(11)
C28 C 1.0631(3) 0.61598(19) 0.67482(11)
H19 H 1.0102 0.6181 0.6981
C29 C 1.1955(3) 0.6102(2) 0.68246(11)
H20 H 1.2315 0.6090 0.7115
C30 C 0.0926(3) 0.4062(2) 0.72102(12)
H21 H 0.0423 0.4097 0.7449
C31 C 0.2238(3) 0.3965(2) 0.72928(11)
H22 H 0.2624 0.3924 0.7579
C32 C 0.2971(3) 0.39278(18) 0.69415(10)
C33 C 0.2370(3) 0.39916(19) 0.65306(11)
H23 H 0.2855 0.3977 0.6287
C34 C 0.1044(3) 0.4077(2) 0.64807(11)
H24 H 0.0630 0.4113 0.6198
C35 C 0.4380(3) 0.38195(19) 0.70078(10)
C36 C 0.6254(3) 0.32943(19) 0.72181(10)
C37 C 0.8216(3) 0.1366(2) 0.75401(11)
H25 H 0.8214 0.0771 0.7482
C38 C 0.7261(3) 0.18622(19) 0.73338(11)
H26 H 0.6618 0.1614 0.7139
C39 C 0.7262(3) 0.27351(18) 0.74187(10)
C40 C 0.8230(3) 0.30718(19) 0.77014(11)
H27 H 0.8263 0.3665 0.7764
C41 C 0.9146(3) 0.2521(2) 0.78899(11)
H28 H 0.9811 0.2753 0.8082
N3 N -0.7579(3) 0.6587(2) 0.38656(10)
N4 N -0.4864(2) 0.89965(17) 0.45918(9)
N5 N -0.3664(3) 0.93404(17) 0.47186(10)
N6 N -0.3408(3) 0.81982(16) 0.43359(9)
N7 N -0.2887(4) 0.7550(2) 0.40904(14)
H29 H -0.254(4) 0.780(3) 0.3890(15)
H30 H -0.238(5) 0.732(3) 0.4246(15)
N8 N 0.3837(3) 0.82958(19) 0.54370(9)
N9 N 0.6639(2) 0.60525(17) 0.62643(9)
N10 N 0.7853(2) 0.57651(16) 0.64154(9)
N11 N 0.8068(2) 0.68309(18) 0.59791(9)
N12 N 0.8552(3) 0.7455(2) 0.57128(13)
H31 H 0.907(4) 0.772(2) 0.5885(12)
H32 H 0.884(4) 0.722(3) 0.5504(15)
N13 N 1.2748(2) 0.60605(17) 0.65118(9)
N14 N 0.0323(2) 0.41106(16) 0.68179(10)
N15 N 0.5239(2) 0.43585(16) 0.68878(9)
N16 N 0.6438(2) 0.40253(16) 0.70253(9)
N17 N 0.4968(2) 0.31433(15) 0.72105(8)
N18 N 0.4408(3) 0.24406(19) 0.74019(12)
H33 H 0.391(4) 0.220(3) 0.7230(15)
H34 H 0.412(5) 0.259(3) 0.7615(16)
N19 N 0.9146(2) 0.16801(17) 0.78171(9)
Ag1_2 Ag -0.66642(2) 0.942104(16) 0.488508(8)
Ag1B Ag -0.33358(2) 1.057896(16) 0.511492(8)
Ag2_2 Ag 1.48654(2) 0.574758(15) 0.664549(8)
Ag2A Ag 1.01346(2) 0.074758(15) 0.835451(8)
Ag3B Ag 0.82285(2) 0.443540(15) 0.671670(9)
Ag3B_2 Ag -0.17715(2) 0.443540(15) 0.671670(9)
N4_2 N 0.5136(2) 0.89965(17) 0.45918(9)
N5B N 0.3664(3) 1.06596(17) 0.52814(10)
N10B N -0.7853(2) 0.42349(16) 0.35846(9)
N13_2 N 0.2748(2) 0.60605(17) 0.65118(9)
N14B N -1.0323(2) 0.58894(16) 0.31821(10)
N16B N -0.6438(2) 0.59747(16) 0.29747(9)
N19A N 0.5854(2) 0.66801(17) 0.71829(9)
P1 P 0.45940(9) 0.02327(6) 0.66932(3)
F1 F 0.4786(2) 0.12507(13) 0.66562(7)
F2 F 0.4393(2) -0.07712(14) 0.67328(8)
F3 F 0.3521(2) 0.02760(15) 0.62969(8)
F4 F 0.3506(2) 0.03973(15) 0.70199(8)
F5 F 0.5655(2) 0.02050(14) 0.70948(8)
F6 F 0.5678(2) 0.00892(14) 0.63719(8)
P2 P 0.51913(13) 0.40156(8) 0.84006(4)
F7 F 0.4342(4) 0.4837(2) 0.84234(11)
F8 F 0.6387(4) 0.4447(3) 0.86483(14)
F9 F 0.4711(3) 0.37209(19) 0.88504(9)
F10 F 0.5988(3) 0.3153(2) 0.83768(10)
F11 F 0.5629(4) 0.4293(2) 0.79477(11)
F12 F 0.3994(3) 0.3504(2) 0.81643(10)
P3 P 0.2619(3) 0.4753(2) 0.50812(7)
F13 F 0.1587(5) 0.4665(4) 0.46754(17)
F14 F 0.3663(11) 0.4814(6) 0.5495(3)
F15 F 0.3729(6) 0.4853(4) 0.4775(2)
F16 F 0.2804(9) 0.3732(4) 0.5075(3)
F17 F 0.1494(5) 0.4647(4) 0.53999(19)
F18 F 0.2410(5) 0.5760(3) 0.50878(15)
C42 C 0.0890(4) 0.1763(3) 0.69393(16)
O1 O 0.2010(4) 0.1757(3) 0.67272(15)
O3 O -0.0364(11) 0.6881(8) 0.4796(4)
loop_
_geom_bond_atom_site_label_1
_geom_bond_atom_site_label_2
_geom_bond_site_symmetry_1
_geom_bond_site_symmetry_2
Ag1 N1 1_555 1_555
Ag2 N9 1_555 1_555
Ag3 N3 1_555 1_555
C1 H1 1_555 1_555
C2 C1 1_555 1_555
H2 C2 1_555 1_555
C3 C2 1_555 1_555
C4 C3 1_555 1_555
H3 C4 1_555 1_555
C5 C4 1_555 1_555
H4 C5 1_555 1_555
C6 C3 1_555 1_555
C7 C10 1_555 1_555
C8 H5 1_555 1_555
C9 C8 1_555 1_555
H6 C9 1_555 1_555
C10 C9 1_555 1_555
C11 C10 1_555 1_555
H7 C11 1_555 1_555
C12 C11 1_555 1_555
H8 C12 1_555 1_555
N1 C8 1_555 1_555
C18 H13 1_555 1_555
C19 C18 1_555 1_555
H14 C19 1_555 1_555
C20 C19 1_555 1_555
C21 C20 1_555 1_555
H15 C21 1_555 1_555
C22 C21 1_555 1_555
H16 C22 1_555 1_555
C23 C20 1_555 1_555
C24 C27 1_555 1_555
C25 H17 1_555 1_555
C26 C25 1_555 1_555
H18 C26 1_555 1_555
C27 C26 1_555 1_555
C28 C27 1_555 1_555
H19 C28 1_555 1_555
C29 C28 1_555 1_555
H20 C29 1_555 1_555
C30 H21 1_555 1_555
C31 C30 1_555 1_555
H22 C31 1_555 1_555
C32 C31 1_555 1_555
C33 C32 1_555 1_555
H23 C33 1_555 1_555
C34 C33 1_555 1_555
H24 C34 1_555 1_555
C35 C32 1_555 1_555
C36 C39 1_555 1_555
C37 H25 1_555 1_555
C38 C37 1_555 1_555
H26 C38 1_555 1_555
C39 C38 1_555 1_555
C40 C39 1_555 1_555
H27 C40 1_555 1_555
C41 C40 1_555 1_555
H28 C41 1_555 1_555
N3 C1 1_555 1_555
N4 C6 1_555 1_555
N5 C7 1_555 1_555
N6 C6 1_555 1_555
N7 N6 1_555 1_555
H29 N7 1_555 1_555
H30 N7 1_555 1_555
N8 Ag1 1_555 1_555
N9 C23 1_555 1_555
N10 C24 1_555 1_555
N11 C23 1_555 1_555
N12 N11 1_555 1_555
H31 N12 1_555 1_555
H32 N12 1_555 1_555
N13 C25 1_555 1_555
N14 C30 1_555 1_555
N15 Ag2 1_555 1_555
N16 C36 1_555 1_555
N17 C35 1_555 1_555
N18 N17 1_555 1_555
H33 N18 1_555 1_555
H34 N18 1_555 1_555
N19 C37 1_555 1_555
P1 F1 1_555 1_555
F2 P1 1_555 1_555
F3 P1 1_555 1_555
F4 P1 1_555 1_555
F5 P1 1_555 1_555
F6 P1 1_555 1_555
P2 F7 1_555 1_555
F8 P2 1_555 1_555
F9 P2 1_555 1_555
F10 P2 1_555 1_555
F11 P2 1_555 1_555
F12 P2 1_555 1_555
P3 F13 1_555 1_555
F14 P3 1_555 1_555
F15 P3 1_555 1_555
F16 P3 1_555 1_555
F17 P3 1_555 1_555
F18 P3 1_555 1_555
C42 O1 1_555 1_555
Ag1_2 N4 1_555 1_555
Ag1B N5 1_555 1_555
Ag2_2 N13 1_555 1_555
Ag2A N19 1_555 1_555
Ag3B N10 1_555 1_555
Ag3B_2 N14 1_555 1_555
N4_2 Ag1 1_555 1_555
N5B Ag1 1_555 1_555
N10B Ag3 1_555 1_555
N13_2 Ag2 1_555 1_555
N14B Ag3 1_555 1_555
N16B Ag3 1_555 1_555
N19A Ag2 1_555 1_555
C5 N3 1_555 1_555
C7 N6 1_555 1_555
C12 N1 1_555 1_555
C18 N8 1_555 1_555
C22 N8 1_555 1_555
C24 N11 1_555 1_555
C29 N13 1_555 1_555
C34 N14 1_555 1_555
C35 N15 1_555 1_555
C36 N17 1_555 1_555
C41 N19 1_555 1_555
N4 N5 1_555 1_555
N9 N10 1_555 1_555
N15 N16 1_555 1_555
N16 Ag3B 1_555 1_555

#END
