
#######################################################################
#
#                 Cambridge Crystallographic Data Centre
#                                CCDC 
#
#######################################################################
#
# If this CIF has been generated from an entry in the Cambridge 
# Structural Database, then it will include bibliographic, chemical, 
# crystal, experimental, refinement or atomic coordinate data resulting 
# from the CCDC's data processing and validation procedures.
#
#######################################################################

data_RUFZOJ
_chemical_formula_moiety         '(C75 H105 Cu9 N21 O36)n'
_symmetry_cell_setting           trigonal
_symmetry_space_group_name_H-M   'P 32 2 1'
_symmetry_Int_Tables_number      154
_space_group_name_Hall           'P 32 2"'
loop_
_symmetry_equiv_pos_site_id
_symmetry_equiv_pos_as_xyz
1 x,y,z
2 -y,x-y,2/3+z
3 -x+y,-x,1/3+z
4 y,x,-z
5 -x,-x+y,2/3-z
6 x-y,-y,1/3-z
_cell_length_a                   22.741(2)
_cell_length_b                   22.741(2)
_cell_length_c                   30.380(3)
_cell_angle_alpha                90
_cell_angle_beta                 90
_cell_angle_gamma                120
_cell_volume                     13606.2
loop_
_atom_site_label
_atom_site_type_symbol
_atom_site_fract_x
_atom_site_fract_y
_atom_site_fract_z
Cu1 Cu 0.8263(6) 0.2940(4) 0.1194(4)
Cu2 Cu 0.81998(9) 0.43126(9) 0.13015(6)
Cu3 Cu 0.67635(8) 0.27839(8) 0.13264(5)
Cu4 Cu 1.10599(8) 0.51049(9) 0.17683(5)
Cu5 Cu 0.63663(12) -0.0000 0.1667
N1 N 0.7308(6) 0.4254(6) 0.1293(4)
N2 N 0.6733(6) 0.3649(6) 0.1318(4)
N3 N 0.6444(7) 0.4433(6) 0.1377(4)
N4 N 0.6853(5) 0.1954(6) 0.1342(4)
N5 N 0.7492(7) 0.2033(6) 0.1327(5)
N6 N 0.6782(7) 0.0975(6) 0.1483(5)
N7 N 0.9108(6) 0.3772(6) 0.1363(5)
N8 N 0.9084(6) 0.4358(5) 0.1366(4)
N9 N 1.0110(5) 0.4617(6) 0.1569(4)
O1 O 0.7755(4) 0.3335(4) 0.1498(3)
H1 H 0.7795 0.3321 0.1783
O2 O 0.8588(6) 0.5136(6) 0.0950(4)
O3 O 0.8573(11) 0.4580(8) 0.0362(5)
O4 O 0.9767(8) 0.6827(15) -0.1098(6)
O5 O 0.9713(10) 0.5856(18) -0.1002(5)
O6 O 0.5954(5) 0.2328(5) 0.0959(3)
O7 O 0.6680(6) 0.2605(8) 0.0411(4)
O8 O 0.4767(5) 0.1308(5) -0.1241(3)
O9 O 0.5781(7) 0.1490(7) -0.1040(4)
C1 C 0.7599(9) 0.5481(8) 0.1323(7)
H2 H 0.8016 0.5594 0.1470
H3 H 0.7386 0.5700 0.1469
H4 H 0.7692 0.5630 0.1023
C2 C 0.7134(8) 0.4726(8) 0.1335(5)
C3 C 0.6216(6) 0.3772(7) 0.1356(4)
C4 C 0.5465(8) 0.3217(9) 0.1407(7)
H5 H 0.5231 0.3389 0.1580
H6 H 0.5439 0.2829 0.1552
H7 H 0.5258 0.3086 0.1122
C5 C 0.5688(9) 0.1020(8) 0.1537(10)
H8 H 0.5588 0.1367 0.1622
H9 H 0.5553 0.0688 0.1767
H10 H 0.5443 0.0804 0.1272
C6 C 0.6430(8) 0.1329(8) 0.1456(5)
C7 C 0.7419(7) 0.1416(8) 0.1411(5)
C8 C 0.7978(10) 0.1267(9) 0.1421(6)
H11 H 0.7877 0.0914 0.1632
H12 H 0.8391 0.1669 0.1503
H13 H 0.8030 0.1120 0.1135
C9 C 0.9967(9) 0.3433(9) 0.1556(7)
H14 H 0.9583 0.2981 0.1567
H15 H 1.0216 0.3531 0.1827
H16 H 1.0256 0.3467 0.1315
C10 C 0.9723(8) 0.3936(8) 0.1491(5)
C11 C 0.9692(7) 0.4848(7) 0.1479(4)
C12 C 0.9902(9) 0.5586(8) 0.1516(6)
H17 H 0.9519 0.5628 0.1604
H18 H 1.0066 0.5803 0.1236
H19 H 1.0255 0.5799 0.1732
C13 C 0.8709(10) 0.5099(9) 0.0549(6)
C14 C 0.9019(11) 0.5754(10) 0.0298(6)
C15 C 0.9161(14) 0.6352(10) 0.0503(7)
H20 H 0.9079 0.6354 0.0803
C16 C 0.943(2) 0.6956(14) 0.0261(12)
H21 H 0.9491 0.7352 0.0393
C17 C 0.9604(14) 0.6959(15) -0.0184(9)
H22 H 0.9800 0.7358 -0.0347
C18 C 0.9477(10) 0.6353(13) -0.0373(7)
C19 C 0.9198(9) 0.5772(11) -0.0148(6)
H23 H 0.9119 0.5375 -0.0286
C20 C 0.9644(11) 0.628(2) -0.0873(8)
C21 C 0.6090(8) 0.2350(8) 0.0548(5)
C22 C 0.5492(8) 0.2041(8) 0.0227(5)
C23 C 0.4868(9) 0.1907(12) 0.0353(6)
H24 H 0.4801 0.2010 0.0639
C24 C 0.4325(11) 0.1616(13) 0.0060(6)
H25 H 0.3888 0.1500 0.0148
C25 C 0.4465(10) 0.1505(12) -0.0376(6)
H26 H 0.4119 0.1339 -0.0584
C26 C 0.5102(8) 0.1636(8) -0.0500(5)
C27 C 0.5619(8) 0.1930(8) -0.0200(5)
H27 H 0.6060 0.2055 -0.0285
C28 C 0.5242(9) 0.1471(7) -0.0956(5)
C29 C 1.0532(8) 0.4989(10) 0.2579(5)
C30 C 1.0258(11) 0.5192(10) 0.2973(5)
C31 C 1.0234(16) 0.5772(12) 0.2956(8)
H28 H 1.0369 0.6033 0.2701
C32 C 1.0000 0.5991(15) 0.3333
H29 H 1.0000 0.6400 0.3333
C33 C 1.0000 0.4760(12) 0.3333
H30 H 1.0000 0.4351 0.3333
C34 C 0.5983(19) 0.2698(17) 0.2195(10)
H31 H 0.5980 0.3093 0.2119
C35 C 0.542(3) 0.1578(17) 0.2633(12)
H32 H 0.5769 0.1510 0.2508
H33 H 0.4989 0.1258 0.2507
H34 H 0.5404 0.1511 0.2945
C36 C 0.508(2) 0.245(2) 0.2727(10)
H35 H 0.5183 0.2894 0.2621
H36 H 0.5107 0.2462 0.3042
H37 H 0.4624 0.2124 0.2638
C37 C 0.801(2) 0.487(3) 0.2371(15)
H38 H 0.7891 0.5178 0.2245
H39 H 0.8277 0.5063 0.2633
H40 H 0.7609 0.4451 0.2445
N10 N 0.5564(10) 0.2266(11) 0.2539(6)
O10 O 1.0800(5) 0.5460(6) 0.2280(3)
O11 O 1.0472(7) 0.4423(7) 0.2554(4)
O12 O 0.6333(8) 0.2531(7) 0.2010(4)
O13 O 0.8398(8) 0.4758(7) 0.2036(4)
H41 H 0.8458 0.4396 0.2059
O14 O 0.8001(6) 0.3270(6) 0.0576(4)
O15 O 0.8757(6) 0.2573(6) 0.0869(4)
C29D C 0.9468(8) 0.4457(13) 0.4088(5)
C30D C 0.9742(11) 0.4934(15) 0.3694(5)
C31D C 0.9766(16) 0.5538(20) 0.3711(8)
H28D H 0.9631 0.5664 0.3966
O10D O 0.9200(5) 0.4660(8) 0.4387(3)
O11D O 0.9528(7) 0.3951(10) 0.4113(4)
Cu1D Cu 1.1737(6) 0.4677(7) 0.5473(4)
Cu2D Cu 1.18002(9) 0.61128(13) 0.53652(6)
Cu3D Cu 1.32365(8) 0.60204(11) 0.53403(5)
Cu4D Cu 0.89401(8) 0.40450(12) 0.48984(5)
N1D N 1.2692(6) 0.6946(8) 0.5374(4)
N2D N 1.3267(6) 0.6916(8) 0.5349(4)
N3D N 1.3556(7) 0.7989(9) 0.5290(4)
N4D N 1.3147(5) 0.5101(8) 0.5325(4)
N5D N 1.2508(7) 0.4541(9) 0.5340(5)
N6D N 1.3218(7) 0.4193(9) 0.5184(5)
N7D N 1.0892(6) 0.4664(8) 0.5304(5)
N8D N 1.0916(6) 0.5274(8) 0.5301(4)
N9D N 0.9890(5) 0.4507(8) 0.5098(4)
O1D O 1.2245(4) 0.5580(6) 0.5169(3)
H1D H 1.2205 0.5526 0.4884
O2D O 1.1412(6) 0.6548(8) 0.5717(4)
O3D O 1.1427(11) 0.6007(14) 0.6305(5)
O4D O 1.0233(8) 0.7060(17) 0.7765(6)
O5D O 1.0287(10) 0.6143(21) 0.7669(5)
O6D O 1.4046(5) 0.6374(7) 0.5708(3)
O7D O 1.3320(6) 0.5925(10) 0.6256(4)
O8D O 1.5233(5) 0.6541(7) 0.7908(3)
O9D O 1.4219(7) 0.5709(10) 0.7707(4)
C1D C 1.2401(9) 0.7882(12) 0.5344(7)
H2D H 1.1984 0.7578 0.5197
H3D H 1.2614 0.8314 0.5198
H4D H 1.2308 0.7938 0.5644
C2D C 1.2866(8) 0.7592(11) 0.5332(5)
C3D C 1.3784(6) 0.7556(9) 0.5311(4)
C4D C 1.4535(8) 0.7752(12) 0.5260(7)
H5D H 1.4769 0.8158 0.5087
H6D H 1.4561 0.7390 0.5115
H7D H 1.4742 0.7828 0.5545
C5D C 1.4312(9) 0.5332(12) 0.5130(10)
H8D H 1.4412 0.5779 0.5045
H9D H 1.4447 0.5135 0.4900
H10D H 1.4557 0.5361 0.5395
C6D C 1.3570(8) 0.4899(11) 0.5211(5)
C7D C 1.2581(7) 0.3997(11) 0.5256(5)
C8D C 1.2022(10) 0.3289(13) 0.5246(6)
H11D H 1.2123 0.3037 0.5035
H12D H 1.1609 0.3278 0.5164
H13D H 1.1970 0.3090 0.5532
C9D C 1.0033(9) 0.3466(13) 0.5111(7)
H14D H 1.0417 0.3398 0.5100
H15D H 0.9784 0.3315 0.4840
H16D H 0.9744 0.3211 0.5352
C10D C 1.0277(8) 0.4213(11) 0.5176(5)
C11D C 1.0308(7) 0.5156(10) 0.5188(4)
C12D C 1.0098(9) 0.5684(12) 0.5151(6)
H17D H 1.0481 0.6109 0.5063
H18D H 0.9934 0.5737 0.5431
H19D H 0.9745 0.5544 0.4935
C13D C 1.1291(10) 0.6390(13) 0.6118(6)
C14D C 1.0981(11) 0.6735(15) 0.6369(6)
C15D C 1.0839(14) 0.7191(17) 0.6164(7)
H20D H 1.0921 0.7275 0.5864
C16D C 1.057(2) 0.7526(24) 0.6406(12)
H21D H 1.0509 0.7861 0.6274
C17D C 1.0396(14) 0.7355(21) 0.6851(9)
H22D H 1.0200 0.7558 0.7014
C18D C 1.0523(10) 0.6876(16) 0.7040(7)
C19D C 1.0802(9) 0.6574(14) 0.6815(6)
H23D H 1.0881 0.6256 0.6953
C20D C 1.0356(11) 0.6636(23) 0.7540(8)
C21D C 1.3910(8) 0.6260(11) 0.6119(5)
C22D C 1.4508(8) 0.6549(11) 0.6440(5)
C23D C 1.5132(9) 0.7039(15) 0.6314(6)
H24D H 1.5199 0.7209 0.6028
C24D C 1.5675(11) 0.7291(17) 0.6607(6)
H25D H 1.6112 0.7612 0.6519
C25D C 1.5535(10) 0.7040(16) 0.7043(6)
H26D H 1.5881 0.7220 0.7251
C26D C 1.4898(8) 0.6534(11) 0.7167(5)
C27D C 1.4381(8) 0.6311(11) 0.6867(5)
H27D H 1.3940 0.5995 0.6952
C28D C 1.4758(9) 0.6229(11) 0.7623(5)
C34D C 1.4017(19) 0.6715(25) 0.4472(10)
H31D H 1.4020 0.7113 0.4548
C35D C 1.458(3) 0.6158(34) 0.4034(12)
H32D H 1.4231 0.5741 0.4159
H33D H 1.5011 0.6269 0.4160
H34D H 1.4596 0.6107 0.3722
C36D C 1.492(2) 0.737(3) 0.3940(10)
H35D H 1.4817 0.7711 0.4046
H36D H 1.4893 0.7355 0.3625
H37D H 1.5376 0.7500 0.4029
C37D C 1.199(2) 0.686(4) 0.4296(15)
H38D H 1.2109 0.7287 0.4422
H39D H 1.1723 0.6786 0.4034
H40D H 1.2391 0.6842 0.4222
N10D N 1.4436(10) 0.6702(15) 0.4128(6)
O12D O 1.3667(8) 0.6198(11) 0.4657(4)
O13D O 1.1602(8) 0.6360(11) 0.4631(4)
H41D H 1.1542 0.5938 0.4608
O14D O 1.1999(6) 0.5269(8) 0.6091(4)
O15D O 1.1243(6) 0.3816(8) 0.5798(4)
Cu4A Cu 1.48951(9) 0.59550(12) 0.84350(5)
Cu4B Cu 1.40450(12) 0.89401(8) 0.51016(5)
Cu4C Cu 0.51049(9) 0.10599(8) -0.17683(5)
Cu4E Cu 0.59550(12) 0.48951(9) 0.15650(5)
Cu5A Cu 1.0000 0.63663(12) -0.1666
Cu5A_2 Cu 1.0000 0.63663(12) 0.8334
Cu5B Cu 1.36337(12) 0.36337(12) 0.5000
N3B N 0.7989(9) 0.3556(7) 0.4710(4)
N3E N 1.2011(9) 0.5567(6) 0.1956(4)
N6E N 0.5807(9) -0.0975(6) 0.1850(5)
O4B O 0.7060(17) 0.0233(8) 0.2235(6)
O4C O 0.6827(15) -0.0233(8) 0.1098(6)
O5B O 0.6143(21) 0.0287(10) 0.2331(5)
O5C O 0.5856(18) -0.0287(10) 0.1002(5)
O8A O 0.8692(5) 0.3459(7) 0.5426(3)
O8C O 1.1308(5) 0.4767(5) 0.1241(3)
O9A O 0.8510(7) 0.4291(10) 0.5627(4)
O9C O 1.1490(7) 0.5781(7) 0.1040(4)
C38 C 0.8684(15) 0.3378(16) 0.2419(9)
H42 H 0.9137 0.3693 0.2476
C39 C 0.899(3) 0.248(4) 0.2539(19)
H43 H 0.8806 0.2011 0.2456
H44 H 0.9118 0.2532 0.2845
H45 H 0.9385 0.2757 0.2363
C40 C 0.7773(19) 0.2133(18) 0.2399(12)
H46 H 0.7477 0.2271 0.2530
H47 H 0.7712 0.1730 0.2543
H48 H 0.7668 0.2041 0.2092
N11 N 0.8472(17) 0.2671(14) 0.2449(10)
O16 O 0.8304(12) 0.3585(12) 0.2324(6)
O17 O 0.781(2) 0.328(4) 0.3480(9)
O18 O 0.368(3) 0.218(4) 0.3539(17)
O19 O 0.409(2) 0.289(2) 0.320(2)
O20 O 0.951(3) 0.806(3) 0.8956(17)
O21 O 0.423(3) 0.0058(17) 0.329(2)
loop_
_geom_bond_atom_site_label_1
_geom_bond_atom_site_label_2
_geom_bond_site_symmetry_1
_geom_bond_site_symmetry_2
Cu1 N5 1_555 1_555
Cu2 N1 1_555 1_555
Cu3 N2 1_555 1_555
Cu4 N9 1_555 1_555
Cu5 N6 1_555 1_555
N1 N2 1_555 1_555
N2 C3 1_555 1_555
N3 C2 1_555 1_555
N4 Cu3 1_555 1_555
N5 N4 1_555 1_555
N6 C6 1_555 1_555
N7 Cu1 1_555 1_555
N8 Cu2 1_555 1_555
N9 C10 1_555 1_555
O1 Cu1 1_555 1_555
H1 O1 1_555 1_555
O2 Cu2 1_555 1_555
O3 C13 1_555 1_555
O4 C20 1_555 1_555
O5 C20 1_555 1_555
O6 Cu3 1_555 1_555
O7 C21 1_555 1_555
O8 C28 1_555 1_555
O9 C28 1_555 1_555
C1 H2 1_555 1_555
H3 C1 1_555 1_555
H4 C1 1_555 1_555
C2 N1 1_555 1_555
C3 N3 1_555 1_555
C4 C3 1_555 1_555
H5 C4 1_555 1_555
H6 C4 1_555 1_555
H7 C4 1_555 1_555
C5 H8 1_555 1_555
H9 C5 1_555 1_555
H10 C5 1_555 1_555
C6 N4 1_555 1_555
C7 N5 1_555 1_555
C8 C7 1_555 1_555
H11 C8 1_555 1_555
H12 C8 1_555 1_555
H13 C8 1_555 1_555
C9 H14 1_555 1_555
H15 C9 1_555 1_555
H16 C9 1_555 1_555
C10 N7 1_555 1_555
C11 N8 1_555 1_555
C12 C11 1_555 1_555
H17 C12 1_555 1_555
H18 C12 1_555 1_555
H19 C12 1_555 1_555
C13 O2 1_555 1_555
C14 C13 1_555 1_555
C15 C14 1_555 1_555
H20 C15 1_555 1_555
C16 C15 1_555 1_555
H21 C16 1_555 1_555
C17 C16 1_555 1_555
H22 C17 1_555 1_555
C18 C17 1_555 1_555
C19 C14 1_555 1_555
H23 C19 1_555 1_555
C20 C18 1_555 1_555
C21 O6 1_555 1_555
C22 C21 1_555 1_555
C23 C22 1_555 1_555
H24 C23 1_555 1_555
C24 C23 1_555 1_555
H25 C24 1_555 1_555
C25 C24 1_555 1_555
H26 C25 1_555 1_555
C26 C25 1_555 1_555
C27 C22 1_555 1_555
H27 C27 1_555 1_555
C28 C26 1_555 1_555
C29 C30 1_555 1_555
C30 C31 1_555 1_555
C31 H28 1_555 1_555
C32 C31 1_555 1_555
H29 C32 1_555 1_555
C33 C30 1_555 1_555
H30 C33 1_555 1_555
C34 H31 1_555 1_555
C35 H32 1_555 1_555
H33 C35 1_555 1_555
H34 C35 1_555 1_555
C36 H35 1_555 1_555
H36 C36 1_555 1_555
H37 C36 1_555 1_555
C37 H38 1_555 1_555
H39 C37 1_555 1_555
H40 C37 1_555 1_555
N10 C34 1_555 1_555
O10 Cu4 1_555 1_555
O11 Cu4 1_555 1_555
O12 Cu3 1_555 1_555
O13 Cu2 1_555 1_555
H41 O13 1_555 1_555
O14 Cu1 1_555 1_555
O15 Cu1 1_555 1_555
C38 H42 1_555 1_555
C39 H43 1_555 1_555
H44 C39 1_555 1_555
H45 C39 1_555 1_555
C40 H46 1_555 1_555
H47 C40 1_555 1_555
H48 C40 1_555 1_555
N11 C38 1_555 1_555
O16 C38 1_555 1_555
C29D C30D 1_555 1_555
C30D C33 1_555 1_555
C31D C32 1_555 1_555
H28D C31D 1_555 1_555
O10D C29D 1_555 1_555
O11D C29D 1_555 1_555
Cu1D N5D 1_555 1_555
Cu2D N1D 1_555 1_555
Cu3D N2D 1_555 1_555
Cu4D O10D 1_555 1_555
N1D N2D 1_555 1_555
N2D C3D 1_555 1_555
N3D C2D 1_555 1_555
N4D Cu3D 1_555 1_555
N5D N4D 1_555 1_555
N6D C6D 1_555 1_555
N7D Cu1D 1_555 1_555
N8D Cu2D 1_555 1_555
N9D Cu4D 1_555 1_555
O1D Cu1D 1_555 1_555
H1D O1D 1_555 1_555
O2D Cu2D 1_555 1_555
O3D C13D 1_555 1_555
O4D C20D 1_555 1_555
O5D C20D 1_555 1_555
O6D Cu3D 1_555 1_555
O7D C21D 1_555 1_555
O8D C28D 1_555 1_555
O9D C28D 1_555 1_555
C1D H2D 1_555 1_555
H3D C1D 1_555 1_555
H4D C1D 1_555 1_555
C2D N1D 1_555 1_555
C3D N3D 1_555 1_555
C4D C3D 1_555 1_555
H5D C4D 1_555 1_555
H6D C4D 1_555 1_555
H7D C4D 1_555 1_555
C5D H8D 1_555 1_555
H9D C5D 1_555 1_555
H10D C5D 1_555 1_555
C6D N4D 1_555 1_555
C7D N5D 1_555 1_555
C8D C7D 1_555 1_555
H11D C8D 1_555 1_555
H12D C8D 1_555 1_555
H13D C8D 1_555 1_555
C9D H14D 1_555 1_555
H15D C9D 1_555 1_555
H16D C9D 1_555 1_555
C10D N7D 1_555 1_555
C11D N8D 1_555 1_555
C12D C11D 1_555 1_555
H17D C12D 1_555 1_555
H18D C12D 1_555 1_555
H19D C12D 1_555 1_555
C13D O2D 1_555 1_555
C14D C13D 1_555 1_555
C15D C14D 1_555 1_555
H20D C15D 1_555 1_555
C16D C15D 1_555 1_555
H21D C16D 1_555 1_555
C17D C16D 1_555 1_555
H22D C17D 1_555 1_555
C18D C17D 1_555 1_555
C19D C14D 1_555 1_555
H23D C19D 1_555 1_555
C20D C18D 1_555 1_555
C21D O6D 1_555 1_555
C22D C21D 1_555 1_555
C23D C22D 1_555 1_555
H24D C23D 1_555 1_555
C24D C23D 1_555 1_555
H25D C24D 1_555 1_555
C25D C24D 1_555 1_555
H26D C25D 1_555 1_555
C26D C25D 1_555 1_555
C27D C22D 1_555 1_555
H27D C27D 1_555 1_555
C28D C26D 1_555 1_555
C34D H31D 1_555 1_555
C35D H32D 1_555 1_555
H33D C35D 1_555 1_555
H34D C35D 1_555 1_555
C36D H35D 1_555 1_555
H36D C36D 1_555 1_555
H37D C36D 1_555 1_555
C37D H38D 1_555 1_555
H39D C37D 1_555 1_555
H40D C37D 1_555 1_555
N10D C34D 1_555 1_555
O12D Cu3D 1_555 1_555
O13D Cu2D 1_555 1_555
H41D O13D 1_555 1_555
O14D Cu1D 1_555 1_555
O15D Cu1D 1_555 1_555
Cu4A O8D 1_555 1_555
Cu4B N3D 1_555 1_555
Cu4C O8 1_555 1_555
Cu4E N3 1_555 1_555
Cu5A O4 1_555 1_555
Cu5A_2 O4D 1_555 1_555
Cu5B N6D 1_555 1_555
N3B Cu4D 1_555 1_555
N3E Cu4 1_555 1_555
N6E Cu5 1_555 1_555
O4B Cu5 1_555 1_555
O4C Cu5 1_555 1_555
O5B Cu5 1_555 1_555
O5C Cu5 1_555 1_555
O8A Cu4D 1_555 1_555
O8C Cu4 1_555 1_555
O9A Cu4D 1_555 1_555
O9C Cu4 1_555 1_555
Cu2 O1 1_555 1_555
Cu3 O1 1_555 1_555
N6 C7 1_555 1_555
N7 N8 1_555 1_555
N9 C11 1_555 1_555
O5 Cu5A 1_555 1_555
O9 Cu4C 1_555 1_555
C1 C2 1_555 1_555
C5 C6 1_555 1_555
C9 C10 1_555 1_555
C18 C19 1_555 1_555
C26 C27 1_555 1_555
C29 O10 1_555 1_555
C29 O11 1_555 1_555
C34 O12 1_555 1_555
C35 N10 1_555 1_555
C36 N10 1_555 1_555
C37 O13 1_555 1_555
C39 N11 1_555 1_555
C40 N11 1_555 1_555
C30D C31D 1_555 1_555
O11D Cu4D 1_555 1_555
Cu2D O1D 1_555 1_555
Cu3D O1D 1_555 1_555
N6D C7D 1_555 1_555
N7D N8D 1_555 1_555
N9D C10D 1_555 1_555
N9D C11D 1_555 1_555
O5D Cu5A_2 1_555 1_555
O9D Cu4A 1_555 1_555
C1D C2D 1_555 1_555
C5D C6D 1_555 1_555
C9D C10D 1_555 1_555
C18D C19D 1_555 1_555
C26D C27D 1_555 1_555
C34D O12D 1_555 1_555
C35D N10D 1_555 1_555
C36D N10D 1_555 1_555
C37D O13D 1_555 1_555

#END
