
#######################################################################
#
#                 Cambridge Crystallographic Data Centre
#                                CCDC 
#
#######################################################################
#
# If this CIF has been generated from an entry in the Cambridge 
# Structural Database, then it will include bibliographic, chemical, 
# crystal, experimental, refinement or atomic coordinate data resulting 
# from the CCDC's data processing and validation procedures.
#
#######################################################################

data_YUMVAF
_chemical_formula_moiety         '(C16 H25 Cl1 Cu2 N2 O15)n'
_symmetry_cell_setting           monoclinic
_symmetry_space_group_name_H-M   'P 21/n'
_symmetry_Int_Tables_number      14
_space_group_name_Hall           '-P 2yn'
loop_
_symmetry_equiv_pos_site_id
_symmetry_equiv_pos_as_xyz
1 x,y,z
2 1/2-x,1/2+y,1/2-z
3 -x,-y,-z
4 1/2+x,1/2-y,1/2+z
_cell_length_a                   8.697(6)
_cell_length_b                   25.050(17)
_cell_length_c                   11.638(8)
_cell_angle_alpha                90
_cell_angle_beta                 104.010(10)
_cell_angle_gamma                90
_cell_volume                     2460.03
loop_
_atom_site_label
_atom_site_type_symbol
_atom_site_fract_x
_atom_site_fract_y
_atom_site_fract_z
Cu1 Cu 0.58793(4) 0.033192(12) 0.60365(2)
Cu2 Cu 0.27507(4) 0.084852(12) 0.40521(3)
Cl1 Cl 0.75889(11) 0.10140(4) 0.60414(8)
O1 O 0.3567(2) 0.05262(9) 0.66777(17)
O2 O 0.1848(2) 0.03370(8) 0.49698(15)
O3 O 0.3407(3) -0.02152(9) 1.22751(16)
O4 O 0.1808(3) 0.04856(10) 1.22133(17)
O5 O 0.5755(2) 0.37437(9) -0.12476(18)
O6 O 0.6664(3) 0.33427(11) 0.0491(2)
O7 O 0.3624(3) 0.14424(9) 0.3320(2)
O8 O 0.5650(3) 0.10552(10) 0.2763(2)
O9 O 0.4742(2) 0.04340(7) 0.43822(14)
H1 H 0.5455 0.0567 0.3912
N1 N 0.1588(3) 0.01098(10) 0.79894(19)
N2 N 0.4283(3) 0.26219(9) 0.0093(2)
C1 C 0.0971(4) 0.05014(14) 0.8518(3)
H2 H 0.0321 0.0756 0.8059
C2 C 0.1290(4) 0.05315(13) 0.9736(2)
H3 H 0.0864 0.0807 1.0098
C3 C 0.2247(3) 0.01499(11) 1.0416(2)
C4 C 0.2909(4) -0.02409(13) 0.9846(3)
H4 H 0.3589 -0.0494 1.0283
C5 C 0.2558(4) -0.02532(14) 0.8626(3)
H5 H 0.3000 -0.0517 0.8243
C6 C 0.1143(4) 0.00653(15) 0.6678(2)
H6 H 0.0101 0.0221 0.6380
H7 H 0.1076 -0.0309 0.6460
C7 C 0.2315(3) 0.03409(11) 0.6090(2)
C8 C 0.2506(3) 0.01485(12) 1.1761(2)
C9 C 0.3242(4) 0.26132(14) 0.0775(4)
H8 H 0.2444 0.2869 0.0668
C10 C 0.3348(4) 0.22277(13) 0.1633(4)
H9 H 0.2633 0.2226 0.2112
C11 C 0.4520(3) 0.18431(11) 0.1782(3)
C12 C 0.5575(4) 0.18577(13) 0.1059(3)
H10 H 0.6371 0.1603 0.1140
C13 C 0.5426(4) 0.22544(13) 0.0221(3)
H11 H 0.6133 0.2267 -0.0263
C14 C 0.4214(4) 0.30504(12) -0.0787(3)
H12 H 0.3274 0.3266 -0.0832
H13 H 0.4141 0.2894 -0.1561
C15 C 0.5688(3) 0.34056(11) -0.0451(3)
C16 C 0.4632(4) 0.14025(11) 0.2700(3)
Cu1B Cu 0.41207(4) -0.033192(12) 0.39635(2)
Cu1B_2 Cu 0.41207(4) -0.033192(12) 1.39635(2)
Cu2_2 Cu 0.27507(4) 0.084852(12) 1.40521(3)
Cu2C Cu 0.77507(4) 0.415148(12) -0.09479(3)
O3B O 0.6593(3) 0.02152(9) 0.77249(16)
O4_2 O 0.1808(3) 0.04856(10) 0.22133(17)
O5C O 0.0755(2) 0.12563(9) 0.37524(18)
O9B O 0.5258(2) -0.04340(7) 0.56178(14)
O10 O 0.5505(5) -0.11575(16) 1.1305(3)
O11 O 0.6973(5) 0.31288(19) 0.3020(3)
O12 O 0.9356(5) 0.1510(2) 0.1255(4)
O13 O 0.6762(10) 0.1700(3) -0.1952(7)
O14 O 0.4594(7) 0.2265(3) -0.3675(9)
O15 O -0.0518(11) 0.1870(6) 0.9100(8)
loop_
_geom_bond_atom_site_label_1
_geom_bond_atom_site_label_2
_geom_bond_site_symmetry_1
_geom_bond_site_symmetry_2
Cu1 Cl1 1_555 1_555
Cu2 O2 1_555 1_555
O1 Cu1 1_555 1_555
O2 C7 1_555 1_555
O3 C8 1_555 1_555
O4 C8 1_555 1_555
O5 C15 1_555 1_555
O6 C15 1_555 1_555
O7 Cu2 1_555 1_555
O8 C16 1_555 1_555
O9 Cu1 1_555 1_555
H1 O9 1_555 1_555
N1 C1 1_555 1_555
N2 C9 1_555 1_555
C1 H2 1_555 1_555
C2 C1 1_555 1_555
H3 C2 1_555 1_555
C3 C2 1_555 1_555
C4 C3 1_555 1_555
H4 C4 1_555 1_555
C5 N1 1_555 1_555
H5 C5 1_555 1_555
C6 N1 1_555 1_555
H6 C6 1_555 1_555
H7 C6 1_555 1_555
C7 O1 1_555 1_555
C8 C3 1_555 1_555
C9 H8 1_555 1_555
C10 C9 1_555 1_555
H9 C10 1_555 1_555
C11 C10 1_555 1_555
C12 C11 1_555 1_555
H10 C12 1_555 1_555
C13 N2 1_555 1_555
H11 C13 1_555 1_555
C14 N2 1_555 1_555
H12 C14 1_555 1_555
H13 C14 1_555 1_555
C15 C14 1_555 1_555
C16 O7 1_555 1_555
Cu1B O9 1_555 1_555
Cu1B_2 O3 1_555 1_555
Cu2_2 O4 1_555 1_555
Cu2C O5 1_555 1_555
O3B Cu1 1_555 1_555
O4_2 Cu2 1_555 1_555
O5C Cu2 1_555 1_555
O9B Cu1 1_555 1_555
Cu2 O9 1_555 1_555
C4 C5 1_555 1_555
C6 C7 1_555 1_555
C11 C16 1_555 1_555
C12 C13 1_555 1_555
Cu1B O9B 1_555 1_555

#END
