
#######################################################################
#
#                 Cambridge Crystallographic Data Centre
#                                CCDC 
#
#######################################################################
#
# If this CIF has been generated from an entry in the Cambridge 
# Structural Database, then it will include bibliographic, chemical, 
# crystal, experimental, refinement or atomic coordinate data resulting 
# from the CCDC's data processing and validation procedures.
#
#######################################################################

data_OTAZUG
_chemical_formula_moiety         '(C136 H88 Al8 O40)n'
_symmetry_cell_setting           tetragonal
_symmetry_space_group_name_H-M   'P 42 21 2'
_symmetry_Int_Tables_number      94
_space_group_name_Hall           'P 4n 2n'
loop_
_symmetry_equiv_pos_site_id
_symmetry_equiv_pos_as_xyz
1 x,y,z
2 1/2-y,1/2+x,1/2+z
3 -x,-y,z
4 1/2+y,1/2-x,1/2+z
5 1/2+x,1/2-y,1/2-z
6 1/2-x,1/2+y,1/2-z
7 y,x,-z
8 -y,-x,-z
_cell_length_a                   18.9406(5)
_cell_length_b                   18.9406(5)
_cell_length_c                   36.6364(11)
_cell_angle_alpha                90
_cell_angle_beta                 90
_cell_angle_gamma                90
_cell_volume                     13143.2
loop_
_atom_site_label
_atom_site_type_symbol
_atom_site_fract_x
_atom_site_fract_y
_atom_site_fract_z
Al1 Al 0.66302(8) 0.66302(8) 0.5000
O1 O 0.62725(15) 0.60501(16) 0.46482(7)
O2 O 0.73167(17) 0.69871(18) 0.46745(9)
O3 O 0.5955(2) 0.73387(17) 0.48740(9)
Al2 Al 0.59768(8) 0.62850(9) 0.41829(4)
H1 H 0.6233 0.5566 0.4712
C1 C 0.5464(3) 0.7373(4) 0.4626(2)
O4 O 0.52260(15) 0.56622(16) 0.41900(7)
O5 O 0.6715(2) 0.69293(18) 0.41408(9)
O6 O 0.5382(2) 0.7006(2) 0.43587(10)
O7 O 0.65904(18) 0.5595(2) 0.39839(8)
O8 O 0.5737(2) 0.6578(2) 0.37046(10)
C2 C 0.4816(17) 0.7881(19) 0.4745(9)
Al3 Al 0.5000 0.5000 0.38392(5)
H2 H 0.4924 0.5685 0.4396
C3 C 0.5449(3) 0.6197(5) 0.34417(13)
C4 C 0.4769(17) 0.8181(12) 0.5086(6)
C5 C 0.4305(16) 0.8015(16) 0.4497(7)
C6 C 0.4985(3) 0.6512(4) 0.61333(12)
O9 O 0.4072(2) 0.53453(19) 0.38215(9)
O10 O 0.5210(2) 0.5612(2) 0.34613(9)
C7 C 0.5515(3) 0.6603(4) 0.30770(14)
C8 C 0.4180(16) 0.8626(12) 0.5182(5)
H3 H 0.5130 0.8095 0.5260
H4 H 0.4339 0.7829 0.4256
C9 C 0.3722(15) 0.8432(14) 0.4598(5)
C10 C 0.4571(4) 0.7145(4) 0.62412(14)
C11 C 0.5179(3) 0.6274(4) 0.27738(15)
C12 C 0.5807(3) 0.7251(4) 0.30351(16)
C13 C 0.3692(15) 0.8723(14) 0.4921(5)
H5 H 0.4140 0.8838 0.5416
H6 H 0.3347 0.8502 0.4429
C14 C 0.3904(4) 0.7032(4) 0.64055(15)
C15 C 0.4818(4) 0.7828(4) 0.61773(16)
C16 C 0.5204(3) 0.6620(5) 0.24531(15)
H7 H 0.4949 0.5831 0.2797
C17 C 0.5839(3) 0.7575(4) 0.27023(16)
H8 H 0.5994 0.7486 0.3243
H9 H 0.3301 0.9021 0.4974
H10 H 0.3746 0.6566 0.6454
C18 C 0.3471(4) 0.7620(5) 0.64985(17)
C19 C 0.4476(4) 0.8417(5) 0.62847(18)
H11 H 0.5252 0.7882 0.6051
C20 C 0.5507(3) 0.7254(5) 0.23970(16)
H12 H 0.4989 0.6398 0.2249
H13 H 0.6081 0.8011 0.2675
C21 C 0.3747(4) 0.8313(6) 0.64455(19)
H14 H 0.3009 0.7552 0.6594
H15 H 0.4681 0.8872 0.6261
C22 C 0.5507(4) 0.7628(5) 0.20367(17)
C23 C 0.3372(4) 0.8929(5) 0.6590(2)
C24 C 0.6095(3) 0.7993(5) 0.19179(16)
C25 C 0.4887(3) 0.7609(4) 0.18201(16)
C26 C 0.3269(4) 0.9567(6) 0.63565(18)
H16 H 0.6516 0.7987 0.2059
C27 C 0.4857(3) 0.7933(5) 0.14913(16)
H17 H 0.4483 0.7364 0.1908
H18 H 0.3439 0.9569 0.6113
C28 C 0.4194(4) 0.7933(4) 0.12794(16)
C29 C 0.4218(3) 0.7876(5) 0.08956(17)
C30 C 0.3543(3) 0.7964(4) 0.14598(14)
C31 C 0.3586(3) 0.7907(4) 0.07003(16)
H19 H 0.4656 0.7818 0.0773
C32 C 0.2959(3) 0.7950(3) 0.12579(15)
H20 H 0.3519 0.7995 0.1718
C33 C 0.2967(3) 0.7929(3) 0.08806(13)
H21 H 0.3593 0.7912 0.0441
H22 H 0.2515 0.7954 0.1379
C34 C 0.2283(3) 0.8015(3) 0.06711(16)
O1F O 0.60501(16) 0.62725(15) 0.53518(7)
O2F O 0.69871(18) 0.73167(17) 0.53255(9)
O3F O 0.73387(17) 0.5955(2) 0.51260(9)
Al2F Al 0.62850(9) 0.59768(8) 0.58171(4)
H1F H 0.5566 0.6233 0.5288
C1F C 0.7373(4) 0.5464(3) 0.5374(2)
O4F O 0.56622(16) 0.52260(15) 0.58100(7)
O5F O 0.69293(18) 0.6715(2) 0.58592(9)
O6F O 0.7006(2) 0.5382(2) 0.56413(10)
O7F O 0.5595(2) 0.65904(18) 0.60161(8)
O8F O 0.6578(2) 0.5737(2) 0.62954(10)
C2F C 0.7881(19) 0.4816(17) 0.5255(9)
Al3F Al 0.5000 0.5000 0.61608(5)
H2F H 0.5685 0.4924 0.5604
C4F C 0.8181(12) 0.4769(17) 0.4914(6)
C5F C 0.8015(16) 0.4305(16) 0.5503(7)
O4B O 0.47740(15) 0.43378(16) 0.41900(7)
O9B O 0.5928(2) 0.46547(19) 0.38215(9)
O10B O 0.4790(2) 0.4388(2) 0.34613(9)
O4G O 0.43378(16) 0.47740(15) 0.58100(7)
O9F O 0.53453(19) 0.4072(2) 0.61785(9)
O9G O 0.46547(19) 0.5928(2) 0.61785(9)
O10F O 0.5612(2) 0.5210(2) 0.65387(9)
O10G O 0.4388(2) 0.4790(2) 0.65387(9)
C8F C 0.8626(12) 0.4180(16) 0.4818(5)
H3F H 0.8095 0.5130 0.4740
C9F C 0.8432(14) 0.3722(15) 0.5402(5)
H4F H 0.7829 0.4339 0.5744
Al2B Al 0.40232(8) 0.37150(9) 0.41829(4)
H2B H 0.5076 0.4315 0.4396
C3B C 0.4551(3) 0.3803(5) 0.34417(13)
Al2G Al 0.37150(9) 0.40232(8) 0.58171(4)
H2G H 0.4315 0.5076 0.5604
C6B C 0.5015(3) 0.3488(4) 0.61333(12)
C13F C 0.8723(14) 0.3692(15) 0.5079(5)
H5F H 0.8838 0.4140 0.4584
H6F H 0.8502 0.3347 0.5571
O1B O 0.37275(15) 0.39499(16) 0.46482(7)
O5B O 0.3285(2) 0.30707(18) 0.41408(9)
O6B O 0.4618(2) 0.2994(2) 0.43587(10)
O7B O 0.34096(18) 0.4405(2) 0.39839(8)
O8B O 0.4263(2) 0.3422(2) 0.37046(10)
C7B C 0.4485(3) 0.3397(4) 0.30770(14)
O1G O 0.39499(16) 0.37275(15) 0.53518(7)
O5G O 0.30707(18) 0.3285(2) 0.58592(9)
O6G O 0.2994(2) 0.4618(2) 0.56413(10)
O7G O 0.4405(2) 0.34096(18) 0.60161(8)
O8G O 0.3422(2) 0.4263(2) 0.62954(10)
C10B C 0.5429(4) 0.2855(4) 0.62412(14)
H9F H 0.9021 0.3301 0.5026
H1B H 0.3767 0.4434 0.4712
Al1B Al 0.33698(8) 0.33698(8) 0.5000
C1B C 0.4536(3) 0.2627(4) 0.4626(2)
C11B C 0.4821(3) 0.3726(4) 0.27738(15)
C12B C 0.4193(3) 0.2749(4) 0.30351(16)
H1G H 0.4434 0.3767 0.5288
C1G C 0.2627(4) 0.4536(3) 0.5374(2)
C14B C 0.6096(4) 0.2968(4) 0.64055(15)
C15B C 0.5182(4) 0.2172(4) 0.61773(16)
O2B O 0.26833(17) 0.30129(18) 0.46745(9)
O3B O 0.4045(2) 0.26613(17) 0.48740(9)
O2G O 0.30129(18) 0.26833(17) 0.53255(9)
O3G O 0.26613(17) 0.4045(2) 0.51260(9)
C2B C 0.5184(17) 0.2119(19) 0.4745(9)
C16B C 0.4796(3) 0.3380(5) 0.24531(15)
H7B H 0.5051 0.4169 0.2797
C17B C 0.4161(3) 0.2425(4) 0.27023(16)
H8B H 0.4006 0.2514 0.3243
C2G C 0.2119(19) 0.5184(17) 0.5255(9)
H10B H 0.6254 0.3434 0.6454
C18B C 0.6529(4) 0.2380(5) 0.64985(17)
C19B C 0.5524(4) 0.1583(5) 0.62847(18)
H11B H 0.4748 0.2118 0.6051
C4B C 0.5231(17) 0.1819(12) 0.5086(6)
C5B C 0.5695(16) 0.1985(16) 0.4497(7)
C20B C 0.4493(3) 0.2746(5) 0.23970(16)
H12B H 0.5011 0.3602 0.2249
H13B H 0.3919 0.1989 0.2675
C4G C 0.1819(12) 0.5231(17) 0.4914(6)
C5G C 0.1985(16) 0.5695(16) 0.5503(7)
C21B C 0.6253(4) 0.1687(6) 0.64455(19)
H14B H 0.6991 0.2448 0.6594
H15B H 0.5319 0.1128 0.6261
C24C C 0.2993(5) 0.8905(3) 0.69179(16)
C8B C 0.5820(16) 0.1374(12) 0.5182(5)
H3B H 0.4870 0.1905 0.5260
H4B H 0.5661 0.2171 0.4256
C9B C 0.6278(15) 0.1568(14) 0.4598(5)
C22B C 0.4493(4) 0.2372(5) 0.20367(17)
C23A C 0.6071(5) 0.8372(4) 0.1590(2)
C8G C 0.1374(12) 0.5820(16) 0.4818(5)
H3G H 0.1905 0.4870 0.4740
C9G C 0.1568(14) 0.6278(15) 0.5402(5)
H4G H 0.2171 0.5661 0.5744
C23B C 0.6628(4) 0.1071(5) 0.6590(2)
H16C H 0.2987 0.8484 0.7059
C22C C 0.2628(5) 0.9493(4) 0.70367(17)
C27C C 0.2933(5) 1.0143(3) 0.64913(16)
C13B C 0.6308(15) 0.1277(14) 0.4921(5)
H5B H 0.5860 0.1162 0.5416
H6B H 0.6653 0.1498 0.4429
C24B C 0.3905(3) 0.2007(5) 0.19179(16)
C25B C 0.5113(3) 0.2391(4) 0.18201(16)
C26A C 0.5433(6) 0.8269(4) 0.13565(18)
C21A C 0.6687(6) 0.8747(4) 0.14455(19)
C13G C 0.1277(14) 0.6308(15) 0.5079(5)
H5G H 0.1162 0.5860 0.4584
H6G H 0.1498 0.6653 0.5571
C24A C 0.7007(5) 0.1095(3) 0.69179(16)
C26B C 0.6731(4) 0.0433(6) 0.63565(18)
C25C C 0.2609(4) 1.0113(3) 0.68201(16)
C20C C 0.2254(5) 0.9493(3) 0.73970(16)
C28C C 0.2933(4) 1.0806(4) 0.62794(16)
H9B H 0.6699 0.0979 0.4974
H16B H 0.3484 0.2013 0.2059
C23C C 0.3929(5) 0.1628(4) 0.1590(2)
C27B C 0.5143(3) 0.2067(5) 0.14913(16)
H17B H 0.5517 0.2636 0.1908
H18A H 0.5431 0.8439 0.1113
C18A C 0.7380(5) 0.8471(4) 0.14985(17)
C19A C 0.6583(5) 0.9476(4) 0.12847(18)
H9G H 0.0979 0.6699 0.5026
H16A H 0.7013 0.1516 0.7059
C22A C 0.7372(5) 0.0507(4) 0.70367(17)
C27A C 0.7067(5) -0.0143(3) 0.64913(16)
H18B H 0.6561 0.0431 0.6113
H17C H 0.2364 1.0517 0.6908
C16C C 0.1620(5) 0.9796(3) 0.74531(15)
C17C C 0.2575(4) 0.9161(3) 0.77023(16)
C29C C 0.2876(5) 1.0782(3) 0.58956(17)
C30C C 0.2964(4) 1.1457(3) 0.64598(14)
C26C C 0.4567(6) 0.1731(4) 0.13565(18)
C21C C 0.3313(6) 0.1253(4) 0.14455(19)
C28B C 0.5806(4) 0.2067(4) 0.12794(16)
C14A C 0.7968(4) 0.8904(4) 0.14055(15)
H14A H 0.7448 0.8009 0.1594
C15A C 0.7172(4) 0.9818(4) 0.11773(16)
H15A H 0.6128 0.9681 0.1261
C25A C 0.7391(4) -0.0113(3) 0.68201(16)
C20A C 0.7746(5) 0.0507(3) 0.73970(16)
C28A C 0.7067(4) -0.0806(4) 0.62794(16)
C11C C 0.1274(4) 0.9821(3) 0.77738(15)
H12C H 0.1398 1.0011 0.7249
C12C C 0.2251(4) 0.9193(3) 0.80351(16)
H13C H 0.3011 0.8919 0.7675
C31C C 0.2907(4) 1.1414(3) 0.57003(16)
H19C H 0.2818 1.0344 0.5773
C32C C 0.2950(3) 1.2041(3) 0.62579(15)
H20C H 0.2995 1.1481 0.6718
H18C H 0.4569 0.1561 0.1113
C18C C 0.2620(5) 0.1529(4) 0.14985(17)
C19C C 0.3417(5) 0.0524(4) 0.12847(18)
C29B C 0.5782(3) 0.2124(5) 0.08956(17)
C30B C 0.6457(3) 0.2036(4) 0.14598(14)
C10A C 0.7855(4) 0.9571(4) 0.12412(14)
H10A H 0.8434 0.8746 0.1454
H11A H 0.7118 1.0252 0.1051
H17A H 0.7636 -0.0517 0.6908
C16A C 0.8380(5) 0.0204(3) 0.74531(15)
C17A C 0.7425(4) 0.0839(3) 0.77023(16)
C29A C 0.7124(5) -0.0782(3) 0.58956(17)
C30A C 0.7036(4) -0.1457(3) 0.64598(14)
C7C C 0.1603(4) 0.9485(3) 0.80770(14)
H7C H 0.0831 1.0051 0.7797
H8C H 0.2486 0.9006 0.8243
C33C C 0.2929(3) 1.2033(3) 0.58806(13)
H21C H 0.2912 1.1407 0.5441
H22C H 0.2954 1.2485 0.6379
C14C C 0.2032(4) 0.1096(4) 0.14055(15)
H14C H 0.2552 0.1991 0.1594
C15C C 0.2828(4) 0.0182(4) 0.11773(16)
H15C H 0.3872 0.0319 0.1261
C31B C 0.6414(3) 0.2093(4) 0.07003(16)
H19B H 0.5344 0.2182 0.0773
C32B C 0.7041(3) 0.2050(3) 0.12579(15)
H20B H 0.6481 0.2005 0.1718
C6A C 0.8488(4) 0.9985(3) 0.11333(12)
Al3D Al 1.0000 1.0000 0.11608(5)
C11A C 0.8726(4) 0.0179(3) 0.77738(15)
H12A H 0.8602 -0.0011 0.7249
C12A C 0.7749(4) 0.0807(3) 0.80351(16)
H13A H 0.6989 0.1081 0.7675
C31A C 0.7093(4) -0.1414(3) 0.57003(16)
H19A H 0.7182 -0.0344 0.5773
C32A C 0.7050(3) -0.2041(3) 0.62579(15)
H20A H 0.7005 -0.1481 0.6718
C3C C 0.1197(5) 0.9551(3) 0.84417(13)
C34C C 0.3015(3) 1.2717(3) 0.56711(16)
Al2G_2 Al 0.37150(9) 1.40232(8) 0.58171(4)
C10C C 0.2145(4) 0.0429(4) 0.12412(14)
H10C H 0.1566 0.1254 0.1454
H11C H 0.2882 -0.0252 0.1051
C33B C 0.7033(3) 0.2071(3) 0.08806(13)
H21B H 0.6407 0.2088 0.0441
H22B H 0.7485 0.2046 0.1379
O9D O 0.9072(2) 0.96547(19) 0.11785(9)
O7E O 0.84096(18) 1.0595(2) 0.10161(8)
O2D O 0.23167(17) 0.80129(18) 0.03255(9)
O5D O 0.1715(2) 0.80707(18) 0.08592(9)
C7A C 0.8397(4) 0.0515(3) 0.80770(14)
H7A H 0.9169 -0.0051 0.7797
H8A H 0.7514 0.0994 0.8243
C33A C 0.7071(3) -0.2033(3) 0.58806(13)
H21A H 0.7088 -0.1407 0.5441
H22A H 0.7046 -0.2485 0.6379
O10C O 0.0612(2) 0.9790(2) 0.84613(9)
O8C O 0.1578(2) 0.9263(2) 0.87046(10)
O2G_2 O 0.30129(18) 1.26833(17) 0.53255(9)
O5G_2 O 0.30707(18) 1.3285(2) 0.58592(9)
C6C C 0.1512(4) 0.0015(3) 0.11333(12)
C34B C 0.7717(3) 0.1985(3) 0.06711(16)
Al2E Al 0.90232(8) 0.12850(9) 0.08171(4)
Al2E_2 Al 0.90232(8) 1.12850(9) 0.08171(4)
Al1C Al 0.16302(8) 0.83698(8) 0.0000
Al2D Al 0.09768(8) 0.87150(9) 0.08171(4)
C3A C 0.8803(5) 0.0449(3) 0.84417(13)
C34A C 0.6985(3) -0.2717(3) 0.56711(16)
Al3A Al 0.0000 1.0000 0.88392(5)
Al2C Al 0.12850(9) 0.90232(8) 0.91829(4)
Al1B_2 Al 0.33698(8) 1.33698(8) 0.5000
Al2A Al 0.87150(9) 0.09768(8) 0.91829(4)
O9E O 0.0928(2) 0.03453(19) 0.11785(9)
O7D O 0.15904(18) -0.0595(2) 0.10161(8)
O2E O 0.76833(17) 0.19871(18) 0.03255(9)
O5E O 0.8285(2) 0.19293(18) 0.08592(9)
O10A O 0.9388(2) 0.0210(2) 0.84613(9)
O8A O 0.8422(2) 0.0737(2) 0.87046(10)
O2F_2 O 0.69871(18) -0.26833(17) 0.53255(9)
O5F_2 O 0.69293(18) -0.3285(2) 0.58592(9)
Al3D_2 Al 0.0000 0.0000 0.11608(5)
Al2D_2 Al 0.09768(8) -0.12850(9) 0.08171(4)
Al1A Al 0.83698(8) 0.16302(8) 0.0000
Al3A_2 Al 1.0000 0.0000 0.88392(5)
Al1_2 Al 0.66302(8) -0.33698(8) 0.5000
Al2F_2 Al 0.62850(9) -0.40232(8) 0.58171(4)
loop_
_geom_bond_atom_site_label_1
_geom_bond_atom_site_label_2
_geom_bond_site_symmetry_1
_geom_bond_site_symmetry_2
Al1 O1 1_555 1_555
O1 Al2 1_555 1_555
O2 Al1 1_555 1_555
O3 Al1 1_555 1_555
Al2 O4 1_555 1_555
H1 O1 1_555 1_555
C1 O3 1_555 1_555
O4 Al3 1_555 1_555
O5 Al2 1_555 1_555
O6 Al2 1_555 1_555
O7 Al2 1_555 1_555
O8 Al2 1_555 1_555
C2 C1 1_555 1_555
Al3 O9 1_555 1_555
H2 O4 1_555 1_555
C3 O8 1_555 1_555
C4 C2 1_555 1_555
C5 C2 1_555 1_555
C6 C10 1_555 1_555
O10 Al3 1_555 1_555
C7 C3 1_555 1_555
C8 C4 1_555 1_555
H3 C4 1_555 1_555
H4 C5 1_555 1_555
C9 C5 1_555 1_555
C10 C14 1_555 1_555
C11 C7 1_555 1_555
C12 C7 1_555 1_555
C13 C8 1_555 1_555
H5 C8 1_555 1_555
H6 C9 1_555 1_555
C14 H10 1_555 1_555
C15 C10 1_555 1_555
C16 C11 1_555 1_555
H7 C11 1_555 1_555
C17 C12 1_555 1_555
H8 C12 1_555 1_555
H9 C13 1_555 1_555
C18 C14 1_555 1_555
C19 C15 1_555 1_555
H11 C15 1_555 1_555
C20 C16 1_555 1_555
H12 C16 1_555 1_555
H13 C17 1_555 1_555
C21 C18 1_555 1_555
H14 C18 1_555 1_555
H15 C19 1_555 1_555
C22 C20 1_555 1_555
C23 C21 1_555 1_555
C24 C22 1_555 1_555
C25 C22 1_555 1_555
C26 C23 1_555 1_555
H16 C24 1_555 1_555
C27 C25 1_555 1_555
H17 C25 1_555 1_555
H18 C26 1_555 1_555
C28 C27 1_555 1_555
C29 C28 1_555 1_555
C30 C28 1_555 1_555
C31 C29 1_555 1_555
H19 C29 1_555 1_555
C32 C30 1_555 1_555
H20 C30 1_555 1_555
C33 C31 1_555 1_555
H21 C31 1_555 1_555
H22 C32 1_555 1_555
C34 C33 1_555 1_555
O1F Al1 1_555 1_555
O2F Al1 1_555 1_555
O3F Al1 1_555 1_555
Al2F O1F 1_555 1_555
H1F O1F 1_555 1_555
C1F O3F 1_555 1_555
O4F Al2F 1_555 1_555
O5F Al2F 1_555 1_555
O6F Al2F 1_555 1_555
O7F C6 1_555 1_555
O8F Al2F 1_555 1_555
C2F C1F 1_555 1_555
Al3F O4F 1_555 1_555
H2F O4F 1_555 1_555
C4F C2F 1_555 1_555
C5F C2F 1_555 1_555
O4B Al3 1_555 1_555
O9B Al3 1_555 1_555
O10B Al3 1_555 1_555
O4G Al3F 1_555 1_555
O9F Al3F 1_555 1_555
O9G C6 1_555 1_555
O10F Al3F 1_555 1_555
O10G Al3F 1_555 1_555
C8F C4F 1_555 1_555
H3F C4F 1_555 1_555
C9F C5F 1_555 1_555
H4F C5F 1_555 1_555
Al2B O4B 1_555 1_555
H2B O4B 1_555 1_555
C3B O10B 1_555 1_555
Al2G O4G 1_555 1_555
H2G O4G 1_555 1_555
C6B O9F 1_555 1_555
C13F C8F 1_555 1_555
H5F C8F 1_555 1_555
H6F C9F 1_555 1_555
O1B Al2B 1_555 1_555
O5B Al2B 1_555 1_555
O6B Al2B 1_555 1_555
O7B Al2B 1_555 1_555
O8B Al2B 1_555 1_555
C7B C3B 1_555 1_555
O1G Al2G 1_555 1_555
O5G Al2G 1_555 1_555
O6G Al2G 1_555 1_555
O7G Al2G 1_555 1_555
O8G Al2G 1_555 1_555
C10B C6B 1_555 1_555
H9F C13F 1_555 1_555
H1B O1B 1_555 1_555
Al1B O1B 1_555 1_555
C1B O6B 1_555 1_555
C11B C7B 1_555 1_555
C12B C7B 1_555 1_555
H1G O1G 1_555 1_555
C1G O6G 1_555 1_555
C14B C10B 1_555 1_555
C15B C10B 1_555 1_555
O2B Al1B 1_555 1_555
O3B Al1B 1_555 1_555
O2G Al1B 1_555 1_555
O3G Al1B 1_555 1_555
C2B C1B 1_555 1_555
C16B C11B 1_555 1_555
H7B C11B 1_555 1_555
C17B C12B 1_555 1_555
H8B C12B 1_555 1_555
C2G C1G 1_555 1_555
H10B C14B 1_555 1_555
C18B C14B 1_555 1_555
C19B C15B 1_555 1_555
H11B C15B 1_555 1_555
C4B C2B 1_555 1_555
C5B C2B 1_555 1_555
C20B C16B 1_555 1_555
H12B C16B 1_555 1_555
H13B C17B 1_555 1_555
C4G C2G 1_555 1_555
C5G C2G 1_555 1_555
C21B C18B 1_555 1_555
H14B C18B 1_555 1_555
H15B C19B 1_555 1_555
C24C C23 1_555 1_555
C8B C4B 1_555 1_555
H3B C4B 1_555 1_555
H4B C5B 1_555 1_555
C9B C5B 1_555 1_555
C22B C20B 1_555 1_555
C23A C24 1_555 1_555
C8G C4G 1_555 1_555
H3G C4G 1_555 1_555
C9G C5G 1_555 1_555
H4G C5G 1_555 1_555
C23B C21B 1_555 1_555
H16C C24C 1_555 1_555
C22C C24C 1_555 1_555
C27C C26 1_555 1_555
C13B C8B 1_555 1_555
H5B C8B 1_555 1_555
H6B C9B 1_555 1_555
C24B C22B 1_555 1_555
C25B C22B 1_555 1_555
C26A C27 1_555 1_555
C21A C23A 1_555 1_555
C13G C8G 1_555 1_555
H5G C8G 1_555 1_555
H6G C9G 1_555 1_555
C24A C23B 1_555 1_555
C26B C23B 1_555 1_555
C25C C22C 1_555 1_555
C20C C22C 1_555 1_555
C28C C27C 1_555 1_555
H9B C13B 1_555 1_555
H16B C24B 1_555 1_555
C23C C24B 1_555 1_555
C27B C25B 1_555 1_555
H17B C25B 1_555 1_555
H18A C26A 1_555 1_555
C18A C21A 1_555 1_555
C19A C21A 1_555 1_555
H9G C13G 1_555 1_555
H16A C24A 1_555 1_555
C22A C24A 1_555 1_555
C27A C26B 1_555 1_555
H18B C26B 1_555 1_555
H17C C25C 1_555 1_555
C16C C20C 1_555 1_555
C17C C20C 1_555 1_555
C29C C28C 1_555 1_555
C30C C28C 1_555 1_555
C26C C23C 1_555 1_555
C21C C23C 1_555 1_555
C28B C27B 1_555 1_555
C14A C18A 1_555 1_555
H14A C18A 1_555 1_555
C15A C19A 1_555 1_555
H15A C19A 1_555 1_555
C25A C22A 1_555 1_555
C20A C22A 1_555 1_555
C28A C27A 1_555 1_555
C11C C16C 1_555 1_555
H12C C16C 1_555 1_555
C12C C17C 1_555 1_555
H13C C17C 1_555 1_555
C31C C29C 1_555 1_555
H19C C29C 1_555 1_555
C32C C30C 1_555 1_555
H20C C30C 1_555 1_555
H18C C26C 1_555 1_555
C18C C21C 1_555 1_555
C19C C21C 1_555 1_555
C29B C28B 1_555 1_555
C30B C28B 1_555 1_555
C10A C14A 1_555 1_555
H10A C14A 1_555 1_555
H11A C15A 1_555 1_555
H17A C25A 1_555 1_555
C16A C20A 1_555 1_555
C17A C20A 1_555 1_555
C29A C28A 1_555 1_555
C30A C28A 1_555 1_555
C7C C11C 1_555 1_555
H7C C11C 1_555 1_555
H8C C12C 1_555 1_555
C33C C31C 1_555 1_555
H21C C31C 1_555 1_555
H22C C32C 1_555 1_555
C14C C18C 1_555 1_555
H14C C18C 1_555 1_555
C15C C19C 1_555 1_555
H15C C19C 1_555 1_555
C31B C29B 1_555 1_555
H19B C29B 1_555 1_555
C32B C30B 1_555 1_555
H20B C30B 1_555 1_555
C6A C10A 1_555 1_555
Al3D O9D 1_555 1_555
C11A C16A 1_555 1_555
H12A C16A 1_555 1_555
C12A C17A 1_555 1_555
H13A C17A 1_555 1_555
C31A C29A 1_555 1_555
H19A C29A 1_555 1_555
C32A C30A 1_555 1_555
H20A C30A 1_555 1_555
C3C C7C 1_555 1_555
C34C C33C 1_555 1_555
Al2G_2 O5G_2 1_555 1_555
C10C C14C 1_555 1_555
H10C C14C 1_555 1_555
H11C C15C 1_555 1_555
C33B C31B 1_555 1_555
H21B C31B 1_555 1_555
H22B C32B 1_555 1_555
O9D C6A 1_555 1_555
O7E C6A 1_555 1_555
O2D C34 1_555 1_555
O5D C34 1_555 1_555
C7A C11A 1_555 1_555
H7A C11A 1_555 1_555
H8A C12A 1_555 1_555
C33A C31A 1_555 1_555
H21A C31A 1_555 1_555
H22A C32A 1_555 1_555
O10C C3C 1_555 1_555
O8C C3C 1_555 1_555
O2G_2 C34C 1_555 1_555
O5G_2 C34C 1_555 1_555
C6C C10C 1_555 1_555
C34B C33B 1_555 1_555
Al2E O5E 1_555 1_555
Al2E_2 O7E 1_555 1_555
Al1C O2D 1_555 1_555
Al2D O5D 1_555 1_555
C3A C7A 1_555 1_555
C34A C33A 1_555 1_555
Al3A O10C 1_555 1_555
Al2C O8C 1_555 1_555
Al1B_2 O2G_2 1_555 1_555
Al2A O8A 1_555 1_555
O9E C6C 1_555 1_555
O7D C6C 1_555 1_555
O2E C34B 1_555 1_555
O5E C34B 1_555 1_555
O10A C3A 1_555 1_555
O8A C3A 1_555 1_555
O2F_2 C34A 1_555 1_555
O5F_2 C34A 1_555 1_555
Al3D_2 O9E 1_555 1_555
Al2D_2 O7D 1_555 1_555
Al1A O2E 1_555 1_555
Al3A_2 O10A 1_555 1_555
Al1_2 O2F_2 1_555 1_555
Al2F_2 O5F_2 1_555 1_555
C1 O6 1_555 1_555
C3 O10 1_555 1_555
C9 C13 1_555 1_555
C17 C20 1_555 1_555
C19 C21 1_555 1_555
C32 C33 1_555 1_555
Al2F O7F 1_555 1_555
C1F O6F 1_555 1_555
Al3F O9G 1_555 1_555
C9F C13F 1_555 1_555
C3B O8B 1_555 1_555
C6B O7G 1_555 1_555
O1G Al1B 1_555 1_555
C1B O3B 1_555 1_555
C1G O3G 1_555 1_555
C17B C20B 1_555 1_555
C19B C21B 1_555 1_555
C9B C13B 1_555 1_555
C23A C26A 1_555 1_555
C9G C13G 1_555 1_555
C27C C25C 1_555 1_555
C27B C26C 1_555 1_555
C27A C25A 1_555 1_555
C15A C10A 1_555 1_555
C12C C7C 1_555 1_555
C32C C33C 1_555 1_555
C15C C10C 1_555 1_555
C32B C33B 1_555 1_555
C12A C7A 1_555 1_555
C32A C33A 1_555 1_555

#END
