
#######################################################################
#
#                 Cambridge Crystallographic Data Centre
#                                CCDC 
#
#######################################################################
#
# If this CIF has been generated from an entry in the Cambridge 
# Structural Database, then it will include bibliographic, chemical, 
# crystal, experimental, refinement or atomic coordinate data resulting 
# from the CCDC's data processing and validation procedures.
#
#######################################################################

data_OTEBOG
_chemical_formula_moiety         'C136 H88 Al22 Cl4 N2 O54'
_symmetry_cell_setting           tetragonal
_symmetry_space_group_name_H-M   'P 41 21 2'
_symmetry_Int_Tables_number      92
_space_group_name_Hall           'P 4abw 2nw'
loop_
_symmetry_equiv_pos_site_id
_symmetry_equiv_pos_as_xyz
1 x,y,z
2 1/2-y,1/2+x,1/4+z
3 -x,-y,1/2+z
4 1/2+y,1/2-x,3/4+z
5 1/2+x,1/2-y,3/4-z
6 1/2-x,1/2+y,1/4-z
7 y,x,-z
8 -y,-x,1/2-z
_cell_length_a                   19.0123(9)
_cell_length_b                   19.0123(9)
_cell_length_c                   71.393(4)
_cell_angle_alpha                90
_cell_angle_beta                 90
_cell_angle_gamma                90
_cell_volume                     25806.3
loop_
_atom_site_label
_atom_site_type_symbol
_atom_site_fract_x
_atom_site_fract_y
_atom_site_fract_z
Al1 Al 0.49254(6) 0.47173(6) 0.05394(2)
Al2 Al 0.39180(6) 0.60045(6) 0.03884(2)
O1 O 0.47067(13) 0.54707(12) 0.03851(3)
H1 H 0.5049 0.5591 0.0294
O2 O 0.40596(14) 0.62081(15) 0.06451(3)
O3 O 0.45709(14) 0.52249(14) 0.07533(3)
C1 C 0.4315(2) 0.5818(2) 0.07762(6)
O4 O 0.44214(14) 0.68607(14) 0.03433(4)
O5 O 0.31082(15) 0.65706(14) 0.04159(3)
C2 C 0.4257(2) 0.7357(2) 0.02392(6)
O6 O 0.37377(15) 0.73327(13) 0.01201(3)
C3 C 0.3991(2) 0.7076(3) 0.11770(6)
H2 H 0.3786 0.7526 0.1196
C4 C 0.4321(2) 0.6718(2) 0.13275(6)
C5 C 0.4639(2) 0.6099(2) 0.12942(6)
H3 H 0.4870 0.5868 0.1395
O7 O 0.37287(12) 0.58913(12) 0.01378(3)
Al3 Al 0.33015(6) 0.65644(6) -0.00116(2)
O8 O 0.24996(14) 0.65717(14) 0.01493(3)
C6 C 0.1891(2) 0.6561(2) 0.04369(5)
C7 C 0.2520(2) 0.6577(2) 0.03205(5)
C8 C -0.0562(3) 0.6267(4) 0.07355(7)
H4 H -0.0609 0.6076 0.0613
C9 C 0.0680(3) 0.6565(3) 0.06644(6)
C10 C 0.1225(2) 0.6611(3) 0.03581(7)
H5 H 0.1183 0.6632 0.0226
C11 C 0.1372(2) 0.6469(3) 0.07425(6)
H6 H 0.1422 0.6386 0.0873
C12 C 0.0609(3) 0.6632(3) 0.04678(7)
H7 H 0.0160 0.6690 0.0412
C13 C 0.0063(2) 0.6566(3) 0.07906(7)
C14 C 0.1949(3) 0.6497(3) 0.06333(6)
H8 H 0.2402 0.6473 0.0689
C15 C 0.4313(2) 0.6142(2) 0.09680(5)
C16 C 0.3969(3) 0.6769(3) 0.10033(6)
H9 H 0.3713 0.6990 0.0905
C17 C 0.4643(2) 0.5781(2) 0.11177(5)
H10 H 0.4859 0.5337 0.1099
C18 C -0.1776(2) 0.5885(3) 0.08026(7)
C19 C -0.1073(2) 0.6590(3) 0.10312(7)
H11 H -0.1471 0.6607 0.1112
C20 C 0.4348(2) 0.7064(3) 0.15185(6)
C21 C -0.0459(2) 0.6907(3) 0.10865(7)
C22 C 0.0112(2) 0.6922(3) 0.09608(6)
H12 H 0.0527 0.7174 0.0992
C23 C -0.1129(2) 0.6244(3) 0.08602(6)
C24 C -0.2979(2) 0.5186(2) 0.06811(5)
C25 C -0.3048(2) 0.5828(3) 0.07664(6)
H13 H -0.3493 0.6052 0.0777
C26 C -0.2334(2) 0.4898(3) 0.06553(6)
H14 H -0.2307 0.4453 0.0595
C27 C -0.2423(2) 0.6150(3) 0.08391(6)
H15 H -0.2464 0.6558 0.0915
C28 C -0.1735(2) 0.5203(3) 0.07090(6)
H16 H -0.1294 0.4983 0.0687
C29 C -0.0387(3) 0.7266(3) 0.12681(7)
C30 C -0.0042(3) 0.7897(3) 0.12877(6)
H17 H 0.0164 0.8113 0.1181
C31 C 0.0009(2) 0.8212(3) 0.14540(6)
H18 H 0.0287 0.8626 0.1464
C32 C -0.3606(2) 0.4796(2) 0.06112(5)
C33 C 0.5044(2) 0.7377(3) 0.17905(5)
C34 C 0.3812(2) 0.7477(2) 0.15804(6)
H19 H 0.3402 0.7537 0.1506
C35 C 0.4968(2) 0.7026(2) 0.16180(5)
H20 H 0.5349 0.6759 0.1570
C36 C 0.4463(2) 0.7793(2) 0.18542(6)
H21 H 0.4497 0.8055 0.1967
C37 C 0.3864(2) 0.7808(3) 0.17520(6)
C38 C 0.3256(2) 0.8285(3) 0.18197(6)
C39 C 0.5737(2) 0.7418(2) 0.18943(5)
O9 O -0.35256(12) 0.41722(16) 0.05621(3)
O10 O -0.41856(13) 0.51228(14) 0.06046(3)
C40 C -0.0322(2) 0.7964(3) 0.16122(5)
C41 C -0.0662(3) 0.7337(3) 0.15974(6)
H22 H -0.0852 0.7133 0.1708
C42 C -0.0316(2) 0.8367(3) 0.17863(6)
C43 C -0.0745(3) 0.6981(3) 0.14295(6)
H23 H -0.1025 0.6569 0.1421
O11 O -0.00956(14) 0.89899(15) 0.17794(3)
O12 O -0.05802(14) 0.80810(13) 0.19346(3)
C44 C 0.2163(2) 0.9133(2) 0.19400(5)
C45 C 0.6993(2) 0.7534(2) 0.18814(6)
H24 H 0.7416 0.7569 0.1811
C46 C 0.6389(2) 0.7464(2) 0.21820(6)
H25 H 0.6398 0.7421 0.2315
C47 C 0.3399(2) 0.8954(2) 0.18864(6)
H26 H 0.3874 0.9108 0.1893
C48 C 0.2030(2) 0.8477(3) 0.18691(6)
H27 H 0.1563 0.8303 0.1865
C49 C 0.6343(2) 0.7435(3) 0.17938(6)
H28 H 0.6325 0.7379 0.1662
C50 C 0.2578(2) 0.8072(3) 0.18036(6)
H29 H 0.2478 0.7633 0.1746
C51 C 0.2866(2) 0.9408(3) 0.19438(6)
H30 H 0.2963 0.9875 0.1983
C52 C 0.5762(2) 0.7411(3) 0.20825(6)
H31 H 0.5334 0.7368 0.2150
C53 C 0.6995(2) 0.7579(2) 0.20825(6)
C54 C 0.1568(2) 0.9609(2) 0.19940(5)
O13 O 0.09630(13) 0.93054(13) 0.19920(3)
O14 O 0.16808(13) 1.02172(15) 0.20406(3)
C55 C 0.7671(2) 0.7812(2) 0.21709(6)
O15 O 0.77058(13) 0.78108(14) 0.23489(3)
O16 O 0.81497(14) 0.79785(14) 0.20623(3)
O17 O 0.29847(13) 0.58651(13) -0.01781(3)
H32 H 0.2628 0.5519 -0.0164
O18 O 0.40123(14) 0.65958(13) -0.01894(3)
H33 H 0.4460 0.6817 -0.0186
Al4 Al 0.35812(6) 0.60588(6) -0.03773(2)
O19 O 0.52966(12) 0.41772(13) 0.03513(3)
H34 H 0.5081 0.4205 0.0231
C56 C 0.3296(10) 0.9142(9) 0.0567(2)
H35 H 0.2855 0.9373 0.0557
C57 C 0.3563(8) 0.8789(8) 0.0418(2)
C58 C 0.4217(7) 0.8425(6) 0.04366(16)
C59 C 0.4562(7) 0.8438(7) 0.06154(17)
H36 H 0.4996 0.8197 0.0632
C60 C 0.4262(9) 0.8804(8) 0.07654(19)
H37 H 0.4472 0.8797 0.0886
C61 C 0.3668(11) 0.9165(11) 0.0734(3)
H38 H 0.3491 0.9454 0.0831
N1 N 0.3242(5) 0.8786(5) 0.02274(13)
H39 H 0.3382 0.8480 0.0143
Cl1 Cl 0.1790(2) 0.8230(2) 0.01964(5)
Cl2 Cl 0.3736(3) 1.0292(3) 0.01954(9)
H40 H 0.5044 0.8015 0.0327
H41 H 0.4525 0.8377 0.0180
C62 C 0.2903(9) 0.9990(10) 0.0136(2)
C63 C 0.2426(11) 1.0509(10) 0.0087(2)
H42 H 0.2565 1.0983 0.0066
C64 C 0.1756(9) 1.0300(9) 0.0071(2)
H43 H 0.1424 1.0653 0.0038
C65 C 0.1482(9) 0.9602(9) 0.0098(2)
H44 H 0.1005 0.9486 0.0073
C66 C 0.2000(8) 0.9073(8) 0.01672(17)
C67 C 0.2702(9) 0.9286(10) 0.0184(2)
C68 C 0.4656(9) 0.8059(9) 0.0240(2)
Al1_2 Al -0.50746(6) 0.47173(6) 0.05394(2)
Al1E Al 0.00746(6) 0.97173(6) 0.19606(2)
Al2E Al 0.10820(6) 1.10045(6) 0.21116(2)
Al3A Al 0.84356(6) 0.83015(6) 0.24884(2)
O9F O 0.41722(16) 0.64744(12) -0.05621(3)
O10_2 O 0.58144(13) 0.51228(14) 0.06046(3)
O11E O 0.50956(14) 0.39899(15) 0.07206(3)
O12C O 0.30810(13) 0.55802(14) -0.05654(3)
O13E O 0.40370(13) 0.43054(13) 0.05080(3)
O14E O 0.33192(13) 0.52172(15) 0.04594(3)
O15C O 0.28108(14) 0.72942(13) -0.01511(3)
O16C O 0.29785(14) 0.68503(14) -0.04377(3)
Al4A Al -0.10588(6) 0.85812(6) 0.21227(2)
Al4A_2 Al 0.89412(6) 0.85812(6) 0.21227(2)
Al4F Al -0.39412(6) 0.35812(6) 0.03773(2)
Al4F_2 Al 0.60588(6) 0.35812(6) 0.03773(2)
O19F O 0.41772(13) 0.52966(12) -0.03513(3)
Al1F Al 0.47173(6) 0.49254(6) -0.05394(2)
O1F O 0.54707(12) 0.47067(13) -0.03851(3)
O3F O 0.52249(14) 0.45709(14) -0.07533(3)
O10F O 0.51228(14) 0.58144(13) -0.06046(3)
O11C O 0.39899(15) 0.50956(14) -0.07206(3)
O13C O 0.43054(13) 0.40370(13) -0.05080(3)
Al2F Al 0.60045(6) 0.39180(6) -0.03884(2)
O2F O 0.62081(15) 0.40596(14) -0.06451(3)
O4F O 0.68607(14) 0.44214(14) -0.03433(4)
O5F O 0.65706(14) 0.31082(15) -0.04159(3)
O7F O 0.58913(12) 0.37287(12) -0.01378(3)
O14C O 0.52172(15) 0.33192(13) -0.04594(3)
H1F H 0.5591 0.5049 -0.0294
C1F C 0.5818(2) 0.4315(2) -0.07762(6)
C15F C 0.6142(2) 0.4313(2) -0.09680(5)
C2F C 0.7357(2) 0.4257(2) -0.02392(6)
C7F C 0.6577(2) 0.2520(2) -0.03205(5)
O6F O 0.73327(13) 0.37377(15) -0.01201(3)
C68F C 0.8059(9) 0.4656(9) -0.0240(2)
Al3F Al 0.65644(6) 0.33015(6) 0.00116(2)
C3F C 0.7076(3) 0.3991(2) -0.11770(6)
H2F H 0.7526 0.3786 -0.1196
C4F C 0.6718(2) 0.4321(2) -0.13275(6)
C16F C 0.6769(3) 0.3969(3) -0.10033(6)
C5F C 0.6099(2) 0.4639(2) -0.12942(6)
C20F C 0.7064(3) 0.4348(2) -0.15185(6)
H3F H 0.5868 0.4870 -0.1395
C17F C 0.5781(2) 0.4643(2) -0.11177(5)
O8F O 0.65717(14) 0.24996(14) -0.01493(3)
O17F O 0.58651(13) 0.29847(13) 0.01781(3)
O18F O 0.65958(13) 0.40123(14) 0.01894(3)
O15E O 0.72942(13) 0.28108(14) 0.01511(3)
C6F C 0.6561(2) 0.1891(2) -0.04369(5)
C10F C 0.6611(3) 0.1225(2) -0.03581(7)
C14F C 0.6497(3) 0.1949(3) -0.06333(6)
C8F C 0.6267(4) -0.0562(3) -0.07355(7)
H4F H 0.6076 -0.0609 -0.0613
C13F C 0.6566(3) 0.0063(2) -0.07906(7)
C23F C 0.6244(3) -0.1129(2) -0.08602(6)
C9F C 0.6565(3) 0.0680(3) -0.06644(6)
C11F C 0.6469(3) 0.1372(2) -0.07425(6)
C12F C 0.6632(3) 0.0609(3) -0.04678(7)
H5F H 0.6632 0.1183 -0.0226
H6F H 0.6386 0.1422 -0.0873
H7F H 0.6690 0.0160 -0.0412
C22F C 0.6922(3) 0.0112(2) -0.09608(6)
H8F H 0.6473 0.2402 -0.0689
H9F H 0.6990 0.3713 -0.0905
H10F H 0.5337 0.4859 -0.1099
C18F C 0.5885(3) -0.1776(2) -0.08026(7)
C27F C 0.6150(3) -0.2423(2) -0.08391(6)
C28F C 0.5203(3) -0.1735(2) -0.07090(6)
C19F C 0.6590(3) -0.1073(2) -0.10312(7)
H11F H 0.6607 -0.1471 -0.1112
C21F C 0.6907(3) -0.0459(2) -0.10865(7)
C34F C 0.7477(2) 0.3812(2) -0.15804(6)
C35F C 0.7026(2) 0.4968(2) -0.16180(5)
C29F C 0.7266(3) -0.0387(3) -0.12681(7)
H12F H 0.7174 0.0527 -0.0992
C24F C 0.5186(2) -0.2979(2) -0.06811(5)
C25F C 0.5828(3) -0.3048(2) -0.07664(6)
C26F C 0.4898(3) -0.2334(2) -0.06553(6)
C32F C 0.4796(2) -0.3606(2) -0.06112(5)
H13F H 0.6052 -0.3493 -0.0777
H14F H 0.4453 -0.2307 -0.0595
H15F H 0.6558 -0.2464 -0.0915
H16F H 0.4983 -0.1294 -0.0687
C30F C 0.7897(3) -0.0042(3) -0.12877(6)
C43F C 0.6981(3) -0.0745(3) -0.14295(6)
H17F H 0.8113 0.0164 -0.1181
C31F C 0.8212(3) 0.0009(2) -0.14540(6)
H18F H 0.8626 0.0287 -0.1464
C40F C 0.7964(3) -0.0322(2) -0.16122(5)
O9F_2 O 0.41722(16) -0.35256(12) -0.05621(3)
O10F_2 O 0.51228(14) -0.41856(13) -0.06046(3)
C33F C 0.7377(3) 0.5044(2) -0.17905(5)
C36F C 0.7793(2) 0.4463(2) -0.18542(6)
C39F C 0.7418(2) 0.5737(2) -0.18943(5)
H19F H 0.7537 0.3402 -0.1506
C37F C 0.7808(3) 0.3864(2) -0.17520(6)
H20F H 0.6759 0.5349 -0.1570
H21F H 0.8055 0.4497 -0.1967
C38F C 0.8285(3) 0.3256(2) -0.18197(6)
C47F C 0.8954(2) 0.3399(2) -0.18864(6)
C50F C 0.8072(3) 0.2578(2) -0.18036(6)
C49F C 0.7435(3) 0.6343(2) -0.17938(6)
C52F C 0.7411(3) 0.5762(2) -0.20825(6)
Al4_2 Al 0.35812(6) -0.39412(6) -0.03773(2)
Al1F_2 Al 0.47173(6) -0.50746(6) -0.05394(2)
C41F C 0.7337(3) -0.0662(3) -0.15974(6)
C42F C 0.8367(3) -0.0316(2) -0.17863(6)
H22F H 0.7133 -0.0852 -0.1708
O11F O 0.89899(15) -0.00956(14) -0.17794(3)
O12F O 0.80810(13) -0.05802(14) -0.19346(3)
H23F H 0.6569 -0.1025 -0.1421
Al1C Al 0.97173(6) 0.00746(6) -0.19606(2)
Al4D Al 0.85812(6) -0.10588(6) -0.21227(2)
C44F C 0.9133(2) 0.2163(2) -0.19400(5)
C48F C 0.8477(3) 0.2030(2) -0.18691(6)
C51F C 0.9408(3) 0.2866(2) -0.19438(6)
C54F C 0.9609(2) 0.1568(2) -0.19940(5)
C45F C 0.7534(2) 0.6993(2) -0.18814(6)
H24F H 0.7569 0.7416 -0.1811
C53F C 0.7579(2) 0.6995(2) -0.20825(6)
C46F C 0.7464(2) 0.6389(2) -0.21820(6)
H25F H 0.7421 0.6398 -0.2315
H26F H 0.9108 0.3874 -0.1893
H27F H 0.8303 0.1563 -0.1865
H28F H 0.7379 0.6325 -0.1662
H29F H 0.7633 0.2478 -0.1746
H30F H 0.9875 0.2963 -0.1983
H31F H 0.7368 0.5334 -0.2150
C55F C 0.7812(2) 0.7671(2) -0.21709(6)
O13F O 0.93054(13) 0.09630(13) -0.19920(3)
O14F O 1.02172(15) 0.16808(13) -0.20406(3)
Al2C Al 1.10045(6) 0.10820(6) -0.21116(2)
O15F O 0.78108(14) 0.77058(13) -0.23489(3)
O16F O 0.79785(14) 0.81497(14) -0.20623(3)
Al3D Al 0.83015(6) 0.84356(6) -0.24884(2)
Al4D_2 Al 0.85812(6) 0.89412(6) -0.21227(2)
H32F H 0.5519 0.2628 0.0164
H33F H 0.6817 0.4460 0.0186
O9_2 O 0.64744(12) 0.41722(16) 0.05621(3)
O12E O 0.55802(14) 0.30810(13) 0.05654(3)
O16E O 0.68503(14) 0.29785(14) 0.04377(3)
H34F H 0.4205 0.5081 -0.0231
C56F C 0.9142(9) 0.3296(10) -0.0567(2)
H35F H 0.9373 0.2855 -0.0557
C57F C 0.8789(8) 0.3563(8) -0.0418(2)
C61F C 0.9165(11) 0.3668(11) -0.0734(3)
C58F C 0.8425(6) 0.4217(7) -0.04366(16)
N1F N 0.8786(5) 0.3242(5) -0.02274(13)
C59F C 0.8438(7) 0.4562(7) -0.06154(17)
H36F H 0.8197 0.4996 -0.0632
C60F C 0.8804(8) 0.4262(9) -0.07654(19)
H37F H 0.8797 0.4472 -0.0886
H38F H 0.9454 0.3491 -0.0831
H39F H 0.8480 0.3382 -0.0143
C67F C 0.9286(10) 0.2702(9) -0.0184(2)
Cl1F Cl 0.8230(2) 0.1790(2) -0.01964(5)
C66F C 0.9073(8) 0.2000(8) -0.01672(17)
Cl2F Cl 1.0292(3) 0.3736(3) -0.01954(9)
C62F C 0.9990(10) 0.2903(9) -0.0136(2)
H40F H 0.8015 0.5044 -0.0327
H41F H 0.8377 0.4525 -0.0180
C63F C 1.0509(10) 0.2426(11) -0.0087(2)
H42F H 1.0983 0.2565 -0.0066
C64F C 1.0300(9) 0.1756(9) -0.0071(2)
H43F H 1.0653 0.1424 -0.0038
C65F C 0.9602(9) 0.1482(9) -0.0098(2)
H44F H 0.9486 0.1005 -0.0073
loop_
_geom_bond_atom_site_label_1
_geom_bond_atom_site_label_2
_geom_bond_site_symmetry_1
_geom_bond_site_symmetry_2
Al1 O1 1_555 1_555
Al2 O1 1_555 1_555
O1 H1 1_555 1_555
O2 Al2 1_555 1_555
O3 Al1 1_555 1_555
C1 O2 1_555 1_555
O4 Al2 1_555 1_555
O5 Al2 1_555 1_555
C2 O4 1_555 1_555
O6 C2 1_555 1_555
C3 H2 1_555 1_555
C4 C3 1_555 1_555
C5 C4 1_555 1_555
H3 C5 1_555 1_555
O7 Al2 1_555 1_555
Al3 O6 1_555 1_555
O8 Al3 1_555 1_555
C6 C7 1_555 1_555
C7 O5 1_555 1_555
C8 H4 1_555 1_555
C9 C11 1_555 1_555
C10 C6 1_555 1_555
H5 C10 1_555 1_555
C11 H6 1_555 1_555
C12 C9 1_555 1_555
H7 C12 1_555 1_555
C13 C8 1_555 1_555
C14 C6 1_555 1_555
H8 C14 1_555 1_555
C15 C1 1_555 1_555
C16 C3 1_555 1_555
H9 C16 1_555 1_555
C17 C5 1_555 1_555
H10 C17 1_555 1_555
C18 C23 1_555 1_555
C19 H11 1_555 1_555
C20 C4 1_555 1_555
C21 C19 1_555 1_555
C22 C13 1_555 1_555
H12 C22 1_555 1_555
C23 C8 1_555 1_555
C24 C25 1_555 1_555
C25 H13 1_555 1_555
C26 C24 1_555 1_555
H14 C26 1_555 1_555
C27 C18 1_555 1_555
H15 C27 1_555 1_555
C28 C18 1_555 1_555
H16 C28 1_555 1_555
C29 C21 1_555 1_555
C30 C29 1_555 1_555
H17 C30 1_555 1_555
C31 C30 1_555 1_555
H18 C31 1_555 1_555
C32 C24 1_555 1_555
C33 C35 1_555 1_555
C34 C20 1_555 1_555
H19 C34 1_555 1_555
C35 C20 1_555 1_555
H20 C35 1_555 1_555
C36 C33 1_555 1_555
H21 C36 1_555 1_555
C37 C34 1_555 1_555
C38 C37 1_555 1_555
C39 C33 1_555 1_555
O9 C32 1_555 1_555
O10 C32 1_555 1_555
C40 C31 1_555 1_555
C41 C40 1_555 1_555
H22 C41 1_555 1_555
C42 C40 1_555 1_555
C43 C29 1_555 1_555
H23 C43 1_555 1_555
O11 C42 1_555 1_555
O12 C42 1_555 1_555
C44 C48 1_555 1_555
C45 H24 1_555 1_555
C46 H25 1_555 1_555
C47 C38 1_555 1_555
H26 C47 1_555 1_555
C48 H27 1_555 1_555
C49 C39 1_555 1_555
H28 C49 1_555 1_555
C50 C38 1_555 1_555
H29 C50 1_555 1_555
C51 C44 1_555 1_555
H30 C51 1_555 1_555
C52 C39 1_555 1_555
H31 C52 1_555 1_555
C53 C45 1_555 1_555
C54 C44 1_555 1_555
O13 C54 1_555 1_555
O14 C54 1_555 1_555
C55 C53 1_555 1_555
O15 C55 1_555 1_555
O16 C55 1_555 1_555
O17 Al3 1_555 1_555
H32 O17 1_555 1_555
O18 Al3 1_555 1_555
H33 O18 1_555 1_555
Al4 O17 1_555 1_555
O19 Al1 1_555 1_555
H34 O19 1_555 1_555
C56 H35 1_555 1_555
C57 C56 1_555 1_555
C58 C57 1_555 1_555
C59 C58 1_555 1_555
H36 C59 1_555 1_555
C60 C59 1_555 1_555
H37 C60 1_555 1_555
C61 C56 1_555 1_555
H38 C61 1_555 1_555
N1 C57 1_555 1_555
H39 N1 1_555 1_555
Cl1 C66 1_555 1_555
Cl2 C62 1_555 1_555
H40 C68 1_555 1_555
H41 C68 1_555 1_555
C62 C63 1_555 1_555
C63 H42 1_555 1_555
C64 C63 1_555 1_555
H43 C64 1_555 1_555
C65 C64 1_555 1_555
H44 C65 1_555 1_555
C66 C65 1_555 1_555
C67 N1 1_555 1_555
C68 C2 1_555 1_555
Al1_2 O10 1_555 1_555
Al1E O11 1_555 1_555
Al2E O14 1_555 1_555
Al3A O15 1_555 1_555
O9F Al4 1_555 1_555
O10_2 Al1 1_555 1_555
O11E Al1 1_555 1_555
O12C Al4 1_555 1_555
O13E Al1 1_555 1_555
O14E Al2 1_555 1_555
O15C Al3 1_555 1_555
O16C Al4 1_555 1_555
Al4A O12 1_555 1_555
Al4A_2 O16 1_555 1_555
Al4F O9 1_555 1_555
Al4F_2 O19 1_555 1_555
O19F Al4 1_555 1_555
Al1F O19F 1_555 1_555
O1F Al1F 1_555 1_555
O3F Al1F 1_555 1_555
O10F Al1F 1_555 1_555
O11C Al1F 1_555 1_555
O13C Al1F 1_555 1_555
Al2F O1F 1_555 1_555
O2F Al2F 1_555 1_555
O4F Al2F 1_555 1_555
O5F Al2F 1_555 1_555
O7F Al2F 1_555 1_555
O14C Al2F 1_555 1_555
H1F O1F 1_555 1_555
C1F O3F 1_555 1_555
C15F C1F 1_555 1_555
C2F O4F 1_555 1_555
C7F O5F 1_555 1_555
O6F C2F 1_555 1_555
C68F C2F 1_555 1_555
Al3F O7F 1_555 1_555
C3F H2F 1_555 1_555
C4F C3F 1_555 1_555
C16F C15F 1_555 1_555
C5F C4F 1_555 1_555
C20F C4F 1_555 1_555
H3F C5F 1_555 1_555
C17F C15F 1_555 1_555
O8F C7F 1_555 1_555
O17F Al4F_2 1_555 1_555
O18F Al4F_2 1_555 1_555
O15E Al3F 1_555 1_555
C6F C7F 1_555 1_555
C10F C6F 1_555 1_555
C14F C6F 1_555 1_555
C8F H4F 1_555 1_555
C13F C8F 1_555 1_555
C23F C8F 1_555 1_555
C9F C13F 1_555 1_555
C11F C14F 1_555 1_555
C12F C10F 1_555 1_555
H5F C10F 1_555 1_555
H6F C11F 1_555 1_555
H7F C12F 1_555 1_555
C22F C13F 1_555 1_555
H8F C14F 1_555 1_555
H9F C16F 1_555 1_555
H10F C17F 1_555 1_555
C18F C23F 1_555 1_555
C27F C18F 1_555 1_555
C28F C18F 1_555 1_555
C19F C23F 1_555 1_555
H11F C19F 1_555 1_555
C21F C22F 1_555 1_555
C34F C20F 1_555 1_555
C35F C20F 1_555 1_555
C29F C21F 1_555 1_555
H12F C22F 1_555 1_555
C24F C25F 1_555 1_555
C25F C27F 1_555 1_555
C26F C28F 1_555 1_555
C32F C24F 1_555 1_555
H13F C25F 1_555 1_555
H14F C26F 1_555 1_555
H15F C27F 1_555 1_555
H16F C28F 1_555 1_555
C30F C29F 1_555 1_555
C43F C29F 1_555 1_555
H17F C30F 1_555 1_555
C31F C30F 1_555 1_555
H18F C31F 1_555 1_555
C40F C31F 1_555 1_555
O9F_2 C32F 1_555 1_555
O10F_2 C32F 1_555 1_555
C33F C35F 1_555 1_555
C36F C33F 1_555 1_555
C39F C33F 1_555 1_555
H19F C34F 1_555 1_555
C37F C34F 1_555 1_555
H20F C35F 1_555 1_555
H21F C36F 1_555 1_555
C38F C37F 1_555 1_555
C47F C38F 1_555 1_555
C50F C38F 1_555 1_555
C49F C39F 1_555 1_555
C52F C39F 1_555 1_555
Al4_2 O9F_2 1_555 1_555
Al1F_2 O10F_2 1_555 1_555
C41F C43F 1_555 1_555
C42F C40F 1_555 1_555
H22F C41F 1_555 1_555
O11F C42F 1_555 1_555
O12F C42F 1_555 1_555
H23F C43F 1_555 1_555
Al1C O11F 1_555 1_555
Al4D O12F 1_555 1_555
C44F C48F 1_555 1_555
C48F C50F 1_555 1_555
C51F C47F 1_555 1_555
C54F C44F 1_555 1_555
C45F C49F 1_555 1_555
H24F C45F 1_555 1_555
C53F C45F 1_555 1_555
C46F C52F 1_555 1_555
H25F C46F 1_555 1_555
H26F C47F 1_555 1_555
H27F C48F 1_555 1_555
H28F C49F 1_555 1_555
H29F C50F 1_555 1_555
H30F C51F 1_555 1_555
H31F C52F 1_555 1_555
C55F C53F 1_555 1_555
O13F Al1C 1_555 1_555
O14F C54F 1_555 1_555
Al2C O14F 1_555 1_555
O15F C55F 1_555 1_555
O16F C55F 1_555 1_555
Al3D O15F 1_555 1_555
Al4D_2 O16F 1_555 1_555
H32F O17F 1_555 1_555
H33F O18F 1_555 1_555
O9_2 Al4F_2 1_555 1_555
O12E Al4F_2 1_555 1_555
O16E Al4F_2 1_555 1_555
H34F O19F 1_555 1_555
C56F H35F 1_555 1_555
C57F C56F 1_555 1_555
C61F C56F 1_555 1_555
C58F C68F 1_555 1_555
N1F C57F 1_555 1_555
C59F C58F 1_555 1_555
H36F C59F 1_555 1_555
C60F C61F 1_555 1_555
H37F C60F 1_555 1_555
H38F C61F 1_555 1_555
H39F N1F 1_555 1_555
C67F N1F 1_555 1_555
Cl1F C66F 1_555 1_555
C66F C67F 1_555 1_555
Cl2F C62F 1_555 1_555
C62F C67F 1_555 1_555
H40F C68F 1_555 1_555
H41F C68F 1_555 1_555
C63F C62F 1_555 1_555
H42F C63F 1_555 1_555
C64F C63F 1_555 1_555
H43F C64F 1_555 1_555
C65F C66F 1_555 1_555
H44F C65F 1_555 1_555
O3 C1 1_555 1_555
O7 Al3 1_555 1_555
O8 C7 1_555 1_555
C9 C13 1_555 1_555
C10 C12 1_555 1_555
C11 C14 1_555 1_555
C15 C16 1_555 1_555
C15 C17 1_555 1_555
C19 C23 1_555 1_555
C21 C22 1_555 1_555
C25 C27 1_555 1_555
C26 C28 1_555 1_555
C36 C37 1_555 1_555
C41 C43 1_555 1_555
C45 C49 1_555 1_555
C46 C52 1_555 1_555
C46 C53 1_555 1_555
C47 C51 1_555 1_555
C48 C50 1_555 1_555
O13 Al1E 1_555 1_555
O18 Al4 1_555 1_555
C58 C68 1_555 1_555
C60 C61 1_555 1_555
C62 C67 1_555 1_555
C66 C67 1_555 1_555
O2F C1F 1_555 1_555
O6F Al3F 1_555 1_555
Al3F O8F 1_555 1_555
Al3F O17F 1_555 1_555
Al3F O18F 1_555 1_555
C3F C16F 1_555 1_555
C5F C17F 1_555 1_555
C9F C11F 1_555 1_555
C9F C12F 1_555 1_555
C19F C21F 1_555 1_555
C24F C26F 1_555 1_555
C40F C41F 1_555 1_555
C36F C37F 1_555 1_555
C44F C51F 1_555 1_555
C54F O13F 1_555 1_555
C53F C46F 1_555 1_555
C57F C58F 1_555 1_555
C59F C60F 1_555 1_555
C64F C65F 1_555 1_555

#END
