
#######################################################################
#
#                 Cambridge Crystallographic Data Centre
#                                CCDC 
#
#######################################################################
#
# If this CIF has been generated from an entry in the Cambridge 
# Structural Database, then it will include bibliographic, chemical, 
# crystal, experimental, refinement or atomic coordinate data resulting 
# from the CCDC's data processing and validation procedures.
#
#######################################################################

data_OTEBIA
_chemical_formula_moiety         'C140 H90 Al22 O60'
_symmetry_cell_setting           tetragonal
_symmetry_space_group_name_H-M   'P 41 21 2'
_symmetry_Int_Tables_number      92
_space_group_name_Hall           'P 4abw 2nw'
loop_
_symmetry_equiv_pos_site_id
_symmetry_equiv_pos_as_xyz
1 x,y,z
2 1/2-y,1/2+x,1/4+z
3 -x,-y,1/2+z
4 1/2+y,1/2-x,3/4+z
5 1/2+x,1/2-y,3/4-z
6 1/2-x,1/2+y,1/4-z
7 y,x,-z
8 -y,-x,1/2-z
_cell_length_a                   19.3467(7)
_cell_length_b                   19.3467(7)
_cell_length_c                   70.207(3)
_cell_angle_alpha                90
_cell_angle_beta                 90
_cell_angle_gamma                90
_cell_volume                     26278.1
loop_
_atom_site_label
_atom_site_type_symbol
_atom_site_fract_x
_atom_site_fract_y
_atom_site_fract_z
Al1 Al 0.88957(6) 0.09457(7) 0.54088(2)
Al2 Al 0.83237(6) 0.15515(6) 0.49942(2)
Al3 Al 0.86052(7) 0.10646(6) 0.46166(2)
O1 O 0.87667(14) 0.09194(14) 0.51490(4)
H1 H 0.8953 0.0527 0.5086
O2 O 0.80260(16) 0.18550(15) 0.45600(4)
O3 O 0.78486(15) 0.22697(14) 0.48522(4)
O4 O 0.80122(14) 0.08616(14) 0.48214(4)
O5 O 0.90235(15) 0.15619(14) 0.48137(4)
C1 C 0.7649(2) 0.2998(2) 0.45845(6)
C2 C 0.7856(2) 0.2330(2) 0.46758(6)
C3 C 0.9067(2) 0.7850(2) 0.44591(7)
C4 C 0.8405(3) 0.7974(2) 0.43895(7)
H2 H 0.8240 0.8435 0.4378
C5 C 0.5735(3) 0.5737(2) 0.33023(7)
C6 C 0.7413(3) 0.6228(3) 0.41167(7)
H3 H 0.7431 0.6654 0.4050
C7 C 0.7458(3) 0.4223(2) 0.46114(7)
H4 H 0.7405 0.4625 0.4688
C8 C 0.9536(3) 0.8454(2) 0.45014(6)
C9 C 0.7777(3) 0.6150(2) 0.42917(7)
C10 C 0.7556(3) 0.3580(2) 0.46960(7)
H5 H 0.7558 0.3541 0.4831
C11 C 0.9280(3) 0.7180(2) 0.44859(7)
H6 H 0.9720 0.7091 0.4541
C12 C 0.7612(3) 0.3049(2) 0.43897(6)
H7 H 0.7663 0.2647 0.4313
C13 C 0.7780(3) 0.5538(2) 0.43839(7)
H8 H 0.8051 0.5484 0.4496
C14 C 0.7016(3) 0.5044(2) 0.41444(7)
H9 H 0.6757 0.4666 0.4096
C15 C 0.7382(3) 0.4971(2) 0.43153(6)
C16 C 0.7985(3) 0.7424(2) 0.43361(7)
H10 H 0.7538 0.7510 0.4285
C17 C 0.6034(3) 0.5750(2) 0.35005(6)
C18 C 0.6965(3) 0.6094(3) 0.37104(7)
H11 H 0.7398 0.6317 0.3727
C19 C 0.7440(3) 0.4273(2) 0.44091(6)
C20 C 0.6057(3) 0.5359(3) 0.38276(7)
H12 H 0.5859 0.5091 0.3927
C21 C 0.8859(3) 0.6634(2) 0.44333(7)
H13 H 0.9019 0.6174 0.4451
C22 C 0.6617(3) 0.6121(3) 0.35352(7)
H14 H 0.6796 0.6408 0.3437
C23 C 0.7029(3) 0.5673(2) 0.40441(7)
C24 C 0.6650(3) 0.5725(2) 0.38628(7)
C25 C 0.8219(3) 0.6744(2) 0.43572(7)
C26 C 0.7500(3) 0.3694(2) 0.43028(7)
H15 H 0.7466 0.3723 0.4168
C27 C 0.5727(3) 0.5370(2) 0.36443(6)
H16 H 0.5310 0.5124 0.3623
O6 O 0.91874(18) 0.14619(14) 0.44355(4)
C28 C 0.9794(3) 0.1375(3) 0.43858(6)
C29 C 0.9903(3) 0.2647(2) 0.43557(8)
H17 H 0.9452 0.2681 0.4408
C30 C 1.0203(3) 0.1993(2) 0.43251(7)
C31 C 1.0921(4) 0.3179(2) 0.42248(8)
C32 C 1.0839(3) 0.1948(2) 0.42425(7)
H18 H 1.1035 0.1506 0.4219
C33 C 1.1207(3) 0.2541(3) 0.41922(8)
H19 H 1.1652 0.2503 0.4136
C34 C 1.0259(4) 0.3229(3) 0.43100(9)
H20 H 1.0063 0.3670 0.4335
C35 C 1.1264(5) 0.4402(3) 0.42870(10)
H21 H 1.1057 0.4363 0.4409
C36 C 1.1898(4) 0.5064(3) 0.40571(8)
H22 H 1.2092 0.5488 0.4015
C37 C 1.1630(4) 0.3864(3) 0.39990(9)
H23 H 1.1659 0.3461 0.3922
C38 C 1.1562(5) 0.5032(3) 0.42318(8)
C39 C 1.1953(4) 0.4474(3) 0.39417(8)
C40 C 1.2308(4) 0.4537(3) 0.37507(8)
C41 C 1.1267(4) 0.3851(3) 0.41693(8)
C42 C 1.2967(3) 0.4627(2) 0.34017(7)
C43 C 1.2372(3) 0.4260(3) 0.34179(7)
H24 H 1.2191 0.4031 0.3309
C44 C 1.3249(3) 0.4972(3) 0.35669(7)
H25 H 1.3667 0.5228 0.3559
C45 C 1.2022(4) 0.4211(3) 0.35895(7)
H26 H 1.1599 0.3963 0.3598
C46 C 1.2889(4) 0.4914(3) 0.37366(8)
H27 H 1.3057 0.5148 0.3846
C47 C 1.1483(2) 0.6864(2) 0.45647(6)
C48 C 1.3363(3) 0.4633(2) 0.32260(6)
C49 C 1.1564(3) 0.6238(2) 0.46580(7)
H28 H 1.1614 0.6218 0.4792
C50 C 1.1417(4) 0.6298(3) 0.42627(7)
H29 H 1.1347 0.6319 0.4129
C51 C 1.1411(3) 0.6895(2) 0.43671(6)
H30 H 1.1359 0.7328 0.4305
C52 C 1.1570(4) 0.5635(3) 0.45476(7)
H31 H 1.1606 0.5198 0.4609
C53 C 1.1524(4) 0.5664(3) 0.43495(7)
O7 O 1.15180(15) 0.75170(14) 0.48523(4)
O8 O 0.51689(17) 0.54164(15) 0.32805(4)
O9 O 0.60515(19) 0.60577(16) 0.31746(4)
O10 O 1.30971(16) 0.43758(15) 0.30773(4)
O11 O 1.39763(18) 0.48920(15) 0.32333(4)
C54 C 1.1478(2) 0.7526(2) 0.46689(6)
O12 O 0.92779(15) 0.90476(14) 0.44740(4)
O13 O 1.01379(16) 0.83281(14) 0.45569(4)
O14 O 1.01066(16) 0.07921(14) 0.43806(4)
O15 O 1.14484(15) 0.80706(14) 0.45688(4)
O16 O 0.91866(14) 0.03136(13) 0.46382(4)
H32 H 0.9231 0.0111 0.4761
Al4 Al 0.96929(7) -0.00812(6) 0.44420(2)
O17 O 0.93828(16) 0.17929(16) 0.53853(5)
O18 O 0.96915(13) 0.04335(14) 0.54063(4)
H33 H 1.0029 0.0567 0.5315
C55 C 0.7337(5) 0.0588(5) 0.48079(14)
H34 H 0.7219 0.0351 0.4927
H35 H 0.7316 0.0259 0.4702
H36 H 0.7008 0.0964 0.4786
O19 O 1.1005(8) 0.2076(8) 0.5941(2)
H37 H 1.1136 0.2409 0.6009
C56 C 1.0278(12) 0.3098(11) 0.6086(3)
C57 C 0.9805(11) 0.3611(12) 0.6168(3)
C58 C 0.9216(10) 0.3850(12) 0.6061(3)
H38 H 0.8959 0.4236 0.6105
O20 O 0.9017(8) 0.3505(7) 0.58874(19)
C59 C 0.9454(12) 0.2997(12) 0.5810(3)
C60 C 1.0073(13) 0.2757(11) 0.5906(3)
C61 C 1.0497(12) 0.2292(12) 0.5821(3)
C62 C 1.0274(10) 0.1958(11) 0.5664(3)
H39 H 1.0553 0.1598 0.5614
C63 C 0.9649(11) 0.2116(12) 0.5572(3)
C64 C 0.9269(13) 0.2660(11) 0.5647(3)
H40 H 0.8863 0.2804 0.5582
O21 O 1.0827(7) 0.2967(8) 0.6164(2)
C65 C 0.9875(8) 0.4021(11) 0.6336(3)
C66 C 1.0163(8) 0.3740(11) 0.6488(3)
H41 H 1.0348 0.3289 0.6472
C67 C 1.0227(8) 0.4011(11) 0.6665(3)
H42 H 1.0442 0.3770 0.6767
C68 C 0.9976(7) 0.4614(10) 0.6684(3)
C69 C 0.9656(8) 0.4974(11) 0.6531(3)
H43 H 0.9470 0.5424 0.6546
C70 C 0.9633(8) 0.4654(11) 0.6369(3)
H44 H 0.9427 0.4891 0.6265
O22 O 1.0041(7) 0.4909(8) 0.68781(19)
H45 H 0.9880 0.4628 0.6958
Al1C Al 0.59457(7) 0.61043(6) 0.29088(2)
Al1F Al 1.09457(7) 0.88957(6) 0.45912(2)
Al2F Al 1.15515(6) 0.83237(6) 0.50058(2)
Al3D Al 1.36052(7) 0.39354(6) 0.28834(2)
O7F O 0.75170(14) 0.15180(15) 0.51477(4)
O8D O 1.01689(17) -0.04164(15) 0.42195(4)
O9A O 0.89423(16) 0.10515(19) 0.56746(4)
O10D O 0.80971(16) 0.06242(15) 0.44227(4)
O11D O 0.89763(18) 0.01080(15) 0.42667(4)
O12_2 O 0.92779(15) -0.09524(14) 0.44740(4)
O13F O 0.83281(14) 0.01379(16) 0.54431(4)
O15F O 0.80706(14) 0.14484(15) 0.54312(4)
Al4_2 Al 0.96929(7) 0.99188(6) 0.44420(2)
Al4D Al 0.46929(7) 0.50812(6) 0.30580(2)
Al4D_2 Al 1.46929(7) 0.50812(6) 0.30580(2)
Al4F Al 0.99188(6) -0.03071(7) 0.55580(2)
O18F O 1.04335(14) -0.03085(13) 0.45937(4)
Al1F_2 Al 1.09457(7) -0.11043(6) 0.45912(2)
O1F O 1.09194(14) -0.12333(14) 0.48510(4)
O17F O 1.17929(16) -0.06172(16) 0.46147(5)
O9D O 1.10515(19) -0.10577(16) 0.43254(4)
O13_2 O 1.01379(16) -0.16719(14) 0.45569(4)
O15_2 O 1.14484(15) -0.19294(14) 0.45688(4)
Al2F_2 Al 1.15515(6) -0.16763(6) 0.50058(2)
O3F O 1.22697(14) -0.21514(15) 0.51478(4)
O4F O 1.08616(14) -0.19878(14) 0.51786(4)
O5F O 1.15619(14) -0.09765(15) 0.51863(4)
O7_2 O 1.15180(15) -0.24830(14) 0.48523(4)
Al3F Al 1.10646(6) -0.13948(7) 0.53834(2)
O2F O 1.18550(15) -0.19740(16) 0.54400(4)
O6F O 1.14619(14) -0.08126(18) 0.55645(4)
O16F O 1.03136(13) -0.08134(14) 0.53618(4)
O10A O 1.06242(15) -0.19029(16) 0.55773(4)
H1F H 1.0527 -0.1047 0.4914
C2F C 1.2330(2) -0.2144(2) 0.53242(6)
C55F C 1.0588(5) -0.2663(5) 0.51921(14)
C1F C 1.2998(2) -0.2351(2) 0.54155(6)
C10F C 1.3580(2) -0.2444(3) 0.53040(7)
C12F C 1.3049(2) -0.2388(3) 0.56103(6)
C3F C 1.7850(2) -0.0933(2) 0.55409(7)
C4F C 1.7974(2) -0.1595(3) 0.56105(7)
C8F C 1.8454(2) -0.0464(3) 0.54986(6)
C11F C 1.7180(2) -0.0720(3) 0.55141(7)
H2F H 1.8435 -0.1760 0.5622
C16F C 1.7424(2) -0.2015(3) 0.56639(7)
C5F C 1.5737(2) -0.4265(3) 0.66977(7)
C17F C 1.5750(2) -0.3966(3) 0.64995(6)
O8F O 1.54164(15) -0.48311(17) 0.67195(4)
O9F O 1.60577(16) -0.39485(19) 0.68254(4)
C6F C 1.6228(3) -0.2587(3) 0.58833(7)
H3F H 1.6654 -0.2569 0.5950
C9F C 1.6150(2) -0.2223(3) 0.57083(7)
C23F C 1.5673(2) -0.2971(3) 0.59559(7)
C7F C 1.4223(2) -0.2542(3) 0.53886(7)
H4F H 1.4625 -0.2595 0.5312
C19F C 1.4273(2) -0.2560(3) 0.55909(6)
O12F O 1.90476(14) -0.07221(15) 0.55260(4)
O13F_2 O 1.83281(14) 0.01379(16) 0.54431(4)
C13F C 1.5538(2) -0.2220(3) 0.56161(7)
C25F C 1.6744(2) -0.1781(3) 0.56428(7)
H5F H 1.3541 -0.2442 0.5169
H6F H 1.7091 -0.0280 0.5459
C21F C 1.6634(2) -0.1141(3) 0.55667(7)
H7F H 1.2647 -0.2337 0.5687
C26F C 1.3694(2) -0.2500(3) 0.56972(7)
H8F H 1.5484 -0.1949 0.5504
C15F C 1.4971(2) -0.2618(3) 0.56847(6)
C14F C 1.5044(2) -0.2984(3) 0.58556(7)
H9F H 1.4666 -0.3243 0.5904
H10F H 1.7510 -0.2462 0.5715
C22F C 1.6121(3) -0.3383(3) 0.64648(7)
C27F C 1.5370(2) -0.4273(3) 0.63557(6)
C18F C 1.6094(3) -0.3035(3) 0.62896(7)
H11F H 1.6317 -0.2602 0.6273
C24F C 1.5725(2) -0.3350(3) 0.61372(7)
C20F C 1.5359(3) -0.3943(3) 0.61724(7)
H12F H 1.5091 -0.4141 0.6073
H13F H 1.6174 -0.0981 0.5549
H14F H 1.6408 -0.3204 0.6563
H15F H 1.3723 -0.2534 0.5832
H16F H 1.5124 -0.4690 0.6377
C28F C 1.1375(3) -0.0206(3) 0.56142(6)
C30F C 1.1993(2) 0.0203(3) 0.56749(7)
O14F O 1.07921(14) 0.01066(16) 0.56194(4)
C29F C 1.2647(2) -0.0097(3) 0.56443(8)
H17F H 1.2681 -0.0548 0.5592
C34F C 1.3229(3) 0.0259(4) 0.56900(9)
C32F C 1.1948(2) 0.0839(3) 0.57575(7)
C31F C 1.3179(2) 0.0921(4) 0.57752(8)
C33F C 1.2541(3) 0.1207(3) 0.58078(8)
C41F C 1.3851(3) 0.1267(4) 0.58307(8)
H18F H 1.1506 0.1035 0.5781
H19F H 1.2503 0.1652 0.5864
H20F H 1.3670 0.0063 0.5665
C35F C 1.4402(3) 0.1264(5) 0.57130(10)
H21F H 1.4363 0.1057 0.5591
C38F C 1.5032(3) 0.1562(5) 0.57682(8)
C36F C 1.5064(3) 0.1898(4) 0.59429(8)
H22F H 1.5488 0.2092 0.5985
C39F C 1.4474(3) 0.1953(4) 0.60583(8)
C37F C 1.3864(3) 0.1630(4) 0.60010(9)
H23F H 1.3461 0.1659 0.6078
C53F C 1.5664(3) 0.1524(4) 0.56505(7)
C40F C 1.4537(3) 0.2308(4) 0.62493(8)
C45F C 1.4211(3) 0.2022(4) 0.64105(7)
C46F C 1.4914(3) 0.2889(4) 0.62634(8)
C42F C 1.4627(2) 0.2967(3) 0.65983(7)
C43F C 1.4260(3) 0.2372(3) 0.65821(7)
C44F C 1.4972(3) 0.3249(3) 0.64331(7)
C48F C 1.4633(2) 0.3363(3) 0.67740(6)
H24F H 1.4031 0.2191 0.6691
H25F H 1.5228 0.3667 0.6441
H26F H 1.3963 0.1599 0.6402
H27F H 1.5148 0.3057 0.6154
C47F C 1.6864(2) 0.1483(2) 0.54353(6)
C49F C 1.6238(2) 0.1564(3) 0.53420(7)
C51F C 1.6895(2) 0.1411(3) 0.56329(6)
C54F C 1.7526(2) 0.1478(2) 0.53311(6)
O10F O 1.43758(15) 0.30971(16) 0.69227(4)
O11F O 1.48920(15) 0.39763(18) 0.67667(4)
H28F H 1.6218 0.1614 0.5208
C52F C 1.5635(3) 0.1570(4) 0.54524(7)
C50F C 1.6298(3) 0.1417(4) 0.57373(7)
H29F H 1.6319 0.1347 0.5871
H30F H 1.7328 0.1359 0.5695
H31F H 1.5198 0.1606 0.5391
O7F_2 O 1.75170(14) 0.15180(15) 0.51477(4)
Al2_2 Al 1.83237(6) 0.15515(6) 0.49942(2)
Al4A Al 1.50812(6) -0.53071(7) 0.69420(2)
Al1E Al 1.61043(6) -0.40543(7) 0.70912(2)
Al3A Al 1.39354(6) 0.36052(7) 0.71166(2)
Al4A_2 Al 1.50812(6) 0.46929(7) 0.69420(2)
O15F_2 O 1.80706(14) 0.14484(15) 0.54312(4)
Al4F_2 Al 1.99188(6) -0.03071(7) 0.55580(2)
Al1_2 Al 1.88957(6) 0.09457(7) 0.54088(2)
H32F H 1.0111 -0.0769 0.5239
O8A O 0.95836(15) 0.01689(17) 0.57805(4)
O11A O 1.01080(15) -0.10237(18) 0.57333(4)
O12F_2 O 0.90476(14) -0.07221(15) 0.55260(4)
C63F C 1.2116(12) -0.0351(11) 0.4428(3)
H33F H 1.0567 0.0029 0.4685
H34F H 1.0351 -0.2781 0.5073
H35F H 1.0259 -0.2684 0.5298
H36F H 1.0964 -0.2992 0.5214
O19F O 1.2076(8) 0.1005(8) 0.4059(2)
H37F H 1.2409 0.1136 0.3991
C61F C 1.2292(12) 0.0497(12) 0.4179(3)
C56F C 1.3098(11) 0.0278(12) 0.3914(3)
C57F C 1.3611(12) -0.0195(11) 0.3832(3)
C60F C 1.2757(11) 0.0073(13) 0.4094(3)
O21F O 1.2967(8) 0.0827(7) 0.3836(2)
C58F C 1.3850(12) -0.0784(10) 0.3939(3)
C65F C 1.4021(11) -0.0125(8) 0.3664(3)
H38F H 1.4236 -0.1041 0.3895
O20F O 1.3505(7) -0.0983(8) 0.41126(19)
C59F C 1.2997(12) -0.0546(12) 0.4190(3)
C64F C 1.2660(11) -0.0731(13) 0.4353(3)
C62F C 1.1958(11) 0.0274(10) 0.4336(3)
H39F H 1.1598 0.0553 0.4386
H40F H 1.2804 -0.1137 0.4418
C66F C 1.3740(11) 0.0163(8) 0.3512(3)
C70F C 1.4654(11) -0.0367(8) 0.3631(3)
H41F H 1.3289 0.0348 0.3528
C67F C 1.4011(11) 0.0227(8) 0.3335(3)
H42F H 1.3770 0.0442 0.3233
C68F C 1.4614(10) -0.0024(7) 0.3316(3)
C69F C 1.4974(11) -0.0344(8) 0.3469(3)
O22F O 1.4909(8) 0.0041(7) 0.31219(19)
H43F H 1.5424 -0.0530 0.3454
H44F H 1.4891 -0.0573 0.3735
H45F H 1.4628 -0.0120 0.3042
loop_
_geom_bond_atom_site_label_1
_geom_bond_atom_site_label_2
_geom_bond_site_symmetry_1
_geom_bond_site_symmetry_2
Al1 O1 1_555 1_555
Al2 O1 1_555 1_555
Al3 O2 1_555 1_555
O1 H1 1_555 1_555
O2 C2 1_555 1_555
O3 Al2 1_555 1_555
O4 Al2 1_555 1_555
O5 Al2 1_555 1_555
C1 C2 1_555 1_555
C2 O3 1_555 1_555
C3 C4 1_555 1_555
C4 H2 1_555 1_555
C5 C17 1_555 1_555
C6 H3 1_555 1_555
C7 H4 1_555 1_555
C8 C3 1_555 1_555
C9 C6 1_555 1_555
C10 C1 1_555 1_555
H5 C10 1_555 1_555
C11 C3 1_555 1_555
H6 C11 1_555 1_555
C12 C1 1_555 1_555
H7 C12 1_555 1_555
C13 C9 1_555 1_555
H8 C13 1_555 1_555
C14 H9 1_555 1_555
C15 C13 1_555 1_555
C16 C4 1_555 1_555
H10 C16 1_555 1_555
C17 C22 1_555 1_555
C18 H11 1_555 1_555
C19 C7 1_555 1_555
C20 H12 1_555 1_555
C21 C11 1_555 1_555
H13 C21 1_555 1_555
C22 C18 1_555 1_555
H14 C22 1_555 1_555
C23 C6 1_555 1_555
C24 C18 1_555 1_555
C25 C9 1_555 1_555
C26 C12 1_555 1_555
H15 C26 1_555 1_555
C27 C17 1_555 1_555
H16 C27 1_555 1_555
O6 Al3 1_555 1_555
C28 O6 1_555 1_555
C29 H17 1_555 1_555
C30 C28 1_555 1_555
C31 C33 1_555 1_555
C32 C30 1_555 1_555
H18 C32 1_555 1_555
C33 C32 1_555 1_555
H19 C33 1_555 1_555
C34 C29 1_555 1_555
H20 C34 1_555 1_555
C35 H21 1_555 1_555
C36 H22 1_555 1_555
C37 H23 1_555 1_555
C38 C35 1_555 1_555
C39 C36 1_555 1_555
C40 C39 1_555 1_555
C41 C31 1_555 1_555
C42 C43 1_555 1_555
C43 H24 1_555 1_555
C44 C42 1_555 1_555
H25 C44 1_555 1_555
C45 C40 1_555 1_555
H26 C45 1_555 1_555
C46 C40 1_555 1_555
H27 C46 1_555 1_555
C47 C49 1_555 1_555
C48 C42 1_555 1_555
C49 H28 1_555 1_555
C50 H29 1_555 1_555
C51 C47 1_555 1_555
H30 C51 1_555 1_555
C52 C49 1_555 1_555
H31 C52 1_555 1_555
C53 C38 1_555 1_555
O7 C54 1_555 1_555
O8 C5 1_555 1_555
O9 C5 1_555 1_555
O10 C48 1_555 1_555
O11 C48 1_555 1_555
C54 C47 1_555 1_555
O12 C8 1_555 1_555
O13 C8 1_555 1_555
O14 C28 1_555 1_555
O15 C54 1_555 1_555
O16 Al3 1_555 1_555
H32 O16 1_555 1_555
Al4 O14 1_555 1_555
O17 Al1 1_555 1_555
O18 Al1 1_555 1_555
H33 O18 1_555 1_555
C55 O4 1_555 1_555
H34 C55 1_555 1_555
H35 C55 1_555 1_555
H36 C55 1_555 1_555
O19 H37 1_555 1_555
C56 C57 1_555 1_555
C57 C58 1_555 1_555
C58 H38 1_555 1_555
O20 C58 1_555 1_555
C59 O20 1_555 1_555
C60 C56 1_555 1_555
C61 O19 1_555 1_555
C62 C61 1_555 1_555
H39 C62 1_555 1_555
C63 O17 1_555 1_555
C64 C59 1_555 1_555
H40 C64 1_555 1_555
O21 C56 1_555 1_555
C65 C57 1_555 1_555
C66 C65 1_555 1_555
H41 C66 1_555 1_555
C67 C66 1_555 1_555
H42 C67 1_555 1_555
C68 C67 1_555 1_555
C69 C68 1_555 1_555
H43 C69 1_555 1_555
C70 C65 1_555 1_555
H44 C70 1_555 1_555
O22 C68 1_555 1_555
H45 O22 1_555 1_555
Al1C O9 1_555 1_555
Al1F O13 1_555 1_555
Al2F O7 1_555 1_555
Al3D O10 1_555 1_555
O7F Al2 1_555 1_555
O8D Al4 1_555 1_555
O9A Al1 1_555 1_555
O10D Al3 1_555 1_555
O11D Al4 1_555 1_555
O12_2 Al4 1_555 1_555
O13F Al1 1_555 1_555
O15F Al1 1_555 1_555
Al4_2 O12 1_555 1_555
Al4D O8 1_555 1_555
Al4D_2 O11 1_555 1_555
Al4F O18 1_555 1_555
O18F Al4 1_555 1_555
Al1F_2 O18F 1_555 1_555
O1F Al1F_2 1_555 1_555
O17F Al1F_2 1_555 1_555
O9D Al1F_2 1_555 1_555
O13_2 Al1F_2 1_555 1_555
O15_2 Al1F_2 1_555 1_555
Al2F_2 O1F 1_555 1_555
O3F Al2F_2 1_555 1_555
O4F Al2F_2 1_555 1_555
O5F Al2F_2 1_555 1_555
O7_2 Al2F_2 1_555 1_555
Al3F O4F 1_555 1_555
O2F Al3F 1_555 1_555
O6F Al3F 1_555 1_555
O16F Al4F 1_555 1_555
O10A Al3F 1_555 1_555
H1F O1F 1_555 1_555
C2F O3F 1_555 1_555
C55F O4F 1_555 1_555
C1F C2F 1_555 1_555
C10F C1F 1_555 1_555
C12F C1F 1_555 1_555
C3F C4F 1_555 1_555
C4F H2F 1_555 1_555
C8F C3F 1_555 1_555
C11F C3F 1_555 1_555
C16F C4F 1_555 1_555
C5F C17F 1_555 1_555
C17F C22F 1_555 1_555
O8F C5F 1_555 1_555
O9F C5F 1_555 1_555
C6F H3F 1_555 1_555
C9F C6F 1_555 1_555
C23F C6F 1_555 1_555
C7F C10F 1_555 1_555
H4F C7F 1_555 1_555
C19F C7F 1_555 1_555
O12F C8F 1_555 1_555
O13F_2 C8F 1_555 1_555
C13F C9F 1_555 1_555
C25F C16F 1_555 1_555
H5F C10F 1_555 1_555
H6F C11F 1_555 1_555
C21F C11F 1_555 1_555
H7F C12F 1_555 1_555
C26F C12F 1_555 1_555
H8F C13F 1_555 1_555
C15F C19F 1_555 1_555
C14F C23F 1_555 1_555
H9F C14F 1_555 1_555
H10F C16F 1_555 1_555
C22F C18F 1_555 1_555
C27F C17F 1_555 1_555
C18F H11F 1_555 1_555
C24F C23F 1_555 1_555
C20F C27F 1_555 1_555
H12F C20F 1_555 1_555
H13F C21F 1_555 1_555
H14F C22F 1_555 1_555
H15F C26F 1_555 1_555
H16F C27F 1_555 1_555
C28F O6F 1_555 1_555
C30F C28F 1_555 1_555
O14F Al4F 1_555 1_555
C29F C30F 1_555 1_555
H17F C29F 1_555 1_555
C34F C29F 1_555 1_555
C32F C30F 1_555 1_555
C31F C34F 1_555 1_555
C33F C32F 1_555 1_555
C41F C31F 1_555 1_555
H18F C32F 1_555 1_555
H19F C33F 1_555 1_555
H20F C34F 1_555 1_555
C35F C41F 1_555 1_555
H21F C35F 1_555 1_555
C38F C35F 1_555 1_555
C36F C38F 1_555 1_555
H22F C36F 1_555 1_555
C39F C36F 1_555 1_555
C37F C41F 1_555 1_555
H23F C37F 1_555 1_555
C53F C38F 1_555 1_555
C40F C39F 1_555 1_555
C45F C40F 1_555 1_555
C46F C40F 1_555 1_555
C42F C43F 1_555 1_555
C43F C45F 1_555 1_555
C44F C46F 1_555 1_555
C48F C42F 1_555 1_555
H24F C43F 1_555 1_555
H25F C44F 1_555 1_555
H26F C45F 1_555 1_555
H27F C46F 1_555 1_555
C47F C49F 1_555 1_555
C49F H28F 1_555 1_555
C51F C47F 1_555 1_555
C54F C47F 1_555 1_555
O10F C48F 1_555 1_555
O11F C48F 1_555 1_555
C52F C53F 1_555 1_555
C50F C53F 1_555 1_555
H29F C50F 1_555 1_555
H30F C51F 1_555 1_555
H31F C52F 1_555 1_555
O7F_2 C54F 1_555 1_555
Al2_2 O7F_2 1_555 1_555
Al4A O8F 1_555 1_555
Al1E O9F 1_555 1_555
Al3A O10F 1_555 1_555
Al4A_2 O11F 1_555 1_555
O15F_2 C54F 1_555 1_555
Al4F_2 O12F 1_555 1_555
Al1_2 O13F_2 1_555 1_555
H32F O16F 1_555 1_555
O8A Al4F 1_555 1_555
O11A Al4F 1_555 1_555
O12F_2 Al4F 1_555 1_555
C63F O17F 1_555 1_555
H33F O18F 1_555 1_555
H34F C55F 1_555 1_555
H35F C55F 1_555 1_555
H36F C55F 1_555 1_555
O19F H37F 1_555 1_555
C61F O19F 1_555 1_555
C56F C57F 1_555 1_555
C57F C58F 1_555 1_555
C60F C61F 1_555 1_555
O21F C56F 1_555 1_555
C58F H38F 1_555 1_555
C65F C57F 1_555 1_555
O20F C58F 1_555 1_555
C59F C60F 1_555 1_555
C64F C63F 1_555 1_555
C62F C63F 1_555 1_555
H39F C62F 1_555 1_555
H40F C64F 1_555 1_555
C66F C65F 1_555 1_555
C70F C65F 1_555 1_555
H41F C66F 1_555 1_555
C67F C66F 1_555 1_555
H42F C67F 1_555 1_555
C68F C67F 1_555 1_555
C69F C70F 1_555 1_555
O22F C68F 1_555 1_555
H43F C69F 1_555 1_555
H44F C70F 1_555 1_555
H45F O22F 1_555 1_555
Al3 O4 1_555 1_555
Al3 O5 1_555 1_555
C7 C10 1_555 1_555
C14 C15 1_555 1_555
C14 C23 1_555 1_555
C15 C19 1_555 1_555
C16 C25 1_555 1_555
C19 C26 1_555 1_555
C20 C24 1_555 1_555
C20 C27 1_555 1_555
C21 C25 1_555 1_555
C23 C24 1_555 1_555
C29 C30 1_555 1_555
C31 C34 1_555 1_555
C35 C41 1_555 1_555
C36 C38 1_555 1_555
C37 C39 1_555 1_555
C37 C41 1_555 1_555
C43 C45 1_555 1_555
C44 C46 1_555 1_555
C50 C51 1_555 1_555
C50 C53 1_555 1_555
C52 C53 1_555 1_555
O15 Al1F 1_555 1_555
O16 Al4 1_555 1_555
C59 C60 1_555 1_555
C60 C61 1_555 1_555
C62 C63 1_555 1_555
C63 C64 1_555 1_555
C69 C70 1_555 1_555
O5F Al3F 1_555 1_555
Al3F O16F 1_555 1_555
O2F C2F 1_555 1_555
C9F C25F 1_555 1_555
C19F C26F 1_555 1_555
C13F C15F 1_555 1_555
C25F C21F 1_555 1_555
C15F C14F 1_555 1_555
C18F C24F 1_555 1_555
C24F C20F 1_555 1_555
C28F O14F 1_555 1_555
C31F C33F 1_555 1_555
C39F C37F 1_555 1_555
C42F C44F 1_555 1_555
C49F C52F 1_555 1_555
C51F C50F 1_555 1_555
O15F_2 Al1_2 1_555 1_555
C61F C62F 1_555 1_555
C56F C60F 1_555 1_555
O20F C59F 1_555 1_555
C59F C64F 1_555 1_555
C68F C69F 1_555 1_555

#END
