
#######################################################################
#
#                 Cambridge Crystallographic Data Centre
#                                CCDC 
#
#######################################################################
#
# If this CIF has been generated from an entry in the Cambridge 
# Structural Database, then it will include bibliographic, chemical, 
# crystal, experimental, refinement or atomic coordinate data resulting 
# from the CCDC's data processing and validation procedures.
#
#######################################################################

data_OTEBAS
_chemical_formula_moiety         '(C136 H88 Al8 O44)n'
_symmetry_cell_setting           tetragonal
_symmetry_space_group_name_H-M   'P 42 21 2'
_symmetry_Int_Tables_number      94
_space_group_name_Hall           'P 4n 2n'
loop_
_symmetry_equiv_pos_site_id
_symmetry_equiv_pos_as_xyz
1 x,y,z
2 1/2-y,1/2+x,1/2+z
3 -x,-y,z
4 1/2+y,1/2-x,1/2+z
5 1/2+x,1/2-y,1/2-z
6 1/2-x,1/2+y,1/2-z
7 y,x,-z
8 -y,-x,-z
_cell_length_a                   18.7200(7)
_cell_length_b                   18.7200(7)
_cell_length_c                   36.8786(15)
_cell_angle_alpha                90
_cell_angle_beta                 90
_cell_angle_gamma                90
_cell_volume                     12923.7
loop_
_atom_site_label
_atom_site_type_symbol
_atom_site_fract_x
_atom_site_fract_y
_atom_site_fract_z
Al1 Al 0.83898(5) 0.83898(5) 0.5000
Al2 Al 0.90826(5) 0.86750(5) 0.41928(2)
Al3 Al 1.0000 1.0000 0.38408(3)
O1 O 0.87684(11) 0.89521(11) 0.46415(5)
H1 H 0.8806 0.9447 0.4695
O2 O 0.98128(11) 0.93238(12) 0.41917(5)
H2 H 1.0129 0.9311 0.4393
O3 O 0.84114(12) 0.93377(13) 0.39669(5)
C1 C 0.84681(18) 0.9963(2) 0.38538(8)
C2 C 0.54400(19) 1.3709(2) 0.15416(9)
C3 C 0.29055(18) 1.20582(19) 0.41150(8)
C4 C 0.22483(17) 1.20184(17) 0.43329(8)
O4 O 0.90497(12) 1.03039(13) 0.38133(6)
C5 C 0.3478(2) 1.2035(2) 0.35324(10)
H3 H 0.3444 1.2039 0.3275
C6 C 0.5794(2) 1.2689(2) 0.19454(10)
H4 H 0.6025 1.2474 0.1743
C7 C 0.2863(2) 1.2055(2) 0.37410(9)
H5 H 0.2409 1.2068 0.3626
C8 C 0.78243(18) 1.0358(2) 0.37434(9)
C9 C 0.35685(19) 1.2045(2) 0.42818(9)
H6 H 0.3600 1.2051 0.4539
C10 C 0.4181(2) 1.2024(3) 0.40759(10)
H7 H 0.4633 1.2020 0.4193
C11 C 0.71326(19) 1.0087(2) 0.37916(10)
H8 H 0.7072 0.9634 0.3903
C12 C 0.5108(2) 1.3648(2) 0.22008(9)
H9 H 0.4853 1.4084 0.2174
C13 C 0.4148(2) 1.2009(3) 0.36981(9)
C14 C 0.5380(2) 1.1572(3) 0.35967(12)
H10 H 0.5365 1.1339 0.3826
C15 C 0.5805(2) 1.2357(3) 0.22729(11)
H11 H 0.6045 1.1913 0.2298
C16 C 0.5457(2) 1.2669(3) 0.25800(12)
C17 C 0.54447(19) 1.3351(2) 0.19028(9)
C18 C 0.6622(2) 1.1105(3) 0.35102(12)
C19 C 0.5994(2) 1.1515(3) 0.33714(12)
C20 C 0.6550(2) 1.0457(3) 0.36822(10)
H12 H 0.6087 1.0267 0.3724
C21 C 0.5437(2) 1.2294(3) 0.29298(12)
C22 C 0.7897(2) 1.1004(3) 0.35655(12)
H13 H 0.8360 1.1187 0.3516
C23 C 0.5135(3) 1.3317(3) 0.25408(12)
H14 H 0.4928 1.3546 0.2745
C24 C 0.6037(2) 1.1897(3) 0.30508(11)
H15 H 0.6465 1.1893 0.2913
C25 C 0.4805(2) 1.1972(3) 0.34766(11)
C26 C 0.7302(2) 1.1386(3) 0.34589(13)
H16 H 0.7357 1.1842 0.3350
C27 C 0.4852(2) 1.2332(3) 0.31498(11)
H17 H 0.4459 1.2619 0.3075
O5 O 0.16579(11) 1.19948(12) 0.41544(6)
O6 O 0.96880(13) 0.79533(13) 0.43875(7)
O7 O 0.90697(14) 0.76555(12) 0.48885(6)
O8 O 0.51993(14) 1.43374(14) 0.15356(6)
O9 O 0.22981(12) 1.19870(13) 0.46712(6)
O10 O 0.56651(13) 1.33586(15) 0.12777(6)
C28 C 0.9575(2) 0.7578(2) 0.46697(11)
C29 C 1.0504(8) 0.6741(8) 0.4520(5)
H18 H 1.0568 0.7004 0.4302
C30 C 0.9967(7) 0.6909(6) 0.4748(4)
C31 C 0.9867(7) 0.6468(6) 0.5051(3)
H19 H 0.9489 0.6576 0.5214
C32 C 1.0294(7) 0.5879(7) 0.5122(4)
H20 H 1.0197 0.5568 0.5320
C33 C 1.0866(7) 0.5766(7) 0.4895(4)
H21 H 1.1188 0.5388 0.4948
C34 C 1.0981(7) 0.6158(7) 0.4608(4)
O11 O 1.1630(6) 0.6078(6) 0.4410(3)
H22 H 1.1962 0.5973 0.4554
Al2B Al 0.09174(5) 1.13250(5) 0.41928(2)
O1B O 0.12316(11) 1.10479(11) 0.46415(5)
H1B H 0.1194 1.0553 0.4695
O2B O 0.01872(11) 1.06762(12) 0.41917(5)
H2B H -0.0129 1.0689 0.4393
O3B O 0.15886(12) 1.06623(13) 0.39669(5)
C1B C 0.15319(18) 1.0037(2) 0.38538(8)
C2B C 0.45600(19) 0.6291(2) 0.15416(9)
C3B C 0.70945(18) 0.79418(19) 0.41150(8)
C4B C 0.77517(17) 0.79816(17) 0.43329(8)
O4B O 0.09503(12) 0.96961(13) 0.38133(6)
C5B C 0.6522(2) 0.7965(2) 0.35324(10)
H3B H 0.6556 0.7961 0.3275
C6B C 0.4206(2) 0.7311(2) 0.19454(10)
H4B H 0.3975 0.7526 0.1743
C7B C 0.7137(2) 0.7945(2) 0.37410(9)
H5B H 0.7591 0.7932 0.3626
C8B C 0.21757(18) 0.9642(2) 0.37434(9)
C9B C 0.64315(19) 0.7955(2) 0.42818(9)
H6B H 0.6400 0.7949 0.4539
C10B C 0.5819(2) 0.7976(3) 0.40759(10)
H7B H 0.5367 0.7980 0.4193
C11B C 0.28674(19) 0.9913(2) 0.37916(10)
H8B H 0.2928 1.0366 0.3903
C12B C 0.4892(2) 0.6352(2) 0.22008(9)
H9B H 0.5147 0.5916 0.2174
C13B C 0.5852(2) 0.7991(3) 0.36981(9)
C14B C 0.4620(2) 0.8428(3) 0.35967(12)
H10B H 0.4635 0.8661 0.3826
C15B C 0.4195(2) 0.7643(3) 0.22729(11)
H11B H 0.3955 0.8087 0.2298
C16B C 0.4543(2) 0.7331(3) 0.25800(12)
C17B C 0.45553(19) 0.6649(2) 0.19028(9)
C18B C 0.3378(2) 0.8895(3) 0.35102(12)
C19B C 0.4006(2) 0.8485(3) 0.33714(12)
C20B C 0.3450(2) 0.9543(3) 0.36822(10)
H12B H 0.3913 0.9733 0.3724
C21B C 0.4563(2) 0.7706(3) 0.29298(12)
C22B C 0.2103(2) 0.8996(3) 0.35655(12)
H13B H 0.1640 0.8813 0.3516
C23B C 0.4865(3) 0.6683(3) 0.25408(12)
H14B H 0.5072 0.6454 0.2745
C24B C 0.3963(2) 0.8103(3) 0.30508(11)
H15B H 0.3535 0.8107 0.2913
C25B C 0.5195(2) 0.8028(3) 0.34766(11)
C26B C 0.2698(2) 0.8614(3) 0.34589(13)
H16B H 0.2643 0.8158 0.3350
C27B C 0.5148(2) 0.7668(3) 0.31498(11)
H17B H 0.5541 0.7381 0.3075
O5B O 0.83421(11) 0.80052(12) 0.41544(6)
O6B O 0.03120(13) 1.20467(13) 0.43875(7)
O7B O 0.09303(14) 1.23445(12) 0.48885(6)
O8B O 0.48007(14) 0.56626(14) 0.15356(6)
O9B O 0.77019(12) 0.80130(13) 0.46712(6)
O10B O 0.43349(13) 0.66414(15) 0.12777(6)
C28B C 0.0425(2) 1.2422(2) 0.46697(11)
C29B C -0.0504(8) 1.3259(8) 0.4520(5)
H18B H -0.0568 1.2996 0.4302
C30B C 0.0033(7) 1.3091(6) 0.4748(4)
C31B C 0.0133(7) 1.3532(6) 0.5051(3)
H19B H 0.0511 1.3424 0.5214
C32B C -0.0294(7) 1.4121(7) 0.5122(4)
H20B H -0.0197 1.4432 0.5320
C33B C -0.0866(7) 1.4234(7) 0.4895(4)
H21B H -0.1188 1.4612 0.4948
C34B C -0.0981(7) 1.3842(7) 0.4608(4)
O11B O -0.1630(6) 1.3922(6) 0.4410(3)
H22B H -0.1962 1.4027 0.4554
Al1B Al 0.16102(5) 1.16102(5) 0.5000
Al2D Al 0.40826(5) 0.63250(5) 0.08072(2)
Al2E Al 0.59174(5) 1.36750(5) 0.08072(2)
Al3_2 Al -0.0000 1.0000 0.38408(3)
Al3D Al 0.5000 0.5000 0.11592(3)
Al3D_2 Al 0.5000 1.5000 0.11592(3)
O1F O 0.89521(11) 0.87684(11) 0.53585(5)
O2B_2 O 1.01872(11) 1.06762(12) 0.41917(5)
O4B_2 O 1.09503(12) 0.96961(13) 0.38133(6)
O7F O 0.76555(12) 0.90697(14) 0.51115(6)
O8D O 1.01993(14) 1.06626(14) 0.34644(6)
O8E O 0.98007(14) 0.93374(14) 0.34644(6)
O9G O 0.80130(13) 0.77019(12) 0.53288(6)
O10D O 0.06651(13) 1.16414(15) 0.37223(6)
O10E O 0.93349(13) 0.83586(15) 0.37223(6)
Al1_2 Al 1.83898(5) 0.83898(5) 0.5000
O1_2 O 1.87684(11) 0.89521(11) 0.46415(5)
O7_2 O 1.90697(14) 0.76555(12) 0.48885(6)
O9B_2 O 1.77019(12) 0.80130(13) 0.46712(6)
O1F_2 O 1.89521(11) 0.87684(11) 0.53585(5)
O7F_2 O 1.76555(12) 0.90697(14) 0.51115(6)
O9G_2 O 1.80130(13) 0.77019(12) 0.53288(6)
Al2_2 Al 1.90826(5) 0.86750(5) 0.41928(2)
O2_2 O 1.98128(11) 0.93238(12) 0.41917(5)
O3_2 O 1.84114(12) 0.93377(13) 0.39669(5)
O6_2 O 1.96880(13) 0.79533(13) 0.43875(7)
O5B_2 O 1.83421(11) 0.80052(12) 0.41544(6)
O10E_2 O 1.93349(13) 0.83586(15) 0.37223(6)
Al3_3 Al 2.0000 1.0000 0.38408(3)
O4_2 O 1.90497(12) 1.03039(13) 0.38133(6)
O2B_3 O 2.01872(11) 1.06762(12) 0.41917(5)
O4B_3 O 2.09503(12) 0.96961(13) 0.38133(6)
O8D_2 O 2.01993(14) 1.06626(14) 0.34644(6)
O8E_2 O 1.98007(14) 0.93374(14) 0.34644(6)
H1_2 H 1.8806 0.9447 0.4695
H2_2 H 2.0129 0.9311 0.4393
C1_2 C 1.84681(18) 0.9963(2) 0.38538(8)
C8_2 C 1.78243(18) 1.0358(2) 0.37434(9)
C2_2 C 1.54400(19) 1.3709(2) 0.15416(9)
C17_2 C 1.54447(19) 1.3351(2) 0.19028(9)
O8_2 O 1.51993(14) 1.43374(14) 0.15356(6)
O10_2 O 1.56651(13) 1.33586(15) 0.12777(6)
C3_2 C 1.29055(18) 1.20582(19) 0.41150(8)
C4_2 C 1.22483(17) 1.20184(17) 0.43329(8)
C7_2 C 1.2863(2) 1.2055(2) 0.37410(9)
C9_2 C 1.35685(19) 1.2045(2) 0.42818(9)
O5_2 O 1.16579(11) 1.19948(12) 0.41544(6)
O9_2 O 1.22981(12) 1.19870(13) 0.46712(6)
C5_2 C 1.3478(2) 1.2035(2) 0.35324(10)
H3_2 H 1.3444 1.2039 0.3275
C13_2 C 1.4148(2) 1.2009(3) 0.36981(9)
C6_2 C 1.5794(2) 1.2689(2) 0.19454(10)
H4_2 H 1.6025 1.2474 0.1743
C15_2 C 1.5805(2) 1.2357(3) 0.22729(11)
H5_2 H 1.2409 1.2068 0.3626
C11_2 C 1.71326(19) 1.0087(2) 0.37916(10)
C22_2 C 1.7897(2) 1.1004(3) 0.35655(12)
H6_2 H 1.3600 1.2051 0.4539
C10_2 C 1.4181(2) 1.2024(3) 0.40759(10)
H7_2 H 1.4633 1.2020 0.4193
H8_2 H 1.7072 0.9634 0.3903
C20_2 C 1.6550(2) 1.0457(3) 0.36822(10)
C12_2 C 1.5108(2) 1.3648(2) 0.22008(9)
H9_2 H 1.4853 1.4084 0.2174
C23_2 C 1.5135(3) 1.3317(3) 0.25408(12)
C25_2 C 1.4805(2) 1.1972(3) 0.34766(11)
C14_2 C 1.5380(2) 1.1572(3) 0.35967(12)
H10_2 H 1.5365 1.1339 0.3826
C19_2 C 1.5994(2) 1.1515(3) 0.33714(12)
H11_2 H 1.6045 1.1913 0.2298
C16_2 C 1.5457(2) 1.2669(3) 0.25800(12)
C21_2 C 1.5437(2) 1.2294(3) 0.29298(12)
C18_2 C 1.6622(2) 1.1105(3) 0.35102(12)
C26_2 C 1.7302(2) 1.1386(3) 0.34589(13)
C24_2 C 1.6037(2) 1.1897(3) 0.30508(11)
H12_2 H 1.6087 1.0267 0.3724
C27_2 C 1.4852(2) 1.2332(3) 0.31498(11)
H13_2 H 1.8360 1.1187 0.3516
H14_2 H 1.4928 1.3546 0.2745
H15_2 H 1.6465 1.1893 0.2913
H16_2 H 1.7357 1.1842 0.3350
H17_2 H 1.4459 1.2619 0.3075
Al2B_2 Al 1.09174(5) 1.13250(5) 0.41928(2)
C28_2 C 1.9575(2) 0.7578(2) 0.46697(11)
Al3D_3 Al 1.5000 1.5000 0.11592(3)
Al1B_2 Al 1.16102(5) 1.16102(5) 0.5000
Al2E_2 Al 1.59174(5) 1.36750(5) 0.08072(2)
C30_2 C 1.9967(7) 0.6909(6) 0.4748(4)
C29_2 C 2.0504(8) 0.6741(8) 0.4520(5)
H18_2 H 2.0568 0.7004 0.4302
C34_2 C 2.0981(7) 0.6158(7) 0.4608(4)
C31_2 C 1.9867(7) 0.6468(6) 0.5051(3)
H19_2 H 1.9489 0.6576 0.5214
C32_2 C 2.0294(7) 0.5879(7) 0.5122(4)
H20_2 H 2.0197 0.5568 0.5320
C33_2 C 2.0866(7) 0.5766(7) 0.4895(4)
H21_2 H 2.1188 0.5388 0.4948
O11_2 O 2.1630(6) 0.6078(6) 0.4410(3)
H22_2 H 2.1962 0.5973 0.4554
O1B_2 O 1.12316(11) 1.10479(11) 0.46415(5)
O3B_2 O 1.15886(12) 1.06623(13) 0.39669(5)
O6B_2 O 1.03120(13) 1.20467(13) 0.43875(7)
O10D_2 O 1.06651(13) 1.16414(15) 0.37223(6)
H1B_2 H 1.1194 1.0553 0.4695
H2B_2 H 0.9871 1.0689 0.4393
C1B_2 C 1.15319(18) 1.0037(2) 0.38538(8)
C8B_2 C 1.21757(18) 0.9642(2) 0.37434(9)
C2B_2 C 1.45600(19) 0.6291(2) 0.15416(9)
C17B_2 C 1.45553(19) 0.6649(2) 0.19028(9)
O8B_2 O 1.48007(14) 0.56626(14) 0.15356(6)
O10B_2 O 1.43349(13) 0.66414(15) 0.12777(6)
C3B_2 C 1.70945(18) 0.79418(19) 0.41150(8)
C4B_2 C 1.77517(17) 0.79816(17) 0.43329(8)
C7B_2 C 1.7137(2) 0.7945(2) 0.37410(9)
C9B_2 C 1.64315(19) 0.7955(2) 0.42818(9)
C5B_2 C 1.6522(2) 0.7965(2) 0.35324(10)
H3B_2 H 1.6556 0.7961 0.3275
C13B_2 C 1.5852(2) 0.7991(3) 0.36981(9)
C6B_2 C 1.4206(2) 0.7311(2) 0.19454(10)
H4B_2 H 1.3975 0.7526 0.1743
C15B_2 C 1.4195(2) 0.7643(3) 0.22729(11)
H5B_2 H 1.7591 0.7932 0.3626
C11B_2 C 1.28674(19) 0.9913(2) 0.37916(10)
C22B_2 C 1.2103(2) 0.8996(3) 0.35655(12)
H6B_2 H 1.6400 0.7949 0.4539
C10B_2 C 1.5819(2) 0.7976(3) 0.40759(10)
H7B_2 H 1.5367 0.7980 0.4193
H8B_2 H 1.2928 1.0366 0.3903
C20B_2 C 1.3450(2) 0.9543(3) 0.36822(10)
C12B_2 C 1.4892(2) 0.6352(2) 0.22008(9)
H9B_2 H 1.5147 0.5916 0.2174
C23B_2 C 1.4865(3) 0.6683(3) 0.25408(12)
C25B_2 C 1.5195(2) 0.8028(3) 0.34766(11)
C14B_2 C 1.4620(2) 0.8428(3) 0.35967(12)
H10B_2 H 1.4635 0.8661 0.3826
C19B_2 C 1.4006(2) 0.8485(3) 0.33714(12)
H11B_2 H 1.3955 0.8087 0.2298
C16B_2 C 1.4543(2) 0.7331(3) 0.25800(12)
C21B_2 C 1.4563(2) 0.7706(3) 0.29298(12)
C18B_2 C 1.3378(2) 0.8895(3) 0.35102(12)
C26B_2 C 1.2698(2) 0.8614(3) 0.34589(13)
C24B_2 C 1.3963(2) 0.8103(3) 0.30508(11)
H12B_2 H 1.3913 0.9733 0.3724
C27B_2 C 1.5148(2) 0.7668(3) 0.31498(11)
H13B_2 H 1.1640 0.8813 0.3516
H14B_2 H 1.5072 0.6454 0.2745
H15B_2 H 1.3535 0.8107 0.2913
H16B_2 H 1.2643 0.8158 0.3350
H17B_2 H 1.5541 0.7381 0.3075
C28B_2 C 1.0425(2) 1.2422(2) 0.46697(11)
O7B_2 O 1.09303(14) 1.23445(12) 0.48885(6)
Al3D_4 Al 1.5000 0.5000 0.11592(3)
Al2D_2 Al 1.40826(5) 0.63250(5) 0.08072(2)
C30B_2 C 1.0033(7) 1.3091(6) 0.4748(4)
C29B_2 C 0.9496(8) 1.3259(8) 0.4520(5)
H18B_2 H 0.9432 1.2996 0.4302
C34B_2 C 0.9019(7) 1.3842(7) 0.4608(4)
C31B_2 C 1.0133(7) 1.3532(6) 0.5051(3)
H19B_2 H 1.0511 1.3424 0.5214
C32B_2 C 0.9706(7) 1.4121(7) 0.5122(4)
H20B_2 H 0.9803 1.4432 0.5320
C33B_2 C 0.9134(7) 1.4234(7) 0.4895(4)
H21B_2 H 0.8812 1.4612 0.4948
O11B_2 O 0.8370(6) 1.3922(6) 0.4410(3)
H22B_2 H 0.8038 1.4027 0.4554
loop_
_geom_bond_atom_site_label_1
_geom_bond_atom_site_label_2
_geom_bond_site_symmetry_1
_geom_bond_site_symmetry_2
Al1 O1 1_555 1_555
Al2 O1 1_555 1_555
Al3 O2 1_555 1_555
O1 H1 1_555 1_555
O2 Al2 1_555 1_555
H2 O2 1_555 1_555
O3 Al2 1_555 1_555
C1 O3 1_555 1_555
C2 C17 1_555 1_555
C3 C4 1_555 1_555
C4 O5 1_555 1_555
O4 Al3 1_555 1_555
C5 H3 1_555 1_555
C6 H4 1_555 1_555
C7 C3 1_555 1_555
H5 C7 1_555 1_555
C8 C1 1_555 1_555
C9 C3 1_555 1_555
H6 C9 1_555 1_555
C10 C9 1_555 1_555
H7 C10 1_555 1_555
C11 C8 1_555 1_555
H8 C11 1_555 1_555
C12 H9 1_555 1_555
C13 C5 1_555 1_555
C14 H10 1_555 1_555
C15 C6 1_555 1_555
H11 C15 1_555 1_555
C16 C15 1_555 1_555
C17 C6 1_555 1_555
C18 C19 1_555 1_555
C19 C14 1_555 1_555
C20 C11 1_555 1_555
H12 C20 1_555 1_555
C21 C16 1_555 1_555
C22 C8 1_555 1_555
H13 C22 1_555 1_555
C23 C12 1_555 1_555
H14 C23 1_555 1_555
C24 C19 1_555 1_555
H15 C24 1_555 1_555
C25 C13 1_555 1_555
C26 C18 1_555 1_555
H16 C26 1_555 1_555
C27 C21 1_555 1_555
H17 C27 1_555 1_555
O5 Al2B 1_555 1_555
O6 Al2 1_555 1_555
O7 Al1 1_555 1_555
O8 C2 1_555 1_555
O9 C4 1_555 1_555
O10 C2 1_555 1_555
C28 O6 1_555 1_555
C29 H18 1_555 1_555
C30 C28 1_555 1_555
C31 C30 1_555 1_555
H19 C31 1_555 1_555
C32 C31 1_555 1_555
H20 C32 1_555 1_555
C33 C32 1_555 1_555
H21 C33 1_555 1_555
C34 C29 1_555 1_555
O11 C34 1_555 1_555
H22 O11 1_555 1_555
Al2B O1B 1_555 1_555
O1B H1B 1_555 1_555
O2B Al2B 1_555 1_555
H2B O2B 1_555 1_555
O3B Al2B 1_555 1_555
C1B O3B 1_555 1_555
C2B C17B 1_555 1_555
C3B C4B 1_555 1_555
C4B O5B 1_555 1_555
O4B C1B 1_555 1_555
C5B H3B 1_555 1_555
C6B H4B 1_555 1_555
C7B C3B 1_555 1_555
H5B C7B 1_555 1_555
C8B C1B 1_555 1_555
C9B C3B 1_555 1_555
H6B C9B 1_555 1_555
C10B C9B 1_555 1_555
H7B C10B 1_555 1_555
C11B C8B 1_555 1_555
H8B C11B 1_555 1_555
C12B H9B 1_555 1_555
C13B C5B 1_555 1_555
C14B H10B 1_555 1_555
C15B C6B 1_555 1_555
H11B C15B 1_555 1_555
C16B C15B 1_555 1_555
C17B C6B 1_555 1_555
C18B C19B 1_555 1_555
C19B C14B 1_555 1_555
C20B C11B 1_555 1_555
H12B C20B 1_555 1_555
C21B C16B 1_555 1_555
C22B C8B 1_555 1_555
H13B C22B 1_555 1_555
C23B C12B 1_555 1_555
H14B C23B 1_555 1_555
C24B C19B 1_555 1_555
H15B C24B 1_555 1_555
C25B C13B 1_555 1_555
C26B C18B 1_555 1_555
H16B C26B 1_555 1_555
C27B C21B 1_555 1_555
H17B C27B 1_555 1_555
O5B Al2 1_555 1_555
O6B Al2B 1_555 1_555
O7B C28B 1_555 1_555
O8B C2B 1_555 1_555
O9B Al1 1_555 1_555
O10B C2B 1_555 1_555
C28B O6B 1_555 1_555
C29B H18B 1_555 1_555
C30B C28B 1_555 1_555
C31B C30B 1_555 1_555
H19B C31B 1_555 1_555
C32B C31B 1_555 1_555
H20B C32B 1_555 1_555
C33B C32B 1_555 1_555
H21B C33B 1_555 1_555
C34B C29B 1_555 1_555
O11B C34B 1_555 1_555
H22B O11B 1_555 1_555
Al1B O9 1_555 1_555
Al2D O10B 1_555 1_555
Al2E O10 1_555 1_555
Al3_2 O2B 1_555 1_555
Al3D O8B 1_555 1_555
Al3D_2 O8 1_555 1_555
O1F Al1 1_555 1_555
O2B_2 Al3 1_555 1_555
O4B_2 Al3 1_555 1_555
O7F Al1 1_555 1_555
O8D Al3 1_555 1_555
O8E Al3 1_555 1_555
O9G Al1 1_555 1_555
O10D Al2B 1_555 1_555
O10E Al2 1_555 1_555
Al1_2 O1_2 1_555 1_555
O1_2 Al2_2 1_555 1_555
O7_2 Al1_2 1_555 1_555
O9B_2 Al1_2 1_555 1_555
O1F_2 Al1_2 1_555 1_555
O7F_2 Al1_2 1_555 1_555
O9G_2 Al1_2 1_555 1_555
Al2_2 O2_2 1_555 1_555
O2_2 Al3_3 1_555 1_555
O3_2 Al2_2 1_555 1_555
O6_2 Al2_2 1_555 1_555
O5B_2 Al2_2 1_555 1_555
O10E_2 Al2_2 1_555 1_555
Al3_3 O4_2 1_555 1_555
O4_2 C1_2 1_555 1_555
O2B_3 Al3_3 1_555 1_555
O4B_3 Al3_3 1_555 1_555
O8D_2 Al3_3 1_555 1_555
O8E_2 Al3_3 1_555 1_555
H1_2 O1_2 1_555 1_555
H2_2 O2_2 1_555 1_555
C1_2 O3_2 1_555 1_555
C8_2 C1_2 1_555 1_555
C2_2 C17_2 1_555 1_555
C17_2 C6_2 1_555 1_555
O8_2 C2_2 1_555 1_555
O10_2 C2_2 1_555 1_555
C3_2 C4_2 1_555 1_555
C4_2 O5_2 1_555 1_555
C7_2 C3_2 1_555 1_555
C9_2 C3_2 1_555 1_555
O5_2 Al2B_2 1_555 1_555
O9_2 C4_2 1_555 1_555
C5_2 C7_2 1_555 1_555
H3_2 C5_2 1_555 1_555
C13_2 C5_2 1_555 1_555
C6_2 H4_2 1_555 1_555
C15_2 C6_2 1_555 1_555
H5_2 C7_2 1_555 1_555
C11_2 C8_2 1_555 1_555
C22_2 C8_2 1_555 1_555
H6_2 C9_2 1_555 1_555
C10_2 C9_2 1_555 1_555
H7_2 C10_2 1_555 1_555
H8_2 C11_2 1_555 1_555
C20_2 C11_2 1_555 1_555
C12_2 C17_2 1_555 1_555
H9_2 C12_2 1_555 1_555
C23_2 C12_2 1_555 1_555
C25_2 C13_2 1_555 1_555
C14_2 C25_2 1_555 1_555
H10_2 C14_2 1_555 1_555
C19_2 C14_2 1_555 1_555
H11_2 C15_2 1_555 1_555
C16_2 C15_2 1_555 1_555
C21_2 C16_2 1_555 1_555
C18_2 C20_2 1_555 1_555
C26_2 C22_2 1_555 1_555
C24_2 C19_2 1_555 1_555
H12_2 C20_2 1_555 1_555
C27_2 C25_2 1_555 1_555
H13_2 C22_2 1_555 1_555
H14_2 C23_2 1_555 1_555
H15_2 C24_2 1_555 1_555
H16_2 C26_2 1_555 1_555
H17_2 C27_2 1_555 1_555
Al2B_2 O2B_2 1_555 1_555
C28_2 O7_2 1_555 1_555
Al3D_3 O8_2 1_555 1_555
Al1B_2 O9_2 1_555 1_555
Al2E_2 O10_2 1_555 1_555
C30_2 C28_2 1_555 1_555
C29_2 C30_2 1_555 1_555
H18_2 C29_2 1_555 1_555
C34_2 C29_2 1_555 1_555
C31_2 C30_2 1_555 1_555
H19_2 C31_2 1_555 1_555
C32_2 C31_2 1_555 1_555
H20_2 C32_2 1_555 1_555
C33_2 C34_2 1_555 1_555
H21_2 C33_2 1_555 1_555
O11_2 C34_2 1_555 1_555
H22_2 O11_2 1_555 1_555
O1B_2 Al2B_2 1_555 1_555
O3B_2 Al2B_2 1_555 1_555
O6B_2 Al2B_2 1_555 1_555
O10D_2 Al2B_2 1_555 1_555
H1B_2 O1B_2 1_555 1_555
H2B_2 O2B_2 1_555 1_555
C1B_2 O4B_2 1_555 1_555
C8B_2 C1B_2 1_555 1_555
C2B_2 C17B_2 1_555 1_555
C17B_2 C6B_2 1_555 1_555
O8B_2 C2B_2 1_555 1_555
O10B_2 C2B_2 1_555 1_555
C3B_2 C4B_2 1_555 1_555
C4B_2 O9B_2 1_555 1_555
C7B_2 C3B_2 1_555 1_555
C9B_2 C3B_2 1_555 1_555
C5B_2 C7B_2 1_555 1_555
H3B_2 C5B_2 1_555 1_555
C13B_2 C5B_2 1_555 1_555
C6B_2 H4B_2 1_555 1_555
C15B_2 C6B_2 1_555 1_555
H5B_2 C7B_2 1_555 1_555
C11B_2 C8B_2 1_555 1_555
C22B_2 C8B_2 1_555 1_555
H6B_2 C9B_2 1_555 1_555
C10B_2 C9B_2 1_555 1_555
H7B_2 C10B_2 1_555 1_555
H8B_2 C11B_2 1_555 1_555
C20B_2 C11B_2 1_555 1_555
C12B_2 C17B_2 1_555 1_555
H9B_2 C12B_2 1_555 1_555
C23B_2 C12B_2 1_555 1_555
C25B_2 C13B_2 1_555 1_555
C14B_2 C25B_2 1_555 1_555
H10B_2 C14B_2 1_555 1_555
C19B_2 C14B_2 1_555 1_555
H11B_2 C15B_2 1_555 1_555
C16B_2 C15B_2 1_555 1_555
C21B_2 C16B_2 1_555 1_555
C18B_2 C20B_2 1_555 1_555
C26B_2 C22B_2 1_555 1_555
C24B_2 C19B_2 1_555 1_555
H12B_2 C20B_2 1_555 1_555
C27B_2 C25B_2 1_555 1_555
H13B_2 C22B_2 1_555 1_555
H14B_2 C23B_2 1_555 1_555
H15B_2 C24B_2 1_555 1_555
H16B_2 C26B_2 1_555 1_555
H17B_2 C27B_2 1_555 1_555
C28B_2 O6B_2 1_555 1_555
O7B_2 Al1B_2 1_555 1_555
Al3D_4 O8B_2 1_555 1_555
Al2D_2 O10B_2 1_555 1_555
C30B_2 C28B_2 1_555 1_555
C29B_2 C30B_2 1_555 1_555
H18B_2 C29B_2 1_555 1_555
C34B_2 C29B_2 1_555 1_555
C31B_2 C30B_2 1_555 1_555
H19B_2 C31B_2 1_555 1_555
C32B_2 C31B_2 1_555 1_555
H20B_2 C32B_2 1_555 1_555
C33B_2 C34B_2 1_555 1_555
H21B_2 C33B_2 1_555 1_555
O11B_2 C34B_2 1_555 1_555
H22B_2 O11B_2 1_555 1_555
C1 O4 1_555 1_555
C5 C7 1_555 1_555
C10 C13 1_555 1_555
C12 C17 1_555 1_555
C14 C25 1_555 1_555
C16 C23 1_555 1_555
C18 C20 1_555 1_555
C21 C24 1_555 1_555
C22 C26 1_555 1_555
C25 C27 1_555 1_555
O7 C28 1_555 1_555
C29 C30 1_555 1_555
C33 C34 1_555 1_555
O1B Al1B 1_555 1_555
C4B O9B 1_555 1_555
O4B Al3_2 1_555 1_555
C5B C7B 1_555 1_555
C10B C13B 1_555 1_555
C12B C17B 1_555 1_555
C14B C25B 1_555 1_555
C16B C23B 1_555 1_555
C18B C20B 1_555 1_555
C21B C24B 1_555 1_555
C22B C26B 1_555 1_555
C25B C27B 1_555 1_555
O7B Al1B 1_555 1_555
C29B C30B 1_555 1_555
C33B C34B 1_555 1_555
O6_2 C28_2 1_555 1_555
O5B_2 C4B_2 1_555 1_555
C13_2 C10_2 1_555 1_555
C23_2 C16_2 1_555 1_555
C19_2 C18_2 1_555 1_555
C21_2 C24_2 1_555 1_555
C21_2 C27_2 1_555 1_555
C18_2 C26_2 1_555 1_555
Al1B_2 O1B_2 1_555 1_555
C32_2 C33_2 1_555 1_555
O3B_2 C1B_2 1_555 1_555
C13B_2 C10B_2 1_555 1_555
C23B_2 C16B_2 1_555 1_555
C19B_2 C18B_2 1_555 1_555
C21B_2 C24B_2 1_555 1_555
C21B_2 C27B_2 1_555 1_555
C18B_2 C26B_2 1_555 1_555
C28B_2 O7B_2 1_555 1_555
C32B_2 C33B_2 1_555 1_555

#END
