
#######################################################################
#
#                 Cambridge Crystallographic Data Centre
#                                CCDC 
#
#######################################################################
#
# If this CIF has been generated from an entry in the Cambridge 
# Structural Database, then it will include bibliographic, chemical, 
# crystal, experimental, refinement or atomic coordinate data resulting 
# from the CCDC's data processing and validation procedures.
#
#######################################################################

data_OTECIB
_chemical_formula_moiety         'C136 H86 Al24 N4 O62'
_symmetry_cell_setting           tetragonal
_symmetry_space_group_name_H-M   'P 43 21 2'
_symmetry_Int_Tables_number      96
_space_group_name_Hall           'P 4nw 2abw'
loop_
_symmetry_equiv_pos_site_id
_symmetry_equiv_pos_as_xyz
1 x,y,z
2 1/2-y,1/2+x,3/4+z
3 -x,-y,1/2+z
4 1/2+y,1/2-x,1/4+z
5 1/2+x,1/2-y,1/4-z
6 1/2-x,1/2+y,3/4-z
7 y,x,-z
8 -y,-x,1/2-z
_cell_length_a                   19.342(5)
_cell_length_b                   19.342(5)
_cell_length_c                   70.335(17)
_cell_angle_alpha                90
_cell_angle_beta                 90
_cell_angle_gamma                90
_cell_volume                     26313.2
loop_
_atom_site_label
_atom_site_type_symbol
_atom_site_fract_x
_atom_site_fract_y
_atom_site_fract_z
Al1 Al 0.60865(7) 0.59936(8) 0.29085(2)
Al2 Al 0.34089(7) 0.33504(7) 0.25069(2)
Al3 Al 0.50649(6) 0.47406(8) 0.30607(2)
Al4 Al 0.39314(7) 0.36361(8) 0.28917(2)
O1 O 0.46909(14) 0.42229(16) 0.28679(4)
H1 H 0.4879 0.4253 0.2759
O2 O 0.52908(14) 0.54735(16) 0.29042(4)
H2 H 0.4993 0.5583 0.2821
O3 O 0.48787(17) 0.4020(2) 0.32374(4)
O4 O 0.43555(19) 0.31337(19) 0.30865(5)
O5 O 0.54112(17) 0.5209(2) 0.32785(4)
C1 C 0.2344(2) 0.7891(3) 0.46647(8)
C2 C 0.7559(3) 0.1554(3) 0.46703(8)
C3 C 0.3016(3) 0.7705(3) 0.45834(7)
C4 C 0.6926(3) 0.1499(4) 0.43692(8)
H3 H 0.7357 0.1464 0.4305
C5 C 0.6902(3) 0.1552(3) 0.45689(7)
C6 C 0.3068(3) 0.7691(3) 0.43749(7)
H4 H 0.2672 0.7758 0.4297
C7 C 0.5680(3) 0.7053(4) 0.40454(9)
O6 O 0.60308(19) 0.6110(2) 0.31731(5)
C8 C 0.4625(3) 0.3007(4) 0.34080(8)
C9 C 0.5760(3) 0.6073(3) 0.34988(7)
C10 C 0.3600(3) 0.7613(3) 0.46886(7)
H5 H 0.3570 0.7614 0.4823
C11 C 0.6123(3) 0.6674(3) 0.35374(8)
H6 H 0.6389 0.6878 0.3439
C12 C 0.5714(3) 0.5767(3) 0.33049(7)
C13 C 0.4285(2) 0.7501(3) 0.44044(7)
C14 C 0.5051(3) 0.7088(3) 0.41404(8)
H7 H 0.4664 0.6846 0.4091
C15 C 0.5543(3) 0.7850(4) 0.43792(8)
H8 H 0.5494 0.8121 0.4491
C16 C 0.6756(2) 0.8275(3) 0.43556(8)
C17 C 0.7191(3) 0.9348(3) 0.44825(8)
H9 H 0.7095 0.9792 0.4534
C18 C 0.6647(3) 0.8896(4) 0.44316(9)
H10 H 0.6185 0.9041 0.4452
C19 C 0.3685(3) 0.7584(4) 0.42988(7)
H11 H 0.3719 0.7562 0.4164
C20 C 0.7973(3) 0.8444(3) 0.43830(8)
H12 H 0.8429 0.8262 0.4374
C21 C 0.6114(3) 0.6985(4) 0.37100(9)
H13 H 0.6367 0.7399 0.3730
C22 C 0.5374(3) 0.6099(3) 0.38228(7)
H14 H 0.5119 0.5888 0.3923
C23 C 0.7876(2) 0.9125(3) 0.44551(8)
C24 C 0.4258(3) 0.2435(4) 0.34340(9)
H15 H 0.4021 0.2250 0.3327
C25 C 0.4978(3) 0.7471(4) 0.43081(8)
C26 C 0.6171(2) 0.7826(4) 0.42852(8)
C27 C 0.6235(3) 0.7449(3) 0.41126(7)
H16 H 0.6655 0.7464 0.4043
C28 C 0.6311(4) 0.1500(5) 0.42674(8)
H17 H 0.6320 0.1427 0.4134
C29 C 0.5063(3) 0.2001(5) 0.40682(10)
H18 H 0.5480 0.2215 0.4028
C30 C 0.5666(3) 0.1632(6) 0.45578(9)
H19 H 0.5233 0.1661 0.4621
C31 C 0.7458(3) 0.8067(4) 0.43291(8)
H20 H 0.7549 0.7635 0.4270
C32 C 0.5681(3) 0.1604(4) 0.43580(8)
C33 C 0.4223(3) 0.7520(3) 0.46045(7)
H21 H 0.4624 0.7467 0.4681
C34 C 0.5728(3) 0.6692(3) 0.38599(7)
C35 C 0.4197(3) 0.2093(4) 0.36031(10)
H22 H 0.3958 0.1664 0.3610
O7 O 0.75584(17) 0.1588(2) 0.48526(4)
C36 C 0.4946(3) 0.3312(4) 0.35727(9)
H23 H 0.5173 0.3746 0.3563
C37 C 0.4920(4) 0.2967(4) 0.37454(10)
H24 H 0.5189 0.3121 0.3850
C38 C 0.4470(4) 0.2029(5) 0.39559(10)
C39 C 0.4484(3) 0.2379(5) 0.37631(10)
C40 C 0.5371(3) 0.5786(4) 0.36422(7)
H25 H 0.5104 0.5382 0.3620
C41 C 0.5028(3) 0.1637(5) 0.42481(8)
C42 C 0.4618(3) 0.3424(3) 0.32324(7)
C43 C 0.6262(3) 0.1618(4) 0.46636(8)
H26 H 0.6244 0.1652 0.4798
O8 O 0.41182(17) 0.30359(18) 0.26805(4)
O9 O 0.80953(18) 0.15091(19) 0.45722(4)
O10 O 0.18512(16) 0.80653(18) 0.45544(4)
C44 C 0.8452(2) 0.9587(3) 0.45008(7)
O11 O 0.22806(16) 0.78855(17) 0.48458(4)
C45 C 0.4418(3) 0.1359(5) 0.43016(10)
H27 H 0.4385 0.1159 0.4425
C46 C 0.3847(4) 0.1351(7) 0.41873(12)
C47 C 0.1964(3) 0.0902(4) 0.42604(8)
H28 H 0.1523 0.1103 0.4239
C48 C 0.2664(3) -0.0055(4) 0.43581(9)
H29 H 0.2693 -0.0527 0.4395
C49 C 0.3252(3) 0.0337(5) 0.43234(10)
H30 H 0.3696 0.0149 0.4349
C50 C 0.2568(3) 0.1269(4) 0.42100(10)
H31 H 0.2528 0.1702 0.4147
C51 C 0.3872(3) 0.1727(4) 0.40071(9)
H32 H 0.3475 0.1757 0.3928
C52 C 0.3195(3) 0.1016(4) 0.42498(10)
C53 C 0.1369(3) -0.0124(4) 0.43903(6)
C54 C 0.2010(3) 0.0286(3) 0.43360(8)
O12 O 0.08084(15) 0.01707(18) 0.43868(4)
O13 O 0.14811(16) -0.0755(2) 0.44347(4)
O14 O 0.90561(16) 0.93261(18) 0.44746(5)
O15 O 0.83391(17) 1.0181(2) 0.45563(5)
C55 C 0.4379(6) 0.1889(7) 0.28071(17)
H33 H 0.4117 0.1994 0.2918
C56 C 0.4650(6) 0.1248(6) 0.27931(17)
C57 C 0.5022(7) 0.1101(6) 0.2631(2)
H34 H 0.5220 0.0655 0.2616
C58 C 0.5114(6) 0.1598(6) 0.24884(17)
H35 H 0.5370 0.1491 0.2377
C59 C 0.4836(5) 0.2219(6) 0.25114(15)
H36 H 0.4901 0.2553 0.2414
C60 C 0.4454(6) 0.2405(6) 0.26711(15)
O16 O 0.4214(5) 0.0957(4) 0.30992(15)
O17 O 0.4808(5) 0.0188(5) 0.29335(13)
N1 N 0.4534(6) 0.0782(6) 0.29552(17)
O18 O 0.31745(19) 0.44306(18) 0.21157(6)
O19 O 0.26684(18) 0.3770(2) 0.23751(5)
C61 C 0.2747(8) 0.4255(7) 0.22434(18)
H37 H 0.2367 0.4566 0.2245
C62 C 0.1511(8) 0.3341(11) 0.2274(2)
H38 H 0.1709 0.3102 0.2169
C63 C 0.0850(11) 0.3336(10) 0.2303(2)
H39 H 0.0584 0.3109 0.2208
C64 C 0.0474(8) 0.3616(8) 0.2452(2)
H40 H -0.0009 0.3552 0.2468
C65 C 0.0882(10) 0.4005(8) 0.2578(2)
C66 C 0.1569(10) 0.4067(9) 0.2559(3)
H41 H 0.1823 0.4341 0.2647
C67 C 0.1931(9) 0.3710(9) 0.2403(2)
O20 O 0.0927(5) 0.4594(6) 0.28211(16)
O21 O -0.0097(6) 0.4130(6) 0.27645(16)
N2 N 0.0508(7) 0.4270(8) 0.27453(19)
O22 O 0.62147(17) 0.59534(16) 0.26486(4)
H42 H 0.6054 0.5597 0.2593
C68 C 0.2793(10) 0.4579(9) 0.1957(2)
H43 H 0.2386 0.4312 0.1940
O23 O 0.2934(6) 0.5086(6) 0.18156(16)
Al1E Al 0.89135(7) 0.09936(8) 0.45915(2)
Al1E_2 Al 0.89135(7) 1.09936(8) 0.45915(2)
Al1G Al 0.40064(8) 0.39135(7) 0.20915(2)
Al2C Al 0.83504(7) 0.15911(7) 0.50069(2)
Al2E Al 0.15911(7) 0.83504(7) 0.49931(2)
Al2G Al 0.66496(7) 0.65911(7) 0.24931(2)
Al3E Al -0.00649(6) -0.02594(8) 0.44393(2)
Al3E_2 Al 0.99351(6) 0.97406(8) 0.44393(2)
Al4E Al 0.10686(7) -0.13639(8) 0.46083(2)
Al4E_2 Al 0.10686(7) 0.86361(8) 0.46083(2)
O7A O 0.3412(2) 0.25584(17) 0.23526(4)
O9E O 0.69047(18) 0.65091(19) 0.29278(4)
O10E O 0.31488(16) 0.30653(18) 0.29456(4)
O11E O 0.27194(16) 0.28855(17) 0.26542(4)
O12E O 0.41916(15) 0.51707(18) 0.31132(4)
O13E O 0.35189(16) 0.4245(2) 0.30653(4)
O14E O 0.59439(16) 0.43261(18) 0.30254(5)
O15E O 0.66609(17) 0.5181(2) 0.29437(5)
O18G O 0.55694(18) 0.68255(19) 0.28843(6)
O22G O 0.40466(16) 0.37853(17) 0.23514(4)
O2G O 0.45265(16) 0.47092(14) 0.20958(4)
O6G O 0.3890(2) 0.39692(19) 0.18269(5)
O9A O 0.34909(19) 0.30953(18) 0.20722(4)
O15A O 0.4819(2) 0.33391(17) 0.20563(5)
O8G O 0.69641(18) 0.58818(17) 0.23195(4)
O19G O 0.6230(2) 0.73316(18) 0.26249(5)
O7E O 0.74416(17) 0.6588(2) 0.26474(4)
O11A O 0.71145(17) 0.72806(16) 0.23458(4)
Al3G Al 0.52594(8) 0.49351(6) 0.19393(2)
O1G O 0.57771(16) 0.53091(14) 0.21321(4)
O3G O 0.5980(2) 0.51213(17) 0.17626(4)
O5G O 0.4791(2) 0.45888(17) 0.17215(4)
O12A O 0.48293(18) 0.58084(15) 0.18868(4)
O14A O 0.56739(18) 0.40561(16) 0.19746(5)
Al4G Al 0.63639(8) 0.60686(7) 0.21083(2)
O4G O 0.68663(19) 0.56445(19) 0.19135(5)
O10A O 0.69347(18) 0.68512(16) 0.20544(4)
O13A O 0.5755(2) 0.64811(16) 0.19347(4)
H1G H 0.5747 0.5121 0.2241
H2G H 0.4417 0.5007 0.2179
C42G C 0.6576(3) 0.5382(3) 0.17676(7)
C12G C 0.4233(3) 0.4286(3) 0.16951(7)
C1G C 0.2109(3) 0.7656(2) 0.03353(8)
C3G C 0.2295(3) 0.6984(3) 0.04166(7)
O10G O 0.19347(18) 0.81488(16) 0.04456(4)
O11G O 0.21145(17) 0.77194(16) 0.01542(4)
C2G C 0.8446(3) 0.2441(3) 0.03297(8)
C5G C 0.8448(3) 0.3098(3) 0.04311(7)
O7G O 0.8412(2) 0.24416(17) 0.01474(4)
O9G O 0.84909(19) 0.19047(18) 0.04278(4)
C6G C 0.2309(3) 0.6932(3) 0.06251(7)
C10G C 0.2387(3) 0.6400(3) 0.03114(7)
C4G C 0.8501(4) 0.3074(3) 0.06308(8)
H3G H 0.8536 0.2643 0.0695
C28G C 0.8500(5) 0.3689(4) 0.07326(8)
C43G C 0.8382(4) 0.3738(3) 0.03364(8)
H4G H 0.2242 0.7328 0.0703
C19G C 0.2416(4) 0.6315(3) 0.07012(7)
C7G C 0.2947(4) 0.4320(3) 0.09546(9)
C14G C 0.2912(3) 0.4949(3) 0.08596(8)
C27G C 0.2551(3) 0.3765(3) 0.08874(7)
C34G C 0.3308(3) 0.4272(3) 0.11401(7)
C8G C 0.6993(4) 0.5375(3) 0.15920(8)
C24G C 0.7565(4) 0.5742(3) 0.15660(9)
C36G C 0.6688(4) 0.5054(3) 0.14273(9)
C9G C 0.3927(3) 0.4240(3) 0.15012(7)
C11G C 0.3326(3) 0.3877(3) 0.14626(8)
C40G C 0.4214(4) 0.4629(3) 0.13578(7)
H5G H 0.2386 0.6430 0.0177
C33G C 0.2480(3) 0.5777(3) 0.03955(7)
H6G H 0.3122 0.3611 0.1561
C21G C 0.3015(4) 0.3886(3) 0.12900(9)
C13G C 0.2499(3) 0.5715(2) 0.05956(7)
C25G C 0.2529(4) 0.5022(3) 0.06919(8)
H7G H 0.3154 0.5336 0.0909
C15G C 0.2150(4) 0.4457(3) 0.06208(8)
H8G H 0.1879 0.4506 0.0509
C26G C 0.2174(4) 0.3829(2) 0.07148(8)
C16G C 0.1725(3) 0.3244(2) 0.06444(8)
C18G C 0.1104(4) 0.3353(3) 0.05684(9)
C31G C 0.1933(4) 0.2542(3) 0.06709(8)
C17G C 0.0652(3) 0.2809(3) 0.05175(8)
H9G H 0.0208 0.2905 0.0466
C23G C 0.0875(3) 0.2124(2) 0.05449(8)
H10G H 0.0959 0.3815 0.0548
H11G H 0.2438 0.6281 0.0836
C20G C 0.1556(3) 0.2027(3) 0.06170(8)
H12G H 0.1738 0.1571 0.0626
H13G H 0.2601 0.3633 0.1270
C22G C 0.3901(3) 0.4626(3) 0.11772(7)
H14G H 0.4112 0.4881 0.1077
C44G C 0.0413(3) 0.1548(2) 0.04992(7)
H15G H 0.7750 0.5979 0.1673
C35G C 0.7907(4) 0.5803(3) 0.13969(10)
H16G H 0.2536 0.3345 0.0957
H17G H 0.8573 0.3680 0.0866
C32G C 0.8396(4) 0.4319(3) 0.06420(8)
C29G C 0.7999(5) 0.4937(3) 0.09318(10)
H18G H 0.7785 0.4520 0.0972
C38G C 0.7971(5) 0.5530(4) 0.10441(10)
C41G C 0.8363(5) 0.4972(3) 0.07519(8)
C30G C 0.8368(6) 0.4334(3) 0.04422(9)
H19G H 0.8339 0.4767 0.0379
H20G H 0.2365 0.2451 0.0730
H21G H 0.2533 0.5376 0.0319
H22G H 0.8336 0.6042 0.1390
C39G C 0.7621(5) 0.5516(3) 0.12369(10)
Al2D Al 0.84089(7) 0.16496(7) -0.00069(2)
H23G H 0.6254 0.4827 0.1437
C37G C 0.7033(4) 0.5080(4) 0.12546(10)
H24G H 0.6879 0.4811 0.1150
C51G C 0.8273(4) 0.6128(3) 0.09929(9)
H25G H 0.4618 0.4896 0.1380
C45G C 0.8641(5) 0.5582(3) 0.06984(10)
H26G H 0.8348 0.3756 0.0202
C60G C 0.7595(6) 0.5546(6) 0.23289(15)
Al1A Al 0.90064(8) 0.10865(7) 0.04085(2)
Al4A Al 0.13639(8) 0.89314(7) 0.03917(2)
O14G O 0.06739(18) 0.09439(16) 0.05254(5)
O15G O -0.0181(2) 0.16609(17) 0.04437(5)
Al2A Al 0.16496(7) 0.84089(7) 0.00069(2)
H27G H 0.8841 0.5615 0.0575
C46G C 0.8649(7) 0.6153(4) 0.08127(12)
C52G C 0.8984(4) 0.6805(3) 0.07502(10)
C47G C 0.9098(4) 0.8036(3) 0.07396(8)
H28G H 0.8897 0.8477 0.0761
C50G C 0.8731(4) 0.7432(3) 0.07900(10)
C54G C 0.9714(3) 0.7990(3) 0.06640(8)
C48G C 1.0055(4) 0.7336(3) 0.06419(9)
H29G H 1.0527 0.7307 0.0605
C49G C 0.9663(5) 0.6748(3) 0.06766(10)
H30G H 0.9851 0.6304 0.0651
H31G H 0.8298 0.7472 0.0853
H32G H 0.8243 0.6525 0.1072
C53G C 1.0124(4) 0.8631(3) 0.06097(6)
O12G O 0.98293(18) 0.91916(15) 0.06132(4)
O13G O 1.0755(2) 0.85189(16) 0.05653(4)
Al3A Al 1.02594(8) 1.00649(6) 0.05607(2)
Al4A_2 Al 1.13639(8) 0.89314(7) 0.03917(2)
Al3A_2 Al 0.02594(8) 0.00649(6) 0.05607(2)
Al1A_2 Al -0.09936(8) 0.10865(7) 0.04085(2)
C55G C 0.8111(7) 0.5621(6) 0.21929(17)
H33G H 0.8006 0.5883 0.2082
C56G C 0.8752(6) 0.5350(6) 0.22069(17)
C57G C 0.8899(6) 0.4978(7) 0.2369(2)
N1G N 0.9218(6) 0.5466(6) 0.20448(17)
H34G H 0.9345 0.4780 0.2384
C58G C 0.8402(6) 0.4886(6) 0.25116(17)
H35G H 0.8509 0.4630 0.2623
C59G C 0.7781(6) 0.5164(5) 0.24886(15)
H36G H 0.7447 0.5099 0.2586
O16G O 0.9043(4) 0.5786(5) 0.19008(15)
O17G O 0.9812(5) 0.5192(5) 0.20665(13)
C61G C 0.5745(7) 0.7253(8) 0.27566(18)
C68G C 0.5421(9) 0.7207(10) 0.3043(2)
C67G C 0.6290(9) 0.8069(9) 0.2597(2)
H37G H 0.5434 0.7633 0.2755
C62G C 0.6659(11) 0.8489(8) 0.2726(2)
H38G H 0.6898 0.8291 0.2831
C63G C 0.6664(10) 0.9150(11) 0.2697(2)
H39G H 0.6891 0.9416 0.2792
C64G C 0.6384(8) 0.9526(8) 0.2548(2)
H40G H 0.6448 1.0009 0.2532
C65G C 0.5995(8) 0.9118(10) 0.2422(2)
C66G C 0.5933(9) 0.8431(10) 0.2441(3)
N2G N 0.5730(8) 0.9492(7) 0.22547(19)
H41G H 0.5659 0.8177 0.2353
O20G O 0.5406(6) 0.9073(5) 0.21789(16)
O21G O 0.5870(6) 1.0097(6) 0.22355(16)
H42G H 0.4403 0.3946 0.2407
H43G H 0.5688 0.7614 0.3060
O23G O 0.4914(6) 0.7066(6) 0.31844(16)
loop_
_geom_bond_atom_site_label_1
_geom_bond_atom_site_label_2
_geom_bond_site_symmetry_1
_geom_bond_site_symmetry_2
Al1 O2 1_555 1_555
Al2 O8 1_555 1_555
Al3 O1 1_555 1_555
Al4 O1 1_555 1_555
O1 H1 1_555 1_555
O2 Al3 1_555 1_555
H2 O2 1_555 1_555
O3 Al3 1_555 1_555
O4 Al4 1_555 1_555
O5 Al3 1_555 1_555
C1 C3 1_555 1_555
C2 C5 1_555 1_555
C3 C6 1_555 1_555
C4 H3 1_555 1_555
C5 C4 1_555 1_555
C6 H4 1_555 1_555
C7 C14 1_555 1_555
O6 Al1 1_555 1_555
C8 C24 1_555 1_555
C9 C11 1_555 1_555
C10 C3 1_555 1_555
H5 C10 1_555 1_555
C11 H6 1_555 1_555
C12 O5 1_555 1_555
C13 C19 1_555 1_555
C14 H7 1_555 1_555
C15 H8 1_555 1_555
C16 C18 1_555 1_555
C17 H9 1_555 1_555
C18 C17 1_555 1_555
H10 C18 1_555 1_555
C19 C6 1_555 1_555
H11 C19 1_555 1_555
C20 H12 1_555 1_555
C21 C11 1_555 1_555
H13 C21 1_555 1_555
C22 H14 1_555 1_555
C23 C17 1_555 1_555
C24 H15 1_555 1_555
C25 C13 1_555 1_555
C26 C15 1_555 1_555
C27 C7 1_555 1_555
H16 C27 1_555 1_555
C28 C4 1_555 1_555
H17 C28 1_555 1_555
C29 H18 1_555 1_555
C30 H19 1_555 1_555
C31 C16 1_555 1_555
H20 C31 1_555 1_555
C32 C28 1_555 1_555
C33 C10 1_555 1_555
H21 C33 1_555 1_555
C34 C7 1_555 1_555
C35 C24 1_555 1_555
H22 C35 1_555 1_555
O7 C2 1_555 1_555
C36 C8 1_555 1_555
H23 C36 1_555 1_555
C37 C36 1_555 1_555
H24 C37 1_555 1_555
C38 C29 1_555 1_555
C39 C35 1_555 1_555
C40 C9 1_555 1_555
H25 C40 1_555 1_555
C41 C29 1_555 1_555
C42 O3 1_555 1_555
C43 C5 1_555 1_555
H26 C43 1_555 1_555
O8 Al4 1_555 1_555
O9 C2 1_555 1_555
O10 C1 1_555 1_555
C44 C23 1_555 1_555
O11 C1 1_555 1_555
C45 C41 1_555 1_555
H27 C45 1_555 1_555
C46 C45 1_555 1_555
C47 H28 1_555 1_555
C48 H29 1_555 1_555
C49 C48 1_555 1_555
H30 C49 1_555 1_555
C50 C47 1_555 1_555
H31 C50 1_555 1_555
C51 C38 1_555 1_555
H32 C51 1_555 1_555
C52 C46 1_555 1_555
C53 C54 1_555 1_555
C54 C47 1_555 1_555
O12 C53 1_555 1_555
O13 C53 1_555 1_555
O14 C44 1_555 1_555
O15 C44 1_555 1_555
C55 H33 1_555 1_555
C56 C55 1_555 1_555
C57 C56 1_555 1_555
H34 C57 1_555 1_555
C58 C57 1_555 1_555
H35 C58 1_555 1_555
C59 C58 1_555 1_555
H36 C59 1_555 1_555
C60 O8 1_555 1_555
O16 N1 1_555 1_555
O17 N1 1_555 1_555
N1 C56 1_555 1_555
O18 C61 1_555 1_555
O19 Al2 1_555 1_555
C61 O19 1_555 1_555
H37 C61 1_555 1_555
C62 H38 1_555 1_555
C63 C62 1_555 1_555
H39 C63 1_555 1_555
C64 C63 1_555 1_555
H40 C64 1_555 1_555
C65 C64 1_555 1_555
C66 C65 1_555 1_555
H41 C66 1_555 1_555
C67 O19 1_555 1_555
O20 N2 1_555 1_555
O21 N2 1_555 1_555
N2 C65 1_555 1_555
O22 Al1 1_555 1_555
H42 O22 1_555 1_555
C68 O18 1_555 1_555
H43 C68 1_555 1_555
O23 C68 1_555 1_555
Al1E O9 1_555 1_555
Al1E_2 O15 1_555 1_555
Al1G O18 1_555 1_555
Al2C O7 1_555 1_555
Al2E O11 1_555 1_555
Al2G O22 1_555 1_555
Al3E O12 1_555 1_555
Al3E_2 O14 1_555 1_555
Al4E O13 1_555 1_555
Al4E_2 O10 1_555 1_555
O7A Al2 1_555 1_555
O9E Al1 1_555 1_555
O10E Al4 1_555 1_555
O11E Al2 1_555 1_555
O12E Al3 1_555 1_555
O13E Al4 1_555 1_555
O14E Al3 1_555 1_555
O15E Al1 1_555 1_555
O18G Al1 1_555 1_555
O22G Al2 1_555 1_555
O2G Al1G 1_555 1_555
O6G Al1G 1_555 1_555
O9A Al1G 1_555 1_555
O15A Al1G 1_555 1_555
O8G Al2G 1_555 1_555
O19G Al2G 1_555 1_555
O7E Al2G 1_555 1_555
O11A Al2G 1_555 1_555
Al3G O2G 1_555 1_555
O1G Al3G 1_555 1_555
O3G Al3G 1_555 1_555
O5G Al3G 1_555 1_555
O12A Al3G 1_555 1_555
O14A Al3G 1_555 1_555
Al4G O8G 1_555 1_555
O4G Al4G 1_555 1_555
O10A Al4G 1_555 1_555
O13A Al4G 1_555 1_555
H1G O1G 1_555 1_555
H2G O2G 1_555 1_555
C42G O3G 1_555 1_555
C12G O6G 1_555 1_555
C1G C3G 1_555 1_555
C3G C6G 1_555 1_555
O10G C1G 1_555 1_555
O11G C1G 1_555 1_555
C2G C5G 1_555 1_555
C5G C4G 1_555 1_555
O7G C2G 1_555 1_555
O9G C2G 1_555 1_555
C6G H4G 1_555 1_555
C10G C3G 1_555 1_555
C4G H3G 1_555 1_555
C28G C4G 1_555 1_555
C43G C5G 1_555 1_555
C19G C6G 1_555 1_555
C7G C14G 1_555 1_555
C14G C25G 1_555 1_555
C27G C7G 1_555 1_555
C34G C7G 1_555 1_555
C8G C42G 1_555 1_555
C24G C8G 1_555 1_555
C36G C8G 1_555 1_555
C9G C12G 1_555 1_555
C11G C9G 1_555 1_555
C40G C9G 1_555 1_555
H5G C10G 1_555 1_555
C33G C10G 1_555 1_555
H6G C11G 1_555 1_555
C21G C34G 1_555 1_555
C13G C19G 1_555 1_555
C25G C13G 1_555 1_555
H7G C14G 1_555 1_555
C15G C25G 1_555 1_555
H8G C15G 1_555 1_555
C26G C27G 1_555 1_555
C16G C26G 1_555 1_555
C18G C16G 1_555 1_555
C31G C16G 1_555 1_555
C17G C18G 1_555 1_555
H9G C17G 1_555 1_555
C23G C17G 1_555 1_555
H10G C18G 1_555 1_555
H11G C19G 1_555 1_555
C20G C31G 1_555 1_555
H12G C20G 1_555 1_555
H13G C21G 1_555 1_555
C22G C34G 1_555 1_555
H14G C22G 1_555 1_555
C44G C23G 1_555 1_555
H15G C24G 1_555 1_555
C35G C24G 1_555 1_555
H16G C27G 1_555 1_555
H17G C28G 1_555 1_555
C32G C28G 1_555 1_555
C29G H18G 1_555 1_555
C38G C29G 1_555 1_555
C41G C32G 1_555 1_555
C30G C43G 1_555 1_555
H19G C30G 1_555 1_555
H20G C31G 1_555 1_555
H21G C33G 1_555 1_555
H22G C35G 1_555 1_555
C39G C35G 1_555 1_555
Al2D O7G 1_555 1_555
H23G C36G 1_555 1_555
C37G C36G 1_555 1_555
H24G C37G 1_555 1_555
C51G C38G 1_555 1_555
H25G C40G 1_555 1_555
C45G C41G 1_555 1_555
H26G C43G 1_555 1_555
C60G O8G 1_555 1_555
Al1A O9G 1_555 1_555
Al4A O10G 1_555 1_555
O14G C44G 1_555 1_555
O15G C44G 1_555 1_555
Al2A O11G 1_555 1_555
H27G C45G 1_555 1_555
C46G C51G 1_555 1_555
C52G C46G 1_555 1_555
C47G H28G 1_555 1_555
C50G C52G 1_555 1_555
C54G C47G 1_555 1_555
C48G C54G 1_555 1_555
H29G C48G 1_555 1_555
C49G C52G 1_555 1_555
H30G C49G 1_555 1_555
H31G C50G 1_555 1_555
H32G C51G 1_555 1_555
C53G C54G 1_555 1_555
O12G C53G 1_555 1_555
O13G C53G 1_555 1_555
Al3A O12G 1_555 1_555
Al4A_2 O13G 1_555 1_555
Al3A_2 O14G 1_555 1_555
Al1A_2 O15G 1_555 1_555
C55G C60G 1_555 1_555
H33G C55G 1_555 1_555
C56G C55G 1_555 1_555
C57G C56G 1_555 1_555
N1G C56G 1_555 1_555
H34G C57G 1_555 1_555
C58G C57G 1_555 1_555
H35G C58G 1_555 1_555
C59G C60G 1_555 1_555
H36G C59G 1_555 1_555
O16G N1G 1_555 1_555
O17G N1G 1_555 1_555
C61G O18G 1_555 1_555
C68G O18G 1_555 1_555
C67G O19G 1_555 1_555
H37G C61G 1_555 1_555
C62G C67G 1_555 1_555
H38G C62G 1_555 1_555
C63G C62G 1_555 1_555
H39G C63G 1_555 1_555
C64G C63G 1_555 1_555
H40G C64G 1_555 1_555
C65G C64G 1_555 1_555
C66G C67G 1_555 1_555
N2G C65G 1_555 1_555
H41G C66G 1_555 1_555
O20G N2G 1_555 1_555
O21G N2G 1_555 1_555
H42G O22G 1_555 1_555
H43G C68G 1_555 1_555
O23G C68G 1_555 1_555
O4 C42 1_555 1_555
O6 C12 1_555 1_555
C8 C42 1_555 1_555
C9 C12 1_555 1_555
C13 C33 1_555 1_555
C14 C25 1_555 1_555
C15 C25 1_555 1_555
C16 C26 1_555 1_555
C20 C23 1_555 1_555
C20 C31 1_555 1_555
C21 C34 1_555 1_555
C22 C34 1_555 1_555
C22 C40 1_555 1_555
C26 C27 1_555 1_555
C30 C32 1_555 1_555
C30 C43 1_555 1_555
C32 C41 1_555 1_555
C37 C39 1_555 1_555
C38 C39 1_555 1_555
C46 C51 1_555 1_555
C48 C54 1_555 1_555
C49 C52 1_555 1_555
C50 C52 1_555 1_555
C55 C60 1_555 1_555
C59 C60 1_555 1_555
C62 C67 1_555 1_555
C66 C67 1_555 1_555
Al1G O22G 1_555 1_555
O19G C61G 1_555 1_555
O1G Al4G 1_555 1_555
O5G C12G 1_555 1_555
O4G C42G 1_555 1_555
C11G C21G 1_555 1_555
C40G C22G 1_555 1_555
C33G C13G 1_555 1_555
C15G C26G 1_555 1_555
C23G C20G 1_555 1_555
C32G C30G 1_555 1_555
C29G C41G 1_555 1_555
C38G C39G 1_555 1_555
C39G C37G 1_555 1_555
C45G C46G 1_555 1_555
C47G C50G 1_555 1_555
C48G C49G 1_555 1_555
C58G C59G 1_555 1_555
C65G C66G 1_555 1_555

#END
