
#######################################################################
#
#                 Cambridge Crystallographic Data Centre
#                                CCDC 
#
#######################################################################
#
# If this CIF has been generated from an entry in the Cambridge 
# Structural Database, then it will include bibliographic, chemical, 
# crystal, experimental, refinement or atomic coordinate data resulting 
# from the CCDC's data processing and validation procedures.
#
#######################################################################

data_OTECUN
_chemical_formula_moiety         '(C144 H88 Al8 O56)n'
_symmetry_cell_setting           tetragonal
_symmetry_space_group_name_H-M   'P 42 21 2'
_symmetry_Int_Tables_number      94
_space_group_name_Hall           'P 4n 2n'
loop_
_symmetry_equiv_pos_site_id
_symmetry_equiv_pos_as_xyz
1 x,y,z
2 1/2-y,1/2+x,1/2+z
3 -x,-y,z
4 1/2+y,1/2-x,1/2+z
5 1/2+x,1/2-y,1/2-z
6 1/2-x,1/2+y,1/2-z
7 y,x,-z
8 -y,-x,-z
_cell_length_a                   19.0082(15)
_cell_length_b                   19.0082(15)
_cell_length_c                   36.661(3)
_cell_angle_alpha                90
_cell_angle_beta                 90
_cell_angle_gamma                90
_cell_volume                     13246
loop_
_atom_site_label
_atom_site_type_symbol
_atom_site_fract_x
_atom_site_fract_y
_atom_site_fract_z
Al1 Al 0.33476(14) 0.66524(14) 0.5000
Al2 Al 0.5000 0.5000 0.61436(10)
Al3 Al 0.37581(15) 0.60288(14) 0.58184(7)
O1 O 0.2964(4) 0.5443(3) 0.5657(2)
O2 O 0.4342(3) 0.5267(2) 0.57982(14)
H1 H 0.4303 0.4977 0.5588
O3 O 0.3957(3) 0.6322(3) 0.53460(13)
H2 H 0.4437 0.6298 0.5275
O4 O 0.4484(4) 0.6615(3) 0.60098(17)
O5 O 0.2624(3) 0.6016(4) 0.51389(17)
C1 C 0.5081(7) 0.6520(7) 0.6108(3)
C2 C 0.7549(6) 1.0018(6) 0.6798(3)
H3 H 0.7759 1.0435 0.6891
C3 C 0.8486(7) 0.9775(6) 0.7447(4)
H4 H 0.8712 1.0024 0.7255
C4 C 0.7555(7) 0.9410(7) 0.7017(3)
C5 C 0.8478(7) 0.9439(5) 0.8089(4)
C6 C 0.6808(6) 0.8873(7) 0.6539(4)
C7 C 0.6866(6) 0.9477(6) 0.6339(3)
H5 H 0.6621 0.9496 0.6114
C8 C 0.7895(8) 0.9428(6) 0.7370(3)
C9 C 0.8782(6) 0.9796(5) 0.7778(4)
H6 H 0.9205 1.0055 0.7810
O6 O 0.5357(3) 0.5916(4) 0.61593(17)
C10 C 0.7560(7) 0.9079(6) 0.7669(4)
H7 H 0.7124 0.8849 0.7627
C11 C 0.5795(8) 0.8367(6) 0.6256(3)
H8 H 0.5656 0.8841 0.6215
C12 C 0.5326(6) 0.7786(6) 0.6147(3)
H9 H 0.4883 0.7875 0.6036
C13 C 0.7836(6) 0.9062(5) 0.8010(4)
H10 H 0.7607 0.8803 0.8197
C14 C 0.6636(7) 0.7537(7) 0.6483(3)
H11 H 0.7067 0.7446 0.6606
C15 C 0.5545(7) 0.7134(6) 0.6209(3)
C16 C 0.6228(7) 0.6985(6) 0.6374(3)
H12 H 0.6384 0.6514 0.6405
C17 C 0.7235(6) 1.0037(7) 0.6435(3)
C18 C 0.7167(6) 1.1408(7) 0.6437(3)
H13 H 0.7192 1.1422 0.6695
C19 C 0.7177(6) 1.0738(7) 0.5872(3)
H14 H 0.7227 1.0313 0.5738
C20 C 0.7192(6) 1.0740(6) 0.6256(3)
C21 C 0.6436(8) 0.8225(8) 0.6418(3)
C22 C 0.7115(5) 1.1974(7) 0.6264(3)
H15 H 0.7100 1.2406 0.6394
C23 C 0.7091(5) 1.1353(7) 0.5705(3)
H16 H 0.7036 1.1356 0.5447
C24 C 0.7183(7) 0.8829(6) 0.6896(3)
H17 H 0.7167 0.8410 0.7037
C25 C 0.7077(6) 1.1981(6) 0.5888(3)
C26 C 0.2559(6) 0.5537(7) 0.5356(3)
O7 O 0.0756(6) 0.5114(7) 0.4433(3)
O8 O 0.1707(8) 0.3359(7) 0.6082(4)
C27 C 0.1136(6) 0.4496(7) 0.4965(3)
C28 C 0.1040(6) 0.3953(6) 0.5214(4)
H18 H 0.0696 0.3601 0.5169
C29 C 0.1447(7) 0.3927(6) 0.5529(3)
C30 C 0.1950(6) 0.4442(7) 0.5594(3)
H19 H 0.2228 0.4424 0.5809
C31 C 0.2046(5) 0.4984(6) 0.5344(4)
C32 C 0.1639(6) 0.5011(6) 0.5030(3)
H20 H 0.1704 0.5382 0.4859
O9 O 0.0355(7) 0.3958(7) 0.4504(3)
C33 C 0.0745(11) 0.4441(10) 0.4618(5)
C34 C 0.1373(12) 0.3329(12) 0.5819(6)
O10 O 0.0896(7) 0.2835(7) 0.5771(4)
O11 O 0.9357(4) 0.9772(3) 0.84698(16)
O12 O 0.6987(3) 1.2646(3) 0.5321(2)
O13 O 0.8465(4) 0.9165(3) 0.8703(2)
C35 C 0.8810(6) 0.9486(6) 0.8439(3)
C36 C 0.6960(4) 1.2640(8) 0.5692(3)
O14 O 0.6854(3) 1.3206(3) 0.58763(16)
Al3B Al 0.62419(15) 0.39712(14) 0.58184(7)
O1B O 0.7036(4) 0.4557(3) 0.5657(2)
O2B O 0.5658(3) 0.4733(2) 0.57982(14)
H1B H 0.5697 0.5023 0.5588
O3B O 0.6043(3) 0.3678(3) 0.53460(13)
H2B H 0.5563 0.3702 0.5275
O4B O 0.5516(4) 0.3385(3) 0.60098(17)
O5B O 0.7376(3) 0.3984(4) 0.51389(17)
C1B C 0.4919(7) 0.3480(7) 0.6108(3)
C2B C 0.2451(6) -0.0018(6) 0.6798(3)
H3B H 0.2241 -0.0435 0.6891
C3B C 0.1514(7) 0.0225(6) 0.7447(4)
H4B H 0.1288 -0.0024 0.7255
C4B C 0.2445(7) 0.0590(7) 0.7017(3)
C5B C 0.1522(7) 0.0561(5) 0.8089(4)
C6B C 0.3192(6) 0.1127(7) 0.6539(4)
C7B C 0.3134(6) 0.0523(6) 0.6339(3)
H5B H 0.3379 0.0504 0.6114
C8B C 0.2105(8) 0.0572(6) 0.7370(3)
C9B C 0.1218(6) 0.0204(5) 0.7778(4)
H6B H 0.0795 -0.0055 0.7810
O6B O 0.4643(3) 0.4084(4) 0.61593(17)
C10B C 0.2440(7) 0.0921(6) 0.7669(4)
H7B H 0.2876 0.1151 0.7627
C11B C 0.4205(8) 0.1633(6) 0.6256(3)
H8B H 0.4344 0.1159 0.6215
C12B C 0.4674(6) 0.2214(6) 0.6147(3)
H9B H 0.5117 0.2125 0.6036
C13B C 0.2164(6) 0.0938(5) 0.8010(4)
H10B H 0.2393 0.1197 0.8197
C14B C 0.3364(7) 0.2463(7) 0.6483(3)
H11B H 0.2933 0.2554 0.6606
C15B C 0.4455(7) 0.2866(6) 0.6209(3)
C16B C 0.3772(7) 0.3015(6) 0.6374(3)
H12B H 0.3616 0.3486 0.6405
C17B C 0.2765(6) -0.0037(7) 0.6435(3)
C18B C 0.2833(6) -0.1408(7) 0.6437(3)
H13B H 0.2808 -0.1422 0.6695
C19B C 0.2823(6) -0.0738(7) 0.5872(3)
H14B H 0.2773 -0.0313 0.5738
C20B C 0.2808(6) -0.0740(6) 0.6256(3)
C21B C 0.3564(8) 0.1775(8) 0.6418(3)
C22B C 0.2885(5) -0.1974(7) 0.6264(3)
H15B H 0.2900 -0.2406 0.6394
C23B C 0.2909(5) -0.1353(7) 0.5705(3)
H16B H 0.2964 -0.1356 0.5447
C24B C 0.2817(7) 0.1171(6) 0.6896(3)
H17B H 0.2833 0.1590 0.7037
C25B C 0.2923(6) -0.1981(6) 0.5888(3)
C26B C 0.7441(6) 0.4463(7) 0.5356(3)
O7B O 0.9244(6) 0.4886(7) 0.4433(3)
O8B O 0.8293(8) 0.6641(7) 0.6082(4)
C27B C 0.8864(6) 0.5504(7) 0.4965(3)
C28B C 0.8960(6) 0.6047(6) 0.5214(4)
H18B H 0.9304 0.6399 0.5169
C29B C 0.8553(7) 0.6073(6) 0.5529(3)
C30B C 0.8050(6) 0.5558(7) 0.5594(3)
H19B H 0.7772 0.5576 0.5809
C31B C 0.7954(5) 0.5016(6) 0.5344(4)
C32B C 0.8361(6) 0.4989(6) 0.5030(3)
H20B H 0.8296 0.4618 0.4859
O9B O 0.9645(7) 0.6042(7) 0.4504(3)
C33B C 0.9255(11) 0.5559(10) 0.4618(5)
C34B C 0.8627(12) 0.6671(12) 0.5819(6)
O10B O 0.9104(7) 0.7165(7) 0.5771(4)
O11B O 0.0643(4) 0.0228(3) 0.84698(16)
O12B O 0.3013(3) -0.2646(3) 0.5321(2)
O13B O 0.1535(4) 0.0835(3) 0.8703(2)
C35B C 0.1190(6) 0.0514(6) 0.8439(3)
C36B C 0.3040(4) -0.2640(8) 0.5692(3)
O14B O 0.3146(3) -0.3206(3) 0.58763(16)
Al1_2 Al 0.33476(14) -0.33476(14) 0.5000
Al1B Al 0.66524(14) 0.33476(14) 0.5000
Al1B_2 Al 0.66524(14) 1.33476(14) 0.5000
Al2D Al 0.0000 0.0000 0.88564(10)
Al2D_2 Al 1.0000 1.0000 0.88564(10)
Al3_2 Al 0.37581(15) -0.39712(14) 0.58184(7)
Al3B_2 Al 0.62419(15) 1.39712(14) 0.58184(7)
Al3D Al 0.87581(15) 0.89712(14) 0.91816(7)
Al3E Al 0.12419(15) 0.10288(14) 0.91816(7)
O3G O 0.3678(3) 0.6043(3) 0.46540(13)
O5G O 0.3984(4) 0.7376(3) 0.48611(17)
O11D O 0.4357(4) 0.5228(3) 0.65302(16)
O11E O 0.5643(4) 0.4772(3) 0.65302(16)
O12B_2 O 0.3013(3) 0.7354(3) 0.5321(2)
O12F O 0.2646(3) 0.6987(3) 0.4679(2)
O13D O 0.3465(4) 0.5835(3) 0.6297(2)
O13E O 0.6535(4) 0.4165(3) 0.6297(2)
O14_2 O 0.6854(3) 0.3206(3) 0.58763(16)
O14B_2 O 0.3146(3) 0.6794(3) 0.58763(16)
Al2F Al 0.5000 0.5000 0.38564(10)
O2G O 0.4733(2) 0.5658(3) 0.42018(14)
O6G O 0.4084(4) 0.4643(3) 0.38407(17)
O2F O 0.5267(2) 0.4342(3) 0.42018(14)
O6F O 0.5916(4) 0.5357(3) 0.38407(17)
O11C O 0.4772(3) 0.5643(4) 0.34698(16)
O11A O 0.5228(3) 0.4357(4) 0.34698(16)
Al3G Al 0.39712(14) 0.62419(15) 0.41816(7)
O1G O 0.4557(3) 0.7036(4) 0.4343(2)
O4G O 0.3385(3) 0.5516(4) 0.39902(17)
O13C O 0.4165(3) 0.6535(4) 0.3703(2)
O14F O 0.3206(3) 0.6854(3) 0.41237(16)
C26G C 0.4463(7) 0.7441(6) 0.4644(3)
H1G H 0.5023 0.5697 0.4412
H2G H 0.3702 0.5563 0.4725
C1G C 0.3480(7) 0.4919(7) 0.3892(3)
C15G C 0.2866(6) 0.4455(7) 0.3791(3)
C2G C -0.0018(6) 0.2451(6) 0.3202(3)
H3G H -0.0435 0.2241 0.3109
C4G C 0.0590(7) 0.2445(7) 0.2983(3)
C17G C -0.0037(7) 0.2765(6) 0.3565(3)
C3G C 0.0225(6) 0.1514(7) 0.2553(4)
H4G H -0.0024 0.1288 0.2745
C8G C 0.0572(6) 0.2105(8) 0.2630(3)
C9G C 0.0204(5) 0.1218(6) 0.2222(4)
C24G C 0.1171(6) 0.2817(7) 0.3104(3)
C5G C 0.0561(5) 0.1522(7) 0.1911(4)
C13G C 0.0938(5) 0.2164(6) 0.1990(4)
C35G C 0.0514(6) 0.1190(6) 0.1561(3)
C6G C 0.1127(7) 0.3192(6) 0.3461(4)
C7G C 0.0523(6) 0.3134(6) 0.3661(3)
C21G C 0.1775(8) 0.3564(8) 0.3582(3)
H5G H 0.0504 0.3379 0.3886
C10G C 0.0921(6) 0.2440(7) 0.2331(4)
H6G H -0.0055 0.0795 0.2190
H7G H 0.1151 0.2876 0.2373
C11G C 0.1633(6) 0.4205(8) 0.3744(3)
H8G H 0.1159 0.4344 0.3785
C12G C 0.2214(6) 0.4674(6) 0.3853(3)
H9G H 0.2125 0.5117 0.3964
H10G H 0.1197 0.2393 0.1803
C14G C 0.2463(7) 0.3364(7) 0.3517(3)
H11G H 0.2554 0.2933 0.3394
C16G C 0.3015(6) 0.3772(7) 0.3626(3)
H12G H 0.3486 0.3616 0.3595
C20G C -0.0740(6) 0.2808(6) 0.3744(3)
C18G C -0.1408(7) 0.2833(6) 0.3563(3)
H13G H -0.1422 0.2808 0.3305
C22G C -0.1974(7) 0.2885(5) 0.3736(3)
C19G C -0.0738(7) 0.2823(6) 0.4128(3)
H14G H -0.0313 0.2773 0.4262
C23G C -0.1353(7) 0.2909(5) 0.4295(3)
H15G H -0.2406 0.2900 0.3606
C25G C -0.1981(6) 0.2923(6) 0.4112(3)
H16G H -0.1356 0.2964 0.4553
H17G H 0.1590 0.2833 0.2963
C36G C -0.2640(8) 0.3040(4) 0.4308(3)
C31G C 0.5016(6) 0.7954(5) 0.4656(4)
O7G O 0.4886(7) 0.9244(6) 0.5567(3)
C33G C 0.5559(10) 0.9255(11) 0.5382(5)
O8G O 0.6641(7) 0.8293(8) 0.3918(4)
C34G C 0.6671(12) 0.8627(12) 0.4181(6)
C27G C 0.5504(7) 0.8864(6) 0.5035(3)
C28G C 0.6047(6) 0.8960(6) 0.4786(4)
C32G C 0.4989(6) 0.8361(6) 0.4970(3)
H18G H 0.6399 0.9304 0.4831
C29G C 0.6073(6) 0.8553(7) 0.4471(3)
C30G C 0.5558(7) 0.8050(6) 0.4406(3)
H19G H 0.5576 0.7772 0.4191
H20G H 0.4618 0.8296 0.5141
O9G O 0.6042(7) 0.9645(7) 0.5496(3)
O10G O 0.7165(7) 0.9104(7) 0.4229(4)
O11G O 0.0228(3) 0.0643(4) 0.15302(16)
Al2A Al -0.0000 0.0000 0.11436(10)
O12G O -0.2646(3) 0.3013(3) 0.4679(2)
Al1B_3 Al -0.33476(14) 0.33476(14) 0.5000
O13G O 0.0835(3) 0.1535(4) 0.1297(2)
Al3C Al 0.10288(14) 0.12419(15) 0.08184(7)
O14G O -0.3206(3) 0.3146(3) 0.41237(16)
Al3F Al -0.39712(14) 0.37581(15) 0.41816(7)
Al3F_2 Al 0.60288(14) 0.37581(15) 0.41816(7)
O1F O 0.5443(3) 0.2964(4) 0.4343(2)
O3F O 0.6322(3) 0.3957(3) 0.46540(13)
O4F O 0.6615(3) 0.4484(4) 0.39902(17)
O13A O 0.5835(3) 0.3465(4) 0.3703(2)
O14G_2 O 0.6794(3) 0.3146(3) 0.41237(16)
C26F C 0.5537(7) 0.2559(6) 0.4644(3)
H1F H 0.4977 0.4303 0.4412
H2F H 0.6298 0.4437 0.4725
C1F C 0.6520(7) 0.5081(7) 0.3892(3)
O5F O 0.6016(4) 0.2624(3) 0.48611(17)
C15F C 0.7134(6) 0.5545(7) 0.3791(3)
C2F C 1.0018(6) 0.7549(6) 0.3202(3)
H3F H 1.0435 0.7759 0.3109
C4F C 0.9410(7) 0.7555(7) 0.2983(3)
C17F C 1.0037(7) 0.7235(6) 0.3565(3)
C3F C 0.9775(6) 0.8486(7) 0.2553(4)
H4F H 1.0024 0.8712 0.2745
C8F C 0.9428(6) 0.7895(8) 0.2630(3)
C9F C 0.9796(5) 0.8782(6) 0.2222(4)
C24F C 0.8829(6) 0.7183(7) 0.3104(3)
C5F C 0.9439(5) 0.8478(7) 0.1911(4)
C13F C 0.9062(5) 0.7836(6) 0.1990(4)
C35F C 0.9486(6) 0.8810(6) 0.1561(3)
C6F C 0.8873(7) 0.6808(6) 0.3461(4)
C7F C 0.9477(6) 0.6866(6) 0.3661(3)
C21F C 0.8225(8) 0.6436(8) 0.3582(3)
H5F H 0.9496 0.6621 0.3886
C10F C 0.9079(6) 0.7560(7) 0.2331(4)
H6F H 1.0055 0.9205 0.2190
H7F H 0.8849 0.7124 0.2373
C11F C 0.8367(6) 0.5795(8) 0.3744(3)
H8F H 0.8841 0.5656 0.3785
C12F C 0.7786(6) 0.5326(6) 0.3853(3)
H9F H 0.7875 0.4883 0.3964
H10F H 0.8803 0.7607 0.1803
C14F C 0.7537(7) 0.6636(7) 0.3517(3)
H11F H 0.7446 0.7067 0.3394
C16F C 0.6985(6) 0.6228(7) 0.3626(3)
H12F H 0.6514 0.6384 0.3595
C20F C 1.0740(6) 0.7192(6) 0.3744(3)
C18F C 1.1408(7) 0.7167(6) 0.3563(3)
H13F H 1.1422 0.7192 0.3305
C22F C 1.1974(7) 0.7115(5) 0.3736(3)
C19F C 1.0738(7) 0.7177(6) 0.4128(3)
H14F H 1.0313 0.7227 0.4262
C23F C 1.1353(7) 0.7091(5) 0.4295(3)
H15F H 1.2406 0.7100 0.3606
C25F C 1.1981(6) 0.7077(6) 0.4112(3)
H16F H 1.1356 0.7036 0.4553
H17F H 0.8410 0.7167 0.2963
C36F C 1.2640(8) 0.6960(4) 0.4308(3)
C31F C 0.4984(6) 0.2046(5) 0.4656(4)
O7F O 0.5114(7) 0.0756(6) 0.5567(3)
C33F C 0.4441(10) 0.0745(11) 0.5382(5)
O8F O 0.3359(7) 0.1707(8) 0.3918(4)
C34F C 0.3329(12) 0.1373(12) 0.4181(6)
C27F C 0.4496(7) 0.1136(6) 0.5035(3)
C28F C 0.3953(6) 0.1040(6) 0.4786(4)
C32F C 0.5011(6) 0.1639(6) 0.4970(3)
H18F H 0.3601 0.0696 0.4831
C29F C 0.3927(6) 0.1447(7) 0.4471(3)
C30F C 0.4442(7) 0.1950(6) 0.4406(3)
H19F H 0.4424 0.2228 0.4191
H20F H 0.5382 0.1704 0.5141
O9F O 0.3958(7) 0.0355(7) 0.5496(3)
O10F O 0.2835(7) 0.0896(7) 0.4229(4)
O11F O 0.9772(3) 0.9357(4) 0.15302(16)
Al2A_2 Al 1.0000 1.0000 0.11436(10)
O12F_2 O 1.2646(3) 0.6987(3) 0.4679(2)
Al1_3 Al 1.33476(14) 0.66524(14) 0.5000
O13F O 0.9165(3) 0.8465(4) 0.1297(2)
Al3A Al 0.89712(14) 0.87581(15) 0.08184(7)
O14F_2 O 1.3206(3) 0.6854(3) 0.41237(16)
Al3G_2 Al 1.39712(14) 0.62419(15) 0.41816(7)
O12_2 O 0.6987(3) 0.2646(3) 0.5321(2)
O12G_2 O 0.7354(3) 0.3013(3) 0.4679(2)
loop_
_geom_bond_atom_site_label_1
_geom_bond_atom_site_label_2
_geom_bond_site_symmetry_1
_geom_bond_site_symmetry_2
Al1 O3 1_555 1_555
Al2 O2 1_555 1_555
Al3 O1 1_555 1_555
O1 C26 1_555 1_555
O2 Al3 1_555 1_555
H1 O2 1_555 1_555
O3 Al3 1_555 1_555
H2 O3 1_555 1_555
O4 Al3 1_555 1_555
O5 Al1 1_555 1_555
C1 O4 1_555 1_555
C2 H3 1_555 1_555
C3 H4 1_555 1_555
C4 C2 1_555 1_555
C5 C9 1_555 1_555
C6 C7 1_555 1_555
C7 H5 1_555 1_555
C8 C3 1_555 1_555
C9 C3 1_555 1_555
H6 C9 1_555 1_555
O6 Al2 1_555 1_555
C10 C8 1_555 1_555
H7 C10 1_555 1_555
C11 H8 1_555 1_555
C12 C11 1_555 1_555
H9 C12 1_555 1_555
C13 C5 1_555 1_555
H10 C13 1_555 1_555
C14 H11 1_555 1_555
C15 C1 1_555 1_555
C16 C14 1_555 1_555
H12 C16 1_555 1_555
C17 C2 1_555 1_555
C18 H13 1_555 1_555
C19 H14 1_555 1_555
C20 C17 1_555 1_555
C21 C6 1_555 1_555
C22 C18 1_555 1_555
H15 C22 1_555 1_555
C23 C19 1_555 1_555
H16 C23 1_555 1_555
C24 C4 1_555 1_555
H17 C24 1_555 1_555
C25 C22 1_555 1_555
C26 O5 1_555 1_555
O7 C33 1_555 1_555
O8 C34 1_555 1_555
C27 C28 1_555 1_555
C28 H18 1_555 1_555
C29 C28 1_555 1_555
C30 C29 1_555 1_555
H19 C30 1_555 1_555
C31 C26 1_555 1_555
C32 C27 1_555 1_555
H20 C32 1_555 1_555
O9 C33 1_555 1_555
C33 C27 1_555 1_555
C34 C29 1_555 1_555
O10 C34 1_555 1_555
O11 C35 1_555 1_555
O12 C36 1_555 1_555
O13 C35 1_555 1_555
C35 C5 1_555 1_555
C36 C25 1_555 1_555
O14 C36 1_555 1_555
Al3B O1B 1_555 1_555
O1B C26B 1_555 1_555
O2B Al2 1_555 1_555
H1B O2B 1_555 1_555
O3B Al3B 1_555 1_555
H2B O3B 1_555 1_555
O4B Al3B 1_555 1_555
O5B C26B 1_555 1_555
C1B O4B 1_555 1_555
C2B H3B 1_555 1_555
C3B H4B 1_555 1_555
C4B C2B 1_555 1_555
C5B C9B 1_555 1_555
C6B C7B 1_555 1_555
C7B H5B 1_555 1_555
C8B C3B 1_555 1_555
C9B C3B 1_555 1_555
H6B C9B 1_555 1_555
O6B Al2 1_555 1_555
C10B C8B 1_555 1_555
H7B C10B 1_555 1_555
C11B H8B 1_555 1_555
C12B C11B 1_555 1_555
H9B C12B 1_555 1_555
C13B C5B 1_555 1_555
H10B C13B 1_555 1_555
C14B H11B 1_555 1_555
C15B C1B 1_555 1_555
C16B C14B 1_555 1_555
H12B C16B 1_555 1_555
C17B C2B 1_555 1_555
C18B H13B 1_555 1_555
C19B H14B 1_555 1_555
C20B C17B 1_555 1_555
C21B C6B 1_555 1_555
C22B C18B 1_555 1_555
H15B C22B 1_555 1_555
C23B C19B 1_555 1_555
H16B C23B 1_555 1_555
C24B C4B 1_555 1_555
H17B C24B 1_555 1_555
C25B C22B 1_555 1_555
C26B C31B 1_555 1_555
O7B C33B 1_555 1_555
O8B C34B 1_555 1_555
C27B C28B 1_555 1_555
C28B H18B 1_555 1_555
C29B C28B 1_555 1_555
C30B C29B 1_555 1_555
H19B C30B 1_555 1_555
C31B C30B 1_555 1_555
C32B C27B 1_555 1_555
H20B C32B 1_555 1_555
O9B C33B 1_555 1_555
C33B C27B 1_555 1_555
C34B C29B 1_555 1_555
O10B C34B 1_555 1_555
O11B C35B 1_555 1_555
O12B C36B 1_555 1_555
O13B C35B 1_555 1_555
C35B C5B 1_555 1_555
C36B C25B 1_555 1_555
O14B C36B 1_555 1_555
Al1_2 O12B 1_555 1_555
Al1B O3B 1_555 1_555
Al1B_2 O12 1_555 1_555
Al2D O11B 1_555 1_555
Al2D_2 O11 1_555 1_555
Al3_2 O14B 1_555 1_555
Al3B_2 O14 1_555 1_555
Al3D O13 1_555 1_555
Al3E O13B 1_555 1_555
O3G Al1 1_555 1_555
O5G Al1 1_555 1_555
O11D Al2 1_555 1_555
O11E Al2 1_555 1_555
O12B_2 Al1 1_555 1_555
O12F Al1 1_555 1_555
O13D Al3 1_555 1_555
O13E Al3B 1_555 1_555
O14_2 Al3B 1_555 1_555
O14B_2 Al3 1_555 1_555
Al2F O2G 1_555 1_555
O2G Al3G 1_555 1_555
O6G Al2F 1_555 1_555
O2F Al2F 1_555 1_555
O6F Al2F 1_555 1_555
O11C Al2F 1_555 1_555
O11A Al2F 1_555 1_555
Al3G O3G 1_555 1_555
O1G Al3G 1_555 1_555
O4G Al3G 1_555 1_555
O13C Al3G 1_555 1_555
O14F Al3G 1_555 1_555
C26G O5G 1_555 1_555
H1G O2G 1_555 1_555
H2G O3G 1_555 1_555
C1G O6G 1_555 1_555
C15G C1G 1_555 1_555
C2G H3G 1_555 1_555
C4G C2G 1_555 1_555
C17G C2G 1_555 1_555
C3G H4G 1_555 1_555
C8G C4G 1_555 1_555
C9G C3G 1_555 1_555
C24G C4G 1_555 1_555
C5G C9G 1_555 1_555
C13G C5G 1_555 1_555
C35G C5G 1_555 1_555
C6G C24G 1_555 1_555
C7G C17G 1_555 1_555
C21G C6G 1_555 1_555
H5G C7G 1_555 1_555
C10G C8G 1_555 1_555
H6G C9G 1_555 1_555
H7G C10G 1_555 1_555
C11G C21G 1_555 1_555
H8G C11G 1_555 1_555
C12G C15G 1_555 1_555
H9G C12G 1_555 1_555
H10G C13G 1_555 1_555
C14G C21G 1_555 1_555
H11G C14G 1_555 1_555
C16G C15G 1_555 1_555
H12G C16G 1_555 1_555
C20G C17G 1_555 1_555
C18G C20G 1_555 1_555
H13G C18G 1_555 1_555
C22G C18G 1_555 1_555
C19G C20G 1_555 1_555
H14G C19G 1_555 1_555
C23G C19G 1_555 1_555
H15G C22G 1_555 1_555
C25G C22G 1_555 1_555
H16G C23G 1_555 1_555
H17G C24G 1_555 1_555
C36G C25G 1_555 1_555
C31G C26G 1_555 1_555
O7G C33G 1_555 1_555
C33G C27G 1_555 1_555
O8G C34G 1_555 1_555
C34G C29G 1_555 1_555
C27G C28G 1_555 1_555
C28G H18G 1_555 1_555
C32G C31G 1_555 1_555
C29G C28G 1_555 1_555
C30G C31G 1_555 1_555
H19G C30G 1_555 1_555
H20G C32G 1_555 1_555
O9G C33G 1_555 1_555
O10G C34G 1_555 1_555
O11G C35G 1_555 1_555
Al2A O11G 1_555 1_555
O12G C36G 1_555 1_555
Al1B_3 O12G 1_555 1_555
O13G C35G 1_555 1_555
Al3C O13G 1_555 1_555
O14G C36G 1_555 1_555
Al3F O14G 1_555 1_555
Al3F_2 O2F 1_555 1_555
O1F Al3F_2 1_555 1_555
O3F Al1B 1_555 1_555
O4F Al3F_2 1_555 1_555
O13A Al3F_2 1_555 1_555
O14G_2 Al3F_2 1_555 1_555
C26F O1F 1_555 1_555
H1F O2F 1_555 1_555
H2F O3F 1_555 1_555
C1F O6F 1_555 1_555
O5F Al1B 1_555 1_555
C15F C1F 1_555 1_555
C2F H3F 1_555 1_555
C4F C2F 1_555 1_555
C17F C2F 1_555 1_555
C3F H4F 1_555 1_555
C8F C4F 1_555 1_555
C9F C3F 1_555 1_555
C24F C4F 1_555 1_555
C5F C9F 1_555 1_555
C13F C5F 1_555 1_555
C35F C5F 1_555 1_555
C6F C24F 1_555 1_555
C7F C17F 1_555 1_555
C21F C6F 1_555 1_555
H5F C7F 1_555 1_555
C10F C8F 1_555 1_555
H6F C9F 1_555 1_555
H7F C10F 1_555 1_555
C11F C21F 1_555 1_555
H8F C11F 1_555 1_555
C12F C15F 1_555 1_555
H9F C12F 1_555 1_555
H10F C13F 1_555 1_555
C14F C21F 1_555 1_555
H11F C14F 1_555 1_555
C16F C15F 1_555 1_555
H12F C16F 1_555 1_555
C20F C17F 1_555 1_555
C18F C20F 1_555 1_555
H13F C18F 1_555 1_555
C22F C18F 1_555 1_555
C19F C20F 1_555 1_555
H14F C19F 1_555 1_555
C23F C19F 1_555 1_555
H15F C22F 1_555 1_555
C25F C22F 1_555 1_555
H16F C23F 1_555 1_555
H17F C24F 1_555 1_555
C36F C25F 1_555 1_555
C31F C26F 1_555 1_555
O7F C33F 1_555 1_555
C33F C27F 1_555 1_555
O8F C34F 1_555 1_555
C34F C29F 1_555 1_555
C27F C28F 1_555 1_555
C28F H18F 1_555 1_555
C32F C31F 1_555 1_555
C29F C28F 1_555 1_555
C30F C31F 1_555 1_555
H19F C30F 1_555 1_555
H20F C32F 1_555 1_555
O9F C33F 1_555 1_555
O10F C34F 1_555 1_555
O11F C35F 1_555 1_555
Al2A_2 O11F 1_555 1_555
O12F_2 C36F 1_555 1_555
Al1_3 O12F_2 1_555 1_555
O13F C35F 1_555 1_555
Al3A O13F 1_555 1_555
O14F_2 C36F 1_555 1_555
Al3G_2 O14F_2 1_555 1_555
O12_2 Al1B 1_555 1_555
O12G_2 Al1B 1_555 1_555
C1 O6 1_555 1_555
C4 C8 1_555 1_555
C6 C24 1_555 1_555
C7 C17 1_555 1_555
C10 C13 1_555 1_555
C11 C21 1_555 1_555
C12 C15 1_555 1_555
C14 C21 1_555 1_555
C15 C16 1_555 1_555
C18 C20 1_555 1_555
C19 C20 1_555 1_555
C23 C25 1_555 1_555
C30 C31 1_555 1_555
C31 C32 1_555 1_555
Al3B O2B 1_555 1_555
O5B Al1B 1_555 1_555
C1B O6B 1_555 1_555
C4B C8B 1_555 1_555
C6B C24B 1_555 1_555
C7B C17B 1_555 1_555
C10B C13B 1_555 1_555
C11B C21B 1_555 1_555
C12B C15B 1_555 1_555
C14B C21B 1_555 1_555
C15B C16B 1_555 1_555
C18B C20B 1_555 1_555
C19B C20B 1_555 1_555
C23B C25B 1_555 1_555
C31B C32B 1_555 1_555
O1G C26G 1_555 1_555
O4G C1G 1_555 1_555
C3G C8G 1_555 1_555
C13G C10G 1_555 1_555
C6G C7G 1_555 1_555
C11G C12G 1_555 1_555
C14G C16G 1_555 1_555
C23G C25G 1_555 1_555
C27G C32G 1_555 1_555
C29G C30G 1_555 1_555
Al3F_2 O3F 1_555 1_555
O4F C1F 1_555 1_555
C26F O5F 1_555 1_555
C3F C8F 1_555 1_555
C13F C10F 1_555 1_555
C6F C7F 1_555 1_555
C11F C12F 1_555 1_555
C14F C16F 1_555 1_555
C23F C25F 1_555 1_555
C27F C32F 1_555 1_555
C29F C30F 1_555 1_555

#END
