
#######################################################################
#
#                 Cambridge Crystallographic Data Centre
#                                CCDC 
#
#######################################################################
#
# If this CIF has been generated from an entry in the Cambridge 
# Structural Database, then it will include bibliographic, chemical, 
# crystal, experimental, refinement or atomic coordinate data resulting 
# from the CCDC's data processing and validation procedures.
#
#######################################################################

data_OTECEX
_chemical_formula_moiety         '(C112 H72 Al8 O40)n'
_symmetry_cell_setting           tetragonal
_symmetry_space_group_name_H-M   'P 42 21 2'
_symmetry_Int_Tables_number      94
_space_group_name_Hall           'P 4n 2n'
loop_
_symmetry_equiv_pos_site_id
_symmetry_equiv_pos_as_xyz
1 x,y,z
2 1/2-y,1/2+x,1/2+z
3 -x,-y,z
4 1/2+y,1/2-x,1/2+z
5 1/2+x,1/2-y,1/2-z
6 1/2-x,1/2+y,1/2-z
7 y,x,-z
8 -y,-x,-z
_cell_length_a                   18.4753(4)
_cell_length_b                   18.4753(4)
_cell_length_c                   37.4264(9)
_cell_angle_alpha                90
_cell_angle_beta                 90
_cell_angle_gamma                90
_cell_volume                     12775
loop_
_atom_site_label
_atom_site_type_symbol
_atom_site_fract_x
_atom_site_fract_y
_atom_site_fract_z
Al1 Al 0.33408(3) 0.66592(3) 0.0000
O1 O 0.37146(6) 0.60635(7) 0.03483(3)
O2 O 0.40161(8) 0.74194(8) 0.01163(3)
O3 O 0.29569(8) 0.73504(7) -0.03306(3)
Al2 Al 0.40721(3) 0.63454(3) 0.07891(2)
H1 H 0.3725 0.5560 0.0297
C1 C 0.45279(13) 0.75035(13) 0.03340(5)
O4 O 0.48056(6) 0.56926(7) 0.07888(3)
O5 O 0.43569(8) 0.66806(8) 0.12502(3)
O6 O 0.46891(7) 0.70772(8) 0.05861(3)
O7 O 0.33332(7) 0.70446(7) 0.08221(3)
O8 O 0.33959(7) 0.56898(8) 0.10216(3)
H2 H 0.4819 0.7924 0.0307
Al3 Al 0.5000 0.5000 0.11274(2)
H3 H 0.5126 0.5711 0.0590
C2 C 0.34587(10) 0.50598(11) 0.11428(4)
C3 C 0.36895(10) 0.54181(13) -0.15086(5)
O9 O 0.47982(8) 0.56734(9) 0.15034(3)
O10 O 0.59711(7) 0.52978(8) 0.11597(3)
C4 C 0.27928(11) 0.46968(14) 0.12859(5)
C5 C 0.33113(11) 0.54072(14) -0.18649(5)
C6 C 0.21094(11) 0.49820(16) 0.12354(6)
C7 C 0.28828(12) 0.40603(16) 0.14831(6)
C8 C 0.36199(13) 0.50734(15) -0.21563(5)
C9 C 0.26473(12) 0.57484(16) -0.19069(6)
H4 H 0.2051 0.5424 0.1109
C10 C 0.15115(14) 0.46245(18) 0.13689(7)
C11 C 0.22902(14) 0.37025(18) 0.16155(7)
H5 H 0.3355 0.3875 0.1525
H6 H 0.4076 0.4842 -0.2132
C12 C 0.32736(14) 0.50715(18) -0.24828(6)
C13 C 0.22993(14) 0.57587(17) -0.22326(6)
H7 H 0.2429 0.5979 -0.1707
C14 C 0.15940(13) 0.39563(19) 0.15567(7)
H8 H 0.1042 0.4824 0.1336
H9 H 0.2358 0.3272 0.1750
C15 C 0.26208(13) 0.54119(18) -0.25285(6)
H10 H 0.3491 0.4830 -0.2679
H11 H 0.1847 0.5998 -0.2258
C16 C 0.09651(14) 0.3531(2) 0.16795(7)
C17 C 0.22382(14) 0.53996(19) -0.28813(6)
C18 C 0.03579(14) 0.34678(19) 0.14647(7)
C19 C 0.09731(14) 0.31837(19) 0.20114(7)
C20 C 0.22953(14) 0.47927(18) -0.30957(6)
C21 C -0.02377(13) 0.30619(18) 0.15740(7)
H12 H 0.0347 0.3705 0.1240
H13 H 0.1379 0.3240 0.2165
H14 H 0.2579 0.4393 -0.3019
C22 C -0.08773(13) 0.29959(17) 0.13412(6)
C23 C -0.07870(14) 0.2979(2) 0.09660(6)
C24 C -0.15576(13) 0.29384(15) 0.14860(5)
C25 C -0.14017(12) 0.29352(16) 0.07491(5)
H15 H -0.0317 0.2997 0.0863
C26 C -0.21634(12) 0.28826(13) 0.12626(5)
H16 H -0.1618 0.2936 0.1738
C27 C -0.20756(11) 0.28819(12) 0.08959(5)
H17 H -0.1350 0.2943 0.0497
H18 H -0.2634 0.2845 0.1363
C28 C -0.27275(10) 0.29326(10) 0.06643(4)
O1G O 0.39365(7) 0.62854(6) -0.03483(3)
O3G O 0.26496(7) 0.70431(8) 0.03306(3)
O2G O 0.25806(8) 0.59839(8) -0.01163(3)
Al2G Al 0.36546(3) 0.59279(3) -0.07891(2)
H1G H 0.4440 0.6275 -0.0297
C1G C 0.24965(13) 0.54721(13) -0.03340(5)
O4G O 0.43074(7) 0.51944(6) -0.07888(3)
O5G O 0.33194(8) 0.56431(8) -0.12502(3)
O6G O 0.29228(8) 0.53109(7) -0.05861(3)
O7G O 0.29554(7) 0.66668(7) -0.08221(3)
O8G O 0.43102(8) 0.66041(7) -0.10216(3)
H2G H 0.2076 0.5181 -0.0307
Al3F Al 0.5000 0.5000 -0.11274(2)
H3G H 0.4289 0.4874 -0.0590
O4B O 0.51944(6) 0.43074(7) 0.07888(3)
O9B O 0.52018(8) 0.43266(9) 0.15034(3)
O10B O 0.40289(7) 0.47022(8) 0.11597(3)
O9G O 0.43266(9) 0.52018(8) -0.15034(3)
O4F O 0.56926(7) 0.48056(6) -0.07888(3)
O9F O 0.56734(9) 0.47982(8) -0.15034(3)
O10G O 0.47022(8) 0.40289(7) -0.11597(3)
O10F O 0.52978(8) 0.59711(7) -0.11597(3)
Al2B Al 0.59279(3) 0.36546(3) 0.07891(2)
H3B H 0.4874 0.4289 0.0590
C2B C 0.65413(10) 0.49402(11) 0.11428(4)
Al2F Al 0.63454(3) 0.40721(3) -0.07891(2)
H3F H 0.5711 0.5126 -0.0590
C3B C 0.63105(10) 0.45819(13) -0.15086(5)
O1B O 0.62854(6) 0.39365(7) 0.03483(3)
O5B O 0.56431(8) 0.33194(8) 0.12502(3)
O6B O 0.53109(7) 0.29228(8) 0.05861(3)
O7B O 0.66668(7) 0.29554(7) 0.08221(3)
O8B O 0.66041(7) 0.43102(8) 0.10216(3)
C4B C 0.72072(11) 0.53032(14) 0.12859(5)
O1F O 0.60635(7) 0.37146(6) -0.03483(3)
O5F O 0.66806(8) 0.43569(8) -0.12502(3)
O6F O 0.70772(8) 0.46891(7) -0.05861(3)
O7F O 0.70446(7) 0.33332(7) -0.08221(3)
O8F O 0.56898(8) 0.33959(7) -0.10216(3)
C5B C 0.66887(11) 0.45928(14) -0.18649(5)
H1B H 0.6275 0.4440 0.0297
Al1B Al 0.66592(3) 0.33408(3) 0.0000
C1B C 0.54721(13) 0.24965(13) 0.03340(5)
C6B C 0.78906(11) 0.50180(16) 0.12354(6)
C7B C 0.71172(12) 0.59397(16) 0.14831(6)
H1F H 0.5560 0.3725 -0.0297
C1F C 0.75035(13) 0.45279(13) -0.03340(5)
C8B C 0.63801(13) 0.49266(15) -0.21563(5)
C9B C 0.73527(12) 0.42516(16) -0.19069(6)
O2B O 0.59839(8) 0.25806(8) 0.01163(3)
O2F O 0.74194(8) 0.40161(8) -0.01163(3)
O3B O 0.70431(8) 0.26496(7) -0.03306(3)
O3F O 0.73504(7) 0.29569(8) 0.03306(3)
H2B H 0.5181 0.2076 0.0307
H4B H 0.7949 0.4576 0.1109
C10B C 0.84885(14) 0.53755(18) 0.13689(7)
C11B C 0.77098(14) 0.62975(18) 0.16155(7)
H5B H 0.6645 0.6125 0.1525
H2F H 0.7924 0.4819 -0.0307
H6B H 0.5924 0.5158 -0.2132
C12B C 0.67264(14) 0.49285(18) -0.24828(6)
C13B C 0.77007(14) 0.42413(17) -0.22326(6)
H7B H 0.7571 0.4021 -0.1707
C14B C 0.84060(13) 0.60437(19) 0.15567(7)
H8B H 0.8958 0.5176 0.1336
H9B H 0.7642 0.6728 0.1750
C15B C 0.73792(13) 0.45881(18) -0.25285(6)
H10B H 0.6509 0.5170 -0.2679
H11B H 0.8153 0.4002 -0.2258
C19A C 0.18163(19) 0.59731(14) -0.29886(7)
C16B C 0.90349(14) 0.6469(2) 0.16795(7)
C17C C 0.03996(19) 0.27618(14) 0.21187(6)
C17B C 0.77618(14) 0.46004(19) -0.28813(6)
C21A C 0.19381(18) 0.47623(13) -0.34260(7)
C16A C 0.1469(2) 0.59651(14) -0.33205(7)
H13A H 0.1760 0.6379 -0.2835
C18B C 0.96421(14) 0.65322(19) 0.14647(7)
C19B C 0.90269(14) 0.68163(19) 0.20114(7)
C20C C -0.02073(18) 0.27047(14) 0.19043(6)
C15C C 0.04119(18) 0.23792(13) 0.24715(6)
C20B C 0.77047(14) 0.52073(18) -0.30957(6)
C19C C 0.81837(19) 0.40269(14) -0.29886(7)
C22A C 0.20041(17) 0.41227(13) -0.36588(6)
C18A C 0.15322(19) 0.53579(14) -0.35353(7)
C14A C 0.10437(19) 0.65940(13) -0.34433(7)
C21B C 1.02377(13) 0.69381(18) 0.15740(7)
H12B H 0.9653 0.6295 0.1240
C17A C 0.96004(19) 0.72382(14) 0.21187(6)
H13B H 0.8621 0.6760 0.2165
H14C H -0.0607 0.2421 0.1981
C12C C 0.00715(18) 0.17264(14) 0.25172(6)
C13C C 0.07587(17) 0.27007(14) 0.27674(6)
H14B H 0.7421 0.5607 -0.3019
C21C C 0.80619(18) 0.52377(13) -0.34260(7)
C16C C 0.8531(2) 0.40349(14) -0.33205(7)
H13C H 0.8240 0.3621 -0.2835
C23A C 0.2021(2) 0.42130(14) -0.40340(6)
C24A C 0.20616(15) 0.34424(13) -0.35140(5)
H12A H 0.1295 0.5347 -0.3760
C10A C 0.03755(18) 0.65115(14) -0.36311(7)
C11A C 0.12975(18) 0.72902(14) -0.33845(7)
C22B C 1.08773(13) 0.70041(17) 0.13412(6)
C20A C 1.02073(18) 0.72953(14) 0.19043(6)
C15A C 0.95881(18) 0.76208(13) 0.24715(6)
C8C C 0.00734(15) 0.13801(13) 0.28437(5)
H10C H -0.0170 0.1509 0.2321
C9C C 0.07484(16) 0.23527(12) 0.30931(6)
H11C H 0.0998 0.3153 0.2742
C22C C 0.79959(17) 0.58773(13) -0.36588(6)
C18C C 0.84678(19) 0.46421(14) -0.35353(7)
C14C C 0.89563(19) 0.34060(13) -0.34433(7)
C25A C 0.20648(16) 0.35983(12) -0.42509(5)
H15A H 0.2003 0.4683 -0.4137
C26A C 0.21174(13) 0.28366(12) -0.37374(5)
H16A H 0.2064 0.3382 -0.3262
C6A C 0.00180(16) 0.71094(11) -0.37646(6)
H8A H 0.0176 0.6042 -0.3664
C7A C 0.09397(16) 0.78828(12) -0.35169(6)
H9A H 0.1728 0.7358 -0.3250
C23B C 1.07870(14) 0.7021(2) 0.09660(6)
C24B C 1.15576(13) 0.70616(15) 0.14860(5)
H14A H 1.0607 0.7579 0.1981
C12A C 0.99285(18) 0.82736(14) 0.25172(6)
C13A C 0.92413(17) 0.72993(14) 0.27674(6)
C5C C 0.04072(14) 0.16887(11) 0.31351(5)
H6C H -0.0158 0.0924 0.2868
H7C H 0.0979 0.2571 0.3293
C23C C 0.7979(2) 0.57870(14) -0.40340(6)
C24C C 0.79384(15) 0.65576(13) -0.35140(5)
H12C H 0.8705 0.4653 -0.3760
C10C C 0.96245(18) 0.34885(14) -0.36311(7)
C11C C 0.87025(18) 0.27098(14) -0.33845(7)
C27A C 0.21181(12) 0.29244(11) -0.41041(5)
H17A H 0.2057 0.3650 -0.4503
H18A H 0.2155 0.2366 -0.3637
C4A C 0.03032(14) 0.77928(11) -0.37141(5)
H4A H -0.0424 0.7051 -0.3891
H5A H 0.1125 0.8355 -0.3475
C25B C 1.14017(12) 0.70648(16) 0.07491(5)
H15B H 1.0317 0.7003 0.0863
C26B C 1.21634(12) 0.71174(13) 0.12626(5)
H16B H 1.1618 0.7064 0.1738
C8A C 0.99266(15) 0.86199(13) 0.28437(5)
H10A H 1.0170 0.8491 0.2321
C9A C 0.92516(16) 0.76473(12) 0.30931(6)
H11A H 0.9002 0.6847 0.2742
C3C C 0.04181(13) 0.13105(10) 0.34914(5)
C25C C 0.79352(16) 0.64017(12) -0.42509(5)
H15C H 0.7997 0.5317 -0.4137
C26C C 0.78826(13) 0.71634(12) -0.37374(5)
H16C H 0.7936 0.6618 -0.3262
C6C C 0.99820(16) 0.28906(11) -0.37646(6)
H8C H 0.9824 0.3958 -0.3664
C7C C 0.90603(16) 0.21172(12) -0.35169(6)
H9C H 0.8272 0.2642 -0.3250
C28A C 0.20674(10) 0.22725(10) -0.43357(4)
C2A C -0.00598(11) 0.84587(10) -0.38572(4)
Al3A Al 0.0000 1.0000 -0.38726(2)
Al2B_2 Al -0.40721(3) 0.36546(3) 0.07891(2)
C27B C 1.20756(11) 0.71181(12) 0.08959(5)
H17B H 1.1350 0.7057 0.0497
H18B H 1.2634 0.7155 0.1363
C5A C 0.95928(14) 0.83113(11) 0.31351(5)
H6A H 1.0158 0.9076 0.2868
H7A H 0.9021 0.7429 0.3293
O7B_2 O -0.33332(7) 0.29554(7) 0.08221(3)
O3F_2 O -0.26496(7) 0.29569(8) 0.03306(3)
O5E O 0.06431(8) 0.16806(8) 0.37498(3)
O9E O 0.02018(8) 0.06734(9) 0.34966(3)
C27C C 0.78819(12) 0.70756(11) -0.41041(5)
H17C H 0.7943 0.6350 -0.4503
H18C H 0.7845 0.7634 -0.3637
C4C C 0.96968(14) 0.22072(11) -0.37141(5)
H4C H 1.0424 0.2949 -0.3891
H5C H 0.8875 0.1645 -0.3475
O7C O 0.20446(7) 0.16668(7) -0.41779(3)
O3E O 0.20431(8) 0.23504(7) -0.46694(3)
O8A O -0.06898(8) 0.83959(7) -0.39784(3)
O10C O 0.02978(8) 0.90289(7) -0.38403(3)
C28B C 1.27275(10) 0.70674(10) 0.06643(4)
C3A C 0.95819(13) 0.86895(10) 0.34914(5)
Al2D Al 0.90721(3) 0.86546(3) 0.42109(2)
Al1B_2 Al -0.33408(3) 0.33408(3) 0.0000
Al2E Al 0.09279(3) 0.13454(3) 0.42109(2)
Al3D Al 0.0000 0.0000 0.38726(2)
C28C C 0.79326(10) 0.77275(10) -0.43357(4)
C2C C 1.00598(11) 0.15413(10) -0.38572(4)
Al2C Al 0.13454(3) 0.09279(3) -0.42109(2)
Al1C Al 0.16592(3) 0.16592(3) -0.5000
Al2A Al -0.13454(3) 0.90721(3) -0.42109(2)
Al2A_2 Al 0.86546(3) 0.90721(3) -0.42109(2)
O7_2 O 1.33332(7) 0.70446(7) 0.08221(3)
O3G_2 O 1.26496(7) 0.70431(8) 0.03306(3)
O5D O 0.93569(8) 0.83194(8) 0.37498(3)
O9D O 0.97982(8) 0.93266(9) 0.34966(3)
O7A O 0.79554(7) 0.83332(7) -0.41779(3)
O3D O 0.79569(8) 0.76496(7) -0.46694(3)
O8C O 1.06898(8) 0.16041(7) -0.39784(3)
O10A O 0.97022(8) 0.09711(7) -0.38403(3)
Al2_2 Al 1.40721(3) 0.63454(3) 0.07891(2)
Al1_2 Al 1.33408(3) 0.66592(3) 0.0000
Al3D_2 Al 1.0000 1.0000 0.38726(2)
Al1A Al 0.83408(3) 0.83408(3) -0.5000
Al2C_2 Al 1.13454(3) 0.09279(3) -0.42109(2)
Al3A_2 Al 1.0000 -0.0000 -0.38726(2)
loop_
_geom_bond_atom_site_label_1
_geom_bond_atom_site_label_2
_geom_bond_site_symmetry_1
_geom_bond_site_symmetry_2
Al1 O1 1_555 1_555
O1 Al2 1_555 1_555
O2 Al1 1_555 1_555
O3 Al1 1_555 1_555
Al2 O4 1_555 1_555
H1 O1 1_555 1_555
C1 O2 1_555 1_555
O4 Al3 1_555 1_555
O5 Al2 1_555 1_555
O6 Al2 1_555 1_555
O7 Al2 1_555 1_555
O8 Al2 1_555 1_555
H2 C1 1_555 1_555
Al3 O9 1_555 1_555
H3 O4 1_555 1_555
C2 O8 1_555 1_555
C3 C5 1_555 1_555
O10 Al3 1_555 1_555
C4 C2 1_555 1_555
C5 C8 1_555 1_555
C6 C4 1_555 1_555
C7 C4 1_555 1_555
C8 H6 1_555 1_555
C9 C5 1_555 1_555
H4 C6 1_555 1_555
C10 C6 1_555 1_555
C11 C7 1_555 1_555
H5 C7 1_555 1_555
C12 C8 1_555 1_555
C13 C9 1_555 1_555
H7 C9 1_555 1_555
C14 C10 1_555 1_555
H8 C10 1_555 1_555
H9 C11 1_555 1_555
C15 C12 1_555 1_555
H10 C12 1_555 1_555
H11 C13 1_555 1_555
C16 C14 1_555 1_555
C17 C15 1_555 1_555
C18 C16 1_555 1_555
C19 C16 1_555 1_555
C20 C17 1_555 1_555
C21 C18 1_555 1_555
H12 C18 1_555 1_555
H13 C19 1_555 1_555
H14 C20 1_555 1_555
C22 C21 1_555 1_555
C23 C22 1_555 1_555
C24 C22 1_555 1_555
C25 C23 1_555 1_555
H15 C23 1_555 1_555
C26 C24 1_555 1_555
H16 C24 1_555 1_555
C27 C25 1_555 1_555
H17 C25 1_555 1_555
H18 C26 1_555 1_555
C28 C27 1_555 1_555
O1G Al1 1_555 1_555
O3G Al1 1_555 1_555
O2G Al1 1_555 1_555
Al2G O1G 1_555 1_555
H1G O1G 1_555 1_555
C1G O2G 1_555 1_555
O4G Al2G 1_555 1_555
O5G C3 1_555 1_555
O6G Al2G 1_555 1_555
O7G Al2G 1_555 1_555
O8G Al2G 1_555 1_555
H2G C1G 1_555 1_555
Al3F O4G 1_555 1_555
H3G O4G 1_555 1_555
O4B Al3 1_555 1_555
O9B Al3 1_555 1_555
O10B Al3 1_555 1_555
O9G C3 1_555 1_555
O4F Al3F 1_555 1_555
O9F Al3F 1_555 1_555
O10G Al3F 1_555 1_555
O10F Al3F 1_555 1_555
Al2B O4B 1_555 1_555
H3B O4B 1_555 1_555
C2B O10 1_555 1_555
Al2F O4F 1_555 1_555
H3F O4F 1_555 1_555
C3B O9F 1_555 1_555
O1B Al2B 1_555 1_555
O5B Al2B 1_555 1_555
O6B Al2B 1_555 1_555
O7B Al2B 1_555 1_555
O8B Al2B 1_555 1_555
C4B C2B 1_555 1_555
O1F Al2F 1_555 1_555
O5F Al2F 1_555 1_555
O6F Al2F 1_555 1_555
O7F Al2F 1_555 1_555
O8F Al2F 1_555 1_555
C5B C3B 1_555 1_555
H1B O1B 1_555 1_555
Al1B O1B 1_555 1_555
C1B O6B 1_555 1_555
C6B C4B 1_555 1_555
C7B C4B 1_555 1_555
H1F O1F 1_555 1_555
C1F O6F 1_555 1_555
C8B C5B 1_555 1_555
C9B C5B 1_555 1_555
O2B Al1B 1_555 1_555
O2F Al1B 1_555 1_555
O3B Al1B 1_555 1_555
O3F Al1B 1_555 1_555
H2B C1B 1_555 1_555
H4B C6B 1_555 1_555
C10B C6B 1_555 1_555
C11B C7B 1_555 1_555
H5B C7B 1_555 1_555
H2F C1F 1_555 1_555
H6B C8B 1_555 1_555
C12B C8B 1_555 1_555
C13B C9B 1_555 1_555
H7B C9B 1_555 1_555
C14B C10B 1_555 1_555
H8B C10B 1_555 1_555
H9B C11B 1_555 1_555
C15B C12B 1_555 1_555
H10B C12B 1_555 1_555
H11B C13B 1_555 1_555
C19A C17 1_555 1_555
C16B C14B 1_555 1_555
C17C C19 1_555 1_555
C17B C15B 1_555 1_555
C21A C20 1_555 1_555
C16A C19A 1_555 1_555
H13A C19A 1_555 1_555
C18B C16B 1_555 1_555
C19B C16B 1_555 1_555
C20C C21 1_555 1_555
C15C C17C 1_555 1_555
C20B C17B 1_555 1_555
C19C C17B 1_555 1_555
C22A C21A 1_555 1_555
C18A C21A 1_555 1_555
C14A C16A 1_555 1_555
C21B C18B 1_555 1_555
H12B C18B 1_555 1_555
C17A C19B 1_555 1_555
H13B C19B 1_555 1_555
H14C C20C 1_555 1_555
C12C C15C 1_555 1_555
C13C C15C 1_555 1_555
H14B C20B 1_555 1_555
C21C C20B 1_555 1_555
C16C C19C 1_555 1_555
H13C C19C 1_555 1_555
C23A C22A 1_555 1_555
C24A C22A 1_555 1_555
H12A C18A 1_555 1_555
C10A C14A 1_555 1_555
C11A C14A 1_555 1_555
C22B C21B 1_555 1_555
C20A C21B 1_555 1_555
C15A C17A 1_555 1_555
C8C C12C 1_555 1_555
H10C C12C 1_555 1_555
C9C C13C 1_555 1_555
H11C C13C 1_555 1_555
C22C C21C 1_555 1_555
C18C C21C 1_555 1_555
C14C C16C 1_555 1_555
C25A C23A 1_555 1_555
H15A C23A 1_555 1_555
C26A C24A 1_555 1_555
H16A C24A 1_555 1_555
C6A C10A 1_555 1_555
H8A C10A 1_555 1_555
C7A C11A 1_555 1_555
H9A C11A 1_555 1_555
C23B C22B 1_555 1_555
C24B C22B 1_555 1_555
H14A C20A 1_555 1_555
C12A C15A 1_555 1_555
C13A C15A 1_555 1_555
C5C C8C 1_555 1_555
H6C C8C 1_555 1_555
H7C C9C 1_555 1_555
C23C C22C 1_555 1_555
C24C C22C 1_555 1_555
H12C C18C 1_555 1_555
C10C C14C 1_555 1_555
C11C C14C 1_555 1_555
C27A C25A 1_555 1_555
H17A C25A 1_555 1_555
H18A C26A 1_555 1_555
C4A C6A 1_555 1_555
H4A C6A 1_555 1_555
H5A C7A 1_555 1_555
C25B C23B 1_555 1_555
H15B C23B 1_555 1_555
C26B C24B 1_555 1_555
H16B C24B 1_555 1_555
C8A C12A 1_555 1_555
H10A C12A 1_555 1_555
C9A C13A 1_555 1_555
H11A C13A 1_555 1_555
C3C C5C 1_555 1_555
C25C C23C 1_555 1_555
H15C C23C 1_555 1_555
C26C C24C 1_555 1_555
H16C C24C 1_555 1_555
C6C C10C 1_555 1_555
H8C C10C 1_555 1_555
C7C C11C 1_555 1_555
H9C C11C 1_555 1_555
C28A C27A 1_555 1_555
C2A C4A 1_555 1_555
Al3A O10C 1_555 1_555
Al2B_2 O7B_2 1_555 1_555
C27B C25B 1_555 1_555
H17B C25B 1_555 1_555
H18B C26B 1_555 1_555
C5A C8A 1_555 1_555
H6A C8A 1_555 1_555
H7A C9A 1_555 1_555
O7B_2 C28 1_555 1_555
O3F_2 C28 1_555 1_555
O5E C3C 1_555 1_555
O9E C3C 1_555 1_555
C27C C25C 1_555 1_555
H17C C25C 1_555 1_555
H18C C26C 1_555 1_555
C4C C6C 1_555 1_555
H4C C6C 1_555 1_555
H5C C7C 1_555 1_555
O7C C28A 1_555 1_555
O3E C28A 1_555 1_555
O8A C2A 1_555 1_555
O10C C2A 1_555 1_555
C28B C27B 1_555 1_555
C3A C5A 1_555 1_555
Al2D O5D 1_555 1_555
Al1B_2 O3F_2 1_555 1_555
Al2E O5E 1_555 1_555
Al3D O9E 1_555 1_555
C28C C27C 1_555 1_555
C2C C4C 1_555 1_555
Al2C O7C 1_555 1_555
Al1C O3E 1_555 1_555
Al2A O8A 1_555 1_555
Al2A_2 O7A 1_555 1_555
O7_2 C28B 1_555 1_555
O3G_2 C28B 1_555 1_555
O5D C3A 1_555 1_555
O9D C3A 1_555 1_555
O7A C28C 1_555 1_555
O3D C28C 1_555 1_555
O8C C2C 1_555 1_555
O10A C2C 1_555 1_555
Al2_2 O7_2 1_555 1_555
Al1_2 O3G_2 1_555 1_555
Al3D_2 O9D 1_555 1_555
Al1A O3D 1_555 1_555
Al2C_2 O8C 1_555 1_555
Al3A_2 O10A 1_555 1_555
C1 O6 1_555 1_555
C2 O10B 1_555 1_555
C11 C14 1_555 1_555
C13 C15 1_555 1_555
C26 C27 1_555 1_555
Al2G O5G 1_555 1_555
C1G O6G 1_555 1_555
Al3F O9G 1_555 1_555
C2B O8B 1_555 1_555
C3B O5F 1_555 1_555
O1F Al1B 1_555 1_555
C1B O2B 1_555 1_555
C1F O2F 1_555 1_555
C11B C14B 1_555 1_555
C13B C15B 1_555 1_555
C17C C20C 1_555 1_555
C16A C18A 1_555 1_555
C17A C20A 1_555 1_555
C16C C18C 1_555 1_555
C9C C5C 1_555 1_555
C26A C27A 1_555 1_555
C7A C4A 1_555 1_555
C26B C27B 1_555 1_555
C9A C5A 1_555 1_555
C26C C27C 1_555 1_555
C7C C4C 1_555 1_555

#END
