
#######################################################################
#
#                 Cambridge Crystallographic Data Centre
#                                CCDC 
#
#######################################################################
#
# If this CIF has been generated from an entry in the Cambridge 
# Structural Database, then it will include bibliographic, chemical, 
# crystal, experimental, refinement or atomic coordinate data resulting 
# from the CCDC's data processing and validation procedures.
#
#######################################################################

data_OTECAT
_chemical_formula_moiety         '(C116 H80 Al8 O36)n'
_symmetry_cell_setting           tetragonal
_symmetry_space_group_name_H-M   'P 41 21 2'
_symmetry_Int_Tables_number      92
_space_group_name_Hall           'P 4abw 2nw'
loop_
_symmetry_equiv_pos_site_id
_symmetry_equiv_pos_as_xyz
1 x,y,z
2 1/2-y,1/2+x,1/4+z
3 -x,-y,1/2+z
4 1/2+y,1/2-x,3/4+z
5 1/2+x,1/2-y,3/4-z
6 1/2-x,1/2+y,1/4-z
7 y,x,-z
8 -y,-x,1/2-z
_cell_length_a                   18.9175(19)
_cell_length_b                   18.9175(19)
_cell_length_c                   71.908(7)
_cell_angle_alpha                90
_cell_angle_beta                 90
_cell_angle_gamma                90
_cell_volume                     25733.8
loop_
_atom_site_label
_atom_site_type_symbol
_atom_site_fract_x
_atom_site_fract_y
_atom_site_fract_z
Al1 Al 0.39683(6) 0.64706(6) 0.53690(2)
Al2 Al 0.34168(6) 0.67141(6) 0.49945(2)
Al3 Al 0.50432(6) 0.52994(6) 0.55566(2)
O1 O 0.46706(12) 0.57874(13) 0.53577(3)
H1 H 0.4855 0.5679 0.5238
O2 O 0.40867(13) 0.62303(13) 0.48410(3)
O3 O 0.44993(13) 0.69850(14) 0.55399(4)
C1 C 0.6957(2) 0.8529(2) 0.70337(6)
O4 O 0.53797(14) 0.48138(15) 0.57733(4)
C2 C 0.5644(2) 0.3896(3) 0.59915(6)
C3 C 0.4200(2) 0.2585(2) 0.69031(6)
O5 O 0.49065(15) 0.60678(16) 0.57197(3)
C4 C 0.5577(2) 0.2914(2) 0.65245(6)
C5 C 0.2062(2) 1.0031(2) 0.67913(6)
C6 C 0.4737(2) 0.6739(3) 0.56947(7)
C7 C 0.3326(2) 0.9404(3) 0.66495(6)
C8 C 0.4662(3) 0.8375(3) 0.63709(6)
C9 C 0.6006(2) 0.3258(2) 0.60214(6)
H2 H 0.6266 0.3041 0.5924
C10 C 0.4036(2) 0.8732(2) 0.64207(6)
H3 H 0.3653 0.8746 0.6335
C11 C 0.5633(2) 0.4208(3) 0.57954(6)
C12 C 0.7072(2) 0.8631(2) 0.68381(6)
H4 H 0.7538 0.8643 0.6789
C13 C 0.2937(2) 0.2518(2) 0.69014(6)
H5 H 0.2507 0.2496 0.6833
C14 C 0.5478(2) 0.2197(3) 0.68643(6)
H6 H 0.5449 0.1951 0.6979
C15 C 0.4987(2) 0.2968(2) 0.66312(6)
H7 H 0.4614 0.3267 0.6591
C16 C 0.3971(2) 0.9058(2) 0.65906(7)
C17 C 0.2730(2) 1.0371(3) 0.68035(6)
H8 H 0.2749 1.0827 0.6859
C18 C 0.5202(2) 0.8740(3) 0.66548(7)
C19 C 0.4771(2) 0.7183(2) 0.58595(6)
C20 C 0.4174(2) 0.2586(2) 0.70986(7)
H9 H 0.4601 0.2624 0.7167
C21 C 0.2068(2) 0.9386(2) 0.67023(6)
H10 H 0.1630 0.9149 0.6687
C22 C 0.2924(2) 0.2486(2) 0.70953(6)
C23 C 0.5800(2) 0.8684(2) 0.67954(7)
C24 C 0.6156(2) 0.2494(2) 0.65908(7)
H11 H 0.6578 0.2445 0.6520
C25 C 0.5239(2) 0.8384(2) 0.64835(6)
H12 H 0.5663 0.8152 0.6447
C26 C 0.6283(2) 0.8553(2) 0.71020(6)
H13 H 0.6203 0.8524 0.7232
C27 C 0.4906(2) 0.2588(3) 0.68031(6)
C28 C 0.3358(2) 1.0078(2) 0.67396(6)
H14 H 0.3796 1.0317 0.6755
C29 C 0.3582(2) 0.2585(2) 0.68059(6)
H15 H 0.3587 0.2630 0.6674
C30 C 0.5071(3) 0.7352(2) 0.61801(6)
H16 H 0.5301 0.7194 0.6290
C31 C 0.5113(2) 0.6941(2) 0.60206(6)
H17 H 0.5366 0.6507 0.6020
C32 C 0.4702(2) 0.7985(3) 0.61843(7)
C33 C 0.5704(2) 0.8621(2) 0.69783(6)
H18 H 0.5236 0.8622 0.7027
C34 C 0.6490(2) 0.8713(2) 0.67208(6)
H19 H 0.6557 0.8787 0.6591
C35 C 0.5287(2) 0.3922(3) 0.63166(7)
H20 H 0.5048 0.4151 0.6416
C36 C 0.5629(2) 0.3277(2) 0.63461(6)
C37 C 0.5975(2) 0.2946(3) 0.61989(7)
H21 H 0.6194 0.2501 0.6219
C38 C 0.4412(2) 0.7838(2) 0.58620(6)
H22 H 0.4188 0.8007 0.5752
C39 C 0.1448(2) 1.0334(3) 0.68729(6)
C40 C 0.3569(2) 0.2536(2) 0.71893(6)
H23 H 0.3572 0.2533 0.7321
O6 O 0.14854(13) 1.09511(16) 0.69402(3)
O7 O 0.08800(15) 0.99726(15) 0.68760(3)
C41 C 0.2679(2) 0.9054(3) 0.66332(6)
H24 H 0.2652 0.8601 0.6577
O8 O 0.58917(14) 0.38122(14) 0.56707(4)
C42 C 0.4385(2) 0.8230(2) 0.60211(7)
H25 H 0.4148 0.8673 0.6021
C43 C 0.4561(2) 0.9080(2) 0.67070(6)
H26 H 0.4534 0.9325 0.6822
C44 C 0.6539(2) 0.0999(2) 0.69006(6)
H27 H 0.6068 0.0828 0.6912
C45 C 0.7385(2) 0.1957(2) 0.68182(7)
H28 H 0.7474 0.2429 0.6780
C46 C 0.6704(2) 0.1688(3) 0.68279(6)
O9 O 0.75178(14) 0.84253(15) 0.73277(4)
O10 O 0.52277(12) 0.45239(12) 0.54091(3)
H29 H 0.4873 0.4397 0.5322
C47 C 0.7147(2) 0.0590(2) 0.69541(6)
H30 H 0.7071 0.0132 0.7004
C48 C 0.7943(2) 0.1494(3) 0.68683(6)
H31 H 0.8416 0.1655 0.6854
C49 C 0.5302(2) 0.4243(2) 0.61305(6)
H32 H 0.5078 0.4684 0.6108
C50 C 0.6077(2) 0.2161(2) 0.67635(7)
C51 C 0.7834(2) 0.0826(2) 0.69365(5)
C52 C 0.8420(2) 0.0376(3) 0.69796(5)
O11 O 0.83435(14) -0.02621(15) 0.70245(3)
O12 O 0.90469(14) 0.06832(14) 0.69803(3)
O13 O 0.22271(13) 0.22997(14) 0.73627(4)
C53 C 0.2255(2) 0.2349(2) 0.71871(6)
O14 O 0.17180(13) 0.21664(13) 0.70843(4)
C54 C 0.7587(2) 0.8432(2) 0.71479(7)
O15 O 0.81699(14) 0.83680(13) 0.70689(3)
O16 O 0.33932(14) 0.60407(14) 0.51879(3)
O17 O 0.42160(13) 0.69861(13) 0.51467(3)
O18 O 0.26325(14) 0.62375(14) 0.48941(4)
C55 C 0.4773(2) 0.6216(2) 0.49312(6)
H33 H 0.5148 0.6194 0.4835
H34 H 0.4810 0.5786 0.5009
C56 C 0.4879(2) 0.6846(2) 0.50480(5)
H35 H 0.5266 0.6761 0.5138
H36 H 0.5009 0.7256 0.4970
C57 C 0.2277(3) 0.5800(3) 0.50354(7)
H37 H 0.2051 0.5387 0.4975
H38 H 0.1905 0.6080 0.5098
C58 C 0.2813(3) 0.5552(3) 0.51757(7)
H39 H 0.2585 0.5508 0.5299
H40 H 0.2992 0.5081 0.5139
Al4 Al 0.60192(6) 0.39767(6) 0.54131(2)
Al1E Al 0.10317(6) 0.14706(6) 0.71310(2)
Al1E_2 Al 0.10317(6) 1.14706(6) 0.71310(2)
Al2A Al 0.82859(6) 0.84168(6) 0.74945(2)
Al2E Al 0.15832(6) 0.17141(6) 0.75055(2)
Al3E Al -0.00432(6) 1.02994(6) 0.69434(2)
Al3E_2 Al 0.99568(6) 0.02994(6) 0.69434(2)
O2F O 0.62303(13) 0.40867(13) 0.51590(3)
O6E O 0.35146(13) 0.59511(16) 0.55598(3)
O7E O 0.41200(15) 0.49726(15) 0.56240(3)
O9C O 0.34253(15) 0.74822(14) 0.48277(4)
O11E O 0.66565(14) 0.47379(15) 0.54755(3)
O12E O 0.59531(14) 0.56832(14) 0.55197(3)
O13E O 0.27729(13) 0.72997(14) 0.51373(4)
O14E O 0.32820(13) 0.71664(13) 0.54157(4)
O15E O 0.68301(14) 0.33680(13) 0.54311(3)
Al4E Al 0.89808(6) -0.10233(6) 0.70869(2)
Al4E_2 Al 0.89808(6) 0.89767(6) 0.70869(2)
Al4F Al 0.39767(6) 0.60192(6) 0.45869(2)
Al1F Al 0.64706(6) 0.39683(6) 0.46310(2)
O1F O 0.57874(13) 0.46706(12) 0.46423(3)
O3F O 0.69850(14) 0.44993(13) 0.44601(4)
O16F O 0.60407(14) 0.33932(14) 0.48121(3)
O17F O 0.69861(13) 0.42160(13) 0.48533(3)
O6C O 0.59511(16) 0.35146(13) 0.44402(3)
O14C O 0.71664(13) 0.32820(13) 0.45843(4)
Al2F Al 0.67141(6) 0.34168(6) 0.50055(2)
O18F O 0.62375(14) 0.26325(14) 0.51059(4)
O9E O 0.74822(14) 0.34253(15) 0.51723(4)
O13C O 0.72997(14) 0.27729(13) 0.48627(4)
Al3F Al 0.52994(6) 0.50432(6) 0.44434(2)
O4F O 0.48138(15) 0.53797(14) 0.42267(4)
O5F O 0.60678(16) 0.49065(15) 0.42803(3)
O10F O 0.45239(12) 0.52277(12) 0.45909(3)
O7C O 0.49726(15) 0.41200(15) 0.43760(3)
O12C O 0.56832(14) 0.59531(14) 0.44803(3)
H1F H 0.5679 0.4855 0.4762
C55F C 0.6216(2) 0.4773(2) 0.50688(6)
C6F C 0.6739(3) 0.4737(2) 0.43053(7)
C1F C 0.8529(2) 0.6957(2) 0.29663(6)
C12F C 0.8631(2) 0.7072(2) 0.31619(6)
C26F C 0.8553(2) 0.6283(2) 0.28980(6)
C54F C 0.8432(2) 0.7587(2) 0.28521(7)
C11F C 0.4208(3) 0.5633(2) 0.42046(6)
C2F C 0.3896(3) 0.5644(2) 0.40085(6)
C9F C 0.3258(2) 0.6006(2) 0.39786(6)
C49F C 0.4243(2) 0.5302(2) 0.38695(6)
C3F C 0.2585(2) 0.4200(2) 0.30969(6)
C20F C 0.2586(2) 0.4174(2) 0.29014(7)
C27F C 0.2588(3) 0.4906(2) 0.31969(6)
C29F C 0.2585(2) 0.3582(2) 0.31941(6)
C4F C 0.2914(2) 0.5577(2) 0.34755(6)
C15F C 0.2968(2) 0.4987(2) 0.33688(6)
C24F C 0.2494(2) 0.6156(2) 0.34092(7)
C36F C 0.3277(2) 0.5629(2) 0.36539(6)
C5F C 1.0031(2) 0.2062(2) 0.32087(6)
C17F C 1.0371(3) 0.2730(2) 0.31965(6)
C21F C 0.9386(2) 0.2068(2) 0.32977(6)
C39F C 1.0334(3) 0.1448(2) 0.31271(6)
C19F C 0.7183(2) 0.4771(2) 0.41405(6)
C7F C 0.9404(3) 0.3326(2) 0.33505(6)
C16F C 0.9058(2) 0.3971(2) 0.34094(7)
C28F C 1.0078(2) 0.3358(2) 0.32604(6)
C41F C 0.9054(3) 0.2679(2) 0.33668(6)
C8F C 0.8375(3) 0.4662(3) 0.36291(6)
C10F C 0.8732(2) 0.4036(2) 0.35793(6)
C25F C 0.8384(2) 0.5239(2) 0.35165(6)
C32F C 0.7985(3) 0.4702(2) 0.38157(7)
H2F H 0.3041 0.6266 0.4076
C37F C 0.2946(3) 0.5975(2) 0.38011(7)
H3F H 0.8746 0.3653 0.3665
O8F O 0.38122(14) 0.58917(14) 0.43293(4)
H4F H 0.8643 0.7538 0.3211
C34F C 0.8713(2) 0.6490(2) 0.32792(6)
C13F C 0.2518(2) 0.2937(2) 0.30986(6)
H5F H 0.2496 0.2507 0.3167
C22F C 0.2486(2) 0.2924(2) 0.29047(6)
C14F C 0.2197(3) 0.5478(2) 0.31357(6)
H6F H 0.1951 0.5449 0.3021
C50F C 0.2161(2) 0.6077(2) 0.32365(7)
H7F H 0.3267 0.4614 0.3409
C43F C 0.9080(2) 0.4561(2) 0.32930(6)
H8F H 1.0827 0.2749 0.3141
C18F C 0.8740(3) 0.5202(2) 0.33452(7)
C23F C 0.8684(2) 0.5800(2) 0.32046(7)
C31F C 0.6941(2) 0.5113(2) 0.39794(6)
C38F C 0.7838(2) 0.4412(2) 0.41380(6)
H9F H 0.2624 0.4601 0.2833
C40F C 0.2536(2) 0.3569(2) 0.28107(6)
H10F H 0.9149 0.1630 0.3313
C53F C 0.2349(2) 0.2255(2) 0.28129(6)
C33F C 0.8621(2) 0.5704(2) 0.30217(6)
H11F H 0.2445 0.6578 0.3480
H12F H 0.8152 0.5663 0.3553
H13F H 0.8524 0.6203 0.2768
H14F H 1.0317 0.3796 0.3245
H15F H 0.2630 0.3587 0.3326
C30F C 0.7352(2) 0.5071(3) 0.38199(6)
H16F H 0.7194 0.5301 0.3710
H17F H 0.6507 0.5366 0.3980
C42F C 0.8230(2) 0.4385(2) 0.39789(7)
H18F H 0.8622 0.5236 0.2973
H19F H 0.8787 0.6557 0.3409
C35F C 0.3922(3) 0.5287(2) 0.36834(7)
H20F H 0.4151 0.5048 0.3584
H21F H 0.2501 0.6194 0.3781
H22F H 0.8007 0.4188 0.4248
O6F O 1.09511(16) 0.14854(13) 0.30598(3)
O7F O 0.99726(15) 0.08800(15) 0.31240(3)
H23F H 0.2533 0.3572 0.2679
Al1C Al 1.14706(6) 0.10317(6) 0.28690(2)
Al3C Al 1.02994(6) -0.00432(6) 0.30566(2)
H24F H 0.8601 0.2652 0.3423
H25F H 0.8673 0.4148 0.3979
H26F H 0.9325 0.4534 0.3178
C44F C 0.0999(2) 0.6539(2) 0.30994(6)
H27F H 0.0828 0.6068 0.3088
C46F C 0.1688(3) 0.6704(2) 0.31721(6)
C47F C 0.0590(2) 0.7147(2) 0.30459(6)
C45F C 0.1957(2) 0.7385(2) 0.31818(7)
H28F H 0.2429 0.7474 0.3220
C48F C 0.1494(3) 0.7943(2) 0.31317(6)
O9F O 0.84253(15) 0.75178(14) 0.26723(4)
Al2D Al 0.84168(6) 0.82859(6) 0.25055(2)
H29F H 0.4397 0.4873 0.4678
H30F H 0.0132 0.7071 0.2996
C51F C 0.0826(2) 0.7834(2) 0.30635(5)
H31F H 0.1655 0.8416 0.3146
H32F H 0.4684 0.5078 0.3892
C52F C 0.0376(3) 0.8420(2) 0.30204(5)
O11F O -0.02621(15) 0.83435(14) 0.29755(3)
O12F O 0.06832(14) 0.90469(14) 0.30197(3)
Al4C Al -0.10233(6) 0.89808(6) 0.29131(2)
Al3C_2 Al 0.02994(6) 0.99568(6) 0.30566(2)
O13F O 0.22997(14) 0.22271(13) 0.26373(4)
Al2C Al 0.17141(6) 0.15832(6) 0.24945(2)
O14F O 0.21664(13) 0.17180(13) 0.29157(4)
Al1C_2 Al 0.14706(6) 0.10317(6) 0.28690(2)
O15F O 0.83680(13) 0.81699(14) 0.29311(3)
Al4C_2 Al 0.89767(6) 0.89808(6) 0.29131(2)
C58F C 0.5552(3) 0.2813(3) 0.48243(7)
C56F C 0.6846(2) 0.4879(2) 0.49520(5)
C57F C 0.5800(3) 0.2277(3) 0.49646(7)
H33F H 0.6194 0.5148 0.5165
H34F H 0.5786 0.4810 0.4991
H35F H 0.6761 0.5266 0.4862
H36F H 0.7256 0.5009 0.5030
H37F H 0.5387 0.2051 0.5025
H38F H 0.6080 0.1905 0.4902
H39F H 0.5508 0.2585 0.4701
H40F H 0.5081 0.2992 0.4861
O11C O 0.47379(15) 0.66565(14) 0.45245(3)
O15C O 0.33680(13) 0.68301(14) 0.45689(3)
loop_
_geom_bond_atom_site_label_1
_geom_bond_atom_site_label_2
_geom_bond_site_symmetry_1
_geom_bond_site_symmetry_2
Al1 O1 1_555 1_555
Al2 O2 1_555 1_555
Al3 O1 1_555 1_555
O1 H1 1_555 1_555
O2 C55 1_555 1_555
O3 Al1 1_555 1_555
C1 C12 1_555 1_555
O4 Al3 1_555 1_555
C2 C9 1_555 1_555
C3 C20 1_555 1_555
O5 Al3 1_555 1_555
C4 C15 1_555 1_555
C5 C17 1_555 1_555
C6 O3 1_555 1_555
C7 C16 1_555 1_555
C8 C10 1_555 1_555
C9 H2 1_555 1_555
C10 H3 1_555 1_555
C11 O4 1_555 1_555
C12 H4 1_555 1_555
C13 H5 1_555 1_555
C14 H6 1_555 1_555
C15 H7 1_555 1_555
C16 C10 1_555 1_555
C17 H8 1_555 1_555
C18 C23 1_555 1_555
C19 C6 1_555 1_555
C20 H9 1_555 1_555
C21 C5 1_555 1_555
H10 C21 1_555 1_555
C22 C13 1_555 1_555
C23 C33 1_555 1_555
C24 C4 1_555 1_555
H11 C24 1_555 1_555
C25 C8 1_555 1_555
H12 C25 1_555 1_555
C26 C1 1_555 1_555
H13 C26 1_555 1_555
C27 C3 1_555 1_555
C28 C7 1_555 1_555
H14 C28 1_555 1_555
C29 C3 1_555 1_555
H15 C29 1_555 1_555
C30 H16 1_555 1_555
C31 C19 1_555 1_555
H17 C31 1_555 1_555
C32 C8 1_555 1_555
C33 C26 1_555 1_555
H18 C33 1_555 1_555
C34 C12 1_555 1_555
H19 C34 1_555 1_555
C35 H20 1_555 1_555
C36 C4 1_555 1_555
C37 C9 1_555 1_555
H21 C37 1_555 1_555
C38 C19 1_555 1_555
H22 C38 1_555 1_555
C39 C5 1_555 1_555
C40 C20 1_555 1_555
H23 C40 1_555 1_555
O6 C39 1_555 1_555
O7 C39 1_555 1_555
C41 C7 1_555 1_555
H24 C41 1_555 1_555
O8 C11 1_555 1_555
C42 C32 1_555 1_555
H25 C42 1_555 1_555
C43 C16 1_555 1_555
H26 C43 1_555 1_555
C44 H27 1_555 1_555
C45 H28 1_555 1_555
C46 C44 1_555 1_555
O9 C54 1_555 1_555
O10 Al3 1_555 1_555
H29 O10 1_555 1_555
C47 C44 1_555 1_555
H30 C47 1_555 1_555
C48 C45 1_555 1_555
H31 C48 1_555 1_555
C49 C2 1_555 1_555
H32 C49 1_555 1_555
C50 C14 1_555 1_555
C51 C47 1_555 1_555
C52 C51 1_555 1_555
O11 C52 1_555 1_555
O12 C52 1_555 1_555
O13 C53 1_555 1_555
C53 C22 1_555 1_555
O14 C53 1_555 1_555
C54 C1 1_555 1_555
O15 C54 1_555 1_555
O16 Al1 1_555 1_555
O17 Al1 1_555 1_555
O18 Al2 1_555 1_555
C55 H33 1_555 1_555
H34 C55 1_555 1_555
C56 O17 1_555 1_555
H35 C56 1_555 1_555
H36 C56 1_555 1_555
C57 O18 1_555 1_555
H37 C57 1_555 1_555
H38 C57 1_555 1_555
C58 O16 1_555 1_555
H39 C58 1_555 1_555
H40 C58 1_555 1_555
Al4 O8 1_555 1_555
Al1E O14 1_555 1_555
Al1E_2 O6 1_555 1_555
Al2A O9 1_555 1_555
Al2E O13 1_555 1_555
Al3E O7 1_555 1_555
Al3E_2 O12 1_555 1_555
O2F Al4 1_555 1_555
O6E Al1 1_555 1_555
O7E Al3 1_555 1_555
O9C Al2 1_555 1_555
O11E Al4 1_555 1_555
O12E Al3 1_555 1_555
O13E Al2 1_555 1_555
O14E Al1 1_555 1_555
O15E Al4 1_555 1_555
Al4E O11 1_555 1_555
Al4E_2 O15 1_555 1_555
Al4F O2 1_555 1_555
Al1F O1F 1_555 1_555
O1F Al3F 1_555 1_555
O3F Al1F 1_555 1_555
O16F Al1F 1_555 1_555
O17F Al1F 1_555 1_555
O6C Al1F 1_555 1_555
O14C Al1F 1_555 1_555
Al2F O2F 1_555 1_555
O18F Al2F 1_555 1_555
O9E Al2F 1_555 1_555
O13C Al2F 1_555 1_555
Al3F O4F 1_555 1_555
O4F C11F 1_555 1_555
O5F Al3F 1_555 1_555
O10F Al4F 1_555 1_555
O7C Al3F 1_555 1_555
O12C Al3F 1_555 1_555
H1F O1F 1_555 1_555
C55F O2F 1_555 1_555
C6F O3F 1_555 1_555
C1F C12F 1_555 1_555
C12F H4F 1_555 1_555
C26F C1F 1_555 1_555
C54F C1F 1_555 1_555
C11F C2F 1_555 1_555
C2F C9F 1_555 1_555
C9F H2F 1_555 1_555
C49F C2F 1_555 1_555
C3F C20F 1_555 1_555
C20F H9F 1_555 1_555
C27F C3F 1_555 1_555
C29F C3F 1_555 1_555
C4F C15F 1_555 1_555
C15F C27F 1_555 1_555
C24F C4F 1_555 1_555
C36F C4F 1_555 1_555
C5F C17F 1_555 1_555
C17F C28F 1_555 1_555
C21F C5F 1_555 1_555
C39F C5F 1_555 1_555
C19F C6F 1_555 1_555
C7F C16F 1_555 1_555
C16F C10F 1_555 1_555
C28F C7F 1_555 1_555
C41F C21F 1_555 1_555
C8F C10F 1_555 1_555
C10F H3F 1_555 1_555
C25F C8F 1_555 1_555
C32F C8F 1_555 1_555
C37F C9F 1_555 1_555
O8F Al4F 1_555 1_555
C34F C12F 1_555 1_555
C13F C29F 1_555 1_555
H5F C13F 1_555 1_555
C22F C13F 1_555 1_555
C14F C27F 1_555 1_555
H6F C14F 1_555 1_555
C50F C24F 1_555 1_555
H7F C15F 1_555 1_555
C43F C16F 1_555 1_555
H8F C17F 1_555 1_555
C18F C25F 1_555 1_555
C23F C34F 1_555 1_555
C31F C19F 1_555 1_555
C38F C19F 1_555 1_555
C40F C20F 1_555 1_555
H10F C21F 1_555 1_555
C53F C22F 1_555 1_555
C33F C26F 1_555 1_555
H11F C24F 1_555 1_555
H12F C25F 1_555 1_555
H13F C26F 1_555 1_555
H14F C28F 1_555 1_555
H15F C29F 1_555 1_555
C30F C32F 1_555 1_555
H16F C30F 1_555 1_555
H17F C31F 1_555 1_555
C42F C32F 1_555 1_555
H18F C33F 1_555 1_555
H19F C34F 1_555 1_555
C35F C49F 1_555 1_555
H20F C35F 1_555 1_555
H21F C37F 1_555 1_555
H22F C38F 1_555 1_555
O6F C39F 1_555 1_555
O7F C39F 1_555 1_555
H23F C40F 1_555 1_555
Al1C O6F 1_555 1_555
Al3C O7F 1_555 1_555
H24F C41F 1_555 1_555
H25F C42F 1_555 1_555
H26F C43F 1_555 1_555
C44F H27F 1_555 1_555
C46F C50F 1_555 1_555
C47F C44F 1_555 1_555
C45F C46F 1_555 1_555
H28F C45F 1_555 1_555
C48F C45F 1_555 1_555
O9F C54F 1_555 1_555
Al2D O9F 1_555 1_555
H29F O10F 1_555 1_555
H30F C47F 1_555 1_555
C51F C47F 1_555 1_555
H31F C48F 1_555 1_555
H32F C49F 1_555 1_555
C52F C51F 1_555 1_555
O11F C52F 1_555 1_555
O12F C52F 1_555 1_555
Al4C O11F 1_555 1_555
Al3C_2 O12F 1_555 1_555
O13F C53F 1_555 1_555
Al2C O13F 1_555 1_555
O14F C53F 1_555 1_555
Al1C_2 O14F 1_555 1_555
O15F C54F 1_555 1_555
Al4C_2 O15F 1_555 1_555
C58F O16F 1_555 1_555
C56F O17F 1_555 1_555
C57F O18F 1_555 1_555
H33F C55F 1_555 1_555
H34F C55F 1_555 1_555
H35F C56F 1_555 1_555
H36F C56F 1_555 1_555
H37F C57F 1_555 1_555
H38F C57F 1_555 1_555
H39F C58F 1_555 1_555
H40F C58F 1_555 1_555
O11C Al4F 1_555 1_555
O15C Al4F 1_555 1_555
Al2 O16 1_555 1_555
Al2 O17 1_555 1_555
C2 C11 1_555 1_555
O5 C6 1_555 1_555
C13 C29 1_555 1_555
C14 C27 1_555 1_555
C15 C27 1_555 1_555
C17 C28 1_555 1_555
C18 C25 1_555 1_555
C18 C43 1_555 1_555
C21 C41 1_555 1_555
C22 C40 1_555 1_555
C23 C34 1_555 1_555
C24 C50 1_555 1_555
C30 C31 1_555 1_555
C30 C32 1_555 1_555
C35 C36 1_555 1_555
C35 C49 1_555 1_555
C36 C37 1_555 1_555
C38 C42 1_555 1_555
C45 C46 1_555 1_555
C46 C50 1_555 1_555
O10 Al4 1_555 1_555
C48 C51 1_555 1_555
C55 C56 1_555 1_555
C57 C58 1_555 1_555
O16F Al2F 1_555 1_555
O17F Al2F 1_555 1_555
Al3F O10F 1_555 1_555
O5F C6F 1_555 1_555
C55F C56F 1_555 1_555
C11F O8F 1_555 1_555
C36F C37F 1_555 1_555
C36F C35F 1_555 1_555
C7F C41F 1_555 1_555
C22F C40F 1_555 1_555
C14F C50F 1_555 1_555
C43F C18F 1_555 1_555
C18F C23F 1_555 1_555
C23F C33F 1_555 1_555
C31F C30F 1_555 1_555
C38F C42F 1_555 1_555
C44F C46F 1_555 1_555
C48F C51F 1_555 1_555
C58F C57F 1_555 1_555

#END
