
#######################################################################
#
#                 Cambridge Crystallographic Data Centre
#                                CCDC 
#
#######################################################################
#
# If this CIF has been generated from an entry in the Cambridge 
# Structural Database, then it will include bibliographic, chemical, 
# crystal, experimental, refinement or atomic coordinate data resulting 
# from the CCDC's data processing and validation procedures.
#
#######################################################################

data_OTEDOI
_chemical_formula_moiety         '(C112 H72 Al8 O40)n'
_symmetry_cell_setting           tetragonal
_symmetry_space_group_name_H-M   'P 42 21 2'
_symmetry_Int_Tables_number      94
_space_group_name_Hall           'P 4n 2n'
loop_
_symmetry_equiv_pos_site_id
_symmetry_equiv_pos_as_xyz
1 x,y,z
2 1/2-y,1/2+x,1/2+z
3 -x,-y,z
4 1/2+y,1/2-x,1/2+z
5 1/2+x,1/2-y,1/2-z
6 1/2-x,1/2+y,1/2-z
7 y,x,-z
8 -y,-x,-z
_cell_length_a                   18.5370(6)
_cell_length_b                   18.5370(6)
_cell_length_c                   37.4217(15)
_cell_angle_alpha                90
_cell_angle_beta                 90
_cell_angle_gamma                90
_cell_volume                     12858.9
loop_
_atom_site_label
_atom_site_type_symbol
_atom_site_fract_x
_atom_site_fract_y
_atom_site_fract_z
Al1 Al 0.66488(3) 0.33512(3) 0.0000
Al2 Al 0.63453(3) 0.40746(3) 0.07948(2)
Al3 Al 0.5000 0.5000 0.11372(2)
O1 O 0.56895(6) 0.48125(6) 0.07939(3)
H1 H 0.5706 0.5133 0.0596
O2 O 0.60642(6) 0.37349(6) 0.03508(3)
H2 H 0.5564 0.3761 0.0298
O3 O 0.56749(8) 0.48049(7) 0.15096(3)
O4 O 0.66749(7) 0.43480(7) 0.12552(3)
C1 C 0.63107(11) 0.45833(9) 0.15193(5)
C2 C 0.79323(9) 0.77411(9) 0.43347(5)
C3 C 1.00631(10) 0.15459(9) 0.38540(5)
C4 C 0.66828(12) 0.45891(10) 0.18728(5)
C5 C 0.78904(10) 0.70842(10) 0.41058(5)
C6 C 0.79410(14) 0.64078(11) 0.42556(6)
H3 H 0.7947 0.6356 0.4508
C7 C 0.63821(13) 0.49377(12) 0.21649(6)
H4 H 0.5931 0.5177 0.2141
C8 C 0.73893(14) 0.45932(11) 0.25328(6)
C9 C 0.79286(12) 0.65530(11) 0.35204(5)
H5 H 0.7922 0.6603 0.3268
C10 C 0.96989(12) 0.22096(10) 0.37161(6)
C11 C 0.78831(12) 0.71664(10) 0.37365(5)
H6 H 0.7848 0.7633 0.3633
C12 C 0.79824(17) 0.58040(12) 0.40407(6)
H7 H 0.8011 0.5338 0.4145
C13 C 0.99920(14) 0.28935(10) 0.37620(6)
H8 H 1.0441 0.2952 0.3881
C14 C 0.77130(15) 0.52092(12) 0.31048(6)
H9 H 0.7440 0.5613 0.3026
C15 C 0.73532(13) 0.42421(11) 0.19145(6)
H10 H 0.7570 0.4007 0.1716
C16 C 0.76944(14) 0.42410(12) 0.22379(6)
H11 H 0.8143 0.3999 0.2263
C17 C 0.80612(15) 0.52363(11) 0.34350(7)
C18 C 0.77606(16) 0.45973(12) 0.28897(6)
C19 C 0.89581(15) 0.33998(12) 0.34506(7)
C20 C 0.85383(16) 0.40438(12) 0.33276(7)
C21 C 0.90500(14) 0.21109(12) 0.35240(7)
H12 H 0.8870 0.1640 0.3478
C22 C 0.84768(16) 0.46391(12) 0.35456(7)
H13 H 0.8714 0.4648 0.3770
C23 C 0.67327(15) 0.49400(12) 0.24895(6)
H14 H 0.6521 0.5183 0.2687
C24 C 0.79823(14) 0.58794(11) 0.36696(6)
C25 C 0.81803(16) 0.40216(13) 0.30022(7)
H15 H 0.8223 0.3607 0.2855
C26 C 0.96264(16) 0.34854(12) 0.36342(7)
H16 H 0.9821 0.3955 0.3669
C27 C 0.86819(17) 0.27134(12) 0.34038(8)
H17 H 0.8231 0.2654 0.3287
O5 O 0.79544(6) 0.83453(6) 0.41747(3)
O6 O 1.06888(7) 0.16001(6) 0.39770(3)
O7 O 0.97070(7) 0.09672(6) 0.38313(4)
O8 O 0.79647(7) 0.76635(7) 0.46725(3)
O9 O 0.70698(7) 0.46956(7) 0.05971(4)
C28 C 0.74618(11) 0.45558(12) 0.03223(6)
H18 H 0.7850 0.4879 0.0278
O10 O 0.73940(7) 0.40458(7) 0.01061(4)
Al2B Al 0.36547(3) 0.59254(3) 0.07948(2)
O1B O 0.43105(6) 0.51875(6) 0.07939(3)
H1B H 0.4294 0.4867 0.0596
O2B O 0.39358(6) 0.62651(6) 0.03508(3)
H2B H 0.4436 0.6239 0.0298
O3B O 0.43251(8) 0.51951(7) 0.15096(3)
O4B O 0.33251(7) 0.56520(7) 0.12552(3)
C1B C 0.36893(11) 0.54167(9) 0.15193(5)
C2B C 0.20677(9) 0.22589(9) 0.43347(5)
C3B C -0.00631(10) 0.84541(9) 0.38540(5)
C4B C 0.33172(12) 0.54109(10) 0.18728(5)
C5B C 0.21096(10) 0.29158(10) 0.41058(5)
C6B C 0.20590(14) 0.35922(11) 0.42556(6)
H3B H 0.2053 0.3644 0.4508
C7B C 0.36179(13) 0.50623(12) 0.21649(6)
H4B H 0.4069 0.4823 0.2141
C8B C 0.26107(14) 0.54068(11) 0.25328(6)
C9B C 0.20714(12) 0.34470(11) 0.35204(5)
H5B H 0.2078 0.3397 0.3268
C10B C 0.03011(12) 0.77904(10) 0.37161(6)
C11B C 0.21169(12) 0.28336(10) 0.37365(5)
H6B H 0.2152 0.2367 0.3633
C12B C 0.20176(17) 0.41960(12) 0.40407(6)
H7B H 0.1989 0.4662 0.4145
C13B C 0.00080(14) 0.71065(10) 0.37620(6)
H8B H -0.0441 0.7048 0.3881
C14B C 0.22870(15) 0.47908(12) 0.31048(6)
H9B H 0.2560 0.4387 0.3026
C15B C 0.26468(13) 0.57579(11) 0.19145(6)
H10B H 0.2430 0.5993 0.1716
C16B C 0.23056(14) 0.57590(12) 0.22379(6)
H11B H 0.1857 0.6001 0.2263
C17B C 0.19388(15) 0.47637(11) 0.34350(7)
C18B C 0.22394(16) 0.54027(12) 0.28897(6)
C19B C 0.10419(15) 0.66002(12) 0.34506(7)
C20B C 0.14617(16) 0.59562(12) 0.33276(7)
C21B C 0.09500(14) 0.78891(12) 0.35240(7)
H12B H 0.1130 0.8360 0.3478
C22B C 0.15232(16) 0.53609(12) 0.35456(7)
H13B H 0.1286 0.5352 0.3770
C23B C 0.32673(15) 0.50600(12) 0.24895(6)
H14B H 0.3479 0.4817 0.2687
C24B C 0.20177(14) 0.41206(11) 0.36696(6)
C25B C 0.18197(16) 0.59784(13) 0.30022(7)
H15B H 0.1777 0.6393 0.2855
C26B C 0.03736(16) 0.65146(12) 0.36342(7)
H16B H 0.0179 0.6045 0.3669
C27B C 0.13181(17) 0.72866(12) 0.34038(8)
H17B H 0.1769 0.7346 0.3287
O5B O 0.20456(6) 0.16547(6) 0.41747(3)
O6B O -0.06888(7) 0.83999(6) 0.39770(3)
O7B O 0.02930(7) 0.90328(6) 0.38313(4)
O8B O 0.20353(7) 0.23365(7) 0.46725(3)
O9B O 0.29302(7) 0.53044(7) 0.05971(4)
C28B C 0.25382(11) 0.54442(12) 0.03223(6)
H18B H 0.2150 0.5121 0.0278
O10B O 0.26060(7) 0.59542(7) 0.01061(4)
Al1A Al 0.16488(3) 0.16488(3) 0.5000
Al1B Al 0.33512(3) 0.66488(3) 0.0000
Al1C Al 0.83512(3) 0.83512(3) 0.5000
Al2D Al 0.13453(3) 0.09254(3) 0.42052(2)
Al2D_2 Al 1.13453(3) 0.09254(3) 0.42052(2)
Al2E Al -0.13453(3) 0.90746(3) 0.42052(2)
Al2E_2 Al 0.86547(3) 0.90746(3) 0.42052(2)
Al3D Al 0.0000 1.0000 0.38628(2)
Al3D_2 Al 1.0000 0.0000 0.38628(2)
O2G O 0.62651(6) 0.39358(6) -0.03508(3)
O5D O 0.29544(6) 0.66547(6) 0.08253(3)
O5E O 0.70456(6) 0.33453(6) 0.08253(3)
O6D O 0.56888(7) 0.33999(6) 0.10230(3)
O6E O 0.43112(7) 0.66001(6) 0.10230(3)
O7D O 0.47070(7) 0.40328(6) 0.11687(4)
O7E O 0.52930(7) 0.59672(6) 0.11687(4)
O8A O 0.73365(7) 0.29647(7) -0.03275(3)
O8E O 0.70353(7) 0.26635(7) 0.03275(3)
O10G O 0.59542(7) 0.26060(7) -0.01061(4)
O2F O 0.37349(6) 0.60642(6) -0.03508(3)
O8C O 0.26635(7) 0.70353(7) -0.03275(3)
O8D O 0.29647(7) 0.73365(7) 0.03275(3)
O10F O 0.40458(7) 0.73940(7) -0.01061(4)
Al2F Al 0.40746(3) 0.63453(3) -0.07948(2)
O1F O 0.48125(6) 0.56895(6) -0.07939(3)
O4F O 0.43480(7) 0.66749(7) -0.12552(3)
O9F O 0.46956(7) 0.70698(7) -0.05971(4)
O5C O 0.33453(6) 0.70456(6) -0.08253(3)
O6A O 0.33999(6) 0.56888(7) -0.10230(3)
Al3F Al 0.5000 0.5000 -0.11372(2)
O3F O 0.48049(7) 0.56749(8) -0.15096(3)
O1G O 0.51875(6) 0.43105(6) -0.07939(3)
O3G O 0.51951(7) 0.43251(8) -0.15096(3)
O7A O 0.40328(6) 0.47070(7) -0.11687(4)
O7C O 0.59672(6) 0.52930(7) -0.11687(4)
H1F H 0.5133 0.5706 -0.0596
H2F H 0.3761 0.5564 -0.0298
C1F C 0.45833(9) 0.63107(11) -0.15193(5)
C4F C 0.45891(10) 0.66828(12) -0.18728(5)
C2F C 0.77411(9) 0.79323(9) -0.43347(5)
C5F C 0.70842(10) 0.78904(10) -0.41058(5)
O5F O 0.83453(6) 0.79544(6) -0.41747(3)
O8F O 0.76635(7) 0.79647(7) -0.46725(3)
C3F C 0.15459(9) 1.00631(10) -0.38540(5)
C10F C 0.22096(10) 0.96989(12) -0.37161(6)
O6F O 0.16001(6) 1.06888(7) -0.39770(3)
O7F O 0.09672(6) 0.97070(7) -0.38313(4)
C7F C 0.49377(12) 0.63821(13) -0.21649(6)
C15F C 0.42421(11) 0.73532(13) -0.19145(6)
C6F C 0.64078(11) 0.79410(14) -0.42556(6)
C11F C 0.71664(10) 0.78831(12) -0.37365(5)
H3F H 0.6356 0.7947 -0.4508
C12F C 0.58040(12) 0.79824(17) -0.40407(6)
H4F H 0.5177 0.5931 -0.2141
C23F C 0.49400(12) 0.67327(15) -0.24895(6)
C8F C 0.45932(11) 0.73893(14) -0.25328(6)
C16F C 0.42410(12) 0.76944(14) -0.22379(6)
C18F C 0.45973(12) 0.77606(16) -0.28897(6)
C9F C 0.65530(11) 0.79286(12) -0.35204(5)
H5F H 0.6603 0.7922 -0.3268
C24F C 0.58794(11) 0.79823(14) -0.36696(6)
C13F C 0.28935(10) 0.99920(14) -0.37620(6)
C21F C 0.21109(12) 0.90500(14) -0.35240(7)
H6F H 0.7633 0.7848 -0.3633
H7F H 0.5338 0.8011 -0.4145
H8F H 0.2952 1.0441 -0.3881
C26F C 0.34854(12) 0.96264(16) -0.36342(7)
C14F C 0.52092(12) 0.77130(15) -0.31048(6)
H9F H 0.5613 0.7440 -0.3026
C17F C 0.52363(11) 0.80612(15) -0.34350(7)
H10F H 0.4007 0.7570 -0.1716
H11F H 0.3999 0.8143 -0.2263
C22F C 0.46391(12) 0.84768(16) -0.35456(7)
C25F C 0.40216(13) 0.81803(16) -0.30022(7)
C19F C 0.33998(12) 0.89581(15) -0.34506(7)
C20F C 0.40438(12) 0.85383(16) -0.33276(7)
C27F C 0.27134(12) 0.86819(17) -0.34038(8)
H12F H 0.1640 0.8870 -0.3478
H13F H 0.4648 0.8714 -0.3770
H14F H 0.5183 0.6521 -0.2687
H15F H 0.3607 0.8223 -0.2855
H16F H 0.3955 0.9821 -0.3669
H17F H 0.2654 0.8231 -0.3287
Al2C Al 0.90746(3) 0.86547(3) -0.42052(2)
Al2A Al 0.09254(3) 1.13453(3) -0.42052(2)
Al3A Al 0.0000 1.0000 -0.38628(2)
Al1C_2 Al 0.83512(3) 0.83512(3) -0.5000
C28F C 0.45558(12) 0.74618(11) -0.03223(6)
H18F H 0.4879 0.7850 -0.0278
Al2G Al 0.59254(3) 0.36547(3) -0.07948(2)
O4G O 0.56520(7) 0.33251(7) -0.12552(3)
O9G O 0.53044(7) 0.29302(7) -0.05971(4)
O5A O 0.66547(6) 0.29544(6) -0.08253(3)
O6C O 0.66001(6) 0.43112(7) -0.10230(3)
H1G H 0.4867 0.4294 -0.0596
H2G H 0.6239 0.4436 -0.0298
C1G C 0.54167(9) 0.36893(11) -0.15193(5)
C4G C 0.54109(10) 0.33172(12) -0.18728(5)
C2G C 0.22589(9) 0.20677(9) -0.43347(5)
C5G C 0.29158(10) 0.21096(10) -0.41058(5)
O5G O 0.16547(6) 0.20456(6) -0.41747(3)
O8G O 0.23365(7) 0.20353(7) -0.46725(3)
C3G C 0.84541(9) -0.00631(10) -0.38540(5)
C10G C 0.77904(10) 0.03011(12) -0.37161(6)
O6G O 0.83999(6) -0.06888(7) -0.39770(3)
O7G O 0.90328(6) 0.02930(7) -0.38313(4)
C7G C 0.50623(12) 0.36179(13) -0.21649(6)
C15G C 0.57579(11) 0.26468(13) -0.19145(6)
C6G C 0.35922(11) 0.20590(14) -0.42556(6)
C11G C 0.28336(10) 0.21169(12) -0.37365(5)
H3G H 0.3644 0.2053 -0.4508
C12G C 0.41960(12) 0.20176(17) -0.40407(6)
H4G H 0.4823 0.4069 -0.2141
C23G C 0.50600(12) 0.32673(15) -0.24895(6)
C8G C 0.54068(11) 0.26107(14) -0.25328(6)
C16G C 0.57590(12) 0.23056(14) -0.22379(6)
C18G C 0.54027(12) 0.22394(16) -0.28897(6)
C9G C 0.34470(11) 0.20714(12) -0.35204(5)
H5G H 0.3397 0.2078 -0.3268
C24G C 0.41206(11) 0.20177(14) -0.36696(6)
C13G C 0.71065(10) 0.00080(14) -0.37620(6)
C21G C 0.78891(12) 0.09500(14) -0.35240(7)
H6G H 0.2367 0.2152 -0.3633
H7G H 0.4662 0.1989 -0.4145
H8G H 0.7048 -0.0441 -0.3881
C26G C 0.65146(12) 0.03736(16) -0.36342(7)
C14G C 0.47908(12) 0.22870(15) -0.31048(6)
H9G H 0.4387 0.2560 -0.3026
C17G C 0.47637(11) 0.19388(15) -0.34350(7)
H10G H 0.5993 0.2430 -0.1716
H11G H 0.6001 0.1857 -0.2263
C22G C 0.53609(12) 0.15232(16) -0.35456(7)
C25G C 0.59784(13) 0.18197(16) -0.30022(7)
C19G C 0.66002(12) 0.10419(15) -0.34506(7)
C20G C 0.59562(12) 0.14617(16) -0.33276(7)
C27G C 0.72866(12) 0.13181(17) -0.34038(8)
H12G H 0.8360 0.1130 -0.3478
H13G H 0.5352 0.1286 -0.3770
H14G H 0.4817 0.3479 -0.2687
H15G H 0.6393 0.1777 -0.2855
H16G H 0.6045 0.0179 -0.3669
H17G H 0.7346 0.1769 -0.3287
Al2A_2 Al 0.09254(3) 0.13453(3) -0.42052(2)
Al2C_2 Al 0.90746(3) -0.13453(3) -0.42052(2)
Al3A_2 Al 1.0000 -0.0000 -0.38628(2)
Al1A_2 Al 0.16488(3) 0.16488(3) -0.5000
C28G C 0.54442(12) 0.25382(11) -0.03223(6)
H18G H 0.5121 0.2150 -0.0278
loop_
_geom_bond_atom_site_label_1
_geom_bond_atom_site_label_2
_geom_bond_site_symmetry_1
_geom_bond_site_symmetry_2
Al1 O2 1_555 1_555
Al2 O1 1_555 1_555
Al3 O1 1_555 1_555
O1 H1 1_555 1_555
O2 Al2 1_555 1_555
H2 O2 1_555 1_555
O3 Al3 1_555 1_555
O4 Al2 1_555 1_555
C1 O3 1_555 1_555
C2 C5 1_555 1_555
C3 C10 1_555 1_555
C4 C1 1_555 1_555
C5 C6 1_555 1_555
C6 H3 1_555 1_555
C7 C4 1_555 1_555
H4 C7 1_555 1_555
C8 C16 1_555 1_555
C9 H5 1_555 1_555
C10 C13 1_555 1_555
C11 C5 1_555 1_555
H6 C11 1_555 1_555
C12 C6 1_555 1_555
H7 C12 1_555 1_555
C13 H8 1_555 1_555
C14 H9 1_555 1_555
C15 C4 1_555 1_555
H10 C15 1_555 1_555
C16 C15 1_555 1_555
H11 C16 1_555 1_555
C17 C14 1_555 1_555
C18 C8 1_555 1_555
C19 C20 1_555 1_555
C20 C22 1_555 1_555
C21 C10 1_555 1_555
H12 C21 1_555 1_555
C22 C17 1_555 1_555
H13 C22 1_555 1_555
C23 C7 1_555 1_555
H14 C23 1_555 1_555
C24 C9 1_555 1_555
C25 C18 1_555 1_555
H15 C25 1_555 1_555
C26 C13 1_555 1_555
H16 C26 1_555 1_555
C27 C19 1_555 1_555
H17 C27 1_555 1_555
O5 C2 1_555 1_555
O6 C3 1_555 1_555
O7 C3 1_555 1_555
O8 C2 1_555 1_555
O9 Al2 1_555 1_555
C28 O9 1_555 1_555
H18 C28 1_555 1_555
O10 Al1 1_555 1_555
Al2B O1B 1_555 1_555
O1B Al3 1_555 1_555
H1B O1B 1_555 1_555
O2B Al2B 1_555 1_555
H2B O2B 1_555 1_555
O3B Al3 1_555 1_555
O4B Al2B 1_555 1_555
C1B O3B 1_555 1_555
C2B C5B 1_555 1_555
C3B C10B 1_555 1_555
C4B C1B 1_555 1_555
C5B C6B 1_555 1_555
C6B H3B 1_555 1_555
C7B C4B 1_555 1_555
H4B C7B 1_555 1_555
C8B C16B 1_555 1_555
C9B H5B 1_555 1_555
C10B C13B 1_555 1_555
C11B C5B 1_555 1_555
H6B C11B 1_555 1_555
C12B C6B 1_555 1_555
H7B C12B 1_555 1_555
C13B H8B 1_555 1_555
C14B H9B 1_555 1_555
C15B C4B 1_555 1_555
H10B C15B 1_555 1_555
C16B C15B 1_555 1_555
H11B C16B 1_555 1_555
C17B C14B 1_555 1_555
C18B C8B 1_555 1_555
C19B C20B 1_555 1_555
C20B C22B 1_555 1_555
C21B C10B 1_555 1_555
H12B C21B 1_555 1_555
C22B C17B 1_555 1_555
H13B C22B 1_555 1_555
C23B C7B 1_555 1_555
H14B C23B 1_555 1_555
C24B C9B 1_555 1_555
C25B C18B 1_555 1_555
H15B C25B 1_555 1_555
C26B C13B 1_555 1_555
H16B C26B 1_555 1_555
C27B C19B 1_555 1_555
H17B C27B 1_555 1_555
O5B C2B 1_555 1_555
O6B C3B 1_555 1_555
O7B C3B 1_555 1_555
O8B C2B 1_555 1_555
O9B Al2B 1_555 1_555
C28B O9B 1_555 1_555
H18B C28B 1_555 1_555
O10B C28B 1_555 1_555
Al1A O8B 1_555 1_555
Al1B O2B 1_555 1_555
Al1C O8 1_555 1_555
Al2D O5B 1_555 1_555
Al2D_2 O6 1_555 1_555
Al2E O6B 1_555 1_555
Al2E_2 O5 1_555 1_555
Al3D O7B 1_555 1_555
Al3D_2 O7 1_555 1_555
O2G Al1 1_555 1_555
O5D Al2B 1_555 1_555
O5E Al2 1_555 1_555
O6D Al2 1_555 1_555
O6E Al2B 1_555 1_555
O7D Al3 1_555 1_555
O7E Al3 1_555 1_555
O8A Al1 1_555 1_555
O8E Al1 1_555 1_555
O10G Al1 1_555 1_555
O2F Al1B 1_555 1_555
O8C Al1B 1_555 1_555
O8D Al1B 1_555 1_555
O10F Al1B 1_555 1_555
Al2F O2F 1_555 1_555
O1F Al2F 1_555 1_555
O4F Al2F 1_555 1_555
O9F Al2F 1_555 1_555
O5C Al2F 1_555 1_555
O6A Al2F 1_555 1_555
Al3F O1F 1_555 1_555
O3F Al3F 1_555 1_555
O1G Al3F 1_555 1_555
O3G Al3F 1_555 1_555
O7A Al3F 1_555 1_555
O7C Al3F 1_555 1_555
H1F O1F 1_555 1_555
H2F O2F 1_555 1_555
C1F O4F 1_555 1_555
C4F C1F 1_555 1_555
C2F C5F 1_555 1_555
C5F C6F 1_555 1_555
O5F C2F 1_555 1_555
O8F C2F 1_555 1_555
C3F C10F 1_555 1_555
C10F C13F 1_555 1_555
O6F C3F 1_555 1_555
O7F C3F 1_555 1_555
C7F C4F 1_555 1_555
C15F C4F 1_555 1_555
C6F H3F 1_555 1_555
C11F C5F 1_555 1_555
C12F C6F 1_555 1_555
H4F C7F 1_555 1_555
C23F C7F 1_555 1_555
C8F C23F 1_555 1_555
C16F C15F 1_555 1_555
C18F C8F 1_555 1_555
C9F C11F 1_555 1_555
H5F C9F 1_555 1_555
C24F C12F 1_555 1_555
C13F H8F 1_555 1_555
C21F C10F 1_555 1_555
H6F C11F 1_555 1_555
H7F C12F 1_555 1_555
C26F C13F 1_555 1_555
C14F C18F 1_555 1_555
H9F C14F 1_555 1_555
C17F C24F 1_555 1_555
H10F C15F 1_555 1_555
H11F C16F 1_555 1_555
C22F C17F 1_555 1_555
C25F C18F 1_555 1_555
C19F C26F 1_555 1_555
C20F C22F 1_555 1_555
C27F C21F 1_555 1_555
H12F C21F 1_555 1_555
H13F C22F 1_555 1_555
H14F C23F 1_555 1_555
H15F C25F 1_555 1_555
H16F C26F 1_555 1_555
H17F C27F 1_555 1_555
Al2C O5F 1_555 1_555
Al2A O6F 1_555 1_555
Al3A O7F 1_555 1_555
Al1C_2 O8F 1_555 1_555
C28F O10F 1_555 1_555
H18F C28F 1_555 1_555
Al2G O2G 1_555 1_555
O4G Al2G 1_555 1_555
O9G Al2G 1_555 1_555
O5A Al2G 1_555 1_555
O6C Al2G 1_555 1_555
H1G O1G 1_555 1_555
H2G O2G 1_555 1_555
C1G O3G 1_555 1_555
C4G C1G 1_555 1_555
C2G C5G 1_555 1_555
C5G C6G 1_555 1_555
O5G C2G 1_555 1_555
O8G C2G 1_555 1_555
C3G C10G 1_555 1_555
C10G C13G 1_555 1_555
O6G C3G 1_555 1_555
O7G C3G 1_555 1_555
C7G C4G 1_555 1_555
C15G C4G 1_555 1_555
C6G H3G 1_555 1_555
C11G C5G 1_555 1_555
C12G C6G 1_555 1_555
H4G C7G 1_555 1_555
C23G C7G 1_555 1_555
C8G C23G 1_555 1_555
C16G C15G 1_555 1_555
C18G C8G 1_555 1_555
C9G C11G 1_555 1_555
H5G C9G 1_555 1_555
C24G C12G 1_555 1_555
C13G H8G 1_555 1_555
C21G C10G 1_555 1_555
H6G C11G 1_555 1_555
H7G C12G 1_555 1_555
C26G C13G 1_555 1_555
C14G C18G 1_555 1_555
H9G C14G 1_555 1_555
C17G C24G 1_555 1_555
H10G C15G 1_555 1_555
H11G C16G 1_555 1_555
C22G C17G 1_555 1_555
C25G C18G 1_555 1_555
C19G C26G 1_555 1_555
C20G C22G 1_555 1_555
C27G C21G 1_555 1_555
H12G C21G 1_555 1_555
H13G C22G 1_555 1_555
H14G C23G 1_555 1_555
H15G C25G 1_555 1_555
H16G C26G 1_555 1_555
H17G C27G 1_555 1_555
Al2A_2 O5G 1_555 1_555
Al2C_2 O6G 1_555 1_555
Al3A_2 O7G 1_555 1_555
Al1A_2 O8G 1_555 1_555
C28G O10G 1_555 1_555
H18G C28G 1_555 1_555
O4 C1 1_555 1_555
C8 C23 1_555 1_555
C9 C11 1_555 1_555
C12 C24 1_555 1_555
C14 C18 1_555 1_555
C17 C24 1_555 1_555
C19 C26 1_555 1_555
C20 C25 1_555 1_555
C21 C27 1_555 1_555
C28 O10 1_555 1_555
O4B C1B 1_555 1_555
C8B C23B 1_555 1_555
C9B C11B 1_555 1_555
C12B C24B 1_555 1_555
C14B C18B 1_555 1_555
C17B C24B 1_555 1_555
C19B C26B 1_555 1_555
C20B C25B 1_555 1_555
C21B C27B 1_555 1_555
O10B Al1B 1_555 1_555
O9F C28F 1_555 1_555
O3F C1F 1_555 1_555
O1G Al2G 1_555 1_555
C8F C16F 1_555 1_555
C9F C24F 1_555 1_555
C14F C17F 1_555 1_555
C25F C20F 1_555 1_555
C19F C20F 1_555 1_555
C19F C27F 1_555 1_555
O4G C1G 1_555 1_555
O9G C28G 1_555 1_555
C8G C16G 1_555 1_555
C9G C24G 1_555 1_555
C14G C17G 1_555 1_555
C25G C20G 1_555 1_555
C19G C20G 1_555 1_555
C19G C27G 1_555 1_555

#END
