
#######################################################################
#
#                 Cambridge Crystallographic Data Centre
#                                CCDC 
#
#######################################################################
#
# If this CIF has been generated from an entry in the Cambridge 
# Structural Database, then it will include bibliographic, chemical, 
# crystal, experimental, refinement or atomic coordinate data resulting 
# from the CCDC's data processing and validation procedures.
#
#######################################################################

data_OTEDAU
_chemical_formula_moiety         'C132 H104 Al24 O56'
_symmetry_cell_setting           tetragonal
_symmetry_space_group_name_H-M   'P 42 21 2'
_symmetry_Int_Tables_number      94
_space_group_name_Hall           'P 4n 2n'
loop_
_symmetry_equiv_pos_site_id
_symmetry_equiv_pos_as_xyz
1 x,y,z
2 1/2-y,1/2+x,1/2+z
3 -x,-y,z
4 1/2+y,1/2-x,1/2+z
5 1/2+x,1/2-y,1/2-z
6 1/2-x,1/2+y,1/2-z
7 y,x,-z
8 -y,-x,-z
_cell_length_a                   18.6010(6)
_cell_length_b                   18.6010(6)
_cell_length_c                   37.3859(13)
_cell_angle_alpha                90
_cell_angle_beta                 90
_cell_angle_gamma                90
_cell_volume                     12935.4
loop_
_atom_site_label
_atom_site_type_symbol
_atom_site_fract_x
_atom_site_fract_y
_atom_site_fract_z
Al1 Al 0.63463(3) 0.59068(3) 0.42037(2)
Al2 Al 0.66260(3) 0.66260(3) 0.5000
O1 O 0.56904(7) 0.51790(7) 0.41968(3)
H1 H 0.5704 0.4854 0.4393
O2 O 0.60598(7) 0.62394(7) 0.46457(3)
H2 H 0.5560 0.6207 0.4696
O3 O 0.70401(8) 0.66439(8) 0.41758(3)
O4 O 0.70091(8) 0.73104(8) 0.46729(3)
O5 O 0.70598(8) 0.52931(8) 0.44070(4)
O6 O 0.73675(8) 0.59335(9) 0.48962(4)
C1 C 0.70499(11) 0.72383(12) 0.43341(5)
C2 C 0.70788(13) 0.79013(12) 0.41127(5)
C3 C 0.70314(17) 0.85663(13) 0.42630(6)
H3 H 0.7029 0.8614 0.4516
C4 C 0.69750(15) 0.91134(13) 0.36733(6)
C5 C 0.70288(15) 0.84279(13) 0.35252(6)
H4 H 0.7033 0.8373 0.3273
C6 C 0.67849(18) 1.09610(14) 0.30007(7)
H5 H 0.6741 1.1370 0.2850
C7 C 0.69867(19) 0.91820(14) 0.40468(6)
H6 H 0.6964 0.9645 0.4153
C8 C 0.70762(14) 0.78304(12) 0.37404(5)
H7 H 0.7107 0.7366 0.3635
C9 C 0.69048(17) 0.97557(13) 0.34422(6)
C10 C 0.64310(17) 1.09498(14) 0.33260(7)
C11 C 0.64831(17) 1.03437(14) 0.35419(7)
H8 H 0.6227 1.0329 0.3762
C12 C 0.72108(17) 1.03736(14) 0.28887(6)
C13 C 0.72626(16) 0.97816(13) 0.31117(6)
H9 H 0.7547 0.9383 0.3039
C14 C 0.75772(16) 1.03847(13) 0.25321(6)
C15 C 0.82614(17) 1.00712(15) 0.24970(6)
H10 H 0.8482 0.9854 0.2699
C16 C 0.72652(16) 1.06967(14) 0.22358(6)
H11 H 0.6804 1.0913 0.2256
C17 C 0.60156(17) 1.15819(13) 0.34496(7)
C18 C 0.62973(16) 1.22736(14) 0.33927(7)
H12 H 0.6739 1.2330 0.3268
C19 C 0.53647(16) 1.15115(13) 0.36304(7)
H13 H 0.5168 1.1046 0.3669
C20 C 0.76152(14) 1.06989(13) 0.19095(6)
H14 H 0.7391 1.0912 0.1707
C21 C 0.49970(15) 1.21151(12) 0.37563(6)
H15 H 0.4549 1.2060 0.3875
C22 C 0.59313(16) 1.28770(14) 0.35183(7)
H16 H 0.6120 1.3343 0.3475
C23 C 0.52894(14) 1.28008(12) 0.37076(5)
C24 C 0.86182(15) 1.00742(15) 0.21715(6)
H17 H 0.9081 0.9862 0.2151
C25 C 0.82923(14) 1.03922(12) 0.18747(5)
Al3 Al 0.5000 0.5000 0.38515(2)
C26 C 0.49293(12) 1.34591(11) 0.38427(5)
C27 C 0.86777(12) 1.04069(11) 0.15242(5)
O7 O 0.93223(8) 1.01866(8) 0.15204(3)
O8 O 0.83250(8) 1.06359(8) 0.12610(3)
O9 O 0.43041(8) 1.34102(7) 0.39706(3)
O10 O 0.52892(8) 1.40318(8) 0.38189(4)
C28 C 0.8061(2) 0.4892(3) 0.47593(12)
H18 H 0.7833 0.4431 0.4826
H19 H 0.8333 0.4806 0.4536
C29 C 0.74603(12) 0.54279(14) 0.46747(6)
C30 C 0.8578(4) 0.5071(4) 0.50363(19)
H20 H 0.8327 0.5079 0.5270
H21 H 0.8764 0.5561 0.4991
C31 C 0.9219(4) 0.4548(4) 0.5062(2)
H22 H 0.9039 0.4054 0.5021
H23 H 0.9558 0.4661 0.4865
C32 C 0.9622(5) 0.4555(5) 0.5402(2)
H24 H 0.9400 0.4215 0.5572
C33 C 1.0367(5) 0.4351(5) 0.5338(2)
H25 H 1.0501 0.4560 0.5104
H26 H 1.0369 0.3823 0.5307
Al1B Al 0.36537(3) 0.40932(3) 0.42037(2)
O1B O 0.43096(7) 0.48210(7) 0.41968(3)
H1B H 0.4296 0.5146 0.4393
O2B O 0.39402(7) 0.37606(7) 0.46457(3)
H2B H 0.4440 0.3793 0.4696
O3B O 0.29599(8) 0.33561(8) 0.41758(3)
O4B O 0.29909(8) 0.26896(8) 0.46729(3)
O5B O 0.29402(8) 0.47069(8) 0.44070(4)
O6B O 0.26325(8) 0.40665(9) 0.48962(4)
C1B C 0.29501(11) 0.27617(12) 0.43341(5)
C2B C 0.29212(13) 0.20987(12) 0.41127(5)
C3B C 0.29686(17) 0.14337(13) 0.42630(6)
H3B H 0.2971 0.1386 0.4516
C4B C 0.30250(15) 0.08866(13) 0.36733(6)
C5B C 0.29712(15) 0.15721(13) 0.35252(6)
H4B H 0.2967 0.1627 0.3273
C6B C 0.32151(18) -0.09610(14) 0.30007(7)
H5B H 0.3259 -0.1370 0.2850
C7B C 0.30133(19) 0.08180(14) 0.40468(6)
H6B H 0.3036 0.0355 0.4153
C8B C 0.29238(14) 0.21696(12) 0.37404(5)
H7B H 0.2893 0.2634 0.3635
C9B C 0.30952(17) 0.02443(13) 0.34422(6)
C10B C 0.35690(17) -0.09498(14) 0.33260(7)
C11B C 0.35169(17) -0.03437(14) 0.35419(7)
H8B H 0.3773 -0.0329 0.3762
C12B C 0.27892(17) -0.03736(14) 0.28887(6)
C13B C 0.27374(16) 0.02184(13) 0.31117(6)
H9B H 0.2453 0.0617 0.3039
C14B C 0.24228(16) -0.03847(13) 0.25321(6)
C15B C 0.17386(17) -0.00712(15) 0.24970(6)
H10B H 0.1518 0.0146 0.2699
C16B C 0.27348(16) -0.06967(14) 0.22358(6)
H11B H 0.3196 -0.0913 0.2256
C17B C 0.39844(17) -0.15819(13) 0.34496(7)
C18B C 0.37027(16) -0.22736(14) 0.33927(7)
H12B H 0.3261 -0.2330 0.3268
C19B C 0.46353(16) -0.15115(13) 0.36304(7)
H13B H 0.4832 -0.1046 0.3669
C20B C 0.23848(14) -0.06989(13) 0.19095(6)
H14B H 0.2609 -0.0912 0.1707
C21B C 0.50030(15) -0.21151(12) 0.37563(6)
H15B H 0.5451 -0.2060 0.3875
C22B C 0.40687(16) -0.28770(14) 0.35183(7)
H16B H 0.3880 -0.3343 0.3475
C23B C 0.47106(14) -0.28008(12) 0.37076(5)
C24B C 0.13818(15) -0.00742(15) 0.21715(6)
H17B H 0.0919 0.0138 0.2151
C25B C 0.17077(14) -0.03922(12) 0.18747(5)
C26B C 0.50707(12) -0.34591(11) 0.38427(5)
C27B C 0.13223(12) -0.04069(11) 0.15242(5)
O7B O 0.06777(8) -0.01866(8) 0.15204(3)
O8B O 0.16750(8) -0.06359(8) 0.12610(3)
O9B O 0.56959(8) -0.34102(7) 0.39706(3)
O10B O 0.47108(8) -0.40318(8) 0.38189(4)
C28B C 0.1939(2) 0.5108(3) 0.47593(12)
H18B H 0.2167 0.5569 0.4826
H19B H 0.1667 0.5194 0.4536
C29B C 0.25397(12) 0.45721(14) 0.46747(6)
C30B C 0.1422(4) 0.4929(4) 0.50363(19)
H20B H 0.1673 0.4921 0.5270
H21B H 0.1236 0.4439 0.4991
C31B C 0.0781(4) 0.5452(4) 0.5062(2)
H22B H 0.0961 0.5946 0.5021
H23B H 0.0442 0.5339 0.4865
C32B C 0.0378(5) 0.5445(5) 0.5402(2)
H24B H 0.0600 0.5785 0.5572
C33B C -0.0367(5) 0.5649(5) 0.5338(2)
H25B H -0.0501 0.5440 0.5104
H26B H -0.0369 0.6177 0.5307
Al1_2 Al 0.63463(3) -0.40932(3) 0.42037(2)
Al1B_2 Al 0.36537(3) 1.40932(3) 0.42037(2)
Al1D Al 0.13463(3) -0.09068(3) 0.07963(2)
Al1E Al 0.86537(3) 1.09068(3) 0.07963(2)
Al2B Al 0.33740(3) 0.33740(3) 0.5000
O2F O 0.62394(7) 0.60598(7) 0.53543(3)
O4F O 0.73104(8) 0.70091(8) 0.53271(3)
O6F O 0.59335(9) 0.73675(8) 0.51038(4)
Al3_2 Al 0.5000 -0.5000 0.38515(2)
Al3_3 Al 0.5000 1.5000 0.38515(2)
Al3D Al 0.0000 0.0000 0.11485(2)
Al3D_2 Al 1.0000 1.0000 0.11485(2)
O7D O 0.43223(8) 0.48134(8) 0.34796(3)
O7E O 0.56777(8) 0.51866(8) 0.34796(3)
O8D O 0.33250(8) 0.43641(8) 0.37390(3)
O8E O 0.66750(8) 0.56359(8) 0.37390(3)
O9_2 O 0.43041(8) 0.34102(7) 0.39706(3)
O9B_2 O 0.56959(8) 0.65898(7) 0.39706(3)
O10_2 O 0.52892(8) 0.40318(8) 0.38189(4)
O10B_2 O 0.47108(8) 0.59682(8) 0.38189(4)
O2G O 0.37606(7) 0.39402(7) 0.53543(3)
O4G O 0.26896(8) 0.29909(8) 0.53271(3)
O6G O 0.40665(9) 0.26325(8) 0.51038(4)
Al1G Al 0.40932(3) 0.36537(3) 0.57963(2)
O1G O 0.48210(7) 0.43096(7) 0.58032(3)
O3G O 0.33561(8) 0.29599(8) 0.58242(3)
O5G O 0.47069(8) 0.29402(8) 0.55930(4)
O8A O 0.43641(8) 0.33250(8) 0.62610(3)
O9F O 0.34102(7) 0.43041(8) 0.60294(3)
H1G H 0.5146 0.4296 0.5607
Al3F Al 0.5000 0.5000 0.61485(2)
H2G H 0.3793 0.4440 0.5304
C1G C 0.27617(12) 0.29501(11) 0.56659(5)
C29G C 0.45721(14) 0.25397(12) 0.53253(6)
C2G C 0.20987(12) 0.29212(13) 0.58873(5)
C3G C 0.14337(13) 0.29686(17) 0.57370(6)
C8G C 0.21696(12) 0.29238(14) 0.62596(5)
H3G H 0.1386 0.2971 0.5484
C7G C 0.08180(14) 0.30133(19) 0.59532(6)
C4G C 0.08866(13) 0.30250(15) 0.63267(6)
C5G C 0.15721(13) 0.29712(15) 0.64748(6)
C9G C 0.02443(13) 0.30952(17) 0.65578(6)
H4G H 0.1627 0.2967 0.6727
C6G C -0.09610(14) 0.32151(18) 0.69993(7)
H5G H -0.1370 0.3259 0.7150
C10G C -0.09498(14) 0.35690(17) 0.66740(7)
C12G C -0.03736(14) 0.27892(17) 0.71113(6)
H6G H 0.0355 0.3036 0.5847
H7G H 0.2634 0.2893 0.6365
C11G C -0.03437(14) 0.35169(17) 0.64581(7)
C13G C 0.02184(13) 0.27374(16) 0.68883(6)
C17G C -0.15819(13) 0.39844(17) 0.65504(7)
H8G H -0.0329 0.3773 0.6238
C14G C -0.03847(13) 0.24228(16) 0.74679(6)
H9G H 0.0617 0.2453 0.6961
C15G C -0.00712(15) 0.17386(17) 0.75030(6)
C16G C -0.06967(14) 0.27348(16) 0.77642(6)
H10G H 0.0146 0.1518 0.7301
C24G C -0.00742(15) 0.13818(15) 0.78285(6)
H11G H -0.0913 0.3196 0.7744
C20G C -0.06989(13) 0.23848(14) 0.80905(6)
C18G C -0.22736(14) 0.37027(16) 0.66073(7)
C19G C -0.15115(13) 0.46353(16) 0.63696(7)
H12G H -0.2330 0.3261 0.6732
C22G C -0.28770(14) 0.40687(16) 0.64817(7)
H13G H -0.1046 0.4832 0.6331
C21G C -0.21151(12) 0.50030(15) 0.62437(6)
H14G H -0.0912 0.2609 0.8293
C25G C -0.03922(12) 0.17077(14) 0.81253(5)
H15G H -0.2060 0.5451 0.6125
C23G C -0.28008(12) 0.47106(14) 0.62924(5)
H16G H -0.3343 0.3880 0.6525
C26G C -0.34591(11) 0.50707(12) 0.61573(5)
H17G H 0.0138 0.0919 0.7849
C27G C -0.04069(11) 0.13223(12) 0.84758(5)
O1F O 0.51790(7) 0.56904(7) 0.58032(3)
O7C O 0.51866(8) 0.56777(8) 0.65204(3)
O7A O 0.48134(8) 0.43223(8) 0.65204(3)
O10G O 0.59682(8) 0.47108(8) 0.61811(4)
O10F O 0.40318(8) 0.52892(8) 0.61811(4)
O9G O -0.34102(7) 0.56959(8) 0.60294(3)
O10G_2 O -0.40318(8) 0.47108(8) 0.61811(4)
O7G O -0.01866(8) 0.06777(8) 0.84796(3)
O8G O -0.06359(8) 0.16750(8) 0.87390(3)
Al3A Al -0.0000 0.0000 0.88515(2)
Al1A Al -0.09068(3) 0.13463(3) 0.92037(2)
Al1F Al -0.40932(3) 0.63463(3) 0.57963(2)
Al3F_2 Al -0.5000 0.5000 0.61485(2)
C28G C 0.5108(3) 0.1939(2) 0.52407(12)
H18G H 0.5569 0.2167 0.5174
H19G H 0.5194 0.1667 0.5464
C30G C 0.4929(4) 0.1422(4) 0.49637(19)
H20G H 0.4921 0.1673 0.4730
H21G H 0.4439 0.1236 0.5009
C31G C 0.5452(4) 0.0781(4) 0.4938(2)
H22G H 0.5946 0.0961 0.4979
H23G H 0.5339 0.0442 0.5135
C32G C 0.5445(5) 0.0378(5) 0.4598(2)
H24G H 0.5785 0.0600 0.4428
C33G C 0.5649(5) -0.0367(5) 0.4662(2)
H25G H 0.5440 -0.0501 0.4896
H26G H 0.6177 -0.0369 0.4693
Al1F_2 Al 0.59068(3) 0.63463(3) 0.57963(2)
O3F O 0.66439(8) 0.70401(8) 0.58242(3)
O5F O 0.52931(8) 0.70598(8) 0.55930(4)
O8C O 0.56359(8) 0.66750(8) 0.62610(3)
O9G_2 O 0.65898(7) 0.56959(8) 0.60294(3)
H1F H 0.4854 0.5704 0.5607
H2F H 0.6207 0.5560 0.5304
C1F C 0.72383(12) 0.70499(11) 0.56659(5)
C29F C 0.54279(14) 0.74603(12) 0.53253(6)
C2F C 0.79013(12) 0.70788(13) 0.58873(5)
C3F C 0.85663(13) 0.70314(17) 0.57370(6)
C8F C 0.78304(12) 0.70762(14) 0.62596(5)
H3F H 0.8614 0.7029 0.5484
C7F C 0.91820(14) 0.69867(19) 0.59532(6)
C4F C 0.91134(13) 0.69750(15) 0.63267(6)
C5F C 0.84279(13) 0.70288(15) 0.64748(6)
C9F C 0.97557(13) 0.69048(17) 0.65578(6)
H4F H 0.8373 0.7033 0.6727
C6F C 1.09610(14) 0.67849(18) 0.69993(7)
H5F H 1.1370 0.6741 0.7150
C10F C 1.09498(14) 0.64310(17) 0.66740(7)
C12F C 1.03736(14) 0.72108(17) 0.71113(6)
H6F H 0.9645 0.6964 0.5847
H7F H 0.7366 0.7107 0.6365
C11F C 1.03437(14) 0.64831(17) 0.64581(7)
C13F C 0.97816(13) 0.72626(16) 0.68883(6)
C17F C 1.15819(13) 0.60156(17) 0.65504(7)
H8F H 1.0329 0.6227 0.6238
C14F C 1.03847(13) 0.75772(16) 0.74679(6)
H9F H 0.9383 0.7547 0.6961
C15F C 1.00712(15) 0.82614(17) 0.75030(6)
C16F C 1.06967(14) 0.72652(16) 0.77642(6)
H10F H 0.9854 0.8482 0.7301
C24F C 1.00742(15) 0.86182(15) 0.78285(6)
H11F H 1.0913 0.6804 0.7744
C20F C 1.06989(13) 0.76152(14) 0.80905(6)
C18F C 1.22736(14) 0.62973(16) 0.66073(7)
C19F C 1.15115(13) 0.53647(16) 0.63696(7)
H12F H 1.2330 0.6739 0.6732
C22F C 1.28770(14) 0.59313(16) 0.64817(7)
H13F H 1.1046 0.5168 0.6331
C21F C 1.21151(12) 0.49970(15) 0.62437(6)
H14F H 1.0912 0.7391 0.8293
C25F C 1.03922(12) 0.82923(14) 0.81253(5)
H15F H 1.2060 0.4549 0.6125
C23F C 1.28008(12) 0.52894(14) 0.62924(5)
H16F H 1.3343 0.6120 0.6525
C26F C 1.34591(11) 0.49293(12) 0.61573(5)
H17F H 0.9862 0.9081 0.7849
C27F C 1.04069(11) 0.86777(12) 0.84758(5)
O9F_2 O 1.34102(7) 0.43041(8) 0.60294(3)
O10F_2 O 1.40318(8) 0.52892(8) 0.61811(4)
O7F O 1.01866(8) 0.93223(8) 0.84796(3)
O8F O 1.06359(8) 0.83250(8) 0.87390(3)
Al3A_2 Al 1.0000 1.0000 0.88515(2)
Al1C Al 1.09068(3) 0.86537(3) 0.92037(2)
Al1G_2 Al 1.40932(3) 0.36537(3) 0.57963(2)
Al3F_3 Al 1.5000 0.5000 0.61485(2)
C28F C 0.4892(3) 0.8061(2) 0.52407(12)
H18F H 0.4431 0.7833 0.5174
H19F H 0.4806 0.8333 0.5464
C30F C 0.5071(4) 0.8578(4) 0.49637(19)
H20F H 0.5079 0.8327 0.4730
H21F H 0.5561 0.8764 0.5009
C31F C 0.4548(4) 0.9219(4) 0.4938(2)
H22F H 0.4054 0.9039 0.4979
H23F H 0.4661 0.9558 0.5135
C32F C 0.4555(5) 0.9622(5) 0.4598(2)
H24F H 0.4215 0.9400 0.4428
C33F C 0.4351(5) 1.0367(5) 0.4662(2)
H25F H 0.4560 1.0501 0.4896
H26F H 0.3823 1.0369 0.4693
loop_
_geom_bond_atom_site_label_1
_geom_bond_atom_site_label_2
_geom_bond_site_symmetry_1
_geom_bond_site_symmetry_2
Al1 O1 1_555 1_555
Al2 O2 1_555 1_555
O1 H1 1_555 1_555
O2 Al1 1_555 1_555
H2 O2 1_555 1_555
O3 Al1 1_555 1_555
O4 Al2 1_555 1_555
O5 Al1 1_555 1_555
O6 Al2 1_555 1_555
C1 O3 1_555 1_555
C2 C1 1_555 1_555
C3 C2 1_555 1_555
H3 C3 1_555 1_555
C4 C5 1_555 1_555
C5 H4 1_555 1_555
C6 H5 1_555 1_555
C7 C3 1_555 1_555
H6 C7 1_555 1_555
C8 C2 1_555 1_555
H7 C8 1_555 1_555
C9 C4 1_555 1_555
C10 C6 1_555 1_555
C11 C9 1_555 1_555
H8 C11 1_555 1_555
C12 C6 1_555 1_555
C13 C9 1_555 1_555
H9 C13 1_555 1_555
C14 C12 1_555 1_555
C15 C14 1_555 1_555
H10 C15 1_555 1_555
C16 C14 1_555 1_555
H11 C16 1_555 1_555
C17 C10 1_555 1_555
C18 C17 1_555 1_555
H12 C18 1_555 1_555
C19 C17 1_555 1_555
H13 C19 1_555 1_555
C20 C16 1_555 1_555
H14 C20 1_555 1_555
C21 C19 1_555 1_555
H15 C21 1_555 1_555
C22 C18 1_555 1_555
H16 C22 1_555 1_555
C23 C21 1_555 1_555
C24 C15 1_555 1_555
H17 C24 1_555 1_555
C25 C20 1_555 1_555
Al3 O1 1_555 1_555
C26 C23 1_555 1_555
C27 C25 1_555 1_555
O7 C27 1_555 1_555
O8 C27 1_555 1_555
O9 C26 1_555 1_555
O10 C26 1_555 1_555
C28 H18 1_555 1_555
H19 C28 1_555 1_555
C29 O5 1_555 1_555
C30 C28 1_555 1_555
H20 C30 1_555 1_555
H21 C30 1_555 1_555
C31 C30 1_555 1_555
H22 C31 1_555 1_555
H23 C31 1_555 1_555
C32 C31 1_555 1_555
H24 C32 1_555 1_555
C33 C32 1_555 1_555
H25 C33 1_555 1_555
H26 C33 1_555 1_555
Al1B O1B 1_555 1_555
O1B Al3 1_555 1_555
H1B O1B 1_555 1_555
O2B Al1B 1_555 1_555
H2B O2B 1_555 1_555
O3B Al1B 1_555 1_555
O4B C1B 1_555 1_555
O5B Al1B 1_555 1_555
O6B C29B 1_555 1_555
C1B O3B 1_555 1_555
C2B C1B 1_555 1_555
C3B C2B 1_555 1_555
H3B C3B 1_555 1_555
C4B C5B 1_555 1_555
C5B H4B 1_555 1_555
C6B H5B 1_555 1_555
C7B C3B 1_555 1_555
H6B C7B 1_555 1_555
C8B C2B 1_555 1_555
H7B C8B 1_555 1_555
C9B C4B 1_555 1_555
C10B C6B 1_555 1_555
C11B C9B 1_555 1_555
H8B C11B 1_555 1_555
C12B C6B 1_555 1_555
C13B C9B 1_555 1_555
H9B C13B 1_555 1_555
C14B C12B 1_555 1_555
C15B C14B 1_555 1_555
H10B C15B 1_555 1_555
C16B C14B 1_555 1_555
H11B C16B 1_555 1_555
C17B C10B 1_555 1_555
C18B C17B 1_555 1_555
H12B C18B 1_555 1_555
C19B C17B 1_555 1_555
H13B C19B 1_555 1_555
C20B C16B 1_555 1_555
H14B C20B 1_555 1_555
C21B C19B 1_555 1_555
H15B C21B 1_555 1_555
C22B C18B 1_555 1_555
H16B C22B 1_555 1_555
C23B C21B 1_555 1_555
C24B C15B 1_555 1_555
H17B C24B 1_555 1_555
C25B C20B 1_555 1_555
C26B C23B 1_555 1_555
C27B C25B 1_555 1_555
O7B C27B 1_555 1_555
O8B C27B 1_555 1_555
O9B C26B 1_555 1_555
O10B C26B 1_555 1_555
C28B H18B 1_555 1_555
H19B C28B 1_555 1_555
C29B O5B 1_555 1_555
C30B C28B 1_555 1_555
H20B C30B 1_555 1_555
H21B C30B 1_555 1_555
C31B C30B 1_555 1_555
H22B C31B 1_555 1_555
H23B C31B 1_555 1_555
C32B C31B 1_555 1_555
H24B C32B 1_555 1_555
C33B C32B 1_555 1_555
H25B C33B 1_555 1_555
H26B C33B 1_555 1_555
Al1_2 O9B 1_555 1_555
Al1B_2 O9 1_555 1_555
Al1D O8B 1_555 1_555
Al1E O8 1_555 1_555
Al2B O2B 1_555 1_555
O2F Al2 1_555 1_555
O4F Al2 1_555 1_555
O6F Al2 1_555 1_555
Al3_2 O10B 1_555 1_555
Al3_3 O10 1_555 1_555
Al3D O7B 1_555 1_555
Al3D_2 O7 1_555 1_555
O7D Al3 1_555 1_555
O7E Al3 1_555 1_555
O8D Al1B 1_555 1_555
O8E Al1 1_555 1_555
O9_2 Al1B 1_555 1_555
O9B_2 Al1 1_555 1_555
O10_2 Al3 1_555 1_555
O10B_2 Al3 1_555 1_555
O2G Al2B 1_555 1_555
O4G Al2B 1_555 1_555
O6G Al2B 1_555 1_555
Al1G O2G 1_555 1_555
O1G Al1G 1_555 1_555
O3G Al1G 1_555 1_555
O5G Al1G 1_555 1_555
O8A Al1G 1_555 1_555
O9F Al1G 1_555 1_555
H1G O1G 1_555 1_555
Al3F O1G 1_555 1_555
H2G O2G 1_555 1_555
C1G O4G 1_555 1_555
C29G O6G 1_555 1_555
C2G C1G 1_555 1_555
C3G C2G 1_555 1_555
C8G C2G 1_555 1_555
H3G C3G 1_555 1_555
C7G C3G 1_555 1_555
C4G C7G 1_555 1_555
C5G C8G 1_555 1_555
C9G C4G 1_555 1_555
H4G C5G 1_555 1_555
C6G H5G 1_555 1_555
C10G C6G 1_555 1_555
C12G C6G 1_555 1_555
H6G C7G 1_555 1_555
H7G C8G 1_555 1_555
C11G C9G 1_555 1_555
C13G C9G 1_555 1_555
C17G C10G 1_555 1_555
H8G C11G 1_555 1_555
C14G C12G 1_555 1_555
H9G C13G 1_555 1_555
C15G C14G 1_555 1_555
C16G C14G 1_555 1_555
H10G C15G 1_555 1_555
C24G C15G 1_555 1_555
H11G C16G 1_555 1_555
C20G C16G 1_555 1_555
C18G C17G 1_555 1_555
C19G C17G 1_555 1_555
H12G C18G 1_555 1_555
C22G C18G 1_555 1_555
H13G C19G 1_555 1_555
C21G C19G 1_555 1_555
H14G C20G 1_555 1_555
C25G C24G 1_555 1_555
H15G C21G 1_555 1_555
C23G C22G 1_555 1_555
H16G C22G 1_555 1_555
C26G C23G 1_555 1_555
H17G C24G 1_555 1_555
C27G C25G 1_555 1_555
O1F Al3F 1_555 1_555
O7C Al3F 1_555 1_555
O7A Al3F 1_555 1_555
O10G Al3F 1_555 1_555
O10F Al3F 1_555 1_555
O9G C26G 1_555 1_555
O10G_2 C26G 1_555 1_555
O7G C27G 1_555 1_555
O8G C27G 1_555 1_555
Al3A O7G 1_555 1_555
Al1A O8G 1_555 1_555
Al1F O9G 1_555 1_555
Al3F_2 O10G_2 1_555 1_555
C28G C29G 1_555 1_555
H18G C28G 1_555 1_555
H19G C28G 1_555 1_555
C30G C28G 1_555 1_555
H20G C30G 1_555 1_555
H21G C30G 1_555 1_555
C31G C30G 1_555 1_555
H22G C31G 1_555 1_555
H23G C31G 1_555 1_555
C32G C31G 1_555 1_555
H24G C32G 1_555 1_555
C33G C32G 1_555 1_555
H25G C33G 1_555 1_555
H26G C33G 1_555 1_555
Al1F_2 O2F 1_555 1_555
O3F Al1F_2 1_555 1_555
O5F Al1F_2 1_555 1_555
O8C Al1F_2 1_555 1_555
O9G_2 Al1F_2 1_555 1_555
H1F O1F 1_555 1_555
H2F O2F 1_555 1_555
C1F O4F 1_555 1_555
C29F O6F 1_555 1_555
C2F C1F 1_555 1_555
C3F C2F 1_555 1_555
C8F C2F 1_555 1_555
H3F C3F 1_555 1_555
C7F C3F 1_555 1_555
C4F C7F 1_555 1_555
C5F C8F 1_555 1_555
C9F C4F 1_555 1_555
H4F C5F 1_555 1_555
C6F H5F 1_555 1_555
C10F C6F 1_555 1_555
C12F C6F 1_555 1_555
H6F C7F 1_555 1_555
H7F C8F 1_555 1_555
C11F C9F 1_555 1_555
C13F C9F 1_555 1_555
C17F C10F 1_555 1_555
H8F C11F 1_555 1_555
C14F C12F 1_555 1_555
H9F C13F 1_555 1_555
C15F C14F 1_555 1_555
C16F C14F 1_555 1_555
H10F C15F 1_555 1_555
C24F C15F 1_555 1_555
H11F C16F 1_555 1_555
C20F C16F 1_555 1_555
C18F C17F 1_555 1_555
C19F C17F 1_555 1_555
H12F C18F 1_555 1_555
C22F C18F 1_555 1_555
H13F C19F 1_555 1_555
C21F C19F 1_555 1_555
H14F C20F 1_555 1_555
C25F C24F 1_555 1_555
H15F C21F 1_555 1_555
C23F C22F 1_555 1_555
H16F C22F 1_555 1_555
C26F C23F 1_555 1_555
H17F C24F 1_555 1_555
C27F C25F 1_555 1_555
O9F_2 C26F 1_555 1_555
O10F_2 C26F 1_555 1_555
O7F C27F 1_555 1_555
O8F C27F 1_555 1_555
Al3A_2 O7F 1_555 1_555
Al1C O8F 1_555 1_555
Al1G_2 O9F_2 1_555 1_555
Al3F_3 O10F_2 1_555 1_555
C28F C29F 1_555 1_555
H18F C28F 1_555 1_555
H19F C28F 1_555 1_555
C30F C28F 1_555 1_555
H20F C30F 1_555 1_555
H21F C30F 1_555 1_555
C31F C30F 1_555 1_555
H22F C31F 1_555 1_555
H23F C31F 1_555 1_555
C32F C31F 1_555 1_555
H24F C32F 1_555 1_555
C33F C32F 1_555 1_555
H25F C33F 1_555 1_555
H26F C33F 1_555 1_555
O4 C1 1_555 1_555
O6 C29 1_555 1_555
C4 C7 1_555 1_555
C5 C8 1_555 1_555
C10 C11 1_555 1_555
C12 C13 1_555 1_555
C22 C23 1_555 1_555
C24 C25 1_555 1_555
C28 C29 1_555 1_555
O4B Al2B 1_555 1_555
O6B Al2B 1_555 1_555
C4B C7B 1_555 1_555
C5B C8B 1_555 1_555
C10B C11B 1_555 1_555
C12B C13B 1_555 1_555
C22B C23B 1_555 1_555
C24B C25B 1_555 1_555
C28B C29B 1_555 1_555
O3G C1G 1_555 1_555
O5G C29G 1_555 1_555
C4G C5G 1_555 1_555
C10G C11G 1_555 1_555
C12G C13G 1_555 1_555
C20G C25G 1_555 1_555
C21G C23G 1_555 1_555
O1F Al1F_2 1_555 1_555
O3F C1F 1_555 1_555
O5F C29F 1_555 1_555
C4F C5F 1_555 1_555
C10F C11F 1_555 1_555
C12F C13F 1_555 1_555
C20F C25F 1_555 1_555
C21F C23F 1_555 1_555

#END
