
#######################################################################
#
#                 Cambridge Crystallographic Data Centre
#                                CCDC 
#
#######################################################################
#
# If this CIF has been generated from an entry in the Cambridge 
# Structural Database, then it will include bibliographic, chemical, 
# crystal, experimental, refinement or atomic coordinate data resulting 
# from the CCDC's data processing and validation procedures.
#
#######################################################################

data_OTEDUO
_chemical_formula_moiety         '(C114 H80 Al8 O38)n'
_symmetry_cell_setting           tetragonal
_symmetry_space_group_name_H-M   'P 43 21 2'
_symmetry_Int_Tables_number      96
_space_group_name_Hall           'P 4nw 2abw'
loop_
_symmetry_equiv_pos_site_id
_symmetry_equiv_pos_as_xyz
1 x,y,z
2 1/2-y,1/2+x,3/4+z
3 -x,-y,1/2+z
4 1/2+y,1/2-x,1/4+z
5 1/2+x,1/2-y,1/4-z
6 1/2-x,1/2+y,3/4-z
7 y,x,-z
8 -y,-x,1/2-z
_cell_length_a                   19.5333(8)
_cell_length_b                   19.5333(8)
_cell_length_c                   69.876(3)
_cell_angle_alpha                90
_cell_angle_beta                 90
_cell_angle_gamma                90
_cell_volume                     26661.2
loop_
_atom_site_label
_atom_site_type_symbol
_atom_site_fract_x
_atom_site_fract_y
_atom_site_fract_z
Al1 Al 0.50518(3) 0.52370(3) 0.44342(2)
O1 O 0.90850(6) 0.06712(7) 0.30354(2)
O2 O 0.48383(7) 0.59189(7) 0.42540(2)
O3 O 0.53826(7) 0.47427(7) 0.42178(2)
O4 O 0.46818(6) 0.57564(6) 0.46304(2)
O5 O 0.52879(6) 0.45215(6) 0.45978(2)
C1 C 0.45881(11) 0.65214(10) 0.42599(3)
C2 C 0.57024(11) 0.41966(10) 0.41976(3)
Al2 Al 0.39143(3) 0.63163(3) 0.46063(2)
H1 H 0.4876 0.5738 0.4739
Al3 Al 0.61008(3) 0.40347(3) 0.45967(2)
H2 H 0.4993 0.4407 0.4681
C3 C 0.45848(11) 0.69035(10) 0.40783(3)
O6 O 0.43315(7) 0.68043(7) 0.44067(2)
C4 C 0.57185(11) 0.38661(10) 0.40066(3)
O7 O 0.60292(7) 0.38850(7) 0.43305(2)
O8 O 0.41130(7) 0.69234(7) 0.48084(2)
O9 O 0.34694(6) 0.59098(7) 0.48127(2)
O10 O 0.14893(7) 1.06924(6) 0.30665(2)
O11 O 0.18779(7) 0.18570(7) 0.29499(2)
O12 O 0.83694(6) -0.01649(7) 0.29473(2)
O13 O 0.80762(6) 0.85370(7) 0.29229(2)
O14 O 0.62283(6) 0.41047(6) 0.48568(2)
O15 O 0.56028(7) 0.31937(7) 0.46276(2)
C5 C 0.49246(12) 0.66350(11) 0.39175(3)
C6 C 0.42284(12) 0.75157(11) 0.40597(3)
C7 C 0.53600(11) 0.41558(11) 0.38538(3)
C8 C 0.60748(12) 0.32655(11) 0.39764(3)
C9 C 0.43128(16) 0.75882(17) 0.47797(4)
Al4 Al 0.34444(3) 0.66292(3) 0.49870(2)
C10 C 0.32547(16) 0.52349(16) 0.48352(4)
H3 H 0.6092 0.4471 0.4910
C11 C 0.57631(11) 0.27130(11) 0.47391(3)
C12 C 0.48906(13) 0.69743(12) 0.37454(3)
H4 H 0.5177 0.6221 0.3928
C13 C 0.41975(13) 0.78549(12) 0.38895(3)
H5 H 0.4001 0.7702 0.4168
C14 C 0.53505(12) 0.38285(11) 0.36768(3)
H6 H 0.5123 0.4576 0.3871
H7 H 0.6328 0.3068 0.4079
C15 C 0.60686(12) 0.29465(11) 0.37996(3)
H8 H 0.3907 0.7877 0.4761
H9 H 0.4604 0.7614 0.4666
H10 H 0.4570 0.7749 0.4891
O16 O 0.22803(7) 0.20438(6) 0.26554(2)
O17 O 0.61991(7) 0.27282(7) 0.48703(2)
O18 O 0.75619(7) 0.84535(7) 0.26373(2)
H11 H 0.3627 0.4964 0.4891
H12 H 0.3130 0.5045 0.4710
H13 H 0.2856 0.5221 0.4920
H14 H 0.5527 0.2292 0.4722
H15 H 0.5126 0.6793 0.3638
C16 C 0.45180(12) 0.75791(11) 0.37251(3)
H16 H 0.3960 0.8278 0.3881
C17 C 0.57060(12) 0.32188(11) 0.36472(3)
H17 H 0.5097 0.4024 0.3574
H18 H 0.6318 0.2533 0.3782
C18 C 0.44812(13) 0.79364(11) 0.35366(3)
C19 C 0.56650(12) 0.28475(11) 0.34611(3)
C20 C 0.50628(13) 0.79803(12) 0.34218(3)
C21 C 0.38794(12) 0.82518(11) 0.34777(3)
C22 C 0.50436(11) 0.28171(10) 0.33616(3)
C23 C 0.62254(12) 0.24938(11) 0.33891(3)
C24 C 0.50372(12) 0.83267(11) 0.32455(3)
H19 H 0.5479 0.7775 0.3463
C25 C 0.38420(13) 0.85966(11) 0.33053(3)
H20 H 0.3486 0.8230 0.3557
C26 C 0.49868(12) 0.24532(10) 0.31914(3)
H21 H 0.4655 0.3049 0.3411
C27 C 0.61780(11) 0.21106(11) 0.32194(3)
H22 H 0.6649 0.2511 0.3456
C28 C 0.44297(12) 0.86219(11) 0.31888(3)
C29 C 0.56713(12) 0.83805(10) 0.31303(3)
C30 C 0.32036(12) 0.89598(11) 0.32507(3)
C31 C 0.43089(11) 0.23848(10) 0.30948(3)
C32 C 0.55532(11) 0.20939(10) 0.31221(3)
C33 C 0.67771(12) 0.17036(11) 0.31523(3)
H23 H 0.4407 0.8847 0.3068
C34 C 0.56724(13) 0.82916(11) 0.29339(3)
C35 C 0.62875(13) 0.85237(11) 0.32215(3)
C36 C 0.25740(12) 0.86591(11) 0.32752(3)
C37 C 0.32395(12) 0.96143(11) 0.31772(3)
C38 C 0.37274(12) 0.22807(11) 0.32041(3)
C39 C 0.42407(11) 0.23901(11) 0.28975(3)
H24 H 0.5513 0.1835 0.3008
C40 C 0.74385(12) 0.19451(11) 0.31681(3)
C41 C 0.66811(12) 0.10415(10) 0.30792(3)
C42 C 0.62780(12) 0.83277(10) 0.28286(3)
H25 H 0.5253 0.8204 0.2870
H26 H 0.6294 0.8609 0.3355
C43 C 0.68896(12) 0.85431(10) 0.31185(3)
H27 H 0.2547 0.8205 0.3324
C44 C 0.19667(12) 0.90155(11) 0.32295(3)
H28 H 0.3674 0.9821 0.3156
C45 C 0.26445(12) 0.99755(10) 0.31332(3)
H29 H 0.3767 0.2278 0.3340
C46 C 0.30856(11) 0.21804(11) 0.31213(3)
C47 C 0.36054(11) 0.23010(10) 0.28108(3)
H30 H 0.4635 0.2456 0.2820
C48 C 0.79996(11) 0.15500(10) 0.31172(3)
H31 H 0.7512 0.2395 0.3215
C49 C 0.72327(12) 0.06364(11) 0.30276(3)
H32 H 0.6230 0.0868 0.3065
C50 C 0.68904(11) 0.84589(10) 0.29205(3)
H33 H 0.6269 0.8262 0.2694
H34 H 0.7310 0.8615 0.3184
C51 C 0.20138(11) 0.96731(10) 0.31594(3)
H35 H 0.1533 0.8805 0.3247
H36 H 0.2674 1.0430 0.3085
C52 C 0.30277(10) 0.21928(9) 0.29235(3)
H37 H 0.2694 0.2105 0.3199
H38 H 0.3566 0.2314 0.2675
C53 C 0.78929(11) 0.08860(10) 0.30481(3)
H39 H 0.8450 0.1728 0.3129
H40 H 0.7159 0.0189 0.2978
C54 C 0.75598(10) 0.84880(10) 0.28184(3)
C55 C 0.13934(11) 1.00816(10) 0.31073(3)
C56 C 0.23497(10) 0.20286(10) 0.28343(3)
C57 C 0.84928(10) 0.04374(10) 0.30073(3)
O19 O 0.08108(6) 0.97846(7) 0.31106(2)
Al1E Al -0.00518(3) 1.02370(3) 0.30658(2)
Al1E_2 Al 0.99482(3) 0.02370(3) 0.30658(2)
O1E O 0.59150(6) 0.56712(7) 0.44646(2)
Al2E Al 0.10857(3) 0.13163(3) 0.28937(2)
Al2E_2 Al 0.10857(3) 1.13163(3) 0.28937(2)
Al3E Al 0.88992(3) -0.09653(3) 0.29033(2)
Al3E_2 Al 0.88992(3) 0.90347(3) 0.29033(2)
O10E O 0.35107(7) 0.56924(6) 0.44335(2)
O11E O 0.31221(7) 0.68570(7) 0.45501(2)
O12E O 0.66306(6) 0.48351(7) 0.45527(2)
O13E O 0.69238(6) 0.35370(7) 0.45771(2)
O14F O 0.41047(6) 0.62283(6) 0.51432(2)
Al4A Al 0.83708(3) 0.84444(3) 0.24870(2)
Al4E Al 0.15556(3) 0.16292(3) 0.25130(2)
Al4F Al 0.66292(3) 0.34444(3) 0.50130(2)
O16E O 0.27197(7) 0.70438(6) 0.48446(2)
O17F O 0.27282(7) 0.61991(7) 0.51297(2)
O18C O 0.34535(7) 0.74381(7) 0.51373(2)
O19E O 0.41892(6) 0.47846(7) 0.43894(2)
Al1F Al 0.52370(3) 0.50518(3) 0.55658(2)
O2F O 0.59189(7) 0.48383(7) 0.57460(2)
O3F O 0.47427(7) 0.53826(7) 0.57822(2)
O4F O 0.57564(6) 0.46818(6) 0.53696(2)
O5F O 0.45215(6) 0.52879(6) 0.54022(2)
O1C O 0.56712(7) 0.59150(6) 0.55354(2)
O19C O 0.47846(7) 0.41892(6) 0.56106(2)
O1F O 0.06712(7) 0.90850(6) 0.69646(2)
C57F C 0.04374(10) 0.84928(10) 0.69927(3)
Al1C Al 0.02370(3) 0.99482(3) 0.69342(2)
C1F C 0.65214(10) 0.45881(11) 0.57401(3)
C2F C 0.41966(10) 0.57024(11) 0.58024(3)
Al2F Al 0.63163(3) 0.39143(3) 0.53937(2)
H1F H 0.5738 0.4876 0.5261
Al3F Al 0.40347(3) 0.61008(3) 0.54033(2)
H2F H 0.4407 0.4993 0.5319
C3F C 0.69035(10) 0.45848(11) 0.59217(3)
O6F O 0.68043(7) 0.43315(7) 0.55933(2)
C4F C 0.38661(10) 0.57185(11) 0.59934(3)
O7F O 0.38850(7) 0.60292(7) 0.56695(2)
O8F O 0.69234(7) 0.41130(7) 0.51916(2)
O9F O 0.59098(7) 0.34694(6) 0.51873(2)
O10C O 0.56924(6) 0.35107(7) 0.55665(2)
O11C O 0.68570(7) 0.31221(7) 0.54499(2)
O15F O 0.31937(7) 0.56028(7) 0.53724(2)
O12C O 0.48351(7) 0.66306(6) 0.54473(2)
O13C O 0.35370(7) 0.69238(6) 0.54229(2)
C5F C 0.66350(11) 0.49246(12) 0.60825(3)
C6F C 0.75157(11) 0.42284(12) 0.59403(3)
C7F C 0.41558(11) 0.53600(11) 0.61462(3)
C8F C 0.32655(11) 0.60748(12) 0.60236(3)
C9F C 0.75882(17) 0.43128(16) 0.52203(4)
C10F C 0.52349(16) 0.32547(16) 0.51648(4)
O10F O 1.06924(6) 0.14893(7) 0.69335(2)
C55F C 1.00816(10) 0.13934(11) 0.68927(3)
Al2C Al 1.13163(3) 0.10857(3) 0.71063(2)
O11F O 0.18570(7) 0.18779(7) 0.70501(2)
C56F C 0.20286(10) 0.23497(10) 0.71657(3)
Al2C_2 Al 0.13163(3) 0.10857(3) 0.71063(2)
O12F O -0.01649(7) 0.83694(6) 0.70527(2)
Al3C Al -0.09653(3) 0.88992(3) 0.70967(2)
O13F O 0.85370(7) 0.80762(6) 0.70771(2)
C54F C 0.84880(10) 0.75598(10) 0.71816(3)
Al3C_2 Al 0.90347(3) 0.88992(3) 0.70967(2)
H3F H 0.4471 0.6092 0.5090
C11F C 0.27130(11) 0.57631(11) 0.52609(3)
C12F C 0.69743(12) 0.48906(13) 0.62546(3)
H4F H 0.6221 0.5177 0.6072
C13F C 0.78549(12) 0.41975(13) 0.61105(3)
H5F H 0.7702 0.4001 0.5832
C14F C 0.38285(11) 0.53505(12) 0.63232(3)
H6F H 0.4576 0.5123 0.6129
H7F H 0.3068 0.6328 0.5921
C15F C 0.29465(11) 0.60686(12) 0.62004(3)
H8F H 0.7877 0.3907 0.5239
H9F H 0.7614 0.4604 0.5334
H10F H 0.7749 0.4570 0.5109
O16C O 0.70438(6) 0.27197(7) 0.51554(2)
O18E O 0.74381(7) 0.34535(7) 0.48627(2)
H11F H 0.4964 0.3627 0.5109
H12F H 0.5045 0.3130 0.5290
H13F H 0.5221 0.2856 0.5080
H14F H 0.2292 0.5527 0.5278
H15F H 0.6793 0.5126 0.6362
C16F C 0.75791(11) 0.45180(12) 0.62749(3)
H16F H 0.8278 0.3960 0.6119
C17F C 0.32188(11) 0.57060(12) 0.63528(3)
H17F H 0.4024 0.5097 0.6426
H18F H 0.2533 0.6318 0.6218
O16F O 0.20438(6) 0.22803(7) 0.73446(2)
Al4C Al 0.16292(3) 0.15556(3) 0.74870(2)
O18F O 0.84535(7) 0.75619(7) 0.73627(2)
Al4D Al 0.84444(3) 0.83708(3) 0.75130(2)
C18F C 0.79364(11) 0.44812(13) 0.64634(3)
C19F C 0.28475(11) 0.56650(12) 0.65389(3)
C20F C 0.79803(12) 0.50628(13) 0.65782(3)
C21F C 0.82518(11) 0.38794(12) 0.65223(3)
C22F C 0.28171(10) 0.50436(11) 0.66384(3)
C23F C 0.24938(11) 0.62254(12) 0.66109(3)
C24F C 0.83267(11) 0.50372(12) 0.67545(3)
H19F H 0.7775 0.5479 0.6537
C25F C 0.85966(11) 0.38420(13) 0.66947(3)
H20F H 0.8230 0.3486 0.6443
C26F C 0.24532(10) 0.49868(12) 0.68086(3)
H21F H 0.3049 0.4655 0.6589
C27F C 0.21106(11) 0.61780(11) 0.67806(3)
H22F H 0.2511 0.6649 0.6544
C28F C 0.86219(11) 0.44297(12) 0.68112(3)
C29F C 0.83805(10) 0.56713(12) 0.68697(3)
C30F C 0.89598(11) 0.32036(12) 0.67493(3)
C31F C 0.23848(10) 0.43089(11) 0.69052(3)
C32F C 0.20939(10) 0.55532(11) 0.68779(3)
C33F C 0.17036(11) 0.67771(12) 0.68477(3)
H23F H 0.8847 0.4407 0.6932
C34F C 0.82916(11) 0.56724(13) 0.70661(3)
C35F C 0.85237(11) 0.62875(13) 0.67785(3)
C36F C 0.86591(11) 0.25740(12) 0.67248(3)
C37F C 0.96143(11) 0.32395(12) 0.68228(3)
C38F C 0.22807(11) 0.37274(12) 0.67959(3)
C39F C 0.23901(11) 0.42407(11) 0.71025(3)
H24F H 0.1835 0.5513 0.6992
C40F C 0.19451(11) 0.74385(12) 0.68319(3)
C41F C 0.10415(10) 0.66811(12) 0.69208(3)
C42F C 0.83277(10) 0.62780(12) 0.71714(3)
H25F H 0.8204 0.5253 0.7130
H26F H 0.8609 0.6294 0.6645
C43F C 0.85431(10) 0.68896(12) 0.68815(3)
H27F H 0.8205 0.2547 0.6676
C44F C 0.90155(11) 0.19667(12) 0.67705(3)
H28F H 0.9821 0.3674 0.6844
C45F C 0.99755(10) 0.26445(12) 0.68668(3)
H29F H 0.2278 0.3767 0.6660
C46F C 0.21804(11) 0.30856(11) 0.68787(3)
C47F C 0.23010(10) 0.36054(11) 0.71892(3)
H30F H 0.2456 0.4635 0.7180
C48F C 0.15500(10) 0.79996(11) 0.68828(3)
H31F H 0.2395 0.7512 0.6785
C49F C 0.06364(11) 0.72327(12) 0.69724(3)
H32F H 0.0868 0.6230 0.6935
C50F C 0.84589(10) 0.68904(11) 0.70795(3)
H33F H 0.8262 0.6269 0.7306
H34F H 0.8615 0.7310 0.6816
C51F C 0.96731(10) 0.20138(11) 0.68406(3)
H35F H 0.8805 0.1533 0.6753
H36F H 1.0430 0.2674 0.6915
C52F C 0.21928(9) 0.30277(10) 0.70765(3)
H37F H 0.2105 0.2694 0.6801
H38F H 0.2314 0.3566 0.7325
C53F C 0.08860(10) 0.78929(11) 0.69519(3)
H39F H 0.1728 0.8450 0.6871
H40F H 0.0189 0.7159 0.7022
O19F O 0.97846(7) 0.08108(6) 0.68894(2)
Al1C_2 Al 1.02370(3) -0.00518(3) 0.69342(2)
loop_
_geom_bond_atom_site_label_1
_geom_bond_atom_site_label_2
_geom_bond_site_symmetry_1
_geom_bond_site_symmetry_2
Al1 O2 1_555 1_555
O1 C57 1_555 1_555
O2 C1 1_555 1_555
O3 Al1 1_555 1_555
O4 Al1 1_555 1_555
O5 Al1 1_555 1_555
C1 C3 1_555 1_555
C2 O3 1_555 1_555
Al2 O4 1_555 1_555
H1 O4 1_555 1_555
Al3 O5 1_555 1_555
H2 O5 1_555 1_555
C3 C5 1_555 1_555
O6 C1 1_555 1_555
C4 C2 1_555 1_555
O7 C2 1_555 1_555
O8 Al2 1_555 1_555
O9 Al2 1_555 1_555
O10 C55 1_555 1_555
O11 C56 1_555 1_555
O12 C57 1_555 1_555
O13 C54 1_555 1_555
O14 Al3 1_555 1_555
O15 Al3 1_555 1_555
C5 C12 1_555 1_555
C6 C3 1_555 1_555
C7 C4 1_555 1_555
C8 C4 1_555 1_555
C9 O8 1_555 1_555
Al4 O8 1_555 1_555
C10 O9 1_555 1_555
H3 O14 1_555 1_555
C11 O15 1_555 1_555
C12 H15 1_555 1_555
H4 C5 1_555 1_555
C13 C6 1_555 1_555
H5 C6 1_555 1_555
C14 C7 1_555 1_555
H6 C7 1_555 1_555
H7 C8 1_555 1_555
C15 C8 1_555 1_555
H8 C9 1_555 1_555
H9 C9 1_555 1_555
H10 C9 1_555 1_555
O16 C56 1_555 1_555
O17 C11 1_555 1_555
O18 C54 1_555 1_555
H11 C10 1_555 1_555
H12 C10 1_555 1_555
H13 C10 1_555 1_555
H14 C11 1_555 1_555
C16 C12 1_555 1_555
H16 C13 1_555 1_555
C17 C14 1_555 1_555
H17 C14 1_555 1_555
H18 C15 1_555 1_555
C18 C16 1_555 1_555
C19 C17 1_555 1_555
C20 C18 1_555 1_555
C21 C18 1_555 1_555
C22 C19 1_555 1_555
C23 C19 1_555 1_555
C24 C20 1_555 1_555
H19 C20 1_555 1_555
C25 C21 1_555 1_555
H20 C21 1_555 1_555
C26 C22 1_555 1_555
H21 C22 1_555 1_555
C27 C23 1_555 1_555
H22 C23 1_555 1_555
C28 C24 1_555 1_555
C29 C24 1_555 1_555
C30 C25 1_555 1_555
C31 C26 1_555 1_555
C32 C26 1_555 1_555
C33 C27 1_555 1_555
H23 C28 1_555 1_555
C34 C29 1_555 1_555
C35 C29 1_555 1_555
C36 C30 1_555 1_555
C37 C30 1_555 1_555
C38 C31 1_555 1_555
C39 C31 1_555 1_555
H24 C32 1_555 1_555
C40 C33 1_555 1_555
C41 C33 1_555 1_555
C42 C34 1_555 1_555
H25 C34 1_555 1_555
H26 C35 1_555 1_555
C43 C35 1_555 1_555
H27 C36 1_555 1_555
C44 C36 1_555 1_555
H28 C37 1_555 1_555
C45 C37 1_555 1_555
H29 C38 1_555 1_555
C46 C38 1_555 1_555
C47 C39 1_555 1_555
H30 C39 1_555 1_555
C48 C40 1_555 1_555
H31 C40 1_555 1_555
C49 C41 1_555 1_555
H32 C41 1_555 1_555
C50 C42 1_555 1_555
H33 C42 1_555 1_555
H34 C43 1_555 1_555
C51 C44 1_555 1_555
H35 C44 1_555 1_555
H36 C45 1_555 1_555
C52 C46 1_555 1_555
H37 C46 1_555 1_555
H38 C47 1_555 1_555
C53 C48 1_555 1_555
H39 C48 1_555 1_555
H40 C49 1_555 1_555
C54 C50 1_555 1_555
C55 C51 1_555 1_555
C56 C52 1_555 1_555
C57 C53 1_555 1_555
O19 C55 1_555 1_555
Al1E O19 1_555 1_555
Al1E_2 O1 1_555 1_555
O1E Al1 1_555 1_555
Al2E O11 1_555 1_555
Al2E_2 O10 1_555 1_555
Al3E O12 1_555 1_555
Al3E_2 O13 1_555 1_555
O10E Al2 1_555 1_555
O11E Al2 1_555 1_555
O12E Al3 1_555 1_555
O13E Al3 1_555 1_555
O14F Al4 1_555 1_555
Al4A O18 1_555 1_555
Al4E O16 1_555 1_555
Al4F O14 1_555 1_555
O16E Al4 1_555 1_555
O17F Al4 1_555 1_555
O18C Al4 1_555 1_555
O19E Al1 1_555 1_555
Al1F O2F 1_555 1_555
O2F C1F 1_555 1_555
O3F Al1F 1_555 1_555
O4F Al1F 1_555 1_555
O5F Al1F 1_555 1_555
O1C Al1F 1_555 1_555
O19C Al1F 1_555 1_555
O1F C57F 1_555 1_555
C57F O12F 1_555 1_555
Al1C O1F 1_555 1_555
C1F C3F 1_555 1_555
C2F O3F 1_555 1_555
Al2F O4F 1_555 1_555
H1F O4F 1_555 1_555
Al3F O14F 1_555 1_555
H2F O5F 1_555 1_555
C3F C5F 1_555 1_555
O6F C1F 1_555 1_555
C4F C2F 1_555 1_555
O7F C2F 1_555 1_555
O8F Al4F 1_555 1_555
O9F Al4F 1_555 1_555
O10C Al2F 1_555 1_555
O11C Al2F 1_555 1_555
O15F Al3F 1_555 1_555
O12C Al3F 1_555 1_555
O13C Al3F 1_555 1_555
C5F C12F 1_555 1_555
C6F C3F 1_555 1_555
C7F C4F 1_555 1_555
C8F C4F 1_555 1_555
C9F O8F 1_555 1_555
C10F O9F 1_555 1_555
O10F C55F 1_555 1_555
C55F C51F 1_555 1_555
Al2C O10F 1_555 1_555
O11F C56F 1_555 1_555
C56F O16F 1_555 1_555
Al2C_2 O11F 1_555 1_555
O12F Al3C 1_555 1_555
O13F C54F 1_555 1_555
C54F O18F 1_555 1_555
Al3C_2 O13F 1_555 1_555
H3F O14F 1_555 1_555
C11F O17F 1_555 1_555
C12F H15F 1_555 1_555
H4F C5F 1_555 1_555
C13F C6F 1_555 1_555
H5F C6F 1_555 1_555
C14F C7F 1_555 1_555
H6F C7F 1_555 1_555
H7F C8F 1_555 1_555
C15F C8F 1_555 1_555
H8F C9F 1_555 1_555
H9F C9F 1_555 1_555
H10F C9F 1_555 1_555
O16C Al4F 1_555 1_555
O18E Al4F 1_555 1_555
H11F C10F 1_555 1_555
H12F C10F 1_555 1_555
H13F C10F 1_555 1_555
H14F C11F 1_555 1_555
C16F C12F 1_555 1_555
H16F C13F 1_555 1_555
C17F C14F 1_555 1_555
H17F C14F 1_555 1_555
H18F C15F 1_555 1_555
O16F Al4C 1_555 1_555
O18F Al4D 1_555 1_555
C18F C16F 1_555 1_555
C19F C17F 1_555 1_555
C20F C18F 1_555 1_555
C21F C18F 1_555 1_555
C22F C19F 1_555 1_555
C23F C19F 1_555 1_555
C24F C20F 1_555 1_555
H19F C20F 1_555 1_555
C25F C21F 1_555 1_555
H20F C21F 1_555 1_555
C26F C22F 1_555 1_555
H21F C22F 1_555 1_555
C27F C23F 1_555 1_555
H22F C23F 1_555 1_555
C28F C24F 1_555 1_555
C29F C24F 1_555 1_555
C30F C25F 1_555 1_555
C31F C26F 1_555 1_555
C32F C26F 1_555 1_555
C33F C27F 1_555 1_555
H23F C28F 1_555 1_555
C34F C29F 1_555 1_555
C35F C29F 1_555 1_555
C36F C30F 1_555 1_555
C37F C30F 1_555 1_555
C38F C31F 1_555 1_555
C39F C31F 1_555 1_555
H24F C32F 1_555 1_555
C40F C33F 1_555 1_555
C41F C33F 1_555 1_555
C42F C34F 1_555 1_555
H25F C34F 1_555 1_555
H26F C35F 1_555 1_555
C43F C35F 1_555 1_555
H27F C36F 1_555 1_555
C44F C36F 1_555 1_555
H28F C37F 1_555 1_555
C45F C37F 1_555 1_555
H29F C38F 1_555 1_555
C46F C38F 1_555 1_555
C47F C39F 1_555 1_555
H30F C39F 1_555 1_555
C48F C40F 1_555 1_555
H31F C40F 1_555 1_555
C49F C41F 1_555 1_555
H32F C41F 1_555 1_555
C50F C54F 1_555 1_555
H33F C42F 1_555 1_555
H34F C43F 1_555 1_555
C51F C44F 1_555 1_555
H35F C44F 1_555 1_555
H36F C45F 1_555 1_555
C52F C56F 1_555 1_555
H37F C46F 1_555 1_555
H38F C47F 1_555 1_555
C53F C57F 1_555 1_555
H39F C48F 1_555 1_555
H40F C49F 1_555 1_555
O19F C55F 1_555 1_555
Al1C_2 O19F 1_555 1_555
Al2 O6 1_555 1_555
Al3 O7 1_555 1_555
O9 Al4 1_555 1_555
C13 C16 1_555 1_555
C15 C17 1_555 1_555
O17 Al4F 1_555 1_555
C25 C28 1_555 1_555
C27 C32 1_555 1_555
C43 C50 1_555 1_555
C45 C51 1_555 1_555
C47 C52 1_555 1_555
C49 C53 1_555 1_555
O5F Al3F 1_555 1_555
Al2F O6F 1_555 1_555
Al2F O8F 1_555 1_555
Al2F O9F 1_555 1_555
Al3F O7F 1_555 1_555
O15F C11F 1_555 1_555
C13F C16F 1_555 1_555
C15F C17F 1_555 1_555
C25F C28F 1_555 1_555
C27F C32F 1_555 1_555
C42F C50F 1_555 1_555
C43F C50F 1_555 1_555
C45F C51F 1_555 1_555
C46F C52F 1_555 1_555
C47F C52F 1_555 1_555
C48F C53F 1_555 1_555
C49F C53F 1_555 1_555

#END
