
#######################################################################
#
#                 Cambridge Crystallographic Data Centre
#                                CCDC 
#
#######################################################################
#
# If this CIF has been generated from an entry in the Cambridge 
# Structural Database, then it will include bibliographic, chemical, 
# crystal, experimental, refinement or atomic coordinate data resulting 
# from the CCDC's data processing and validation procedures.
#
#######################################################################

data_OTEFAW
_chemical_formula_moiety         '(C122 H78 Al8 Br2 O38)n'
_symmetry_cell_setting           tetragonal
_symmetry_space_group_name_H-M   'P 43 21 2'
_symmetry_Int_Tables_number      96
_space_group_name_Hall           'P 4nw 2abw'
loop_
_symmetry_equiv_pos_site_id
_symmetry_equiv_pos_as_xyz
1 x,y,z
2 -x,-y,1/2+z
3 1/2-y,1/2+x,3/4+z
4 1/2+y,1/2-x,1/4+z
5 1/2-x,1/2+y,3/4-z
6 1/2+x,1/2-y,1/4-z
7 y,x,-z
8 -y,-x,1/2-z
_cell_length_a                   19.1308(5)
_cell_length_b                   19.1308(5)
_cell_length_c                   70.677(2)
_cell_angle_alpha                90
_cell_angle_beta                 90
_cell_angle_gamma                90
_cell_volume                     25866.9
loop_
_atom_site_label
_atom_site_type_symbol
_atom_site_fract_x
_atom_site_fract_y
_atom_site_fract_z
Al1 Al 0.60019(7) 0.38946(6) 0.54069(2)
Al2 Al 0.47211(6) 0.49110(5) 0.55532(2)
O1 O 0.54817(13) 0.47087(12) 0.54027(3)
H1 H 0.5620 0.5057 0.5314
O2 O 0.59720(14) 0.37913(13) 0.51488(3)
H2 H 0.5593 0.4017 0.5087
O3 O 0.51728(17) 0.45429(14) 0.57715(4)
O4 O 0.6085(2) 0.39233(17) 0.56780(4)
O5 O 1.01885(16) 0.16826(13) 0.70593(4)
O6 O 0.39716(17) 0.50832(14) 0.57258(4)
O7 O 0.30984(17) 0.55962(15) 0.55700(4)
O8 O 0.92942(15) 0.09516(13) 0.69931(4)
O9 O 0.68577(16) 0.43816(15) 0.53876(5)
C1 C 0.9557(3) 0.15594(19) 0.70083(5)
C2 C 0.9292(3) 0.2847(2) 0.69832(8)
H3 H 0.9750 0.2955 0.7026
C3 C 0.3258(4) 0.5020(3) 0.60536(6)
H4 H 0.3680 0.4761 0.6045
C4 C 0.6991(3) 0.4295(2) 0.65464(6)
C5 C 0.8404(3) 0.2000(2) 0.68975(7)
H5 H 0.8245 0.1530 0.6888
C6 C 0.9081(3) 0.2145(2) 0.69666(6)
C7 C 0.8833(3) 0.3382(2) 0.69369(8)
H6 H 0.8965 0.3852 0.6961
C8 C 0.3376(3) 0.5344(2) 0.57175(5)
C9 C 0.0868(3) 0.8068(2) 0.67462(8)
H7 H 0.1052 0.8523 0.6725
C10 C 0.7725(3) 0.3810(2) 0.67913(7)
C11 C 0.7363(3) 0.3751(2) 0.66161(6)
H8 H 0.7382 0.3325 0.6547
C12 C 0.7700(3) 0.4468(2) 0.68840(6)
H9 H 0.7931 0.4520 0.7002
C13 C 0.6645(3) 0.4259(2) 0.63582(6)
C14 C 0.5737(3) 0.4231(2) 0.58005(5)
C15 C 0.2988(3) 0.5369(2) 0.58926(6)
C16 C 0.8185(3) 0.3248(2) 0.68560(6)
C17 C 0.6024(3) 0.4212(2) 0.59968(5)
C18 C 0.6012(3) 0.4605(3) 0.63199(6)
H10 H 0.5796 0.4869 0.6418
C19 C 0.6930(3) 0.3866(3) 0.62091(7)
H11 H 0.7347 0.3609 0.6230
C20 C 0.0220(3) 0.8011(2) 0.68209(6)
C21 C 0.6981(3) 0.4941(2) 0.66403(6)
H12 H 0.6722 0.5323 0.6590
C22 C 0.1288(4) 0.7485(3) 0.66973(9)
H13 H 0.1754 0.7529 0.6652
C23 C 0.6630(3) 0.3841(3) 0.60370(6)
H14 H 0.6837 0.3564 0.5941
C24 C 0.5691(3) 0.4573(2) 0.61416(6)
H15 H 0.5253 0.4793 0.6120
C25 C 0.2331(4) 0.5464(3) 0.62454(8)
C26 C 0.0294(5) 0.6768(3) 0.67899(11)
H16 H 0.0088 0.6318 0.6802
C27 C 0.7967(3) 0.2552(2) 0.68433(8)
H17 H 0.7512 0.2452 0.6797
C28 C 0.2901(4) 0.5059(3) 0.62241(7)
H18 H 0.3064 0.4793 0.6329
C29 C 0.2374(4) 0.5740(3) 0.59105(8)
H19 H 0.2183 0.5968 0.5803
C30 C 0.1949(5) 0.4952(3) 0.65588(9)
H20 H 0.2177 0.4535 0.6520
C31 C 0.0954(5) 0.6834(3) 0.67215(9)
C32 C 0.2026(4) 0.5788(3) 0.60845(8)
H21 H 0.1596 0.6032 0.6095
C33 C 0.1971(6) 0.5523(4) 0.64391(10)
C34 C 0.1623(7) 0.4956(3) 0.67269(10)
C35 C 0.1725(6) 0.6172(3) 0.64963(11)
H22 H 0.1796 0.6579 0.6422
C36 C 0.1360(6) 0.6199(3) 0.66726(10)
C37 C 0.1335(7) 0.5594(3) 0.67837(11)
H23 H 0.1112 0.5619 0.6904
C38 C -0.0083(4) 0.7363(3) 0.68426(9)
H24 H -0.0542 0.7321 0.6893
C39 C 0.1632(4) 0.3782(2) 0.71535(7)
H25 H 0.1662 0.3813 0.7287
C40 C 0.1697(5) 0.4388(3) 0.70420(8)
H26 H 0.1816 0.4821 0.7100
C41 C 0.1590(4) 0.4357(2) 0.68531(8)
C42 C 0.1525(3) 0.3144(2) 0.70684(6)
C43 C 0.1406(5) 0.3704(3) 0.67640(8)
H27 H 0.1277 0.3679 0.6634
C44 C 0.1428(3) 0.3112(3) 0.68777(6)
H28 H 0.1372 0.2667 0.6820
C45 C 0.1531(2) 0.2487(2) 0.71786(5)
O10 O 0.15064(16) 0.19360(14) 0.70748(4)
C46 C 0.7373(3) 0.5722(2) 0.69044(6)
C47 C 0.7362(3) 0.5017(2) 0.68110(6)
C48 C 0.7465(3) 0.6294(2) 0.67958(6)
H29 H 0.7437 0.6256 0.6662
C49 C 0.7615(2) 0.7000(2) 0.70764(5)
C50 C 0.7404(3) 0.5770(3) 0.71048(6)
H30 H 0.7374 0.5356 0.7179
C51 C 0.7475(3) 0.6408(2) 0.71940(6)
H31 H 0.7433 0.6452 0.7327
C52 C 0.7603(3) 0.6956(2) 0.68805(7)
H32 H 0.7686 0.7357 0.6805
O11 O 0.78089(15) 0.77301(13) 0.73467(3)
C53 C 0.7840(2) 0.76833(19) 0.71678(5)
O12 O 0.80097(16) 0.81571(15) 0.70604(4)
C54 C -0.0183(3) 0.8635(2) 0.68808(5)
O13 O 0.01264(15) 0.92180(13) 0.68817(4)
O14 O -0.08056(16) 0.85447(13) 0.69343(3)
Al3 Al 0.36062(6) 0.60585(6) 0.53833(2)
O15 O 0.42134(13) 0.53160(12) 0.53561(3)
H33 H 0.4272 0.5126 0.5233
O16 O 0.40421(15) 0.66040(14) 0.51899(3)
O17 O 0.30282(15) 0.58604(13) 0.51755(3)
H34 H 0.2691 0.5501 0.5159
Al4 Al 0.65802(5) 0.33063(6) 0.49917(2)
O18 O 0.15323(14) 0.24950(13) 0.73534(3)
O19 O 0.73548(15) 0.36981(16) 0.51236(4)
C55 C 0.4657(8) 0.6985(8) 0.51887(19)
C56 C 0.5252(9) 0.6595(11) 0.5182(2)
H35 H 0.5242 0.6101 0.5170
C57 C 0.5916(9) 0.6989(10) 0.5196(2)
H36 H 0.6352 0.6750 0.5197
C58 C 0.5891(10) 0.7673(10) 0.5206(2)
C59 C 0.5279(10) 0.8022(10) 0.5207(3)
H37 H 0.5288 0.8518 0.5213
C60 C 0.4679(10) 0.7707(9) 0.5200(3)
H38 H 0.4258 0.7970 0.5202
Br1 Br 0.67769(13) 0.81832(14) 0.52187(4)
C61 C 0.7306(4) 0.4208(4) 0.52527(9)
H39 H 0.7689 0.4524 0.5246
Al1E Al 0.10019(7) 0.11054(6) 0.70931(2)
Al1E_2 Al 1.10019(7) 0.11054(6) 0.70931(2)
Al2E Al -0.02789(6) 1.00890(5) 0.69468(2)
Al2E_2 Al 0.97211(6) 0.00890(5) 0.69468(2)
O5E O 0.51885(16) 0.33174(13) 0.54407(4)
O8E O 0.42942(15) 0.40484(13) 0.55069(4)
O10E O 0.65064(16) 0.30640(14) 0.54252(4)
O11B O 0.72699(13) 0.28089(15) 0.48467(3)
O12E O 0.30097(16) 0.68429(15) 0.54396(4)
O13E O 0.51264(15) 0.57820(13) 0.56183(4)
O14E O 0.41944(16) 0.64553(13) 0.55657(3)
Al3E Al -0.13938(6) 0.89415(6) 0.71167(2)
Al3E_2 Al 0.86062(6) 0.89415(6) 0.71167(2)
O16F O 0.66040(14) 0.40421(15) 0.48101(3)
O17F O 0.58604(13) 0.30282(15) 0.48245(3)
Al4C Al 0.83063(6) 0.84198(5) 0.74917(2)
Al4E Al 0.15802(5) 0.16937(6) 0.75083(2)
Al4F Al 0.33063(6) 0.65802(5) 0.50083(2)
O18E O 0.65323(14) 0.25050(13) 0.51466(3)
Al1F Al 0.38946(6) 0.60019(7) 0.45931(2)
O1F O 0.47087(12) 0.54817(13) 0.45973(3)
O2F O 0.37913(13) 0.59720(14) 0.48512(3)
O4F O 0.39233(17) 0.6085(2) 0.43220(4)
O9F O 0.43816(15) 0.68577(16) 0.46124(5)
O5B O 0.33174(13) 0.51885(16) 0.45593(4)
O10B O 0.30640(14) 0.65064(16) 0.45748(4)
Al2F Al 0.49110(5) 0.47211(6) 0.44468(2)
O3F O 0.45429(14) 0.51728(17) 0.42285(4)
O6F O 0.50832(14) 0.39716(17) 0.42742(4)
O15F O 0.53160(12) 0.42134(13) 0.46439(3)
O8B O 0.40484(13) 0.42942(15) 0.44931(4)
O13B O 0.57820(13) 0.51264(15) 0.43817(4)
H1F H 0.5057 0.5620 0.4686
H2F H 0.4017 0.5593 0.4913
C14F C 0.4231(2) 0.5737(3) 0.41995(5)
O5F O 0.16826(13) 1.01885(16) 0.29407(4)
C1F C 0.15594(19) 0.9557(3) 0.29917(5)
Al1B Al 0.11054(6) 1.10019(7) 0.29069(2)
C8F C 0.5344(2) 0.3376(3) 0.42825(5)
O7F O 0.55962(15) 0.30984(17) 0.44300(4)
Al3F Al 0.60585(6) 0.36062(6) 0.46167(2)
O8F O 0.09516(13) 0.92942(15) 0.30069(4)
Al2B Al 0.00890(5) 0.97211(6) 0.30532(2)
C61F C 0.4208(4) 0.7306(4) 0.47473(9)
C6F C 0.2145(2) 0.9081(3) 0.30334(6)
C2F C 0.2847(2) 0.9292(3) 0.30168(8)
H3F H 0.2955 0.9750 0.2974
C7F C 0.3382(2) 0.8833(3) 0.30631(8)
C3F C 0.5020(3) 0.3258(4) 0.39464(6)
H4F H 0.4761 0.3680 0.3955
C15F C 0.5369(2) 0.2988(3) 0.41074(6)
C28F C 0.5059(3) 0.2901(4) 0.37759(7)
C4F C 0.4295(2) 0.6991(3) 0.34536(6)
C11F C 0.3751(2) 0.7363(3) 0.33839(6)
C13F C 0.4259(2) 0.6645(3) 0.36418(6)
C21F C 0.4941(2) 0.6981(3) 0.33597(6)
C5F C 0.2000(2) 0.8404(3) 0.31025(7)
H5F H 0.1530 0.8245 0.3112
C27F C 0.2552(2) 0.7967(3) 0.31567(8)
H6F H 0.3852 0.8965 0.3039
C16F C 0.3248(2) 0.8185(3) 0.31440(6)
C9F C 0.8068(2) 0.0868(3) 0.32538(8)
H7F H 0.8523 0.1052 0.3275
C20F C 0.8011(2) 0.0220(3) 0.31791(6)
C22F C 0.7485(3) 0.1288(4) 0.33027(9)
C10F C 0.3810(2) 0.7725(3) 0.32087(7)
C12F C 0.4468(2) 0.7700(3) 0.31160(6)
H8F H 0.3325 0.7382 0.3453
H9F H 0.4520 0.7931 0.2998
C47F C 0.5017(2) 0.7362(3) 0.31890(6)
C18F C 0.4605(3) 0.6012(3) 0.36801(6)
C19F C 0.3866(3) 0.6930(3) 0.37909(7)
C17F C 0.4212(2) 0.6024(3) 0.40032(5)
C29F C 0.5740(3) 0.2374(4) 0.40895(8)
C23F C 0.3841(3) 0.6630(3) 0.39630(6)
C24F C 0.4573(2) 0.5691(3) 0.38584(6)
H10F H 0.4869 0.5796 0.3582
H11F H 0.3609 0.7347 0.3770
C38F C 0.7363(3) -0.0083(4) 0.31574(9)
C54F C 0.8635(2) -0.0183(3) 0.31192(5)
H12F H 0.5323 0.6722 0.3410
H13F H 0.7529 0.1754 0.3348
C31F C 0.6834(3) 0.0954(5) 0.32785(9)
H14F H 0.3564 0.6837 0.4059
H15F H 0.4793 0.5253 0.3880
C25F C 0.5464(3) 0.2331(4) 0.37546(8)
C32F C 0.5788(3) 0.2026(4) 0.39155(8)
C33F C 0.5523(4) 0.1971(6) 0.35609(10)
C26F C 0.6768(3) 0.0294(5) 0.32101(11)
H16F H 0.6318 0.0088 0.3198
H17F H 0.2452 0.7512 0.3203
H18F H 0.4793 0.3064 0.3671
H19F H 0.5968 0.2183 0.4197
C30F C 0.4952(3) 0.1949(5) 0.34412(9)
H20F H 0.4535 0.2177 0.3480
C34F C 0.4956(3) 0.1623(7) 0.32731(10)
C36F C 0.6199(3) 0.1360(6) 0.33274(10)
H21F H 0.6032 0.1596 0.3905
C35F C 0.6172(3) 0.1725(6) 0.35037(11)
C37F C 0.5594(3) 0.1335(7) 0.32163(11)
C41F C 0.4357(2) 0.1590(4) 0.31469(8)
H22F H 0.6579 0.1796 0.3578
H23F H 0.5619 0.1112 0.3096
H24F H 0.7321 -0.0542 0.3107
C39F C 0.3782(2) 0.1632(4) 0.28465(7)
H25F H 0.3813 0.1662 0.2713
C40F C 0.4388(3) 0.1697(5) 0.29580(8)
C42F C 0.3144(2) 0.1525(3) 0.29316(6)
H26F H 0.4821 0.1816 0.2900
C43F C 0.3704(3) 0.1406(5) 0.32360(8)
C44F C 0.3112(3) 0.1428(3) 0.31223(6)
C45F C 0.2487(2) 0.1531(2) 0.28214(5)
H27F H 0.3679 0.1277 0.3366
H28F H 0.2667 0.1372 0.3180
O10F O 0.19360(14) 0.15064(16) 0.29252(4)
O18F O 0.24950(13) 0.15323(14) 0.26466(3)
Al1B_2 Al 0.11054(6) 0.10019(7) 0.29069(2)
C46F C 0.5722(2) 0.7373(3) 0.30956(6)
C48F C 0.6294(2) 0.7465(3) 0.32042(6)
C50F C 0.5770(3) 0.7404(3) 0.28952(6)
H29F H 0.6256 0.7437 0.3338
C52F C 0.6956(2) 0.7603(3) 0.31195(7)
C49F C 0.7000(2) 0.7615(2) 0.29236(5)
C51F C 0.6408(2) 0.7475(3) 0.28060(6)
C53F C 0.76833(19) 0.7840(2) 0.28322(5)
H30F H 0.5356 0.7374 0.2821
H31F H 0.6452 0.7433 0.2673
H32F H 0.7357 0.7686 0.3195
O11F O 0.77301(13) 0.78089(15) 0.26533(3)
Al4D Al 0.84198(5) 0.83063(6) 0.25083(2)
O12F O 0.81571(15) 0.80097(16) 0.29396(4)
Al3B Al 0.89415(6) 0.86062(6) 0.28833(2)
O13F O 0.92180(13) 0.01264(15) 0.31183(4)
O14F O 0.85447(13) -0.08056(16) 0.30657(3)
Al2B_2 Al 1.00890(5) -0.02789(6) 0.30532(2)
Al3B_2 Al 0.89415(6) -0.13938(6) 0.28833(2)
O12B O 0.68429(15) 0.30097(16) 0.45604(4)
O14B O 0.64553(13) 0.41944(16) 0.44343(3)
H33F H 0.5126 0.4272 0.4767
C55F C 0.6985(8) 0.4657(8) 0.48113(19)
H34F H 0.5501 0.2691 0.4841
O19F O 0.36981(16) 0.73548(15) 0.48764(4)
O11E O 0.28089(15) 0.72699(13) 0.51533(3)
O18B O 0.25050(13) 0.65323(14) 0.48534(3)
Al4B Al 0.16937(6) 0.15802(5) 0.24917(2)
C56F C 0.6595(11) 0.5252(9) 0.4818(2)
C60F C 0.7707(9) 0.4679(10) 0.4800(3)
H35F H 0.6101 0.5242 0.4830
C57F C 0.6989(10) 0.5916(9) 0.4804(2)
H36F H 0.6750 0.6352 0.4803
C58F C 0.7673(10) 0.5891(10) 0.4794(2)
C59F C 0.8022(10) 0.5279(10) 0.4793(3)
Br1F Br 0.81832(14) 0.67769(13) 0.47813(4)
H37F H 0.8518 0.5288 0.4787
H38F H 0.7970 0.4258 0.4798
H39F H 0.4524 0.7689 0.4754
loop_
_geom_bond_atom_site_label_1
_geom_bond_atom_site_label_2
_geom_bond_site_symmetry_1
_geom_bond_site_symmetry_2
Al1 O1 1_555 1_555
Al2 O1 1_555 1_555
O1 H1 1_555 1_555
O2 Al1 1_555 1_555
H2 O2 1_555 1_555
O3 Al2 1_555 1_555
O4 Al1 1_555 1_555
O5 C1 1_555 1_555
O6 Al2 1_555 1_555
O7 C8 1_555 1_555
O8 C1 1_555 1_555
O9 Al1 1_555 1_555
C1 C6 1_555 1_555
C2 H3 1_555 1_555
C3 H4 1_555 1_555
C4 C11 1_555 1_555
C5 H5 1_555 1_555
C6 C2 1_555 1_555
C7 C2 1_555 1_555
H6 C7 1_555 1_555
C8 O6 1_555 1_555
C9 H7 1_555 1_555
C10 C11 1_555 1_555
C11 H8 1_555 1_555
C12 C10 1_555 1_555
H9 C12 1_555 1_555
C13 C4 1_555 1_555
C14 O3 1_555 1_555
C15 C3 1_555 1_555
C16 C7 1_555 1_555
C17 C14 1_555 1_555
C18 C13 1_555 1_555
H10 C18 1_555 1_555
C19 C13 1_555 1_555
H11 C19 1_555 1_555
C20 C9 1_555 1_555
C21 C4 1_555 1_555
H12 C21 1_555 1_555
C22 C9 1_555 1_555
H13 C22 1_555 1_555
C23 C17 1_555 1_555
H14 C23 1_555 1_555
C24 C17 1_555 1_555
H15 C24 1_555 1_555
C25 C28 1_555 1_555
C26 H16 1_555 1_555
C27 C5 1_555 1_555
H17 C27 1_555 1_555
C28 C3 1_555 1_555
H18 C28 1_555 1_555
C29 C15 1_555 1_555
H19 C29 1_555 1_555
C30 H20 1_555 1_555
C31 C22 1_555 1_555
C32 C25 1_555 1_555
H21 C32 1_555 1_555
C33 C25 1_555 1_555
C34 C30 1_555 1_555
C35 C33 1_555 1_555
H22 C35 1_555 1_555
C36 C31 1_555 1_555
C37 C34 1_555 1_555
H23 C37 1_555 1_555
C38 C20 1_555 1_555
H24 C38 1_555 1_555
C39 H25 1_555 1_555
C40 C39 1_555 1_555
H26 C40 1_555 1_555
C41 C34 1_555 1_555
C42 C39 1_555 1_555
C43 C41 1_555 1_555
H27 C43 1_555 1_555
C44 C42 1_555 1_555
H28 C44 1_555 1_555
C45 C42 1_555 1_555
O10 C45 1_555 1_555
C46 C47 1_555 1_555
C47 C12 1_555 1_555
C48 C46 1_555 1_555
H29 C48 1_555 1_555
C49 C51 1_555 1_555
C50 C46 1_555 1_555
H30 C50 1_555 1_555
C51 C50 1_555 1_555
H31 C51 1_555 1_555
C52 C48 1_555 1_555
H32 C52 1_555 1_555
O11 C53 1_555 1_555
C53 C49 1_555 1_555
O12 C53 1_555 1_555
C54 C20 1_555 1_555
O13 C54 1_555 1_555
O14 C54 1_555 1_555
Al3 O7 1_555 1_555
O15 Al2 1_555 1_555
H33 O15 1_555 1_555
O16 Al3 1_555 1_555
O17 Al3 1_555 1_555
H34 O17 1_555 1_555
Al4 O2 1_555 1_555
O18 C45 1_555 1_555
O19 Al4 1_555 1_555
C55 O16 1_555 1_555
C56 C55 1_555 1_555
H35 C56 1_555 1_555
C57 C56 1_555 1_555
H36 C57 1_555 1_555
C58 C57 1_555 1_555
C59 C58 1_555 1_555
H37 C59 1_555 1_555
C60 C55 1_555 1_555
H38 C60 1_555 1_555
Br1 C58 1_555 1_555
C61 O9 1_555 1_555
H39 C61 1_555 1_555
Al1E O10 1_555 1_555
Al1E_2 O5 1_555 1_555
Al2E O13 1_555 1_555
Al2E_2 O8 1_555 1_555
O5E Al1 1_555 1_555
O8E Al2 1_555 1_555
O10E Al1 1_555 1_555
O11B Al4 1_555 1_555
O12E Al3 1_555 1_555
O13E Al2 1_555 1_555
O14E Al3 1_555 1_555
Al3E O14 1_555 1_555
Al3E_2 O12 1_555 1_555
O16F Al4 1_555 1_555
O17F Al4 1_555 1_555
Al4C O11 1_555 1_555
Al4E O18 1_555 1_555
Al4F O16 1_555 1_555
O18E Al4 1_555 1_555
Al1F O1F 1_555 1_555
O1F Al2F 1_555 1_555
O2F Al4F 1_555 1_555
O4F Al1F 1_555 1_555
O9F Al1F 1_555 1_555
O5B Al1F 1_555 1_555
O10B Al1F 1_555 1_555
Al2F O3F 1_555 1_555
O3F C14F 1_555 1_555
O6F Al2F 1_555 1_555
O15F Al2F 1_555 1_555
O8B Al2F 1_555 1_555
O13B Al2F 1_555 1_555
H1F O1F 1_555 1_555
H2F O2F 1_555 1_555
C14F O4F 1_555 1_555
O5F C1F 1_555 1_555
C1F O8F 1_555 1_555
Al1B O5F 1_555 1_555
C8F O6F 1_555 1_555
O7F C8F 1_555 1_555
Al3F O16F 1_555 1_555
O8F Al2B 1_555 1_555
C61F O9F 1_555 1_555
C6F C1F 1_555 1_555
C2F C6F 1_555 1_555
H3F C2F 1_555 1_555
C7F C2F 1_555 1_555
C3F H4F 1_555 1_555
C15F C8F 1_555 1_555
C28F C3F 1_555 1_555
C4F C11F 1_555 1_555
C11F C10F 1_555 1_555
C13F C4F 1_555 1_555
C21F C4F 1_555 1_555
C5F C6F 1_555 1_555
H5F C5F 1_555 1_555
C27F C5F 1_555 1_555
H6F C7F 1_555 1_555
C16F C7F 1_555 1_555
C9F H7F 1_555 1_555
C20F C9F 1_555 1_555
C22F C9F 1_555 1_555
C10F C16F 1_555 1_555
C12F C10F 1_555 1_555
H8F C11F 1_555 1_555
H9F C12F 1_555 1_555
C47F C21F 1_555 1_555
C18F C13F 1_555 1_555
C19F C13F 1_555 1_555
C17F C14F 1_555 1_555
C29F C15F 1_555 1_555
C23F C19F 1_555 1_555
C24F C18F 1_555 1_555
H10F C18F 1_555 1_555
H11F C19F 1_555 1_555
C38F C20F 1_555 1_555
C54F C20F 1_555 1_555
H12F C21F 1_555 1_555
H13F C22F 1_555 1_555
C31F C22F 1_555 1_555
H14F C23F 1_555 1_555
H15F C24F 1_555 1_555
C25F C28F 1_555 1_555
C32F C29F 1_555 1_555
C33F C25F 1_555 1_555
C26F C38F 1_555 1_555
H16F C26F 1_555 1_555
H17F C27F 1_555 1_555
H18F C28F 1_555 1_555
H19F C29F 1_555 1_555
C30F C33F 1_555 1_555
H20F C30F 1_555 1_555
C34F C30F 1_555 1_555
C36F C31F 1_555 1_555
H21F C32F 1_555 1_555
C35F C33F 1_555 1_555
C37F C34F 1_555 1_555
C41F C34F 1_555 1_555
H22F C35F 1_555 1_555
H23F C37F 1_555 1_555
H24F C38F 1_555 1_555
C39F H25F 1_555 1_555
C40F C41F 1_555 1_555
C42F C39F 1_555 1_555
H26F C40F 1_555 1_555
C43F C41F 1_555 1_555
C44F C42F 1_555 1_555
C45F C42F 1_555 1_555
H27F C43F 1_555 1_555
H28F C44F 1_555 1_555
O10F C45F 1_555 1_555
O18F C45F 1_555 1_555
Al1B_2 O10F 1_555 1_555
C46F C47F 1_555 1_555
C48F C46F 1_555 1_555
C50F C46F 1_555 1_555
H29F C48F 1_555 1_555
C52F C48F 1_555 1_555
C49F C52F 1_555 1_555
C51F C50F 1_555 1_555
C53F C49F 1_555 1_555
H30F C50F 1_555 1_555
H31F C51F 1_555 1_555
H32F C52F 1_555 1_555
O11F C53F 1_555 1_555
Al4D O11F 1_555 1_555
O12F C53F 1_555 1_555
Al3B O12F 1_555 1_555
O13F C54F 1_555 1_555
O14F C54F 1_555 1_555
Al2B_2 O13F 1_555 1_555
Al3B_2 O14F 1_555 1_555
O12B Al3F 1_555 1_555
O14B Al3F 1_555 1_555
H33F O15F 1_555 1_555
C55F O16F 1_555 1_555
H34F O17F 1_555 1_555
O19F Al4F 1_555 1_555
O11E Al4F 1_555 1_555
O18B Al4F 1_555 1_555
Al4B O18F 1_555 1_555
C56F C55F 1_555 1_555
C60F C55F 1_555 1_555
H35F C56F 1_555 1_555
C57F C56F 1_555 1_555
H36F C57F 1_555 1_555
C58F C57F 1_555 1_555
C59F C60F 1_555 1_555
Br1F C58F 1_555 1_555
H37F C59F 1_555 1_555
H38F C60F 1_555 1_555
H39F C61F 1_555 1_555
O4 C14 1_555 1_555
C5 C6 1_555 1_555
C8 C15 1_555 1_555
C10 C16 1_555 1_555
C16 C27 1_555 1_555
C18 C24 1_555 1_555
C19 C23 1_555 1_555
C21 C47 1_555 1_555
C26 C31 1_555 1_555
C26 C38 1_555 1_555
C29 C32 1_555 1_555
C30 C33 1_555 1_555
C35 C36 1_555 1_555
C36 C37 1_555 1_555
C40 C41 1_555 1_555
C43 C44 1_555 1_555
C49 C52 1_555 1_555
Al3 O15 1_555 1_555
O17 Al4F 1_555 1_555
O19 C61 1_555 1_555
C59 C60 1_555 1_555
O17F Al3F 1_555 1_555
Al1F O2F 1_555 1_555
O15F Al3F 1_555 1_555
O7F Al3F 1_555 1_555
C61F O19F 1_555 1_555
C3F C15F 1_555 1_555
C27F C16F 1_555 1_555
C12F C47F 1_555 1_555
C17F C23F 1_555 1_555
C17F C24F 1_555 1_555
C31F C26F 1_555 1_555
C25F C32F 1_555 1_555
C36F C35F 1_555 1_555
C36F C37F 1_555 1_555
C39F C40F 1_555 1_555
C43F C44F 1_555 1_555
C49F C51F 1_555 1_555
C58F C59F 1_555 1_555

#END
