
#######################################################################
#
#                 Cambridge Crystallographic Data Centre
#                                CCDC 
#
#######################################################################
#
# If this CIF has been generated from an entry in the Cambridge 
# Structural Database, then it will include bibliographic, chemical, 
# crystal, experimental, refinement or atomic coordinate data resulting 
# from the CCDC's data processing and validation procedures.
#
#######################################################################

data_OTEFEA
_chemical_formula_moiety         '(C136 H96 Al8 N8 O40)n'
_symmetry_cell_setting           tetragonal
_symmetry_space_group_name_H-M   'P 42 21 2'
_symmetry_Int_Tables_number      94
_space_group_name_Hall           'P 4n 2n'
loop_
_symmetry_equiv_pos_site_id
_symmetry_equiv_pos_as_xyz
1 x,y,z
2 1/2-y,1/2+x,1/2+z
3 -x,-y,z
4 1/2+y,1/2-x,1/2+z
5 1/2+x,1/2-y,1/2-z
6 1/2-x,1/2+y,1/2-z
7 y,x,-z
8 -y,-x,-z
_cell_length_a                   19.008(4)
_cell_length_b                   19.008(4)
_cell_length_c                   36.526(7)
_cell_angle_alpha                90
_cell_angle_beta                 90
_cell_angle_gamma                90
_cell_volume                     13197
loop_
_atom_site_label
_atom_site_type_symbol
_atom_site_fract_x
_atom_site_fract_y
_atom_site_fract_z
Al1 Al 0.65716(3) 0.34284(3) 0.5000
Al2 Al 0.59199(3) 0.37091(4) 0.41774(2)
Al3 Al 0.5000 0.5000 0.38142(2)
O1 O 0.62110(7) 0.39799(7) 0.46385(3)
H1 H 0.6172 0.4415 0.4688
O2 O 0.51923(7) 0.43376(9) 0.41630(4)
H2 H 0.4906 0.4320 0.4342
O3 O 0.66666(8) 0.30642(9) 0.41424(4)
C1 C 0.72404(12) 0.30576(12) 0.43320(6)
C2 C 1.28375(12) 0.46206(15) 0.37449(6)
O4 O 0.72725(9) 0.30781(10) 0.46747(5)
C3 C 1.04539(13) 0.12651(18) 0.15716(6)
C4 C 0.91649(14) 0.3081(2) 0.40958(7)
H3 H 0.9606 0.3097 0.4218
C5 C 1.15789(13) 0.45234(18) 0.36897(7)
H4 H 1.1127 0.4721 0.3730
C6 C 0.85511(13) 0.30577(16) 0.42967(6)
H5 H 0.8568 0.3061 0.4557
C7 C 0.79053(12) 0.30296(13) 0.41153(6)
C8 C 0.91429(14) 0.30822(18) 0.37123(7)
C9 C 1.09996(14) 0.35029(19) 0.34047(7)
C10 C 1.34883(12) 0.49971(14) 0.38414(5)
C11 C 1.04590(14) 0.2363(2) 0.25991(7)
C12 C 1.08168(15) 0.2624(2) 0.23064(7)
H6 H 1.1081 0.3045 0.2332
C13 C 1.21761(13) 0.49020(16) 0.37911(6)
H7 H 1.2126 0.5359 0.3893
C14 C 1.03936(14) 0.3483(2) 0.36090(7)
H8 H 1.0376 0.3736 0.3833
C15 C 0.78838(13) 0.30271(17) 0.37422(7)
H9 H 0.7444 0.3016 0.3619
C16 C 1.10195(15) 0.3115(2) 0.30751(8)
H10 H 1.1434 0.3124 0.2930
C17 C 1.16307(13) 0.38897(18) 0.35369(7)
C18 C 0.85035(14) 0.30403(19) 0.35423(7)
H11 H 0.8484 0.3020 0.3283
C19 C 1.08002(15) 0.22840(18) 0.19706(7)
H12 H 1.1024 0.2492 0.1765
C20 C 1.01192(14) 0.13424(19) 0.22330(6)
H13 H 0.9880 0.0906 0.2210
C21 C 1.04552(13) 0.16349(17) 0.19329(6)
C22 C 0.98349(14) 0.27196(19) 0.31745(7)
H14 H 0.9438 0.2454 0.3098
C23 C 1.04418(14) 0.27194(19) 0.29589(7)
C24 C 1.29020(14) 0.39509(18) 0.35812(8)
H15 H 1.3354 0.3754 0.3538
C25 C 1.01322(15) 0.16906(19) 0.25696(7)
H16 H 0.9923 0.1479 0.2779
C26 C 1.22993(15) 0.3582(2) 0.34837(9)
H17 H 1.2337 0.3123 0.3382
C27 C 0.97993(14) 0.3100(2) 0.34986(8)
O5 O 1.40594(8) 0.46902(9) 0.37867(4)
O6 O 1.34241(8) 0.56232(9) 0.39625(4)
O7 O 1.02038(10) 0.06495(11) 0.15682(4)
O8 O 1.06998(9) 0.15938(11) 0.13085(4)
O9 O 0.53209(9) 0.29850(10) 0.43610(5)
O10 O 0.59122(11) 0.27147(8) 0.48793(5)
C28 C 0.54063(19) 0.26363(17) 0.46431(8)
C29 C 0.5126(6) 0.1903(5) 0.4780(2)
C30 C 0.5312(4) 0.1524(4) 0.5089(2)
H18 H 0.5673 0.1690 0.5248
C31 C 0.4957(5) 0.0888(4) 0.5165(2)
C32 C 0.4438(4) 0.0653(4) 0.4935(2)
H19 H 0.4217 0.0215 0.4986
C33 C 0.4226(5) 0.1033(5) 0.4633(3)
C34 C 0.4586(5) 0.1685(5) 0.4561(3)
H20 H 0.4447 0.1967 0.4359
N1 N 0.3794(4) 0.0768(4) 0.4381(2)
H21 H 0.3634 0.0336 0.4404
H22 H 0.3669 0.1024 0.4192
N2 N 0.5190(3) 0.0530(3) 0.55047(18)
Al2B Al 0.40801(3) 0.62909(4) 0.41774(2)
O1B O 0.37890(7) 0.60201(7) 0.46385(3)
H1B H 0.3828 0.5585 0.4688
O2B O 0.48077(7) 0.56624(9) 0.41630(4)
H2B H 0.5094 0.5680 0.4342
O3B O 0.33334(8) 0.69358(9) 0.41424(4)
C1B C 0.27596(12) 0.69424(12) 0.43320(6)
C2B C -0.28375(12) 0.53794(15) 0.37449(6)
O4B O 0.27275(9) 0.69219(10) 0.46747(5)
C3B C -0.04539(13) 0.87349(18) 0.15716(6)
C4B C 0.08351(14) 0.6919(2) 0.40958(7)
H3B H 0.0394 0.6903 0.4218
C5B C -0.15789(13) 0.54766(18) 0.36897(7)
H4B H -0.1127 0.5279 0.3730
C6B C 0.14489(13) 0.69423(16) 0.42967(6)
H5B H 0.1432 0.6939 0.4557
C7B C 0.20947(12) 0.69704(13) 0.41153(6)
C8B C 0.08571(14) 0.69178(18) 0.37123(7)
C9B C -0.09996(14) 0.64971(19) 0.34047(7)
C10B C -0.34883(12) 0.50029(14) 0.38414(5)
C11B C -0.04590(14) 0.7637(2) 0.25991(7)
C12B C -0.08168(15) 0.7376(2) 0.23064(7)
H6B H -0.1081 0.6955 0.2332
C13B C -0.21761(13) 0.50980(16) 0.37911(6)
H7B H -0.2126 0.4641 0.3893
C14B C -0.03936(14) 0.6517(2) 0.36090(7)
H8B H -0.0376 0.6264 0.3833
C15B C 0.21162(13) 0.69729(17) 0.37422(7)
H9B H 0.2556 0.6984 0.3619
C16B C -0.10195(15) 0.6885(2) 0.30751(8)
H10B H -0.1434 0.6876 0.2930
C17B C -0.16307(13) 0.61103(18) 0.35369(7)
C18B C 0.14965(14) 0.69597(19) 0.35423(7)
H11B H 0.1516 0.6980 0.3283
C19B C -0.08002(15) 0.77160(18) 0.19706(7)
H12B H -0.1024 0.7508 0.1765
C20B C -0.01192(14) 0.86576(19) 0.22330(6)
H13B H 0.0120 0.9094 0.2210
C21B C -0.04552(13) 0.83651(17) 0.19329(6)
C22B C 0.01651(14) 0.72804(19) 0.31745(7)
H14B H 0.0562 0.7546 0.3098
C23B C -0.04418(14) 0.72806(19) 0.29589(7)
C24B C -0.29020(14) 0.60491(18) 0.35812(8)
H15B H -0.3354 0.6246 0.3538
C25B C -0.01322(15) 0.83094(19) 0.25696(7)
H16B H 0.0077 0.8521 0.2779
C26B C -0.22993(15) 0.6418(2) 0.34837(9)
H17B H -0.2337 0.6877 0.3382
C27B C 0.02007(14) 0.6900(2) 0.34986(8)
O5B O -0.40594(8) 0.53098(9) 0.37867(4)
O6B O -0.34241(8) 0.43768(9) 0.39625(4)
O7B O -0.02038(10) 0.93505(11) 0.15682(4)
O8B O -0.06998(9) 0.84062(11) 0.13085(4)
O9B O 0.46791(9) 0.70150(10) 0.43610(5)
O10B O 0.40878(11) 0.72853(8) 0.48793(5)
C28B C 0.45937(19) 0.73637(17) 0.46431(8)
C29B C 0.4874(6) 0.8097(5) 0.4780(2)
C30B C 0.4688(4) 0.8476(4) 0.5089(2)
H18B H 0.4327 0.8310 0.5248
C31B C 0.5043(5) 0.9112(4) 0.5165(2)
C32B C 0.5562(4) 0.9347(4) 0.4935(2)
H19B H 0.5783 0.9785 0.4986
C33B C 0.5774(5) 0.8967(5) 0.4633(3)
C34B C 0.5414(5) 0.8315(5) 0.4561(3)
H20B H 0.5553 0.8033 0.4359
N1B N 0.6206(4) 0.9232(4) 0.4381(2)
H21B H 0.6366 0.9664 0.4404
H22B H 0.6331 0.8976 0.4192
N2B N 0.4810(3) 0.9470(3) 0.55047(18)
Al1B Al 0.34284(3) 0.65716(3) 0.5000
Al2_2 Al -0.40801(3) 0.37091(4) 0.41774(2)
Al2B_2 Al 1.40801(3) 0.62909(4) 0.41774(2)
Al2D Al 1.09199(3) 0.12909(4) 0.08226(2)
Al2E Al -0.09199(3) 0.87091(4) 0.08226(2)
Al3_2 Al -0.5000 0.5000 0.38142(2)
Al3_3 Al 1.5000 0.5000 0.38142(2)
Al3D Al -0.0000 1.0000 0.11858(2)
Al3D_2 Al 1.0000 -0.0000 0.11858(2)
O1G O 0.60201(7) 0.37890(7) 0.53615(3)
O4G O 0.69219(10) 0.27275(9) 0.53253(5)
O5_2 O 0.40594(8) 0.46902(9) 0.37867(4)
O5B_2 O 0.59406(8) 0.53098(9) 0.37867(4)
O6_2 O 0.34241(8) 0.56232(9) 0.39625(4)
O6B_2 O 0.65759(8) 0.43768(9) 0.39625(4)
O7D O 0.52038(10) 0.43505(11) 0.34318(4)
O7E O 0.47962(10) 0.56495(11) 0.34318(4)
O8D O 0.56998(9) 0.34062(11) 0.36915(4)
O8E O 0.43002(9) 0.65938(11) 0.36915(4)
O10G O 0.72853(8) 0.40878(11) 0.51207(5)
Al2G Al 0.62909(4) 0.40801(3) 0.58226(2)
O2G O 0.56624(9) 0.48077(7) 0.58370(4)
O3G O 0.69358(9) 0.33334(8) 0.58576(4)
O9G O 0.70150(10) 0.46791(9) 0.56390(5)
O6F O 0.56232(9) 0.34241(8) 0.60375(4)
O8C O 0.65938(11) 0.43002(9) 0.63085(4)
Al3F Al 0.5000 0.5000 0.61858(2)
O2F O 0.43376(9) 0.51923(7) 0.58370(4)
O5G O 0.53098(9) 0.59406(8) 0.62133(4)
O5F O 0.46902(9) 0.40594(8) 0.62133(4)
O7C O 0.56495(11) 0.47962(10) 0.65682(4)
O7A O 0.43505(11) 0.52038(10) 0.65682(4)
H1G H 0.5585 0.3828 0.5312
H2G H 0.5680 0.5094 0.5658
C1G C 0.69424(12) 0.27596(12) 0.56680(6)
C7G C 0.69704(13) 0.20947(12) 0.58847(6)
C2G C 0.53794(15) -0.28375(12) 0.62551(6)
C10G C 0.50029(14) -0.34883(12) 0.61586(5)
C13G C 0.50980(16) -0.21761(13) 0.62089(6)
C24G C 0.60491(18) -0.29020(14) 0.64188(8)
C3G C 0.87349(18) -0.04539(13) 0.84284(6)
C21G C 0.83651(17) -0.04552(13) 0.80671(6)
O7G O 0.93505(11) -0.02038(10) 0.84318(4)
O8G O 0.84062(11) -0.06998(9) 0.86915(4)
C4G C 0.6919(2) 0.08351(14) 0.59042(7)
H3G H 0.6903 0.0394 0.5782
C6G C 0.69423(16) 0.14489(13) 0.57033(6)
C8G C 0.69178(18) 0.08571(14) 0.62877(7)
C5G C 0.54766(18) -0.15789(13) 0.63103(7)
H4G H 0.5279 -0.1127 0.6270
C17G C 0.61103(18) -0.16307(13) 0.64631(7)
H5G H 0.6939 0.1432 0.5443
C15G C 0.69729(17) 0.21162(13) 0.62578(7)
C18G C 0.69597(19) 0.14965(14) 0.64577(7)
C27G C 0.6900(2) 0.02007(14) 0.65014(8)
C9G C 0.64971(19) -0.09996(14) 0.65953(7)
C14G C 0.6517(2) -0.03936(14) 0.63910(7)
C16G C 0.6885(2) -0.10195(15) 0.69249(8)
O5G_2 O 0.53098(9) -0.40594(8) 0.62133(4)
O6G O 0.43768(9) -0.34241(8) 0.60375(4)
C11G C 0.7637(2) -0.04590(14) 0.74009(7)
C12G C 0.7376(2) -0.08168(15) 0.76936(7)
C23G C 0.72806(19) -0.04418(14) 0.70411(7)
C25G C 0.83094(19) -0.01322(15) 0.74304(7)
H6G H 0.6955 -0.1081 0.7668
C19G C 0.77160(18) -0.08002(15) 0.80294(7)
H7G H 0.4641 -0.2126 0.6107
H8G H 0.6264 -0.0376 0.6167
H9G H 0.6984 0.2556 0.6381
H10G H 0.6876 -0.1434 0.7070
C26G C 0.6418(2) -0.22993(15) 0.65163(9)
H11G H 0.6980 0.1516 0.6717
H12G H 0.7508 -0.1024 0.8235
C20G C 0.86576(19) -0.01192(14) 0.77670(6)
H13G H 0.9094 0.0120 0.7790
C22G C 0.72804(19) 0.01651(14) 0.68255(7)
H14G H 0.7546 0.0562 0.6902
H15G H 0.6246 -0.3354 0.6462
H16G H 0.8521 0.0077 0.7221
H17G H 0.6877 -0.2337 0.6618
Al3F_2 Al 0.5000 -0.5000 0.61858(2)
Al2F Al 0.37091(4) -0.40801(3) 0.58226(2)
Al3A Al 1.0000 -0.0000 0.88142(2)
Al2C Al 0.87091(4) -0.09199(3) 0.91774(2)
C28G C 0.73637(17) 0.45937(19) 0.53569(8)
C29G C 0.8097(5) 0.4874(6) 0.5220(2)
C30G C 0.8476(4) 0.4688(4) 0.4911(2)
C34G C 0.8315(5) 0.5414(5) 0.5439(3)
H18G H 0.8310 0.4327 0.4752
C31G C 0.9112(4) 0.5043(5) 0.4835(2)
C32G C 0.9347(4) 0.5562(4) 0.5065(2)
N2G N 0.9470(3) 0.4810(3) 0.44953(18)
H19G H 0.9785 0.5783 0.5014
C33G C 0.8967(5) 0.5774(5) 0.5367(3)
N1G N 0.9232(4) 0.6206(4) 0.5619(2)
H20G H 0.8033 0.5553 0.5641
H21G H 0.9664 0.6366 0.5596
H22G H 0.8976 0.6331 0.5808
Al2F_2 Al 0.37091(4) 0.59199(3) 0.58226(2)
O1F O 0.39799(7) 0.62110(7) 0.53615(3)
O3F O 0.30642(9) 0.66666(8) 0.58576(4)
O9F O 0.29850(10) 0.53209(9) 0.56390(5)
O6G_2 O 0.43768(9) 0.65759(8) 0.60375(4)
O8A O 0.34062(11) 0.56998(9) 0.63085(4)
H1F H 0.4415 0.6172 0.5312
H2F H 0.4320 0.4906 0.5658
C1F C 0.30576(12) 0.72404(12) 0.56680(6)
O4F O 0.30781(10) 0.72725(9) 0.53253(5)
C7F C 0.30296(13) 0.79053(12) 0.58847(6)
C2F C 0.46206(15) 1.28375(12) 0.62551(6)
C10F C 0.49971(14) 1.34883(12) 0.61586(5)
C13F C 0.49020(16) 1.21761(13) 0.62089(6)
C24F C 0.39509(18) 1.29020(14) 0.64188(8)
C3F C 0.12651(18) 1.04539(13) 0.84284(6)
C21F C 0.16349(17) 1.04552(13) 0.80671(6)
O7F O 0.06495(11) 1.02038(10) 0.84318(4)
O8F O 0.15938(11) 1.06998(9) 0.86915(4)
C4F C 0.3081(2) 0.91649(14) 0.59042(7)
H3F H 0.3097 0.9606 0.5782
C6F C 0.30577(16) 0.85511(13) 0.57033(6)
C8F C 0.30822(18) 0.91429(14) 0.62877(7)
C5F C 0.45234(18) 1.15789(13) 0.63103(7)
H4F H 0.4721 1.1127 0.6270
C17F C 0.38897(18) 1.16307(13) 0.64631(7)
H5F H 0.3061 0.8568 0.5443
C15F C 0.30271(17) 0.78838(13) 0.62578(7)
C18F C 0.30403(19) 0.85035(14) 0.64577(7)
C27F C 0.3100(2) 0.97993(14) 0.65014(8)
C9F C 0.35029(19) 1.09996(14) 0.65953(7)
C14F C 0.3483(2) 1.03936(14) 0.63910(7)
C16F C 0.3115(2) 1.10195(15) 0.69249(8)
O5F_2 O 0.46902(9) 1.40594(8) 0.62133(4)
O6F_2 O 0.56232(9) 1.34241(8) 0.60375(4)
C11F C 0.2363(2) 1.04590(14) 0.74009(7)
C12F C 0.2624(2) 1.08168(15) 0.76936(7)
C23F C 0.27194(19) 1.04418(14) 0.70411(7)
C25F C 0.16906(19) 1.01322(15) 0.74304(7)
H6F H 0.3045 1.1081 0.7668
C19F C 0.22840(18) 1.08002(15) 0.80294(7)
H7F H 0.5359 1.2126 0.6107
H8F H 0.3736 1.0376 0.6167
H9F H 0.3016 0.7444 0.6381
H10F H 0.3124 1.1434 0.7070
C26F C 0.3582(2) 1.22993(15) 0.65163(9)
H11F H 0.3020 0.8484 0.6717
H12F H 0.2492 1.1024 0.8235
C20F C 0.13424(19) 1.01192(14) 0.77670(6)
H13F H 0.0906 0.9880 0.7790
C22F C 0.27196(19) 0.98349(14) 0.68255(7)
H14F H 0.2454 0.9438 0.6902
H15F H 0.3754 1.3354 0.6462
H16F H 0.1479 0.9923 0.7221
H17F H 0.3123 1.2337 0.6618
Al3F_3 Al 0.5000 1.5000 0.61858(2)
Al2G_2 Al 0.62909(4) 1.40801(3) 0.58226(2)
Al3A_2 Al -0.0000 1.0000 0.88142(2)
Al2A Al 0.12909(4) 1.09199(3) 0.91774(2)
C28F C 0.26363(17) 0.54063(19) 0.53569(8)
O10F O 0.27147(8) 0.59122(11) 0.51207(5)
C29F C 0.1903(5) 0.5126(6) 0.5220(2)
C30F C 0.1524(4) 0.5312(4) 0.4911(2)
C34F C 0.1685(5) 0.4586(5) 0.5439(3)
H18F H 0.1690 0.5673 0.4752
C31F C 0.0888(4) 0.4957(5) 0.4835(2)
C32F C 0.0653(4) 0.4438(4) 0.5065(2)
N2F N 0.0530(3) 0.5190(3) 0.44953(18)
H19F H 0.0215 0.4217 0.5014
C33F C 0.1033(5) 0.4226(5) 0.5367(3)
N1F N 0.0768(4) 0.3794(4) 0.5619(2)
H20F H 0.1967 0.4447 0.5641
H21F H 0.0336 0.3634 0.5596
H22F H 0.1024 0.3669 0.5808
loop_
_geom_bond_atom_site_label_1
_geom_bond_atom_site_label_2
_geom_bond_site_symmetry_1
_geom_bond_site_symmetry_2
Al1 O1 1_555 1_555
Al2 O1 1_555 1_555
Al3 O2 1_555 1_555
O1 H1 1_555 1_555
O2 Al2 1_555 1_555
H2 O2 1_555 1_555
O3 Al2 1_555 1_555
C1 O3 1_555 1_555
C2 C10 1_555 1_555
O4 Al1 1_555 1_555
C3 C21 1_555 1_555
C4 H3 1_555 1_555
C5 H4 1_555 1_555
C6 C4 1_555 1_555
H5 C6 1_555 1_555
C7 C1 1_555 1_555
C8 C4 1_555 1_555
C9 C14 1_555 1_555
C10 O5 1_555 1_555
C11 C12 1_555 1_555
C12 H6 1_555 1_555
C13 C2 1_555 1_555
H7 C13 1_555 1_555
C14 H8 1_555 1_555
C15 C7 1_555 1_555
H9 C15 1_555 1_555
C16 C9 1_555 1_555
H10 C16 1_555 1_555
C17 C5 1_555 1_555
C18 C8 1_555 1_555
H11 C18 1_555 1_555
C19 C12 1_555 1_555
H12 C19 1_555 1_555
C20 H13 1_555 1_555
C21 C19 1_555 1_555
C22 H14 1_555 1_555
C23 C11 1_555 1_555
C24 C2 1_555 1_555
H15 C24 1_555 1_555
C25 C11 1_555 1_555
H16 C25 1_555 1_555
C26 C17 1_555 1_555
H17 C26 1_555 1_555
C27 C8 1_555 1_555
O5 Al3_3 1_555 1_555
O6 C10 1_555 1_555
O7 C3 1_555 1_555
O8 C3 1_555 1_555
O9 Al2 1_555 1_555
O10 Al1 1_555 1_555
C28 O9 1_555 1_555
C29 C28 1_555 1_555
C30 C29 1_555 1_555
H18 C30 1_555 1_555
C31 C30 1_555 1_555
C32 C31 1_555 1_555
H19 C32 1_555 1_555
C33 C32 1_555 1_555
C34 C29 1_555 1_555
H20 C34 1_555 1_555
N1 C33 1_555 1_555
H21 N1 1_555 1_555
H22 N1 1_555 1_555
N2 C31 1_555 1_555
Al2B O1B 1_555 1_555
O1B H1B 1_555 1_555
O2B Al3 1_555 1_555
H2B O2B 1_555 1_555
O3B Al2B 1_555 1_555
C1B O3B 1_555 1_555
C2B C10B 1_555 1_555
O4B C1B 1_555 1_555
C3B C21B 1_555 1_555
C4B H3B 1_555 1_555
C5B H4B 1_555 1_555
C6B C4B 1_555 1_555
H5B C6B 1_555 1_555
C7B C1B 1_555 1_555
C8B C4B 1_555 1_555
C9B C14B 1_555 1_555
C10B O5B 1_555 1_555
C11B C12B 1_555 1_555
C12B H6B 1_555 1_555
C13B C2B 1_555 1_555
H7B C13B 1_555 1_555
C14B H8B 1_555 1_555
C15B C7B 1_555 1_555
H9B C15B 1_555 1_555
C16B C9B 1_555 1_555
H10B C16B 1_555 1_555
C17B C5B 1_555 1_555
C18B C8B 1_555 1_555
H11B C18B 1_555 1_555
C19B C12B 1_555 1_555
H12B C19B 1_555 1_555
C20B H13B 1_555 1_555
C21B C19B 1_555 1_555
C22B H14B 1_555 1_555
C23B C11B 1_555 1_555
C24B C2B 1_555 1_555
H15B C24B 1_555 1_555
C25B C11B 1_555 1_555
H16B C25B 1_555 1_555
C26B C17B 1_555 1_555
H17B C26B 1_555 1_555
C27B C8B 1_555 1_555
O5B Al3_2 1_555 1_555
O6B C10B 1_555 1_555
O7B C3B 1_555 1_555
O8B C3B 1_555 1_555
O9B Al2B 1_555 1_555
O10B C28B 1_555 1_555
C28B O9B 1_555 1_555
C29B C28B 1_555 1_555
C30B C29B 1_555 1_555
H18B C30B 1_555 1_555
C31B C30B 1_555 1_555
C32B C31B 1_555 1_555
H19B C32B 1_555 1_555
C33B C32B 1_555 1_555
C34B C29B 1_555 1_555
H20B C34B 1_555 1_555
N1B C33B 1_555 1_555
H21B N1B 1_555 1_555
H22B N1B 1_555 1_555
N2B C31B 1_555 1_555
Al1B O1B 1_555 1_555
Al2_2 O6B 1_555 1_555
Al2B_2 O6 1_555 1_555
Al2D O8 1_555 1_555
Al2E O8B 1_555 1_555
Al3D O7B 1_555 1_555
Al3D_2 O7 1_555 1_555
O1G Al1 1_555 1_555
O4G Al1 1_555 1_555
O5_2 Al3 1_555 1_555
O5B_2 Al3 1_555 1_555
O6_2 Al2B 1_555 1_555
O6B_2 Al2 1_555 1_555
O7D Al3 1_555 1_555
O7E Al3 1_555 1_555
O8D Al2 1_555 1_555
O8E Al2B 1_555 1_555
O10G Al1 1_555 1_555
Al2G O1G 1_555 1_555
O2G Al2G 1_555 1_555
O3G Al2G 1_555 1_555
O9G Al2G 1_555 1_555
O6F Al2G 1_555 1_555
O8C Al2G 1_555 1_555
Al3F O2G 1_555 1_555
O2F Al3F 1_555 1_555
O5G Al3F 1_555 1_555
O5F Al3F 1_555 1_555
O7C Al3F 1_555 1_555
O7A Al3F 1_555 1_555
H1G O1G 1_555 1_555
H2G O2G 1_555 1_555
C1G O4G 1_555 1_555
C7G C1G 1_555 1_555
C2G C10G 1_555 1_555
C10G O5G_2 1_555 1_555
C13G C2G 1_555 1_555
C24G C2G 1_555 1_555
C3G C21G 1_555 1_555
C21G C19G 1_555 1_555
O7G C3G 1_555 1_555
O8G C3G 1_555 1_555
C4G H3G 1_555 1_555
C6G C7G 1_555 1_555
C8G C4G 1_555 1_555
C5G C13G 1_555 1_555
H4G C5G 1_555 1_555
C17G C5G 1_555 1_555
H5G C6G 1_555 1_555
C15G C7G 1_555 1_555
C18G C8G 1_555 1_555
C27G C8G 1_555 1_555
C9G C17G 1_555 1_555
C14G C27G 1_555 1_555
C16G C9G 1_555 1_555
O5G_2 Al3F_2 1_555 1_555
O6G C10G 1_555 1_555
C11G C12G 1_555 1_555
C12G H6G 1_555 1_555
C23G C16G 1_555 1_555
C25G C11G 1_555 1_555
C19G C12G 1_555 1_555
H7G C13G 1_555 1_555
H8G C14G 1_555 1_555
H9G C15G 1_555 1_555
H10G C16G 1_555 1_555
C26G C24G 1_555 1_555
H11G C18G 1_555 1_555
H12G C19G 1_555 1_555
C20G C21G 1_555 1_555
H13G C20G 1_555 1_555
C22G C27G 1_555 1_555
H14G C22G 1_555 1_555
H15G C24G 1_555 1_555
H16G C25G 1_555 1_555
H17G C26G 1_555 1_555
Al2F O6G 1_555 1_555
Al3A O7G 1_555 1_555
Al2C O8G 1_555 1_555
C28G O10G 1_555 1_555
C29G C28G 1_555 1_555
C30G C29G 1_555 1_555
C34G C29G 1_555 1_555
H18G C30G 1_555 1_555
C31G C30G 1_555 1_555
C32G C31G 1_555 1_555
N2G C31G 1_555 1_555
H19G C32G 1_555 1_555
C33G C34G 1_555 1_555
N1G C33G 1_555 1_555
H20G C34G 1_555 1_555
H21G N1G 1_555 1_555
H22G N1G 1_555 1_555
Al2F_2 O2F 1_555 1_555
O1F Al1B 1_555 1_555
O3F Al2F_2 1_555 1_555
O9F Al2F_2 1_555 1_555
O6G_2 Al2F_2 1_555 1_555
O8A Al2F_2 1_555 1_555
H1F O1F 1_555 1_555
H2F O2F 1_555 1_555
C1F O3F 1_555 1_555
O4F Al1B 1_555 1_555
C7F C1F 1_555 1_555
C2F C10F 1_555 1_555
C10F O5F_2 1_555 1_555
C13F C2F 1_555 1_555
C24F C2F 1_555 1_555
C3F C21F 1_555 1_555
C21F C19F 1_555 1_555
O7F C3F 1_555 1_555
O8F C3F 1_555 1_555
C4F H3F 1_555 1_555
C6F C7F 1_555 1_555
C8F C4F 1_555 1_555
C5F C13F 1_555 1_555
H4F C5F 1_555 1_555
C17F C5F 1_555 1_555
H5F C6F 1_555 1_555
C15F C7F 1_555 1_555
C18F C8F 1_555 1_555
C27F C8F 1_555 1_555
C9F C17F 1_555 1_555
C14F C27F 1_555 1_555
C16F C9F 1_555 1_555
O5F_2 Al3F_3 1_555 1_555
O6F_2 C10F 1_555 1_555
C11F C12F 1_555 1_555
C12F H6F 1_555 1_555
C23F C16F 1_555 1_555
C25F C11F 1_555 1_555
C19F C12F 1_555 1_555
H7F C13F 1_555 1_555
H8F C14F 1_555 1_555
H9F C15F 1_555 1_555
H10F C16F 1_555 1_555
C26F C24F 1_555 1_555
H11F C18F 1_555 1_555
H12F C19F 1_555 1_555
C20F C21F 1_555 1_555
H13F C20F 1_555 1_555
C22F C27F 1_555 1_555
H14F C22F 1_555 1_555
H15F C24F 1_555 1_555
H16F C25F 1_555 1_555
H17F C26F 1_555 1_555
Al2G_2 O6F_2 1_555 1_555
Al3A_2 O7F 1_555 1_555
Al2A O8F 1_555 1_555
C28F O9F 1_555 1_555
O10F Al1B 1_555 1_555
C29F C28F 1_555 1_555
C30F C29F 1_555 1_555
C34F C29F 1_555 1_555
H18F C30F 1_555 1_555
C31F C30F 1_555 1_555
C32F C31F 1_555 1_555
N2F C31F 1_555 1_555
H19F C32F 1_555 1_555
C33F C34F 1_555 1_555
N1F C33F 1_555 1_555
H20F C34F 1_555 1_555
H21F N1F 1_555 1_555
H22F N1F 1_555 1_555
C1 O4 1_555 1_555
C5 C13 1_555 1_555
C6 C7 1_555 1_555
C9 C17 1_555 1_555
C14 C27 1_555 1_555
C15 C18 1_555 1_555
C16 C23 1_555 1_555
C20 C21 1_555 1_555
C20 C25 1_555 1_555
C22 C23 1_555 1_555
C22 C27 1_555 1_555
C24 C26 1_555 1_555
O10 C28 1_555 1_555
C33 C34 1_555 1_555
Al2B O2B 1_555 1_555
O4B Al1B 1_555 1_555
C5B C13B 1_555 1_555
C6B C7B 1_555 1_555
C9B C17B 1_555 1_555
C14B C27B 1_555 1_555
C15B C18B 1_555 1_555
C16B C23B 1_555 1_555
C20B C21B 1_555 1_555
C20B C25B 1_555 1_555
C22B C23B 1_555 1_555
C22B C27B 1_555 1_555
C24B C26B 1_555 1_555
O10B Al1B 1_555 1_555
C33B C34B 1_555 1_555
O3G C1G 1_555 1_555
O9G C28G 1_555 1_555
C4G C6G 1_555 1_555
C17G C26G 1_555 1_555
C15G C18G 1_555 1_555
C9G C14G 1_555 1_555
C11G C23G 1_555 1_555
C23G C22G 1_555 1_555
C25G C20G 1_555 1_555
C32G C33G 1_555 1_555
Al2F_2 O1F 1_555 1_555
C1F O4F 1_555 1_555
C4F C6F 1_555 1_555
C17F C26F 1_555 1_555
C15F C18F 1_555 1_555
C9F C14F 1_555 1_555
C11F C23F 1_555 1_555
C23F C22F 1_555 1_555
C25F C20F 1_555 1_555
C28F O10F 1_555 1_555
C32F C33F 1_555 1_555

#END
