
#######################################################################
#
#                 Cambridge Crystallographic Data Centre
#                                CCDC 
#
#######################################################################
#
# If this CIF has been generated from an entry in the Cambridge 
# Structural Database, then it will include bibliographic, chemical, 
# crystal, experimental, refinement or atomic coordinate data resulting 
# from the CCDC's data processing and validation procedures.
#
#######################################################################

data_DONXOV
_chemical_formula_moiety         '(C18 H18 N8 O9 S3 Zn2)n'
_symmetry_cell_setting           monoclinic
_symmetry_space_group_name_H-M   'P 21/n'
_symmetry_Int_Tables_number      14
_space_group_name_Hall           '-P 2yn'
loop_
_symmetry_equiv_pos_site_id
_symmetry_equiv_pos_as_xyz
1 x,y,z
2 1/2-x,1/2+y,1/2-z
3 -x,-y,-z
4 1/2+x,1/2-y,1/2+z
_cell_length_a                   11.318(3)
_cell_length_b                   9.601(3)
_cell_length_c                   13.965(4)
_cell_angle_alpha                90
_cell_angle_beta                 92.063(14)
_cell_angle_gamma                90
_cell_volume                     1516.51
loop_
_atom_site_label
_atom_site_type_symbol
_atom_site_fract_x
_atom_site_fract_y
_atom_site_fract_z
Zn1 Zn 0.25444(4) 0.26543(5) 0.34577(4)
S1 S 0.21130(9) 0.58173(11) 0.32689(7)
O1 O 0.2621(4) 0.4525(6) 0.2819(3)
O2 O 0.2357(4) 0.5835(6) 0.4269(3)
O3 O 0.0876(2) 0.5805(4) 0.3005(2)
O4 O 0.2774(5) 0.7001(8) 0.2794(3)
N1 N 0.1374(3) 0.2218(4) 0.4451(3)
N2 N 0.0410(3) 0.2556(4) 0.5788(3)
H1 H 0.0159 0.2976 0.6303
N3 N 0.4123(3) 0.2305(4) 0.4058(3)
N4 N 0.5756(3) 0.2693(4) 0.4913(3)
H2 H 0.6363 0.3144 0.5174
C1 C 0.3928(4) -0.0261(5) 0.4417(3)
H3 H 0.3234 -0.0436 0.4032
C2 C 0.4455(4) 0.1052(5) 0.4480(3)
C3 C 0.5509(4) 0.1286(5) 0.5043(3)
C4 C 0.4928(4) 0.3243(6) 0.4335(3)
H4 H 0.4912 0.4192 0.4141
C5 C 0.0725(3) 0.1004(5) 0.4631(3)
C6 C 0.0100(3) 0.1217(5) 0.5488(3)
C7 C 0.1150(4) 0.3096(5) 0.5164(3)
H5 H 0.1481 0.4003 0.5221
C8 C -0.0632(3) 0.0239(5) 0.5883(3)
H6 H -0.1038 0.0399 0.6456
N1B N -0.1374(3) -0.2218(4) 0.5549(3)
N2B N -0.0410(3) -0.2556(4) 0.4212(3)
H1B H -0.0159 -0.2976 0.3697
C5B C -0.0725(3) -0.1004(5) 0.5369(3)
C6B C -0.0100(3) -0.1217(5) 0.4512(3)
C7B C -0.1150(4) -0.3096(5) 0.4836(3)
H5B H -0.1481 -0.4003 0.4779
C8B C 0.0632(3) -0.0239(5) 0.4117(3)
H6B H 0.1038 -0.0399 0.3544
N3B N 0.5877(3) -0.2305(4) 0.5942(3)
N4B N 0.4244(3) -0.2693(4) 0.5087(3)
H2B H 0.3637 -0.3144 0.4826
C1B C 0.6072(4) 0.0261(5) 0.5583(3)
H3B H 0.6766 0.0436 0.5968
C2B C 0.5545(4) -0.1052(5) 0.5520(3)
C3B C 0.4491(4) -0.1286(5) 0.4957(3)
C4B C 0.5072(4) -0.3243(6) 0.5665(3)
H4B H 0.5088 -0.4192 0.5859
Zn1B Zn -0.25444(4) -0.26543(5) 0.65423(4)
S1B S -0.21130(9) -0.58173(11) 0.67311(7)
O1B O -0.2621(4) -0.4525(6) 0.7181(3)
O2B O -0.2357(4) -0.5835(6) 0.5731(3)
O3B O -0.0876(2) -0.5805(4) 0.6995(2)
O4B O -0.2774(5) -0.7001(8) 0.7206(3)
Zn1A Zn 0.24556(4) 0.76543(5) 0.15423(4)
Zn1B_2 Zn 0.74556(4) -0.26543(5) 0.65423(4)
Zn1C Zn -0.24556(4) -0.76543(5) 0.84577(4)
O4A O 0.2226(5) 0.2001(8) 0.2206(3)
O4C O -0.2226(5) -0.2001(8) 0.7794(3)
N3B_2 N -0.4123(3) -0.2305(4) 0.5942(3)
S2 S 0.23464(11) 0.11910(15) 0.78348(8)
C9 C 0.3586(5) 0.1978(6) 0.8434(4)
H7 H 0.3399 0.2172 0.9100
H8 H 0.3780 0.2851 0.8112
H9 H 0.4265 0.1345 0.8420
C10 C 0.3039(5) 0.0924(8) 0.6717(4)
H10 H 0.3720 0.0304 0.6814
H11 H 0.3304 0.1821 0.6468
H12 H 0.2471 0.0502 0.6257
O8 O 0.2192(4) -0.0215(4) 0.8288(3)
loop_
_geom_bond_atom_site_label_1
_geom_bond_atom_site_label_2
_geom_bond_site_symmetry_1
_geom_bond_site_symmetry_2
Zn1 O1 1_555 1_555
S1 O1 1_555 1_555
O2 S1 1_555 1_555
O3 S1 1_555 1_555
O4 S1 1_555 1_555
N1 Zn1 1_555 1_555
N2 H1 1_555 1_555
N3 Zn1 1_555 1_555
N4 H2 1_555 1_555
C1 H3 1_555 1_555
C2 N3 1_555 1_555
C3 N4 1_555 1_555
C4 N3 1_555 1_555
H4 C4 1_555 1_555
C5 N1 1_555 1_555
C6 N2 1_555 1_555
C7 N1 1_555 1_555
H5 C7 1_555 1_555
C8 C6 1_555 1_555
H6 C8 1_555 1_555
S2 C9 1_555 1_555
C9 H7 1_555 1_555
H8 C9 1_555 1_555
H9 C9 1_555 1_555
C10 S2 1_555 1_555
H10 C10 1_555 1_555
H11 C10 1_555 1_555
H12 C10 1_555 1_555
O8 S2 1_555 1_555
N1B C5B 1_555 1_555
N2B H1B 1_555 1_555
C5B C8 1_555 1_555
C6B N2B 1_555 1_555
C7B N1B 1_555 1_555
H5B C7B 1_555 1_555
C8B C5 1_555 1_555
H6B C8B 1_555 1_555
N3B C2B 1_555 1_555
N4B H2B 1_555 1_555
C1B C3 1_555 1_555
H3B C1B 1_555 1_555
C2B C1B 1_555 1_555
C3B C1 1_555 1_555
C4B N3B 1_555 1_555
H4B C4B 1_555 1_555
Zn1B N1B 1_555 1_555
S1B O1B 1_555 1_555
O1B Zn1B 1_555 1_555
O2B S1B 1_555 1_555
O3B S1B 1_555 1_555
O4B S1B 1_555 1_555
Zn1A O4 1_555 1_555
Zn1B_2 N3B 1_555 1_555
Zn1C O4B 1_555 1_555
O4A Zn1 1_555 1_555
O4C Zn1B 1_555 1_555
N3B_2 Zn1B 1_555 1_555
N2 C7 1_555 1_555
N4 C4 1_555 1_555
C1 C2 1_555 1_555
C2 C3 1_555 1_555
C5 C6 1_555 1_555
N2B C7B 1_555 1_555
C5B C6B 1_555 1_555
C6B C8B 1_555 1_555
N4B C3B 1_555 1_555
N4B C4B 1_555 1_555
C2B C3B 1_555 1_555

#END
