
#######################################################################
#
#                 Cambridge Crystallographic Data Centre
#                                CCDC 
#
#######################################################################
#
# If this CIF has been generated from an entry in the Cambridge 
# Structural Database, then it will include bibliographic, chemical, 
# crystal, experimental, refinement or atomic coordinate data resulting 
# from the CCDC's data processing and validation procedures.
#
#######################################################################

data_EBIJAC
_chemical_formula_moiety         '(C89 H78 Cd4 N7 O23)n'
_symmetry_cell_setting           orthorhombic
_symmetry_space_group_name_H-M   'P c c a'
_symmetry_Int_Tables_number      54
_space_group_name_Hall           '-P 2a 2ac'
loop_
_symmetry_equiv_pos_site_id
_symmetry_equiv_pos_as_xyz
1 x,y,z
2 1/2-x,-y,z
3 1/2+x,-y,1/2-z
4 -x,y,1/2-z
5 -x,-y,-z
6 1/2+x,y,-z
7 1/2-x,y,1/2+z
8 x,-y,1/2+z
_cell_length_a                   32.782(2)
_cell_length_b                   16.6144(13)
_cell_length_c                   17.8662(13)
_cell_angle_alpha                90
_cell_angle_beta                 90
_cell_angle_gamma                90
_cell_volume                     9730.88
loop_
_atom_site_label
_atom_site_type_symbol
_atom_site_fract_x
_atom_site_fract_y
_atom_site_fract_z
C1 C 0.78264(18) 0.1452(4) 0.2045(3)
H1 H 0.7597 0.1170 0.2203
C2 C 0.78231(18) 0.1837(4) 0.1367(3)
H2 H 0.7592 0.1811 0.1067
C3 C 0.81635(17) 0.2267(4) 0.1123(3)
C4 C 0.85080(17) 0.2306(4) 0.1586(3)
H3 H 0.8735 0.2602 0.1436
C5 C 0.85120(17) 0.1911(3) 0.2257(3)
H4 H 0.8745 0.1928 0.2555
C6 C 0.81536(19) 0.0963(4) 0.3210(3)
H5 H 0.8273 0.0441 0.3105
H6 H 0.7871 0.0879 0.3349
C7 C 0.83731(19) 0.1338(4) 0.3846(4)
C8 C 0.87547(19) 0.1052(4) 0.4030(3)
C9 C 0.89395(19) 0.1329(4) 0.4671(3)
C10 C 0.8742(2) 0.1902(4) 0.5158(3)
C11 C 0.83585(19) 0.2191(4) 0.4905(4)
C12 C 0.8182(2) 0.1910(4) 0.4282(4)
C13 C 0.77566(18) 0.2258(3) 0.4011(3)
H7 H 0.7542 0.2033 0.4310
H8 H 0.7757 0.2833 0.4063
H9 H 0.7714 0.2119 0.3495
C14 C 0.89637(18) 0.0425(4) 0.3563(3)
H10 H 0.8890 0.0497 0.3047
H11 H 0.9254 0.0478 0.3617
H12 H 0.8881 -0.0101 0.3726
C15 C 0.89365(19) 0.2237(4) 0.5862(3)
H13 H 0.8916 0.2814 0.5859
H14 H 0.8798 0.2027 0.6293
H15 H 0.9219 0.2084 0.5878
C16 C 0.81275(19) 0.2775(3) 0.5419(4)
H16 H 0.8143 0.2576 0.5929
H17 H 0.7842 0.2780 0.5275
C17 C 0.8244(2) 0.4029(4) 0.6050(4)
H18 H 0.8140 0.3803 0.6487
C18 C 0.8369(2) 0.4842(4) 0.6027(4)
H19 H 0.8332 0.5158 0.6451
C19 C 0.8540(2) 0.5178(4) 0.5419(3)
C20 C 0.8595(2) 0.4755(4) 0.4840(4)
H20 H 0.8744 0.4975 0.4447
C21 C 0.8441(2) 0.3957(4) 0.4758(4)
H21 H 0.8447 0.3695 0.4298
C22 C 0.93277(18) 0.0935(4) 0.5022(4)
H22 H 0.9373 0.0411 0.4798
H23 H 0.9285 0.0858 0.5555
C23 C 0.9729(2) 0.2014(4) 0.4333(4)
H24 H 0.9505 0.2104 0.4025
C24 C 1.00744(18) 0.2428(4) 0.4217(3)
H25 H 1.0082 0.2814 0.3840
C25 C 1.04319(17) 0.2289(4) 0.4660(3)
C26 C 1.03900(18) 0.1715(4) 0.5231(3)
H26 H 1.0610 0.1602 0.5543
C27 C 1.00149(19) 0.1305(4) 0.5335(3)
H27 H 0.9990 0.0924 0.5714
C28 C 0.83379(17) 0.8818(4) 0.4265(4)
C29 C 0.83490(17) 0.9336(4) 0.4950(3)
C30 C 0.80431(19) 0.9883(4) 0.5077(4)
H28 H 0.7824 0.9906 0.4746
C31 C 0.80504(17) 1.0396(4) 0.5677(3)
H29 H 0.7845 1.0775 0.5742
C32 C 0.8363(2) 1.0343(4) 0.6178(4)
C33 C 0.86734(18) 0.9790(4) 0.6095(3)
H30 H 0.8882 0.9750 0.6445
C34 C 0.86620(19) 0.9278(3) 0.5450(3)
H31 H 0.8869 0.8905 0.5371
C35 C 0.83908(17) 1.0917(4) 0.6827(3)
C36 C 0.9222(2) 0.6936(4) 0.3216(4)
C37 C 0.96126(19) 0.6832(4) 0.2791(4)
C38 C 0.99420(19) 0.6771(4) 0.3278(4)
H32 H 0.9899 0.6694 0.3787
C39 C 0.96639(19) 0.6828(4) 0.2003(4)
H33 H 0.9441 0.6862 0.1683
C40 C 0.79748(16) 0.6472(3) 0.3406(3)
C41 C 0.76128(19) 0.5347(4) 0.4059(3)
H34 H 0.7690 0.5575 0.4514
C42 C 0.77287(17) 0.5717(4) 0.3403(3)
C43 C 0.76080(17) 0.5344(3) 0.2738(3)
H35 H 0.7679 0.5578 0.2283
Cd1 Cd 0.837438(13) 0.79506(2) 0.29701(2)
Cd2 Cd 0.869353(13) 0.70278(3) 0.47252(2)
N1 N 0.81707(14) 0.1481(3) 0.2501(3)
N2 N 0.82795(16) 0.3581(3) 0.5401(3)
N3 N 0.97028(14) 0.1462(3) 0.4898(3)
O1 O 0.81896(12) 0.2567(3) 0.0462(2)
O2 O 0.87018(13) 0.5902(3) 0.5435(2)
O3 O 1.07636(12) 0.2628(3) 0.4565(2)
O4 O 0.86362(11) 0.8329(2) 0.4185(2)
O5 O 0.80696(13) 0.8893(2) 0.3804(2)
O6 O 0.86740(13) 1.0861(3) 0.7321(2)
O7 O 0.81182(12) 1.1466(3) 0.6910(2)
O8 O 0.91382(13) 0.6733(3) 0.3851(3)
O9 O 0.89283(13) 0.7239(3) 0.2744(2)
O10 O 0.81647(12) 0.6657(3) 0.3958(2)
O11 O 0.79813(13) 0.6862(2) 0.2798(2)
C1D C 1.21736(18) 0.8548(4) 0.7955(3)
H1D H 1.2403 0.8830 0.7797
C2D C 1.21769(18) 0.8163(4) 0.8633(3)
H2D H 1.2408 0.8189 0.8933
C3D C 1.18365(17) 0.7733(4) 0.8877(3)
C4D C 1.14920(17) 0.7694(4) 0.8414(3)
H3D H 1.1265 0.7398 0.8564
C5D C 1.14880(17) 0.8089(3) 0.7743(3)
H4D H 1.1255 0.8072 0.7445
C6D C 1.18464(19) 0.9037(4) 0.6790(3)
H5D H 1.1727 0.9559 0.6895
H6D H 1.2129 0.9121 0.6651
C7D C 1.16269(19) 0.8662(4) 0.6154(4)
C8D C 1.12453(19) 0.8948(4) 0.5970(3)
C9D C 1.10605(19) 0.8671(4) 0.5329(3)
C10D C 1.1258(2) 0.8098(4) 0.4842(3)
C11D C 1.16415(19) 0.7809(4) 0.5095(4)
C12D C 1.1818(2) 0.8090(4) 0.5718(4)
C13D C 1.22434(18) 0.7742(3) 0.5989(3)
H7D H 1.2458 0.7967 0.5690
H8D H 1.2243 0.7167 0.5937
H9D H 1.2286 0.7881 0.6505
C14D C 1.10363(18) 0.9575(4) 0.6437(3)
H10D H 1.1110 0.9503 0.6953
H11D H 1.0746 0.9522 0.6383
H12D H 1.1119 1.0101 0.6274
C15D C 1.10635(19) 0.7763(4) 0.4138(3)
H13D H 1.1084 0.7186 0.4141
H14D H 1.1202 0.7973 0.3707
H15D H 1.0781 0.7916 0.4122
C16D C 1.18725(19) 0.7225(3) 0.4581(4)
H16D H 1.1857 0.7424 0.4071
H17D H 1.2158 0.7220 0.4725
C17D C 1.1756(2) 0.5971(4) 0.3950(4)
H18D H 1.1860 0.6197 0.3513
C18D C 1.1631(2) 0.5158(4) 0.3973(4)
H19D H 1.1668 0.4842 0.3549
C19D C 1.1460(2) 0.4822(4) 0.4581(3)
C20D C 1.1405(2) 0.5245(4) 0.5160(4)
H20D H 1.1256 0.5025 0.5553
C21D C 1.1559(2) 0.6043(4) 0.5242(4)
H21D H 1.1553 0.6305 0.5702
C22D C 1.06723(18) 0.9065(4) 0.4978(4)
H22D H 1.0627 0.9589 0.5202
H23D H 1.0715 0.9142 0.4445
C23D C 1.0271(2) 0.7986(4) 0.5667(4)
H24D H 1.0495 0.7896 0.5975
C24D C 0.99256(18) 0.7572(4) 0.5783(3)
H25D H 0.9918 0.7186 0.6160
C25D C 0.95681(17) 0.7711(4) 0.5340(3)
C26D C 0.96100(18) 0.8285(4) 0.4769(3)
H26D H 0.9390 0.8398 0.4457
C27D C 0.99851(19) 0.8695(4) 0.4665(3)
H27D H 1.0010 0.9076 0.4286
C28G C 0.83379(17) 1.1182(4) -0.0735(4)
C29G C 0.83490(17) 1.0664(4) -0.0050(3)
C30G C 0.80431(19) 1.0117(4) 0.0077(4)
H28G H 0.7824 1.0094 -0.0254
C31G C 0.80504(17) 0.9604(4) 0.0677(3)
H29G H 0.7845 0.9225 0.0742
C32G C 0.8363(2) 0.9657(4) 0.1178(4)
C33G C 0.86734(18) 1.0210(4) 0.1095(3)
H30G H 0.8882 1.0250 0.1445
C34G C 0.86620(19) 1.0722(3) 0.0450(3)
H31G H 0.8869 1.1095 0.0371
C35G C 0.83908(17) 0.9083(4) 0.1827(3)
C36C C 1.0778(2) 0.6936(4) 0.1784(4)
C37C C 1.03874(19) 0.6832(4) 0.2209(4)
C38C C 1.00580(19) 0.6771(4) 0.1722(4)
H32C H 1.0101 0.6694 0.1213
C39C C 1.03361(19) 0.6828(4) 0.2997(4)
H33C H 1.0559 0.6862 0.3317
C40A C 0.70252(16) 0.3528(3) 0.3406(3)
C41A C 0.73872(19) 0.4653(4) 0.4059(3)
H34A H 0.7310 0.4425 0.4514
C42A C 0.72713(17) 0.4283(4) 0.3403(3)
C43A C 0.73920(17) 0.4656(3) 0.2738(3)
H35A H 0.7321 0.4422 0.2283
Cd1G Cd 0.837438(13) 1.20494(2) -0.20299(2)
Cd1G_2 Cd 0.837438(13) 1.20494(2) 0.79701(2)
Cd1C Cd 1.162562(13) 0.79506(2) 0.20299(2)
Cd1A Cd 0.662562(13) 0.20494(2) 0.29701(2)
Cd2G Cd 0.869353(13) 1.29722(3) -0.02748(2)
Cd2G_2 Cd 0.869353(13) 0.29722(3) -0.02748(2)
Cd2D Cd 1.130647(13) 0.29722(3) 0.52748(2)
Cd2C Cd 1.130647(13) 0.70278(3) 0.02748(2)
Cd2A Cd 0.630647(13) 0.29722(3) 0.47252(2)
Cd2C_2 Cd 1.130647(13) 0.70278(3) 1.02748(2)
N1D N 1.18293(14) 0.8519(3) 0.7499(3)
N2D N 1.17205(16) 0.6419(3) 0.4599(3)
N3D N 1.02972(14) 0.8538(3) 0.5102(3)
O1D O 1.18104(12) 0.7433(3) 0.9538(2)
O1G O 0.81896(12) 0.7433(3) 0.5462(2)
O1_2 O 0.81896(12) 1.2567(3) 0.0462(2)
O2D O 1.12982(13) 0.4098(3) 0.4565(2)
O2G O 0.87018(13) 1.4098(3) 0.0435(2)
O3D O 0.92364(12) 0.7372(3) 0.5435(2)
O3C O 0.92364(12) 1.2628(3) 0.0435(2)
O4G O 0.86362(11) 1.1671(2) -0.0815(2)
O5G O 0.80696(13) 1.1107(2) -0.1196(2)
O6G O 0.86740(13) 0.9139(3) 0.2321(2)
O6_2 O 0.86740(13) 1.0861(3) -0.2679(2)
O7G O 0.81182(12) 0.8534(3) 0.1910(2)
O7_2 O 0.81182(12) 1.1466(3) -0.3090(2)
O8C O 1.08618(13) 0.6733(3) 0.1149(3)
O8G O 0.91382(13) 1.3267(3) -0.1149(3)
O9C O 1.10717(13) 0.7239(3) 0.2256(2)
O9G O 0.89283(13) 1.2761(3) -0.2256(2)
O10A O 0.68353(12) 0.3343(3) 0.3958(2)
O10G O 0.81647(12) 1.3343(3) -0.1042(2)
O11A O 0.70187(13) 0.3138(2) 0.2798(2)
O11G O 0.79813(13) 1.3138(2) -0.2202(2)
C44 C 0.6373(2) 0.4528(5) 0.7812(4)
H36 H 0.6582 0.4177 0.7625
H37 H 0.6434 0.4675 0.8319
H38 H 0.6360 0.5004 0.7508
C45 C 0.5637(2) 0.4343(4) 0.7284(4)
H39 H 0.5634 0.3995 0.6855
H40 H 0.5673 0.4890 0.7124
H41 H 0.5383 0.4294 0.7548
C46 C 0.5904(2) 0.3387(4) 0.8210(3)
H42 H 0.6029 0.3291 0.8669
N4 N 0.59782(17) 0.4110(4) 0.7787(3)
O12 O 0.56659(14) 0.2905(3) 0.7929(2)
loop_
_geom_bond_atom_site_label_1
_geom_bond_atom_site_label_2
_geom_bond_site_symmetry_1
_geom_bond_site_symmetry_2
C1 H1 1_555 1_555
C2 C1 1_555 1_555
H2 C2 1_555 1_555
C3 C2 1_555 1_555
C4 C3 1_555 1_555
H3 C4 1_555 1_555
C5 C4 1_555 1_555
H4 C5 1_555 1_555
C6 H5 1_555 1_555
H6 C6 1_555 1_555
C7 C6 1_555 1_555
C8 C7 1_555 1_555
C9 C8 1_555 1_555
C10 C9 1_555 1_555
C11 C10 1_555 1_555
C12 C7 1_555 1_555
C13 C12 1_555 1_555
H7 C13 1_555 1_555
H8 C13 1_555 1_555
H9 C13 1_555 1_555
C14 C8 1_555 1_555
H10 C14 1_555 1_555
H11 C14 1_555 1_555
H12 C14 1_555 1_555
C15 C10 1_555 1_555
H13 C15 1_555 1_555
H14 C15 1_555 1_555
H15 C15 1_555 1_555
C16 C11 1_555 1_555
H16 C16 1_555 1_555
H17 C16 1_555 1_555
C17 H18 1_555 1_555
C18 C17 1_555 1_555
H19 C18 1_555 1_555
C19 C18 1_555 1_555
C20 C19 1_555 1_555
H20 C20 1_555 1_555
C21 C20 1_555 1_555
H21 C21 1_555 1_555
C22 C9 1_555 1_555
H22 C22 1_555 1_555
H23 C22 1_555 1_555
C23 H24 1_555 1_555
C24 C23 1_555 1_555
H25 C24 1_555 1_555
C25 C24 1_555 1_555
C26 C25 1_555 1_555
H26 C26 1_555 1_555
C27 C26 1_555 1_555
H27 C27 1_555 1_555
C28 C29 1_555 1_555
C29 C30 1_555 1_555
C30 H28 1_555 1_555
C31 C30 1_555 1_555
H29 C31 1_555 1_555
C32 C31 1_555 1_555
C33 C32 1_555 1_555
H30 C33 1_555 1_555
C34 C29 1_555 1_555
H31 C34 1_555 1_555
C35 C32 1_555 1_555
C36 C37 1_555 1_555
C37 C38 1_555 1_555
C38 H32 1_555 1_555
C39 C37 1_555 1_555
H33 C39 1_555 1_555
C40 C42 1_555 1_555
C41 H34 1_555 1_555
C42 C41 1_555 1_555
C43 C42 1_555 1_555
H35 C43 1_555 1_555
C44 H36 1_555 1_555
H37 C44 1_555 1_555
H38 C44 1_555 1_555
C45 H39 1_555 1_555
H40 C45 1_555 1_555
H41 C45 1_555 1_555
C46 H42 1_555 1_555
Cd1 O4 1_555 1_555
Cd2 O2 1_555 1_555
N1 C1 1_555 1_555
N2 C16 1_555 1_555
N3 C22 1_555 1_555
N4 C44 1_555 1_555
O1 C3 1_555 1_555
O2 C19 1_555 1_555
O3 C25 1_555 1_555
O4 C28 1_555 1_555
O5 C28 1_555 1_555
O6 C35 1_555 1_555
O7 C35 1_555 1_555
O8 C36 1_555 1_555
O9 C36 1_555 1_555
O10 C40 1_555 1_555
O11 C40 1_555 1_555
O12 C46 1_555 1_555
C1D H1D 1_555 1_555
C2D C1D 1_555 1_555
H2D C2D 1_555 1_555
C3D C2D 1_555 1_555
C4D C3D 1_555 1_555
H3D C4D 1_555 1_555
C5D C4D 1_555 1_555
H4D C5D 1_555 1_555
C6D H5D 1_555 1_555
H6D C6D 1_555 1_555
C7D C6D 1_555 1_555
C8D C7D 1_555 1_555
C9D C8D 1_555 1_555
C10D C9D 1_555 1_555
C11D C10D 1_555 1_555
C12D C7D 1_555 1_555
C13D C12D 1_555 1_555
H7D C13D 1_555 1_555
H8D C13D 1_555 1_555
H9D C13D 1_555 1_555
C14D C8D 1_555 1_555
H10D C14D 1_555 1_555
H11D C14D 1_555 1_555
H12D C14D 1_555 1_555
C15D C10D 1_555 1_555
H13D C15D 1_555 1_555
H14D C15D 1_555 1_555
H15D C15D 1_555 1_555
C16D C11D 1_555 1_555
H16D C16D 1_555 1_555
H17D C16D 1_555 1_555
C17D H18D 1_555 1_555
C18D C17D 1_555 1_555
H19D C18D 1_555 1_555
C19D C18D 1_555 1_555
C20D C19D 1_555 1_555
H20D C20D 1_555 1_555
C21D C20D 1_555 1_555
H21D C21D 1_555 1_555
C22D C9D 1_555 1_555
H22D C22D 1_555 1_555
H23D C22D 1_555 1_555
C23D H24D 1_555 1_555
C24D C23D 1_555 1_555
H25D C24D 1_555 1_555
C25D C24D 1_555 1_555
C26D C25D 1_555 1_555
H26D C26D 1_555 1_555
C27D C26D 1_555 1_555
H27D C27D 1_555 1_555
C28G C29G 1_555 1_555
C29G C30G 1_555 1_555
C30G H28G 1_555 1_555
C31G C30G 1_555 1_555
H29G C31G 1_555 1_555
C32G C31G 1_555 1_555
C33G C32G 1_555 1_555
H30G C33G 1_555 1_555
C34G C29G 1_555 1_555
H31G C34G 1_555 1_555
C35G C32G 1_555 1_555
C36C C37C 1_555 1_555
C37C C38C 1_555 1_555
C38C C39 1_555 1_555
H32C C38C 1_555 1_555
C39C C38 1_555 1_555
H33C C39C 1_555 1_555
C40A C42A 1_555 1_555
C41A C41 1_555 1_555
H34A C41A 1_555 1_555
C42A C41A 1_555 1_555
C43A C43 1_555 1_555
H35A C43A 1_555 1_555
Cd1G O4G 1_555 1_555
Cd1G_2 O6 1_555 1_555
Cd1C O9C 1_555 1_555
Cd1A O11A 1_555 1_555
Cd2G O1_2 1_555 1_555
Cd2G_2 O1 1_555 1_555
Cd2D O3 1_555 1_555
Cd2C O8C 1_555 1_555
Cd2A O10A 1_555 1_555
Cd2C_2 O1D 1_555 1_555
N1D C1D 1_555 1_555
N2D C16D 1_555 1_555
N3D C22D 1_555 1_555
O1D C3D 1_555 1_555
O1G Cd2 1_555 1_555
O2D C19D 1_555 1_555
O2G Cd2G 1_555 1_555
O3D Cd2 1_555 1_555
O3C Cd2G 1_555 1_555
O4G C28G 1_555 1_555
O5G C28G 1_555 1_555
O6G Cd1 1_555 1_555
O6_2 Cd1G 1_555 1_555
O7G Cd1 1_555 1_555
O7_2 Cd1G 1_555 1_555
O8C C36C 1_555 1_555
O8G Cd2G 1_555 1_555
O9C C36C 1_555 1_555
O9G Cd1G 1_555 1_555
O10A C40A 1_555 1_555
O10G Cd2G 1_555 1_555
O11A C40A 1_555 1_555
O11G Cd1G 1_555 1_555
C5 N1 1_555 1_555
C6 N1 1_555 1_555
C11 C12 1_555 1_555
C17 N2 1_555 1_555
C21 N2 1_555 1_555
C23 N3 1_555 1_555
C27 N3 1_555 1_555
C33 C34 1_555 1_555
C45 N4 1_555 1_555
C46 N4 1_555 1_555
Cd1 O5 1_555 1_555
Cd1 O9 1_555 1_555
Cd1 O11 1_555 1_555
Cd2 O4 1_555 1_555
Cd2 O8 1_555 1_555
Cd2 O10 1_555 1_555
O7 Cd1G_2 1_555 1_555
C5D N1D 1_555 1_555
C6D N1D 1_555 1_555
C11D C12D 1_555 1_555
C17D N2D 1_555 1_555
C21D N2D 1_555 1_555
C23D N3D 1_555 1_555
C25D O3D 1_555 1_555
C27D N3D 1_555 1_555
C33G C34G 1_555 1_555
C35G O6G 1_555 1_555
C35G O7G 1_555 1_555
C37C C39C 1_555 1_555
C42A C43A 1_555 1_555
Cd1G O5G 1_555 1_555
Cd2G O4G 1_555 1_555
Cd2D O2D 1_555 1_555

#END
