
#######################################################################
#
#                 Cambridge Crystallographic Data Centre
#                                CCDC 
#
#######################################################################
#
# If this CIF has been generated from an entry in the Cambridge 
# Structural Database, then it will include bibliographic, chemical, 
# crystal, experimental, refinement or atomic coordinate data resulting 
# from the CCDC's data processing and validation procedures.
#
#######################################################################

data_ECUDOX
_chemical_formula_moiety         '(C4 H12 Na2 O25 P4 U3)n'
_symmetry_cell_setting           orthorhombic
_symmetry_space_group_name_H-M   'C m c 21'
_symmetry_Int_Tables_number      36
_space_group_name_Hall           'C 2c -2'
loop_
_symmetry_equiv_pos_site_id
_symmetry_equiv_pos_as_xyz
1 x,y,z
2 -x,-y,1/2+z
3 x,-y,1/2+z
4 -x,y,z
5 1/2+x,1/2+y,z
6 1/2-x,1/2-y,1/2+z
7 1/2+x,1/2-y,1/2+z
8 1/2-x,1/2+y,z
_cell_length_a                   18.5849(15)
_cell_length_b                   17.9529(14)
_cell_length_c                   9.5115(7)
_cell_angle_alpha                90
_cell_angle_beta                 90
_cell_angle_gamma                90
_cell_volume                     3173.54
loop_
_atom_site_label
_atom_site_type_symbol
_atom_site_fract_x
_atom_site_fract_y
_atom_site_fract_z
_atom_site_U_iso_or_equiv
_atom_site_thermal_displace_type
Na1 Na 1.0000 1.0221(14) 1.255(4) 0.1157 Uani
U1 U 0.70939(2) 0.61021(2) 1.22294(6) 0.0133 Uani
U2 U 1.0000 0.79387(3) 1.05188(7) 0.0192 Uani
P1 P 0.84896(18) 0.92115(17) 1.0957(3) 0.0133 Uani
P2 P 0.80295(18) 0.76676(17) 1.0294(3) 0.0155 Uani
Na2 Na 0.8938(7) 0.5581(7) 0.9752(13) 0.0737 Uani
C1 C 0.7880(7) 0.8476(8) 1.1450(14) 0.0160 Uani
C2 C 0.7096(8) 0.8704(8) 1.1416(14) 0.0213 Uani
H1 H 0.6965 0.8843 1.0475 0.0320 Uiso
H2 H 0.7023 0.9121 1.2033 0.0320 Uiso
H3 H 0.6802 0.8295 1.1718 0.0320 Uiso
O1 O 0.6225(6) 0.6431(5) 1.1772(9) 0.0253 Uani
O2 O 0.7609(6) 0.7035(5) 1.0903(8) 0.0200 Uani
O3 O 0.8336(5) 0.9885(4) 1.1864(7) 0.0140 Uani
O4 O 0.9268(6) 0.8949(5) 1.1144(10) 0.0233 Uani
O5 O 0.7964(5) 0.5750(6) 1.2651(10) 0.0257 Uani
O6 O 0.7330(5) 0.5722(5) 0.9750(9) 0.0203 Uani
O7 O 0.7739(5) 0.7903(4) 0.8855(9) 0.0200 Uani
O8 O 0.8843(5) 0.7492(5) 1.0279(11) 0.0297 Uani
O9 O 1.0000 0.7616(7) 1.2242(17) 0.0327 Uani
O10 O 0.8310(5) 0.9359(5) 0.9415(8) 0.0187 Uani
O11 O 1.0000 0.6630(8) 0.9691(18) 0.0440 Uani
O12 O 1.0000 0.8211(10) 0.8762(15) 0.0407 Uani
O13 O 0.8071(6) 0.8240(5) 1.2885(9) 0.0193 Uani
H4 H 0.7840 0.7867 1.3094 0.0290 Uiso
O14 O 1.0000 1.131(3) 1.136(3) 0.1880 Uani
U1C U 1.29061(2) 0.61021(2) 1.22294(6) 0.0133 Uani
U1G U 0.79061(2) 1.11021(2) 1.22294(6) 0.0133 Uani
U1E U 0.79061(2) 0.88979(2) 0.72294(6) 0.0133 Uani
U1D U 1.20939(2) 1.11021(2) 1.22294(6) 0.0133 Uani
U1F U 1.20939(2) 0.88979(2) 0.72294(6) 0.0133 Uani
P1C P 1.15104(18) 0.92115(17) 1.0957(3) 0.0133 Uani
P2C P 1.19705(18) 0.76676(17) 1.0294(3) 0.0155 Uani
Na2C Na 1.1062(7) 0.5581(7) 0.9752(13) 0.0737 Uani
C1C C 1.2120(7) 0.8476(8) 1.1450(14) 0.0160 Uani
C2C C 1.2904(8) 0.8704(8) 1.1416(14) 0.0213 Uani
H1C H 1.3035 0.8843 1.0475 0.0320 Uiso
H2C H 1.2977 0.9121 1.2033 0.0320 Uiso
H3C H 1.3198 0.8295 1.1718 0.0320 Uiso
O1C O 1.3775(6) 0.6431(5) 1.1772(9) 0.0253 Uani
O2C O 1.2391(6) 0.7035(5) 1.0903(8) 0.0200 Uani
O3C O 1.1664(5) 0.9885(4) 1.1864(7) 0.0140 Uani
O3G O 0.6664(5) 0.4885(4) 1.1864(7) 0.0140 Uani
O3D O 1.3336(5) 0.4885(4) 1.1864(7) 0.0140 Uani
O4C O 1.0732(6) 0.8949(5) 1.1144(10) 0.0233 Uani
O5C O 1.2036(5) 0.5750(6) 1.2651(10) 0.0257 Uani
O6C O 1.2670(5) 0.5722(5) 0.9750(9) 0.0203 Uani
O7C O 1.2261(5) 0.7903(4) 0.8855(9) 0.0200 Uani
O7E O 0.7261(5) 0.7097(4) 1.3855(9) 0.0200 Uani
O7F O 1.2739(5) 0.7097(4) 1.3855(9) 0.0200 Uani
O8C O 1.1157(5) 0.7492(5) 1.0279(11) 0.0297 Uani
O10C O 1.1690(5) 0.9359(5) 0.9415(8) 0.0187 Uani
O10E O 0.6690(5) 0.5641(5) 1.4415(8) 0.0187 Uani
O10F O 1.3310(5) 0.5641(5) 1.4415(8) 0.0187 Uani
O13C O 1.1929(6) 0.8240(5) 1.2885(9) 0.0193 Uani
H4C H 1.2160 0.7867 1.3094 0.0290 Uiso
O15 O 1.0000 0.519(5) 0.243(8) 0.7067 Uani
loop_
_atom_site_aniso_label
_atom_site_aniso_U_11
_atom_site_aniso_U_22
_atom_site_aniso_U_33
_atom_site_aniso_U_23
_atom_site_aniso_U_13
_atom_site_aniso_U_12
Na1 0.071(16) 0.086(19) 0.19(4) -0.10(2) 0.000 0.000
U1 0.0234 0.0083 0.00831 0.0001 0 -0.00144
U2 0.0243(4) 0.0161(3) 0.0173(3) -0.0009(3) 0.000 0.000
P1 0.0220(18) 0.0081(14) 0.0099(14) -0.0013(11) -0.0003(12) 0.0001(12)
P2 0.0260(19) 0.0091(14) 0.0114(15) -0.0017(12) 0.0036(13) -0.0026(12)
Na2 0.059(8) 0.075(9) 0.087(9) 0.016(7) 0.024(7) 0.011(7)
C1 0.022(8) 0.012(7) 0.014(6) -0.005(5) -0.003(5) -0.001(5)
C2 0.032(9) 0.019(7) 0.013(7) -0.008(6) 0.007(5) 0.003(6)
O1 0.032 0.019 0.025 0.002 -0.003 0.006
O2 0.038 0.014 0.008 0 -0.002 -0.003
O3 0.025 0.011 0.006 0 -0.002 0.005
O4 0.022(6) 0.015(4) 0.033(5) -0.001(4) -0.003(4) -0.006(4)
O5 0.033 0.023 0.021 0.004 -0.004 0.006
O6 0.028 0.02 0.013 -0.005 0.001 -0.005
O7 0.042(6) 0.010(4) 0.008(4) 0.002(3) -0.004(4) -0.008(4)
O8 0.024(6) 0.021(5) 0.044(6) -0.010(4) -0.005(5) 0.004(4)
O9 0.035(8) 0.033(7) 0.030(7) 0.025(8) 0.000 0.000
O10 0.037(6) 0.011(4) 0.008(4) 0.003(3) -0.004(4) -0.008(4)
O11 0.021(8) 0.028(8) 0.083(13) -0.031(8) 0.000 0.000
O12 0.017(8) 0.081(12) 0.024(8) 0.018(8) 0.000 0.000
O13 0.042(6) 0.009(5) 0.007(4) 0.004(3) 0.003(4) -0.001(4)
O14 0.052 0.45 0.062 -0.1 0 0
U1C 0.0234 0.0083 0.00831 0.0001 0 0.00144
U1G 0.0234 0.0083 0.00831 0.0001 0 0.00144
U1E 0.0234(2) 0.0083(2) 0.00831(19) -0.0001(2) 0.0000(2) -0.00144(16)
U1D 0.0234 0.0083 0.00831 0.0001 0 -0.00144
U1F 0.0234 0.0083 0.00831 -0.0001 0 0.00144
P1C 0.022 0.0081 0.0099 -0.0013 0.0003 -0.0001
P2C 0.026 0.0091 0.0114 -0.0017 -0.0036 0.0026
Na2C 0.059 0.075 0.087 0.016 -0.024 -0.011
C1C 0.022 0.012 0.014 -0.005 0.003 0.001
C2C 0.032 0.019 0.013 -0.008 -0.007 -0.003
O1C 0.032 0.019 0.025 0.002 0.003 -0.006
O2C 0.038 0.014 0.008 0 0.002 0.003
O3C 0.025 0.011 0.006 0 0.002 -0.005
O3G 0.025 0.011 0.006 0 0.002 -0.005
O3D 0.025 0.011 0.006 0 -0.002 0.005
O4C 0.022 0.015 0.033 -0.001 0.003 0.006
O5C 0.033 0.023 0.021 0.004 0.004 -0.006
O6C 0.028 0.02 0.013 -0.005 -0.001 0.005
O7C 0.042 0.01 0.008 0.002 0.004 0.008
O7E 0.042 0.01 0.008 -0.002 0.004 -0.008
O7F 0.042 0.01 0.008 -0.002 -0.004 0.008
O8C 0.024 0.021 0.044 -0.01 0.005 -0.004
O10C 0.037 0.011 0.008 0.003 0.004 0.008
O10E 0.037 0.011 0.008 -0.003 0.004 -0.008
O10F 0.037 0.011 0.008 -0.003 -0.004 0.008
O13C 0.042 0.009 0.007 0.004 -0.003 0.001
O15 1.4(4) 0.46(12) 0.26(8) 0.35(9) 0.000 0.000
loop_
_geom_bond_atom_site_label_1
_geom_bond_atom_site_label_2
_geom_bond_site_symmetry_1
_geom_bond_site_symmetry_2
Na1 O4 1_555 1_555
U1 O1 1_555 1_555
U2 O4 1_555 1_555
P1 C1 1_555 1_555
P2 C1 1_555 1_555
Na2 O6 1_555 1_555
C1 C2 1_555 1_555
C2 H1 1_555 1_555
H2 C2 1_555 1_555
H3 C2 1_555 1_555
O2 U1 1_555 1_555
O3 P1 1_555 1_555
O4 P1 1_555 1_555
O5 U1 1_555 1_555
O6 U1 1_555 1_555
O7 P2 1_555 1_555
O8 U2 1_555 1_555
O9 U2 1_555 1_555
O10 P1 1_555 1_555
O11 U2 1_555 1_555
O12 U2 1_555 1_555
O13 C1 1_555 1_555
H4 O13 1_555 1_555
O14 Na1 1_555 1_555
U1C O1C 1_555 1_555
U1G O3 1_555 1_555
U1E O7 1_555 1_555
U1D O3C 1_555 1_555
U1F O7C 1_555 1_555
P1C C1C 1_555 1_555
P2C C1C 1_555 1_555
Na2C O11 1_555 1_555
C1C C2C 1_555 1_555
C2C H1C 1_555 1_555
H2C C2C 1_555 1_555
H3C C2C 1_555 1_555
O2C U1C 1_555 1_555
O3C P1C 1_555 1_555
O3G U1 1_555 1_555
O3D U1C 1_555 1_555
O4C Na1 1_555 1_555
O5C U1C 1_555 1_555
O6C U1C 1_555 1_555
O7C P2C 1_555 1_555
O7E U1 1_555 1_555
O7F U1C 1_555 1_555
O8C U2 1_555 1_555
O10C U1F 1_555 1_555
O10E U1 1_555 1_555
O10F U1C 1_555 1_555
O13C C1C 1_555 1_555
H4C O13C 1_555 1_555
U2 O4C 1_555 1_555
P2 O2 1_555 1_555
P2 O8 1_555 1_555
Na2 O11 1_555 1_555
O10 U1E 1_555 1_555
P1C O4C 1_555 1_555
P1C O10C 1_555 1_555
P2C O2C 1_555 1_555
P2C O8C 1_555 1_555
Na2C O6C 1_555 1_555

#END
