
#######################################################################
#
#                 Cambridge Crystallographic Data Centre
#                                CCDC 
#
#######################################################################
#
# If this CIF has been generated from an entry in the Cambridge 
# Structural Database, then it will include bibliographic, chemical, 
# crystal, experimental, refinement or atomic coordinate data resulting 
# from the CCDC's data processing and validation procedures.
#
#######################################################################

data_ECUGEQ
_chemical_formula_moiety         '(C14 H22 N2 O26 P4 U3)n'
_symmetry_cell_setting           monoclinic
_symmetry_space_group_name_H-M   'P 21/c'
_symmetry_Int_Tables_number      14
_space_group_name_Hall           '-P 2ybc'
loop_
_symmetry_equiv_pos_site_id
_symmetry_equiv_pos_as_xyz
1 x,y,z
2 -x,1/2+y,1/2-z
3 -x,-y,-z
4 x,1/2-y,1/2+z
_cell_length_a                   9.6164(10)
_cell_length_b                   18.5742(19)
_cell_length_c                   18.0889(19)
_cell_angle_alpha                90
_cell_angle_beta                 91.280(2)
_cell_angle_gamma                90
_cell_volume                     3230.18
loop_
_atom_site_label
_atom_site_type_symbol
_atom_site_fract_x
_atom_site_fract_y
_atom_site_fract_z
U1 U 0.46957(6) 0.19820(3) 0.70820(3)
U2 U -0.02784(6) 0.26479(4) 0.98971(3)
U3 U 0.25264(7) 0.46269(4) 0.87480(4)
P1 P 0.8358(4) 0.1540(2) 0.6640(2)
P2 P 0.7814(4) 0.1689(3) 0.8291(3)
P3 P 0.2678(4) 0.2652(3) 0.8680(2)
P4 P 0.3432(4) 0.3316(2) 1.0127(2)
C1 C 0.8937(16) 0.1913(10) 0.7530(10)
C2 C 0.9030(19) 0.2760(9) 0.7471(11)
H1 H 0.9616 0.2888 0.7069
H2 H 0.9415 0.2951 0.7924
H3 H 0.8117 0.2955 0.7385
C3 C 0.3919(16) 0.2632(11) 0.9457(9)
C4 C 0.390(2) 0.1858(10) 0.9806(10)
H4 H 0.4546 0.1836 1.0216
H5 H 0.2979 0.1753 0.9974
H6 H 0.4153 0.1510 0.9440
O1 O 0.3334(11) 0.2187(6) 0.8093(6)
O2 O 0.4346(10) 0.3214(7) 1.0811(6)
O3 O 0.2217(10) 0.2146(6) 0.6726(6)
O4 O 0.4482(12) 0.1042(7) 0.7198(6)
O5 O 0.4899(13) 0.2923(7) 0.6962(7)
O6 O 0.1888(11) 0.3186(6) 1.0277(6)
O7 O -0.0804(13) 0.3423(7) 0.9457(7)
O8 O 0.1323(11) 0.2325(7) 0.8952(6)
O9 O 0.0235(11) 0.1853(6) 1.0366(6)
O10 O -0.2716(11) 0.2462(7) 1.0237(7)
O11 O 0.8442(11) 0.2009(7) 0.8988(6)
O12 O 0.2488(13) 0.3429(7) 0.8446(7)
O13 O 0.3714(12) 0.4053(6) 0.9769(7)
O14 O 0.4026(13) 0.4689(8) 0.8179(8)
O15 O 0.3714(14) 0.5591(8) 0.9493(8)
O16 O 0.1146(14) 0.4530(7) 0.7557(8)
O17 O 0.1047(12) 0.4606(7) 0.9298(7)
O18 O 0.8362(12) 0.0735(6) 0.6697(7)
O19 O 0.7850(13) 0.0852(7) 0.8333(7)
O20 O 0.5284(10) 0.2820(6) 0.9206(6)
H7 H 0.5510 0.2540 0.8878
O21 O 0.6890(11) 0.1838(6) 0.6522(6)
O22 O 0.6375(11) 0.1991(6) 0.8091(6)
O23 O 0.9348(11) 0.1812(6) 0.6064(6)
O24 O 1.0318(11) 0.1645(6) 0.7691(6)
H8 H 1.0860 0.1809 0.7391
U1C U 0.46957(6) 0.30180(3) 1.20820(3)
U2_2 U 0.97216(6) 0.26479(4) 0.98971(3)
U2C U 0.97216(6) 0.23521(4) 0.48971(3)
U3A U 0.74736(7) -0.03731(4) 0.62520(4)
O2C O 0.4346(10) 0.1786(7) 0.5811(6)
O11_2 O -0.1558(11) 0.2009(7) 0.8988(6)
O18A O 0.1638(12) 0.5735(6) 0.8303(7)
O23C O -0.0652(11) 0.3188(6) 1.1064(6)
N1 N 0.1663(16) 0.4716(8) 0.2225(8)
H9 H 0.1165 0.4364 0.2504
N2 N 0.1518(19) 0.4657(8) 0.3684(9)
H10 H 0.1059 0.4326 0.3352
C5 C 0.1553(19) 0.4673(12) 0.1472(12)
H11 H 0.1013 0.4320 0.1241
C6 C 0.228(2) 0.5174(12) 0.1067(13)
H12 H 0.2229 0.5155 0.0553
C7 C 0.308(2) 0.5710(11) 0.1416(13)
H13 H 0.3584 0.6040 0.1144
C8 C 0.309(2) 0.5732(11) 0.2210(14)
H14 H 0.3565 0.6100 0.2455
C9 C 0.2415(19) 0.5225(10) 0.2611(11)
C10 C 0.2295(18) 0.5201(10) 0.3412(11)
C11 C 0.284(2) 0.5707(14) 0.3893(13)
H15 H 0.3325 0.6101 0.3714
C12 C 0.266(3) 0.5627(14) 0.4622(15)
H16 H 0.3030 0.5970 0.4947
C13 C 0.199(2) 0.5086(13) 0.4881(11)
H17 H 0.1906 0.5031 0.5389
C14 C 0.141(3) 0.4588(13) 0.4405(12)
H18 H 0.0925 0.4198 0.4595
O25 O 0.2178(16) 0.1249(8) 0.1455(8)
O26 O 0.585(2) 0.9983(11) 0.8357(11)
loop_
_geom_bond_atom_site_label_1
_geom_bond_atom_site_label_2
_geom_bond_site_symmetry_1
_geom_bond_site_symmetry_2
U1 O1 1_555 1_555
U2 O6 1_555 1_555
U3 O12 1_555 1_555
P1 C1 1_555 1_555
P2 C1 1_555 1_555
P3 C3 1_555 1_555
P4 C3 1_555 1_555
C1 C2 1_555 1_555
C2 H1 1_555 1_555
H2 C2 1_555 1_555
H3 C2 1_555 1_555
C3 C4 1_555 1_555
C4 H4 1_555 1_555
H5 C4 1_555 1_555
H6 C4 1_555 1_555
O1 P3 1_555 1_555
O2 P4 1_555 1_555
O3 U1 1_555 1_555
O4 U1 1_555 1_555
O5 U1 1_555 1_555
O6 P4 1_555 1_555
O7 U2 1_555 1_555
O8 U2 1_555 1_555
O9 U2 1_555 1_555
O10 U2 1_555 1_555
O11 P2 1_555 1_555
O12 P3 1_555 1_555
O13 U3 1_555 1_555
O14 U3 1_555 1_555
O15 U3 1_555 1_555
O16 U3 1_555 1_555
O17 U3 1_555 1_555
O18 P1 1_555 1_555
O19 P2 1_555 1_555
O20 C3 1_555 1_555
H7 O20 1_555 1_555
O21 U1 1_555 1_555
O22 U1 1_555 1_555
O23 P1 1_555 1_555
O24 C1 1_555 1_555
H8 O24 1_555 1_555
N1 H9 1_555 1_555
N2 H10 1_555 1_555
C5 N1 1_555 1_555
H11 C5 1_555 1_555
C6 C5 1_555 1_555
H12 C6 1_555 1_555
C7 C6 1_555 1_555
H13 C7 1_555 1_555
C8 C7 1_555 1_555
H14 C8 1_555 1_555
C9 N1 1_555 1_555
C10 N2 1_555 1_555
C11 C10 1_555 1_555
H15 C11 1_555 1_555
C12 C11 1_555 1_555
H16 C12 1_555 1_555
C13 C12 1_555 1_555
H17 C13 1_555 1_555
C14 N2 1_555 1_555
H18 C14 1_555 1_555
U1C O2 1_555 1_555
U2_2 O11 1_555 1_555
U2C O23 1_555 1_555
U3A O18 1_555 1_555
O2C U1 1_555 1_555
O11_2 U2 1_555 1_555
O18A U3 1_555 1_555
O23C U2 1_555 1_555
P1 O21 1_555 1_555
P2 O22 1_555 1_555
P3 O8 1_555 1_555
P4 O13 1_555 1_555
C8 C9 1_555 1_555
C9 C10 1_555 1_555
C13 C14 1_555 1_555

#END
