
#######################################################################
#
#                 Cambridge Crystallographic Data Centre
#                                CCDC 
#
#######################################################################
#
# If this CIF has been generated from an entry in the Cambridge 
# Structural Database, then it will include bibliographic, chemical, 
# crystal, experimental, refinement or atomic coordinate data resulting 
# from the CCDC's data processing and validation procedures.
#
#######################################################################

data_EBIPOX
_chemical_formula_moiety         '(C22 H20 Mn1 N1 O11 Zn2)n'
_symmetry_cell_setting           orthorhombic
_symmetry_space_group_name_H-M   'P 21 21 21'
_symmetry_Int_Tables_number      19
_space_group_name_Hall           'P 2ac 2ab'
loop_
_symmetry_equiv_pos_site_id
_symmetry_equiv_pos_as_xyz
1 x,y,z
2 1/2-x,-y,1/2+z
3 -x,1/2+y,1/2-z
4 1/2+x,1/2-y,-z
_cell_length_a                   10.33318(13)
_cell_length_b                   11.76350(16)
_cell_length_c                   20.4524(3)
_cell_angle_alpha                90
_cell_angle_beta                 90
_cell_angle_gamma                90
_cell_volume                     2486.08
loop_
_atom_site_label
_atom_site_type_symbol
_atom_site_fract_x
_atom_site_fract_y
_atom_site_fract_z
_atom_site_U_iso_or_equiv
_atom_site_thermal_displace_type
Zn1 Zn 0.45083(6) 0.42233(5) 0.00975(3) 0.0089 Uani
Zn2 Zn 0.13842(6) 0.32406(5) 0.00750(3) 0.0087 Uani
O1 O 0.3369(4) 0.2726(3) 0.0039(2) 0.0133 Uani
O2 O 0.4554(4) 0.1181(3) -0.0175(2) 0.0163 Uani
O3 O 0.1160(3) 0.1600(3) -0.0091(2) 0.0116 Uani
C1 C 0.3506(5) 0.1695(5) -0.0135(3) 0.0110 Uani
C2 C 0.2276(5) 0.1053(5) -0.0331(3) 0.0127 Uani
H1 H 0.2314 0.0265 -0.0148 0.0150 Uiso
C3 C 0.2239(7) 0.0983(8) -0.1078(4) 0.0277 Uani
H2 H 0.1679 0.0352 -0.1212 0.0410 Uiso
H3 H 0.3116 0.0855 -0.1245 0.0410 Uiso
H4 H 0.1899 0.1696 -0.1256 0.0410 Uiso
O4 O 0.3677(5) 0.4615(4) 0.0935(2) 0.0205 Uani
O5 O 0.1706(4) 0.3806(4) 0.0981(2) 0.0168 Uani
C4 C 0.2665(6) 0.4315(5) 0.1227(3) 0.0133 Uani
C5 C 0.2584(6) 0.4618(5) 0.1940(3) 0.0123 Uani
C6 C 0.1767(7) 0.4001(6) 0.2352(3) 0.0200 Uani
H5 H 0.1247 0.3403 0.2184 0.0240 Uiso
C7 C 0.1728(6) 0.4277(6) 0.3011(3) 0.0193 Uani
H6 H 0.1190 0.3849 0.3296 0.0230 Uiso
C8 C 0.2455(6) 0.5160(5) 0.3261(3) 0.0120 Uani
C9 C 0.3270(7) 0.5759(7) 0.2851(3) 0.0210 Uani
H7 H 0.3791 0.6355 0.3021 0.0250 Uiso
C10 C 0.3330(7) 0.5494(6) 0.2189(3) 0.0210 Uani
H8 H 0.3884 0.5914 0.1908 0.0250 Uiso
C11 C 0.2356(6) 0.5484(5) 0.3978(3) 0.0120 Uani
O6 O 0.1300(5) 0.5265(4) 0.4253(2) 0.0173 Uani
O7 O 0.3350(4) 0.5909(4) 0.4235(2) 0.0155 Uani
O8 O 0.5381(4) 0.5831(4) 0.0165(3) 0.0213 Uani
C12 C 0.5307(7) 0.6627(5) -0.0219(4) 0.0240 Uani
H9 H 0.4867 0.6503 -0.0620 0.0290 Uiso
N1 N 0.5796(7) 0.7643(5) -0.0112(5) 0.0453 Uani
C13 C 0.6499(12) 0.7889(11) 0.0489(9) 0.0753 Uani
H10 H 0.5982 0.8398 0.0764 0.1130 Uiso
H11 H 0.7324 0.8255 0.0382 0.1130 Uiso
H12 H 0.6664 0.7178 0.0725 0.1130 Uiso
C14 C 0.5745(17) 0.8547(9) -0.0578(8) 0.0820 Uani
H13 H 0.6626 0.8798 -0.0681 0.1230 Uiso
H14 H 0.5253 0.9184 -0.0395 0.1230 Uiso
H15 H 0.5322 0.8278 -0.0978 0.1230 Uiso
Zn1A Zn 0.04917(6) 0.57767(5) 0.50975(3) 0.0089 Uani
Zn1C Zn -0.04917(6) 0.07767(5) -0.00975(3) 0.0089 Uani
Zn2A Zn 0.36158(6) 0.67594(5) 0.50750(3) 0.0087 Uani
Zn2C Zn 0.63842(6) 0.17594(5) -0.00750(3) 0.0087 Uani
O2C O -0.0446(4) 0.3819(3) 0.0175(2) 0.0163 Uani
O3C O 0.6160(3) 0.3400(3) 0.0091(2) 0.0116 Uani
O6A O 0.3700(5) 0.4735(4) -0.0747(2) 0.0173 Uani
O7A O 0.1650(4) 0.4091(4) -0.0765(2) 0.0155 Uani
Mn1 Mn 0.73254(12) 0.45411(10) 0.31149(6) 0.0261 Uani
C15 C 0.6822(10) 0.6069(8) 0.2609(5) 0.0433 Uani
H16 H 0.6147 0.6108 0.2295 0.0520 Uiso
C16 C 0.8141(11) 0.5805(9) 0.2477(4) 0.0417 Uani
H17 H 0.8503 0.5641 0.2060 0.0500 Uiso
C17 C 0.8814(8) 0.5833(8) 0.3079(5) 0.0377 Uani
H18 H 0.9709 0.5689 0.3143 0.0450 Uiso
C18 C 0.7901(9) 0.6114(7) 0.3565(4) 0.0330 Uani
H19 H 0.8079 0.6191 0.4019 0.0400 Uiso
C19 C 0.6692(10) 0.6260(8) 0.3271(6) 0.0440 Uani
H20 H 0.5912 0.6456 0.3490 0.0530 Uiso
C20 C 0.6010(8) 0.3806(7) 0.2744(5) 0.0333 Uani
O9 O 0.5169(6) 0.3292(6) 0.2515(4) 0.0490 Uani
C21 C 0.8387(7) 0.3396(7) 0.2911(5) 0.0330 Uani
O10 O 0.9091(7) 0.2672(6) 0.2786(5) 0.0550 Uani
C22 C 0.6920(8) 0.3936(8) 0.3887(5) 0.0340 Uani
O11 O 0.6639(8) 0.3543(7) 0.4393(4) 0.0557 Uani
loop_
_atom_site_aniso_label
_atom_site_aniso_U_11
_atom_site_aniso_U_22
_atom_site_aniso_U_33
_atom_site_aniso_U_23
_atom_site_aniso_U_13
_atom_site_aniso_U_12
Zn1 0.0069(2) 0.0099(2) 0.0098(2) -0.0005(2) -0.0001(2) 0.0005(2)
Zn2 0.0068(2) 0.0099(2) 0.0095(2) -0.0002(2) -0.0002(2) -0.0005(2)
O1 0.0070(15) 0.0120(16) 0.021(2) -0.0019(16) -0.0008(15) -0.0012(13)
O2 0.0088(16) 0.0131(17) 0.027(2) -0.0050(16) -0.0003(17) -0.0017(15)
O3 0.0043(14) 0.0127(16) 0.0179(17) -0.0011(16) -0.0004(14) 0.0023(12)
C1 0.0081(19) 0.014(2) 0.011(2) 0.000(2) 0.0012(18) -0.0011(18)
C2 0.007(2) 0.013(2) 0.018(2) -0.0054(19) 0.0003(19) -0.0001(19)
C3 0.014(3) 0.048(5) 0.021(3) -0.016(3) 0.002(2) -0.004(3)
O4 0.025(2) 0.024(2) 0.0124(19) -0.0060(17) 0.0068(18) -0.007(2)
O5 0.0138(19) 0.026(2) 0.0107(19) -0.0061(16) -0.0003(15) -0.0021(17)
C4 0.012(2) 0.014(2) 0.014(2) -0.003(2) 0.0003(19) 0.003(2)
C5 0.011(2) 0.016(2) 0.010(2) -0.0019(19) 0.0002(18) 0.001(2)
C6 0.022(3) 0.023(3) 0.015(3) -0.006(2) -0.001(2) -0.007(2)
C7 0.020(3) 0.023(3) 0.015(3) -0.003(2) 0.003(2) -0.009(2)
C8 0.011(2) 0.015(2) 0.010(2) -0.0047(19) -0.0005(18) 0.000(2)
C9 0.021(3) 0.025(3) 0.017(3) -0.005(3) 0.004(2) -0.010(3)
C10 0.023(3) 0.027(3) 0.013(3) -0.004(2) 0.002(2) -0.009(3)
C11 0.015(2) 0.011(2) 0.010(2) -0.0019(18) -0.0003(19) 0.002(2)
O6 0.019(2) 0.017(2) 0.016(2) -0.0068(16) 0.0049(17) -0.0043(18)
O7 0.0120(18) 0.022(2) 0.0126(18) -0.0071(16) -0.0029(14) 0.0001(17)
O8 0.0161(18) 0.0128(17) 0.035(3) -0.0012(19) -0.0056(18) -0.0010(16)
C12 0.020(3) 0.014(3) 0.038(4) -0.003(3) 0.009(3) -0.005(2)
N1 0.037(3) 0.011(2) 0.088(6) -0.009(3) 0.026(4) -0.005(2)
C13 0.043(6) 0.042(6) 0.141(12) -0.037(7) -0.023(7) -0.010(5)
C14 0.118(11) 0.018(4) 0.110(11) 0.017(5) 0.064(9) 0.003(6)
Zn1A 0.0069 0.0099 0.0098 0.0005 0.0001 0.0005
Zn1C 0.0069 0.0099 0.0098 -0.0005 0.0001 -0.0005
Zn2A 0.0068 0.0099 0.0095 0.0002 0.0002 -0.0005
Zn2C 0.0068 0.0099 0.0095 -0.0002 0.0002 0.0005
O2C 0.0088 0.0131 0.027 -0.005 0.0003 0.0017
O3C 0.0043 0.0127 0.0179 -0.0011 0.0004 -0.0023
O6A 0.019 0.017 0.016 0.0068 -0.0049 -0.0043
O7A 0.012 0.022 0.0126 0.0071 0.0029 0.0001
Mn1 0.0232(5) 0.0269(5) 0.0283(5) -0.0042(4) -0.0031(4) -0.0005(4)
C15 0.045(5) 0.036(5) 0.049(6) 0.007(4) -0.024(4) -0.004(4)
C16 0.066(6) 0.038(5) 0.021(4) -0.007(3) 0.003(4) -0.018(4)
C17 0.030(4) 0.029(4) 0.054(5) -0.008(4) -0.001(4) -0.002(3)
C18 0.044(5) 0.028(4) 0.027(4) -0.009(3) -0.004(3) 0.002(3)
C19 0.032(4) 0.031(4) 0.069(7) -0.012(4) -0.005(4) 0.001(4)
C20 0.030(4) 0.025(4) 0.045(5) -0.011(3) -0.009(3) 0.005(3)
O9 0.028(3) 0.039(4) 0.080(5) -0.012(4) -0.019(3) 0.002(3)
C21 0.018(3) 0.027(4) 0.054(5) -0.002(4) -0.002(3) 0.001(3)
O10 0.034(4) 0.026(3) 0.105(7) -0.008(4) 0.006(4) -0.002(3)
C22 0.024(4) 0.042(5) 0.036(4) 0.001(4) 0.001(3) -0.004(3)
O11 0.055(5) 0.065(5) 0.047(4) 0.014(4) 0.005(4) -0.010(4)
loop_
_geom_bond_atom_site_label_1
_geom_bond_atom_site_label_2
_geom_bond_site_symmetry_1
_geom_bond_site_symmetry_2
Zn1 O1 1_555 1_555
Zn2 O1 1_555 1_555
O1 C1 1_555 1_555
O2 C1 1_555 1_555
O3 Zn2 1_555 1_555
C1 C2 1_555 1_555
C2 O3 1_555 1_555
H1 C2 1_555 1_555
C3 C2 1_555 1_555
H2 C3 1_555 1_555
H3 C3 1_555 1_555
H4 C3 1_555 1_555
O4 Zn1 1_555 1_555
O5 Zn2 1_555 1_555
C4 O4 1_555 1_555
C5 C4 1_555 1_555
C6 C5 1_555 1_555
H5 C6 1_555 1_555
C7 C6 1_555 1_555
H6 C7 1_555 1_555
C8 C7 1_555 1_555
C9 C8 1_555 1_555
H7 C9 1_555 1_555
C10 C5 1_555 1_555
H8 C10 1_555 1_555
C11 C8 1_555 1_555
O6 C11 1_555 1_555
O7 C11 1_555 1_555
O8 Zn1 1_555 1_555
C12 O8 1_555 1_555
H9 C12 1_555 1_555
N1 C12 1_555 1_555
C13 N1 1_555 1_555
H10 C13 1_555 1_555
H11 C13 1_555 1_555
H12 C13 1_555 1_555
C14 N1 1_555 1_555
H13 C14 1_555 1_555
H14 C14 1_555 1_555
H15 C14 1_555 1_555
Mn1 C15 1_555 1_555
C15 H16 1_555 1_555
C16 Mn1 1_555 1_555
H17 C16 1_555 1_555
C17 Mn1 1_555 1_555
H18 C17 1_555 1_555
C18 Mn1 1_555 1_555
H19 C18 1_555 1_555
C19 Mn1 1_555 1_555
H20 C19 1_555 1_555
C20 Mn1 1_555 1_555
O9 C20 1_555 1_555
C21 Mn1 1_555 1_555
O10 C21 1_555 1_555
C22 Mn1 1_555 1_555
O11 C22 1_555 1_555
Zn1A O6 1_555 1_555
Zn1C O3 1_555 1_555
Zn2A O7 1_555 1_555
Zn2C O2 1_555 1_555
O2C Zn2 1_555 1_555
O3C Zn1 1_555 1_555
O6A Zn1 1_555 1_555
O7A Zn2 1_555 1_555
O5 C4 1_555 1_555
C9 C10 1_555 1_555
C15 C16 1_555 1_555
C15 C19 1_555 1_555
C16 C17 1_555 1_555
C17 C18 1_555 1_555
C18 C19 1_555 1_555
Zn2C O3C 1_555 1_555

#END
