
#######################################################################
#
#                 Cambridge Crystallographic Data Centre
#                                CCDC 
#
#######################################################################
#
# If this CIF has been generated from an entry in the Cambridge 
# Structural Database, then it will include bibliographic, chemical, 
# crystal, experimental, refinement or atomic coordinate data resulting 
# from the CCDC's data processing and validation procedures.
#
#######################################################################

data_GAHXUL
_chemical_formula_moiety         '(C32 H58 Ag2 B1 F4 N4 O7 1+)n'
_symmetry_cell_setting           triclinic
_symmetry_space_group_name_H-M   'P -1'
_symmetry_Int_Tables_number      2
_space_group_name_Hall           '-P 1'
loop_
_symmetry_equiv_pos_site_id
_symmetry_equiv_pos_as_xyz
1 x,y,z
2 -x,-y,-z
_cell_length_a                   10.2089(13)
_cell_length_b                   11.4790(14)
_cell_length_c                   11.6675(15)
_cell_angle_alpha                112.6850(10)
_cell_angle_beta                 103.9520(10)
_cell_angle_gamma                94.6440(10)
_cell_volume                     1200.97
loop_
_atom_site_label
_atom_site_type_symbol
_atom_site_fract_x
_atom_site_fract_y
_atom_site_fract_z
C1 C 0.5069(7) 0.2058(7) 0.1598(6)
H1 H 0.5965 0.2021 0.2070
H2 H 0.4378 0.1557 0.1740
H3 H 0.4949 0.2936 0.1896
C2 C 0.4937(6) 0.1522(5) 0.0157(5)
C3 C 0.3665(6) 0.1504(5) -0.0691(5)
C4 C 0.3455(6) 0.1182(5) -0.2040(5)
C5 C 0.2157(7) 0.1389(7) -0.2820(6)
H4 H 0.2169 0.1128 -0.3704
H5 H 0.2105 0.2283 -0.2454
H6 H 0.1372 0.0886 -0.2799
C6 C 0.4325(6) 0.0337(6) -0.3966(5)
C7 C 0.4789(7) -0.0954(6) -0.4478(6)
H7 H 0.5710 -0.0877 -0.3946
H8 H 0.4180 -0.1603 -0.4412
C8 C 0.5219(7) 0.1379(6) -0.4114(6)
H9 H 0.4870 0.2172 -0.3834
H10 H 0.6155 0.1544 -0.3566
C9 C -0.1170(7) -0.0015(7) -0.2090(7)
H11 H -0.1807 0.0412 -0.1672
H12 H -0.1592 -0.0418 -0.3015
H13 H -0.0361 0.0603 -0.1887
C10 C -0.0776(6) -0.1020(5) -0.1616(5)
C11 C 0.0157(6) -0.1758(5) -0.2120(5)
C12 C 0.0403(6) -0.2873(5) -0.1916(5)
C13 C 0.1203(7) -0.3754(6) -0.2684(6)
H14 H 0.1282 -0.4461 -0.2441
H15 H 0.2105 -0.3284 -0.2502
H16 H 0.0732 -0.4077 -0.3596
C14 C 0.0042(7) -0.4337(6) -0.0852(6)
C15 C 0.1209(7) -0.3978(6) 0.0410(6)
H17 H 0.2072 -0.3679 0.0309
H18 H 0.1028 -0.3285 0.1119
C16 C -0.1325(7) -0.4857(7) -0.0735(7)
H19 H -0.1574 -0.4188 -0.0057
H20 H -0.2043 -0.5104 -0.1547
N1 N 0.4379(5) 0.0729(5) -0.2604(4)
H21 H 0.5111 0.0651 -0.2111
N2 N -0.0118(6) -0.3208(5) -0.1137(5)
H22 H -0.0609 -0.2709 -0.0750
O1 O 0.5918(4) 0.1114(4) -0.0242(4)
O2 O -0.1325(4) -0.1186(4) -0.0820(4)
Ag1 Ag 0.22681(4) -0.03889(4) -0.08080(4)
C1A C 0.4931(7) -0.2058(7) -1.1598(6)
H1A H 0.4035 -0.2021 -1.2070
H2A H 0.5622 -0.1557 -1.1740
H3A H 0.5051 -0.2936 -1.1896
C2A C 0.5063(6) -0.1522(5) -1.0157(5)
C3A C 0.6335(6) -0.1504(5) -0.9309(5)
C4A C 0.6545(6) -0.1182(5) -0.7960(5)
C5A C 0.7843(7) -0.1389(7) -0.7180(6)
H4A H 0.7831 -0.1128 -0.6296
H5A H 0.7895 -0.2283 -0.7546
H6A H 0.8628 -0.0886 -0.7201
C6A C 0.5675(6) -0.0337(6) -0.6034(5)
C7A C 0.5211(7) 0.0954(6) -0.5522(6)
H7A H 0.4290 0.0877 -0.6054
H8A H 0.5820 0.1603 -0.5588
C8A C 0.4781(7) -0.1379(6) -0.5886(6)
H9A H 0.5130 -0.2172 -0.6166
H10A H 0.3845 -0.1544 -0.6434
N1A N 0.5621(5) -0.0729(5) -0.7396(4)
H21A H 0.4889 -0.0651 -0.7889
O1A O 0.4082(4) -0.1114(4) -0.9758(4)
C9A C 0.1170(7) -0.9985(7) 0.2090(7)
H11A H 0.1807 -1.0412 0.1672
H12A H 0.1592 -0.9582 0.3015
H13A H 0.0361 -1.0603 0.1887
C10A C 0.0776(6) -0.8980(5) 0.1616(5)
C11A C -0.0157(6) -0.8242(5) 0.2120(5)
C12A C -0.0403(6) -0.7127(5) 0.1916(5)
C13A C -0.1203(7) -0.6246(6) 0.2684(6)
H14A H -0.1282 -0.5539 0.2441
H15A H -0.2105 -0.6716 0.2502
H16A H -0.0732 -0.5923 0.3596
C14A C -0.0042(7) -0.5663(6) 0.0852(6)
C15A C -0.1209(7) -0.6022(6) -0.0410(6)
H17A H -0.2072 -0.6321 -0.0309
H18A H -0.1028 -0.6715 -0.1119
C16A C 0.1325(7) -0.5143(7) 0.0735(7)
H19A H 0.1574 -0.5812 0.0057
H20A H 0.2043 -0.4896 0.1547
N2A N 0.0118(6) -0.6792(5) 0.1137(5)
H22A H 0.0609 -0.7291 0.0750
O2A O 0.1325(4) -0.8814(4) 0.0820(4)
Ag1A Ag -0.22681(4) -0.96111(4) 0.08080(4)
C3A_2 C -0.3665(6) -1.1504(5) 0.0691(5)
O1_2 O -0.4082(4) -0.8886(4) -0.0242(4)
O1A_2 O 0.4082(4) -0.1114(4) 0.0242(4)
O2_2 O -0.1325(4) -1.1186(4) -0.0820(4)
O2A_2 O 0.1325(4) 0.1186(4) 0.0820(4)
Ag1_2 Ag 0.22681(4) -1.03889(4) -0.08080(4)
Ag1_3 Ag 0.22681(4) -0.03889(4) -1.08080(4)
Ag1A_2 Ag -0.22681(4) 0.03889(4) 0.08080(4)
Ag1A_3 Ag 0.77319(4) 0.03889(4) -0.91920(4)
Ag1A_4 Ag 0.77319(4) 0.03889(4) 0.08080(4)
B1 B 0.1029(10) 0.7568(9) 0.4425(9)
F1 F 0.1779(7) 0.8134(7) 0.5695(5)
F2 F -0.0282(7) 0.7029(9) 0.4174(11)
F3 F 0.1638(11) 0.6541(9) 0.3927(10)
F4 F 0.1181(7) 0.8352(8) 0.3828(7)
O3 O -0.625(2) -0.527(2) -0.1302(16)
O4 O -0.3140(19) -0.409(4) -0.432(3)
O5 O -0.368(4) 0.570(3) 0.391(4)
loop_
_geom_bond_atom_site_label_1
_geom_bond_atom_site_label_2
_geom_bond_site_symmetry_1
_geom_bond_site_symmetry_2
C1 H1 1_555 1_555
H2 C1 1_555 1_555
H3 C1 1_555 1_555
C2 C1 1_555 1_555
C3 C2 1_555 1_555
C4 C3 1_555 1_555
C5 C4 1_555 1_555
H4 C5 1_555 1_555
H5 C5 1_555 1_555
H6 C5 1_555 1_555
C6 C7 1_555 1_555
C7 H7 1_555 1_555
H8 C7 1_555 1_555
C8 C6 1_555 1_555
H9 C8 1_555 1_555
H10 C8 1_555 1_555
C9 H11 1_555 1_555
H12 C9 1_555 1_555
H13 C9 1_555 1_555
C10 C9 1_555 1_555
C11 C10 1_555 1_555
C12 C11 1_555 1_555
C13 C12 1_555 1_555
H14 C13 1_555 1_555
H15 C13 1_555 1_555
H16 C13 1_555 1_555
C14 C15 1_555 1_555
C15 H17 1_555 1_555
H18 C15 1_555 1_555
C16 C14 1_555 1_555
H19 C16 1_555 1_555
H20 C16 1_555 1_555
N1 C4 1_555 1_555
H21 N1 1_555 1_555
N2 C12 1_555 1_555
H22 N2 1_555 1_555
O1 C2 1_555 1_555
O2 C10 1_555 1_555
Ag1 C3 1_555 1_555
B1 F1 1_555 1_555
F2 B1 1_555 1_555
F3 B1 1_555 1_555
F4 B1 1_555 1_555
C1A H1A 1_555 1_555
H2A C1A 1_555 1_555
H3A C1A 1_555 1_555
C2A C1A 1_555 1_555
C3A C2A 1_555 1_555
C4A C3A 1_555 1_555
C5A C4A 1_555 1_555
H4A C5A 1_555 1_555
H5A C5A 1_555 1_555
H6A C5A 1_555 1_555
C6A C7A 1_555 1_555
C7A C8 1_555 1_555
H7A C7A 1_555 1_555
H8A C7A 1_555 1_555
C8A C7 1_555 1_555
H9A C8A 1_555 1_555
H10A C8A 1_555 1_555
N1A C4A 1_555 1_555
H21A N1A 1_555 1_555
O1A C2A 1_555 1_555
C9A H11A 1_555 1_555
H12A C9A 1_555 1_555
H13A C9A 1_555 1_555
C10A C9A 1_555 1_555
C11A C10A 1_555 1_555
C12A C11A 1_555 1_555
C13A C12A 1_555 1_555
H14A C13A 1_555 1_555
H15A C13A 1_555 1_555
H16A C13A 1_555 1_555
C14A C15A 1_555 1_555
C15A C16 1_555 1_555
H17A C15A 1_555 1_555
H18A C15A 1_555 1_555
C16A C15 1_555 1_555
H19A C16A 1_555 1_555
H20A C16A 1_555 1_555
N2A C12A 1_555 1_555
H22A N2A 1_555 1_555
O2A C10A 1_555 1_555
Ag1A C11A 1_555 1_555
C3A_2 Ag1A 1_555 1_555
O1_2 Ag1A 1_555 1_555
O1A_2 Ag1 1_555 1_555
O2_2 Ag1A 1_555 1_555
O2A_2 Ag1 1_555 1_555
Ag1_2 O2A 1_555 1_555
Ag1_3 O1A 1_555 1_555
Ag1A_2 O2 1_555 1_555
Ag1A_3 C3A 1_555 1_555
Ag1A_4 O1 1_555 1_555
C6 N1 1_555 1_555
C11 Ag1 1_555 1_555
C14 N2 1_555 1_555
C6A C8A 1_555 1_555
C6A N1A 1_555 1_555
C14A C16A 1_555 1_555
C14A N2A 1_555 1_555

#END
