
#######################################################################
#
#                 Cambridge Crystallographic Data Centre
#                                CCDC 
#
#######################################################################
#
# If this CIF has been generated from an entry in the Cambridge 
# Structural Database, then it will include bibliographic, chemical, 
# crystal, experimental, refinement or atomic coordinate data resulting 
# from the CCDC's data processing and validation procedures.
#
#######################################################################

data_LUYBIS
_chemical_formula_moiety         '(C72 H48 Eu4 N12 O32)n'
_symmetry_cell_setting           monoclinic
_symmetry_space_group_name_H-M   'P 21/c'
_symmetry_Int_Tables_number      14
_space_group_name_Hall           '-P 2ybc'
loop_
_symmetry_equiv_pos_site_id
_symmetry_equiv_pos_as_xyz
1 x,y,z
2 -x,1/2+y,1/2-z
3 -x,-y,-z
4 x,1/2-y,1/2+z
_cell_length_a                   26.238(2)
_cell_length_b                   14.1876(15)
_cell_length_c                   16.8586(11)
_cell_angle_alpha                90
_cell_angle_beta                 98.014(7)
_cell_angle_gamma                90
_cell_volume                     6214.4
loop_
_atom_site_label
_atom_site_type_symbol
_atom_site_fract_x
_atom_site_fract_y
_atom_site_fract_z
C1 C 0.6611(6) -0.1161(11) 0.3076(8)
C2 C 0.6068(6) -0.0869(13) 0.3186(8)
C3 C 0.5869(13) -0.119(4) 0.382(2)
C4 C 0.5108(6) -0.0266(14) 0.3344(8)
C5 C 0.5215(13) -0.041(3) 0.2662(15)
C6 C 0.5675(18) -0.072(4) 0.259(2)
C7 C 0.4603(6) 0.0169(15) 0.3431(9)
C8 C 0.4344(10) -0.030(3) 0.3959(17)
C9 C 0.3932(6) 0.0291(15) 0.4155(10)
C10 C 0.3695(6) 0.0980(13) 0.3667(7)
C11 C 0.3939(7) 0.1274(17) 0.3035(9)
C12 C 0.3211(6) 0.1473(11) 0.3846(8)
C13 C 0.1709(6) 0.1865(10) 0.3421(8)
C14 C 0.1239(6) 0.1299(13) 0.3401(8)
C15 C 0.1145(6) 0.0789(13) 0.4082(8)
C16 C 0.0347(6) 0.0285(15) 0.3362(8)
C17 C 0.0522(12) 0.045(3) 0.2664(14)
C18 C 0.0932(13) 0.103(3) 0.2696(16)
C19 C -0.0152(6) -0.0176(14) 0.3373(8)
C20 C -0.0699(6) -0.1133(13) 0.4026(9)
C21 C -0.1100(6) -0.0956(11) 0.3445(8)
C22 C -0.1055(17) -0.016(4) 0.284(2)
C23 C -0.0573(12) 0.020(3) 0.2834(16)
C24 C -0.1639(5) -0.1254(11) 0.3519(7)
C25 C 0.1742(6) 0.3876(11) 0.4578(9)
C26 C 0.1231(6) 0.4220(12) 0.4742(8)
C27 C 0.0999(6) 0.3855(13) 0.5363(9)
C28 C 0.0262(6) 0.4824(12) 0.4964(8)
C29 C 0.0491(6) 0.5210(12) 0.4363(8)
C30 C 0.0961(7) 0.4888(13) 0.4267(9)
C31 C 0.3317(6) 0.3415(14) 0.5025(9)
C32 C 0.3854(9) 0.375(3) 0.5069(12)
C33 C 0.4010(15) 0.416(4) 0.4358(17)
C34 C 0.4780(11) 0.462(3) 0.5032(14)
C35 C 0.4687(10) 0.418(2) 0.5701(12)
C36 C 0.4202(10) 0.378(3) 0.5760(13)
O1 O 0.6930(4) -0.1211(10) 0.3691(6)
O2 O 0.6726(4) -0.1247(9) 0.2396(5)
O3 O 0.2489(4) 0.2822(9) 0.6725(5)
O4 O 0.2964(4) 0.1939(8) 0.3284(6)
O5 O 0.3008(4) 0.3428(8) 0.4407(6)
O6 O 0.1788(3) 0.2278(7) 0.2788(5)
O7 O 0.1865(4) 0.4003(7) 0.3892(5)
O8 O -0.1988(3) -0.1016(6) 0.2975(5)
O9 O 0.2635(5) 0.5049(9) 0.3271(7)
O10 O 0.3086(7) 0.122(3) 0.4518(10)
O11 O 0.2289(5) 0.0347(9) 0.5230(6)
O12 O -0.1691(4) -0.1736(7) 0.4127(5)
O13 O 0.2021(4) 0.3461(7) 0.5162(5)
O14 O 0.2015(3) 0.1981(7) 0.4068(5)
O15 O 0.3226(4) 0.3015(10) 0.5655(6)
N1 N 0.5364(15) -0.093(5) 0.390(2)
N2 N 0.4341(18) 0.055(5) 0.286(2)
N3 N 0.0697(6) 0.0278(13) 0.4052(8)
N4 N -0.0219(5) -0.0742(11) 0.3995(8)
N5 N 0.0513(6) 0.4158(13) 0.5494(8)
N6 N 0.4471(14) 0.440(3) 0.4329(18)
Eu1 Eu 0.25030(3) 0.33684(6) 0.31352(4)
Eu2 Eu 0.24931(3) 0.20146(6) 0.53679(4)
C25B C -0.1742(6) 0.6124(11) 0.5422(9)
C26B C -0.1231(6) 0.5780(12) 0.5258(8)
C27B C -0.0999(6) 0.6145(13) 0.4637(9)
C28B C -0.0262(6) 0.5176(12) 0.5036(8)
C29B C -0.0491(6) 0.4790(12) 0.5637(8)
C30B C -0.0961(7) 0.5112(13) 0.5733(9)
O7B O -0.1865(4) 0.5997(7) 0.6108(5)
O13B O -0.2021(4) 0.6539(7) 0.4838(5)
N5B N -0.0513(6) 0.5842(13) 0.4506(8)
C31B C 0.6683(6) 0.6585(14) 0.4975(9)
C32B C 0.6146(9) 0.625(3) 0.4931(12)
C33B C 0.5990(15) 0.584(4) 0.5642(17)
C34B C 0.5220(11) 0.538(3) 0.4968(14)
C35B C 0.5313(10) 0.582(2) 0.4299(12)
C36B C 0.5798(10) 0.622(3) 0.4240(13)
O5B O 0.6992(4) 0.6572(8) 0.5593(6)
O15B O 0.6774(4) 0.6985(10) 0.4345(6)
N6B N 0.5529(14) 0.560(3) 0.5671(18)
C1B C -0.6611(6) 0.1161(11) 0.6924(8)
C2B C -0.6068(6) 0.0869(13) 0.6814(8)
C3B C -0.5869(13) 0.119(4) 0.618(2)
C4B C -0.5108(6) 0.0266(14) 0.6656(8)
C5B C -0.5215(13) 0.041(3) 0.7338(15)
C6B C -0.5675(18) 0.072(4) 0.741(2)
C7B C -0.4603(6) -0.0169(15) 0.6569(9)
C8B C -0.4344(10) 0.030(3) 0.6041(17)
C9B C -0.3932(6) -0.0291(15) 0.5845(10)
C10B C -0.3695(6) -0.0980(13) 0.6333(7)
C11B C -0.3939(7) -0.1274(17) 0.6965(9)
C12B C -0.3211(6) -0.1473(11) 0.6154(8)
C13B C -0.1709(6) -0.1865(10) 0.6579(8)
C14B C -0.1239(6) -0.1299(13) 0.6599(8)
C15B C -0.1145(6) -0.0789(13) 0.5918(8)
C16B C -0.0347(6) -0.0285(15) 0.6638(8)
C17B C -0.0522(12) -0.045(3) 0.7336(14)
C18B C -0.0932(13) -0.103(3) 0.7304(16)
C19B C 0.0152(6) 0.0176(14) 0.6627(8)
C20B C 0.0699(6) 0.1133(13) 0.5974(9)
C21B C 0.1100(6) 0.0956(11) 0.6555(8)
C22B C 0.1055(17) 0.016(4) 0.716(2)
C23B C 0.0573(12) -0.020(3) 0.7166(16)
C24B C 0.1639(5) 0.1254(11) 0.6481(7)
O1B O -0.6930(4) 0.1211(10) 0.6309(6)
O2B O -0.6726(4) 0.1247(9) 0.7604(5)
O3B O -0.2489(4) -0.2822(9) 0.3275(5)
O4B O -0.2964(4) -0.1939(8) 0.6716(6)
O6B O -0.1788(3) -0.2278(7) 0.7212(5)
O8B O 0.1988(3) 0.1016(6) 0.7025(5)
O9B O -0.2635(5) -0.5049(9) 0.6729(7)
O10B O -0.3086(7) -0.122(3) 0.5482(10)
O11B O -0.2289(5) -0.0347(9) 0.4770(6)
O12B O 0.1691(4) 0.1736(7) 0.5873(5)
O14B O -0.2015(3) -0.1981(7) 0.5932(5)
N1B N -0.5364(15) 0.093(5) 0.610(2)
N2B N -0.4341(18) -0.055(5) 0.714(2)
N3B N -0.0697(6) -0.0278(13) 0.5948(8)
N4B N 0.0219(5) 0.0742(11) 0.6005(8)
Eu1B Eu -0.25030(3) -0.33684(6) 0.68648(4)
Eu2B Eu -0.24931(3) -0.20146(6) 0.46321(4)
O1_2 O -0.3070(4) -0.1211(10) 0.3691(6)
O1B_2 O 0.3070(4) 0.1211(10) 0.6309(6)
O2A O 0.3274(4) 0.3753(9) 0.2604(5)
O2C O -0.3274(4) -0.3753(9) 0.7396(5)
O3A O -0.2489(4) -0.2178(9) 0.8275(5)
O3C O 0.2489(4) 0.2178(9) 0.1725(5)
O5B_2 O -0.3008(4) -0.3428(8) 0.5593(6)
O7B_2 O -0.1865(4) -0.4003(7) 0.6108(5)
O8A O 0.1988(3) 0.3984(6) 0.2025(5)
O8C O -0.1988(3) -0.3984(6) 0.7975(5)
O13B_2 O -0.2021(4) -0.3461(7) 0.4838(5)
O15B_2 O -0.3226(4) -0.3015(10) 0.4345(6)
Eu1A Eu -0.25030(3) -0.16316(6) 0.18648(4)
Eu1A_2 Eu 0.74970(3) -0.16316(6) 0.18648(4)
Eu1B_2 Eu -0.25030(3) 0.66316(6) 0.68648(4)
Eu1B_3 Eu 0.74970(3) 0.66316(6) 0.68648(4)
Eu1C Eu -0.74970(3) 0.16316(6) 0.81352(4)
Eu1C_2 Eu 0.25030(3) 0.16316(6) 0.81352(4)
Eu2_2 Eu -0.75069(3) 0.20146(6) 0.53679(4)
Eu2B_2 Eu -0.24931(3) 0.79854(6) 0.46321(4)
Eu2B_3 Eu 0.75069(3) -0.20146(6) 0.46321(4)
Eu2B_4 Eu 0.75069(3) 0.79854(6) 0.46321(4)
O16 O 0.2949(13) 0.458(2) 0.6805(17)
O17 O 0.342(2) 0.627(4) 0.282(3)
loop_
_geom_bond_atom_site_label_1
_geom_bond_atom_site_label_2
_geom_bond_site_symmetry_1
_geom_bond_site_symmetry_2
C1 C2 1_555 1_555
C2 C3 1_555 1_555
C3 N1 1_555 1_555
C4 C5 1_555 1_555
C5 C6 1_555 1_555
C6 C2 1_555 1_555
C7 C4 1_555 1_555
C8 C7 1_555 1_555
C9 C8 1_555 1_555
C10 C9 1_555 1_555
C11 C10 1_555 1_555
C12 C10 1_555 1_555
C13 C14 1_555 1_555
C14 C15 1_555 1_555
C15 N3 1_555 1_555
C16 C17 1_555 1_555
C17 C18 1_555 1_555
C18 C14 1_555 1_555
C19 C16 1_555 1_555
C20 C21 1_555 1_555
C21 C22 1_555 1_555
C22 C23 1_555 1_555
C23 C19 1_555 1_555
C24 C21 1_555 1_555
C25 C26 1_555 1_555
C26 C27 1_555 1_555
C27 N5 1_555 1_555
C28 C29 1_555 1_555
C29 C30 1_555 1_555
C30 C26 1_555 1_555
C31 C32 1_555 1_555
C32 C33 1_555 1_555
C33 N6 1_555 1_555
C34 C35 1_555 1_555
C35 C36 1_555 1_555
C36 C32 1_555 1_555
O1 C1 1_555 1_555
O2 C1 1_555 1_555
O3 Eu2 1_555 1_555
O4 C12 1_555 1_555
O5 C31 1_555 1_555
O6 C13 1_555 1_555
O7 C25 1_555 1_555
O8 C24 1_555 1_555
O9 Eu1 1_555 1_555
O10 C12 1_555 1_555
O11 Eu2 1_555 1_555
O12 C24 1_555 1_555
O13 C25 1_555 1_555
O14 C13 1_555 1_555
O15 C31 1_555 1_555
N1 C4 1_555 1_555
N2 C7 1_555 1_555
N3 C16 1_555 1_555
N4 C19 1_555 1_555
N5 C28 1_555 1_555
N6 C34 1_555 1_555
Eu1 O4 1_555 1_555
Eu2 O10 1_555 1_555
C25B C26B 1_555 1_555
C26B C27B 1_555 1_555
C27B N5B 1_555 1_555
C28B C28 1_555 1_555
C29B C28B 1_555 1_555
C30B C26B 1_555 1_555
O7B C25B 1_555 1_555
O13B C25B 1_555 1_555
N5B C28B 1_555 1_555
C31B C32B 1_555 1_555
C32B C33B 1_555 1_555
C33B N6B 1_555 1_555
C34B C34 1_555 1_555
C35B C34B 1_555 1_555
C36B C32B 1_555 1_555
O5B C31B 1_555 1_555
O15B C31B 1_555 1_555
N6B C34B 1_555 1_555
C1B C2B 1_555 1_555
C2B C3B 1_555 1_555
C3B N1B 1_555 1_555
C4B C5B 1_555 1_555
C5B C6B 1_555 1_555
C6B C2B 1_555 1_555
C7B C4B 1_555 1_555
C8B C7B 1_555 1_555
C9B C8B 1_555 1_555
C10B C9B 1_555 1_555
C11B C10B 1_555 1_555
C12B C10B 1_555 1_555
C13B C14B 1_555 1_555
C14B C15B 1_555 1_555
C15B N3B 1_555 1_555
C16B C17B 1_555 1_555
C17B C18B 1_555 1_555
C18B C14B 1_555 1_555
C19B C16B 1_555 1_555
C20B C21B 1_555 1_555
C21B C22B 1_555 1_555
C22B C23B 1_555 1_555
C23B C19B 1_555 1_555
C24B C21B 1_555 1_555
O1B C1B 1_555 1_555
O2B C1B 1_555 1_555
O3B Eu2B 1_555 1_555
O4B C12B 1_555 1_555
O6B C13B 1_555 1_555
O8B C24B 1_555 1_555
O9B Eu1B 1_555 1_555
O10B C12B 1_555 1_555
O11B Eu2B 1_555 1_555
O12B Eu2 1_555 1_555
O14B C13B 1_555 1_555
N1B C4B 1_555 1_555
N2B C7B 1_555 1_555
N3B C16B 1_555 1_555
N4B C19B 1_555 1_555
Eu1B O4B 1_555 1_555
Eu2B O12 1_555 1_555
O1_2 Eu2B 1_555 1_555
O1B_2 Eu2 1_555 1_555
O2A Eu1 1_555 1_555
O2C Eu1B 1_555 1_555
O3A Eu1B 1_555 1_555
O3C Eu1 1_555 1_555
O5B_2 Eu1B 1_555 1_555
O7B_2 Eu1B 1_555 1_555
O8A Eu1 1_555 1_555
O8C Eu1B 1_555 1_555
O13B_2 Eu2B 1_555 1_555
O15B_2 Eu2B 1_555 1_555
Eu1A O8 1_555 1_555
Eu1A_2 O2 1_555 1_555
Eu1B_2 O7B 1_555 1_555
Eu1B_3 O5B 1_555 1_555
Eu1C O2B 1_555 1_555
Eu1C_2 O3 1_555 1_555
Eu2_2 O1B 1_555 1_555
Eu2B_2 O13B 1_555 1_555
Eu2B_3 O1 1_555 1_555
Eu2B_4 O15B 1_555 1_555
C11 N2 1_555 1_555
C20 N4 1_555 1_555
O5 Eu1 1_555 1_555
O6 Eu1 1_555 1_555
O7 Eu1 1_555 1_555
O13 Eu2 1_555 1_555
O14 Eu2 1_555 1_555
O15 Eu2 1_555 1_555
C29B C30B 1_555 1_555
C35B C36B 1_555 1_555
C11B N2B 1_555 1_555
C20B N4B 1_555 1_555
C24B O12B 1_555 1_555
O3B Eu1A 1_555 1_555
O6B Eu1B 1_555 1_555
O8B Eu1C_2 1_555 1_555
O10B Eu2B 1_555 1_555
O14B Eu2B 1_555 1_555

#END
