
#######################################################################
#
#                 Cambridge Crystallographic Data Centre
#                                CCDC 
#
#######################################################################
#
# If this CIF has been generated from an entry in the Cambridge 
# Structural Database, then it will include bibliographic, chemical, 
# crystal, experimental, refinement or atomic coordinate data resulting 
# from the CCDC's data processing and validation procedures.
#
#######################################################################

data_LUYBOY
_chemical_formula_moiety         '(C72 H44 Cu3 Eu4 N12 O30 1+)n'
_symmetry_cell_setting           monoclinic
_symmetry_space_group_name_H-M   'P 21/c'
_symmetry_Int_Tables_number      14
_space_group_name_Hall           '-P 2ybc'
loop_
_symmetry_equiv_pos_site_id
_symmetry_equiv_pos_as_xyz
1 x,y,z
2 -x,1/2+y,1/2-z
3 -x,-y,-z
4 x,1/2-y,1/2+z
_cell_length_a                   26.531(2)
_cell_length_b                   13.617(4)
_cell_length_c                   16.4067(19)
_cell_angle_alpha                90
_cell_angle_beta                 98.040(11)
_cell_angle_gamma                90
_cell_volume                     5869.03
loop_
_atom_site_label
_atom_site_type_symbol
_atom_site_fract_x
_atom_site_fract_y
_atom_site_fract_z
C1 C 0.3349(11) 1.095(4) 0.690(2)
C2 C 0.3895(9) 1.066(4) 0.6801(19)
C3 C 0.4058(10) 1.045(4) 0.6050(15)
N1 N 0.4565(11) 1.022(4) 0.6018(14)
C4 C 0.4910(9) 1.019(4) 0.6738(19)
C5 C 0.4747(11) 1.040(4) 0.7490(15)
C6 C 0.4240(13) 1.063(4) 0.7522(15)
C7 C 0.6766(13) 0.851(4) 0.632(2)
C8 C 0.5351(9) 0.968(3) 0.6672(16)
C9 C 0.5676(13) 0.934(4) 0.7352(12)
C10 C 0.6145(11) 0.894(4) 0.7251(15)
C11 C 0.6289(9) 0.888(3) 0.6470(19)
C12 C 0.5965(10) 0.922(3) 0.5790(13)
N2 N 0.5496(9) 0.962(3) 0.5891(13)
C13 C 0.8343(12) 0.897(4) 0.363(2)
C14 C 0.8859(7) 0.935(2) 0.3502(15)
C15 C 0.8933(8) 0.999(2) 0.2872(14)
N3 N 0.9419(10) 1.033(2) 0.2801(14)
C16 C 0.9832(7) 1.002(2) 0.3362(16)
C17 C 0.9758(7) 0.938(2) 0.3992(14)
C18 C 0.9271(9) 0.904(2) 0.4062(13)
C19 C 1.1677(12) 1.206(4) 0.329(2)
C20 C 1.0317(8) 1.045(2) 0.3333(15)
N4 N 1.0387(8) 1.104(2) 0.2664(12)
C21 C 1.0841(9) 1.154(2) 0.2661(13)
C22 C 1.1225(8) 1.147(3) 0.3327(16)
C23 C 1.1155(8) 1.088(3) 0.3996(13)
C24 C 1.0701(10) 1.037(2) 0.3999(13)
C25 C 0.8267(13) 0.616(4) 0.539(2)
C26 C 0.8765(8) 0.578(3) 0.5218(16)
C27 C 0.9025(11) 0.514(3) 0.5785(14)
C28 C 0.9515(10) 0.484(3) 0.5697(17)
C29 C 0.9745(8) 0.518(3) 0.5041(19)
N5 N 0.9486(10) 0.583(3) 0.4474(15)
C30 C 0.8996(10) 0.613(2) 0.4563(15)
C31 C 0.6677(12) 0.661(4) 0.493(2)
C32 C 0.6181(8) 0.608(3) 0.5007(17)
C33 C 0.6117(8) 0.538(3) 0.5599(14)
C34 C 0.5647(11) 0.493(2) 0.5595(16)
C35 C 0.5242(8) 0.517(2) 0.5000(17)
N6 N 0.5305(8) 0.588(3) 0.4409(14)
C36 C 0.5775(10) 0.633(2) 0.4413(15)
O1 O 0.7507(8) 0.739(3) 0.3330(13)
O2 O 0.8253(8) 0.857(2) 0.4245(14)
O3 O 1.1732(7) 1.244(2) 0.2686(13)
O4 O 0.8020(8) 0.661(2) 0.4816(13)
O5 O 0.7987(8) 0.920(3) 0.3024(13)
O6 O 0.8133(8) 0.588(3) 0.6087(14)
O7 O 0.3206(10) 1.107(3) 0.7575(17)
O8 O 0.7021(8) 0.801(2) 0.6886(13)
O9 O 0.7040(8) 0.657(3) 0.5577(13)
O10 O 0.6750(8) 0.704(2) 0.4338(14)
O11 O 1.2036(7) 1.202(2) 0.3923(12)
O12 O 0.6889(9) 0.860(3) 0.5608(16)
O13 O 0.7661(10) 0.979(3) 0.5083(16)
O14 O 0.3054(10) 1.101(3) 0.6203(16)
O15 O 0.7388(10) 1.026(3) 0.1670(16)
Eu1 Eu 0.75242(6) 0.8488(3) 0.18957(12)
Eu2 Eu 0.74943(6) 0.8080(3) 0.47301(12)
C25B C 1.1733(13) 0.384(4) 0.461(2)
C26B C 1.1235(8) 0.422(3) 0.4782(16)
C27B C 1.0975(11) 0.486(3) 0.4215(14)
C28B C 1.0485(10) 0.516(3) 0.4303(17)
C29B C 1.0255(8) 0.482(3) 0.4959(19)
N5B N 1.0514(10) 0.417(3) 0.5526(15)
C30B C 1.1004(10) 0.387(2) 0.5437(15)
O4B O 1.1980(8) 0.339(2) 0.5184(13)
O6B O 1.1867(8) 0.412(3) 0.3913(14)
C31B C 0.3323(12) 0.339(4) 0.507(2)
C32B C 0.3819(8) 0.392(3) 0.4993(17)
C33B C 0.3883(8) 0.462(3) 0.4401(14)
C34B C 0.4353(11) 0.507(2) 0.4405(16)
C35B C 0.4758(8) 0.483(2) 0.5000(17)
N6B N 0.4695(8) 0.412(3) 0.5591(14)
C36B C 0.4225(10) 0.367(2) 0.5587(15)
O9B O 0.2960(8) 0.343(3) 0.4423(13)
O10B O 0.3250(8) 0.296(2) 0.5662(14)
C1B C 0.6651(11) -0.095(4) 0.310(2)
C2B C 0.6105(9) -0.066(4) 0.3199(19)
C3B C 0.5942(10) -0.045(4) 0.3950(15)
N1B N 0.5435(11) -0.022(4) 0.3982(14)
C4B C 0.5090(9) -0.019(4) 0.3262(19)
C5B C 0.5253(11) -0.040(4) 0.2510(15)
C6B C 0.5760(13) -0.063(4) 0.2478(15)
C7B C 0.3234(13) 0.149(4) 0.368(2)
C8B C 0.4649(9) 0.032(3) 0.3328(16)
C9B C 0.4324(13) 0.066(4) 0.2648(12)
C10B C 0.3855(11) 0.106(4) 0.2749(15)
C11B C 0.3711(9) 0.112(3) 0.3530(19)
C12B C 0.4035(10) 0.078(3) 0.4210(13)
N2B N 0.4504(9) 0.038(3) 0.4109(13)
C13B C 0.1657(12) 0.103(4) 0.637(2)
C14B C 0.1141(7) 0.065(2) 0.6498(15)
C15B C 0.1067(8) 0.001(2) 0.7128(14)
N3B N 0.0581(10) -0.033(2) 0.7199(14)
C16B C 0.0168(7) -0.002(2) 0.6638(16)
C17B C 0.0242(7) 0.062(2) 0.6008(14)
C18B C 0.0729(9) 0.096(2) 0.5938(13)
C19B C -0.1677(12) -0.206(4) 0.671(2)
C20B C -0.0317(8) -0.045(2) 0.6667(15)
N4B N -0.0387(8) -0.104(2) 0.7336(12)
C21B C -0.0841(9) -0.154(2) 0.7339(13)
C22B C -0.1225(8) -0.147(3) 0.6673(16)
C23B C -0.1155(8) -0.088(3) 0.6004(13)
C24B C -0.0701(10) -0.037(2) 0.6001(13)
O1B O 0.2493(8) 0.261(3) 0.6670(13)
O2B O 0.1747(8) 0.143(2) 0.5755(14)
O3B O -0.1732(7) -0.244(2) 0.7314(13)
O5B O 0.2013(8) 0.080(3) 0.6976(13)
O7B O 0.6794(10) -0.107(3) 0.2425(17)
O8B O 0.2979(8) 0.199(2) 0.3114(13)
O11B O -0.2036(7) -0.202(2) 0.6077(12)
O12B O 0.3111(9) 0.140(3) 0.4392(16)
O13B O 0.2339(10) 0.021(3) 0.4917(16)
O14B O 0.6946(10) -0.101(3) 0.3797(16)
O15B O 0.2612(10) -0.026(3) 0.8330(16)
Eu1B Eu 0.24758(6) 0.1512(3) 0.81043(12)
Eu2B Eu 0.25057(6) 0.1920(3) 0.52699(12)
O3A O 0.8268(7) 0.744(2) 0.2314(13)
O3C O 0.1732(7) 0.256(2) 0.7686(13)
O4B_2 O 0.1980(8) 0.339(2) 0.5184(13)
O6A O 0.1867(8) 0.088(3) 0.8913(14)
O6C O 0.8133(8) 0.912(3) 0.1087(14)
O7_2 O 0.3206(10) 0.107(3) 0.7575(17)
O7B_2 O 0.6794(10) 0.893(3) 0.2425(17)
O8A O 0.2979(8) 0.301(2) 0.8114(13)
O8C O 0.7021(8) 0.699(2) 0.1886(13)
O9A O 0.2960(8) 0.157(3) 0.9423(13)
O9C O 0.7040(8) 0.843(3) 0.0577(13)
O11_2 O 0.2036(7) 0.202(2) 0.3923(12)
O11A O 0.7964(7) 0.702(2) 0.1077(12)
O11B_2 O 0.7964(7) 0.798(2) 0.6077(12)
O11C O 0.2036(7) 0.298(2) 0.8923(12)
O14_2 O 0.3054(10) 0.101(3) 0.6203(16)
O14B_2 O 0.6946(10) 0.899(3) 0.3797(16)
Eu1_2 Eu 0.75242(6) -0.1512(3) 0.18957(12)
Eu1A Eu 0.24758(6) 0.3488(3) 0.31043(12)
Eu1A_2 Eu 1.24758(6) 0.3488(3) 0.31043(12)
Eu1A_3 Eu 1.24758(6) 1.3488(3) 0.31043(12)
Eu1B_2 Eu 0.24758(6) 1.1512(3) 0.81043(12)
Eu1C Eu -0.24758(6) -0.3488(3) 0.68957(12)
Eu1C_2 Eu 0.75242(6) 0.6512(3) 0.68957(12)
Eu2_2 Eu -0.25057(6) -0.1920(3) 0.47301(12)
Eu2_3 Eu 0.74943(6) -0.1920(3) 0.47301(12)
Eu2B_2 Eu 0.25057(6) 1.1920(3) 0.52699(12)
Eu2B_3 Eu 1.25057(6) 0.1920(3) 0.52699(12)
Eu2B_4 Eu 1.25057(6) 1.1920(3) 0.52699(12)
Cu1 Cu 0.9858(12) 0.423(4) 0.6724(18)
Cu2 Cu 0.4723 0.5634 0.3795
Cu3 Cu 0.5000 1.0000 0.5000
loop_
_geom_bond_atom_site_label_1
_geom_bond_atom_site_label_2
_geom_bond_site_symmetry_1
_geom_bond_site_symmetry_2
C1 C2 1_555 1_555
C2 C3 1_555 1_555
C3 N1 1_555 1_555
N1 C4 1_555 1_555
C4 C5 1_555 1_555
C5 C6 1_555 1_555
C6 C2 1_555 1_555
C7 C11 1_555 1_555
C8 C4 1_555 1_555
C9 C8 1_555 1_555
C10 C9 1_555 1_555
C11 C10 1_555 1_555
C12 C11 1_555 1_555
N2 C8 1_555 1_555
C13 C14 1_555 1_555
C14 C15 1_555 1_555
C15 N3 1_555 1_555
N3 C16 1_555 1_555
C16 C17 1_555 1_555
C17 C18 1_555 1_555
C18 C14 1_555 1_555
C19 C22 1_555 1_555
C20 C16 1_555 1_555
N4 C20 1_555 1_555
C21 N4 1_555 1_555
C22 C21 1_555 1_555
C23 C22 1_555 1_555
C24 C20 1_555 1_555
C25 C26 1_555 1_555
C26 C27 1_555 1_555
C27 C28 1_555 1_555
C28 C29 1_555 1_555
C29 N5 1_555 1_555
N5 C30 1_555 1_555
C30 C26 1_555 1_555
C31 C32 1_555 1_555
C32 C33 1_555 1_555
C33 C34 1_555 1_555
C34 C35 1_555 1_555
C35 N6 1_555 1_555
N6 C36 1_555 1_555
C36 C32 1_555 1_555
O1 Eu1 1_555 1_555
O2 C13 1_555 1_555
O3 C19 1_555 1_555
O4 C25 1_555 1_555
O5 C13 1_555 1_555
O6 C25 1_555 1_555
O7 C1 1_555 1_555
O8 C7 1_555 1_555
O9 C31 1_555 1_555
O10 C31 1_555 1_555
O11 C19 1_555 1_555
O12 C7 1_555 1_555
O13 Eu2 1_555 1_555
O14 C1 1_555 1_555
O15 Eu1 1_555 1_555
Eu1 O5 1_555 1_555
Eu2 O1 1_555 1_555
C25B C26B 1_555 1_555
C26B C27B 1_555 1_555
C27B C28B 1_555 1_555
C28B C29B 1_555 1_555
C29B C29 1_555 1_555
N5B C29B 1_555 1_555
C30B C26B 1_555 1_555
O4B C25B 1_555 1_555
O6B C25B 1_555 1_555
C31B C32B 1_555 1_555
C32B C33B 1_555 1_555
C33B C34B 1_555 1_555
C34B C35B 1_555 1_555
C35B C35 1_555 1_555
N6B C35B 1_555 1_555
C36B C32B 1_555 1_555
O9B C31B 1_555 1_555
O10B C31B 1_555 1_555
C1B C2B 1_555 1_555
C2B C3B 1_555 1_555
C3B N1B 1_555 1_555
N1B C4B 1_555 1_555
C4B C5B 1_555 1_555
C5B C6B 1_555 1_555
C6B C2B 1_555 1_555
C7B C11B 1_555 1_555
C8B C4B 1_555 1_555
C9B C8B 1_555 1_555
C10B C9B 1_555 1_555
C11B C10B 1_555 1_555
C12B C11B 1_555 1_555
N2B C8B 1_555 1_555
C13B C14B 1_555 1_555
C14B C15B 1_555 1_555
C15B N3B 1_555 1_555
N3B C16B 1_555 1_555
C16B C17B 1_555 1_555
C17B C18B 1_555 1_555
C18B C14B 1_555 1_555
C19B C22B 1_555 1_555
C20B C16B 1_555 1_555
N4B C20B 1_555 1_555
C21B N4B 1_555 1_555
C22B C21B 1_555 1_555
C23B C22B 1_555 1_555
C24B C20B 1_555 1_555
O1B Eu1B 1_555 1_555
O2B C13B 1_555 1_555
O3B C19B 1_555 1_555
O5B C13B 1_555 1_555
O7B C1B 1_555 1_555
O8B C7B 1_555 1_555
O11B C19B 1_555 1_555
O12B C7B 1_555 1_555
O13B Eu2B 1_555 1_555
O14B C1B 1_555 1_555
O15B Eu1B 1_555 1_555
Eu1B O5B 1_555 1_555
Eu2B O9B 1_555 1_555
O3A Eu1 1_555 1_555
O3C Eu1B 1_555 1_555
O4B_2 Eu2B 1_555 1_555
O6A Eu1B 1_555 1_555
O6C Eu1 1_555 1_555
O7_2 Eu1B 1_555 1_555
O7B_2 Eu1 1_555 1_555
O8A Eu1B 1_555 1_555
O8C Eu1 1_555 1_555
O9A Eu1B 1_555 1_555
O9C Eu1 1_555 1_555
O11_2 Eu2B 1_555 1_555
O11A Eu1 1_555 1_555
O11B_2 Eu2 1_555 1_555
O11C Eu1B 1_555 1_555
O14_2 Eu2B 1_555 1_555
O14B_2 Eu2 1_555 1_555
Eu1_2 O7B 1_555 1_555
Eu1A O9B 1_555 1_555
Eu1A_2 O6B 1_555 1_555
Eu1A_3 O3 1_555 1_555
Eu1B_2 O7 1_555 1_555
Eu1C O3B 1_555 1_555
Eu1C_2 O6 1_555 1_555
Eu2_2 O11B 1_555 1_555
Eu2_3 O14B 1_555 1_555
Eu2B_2 O14 1_555 1_555
Eu2B_3 O4B 1_555 1_555
Eu2B_4 O11 1_555 1_555
C12 N2 1_555 1_555
C23 C24 1_555 1_555
O2 Eu2 1_555 1_555
O4 Eu2 1_555 1_555
O8 Eu1C_2 1_555 1_555
O9 Eu2 1_555 1_555
O9 Eu1C_2 1_555 1_555
O10 Eu2 1_555 1_555
O11 Eu1A_3 1_555 1_555
O12 Eu2 1_555 1_555
N5B C30B 1_555 1_555
N6B C36B 1_555 1_555
O10B Eu2B 1_555 1_555
C12B N2B 1_555 1_555
C23B C24B 1_555 1_555
O1B Eu2B 1_555 1_555
O2B Eu2B 1_555 1_555
O8B Eu1A 1_555 1_555
O11B Eu1C 1_555 1_555
O12B Eu2B 1_555 1_555
O11_2 Eu1A 1_555 1_555
O11B_2 Eu1C_2 1_555 1_555

#END
