
#######################################################################
#
#                 Cambridge Crystallographic Data Centre
#                                CCDC 
#
#######################################################################
#
# If this CIF has been generated from an entry in the Cambridge 
# Structural Database, then it will include bibliographic, chemical, 
# crystal, experimental, refinement or atomic coordinate data resulting 
# from the CCDC's data processing and validation procedures.
#
#######################################################################

data_SUKKOA
_chemical_formula_moiety         'C152 Cu20 N12 O31'
_symmetry_cell_setting           rhombohedral
_symmetry_space_group_name_H-M   'R -3 m'
_symmetry_Int_Tables_number      166
_space_group_name_Hall           '-R 3 2"'
loop_
_symmetry_equiv_pos_site_id
_symmetry_equiv_pos_as_xyz
1 x,y,z
2 -y,x-y,z
3 y,x,-z
4 -x+y,-x,z
5 x-y,-y,-z
6 -x,-x+y,-z
7 2/3+x,1/3+y,1/3+z
8 2/3-y,1/3+x-y,1/3+z
9 2/3+y,1/3+x,1/3-z
10 2/3-x+y,1/3-x,1/3+z
11 2/3+x-y,1/3-y,1/3-z
12 2/3-x,1/3-x+y,1/3-z
13 1/3+x,2/3+y,2/3+z
14 1/3-y,2/3+x-y,2/3+z
15 1/3+y,2/3+x,2/3-z
16 1/3-x+y,2/3-x,2/3+z
17 1/3+x-y,2/3-y,2/3-z
18 1/3-x,2/3-x+y,2/3-z
19 -x,-y,-z
20 y,-x+y,-z
21 -y,-x,z
22 x-y,x,-z
23 -x+y,y,z
24 x,x-y,z
25 1/3-x,2/3-y,2/3-z
26 1/3+y,2/3-x+y,2/3-z
27 1/3-y,2/3-x,2/3+z
28 1/3+x-y,2/3+x,2/3-z
29 1/3-x+y,2/3+y,2/3+z
30 1/3+x,2/3+x-y,2/3+z
31 2/3-x,1/3-y,1/3-z
32 2/3+y,1/3-x+y,1/3-z
33 2/3-y,1/3-x,1/3+z
34 2/3+x-y,1/3+x,1/3-z
35 2/3-x+y,1/3+y,1/3+z
36 2/3+x,1/3+x-y,1/3+z
_cell_length_a                   18.5943(3)
_cell_length_b                   18.5943(3)
_cell_length_c                   38.7113(6)
_cell_angle_alpha                90
_cell_angle_beta                 90
_cell_angle_gamma                120
_cell_volume                     11591.2
loop_
_atom_site_label
_atom_site_type_symbol
_atom_site_fract_x
_atom_site_fract_y
_atom_site_fract_z
Cu1 Cu 0.857031(16) 0.71406(3) 0.638756(13)
N1 N 0.498(2) 0.6153(16) 0.5543(4)
O1 O 0.74436(17) 0.63663(16) 0.62256(6)
O2 O 0.70504(17) 0.55682(15) 0.66957(6)
O3 O 0.8939(2) 0.7878(4) 0.59316(13)
C1 C 0.6943(2) 0.5749(2) 0.63958(8)
C2 C 0.6133(2) 0.5156(2) 0.62243(9)
C3 C 0.55584(17) 0.44416(17) 0.63924(12)
C4 C 0.5985(3) 0.5293(3) 0.58831(12)
C5 C 0.5272(3) 0.4728(3) 0.5714(2)
C6 C 0.5029(6) 0.4971(6) 0.5373(5)
C7 C 0.4999(11) 0.4430(8) 0.5118(6)
C8 C 0.4891(18) 0.4580(11) 0.4776(5)
C9 C 0.4777(5) 0.5223(5) 0.4684(5)
C10 C 0.4898(18) 0.5824(10) 0.4936(4)
C11 C 0.4809(18) 0.6504(13) 0.4858(4)
C12 C 0.474(2) 0.6966(16) 0.5123(5)
C13 C 0.488(3) 0.684(2) 0.5462(4)
C14 C 0.4984(18) 0.5663(12) 0.5279(5)
N1B N 0.6153(16) 0.498(2) 0.4457(4)
O1B O 0.63663(16) 0.74436(17) 0.37744(6)
O2B O 0.55682(15) 0.70504(17) 0.33043(6)
C1B C 0.5749(2) 0.6943(2) 0.36042(8)
C2B C 0.5156(2) 0.6133(2) 0.37757(9)
C3B C 0.44416(17) 0.55584(17) 0.36076(12)
C4B C 0.5293(3) 0.5985(3) 0.41169(12)
C5B C 0.4728(3) 0.5272(3) 0.4286(2)
C6B C 0.4971(6) 0.5029(6) 0.4627(5)
C7B C 0.4430(8) 0.4999(11) 0.4882(6)
C8B C 0.4580(11) 0.4891(18) 0.5224(5)
C9B C 0.5223(5) 0.4777(5) 0.5316(5)
C10B C 0.5824(10) 0.4898(18) 0.5064(4)
C11B C 0.6504(13) 0.4809(18) 0.5142(4)
C12B C 0.6966(16) 0.474(2) 0.4877(5)
C13B C 0.684(2) 0.488(3) 0.4538(4)
C14B C 0.5663(12) 0.4984(18) 0.4721(5)
N1R N 0.502(2) 0.3847(16) 0.4457(4)
O1R O 0.25564(17) 0.36337(16) 0.37744(6)
O2R O 0.29496(17) 0.44318(15) 0.33043(6)
C1R C 0.3057(2) 0.4251(2) 0.36042(8)
C2R C 0.3867(2) 0.4844(2) 0.37757(9)
C4R C 0.4015(3) 0.4707(3) 0.41169(12)
C7R C 0.5001(11) 0.5570(8) 0.4882(6)
C8R C 0.5109(18) 0.5420(11) 0.5224(5)
C10R C 0.5102(18) 0.4176(10) 0.5064(4)
C11R C 0.5191(18) 0.3496(13) 0.5142(4)
C12R C 0.526(2) 0.3034(16) 0.4877(5)
C13R C 0.512(3) 0.316(2) 0.4538(4)
C14R C 0.5016(18) 0.4337(12) 0.4721(5)
N1T N 0.3847(16) 0.502(2) 0.5543(4)
O1T O 0.36337(16) 0.25564(17) 0.62256(6)
O2T O 0.44318(15) 0.29496(17) 0.66957(6)
C1T C 0.4251(2) 0.3057(2) 0.63958(8)
C2T C 0.4844(2) 0.3867(2) 0.62243(9)
C4T C 0.4707(3) 0.4015(3) 0.58831(12)
C7T C 0.5570(8) 0.5001(11) 0.5118(6)
C8T C 0.5420(11) 0.5109(18) 0.4776(5)
C10T C 0.4176(10) 0.5102(18) 0.4936(4)
C11T C 0.3496(13) 0.5191(18) 0.4858(4)
C12T C 0.3034(16) 0.526(2) 0.5123(5)
C13T C 0.316(2) 0.512(3) 0.5462(4)
C14T C 0.4337(12) 0.5016(18) 0.5279(5)
Cu1A Cu 0.28594(3) 0.142971(34) 0.638756(13)
N1A N 0.3847(16) -0.1173(26) 0.5543(4)
O1A O 0.36337(16) 0.10773(23) 0.62256(6)
O2A O 0.44318(15) 0.14822(23) 0.66957(6)
O3A O 0.2122(4) 0.1061(4) 0.59316(13)
C1A C 0.4251(2) 0.1194(3) 0.63958(8)
C2A C 0.4844(2) 0.0977(3) 0.62243(9)
C3A C 0.55584(17) 0.11168(24) 0.63924(12)
C4A C 0.4707(3) 0.0692(4) 0.58831(12)
C5A C 0.5272(3) 0.0544(4) 0.5714(2)
C6A C 0.5029(6) 0.0058(8) 0.5373(5)
C7A C 0.5570(8) 0.0569(14) 0.5118(6)
C8A C 0.5420(11) 0.0311(21) 0.4776(5)
C9A C 0.4777(5) -0.0446(7) 0.4684(5)
C10A C 0.4176(10) -0.0926(21) 0.4936(4)
C11A C 0.3496(13) -0.1695(22) 0.4858(4)
C12A C 0.3034(16) -0.2226(26) 0.5123(5)
C13A C 0.316(2) -0.196(4) 0.5462(4)
C14A C 0.4337(12) -0.0679(22) 0.5279(5)
N1E N 0.502(2) 0.1173(26) 0.4457(4)
O1E O 0.25564(17) -0.10773(23) 0.37744(6)
O2E O 0.29496(17) -0.14822(23) 0.33043(6)
C1E C 0.3057(2) -0.1194(3) 0.36042(8)
C2E C 0.3867(2) -0.0977(3) 0.37757(9)
C3E C 0.44416(17) -0.11168(24) 0.36076(12)
C4E C 0.4015(3) -0.0692(4) 0.41169(12)
C5E C 0.4728(3) -0.0544(4) 0.4286(2)
C6E C 0.4971(6) -0.0058(8) 0.4627(5)
C7E C 0.5001(11) -0.0569(14) 0.4882(6)
C8E C 0.5109(18) -0.0311(21) 0.5224(5)
C9E C 0.5223(5) 0.0446(7) 0.5316(5)
C10E C 0.5102(18) 0.0926(21) 0.5064(4)
C11E C 0.5191(18) 0.1695(22) 0.5142(4)
C12E C 0.526(2) 0.2226(26) 0.4877(5)
C13E C 0.512(3) 0.196(4) 0.4538(4)
C14E C 0.5016(18) 0.0679(22) 0.4721(5)
N1S N 0.6153(16) 0.1173(26) 0.4457(4)
O1S O 0.63663(16) -0.10773(23) 0.37744(6)
O2S O 0.55682(15) -0.14822(23) 0.33043(6)
C1S C 0.5749(2) -0.1194(3) 0.36042(8)
C2S C 0.5156(2) -0.0977(3) 0.37757(9)
C4S C 0.5293(3) -0.0692(4) 0.41169(12)
C7S C 0.4430(8) -0.0569(14) 0.4882(6)
C8S C 0.4580(11) -0.0311(21) 0.5224(5)
C10S C 0.5824(10) 0.0926(21) 0.5064(4)
C11S C 0.6504(13) 0.1695(22) 0.5142(4)
C12S C 0.6966(16) 0.2226(26) 0.4877(5)
C13S C 0.684(2) 0.196(4) 0.4538(4)
C14S C 0.5663(12) 0.0679(22) 0.4721(5)
N1W N 0.498(2) -0.1173(26) 0.5543(4)
O1W O 0.74436(17) 0.10773(23) 0.62256(6)
O2W O 0.70504(17) 0.14822(23) 0.66957(6)
C1W C 0.6943(2) 0.1194(3) 0.63958(8)
C2W C 0.6133(2) 0.0977(3) 0.62243(9)
C4W C 0.5985(3) 0.0692(4) 0.58831(12)
C7W C 0.4999(11) 0.0569(14) 0.5118(6)
C8W C 0.4891(18) 0.0311(21) 0.4776(5)
C10W C 0.4898(18) -0.0926(21) 0.4936(4)
C11W C 0.4809(18) -0.1695(22) 0.4858(4)
C12W C 0.474(2) -0.2226(26) 0.5123(5)
C13W C 0.488(3) -0.196(4) 0.5462(4)
C14W C 0.4984(18) -0.0679(22) 0.5279(5)
N1C N 0.1173(26) 0.502(2) 0.5543(4)
O1C O -0.10773(23) 0.25564(17) 0.62256(6)
O2C O -0.14822(23) 0.29496(17) 0.66957(6)
C1C C -0.1194(3) 0.3057(2) 0.63958(8)
C2C C -0.0977(3) 0.3867(2) 0.62243(9)
C3C C -0.11168(24) 0.44416(17) 0.63924(12)
C4C C -0.0692(4) 0.4015(3) 0.58831(12)
C5C C -0.0544(4) 0.4728(3) 0.5714(2)
C6C C -0.0058(8) 0.4971(6) 0.5373(5)
C7C C -0.0569(14) 0.5001(11) 0.5118(6)
C8C C -0.0311(21) 0.5109(18) 0.4776(5)
C9C C 0.0446(7) 0.5223(5) 0.4684(5)
C10C C 0.0926(21) 0.5102(18) 0.4936(4)
C11C C 0.1695(22) 0.5191(18) 0.4858(4)
C12C C 0.2226(26) 0.526(2) 0.5123(5)
C13C C 0.196(4) 0.512(3) 0.5462(4)
C14C C 0.0679(22) 0.5016(18) 0.5279(5)
N1D N -0.1173(26) 0.3847(16) 0.4457(4)
O1D O 0.10773(23) 0.36337(16) 0.37744(6)
O2D O 0.14822(23) 0.44318(15) 0.33043(6)
C1D C 0.1194(3) 0.4251(2) 0.36042(8)
C2D C 0.0977(3) 0.4844(2) 0.37757(9)
C3D C 0.11168(24) 0.55584(17) 0.36076(12)
C4D C 0.0692(4) 0.4707(3) 0.41169(12)
C5D C 0.0544(4) 0.5272(3) 0.4286(2)
C6D C 0.0058(8) 0.5029(6) 0.4627(5)
C7D C 0.0569(14) 0.5570(8) 0.4882(6)
C8D C 0.0311(21) 0.5420(11) 0.5224(5)
C9D C -0.0446(7) 0.4777(5) 0.5316(5)
C10D C -0.0926(21) 0.4176(10) 0.5064(4)
C11D C -0.1695(22) 0.3496(13) 0.5142(4)
C12D C -0.2226(26) 0.3034(16) 0.4877(5)
C13D C -0.196(4) 0.316(2) 0.4538(4)
C14D C -0.0679(22) 0.4337(12) 0.4721(5)
N1U N -0.1173(26) 0.498(2) 0.4457(4)
O1U O 0.10773(23) 0.74436(17) 0.37744(6)
O2U O 0.14822(23) 0.70504(17) 0.33043(6)
C1U C 0.1194(3) 0.6943(2) 0.36042(8)
C2U C 0.0977(3) 0.6133(2) 0.37757(9)
C4U C 0.0692(4) 0.5985(3) 0.41169(12)
C7U C 0.0569(14) 0.4999(11) 0.4882(6)
C8U C 0.0311(21) 0.4891(18) 0.5224(5)
C10U C -0.0926(21) 0.4898(18) 0.5064(4)
C11U C -0.1695(22) 0.4809(18) 0.5142(4)
C12U C -0.2226(26) 0.474(2) 0.4877(5)
C13U C -0.196(4) 0.488(3) 0.4538(4)
C14U C -0.0679(22) 0.4984(18) 0.4721(5)
N1V N 0.1173(26) 0.6153(16) 0.5543(4)
O1V O -0.10773(23) 0.63663(16) 0.62256(6)
O2V O -0.14822(23) 0.55682(15) 0.66957(6)
C1V C -0.1194(3) 0.5749(2) 0.63958(8)
C2V C -0.0977(3) 0.5156(2) 0.62243(9)
C4V C -0.0692(4) 0.5293(3) 0.58831(12)
C7V C -0.0569(14) 0.4430(8) 0.5118(6)
C8V C -0.0311(21) 0.4580(11) 0.4776(5)
C10V C 0.0926(21) 0.5824(10) 0.4936(4)
C11V C 0.1695(22) 0.6504(13) 0.4858(4)
C12V C 0.2226(26) 0.6966(16) 0.5123(5)
C13V C 0.196(4) 0.684(2) 0.5462(4)
C14V C 0.0679(22) 0.5663(12) 0.5279(5)
Cu1_2 Cu -0.142969(16) 0.71406(3) 0.638756(13)
Cu1B Cu 0.71406(3) -0.142969(16) 0.361244(13)
Cu1B_2 Cu 0.71406(3) 0.857031(16) 0.361244(13)
Cu1C Cu -0.142971(34) 0.142969(16) 0.638756(13)
Cu1C_2 Cu 0.857029(34) 0.142969(16) 0.638756(13)
Cu1D Cu 0.142971(34) 0.28594(3) 0.361244(13)
Cu1E Cu 0.142969(16) -0.142971(34) 0.361244(13)
Cu1E_2 Cu 0.142969(16) 0.857029(34) 0.361244(13)
Cu1H Cu 0.38073(3) 0.190364(16) 0.694577(13)
Cu1J Cu -0.190362(34) 0.61927(3) 0.694577(13)
Cu1J_2 Cu 0.809638(34) 0.61927(3) 0.694577(13)
Cu1K Cu -0.190364(16) 0.190362(34) 0.694577(13)
Cu1K_2 Cu 0.809636(16) 0.190362(34) 0.694577(13)
Cu1L Cu 0.190364(16) 0.38073(3) 0.305423(13)
Cu1M Cu 0.61927(3) -0.190362(34) 0.305423(13)
Cu1M_2 Cu 0.61927(3) 0.809638(34) 0.305423(13)
Cu1O Cu 0.190362(34) -0.190364(16) 0.305423(13)
Cu1O_2 Cu 0.190362(34) 0.809636(16) 0.305423(13)
O1V_2 O 0.89227(23) 0.63663(16) 0.62256(6)
O2H O 0.22349(15) 0.03837(17) 0.66376(6)
O2J O 0.81489(23) 0.77651(15) 0.66376(6)
O2DA O 0.96163(17) 0.77651(15) 0.66376(6)
O2EA O 0.22349(15) 0.18511(23) 0.66376(6)
C12_2 C 0.474(2) -0.3034(16) 0.5123(5)
C12A_2 C 0.3034(16) 0.7774(26) 0.5123(5)
C12B_2 C -0.3034(16) 0.474(2) 0.4877(5)
C12D_2 C 0.7774(26) 0.3034(16) 0.4877(5)
C12S_2 C -0.3034(16) 0.2226(26) 0.4877(5)
C12U_2 C 0.7774(26) 0.474(2) 0.4877(5)
C12V_2 C 0.2226(26) -0.3034(16) 0.5123(5)
C12W_2 C 0.474(2) 0.7774(26) 0.5123(5)
loop_
_geom_bond_atom_site_label_1
_geom_bond_atom_site_label_2
_geom_bond_site_symmetry_1
_geom_bond_site_symmetry_2
Cu1 O1 1_555 1_555
N1 C13 1_555 1_555
O1 C1 1_555 1_555
O2 C1 1_555 1_555
O3 Cu1 1_555 1_555
C1 C2 1_555 1_555
C2 C3 1_555 1_555
C3 C2T 1_555 1_555
C4 C2 1_555 1_555
C5 C4 1_555 1_555
C6 C5 1_555 1_555
C7 C9B 1_555 1_555
C8 C6B 1_555 1_555
C9 C10 1_555 1_555
C10 C11 1_555 1_555
C11 C12 1_555 1_555
C12 C13 1_555 1_555
C14 N1 1_555 1_555
N1B C13B 1_555 1_555
O1B C1B 1_555 1_555
O2B C1B 1_555 1_555
C1B C2B 1_555 1_555
C2B C3B 1_555 1_555
C3B C2R 1_555 1_555
C4B C2B 1_555 1_555
C5B C9 1_555 1_555
C6B C9 1_555 1_555
C7B C9 1_555 1_555
C8B C6 1_555 1_555
C9B C5 1_555 1_555
C10B C9B 1_555 1_555
C11B C10B 1_555 1_555
C12B C11B 1_555 1_555
C13B C12B 1_555 1_555
C14B N1B 1_555 1_555
N1R C13R 1_555 1_555
O1R C1R 1_555 1_555
O2R C1R 1_555 1_555
C1R C2R 1_555 1_555
C2R C4R 1_555 1_555
C4R C5B 1_555 1_555
C7R C9 1_555 1_555
C8R C6 1_555 1_555
C10R C9B 1_555 1_555
C11R C10R 1_555 1_555
C12R C11R 1_555 1_555
C13R C12R 1_555 1_555
C14R C6B 1_555 1_555
N1T C13T 1_555 1_555
O1T C1T 1_555 1_555
O2T C1T 1_555 1_555
C1T C2T 1_555 1_555
C2T C4T 1_555 1_555
C4T C5 1_555 1_555
C7T C7 1_555 1_555
C8T C8 1_555 1_555
C10T C9 1_555 1_555
C11T C10T 1_555 1_555
C12T C11T 1_555 1_555
C13T C12T 1_555 1_555
C14T C6 1_555 1_555
Cu1A O1T 1_555 1_555
N1A C13A 1_555 1_555
O1A Cu1A 1_555 1_555
O2A C1A 1_555 1_555
O3A Cu1A 1_555 1_555
C1A O1A 1_555 1_555
C2A C1A 1_555 1_555
C3A C2A 1_555 1_555
C4A C2A 1_555 1_555
C5A C4A 1_555 1_555
C6A C5A 1_555 1_555
C7A C9E 1_555 1_555
C8A C6E 1_555 1_555
C9A C10A 1_555 1_555
C10A C11A 1_555 1_555
C11A C12A 1_555 1_555
C12A C13A 1_555 1_555
C14A N1A 1_555 1_555
N1E C13E 1_555 1_555
O1E C1E 1_555 1_555
O2E C1E 1_555 1_555
C1E C2E 1_555 1_555
C2E C3E 1_555 1_555
C3E C2S 1_555 1_555
C4E C2E 1_555 1_555
C5E C9A 1_555 1_555
C6E C9A 1_555 1_555
C7E C9A 1_555 1_555
C8E C6A 1_555 1_555
C9E C5A 1_555 1_555
C10E C9E 1_555 1_555
C11E C10E 1_555 1_555
C12E C12R 1_555 1_555
C13E C12E 1_555 1_555
C14E N1E 1_555 1_555
N1S C13S 1_555 1_555
O1S C1S 1_555 1_555
O2S C1S 1_555 1_555
C1S C2S 1_555 1_555
C2S C4S 1_555 1_555
C4S C5E 1_555 1_555
C7S C9A 1_555 1_555
C8S C6A 1_555 1_555
C10S C9E 1_555 1_555
C11S C10S 1_555 1_555
C12S C11S 1_555 1_555
C13S C12S 1_555 1_555
C14S C6E 1_555 1_555
N1W C13W 1_555 1_555
O1W C1W 1_555 1_555
O2W C1W 1_555 1_555
C1W C2W 1_555 1_555
C2W C3A 1_555 1_555
C4W C5A 1_555 1_555
C7W C7A 1_555 1_555
C8W C8A 1_555 1_555
C10W C9A 1_555 1_555
C11W C10W 1_555 1_555
C12W C11W 1_555 1_555
C13W C12W 1_555 1_555
C14W C6A 1_555 1_555
N1C C13C 1_555 1_555
O1C C1C 1_555 1_555
O2C C1C 1_555 1_555
C1C C2C 1_555 1_555
C2C C3C 1_555 1_555
C3C C2V 1_555 1_555
C4C C2C 1_555 1_555
C5C C4C 1_555 1_555
C6C C5C 1_555 1_555
C7C C9D 1_555 1_555
C8C C6D 1_555 1_555
C9C C10C 1_555 1_555
C10C C11C 1_555 1_555
C11C C12C 1_555 1_555
C12C C12T 1_555 1_555
C13C C12C 1_555 1_555
C14C N1C 1_555 1_555
N1D C13D 1_555 1_555
O1D C1D 1_555 1_555
O2D C1D 1_555 1_555
C1D C2D 1_555 1_555
C2D C3D 1_555 1_555
C3D C2U 1_555 1_555
C4D C2D 1_555 1_555
C5D C9C 1_555 1_555
C6D C9C 1_555 1_555
C7D C9C 1_555 1_555
C8D C6C 1_555 1_555
C9D C5C 1_555 1_555
C10D C9D 1_555 1_555
C11D C10D 1_555 1_555
C12D C11D 1_555 1_555
C13D C12D 1_555 1_555
C14D N1D 1_555 1_555
N1U C13U 1_555 1_555
O1U C1U 1_555 1_555
O2U C1U 1_555 1_555
C1U C2U 1_555 1_555
C2U C4U 1_555 1_555
C4U C5D 1_555 1_555
C7U C9C 1_555 1_555
C8U C6C 1_555 1_555
C10U C9D 1_555 1_555
C11U C10U 1_555 1_555
C12U C11U 1_555 1_555
C13U C12U 1_555 1_555
C14U C6D 1_555 1_555
N1V C13V 1_555 1_555
O1V C1V 1_555 1_555
O2V C1V 1_555 1_555
C1V C2V 1_555 1_555
C2V C4V 1_555 1_555
C4V C5C 1_555 1_555
C7V C7C 1_555 1_555
C8V C8C 1_555 1_555
C10V C9C 1_555 1_555
C11V C10V 1_555 1_555
C12V C11V 1_555 1_555
C13V C12V 1_555 1_555
C14V C6C 1_555 1_555
Cu1_2 O1V 1_555 1_555
Cu1B O1S 1_555 1_555
Cu1B_2 O1B 1_555 1_555
Cu1C O1C 1_555 1_555
Cu1C_2 O1W 1_555 1_555
Cu1D O1R 1_555 1_555
Cu1E O1E 1_555 1_555
Cu1E_2 O1U 1_555 1_555
Cu1H O2T 1_555 1_555
Cu1J O2V 1_555 1_555
Cu1J_2 O2 1_555 1_555
Cu1K O2C 1_555 1_555
Cu1K_2 O2W 1_555 1_555
Cu1L O2R 1_555 1_555
Cu1M O2S 1_555 1_555
Cu1M_2 O2B 1_555 1_555
Cu1O O2E 1_555 1_555
Cu1O_2 O2U 1_555 1_555
O1V_2 Cu1 1_555 1_555
O2H Cu1A 1_555 1_555
O2J Cu1 1_555 1_555
O2DA Cu1 1_555 1_555
O2EA Cu1A 1_555 1_555
C12_2 C12W 1_555 1_555
C12A_2 C12V 1_555 1_555
C12B_2 C12U 1_555 1_555
C12D_2 C12S 1_555 1_555
C12S_2 C12D 1_555 1_555
C12U_2 C12B 1_555 1_555
C12V_2 C12A 1_555 1_555
C12W_2 C12 1_555 1_555
C6 C14 1_555 1_555
C6 C9B 1_555 1_555
C10 C14 1_555 1_555
C10 C10T 1_555 1_555
C14 C14T 1_555 1_555
C4B C5B 1_555 1_555
C5B C6B 1_555 1_555
C6B C14B 1_555 1_555
C6B C8T 1_555 1_555
C7B C7R 1_555 1_555
C8B C8R 1_555 1_555
C9B C7T 1_555 1_555
C10B C14B 1_555 1_555
C10B C10R 1_555 1_555
C14B C14R 1_555 1_555
N1R C14R 1_555 1_555
C10R C14R 1_555 1_555
N1T C14T 1_555 1_555
C10T C14T 1_555 1_555
O2A Cu1H 1_555 1_555
C6A C14A 1_555 1_555
C6A C9E 1_555 1_555
C10A C14A 1_555 1_555
C10A C10W 1_555 1_555
C14A C14W 1_555 1_555
C4E C5E 1_555 1_555
C5E C6E 1_555 1_555
C6E C14E 1_555 1_555
C6E C8W 1_555 1_555
C7E C7S 1_555 1_555
C8E C8S 1_555 1_555
C9E C7W 1_555 1_555
C10E C14E 1_555 1_555
C10E C10S 1_555 1_555
C11E C12E 1_555 1_555
C14E C14S 1_555 1_555
N1S C14S 1_555 1_555
C10S C14S 1_555 1_555
N1W C14W 1_555 1_555
C2W C4W 1_555 1_555
C10W C14W 1_555 1_555
C6C C14C 1_555 1_555
C6C C9D 1_555 1_555
C10C C14C 1_555 1_555
C10C C10V 1_555 1_555
C14C C14V 1_555 1_555
O1D Cu1D 1_555 1_555
O2D Cu1L 1_555 1_555
C4D C5D 1_555 1_555
C5D C6D 1_555 1_555
C6D C14D 1_555 1_555
C6D C8V 1_555 1_555
C7D C7U 1_555 1_555
C8D C8U 1_555 1_555
C9D C7V 1_555 1_555
C10D C14D 1_555 1_555
C10D C10U 1_555 1_555
C14D C14U 1_555 1_555
N1U C14U 1_555 1_555
C10U C14U 1_555 1_555
N1V C14V 1_555 1_555
C10V C14V 1_555 1_555

#END
