
#######################################################################
#
#                 Cambridge Crystallographic Data Centre
#                                CCDC 
#
#######################################################################
#
# If this CIF has been generated from an entry in the Cambridge 
# Structural Database, then it will include bibliographic, chemical, 
# crystal, experimental, refinement or atomic coordinate data resulting 
# from the CCDC's data processing and validation procedures.
#
#######################################################################

data_NIGMIA
_chemical_formula_moiety         'C13 H4 N1 O5 Zn2'
_symmetry_cell_setting           tetragonal
_symmetry_space_group_name_H-M   'I 4/m c m'
_symmetry_Int_Tables_number      140
_space_group_name_Hall           '-I 4 2c'
loop_
_symmetry_equiv_pos_site_id
_symmetry_equiv_pos_as_xyz
1 x,y,z
2 y,x,1/2-z
3 y,-x,z
4 -y,x,z
5 1/2+x,1/2+y,1/2+z
6 1/2+y,1/2+x,-z
7 1/2+y,1/2-x,1/2+z
8 1/2-y,1/2+x,1/2+z
9 -x,-y,z
10 x,-y,1/2-z
11 -x,y,1/2-z
12 -y,-x,1/2-z
13 1/2-x,1/2-y,1/2+z
14 1/2+x,1/2-y,-z
15 1/2-x,1/2+y,-z
16 1/2-y,1/2-x,-z
17 -x,-y,-z
18 -y,-x,1/2+z
19 -y,x,-z
20 y,-x,-z
21 1/2-x,1/2-y,1/2-z
22 1/2-y,1/2-x,z
23 1/2-y,1/2+x,1/2-z
24 1/2+y,1/2-x,1/2-z
25 x,y,-z
26 -x,y,1/2+z
27 x,-y,1/2+z
28 y,x,1/2+z
29 1/2+x,1/2+y,1/2-z
30 1/2-x,1/2+y,z
31 1/2+x,1/2-y,z
32 1/2+y,1/2+x,z
_cell_length_a                   15.3480(11)
_cell_length_b                   15.3480(11)
_cell_length_c                   18.938(3)
_cell_angle_alpha                90
_cell_angle_beta                 90
_cell_angle_gamma                90
_cell_volume                     4461.06
loop_
_atom_site_label
_atom_site_type_symbol
_atom_site_fract_x
_atom_site_fract_y
_atom_site_fract_z
_atom_site_U_iso_or_equiv
_atom_site_thermal_displace_type
Zn1 Zn -0.0000 -0.0000 0.32568(3) 0.0178 Uani
O1 O 0.10678(15) -0.07478(15) 0.30614(13) 0.0243 Uani
C1 C 0.1693(2) -0.2648(2) 0.2839(2) 0.0300 Uani
C2 C 0.11680(19) -0.11680(19) 0.2500 0.0220 Uani
C3 C 0.18596(19) -0.18596(19) 0.2500 0.0225 Uani
C4 C 0.0885(3) -0.2826(3) 0.3184(3) 0.0487 Uani
H1 H 0.0445 -0.2391 0.3195 0.0580 Uiso
C5 C 0.0739(4) -0.3603(4) 0.3495(5) 0.0773 Uani
H2 H 0.0194 -0.3713 0.3716 0.0930 Uiso
N1 N 0.0000 0.0000 0.4327(3) 0.0221 Uani
C6 C 0.0842(10) 0.0280(13) 0.4592(7) 0.0280 Uiso
H3 H 0.0971 0.0874 0.4417 0.0330 Uiso
H4 H 0.1301 -0.0117 0.4417 0.0330 Uiso
Zn1A Zn -0.0000 -0.0000 0.17432(3) 0.0178 Uani
O1B O -0.07478(15) -0.10678(15) 0.30614(13) 0.0243 Uani
O1C O 0.07478(15) 0.10678(15) 0.30614(13) 0.0243 Uani
O1H O -0.10678(15) 0.07478(15) 0.30614(13) 0.0243 Uani
O1K O 0.07478(15) -0.10678(15) 0.19386(13) 0.0243 Uani
C1EA C 0.2352(2) -0.3307(2) 0.2839(2) 0.0300 Uani
C1K C 0.2648(2) -0.1693(2) 0.2161(2) 0.0300 Uani
C5EA C 0.1397(4) -0.4261(4) 0.3495(5) 0.0773 Uani
C6B C 0.0280(13) -0.0842(10) 0.4592(7) 0.0280 Uiso
C6C C -0.0280(13) 0.0842(10) 0.4592(7) 0.0280 Uiso
C6H C -0.0842(10) -0.0280(13) 0.4592(7) 0.0280 Uiso
C6X C 0.0842(10) 0.0280(13) 0.5408(7) 0.0280 Uiso
loop_
_atom_site_aniso_label
_atom_site_aniso_U_11
_atom_site_aniso_U_22
_atom_site_aniso_U_33
_atom_site_aniso_U_23
_atom_site_aniso_U_13
_atom_site_aniso_U_12
Zn1 0.0157(3) 0.0157(3) 0.0221(4) 0.000 0.000 0.000
O1 0.0190(10) 0.0214(10) 0.0326(11) -0.0020(9) -0.0014(9) 0.0034(8)
C1 0.0195(14) 0.0216(14) 0.049(2) 0.0070(13) 0.0076(13) 0.0054(11)
C2 0.0155(10) 0.0155(10) 0.035(2) 0.0008(11) 0.0008(11) 0.0025(13)
C3 0.0175(11) 0.0175(11) 0.0326(19) 0.0011(11) 0.0011(11) 0.0051(13)
C4 0.0280(19) 0.0311(19) 0.087(4) 0.019(2) 0.022(2) 0.0118(15)
C5 0.039(2) 0.045(3) 0.148(6) 0.046(3) 0.047(3) 0.014(2)
N1 0.0227(15) 0.0227(15) 0.021(2) 0.000 0.000 0.000
Zn1A 0.0157 0.0157 0.0221 0 0 0
O1B 0.0214 0.019 0.0326 0.0014 -0.002 -0.0034
O1C 0.0214 0.019 0.0326 -0.0014 0.002 -0.0034
O1H 0.019 0.0214 0.0326 0.002 0.0014 0.0034
O1K 0.0214 0.019 0.0326 -0.0014 -0.002 0.0034
C1EA 0.0216 0.0195 0.049 0.0076 0.007 0.0054
C1K 0.0216 0.0195 0.049 0.0076 0.007 0.0054
C5EA 0.045 0.039 0.148 0.047 0.046 0.014
loop_
_geom_bond_atom_site_label_1
_geom_bond_atom_site_label_2
_geom_bond_site_symmetry_1
_geom_bond_site_symmetry_2
Zn1 O1 1_555 1_555
O1 C2 1_555 1_555
C1 C3 1_555 1_555
C2 C3 1_555 1_555
C3 C1K 1_555 1_555
C4 C1 1_555 1_555
H1 C4 1_555 1_555
C5 C4 1_555 1_555
H2 C5 1_555 1_555
N1 Zn1 1_555 1_555
C6 N1 1_555 1_555
H3 C6 1_555 1_555
H4 C6 1_555 1_555
Zn1A Zn1 1_555 1_555
O1B Zn1 1_555 1_555
O1C Zn1 1_555 1_555
O1H Zn1 1_555 1_555
O1K C2 1_555 1_555
C1EA C1 1_555 1_555
C5EA C5 1_555 1_555
C6B N1 1_555 1_555
C6C N1 1_555 1_555
C6H N1 1_555 1_555
C6X C6 1_555 1_555
Zn1A O1K 1_555 1_555

#END
