
#######################################################################
#
#                 Cambridge Crystallographic Data Centre
#                                CCDC 
#
#######################################################################
#
# If this CIF has been generated from an entry in the Cambridge 
# Structural Database, then it will include bibliographic, chemical, 
# crystal, experimental, refinement or atomic coordinate data resulting 
# from the CCDC's data processing and validation procedures.
#
#######################################################################

data_IPIHIA
_chemical_formula_moiety         '(C34 H36 Cd2 N12 O13)n'
_symmetry_cell_setting           monoclinic
_symmetry_space_group_name_H-M   'C 2/c'
_symmetry_Int_Tables_number      15
_space_group_name_Hall           '-C 2yc'
loop_
_symmetry_equiv_pos_site_id
_symmetry_equiv_pos_as_xyz
1 x,y,z
2 -x,y,1/2-z
3 1/2+x,1/2+y,z
4 1/2-x,1/2+y,1/2-z
5 -x,-y,-z
6 x,-y,1/2+z
7 1/2-x,1/2-y,-z
8 1/2+x,1/2-y,1/2+z
_cell_length_a                   27.108(8)
_cell_length_b                   10.673(2)
_cell_length_c                   16.641(5)
_cell_angle_alpha                90
_cell_angle_beta                 104.241(8)
_cell_angle_gamma                90
_cell_volume                     4666.68
loop_
_atom_site_label
_atom_site_type_symbol
_atom_site_fract_x
_atom_site_fract_y
_atom_site_fract_z
_atom_site_U_iso_or_equiv
_atom_site_thermal_displace_type
Cd1 Cd 0.28708(2) 0.79005(5) 0.16713(3) 0.0337 Uani
O1 O 0.2295(2) 0.4136(5) 0.4575(3) 0.0403 Uani
O2 O 0.2183(2) 0.5092(6) 0.3381(3) 0.0482 Uani
O3 O 0.2707(2) 0.7900(6) 0.2943(3) 0.0456 Uani
O4 O 0.3186(3) 0.6283(6) 0.3518(4) 0.0582 Uani
O5 O 0.3025(2) 0.6134(6) 0.1007(4) 0.0461 Uani
H1 H 0.305(3) 0.557(2) 0.1414(19) 0.0550 Uiso
H2 H 0.2706(15) 0.603(8) 0.070(4) 0.0550 Uiso
N1 N 0.1227(3) 0.7168(8) 0.0607(5) 0.0544 Uani
N2 N 0.1297(3) 0.6382(10) 0.1275(6) 0.0730 Uani
N3 N 0.2019(3) 0.7401(7) 0.1273(4) 0.0410 Uani
N4 N -0.0658(3) 0.6938(8) -0.1610(5) 0.0527 Uani
N5 N -0.0528(4) 0.7879(9) -0.2054(7) 0.0798 Uani
N6 N -0.1277(3) 0.7109(7) -0.2711(5) 0.0433 Uani
C1 C 0.0614(3) 0.6077(10) -0.0517(6) 0.0524 Uani
C2 C 0.0111(4) 0.5770(11) -0.0901(6) 0.0588 Uani
C3 C 0.0017(4) 0.4672(13) -0.1346(7) 0.0753 Uani
H3 H -0.0318 0.4451 -0.1592 0.0910 Uiso
C4 C 0.0405(5) 0.3886(13) -0.1439(8) 0.0819 Uani
H4 H 0.0331 0.3149 -0.1743 0.0990 Uiso
C5 C 0.0901(4) 0.4204(13) -0.1078(7) 0.0714 Uani
H5 H 0.1166 0.3691 -0.1141 0.0860 Uiso
C6 C 0.1002(4) 0.5299(11) -0.0617(7) 0.0648 Uani
H6 H 0.1338 0.5514 -0.0371 0.0780 Uiso
C7 C 0.0736(4) 0.7222(11) 0.0017(7) 0.0672 Uani
H7 H 0.0729 0.7947 -0.0337 0.0800 Uiso
H8 H 0.0475 0.7335 0.0316 0.0800 Uiso
C8 C -0.0330(3) 0.6572(12) -0.0798(6) 0.0634 Uani
H9 H -0.0530 0.6111 -0.0488 0.0760 Uiso
H10 H -0.0199 0.7319 -0.0485 0.0760 Uiso
C9 C 0.1781(4) 0.6581(10) 0.1641(7) 0.0585 Uani
H11 H 0.1944 0.6171 0.2127 0.0700 Uiso
C10 C 0.1658(4) 0.7735(9) 0.0628(6) 0.0516 Uani
H12 H 0.1703 0.8308 0.0231 0.0620 Uiso
C11 C -0.0914(4) 0.7952(11) -0.2720(7) 0.0631 Uani
H13 H -0.0930 0.8526 -0.3146 0.0760 Uiso
C12 C -0.1102(3) 0.6500(9) -0.2003(6) 0.0510 Uani
H14 H -0.1272 0.5851 -0.1812 0.0610 Uiso
C13 C 0.2415(3) 0.6342(8) 0.4590(5) 0.0349 Uani
C14 C 0.2664(3) 0.7305(7) 0.4275(5) 0.0312 Uani
C15 C 0.2736(3) 0.8428(8) 0.4686(5) 0.0365 Uani
H15 H 0.2895 0.9071 0.4468 0.0440 Uiso
C16 C 0.2291(3) 0.5126(7) 0.4151(5) 0.0333 Uani
C17 C 0.2867(3) 0.7114(8) 0.3519(5) 0.0380 Uani
O1F O 0.2705(2) 1.0864(5) 0.5425(3) 0.0403 Uani
O2F O 0.2817(2) 0.9908(6) 0.6619(3) 0.0482 Uani
O3F O 0.2293(2) 0.7100(6) 0.7057(3) 0.0456 Uani
O4F O 0.1814(3) 0.8717(6) 0.6482(4) 0.0582 Uani
C13F C 0.2585(3) 0.8658(8) 0.5410(5) 0.0349 Uani
C14F C 0.2336(3) 0.7695(7) 0.5725(5) 0.0312 Uani
C15F C 0.2264(3) 0.6572(8) 0.5314(5) 0.0365 Uani
H15F H 0.2105 0.5929 0.5532 0.0440 Uiso
C16F C 0.2709(3) 0.9874(7) 0.5849(5) 0.0333 Uani
C17F C 0.2133(3) 0.7886(8) 0.6481(5) 0.0380 Uani
Cd1F Cd 0.21292(2) 0.70995(5) 0.83287(3) 0.0337 Uani
O5F O 0.1975(2) 0.8866(6) 0.8993(4) 0.0461 Uani
H1F H 0.195(3) 0.943(2) 0.8586(19) 0.0550 Uiso
H2F H 0.2294(15) 0.897(8) 0.930(4) 0.0550 Uiso
N1F N 0.3773(3) 0.7832(8) 0.9393(5) 0.0544 Uani
N2F N 0.3703(3) 0.8618(10) 0.8725(6) 0.0730 Uani
N3F N 0.2981(3) 0.7599(7) 0.8727(4) 0.0410 Uani
N4F N 0.5658(3) 0.8062(8) 1.1610(5) 0.0527 Uani
N5F N 0.5528(4) 0.7121(9) 1.2054(7) 0.0798 Uani
N6F N 0.6277(3) 0.7891(7) 1.2711(5) 0.0433 Uani
C1F C 0.4386(3) 0.8923(10) 1.0517(6) 0.0524 Uani
C2F C 0.4889(4) 0.9230(11) 1.0901(6) 0.0588 Uani
C3F C 0.4983(4) 1.0328(13) 1.1346(7) 0.0753 Uani
H3F H 0.5318 1.0549 1.1592 0.0910 Uiso
C4F C 0.4595(5) 1.1114(13) 1.1439(8) 0.0819 Uani
H4F H 0.4669 1.1851 1.1743 0.0990 Uiso
C5F C 0.4099(4) 1.0796(13) 1.1078(7) 0.0714 Uani
H5F H 0.3834 1.1309 1.1141 0.0860 Uiso
C6F C 0.3998(4) 0.9701(11) 1.0617(7) 0.0648 Uani
H6F H 0.3662 0.9486 1.0371 0.0780 Uiso
C7F C 0.4264(4) 0.7778(11) 0.9983(7) 0.0672 Uani
H7F H 0.4271 0.7053 1.0337 0.0800 Uiso
H8F H 0.4525 0.7665 0.9684 0.0800 Uiso
C8F C 0.5330(3) 0.8428(12) 1.0798(6) 0.0634 Uani
H9F H 0.5530 0.8889 1.0488 0.0760 Uiso
H10F H 0.5199 0.7681 1.0485 0.0760 Uiso
C9F C 0.3219(4) 0.8419(10) 0.8359(7) 0.0585 Uani
H11F H 0.3056 0.8829 0.7873 0.0700 Uiso
C10F C 0.3342(4) 0.7265(9) 0.9372(6) 0.0516 Uani
H12F H 0.3297 0.6692 0.9769 0.0620 Uiso
C11F C 0.5914(4) 0.7048(11) 1.2720(7) 0.0631 Uani
H13F H 0.5930 0.6474 1.3146 0.0760 Uiso
C12F C 0.6102(3) 0.8500(9) 1.2003(6) 0.0510 Uani
H14F H 0.6272 0.9149 1.1812 0.0610 Uiso
Cd1A Cd 0.71292(2) 0.79005(5) 1.33287(3) 0.0337 Uani
Cd1C Cd 0.21292(2) 0.29005(5) 0.33287(3) 0.0337 Uani
Cd1E Cd 0.28708(2) 1.20995(5) 0.66713(3) 0.0337 Uani
Cd1G Cd -0.21292(2) 0.70995(5) -0.33287(3) 0.0337 Uani
O1C O 0.2705(2) 0.9136(5) 0.0425(3) 0.0403 Uani
O1E O 0.2295(2) 0.5864(5) 0.9575(3) 0.0403 Uani
O2C O 0.2817(2) 1.0092(6) 0.1619(3) 0.0482 Uani
O2E O 0.2183(2) 0.4908(6) 0.8381(3) 0.0482 Uani
N6A N 0.1277(3) 0.7109(7) 0.7711(5) 0.0433 Uani
N6G N 0.3723(3) 0.7891(7) 0.2289(5) 0.0433 Uani
O6 O 0.1851(3) 0.9482(7) 0.2735(5) 0.0671 Uani
H16 H 0.196(3) 0.984(8) 0.232(5) 0.0800 Uiso
H17 H 0.204(2) 0.882(7) 0.296(6) 0.0800 Uiso
O7 O 0.4013(8) 0.553(2) 0.4873(14) 0.1228 Uani
H18 H 0.374(7) 0.60(2) 0.459(7) 0.1480 Uiso
H19 H 0.402(10) 0.57(3) 0.540(3) 0.1480 Uiso
O8 O 0.4030(8) 0.604(3) 0.6635(16) 0.0587 Uani
H20 H 0.384(2) 0.628(8) 0.699(4) 0.0710 Uiso
H21 H 0.383(8) 0.62(3) 0.6138(17) 0.0710 Uiso
loop_
_atom_site_aniso_label
_atom_site_aniso_U_11
_atom_site_aniso_U_22
_atom_site_aniso_U_33
_atom_site_aniso_U_23
_atom_site_aniso_U_13
_atom_site_aniso_U_12
Cd1 0.0435(4) 0.0286(3) 0.0268(3) 0.0022(2) 0.0045(2) -0.0007(3)
O1 0.063(4) 0.024(3) 0.032(3) 0.000(2) 0.008(3) -0.006(3)
O2 0.081(4) 0.036(3) 0.025(3) 0.002(2) 0.008(3) 0.005(3)
O3 0.060(4) 0.050(4) 0.029(3) 0.009(3) 0.015(3) 0.003(3)
O4 0.082(5) 0.044(4) 0.055(4) -0.005(3) 0.029(4) 0.014(4)
O5 0.060(4) 0.034(3) 0.039(3) -0.003(3) 0.002(3) 0.002(3)
N1 0.045(4) 0.054(5) 0.056(5) 0.011(4) -0.003(4) -0.007(4)
N2 0.061(5) 0.088(7) 0.064(6) 0.025(5) 0.004(4) -0.022(5)
N3 0.043(4) 0.043(4) 0.035(4) 0.010(3) 0.006(3) -0.002(3)
N4 0.040(4) 0.066(6) 0.047(5) 0.000(4) 0.001(3) -0.005(4)
N5 0.057(6) 0.068(7) 0.104(8) 0.011(6) 0.000(5) -0.013(5)
N6 0.043(4) 0.039(4) 0.044(4) 0.005(3) 0.003(3) 0.001(3)
C1 0.044(5) 0.064(7) 0.046(5) 0.017(5) 0.005(4) -0.002(5)
C2 0.050(6) 0.072(7) 0.046(6) 0.014(5) -0.004(4) 0.003(5)
C3 0.049(6) 0.095(10) 0.071(8) -0.017(7) -0.006(5) 0.007(6)
C4 0.078(8) 0.092(10) 0.065(8) -0.023(7) -0.003(6) 0.010(7)
C5 0.055(6) 0.089(9) 0.064(7) -0.004(6) 0.003(5) 0.011(6)
C6 0.042(5) 0.072(8) 0.074(7) 0.011(6) 0.002(5) -0.002(5)
C7 0.049(6) 0.060(7) 0.079(8) 0.008(6) -0.010(5) 0.004(5)
C8 0.040(5) 0.095(8) 0.049(6) -0.002(6) -0.001(4) 0.001(5)
C9 0.061(6) 0.052(6) 0.054(6) 0.006(5) -0.002(5) -0.012(5)
C10 0.053(6) 0.050(6) 0.050(6) 0.005(5) 0.009(5) -0.016(5)
C11 0.048(6) 0.070(7) 0.068(7) 0.024(6) 0.008(5) -0.012(5)
C12 0.044(5) 0.044(5) 0.060(6) 0.010(5) 0.003(4) -0.008(4)
C13 0.049(5) 0.030(4) 0.024(4) 0.000(3) 0.006(3) 0.002(4)
C14 0.047(5) 0.021(4) 0.026(4) -0.005(3) 0.010(3) 0.002(3)
C15 0.055(5) 0.028(4) 0.027(4) 0.001(3) 0.011(4) -0.009(4)
C16 0.041(4) 0.026(4) 0.032(4) 0.001(3) 0.007(3) 0.002(3)
C17 0.055(5) 0.034(5) 0.025(4) 0.001(4) 0.010(4) -0.005(4)
O1F 0.063 0.024 0.032 0 0.008 -0.006
O2F 0.081 0.036 0.025 0.002 0.008 0.005
O3F 0.06 0.05 0.029 0.009 0.015 0.003
O4F 0.082 0.044 0.055 -0.005 0.029 0.014
C13F 0.049 0.03 0.024 0 0.006 0.002
C14F 0.047 0.021 0.026 -0.005 0.01 0.002
C15F 0.055 0.028 0.027 0.001 0.011 -0.009
C16F 0.041 0.026 0.032 0.001 0.007 0.002
C17F 0.055 0.034 0.025 0.001 0.01 -0.005
Cd1F 0.0435 0.0286 0.0268 0.0022 0.0045 -0.0007
O5F 0.06 0.034 0.039 -0.003 0.002 0.002
N1F 0.045 0.054 0.056 0.011 -0.003 -0.007
N2F 0.061 0.088 0.064 0.025 0.004 -0.022
N3F 0.043 0.043 0.035 0.01 0.006 -0.002
N4F 0.04 0.066 0.047 0 0.001 -0.005
N5F 0.057 0.068 0.104 0.011 0 -0.013
N6F 0.043 0.039 0.044 0.005 0.003 0.001
C1F 0.044 0.064 0.046 0.017 0.005 -0.002
C2F 0.05 0.072 0.046 0.014 -0.004 0.003
C3F 0.049 0.095 0.071 -0.017 -0.006 0.007
C4F 0.078 0.092 0.065 -0.023 -0.003 0.01
C5F 0.055 0.089 0.064 -0.004 0.003 0.011
C6F 0.042 0.072 0.074 0.011 0.002 -0.002
C7F 0.049 0.06 0.079 0.008 -0.01 0.004
C8F 0.04 0.095 0.049 -0.002 -0.001 0.001
C9F 0.061 0.052 0.054 0.006 -0.002 -0.012
C10F 0.053 0.05 0.05 0.005 0.009 -0.016
C11F 0.048 0.07 0.068 0.024 0.008 -0.012
C12F 0.044 0.044 0.06 0.01 0.003 -0.008
Cd1A 0.0435 0.0286 0.0268 -0.0022 0.0045 0.0007
Cd1C 0.0435 0.0286 0.0268 -0.0022 0.0045 0.0007
Cd1E 0.0435 0.0286 0.0268 -0.0022 0.0045 0.0007
Cd1G 0.0435 0.0286 0.0268 -0.0022 0.0045 0.0007
O1C 0.063 0.024 0.032 0 0.008 0.006
O1E 0.063 0.024 0.032 0 0.008 0.006
O2C 0.081 0.036 0.025 -0.002 0.008 -0.005
O2E 0.081 0.036 0.025 -0.002 0.008 -0.005
N6A 0.043 0.039 0.044 -0.005 0.003 -0.001
N6G 0.043 0.039 0.044 -0.005 0.003 -0.001
O6 0.101(6) 0.051(4) 0.056(5) 0.009(3) 0.032(4) 0.009(4)
O7 0.102(15) 0.107(17) 0.126(18) 0.024(15) -0.036(14) 0.018(13)
O8 0.028(11) 0.09(2) 0.051(15) 0.040(15) -0.004(11) -0.028(13)
loop_
_geom_bond_atom_site_label_1
_geom_bond_atom_site_label_2
_geom_bond_site_symmetry_1
_geom_bond_site_symmetry_2
Cd1 O3 1_555 1_555
O1 C16 1_555 1_555
O2 C16 1_555 1_555
O3 C17 1_555 1_555
O4 C17 1_555 1_555
O5 Cd1 1_555 1_555
H1 O5 1_555 1_555
H2 O5 1_555 1_555
N1 N2 1_555 1_555
N2 C9 1_555 1_555
N3 Cd1 1_555 1_555
N4 N5 1_555 1_555
N5 C11 1_555 1_555
N6 C11 1_555 1_555
C1 C2 1_555 1_555
C2 C3 1_555 1_555
C3 H3 1_555 1_555
C4 C3 1_555 1_555
H4 C4 1_555 1_555
C5 C4 1_555 1_555
H5 C5 1_555 1_555
C6 C1 1_555 1_555
H6 C6 1_555 1_555
C7 N1 1_555 1_555
H7 C7 1_555 1_555
H8 C7 1_555 1_555
C8 N4 1_555 1_555
H9 C8 1_555 1_555
H10 C8 1_555 1_555
C9 N3 1_555 1_555
H11 C9 1_555 1_555
C10 N1 1_555 1_555
H12 C10 1_555 1_555
C11 H13 1_555 1_555
C12 N4 1_555 1_555
H14 C12 1_555 1_555
C13 C14 1_555 1_555
C14 C15 1_555 1_555
C15 H15 1_555 1_555
C16 C13 1_555 1_555
C17 C14 1_555 1_555
O6 H16 1_555 1_555
H17 O6 1_555 1_555
O7 H18 1_555 1_555
H19 O7 1_555 1_555
O8 H20 1_555 1_555
H21 O8 1_555 1_555
O1F C16F 1_555 1_555
O2F C16F 1_555 1_555
O3F C17F 1_555 1_555
O4F C17F 1_555 1_555
C13F C15 1_555 1_555
C14F C13F 1_555 1_555
C15F C13 1_555 1_555
H15F C15F 1_555 1_555
C16F C13F 1_555 1_555
C17F C14F 1_555 1_555
Cd1F O3F 1_555 1_555
O5F Cd1F 1_555 1_555
H1F O5F 1_555 1_555
H2F O5F 1_555 1_555
N1F N2F 1_555 1_555
N2F C9F 1_555 1_555
N3F Cd1F 1_555 1_555
N4F N5F 1_555 1_555
N5F C11F 1_555 1_555
N6F C11F 1_555 1_555
C1F C2F 1_555 1_555
C2F C3F 1_555 1_555
C3F H3F 1_555 1_555
C4F C3F 1_555 1_555
H4F C4F 1_555 1_555
C5F C4F 1_555 1_555
H5F C5F 1_555 1_555
C6F C1F 1_555 1_555
H6F C6F 1_555 1_555
C7F N1F 1_555 1_555
H7F C7F 1_555 1_555
H8F C7F 1_555 1_555
C8F N4F 1_555 1_555
H9F C8F 1_555 1_555
H10F C8F 1_555 1_555
C9F N3F 1_555 1_555
H11F C9F 1_555 1_555
C10F N1F 1_555 1_555
H12F C10F 1_555 1_555
C11F H13F 1_555 1_555
C12F N4F 1_555 1_555
H14F C12F 1_555 1_555
Cd1A N6F 1_555 1_555
Cd1C O1 1_555 1_555
Cd1E O1F 1_555 1_555
Cd1G N6 1_555 1_555
O1C Cd1 1_555 1_555
O1E Cd1F 1_555 1_555
O2C Cd1 1_555 1_555
O2E Cd1F 1_555 1_555
N6A Cd1F 1_555 1_555
N6G Cd1 1_555 1_555
O2 Cd1C 1_555 1_555
N3 C10 1_555 1_555
N6 C12 1_555 1_555
C1 C7 1_555 1_555
C2 C8 1_555 1_555
C5 C6 1_555 1_555
O2F Cd1E 1_555 1_555
C14F C15F 1_555 1_555
N3F C10F 1_555 1_555
N6F C12F 1_555 1_555
C1F C7F 1_555 1_555
C2F C8F 1_555 1_555
C5F C6F 1_555 1_555

#END
