
#######################################################################
#
#                 Cambridge Crystallographic Data Centre
#                                CCDC 
#
#######################################################################
#
# If this CIF has been generated from an entry in the Cambridge 
# Structural Database, then it will include bibliographic, chemical, 
# crystal, experimental, refinement or atomic coordinate data resulting 
# from the CCDC's data processing and validation procedures.
#
#######################################################################

data_BOKQEZ
_chemical_formula_moiety         '(C36 H24 Mn8 O33 S6)n'
_symmetry_cell_setting           rhombohedral
_symmetry_space_group_name_H-M   'R -3 c'
_symmetry_Int_Tables_number      167
_space_group_name_Hall           '-R 3 2"c'
loop_
_symmetry_equiv_pos_site_id
_symmetry_equiv_pos_as_xyz
1 x,y,z
2 -y,x-y,z
3 -x+y,-x,z
4 x-y,-y,1/2-z
5 -x,-x+y,1/2-z
6 y,x,1/2-z
7 2/3+x,1/3+y,1/3+z
8 2/3-y,1/3+x-y,1/3+z
9 2/3-x+y,1/3-x,1/3+z
10 2/3+x-y,1/3-y,5/6-z
11 2/3-x,1/3-x+y,5/6-z
12 2/3+y,1/3+x,5/6-z
13 1/3+x,2/3+y,2/3+z
14 1/3-y,2/3+x-y,2/3+z
15 1/3-x+y,2/3-x,2/3+z
16 1/3+x-y,2/3-y,1/6-z
17 1/3-x,2/3-x+y,1/6-z
18 1/3+y,2/3+x,1/6-z
19 -x,-y,-z
20 y,-x+y,-z
21 x-y,x,-z
22 -x+y,y,1/2+z
23 x,x-y,1/2+z
24 -y,-x,1/2+z
25 1/3-x,2/3-y,2/3-z
26 1/3+y,2/3-x+y,2/3-z
27 1/3+x-y,2/3+x,2/3-z
28 1/3-x+y,2/3+y,1/6+z
29 1/3+x,2/3+x-y,1/6+z
30 1/3-y,2/3-x,1/6+z
31 2/3-x,1/3-y,1/3-z
32 2/3+y,1/3-x+y,1/3-z
33 2/3+x-y,1/3+x,1/3-z
34 2/3-x+y,1/3+y,5/6+z
35 2/3+x,1/3+x-y,5/6+z
36 2/3-y,1/3-x,5/6+z
_cell_length_a                   15.2429(11)
_cell_length_b                   15.2429(11)
_cell_length_c                   56.173(4)
_cell_angle_alpha                90
_cell_angle_beta                 90
_cell_angle_gamma                120
_cell_volume                     11303
loop_
_atom_site_label
_atom_site_type_symbol
_atom_site_fract_x
_atom_site_fract_y
_atom_site_fract_z
_atom_site_U_iso_or_equiv
_atom_site_thermal_displace_type
Mn1 Mn 0.40347(4) 0.19865(4) 0.081769(8) 0.0216 Uani
Mn2 Mn 0.6667 0.3333 0.054996(17) 0.0318 Uani
C1 C 0.4850(3) 0.1382(3) 0.03773(6) 0.0293 Uani
C2 C 0.4196(3) 0.0670(3) 0.01905(6) 0.0328 Uani
C3 C 0.3283(5) -0.0169(5) 0.02183(8) 0.0744 Uani
H1 H 0.2956 -0.0382 0.0364 0.0900 Uiso
C4 C 0.2876(5) -0.0691(5) 0.00028(9) 0.0833 Uani
H2 H 0.2252 -0.1281 -0.0010 0.1000 Uiso
C5 C 0.3507(3) -0.0226(3) -0.01854(6) 0.0358 Uani
C6 C 0.3370(3) -0.0581(3) -0.04397(6) 0.0303 Uani
O1 O 0.55850(18) 0.3333 0.0833 0.0175 Uani
O2 O 0.4560(2) 0.1166(2) 0.05920(4) 0.0302 Uani
O3 O 0.5644(2) 0.2131(2) 0.03156(5) 0.0432 Uani
O4 O 0.2490(2) -0.1245(2) -0.04973(5) 0.0413 Uani
O5 O 0.4136(2) -0.0183(2) -0.05687(4) 0.0331 Uani
O6 O 0.2496(3) 0.0645(3) 0.08005(9) 0.0703 Uani
S1 S 0.45918(7) 0.08350(7) -0.009874(14) 0.0307 Uani
Mn1A Mn 0.80135(4) 0.20482(6) 0.081769(8) 0.0216 Uani
C1A C 0.8618(3) 0.3468(4) 0.03773(6) 0.0293 Uani
C2A C 0.9330(3) 0.3526(4) 0.01905(6) 0.0328 Uani
C3A C 1.0169(5) 0.3452(7) 0.02183(8) 0.0744 Uani
H1A H 1.0382 0.3338 0.0364 0.0900 Uiso
C4A C 1.0691(5) 0.3567(7) 0.00028(9) 0.0833 Uani
H2A H 1.1281 0.3533 -0.0010 0.1000 Uiso
C5A C 1.0226(3) 0.3733(4) -0.01854(6) 0.0358 Uani
C6A C 1.0581(3) 0.3951(4) -0.04397(6) 0.0303 Uani
O1A O 0.6667 0.22520(18) 0.0833 0.0175 Uani
O2A O 0.8834(2) 0.3394(3) 0.05920(4) 0.0302 Uani
O3A O 0.7869(2) 0.3513(3) 0.03156(5) 0.0432 Uani
O4A O 1.1245(2) 0.3735(3) -0.04973(5) 0.0413 Uani
O5A O 1.0183(2) 0.4319(3) -0.05687(4) 0.0331 Uani
O6A O 0.9355(3) 0.1851(4) 0.08005(9) 0.0703 Uani
S1A S 0.91650(7) 0.37568(10) -0.009874(14) 0.0307 Uani
Mn1B Mn 0.79518(6) 0.59653(4) 0.081769(8) 0.0216 Uani
C1B C 0.6532(4) 0.5150(3) 0.03773(6) 0.0293 Uani
C2B C 0.6474(4) 0.5804(3) 0.01905(6) 0.0328 Uani
C3B C 0.6548(7) 0.6717(5) 0.02183(8) 0.0744 Uani
H1B H 0.6662 0.7044 0.0364 0.0900 Uiso
C4B C 0.6433(7) 0.7124(5) 0.00028(9) 0.0833 Uani
H2B H 0.6467 0.7748 -0.0010 0.1000 Uiso
C5B C 0.6267(4) 0.6493(3) -0.01854(6) 0.0358 Uani
C6B C 0.6049(4) 0.6630(3) -0.04397(6) 0.0303 Uani
O1B O 0.77480(18) 0.44150(18) 0.0833 0.0175 Uani
O2B O 0.6606(3) 0.5440(2) 0.05920(4) 0.0302 Uani
O3B O 0.6487(3) 0.4356(2) 0.03156(5) 0.0432 Uani
O4B O 0.6265(3) 0.7510(2) -0.04973(5) 0.0413 Uani
O5B O 0.5681(3) 0.5864(2) -0.05687(4) 0.0331 Uani
O6B O 0.8149(4) 0.7504(3) 0.08005(9) 0.0703 Uani
S1B S 0.62432(10) 0.54082(7) -0.009874(14) 0.0307 Uani
Mn1O Mn 0.53815(6) 0.46802(4) 0.084898(8) 0.0216 Uani
Mn2O Mn 0.6667 0.3334 0.111671(17) 0.0318 Uani
C1O C 0.6801(4) 0.5285(3) 0.12894(6) 0.0293 Uani
C2O C 0.6859(4) 0.5997(3) 0.14762(6) 0.0328 Uani
C3O C 0.6785(7) 0.6836(5) 0.14484(8) 0.0744 Uani
H1O H 0.6671 0.7049 0.1303 0.0900 Uiso
C4O C 0.6900(7) 0.7358(5) 0.16639(9) 0.0833 Uani
H2O H 0.6866 0.7948 0.1677 0.1000 Uiso
C5O C 0.7066(4) 0.6893(3) 0.18521(6) 0.0358 Uani
C6O C 0.7284(4) 0.7248(3) 0.21064(6) 0.0303 Uani
O2O O 0.6727(3) 0.5501(2) 0.10747(4) 0.0302 Uani
O3O O 0.6846(3) 0.4536(2) 0.13511(5) 0.0432 Uani
O4O O 0.7068(3) 0.7912(2) 0.21640(5) 0.0413 Uani
O5O O 0.7652(3) 0.6850(2) 0.22354(4) 0.0331 Uani
O6O O 0.5184(4) 0.6022(3) 0.08662(9) 0.0703 Uani
S1O S 0.70901(10) 0.58317(7) 0.176541(14) 0.0307 Uani
Mn1P Mn 0.92986(4) 0.46185(6) 0.084898(8) 0.0216 Uani
C1P C 0.8483(3) 0.3199(4) 0.12894(6) 0.0293 Uani
C2P C 0.9137(3) 0.3141(4) 0.14762(6) 0.0328 Uani
C3P C 1.0050(5) 0.3215(7) 0.14484(8) 0.0744 Uani
H1P H 1.0377 0.3329 0.1303 0.0900 Uiso
C4P C 1.0457(5) 0.3100(7) 0.16639(9) 0.0833 Uani
H2P H 1.1081 0.3134 0.1677 0.1000 Uiso
C5P C 0.9826(3) 0.2934(4) 0.18521(6) 0.0358 Uani
C6P C 0.9963(3) 0.2716(4) 0.21064(6) 0.0303 Uani
O2P O 0.8773(2) 0.3273(3) 0.10747(4) 0.0302 Uani
O3P O 0.7689(2) 0.3154(3) 0.13511(5) 0.0432 Uani
O4P O 1.0843(2) 0.2932(3) 0.21640(5) 0.0413 Uani
O5P O 0.9197(2) 0.2348(3) 0.22354(4) 0.0331 Uani
O6P O 1.0837(3) 0.4816(4) 0.08662(9) 0.0703 Uani
S1P S 0.87415(7) 0.29099(10) 0.176541(14) 0.0307 Uani
Mn1Q Mn 0.53198(4) 0.07014(4) 0.084898(8) 0.0216 Uani
C1Q C 0.4715(3) 0.1517(3) 0.12894(6) 0.0293 Uani
C2Q C 0.4003(3) 0.0863(3) 0.14762(6) 0.0328 Uani
C3Q C 0.3164(5) -0.0050(5) 0.14484(8) 0.0744 Uani
H1Q H 0.2951 -0.0377 0.1303 0.0900 Uiso
C4Q C 0.2642(5) -0.0457(5) 0.16639(9) 0.0833 Uani
H2Q H 0.2052 -0.1081 0.1677 0.1000 Uiso
C5Q C 0.3107(3) 0.0174(3) 0.18521(6) 0.0358 Uani
C6Q C 0.2752(3) 0.0037(3) 0.21064(6) 0.0303 Uani
O2Q O 0.4499(2) 0.1227(2) 0.10747(4) 0.0302 Uani
O3Q O 0.5464(2) 0.2311(2) 0.13511(5) 0.0432 Uani
O4Q O 0.2088(2) -0.0843(2) 0.21640(5) 0.0413 Uani
O5Q O 0.3150(2) 0.0803(2) 0.22354(4) 0.0331 Uani
O6Q O 0.3978(3) -0.0837(3) 0.08662(9) 0.0703 Uani
S1Q S 0.41683(7) 0.12585(7) 0.176541(14) 0.0307 Uani
Mn1R Mn 0.59653(4) 0.80135(4) -0.081769(8) 0.0216 Uani
Mn1S Mn 0.19865(4) -0.20482(6) -0.081769(8) 0.0216 Uani
Mn1T Mn 1.20482(6) 0.40347(4) -0.081769(8) 0.0216 Uani
Mn1DA Mn 0.26320(4) 0.13468(4) 0.251564(8) 0.0216 Uani
Mn1EA Mn 0.86532(4) 0.12851(6) 0.251564(8) 0.0216 Uani
Mn1FA Mn 0.87149(6) 0.73680(4) 0.251564(8) 0.0216 Uani
Mn1GA Mn 0.46185(6) 0.53198(4) -0.084898(8) 0.0216 Uani
Mn1HA Mn 1.07014(4) 0.53815(6) -0.084898(8) 0.0216 Uani
Mn1IA Mn 0.46802(4) -0.07014(4) -0.084898(8) 0.0216 Uani
Mn1AA Mn 0.12851(6) -0.13468(4) 0.248436(8) 0.0216 Uani
Mn1BA Mn 0.73680(4) 0.87149(6) 0.248436(8) 0.0216 Uani
Mn1CA Mn 1.13468(4) 0.26320(4) 0.248436(8) 0.0216 Uani
O4R O 0.7510(2) 0.1245(2) 0.04973(5) 0.0413 Uani
O4S O 0.8755(2) 0.6265(3) 0.04973(5) 0.0413 Uani
O4T O 0.3735(3) 0.2490(2) 0.04973(5) 0.0413 Uani
O4AA O 0.9598(3) 0.5422(2) 0.11694(5) 0.0413 Uani
O4BA O 0.5823(2) 0.0402(3) 0.11694(5) 0.0413 Uani
O4CA O 0.4578(2) 0.4177(2) 0.11694(5) 0.0413 Uani
O5R O 0.5864(2) 0.0183(2) 0.05687(4) 0.0331 Uani
O5S O 0.9817(2) 0.5681(3) 0.05687(4) 0.0331 Uani
O5T O 0.4319(3) 0.4136(2) 0.05687(4) 0.0331 Uani
O5AA O 0.9014(3) 0.6484(2) 0.10980(4) 0.0331 Uani
O5BA O 0.7469(2) 0.0986(3) 0.10980(4) 0.0331 Uani
O5CA O 0.3516(2) 0.2531(2) 0.10980(4) 0.0331 Uani
loop_
_atom_site_aniso_label
_atom_site_aniso_U_11
_atom_site_aniso_U_22
_atom_site_aniso_U_33
_atom_site_aniso_U_23
_atom_site_aniso_U_13
_atom_site_aniso_U_12
Mn1 0.0238(3) 0.0252(3) 0.0170(2) 0.00418(16) -0.00034(16) 0.0132(2)
Mn2 0.0363(3) 0.0363(3) 0.0227(4) 0.000 0.000 0.01813(17)
C1 0.0375(18) 0.0336(17) 0.0212(14) -0.0071(12) -0.0098(13) 0.0210(16)
C2 0.042(2) 0.040(2) 0.0177(13) -0.0069(13) -0.0058(13) 0.0215(17)
C3 0.063(3) 0.072(4) 0.0244(19) -0.015(2) 0.004(2) -0.014(3)
C4 0.070(4) 0.071(4) 0.034(2) -0.024(2) 0.004(2) -0.021(3)
C5 0.042(2) 0.038(2) 0.0225(15) -0.0108(14) -0.0088(14) 0.0164(17)
C6 0.0392(19) 0.0289(17) 0.0248(15) -0.0077(13) -0.0092(13) 0.0186(15)
O1 0.0112(9) 0.0114(12) 0.0299(15) 0.0002(10) 0.0001(5) 0.0057(6)
O2 0.0470(15) 0.0403(14) 0.0160(10) -0.0056(9) -0.0098(10) 0.0313(12)
O3 0.0429(16) 0.0422(16) 0.0260(12) -0.0064(11) -0.0054(11) 0.0074(13)
O4 0.0437(16) 0.0455(17) 0.0274(13) -0.0190(12) -0.0061(11) 0.0168(13)
O5 0.0425(15) 0.0352(14) 0.0248(11) -0.0104(10) -0.0052(10) 0.0219(12)
O6 0.049(2) 0.057(2) 0.094(3) 0.002(2) -0.011(2) 0.0184(19)
S1 0.0369(5) 0.0359(5) 0.0191(4) -0.0078(3) -0.0063(3) 0.0181(4)
Mn1A 0.0252 0.0226 0.017 -0.00452 -0.00418 0.012
C1A 0.0336 0.0291 0.0212 -0.0027 0.0071 0.0126
C2A 0.04 0.039 0.0177 0.0011 0.0069 0.0185
C3A 0.072 0.163 0.0244 0.019 0.015 0.086
C4A 0.071 0.183 0.034 0.028 0.024 0.092
C5A 0.038 0.0472 0.0225 0.002 0.0108 0.0216
C6A 0.0289 0.0309 0.0248 -0.0015 0.0077 0.0103
O1A 0.0114 0.0112 0.0299 -0.0001 -0.0002 0.0057
O2A 0.0403 0.0247 0.016 -0.0042 0.0056 0.009
O3A 0.0422 0.0703 0.026 0.001 0.0064 0.0348
O4A 0.0455 0.0556 0.0274 0.0129 0.019 0.0287
O5A 0.0352 0.0339 0.0248 0.0052 0.0104 0.0133
O6A 0.057 0.0692 0.094 -0.013 -0.002 0.0386
S1A 0.0359 0.0366 0.0191 0.0015 0.0078 0.0178
Mn1B 0.0226 0.0238 0.017 0.00034 0.00452 0.0106
C1B 0.0291 0.0375 0.0212 0.0098 0.0027 0.0165
C2B 0.039 0.042 0.0177 0.0058 -0.0011 0.0205
C3B 0.163 0.063 0.0244 -0.004 -0.019 0.077
C4B 0.183 0.07 0.034 -0.004 -0.028 0.091
C5B 0.0472 0.042 0.0225 0.0088 -0.002 0.0256
C6B 0.0309 0.0392 0.0248 0.0092 0.0015 0.0206
O1B 0.0112 0.0112 0.0299 -0.0001 0.0001 0.0055
O2B 0.0247 0.047 0.016 0.0098 0.0042 0.0157
O3B 0.0703 0.0429 0.026 0.0054 -0.001 0.0355
O4B 0.0556 0.0437 0.0274 0.0061 -0.0129 0.0269
O5B 0.0339 0.0425 0.0248 0.0052 -0.0052 0.0206
O6B 0.0692 0.049 0.094 0.011 0.013 0.0306
S1B 0.0366 0.0369 0.0191 0.0063 -0.0015 0.0188
Mn1O 0.0226 0.0252 0.017 0.00418 0.00452 0.012
Mn2O 0.03634 0.0363 0.0227 0 0 0.01817
C1O 0.0291 0.0336 0.0212 -0.0071 0.0027 0.0126
C2O 0.039 0.04 0.0177 -0.0069 -0.0011 0.0185
C3O 0.163 0.072 0.0244 -0.015 -0.019 0.086
C4O 0.183 0.071 0.034 -0.024 -0.028 0.092
C5O 0.0472 0.038 0.0225 -0.0108 -0.002 0.0216
C6O 0.0309 0.0289 0.0248 -0.0077 0.0015 0.0103
O2O 0.0247 0.0403 0.016 -0.0056 0.0042 0.009
O3O 0.0703 0.0422 0.026 -0.0064 -0.001 0.0348
O4O 0.0556 0.0455 0.0274 -0.019 -0.0129 0.0287
O5O 0.0339 0.0352 0.0248 -0.0104 -0.0052 0.0133
O6O 0.0692 0.057 0.094 0.002 0.013 0.0386
S1O 0.0366 0.0359 0.0191 -0.0078 -0.0015 0.0178
Mn1P 0.0238 0.0226 0.017 -0.00452 -0.00034 0.0106
C1P 0.0375 0.0291 0.0212 -0.0027 -0.0098 0.0165
C2P 0.042 0.039 0.0177 0.0011 -0.0058 0.0205
C3P 0.063 0.163 0.0244 0.019 0.004 0.077
C4P 0.07 0.183 0.034 0.028 0.004 0.091
C5P 0.042 0.0472 0.0225 0.002 -0.0088 0.0256
C6P 0.0392 0.0309 0.0248 -0.0015 -0.0092 0.0206
O2P 0.047 0.0247 0.016 -0.0042 -0.0098 0.0157
O3P 0.0429 0.0703 0.026 0.001 -0.0054 0.0355
O4P 0.0437 0.0556 0.0274 0.0129 -0.0061 0.0269
O5P 0.0425 0.0339 0.0248 0.0052 -0.0052 0.0206
O6P 0.049 0.0692 0.094 -0.013 -0.011 0.0306
S1P 0.0369 0.0366 0.0191 0.0015 -0.0063 0.0188
Mn1Q 0.0252 0.0238 0.017 0.00034 -0.00418 0.0132
C1Q 0.0336 0.0375 0.0212 0.0098 0.0071 0.021
C2Q 0.04 0.042 0.0177 0.0058 0.0069 0.0215
C3Q 0.072 0.063 0.0244 -0.004 0.015 -0.014
C4Q 0.071 0.07 0.034 -0.004 0.024 -0.021
C5Q 0.038 0.042 0.0225 0.0088 0.0108 0.0164
C6Q 0.0289 0.0392 0.0248 0.0092 0.0077 0.0186
O2Q 0.0403 0.047 0.016 0.0098 0.0056 0.0313
O3Q 0.0422 0.0429 0.026 0.0054 0.0064 0.0074
O4Q 0.0455 0.0437 0.0274 0.0061 0.019 0.0168
O5Q 0.0352 0.0425 0.0248 0.0052 0.0104 0.0219
O6Q 0.057 0.049 0.094 0.011 -0.002 0.0184
S1Q 0.0359 0.0369 0.0191 0.0063 0.0078 0.0181
Mn1R 0.0238 0.0252 0.017 0.00418 -0.00034 0.0132
Mn1S 0.0252 0.0226 0.017 -0.00452 -0.00418 0.012
Mn1T 0.0226 0.0238 0.017 0.00034 0.00452 0.0106
Mn1DA 0.0238 0.0252 0.017 0.00418 -0.00034 0.0132
Mn1EA 0.0252 0.0226 0.017 -0.00452 -0.00418 0.012
Mn1FA 0.0226 0.0238 0.017 0.00034 0.00452 0.0106
Mn1GA 0.0226 0.0252 0.017 0.00418 0.00452 0.012
Mn1HA 0.0238 0.0226 0.017 -0.00452 -0.00034 0.0106
Mn1IA 0.0252 0.0238 0.017 0.00034 -0.00418 0.0132
Mn1AA 0.0226 0.0252 0.017 0.00418 0.00452 0.012
Mn1BA 0.0238 0.0226 0.017 -0.00452 -0.00034 0.0106
Mn1CA 0.0252 0.0238 0.017 0.00034 -0.00418 0.0132
O4R 0.0437 0.0455 0.0274 -0.019 -0.0061 0.0168
O4S 0.0455 0.0556 0.0274 0.0129 0.019 0.0287
O4T 0.0556 0.0437 0.0274 0.0061 -0.0129 0.0269
O4AA 0.0556 0.0455 0.0274 -0.019 -0.0129 0.0287
O4BA 0.0437 0.0556 0.0274 0.0129 -0.0061 0.0269
O4CA 0.0455 0.0437 0.0274 0.0061 0.019 0.0168
O5R 0.0425 0.0352 0.0248 -0.0104 -0.0052 0.0219
O5S 0.0352 0.0339 0.0248 0.0052 0.0104 0.0133
O5T 0.0339 0.0425 0.0248 0.0052 -0.0052 0.0206
O5AA 0.0339 0.0352 0.0248 -0.0104 -0.0052 0.0133
O5BA 0.0425 0.0339 0.0248 0.0052 -0.0052 0.0206
O5CA 0.0352 0.0425 0.0248 0.0052 0.0104 0.0219
loop_
_geom_bond_atom_site_label_1
_geom_bond_atom_site_label_2
_geom_bond_site_symmetry_1
_geom_bond_site_symmetry_2
Mn1 O1 1_555 1_555
Mn2 O1 1_555 1_555
C1 C2 1_555 1_555
C2 C3 1_555 1_555
C3 H1 1_555 1_555
C4 C3 1_555 1_555
H2 C4 1_555 1_555
C5 C4 1_555 1_555
C6 C5 1_555 1_555
O1 Mn1O 1_555 1_555
O2 Mn1 1_555 1_555
O3 Mn2 1_555 1_555
O4 C6 1_555 1_555
O5 C6 1_555 1_555
O6 Mn1 1_555 1_555
S1 C2 1_555 1_555
Mn1A O1A 1_555 1_555
C1A C2A 1_555 1_555
C2A C3A 1_555 1_555
C3A H1A 1_555 1_555
C4A C3A 1_555 1_555
H2A C4A 1_555 1_555
C5A C4A 1_555 1_555
C6A C5A 1_555 1_555
O1A Mn2 1_555 1_555
O2A Mn1A 1_555 1_555
O3A Mn2 1_555 1_555
O4A C6A 1_555 1_555
O5A C6A 1_555 1_555
O6A Mn1A 1_555 1_555
S1A C2A 1_555 1_555
Mn1B O1B 1_555 1_555
C1B C2B 1_555 1_555
C2B C3B 1_555 1_555
C3B H1B 1_555 1_555
C4B C3B 1_555 1_555
H2B C4B 1_555 1_555
C5B C4B 1_555 1_555
C6B C5B 1_555 1_555
O1B Mn2 1_555 1_555
O2B Mn1B 1_555 1_555
O3B Mn2 1_555 1_555
O4B C6B 1_555 1_555
O5B C6B 1_555 1_555
O6B Mn1B 1_555 1_555
S1B C2B 1_555 1_555
Mn1O O2B 1_555 1_555
Mn2O O1 1_555 1_555
C1O C2O 1_555 1_555
C2O C3O 1_555 1_555
C3O H1O 1_555 1_555
C4O C3O 1_555 1_555
H2O C4O 1_555 1_555
C5O C4O 1_555 1_555
C6O C5O 1_555 1_555
O2O Mn1B 1_555 1_555
O3O Mn2O 1_555 1_555
O4O C6O 1_555 1_555
O5O C6O 1_555 1_555
O6O Mn1O 1_555 1_555
S1O C2O 1_555 1_555
Mn1P O2A 1_555 1_555
C1P C2P 1_555 1_555
C2P C3P 1_555 1_555
C3P H1P 1_555 1_555
C4P C3P 1_555 1_555
H2P C4P 1_555 1_555
C5P C4P 1_555 1_555
C6P C5P 1_555 1_555
O2P Mn1A 1_555 1_555
O3P Mn2O 1_555 1_555
O4P C6P 1_555 1_555
O5P C6P 1_555 1_555
O6P Mn1P 1_555 1_555
S1P C2P 1_555 1_555
Mn1Q O2 1_555 1_555
C1Q C2Q 1_555 1_555
C2Q C3Q 1_555 1_555
C3Q H1Q 1_555 1_555
C4Q C3Q 1_555 1_555
H2Q C4Q 1_555 1_555
C5Q C4Q 1_555 1_555
C6Q C5Q 1_555 1_555
O2Q Mn1 1_555 1_555
O3Q Mn2O 1_555 1_555
O4Q C6Q 1_555 1_555
O5Q C6Q 1_555 1_555
O6Q Mn1Q 1_555 1_555
S1Q C2Q 1_555 1_555
Mn1R O4B 1_555 1_555
Mn1S O4 1_555 1_555
Mn1T O4A 1_555 1_555
Mn1DA O5Q 1_555 1_555
Mn1EA O5P 1_555 1_555
Mn1FA O5O 1_555 1_555
Mn1GA O5B 1_555 1_555
Mn1HA O5A 1_555 1_555
Mn1IA O5 1_555 1_555
Mn1AA O4Q 1_555 1_555
Mn1BA O4O 1_555 1_555
Mn1CA O4P 1_555 1_555
O4R Mn1A 1_555 1_555
O4S Mn1B 1_555 1_555
O4T Mn1 1_555 1_555
O4AA Mn1P 1_555 1_555
O4BA Mn1Q 1_555 1_555
O4CA Mn1O 1_555 1_555
O5R Mn1Q 1_555 1_555
O5S Mn1P 1_555 1_555
O5T Mn1O 1_555 1_555
O5AA Mn1B 1_555 1_555
O5BA Mn1A 1_555 1_555
O5CA Mn1 1_555 1_555
C1 O2 1_555 1_555
C1 O3 1_555 1_555
C5 S1 1_555 1_555
C1A O2A 1_555 1_555
C1A O3A 1_555 1_555
C5A S1A 1_555 1_555
O1A Mn2O 1_555 1_555
O1A Mn1Q 1_555 1_555
C1B O2B 1_555 1_555
C1B O3B 1_555 1_555
C5B S1B 1_555 1_555
O1B Mn2O 1_555 1_555
O1B Mn1P 1_555 1_555
Mn1O O2O 1_555 1_555
C1O O2O 1_555 1_555
C1O O3O 1_555 1_555
C5O S1O 1_555 1_555
Mn1P O2P 1_555 1_555
C1P O2P 1_555 1_555
C1P O3P 1_555 1_555
C5P S1P 1_555 1_555
Mn1Q O2Q 1_555 1_555
C1Q O2Q 1_555 1_555
C1Q O3Q 1_555 1_555
C5Q S1Q 1_555 1_555

#END
