
#######################################################################
#
#                 Cambridge Crystallographic Data Centre
#                                CCDC 
#
#######################################################################
#
# If this CIF has been generated from an entry in the Cambridge 
# Structural Database, then it will include bibliographic, chemical, 
# crystal, experimental, refinement or atomic coordinate data resulting 
# from the CCDC's data processing and validation procedures.
#
#######################################################################

data_HOLQUW
_chemical_formula_moiety         'C48 O41 Zn18'
_symmetry_cell_setting           cubic
_symmetry_space_group_name_H-M   'F -4 3 m'
_symmetry_Int_Tables_number      216
_space_group_name_Hall           'F -4 2 3'
loop_
_symmetry_equiv_pos_site_id
_symmetry_equiv_pos_as_xyz
1 x,y,z
2 -x,-y,z
3 -x,y,-z
4 x,-y,-z
5 z,x,y
6 z,-x,-y
7 -z,-x,y
8 -z,x,-y
9 y,z,x
10 -y,z,-x
11 y,-z,-x
12 -y,-z,x
13 y,x,z
14 -y,-x,z
15 y,-x,-z
16 -y,x,-z
17 x,z,y
18 -x,z,-y
19 -x,-z,y
20 x,-z,-y
21 z,y,x
22 z,-y,-x
23 -z,y,-x
24 -z,-y,x
25 x,1/2+y,1/2+z
26 -x,1/2-y,1/2+z
27 -x,1/2+y,1/2-z
28 x,1/2-y,1/2-z
29 z,1/2+x,1/2+y
30 z,1/2-x,1/2-y
31 -z,1/2-x,1/2+y
32 -z,1/2+x,1/2-y
33 y,1/2+z,1/2+x
34 -y,1/2+z,1/2-x
35 y,1/2-z,1/2-x
36 -y,1/2-z,1/2+x
37 y,1/2+x,1/2+z
38 -y,1/2-x,1/2+z
39 y,1/2-x,1/2-z
40 -y,1/2+x,1/2-z
41 x,1/2+z,1/2+y
42 -x,1/2+z,1/2-y
43 -x,1/2-z,1/2+y
44 x,1/2-z,1/2-y
45 z,1/2+y,1/2+x
46 z,1/2-y,1/2-x
47 -z,1/2+y,1/2-x
48 -z,1/2-y,1/2+x
49 1/2+x,y,1/2+z
50 1/2-x,-y,1/2+z
51 1/2-x,y,1/2-z
52 1/2+x,-y,1/2-z
53 1/2+z,x,1/2+y
54 1/2+z,-x,1/2-y
55 1/2-z,-x,1/2+y
56 1/2-z,x,1/2-y
57 1/2+y,z,1/2+x
58 1/2-y,z,1/2-x
59 1/2+y,-z,1/2-x
60 1/2-y,-z,1/2+x
61 1/2+y,x,1/2+z
62 1/2-y,-x,1/2+z
63 1/2+y,-x,1/2-z
64 1/2-y,x,1/2-z
65 1/2+x,z,1/2+y
66 1/2-x,z,1/2-y
67 1/2-x,-z,1/2+y
68 1/2+x,-z,1/2-y
69 1/2+z,y,1/2+x
70 1/2+z,-y,1/2-x
71 1/2-z,y,1/2-x
72 1/2-z,-y,1/2+x
73 1/2+x,1/2+y,z
74 1/2-x,1/2-y,z
75 1/2-x,1/2+y,-z
76 1/2+x,1/2-y,-z
77 1/2+z,1/2+x,y
78 1/2+z,1/2-x,-y
79 1/2-z,1/2-x,y
80 1/2-z,1/2+x,-y
81 1/2+y,1/2+z,x
82 1/2-y,1/2+z,-x
83 1/2+y,1/2-z,-x
84 1/2-y,1/2-z,x
85 1/2+y,1/2+x,z
86 1/2-y,1/2-x,z
87 1/2+y,1/2-x,-z
88 1/2-y,1/2+x,-z
89 1/2+x,1/2+z,y
90 1/2-x,1/2+z,-y
91 1/2-x,1/2-z,y
92 1/2+x,1/2-z,-y
93 1/2+z,1/2+y,x
94 1/2+z,1/2-y,-x
95 1/2-z,1/2+y,-x
96 1/2-z,1/2-y,x
_cell_length_a                   25.6590(13)
_cell_length_b                   25.6590(13)
_cell_length_c                   25.6590(13)
_cell_angle_alpha                90
_cell_angle_beta                 90
_cell_angle_gamma                90
_cell_volume                     16893.5
loop_
_atom_site_label
_atom_site_type_symbol
_atom_site_fract_x
_atom_site_fract_y
_atom_site_fract_z
O1 O 0.2500 0.2500 0.2500
O2 O 0.2182(4) 0.2182(4) 0.1337(5)
C1 C 0.2500 0.2500 0.1120(6)
C2 C 0.2500 0.2500 -0.0518(6)
C3 C 0.2500 0.2500 0.0583(7)
C4 C 0.2500 0.2500 -0.1124(6)
O3 O 0.2500 0.2500 -0.2500
O4 O 0.2186(3) 0.2186(3) -0.1339(3)
C5 C 0.2198(12) 0.2198(12) -0.0247(6)
C6 C 0.2199(8) 0.2199(8) 0.0252(5)
Zn1 Zn 0.20650(6) 0.20650(6) -0.20650(6)
Zn2 Zn 0.20660(5) 0.20660(5) 0.20660(5)
O2UB O 0.2818(4) 0.2818(4) 0.1337(5)
O4UB O 0.2814(3) 0.2814(3) -0.1339(3)
C5UB C 0.2802(12) 0.2802(12) -0.0247(6)
C6UB C 0.2801(8) 0.2801(8) 0.0252(5)
O2D O 0.1337(5) 0.2182(4) 0.2182(4)
C1D C 0.1120(6) 0.2500 0.2500
C2D C -0.0518(6) 0.2500 0.2500
C3D C 0.0583(7) 0.2500 0.2500
C4D C -0.1124(6) 0.2500 0.2500
O4D O -0.1339(3) 0.2186(3) 0.2186(3)
C5D C -0.0247(6) 0.2198(12) 0.2198(12)
C6D C 0.0252(5) 0.2199(8) 0.2199(8)
Zn1B Zn -0.20650(6) 0.20650(6) 0.20650(6)
O2CA O 0.1337(5) 0.2818(4) 0.2818(4)
O4CA O -0.1339(3) 0.2814(3) 0.2814(3)
C5CA C -0.0247(6) 0.2802(12) 0.2802(12)
C6CA C 0.0252(5) 0.2801(8) 0.2801(8)
O2G O -0.1337(5) 0.2182(4) -0.2182(4)
C1G C -0.1120(6) 0.2500 -0.2500
C2G C 0.0518(6) 0.2500 -0.2500
C3G C -0.0583(7) 0.2500 -0.2500
C4G C 0.1124(6) 0.2500 -0.2500
O4G O 0.1339(3) 0.2186(3) -0.2186(3)
C5G C 0.0247(6) 0.2198(12) -0.2198(12)
C6G C -0.0252(5) 0.2199(8) -0.2199(8)
Zn2B Zn -0.20660(5) 0.20660(5) -0.20660(5)
O2DA O -0.1337(5) 0.2818(4) -0.2818(4)
O4DA O 0.1339(3) 0.2814(3) -0.2814(3)
C5DA C 0.0247(6) 0.2802(12) -0.2802(12)
C6DA C -0.0252(5) 0.2801(8) -0.2801(8)
O2H O 0.2182(4) 0.1337(5) 0.2182(4)
C1H C 0.2500 0.1120(6) 0.2500
C2H C 0.2500 -0.0518(6) 0.2500
C3H C 0.2500 0.0583(7) 0.2500
C4H C 0.2500 -0.1124(6) 0.2500
O4H O 0.2186(3) -0.1339(3) 0.2186(3)
C5H C 0.2198(12) -0.0247(6) 0.2198(12)
C6H C 0.2199(8) 0.0252(5) 0.2199(8)
Zn1C Zn 0.20650(6) -0.20650(6) 0.20650(6)
O2EB O 0.2818(4) 0.1337(5) 0.2818(4)
O4EB O 0.2814(3) -0.1339(3) 0.2814(3)
C5EB C 0.2802(12) -0.0247(6) 0.2802(12)
C6EB C 0.2801(8) 0.0252(5) 0.2801(8)
O2J O 0.2182(4) -0.1337(5) -0.2182(4)
C1J C 0.2500 -0.1120(6) -0.2500
C2J C 0.2500 0.0518(6) -0.2500
C3J C 0.2500 -0.0583(7) -0.2500
C4J C 0.2500 0.1124(6) -0.2500
O4J O 0.2186(3) 0.1339(3) -0.2186(3)
C5J C 0.2198(12) 0.0247(6) -0.2198(12)
C6J C 0.2199(8) -0.0252(5) -0.2199(8)
Zn2C Zn 0.20660(5) -0.20660(5) -0.20660(5)
O2GB O 0.2818(4) -0.1337(5) -0.2818(4)
O4GB O 0.2814(3) 0.1339(3) -0.2814(3)
C5GB C 0.2802(12) 0.0247(6) -0.2802(12)
C6GB C 0.2801(8) -0.0252(5) -0.2801(8)
O2AA O 0.2182(4) 0.2818(4) -0.6337(5)
C1AA C 0.2500 0.2500 -0.6120(6)
C2AA C 0.2500 0.2500 -0.4482(6)
C3AA C 0.2500 0.2500 -0.5583(7)
C4AA C 0.2500 0.2500 -0.3876(6)
O4AA O 0.2186(3) 0.2814(3) -0.3661(3)
C5AA C 0.2198(12) 0.2802(12) -0.4753(6)
C6AA C 0.2199(8) 0.2801(8) -0.5252(5)
Zn1AA Zn 0.20650(6) 0.29350(6) -0.29350(6)
O2XA O 0.2818(4) 0.2182(4) -0.6337(5)
O4XA O 0.2814(3) 0.2186(3) -0.3661(3)
C5XA C 0.2802(12) 0.2198(12) -0.4753(6)
C6XA C 0.2801(8) 0.2199(8) -0.5252(5)
Zn2AA Zn 0.20660(5) 0.29340(5) 0.29340(5)
O1B O -0.2500 0.2500 -0.2500
O1C O 0.2500 -0.2500 -0.2500
O2B O -0.2182(4) 0.2182(4) -0.1337(5)
O2C O 0.2182(4) -0.2182(4) -0.1337(5)
O2E O 0.1337(5) -0.2182(4) -0.2182(4)
O2I O -0.2182(4) 0.1337(5) -0.2182(4)
O2AA_2 O 0.2182(4) 0.2818(4) 0.3663(5)
O2HA O 0.2182(4) 0.3663(5) 0.2818(4)
O3B O -0.2500 0.2500 0.2500
O3C O 0.2500 -0.2500 0.2500
O4B O -0.2186(3) 0.2186(3) 0.1339(3)
O4C O 0.2186(3) -0.2186(3) 0.1339(3)
O4F O 0.1339(3) -0.2186(3) 0.2186(3)
O4K O -0.2186(3) 0.1339(3) 0.2186(3)
O4FA O 0.2186(3) 0.3661(3) -0.2814(3)
Zn1Y Zn -0.20650(6) 0.29350(6) 0.29350(6)
Zn1WA Zn 0.29350(6) -0.20650(6) 0.29350(6)
Zn1XA Zn 0.29350(6) 0.20650(6) -0.29350(6)
Zn1UB Zn 0.29350(6) 0.29350(6) -0.20650(6)
Zn2Y Zn -0.20660(5) 0.29340(5) -0.29340(5)
Zn2AA_2 Zn 0.20660(5) 0.29340(5) -0.70660(5)
Zn2WA Zn 0.29340(5) -0.20660(5) -0.29340(5)
Zn2XA Zn 0.29340(5) 0.20660(5) -0.70660(5)
Zn2XA_2 Zn 0.29340(5) 0.20660(5) 0.29340(5)
Zn2UB Zn 0.29340(5) 0.29340(5) 0.20660(5)
loop_
_geom_bond_atom_site_label_1
_geom_bond_atom_site_label_2
_geom_bond_site_symmetry_1
_geom_bond_site_symmetry_2
O1 Zn2 1_555 1_555
O2 C1 1_555 1_555
C1 C3 1_555 1_555
C2 C4 1_555 1_555
C3 C6 1_555 1_555
C4 O4 1_555 1_555
O3 Zn1 1_555 1_555
O4 Zn1 1_555 1_555
C5 C2 1_555 1_555
C6 C5 1_555 1_555
Zn1 O4G 1_555 1_555
Zn2 O2 1_555 1_555
O2UB C1 1_555 1_555
O4UB C4 1_555 1_555
C5UB C2 1_555 1_555
C6UB C3 1_555 1_555
O2D Zn2 1_555 1_555
C1D O2D 1_555 1_555
C2D C4D 1_555 1_555
C3D C1D 1_555 1_555
C4D O4D 1_555 1_555
O4D Zn1B 1_555 1_555
C5D C2D 1_555 1_555
C6D C3D 1_555 1_555
Zn1B O3B 1_555 1_555
O2CA C1D 1_555 1_555
O4CA C4D 1_555 1_555
C5CA C2D 1_555 1_555
C6CA C3D 1_555 1_555
O2G C1G 1_555 1_555
C1G C3G 1_555 1_555
C2G C4G 1_555 1_555
C3G C6G 1_555 1_555
C4G O4G 1_555 1_555
C5G C2G 1_555 1_555
C6G C5G 1_555 1_555
Zn2B O2G 1_555 1_555
O2DA C1G 1_555 1_555
O4DA C4G 1_555 1_555
C5DA C2G 1_555 1_555
C6DA C3G 1_555 1_555
O2H Zn2 1_555 1_555
C1H O2H 1_555 1_555
C2H C4H 1_555 1_555
C3H C1H 1_555 1_555
C4H O4H 1_555 1_555
O4H Zn1C 1_555 1_555
C5H C2H 1_555 1_555
C6H C3H 1_555 1_555
Zn1C O3C 1_555 1_555
O2EB C1H 1_555 1_555
O4EB C4H 1_555 1_555
C5EB C2H 1_555 1_555
C6EB C3H 1_555 1_555
O2J C1J 1_555 1_555
C1J C3J 1_555 1_555
C2J C4J 1_555 1_555
C3J C6J 1_555 1_555
C4J O4J 1_555 1_555
O4J Zn1 1_555 1_555
C5J C2J 1_555 1_555
C6J C5J 1_555 1_555
Zn2C O2J 1_555 1_555
O2GB C1J 1_555 1_555
O4GB C4J 1_555 1_555
C5GB C2J 1_555 1_555
C6GB C3J 1_555 1_555
O2AA C1AA 1_555 1_555
C1AA C3AA 1_555 1_555
C2AA C4AA 1_555 1_555
C3AA C6AA 1_555 1_555
C4AA O4AA 1_555 1_555
O4AA Zn1AA 1_555 1_555
C5AA C2AA 1_555 1_555
C6AA C5AA 1_555 1_555
Zn1AA O3 1_555 1_555
O2XA C1AA 1_555 1_555
O4XA C4AA 1_555 1_555
C5XA C2AA 1_555 1_555
C6XA C3AA 1_555 1_555
Zn2AA O1 1_555 1_555
O1B Zn2B 1_555 1_555
O1C Zn2C 1_555 1_555
O2B Zn2B 1_555 1_555
O2C Zn2C 1_555 1_555
O2E Zn2C 1_555 1_555
O2I Zn2B 1_555 1_555
O2AA_2 Zn2AA 1_555 1_555
O2HA Zn2AA 1_555 1_555
O3B Zn1Y 1_555 1_555
O3C Zn1WA 1_555 1_555
O4B Zn1B 1_555 1_555
O4C Zn1C 1_555 1_555
O4F Zn1C 1_555 1_555
O4K Zn1B 1_555 1_555
O4FA Zn1AA 1_555 1_555
Zn1Y O4CA 1_555 1_555
Zn1WA O4EB 1_555 1_555
Zn1XA O3 1_555 1_555
Zn1UB O3 1_555 1_555
Zn2Y O2DA 1_555 1_555
Zn2AA_2 O2AA 1_555 1_555
Zn2WA O2GB 1_555 1_555
Zn2XA O2XA 1_555 1_555
Zn2XA_2 O1 1_555 1_555
Zn2UB O1 1_555 1_555
O2UB Zn2UB 1_555 1_555
O4UB Zn1UB 1_555 1_555
C5UB C6UB 1_555 1_555
C5D C6D 1_555 1_555
O2CA Zn2AA 1_555 1_555
C5CA C6CA 1_555 1_555
O4DA Zn1AA 1_555 1_555
C5DA C6DA 1_555 1_555
C5H C6H 1_555 1_555
O2EB Zn2XA_2 1_555 1_555
C5EB C6EB 1_555 1_555
O4GB Zn1XA 1_555 1_555
C5GB C6GB 1_555 1_555
O4XA Zn1XA 1_555 1_555
C5XA C6XA 1_555 1_555
O1B Zn2Y 1_555 1_555
O1C Zn2WA 1_555 1_555

#END
