
#######################################################################
#
#                 Cambridge Crystallographic Data Centre
#                                CCDC 
#
#######################################################################
#
# If this CIF has been generated from an entry in the Cambridge 
# Structural Database, then it will include bibliographic, chemical, 
# crystal, experimental, refinement or atomic coordinate data resulting 
# from the CCDC's data processing and validation procedures.
#
#######################################################################

data_HIYBUN
_chemical_formula_moiety         '(C54 H39 Br6 N15 O6 Zn3)n'
_symmetry_cell_setting           orthorhombic
_symmetry_space_group_name_H-M   'F d d 2'
_symmetry_Int_Tables_number      43
_space_group_name_Hall           'F 2 -2d'
loop_
_symmetry_equiv_pos_site_id
_symmetry_equiv_pos_as_xyz
1 x,y,z
2 -x,-y,z
3 1/4+x,1/4-y,1/4+z
4 1/4-x,1/4+y,1/4+z
5 x,1/2+y,1/2+z
6 -x,1/2-y,1/2+z
7 1/4+x,3/4-y,3/4+z
8 1/4-x,3/4+y,3/4+z
9 1/2+x,y,1/2+z
10 1/2-x,-y,1/2+z
11 3/4+x,1/4-y,3/4+z
12 3/4-x,1/4+y,3/4+z
13 1/2+x,1/2+y,z
14 1/2-x,1/2-y,z
15 3/4+x,3/4-y,1/4+z
16 3/4-x,3/4+y,1/4+z
_cell_length_a                   49.574(6)
_cell_length_b                   50.307(6)
_cell_length_c                   6.1937(8)
_cell_angle_alpha                90
_cell_angle_beta                 90
_cell_angle_gamma                90
_cell_volume                     15446.6
loop_
_atom_site_label
_atom_site_type_symbol
_atom_site_fract_x
_atom_site_fract_y
_atom_site_fract_z
_atom_site_U_iso_or_equiv
_atom_site_thermal_displace_type
Br1 Br -0.389885(6) 0.180422(6) -0.05927(5) 0.0200 Uani
Br2 Br -0.360833(5) 0.104880(6) -0.15010(5) 0.0175 Uani
Br3 Br -0.208247(6) 0.242486(6) 1.97519(5) 0.0221 Uani
Zn1 Zn -0.376530(6) 0.138655(6) 0.08231(6) 0.0139 Uani
Zn2 Zn -0.2500 0.2500 1.80928(8) 0.0148 Uani
C1 C -0.32389(6) 0.12968(6) 0.2841(5) 0.0179 Uani
H1 H -0.3225 0.1175 0.1673 0.0210 Uiso
C2 C -0.30223(6) 0.13264(6) 0.4210(5) 0.0175 Uani
H2 H -0.2862 0.1226 0.3987 0.0210 Uiso
C3 C -0.30398(5) 0.15034(5) 0.5916(5) 0.0133 Uani
C4 C -0.32792(5) 0.16414(6) 0.6234(5) 0.0152 Uani
H3 H -0.3299 0.1760 0.7415 0.0180 Uiso
C5 C -0.34882(5) 0.16014(6) 0.4785(5) 0.0154 Uani
H4 H -0.3652 0.1696 0.4994 0.0180 Uiso
C6 C -0.27974(5) 0.15506(5) 0.7268(5) 0.0135 Uani
C7 C -0.23469(5) 0.15058(6) 0.7600(5) 0.0138 Uani
C8 C -0.25819(5) 0.17280(5) 1.0128(5) 0.0121 Uani
C9 C -0.27896(6) 0.21658(5) 1.4768(5) 0.0154 Uani
H5 H -0.2947 0.2251 1.5307 0.0180 Uiso
C10 C -0.28113(6) 0.20084(5) 1.2944(5) 0.0139 Uani
H6 H -0.2981 0.1984 1.2255 0.0170 Uiso
C11 C -0.25810(6) 0.18866(5) 1.2141(5) 0.0139 Uani
C12 C -0.23382(6) 0.19229(6) 1.3230(5) 0.0153 Uani
H7 H -0.2178 0.1840 1.2725 0.0180 Uiso
C13 C -0.23333(6) 0.20801(6) 1.5048(5) 0.0168 Uani
H8 H -0.2167 0.2103 1.5795 0.0200 Uiso
C14 C -0.16090(6) 0.13717(6) 0.6738(5) 0.0188 Uani
H9 H -0.1442 0.1405 0.7438 0.0230 Uiso
C15 C -0.18439(6) 0.14596(6) 0.7716(5) 0.0170 Uani
H10 H -0.1839 0.1549 0.9066 0.0200 Uiso
C16 C -0.20873(5) 0.14132(6) 0.6669(5) 0.0144 Uani
C17 C -0.20855(6) 0.12829(6) 0.4699(5) 0.0184 Uani
H11 H -0.2249 0.1251 0.3945 0.0220 Uiso
C18 C -0.18430(6) 0.11995(6) 0.3848(5) 0.0191 Uani
H12 H -0.1843 0.1109 0.2503 0.0230 Uiso
N1 N -0.34703(5) 0.14342(5) 0.3098(4) 0.0147 Uani
N2 N -0.28171(5) 0.16916(5) 0.9095(4) 0.0137 Uani
N3 N -0.23421(5) 0.16401(5) 0.9454(4) 0.0146 Uani
N4 N -0.25677(5) 0.14526(5) 0.6460(4) 0.0135 Uani
N5 N -0.25550(5) 0.22035(5) 1.5807(4) 0.0152 Uani
N6 N -0.16065(5) 0.12420(5) 0.4853(4) 0.0158 Uani
Br1M Br -0.110115(6) 0.319578(6) -0.05927(5) 0.0200 Uani
Br2M Br -0.139167(5) 0.395120(6) -0.15010(5) 0.0175 Uani
Br3M Br -0.291753(6) 0.257514(6) 1.97519(5) 0.0221 Uani
Zn1M Zn -0.123470(6) 0.361345(6) 0.08231(6) 0.0139 Uani
Zn1B Zn -0.126530(6) 0.111345(6) 0.33231(6) 0.0139 Uani
Zn1C Zn -0.373470(6) 0.388655(6) 0.33231(6) 0.0139 Uani
C1M C -0.17611(6) 0.37032(6) 0.2841(5) 0.0179 Uani
H1M H -0.1775 0.3825 0.1673 0.0210 Uiso
C2M C -0.19777(6) 0.36736(6) 0.4210(5) 0.0175 Uani
H2M H -0.2138 0.3774 0.3987 0.0210 Uiso
C3M C -0.19602(5) 0.34966(5) 0.5916(5) 0.0133 Uani
C4M C -0.17208(5) 0.33586(6) 0.6234(5) 0.0152 Uani
H3M H -0.1701 0.3240 0.7415 0.0180 Uiso
C5M C -0.15118(5) 0.33986(6) 0.4785(5) 0.0154 Uani
H4M H -0.1348 0.3304 0.4994 0.0180 Uiso
C6M C -0.22026(5) 0.34494(5) 0.7268(5) 0.0135 Uani
C7M C -0.26531(5) 0.34942(6) 0.7600(5) 0.0138 Uani
C8M C -0.24181(5) 0.32720(5) 1.0128(5) 0.0121 Uani
C9M C -0.22104(6) 0.28342(5) 1.4768(5) 0.0154 Uani
H5M H -0.2053 0.2749 1.5307 0.0180 Uiso
C10M C -0.21887(6) 0.29916(5) 1.2944(5) 0.0139 Uani
H6M H -0.2019 0.3016 1.2255 0.0170 Uiso
C11M C -0.24190(6) 0.31134(5) 1.2141(5) 0.0139 Uani
C12M C -0.26618(6) 0.30771(6) 1.3230(5) 0.0153 Uani
H7M H -0.2822 0.3160 1.2725 0.0180 Uiso
C13M C -0.26667(6) 0.29199(6) 1.5048(5) 0.0168 Uani
H8M H -0.2833 0.2897 1.5795 0.0200 Uiso
C14M C -0.33910(6) 0.36283(6) 0.6738(5) 0.0188 Uani
H9M H -0.3558 0.3595 0.7438 0.0230 Uiso
C15M C -0.31561(6) 0.35404(6) 0.7716(5) 0.0170 Uani
H10M H -0.3161 0.3451 0.9066 0.0200 Uiso
C16M C -0.29127(5) 0.35868(6) 0.6669(5) 0.0144 Uani
C17M C -0.29145(6) 0.37171(6) 0.4699(5) 0.0184 Uani
H11M H -0.2751 0.3749 0.3945 0.0220 Uiso
C18M C -0.31570(6) 0.38005(6) 0.3848(5) 0.0191 Uani
H12M H -0.3157 0.3891 0.2503 0.0230 Uiso
N1M N -0.15297(5) 0.35658(5) 0.3098(4) 0.0147 Uani
N2M N -0.21829(5) 0.33084(5) 0.9095(4) 0.0137 Uani
N3M N -0.26579(5) 0.33599(5) 0.9454(4) 0.0146 Uani
N4M N -0.24323(5) 0.35474(5) 0.6460(4) 0.0135 Uani
N5M N -0.24450(5) 0.27965(5) 1.5807(4) 0.0152 Uani
N6M N -0.33935(5) 0.37580(5) 0.4853(4) 0.0158 Uani
N6J N -0.41065(5) 0.12580(5) 0.2353(4) 0.0158 Uani
N6K N -0.08935(5) 0.37420(5) 0.2353(4) 0.0158 Uani
C19 C -0.14535(6) 0.22219(6) 0.3021(6) 0.0241 Uani
C20 C -0.15426(8) 0.22658(9) 0.5089(7) 0.0383 Uani
H13 H -0.1669 0.2150 0.5749 0.0460 Uiso
C21 C -0.14436(11) 0.24807(11) 0.6165(8) 0.0550 Uani
H14 H -0.1505 0.2516 0.7589 0.0660 Uiso
C22 C -0.12572(12) 0.26468(9) 0.5239(9) 0.0583 Uani
H15 H -0.1190 0.2795 0.6019 0.0700 Uiso
C23 C -0.11679(11) 0.25971(9) 0.3164(9) 0.0517 Uani
H16 H -0.1037 0.2710 0.2529 0.0620 Uiso
C24 C -0.12678(8) 0.23847(8) 0.2011(7) 0.0328 Uani
H17 H -0.1211 0.2351 0.0572 0.0390 Uiso
N7 N -0.15610(5) 0.19956(6) 0.1767(6) 0.0315 Uani
O1 O -0.16998(5) 0.18337(5) 0.2723(6) 0.0470 Uani
O2 O -0.15069(6) 0.19805(5) -0.0152(5) 0.0398 Uani
C25 C -0.24309(6) 0.07964(6) 0.8024(5) 0.0204 Uani
C26 C -0.25206(6) 0.07029(6) 0.6056(6) 0.0229 Uani
H18 H -0.2703 0.0727 0.5623 0.0270 Uiso
C27 C -0.23399(7) 0.05741(7) 0.4735(6) 0.0280 Uani
H19 H -0.2397 0.0506 0.3379 0.0340 Uiso
C28 C -0.20740(7) 0.05427(7) 0.5376(7) 0.0333 Uani
H20 H -0.1949 0.0456 0.4447 0.0400 Uiso
C29 C -0.19892(7) 0.06365(8) 0.7360(7) 0.0340 Uani
H21 H -0.1807 0.0613 0.7790 0.0410 Uiso
C30 C -0.21681(7) 0.07642(7) 0.8724(6) 0.0269 Uani
H22 H -0.2112 0.0828 1.0098 0.0320 Uiso
N8 N -0.26202(6) 0.09413(5) 0.9415(5) 0.0242 Uani
O3 O -0.28548(5) 0.09636(5) 0.8822(4) 0.0291 Uani
O4 O -0.25338(6) 0.10389(6) 1.1089(5) 0.0401 Uani
C31 C -0.29904(8) 0.01687(7) 0.3988(6) 0.0336 Uani
C32 C -0.29526(8) 0.02701(11) 0.1937(9) 0.0507 Uani
H23 H -0.2816 0.0207 0.0993 0.0610 Uiso
C33 C -0.31429(9) 0.04842(9) 0.1327(8) 0.0483 Uani
H24 H -0.3134 0.0567 -0.0049 0.0580 Uiso
C34 C -0.33290(9) 0.05567(8) 0.2807(8) 0.0437 Uani
H25 H -0.3456 0.0691 0.2443 0.0520 Uiso
C35 C -0.33410(10) 0.04456(10) 0.4768(10) 0.0543 Uani
H26 H -0.3474 0.0508 0.5753 0.0650 Uiso
C36 C -0.31752(9) 0.02520(10) 0.5401(8) 0.0477 Uani
H27 H -0.3188 0.0176 0.6803 0.0580 Uiso
N9 N -0.28008(8) -0.00453(8) 0.4660(8) 0.0533 Uani
O5 O -0.28587(9) -0.01728(8) 0.6186(7) 0.0703 Uani
O6 O -0.26023(7) -0.00928(8) 0.3514(8) 0.0654 Uani
loop_
_atom_site_aniso_label
_atom_site_aniso_U_11
_atom_site_aniso_U_22
_atom_site_aniso_U_33
_atom_site_aniso_U_23
_atom_site_aniso_U_13
_atom_site_aniso_U_12
Br1 0.01836(13) 0.01981(13) 0.02193(15) 0.00443(12) 0.00374(12) 0.00261(11)
Br2 0.01701(12) 0.01903(13) 0.01657(13) -0.00149(11) -0.00481(11) -0.00017(10)
Br3 0.02734(15) 0.02109(14) 0.01777(14) -0.00129(11) -0.00809(12) 0.00349(12)
Zn1 0.00924(13) 0.01897(15) 0.01338(15) 0.00174(13) -0.00154(12) -0.00155(11)
Zn2 0.0203(2) 0.0127(2) 0.0115(2) 0.000 0.000 0.00030(17)
C1 0.0137(12) 0.0208(14) 0.0192(15) -0.0034(11) -0.0002(11) -0.0001(11)
C2 0.0116(12) 0.0181(13) 0.0227(15) -0.0037(12) -0.0022(11) 0.0007(10)
C3 0.0109(11) 0.0172(12) 0.0117(12) 0.0035(11) -0.0006(11) -0.0011(9)
C4 0.0133(12) 0.0183(13) 0.0140(13) -0.0020(11) 0.0022(10) -0.0005(10)
C5 0.0098(11) 0.0195(13) 0.0169(14) 0.0027(12) 0.0013(11) 0.0005(10)
C6 0.0106(12) 0.0145(12) 0.0153(13) 0.0007(11) 0.0000(10) -0.0006(9)
C7 0.0121(12) 0.0148(12) 0.0146(13) 0.0002(10) 0.0001(10) -0.0006(10)
C8 0.0132(12) 0.0117(11) 0.0115(12) 0.0012(10) 0.0009(10) -0.0007(9)
C9 0.0148(12) 0.0161(12) 0.0152(13) -0.0030(11) 0.0010(11) 0.0020(10)
C10 0.0126(12) 0.0149(12) 0.0143(13) -0.0006(10) -0.0001(10) 0.0001(10)
C11 0.0166(13) 0.0123(11) 0.0127(13) 0.0003(11) 0.0009(11) -0.0016(10)
C12 0.0142(12) 0.0183(13) 0.0133(13) -0.0024(11) 0.0004(11) 0.0015(10)
C13 0.0145(12) 0.0195(13) 0.0164(14) -0.0026(11) -0.0015(11) -0.0002(10)
C14 0.0107(12) 0.0278(15) 0.0178(14) -0.0038(12) -0.0037(11) -0.0002(11)
C15 0.0140(13) 0.0229(14) 0.0141(14) -0.0034(11) -0.0027(10) 0.0016(11)
C16 0.0099(12) 0.0170(12) 0.0163(13) -0.0006(10) -0.0031(10) 0.0005(10)
C17 0.0108(12) 0.0257(14) 0.0188(14) -0.0033(13) -0.0018(11) -0.0011(11)
C18 0.0156(13) 0.0253(15) 0.0164(14) -0.0067(12) -0.0026(11) 0.0027(11)
N1 0.0104(10) 0.0190(11) 0.0148(12) 0.0001(10) 0.0013(9) -0.0010(8)
N2 0.0133(11) 0.0150(11) 0.0127(11) 0.0017(9) 0.0002(9) -0.0003(8)
N3 0.0133(11) 0.0154(11) 0.0150(12) -0.0009(10) -0.0014(9) 0.0004(8)
N4 0.0098(10) 0.0168(11) 0.0138(12) -0.0024(9) 0.0006(8) -0.0004(8)
N5 0.0175(11) 0.0130(10) 0.0151(11) 0.0015(10) 0.0017(10) -0.0013(8)
N6 0.0124(10) 0.0190(11) 0.0160(12) -0.0022(10) -0.0021(9) 0.0021(9)
Br1M 0.01836 0.01981 0.02193 -0.00443 -0.00374 0.00261
Br2M 0.01701 0.01903 0.01657 0.00149 0.00481 -0.00017
Br3M 0.02734 0.02109 0.01777 0.00129 0.00809 0.00349
Zn1M 0.00924 0.01897 0.01338 -0.00174 0.00154 -0.00155
Zn1B 0.00924 0.01897 0.01338 -0.00174 -0.00154 0.00155
Zn1C 0.00924 0.01897 0.01338 0.00174 0.00154 0.00155
C1M 0.0137 0.0208 0.0192 0.0034 0.0002 -0.0001
C2M 0.0116 0.0181 0.0227 0.0037 0.0022 0.0007
C3M 0.0109 0.0172 0.0117 -0.0035 0.0006 -0.0011
C4M 0.0133 0.0183 0.014 0.002 -0.0022 -0.0005
C5M 0.0098 0.0195 0.0169 -0.0027 -0.0013 0.0005
C6M 0.0106 0.0145 0.0153 -0.0007 0 -0.0006
C7M 0.0121 0.0148 0.0146 -0.0002 -0.0001 -0.0006
C8M 0.0132 0.0117 0.0115 -0.0012 -0.0009 -0.0007
C9M 0.0148 0.0161 0.0152 0.003 -0.001 0.002
C10M 0.0126 0.0149 0.0143 0.0006 0.0001 0.0001
C11M 0.0166 0.0123 0.0127 -0.0003 -0.0009 -0.0016
C12M 0.0142 0.0183 0.0133 0.0024 -0.0004 0.0015
C13M 0.0145 0.0195 0.0164 0.0026 0.0015 -0.0002
C14M 0.0107 0.0278 0.0178 0.0038 0.0037 -0.0002
C15M 0.014 0.0229 0.0141 0.0034 0.0027 0.0016
C16M 0.0099 0.017 0.0163 0.0006 0.0031 0.0005
C17M 0.0108 0.0257 0.0188 0.0033 0.0018 -0.0011
C18M 0.0156 0.0253 0.0164 0.0067 0.0026 0.0027
N1M 0.0104 0.019 0.0148 -0.0001 -0.0013 -0.001
N2M 0.0133 0.015 0.0127 -0.0017 -0.0002 -0.0003
N3M 0.0133 0.0154 0.015 0.0009 0.0014 0.0004
N4M 0.0098 0.0168 0.0138 0.0024 -0.0006 -0.0004
N5M 0.0175 0.013 0.0151 -0.0015 -0.0017 -0.0013
N6M 0.0124 0.019 0.016 0.0022 0.0021 0.0021
N6J 0.0124 0.019 0.016 0.0022 -0.0021 -0.0021
N6K 0.0124 0.019 0.016 -0.0022 0.0021 -0.0021
C19 0.0199(14) 0.0189(14) 0.0334(19) 0.0038(13) -0.0036(13) 0.0036(11)
C20 0.0275(18) 0.060(3) 0.0274(19) 0.0113(19) 0.0007(15) 0.0081(17)
C21 0.057(3) 0.080(4) 0.028(2) -0.016(2) -0.009(2) 0.033(3)
C22 0.083(4) 0.030(2) 0.062(3) -0.014(2) -0.038(3) 0.010(2)
C23 0.068(3) 0.032(2) 0.055(3) 0.013(2) -0.018(3) -0.021(2)
C24 0.0339(18) 0.0352(18) 0.0294(18) 0.0042(16) 0.0021(16) -0.0073(15)
N7 0.0146(12) 0.0200(13) 0.060(2) 0.0064(14) -0.0097(13) 0.0051(10)
O1 0.0185(12) 0.0296(13) 0.093(3) 0.0171(15) -0.0060(14) -0.0042(10)
O2 0.0490(16) 0.0321(14) 0.0383(17) -0.0096(13) -0.0178(14) 0.0112(12)
C25 0.0226(15) 0.0176(14) 0.0210(15) -0.0013(12) 0.0013(12) -0.0021(11)
C26 0.0207(14) 0.0232(15) 0.0247(16) 0.0027(13) -0.0026(13) -0.0028(11)
C27 0.0290(17) 0.0281(16) 0.0269(17) -0.0095(15) 0.0016(14) -0.0018(13)
C28 0.0253(17) 0.0316(18) 0.043(2) -0.0039(16) 0.0106(16) 0.0014(14)
C29 0.0215(16) 0.0326(18) 0.048(2) -0.0012(17) -0.0025(16) 0.0006(13)
C30 0.0257(16) 0.0285(16) 0.0264(18) -0.0050(14) -0.0051(14) -0.0042(13)
N8 0.0293(14) 0.0202(12) 0.0230(14) -0.0012(11) 0.0051(12) -0.0030(11)
O3 0.0255(12) 0.0292(12) 0.0326(14) 0.0002(10) 0.0072(10) 0.0003(10)
O4 0.0482(17) 0.0441(15) 0.0281(14) -0.0171(13) -0.0009(13) 0.0019(12)
C31 0.043(2) 0.0258(17) 0.032(2) 0.0025(15) -0.0126(16) -0.0032(15)
C32 0.0281(19) 0.071(3) 0.053(3) -0.030(3) 0.009(2) -0.022(2)
C33 0.052(3) 0.050(2) 0.043(3) 0.015(2) -0.012(2) -0.028(2)
C34 0.040(2) 0.0290(19) 0.062(3) 0.0074(19) -0.011(2) 0.0036(17)
C35 0.048(3) 0.054(3) 0.061(3) 0.004(3) -0.004(2) -0.007(2)
C36 0.047(2) 0.050(3) 0.046(3) 0.007(2) -0.001(2) -0.008(2)
N9 0.046(2) 0.050(2) 0.064(3) 0.000(2) -0.009(2) 0.0050(18)
O5 0.080(3) 0.066(2) 0.065(3) 0.031(2) -0.009(2) 0.017(2)
O6 0.0442(19) 0.074(2) 0.078(3) -0.020(2) -0.0030(19) 0.0099(17)
loop_
_geom_bond_atom_site_label_1
_geom_bond_atom_site_label_2
_geom_bond_site_symmetry_1
_geom_bond_site_symmetry_2
Br1 Zn1 1_555 1_555
Br2 Zn1 1_555 1_555
Br3 Zn2 1_555 1_555
Zn1 N1 1_555 1_555
Zn2 N5 1_555 1_555
C1 H1 1_555 1_555
C2 C1 1_555 1_555
H2 C2 1_555 1_555
C3 C2 1_555 1_555
C4 C3 1_555 1_555
H3 C4 1_555 1_555
C5 C4 1_555 1_555
H4 C5 1_555 1_555
C6 C3 1_555 1_555
C7 C16 1_555 1_555
C8 C11 1_555 1_555
C9 H5 1_555 1_555
C10 C9 1_555 1_555
H6 C10 1_555 1_555
C11 C10 1_555 1_555
C12 C11 1_555 1_555
H7 C12 1_555 1_555
C13 C12 1_555 1_555
H8 C13 1_555 1_555
C14 H9 1_555 1_555
C15 C14 1_555 1_555
H10 C15 1_555 1_555
C16 C15 1_555 1_555
C17 C16 1_555 1_555
H11 C17 1_555 1_555
C18 C17 1_555 1_555
H12 C18 1_555 1_555
N1 C1 1_555 1_555
N2 C6 1_555 1_555
N3 C7 1_555 1_555
N4 C6 1_555 1_555
N5 C9 1_555 1_555
N6 C14 1_555 1_555
C19 C20 1_555 1_555
C20 H13 1_555 1_555
C21 C20 1_555 1_555
H14 C21 1_555 1_555
C22 C21 1_555 1_555
H15 C22 1_555 1_555
C23 C22 1_555 1_555
H16 C23 1_555 1_555
C24 C19 1_555 1_555
H17 C24 1_555 1_555
N7 C19 1_555 1_555
O1 N7 1_555 1_555
O2 N7 1_555 1_555
C25 C26 1_555 1_555
C26 H18 1_555 1_555
C27 C26 1_555 1_555
H19 C27 1_555 1_555
C28 C27 1_555 1_555
H20 C28 1_555 1_555
C29 C28 1_555 1_555
H21 C29 1_555 1_555
C30 C25 1_555 1_555
H22 C30 1_555 1_555
N8 C25 1_555 1_555
O3 N8 1_555 1_555
O4 N8 1_555 1_555
C31 C32 1_555 1_555
C32 H23 1_555 1_555
C33 C32 1_555 1_555
H24 C33 1_555 1_555
C34 C33 1_555 1_555
H25 C34 1_555 1_555
C35 C34 1_555 1_555
H26 C35 1_555 1_555
C36 C31 1_555 1_555
H27 C36 1_555 1_555
N9 C31 1_555 1_555
O5 N9 1_555 1_555
O6 N9 1_555 1_555
Br1M Zn1M 1_555 1_555
Br2M Zn1M 1_555 1_555
Br3M Zn2 1_555 1_555
Zn1M N1M 1_555 1_555
Zn1B N6 1_555 1_555
Zn1C N6M 1_555 1_555
C1M H1M 1_555 1_555
C2M C1M 1_555 1_555
H2M C2M 1_555 1_555
C3M C2M 1_555 1_555
C4M C3M 1_555 1_555
H3M C4M 1_555 1_555
C5M C4M 1_555 1_555
H4M C5M 1_555 1_555
C6M C3M 1_555 1_555
C7M C16M 1_555 1_555
C8M C11M 1_555 1_555
C9M H5M 1_555 1_555
C10M C9M 1_555 1_555
H6M C10M 1_555 1_555
C11M C10M 1_555 1_555
C12M C11M 1_555 1_555
H7M C12M 1_555 1_555
C13M C12M 1_555 1_555
H8M C13M 1_555 1_555
C14M H9M 1_555 1_555
C15M C14M 1_555 1_555
H10M C15M 1_555 1_555
C16M C15M 1_555 1_555
C17M C16M 1_555 1_555
H11M C17M 1_555 1_555
C18M C17M 1_555 1_555
H12M C18M 1_555 1_555
N1M C1M 1_555 1_555
N2M C6M 1_555 1_555
N3M C7M 1_555 1_555
N4M C6M 1_555 1_555
N5M Zn2 1_555 1_555
N6M C14M 1_555 1_555
N6J Zn1 1_555 1_555
N6K Zn1M 1_555 1_555
C5 N1 1_555 1_555
C7 N4 1_555 1_555
C8 N2 1_555 1_555
C8 N3 1_555 1_555
C13 N5 1_555 1_555
C18 N6 1_555 1_555
C23 C24 1_555 1_555
C29 C30 1_555 1_555
C35 C36 1_555 1_555
C5M N1M 1_555 1_555
C7M N4M 1_555 1_555
C8M N2M 1_555 1_555
C8M N3M 1_555 1_555
C9M N5M 1_555 1_555
C13M N5M 1_555 1_555
C18M N6M 1_555 1_555

#END
