
#######################################################################
#
#                 Cambridge Crystallographic Data Centre
#                                CCDC 
#
#######################################################################
#
# If this CIF has been generated from an entry in the Cambridge 
# Structural Database, then it will include bibliographic, chemical, 
# crystal, experimental, refinement or atomic coordinate data resulting 
# from the CCDC's data processing and validation procedures.
#
#######################################################################

data_DAWWAB
_chemical_formula_moiety         'C48 H32 Cl4 Cu24 N54 O46 P1 W12'
_symmetry_cell_setting           monoclinic
_symmetry_space_group_name_H-M   'C 2'
_symmetry_Int_Tables_number      5
_space_group_name_Hall           'C 2y'
loop_
_symmetry_equiv_pos_site_id
_symmetry_equiv_pos_as_xyz
1 x,y,z
2 -x,y,-z
3 1/2+x,1/2+y,z
4 1/2-x,1/2+y,-z
_cell_length_a                   24.0010(12)
_cell_length_b                   17.4550(18)
_cell_length_c                   11.676(3)
_cell_angle_alpha                90
_cell_angle_beta                 105.0960(14)
_cell_angle_gamma                90
_cell_volume                     4722.71
loop_
_atom_site_label
_atom_site_type_symbol
_atom_site_fract_x
_atom_site_fract_y
_atom_site_fract_z
W1 W -0.0000 -0.3827(5) 0.0000
W2 W 0.0000 0.0238(5) 0.0000
W3 W -0.0479(3) -0.2811(3) -0.2719(6)
W4 W -0.0481(3) -0.0774(3) -0.2722(6)
W5 W -0.1333(3) -0.0773(3) -0.0630(6)
W6 W -0.1330(3) -0.2812(3) -0.0634(6)
W7 W -0.08474(12) -0.1793(6) 0.2090(2)
P1 P -0.0000 -0.182(4) 0.0000
Cl1 Cl 0.0000 0.325(4) 0.0000
Cl2 Cl 0.1210(8) 0.320(4) -0.2457(15)
C1 C -0.143(5) -0.460(7) 0.162(8)
C2 C -0.148(4) -0.512(6) 0.054(8)
Cu1 Cu 0.0533(18) 0.255(2) -0.389(4)
Cu3 Cu 0.0359(12) 0.408(2) -0.122(2)
Cu4 Cu -0.1211(4) -0.6786(19) -0.1651(8)
Cu5 Cu 0.0327(11) 0.2252(17) -0.115(2)
Cu6 Cu -0.2504(13) -0.4276(17) -0.001(3)
Cu7 Cu 0.0586(19) 0.382(3) -0.388(3)
N1 N -0.191(5) -0.503(5) -0.041(10)
N2 N -0.113(4) -0.562(5) 0.031(6)
N3 N -0.188(3) -0.548(5) -0.113(7)
N4 N -0.140(4) -0.580(6) -0.077(8)
N5 N -0.190(4) -0.413(7) 0.154(8)
C3 C -0.096(5) -0.458(8) 0.246(14)
H1 H -0.0652 -0.4899 0.2450
C4 C -0.092(4) -0.404(6) 0.345(9)
H2 H -0.0599 -0.4020 0.4097
C5 C -0.138(5) -0.357(7) 0.337(9)
H3 H -0.1383 -0.3227 0.3975
C6 C -0.184(6) -0.361(6) 0.236(11)
H4 H -0.2135 -0.3241 0.2277
O1 O -0.0000 -0.474(8) 0.0000
O2 O -0.083(4) -0.372(5) -0.020(8)
O3 O -0.019(3) -0.373(4) -0.178(6)
O4 O -0.069(3) -0.177(8) -0.320(8)
O5 O -0.062(3) -0.182(14) 0.016(7)
O6 O -0.125(3) -0.180(8) 0.307(6)
O7 O 0.0000 0.126(9) 0.0000
O8 O -0.199(5) -0.329(6) -0.081(9)
O9 O -0.077(5) -0.033(6) -0.404(10)
O10 O -0.003(3) -0.189(7) -0.129(6)
O11 O -0.194(4) -0.028(8) -0.103(10)
O12 O -0.030(6) -0.244(8) -0.053(12)
O13 O -0.064(4) -0.336(6) -0.397(9)
O14 O -0.117(4) -0.060(5) -0.217(9)
O15 O -0.108(4) -0.272(5) -0.198(8)
O16 O -0.133(5) -0.255(6) 0.093(9)
O17 O -0.157(3) -0.181(9) -0.103(5)
O18 O -0.112(4) -0.104(5) 0.098(8)
O19 O 0.029(3) -0.105(4) -0.255(7)
O20 O -0.073(4) -0.008(5) -0.002(7)
O21 O -0.012(3) -0.012(4) -0.148(6)
O22 O 0.026(5) -0.258(6) -0.299(9)
C7 C 0.234(3) 0.481(5) -0.367(6)
H5 H 0.2466 0.4598 -0.2924
C8 C 0.268(3) 0.532(6) -0.409(8)
H6 H 0.3049 0.5446 -0.3616
C9 C 0.249(4) 0.565(7) -0.521(8)
H7 H 0.2721 0.5986 -0.5486
C10 C 0.194(4) 0.546(6) -0.592(6)
H8 H 0.1812 0.5679 -0.6665
C11 C 0.159(2) 0.495(5) -0.550(5)
N6 N 0.179(3) 0.463(4) -0.438(6)
C12 C 0.088(3) 0.087(5) -0.258(8)
H9 H 0.0533 0.1115 -0.2622
C13 C 0.134(4) 0.095(5) -0.157(7)
N7 N 0.186(3) 0.058(5) -0.151(6)
C14 C 0.193(3) 0.014(5) -0.246(8)
H10 H 0.2274 -0.0106 -0.2416
C15 C 0.147(4) 0.006(6) -0.346(7)
H11 H 0.1511 -0.0237 -0.4096
C16 C 0.095(3) 0.043(6) -0.353(7)
H12 H 0.0641 0.0374 -0.4199
N8 N -0.1910(19) 0.309(5) -0.343(4)
C17 C -0.248(2) 0.333(5) -0.363(5)
H13 H -0.2612 0.3531 -0.3014
C18 C -0.2850(19) 0.328(6) -0.477(5)
H14 H -0.3230 0.3443 -0.4902
C19 C -0.265(3) 0.298(7) -0.569(4)
H15 H -0.2899 0.2949 -0.6448
C20 C -0.208(3) 0.274(5) -0.549(4)
H16 H -0.1949 0.2543 -0.6106
C21 C -0.171(2) 0.279(5) -0.436(5)
N9 N 0.198(3) 0.147(4) 0.022(5)
N10 N 0.195(3) 0.205(4) 0.103(6)
N11 N 0.139(3) 0.237(4) 0.071(5)
N12 N 0.107(2) 0.198(3) -0.031(4)
C22 C 0.144(2) 0.142(4) -0.062(5)
N13 N -0.0245(17) 0.246(3) -0.268(3)
N14 N -0.080(2) 0.265(4) -0.278(4)
C23 C -0.108(2) 0.258(4) -0.393(4)
N15 N -0.070(2) 0.220(5) -0.451(4)
N16 N -0.022(4) 0.217(6) -0.371(8)
N17 N 0.064(3) 0.425(5) -0.554(6)
C24 C 0.101(3) 0.468(4) -0.611(5)
N18 N 0.077(3) 0.473(5) -0.728(5)
N19 N 0.022(3) 0.436(5) -0.735(6)
N20 N -0.017(3) 0.410(5) -0.365(7)
O23 O -0.032(9) -0.100(10) -0.066(17)
W3A W 0.0479(3) -0.2811(3) 0.2719(6)
W4A W 0.0481(3) -0.0774(3) 0.2722(6)
W5A W 0.1333(3) -0.0773(3) 0.0630(6)
W6A W 0.1330(3) -0.2812(3) 0.0634(6)
W7A W 0.08474(12) -0.1793(6) -0.2090(2)
Cl2A Cl -0.1210(8) 0.320(4) -0.7543(15)
Cl2A_2 Cl -0.1210(8) 0.320(4) 0.2457(15)
C1A C 0.143(5) -0.460(7) -0.162(8)
C2A C 0.148(4) -0.512(6) -0.054(8)
Cu1A Cu -0.0533(18) 0.255(2) 0.389(4)
Cu1A_2 Cu -0.0533(18) 0.255(2) -0.611(4)
Cu1_2 Cu 0.0533(18) 0.255(2) 0.611(4)
Cu3A Cu -0.0359(12) 0.408(2) 0.122(2)
Cu3A_2 Cu -0.0359(12) -0.592(2) 0.122(2)
Cu3A_3 Cu -0.0359(12) 0.408(2) -0.878(2)
Cu3_2 Cu 0.0359(12) -0.592(2) -0.122(2)
Cu4A Cu 0.1211(4) -0.6786(19) 0.1651(8)
Cu4_2 Cu -0.1211(4) 0.3214(19) -0.1651(8)
Cu4A_2 Cu 0.1211(4) 0.3214(19) 0.1651(8)
Cu4C Cu -0.3789(4) -0.1786(19) 0.1651(8)
Cu5A Cu -0.0327(11) 0.2252(17) 0.115(2)
Cu5B Cu -0.4673(11) -0.2748(17) -0.115(2)
Cu6A Cu 0.2504(13) -0.4276(17) 0.001(3)
Cu6C Cu -0.2496(13) 0.0724(17) 0.001(3)
Cu6B Cu 0.2496(13) 0.0724(17) -0.001(3)
Cu7A Cu -0.0586(19) 0.382(3) -0.612(3)
Cu7A_2 Cu -0.0586(19) 0.382(3) 0.388(3)
N1A N 0.191(5) -0.503(5) 0.041(10)
N2A N 0.113(4) -0.562(5) -0.031(6)
N2A_2 N 0.113(4) 0.438(5) -0.031(6)
N2_2 N -0.113(4) 0.438(5) 0.031(6)
N3A N 0.188(3) -0.548(5) 0.113(7)
N4A N 0.140(4) -0.580(6) 0.077(8)
N5A N 0.190(4) -0.413(7) -0.154(8)
C3A C 0.096(5) -0.458(8) -0.246(14)
H1A H 0.0652 -0.4899 -0.2450
C4A C 0.092(4) -0.404(6) -0.345(9)
H2A H 0.0599 -0.4020 -0.4097
C5A C 0.138(5) -0.357(7) -0.337(9)
H3A H 0.1383 -0.3227 -0.3975
C6A C 0.184(6) -0.361(6) -0.236(11)
H4A H 0.2135 -0.3241 -0.2277
O2A O 0.083(4) -0.372(5) 0.020(8)
O3A O 0.019(3) -0.373(4) 0.178(6)
O4A O 0.069(3) -0.177(8) 0.320(8)
O5A O 0.062(3) -0.182(14) -0.016(7)
O6A O 0.125(3) -0.180(8) -0.307(6)
O8A O 0.199(5) -0.329(6) 0.081(9)
O9A O 0.077(5) -0.033(6) 0.404(10)
O10A O 0.003(3) -0.189(7) 0.129(6)
O11A O 0.194(4) -0.028(8) 0.103(10)
O11C O -0.306(4) -0.528(8) 0.103(10)
O11B O 0.306(4) -0.528(8) -0.103(10)
O12A O 0.030(6) -0.244(8) 0.053(12)
O13A O 0.064(4) -0.336(6) 0.397(9)
O14A O 0.117(4) -0.060(5) 0.217(9)
O15A O 0.108(4) -0.272(5) 0.198(8)
O16A O 0.133(5) -0.255(6) -0.093(9)
O17A O 0.157(3) -0.181(9) 0.103(5)
O18A O 0.112(4) -0.104(5) -0.098(8)
O19A O -0.029(3) -0.105(4) 0.255(7)
O20A O 0.073(4) -0.008(5) 0.002(7)
O21A O 0.012(3) -0.012(4) 0.148(6)
O22A O -0.026(5) -0.258(6) 0.299(9)
C7A C -0.234(3) 0.481(5) -0.633(6)
H5A H -0.2466 0.4598 -0.7076
C8A C -0.268(3) 0.532(6) -0.591(8)
H6A H -0.3049 0.5446 -0.6384
C9A C -0.249(4) 0.565(7) -0.479(8)
H7A H -0.2721 0.5986 -0.4514
C10A C -0.194(4) 0.546(6) -0.408(6)
H8A H -0.1812 0.5679 -0.3335
C11A C -0.159(2) 0.495(5) -0.450(5)
N6A N -0.179(3) 0.463(4) -0.562(6)
C12B C -0.412(3) -0.413(5) -0.258(8)
H9B H -0.4467 -0.3885 -0.2622
C13B C -0.366(4) -0.405(5) -0.157(7)
N7B N -0.314(3) -0.442(5) -0.151(6)
N7C N 0.314(3) -0.442(5) 0.151(6)
C14B C -0.307(3) -0.486(5) -0.246(8)
H10B H -0.2726 -0.5106 -0.2416
C15B C -0.353(4) -0.494(6) -0.346(7)
H11B H -0.3489 -0.5237 -0.4096
C16B C -0.405(3) -0.457(6) -0.353(7)
H12B H -0.4359 -0.4626 -0.4199
N8A N 0.1910(19) 0.309(5) 0.343(4)
N8_2 N -0.1910(19) -0.691(5) -0.343(4)
N8A_2 N 0.1910(19) -0.691(5) 0.343(4)
C17A C 0.248(2) 0.333(5) 0.363(5)
H13A H 0.2612 0.3531 0.3014
C18A C 0.2850(19) 0.328(6) 0.477(5)
H14A H 0.3230 0.3443 0.4902
C19A C 0.265(3) 0.298(7) 0.569(4)
H15A H 0.2899 0.2949 0.6448
C20A C 0.208(3) 0.274(5) 0.549(4)
H16A H 0.1949 0.2543 0.6106
C21A C 0.171(2) 0.279(5) 0.436(5)
N9B N -0.302(3) -0.353(4) 0.022(5)
N9C N 0.302(3) -0.353(4) -0.022(5)
N10B N -0.305(3) -0.295(4) 0.103(6)
N11B N -0.361(3) -0.263(4) 0.071(5)
N11A N -0.139(3) -0.763(4) -0.071(5)
N11_2 N 0.139(3) -0.763(4) 0.071(5)
N12B N -0.393(2) -0.302(3) -0.031(4)
N12A N -0.107(2) 0.198(3) 0.031(4)
C22B C -0.356(2) -0.358(4) -0.062(5)
N13A N 0.0245(17) 0.246(3) 0.268(3)
N14A N 0.080(2) 0.265(4) 0.278(4)
N14_2 N -0.080(2) -0.735(4) -0.278(4)
N14A_2 N 0.080(2) -0.735(4) 0.278(4)
C23A C 0.108(2) 0.258(4) 0.393(4)
N15A N 0.070(2) 0.220(5) 0.451(4)
N15A_2 N 0.070(2) 0.220(5) -0.549(4)
N15_2 N -0.070(2) 0.220(5) 0.549(4)
N16A N 0.022(4) 0.217(6) 0.371(8)
N17A N -0.064(3) 0.425(5) -0.446(6)
C24A C -0.101(3) 0.468(4) -0.389(5)
N18A N -0.077(3) 0.473(5) -0.272(5)
N19A N -0.022(3) 0.436(5) -0.265(6)
N19_2 N 0.022(3) 0.436(5) 0.265(6)
N20A N 0.017(3) 0.410(5) -0.635(7)
O23A O 0.032(9) -0.100(10) 0.066(17)
loop_
_geom_bond_atom_site_label_1
_geom_bond_atom_site_label_2
_geom_bond_site_symmetry_1
_geom_bond_site_symmetry_2
W1 O1 1_555 1_555
W2 O7 1_555 1_555
W3 O3 1_555 1_555
W4 O4 1_555 1_555
W5 O5 1_555 1_555
W6 O2 1_555 1_555
W7 O5 1_555 1_555
P1 O5 1_555 1_555
Cl1 Cu3 1_555 1_555
Cl2 Cu1 1_555 1_555
C1 C2 1_555 1_555
C2 N1 1_555 1_555
Cu1 N16 1_555 1_555
Cu3 N2A_2 1_555 1_555
Cu4 N4 1_555 1_555
Cu5 Cl1 1_555 1_555
Cu6 N1 1_555 1_555
Cu7 Cl2 1_555 1_555
N1 N3 1_555 1_555
N2 C2 1_555 1_555
N3 N4 1_555 1_555
N4 N2 1_555 1_555
N5 C1 1_555 1_555
C3 C1 1_555 1_555
H1 C3 1_555 1_555
C4 C3 1_555 1_555
H2 C4 1_555 1_555
C5 C4 1_555 1_555
H3 C5 1_555 1_555
C6 N5 1_555 1_555
H4 C6 1_555 1_555
O2 W1 1_555 1_555
O3 W1 1_555 1_555
O4 W3 1_555 1_555
O5 W6 1_555 1_555
O6 W7 1_555 1_555
O7 Cu5 1_555 1_555
O8 W6 1_555 1_555
O9 W4 1_555 1_555
O10 W3 1_555 1_555
O11 W5 1_555 1_555
O12 W1 1_555 1_555
O13 W3 1_555 1_555
O14 W4 1_555 1_555
O15 W3 1_555 1_555
O16 W6 1_555 1_555
O17 W5 1_555 1_555
O18 W5 1_555 1_555
O19 W4 1_555 1_555
O20 W2 1_555 1_555
O21 W2 1_555 1_555
O22 W3 1_555 1_555
C7 H5 1_555 1_555
C8 C7 1_555 1_555
H6 C8 1_555 1_555
C9 C8 1_555 1_555
H7 C9 1_555 1_555
C10 C9 1_555 1_555
H8 C10 1_555 1_555
C11 C10 1_555 1_555
N6 Cu7 1_555 1_555
C12 H9 1_555 1_555
C13 C12 1_555 1_555
N7 C13 1_555 1_555
C14 N7 1_555 1_555
H10 C14 1_555 1_555
C15 C14 1_555 1_555
H11 C15 1_555 1_555
C16 C12 1_555 1_555
H12 C16 1_555 1_555
N8 C17 1_555 1_555
C17 H13 1_555 1_555
C18 C17 1_555 1_555
H14 C18 1_555 1_555
C19 C18 1_555 1_555
H15 C19 1_555 1_555
C20 C19 1_555 1_555
H16 C20 1_555 1_555
C21 N8 1_555 1_555
N9 N10 1_555 1_555
N10 N11 1_555 1_555
N11 N12 1_555 1_555
N12 Cu5 1_555 1_555
C22 C13 1_555 1_555
N13 Cu5 1_555 1_555
N14 N13 1_555 1_555
C23 C21 1_555 1_555
N15 C23 1_555 1_555
N16 N13 1_555 1_555
N17 Cu7 1_555 1_555
C24 C11 1_555 1_555
N18 C24 1_555 1_555
N19 N18 1_555 1_555
N20 Cu7 1_555 1_555
O23 W2 1_555 1_555
W3A O3A 1_555 1_555
W4A O4A 1_555 1_555
W5A O5A 1_555 1_555
W6A O2A 1_555 1_555
W7A O10 1_555 1_555
Cl2A Cu1A_2 1_555 1_555
Cl2A_2 Cu1A 1_555 1_555
C1A C2A 1_555 1_555
C2A N1A 1_555 1_555
Cu1A Cu1_2 1_555 1_555
Cu1A_2 Cu1 1_555 1_555
Cu1_2 N15A 1_555 1_555
Cu3A Cl1 1_555 1_555
Cu3A_2 N2 1_555 1_555
Cu3A_3 N19 1_555 1_555
Cu3_2 N2A 1_555 1_555
Cu4A N4A 1_555 1_555
Cu4_2 N8 1_555 1_555
Cu4A_2 N11 1_555 1_555
Cu4C N11B 1_555 1_555
Cu5A Cl1 1_555 1_555
Cu5B N12B 1_555 1_555
Cu6A N1A 1_555 1_555
Cu6C O11 1_555 1_555
Cu6B N7 1_555 1_555
Cu7A Cl2A 1_555 1_555
Cu7A_2 Cl2A_2 1_555 1_555
N1A N3A 1_555 1_555
N2A C2A 1_555 1_555
N2_2 Cu3A 1_555 1_555
N3A N4A 1_555 1_555
N4A N2A 1_555 1_555
N5A C1A 1_555 1_555
C3A C1A 1_555 1_555
H1A C3A 1_555 1_555
C4A C3A 1_555 1_555
H2A C4A 1_555 1_555
C5A C4A 1_555 1_555
H3A C5A 1_555 1_555
C6A N5A 1_555 1_555
H4A C6A 1_555 1_555
O2A W1 1_555 1_555
O3A W1 1_555 1_555
O4A W3A 1_555 1_555
O5A P1 1_555 1_555
O6A W7A 1_555 1_555
O8A W6A 1_555 1_555
O9A W4A 1_555 1_555
O10A W7 1_555 1_555
O11A W5A 1_555 1_555
O11C Cu6 1_555 1_555
O11B Cu6A 1_555 1_555
O12A W1 1_555 1_555
O13A W3A 1_555 1_555
O14A W4A 1_555 1_555
O15A W3A 1_555 1_555
O16A W6A 1_555 1_555
O17A W5A 1_555 1_555
O18A W5A 1_555 1_555
O19A W7 1_555 1_555
O20A W2 1_555 1_555
O21A W2 1_555 1_555
O22A W7 1_555 1_555
C7A H5A 1_555 1_555
C8A C7A 1_555 1_555
H6A C8A 1_555 1_555
C9A C8A 1_555 1_555
H7A C9A 1_555 1_555
C10A C9A 1_555 1_555
H8A C10A 1_555 1_555
C11A C10A 1_555 1_555
N6A Cu7A 1_555 1_555
C12B H9B 1_555 1_555
C13B C12B 1_555 1_555
N7B Cu6 1_555 1_555
N7C Cu6A 1_555 1_555
C14B N7B 1_555 1_555
H10B C14B 1_555 1_555
C15B C14B 1_555 1_555
H11B C15B 1_555 1_555
C16B C12B 1_555 1_555
H12B C16B 1_555 1_555
N8A Cu4A_2 1_555 1_555
N8_2 Cu4 1_555 1_555
N8A_2 Cu4A 1_555 1_555
C17A N8A 1_555 1_555
H13A C17A 1_555 1_555
C18A C17A 1_555 1_555
H14A C18A 1_555 1_555
C19A C18A 1_555 1_555
H15A C19A 1_555 1_555
C20A C19A 1_555 1_555
H16A C20A 1_555 1_555
C21A N8A 1_555 1_555
N9B Cu6 1_555 1_555
N9C Cu6A 1_555 1_555
N10B N9B 1_555 1_555
N11B N10B 1_555 1_555
N11A Cu4 1_555 1_555
N11_2 Cu4A 1_555 1_555
N12B N11B 1_555 1_555
N12A Cu5A 1_555 1_555
C22B C13B 1_555 1_555
N13A Cu5A 1_555 1_555
N14A Cu4A_2 1_555 1_555
N14_2 Cu4 1_555 1_555
N14A_2 Cu4A 1_555 1_555
C23A C21A 1_555 1_555
N15A C23A 1_555 1_555
N15A_2 Cu1 1_555 1_555
N15_2 Cu1A 1_555 1_555
N16A Cu1A 1_555 1_555
N17A N20 1_555 1_555
C24A C11A 1_555 1_555
N18A C24A 1_555 1_555
N19A Cu3 1_555 1_555
N19_2 Cu3A 1_555 1_555
N20A N17 1_555 1_555
O23A W2 1_555 1_555
W3 O12 1_555 1_555
W4 O10 1_555 1_555
W4 O21 1_555 1_555
W4 O23 1_555 1_555
W5 O14 1_555 1_555
W5 O20 1_555 1_555
W5 O23 1_555 1_555
W6 O12 1_555 1_555
W6 O15 1_555 1_555
W6 O17 1_555 1_555
W7 O16 1_555 1_555
W7 O18 1_555 1_555
P1 O10 1_555 1_555
P1 O12 1_555 1_555
P1 O23 1_555 1_555
P1 O10A 1_555 1_555
P1 O12A 1_555 1_555
P1 O23A 1_555 1_555
Cu6 N5 1_555 1_555
Cu6 O8 1_555 1_555
C5 C6 1_555 1_555
O7 Cu5A 1_555 1_555
O19 W7A 1_555 1_555
O22 W7A 1_555 1_555
C7 N6 1_555 1_555
C11 N6 1_555 1_555
C15 C16 1_555 1_555
C20 C21 1_555 1_555
N9 C22 1_555 1_555
N9 Cu6B 1_555 1_555
N12 C22 1_555 1_555
N14 C23 1_555 1_555
N14 Cu4_2 1_555 1_555
N15 N16 1_555 1_555
N15 Cu1A_2 1_555 1_555
N17 C24 1_555 1_555
N19 N20A 1_555 1_555
N20 N19A 1_555 1_555
W3A O10A 1_555 1_555
W3A O12A 1_555 1_555
W3A O22A 1_555 1_555
W4A O10A 1_555 1_555
W4A O19A 1_555 1_555
W4A O21A 1_555 1_555
W4A O23A 1_555 1_555
W5A O14A 1_555 1_555
W5A O20A 1_555 1_555
W5A O23A 1_555 1_555
W6A O5A 1_555 1_555
W6A O12A 1_555 1_555
W6A O15A 1_555 1_555
W6A O17A 1_555 1_555
W7A O5A 1_555 1_555
W7A O16A 1_555 1_555
W7A O18A 1_555 1_555
Cu6A N5A 1_555 1_555
Cu6A O8A 1_555 1_555
Cu6B O11A 1_555 1_555
Cu7A N17A 1_555 1_555
Cu7A N20A 1_555 1_555
C5A C6A 1_555 1_555
C7A N6A 1_555 1_555
C11A N6A 1_555 1_555
C13B N7B 1_555 1_555
C15B C16B 1_555 1_555
C20A C21A 1_555 1_555
N9B C22B 1_555 1_555
N12B C22B 1_555 1_555
N13A N14A 1_555 1_555
N13A N16A 1_555 1_555
N14A C23A 1_555 1_555
N15A N16A 1_555 1_555
N17A C24A 1_555 1_555
N18A N19A 1_555 1_555

#END
