
#######################################################################
#
#                 Cambridge Crystallographic Data Centre
#                                CCDC 
#
#######################################################################
#
# If this CIF has been generated from an entry in the Cambridge 
# Structural Database, then it will include bibliographic, chemical, 
# crystal, experimental, refinement or atomic coordinate data resulting 
# from the CCDC's data processing and validation procedures.
#
#######################################################################

data_GOVHOQ
_chemical_formula_moiety         '(C18 H26 N5 O24 P5 Zn5)n'
_symmetry_cell_setting           monoclinic
_symmetry_space_group_name_H-M   'P 21/n'
_symmetry_Int_Tables_number      14
_space_group_name_Hall           '-P 2yn'
loop_
_symmetry_equiv_pos_site_id
_symmetry_equiv_pos_as_xyz
1 x,y,z
2 1/2-x,1/2+y,1/2-z
3 -x,-y,-z
4 1/2+x,1/2-y,1/2+z
_cell_length_a                   5.1242(2)
_cell_length_b                   25.0641(14)
_cell_length_c                   27.1877(15)
_cell_angle_alpha                90
_cell_angle_beta                 90.940(2)
_cell_angle_gamma                90
_cell_volume                     3491.34
loop_
_atom_site_label
_atom_site_type_symbol
_atom_site_fract_x
_atom_site_fract_y
_atom_site_fract_z
Zn1 Zn -0.59637(14) 1.28725(3) 0.36119(3)
Zn2 Zn -0.10290(12) 1.10867(3) 0.37489(2)
Zn3 Zn 0.26554(12) 1.06007(3) 0.28323(3)
Zn4 Zn -0.17221(13) 0.96038(3) 0.21156(3)
Zn5 Zn -0.26681(12) 1.00086(3) 0.43441(2)
P1 P -0.6084(3) 1.16511(6) 0.34126(6)
P2 P -0.6968(3) 1.01981(7) 0.17576(6)
P3 P -0.4182(3) 0.85701(7) 0.16108(6)
P4 P -0.2108(3) 1.00071(6) 0.32035(6)
P5 P -0.2132(3) 0.93658(6) 0.53235(6)
O1 O -0.4989(8) 1.22043(16) 0.33139(16)
O2 O -0.5884(8) 1.13206(16) 0.29357(15)
O3 O -0.4492(7) 1.13641(17) 0.38256(15)
O4 O -0.8910(7) 1.16812(16) 0.35783(15)
O5 O -0.8069(8) 1.05720(17) 0.21401(16)
O6 O -0.7361(10) 1.0467(2) 0.12375(17)
H1 H -0.7979 1.0707 0.1096
O7 O -0.8446(8) 0.96652(17) 0.17479(16)
O8 O -0.4043(8) 1.01209(18) 0.18117(19)
O9 O -0.5672(9) 0.89680(18) 0.12550(17)
H2 H -0.5192 0.9169 0.0983
O10 O -0.2042(9) 0.83325(19) 0.13000(17)
O11 O -0.6120(9) 0.81499(19) 0.17841(17)
O12 O -0.3131(8) 0.88768(18) 0.20539(17)
O13 O -0.0843(8) 0.96677(17) 0.28088(15)
O14 O -0.1648(7) 0.97331(16) 0.37056(15)
O15 O -0.0652(7) 1.05642(16) 0.32112(15)
O16 O -0.4995(7) 1.00890(16) 0.31201(15)
O17 O -0.1448(7) 0.94658(16) 0.47932(15)
O18 O -0.3523(8) 0.88050(16) 0.53427(15)
O19 O 0.0473(7) 0.93166(16) 0.56298(14)
O20 O -0.3780(8) 0.97958(16) 0.55552(15)
N1 N -0.7073(11) 1.2756(2) 0.4321(2)
N2 N -1.1067(11) 1.2798(2) 0.5979(2)
N3 N -0.9910(9) 1.22424(19) 0.65836(18)
H3 H -0.9917 1.2051 0.6823
N4 N -1.7289(9) 1.3318(2) 0.7327(2)
H4 H -1.8461 1.3456 0.7541
N5 N -0.2540(10) 1.0938(2) 0.6257(2)
H5 H -0.1382 1.0713 0.6220
C1 C -0.9148(17) 1.2468(3) 0.4439(3)
H6 H -1.0211 1.2339 0.4185
C2 C -0.9805(18) 1.2351(4) 0.4911(3)
H7 H -1.1239 1.2135 0.4972
C3 C -0.8348(14) 1.2553(3) 0.5295(3)
C4 C -0.6229(19) 1.2857(5) 0.5187(3)
H8 H -0.5181 1.2998 0.5437
C5 C -0.5647(18) 1.2954(5) 0.4693(3)
H9 H -0.4210 1.3166 0.4622
C6 C -0.9153(12) 1.2467(3) 0.5810(2)
C7 C -1.1476(11) 1.2651(2) 0.6443(2)
C8 C -0.8364(11) 1.2118(3) 0.6190(2)
C9 C -1.3462(11) 1.2889(2) 0.6756(2)
C10 C -1.5031(12) 1.3311(3) 0.6576(3)
H10 H -1.4791 1.3446 0.6261
C11 C -1.6905(12) 1.3519(3) 0.6872(3)
H11 H -1.7928 1.3802 0.6759
C12 C -1.5809(12) 1.2922(3) 0.7506(2)
H12 H -1.6103 1.2796 0.7823
C13 C -1.3860(12) 1.2694(3) 0.7234(2)
H13 H -1.2835 1.2420 0.7362
C14 C -0.6380(11) 1.1706(2) 0.6209(2)
C15 C -0.5633(11) 1.1471(2) 0.6655(2)
H14 H -0.6456 1.1571 0.6943
C16 C -0.3686(12) 1.1091(2) 0.6672(2)
H15 H -0.3171 1.0942 0.6972
C17 C -0.3249(12) 1.1139(3) 0.5821(3)
H16 H -0.2437 1.1020 0.5538
C18 C -0.5171(12) 1.1523(2) 0.5785(2)
H17 H -0.5660 1.1659 0.5478
Zn1A Zn -0.90363(14) 0.78725(3) 0.13881(3)
Zn1A_2 Zn 0.09637(14) 0.78725(3) 0.13881(3)
Zn2_2 Zn -1.10290(12) 1.10867(3) 0.37489(2)
Zn2B Zn 0.10290(12) 0.89133(3) 0.62511(2)
Zn3_2 Zn -0.73446(12) 1.06007(3) 0.28323(3)
Zn4_2 Zn -1.17221(13) 0.96038(3) 0.21156(3)
Zn5B Zn -0.73319(12) 0.99914(3) 0.56559(2)
Zn5B_2 Zn 0.26681(12) 0.99914(3) 0.56559(2)
O2_2 O 0.4116(8) 1.13206(16) 0.29357(15)
O4_2 O 0.1090(7) 1.16812(16) 0.35783(15)
O5_2 O 0.1931(8) 1.05720(17) 0.21401(16)
O7_2 O 0.1554(8) 0.96652(17) 0.17479(16)
O10A O -0.2958(9) 1.33325(19) 0.37000(17)
O11A O -0.8880(9) 1.31499(19) 0.32159(17)
O16_2 O 0.5005(7) 1.00890(16) 0.31201(15)
O19B O -0.0473(7) 1.06834(16) 0.43702(14)
O20B O -0.6220(8) 1.02042(16) 0.44448(15)
O21 O -1.0446(12) 1.1679(3) 0.7449(2)
O22 O -1.197(5) 1.0613(13) 0.0878(10)
O24 O -0.171(4) 0.9272(8) 0.0484(6)
O27 O -0.630(6) 1.1249(10) 0.0472(12)
loop_
_geom_bond_atom_site_label_1
_geom_bond_atom_site_label_2
_geom_bond_site_symmetry_1
_geom_bond_site_symmetry_2
Zn1 O1 1_555 1_555
Zn2 O3 1_555 1_555
Zn3 O15 1_555 1_555
Zn4 O8 1_555 1_555
Zn5 O14 1_555 1_555
P1 O1 1_555 1_555
P2 O5 1_555 1_555
P3 O9 1_555 1_555
P4 O13 1_555 1_555
P5 O17 1_555 1_555
O2 P1 1_555 1_555
O3 P1 1_555 1_555
O4 P1 1_555 1_555
O5 Zn3_2 1_555 1_555
O6 P2 1_555 1_555
H1 O6 1_555 1_555
O7 P2 1_555 1_555
O8 P2 1_555 1_555
O9 H2 1_555 1_555
O10 P3 1_555 1_555
O11 P3 1_555 1_555
O12 Zn4 1_555 1_555
O13 Zn4 1_555 1_555
O14 P4 1_555 1_555
O15 Zn2 1_555 1_555
O16 P4 1_555 1_555
O17 Zn5 1_555 1_555
O18 P5 1_555 1_555
O19 P5 1_555 1_555
O20 P5 1_555 1_555
N1 Zn1 1_555 1_555
N2 C6 1_555 1_555
N3 H3 1_555 1_555
N4 H4 1_555 1_555
N5 H5 1_555 1_555
C1 N1 1_555 1_555
H6 C1 1_555 1_555
C2 C1 1_555 1_555
H7 C2 1_555 1_555
C3 C2 1_555 1_555
C4 C3 1_555 1_555
H8 C4 1_555 1_555
C5 N1 1_555 1_555
H9 C5 1_555 1_555
C6 C3 1_555 1_555
C7 N2 1_555 1_555
C8 N3 1_555 1_555
C9 C7 1_555 1_555
C10 C9 1_555 1_555
H10 C10 1_555 1_555
C11 N4 1_555 1_555
H11 C11 1_555 1_555
C12 N4 1_555 1_555
H12 C12 1_555 1_555
C13 C9 1_555 1_555
H13 C13 1_555 1_555
C14 C8 1_555 1_555
C15 C14 1_555 1_555
H14 C15 1_555 1_555
C16 N5 1_555 1_555
H15 C16 1_555 1_555
C17 N5 1_555 1_555
H16 C17 1_555 1_555
C18 C14 1_555 1_555
H17 C18 1_555 1_555
Zn1A O11 1_555 1_555
Zn1A_2 O10 1_555 1_555
Zn2_2 O4 1_555 1_555
Zn2B O19 1_555 1_555
Zn3_2 O2 1_555 1_555
Zn4_2 O7 1_555 1_555
Zn5B O20 1_555 1_555
Zn5B_2 O19 1_555 1_555
O2_2 Zn3 1_555 1_555
O4_2 Zn2 1_555 1_555
O5_2 Zn3 1_555 1_555
O7_2 Zn4 1_555 1_555
O10A Zn1 1_555 1_555
O11A Zn1 1_555 1_555
O16_2 Zn3 1_555 1_555
O19B Zn2 1_555 1_555
O20B Zn5 1_555 1_555
Zn5 O19B 1_555 1_555
P3 O12 1_555 1_555
P4 O15 1_555 1_555
O16 Zn3_2 1_555 1_555
N3 C7 1_555 1_555
C4 C5 1_555 1_555
C6 C8 1_555 1_555
C10 C11 1_555 1_555
C12 C13 1_555 1_555
C15 C16 1_555 1_555
C17 C18 1_555 1_555

#END
