
#######################################################################
#
#                 Cambridge Crystallographic Data Centre
#                                CCDC 
#
#######################################################################
#
# If this CIF has been generated from an entry in the Cambridge 
# Structural Database, then it will include bibliographic, chemical, 
# crystal, experimental, refinement or atomic coordinate data resulting 
# from the CCDC's data processing and validation procedures.
#
#######################################################################

data_XOLYUS
_chemical_formula_moiety         '(C14 H20 Co2 N2 O12)n'
_symmetry_cell_setting           monoclinic
_symmetry_space_group_name_H-M   'P 21/n'
_symmetry_Int_Tables_number      14
_space_group_name_Hall           '-P 2yn'
loop_
_symmetry_equiv_pos_site_id
_symmetry_equiv_pos_as_xyz
1 x,y,z
2 1/2-x,1/2+y,1/2-z
3 -x,-y,-z
4 1/2+x,1/2-y,1/2+z
_cell_length_a                   6.3029(9)
_cell_length_b                   16.413(2)
_cell_length_c                   17.139(2)
_cell_angle_alpha                90
_cell_angle_beta                 98.630(2)
_cell_angle_gamma                90
_cell_volume                     1752.95
loop_
_atom_site_label
_atom_site_type_symbol
_atom_site_fract_x
_atom_site_fract_y
_atom_site_fract_z
Co1 Co 0.24060(7) 0.47731(3) 0.67731(3)
Co2 Co 0.07427(7) 0.41048(3) 0.49206(3)
O1 O 0.4734(4) 0.40017(14) 0.64576(14)
O2 O 0.1649(4) 0.51279(13) 0.56193(12)
O3 O 1.0732(4) 0.37199(15) 0.69507(14)
O4 O 0.4663(4) 0.04248(17) 0.76599(17)
O5 O 1.0580(4) 0.08139(18) 0.80779(16)
O6 O 0.2965(4) 0.32790(14) 0.54531(13)
O7 O 0.8647(4) 0.38492(14) 0.57717(14)
O8 O 0.3068(4) 0.45458(15) 0.42318(15)
O9 O 0.9650(5) 0.00081(17) 0.7060(2)
O10 O 0.3928(5) 0.00455(19) 0.64050(19)
N1 N -0.0562(5) 0.31064(18) 0.41082(17)
N2 N -0.1292(6) 0.1387(2) 0.3748(2)
C1 C 0.4410(5) 0.3379(2) 0.60407(19)
C2 C 0.9205(5) 0.3505(2) 0.6436(2)
C3 C 0.4771(6) 0.0496(2) 0.6942(2)
C4 C 0.5806(5) 0.2651(2) 0.63023(18)
C5 C 0.4833(5) 0.1898(2) 0.63752(19)
C6 C 0.5966(5) 0.1244(2) 0.67435(19)
C7 C 0.8147(5) 0.1339(2) 0.70162(19)
C8 C 0.9150(5) 0.2080(2) 0.69264(19)
C9 C 0.7998(5) 0.2741(2) 0.65792(18)
C10 C 0.9509(6) 0.0658(2) 0.7398(2)
C11 C -0.2098(7) 0.2611(3) 0.4474(3)
C12 C -0.3063(8) 0.1905(3) 0.3968(3)
C13 C 0.0143(7) 0.1874(3) 0.3315(2)
C14 C 0.1050(7) 0.2582(2) 0.3820(2)
H1 H -0.1271 0.3376 0.3688
H2 H 0.3023 0.5355 0.5376
H3 H -0.0613 0.1191 0.4169
H4 H -0.1819 0.1008 0.3466
H5 H 0.3365 0.1887 0.6182
H6 H 0.2816 0.5175 0.4168
H7 H 0.3894 0.4247 0.3817
H8 H 1.0778 0.2122 0.7178
H9 H -0.3181 0.3016 0.4632
H10 H -0.1154 0.2384 0.4952
H11 H -0.3898 0.2112 0.3416
H12 H -0.3906 0.1557 0.4314
H13 H -0.0848 0.2110 0.2816
H14 H 0.1259 0.1479 0.3096
H15 H 0.2064 0.2839 0.3555
H16 H 0.2093 0.2371 0.4344
O3_2 O 0.0732(4) 0.37199(15) 0.69507(14)
O4A O 0.0337(4) 0.54248(17) 0.73401(17)
O5A O 0.4420(4) 0.58139(18) 0.69221(16)
O2B O -0.1649(4) 0.48721(13) 0.43807(12)
O7_2 O -0.1353(4) 0.38492(14) 0.57717(14)
Co2B Co -0.07427(7) 0.58952(3) 0.50794(3)
Co1_2 Co 1.24060(7) 0.47731(3) 0.67731(3)
Co1A Co 0.25940(7) -0.02269(3) 0.82269(3)
Co1A_2 Co 1.25940(7) -0.02269(3) 0.82269(3)
Co2_2 Co 1.07427(7) 0.41048(3) 0.49206(3)
H2B H -0.3023 0.4645 0.4624
O11 O 0.0195(12) 0.0899(4) 0.5331(4)
H17 H -0.0935 0.0565 0.5368
H18 H 0.0741 0.0405 0.5160
O12 O 0.3119(7) 0.04058(13) 0.4655(5)
H19 H 0.2934 -0.0232 0.4604
H20 H 0.4702 0.0401 0.4967
loop_
_geom_bond_atom_site_label_1
_geom_bond_atom_site_label_2
_geom_bond_site_symmetry_1
_geom_bond_site_symmetry_2
Co1 O1 1_555 1_555
Co2 O2 1_555 1_555
O1 C1 1_555 1_555
O2 Co1 1_555 1_555
O3 C2 1_555 1_555
O4 C3 1_555 1_555
O5 C10 1_555 1_555
O6 Co2 1_555 1_555
O7 C2 1_555 1_555
O8 Co2 1_555 1_555
O9 C10 1_555 1_555
O10 C3 1_555 1_555
N1 Co2 1_555 1_555
N2 C12 1_555 1_555
C1 O6 1_555 1_555
C2 C9 1_555 1_555
C3 C6 1_555 1_555
C4 C1 1_555 1_555
C5 C4 1_555 1_555
C6 C5 1_555 1_555
C7 C6 1_555 1_555
C8 C7 1_555 1_555
C9 C4 1_555 1_555
C10 C7 1_555 1_555
C11 N1 1_555 1_555
C12 C11 1_555 1_555
C13 N2 1_555 1_555
C14 N1 1_555 1_555
H1 N1 1_555 1_555
H2 O2 1_555 1_555
H3 N2 1_555 1_555
H4 N2 1_555 1_555
H5 C5 1_555 1_555
H6 O8 1_555 1_555
H7 O8 1_555 1_555
H8 C8 1_555 1_555
H9 C11 1_555 1_555
H10 C11 1_555 1_555
H11 C12 1_555 1_555
H12 C12 1_555 1_555
H13 C13 1_555 1_555
H14 C13 1_555 1_555
H15 C14 1_555 1_555
H16 C14 1_555 1_555
O11 H17 1_555 1_555
H18 O11 1_555 1_555
O12 H19 1_555 1_555
H20 O12 1_555 1_555
O3_2 Co1 1_555 1_555
O4A Co1 1_555 1_555
O5A Co1 1_555 1_555
O2B Co2 1_555 1_555
O7_2 Co2 1_555 1_555
Co2B O2 1_555 1_555
Co1_2 O3 1_555 1_555
Co1A O4 1_555 1_555
Co1A_2 O5 1_555 1_555
Co2_2 O7 1_555 1_555
H2B O2B 1_555 1_555
C8 C9 1_555 1_555
C13 C14 1_555 1_555
O2B Co2B 1_555 1_555

#END
