
#######################################################################
#
#                 Cambridge Crystallographic Data Centre
#                                CCDC 
#
#######################################################################
#
# If this CIF has been generated from an entry in the Cambridge 
# Structural Database, then it will include bibliographic, chemical, 
# crystal, experimental, refinement or atomic coordinate data resulting 
# from the CCDC's data processing and validation procedures.
#
#######################################################################

data_PEXBIF
_chemical_formula_moiety         '(C34 H42 Cd2 N10 O12)n'
_symmetry_cell_setting           monoclinic
_symmetry_space_group_name_H-M   'C 2/c'
_symmetry_Int_Tables_number      15
_space_group_name_Hall           '-C 2yc'
loop_
_symmetry_equiv_pos_site_id
_symmetry_equiv_pos_as_xyz
1 x,y,z
2 -x,y,1/2-z
3 1/2+x,1/2+y,z
4 1/2-x,1/2+y,1/2-z
5 -x,-y,-z
6 x,-y,1/2+z
7 1/2-x,1/2-y,-z
8 1/2+x,1/2-y,1/2+z
_cell_length_a                   19.533(4)
_cell_length_b                   14.830(5)
_cell_length_c                   16.871(3)
_cell_angle_alpha                90
_cell_angle_beta                 120.420(5)
_cell_angle_gamma                90
_cell_volume                     4214.32
loop_
_atom_site_label
_atom_site_type_symbol
_atom_site_fract_x
_atom_site_fract_y
_atom_site_fract_z
Cd1 Cd 0.12870(3) 0.32821(3) 0.63144(3)
C1 C 0.1780(5) 0.5116(6) 0.6932(7)
C2 C 0.1820(4) 0.6152(4) 0.6894(5)
C3 C 0.1080(4) 0.6589(5) 0.6219(5)
H1 H 0.0632 0.6249 0.5836
C4 C 0.1063(4) 0.7531(5) 0.6163(5)
H2 H 0.0613 0.7845 0.5739
C5 C 0.1795(4) 0.7987(5) 0.6810(5)
H3 H 0.1790 0.8613 0.6795
C6 C 0.2574(4) 0.6644(4) 0.7521(4)
C7 C 0.3403(5) 0.6265(5) 0.8176(6)
C8 C 0.1232(5) 0.2290(6) 0.4715(5)
H4 H 0.1119 0.1747 0.4901
C9 C 0.1472(5) 0.3683(6) 0.4677(6)
H5 H 0.1564 0.4291 0.4828
C10 C 0.1486(6) 0.3301(6) 0.4017(6)
H6 H 0.1580 0.3577 0.3586
C11 C 0.1227(5) 0.1679(6) 0.3437(6)
H7 H 0.1248 0.1107 0.3728
H8 H 0.1654 0.1688 0.3302
C12 C 0.0383(5) 0.1767(6) 0.2487(5)
H9 H 0.0396 0.2322 0.2190
H10 H 0.0351 0.1275 0.2091
C13 C -0.2448(5) 0.2616(6) 0.5412(5)
H11 H -0.2775 0.2215 0.5537
H12 H -0.2663 0.3219 0.5352
C14 C -0.1569(5) 0.2614(6) 0.6310(5)
H13 H -0.1614 0.2830 0.6825
H14 H -0.1390 0.1994 0.6442
C15 C -0.0337(4) 0.2807(5) 0.6248(5)
H15 H -0.0235 0.2196 0.6241
C16 C -0.0244(6) 0.4227(5) 0.6252(7)
H16 H -0.0059 0.4805 0.6252
C17 C -0.0901(6) 0.4044(6) 0.6279(7)
H17 H -0.1252 0.4456 0.6295
N1 N 0.1309(4) 0.3081(4) 0.5105(4)
N2 N 0.1337(4) 0.2400(5) 0.4055(4)
N3 N -0.0949(3) 0.3143(4) 0.6279(4)
N4 N 0.0109(3) 0.3468(4) 0.6225(4)
N5 N 0.2522(3) 0.7565(3) 0.7468(4)
O1 O 0.1677(7) 0.4700(5) 0.6306(7)
O2 O 0.1828(4) 0.4775(4) 0.7584(4)
O3 O 0.4007(3) 0.6726(3) 0.8816(3)
O4 O 0.3511(4) 0.5442(4) 0.8099(5)
C8A C -0.1232(5) 0.2290(6) 0.0285(5)
H4A H -0.1119 0.1747 0.0099
C9A C -0.1472(5) 0.3683(6) 0.0323(6)
H5A H -0.1564 0.4291 0.0172
C10A C -0.1486(6) 0.3301(6) 0.0983(6)
H6A H -0.1580 0.3577 0.1414
C11A C -0.1227(5) 0.1679(6) 0.1563(6)
H7A H -0.1248 0.1107 0.1272
H8A H -0.1654 0.1688 0.1698
C12A C -0.0383(5) 0.1767(6) 0.2513(5)
H9A H -0.0396 0.2322 0.2810
H10A H -0.0351 0.1275 0.2909
N1A N -0.1309(4) 0.3081(4) -0.0105(4)
N2A N -0.1337(4) 0.2400(5) 0.0945(4)
C13F C -0.2552(5) 0.2384(6) 0.4588(5)
H11F H -0.2225 0.2785 0.4463
H12F H -0.2337 0.1781 0.4648
C14F C -0.3431(5) 0.2386(6) 0.3690(5)
H13F H -0.3386 0.2170 0.3175
H14F H -0.3610 0.3006 0.3558
C15F C -0.4663(4) 0.2193(5) 0.3752(5)
H15F H -0.4765 0.2804 0.3759
C16F C -0.4756(6) 0.0773(5) 0.3748(7)
H16F H -0.4941 0.0195 0.3748
C17F C -0.4099(6) 0.0956(6) 0.3721(7)
H17F H -0.3748 0.0544 0.3705
N3F N -0.4051(3) 0.1857(4) 0.3721(4)
N4F N -0.5109(3) 0.1532(4) 0.3775(4)
Cd1A Cd -0.12870(3) 0.32821(3) -0.13144(3)
C1A C -0.1780(5) 0.5116(6) -0.1932(7)
C2A C -0.1820(4) 0.6152(4) -0.1894(5)
C3A C -0.1080(4) 0.6589(5) -0.1219(5)
H1A H -0.0632 0.6249 -0.0836
C4A C -0.1063(4) 0.7531(5) -0.1163(5)
H2A H -0.0613 0.7845 -0.0739
C5A C -0.1795(4) 0.7987(5) -0.1810(5)
H3A H -0.1790 0.8613 -0.1795
C6A C -0.2574(4) 0.6644(4) -0.2521(4)
C7A C -0.3403(5) 0.6265(5) -0.3176(6)
N5A N -0.2522(3) 0.7565(3) -0.2468(4)
O1A O -0.1677(7) 0.4700(5) -0.1306(7)
O2A O -0.1828(4) 0.4775(4) -0.2584(4)
O3A O -0.4007(3) 0.6726(3) -0.3816(3)
O4A O -0.3511(4) 0.5442(4) -0.3099(5)
Cd1B Cd -0.37130(3) 0.82821(3) -0.36856(3)
Cd1C Cd 0.37130(3) 0.82821(3) 0.86856(3)
Cd1F Cd -0.62870(3) 0.17179(3) 0.36856(3)
N4A N -0.0109(3) 0.3468(4) -0.1225(4)
N5B N -0.2478(3) 0.2565(3) -0.2532(4)
N5C N 0.2478(3) 0.2565(3) 0.7532(4)
O3B O -0.0993(3) 0.1726(3) -0.1184(3)
O3C O 0.0993(3) 0.1726(3) 0.6184(3)
O5 O -0.4720(10) 0.4989(18) 0.4241(14)
O6 O -0.5000 0.4249(14) 0.2500
O7 O -0.2998(6) 0.5067(6) 0.5453(6)
H18 H -0.266(5) 0.507(10) 0.599(3)
H19 H -0.343(4) 0.485(10) 0.523(7)
O8 O -0.1883(9) 0.0427(10) 0.6172(10)
H20 H -0.237(2) 0.053(8) 0.582(7)
loop_
_geom_bond_atom_site_label_1
_geom_bond_atom_site_label_2
_geom_bond_site_symmetry_1
_geom_bond_site_symmetry_2
Cd1 N1 1_555 1_555
C1 C2 1_555 1_555
C2 C3 1_555 1_555
C3 H1 1_555 1_555
C4 C3 1_555 1_555
H2 C4 1_555 1_555
C5 C4 1_555 1_555
H3 C5 1_555 1_555
C6 C2 1_555 1_555
C7 C6 1_555 1_555
C8 H4 1_555 1_555
C9 H5 1_555 1_555
C10 C9 1_555 1_555
H6 C10 1_555 1_555
C11 H7 1_555 1_555
H8 C11 1_555 1_555
C12 C11 1_555 1_555
H9 C12 1_555 1_555
H10 C12 1_555 1_555
C13 H11 1_555 1_555
H12 C13 1_555 1_555
C14 C13 1_555 1_555
H13 C14 1_555 1_555
H14 C14 1_555 1_555
C15 H15 1_555 1_555
C16 H16 1_555 1_555
C17 C16 1_555 1_555
H17 C17 1_555 1_555
N1 C8 1_555 1_555
N2 C8 1_555 1_555
N3 C14 1_555 1_555
N4 Cd1 1_555 1_555
N5 C5 1_555 1_555
O1 Cd1 1_555 1_555
O2 C1 1_555 1_555
O3 C7 1_555 1_555
O4 C7 1_555 1_555
O7 H18 1_555 1_555
H19 O7 1_555 1_555
O8 H20 1_555 1_555
C8A H4A 1_555 1_555
C9A H5A 1_555 1_555
C10A C9A 1_555 1_555
H6A C10A 1_555 1_555
C11A H7A 1_555 1_555
H8A C11A 1_555 1_555
C12A C12 1_555 1_555
H9A C12A 1_555 1_555
H10A C12A 1_555 1_555
N1A C8A 1_555 1_555
N2A C8A 1_555 1_555
C13F C13 1_555 1_555
H11F C13F 1_555 1_555
H12F C13F 1_555 1_555
C14F C13F 1_555 1_555
H13F C14F 1_555 1_555
H14F C14F 1_555 1_555
C15F H15F 1_555 1_555
C16F H16F 1_555 1_555
C17F C16F 1_555 1_555
H17F C17F 1_555 1_555
N3F C14F 1_555 1_555
N4F C15F 1_555 1_555
Cd1A N1A 1_555 1_555
C1A C2A 1_555 1_555
C2A C3A 1_555 1_555
C3A H1A 1_555 1_555
C4A C3A 1_555 1_555
H2A C4A 1_555 1_555
C5A C4A 1_555 1_555
H3A C5A 1_555 1_555
C6A C2A 1_555 1_555
C7A C6A 1_555 1_555
N5A C5A 1_555 1_555
O1A Cd1A 1_555 1_555
O2A C1A 1_555 1_555
O3A C7A 1_555 1_555
O4A C7A 1_555 1_555
Cd1B N5A 1_555 1_555
Cd1C N5 1_555 1_555
Cd1F N4F 1_555 1_555
N4A Cd1A 1_555 1_555
N5B Cd1A 1_555 1_555
N5C Cd1 1_555 1_555
O3B Cd1A 1_555 1_555
O3C Cd1 1_555 1_555
C1 O1 1_555 1_555
C6 N5 1_555 1_555
C9 N1 1_555 1_555
C10 N2 1_555 1_555
C11 N2 1_555 1_555
C15 N3 1_555 1_555
C15 N4 1_555 1_555
C16 N4 1_555 1_555
C17 N3 1_555 1_555
O3 Cd1C 1_555 1_555
C9A N1A 1_555 1_555
C10A N2A 1_555 1_555
C11A C12A 1_555 1_555
C11A N2A 1_555 1_555
C15F N3F 1_555 1_555
C16F N4F 1_555 1_555
C17F N3F 1_555 1_555
C1A O1A 1_555 1_555
C6A N5A 1_555 1_555
O3A Cd1B 1_555 1_555

#END
