
#######################################################################
#
#                 Cambridge Crystallographic Data Centre
#                                CCDC 
#
#######################################################################
#
# If this CIF has been generated from an entry in the Cambridge 
# Structural Database, then it will include bibliographic, chemical, 
# crystal, experimental, refinement or atomic coordinate data resulting 
# from the CCDC's data processing and validation procedures.
#
#######################################################################

data_EWUKIS
_chemical_formula_moiety         '(C73 H74 N9 O42 Zn9 2-)n'
_symmetry_cell_setting           hexagonal
_symmetry_space_group_name_H-M   'P 63 c m'
_symmetry_Int_Tables_number      185
_space_group_name_Hall           'P 6c -2'
loop_
_symmetry_equiv_pos_site_id
_symmetry_equiv_pos_as_xyz
1 x,y,z
2 -y,x-y,z
3 -x+y,-x,z
4 -x,-y,1/2+z
5 y,-x+y,1/2+z
6 x-y,x,1/2+z
7 -y,-x,1/2+z
8 -x+y,y,1/2+z
9 x,x-y,1/2+z
10 y,x,z
11 x-y,-y,z
12 -x,-x+y,z
_cell_length_a                   18.368(10)
_cell_length_b                   18.368(10)
_cell_length_c                   17.964(10)
_cell_angle_alpha                90
_cell_angle_beta                 90
_cell_angle_gamma                120
_cell_volume                     5248.77
loop_
_atom_site_label
_atom_site_type_symbol
_atom_site_fract_x
_atom_site_fract_y
_atom_site_fract_z
N3 N 0.0000 0.0000 0.142(8)
C16 C 0.0000 -0.0000 0.223(8)
C17 C -0.073(3) -0.073(3) 0.112(8)
C17A C 0.073(3) -0.000(4) 0.112(8)
C17B C 0.000(4) 0.073(3) 0.112(8)
O9 O 0.0000 -0.0000 0.442(7)
Zn1 Zn 0.34910(7) 0.34910(7) 0.82824(7)
O1 O 0.3435(4) 0.3435(4) 0.7127(4)
O2 O 0.3658(5) 0.3658(5) 0.9426(5)
O3 O 0.3894(7) 0.4791(5) 0.8213(4)
O4 O 0.3176(5) 0.2243(8) 0.8426(4)
Zn2 Zn 0.24313(5) 0.34157(5) 0.67044(5)
C1 C 0.3175(9) 0.3175(9) 0.9891(8)
C2 C 0.4218(10) 0.5312(12) 0.8655(11)
C3 C 0.2792(7) 0.1574(5) 0.8065(4)
O5 O 0.2119(4) 0.2819(4) 0.5755(3)
O6 O 0.2365(4) 0.4420(3) 0.6548(3)
O7 O 0.1516(7) 0.2713(4) 0.7373(3)
H1 H 0.2689 0.2689 0.9727
N1 N 0.3302(9) 0.3302(9) 1.0624(7)
N2 N 0.4660(11) 0.6110(8) 0.8620(8)
H2 H 0.4138 0.5104 0.9144
C4 C 0.2417(5) 0.0759(5) 0.8496(4)
C5 C 0.2391(6) 0.2391(6) 0.5452(5)
C6 C 0.3086(6) 0.4990(6) 0.6330(6)
C7 C 0.2666(15) 0.2666(15) 1.1105(12)
C8 C 0.4063(12) 0.4063(12) 1.0897(16)
C9 C 0.5169(17) 0.6557(18) 0.8016(16)
C10 C 0.4957(19) 0.6641(18) 0.9295(16)
C11 C 0.2537(5) 0.0760(5) 0.9250(4)
C12 C 0.1977(6) 0.0000(6) 0.8111(6)
C13 C 0.2224(6) 0.2224(6) 0.4642(5)
O8 O 0.3681(5) 0.4860(4) 0.6214(5)
C14 C 0.3216(6) 0.5859(5) 0.6244(6)
H3 H 0.2821 0.2821 1.1621
H4 H 0.2128 0.2626 1.1007
H5 H 0.4065 0.4065 1.1437
H6 H 0.4560 0.4062 1.0716
H7 H 0.5443 0.7155 0.8118
H8 H 0.5591 0.6395 0.7938
H9 H 0.4826 0.6431 0.7572
H10 H 0.5282 0.7227 0.9152
H11 H 0.4477 0.6553 0.9590
H12 H 0.5307 0.6490 0.9587
H13 H 0.2830 0.1273 0.9507
H14 H 0.1896 -0.0000 0.7595
C15 C 0.2524(6) 0.5987(6) 0.6245(6)
H15 H 0.1976 0.5522 0.6247
O4I O 0.2243(8) 0.3176(5) 0.8426(4)
O3I O 0.4791(5) 0.3894(7) 0.8213(4)
Zn2I Zn 0.34157(5) 0.24313(5) 0.67044(5)
O5I O 0.2819(4) 0.2119(4) 0.5755(3)
O7I O 0.2713(4) 0.1516(7) 0.7373(3)
O6I O 0.4420(3) 0.2365(4) 0.6548(3)
H4I H 0.2626 0.2128 1.1007
H6I H 0.4062 0.4560 1.0716
C13D C 0.2224(6) -0.0000(8) 0.9642(5)
C4J C 0.1658(7) -0.0759(5) 0.8496(4)
C11E C 0.1777(7) 0.2537(5) 0.4250(4)
C11H C 0.2537(5) 0.1777(7) 0.4250(4)
C15A C 0.4013(6) 0.6537(8) 0.6245(6)
C5D C 0.2391(6) 0.0000(8) 1.0452(5)
C11J C 0.1777(7) -0.0760(5) 0.9250(4)
C3J C 0.1218(9) -0.1574(5) 0.8065(4)
H13E H 0.1557 0.2830 0.4507
C4E C 0.1658(7) 0.2417(5) 0.3496(4)
H13H H 0.2830 0.1557 0.4507
C4H C 0.2417(5) 0.1658(7) 0.3496(4)
C14B C 0.2643(8) 0.6784(6) 0.6244(6)
C14A C 0.4141(5) 0.7357(8) 0.6244(6)
H15A H 0.4478 0.6454 0.6247
O5D O 0.2819(4) 0.0700(6) 1.0755(3)
O5H O 0.2119(4) -0.0700(6) 1.0755(3)
H13J H 0.1557 -0.1273 0.9507
O4J O 0.0933(9) -0.2243(8) 0.8426(4)
O7B O 0.1197(8) -0.1516(7) 0.7373(3)
C12E C 0.1977(8) 0.1977(6) 0.3111(6)
C3E C 0.1218(9) 0.2792(7) 0.3065(4)
C3H C 0.2792(7) 0.1218(9) 0.3065(4)
C6B C 0.1904(8) 0.6914(6) 0.6330(6)
C15B C 0.3463(8) 0.7476(6) 0.6245(6)
C6A C 0.5010(6) 0.8096(8) 0.6330(6)
Zn2D Zn 0.34157(5) 0.09844(7) 1.17044(5)
Zn2H Zn 0.24313(5) -0.09844(7) 1.17044(5)
Zn1B Zn -0.00000(10) -0.34910(7) 0.82824(7)
Zn2B Zn 0.09844(7) -0.24313(5) 0.67044(5)
H14E H 0.1896 0.1896 0.2595
O4E O 0.0933(9) 0.3176(5) 0.3426(4)
O7G O 0.1197(8) 0.2713(4) 0.2373(3)
O4H O 0.3176(5) 0.0933(9) 0.3426(4)
O7D O 0.2713(4) 0.1197(8) 0.2373(3)
O6B O 0.2055(5) 0.7635(4) 0.6548(3)
O8B O 0.1179(6) 0.6319(5) 0.6214(5)
H15B H 0.3546 0.8024 0.6247
O6A O 0.5580(3) 0.7945(5) 0.6548(3)
O8A O 0.5140(4) 0.8821(6) 0.6214(5)
O1D O 0.3435(4) -0.0000(6) 1.2127(4)
O6D O 0.4420(3) 0.2055(5) 1.1548(3)
O7D_2 O 0.2713(4) 0.1197(8) 1.2373(3)
Zn1E Zn 0.00000(10) 0.34910(7) 0.32824(7)
Zn2G Zn 0.09844(7) 0.34157(5) 0.17044(5)
Zn1D Zn 0.34910(7) 0.00000(10) 0.32824(7)
Zn2D_2 Zn 0.34157(5) 0.09844(7) 0.17044(5)
Zn2B_2 Zn 0.09844(7) 0.75687(5) 0.67044(5)
Zn2A Zn 0.65843(5) 0.90156(7) 0.67044(5)
Zn2J Zn 0.90156(7) 0.65843(5) 0.67044(5)
Zn1D_2 Zn 0.34910(7) -0.00000(10) 1.32824(7)
C6D C 0.4990(6) 0.1904(8) 1.1330(6)
O1A O 0.6565(4) 1.0000(6) 0.7127(4)
O5A O 0.7181(4) 0.9300(6) 0.5755(3)
O7A O 0.7287(4) 0.8803(8) 0.7373(3)
O7J O 0.8803(8) 0.7287(4) 0.7373(3)
O2D O 0.3658(5) -0.0000(7) 1.4426(5)
O3D O 0.4791(5) 0.0897(9) 1.3213(4)
O4D O 0.2243(8) -0.0933(9) 1.3426(4)
O4H_2 O 0.3176(5) 0.0933(9) 1.3426(4)
O3H O 0.3894(7) -0.0897(9) 1.3213(4)
O8D O 0.4860(4) 0.1179(6) 1.1214(5)
C14D C 0.5859(5) 0.2643(8) 1.1244(6)
Zn1A Zn 0.65090(7) 1.00000(10) 0.82824(7)
C3K C 0.7208(7) 0.8782(9) 0.8065(4)
C3B C 0.8782(9) 0.7208(7) 0.8065(4)
Zn1B_2 Zn 1.00000(10) 0.65090(7) 0.82824(7)
C1D C 0.3175(9) 0.0000(13) 1.4891(8)
C2D C 0.5312(12) 0.1094(16) 1.3655(11)
C15D C 0.5987(6) 0.3463(8) 1.1245(6)
C15E C 0.6537(8) 0.2524(6) 1.1245(6)
O2A O 0.6342(5) 1.0000(7) 0.9426(5)
O3A O 0.5209(5) 0.9103(9) 0.8213(4)
O4A O 0.7757(8) 1.0933(9) 0.8426(4)
O4K O 0.6824(5) 0.9067(9) 0.8426(4)
O3K O 0.6106(7) 1.0897(9) 0.8213(4)
C4K C 0.7583(5) 0.8342(7) 0.8496(4)
C4B C 0.8342(7) 0.7583(5) 0.8496(4)
O4B O 0.9067(9) 0.6824(5) 0.8426(4)
H1D H 0.2689 -0.0000 1.4727
N1D N 0.3302(9) 0.0000(13) 1.5624(7)
N2D N 0.6110(8) 0.1450(14) 1.3620(8)
H2D H 0.5104 0.0966 1.4144
H15D H 0.5522 0.3546 1.1247
C14C C 0.6784(6) 0.4141(5) 1.1244(6)
C14E C 0.7357(8) 0.3216(6) 1.1244(6)
H15E H 0.6454 0.1976 1.1247
C1A C 0.6825(9) 1.0000(13) 0.9891(8)
C2A C 0.4688(12) 0.8906(16) 0.8655(11)
C11K C 0.7463(5) 0.8223(7) 0.9250(4)
C12B C 0.8023(8) 0.8023(6) 0.8111(6)
C11B C 0.8223(7) 0.7463(5) 0.9250(4)
C7D C 0.2666(15) -0.0000(21) 1.6105(12)
C8D C 0.4063(12) -0.0000(17) 1.5897(16)
C9D C 0.6557(18) 0.1388(25) 1.3016(16)
C10D C 0.6641(18) 0.1684(26) 1.4295(16)
C15C C 0.7476(6) 0.4013(6) 1.1245(6)
C6C C 0.6914(6) 0.5010(6) 1.1330(6)
C6E C 0.8096(8) 0.3086(6) 1.1330(6)
H1A H 0.7311 1.0000 0.9727
N1A N 0.6698(9) 1.0000(13) 1.0624(7)
N2A N 0.3890(8) 0.8550(14) 0.8620(8)
H2A H 0.4896 0.9034 0.9144
C13C C 0.7776(6) 0.7776(6) 0.9642(5)
H13K H 0.7170 0.8443 0.9507
H14B H 0.8104 0.8104 0.7595
H13B H 0.8443 0.7170 0.9507
H3D H 0.2821 -0.0000 1.6621
H4D H 0.2626 0.0498 1.6007
H4H H 0.2128 -0.0498 1.6007
H5D H 0.4065 -0.0000 1.6437
H6D H 0.4062 -0.0498 1.5716
H6H H 0.4560 0.0498 1.5716
H7D H 0.7155 0.1712 1.3118
H8D H 0.6395 0.0804 1.2938
H9D H 0.6431 0.1605 1.2572
H10D H 0.7227 0.1945 1.4152
H11D H 0.6553 0.2076 1.4590
H12D H 0.6490 0.1183 1.4587
H15C H 0.8024 0.4478 1.1247
O6C O 0.7635(4) 0.5580(3) 1.1548(3)
O8C O 0.6319(5) 0.5140(4) 1.1214(5)
O6E O 0.7945(5) 0.2365(4) 1.1548(3)
O8E O 0.8821(6) 0.3681(5) 1.1214(5)
C7A C 0.7334(15) 1.0000(21) 1.1105(12)
C8A C 0.5937(12) 1.0000(17) 1.0897(16)
C9A C 0.3443(18) 0.8612(25) 0.8016(16)
C10A C 0.3359(18) 0.8316(26) 0.9295(16)
C5C C 0.7609(6) 0.7609(6) 1.0452(5)
Zn2C Zn 0.75687(5) 0.65843(5) 1.17044(5)
Zn2E Zn 0.90156(7) 0.24313(5) 1.17044(5)
Zn2F Zn 0.65843(5) 0.75687(5) 1.17044(5)
H3A H 0.7179 1.0000 1.1621
H4A H 0.7374 0.9502 1.1007
H4K H 0.7872 1.0498 1.1007
H5A H 0.5935 1.0000 1.1437
H6A H 0.5938 1.0498 1.0716
H6K H 0.5440 0.9502 1.0716
H7A H 0.2845 0.8288 0.8118
H8A H 0.3605 0.9196 0.7938
H9A H 0.3569 0.8395 0.7572
H10A H 0.2773 0.8055 0.9152
H11A H 0.3447 0.7924 0.9590
H12A H 0.3510 0.8817 0.9587
O5C O 0.7881(4) 0.7181(4) 1.0755(3)
O5F O 0.7181(4) 0.7881(4) 1.0755(3)
O1C O 0.6565(4) 0.6565(4) 1.2127(4)
O7C O 0.8484(7) 0.7287(4) 1.2373(3)
Zn1C Zn 0.65090(7) 0.65090(7) 1.32824(7)
O2C O 0.6342(5) 0.6342(5) 1.4426(5)
O3C O 0.6106(7) 0.5209(5) 1.3213(4)
O4C O 0.6824(5) 0.7757(8) 1.3426(4)
O4F O 0.7757(8) 0.6824(5) 1.3426(4)
O3F O 0.5209(5) 0.6106(7) 1.3213(4)
C1C C 0.6825(9) 0.6825(9) 1.4891(8)
C2C C 0.5782(10) 0.4688(12) 1.3655(11)
H1C H 0.7311 0.7311 1.4727
N1C N 0.6698(9) 0.6698(9) 1.5624(7)
N2C N 0.5340(11) 0.3890(8) 1.3620(8)
H2C H 0.5862 0.4896 1.4144
C7C C 0.7334(15) 0.7334(15) 1.6105(12)
C8C C 0.5937(12) 0.5937(12) 1.5897(16)
C9C C 0.4831(17) 0.3443(18) 1.3016(16)
C10C C 0.5043(19) 0.3359(18) 1.4295(16)
H3C H 0.7179 0.7179 1.6621
H4C H 0.7872 0.7374 1.6007
H4F H 0.7374 0.7872 1.6007
H5C H 0.5935 0.5935 1.6437
H6C H 0.5440 0.5938 1.5716
H6F H 0.5938 0.5440 1.5716
H7C H 0.4557 0.2845 1.3118
H8C H 0.4409 0.3605 1.2938
H9C H 0.5174 0.3569 1.2572
H10C H 0.4718 0.2773 1.4152
H11C H 0.5523 0.3447 1.4590
H12C H 0.4693 0.3510 1.4587
loop_
_geom_bond_atom_site_label_1
_geom_bond_atom_site_label_2
_geom_bond_site_symmetry_1
_geom_bond_site_symmetry_2
Zn1 O1 1_555 1_555
O1 Zn2 1_555 1_555
O2 Zn1 1_555 1_555
O3 Zn1 1_555 1_555
O4 Zn1 1_555 1_555
Zn2 O5 1_555 1_555
C1 O2 1_555 1_555
C2 O3 1_555 1_555
C3 O4 1_555 1_555
O5 C5 1_555 1_555
O6 Zn2 1_555 1_555
O7 Zn2 1_555 1_555
H1 C1 1_555 1_555
N1 C1 1_555 1_555
N2 C2 1_555 1_555
H2 C2 1_555 1_555
C4 C3 1_555 1_555
C5 C13 1_555 1_555
C6 O6 1_555 1_555
C7 N1 1_555 1_555
C8 N1 1_555 1_555
C9 N2 1_555 1_555
C10 N2 1_555 1_555
C11 C4 1_555 1_555
C12 C4 1_555 1_555
C13 C11E 1_555 1_555
O8 C6 1_555 1_555
C14 C6 1_555 1_555
H3 C7 1_555 1_555
H4 C7 1_555 1_555
H5 C8 1_555 1_555
H6 C8 1_555 1_555
H7 C9 1_555 1_555
H8 C9 1_555 1_555
H9 C9 1_555 1_555
H10 C10 1_555 1_555
H11 C10 1_555 1_555
H12 C10 1_555 1_555
H13 C11 1_555 1_555
H14 C12 1_555 1_555
C15 C14 1_555 1_555
H15 C15 1_555 1_555
N3 C16 1_555 1_555
C17 N3 1_555 1_555
O4I Zn1 1_555 1_555
O3I Zn1 1_555 1_555
Zn2I O1 1_555 1_555
O5I C5 1_555 1_555
O7I C3 1_555 1_555
O6I Zn2I 1_555 1_555
H4I C7 1_555 1_555
H6I C8 1_555 1_555
C13D C11 1_555 1_555
C4J C12 1_555 1_555
C11E H13E 1_555 1_555
C11H C13 1_555 1_555
C15A C14 1_555 1_555
C5D C13D 1_555 1_555
C11J C13D 1_555 1_555
C3J C4J 1_555 1_555
C4E C11E 1_555 1_555
H13H C11H 1_555 1_555
C4H C11H 1_555 1_555
C14B C15 1_555 1_555
C14A C15A 1_555 1_555
H15A C15A 1_555 1_555
O5D C5D 1_555 1_555
O5H C5D 1_555 1_555
H13J C11J 1_555 1_555
O4J C3J 1_555 1_555
O7B C3J 1_555 1_555
C12E C4E 1_555 1_555
C3E C4E 1_555 1_555
C3H C4H 1_555 1_555
C6B C14B 1_555 1_555
C15B C14B 1_555 1_555
C6A C14A 1_555 1_555
Zn2D O5D 1_555 1_555
Zn2H O5H 1_555 1_555
Zn1B O4J 1_555 1_555
Zn2B O7B 1_555 1_555
H14E C12E 1_555 1_555
O4E C3E 1_555 1_555
O7G C3E 1_555 1_555
O4H C3H 1_555 1_555
O7D C3H 1_555 1_555
O6B C6B 1_555 1_555
O8B C6B 1_555 1_555
H15B C15B 1_555 1_555
O6A C6A 1_555 1_555
O8A C6A 1_555 1_555
O1D Zn2D 1_555 1_555
O6D Zn2D 1_555 1_555
O7D_2 Zn2D 1_555 1_555
Zn1E O4E 1_555 1_555
Zn2G O7G 1_555 1_555
Zn1D O4H 1_555 1_555
Zn2D_2 O7D 1_555 1_555
Zn2B_2 O6B 1_555 1_555
Zn2A O6A 1_555 1_555
Zn2J O7J 1_555 1_555
Zn1D_2 O1D 1_555 1_555
C6D O6D 1_555 1_555
O1A Zn2A 1_555 1_555
O5A Zn2A 1_555 1_555
O7A Zn2A 1_555 1_555
O7J C3B 1_555 1_555
O2D Zn1D_2 1_555 1_555
O3D Zn1D_2 1_555 1_555
O4D Zn1D_2 1_555 1_555
O4H_2 Zn1D_2 1_555 1_555
O3H Zn1D_2 1_555 1_555
O8D C6D 1_555 1_555
C14D C6D 1_555 1_555
Zn1A O1A 1_555 1_555
C3K O7A 1_555 1_555
C3B C4B 1_555 1_555
Zn1B_2 O4B 1_555 1_555
C1D O2D 1_555 1_555
C2D O3D 1_555 1_555
C15D C14D 1_555 1_555
C15E C14D 1_555 1_555
O2A Zn1A 1_555 1_555
O3A Zn1A 1_555 1_555
O4A Zn1A 1_555 1_555
O4K Zn1A 1_555 1_555
O3K Zn1A 1_555 1_555
C4K C3K 1_555 1_555
C4B C12B 1_555 1_555
O4B C3B 1_555 1_555
H1D C1D 1_555 1_555
N1D C1D 1_555 1_555
N2D C2D 1_555 1_555
H2D C2D 1_555 1_555
H15D C15D 1_555 1_555
C14C C15D 1_555 1_555
C14E C15E 1_555 1_555
H15E C15E 1_555 1_555
C1A O2A 1_555 1_555
C2A O3A 1_555 1_555
C11K C4K 1_555 1_555
C12B C4K 1_555 1_555
C11B C4B 1_555 1_555
C7D N1D 1_555 1_555
C8D N1D 1_555 1_555
C9D N2D 1_555 1_555
C10D N2D 1_555 1_555
C15C C14C 1_555 1_555
C6C C14C 1_555 1_555
C6E C14E 1_555 1_555
H1A C1A 1_555 1_555
N1A C1A 1_555 1_555
N2A C2A 1_555 1_555
H2A C2A 1_555 1_555
C13C C11K 1_555 1_555
H13K C11K 1_555 1_555
H14B C12B 1_555 1_555
H13B C11B 1_555 1_555
H3D C7D 1_555 1_555
H4D C7D 1_555 1_555
H4H C7D 1_555 1_555
H5D C8D 1_555 1_555
H6D C8D 1_555 1_555
H6H C8D 1_555 1_555
H7D C9D 1_555 1_555
H8D C9D 1_555 1_555
H9D C9D 1_555 1_555
H10D C10D 1_555 1_555
H11D C10D 1_555 1_555
H12D C10D 1_555 1_555
H15C C15C 1_555 1_555
O6C C6C 1_555 1_555
O8C C6C 1_555 1_555
O6E C6E 1_555 1_555
O8E C6E 1_555 1_555
C7A N1A 1_555 1_555
C8A N1A 1_555 1_555
C9A N2A 1_555 1_555
C10A N2A 1_555 1_555
C5C C13C 1_555 1_555
Zn2C O6C 1_555 1_555
Zn2E O6E 1_555 1_555
Zn2F O5F 1_555 1_555
H3A C7A 1_555 1_555
H4A C7A 1_555 1_555
H4K C7A 1_555 1_555
H5A C8A 1_555 1_555
H6A C8A 1_555 1_555
H6K C8A 1_555 1_555
H7A C9A 1_555 1_555
H8A C9A 1_555 1_555
H9A C9A 1_555 1_555
H10A C10A 1_555 1_555
H11A C10A 1_555 1_555
H12A C10A 1_555 1_555
O5C C5C 1_555 1_555
O5F C5C 1_555 1_555
O1C Zn2C 1_555 1_555
O7C Zn2C 1_555 1_555
Zn1C O1C 1_555 1_555
O2C Zn1C 1_555 1_555
O3C Zn1C 1_555 1_555
O4C Zn1C 1_555 1_555
O4F Zn1C 1_555 1_555
O3F Zn1C 1_555 1_555
C1C O2C 1_555 1_555
C2C O3C 1_555 1_555
H1C C1C 1_555 1_555
N1C C1C 1_555 1_555
N2C C2C 1_555 1_555
H2C C2C 1_555 1_555
C7C N1C 1_555 1_555
C8C N1C 1_555 1_555
C9C N2C 1_555 1_555
C10C N2C 1_555 1_555
H3C C7C 1_555 1_555
H4C C7C 1_555 1_555
H4F C7C 1_555 1_555
H5C C8C 1_555 1_555
H6C C8C 1_555 1_555
H6F C8C 1_555 1_555
H7C C9C 1_555 1_555
H8C C9C 1_555 1_555
H9C C9C 1_555 1_555
H10C C10C 1_555 1_555
H11C C10C 1_555 1_555
H12C C10C 1_555 1_555
C17A N3 1_555 1_555
C17B N3 1_555 1_555
Zn2I O5I 1_555 1_555
Zn2I O7I 1_555 1_555
C4J C11J 1_555 1_555
C4H C12E 1_555 1_555
C14A C15B 1_555 1_555
Zn2H O1D 1_555 1_555
C3K O4K 1_555 1_555
C14E C15C 1_555 1_555
C11B C13C 1_555 1_555
Zn2C O5C 1_555 1_555
Zn2F O1C 1_555 1_555

#END
