
#######################################################################
#
#                 Cambridge Crystallographic Data Centre
#                                CCDC 
#
#######################################################################
#
# If this CIF has been generated from an entry in the Cambridge 
# Structural Database, then it will include bibliographic, chemical, 
# crystal, experimental, refinement or atomic coordinate data resulting 
# from the CCDC's data processing and validation procedures.
#
#######################################################################

data_EWUKAK
_chemical_formula_moiety         'C44 H41 Co5 N3 O42 Zn11 2+'
_symmetry_cell_setting           tetragonal
_symmetry_space_group_name_H-M   'I 4 c m'
_symmetry_Int_Tables_number      108
_space_group_name_Hall           'I 4 -2c'
loop_
_symmetry_equiv_pos_site_id
_symmetry_equiv_pos_as_xyz
1 x,y,z
2 -x,-y,z
3 -y,x,z
4 y,-x,z
5 x,-y,1/2+z
6 -x,y,1/2+z
7 -y,-x,1/2+z
8 y,x,1/2+z
9 1/2+x,1/2+y,1/2+z
10 1/2-x,1/2-y,1/2+z
11 1/2-y,1/2+x,1/2+z
12 1/2+y,1/2-x,1/2+z
13 1/2+x,1/2-y,z
14 1/2-x,1/2+y,z
15 1/2-y,1/2-x,z
16 1/2+y,1/2+x,z
_cell_length_a                   20.328(9)
_cell_length_b                   20.328(9)
_cell_length_c                   17.910(8)
_cell_angle_alpha                90
_cell_angle_beta                 90
_cell_angle_gamma                90
_cell_volume                     7400.91
loop_
_atom_site_label
_atom_site_type_symbol
_atom_site_fract_x
_atom_site_fract_y
_atom_site_fract_z
O9 O 0.4581(8) -0.0419(8) 0.5380(14)
O10 O 0.4288(4) 0.0712(4) 0.8161(7)
O11 O 0.5000 0.0000 0.7155(16)
C13 C -0.053(3) 0.149(3) 0.414(4)
H9 H -0.0639 0.1290 0.3673
H10 H -0.0876 0.1798 0.4274
H11 H -0.0124 0.1724 0.4100
N2 N -0.048(4) 0.100(2) 0.470(4)
H12 H -0.0863 0.0787 0.4695
H13 H -0.0181 0.0720 0.4537
C14 C -0.033(4) 0.109(3) 0.548(4)
H14 H -0.0332 0.0669 0.5720
H15 H 0.0090 0.1292 0.5526
H16 H -0.0662 0.1366 0.5700
Zn1 Zn 0.25841(5) 0.11757(5) 0.76401(7)
O1 O 0.3437(3) 0.1563(3) 0.7370(5)
O2 O 0.1941(4) 0.1721(4) 0.7101(3)
O3 O 0.2572(4) 0.0331(3) 0.7119(3)
O4 O 0.2330(4) 0.1304(4) 0.8686(4)
Co1 Co 0.34706(5) 0.15294(5) 0.61906(8)
C1 C 0.1989(5) 0.1780(5) 0.6392(5)
O5 O 0.2456(3) 0.1570(4) 0.5997(3)
O6 O 0.3642(4) 0.1358(4) 0.5058(5)
O7 O 0.3397(3) 0.0516(3) 0.6296(4)
C2 C 0.1427(5) 0.2128(5) 0.6017(4)
C3 C 0.3362(7) 0.1638(7) 0.4558(9)
C4 C 0.4808(5) 0.2091(5) 0.6533(4)
C5 C 0.0900(5) 0.2337(5) 0.6440(5)
C6 C 0.1431(4) 0.2242(5) 0.5239(5)
H1 H 0.3050 0.1950 0.4693
N1 N 0.3455(7) 0.1545(7) 0.3849(9)
C7 C 0.5391(4) 0.2304(4) 0.6102(5)
H2 H 0.0882 0.2240 0.6947
C8 C 0.0928(5) 0.2575(5) 0.4904(5)
H3 H 0.1781 0.2089 0.4953
C9 C 0.3093(12) 0.1907(12) 0.3295(15)
C10 C 0.3919(7) 0.1081(7) 0.3575(10)
C11 C 0.5411(4) 0.2183(5) 0.5333(4)
C12 C 0.0912(5) 0.2679(5) 0.4077(5)
H4 H 0.3230 0.1770 0.2806
H5 H 0.2631 0.1824 0.3354
H6 H 0.3915 0.1085 0.3039
H7 H 0.4351 0.1195 0.3750
H8 H 0.5077 0.1940 0.5108
O8 O 0.0523(4) 0.3078(4) 0.3804(4)
Zn1N Zn 0.38243(5) 0.24159(5) 0.76401(7)
O5N O 0.3430(4) 0.2544(3) 0.5997(3)
O7N O 0.4484(3) 0.1603(3) 0.6296(4)
O3N O 0.4669(3) 0.2428(4) 0.7119(3)
O2N O 0.3279(4) 0.3059(4) 0.7101(3)
O4N O 0.3696(4) 0.2670(4) 0.8686(4)
C1N C 0.3220(5) 0.3011(5) 0.6392(5)
C2N C 0.2872(5) 0.3573(5) 0.6017(4)
C7L C 0.0391(4) 0.2696(4) 0.6102(5)
C5N C 0.2663(5) 0.4100(5) 0.6440(5)
C6N C 0.2758(5) 0.3569(4) 0.5239(5)
C5L C 0.5900(5) 0.2663(5) 0.6440(5)
C11L C 0.0411(4) 0.2817(5) 0.5333(4)
C4L C -0.0192(5) 0.2909(5) 0.6533(4)
H5N H 0.3176 0.2369 0.3354
H7N H 0.3805 0.0649 0.3750
H2N H 0.2760 0.4118 0.6947
C7C C 0.2304(4) 0.4609(4) 0.6102(5)
C8N C 0.2425(5) 0.4072(5) 0.4904(5)
H3N H 0.2911 0.3219 0.4953
C2L C 0.6427(5) 0.2872(5) 0.6017(4)
H2L H 0.5882 0.2760 0.6947
C8L C 0.5928(5) 0.2425(5) 0.4904(5)
H8L H 0.0077 0.3060 0.5108
O3B O -0.0331(3) 0.2572(4) 0.7119(3)
O7B O -0.0516(3) 0.3397(3) 0.6296(4)
O4G O 0.1304(4) 0.2330(4) 0.3686(4)
C11C C 0.2183(5) 0.4589(4) 0.5333(4)
C4C C 0.2091(5) 0.5192(5) 0.6533(4)
C12N C 0.2321(5) 0.4088(5) 0.4077(5)
C6L C 0.6431(4) 0.2758(5) 0.5239(5)
C1L C 0.6989(5) 0.3220(5) 0.6392(5)
C12L C 0.5912(5) 0.2321(5) 0.4077(5)
Zn1B Zn -0.11757(5) 0.25841(5) 0.76401(7)
Co1B Co -0.15294(5) 0.34706(5) 0.61906(8)
Zn1G Zn 0.11757(5) 0.25841(5) 0.26401(7)
H8C H 0.1940 0.4923 0.5108
O3M O 0.2428(4) 0.5331(3) 0.7119(3)
O7M O 0.1603(3) 0.5516(3) 0.6296(4)
O4I O 0.2670(4) 0.3696(4) 0.3686(4)
O8N O 0.1922(4) 0.4477(4) 0.3804(4)
H3L H 0.6781 0.2911 0.4953
O5L O 0.7456(3) 0.3430(4) 0.5997(3)
O2L O 0.6941(4) 0.3279(4) 0.7101(3)
O4K O 0.6304(4) 0.2670(4) 0.3686(4)
O8L O 0.5523(4) 0.1922(4) 0.3804(4)
O2B O -0.1721(4) 0.1941(4) 0.7101(3)
O1B O -0.1563(3) 0.3437(3) 0.7370(5)
O4B O -0.1304(4) 0.2330(4) 0.8686(4)
O5B O -0.1570(4) 0.2456(3) 0.5997(3)
Zn1M Zn 0.24159(5) 0.61757(5) 0.76401(7)
Co1C Co 0.15294(5) 0.65294(5) 0.61906(8)
Zn1I Zn 0.24159(5) 0.38243(5) 0.26401(7)
Co1B_2 Co 0.84706(5) 0.34706(5) 0.61906(8)
Zn1L Zn 0.75841(5) 0.38243(5) 0.76401(7)
Zn1K Zn 0.61757(5) 0.24159(5) 0.26401(7)
C1B C -0.1780(5) 0.1989(5) 0.6392(5)
O1B_2 O 0.8437(3) 0.3437(3) 0.7370(5)
O6B O 0.8642(4) 0.3642(4) 0.5058(5)
O5B_2 O 0.8430(4) 0.2456(3) 0.5997(3)
O7L O 0.8397(3) 0.4484(3) 0.6296(4)
O7B_2 O 0.9484(3) 0.3397(3) 0.6296(4)
O3L O 0.7572(4) 0.4669(3) 0.7119(3)
O4L O 0.7330(4) 0.3696(4) 0.8686(4)
C2B C -0.2128(5) 0.1427(5) 0.6017(4)
Zn1B_2 Zn 0.88243(5) 0.25841(5) 0.76401(7)
C3B C 0.8362(7) 0.3362(7) 0.4558(9)
C5B C -0.2337(5) 0.0900(5) 0.6440(5)
C6B C -0.2242(5) 0.1431(4) 0.5239(5)
H1B H 0.8050 0.3050 0.4693
N1B N 0.8455(7) 0.3455(7) 0.3849(9)
H2B H -0.2240 0.0882 0.6947
C7O C -0.2696(4) 0.0391(4) 0.6102(5)
C8B C -0.2575(5) 0.0928(5) 0.4904(5)
H3B H -0.2089 0.1781 0.4953
C9B C 0.8093(12) 0.3093(12) 0.3295(15)
C10B C 0.8919(7) 0.3919(7) 0.3575(10)
C11O C -0.2817(5) 0.0411(4) 0.5333(4)
C4O C -0.2909(5) -0.0192(5) 0.6533(4)
C12B C -0.2679(5) 0.0912(5) 0.4077(5)
H4B H 0.8230 0.3230 0.2806
H5L H 0.7631 0.3176 0.3354
H5B H 0.8176 0.2631 0.3354
H6B H 0.8915 0.3915 0.3039
H7L H 0.9351 0.3805 0.3750
H7B H 0.8805 0.4351 0.3750
H8O H -0.3060 0.0077 0.5108
O3A O -0.2572(4) -0.0331(3) 0.7119(3)
O7A O -0.3397(3) -0.0516(3) 0.6296(4)
O4E O -0.2330(4) 0.1304(4) 0.3686(4)
O8B O -0.3078(4) 0.0523(4) 0.3804(4)
Zn1A Zn -0.25841(5) -0.11757(5) 0.76401(7)
Co1A Co -0.34706(5) -0.15294(5) 0.61906(8)
Zn1E Zn -0.25841(5) 0.11757(5) 0.26401(7)
loop_
_geom_bond_atom_site_label_1
_geom_bond_atom_site_label_2
_geom_bond_site_symmetry_1
_geom_bond_site_symmetry_2
Zn1 O1 1_555 1_555
O1 Co1 1_555 1_555
O2 Zn1 1_555 1_555
O3 Zn1 1_555 1_555
O4 Zn1 1_555 1_555
Co1 O5 1_555 1_555
C1 O2 1_555 1_555
O5 C1 1_555 1_555
O6 Co1 1_555 1_555
O7 Co1 1_555 1_555
C2 C1 1_555 1_555
C3 O6 1_555 1_555
C4 C7 1_555 1_555
C5 C2 1_555 1_555
C6 C2 1_555 1_555
H1 C3 1_555 1_555
N1 C3 1_555 1_555
C7 C11 1_555 1_555
H2 C5 1_555 1_555
C8 C6 1_555 1_555
H3 C6 1_555 1_555
C9 N1 1_555 1_555
C10 N1 1_555 1_555
C11 H8 1_555 1_555
C12 C8 1_555 1_555
H4 C9 1_555 1_555
H5 C9 1_555 1_555
H6 C10 1_555 1_555
H7 C10 1_555 1_555
O8 C12 1_555 1_555
C13 H9 1_555 1_555
H10 C13 1_555 1_555
H11 C13 1_555 1_555
N2 C13 1_555 1_555
H12 N2 1_555 1_555
H13 N2 1_555 1_555
C14 N2 1_555 1_555
H14 C14 1_555 1_555
H15 C14 1_555 1_555
H16 C14 1_555 1_555
Zn1N O1 1_555 1_555
O5N Co1 1_555 1_555
O7N Co1 1_555 1_555
O3N C4 1_555 1_555
O2N Zn1N 1_555 1_555
O4N Zn1N 1_555 1_555
C1N O5N 1_555 1_555
C2N C1N 1_555 1_555
C7L C5 1_555 1_555
C5N C2N 1_555 1_555
C6N C2N 1_555 1_555
C5L C7 1_555 1_555
C11L C8 1_555 1_555
C4L C7L 1_555 1_555
H5N C9 1_555 1_555
H7N C10 1_555 1_555
H2N C5N 1_555 1_555
C7C C5N 1_555 1_555
C8N C6N 1_555 1_555
H3N C6N 1_555 1_555
C2L C5L 1_555 1_555
H2L C5L 1_555 1_555
C8L C11 1_555 1_555
H8L C11L 1_555 1_555
O3B C4L 1_555 1_555
O7B C4L 1_555 1_555
O4G C12 1_555 1_555
C11C C7C 1_555 1_555
C4C C7C 1_555 1_555
C12N C8N 1_555 1_555
C6L C2L 1_555 1_555
C1L C2L 1_555 1_555
C12L C8L 1_555 1_555
Zn1B O3B 1_555 1_555
Co1B O7B 1_555 1_555
Zn1G O4G 1_555 1_555
H8C C11C 1_555 1_555
O3M C4C 1_555 1_555
O7M C4C 1_555 1_555
O4I C12N 1_555 1_555
O8N C12N 1_555 1_555
H3L C6L 1_555 1_555
O5L C1L 1_555 1_555
O2L C1L 1_555 1_555
O4K C12L 1_555 1_555
O8L C12L 1_555 1_555
O2B Zn1B 1_555 1_555
O1B Zn1B 1_555 1_555
O4B Zn1B 1_555 1_555
O5B Co1B 1_555 1_555
Zn1M O3M 1_555 1_555
Co1C O7M 1_555 1_555
Zn1I O4I 1_555 1_555
Co1B_2 O5L 1_555 1_555
Zn1L O2L 1_555 1_555
Zn1K O4K 1_555 1_555
C1B O2B 1_555 1_555
O1B_2 Co1B_2 1_555 1_555
O6B Co1B_2 1_555 1_555
O5B_2 Co1B_2 1_555 1_555
O7L Co1B_2 1_555 1_555
O7B_2 Co1B_2 1_555 1_555
O3L Zn1L 1_555 1_555
O4L Zn1L 1_555 1_555
C2B C1B 1_555 1_555
Zn1B_2 O1B_2 1_555 1_555
C3B O6B 1_555 1_555
C5B C2B 1_555 1_555
C6B C2B 1_555 1_555
H1B C3B 1_555 1_555
N1B C3B 1_555 1_555
H2B C5B 1_555 1_555
C7O C5B 1_555 1_555
C8B C6B 1_555 1_555
H3B C6B 1_555 1_555
C9B N1B 1_555 1_555
C10B N1B 1_555 1_555
C11O C7O 1_555 1_555
C4O C7O 1_555 1_555
C12B C8B 1_555 1_555
H4B C9B 1_555 1_555
H5L C9B 1_555 1_555
H5B C9B 1_555 1_555
H6B C10B 1_555 1_555
H7L C10B 1_555 1_555
H7B C10B 1_555 1_555
H8O C11O 1_555 1_555
O3A C4O 1_555 1_555
O7A C4O 1_555 1_555
O4E C12B 1_555 1_555
O8B C12B 1_555 1_555
Zn1A O3A 1_555 1_555
Co1A O7A 1_555 1_555
Zn1E O4E 1_555 1_555
C4 O7N 1_555 1_555
Zn1N O3N 1_555 1_555
O2N C1N 1_555 1_555
C7L C11L 1_555 1_555
C8N C11C 1_555 1_555
C8L C6L 1_555 1_555
Co1B O1B 1_555 1_555
O5B C1B 1_555 1_555
Zn1L O1B_2 1_555 1_555
C8B C11O 1_555 1_555

#END
