
#######################################################################
#
#                 Cambridge Crystallographic Data Centre
#                                CCDC 
#
#######################################################################
#
# If this CIF has been generated from an entry in the Cambridge 
# Structural Database, then it will include bibliographic, chemical, 
# crystal, experimental, refinement or atomic coordinate data resulting 
# from the CCDC's data processing and validation procedures.
#
#######################################################################

data_WOPWOO
_chemical_formula_moiety         '(C24 H26 Ag12 Cr4 O61)n'
_symmetry_cell_setting           monoclinic
_symmetry_space_group_name_H-M   'P 21/n'
_symmetry_Int_Tables_number      14
_space_group_name_Hall           '-P 2yn'
loop_
_symmetry_equiv_pos_site_id
_symmetry_equiv_pos_as_xyz
1 x,y,z
2 1/2-x,1/2+y,1/2-z
3 -x,-y,-z
4 1/2+x,1/2-y,1/2+z
_cell_length_a                   17.244(3)
_cell_length_b                   14.704(2)
_cell_length_c                   24.516(4)
_cell_angle_alpha                90
_cell_angle_beta                 105.772(3)
_cell_angle_gamma                90
_cell_volume                     5982.14
loop_
_atom_site_label
_atom_site_type_symbol
_atom_site_fract_x
_atom_site_fract_y
_atom_site_fract_z
Ag1 Ag 0.74588(4) 0.67696(5) 0.24821(3)
Ag2 Ag 0.75457(5) 0.28845(5) 0.49894(3)
Ag3 Ag 0.91740(5) 0.30199(5) 0.63924(4)
Ag4 Ag 0.91595(5) 0.67506(5) 0.39299(4)
Ag5 Ag 1.00617(4) 0.44615(5) 0.37402(3)
Ag6 Ag 0.56293(4) 0.18189(4) 0.60084(3)
Ag7 Ag 0.55222(5) 0.28475(7) 0.74184(4)
Ag8 Ag 0.73166(5) 0.78831(5) 0.49473(3)
Ag9 Ag 0.99958(4) 0.53809(6) 0.12572(3)
Ag10 Ag 0.95872(13) 0.76220(11) 0.04790(8)
Ag11 Ag 0.74690(4) 0.68657(4) 0.74878(3)
Ag12 Ag 0.91775(5) 0.82841(7) 0.60051(4)
Cr1 Cr 0.79004(8) 0.47590(8) 0.40940(5)
Cr2 Cr 0.78314(8) 0.49362(8) 0.65554(5)
Cr3 Cr 0.79325(7) 0.48962(8) 0.15880(5)
Cr4 Cr 0.71046(8) -0.01618(8) 0.59300(5)
O1 O 0.7155(3) 0.5463(4) 0.4414(2)
O2 O 0.6390(4) 0.6716(4) 0.4239(3)
O3 O 0.7549(3) 0.5619(4) 0.3468(2)
O4 O 0.6808(4) 0.6871(4) 0.3223(3)
O5 O 0.7072(3) 0.3849(4) 0.3764(2)
O6 O 0.6846(4) 0.2668(4) 0.3167(3)
O7 O 0.8547(3) 0.4024(4) 0.3704(2)
O8 O 0.8427(4) 0.2860(4) 0.3107(3)
O9 O 0.8324(3) 0.4074(4) 0.4818(2)
O10 O 0.9271(3) 0.4148(4) 0.5651(2)
O11 O 0.8807(3) 0.5562(4) 0.4462(2)
O12 O 0.9706(3) 0.5841(4) 0.5286(2)
O13 O 0.6952(3) 0.5783(4) 0.6207(3)
O14 O 0.6690(4) 0.6991(4) 0.5629(3)
O15 O 0.8439(3) 0.5703(4) 0.6155(2)
O16 O 0.8294(4) 0.6937(4) 0.5606(3)
O17 O 0.7511(3) 0.4040(4) 0.5935(2)
O18 O 0.6799(3) 0.2767(4) 0.5702(2)
O19 O 0.7138(3) 0.4172(4) 0.6889(2)
O20 O 0.6435(3) 0.2877(4) 0.6739(2)
O21 O 0.8801(3) 0.4214(4) 0.6932(2)
O22 O 0.9741(3) 0.4086(4) 0.7759(2)
O23 O 0.8188(3) 0.5661(4) 0.7249(2)
O24 O 0.9133(4) 0.5707(4) 0.8084(3)
O25 O 0.8288(3) 0.5623(4) 0.2294(2)
O26 O 0.9230(4) 0.5641(4) 0.3130(2)
O27 O 0.8886(3) 0.4180(3) 0.1962(2)
O28 O 0.9817(3) 0.4014(4) 0.2790(2)
O29 O 0.7220(3) 0.4148(4) 0.1921(2)
O30 O 0.6507(4) 0.2861(4) 0.1769(3)
O31 O 0.7600(3) 0.4004(4) 0.0973(2)
O32 O 0.6922(4) 0.2713(4) 0.0744(3)
O33 O 0.8534(3) 0.5679(4) 0.1198(2)
O34 O 0.8359(4) 0.6877(4) 0.0611(3)
O35 O 0.7040(3) 0.5735(4) 0.1236(2)
O36 O 0.6771(4) 0.6951(4) 0.0673(3)
O37 O 0.7484(3) 0.0702(4) 0.6564(2)
O38 O 0.8169(4) 0.1995(4) 0.6770(2)
O39 O 0.7821(3) 0.0562(4) 0.5591(2)
O40 O 0.8521(4) 0.1859(4) 0.5728(3)
O41 O 0.6187(3) 0.0632(3) 0.5565(2)
O42 O 0.5297(3) 0.0873(4) 0.4729(2)
O43 O 0.6704(3) -0.0857(4) 0.5223(2)
O44 O 0.5757(3) -0.0829(4) 0.4393(2)
O45 O 0.7933(3) -0.1083(4) 0.6259(2)
O46 O 0.8138(4) -0.2291(4) 0.6830(3)
O47 O 0.6455(3) -0.0895(4) 0.6318(2)
O48 O 0.6536(4) -0.2117(4) 0.6874(3)
O49 O 1.0144(5) 0.2293(9) 0.7144(4)
H1 H 1.0673 0.2547 0.7174
H2 H 1.0149 0.1646 0.7068
O50 O 0.9914(5) 0.8064(6) 0.4375(4)
H3 H 1.0479 0.7905 0.4516
H4 H 0.9854 0.8552 0.4101
O51 O 1.0046(4) 0.8066(5) -0.0353(4)
H5 H 1.0634 0.8046 -0.0274
H6 H 0.9848 0.8670 -0.0495
O52 O 0.5856(5) 0.4522(5) 0.7415(3)
H7 H 0.6417 0.4594 0.7420
H8 H 0.5763 0.4812 0.7747
O53 O 0.4792(4) 0.3159(5) 0.8121(3)
H9 H 0.418(6) 0.265(7) 0.801(4)
O54 O 0.8966(6) 0.9413(6) 0.5270(4)
H10 H 0.9382 0.9874 0.5375
H11 H 0.8442 0.9692 0.5220
O55 O 1.0131(4) 0.7660(5) 0.5493(3)
H12 H 1.0669 0.7888 0.5667
H13 H 0.9961 0.7847 0.5099
O56 O 0.9057(5) 0.9366(6) 0.0294(3)
H14 H 0.9401 0.9697 0.0108
H15 H 0.9076 0.9654 0.0653
O57 O 0.4676(4) 0.2230(4) 0.6575(3)
H16 H 0.4280 0.2679 0.6376
H17 H 0.4390 0.1692 0.6656
C1 C 0.6832(5) 0.6154(5) 0.4107(3)
C2 C 0.7071(5) 0.6237(6) 0.3548(3)
C3 C 0.7269(5) 0.3273(5) 0.3437(3)
C4 C 0.8150(5) 0.3381(5) 0.3399(3)
C5 C 0.8906(5) 0.4460(5) 0.5179(3)
C6 C 0.9174(5) 0.5371(5) 0.4978(3)
C7 C 0.7138(5) 0.6408(5) 0.5885(3)
C8 C 0.8035(5) 0.6374(5) 0.5875(3)
C9 C 0.7059(5) 0.3406(5) 0.6025(3)
C10 C 0.6846(5) 0.3472(5) 0.6599(3)
C11 C 0.9160(5) 0.4465(5) 0.7437(3)
C12 C 0.8814(5) 0.5349(5) 0.7627(3)
C13 C 0.8902(5) 0.5305(5) 0.2659(3)
C14 C 0.9248(5) 0.4412(5) 0.2479(3)
C15 C 0.6932(5) 0.3445(5) 0.1630(3)
C16 C 0.7163(5) 0.3350(5) 0.1057(3)
C17 C 0.8111(5) 0.6328(5) 0.0895(3)
C18 C 0.7228(5) 0.6356(5) 0.0929(3)
C19 C 0.7920(5) 0.1341(5) 0.6460(3)
C20 C 0.8118(5) 0.1269(5) 0.5885(3)
C21 C 0.5831(5) 0.0427(5) 0.5051(3)
C22 C 0.6110(5) -0.0492(5) 0.4855(3)
C23 C 0.7715(5) -0.1677(5) 0.6575(3)
C24 C 0.6831(5) -0.1579(5) 0.6607(3)
Ag1A Ag 0.75412(4) 0.17696(5) 0.25179(3)
Ag2A Ag 0.74543(5) 0.78845(5) 0.00106(3)
Ag4A Ag 0.58405(5) 0.17506(5) 0.10701(4)
Ag5B Ag 0.99383(4) 0.55385(5) 0.62598(3)
Ag6A Ag 0.93707(4) 0.68189(4) 0.89916(3)
Ag6A_2 Ag 0.93707(4) 0.68189(4) -0.10084(3)
Ag7A Ag 0.94778(5) -0.21525(7) 0.75816(4)
Ag8A Ag 0.76834(5) 0.28831(5) 0.00527(3)
Ag8_2 Ag 0.73166(5) -0.21169(5) 0.49473(3)
Ag9B Ag 1.00042(4) 0.46191(6) 0.87428(3)
Ag9A Ag 0.50042(4) 0.03809(6) 0.37428(3)
Ag9C Ag 0.49958(4) -0.03809(6) 0.62572(3)
Ag10A Ag 0.54128(13) 0.26220(11) 0.45210(8)
Ag11A Ag 0.75310(4) 0.18657(4) 0.75122(3)
Ag11_2 Ag 0.74690(4) -0.31343(4) 0.74878(3)
Ag12_2 Ag 0.91775(5) -0.17159(7) 0.60051(4)
Ag12A Ag 0.58225(5) 0.32841(7) 0.89949(4)
O6A O 0.8154(4) 0.7668(4) 0.1833(3)
O8A O 0.6573(4) 0.7860(4) 0.1893(3)
O10B O 1.0729(3) 0.5852(4) 0.4349(2)
O12B O 1.0294(3) 0.4159(4) 0.4714(2)
O15B O 1.1561(3) 0.4297(4) 0.3845(2)
O22B O 1.0259(3) 0.5914(4) 0.2241(2)
O24A O 0.5867(4) 0.0707(4) 0.6916(3)
O24B O 1.0867(4) 0.4293(4) 0.1916(3)
O30A O 0.8493(4) 0.7861(4) 0.3231(3)
O32A O 0.8078(4) 0.7713(4) 0.4256(3)
O34A O 0.6641(4) 0.1877(4) 0.4389(3)
O36A O 0.8229(4) 0.1951(4) 0.4327(3)
O38A O 0.6831(4) 0.6995(4) 0.8230(2)
O42A O 0.9703(3) 0.5873(4) 0.0271(2)
O43_2 O 0.6704(3) 0.9143(4) 0.5223(2)
O44A O 0.9243(3) 0.4171(4) 0.0607(2)
O45_2 O 0.7933(3) 0.8917(4) 0.6259(2)
O46A O 0.6862(4) 0.2709(4) 0.8170(3)
O46_2 O 0.8138(4) 0.7709(4) 0.6830(3)
O47C O 1.1455(3) 0.5895(4) 0.1318(2)
O48_2 O 0.6536(4) 0.7883(4) 0.6874(3)
O51A O 0.4954(4) 0.3066(5) 0.5353(4)
H5A H 0.4366 0.3046 0.5274
H6A H 0.5152 0.3670 0.5495
O53A O 1.0208(4) 0.8159(5) 0.6879(3)
H9A H 1.082(6) 0.765(7) 0.699(4)
O58 O 0.4588(12) 0.5031(16) -0.0950(14)
H18 H 0.4232 0.4774 -0.0745
H19 H 0.5091 0.4694 -0.0860
O59 O 0.9428(5) 0.9773(6) -0.0736(4)
H20 H 0.9144 0.9737 -0.1136
H21 H 0.9867 1.0207 -0.0682
O60 O 1.0679(5) 0.9990(6) -0.1744(3)
H22 H 1.0829 0.9590 -0.1417
H23 H 1.0676 1.0614 -0.1618
O61 O 0.9480(5) 1.0519(7) -0.3263(4)
H24 H 0.9967 1.0289 -0.3339
H25 H 0.9557 1.1151 -0.3148
loop_
_geom_bond_atom_site_label_1
_geom_bond_atom_site_label_2
_geom_bond_site_symmetry_1
_geom_bond_site_symmetry_2
Ag1 O4 1_555 1_555
Ag2 O9 1_555 1_555
Ag3 O10 1_555 1_555
Ag4 O11 1_555 1_555
Ag5 O7 1_555 1_555
Ag6 O20 1_555 1_555
Ag7 O20 1_555 1_555
Ag8 O2 1_555 1_555
Ag9 O33 1_555 1_555
Ag10 O34 1_555 1_555
Ag11 O23 1_555 1_555
Ag12 O16 1_555 1_555
Cr1 O1 1_555 1_555
Cr2 O13 1_555 1_555
Cr3 O25 1_555 1_555
Cr4 O37 1_555 1_555
O1 C1 1_555 1_555
O2 C1 1_555 1_555
O3 Cr1 1_555 1_555
O4 C2 1_555 1_555
O5 Cr1 1_555 1_555
O6 C3 1_555 1_555
O7 Cr1 1_555 1_555
O8 C4 1_555 1_555
O9 Cr1 1_555 1_555
O10 C5 1_555 1_555
O11 Cr1 1_555 1_555
O12 C6 1_555 1_555
O13 C7 1_555 1_555
O14 Ag8 1_555 1_555
O15 Cr2 1_555 1_555
O16 Ag8 1_555 1_555
O17 Cr2 1_555 1_555
O18 Ag2 1_555 1_555
O19 Cr2 1_555 1_555
O20 C10 1_555 1_555
O21 Ag3 1_555 1_555
O22 C11 1_555 1_555
O23 Cr2 1_555 1_555
O24 C12 1_555 1_555
O25 Ag1 1_555 1_555
O26 Ag4 1_555 1_555
O27 Cr3 1_555 1_555
O28 Ag5 1_555 1_555
O29 Cr3 1_555 1_555
O30 C15 1_555 1_555
O31 Cr3 1_555 1_555
O32 C16 1_555 1_555
O33 Cr3 1_555 1_555
O34 C17 1_555 1_555
O35 Cr3 1_555 1_555
O36 C18 1_555 1_555
O37 C19 1_555 1_555
O38 Ag3 1_555 1_555
O39 Cr4 1_555 1_555
O40 Ag2 1_555 1_555
O41 Ag6 1_555 1_555
O42 C21 1_555 1_555
O43 Cr4 1_555 1_555
O44 C22 1_555 1_555
O45 Cr4 1_555 1_555
O46 C23 1_555 1_555
O47 Cr4 1_555 1_555
O48 C24 1_555 1_555
O49 Ag3 1_555 1_555
H1 O49 1_555 1_555
H2 O49 1_555 1_555
O50 Ag4 1_555 1_555
H3 O50 1_555 1_555
H4 O50 1_555 1_555
O51 Ag10 1_555 1_555
H5 O51 1_555 1_555
H6 O51 1_555 1_555
O52 Ag7 1_555 1_555
H7 O52 1_555 1_555
H8 O52 1_555 1_555
O53 Ag7 1_555 1_555
H9 O53 1_555 1_555
O54 Ag12 1_555 1_555
H10 O54 1_555 1_555
H11 O54 1_555 1_555
O55 Ag12 1_555 1_555
H12 O55 1_555 1_555
H13 O55 1_555 1_555
O56 Ag10 1_555 1_555
H14 O56 1_555 1_555
H15 O56 1_555 1_555
O57 Ag6 1_555 1_555
H16 O57 1_555 1_555
H17 O57 1_555 1_555
C1 C2 1_555 1_555
C2 O3 1_555 1_555
C3 O5 1_555 1_555
C4 O7 1_555 1_555
C5 O9 1_555 1_555
C6 O11 1_555 1_555
C7 O14 1_555 1_555
C8 O15 1_555 1_555
C9 O17 1_555 1_555
C10 O19 1_555 1_555
C11 O21 1_555 1_555
C12 O23 1_555 1_555
C13 O25 1_555 1_555
C14 O27 1_555 1_555
C15 O29 1_555 1_555
C16 O31 1_555 1_555
C17 O33 1_555 1_555
C18 O35 1_555 1_555
C19 O38 1_555 1_555
C20 O39 1_555 1_555
C21 O41 1_555 1_555
C22 O43 1_555 1_555
C23 O45 1_555 1_555
C24 O47 1_555 1_555
O58 H18 1_555 1_555
H19 O58 1_555 1_555
O59 H20 1_555 1_555
H21 O59 1_555 1_555
O60 H22 1_555 1_555
H23 O60 1_555 1_555
O61 H24 1_555 1_555
H25 O61 1_555 1_555
Ag1A O6 1_555 1_555
Ag2A O34 1_555 1_555
Ag4A O30 1_555 1_555
Ag5B O10 1_555 1_555
Ag6A O24 1_555 1_555
Ag6A_2 O51 1_555 1_555
Ag7A O46 1_555 1_555
Ag8A O32 1_555 1_555
Ag8_2 O43 1_555 1_555
Ag9B O22 1_555 1_555
Ag9A O42 1_555 1_555
Ag9C O47 1_555 1_555
Ag10A O42 1_555 1_555
Ag11A O38 1_555 1_555
Ag11_2 O46 1_555 1_555
Ag12_2 O45 1_555 1_555
Ag12A O53 1_555 1_555
O6A Ag1 1_555 1_555
O8A Ag1 1_555 1_555
O10B Ag5 1_555 1_555
O12B Ag5 1_555 1_555
O15B Ag5 1_555 1_555
O22B Ag9 1_555 1_555
O24A Ag6 1_555 1_555
O24B Ag9 1_555 1_555
O30A Ag1 1_555 1_555
O32A Ag4 1_555 1_555
O34A Ag2 1_555 1_555
O36A Ag2 1_555 1_555
O38A Ag11 1_555 1_555
O42A Ag9 1_555 1_555
O43_2 Ag8 1_555 1_555
O44A Ag9 1_555 1_555
O45_2 Ag12 1_555 1_555
O46A Ag7 1_555 1_555
O46_2 Ag11 1_555 1_555
O47C Ag9 1_555 1_555
O48_2 Ag11 1_555 1_555
O51A Ag6 1_555 1_555
H5A O51A 1_555 1_555
H6A O51A 1_555 1_555
O53A Ag12 1_555 1_555
H9A O53A 1_555 1_555
Ag3 O40 1_555 1_555
Ag4 O30A 1_555 1_555
Ag5 O26 1_555 1_555
Ag7 O57 1_555 1_555
Ag8 O32A 1_555 1_555
Ag10 O42A 1_555 1_555
Cr2 O21 1_555 1_555
Cr4 O41 1_555 1_555
O8 Ag1A 1_555 1_555
O12 Ag5B 1_555 1_555
O15 Ag5B 1_555 1_555
O16 C8 1_555 1_555
O18 C9 1_555 1_555
O24 Ag9B 1_555 1_555
O26 C13 1_555 1_555
O28 C14 1_555 1_555
O30 Ag1A 1_555 1_555
O32 Ag4A 1_555 1_555
O36 Ag2A 1_555 1_555
O40 C20 1_555 1_555
O44 Ag9A 1_555 1_555
O48 Ag11_2 1_555 1_555
C3 C4 1_555 1_555
C5 C6 1_555 1_555
C7 C8 1_555 1_555
C9 C10 1_555 1_555
C11 C12 1_555 1_555
C13 C14 1_555 1_555
C15 C16 1_555 1_555
C17 C18 1_555 1_555
C19 C20 1_555 1_555
C21 C22 1_555 1_555
C23 C24 1_555 1_555
Ag9C O24A 1_555 1_555
Ag10A O34A 1_555 1_555
Ag10A O51A 1_555 1_555
Ag11A O46A 1_555 1_555

#END
