
#######################################################################
#
#                 Cambridge Crystallographic Data Centre
#                                CCDC 
#
#######################################################################
#
# If this CIF has been generated from an entry in the Cambridge 
# Structural Database, then it will include bibliographic, chemical, 
# crystal, experimental, refinement or atomic coordinate data resulting 
# from the CCDC's data processing and validation procedures.
#
#######################################################################

data_RAZXIA01
_chemical_formula_moiety         '(C12 H17 Co3 K1 O18)n'
_symmetry_cell_setting           tetragonal
_symmetry_space_group_name_H-M   'I -4 2 d'
_symmetry_Int_Tables_number      122
_space_group_name_Hall           'I -4 2bw'
loop_
_symmetry_equiv_pos_site_id
_symmetry_equiv_pos_as_xyz
1 x,y,z
2 1/2+x,1/2+y,1/2+z
3 y,-x,-z
4 1/2+y,1/2-x,1/2-z
5 -x,-y,z
6 1/2-x,1/2-y,1/2+z
7 -y,x,-z
8 1/2-y,1/2+x,1/2-z
9 1/2-x,y,3/4-z
10 -x,1/2+y,1/4-z
11 1/2-y,-x,3/4+z
12 -y,1/2-x,1/4+z
13 1/2+x,-y,3/4-z
14 x,1/2-y,1/4-z
15 1/2+y,x,3/4+z
16 y,1/2+x,1/4+z
_cell_length_a                   13.0691(4)
_cell_length_b                   13.0691(4)
_cell_length_c                   30.1570(10)
_cell_angle_alpha                90
_cell_angle_beta                 90
_cell_angle_gamma                90
_cell_volume                     5150.86
loop_
_atom_site_label
_atom_site_type_symbol
_atom_site_fract_x
_atom_site_fract_y
_atom_site_fract_z
_atom_site_U_iso_or_equiv
_atom_site_thermal_displace_type
Co1 Co 0.89563(4) 0.95191(4) 0.459630(15) 0.0190 Uani
Co2 Co 1.0000 1.0000 0.30727(2) 0.0264 Uani
K1 K 0.7500 0.83937(13) 0.3750 0.0407 Uani
C1 C 1.1070(3) 0.9172(3) 0.37798(13) 0.0221 Uani
C2 C 1.1479(3) 0.8342(3) 0.40768(13) 0.0244 Uani
C3 C 1.0780(3) 0.8100(3) 0.44758(12) 0.0201 Uani
C4 C 1.1396(3) 0.7334(3) 0.47656(13) 0.0248 Uani
C5 C 1.0774(3) 0.6840(3) 0.51328(12) 0.0226 Uani
C6 C 0.9777(3) 0.7580(3) 0.43128(13) 0.0271 Uani
H1 H 1.2149 0.8576 0.4187 0.0284 Uiso
H2 H 1.1558 0.7716 0.3911 0.0278 Uiso
H3 H 1.1942 0.7725 0.4897 0.0280 Uiso
H4 H 1.1693 0.6809 0.4585 0.0281 Uiso
O1 O 1.1091(2) 1.0083(2) 0.39036(8) 0.0246 Uani
O2 O 1.0691(2) 0.8898(2) 0.34074(9) 0.0282 Uani
O3 O 1.0530(2) 0.9008(2) 0.47106(8) 0.0191 Uani
O4 O 0.8943(3) 0.8034(2) 0.43758(10) 0.0286 Uani
O5 O 0.9865(3) 0.6728(3) 0.41289(15) 0.0533 Uani
O6 O 1.0358(2) 0.7382(2) 0.54179(9) 0.0294 Uani
O7 O 1.0742(3) 0.5870(2) 0.51393(11) 0.0391 Uani
O8 O 0.6121(19) 0.7168(18) 0.4231(7) 0.1400 Uiso
Co1B Co 0.95191(4) 1.10437(4) 0.540370(15) 0.0190 Uani
C1B C 0.9172(3) 0.8930(3) 0.62202(13) 0.0221 Uani
C2B C 0.8342(3) 0.8521(3) 0.59232(13) 0.0244 Uani
C3B C 0.8100(3) 0.9220(3) 0.55242(12) 0.0201 Uani
C4B C 0.7334(3) 0.8604(3) 0.52344(13) 0.0248 Uani
C5B C 0.6840(3) 0.9226(3) 0.48672(12) 0.0226 Uani
C6B C 0.7580(3) 1.0223(3) 0.56872(13) 0.0271 Uani
H1B H 0.8576 0.7851 0.5813 0.0284 Uiso
H2B H 0.7716 0.8442 0.6089 0.0278 Uiso
H3B H 0.7725 0.8058 0.5103 0.0280 Uiso
H4B H 0.6809 0.8307 0.5415 0.0281 Uiso
O1B O 1.0083(2) 0.8909(2) 0.60964(8) 0.0246 Uani
O2B O 0.8898(2) 0.9309(2) 0.65926(9) 0.0282 Uani
O3B O 0.9008(2) 0.9470(2) 0.52894(8) 0.0191 Uani
O4B O 0.8034(2) 1.1057(3) 0.56242(10) 0.0286 Uani
O5B O 0.6728(3) 1.0135(3) 0.58711(15) 0.0533 Uani
O6B O 0.7382(2) 0.9642(2) 0.45821(9) 0.0294 Uani
O7B O 0.5870(2) 0.9258(3) 0.48607(11) 0.0391 Uani
O8H O 0.8879(19) 0.7168(18) 0.3269(7) 0.1400 Uiso
Co1D Co 1.10437(4) 1.04809(4) 0.459630(15) 0.0190 Uani
Co1F Co 1.04809(4) 0.89563(4) 0.540370(15) 0.0190 Uani
Co2B Co 1.0000 1.0000 0.69273(2) 0.0264 Uani
Co2H Co 0.5000 1.0000 0.44273(2) 0.0264 Uani
Co2K Co 1.0000 0.5000 0.55727(2) 0.0264 Uani
K1B K 0.83937(13) 1.2500 0.6250 0.0407 Uani
K1D K 1.2500 1.16063(13) 0.3750 0.0407 Uani
K1F K 1.16063(13) 0.7500 0.6250 0.0407 Uani
O1D O 0.8909(2) 0.9917(2) 0.39036(8) 0.0246 Uani
O1F O 0.9917(2) 1.1091(2) 0.60964(8) 0.0246 Uani
O1L O 0.6091(2) 0.9917(2) 0.35964(8) 0.0246 Uani
O2D O 0.9309(2) 1.1102(2) 0.34074(9) 0.0282 Uani
O3D O 0.9470(2) 1.0992(2) 0.47106(8) 0.0191 Uani
O3F O 1.0992(2) 1.0530(2) 0.52894(8) 0.0191 Uani
O4H O 0.6057(3) 0.8034(2) 0.31242(10) 0.0286 Uani
O6D O 0.9642(2) 1.2618(2) 0.54179(9) 0.0294 Uani
O6J O 0.7618(2) 0.9642(2) 0.29179(9) 0.0294 Uani
O7J O 0.9130(2) 0.9258(3) 0.26393(11) 0.0391 Uani
O7N O 1.0870(2) 1.0742(3) 0.26393(11) 0.0391 Uani
O10 O 1.1741(11) 0.4531(12) 0.4486(5) 0.1170 Uiso
O12 O 0.4347(13) 0.7089(12) 0.4573(6) 0.2390 Uani
loop_
_atom_site_aniso_label
_atom_site_aniso_U_11
_atom_site_aniso_U_22
_atom_site_aniso_U_33
_atom_site_aniso_U_23
_atom_site_aniso_U_13
_atom_site_aniso_U_12
Co1 0.0184(3) 0.0218(3) 0.0167(2) -0.0008(2) -0.0008(2) -0.0018(2)
Co2 0.0222(4) 0.0369(5) 0.0201(4) 0.0000 0.0000 -0.0044(4)
K1 0.0403(8) 0.0406(8) 0.0411(7) 0.0000 -0.0175(7) 0.0000
C1 0.0198(17) 0.0288(15) 0.0178(14) 0.0007(12) 0.0042(14) -0.0004(15)
C2 0.028(2) 0.0257(19) 0.0195(15) 0.0001(14) 0.0053(14) 0.0055(16)
C3 0.0237(17) 0.0180(15) 0.0187(16) 0.0003(11) 0.0026(13) 0.0010(13)
C4 0.027(2) 0.0219(18) 0.0255(17) 0.0025(14) 0.0043(14) 0.0047(15)
C5 0.028(2) 0.0199(14) 0.0198(16) 0.0026(12) -0.0021(13) 0.0029(14)
C6 0.0301(16) 0.0291(18) 0.0221(18) -0.0051(14) -0.0015(14) -0.0026(13)
O1 0.0266(13) 0.0267(12) 0.0205(11) 0.0022(11) 0.0013(11) -0.0019(13)
O2 0.0352(16) 0.0301(15) 0.0193(11) 0.0002(11) -0.0015(11) 0.0001(13)
O3 0.0223(13) 0.0161(12) 0.0189(11) -0.0010(10) 0.0013(10) -0.0004(12)
O4 0.0284(14) 0.0270(15) 0.0303(14) -0.0043(12) -0.0054(13) -0.0040(11)
O5 0.040(2) 0.0378(19) 0.082(3) -0.0290(19) -0.007(2) -0.0009(16)
O6 0.0396(17) 0.0229(13) 0.0257(13) 0.0024(11) 0.0084(13) 0.0004(12)
O7 0.063(2) 0.0198(12) 0.0346(16) -0.0002(12) 0.0193(15) -0.0026(14)
Co1B 0.0218 0.0184 0.0167 -0.0008 0.0008 0.0018
C1B 0.0288 0.0198 0.0178 0.0042 -0.0007 0.0004
C2B 0.0257 0.028 0.0195 0.0053 -0.0001 -0.0055
C3B 0.018 0.0237 0.0187 0.0026 -0.0003 -0.001
C4B 0.0219 0.027 0.0255 0.0043 -0.0025 -0.0047
C5B 0.0199 0.028 0.0198 -0.0021 -0.0026 -0.0029
C6B 0.0291 0.0301 0.0221 -0.0015 0.0051 0.0026
O1B 0.0267 0.0266 0.0205 0.0013 -0.0022 0.0019
O2B 0.0301 0.0352 0.0193 -0.0015 -0.0002 -0.0001
O3B 0.0161 0.0223 0.0189 0.0013 0.001 0.0004
O4B 0.027 0.0284 0.0303 -0.0054 0.0043 0.004
O5B 0.0378 0.04 0.082 -0.007 0.029 0.0009
O6B 0.0229 0.0396 0.0257 0.0084 -0.0024 -0.0004
O7B 0.0198 0.063 0.0346 0.0193 0.0002 0.0026
Co1D 0.0184 0.0218 0.0167 0.0008 0.0008 -0.0018
Co1F 0.0218 0.0184 0.0167 0.0008 -0.0008 0.0018
Co2B 0.0369 0.0222 0.0201 0 0 0.0044
Co2H 0.0222 0.0369 0.0201 0 0 0.0044
Co2K 0.0369 0.0222 0.0201 0 0 -0.0044
K1B 0.0406 0.0403 0.0411 -0.0175 0 0
K1D 0.0403 0.0406 0.0411 0 0.0175 0
K1F 0.0406 0.0403 0.0411 0.0175 0 0
O1D 0.0266 0.0267 0.0205 -0.0022 -0.0013 -0.0019
O1F 0.0267 0.0266 0.0205 -0.0013 0.0022 0.0019
O1L 0.0266 0.0267 0.0205 0.0022 -0.0013 0.0019
O2D 0.0352 0.0301 0.0193 -0.0002 0.0015 0.0001
O3D 0.0223 0.0161 0.0189 0.001 -0.0013 -0.0004
O3F 0.0161 0.0223 0.0189 -0.0013 -0.001 0.0004
O4H 0.0284 0.027 0.0303 0.0043 -0.0054 0.004
O6D 0.0396 0.0229 0.0257 -0.0024 -0.0084 0.0004
O6J 0.0229 0.0396 0.0257 -0.0084 -0.0024 0.0004
O7J 0.0198 0.063 0.0346 -0.0193 0.0002 -0.0026
O7N 0.0198 0.063 0.0346 0.0193 -0.0002 -0.0026
O12 0.242(16) 0.185(13) 0.290(18) 0.146(13) -0.049(14) -0.032(11)
loop_
_geom_bond_atom_site_label_1
_geom_bond_atom_site_label_2
_geom_bond_site_symmetry_1
_geom_bond_site_symmetry_2
Co1 O3 1_555 1_555
Co2 O2 1_555 1_555
K1 O4 1_555 1_555
C1 C2 1_555 1_555
C2 C3 1_555 1_555
C3 C4 1_555 1_555
C4 C5 1_555 1_555
C5 O6 1_555 1_555
C6 C3 1_555 1_555
H1 C2 1_555 1_555
H2 C2 1_555 1_555
H3 C4 1_555 1_555
H4 C4 1_555 1_555
O1 C1 1_555 1_555
O2 C1 1_555 1_555
O3 C3 1_555 1_555
O4 Co1 1_555 1_555
O5 C6 1_555 1_555
O6 Co1F 1_555 1_555
O7 C5 1_555 1_555
O8 K1 1_555 1_555
Co1B O3B 1_555 1_555
C1B C2B 1_555 1_555
C2B C3B 1_555 1_555
C3B C4B 1_555 1_555
C4B C5B 1_555 1_555
C5B O6B 1_555 1_555
C6B C3B 1_555 1_555
H1B C2B 1_555 1_555
H2B C2B 1_555 1_555
H3B C4B 1_555 1_555
H4B C4B 1_555 1_555
O1B C1B 1_555 1_555
O2B C1B 1_555 1_555
O3B Co1 1_555 1_555
O4B Co1B 1_555 1_555
O5B C6B 1_555 1_555
O6B Co1 1_555 1_555
O7B C5B 1_555 1_555
O8H K1 1_555 1_555
Co1D Co1 1_555 1_555
Co1F O3 1_555 1_555
Co2B O2B 1_555 1_555
Co2H O7B 1_555 1_555
Co2K O7 1_555 1_555
K1B O4B 1_555 1_555
K1D O1 1_555 1_555
K1F O6 1_555 1_555
O1D Co1 1_555 1_555
O1F Co1B 1_555 1_555
O1L K1 1_555 1_555
O2D Co2 1_555 1_555
O3D Co1 1_555 1_555
O3F Co1B 1_555 1_555
O4H K1 1_555 1_555
O6D Co1B 1_555 1_555
O6J K1 1_555 1_555
O7J Co2 1_555 1_555
O7N Co2 1_555 1_555
K1 O6B 1_555 1_555
K1 O1D 1_555 1_555
C6 O4 1_555 1_555
O1 Co1D 1_555 1_555
O3 Co1D 1_555 1_555
Co1B Co1F 1_555 1_555
Co1B O3D 1_555 1_555
C3B O3B 1_555 1_555
C6B O4B 1_555 1_555
O1B Co1F 1_555 1_555
O1B K1F 1_555 1_555
O3B Co1F 1_555 1_555
Co1D O3D 1_555 1_555
Co1D O3F 1_555 1_555
Co1F O3F 1_555 1_555
K1B O1F 1_555 1_555
K1B O6D 1_555 1_555

#END
