
#######################################################################
#
#                 Cambridge Crystallographic Data Centre
#                                CCDC 
#
#######################################################################
#
# If this CIF has been generated from an entry in the Cambridge 
# Structural Database, then it will include bibliographic, chemical, 
# crystal, experimental, refinement or atomic coordinate data resulting 
# from the CCDC's data processing and validation procedures.
#
#######################################################################

data_RAZXIA04
_chemical_formula_moiety         '(C12 H15 Co3 K1 O17)n'
_symmetry_cell_setting           tetragonal
_symmetry_space_group_name_H-M   'I -4 2 d'
_symmetry_Int_Tables_number      122
_space_group_name_Hall           'I -4 2bw'
loop_
_symmetry_equiv_pos_site_id
_symmetry_equiv_pos_as_xyz
1 x,y,z
2 1/2+x,1/2+y,1/2+z
3 y,-x,-z
4 1/2+y,1/2-x,1/2-z
5 -x,-y,z
6 1/2-x,1/2-y,1/2+z
7 -y,x,-z
8 1/2-y,1/2+x,1/2-z
9 1/2-x,y,3/4-z
10 -x,1/2+y,1/4-z
11 1/2-y,-x,3/4+z
12 -y,1/2-x,1/4+z
13 1/2+x,-y,3/4-z
14 x,1/2-y,1/4-z
15 1/2+y,x,3/4+z
16 y,1/2+x,1/4+z
_cell_length_a                   12.6111(5)
_cell_length_b                   12.6111(5)
_cell_length_c                   30.2999(11)
_cell_angle_alpha                90
_cell_angle_beta                 90
_cell_angle_gamma                90
_cell_volume                     4818.89
loop_
_atom_site_label
_atom_site_type_symbol
_atom_site_fract_x
_atom_site_fract_y
_atom_site_fract_z
_atom_site_U_iso_or_equiv
_atom_site_thermal_displace_type
Co1 Co 0.89434(16) 0.94719(16) 0.45954(5) 0.0204 Uani
Co2 Co 1.0000 1.0000 0.30964(7) 0.0279 Uani
K1 K 0.7500 0.8275(5) 0.3750 0.0393 Uani
C1 C 1.1095(13) 0.9143(12) 0.3788(4) 0.0227 Uani
C2 C 1.1575(13) 0.8344(14) 0.4097(4) 0.0277 Uani
C3 C 1.0839(12) 0.8048(12) 0.4493(4) 0.0183 Uani
C4 C 1.1491(14) 0.7300(13) 0.4775(4) 0.0273 Uani
C5 C 1.0915(13) 0.6763(13) 0.5134(4) 0.0210 Uani
C6 C 0.9821(14) 0.7477(14) 0.4322(4) 0.0277 Uani
O1 O 1.1108(9) 1.0099(9) 0.3911(2) 0.0250 Uani
O2 O 1.0722(9) 0.8876(9) 0.3427(3) 0.0267 Uani
O3 O 1.0598(9) 0.8979(8) 0.4715(2) 0.0240 Uani
O4 O 0.8937(9) 0.7924(9) 0.4383(3) 0.0240 Uani
O5 O 0.9944(11) 0.6604(10) 0.4169(4) 0.0493 Uani
O6 O 1.0440(10) 0.7341(9) 0.5423(3) 0.0357 Uani
O7 O 1.0877(11) 0.5759(9) 0.5153(3) 0.0427 Uani
H1 H 1.2244 0.8578 0.4207 0.0284 Uiso
H2 H 1.1654 0.7718 0.3932 0.0278 Uiso
H3 H 1.2037 0.7691 0.4906 0.0280 Uiso
H4 H 1.1788 0.6775 0.4594 0.0281 Uiso
O8 O 0.605(4) 0.703(4) 0.4205(14) 0.1030 Uiso
Co1B Co 0.94719(16) 1.10566(16) 0.54046(5) 0.0204 Uani
C1B C 0.9143(12) 0.8905(13) 0.6212(4) 0.0227 Uani
C2B C 0.8344(14) 0.8425(13) 0.5903(4) 0.0277 Uani
C3B C 0.8048(12) 0.9161(12) 0.5507(4) 0.0183 Uani
C4B C 0.7300(13) 0.8509(14) 0.5225(4) 0.0273 Uani
C5B C 0.6763(13) 0.9085(13) 0.4866(4) 0.0210 Uani
C6B C 0.7477(14) 1.0179(14) 0.5678(4) 0.0277 Uani
O1B O 1.0099(9) 0.8892(9) 0.6089(2) 0.0250 Uani
O2B O 0.8876(9) 0.9278(9) 0.6573(3) 0.0267 Uani
O3B O 0.8979(8) 0.9402(9) 0.5285(2) 0.0240 Uani
O4B O 0.7924(9) 1.1063(9) 0.5617(3) 0.0240 Uani
O5B O 0.6604(10) 1.0056(11) 0.5831(4) 0.0493 Uani
O6B O 0.7341(9) 0.9560(10) 0.4577(3) 0.0357 Uani
O7B O 0.5759(9) 0.9123(11) 0.4847(3) 0.0427 Uani
H1B H 0.8578 0.7756 0.5793 0.0284 Uiso
H2B H 0.7718 0.8346 0.6068 0.0278 Uiso
H3B H 0.7691 0.7963 0.5094 0.0280 Uiso
H4B H 0.6775 0.8212 0.5406 0.0281 Uiso
O8H O 0.895(4) 0.703(4) 0.3295(14) 0.1030 Uiso
Co1D Co 1.10566(16) 1.05281(16) 0.45954(5) 0.0204 Uani
Co1F Co 1.05281(16) 0.89434(16) 0.54046(5) 0.0204 Uani
Co2B Co 1.0000 1.0000 0.69036(7) 0.0279 Uani
Co2H Co 0.5000 1.0000 0.44036(7) 0.0279 Uani
Co2K Co 1.0000 0.5000 0.55964(7) 0.0279 Uani
K1B K 0.8275(5) 1.2500 0.6250 0.0393 Uani
K1D K 1.2500 1.1725(5) 0.3750 0.0393 Uani
K1F K 1.1725(5) 0.7500 0.6250 0.0393 Uani
O1D O 0.8892(9) 0.9901(9) 0.3911(2) 0.0250 Uani
O1F O 0.9901(9) 1.1108(9) 0.6089(2) 0.0250 Uani
O1L O 0.6108(9) 0.9901(9) 0.3589(2) 0.0250 Uani
O2D O 0.9278(9) 1.1124(9) 0.3427(3) 0.0267 Uani
O3D O 0.9402(9) 1.1021(8) 0.4715(2) 0.0240 Uani
O3F O 1.1021(8) 1.0598(9) 0.5285(2) 0.0240 Uani
O4H O 0.6063(9) 0.7924(9) 0.3117(3) 0.0240 Uani
O6D O 0.9560(10) 1.2659(9) 0.5423(3) 0.0357 Uani
O6J O 0.7659(9) 0.9560(10) 0.2923(3) 0.0357 Uani
O7J O 0.9241(9) 0.9123(11) 0.2653(3) 0.0427 Uani
O7N O 1.0759(9) 1.0877(11) 0.2653(3) 0.0427 Uani
O11 O 1.184(3) 0.438(3) 0.4607(11) 0.0830 Uiso
loop_
_atom_site_aniso_label
_atom_site_aniso_U_11
_atom_site_aniso_U_22
_atom_site_aniso_U_33
_atom_site_aniso_U_23
_atom_site_aniso_U_13
_atom_site_aniso_U_12
Co1 0.0224(12) 0.0228(12) 0.0159(8) 0.0000(7) 0.0009(7) -0.0010(12)
Co2 0.0230(18) 0.040(2) 0.0207(12) 0.0000 0.0000 -0.0024(19)
K1 0.039(4) 0.038(4) 0.041(2) 0.0000 -0.024(2) 0.0000
C1 0.017(8) 0.031(5) 0.020(4) 0.001(3) 0.009(4) 0.004(7)
C2 0.024(7) 0.037(7) 0.022(4) 0.007(4) 0.008(4) 0.002(6)
C3 0.013(5) 0.022(6) 0.020(5) -0.001(3) 0.003(3) 0.001(4)
C4 0.039(8) 0.022(6) 0.021(5) 0.003(4) -0.007(4) 0.000(5)
C5 0.028(9) 0.014(4) 0.021(5) -0.005(3) -0.007(4) -0.005(6)
C6 0.025(4) 0.035(6) 0.023(5) -0.004(4) -0.003(4) -0.008(4)
O1 0.021(6) 0.029(5) 0.025(4) 0.005(3) -0.001(4) -0.008(7)
O2 0.035(7) 0.026(5) 0.019(4) -0.001(3) 0.007(3) 0.010(6)
O3 0.041(7) 0.021(5) 0.010(3) -0.001(3) -0.001(3) 0.001(5)
O4 0.016(4) 0.036(6) 0.020(4) -0.006(3) -0.004(4) -0.016(5)
O5 0.039(8) 0.044(7) 0.065(7) -0.025(6) -0.019(6) -0.003(6)
O6 0.064(9) 0.024(5) 0.019(4) 0.003(3) -0.001(4) 0.018(7)
O7 0.077(11) 0.013(4) 0.038(5) 0.002(4) 0.010(5) 0.002(7)
Co1B 0.0228 0.0224 0.0159 0.0009 0 0.001
C1B 0.031 0.017 0.02 0.009 -0.001 -0.004
C2B 0.037 0.024 0.022 0.008 -0.007 -0.002
C3B 0.022 0.013 0.02 0.003 0.001 -0.001
C4B 0.022 0.039 0.021 -0.007 -0.003 0
C5B 0.014 0.028 0.021 -0.007 0.005 0.005
C6B 0.035 0.025 0.023 -0.003 0.004 0.008
O1B 0.029 0.021 0.025 -0.001 -0.005 0.008
O2B 0.026 0.035 0.019 0.007 0.001 -0.01
O3B 0.021 0.041 0.01 -0.001 0.001 -0.001
O4B 0.036 0.016 0.02 -0.004 0.006 0.016
O5B 0.044 0.039 0.065 -0.019 0.025 0.003
O6B 0.024 0.064 0.019 -0.001 -0.003 -0.018
O7B 0.013 0.077 0.038 0.01 -0.002 -0.002
Co1D 0.0224 0.0228 0.0159 0 -0.0009 -0.001
Co1F 0.0228 0.0224 0.0159 -0.0009 0 0.001
Co2B 0.04 0.023 0.0207 0 0 0.0024
Co2H 0.023 0.04 0.0207 0 0 0.0024
Co2K 0.04 0.023 0.0207 0 0 -0.0024
K1B 0.038 0.039 0.041 -0.024 0 0
K1D 0.039 0.038 0.041 0 0.024 0
K1F 0.038 0.039 0.041 0.024 0 0
O1D 0.021 0.029 0.025 -0.005 0.001 -0.008
O1F 0.029 0.021 0.025 0.001 0.005 0.008
O1L 0.021 0.029 0.025 0.005 0.001 0.008
O2D 0.035 0.026 0.019 0.001 -0.007 0.01
O3D 0.041 0.021 0.01 0.001 0.001 0.001
O3F 0.021 0.041 0.01 0.001 -0.001 -0.001
O4H 0.016 0.036 0.02 0.006 -0.004 0.016
O6D 0.064 0.024 0.019 -0.003 0.001 0.018
O6J 0.024 0.064 0.019 0.001 -0.003 0.018
O7J 0.013 0.077 0.038 -0.01 -0.002 0.002
O7N 0.013 0.077 0.038 0.01 0.002 0.002
loop_
_geom_bond_atom_site_label_1
_geom_bond_atom_site_label_2
_geom_bond_site_symmetry_1
_geom_bond_site_symmetry_2
Co1 O3 1_555 1_555
Co2 O2 1_555 1_555
K1 O4 1_555 1_555
C1 C2 1_555 1_555
C2 C3 1_555 1_555
C3 C4 1_555 1_555
C4 C5 1_555 1_555
C5 O6 1_555 1_555
C6 C3 1_555 1_555
O1 C1 1_555 1_555
O2 C1 1_555 1_555
O3 C3 1_555 1_555
O4 Co1 1_555 1_555
O5 C6 1_555 1_555
O6 Co1F 1_555 1_555
O7 C5 1_555 1_555
H1 C2 1_555 1_555
H2 C2 1_555 1_555
H3 C4 1_555 1_555
H4 C4 1_555 1_555
O8 K1 1_555 1_555
Co1B O3B 1_555 1_555
C1B C2B 1_555 1_555
C2B C3B 1_555 1_555
C3B C4B 1_555 1_555
C4B C5B 1_555 1_555
C5B O6B 1_555 1_555
C6B C3B 1_555 1_555
O1B C1B 1_555 1_555
O2B C1B 1_555 1_555
O3B Co1 1_555 1_555
O4B Co1B 1_555 1_555
O5B C6B 1_555 1_555
O6B Co1 1_555 1_555
O7B C5B 1_555 1_555
H1B C2B 1_555 1_555
H2B C2B 1_555 1_555
H3B C4B 1_555 1_555
H4B C4B 1_555 1_555
O8H K1 1_555 1_555
Co1D Co1 1_555 1_555
Co1F O3 1_555 1_555
Co2B O2B 1_555 1_555
Co2H O7B 1_555 1_555
Co2K O7 1_555 1_555
K1B O4B 1_555 1_555
K1D O1 1_555 1_555
K1F O6 1_555 1_555
O1D Co1 1_555 1_555
O1F Co1B 1_555 1_555
O1L K1 1_555 1_555
O2D Co2 1_555 1_555
O3D Co1 1_555 1_555
O3F Co1B 1_555 1_555
O4H K1 1_555 1_555
O6D Co1B 1_555 1_555
O6J K1 1_555 1_555
O7J Co2 1_555 1_555
O7N Co2 1_555 1_555
K1 O6B 1_555 1_555
K1 O1D 1_555 1_555
C6 O4 1_555 1_555
O1 Co1D 1_555 1_555
O3 Co1D 1_555 1_555
Co1B Co1F 1_555 1_555
Co1B O3D 1_555 1_555
C3B O3B 1_555 1_555
C6B O4B 1_555 1_555
O1B Co1F 1_555 1_555
O1B K1F 1_555 1_555
O3B Co1F 1_555 1_555
Co1D O3D 1_555 1_555
Co1D O3F 1_555 1_555
Co1F O3F 1_555 1_555
K1B O1F 1_555 1_555
K1B O6D 1_555 1_555

#END
