
#######################################################################
#
#                 Cambridge Crystallographic Data Centre
#                                CCDC 
#
#######################################################################
#
# If this CIF has been generated from an entry in the Cambridge 
# Structural Database, then it will include bibliographic, chemical, 
# crystal, experimental, refinement or atomic coordinate data resulting 
# from the CCDC's data processing and validation procedures.
#
#######################################################################

data_MAJHOW
_chemical_formula_moiety         '(C72 H76 Cu4 N8 O24)n'
_symmetry_cell_setting           monoclinic
_symmetry_space_group_name_H-M   'P 21/n'
_symmetry_Int_Tables_number      14
_space_group_name_Hall           '-P 2yn'
loop_
_symmetry_equiv_pos_site_id
_symmetry_equiv_pos_as_xyz
1 x,y,z
2 1/2-x,1/2+y,1/2-z
3 -x,-y,-z
4 1/2+x,1/2-y,1/2+z
_cell_length_a                   18.003(4)
_cell_length_b                   12.610(3)
_cell_length_c                   19.356(4)
_cell_angle_alpha                90
_cell_angle_beta                 104.370(3)
_cell_angle_gamma                90
_cell_volume                     4256.68
loop_
_atom_site_label
_atom_site_type_symbol
_atom_site_fract_x
_atom_site_fract_y
_atom_site_fract_z
Cu1 Cu 1.25151(4) -1.74280(6) 0.98953(4)
Cu2 Cu 1.2428(2) -1.2579(4) 0.96473(18)
O1 O 1.1838(2) -1.6248(3) 0.9971(2)
O2 O 1.1215(3) -1.7354(4) 1.0520(4)
O3 O 1.1928(3) -1.4048(4) 1.0737(3)
O4 O 1.1611(2) -1.3643(4) 0.9583(3)
O5 O 1.3219(2) -1.8573(4) 0.9830(2)
O6 O 1.3815(3) -1.7770(4) 0.9105(3)
O7 O 1.3270(2) -2.1526(4) 0.9902(3)
O8 O 1.3090(3) -2.0619(4) 0.8895(3)
O9 O 1.2319(3) -1.2586(5) 0.8437(3)
H1 H 1.1832 -1.2541 0.8463
H2 H 1.2427 -1.3255 0.8583
N1 N 0.8233(3) -2.1309(4) 0.4934(3)
N2 N 1.1952(3) -1.7538(4) 0.8861(3)
N3 N 1.3038(3) -1.7333(4) 1.0943(3)
N4 N 1.6649(3) -1.3566(4) 1.4571(3)
C1 C 0.8223(4) -2.0440(6) 0.4561(4)
H3 H 0.7858 -2.0385 0.4128
C2 C 0.8717(4) -1.9604(6) 0.4768(4)
H4 H 0.8691 -1.9014 0.4475
C3 C 0.9262(3) -1.9648(5) 0.5428(4)
C4 C 0.9269(4) -2.0581(5) 0.5821(4)
H5 H 0.9618 -2.0663 0.6261
C5 C 0.8756(4) -2.1372(6) 0.5551(4)
H6 H 0.8777 -2.1991 0.5816
C6 C 0.9798(3) -1.8734(5) 0.5684(4)
H7 H 0.9497 -1.8087 0.5625
H8 H 1.0148 -1.8680 0.5376
C7 C 1.0269(4) -1.8784(5) 0.6447(4)
H9 H 1.0595 -1.9407 0.6511
H10 H 0.9930 -1.8844 0.6764
C8 C 1.0761(4) -1.7797(6) 0.6634(4)
H11 H 1.0436 -1.7179 0.6505
H12 H 1.1134 -1.7788 0.6348
C9 C 1.1189(4) -1.7708(6) 0.7423(4)
C10 C 1.1188(4) -1.6803(6) 0.7794(4)
H13 H 1.0922 -1.6213 0.7573
C11 C 1.1579(4) -1.6754(6) 0.8498(4)
H14 H 1.1578 -1.6111 0.8733
C12 C 1.1575(4) -1.8590(6) 0.7795(4)
H15 H 1.1582 -1.9238 0.7567
C13 C 1.1940(3) -1.8465(6) 0.8501(4)
H16 H 1.2193 -1.9047 0.8747
C14 C 1.1275(4) -1.6487(5) 1.0230(4)
C15 C 1.0627(3) -1.5693(5) 1.0134(3)
C16 C 0.9892(3) -1.6059(5) 1.0091(3)
H17 H 0.9822 -1.6780 1.0154
C17 C 1.0732(3) -1.4589(5) 1.0040(3)
C18 C 1.1494(3) -1.4083(5) 1.0135(4)
C19 C 1.6748(4) -1.4445(6) 1.4946(4)
H18 H 1.7196 -1.4512 1.5307
C20 C 1.6237(4) -1.5268(6) 1.4843(4)
H19 H 1.6343 -1.5866 1.5132
C21 C 1.5567(4) -1.5216(5) 1.4314(4)
C22 C 1.5453(4) -1.4251(6) 1.3929(4)
H20 H 1.5005 -1.4150 1.3573
C23 C 1.5981(4) -1.3482(6) 1.4069(4)
H21 H 1.5882 -1.2856 1.3808
C24 C 1.4997(4) -1.6118(6) 1.4144(4)
H22 H 1.5261 -1.6772 1.4320
H23 H 1.4607 -1.6004 1.4403
C25 C 1.4623(4) -1.6257(6) 1.3398(4)
H24 H 1.5018 -1.6350 1.3142
H25 H 1.4355 -1.5604 1.3228
C26 C 1.4063(5) -1.7152(6) 1.3195(4)
H26 H 1.4327 -1.7811 1.3357
H27 H 1.3663 -1.7064 1.3446
C27 C 1.3703(4) -1.7243(6) 1.2427(4)
C28 C 1.3323(4) -1.6377(6) 1.2031(4)
H28 H 1.3298 -1.5740 1.2266
C29 C 1.2987(4) -1.6438(6) 1.1310(4)
H29 H 1.2722 -1.5856 1.1074
C30 C 1.3748(4) -1.8151(6) 1.2027(4)
H30 H 1.3997 -1.8752 1.2249
C31 C 1.3422(4) -1.8156(6) 1.1298(4)
H31 H 1.3472 -1.8764 1.1042
C32 C 1.3756(3) -1.8500(5) 0.9521(4)
C33 C 1.4387(3) -1.9304(5) 0.9740(3)
C34 C 1.5131(3) -1.8945(5) 0.9935(4)
H32 H 1.5224 -1.8227 0.9887
C35 C 1.4246(3) -2.0382(5) 0.9797(4)
C36 C 1.3465(4) -2.0867(6) 0.9495(5)
Cu1B Cu 0.74849(4) -1.25720(6) 1.01047(4)
Cu1B_2 Cu 1.74849(4) -2.25720(6) 1.01047(4)
Cu1C Cu 0.75151(4) -0.75720(6) 0.48953(4)
Cu1C_2 Cu 1.75151(4) -1.75720(6) 1.48953(4)
Cu2B Cu 0.7572(2) -1.7421(4) 1.03527(18)
Cu2_2 Cu 1.2428(2) -2.2579(4) 0.96473(18)
Cu2C Cu 0.7428(2) -2.2421(4) 0.46473(18)
Cu2C_2 Cu 1.7428(2) -1.2421(4) 1.46473(18)
Cu2B_2 Cu 1.7572(2) -1.7421(4) 1.03527(18)
O1B O 0.8162(2) -1.3752(3) 1.0029(2)
O2B O 0.8785(3) -1.2646(4) 0.9480(4)
O3B O 0.8072(3) -1.5952(4) 0.9263(3)
O4B O 0.8389(2) -1.6357(4) 1.0417(3)
O5B O 1.6781(2) -2.1427(4) 1.0170(2)
O5B_2 O 0.6781(2) -1.1427(4) 1.0170(2)
O6B O 1.6185(3) -2.2230(4) 1.0895(3)
O7B O 1.6730(2) -1.8474(4) 1.0098(3)
O7_2 O 1.3270(2) -1.1526(4) 0.9902(3)
O7B_2 O 0.6730(2) -1.8474(4) 1.0098(3)
O8B O 1.6910(3) -1.9381(4) 1.1105(3)
O9B O 0.7681(3) -1.7414(5) 1.1563(3)
H1B H 0.8168 -1.7459 1.1537
H2B H 0.7573 -1.6745 1.1417
N1C N 1.3233(3) -1.3691(4) 0.9934(3)
N1A N 0.6767(3) -1.6309(4) 1.0066(3)
N2C N 1.6952(3) -1.7462(4) 1.3861(3)
N2B N 0.8048(3) -1.2462(4) 1.1139(3)
N3C N 0.8038(3) -0.7667(4) 0.5943(3)
N3B N 0.6962(3) -1.2667(4) 0.9057(3)
N4C N 1.1649(3) -1.1434(4) 0.9571(3)
N4A N 0.8351(3) -1.8566(4) 1.0429(3)
C1C C 1.3223(4) -1.4560(6) 0.9561(4)
H3C H 1.2858 -1.4615 0.9128
C2C C 1.3717(4) -1.5396(6) 0.9768(4)
H4C H 1.3691 -1.5986 0.9475
C3C C 1.4262(3) -1.5352(5) 1.0428(4)
C4C C 1.4269(4) -1.4419(5) 1.0821(4)
H5C H 1.4618 -1.4337 1.1261
C5C C 1.3756(4) -1.3628(6) 1.0551(4)
H6C H 1.3777 -1.3009 1.0816
C6C C 1.4798(3) -1.6266(5) 1.0684(4)
H7C H 1.4497 -1.6913 1.0625
H8C H 1.5148 -1.6320 1.0376
C7C C 1.5269(4) -1.6216(5) 1.1447(4)
H9C H 1.5595 -1.5593 1.1511
H10C H 1.4930 -1.6156 1.1764
C8C C 1.5761(4) -1.7203(6) 1.1634(4)
H11C H 1.5436 -1.7821 1.1505
H12C H 1.6134 -1.7212 1.1348
C9C C 1.6189(4) -1.7292(6) 1.2423(4)
C10C C 1.6188(4) -1.8197(6) 1.2794(4)
H13C H 1.5922 -1.8787 1.2573
C11C C 1.6579(4) -1.8246(6) 1.3498(4)
H14C H 1.6578 -1.8889 1.3733
C12C C 1.6575(4) -1.6410(6) 1.2795(4)
H15C H 1.6582 -1.5762 1.2567
C13C C 1.6940(3) -1.6535(6) 1.3501(4)
H16C H 1.7193 -1.5953 1.3747
C14B C 0.8725(4) -1.3513(5) 0.9770(4)
C15B C 0.9373(3) -1.4307(5) 0.9866(3)
C16B C 1.0108(3) -1.3941(5) 0.9909(3)
H17B H 1.0178 -1.3220 0.9846
C17B C 0.9268(3) -1.5411(5) 0.9960(3)
C18B C 0.8506(3) -1.5917(5) 0.9865(4)
C19C C 1.1748(4) -1.0555(6) 0.9946(4)
H18C H 1.2196 -1.0488 1.0307
C20C C 1.1237(4) -0.9732(6) 0.9843(4)
H19C H 1.1343 -0.9134 1.0132
C21C C 1.0567(4) -0.9784(5) 0.9314(4)
C22C C 1.0453(4) -1.0749(6) 0.8929(4)
H20C H 1.0005 -1.0850 0.8573
C23C C 1.0981(4) -1.1518(6) 0.9069(4)
H21C H 1.0882 -1.2144 0.8808
C24C C 0.9997(4) -0.8882(6) 0.9144(4)
H22C H 1.0261 -0.8228 0.9320
H23C H 0.9607 -0.8996 0.9403
C25C C 0.9623(4) -0.8743(6) 0.8398(4)
H24C H 1.0018 -0.8650 0.8142
H25C H 0.9355 -0.9396 0.8228
C26C C 0.9063(5) -0.7848(6) 0.8195(4)
H26C H 0.9327 -0.7189 0.8357
H27C H 0.8663 -0.7936 0.8446
C27C C 0.8703(4) -0.7757(6) 0.7427(4)
C28C C 0.8323(4) -0.8623(6) 0.7031(4)
H28C H 0.8298 -0.9260 0.7266
C29C C 0.7987(4) -0.8562(6) 0.6310(4)
H29C H 0.7722 -0.9144 0.6074
C30C C 0.8748(4) -0.6849(6) 0.7027(4)
H30C H 0.8997 -0.6248 0.7249
C31C C 0.8422(4) -0.6844(6) 0.6298(4)
H31C H 0.8472 -0.6236 0.6042
C32B C 1.6244(3) -2.1500(5) 1.0479(4)
C33B C 1.5613(3) -2.0696(5) 1.0260(3)
C34B C 1.4869(3) -2.1055(5) 1.0065(4)
H32B H 1.4776 -2.1773 1.0113
C35B C 1.5754(3) -1.9618(5) 1.0203(4)
C36B C 1.6535(4) -1.9133(6) 1.0505(5)
O10 O 0.7118(5) -1.7128(8) 0.8146(5)
H33 H 0.7412 -1.7428 0.8582
H34 H 0.7438 -1.6721 0.8001
O11 O 0.9471(7) -1.5716(7) 1.1768(5)
H35 H 0.9289 -1.5810 1.1266
H36 H 0.9823 -1.6162 1.1732
O12 O 1.1653(6) -1.8778(11) 1.1720(6)
H37 H 1.1711 -1.8004 1.1819
H38 H 1.1204 -1.8977 1.1820
O13 O 1.2020(13) -2.5629(9) 1.3280(8)
H39 H 1.2306 -2.6066 1.3590
H40 H 1.2319 -2.5503 1.3088
O14 O 0.8660(8) -1.4837(9) 0.8130(6)
H41 H 0.8780 -1.4166 0.8317
H42 H 0.8542 -1.5190 0.8447
O15 O 0.5410(10) -1.7177(14) 0.7639(8)
H43 H 0.4953 -1.6936 0.7688
H44 H 0.5787 -1.6748 0.7761
loop_
_geom_bond_atom_site_label_1
_geom_bond_atom_site_label_2
_geom_bond_site_symmetry_1
_geom_bond_site_symmetry_2
Cu1 O1 1_555 1_555
Cu2 O4 1_555 1_555
O1 C14 1_555 1_555
O2 C14 1_555 1_555
O3 C18 1_555 1_555
O4 C18 1_555 1_555
O5 Cu1 1_555 1_555
O6 C32 1_555 1_555
O7 C36 1_555 1_555
O8 C36 1_555 1_555
O9 Cu2 1_555 1_555
H1 O9 1_555 1_555
H2 O9 1_555 1_555
N1 C1 1_555 1_555
N2 Cu1 1_555 1_555
N3 Cu1 1_555 1_555
N4 C19 1_555 1_555
C1 H3 1_555 1_555
C2 C1 1_555 1_555
H4 C2 1_555 1_555
C3 C2 1_555 1_555
C4 C3 1_555 1_555
H5 C4 1_555 1_555
C5 N1 1_555 1_555
H6 C5 1_555 1_555
C6 C3 1_555 1_555
H7 C6 1_555 1_555
H8 C6 1_555 1_555
C7 C6 1_555 1_555
H9 C7 1_555 1_555
H10 C7 1_555 1_555
C8 C7 1_555 1_555
H11 C8 1_555 1_555
H12 C8 1_555 1_555
C9 C8 1_555 1_555
C10 C9 1_555 1_555
H13 C10 1_555 1_555
C11 N2 1_555 1_555
H14 C11 1_555 1_555
C12 C9 1_555 1_555
H15 C12 1_555 1_555
C13 N2 1_555 1_555
H16 C13 1_555 1_555
C14 C15 1_555 1_555
C15 C16 1_555 1_555
C16 H17 1_555 1_555
C17 C15 1_555 1_555
C18 C17 1_555 1_555
C19 H18 1_555 1_555
C20 C19 1_555 1_555
H19 C20 1_555 1_555
C21 C20 1_555 1_555
C22 C21 1_555 1_555
H20 C22 1_555 1_555
C23 N4 1_555 1_555
H21 C23 1_555 1_555
C24 C21 1_555 1_555
H22 C24 1_555 1_555
H23 C24 1_555 1_555
C25 C24 1_555 1_555
H24 C25 1_555 1_555
H25 C25 1_555 1_555
C26 C25 1_555 1_555
H26 C26 1_555 1_555
H27 C26 1_555 1_555
C27 C26 1_555 1_555
C28 C27 1_555 1_555
H28 C28 1_555 1_555
C29 N3 1_555 1_555
H29 C29 1_555 1_555
C30 C27 1_555 1_555
H30 C30 1_555 1_555
C31 N3 1_555 1_555
H31 C31 1_555 1_555
C32 O5 1_555 1_555
C33 C32 1_555 1_555
C34 C33 1_555 1_555
H32 C34 1_555 1_555
C35 C33 1_555 1_555
C36 C35 1_555 1_555
O10 H33 1_555 1_555
H34 O10 1_555 1_555
O11 H35 1_555 1_555
H36 O11 1_555 1_555
O12 H37 1_555 1_555
H38 O12 1_555 1_555
O13 H39 1_555 1_555
H40 O13 1_555 1_555
O14 H41 1_555 1_555
H42 O14 1_555 1_555
O15 H43 1_555 1_555
H44 O15 1_555 1_555
Cu1B O1B 1_555 1_555
Cu1B_2 O5B 1_555 1_555
Cu1C N3C 1_555 1_555
Cu1C_2 N2C 1_555 1_555
Cu2B O4B 1_555 1_555
Cu2_2 O7 1_555 1_555
Cu2C N1 1_555 1_555
Cu2C_2 N4 1_555 1_555
Cu2B_2 O7B 1_555 1_555
O1B C14B 1_555 1_555
O2B C14B 1_555 1_555
O3B C18B 1_555 1_555
O4B C18B 1_555 1_555
O5B C32B 1_555 1_555
O5B_2 Cu1B 1_555 1_555
O6B C32B 1_555 1_555
O7B C36B 1_555 1_555
O7_2 Cu2 1_555 1_555
O7B_2 Cu2B 1_555 1_555
O8B C36B 1_555 1_555
O9B Cu2B 1_555 1_555
H1B O9B 1_555 1_555
H2B O9B 1_555 1_555
N1C Cu2 1_555 1_555
N1A Cu2B 1_555 1_555
N2C C11C 1_555 1_555
N2B Cu1B 1_555 1_555
N3C C29C 1_555 1_555
N3B Cu1B 1_555 1_555
N4C Cu2 1_555 1_555
N4A Cu2B 1_555 1_555
C1C N1C 1_555 1_555
H3C C1C 1_555 1_555
C2C C1C 1_555 1_555
H4C C2C 1_555 1_555
C3C C2C 1_555 1_555
C4C C3C 1_555 1_555
H5C C4C 1_555 1_555
C5C N1C 1_555 1_555
H6C C5C 1_555 1_555
C6C C3C 1_555 1_555
H7C C6C 1_555 1_555
H8C C6C 1_555 1_555
C7C C6C 1_555 1_555
H9C C7C 1_555 1_555
H10C C7C 1_555 1_555
C8C C7C 1_555 1_555
H11C C8C 1_555 1_555
H12C C8C 1_555 1_555
C9C C8C 1_555 1_555
C10C C9C 1_555 1_555
H13C C10C 1_555 1_555
C11C C10C 1_555 1_555
H14C C11C 1_555 1_555
C12C C9C 1_555 1_555
H15C C12C 1_555 1_555
C13C N2C 1_555 1_555
H16C C13C 1_555 1_555
C14B C15B 1_555 1_555
C15B C16B 1_555 1_555
C16B C17 1_555 1_555
H17B C16B 1_555 1_555
C17B C16 1_555 1_555
C18B C17B 1_555 1_555
C19C N4C 1_555 1_555
H18C C19C 1_555 1_555
C20C C19C 1_555 1_555
H19C C20C 1_555 1_555
C21C C20C 1_555 1_555
C22C C21C 1_555 1_555
H20C C22C 1_555 1_555
C23C N4C 1_555 1_555
H21C C23C 1_555 1_555
C24C C21C 1_555 1_555
H22C C24C 1_555 1_555
H23C C24C 1_555 1_555
C25C C24C 1_555 1_555
H24C C25C 1_555 1_555
H25C C25C 1_555 1_555
C26C C25C 1_555 1_555
H26C C26C 1_555 1_555
H27C C26C 1_555 1_555
C27C C26C 1_555 1_555
C28C C27C 1_555 1_555
H28C C28C 1_555 1_555
C29C C28C 1_555 1_555
H29C C29C 1_555 1_555
C30C C27C 1_555 1_555
H30C C30C 1_555 1_555
C31C N3C 1_555 1_555
H31C C31C 1_555 1_555
C32B C33B 1_555 1_555
C33B C34B 1_555 1_555
C34B C35 1_555 1_555
H32B C34B 1_555 1_555
C35B C34 1_555 1_555
C36B C35B 1_555 1_555
C4 C5 1_555 1_555
C10 C11 1_555 1_555
C12 C13 1_555 1_555
C22 C23 1_555 1_555
C28 C29 1_555 1_555
C30 C31 1_555 1_555
C4C C5C 1_555 1_555
C12C C13C 1_555 1_555
C15B C17B 1_555 1_555
C22C C23C 1_555 1_555
C30C C31C 1_555 1_555
C33B C35B 1_555 1_555

#END
