
#######################################################################
#
#                 Cambridge Crystallographic Data Centre
#                                CCDC 
#
#######################################################################
#
# If this CIF has been generated from an entry in the Cambridge 
# Structural Database, then it will include bibliographic, chemical, 
# crystal, experimental, refinement or atomic coordinate data resulting 
# from the CCDC's data processing and validation procedures.
#
#######################################################################

data_DACXUB
_chemical_formula_moiety         '(C72 H42 Ho2 N4 O16)n'
_symmetry_cell_setting           triclinic
_symmetry_space_group_name_H-M   'P -1'
_symmetry_Int_Tables_number      2
_space_group_name_Hall           '-P 1'
loop_
_symmetry_equiv_pos_site_id
_symmetry_equiv_pos_as_xyz
1 x,y,z
2 -x,-y,-z
_cell_length_a                   10.802(6)
_cell_length_b                   12.143(6)
_cell_length_c                   12.245(7)
_cell_angle_alpha                94.031(11)
_cell_angle_beta                 106.641(9)
_cell_angle_gamma                101.356(9)
_cell_volume                     1494.98
loop_
_atom_site_label
_atom_site_type_symbol
_atom_site_fract_x
_atom_site_fract_y
_atom_site_fract_z
Ho1 Ho 0.08300(3) -0.19034(3) -0.00188(3)
O1 O 0.0680(5) -0.0656(4) 0.1333(4)
O2 O -0.0456(5) 0.0671(4) 0.1283(4)
O3 O -0.0091(6) -0.3376(5) -0.1549(5)
O4 O 0.1913(5) -0.2485(4) -0.1384(4)
O5 O -0.0380(5) -0.3185(4) 0.0866(4)
O6 O -0.1567(5) -0.2300(4) -0.0387(4)
N1 N 0.3142(6) -0.0732(5) 0.0803(5)
N2 N 0.2424(5) -0.2891(5) 0.1202(5)
C1 C 0.0084(7) -0.0060(6) 0.1766(6)
C2 C 0.0065(6) -0.0207(6) 0.2967(5)
C3 C 0.0152(7) -0.1264(6) 0.3349(6)
H2 H 0.0219 -0.1859 0.2864
C4 C 0.0136(8) -0.1403(6) 0.4439(6)
H3 H 0.0186 -0.2104 0.4687
C5 C 0.0045(7) -0.0528(5) 0.5196(6)
C6 C -0.0052(7) 0.0650(6) 0.3665(6)
H4 H -0.0138 0.1335 0.3391
C7 C 0.0880(8) -0.3175(6) -0.1933(7)
C8 C 0.0750(7) -0.3766(6) -0.3092(6)
C9 C -0.0384(8) -0.4523(6) -0.3681(7)
H5 H -0.1079 -0.4667 -0.3368
C10 C -0.0525(7) -0.5103(6) -0.4776(6)
C11 C -0.1681(8) -0.5905(7) -0.5404(7)
H6 H -0.2384 -0.6065 -0.5101
C12 C 0.1793(7) -0.3551(7) -0.3564(6)
H7 H 0.2572 -0.3026 -0.3161
C13 C -0.1497(7) -0.3061(6) 0.0273(6)
C14 C -0.2703(7) -0.3810(6) 0.0358(6)
C15 C -0.3912(7) -0.3826(6) -0.0394(7)
H8 H -0.3982 -0.3305 -0.0918
C16 C -0.5052(7) -0.4610(6) -0.0397(6)
C17 C -0.6309(8) -0.4649(7) -0.1161(8)
H9 H -0.6397 -0.4131 -0.1686
C18 C -0.2609(7) -0.4587(6) 0.1157(7)
H10 H -0.1793 -0.4573 0.1688
C19 C 0.3481(8) 0.0328(7) 0.0641(7)
H11 H 0.2827 0.0667 0.0226
C20 C 0.4783(9) 0.0966(7) 0.1065(8)
H12 H 0.4992 0.1714 0.0928
C21 C 0.5744(9) 0.0479(8) 0.1682(8)
H13 H 0.6618 0.0893 0.1970
C22 C 0.5417(8) -0.0629(7) 0.1881(7)
C23 C 0.6366(9) -0.1190(9) 0.2544(9)
H14 H 0.7243 -0.0796 0.2869
C24 C 0.6015(9) -0.2267(8) 0.2705(9)
H15 H 0.6660 -0.2623 0.3107
C25 C 0.4684(8) -0.2876(7) 0.2278(7)
C26 C 0.4248(9) -0.3986(7) 0.2494(8)
H16 H 0.4853 -0.4358 0.2929
C27 C 0.2962(9) -0.4505(7) 0.2074(8)
H17 H 0.2668 -0.5241 0.2208
C28 C 0.2077(8) -0.3937(6) 0.1439(7)
H18 H 0.1187 -0.4308 0.1160
C29 C 0.3717(7) -0.2343(6) 0.1638(6)
C30 C 0.4103(7) -0.1209(6) 0.1415(6)
O2A O 0.0456(5) -0.0671(4) -0.1283(4)
Ho1A Ho -0.08300(3) 0.19034(3) 0.00188(3)
C16A C -0.4948(7) -0.5390(6) 0.0397(6)
C15A C -0.6088(7) -0.6174(6) 0.0394(7)
C14A C -0.7297(7) -0.6190(6) -0.0358(6)
C13A C -0.8503(7) -0.6939(6) -0.0273(6)
O5A O -0.9620(5) -0.6815(4) -0.0866(4)
Ho1A_2 Ho -1.08300(3) -0.80966(3) 0.00188(3)
O1A O -1.0680(5) -0.9344(4) -0.1333(4)
O2_2 O -1.0456(5) -0.9329(4) 0.1283(4)
O3A O -0.9909(6) -0.6624(5) 0.1549(5)
O4A O -1.1913(5) -0.7515(4) 0.1384(4)
O6A O -0.8433(5) -0.7700(4) 0.0387(4)
N1A N -1.3142(6) -0.9268(5) -0.0803(5)
C19A C -1.3481(8) -1.0328(7) -0.0641(7)
H11A H -1.2827 -1.0667 -0.0226
C20A C -1.4783(9) -1.0966(7) -0.1065(8)
H12A H -1.4992 -1.1714 -0.0928
C21A C -1.5744(9) -1.0479(8) -0.1682(8)
H13A H -1.6618 -1.0893 -0.1970
C22A C -1.5417(8) -0.9371(7) -0.1881(7)
C23A C -1.6366(9) -0.8810(9) -0.2544(9)
H14A H -1.7243 -0.9204 -0.2869
C24A C -1.6015(9) -0.7733(8) -0.2705(9)
H15A H -1.6660 -0.7377 -0.3107
C25A C -1.4684(8) -0.7124(7) -0.2278(7)
C26A C -1.4248(9) -0.6014(7) -0.2494(8)
H16A H -1.4853 -0.5642 -0.2929
C27A C -1.2962(9) -0.5495(7) -0.2074(8)
H17A H -1.2668 -0.4759 -0.2208
C28A C -1.2077(8) -0.6063(6) -0.1439(7)
N2A N -1.2424(5) -0.7109(5) -0.1202(5)
C29A C -1.3717(7) -0.7657(6) -0.1638(6)
C30A C -1.4103(7) -0.8791(6) -0.1415(6)
H18A H -1.1187 -0.5692 -0.1160
C18A C -0.7391(7) -0.5413(6) -0.1157(7)
H10A H -0.8207 -0.5427 -0.1688
H8A H -0.6018 -0.6695 0.0918
C17A C -0.3691(8) -0.5351(7) 0.1161(8)
H9A H -0.3603 -0.5869 0.1686
C5A C -0.0045(7) 0.0528(5) 0.4804(6)
C4A C -0.0136(8) 0.1403(6) 0.5561(6)
C6A C 0.0052(7) -0.0650(6) 0.6335(6)
C10A C 0.0525(7) -0.4897(6) -0.5224(6)
C9A C 0.0384(8) -0.5477(6) -0.6319(7)
C11A C 0.1681(8) -0.4095(7) -0.4596(7)
C12A C -0.1793(7) -0.6449(7) -0.6436(6)
C3A C -0.0152(7) 0.1264(6) 0.6651(6)
H3A H -0.0186 0.2104 0.5313
C2A C -0.0065(6) 0.0207(6) 0.7033(5)
H4A H 0.0138 -0.1335 0.6609
C8A C -0.0750(7) -0.6234(6) -0.6908(6)
H5A H 0.1079 -0.5333 -0.6632
H6A H 0.2384 -0.3935 -0.4899
H7A H -0.2572 -0.6974 -0.6839
H2A H -0.0219 0.1859 0.7136
C1A C -0.0084(7) 0.0060(6) 0.8234(6)
C7A C -0.0880(8) -0.6825(6) -0.8067(7)
O1A_2 O -0.0680(5) 0.0656(4) 0.8667(4)
O2A_2 O 0.0456(5) -0.0671(4) 0.8717(4)
O3A_2 O 0.0091(6) -0.6624(5) -0.8451(5)
O4A_2 O -0.1913(5) -0.7515(4) -0.8616(4)
Ho1A_3 Ho -0.08300(3) 0.19034(3) 1.00188(3)
Ho1_2 Ho 0.08300(3) -0.19034(3) 0.99812(3)
Ho1A_4 Ho -0.08300(3) -0.80966(3) -0.99812(3)
O7 O 0.2508(7) -0.8171(5) 0.2516(6)
H1 H 0.2223 -0.7747 0.2063
O8 O 0.4179(7) -0.6713(6) 0.3192(7)
C31 C 0.3664(9) -0.7652(8) 0.3214(8)
C32 C 0.4277(8) -0.8405(7) 0.4002(7)
C33 C 0.3762(8) -0.9523(6) 0.3872(7)
H19 H 0.2959 -0.9829 0.3305
C34 C 0.4396(7) -1.0242(6) 0.4565(6)
C35 C 0.3877(8) -1.1418(7) 0.4444(7)
H20 H 0.3075 -1.1749 0.3885
C36 C 0.5471(9) -0.7941(7) 0.4872(8)
H21 H 0.5818 -0.7163 0.4976
C34A C 0.5604(7) -0.9758(6) 0.5435(6)
C33A C 0.6238(8) -1.0477(6) 0.6128(7)
C32A C 0.5723(8) -1.1595(7) 0.5998(7)
C31A C 0.6336(9) -1.2348(8) 0.6786(8)
O7A O 0.7492(7) -1.1829(5) 0.7484(6)
H1A H 0.7777 -1.2253 0.7937
O8A O 0.5821(7) -1.3287(6) 0.6808(7)
C36A C 0.4529(9) -1.2059(7) 0.5128(8)
H21A H 0.4182 -1.2837 0.5024
H19A H 0.7041 -1.0171 0.6695
C35A C 0.6123(8) -0.8582(7) 0.5556(7)
H20A H 0.6925 -0.8251 0.6115
loop_
_geom_bond_atom_site_label_1
_geom_bond_atom_site_label_2
_geom_bond_site_symmetry_1
_geom_bond_site_symmetry_2
Ho1 O1 1_555 1_555
O1 C1 1_555 1_555
O2 C1 1_555 1_555
O3 Ho1 1_555 1_555
O4 Ho1 1_555 1_555
O5 Ho1 1_555 1_555
O6 Ho1 1_555 1_555
O7 H1 1_555 1_555
O8 C31 1_555 1_555
N1 Ho1 1_555 1_555
N2 Ho1 1_555 1_555
C1 C2 1_555 1_555
C2 C3 1_555 1_555
C3 H2 1_555 1_555
C4 C3 1_555 1_555
H3 C4 1_555 1_555
C5 C4 1_555 1_555
C6 C2 1_555 1_555
H4 C6 1_555 1_555
C7 O3 1_555 1_555
C8 C7 1_555 1_555
C9 C8 1_555 1_555
H5 C9 1_555 1_555
C10 C9 1_555 1_555
C11 C10 1_555 1_555
H6 C11 1_555 1_555
C12 C8 1_555 1_555
H7 C12 1_555 1_555
C13 O5 1_555 1_555
C14 C13 1_555 1_555
C15 C14 1_555 1_555
H8 C15 1_555 1_555
C16 C15 1_555 1_555
C17 C16 1_555 1_555
H9 C17 1_555 1_555
C18 C14 1_555 1_555
H10 C18 1_555 1_555
C19 N1 1_555 1_555
H11 C19 1_555 1_555
C20 C19 1_555 1_555
H12 C20 1_555 1_555
C21 C20 1_555 1_555
H13 C21 1_555 1_555
C22 C21 1_555 1_555
C23 C22 1_555 1_555
H14 C23 1_555 1_555
C24 C23 1_555 1_555
H15 C24 1_555 1_555
C25 C24 1_555 1_555
C26 C25 1_555 1_555
H16 C26 1_555 1_555
C27 C26 1_555 1_555
H17 C27 1_555 1_555
C28 N2 1_555 1_555
H18 C28 1_555 1_555
C29 N2 1_555 1_555
C30 N1 1_555 1_555
C31 O7 1_555 1_555
C32 C31 1_555 1_555
C33 C32 1_555 1_555
H19 C33 1_555 1_555
C34 C33 1_555 1_555
C35 C34 1_555 1_555
H20 C35 1_555 1_555
C36 C32 1_555 1_555
H21 C36 1_555 1_555
O2A Ho1 1_555 1_555
Ho1A O2 1_555 1_555
C16A C16 1_555 1_555
C15A C16A 1_555 1_555
C14A C15A 1_555 1_555
C13A C14A 1_555 1_555
O5A C13A 1_555 1_555
Ho1A_2 O5A 1_555 1_555
O1A Ho1A_2 1_555 1_555
O2_2 Ho1A_2 1_555 1_555
O3A Ho1A_2 1_555 1_555
O4A Ho1A_2 1_555 1_555
O6A C13A 1_555 1_555
N1A Ho1A_2 1_555 1_555
C19A N1A 1_555 1_555
H11A C19A 1_555 1_555
C20A C19A 1_555 1_555
H12A C20A 1_555 1_555
C21A C20A 1_555 1_555
H13A C21A 1_555 1_555
C22A C21A 1_555 1_555
C23A C22A 1_555 1_555
H14A C23A 1_555 1_555
C24A C23A 1_555 1_555
H15A C24A 1_555 1_555
C25A C24A 1_555 1_555
C26A C25A 1_555 1_555
H16A C26A 1_555 1_555
C27A C26A 1_555 1_555
H17A C27A 1_555 1_555
C28A C27A 1_555 1_555
N2A Ho1A_2 1_555 1_555
C29A C25A 1_555 1_555
C30A N1A 1_555 1_555
H18A C28A 1_555 1_555
C18A C17 1_555 1_555
H10A C18A 1_555 1_555
H8A C15A 1_555 1_555
C17A C18 1_555 1_555
H9A C17A 1_555 1_555
C34A C34 1_555 1_555
C33A C34A 1_555 1_555
C32A C33A 1_555 1_555
C31A C32A 1_555 1_555
O7A C31A 1_555 1_555
H1A O7A 1_555 1_555
O8A C31A 1_555 1_555
C36A C35 1_555 1_555
H21A C36A 1_555 1_555
H19A C33A 1_555 1_555
C35A C36 1_555 1_555
H20A C35A 1_555 1_555
C5A C5 1_555 1_555
C4A C5A 1_555 1_555
C6A C5 1_555 1_555
C10A C10 1_555 1_555
C9A C10A 1_555 1_555
C11A C12 1_555 1_555
C12A C11 1_555 1_555
C3A C4A 1_555 1_555
H3A C4A 1_555 1_555
C2A C6A 1_555 1_555
H4A C6A 1_555 1_555
C8A C9A 1_555 1_555
H5A C9A 1_555 1_555
H6A C11A 1_555 1_555
H7A C12A 1_555 1_555
H2A C3A 1_555 1_555
C1A C2A 1_555 1_555
C7A C8A 1_555 1_555
O1A_2 C1A 1_555 1_555
O2A_2 C1A 1_555 1_555
O3A_2 C7A 1_555 1_555
O4A_2 C7A 1_555 1_555
Ho1A_3 O1A_2 1_555 1_555
Ho1_2 O2A_2 1_555 1_555
Ho1A_4 O3A_2 1_555 1_555
O4 C7 1_555 1_555
O6 C13 1_555 1_555
C6 C5A 1_555 1_555
C22 C30 1_555 1_555
C25 C29 1_555 1_555
C27 C28 1_555 1_555
C29 C30 1_555 1_555
C16A C17A 1_555 1_555
C14A C18A 1_555 1_555
Ho1A_2 O6A 1_555 1_555
C22A C30A 1_555 1_555
C28A N2A 1_555 1_555
N2A C29A 1_555 1_555
C29A C30A 1_555 1_555
C34A C35A 1_555 1_555
C32A C36A 1_555 1_555
C10A C11A 1_555 1_555
C12A C8A 1_555 1_555
C3A C2A 1_555 1_555
O4A_2 Ho1A_4 1_555 1_555

#END
