
#######################################################################
#
#                 Cambridge Crystallographic Data Centre
#                                CCDC 
#
#######################################################################
#
# If this CIF has been generated from an entry in the Cambridge 
# Structural Database, then it will include bibliographic, chemical, 
# crystal, experimental, refinement or atomic coordinate data resulting 
# from the CCDC's data processing and validation procedures.
#
#######################################################################

data_ETEXEI01
_chemical_formula_moiety         '(C5 H11 N2 O12 P4 Zn3 1-)n'
_symmetry_cell_setting           monoclinic
_symmetry_space_group_name_H-M   'C 2/c'
_symmetry_Int_Tables_number      15
_space_group_name_Hall           '-C 2yc'
loop_
_symmetry_equiv_pos_site_id
_symmetry_equiv_pos_as_xyz
1 x,y,z
2 -x,y,1/2-z
3 1/2+x,1/2+y,z
4 1/2-x,1/2+y,1/2-z
5 -x,-y,-z
6 x,-y,1/2+z
7 1/2-x,1/2-y,-z
8 1/2+x,1/2-y,1/2+z
_cell_length_a                   10.51300(10)
_cell_length_b                   15.6170(3)
_cell_length_c                   13.8950(5)
_cell_angle_alpha                90
_cell_angle_beta                 97.014(3)
_cell_angle_gamma                90
_cell_volume                     2264.23
loop_
_atom_site_label
_atom_site_type_symbol
_atom_site_fract_x
_atom_site_fract_y
_atom_site_fract_z
Zn1 Zn 0.03326(3) 0.08550(2) 0.39017(2)
O1 O 0.1223(2) 0.10652(14) 0.51985(15)
O2 O 0.1726(2) 0.11098(15) 0.31218(16)
O3 O -0.1280(2) 0.14405(16) 0.36587(17)
O4 O 0.0282(2) -0.03796(13) 0.37295(17)
P1 P 0.07053(8) 0.10694(5) 0.61767(6)
P2 P 0.20793(8) 0.16557(5) 0.22902(6)
O5 O 0.0208(2) 0.19556(13) 0.63831(16)
H1 H 0.1698 0.0884 0.6835
H2 H 0.1816 0.2423 0.2470
O6 O 0.3511(2) 0.15988(14) 0.22171(16)
Zn2 Zn -0.0000 0.26613(3) 0.7500
P2A P -0.20793(8) 0.16557(5) 0.27098(6)
O4D O -0.0282(2) 0.03796(13) 0.62705(17)
O3A O 0.1280(2) 0.14405(16) 0.13413(17)
H2A H -0.1816 0.2423 0.2530
O2A O -0.1726(2) 0.11098(15) 0.18782(16)
O6A O -0.3511(2) 0.15988(14) 0.27829(16)
Zn1D Zn -0.03326(3) -0.08550(2) 0.60983(2)
Zn1A Zn -0.03326(3) 0.08550(2) 0.10983(2)
Zn2F Zn 0.5000 0.23387(3) 0.2500
Zn2F_2 Zn -0.5000 0.23387(3) 0.2500
Zn2D Zn 0.0000 -0.26613(3) 0.2500
O1A O -0.1223(2) 0.10652(14) -0.01985(15)
O4A O -0.0282(2) -0.03796(13) 0.12705(17)
O6A_2 O 0.6489(2) 0.15988(14) 0.27829(16)
O5F O 0.4792(2) 0.30444(13) 0.36169(16)
O5G O 0.5208(2) 0.30444(13) 0.13831(16)
O5E O 0.0208(2) -0.19556(13) 0.13831(16)
P1E P 0.07053(8) -0.10694(5) 0.11767(6)
O1E O 0.1223(2) -0.10652(14) 0.01985(15)
H1E H 0.1698 -0.0884 0.1835
Zn1E Zn 0.03326(3) -0.08550(2) -0.10983(2)
C1 C 0.6941(4) 0.1041(4) 0.5778(4)
H3 H 0.7787 0.1186 0.5724
C2 C 0.5982(4) 0.1559(3) 0.5377(3)
H4 H 0.6170 0.2055 0.5050
C3 C 0.5484(5) 0.0098(3) 0.6346(3)
H5 H 0.5337 -0.0405 0.6674
C4 C 0.4477(4) 0.0584(2) 0.5976(3)
H6 H 0.3646 0.0423 0.6060
C5 C 0.4700(3) 0.1340(2) 0.5460(3)
N1 N 0.6688(4) 0.0328(3) 0.6249(3)
H7 H 0.7312 0.0010 0.6495
N2 N 0.3733(3) 0.18161(18) 0.5050(2)
H8 H 0.3884 0.2267 0.4728
H9 H 0.2956 0.1673 0.5108
loop_
_geom_bond_atom_site_label_1
_geom_bond_atom_site_label_2
_geom_bond_site_symmetry_1
_geom_bond_site_symmetry_2
Zn1 O1 1_555 1_555
O1 P1 1_555 1_555
O2 Zn1 1_555 1_555
O3 Zn1 1_555 1_555
O4 Zn1 1_555 1_555
P1 O5 1_555 1_555
P2 O2 1_555 1_555
O5 Zn2 1_555 1_555
H1 P1 1_555 1_555
H2 P2 1_555 1_555
O6 P2 1_555 1_555
C1 H3 1_555 1_555
C2 C1 1_555 1_555
H4 C2 1_555 1_555
C3 H5 1_555 1_555
C4 C3 1_555 1_555
H6 C4 1_555 1_555
C5 C2 1_555 1_555
N1 C1 1_555 1_555
H7 N1 1_555 1_555
N2 C5 1_555 1_555
H8 N2 1_555 1_555
H9 N2 1_555 1_555
P2A O3 1_555 1_555
O4D P1 1_555 1_555
O3A P2 1_555 1_555
H2A P2A 1_555 1_555
O2A P2A 1_555 1_555
O6A P2A 1_555 1_555
Zn1D O4D 1_555 1_555
Zn1A O3A 1_555 1_555
Zn2F O6 1_555 1_555
Zn2F_2 O6A 1_555 1_555
Zn2D O5E 1_555 1_555
O1A Zn1A 1_555 1_555
O4A Zn1A 1_555 1_555
O6A_2 Zn2F 1_555 1_555
O5F Zn2F 1_555 1_555
O5G Zn2F 1_555 1_555
O5E P1E 1_555 1_555
P1E O4A 1_555 1_555
O1E P1E 1_555 1_555
H1E P1E 1_555 1_555
Zn1E O1E 1_555 1_555
C3 N1 1_555 1_555
C4 C5 1_555 1_555
O2A Zn1A 1_555 1_555

#END
