
#######################################################################
#
#                 Cambridge Crystallographic Data Centre
#                                CCDC 
#
#######################################################################
#
# If this CIF has been generated from an entry in the Cambridge 
# Structural Database, then it will include bibliographic, chemical, 
# crystal, experimental, refinement or atomic coordinate data resulting 
# from the CCDC's data processing and validation procedures.
#
#######################################################################

data_ENCNBZ01
_chemical_formula_moiety         'C15 H6 Cd2 N16 Ni4'
_symmetry_cell_setting           tetragonal
_symmetry_space_group_name_H-M   'P 4/m m m'
_symmetry_Int_Tables_number      123
_space_group_name_Hall           '-P 4 2'
loop_
_symmetry_equiv_pos_site_id
_symmetry_equiv_pos_as_xyz
1 x,y,z
2 -y,x,z
3 y,-x,z
4 y,x,-z
5 -x,-y,z
6 x,-y,-z
7 -x,y,-z
8 -y,-x,-z
9 -x,-y,-z
10 y,-x,-z
11 -y,x,-z
12 -y,-x,z
13 x,y,-z
14 -x,y,z
15 x,-y,z
16 y,x,z
_cell_length_a                   7.675(3)
_cell_length_b                   7.675(3)
_cell_length_c                   8.056(10)
_cell_angle_alpha                90
_cell_angle_beta                 90
_cell_angle_gamma                90
_cell_volume                     474.544
loop_
_atom_site_label
_atom_site_type_symbol
_atom_site_fract_x
_atom_site_fract_y
_atom_site_fract_z
C2 C 0.5000 -0.0000 0.3268(22)
C3 C 0.5000 0.1508(19) 0.4126(16)
C2L C 0.5000 0.0000 0.6732(22)
C3L C 0.5000 0.1508(19) 0.5874(16)
C3H C 0.5000 -0.1508(19) 0.5874(16)
C3N C 0.5000 -0.1508(19) 0.4126(16)
Cd1 Cd 0.0000 0.0000 0.0000
Ni1 Ni 0.5000 0.5000 0.0000
N1 N 0.2211(12) 0.2211(12) 0.0000
C1 C 0.3283(11) 0.3283(11) 0.0000
C4 C -0.0000 0.0000 0.4159(19)
N2 N -0.0000 0.074(3) 0.274(2)
Cd1_2 Cd 0.0000 0.0000 1.0000
Ni1_2 Ni -0.5000 0.5000 0.0000
Ni1_3 Ni 0.5000 -0.5000 0.0000
Ni1_4 Ni -0.5000 -0.5000 0.0000
N1A N -0.2211(12) 0.2211(12) 0.0000
N1B N 0.2211(12) -0.2211(12) 0.0000
N1H N -0.2211(12) -0.2211(12) 0.0000
C1A C -0.3283(11) 0.3283(11) 0.0000
C1B C 0.3283(11) -0.3283(11) 0.0000
C1H C -0.3283(11) -0.3283(11) 0.0000
C1A_2 C 0.6717(11) 0.3283(11) 0.0000
C1B_2 C 0.3283(11) 0.6717(11) 0.0000
C1H_2 C 0.6717(11) 0.6717(11) 0.0000
C4C C 0.0000 0.0000 0.5841(19)
N2C N 0.074(3) 0.0000 0.726(2)
N2H N 0.0000 -0.074(3) 0.726(2)
N2L N 0.0000 0.074(3) 0.726(2)
N2J N -0.074(3) 0.0000 0.726(2)
N2A N -0.074(3) 0.0000 0.274(2)
N2B N 0.074(3) 0.0000 0.274(2)
N2N N -0.0000 -0.074(3) 0.274(2)
N2C_2 N 0.074(3) 0.0000 -0.274(2)
N2L_2 N 0.0000 0.074(3) -0.274(2)
N2H_2 N 0.0000 -0.074(3) -0.274(2)
N2J_2 N -0.074(3) 0.0000 -0.274(2)
loop_
_geom_bond_atom_site_label_1
_geom_bond_atom_site_label_2
_geom_bond_site_symmetry_1
_geom_bond_site_symmetry_2
Cd1 N1 1_555 1_555
Ni1 C1 1_555 1_555
N1 C1 1_555 1_555
C2 C3 1_555 1_555
C3 C3L 1_555 1_555
C4 N2 1_555 1_555
N2 Cd1 1_555 1_555
Cd1_2 N2C 1_555 1_555
Ni1_2 C1A 1_555 1_555
Ni1_3 C1B 1_555 1_555
Ni1_4 C1H 1_555 1_555
N1A Cd1 1_555 1_555
N1B Cd1 1_555 1_555
N1H Cd1 1_555 1_555
C1A N1A 1_555 1_555
C1B N1B 1_555 1_555
C1H N1H 1_555 1_555
C1A_2 Ni1 1_555 1_555
C1B_2 Ni1 1_555 1_555
C1H_2 Ni1 1_555 1_555
C2L C3L 1_555 1_555
C3H C2L 1_555 1_555
C3N C2 1_555 1_555
C4C C4 1_555 1_555
N2C C4C 1_555 1_555
N2H Cd1_2 1_555 1_555
N2L Cd1_2 1_555 1_555
N2J Cd1_2 1_555 1_555
N2A Cd1 1_555 1_555
N2B Cd1 1_555 1_555
N2N Cd1 1_555 1_555
N2C_2 Cd1 1_555 1_555
N2L_2 Cd1 1_555 1_555
N2H_2 Cd1 1_555 1_555
N2J_2 Cd1 1_555 1_555
C4 N2A 1_555 1_555
C4 N2B 1_555 1_555
C4 N2N 1_555 1_555
N2 N2A 1_555 1_555
N2 N2B 1_555 1_555
N2 N2N 1_555 1_555
C3H C3N 1_555 1_555
C4C N2H 1_555 1_555
C4C N2L 1_555 1_555
C4C N2J 1_555 1_555
N2C N2H 1_555 1_555
N2C N2L 1_555 1_555
N2C N2J 1_555 1_555
N2H N2L 1_555 1_555
N2H N2J 1_555 1_555
N2L N2J 1_555 1_555
N2A N2B 1_555 1_555
N2A N2N 1_555 1_555
N2B N2N 1_555 1_555
N2C_2 N2L_2 1_555 1_555
N2C_2 N2H_2 1_555 1_555
N2C_2 N2J_2 1_555 1_555
N2L_2 N2H_2 1_555 1_555
N2L_2 N2J_2 1_555 1_555
N2H_2 N2J_2 1_555 1_555

#END
