
#######################################################################
#
#                 Cambridge Crystallographic Data Centre
#                                CCDC 
#
#######################################################################
#
# If this CIF has been generated from an entry in the Cambridge 
# Structural Database, then it will include bibliographic, chemical, 
# crystal, experimental, refinement or atomic coordinate data resulting 
# from the CCDC's data processing and validation procedures.
#
#######################################################################

data_LOZSAW02
_chemical_formula_moiety         '(C9 H5 Co1 K1 N8 1-)n'
_symmetry_cell_setting           monoclinic
_symmetry_space_group_name_H-M   'C 2/c'
_symmetry_Int_Tables_number      15
_space_group_name_Hall           '-C 2yc'
loop_
_symmetry_equiv_pos_site_id
_symmetry_equiv_pos_as_xyz
1 x,y,z
2 -x,y,1/2-z
3 1/2+x,1/2+y,z
4 1/2-x,1/2+y,1/2-z
5 -x,-y,-z
6 x,-y,1/2+z
7 1/2-x,1/2-y,-z
8 1/2+x,1/2-y,1/2+z
_cell_length_a                   13.427(3)
_cell_length_b                   8.7318(17)
_cell_length_c                   15.083(3)
_cell_angle_alpha                90
_cell_angle_beta                 111.70(3)
_cell_angle_gamma                90
_cell_volume                     1643.04
loop_
_atom_site_label
_atom_site_type_symbol
_atom_site_fract_x
_atom_site_fract_y
_atom_site_fract_z
Co1 Co 0.7500 0.2500 0.5000
C1 C 0.6639(3) 0.2354(5) 0.5753(3)
C2 C 0.8349(3) 0.4004(5) 0.5871(3)
C3 C 0.8354(3) 0.0876(5) 0.5743(3)
N1 N 0.6148(3) 0.2226(5) 0.6232(3)
N2 N 0.8825(3) 0.4921(5) 0.6410(3)
N3 N 0.8821(3) -0.0164(5) 0.6160(3)
K1 K 0.5000 0.25132(13) 0.7500
C2F C 0.6651(3) 0.0996(5) 0.4129(3)
C3F C 0.6646(3) 0.4124(5) 0.4257(3)
C1F C 0.8361(3) 0.2646(5) 0.4247(3)
N2F N 0.6175(3) 0.0079(5) 0.3590(3)
N3F N 0.6179(3) 0.5164(5) 0.3840(3)
N1F N 0.8852(3) 0.2774(5) 0.3768(3)
K1B K 1.0000 0.75132(13) 0.7500
K1B_2 K 1.0000 -0.24868(13) 0.7500
K1D K 0.5000 -0.25132(13) 0.2500
K1D_2 K 0.5000 0.74868(13) 0.2500
K1F K 1.0000 0.24868(13) 0.2500
N1A N 0.3852(3) 0.2226(5) 0.8768(3)
N2B N 0.3825(3) -0.0079(5) 0.6410(3)
N2C N 0.6175(3) -0.0079(5) 0.8590(3)
N3B N 0.3821(3) 0.4836(5) 0.6160(3)
N3C N 0.6179(3) 0.4836(5) 0.8840(3)
N4 N 0.8782(3) 0.2114(6) 0.9467(3)
H1 H 0.8778 0.1796 1.0005
N5 N 0.8816(3) 0.3565(5) 0.8379(4)
H2 H 0.8834 0.4375 0.8061
C4 C 0.8811(4) 0.3517(7) 0.9236(5)
H3 H 0.8826 0.4359 0.9618
C5 C 0.8761(4) 0.1214(5) 0.8738(5)
H4 H 0.8731 0.0150 0.8726
C6 C 0.8787(4) 0.2067(8) 0.8074(3)
H5 H 0.8787 0.1747 0.7486
loop_
_geom_bond_atom_site_label_1
_geom_bond_atom_site_label_2
_geom_bond_site_symmetry_1
_geom_bond_site_symmetry_2
Co1 C1 1_555 1_555
C1 N1 1_555 1_555
C2 Co1 1_555 1_555
C3 Co1 1_555 1_555
N1 K1 1_555 1_555
N2 C2 1_555 1_555
N3 C3 1_555 1_555
K1 N1A 1_555 1_555
N4 H1 1_555 1_555
N5 H2 1_555 1_555
C4 N4 1_555 1_555
H3 C4 1_555 1_555
C5 N4 1_555 1_555
H4 C5 1_555 1_555
C6 N5 1_555 1_555
H5 C6 1_555 1_555
C2F Co1 1_555 1_555
C3F Co1 1_555 1_555
C1F Co1 1_555 1_555
N2F C2F 1_555 1_555
N3F C3F 1_555 1_555
N1F C1F 1_555 1_555
K1B N2 1_555 1_555
K1B_2 N3 1_555 1_555
K1D N2F 1_555 1_555
K1D_2 N3F 1_555 1_555
K1F N1F 1_555 1_555
N2B K1 1_555 1_555
N2C K1 1_555 1_555
N3B K1 1_555 1_555
N3C K1 1_555 1_555
N5 C4 1_555 1_555
C5 C6 1_555 1_555

#END
