
#######################################################################
#
#                 Cambridge Crystallographic Data Centre
#                                CCDC 
#
#######################################################################
#
# If this CIF has been generated from an entry in the Cambridge 
# Structural Database, then it will include bibliographic, chemical, 
# crystal, experimental, refinement or atomic coordinate data resulting 
# from the CCDC's data processing and validation procedures.
#
#######################################################################

data_MOSGIM
_chemical_formula_moiety         '(C48 H28 N4 O19 Zn4)n'
_symmetry_cell_setting           orthorhombic
_symmetry_space_group_name_H-M   'P b c a'
_symmetry_Int_Tables_number      61
_space_group_name_Hall           '-P 2ac 2ab'
loop_
_symmetry_equiv_pos_site_id
_symmetry_equiv_pos_as_xyz
1 x,y,z
2 1/2-x,-y,1/2+z
3 -x,1/2+y,1/2-z
4 1/2+x,1/2-y,-z
5 -x,-y,-z
6 1/2+x,y,1/2-z
7 x,1/2-y,1/2+z
8 1/2-x,1/2+y,z
_cell_length_a                   13.870(3)
_cell_length_b                   19.023(4)
_cell_length_c                   19.238(4)
_cell_angle_alpha                90
_cell_angle_beta                 90
_cell_angle_gamma                90
_cell_volume                     5075.93
loop_
_atom_site_label
_atom_site_type_symbol
_atom_site_fract_x
_atom_site_fract_y
_atom_site_fract_z
Zn1 Zn 0.09564(4) 0.51621(3) 0.45568(3)
Zn2 Zn 0.13548(4) 0.39678(3) 0.56744(3)
C1 C 0.1227(5) 0.6608(3) 0.5365(3)
H1 H 0.1165 0.6334 0.5762
C2 C 0.1386(6) 0.7320(4) 0.5445(5)
H2 H 0.1451 0.7522 0.5883
C3 C 0.1444(6) 0.7720(4) 0.4849(5)
H3 H 0.1534 0.8203 0.4883
C4 C 0.1369(5) 0.7412(3) 0.4202(4)
C5 C 0.1437(6) 0.7836(4) 0.3541(5)
C6 C 0.1463(5) 0.7447(4) 0.2838(4)
C7 C 0.1380(4) 0.6672(3) 0.2858(3)
C8 C 0.1442(5) 0.6275(4) 0.2241(3)
H4 H 0.1516 0.6498 0.1813
C9 C 0.1393(6) 0.5565(4) 0.2278(3)
H5 H 0.1444 0.5292 0.1879
C10 C 0.1265(5) 0.5252(4) 0.2926(3)
H6 H 0.1227 0.4764 0.2945
C11 C 0.1258(4) 0.6311(3) 0.3489(3)
C12 C 0.1241(4) 0.6686(3) 0.4161(3)
C13 C 0.0889(5) 0.1823(3) 0.7995(3)
H7 H 0.0767 0.1356 0.7884
C14 C 0.0943(5) 0.2322(3) 0.7467(3)
H8 H 0.0887 0.2183 0.7005
C15 C 0.1078(4) 0.3019(3) 0.7627(3)
C16 C 0.1161(5) 0.3209(3) 0.8323(3)
H9 H 0.1237 0.3681 0.8436
C17 C 0.1133(5) 0.2716(3) 0.8853(3)
H10 H 0.1193 0.2857 0.9313
C18 C 0.1017(4) 0.2014(3) 0.8692(3)
C19 C 0.1029(4) 0.1466(3) 0.9258(3)
C20 C 0.1140(4) 0.3556(3) 0.7051(3)
C21 C 0.4022(4) 0.4856(3) 0.5084(3)
C22 C 0.4333(4) 0.5402(3) 0.4663(4)
H11 H 0.3882 0.5678 0.4432
C23 C 0.5294(4) 0.5540(3) 0.4580(4)
H12 H 0.5486 0.5906 0.4292
C24 C 0.2969(4) 0.4711(3) 0.5151(3)
N1 N 0.1157(3) 0.6291(2) 0.4746(2)
N2 N 0.1194(3) 0.5610(2) 0.3525(2)
O1 O 0.1127(3) 0.3322(2) 0.6431(2)
O2 O 0.1206(4) 0.4185(2) 0.7205(2)
O3 O 0.1170(3) 0.16730(19) 0.98773(18)
O4 O 0.0904(3) 0.08377(19) 0.90803(18)
O5 O 0.2720(2) 0.42453(19) 0.55980(19)
O6 O 0.2413(3) 0.5058(2) 0.4773(2)
O7 O 0.0555(2) 0.48098(17) 0.55627(16)
H13 H 0.0749 0.5162 0.5907
O8 O 0.1496(6) 0.8481(3) 0.3550(4)
O9 O 0.1551(4) 0.7782(3) 0.2290(3)
C21D C 0.5978(4) 0.5144(3) 0.4916(3)
C22D C 0.5667(4) 0.4598(3) 0.5337(4)
H11D H 0.6118 0.4322 0.5568
C23D C 0.4706(4) 0.4460(3) 0.5420(4)
H12D H 0.4514 0.4094 0.5708
C24D C 0.7031(4) 0.5289(3) 0.4849(3)
O5D O 0.7280(2) 0.57547(19) 0.44020(19)
O6D O 0.7587(3) 0.4942(2) 0.5227(2)
Zn1D Zn -0.09564(4) 0.48379(3) 0.54432(3)
Zn2D Zn -0.13548(4) 0.60322(3) 0.43256(3)
C1D C -0.1227(5) 0.3392(3) 0.4635(3)
H1D H -0.1165 0.3666 0.4238
C2D C -0.1386(6) 0.2680(4) 0.4555(5)
H2D H -0.1451 0.2478 0.4117
C3D C -0.1444(6) 0.2280(4) 0.5151(5)
H3D H -0.1534 0.1797 0.5117
C4D C -0.1369(5) 0.2588(3) 0.5798(4)
C5D C -0.1437(6) 0.2164(4) 0.6459(5)
C6D C -0.1463(5) 0.2553(4) 0.7162(4)
C7D C -0.1380(4) 0.3328(3) 0.7142(3)
C8D C -0.1442(5) 0.3725(4) 0.7759(3)
H4D H -0.1516 0.3502 0.8187
C9D C -0.1393(6) 0.4435(4) 0.7722(3)
H5D H -0.1444 0.4708 0.8121
C10D C -0.1265(5) 0.4748(4) 0.7074(3)
H6D H -0.1227 0.5236 0.7055
C11D C -0.1258(4) 0.3689(3) 0.6511(3)
C12D C -0.1241(4) 0.3314(3) 0.5839(3)
C13D C -0.0889(5) 0.8177(3) 0.2005(3)
H7D H -0.0767 0.8644 0.2116
C14D C -0.0943(5) 0.7678(3) 0.2533(3)
H8D H -0.0887 0.7817 0.2995
C15D C -0.1078(4) 0.6981(3) 0.2373(3)
C16D C -0.1161(5) 0.6791(3) 0.1677(3)
H9D H -0.1237 0.6319 0.1564
C17D C -0.1133(5) 0.7284(3) 0.1147(3)
H10D H -0.1193 0.7143 0.0687
C18D C -0.1017(4) 0.7986(3) 0.1308(3)
C19D C -0.1029(4) 0.8534(3) 0.0742(3)
C20D C -0.1140(4) 0.6444(3) 0.2949(3)
N1D N -0.1157(3) 0.3709(2) 0.5254(2)
N2D N -0.1194(3) 0.4390(2) 0.6475(2)
O1D O -0.1127(3) 0.6678(2) 0.3569(2)
O2D O -0.1206(4) 0.5815(2) 0.2795(2)
O3D O -0.1170(3) 0.83270(19) 0.01227(18)
O4D O -0.0904(3) 0.91623(19) 0.09197(18)
O7D O -0.0555(2) 0.51902(17) 0.44373(16)
H13D H -0.0749 0.4838 0.4093
O8D O -0.1496(6) 0.1519(3) 0.6450(4)
O9D O -0.1551(4) 0.2218(3) 0.7710(3)
Zn1B Zn -0.09564(4) 1.01621(3) 0.04432(3)
Zn1D_2 Zn 0.90436(4) 0.48379(3) 0.54432(3)
Zn1F Zn 0.09564(4) -0.01621(3) 0.95568(3)
Zn2B Zn -0.13548(4) 0.89678(3) -0.06744(3)
Zn2D_2 Zn 0.86452(4) 0.60322(3) 0.43256(3)
Zn2F Zn 0.13548(4) 0.10322(3) 1.06744(3)
O3B O -0.1170(3) 0.66730(19) 0.51227(18)
O3F O 0.1170(3) 0.33270(19) 0.48773(18)
O4B O -0.0904(3) 0.58377(19) 0.59197(18)
O4F O 0.0904(3) 0.41623(19) 0.40803(18)
O5D_2 O -0.2720(2) 0.57547(19) 0.44020(19)
O6D_2 O -0.2413(3) 0.4942(2) 0.5227(2)
O10 O 0.1301(5) 0.5589(3) 0.6839(3)
loop_
_geom_bond_atom_site_label_1
_geom_bond_atom_site_label_2
_geom_bond_site_symmetry_1
_geom_bond_site_symmetry_2
Zn1 N1 1_555 1_555
Zn2 O1 1_555 1_555
C1 H1 1_555 1_555
C2 C1 1_555 1_555
H2 C2 1_555 1_555
C3 C2 1_555 1_555
H3 C3 1_555 1_555
C4 C3 1_555 1_555
C5 C4 1_555 1_555
C6 C5 1_555 1_555
C7 C6 1_555 1_555
C8 C7 1_555 1_555
H4 C8 1_555 1_555
C9 C8 1_555 1_555
H5 C9 1_555 1_555
C10 C9 1_555 1_555
H6 C10 1_555 1_555
C11 C7 1_555 1_555
C12 C4 1_555 1_555
C13 H7 1_555 1_555
C14 C13 1_555 1_555
H8 C14 1_555 1_555
C15 C14 1_555 1_555
C16 C15 1_555 1_555
H9 C16 1_555 1_555
C17 C16 1_555 1_555
H10 C17 1_555 1_555
C18 C13 1_555 1_555
C19 C18 1_555 1_555
C20 C15 1_555 1_555
C21 C22 1_555 1_555
C22 H11 1_555 1_555
C23 C22 1_555 1_555
H12 C23 1_555 1_555
C24 C21 1_555 1_555
N1 C1 1_555 1_555
N2 Zn1 1_555 1_555
O1 C20 1_555 1_555
O2 C20 1_555 1_555
O3 C19 1_555 1_555
O4 C19 1_555 1_555
O5 Zn2 1_555 1_555
O6 Zn1 1_555 1_555
O7 Zn1 1_555 1_555
H13 O7 1_555 1_555
O8 C5 1_555 1_555
O9 C6 1_555 1_555
C21D C23 1_555 1_555
C22D C21D 1_555 1_555
H11D C22D 1_555 1_555
C23D C21 1_555 1_555
H12D C23D 1_555 1_555
C24D C21D 1_555 1_555
O5D C24D 1_555 1_555
O6D C24D 1_555 1_555
Zn1D O7 1_555 1_555
Zn2D O1D 1_555 1_555
C1D H1D 1_555 1_555
C2D C1D 1_555 1_555
H2D C2D 1_555 1_555
C3D C2D 1_555 1_555
H3D C3D 1_555 1_555
C4D C3D 1_555 1_555
C5D C4D 1_555 1_555
C6D C5D 1_555 1_555
C7D C6D 1_555 1_555
C8D C7D 1_555 1_555
H4D C8D 1_555 1_555
C9D C8D 1_555 1_555
H5D C9D 1_555 1_555
C10D C9D 1_555 1_555
H6D C10D 1_555 1_555
C11D C7D 1_555 1_555
C12D C4D 1_555 1_555
C13D H7D 1_555 1_555
C14D C13D 1_555 1_555
H8D C14D 1_555 1_555
C15D C14D 1_555 1_555
C16D C15D 1_555 1_555
H9D C16D 1_555 1_555
C17D C16D 1_555 1_555
H10D C17D 1_555 1_555
C18D C13D 1_555 1_555
C19D C18D 1_555 1_555
C20D C15D 1_555 1_555
N1D Zn1D 1_555 1_555
N2D Zn1D 1_555 1_555
O1D C20D 1_555 1_555
O2D C20D 1_555 1_555
O3D C19D 1_555 1_555
O4D C19D 1_555 1_555
O7D Zn1 1_555 1_555
H13D O7D 1_555 1_555
O8D C5D 1_555 1_555
O9D C6D 1_555 1_555
Zn1B O4D 1_555 1_555
Zn1D_2 O6D 1_555 1_555
Zn1F O4 1_555 1_555
Zn2B O3D 1_555 1_555
Zn2D_2 O5D 1_555 1_555
Zn2F O3 1_555 1_555
O3B Zn2D 1_555 1_555
O3F Zn2 1_555 1_555
O4B Zn1D 1_555 1_555
O4F Zn1 1_555 1_555
O5D_2 Zn2D 1_555 1_555
O6D_2 Zn1D 1_555 1_555
Zn2 O7 1_555 1_555
C10 N2 1_555 1_555
C11 C12 1_555 1_555
C11 N2 1_555 1_555
C12 N1 1_555 1_555
C17 C18 1_555 1_555
C24 O5 1_555 1_555
C24 O6 1_555 1_555
C22D C23D 1_555 1_555
Zn1D O7D 1_555 1_555
Zn2D O7D 1_555 1_555
C1D N1D 1_555 1_555
C10D N2D 1_555 1_555
C11D C12D 1_555 1_555
C11D N2D 1_555 1_555
C12D N1D 1_555 1_555
C17D C18D 1_555 1_555

#END
