
#######################################################################
#
#                 Cambridge Crystallographic Data Centre
#                                CCDC 
#
#######################################################################
#
# If this CIF has been generated from an entry in the Cambridge 
# Structural Database, then it will include bibliographic, chemical, 
# crystal, experimental, refinement or atomic coordinate data resulting 
# from the CCDC's data processing and validation procedures.
#
#######################################################################

data_BAXSIE
_chemical_formula_moiety         '(C10 H10 Mg4 N4 O13)n'
_symmetry_cell_setting           tetragonal
_symmetry_space_group_name_H-M   'P 43 21 2'
_symmetry_Int_Tables_number      96
_space_group_name_Hall           'P 4nw 2abw'
loop_
_symmetry_equiv_pos_site_id
_symmetry_equiv_pos_as_xyz
1 x,y,z
2 -x,-y,1/2+z
3 1/2-y,1/2+x,3/4+z
4 1/2+y,1/2-x,1/4+z
5 1/2-x,1/2+y,3/4-z
6 1/2+x,1/2-y,1/4-z
7 y,x,-z
8 -y,-x,1/2-z
_cell_length_a                   15.2253(2)
_cell_length_b                   15.2253(2)
_cell_length_c                   8.3587(1)
_cell_angle_alpha                90
_cell_angle_beta                 90
_cell_angle_gamma                90
_cell_volume                     1937.63
loop_
_atom_site_label
_atom_site_type_symbol
_atom_site_fract_x
_atom_site_fract_y
_atom_site_fract_z
Mg1 Mg 0.90109(3) 0.90109(3) 0.0000
Mg2 Mg 0.88943(3) 1.00055(3) -0.37003(6)
O1 O 0.77458(7) 0.92352(7) -0.37182(14)
O2 O 1.01340(7) 0.90307(7) 0.12966(12)
O3 O 0.79520(7) 0.85353(7) -0.14083(13)
O4 O 0.47424(7) 0.60399(7) -0.37243(13)
N1 N 0.59608(8) 0.69574(9) -0.23254(15)
C1 C 0.75578(10) 0.86468(10) -0.27454(17)
C2 C 0.50375(10) 0.66667(11) -0.45947(18)
C3 C 0.57477(10) 0.71869(10) -0.38467(19)
N2 N 0.66237(9) 0.74661(8) -0.18527(15)
O5 O 0.67145(9) 0.84690(9) 0.12339(16)
H1 H 0.6342 0.8584 0.0798
H2 H 0.6981 0.9005 0.1295
C4 C 0.68323(11) 0.80245(11) -0.30642(19)
O7 O 0.47783(8) 0.68291(7) -0.59776(13)
C5 C 0.62832(11) 0.78709(11) -0.43658(19)
Mg3 Mg 0.75252(3) 0.75252(3) 0.0000
H4 H 1.0370 0.8673 0.0773
H6 H 0.6305 0.8129 -0.5416
Mg1C Mg 0.40109(3) 0.59891(3) -0.7500
Mg1B Mg 0.59891(3) 0.40109(3) 0.7500
Mg2F Mg 1.00055(3) 0.88943(3) 0.37003(6)
Mg2A Mg 1.11057(3) 0.99945(3) 0.12997(6)
Mg2G Mg 0.99945(3) 1.11057(3) -0.12997(6)
Mg2C Mg 0.50055(3) 0.61057(3) -0.12003(6)
Mg2D Mg 0.61057(3) 0.50055(3) 0.12003(6)
Mg2E Mg 0.38943(3) 0.49945(3) -0.37997(6)
Mg2B Mg 0.49945(3) 0.38943(3) 0.37997(6)
O1F O 0.92352(7) 0.77458(7) 0.37182(14)
O2F O 0.90307(7) 1.01340(7) -0.12966(12)
O2A O 0.98660(7) 1.09693(7) -0.37034(12)
O2G O 1.09693(7) 0.98660(7) 0.37034(12)
O3F O 0.85353(7) 0.79520(7) 0.14083(13)
O4B O 0.89601(7) 0.97424(7) 0.37757(13)
O4F O 0.60399(7) 0.47424(7) 0.37243(13)
O4E O 0.97424(7) 0.89601(7) -0.37757(13)
O4B_2 O 0.89601(7) 0.97424(7) -0.62243(13)
O4E_2 O 0.97424(7) 0.89601(7) 0.62243(13)
N1F N 0.69574(9) 0.59608(8) 0.23254(15)
N1B N 0.80426(9) 1.09608(8) -0.48254(15)
N1E N 1.09608(8) 0.80426(9) 0.48254(15)
C1F C 0.86468(10) 0.75578(10) 0.27454(17)
C2F C 0.66667(11) 0.50375(10) 0.45947(18)
C3F C 0.71869(10) 0.57477(10) 0.38467(19)
N2F N 0.74661(8) 0.66237(9) 0.18527(15)
O5F O 0.84690(9) 0.67145(9) -0.12339(16)
H1F H 0.8584 0.6342 -0.0798
H2F H 0.9005 0.6981 -0.1295
C4F C 0.80245(11) 0.68323(11) 0.30642(19)
O7B O 0.81709(7) 0.97783(8) 0.15224(13)
O7F O 0.68291(7) 0.47783(8) 0.59776(13)
O7E O 0.97783(8) 0.81709(7) -0.15224(13)
C5F C 0.78709(11) 0.62832(11) 0.43658(19)
H4F H 0.8673 1.0370 -0.0773
H4A H 0.9630 1.1327 -0.4227
H4G H 1.1327 0.9630 0.4227
H6F H 0.8129 0.6305 0.5416
O6 O 0.90254(12) 0.52266(11) 0.0664(2)
H3 H 0.9259 0.4873 -0.0123
H5 H 0.8612 0.4947 0.1133
loop_
_geom_bond_atom_site_label_1
_geom_bond_atom_site_label_2
_geom_bond_site_symmetry_1
_geom_bond_site_symmetry_2
Mg1 O2 1_555 1_555
Mg2 O1 1_555 1_555
O1 C1 1_555 1_555
O2 H4 1_555 1_555
O3 Mg1 1_555 1_555
O4 C2 1_555 1_555
N1 C3 1_555 1_555
C1 O3 1_555 1_555
C2 C3 1_555 1_555
C3 C5 1_555 1_555
N2 N1 1_555 1_555
O5 H1 1_555 1_555
H2 O5 1_555 1_555
C4 C1 1_555 1_555
O6 H3 1_555 1_555
O7 C2 1_555 1_555
C5 C4 1_555 1_555
Mg3 O3 1_555 1_555
H5 O6 1_555 1_555
H6 C5 1_555 1_555
Mg1C O7 1_555 1_555
Mg1B O7F 1_555 1_555
Mg2F O2 1_555 1_555
Mg2A O2 1_555 1_555
Mg2G O2F 1_555 1_555
Mg2C O4 1_555 1_555
Mg2D O4F 1_555 1_555
Mg2E O4 1_555 1_555
Mg2B O4F 1_555 1_555
O1F Mg2F 1_555 1_555
O2F Mg1 1_555 1_555
O2A Mg2 1_555 1_555
O2G Mg2F 1_555 1_555
O3F Mg1 1_555 1_555
O4B Mg2F 1_555 1_555
O4F C2F 1_555 1_555
O4E Mg2 1_555 1_555
O4B_2 Mg2 1_555 1_555
O4E_2 Mg2F 1_555 1_555
N1F Mg2D 1_555 1_555
N1B Mg2 1_555 1_555
N1E Mg2F 1_555 1_555
C1F O1F 1_555 1_555
C2F C3F 1_555 1_555
C3F N1F 1_555 1_555
N2F Mg3 1_555 1_555
O5F Mg3 1_555 1_555
H1F O5F 1_555 1_555
H2F O5F 1_555 1_555
C4F C1F 1_555 1_555
O7B Mg1 1_555 1_555
O7F C2F 1_555 1_555
O7E Mg1 1_555 1_555
C5F C3F 1_555 1_555
H4F O2F 1_555 1_555
H4A O2A 1_555 1_555
H4G O2G 1_555 1_555
H6F C5F 1_555 1_555
Mg2 O2F 1_555 1_555
N1 Mg2C 1_555 1_555
N2 C4 1_555 1_555
N2 Mg3 1_555 1_555
O5 Mg3 1_555 1_555
Mg3 O3F 1_555 1_555
Mg2A O2G 1_555 1_555
Mg2G O2A 1_555 1_555
O3F C1F 1_555 1_555
N1F N2F 1_555 1_555
N2F C4F 1_555 1_555
C4F C5F 1_555 1_555

#END
