
#######################################################################
#
#                 Cambridge Crystallographic Data Centre
#                                CCDC 
#
#######################################################################
#
# If this CIF has been generated from an entry in the Cambridge 
# Structural Database, then it will include bibliographic, chemical, 
# crystal, experimental, refinement or atomic coordinate data resulting 
# from the CCDC's data processing and validation procedures.
#
#######################################################################

data_FIFGOS
_chemical_formula_moiety         '(C60 H37 Co2 In3 N3 O20 1+)n'
_symmetry_cell_setting           trigonal
_symmetry_space_group_name_H-M   'P -3 1 c'
_symmetry_Int_Tables_number      163
_space_group_name_Hall           '-P 3 2c'
loop_
_symmetry_equiv_pos_site_id
_symmetry_equiv_pos_as_xyz
1 x,y,z
2 -y,x-y,z
3 -x+y,-x,z
4 -y,-x,1/2-z
5 -x+y,y,1/2-z
6 x,x-y,1/2-z
7 -x,-y,-z
8 y,-x+y,-z
9 x-y,x,-z
10 y,x,1/2+z
11 x-y,-y,1/2+z
12 -x,-x+y,1/2+z
_cell_length_a                   18.8658(4)
_cell_length_b                   18.8658(4)
_cell_length_c                   24.6975(13)
_cell_angle_alpha                90
_cell_angle_beta                 90
_cell_angle_gamma                120
_cell_volume                     7612.62
loop_
_atom_site_label
_atom_site_type_symbol
_atom_site_fract_x
_atom_site_fract_y
_atom_site_fract_z
In1 In 0.729536(16) 0.270464(16) 0.7500
Co1 Co 1.0000 -0.0000 0.67187(18)
O1 O 0.53594(19) 0.1910(2) 0.68837(12)
O2 O 0.6551(2) 0.1908(2) 0.68868(12)
O3 O 1.0000 0.0000 0.7500
O4 O 0.9445(4) 0.0561(4) 0.7040(3)
O5 O 0.6667 0.3333 0.7500
N1 N 0.79615(15) 0.20385(15) 0.7500
C1 C 0.4635(4) 0.0484(5) 0.5494(3)
H1 H 0.4127 0.0326 0.5341
C2 C 0.5852(4) 0.0486(5) 0.5491(3)
H2 H 0.6208 0.0339 0.5333
C3 C 0.4862(4) 0.0941(5) 0.5965(3)
H3 H 0.4502 0.1082 0.6122
C4 C 0.6070(4) 0.0935(5) 0.5970(3)
H4 H 0.6564 0.1064 0.6133
C5 C 0.8176(4) 0.1828(4) 0.7059(3)
H5 H 0.8044 0.1968 0.6728
C6 C 0.5594(3) 0.1188(3) 0.62037(18)
C7 C 0.5132(4) 0.0266(4) 0.5256(2)
C8 C 0.5861(3) 0.1716(3) 0.67027(17)
C9 C 0.8623(5) 0.1373(5) 0.7064(4)
H6 H 0.8764 0.1225 0.6740
C10 C 0.8813(3) 0.1187(3) 0.7500
C11 C 0.9290(3) 0.0710(3) 0.7500
O1F O 0.46406(19) -0.1910(2) 0.31163(12)
O2F O 0.3449(2) -0.1908(2) 0.31132(12)
C1F C 0.5365(4) -0.0484(5) 0.4506(3)
H1F H 0.5873 -0.0326 0.4659
C2F C 0.4148(4) -0.0486(5) 0.4509(3)
H2F H 0.3792 -0.0339 0.4667
C3F C 0.5138(4) -0.0941(5) 0.4035(3)
H3F H 0.5498 -0.1082 0.3878
C4F C 0.3930(4) -0.0935(5) 0.4030(3)
H4F H 0.3436 -0.1064 0.3867
C6F C 0.4406(3) -0.1188(3) 0.37963(18)
C7F C 0.4868(4) -0.0266(4) 0.4744(2)
C8F C 0.4139(3) -0.1716(3) 0.32973(17)
O4C O 0.9439(4) 0.0555(4) 0.7960(3)
C5C C 0.8172(4) 0.1824(4) 0.7941(3)
H5C H 0.8032 0.1956 0.8272
C9C C 0.8627(5) 0.1377(5) 0.7936(4)
H6C H 0.8775 0.1236 0.8260
In1A In 0.729536(16) -0.540928(23) 0.7500
O1A O 0.8090(2) -0.65506(28) 0.68837(12)
O2A O 0.8092(2) -0.5357(3) 0.68868(12)
O4A O 0.9439(4) -0.1116(6) 0.7040(3)
N1A N 0.79615(15) -0.40770(21) 0.7500
C1A C 0.9516(5) -0.5849(6) 0.5494(3)
H1A H 0.9674 -0.6199 0.5341
C2A C 0.9514(5) -0.4634(6) 0.5491(3)
H2A H 0.9661 -0.4131 0.5333
C3A C 0.9059(5) -0.6079(6) 0.5965(3)
H3A H 0.8918 -0.6580 0.6122
C4A C 0.9065(5) -0.4865(6) 0.5970(3)
H4A H 0.8936 -0.4500 0.6133
C5A C 0.8172(4) -0.3652(6) 0.7059(3)
H5A H 0.8032 -0.3924 0.6728
C6A C 0.8812(3) -0.5594(4) 0.62037(18)
C7A C 0.9734(4) -0.5134(6) 0.5256(2)
C8A C 0.8284(3) -0.5855(4) 0.67027(17)
C9A C 0.8627(5) -0.2750(7) 0.7064(4)
H6A H 0.8775 -0.2461 0.6740
C10A C 0.8813(3) -0.2374(4) 0.7500
C11A C 0.9290(3) -0.1420(4) 0.7500
O1G O 1.1910(2) -0.34494(28) 0.31163(12)
O2G O 1.1908(2) -0.4643(3) 0.31132(12)
C1G C 1.0484(5) -0.4151(6) 0.4506(3)
H1G H 1.0326 -0.3801 0.4659
C2G C 1.0486(5) -0.5366(6) 0.4509(3)
H2G H 1.0339 -0.5869 0.4667
C3G C 1.0941(5) -0.3921(6) 0.4035(3)
H3G H 1.1082 -0.3420 0.3878
C4G C 1.0935(5) -0.5135(6) 0.4030(3)
H4G H 1.1064 -0.5500 0.3867
C6G C 1.1188(3) -0.4406(4) 0.37963(18)
C7G C 1.0266(4) -0.4866(6) 0.4744(2)
C8G C 1.1716(3) -0.4145(4) 0.32973(17)
O4E O 0.9445(4) -0.1116(6) 0.7960(3)
C5E C 0.8176(4) -0.3652(6) 0.7941(3)
H5E H 0.8044 -0.3924 0.8272
C9E C 0.8623(5) -0.2750(7) 0.7936(4)
H6E H 0.8764 -0.2461 0.8260
In1B In 0.540928(23) -0.729536(16) 0.7500
O1B O 0.65506(28) -0.53594(19) 0.68837(12)
O2B O 0.5357(3) -0.6551(2) 0.68868(12)
O4B O 0.1116(6) -0.9445(4) 0.7040(3)
N1B N 0.40770(21) -0.79615(15) 0.7500
C1B C 0.5849(6) -0.4635(4) 0.5494(3)
H1B H 0.6199 -0.4127 0.5341
C2B C 0.4634(6) -0.5852(4) 0.5491(3)
H2B H 0.4131 -0.6208 0.5333
C3B C 0.6079(6) -0.4862(4) 0.5965(3)
H3B H 0.6580 -0.4502 0.6122
C4B C 0.4865(6) -0.6070(4) 0.5970(3)
H4B H 0.4500 -0.6564 0.6133
C5B C 0.3652(6) -0.8176(4) 0.7059(3)
H5B H 0.3924 -0.8044 0.6728
C6B C 0.5594(4) -0.5594(3) 0.62037(18)
C7B C 0.5134(6) -0.5132(4) 0.5256(2)
C8B C 0.5855(4) -0.5861(3) 0.67027(17)
C9B C 0.2750(7) -0.8623(5) 0.7064(4)
H6B H 0.2461 -0.8764 0.6740
C10B C 0.2374(4) -0.8813(3) 0.7500
C11B C 0.1420(4) -0.9290(3) 0.7500
O1H O 0.34494(28) -0.46406(19) 0.31163(12)
O2H O 0.4643(3) -0.3449(2) 0.31132(12)
C1H C 0.4151(6) -0.5365(4) 0.4506(3)
H1H H 0.3801 -0.5873 0.4659
C2H C 0.5366(6) -0.4148(4) 0.4509(3)
H2H H 0.5869 -0.3792 0.4667
C3H C 0.3921(6) -0.5138(4) 0.4035(3)
H3H H 0.3420 -0.5498 0.3878
C4H C 0.5135(6) -0.3930(4) 0.4030(3)
H4H H 0.5500 -0.3436 0.3867
C6H C 0.4406(4) -0.4406(3) 0.37963(18)
C7H C 0.4866(6) -0.4868(4) 0.4744(2)
C8H C 0.4145(4) -0.4139(3) 0.32973(17)
O4D O 0.1116(6) -0.9439(4) 0.7960(3)
C5D C 0.3652(6) -0.8172(4) 0.7941(3)
H5D H 0.3924 -0.8032 0.8272
C9D C 0.2750(7) -0.8627(5) 0.7936(4)
H6D H 0.2461 -0.8775 0.8260
Co1C Co 1.0000 0.0000 0.82813(18)
In1_2 In 0.729536(16) -0.729536(16) 0.7500
In1A_2 In 0.729536(16) 0.459072(23) 0.7500
In1B_2 In 0.540928(23) 0.270464(16) 0.7500
In1F In 0.270464(16) -0.270464(16) 0.2500
In1F_2 In 1.270464(16) -0.270464(16) 0.2500
In1G In 0.270464(16) -0.459072(23) 0.2500
In1G_2 In 1.270464(16) -0.459072(23) 0.2500
In1H In 0.459072(23) -0.270464(16) 0.2500
Co1_2 Co 0.0000 -1.0000 0.67187(18)
Co1C_2 Co 0.0000 -1.0000 0.82813(18)
O1_2 O 0.53594(19) -0.8090(2) 0.68837(12)
O1A_2 O 0.8090(2) 0.34494(28) 0.68837(12)
O1C O 0.8090(2) -0.53594(19) 0.81163(12)
O1D O 0.65506(28) 0.1910(2) 0.81163(12)
O1E O 0.53594(19) -0.65506(28) 0.81163(12)
O2C O 0.8092(2) 0.3449(2) 0.81132(12)
O2D O 0.5357(3) -0.8092(2) 0.81132(12)
O2E O 0.6551(2) -0.5357(3) 0.81132(12)
O4B_2 O 1.1116(6) 0.0555(4) 0.7040(3)
O4D_2 O 1.1116(6) 0.0561(4) 0.7960(3)
O5_2 O 0.6667 -0.6667 0.7500
loop_
_geom_bond_atom_site_label_1
_geom_bond_atom_site_label_2
_geom_bond_site_symmetry_1
_geom_bond_site_symmetry_2
In1 O2 1_555 1_555
Co1 O3 1_555 1_555
O1 C8 1_555 1_555
O2 C8 1_555 1_555
O3 Co1C 1_555 1_555
O4 Co1 1_555 1_555
O5 In1 1_555 1_555
N1 In1 1_555 1_555
C1 H1 1_555 1_555
C2 H2 1_555 1_555
C3 C1 1_555 1_555
H3 C3 1_555 1_555
C4 C2 1_555 1_555
H4 C4 1_555 1_555
C5 N1 1_555 1_555
H5 C5 1_555 1_555
C6 C3 1_555 1_555
C7 C1 1_555 1_555
C8 C6 1_555 1_555
C9 C5 1_555 1_555
H6 C9 1_555 1_555
C10 C9 1_555 1_555
C11 O4 1_555 1_555
O1F C8F 1_555 1_555
O2F C8F 1_555 1_555
C1F H1F 1_555 1_555
C2F H2F 1_555 1_555
C3F C1F 1_555 1_555
H3F C3F 1_555 1_555
C4F C2F 1_555 1_555
H4F C4F 1_555 1_555
C6F C3F 1_555 1_555
C7F C7 1_555 1_555
C8F C6F 1_555 1_555
O4C C11 1_555 1_555
C5C N1 1_555 1_555
H5C C5C 1_555 1_555
C9C C10 1_555 1_555
H6C C9C 1_555 1_555
In1A O2A 1_555 1_555
O1A C8A 1_555 1_555
O2A C8A 1_555 1_555
O4A Co1 1_555 1_555
N1A In1A 1_555 1_555
C1A H1A 1_555 1_555
C2A H2A 1_555 1_555
C3A C1A 1_555 1_555
H3A C3A 1_555 1_555
C4A C2A 1_555 1_555
H4A C4A 1_555 1_555
C5A N1A 1_555 1_555
H5A C5A 1_555 1_555
C6A C3A 1_555 1_555
C7A C1A 1_555 1_555
C8A C6A 1_555 1_555
C9A C5A 1_555 1_555
H6A C9A 1_555 1_555
C10A C9A 1_555 1_555
C11A O4A 1_555 1_555
O1G C8G 1_555 1_555
O2G C8G 1_555 1_555
C1G H1G 1_555 1_555
C2G H2G 1_555 1_555
C3G C1G 1_555 1_555
H3G C3G 1_555 1_555
C4G C2G 1_555 1_555
H4G C4G 1_555 1_555
C6G C3G 1_555 1_555
C7G C7A 1_555 1_555
C8G C6G 1_555 1_555
O4E C11A 1_555 1_555
C5E N1A 1_555 1_555
H5E C5E 1_555 1_555
C9E C10A 1_555 1_555
H6E C9E 1_555 1_555
In1B O2B 1_555 1_555
O1B In1A 1_555 1_555
O2B C8B 1_555 1_555
O4B C11B 1_555 1_555
N1B In1B 1_555 1_555
C1B H1B 1_555 1_555
C2B H2B 1_555 1_555
C3B C1B 1_555 1_555
H3B C3B 1_555 1_555
C4B C2B 1_555 1_555
H4B C4B 1_555 1_555
C5B N1B 1_555 1_555
H5B C5B 1_555 1_555
C6B C3B 1_555 1_555
C7B C1B 1_555 1_555
C8B O1B 1_555 1_555
C9B C5B 1_555 1_555
H6B C9B 1_555 1_555
C10B C9B 1_555 1_555
C11B C10B 1_555 1_555
O1H C8H 1_555 1_555
O2H C8H 1_555 1_555
C1H H1H 1_555 1_555
C2H H2H 1_555 1_555
C3H C1H 1_555 1_555
H3H C3H 1_555 1_555
C4H C2H 1_555 1_555
H4H C4H 1_555 1_555
C6H C3H 1_555 1_555
C7H C7B 1_555 1_555
C8H C6H 1_555 1_555
O4D C11B 1_555 1_555
C5D N1B 1_555 1_555
H5D C5D 1_555 1_555
C9D C10B 1_555 1_555
H6D C9D 1_555 1_555
Co1C O4C 1_555 1_555
In1_2 O1A 1_555 1_555
In1A_2 O5 1_555 1_555
In1B_2 O1 1_555 1_555
In1F O2F 1_555 1_555
In1F_2 O1G 1_555 1_555
In1G O1H 1_555 1_555
In1G_2 O2G 1_555 1_555
In1H O1F 1_555 1_555
Co1_2 O4B 1_555 1_555
Co1C_2 O4D 1_555 1_555
O1_2 In1B 1_555 1_555
O1A_2 In1 1_555 1_555
O1C In1A 1_555 1_555
O1D In1 1_555 1_555
O1E In1B 1_555 1_555
O2C In1 1_555 1_555
O2D In1B 1_555 1_555
O2E In1A 1_555 1_555
O4B_2 Co1 1_555 1_555
O4D_2 Co1C 1_555 1_555
O5_2 In1A 1_555 1_555
O5 In1B_2 1_555 1_555
C2 C7 1_555 1_555
C4 C6 1_555 1_555
C10 C11 1_555 1_555
C1F C7F 1_555 1_555
C2F C7F 1_555 1_555
C4F C6F 1_555 1_555
C5C C9C 1_555 1_555
C2A C7A 1_555 1_555
C4A C6A 1_555 1_555
C10A C11A 1_555 1_555
C1G C7G 1_555 1_555
C2G C7G 1_555 1_555
C4G C6G 1_555 1_555
O4E Co1C 1_555 1_555
C5E C9E 1_555 1_555
In1B O5_2 1_555 1_555
C2B C7B 1_555 1_555
C4B C6B 1_555 1_555
C6B C8B 1_555 1_555
O2H In1H 1_555 1_555
C1H C7H 1_555 1_555
C2H C7H 1_555 1_555
C4H C6H 1_555 1_555
C5D C9D 1_555 1_555
In1_2 O5_2 1_555 1_555

#END
