
#######################################################################
#
#                 Cambridge Crystallographic Data Centre
#                                CCDC 
#
#######################################################################
#
# If this CIF has been generated from an entry in the Cambridge 
# Structural Database, then it will include bibliographic, chemical, 
# crystal, experimental, refinement or atomic coordinate data resulting 
# from the CCDC's data processing and validation procedures.
#
#######################################################################

data_SICZOV
_chemical_formula_moiety         '(C144 H72 In6 O44 P3)n'
_symmetry_cell_setting           rhombohedral
_symmetry_space_group_name_H-M   'R 3'
_symmetry_Int_Tables_number      146
_space_group_name_Hall           'R 3'
loop_
_symmetry_equiv_pos_site_id
_symmetry_equiv_pos_as_xyz
1 x,y,z
2 -y,x-y,z
3 -x+y,-x,z
4 2/3+x,1/3+y,1/3+z
5 2/3-y,1/3+x-y,1/3+z
6 2/3-x+y,1/3-x,1/3+z
7 1/3+x,2/3+y,2/3+z
8 1/3-y,2/3+x-y,2/3+z
9 1/3-x+y,2/3-x,2/3+z
_cell_length_a                   31.1023(19)
_cell_length_b                   31.1023(19)
_cell_length_c                   45.205(3)
_cell_angle_alpha                90
_cell_angle_beta                 90
_cell_angle_gamma                120
_cell_volume                     37870.6
loop_
_atom_site_label
_atom_site_type_symbol
_atom_site_fract_x
_atom_site_fract_y
_atom_site_fract_z
In1 In -0.935639(12) -0.934224(12) -0.707269(6)
O1 O -1.0000 -1.0000 -0.70853(12)
O2 O -0.96101(14) -0.90229(12) -0.74131(8)
O3 O -0.86750(15) -0.86321(15) -0.70698(10)
O4 O -0.76496(15) -0.39380(27) -1.00752(9)
O5 O -0.71696(25) -0.42678(13) -1.00380(9)
O6 O -1.04263(14) -0.93966(23) -0.73802(9)
C1 C -1.0017(2) -0.9055(2) -0.74640(12)
C2 C -1.0026(9) -0.8584(8) -0.7602(5)
C3 C -0.9584(5) -0.8236(5) -0.7714(3)
C4 C -1.0420(5) -0.8536(5) -0.7599(3)
C5 C -0.9583(4) -0.7811(4) -0.7839(2)
H1 H -0.9297 -0.8270 -0.7711
H2 H -1.0714 -0.8777 -0.7503
C6 C -1.0407(4) -0.8145(4) -0.7735(3)
C7 C -0.9998(6) -0.7757(5) -0.7827(3)
H3 H -0.9290 -0.7561 -0.7932
H4 H -1.0712 -0.8150 -0.7765
C8 C -0.9966(5) -0.7301(5) -0.7936(3)
C9 C -1.0377(6) -0.7359(6) -0.8107(3)
C10 C -0.9563(4) -0.6837(4) -0.7943(2)
C11 C -1.0398(4) -0.6970(4) -0.8240(3)
H5 H -1.0653 -0.7684 -0.8130
C12 C -0.9527(3) -0.6436(4) -0.8059(2)
O7 O -0.9159(2) -0.6786(2) -0.77871(14)
C13 C -0.9970(3) -0.6463(4) -0.8203(2)
C14 C -1.0815(5) -0.7003(5) -0.8417(3)
C15 C -0.9066(3) -0.5944(3) -0.8063(2)
P1 P -0.90186(13) -0.64931(11) -0.74756(7)
C16 C -0.9985(4) -0.6053(4) -0.8331(2)
C17 C -1.0821(5) -0.6586(4) -0.8508(3)
H6 H -1.1084 -0.7321 -0.8468
C18 C -0.8842(5) -0.5676(4) -0.8346(2)
C19 C -0.8847(4) -0.5734(4) -0.7807(2)
O8 O -0.9059(2) -0.6000(2) -0.75482(15)
O9 O -0.8527(3) -0.6377(3) -0.74205(18)
O10 O -0.9409(3) -0.6752(3) -0.7283(2)
H7 H -0.9715 -0.5726 -0.8302
C20 C -1.0385(4) -0.6126(4) -0.8495(3)
C21 C -1.1270(5) -0.6616(6) -0.8647(3)
C22 C -0.8424(5) -0.5238(4) -0.8337(3)
C23 C -0.9003(4) -0.5905(4) -0.8623(3)
C24 C -0.8435(5) -0.5253(5) -0.7798(3)
H8 H -1.0366 -0.5855 -0.8604
C25 C -1.1297(7) -0.6204(6) -0.8659(3)
C26 C -1.1566(5) -0.7031(6) -0.8769(3)
C27 C -0.8223(9) -0.5021(9) -0.8087(6)
C28 C -0.8203(6) -0.4980(7) -0.8598(5)
C29 C -0.8779(5) -0.5654(4) -0.8879(3)
H9 H -0.9270 -0.6238 -0.8633
C30 C -0.8214(7) -0.4997(8) -0.7526(5)
H10 H -1.1065 -0.5901 -0.8567
C31 C -1.1702(5) -0.6263(7) -0.8823(3)
C32 C -1.1955(7) -0.7053(7) -0.8921(3)
H11 H -1.1518 -0.7308 -0.8754
H12 H -0.7932 -0.4703 -0.8090
H13 H -0.7922 -0.4656 -0.8589
C33 C -0.8385(4) -0.5188(5) -0.8855(3)
H14 H -0.8897 -0.5803 -0.9067
C34 C -0.8237(5) -0.4569(6) -0.7453(3)
C35 C -0.8047(5) -0.5230(6) -0.7314(3)
H15 H -1.1755 -0.5988 -0.8828
C36 C -1.2022(5) -0.6667(7) -0.8972(3)
H16 H -1.2196 -0.7367 -0.8997
C37 C -0.8197(6) -0.4952(6) -0.9145(4)
C38 C -0.8034(5) -0.4287(5) -0.7180(3)
H17 H -0.8394 -0.4457 -0.7589
H18 H -0.8076 -0.5544 -0.7351
C39 C -0.7815(5) -0.4934(5) -0.7020(3)
C40 C -1.23918(19) -0.6682(2) -0.92001(11)
C41 C -0.8290(5) -0.4574(5) -0.9227(3)
C42 C -0.7964(5) -0.5145(5) -0.9334(3)
H19 H -0.8073 -0.4008 -0.7140
C43 C -0.7789(2) -0.4419(2) -0.69831(15)
H20 H -0.7695 -0.5062 -0.6870
O11 O -1.23548(12) -0.62737(14) -0.92525(8)
O12 O -1.27302(12) -0.70937(13) -0.92901(8)
H21 H -0.8491 -0.4486 -0.9113
C44 C -0.8047(4) -0.4323(5) -0.9505(3)
C45 C -0.7726(5) -0.4871(5) -0.9603(3)
H22 H -0.7966 -0.5443 -0.9286
C46 C -0.7529(2) -0.4174(2) -0.67015(11)
In2 In -1.267564(16) -0.602328(11) -0.959344(6)
H23 H -0.8077 -0.4046 -0.9564
C47 C -0.7771(2) -0.4464(2) -0.96924(14)
H24 H -0.7537 -0.4971 -0.9720
O13 O -0.76055(13) -0.38394(16) -0.66270(8)
O14 O -0.72718(16) -0.43119(14) -0.65892(9)
C48 C -0.7520(2) -0.4188(2) -0.99577(12)
O15 O -1.19679(22) -0.53440(15) -0.95961(10)
O16 O -1.3334 -0.6666 -0.95855(12)
In1A In -1.065776(12) -1.001415(17) -0.707269(6)
O2A O -1.09771(12) -1.05872(18) -0.74131(8)
O3A O -1.13679(15) -1.00429(21) -0.70698(10)
O4A O -1.60620(27) -1.37116(31) -1.00752(9)
O5A O -1.57322(13) -1.29018(28) -1.00380(9)
O6A O -1.06034(23) -1.10297(27) -0.73802(9)
C1A C -1.0945(2) -1.0962(3) -0.74640(12)
C2A C -1.1416(8) -1.1442(12) -0.7602(5)
C3A C -1.1764(5) -1.1348(7) -0.7714(3)
C4A C -1.1464(5) -1.1884(7) -0.7599(3)
C5A C -1.2189(4) -1.1772(6) -0.7839(2)
H1A H -1.1730 -1.1027 -0.7711
H2A H -1.1223 -1.1937 -0.7503
C6A C -1.1855(4) -1.2262(6) -0.7735(3)
C7A C -1.2243(5) -1.2241(8) -0.7827(3)
H3A H -1.2439 -1.1729 -0.7932
H4A H -1.1850 -1.2562 -0.7765
C8A C -1.2699(5) -1.2665(7) -0.7936(3)
C9A C -1.2641(6) -1.3018(8) -0.8107(3)
C10A C -1.3163(4) -1.2726(6) -0.7943(2)
C11A C -1.3030(4) -1.3428(6) -0.8240(3)
H5A H -1.2316 -1.2969 -0.8130
C12A C -1.3564(4) -1.3091(5) -0.8059(2)
O7A O -1.3214(2) -1.2373(3) -0.77871(14)
C13A C -1.3537(4) -1.3507(5) -0.8203(2)
C14A C -1.2997(5) -1.3812(7) -0.8417(3)
C15A C -1.4056(3) -1.3122(4) -0.8063(2)
P1A P -1.35069(11) -1.25255(17) -0.74756(7)
C16A C -1.3947(4) -1.3932(6) -0.8331(2)
C17A C -1.3414(4) -1.4235(6) -0.8508(3)
H6A H -1.2679 -1.3763 -0.8468
C18A C -1.4324(4) -1.3166(6) -0.8346(2)
C19A C -1.4266(4) -1.3113(6) -0.7807(2)
O8A O -1.4000(2) -1.3059(3) -0.75482(15)
O9A O -1.3623(3) -1.2150(4) -0.74205(18)
O10A O -1.3248(3) -1.2657(4) -0.7283(2)
H7A H -1.4274 -1.3989 -0.8302
C20A C -1.3874(4) -1.4259(6) -0.8495(3)
C21A C -1.3384(6) -1.4654(8) -0.8647(3)
C22A C -1.4762(4) -1.3186(6) -0.8337(3)
C23A C -1.4095(4) -1.3098(6) -0.8623(3)
C24A C -1.4747(5) -1.3182(7) -0.7798(3)
H8A H -1.4145 -1.4511 -0.8604
C25A C -1.3796(6) -1.5093(9) -0.8659(3)
C26A C -1.2969(6) -1.4535(8) -0.8769(3)
C27A C -1.4979(9) -1.3202(13) -0.8087(6)
C28A C -1.5020(7) -1.3223(9) -0.8598(5)
C29A C -1.4346(4) -1.3125(6) -0.8879(3)
H9A H -1.3762 -1.3032 -0.8633
C30A C -1.5003(8) -1.3217(11) -0.7526(5)
H10A H -1.4099 -1.5164 -0.8567
C31A C -1.3737(7) -1.5439(9) -0.8823(3)
C32A C -1.2947(7) -1.4902(10) -0.8921(3)
H11A H -1.2692 -1.4210 -0.8754
H12A H -1.5297 -1.3229 -0.8090
H13A H -1.5344 -1.3266 -0.8589
C33A C -1.4812(5) -1.3197(6) -0.8855(3)
H14A H -1.4197 -1.3094 -0.9067
C34A C -1.5431(6) -1.3668(8) -0.7453(3)
C35A C -1.4770(6) -1.2817(8) -0.7314(3)
H15A H -1.4012 -1.5767 -0.8828
C36A C -1.3333(7) -1.5355(9) -0.8972(3)
H16A H -1.2633 -1.4829 -0.8997
C37A C -1.5048(6) -1.3245(8) -0.9145(4)
C38A C -1.5713(5) -1.3747(7) -0.7180(3)
H17A H -1.5543 -1.3937 -0.7589
H18A H -1.4456 -1.2532 -0.7351
C39A C -1.5066(5) -1.2881(7) -0.7020(3)
C40A C -1.3318(2) -1.57098(28) -0.92001(11)
C41A C -1.5426(5) -1.3716(7) -0.9227(3)
C42A C -1.4855(5) -1.2819(7) -0.9334(3)
H19A H -1.5992 -1.4065 -0.7140
C43A C -1.5581(2) -1.3370(3) -0.69831(15)
H20A H -1.4938 -1.2633 -0.6870
O11A O -1.37263(14) -1.60811(18) -0.92525(8)
O12A O -1.29063(13) -1.56365(18) -0.92901(8)
H21A H -1.5514 -1.4005 -0.9113
C44A C -1.5677(5) -1.3724(6) -0.9505(3)
C45A C -1.5129(5) -1.2855(7) -0.9603(3)
H22A H -1.4557 -1.2523 -0.9286
C46A C -1.5826(2) -1.3355(3) -0.67015(11)
In2A In -1.397672(11) -1.665236(19) -0.959344(6)
H23A H -1.5954 -1.4031 -0.9564
C47A C -1.5536(2) -1.3307(3) -0.96924(14)
H24A H -1.5029 -1.2566 -0.9720
O13A O -1.61606(16) -1.37661(21) -0.66270(8)
O14A O -1.56881(14) -1.29599(21) -0.65892(9)
C48A C -1.5812(2) -1.3332(3) -0.99577(12)
O15A O -1.46560(15) -1.66239(27) -0.95961(10)
In1B In -1.998585(17) -1.064361(12) -0.707269(6)
O2B O -1.94128(18) -1.03899(14) -0.74131(8)
O3B O -1.99571(21) -1.13250(15) -0.70698(10)
O4B O -1.62884(31) -1.23504(15) -1.00752(9)
O5B O -1.70982(28) -1.28304(25) -1.00380(9)
O6B O -1.89703(27) -0.95737(14) -0.73802(9)
C1B C -1.9038(3) -0.9983(2) -0.74640(12)
C2B C -1.8558(12) -0.9974(9) -0.7602(5)
C3B C -1.8652(7) -1.0416(5) -0.7714(3)
C4B C -1.8116(7) -0.9580(5) -0.7599(3)
C5B C -1.8228(6) -1.0417(4) -0.7839(2)
H1B H -1.8973 -1.0703 -0.7711
H2B H -1.8063 -0.9286 -0.7503
C6B C -1.7738(6) -0.9593(4) -0.7735(3)
C7B C -1.7759(8) -1.0002(6) -0.7827(3)
H3B H -1.8271 -1.0710 -0.7932
H4B H -1.7438 -0.9288 -0.7765
C8B C -1.7335(7) -1.0034(5) -0.7936(3)
C9B C -1.6982(8) -0.9623(6) -0.8107(3)
C10B C -1.7274(6) -1.0437(4) -0.7943(2)
C11B C -1.6572(6) -0.9602(4) -0.8240(3)
H5B H -1.7031 -0.9347 -0.8130
C12B C -1.6909(5) -1.0473(3) -0.8059(2)
O7B O -1.7627(3) -1.0841(2) -0.77871(14)
C13B C -1.6493(5) -1.0030(3) -0.8203(2)
C14B C -1.6188(7) -0.9185(5) -0.8417(3)
C15B C -1.6878(4) -1.0934(3) -0.8063(2)
P1B P -1.74745(17) -1.09814(13) -0.74756(7)
C16B C -1.6068(6) -1.0015(4) -0.8331(2)
C17B C -1.5765(6) -0.9179(5) -0.8508(3)
H6B H -1.6237 -0.8916 -0.8468
C18B C -1.6834(6) -1.1158(5) -0.8346(2)
C19B C -1.6887(6) -1.1153(4) -0.7807(2)
O8B O -1.6941(3) -1.0941(2) -0.75482(15)
O9B O -1.7850(4) -1.1473(3) -0.74205(18)
O10B O -1.7343(4) -1.0591(3) -0.7283(2)
H7B H -1.6011 -1.0285 -0.8302
C20B C -1.5741(6) -0.9615(4) -0.8495(3)
C21B C -1.5346(8) -0.8730(5) -0.8647(3)
C22B C -1.6814(6) -1.1576(5) -0.8337(3)
C23B C -1.6902(6) -1.0997(4) -0.8623(3)
C24B C -1.6818(7) -1.1565(5) -0.7798(3)
H8B H -1.5489 -0.9634 -0.8604
C25B C -1.4907(9) -0.8703(7) -0.8659(3)
C26B C -1.5465(8) -0.8434(5) -0.8769(3)
C27B C -1.6798(13) -1.1777(9) -0.8087(6)
C28B C -1.6777(9) -1.1797(6) -0.8598(5)
C29B C -1.6875(6) -1.1221(5) -0.8879(3)
H9B H -1.6968 -1.0730 -0.8633
C30B C -1.6783(11) -1.1786(7) -0.7526(5)
H10B H -1.4836 -0.8935 -0.8567
C31B C -1.4561(9) -0.8298(5) -0.8823(3)
C32B C -1.5098(10) -0.8045(7) -0.8921(3)
H11B H -1.5790 -0.8482 -0.8754
H12B H -1.6771 -1.2068 -0.8090
H13B H -1.6734 -1.2078 -0.8589
C33B C -1.6803(6) -1.1615(4) -0.8855(3)
H14B H -1.6906 -1.1103 -0.9067
C34B C -1.6332(8) -1.1763(5) -0.7453(3)
C35B C -1.7183(8) -1.1953(5) -0.7314(3)
H15B H -1.4233 -0.8245 -0.8828
C36B C -1.4645(9) -0.7978(5) -0.8972(3)
H16B H -1.5171 -0.7804 -0.8997
C37B C -1.6755(8) -1.1803(6) -0.9145(4)
C38B C -1.6253(7) -1.1966(5) -0.7180(3)
H17B H -1.6063 -1.1606 -0.7589
H18B H -1.7468 -1.1924 -0.7351
C39B C -1.7119(7) -1.2185(5) -0.7020(3)
C40B C -1.42902(28) -0.76082(19) -0.92001(11)
C41B C -1.6284(7) -1.1710(5) -0.9227(3)
C42B C -1.7181(7) -1.2036(5) -0.9334(3)
H19B H -1.5935 -1.1927 -0.7140
C43B C -1.6630(3) -1.2211(2) -0.69831(15)
H20B H -1.7367 -1.2305 -0.6870
O11B O -1.39189(18) -0.76452(12) -0.92525(8)
O12B O -1.43635(18) -0.72698(12) -0.92901(8)
H21B H -1.5995 -1.1509 -0.9113
C44B C -1.6276(6) -1.1953(4) -0.9505(3)
C45B C -1.7145(7) -1.2274(5) -0.9603(3)
H22B H -1.7477 -1.2034 -0.9286
C46B C -1.6645(3) -1.2471(2) -0.67015(11)
In2B In -1.334764(19) -0.732436(16) -0.959344(6)
H23B H -1.5969 -1.1923 -0.9564
C47B C -1.6693(3) -1.2229(2) -0.96924(14)
H24B H -1.7434 -1.2463 -0.9720
O13B O -1.62339(21) -1.23945(13) -0.66270(8)
O14B O -1.70401(21) -1.27282(16) -0.65892(9)
C48B C -1.6668(3) -1.2480(2) -0.99577(12)
O15B O -1.33761(27) -0.80321(22) -0.95961(10)
In1_2 In -1.935639(12) -0.934224(12) -0.707269(6)
In1B_2 In -0.998585(17) -1.064361(12) -0.707269(6)
In1F In -1.602306(12) -1.267557(12) -1.040602(6)
In1G In -1.732443(12) -1.334748(17) -1.040602(6)
In1G_2 In -0.732443(12) -0.334748(17) -1.040602(6)
In1H In -1.665252(17) -1.397694(12) -1.040602(6)
In1H_2 In -0.665252(17) -0.397694(12) -1.040602(6)
O1_2 O -2.0000 -1.0000 -0.70853(12)
O4C O -1.09829(15) -1.06047(27) -0.67419(9)
O4D O -1.93953(27) -1.03783(31) -0.67419(9)
O4E O -0.96217(31) -0.90171(15) -0.67419(9)
O5C O -2.05029(25) -1.09345(13) -0.67047(9)
O5D O -0.90655(13) -0.95685(28) -0.67047(9)
O5E O -1.04315(28) -0.94971(25) -0.67047(9)
O6A_2 O -2.06034(23) -1.10297(27) -0.73802(9)
O6B_2 O -0.89703(27) -0.95737(14) -0.73802(9)
O12A_2 O -1.29063(13) -0.56365(18) -0.92901(8)
O12B_2 O -1.43635(18) -1.72698(12) -0.92901(8)
In2_2 In -1.267564(16) -1.602328(11) -0.959344(6)
In2A_2 In -1.397672(11) -0.665236(19) -0.959344(6)
In2C In -1.600897(16) -1.268995(11) -0.626011(6)
In2D In -1.731005(11) -1.331903(19) -0.626011(6)
In2D_2 In -0.731005(11) -0.331903(19) -0.626011(6)
In2E In -1.668097(19) -1.399103(16) -0.626011(6)
In2E_2 In -0.668097(19) -0.399103(16) -0.626011(6)
O13F O -1.42722(13) -1.71727(16) -0.99603(8)
O13G O -1.28273(16) -0.70994(21) -0.99603(8)
O13H O -1.29006(21) -0.57278(13) -0.99603(8)
O14F O -1.39385(16) -0.76452(14) -0.99225(9)
O14G O -1.23548(14) -0.62932(21) -0.99225(9)
O14H O -1.37068(21) -1.60615(16) -0.99225(9)
O16_2 O -1.3334 -1.6666 -0.95855(12)
loop_
_geom_bond_atom_site_label_1
_geom_bond_atom_site_label_2
_geom_bond_site_symmetry_1
_geom_bond_site_symmetry_2
In1 O1 1_555 1_555
O1 In1A 1_555 1_555
O2 In1 1_555 1_555
O3 In1 1_555 1_555
O4 C48 1_555 1_555
O5 C48 1_555 1_555
O6 C1 1_555 1_555
C1 O2 1_555 1_555
C2 C1 1_555 1_555
C3 C2 1_555 1_555
C4 C2 1_555 1_555
C5 C3 1_555 1_555
H1 C3 1_555 1_555
H2 C4 1_555 1_555
C6 C4 1_555 1_555
C7 C5 1_555 1_555
H3 C5 1_555 1_555
H4 C6 1_555 1_555
C8 C7 1_555 1_555
C9 C8 1_555 1_555
C10 C8 1_555 1_555
C11 C9 1_555 1_555
H5 C9 1_555 1_555
C12 C10 1_555 1_555
O7 C10 1_555 1_555
C13 C11 1_555 1_555
C14 C11 1_555 1_555
C15 C12 1_555 1_555
P1 O7 1_555 1_555
C16 C13 1_555 1_555
C17 C14 1_555 1_555
H6 C14 1_555 1_555
C18 C15 1_555 1_555
C19 C15 1_555 1_555
O8 P1 1_555 1_555
O9 P1 1_555 1_555
O10 P1 1_555 1_555
H7 C16 1_555 1_555
C20 C16 1_555 1_555
C21 C17 1_555 1_555
C22 C18 1_555 1_555
C23 C18 1_555 1_555
C24 C19 1_555 1_555
H8 C20 1_555 1_555
C25 C21 1_555 1_555
C26 C21 1_555 1_555
C27 C22 1_555 1_555
C28 C22 1_555 1_555
C29 C23 1_555 1_555
H9 C23 1_555 1_555
C30 C24 1_555 1_555
H10 C25 1_555 1_555
C31 C25 1_555 1_555
C32 C26 1_555 1_555
H11 C26 1_555 1_555
H12 C27 1_555 1_555
H13 C28 1_555 1_555
C33 C28 1_555 1_555
H14 C29 1_555 1_555
C34 C30 1_555 1_555
C35 C30 1_555 1_555
H15 C31 1_555 1_555
C36 C31 1_555 1_555
H16 C32 1_555 1_555
C37 C33 1_555 1_555
C38 C34 1_555 1_555
H17 C34 1_555 1_555
H18 C35 1_555 1_555
C39 C35 1_555 1_555
C40 C36 1_555 1_555
C41 C37 1_555 1_555
C42 C37 1_555 1_555
H19 C38 1_555 1_555
C43 C38 1_555 1_555
H20 C39 1_555 1_555
O11 C40 1_555 1_555
O12 C40 1_555 1_555
H21 C41 1_555 1_555
C44 C41 1_555 1_555
C45 C42 1_555 1_555
H22 C42 1_555 1_555
C46 C43 1_555 1_555
In2 O11 1_555 1_555
H23 C44 1_555 1_555
C47 C44 1_555 1_555
H24 C45 1_555 1_555
O13 C46 1_555 1_555
O14 C46 1_555 1_555
C48 C47 1_555 1_555
O15 In2 1_555 1_555
O16 In2 1_555 1_555
In1A O6 1_555 1_555
O2A In1A 1_555 1_555
O3A In1A 1_555 1_555
O4A C48A 1_555 1_555
O5A C48A 1_555 1_555
O6A C1A 1_555 1_555
C1A O2A 1_555 1_555
C2A C1A 1_555 1_555
C3A C2A 1_555 1_555
C4A C2A 1_555 1_555
C5A C3A 1_555 1_555
H1A C3A 1_555 1_555
H2A C4A 1_555 1_555
C6A C4A 1_555 1_555
C7A C5A 1_555 1_555
H3A C5A 1_555 1_555
H4A C6A 1_555 1_555
C8A C7A 1_555 1_555
C9A C8A 1_555 1_555
C10A C8A 1_555 1_555
C11A C9A 1_555 1_555
H5A C9A 1_555 1_555
C12A C10A 1_555 1_555
O7A C10A 1_555 1_555
C13A C11A 1_555 1_555
C14A C11A 1_555 1_555
C15A C12A 1_555 1_555
P1A O7A 1_555 1_555
C16A C13A 1_555 1_555
C17A C14A 1_555 1_555
H6A C14A 1_555 1_555
C18A C15A 1_555 1_555
C19A C15A 1_555 1_555
O8A P1A 1_555 1_555
O9A P1A 1_555 1_555
O10A P1A 1_555 1_555
H7A C16A 1_555 1_555
C20A C16A 1_555 1_555
C21A C17A 1_555 1_555
C22A C18A 1_555 1_555
C23A C18A 1_555 1_555
C24A C19A 1_555 1_555
H8A C20A 1_555 1_555
C25A C21A 1_555 1_555
C26A C21A 1_555 1_555
C27A C22A 1_555 1_555
C28A C22A 1_555 1_555
C29A C23A 1_555 1_555
H9A C23A 1_555 1_555
C30A C24A 1_555 1_555
H10A C25A 1_555 1_555
C31A C25A 1_555 1_555
C32A C26A 1_555 1_555
H11A C26A 1_555 1_555
H12A C27A 1_555 1_555
H13A C28A 1_555 1_555
C33A C28A 1_555 1_555
H14A C29A 1_555 1_555
C34A C30A 1_555 1_555
C35A C30A 1_555 1_555
H15A C31A 1_555 1_555
C36A C31A 1_555 1_555
H16A C32A 1_555 1_555
C37A C33A 1_555 1_555
C38A C34A 1_555 1_555
H17A C34A 1_555 1_555
H18A C35A 1_555 1_555
C39A C35A 1_555 1_555
C40A C36A 1_555 1_555
C41A C37A 1_555 1_555
C42A C37A 1_555 1_555
H19A C38A 1_555 1_555
C43A C38A 1_555 1_555
H20A C39A 1_555 1_555
O11A C40A 1_555 1_555
O12A C40A 1_555 1_555
H21A C41A 1_555 1_555
C44A C41A 1_555 1_555
C45A C42A 1_555 1_555
H22A C42A 1_555 1_555
C46A C43A 1_555 1_555
In2A O11A 1_555 1_555
H23A C44A 1_555 1_555
C47A C44A 1_555 1_555
H24A C45A 1_555 1_555
O13A C46A 1_555 1_555
O14A C46A 1_555 1_555
C48A C47A 1_555 1_555
O15A In2A 1_555 1_555
In1B O2B 1_555 1_555
O2B C1B 1_555 1_555
O3B In1B 1_555 1_555
O4B C48B 1_555 1_555
O5B C48B 1_555 1_555
O6B C1B 1_555 1_555
C1B C2B 1_555 1_555
C2B C3B 1_555 1_555
C3B C5B 1_555 1_555
C4B C2B 1_555 1_555
C5B C7B 1_555 1_555
H1B C3B 1_555 1_555
H2B C4B 1_555 1_555
C6B C4B 1_555 1_555
C7B C6B 1_555 1_555
H3B C5B 1_555 1_555
H4B C6B 1_555 1_555
C8B C7B 1_555 1_555
C9B C8B 1_555 1_555
C10B C8B 1_555 1_555
C11B C9B 1_555 1_555
H5B C9B 1_555 1_555
C12B C10B 1_555 1_555
O7B C10B 1_555 1_555
C13B C11B 1_555 1_555
C14B C11B 1_555 1_555
C15B C12B 1_555 1_555
P1B O7B 1_555 1_555
C16B C13B 1_555 1_555
C17B C14B 1_555 1_555
H6B C14B 1_555 1_555
C18B C15B 1_555 1_555
C19B C15B 1_555 1_555
O8B P1B 1_555 1_555
O9B P1B 1_555 1_555
O10B P1B 1_555 1_555
H7B C16B 1_555 1_555
C20B C16B 1_555 1_555
C21B C17B 1_555 1_555
C22B C18B 1_555 1_555
C23B C18B 1_555 1_555
C24B C19B 1_555 1_555
H8B C20B 1_555 1_555
C25B C21B 1_555 1_555
C26B C21B 1_555 1_555
C27B C22B 1_555 1_555
C28B C22B 1_555 1_555
C29B C23B 1_555 1_555
H9B C23B 1_555 1_555
C30B C24B 1_555 1_555
H10B C25B 1_555 1_555
C31B C25B 1_555 1_555
C32B C26B 1_555 1_555
H11B C26B 1_555 1_555
H12B C27B 1_555 1_555
H13B C28B 1_555 1_555
C33B C28B 1_555 1_555
H14B C29B 1_555 1_555
C34B C30B 1_555 1_555
C35B C30B 1_555 1_555
H15B C31B 1_555 1_555
C36B C31B 1_555 1_555
H16B C32B 1_555 1_555
C37B C33B 1_555 1_555
C38B C34B 1_555 1_555
H17B C34B 1_555 1_555
H18B C35B 1_555 1_555
C39B C35B 1_555 1_555
C40B C36B 1_555 1_555
C41B C37B 1_555 1_555
C42B C37B 1_555 1_555
H19B C38B 1_555 1_555
C43B C38B 1_555 1_555
H20B C39B 1_555 1_555
O11B C40B 1_555 1_555
O12B C40B 1_555 1_555
H21B C41B 1_555 1_555
C44B C41B 1_555 1_555
C45B C42B 1_555 1_555
H22B C42B 1_555 1_555
C46B C43B 1_555 1_555
In2B O12 1_555 1_555
H23B C44B 1_555 1_555
C47B C44B 1_555 1_555
H24B C45B 1_555 1_555
O13B C46B 1_555 1_555
O14B C46B 1_555 1_555
C48B C47B 1_555 1_555
O15B In2B 1_555 1_555
In1_2 O6B 1_555 1_555
In1B_2 O1 1_555 1_555
In1F O5A 1_555 1_555
In1G O5B 1_555 1_555
In1G_2 O4 1_555 1_555
In1H O4A 1_555 1_555
In1H_2 O5 1_555 1_555
O1_2 In1B 1_555 1_555
O4C In1A 1_555 1_555
O4D In1B 1_555 1_555
O4E In1 1_555 1_555
O5C In1B 1_555 1_555
O5D In1 1_555 1_555
O5E In1A 1_555 1_555
O6A_2 In1B 1_555 1_555
O6B_2 In1 1_555 1_555
O12A_2 In2 1_555 1_555
O12B_2 In2A 1_555 1_555
In2_2 O12A 1_555 1_555
In2A_2 O16 1_555 1_555
In2C O14A 1_555 1_555
In2D O14B 1_555 1_555
In2D_2 O13 1_555 1_555
In2E O13A 1_555 1_555
In2E_2 O14 1_555 1_555
O13F In2A 1_555 1_555
O13G In2B 1_555 1_555
O13H In2 1_555 1_555
O14F In2B 1_555 1_555
O14G In2 1_555 1_555
O14H In2A 1_555 1_555
O16_2 In2A 1_555 1_555
C6 C7 1_555 1_555
C12 C13 1_555 1_555
C17 C20 1_555 1_555
C19 O8 1_555 1_555
C24 C27 1_555 1_555
C29 C33 1_555 1_555
C32 C36 1_555 1_555
C39 C43 1_555 1_555
C45 C47 1_555 1_555
O16 In2B 1_555 1_555
O6A In1B_2 1_555 1_555
C6A C7A 1_555 1_555
C12A C13A 1_555 1_555
C17A C20A 1_555 1_555
C19A O8A 1_555 1_555
C24A C27A 1_555 1_555
C29A C33A 1_555 1_555
C32A C36A 1_555 1_555
C39A C43A 1_555 1_555
C45A C47A 1_555 1_555
O4B In1F 1_555 1_555
C12B C13B 1_555 1_555
C17B C20B 1_555 1_555
C19B O8B 1_555 1_555
C24B C27B 1_555 1_555
C29B C33B 1_555 1_555
C32B C36B 1_555 1_555
C39B C43B 1_555 1_555
O11B In2B 1_555 1_555
O12B In2A_2 1_555 1_555
C45B C47B 1_555 1_555
O13B In2C 1_555 1_555
In1_2 O1_2 1_555 1_555
In2_2 O16_2 1_555 1_555

#END
