
#######################################################################
#
#                 Cambridge Crystallographic Data Centre
#                                CCDC 
#
#######################################################################
#
# If this CIF has been generated from an entry in the Cambridge 
# Structural Database, then it will include bibliographic, chemical, 
# crystal, experimental, refinement or atomic coordinate data resulting 
# from the CCDC's data processing and validation procedures.
#
#######################################################################

data_XOVPON
_chemical_formula_moiety         '(C24 H46 Ce2 O22)n'
_symmetry_cell_setting           triclinic
_symmetry_space_group_name_H-M   'P -1'
_symmetry_Int_Tables_number      2
_space_group_name_Hall           '-P 1'
loop_
_symmetry_equiv_pos_site_id
_symmetry_equiv_pos_as_xyz
1 x,y,z
2 -x,-y,-z
_cell_length_a                   8.6842(17)
_cell_length_b                   9.942(2)
_cell_length_c                   11.733(2)
_cell_angle_alpha                74.67(3)
_cell_angle_beta                 69.85(3)
_cell_angle_gamma                86.02(3)
_cell_volume                     916.905
loop_
_atom_site_label
_atom_site_type_symbol
_atom_site_fract_x
_atom_site_fract_y
_atom_site_fract_z
Ce1 Ce 0.25445(6) 0.52223(6) 0.48809(5)
O1 O 0.5756(9) 0.5448(8) 0.3720(6)
O2 O 0.4257(8) 0.6076(8) 0.2516(6)
C1 C 0.5690(12) 0.5867(10) 0.2597(9)
C2 C 0.7183(14) 0.6105(13) 0.1474(10)
H1 H 0.7954 0.5380 0.1612
H2 H 0.7688 0.6991 0.1366
C3 C 0.6873(13) 0.6118(13) 0.0285(9)
H3 H 0.6237 0.6928 0.0077
H4 H 0.6222 0.5294 0.0432
C4 C 0.8450(14) 0.6149(13) -0.0838(10)
H5 H 0.9059 0.7010 -0.1033
H6 H 0.9128 0.5380 -0.0610
C5 C 0.8113(13) 0.6046(14) -0.1978(9)
H7 H 0.7335 0.5278 -0.1726
H8 H 0.7575 0.6892 -0.2262
C6 C 0.9524(12) 0.5841(10) -0.3069(9)
O3 O 1.0982(8) 0.6163(8) -0.3158(7)
O4 O 0.9345(9) 0.5343(8) -0.3893(7)
O5 O 0.1379(9) 0.7480(8) 0.4003(7)
O6 O 0.3575(10) 0.7834(9) 0.4399(8)
C7 C 0.0316(19) 1.0232(15) 0.4286(13)
H9 H 0.0216 1.1235 0.4022
H10 H -0.0367 0.9802 0.3971
C8 C 0.2107(16) 0.9854(12) 0.3704(13)
H11 H 0.2438 1.0183 0.2797
H12 H 0.2799 1.0324 0.3981
C9 C 0.2364(14) 0.8291(12) 0.4061(11)
O9 O 0.3781(10) 0.2993(8) 0.4137(8)
H18 H 0.3356 0.2914 0.3594
H19 H 0.4710 0.3408 0.3721
O10 O 0.1296(9) 0.2960(8) 0.6518(7)
H20 H 0.0318 0.2847 0.6531
H21 H 0.1213 0.2991 0.7256
C7A C -0.0316(19) 0.9768(15) 0.5714(13)
H9A H -0.0216 0.8765 0.5978
H10A H 0.0367 1.0198 0.6029
C8A C -0.2107(16) 1.0146(12) 0.6296(13)
H11A H -0.2438 0.9817 0.7203
H12A H -0.2799 0.9676 0.6019
C9A C -0.2364(14) 1.1709(12) 0.5939(11)
O5A O -0.1379(9) 1.2520(8) 0.5997(7)
O6A O -0.3575(10) 1.2166(9) 0.5601(8)
O1A O 0.4244(9) 0.4552(8) 0.6280(6)
O2A O 0.5743(8) 0.3924(8) 0.7484(6)
C1A C 0.4310(12) 0.4133(10) 0.7403(9)
C2A C 0.2817(14) 0.3895(13) 0.8526(10)
H1A H 0.2046 0.4620 0.8388
H2A H 0.2312 0.3009 0.8634
C3A C 0.3127(13) 0.3882(13) 0.9715(9)
H3A H 0.3763 0.3072 0.9923
H4A H 0.3778 0.4706 0.9568
C4A C 0.1550(14) 0.3851(13) 1.0838(10)
H5A H 0.0941 0.2990 1.1033
H6A H 0.0872 0.4620 1.0610
C5A C 0.1887(13) 0.3954(14) 1.1978(9)
H7A H 0.2665 0.4722 1.1726
H8A H 0.2425 0.3108 1.2262
C6A C 0.0476(12) 0.4159(10) 1.3069(9)
O3A O -0.0982(8) 0.3837(8) 1.3158(7)
O4A O 0.0655(9) 0.4657(8) 1.3893(7)
Ce1A Ce 0.74555(6) 0.47777(6) 0.51191(5)
O9A O 0.6219(10) 0.7007(8) 0.5863(8)
H18A H 0.6644 0.7086 0.6406
H19A H 0.5290 0.6592 0.6279
O10A O 0.8704(9) 0.7040(8) 0.3482(7)
H20A H 0.9682 0.7153 0.3469
H21A H 0.8787 0.7009 0.2744
O3_2 O 0.0982(8) 0.6163(8) 0.6842(7)
O4_2 O -0.0655(9) 0.5343(8) 0.6107(7)
O4A_2 O 0.0655(9) 0.4657(8) 0.3893(7)
Ce1_2 Ce 1.25445(6) 0.52223(6) -0.51191(5)
Ce1A_2 Ce 0.74555(6) 0.47777(6) -0.48809(5)
Ce1A_3 Ce -0.25445(6) 1.47777(6) 0.51191(5)
Ce1A_4 Ce -0.25445(6) 0.47777(6) 1.51191(5)
Ce1_3 Ce 0.25445(6) 0.52223(6) 1.48809(5)
O3A_2 O 0.9018(8) 0.3837(8) 0.3158(7)
O4_3 O 0.9345(9) 0.5343(8) 0.6107(7)
O4A_3 O 1.0655(9) 0.4657(8) 0.3893(7)
O5A_2 O 0.8621(9) 0.2520(8) 0.5997(7)
O6A_2 O 0.6425(10) 0.2166(9) 0.5601(8)
C10 C 0.070(2) 1.0092(18) -0.0566(14)
H13 H 0.0673 1.1009 -0.1110
H14 H 0.0638 0.9406 -0.1002
C11 C 0.2334(19) 0.9949(15) -0.0330(15)
H15 H 0.3194 1.0331 -0.1123
H16 H 0.2307 1.0525 0.0227
C12 C 0.2816(19) 0.8491(16) 0.0229(12)
O7 O 0.264(2) 0.7506(12) -0.0096(12)
O8 O 0.3401(14) 0.8433(12) 0.1140(10)
H17 H 0.39(2) 0.75(2) 0.124(17)
C10A C -0.070(2) 0.9908(18) 0.0566(14)
H13A H -0.0673 0.8991 0.1110
H14A H -0.0638 1.0594 0.1002
C11A C -0.2334(19) 1.0051(15) 0.0330(15)
H15A H -0.3194 0.9669 0.1123
H16A H -0.2307 0.9475 -0.0227
C12A C -0.2816(19) 1.1509(16) -0.0229(12)
O7A O -0.264(2) 1.2494(12) 0.0096(12)
O8A O -0.3401(14) 1.1567(12) -0.1140(10)
H17A H -0.39(2) 1.25(2) -0.124(17)
O11 O 0.6860(12) 0.2226(10) 0.2670(9)
H22 H 0.7115 0.2304 0.1878
H23 H 0.7772 0.2179 0.2809
O12 O 0.6481(11) 0.9231(10) 0.3707(10)
H24 H 0.5544 0.8822 0.3946
H25 H 0.6993 0.8758 0.4181
loop_
_geom_bond_atom_site_label_1
_geom_bond_atom_site_label_2
_geom_bond_site_symmetry_1
_geom_bond_site_symmetry_2
Ce1 O1 1_555 1_555
O1 C1 1_555 1_555
O2 Ce1 1_555 1_555
C1 O2 1_555 1_555
C2 C1 1_555 1_555
H1 C2 1_555 1_555
H2 C2 1_555 1_555
C3 C2 1_555 1_555
H3 C3 1_555 1_555
H4 C3 1_555 1_555
C4 C3 1_555 1_555
H5 C4 1_555 1_555
H6 C4 1_555 1_555
C5 C4 1_555 1_555
H7 C5 1_555 1_555
H8 C5 1_555 1_555
C6 C5 1_555 1_555
O3 C6 1_555 1_555
O4 C6 1_555 1_555
O5 Ce1 1_555 1_555
O6 Ce1 1_555 1_555
C7 H9 1_555 1_555
H10 C7 1_555 1_555
C8 C7 1_555 1_555
H11 C8 1_555 1_555
H12 C8 1_555 1_555
C9 O5 1_555 1_555
C10 H13 1_555 1_555
H14 C10 1_555 1_555
C11 C10 1_555 1_555
H15 C11 1_555 1_555
H16 C11 1_555 1_555
C12 C11 1_555 1_555
O7 C12 1_555 1_555
O8 C12 1_555 1_555
H17 O8 1_555 1_555
O9 Ce1 1_555 1_555
H18 O9 1_555 1_555
H19 O9 1_555 1_555
O10 Ce1 1_555 1_555
H20 O10 1_555 1_555
H21 O10 1_555 1_555
O11 H22 1_555 1_555
H23 O11 1_555 1_555
O12 H24 1_555 1_555
H25 O12 1_555 1_555
C7A C7 1_555 1_555
H9A C7A 1_555 1_555
H10A C7A 1_555 1_555
C8A C7A 1_555 1_555
H11A C8A 1_555 1_555
H12A C8A 1_555 1_555
C9A C8A 1_555 1_555
O5A C9A 1_555 1_555
O6A C9A 1_555 1_555
C10A C10 1_555 1_555
H13A C10A 1_555 1_555
H14A C10A 1_555 1_555
C11A C10A 1_555 1_555
H15A C11A 1_555 1_555
H16A C11A 1_555 1_555
C12A C11A 1_555 1_555
O7A C12A 1_555 1_555
O8A C12A 1_555 1_555
H17A O8A 1_555 1_555
O1A Ce1 1_555 1_555
O2A C1A 1_555 1_555
C1A O1A 1_555 1_555
C2A C1A 1_555 1_555
H1A C2A 1_555 1_555
H2A C2A 1_555 1_555
C3A C2A 1_555 1_555
H3A C3A 1_555 1_555
H4A C3A 1_555 1_555
C4A C3A 1_555 1_555
H5A C4A 1_555 1_555
H6A C4A 1_555 1_555
C5A C4A 1_555 1_555
H7A C5A 1_555 1_555
H8A C5A 1_555 1_555
C6A C5A 1_555 1_555
O3A C6A 1_555 1_555
O4A C6A 1_555 1_555
Ce1A O1 1_555 1_555
O9A Ce1A 1_555 1_555
H18A O9A 1_555 1_555
H19A O9A 1_555 1_555
O10A Ce1A 1_555 1_555
H20A O10A 1_555 1_555
H21A O10A 1_555 1_555
O3_2 Ce1 1_555 1_555
O4_2 Ce1 1_555 1_555
O4A_2 Ce1 1_555 1_555
Ce1_2 O3 1_555 1_555
Ce1A_2 O4 1_555 1_555
Ce1A_3 O5A 1_555 1_555
Ce1A_4 O3A 1_555 1_555
Ce1_3 O4A 1_555 1_555
O3A_2 Ce1A 1_555 1_555
O4_3 Ce1A 1_555 1_555
O4A_3 Ce1A 1_555 1_555
O5A_2 Ce1A 1_555 1_555
O6A_2 Ce1A 1_555 1_555
O4 Ce1_2 1_555 1_555
O6 C9 1_555 1_555
C8 C9 1_555 1_555
O6A Ce1A_3 1_555 1_555
O1A Ce1A 1_555 1_555
O2A Ce1A 1_555 1_555
O4A Ce1A_4 1_555 1_555

#END
