
#######################################################################
#
#                 Cambridge Crystallographic Data Centre
#                                CCDC 
#
#######################################################################
#
# If this CIF has been generated from an entry in the Cambridge 
# Structural Database, then it will include bibliographic, chemical, 
# crystal, experimental, refinement or atomic coordinate data resulting 
# from the CCDC's data processing and validation procedures.
#
#######################################################################

data_KIFWUT
_chemical_formula_moiety         '(C52 H50 Co3 N8 O21 S1)n'
_symmetry_cell_setting           monoclinic
_symmetry_space_group_name_H-M   'C 2/c'
_symmetry_Int_Tables_number      15
_space_group_name_Hall           '-C 2yc'
loop_
_symmetry_equiv_pos_site_id
_symmetry_equiv_pos_as_xyz
1 x,y,z
2 -x,y,1/2-z
3 1/2+x,1/2+y,z
4 1/2-x,1/2+y,1/2-z
5 -x,-y,-z
6 x,-y,1/2+z
7 1/2-x,1/2-y,-z
8 1/2+x,1/2-y,1/2+z
_cell_length_a                   29.685(8)
_cell_length_b                   18.809(5)
_cell_length_c                   10.441(3)
_cell_angle_alpha                90
_cell_angle_beta                 97.500(3)
_cell_angle_gamma                90
_cell_volume                     5779.81
loop_
_atom_site_label
_atom_site_type_symbol
_atom_site_fract_x
_atom_site_fract_y
_atom_site_fract_z
Co1 Co 0.083767(15) 0.12842(2) 0.48867(4)
Co2 Co 0.0000 0.23479(3) 0.2500
N1 N 0.13391(10) 0.14663(17) 0.3609(3)
N2 N 0.27872(11) 0.2100(2) 0.1817(3)
N3 N 0.31012(11) 0.2109(2) 0.0914(3)
N4 N 0.44857(10) 0.25901(17) -0.1195(3)
O1 O 0.13856(9) 0.12152(15) 0.6319(3)
O2 O 0.11399(11) 0.05915(19) 0.7874(3)
O3 O 0.32925(13) 0.04572(19) 0.9328(6)
O4 O 0.03920(9) 0.10675(15) 0.6300(3)
H1 H 0.0619 0.0899 0.7072
H2 H 0.0280 0.0671 0.6173
O5 O 0.08467(10) 0.01594(14) 0.4738(3)
H3 H 0.0621 -0.0084 0.5067
H4 H 0.0919 0.0044 0.4035
O6 O 0.03158(7) 0.13534(12) 0.3286(2)
O7 O 0.02434(10) 0.04199(16) 0.1661(3)
O8 O 0.46211(8) -0.20177(14) 1.1257(3)
O9 O 0.41707(10) -0.26353(14) 0.9766(3)
S1 S 0.0000 0.08429(6) 0.2500
C1 C 0.42922(13) -0.2075(2) 1.0370(4)
C2 C 0.40180(14) -0.1417(2) 1.0071(4)
C3 C 0.41046(19) -0.0810(3) 1.0814(6)
H5 H 0.4341 -0.0812 1.1493
C4 C 0.3848(2) -0.0204(3) 1.0568(7)
H6 H 0.3909 0.0197 1.1081
C5 C 0.3381(2) -0.0791(3) 0.8923(6)
H7 H 0.3124 -0.0798 0.8312
C6 C 0.36426(19) -0.1402(3) 0.9170(5)
H8 H 0.3558 -0.1813 0.8705
C7 C 0.35039(18) -0.0197(2) 0.9570(7)
C8 C 0.28357(18) 0.0484(3) 0.8806(7)
C9 C 0.2507(2) 0.0131(3) 0.9331(7)
H9 H 0.2586 -0.0184 1.0009
C10 C 0.20572(18) 0.0236(2) 0.8865(5)
H10 H 0.1832 0.0001 0.9239
C11 C 0.19408(14) 0.0697(2) 0.7833(4)
C12 C 0.22812(15) 0.1047(3) 0.7305(5)
H11 H 0.2206 0.1359 0.6620
C13 C 0.27314(17) 0.0939(3) 0.7783(6)
H12 H 0.2960 0.1171 0.7417
C14 C 0.14532(13) 0.0839(2) 0.7308(4)
C15 C 0.16980(13) 0.1882(2) 0.4035(4)
H13 H 0.1705 0.2102 0.4836
C16 C 0.20545(13) 0.1996(2) 0.3342(4)
H14 H 0.2295 0.2287 0.3673
C17 C 0.20532(13) 0.1675(2) 0.2145(4)
C18 C 0.16806(13) 0.1252(2) 0.1700(4)
H15 H 0.1664 0.1031 0.0899
C19 C 0.13362(13) 0.1163(2) 0.2452(4)
H16 H 0.1090 0.0879 0.2138
C20 C 0.24274(13) 0.1770(2) 0.1375(4)
H17 H 0.2401 0.1583 0.0543
C21 C 0.34633(14) 0.2438(2) 0.1315(4)
H18 H 0.3501 0.2653 0.2124
C22 C 0.38266(13) 0.2474(2) 0.0475(4)
C23 C 0.42146(17) 0.2868(3) 0.0800(5)
H19 H 0.4264 0.3104 0.1588
C24 C 0.37883(14) 0.2112(3) -0.0667(4)
H20 H 0.3540 0.1817 -0.0904
C25 C 0.41173(13) 0.2186(2) -0.1464(4)
H21 H 0.4081 0.1938 -0.2241
C26 C 0.45315(15) 0.2909(3) -0.0060(5)
H22 H 0.4792 0.3177 0.0177
O6A O -0.03158(7) 0.13534(12) 0.1714(2)
O7A O -0.02434(10) 0.04199(16) 0.3339(3)
Co1A Co -0.083767(15) 0.12842(2) 0.01133(4)
N1A N -0.13391(10) 0.14663(17) 0.1391(3)
N2A N -0.27872(11) 0.2100(2) 0.3183(3)
N3A N -0.31012(11) 0.2109(2) 0.4086(3)
N4A N -0.44857(10) 0.25901(17) 0.6195(3)
O1A O -0.13856(9) 0.12152(15) -0.1319(3)
O2A O -0.11399(11) 0.05915(19) -0.2874(3)
O3A O -0.32925(13) 0.04572(19) -0.4328(6)
O4A O -0.03920(9) 0.10675(15) -0.1300(3)
H1A H -0.0619 0.0899 -0.2072
H2A H -0.0280 0.0671 -0.1173
O5A O -0.08467(10) 0.01594(14) 0.0262(3)
H3A H -0.0621 -0.0084 -0.0067
H4A H -0.0919 0.0044 0.0965
O8A O -0.46211(8) -0.20177(14) -0.6257(3)
O9A O -0.41707(10) -0.26353(14) -0.4766(3)
C1A C -0.42922(13) -0.2075(2) -0.5370(4)
C2A C -0.40180(14) -0.1417(2) -0.5071(4)
C3A C -0.41046(19) -0.0810(3) -0.5814(6)
H5A H -0.4341 -0.0812 -0.6493
C4A C -0.3848(2) -0.0204(3) -0.5568(7)
H6A H -0.3909 0.0197 -0.6081
C5A C -0.3381(2) -0.0791(3) -0.3923(6)
H7A H -0.3124 -0.0798 -0.3312
C6A C -0.36426(19) -0.1402(3) -0.4170(5)
H8A H -0.3558 -0.1813 -0.3705
C7A C -0.35039(18) -0.0197(2) -0.4570(7)
C8A C -0.28357(18) 0.0484(3) -0.3806(7)
C9A C -0.2507(2) 0.0131(3) -0.4331(7)
H9A H -0.2586 -0.0184 -0.5009
C10A C -0.20572(18) 0.0236(2) -0.3865(5)
H10A H -0.1832 0.0001 -0.4239
C11A C -0.19408(14) 0.0697(2) -0.2833(4)
C12A C -0.22812(15) 0.1047(3) -0.2305(5)
H11A H -0.2206 0.1359 -0.1620
C13A C -0.27314(17) 0.0939(3) -0.2783(6)
H12A H -0.2960 0.1171 -0.2417
C14A C -0.14532(13) 0.0839(2) -0.2308(4)
C15A C -0.16980(13) 0.1882(2) 0.0965(4)
H13A H -0.1705 0.2102 0.0164
C16A C -0.20545(13) 0.1996(2) 0.1658(4)
H14A H -0.2295 0.2287 0.1327
C17A C -0.20532(13) 0.1675(2) 0.2855(4)
C18A C -0.16806(13) 0.1252(2) 0.3300(4)
H15A H -0.1664 0.1031 0.4101
C19A C -0.13362(13) 0.1163(2) 0.2548(4)
H16A H -0.1090 0.0879 0.2862
C20A C -0.24274(13) 0.1770(2) 0.3625(4)
H17A H -0.2401 0.1583 0.4457
C21A C -0.34633(14) 0.2438(2) 0.3685(4)
H18A H -0.3501 0.2653 0.2876
C22A C -0.38266(13) 0.2474(2) 0.4525(4)
C23A C -0.42146(17) 0.2868(3) 0.4200(5)
H19A H -0.4264 0.3104 0.3412
C24A C -0.37883(14) 0.2112(3) 0.5667(4)
H20A H -0.3540 0.1817 0.5904
C25A C -0.41173(13) 0.2186(2) 0.6464(4)
H21A H -0.4081 0.1938 0.7241
C26A C -0.45315(15) 0.2909(3) 0.5060(5)
H22A H -0.4792 0.3177 0.4823
Co1B Co -0.416233(15) -0.37158(2) -0.51133(4)
Co1C Co 0.416233(15) -0.37158(2) 1.01133(4)
Co2B Co -0.5000 -0.26521(3) -0.7500
Co2B_2 Co 0.5000 -0.26521(3) 1.2500
Co2F Co -0.5000 0.26521(3) 0.7500
Co2F_2 Co 0.5000 0.26521(3) -0.2500
N4F N 0.05143(10) 0.24099(17) 0.1195(3)
N4G N -0.05143(10) 0.24099(17) 0.3805(3)
O8B O -0.03789(8) 0.29823(14) 0.1257(3)
O8C O 0.03789(8) 0.29823(14) 0.3743(3)
O9B O -0.08293(10) 0.23647(14) -0.0234(3)
O9C O 0.08293(10) 0.23647(14) 0.5234(3)
O10 O 0.9824(6) 0.4571(17) 0.468(4)
H23 H 0.9957 0.4278 0.4233
H24 H 0.9547 0.4629 0.4379
O11 O 0.5000 0.077(2) 0.2500
H25 H 0.4953 0.0505 0.3128
H25A H 0.5047 0.0505 0.1872
O12 O 0.5000 0.2657(14) 0.2500
H26 H 0.4851 0.2924 0.2951
H26A H 0.5149 0.2924 0.2049
loop_
_geom_bond_atom_site_label_1
_geom_bond_atom_site_label_2
_geom_bond_site_symmetry_1
_geom_bond_site_symmetry_2
Co1 N1 1_555 1_555
Co2 O6 1_555 1_555
N1 C15 1_555 1_555
N2 N3 1_555 1_555
N3 C21 1_555 1_555
N4 C25 1_555 1_555
O1 Co1 1_555 1_555
O2 C14 1_555 1_555
O3 C7 1_555 1_555
O4 Co1 1_555 1_555
H1 O4 1_555 1_555
H2 O4 1_555 1_555
O5 Co1 1_555 1_555
H3 O5 1_555 1_555
H4 O5 1_555 1_555
O6 Co1 1_555 1_555
O7 S1 1_555 1_555
O8 C1 1_555 1_555
O9 C1 1_555 1_555
S1 O6 1_555 1_555
C1 C2 1_555 1_555
C2 C3 1_555 1_555
C3 H5 1_555 1_555
C4 C3 1_555 1_555
H6 C4 1_555 1_555
C5 H7 1_555 1_555
C6 C2 1_555 1_555
H8 C6 1_555 1_555
C7 C4 1_555 1_555
C8 O3 1_555 1_555
C9 C8 1_555 1_555
H9 C9 1_555 1_555
C10 C9 1_555 1_555
H10 C10 1_555 1_555
C11 C10 1_555 1_555
C12 C11 1_555 1_555
H11 C12 1_555 1_555
C13 C8 1_555 1_555
H12 C13 1_555 1_555
C14 O1 1_555 1_555
C15 H13 1_555 1_555
C16 C15 1_555 1_555
H14 C16 1_555 1_555
C17 C16 1_555 1_555
C18 C17 1_555 1_555
H15 C18 1_555 1_555
C19 N1 1_555 1_555
H16 C19 1_555 1_555
C20 N2 1_555 1_555
H17 C20 1_555 1_555
C21 H18 1_555 1_555
C22 C21 1_555 1_555
C23 C22 1_555 1_555
H19 C23 1_555 1_555
C24 C22 1_555 1_555
H20 C24 1_555 1_555
C25 C24 1_555 1_555
H21 C25 1_555 1_555
C26 N4 1_555 1_555
H22 C26 1_555 1_555
O10 H23 1_555 1_555
H24 O10 1_555 1_555
O11 H25 1_555 1_555
O12 H26 1_555 1_555
O6A Co2 1_555 1_555
O7A S1 1_555 1_555
Co1A O6A 1_555 1_555
N1A Co1A 1_555 1_555
N2A N3A 1_555 1_555
N3A C21A 1_555 1_555
N4A C25A 1_555 1_555
O1A Co1A 1_555 1_555
O2A C14A 1_555 1_555
O3A C7A 1_555 1_555
O4A Co1A 1_555 1_555
H1A O4A 1_555 1_555
H2A O4A 1_555 1_555
O5A Co1A 1_555 1_555
H3A O5A 1_555 1_555
H4A O5A 1_555 1_555
O8A C1A 1_555 1_555
O9A C1A 1_555 1_555
C1A C2A 1_555 1_555
C2A C3A 1_555 1_555
C3A H5A 1_555 1_555
C4A C3A 1_555 1_555
H6A C4A 1_555 1_555
C5A H7A 1_555 1_555
C6A C2A 1_555 1_555
H8A C6A 1_555 1_555
C7A C4A 1_555 1_555
C8A O3A 1_555 1_555
C9A C8A 1_555 1_555
H9A C9A 1_555 1_555
C10A C9A 1_555 1_555
H10A C10A 1_555 1_555
C11A C10A 1_555 1_555
C12A C11A 1_555 1_555
H11A C12A 1_555 1_555
C13A C8A 1_555 1_555
H12A C13A 1_555 1_555
C14A O1A 1_555 1_555
C15A N1A 1_555 1_555
H13A C15A 1_555 1_555
C16A C15A 1_555 1_555
H14A C16A 1_555 1_555
C17A C16A 1_555 1_555
C18A C17A 1_555 1_555
H15A C18A 1_555 1_555
C19A N1A 1_555 1_555
H16A C19A 1_555 1_555
C20A N2A 1_555 1_555
H17A C20A 1_555 1_555
C21A H18A 1_555 1_555
C22A C21A 1_555 1_555
C23A C22A 1_555 1_555
H19A C23A 1_555 1_555
C24A C22A 1_555 1_555
H20A C24A 1_555 1_555
C25A C24A 1_555 1_555
H21A C25A 1_555 1_555
C26A N4A 1_555 1_555
H22A C26A 1_555 1_555
Co1B O9A 1_555 1_555
Co1C O9 1_555 1_555
Co2B O8A 1_555 1_555
Co2B_2 O8 1_555 1_555
Co2F N4A 1_555 1_555
Co2F_2 N4 1_555 1_555
N4F Co2 1_555 1_555
N4G Co2 1_555 1_555
O8B Co2 1_555 1_555
O8C Co2 1_555 1_555
O9B Co1A 1_555 1_555
O9C Co1 1_555 1_555
H25A O11 1_555 1_555
H26A O12 1_555 1_555
S1 O6A 1_555 1_555
C5 C6 1_555 1_555
C5 C7 1_555 1_555
C11 C14 1_555 1_555
C12 C13 1_555 1_555
C17 C20 1_555 1_555
C18 C19 1_555 1_555
C23 C26 1_555 1_555
C5A C6A 1_555 1_555
C5A C7A 1_555 1_555
C11A C14A 1_555 1_555
C12A C13A 1_555 1_555
C17A C20A 1_555 1_555
C18A C19A 1_555 1_555
C23A C26A 1_555 1_555

#END
