
#######################################################################
#
#                 Cambridge Crystallographic Data Centre
#                                CCDC 
#
#######################################################################
#
# If this CIF has been generated from an entry in the Cambridge 
# Structural Database, then it will include bibliographic, chemical, 
# crystal, experimental, refinement or atomic coordinate data resulting 
# from the CCDC's data processing and validation procedures.
#
#######################################################################

data_ROCZAM
_chemical_formula_moiety         '(C36 H43 Cd3 N13 O11)n'
_symmetry_cell_setting           monoclinic
_symmetry_space_group_name_H-M   'P 21/c'
_symmetry_Int_Tables_number      14
_space_group_name_Hall           '-P 2ybc'
loop_
_symmetry_equiv_pos_site_id
_symmetry_equiv_pos_as_xyz
1 x,y,z
2 -x,1/2+y,1/2-z
3 -x,-y,-z
4 x,1/2-y,1/2+z
_cell_length_a                   9.6150(3)
_cell_length_b                   21.1220(9)
_cell_length_c                   13.1520(4)
_cell_angle_alpha                90
_cell_angle_beta                 91.126(3)
_cell_angle_gamma                90
_cell_volume                     2670.5
loop_
_atom_site_label
_atom_site_type_symbol
_atom_site_fract_x
_atom_site_fract_y
_atom_site_fract_z
Cd1 Cd 0.0000 0.0000 0.0000
Cd2 Cd -0.10259(4) 0.08969(2) 0.22756(3)
C1 C -0.0414(11) 0.2666(4) -0.2108(6)
H1 H -0.0023 0.2676 -0.2749
C2 C -0.0394(11) 0.2100(4) -0.1571(6)
H2 H -0.0026 0.1737 -0.1860
C3 C -0.0921(7) 0.2083(3) -0.0615(5)
C4 C -0.1452(8) 0.2627(3) -0.0229(5)
H3 H -0.1791 0.2634 0.0428
C5 C -0.1487(8) 0.3173(3) -0.0819(5)
H4 H -0.1889 0.3536 -0.0554
C6 C -0.0915(7) 0.1478(3) -0.0010(5)
C7 C -0.4062(7) 0.0798(4) 0.1208(6)
H5 H -0.3463 0.0739 0.0669
C8 C -0.5455(7) 0.0722(4) 0.1037(6)
H6 H -0.5785 0.0595 0.0400
C9 C -0.6379(7) 0.0834(3) 0.1810(6)
C10 C -0.5813(7) 0.1009(4) 0.2740(6)
H7 H -0.6392 0.1091 0.3283
C11 C -0.4406(8) 0.1061(4) 0.2865(6)
H8 H -0.4046 0.1176 0.3500
C12 C -0.7925(7) 0.0733(4) 0.1656(6)
C13 C 0.0277(10) -0.0536(5) 0.3640(8)
H9 H 0.0793 -0.0926 0.3633
H10 H 0.0777 -0.0228 0.4040
H11 H 0.0157 -0.0383 0.2957
C14 C -0.1717(13) -0.1220(5) 0.4630(10)
H12 H -0.1122 -0.1584 0.4589
H13 H -0.2601 -0.1314 0.4313
H14 H -0.1848 -0.1111 0.5330
C15 C -0.3262(13) -0.0230(6) 0.4692(10)
H15 H -0.3733 0.0170 0.4672
H16 H -0.3121 -0.0359 0.5387
H17 H -0.3817 -0.0542 0.4339
N1 N -0.0970(6) 0.3197(3) -0.1742(4)
N2 N -0.3523(6) 0.0952(3) 0.2112(5)
N3 N -0.1246(7) -0.0037(3) 0.1431(5)
N4 N -0.1982(7) -0.0459(3) 0.1637(5)
N5 N -0.2637(13) -0.0881(5) 0.1860(9)
O1 O -0.0880(7) 0.0969(2) -0.0497(4)
O2 O -0.1027(7) 0.1545(2) 0.0927(4)
O3 O -0.8267(6) 0.0512(3) 0.0829(5)
O4 O -0.8678(5) 0.0884(3) 0.2362(5)
O5 O -0.1329(6) 0.0361(2) 0.3801(4)
C16 C -0.1086(15) -0.0190(4) 0.3964(8)
N6 N -0.2004(16) -0.0552(7) 0.4435(12)
Cd2B Cd -0.89741(4) -0.08969(2) -0.22756(3)
C1B C -0.9586(11) -0.2666(4) 0.2108(6)
H1B H -0.9977 -0.2676 0.2749
C2B C -0.9606(11) -0.2100(4) 0.1571(6)
H2B H -0.9974 -0.1737 0.1860
C3B C -0.9079(7) -0.2083(3) 0.0615(5)
C4B C -0.8548(8) -0.2627(3) 0.0229(5)
H3B H -0.8209 -0.2634 -0.0428
C5B C -0.8513(8) -0.3173(3) 0.0819(5)
H4B H -0.8111 -0.3536 0.0554
C6B C -0.9085(7) -0.1478(3) 0.0010(5)
C7B C -0.5938(7) -0.0798(4) -0.1208(6)
H5B H -0.6537 -0.0739 -0.0669
C8B C -0.4545(7) -0.0722(4) -0.1037(6)
H6B H -0.4215 -0.0595 -0.0400
C9B C -0.3621(7) -0.0834(3) -0.1810(6)
C10B C -0.4187(7) -0.1009(4) -0.2740(6)
H7B H -0.3608 -0.1091 -0.3283
C11B C -0.5594(8) -0.1061(4) -0.2865(6)
H8B H -0.5954 -0.1176 -0.3500
C12B C -0.2075(7) -0.0733(4) -0.1656(6)
C13B C -1.0277(10) 0.0536(5) -0.3640(8)
H9B H -1.0793 0.0926 -0.3633
H10B H -1.0777 0.0228 -0.4040
H11B H -1.0157 0.0383 -0.2957
C14B C -0.8283(13) 0.1220(5) -0.4630(10)
H12B H -0.8878 0.1584 -0.4589
H13B H -0.7399 0.1314 -0.4313
H14B H -0.8152 0.1111 -0.5330
C15B C -0.6738(13) 0.0230(6) -0.4692(10)
H15B H -0.6267 -0.0170 -0.4672
H16B H -0.6879 0.0359 -0.5387
H17B H -0.6183 0.0542 -0.4339
N1B N -0.9030(6) -0.3197(3) 0.1742(4)
N2B N -0.6477(6) -0.0952(3) -0.2112(5)
N3B N -0.8754(7) 0.0037(3) -0.1431(5)
N4B N -0.8018(7) 0.0459(3) -0.1637(5)
N5B N -0.7363(13) 0.0881(5) -0.1860(9)
O1B O -0.9120(7) -0.0969(2) 0.0497(4)
O2B O -0.8973(7) -0.1545(2) -0.0927(4)
O3B O -0.1733(6) -0.0512(3) -0.0829(5)
O4B O -0.1322(5) -0.0884(3) -0.2362(5)
O5B O -0.8671(6) -0.0361(2) -0.3801(4)
C16B C -0.8914(15) 0.0190(4) -0.3964(8)
N6B N -0.7996(16) 0.0552(7) -0.4435(12)
Cd1_2 Cd -1.0000 0.0000 0.0000
Cd2_2 Cd -1.10259(4) 0.08969(2) 0.22756(3)
Cd2A Cd -0.89741(4) -0.41031(2) 0.27244(3)
Cd2B_2 Cd 0.10259(4) -0.08969(2) -0.22756(3)
Cd2C Cd -0.10259(4) 0.41031(2) -0.27244(3)
N1A N -0.9030(6) -0.1803(3) -0.3258(4)
N1C N -0.0970(6) 0.1803(3) 0.3258(4)
N3B_2 N 0.1246(7) 0.0037(3) -0.1431(5)
O1B_2 O 0.0880(7) -0.0969(2) 0.0497(4)
O3_2 O 0.1733(6) 0.0512(3) 0.0829(5)
O4_2 O 0.1322(5) 0.0884(3) 0.2362(5)
O4B_2 O -1.1322(5) -0.0884(3) -0.2362(5)
C18 C -0.493(2) 0.2598(8) 0.1199(17)
H18 H -0.5130 0.2444 0.1868
H19 H -0.4242 0.2333 0.0897
H20 H -0.5768 0.2590 0.0787
C19 C -0.469(2) 0.3003(11) 0.3132(18)
H21 H -0.4512 0.3202 0.3778
H22 H -0.4175 0.2614 0.3097
H23 H -0.5667 0.2914 0.3057
C20 C -0.376(2) 0.4088(12) 0.2471(19)
H24 H -0.3686 0.4119 0.3198
H25 H -0.4411 0.4395 0.2217
H26 H -0.2861 0.4168 0.2185
O6 O -0.3973(16) 0.3656(6) 0.0695(11)
C21 C -0.402(3) 0.3640(13) 0.1609(13)
N8 N -0.456(2) 0.3107(10) 0.1948(18)
loop_
_geom_bond_atom_site_label_1
_geom_bond_atom_site_label_2
_geom_bond_site_symmetry_1
_geom_bond_site_symmetry_2
Cd1 N3 1_555 1_555
Cd2 N2 1_555 1_555
C1 H1 1_555 1_555
C2 C1 1_555 1_555
H2 C2 1_555 1_555
C3 C2 1_555 1_555
C4 C3 1_555 1_555
H3 C4 1_555 1_555
C5 C4 1_555 1_555
H4 C5 1_555 1_555
C6 C3 1_555 1_555
C7 H5 1_555 1_555
C8 C7 1_555 1_555
H6 C8 1_555 1_555
C9 C8 1_555 1_555
C10 C9 1_555 1_555
H7 C10 1_555 1_555
C11 C10 1_555 1_555
H8 C11 1_555 1_555
C12 C9 1_555 1_555
C13 H9 1_555 1_555
H10 C13 1_555 1_555
H11 C13 1_555 1_555
C14 H12 1_555 1_555
H13 C14 1_555 1_555
H14 C14 1_555 1_555
C15 H15 1_555 1_555
H16 C15 1_555 1_555
H17 C15 1_555 1_555
N1 C1 1_555 1_555
N2 C7 1_555 1_555
N3 Cd2 1_555 1_555
N4 N3 1_555 1_555
N5 N4 1_555 1_555
O1 Cd1 1_555 1_555
O2 Cd2 1_555 1_555
O3 C12 1_555 1_555
O4 C12 1_555 1_555
O5 Cd2 1_555 1_555
C16 C13 1_555 1_555
N6 C14 1_555 1_555
C18 H18 1_555 1_555
H19 C18 1_555 1_555
H20 C18 1_555 1_555
C19 H21 1_555 1_555
H22 C19 1_555 1_555
H23 C19 1_555 1_555
C20 H24 1_555 1_555
H25 C20 1_555 1_555
H26 C20 1_555 1_555
O6 C21 1_555 1_555
C21 C20 1_555 1_555
N8 C18 1_555 1_555
Cd2B N2B 1_555 1_555
C1B H1B 1_555 1_555
C2B C1B 1_555 1_555
H2B C2B 1_555 1_555
C3B C2B 1_555 1_555
C4B C3B 1_555 1_555
H3B C4B 1_555 1_555
C5B C4B 1_555 1_555
H4B C5B 1_555 1_555
C6B C3B 1_555 1_555
C7B H5B 1_555 1_555
C8B C7B 1_555 1_555
H6B C8B 1_555 1_555
C9B C8B 1_555 1_555
C10B C9B 1_555 1_555
H7B C10B 1_555 1_555
C11B C10B 1_555 1_555
H8B C11B 1_555 1_555
C12B C9B 1_555 1_555
C13B H9B 1_555 1_555
H10B C13B 1_555 1_555
H11B C13B 1_555 1_555
C14B H12B 1_555 1_555
H13B C14B 1_555 1_555
H14B C14B 1_555 1_555
C15B H15B 1_555 1_555
H16B C15B 1_555 1_555
H17B C15B 1_555 1_555
N1B C1B 1_555 1_555
N2B C7B 1_555 1_555
N3B Cd2B 1_555 1_555
N4B N3B 1_555 1_555
N5B N4B 1_555 1_555
O1B C6B 1_555 1_555
O2B Cd2B 1_555 1_555
O3B Cd1 1_555 1_555
O4B C12B 1_555 1_555
O5B Cd2B 1_555 1_555
C16B C13B 1_555 1_555
N6B C14B 1_555 1_555
Cd1_2 O3 1_555 1_555
Cd2_2 O4 1_555 1_555
Cd2A N1B 1_555 1_555
Cd2B_2 O4B 1_555 1_555
Cd2C N1 1_555 1_555
N1A Cd2B 1_555 1_555
N1C Cd2 1_555 1_555
N3B_2 Cd1 1_555 1_555
O1B_2 Cd1 1_555 1_555
O3_2 Cd1 1_555 1_555
O4_2 Cd2 1_555 1_555
O4B_2 Cd2B 1_555 1_555
C5 N1 1_555 1_555
C6 O1 1_555 1_555
C6 O2 1_555 1_555
C11 N2 1_555 1_555
C15 N6 1_555 1_555
O5 C16 1_555 1_555
C16 N6 1_555 1_555
C19 N8 1_555 1_555
C21 N8 1_555 1_555
C5B N1B 1_555 1_555
C6B O2B 1_555 1_555
C11B N2B 1_555 1_555
C12B O3B 1_555 1_555
C15B N6B 1_555 1_555
N3B Cd1_2 1_555 1_555
O1B Cd1_2 1_555 1_555
O5B C16B 1_555 1_555
C16B N6B 1_555 1_555
Cd2B_2 N3B_2 1_555 1_555

#END
