
#######################################################################
#
#                 Cambridge Crystallographic Data Centre
#                                CCDC 
#
#######################################################################
#
# If this CIF has been generated from an entry in the Cambridge 
# Structural Database, then it will include bibliographic, chemical, 
# crystal, experimental, refinement or atomic coordinate data resulting 
# from the CCDC's data processing and validation procedures.
#
#######################################################################

data_ROCZOA
_chemical_formula_moiety         '(C40 H54 Cd3 N30 O5)n'
_symmetry_cell_setting           monoclinic
_symmetry_space_group_name_H-M   'P 21/c'
_symmetry_Int_Tables_number      14
_space_group_name_Hall           '-P 2ybc'
loop_
_symmetry_equiv_pos_site_id
_symmetry_equiv_pos_as_xyz
1 x,y,z
2 -x,1/2+y,1/2-z
3 -x,-y,-z
4 x,1/2-y,1/2+z
_cell_length_a                   10.9740(5)
_cell_length_b                   22.6690(13)
_cell_length_c                   14.1060(7)
_cell_angle_alpha                90
_cell_angle_beta                 96.637(4)
_cell_angle_gamma                90
_cell_volume                     3485.63
loop_
_atom_site_label
_atom_site_type_symbol
_atom_site_fract_x
_atom_site_fract_y
_atom_site_fract_z
Cd1 Cd 0.0000 0.0000 0.0000
Cd2 Cd -0.13181(3) 0.073232(19) -0.22194(3)
C1 C 0.6181(5) 0.0565(3) -0.1317(4)
H1 H 0.6776 0.0444 -0.0833
C2 C 0.4987(5) 0.0542(3) -0.1158(4)
H2 H 0.4784 0.0405 -0.0575
C3 C 0.4077(5) 0.0719(3) -0.1844(4)
C4 C 0.4441(5) 0.0928(3) -0.2686(4)
H3 H 0.3863 0.1064 -0.3171
C5 C 0.5664(5) 0.0932(3) -0.2797(4)
H4 H 0.5893 0.1068 -0.3372
C6 C 0.2797(5) 0.0662(3) -0.1693(4)
C7 C -0.0797(6) 0.2923(3) 0.2346(4)
H5 H -0.0493 0.2937 0.2989
C8 C -0.0761(6) 0.2400(3) 0.1887(4)
H6 H -0.0431 0.2069 0.2209
C9 C -0.1218(5) 0.2364(3) 0.0939(4)
C10 C -0.1684(5) 0.2868(3) 0.0495(4)
H7 H -0.2002 0.2865 -0.0146
C11 C -0.1667(5) 0.3376(3) 0.1023(4)
H8 H -0.1980 0.3716 0.0718
C12 C -0.1174(5) 0.1814(3) 0.0407(4)
C13 C -0.2772(12) -0.0274(6) -0.4807(9)
H9 H -0.2773 -0.0667 -0.5057
H10 H -0.2768 0.0004 -0.5321
H11 H -0.3493 -0.0214 -0.4493
C14 C 0.0214(12) -0.0508(6) -0.3475(10)
H12 H 0.0793 -0.0821 -0.3525
H13 H -0.0001 -0.0492 -0.2835
H14 H 0.0575 -0.0140 -0.3630
C15 C -0.1032(12) -0.1090(6) -0.4883(9)
H15 H -0.0350 -0.1357 -0.4813
H16 H -0.1092 -0.0909 -0.5502
H17 H -0.1774 -0.1302 -0.4817
N1 N 0.6540(4) 0.0753(2) -0.2136(3)
N2 N 0.2468(4) 0.0398(2) -0.0910(3)
N3 N 0.1255(4) 0.0430(2) -0.1024(3)
N4 N 0.0872(4) 0.0693(2) -0.1847(3)
N5 N 0.1829(4) 0.0848(2) -0.2277(3)
N6 N -0.1238(4) 0.3416(2) 0.1937(3)
N7 N -0.0790(5) 0.1308(2) 0.0811(3)
N8 N -0.0838(4) 0.0932(2) 0.0086(3)
N9 N -0.1219(4) 0.1212(2) -0.0715(3)
N10 N -0.1443(4) 0.1773(2) -0.0531(3)
N11 N -0.1288(4) -0.0128(2) -0.1385(3)
N12 N -0.1860(6) -0.0550(3) -0.1626(5)
N13 N -0.2401(12) -0.0950(5) -0.1877(8)
O1 O -0.1459(5) 0.0247(2) -0.3646(3)
C16 C -0.1644(19) -0.0184(11) -0.4103(19)
N14 N -0.084(2) -0.0613(9) -0.4113(16)
Cd2B Cd 0.13181(3) -0.073232(19) 0.22194(3)
C1B C -0.6181(5) -0.0565(3) 0.1317(4)
H1B H -0.6776 -0.0444 0.0833
C2B C -0.4987(5) -0.0542(3) 0.1158(4)
H2B H -0.4784 -0.0405 0.0575
C3B C -0.4077(5) -0.0719(3) 0.1844(4)
C4B C -0.4441(5) -0.0928(3) 0.2686(4)
H3B H -0.3863 -0.1064 0.3171
C5B C -0.5664(5) -0.0932(3) 0.2797(4)
H4B H -0.5893 -0.1068 0.3372
C6B C -0.2797(5) -0.0662(3) 0.1693(4)
C7B C 0.0797(6) -0.2923(3) -0.2346(4)
H5B H 0.0493 -0.2937 -0.2989
C8B C 0.0761(6) -0.2400(3) -0.1887(4)
H6B H 0.0431 -0.2069 -0.2209
C9B C 0.1218(5) -0.2364(3) -0.0939(4)
C10B C 0.1684(5) -0.2868(3) -0.0495(4)
H7B H 0.2002 -0.2865 0.0146
C11B C 0.1667(5) -0.3376(3) -0.1023(4)
H8B H 0.1980 -0.3716 -0.0718
C12B C 0.1174(5) -0.1814(3) -0.0407(4)
C13B C 0.2772(12) 0.0274(6) 0.4807(9)
H9B H 0.2773 0.0667 0.5057
H10B H 0.2768 -0.0004 0.5321
H11B H 0.3493 0.0214 0.4493
C14B C -0.0214(12) 0.0508(6) 0.3475(10)
H12B H -0.0793 0.0821 0.3525
H13B H 0.0001 0.0492 0.2835
H14B H -0.0575 0.0140 0.3630
C15B C 0.1032(12) 0.1090(6) 0.4883(9)
H15B H 0.0350 0.1357 0.4813
H16B H 0.1092 0.0909 0.5502
H17B H 0.1774 0.1302 0.4817
N1B N -0.6540(4) -0.0753(2) 0.2136(3)
N2B N -0.2468(4) -0.0398(2) 0.0910(3)
N3B N -0.1255(4) -0.0430(2) 0.1024(3)
N4B N -0.0872(4) -0.0693(2) 0.1847(3)
N5B N -0.1829(4) -0.0848(2) 0.2277(3)
N6B N 0.1238(4) -0.3416(2) -0.1937(3)
N7B N 0.0790(5) -0.1308(2) -0.0811(3)
N8B N 0.0838(4) -0.0932(2) -0.0086(3)
N9B N 0.1219(4) -0.1212(2) 0.0715(3)
N10B N 0.1443(4) -0.1773(2) 0.0531(3)
N11B N 0.1288(4) 0.0128(2) 0.1385(3)
N12B N 0.1860(6) 0.0550(3) 0.1626(5)
N13B N 0.2401(12) 0.0950(5) 0.1877(8)
O1B O 0.1459(5) -0.0247(2) 0.3646(3)
C16B C 0.1644(19) 0.0184(11) 0.4103(19)
N14B N 0.084(2) 0.0613(9) 0.4113(16)
Cd2_2 Cd 0.86819(3) 0.073232(19) -0.22194(3)
Cd2A Cd 0.13181(3) -0.426768(19) -0.27806(3)
Cd2B_2 Cd -0.86819(3) -0.073232(19) 0.22194(3)
Cd2C Cd -0.13181(3) 0.426768(19) 0.27806(3)
N1_2 N -0.3460(4) 0.0753(2) -0.2136(3)
N1B_2 N 0.3460(4) -0.0753(2) 0.2136(3)
N6A N 0.1238(4) -0.1584(2) 0.3063(3)
N6C N -0.1238(4) 0.1584(2) -0.3063(3)
C18 C 0.6161(12) 0.2537(7) -0.2551(12)
H18 H 0.5815 0.2509 -0.3207
H19 H 0.5579 0.2394 -0.2147
H20 H 0.6894 0.2303 -0.2454
C19 C 0.5570(12) 0.3333(7) -0.3927(10)
H21 H 0.5403 0.3660 -0.4354
H22 H 0.4812 0.3148 -0.3816
H23 H 0.6079 0.3052 -0.4205
C20 C 0.6472(17) 0.4171(7) -0.2810(14)
H24 H 0.6204 0.4404 -0.3363
H25 H 0.7339 0.4221 -0.2645
H26 H 0.6048 0.4295 -0.2287
O2 O 0.6969(9) 0.3385(5) -0.1571(7)
C21 C 0.647(2) 0.3180(15) -0.2305(16)
N16 N 0.620(3) 0.3544(13) -0.3019(17)
C23 C 0.3528(18) 0.2427(10) -0.6058(11)
H27 H 0.2909 0.2716 -0.6249
H28 H 0.3469 0.2110 -0.6512
H29 H 0.4324 0.2605 -0.6031
C24 C 0.1942(13) 0.3059(7) -0.5272(10)
H30 H 0.1455 0.3265 -0.4856
H31 H 0.1418 0.2903 -0.5805
H32 H 0.2522 0.3326 -0.5498
C25 C 0.2347(12) 0.2421(7) -0.3760(9)
H33 H 0.1799 0.2706 -0.3538
H34 H 0.3104 0.2419 -0.3345
H35 H 0.1979 0.2037 -0.3763
O3 O 0.3867(8) 0.1842(4) -0.4522(6)
C26 C 0.334(3) 0.2185(10) -0.5070(17)
N18 N 0.2595(19) 0.2578(10) -0.4752(12)
O4 O 0.5667(11) 0.1137(7) -0.5186(8)
H36 H 0.525(18) 0.143(7) -0.494(14)
H37 H 0.613(16) 0.107(11) -0.565(10)
loop_
_geom_bond_atom_site_label_1
_geom_bond_atom_site_label_2
_geom_bond_site_symmetry_1
_geom_bond_site_symmetry_2
Cd1 N3 1_555 1_555
Cd2 N4 1_555 1_555
C1 H1 1_555 1_555
C2 C1 1_555 1_555
H2 C2 1_555 1_555
C3 C2 1_555 1_555
C4 C3 1_555 1_555
H3 C4 1_555 1_555
C5 C4 1_555 1_555
H4 C5 1_555 1_555
C6 C3 1_555 1_555
C7 H5 1_555 1_555
C8 C7 1_555 1_555
H6 C8 1_555 1_555
C9 C8 1_555 1_555
C10 C9 1_555 1_555
H7 C10 1_555 1_555
C11 C10 1_555 1_555
H8 C11 1_555 1_555
C12 C9 1_555 1_555
C13 H9 1_555 1_555
H10 C13 1_555 1_555
H11 C13 1_555 1_555
C14 H12 1_555 1_555
H13 C14 1_555 1_555
H14 C14 1_555 1_555
C15 H15 1_555 1_555
H16 C15 1_555 1_555
H17 C15 1_555 1_555
N1 C1 1_555 1_555
N2 C6 1_555 1_555
N3 N2 1_555 1_555
N4 N3 1_555 1_555
N5 C6 1_555 1_555
N6 C7 1_555 1_555
N7 C12 1_555 1_555
N8 Cd1 1_555 1_555
N9 Cd2 1_555 1_555
N10 C12 1_555 1_555
N11 Cd1 1_555 1_555
N12 N11 1_555 1_555
N13 N12 1_555 1_555
O1 Cd2 1_555 1_555
C16 C13 1_555 1_555
N14 C14 1_555 1_555
C18 H18 1_555 1_555
H19 C18 1_555 1_555
H20 C18 1_555 1_555
C19 H21 1_555 1_555
H22 C19 1_555 1_555
H23 C19 1_555 1_555
C20 H24 1_555 1_555
H25 C20 1_555 1_555
H26 C20 1_555 1_555
O2 C21 1_555 1_555
C21 C18 1_555 1_555
N16 C19 1_555 1_555
C23 H27 1_555 1_555
H28 C23 1_555 1_555
H29 C23 1_555 1_555
C24 H30 1_555 1_555
H31 C24 1_555 1_555
H32 C24 1_555 1_555
C25 H33 1_555 1_555
H34 C25 1_555 1_555
H35 C25 1_555 1_555
O3 C26 1_555 1_555
C26 C23 1_555 1_555
N18 C24 1_555 1_555
O4 H36 1_555 1_555
H37 O4 1_555 1_555
Cd2B N4B 1_555 1_555
C1B H1B 1_555 1_555
C2B C1B 1_555 1_555
H2B C2B 1_555 1_555
C3B C2B 1_555 1_555
C4B C3B 1_555 1_555
H3B C4B 1_555 1_555
C5B C4B 1_555 1_555
H4B C5B 1_555 1_555
C6B C3B 1_555 1_555
C7B H5B 1_555 1_555
C8B C7B 1_555 1_555
H6B C8B 1_555 1_555
C9B C8B 1_555 1_555
C10B C9B 1_555 1_555
H7B C10B 1_555 1_555
C11B C10B 1_555 1_555
H8B C11B 1_555 1_555
C12B C9B 1_555 1_555
C13B H9B 1_555 1_555
H10B C13B 1_555 1_555
H11B C13B 1_555 1_555
C14B H12B 1_555 1_555
H13B C14B 1_555 1_555
H14B C14B 1_555 1_555
C15B H15B 1_555 1_555
H16B C15B 1_555 1_555
H17B C15B 1_555 1_555
N1B C1B 1_555 1_555
N2B C6B 1_555 1_555
N3B Cd1 1_555 1_555
N4B N3B 1_555 1_555
N5B C6B 1_555 1_555
N6B C7B 1_555 1_555
N7B C12B 1_555 1_555
N8B Cd1 1_555 1_555
N9B Cd2B 1_555 1_555
N10B C12B 1_555 1_555
N11B Cd1 1_555 1_555
N12B N11B 1_555 1_555
N13B N12B 1_555 1_555
O1B Cd2B 1_555 1_555
C16B C13B 1_555 1_555
N14B C14B 1_555 1_555
Cd2_2 N1 1_555 1_555
Cd2A N6B 1_555 1_555
Cd2B_2 N1B 1_555 1_555
Cd2C N6 1_555 1_555
N1_2 Cd2 1_555 1_555
N1B_2 Cd2B 1_555 1_555
N6A Cd2B 1_555 1_555
N6C Cd2 1_555 1_555
Cd2 N11 1_555 1_555
C5 N1 1_555 1_555
C11 N6 1_555 1_555
C15 N14 1_555 1_555
N4 N5 1_555 1_555
N7 N8 1_555 1_555
N8 N9 1_555 1_555
N9 N10 1_555 1_555
O1 C16 1_555 1_555
C16 N14 1_555 1_555
C20 N16 1_555 1_555
C21 N16 1_555 1_555
C25 N18 1_555 1_555
C26 N18 1_555 1_555
Cd2B N11B 1_555 1_555
C5B N1B 1_555 1_555
C11B N6B 1_555 1_555
C15B N14B 1_555 1_555
N2B N3B 1_555 1_555
N4B N5B 1_555 1_555
N7B N8B 1_555 1_555
N8B N9B 1_555 1_555
N9B N10B 1_555 1_555
O1B C16B 1_555 1_555
C16B N14B 1_555 1_555

#END
