
#######################################################################
#
#                 Cambridge Crystallographic Data Centre
#                                CCDC 
#
#######################################################################
#
# If this CIF has been generated from an entry in the Cambridge 
# Structural Database, then it will include bibliographic, chemical, 
# crystal, experimental, refinement or atomic coordinate data resulting 
# from the CCDC's data processing and validation procedures.
#
#######################################################################

data_ROCZEQ
_chemical_formula_moiety         '(C39 H43 Cd3 N13 O11)n'
_symmetry_cell_setting           monoclinic
_symmetry_space_group_name_H-M   'P 21/c'
_symmetry_Int_Tables_number      14
_space_group_name_Hall           '-P 2ybc'
loop_
_symmetry_equiv_pos_site_id
_symmetry_equiv_pos_as_xyz
1 x,y,z
2 -x,1/2+y,1/2-z
3 -x,-y,-z
4 x,1/2-y,1/2+z
_cell_length_a                   9.6280(4)
_cell_length_b                   21.3370(7)
_cell_length_c                   13.2080(4)
_cell_angle_alpha                90
_cell_angle_beta                 91.953(3)
_cell_angle_gamma                90
_cell_volume                     2711.78
loop_
_atom_site_label
_atom_site_type_symbol
_atom_site_fract_x
_atom_site_fract_y
_atom_site_fract_z
Cd1 Cd 0.5000 0.0000 0.5000
Cd2 Cd 0.40554(2) -0.091594(10) 0.725774(16)
C1 C 0.4751(5) -0.26705(18) 0.2905(3)
H1 H 0.5156 -0.2684 0.2276
C2 C 0.4804(5) -0.21177(17) 0.3449(3)
H2 H 0.5247 -0.1768 0.3190
C3 C 0.4197(3) -0.20877(14) 0.4377(2)
C4 C 0.3582(4) -0.26197(15) 0.4721(2)
H3 H 0.3178 -0.2620 0.5351
C5 C 0.3557(4) -0.31538(15) 0.4142(2)
H4 H 0.3114 -0.3508 0.4384
C6 C 0.4200(4) -0.14902(14) 0.4992(2)
C7 C 1.0988(4) -0.08221(19) 0.6190(3)
H5 H 1.1572 -0.0783 0.5648
C8 C 0.9585(4) -0.07405(19) 0.6015(3)
H6 H 0.9239 -0.0635 0.5372
C9 C 0.8700(3) -0.08153(16) 0.6799(3)
C10 C 0.9281(4) -0.0971(2) 0.7728(3)
H7 H 0.8716 -0.1037 0.8275
C11 C 1.0698(4) -0.1030(2) 0.7849(3)
H8 H 1.1071 -0.1126 0.8488
C12 C 0.7161(3) -0.07090(17) 0.6640(3)
C13 C 0.3601(5) 0.0147(2) 0.9009(3)
C14 C 0.2742(11) 0.1067(3) 0.9795(6)
C15 C 0.3790(8) 0.1244(2) 0.9074(6)
N1 N 0.4144(3) -0.31826(12) 0.3245(2)
N2 N 1.1553(3) -0.09547(14) 0.7100(2)
N3 N 0.3774(3) 0.00025(12) 0.6419(2)
N4 N 0.2989(3) 0.04101(15) 0.6587(2)
N5 N 0.2234(5) 0.0806(2) 0.6754(4)
O1 O 0.4303(3) -0.09926(10) 0.4515(2)
O2 O 0.4058(3) -0.15589(11) 0.59144(18)
O3 O 0.6801(3) -0.04638(16) 0.5830(2)
O4 O 0.6402(2) -0.08763(13) 0.7339(2)
O5 O 0.3766(3) -0.04050(12) 0.87974(19)
C16 C 0.2469(9) 0.0391(3) 0.9540(4)
N6 N 0.4451(7) 0.0636(2) 0.8818(4)
C17 C 0.5619(9) 0.0593(5) 0.8409(8)
Cd2B Cd 0.59446(2) 0.091594(10) 0.274226(16)
C1B C 0.5249(5) 0.26705(18) 0.7095(3)
H1B H 0.4844 0.2684 0.7724
C2B C 0.5196(5) 0.21177(17) 0.6551(3)
H2B H 0.4753 0.1768 0.6810
C3B C 0.5803(3) 0.20877(14) 0.5623(2)
C4B C 0.6418(4) 0.26197(15) 0.5279(2)
H3B H 0.6822 0.2620 0.4649
C5B C 0.6443(4) 0.31538(15) 0.5858(2)
H4B H 0.6886 0.3508 0.5616
C6B C 0.5800(4) 0.14902(14) 0.5008(2)
C7B C -0.0988(4) 0.08221(19) 0.3810(3)
H5B H -0.1572 0.0783 0.4352
C8B C 0.0415(4) 0.07405(19) 0.3985(3)
H6B H 0.0761 0.0635 0.4628
C9B C 0.1300(3) 0.08153(16) 0.3201(3)
C10B C 0.0719(4) 0.0971(2) 0.2272(3)
H7B H 0.1284 0.1037 0.1725
C11B C -0.0698(4) 0.1030(2) 0.2151(3)
H8B H -0.1071 0.1126 0.1512
C12B C 0.2839(3) 0.07090(17) 0.3360(3)
C13B C 0.6399(5) -0.0147(2) 0.0991(3)
C14B C 0.7258(11) -0.1067(3) 0.0205(6)
C15B C 0.6210(8) -0.1244(2) 0.0926(6)
N1B N 0.5856(3) 0.31826(12) 0.6755(2)
N2B N -0.1553(3) 0.09547(14) 0.2900(2)
N3B N 0.6226(3) -0.00025(12) 0.3581(2)
N4B N 0.7011(3) -0.04101(15) 0.3413(2)
N5B N 0.7766(5) -0.0806(2) 0.3246(4)
O1B O 0.5697(3) 0.09926(10) 0.5485(2)
O2B O 0.5942(3) 0.15589(11) 0.40856(18)
O3B O 0.3199(3) 0.04638(16) 0.4170(2)
O4B O 0.3598(2) 0.08763(13) 0.2661(2)
O5B O 0.6234(3) 0.04050(12) 0.12026(19)
C16B C 0.7531(9) -0.0391(3) 0.0460(4)
N6B N 0.5549(7) -0.0636(2) 0.1182(4)
C17B C 0.4381(9) -0.0593(5) 0.1591(8)
Cd2_2 Cd 1.40554(2) -0.091594(10) 0.725774(16)
Cd2A Cd 0.59446(2) 0.408406(10) 0.774226(16)
Cd2B_2 Cd -0.40554(2) 0.091594(10) 0.274226(16)
Cd2C Cd 0.40554(2) -0.408406(10) 0.225774(16)
N1A N 0.5856(3) 0.18174(12) 0.1755(2)
N1C N 0.4144(3) -0.18174(12) 0.8245(2)
N2_2 N 0.1553(3) -0.09547(14) 0.7100(2)
N2B_2 N 0.8447(3) 0.09547(14) 0.2900(2)
C20 C -0.0844(12) 0.1441(7) 0.7490(12)
C21 C -0.0299(16) 0.1899(9) 0.6940(12)
H9 H -0.0992 0.2060 0.6458
H10 H 0.0477 0.1740 0.6568
C22 C 0.015(4) 0.2379(8) 0.7606(14)
H11 H -0.0291 0.2769 0.7404
H12 H 0.1150 0.2433 0.7553
C23 C -0.0153(16) 0.2246(9) 0.8643(13)
H13 H -0.0781 0.2553 0.8917
H14 H 0.0684 0.2221 0.9072
C24 C -0.1120(10) 0.1361(4) 0.9380(7)
H15 H -0.0971 0.1662 0.9913
H16 H -0.0525 0.1005 0.9501
H17 H -0.2073 0.1227 0.9364
N8 N -0.0833(11) 0.1618(8) 0.8506(12)
O6 O -0.1235(13) 0.0924(10) 0.7363(14)
loop_
_geom_bond_atom_site_label_1
_geom_bond_atom_site_label_2
_geom_bond_site_symmetry_1
_geom_bond_site_symmetry_2
Cd1 N3 1_555 1_555
Cd2 N3 1_555 1_555
C1 H1 1_555 1_555
C2 C1 1_555 1_555
H2 C2 1_555 1_555
C3 C2 1_555 1_555
C4 C3 1_555 1_555
H3 C4 1_555 1_555
C5 C4 1_555 1_555
H4 C5 1_555 1_555
C6 C3 1_555 1_555
C7 H5 1_555 1_555
C8 C7 1_555 1_555
H6 C8 1_555 1_555
C9 C8 1_555 1_555
C10 C9 1_555 1_555
H7 C10 1_555 1_555
C11 C10 1_555 1_555
H8 C11 1_555 1_555
C12 C9 1_555 1_555
C13 O5 1_555 1_555
C14 C15 1_555 1_555
C15 N6 1_555 1_555
N1 C1 1_555 1_555
N2 C7 1_555 1_555
N3 N4 1_555 1_555
N4 N5 1_555 1_555
O1 Cd1 1_555 1_555
O2 Cd2 1_555 1_555
O3 Cd1 1_555 1_555
O4 Cd2 1_555 1_555
O5 Cd2 1_555 1_555
C16 C13 1_555 1_555
N6 C13 1_555 1_555
C17 N6 1_555 1_555
C20 C21 1_555 1_555
C21 H9 1_555 1_555
H10 C21 1_555 1_555
C22 C21 1_555 1_555
H11 C22 1_555 1_555
H12 C22 1_555 1_555
C23 C22 1_555 1_555
H13 C23 1_555 1_555
H14 C23 1_555 1_555
C24 H15 1_555 1_555
H16 C24 1_555 1_555
H17 C24 1_555 1_555
N8 C20 1_555 1_555
O6 C20 1_555 1_555
Cd2B N3B 1_555 1_555
C1B H1B 1_555 1_555
C2B C1B 1_555 1_555
H2B C2B 1_555 1_555
C3B C2B 1_555 1_555
C4B C3B 1_555 1_555
H3B C4B 1_555 1_555
C5B C4B 1_555 1_555
H4B C5B 1_555 1_555
C6B C3B 1_555 1_555
C7B H5B 1_555 1_555
C8B C7B 1_555 1_555
H6B C8B 1_555 1_555
C9B C8B 1_555 1_555
C10B C9B 1_555 1_555
H7B C10B 1_555 1_555
C11B C10B 1_555 1_555
H8B C11B 1_555 1_555
C12B C9B 1_555 1_555
C13B O5B 1_555 1_555
C14B C15B 1_555 1_555
C15B N6B 1_555 1_555
N1B C1B 1_555 1_555
N2B C7B 1_555 1_555
N3B Cd1 1_555 1_555
N4B N3B 1_555 1_555
N5B N4B 1_555 1_555
O1B Cd1 1_555 1_555
O2B Cd2B 1_555 1_555
O3B Cd1 1_555 1_555
O4B Cd2B 1_555 1_555
O5B Cd2B 1_555 1_555
C16B C13B 1_555 1_555
N6B C13B 1_555 1_555
C17B N6B 1_555 1_555
Cd2_2 N2 1_555 1_555
Cd2A N1B 1_555 1_555
Cd2B_2 N2B 1_555 1_555
Cd2C N1 1_555 1_555
N1A Cd2B 1_555 1_555
N1C Cd2 1_555 1_555
N2_2 Cd2 1_555 1_555
N2B_2 Cd2B 1_555 1_555
C5 N1 1_555 1_555
C6 O1 1_555 1_555
C6 O2 1_555 1_555
C11 N2 1_555 1_555
C12 O3 1_555 1_555
C12 O4 1_555 1_555
C14 C16 1_555 1_555
C23 N8 1_555 1_555
C24 N8 1_555 1_555
C5B N1B 1_555 1_555
C6B O1B 1_555 1_555
C6B O2B 1_555 1_555
C11B N2B 1_555 1_555
C12B O3B 1_555 1_555
C12B O4B 1_555 1_555
C14B C16B 1_555 1_555

#END
