
#######################################################################
#
#                 Cambridge Crystallographic Data Centre
#                                CCDC 
#
#######################################################################
#
# If this CIF has been generated from an entry in the Cambridge 
# Structural Database, then it will include bibliographic, chemical, 
# crystal, experimental, refinement or atomic coordinate data resulting 
# from the CCDC's data processing and validation procedures.
#
#######################################################################

data_ROCZIU
_chemical_formula_moiety         '(C39 H46 Cd3 N16 O11)n'
_symmetry_cell_setting           monoclinic
_symmetry_space_group_name_H-M   'P 21/c'
_symmetry_Int_Tables_number      14
_space_group_name_Hall           '-P 2ybc'
loop_
_symmetry_equiv_pos_site_id
_symmetry_equiv_pos_as_xyz
1 x,y,z
2 -x,1/2+y,1/2-z
3 -x,-y,-z
4 x,1/2-y,1/2+z
_cell_length_a                   9.6380(12)
_cell_length_b                   15.4430(15)
_cell_length_c                   18.7170(16)
_cell_angle_alpha                90
_cell_angle_beta                 90.00
_cell_angle_gamma                90
_cell_volume                     2785.83
loop_
_atom_site_label
_atom_site_type_symbol
_atom_site_fract_x
_atom_site_fract_y
_atom_site_fract_z
Cd1 Cd 0.0000 0.0000 0.0000
Cd2 Cd 0.11647(3) -0.21690(2) -0.060981(17)
C1 C -0.5819(5) -0.1446(4) -0.0166(3)
H1 H -0.6425 -0.1073 0.0069
C2 C -0.4430(5) -0.1301(3) -0.0091(3)
H2 H -0.4111 -0.0838 0.0181
C3 C -0.3511(5) -0.1847(3) -0.0423(3)
C4 C -0.4070(5) -0.2515(3) -0.0817(3)
H3 H -0.3486 -0.2905 -0.1047
C5 C -0.5473(5) -0.2610(3) -0.0872(3)
H4 H -0.5817 -0.3063 -0.1148
C6 C -0.1981(5) -0.1689(3) -0.0369(3)
C7 C 0.0507(5) -0.1727(3) 0.2994(3)
H5 H -0.0064 -0.1466 0.3332
C8 C 0.0464(5) -0.1423(3) 0.2306(2)
H6 H -0.0099 -0.0956 0.2187
C9 C 0.1257(5) -0.1817(3) 0.1800(2)
C10 C 0.2087(5) -0.2497(3) 0.2009(3)
H7 H 0.2631 -0.2787 0.1676
C11 C 0.2105(5) -0.2744(3) 0.2715(3)
H8 H 0.2693 -0.3192 0.2852
C12 C 0.1189(5) -0.1528(3) 0.1031(2)
C13 C 0.1082(6) -0.4025(3) 0.0226(3)
C14 C 0.0371(7) -0.4506(4) 0.1313(3)
H9 H -0.0246 -0.4978 0.1440
H10 H 0.0355 -0.4075 0.1690
C15 C 0.1797(8) -0.4826(4) 0.1188(4)
H11 H 0.2412 -0.4666 0.1576
H12 H 0.1813 -0.5450 0.1129
C16 C -0.1307(6) -0.3687(4) 0.0539(4)
H13 H -0.1954 -0.3861 0.0901
H14 H -0.1675 -0.3829 0.0077
H15 H -0.1155 -0.3074 0.0568
C17 C 0.3491(7) -0.4492(5) 0.0209(5)
H16 H 0.4116 -0.4772 0.0534
H17 H 0.3852 -0.3932 0.0084
H18 H 0.3396 -0.4837 -0.0215
N1 N -0.6365(4) -0.2087(3) -0.0552(2)
N2 N 0.1321(4) -0.2373(2) 0.3206(2)
N3 N 0.1212(4) -0.0715(3) -0.0851(2)
N4 N 0.1710(6) -0.0368(3) -0.1333(3)
N5 N 0.2150(10) -0.0024(4) -0.1819(5)
N6 N -0.0016(5) -0.4134(3) 0.0643(2)
N7 N 0.2167(5) -0.4393(3) 0.0540(3)
O1 O 0.1066(4) -0.0741(2) 0.09189(17)
O2 O 0.1288(4) -0.2117(2) 0.05798(17)
O3 O -0.1612(3) -0.1071(2) 0.0007(2)
O4 O -0.1205(3) -0.2196(2) -0.07033(19)
O5 O 0.1095(4) -0.3657(2) -0.03721(19)
Cd2B Cd -0.11647(3) 0.21690(2) 0.060981(17)
C1B C 0.5819(5) 0.1446(4) 0.0166(3)
H1B H 0.6425 0.1073 -0.0069
C2B C 0.4430(5) 0.1301(3) 0.0091(3)
H2B H 0.4111 0.0838 -0.0181
C3B C 0.3511(5) 0.1847(3) 0.0423(3)
C4B C 0.4070(5) 0.2515(3) 0.0817(3)
H3B H 0.3486 0.2905 0.1047
C5B C 0.5473(5) 0.2610(3) 0.0872(3)
H4B H 0.5817 0.3063 0.1148
C6B C 0.1981(5) 0.1689(3) 0.0369(3)
C7B C -0.0507(5) 0.1727(3) -0.2994(3)
H5B H 0.0064 0.1466 -0.3332
C8B C -0.0464(5) 0.1423(3) -0.2306(2)
H6B H 0.0099 0.0956 -0.2187
C9B C -0.1257(5) 0.1817(3) -0.1800(2)
C10B C -0.2087(5) 0.2497(3) -0.2009(3)
H7B H -0.2631 0.2787 -0.1676
C11B C -0.2105(5) 0.2744(3) -0.2715(3)
H8B H -0.2693 0.3192 -0.2852
C12B C -0.1189(5) 0.1528(3) -0.1031(2)
C13B C -0.1082(6) 0.4025(3) -0.0226(3)
C14B C -0.0371(7) 0.4506(4) -0.1313(3)
H9B H 0.0246 0.4978 -0.1440
H10B H -0.0355 0.4075 -0.1690
C15B C -0.1797(8) 0.4826(4) -0.1188(4)
H11B H -0.2412 0.4666 -0.1576
H12B H -0.1813 0.5450 -0.1129
C16B C 0.1307(6) 0.3687(4) -0.0539(4)
H13B H 0.1954 0.3861 -0.0901
H14B H 0.1675 0.3829 -0.0077
H15B H 0.1155 0.3074 -0.0568
C17B C -0.3491(7) 0.4492(5) -0.0209(5)
H16B H -0.4116 0.4772 -0.0534
H17B H -0.3852 0.3932 -0.0084
H18B H -0.3396 0.4837 0.0215
N1B N 0.6365(4) 0.2087(3) 0.0552(2)
N2B N -0.1321(4) 0.2373(2) -0.3206(2)
N3B N -0.1212(4) 0.0715(3) 0.0851(2)
N4B N -0.1710(6) 0.0368(3) 0.1333(3)
N5B N -0.2150(10) 0.0024(4) 0.1819(5)
N6B N 0.0016(5) 0.4134(3) -0.0643(2)
N7B N -0.2167(5) 0.4393(3) -0.0540(3)
O1B O -0.1066(4) 0.0741(2) -0.09189(17)
O2B O -0.1288(4) 0.2117(2) -0.05798(17)
O3B O 0.1612(3) 0.1071(2) -0.0007(2)
O4B O 0.1205(3) 0.2196(2) 0.07033(19)
O5B O -0.1095(4) 0.3657(2) 0.03721(19)
Cd2_2 Cd -0.88353(3) -0.21690(2) -0.060981(17)
Cd2A Cd -0.11647(3) 0.28310(2) -0.439019(17)
Cd2B_2 Cd 0.88353(3) 0.21690(2) 0.060981(17)
Cd2C Cd 0.11647(3) -0.28310(2) 0.439019(17)
N1_2 N 0.3635(4) -0.2087(3) -0.0552(2)
N1B_2 N -0.3635(4) 0.2087(3) 0.0552(2)
N2A N -0.1321(4) 0.2627(2) 0.1794(2)
N2C N 0.1321(4) -0.2627(2) -0.1794(2)
C18 C -0.4128(8) -0.3755(5) 0.2108(5)
C19 C -0.2141(8) -0.3271(5) 0.2598(4)
H19 H -0.2077 -0.2895 0.3012
H20 H -0.1304 -0.3212 0.2314
C20 C -0.2378(8) -0.4193(5) 0.2813(4)
H21 H -0.1595 -0.4555 0.2683
H22 H -0.2541 -0.4242 0.3323
C21 C -0.3595(9) -0.2259(5) 0.1871(6)
H23 H -0.2872 -0.1866 0.2009
H24 H -0.4474 -0.2040 0.2031
H25 H -0.3605 -0.2315 0.1360
C22 C -0.4199(11) -0.5244(6) 0.2512(9)
H26 H -0.3579 -0.5634 0.2752
H27 H -0.4424 -0.5473 0.2049
H28 H -0.5032 -0.5180 0.2787
N8 N -0.3349(7) -0.3083(4) 0.2185(4)
N9 N -0.3539(7) -0.4412(4) 0.2430(6)
O6 O -0.5207(7) -0.3774(4) 0.1757(5)
loop_
_geom_bond_atom_site_label_1
_geom_bond_atom_site_label_2
_geom_bond_site_symmetry_1
_geom_bond_site_symmetry_2
Cd1 N3 1_555 1_555
Cd2 N3 1_555 1_555
C1 H1 1_555 1_555
C2 C1 1_555 1_555
H2 C2 1_555 1_555
C3 C2 1_555 1_555
C4 C3 1_555 1_555
H3 C4 1_555 1_555
C5 C4 1_555 1_555
H4 C5 1_555 1_555
C6 C3 1_555 1_555
C7 H5 1_555 1_555
C8 C7 1_555 1_555
H6 C8 1_555 1_555
C9 C8 1_555 1_555
C10 C9 1_555 1_555
H7 C10 1_555 1_555
C11 C10 1_555 1_555
H8 C11 1_555 1_555
C12 C9 1_555 1_555
C13 N6 1_555 1_555
C14 H9 1_555 1_555
H10 C14 1_555 1_555
C15 C14 1_555 1_555
H11 C15 1_555 1_555
H12 C15 1_555 1_555
C16 H13 1_555 1_555
H14 C16 1_555 1_555
H15 C16 1_555 1_555
C17 H16 1_555 1_555
H17 C17 1_555 1_555
H18 C17 1_555 1_555
N1 C1 1_555 1_555
N2 C7 1_555 1_555
N3 N4 1_555 1_555
N4 N5 1_555 1_555
N6 C14 1_555 1_555
N7 C13 1_555 1_555
O1 Cd1 1_555 1_555
O2 Cd2 1_555 1_555
O3 Cd1 1_555 1_555
O4 Cd2 1_555 1_555
O5 Cd2 1_555 1_555
C18 N8 1_555 1_555
C19 H19 1_555 1_555
H20 C19 1_555 1_555
C20 C19 1_555 1_555
H21 C20 1_555 1_555
H22 C20 1_555 1_555
C21 H23 1_555 1_555
H24 C21 1_555 1_555
H25 C21 1_555 1_555
C22 H26 1_555 1_555
H27 C22 1_555 1_555
H28 C22 1_555 1_555
N8 C19 1_555 1_555
N9 C18 1_555 1_555
O6 C18 1_555 1_555
Cd2B N3B 1_555 1_555
C1B H1B 1_555 1_555
C2B C1B 1_555 1_555
H2B C2B 1_555 1_555
C3B C2B 1_555 1_555
C4B C3B 1_555 1_555
H3B C4B 1_555 1_555
C5B C4B 1_555 1_555
H4B C5B 1_555 1_555
C6B C3B 1_555 1_555
C7B H5B 1_555 1_555
C8B C7B 1_555 1_555
H6B C8B 1_555 1_555
C9B C8B 1_555 1_555
C10B C9B 1_555 1_555
H7B C10B 1_555 1_555
C11B C10B 1_555 1_555
H8B C11B 1_555 1_555
C12B C9B 1_555 1_555
C13B N6B 1_555 1_555
C14B H9B 1_555 1_555
H10B C14B 1_555 1_555
C15B C14B 1_555 1_555
H11B C15B 1_555 1_555
H12B C15B 1_555 1_555
C16B H13B 1_555 1_555
H14B C16B 1_555 1_555
H15B C16B 1_555 1_555
C17B H16B 1_555 1_555
H17B C17B 1_555 1_555
H18B C17B 1_555 1_555
N1B C1B 1_555 1_555
N2B C7B 1_555 1_555
N3B Cd1 1_555 1_555
N4B N3B 1_555 1_555
N5B N4B 1_555 1_555
N6B C14B 1_555 1_555
N7B C13B 1_555 1_555
O1B Cd1 1_555 1_555
O2B Cd2B 1_555 1_555
O3B Cd1 1_555 1_555
O4B Cd2B 1_555 1_555
O5B Cd2B 1_555 1_555
Cd2_2 N1 1_555 1_555
Cd2A N2B 1_555 1_555
Cd2B_2 N1B 1_555 1_555
Cd2C N2 1_555 1_555
N1_2 Cd2 1_555 1_555
N1B_2 Cd2B 1_555 1_555
N2A Cd2B 1_555 1_555
N2C Cd2 1_555 1_555
C5 N1 1_555 1_555
C6 O3 1_555 1_555
C6 O4 1_555 1_555
C11 N2 1_555 1_555
C12 O1 1_555 1_555
C12 O2 1_555 1_555
C13 O5 1_555 1_555
C15 N7 1_555 1_555
C16 N6 1_555 1_555
C17 N7 1_555 1_555
C20 N9 1_555 1_555
C21 N8 1_555 1_555
C22 N9 1_555 1_555
C5B N1B 1_555 1_555
C6B O3B 1_555 1_555
C6B O4B 1_555 1_555
C11B N2B 1_555 1_555
C12B O1B 1_555 1_555
C12B O2B 1_555 1_555
C13B O5B 1_555 1_555
C15B N7B 1_555 1_555
C16B N6B 1_555 1_555
C17B N7B 1_555 1_555

#END
