
#######################################################################
#
#                 Cambridge Crystallographic Data Centre
#                                CCDC 
#
#######################################################################
#
# If this CIF has been generated from an entry in the Cambridge 
# Structural Database, then it will include bibliographic, chemical, 
# crystal, experimental, refinement or atomic coordinate data resulting 
# from the CCDC's data processing and validation procedures.
#
#######################################################################

data_RODBAP
_chemical_formula_moiety         '(C44 H56 Cd3 N34 O4)n'
_symmetry_cell_setting           monoclinic
_symmetry_space_group_name_H-M   'P 21/c'
_symmetry_Int_Tables_number      14
_space_group_name_Hall           '-P 2ybc'
loop_
_symmetry_equiv_pos_site_id
_symmetry_equiv_pos_as_xyz
1 x,y,z
2 -x,1/2+y,1/2-z
3 -x,-y,-z
4 x,1/2-y,1/2+z
_cell_length_a                   11.0540(5)
_cell_length_b                   22.7230(10)
_cell_length_c                   14.6660(7)
_cell_angle_alpha                90
_cell_angle_beta                 96.800(4)
_cell_angle_gamma                90
_cell_volume                     3657.89
loop_
_atom_site_label
_atom_site_type_symbol
_atom_site_fract_x
_atom_site_fract_y
_atom_site_fract_z
Cd1 Cd 0.0000 0.0000 0.0000
Cd2 Cd 0.139252(18) -0.075450(8) 0.211064(12)
C1 C 0.1057(4) -0.28857(14) -0.2427(2)
H1 H 0.0908 -0.2875 -0.3064
C2 C 0.0967(4) -0.23700(15) -0.1947(2)
H2 H 0.0767 -0.2020 -0.2257
C3 C 0.1176(3) -0.23790(12) -0.09987(19)
C4 C 0.1500(3) -0.29089(13) -0.0579(2)
H3 H 0.1666 -0.2931 0.0056
C5 C 0.1574(3) -0.34032(13) -0.1110(2)
H4 H 0.1792 -0.3757 -0.0818
C6 C 0.1072(3) -0.18402(12) -0.04684(18)
C7 C -0.6097(3) -0.06745(15) 0.1204(2)
H5 H -0.6681 -0.0597 0.0709
C8 C -0.4899(3) -0.06404(15) 0.1072(2)
H6 H -0.4683 -0.0537 0.0499
C9 C -0.3998(3) -0.07602(13) 0.1796(2)
C10 C -0.4380(3) -0.09284(16) 0.2617(2)
H7 H -0.3813 -0.1031 0.3111
C11 C -0.5615(3) -0.09440(15) 0.2704(2)
H8 H -0.5854 -0.1050 0.3268
C12 C -0.2716(3) -0.06833(13) 0.16536(19)
C13 C 0.1441(3) 0.01379(14) 0.4024(2)
C14 C 0.1421(6) 0.0670(2) 0.5358(3)
H9 H 0.2044 0.0961 0.5543
H10 H 0.1062 0.0541 0.5896
C15 C 0.0491(5) 0.0910(2) 0.4663(3)
H11 H -0.0315 0.0872 0.4856
H12 H 0.0645 0.1322 0.4549
C16 C 0.2967(6) -0.0161(2) 0.5271(4)
H13 H 0.3167 -0.0066 0.5909
H14 H 0.3646 -0.0067 0.4945
H15 H 0.2786 -0.0573 0.5208
C17 C -0.0129(5) 0.0654(2) 0.3002(3)
H16 H -0.0662 0.0982 0.3055
H17 H -0.0604 0.0308 0.2838
H18 H 0.0389 0.0734 0.2536
N1 N 0.1348(2) -0.34004(10) -0.20208(16)
N2 N 0.0696(3) -0.13258(11) -0.08311(17)
N3 N 0.0734(2) -0.09679(11) -0.01201(16)
N4 N 0.1129(2) -0.12547(10) 0.06417(16)
N5 N 0.1342(3) -0.18099(10) 0.04378(16)
N6 N -0.6479(2) -0.08144(11) 0.20182(17)
N7 N -0.2388(2) -0.04084(12) 0.09230(17)
N8 N -0.1188(2) -0.04101(12) 0.10483(16)
N9 N -0.0798(2) -0.06808(11) 0.18243(16)
N10 N -0.1754(2) -0.08596(12) 0.22294(16)
N11 N 0.1427(2) 0.00862(10) 0.12526(16)
N12 N 0.2190(3) 0.04515(13) 0.1347(2)
N13 N 0.2931(5) 0.0801(2) 0.1434(4)
N14 N 0.0598(3) 0.05602(15) 0.3856(2)
N15 N 0.1931(4) 0.01729(17) 0.4902(2)
O1 O 0.1723(2) -0.02356(10) 0.34761(15)
Cd2B Cd -0.139252(18) 0.075450(8) -0.211064(12)
C1B C -0.1057(4) 0.28857(14) 0.2427(2)
H1B H -0.0908 0.2875 0.3064
C2B C -0.0967(4) 0.23700(15) 0.1947(2)
H2B H -0.0767 0.2020 0.2257
C3B C -0.1176(3) 0.23790(12) 0.09987(19)
C4B C -0.1500(3) 0.29089(13) 0.0579(2)
H3B H -0.1666 0.2931 -0.0056
C5B C -0.1574(3) 0.34032(13) 0.1110(2)
H4B H -0.1792 0.3757 0.0818
C6B C -0.1072(3) 0.18402(12) 0.04684(18)
C7B C 0.6097(3) 0.06745(15) -0.1204(2)
H5B H 0.6681 0.0597 -0.0709
C8B C 0.4899(3) 0.06404(15) -0.1072(2)
H6B H 0.4683 0.0537 -0.0499
C9B C 0.3998(3) 0.07602(13) -0.1796(2)
C10B C 0.4380(3) 0.09284(16) -0.2617(2)
H7B H 0.3813 0.1031 -0.3111
C11B C 0.5615(3) 0.09440(15) -0.2704(2)
H8B H 0.5854 0.1050 -0.3268
C12B C 0.2716(3) 0.06833(13) -0.16536(19)
C13B C -0.1441(3) -0.01379(14) -0.4024(2)
C14B C -0.1421(6) -0.0670(2) -0.5358(3)
H9B H -0.2044 -0.0961 -0.5543
H10B H -0.1062 -0.0541 -0.5896
C15B C -0.0491(5) -0.0910(2) -0.4663(3)
H11B H 0.0315 -0.0872 -0.4856
H12B H -0.0645 -0.1322 -0.4549
C16B C -0.2967(6) 0.0161(2) -0.5271(4)
H13B H -0.3167 0.0066 -0.5909
H14B H -0.3646 0.0067 -0.4945
H15B H -0.2786 0.0573 -0.5208
C17B C 0.0129(5) -0.0654(2) -0.3002(3)
H16B H 0.0662 -0.0982 -0.3055
H17B H 0.0604 -0.0308 -0.2838
H18B H -0.0389 -0.0734 -0.2536
N1B N -0.1348(2) 0.34004(10) 0.20208(16)
N2B N -0.0696(3) 0.13258(11) 0.08311(17)
N3B N -0.0734(2) 0.09679(11) 0.01201(16)
N4B N -0.1129(2) 0.12547(10) -0.06417(16)
N5B N -0.1342(3) 0.18099(10) -0.04378(16)
N6B N 0.6479(2) 0.08144(11) -0.20182(17)
N7B N 0.2388(2) 0.04084(12) -0.09230(17)
N8B N 0.1188(2) 0.04101(12) -0.10483(16)
N9B N 0.0798(2) 0.06808(11) -0.18243(16)
N10B N 0.1754(2) 0.08596(12) -0.22294(16)
N11B N -0.1427(2) -0.00862(10) -0.12526(16)
N12B N -0.2190(3) -0.04515(13) -0.1347(2)
N13B N -0.2931(5) -0.0801(2) -0.1434(4)
N14B N -0.0598(3) -0.05602(15) -0.3856(2)
N15B N -0.1931(4) -0.01729(17) -0.4902(2)
O1B O -0.1723(2) 0.02356(10) -0.34761(15)
Cd2_2 Cd -0.860748(18) -0.075450(8) 0.211064(12)
Cd2A Cd -0.139252(18) 0.424550(8) 0.288936(12)
Cd2B_2 Cd 0.860748(18) 0.075450(8) -0.211064(12)
Cd2C Cd 0.139252(18) -0.424550(8) -0.288936(12)
N1A N -0.1348(2) 0.15996(10) -0.29792(16)
N1C N 0.1348(2) -0.15996(10) 0.29792(16)
N6_2 N 0.3521(2) -0.08144(11) 0.20182(17)
N6B_2 N -0.3521(2) 0.08144(11) -0.20182(17)
C18 C 0.3511(4) -0.33009(18) 0.2201(3)
C19 C 0.4365(5) -0.3165(2) 0.3682(3)
H19 H 0.5162 -0.3344 0.3820
H20 H 0.4014 -0.3102 0.4249
C20 C 0.4435(5) -0.2593(2) 0.3146(4)
H21 H 0.3866 -0.2303 0.3327
H22 H 0.5251 -0.2430 0.3229
C21 C 0.3424(5) -0.4138(2) 0.3230(4)
H23 H 0.3513 -0.4207 0.3880
H24 H 0.4027 -0.4361 0.2957
H25 H 0.2626 -0.4259 0.2967
C22 C 0.4058(5) -0.2388(2) 0.1452(4)
H26 H 0.4545 -0.2046 0.1617
H27 H 0.3229 -0.2271 0.1272
H28 H 0.4367 -0.2586 0.0950
N16 N 0.3586(4) -0.35165(17) 0.3054(3)
N17 N 0.4107(3) -0.27803(15) 0.2230(3)
O2 O 0.2999(4) -0.35318(14) 0.1506(2)
C23 C 0.6870(7) -0.3018(4) 0.0283(7)
C24 C 0.7309(10) -0.3079(5) 0.1838(8)
H29 H 0.7944 -0.3329 0.2143
H30 H 0.6713 -0.3002 0.2258
C25 C 0.7866(9) -0.2484(5) 0.1517(9)
H31 H 0.7521 -0.2145 0.1794
H32 H 0.8746 -0.2477 0.1657
C26 C 0.6094(10) -0.3860(4) 0.1210(8)
H33 H 0.5760 -0.4010 0.0622
H34 H 0.5444 -0.3769 0.1567
H35 H 0.6616 -0.4152 0.1525
C27 C 0.7771(8) -0.2109(5) -0.0123(9)
H36 H 0.8206 -0.1779 0.0163
H37 H 0.7025 -0.1974 -0.0461
H38 H 0.8262 -0.2299 -0.0533
N18 N 0.6791(8) -0.3332(4) 0.1085(7)
N19 N 0.7503(7) -0.2511(4) 0.0557(8)
O3 O 0.6375(6) -0.3175(3) -0.0416(5)
loop_
_geom_bond_atom_site_label_1
_geom_bond_atom_site_label_2
_geom_bond_site_symmetry_1
_geom_bond_site_symmetry_2
Cd1 N3 1_555 1_555
Cd2 N4 1_555 1_555
C1 H1 1_555 1_555
C2 C1 1_555 1_555
H2 C2 1_555 1_555
C3 C2 1_555 1_555
C4 C3 1_555 1_555
H3 C4 1_555 1_555
C5 C4 1_555 1_555
H4 C5 1_555 1_555
C6 C3 1_555 1_555
C7 H5 1_555 1_555
C8 C7 1_555 1_555
H6 C8 1_555 1_555
C9 C8 1_555 1_555
C10 C9 1_555 1_555
H7 C10 1_555 1_555
C11 C10 1_555 1_555
H8 C11 1_555 1_555
C12 C9 1_555 1_555
C13 N14 1_555 1_555
C14 H9 1_555 1_555
H10 C14 1_555 1_555
C15 C14 1_555 1_555
H11 C15 1_555 1_555
H12 C15 1_555 1_555
C16 H13 1_555 1_555
H14 C16 1_555 1_555
H15 C16 1_555 1_555
C17 H16 1_555 1_555
H17 C17 1_555 1_555
H18 C17 1_555 1_555
N1 C1 1_555 1_555
N2 C6 1_555 1_555
N3 N2 1_555 1_555
N4 N3 1_555 1_555
N5 C6 1_555 1_555
N6 C7 1_555 1_555
N7 C12 1_555 1_555
N8 Cd1 1_555 1_555
N9 Cd2 1_555 1_555
N10 C12 1_555 1_555
N11 Cd1 1_555 1_555
N12 N11 1_555 1_555
N13 N12 1_555 1_555
N14 C15 1_555 1_555
N15 C13 1_555 1_555
O1 Cd2 1_555 1_555
C18 N16 1_555 1_555
C19 H19 1_555 1_555
H20 C19 1_555 1_555
C20 C19 1_555 1_555
H21 C20 1_555 1_555
H22 C20 1_555 1_555
C21 H23 1_555 1_555
H24 C21 1_555 1_555
H25 C21 1_555 1_555
C22 H26 1_555 1_555
H27 C22 1_555 1_555
H28 C22 1_555 1_555
N16 C19 1_555 1_555
N17 C18 1_555 1_555
O2 C18 1_555 1_555
C23 N18 1_555 1_555
C24 H29 1_555 1_555
H30 C24 1_555 1_555
C25 C24 1_555 1_555
H31 C25 1_555 1_555
H32 C25 1_555 1_555
C26 H33 1_555 1_555
H34 C26 1_555 1_555
H35 C26 1_555 1_555
C27 H36 1_555 1_555
H37 C27 1_555 1_555
H38 C27 1_555 1_555
N18 C24 1_555 1_555
N19 C23 1_555 1_555
O3 C23 1_555 1_555
Cd2B N4B 1_555 1_555
C1B H1B 1_555 1_555
C2B C1B 1_555 1_555
H2B C2B 1_555 1_555
C3B C2B 1_555 1_555
C4B C3B 1_555 1_555
H3B C4B 1_555 1_555
C5B C4B 1_555 1_555
H4B C5B 1_555 1_555
C6B C3B 1_555 1_555
C7B H5B 1_555 1_555
C8B C7B 1_555 1_555
H6B C8B 1_555 1_555
C9B C8B 1_555 1_555
C10B C9B 1_555 1_555
H7B C10B 1_555 1_555
C11B C10B 1_555 1_555
H8B C11B 1_555 1_555
C12B C9B 1_555 1_555
C13B N14B 1_555 1_555
C14B H9B 1_555 1_555
H10B C14B 1_555 1_555
C15B C14B 1_555 1_555
H11B C15B 1_555 1_555
H12B C15B 1_555 1_555
C16B H13B 1_555 1_555
H14B C16B 1_555 1_555
H15B C16B 1_555 1_555
C17B H16B 1_555 1_555
H17B C17B 1_555 1_555
H18B C17B 1_555 1_555
N1B C1B 1_555 1_555
N2B C6B 1_555 1_555
N3B Cd1 1_555 1_555
N4B N3B 1_555 1_555
N5B C6B 1_555 1_555
N6B C7B 1_555 1_555
N7B C12B 1_555 1_555
N8B Cd1 1_555 1_555
N9B Cd2B 1_555 1_555
N10B C12B 1_555 1_555
N11B Cd1 1_555 1_555
N12B N11B 1_555 1_555
N13B N12B 1_555 1_555
N14B C15B 1_555 1_555
N15B C13B 1_555 1_555
O1B Cd2B 1_555 1_555
Cd2_2 N6 1_555 1_555
Cd2A N1B 1_555 1_555
Cd2B_2 N6B 1_555 1_555
Cd2C N1 1_555 1_555
N1A Cd2B 1_555 1_555
N1C Cd2 1_555 1_555
N6_2 Cd2 1_555 1_555
N6B_2 Cd2B 1_555 1_555
Cd2 N11 1_555 1_555
C5 N1 1_555 1_555
C11 N6 1_555 1_555
C13 O1 1_555 1_555
C14 N15 1_555 1_555
C16 N15 1_555 1_555
C17 N14 1_555 1_555
N4 N5 1_555 1_555
N7 N8 1_555 1_555
N8 N9 1_555 1_555
N9 N10 1_555 1_555
C20 N17 1_555 1_555
C21 N16 1_555 1_555
C22 N17 1_555 1_555
C25 N19 1_555 1_555
C26 N18 1_555 1_555
C27 N19 1_555 1_555
Cd2B N11B 1_555 1_555
C5B N1B 1_555 1_555
C11B N6B 1_555 1_555
C13B O1B 1_555 1_555
C14B N15B 1_555 1_555
C16B N15B 1_555 1_555
C17B N14B 1_555 1_555
N2B N3B 1_555 1_555
N4B N5B 1_555 1_555
N7B N8B 1_555 1_555
N8B N9B 1_555 1_555
N9B N10B 1_555 1_555

#END
