
#######################################################################
#
#                 Cambridge Crystallographic Data Centre
#                                CCDC 
#
#######################################################################
#
# If this CIF has been generated from an entry in the Cambridge 
# Structural Database, then it will include bibliographic, chemical, 
# crystal, experimental, refinement or atomic coordinate data resulting 
# from the CCDC's data processing and validation procedures.
#
#######################################################################

data_WUVGOL
_chemical_formula_moiety         '(C15 H10 Cd3 N6 O14)n'
_symmetry_cell_setting           monoclinic
_symmetry_space_group_name_H-M   'P c'
_symmetry_Int_Tables_number      7
_space_group_name_Hall           'P -2yc'
loop_
_symmetry_equiv_pos_site_id
_symmetry_equiv_pos_as_xyz
1 x,y,z
2 x,-y,1/2+z
_cell_length_a                   8.8438(7)
_cell_length_b                   12.7821(9)
_cell_length_c                   12.2085(8)
_cell_angle_alpha                90
_cell_angle_beta                 100.063(7)
_cell_angle_gamma                90
_cell_volume                     1358.85
loop_
_atom_site_label
_atom_site_type_symbol
_atom_site_fract_x
_atom_site_fract_y
_atom_site_fract_z
Cd1 Cd 0.22015(2) 0.913965(19) 0.38475(2)
Cd2 Cd 0.20626(3) 0.790953(19) 0.03396(2)
Cd3 Cd 0.26321(3) 0.56056(2) 0.34974(3)
O1 O 0.0039(3) 0.6050(2) 0.3615(3)
O2 O 0.1735(3) 0.7301(2) 0.3837(2)
O3 O -0.5463(3) 0.8454(3) 0.4175(3)
O4 O -0.4619(4) 1.0038(2) 0.4012(3)
O5 O 0.4842(3) 0.5900(2) 0.2855(3)
O6 O 0.2867(3) 0.6551(2) 0.1698(2)
O7 O 0.9815(3) 0.7268(2) 0.0656(3)
H1 H 1.0320(12) 0.6718(6) 0.057(2)
O8 O 0.8845(4) 0.8701(3) -0.0214(3)
O9 O 0.2190(5) 0.4195(2) 0.2217(3)
O10 O 0.2133(4) 0.3831(2) 0.3988(3)
O11 O 0.2343(3) -0.0112(2) 0.0423(2)
O12 O 0.2035(3) -0.0989(2) 0.1899(2)
N1 N -0.0383(3) 0.8766(3) 0.4010(3)
N2 N -0.1609(4) 0.9284(2) 0.4100(3)
H2 H -0.1622 0.9953 0.4172
N3 N 0.4757(4) 0.7747(2) 0.0673(3)
N4 N 0.5944(4) 0.8125(3) 0.0250(3)
H3 H 0.5878 0.8623 -0.0229
N5 N 0.1917(4) 0.1737(2) 0.3531(3)
N6 N 0.1904(4) 0.0768(2) 0.3095(3)
C1 C 0.0376(4) 0.6975(3) 0.3759(3)
C2 C -0.0814(4) 0.7753(3) 0.3914(3)
C3 C -0.2357(4) 0.7664(3) 0.3955(3)
H4 H -0.2938 0.7054 0.3914
C4 C -0.2857(4) 0.8687(3) 0.4071(4)
C5 C -0.4434(5) 0.9112(3) 0.4090(4)
C6 C 0.4268(4) 0.6435(3) 0.2003(3)
C7 C 0.5324(4) 0.6984(3) 0.1367(3)
C8 C 0.6888(4) 0.6874(4) 0.1373(3)
H5 H 0.7559 0.6392 0.1770
C9 C 0.7220(4) 0.7634(3) 0.0660(3)
C10 C 0.8723(5) 0.7905(3) 0.0347(4)
C11 C 0.2090(5) 0.3552(3) 0.2986(4)
C12 C 0.2022(5) 0.2434(3) 0.2720(3)
C13 C 0.2115(5) 0.1914(3) 0.1738(4)
H6 H 0.2205 0.2200 0.1052
C14 C 0.2039(5) 0.0846(3) 0.2026(3)
C15 C 0.2151(5) -0.0105(3) 0.1404(3)
O13 O 0.3875(5) 0.5731(3) 0.5330(3)
H7 H 0.4161(16) 0.6151(6) 0.4867(8)
H8 H 0.4411(12) 0.5184(5) 0.5281(19)
Cd1_2 Cd -0.77985(2) 0.913965(19) 0.38475(2)
Cd1_3 Cd 0.22015(2) -0.086035(19) 0.38475(2)
Cd1A Cd 0.22015(2) 0.086035(19) -0.11525(2)
Cd2_2 Cd 0.20626(3) -0.209047(19) 0.03396(2)
Cd2_3 Cd 1.20626(3) 0.790953(19) 0.03396(2)
Cd2A Cd 0.20626(3) 0.209047(19) 0.53396(2)
O3_2 O 0.4537(3) 0.8454(3) 0.4175(3)
O7_2 O -0.0185(3) 0.7268(2) 0.0656(3)
O10A O 0.2133(4) 0.6169(2) -0.1012(3)
O11_2 O 0.2343(3) 0.9888(2) 0.0423(2)
O11A O 0.2343(3) 1.0112(2) 0.5423(2)
O12_2 O 0.2035(3) 0.9011(2) 0.1899(2)
N5A N 0.1917(4) 0.8263(2) -0.1469(3)
N6_2 N 0.1904(4) 1.0768(2) 0.3095(3)
O14 O -0.0055(4) 0.5204(2) 0.0555(3)
H9 H 0.0857(6) 0.5033(16) 0.0844(18)
H10 H -0.0611(8) 0.4810(8) 0.0882(10)
loop_
_geom_bond_atom_site_label_1
_geom_bond_atom_site_label_2
_geom_bond_site_symmetry_1
_geom_bond_site_symmetry_2
Cd1 O2 1_555 1_555
Cd2 O6 1_555 1_555
Cd3 O1 1_555 1_555
O1 C1 1_555 1_555
O2 Cd3 1_555 1_555
O3 C5 1_555 1_555
O4 C5 1_555 1_555
O5 Cd3 1_555 1_555
O6 Cd3 1_555 1_555
O7 H1 1_555 1_555
O8 C10 1_555 1_555
O9 Cd3 1_555 1_555
O10 Cd3 1_555 1_555
O11 C15 1_555 1_555
O12 C15 1_555 1_555
N1 Cd1 1_555 1_555
N2 N1 1_555 1_555
H2 N2 1_555 1_555
N3 Cd2 1_555 1_555
N4 N3 1_555 1_555
H3 N4 1_555 1_555
N5 N6 1_555 1_555
N6 C14 1_555 1_555
C1 O2 1_555 1_555
C2 N1 1_555 1_555
C3 C2 1_555 1_555
H4 C3 1_555 1_555
C4 N2 1_555 1_555
C5 C4 1_555 1_555
C6 O5 1_555 1_555
C7 N3 1_555 1_555
C8 C7 1_555 1_555
H5 C8 1_555 1_555
C9 N4 1_555 1_555
C10 O7 1_555 1_555
C11 O9 1_555 1_555
C12 N5 1_555 1_555
C13 C12 1_555 1_555
H6 C13 1_555 1_555
C14 C13 1_555 1_555
C15 C14 1_555 1_555
O13 Cd3 1_555 1_555
H7 O13 1_555 1_555
H8 O13 1_555 1_555
O14 H9 1_555 1_555
H10 O14 1_555 1_555
Cd1_2 O3 1_555 1_555
Cd1_3 O12 1_555 1_555
Cd1A O11 1_555 1_555
Cd2_2 O11 1_555 1_555
Cd2_3 O7 1_555 1_555
Cd2A O10 1_555 1_555
O3_2 Cd1 1_555 1_555
O7_2 Cd2 1_555 1_555
O10A Cd2 1_555 1_555
O11_2 Cd2 1_555 1_555
O11A Cd1 1_555 1_555
O12_2 Cd1 1_555 1_555
N5A Cd2 1_555 1_555
N6_2 Cd1 1_555 1_555
Cd2 O12_2 1_555 1_555
O6 C6 1_555 1_555
O10 C11 1_555 1_555
O12 Cd2_2 1_555 1_555
N5 Cd2A 1_555 1_555
N6 Cd1_3 1_555 1_555
C1 C2 1_555 1_555
C3 C4 1_555 1_555
C6 C7 1_555 1_555
C8 C9 1_555 1_555
C9 C10 1_555 1_555
C11 C12 1_555 1_555

#END
