
#######################################################################
#
#                 Cambridge Crystallographic Data Centre
#                                CCDC 
#
#######################################################################
#
# If this CIF has been generated from an entry in the Cambridge 
# Structural Database, then it will include bibliographic, chemical, 
# crystal, experimental, refinement or atomic coordinate data resulting 
# from the CCDC's data processing and validation procedures.
#
#######################################################################

data_KOCWEF
_chemical_formula_moiety         '(C37 H33 Mn4 N17 O14)n'
_symmetry_cell_setting           orthorhombic
_symmetry_space_group_name_H-M   'C 2 2 21'
_symmetry_Int_Tables_number      20
_space_group_name_Hall           'C 2c 2'
loop_
_symmetry_equiv_pos_site_id
_symmetry_equiv_pos_as_xyz
1 x,y,z
2 -x,-y,1/2+z
3 -x,y,1/2-z
4 x,-y,-z
5 1/2+x,1/2+y,z
6 1/2-x,1/2-y,1/2+z
7 1/2-x,1/2+y,1/2-z
8 1/2+x,1/2-y,-z
_cell_length_a                   17.856(4)
_cell_length_b                   17.856(4)
_cell_length_c                   42.559(9)
_cell_angle_alpha                90
_cell_angle_beta                 90
_cell_angle_gamma                90
_cell_volume                     13569.4
loop_
_atom_site_label
_atom_site_type_symbol
_atom_site_fract_x
_atom_site_fract_y
_atom_site_fract_z
Mn1 Mn 0.22834(5) 0.51913(5) 0.11110(2)
Mn2 Mn 0.38392(6) 0.46386(6) 0.16891(2)
Mn3 Mn 0.03616(6) 0.61603(6) 0.08104(2)
Mn4 Mn 0.48088(5) 0.27156(5) 0.13899(2)
N1 N 0.3112(3) 0.4238(3) 0.10014(13)
O1 O 0.1393(3) 0.4453(3) 0.10859(17)
O2 O 0.5536(3) 0.3607(3) 0.14162(16)
N2 N 0.9073(4) 0.6760(4) 0.12623(17)
C1 C 0.5535(4) 0.4284(5) 0.1505(2)
N3 N -0.1754(4) 0.0931(3) 0.12398(18)
N4 N 0.3585(3) 0.4011(3) 0.12292(14)
O3 O 0.5005(3) 0.4593(3) 0.16325(15)
C2 C 0.0725(4) 0.4472(5) 0.09971(19)
O4 O 0.2528(3) 0.4743(5) 0.16416(15)
O5 O 0.0264(5) 0.7478(3) 0.08571(15)
N5 N 0.9300(3) 0.6185(4) 0.10883(18)
N6 N 0.3994(4) 0.3458(3) 0.11242(15)
C3 C 0.0646(5) 0.3129(5) 0.1162(3)
H1 H 0.1163 0.3133 0.1189
C4 C 0.6220(4) 0.4723(5) 0.1446(2)
C5 C 0.0273(5) 0.3772(4) 0.1054(2)
C6 C 0.6881(5) 0.4355(5) 0.1351(3)
H2 H 0.6887 0.3836 0.1336
C7 C -0.0882(5) 0.3117(5) 0.1089(3)
H3 H -0.1401 0.3121 0.1071
C8 C 0.0239(6) 0.2497(6) 0.1226(4)
H4 H 0.0486 0.2074 0.1300
C9 C -0.0486(5) 0.3760(5) 0.1018(3)
H5 H -0.0736 0.4184 0.0946
O6 O 0.0404(3) 0.5001(3) 0.08665(16)
O7 O 0.0681(3) 0.7735(4) 0.31712(13)
O8 O 0.1263(4) 0.8750(3) 0.29972(14)
N7 N -0.1197(4) 0.0702(3) 0.14100(16)
N8 N 0.0770(3) 0.6886(3) 0.14993(14)
N9 N 0.0989(3) 0.6418(3) 0.12691(14)
C10 C 0.0990(4) 0.8112(4) 0.29655(17)
N10 N 0.3822(4) 0.3322(4) 0.08231(15)
N11 N 0.1677(4) 0.6174(4) 0.16763(15)
N12 N -0.1612(4) 0.1612(4) 0.1129(2)
N13 N -0.0668(4) 0.1233(4) 0.1419(2)
C11 C 0.1195(4) 0.6729(4) 0.17436(17)
C12 C 0.1045(4) 0.7747(5) 0.26420(17)
N14 N 0.1538(3) 0.6008(4) 0.13843(15)
C13 C 0.3269(4) 0.3808(4) 0.07552(18)
C14 C 0.1129(7) 0.8172(5) 0.2375(2)
H6 H 0.1155 0.8691 0.2391
C15 C -0.0940(5) 0.1788(5) 0.1248(3)
N15 N 0.8383(4) 0.6614(4) 0.1371(2)
N16 N 0.8771(4) 0.5669(4) 0.1080(2)
C16 C 0.2255(5) 0.3942(4) -0.01417(19)
C17 C 0.2912(4) 0.3860(5) 0.04464(17)
C18 C 0.8219(5) 0.5931(4) 0.1266(2)
C19 C 0.1134(5) 0.7090(5) 0.20602(18)
C20 C 0.7529(5) 0.5540(5) 0.1320(2)
C21 C 0.2162(5) 0.3832(7) 0.0415(2)
H7 H 0.1862 0.3779 0.0592
C22 C -0.0531(5) 0.2471(5) 0.1184(3)
C23 C 0.3005(5) 0.3969(8) -0.0119(2)
H8 H 0.3299 0.4035 -0.0297
C24 C 0.6231(5) 0.5487(5) 0.1479(3)
H9 H 0.5800 0.5738 0.1542
C25 C 0.3341(5) 0.3894(9) 0.0177(2)
H10 H 0.3860 0.3868 0.0193
C26 C 0.6885(5) 0.5889(5) 0.1418(3)
H11 H 0.6885 0.6405 0.1445
C27 C 0.1173(7) 0.7840(5) 0.2091(2)
H12 H 0.1232 0.8135 0.1913
C28 C 0.1833(5) 0.3883(6) 0.01185(19)
H13 H 0.1314 0.3875 0.0101
C29 C 0.1891(5) 0.4004(4) -0.04617(17)
C30 C 0.1078(9) 0.6652(6) 0.2327(2)
H14 H 0.1088 0.6132 0.2312
C31 C 0.1010(8) 0.6990(6) 0.2607(2)
H15 H 0.0935 0.6696 0.2785
C32 C 0.7511(5) 0.4751(6) 0.1281(4)
H16 H 0.7933 0.4503 0.1207
O9 O 0.2269(4) 0.4321(4) -0.06721(14)
O10 O 0.1247(3) 0.3741(4) -0.04924(14)
N17 N -0.0371(5) 0.6204(6) 0.0384(2)
O11 O 0.3775(6) 0.5365(5) 0.21182(18)
H17 H 0.4197 0.5426 0.2190
C33 C -0.0121(8) 0.5789(8) 0.0135(4)
H18 H 0.0266 0.5446 0.0160
C34 C -0.0941(8) 0.6715(8) 0.0357(4)
H19 H -0.1101 0.6986 0.0531
C35 C -0.1279(9) 0.6820(9) 0.0063(5)
H20 H -0.1663 0.7170 0.0049
C36 C -0.0457(10) 0.5890(10) -0.0161(4)
H21 H -0.0279 0.5602 -0.0327
C37 C -0.1071(11) 0.6418(10) -0.0227(6)
H22 H -0.1294 0.6487 -0.0423
Mn1D Mn -0.27166(5) 0.01913(5) 0.11110(2)
Mn1C Mn 0.22834(5) 0.48087(5) -0.11110(2)
Mn2F Mn 0.11608(6) 0.96386(6) 0.33109(2)
Mn2D Mn -0.11608(6) -0.03614(6) 0.16891(2)
Mn3_2 Mn 1.03616(6) 0.61603(6) 0.08104(2)
Mn3C Mn 0.03616(6) 0.38397(6) -0.08104(2)
Mn4D Mn 0.98088(5) 0.77156(5) 0.13899(2)
Mn4D_2 Mn -0.01912(5) 0.77156(5) 0.13899(2)
Mn4F Mn 0.01912(5) 0.77156(5) 0.36101(2)
N2D N 0.4073(4) 0.1760(4) 0.12623(17)
N3D N 0.3246(4) 0.5931(3) 0.12398(18)
O5D O 0.5264(5) 0.2478(3) 0.08571(15)
N5_2 N -0.0700(3) 0.6185(4) 0.10883(18)
O7F O 0.4319(3) 0.2735(4) 0.18288(13)
O8F O 0.3737(4) 0.3750(3) 0.20028(14)
N7D N 0.3803(4) 0.5702(3) 0.14100(16)
N8D N 0.5770(3) 0.1886(3) 0.14993(14)
O9C O 0.2269(4) 0.5679(4) 0.06721(14)
O10C O 0.1247(3) 0.6259(4) 0.04924(14)
O12 O 0.2376(11) 0.2896(11) 0.1588(5)
O13 O 0.7141(14) 0.2587(14) 0.0893(6)
O14 O 0.185(2) 0.3703(19) 0.1888(8)
loop_
_geom_bond_atom_site_label_1
_geom_bond_atom_site_label_2
_geom_bond_site_symmetry_1
_geom_bond_site_symmetry_2
Mn1 N1 1_555 1_555
Mn2 N4 1_555 1_555
Mn3 O5 1_555 1_555
Mn4 O2 1_555 1_555
N1 N4 1_555 1_555
O1 Mn1 1_555 1_555
O2 C1 1_555 1_555
N2 N5 1_555 1_555
C1 O3 1_555 1_555
N3 N7 1_555 1_555
N4 N6 1_555 1_555
O3 Mn2 1_555 1_555
C2 O1 1_555 1_555
O4 Mn1 1_555 1_555
O5 Mn4D_2 1_555 1_555
N5 N16 1_555 1_555
N6 Mn4 1_555 1_555
C3 H1 1_555 1_555
C4 C1 1_555 1_555
C5 C2 1_555 1_555
C6 C4 1_555 1_555
H2 C6 1_555 1_555
C7 H3 1_555 1_555
C8 C3 1_555 1_555
H4 C8 1_555 1_555
C9 C5 1_555 1_555
H5 C9 1_555 1_555
O6 Mn3 1_555 1_555
O7 C10 1_555 1_555
O8 C10 1_555 1_555
N7 N13 1_555 1_555
N8 N9 1_555 1_555
N9 Mn3 1_555 1_555
C10 C12 1_555 1_555
N10 N6 1_555 1_555
N11 C11 1_555 1_555
N12 N3 1_555 1_555
N13 C15 1_555 1_555
C11 N8 1_555 1_555
C12 C14 1_555 1_555
N14 Mn1 1_555 1_555
C13 N1 1_555 1_555
C14 H6 1_555 1_555
C15 N12 1_555 1_555
N15 N2 1_555 1_555
N16 C18 1_555 1_555
C16 C23 1_555 1_555
C17 C13 1_555 1_555
C18 N15 1_555 1_555
C19 C11 1_555 1_555
C20 C18 1_555 1_555
C21 C17 1_555 1_555
H7 C21 1_555 1_555
C22 C7 1_555 1_555
C23 H8 1_555 1_555
C24 C4 1_555 1_555
H9 C24 1_555 1_555
C25 C17 1_555 1_555
H10 C25 1_555 1_555
C26 C20 1_555 1_555
H11 C26 1_555 1_555
C27 C14 1_555 1_555
H12 C27 1_555 1_555
C28 C16 1_555 1_555
H13 C28 1_555 1_555
C29 C16 1_555 1_555
C30 C19 1_555 1_555
H14 C30 1_555 1_555
C31 C12 1_555 1_555
H15 C31 1_555 1_555
C32 C6 1_555 1_555
H16 C32 1_555 1_555
O9 C29 1_555 1_555
O10 C29 1_555 1_555
N17 Mn3 1_555 1_555
O11 Mn2 1_555 1_555
H17 O11 1_555 1_555
C33 N17 1_555 1_555
H18 C33 1_555 1_555
C34 N17 1_555 1_555
H19 C34 1_555 1_555
C35 C34 1_555 1_555
H20 C35 1_555 1_555
C36 C33 1_555 1_555
H21 C36 1_555 1_555
C37 C35 1_555 1_555
H22 C37 1_555 1_555
Mn1D N3 1_555 1_555
Mn1C O9 1_555 1_555
Mn2F O8 1_555 1_555
Mn2D N7 1_555 1_555
Mn3_2 N5 1_555 1_555
Mn3C O10 1_555 1_555
Mn4D N2 1_555 1_555
Mn4D_2 N8 1_555 1_555
Mn4F O7 1_555 1_555
N2D Mn4 1_555 1_555
N3D Mn1 1_555 1_555
O5D Mn4 1_555 1_555
N5_2 Mn3 1_555 1_555
O7F Mn4 1_555 1_555
O8F Mn2 1_555 1_555
N7D Mn2 1_555 1_555
N8D Mn4 1_555 1_555
O9C Mn1 1_555 1_555
O10C Mn3 1_555 1_555
Mn2 O4 1_555 1_555
C2 O6 1_555 1_555
C3 C5 1_555 1_555
C7 C9 1_555 1_555
C8 C22 1_555 1_555
N9 N14 1_555 1_555
N10 C13 1_555 1_555
N11 N14 1_555 1_555
C15 C22 1_555 1_555
C19 C27 1_555 1_555
C20 C32 1_555 1_555
C21 C28 1_555 1_555
C23 C25 1_555 1_555
C24 C26 1_555 1_555
C30 C31 1_555 1_555
C36 C37 1_555 1_555
N3D N7D 1_555 1_555

#END
