
#######################################################################
#
#                 Cambridge Crystallographic Data Centre
#                                CCDC 
#
#######################################################################
#
# If this CIF has been generated from an entry in the Cambridge 
# Structural Database, then it will include bibliographic, chemical, 
# crystal, experimental, refinement or atomic coordinate data resulting 
# from the CCDC's data processing and validation procedures.
#
#######################################################################

data_LURRUM
_chemical_formula_moiety         'C52 H25 In9 O17'
_symmetry_cell_setting           orthorhombic
_symmetry_space_group_name_H-M   'C m m m'
_symmetry_Int_Tables_number      65
_space_group_name_Hall           '-C 2 2'
loop_
_symmetry_equiv_pos_site_id
_symmetry_equiv_pos_as_xyz
1 x,y,z
2 -x,-y,z
3 x,-y,-z
4 -x,y,-z
5 1/2+x,1/2+y,z
6 1/2-x,1/2-y,z
7 1/2+x,1/2-y,-z
8 1/2-x,1/2+y,-z
9 -x,-y,-z
10 x,y,-z
11 -x,y,z
12 x,-y,z
13 1/2-x,1/2-y,-z
14 1/2+x,1/2+y,-z
15 1/2-x,1/2+y,z
16 1/2+x,1/2-y,z
_cell_length_a                   30.748(18)
_cell_length_b                   7.120(4)
_cell_length_c                   15.932(9)
_cell_angle_alpha                90
_cell_angle_beta                 90
_cell_angle_gamma                90
_cell_volume                     3487.93
loop_
_atom_site_label
_atom_site_type_symbol
_atom_site_fract_x
_atom_site_fract_y
_atom_site_fract_z
In1 In 0.2500 0.2500 0.0000
O1 O 0.2837(3) 0.5000 0.0000
C1 C 0.1944(3) 0.5000 0.1223(5)
H1 H 0.3156(3) 0.5000 0.0000
O2 O 0.20593(18) 0.3484(8) 0.0956(3)
C2 C 0.0249(4) 0.5000 0.3393(7)
H2 H 0.0416 0.5000 0.2892
C3 C 0.0224(5) 0.5000 0.5000
C4 C 0.0901(3) 0.5000 0.4257(5)
C5 C 0.0441(3) 0.5000 0.4213(4)
C6 C 0.1139(6) 0.5000 0.5000
H3 H 0.1448 0.5000 0.5000
C13 C 0.1658(4) 0.497(3) 0.1963(6)
C16 C 0.1138(4) 0.523(2) 0.3455(7)
C17 C 0.1368(10) 0.683(3) 0.3119(16)
H10 H 0.1363 0.7994 0.3412
C18 C 0.1596(11) 0.668(3) 0.2369(17)
H11 H 0.1715 0.7783 0.2125
In1B In 0.2500 0.7500 0.0000
In1_2 In 0.2500 0.2500 1.0000
In1B_2 In 0.2500 0.7500 1.0000
In1C In -0.2500 0.2500 0.0000
In1A In -0.2500 0.7500 0.0000
In1A_2 In -0.2500 0.7500 1.0000
In1C_2 In -0.2500 0.2500 1.0000
In1B_3 In 0.2500 -0.2500 0.0000
O1E O 0.2163(3) 0.0000 0.0000
O1E_2 O 0.2163(3) 1.0000 0.0000
C1B C 0.1944(3) 0.5000 0.8777(5)
C1A C -0.1944(3) 0.5000 0.1223(5)
C1C C -0.1944(3) 0.5000 0.8777(5)
H1E H 0.1844(3) 0.0000 0.0000
H1E_2 H 0.1844(3) 1.0000 0.0000
O2K O 0.20593(18) 0.6516(8) 0.0956(3)
O2I O 0.20593(18) 0.3484(8) 0.9044(3)
O2B O 0.20593(18) 0.6516(8) 0.9044(3)
O2J O -0.20593(18) 0.3484(8) 0.0956(3)
O2A O -0.20593(18) 0.6516(8) 0.0956(3)
O2H O -0.20593(18) 0.6516(8) 0.9044(3)
O2C O -0.20593(18) 0.3484(8) 0.9044(3)
O2E O 0.29407(18) 0.1516(8) 0.0956(3)
O2I_2 O 0.20593(18) 0.3484(8) -0.0956(3)
O2L O 0.29407(18) 0.1516(8) -0.0956(3)
O2N O 0.29407(18) 0.8484(8) 0.0956(3)
O2B_2 O 0.20593(18) 0.6516(8) -0.0956(3)
O2G O 0.29407(18) 0.8484(8) -0.0956(3)
C2A C -0.0249(4) 0.5000 0.3393(7)
C2B C 0.0249(4) 0.5000 0.6607(7)
C2C C -0.0249(4) 0.5000 0.6607(7)
H2A H -0.0416 0.5000 0.2892
H2B H 0.0416 0.5000 0.7108
H2C H -0.0416 0.5000 0.7108
C3A C -0.0224(5) 0.5000 0.5000
C4B C 0.0901(3) 0.5000 0.5743(5)
C4C C -0.0901(3) 0.5000 0.5743(5)
C4A C -0.0901(3) 0.5000 0.4257(5)
C5A C -0.0441(3) 0.5000 0.4213(4)
C5B C 0.0441(3) 0.5000 0.5787(4)
C5C C -0.0441(3) 0.5000 0.5787(4)
C6A C -0.1139(6) 0.5000 0.5000
H3A H -0.1448 0.5000 0.5000
C13K C 0.1658(4) 0.503(3) 0.1963(6)
C13I C 0.1658(4) 0.497(3) 0.8037(6)
C13B C 0.1658(4) 0.503(3) 0.8037(6)
C13J C -0.1658(4) 0.497(3) 0.1963(6)
C13A C -0.1658(4) 0.503(3) 0.1963(6)
C13H C -0.1658(4) 0.503(3) 0.8037(6)
C13C C -0.1658(4) 0.497(3) 0.8037(6)
C16K C 0.1138(4) 0.477(2) 0.3455(7)
C16B C 0.1138(4) 0.477(2) 0.6545(7)
C16I C 0.1138(4) 0.523(2) 0.6545(7)
C16A C -0.1138(4) 0.477(2) 0.3455(7)
C16J C -0.1138(4) 0.523(2) 0.3455(7)
C16C C -0.1138(4) 0.523(2) 0.6545(7)
C16H C -0.1138(4) 0.477(2) 0.6545(7)
C17K C 0.1368(10) 0.317(3) 0.3119(16)
C17B C 0.1368(10) 0.317(3) 0.6881(16)
C17I C 0.1368(10) 0.683(3) 0.6881(16)
C17A C -0.1368(10) 0.317(3) 0.3119(16)
C17J C -0.1368(10) 0.683(3) 0.3119(16)
C17C C -0.1368(10) 0.683(3) 0.6881(16)
C17H C -0.1368(10) 0.317(3) 0.6881(16)
H10K H 0.1363 0.2006 0.3412
H10I H 0.1363 0.7994 0.6588
H10B H 0.1363 0.2006 0.6588
H10J H -0.1363 0.7994 0.3412
H10A H -0.1363 0.2006 0.3412
H10H H -0.1363 0.2006 0.6588
H10C H -0.1363 0.7994 0.6588
C18K C 0.1596(11) 0.332(3) 0.2369(17)
C18I C 0.1596(11) 0.668(3) 0.7631(17)
C18B C 0.1596(11) 0.332(3) 0.7631(17)
C18J C -0.1596(11) 0.668(3) 0.2369(17)
C18A C -0.1596(11) 0.332(3) 0.2369(17)
C18H C -0.1596(11) 0.332(3) 0.7631(17)
C18C C -0.1596(11) 0.668(3) 0.7631(17)
H11B H 0.1715 0.2217 0.7875
H11I H 0.1715 0.7783 0.7875
H11A H -0.1715 0.2217 0.2125
H11J H -0.1715 0.7783 0.2125
H11C H -0.1715 0.7783 0.7875
H11H H -0.1715 0.2217 0.7875
H11K H 0.1715 0.2217 0.2125
loop_
_geom_bond_atom_site_label_1
_geom_bond_atom_site_label_2
_geom_bond_site_symmetry_1
_geom_bond_site_symmetry_2
In1 O1 1_555 1_555
O1 H1 1_555 1_555
C1 O2 1_555 1_555
O2 In1 1_555 1_555
C2 H2 1_555 1_555
C3 C5 1_555 1_555
C4 C5 1_555 1_555
C5 C2 1_555 1_555
C6 C4 1_555 1_555
H3 C6 1_555 1_555
C13 C1 1_555 1_555
C16 C4 1_555 1_555
C17 C16 1_555 1_555
H10 C17 1_555 1_555
C18 C13 1_555 1_555
H11 C18 1_555 1_555
In1B O1 1_555 1_555
In1_2 O2I 1_555 1_555
In1B_2 O2B 1_555 1_555
In1C O2J 1_555 1_555
In1A O2A 1_555 1_555
In1A_2 O2H 1_555 1_555
In1C_2 O2C 1_555 1_555
In1B_3 O1E 1_555 1_555
O1E In1 1_555 1_555
O1E_2 In1B 1_555 1_555
C1B O2I 1_555 1_555
C1A O2J 1_555 1_555
C1C O2H 1_555 1_555
H1E O1E 1_555 1_555
H1E_2 O1E_2 1_555 1_555
O2K C1 1_555 1_555
O2B C1B 1_555 1_555
O2A C1A 1_555 1_555
O2C C1C 1_555 1_555
O2E In1 1_555 1_555
O2I_2 In1 1_555 1_555
O2L In1 1_555 1_555
O2N In1B 1_555 1_555
O2B_2 In1B 1_555 1_555
O2G In1B 1_555 1_555
C2A C2 1_555 1_555
C2B C2C 1_555 1_555
C2C H2C 1_555 1_555
H2A C2A 1_555 1_555
H2B C2B 1_555 1_555
C3A C3 1_555 1_555
C4B C6 1_555 1_555
C4C C5C 1_555 1_555
C4A C5A 1_555 1_555
C5A C2A 1_555 1_555
C5B C3 1_555 1_555
C5C C2C 1_555 1_555
C6A C4C 1_555 1_555
H3A C6A 1_555 1_555
C13K C1 1_555 1_555
C13I C1B 1_555 1_555
C13B C1B 1_555 1_555
C13J C1A 1_555 1_555
C13A C1A 1_555 1_555
C13H C1C 1_555 1_555
C13C C1C 1_555 1_555
C16K C4 1_555 1_555
C16B C4B 1_555 1_555
C16I C4B 1_555 1_555
C16A C4A 1_555 1_555
C16J C4A 1_555 1_555
C16C C4C 1_555 1_555
C16H C4C 1_555 1_555
C17K C16 1_555 1_555
C17B C16B 1_555 1_555
C17I C16B 1_555 1_555
C17A C16A 1_555 1_555
C17J C16A 1_555 1_555
C17C C16C 1_555 1_555
C17H C16C 1_555 1_555
H10K C17K 1_555 1_555
H10I C17I 1_555 1_555
H10B C17B 1_555 1_555
H10J C17J 1_555 1_555
H10A C17A 1_555 1_555
H10H C17H 1_555 1_555
H10C C17C 1_555 1_555
C18K C13 1_555 1_555
C18I C13I 1_555 1_555
C18B C13I 1_555 1_555
C18J C13J 1_555 1_555
C18A C13J 1_555 1_555
C18H C13H 1_555 1_555
C18C C13H 1_555 1_555
H11B C18B 1_555 1_555
H11I C18I 1_555 1_555
H11A C18A 1_555 1_555
H11J C18J 1_555 1_555
H11C C18C 1_555 1_555
H11H C18H 1_555 1_555
H11K C18K 1_555 1_555
C16 C16K 1_555 1_555
C17 C18 1_555 1_555
C17 C16K 1_555 1_555
C18 C13K 1_555 1_555
In1B O2K 1_555 1_555
C2B C5B 1_555 1_555
C3A C5A 1_555 1_555
C3A C5C 1_555 1_555
C4B C5B 1_555 1_555
C4A C6A 1_555 1_555
C13K C18K 1_555 1_555
C13B C18I 1_555 1_555
C13B C18B 1_555 1_555
C13A C18J 1_555 1_555
C13A C18A 1_555 1_555
C13C C18H 1_555 1_555
C13C C18C 1_555 1_555
C16K C17K 1_555 1_555
C16B C16I 1_555 1_555
C16I C17B 1_555 1_555
C16I C17I 1_555 1_555
C16A C16J 1_555 1_555
C16J C17A 1_555 1_555
C16J C17J 1_555 1_555
C16C C16H 1_555 1_555
C16H C17C 1_555 1_555
C16H C17H 1_555 1_555
C17K C18K 1_555 1_555
C17B C18B 1_555 1_555
C17I C18I 1_555 1_555
C17A C18A 1_555 1_555
C17J C18J 1_555 1_555
C17C C18C 1_555 1_555
C17H C18H 1_555 1_555

#END
