
#######################################################################
#
#                 Cambridge Crystallographic Data Centre
#                                CCDC 
#
#######################################################################
#
# If this CIF has been generated from an entry in the Cambridge 
# Structural Database, then it will include bibliographic, chemical, 
# crystal, experimental, refinement or atomic coordinate data resulting 
# from the CCDC's data processing and validation procedures.
#
#######################################################################

data_FOPBAP
_chemical_formula_moiety         'C60 H52 Cd20 N38 O40'
_symmetry_cell_setting           orthorhombic
_symmetry_space_group_name_H-M   'C 2 2 21'
_symmetry_Int_Tables_number      20
_space_group_name_Hall           'C 2c 2'
loop_
_symmetry_equiv_pos_site_id
_symmetry_equiv_pos_as_xyz
1 x,y,z
2 -x,-y,1/2+z
3 x,-y,-z
4 -x,y,1/2-z
5 1/2+x,1/2+y,z
6 1/2-x,1/2-y,1/2+z
7 1/2+x,1/2-y,-z
8 1/2-x,1/2+y,1/2-z
_cell_length_a                   16.646(9)
_cell_length_b                   29.783(16)
_cell_length_c                   17.274(9)
_cell_angle_alpha                90
_cell_angle_beta                 90
_cell_angle_gamma                90
_cell_volume                     8563.89
loop_
_atom_site_label
_atom_site_type_symbol
_atom_site_fract_x
_atom_site_fract_y
_atom_site_fract_z
O13 O 0.0857(8) 0.1307(4) -0.2344(10)
O14 O -0.1697(10) 0.1209(7) 0.0278(13)
O15 O 0.3338(10) 0.1163(6) -0.5053(11)
O16 O 0.4236(12) 0.1423(7) 0.2214(12)
Cd1 Cd 0.49583(3) 0.249831(17) -0.11594(3)
Cd2 Cd 0.24955(3) 0.003562(17) 0.13423(3)
Cd3 Cd 0.27687(3) 0.245608(18) -0.26489(3)
Cd4 Cd 0.47169(7) 0.0000 0.0000
Cd5 Cd 0.02545(6) 0.0000 0.0000
N1 N 0.4916(5) 0.1937(2) -0.2109(5)
O1 O 0.3444(3) 0.2545(2) -0.1536(3)
C1 C 0.0083(7) 0.1514(3) 0.1921(6)
N2 N 0.0344(5) 0.1701(3) 0.0599(5)
C2 C 0.4731(6) 0.1381(3) -0.1103(6)
N3 N 0.0069(6) 0.1945(2) 0.2110(4)
C3 C 0.0481(7) 0.1569(4) -0.0135(6)
H1 H 0.0558 0.1786 -0.0516
N4 N 0.4589(5) 0.1703(3) -0.0616(5)
C4 C 0.4705(7) 0.0940(4) -0.0895(8)
H2 H 0.4794 0.0726 -0.1279
N5 N -0.0000 0.1226(4) 0.2500
O2 O 0.0923(3) 0.2650(2) 0.0156(3)
C5 C 0.2456(5) 0.2680(3) -0.0549(4)
H3 H 0.2210 0.2934 -0.0808
H4 H 0.2161 0.2413 -0.0702
O3 O 0.3888(3) 0.2682(2) -0.0374(3)
O4 O 0.3517(6) 0.0218(3) 0.2231(6)
O5 O 0.1483(5) -0.0116(3) 0.2231(6)
N6 N 0.2451(5) 0.0554(2) 0.0329(4)
C6 C 0.3297(4) 0.2635(2) -0.0834(4)
C7 C 0.1539(4) 0.2659(2) 0.0582(4)
C8 C 0.2593(6) 0.0977(2) -0.0689(4)
N7 N 0.2137(5) 0.0828(2) 0.1841(4)
N8 N 0.2556(5) 0.0538(2) -0.0450(3)
O6 O 0.1420(3) 0.2613(2) 0.1306(3)
N9 N 0.5000 0.1219(4) -0.2500
N10 N 0.2096(5) 0.1741(2) 0.2202(5)
O7 O 0.3997(5) 0.0075(3) 0.1055(5)
N11 N 0.2494(4) 0.1274(2) -0.0107(3)
C9 C 0.2739(5) 0.1101(3) -0.1491(5)
C10 C 0.2244(6) 0.1604(2) 0.1485(5)
H5 H 0.2348 0.1816 0.1103
C11 C 0.0214(6) 0.1383(3) 0.1102(6)
C12 C 0.2396(6) 0.0994(2) 0.0520(5)
C13 C 0.2247(5) 0.1158(3) 0.1292(5)
C14 C 0.1976(6) 0.1416(3) 0.2750(6)
H6 H 0.1875 0.1498 0.3260
C15 C 0.0234(7) 0.0934(4) 0.0890(7)
H7 H 0.0145 0.0720 0.1272
N12 N 0.0373(5) 0.0794(3) 0.0180(6)
N13 N 0.2876(5) 0.0761(2) -0.1997(4)
N14 N 0.4561(5) 0.0795(3) -0.0188(6)
C16 C 0.4426(7) 0.1569(4) 0.0127(7)
H8 H 0.4332 0.1785 0.0506
C17 C 0.4398(7) 0.1124(4) 0.0323(8)
H9 H 0.4260 0.1045 0.0827
C18 C 0.4898(7) 0.1504(3) -0.1945(7)
C19 C 0.0510(7) 0.1123(4) -0.0332(7)
H10 H 0.0629 0.1047 -0.0841
C20 C 0.1124(5) 0.2456(5) -0.2765(7)
O8 O 0.0992(4) -0.0049(3) 0.1038(5)
C21 C 0.2361(4) 0.2739(3) 0.0276(4)
H11 H 0.2518 0.3043 0.0407
H12 H 0.2729 0.2537 0.0538
C22 C 0.0237(5) 0.2458(4) -0.2883(5)
H13 H 0.0087 0.2196 -0.3182
H14 H 0.0091 0.2722 -0.3180
O9 O 0.1451(4) 0.2249(3) -0.2191(5)
O10 O 0.1546(4) 0.2653(3) -0.3244(5)
C23 C 0.2003(7) 0.0971(3) 0.2550(6)
H15 H 0.1921 0.0759 0.2936
N15 N 0.2897(5) 0.1663(2) -0.2446(4)
C24 C 0.2735(5) 0.1546(3) -0.1714(4)
H16 H 0.2618 0.1767 -0.1352
C25 C 0.3063(6) 0.1333(3) -0.2957(5)
H17 H 0.3192 0.1406 -0.3466
C26 C 0.3040(6) 0.0879(3) -0.2722(5)
H18 H 0.3143 0.0656 -0.3086
C27 C 0.0052(11) -0.0188(5) 0.2073(10)
H19 H -0.0280 0.0049 0.1856
H20 H -0.0146 -0.0471 0.1871
C28 C 0.4978(11) 0.0223(5) 0.2032(11)
H21 H 0.5187 0.0504 0.1830
H22 H 0.5301 -0.0021 0.1825
C29 C 0.0925(7) -0.0120(4) 0.1788(7)
C30 C 0.4080(9) 0.0163(5) 0.1783(10)
O11 O 0.6151(13) -0.0007(8) -0.0301(10)
O12 O -0.1149(13) 0.0027(7) -0.0386(13)
N1C N 0.5084(5) 0.1937(2) -0.2891(5)
C2C C 0.5269(6) 0.1381(3) -0.3897(6)
N4C N 0.5411(5) 0.1703(3) -0.4384(5)
C4C C 0.5295(7) 0.0940(4) -0.4105(8)
H2C H 0.5206 0.0726 -0.3721
N14C N 0.5439(5) 0.0795(3) -0.4812(6)
C16C C 0.5574(7) 0.1569(4) -0.5127(7)
H8C H 0.5668 0.1785 -0.5506
C17C C 0.5602(7) 0.1124(4) -0.5323(8)
H9C H 0.5740 0.1045 -0.5827
C18C C 0.5102(7) 0.1504(3) -0.3055(7)
C1C C -0.0083(7) 0.1514(3) 0.3079(6)
N2C N -0.0344(5) 0.1701(3) 0.4401(5)
N3C N -0.0069(6) 0.1945(2) 0.2890(4)
C3C C -0.0481(7) 0.1569(4) 0.5135(6)
H1C H -0.0558 0.1786 0.5516
C11C C -0.0214(6) 0.1383(3) 0.3898(6)
C15C C -0.0234(7) 0.0934(4) 0.4110(7)
H7C H -0.0145 0.0720 0.3728
N12C N -0.0373(5) 0.0794(3) 0.4820(6)
C19C C -0.0510(7) 0.1123(4) 0.5332(7)
H10C H -0.0629 0.1047 0.5841
O4C O 0.6483(6) 0.0218(3) 0.2769(6)
O7C O 0.6003(5) 0.0075(3) 0.3945(5)
C28C C 0.5022(11) 0.0223(5) 0.2968(11)
H21C H 0.4813 0.0504 0.3170
H22C H 0.4699 -0.0021 0.3175
C30C C 0.5920(9) 0.0163(5) 0.3217(10)
O5C O -0.1483(5) -0.0116(3) 0.2769(6)
O8C O -0.0992(4) -0.0049(3) 0.3962(5)
C27C C -0.0052(11) -0.0188(5) 0.2927(10)
H19C H 0.0280 0.0049 0.3144
H20C H 0.0146 -0.0471 0.3129
C29C C -0.0925(7) -0.0120(4) 0.3212(7)
C20C C -0.1124(5) 0.2456(5) -0.2235(7)
C22C C -0.0237(5) 0.2458(4) -0.2117(5)
H13C H -0.0087 0.2196 -0.1818
H14C H -0.0091 0.2722 -0.1820
O9C O -0.1451(4) 0.2249(3) -0.2809(5)
O10C O -0.1546(4) 0.2653(3) -0.1756(5)
O11B O 0.6151(13) 0.0007(8) 0.0301(10)
O12B O -0.1149(13) -0.0027(7) 0.0386(13)
Cd1B Cd 0.49583(3) -0.249831(17) 0.11594(3)
Cd2B Cd 0.24955(3) -0.003562(17) -0.13423(3)
Cd3B Cd 0.27687(3) -0.245608(18) 0.26489(3)
O1B O 0.3444(3) -0.2545(2) 0.1536(3)
O2B O 0.0923(3) -0.2650(2) -0.0156(3)
C5B C 0.2456(5) -0.2680(3) 0.0549(4)
H3B H 0.2210 -0.2934 0.0808
H4B H 0.2161 -0.2413 0.0702
O3B O 0.3888(3) -0.2682(2) 0.0374(3)
N6B N 0.2451(5) -0.0554(2) -0.0329(4)
C6B C 0.3297(4) -0.2635(2) 0.0834(4)
C7B C 0.1539(4) -0.2659(2) -0.0582(4)
C8B C 0.2593(6) -0.0977(2) 0.0689(4)
N7B N 0.2137(5) -0.0828(2) -0.1841(4)
N8B N 0.2556(5) -0.0538(2) 0.0450(3)
O6B O 0.1420(3) -0.2613(2) -0.1306(3)
N10B N 0.2096(5) -0.1741(2) -0.2202(5)
N11B N 0.2494(4) -0.1274(2) 0.0107(3)
C9B C 0.2739(5) -0.1101(3) 0.1491(5)
C10B C 0.2244(6) -0.1604(2) -0.1485(5)
H5B H 0.2348 -0.1816 -0.1103
C12B C 0.2396(6) -0.0994(2) -0.0520(5)
C13B C 0.2247(5) -0.1158(3) -0.1292(5)
C14B C 0.1976(6) -0.1416(3) -0.2750(6)
H6B H 0.1875 -0.1498 -0.3260
N13B N 0.2876(5) -0.0761(2) 0.1997(4)
C21B C 0.2361(4) -0.2739(3) -0.0276(4)
H11B H 0.2518 -0.3043 -0.0407
H12B H 0.2729 -0.2537 -0.0538
C23B C 0.2003(7) -0.0971(3) -0.2550(6)
H15B H 0.1921 -0.0759 -0.2936
N15B N 0.2897(5) -0.1663(2) 0.2446(4)
C24B C 0.2735(5) -0.1546(3) 0.1714(4)
H16B H 0.2618 -0.1767 0.1352
C25B C 0.3063(6) -0.1333(3) 0.2957(5)
H17B H 0.3192 -0.1406 0.3466
C26B C 0.3040(6) -0.0879(3) 0.2722(5)
H18B H 0.3143 -0.0656 0.3086
Cd1C Cd 0.50417(3) 0.249831(17) -0.38406(3)
Cd1D Cd -0.00417(3) -0.250169(17) -0.11594(3)
Cd1E Cd 0.00417(3) 0.250169(17) 0.38406(3)
Cd1F Cd -0.00417(3) 0.250169(17) 0.11594(3)
Cd2C Cd -0.24955(3) 0.003562(17) 0.36577(3)
Cd2C_2 Cd 0.75045(3) 0.003562(17) 0.36577(3)
Cd3C Cd -0.27687(3) 0.245608(18) -0.23511(3)
Cd3E Cd 0.22313(3) 0.254392(18) 0.23511(3)
Cd3G Cd 0.22313(3) -0.254392(18) -0.23511(3)
Cd4A Cd 0.52831(7) -0.0000 -0.5000
Cd4A_2 Cd 0.52831(7) 0.0000 0.5000
Cd5A Cd -0.02545(6) 0.0000 0.5000
N1B N 0.4916(5) -0.1937(2) 0.2109(5)
N2D N 0.5344(5) -0.3299(3) 0.0599(5)
N2F N 0.5344(5) 0.3299(3) -0.0599(5)
N3D N 0.5069(6) -0.3055(2) 0.2110(4)
N3F N 0.5069(6) 0.3055(2) -0.2110(4)
N4B N 0.4589(5) -0.1703(3) 0.0616(5)
O2D O 0.5923(3) -0.2350(2) 0.0156(3)
O2F O 0.5923(3) 0.2350(2) -0.0156(3)
O4B O 0.3517(6) -0.0218(3) -0.2231(6)
O5B O 0.1483(5) 0.0116(3) -0.2231(6)
O6D O 0.6420(3) -0.2387(2) 0.1306(3)
O6E O 0.3580(3) 0.2387(2) -0.3694(3)
O6F O 0.6420(3) 0.2387(2) -0.1306(3)
O6G O 0.3580(3) -0.2387(2) 0.3694(3)
N10E N 0.2904(5) 0.3259(2) -0.2798(5)
N10G N 0.2904(5) -0.3259(2) 0.2798(5)
O7B O 0.3997(5) -0.0075(3) -0.1055(5)
N12B N 0.0373(5) -0.0794(3) -0.0180(6)
N14B N 0.4561(5) -0.0795(3) 0.0188(6)
O8B O 0.0992(4) 0.0049(3) -0.1038(5)
O9B O 0.1451(4) -0.2249(3) 0.2191(5)
O10B O 0.1546(4) -0.2653(3) 0.3244(5)
loop_
_geom_bond_atom_site_label_1
_geom_bond_atom_site_label_2
_geom_bond_site_symmetry_1
_geom_bond_site_symmetry_2
Cd1 N1 1_555 1_555
Cd2 O4 1_555 1_555
Cd3 O1 1_555 1_555
Cd4 O7 1_555 1_555
Cd5 N12 1_555 1_555
N1 C18 1_555 1_555
O1 Cd1 1_555 1_555
C1 N3 1_555 1_555
N2 C3 1_555 1_555
C2 N4 1_555 1_555
N3 N3C 1_555 1_555
C3 H1 1_555 1_555
N4 Cd1 1_555 1_555
C4 C2 1_555 1_555
H2 C4 1_555 1_555
N5 C1 1_555 1_555
O2 C7 1_555 1_555
C5 H3 1_555 1_555
H4 C5 1_555 1_555
O3 Cd1 1_555 1_555
O4 C30 1_555 1_555
O5 Cd2 1_555 1_555
N6 Cd2 1_555 1_555
C6 O1 1_555 1_555
C7 O6 1_555 1_555
C8 N8 1_555 1_555
N7 Cd2 1_555 1_555
N8 N6 1_555 1_555
O6 Cd1F 1_555 1_555
N9 C18 1_555 1_555
N10 C10 1_555 1_555
O7 Cd2 1_555 1_555
N11 C8 1_555 1_555
C9 C8 1_555 1_555
C10 H5 1_555 1_555
C11 C1 1_555 1_555
C12 N6 1_555 1_555
C13 N7 1_555 1_555
C14 N10 1_555 1_555
H6 C14 1_555 1_555
C15 C11 1_555 1_555
H7 C15 1_555 1_555
N12 C15 1_555 1_555
N13 C9 1_555 1_555
N14 Cd4 1_555 1_555
C16 N4 1_555 1_555
H8 C16 1_555 1_555
C17 N14 1_555 1_555
H9 C17 1_555 1_555
C18 C2 1_555 1_555
C19 C3 1_555 1_555
H10 C19 1_555 1_555
C20 C22 1_555 1_555
O8 Cd2 1_555 1_555
C21 C5 1_555 1_555
H11 C21 1_555 1_555
H12 C21 1_555 1_555
C22 H13 1_555 1_555
H14 C22 1_555 1_555
O9 Cd3 1_555 1_555
O10 Cd3 1_555 1_555
C23 N7 1_555 1_555
H15 C23 1_555 1_555
N15 Cd3 1_555 1_555
C24 C9 1_555 1_555
H16 C24 1_555 1_555
C25 N15 1_555 1_555
H17 C25 1_555 1_555
C26 N13 1_555 1_555
H18 C26 1_555 1_555
C27 H19 1_555 1_555
H20 C27 1_555 1_555
C28 H21 1_555 1_555
H22 C28 1_555 1_555
C29 O5 1_555 1_555
C30 O7 1_555 1_555
O11 Cd4 1_555 1_555
O12 Cd5 1_555 1_555
N1C N1 1_555 1_555
C2C N4C 1_555 1_555
N4C C16C 1_555 1_555
C4C C2C 1_555 1_555
H2C C4C 1_555 1_555
N14C C4C 1_555 1_555
C16C H8C 1_555 1_555
C17C N14C 1_555 1_555
H9C C17C 1_555 1_555
C18C N9 1_555 1_555
C1C N5 1_555 1_555
N2C C3C 1_555 1_555
N3C C1C 1_555 1_555
C3C H1C 1_555 1_555
C11C C1C 1_555 1_555
C15C C11C 1_555 1_555
H7C C15C 1_555 1_555
N12C C15C 1_555 1_555
C19C C3C 1_555 1_555
H10C C19C 1_555 1_555
O4C C30C 1_555 1_555
O7C C30C 1_555 1_555
C28C C28 1_555 1_555
H21C C28C 1_555 1_555
H22C C28C 1_555 1_555
C30C C28C 1_555 1_555
O5C C29C 1_555 1_555
O8C C29C 1_555 1_555
C27C C27 1_555 1_555
H19C C27C 1_555 1_555
H20C C27C 1_555 1_555
C29C C27C 1_555 1_555
C20C C22C 1_555 1_555
C22C C22 1_555 1_555
H13C C22C 1_555 1_555
H14C C22C 1_555 1_555
O9C C20C 1_555 1_555
O10C C20C 1_555 1_555
O11B Cd4 1_555 1_555
O12B Cd5 1_555 1_555
Cd1B O1B 1_555 1_555
Cd2B N8 1_555 1_555
Cd3B O1B 1_555 1_555
O1B C6B 1_555 1_555
O2B C7B 1_555 1_555
C5B H3B 1_555 1_555
H4B C5B 1_555 1_555
O3B Cd1B 1_555 1_555
N6B Cd2B 1_555 1_555
C6B C5B 1_555 1_555
C7B O6B 1_555 1_555
C8B N8B 1_555 1_555
N7B Cd2B 1_555 1_555
N8B Cd2 1_555 1_555
O6B Cd1D 1_555 1_555
N10B C10B 1_555 1_555
N11B C8B 1_555 1_555
C9B C8B 1_555 1_555
C10B H5B 1_555 1_555
C12B N6B 1_555 1_555
C13B N7B 1_555 1_555
C14B N10B 1_555 1_555
H6B C14B 1_555 1_555
N13B Cd2 1_555 1_555
C21B C5B 1_555 1_555
H11B C21B 1_555 1_555
H12B C21B 1_555 1_555
C23B N7B 1_555 1_555
H15B C23B 1_555 1_555
N15B Cd3B 1_555 1_555
C24B C9B 1_555 1_555
H16B C24B 1_555 1_555
C25B N15B 1_555 1_555
H17B C25B 1_555 1_555
C26B N13B 1_555 1_555
H18B C26B 1_555 1_555
Cd1C N1C 1_555 1_555
Cd1D O2B 1_555 1_555
Cd1E N2C 1_555 1_555
Cd1F N2 1_555 1_555
Cd2C O5C 1_555 1_555
Cd2C_2 O4C 1_555 1_555
Cd3C O9C 1_555 1_555
Cd3E O6 1_555 1_555
Cd3G O6B 1_555 1_555
Cd4A N14C 1_555 1_555
Cd4A_2 O7C 1_555 1_555
Cd5A N12C 1_555 1_555
N1B Cd1B 1_555 1_555
N2D Cd1B 1_555 1_555
N2F Cd1 1_555 1_555
N3D Cd1B 1_555 1_555
N3F Cd1 1_555 1_555
N4B Cd1B 1_555 1_555
O2D Cd1B 1_555 1_555
O2F Cd1 1_555 1_555
O4B Cd2B 1_555 1_555
O5B Cd2B 1_555 1_555
O6D Cd1B 1_555 1_555
O6E Cd3 1_555 1_555
O6F Cd1 1_555 1_555
O6G Cd3B 1_555 1_555
N10E Cd3 1_555 1_555
N10G Cd3B 1_555 1_555
O7B Cd4 1_555 1_555
N12B Cd5 1_555 1_555
N14B Cd4 1_555 1_555
O8B Cd5 1_555 1_555
O9B Cd3B 1_555 1_555
O10B Cd3B 1_555 1_555
Cd5 O8 1_555 1_555
N2 C11 1_555 1_555
N3 Cd1F 1_555 1_555
C4 N14 1_555 1_555
O2 Cd1F 1_555 1_555
C5 C6 1_555 1_555
O3 C6 1_555 1_555
C7 C21 1_555 1_555
N10 Cd3E 1_555 1_555
N11 C12 1_555 1_555
C10 C13 1_555 1_555
C12 C13 1_555 1_555
C14 C23 1_555 1_555
N12 C19 1_555 1_555
N13 Cd2B 1_555 1_555
C16 C17 1_555 1_555
C20 O9 1_555 1_555
C20 O10 1_555 1_555
O8 C29 1_555 1_555
N15 C24 1_555 1_555
C25 C26 1_555 1_555
C27 C29 1_555 1_555
C28 C30 1_555 1_555
O11 O11B 1_555 1_555
O12 O12B 1_555 1_555
N1C C18C 1_555 1_555
C2C C18C 1_555 1_555
N4C Cd1C 1_555 1_555
C16C C17C 1_555 1_555
N2C C11C 1_555 1_555
N3C Cd1E 1_555 1_555
N12C C19C 1_555 1_555
O7C Cd2C_2 1_555 1_555
O8C Cd2C 1_555 1_555
O8C Cd5A 1_555 1_555
O10C Cd3C 1_555 1_555
Cd2B O7B 1_555 1_555
Cd2B O8B 1_555 1_555
O3B C6B 1_555 1_555
N6B N8B 1_555 1_555
C7B C21B 1_555 1_555
N10B Cd3G 1_555 1_555
N11B C12B 1_555 1_555
C9B N13B 1_555 1_555
C10B C13B 1_555 1_555
C12B C13B 1_555 1_555
C14B C23B 1_555 1_555
N15B C24B 1_555 1_555
C25B C26B 1_555 1_555
Cd1C O6E 1_555 1_555

#END
