
#######################################################################
#
#                 Cambridge Crystallographic Data Centre
#                                CCDC 
#
#######################################################################
#
# If this CIF has been generated from an entry in the Cambridge 
# Structural Database, then it will include bibliographic, chemical, 
# crystal, experimental, refinement or atomic coordinate data resulting 
# from the CCDC's data processing and validation procedures.
#
#######################################################################

data_GOJDOZ
_chemical_formula_moiety         '(C16 H20 O30 U4)n'
_symmetry_cell_setting           triclinic
_symmetry_space_group_name_H-M   'P -1'
_symmetry_Int_Tables_number      2
_space_group_name_Hall           '-P 1'
loop_
_symmetry_equiv_pos_site_id
_symmetry_equiv_pos_as_xyz
1 x,y,z
2 -x,-y,-z
_cell_length_a                   6.6059(3)
_cell_length_b                   9.8638(8)
_cell_length_c                   13.1870(11)
_cell_angle_alpha                79.317(4)
_cell_angle_beta                 86.349(5)
_cell_angle_gamma                83.794(5)
_cell_volume                     838.576
loop_
_atom_site_label
_atom_site_type_symbol
_atom_site_fract_x
_atom_site_fract_y
_atom_site_fract_z
U1 U 0.38316(5) 0.61360(3) 0.80652(2)
U2 U 1.05124(4) 0.16834(3) 0.74522(2)
O1 O 0.4674(9) 0.7345(6) 0.7018(5)
O2 O 0.3043(9) 0.4953(6) 0.9161(4)
O3 O 1.0760(9) 0.0676(6) 0.6461(4)
O4 O 1.0323(9) 0.2610(6) 0.8469(4)
O5 O 0.5932(9) 0.4373(6) 0.7425(4)
O6 O 0.8058(9) 0.3209(6) 0.6450(4)
O7 O 0.1825(8) 0.5143(6) 0.7046(4)
O8 O 0.2148(9) 0.3382(6) 0.6211(4)
O9 O 0.3447(9) 0.7819(6) 0.9160(5)
O10 O 0.1059(8) 0.9537(5) 0.8679(4)
O11 O 0.4123(8) 1.1125(6) 0.7586(4)
O12 O 0.7364(8) 1.0773(6) 0.7915(4)
O13 O 0.0351(8) 0.7390(6) 0.7814(4)
H1 H 0.0338 0.8190 0.8004
H2 H -0.0048 0.7653 0.7204
O14 O 0.7094(9) 0.6128(6) 0.8769(5)
H3 H 0.7680 0.5389 0.9308
H4 H 0.8311 0.6403 0.8363
C1 C 0.6716(12) 0.4172(8) 0.6558(6)
C2 C 0.6008(12) 0.5137(8) 0.5587(6)
H9 H 0.6602 0.6020 0.5518
C3 C 0.3661(12) 0.5413(8) 0.5425(6)
H10 H 0.3194 0.6405 0.5311
C4 C 0.2413(12) 0.4589(8) 0.6279(6)
C5 C 0.2596(12) 0.8999(8) 0.9204(6)
C6 C 0.3388(12) 0.9864(9) 0.9884(6)
H11 H 0.2270 1.0355 1.0238
C7 C 0.4978(12) 1.0882(8) 0.9346(6)
H12 H 0.4564 1.1817 0.9484
C8 C 0.5522(12) 1.0948(8) 0.8223(6)
U1A U 0.61684(5) 0.38640(3) 0.19348(2)
U1A_2 U 0.61684(5) 1.38640(3) 1.19348(2)
U2A U -0.05124(4) 0.83166(3) 0.25478(2)
U2_2 U 0.05124(4) 0.16834(3) 0.74522(2)
U2_3 U 0.05124(4) 1.16834(3) 0.74522(2)
U2_4 U 1.05124(4) 1.16834(3) 0.74522(2)
U2A_2 U 0.94876(4) 0.83166(3) 0.25478(2)
U2A_3 U 0.94876(4) 0.83166(3) 1.25478(2)
U2A_4 U -0.05124(4) 0.83166(3) 1.25478(2)
O1A O 0.5326(9) 0.2655(6) 0.2982(5)
O2A O 0.6957(9) 0.5047(6) 0.0839(4)
O3A O -0.0760(9) 0.9324(6) 0.3539(4)
O4A O -0.0323(9) 0.7390(6) 0.1531(4)
O5A O 0.4068(9) 0.5627(6) 0.2575(4)
O6A O 0.1942(9) 0.6791(6) 0.3550(4)
O7A O 0.8175(8) 0.4857(6) 0.2954(4)
O8A O 0.7852(9) 0.6618(6) 0.3789(4)
O8_2 O 1.2148(9) 0.3382(6) 0.6211(4)
O8A_2 O -0.2148(9) 0.6618(6) 0.3789(4)
O9A O 0.6553(9) 1.2181(6) 1.0840(5)
O9A_2 O 0.6553(9) 0.2181(6) 0.0840(5)
O10A O 0.8941(8) 1.0463(5) 1.1321(4)
O10_2 O 1.1059(8) -0.0463(5) 0.8679(4)
O10A_2 O -0.1059(8) 1.0463(5) 0.1321(4)
O11A O 0.5877(8) 0.8875(6) 1.2414(4)
O11_2 O 1.4123(8) 0.1125(6) 0.7586(4)
O11A_2 O -0.4123(8) 0.8875(6) 0.2414(4)
O12A O 0.2636(8) 0.9227(6) 1.2085(4)
O12_2 O 0.7364(8) 0.0773(6) 0.7915(4)
O12A_2 O 0.2636(8) 0.9227(6) 0.2085(4)
O13A O 0.9649(8) 0.2610(6) 0.2186(4)
H1A H 0.9662 0.1810 0.1996
H2A H 1.0048 0.2347 0.2796
O14A O 0.2906(9) 0.3872(6) 0.1231(5)
H3A H 0.2320 0.4611 0.0692
H4A H 0.1689 0.3597 0.1637
C1A C 0.3284(12) 0.5828(8) 0.3442(6)
C2A C 0.3992(12) 0.4863(8) 0.4413(6)
H9A H 0.3398 0.3980 0.4482
C3A C 0.6339(12) 0.4587(8) 0.4575(6)
H10A H 0.6806 0.3595 0.4689
C4A C 0.7587(12) 0.5411(8) 0.3721(6)
C5A C 0.7404(12) 1.1001(8) 1.0796(6)
C6A C 0.6612(12) 1.0136(9) 1.0116(6)
H11A H 0.7730 0.9645 0.9762
C7A C 0.5022(12) 0.9118(8) 1.0654(6)
H12A H 0.5436 0.8183 1.0516
C8A C 0.4478(12) 0.9052(8) 1.1777(6)
O15 O -0.0344(12) 0.8083(7) 0.5823(5)
H5 H -0.1603 0.8561 0.5817
H6 H -0.0452 0.7451 0.5348
O16 O -0.3354(13) 1.0412(9) 0.5463(6)
H7 H -0.2370 1.0800 0.5262
H8 H -0.3889 1.0565 0.6061
loop_
_geom_bond_atom_site_label_1
_geom_bond_atom_site_label_2
_geom_bond_site_symmetry_1
_geom_bond_site_symmetry_2
U1 O1 1_555 1_555
U2 O3 1_555 1_555
O2 U1 1_555 1_555
O4 U2 1_555 1_555
O5 U1 1_555 1_555
O6 U2 1_555 1_555
O7 U1 1_555 1_555
O8 C4 1_555 1_555
O9 U1 1_555 1_555
O10 C5 1_555 1_555
O11 C8 1_555 1_555
O12 C8 1_555 1_555
O13 U1 1_555 1_555
H1 O13 1_555 1_555
H2 O13 1_555 1_555
O14 U1 1_555 1_555
H3 O14 1_555 1_555
H4 O14 1_555 1_555
O15 H5 1_555 1_555
H6 O15 1_555 1_555
O16 H7 1_555 1_555
H8 O16 1_555 1_555
C1 O5 1_555 1_555
C2 C1 1_555 1_555
H9 C2 1_555 1_555
C3 C2 1_555 1_555
H10 C3 1_555 1_555
C4 O7 1_555 1_555
C5 O9 1_555 1_555
C6 C5 1_555 1_555
H11 C6 1_555 1_555
C7 C6 1_555 1_555
H12 C7 1_555 1_555
C8 C7 1_555 1_555
U1A O1A 1_555 1_555
U1A_2 O9A 1_555 1_555
U2A O3A 1_555 1_555
U2_2 O8 1_555 1_555
U2_3 O10 1_555 1_555
U2_4 O12 1_555 1_555
U2A_2 O8A 1_555 1_555
U2A_3 O10A 1_555 1_555
U2A_4 O12A 1_555 1_555
O2A U1A 1_555 1_555
O4A U2A 1_555 1_555
O5A U1A 1_555 1_555
O6A U2A 1_555 1_555
O7A U1A 1_555 1_555
O8A C4A 1_555 1_555
O8_2 U2 1_555 1_555
O8A_2 U2A 1_555 1_555
O9A C5A 1_555 1_555
O9A_2 U1A 1_555 1_555
O10A C5A 1_555 1_555
O10_2 U2 1_555 1_555
O10A_2 U2A 1_555 1_555
O11A U2A_3 1_555 1_555
O11_2 U2 1_555 1_555
O11A_2 U2A 1_555 1_555
O12A C8A 1_555 1_555
O12_2 U2 1_555 1_555
O12A_2 U2A 1_555 1_555
O13A U1A 1_555 1_555
H1A O13A 1_555 1_555
H2A O13A 1_555 1_555
O14A U1A 1_555 1_555
H3A O14A 1_555 1_555
H4A O14A 1_555 1_555
C1A O5A 1_555 1_555
C2A C3 1_555 1_555
H9A C2A 1_555 1_555
C3A C2 1_555 1_555
H10A C3A 1_555 1_555
C4A O7A 1_555 1_555
C5A C6A 1_555 1_555
C6A C7 1_555 1_555
H11A C6A 1_555 1_555
C7A C6 1_555 1_555
H12A C7A 1_555 1_555
C8A O11A 1_555 1_555
O6 C1 1_555 1_555
O11 U2_3 1_555 1_555
C3 C4 1_555 1_555
O6A C1A 1_555 1_555
C1A C2A 1_555 1_555
C2A C3A 1_555 1_555
C3A C4A 1_555 1_555
C6A C7A 1_555 1_555
C7A C8A 1_555 1_555

#END
