
#######################################################################
#
#                 Cambridge Crystallographic Data Centre
#                                CCDC 
#
#######################################################################
#
# If this CIF has been generated from an entry in the Cambridge 
# Structural Database, then it will include bibliographic, chemical, 
# crystal, experimental, refinement or atomic coordinate data resulting 
# from the CCDC's data processing and validation procedures.
#
#######################################################################

data_AGUTUS
_chemical_formula_moiety         '(C8 H10 Cu1 N14 O7)n'
_symmetry_cell_setting           monoclinic
_symmetry_space_group_name_H-M   'P 21/n'
_symmetry_Int_Tables_number      14
_space_group_name_Hall           '-P 2yn'
loop_
_symmetry_equiv_pos_site_id
_symmetry_equiv_pos_as_xyz
1 x,y,z
2 1/2-x,1/2+y,1/2-z
3 -x,-y,-z
4 1/2+x,1/2-y,1/2+z
_cell_length_a                   10.6332(10)
_cell_length_b                   12.0361(8)
_cell_length_c                   12.8052(12)
_cell_angle_alpha                90
_cell_angle_beta                 92.256(11)
_cell_angle_gamma                90
_cell_volume                     1637.57
loop_
_atom_site_label
_atom_site_type_symbol
_atom_site_fract_x
_atom_site_fract_y
_atom_site_fract_z
Cu1 Cu 0.122273(16) 0.370212(14) 0.495145(13)
N1 N 0.12645(12) 0.29713(11) 0.63562(9)
N2 N 0.03044(13) 0.30208(15) 0.70530(11)
N3 N 0.18546(12) 0.20457(11) 0.77208(9)
N4 N 0.40810(12) 0.11853(11) 0.96340(10)
N5 N 0.34783(11) 0.01861(10) 0.93675(9)
N6 N 0.26255(12) 0.14854(11) 0.84327(10)
N7 N 0.13704(12) 0.21908(11) 0.42950(9)
N8 N 0.06755(13) 0.12569(12) 0.45546(12)
N9 N 0.20767(12) 0.08084(11) 0.34302(10)
N10 N 0.35435(12) -0.06149(11) 0.14561(9)
N11 N 0.44014(13) -0.08116(12) 0.22918(10)
N12 N 0.28410(12) 0.01992(11) 0.28021(10)
C1 C 0.21868(15) 0.23905(14) 0.67681(12)
C2 C 0.06864(16) 0.24544(18) 0.78722(14)
C3 C 0.35444(14) 0.19561(14) 0.90570(12)
C4 C 0.26083(14) 0.03831(13) 0.86454(11)
C5 C 0.21979(16) 0.19067(14) 0.36298(12)
C6 C 0.11203(16) 0.04356(15) 0.40258(14)
C7 C 0.26228(15) -0.00131(14) 0.17684(12)
C8 C 0.39580(15) -0.03112(15) 0.30954(12)
N13 N 0.47753(14) 0.36773(13) 0.55190(12)
O1 O 0.37959(12) 0.34630(13) 0.49811(11)
O2 O 0.47254(13) 0.38317(14) 0.64820(10)
O3 O 0.58046(14) 0.37418(14) 0.50922(12)
H1 H 0.290(2) 0.221(2) 0.6490(18)
H2 H 0.027(2) 0.233(2) 0.8476(19)
H3 H 0.3710(17) 0.2672(17) 0.9060(14)
H4 H 0.2055(18) -0.0125(17) 0.8372(15)
H5 H 0.275(2) 0.233(2) 0.3291(17)
H6 H 0.089(2) -0.027(2) 0.4032(18)
H7 H 0.198(2) 0.0244(18) 0.1383(16)
H8 H 0.433(2) -0.0277(18) 0.3788(18)
Cu1C Cu 0.622273(16) 0.129788(14) 0.995145(13)
Cu1A Cu 0.377727(16) -0.129788(14) 1.004855(13)
Cu1A_2 Cu 0.377727(16) -0.129788(14) 0.004855(13)
N4C N -0.09190(12) 0.38147(11) 0.46340(10)
N5A N 0.15217(11) 0.51861(10) 0.56325(9)
N10A N 0.14565(12) 0.43851(11) 0.35439(9)
N14 N 0.30277(16) -0.03633(15) 0.58233(12)
O4 O 0.3351(2) -0.12253(14) 0.53696(15)
O5 O 0.22398(19) -0.04324(18) 0.65108(13)
O6 O 0.34949(15) 0.05411(13) 0.55521(13)
O7 O -0.21348(19) 0.21408(17) 0.65079(14)
H9 H -0.157(4) 0.257(4) 0.633(3)
H10 H -0.266(4) 0.216(3) 0.594(3)
loop_
_geom_bond_atom_site_label_1
_geom_bond_atom_site_label_2
_geom_bond_site_symmetry_1
_geom_bond_site_symmetry_2
Cu1 N1 1_555 1_555
N1 N2 1_555 1_555
N2 C2 1_555 1_555
N3 N6 1_555 1_555
N4 N5 1_555 1_555
N5 C4 1_555 1_555
N6 C3 1_555 1_555
N7 Cu1 1_555 1_555
N8 N7 1_555 1_555
N9 N12 1_555 1_555
N10 N11 1_555 1_555
N11 C8 1_555 1_555
N12 C7 1_555 1_555
C1 N1 1_555 1_555
C2 N3 1_555 1_555
C3 N4 1_555 1_555
C4 N6 1_555 1_555
C5 N7 1_555 1_555
C6 N8 1_555 1_555
C7 N10 1_555 1_555
C8 N12 1_555 1_555
N13 O1 1_555 1_555
O1 Cu1 1_555 1_555
O2 N13 1_555 1_555
O3 N13 1_555 1_555
N14 O4 1_555 1_555
O5 N14 1_555 1_555
O6 N14 1_555 1_555
O7 H9 1_555 1_555
H1 C1 1_555 1_555
H2 C2 1_555 1_555
H3 C3 1_555 1_555
H4 C4 1_555 1_555
H5 C5 1_555 1_555
H6 C6 1_555 1_555
H7 C7 1_555 1_555
H8 C8 1_555 1_555
H10 O7 1_555 1_555
Cu1C N4 1_555 1_555
Cu1A N5 1_555 1_555
Cu1A_2 N10 1_555 1_555
N4C Cu1 1_555 1_555
N5A Cu1 1_555 1_555
N10A Cu1 1_555 1_555
N3 C1 1_555 1_555
N9 C5 1_555 1_555
N9 C6 1_555 1_555

#END
