
#######################################################################
#
#                 Cambridge Crystallographic Data Centre
#                                CCDC 
#
#######################################################################
#
# If this CIF has been generated from an entry in the Cambridge 
# Structural Database, then it will include bibliographic, chemical, 
# crystal, experimental, refinement or atomic coordinate data resulting 
# from the CCDC's data processing and validation procedures.
#
#######################################################################

data_SEGBIR
_chemical_formula_moiety         '(C16 H10 Cu1 N4 O4)n'
_symmetry_cell_setting           rhombohedral
_symmetry_space_group_name_H-M   'R -3'
_symmetry_Int_Tables_number      148
_space_group_name_Hall           '-R 3'
loop_
_symmetry_equiv_pos_site_id
_symmetry_equiv_pos_as_xyz
1 x,y,z
2 -y,x-y,z
3 -x+y,-x,z
4 2/3+x,1/3+y,1/3+z
5 2/3-y,1/3+x-y,1/3+z
6 2/3-x+y,1/3-x,1/3+z
7 1/3+x,2/3+y,2/3+z
8 1/3-y,2/3+x-y,2/3+z
9 1/3-x+y,2/3-x,2/3+z
10 -x,-y,-z
11 y,-x+y,-z
12 x-y,x,-z
13 1/3-x,2/3-y,2/3-z
14 1/3+y,2/3-x+y,2/3-z
15 1/3+x-y,2/3+x,2/3-z
16 2/3-x,1/3-y,1/3-z
17 2/3+y,1/3-x+y,1/3-z
18 2/3+x-y,1/3+x,1/3-z
_cell_length_a                   33.6525(6)
_cell_length_b                   33.6525(6)
_cell_length_c                   4.80132(11)
_cell_angle_alpha                90
_cell_angle_beta                 90
_cell_angle_gamma                120
_cell_volume                     4708.97
loop_
_atom_site_label
_atom_site_type_symbol
_atom_site_fract_x
_atom_site_fract_y
_atom_site_fract_z
Cu1 Cu 0.8333 0.1667 0.1667
O1 O 0.80690(5) 0.10553(5) 0.3304(3)
N1 N 0.77583(6) 0.14507(6) -0.0464(4)
N2 N 0.77182(6) 0.17085(7) -0.2494(4)
C1 C 0.73478(7) 0.10893(8) -0.0060(5)
H1 H 0.7279 0.0852 0.1257
O2 O 0.84403(6) 0.09796(6) -0.0287(4)
C2 C 0.63529(8) 0.09730(7) -0.4338(5)
C3 C 0.70833(9) 0.16559(9) -0.5474(5)
H2 H 0.7260 0.1929 -0.6515
C4 C 0.65483(8) 0.08316(8) -0.2323(5)
H3 H 0.6369 0.0559 -0.1277
C5 C 0.70253(7) 0.11064(7) -0.1879(5)
C6 C 0.66218(8) 0.13799(9) -0.5887(5)
H4 H 0.6476 0.1464 -0.7268
C7 C 0.72819(7) 0.15113(8) -0.3415(5)
C8 C 0.81733(7) 0.08181(8) 0.1719(5)
H5 H 0.7968(8) 0.1935(9) -0.313(7)
Cu1H Cu 0.6667 -0.1666 0.8334
Cu1D Cu 0.5000 -0.0001 -0.5000
O1O O 0.85977(5) 0.22780(5) 0.0029(3)
O1D O 0.56114(5) 0.03470(7) -0.3363(3)
N1O N 0.89084(6) 0.18826(6) 0.3797(4)
N1H N 0.70257(8) -0.10916(6) 0.6203(4)
N2H N 0.73236(9) -0.10515(6) 0.4173(4)
C1H C 0.70748(11) -0.06811(7) 0.6607(5)
H1H H 0.6906 -0.0612 0.7924
O2D O 0.56871(6) 0.07940(8) -0.6954(4)
C2H C 0.79534(11) 0.03138(8) 0.2329(5)
C3H C 0.79059(13) -0.04166(9) 0.1193(5)
H2H H 0.8002 -0.0593 0.0152
C4H C 0.76166(11) 0.01184(8) 0.4344(5)
H3H H 0.7523 0.0298 0.5390
C5H C 0.74144(10) -0.03586(7) 0.4788(5)
C6H C 0.80914(12) 0.00449(8) 0.0780(5)
H4H H 0.8321 0.0191 -0.0601
C7H C 0.75627(11) -0.06152(7) 0.3252(5)
C8D C 0.58486(8) 0.06885(11) -0.4948(5)
H5H H 0.7300(12) -0.1301(8) 0.354(7)
loop_
_geom_bond_atom_site_label_1
_geom_bond_atom_site_label_2
_geom_bond_site_symmetry_1
_geom_bond_site_symmetry_2
Cu1 O1 1_555 1_555
O1 C8 1_555 1_555
N1 Cu1 1_555 1_555
N2 N1 1_555 1_555
C1 N1 1_555 1_555
H1 C1 1_555 1_555
O2 C8 1_555 1_555
C2 C4 1_555 1_555
C3 H2 1_555 1_555
C4 H3 1_555 1_555
C5 C1 1_555 1_555
C6 C2 1_555 1_555
H4 C6 1_555 1_555
C7 N2 1_555 1_555
C8 C2H 1_555 1_555
H5 N2 1_555 1_555
Cu1H N1H 1_555 1_555
Cu1D O1D 1_555 1_555
O1O Cu1 1_555 1_555
O1D C8D 1_555 1_555
N1O Cu1 1_555 1_555
N1H N2H 1_555 1_555
N2H C7H 1_555 1_555
C1H N1H 1_555 1_555
H1H C1H 1_555 1_555
O2D C8D 1_555 1_555
C2H C4H 1_555 1_555
C3H H2H 1_555 1_555
C4H H3H 1_555 1_555
C5H C1H 1_555 1_555
C6H C2H 1_555 1_555
H4H C6H 1_555 1_555
C7H C3H 1_555 1_555
C8D C2 1_555 1_555
H5H N2H 1_555 1_555
C3 C6 1_555 1_555
C3 C7 1_555 1_555
C4 C5 1_555 1_555
C5 C7 1_555 1_555
C3H C6H 1_555 1_555
C4H C5H 1_555 1_555
C5H C7H 1_555 1_555

#END
