
#######################################################################
#
#                 Cambridge Crystallographic Data Centre
#                                CCDC 
#
#######################################################################
#
# If this CIF has been generated from an entry in the Cambridge 
# Structural Database, then it will include bibliographic, chemical, 
# crystal, experimental, refinement or atomic coordinate data resulting 
# from the CCDC's data processing and validation procedures.
#
#######################################################################

data_SEGBOX
_chemical_formula_moiety         '(C16 H10 Cu1 N4 O4)n'
_symmetry_cell_setting           rhombohedral
_symmetry_space_group_name_H-M   'R -3'
_symmetry_Int_Tables_number      148
_space_group_name_Hall           '-R 3'
loop_
_symmetry_equiv_pos_site_id
_symmetry_equiv_pos_as_xyz
1 x,y,z
2 -y,x-y,z
3 -x+y,-x,z
4 2/3+x,1/3+y,1/3+z
5 2/3-y,1/3+x-y,1/3+z
6 2/3-x+y,1/3-x,1/3+z
7 1/3+x,2/3+y,2/3+z
8 1/3-y,2/3+x-y,2/3+z
9 1/3-x+y,2/3-x,2/3+z
10 -x,-y,-z
11 y,-x+y,-z
12 x-y,x,-z
13 1/3-x,2/3-y,2/3-z
14 1/3+y,2/3-x+y,2/3-z
15 1/3+x-y,2/3+x,2/3-z
16 2/3-x,1/3-y,1/3-z
17 2/3+y,1/3-x+y,1/3-z
18 2/3+x-y,1/3+x,1/3-z
_cell_length_a                   33.6966(8)
_cell_length_b                   33.6966(8)
_cell_length_c                   4.78817(13)
_cell_angle_alpha                90
_cell_angle_beta                 90
_cell_angle_gamma                120
_cell_volume                     4708.39
loop_
_atom_site_label
_atom_site_type_symbol
_atom_site_fract_x
_atom_site_fract_y
_atom_site_fract_z
Cu1 Cu 0.5000 0.5000 1.0000
O1 O 0.56096(3) 0.52653(3) 1.1660(2)
N1 N 0.77158(4) 0.60057(4) 1.2519(2)
N2 N 0.77566(4) 0.63059(4) 1.4543(2)
O2 O 0.56851(4) 0.48911(4) 0.8057(2)
C1 C 0.73468(5) 0.62582(4) 1.4951(3)
H1 H 0.7279 0.6428 1.6265
C2 C 0.65476(5) 0.57159(5) 1.2696(3)
H2 H 0.6369 0.5810 1.3739
C3 C 0.72784(5) 0.57655(5) 1.1603(3)
C4 C 0.66166(5) 0.52343(5) 0.9148(3)
H3 H 0.6469 0.5002 0.7776
C5 C 0.70233(5) 0.59176(5) 1.3139(3)
C6 C 0.58474(5) 0.51575(4) 1.0065(3)
C7 C 0.63505(5) 0.53770(4) 1.0692(3)
C8 C 0.70780(5) 0.54195(5) 0.9564(3)
H4 H 0.7253 0.5320 0.8533
H5 H 0.7946(6) 0.6001(6) 1.186(4)
Cu1G Cu 0.8333 0.6667 1.6667
Cu1D Cu 0.1667 0.3333 0.3333
O1I O 0.43904(3) 0.47347(3) 0.8340(2)
N1I N 0.22842(4) 0.39943(4) 0.7481(2)
N2I N 0.22434(4) 0.36941(4) 0.5457(2)
N2E N 0.52160(6) 0.55767(4) 0.7876(2)
N2N N 0.47840(6) 0.44233(4) 1.2124(2)
O2I O 0.43149(4) 0.51089(4) 1.1943(2)
C1I C 0.26532(5) 0.37418(4) 0.5049(3)
H1I H 0.2721 0.3572 0.3735
C2I C 0.34524(5) 0.42841(5) 0.7304(3)
H2I H 0.3631 0.4190 0.6261
C3I C 0.27216(5) 0.42345(5) 0.8397(3)
C4I C 0.33834(5) 0.47657(5) 1.0852(3)
H3I H 0.3531 0.4998 1.2224
C5I C 0.29767(5) 0.40824(5) 0.6861(3)
C6I C 0.41526(5) 0.48425(4) 0.9935(3)
C7I C 0.36495(5) 0.46230(4) 0.9308(3)
C8I C 0.29220(5) 0.45805(5) 1.0436(3)
H4I H 0.2747 0.4680 1.1467
H5I H 0.2054(6) 0.3999(6) 0.814(4)
loop_
_geom_bond_atom_site_label_1
_geom_bond_atom_site_label_2
_geom_bond_site_symmetry_1
_geom_bond_site_symmetry_2
Cu1 O1 1_555 1_555
O1 C6 1_555 1_555
N1 N2 1_555 1_555
N2 C1 1_555 1_555
O2 C6 1_555 1_555
C1 H1 1_555 1_555
C2 H2 1_555 1_555
C3 N1 1_555 1_555
C4 H3 1_555 1_555
C5 C1 1_555 1_555
C6 C7 1_555 1_555
C7 C2 1_555 1_555
C8 C3 1_555 1_555
H4 C8 1_555 1_555
H5 N1 1_555 1_555
Cu1G N2 1_555 1_555
Cu1D N2I 1_555 1_555
O1I Cu1 1_555 1_555
N1I N2I 1_555 1_555
N2I C1I 1_555 1_555
N2E Cu1 1_555 1_555
N2N Cu1 1_555 1_555
O2I C6I 1_555 1_555
C1I H1I 1_555 1_555
C2I H2I 1_555 1_555
C3I N1I 1_555 1_555
C4I H3I 1_555 1_555
C5I C1I 1_555 1_555
C6I O1I 1_555 1_555
C7I C2I 1_555 1_555
C8I C3I 1_555 1_555
H4I C8I 1_555 1_555
H5I N1I 1_555 1_555
C2 C5 1_555 1_555
C3 C5 1_555 1_555
C4 C7 1_555 1_555
C4 C8 1_555 1_555
C2I C5I 1_555 1_555
C3I C5I 1_555 1_555
C4I C7I 1_555 1_555
C4I C8I 1_555 1_555
C6I C7I 1_555 1_555

#END
