
#######################################################################
#
#                 Cambridge Crystallographic Data Centre
#                                CCDC 
#
#######################################################################
#
# If this CIF has been generated from an entry in the Cambridge 
# Structural Database, then it will include bibliographic, chemical, 
# crystal, experimental, refinement or atomic coordinate data resulting 
# from the CCDC's data processing and validation procedures.
#
#######################################################################

data_LADQIT
_chemical_formula_moiety         '(C59 H72 Gd2 N2 O23)n'
_symmetry_cell_setting           triclinic
_symmetry_space_group_name_H-M   'P -1'
_symmetry_Int_Tables_number      2
_space_group_name_Hall           '-P 1'
loop_
_symmetry_equiv_pos_site_id
_symmetry_equiv_pos_as_xyz
1 x,y,z
2 -x,-y,-z
_cell_length_a                   11.4957(4)
_cell_length_b                   13.6804(4)
_cell_length_c                   23.9693(8)
_cell_angle_alpha                76.328(3)
_cell_angle_beta                 76.214(3)
_cell_angle_gamma                66.917(3)
_cell_volume                     3324.48
loop_
_atom_site_label
_atom_site_type_symbol
_atom_site_fract_x
_atom_site_fract_y
_atom_site_fract_z
Gd1 Gd 0.64066(3) 0.29881(2) 0.482698(13)
Gd2 Gd 0.81596(3) -0.40190(3) 0.038273(14)
C1 C 0.8744(8) 0.5006(6) 0.9230(3)
C2 C 0.8487(7) 0.4730(6) 0.8713(3)
C3 C 0.9299(7) 0.3816(6) 0.8495(3)
H1 H 1.0017 0.3377 0.8665
C4 C 0.9067(7) 0.3535(6) 0.8024(3)
H2 H 0.9622 0.2908 0.7881
C5 C 0.8003(6) 0.4193(6) 0.7770(3)
C6 C 0.7542(6) 0.4132(5) 0.7263(3)
C7 C 0.8032(7) 0.3383(6) 0.6886(3)
H3 H 0.8746 0.2767 0.6951
C8 C 0.7437(7) 0.3571(6) 0.6412(3)
H4 H 0.7757 0.3073 0.6157
C9 C 0.6382(6) 0.4479(5) 0.6309(3)
C10 C 0.5797(7) 0.4709(5) 0.5780(3)
C11 C 0.5867(6) 0.5219(6) 0.6701(3)
H5 H 0.5135 0.5821 0.6644
C12 C 0.6450(6) 0.5047(6) 0.7170(3)
C13 C 0.6111(6) 0.5757(6) 0.7626(3)
C14 C 0.4781(7) 0.5882(8) 0.7975(4)
H6 H 0.4157 0.6254 0.7721
H7 H 0.4614 0.6290 0.8279
H8 H 0.4732 0.5186 0.8143
C15 C 0.6181(9) 0.6881(7) 0.7347(4)
H9 H 0.6992 0.6798 0.7098
H10 H 0.6093 0.7272 0.7648
H11 H 0.5501 0.7270 0.7123
C16 C 0.7168(6) 0.5128(6) 0.7995(3)
C17 C 0.7412(7) 0.5390(6) 0.8461(3)
H12 H 0.6858 0.6011 0.8610
C18 C 1.0262(7) -0.3382(6) 0.9258(3)
C19 C 1.0155(6) -0.2753(6) 0.8657(3)
C20 C 1.1153(7) -0.3059(6) 0.8201(3)
H13 H 1.1900 -0.3637 0.8273
C21 C 1.1048(7) -0.2511(6) 0.7635(3)
H14 H 1.1721 -0.2717 0.7331
C22 C 0.9937(6) -0.1661(5) 0.7530(3)
C23 C 0.9538(6) -0.0962(5) 0.6990(3)
C24 C 1.0164(6) -0.0967(6) 0.6425(3)
H15 H 1.0971 -0.1480 0.6335
C25 C 0.9578(6) -0.0205(5) 0.5996(3)
H16 H 1.0008 -0.0187 0.5614
C26 C 0.8331(6) 0.0558(5) 0.6121(3)
C27 C 0.7679(6) 0.1369(5) 0.5659(3)
C28 C 0.7709(6) 0.0548(6) 0.6690(3)
H17 H 0.6891 0.1044 0.6781
C29 C 0.8314(6) -0.0204(6) 0.7119(3)
C30 C 0.7794(6) -0.0375(6) 0.7779(3)
C31 C 0.6595(7) -0.0670(8) 0.7885(4)
H18 H 0.6748 -0.1221 0.7663
H19 H 0.5889 -0.0044 0.7768
H20 H 0.6395 -0.0929 0.8291
C32 C 0.7512(8) 0.0629(7) 0.8042(3)
H21 H 0.7355 0.0460 0.8459
H22 H 0.6771 0.1197 0.7911
H23 H 0.8236 0.0858 0.7922
C33 C 0.8941(7) -0.1333(5) 0.7990(3)
C34 C 0.9045(7) -0.1888(6) 0.8553(3)
H24 H 0.8375 -0.1680 0.8857
C35 C 0.6190(6) 0.1615(5) 0.4185(3)
C36 C 0.6167(6) 0.0826(5) 0.3850(3)
C37 C 0.5538(7) 0.0101(6) 0.4112(3)
H25 H 0.5104 0.0134 0.4491
C38 C 0.5542(7) -0.0662(6) 0.3822(3)
H26 H 0.5130 -0.1146 0.4004
C39 C 0.6178(6) -0.0684(5) 0.3252(3)
C40 C 0.6366(6) -0.1388(5) 0.2834(3)
C41 C 0.5955(7) -0.2231(6) 0.2880(3)
H27 H 0.5471 -0.2445 0.3223
C42 C 0.6281(7) -0.2754(6) 0.2402(3)
H28 H 0.6009 -0.3322 0.2427
C43 C 0.7004(7) -0.2448(6) 0.1888(3)
C44 C 0.7362(7) -0.3018(6) 0.1370(3)
C45 C 0.7392(6) -0.1602(6) 0.1851(3)
H29 H 0.7861 -0.1381 0.1505
C46 C 0.7090(6) -0.1071(5) 0.2323(3)
C47 C 0.7461(6) -0.0149(5) 0.2373(3)
C48 C 0.6963(8) 0.0849(6) 0.1922(3)
H30 H 0.7285 0.0664 0.1538
H31 H 0.7248 0.1399 0.1959
H32 H 0.6043 0.1110 0.1986
C49 C 0.8915(7) -0.0496(7) 0.2332(4)
H33 H 0.9233 -0.1156 0.2592
H34 H 0.9104 0.0057 0.2434
H35 H 0.9320 -0.0600 0.1940
C50 C 0.6807(6) 0.0050(5) 0.2989(3)
C51 C 0.6789(6) 0.0796(5) 0.3284(3)
H36 H 0.7197 0.1283 0.3103
C52 C 0.9233(9) 0.4342(9) 0.4619(6)
H37 H 1.0043 0.4421 0.4448
H38 H 0.9359 0.3727 0.4922
H39 H 0.8667 0.4976 0.4780
C53 C 0.8643(9) 0.4171(8) 0.4140(5)
C54 C 0.9428(17) 0.5520(12) 0.3506(7)
H40 H 0.8908 0.6145 0.3278
H41 H 1.0248 0.5212 0.3276
H42 H 0.9544 0.5722 0.3841
C55 C 0.8159(18) 0.4565(12) 0.3247(6)
H43 H 0.7275 0.4695 0.3413
H44 H 0.8560 0.3841 0.3164
H45 H 0.8213 0.5062 0.2893
N1 N 0.8828(11) 0.4719(8) 0.3697(5)
O1 O 0.7794(5) 0.5619(5) 0.9528(2)
O2 O 0.9849(5) 0.4634(4) 0.9346(2)
O3 O 0.4689(5) 0.5427(4) 0.57593(19)
O4 O 0.6432(4) 0.4190(4) 0.53689(18)
O5 O 0.9289(5) -0.3122(4) 0.9645(2)
O6 O 1.1309(5) -0.4136(4) 0.9334(2)
O7 O 0.6533(4) 0.1954(4) 0.57847(19)
O8 O 0.8264(4) 0.1476(4) 0.5139(2)
O9 O 0.5698(5) 0.1592(4) 0.47175(19)
O10 O 0.6697(4) 0.2307(4) 0.3933(2)
O11 O 0.7216(6) -0.3891(5) 0.1420(2)
O12 O 0.7841(6) -0.2583(4) 0.0888(2)
O13 O 0.4216(4) 0.3587(4) 0.5347(2)
O14 O 0.8081(5) 0.3523(4) 0.4283(2)
O15 O 0.5956(9) -0.4214(12) 0.0582(6)
O16 O 0.6235(11) -0.2643(12) 0.0154(5)
Gd1A Gd 0.35934(3) 0.70119(2) 0.517302(13)
Gd2_2 Gd 0.81596(3) -0.40190(3) 1.038273(14)
Gd2_3 Gd 0.81596(3) 0.59810(3) 1.038273(14)
Gd2A Gd 1.18404(3) -0.59810(3) 0.961727(14)
Gd2A_2 Gd 1.18404(3) 0.40190(3) 0.961727(14)
O1_2 O 0.7794(5) -0.4381(5) -0.0472(2)
O2A O 1.0151(5) -0.4634(4) 0.0654(2)
O3A O 0.5311(5) 0.4573(4) 0.42407(19)
O5_2 O 0.9289(5) -0.3122(4) -0.0355(2)
O6A O 0.8691(5) -0.5864(4) 0.0666(2)
C56 C 0.1171(10) 0.1714(9) 0.5803(6)
H46 H 0.0626 0.2209 0.6064
H47 H 0.1778 0.1118 0.6009
H48 H 0.0660 0.1455 0.5654
C57 C 0.1877(14) 0.2279(16) 0.5306(8)
C58 C 0.2782(10) 0.2748(11) 0.4313(5)
H49 H 0.3382 0.2939 0.4443
H50 H 0.2142 0.3390 0.4157
H51 H 0.3226 0.2305 0.4016
C59 C 0.1763(14) 0.1264(13) 0.4664(9)
H52 H 0.1801 0.0694 0.4990
H53 H 0.2346 0.0977 0.4332
H54 H 0.0907 0.1584 0.4576
N2 N 0.2171(13) 0.2193(13) 0.4826(9)
O17 O 0.2239(7) 0.3041(7) 0.5396(5)
O18 O 0.468(4) 0.554(3) 0.0023(18)
O19 O 0.581(3) 0.9624(19) 0.0359(14)
O20 O 0.4182(13) 0.6978(15) 0.0641(14)
O21 O 0.965(3) 0.946(2) 0.005(2)
O22 O 0.520(2) 0.827(3) 0.9532(10)
O23 O 0.281(2) 0.718(3) 0.0156(12)
loop_
_geom_bond_atom_site_label_1
_geom_bond_atom_site_label_2
_geom_bond_site_symmetry_1
_geom_bond_site_symmetry_2
Gd1 O4 1_555 1_555
Gd2 O11 1_555 1_555
C1 C2 1_555 1_555
C2 C3 1_555 1_555
C3 H1 1_555 1_555
C4 C3 1_555 1_555
H2 C4 1_555 1_555
C5 C4 1_555 1_555
C6 C5 1_555 1_555
C7 C6 1_555 1_555
H3 C7 1_555 1_555
C8 C7 1_555 1_555
H4 C8 1_555 1_555
C9 C8 1_555 1_555
C10 C9 1_555 1_555
C11 C9 1_555 1_555
H5 C11 1_555 1_555
C12 C6 1_555 1_555
C13 C12 1_555 1_555
C14 C13 1_555 1_555
H6 C14 1_555 1_555
H7 C14 1_555 1_555
H8 C14 1_555 1_555
C15 C13 1_555 1_555
H9 C15 1_555 1_555
H10 C15 1_555 1_555
H11 C15 1_555 1_555
C16 C5 1_555 1_555
C17 C2 1_555 1_555
H12 C17 1_555 1_555
C18 C19 1_555 1_555
C19 C20 1_555 1_555
C20 H13 1_555 1_555
C21 C20 1_555 1_555
H14 C21 1_555 1_555
C22 C21 1_555 1_555
C23 C22 1_555 1_555
C24 C23 1_555 1_555
H15 C24 1_555 1_555
C25 C24 1_555 1_555
H16 C25 1_555 1_555
C26 C25 1_555 1_555
C27 C26 1_555 1_555
C28 C26 1_555 1_555
H17 C28 1_555 1_555
C29 C23 1_555 1_555
C30 C29 1_555 1_555
C31 C30 1_555 1_555
H18 C31 1_555 1_555
H19 C31 1_555 1_555
H20 C31 1_555 1_555
C32 C30 1_555 1_555
H21 C32 1_555 1_555
H22 C32 1_555 1_555
H23 C32 1_555 1_555
C33 C22 1_555 1_555
C34 C19 1_555 1_555
H24 C34 1_555 1_555
C35 C36 1_555 1_555
C36 C37 1_555 1_555
C37 H25 1_555 1_555
C38 C37 1_555 1_555
H26 C38 1_555 1_555
C39 C38 1_555 1_555
C40 C39 1_555 1_555
C41 C40 1_555 1_555
H27 C41 1_555 1_555
C42 C41 1_555 1_555
H28 C42 1_555 1_555
C43 C42 1_555 1_555
C44 C43 1_555 1_555
C45 C43 1_555 1_555
H29 C45 1_555 1_555
C46 C40 1_555 1_555
C47 C46 1_555 1_555
C48 C47 1_555 1_555
H30 C48 1_555 1_555
H31 C48 1_555 1_555
H32 C48 1_555 1_555
C49 C47 1_555 1_555
H33 C49 1_555 1_555
H34 C49 1_555 1_555
H35 C49 1_555 1_555
C50 C39 1_555 1_555
C51 C36 1_555 1_555
H36 C51 1_555 1_555
C52 H37 1_555 1_555
H38 C52 1_555 1_555
H39 C52 1_555 1_555
C53 C52 1_555 1_555
C54 H40 1_555 1_555
H41 C54 1_555 1_555
H42 C54 1_555 1_555
C55 H43 1_555 1_555
H44 C55 1_555 1_555
H45 C55 1_555 1_555
N1 C53 1_555 1_555
O1 C1 1_555 1_555
O2 C1 1_555 1_555
O3 C10 1_555 1_555
O4 C10 1_555 1_555
O5 C18 1_555 1_555
O6 C18 1_555 1_555
O7 Gd1 1_555 1_555
O8 Gd1 1_555 1_555
O9 Gd1 1_555 1_555
O10 Gd1 1_555 1_555
O11 C44 1_555 1_555
O12 Gd2 1_555 1_555
O13 Gd1 1_555 1_555
O14 Gd1 1_555 1_555
O15 Gd2 1_555 1_555
O16 Gd2 1_555 1_555
C56 H46 1_555 1_555
H47 C56 1_555 1_555
H48 C56 1_555 1_555
C57 C56 1_555 1_555
C58 H49 1_555 1_555
H50 C58 1_555 1_555
H51 C58 1_555 1_555
C59 H52 1_555 1_555
H53 C59 1_555 1_555
H54 C59 1_555 1_555
N2 C57 1_555 1_555
O17 C57 1_555 1_555
Gd1A O3 1_555 1_555
Gd2_2 O5 1_555 1_555
Gd2_3 O1 1_555 1_555
Gd2A O6 1_555 1_555
Gd2A_2 O2 1_555 1_555
O1_2 Gd2 1_555 1_555
O2A Gd2 1_555 1_555
O3A Gd1 1_555 1_555
O5_2 Gd2 1_555 1_555
O6A Gd2 1_555 1_555
C11 C12 1_555 1_555
C13 C16 1_555 1_555
C16 C17 1_555 1_555
C27 O7 1_555 1_555
C27 O8 1_555 1_555
C28 C29 1_555 1_555
C30 C33 1_555 1_555
C33 C34 1_555 1_555
C35 O9 1_555 1_555
C35 O10 1_555 1_555
C44 O12 1_555 1_555
C45 C46 1_555 1_555
C47 C50 1_555 1_555
C50 C51 1_555 1_555
C53 O14 1_555 1_555
C54 N1 1_555 1_555
C55 N1 1_555 1_555
C58 N2 1_555 1_555
C59 N2 1_555 1_555

#END
