
#######################################################################
#
#                 Cambridge Crystallographic Data Centre
#                                CCDC 
#
#######################################################################
#
# If this CIF has been generated from an entry in the Cambridge 
# Structural Database, then it will include bibliographic, chemical, 
# crystal, experimental, refinement or atomic coordinate data resulting 
# from the CCDC's data processing and validation procedures.
#
#######################################################################

data_QATLEE
_chemical_formula_moiety         '(C72 H36 O26 Zn7 2-)n'
_symmetry_cell_setting           orthorhombic
_symmetry_space_group_name_H-M   'C m c a'
_symmetry_Int_Tables_number      64
_space_group_name_Hall           '-C 2ac 2'
loop_
_symmetry_equiv_pos_site_id
_symmetry_equiv_pos_as_xyz
1 x,y,z
2 -x,1/2-y,1/2+z
3 -x,1/2+y,1/2-z
4 x,-y,-z
5 1/2+x,1/2+y,z
6 1/2-x,-y,1/2+z
7 1/2-x,y,1/2-z
8 1/2+x,1/2-y,-z
9 -x,-y,-z
10 x,1/2+y,1/2-z
11 x,1/2-y,1/2+z
12 -x,y,z
13 1/2-x,1/2-y,-z
14 1/2+x,y,1/2-z
15 1/2+x,-y,1/2+z
16 1/2-x,1/2+y,z
_cell_length_a                   19.0965(14)
_cell_length_b                   17.5960(13)
_cell_length_c                   23.941(2)
_cell_angle_alpha                90
_cell_angle_beta                 90
_cell_angle_gamma                90
_cell_volume                     8044.7
loop_
_atom_site_label
_atom_site_type_symbol
_atom_site_fract_x
_atom_site_fract_y
_atom_site_fract_z
Zn1 Zn -0.08208(2) -0.07937(2) 0.60179(2)
Zn2 Zn -0.5000 0.31904(4) 0.51982(3)
Zn3 Zn 0.0000 0.0000 0.5000
O1 O -0.08893(17) 0.06966(17) 0.53341(14)
O2 O -0.13334(19) 0.01422(18) 0.60806(14)
O3 O -0.42123(18) 0.26698(19) 0.55949(18)
O4 O -0.3426(2) 0.3469(2) 0.59260(17)
O5 O -0.0576(2) -0.1016(2) 0.68060(14)
O6 O 0.0000 -0.1716(4) 0.9647(3)
O7 O 0.0000 -0.2910(3) 0.94361(18)
O8 O 0.0000 -0.08166(18) 0.55612(15)
C1 C -0.1950(2) 0.1165(3) 0.5694(2)
C2 C -0.1831(2) 0.1922(3) 0.5678(2)
H1 H -0.1373 0.2096 0.5639
C3 C -0.2374(2) 0.2453(3) 0.5717(2)
H2 H -0.2271 0.2970 0.5726
C4 C -0.3060(3) 0.2214(3) 0.5743(2)
C5 C -0.3215(3) 0.1419(3) 0.5736(4)
C6 C -0.3856(5) 0.1216(6) 0.5970(6)
H3 H -0.4192 0.1583 0.6050
C7 C -0.3978(6) 0.0472(7) 0.6078(7)
H4 H -0.4425 0.0314 0.6180
C8 C -0.3442(6) -0.0056(6) 0.6039(7)
H5 H -0.3535 -0.0570 0.6090
C9 C -0.2772(5) 0.0183(6) 0.5924(6)
H6 H -0.2398 -0.0145 0.5987
C10 C -0.2649(3) 0.0885(3) 0.5720(4)
C11 C -0.1342(2) 0.0632(2) 0.5690(2)
C12 C -0.3614(3) 0.2822(3) 0.5753(2)
C13 C 0.0000 -0.1465(4) 0.7608(3)
C14 C 0.0000 -0.0996(4) 0.8032(3)
H7 H 0.0000 -0.0475 0.7969
C15 C 0.0000 -0.1278(5) 0.8586(3)
H8 H -0.0000 -0.0937 0.8882
C16 C 0.0000 -0.2031(4) 0.8692(3)
C17 C 0.0000 -0.2536(4) 0.8254(3)
C18 C 0.0000 -0.3331(5) 0.8316(4)
H9 H 0.0000 -0.3536 0.8674
C19 C 0.0000 -0.3810(6) 0.7871(5)
H10 H 0.0000 -0.4333 0.7925
C20 C 0.0000 -0.3507(6) 0.7327(5)
H11 H 0.0000 -0.3837 0.7023
C21 C 0.0000 -0.2752(5) 0.7234(4)
H12 H 0.0000 -0.2565 0.6871
C22 C 0.0000 -0.2245(4) 0.7692(3)
C23 C 0.0000 -0.1147(4) 0.7017(3)
C24 C 0.0000 -0.2229(5) 0.9312(3)
Zn1C Zn -0.08208(2) 0.07937(2) 0.39821(2)
Zn1H Zn 0.08208(2) 0.07937(2) 0.39821(2)
Zn1K Zn 0.08208(2) -0.07937(2) 0.60179(2)
Zn1O Zn -0.41792(2) 0.42063(2) 0.60179(2)
Zn1L Zn -0.41792(2) -0.42063(2) 0.39821(2)
Zn1G Zn 0.41792(2) -0.42063(2) 0.39821(2)
Zn1D Zn 0.41792(2) 0.42063(2) 0.60179(2)
Zn1E Zn -0.41792(2) 0.07937(2) 0.10179(2)
Zn1N Zn -0.58208(2) 0.07937(2) 0.10179(2)
Zn2C Zn -0.5000 -0.31904(4) 0.48018(3)
Zn2E Zn 0.0000 -0.31904(4) 1.01982(3)
Zn2D Zn 0.0000 -0.18096(4) 0.51982(3)
Zn2C_2 Zn 0.5000 -0.31904(4) 0.48018(3)
Zn2_2 Zn 0.5000 0.31904(4) 0.51982(3)
Zn2G Zn 0.0000 0.18096(4) 0.48018(3)
O1C O -0.08893(17) -0.06966(17) 0.46659(14)
O1H O 0.08893(17) -0.06966(17) 0.46659(14)
O1K O 0.08893(17) 0.06966(17) 0.53341(14)
O2C O -0.13334(19) -0.01422(18) 0.39194(14)
O2H O 0.13334(19) -0.01422(18) 0.39194(14)
O2K O 0.13334(19) 0.01422(18) 0.60806(14)
O3C O -0.42123(18) -0.26698(19) 0.44051(18)
O3H O 0.42123(18) -0.26698(19) 0.44051(18)
O3K O 0.42123(18) 0.26698(19) 0.55949(18)
O3K_2 O -0.57877(18) 0.26698(19) 0.55949(18)
O3H_2 O -0.57877(18) -0.26698(19) 0.44051(18)
O4C O -0.3426(2) -0.3469(2) 0.40740(17)
O4H O 0.3426(2) -0.3469(2) 0.40740(17)
O4K O 0.3426(2) 0.3469(2) 0.59260(17)
O4O O -0.1574(2) -0.1531(2) 0.59260(17)
O4L O -0.1574(2) 0.1531(2) 0.40740(17)
O4G O 0.1574(2) 0.1531(2) 0.40740(17)
O4D O 0.1574(2) -0.1531(2) 0.59260(17)
O5K O 0.0576(2) -0.1016(2) 0.68060(14)
O5E O -0.4424(2) 0.1016(2) 0.18060(14)
O5N O -0.5576(2) 0.1016(2) 0.18060(14)
O5C O -0.0576(2) 0.1016(2) 0.31940(14)
O5H O 0.0576(2) 0.1016(2) 0.31940(14)
O6E O -0.5000 0.1716(4) 0.4647(3)
O7E O -0.5000 0.2910(3) 0.44361(18)
O7F O -0.5000 -0.2910(3) 0.55639(18)
O8C O 0.0000 0.08166(18) 0.44388(15)
O8D O -0.5000 0.41834(18) 0.55612(15)
O8G O -0.5000 -0.41834(18) 0.44388(15)
C1C C -0.1950(2) -0.1165(3) 0.4306(2)
C1H C 0.1950(2) -0.1165(3) 0.4306(2)
C1K C 0.1950(2) 0.1165(3) 0.5694(2)
C2C C -0.1831(2) -0.1922(3) 0.4322(2)
C2H C 0.1831(2) -0.1922(3) 0.4322(2)
C2K C 0.1831(2) 0.1922(3) 0.5678(2)
H1C H -0.1373 -0.2096 0.4361
H1H H 0.1373 -0.2096 0.4361
H1K H 0.1373 0.2096 0.5639
C3C C -0.2374(2) -0.2453(3) 0.4283(2)
C3H C 0.2374(2) -0.2453(3) 0.4283(2)
C3K C 0.2374(2) 0.2453(3) 0.5717(2)
H2C H -0.2271 -0.2970 0.4274
H2H H 0.2271 -0.2970 0.4274
H2K H 0.2271 0.2970 0.5726
C4C C -0.3060(3) -0.2214(3) 0.4257(2)
C4H C 0.3060(3) -0.2214(3) 0.4257(2)
C4K C 0.3060(3) 0.2214(3) 0.5743(2)
C5C C -0.3215(3) -0.1419(3) 0.4264(4)
C5H C 0.3215(3) -0.1419(3) 0.4264(4)
C5K C 0.3215(3) 0.1419(3) 0.5736(4)
C6C C -0.3856(5) -0.1216(6) 0.4030(6)
C6H C 0.3856(5) -0.1216(6) 0.4030(6)
C6K C 0.3856(5) 0.1216(6) 0.5970(6)
H3C H -0.4192 -0.1583 0.3950
H3H H 0.4192 -0.1583 0.3950
H3K H 0.4192 0.1583 0.6050
C7C C -0.3978(6) -0.0472(7) 0.3922(7)
C7H C 0.3978(6) -0.0472(7) 0.3922(7)
C7K C 0.3978(6) 0.0472(7) 0.6078(7)
H4C H -0.4425 -0.0314 0.3820
H4H H 0.4425 -0.0314 0.3820
H4K H 0.4425 0.0314 0.6180
C8C C -0.3442(6) 0.0056(6) 0.3961(7)
C8H C 0.3442(6) 0.0056(6) 0.3961(7)
C8K C 0.3442(6) -0.0056(6) 0.6039(7)
H5C H -0.3535 0.0570 0.3910
H5H H 0.3535 0.0570 0.3910
H5K H 0.3535 -0.0570 0.6090
C9C C -0.2772(5) -0.0183(6) 0.4076(6)
C9H C 0.2772(5) -0.0183(6) 0.4076(6)
C9K C 0.2772(5) 0.0183(6) 0.5924(6)
H6C H -0.2398 0.0145 0.4013
H6H H 0.2398 0.0145 0.4013
H6K H 0.2398 -0.0145 0.5987
C10C C -0.2649(3) -0.0885(3) 0.4280(4)
C10H C 0.2649(3) -0.0885(3) 0.4280(4)
C10K C 0.2649(3) 0.0885(3) 0.5720(4)
C11C C -0.1342(2) -0.0632(2) 0.4310(2)
C11H C 0.1342(2) -0.0632(2) 0.4310(2)
C11K C 0.1342(2) 0.0632(2) 0.5690(2)
C12C C -0.3614(3) -0.2822(3) 0.4247(2)
C12H C 0.3614(3) -0.2822(3) 0.4247(2)
C12K C 0.3614(3) 0.2822(3) 0.5753(2)
C13E C -0.5000 0.1465(4) 0.2608(3)
C14E C -0.5000 0.0996(4) 0.3032(3)
H7E H -0.5000 0.0475 0.2969
C15E C -0.5000 0.1278(5) 0.3586(3)
H8E H -0.5000 0.0937 0.3882
C16E C -0.5000 0.2031(4) 0.3692(3)
C17E C -0.5000 0.2536(4) 0.3254(3)
C18E C -0.5000 0.3331(5) 0.3316(4)
H9E H -0.5000 0.3536 0.3674
C19E C -0.5000 0.3810(6) 0.2871(5)
H10E H -0.5000 0.4333 0.2925
C20E C -0.5000 0.3507(6) 0.2327(5)
H11E H -0.5000 0.3837 0.2023
C21E C -0.5000 0.2752(5) 0.2234(4)
H12E H -0.5000 0.2565 0.1871
C22E C -0.5000 0.2245(4) 0.2692(3)
C23E C -0.5000 0.1147(4) 0.2017(3)
C24E C -0.5000 0.2229(5) 0.4312(3)
loop_
_geom_bond_atom_site_label_1
_geom_bond_atom_site_label_2
_geom_bond_site_symmetry_1
_geom_bond_site_symmetry_2
Zn1 O2 1_555 1_555
Zn2 O3 1_555 1_555
Zn3 O1 1_555 1_555
O1 C11 1_555 1_555
O2 C11 1_555 1_555
O3 C12 1_555 1_555
O4 C12 1_555 1_555
O5 Zn1 1_555 1_555
O6 C24 1_555 1_555
O7 C24 1_555 1_555
O8 Zn1 1_555 1_555
C1 C2 1_555 1_555
C2 H1 1_555 1_555
C3 C2 1_555 1_555
H2 C3 1_555 1_555
C4 C3 1_555 1_555
C5 C4 1_555 1_555
C6 C5 1_555 1_555
H3 C6 1_555 1_555
C7 C6 1_555 1_555
H4 C7 1_555 1_555
C8 C7 1_555 1_555
H5 C8 1_555 1_555
C9 C8 1_555 1_555
H6 C9 1_555 1_555
C10 C1 1_555 1_555
C11 C1 1_555 1_555
C12 C4 1_555 1_555
C13 C14 1_555 1_555
C14 H7 1_555 1_555
C15 C14 1_555 1_555
H8 C15 1_555 1_555
C16 C15 1_555 1_555
C17 C16 1_555 1_555
C18 C17 1_555 1_555
H9 C18 1_555 1_555
C19 C18 1_555 1_555
H10 C19 1_555 1_555
C20 C19 1_555 1_555
H11 C20 1_555 1_555
C21 C20 1_555 1_555
H12 C21 1_555 1_555
C22 C13 1_555 1_555
C23 O5 1_555 1_555
C24 C16 1_555 1_555
Zn1C O2C 1_555 1_555
Zn1H O2H 1_555 1_555
Zn1K O8 1_555 1_555
Zn1O O4 1_555 1_555
Zn1L O4C 1_555 1_555
Zn1G O4H 1_555 1_555
Zn1D O4K 1_555 1_555
Zn1E O5E 1_555 1_555
Zn1N O5N 1_555 1_555
Zn2C O3C 1_555 1_555
Zn2E O7 1_555 1_555
Zn2D O8 1_555 1_555
Zn2C_2 O3H 1_555 1_555
Zn2_2 O3K 1_555 1_555
Zn2G O8C 1_555 1_555
O1C Zn3 1_555 1_555
O1H Zn3 1_555 1_555
O1K Zn3 1_555 1_555
O2C C11C 1_555 1_555
O2H C11H 1_555 1_555
O2K Zn1K 1_555 1_555
O3C C12C 1_555 1_555
O3H C12H 1_555 1_555
O3K C12K 1_555 1_555
O3K_2 Zn2 1_555 1_555
O3H_2 Zn2C 1_555 1_555
O4C C12C 1_555 1_555
O4H C12H 1_555 1_555
O4K C12K 1_555 1_555
O4O Zn1 1_555 1_555
O4L Zn1C 1_555 1_555
O4G Zn1H 1_555 1_555
O4D Zn1K 1_555 1_555
O5K C23 1_555 1_555
O5E C23E 1_555 1_555
O5N C23E 1_555 1_555
O5C Zn1C 1_555 1_555
O5H Zn1H 1_555 1_555
O6E C24E 1_555 1_555
O7E Zn2 1_555 1_555
O7F Zn2C 1_555 1_555
O8C Zn3 1_555 1_555
O8D Zn2 1_555 1_555
O8G Zn1L 1_555 1_555
C1C C2C 1_555 1_555
C1H C2H 1_555 1_555
C1K C2K 1_555 1_555
C2C H1C 1_555 1_555
C2H H1H 1_555 1_555
C2K H1K 1_555 1_555
C3C C2C 1_555 1_555
C3H C2H 1_555 1_555
C3K C2K 1_555 1_555
H2C C3C 1_555 1_555
H2H C3H 1_555 1_555
H2K C3K 1_555 1_555
C4C C3C 1_555 1_555
C4H C3H 1_555 1_555
C4K C3K 1_555 1_555
C5C C4C 1_555 1_555
C5H C4H 1_555 1_555
C5K C4K 1_555 1_555
C6C C5C 1_555 1_555
C6H C5H 1_555 1_555
C6K C5K 1_555 1_555
H3C C6C 1_555 1_555
H3H C6H 1_555 1_555
H3K C6K 1_555 1_555
C7C C6C 1_555 1_555
C7H C6H 1_555 1_555
C7K C6K 1_555 1_555
H4C C7C 1_555 1_555
H4H C7H 1_555 1_555
H4K C7K 1_555 1_555
C8C C7C 1_555 1_555
C8H C7H 1_555 1_555
C8K C7K 1_555 1_555
H5C C8C 1_555 1_555
H5H C8H 1_555 1_555
H5K C8K 1_555 1_555
C9C C8C 1_555 1_555
C9H C8H 1_555 1_555
C9K C8K 1_555 1_555
H6C C9C 1_555 1_555
H6H C9H 1_555 1_555
H6K C9K 1_555 1_555
C10C C1C 1_555 1_555
C10H C1H 1_555 1_555
C10K C1K 1_555 1_555
C11C O1C 1_555 1_555
C11H O1H 1_555 1_555
C11K O1K 1_555 1_555
C12C C4C 1_555 1_555
C12H C4H 1_555 1_555
C12K C4K 1_555 1_555
C13E C14E 1_555 1_555
C14E H7E 1_555 1_555
C15E C14E 1_555 1_555
H8E C15E 1_555 1_555
C16E C15E 1_555 1_555
C17E C16E 1_555 1_555
C18E C17E 1_555 1_555
H9E C18E 1_555 1_555
C19E C18E 1_555 1_555
H10E C19E 1_555 1_555
C20E C19E 1_555 1_555
H11E C20E 1_555 1_555
C21E C20E 1_555 1_555
H12E C21E 1_555 1_555
C22E C13E 1_555 1_555
C23E C13E 1_555 1_555
C24E O7E 1_555 1_555
Zn3 O8 1_555 1_555
C5 C10 1_555 1_555
C9 C10 1_555 1_555
C13 C23 1_555 1_555
C17 C22 1_555 1_555
C21 C22 1_555 1_555
Zn1C O8C 1_555 1_555
Zn1H O8C 1_555 1_555
Zn1K O5K 1_555 1_555
Zn1O O8D 1_555 1_555
Zn2C O8G 1_555 1_555
O2K C11K 1_555 1_555
C1C C11C 1_555 1_555
C1H C11H 1_555 1_555
C1K C11K 1_555 1_555
C5C C10C 1_555 1_555
C5H C10H 1_555 1_555
C5K C10K 1_555 1_555
C9C C10C 1_555 1_555
C9H C10H 1_555 1_555
C9K C10K 1_555 1_555
C16E C24E 1_555 1_555
C17E C22E 1_555 1_555
C21E C22E 1_555 1_555

#END
