
#######################################################################
#
#                 Cambridge Crystallographic Data Centre
#                                CCDC 
#
#######################################################################
#
# If this CIF has been generated from an entry in the Cambridge 
# Structural Database, then it will include bibliographic, chemical, 
# crystal, experimental, refinement or atomic coordinate data resulting 
# from the CCDC's data processing and validation procedures.
#
#######################################################################

data_OFERUN06
_chemical_formula_moiety         '(C8 H10 N4 Zn1)n'
_symmetry_cell_setting           cubic
_symmetry_space_group_name_H-M   'I -4 3 m'
_symmetry_Int_Tables_number      217
_space_group_name_Hall           'I -4 2 3'
loop_
_symmetry_equiv_pos_site_id
_symmetry_equiv_pos_as_xyz
1 x,y,z
2 y,-x,-z
3 -x,-y,z
4 -y,x,-z
5 -x,z,-y
6 x,-y,-z
7 -x,-z,y
8 -z,-y,x
9 -x,y,-z
10 z,-y,-x
11 z,x,y
12 y,z,x
13 -y,-z,x
14 z,-x,-y
15 -y,z,-x
16 -z,-x,y
17 -z,x,-y
18 y,-z,-x
19 -y,-x,z
20 y,x,z
21 x,-z,-y
22 x,z,y
23 -z,y,-x
24 z,y,x
25 1/2+x,1/2+y,1/2+z
26 1/2+y,1/2-x,1/2-z
27 1/2-x,1/2-y,1/2+z
28 1/2-y,1/2+x,1/2-z
29 1/2-x,1/2+z,1/2-y
30 1/2+x,1/2-y,1/2-z
31 1/2-x,1/2-z,1/2+y
32 1/2-z,1/2-y,1/2+x
33 1/2-x,1/2+y,1/2-z
34 1/2+z,1/2-y,1/2-x
35 1/2+z,1/2+x,1/2+y
36 1/2+y,1/2+z,1/2+x
37 1/2-y,1/2-z,1/2+x
38 1/2+z,1/2-x,1/2-y
39 1/2-y,1/2+z,1/2-x
40 1/2-z,1/2-x,1/2+y
41 1/2-z,1/2+x,1/2-y
42 1/2+y,1/2-z,1/2-x
43 1/2-y,1/2-x,1/2+z
44 1/2+y,1/2+x,1/2+z
45 1/2+x,1/2-z,1/2-y
46 1/2+x,1/2+z,1/2+y
47 1/2-z,1/2+y,1/2-x
48 1/2+z,1/2+y,1/2+x
_cell_length_a                   17.033(2)
_cell_length_b                   17.033(2)
_cell_length_c                   17.033(2)
_cell_angle_alpha                90
_cell_angle_beta                 90
_cell_angle_gamma                90
_cell_volume                     4941.67
loop_
_atom_site_label
_atom_site_type_symbol
_atom_site_fract_x
_atom_site_fract_y
_atom_site_fract_z
_atom_site_U_iso_or_equiv
_atom_site_thermal_displace_type
Zn1 Zn 0.5000 1.0000 0.7500 0.0460 Uani
N1 N 0.40996(14) 1.03182(13) 0.68241(14) 0.0496 Uani
C1 C 0.37704(12) 0.9935(4) 0.62296(12) 0.0455 Uani
C2 C 0.3691(2) 1.10145(18) 0.6866(2) 0.0629 Uani
H1 H 0.3786 1.1418 0.7222 0.0750 Uiso
C3 C 0.4053(2) 0.9143(3) 0.5947(2) 0.0687 Uani
N1V N 0.31759(14) 1.03182(13) 0.59004(14) 0.0496 Uani
C2V C 0.3134(2) 1.10145(18) 0.6309(2) 0.0629 Uani
H1V H 0.2778 1.1418 0.6214 0.0750 Uiso
N1B N 0.59004(14) 0.96818(13) 0.68241(14) 0.0496 Uani
C1B C 0.62296(12) 1.0065(4) 0.62296(12) 0.0455 Uani
C2B C 0.6309(2) 0.89855(18) 0.6866(2) 0.0629 Uani
H1B H 0.6214 0.8582 0.7222 0.0750 Uiso
C3B C 0.5947(2) 1.0857(3) 0.5947(2) 0.0687 Uani
N1I N 0.68241(14) 0.96818(13) 0.59004(14) 0.0496 Uani
C2I C 0.6866(2) 0.89855(18) 0.6309(2) 0.0629 Uani
H1I H 0.7222 0.8582 0.6214 0.0750 Uiso
Zn1G Zn 0.2500 1.0000 0.5000 0.0460 Uani
Zn1I Zn 0.7500 1.0000 0.5000 0.0460 Uani
N1Y N 0.53182(13) 1.09004(14) 0.81759(14) 0.0496 Uani
N1AA N 0.46818(13) 0.90996(14) 0.81759(14) 0.0496 Uani
loop_
_atom_site_aniso_label
_atom_site_aniso_U_11
_atom_site_aniso_U_22
_atom_site_aniso_U_33
_atom_site_aniso_U_23
_atom_site_aniso_U_13
_atom_site_aniso_U_12
Zn1 0.0481(2) 0.0481(2) 0.0419(3) 0.000 0.000 0.000
N1 0.0530(12) 0.0472(10) 0.0486(11) -0.0032(9) -0.0082(9) 0.0045(9)
C1 0.0468(9) 0.043(2) 0.0468(9) -0.0003(14) -0.0005(11) 0.0003(14)
C2 0.0718(19) 0.0510(14) 0.0659(18) -0.0166(14) -0.0147(15) 0.0114(13)
C3 0.0756(18) 0.055(2) 0.0756(18) -0.0173(17) -0.018(2) 0.0173(17)
N1V 0.0486 0.0472 0.053 -0.0045 -0.0082 0.0032
C2V 0.0659 0.051 0.0718 -0.0114 -0.0147 0.0166
N1B 0.053 0.0472 0.0486 0.0032 0.0082 0.0045
C1B 0.0468 0.043 0.0468 0.0003 0.0005 0.0003
C2B 0.0718 0.051 0.0659 0.0166 0.0147 0.0114
C3B 0.0756 0.055 0.0756 0.0173 0.018 0.0173
N1I 0.0486 0.0472 0.053 0.0045 0.0082 0.0032
C2I 0.0659 0.051 0.0718 0.0114 0.0147 0.0166
Zn1G 0.0419 0.0481 0.0481 0 0 0
Zn1I 0.0419 0.0481 0.0481 0 0 0
N1Y 0.0472 0.053 0.0486 -0.0082 0.0032 -0.0045
N1AA 0.0472 0.053 0.0486 0.0082 -0.0032 -0.0045
loop_
_geom_bond_atom_site_label_1
_geom_bond_atom_site_label_2
_geom_bond_site_symmetry_1
_geom_bond_site_symmetry_2
Zn1 N1 1_555 1_555
N1 C1 1_555 1_555
C1 C3 1_555 1_555
C2 N1 1_555 1_555
H1 C2 1_555 1_555
N1V C1 1_555 1_555
C2V C2 1_555 1_555
H1V C2V 1_555 1_555
N1B Zn1 1_555 1_555
C1B N1B 1_555 1_555
C2B N1B 1_555 1_555
H1B C2B 1_555 1_555
C3B C1B 1_555 1_555
N1I C1B 1_555 1_555
C2I C2B 1_555 1_555
H1I C2I 1_555 1_555
Zn1G N1V 1_555 1_555
Zn1I N1I 1_555 1_555
N1Y Zn1 1_555 1_555
N1AA Zn1 1_555 1_555
N1V C2V 1_555 1_555
N1I C2I 1_555 1_555

#END
