
#######################################################################
#
#                 Cambridge Crystallographic Data Centre
#                                CCDC 
#
#######################################################################
#
# If this CIF has been generated from an entry in the Cambridge 
# Structural Database, then it will include bibliographic, chemical, 
# crystal, experimental, refinement or atomic coordinate data resulting 
# from the CCDC's data processing and validation procedures.
#
#######################################################################

data_EWECOY
_chemical_formula_moiety         '(C56 H53 Cd6 N4 O36 1-)n'
_symmetry_cell_setting           monoclinic
_symmetry_space_group_name_H-M   'P 21/c'
_symmetry_Int_Tables_number      14
_space_group_name_Hall           '-P 2ybc'
loop_
_symmetry_equiv_pos_site_id
_symmetry_equiv_pos_as_xyz
1 x,y,z
2 -x,1/2+y,1/2-z
3 -x,-y,-z
4 x,1/2-y,1/2+z
_cell_length_a                   15.750(3)
_cell_length_b                   14.501(3)
_cell_length_c                   19.363(4)
_cell_angle_alpha                90
_cell_angle_beta                 113.67(3)
_cell_angle_gamma                90
_cell_volume                     4050.29
loop_
_atom_site_label
_atom_site_type_symbol
_atom_site_fract_x
_atom_site_fract_y
_atom_site_fract_z
Cd1 Cd 0.20624(2) 0.85687(2) 0.463264(16)
Cd2 Cd 0.65509(2) 1.30050(2) 0.348240(16)
Cd3 Cd -0.23301(2) 1.41976(2) 0.215200(16)
N1 N 0.4326(4) 1.4988(4) 0.2873(3)
O1 O 0.0909(2) 0.9533(3) 0.38517(18)
O2 O -0.1166(2) 1.2265(2) 0.10632(17)
O3 O -0.2101(2) 1.2983(2) 0.14822(16)
O4 O 0.3047(2) 0.9732(2) 0.50186(18)
O5 O 0.6675(2) 1.2466(2) 0.47698(16)
O6 O -0.1316(2) 1.1274(2) 0.46074(17)
O7 O -0.2629(2) 1.1667(3) 0.3644(2)
O8 O 0.7778(2) 1.3828(3) 0.41488(19)
O9 O 0.6501(2) 1.1715(2) 0.72833(16)
O10 O 0.5079(2) 1.1934(3) 0.72032(18)
O11 O 0.5417(2) 1.2263(2) 0.37277(17)
O12 O 0.5776(3) 1.4415(3) 0.3469(2)
O13 O -0.2914(3) 1.5303(3) 0.2720(2)
O14 O 0.8475(2) 1.3714(2) 0.33493(17)
O15 O 0.1039(2) 0.9910(2) 0.27738(18)
O16 O 0.3149(2) 0.9961(2) 0.39092(18)
C1 C 0.0683(3) 0.9965(3) 0.3251(2)
C2 C -0.0127(3) 1.0623(3) 0.3054(2)
C3 C -0.1492(3) 1.2358(3) 0.1546(2)
C4 C -0.1186(3) 1.1749(3) 0.2229(2)
C5 C -0.0435(3) 1.1146(3) 0.2396(2)
C6 C 0.5850(3) 1.2181(3) 0.4432(2)
C7 C 0.5362(3) 1.1764(3) 0.4879(2)
C8 C 0.5709(3) 1.1925(3) 0.5655(2)
C9 C 0.5253(3) 1.1547(3) 0.6074(2)
C10 C 0.3382(3) 1.0114(3) 0.4602(2)
C11 C 0.4152(3) 1.0801(3) 0.4958(2)
C12 C 0.4583(3) 1.1202(3) 0.4534(2)
C13 C -0.1790(3) 1.1432(3) 0.3916(3)
C14 C -0.1317(3) 1.1303(3) 0.3384(2)
C15 C -0.0555(3) 1.0723(3) 0.3557(2)
C16 C -0.1656(3) 1.1804(3) 0.2703(2)
C17 C 0.8443(3) 1.3973(3) 0.3954(2)
C18 C 0.9252(3) 1.4503(3) 0.4496(2)
C19 C 0.9856(3) 1.4944(4) 0.4239(2)
C20 C 0.9392(3) 1.4564(4) 0.5260(3)
C21 C 0.5622(3) 1.1743(3) 0.6903(2)
C22 C 0.4908(4) 1.4323(4) 0.3228(4)
C23 C 0.4631(7) 1.5865(7) 0.2729(8)
C24 C 0.3324(5) 1.4806(6) 0.2566(6)
C25 C 0.4475(3) 1.0994(3) 0.5731(2)
C20B C 1.0608(3) 1.5436(4) 0.4740(3)
C18B C 1.0748(3) 1.5497(3) 0.5504(2)
C17B C 1.1557(3) 1.6027(3) 0.6046(2)
O8B O 1.2222(2) 1.6172(3) 0.58512(19)
O14B O 1.1525(2) 1.6286(2) 0.66507(17)
C19B C 1.0144(3) 1.5056(4) 0.5761(2)
O1A O -0.0909(2) 0.4533(3) 0.11483(18)
O2A O 0.1166(2) 0.7265(2) 0.39368(17)
O3A O 0.2101(2) 0.7983(2) 0.35178(16)
O6A O 0.1316(2) 0.6274(2) 0.03926(17)
O7A O 0.2629(2) 0.6667(3) 0.1356(2)
O15A O -0.1039(2) 0.4910(2) 0.22262(18)
C1A C -0.0683(3) 0.4965(3) 0.1749(2)
C2A C 0.0127(3) 0.5623(3) 0.1946(2)
C3A C 0.1492(3) 0.7358(3) 0.3454(2)
C4A C 0.1186(3) 0.6749(3) 0.2771(2)
C5A C 0.0435(3) 0.6146(3) 0.2604(2)
C13A C 0.1790(3) 0.6432(3) 0.1084(3)
C14A C 0.1317(3) 0.6303(3) 0.1616(2)
C15A C 0.0555(3) 0.5723(3) 0.1443(2)
C16A C 0.1656(3) 0.6804(3) 0.2297(2)
O4B O 0.6953(2) 1.0268(2) 0.49814(18)
O5B O 0.3325(2) 0.7534(2) 0.52302(16)
O9B O 0.3499(2) 0.8285(2) 0.27167(16)
O10B O 0.4921(2) 0.8066(3) 0.27968(18)
O11B O 0.4583(2) 0.7737(2) 0.62723(17)
O16B O 0.6851(2) 1.0039(2) 0.60908(18)
C6B C 0.4150(3) 0.7819(3) 0.5568(2)
C7B C 0.4638(3) 0.8236(3) 0.5121(2)
C8B C 0.4291(3) 0.8075(3) 0.4345(2)
C9B C 0.4747(3) 0.8453(3) 0.3926(2)
C10B C 0.6618(3) 0.9886(3) 0.5398(2)
C11B C 0.5848(3) 0.9199(3) 0.5042(2)
C12B C 0.5417(3) 0.8798(3) 0.5466(2)
C21B C 0.4378(3) 0.8257(3) 0.3097(2)
C25B C 0.5525(3) 0.9006(3) 0.4269(2)
Cd1A Cd -0.20624(2) 0.35687(2) 0.036736(16)
Cd2B Cd 0.34491(2) 0.69950(2) 0.651760(16)
Cd3A Cd 0.23301(2) 0.91976(2) 0.284800(16)
N1B N 0.5674(4) 0.5012(4) 0.7127(3)
O12B O 0.4224(3) 0.5585(3) 0.6531(2)
C22B C 0.5092(4) 0.5677(4) 0.6772(4)
C23B C 0.5369(7) 0.4135(7) 0.7271(8)
C24B C 0.6676(5) 0.5194(6) 0.7434(6)
O13A O 0.2914(3) 1.0303(3) 0.2280(2)
O6B O 0.1316(2) 0.8726(2) 0.53926(17)
O7_2 O 0.7371(2) 1.1667(3) 0.3644(2)
O9C O 0.6501(2) 1.3285(2) 0.22833(16)
O10C O 0.5079(2) 1.3066(3) 0.22032(18)
O9C_2 O -0.3499(2) 1.3285(2) 0.22833(16)
O14_2 O -0.1525(2) 1.3714(2) 0.33493(17)
O15A_2 O -0.1039(2) 1.4910(2) 0.22262(18)
O16A O -0.3149(2) 1.4961(2) 0.10908(18)
Cd1A_2 Cd -0.20624(2) 1.35687(2) 0.036736(16)
Cd1B Cd 0.79376(2) 1.14313(2) 0.536736(16)
Cd1B_2 Cd -0.20624(2) 1.14313(2) 0.536736(16)
Cd2_2 Cd -0.34491(2) 1.30050(2) 0.348240(16)
Cd2C Cd 0.65509(2) 1.19950(2) 0.848240(16)
Cd3C Cd 0.76699(2) 1.08024(2) 0.715200(16)
Cd3_2 Cd 0.76699(2) 1.41976(2) 0.215200(16)
Cd2B_2 Cd 1.34491(2) 1.69950(2) 0.651760(16)
Cd3B Cd 1.23301(2) 1.58024(2) 0.784800(16)
Cd1C Cd 0.20624(2) 0.64313(2) -0.036736(16)
Cd2A Cd 0.34491(2) 0.80050(2) 0.151760(16)
Cd3_3 Cd -0.23301(2) 0.41976(2) 0.215200(16)
O2_2 O -0.1166(2) 0.2265(2) 0.10632(17)
O3_2 O -0.2101(2) 0.2983(2) 0.14822(16)
O4A O -0.3047(2) 0.4732(2) -0.00186(18)
O5C O -0.3325(2) 0.2534(2) -0.02302(16)
O6C O -0.1316(2) 0.3726(2) -0.03926(17)
O7B O 0.2629(2) 0.8333(3) 0.6356(2)
O8B_2 O 0.2222(2) 0.6172(3) 0.58512(19)
O9A O 0.3499(2) 0.6715(2) 0.77167(16)
O10A O 0.4921(2) 0.6934(3) 0.77968(18)
O14A O 0.1525(2) 0.8714(2) 0.16507(17)
N2 N 0.1427(5) 0.2764(5) 0.3248(4)
O17 O 0.1182(10) 0.3441(9) 0.2206(8)
C26 C 0.171(2) 0.271(2) 0.2621(12)
C27 C 0.0772(8) 0.3222(10) 0.3499(7)
C28 C 0.1986(7) 0.2091(7) 0.3741(9)
O18 O 0.3570(4) 0.2034(4) 0.2710(4)
O19 O 0.3198(7) 0.2708(10) 0.1469(7)
N3 N 0.6687(16) 0.527(2) 0.5279(12)
C29 C 0.6996(16) 0.5653(13) 0.4854(12)
O20 O 0.7186(13) 0.6491(19) 0.4529(14)
C30 C 0.7035(19) 0.4588(12) 0.5530(16)
C31 C 0.6071(16) 0.6198(16) 0.5296(15)
loop_
_geom_bond_atom_site_label_1
_geom_bond_atom_site_label_2
_geom_bond_site_symmetry_1
_geom_bond_site_symmetry_2
Cd1 O1 1_555 1_555
Cd2 O5 1_555 1_555
Cd3 O3 1_555 1_555
N1 C22 1_555 1_555
O1 C1 1_555 1_555
O2 C3 1_555 1_555
O3 C3 1_555 1_555
O4 Cd1 1_555 1_555
O5 C6 1_555 1_555
O6 C13 1_555 1_555
O7 C13 1_555 1_555
O8 Cd2 1_555 1_555
O9 C21 1_555 1_555
O10 C21 1_555 1_555
O11 Cd2 1_555 1_555
O12 Cd2 1_555 1_555
O13 Cd3 1_555 1_555
O14 C17 1_555 1_555
O15 C1 1_555 1_555
O16 C10 1_555 1_555
C1 C2 1_555 1_555
C2 C5 1_555 1_555
C3 C4 1_555 1_555
C4 C5 1_555 1_555
C6 O11 1_555 1_555
C7 C6 1_555 1_555
C8 C7 1_555 1_555
C9 C8 1_555 1_555
C10 O4 1_555 1_555
C11 C10 1_555 1_555
C12 C7 1_555 1_555
C13 C14 1_555 1_555
C14 C15 1_555 1_555
C15 C2 1_555 1_555
C16 C4 1_555 1_555
C17 O8 1_555 1_555
C18 C17 1_555 1_555
C19 C18 1_555 1_555
C20 C18 1_555 1_555
C21 C9 1_555 1_555
C22 O12 1_555 1_555
C23 N1 1_555 1_555
C24 N1 1_555 1_555
C25 C9 1_555 1_555
N2 C26 1_555 1_555
O17 C26 1_555 1_555
C27 N2 1_555 1_555
C28 N2 1_555 1_555
N3 C29 1_555 1_555
C29 O20 1_555 1_555
C30 N3 1_555 1_555
C31 N3 1_555 1_555
C20B C19 1_555 1_555
C18B C20B 1_555 1_555
C17B C18B 1_555 1_555
O8B C17B 1_555 1_555
O14B C17B 1_555 1_555
C19B C20 1_555 1_555
O1A C1A 1_555 1_555
O2A Cd1 1_555 1_555
O3A Cd1 1_555 1_555
O6A C13A 1_555 1_555
O7A C13A 1_555 1_555
O15A C1A 1_555 1_555
C1A C2A 1_555 1_555
C2A C5A 1_555 1_555
C3A O2A 1_555 1_555
C4A C3A 1_555 1_555
C5A C4A 1_555 1_555
C13A C14A 1_555 1_555
C14A C15A 1_555 1_555
C15A C2A 1_555 1_555
C16A C4A 1_555 1_555
O4B C10B 1_555 1_555
O5B Cd1 1_555 1_555
O9B C21B 1_555 1_555
O10B C21B 1_555 1_555
O11B C6B 1_555 1_555
O16B C10B 1_555 1_555
C6B O5B 1_555 1_555
C7B C6B 1_555 1_555
C8B C7B 1_555 1_555
C9B C8B 1_555 1_555
C10B C11B 1_555 1_555
C11B C12B 1_555 1_555
C12B C7B 1_555 1_555
C21B C9B 1_555 1_555
C25B C9B 1_555 1_555
Cd1A O1A 1_555 1_555
Cd2B O5B 1_555 1_555
Cd3A O15 1_555 1_555
N1B C22B 1_555 1_555
O12B Cd2B 1_555 1_555
C22B O12B 1_555 1_555
C23B N1B 1_555 1_555
C24B N1B 1_555 1_555
O13A Cd3A 1_555 1_555
O6B Cd1 1_555 1_555
O7_2 Cd2 1_555 1_555
O9C Cd2 1_555 1_555
O10C Cd2 1_555 1_555
O9C_2 Cd3 1_555 1_555
O14_2 Cd3 1_555 1_555
O15A_2 Cd3 1_555 1_555
O16A Cd3 1_555 1_555
Cd1A_2 O2 1_555 1_555
Cd1B O5 1_555 1_555
Cd1B_2 O6 1_555 1_555
Cd2_2 O7 1_555 1_555
Cd2C O9 1_555 1_555
Cd3C O9 1_555 1_555
Cd3_2 O14 1_555 1_555
Cd2B_2 O8B 1_555 1_555
Cd3B O14B 1_555 1_555
Cd1C O6A 1_555 1_555
Cd2A O7A 1_555 1_555
Cd3_3 O15A 1_555 1_555
O2_2 Cd1A 1_555 1_555
O3_2 Cd1A 1_555 1_555
O4A Cd1A 1_555 1_555
O5C Cd1A 1_555 1_555
O6C Cd1A 1_555 1_555
O7B Cd2B 1_555 1_555
O8B_2 Cd2B 1_555 1_555
O9A Cd2B 1_555 1_555
O10A Cd2B 1_555 1_555
O14A Cd3A 1_555 1_555
O3 Cd1A_2 1_555 1_555
O10 Cd2C 1_555 1_555
O16 Cd3A 1_555 1_555
C11 C12 1_555 1_555
C11 C25 1_555 1_555
C14 C16 1_555 1_555
C18B C19B 1_555 1_555
O3A C3A 1_555 1_555
O3A Cd3A 1_555 1_555
C14A C16A 1_555 1_555
O4B Cd1B 1_555 1_555
O9B Cd3A 1_555 1_555
O9B Cd2A 1_555 1_555
O10B Cd2A 1_555 1_555
O11B Cd2B 1_555 1_555
O16B Cd3C 1_555 1_555
C11B C25B 1_555 1_555
O9C Cd3_2 1_555 1_555
O9C_2 Cd2_2 1_555 1_555
Cd3_3 O3_2 1_555 1_555

#END
