
#######################################################################
#
#                 Cambridge Crystallographic Data Centre
#                                CCDC 
#
#######################################################################
#
# If this CIF has been generated from an entry in the Cambridge 
# Structural Database, then it will include bibliographic, chemical, 
# crystal, experimental, refinement or atomic coordinate data resulting 
# from the CCDC's data processing and validation procedures.
#
#######################################################################

data_ORERAG
_chemical_formula_moiety         '(C6 H32 Be6 N4 O32 P8)n'
_symmetry_cell_setting           monoclinic
_symmetry_space_group_name_H-M   'P 21/n'
_symmetry_Int_Tables_number      14
_space_group_name_Hall           '-P 2yn'
loop_
_symmetry_equiv_pos_site_id
_symmetry_equiv_pos_as_xyz
1 x,y,z
2 1/2-x,1/2+y,1/2-z
3 -x,-y,-z
4 1/2+x,1/2-y,1/2+z
_cell_length_a                   7.4219(3)
_cell_length_b                   31.5289(14)
_cell_length_c                   13.6682(6)
_cell_angle_alpha                90
_cell_angle_beta                 91.8070(10)
_cell_angle_gamma                90
_cell_volume                     3196.83
loop_
_atom_site_label
_atom_site_type_symbol
_atom_site_fract_x
_atom_site_fract_y
_atom_site_fract_z
Be1 Be 1.1934(5) 0.50667(12) 0.8898(3)
Be2 Be 0.8140(5) 0.42782(12) 0.7620(3)
Be3 Be 0.1722(5) 0.17301(12) 0.7375(3)
Be4 Be 0.6463(5) 0.26514(12) 0.8801(3)
Be5 Be 0.3237(5) 0.52340(12) 0.6061(3)
Be6 Be 0.4026(5) 0.22093(12) 1.1194(3)
P1 P 1.20499(9) 0.50187(2) 1.10207(5)
P2 P 0.26181(9) 0.08029(2) 0.73159(5)
P3 P -0.20553(9) 0.20955(2) 0.73623(5)
P4 P 1.19555(9) 0.45062(2) 0.72499(5)
P5 P 0.69473(9) 0.48400(2) 0.60613(5)
P6 P 0.71314(9) 0.33701(2) 0.74225(5)
P7 P 0.29640(9) 0.21951(2) 0.90867(5)
P8 P 0.75050(9) 0.26220(2) 1.09228(5)
O1 O 1.2651(3) 0.49819(7) 0.99863(14)
O2 O 1.0219(3) 0.48165(7) 1.11885(15)
O3 O 1.2089(3) 0.54766(7) 1.13554(15)
O4 O 1.3352(3) 0.47326(7) 1.16763(15)
H1 H 1.4567 0.4833 1.1625
O5 O 0.1847(3) 0.12332(6) 0.70564(14)
O6 O 0.2042(3) 0.06760(7) 0.83307(14)
O7 O 0.2023(3) 0.04851(7) 0.65290(15)
O8 O 0.4731(3) 0.08351(7) 0.73177(15)
H2 H 0.5081 0.0652 0.7047
O9 O -0.0411(3) 0.18210(7) 0.73053(15)
O10 O -0.2069(3) 0.23223(7) 0.83476(15)
O11 O -0.2297(3) 0.23993(7) 0.65066(15)
O12 O -0.3653(3) 0.17670(7) 0.72883(16)
H3 H -0.4741 0.1877 0.7231
O13 O 1.0174(3) 0.42702(7) 0.72057(15)
O14 O 1.1934(3) 0.48593(7) 0.64828(15)
O15 O 1.2474(3) 0.46606(7) 0.82595(15)
O16 O 1.3361(3) 0.41573(7) 0.69569(16)
H4 H 1.4445 0.4264 0.6966
O17 O 0.6777(3) 0.44666(7) 0.67640(14)
O18 O 0.5335(3) 0.51247(7) 0.60945(15)
O19 O 0.7346(3) 0.46626(7) 0.50582(14)
O20 O 0.8542(3) 0.51411(7) 0.63947(15)
H5 H 0.9505 0.5065 0.6356
O21 O 0.8804(3) 0.31896(7) 0.69536(15)
O22 O 0.7507(3) 0.38027(6) 0.78367(14)
O23 O 0.6376(3) 0.30914(7) 0.81985(17)
O24 O 0.5626(3) 0.34291(8) 0.65899(17)
H6 H 0.5415 0.3212 0.6225
O25 O 0.3340(3) 0.20504(7) 1.01312(14)
O26 O 0.4456(3) 0.24642(8) 0.86913(16)
O27 O 0.2534(3) 0.18025(7) 0.84772(14)
O28 O 0.1293(3) 0.25033(8) 0.90555(18)
H7 H 0.0304 0.2416 0.8865
O29 O 0.7894(3) 0.29922(7) 1.16127(14)
O30 O 0.6120(3) 0.23200(7) 1.12981(17)
O31 O 0.7083(3) 0.27844(8) 0.99060(15)
O32 O 0.9288(3) 0.23435(7) 1.09069(17)
H8 H 1.0178 0.2479 1.1010
Be1A Be 0.3066(5) 0.00667(12) 0.6102(3)
Be1B Be 0.8066(5) 0.49333(12) 1.1102(3)
Be2B Be 1.1860(5) 0.57218(12) 1.2380(3)
Be3C Be 0.6722(5) 0.32699(12) 1.2375(3)
Be4_2 Be -0.3537(5) 0.26514(12) 0.8801(3)
Be5_2 Be 1.3237(5) 0.52340(12) 0.6061(3)
Be5A Be 0.1763(5) 0.02340(12) 0.8939(3)
Be5B Be 0.6763(5) 0.47660(12) 0.3939(3)
Be6C Be -0.0974(5) 0.27907(12) 0.6194(3)
Be6C_2 Be 0.9026(5) 0.27907(12) 0.6194(3)
O2B O 0.9781(3) 0.51835(7) 0.88115(15)
O3B O 0.7911(3) 0.45234(7) 0.86446(15)
O6A O 0.2958(3) 0.56760(7) 0.66693(14)
O7A O 1.2977(3) 0.54851(7) 0.84710(15)
O10_2 O 0.7931(3) 0.23223(7) 0.83476(15)
O11C O 0.2703(3) 0.26007(7) 1.15066(15)
O14_2 O 0.1934(3) 0.48593(7) 0.64828(15)
O19B O 0.2654(3) 0.53374(7) 0.49418(14)
O21C O 0.3804(3) 0.18104(7) 1.19536(15)
O29C O 0.2894(3) 0.20078(7) 0.66127(14)
C1 C 1.1610(5) 0.35143(14) 0.9008(3)
H9 H 1.0655 0.3343 0.9272
H10 H 1.1141 0.3798 0.8897
C2 C 1.3197(5) 0.35339(13) 0.9753(3)
H11 H 1.3849 0.3267 0.9745
H12 H 1.2739 0.3572 1.0404
C3 C 1.4518(5) 0.39046(15) 0.9526(3)
H13 H 1.4513 0.3953 0.8825
H14 H 1.4108 0.4162 0.9836
N1 N 1.2171(4) 0.33263(11) 0.8038(2)
H15 H 1.1194 0.3274 0.7664
H16 H 1.2772 0.3086 0.8149
H17 H 1.2875 0.3510 0.7735
N2 N 1.6386(5) 0.38069(12) 0.9883(2)
H18 H 1.7146 0.3995 0.9639
H19 H 1.6687 0.3547 0.9691
H20 H 1.6443 0.3820 1.0534
C4 C 1.0484(4) 0.39862(12) 0.4793(3)
H21 H 1.0989 0.4215 0.5190
H22 H 1.0203 0.4099 0.4146
C5 C 1.1876(5) 0.36415(12) 0.4709(3)
H23 H 1.1400 0.3418 0.4287
H24 H 1.2134 0.3520 0.5351
C6 C 1.3608(5) 0.38120(13) 0.4294(3)
H25 H 1.4096 0.4031 0.4725
H26 H 1.4487 0.3585 0.4271
N3 N 0.8819(4) 0.38402(10) 0.5225(2)
H27 H 0.7992 0.4044 0.5177
H28 H 0.9033 0.3777 0.5852
H29 H 0.8419 0.3611 0.4908
N4 N 1.3316(4) 0.39917(9) 0.3292(2)
H30 H 1.4367 0.4008 0.2998
H31 H 1.2837 0.4250 0.3335
H32 H 1.2571 0.3824 0.2945
loop_
_geom_bond_atom_site_label_1
_geom_bond_atom_site_label_2
_geom_bond_site_symmetry_1
_geom_bond_site_symmetry_2
Be1 O1 1_555 1_555
Be2 O13 1_555 1_555
Be3 O5 1_555 1_555
Be4 O23 1_555 1_555
Be5 O18 1_555 1_555
Be6 O25 1_555 1_555
P1 O1 1_555 1_555
P2 O5 1_555 1_555
P3 O9 1_555 1_555
P4 O13 1_555 1_555
P5 O17 1_555 1_555
P6 O21 1_555 1_555
P7 O25 1_555 1_555
P8 O29 1_555 1_555
O2 P1 1_555 1_555
O3 P1 1_555 1_555
O4 P1 1_555 1_555
H1 O4 1_555 1_555
O6 P2 1_555 1_555
O7 P2 1_555 1_555
O8 P2 1_555 1_555
H2 O8 1_555 1_555
O9 Be3 1_555 1_555
O10 P3 1_555 1_555
O11 P3 1_555 1_555
O12 P3 1_555 1_555
H3 O12 1_555 1_555
O14 P4 1_555 1_555
O15 Be1 1_555 1_555
O16 P4 1_555 1_555
H4 O16 1_555 1_555
O17 Be2 1_555 1_555
O18 P5 1_555 1_555
O19 P5 1_555 1_555
O20 P5 1_555 1_555
H5 O20 1_555 1_555
O21 Be6C_2 1_555 1_555
O22 Be2 1_555 1_555
O23 P6 1_555 1_555
O24 P6 1_555 1_555
H6 O24 1_555 1_555
O26 Be4 1_555 1_555
O27 Be3 1_555 1_555
O28 P7 1_555 1_555
H7 O28 1_555 1_555
O29 Be3C 1_555 1_555
O30 Be6 1_555 1_555
O31 Be4 1_555 1_555
O32 P8 1_555 1_555
H8 O32 1_555 1_555
C1 H9 1_555 1_555
H10 C1 1_555 1_555
C2 C1 1_555 1_555
H11 C2 1_555 1_555
H12 C2 1_555 1_555
C3 C2 1_555 1_555
H13 C3 1_555 1_555
H14 C3 1_555 1_555
N1 C1 1_555 1_555
H15 N1 1_555 1_555
H16 N1 1_555 1_555
H17 N1 1_555 1_555
N2 C3 1_555 1_555
H18 N2 1_555 1_555
H19 N2 1_555 1_555
H20 N2 1_555 1_555
C4 H21 1_555 1_555
H22 C4 1_555 1_555
C5 C4 1_555 1_555
H23 C5 1_555 1_555
H24 C5 1_555 1_555
C6 C5 1_555 1_555
H25 C6 1_555 1_555
H26 C6 1_555 1_555
N3 C4 1_555 1_555
H27 N3 1_555 1_555
H28 N3 1_555 1_555
H29 N3 1_555 1_555
N4 C6 1_555 1_555
H30 N4 1_555 1_555
H31 N4 1_555 1_555
H32 N4 1_555 1_555
Be1A O7 1_555 1_555
Be1B O2 1_555 1_555
Be2B O3 1_555 1_555
Be4_2 O10 1_555 1_555
Be5_2 O14 1_555 1_555
Be5A O6 1_555 1_555
Be5B O19 1_555 1_555
Be6C O11 1_555 1_555
O2B Be1 1_555 1_555
O3B Be2 1_555 1_555
O6A Be5 1_555 1_555
O7A Be1 1_555 1_555
O10_2 Be4 1_555 1_555
O11C Be6 1_555 1_555
O14_2 Be5 1_555 1_555
O19B Be5 1_555 1_555
O21C Be6 1_555 1_555
O29C Be3 1_555 1_555
P4 O15 1_555 1_555
P6 O22 1_555 1_555
P7 O26 1_555 1_555
P7 O27 1_555 1_555
P8 O30 1_555 1_555
P8 O31 1_555 1_555

#END
