
#######################################################################
#
#                 Cambridge Crystallographic Data Centre
#                                CCDC 
#
#######################################################################
#
# If this CIF has been generated from an entry in the Cambridge 
# Structural Database, then it will include bibliographic, chemical, 
# crystal, experimental, refinement or atomic coordinate data resulting 
# from the CCDC's data processing and validation procedures.
#
#######################################################################

data_ZEFVEN
_chemical_formula_moiety         '(C40 H26 Co3 N8 O29 Sm2)n'
_symmetry_cell_setting           monoclinic
_symmetry_space_group_name_H-M   'P 21/c'
_symmetry_Int_Tables_number      14
_space_group_name_Hall           '-P 2ybc'
loop_
_symmetry_equiv_pos_site_id
_symmetry_equiv_pos_as_xyz
1 x,y,z
2 -x,1/2+y,1/2-z
3 -x,-y,-z
4 x,1/2-y,1/2+z
_cell_length_a                   10.446(2)
_cell_length_b                   7.5939(15)
_cell_length_c                   30.513(6)
_cell_angle_alpha                90
_cell_angle_beta                 99.00(3)
_cell_angle_gamma                90
_cell_volume                     2390.67
loop_
_atom_site_label
_atom_site_type_symbol
_atom_site_fract_x
_atom_site_fract_y
_atom_site_fract_z
C1 C 0.8947(4) 0.5694(6) 0.07699(14)
C2 C 0.7897(4) 0.4709(7) 0.04494(15)
C3 C 1.4457(4) 0.3535(6) 0.13995(13)
C4 C 1.3272(4) 0.2483(6) 0.12199(13)
C5 C 1.2365(4) 0.3294(6) 0.09040(15)
H1 H 1.2446 0.4492 0.0823
C6 C 1.1328(4) 0.2257(6) 0.07106(14)
C7 C 1.1191(4) 0.0521(6) 0.08418(15)
C8 C 1.2110(4) -0.0309(6) 0.11483(14)
H2 H 1.2020 -0.1507 0.1228
C9 C 1.3162(4) 0.0685(6) 0.13336(13)
C10 C 1.4148(4) -0.0105(6) 0.16814(13)
C11 C 0.9548(5) 0.1282(7) 0.03416(16)
H3 H 0.8752 0.1212 0.0143
C12 C 1.2636(4) 0.0003(5) 0.26723(14)
C13 C 1.1590(4) 0.0624(6) 0.23047(13)
C14 C 1.0675(4) -0.0590(6) 0.21189(14)
H4 H 1.0782 -0.1816 0.2176
C15 C 0.9591(4) 0.0072(6) 0.18447(15)
C16 C 0.9405(4) 0.1881(6) 0.17559(14)
C17 C 1.0360(4) 0.3079(6) 0.19261(14)
H5 H 1.0268 0.4297 0.1858
C18 C 1.1453(4) 0.2445(6) 0.21997(14)
C19 C 1.2504(4) 0.3731(6) 0.23493(14)
C20 C 0.7718(5) 0.0543(7) 0.14184(18)
H6 H 0.6898 0.0313 0.1245
Co1 Co 1.0000 0.5000 0.0000
Co2 Co 0.71389(5) 0.44932(8) 0.130104(19)
N1 N 1.0287(4) 0.2684(5) 0.03879(12)
N2 N 1.0041(4) -0.0037(6) 0.06047(13)
H7 H 0.9689 -0.1082 0.0622
N3 N 0.8210(3) 0.2124(5) 0.14885(12)
N4 N 0.8499(4) -0.0713(6) 0.16188(15)
H8 H 0.8339 -0.1852 0.1608
O1 O 0.9906(3) 0.6300(5) 0.06092(11)
O2 O 0.8035(3) 0.4639(5) 0.00460(10)
O3 O 0.8782(3) 0.5835(5) 0.11622(10)
O4 O 0.6996(3) 0.4068(5) 0.06133(11)
O5 O 1.5454(3) 0.3173(4) 0.12360(10)
O6 O 1.4346(3) 0.4760(4) 0.16630(10)
O7 O 1.4179(3) -0.1757(4) 0.17132(10)
O8 O 1.4911(3) 0.0911(4) 0.19219(10)
O9 O 1.2471(3) 0.0419(5) 0.30511(10)
O10 O 1.3594(3) -0.0876(4) 0.25802(10)
O11 O 1.3644(3) 0.3167(4) 0.24964(10)
O12 O 1.2298(3) 0.5358(4) 0.23064(11)
O13 O 0.6082(3) 0.6957(5) 0.11508(12)
H9 H 0.5816 0.7196 0.0880
H10 H 0.5546 0.7084 0.1331
Sm1 Sm 1.449250(18) 0.63056(3) 0.231950(6)
C1B C 1.1053(4) 0.4306(6) -0.07699(14)
C2B C 1.2103(4) 0.5291(7) -0.04494(15)
C3B C 0.5543(4) 0.6465(6) -0.13995(13)
C4B C 0.6728(4) 0.7517(6) -0.12199(13)
C5B C 0.7635(4) 0.6706(6) -0.09040(15)
H1B H 0.7554 0.5508 -0.0823
C6B C 0.8672(4) 0.7743(6) -0.07106(14)
C7B C 0.8809(4) 0.9479(6) -0.08418(15)
C8B C 0.7890(4) 1.0309(6) -0.11483(14)
H2B H 0.7980 1.1507 -0.1228
C9B C 0.6838(4) 0.9315(6) -0.13336(13)
C10B C 0.5852(4) 1.0105(6) -0.16814(13)
C11B C 1.0452(5) 0.8718(7) -0.03416(16)
H3B H 1.1248 0.8788 -0.0143
C12A C 0.7364(4) 0.5003(5) 0.23277(14)
C13A C 0.8410(4) 0.5624(6) 0.26953(13)
C14A C 0.9325(4) 0.4410(6) 0.28811(14)
H4A H 0.9218 0.3184 0.2824
C15A C 1.0409(4) 0.5072(6) 0.31553(15)
C16A C 1.0595(4) 0.6881(6) 0.32441(14)
C17A C 0.9640(4) 0.8079(6) 0.30739(14)
H5A H 0.9732 0.9297 0.3142
C18A C 0.8547(4) 0.7445(6) 0.28003(14)
C19A C 0.7496(4) 0.8731(6) 0.26507(14)
C20A C 1.2282(5) 0.5543(7) 0.35816(18)
H6A H 1.3102 0.5313 0.3755
Co2B Co 1.28611(5) 0.55068(8) -0.130104(19)
Co2_2 Co 1.71389(5) 0.44932(8) 0.130104(19)
Co2A Co 1.28611(5) -0.05068(8) 0.369896(19)
Co2B_2 Co 0.28611(5) 0.55068(8) -0.130104(19)
Co2A_2 Co 1.28611(5) 0.94932(8) 0.369896(19)
N1B N 0.9713(4) 0.7316(5) -0.03879(12)
N2B N 0.9959(4) 1.0037(6) -0.06047(13)
H7B H 1.0311 1.1082 -0.0622
N3A N 1.1790(3) 0.7124(5) 0.35115(12)
N3B N 1.1790(3) 0.7876(5) -0.14885(12)
N4A N 1.1501(4) 0.4287(6) 0.33812(15)
H8A H 1.1661 0.3148 0.3392
O1B O 1.0094(3) 0.3700(5) -0.06092(11)
O2B O 1.1965(3) 0.5361(5) -0.00460(10)
O3B O 1.1218(3) 0.4165(5) -0.11622(10)
O4B O 1.3004(3) 0.5932(5) -0.06133(11)
O5B O 0.4546(3) 0.6827(4) -0.12360(10)
O5_2 O 0.5454(3) 0.3173(4) 0.12360(10)
O5B_2 O 1.4546(3) 0.6827(4) -0.12360(10)
O6B O 0.5654(3) 0.5240(4) -0.16630(10)
O7B O 0.5821(3) 1.1757(4) -0.17132(10)
O7_2 O 1.4179(3) 0.8243(4) 0.17132(10)
O7B_2 O 0.5821(3) 0.1757(4) -0.17132(10)
O8B O 0.5089(3) 0.9089(4) -0.19219(10)
O8A O 1.5089(3) 0.5911(4) 0.30781(10)
O8C O 0.4911(3) 0.4089(4) -0.30781(10)
O9A O 0.7529(3) 0.5419(5) 0.19489(10)
O9C O 1.2471(3) 0.4581(5) -0.19489(10)
O10A O 0.6406(3) 0.4124(4) 0.24198(10)
O10A_2 O 1.6406(3) 0.4124(4) 0.24198(10)
O10_2 O 1.3594(3) 0.9124(4) 0.25802(10)
O10C O 0.3594(3) 0.5876(4) -0.24198(10)
O10B O 0.6406(3) 0.0876(4) -0.25802(10)
O11A O 0.6356(3) 0.8167(4) 0.25036(10)
O11A_2 O 1.6356(3) 0.8167(4) 0.25036(10)
O11C O 0.3644(3) 0.1833(4) -0.25036(10)
O11B O 0.6356(3) 0.6833(4) -0.24964(10)
O12A O 0.7702(3) 1.0358(4) 0.26936(11)
O12B O 0.7702(3) 0.4642(4) -0.23064(11)
O13B O 1.3918(3) 0.3043(5) -0.11508(12)
H9B H 1.4184 0.2804 -0.0880
H10B H 1.4454 0.2916 -0.1331
Sm1B Sm 0.550750(18) 0.36944(3) -0.231950(6)
Sm1_2 Sm 1.449250(18) -0.36944(3) 0.231950(6)
Sm1A Sm 1.550750(18) 0.13056(3) 0.268050(6)
Sm1B_2 Sm 0.550750(18) 1.36944(3) -0.231950(6)
Sm1C Sm 0.449250(18) 0.86944(3) -0.268050(6)
Sm1_3 Sm 0.449250(18) 0.63056(3) 0.231950(6)
Sm1A_2 Sm 0.550750(18) 0.13056(3) 0.268050(6)
Sm1A_3 Sm 0.550750(18) 1.13056(3) 0.268050(6)
O14 O 0.7213(8) 0.8701(10) 0.0305(3)
H11 H 0.7734 0.8806 0.0122
H12 H 0.7170 0.7693 0.0427
O15 O 0.4954(7) 0.6113(10) 0.4558(2)
H13 H 0.5543 0.6124 0.4785
H14 H 0.4203 0.5782 0.4597
O16 O 0.4269(8) 0.7246(15) 0.0361(3)
H15 H 0.3454 0.7087 0.0305
H16 H 0.4700 0.7024 0.0152
loop_
_geom_bond_atom_site_label_1
_geom_bond_atom_site_label_2
_geom_bond_site_symmetry_1
_geom_bond_site_symmetry_2
C1 C2 1_555 1_555
C2 O2 1_555 1_555
C3 C4 1_555 1_555
C4 C5 1_555 1_555
C5 H1 1_555 1_555
C6 C5 1_555 1_555
C7 C6 1_555 1_555
C8 C7 1_555 1_555
H2 C8 1_555 1_555
C9 C4 1_555 1_555
C10 C9 1_555 1_555
C11 H3 1_555 1_555
C12 C13 1_555 1_555
C13 C14 1_555 1_555
C14 H4 1_555 1_555
C15 C14 1_555 1_555
C16 C15 1_555 1_555
C17 C16 1_555 1_555
H5 C17 1_555 1_555
C18 C13 1_555 1_555
C19 C18 1_555 1_555
C20 H6 1_555 1_555
Co1 N1 1_555 1_555
Co2 N3 1_555 1_555
N1 C6 1_555 1_555
N2 C7 1_555 1_555
H7 N2 1_555 1_555
N3 C16 1_555 1_555
N4 C15 1_555 1_555
H8 N4 1_555 1_555
O1 C1 1_555 1_555
O2 Co1 1_555 1_555
O3 C1 1_555 1_555
O4 C2 1_555 1_555
O5 C3 1_555 1_555
O6 C3 1_555 1_555
O7 C10 1_555 1_555
O8 C10 1_555 1_555
O9 C12 1_555 1_555
O10 C12 1_555 1_555
O11 C19 1_555 1_555
O12 C19 1_555 1_555
O13 Co2 1_555 1_555
H9 O13 1_555 1_555
H10 O13 1_555 1_555
O14 H11 1_555 1_555
H12 O14 1_555 1_555
O15 H13 1_555 1_555
H14 O15 1_555 1_555
O16 H15 1_555 1_555
H16 O16 1_555 1_555
Sm1 O6 1_555 1_555
C1B C2B 1_555 1_555
C2B O2B 1_555 1_555
C3B C4B 1_555 1_555
C4B C5B 1_555 1_555
C5B H1B 1_555 1_555
C6B C5B 1_555 1_555
C7B C6B 1_555 1_555
C8B C7B 1_555 1_555
H2B C8B 1_555 1_555
C9B C4B 1_555 1_555
C10B C9B 1_555 1_555
C11B H3B 1_555 1_555
C12A C13A 1_555 1_555
C13A C14A 1_555 1_555
C14A H4A 1_555 1_555
C15A C14A 1_555 1_555
C16A C15A 1_555 1_555
C17A C16A 1_555 1_555
H5A C17A 1_555 1_555
C18A C13A 1_555 1_555
C19A C18A 1_555 1_555
C20A H6A 1_555 1_555
Co2B N3B 1_555 1_555
Co2_2 O5 1_555 1_555
Co2A O9 1_555 1_555
Co2B_2 O5B 1_555 1_555
Co2A_2 N3A 1_555 1_555
N1B Co1 1_555 1_555
N2B C7B 1_555 1_555
H7B N2B 1_555 1_555
N3A C16A 1_555 1_555
N4A C15A 1_555 1_555
H8A N4A 1_555 1_555
O1B Co1 1_555 1_555
O2B Co1 1_555 1_555
O3B C1B 1_555 1_555
O4B C2B 1_555 1_555
O5B C3B 1_555 1_555
O5_2 Co2 1_555 1_555
O5B_2 Co2B 1_555 1_555
O6B C3B 1_555 1_555
O7B C10B 1_555 1_555
O7_2 Sm1 1_555 1_555
O7B_2 Sm1B 1_555 1_555
O8B C10B 1_555 1_555
O8A Sm1 1_555 1_555
O8C Sm1B 1_555 1_555
O9A Co2 1_555 1_555
O9C Co2B 1_555 1_555
O10A C12A 1_555 1_555
O10A_2 Sm1 1_555 1_555
O10_2 Sm1 1_555 1_555
O10C Sm1B 1_555 1_555
O10B Sm1B 1_555 1_555
O11A C19A 1_555 1_555
O11A_2 Sm1 1_555 1_555
O11C Sm1B 1_555 1_555
O11B Sm1B 1_555 1_555
O12A C19A 1_555 1_555
O12B Sm1B 1_555 1_555
O13B Co2B 1_555 1_555
H9B O13B 1_555 1_555
H10B O13B 1_555 1_555
Sm1B O6B 1_555 1_555
Sm1_2 O7 1_555 1_555
Sm1A O8 1_555 1_555
Sm1B_2 O7B 1_555 1_555
Sm1C O8B 1_555 1_555
Sm1_3 O10A 1_555 1_555
Sm1A_2 O10A 1_555 1_555
Sm1A_3 O11A 1_555 1_555
C8 C9 1_555 1_555
C11 N1 1_555 1_555
C11 N2 1_555 1_555
C17 C18 1_555 1_555
C20 N3 1_555 1_555
C20 N4 1_555 1_555
Co1 O1 1_555 1_555
Co2 O3 1_555 1_555
Co2 O4 1_555 1_555
O10 Sm1_2 1_555 1_555
O10 Sm1A 1_555 1_555
O11 Sm1 1_555 1_555
O11 Sm1A 1_555 1_555
O12 Sm1 1_555 1_555
C1B O1B 1_555 1_555
C6B N1B 1_555 1_555
C8B C9B 1_555 1_555
C11B N1B 1_555 1_555
C11B N2B 1_555 1_555
C12A O9A 1_555 1_555
C17A C18A 1_555 1_555
C20A N3A 1_555 1_555
C20A N4A 1_555 1_555
Co2B O3B 1_555 1_555
Co2B O4B 1_555 1_555
O10A_2 Sm1A 1_555 1_555
O10C Sm1C 1_555 1_555
O11A Sm1_3 1_555 1_555
O11B Sm1C 1_555 1_555
O12A Sm1A_3 1_555 1_555

#END
