
#######################################################################
#
#                 Cambridge Crystallographic Data Centre
#                                CCDC 
#
#######################################################################
#
# If this CIF has been generated from an entry in the Cambridge 
# Structural Database, then it will include bibliographic, chemical, 
# crystal, experimental, refinement or atomic coordinate data resulting 
# from the CCDC's data processing and validation procedures.
#
#######################################################################

data_IHILUI
_chemical_formula_moiety         '(C12 H16 Gd2 O14)n'
_symmetry_cell_setting           triclinic
_symmetry_space_group_name_H-M   'P -1'
_symmetry_Int_Tables_number      2
_space_group_name_Hall           '-P 1'
loop_
_symmetry_equiv_pos_site_id
_symmetry_equiv_pos_as_xyz
1 x,y,z
2 -x,-y,-z
_cell_length_a                   7.7050(3)
_cell_length_b                   11.9893(7)
_cell_length_c                   12.1828(6)
_cell_angle_alpha                112.143(2)
_cell_angle_beta                 89.979(3)
_cell_angle_gamma                99.580(3)
_cell_volume                     1025.48
loop_
_atom_site_label
_atom_site_type_symbol
_atom_site_fract_x
_atom_site_fract_y
_atom_site_fract_z
Gd1 Gd 0.9924(2) 0.14628(16) 0.85478(15)
Gd2 Gd 0.4923(2) 0.14571(16) 0.75328(15)
C1 C 0.641(4) 0.137(4) 1.018(3)
C2 C 0.772(5) 0.183(3) 1.223(3)
H1 H 0.7428 0.2136 1.3056
H2 H 0.8599 0.2463 1.2135
C3 C 0.852(4) 0.074(3) 1.201(3)
C4 C 0.641(5) -0.074(4) 0.646(3)
C5 C 0.719(5) -0.188(3) 0.591(3)
H3 H 0.6331 -0.2516 0.5338
H4 H 0.7485 -0.2164 0.6520
C6 C 0.758(6) 0.529(4) 1.138(3)
H5 H 0.8857 0.5497 1.1503
H6 H 0.7157 0.4814 1.1848
C7 C 0.684(5) 0.642(4) 1.179(3)
C8 C 0.856(4) -0.141(3) 0.419(3)
C9 C 0.898(6) -0.162(4) 0.524(3)
H7 H 0.9777 -0.0916 0.5784
H8 H 0.9567 -0.2324 0.5023
C10 C 0.706(5) 0.451(4) 1.004(4)
H9 H 0.5829 0.4120 0.9955
H10 H 0.7175 0.5045 0.9607
C11 C 0.816(5) 0.356(3) 0.953(4)
O1 O 0.776(3) 0.2735(19) 0.8462(17)
O2 O 0.956(3) 0.352(3) 1.004(2)
O3 O 0.759(3) -0.023(2) 1.209(2)
O4 O 1.012(4) 0.066(2) 1.171(2)
O5 O 0.540(4) 0.646(3) 1.241(3)
O6 O 0.722(3) 0.725(2) 1.1443(19)
O7 O 0.509(3) 0.149(2) 0.973(2)
O8 O 0.775(3) 0.099(2) 0.976(2)
O9 O 0.988(3) -0.155(2) 0.351(2)
O10 O 0.724(3) -0.110(2) 0.399(2)
O11 O 0.733(3) 0.019(2) 0.725(2)
O12 O 0.489(4) -0.070(2) 0.621(2)
O13 O 0.671(3) 0.168(2) 0.5984(18)
H11 H 0.7678 0.1300 0.5892
H12 H 0.7148 0.2489 0.6121
O14 O 1.163(3) 0.166(3) 1.026(2)
H13 H 1.1769 0.2445 1.0854
H14 H 1.2793 0.1518 1.0120
C12 C 0.606(5) 0.167(3) 1.145(3)
H15 H 0.5180 0.1017 1.1518
H16 H 0.5572 0.2416 1.1750
Gd1A Gd 1.0076(2) -0.14628(16) 0.14522(15)
Gd1A_2 Gd 1.0076(2) -0.14628(16) 1.14522(15)
Gd1A_3 Gd 1.0076(2) 0.85372(16) 1.14522(15)
Gd2A Gd 0.5077(2) -0.14571(16) 0.24672(15)
Gd2A_2 Gd 0.5077(2) -0.14571(16) 1.24672(15)
Gd2A_3 Gd 0.5077(2) 0.85429(16) 1.24672(15)
O3A O 0.241(3) 0.023(2) 0.791(2)
O3A_2 O 1.241(3) 0.023(2) 0.791(2)
O4A O 0.988(4) -0.066(2) 0.829(2)
O5A O 0.460(4) 0.354(3) 0.759(3)
O6A O 0.278(3) 0.275(2) 0.8557(19)
O6A_2 O 1.278(3) 0.275(2) 0.8557(19)
O9A O 1.012(3) 0.155(2) 0.649(2)
O10A O 0.276(3) 0.110(2) 0.601(2)
loop_
_geom_bond_atom_site_label_1
_geom_bond_atom_site_label_2
_geom_bond_site_symmetry_1
_geom_bond_site_symmetry_2
Gd1 O1 1_555 1_555
Gd2 O1 1_555 1_555
C1 O7 1_555 1_555
C2 H1 1_555 1_555
H2 C2 1_555 1_555
C3 C2 1_555 1_555
C4 C5 1_555 1_555
C5 H3 1_555 1_555
H4 C5 1_555 1_555
C6 H5 1_555 1_555
H6 C6 1_555 1_555
C7 C6 1_555 1_555
C8 C9 1_555 1_555
C9 C5 1_555 1_555
H7 C9 1_555 1_555
H8 C9 1_555 1_555
C10 C6 1_555 1_555
H9 C10 1_555 1_555
H10 C10 1_555 1_555
C11 C10 1_555 1_555
O1 C11 1_555 1_555
O2 Gd1 1_555 1_555
O3 C3 1_555 1_555
O4 C3 1_555 1_555
O5 C7 1_555 1_555
O6 C7 1_555 1_555
O7 Gd2 1_555 1_555
O8 Gd1 1_555 1_555
O9 C8 1_555 1_555
O10 C8 1_555 1_555
O11 Gd1 1_555 1_555
O12 Gd2 1_555 1_555
O13 Gd2 1_555 1_555
H11 O13 1_555 1_555
H12 O13 1_555 1_555
O14 Gd1 1_555 1_555
H13 O14 1_555 1_555
H14 O14 1_555 1_555
C12 C1 1_555 1_555
H15 C12 1_555 1_555
H16 C12 1_555 1_555
Gd1A O9 1_555 1_555
Gd1A_2 O3 1_555 1_555
Gd1A_3 O6 1_555 1_555
Gd2A O10 1_555 1_555
Gd2A_2 O3 1_555 1_555
Gd2A_3 O5 1_555 1_555
O3A Gd2 1_555 1_555
O3A_2 Gd1 1_555 1_555
O4A Gd1 1_555 1_555
O5A Gd2 1_555 1_555
O6A Gd2 1_555 1_555
O6A_2 Gd1 1_555 1_555
O9A Gd1 1_555 1_555
O10A Gd2 1_555 1_555
Gd2 O11 1_555 1_555
C1 O8 1_555 1_555
C2 C12 1_555 1_555
C4 O11 1_555 1_555
C4 O12 1_555 1_555
C11 O2 1_555 1_555
O4 Gd1A_2 1_555 1_555
O6 Gd2A_3 1_555 1_555

#END
