
#######################################################################
#
#                 Cambridge Crystallographic Data Centre
#                                CCDC 
#
#######################################################################
#
# If this CIF has been generated from an entry in the Cambridge 
# Structural Database, then it will include bibliographic, chemical, 
# crystal, experimental, refinement or atomic coordinate data resulting 
# from the CCDC's data processing and validation procedures.
#
#######################################################################

data_IZIHOQ
_chemical_formula_moiety         '(C45 H31 Dy3 O23)n'
_symmetry_cell_setting           tetragonal
_symmetry_space_group_name_H-M   'I -4 2 d'
_symmetry_Int_Tables_number      122
_space_group_name_Hall           'I -4 2bw'
loop_
_symmetry_equiv_pos_site_id
_symmetry_equiv_pos_as_xyz
1 x,y,z
2 -x,-y,z
3 y,-x,-z
4 -y,x,-z
5 1/2-x,y,3/4-z
6 1/2+x,-y,3/4-z
7 1/2-y,-x,3/4+z
8 1/2+y,x,3/4+z
9 1/2+x,1/2+y,1/2+z
10 1/2-x,1/2-y,1/2+z
11 1/2+y,1/2-x,1/2-z
12 1/2-y,1/2+x,1/2-z
13 -x,1/2+y,1/4-z
14 x,1/2-y,1/4-z
15 -y,1/2-x,1/4+z
16 y,1/2+x,1/4+z
_cell_length_a                   14.1545(3)
_cell_length_b                   14.1545(3)
_cell_length_c                   62.938(2)
_cell_angle_alpha                90
_cell_angle_beta                 90
_cell_angle_gamma                90
_cell_volume                     12609.6
loop_
_atom_site_label
_atom_site_type_symbol
_atom_site_fract_x
_atom_site_fract_y
_atom_site_fract_z
Dy1 Dy 1.0000 0.5000 0.45908(2)
Dy2 Dy 0.72283(2) 0.48884(2) 0.43889(2)
O1 O 0.7586(3) 0.5960(3) 0.46489(7)
O2 O 0.9108(3) 0.6274(3) 0.47057(7)
O3 O 0.6138(4) 0.7176(4) 0.53226(8)
O4 O 0.5918(4) 0.8702(4) 0.53473(8)
O5 O 0.8242(5) 0.6376(4) 0.32775(8)
O6 O 0.8214(3) 0.5102(4) 0.34732(6)
O7 O 0.8689(3) 0.5447(3) 0.42870(6)
O8 O 1.0081(4) 0.6104(3) 0.42981(5)
O9 O 0.5698(2) 0.5255(6) 0.45600(14)
O10 O 0.5988(6) 0.3770(7) 0.43113(15)
H1 H 0.6083 0.3120 0.4365
H2 H 0.5845 0.3646 0.4158
O11 O 0.8025(4) 0.3594(4) 0.42153(8)
H3 H 0.7678 0.3099 0.4220
H4 H 0.8547 0.3482 0.4279
O12 O 1.0000 0.5000 0.49750(8)
H5 H 0.9810 0.5435 0.5056
C1 C 0.8242(5) 0.6472(5) 0.47128(11)
C2 C 0.7959(4) 0.7390(5) 0.48166(9)
C3 C 0.7297(5) 0.7341(5) 0.49748(12)
H6 H 0.7035 0.6758 0.5009
C4 C 0.7006(5) 0.8134(5) 0.50862(11)
C5 C 0.7390(5) 0.9006(5) 0.50324(11)
H7 H 0.7210 0.9545 0.5107
C6 C 0.8028(5) 0.9074(5) 0.48716(11)
H8 H 0.8265 0.9664 0.4835
C7 C 0.8343(5) 0.8255(5) 0.47579(10)
C8 C 0.6300(6) 0.8001(6) 0.52625(12)
C9 C 0.9018(5) 0.8358(5) 0.45761(11)
C10 C 0.9861(6) 0.8826(5) 0.45990(10)
H9 H 1.0019 0.9092 0.4729
C11 C 1.0475(6) 0.8904(6) 0.44292(12)
H10 H 1.1044 0.9224 0.4447
C12 C 1.0255(6) 0.8514(5) 0.42336(11)
H11 H 1.0675 0.8565 0.4121
C13 C 0.9407(5) 0.8048(5) 0.42086(10)
C14 C 0.8779(5) 0.7981(4) 0.43776(10)
H12 H 0.8198 0.7685 0.4359
C15 C 0.9171(5) 0.7538(5) 0.40070(9)
C16 C 0.9036(6) 0.7978(6) 0.38148(11)
H13 H 0.9127 0.8628 0.3805
C17 C 0.8775(5) 0.7495(6) 0.36382(10)
H14 H 0.8661 0.7817 0.3512
C18 C 0.8677(5) 0.6527(5) 0.36460(10)
C19 C 0.8799(5) 0.6065(5) 0.38337(9)
H15 H 0.8701 0.5416 0.3841
C20 C 0.9067(4) 0.6557(5) 0.40136(9)
C21 C 0.8363(5) 0.5974(6) 0.34544(11)
C22 C 0.9298(5) 0.6017(4) 0.42147(9)
C23 C 0.5000 0.5000 0.4439(3)
H16 H 0.5000 0.5000 0.4292
O9A O 0.4302(2) 0.4745(6) 0.45600(14)
H5A H 1.0190 0.4565 0.5056
Dy2A Dy 0.27717(2) 0.51116(2) 0.43889(2)
O1A O 0.2414(3) 0.4040(3) 0.46489(7)
O2A O 0.0892(3) 0.3726(3) 0.47057(7)
O3A O 0.3862(4) 0.2824(4) 0.53226(8)
O4A O 0.4082(4) 0.1298(4) 0.53473(8)
O5A O 0.1758(5) 0.3624(4) 0.32775(8)
O6A O 0.1786(3) 0.4898(4) 0.34732(6)
O7A O 0.1311(3) 0.4553(3) 0.42870(6)
O8A O -0.0081(4) 0.3896(3) 0.42981(5)
O10A O 0.4012(6) 0.6230(7) 0.43113(15)
H1A H 0.3917 0.6880 0.4365
H2A H 0.4155 0.6354 0.4158
O11A O 0.1975(4) 0.6406(4) 0.42153(8)
H3A H 0.2322 0.6901 0.4220
H4A H 0.1453 0.6518 0.4279
C1A C 0.1758(5) 0.3528(5) 0.47128(11)
C2A C 0.2041(4) 0.2610(5) 0.48166(9)
C3A C 0.2703(5) 0.2659(5) 0.49748(12)
H6A H 0.2965 0.3242 0.5009
C4A C 0.2994(5) 0.1866(5) 0.50862(11)
C5A C 0.2610(5) 0.0994(5) 0.50324(11)
H7A H 0.2790 0.0455 0.5107
C6A C 0.1972(5) 0.0926(5) 0.48716(11)
H8A H 0.1735 0.0336 0.4835
C7A C 0.1657(5) 0.1745(5) 0.47579(10)
C8A C 0.3700(6) 0.1999(6) 0.52625(12)
C9A C 0.0982(5) 0.1642(5) 0.45761(11)
C10A C 0.0139(6) 0.1174(5) 0.45990(10)
H9A H -0.0019 0.0908 0.4729
C11A C -0.0475(6) 0.1096(6) 0.44292(12)
H10A H -0.1044 0.0776 0.4447
C12A C -0.0255(6) 0.1486(5) 0.42336(11)
H11A H -0.0675 0.1435 0.4121
C13A C 0.0593(5) 0.1952(5) 0.42086(10)
C14A C 0.1221(5) 0.2019(4) 0.43776(10)
H12A H 0.1802 0.2315 0.4359
C15A C 0.0829(5) 0.2462(5) 0.40070(9)
C16A C 0.0964(6) 0.2022(6) 0.38148(11)
H13A H 0.0873 0.1372 0.3805
C17A C 0.1225(5) 0.2505(6) 0.36382(10)
H14A H 0.1339 0.2183 0.3512
C18A C 0.1323(5) 0.3473(5) 0.36460(10)
C19A C 0.1201(5) 0.3935(5) 0.38337(9)
H15A H 0.1299 0.4584 0.3841
C20A C 0.0933(4) 0.3443(5) 0.40136(9)
C21A C 0.1637(5) 0.4026(6) 0.34544(11)
C22A C 0.0702(5) 0.3983(4) 0.42147(9)
Dy1_2 Dy 0.0000 0.5000 0.45908(2)
Dy1B Dy 0.5000 0.0000 0.54092(2)
Dy1B_2 Dy 0.5000 1.0000 0.54092(2)
Dy2B Dy 0.48884(2) 0.27717(2) 0.56111(2)
Dy2C Dy 0.51116(2) 0.72283(2) 0.56111(2)
Dy2D Dy 0.77717(2) 0.48884(2) 0.31111(2)
Dy2E Dy 0.22283(2) 0.51116(2) 0.31111(2)
O2A_2 O 1.0892(3) 0.3726(3) 0.47057(7)
O3B O 0.7176(4) 0.3862(4) 0.46774(8)
O3C O 0.2824(4) 0.6138(4) 0.46774(8)
O4B O 0.8702(4) 0.4082(4) 0.46527(8)
O4C O 1.1298(4) 0.5918(4) 0.46527(8)
O5D O 0.6758(5) 0.6376(4) 0.42225(8)
O5E O 0.3242(5) 0.3624(4) 0.42225(8)
O6D O 0.6786(3) 0.5102(4) 0.40268(6)
O6E O 0.3214(3) 0.4898(4) 0.40268(6)
O7A_2 O 1.1311(3) 0.4553(3) 0.42870(6)
O8A_2 O 0.9919(4) 0.3896(3) 0.42981(5)
loop_
_geom_bond_atom_site_label_1
_geom_bond_atom_site_label_2
_geom_bond_site_symmetry_1
_geom_bond_site_symmetry_2
Dy1 O2 1_555 1_555
Dy2 O1 1_555 1_555
O1 C1 1_555 1_555
O2 C1 1_555 1_555
O3 C8 1_555 1_555
O4 C8 1_555 1_555
O5 C21 1_555 1_555
O6 C21 1_555 1_555
O7 Dy1 1_555 1_555
O8 Dy1 1_555 1_555
O9 Dy2 1_555 1_555
O10 Dy2 1_555 1_555
H1 O10 1_555 1_555
H2 O10 1_555 1_555
O11 Dy2 1_555 1_555
H3 O11 1_555 1_555
H4 O11 1_555 1_555
O12 Dy1 1_555 1_555
H5 O12 1_555 1_555
C1 C2 1_555 1_555
C2 C3 1_555 1_555
C3 H6 1_555 1_555
C4 C3 1_555 1_555
C5 C4 1_555 1_555
H7 C5 1_555 1_555
C6 C5 1_555 1_555
H8 C6 1_555 1_555
C7 C2 1_555 1_555
C8 C4 1_555 1_555
C9 C7 1_555 1_555
C10 C9 1_555 1_555
H9 C10 1_555 1_555
C11 C10 1_555 1_555
H10 C11 1_555 1_555
C12 C11 1_555 1_555
H11 C12 1_555 1_555
C13 C12 1_555 1_555
C14 C9 1_555 1_555
H12 C14 1_555 1_555
C15 C13 1_555 1_555
C16 C15 1_555 1_555
H13 C16 1_555 1_555
C17 C16 1_555 1_555
H14 C17 1_555 1_555
C18 C17 1_555 1_555
C19 C18 1_555 1_555
H15 C19 1_555 1_555
C20 C15 1_555 1_555
C21 C18 1_555 1_555
C22 O7 1_555 1_555
C23 O9 1_555 1_555
H16 C23 1_555 1_555
O9A C23 1_555 1_555
H5A O12 1_555 1_555
Dy2A O9A 1_555 1_555
O1A Dy2A 1_555 1_555
O2A C1A 1_555 1_555
O3A C8A 1_555 1_555
O4A C8A 1_555 1_555
O5A C21A 1_555 1_555
O6A C21A 1_555 1_555
O7A Dy2A 1_555 1_555
O8A C22A 1_555 1_555
O10A Dy2A 1_555 1_555
H1A O10A 1_555 1_555
H2A O10A 1_555 1_555
O11A Dy2A 1_555 1_555
H3A O11A 1_555 1_555
H4A O11A 1_555 1_555
C1A O1A 1_555 1_555
C2A C1A 1_555 1_555
C3A C2A 1_555 1_555
H6A C3A 1_555 1_555
C4A C3A 1_555 1_555
C5A C4A 1_555 1_555
H7A C5A 1_555 1_555
C6A C5A 1_555 1_555
H8A C6A 1_555 1_555
C7A C2A 1_555 1_555
C8A C4A 1_555 1_555
C9A C7A 1_555 1_555
C10A C9A 1_555 1_555
H9A C10A 1_555 1_555
C11A C10A 1_555 1_555
H10A C11A 1_555 1_555
C12A C11A 1_555 1_555
H11A C12A 1_555 1_555
C13A C12A 1_555 1_555
C14A C9A 1_555 1_555
H12A C14A 1_555 1_555
C15A C13A 1_555 1_555
C16A C15A 1_555 1_555
H13A C16A 1_555 1_555
C17A C16A 1_555 1_555
H14A C17A 1_555 1_555
C18A C17A 1_555 1_555
C19A C18A 1_555 1_555
H15A C19A 1_555 1_555
C20A C15A 1_555 1_555
C21A C18A 1_555 1_555
C22A O7A 1_555 1_555
Dy1_2 O2A 1_555 1_555
Dy1B O4A 1_555 1_555
Dy1B_2 O4 1_555 1_555
Dy2B O3A 1_555 1_555
Dy2C O3 1_555 1_555
Dy2D O5 1_555 1_555
Dy2E O5A 1_555 1_555
O2A_2 Dy1 1_555 1_555
O3B Dy2 1_555 1_555
O3C Dy2A 1_555 1_555
O4B Dy1 1_555 1_555
O4C Dy1 1_555 1_555
O5D Dy2 1_555 1_555
O5E Dy2A 1_555 1_555
O6D Dy2 1_555 1_555
O6E Dy2A 1_555 1_555
O7A_2 Dy1 1_555 1_555
O8A_2 Dy1 1_555 1_555
Dy2 O7 1_555 1_555
O6 Dy2D 1_555 1_555
O8 C22 1_555 1_555
C6 C7 1_555 1_555
C13 C14 1_555 1_555
C19 C20 1_555 1_555
C20 C22 1_555 1_555
O6A Dy2E 1_555 1_555
O7A Dy1_2 1_555 1_555
O8A Dy1_2 1_555 1_555
C6A C7A 1_555 1_555
C13A C14A 1_555 1_555
C19A C20A 1_555 1_555
C20A C22A 1_555 1_555

#END
