
#######################################################################
#
#                 Cambridge Crystallographic Data Centre
#                                CCDC 
#
#######################################################################
#
# If this CIF has been generated from an entry in the Cambridge 
# Structural Database, then it will include bibliographic, chemical, 
# crystal, experimental, refinement or atomic coordinate data resulting 
# from the CCDC's data processing and validation procedures.
#
#######################################################################

data_IZIHEG
_chemical_formula_moiety         '(C45 H31 Eu3 O23)n'
_symmetry_cell_setting           tetragonal
_symmetry_space_group_name_H-M   'I -4 2 d'
_symmetry_Int_Tables_number      122
_space_group_name_Hall           'I -4 2bw'
loop_
_symmetry_equiv_pos_site_id
_symmetry_equiv_pos_as_xyz
1 x,y,z
2 -x,-y,z
3 y,-x,-z
4 -y,x,-z
5 1/2-x,y,3/4-z
6 1/2+x,-y,3/4-z
7 1/2-y,-x,3/4+z
8 1/2+y,x,3/4+z
9 1/2+x,1/2+y,1/2+z
10 1/2-x,1/2-y,1/2+z
11 1/2+y,1/2-x,1/2-z
12 1/2-y,1/2+x,1/2-z
13 -x,1/2+y,1/4-z
14 x,1/2-y,1/4-z
15 -y,1/2-x,1/4+z
16 y,1/2+x,1/4+z
_cell_length_a                   14.2118(5)
_cell_length_b                   14.2118(5)
_cell_length_c                   63.501(4)
_cell_angle_alpha                90
_cell_angle_beta                 90
_cell_angle_gamma                90
_cell_volume                     12825.6
loop_
_atom_site_label
_atom_site_type_symbol
_atom_site_fract_x
_atom_site_fract_y
_atom_site_fract_z
Eu1 Eu 0.5000 1.0000 0.45980(2)
Eu2 Eu 0.22204(7) 0.98080(8) 0.43826(2)
O1 O 0.3741(10) 0.9090(12) 0.4656(2)
O2 O 0.5000 1.0000 0.4976(2)
H1 H 0.5447 1.0276 0.5060
O3 O 0.2189(12) 0.8834(13) 0.4668(2)
O4 O 0.3067(10) 0.8556(9) 0.4220(2)
H2 H 0.3147 0.8545 0.4087
H3 H 0.3618 0.8464 0.4283
O5 O 0.0950(10) 0.7445(9) 0.5352(2)
O6 O 0.1169(14) 0.8433(18) 0.4295(3)
H4 H 0.0486 0.8437 0.4298
H5 H 0.1382 0.7815 0.4251
O7 O 0.1226(10) 0.5951(10) 0.5292(2)
O8 O 0.0448(7) 0.6315(8) 0.57108(17)
O9 O 0.1136(8) 0.4977(9) 0.56961(15)
O10 O 0.1363(10) 0.6786(12) 0.6711(2)
O11 O 0.0018(16) 0.6768(10) 0.65194(18)
O12 O 0.0755(13) 1.0118(19) 0.4513(3)
C1 C 0.3163(16) 0.7922(16) 0.4916(3)
C2 C 0.3962(14) 0.7627(15) 0.4969(3)
H6 H 0.4495 0.7848 0.4900
C3 C 0.4054(15) 0.6964(16) 0.5133(3)
H7 H 0.4639 0.6710 0.5166
C4 C 0.3210(16) 0.6679(19) 0.5250(3)
C5 C 0.2363(14) 0.7075(14) 0.5188(3)
C6 C 0.2328(15) 0.7721(17) 0.5036(3)
H8 H 0.1770 0.8038 0.5007
C7 C 0.3357(13) 0.6036(14) 0.5429(3)
C8 C 0.3784(13) 0.5201(15) 0.5410(3)
H9 H 0.4008 0.5015 0.5278
C9 C 0.3900(17) 0.4615(18) 0.5579(3)
H10 H 0.4253 0.4068 0.5565
C10 C 0.3505(17) 0.483(2) 0.5764(3)
H11 H 0.3581 0.4414 0.5876
C11 C 0.2984(13) 0.5642(16) 0.5795(3)
C12 C 0.2917(11) 0.6178(15) 0.5625(3)
H12 H 0.2536 0.6708 0.5636
C13 C 0.2476(14) 0.5845(16) 0.5984(3)
C14 C 0.2939(15) 0.5997(17) 0.6189(3)
H13 H 0.3587 0.5936 0.6204
C15 C 0.2390(16) 0.6227(16) 0.6352(3)
H14 H 0.2690 0.6305 0.6481
C16 C 0.1457(16) 0.6357(16) 0.6350(3)
C17 C 0.0992(13) 0.6222(12) 0.6161(3)
H15 H 0.0347 0.6322 0.6150
C18 C 0.1527(14) 0.5928(14) 0.5985(3)
C19 C 0.3026(17) 0.8683(16) 0.4746(3)
C20 C 0.1420(17) 0.6813(16) 0.5290(3)
C21 C 0.0990(13) 0.5719(16) 0.5777(3)
C22 C 0.0940(19) 0.6591(16) 0.6540(3)
C23 C 0.0000 1.0000 0.4430(6)
H16 H 0.0000 1.0000 0.4283
H1A H 0.4553 0.9724 0.5060
O12A O -0.0755(13) 0.9882(19) 0.4513(3)
Eu2A Eu -0.22204(7) 1.01920(8) 0.43826(2)
O1A O -0.3741(10) 1.0910(12) 0.4656(2)
O3A O -0.2189(12) 1.1166(13) 0.4668(2)
O4A O -0.3067(10) 1.1444(9) 0.4220(2)
H2A H -0.3147 1.1455 0.4087
H3A H -0.3618 1.1536 0.4283
O5A O -0.0950(10) 1.2555(9) 0.5352(2)
O6A O -0.1169(14) 1.1567(18) 0.4295(3)
H4A H -0.0486 1.1563 0.4298
H5A H -0.1382 1.2185 0.4251
O7A O -0.1226(10) 1.4049(10) 0.5292(2)
O8A O -0.0448(7) 1.3685(8) 0.57108(17)
O9A O -0.1136(8) 1.5023(9) 0.56961(15)
O10A O -0.1363(10) 1.3214(12) 0.6711(2)
O11A O -0.0018(16) 1.3232(10) 0.65194(18)
C1A C -0.3163(16) 1.2078(16) 0.4916(3)
C2A C -0.3962(14) 1.2373(15) 0.4969(3)
H6A H -0.4495 1.2152 0.4900
C3A C -0.4054(15) 1.3036(16) 0.5133(3)
H7A H -0.4639 1.3290 0.5166
C4A C -0.3210(16) 1.3321(19) 0.5250(3)
C5A C -0.2363(14) 1.2925(14) 0.5188(3)
C6A C -0.2328(15) 1.2279(17) 0.5036(3)
H8A H -0.1770 1.1962 0.5007
C7A C -0.3357(13) 1.3964(14) 0.5429(3)
C8A C -0.3784(13) 1.4799(15) 0.5410(3)
H9A H -0.4008 1.4985 0.5278
C9A C -0.3900(17) 1.5385(18) 0.5579(3)
H10A H -0.4253 1.5932 0.5565
C10A C -0.3505(17) 1.517(2) 0.5764(3)
H11A H -0.3581 1.5586 0.5876
C11A C -0.2984(13) 1.4358(16) 0.5795(3)
C12A C -0.2917(11) 1.3822(15) 0.5625(3)
H12A H -0.2536 1.3292 0.5636
C13A C -0.2476(14) 1.4155(16) 0.5984(3)
C14A C -0.2939(15) 1.4003(17) 0.6189(3)
H13A H -0.3587 1.4064 0.6204
C15A C -0.2390(16) 1.3773(16) 0.6352(3)
H14A H -0.2690 1.3695 0.6481
C16A C -0.1457(16) 1.3643(16) 0.6350(3)
C17A C -0.0992(13) 1.3778(12) 0.6161(3)
H15A H -0.0347 1.3678 0.6150
C18A C -0.1527(14) 1.4072(14) 0.5985(3)
C19A C -0.3026(17) 1.1317(16) 0.4746(3)
C20A C -0.1420(17) 1.3187(16) 0.5290(3)
C21A C -0.0990(13) 1.4281(16) 0.5777(3)
C22A C -0.0940(19) 1.3409(16) 0.6540(3)
Eu1_2 Eu -0.5000 1.0000 0.45980(2)
Eu1B Eu 0.0000 0.5000 0.54020(2)
Eu1B_2 Eu 0.0000 1.5000 0.54020(2)
Eu2B Eu -0.01920(8) 0.77796(7) 0.56174(2)
Eu2C Eu 0.01920(8) 1.22204(7) 0.56174(2)
Eu2N Eu 0.01920(8) 1.27796(7) 0.68826(2)
Eu2O Eu -0.01920(8) 0.72204(7) 0.68826(2)
O1A_2 O 0.6259(10) 1.0910(12) 0.4656(2)
O5B O -0.2555(9) 0.9050(10) 0.4648(2)
O5C O 0.2555(9) 1.0950(10) 0.4648(2)
O7B O 0.5951(10) 0.8774(10) 0.4708(2)
O7C O 0.4049(10) 1.1226(10) 0.4708(2)
O8B O -0.3685(8) 0.9552(7) 0.42892(17)
O8B_2 O 0.6315(8) 0.9552(7) 0.42892(17)
O8C O 0.3685(8) 1.0448(7) 0.42892(17)
O9B O 0.4977(9) 0.8864(8) 0.43039(15)
O9C O 0.5023(9) 1.1136(8) 0.43039(15)
O10F O -0.1786(12) 0.8637(10) 0.4211(2)
O10G O 0.1786(12) 1.1363(10) 0.4211(2)
O11F O -0.1768(10) 0.9982(16) 0.40194(18)
O11G O 0.1768(10) 1.0018(16) 0.40194(18)
loop_
_geom_bond_atom_site_label_1
_geom_bond_atom_site_label_2
_geom_bond_site_symmetry_1
_geom_bond_site_symmetry_2
Eu1 O1 1_555 1_555
Eu2 O3 1_555 1_555
O1 C19 1_555 1_555
O2 Eu1 1_555 1_555
H1 O2 1_555 1_555
O3 C19 1_555 1_555
O4 Eu2 1_555 1_555
H2 O4 1_555 1_555
H3 O4 1_555 1_555
O5 C20 1_555 1_555
O6 Eu2 1_555 1_555
H4 O6 1_555 1_555
H5 O6 1_555 1_555
O7 C20 1_555 1_555
O8 C21 1_555 1_555
O9 C21 1_555 1_555
O10 C22 1_555 1_555
O11 C22 1_555 1_555
O12 Eu2 1_555 1_555
C1 C2 1_555 1_555
C2 H6 1_555 1_555
C3 C2 1_555 1_555
H7 C3 1_555 1_555
C4 C3 1_555 1_555
C5 C4 1_555 1_555
C6 C1 1_555 1_555
H8 C6 1_555 1_555
C7 C4 1_555 1_555
C8 C7 1_555 1_555
H9 C8 1_555 1_555
C9 C8 1_555 1_555
H10 C9 1_555 1_555
C10 C9 1_555 1_555
H11 C10 1_555 1_555
C11 C10 1_555 1_555
C12 C7 1_555 1_555
H12 C12 1_555 1_555
C13 C11 1_555 1_555
C14 C13 1_555 1_555
H13 C14 1_555 1_555
C15 C14 1_555 1_555
H14 C15 1_555 1_555
C16 C15 1_555 1_555
C17 C16 1_555 1_555
H15 C17 1_555 1_555
C18 C13 1_555 1_555
C19 C1 1_555 1_555
C20 C5 1_555 1_555
C21 C18 1_555 1_555
C22 C16 1_555 1_555
C23 O12 1_555 1_555
H16 C23 1_555 1_555
H1A O2 1_555 1_555
O12A C23 1_555 1_555
Eu2A O12A 1_555 1_555
O1A C19A 1_555 1_555
O3A Eu2A 1_555 1_555
O4A Eu2A 1_555 1_555
H2A O4A 1_555 1_555
H3A O4A 1_555 1_555
O5A C20A 1_555 1_555
O6A Eu2A 1_555 1_555
H4A O6A 1_555 1_555
H5A O6A 1_555 1_555
O7A C20A 1_555 1_555
O8A C21A 1_555 1_555
O9A C21A 1_555 1_555
O10A C22A 1_555 1_555
O11A C22A 1_555 1_555
C1A C2A 1_555 1_555
C2A H6A 1_555 1_555
C3A C2A 1_555 1_555
H7A C3A 1_555 1_555
C4A C3A 1_555 1_555
C5A C4A 1_555 1_555
C6A C1A 1_555 1_555
H8A C6A 1_555 1_555
C7A C4A 1_555 1_555
C8A C7A 1_555 1_555
H9A C8A 1_555 1_555
C9A C8A 1_555 1_555
H10A C9A 1_555 1_555
C10A C9A 1_555 1_555
H11A C10A 1_555 1_555
C11A C10A 1_555 1_555
C12A C7A 1_555 1_555
H12A C12A 1_555 1_555
C13A C11A 1_555 1_555
C14A C13A 1_555 1_555
H13A C14A 1_555 1_555
C15A C14A 1_555 1_555
H14A C15A 1_555 1_555
C16A C15A 1_555 1_555
C17A C16A 1_555 1_555
H15A C17A 1_555 1_555
C18A C13A 1_555 1_555
C19A O3A 1_555 1_555
C20A C5A 1_555 1_555
C21A C18A 1_555 1_555
C22A C16A 1_555 1_555
Eu1_2 O1A 1_555 1_555
Eu1B O7 1_555 1_555
Eu1B_2 O7A 1_555 1_555
Eu2B O5 1_555 1_555
Eu2C O5A 1_555 1_555
Eu2N O10A 1_555 1_555
Eu2O O10 1_555 1_555
O1A_2 Eu1 1_555 1_555
O5B Eu2A 1_555 1_555
O5C Eu2 1_555 1_555
O7B Eu1 1_555 1_555
O7C Eu1 1_555 1_555
O8B Eu2A 1_555 1_555
O8B_2 Eu1 1_555 1_555
O8C Eu1 1_555 1_555
O9B Eu1 1_555 1_555
O9C Eu1 1_555 1_555
O10F Eu2A 1_555 1_555
O10G Eu2 1_555 1_555
O11F Eu2A 1_555 1_555
O11G Eu2 1_555 1_555
Eu2 O8C 1_555 1_555
O8 Eu1B 1_555 1_555
O8 Eu2B 1_555 1_555
O9 Eu1B 1_555 1_555
O11 Eu2O 1_555 1_555
C5 C6 1_555 1_555
C11 C12 1_555 1_555
C17 C18 1_555 1_555
O8A Eu1B_2 1_555 1_555
O8A Eu2C 1_555 1_555
O9A Eu1B_2 1_555 1_555
O11A Eu2N 1_555 1_555
C1A C19A 1_555 1_555
C5A C6A 1_555 1_555
C11A C12A 1_555 1_555
C17A C18A 1_555 1_555
Eu1_2 O8B 1_555 1_555

#END
