
#######################################################################
#
#                 Cambridge Crystallographic Data Centre
#                                CCDC 
#
#######################################################################
#
# If this CIF has been generated from an entry in the Cambridge 
# Structural Database, then it will include bibliographic, chemical, 
# crystal, experimental, refinement or atomic coordinate data resulting 
# from the CCDC's data processing and validation procedures.
#
#######################################################################

data_IZIHIK
_chemical_formula_moiety         '(C45 H31 O23 Tb3)n'
_symmetry_cell_setting           tetragonal
_symmetry_space_group_name_H-M   'I -4 2 d'
_symmetry_Int_Tables_number      122
_space_group_name_Hall           'I -4 2bw'
loop_
_symmetry_equiv_pos_site_id
_symmetry_equiv_pos_as_xyz
1 x,y,z
2 -x,-y,z
3 y,-x,-z
4 -y,x,-z
5 1/2-x,y,3/4-z
6 1/2+x,-y,3/4-z
7 1/2-y,-x,3/4+z
8 1/2+y,x,3/4+z
9 1/2+x,1/2+y,1/2+z
10 1/2-x,1/2-y,1/2+z
11 1/2+y,1/2-x,1/2-z
12 1/2-y,1/2+x,1/2-z
13 -x,1/2+y,1/4-z
14 x,1/2-y,1/4-z
15 -y,1/2-x,1/4+z
16 y,1/2+x,1/4+z
_cell_length_a                   14.1842(14)
_cell_length_b                   14.1842(14)
_cell_length_c                   63.709(9)
_cell_angle_alpha                90
_cell_angle_beta                 90
_cell_angle_gamma                90
_cell_volume                     12817.7
loop_
_atom_site_label
_atom_site_type_symbol
_atom_site_fract_x
_atom_site_fract_y
_atom_site_fract_z
Tb1 Tb 1.0000 -0.0000 0.29020(2)
Tb2 Tb 1.51608(10) 0.27873(8) 0.06209(2)
O1 O 1.1278(13) 0.0921(13) 0.2843(3)
O2 O 1.6415(15) 0.1946(14) 0.0777(3)
H1 H 1.6954 0.2229 0.0752
H2 H 1.6452 0.1370 0.0727
O3 O 1.2843(13) 0.1150(16) 0.2828(3)
O4 O 1.616(3) 0.400(3) 0.0736(7)
H3 H 1.6335 0.4235 0.0859
H4 H 1.6553 0.4180 0.0651
O5 O 1.4032(12) 0.2550(12) 0.2148(3)
O6 O 1.0000 0.0000 0.2524(3)
H5 H 1.0361 0.0292 0.2443
O7 O 1.3751(12) 0.4039(12) 0.2204(2)
O8 O 1.3901(10) 0.5055(13) 0.18059(18)
O9 O 1.4598(9) 0.3677(9) 0.1791(2)
O10 O 1.498(2) 0.3227(12) 0.0983(2)
O11 O 1.3582(13) 0.3178(13) 0.0791(2)
O12 O 1.4686(18) 0.4322(15) 0.0515(3)
C1 C 1.1923(18) 0.2058(17) 0.2588(3)
C2 C 1.1099(18) 0.234(2) 0.2540(3)
H6 H 1.0584 0.2107 0.2614
C3 C 1.095(2) 0.302(2) 0.2368(4)
H7 H 1.0357 0.3257 0.2334
C4 C 1.1829(19) 0.329(2) 0.2255(3)
C5 C 1.2631(16) 0.2910(17) 0.2310(3)
C6 C 1.274(2) 0.227(2) 0.2477(5)
H8 H 1.3320 0.2000 0.2511
C7 C 1.1665(17) 0.3991(19) 0.2079(3)
C8 C 1.1191(15) 0.4822(19) 0.2092(3)
H9 H 1.0959 0.5007 0.2222
C9 C 1.104(2) 0.540(2) 0.1925(4)
H10 H 1.0661 0.5931 0.1933
C10 C 1.149(2) 0.512(3) 0.1739(4)
H11 H 1.1424 0.5512 0.1624
C11 C 1.2005(19) 0.436(2) 0.1713(4)
C12 C 1.2052(17) 0.379(2) 0.1880(4)
H12 H 1.2364 0.3217 0.1864
C13 C 1.2526(18) 0.415(2) 0.1516(3)
C14 C 1.1992(19) 0.403(2) 0.1321(3)
H13 H 1.1343 0.4108 0.1309
C15 C 1.260(2) 0.378(2) 0.1152(4)
H14 H 1.2311 0.3692 0.1022
C16 C 1.3497(19) 0.3650(17) 0.1159(3)
C17 C 1.3981(18) 0.3799(15) 0.1343(3)
H15 H 1.4631 0.3720 0.1351
C18 C 1.3439(17) 0.4084(17) 0.1523(3)
C19 C 1.1990(18) 0.1344(18) 0.2753(3)
C20 C 1.3533(16) 0.3207(18) 0.2209(3)
C21 C 1.4029(15) 0.4258(15) 0.1720(3)
C22 C 1.402(2) 0.3383(19) 0.0964(4)
C23 C 1.5000 0.5000 0.0586(8)
H16 H 1.5000 0.5000 0.0732
H5A H 0.9639 -0.0292 0.2443
O12A O 1.5314(18) 0.5678(15) 0.0515(3)
Tb2A Tb 0.48392(10) -0.27873(8) 0.06209(2)
O1A O 0.8722(13) -0.0921(13) 0.2843(3)
O2A O 0.3585(15) -0.1946(14) 0.0777(3)
H1A H 0.3046 -0.2229 0.0752
H2A H 0.3548 -0.1370 0.0727
O3A O 0.7157(13) -0.1150(16) 0.2828(3)
O4A O 0.384(3) -0.400(3) 0.0736(7)
H3A H 0.3665 -0.4235 0.0859
H4A H 0.3447 -0.4180 0.0651
O5A O 0.5968(12) -0.2550(12) 0.2148(3)
O7A O 0.6249(12) -0.4039(12) 0.2204(2)
O8A O 0.6099(10) -0.5055(13) 0.18059(18)
O9A O 0.5402(9) -0.3677(9) 0.1791(2)
O10A O 0.502(2) -0.3227(12) 0.0983(2)
O11A O 0.6418(13) -0.3178(13) 0.0791(2)
C1A C 0.8077(18) -0.2058(17) 0.2588(3)
C2A C 0.8901(18) -0.234(2) 0.2540(3)
H6A H 0.9416 -0.2107 0.2614
C3A C 0.905(2) -0.302(2) 0.2368(4)
H7A H 0.9643 -0.3257 0.2334
C4A C 0.8171(19) -0.329(2) 0.2255(3)
C5A C 0.7369(16) -0.2910(17) 0.2310(3)
C6A C 0.726(2) -0.227(2) 0.2477(5)
H8A H 0.6680 -0.2000 0.2511
C7A C 0.8335(17) -0.3991(19) 0.2079(3)
C8A C 0.8809(15) -0.4822(19) 0.2092(3)
H9A H 0.9041 -0.5007 0.2222
C9A C 0.896(2) -0.540(2) 0.1925(4)
H10A H 0.9339 -0.5931 0.1933
C10A C 0.851(2) -0.512(3) 0.1739(4)
H11A H 0.8576 -0.5512 0.1624
C11A C 0.7995(19) -0.436(2) 0.1713(4)
C12A C 0.7948(17) -0.379(2) 0.1880(4)
H12A H 0.7636 -0.3217 0.1864
C13A C 0.7474(18) -0.415(2) 0.1516(3)
C14A C 0.8008(19) -0.403(2) 0.1321(3)
H13A H 0.8657 -0.4108 0.1309
C15A C 0.740(2) -0.378(2) 0.1152(4)
H14A H 0.7689 -0.3692 0.1022
C16A C 0.6503(19) -0.3650(17) 0.1159(3)
C17A C 0.6019(18) -0.3799(15) 0.1343(3)
H15A H 0.5369 -0.3720 0.1351
C18A C 0.6561(17) -0.4084(17) 0.1523(3)
C19A C 0.8010(18) -0.1344(18) 0.2753(3)
C20A C 0.6467(16) -0.3207(18) 0.2209(3)
C21A C 0.5971(15) -0.4258(15) 0.1720(3)
C22A C 0.598(2) -0.3383(19) 0.0964(4)
Tb1J Tb 0.5000 -0.5000 0.20980(2)
Tb1J_2 Tb 1.5000 0.5000 0.20980(2)
Tb2A_2 Tb 1.48392(10) 0.72127(8) 0.06209(2)
Tb2L Tb 0.48392(10) -0.22127(8) 0.18791(2)
Tb2M Tb 1.51608(10) 0.22127(8) 0.18791(2)
Tb2N Tb 0.72127(8) -0.01608(10) 0.31209(2)
Tb2O Tb 1.27873(8) 0.01608(10) 0.31209(2)
O3F O 0.3850(16) -0.2843(13) 0.0328(3)
O3G O 1.6150(16) 0.2843(13) 0.0328(3)
O5L O 0.5968(12) -0.2450(12) 0.0352(3)
O5M O 1.4032(12) 0.2450(12) 0.0352(3)
O7J O 0.9039(12) 0.1249(12) 0.2796(2)
O7K O 1.0961(12) -0.1249(12) 0.2796(2)
O8J O 1.0055(13) 0.1099(10) 0.31941(18)
O8K O 0.9945(13) -0.1099(10) 0.31941(18)
O9J O 0.8677(9) 0.0402(9) 0.3209(2)
O9K O 1.1323(9) -0.0402(9) 0.3209(2)
O9L O 0.5402(9) -0.1323(9) 0.0709(2)
O9M O 1.4598(9) 0.1323(9) 0.0709(2)
O12A_2 O 0.5314(18) -0.4322(15) 0.0515(3)
loop_
_geom_bond_atom_site_label_1
_geom_bond_atom_site_label_2
_geom_bond_site_symmetry_1
_geom_bond_site_symmetry_2
Tb1 O1 1_555 1_555
Tb2 O2 1_555 1_555
O1 C19 1_555 1_555
O2 H1 1_555 1_555
H2 O2 1_555 1_555
O3 C19 1_555 1_555
O4 Tb2 1_555 1_555
H3 O4 1_555 1_555
H4 O4 1_555 1_555
O5 C20 1_555 1_555
O6 Tb1 1_555 1_555
H5 O6 1_555 1_555
O7 C20 1_555 1_555
O8 C21 1_555 1_555
O9 C21 1_555 1_555
O10 Tb2 1_555 1_555
O11 Tb2 1_555 1_555
O12 Tb2 1_555 1_555
C1 C2 1_555 1_555
C2 H6 1_555 1_555
C3 C2 1_555 1_555
H7 C3 1_555 1_555
C4 C3 1_555 1_555
C5 C4 1_555 1_555
C6 C1 1_555 1_555
H8 C6 1_555 1_555
C7 C4 1_555 1_555
C8 C7 1_555 1_555
H9 C8 1_555 1_555
C9 C8 1_555 1_555
H10 C9 1_555 1_555
C10 C9 1_555 1_555
H11 C10 1_555 1_555
C11 C10 1_555 1_555
C12 C7 1_555 1_555
H12 C12 1_555 1_555
C13 C11 1_555 1_555
C14 C13 1_555 1_555
H13 C14 1_555 1_555
C15 C14 1_555 1_555
H14 C15 1_555 1_555
C16 C15 1_555 1_555
C17 C16 1_555 1_555
H15 C17 1_555 1_555
C18 C13 1_555 1_555
C19 C1 1_555 1_555
C20 C5 1_555 1_555
C21 C18 1_555 1_555
C22 O10 1_555 1_555
C23 O12 1_555 1_555
H16 C23 1_555 1_555
H5A O6 1_555 1_555
O12A C23 1_555 1_555
Tb2A O2A 1_555 1_555
O1A Tb1 1_555 1_555
O2A H1A 1_555 1_555
H2A O2A 1_555 1_555
O3A C19A 1_555 1_555
O4A Tb2A 1_555 1_555
H3A O4A 1_555 1_555
H4A O4A 1_555 1_555
O5A C20A 1_555 1_555
O7A C20A 1_555 1_555
O8A C21A 1_555 1_555
O9A C21A 1_555 1_555
O10A Tb2A 1_555 1_555
O11A Tb2A 1_555 1_555
C1A C2A 1_555 1_555
C2A H6A 1_555 1_555
C3A C2A 1_555 1_555
H7A C3A 1_555 1_555
C4A C3A 1_555 1_555
C5A C4A 1_555 1_555
C6A C1A 1_555 1_555
H8A C6A 1_555 1_555
C7A C4A 1_555 1_555
C8A C7A 1_555 1_555
H9A C8A 1_555 1_555
C9A C8A 1_555 1_555
H10A C9A 1_555 1_555
C10A C9A 1_555 1_555
H11A C10A 1_555 1_555
C11A C10A 1_555 1_555
C12A C7A 1_555 1_555
H12A C12A 1_555 1_555
C13A C11A 1_555 1_555
C14A C13A 1_555 1_555
H13A C14A 1_555 1_555
C15A C14A 1_555 1_555
H14A C15A 1_555 1_555
C16A C15A 1_555 1_555
C17A C16A 1_555 1_555
H15A C17A 1_555 1_555
C18A C13A 1_555 1_555
C19A O1A 1_555 1_555
C20A C5A 1_555 1_555
C21A C18A 1_555 1_555
C22A O10A 1_555 1_555
Tb1J O7A 1_555 1_555
Tb1J_2 O7 1_555 1_555
Tb2A_2 O12A 1_555 1_555
Tb2L O5A 1_555 1_555
Tb2M O5 1_555 1_555
Tb2N O3A 1_555 1_555
Tb2O O3 1_555 1_555
O3F Tb2A 1_555 1_555
O3G Tb2 1_555 1_555
O5L Tb2A 1_555 1_555
O5M Tb2 1_555 1_555
O7J Tb1 1_555 1_555
O7K Tb1 1_555 1_555
O8J Tb1 1_555 1_555
O8K Tb1 1_555 1_555
O9J Tb1 1_555 1_555
O9K Tb1 1_555 1_555
O9L Tb2A 1_555 1_555
O9M Tb2 1_555 1_555
O12A_2 Tb2A 1_555 1_555
O8 Tb1J_2 1_555 1_555
O9 Tb1J_2 1_555 1_555
O9 Tb2M 1_555 1_555
O11 C22 1_555 1_555
C5 C6 1_555 1_555
C11 C12 1_555 1_555
C16 C22 1_555 1_555
C17 C18 1_555 1_555
O8A Tb1J 1_555 1_555
O9A Tb1J 1_555 1_555
O9A Tb2L 1_555 1_555
O11A C22A 1_555 1_555
C1A C19A 1_555 1_555
C5A C6A 1_555 1_555
C11A C12A 1_555 1_555
C16A C22A 1_555 1_555
C17A C18A 1_555 1_555
Tb2N O9J 1_555 1_555
Tb2O O9K 1_555 1_555

#END
