
#######################################################################
#
#                 Cambridge Crystallographic Data Centre
#                                CCDC 
#
#######################################################################
#
# If this CIF has been generated from an entry in the Cambridge 
# Structural Database, then it will include bibliographic, chemical, 
# crystal, experimental, refinement or atomic coordinate data resulting 
# from the CCDC's data processing and validation procedures.
#
#######################################################################

data_IZIHAC
_chemical_formula_moiety         '(C45 H31 O23 Sm3)n'
_symmetry_cell_setting           tetragonal
_symmetry_space_group_name_H-M   'I -4 2 d'
_symmetry_Int_Tables_number      122
_space_group_name_Hall           'I -4 2bw'
loop_
_symmetry_equiv_pos_site_id
_symmetry_equiv_pos_as_xyz
1 x,y,z
2 y,-x,-z
3 -x,-y,z
4 -y,x,-z
5 x,1/2-y,1/4-z
6 1/2-y,-x,3/4+z
7 -x,1/2+y,1/4-z
8 1/2+y,x,3/4+z
9 1/2+x,1/2+y,1/2+z
10 1/2+y,1/2-x,1/2-z
11 1/2-x,1/2-y,1/2+z
12 1/2-y,1/2+x,1/2-z
13 1/2+x,-y,3/4-z
14 -y,1/2-x,1/4+z
15 1/2-x,y,3/4-z
16 y,1/2+x,1/4+z
_cell_length_a                   14.3090(4)
_cell_length_b                   14.3090(4)
_cell_length_c                   63.900(4)
_cell_angle_alpha                90
_cell_angle_beta                 90
_cell_angle_gamma                90
_cell_volume                     13083.4
loop_
_atom_site_label
_atom_site_type_symbol
_atom_site_fract_x
_atom_site_fract_y
_atom_site_fract_z
Sm1 Sm 1.0000 0.5000 0.45983(2)
Sm2 Sm 0.52019(3) 0.27694(3) 0.56202(2)
O1 O 0.8711(4) 0.4597(4) 0.42877(8)
O2 O 0.6468(5) 0.1882(6) 0.57901(11)
H1 H 0.6990 0.2102 0.5750
H2 H 0.6430 0.1310 0.5755
O3 O 0.6161(6) 0.2818(5) 0.53172(11)
O4 O 0.6538(10) 0.3806(9) 0.57169(17)
H3 H 0.6702 0.3931 0.5842
H4 H 0.6902 0.4082 0.5632
O5 O 0.5944(5) 0.1315(4) 0.53439(10)
O6 O 1.0000 0.5000 0.49778(12)
H5 H 1.0485 0.5000 0.5055
O7 O 0.9035(4) 0.3740(4) 0.47050(9)
O8 O 0.7544(4) 0.4050(5) 0.46395(9)
O9 O 0.8199(6) 0.3692(6) 0.32949(10)
O10 O 0.8210(5) 0.4947(6) 0.34865(8)
O11 O 0.4914(9) 0.4266(5) 0.54916(16)
O12 O 1.0051(4) 0.3861(4) 0.43044(7)
C1 C 0.6333(7) 0.2008(7) 0.52549(14)
C2 C 0.7010(7) 0.1875(7) 0.50788(12)
C3 C 0.7258(6) 0.2661(6) 0.49663(12)
H6 H 0.6977 0.3230 0.4998
C4 C 0.7911(6) 0.2626(6) 0.48075(12)
C5 C 0.8186(6) 0.3547(6) 0.47056(12)
C6 C 0.8293(7) 0.1766(6) 0.47542(12)
C7 C 0.8023(7) 0.0977(7) 0.48654(14)
H7 H 0.8278 0.0399 0.4831
C8 C 0.7371(7) 0.1039(6) 0.50294(13)
H8 H 0.7192 0.0507 0.5103
C9 C 0.8945(6) 0.1668(6) 0.45726(13)
C10 C 0.8732(6) 0.2079(6) 0.43752(13)
H9 H 0.8178 0.2410 0.4358
C11 C 0.9339(7) 0.1991(6) 0.42086(12)
C12 C 0.9139(7) 0.2514(6) 0.40144(12)
C13 C 0.9062(6) 0.3472(6) 0.40210(12)
C14 C 0.8811(6) 0.3979(7) 0.38434(12)
H10 H 0.8750 0.4625 0.3852
C15 C 0.8651(7) 0.3532(7) 0.36565(13)
C16 C 0.8352(7) 0.4105(8) 0.34680(14)
C17 C 0.8729(8) 0.2571(7) 0.36502(14)
H11 H 0.8621 0.2259 0.3525
C18 C 0.8956(8) 0.2076(8) 0.38212(14)
H12 H 0.8992 0.1428 0.3812
C19 C 1.0156(8) 0.1495(7) 0.42326(14)
H13 H 1.0557 0.1426 0.4119
C20 C 1.0390(8) 0.1098(8) 0.44238(15)
H14 H 1.0949 0.0775 0.4439
C21 C 0.9790(8) 0.1186(7) 0.45905(15)
H15 H 0.9950 0.0919 0.4718
C22 C 0.9295(6) 0.4012(5) 0.42185(11)
C23 C 0.5000 0.5000 0.5581(3)
H16 H 0.5000 0.5000 0.5727
H5B H 0.9515 0.5000 0.5055
O11B O 0.5086(9) 0.5734(5) 0.54916(16)
Sm2A Sm 0.27694(3) 0.47981(3) 0.43798(2)
O1A O 0.4597(4) 0.1289(4) 0.57123(8)
O2A O 0.1882(6) 0.3532(5) 0.42099(11)
H1A H 0.2102 0.3010 0.4250
H2A H 0.1310 0.3570 0.4245
O3A O 0.2818(5) 0.3839(6) 0.46828(11)
O4A O 0.3806(9) 0.3462(10) 0.42831(17)
H3A H 0.3931 0.3298 0.4158
H4A H 0.4082 0.3098 0.4368
O5A O 0.1315(4) 0.4056(5) 0.46561(10)
O7A O 0.3740(4) 0.0965(4) 0.52950(9)
O8A O 0.4050(5) 0.2456(4) 0.53605(9)
O9A O 0.3692(6) 0.1801(6) 0.67051(10)
O10A O 0.4947(6) 0.1790(5) 0.65135(8)
O12A O 0.3861(4) -0.0051(4) 0.56956(7)
C1A C 0.2008(7) 0.3667(7) 0.47451(14)
C2A C 0.1875(7) 0.2990(7) 0.49212(12)
C3A C 0.2661(6) 0.2742(6) 0.50337(12)
H6A H 0.3230 0.3023 0.5002
C4A C 0.2626(6) 0.2089(6) 0.51925(12)
C5A C 0.3547(6) 0.1814(6) 0.52944(12)
C6A C 0.1766(6) 0.1707(7) 0.52458(12)
C7A C 0.0977(7) 0.1977(7) 0.51346(14)
H7A H 0.0399 0.1722 0.5169
C8A C 0.1039(6) 0.2629(7) 0.49706(13)
H8A H 0.0507 0.2808 0.4897
C9A C 0.1668(6) 0.1055(6) 0.54274(13)
C10A C 0.2079(6) 0.1268(6) 0.56248(13)
H9A H 0.2410 0.1822 0.5642
C11A C 0.1991(6) 0.0661(7) 0.57914(12)
C12A C 0.2514(6) 0.0861(7) 0.59856(12)
C13A C 0.3472(6) 0.0938(6) 0.59790(12)
C14A C 0.3979(7) 0.1189(6) 0.61566(12)
H10A H 0.4625 0.1250 0.6148
C15A C 0.3532(7) 0.1349(7) 0.63435(13)
C16A C 0.4105(8) 0.1648(7) 0.65320(14)
C17A C 0.2571(7) 0.1271(8) 0.63498(14)
H11A H 0.2259 0.1379 0.6475
C18A C 0.2076(8) 0.1044(8) 0.61788(14)
H12A H 0.1428 0.1008 0.6188
C19A C 0.1495(7) -0.0156(8) 0.57674(14)
H13A H 0.1426 -0.0557 0.5881
C20A C 0.1098(8) -0.0390(8) 0.55762(15)
H14A H 0.0775 -0.0949 0.5561
C21A C 0.1186(7) 0.0210(8) 0.54095(15)
H15A H 0.0919 0.0050 0.5282
C22A C 0.4012(5) 0.0705(6) 0.57815(11)
Sm1_2 Sm 0.0000 0.5000 0.45983(2)
Sm1A Sm 0.5000 0.0000 0.54017(2)
Sm2B Sm 0.47981(3) 0.72306(3) 0.56202(2)
Sm2C Sm 0.72306(3) 0.52019(3) 0.43798(2)
Sm2D Sm 0.52019(3) 0.22306(3) 0.68798(2)
Sm2G Sm 0.77694(3) 0.52019(3) 0.31202(2)
O1B O 0.1289(4) 0.5403(4) 0.42877(8)
O1B_2 O 1.1289(4) 0.5403(4) 0.42877(8)
O5A_2 O 1.1315(4) 0.4056(5) 0.46561(10)
O5C O 0.8685(4) 0.5944(5) 0.46561(10)
O7B O 1.0965(4) 0.6260(4) 0.47050(9)
O8B O 0.2456(4) 0.5950(5) 0.46395(9)
O9L O 0.3199(6) 0.6308(6) 0.42051(10)
O9O O 0.3692(6) 0.3199(6) 0.57949(10)
O10L O 0.3210(5) 0.5053(6) 0.40135(8)
O10O O 0.4947(6) 0.3210(5) 0.59865(8)
O11A O 0.4266(5) 0.5086(9) 0.45084(16)
O12B O 0.9949(4) 0.6139(4) 0.43044(7)
loop_
_geom_bond_atom_site_label_1
_geom_bond_atom_site_label_2
_geom_bond_site_symmetry_1
_geom_bond_site_symmetry_2
Sm1 O1 1_555 1_555
Sm2 O2 1_555 1_555
O1 C22 1_555 1_555
O2 H1 1_555 1_555
H2 O2 1_555 1_555
O3 Sm2 1_555 1_555
O4 Sm2 1_555 1_555
H3 O4 1_555 1_555
H4 O4 1_555 1_555
O5 Sm2 1_555 1_555
O6 Sm1 1_555 1_555
H5 O6 1_555 1_555
O7 Sm1 1_555 1_555
O8 C5 1_555 1_555
O9 C16 1_555 1_555
O10 C16 1_555 1_555
O11 Sm2 1_555 1_555
O12 Sm1 1_555 1_555
C1 O3 1_555 1_555
C2 C1 1_555 1_555
C3 C2 1_555 1_555
H6 C3 1_555 1_555
C4 C3 1_555 1_555
C5 O7 1_555 1_555
C6 C4 1_555 1_555
C7 C6 1_555 1_555
H7 C7 1_555 1_555
C8 C2 1_555 1_555
H8 C8 1_555 1_555
C9 C6 1_555 1_555
C10 C9 1_555 1_555
H9 C10 1_555 1_555
C11 C10 1_555 1_555
C12 C11 1_555 1_555
C13 C12 1_555 1_555
C14 C13 1_555 1_555
H10 C14 1_555 1_555
C15 C14 1_555 1_555
C16 C15 1_555 1_555
C17 C15 1_555 1_555
H11 C17 1_555 1_555
C18 C12 1_555 1_555
H12 C18 1_555 1_555
C19 C11 1_555 1_555
H13 C19 1_555 1_555
C20 C19 1_555 1_555
H14 C20 1_555 1_555
C21 C9 1_555 1_555
H15 C21 1_555 1_555
C22 O12 1_555 1_555
C23 O11 1_555 1_555
H16 C23 1_555 1_555
H5B O6 1_555 1_555
O11B C23 1_555 1_555
Sm2A O2A 1_555 1_555
O1A Sm2 1_555 1_555
O2A H1A 1_555 1_555
H2A O2A 1_555 1_555
O3A Sm2A 1_555 1_555
O4A Sm2A 1_555 1_555
H3A O4A 1_555 1_555
H4A O4A 1_555 1_555
O5A Sm2A 1_555 1_555
O7A C5A 1_555 1_555
O8A Sm2 1_555 1_555
O9A C16A 1_555 1_555
O10A C16A 1_555 1_555
O12A C22A 1_555 1_555
C1A O3A 1_555 1_555
C2A C1A 1_555 1_555
C3A C2A 1_555 1_555
H6A C3A 1_555 1_555
C4A C3A 1_555 1_555
C5A O8A 1_555 1_555
C6A C4A 1_555 1_555
C7A C6A 1_555 1_555
H7A C7A 1_555 1_555
C8A C2A 1_555 1_555
H8A C8A 1_555 1_555
C9A C6A 1_555 1_555
C10A C9A 1_555 1_555
H9A C10A 1_555 1_555
C11A C10A 1_555 1_555
C12A C11A 1_555 1_555
C13A C12A 1_555 1_555
C14A C13A 1_555 1_555
H10A C14A 1_555 1_555
C15A C14A 1_555 1_555
C16A C15A 1_555 1_555
C17A C15A 1_555 1_555
H11A C17A 1_555 1_555
C18A C12A 1_555 1_555
H12A C18A 1_555 1_555
C19A C11A 1_555 1_555
H13A C19A 1_555 1_555
C20A C19A 1_555 1_555
H14A C20A 1_555 1_555
C21A C9A 1_555 1_555
H15A C21A 1_555 1_555
C22A O1A 1_555 1_555
Sm1_2 O5A 1_555 1_555
Sm1A O5 1_555 1_555
Sm2B O11B 1_555 1_555
Sm2C O1 1_555 1_555
Sm2D O9A 1_555 1_555
Sm2G O9 1_555 1_555
O1B Sm2A 1_555 1_555
O1B_2 Sm1 1_555 1_555
O5A_2 Sm1 1_555 1_555
O5C Sm1 1_555 1_555
O7B Sm1 1_555 1_555
O8B Sm2A 1_555 1_555
O9L Sm2A 1_555 1_555
O9O Sm2 1_555 1_555
O10L Sm2A 1_555 1_555
O10O Sm2 1_555 1_555
O11A Sm2A 1_555 1_555
O12B Sm1 1_555 1_555
O5 C1 1_555 1_555
O8 Sm2C 1_555 1_555
O10 Sm2G 1_555 1_555
C4 C5 1_555 1_555
C7 C8 1_555 1_555
C13 C22 1_555 1_555
C17 C18 1_555 1_555
C20 C21 1_555 1_555
O1A Sm1A 1_555 1_555
O5A C1A 1_555 1_555
O7A Sm1A 1_555 1_555
O10A Sm2D 1_555 1_555
O12A Sm1A 1_555 1_555
C4A C5A 1_555 1_555
C7A C8A 1_555 1_555
C13A C22A 1_555 1_555
C17A C18A 1_555 1_555
C20A C21A 1_555 1_555
Sm1_2 O1B 1_555 1_555
Sm2C O5C 1_555 1_555

#END
