
#######################################################################
#
#                 Cambridge Crystallographic Data Centre
#                                CCDC 
#
#######################################################################
#
# If this CIF has been generated from an entry in the Cambridge 
# Structural Database, then it will include bibliographic, chemical, 
# crystal, experimental, refinement or atomic coordinate data resulting 
# from the CCDC's data processing and validation procedures.
#
#######################################################################

data_FARFUA
_chemical_formula_moiety         '(C68 H53 I6 N13 O2 Zn3)n'
_symmetry_cell_setting           monoclinic
_symmetry_space_group_name_H-M   'C 2/c'
_symmetry_Int_Tables_number      15
_space_group_name_Hall           '-C 2yc'
loop_
_symmetry_equiv_pos_site_id
_symmetry_equiv_pos_as_xyz
1 x,y,z
2 1/2+x,1/2+y,z
3 -x,y,1/2-z
4 1/2-x,1/2+y,1/2-z
5 -x,-y,-z
6 1/2-x,1/2-y,-z
7 x,-y,1/2+z
8 1/2+x,1/2-y,1/2+z
_cell_length_a                   34.1126(11)
_cell_length_b                   15.1010(5)
_cell_length_c                   30.2397(10)
_cell_angle_alpha                90
_cell_angle_beta                 101.1170(10)
_cell_angle_gamma                90
_cell_volume                     15285.2
loop_
_atom_site_label
_atom_site_type_symbol
_atom_site_fract_x
_atom_site_fract_y
_atom_site_fract_z
_atom_site_U_iso_or_equiv
_atom_site_thermal_displace_type
C1 C -0.0277(3) -0.0326(5) -0.5539(3) 0.0422 Uani
H1 H -0.0100 -0.0192 -0.5737 0.0510 Uiso
C2 C -0.0215(3) -0.1089(5) -0.5287(3) 0.0459 Uani
H2 H -0.0003 -0.1483 -0.5311 0.0550 Uiso
C3 C -0.0478(3) -0.1264(5) -0.4992(3) 0.0406 Uani
C4 C -0.0770(3) -0.0666(7) -0.4950(4) 0.0534 Uani
H3 H -0.0939 -0.0758 -0.4739 0.0640 Uiso
C5 C -0.0812(3) 0.0078(6) -0.5224(4) 0.0590 Uani
H4 H -0.1018 0.0488 -0.5200 0.0710 Uiso
C6 C -0.0441(3) -0.2098(6) -0.4716(3) 0.0458 Uani
C7 C -0.0129(3) -0.3380(6) -0.4496(3) 0.0476 Uani
C8 C -0.0647(3) -0.2925(7) -0.4188(3) 0.0511 Uani
C9 C 0.0184(3) -0.4042(6) -0.4528(4) 0.0536 Uani
C10 C 0.0298(4) -0.4627(11) -0.4164(6) 0.0916 Uani
H5 H 0.0165 -0.4637 -0.3916 0.1100 Uiso
C11 C -0.0914(4) -0.3078(7) -0.3869(4) 0.0579 Uani
C12 C -0.1287(4) -0.2647(7) -0.3936(5) 0.0638 Uani
H6 H -0.1362 -0.2241 -0.4177 0.0770 Uiso
C13 C -0.1546(5) -0.2831(8) -0.3639(5) 0.0786 Uani
H7 H -0.1802 -0.2561 -0.3687 0.0940 Uiso
C14 C -0.0826(5) -0.3634(11) -0.3515(5) 0.0821 Uani
H8 H -0.0578 -0.3941 -0.3462 0.0980 Uiso
C15 C 0.3513(4) -0.5833(6) -0.1686(4) 0.0604 Uani
H9 H 0.3450 -0.6426 -0.1621 0.0730 Uiso
C16 C 0.3264(3) -0.5402(6) -0.2026(4) 0.0545 Uani
H10 H 0.3038 -0.5694 -0.2197 0.0650 Uiso
C17 C 0.3349(3) -0.4513(5) -0.2118(3) 0.0420 Uani
C18 C 0.3675(4) -0.4132(6) -0.1849(4) 0.0684 Uani
H11 H 0.3740 -0.3531 -0.1892 0.0820 Uiso
C19 C 0.3907(4) -0.4625(7) -0.1515(4) 0.0720 Uani
H12 H 0.4127 -0.4341 -0.1328 0.0860 Uiso
C20 C 0.3100(3) -0.4010(5) -0.2481(3) 0.0431 Uani
C21 C 0.2577(3) -0.3938(5) -0.3065(3) 0.0449 Uani
C22 C 0.2937(3) -0.2708(5) -0.2840(3) 0.0412 Uani
C23 C 0.2261(3) -0.4414(6) -0.3379(4) 0.0567 Uani
C24 C 0.2193(3) -0.5299(6) -0.3320(4) 0.0672 Uani
H13 H 0.2341 -0.5612 -0.3070 0.0810 Uiso
C25 C 0.1905(3) -0.5723(7) -0.3631(5) 0.0760 Uani
H14 H 0.1861 -0.6336 -0.3590 0.0910 Uiso
C26 C 0.1751(4) -0.4446(7) -0.4040(4) 0.0718 Uani
H15 H 0.1598 -0.4148 -0.4292 0.0860 Uiso
C27 C 0.2030(3) -0.3978(6) -0.3747(4) 0.0670 Uani
H16 H 0.2067 -0.3363 -0.3792 0.0800 Uiso
C28 C 0.3004(3) -0.1743(5) -0.2862(3) 0.0449 Uani
C29 C 0.2743(4) -0.1198(7) -0.3148(5) 0.0702 Uani
H17 H 0.2520 -0.1446 -0.3346 0.0840 Uiso
C30 C 0.2806(4) -0.0294(7) -0.3144(5) 0.0732 Uani
H18 H 0.2636 0.0068 -0.3357 0.0880 Uiso
C31 C 0.3354(4) -0.0443(7) -0.2571(4) 0.0665 Uani
H19 H 0.3571 -0.0178 -0.2371 0.0800 Uiso
C32 C 0.3318(3) -0.1345(6) -0.2561(4) 0.0546 Uani
H20 H 0.3500 -0.1691 -0.2355 0.0660 Uiso
C33 C 0.0686(3) -0.4654(7) -0.4886(4) 0.0632 Uani
H21 H 0.0812 -0.4668 -0.5140 0.0760 Uiso
C34 C 0.0375(3) -0.4055(6) -0.4871(4) 0.0567 Uani
H22 H 0.0299 -0.3648 -0.5112 0.0680 Uiso
C35 C 0.0616(5) -0.5190(12) -0.4185(7) 0.0959 Uani
H23 H 0.0705 -0.5579 -0.3939 0.1150 Uiso
C36 C -0.1090(5) -0.3766(12) -0.3225(6) 0.0903 Uani
H24 H -0.1017 -0.4148 -0.2973 0.1080 Uiso
I1 I -0.01905(3) 0.15182(6) -0.64123(3) 0.0788 Uani
I2 I -0.11429(3) 0.23618(4) -0.56314(3) 0.0765 Uani
I3 I -0.13546(6) -0.32341(9) -0.20509(5) 0.1392 Uani
I4 I -0.24434(5) -0.27524(7) -0.31223(6) 0.1372 Uani
I5 I 0.11432(4) -0.74607(5) -0.41354(5) 0.1306 Uani
I6 I 0.15885(4) -0.58001(10) -0.51793(5) 0.1211 Uani
N1 N -0.0579(2) 0.0244(5) -0.5518(3) 0.0494 Uani
N2 N -0.0157(3) -0.2677(5) -0.4767(3) 0.0486 Uani
N3 N -0.0361(3) -0.3527(6) -0.4201(3) 0.0552 Uani
N4 N -0.0696(3) -0.2204(5) -0.4437(3) 0.0484 Uani
N5 N 0.3843(3) -0.5466(5) -0.1438(3) 0.0553 Uani
N6 N 0.3186(2) -0.3152(4) -0.2524(3) 0.0414 Uani
N7 N 0.2631(2) -0.3066(5) -0.3124(3) 0.0476 Uani
N8 N 0.2793(2) -0.4423(4) -0.2733(3) 0.0453 Uani
N9 N 0.1686(3) -0.5318(5) -0.3984(4) 0.0693 Uani
N10 N 0.3105(3) 0.0090(5) -0.2844(4) 0.0610 Uani
N11 N -0.1440(5) -0.3372(7) -0.3293(4) 0.0821 Uani
N12 N 0.0802(3) -0.5207(6) -0.4539(4) 0.0706 Uani
Zn1 Zn 0.13030(5) -0.60063(8) -0.44800(6) 0.0834 Uani
Zn2 Zn -0.07544(4) 0.12279(7) -0.59948(4) 0.0555 Uani
Zn3 Zn -0.17973(7) -0.35605(9) -0.28192(7) 0.0899 Uani
N5G N -0.1157(3) 0.0466(5) -0.6438(3) 0.0553 Uani
N10A N -0.1895(3) -0.4910(5) -0.2844(4) 0.0610 Uani
Zn2G Zn 0.42456(4) -0.62279(7) -0.09948(4) 0.0555 Uani
Zn3A Zn 0.32027(7) 0.14395(9) -0.28192(7) 0.0899 Uani
C37 C 0.3388(10) -0.5901(16) 0.1428(9) 0.1964 Uani
C38 C 0.3121(10) -0.5150(17) 0.1261(10) 0.2328 Uani
H25 H 0.2901 -0.5251 0.1021 0.2770 Uiso
C39 C 0.3173(11) -0.4397(18) 0.1422(12) 0.2444 Uani
H26 H 0.3002 -0.3926 0.1298 0.2910 Uiso
C40 C 0.3532(12) -0.4222(16) 0.1841(12) 0.2083 Uani
H27 H 0.3572 -0.3669 0.1992 0.2490 Uiso
C41 C 0.3756(11) -0.4871(17) 0.1952(11) 0.1952 Uani
C42 C 0.3737(11) -0.5684(17) 0.1820(10) 0.1931 Uani
C43 C 0.4010(11) -0.6503(17) 0.1987(11) 0.1962 Uani
C44 C 0.4335(13) -0.625(3) 0.2369(13) 0.2504 Uani
H28 H 0.4519 -0.6657 0.2537 0.3000 Uiso
C45 C 0.4327(13) -0.527(3) 0.2449(12) 0.2353 Uani
H29 H 0.4557 -0.5089 0.2661 0.2850 Uiso
C46 C 0.4061(13) -0.447(3) 0.2291(12) 0.2269 Uani
H30 H 0.4088 -0.3867 0.2388 0.2730 Uiso
C47 C 0.3300(11) -0.6793(15) 0.1226(10) 0.1957 Uani
C48 C 0.2978(11) -0.7039(18) 0.0837(11) 0.2149 Uani
H31 H 0.2804 -0.6579 0.0707 0.2580 Uiso
C49 C 0.2918(12) -0.777(2) 0.0670(12) 0.2248 Uani
H32 H 0.2702 -0.7891 0.0428 0.2710 Uiso
C50 C 0.3230(12) -0.8535(19) 0.0888(13) 0.2317 Uani
H33 H 0.3210 -0.9127 0.0780 0.2810 Uiso
C51 C 0.3503(12) -0.8297(17) 0.1209(11) 0.2036 Uani
C52 C 0.3600(11) -0.7533(16) 0.1395(10) 0.1953 Uani
C53 C 0.3927(11) -0.7274(18) 0.1811(11) 0.2046 Uani
C54 C 0.4200(13) -0.802(2) 0.1963(14) 0.2503 Uani
H34 H 0.4434 -0.7987 0.2191 0.2970 Uiso
C55 C 0.4052(13) -0.885(2) 0.1704(15) 0.2632 Uani
H35 H 0.4192 -0.9360 0.1834 0.3170 Uiso
C56 C 0.3739(14) -0.909(2) 0.1288(15) 0.2728 Uani
H36 H 0.3708 -0.9630 0.1123 0.3250 Uiso
C63 C 0.2550(15) -0.412(3) -0.0706(16) 0.1700 Uiso
C64 C 0.2608(12) -0.331(3) -0.0413(13) 0.1300 Uiso
C65 C 0.2784(14) -0.347(3) 0.0077(13) 0.1490 Uiso
C66 C 0.3154(17) -0.403(4) 0.013(2) 0.2300 Uiso
C67 C 0.3117(18) -0.487(4) -0.0144(19) 0.1900 Uiso
C68 C 0.2914(17) -0.471(4) -0.0627(19) 0.1900 Uiso
C79 C 0.4912(11) -0.261(3) -0.3648(13) 0.2100 Uiso
C80 C 0.4854(15) -0.352(3) -0.3603(17) 0.2800 Uiso
C81 C 0.4531(17) -0.393(3) -0.388(2) 0.1770 Uiso
C82 C 0.4281(16) -0.343(3) -0.4212(19) 0.2100 Uiso
C83 C 0.4319(13) -0.252(3) -0.4227(15) 0.1390 Uiso
C84 C 0.4656(16) -0.212(3) -0.3971(19) 0.2600 Uiso
N15 N 0.5256(15) -0.218(4) -0.3365(19) 0.4900 Uiso
O5 O 0.5461(16) -0.265(4) -0.3075(19) 0.3000 Uiso
O6 O 0.528(3) -0.136(4) -0.340(3) 0.4600 Uiso
loop_
_atom_site_aniso_label
_atom_site_aniso_U_11
_atom_site_aniso_U_22
_atom_site_aniso_U_33
_atom_site_aniso_U_23
_atom_site_aniso_U_13
_atom_site_aniso_U_12
C1 0.051 0.03 0.037 0 -0.013 -0.007
C2 0.054 0.028 0.045 0.001 -0.017 0.002
C3 0.045 0.028 0.043 -0.002 -0.006 -0.008
C4 0.055 0.041 0.062 0.007 0.006 0.004
C5 0.059 0.033 0.079 0.002 -0.002 0.003
C6 0.05 0.031 0.046 0.005 -0.017 -0.007
C7 0.05 0.035 0.046 0.004 -0.02 -0.002
C8 0.057 0.044 0.044 0.001 -0.011 -0.008
C9 0.053 0.033 0.062 0.002 -0.021 -0.002
C10 0.075 0.099 0.094 0.053 -0.001 0.027
C11 0.071 0.043 0.053 0.006 -0.005 -0.019
C12 0.075 0.04 0.078 -0.002 0.019 -0.003
C13 0.106 0.04 0.094 0.004 0.03 -0.005
C14 0.082 0.09 0.068 0.035 -0.001 -0.008
C15 0.075 0.028 0.063 0.002 -0.025 0
C16 0.061 0.029 0.06 0.003 -0.022 -0.002
C17 0.046 0.024 0.046 0 -0.016 0.005
C18 0.078 0.031 0.075 0.009 -0.038 -0.004
C19 0.078 0.034 0.079 0.007 -0.047 -0.01
C20 0.045 0.025 0.05 0.001 -0.014 0.01
C21 0.043 0.026 0.057 0.002 -0.012 0.006
C22 0.052 0.02 0.047 -0.002 -0.002 0.004
C23 0.057 0.025 0.07 -0.003 -0.033 0.009
C24 0.064 0.03 0.084 0.011 -0.045 -0.007
C25 0.062 0.031 0.108 -0.006 -0.051 0.002
C26 0.069 0.034 0.088 -0.002 -0.046 0.008
C27 0.071 0.028 0.079 0.007 -0.043 0
C28 0.05 0.022 0.06 0.002 0.004 0.001
C29 0.077 0.031 0.087 0.011 -0.023 -0.005
C30 0.078 0.031 0.101 0.015 -0.007 0.011
C31 0.085 0.037 0.07 -0.003 -0.004 -0.017
C32 0.068 0.027 0.065 0.002 0.003 -0.005
C33 0.062 0.037 0.076 -0.008 -0.023 0
C34 0.062 0.03 0.064 -0.002 -0.023 0.004
C35 0.076 0.094 0.111 0.046 0.001 0.036
C36 0.097 0.085 0.094 0.022 0.031 -0.007
I1 0.095 0.0723 0.0563 0.0063 -0.0177 -0.0389
I2 0.0903 0.0293 0.0896 -0.0084 -0.0331 0.011
I3 0.2335 0.0835 0.1138 -0.0515 0.0662 -0.087
I4 0.1785 0.0479 0.2215 0.0607 0.1292 0.0478
I5 0.1269 0.0356 0.1782 0.0046 -0.0979 -0.0149
I6 0.1076 0.1236 0.1119 -0.0558 -0.0293 0.0392
N1 0.052 0.031 0.052 0 -0.023 0
N2 0.056 0.029 0.05 0 -0.017 -0.011
N3 0.057 0.043 0.055 0.01 -0.016 -0.012
N4 0.055 0.038 0.045 0.007 -0.008 -0.008
N5 0.063 0.028 0.059 0 -0.028 0.008
N6 0.042 0.022 0.055 -0.005 -0.004 0.001
N7 0.052 0.023 0.056 0.004 -0.019 0.002
N8 0.044 0.024 0.055 0.004 -0.023 0.002
N9 0.065 0.027 0.093 -0.008 -0.042 0.006
N10 0.076 0.026 0.081 0.004 0.015 -0.006
N11 0.118 0.052 0.076 0.009 0.018 -0.029
N12 0.05 0.045 0.097 0.007 -0.035 0.009
Zn1 0.074 0.0372 0.11 -0.0192 -0.0548 0.0116
Zn2 0.0679 0.0265 0.0553 0.0034 -0.03 -0.0074
Zn3 0.143 0.0266 0.1161 -0.0049 0.0652 -0.0173
N5G 0.063 0.028 0.059 0 -0.028 -0.008
N10A 0.076 0.026 0.081 0.004 0.015 -0.006
Zn2G 0.0679 0.0265 0.0553 -0.0034 -0.03 0.0074
Zn3A 0.143 0.0266 0.1161 -0.0049 0.0652 -0.0173
C37 0.34 0.095 0.193 -0.023 0.148 -0.044
C38 0.38 0.083 0.26 0.008 0.123 -0.047
C39 0.38 0.087 0.28 0.008 0.098 -0.049
C40 0.35 0.089 0.22 0.022 0.14 -0.06
C41 0.31 0.1 0.21 -0.016 0.136 -0.07
C42 0.32 0.114 0.191 -0.033 0.163 -0.043
C43 0.32 0.129 0.185 -0.02 0.162 -0.039
C44 0.35 0.22 0.21 -0.025 0.126 -0.05
C45 0.32 0.22 0.19 -0.05 0.109 -0.08
C46 0.33 0.206 0.18 -0.053 0.137 -0.079
C47 0.34 0.089 0.201 -0.018 0.159 -0.05
C48 0.35 0.102 0.23 -0.046 0.149 -0.047
C49 0.35 0.114 0.25 -0.059 0.157 -0.043
C50 0.38 0.094 0.26 -0.033 0.159 -0.046
C51 0.36 0.095 0.21 -0.017 0.19 -0.041
C52 0.34 0.093 0.202 -0.001 0.175 -0.052
C53 0.33 0.111 0.22 -0.01 0.171 -0.034
C54 0.35 0.137 0.3 -0.019 0.153 -0.008
C55 0.37 0.133 0.32 -0.04 0.15 0
C56 0.41 0.141 0.3 -0.049 0.15 0.014
loop_
_geom_bond_atom_site_label_1
_geom_bond_atom_site_label_2
_geom_bond_site_symmetry_1
_geom_bond_site_symmetry_2
C1 H1 1_555 1_555
C2 C1 1_555 1_555
H2 C2 1_555 1_555
C3 C2 1_555 1_555
C4 C3 1_555 1_555
H3 C4 1_555 1_555
C5 C4 1_555 1_555
H4 C5 1_555 1_555
C6 C3 1_555 1_555
C7 C9 1_555 1_555
C8 C11 1_555 1_555
C9 C10 1_555 1_555
C10 H5 1_555 1_555
C11 C12 1_555 1_555
C12 H6 1_555 1_555
C13 C12 1_555 1_555
H7 C13 1_555 1_555
C14 C11 1_555 1_555
H8 C14 1_555 1_555
C15 H9 1_555 1_555
C16 C15 1_555 1_555
H10 C16 1_555 1_555
C17 C16 1_555 1_555
C18 C17 1_555 1_555
H11 C18 1_555 1_555
C19 C18 1_555 1_555
H12 C19 1_555 1_555
C20 C17 1_555 1_555
C21 C23 1_555 1_555
C22 C28 1_555 1_555
C23 C24 1_555 1_555
C24 H13 1_555 1_555
C25 C24 1_555 1_555
H14 C25 1_555 1_555
C26 H15 1_555 1_555
C27 C23 1_555 1_555
H16 C27 1_555 1_555
C28 C29 1_555 1_555
C29 H17 1_555 1_555
C30 C29 1_555 1_555
H18 C30 1_555 1_555
C31 H19 1_555 1_555
C32 C28 1_555 1_555
H20 C32 1_555 1_555
C33 H21 1_555 1_555
C34 C9 1_555 1_555
H22 C34 1_555 1_555
C35 C10 1_555 1_555
H23 C35 1_555 1_555
C36 C14 1_555 1_555
H24 C36 1_555 1_555
C37 C38 1_555 1_555
C38 H25 1_555 1_555
C39 C38 1_555 1_555
H26 C39 1_555 1_555
C40 C39 1_555 1_555
H27 C40 1_555 1_555
C41 C40 1_555 1_555
C42 C37 1_555 1_555
C43 C42 1_555 1_555
C44 C43 1_555 1_555
H28 C44 1_555 1_555
C45 C44 1_555 1_555
H29 C45 1_555 1_555
C46 C41 1_555 1_555
H30 C46 1_555 1_555
C47 C37 1_555 1_555
C48 C47 1_555 1_555
H31 C48 1_555 1_555
C49 C48 1_555 1_555
H32 C49 1_555 1_555
C50 C49 1_555 1_555
H33 C50 1_555 1_555
C51 C50 1_555 1_555
C52 C47 1_555 1_555
C53 C43 1_555 1_555
C54 C53 1_555 1_555
H34 C54 1_555 1_555
C55 C54 1_555 1_555
H35 C55 1_555 1_555
C56 C51 1_555 1_555
H36 C56 1_555 1_555
I1 Zn2 1_555 1_555
I2 Zn2 1_555 1_555
I3 Zn3 1_555 1_555
I4 Zn3 1_555 1_555
I5 Zn1 1_555 1_555
I6 Zn1 1_555 1_555
N1 C1 1_555 1_555
N2 C6 1_555 1_555
N3 C7 1_555 1_555
N4 C6 1_555 1_555
N5 C15 1_555 1_555
N6 C20 1_555 1_555
N7 C21 1_555 1_555
N8 C20 1_555 1_555
N9 C25 1_555 1_555
N10 C30 1_555 1_555
N11 C13 1_555 1_555
N12 C33 1_555 1_555
Zn1 N9 1_555 1_555
Zn2 N1 1_555 1_555
Zn3 N11 1_555 1_555
C63 C64 1_555 1_555
C64 C65 1_555 1_555
C65 C66 1_555 1_555
C66 C67 1_555 1_555
C67 C68 1_555 1_555
C68 C63 1_555 1_555
C79 C80 1_555 1_555
C80 C81 1_555 1_555
C81 C82 1_555 1_555
C82 C83 1_555 1_555
C83 C84 1_555 1_555
C84 C79 1_555 1_555
N15 C79 1_555 1_555
O5 N15 1_555 1_555
O6 N15 1_555 1_555
N5G Zn2 1_555 1_555
N10A Zn3 1_555 1_555
Zn2G N5 1_555 1_555
Zn3A N10 1_555 1_555
C5 N1 1_555 1_555
C7 N2 1_555 1_555
C8 N3 1_555 1_555
C8 N4 1_555 1_555
C19 N5 1_555 1_555
C21 N8 1_555 1_555
C22 N6 1_555 1_555
C22 N7 1_555 1_555
C26 C27 1_555 1_555
C26 N9 1_555 1_555
C31 C32 1_555 1_555
C31 N10 1_555 1_555
C33 C34 1_555 1_555
C35 N12 1_555 1_555
C36 N11 1_555 1_555
C41 C42 1_555 1_555
C45 C46 1_555 1_555
C51 C52 1_555 1_555
C52 C53 1_555 1_555
C55 C56 1_555 1_555
N12 Zn1 1_555 1_555

#END
