
#######################################################################
#
#                 Cambridge Crystallographic Data Centre
#                                CCDC 
#
#######################################################################
#
# If this CIF has been generated from an entry in the Cambridge 
# Structural Database, then it will include bibliographic, chemical, 
# crystal, experimental, refinement or atomic coordinate data resulting 
# from the CCDC's data processing and validation procedures.
#
#######################################################################

data_FARFIO
_chemical_formula_moiety         '(C126 H108 I12 N24 Zn6)n'
_symmetry_cell_setting           monoclinic
_symmetry_space_group_name_H-M   'C 2/c'
_symmetry_Int_Tables_number      15
_space_group_name_Hall           '-C 2yc'
loop_
_symmetry_equiv_pos_site_id
_symmetry_equiv_pos_as_xyz
1 x,y,z
2 1/2+x,1/2+y,z
3 -x,y,1/2-z
4 1/2-x,1/2+y,1/2-z
5 -x,-y,-z
6 1/2-x,1/2-y,-z
7 x,-y,1/2+z
8 1/2+x,1/2-y,1/2+z
_cell_length_a                   35.3779(19)
_cell_length_b                   14.9202(8)
_cell_length_c                   31.2333(17)
_cell_angle_alpha                90
_cell_angle_beta                 103.5340(10)
_cell_angle_gamma                90
_cell_volume                     16028.5
loop_
_atom_site_label
_atom_site_type_symbol
_atom_site_fract_x
_atom_site_fract_y
_atom_site_fract_z
C1 C 0.0889(2) -0.0005(5) 0.0200(3)
H1 H 0.1095 -0.0413 0.0197
C2 C 0.0846(2) 0.0731(4) -0.0079(3)
H2 H 0.1016 0.0821 -0.0270
C3 C 0.05500(19) 0.1331(4) -0.0070(2)
C4 C 0.02999(19) 0.1143(4) 0.0199(2)
H3 H 0.0088 0.1531 0.0203
C5 C 0.0361(2) 0.0388(5) 0.0460(2)
H4 H 0.0186 0.0261 0.0641
C6 C 0.1139(3) 0.0379(4) 0.1492(3)
H5 H 0.0919 0.0665 0.1310
C7 C 0.1375(2) 0.0862(4) 0.1823(2)
H6 H 0.1319 0.1473 0.1866
C8 C 0.16921(19) 0.0455(4) 0.2094(2)
C9 C 0.1760(2) -0.0440(4) 0.2019(2)
H7 H 0.1973 -0.0747 0.2201
C10 C 0.1514(2) -0.0875(4) 0.1677(2)
H8 H 0.1565 -0.1486 0.1626
C11 C 0.19516(18) 0.0979(4) 0.24510(19)
C12 C 0.21112(18) 0.2286(4) 0.2801(2)
C13 C 0.24781(18) 0.1061(4) 0.3015(2)
C14 C 0.28000(18) 0.0602(4) 0.3324(2)
C15 C 0.3041(2) 0.1052(4) 0.3674(2)
H9 H 0.3014 0.1678 0.3713
C16 C 0.3320(2) 0.0570(4) 0.3964(2)
H10 H 0.3481 0.0876 0.4206
C17 C 0.31498(18) -0.0738(4) 0.3580(2)
H11 H 0.3190 -0.1361 0.3547
C18 C 0.28613(18) -0.0312(4) 0.3275(2)
H12 H 0.2707 -0.0635 0.3035
C19 C 0.20361(19) 0.3266(4) 0.2819(2)
C20 C 0.1710(2) 0.3632(4) 0.2548(2)
H13 H 0.1529 0.3260 0.2354
C21 C 0.1648(2) 0.4545(4) 0.2560(2)
H14 H 0.1420 0.4789 0.2373
C22 C 0.2208(2) 0.4747(4) 0.3084(2)
H15 H 0.2385 0.5137 0.3271
C23 C 0.2290(2) 0.3842(4) 0.3097(2)
H16 H 0.2517 0.3615 0.3293
C24 C 0.1527(2) 0.2909(4) -0.1383(2)
H17 H 0.1778 0.2646 -0.1323
C25 C 0.1291(2) 0.2751(4) -0.1097(2)
H18 H 0.1377 0.2369 -0.0849
C26 C 0.09307(19) 0.3153(4) -0.1172(2)
C27 C 0.0816(2) 0.3695(5) -0.1543(2)
H19 H 0.0571 0.3990 -0.1604
C28 C 0.1064(2) 0.3794(5) -0.1821(3)
H20 H 0.0980 0.4145 -0.2080
C29 C 0.06784(19) 0.3006(4) -0.0863(2)
C30 C 0.05069(18) 0.2167(4) -0.03395(19)
C31 C 0.01950(18) 0.3459(4) -0.0555(2)
C32 C -0.01230(19) 0.4091(4) -0.0533(2)
C33 C -0.0356(2) 0.3967(5) -0.0244(2)
H21 H -0.0309 0.3479 -0.0043
C34 C -0.0188(2) 0.4866(6) -0.0787(3)
H22 H -0.0021 0.5015 -0.0974
C35 C -0.0658(2) 0.4547(5) -0.0245(2)
H23 H -0.0815 0.4444 -0.0042
C36 C -0.0495(3) 0.5417(6) -0.0767(3)
H24 H -0.0534 0.5946 -0.0942
I1 I 0.02464(2) -0.15068(5) 0.127686(19)
I2 I 0.11966(3) -0.22980(3) 0.06068(2)
I3 I 0.13088(2) 0.67752(4) 0.20524(2)
I4 I 0.23759(2) 0.73537(3) 0.30801(2)
I5 I 0.387427(19) -0.24961(3) 0.40992(2)
I6 I 0.350670(17) -0.07454(4) 0.511017(18)
N1 N 0.06581(18) -0.0173(4) 0.04696(18)
N2 N 0.12096(18) -0.0483(3) 0.14150(18)
N3 N 0.18562(15) 0.1831(3) 0.24955(17)
N4 N 0.24234(15) 0.1943(3) 0.30768(16)
N5 N 0.22578(15) 0.0558(3) 0.26975(16)
N6 N 0.18916(17) 0.5098(3) 0.28233(19)
N7 N 0.33749(15) -0.0309(3) 0.39215(17)
N8 N 0.14152(19) 0.3418(4) -0.1742(2)
N9 N 0.07416(15) 0.2264(3) -0.06142(17)
N10 N 0.02381(15) 0.2755(3) -0.02843(16)
N11 N 0.04013(15) 0.3613(3) -0.08564(17)
N12 N -0.07400(16) 0.5241(4) -0.05141(18)
Zn1 Zn 0.08106(3) -0.11829(5) 0.09358(3)
Zn2 Zn 0.17572(3) 0.64553(5) 0.28014(3)
Zn3 Zn 0.37580(2) -0.09831(5) 0.44197(3)
C1F C 0.0889(2) 1.0005(5) 0.5200(3)
H1F H 0.1095 1.0413 0.5197
C2F C 0.0846(2) 0.9269(4) 0.4921(3)
H2F H 0.1016 0.9179 0.4730
C3F C 0.05500(19) 0.8669(4) 0.4930(2)
C4F C 0.02999(19) 0.8857(4) 0.5199(2)
H3F H 0.0088 0.8469 0.5203
C5F C 0.0361(2) 0.9612(5) 0.5460(2)
H4F H 0.0186 0.9739 0.5641
C6F C 0.1139(3) 0.9621(4) -0.3508(3)
H5F H 0.0919 0.9335 -0.3690
C7F C 0.1375(2) 0.9138(4) -0.3177(2)
H6F H 0.1319 0.8527 -0.3134
C8F C 0.16921(19) 0.9545(4) -0.2906(2)
C9F C 0.1760(2) 1.0440(4) -0.2981(2)
H7F H 0.1973 1.0747 -0.2799
C10F C 0.1514(2) 1.0875(4) -0.3323(2)
H8F H 0.1565 1.1486 -0.3374
C11F C 0.19516(18) 0.9021(4) -0.25490(19)
C12F C 0.21112(18) 0.7714(4) -0.2199(2)
C13F C 0.24781(18) 0.8939(4) -0.1985(2)
C14F C 0.28000(18) 0.9398(4) -0.1676(2)
C15F C 0.3041(2) 0.8948(4) -0.1326(2)
H9F H 0.3014 0.8322 -0.1287
C16F C 0.3320(2) 0.9430(4) -0.1036(2)
H10F H 0.3481 0.9124 -0.0794
C17F C 0.31498(18) 1.0738(4) -0.1420(2)
H11F H 0.3190 1.1361 -0.1453
C18F C 0.28613(18) 1.0312(4) -0.1725(2)
H12F H 0.2707 1.0635 -0.1965
C19F C 0.20361(19) 0.6734(4) -0.2181(2)
C20F C 0.1710(2) 0.6368(4) -0.2452(2)
H13F H 0.1529 0.6740 -0.2646
C21F C 0.1648(2) 0.5455(4) -0.2440(2)
H14F H 0.1420 0.5211 -0.2627
C22F C 0.2208(2) 0.5253(4) -0.1916(2)
H15F H 0.2385 0.4863 -0.1729
C23F C 0.2290(2) 0.6158(4) -0.1903(2)
H16F H 0.2517 0.6385 -0.1707
C24F C 0.1527(2) 0.7091(4) 0.3617(2)
H17F H 0.1778 0.7354 0.3677
C25F C 0.1291(2) 0.7249(4) 0.3903(2)
H18F H 0.1377 0.7631 0.4151
C26F C 0.09307(19) 0.6847(4) 0.3828(2)
C27F C 0.0816(2) 0.6305(5) 0.3457(2)
H19F H 0.0571 0.6010 0.3396
C28F C 0.1064(2) 0.6206(5) 0.3179(3)
H20F H 0.0980 0.5855 0.2920
C29F C 0.06784(19) 0.6994(4) 0.4137(2)
C30F C 0.05069(18) 0.7833(4) 0.46605(19)
C31F C 0.01950(18) 0.6541(4) 0.4445(2)
C32F C -0.01230(19) 0.5909(4) 0.4467(2)
C33F C -0.0356(2) 0.6033(5) 0.4756(2)
H21F H -0.0309 0.6521 0.4957
C34F C -0.0188(2) 0.5134(6) 0.4213(3)
H22F H -0.0021 0.4985 0.4026
C35F C -0.0658(2) 0.5453(5) 0.4755(2)
H23F H -0.0815 0.5556 0.4958
C36F C -0.0495(3) 0.4583(6) 0.4233(3)
H24F H -0.0534 0.4054 0.4058
I1F I 0.02464(2) 1.15068(5) 0.627686(19)
I2F I 0.11966(3) 1.22980(3) 0.56068(2)
I3F I 0.13088(2) 0.32248(4) -0.29476(2)
I4F I 0.23759(2) 0.26463(3) -0.19199(2)
I5G I -0.112573(19) 0.74961(3) -0.09008(2)
I6G I -0.149330(17) 0.57454(4) 0.011017(18)
N1F N 0.06581(18) 1.0173(4) 0.54696(18)
N2F N 0.12096(18) 1.0483(3) -0.35850(18)
N2F_2 N 0.12096(18) 1.0483(3) 0.64150(18)
N3F N 0.18562(15) 0.8169(3) -0.25045(17)
N4F N 0.24234(15) 0.8057(3) -0.19232(16)
N5F N 0.22578(15) 0.9442(3) -0.23025(16)
N6F N 0.18916(17) 0.4902(3) -0.21767(19)
N7F N 0.33749(15) 1.0309(3) -0.10785(17)
N7G N -0.16251(15) 0.5309(3) -0.10785(17)
N8F N 0.14152(19) 0.6582(4) 0.3258(2)
N9F N 0.07416(15) 0.7736(3) 0.43858(17)
N10F N 0.02381(15) 0.7245(3) 0.47157(16)
N11F N 0.04013(15) 0.6387(3) 0.41436(17)
N12F N -0.07400(16) 0.4759(4) 0.44859(18)
N12G N 0.42600(16) -0.0241(4) 0.44859(18)
Zn1F Zn 0.08106(3) 1.11829(5) 0.59358(3)
Zn1F_2 Zn 0.08106(3) 1.11829(5) -0.40642(3)
Zn2F Zn 0.17572(3) 0.35447(5) -0.21986(3)
Zn3G Zn -0.12420(2) 0.59831(5) -0.05803(3)
Zn3A Zn -0.12420(2) 0.40169(5) 0.44197(3)
Zn3F Zn 0.37580(2) 1.09831(5) -0.05803(3)
C37 C 0.1996(5) 0.2775(11) 0.4025(5)
C38 C 0.1873(6) 0.3677(12) 0.3999(6)
H25 H 0.2029 0.4098 0.4191
C39 C 0.1538(6) 0.3987(14) 0.3710(7)
H26 H 0.1454 0.4590 0.3720
C40 C 0.1330(8) 0.3375(14) 0.3404(10)
H27 H 0.1116 0.3578 0.3182
C41 C 0.1432(6) 0.2480(12) 0.3422(6)
H28 H 0.1275 0.2063 0.3229
C42 C 0.1771(6) 0.2180(12) 0.3729(7)
C43 C 0.1885(11) 0.1201(15) 0.3756(12)
C44 C 0.1666(7) 0.0580(14) 0.3458(8)
H29 H 0.1447 0.0777 0.3242
C45 C 0.1770(7) -0.0308(14) 0.3480(7)
H30 H 0.1616 -0.0724 0.3283
C46 C 0.2101(9) -0.0612(15) 0.3787(12)
H31 H 0.2182 -0.1220 0.3791
C47 C 0.2313(8) 0.0026(11) 0.4094(8)
H32 H 0.2531 -0.0159 0.4316
C48 C 0.2197(6) 0.0910(11) 0.4065(8)
C49 C 0.2451(6) 0.1599(11) 0.4364(6)
C50 C 0.2794(5) 0.1311(13) 0.4673(6)
H33 H 0.2853 0.0690 0.4705
C51 C 0.3035(6) 0.1913(15) 0.4919(7)
H34 H 0.3269 0.1716 0.5113
C52 C 0.2941(6) 0.2837(16) 0.4891(7)
H35 H 0.3106 0.3265 0.5067
C53 C 0.2607(6) 0.3092(14) 0.4602(7)
H36 H 0.2543 0.3711 0.4580
C54 C 0.2352(5) 0.2482(12) 0.4334(6)
C73 C 0.0281(3) 0.4597(7) 0.2239(3)
C74 C 0.0573(3) 0.4585(8) 0.1998(3)
H49 H 0.0665 0.5134 0.1907
C75 C 0.0728(4) 0.3773(9) 0.1893(4)
H50 H 0.0928 0.3776 0.1735
C76 C 0.0593(5) 0.2976(11) 0.2016(6)
H51 H 0.0698 0.2426 0.1942
C77 C 0.0310(5) 0.2969(9) 0.2245(6)
H52 H 0.0215 0.2412 0.2323
C78 C 0.0153(3) 0.3782(7) 0.2368(5)
C79 C 0.0135(3) 0.5448(6) 0.2361(3)
C80 C 0.0240(3) 0.6281(7) 0.2214(3)
H53 H 0.0402 0.6292 0.2011
C81 C 0.0120(4) 0.7068(7) 0.2351(4)
H54 H 0.0197 0.7618 0.2244
C73B C -0.0281(3) 0.4597(7) 0.2761(3)
C74B C -0.0573(3) 0.4585(8) 0.3002(3)
H49B H -0.0665 0.5134 0.3093
C75B C -0.0728(4) 0.3773(9) 0.3107(4)
H50B H -0.0928 0.3776 0.3265
C76B C -0.0593(5) 0.2976(11) 0.2984(6)
H51B H -0.0698 0.2426 0.3058
C77B C -0.0310(5) 0.2969(9) 0.2755(6)
H52B H -0.0215 0.2412 0.2677
C78B C -0.0153(3) 0.3782(7) 0.2632(5)
C79B C -0.0135(3) 0.5448(6) 0.2639(3)
C80B C -0.0240(3) 0.6281(7) 0.2786(3)
H53B H -0.0402 0.6292 0.2989
C81B C -0.0120(4) 0.7068(7) 0.2649(4)
H54B H -0.0197 0.7618 0.2756
C82 C 0.2446(6) 0.5844(15) 0.4248(7)
H55 H 0.2277 0.5851 0.3946
H56 H 0.2303 0.5580 0.4455
C83 C 0.2864(6) 0.5343(14) 0.4271(6)
H57 H 0.2825 0.4734 0.4143
H58 H 0.3027 0.5694 0.4113
C84 C 0.3060(6) 0.5305(13) 0.4799(6)
H59 H 0.2885 0.4977 0.4949
H60 H 0.3309 0.4973 0.4850
C85 C 0.3128(7) 0.6167(18) 0.4981(8)
H61 H 0.3338 0.6453 0.4867
H62 H 0.3220 0.6114 0.5304
C86 C 0.2793(8) 0.6734(18) 0.4883(8)
H63 H 0.2868 0.7346 0.4994
H64 H 0.2598 0.6506 0.5038
C87 C 0.2614(7) 0.6776(15) 0.4397(8)
H65 H 0.2813 0.6943 0.4235
H66 H 0.2405 0.7232 0.4335
C88 C 0.0350(8) 0.0530(15) 0.2710(8)
H68 H 0.0563 0.0956 0.2830
C89 C 0.0284(7) -0.0123(18) 0.3083(8)
H69 H 0.0056 -0.0511 0.2969
H70 H 0.0235 0.0226 0.3334
C90 C 0.0667(7) -0.0728(16) 0.3243(7)
H71 H 0.0888 -0.0339 0.3385
H72 H 0.0624 -0.1164 0.3466
C91 C 0.0765(6) -0.1197(13) 0.2891(6)
H73 H 0.0562 -0.1650 0.2779
H74 H 0.1013 -0.1518 0.3003
C92 C 0.0803(7) -0.0621(16) 0.2534(7)
H75 H 0.0850 -0.0996 0.2291
H76 H 0.1033 -0.0233 0.2636
C93 C 0.0453(8) -0.0036(19) 0.2360(8)
H77 H 0.0506 0.0357 0.2126
H78 H 0.0228 -0.0421 0.2227
C94 C 0.0180(4) 0.2834(10) 0.4021(5)
H79 H -0.0018 0.3205 0.3821
H80 H 0.0122 0.2849 0.4316
C95 C 0.0149(5) 0.1840(11) 0.3848(6)
H81 H 0.0152 0.1830 0.3532
H82 H -0.0098 0.1569 0.3881
C96 C 0.0513(6) 0.1277(13) 0.4129(7)
H83 H 0.0461 0.1136 0.4420
H84 H 0.0528 0.0701 0.3977
C97 C 0.0869(4) 0.1693(10) 0.4196(5)
H85 H 0.0969 0.1606 0.3928
H86 H 0.1050 0.1380 0.4441
C98 C 0.0885(5) 0.2630(12) 0.4296(7)
H87 H 0.1133 0.2866 0.4247
H88 H 0.0894 0.2695 0.4613
C99 C 0.0564(5) 0.3220(11) 0.4048(6)
H89 H 0.0580 0.3810 0.4196
H90 H 0.0600 0.3318 0.3747
loop_
_geom_bond_atom_site_label_1
_geom_bond_atom_site_label_2
_geom_bond_site_symmetry_1
_geom_bond_site_symmetry_2
C1 H1 1_555 1_555
C2 C1 1_555 1_555
H2 C2 1_555 1_555
C3 C2 1_555 1_555
C4 C3 1_555 1_555
H3 C4 1_555 1_555
C5 C4 1_555 1_555
H4 C5 1_555 1_555
C6 H5 1_555 1_555
C7 C6 1_555 1_555
H6 C7 1_555 1_555
C8 C7 1_555 1_555
C9 C8 1_555 1_555
H7 C9 1_555 1_555
C10 C9 1_555 1_555
H8 C10 1_555 1_555
C11 C8 1_555 1_555
C12 C19 1_555 1_555
C13 C14 1_555 1_555
C14 C15 1_555 1_555
C15 H9 1_555 1_555
C16 C15 1_555 1_555
H10 C16 1_555 1_555
C17 H11 1_555 1_555
C18 C14 1_555 1_555
H12 C18 1_555 1_555
C19 C20 1_555 1_555
C20 H13 1_555 1_555
C21 C20 1_555 1_555
H14 C21 1_555 1_555
C22 H15 1_555 1_555
C23 C19 1_555 1_555
H16 C23 1_555 1_555
C24 H17 1_555 1_555
C25 C24 1_555 1_555
H18 C25 1_555 1_555
C26 C25 1_555 1_555
C27 C26 1_555 1_555
H19 C27 1_555 1_555
C28 C27 1_555 1_555
H20 C28 1_555 1_555
C29 C26 1_555 1_555
C30 C3 1_555 1_555
C31 C32 1_555 1_555
C32 C33 1_555 1_555
C33 H21 1_555 1_555
C34 C32 1_555 1_555
H22 C34 1_555 1_555
C35 C33 1_555 1_555
H23 C35 1_555 1_555
C36 C34 1_555 1_555
H24 C36 1_555 1_555
C37 C38 1_555 1_555
C38 H25 1_555 1_555
C39 C38 1_555 1_555
H26 C39 1_555 1_555
C40 C39 1_555 1_555
H27 C40 1_555 1_555
C41 C40 1_555 1_555
H28 C41 1_555 1_555
C42 C37 1_555 1_555
C43 C42 1_555 1_555
C44 C43 1_555 1_555
H29 C44 1_555 1_555
C45 C44 1_555 1_555
H30 C45 1_555 1_555
C46 C45 1_555 1_555
H31 C46 1_555 1_555
C47 C46 1_555 1_555
H32 C47 1_555 1_555
C48 C43 1_555 1_555
C49 C48 1_555 1_555
C50 C49 1_555 1_555
H33 C50 1_555 1_555
C51 C50 1_555 1_555
H34 C51 1_555 1_555
C52 C51 1_555 1_555
H35 C52 1_555 1_555
C53 C52 1_555 1_555
H36 C53 1_555 1_555
C54 C37 1_555 1_555
C73 C74 1_555 1_555
C74 H49 1_555 1_555
C75 C74 1_555 1_555
H50 C75 1_555 1_555
C76 C75 1_555 1_555
H51 C76 1_555 1_555
C77 C76 1_555 1_555
H52 C77 1_555 1_555
C78 C73 1_555 1_555
C79 C73 1_555 1_555
C80 C79 1_555 1_555
H53 C80 1_555 1_555
C81 C80 1_555 1_555
H54 C81 1_555 1_555
C82 H55 1_555 1_555
H56 C82 1_555 1_555
C83 C82 1_555 1_555
H57 C83 1_555 1_555
H58 C83 1_555 1_555
C84 C83 1_555 1_555
H59 C84 1_555 1_555
H60 C84 1_555 1_555
C85 C84 1_555 1_555
H61 C85 1_555 1_555
H62 C85 1_555 1_555
C86 C85 1_555 1_555
H63 C86 1_555 1_555
H64 C86 1_555 1_555
C87 C82 1_555 1_555
H65 C87 1_555 1_555
H66 C87 1_555 1_555
C88 H68 1_555 1_555
C89 C88 1_555 1_555
H69 C89 1_555 1_555
H70 C89 1_555 1_555
C90 C89 1_555 1_555
H71 C90 1_555 1_555
H72 C90 1_555 1_555
C91 C90 1_555 1_555
H73 C91 1_555 1_555
H74 C91 1_555 1_555
C92 C91 1_555 1_555
H75 C92 1_555 1_555
H76 C92 1_555 1_555
C93 C88 1_555 1_555
H77 C93 1_555 1_555
H78 C93 1_555 1_555
C94 H79 1_555 1_555
H80 C94 1_555 1_555
C95 C94 1_555 1_555
H81 C95 1_555 1_555
H82 C95 1_555 1_555
C96 C95 1_555 1_555
H83 C96 1_555 1_555
H84 C96 1_555 1_555
C97 C96 1_555 1_555
H85 C97 1_555 1_555
H86 C97 1_555 1_555
C98 C97 1_555 1_555
H87 C98 1_555 1_555
H88 C98 1_555 1_555
C99 C94 1_555 1_555
H89 C99 1_555 1_555
H90 C99 1_555 1_555
I1 Zn1 1_555 1_555
I2 Zn1 1_555 1_555
I3 Zn2 1_555 1_555
I4 Zn2 1_555 1_555
I5 Zn3 1_555 1_555
I6 Zn3 1_555 1_555
N1 C1 1_555 1_555
N2 C6 1_555 1_555
N3 C11 1_555 1_555
N4 C12 1_555 1_555
N5 C11 1_555 1_555
N6 C21 1_555 1_555
N7 C16 1_555 1_555
N8 C24 1_555 1_555
N9 C29 1_555 1_555
N10 C30 1_555 1_555
N11 C29 1_555 1_555
N12 C35 1_555 1_555
Zn1 N1 1_555 1_555
Zn2 N6 1_555 1_555
Zn3 N7 1_555 1_555
C1F H1F 1_555 1_555
C2F C1F 1_555 1_555
H2F C2F 1_555 1_555
C3F C2F 1_555 1_555
C4F C3F 1_555 1_555
H3F C4F 1_555 1_555
C5F C4F 1_555 1_555
H4F C5F 1_555 1_555
C6F H5F 1_555 1_555
C7F C6F 1_555 1_555
H6F C7F 1_555 1_555
C8F C7F 1_555 1_555
C9F C8F 1_555 1_555
H7F C9F 1_555 1_555
C10F C9F 1_555 1_555
H8F C10F 1_555 1_555
C11F C8F 1_555 1_555
C12F C19F 1_555 1_555
C13F C14F 1_555 1_555
C14F C15F 1_555 1_555
C15F H9F 1_555 1_555
C16F C15F 1_555 1_555
H10F C16F 1_555 1_555
C17F H11F 1_555 1_555
C18F C14F 1_555 1_555
H12F C18F 1_555 1_555
C19F C20F 1_555 1_555
C20F H13F 1_555 1_555
C21F C20F 1_555 1_555
H14F C21F 1_555 1_555
C22F H15F 1_555 1_555
C23F C19F 1_555 1_555
H16F C23F 1_555 1_555
C24F H17F 1_555 1_555
C25F C24F 1_555 1_555
H18F C25F 1_555 1_555
C26F C25F 1_555 1_555
C27F C26F 1_555 1_555
H19F C27F 1_555 1_555
C28F C27F 1_555 1_555
H20F C28F 1_555 1_555
C29F C26F 1_555 1_555
C30F C3F 1_555 1_555
C31F C32F 1_555 1_555
C32F C33F 1_555 1_555
C33F H21F 1_555 1_555
C34F C32F 1_555 1_555
H22F C34F 1_555 1_555
C35F C33F 1_555 1_555
H23F C35F 1_555 1_555
C36F C34F 1_555 1_555
H24F C36F 1_555 1_555
C73B C74B 1_555 1_555
C74B H49B 1_555 1_555
C75B C74B 1_555 1_555
H50B C75B 1_555 1_555
C76B C75B 1_555 1_555
H51B C76B 1_555 1_555
C77B C76B 1_555 1_555
H52B C77B 1_555 1_555
C78B C78 1_555 1_555
C79B C79 1_555 1_555
C80B C79B 1_555 1_555
H53B C80B 1_555 1_555
C81B C81 1_555 1_555
H54B C81B 1_555 1_555
I1F Zn1F 1_555 1_555
I2F Zn1F 1_555 1_555
I3F Zn2F 1_555 1_555
I4F Zn2F 1_555 1_555
I5G Zn3G 1_555 1_555
I6G Zn3G 1_555 1_555
N1F C1F 1_555 1_555
N2F C6F 1_555 1_555
N2F_2 Zn1F 1_555 1_555
N3F C11F 1_555 1_555
N4F C12F 1_555 1_555
N5F C11F 1_555 1_555
N6F C21F 1_555 1_555
N7F C16F 1_555 1_555
N7G Zn3G 1_555 1_555
N8F Zn2 1_555 1_555
N9F C29F 1_555 1_555
N10F C30F 1_555 1_555
N11F C29F 1_555 1_555
N12F C35F 1_555 1_555
N12G Zn3 1_555 1_555
Zn1F N1F 1_555 1_555
Zn1F_2 N2F 1_555 1_555
Zn2F N8 1_555 1_555
Zn3G N12 1_555 1_555
Zn3A N12F 1_555 1_555
Zn3F N7F 1_555 1_555
C5 N1 1_555 1_555
C10 N2 1_555 1_555
C12 N3 1_555 1_555
C13 N4 1_555 1_555
C13 N5 1_555 1_555
C17 C18 1_555 1_555
C17 N7 1_555 1_555
C22 C23 1_555 1_555
C22 N6 1_555 1_555
C28 N8 1_555 1_555
C30 N9 1_555 1_555
C31 N10 1_555 1_555
C31 N11 1_555 1_555
C36 N12 1_555 1_555
C41 C42 1_555 1_555
C47 C48 1_555 1_555
C49 C54 1_555 1_555
C53 C54 1_555 1_555
C77 C78 1_555 1_555
C86 C87 1_555 1_555
C92 C93 1_555 1_555
C98 C99 1_555 1_555
N2 Zn1 1_555 1_555
C5F N1F 1_555 1_555
C10F N2F 1_555 1_555
C12F N3F 1_555 1_555
C13F N4F 1_555 1_555
C13F N5F 1_555 1_555
C17F C18F 1_555 1_555
C17F N7F 1_555 1_555
C22F C23F 1_555 1_555
C22F N6F 1_555 1_555
C24F N8F 1_555 1_555
C28F N8F 1_555 1_555
C30F N9F 1_555 1_555
C31F N10F 1_555 1_555
C31F N11F 1_555 1_555
C36F N12F 1_555 1_555
C73B C78B 1_555 1_555
C73B C79B 1_555 1_555
C77B C78B 1_555 1_555
C80B C81B 1_555 1_555
N6F Zn2F 1_555 1_555

#END
