
#######################################################################
#
#                 Cambridge Crystallographic Data Centre
#                                CCDC 
#
#######################################################################
#
# If this CIF has been generated from an entry in the Cambridge 
# Structural Database, then it will include bibliographic, chemical, 
# crystal, experimental, refinement or atomic coordinate data resulting 
# from the CCDC's data processing and validation procedures.
#
#######################################################################

data_FARFOU
_chemical_formula_moiety         '(C68 H70 I6 N12 Zn3)n'
_symmetry_cell_setting           monoclinic
_symmetry_space_group_name_H-M   'C 2/c'
_symmetry_Int_Tables_number      15
_space_group_name_Hall           '-C 2yc'
loop_
_symmetry_equiv_pos_site_id
_symmetry_equiv_pos_as_xyz
1 x,y,z
2 1/2+x,1/2+y,z
3 -x,y,1/2-z
4 1/2-x,1/2+y,1/2-z
5 -x,-y,-z
6 1/2-x,1/2-y,-z
7 x,-y,1/2+z
8 1/2+x,1/2-y,1/2+z
_cell_length_a                   35.318(3)
_cell_length_b                   14.8209(12)
_cell_length_c                   31.354(3)
_cell_angle_alpha                90
_cell_angle_beta                 102.8840(10)
_cell_angle_gamma                90
_cell_volume                     15998.9
loop_
_atom_site_label
_atom_site_type_symbol
_atom_site_fract_x
_atom_site_fract_y
_atom_site_fract_z
_atom_site_U_iso_or_equiv
_atom_site_thermal_displace_type
C1 C 0.4408(7) 1.0063(16) 0.4079(5) 0.1031 Uani
H1 H 0.4292 1.0400 0.3826 0.1240 Uiso
C2 C 0.4721(7) 0.9582(16) 0.4069(6) 0.1060 Uani
H2 H 0.4838 0.9626 0.3825 0.1270 Uiso
C3 C 0.4879(3) 0.9005(8) 0.4418(4) 0.0354 Uani
C4 C 0.4697(4) 0.9005(10) 0.4756(5) 0.0529 Uani
H3 H 0.4786 0.8618 0.5000 0.0630 Uiso
C5 C 0.4380(4) 0.9572(9) 0.4746(5) 0.0487 Uani
H4 H 0.4260 0.9564 0.4989 0.0590 Uiso
C6 C 0.3260(4) 0.9451(9) 0.3996(4) 0.0479 Uani
H5 H 0.3411 0.9140 0.4240 0.0570 Uiso
C7 C 0.2962(4) 0.8985(8) 0.3716(4) 0.0425 Uani
H6 H 0.2909 0.8371 0.3768 0.0510 Uiso
C8 C 0.2746(3) 0.9443(7) 0.3360(4) 0.0330 Uani
C9 C 0.2834(4) 1.0335(8) 0.3302(4) 0.0452 Uani
H7 H 0.2690 1.0664 0.3059 0.0540 Uiso
C10 C 0.3133(4) 1.0746(8) 0.3599(4) 0.0468 Uani
H8 H 0.3189 1.1362 0.3557 0.0560 Uiso
C11 C 0.2428(3) 0.8999(7) 0.3042(4) 0.0342 Uani
C12 C 0.2065(3) 0.7777(7) 0.2802(4) 0.0340 Uani
C13 C 0.1932(3) 0.9103(7) 0.2453(4) 0.0343 Uani
C14 C 0.1987(4) 0.6800(7) 0.2814(4) 0.0386 Uani
C15 C 0.2224(4) 0.6199(7) 0.3070(4) 0.0396 Uani
H9 H 0.2444 0.6407 0.3279 0.0470 Uiso
C16 C 0.2146(4) 0.5282(8) 0.3028(5) 0.0466 Uani
H10 H 0.2324 0.4873 0.3201 0.0560 Uiso
C17 C 0.1598(4) 0.5517(9) 0.2509(5) 0.0574 Uani
H11 H 0.1377 0.5281 0.2309 0.0690 Uiso
C18 C 0.1655(4) 0.6451(8) 0.2524(5) 0.0554 Uani
H12 H 0.1474 0.6842 0.2342 0.0670 Uiso
C19 C 0.6501(4) 0.7854(11) 0.3501(6) 0.0610 Uani
H13 H 0.6743 0.7549 0.3537 0.0730 Uiso
C20 C 0.6272(4) 0.7716(11) 0.3803(6) 0.0600 Uani
H14 H 0.6361 0.7329 0.4046 0.0720 Uiso
C21 C 0.5803(5) 0.8693(12) 0.3405(6) 0.0678 Uani
H15 H 0.5561 0.8998 0.3361 0.0820 Uiso
C22 C 0.6053(5) 0.8797(12) 0.3117(7) 0.0687 Uani
H16 H 0.5970 0.9182 0.2872 0.0820 Uiso
C23 C 0.1709(3) 0.9627(7) 0.2080(4) 0.0331 Uani
C24 C 0.1404(4) 0.9195(7) 0.1798(5) 0.0524 Uani
H17 H 0.1341 0.8583 0.1840 0.0630 Uiso
C25 C 0.1194(5) 0.9698(9) 0.1451(5) 0.0643 Uani
H18 H 0.0987 0.9406 0.1254 0.0770 Uiso
C26 C 0.1557(4) 1.0958(7) 0.1653(4) 0.0387 Uani
H19 H 0.1612 1.1573 0.1607 0.0470 Uiso
C27 C 0.1785(4) 1.0509(7) 0.2004(4) 0.0394 Uani
H20 H 0.1994 1.0813 0.2192 0.0470 Uiso
C28 C 0.5978(6) 0.5058(12) 0.5216(6) 0.0747 Uani
H21 H 0.6203 0.4692 0.5239 0.0890 Uiso
C29 C 0.5934(6) 0.5800(11) 0.4936(6) 0.0671 Uani
H22 H 0.6119 0.5937 0.4769 0.0800 Uiso
C30 C 0.5611(4) 0.6321(8) 0.4914(4) 0.0397 Uani
C31 C 0.5345(4) 0.6101(9) 0.5162(4) 0.0474 Uani
H23 H 0.5121 0.6462 0.5151 0.0570 Uiso
C32 C 0.5412(4) 0.5343(8) 0.5425(5) 0.0517 Uani
H24 H 0.5228 0.5186 0.5592 0.0620 Uiso
C33 C 0.5548(3) 0.7152(7) 0.4622(4) 0.0333 Uani
C34 C 0.5681(3) 0.7980(8) 0.4079(4) 0.0356 Uani
C35 C 0.5211(3) 0.8408(8) 0.4401(4) 0.0378 Uani
C36 C 0.5930(4) 0.8120(8) 0.3756(4) 0.0405 Uani
I1 I 0.35735(3) 1.08424(9) 0.51218(3) 0.0655 Uani
I2 I 0.39338(3) 1.23949(6) 0.40428(4) 0.0715 Uani
I3 I 0.12669(3) 0.33728(7) 0.19326(4) 0.0610 Uani
I4 I 0.23198(3) 0.26502(6) 0.29366(4) 0.0617 Uani
I5 I 0.02778(4) 1.14577(8) 0.12521(4) 0.0790 Uani
I6 I 0.12163(6) 1.23558(8) 0.05374(5) 0.1050 Uani
N1 N 0.4243(3) 1.0105(7) 0.4425(3) 0.0414 Uani
N2 N 0.3341(3) 1.0314(6) 0.3936(3) 0.0335 Uani
N3 N 0.2232(3) 0.9508(6) 0.2718(3) 0.0357 Uani
N4 N 0.1829(3) 0.8245(6) 0.2488(3) 0.0358 Uani
N5 N 0.2363(3) 0.8113(6) 0.3101(3) 0.0342 Uani
N6 N 0.1260(3) 1.0557(7) 0.1374(3) 0.0469 Uani
N7 N 0.1834(3) 0.4951(7) 0.2758(4) 0.0454 Uani
N8 N 0.6386(3) 0.8411(7) 0.3160(4) 0.0467 Uani
N9 N 0.5720(4) 0.4833(8) 0.5455(4) 0.0575 Uani
N10 N 0.5766(3) 0.7247(6) 0.4344(3) 0.0341 Uani
N11 N 0.5406(3) 0.8540(7) 0.4091(4) 0.0400 Uani
N12 N 0.5271(3) 0.7725(7) 0.4688(3) 0.0370 Uani
Zn1 Zn 0.37724(4) 1.09428(9) 0.43966(5) 0.0417 Uani
Zn2 Zn 0.17078(5) 0.35815(9) 0.26879(6) 0.0472 Uani
Zn3 Zn 0.08590(6) 1.12243(10) 0.08980(5) 0.0617 Uani
N8A N 0.1386(3) 0.3411(7) 0.3160(4) 0.0467 Uani
N9G N 0.0720(4) 1.0167(8) 0.0455(4) 0.0575 Uani
Zn2A Zn 0.67078(5) 0.85815(9) 0.26879(6) 0.0472 Uani
Zn3G Zn 0.58590(6) 0.37757(10) 0.58980(5) 0.0617 Uani
C37 C 0.1482(15) 0.589(4) 0.3834(18) 0.1170 Uiso
H25 H 0.1488 0.5276 0.3928 0.1410 Uiso
C38 C 0.1696(14) 0.654(3) 0.3996(15) 0.1170 Uiso
H26 H 0.1861 0.6255 0.4239 0.1410 Uiso
C39 C 0.1819(13) 0.726(4) 0.4037(15) 0.1170 Uiso
C40 C 0.2067(15) 0.801(3) 0.4169(17) 0.1170 Uiso
H27 H 0.2302 0.7754 0.4329 0.1410 Uiso
C41 C 0.2131(17) 0.886(4) 0.4180(19) 0.1170 Uiso
C42 C 0.2417(17) 0.932(4) 0.443(2) 0.1170 Uiso
H28 H 0.2614 0.9040 0.4647 0.1410 Uiso
C43 C 0.2405(19) 1.030(4) 0.436(2) 0.1170 Uiso
H29 H 0.2563 1.0679 0.4571 0.1410 Uiso
C44 C 0.2200(18) 1.066(4) 0.403(2) 0.1170 Uiso
H30 H 0.2245 1.1272 0.3962 0.1410 Uiso
C45 C 0.1908(18) 1.018(4) 0.377(2) 0.1170 Uiso
H31 H 0.1722 1.0490 0.3554 0.1410 Uiso
C46 C 0.1874(17) 0.923(3) 0.3803(19) 0.1170 Uiso
C47 C 0.1616(17) 0.864(4) 0.3542(19) 0.1170 Uiso
H32 H 0.1446 0.8903 0.3295 0.1410 Uiso
C48 C 0.1576(17) 0.774(4) 0.3594(19) 0.1170 Uiso
C49 C 0.1268(18) 0.723(4) 0.338(2) 0.1170 Uiso
H33 H 0.1079 0.7520 0.3157 0.1410 Uiso
C50 C 0.1212(19) 0.634(4) 0.345(2) 0.1170 Uiso
H34 H 0.1009 0.6011 0.3263 0.1410 Uiso
C79 C 0.100(2) 1.055(7) 0.259(3) 0.2000 Uiso
H55 H 0.1224 1.0511 0.2837 0.2360 Uiso
H56 H 0.1092 1.0742 0.2327 0.2360 Uiso
C80 C 0.081(3) 0.963(6) 0.250(3) 0.2000 Uiso
H57 H 0.0979 0.9169 0.2684 0.2360 Uiso
H58 H 0.0780 0.9464 0.2191 0.2360 Uiso
C81 C 0.041(2) 0.970(6) 0.263(3) 0.2000 Uiso
H59 H 0.0236 1.0057 0.2400 0.2360 Uiso
H60 H 0.0300 0.9087 0.2623 0.2360 Uiso
C82 C 0.040(3) 1.011(6) 0.306(3) 0.2000 Uiso
H61 H 0.0127 1.0128 0.3099 0.2360 Uiso
H62 H 0.0554 0.9741 0.3301 0.2360 Uiso
C83 C 0.055(3) 1.101(6) 0.309(3) 0.2000 Uiso
H63 H 0.0750 1.1074 0.3362 0.2360 Uiso
H64 H 0.0340 1.1441 0.3092 0.2360 Uiso
C84 C 0.074(3) 1.123(5) 0.268(3) 0.2000 Uiso
H65 H 0.0532 1.1330 0.2419 0.2360 Uiso
H66 H 0.0889 1.1806 0.2744 0.2360 Uiso
C85 C 0.2953(13) 0.452(3) 0.4176(16) 0.2300 Uiso
H67 H 0.2941 0.4375 0.3865 0.2780 Uiso
H68 H 0.3150 0.4996 0.4267 0.2780 Uiso
C86 C 0.2562(10) 0.486(2) 0.4224(12) 0.1590 Uiso
H69 H 0.2467 0.5336 0.4005 0.1910 Uiso
H70 H 0.2581 0.5115 0.4519 0.1910 Uiso
C87 C 0.2277(9) 0.403(2) 0.4149(11) 0.1420 Uiso
H71 H 0.2026 0.4242 0.4202 0.1700 Uiso
H72 H 0.2232 0.3866 0.3836 0.1700 Uiso
C88 C 0.2388(9) 0.320(2) 0.4411(11) 0.1380 Uiso
H73 H 0.2398 0.3317 0.4724 0.1660 Uiso
H74 H 0.2195 0.2716 0.4309 0.1660 Uiso
C89 C 0.2762(12) 0.293(3) 0.4355(14) 0.1880 Uiso
H75 H 0.2736 0.2687 0.4055 0.2250 Uiso
H76 H 0.2860 0.2431 0.4563 0.2250 Uiso
C90 C 0.3071(10) 0.373(3) 0.4433(12) 0.1600 Uiso
H77 H 0.3125 0.3902 0.4746 0.1910 Uiso
H78 H 0.3316 0.3506 0.4369 0.1910 Uiso
C91 C 0.043(3) 0.823(6) 0.441(2) 0.1500 Uiso
H79 H 0.0685 0.8359 0.4620 0.1830 Uiso
H80 H 0.0227 0.8286 0.4578 0.1830 Uiso
C92 C 0.037(2) 0.895(5) 0.406(3) 0.1240 Uiso
H81 H 0.0587 0.8953 0.3910 0.1490 Uiso
H82 H 0.0349 0.9549 0.4191 0.1490 Uiso
C93 C -0.0019(19) 0.870(4) 0.373(2) 0.1030 Uiso
H83 H -0.0232 0.9014 0.3832 0.1240 Uiso
H84 H -0.0007 0.8947 0.3446 0.1240 Uiso
C94 C -0.0133(18) 0.773(4) 0.367(3) 0.1200 Uiso
H85 H -0.0313 0.7570 0.3859 0.1380 Uiso
H86 H -0.0270 0.7630 0.3361 0.1380 Uiso
C95 C 0.020(2) 0.716(5) 0.377(3) 0.1330 Uiso
H87 H 0.0371 0.7289 0.3567 0.1590 Uiso
H88 H 0.0121 0.6524 0.3737 0.1590 Uiso
C96 C 0.044(3) 0.733(5) 0.426(3) 0.1800 Uiso
H89 H 0.0335 0.6930 0.4461 0.2120 Uiso
H90 H 0.0715 0.7150 0.4283 0.2120 Uiso
loop_
_atom_site_aniso_label
_atom_site_aniso_U_11
_atom_site_aniso_U_22
_atom_site_aniso_U_33
_atom_site_aniso_U_23
_atom_site_aniso_U_13
_atom_site_aniso_U_12
C1 0.13 0.142 0.041 0.058 0.027 0.105
C2 0.15 0.124 0.055 0.062 0.046 0.097
C3 0.033 0.03 0.039 0.01 -0.001 0.006
C4 0.055 0.053 0.052 0.023 0.015 0.015
C5 0.051 0.045 0.054 0.021 0.02 0.019
C6 0.049(7) 0.038(6) 0.043(7) 0.006(5) -0.019(6) 0.006(5)
C7 0.047(7) 0.027(5) 0.041(7) 0.003(5) -0.017(5) 0.003(5)
C8 0.035(6) 0.023(5) 0.035(6) -0.007(4) -0.005(5) 0.010(4)
C9 0.052(7) 0.030(6) 0.040(7) -0.001(5) -0.019(6) 0.004(5)
C10 0.062(8) 0.024(5) 0.045(7) -0.001(5) -0.008(6) -0.002(5)
C11 0.038(6) 0.025(5) 0.037(6) -0.001(4) 0.003(5) 0.005(4)
C12 0.039(6) 0.018(5) 0.040(6) -0.004(4) -0.002(5) 0.001(4)
C13 0.036(6) 0.022(5) 0.039(6) 0.001(4) -0.004(5) 0.005(4)
C14 0.041(6) 0.015(4) 0.054(7) 0.000(5) -0.002(5) -0.001(4)
C15 0.046(7) 0.023(5) 0.046(7) 0.009(5) 0.002(5) -0.002(5)
C16 0.047(7) 0.031(6) 0.060(8) 0.010(6) 0.008(6) 0.005(5)
C17 0.057(8) 0.029(6) 0.075(10) -0.009(6) -0.009(7) -0.005(6)
C18 0.064(9) 0.024(6) 0.061(9) 0.006(6) -0.023(7) -0.007(6)
C19 0.047 0.058 0.077 0.02 0.012 0.019
C20 0.05 0.059 0.074 0.034 0.02 0.013
C21 0.078 0.068 0.061 0.016 0.023 0.029
C22 0.062 0.064 0.086 0.019 0.029 0.016
C23 0.039(6) 0.022(5) 0.030(6) -0.005(4) -0.010(5) 0.008(4)
C24 0.059(8) 0.017(5) 0.059(8) -0.003(5) -0.034(7) -0.008(5)
C25 0.076(10) 0.030(6) 0.061(9) 0.006(6) -0.040(8) 0.004(6)
C26 0.046(7) 0.022(5) 0.039(6) 0.002(4) -0.010(5) 0.001(5)
C27 0.049(7) 0.025(5) 0.035(6) 0.003(5) -0.010(5) -0.002(5)
C28 0.082 0.064 0.071 0.008 0.002 0.044
C29 0.091 0.056 0.056 0.018 0.02 0.026
C30 0.045 0.03 0.034 0.007 -0.013 0.003
C31 0.049 0.041 0.039 0.012 -0.018 -0.007
C32 0.063 0.03 0.046 0.001 -0.022 -0.001
C33 0.035 0.026 0.032 0 -0.007 -0.002
C34 0.031 0.032 0.042 0.002 0.004 -0.004
C35 0.036 0.034 0.042 0.011 0.006 0.014
C36 0.052 0.027 0.039 -0.003 0.003 -0.001
I1 0.0487(5) 0.0910(8) 0.0509(6) -0.0292(5) -0.0014(4) 0.0077(5)
I2 0.0719(7) 0.0333(4) 0.0880(8) 0.0031(5) -0.0274(6) -0.0107(4)
I3 0.0816(7) 0.0431(5) 0.0596(6) -0.0143(4) 0.0187(5) -0.0140(5)
I4 0.0676(6) 0.0331(4) 0.0929(8) 0.0139(5) 0.0363(6) 0.0115(4)
I5 0.0802(8) 0.0669(7) 0.0719(7) -0.0191(6) -0.0213(6) 0.0353(6)
I6 0.1733(16) 0.0483(6) 0.0703(8) 0.0100(5) -0.0220(9) -0.0455(8)
N1 0.037 0.042 0.039 0.007 -0.005 0.006
N2 0.033(5) 0.028(4) 0.032(5) -0.008(4) -0.009(4) 0.006(4)
N3 0.034(5) 0.024(4) 0.044(6) 0.001(4) -0.002(4) 0.003(4)
N4 0.037(5) 0.028(4) 0.034(5) -0.001(4) -0.010(4) 0.000(4)
N5 0.043(5) 0.021(4) 0.032(5) 0.004(4) -0.006(4) 0.005(4)
N6 0.063(7) 0.027(5) 0.037(6) -0.008(4) -0.018(5) 0.009(5)
N7 0.046(6) 0.030(5) 0.059(7) 0.002(5) 0.009(5) -0.005(4)
N8 0.058 0.026 0.061 0.005 0.024 0.008
N9 0.083 0.042 0.036 -0.001 -0.011 -0.004
N10 0.028 0.032 0.037 0.002 -0.004 0.002
N11 0.032 0.038 0.046 0.007 0 0.004
N12 0.04 0.036 0.029 0.006 -0.005 0.002
Zn1 0.0348(7) 0.0340(7) 0.0468(8) -0.0096(6) -0.0113(6) 0.0057(5)
Zn2 0.0590(10) 0.0233(6) 0.0639(10) -0.0017(6) 0.0233(8) -0.0029(6)
Zn3 0.0937(14) 0.0275(7) 0.0431(9) -0.0026(6) -0.0289(9) 0.0049(8)
N8A 0.058 0.026 0.061 0.005 0.024 0.008
N9G 0.083(9) 0.042(6) 0.036(6) 0.001(5) -0.011(6) 0.004(6)
Zn2A 0.059 0.0233 0.0639 -0.0017 0.0233 -0.0029
Zn3G 0.0937 0.0275 0.0431 0.0026 -0.0289 -0.0049
loop_
_geom_bond_atom_site_label_1
_geom_bond_atom_site_label_2
_geom_bond_site_symmetry_1
_geom_bond_site_symmetry_2
C1 H1 1_555 1_555
C2 C1 1_555 1_555
H2 C2 1_555 1_555
C3 C2 1_555 1_555
C4 C3 1_555 1_555
H3 C4 1_555 1_555
C5 C4 1_555 1_555
H4 C5 1_555 1_555
C6 H5 1_555 1_555
C7 C6 1_555 1_555
H6 C7 1_555 1_555
C8 C7 1_555 1_555
C9 C8 1_555 1_555
H7 C9 1_555 1_555
C10 C9 1_555 1_555
H8 C10 1_555 1_555
C11 C8 1_555 1_555
C12 C14 1_555 1_555
C13 C23 1_555 1_555
C14 C15 1_555 1_555
C15 H9 1_555 1_555
C16 C15 1_555 1_555
H10 C16 1_555 1_555
C17 H11 1_555 1_555
C18 C14 1_555 1_555
H12 C18 1_555 1_555
C19 H13 1_555 1_555
C20 C19 1_555 1_555
H14 C20 1_555 1_555
C21 H15 1_555 1_555
C22 C21 1_555 1_555
H16 C22 1_555 1_555
C23 C24 1_555 1_555
C24 H17 1_555 1_555
C25 C24 1_555 1_555
H18 C25 1_555 1_555
C26 H19 1_555 1_555
C27 C23 1_555 1_555
H20 C27 1_555 1_555
C28 H21 1_555 1_555
C29 C28 1_555 1_555
H22 C29 1_555 1_555
C30 C29 1_555 1_555
C31 C30 1_555 1_555
H23 C31 1_555 1_555
C32 C31 1_555 1_555
H24 C32 1_555 1_555
C33 C30 1_555 1_555
C34 C36 1_555 1_555
C35 C3 1_555 1_555
C36 C20 1_555 1_555
I1 Zn1 1_555 1_555
I2 Zn1 1_555 1_555
I3 Zn2 1_555 1_555
I4 Zn2 1_555 1_555
I5 Zn3 1_555 1_555
I6 Zn3 1_555 1_555
N1 C1 1_555 1_555
N2 C6 1_555 1_555
N3 C11 1_555 1_555
N4 C12 1_555 1_555
N5 C11 1_555 1_555
N6 C25 1_555 1_555
N7 C16 1_555 1_555
N8 C19 1_555 1_555
N9 C28 1_555 1_555
N10 C33 1_555 1_555
N11 C34 1_555 1_555
N12 C33 1_555 1_555
Zn1 N1 1_555 1_555
Zn2 N7 1_555 1_555
Zn3 N6 1_555 1_555
C37 H25 1_555 1_555
C38 C37 1_555 1_555
H26 C38 1_555 1_555
C39 C38 1_555 1_555
C40 C39 1_555 1_555
H27 C40 1_555 1_555
C41 C40 1_555 1_555
C42 C41 1_555 1_555
H28 C42 1_555 1_555
C43 C42 1_555 1_555
H29 C43 1_555 1_555
C44 C43 1_555 1_555
H30 C44 1_555 1_555
C45 C44 1_555 1_555
H31 C45 1_555 1_555
C46 C41 1_555 1_555
C47 C46 1_555 1_555
H32 C47 1_555 1_555
C48 C39 1_555 1_555
C49 C48 1_555 1_555
H33 C49 1_555 1_555
C50 C37 1_555 1_555
H34 C50 1_555 1_555
C79 H55 1_555 1_555
H56 C79 1_555 1_555
C80 C79 1_555 1_555
H57 C80 1_555 1_555
H58 C80 1_555 1_555
C81 C80 1_555 1_555
H59 C81 1_555 1_555
H60 C81 1_555 1_555
C82 C81 1_555 1_555
H61 C82 1_555 1_555
H62 C82 1_555 1_555
C83 C82 1_555 1_555
H63 C83 1_555 1_555
H64 C83 1_555 1_555
C84 C79 1_555 1_555
H65 C84 1_555 1_555
H66 C84 1_555 1_555
C85 H67 1_555 1_555
H68 C85 1_555 1_555
C86 C85 1_555 1_555
H69 C86 1_555 1_555
H70 C86 1_555 1_555
C87 C86 1_555 1_555
H71 C87 1_555 1_555
H72 C87 1_555 1_555
C88 C87 1_555 1_555
H73 C88 1_555 1_555
H74 C88 1_555 1_555
C89 C88 1_555 1_555
H75 C89 1_555 1_555
H76 C89 1_555 1_555
C90 C85 1_555 1_555
H77 C90 1_555 1_555
H78 C90 1_555 1_555
C91 H79 1_555 1_555
H80 C91 1_555 1_555
C92 C91 1_555 1_555
H81 C92 1_555 1_555
H82 C92 1_555 1_555
C93 C92 1_555 1_555
H83 C93 1_555 1_555
H84 C93 1_555 1_555
C94 C93 1_555 1_555
H85 C94 1_555 1_555
H86 C94 1_555 1_555
C95 C94 1_555 1_555
H87 C95 1_555 1_555
H88 C95 1_555 1_555
C96 C91 1_555 1_555
H89 C96 1_555 1_555
H90 C96 1_555 1_555
N8A Zn2 1_555 1_555
N9G Zn3 1_555 1_555
Zn2A N8 1_555 1_555
Zn3G N9 1_555 1_555
C5 N1 1_555 1_555
C10 N2 1_555 1_555
C12 N5 1_555 1_555
C13 N3 1_555 1_555
C13 N4 1_555 1_555
C17 C18 1_555 1_555
C17 N7 1_555 1_555
C21 C36 1_555 1_555
C22 N8 1_555 1_555
C26 C27 1_555 1_555
C26 N6 1_555 1_555
C32 N9 1_555 1_555
C34 N10 1_555 1_555
C35 N11 1_555 1_555
C35 N12 1_555 1_555
N2 Zn1 1_555 1_555
C45 C46 1_555 1_555
C47 C48 1_555 1_555
C49 C50 1_555 1_555
C83 C84 1_555 1_555
C89 C90 1_555 1_555
C95 C96 1_555 1_555

#END
