
#######################################################################
#
#                 Cambridge Crystallographic Data Centre
#                                CCDC 
#
#######################################################################
#
# If this CIF has been generated from an entry in the Cambridge 
# Structural Database, then it will include bibliographic, chemical, 
# crystal, experimental, refinement or atomic coordinate data resulting 
# from the CCDC's data processing and validation procedures.
#
#######################################################################

data_LUQGAG
_chemical_formula_moiety         '(C12 H8 Co1 N4)n'
_symmetry_cell_setting           tetragonal
_symmetry_space_group_name_H-M   'I 41/a m d'
_symmetry_Int_Tables_number      141
_space_group_name_Hall           '-I 4bd 2'
loop_
_symmetry_equiv_pos_site_id
_symmetry_equiv_pos_as_xyz
1 x,y,z
2 1/2-x,-y,1/2+z
3 1/4-y,3/4+x,1/4+z
4 1/4+y,1/4-x,3/4+z
5 1/2-x,y,1/2-z
6 x,-y,-z
7 1/4+y,3/4+x,1/4-z
8 1/4-y,1/4-x,3/4-z
9 1/2+x,1/2+y,1/2+z
10 -x,1/2-y,z
11 3/4-y,1/4+x,3/4+z
12 3/4+y,3/4-x,1/4+z
13 -x,1/2+y,-z
14 1/2+x,1/2-y,1/2-z
15 3/4+y,1/4+x,3/4-z
16 3/4-y,3/4-x,1/4-z
17 -x,-y,-z
18 1/2+x,y,1/2-z
19 3/4+y,1/4-x,3/4-z
20 3/4-y,3/4+x,1/4-z
21 1/2+x,-y,1/2+z
22 -x,y,z
23 3/4-y,1/4-x,3/4+z
24 3/4+y,3/4+x,1/4+z
25 1/2-x,1/2-y,1/2-z
26 x,1/2+y,-z
27 1/4+y,3/4-x,1/4-z
28 1/4-y,1/4+x,3/4-z
29 x,1/2-y,z
30 1/2-x,1/2+y,1/2+z
31 1/4-y,3/4-x,1/4+z
32 1/4+y,1/4+x,3/4+z
_cell_length_a                   22.847(15)
_cell_length_b                   22.847(15)
_cell_length_c                   12.458(16)
_cell_angle_alpha                90
_cell_angle_beta                 90
_cell_angle_gamma                90
_cell_volume                     6502.89
loop_
_atom_site_label
_atom_site_type_symbol
_atom_site_fract_x
_atom_site_fract_y
_atom_site_fract_z
_atom_site_U_iso_or_equiv
_atom_site_thermal_displace_type
Co1 Co 0.28659(6) 0.53659(6) -1.6250 0.0451 Uani
N1 N 0.3087(3) 0.5755(5) -1.4893(7) 0.0470 Uani
N2 N 0.3073(4) 0.5473(4) -1.3936(9) 0.0480 Uani
C1 C 0.3189(5) 0.6318(6) -1.4683(10) 0.0617 Uani
H1 H 0.3223 0.6608 -1.5204 0.0740 Uiso
C2 C 0.3238(6) 0.6418(6) -1.3577(11) 0.0757 Uani
C3 C 0.3158(5) 0.5868(7) -1.3158(10) 0.0697 Uani
H2 H 0.3162 0.5781 -1.2429 0.0840 Uiso
C4 C 0.3289(7) 0.7500 -1.3547(11) 0.0730 Uani
H3 H 0.2971 0.7500 -1.4012 0.0870 Uiso
C5 C 0.3185(9) 0.6970(8) -1.2928(15) 0.0570 Uiso
C6 C 0.3219(11) 0.7500 -1.123(2) 0.0770 Uiso
H4 H 0.3230 0.7500 -1.0481 0.0920 Uiso
C7 C 0.3209(8) 0.6975(8) -1.1811(13) 0.0680 Uiso
H5 H 0.3220 0.6621 -1.1443 0.0810 Uiso
Co1E Co 0.28659(6) 0.46341(6) -1.3750 0.0451 Uani
Co1R Co 0.28659(6) 0.96341(6) -1.6250 0.0451 Uani
Co1W Co 0.28659(6) 1.03659(6) -1.3750 0.0451 Uani
N1BA N 0.3087(3) 0.9245(5) -1.4893(7) 0.0470 Uani
N1N N 0.3255(5) 0.5587(3) -1.7607(7) 0.0470 Uani
N2BA N 0.3073(4) 0.9527(4) -1.3936(9) 0.0480 Uani
N2E N 0.3073(4) 0.4527(4) -1.6064(9) 0.0480 Uani
N2J N 0.2027(4) 0.5573(4) -1.6436(9) 0.0480 Uani
C1BA C 0.3189(5) 0.8682(6) -1.4683(10) 0.0617 Uani
H1BA H 0.3223 0.8392 -1.5204 0.0740 Uiso
C2BA C 0.3238(6) 0.8582(6) -1.3577(11) 0.0757 Uani
C3BA C 0.3158(5) 0.9132(7) -1.3158(10) 0.0697 Uani
H2BA H 0.3162 0.9219 -1.2429 0.0840 Uiso
C5BA C 0.3185(9) 0.8030(8) -1.2928(15) 0.0570 Uiso
C7BA C 0.3209(8) 0.8025(8) -1.1811(13) 0.0680 Uiso
H5BA H 0.3220 0.8379 -1.1443 0.0810 Uiso
loop_
_atom_site_aniso_label
_atom_site_aniso_U_11
_atom_site_aniso_U_22
_atom_site_aniso_U_33
_atom_site_aniso_U_23
_atom_site_aniso_U_13
_atom_site_aniso_U_12
Co1 0.0490(15) 0.0490(15) 0.0372(19) -0.0024(7) 0.0024(7) 0.0040(11)
N1 0.062(7) 0.038(8) 0.041(8) 0.003(7) -0.007(4) 0.001(5)
N2 0.067(7) 0.047(7) 0.030(6) 0.005(7) -0.012(5) -0.001(5)
C1 0.091(9) 0.046(11) 0.048(10) 0.018(7) -0.026(6) 0.002(8)
C2 0.141(13) 0.033(11) 0.053(11) 0.005(8) -0.038(7) -0.008(8)
C3 0.112(11) 0.049(11) 0.048(9) -0.006(10) -0.032(7) 0.011(8)
C4 0.110(15) 0.044(12) 0.065(10) 0.000 -0.037(10) 0.000
Co1E 0.049 0.049 0.0372 -0.0024 -0.0024 -0.004
Co1R 0.049 0.049 0.0372 0.0024 0.0024 -0.004
Co1W 0.049 0.049 0.0372 0.0024 -0.0024 0.004
N1BA 0.062 0.038 0.041 -0.003 -0.007 -0.001
N1N 0.038 0.062 0.041 0.007 -0.003 0.001
N2BA 0.067 0.047 0.03 -0.005 -0.012 0.001
N2E 0.067 0.047 0.03 0.005 0.012 0.001
N2J 0.047 0.067 0.03 -0.012 -0.005 0.001
C1BA 0.091 0.046 0.048 -0.018 -0.026 -0.002
C2BA 0.141 0.033 0.053 -0.005 -0.038 0.008
C3BA 0.112 0.049 0.048 0.006 -0.032 -0.011
loop_
_geom_bond_atom_site_label_1
_geom_bond_atom_site_label_2
_geom_bond_site_symmetry_1
_geom_bond_site_symmetry_2
Co1 N1 1_555 1_555
N1 N2 1_555 1_555
N2 C3 1_555 1_555
C1 N1 1_555 1_555
H1 C1 1_555 1_555
C2 C1 1_555 1_555
C3 C2 1_555 1_555
H2 C3 1_555 1_555
C4 H3 1_555 1_555
C5 C2 1_555 1_555
C6 H4 1_555 1_555
C7 C5 1_555 1_555
H5 C7 1_555 1_555
Co1E N2 1_555 1_555
Co1R N1BA 1_555 1_555
Co1W N2BA 1_555 1_555
N1BA N2BA 1_555 1_555
N1N Co1 1_555 1_555
N2BA C3BA 1_555 1_555
N2E Co1 1_555 1_555
N2J Co1 1_555 1_555
C1BA N1BA 1_555 1_555
H1BA C1BA 1_555 1_555
C2BA C1BA 1_555 1_555
C3BA C2BA 1_555 1_555
H2BA C3BA 1_555 1_555
C5BA C4 1_555 1_555
C7BA C6 1_555 1_555
H5BA C7BA 1_555 1_555
C4 C5 1_555 1_555
C6 C7 1_555 1_555
C2BA C5BA 1_555 1_555
C5BA C7BA 1_555 1_555

#END
