
#######################################################################
#
#                 Cambridge Crystallographic Data Centre
#                                CCDC 
#
#######################################################################
#
# If this CIF has been generated from an entry in the Cambridge 
# Structural Database, then it will include bibliographic, chemical, 
# crystal, experimental, refinement or atomic coordinate data resulting 
# from the CCDC's data processing and validation procedures.
#
#######################################################################

data_CORZOA
_chemical_formula_moiety         '(C12 H6 Cl1 In1 N2 O4)n'
_symmetry_cell_setting           cubic
_symmetry_space_group_name_H-M   'P a -3'
_symmetry_Int_Tables_number      205
_space_group_name_Hall           '-P 2ac 2ab 3'
loop_
_symmetry_equiv_pos_site_id
_symmetry_equiv_pos_as_xyz
1 x,y,z
2 1/2-x,-y,1/2+z
3 -x,1/2+y,1/2-z
4 1/2+x,1/2-y,-z
5 z,x,y
6 1/2+z,1/2-x,-y
7 1/2-z,-x,1/2+y
8 -z,1/2+x,1/2-y
9 y,z,x
10 -y,1/2+z,1/2-x
11 1/2+y,1/2-z,-x
12 1/2-y,-z,1/2+x
13 -x,-y,-z
14 1/2+x,y,1/2-z
15 x,1/2-y,1/2+z
16 1/2-x,1/2+y,z
17 -z,-x,-y
18 1/2-z,1/2+x,y
19 1/2+z,x,1/2-y
20 z,1/2-x,1/2+y
21 -y,-z,-x
22 y,1/2-z,1/2+x
23 1/2-y,1/2+z,x
24 1/2+y,z,1/2-x
_cell_length_a                   27.590(3)
_cell_length_b                   27.590(3)
_cell_length_c                   27.590(3)
_cell_angle_alpha                90
_cell_angle_beta                 90
_cell_angle_gamma                90
_cell_volume                     21001.7
loop_
_atom_site_label
_atom_site_type_symbol
_atom_site_fract_x
_atom_site_fract_y
_atom_site_fract_z
_atom_site_U_iso_or_equiv
_atom_site_thermal_displace_type
In1 In 0.663140(10) 0.364947(9) 0.339871(9) 0.0506 Uani
Cl1 Cl 0.58293(5) 0.39591(5) 0.34074(5) 0.0945 Uani
O1 O 0.62784(11) 0.57148(10) 0.33106(11) 0.0747 Uani
O2 O 0.69609(11) 0.61035(10) 0.34514(12) 0.0770 Uani
O3 O 0.80521(11) 0.21468(9) 0.34167(11) 0.0693 Uani
O4 O 0.87677(13) 0.24423(12) 0.32993(11) 0.0822 Uani
N1 N 0.69979(12) 0.43842(11) 0.34190(10) 0.0526 Uani
N2 N 0.74353(13) 0.35199(11) 0.34154(11) 0.0583 Uani
C1 C 0.67644(16) 0.47993(13) 0.34085(13) 0.0557 Uani
H1 H 0.6428 0.4793 0.3390 0.0670 Uiso
C2 C 0.69958(17) 0.52513(14) 0.34234(16) 0.0663 Uani
C3 C 0.7490(2) 0.5249(2) 0.34651(19) 0.0950 Uani
H2 H 0.7660 0.5539 0.3484 0.1140 Uiso
C4 C 0.7739(2) 0.4805(2) 0.3480(2) 0.1009 Uani
H3 H 0.8075 0.4797 0.3509 0.1210 Uiso
C5 C 0.74782(17) 0.43860(15) 0.34501(18) 0.0760 Uani
C6 C 0.77295(18) 0.39023(15) 0.34283(19) 0.0813 Uani
C7 C 0.8218(2) 0.3847(3) 0.3414(2) 0.1023 Uani
H4 H 0.8412 0.4123 0.3427 0.1230 Uiso
C8 C 0.8437(2) 0.3408(2) 0.3383(2) 0.1023 Uani
H5 H 0.8772 0.3377 0.3360 0.1230 Uiso
C9 C 0.81280(17) 0.30009(14) 0.33855(17) 0.0717 Uani
C10 C 0.76383(16) 0.30728(15) 0.33960(13) 0.0607 Uani
H6 H 0.7436 0.2804 0.3390 0.0730 Uiso
C11 C 0.67231(17) 0.57050(15) 0.33925(15) 0.0633 Uani
C12 C 0.83239(17) 0.24990(14) 0.33667(18) 0.0693 Uani
In1J In 0.864947(9) 0.160129(9) 0.336860(10) 0.0506 Uani
In1T In 0.635053(9) 0.660129(9) 0.336860(10) 0.0506 Uani
O1P O 0.66894(11) 0.37216(11) 0.42852(10) 0.0747 Uani
O2P O 0.65486(12) 0.30391(11) 0.38965(10) 0.0770 Uani
O3G O 0.65833(11) 0.30521(11) 0.28532(9) 0.0693 Uani
O4G O 0.67007(11) 0.37677(13) 0.25577(12) 0.0822 Uani
loop_
_atom_site_aniso_label
_atom_site_aniso_U_11
_atom_site_aniso_U_22
_atom_site_aniso_U_33
_atom_site_aniso_U_23
_atom_site_aniso_U_13
_atom_site_aniso_U_12
In1 0.0695(2) 0.04324(19) 0.03909(18) -0.00188(11) 0.00098(12) 0.00004(12)
Cl1 0.0822(7) 0.0927(7) 0.1087(8) -0.0016(6) -0.0006(6) 0.0090(6)
O1 0.0646(19) 0.0466(16) 0.113(3) 0.0047(16) -0.0036(17) 0.0083(15)
O2 0.0715(19) 0.0424(15) 0.117(3) -0.0009(16) -0.0070(18) 0.0058(14)
O3 0.0718(19) 0.0391(14) 0.097(2) 0.0002(14) 0.0030(16) 0.0081(14)
O4 0.0807(12) 0.0759(12) 0.0901(12) 0.0005(9) 0.0006(9) 0.0028(9)
N1 0.061(2) 0.0437(17) 0.0530(18) -0.0008(14) 0.0002(15) 0.0049(15)
N2 0.074(2) 0.0388(16) 0.062(2) -0.0015(14) -0.0021(17) 0.0058(16)
C1 0.067(2) 0.045(2) 0.055(2) 0.0014(18) 0.0018(18) 0.0026(19)
C2 0.073(3) 0.041(2) 0.085(3) 0.000(2) -0.002(2) 0.0002(19)
C3 0.0939(18) 0.0907(18) 0.1003(18) -0.0005(10) -0.0005(10) 0.0008(10)
C4 0.0997(19) 0.0974(19) 0.1057(19) 0.0009(10) -0.0011(10) 0.0023(10)
C5 0.067(3) 0.038(2) 0.123(4) -0.005(2) -0.006(3) 0.001(2)
C6 0.069(3) 0.042(2) 0.133(4) -0.002(2) -0.007(3) 0.003(2)
C7 0.101(2) 0.099(2) 0.107(2) -0.0001(10) -0.0002(10) 0.0018(10)
C8 0.103(2) 0.099(2) 0.105(2) -0.0005(10) 0.0004(10) 0.0015(10)
C9 0.067(3) 0.041(2) 0.107(4) 0.004(2) -0.001(3) 0.006(2)
C10 0.069(3) 0.044(2) 0.069(3) -0.0015(19) 0.000(2) 0.003(2)
C11 0.079(3) 0.046(2) 0.065(3) 0.0035(19) -0.001(2) 0.014(2)
C12 0.071(3) 0.035(2) 0.102(4) -0.006(2) -0.001(2) -0.001(2)
In1J 0.04324 0.03909 0.0695 0.00098 -4e-05 0.00188
In1T 0.04324 0.03909 0.0695 0.00098 4e-05 -0.00188
O1P 0.113 0.0646 0.0466 0.0083 0.0047 -0.0036
O2P 0.117 0.0715 0.0424 0.0058 -0.0009 -0.007
O3G 0.097 0.0718 0.0391 -0.0081 0.0002 -0.003
O4G 0.0901 0.0807 0.0759 -0.0028 0.0005 -0.0006
loop_
_geom_bond_atom_site_label_1
_geom_bond_atom_site_label_2
_geom_bond_site_symmetry_1
_geom_bond_site_symmetry_2
In1 Cl1 1_555 1_555
O1 C11 1_555 1_555
O2 C11 1_555 1_555
O3 C12 1_555 1_555
O4 C12 1_555 1_555
N1 In1 1_555 1_555
N2 In1 1_555 1_555
C1 N1 1_555 1_555
H1 C1 1_555 1_555
C2 C1 1_555 1_555
C3 C2 1_555 1_555
H2 C3 1_555 1_555
C4 C3 1_555 1_555
H3 C4 1_555 1_555
C5 N1 1_555 1_555
C6 N2 1_555 1_555
C7 C6 1_555 1_555
H4 C7 1_555 1_555
C8 C7 1_555 1_555
H5 C8 1_555 1_555
C9 C8 1_555 1_555
C10 N2 1_555 1_555
H6 C10 1_555 1_555
C11 C2 1_555 1_555
C12 C9 1_555 1_555
In1J O3 1_555 1_555
In1T O1 1_555 1_555
O1P In1 1_555 1_555
O2P In1 1_555 1_555
O3G In1 1_555 1_555
O4G In1 1_555 1_555
O2 In1T 1_555 1_555
O4 In1J 1_555 1_555
C4 C5 1_555 1_555
C5 C6 1_555 1_555
C9 C10 1_555 1_555

#END
