
#######################################################################
#
#                 Cambridge Crystallographic Data Centre
#                                CCDC 
#
#######################################################################
#
# If this CIF has been generated from an entry in the Cambridge 
# Structural Database, then it will include bibliographic, chemical, 
# crystal, experimental, refinement or atomic coordinate data resulting 
# from the CCDC's data processing and validation procedures.
#
#######################################################################

data_ELUQIM13
_chemical_formula_moiety         '(C3 H7 N1 O6 Zn1)n'
_symmetry_cell_setting           hexagonal
_symmetry_space_group_name_H-M   'P 63 2 2'
_symmetry_Int_Tables_number      182
_space_group_name_Hall           'P 6c 2c'
loop_
_symmetry_equiv_pos_site_id
_symmetry_equiv_pos_as_xyz
1 x,y,z
2 x-y,x,1/2+z
3 -y,x-y,z
4 -x,-y,1/2+z
5 -x+y,-x,z
6 y,-x+y,1/2+z
7 x-y,-y,-z
8 -x,-x+y,-z
9 y,x,-z
10 -y,-x,1/2-z
11 -x+y,y,1/2-z
12 x,x-y,1/2-z
_cell_length_a                   7.3090(2)
_cell_length_b                   7.3090(2)
_cell_length_c                   8.1701(3)
_cell_angle_alpha                90
_cell_angle_beta                 90
_cell_angle_gamma                120
_cell_volume                     377.984
loop_
_atom_site_label
_atom_site_type_symbol
_atom_site_fract_x
_atom_site_fract_y
_atom_site_fract_z
Zn1 Zn 0.3333 0.6667 0.2500
O1 O 0.11034(18) 0.69483(18) 0.10519(13)
C1 C 0.0000 0.5622(3) 0.0000
H1 H 0.0000 0.4346 0.0000
O1G O -0.11034(18) 0.58449(25) -0.10519(13)
O1B O 0.30517(18) 0.41551(25) 0.10519(13)
C1B C 0.4378(3) 0.4378(3) 0.0000
H1B H 0.5654 0.5654 0.0000
O1F O 0.41551(25) 0.30517(18) -0.10519(13)
O1D O 0.58449(25) 0.88966(18) 0.10519(13)
C1D C 0.5622(3) 1.0000 0.0000
H1D H 0.4346 1.0000 0.0000
O1H O 0.69483(18) 1.11034(18) -0.10519(13)
Zn1A Zn -0.3334 0.3333 -0.2500
Zn1A_2 Zn 0.6666 0.3333 -0.2500
Zn1A_3 Zn 0.6666 1.3333 -0.2500
O1I O 0.30517(18) 0.88966(18) 0.39481(13)
O1J O 0.58449(25) 0.69483(18) 0.39481(13)
O1K O 0.11034(18) 0.41551(25) 0.39481(13)
N1 N 0.0000 1.0000 0.2500
loop_
_geom_bond_atom_site_label_1
_geom_bond_atom_site_label_2
_geom_bond_site_symmetry_1
_geom_bond_site_symmetry_2
Zn1 O1 1_555 1_555
O1 C1 1_555 1_555
C1 H1 1_555 1_555
O1G C1 1_555 1_555
O1B Zn1 1_555 1_555
C1B O1B 1_555 1_555
H1B C1B 1_555 1_555
O1F C1B 1_555 1_555
O1D Zn1 1_555 1_555
C1D O1D 1_555 1_555
H1D C1D 1_555 1_555
O1H C1D 1_555 1_555
Zn1A O1G 1_555 1_555
Zn1A_2 O1F 1_555 1_555
Zn1A_3 O1H 1_555 1_555
O1I Zn1 1_555 1_555
O1J Zn1 1_555 1_555
O1K Zn1 1_555 1_555

#END
