
#######################################################################
#
#                 Cambridge Crystallographic Data Centre
#                                CCDC 
#
#######################################################################
#
# If this CIF has been generated from an entry in the Cambridge 
# Structural Database, then it will include bibliographic, chemical, 
# crystal, experimental, refinement or atomic coordinate data resulting 
# from the CCDC's data processing and validation procedures.
#
#######################################################################

data_MUZVUA
_chemical_formula_moiety         '(C80 H66 Cd4 N6 O18)n'
_symmetry_cell_setting           triclinic
_symmetry_space_group_name_H-M   'P -1'
_symmetry_Int_Tables_number      2
_space_group_name_Hall           '-P 1'
loop_
_symmetry_equiv_pos_site_id
_symmetry_equiv_pos_as_xyz
1 x,y,z
2 -x,-y,-z
_cell_length_a                   9.7250(19)
_cell_length_b                   14.654(3)
_cell_length_c                   19.736(4)
_cell_angle_alpha                80.50(3)
_cell_angle_beta                 77.20(3)
_cell_angle_gamma                81.70(3)
_cell_volume                     2688.03
loop_
_atom_site_label
_atom_site_type_symbol
_atom_site_fract_x
_atom_site_fract_y
_atom_site_fract_z
Cd1 Cd 0.46414(3) 0.062931(19) 0.193582(13)
Cd2 Cd 0.16578(3) 0.23162(2) 0.247839(14)
O1 O 0.2798(4) 0.0557(3) 0.14228(17)
O2 O 0.0847(4) 0.1420(2) 0.18972(16)
O3 O 0.5367(4) 0.1781(2) 0.10921(16)
O4 O 0.3746(4) 0.2630(2) 0.17643(15)
O5 O 0.2994(3) 0.1028(2) 0.29530(13)
O6 O 0.3603(4) -0.0467(2) 0.29089(15)
O7 O -0.0088(5) 0.2671(2) 0.35197(17)
O8 O 0.1938(5) 0.3246(3) 0.3243(2)
O9 O 0.6400(4) 0.0664(3) 0.25348(17)
N1 N 0.0353(5) 0.3580(3) 0.1910(2)
N2 N -0.4104(4) 0.9437(2) 0.13619(17)
N3 N 0.7118(6) 0.0692(5) 0.3532(3)
C1 C 0.1529(5) 0.0876(3) 0.1477(2)
C2 C 0.0721(4) 0.0600(3) 0.09849(19)
C3 C -0.0713(5) 0.0975(3) 0.0988(2)
H1 H -0.1198 0.1359 0.1331
C4 C 0.1398(5) 0.0018(3) 0.0506(2)
H2 H 0.2347 -0.0246 0.0514
C5 C 0.0705(4) -0.0198(3) 0.00007(19)
C6 C -0.1395(5) 0.0786(3) 0.0502(2)
H3 H -0.2345 0.1053 0.0502
C7 C 0.4434(5) 0.5028(3) 0.0293(2)
C8 C 0.4185(6) 0.4232(3) 0.0792(2)
H4 H 0.3447 0.4273 0.1195
C9 C 0.5004(5) 0.3391(3) 0.0700(2)
C10 C 0.6117(6) 0.3342(3) 0.0116(2)
H5 H 0.6682 0.2765 0.0053
C11 C 0.6408(6) 0.4110(3) -0.0367(3)
H6 H 0.7181 0.4063 -0.0754
C12 C 0.4668(5) 0.2545(3) 0.1221(2)
C13 C 0.0496(6) -0.1160(3) 0.4697(2)
H7 H 0.0257 -0.1779 0.4837
C14 C 0.1489(5) -0.0957(3) 0.4101(2)
H8 H 0.1950 -0.1439 0.3834
C15 C 0.1834(5) -0.0042(3) 0.38792(19)
C16 C 0.1200(5) 0.0640(3) 0.42735(19)
H9 H 0.1455 0.1254 0.4127
C17 C 0.0175(5) 0.0460(3) 0.48944(19)
C18 C 0.2876(5) 0.0173(3) 0.3207(2)
C19 C 0.1100(7) 0.4439(3) 0.4238(2)
H10 H 0.1990 0.4483 0.3925
C20 C 0.0269(7) 0.3813(3) 0.4177(2)
C21 C -0.1058(7) 0.3742(4) 0.4632(3)
H11 H -0.1638 0.3298 0.4582
C22 C -0.1528(7) 0.4305(4) 0.5148(3)
H12 H -0.2432 0.4255 0.5448
C23 C -0.0666(6) 0.4956(3) 0.5232(2)
C24 C 0.0727(7) 0.3199(4) 0.3605(3)
C25 C 0.0342(8) 0.4439(4) 0.2027(3)
H13 H 0.0985 0.4551 0.2295
C26 C -0.0519(9) 0.5169(4) 0.1792(3)
H14 H -0.0504 0.5766 0.1917
C27 C -0.1418(8) 0.5058(4) 0.1375(3)
C28 C -0.1425(8) 0.4179(4) 0.1240(4)
H15 H -0.2039 0.4057 0.0961
C29 C -0.0519(8) 0.3459(4) 0.1517(3)
H16 H -0.0531 0.2848 0.1417
C30 C -0.2350(12) 0.5868(5) 0.1049(4)
H17 H -0.2866 0.6255 0.1412
H18 H -0.3056 0.5625 0.0854
C31 C -0.1378(12) 0.6479(5) 0.0444(4)
H19 H -0.0575 0.6603 0.0636
H20 H -0.0972 0.6091 0.0066
C32 C -0.1918(12) 0.7272(5) 0.0155(4)
H21 H -0.2595 0.7134 -0.0112
H22 H -0.1138 0.7551 -0.0193
C33 C -0.2681(9) 0.8021(4) 0.0598(3)
C34 C -0.2222(7) 0.8242(4) 0.1152(4)
H23 H -0.1394 0.7903 0.1287
C35 C -0.2941(7) 0.8945(3) 0.1512(3)
H24 H -0.2583 0.9084 0.1889
C36 C -0.4537(6) 0.9218(4) 0.0815(3)
H25 H -0.5347 0.9578 0.0676
C37 C -0.3891(7) 0.8514(4) 0.0450(3)
H26 H -0.4288 0.8367 0.0088
C38 C 0.6169(7) 0.0785(5) 0.3143(3)
H27 H 0.5213 0.0963 0.3357
C39 C 0.6739(10) 0.0829(9) 0.4272(4)
H28 H 0.5712 0.0828 0.4438
H29 H 0.7017 0.1427 0.4323
H30 H 0.7234 0.0324 0.4550
C40 C 0.8572(10) 0.0443(9) 0.3251(4)
H31 H 0.8800 -0.0232 0.3353
H32 H 0.9159 0.0758 0.3464
H33 H 0.8763 0.0632 0.2742
O1A O -0.2798(4) -0.0557(3) -0.14228(17)
O2A O -0.0847(4) -0.1420(2) -0.18972(16)
C1A C -0.1529(5) -0.0876(3) -0.1477(2)
C2A C -0.0721(4) -0.0600(3) -0.09849(19)
C3A C 0.0713(5) -0.0975(3) -0.0988(2)
H1A H 0.1198 -0.1359 -0.1331
C4A C -0.1398(5) -0.0018(3) -0.0506(2)
H2A H -0.2347 0.0246 -0.0514
C5A C -0.0705(4) 0.0198(3) -0.00007(19)
C6A C 0.1395(5) -0.0786(3) -0.0502(2)
H3A H 0.2345 -0.1053 -0.0502
O3A O 0.4633(4) 0.8219(2) -0.10921(16)
O4A O 0.6254(4) 0.7370(2) -0.17643(15)
C7A C 0.5566(5) 0.4972(3) -0.0293(2)
C8A C 0.5815(6) 0.5768(3) -0.0792(2)
H4A H 0.6553 0.5727 -0.1195
C9A C 0.4996(5) 0.6609(3) -0.0700(2)
C10A C 0.3883(6) 0.6658(3) -0.0116(2)
H5A H 0.3318 0.7235 -0.0053
C11A C 0.3592(6) 0.5890(3) 0.0367(3)
H6A H 0.2819 0.5937 0.0754
C12A C 0.5332(5) 0.7455(3) -0.1221(2)
O5A O -0.2994(3) -0.1028(2) 0.70470(13)
O6A O -0.3603(4) 0.0467(2) 0.70911(15)
C13A C -0.0496(6) 0.1160(3) 0.5303(2)
H7A H -0.0257 0.1779 0.5163
C14A C -0.1489(5) 0.0957(3) 0.5899(2)
H8A H -0.1950 0.1439 0.6166
C15A C -0.1834(5) 0.0042(3) 0.61208(19)
C16A C -0.1200(5) -0.0640(3) 0.57265(19)
H9A H -0.1455 -0.1254 0.5873
C17A C -0.0175(5) -0.0460(3) 0.51056(19)
C18A C -0.2876(5) -0.0173(3) 0.6793(2)
O7A O 0.0088(5) 0.7329(2) 0.64803(17)
O8A O -0.1938(5) 0.6754(3) 0.6757(2)
C19A C -0.1100(7) 0.5561(3) 0.5762(2)
H10A H -0.1990 0.5517 0.6075
C20A C -0.0269(7) 0.6187(3) 0.5823(2)
C21A C 0.1058(7) 0.6258(4) 0.5368(3)
H11A H 0.1638 0.6702 0.5418
C22A C 0.1528(7) 0.5695(4) 0.4852(3)
H12A H 0.2432 0.5745 0.4552
C23A C 0.0666(6) 0.5044(3) 0.4768(2)
C24A C -0.0727(7) 0.6801(4) 0.6395(3)
Cd1A Cd -0.46414(3) -0.062931(19) -0.193582(13)
Cd2A Cd -0.16578(3) -0.23162(2) -0.247839(14)
O9A O -0.6400(4) -0.0664(3) -0.25348(17)
N1A N -0.0353(5) -0.3580(3) -0.1910(2)
N2A N 0.4104(4) -0.9437(2) -0.13619(17)
N3A N -0.7118(6) -0.0692(5) -0.3532(3)
C25A C -0.0342(8) -0.4439(4) -0.2027(3)
H13A H -0.0985 -0.4551 -0.2295
C26A C 0.0519(9) -0.5169(4) -0.1792(3)
H14A H 0.0504 -0.5766 -0.1917
C27A C 0.1418(8) -0.5058(4) -0.1375(3)
C28A C 0.1425(8) -0.4179(4) -0.1240(4)
H15A H 0.2039 -0.4057 -0.0961
C29A C 0.0519(8) -0.3459(4) -0.1517(3)
H16A H 0.0531 -0.2848 -0.1417
C30A C 0.2350(12) -0.5868(5) -0.1049(4)
H17A H 0.2866 -0.6255 -0.1412
H18A H 0.3056 -0.5625 -0.0854
C31A C 0.1378(12) -0.6479(5) -0.0444(4)
H19A H 0.0575 -0.6603 -0.0636
H20A H 0.0972 -0.6091 -0.0066
C32A C 0.1918(12) -0.7272(5) -0.0155(4)
H21A H 0.2595 -0.7134 0.0112
H22A H 0.1138 -0.7551 0.0193
C33A C 0.2681(9) -0.8021(4) -0.0598(3)
C34A C 0.2222(7) -0.8242(4) -0.1152(4)
H23A H 0.1394 -0.7903 -0.1287
C35A C 0.2941(7) -0.8945(3) -0.1512(3)
H24A H 0.2583 -0.9084 -0.1889
C36A C 0.4537(6) -0.9218(4) -0.0815(3)
H25A H 0.5347 -0.9578 -0.0676
C37A C 0.3891(7) -0.8514(4) -0.0450(3)
H26A H 0.4288 -0.8367 -0.0088
C38A C -0.6169(7) -0.0785(5) -0.3143(3)
H27A H -0.5213 -0.0963 -0.3357
C39A C -0.6739(10) -0.0829(9) -0.4272(4)
H28A H -0.5712 -0.0828 -0.4438
H29A H -0.7017 -0.1427 -0.4323
H30A H -0.7234 -0.0324 -0.4550
C40A C -0.8572(10) -0.0443(9) -0.3251(4)
H31A H -0.8800 0.0232 -0.3353
H32A H -0.9159 -0.0758 -0.3464
H33A H -0.8763 -0.0632 -0.2742
Cd1_2 Cd -0.53586(3) 1.062931(19) 0.193582(13)
Cd1A_2 Cd -0.46414(3) -0.062931(19) 0.806418(13)
Cd1A_3 Cd 0.53586(3) -1.062931(19) -0.193582(13)
Cd1A_4 Cd 0.53586(3) 0.937069(19) -0.193582(13)
Cd2A_2 Cd -0.16578(3) -0.23162(2) 0.752161(14)
Cd2A_3 Cd -0.16578(3) 0.76838(2) 0.752161(14)
Cd2A_4 Cd 0.83422(3) 0.76838(2) -0.247839(14)
O3A_2 O -0.5367(4) -0.1781(2) -0.10921(16)
O4A_2 O -0.3746(4) -0.2630(2) -0.17643(15)
O5A_2 O -0.2994(3) -0.1028(2) -0.29530(13)
O6A_2 O -0.3603(4) 0.0467(2) -0.29089(15)
O7A_2 O 0.0088(5) -0.2671(2) -0.35197(17)
O8A_2 O -0.1938(5) -0.3246(3) -0.3243(2)
N2_2 N 0.5896(4) -0.0563(2) 0.13619(17)
N2A_2 N -0.5896(4) 0.0563(2) -0.13619(17)
loop_
_geom_bond_atom_site_label_1
_geom_bond_atom_site_label_2
_geom_bond_site_symmetry_1
_geom_bond_site_symmetry_2
Cd1 O1 1_555 1_555
Cd2 O2 1_555 1_555
O1 C1 1_555 1_555
O2 C1 1_555 1_555
O3 Cd1 1_555 1_555
O4 Cd2 1_555 1_555
O5 Cd1 1_555 1_555
O6 Cd1 1_555 1_555
O7 Cd2 1_555 1_555
O8 Cd2 1_555 1_555
O9 Cd1 1_555 1_555
N1 Cd2 1_555 1_555
N2 C35 1_555 1_555
N3 C38 1_555 1_555
C1 C2 1_555 1_555
C2 C3 1_555 1_555
C3 H1 1_555 1_555
C4 C2 1_555 1_555
H2 C4 1_555 1_555
C5 C4 1_555 1_555
C6 C3 1_555 1_555
H3 C6 1_555 1_555
C7 C8 1_555 1_555
C8 H4 1_555 1_555
C9 C8 1_555 1_555
C10 C9 1_555 1_555
H5 C10 1_555 1_555
C11 C10 1_555 1_555
H6 C11 1_555 1_555
C12 O3 1_555 1_555
C13 H7 1_555 1_555
C14 C13 1_555 1_555
H8 C14 1_555 1_555
C15 C14 1_555 1_555
C16 C15 1_555 1_555
H9 C16 1_555 1_555
C17 C16 1_555 1_555
C18 O5 1_555 1_555
C19 H10 1_555 1_555
C20 C19 1_555 1_555
C21 C20 1_555 1_555
H11 C21 1_555 1_555
C22 C21 1_555 1_555
H12 C22 1_555 1_555
C23 C22 1_555 1_555
C24 O7 1_555 1_555
C25 N1 1_555 1_555
H13 C25 1_555 1_555
C26 C25 1_555 1_555
H14 C26 1_555 1_555
C27 C26 1_555 1_555
C28 C27 1_555 1_555
H15 C28 1_555 1_555
C29 N1 1_555 1_555
H16 C29 1_555 1_555
C30 C27 1_555 1_555
H17 C30 1_555 1_555
H18 C30 1_555 1_555
C31 C30 1_555 1_555
H19 C31 1_555 1_555
H20 C31 1_555 1_555
C32 C31 1_555 1_555
H21 C32 1_555 1_555
H22 C32 1_555 1_555
C33 C32 1_555 1_555
C34 C33 1_555 1_555
H23 C34 1_555 1_555
C35 C34 1_555 1_555
H24 C35 1_555 1_555
C36 N2 1_555 1_555
H25 C36 1_555 1_555
C37 C33 1_555 1_555
H26 C37 1_555 1_555
C38 O9 1_555 1_555
H27 C38 1_555 1_555
C39 N3 1_555 1_555
H28 C39 1_555 1_555
H29 C39 1_555 1_555
H30 C39 1_555 1_555
C40 N3 1_555 1_555
H31 C40 1_555 1_555
H32 C40 1_555 1_555
H33 C40 1_555 1_555
O1A C1A 1_555 1_555
O2A C1A 1_555 1_555
C1A C2A 1_555 1_555
C2A C3A 1_555 1_555
C3A H1A 1_555 1_555
C4A C2A 1_555 1_555
H2A C4A 1_555 1_555
C5A C5 1_555 1_555
C6A C5 1_555 1_555
H3A C6A 1_555 1_555
O3A C12A 1_555 1_555
O4A C12A 1_555 1_555
C7A C7 1_555 1_555
C8A C7A 1_555 1_555
H4A C8A 1_555 1_555
C9A C8A 1_555 1_555
C10A C9A 1_555 1_555
H5A C10A 1_555 1_555
C11A C7 1_555 1_555
H6A C11A 1_555 1_555
C12A C9A 1_555 1_555
O5A C18A 1_555 1_555
O6A C18A 1_555 1_555
C13A C17 1_555 1_555
H7A C13A 1_555 1_555
C14A C13A 1_555 1_555
H8A C14A 1_555 1_555
C15A C14A 1_555 1_555
C16A C15A 1_555 1_555
H9A C16A 1_555 1_555
C17A C13 1_555 1_555
C18A C15A 1_555 1_555
O7A C24A 1_555 1_555
O8A C24A 1_555 1_555
C19A C23 1_555 1_555
H10A C19A 1_555 1_555
C20A C19A 1_555 1_555
C21A C20A 1_555 1_555
H11A C21A 1_555 1_555
C22A C21A 1_555 1_555
H12A C22A 1_555 1_555
C23A C19 1_555 1_555
C24A C20A 1_555 1_555
Cd1A O1A 1_555 1_555
Cd2A O2A 1_555 1_555
O9A Cd1A 1_555 1_555
N1A Cd2A 1_555 1_555
N2A C35A 1_555 1_555
N3A C38A 1_555 1_555
C25A N1A 1_555 1_555
H13A C25A 1_555 1_555
C26A C25A 1_555 1_555
H14A C26A 1_555 1_555
C27A C26A 1_555 1_555
C28A C27A 1_555 1_555
H15A C28A 1_555 1_555
C29A N1A 1_555 1_555
H16A C29A 1_555 1_555
C30A C27A 1_555 1_555
H17A C30A 1_555 1_555
H18A C30A 1_555 1_555
C31A C30A 1_555 1_555
H19A C31A 1_555 1_555
H20A C31A 1_555 1_555
C32A C31A 1_555 1_555
H21A C32A 1_555 1_555
H22A C32A 1_555 1_555
C33A C32A 1_555 1_555
C34A C33A 1_555 1_555
H23A C34A 1_555 1_555
C35A C34A 1_555 1_555
H24A C35A 1_555 1_555
C36A N2A 1_555 1_555
H25A C36A 1_555 1_555
C37A C33A 1_555 1_555
H26A C37A 1_555 1_555
C38A O9A 1_555 1_555
H27A C38A 1_555 1_555
C39A N3A 1_555 1_555
H28A C39A 1_555 1_555
H29A C39A 1_555 1_555
H30A C39A 1_555 1_555
C40A N3A 1_555 1_555
H31A C40A 1_555 1_555
H32A C40A 1_555 1_555
H33A C40A 1_555 1_555
Cd1_2 N2 1_555 1_555
Cd1A_2 O5A 1_555 1_555
Cd1A_3 N2A 1_555 1_555
Cd1A_4 O3A 1_555 1_555
Cd2A_2 O5A 1_555 1_555
Cd2A_3 O7A 1_555 1_555
Cd2A_4 O4A 1_555 1_555
O3A_2 Cd1A 1_555 1_555
O4A_2 Cd2A 1_555 1_555
O5A_2 Cd1A 1_555 1_555
O6A_2 Cd1A 1_555 1_555
O7A_2 Cd2A 1_555 1_555
O8A_2 Cd2A 1_555 1_555
N2_2 Cd1 1_555 1_555
N2A_2 Cd1A 1_555 1_555
Cd2 O5 1_555 1_555
O4 C12 1_555 1_555
O6 C18 1_555 1_555
O8 C24 1_555 1_555
C6 C5A 1_555 1_555
C9 C12 1_555 1_555
C11 C7A 1_555 1_555
C15 C18 1_555 1_555
C17 C17A 1_555 1_555
C20 C24 1_555 1_555
C23 C23A 1_555 1_555
C28 C29 1_555 1_555
C36 C37 1_555 1_555
C3A C6A 1_555 1_555
C4A C5A 1_555 1_555
C10A C11A 1_555 1_555
O6A Cd1A_2 1_555 1_555
C16A C17A 1_555 1_555
O8A Cd2A_3 1_555 1_555
C22A C23A 1_555 1_555
Cd2A O5A_2 1_555 1_555
C28A C29A 1_555 1_555
C36A C37A 1_555 1_555

#END
