
#######################################################################
#
#                 Cambridge Crystallographic Data Centre
#                                CCDC 
#
#######################################################################
#
# If this CIF has been generated from an entry in the Cambridge 
# Structural Database, then it will include bibliographic, chemical, 
# crystal, experimental, refinement or atomic coordinate data resulting 
# from the CCDC's data processing and validation procedures.
#
#######################################################################

data_MUZWAH
_chemical_formula_moiety         '(C58 H45 Cd3 N2 O15)n'
_symmetry_cell_setting           monoclinic
_symmetry_space_group_name_H-M   'P 21/m'
_symmetry_Int_Tables_number      11
_space_group_name_Hall           '-P 2yb'
loop_
_symmetry_equiv_pos_site_id
_symmetry_equiv_pos_as_xyz
1 x,y,z
2 -x,1/2+y,-z
3 -x,-y,-z
4 x,1/2-y,z
_cell_length_a                   9.6310(8)
_cell_length_b                   29.244(3)
_cell_length_c                   13.4391(11)
_cell_angle_alpha                90
_cell_angle_beta                 93.1470(10)
_cell_angle_gamma                90
_cell_volume                     3779.4
loop_
_atom_site_label
_atom_site_type_symbol
_atom_site_fract_x
_atom_site_fract_y
_atom_site_fract_z
Cd1 Cd 0.15305(7) 0.53227(2) 0.46185(5)
Cd2 Cd 0.5000 0.5000 0.5000
N1 N 0.1062(10) 0.5904(2) 0.5741(6)
O1 O 0.1808(8) 0.4781(2) 0.3465(4)
O2 O 0.4089(8) 0.4665(2) 0.3679(5)
O3 O 0.3018(7) 0.4942(2) -0.4040(4)
O4 O 0.0849(6) 0.47329(18) -0.4230(4)
O5 O 0.213(2) 0.3135(4) -0.0380(10)
H1 H 0.1338 0.3189 -0.0215
O6 O 0.2256(8) 0.5875(2) 0.3546(5)
O7 O 0.4000(7) 0.5692(2) 0.4567(5)
O8 O 0.663(15) 0.7500 0.161(4)
H2 H 0.6786 0.7241 0.1412
C1 C 0.2927(13) 0.4607(3) 0.3224(7)
C2 C 0.2886(11) 0.4304(3) 0.2337(6)
C3 C 0.4087(12) 0.4148(3) 0.1980(7)
H3 H 0.4929 0.4213 0.2323
C4 C 0.4079(13) 0.3890(3) 0.1108(8)
H4 H 0.4913 0.3792 0.0861
C5 C 0.2873(14) 0.3783(3) 0.0627(7)
C6 C 0.1646(13) 0.3926(3) 0.0968(7)
H5 H 0.0807 0.3851 0.0633
C7 C 0.1677(11) 0.4192(3) 0.1841(7)
H6 H 0.0844 0.4293 0.2082
C8 C 0.2009(10) 0.4710(3) -0.3770(6)
C9 C 0.2222(10) 0.4401(3) -0.2879(6)
C10 C 0.3457(11) 0.4383(3) -0.2334(7)
H7 H 0.4187 0.4568 -0.2516
C11 C 0.3651(12) 0.4101(4) -0.1526(7)
H8 H 0.4497 0.4103 -0.1157
C12 C 0.2637(13) 0.3824(3) -0.1263(7)
C13 C 0.1390(12) 0.3829(3) -0.1782(7)
H9 H 0.0678 0.3637 -0.1600
C14 C 0.1178(11) 0.4133(3) -0.2614(7)
H10 H 0.0321 0.4143 -0.2968
C15 C 0.289(2) 0.3535(4) -0.0358(8)
H11 H 0.3857 0.3433 -0.0394
C16 C 0.3489(13) 0.5935(3) 0.3888(8)
C17 C 0.4290(12) 0.6321(3) 0.3549(8)
C18 C 0.3830(12) 0.6566(3) 0.2713(9)
H12 H 0.3002 0.6487 0.2368
C19 C 0.4629(14) 0.6939(3) 0.2387(8)
H13 H 0.4326 0.7103 0.1823
C20 C 0.5851(14) 0.7060(4) 0.2899(10)
C21 C 0.6272(13) 0.6824(4) 0.3689(10)
H14 H 0.7090 0.6907 0.4043
C22 C 0.5508(13) 0.6446(3) 0.4012(8)
H15 H 0.5853 0.6278 0.4559
C23 C 0.665(2) 0.7500 0.2664(15)
H16 H 0.7596 0.7500 0.2968
C24 C 0.2006(12) 0.6045(3) 0.6403(8)
H17 H 0.2848 0.5889 0.6458
C25 C 0.1827(14) 0.6411(4) 0.7023(8)
H18 H 0.2538 0.6497 0.7482
C26 C 0.0639(16) 0.6644(4) 0.6969(8)
C27 C -0.0394(14) 0.6503(4) 0.6299(9)
H19 H -0.1257 0.6647 0.6261
C28 C -0.0117(13) 0.6140(3) 0.5679(8)
H20 H -0.0794 0.6057 0.5192
C29 C 0.0396(13) 0.7068(3) 0.7593(8)
H21 H -0.0547 0.7062 0.7812
H22 H 0.1026 0.7063 0.8181
C30 C 0.0614(18) 0.7500 0.7030(11)
H23 H 0.1555 0.7500 0.6809
H24 H -0.0013 0.7500 0.6441
N1C N 0.1062(10) 0.9096(2) 0.5741(6)
C24C C 0.2006(12) 0.8955(3) 0.6403(8)
H17C H 0.2848 0.9111 0.6458
C25C C 0.1827(14) 0.8589(4) 0.7023(8)
H18C H 0.2538 0.8503 0.7482
C26C C 0.0639(16) 0.8356(4) 0.6969(8)
C27C C -0.0394(14) 0.8497(4) 0.6299(9)
H19C H -0.1257 0.8353 0.6261
C28C C -0.0117(13) 0.8860(3) 0.5679(8)
H20C H -0.0794 0.8943 0.5192
C29C C 0.0396(13) 0.7932(3) 0.7593(8)
H21C H -0.0547 0.7938 0.7812
H22C H 0.1026 0.7937 0.8181
O6C O 0.2256(8) 0.9125(2) 0.3546(5)
O7C O 0.4000(7) 0.9308(2) 0.4567(5)
H2C H 0.6786 0.7759 0.1412
C16C C 0.3489(13) 0.9065(3) 0.3888(8)
C17C C 0.4290(12) 0.8679(3) 0.3549(8)
C18C C 0.3830(12) 0.8434(3) 0.2713(9)
H12C H 0.3002 0.8513 0.2368
C19C C 0.4629(14) 0.8061(3) 0.2387(8)
H13C H 0.4326 0.7897 0.1823
C20C C 0.5851(14) 0.7940(4) 0.2899(10)
C21C C 0.6272(13) 0.8176(4) 0.3689(10)
H14C H 0.7090 0.8093 0.4043
C22C C 0.5508(13) 0.8554(3) 0.4012(8)
H15C H 0.5853 0.8722 0.4559
Cd1B Cd -0.15305(7) 0.46773(2) -0.46185(5)
O1B O -0.1808(8) 0.5219(2) -0.3465(4)
O2B O -0.4089(8) 0.5335(2) -0.3679(5)
O3B O -0.3018(7) 0.5058(2) 0.4040(4)
O4B O -0.0849(6) 0.52671(18) 0.4230(4)
O5B O -0.213(2) 0.6865(4) 0.0380(10)
H1B H -0.1338 0.6811 0.0215
C1B C -0.2927(13) 0.5393(3) -0.3224(7)
C2B C -0.2886(11) 0.5696(3) -0.2337(6)
C3B C -0.4087(12) 0.5852(3) -0.1980(7)
H3B H -0.4929 0.5787 -0.2323
C4B C -0.4079(13) 0.6110(3) -0.1108(8)
H4B H -0.4913 0.6208 -0.0861
C5B C -0.2873(14) 0.6217(3) -0.0627(7)
C6B C -0.1646(13) 0.6074(3) -0.0968(7)
H5B H -0.0807 0.6149 -0.0633
C7B C -0.1677(11) 0.5808(3) -0.1841(7)
H6B H -0.0844 0.5707 -0.2082
C8B C -0.2009(10) 0.5290(3) 0.3770(6)
C9B C -0.2222(10) 0.5599(3) 0.2879(6)
C10B C -0.3457(11) 0.5617(3) 0.2334(7)
H7B H -0.4187 0.5432 0.2516
C11B C -0.3651(12) 0.5899(4) 0.1526(7)
H8B H -0.4497 0.5897 0.1157
C12B C -0.2637(13) 0.6176(3) 0.1263(7)
C13B C -0.1390(12) 0.6171(3) 0.1782(7)
H9B H -0.0678 0.6363 0.1600
C14B C -0.1178(11) 0.5867(3) 0.2614(7)
H10B H -0.0321 0.5857 0.2968
C15B C -0.289(2) 0.6465(4) 0.0358(8)
H11B H -0.3857 0.6567 0.0394
Cd1_2 Cd 0.15305(7) 0.53227(2) -0.53815(5)
Cd1B_2 Cd -0.15305(7) 0.46773(2) 0.53815(5)
Cd1C Cd 0.15305(7) 0.96773(2) 0.46185(5)
Cd2_2 Cd -0.5000 0.5000 -0.5000
Cd2_3 Cd -0.5000 0.5000 0.5000
Cd2_4 Cd 0.5000 0.5000 -0.5000
Cd2A Cd 0.5000 1.0000 0.5000
N1B N -0.1062(10) 0.4096(2) -0.5741(6)
O2B_2 O 0.5911(8) 0.5335(2) 0.6321(5)
O3_2 O 0.3018(7) 0.4942(2) 0.5960(4)
O3B_2 O -0.3018(7) 0.5058(2) -0.5960(4)
O3B_3 O 0.6982(7) 0.5058(2) 0.4040(4)
O4_2 O 0.0849(6) 0.47329(18) 0.5770(4)
O4B_2 O -0.0849(6) 0.52671(18) -0.5770(4)
O6B O -0.2256(8) 0.4125(2) -0.3546(5)
O7B O -0.4000(7) 0.4308(2) -0.4567(5)
O7B_2 O 0.6000(7) 0.4308(2) 0.5433(5)
loop_
_geom_bond_atom_site_label_1
_geom_bond_atom_site_label_2
_geom_bond_site_symmetry_1
_geom_bond_site_symmetry_2
Cd1 N1 1_555 1_555
Cd2 O2 1_555 1_555
N1 C24 1_555 1_555
O1 Cd1 1_555 1_555
O2 C1 1_555 1_555
O3 C8 1_555 1_555
O4 C8 1_555 1_555
O5 H1 1_555 1_555
O6 Cd1 1_555 1_555
O7 Cd1 1_555 1_555
O8 H2 1_555 1_555
C1 O1 1_555 1_555
C2 C1 1_555 1_555
C3 C2 1_555 1_555
H3 C3 1_555 1_555
C4 C3 1_555 1_555
H4 C4 1_555 1_555
C5 C4 1_555 1_555
C6 C5 1_555 1_555
H5 C6 1_555 1_555
C7 C2 1_555 1_555
H6 C7 1_555 1_555
C8 C9 1_555 1_555
C9 C10 1_555 1_555
C10 H7 1_555 1_555
C11 C10 1_555 1_555
H8 C11 1_555 1_555
C12 C11 1_555 1_555
C13 C12 1_555 1_555
H9 C13 1_555 1_555
C14 C9 1_555 1_555
H10 C14 1_555 1_555
C15 O5 1_555 1_555
H11 C15 1_555 1_555
C16 O6 1_555 1_555
C17 C16 1_555 1_555
C18 C17 1_555 1_555
H12 C18 1_555 1_555
C19 C18 1_555 1_555
H13 C19 1_555 1_555
C20 C19 1_555 1_555
C21 C20 1_555 1_555
H14 C21 1_555 1_555
C22 C17 1_555 1_555
H15 C22 1_555 1_555
C23 O8 1_555 1_555
H16 C23 1_555 1_555
C24 H17 1_555 1_555
C25 C24 1_555 1_555
H18 C25 1_555 1_555
C26 C25 1_555 1_555
C27 C26 1_555 1_555
H19 C27 1_555 1_555
C28 N1 1_555 1_555
H20 C28 1_555 1_555
C29 C26 1_555 1_555
H21 C29 1_555 1_555
H22 C29 1_555 1_555
C30 C29 1_555 1_555
H23 C30 1_555 1_555
H24 C30 1_555 1_555
N1C C24C 1_555 1_555
C24C H17C 1_555 1_555
C25C C24C 1_555 1_555
H18C C25C 1_555 1_555
C26C C25C 1_555 1_555
C27C C26C 1_555 1_555
H19C C27C 1_555 1_555
C28C N1C 1_555 1_555
H20C C28C 1_555 1_555
C29C C30 1_555 1_555
H21C C29C 1_555 1_555
H22C C29C 1_555 1_555
O6C C16C 1_555 1_555
O7C C16C 1_555 1_555
H2C O8 1_555 1_555
C16C C17C 1_555 1_555
C17C C18C 1_555 1_555
C18C H12C 1_555 1_555
C19C C18C 1_555 1_555
H13C C19C 1_555 1_555
C20C C23 1_555 1_555
C21C C20C 1_555 1_555
H14C C21C 1_555 1_555
C22C C17C 1_555 1_555
H15C C22C 1_555 1_555
Cd1B O4 1_555 1_555
O1B Cd1B 1_555 1_555
O2B C1B 1_555 1_555
O3B C8B 1_555 1_555
O4B Cd1 1_555 1_555
O5B H1B 1_555 1_555
C1B O1B 1_555 1_555
C2B C1B 1_555 1_555
C3B C2B 1_555 1_555
H3B C3B 1_555 1_555
C4B C3B 1_555 1_555
H4B C4B 1_555 1_555
C5B C4B 1_555 1_555
C6B C5B 1_555 1_555
H5B C6B 1_555 1_555
C7B C2B 1_555 1_555
H6B C7B 1_555 1_555
C8B O4B 1_555 1_555
C9B C8B 1_555 1_555
C10B C9B 1_555 1_555
H7B C10B 1_555 1_555
C11B C10B 1_555 1_555
H8B C11B 1_555 1_555
C12B C11B 1_555 1_555
C13B C12B 1_555 1_555
H9B C13B 1_555 1_555
C14B C9B 1_555 1_555
H10B C14B 1_555 1_555
C15B O5B 1_555 1_555
H11B C15B 1_555 1_555
Cd1_2 O3 1_555 1_555
Cd1B_2 O3B 1_555 1_555
Cd1C N1C 1_555 1_555
Cd2_2 O2B 1_555 1_555
Cd2_3 O3B 1_555 1_555
Cd2_4 O3 1_555 1_555
Cd2A O7C 1_555 1_555
N1B Cd1B 1_555 1_555
O2B_2 Cd2 1_555 1_555
O3_2 Cd1 1_555 1_555
O3B_2 Cd1B 1_555 1_555
O3B_3 Cd2 1_555 1_555
O4_2 Cd1 1_555 1_555
O4B_2 Cd1B 1_555 1_555
O6B Cd1B 1_555 1_555
O7B Cd1B 1_555 1_555
O7B_2 Cd2 1_555 1_555
Cd2 O7 1_555 1_555
Cd2 O3_2 1_555 1_555
O4 Cd1_2 1_555 1_555
O7 C16 1_555 1_555
C5 C15 1_555 1_555
C6 C7 1_555 1_555
C12 C15 1_555 1_555
C13 C14 1_555 1_555
C20 C23 1_555 1_555
C21 C22 1_555 1_555
C27 C28 1_555 1_555
C26C C29C 1_555 1_555
C27C C28C 1_555 1_555
O6C Cd1C 1_555 1_555
O7C Cd1C 1_555 1_555
C19C C20C 1_555 1_555
C21C C22C 1_555 1_555
O4B Cd1B_2 1_555 1_555
C5B C15B 1_555 1_555
C6B C7B 1_555 1_555
C12B C15B 1_555 1_555
C13B C14B 1_555 1_555
Cd1_2 O4B_2 1_555 1_555
Cd1B_2 O4_2 1_555 1_555
Cd2_2 O3B_2 1_555 1_555
Cd2_2 O7B 1_555 1_555

#END
