
#######################################################################
#
#                 Cambridge Crystallographic Data Centre
#                                CCDC 
#
#######################################################################
#
# If this CIF has been generated from an entry in the Cambridge 
# Structural Database, then it will include bibliographic, chemical, 
# crystal, experimental, refinement or atomic coordinate data resulting 
# from the CCDC's data processing and validation procedures.
#
#######################################################################

data_EBIZUN
_chemical_formula_moiety         '(C33 H51 Cu2 N1 O19)n'
_symmetry_cell_setting           rhombohedral
_symmetry_space_group_name_H-M   'R 3'
_symmetry_Int_Tables_number      146
_space_group_name_Hall           'R 3'
loop_
_symmetry_equiv_pos_site_id
_symmetry_equiv_pos_as_xyz
1 x,y,z
2 -y,x-y,z
3 -x+y,-x,z
4 2/3+x,1/3+y,1/3+z
5 2/3-y,1/3+x-y,1/3+z
6 2/3-x+y,1/3-x,1/3+z
7 1/3+x,2/3+y,2/3+z
8 1/3-y,2/3+x-y,2/3+z
9 1/3-x+y,2/3-x,2/3+z
_cell_length_a                   23.358(2)
_cell_length_b                   23.358(2)
_cell_length_c                   19.300(2)
_cell_angle_alpha                90
_cell_angle_beta                 90
_cell_angle_gamma                120
_cell_volume                     9119.25
loop_
_atom_site_label
_atom_site_type_symbol
_atom_site_fract_x
_atom_site_fract_y
_atom_site_fract_z
Cu1 Cu 0.06499(12) -1.46729(12) -0.00006(16)
Cu2 Cu -0.06506(17) -1.53241(17) -0.0268(2)
O1 O 0.1647(13) -1.4203(18) 0.031(2)
O2 O -0.1693(12) -1.5837(16) -0.0485(19)
O3 O 0.0663(12) -1.4058(12) -0.0684(12)
O4 O -0.0395(12) -1.4577(14) -0.0931(12)
O5 O -0.1276(9) -1.3739(10) -0.2661(10)
O6 O -0.0726(11) -1.2652(12) -0.2910(12)
O7 O 0.4055(12) -1.0677(12) -0.0714(12)
O8 O 0.4626(11) -0.9588(10) -0.0944(15)
O9 O 0.3736(10) -0.8708(8) -0.2667(10)
O10 O 0.2658(10) -0.9281(9) -0.2886(11)
C1 C 0.0168(15) -1.4138(14) -0.0990(16)
C2 C -0.0822(19) -1.313(2) -0.2570(15)
C3 C 0.0242(12) -1.3565(10) -0.1435(13)
C4 C -0.0305(9) -1.3626(8) -0.1787(12)
H1 H -0.0709 -1.4034 -0.1783
C5 C -0.0259(11) -1.3088(11) -0.2145(14)
C6 C 0.0333(14) -1.2490(10) -0.2152(18)
H2 H 0.0363 -1.2123 -0.2396
C7 C 0.0880(12) -1.2430(11) -0.180(2)
C8 C 0.0834(10) -1.2967(13) -0.1442(17)
H3 H 0.1208 -1.2926 -0.1201
C9 C 0.197(5) -1.157(2) -0.210(6)
H4 H 0.1895 -1.1551 -0.2603
H5 H 0.2147 -1.1876 -0.2031
N1 N 0.140(4) -1.1783(18) -0.174(6)
H6 H 0.1358 -1.1507 -0.1458
C10 C 0.2443(11) -1.0911(10) -0.1839(19)
C11 C 0.2967(12) -1.0848(10) -0.1440(16)
H7 H 0.2925 -1.1217 -0.1189
C12 C 0.3553(9) -1.0245(11) -0.1409(12)
C13 C 0.3614(8) -0.9705(9) -0.1776(12)
H8 H 0.4014 -0.9293 -0.1754
C14 C 0.3090(11) -0.9768(10) -0.2175(13)
C15 C 0.2504(10) -1.0372(13) -0.2206(16)
H9 H 0.2146 -1.0415 -0.2479
C16 C 0.4116(13) -1.0143(15) -0.0944(17)
C17 C 0.315(2) -0.9214(17) -0.2630(18)
Cu1B Cu 0.46772(17) -1.06499(12) -0.00006(16)
Cu1F Cu 0.39832(12) -0.80062(12) -0.33339(16)
Cu1H Cu -0.19895(17) -1.39832(12) -0.33339(16)
Cu2B Cu 0.53265(24) -0.93494(17) -0.0268(2)
Cu2F Cu 0.26827(17) -0.86574(17) -0.3601(2)
Cu2H Cu -0.13402(24) -1.26827(17) -0.3601(2)
O5D O 0.0406(10) -1.4204(13) 0.0672(10)
O6D O -0.0681(12) -1.4741(16) 0.0423(12)
O7A O 0.0677(12) -1.5268(17) -0.0714(12)
O8A O -0.0412(10) -1.5786(15) -0.0944(15)
O9C O 0.0403(10) -1.5375(8) 0.0666(10)
O10C O -0.0675(10) -1.5948(9) 0.0447(11)
O11 O 0.236(3) -1.284(2) -0.096(2)
O12 O 0.2012(13) -1.2016(15) 0.038(2)
O13 O 0.1341(7) -1.1339(7) -0.0022(12)
O14 O 0.0218(17) -1.141(2) -0.1316(18)
O15 O 0.0637(17) -1.0936(19) -0.2984(18)
O16 O 0.1643(17) -1.1411(15) -0.3968(16)
C18 C 0.232(4) -1.229(3) -0.068(2)
H10 H 0.1883 -1.2342 -0.0787
H11 H 0.2664 -1.1874 -0.0894
C19 C 0.242(2) -1.225(3) 0.009(3)
H12 H 0.2288 -1.2698 0.0277
H13 H 0.2889 -1.1951 0.0204
C20 C 0.1331(16) -1.2364(14) 0.021(3)
H14 H 0.1068 -1.2445 0.0640
H15 H 0.1214 -1.2797 0.0007
C21 C 0.117(2) -1.1983(14) -0.029(2)
H16 H 0.1406 -1.1932 -0.0725
H17 H 0.0687 -1.2232 -0.0385
C22 C 0.0993(19) -1.1040(15) -0.035(2)
H18 H 0.1268 -1.0743 -0.0728
H19 H 0.0913 -1.0773 -0.0007
C23 C 0.0349(16) -1.156(3) -0.064(2)
H20 H 0.0351 -1.1986 -0.0659
H21 H -0.0012 -1.1625 -0.0322
C24 C 0.072(3) -1.125(4) -0.183(2)
H22 H 0.0620 -1.1658 -0.2096
H23 H 0.1158 -1.1090 -0.1602
C25 C 0.075(3) -1.074(2) -0.2306(19)
H24 H 0.0410 -1.0624 -0.2159
H25 H 0.1186 -1.0333 -0.2267
C26 C 0.109(2) -1.0861(18) -0.3484(18)
H26 H 0.1472 -1.0403 -0.3471
H27 H 0.0887 -1.0939 -0.3948
C27 C 0.1335(7) -1.1338(7) -0.3360(8)
H28 H 0.1656 -1.1177 -0.2973
H29 H 0.0958 -1.1774 -0.3227
C28 C 0.181(3) -1.190(2) -0.403(3)
H30 H 0.2268 -1.1734 -0.3854
H31 H 0.1810 -1.2014 -0.4527
C29 C 0.135(2) -1.2518(19) -0.364(3)
H32 H 0.1111 -1.2409 -0.3282
H33 H 0.1012 -1.2845 -0.3961
C30 C 0.171(3) -1.281(3) -0.330(2)
H34 H 0.2071 -1.2756 -0.3614
H35 H 0.1409 -1.3285 -0.3228
C31 C 0.200(4) -1.248(3) -0.263(3)
H36 H 0.2474 -1.2159 -0.2680
H37 H 0.1778 -1.2227 -0.2472
C32 C 0.190(3) -1.298(3) -0.210(3)
H38 H 0.1544 -1.3036 -0.1773
H39 H 0.1751 -1.3408 -0.2329
C33 C 0.251(3) -1.279(3) -0.170(2)
H40 H 0.2679 -1.3091 -0.1818
H41 H 0.2851 -1.2334 -0.1819
O17 O 0.3333 -1.3333 -0.0313(14)
O18 O -0.3333 -1.6667 -0.0238(13)
O19 O 0.0000 -1.0000 -0.0285(15)
loop_
_geom_bond_atom_site_label_1
_geom_bond_atom_site_label_2
_geom_bond_site_symmetry_1
_geom_bond_site_symmetry_2
Cu1 O1 1_555 1_555
Cu2 O2 1_555 1_555
O3 Cu1 1_555 1_555
O4 Cu2 1_555 1_555
O5 C2 1_555 1_555
O6 C2 1_555 1_555
O7 C16 1_555 1_555
O8 C16 1_555 1_555
O9 C17 1_555 1_555
O10 C17 1_555 1_555
C1 O3 1_555 1_555
C2 C5 1_555 1_555
C3 C1 1_555 1_555
C4 C3 1_555 1_555
H1 C4 1_555 1_555
C5 C4 1_555 1_555
C6 C5 1_555 1_555
H2 C6 1_555 1_555
C7 C6 1_555 1_555
C8 C3 1_555 1_555
H3 C8 1_555 1_555
C9 H4 1_555 1_555
H5 C9 1_555 1_555
N1 C7 1_555 1_555
H6 N1 1_555 1_555
C10 C9 1_555 1_555
C11 C10 1_555 1_555
H7 C11 1_555 1_555
C12 C11 1_555 1_555
C13 C12 1_555 1_555
H8 C13 1_555 1_555
C14 C13 1_555 1_555
C15 C10 1_555 1_555
H9 C15 1_555 1_555
C16 C12 1_555 1_555
C17 C14 1_555 1_555
O11 C18 1_555 1_555
O12 C19 1_555 1_555
O13 C21 1_555 1_555
O14 C23 1_555 1_555
O15 C25 1_555 1_555
O16 C27 1_555 1_555
C18 H10 1_555 1_555
H11 C18 1_555 1_555
C19 C18 1_555 1_555
H12 C19 1_555 1_555
H13 C19 1_555 1_555
C20 O12 1_555 1_555
H14 C20 1_555 1_555
H15 C20 1_555 1_555
C21 C20 1_555 1_555
H16 C21 1_555 1_555
H17 C21 1_555 1_555
C22 O13 1_555 1_555
H18 C22 1_555 1_555
H19 C22 1_555 1_555
C23 C22 1_555 1_555
H20 C23 1_555 1_555
H21 C23 1_555 1_555
C24 O14 1_555 1_555
H22 C24 1_555 1_555
H23 C24 1_555 1_555
C25 C24 1_555 1_555
H24 C25 1_555 1_555
H25 C25 1_555 1_555
C26 O15 1_555 1_555
H26 C26 1_555 1_555
H27 C26 1_555 1_555
C27 C26 1_555 1_555
H28 C27 1_555 1_555
H29 C27 1_555 1_555
C28 O16 1_555 1_555
H30 C28 1_555 1_555
H31 C28 1_555 1_555
C29 C28 1_555 1_555
H32 C29 1_555 1_555
H33 C29 1_555 1_555
C30 C29 1_555 1_555
H34 C30 1_555 1_555
H35 C30 1_555 1_555
C31 C30 1_555 1_555
H36 C31 1_555 1_555
H37 C31 1_555 1_555
C32 C31 1_555 1_555
H38 C32 1_555 1_555
H39 C32 1_555 1_555
C33 O11 1_555 1_555
H40 C33 1_555 1_555
H41 C33 1_555 1_555
Cu1B O7 1_555 1_555
Cu1F O9 1_555 1_555
Cu1H O5 1_555 1_555
Cu2B O8 1_555 1_555
Cu2F O10 1_555 1_555
Cu2H O6 1_555 1_555
O5D Cu1 1_555 1_555
O6D Cu2 1_555 1_555
O7A Cu1 1_555 1_555
O8A Cu2 1_555 1_555
O9C Cu1 1_555 1_555
O10C Cu2 1_555 1_555
O4 C1 1_555 1_555
C7 C8 1_555 1_555
C9 N1 1_555 1_555
C14 C15 1_555 1_555
C32 C33 1_555 1_555

#END
