
#######################################################################
#
#                 Cambridge Crystallographic Data Centre
#                                CCDC 
#
#######################################################################
#
# If this CIF has been generated from an entry in the Cambridge 
# Structural Database, then it will include bibliographic, chemical, 
# crystal, experimental, refinement or atomic coordinate data resulting 
# from the CCDC's data processing and validation procedures.
#
#######################################################################

data_RUKHAI
_chemical_formula_moiety         'C62 H57 Cu20 N8 O45'
_symmetry_cell_setting           tetragonal
_symmetry_space_group_name_H-M   'I 4/m'
_symmetry_Int_Tables_number      87
_space_group_name_Hall           '-I 4'
loop_
_symmetry_equiv_pos_site_id
_symmetry_equiv_pos_as_xyz
1 x,y,z
2 -x,-y,z
3 -y,x,z
4 y,-x,z
5 1/2+x,1/2+y,1/2+z
6 1/2-x,1/2-y,1/2+z
7 1/2-y,1/2+x,1/2+z
8 1/2+y,1/2-x,1/2+z
9 -x,-y,-z
10 x,y,-z
11 y,-x,-z
12 -y,x,-z
13 1/2-x,1/2-y,1/2-z
14 1/2+x,1/2+y,1/2-z
15 1/2+y,1/2-x,1/2-z
16 1/2-y,1/2+x,1/2-z
_cell_length_a                   26.1284(6)
_cell_length_b                   26.1284(6)
_cell_length_c                   34.1663(9)
_cell_angle_alpha                90
_cell_angle_beta                 90
_cell_angle_gamma                90
_cell_volume                     23325.1
loop_
_atom_site_label
_atom_site_type_symbol
_atom_site_fract_x
_atom_site_fract_y
_atom_site_fract_z
_atom_site_U_iso_or_equiv
_atom_site_thermal_displace_type
Cu1 Cu 0.59977(3) 0.23092(3) 0.78121(2) 0.0462 Uani
O1 O 0.75442(16) -0.03633(14) 0.74371(12) 0.0580 Uani
O2 O 0.62382(16) 0.17873(17) 0.73668(14) 0.0697 Uani
O3 O 0.65934(14) 0.21854(14) 0.81539(11) 0.0503 Uani
Cu2 Cu 0.57499(3) 0.29635(3) 0.83657(2) 0.0448 Uani
O4 O 0.86525(14) 0.20993(14) 0.74319(11) 0.0523 Uani
C1 C 0.7858(2) -0.0069(2) 0.72733(18) 0.0567 Uani
C2 C 0.6668(3) 0.1823(3) 0.7229(2) 0.0763 Uani
C3 C 0.6677(2) 0.2429(2) 0.84648(17) 0.0490 Uani
O5 O 0.80757(19) -0.01400(15) 0.69501(12) 0.0693 Uani
O6 O 0.63907(15) 0.27691(15) 0.86085(12) 0.0597 Uani
C4 C 0.8013(2) 0.0408(2) 0.74951(17) 0.0547 Uani
N1 N 0.6904(2) 0.1545(3) 0.69860(19) 0.0850 Uani
H1 H 0.6858 0.2109 0.7320 0.0920 Uiso
C5 C 0.7150(2) 0.2306(2) 0.86888(16) 0.0497 Uani
C6 C 0.7896(2) 0.0462(2) 0.78844(17) 0.0547 Uani
C7 C 0.8284(2) 0.0793(2) 0.72986(18) 0.0557 Uani
C8 C 0.6689(7) 0.1004(6) 0.6913(5) 0.2110 Uani
C9 C 0.7375(4) 0.1577(6) 0.6809(4) 0.1680 Uani
C10 C 0.7435(2) 0.1870(2) 0.86001(16) 0.0517 Uani
C11 C 0.7311(2) 0.2632(2) 0.89857(16) 0.0517 Uani
C12 C 0.8044(2) 0.0887(2) 0.80927(17) 0.0517 Uani
H2 H 0.7709 0.0199 0.8013 0.0660 Uiso
H3 H 0.8382 0.0750 0.7033 0.0660 Uiso
C13 C 0.8407(2) 0.1237(2) 0.74980(17) 0.0523 Uani
H4 H 0.6356 0.0970 0.7042 0.3160 Uiso
H5 H 0.6926 0.0749 0.7020 0.3160 Uiso
H6 H 0.6650 0.0948 0.6631 0.3160 Uiso
H7 H 0.7514 0.1922 0.6845 0.2520 Uiso
H8 H 0.7340 0.1504 0.6529 0.2520 Uiso
H9 H 0.7608 0.1327 0.6928 0.2520 Uiso
H10 H 0.7325 0.1646 0.8398 0.0620 Uiso
C14 C 0.7880(2) 0.1763(2) 0.88094(15) 0.0530 Uani
C15 C 0.7767(2) 0.2542(2) 0.91780(15) 0.0490 Uani
H11 H 0.7106 0.2917 0.9057 0.0620 Uiso
N2 N 0.7941(2) 0.0897(2) 0.85102(17) 0.0767 Uani
C16 C 0.8282(2) 0.1282(2) 0.78932(17) 0.0523 Uani
C17 C 0.8664(2) 0.1662(2) 0.72785(17) 0.0483 Uani
C18 C 0.8050(2) 0.2105(2) 0.90891(16) 0.0510 Uani
C19 C 0.8169(2) 0.1297(2) 0.87459(17) 0.0573 Uani
C20 C 0.7958(2) 0.2905(2) 0.94794(16) 0.0533 Uani
H12 H 0.7743 0.0664 0.8618 0.0920 Uiso
H13 H 0.8361 0.1590 0.8028 0.0630 Uiso
O7 O 0.88806(17) 0.15438(14) 0.69647(12) 0.0617 Uani
H14 H 0.8363 0.2042 0.9222 0.0620 Uiso
H15 H 0.8498 0.1393 0.8623 0.0690 Uiso
H16 H 0.8249 0.1149 0.9006 0.0690 Uiso
O8 O 0.76377(16) 0.32415(16) 0.95964(12) 0.0633 Uani
O9 O 0.84053(14) 0.28570(15) 0.96022(11) 0.0540 Uani
Cu3 Cu 0.77905(4) 0.37512(4) 1.0000 0.0471 Uani
Cu4 Cu 0.87014(4) 0.33081(4) 1.0000 0.0470 Uani
O10 O 0.56062(14) 0.18027(14) 0.81126(12) 0.0547 Uani
O11 O 0.41887(15) 0.19235(15) 0.95959(12) 0.0590 Uani
O12 O 0.38168(16) 0.11453(14) 0.95912(13) 0.0620 Uani
C21 C 0.4133(2) 0.1471(2) 0.94714(18) 0.0557 Uani
C22 C 0.4470(2) 0.1314(2) 0.91321(19) 0.0577 Uani
C23 C 0.4468(2) 0.0811(2) 0.9001(2) 0.0727 Uani
C24 C 0.4783(2) 0.1672(2) 0.89494(17) 0.0507 Uani
H17 H 0.4247 0.0569 0.9121 0.0870 Uiso
C25 C 0.4782(3) 0.0658(2) 0.8700(3) 0.0873 Uani
C26 C 0.5083(2) 0.1527(2) 0.8635(2) 0.0590 Uani
H18 H 0.4791 0.2016 0.9040 0.0610 Uiso
C27 C 0.5080(2) 0.1026(2) 0.8506(2) 0.0753 Uani
N3 N 0.4797(3) 0.0116(2) 0.8604(4) 0.1450 Uani
C28 C 0.5392(2) 0.1930(2) 0.84297(17) 0.0507 Uani
H19 H 0.5279 0.0930 0.8285 0.0900 Uiso
O13 O 0.54258(16) 0.23575(15) 0.85932(12) 0.0617 Uani
O14 O 0.5454(3) 0.3454(2) 0.88178(17) 0.1197 Uani
C29 C 0.4898(7) 0.3304(6) 0.8880(5) 0.1757 Uani
N4 N 0.4487(8) 0.3484(7) 0.9023(6) 0.2650 Uani
H20 H 0.4840 0.2969 0.8782 0.2110 Uiso
C30 C 0.4591(11) 0.3992(9) 0.9341(10) 0.4167 Uani
C31 C 0.4086(5) 0.3345(8) 0.9186(8) 0.3030 Uani
H21 H 0.4939 0.4124 0.9304 0.6270 Uiso
H22 H 0.4343 0.4265 0.9287 0.6270 Uiso
H23 H 0.4550 0.3875 0.9611 0.6270 Uiso
H24 H 0.3953 0.3039 0.9055 0.4540 Uiso
H25 H 0.4158 0.3266 0.9461 0.4540 Uiso
H26 H 0.3832 0.3620 0.9171 0.4540 Uiso
O15 O 0.7047(3) 0.4077(4) 1.0148(3) 0.0783 Uani
H27 H 0.7021 0.4368 1.0039 0.1000 Uiso
H28 H 0.6859 0.3888 1.0000 0.1100 Uiso
O16 O 0.9443(3) 0.2967(3) 1.0000 0.0850 Uani
H29 H 0.9707 0.3012 0.9858 0.0520 Uiso
O11A O 0.58113(15) -0.19235(15) 0.95959(12) 0.0590 Uani
O12A O 0.61832(16) -0.11453(14) 0.95912(13) 0.0620 Uani
C21A C 0.5867(2) -0.1471(2) 0.94714(18) 0.0557 Uani
C22A C 0.5530(2) -0.1314(2) 0.91321(19) 0.0577 Uani
C23A C 0.5532(2) -0.0811(2) 0.9001(2) 0.0727 Uani
C24A C 0.5217(2) -0.1672(2) 0.89494(17) 0.0507 Uani
H17A H 0.5753 -0.0569 0.9121 0.0870 Uiso
C25A C 0.5218(3) -0.0658(2) 0.8700(3) 0.0873 Uani
C26A C 0.4917(2) -0.1527(2) 0.8635(2) 0.0590 Uani
H18A H 0.5209 -0.2016 0.9040 0.0610 Uiso
C27A C 0.4920(2) -0.1026(2) 0.8506(2) 0.0753 Uani
N3A N 0.5203(3) -0.0116(2) 0.8604(4) 0.1450 Uani
C28A C 0.4608(2) -0.1930(2) 0.84297(17) 0.0507 Uani
H19A H 0.4721 -0.0930 0.8285 0.0900 Uiso
O13A O 0.45742(16) -0.23575(15) 0.85932(12) 0.0617 Uani
O10A O 0.43938(14) -0.18027(14) 0.81126(12) 0.0547 Uani
O15I O 0.7047(3) 0.4077(4) 0.9852(3) 0.0783 Uani
H27I H 0.7021 0.4368 0.9961 0.1000 Uiso
H29I H 0.9707 0.3012 1.0142 0.0520 Uiso
Cu1A Cu 0.40023(3) -0.23092(3) 0.78121(2) 0.0462 Uani
O1A O 0.24558(16) 0.03633(14) 0.74371(12) 0.0580 Uani
O2A O 0.37618(16) -0.17873(17) 0.73668(14) 0.0697 Uani
O3A O 0.34066(14) -0.21854(14) 0.81539(11) 0.0503 Uani
Cu2A Cu 0.42501(3) -0.29635(3) 0.83657(2) 0.0448 Uani
O4A O 0.13475(14) -0.20993(14) 0.74319(11) 0.0523 Uani
C1A C 0.2142(2) 0.0069(2) 0.72733(18) 0.0567 Uani
C2A C 0.3332(3) -0.1823(3) 0.7229(2) 0.0763 Uani
C3A C 0.3323(2) -0.2429(2) 0.84648(17) 0.0490 Uani
O5A O 0.19243(19) 0.01400(15) 0.69501(12) 0.0693 Uani
O6A O 0.36093(15) -0.27691(15) 0.86085(12) 0.0597 Uani
C4A C 0.1987(2) -0.0408(2) 0.74951(17) 0.0547 Uani
N1A N 0.3096(2) -0.1545(3) 0.69860(19) 0.0850 Uani
H1A H 0.3142 -0.2109 0.7320 0.0920 Uiso
C5A C 0.2850(2) -0.2306(2) 0.86888(16) 0.0497 Uani
C6A C 0.2104(2) -0.0462(2) 0.78844(17) 0.0547 Uani
C7A C 0.1716(2) -0.0793(2) 0.72986(18) 0.0557 Uani
C8A C 0.3311(7) -0.1004(6) 0.6913(5) 0.2110 Uani
C9A C 0.2625(4) -0.1577(6) 0.6809(4) 0.1680 Uani
C10A C 0.2565(2) -0.1870(2) 0.86001(16) 0.0517 Uani
C11A C 0.2689(2) -0.2632(2) 0.89857(16) 0.0517 Uani
C12A C 0.1956(2) -0.0887(2) 0.80927(17) 0.0517 Uani
H2A H 0.2291 -0.0199 0.8013 0.0660 Uiso
H3A H 0.1618 -0.0750 0.7033 0.0660 Uiso
C13A C 0.1593(2) -0.1237(2) 0.74980(17) 0.0523 Uani
H4A H 0.3644 -0.0970 0.7042 0.3160 Uiso
H5A H 0.3074 -0.0749 0.7020 0.3160 Uiso
H6A H 0.3350 -0.0948 0.6631 0.3160 Uiso
H7A H 0.2486 -0.1922 0.6845 0.2520 Uiso
H8A H 0.2660 -0.1504 0.6529 0.2520 Uiso
H9A H 0.2392 -0.1327 0.6928 0.2520 Uiso
H10A H 0.2675 -0.1646 0.8398 0.0620 Uiso
C14A C 0.2120(2) -0.1763(2) 0.88094(15) 0.0530 Uani
C15A C 0.2233(2) -0.2542(2) 0.91780(15) 0.0490 Uani
H11A H 0.2894 -0.2917 0.9057 0.0620 Uiso
N2A N 0.2059(2) -0.0897(2) 0.85102(17) 0.0767 Uani
C16A C 0.1718(2) -0.1282(2) 0.78932(17) 0.0523 Uani
C17A C 0.1336(2) -0.1662(2) 0.72785(17) 0.0483 Uani
C18A C 0.1950(2) -0.2105(2) 0.90891(16) 0.0510 Uani
C19A C 0.1831(2) -0.1297(2) 0.87459(17) 0.0573 Uani
C20A C 0.2042(2) -0.2905(2) 0.94794(16) 0.0533 Uani
H12A H 0.2257 -0.0664 0.8618 0.0920 Uiso
H13A H 0.1639 -0.1590 0.8028 0.0630 Uiso
O7A O 0.11194(17) -0.15438(14) 0.69647(12) 0.0617 Uani
H14A H 0.1637 -0.2042 0.9222 0.0620 Uiso
H15A H 0.1502 -0.1393 0.8623 0.0690 Uiso
H16A H 0.1751 -0.1149 0.9006 0.0690 Uiso
O8A O 0.23623(16) -0.32415(16) 0.95964(12) 0.0633 Uani
O9A O 0.15947(14) -0.28570(15) 0.96022(11) 0.0540 Uani
O14A O 0.4546(3) -0.3454(2) 0.88178(17) 0.1197 Uani
C29A C 0.5102(7) -0.3304(6) 0.8880(5) 0.1757 Uani
N4A N 0.5513(8) -0.3484(7) 0.9023(6) 0.2650 Uani
H20A H 0.5160 -0.2969 0.8782 0.2110 Uiso
C30A C 0.5409(11) -0.3992(9) 0.9341(10) 0.4167 Uani
C31A C 0.5914(5) -0.3345(8) 0.9186(8) 0.3030 Uani
H21A H 0.5061 -0.4124 0.9304 0.6270 Uiso
H22A H 0.5657 -0.4265 0.9287 0.6270 Uiso
H23A H 0.5450 -0.3875 0.9611 0.6270 Uiso
H24A H 0.6047 -0.3039 0.9055 0.4540 Uiso
H25A H 0.5842 -0.3266 0.9461 0.4540 Uiso
H26A H 0.6168 -0.3620 0.9171 0.4540 Uiso
Cu1L Cu 0.90023(3) 0.26908(3) 0.71879(2) 0.0462 Uani
Cu1M Cu 0.09977(3) -0.26908(3) 0.71879(2) 0.0462 Uani
Cu1N Cu 0.73092(3) -0.09977(3) 0.71879(2) 0.0462 Uani
Cu1O Cu 0.26908(3) 0.09977(3) 0.71879(2) 0.0462 Uani
O1N O 0.46367(14) -0.25442(16) 0.75629(12) 0.0580 Uani
O1O O 0.53633(14) 0.25442(16) 0.75629(12) 0.0580 Uani
Cu2L Cu 0.92501(3) 0.20365(3) 0.66343(2) 0.0448 Uani
Cu2M Cu 0.07499(3) -0.20365(3) 0.66343(2) 0.0448 Uani
Cu2N Cu 0.79635(3) -0.07499(3) 0.66343(2) 0.0448 Uani
Cu2O Cu 0.20365(3) 0.07499(3) 0.66343(2) 0.0448 Uani
O4L O 0.63475(14) 0.29007(14) 0.75681(11) 0.0523 Uani
O4M O 0.36525(14) -0.29007(14) 0.75681(11) 0.0523 Uani
O5N O 0.48600(15) -0.30757(19) 0.80499(12) 0.0693 Uani
O5O O 0.51400(15) 0.30757(19) 0.80499(12) 0.0693 Uani
O7L O 0.61194(17) 0.34562(14) 0.80353(12) 0.0617 Uani
O7M O 0.38806(17) -0.34562(14) 0.80353(12) 0.0617 Uani
O8I O 0.76377(16) 0.32415(16) 1.04036(12) 0.0633 Uani
O9I O 0.84053(14) 0.28570(15) 1.03978(11) 0.0540 Uani
Cu3A Cu 0.22095(4) -0.37512(4) 1.0000 0.0471 Uani
Cu3B Cu 0.62488(4) -0.22095(4) 1.0000 0.0471 Uani
Cu3C Cu 0.37512(4) 0.22095(4) 1.0000 0.0471 Uani
Cu4A Cu 0.12986(4) -0.33081(4) 1.0000 0.0470 Uani
Cu4B Cu 0.66919(4) -0.12986(4) 1.0000 0.0470 Uani
Cu4C Cu 0.33081(4) 0.12986(4) 1.0000 0.0470 Uani
O11B O 0.80765(15) 0.41887(15) 0.95959(12) 0.0590 Uani
O11K O 0.80765(15) 0.41887(15) 1.04041(12) 0.0590 Uani
O12B O 0.88547(14) 0.38168(16) 0.95912(13) 0.0620 Uani
O12K O 0.88547(14) 0.38168(16) 1.04088(13) 0.0620 Uani
loop_
_atom_site_aniso_label
_atom_site_aniso_U_11
_atom_site_aniso_U_22
_atom_site_aniso_U_33
_atom_site_aniso_U_23
_atom_site_aniso_U_13
_atom_site_aniso_U_12
Cu1 0.0420(4) 0.0474(5) 0.0491(5) -0.0142(3) 0.0030(3) 0.0019(3)
O1 0.073 0.042 0.059 -0.0033 0.016 -0.0105
O2 0.052(2) 0.076(3) 0.081(3) -0.037(2) 0.023(2) -0.005(2)
O3 0.047 0.054 0.05 -0.0078 -0.0049 0.0056
Cu2 0.0394 0.046 0.049 -0.0126 0.0034 -0.0011
O4 0.055 0.044 0.058 -0.0074 0.0031 -0.0012
C1 0.072 0.04 0.058 0.001 0.007 -0.002
C2 0.088(5) 0.071(4) 0.070(4) -0.002(4) 0.009(4) 0.012(4)
C3 0.047 0.046 0.054 -0.003 -0.003 -0.006
O5 0.098 0.052 0.058 -0.0083 0.021 -0.026
O6 0.053 0.061 0.065 -0.018 -0.011 0.0074
C4 0.061 0.046 0.057 -0.003 0.005 0.004
N1 0.082(4) 0.092(4) 0.081(4) -0.011(3) 0.034(3) 0.016(3)
C5 0.046 0.055 0.048 -0.004 -0.001 -0.001
C6 0.064 0.046 0.054 0.003 0.007 0.004
C7 0.069 0.045 0.053 0.001 0 -0.007
C8 0.234(18) 0.191(15) 0.208(16) -0.095(13) 0.074(14) -0.006(13)
C9 0.111(8) 0.241(15) 0.152(10) 0.056(10) 0.083(8) 0.076(9)
C10 0.056 0.054 0.045 -0.003 0.005 0.001
C11 0.055 0.048 0.052 -0.004 0 -0.001
C12 0.055 0.049 0.051 -0.002 -0.005 0.011
C13 0.054 0.047 0.056 -0.002 -0.003 -0.002
C14 0.057 0.061 0.041 0.003 0.002 0.009
C15 0.052 0.055 0.04 0.004 -0.003 -0.002
N2 0.093 0.073 0.064 0.001 0.004 0.015
C16 0.053 0.047 0.057 -0.003 -0.005 0.008
C17 0.046 0.045 0.054 -0.006 -0.004 -0.002
C18 0.05 0.061 0.042 0.004 -0.001 0.004
C19 0.068 0.062 0.042 -0.007 0 0.016
C20 0.056 0.058 0.046 0.003 -0.006 0.005
O7 0.084 0.043 0.058 -0.012 0.011 -0.011
O8 0.059 0.065 0.066 -0.013 -0.018 0.008
O9 0.051 0.059 0.052 -0.0045 -0.0049 0.005
Cu3 0.04 0.0499 0.0515 0 0 0.0099
Cu4 0.0386 0.0486 0.0537 0 0 0.0082
O10 0.051 0.049 0.064 -0.0176 0.0132 -0.0028
O11 0.061 0.052 0.064 0.0012 0.019 -0.0098
O12 0.062 0.047 0.077 0.004 0.023 -0.0078
C21 0.054 0.05 0.063 0.005 0.005 -0.001
C22 0.052 0.047 0.074 0.005 0.017 0.006
C23 0.057 0.045 0.116 0.002 0.029 -0.002
C24 0.043 0.044 0.065 -0.006 0.01 0
C25 0.055 0.042 0.165 -0.019 0.035 0.002
C26 0.046 0.046 0.085 -0.011 0.014 -0.007
C27 0.054 0.05 0.122 -0.028 0.032 -0.002
N3 0.082 0.044 0.309 -0.005 0.069 0.007
C28 0.042 0.048 0.062 -0.013 0.01 -0.006
O13 0.069 0.048 0.068 -0.014 0.027 -0.0131
O14 0.191 0.092 0.076 -0.03 0.014 0.059
C29 0.185 0.152 0.19 -0.049 0.08 0.021
N4 0.244 0.219 0.332 -0.102 0.134 0.01
C30 0.4 0.24 0.61 -0.24 -0.02 -0.04
C31 0.069 0.33 0.51 -0.25 0.067 -0.019
O15 0.051 0.081 0.103 -0.008 -0.006 0.025
O16 0.049 0.111 0.095 0 0 0.037
O11A 0.061 0.052 0.064 -0.0012 -0.019 -0.0098
O12A 0.062 0.047 0.077 -0.004 -0.023 -0.0078
C21A 0.054 0.05 0.063 -0.005 -0.005 -0.001
C22A 0.052 0.047 0.074 -0.005 -0.017 0.006
C23A 0.057 0.045 0.116 -0.002 -0.029 -0.002
C24A 0.043 0.044 0.065 0.006 -0.01 0
C25A 0.055 0.042 0.165 0.019 -0.035 0.002
C26A 0.046 0.046 0.085 0.011 -0.014 -0.007
C27A 0.054 0.05 0.122 0.028 -0.032 -0.002
N3A 0.082 0.044 0.309 0.005 -0.069 0.007
C28A 0.042 0.048 0.062 0.013 -0.01 -0.006
O13A 0.069 0.048 0.068 0.014 -0.027 -0.0131
O10A 0.051 0.049 0.064 0.0176 -0.0132 -0.0028
O15I 0.051 0.081 0.103 0.008 0.006 0.025
Cu1A 0.042 0.0474 0.0491 0.0142 -0.003 0.0019
O1A 0.073 0.042 0.059 0.0033 -0.016 -0.0105
O2A 0.052 0.076 0.081 0.037 -0.023 -0.005
O3A 0.047 0.054 0.05 0.0078 0.0049 0.0056
Cu2A 0.0394 0.046 0.049 0.0126 -0.0034 -0.0011
O4A 0.055 0.044 0.058 0.0074 -0.0031 -0.0012
C1A 0.072 0.04 0.058 -0.001 -0.007 -0.002
C2A 0.088 0.071 0.07 0.002 -0.009 0.012
C3A 0.047 0.046 0.054 0.003 0.003 -0.006
O5A 0.098 0.052 0.058 0.0083 -0.021 -0.026
O6A 0.053 0.061 0.065 0.018 0.011 0.0074
C4A 0.061 0.046 0.057 0.003 -0.005 0.004
N1A 0.082 0.092 0.081 0.011 -0.034 0.016
C5A 0.046 0.055 0.048 0.004 0.001 -0.001
C6A 0.064 0.046 0.054 -0.003 -0.007 0.004
C7A 0.069 0.045 0.053 -0.001 0 -0.007
C8A 0.234 0.191 0.208 0.095 -0.074 -0.006
C9A 0.111 0.241 0.152 -0.056 -0.083 0.076
C10A 0.056 0.054 0.045 0.003 -0.005 0.001
C11A 0.055 0.048 0.052 0.004 0 -0.001
C12A 0.055 0.049 0.051 0.002 0.005 0.011
C13A 0.054 0.047 0.056 0.002 0.003 -0.002
C14A 0.057 0.061 0.041 -0.003 -0.002 0.009
C15A 0.052 0.055 0.04 -0.004 0.003 -0.002
N2A 0.093 0.073 0.064 -0.001 -0.004 0.015
C16A 0.053 0.047 0.057 0.003 0.005 0.008
C17A 0.046 0.045 0.054 0.006 0.004 -0.002
C18A 0.05 0.061 0.042 -0.004 0.001 0.004
C19A 0.068 0.062 0.042 0.007 0 0.016
C20A 0.056 0.058 0.046 -0.003 0.006 0.005
O7A 0.084 0.043 0.058 0.012 -0.011 -0.011
O8A 0.059 0.065 0.066 0.013 0.018 0.008
O9A 0.051 0.059 0.052 0.0045 0.0049 0.005
O14A 0.191 0.092 0.076 0.03 -0.014 0.059
C29A 0.185 0.152 0.19 0.049 -0.08 0.021
N4A 0.244 0.219 0.332 0.102 -0.134 0.01
C30A 0.4 0.24 0.61 0.24 0.02 -0.04
C31A 0.069 0.33 0.51 0.25 -0.067 -0.019
Cu1L 0.042 0.0474 0.0491 -0.0142 0.003 0.0019
Cu1M 0.042 0.0474 0.0491 0.0142 -0.003 0.0019
Cu1N 0.0474 0.042 0.0491 0.003 0.0142 -0.0019
Cu1O 0.0474 0.042 0.0491 -0.003 -0.0142 -0.0019
O1N 0.042 0.073 0.059 0.016 0.0033 0.0105
O1O 0.042 0.073 0.059 -0.016 -0.0033 0.0105
Cu2L 0.0394 0.046 0.049 -0.0126 0.0034 -0.0011
Cu2M 0.0394 0.046 0.049 0.0126 -0.0034 -0.0011
Cu2N 0.046 0.0394 0.049 0.0034 0.0126 0.0011
Cu2O 0.046 0.0394 0.049 -0.0034 -0.0126 0.0011
O4L 0.055 0.044 0.058 -0.0074 0.0031 -0.0012
O4M 0.055 0.044 0.058 0.0074 -0.0031 -0.0012
O5N 0.052 0.098 0.058 0.021 0.0083 0.026
O5O 0.052 0.098 0.058 -0.021 -0.0083 0.026
O7L 0.084 0.043 0.058 -0.012 0.011 -0.011
O7M 0.084 0.043 0.058 0.012 -0.011 -0.011
O8I 0.059 0.065 0.066 0.013 0.018 0.008
O9I 0.051 0.059 0.052 0.0045 0.0049 0.005
Cu3A 0.04 0.0499 0.0515 0 0 0.0099
Cu3B 0.0499 0.04 0.0515 0 0 -0.0099
Cu3C 0.0499 0.04 0.0515 0 0 -0.0099
Cu4A 0.0386 0.0486 0.0537 0 0 0.0082
Cu4B 0.0486 0.0386 0.0537 0 0 -0.0082
Cu4C 0.0486 0.0386 0.0537 0 0 -0.0082
O11B 0.052 0.061 0.064 0.019 -0.0012 0.0098
O11K 0.052 0.061 0.064 -0.019 0.0012 0.0098
O12B 0.047 0.062 0.077 0.023 -0.004 0.0078
O12K 0.047 0.062 0.077 -0.023 0.004 0.0078
loop_
_geom_bond_atom_site_label_1
_geom_bond_atom_site_label_2
_geom_bond_site_symmetry_1
_geom_bond_site_symmetry_2
Cu1 O2 1_555 1_555
O1 C1 1_555 1_555
O2 C2 1_555 1_555
O3 Cu1 1_555 1_555
Cu2 Cu1 1_555 1_555
O4 C17 1_555 1_555
C1 O5 1_555 1_555
C2 N1 1_555 1_555
C3 O3 1_555 1_555
O5 Cu2N 1_555 1_555
O6 Cu2 1_555 1_555
C4 C1 1_555 1_555
N1 C8 1_555 1_555
H1 C2 1_555 1_555
C5 C3 1_555 1_555
C6 C4 1_555 1_555
C7 C4 1_555 1_555
C8 H4 1_555 1_555
C9 N1 1_555 1_555
C10 C5 1_555 1_555
C11 C5 1_555 1_555
C12 C6 1_555 1_555
H2 C6 1_555 1_555
H3 C7 1_555 1_555
C13 C7 1_555 1_555
H5 C8 1_555 1_555
H6 C8 1_555 1_555
H7 C9 1_555 1_555
H8 C9 1_555 1_555
H9 C9 1_555 1_555
H10 C10 1_555 1_555
C14 C10 1_555 1_555
C15 C11 1_555 1_555
H11 C11 1_555 1_555
N2 C12 1_555 1_555
C16 C12 1_555 1_555
C17 C13 1_555 1_555
C18 C14 1_555 1_555
C19 C14 1_555 1_555
C20 C15 1_555 1_555
H12 N2 1_555 1_555
H13 C16 1_555 1_555
O7 C17 1_555 1_555
H14 C18 1_555 1_555
H15 C19 1_555 1_555
H16 C19 1_555 1_555
O8 C20 1_555 1_555
O9 C20 1_555 1_555
Cu3 O8 1_555 1_555
Cu4 O9 1_555 1_555
O10 Cu1 1_555 1_555
O11 C21 1_555 1_555
O12 C21 1_555 1_555
C21 C22 1_555 1_555
C22 C23 1_555 1_555
C23 H17 1_555 1_555
C24 C22 1_555 1_555
C25 C23 1_555 1_555
C26 C24 1_555 1_555
H18 C24 1_555 1_555
C27 C25 1_555 1_555
N3 C25 1_555 1_555
C28 O10 1_555 1_555
H19 C27 1_555 1_555
O13 Cu2 1_555 1_555
O14 Cu2 1_555 1_555
C29 O14 1_555 1_555
N4 C29 1_555 1_555
H20 C29 1_555 1_555
C30 N4 1_555 1_555
C31 N4 1_555 1_555
H21 C30 1_555 1_555
H22 C30 1_555 1_555
H23 C30 1_555 1_555
H24 C31 1_555 1_555
H25 C31 1_555 1_555
H26 C31 1_555 1_555
O15 Cu3 1_555 1_555
H27 O15 1_555 1_555
H28 O15 1_555 1_555
O16 Cu4 1_555 1_555
H29 O16 1_555 1_555
O11A C21A 1_555 1_555
O12A C21A 1_555 1_555
C21A C22A 1_555 1_555
C22A C23A 1_555 1_555
C23A H17A 1_555 1_555
C24A C22A 1_555 1_555
C25A C23A 1_555 1_555
C26A C24A 1_555 1_555
H18A C24A 1_555 1_555
C27A C25A 1_555 1_555
N3A N3 1_555 1_555
C28A C26A 1_555 1_555
H19A C27A 1_555 1_555
O13A C28A 1_555 1_555
O10A C28A 1_555 1_555
O15I Cu3 1_555 1_555
H27I O15 1_555 1_555
H29I O16 1_555 1_555
Cu1A O10A 1_555 1_555
O1A C1A 1_555 1_555
O2A Cu1A 1_555 1_555
O3A Cu1A 1_555 1_555
Cu2A O13A 1_555 1_555
O4A C17A 1_555 1_555
C1A O5A 1_555 1_555
C2A O2A 1_555 1_555
C3A O3A 1_555 1_555
O5A Cu2O 1_555 1_555
O6A Cu2A 1_555 1_555
C4A C1A 1_555 1_555
N1A C2A 1_555 1_555
H1A C2A 1_555 1_555
C5A C3A 1_555 1_555
C6A C4A 1_555 1_555
C7A C4A 1_555 1_555
C8A N1A 1_555 1_555
C9A N1A 1_555 1_555
C10A C5A 1_555 1_555
C11A C5A 1_555 1_555
C12A C6A 1_555 1_555
H2A C6A 1_555 1_555
H3A C7A 1_555 1_555
C13A C7A 1_555 1_555
H4A C8A 1_555 1_555
H5A C8A 1_555 1_555
H6A C8A 1_555 1_555
H7A C9A 1_555 1_555
H8A C9A 1_555 1_555
H9A C9A 1_555 1_555
H10A C10A 1_555 1_555
C14A C10A 1_555 1_555
C15A C11A 1_555 1_555
H11A C11A 1_555 1_555
N2A C12A 1_555 1_555
C16A C12A 1_555 1_555
C17A C13A 1_555 1_555
C18A C14A 1_555 1_555
C19A C14A 1_555 1_555
C20A C15A 1_555 1_555
H12A N2A 1_555 1_555
H13A C16A 1_555 1_555
O7A C17A 1_555 1_555
H14A C18A 1_555 1_555
H15A C19A 1_555 1_555
H16A C19A 1_555 1_555
O8A C20A 1_555 1_555
O9A C20A 1_555 1_555
O14A Cu2A 1_555 1_555
C29A O14A 1_555 1_555
N4A C29A 1_555 1_555
H20A C29A 1_555 1_555
C30A N4A 1_555 1_555
C31A N4A 1_555 1_555
H21A C30A 1_555 1_555
H22A C30A 1_555 1_555
H23A C30A 1_555 1_555
H24A C31A 1_555 1_555
H25A C31A 1_555 1_555
H26A C31A 1_555 1_555
Cu1L O4 1_555 1_555
Cu1M O4A 1_555 1_555
Cu1N O1 1_555 1_555
Cu1O O1A 1_555 1_555
O1N Cu1A 1_555 1_555
O1O Cu1 1_555 1_555
Cu2L O7 1_555 1_555
Cu2M O7A 1_555 1_555
Cu2N Cu1N 1_555 1_555
Cu2O Cu1O 1_555 1_555
O4L Cu1 1_555 1_555
O4M Cu1A 1_555 1_555
O5N Cu2A 1_555 1_555
O5O Cu2 1_555 1_555
O7L Cu2 1_555 1_555
O7M Cu2A 1_555 1_555
O8I Cu3 1_555 1_555
O9I Cu4 1_555 1_555
Cu3A O8A 1_555 1_555
Cu3B O11A 1_555 1_555
Cu3C O11 1_555 1_555
Cu4A O9A 1_555 1_555
Cu4B O12A 1_555 1_555
Cu4C O12 1_555 1_555
O11B Cu3 1_555 1_555
O11K Cu3 1_555 1_555
O12B Cu4 1_555 1_555
O12K Cu4 1_555 1_555
C3 O6 1_555 1_555
C13 C16 1_555 1_555
C15 C18 1_555 1_555
N2 C19 1_555 1_555
Cu3 Cu4 1_555 1_555
C26 C27 1_555 1_555
C26 C28 1_555 1_555
C28 O13 1_555 1_555
O15 O15I 1_555 1_555
H27 O15I 1_555 1_555
H28 O15I 1_555 1_555
C25A N3A 1_555 1_555
C26A C27A 1_555 1_555
O15I H27I 1_555 1_555
Cu1A Cu2A 1_555 1_555
C3A O6A 1_555 1_555
C13A C16A 1_555 1_555
C15A C18A 1_555 1_555
N2A C19A 1_555 1_555
Cu1L Cu2L 1_555 1_555
Cu1M Cu2M 1_555 1_555
Cu3A Cu4A 1_555 1_555
Cu3B Cu4B 1_555 1_555
Cu3C Cu4C 1_555 1_555

#END
