
#######################################################################
#
#                 Cambridge Crystallographic Data Centre
#                                CCDC 
#
#######################################################################
#
# If this CIF has been generated from an entry in the Cambridge 
# Structural Database, then it will include bibliographic, chemical, 
# crystal, experimental, refinement or atomic coordinate data resulting 
# from the CCDC's data processing and validation procedures.
#
#######################################################################

data_KAGVUL
_chemical_formula_moiety         '(C4 H16 N1 O42 S7 U6 1-)n'
_symmetry_cell_setting           orthorhombic
_symmetry_space_group_name_H-M   'C 2 2 21'
_symmetry_Int_Tables_number      20
_space_group_name_Hall           'C 2c 2'
loop_
_symmetry_equiv_pos_site_id
_symmetry_equiv_pos_as_xyz
1 x,y,z
2 -x,-y,1/2+z
3 -x,y,1/2-z
4 x,-y,-z
5 1/2+x,1/2+y,z
6 1/2-x,1/2-y,1/2+z
7 1/2-x,1/2+y,1/2-z
8 1/2+x,1/2-y,-z
_cell_length_a                   10.2776(12)
_cell_length_b                   18.339(2)
_cell_length_c                   22.788(3)
_cell_angle_alpha                90
_cell_angle_beta                 90
_cell_angle_gamma                90
_cell_volume                     4295.1
loop_
_atom_site_label
_atom_site_type_symbol
_atom_site_fract_x
_atom_site_fract_y
_atom_site_fract_z
U1 U 0.95532(8) 0.74066(5) 0.97453(4)
U2 U 1.12499(9) 0.53169(5) 1.11667(4)
U3 U 0.75685(10) 0.74037(6) 0.74596(4)
S1 S 1.1487(5) 0.7323(3) 1.1055(2)
S2 S 1.2413(6) 0.6147(3) 0.9794(2)
S3 S 1.0000 0.6147(5) 1.2500
S4 S 0.9895(6) 0.6442(3) 0.8365(2)
O1 O 1.050(2) 0.7977(10) 0.9346(9)
O2 O 0.868(2) 0.6834(11) 1.0149(9)
O3 O 1.263(2) 0.5382(11) 1.1602(9)
O4 O 0.984(2) 0.5229(9) 1.0763(7)
O5 O 0.6488(19) 0.6697(13) 0.7223(9)
O6 O 0.873(2) 0.8058(10) 0.7747(9)
O7 O 0.729(3) 0.8003(14) 0.6469(9)
O8 O 1.091(2) 0.6629(9) 1.1141(8)
O9 O 1.0779(17) 0.7742(8) 1.0590(8)
O10 O 1.2822(16) 0.7181(9) 1.0865(6)
O11 O 0.9422(15) 0.6558(9) 0.8970(7)
O12 O 0.998(3) 0.5724(12) 1.1966(9)
O13 O 0.8784(18) 0.6448(9) 0.7949(7)
O14 O 1.1469(15) 0.7727(9) 1.1610(6)
O15 O 1.2385(15) 0.5689(8) 0.9258(7)
O16 O 1.0559(19) 0.5739(8) 0.8315(7)
O17 O 1.0837(17) 0.7041(9) 0.8214(7)
O18 O 1.133(2) 0.6683(14) 0.9793(10)
O19 O 1.359(2) 0.6585(12) 0.9778(8)
O20 O 1.239(2) 0.5728(10) 1.0322(9)
O21 O 0.890(3) 0.6617(12) 1.2520(10)
U1G U 0.45532(8) 0.75934(5) 1.02547(4)
U1G_2 U 1.45532(8) 0.75934(5) 1.02547(4)
U1C U 0.95532(8) 0.25934(5) 1.02547(4)
U2G U 0.62499(9) 0.96831(5) 0.88333(4)
U2C U 1.12499(9) 0.46831(5) 0.88333(4)
U2B U 0.87501(9) 0.53169(5) 1.38333(4)
U2D U 0.62499(9) 1.03169(5) 1.11667(4)
U3G U 1.25685(10) 0.75963(6) 1.25404(4)
U3B U 1.24315(10) 0.74037(6) 0.75404(4)
U3E U 0.74315(10) 0.75963(6) 1.24596(4)
U3C U 0.75685(10) 0.25963(6) 1.25404(4)
U3A U 1.24315(10) 0.25963(6) 1.24596(4)
S1G S 0.6487(5) 0.7677(3) 0.8945(2)
S2G S 0.7413(6) 0.8853(3) 1.0206(2)
S4C S 0.9895(6) 0.3558(3) 1.1635(2)
O1G O 0.550(2) 0.7023(10) 1.0654(9)
O2G O 0.368(2) 0.8166(11) 0.9851(9)
O3G O 0.763(2) 0.9618(11) 0.8398(9)
O4G O 0.484(2) 0.9771(9) 0.9237(7)
O5G O 1.1488(19) 0.8303(13) 1.2777(9)
O6G O 1.373(2) 0.6942(10) 1.2253(9)
O7G O 1.229(3) 0.6997(14) 1.3531(9)
O8G O 0.591(2) 0.8371(9) 0.8859(8)
O9G O 0.5779(17) 0.7258(8) 0.9410(8)
O10G O 0.7822(16) 0.7819(9) 0.9135(6)
O10_2 O 0.2822(16) 0.7181(9) 1.0865(6)
O11C O 0.9422(15) 0.3442(9) 1.1030(7)
O11G O 0.4422(15) 0.8442(9) 1.1030(7)
O12B O 1.002(3) 0.5724(12) 1.3034(9)
O12G O 0.498(3) 0.9276(12) 0.8034(9)
O13C O 0.8784(18) 0.3552(9) 1.2051(7)
O13G O 1.3784(18) 0.8552(9) 1.2051(7)
O14G O 0.6469(15) 0.7273(9) 0.8390(6)
O15G O 0.7385(15) 0.9311(8) 1.0742(7)
O15C O 1.2385(15) 0.4311(8) 1.0742(7)
O15D O 0.7385(15) 1.0689(8) 0.9258(7)
O16C O 1.0559(19) 0.4261(8) 1.1685(7)
O16D O 0.5559(19) 1.0739(8) 0.8315(7)
O17C O 1.0837(17) 0.2959(9) 1.1786(7)
O17B O 0.9163(17) 0.7041(9) 0.6786(7)
O17E O 1.4163(17) 0.7959(9) 1.3214(7)
O18G O 0.633(2) 0.8317(14) 1.0207(10)
O19G O 0.859(2) 0.8415(12) 1.0222(8)
O19_2 O 0.359(2) 0.6585(12) 0.9778(8)
O20G O 0.739(2) 0.9272(10) 0.9678(9)
O21B O 1.110(3) 0.6617(12) 1.2480(10)
O21E O 0.610(3) 0.8383(12) 0.7520(10)
N1 N 0.586(13) 0.559(7) 0.721(4)
H1 H 0.6092 0.5191 0.7186
C1 C 0.526(7) 0.582(5) 0.663(3)
H2 H 0.6056 0.5904 0.6392
H3 H 0.4961 0.6321 0.6730
C2 C 0.430(6) 0.563(3) 0.616(3)
H4 H 0.4802 0.5615 0.5785
H5 H 0.3696 0.6043 0.6125
C3 C 0.347(6) 0.495(3) 0.616(3)
H6 H 0.2799 0.4932 0.6470
H7 H 0.3957 0.4484 0.6129
C4 C 0.302(8) 0.526(6) 0.559(3)
H8 H 0.3359 0.4956 0.5266
H9 H 0.3350 0.5756 0.5548
H10 H 0.2071 0.5259 0.5577
loop_
_geom_bond_atom_site_label_1
_geom_bond_atom_site_label_2
_geom_bond_site_symmetry_1
_geom_bond_site_symmetry_2
U1 O1 1_555 1_555
U2 O3 1_555 1_555
U3 O5 1_555 1_555
S1 O8 1_555 1_555
S2 O15 1_555 1_555
S3 O12 1_555 1_555
S4 O11 1_555 1_555
O2 U1 1_555 1_555
O4 U2 1_555 1_555
O6 U3 1_555 1_555
O7 U3 1_555 1_555
O8 U2 1_555 1_555
O9 U1 1_555 1_555
O10 S1 1_555 1_555
O11 U1 1_555 1_555
O12 U2 1_555 1_555
O13 U3 1_555 1_555
O14 S1 1_555 1_555
O15 U2C 1_555 1_555
O16 S4 1_555 1_555
O17 S4 1_555 1_555
O18 U1 1_555 1_555
O19 S2 1_555 1_555
O20 U2 1_555 1_555
O21 S3 1_555 1_555
N1 H1 1_555 1_555
C1 N1 1_555 1_555
H2 C1 1_555 1_555
H3 C1 1_555 1_555
C2 C1 1_555 1_555
H4 C2 1_555 1_555
H5 C2 1_555 1_555
C3 C2 1_555 1_555
H6 C3 1_555 1_555
H7 C3 1_555 1_555
C4 C3 1_555 1_555
H8 C4 1_555 1_555
H9 C4 1_555 1_555
H10 C4 1_555 1_555
U1G O1G 1_555 1_555
U1G_2 O10 1_555 1_555
U1C O11C 1_555 1_555
U2G O3G 1_555 1_555
U2C O16 1_555 1_555
U2B O12B 1_555 1_555
U2D O15G 1_555 1_555
U3G O14 1_555 1_555
U3B O17 1_555 1_555
U3E O21 1_555 1_555
U3C O13C 1_555 1_555
U3A O17C 1_555 1_555
S1G O8G 1_555 1_555
S2G O15G 1_555 1_555
S4C O11C 1_555 1_555
O2G U1G 1_555 1_555
O4G U2G 1_555 1_555
O5G U3G 1_555 1_555
O6G U3G 1_555 1_555
O7G U3G 1_555 1_555
O8G U2G 1_555 1_555
O9G U1G 1_555 1_555
O10G U1 1_555 1_555
O10_2 U1G 1_555 1_555
O11G U1G 1_555 1_555
O12B S3 1_555 1_555
O12G U2G 1_555 1_555
O13C S4C 1_555 1_555
O13G U3G 1_555 1_555
O14G U3 1_555 1_555
O15C U2 1_555 1_555
O15D U2G 1_555 1_555
O16C U2 1_555 1_555
O16D U2G 1_555 1_555
O17C S4C 1_555 1_555
O17B U3 1_555 1_555
O17E U3G 1_555 1_555
O18G U1G 1_555 1_555
O19G U1 1_555 1_555
O19_2 U1G 1_555 1_555
O20G U2G 1_555 1_555
O21B S3 1_555 1_555
O21E U3 1_555 1_555
S1 O9 1_555 1_555
S2 O18 1_555 1_555
S2 O20 1_555 1_555
S4 O13 1_555 1_555
O19 U1G_2 1_555 1_555
U3G O21B 1_555 1_555
S1G O9G 1_555 1_555
S1G O10G 1_555 1_555
S1G O14G 1_555 1_555
S2G O18G 1_555 1_555
S2G O19G 1_555 1_555
S2G O20G 1_555 1_555
S4C O16C 1_555 1_555

#END
