
#######################################################################
#
#                 Cambridge Crystallographic Data Centre
#                                CCDC 
#
#######################################################################
#
# If this CIF has been generated from an entry in the Cambridge 
# Structural Database, then it will include bibliographic, chemical, 
# crystal, experimental, refinement or atomic coordinate data resulting 
# from the CCDC's data processing and validation procedures.
#
#######################################################################

data_EBUQEX
_chemical_formula_moiety         '(C54 H34 N5 Na1 O10)n'
_symmetry_cell_setting           monoclinic
_symmetry_space_group_name_H-M   'C 2/c'
_symmetry_Int_Tables_number      15
_space_group_name_Hall           '-C 2yc'
loop_
_symmetry_equiv_pos_site_id
_symmetry_equiv_pos_as_xyz
1 x,y,z
2 1/2+x,1/2+y,z
3 x,-y,1/2+z
4 1/2+x,1/2-y,1/2+z
5 -x,-y,-z
6 1/2-x,1/2-y,-z
7 -x,y,1/2-z
8 1/2-x,1/2+y,1/2-z
_cell_length_a                   19.2710(5)
_cell_length_b                   26.2120(9)
_cell_length_c                   24.0160(7)
_cell_angle_alpha                90
_cell_angle_beta                 92.2180(18)
_cell_angle_gamma                90
_cell_volume                     12122.1
loop_
_atom_site_label
_atom_site_type_symbol
_atom_site_fract_x
_atom_site_fract_y
_atom_site_fract_z
_atom_site_U_iso_or_equiv
_atom_site_thermal_displace_type
N1 N 0.48683(12) 0.07355(8) 0.10033(10) 0.0354 Uani
N2 N 0.61710(11) 0.07795(8) 0.16439(10) 0.0362 Uani
H1 H 0.5930 0.0525 0.1513 0.0430 Uiso
N3 N 0.62557(11) -0.03296(8) 0.15688(9) 0.0304 Uani
N4 N 0.50112(11) -0.03490(9) 0.08444(9) 0.0337 Uani
H2 H 0.5227 -0.0151 0.1046 0.0400 Uiso
C1 C 0.43857(14) -0.02760(11) 0.05647(12) 0.0339 Uani
C2 C 0.39988(14) 0.01717(11) 0.05499(12) 0.0337 Uani
C3 C 0.42174(14) 0.06391(11) 0.07663(12) 0.0352 Uani
C4 C 0.38185(15) 0.11017(11) 0.07501(13) 0.0415 Uani
H3 H 0.3358 0.1135 0.0624 0.0500 Uiso
C5 C 0.42313(16) 0.14794(12) 0.09508(14) 0.0458 Uani
H4 H 0.4111 0.1821 0.0983 0.0550 Uiso
C6 C 0.48985(15) 0.12527(11) 0.11069(13) 0.0370 Uani
C7 C 0.54741(15) 0.15176(10) 0.13321(12) 0.0377 Uani
C8 C 0.60696(15) 0.12907(11) 0.15692(12) 0.0372 Uani
C9 C 0.66650(15) 0.15507(12) 0.18141(14) 0.0457 Uani
H5 H 0.6739 0.1901 0.1819 0.0550 Uiso
C10 C 0.70965(16) 0.11907(11) 0.20352(13) 0.0461 Uani
H6 H 0.7522 0.1252 0.2219 0.0550 Uiso
C11 C 0.67891(14) 0.06988(11) 0.19386(13) 0.0382 Uani
C12 C 0.70713(14) 0.02284(11) 0.21062(12) 0.0341 Uani
C13 C 0.68033(14) -0.02489(10) 0.19461(12) 0.0311 Uani
C14 C 0.70863(15) -0.07385(11) 0.21165(12) 0.0385 Uani
H7 H 0.7449 -0.0792 0.2377 0.0460 Uiso
C15 C 0.67302(15) -0.11033(11) 0.18296(12) 0.0400 Uani
H8 H 0.6805 -0.1453 0.1850 0.0480 Uiso
C16 C 0.62103(14) -0.08448(10) 0.14845(12) 0.0313 Uani
C17 C 0.57402(14) -0.10880(10) 0.11092(12) 0.0337 Uani
C18 C 0.51881(14) -0.08526(10) 0.08143(12) 0.0331 Uani
C19 C 0.46620(16) -0.11066(12) 0.04787(13) 0.0469 Uani
H9 H 0.4656 -0.1450 0.0382 0.0560 Uiso
C20 C 0.41769(16) -0.07561(11) 0.03281(14) 0.0465 Uani
H10 H 0.3777 -0.0816 0.0109 0.0560 Uiso
C21 C 0.32874(14) 0.01467(11) 0.02793(12) 0.0348 Uani
C22 C 0.31928(15) 0.01921(14) -0.02953(13) 0.0541 Uani
H11 H 0.3577 0.0237 -0.0513 0.0650 Uiso
C23 C 0.25381(15) 0.01710(14) -0.05474(14) 0.0526 Uani
H12 H 0.2485 0.0197 -0.0933 0.0630 Uiso
C24 C 0.19609(13) 0.01112(11) -0.02308(12) 0.0347 Uani
C25 C 0.20541(15) 0.00596(13) 0.03361(13) 0.0502 Uani
H13 H 0.1670 0.0014 0.0554 0.0600 Uiso
C26 C 0.27122(15) 0.00753(14) 0.05869(14) 0.0534 Uani
H14 H 0.2765 0.0037 0.0971 0.0640 Uiso
C27 C 0.12492(14) 0.00768(11) -0.04847(13) 0.0359 Uani
O1 O 0.07392(10) 0.00138(8) -0.02006(9) 0.0430 Uani
O2 O 0.12024(10) 0.01209(9) -0.10231(9) 0.0533 Uani
H15 H 0.0763 0.0105 -0.1214 0.0640 Uiso
C28 C 0.54400(14) 0.20895(11) 0.13161(13) 0.0372 Uani
C29 C 0.54645(16) 0.23822(11) 0.17992(13) 0.0419 Uani
H16 H 0.5522 0.2224 0.2145 0.0500 Uiso
C30 C 0.54034(16) 0.29078(11) 0.17680(12) 0.0418 Uani
H17 H 0.5423 0.3101 0.2093 0.0500 Uiso
C31 C 0.53128(15) 0.31503(11) 0.12564(12) 0.0380 Uani
C32 C 0.52905(17) 0.28613(11) 0.07757(13) 0.0462 Uani
H18 H 0.5237 0.3020 0.0431 0.0550 Uiso
C33 C 0.53481(17) 0.23372(11) 0.08059(13) 0.0462 Uani
H19 H 0.5325 0.2146 0.0479 0.0550 Uiso
C34 C 0.52329(16) 0.37136(11) 0.12090(14) 0.0409 Uani
O3 O 0.52006(11) 0.39445(8) 0.17009(9) 0.0491 Uani
H20 H 0.5121 0.4298 0.1643 0.0590 Uiso
O4 O 0.51956(13) 0.39437(8) 0.07689(9) 0.0560 Uani
C35 C 0.77085(14) 0.02379(10) 0.24775(12) 0.0327 Uani
C36 C 0.83101(14) -0.00137(11) 0.23275(12) 0.0372 Uani
H21 H 0.8320 -0.0178 0.1985 0.0450 Uiso
C37 C 0.88937(14) -0.00218(11) 0.26831(12) 0.0376 Uani
H22 H 0.9287 -0.0199 0.2580 0.0450 Uiso
C38 C 0.88987(14) 0.02283(10) 0.31857(12) 0.0320 Uani
C39 C 0.83074(14) 0.04930(11) 0.33341(12) 0.0366 Uani
H23 H 0.8307 0.0669 0.3670 0.0440 Uiso
C40 C 0.77209(14) 0.04960(11) 0.29840(12) 0.0368 Uani
H24 H 0.7329 0.0673 0.3089 0.0440 Uiso
C41 C 0.95371(14) 0.02296(11) 0.35689(12) 0.0339 Uani
O5 O 1.00207(10) -0.00802(7) 0.34609(8) 0.0381 Uani
O6 O 0.95693(10) 0.05363(7) 0.39695(8) 0.0417 Uani
C42 C 0.57943(14) -0.16517(10) 0.10344(12) 0.0326 Uani
C43 C 0.60199(17) -0.18607(12) 0.05447(14) 0.0481 Uani
H25 H 0.6184 -0.1646 0.0271 0.0580 Uiso
C44 C 0.60064(18) -0.23827(12) 0.04527(14) 0.0497 Uani
H26 H 0.6142 -0.2513 0.0113 0.0600 Uiso
C45 C 0.57958(15) -0.27055(11) 0.08576(13) 0.0381 Uani
C46 C 0.55858(19) -0.25053(12) 0.13557(14) 0.0539 Uani
H27 H 0.5445 -0.2723 0.1635 0.0640 Uiso
C47 C 0.55825(18) -0.19840(12) 0.14424(14) 0.0523 Uani
H28 H 0.5436 -0.1855 0.1779 0.0630 Uiso
C48 C 0.57606(17) -0.32655(12) 0.07574(15) 0.0465 Uani
O7 O 0.57636(14) -0.34686(8) 0.03043(10) 0.0603 Uani
O8 O 0.57001(13) -0.35281(8) 0.12237(9) 0.0556 Uani
H29 H 0.5601 -0.3877 0.1152 0.0670 Uiso
Na1 Na -0.00359(6) -0.07071(4) -0.00995(5) 0.0419 Uani
O9 O 0.08183(18) -0.12038(17) -0.05980(16) 0.1281 Uani
O10 O 0.0938(2) -0.20195(19) -0.04946(15) 0.1324 Uani
N5 N 0.0921(2) -0.1629(2) -0.07766(19) 0.0966 Uani
C49 C 0.1034(2) -0.16866(17) -0.13751(17) 0.0691 Uani
C50 C 0.0923(2) -0.12817(17) -0.1712(2) 0.0807 Uani
H30 H 0.0790 -0.0969 -0.1567 0.0970 Uiso
C51 C 0.1009(3) -0.1338(3) -0.2260(3) 0.0977 Uani
H31 H 0.0917 -0.1065 -0.2499 0.1180 Uiso
C52 C 0.1229(3) -0.1788(3) -0.2473(2) 0.1041 Uani
H32 H 0.1311 -0.1814 -0.2851 0.1240 Uiso
C53 C 0.1326(3) -0.2192(2) -0.2141(2) 0.1183 Uani
H33 H 0.1473 -0.2500 -0.2288 0.1420 Uiso
C54 C 0.1209(3) -0.21536(19) -0.1571(2) 0.1118 Uani
H34 H 0.1249 -0.2435 -0.1337 0.1340 Uiso
Na1D Na 0.00359(6) 0.07071(4) 0.00995(5) 0.0419 Uani
Na1A Na 0.49641(6) 0.42929(4) -0.00995(5) 0.0419 Uani
Na1B Na 0.99641(6) 0.07071(4) 0.49005(5) 0.0419 Uani
Na1E Na 0.50359(6) -0.42929(4) 0.00995(5) 0.0419 Uani
O1D O -0.07392(10) -0.00138(8) 0.02006(9) 0.0430 Uani
O4A O 0.01956(13) -0.10563(8) 0.07689(9) 0.0560 Uani
O6B O -0.04307(10) -0.05363(7) -0.10305(8) 0.0417 Uani
O7E O -0.07636(14) -0.15314(8) -0.03043(10) 0.0603 Uani
loop_
_atom_site_aniso_label
_atom_site_aniso_U_11
_atom_site_aniso_U_22
_atom_site_aniso_U_33
_atom_site_aniso_U_23
_atom_site_aniso_U_13
_atom_site_aniso_U_12
N1 0.0307(12) 0.0325(14) 0.0417(15) 0.0001(11) -0.0142(11) -0.0016(10)
N2 0.0328(13) 0.0286(13) 0.0458(15) 0.0040(11) -0.0159(12) -0.0042(11)
N3 0.0253(12) 0.0335(13) 0.0319(13) 0.0013(10) -0.0058(10) 0.0015(10)
N4 0.0269(12) 0.0366(14) 0.0366(14) -0.0030(11) -0.0098(11) -0.0036(10)
C1 0.0293(15) 0.0362(16) 0.0353(17) 0.0020(13) -0.0091(13) 0.0001(13)
C2 0.0250(14) 0.0436(17) 0.0319(16) 0.0008(13) -0.0069(13) 0.0004(13)
C3 0.0283(15) 0.0343(16) 0.0421(18) 0.0000(14) -0.0120(13) -0.0005(13)
C4 0.0271(15) 0.0389(18) 0.057(2) 0.0026(15) -0.0160(15) 0.0031(14)
C5 0.0394(18) 0.0397(18) 0.057(2) 0.0006(16) -0.0131(16) 0.0088(15)
C6 0.0338(16) 0.0284(16) 0.0476(19) 0.0018(13) -0.0122(14) -0.0007(13)
C7 0.0356(16) 0.0315(16) 0.0446(19) 0.0046(14) -0.0149(14) -0.0027(13)
C8 0.0335(16) 0.0324(16) 0.0449(19) 0.0069(14) -0.0107(14) -0.0012(13)
C9 0.0400(18) 0.0336(17) 0.062(2) 0.0029(15) -0.0162(16) -0.0056(15)
C10 0.0388(17) 0.0417(18) 0.056(2) 0.0043(16) -0.0219(16) -0.0055(15)
C11 0.0279(15) 0.0386(17) 0.0467(18) 0.0017(14) -0.0148(14) -0.0043(14)
C12 0.0241(14) 0.0406(17) 0.0369(17) -0.0004(14) -0.0095(13) -0.0008(13)
C13 0.0270(14) 0.0312(15) 0.0343(16) 0.0047(13) -0.0104(13) 0.0005(12)
C14 0.0336(16) 0.0379(17) 0.0427(18) 0.0028(14) -0.0149(14) 0.0048(14)
C15 0.0348(16) 0.0372(17) 0.0472(19) 0.0050(14) -0.0100(15) 0.0098(14)
C16 0.0304(15) 0.0265(15) 0.0368(17) 0.0024(13) -0.0026(13) -0.0011(12)
C17 0.0321(15) 0.0298(15) 0.0389(17) -0.0024(13) -0.0021(14) -0.0010(13)
C18 0.0311(15) 0.0286(15) 0.0390(17) -0.0032(13) -0.0077(14) 0.0021(13)
C19 0.0433(19) 0.0378(18) 0.058(2) -0.0088(16) -0.0173(17) -0.0015(15)
C20 0.0356(17) 0.0452(19) 0.057(2) -0.0116(16) -0.0209(16) -0.0026(15)
C21 0.0255(15) 0.0411(17) 0.0370(18) 0.0013(13) -0.0092(13) -0.0019(13)
C22 0.0248(16) 0.097(3) 0.040(2) 0.0186(18) -0.0053(14) -0.0123(17)
C23 0.0318(17) 0.090(3) 0.0352(19) 0.0138(18) -0.0076(15) -0.0087(17)
C24 0.0223(14) 0.0503(19) 0.0311(17) -0.0013(14) -0.0036(13) -0.0042(13)
C25 0.0283(16) 0.089(3) 0.0329(18) -0.0040(17) -0.0044(14) -0.0053(16)
C26 0.0309(17) 0.096(3) 0.0327(18) -0.0008(18) -0.0071(15) -0.0088(17)
C27 0.0233(15) 0.0469(19) 0.0373(19) -0.0035(14) -0.0025(14) -0.0051(13)
O1 0.0286(11) 0.0567(13) 0.0433(13) -0.0046(10) -0.0056(10) -0.0019(10)
O2 0.0283(11) 0.0944(18) 0.0363(13) 0.0045(12) -0.0105(10) -0.0057(11)
C28 0.0291(15) 0.0353(17) 0.0459(19) 0.0048(14) -0.0134(14) 0.0005(13)
C29 0.0485(19) 0.0348(17) 0.0416(19) 0.0061(14) -0.0092(15) 0.0023(14)
C30 0.0524(19) 0.0383(18) 0.0340(18) -0.0031(14) -0.0069(15) -0.0013(15)
C31 0.0422(17) 0.0298(16) 0.0412(19) -0.0006(14) -0.0098(14) 0.0001(13)
C32 0.063(2) 0.0372(17) 0.0371(18) 0.0027(14) -0.0149(16) 0.0040(16)
C33 0.062(2) 0.0299(16) 0.0452(19) -0.0014(14) -0.0157(16) 0.0039(15)
C34 0.0418(18) 0.0341(17) 0.046(2) -0.0012(15) -0.0093(15) -0.0025(14)
O3 0.0687(15) 0.0325(11) 0.0451(14) -0.0021(10) -0.0100(12) 0.0008(10)
O4 0.0896(18) 0.0368(12) 0.0405(14) 0.0070(11) -0.0106(12) 0.0031(12)
C35 0.0280(15) 0.0335(16) 0.0355(17) 0.0021(13) -0.0123(13) -0.0010(13)
C36 0.0334(16) 0.0433(17) 0.0343(17) -0.0044(14) -0.0083(13) 0.0030(14)
C37 0.0261(15) 0.0452(18) 0.0407(18) -0.0027(14) -0.0074(13) 0.0038(13)
C38 0.0291(15) 0.0320(15) 0.0340(17) 0.0036(13) -0.0123(13) -0.0010(13)
C39 0.0353(16) 0.0400(17) 0.0340(17) 0.0003(14) -0.0069(14) 0.0012(14)
C40 0.0279(15) 0.0412(17) 0.0406(18) 0.0023(14) -0.0092(13) 0.0030(13)
C41 0.0336(16) 0.0285(15) 0.0384(18) 0.0059(14) -0.0123(14) -0.0040(14)
O5 0.0294(10) 0.0353(11) 0.0482(13) 0.0004(9) -0.0163(10) 0.0008(9)
O6 0.0456(12) 0.0351(11) 0.0426(13) -0.0031(10) -0.0207(10) -0.0003(10)
C42 0.0323(15) 0.0286(15) 0.0364(17) 0.0050(13) -0.0061(13) -0.0028(13)
C43 0.063(2) 0.0360(18) 0.046(2) 0.0028(15) 0.0096(17) 0.0051(16)
C44 0.063(2) 0.0377(19) 0.048(2) -0.0034(16) -0.0019(17) 0.0042(16)
C45 0.0443(18) 0.0321(16) 0.0372(18) -0.0002(14) -0.0069(15) 0.0001(14)
C46 0.082(3) 0.0328(18) 0.047(2) 0.0044(16) 0.0052(19) -0.0101(17)
C47 0.073(2) 0.0373(18) 0.047(2) -0.0054(16) 0.0082(18) -0.0038(17)
C48 0.054(2) 0.0372(18) 0.047(2) -0.0029(16) -0.0130(17) 0.0010(16)
O7 0.0903(18) 0.0405(13) 0.0492(15) -0.0105(11) -0.0099(13) 0.0062(12)
O8 0.0832(17) 0.0320(12) 0.0505(14) 0.0027(10) -0.0112(13) -0.0079(11)
Na1 0.0427 0.0425 0.0399 0.0018 -0.0061 0.0051
O9 0.087 0.166 0.13 -0.073 -0.013 0.058
O10 0.143 0.181 0.074 0.035 0.016 0.033
N5 0.069 0.139 0.081 -0.009 -0.006 0.038
C49 0.065 0.085 0.057 -0.001 0 0.026
C50 0.059 0.07 0.112 0.024 -0.012 -0.001
C51 0.072 0.121 0.098 0.053 -0.025 -0.029
C52 0.105 0.15 0.056 0.014 -0.012 -0.056
C53 0.187 0.101 0.069 -0.002 0.031 0.017
C54 0.172 0.084 0.081 0.024 0.026 0.06
Na1D 0.0427 0.0425 0.0399 0.0018 -0.0061 0.0051
Na1A 0.0427 0.0425 0.0399 0.0018 -0.0061 0.0051
Na1B 0.0427(7) 0.0425(7) 0.0399(7) -0.0018(5) -0.0061(5) -0.0051(5)
Na1E 0.0427 0.0425 0.0399 0.0018 -0.0061 0.0051
O1D 0.0286 0.0567 0.0433 -0.0046 -0.0056 -0.0019
O4A 0.0896 0.0368 0.0405 0.007 -0.0106 0.0031
O6B 0.0456 0.0351 0.0426 0.0031 -0.0207 0.0003
O7E 0.0903 0.0405 0.0492 -0.0105 -0.0099 0.0062
loop_
_geom_bond_atom_site_label_1
_geom_bond_atom_site_label_2
_geom_bond_site_symmetry_1
_geom_bond_site_symmetry_2
N1 C3 1_555 1_555
N2 H1 1_555 1_555
N3 C13 1_555 1_555
N4 H2 1_555 1_555
C1 N4 1_555 1_555
C2 C1 1_555 1_555
C3 C2 1_555 1_555
C4 C3 1_555 1_555
H3 C4 1_555 1_555
C5 C4 1_555 1_555
H4 C5 1_555 1_555
C6 N1 1_555 1_555
C7 C6 1_555 1_555
C8 N2 1_555 1_555
C9 C8 1_555 1_555
H5 C9 1_555 1_555
C10 C9 1_555 1_555
H6 C10 1_555 1_555
C11 N2 1_555 1_555
C12 C11 1_555 1_555
C13 C12 1_555 1_555
C14 C13 1_555 1_555
H7 C14 1_555 1_555
C15 C14 1_555 1_555
H8 C15 1_555 1_555
C16 N3 1_555 1_555
C17 C16 1_555 1_555
C18 N4 1_555 1_555
C19 C18 1_555 1_555
H9 C19 1_555 1_555
C20 C1 1_555 1_555
H10 C20 1_555 1_555
C21 C2 1_555 1_555
C22 C21 1_555 1_555
H11 C22 1_555 1_555
C23 C22 1_555 1_555
H12 C23 1_555 1_555
C24 C23 1_555 1_555
C25 C24 1_555 1_555
H13 C25 1_555 1_555
C26 C21 1_555 1_555
H14 C26 1_555 1_555
C27 C24 1_555 1_555
O1 C27 1_555 1_555
O2 C27 1_555 1_555
H15 O2 1_555 1_555
C28 C7 1_555 1_555
C29 C28 1_555 1_555
H16 C29 1_555 1_555
C30 C29 1_555 1_555
H17 C30 1_555 1_555
C31 C30 1_555 1_555
C32 C31 1_555 1_555
H18 C32 1_555 1_555
C33 C28 1_555 1_555
H19 C33 1_555 1_555
C34 C31 1_555 1_555
O3 C34 1_555 1_555
H20 O3 1_555 1_555
O4 C34 1_555 1_555
C35 C12 1_555 1_555
C36 C35 1_555 1_555
H21 C36 1_555 1_555
C37 C36 1_555 1_555
H22 C37 1_555 1_555
C38 C37 1_555 1_555
C39 C38 1_555 1_555
H23 C39 1_555 1_555
C40 C35 1_555 1_555
H24 C40 1_555 1_555
C41 C38 1_555 1_555
O5 C41 1_555 1_555
O6 C41 1_555 1_555
C42 C17 1_555 1_555
C43 C42 1_555 1_555
H25 C43 1_555 1_555
C44 C43 1_555 1_555
H26 C44 1_555 1_555
C45 C44 1_555 1_555
C46 C45 1_555 1_555
H27 C46 1_555 1_555
C47 C42 1_555 1_555
H28 C47 1_555 1_555
C48 C45 1_555 1_555
O7 C48 1_555 1_555
O8 C48 1_555 1_555
H29 O8 1_555 1_555
Na1 O1 1_555 1_555
O9 Na1 1_555 1_555
O10 N5 1_555 1_555
N5 O9 1_555 1_555
C49 N5 1_555 1_555
C50 C49 1_555 1_555
H30 C50 1_555 1_555
C51 C50 1_555 1_555
H31 C51 1_555 1_555
C52 C51 1_555 1_555
H32 C52 1_555 1_555
C53 C52 1_555 1_555
H33 C53 1_555 1_555
C54 C49 1_555 1_555
H34 C54 1_555 1_555
Na1D O1 1_555 1_555
Na1A O4 1_555 1_555
Na1B O6 1_555 1_555
Na1E O7 1_555 1_555
O1D Na1 1_555 1_555
O4A Na1 1_555 1_555
O6B Na1 1_555 1_555
O7E Na1 1_555 1_555
C5 C6 1_555 1_555
C7 C8 1_555 1_555
C10 C11 1_555 1_555
C15 C16 1_555 1_555
C17 C18 1_555 1_555
C19 C20 1_555 1_555
C25 C26 1_555 1_555
C32 C33 1_555 1_555
C39 C40 1_555 1_555
C46 C47 1_555 1_555
C53 C54 1_555 1_555
Na1D O1D 1_555 1_555

#END
