
#######################################################################
#
#                 Cambridge Crystallographic Data Centre
#                                CCDC 
#
#######################################################################
#
# If this CIF has been generated from an entry in the Cambridge 
# Structural Database, then it will include bibliographic, chemical, 
# crystal, experimental, refinement or atomic coordinate data resulting 
# from the CCDC's data processing and validation procedures.
#
#######################################################################

data_EBUQIB
_chemical_formula_moiety         '(C96 H58 N8 Na2 O18 Zn2)n'
_symmetry_cell_setting           monoclinic
_symmetry_space_group_name_H-M   'P 21/n'
_symmetry_Int_Tables_number      14
_space_group_name_Hall           '-P 2yn'
loop_
_symmetry_equiv_pos_site_id
_symmetry_equiv_pos_as_xyz
1 x,y,z
2 1/2+x,1/2-y,1/2+z
3 -x,-y,-z
4 1/2-x,1/2+y,1/2-z
_cell_length_a                   10.8640(7)
_cell_length_b                   21.5620(11)
_cell_length_c                   45.165(3)
_cell_angle_alpha                90
_cell_angle_beta                 93.858(2)
_cell_angle_gamma                90
_cell_volume                     10555.9
loop_
_atom_site_label
_atom_site_type_symbol
_atom_site_fract_x
_atom_site_fract_y
_atom_site_fract_z
N1 N 0.1812(3) 0.28052(13) 0.83983(8)
N2 N 0.0751(3) 0.30000(14) 0.89611(7)
N3 N -0.0101(3) 0.17306(14) 0.89543(7)
N4 N 0.1128(3) 0.15190(14) 0.84074(8)
C1 C 0.1717(4) 0.15094(17) 0.81569(9)
C2 C 0.2197(4) 0.20258(18) 0.80184(9)
C3 C 0.2205(4) 0.26361(18) 0.81269(10)
C4 C 0.2720(4) 0.31538(18) 0.79926(10)
H1 H 0.3063 0.3158 0.7809
C5 C 0.2632(4) 0.3639(2) 0.81735(11)
H2 H 0.2890 0.4042 0.8139
C6 C 0.2067(4) 0.34215(17) 0.84301(10)
C7 C 0.1898(4) 0.37707(16) 0.86865(10)
C8 C 0.1311(4) 0.35650(17) 0.89336(10)
C9 C 0.1229(4) 0.38976(18) 0.92064(10)
H3 H 0.1554 0.4289 0.9249
C10 C 0.0608(4) 0.35501(17) 0.93890(9)
H4 H 0.0423 0.3653 0.9581
C11 C 0.0276(4) 0.29821(19) 0.92328(10)
C12 C -0.0384(4) 0.24823(18) 0.93512(9)
C13 C -0.0564(4) 0.19112(17) 0.92113(10)
C14 C -0.1266(4) 0.14097(18) 0.93234(10)
H5 H -0.1714 0.1422 0.9492
C15 C -0.1162(4) 0.09208(19) 0.91432(10)
H6 H -0.1519 0.0532 0.9164
C16 C -0.0397(4) 0.11107(16) 0.89124(9)
C17 C -0.0029(4) 0.07302(18) 0.86837(10)
C18 C 0.0722(4) 0.09243(17) 0.84555(10)
C19 C 0.1083(4) 0.05336(18) 0.82168(9)
H7 H 0.0920 0.0112 0.8193
C20 C 0.1705(4) 0.08991(18) 0.80342(10)
H8 H 0.2058 0.0776 0.7862
C21 C 0.2819(4) 0.19313(19) 0.77293(9)
C22 C 0.2200(4) 0.20715(19) 0.74592(10)
H9 H 0.1391 0.2214 0.7454
C23 C 0.2780(4) 0.20009(19) 0.71930(10)
H10 H 0.2351 0.2092 0.7013
C24 C 0.3958(4) 0.18021(18) 0.71966(9)
C25 C 0.4601(4) 0.1661(2) 0.74632(10)
H11 H 0.5413 0.1523 0.7467
C26 C 0.4013(4) 0.1729(2) 0.77267(11)
H12 H 0.4445 0.1635 0.7906
C27 C 0.4582(4) 0.17501(17) 0.69113(10)
O1 O 0.4033(3) 0.18211(13) 0.66791(6)
O2 O 0.5767(3) 0.16140(13) 0.69503(7)
H13 H 0.6076 0.1632 0.6759
C28 C 0.2375(4) 0.44313(19) 0.86934(10)
C29 C 0.1579(4) 0.49391(18) 0.87240(10)
H14 H 0.0736 0.4872 0.8732
C30 C 0.2038(4) 0.55312(17) 0.87427(10)
H15 H 0.1511 0.5863 0.8769
C31 C 0.3279(4) 0.56329(17) 0.87221(9)
C32 C 0.4066(4) 0.51381(18) 0.86829(10)
H16 H 0.4895 0.5214 0.8659
C33 C 0.3653(4) 0.45512(19) 0.86790(10)
H17 H 0.4205 0.4224 0.8667
C34 C 0.3771(4) 0.62867(19) 0.87316(9)
O3 O 0.4782(3) 0.63974(12) 0.86238(6)
O4 O 0.3194(2) 0.66996(11) 0.88735(6)
C35 C -0.0831(4) 0.25717(19) 0.96511(9)
C36 C -0.0410(4) 0.2161(2) 0.98834(10)
H18 H 0.0133 0.1842 0.9845
C37 C -0.0809(4) 0.22345(18) 1.01674(10)
H19 H -0.0560 0.1957 1.0317
C38 C -0.1580(4) 0.27241(18) 1.02250(9)
C39 C -0.1954(4) 0.31324(19) 0.99992(10)
H20 H -0.2455 0.3467 1.0040
C40 C -0.1598(4) 0.3053(2) 0.97175(10)
H21 H -0.1877 0.3326 0.9569
C41 C -0.1943(4) 0.28185(19) 1.05339(9)
O5 O -0.1642(3) 0.24716(13) 1.07348(7)
O6 O -0.2635(3) 0.33339(13) 1.05677(6)
H22 H -0.2838 0.3321 1.0769
C42 C -0.0370(4) 0.00732(18) 0.86904(10)
C43 C 0.0418(5) -0.03892(19) 0.87805(14)
H23 H 0.1221 -0.0294 0.8850
C44 C 0.0035(5) -0.1001(2) 0.87700(14)
H24 H 0.0603 -0.1307 0.8828
C45 C -0.1097(4) -0.11718(18) 0.86812(9)
C46 C -0.1912(5) -0.07218(19) 0.86042(13)
H25 H -0.2731 -0.0820 0.8551
C47 C -0.1519(5) -0.0105(2) 0.86055(14)
H26 H -0.2087 0.0198 0.8544
C48 C -0.1606(4) -0.18146(16) 0.86602(9)
O7 O -0.2672(3) -0.19296(12) 0.86370(7)
O8 O -0.0741(3) -0.22320(12) 0.86716(7)
H27 H -0.1085 -0.2634 0.8643
Zn1 Zn 0.09839(5) 0.22489(2) 0.869457(12)
O9 O 0.2759(3) 0.19497(16) 0.89612(8)
N5 N 0.6223(3) 0.29752(16) 0.91480(8)
N6 N 0.5554(3) 0.16773(14) 0.91560(8)
N7 N 0.6493(3) 0.15157(14) 0.85786(8)
N8 N 0.7379(3) 0.27724(14) 0.85966(7)
C49 C 0.7736(4) 0.33790(19) 0.86483(9)
C50 C 0.7345(4) 0.37506(17) 0.88739(9)
C51 C 0.6598(4) 0.35766(16) 0.90960(9)
C52 C 0.6095(4) 0.39589(18) 0.93133(10)
H28 H 0.6180 0.4388 0.9324
C53 C 0.5484(4) 0.36177(19) 0.94999(11)
H29 H 0.5096 0.3755 0.9665
C54 C 0.5551(4) 0.29829(19) 0.93901(10)
C55 C 0.5076(4) 0.2444(2) 0.95288(10)
C56 C 0.5118(5) 0.18399(18) 0.94233(10)
C57 C 0.4558(5) 0.13234(19) 0.95585(10)
H30 H 0.4196 0.1323 0.9739
C58 C 0.4658(4) 0.08182(19) 0.93682(9)
H31 H 0.4390 0.0415 0.9398
C59 C 0.5262(4) 0.10521(19) 0.91166(11)
C60 C 0.5354(4) 0.07331(18) 0.88517(10)
C61 C 0.5894(4) 0.09521(19) 0.85965(10)
C62 C 0.5889(4) 0.0635(2) 0.83152(9)
H32 H 0.5501 0.0260 0.8268
C63 C 0.6537(4) 0.09751(17) 0.81366(10)
H33 H 0.6719 0.0876 0.7944
C64 C 0.6909(4) 0.15307(17) 0.82995(9)
C65 C 0.7619(4) 0.20053(19) 0.81987(9)
C66 C 0.7892(4) 0.25864(18) 0.83460(10)
C67 C 0.8681(4) 0.30697(18) 0.82403(10)
H34 H 0.9160 0.3050 0.8077
C68 C 0.8581(4) 0.35485(19) 0.84244(9)
H35 H 0.8983 0.3927 0.8412
C69 C 0.7689(4) 0.44244(17) 0.88641(9)
C70 C 0.7343(4) 0.47822(17) 0.86145(10)
H36 H 0.6880 0.4602 0.8456
C71 C 0.7674(4) 0.53971(18) 0.85979(9)
H37 H 0.7402 0.5632 0.8434
C72 C 0.8402(4) 0.56650(17) 0.88225(9)
C73 C 0.8770(4) 0.53241(18) 0.90729(9)
H38 H 0.9249 0.5506 0.9228
C74 C 0.8411(4) 0.47013(18) 0.90902(10)
H39 H 0.8664 0.4470 0.9257
C75 C 0.8841(4) 0.6334(2) 0.88025(9)
O10 O 0.8340(2) 0.66620(11) 0.85960(6)
O11 O 0.9690(3) 0.65304(12) 0.89812(6)
C76 C 0.4413(4) 0.25667(18) 0.98060(9)
C77 C 0.5001(4) 0.2468(2) 1.00793(10)
H40 H 0.5817 0.2336 1.0097
C78 C 0.4354(4) 0.2571(2) 1.03327(11)
H41 H 0.4739 0.2496 1.0519
C79 C 0.3146(4) 0.27820(19) 1.03087(9)
C80 C 0.2578(4) 0.2886(2) 1.00294(10)
H42 H 0.1771 0.3031 1.0009
C81 C 0.3224(4) 0.2770(2) 0.97806(11)
H43 H 0.2837 0.2833 0.9593
C82 C 0.2513(4) 0.2919(2) 1.05840(10)
O12 O 0.2988(3) 0.29124(15) 1.08271(6)
O13 O 0.1319(3) 0.30981(14) 1.05252(7)
H44 H 0.0967 0.3233 1.0702
C83 C 0.4890(4) 0.00646(18) 0.88367(10)
C84 C 0.5533(4) -0.03989(19) 0.89854(10)
H45 H 0.6240 -0.0302 0.9104
C85 C 0.5136(4) -0.1030(2) 0.89608(10)
H46 H 0.5582 -0.1347 0.9058
C86 C 0.4097(4) -0.11484(18) 0.87934(10)
C87 C 0.3420(5) -0.06955(18) 0.86348(12)
H47 H 0.2714 -0.0795 0.8516
C88 C 0.3840(4) -0.0092(2) 0.86605(12)
H48 H 0.3405 0.0220 0.8556
C89 C 0.3595(4) -0.18199(19) 0.87618(10)
O14 O 0.4358(3) -0.22394(12) 0.88769(6)
H49 H 0.3930 -0.2624 0.8876
O15 O 0.2562(3) -0.19171(12) 0.86493(7)
C90 C 0.8109(4) 0.19325(18) 0.78947(9)
C91 C 0.7739(4) 0.23688(17) 0.76735(9)
H50 H 0.7268 0.2711 0.7720
C92 C 0.8089(4) 0.22806(18) 0.73855(9)
H51 H 0.7857 0.2568 0.7239
C93 C 0.8771(4) 0.17741(18) 0.73165(9)
C94 C 0.9133(4) 0.13420(19) 0.75369(10)
H52 H 0.9618 0.1004 0.7492
C95 C 0.8766(4) 0.14219(19) 0.78189(10)
H53 H 0.8968 0.1122 0.7962
C96 C 0.9090(4) 0.1696(2) 0.70035(10)
O16 O 0.8836(3) 0.20894(14) 0.68173(7)
O17 O 0.9693(3) 0.11821(12) 0.69395(6)
H54 H 0.9880 0.1261 0.6740
Zn2 Zn 0.63163(5) 0.22471(2) 0.885532(12)
O18 O 0.4514(3) 0.25609(17) 0.86091(9)
Na1 Na 0.62678(15) 0.71613(7) 0.86892(4)
Na2 Na 0.37672(15) 0.22647(7) 0.62235(4)
Na2C Na 0.12328(15) 0.72647(7) 0.87765(4)
Na2A Na -0.12328(15) 0.27353(7) 1.12235(4)
Na1_2 Na -0.37322(15) -0.28387(7) 0.86892(4)
Na2C_2 Na 0.12328(15) -0.27353(7) 0.87765(4)
Na2C_3 Na 1.12328(15) 0.72647(7) 0.87765(4)
Na1B Na 0.37322(15) 0.28387(7) 1.13108(4)
Na1_3 Na 0.62678(15) -0.28387(7) 0.86892(4)
Na1C Na 0.87322(15) 0.21613(7) 0.63108(4)
O7_2 O 0.7328(3) 0.80704(12) 0.86370(7)
O12B O 0.7012(3) 0.70876(15) 0.91729(6)
O14_2 O 0.4358(3) 0.77606(12) 0.88769(6)
O16C O 0.6164(3) 0.70894(14) 0.81827(7)
O4C O 0.1806(2) 0.16996(11) 0.61265(6)
O5A O 0.3358(3) 0.25284(13) 0.57348(7)
O8C O 0.5741(3) 0.27680(12) 0.63284(7)
O11C O 0.5310(3) 0.15304(12) 0.60188(6)
O15C O 0.2438(3) 0.30829(12) 0.63507(7)
H49_2 H 0.3930 0.7376 0.8876
H27C H 0.6085 0.2366 0.6357
loop_
_geom_bond_atom_site_label_1
_geom_bond_atom_site_label_2
_geom_bond_site_symmetry_1
_geom_bond_site_symmetry_2
N1 C3 1_555 1_555
N2 C8 1_555 1_555
N3 C13 1_555 1_555
N4 C1 1_555 1_555
C1 C2 1_555 1_555
C2 C3 1_555 1_555
C3 C4 1_555 1_555
C4 H1 1_555 1_555
C5 C4 1_555 1_555
H2 C5 1_555 1_555
C6 N1 1_555 1_555
C7 C6 1_555 1_555
C8 C7 1_555 1_555
C9 C8 1_555 1_555
H3 C9 1_555 1_555
C10 C9 1_555 1_555
H4 C10 1_555 1_555
C11 N2 1_555 1_555
C12 C11 1_555 1_555
C13 C12 1_555 1_555
C14 C13 1_555 1_555
H5 C14 1_555 1_555
C15 C14 1_555 1_555
H6 C15 1_555 1_555
C16 N3 1_555 1_555
C17 C16 1_555 1_555
C18 N4 1_555 1_555
C19 C18 1_555 1_555
H7 C19 1_555 1_555
C20 C1 1_555 1_555
H8 C20 1_555 1_555
C21 C2 1_555 1_555
C22 C21 1_555 1_555
H9 C22 1_555 1_555
C23 C22 1_555 1_555
H10 C23 1_555 1_555
C24 C23 1_555 1_555
C25 C24 1_555 1_555
H11 C25 1_555 1_555
C26 C21 1_555 1_555
H12 C26 1_555 1_555
C27 C24 1_555 1_555
O1 C27 1_555 1_555
O2 C27 1_555 1_555
H13 O2 1_555 1_555
C28 C7 1_555 1_555
C29 C28 1_555 1_555
H14 C29 1_555 1_555
C30 C29 1_555 1_555
H15 C30 1_555 1_555
C31 C30 1_555 1_555
C32 C31 1_555 1_555
H16 C32 1_555 1_555
C33 C28 1_555 1_555
H17 C33 1_555 1_555
C34 C31 1_555 1_555
O3 C34 1_555 1_555
O4 C34 1_555 1_555
C35 C12 1_555 1_555
C36 C35 1_555 1_555
H18 C36 1_555 1_555
C37 C36 1_555 1_555
H19 C37 1_555 1_555
C38 C37 1_555 1_555
C39 C38 1_555 1_555
H20 C39 1_555 1_555
C40 C35 1_555 1_555
H21 C40 1_555 1_555
C41 C38 1_555 1_555
O5 C41 1_555 1_555
O6 C41 1_555 1_555
H22 O6 1_555 1_555
C42 C17 1_555 1_555
C43 C42 1_555 1_555
H23 C43 1_555 1_555
C44 C43 1_555 1_555
H24 C44 1_555 1_555
C45 C44 1_555 1_555
C46 C45 1_555 1_555
H25 C46 1_555 1_555
C47 C42 1_555 1_555
H26 C47 1_555 1_555
C48 C45 1_555 1_555
O7 C48 1_555 1_555
O8 C48 1_555 1_555
H27 O8 1_555 1_555
Zn1 N1 1_555 1_555
O9 Zn1 1_555 1_555
N5 C51 1_555 1_555
N6 C56 1_555 1_555
N7 C61 1_555 1_555
N8 C49 1_555 1_555
C49 C50 1_555 1_555
C50 C51 1_555 1_555
C51 C52 1_555 1_555
C52 H28 1_555 1_555
C53 C52 1_555 1_555
H29 C53 1_555 1_555
C54 N5 1_555 1_555
C55 C54 1_555 1_555
C56 C55 1_555 1_555
C57 C56 1_555 1_555
H30 C57 1_555 1_555
C58 C57 1_555 1_555
H31 C58 1_555 1_555
C59 N6 1_555 1_555
C60 C59 1_555 1_555
C61 C60 1_555 1_555
C62 C61 1_555 1_555
H32 C62 1_555 1_555
C63 C62 1_555 1_555
H33 C63 1_555 1_555
C64 N7 1_555 1_555
C65 C64 1_555 1_555
C66 N8 1_555 1_555
C67 C66 1_555 1_555
H34 C67 1_555 1_555
C68 C49 1_555 1_555
H35 C68 1_555 1_555
C69 C50 1_555 1_555
C70 C69 1_555 1_555
H36 C70 1_555 1_555
C71 C70 1_555 1_555
H37 C71 1_555 1_555
C72 C71 1_555 1_555
C73 C72 1_555 1_555
H38 C73 1_555 1_555
C74 C69 1_555 1_555
H39 C74 1_555 1_555
C75 C72 1_555 1_555
O10 C75 1_555 1_555
O11 C75 1_555 1_555
C76 C55 1_555 1_555
C77 C76 1_555 1_555
H40 C77 1_555 1_555
C78 C77 1_555 1_555
H41 C78 1_555 1_555
C79 C78 1_555 1_555
C80 C79 1_555 1_555
H42 C80 1_555 1_555
C81 C76 1_555 1_555
H43 C81 1_555 1_555
C82 C79 1_555 1_555
O12 C82 1_555 1_555
O13 C82 1_555 1_555
H44 O13 1_555 1_555
C83 C60 1_555 1_555
C84 C83 1_555 1_555
H45 C84 1_555 1_555
C85 C84 1_555 1_555
H46 C85 1_555 1_555
C86 C85 1_555 1_555
C87 C86 1_555 1_555
H47 C87 1_555 1_555
C88 C83 1_555 1_555
H48 C88 1_555 1_555
C89 C86 1_555 1_555
O14 C89 1_555 1_555
H49 O14 1_555 1_555
O15 C89 1_555 1_555
C90 C65 1_555 1_555
C91 C90 1_555 1_555
H50 C91 1_555 1_555
C92 C91 1_555 1_555
H51 C92 1_555 1_555
C93 C92 1_555 1_555
C94 C93 1_555 1_555
H52 C94 1_555 1_555
C95 C90 1_555 1_555
H53 C95 1_555 1_555
C96 C93 1_555 1_555
O16 C96 1_555 1_555
O17 C96 1_555 1_555
H54 O17 1_555 1_555
Zn2 N5 1_555 1_555
O18 Zn2 1_555 1_555
Na1 O3 1_555 1_555
Na2 O1 1_555 1_555
Na2C O4 1_555 1_555
Na2A O5 1_555 1_555
Na1_2 O7 1_555 1_555
Na2C_2 O8 1_555 1_555
Na2C_3 O11 1_555 1_555
Na1B O12 1_555 1_555
Na1_3 O14 1_555 1_555
Na1C O16 1_555 1_555
O7_2 Na1 1_555 1_555
O12B Na1 1_555 1_555
O14_2 Na1 1_555 1_555
O16C Na1 1_555 1_555
O4C Na2 1_555 1_555
O5A Na2 1_555 1_555
O8C Na2 1_555 1_555
O11C Na2 1_555 1_555
O15C Na2 1_555 1_555
H49_2 O14_2 1_555 1_555
H27C O8C 1_555 1_555
N2 Zn1 1_555 1_555
N3 Zn1 1_555 1_555
N4 Zn1 1_555 1_555
C5 C6 1_555 1_555
C10 C11 1_555 1_555
C15 C16 1_555 1_555
C17 C18 1_555 1_555
C19 C20 1_555 1_555
C25 C26 1_555 1_555
C32 C33 1_555 1_555
C39 C40 1_555 1_555
C46 C47 1_555 1_555
N6 Zn2 1_555 1_555
N7 Zn2 1_555 1_555
N8 Zn2 1_555 1_555
C53 C54 1_555 1_555
C58 C59 1_555 1_555
C63 C64 1_555 1_555
C65 C66 1_555 1_555
C67 C68 1_555 1_555
C73 C74 1_555 1_555
O10 Na1 1_555 1_555
C80 C81 1_555 1_555
C87 C88 1_555 1_555
O15 Na2C_2 1_555 1_555
C94 C95 1_555 1_555

#END
