
#######################################################################
#
#                 Cambridge Crystallographic Data Centre
#                                CCDC 
#
#######################################################################
#
# If this CIF has been generated from an entry in the Cambridge 
# Structural Database, then it will include bibliographic, chemical, 
# crystal, experimental, refinement or atomic coordinate data resulting 
# from the CCDC's data processing and validation procedures.
#
#######################################################################

data_CAWGAJ
_chemical_formula_moiety         '(C30 H28 F8 N6 O6 U2 Zn2)n'
_symmetry_cell_setting           monoclinic
_symmetry_space_group_name_H-M   'P 21/c'
_symmetry_Int_Tables_number      14
_space_group_name_Hall           '-P 2ybc'
loop_
_symmetry_equiv_pos_site_id
_symmetry_equiv_pos_as_xyz
1 x,y,z
2 -x,1/2+y,1/2-z
3 -x,-y,-z
4 x,1/2-y,1/2+z
_cell_length_a                   9.4630(5)
_cell_length_b                   22.3836(12)
_cell_length_c                   16.7534(8)
_cell_angle_alpha                90
_cell_angle_beta                 91.899(2)
_cell_angle_gamma                90
_cell_volume                     3546.69
loop_
_atom_site_label
_atom_site_type_symbol
_atom_site_fract_x
_atom_site_fract_y
_atom_site_fract_z
U1 U 0.457019(9) 0.748114(4) 0.864421(5)
U2 U 0.094274(9) 0.746078(4) 0.735066(5)
Zn1 Zn 0.15887(3) 0.745950(12) 0.994545(15)
Zn2 Zn 0.77396(3) 0.753690(14) 1.050420(15)
F1 F 0.33984(13) 0.75057(7) 0.74174(7)
F2 F 0.65477(13) 0.74875(6) 0.94340(7)
F3 F 0.38193(13) 0.74384(6) 0.99289(7)
F4 F 0.19398(13) 0.74548(6) 0.86683(7)
F5 F 0.62951(14) 0.75235(7) 0.77582(8)
F6 F -0.10487(13) 0.74439(6) 0.65695(8)
F7 F 0.17198(14) 0.75834(6) 0.61225(8)
F8 F -0.05136(13) 0.74766(6) 0.97842(7)
O1 O 0.4502(2) 0.82725(7) 0.86709(11)
O2 O 0.4569(2) 0.66893(7) 0.86207(11)
O3 O 0.0824(2) 0.82500(7) 0.74348(11)
O4 O 0.1049(2) 0.66723(7) 0.72936(11)
O5 O -0.10418(18) 0.73690(8) 0.82442(10)
H1 H -0.0995 0.7445 0.8749
H2 H -0.1801 0.7405 0.8063
O6 O 0.58680(18) 0.75931(8) 1.11423(10)
H3 H 0.5154 0.7489 1.0878
H4 H 0.5750 0.7587 1.1584
N1 N 0.1780(2) 0.83828(9) 0.99057(14)
N2 N 0.2237(2) 1.15237(9) 0.95764(14)
N3 N 0.1725(2) 0.65346(9) 0.98458(13)
N4 N 0.2292(2) 0.34012(9) 0.94458(13)
C1 C 0.0946(3) 0.86980(11) 0.93995(17)
H5 H 0.0255 0.8497 0.9097
C2 C 0.1070(3) 0.93063(11) 0.93094(17)
H6 H 0.0471 0.9510 0.8952
C3 C 0.2775(3) 0.86802(11) 1.03350(17)
H7 H 0.3356 0.8466 1.0691
C4 C 0.2975(3) 0.92835(11) 1.02722(17)
H8 H 0.3691 0.9471 1.0572
C5 C 0.2099(3) 0.96157(11) 0.97565(17)
C6 C 0.2210(3) 1.02761(11) 0.96799(17)
C7 C 0.1739(3) 1.05736(11) 0.89972(16)
H9 H 0.1398 1.0357 0.8558
C8 C 0.1771(3) 1.11857(11) 0.89646(17)
H10 H 0.1456 1.1374 0.8497
C9 C 0.2734(3) 1.06302(11) 1.03055(16)
H11 H 0.3098 1.0453 1.0771
C10 C 0.2714(3) 1.12401(11) 1.02336(16)
H12 H 0.3049 1.1468 1.0664
C11 C 0.1064(3) 0.62413(11) 0.92468(17)
H13 H 0.0480 0.6457 0.8894
C12 C 0.1203(3) 0.56362(11) 0.91255(16)
H14 H 0.0728 0.5451 0.8698
C13 C 0.2560(3) 0.62137(11) 1.03461(16)
H15 H 0.3034 0.6411 1.0764
C14 C 0.2750(3) 0.56079(11) 1.02706(17)
H16 H 0.3335 0.5403 1.0634
C15 C 0.2064(3) 0.53032(11) 0.96494(17)
C16 C 0.2176(3) 0.46457(11) 0.95544(16)
C17 C 0.1058(3) 0.43191(10) 0.92202(15)
H17 H 0.0249 0.4513 0.9024
C18 C 0.1158(3) 0.37058(11) 0.91811(16)
H18 H 0.0397 0.3493 0.8959
C19 C 0.3370(3) 0.43281(11) 0.98135(16)
H19 H 0.4151 0.4529 1.0032
C20 C 0.3391(3) 0.37182(11) 0.97459(16)
H20 H 0.4203 0.3514 0.9916
Zn1C Zn 0.15887(3) 0.754050(12) 0.494545(15)
Zn2C Zn -0.22604(3) 0.746310(14) 0.550420(15)
Zn2_2 Zn -0.22604(3) 0.753690(14) 1.050420(15)
Zn2B Zn 0.22604(3) 1.246310(14) 0.949580(15)
Zn2B_2 Zn 0.22604(3) 0.246310(14) 0.949580(15)
F6C F 0.89513(13) 0.75561(6) 1.15695(8)
F7C F 0.17198(14) 0.74166(6) 1.11225(8)
F8_2 F 0.94864(13) 0.74766(6) 0.97842(7)
N2B N 0.7763(2) 0.84763(9) 1.04236(14)
N4B N 0.7708(2) 0.65988(9) 1.05542(13)
N5 N -0.8742(3) 0.45387(12) 0.71545(15)
N6 N -0.1500(3) 0.51375(10) 0.80501(14)
C21 C -0.8229(3) 0.50906(14) 0.71910(19)
H21 H -0.8854 0.5403 0.7085
C22 C -0.6841(3) 0.52340(13) 0.73737(17)
H22 H -0.6550 0.5631 0.7393
C23 C -0.7821(3) 0.41031(14) 0.73188(17)
H23 H -0.8154 0.3712 0.7306
C24 C -0.6412(3) 0.41908(12) 0.75055(16)
H24 H -0.5819 0.3868 0.7615
C25 C -0.5885(3) 0.47761(12) 0.75285(16)
C26 C -0.4370(3) 0.48981(11) 0.77104(16)
C27 C -0.3931(3) 0.54437(12) 0.80299(17)
H25 H -0.4588 0.5739 0.8137
C28 C -0.2504(3) 0.55410(12) 0.81861(17)
H26 H -0.2228 0.5909 0.8398
C29 C -0.3324(3) 0.44829(11) 0.75562(16)
H27 H -0.3564 0.4116 0.7330
C30 C -0.1932(3) 0.46158(12) 0.77379(17)
H28 H -0.1253 0.4327 0.7638
loop_
_geom_bond_atom_site_label_1
_geom_bond_atom_site_label_2
_geom_bond_site_symmetry_1
_geom_bond_site_symmetry_2
U1 F1 1_555 1_555
U2 F1 1_555 1_555
Zn1 F3 1_555 1_555
Zn2 F2 1_555 1_555
F2 U1 1_555 1_555
F3 U1 1_555 1_555
F4 U1 1_555 1_555
F5 U1 1_555 1_555
F6 U2 1_555 1_555
F7 U2 1_555 1_555
F8 Zn1 1_555 1_555
O1 U1 1_555 1_555
O2 U1 1_555 1_555
O3 U2 1_555 1_555
O4 U2 1_555 1_555
O5 U2 1_555 1_555
H1 O5 1_555 1_555
H2 O5 1_555 1_555
O6 Zn2 1_555 1_555
H3 O6 1_555 1_555
H4 O6 1_555 1_555
N1 Zn1 1_555 1_555
N2 C8 1_555 1_555
N3 Zn1 1_555 1_555
N4 C18 1_555 1_555
N5 C21 1_555 1_555
N6 C28 1_555 1_555
C1 N1 1_555 1_555
H5 C1 1_555 1_555
C2 C1 1_555 1_555
H6 C2 1_555 1_555
C3 N1 1_555 1_555
H7 C3 1_555 1_555
C4 C3 1_555 1_555
H8 C4 1_555 1_555
C5 C2 1_555 1_555
C6 C5 1_555 1_555
C7 C6 1_555 1_555
H9 C7 1_555 1_555
C8 C7 1_555 1_555
H10 C8 1_555 1_555
C9 C6 1_555 1_555
H11 C9 1_555 1_555
C10 N2 1_555 1_555
H12 C10 1_555 1_555
C11 N3 1_555 1_555
H13 C11 1_555 1_555
C12 C11 1_555 1_555
H14 C12 1_555 1_555
C13 N3 1_555 1_555
H15 C13 1_555 1_555
C14 C13 1_555 1_555
H16 C14 1_555 1_555
C15 C12 1_555 1_555
C16 C15 1_555 1_555
C17 C16 1_555 1_555
H17 C17 1_555 1_555
C18 C17 1_555 1_555
H18 C18 1_555 1_555
C19 C16 1_555 1_555
H19 C19 1_555 1_555
C20 N4 1_555 1_555
H20 C20 1_555 1_555
C21 H21 1_555 1_555
C22 C21 1_555 1_555
H22 C22 1_555 1_555
C23 N5 1_555 1_555
H23 C23 1_555 1_555
C24 C23 1_555 1_555
H24 C24 1_555 1_555
C25 C22 1_555 1_555
C26 C25 1_555 1_555
C27 C26 1_555 1_555
H25 C27 1_555 1_555
C28 C27 1_555 1_555
H26 C28 1_555 1_555
C29 C26 1_555 1_555
H27 C29 1_555 1_555
C30 N6 1_555 1_555
H28 C30 1_555 1_555
Zn1C F7 1_555 1_555
Zn2C F6 1_555 1_555
Zn2_2 F8 1_555 1_555
Zn2B N2 1_555 1_555
Zn2B_2 N4 1_555 1_555
F6C Zn2 1_555 1_555
F7C Zn1 1_555 1_555
F8_2 Zn2 1_555 1_555
N2B Zn2 1_555 1_555
N4B Zn2 1_555 1_555
U2 F4 1_555 1_555
Zn1 F4 1_555 1_555
C4 C5 1_555 1_555
C9 C10 1_555 1_555
C14 C15 1_555 1_555
C19 C20 1_555 1_555
C24 C25 1_555 1_555
C29 C30 1_555 1_555

#END
