
#######################################################################
#
#                 Cambridge Crystallographic Data Centre
#                                CCDC 
#
#######################################################################
#
# If this CIF has been generated from an entry in the Cambridge 
# Structural Database, then it will include bibliographic, chemical, 
# crystal, experimental, refinement or atomic coordinate data resulting 
# from the CCDC's data processing and validation procedures.
#
#######################################################################

data_NIRZAQ
_chemical_formula_moiety         'C24 H12 O19 Zn10'
_symmetry_cell_setting           cubic
_symmetry_space_group_name_H-M   'F m -3 m'
_symmetry_Int_Tables_number      225
_space_group_name_Hall           '-F 4 2 3'
loop_
_symmetry_equiv_pos_site_id
_symmetry_equiv_pos_as_xyz
1 x,y,z
2 z,x,y
3 y,z,x
4 y,x,-z
5 y,-x,z
6 -y,x,z
7 x,z,-y
8 -x,z,y
9 x,-z,y
10 z,y,-x
11 z,-y,x
12 -z,y,x
13 x,1/2+y,1/2+z
14 z,1/2+x,1/2+y
15 y,1/2+z,1/2+x
16 y,1/2+x,1/2-z
17 y,1/2-x,1/2+z
18 -y,1/2+x,1/2+z
19 x,1/2+z,1/2-y
20 -x,1/2+z,1/2+y
21 x,1/2-z,1/2+y
22 z,1/2+y,1/2-x
23 z,1/2-y,1/2+x
24 -z,1/2+y,1/2+x
25 1/2+x,y,1/2+z
26 1/2+z,x,1/2+y
27 1/2+y,z,1/2+x
28 1/2+y,x,1/2-z
29 1/2+y,-x,1/2+z
30 1/2-y,x,1/2+z
31 1/2+x,z,1/2-y
32 1/2-x,z,1/2+y
33 1/2+x,-z,1/2+y
34 1/2+z,y,1/2-x
35 1/2+z,-y,1/2+x
36 1/2-z,y,1/2+x
37 1/2+x,1/2+y,z
38 1/2+z,1/2+x,y
39 1/2+y,1/2+z,x
40 1/2+y,1/2+x,-z
41 1/2+y,1/2-x,z
42 1/2-y,1/2+x,z
43 1/2+x,1/2+z,-y
44 1/2-x,1/2+z,y
45 1/2+x,1/2-z,y
46 1/2+z,1/2+y,-x
47 1/2+z,1/2-y,x
48 1/2-z,1/2+y,x
49 -x,-y,z
50 -x,y,-z
51 x,-y,-z
52 z,-x,-y
53 -z,-x,y
54 -z,x,-y
55 -y,z,-x
56 y,-z,-x
57 -y,-z,x
58 -y,-x,-z
59 -x,-z,-y
60 -z,-y,-x
61 -x,1/2-y,1/2+z
62 -x,1/2+y,1/2-z
63 x,1/2-y,1/2-z
64 z,1/2-x,1/2-y
65 -z,1/2-x,1/2+y
66 -z,1/2+x,1/2-y
67 -y,1/2+z,1/2-x
68 y,1/2-z,1/2-x
69 -y,1/2-z,1/2+x
70 -y,1/2-x,1/2-z
71 -x,1/2-z,1/2-y
72 -z,1/2-y,1/2-x
73 1/2-x,-y,1/2+z
74 1/2-x,y,1/2-z
75 1/2+x,-y,1/2-z
76 1/2+z,-x,1/2-y
77 1/2-z,-x,1/2+y
78 1/2-z,x,1/2-y
79 1/2-y,z,1/2-x
80 1/2+y,-z,1/2-x
81 1/2-y,-z,1/2+x
82 1/2-y,-x,1/2-z
83 1/2-x,-z,1/2-y
84 1/2-z,-y,1/2-x
85 1/2-x,1/2-y,z
86 1/2-x,1/2+y,-z
87 1/2+x,1/2-y,-z
88 1/2+z,1/2-x,-y
89 1/2-z,1/2-x,y
90 1/2-z,1/2+x,-y
91 1/2-y,1/2+z,-x
92 1/2+y,1/2-z,-x
93 1/2-y,1/2-z,x
94 1/2-y,1/2-x,-z
95 1/2-x,1/2-z,-y
96 1/2-z,1/2-y,-x
97 -x,-y,-z
98 -z,-x,-y
99 -y,-z,-x
100 -y,-x,z
101 -y,x,-z
102 y,-x,-z
103 -x,-z,y
104 x,-z,-y
105 -x,z,-y
106 -z,-y,x
107 -z,y,-x
108 z,-y,-x
109 -x,1/2-y,1/2-z
110 -z,1/2-x,1/2-y
111 -y,1/2-z,1/2-x
112 -y,1/2-x,1/2+z
113 -y,1/2+x,1/2-z
114 y,1/2-x,1/2-z
115 -x,1/2-z,1/2+y
116 x,1/2-z,1/2-y
117 -x,1/2+z,1/2-y
118 -z,1/2-y,1/2+x
119 -z,1/2+y,1/2-x
120 z,1/2-y,1/2-x
121 1/2-x,-y,1/2-z
122 1/2-z,-x,1/2-y
123 1/2-y,-z,1/2-x
124 1/2-y,-x,1/2+z
125 1/2-y,x,1/2-z
126 1/2+y,-x,1/2-z
127 1/2-x,-z,1/2+y
128 1/2+x,-z,1/2-y
129 1/2-x,z,1/2-y
130 1/2-z,-y,1/2+x
131 1/2-z,y,1/2-x
132 1/2+z,-y,1/2-x
133 1/2-x,1/2-y,-z
134 1/2-z,1/2-x,-y
135 1/2-y,1/2-z,-x
136 1/2-y,1/2-x,z
137 1/2-y,1/2+x,-z
138 1/2+y,1/2-x,-z
139 1/2-x,1/2-z,y
140 1/2+x,1/2-z,-y
141 1/2-x,1/2+z,-y
142 1/2-z,1/2-y,x
143 1/2-z,1/2+y,-x
144 1/2+z,1/2-y,-x
145 x,y,-z
146 x,-y,z
147 -x,y,z
148 -z,x,y
149 z,x,-y
150 z,-x,y
151 y,-z,x
152 -y,z,x
153 y,z,-x
154 y,x,z
155 x,z,y
156 z,y,x
157 x,1/2+y,1/2-z
158 x,1/2-y,1/2+z
159 -x,1/2+y,1/2+z
160 -z,1/2+x,1/2+y
161 z,1/2+x,1/2-y
162 z,1/2-x,1/2+y
163 y,1/2-z,1/2+x
164 -y,1/2+z,1/2+x
165 y,1/2+z,1/2-x
166 y,1/2+x,1/2+z
167 x,1/2+z,1/2+y
168 z,1/2+y,1/2+x
169 1/2+x,y,1/2-z
170 1/2+x,-y,1/2+z
171 1/2-x,y,1/2+z
172 1/2-z,x,1/2+y
173 1/2+z,x,1/2-y
174 1/2+z,-x,1/2+y
175 1/2+y,-z,1/2+x
176 1/2-y,z,1/2+x
177 1/2+y,z,1/2-x
178 1/2+y,x,1/2+z
179 1/2+x,z,1/2+y
180 1/2+z,y,1/2+x
181 1/2+x,1/2+y,-z
182 1/2+x,1/2-y,z
183 1/2-x,1/2+y,z
184 1/2-z,1/2+x,y
185 1/2+z,1/2+x,-y
186 1/2+z,1/2-x,y
187 1/2+y,1/2-z,x
188 1/2-y,1/2+z,x
189 1/2+y,1/2+z,-x
190 1/2+y,1/2+x,z
191 1/2+x,1/2+z,y
192 1/2+z,1/2+y,x
_cell_length_a                   25.8074(18)
_cell_length_b                   25.8074(18)
_cell_length_c                   25.8074(18)
_cell_angle_alpha                90
_cell_angle_beta                 90
_cell_angle_gamma                90
_cell_volume                     17188.3
loop_
_atom_site_label
_atom_site_type_symbol
_atom_site_fract_x
_atom_site_fract_y
_atom_site_fract_z
_atom_site_U_iso_or_equiv
_atom_site_thermal_displace_type
Zn1 Zn 0.29346(4) 0.20654(4) 0.20654(4) 0.0515 Uani
O1 O 0.2500 0.2500 0.2500 0.0510 Uani
O2 O 0.2816(3) 0.2184(3) 0.1338(3) 0.1007 Uani
C1 C 0.2500 0.2500 0.1097(5) 0.0997 Uani
C2 C 0.2500 0.2500 0.0539(6) 0.0907 Uani
C3 C 0.2813(4) 0.2187(4) 0.0261(5) 0.1387 Uani
H1 H 0.3035 0.1965 0.0436 0.1670 Uiso
Zn1B Zn 0.20654(4) 0.20654(4) 0.29346(4) 0.0515 Uani
Zn1A Zn 0.20654(4) 0.29346(4) 0.20654(4) 0.0515 Uani
Zn1KD Zn 0.29346(4) 0.29346(4) 0.29346(4) 0.0515 Uani
Zn1F Zn 0.29346(4) 0.20654(4) -0.20654(4) 0.0515 Uani
Zn1C Zn 0.20654(4) 0.29346(4) -0.20654(4) 0.0515 Uani
Zn1H Zn 0.29346(4) -0.20654(4) 0.20654(4) 0.0515 Uani
Zn1J Zn 0.20654(4) -0.20654(4) 0.29346(4) 0.0515 Uani
Zn1G Zn 0.70654(4) 0.20654(4) 0.20654(4) 0.0515 Uani
Zn1AA Zn 0.70654(4) 0.29346(4) 0.29346(4) 0.0515 Uani
O2WE O 0.2184(3) 0.2816(3) 0.1338(3) 0.1007 Uani
O2NE O 0.2816(3) 0.2184(3) -0.1338(3) 0.1007 Uani
O2C O 0.2184(3) 0.2816(3) -0.1338(3) 0.1007 Uani
O2XE O 0.2816(3) 0.1338(3) 0.2184(3) 0.1007 Uani
O2B O 0.2184(3) 0.1338(3) 0.2816(3) 0.1007 Uani
O2H O 0.2816(3) -0.1338(3) 0.2184(3) 0.1007 Uani
O2TE O 0.2184(3) -0.1338(3) 0.2816(3) 0.1007 Uani
O2ZD O 0.3662(3) 0.2184(3) 0.2184(3) 0.1007 Uani
O2KE O 0.3662(3) 0.2816(3) 0.2816(3) 0.1007 Uani
O2GA O 0.6338(3) 0.2184(3) 0.2184(3) 0.1007 Uani
O2TA O 0.6338(3) 0.2816(3) 0.2816(3) 0.1007 Uani
O2YE O 0.1338(3) 0.2184(3) 0.2816(3) 0.1007 Uani
O2ID O 0.2184(3) 0.2184(3) 0.3662(3) 0.1007 Uani
O2A O 0.1338(3) 0.2816(3) 0.2184(3) 0.1007 Uani
O2HE O 0.2184(3) 0.3662(3) 0.2184(3) 0.1007 Uani
O2KD O 0.2816(3) 0.3662(3) 0.2816(3) 0.1007 Uani
O2TD O 0.2816(3) 0.2816(3) 0.3662(3) 0.1007 Uani
C1C C 0.2500 0.2500 -0.1097(5) 0.0997 Uani
C1B C 0.2500 0.1097(5) 0.2500 0.0997 Uani
C1H C 0.2500 -0.1097(5) 0.2500 0.0997 Uani
C1ZD C 0.3903(5) 0.2500 0.2500 0.0997 Uani
C1GA C 0.6097(5) 0.2500 0.2500 0.0997 Uani
C2C C 0.2500 0.2500 -0.0539(6) 0.0907 Uani
C2B C 0.2500 0.0539(6) 0.2500 0.0907 Uani
C2H C 0.2500 -0.0539(6) 0.2500 0.0907 Uani
C2ZD C 0.4461(6) 0.2500 0.2500 0.0907 Uani
C2GA C 0.5539(6) 0.2500 0.2500 0.0907 Uani
C3NE C 0.2813(4) 0.2187(4) -0.0261(5) 0.1387 Uani
C3C C 0.2187(4) 0.2813(4) -0.0261(5) 0.1387 Uani
C3WE C 0.2187(4) 0.2813(4) 0.0261(5) 0.1387 Uani
C3XE C 0.2813(4) 0.0261(5) 0.2187(4) 0.1387 Uani
C3H C 0.2813(4) -0.0261(5) 0.2187(4) 0.1387 Uani
C3TE C 0.2187(4) -0.0261(5) 0.2813(4) 0.1387 Uani
C3B C 0.2187(4) 0.0261(5) 0.2813(4) 0.1387 Uani
C3ZD C 0.4739(5) 0.2187(4) 0.2187(4) 0.1387 Uani
C3GA C 0.5261(5) 0.2187(4) 0.2187(4) 0.1387 Uani
C3TA C 0.5261(5) 0.2813(4) 0.2813(4) 0.1387 Uani
C3KE C 0.4739(5) 0.2813(4) 0.2813(4) 0.1387 Uani
H1WE H 0.1965 0.3035 0.0436 0.1670 Uiso
H1C H 0.1965 0.3035 -0.0436 0.1670 Uiso
H1NE H 0.3035 0.1965 -0.0436 0.1670 Uiso
H1XE H 0.3035 0.0436 0.1965 0.1670 Uiso
H1B H 0.1965 0.0436 0.3035 0.1670 Uiso
H1TE H 0.1965 -0.0436 0.3035 0.1670 Uiso
H1H H 0.3035 -0.0436 0.1965 0.1670 Uiso
H1ZD H 0.4564 0.1965 0.1965 0.1670 Uiso
H1KE H 0.4564 0.3035 0.3035 0.1670 Uiso
H1TA H 0.5436 0.3035 0.3035 0.1670 Uiso
H1GA H 0.5436 0.1965 0.1965 0.1670 Uiso
loop_
_atom_site_aniso_label
_atom_site_aniso_U_11
_atom_site_aniso_U_22
_atom_site_aniso_U_33
_atom_site_aniso_U_23
_atom_site_aniso_U_13
_atom_site_aniso_U_12
Zn1 0.0515(8) 0.0515(8) 0.0515(8) -0.0016(3) 0.0016(3) 0.0016(3)
O1 0.051(4) 0.051(4) 0.051(4) 0.000 0.000 0.000
O2 0.122(4) 0.122(4) 0.058(5) 0.001(3) -0.001(3) 0.032(5)
C1 0.125(9) 0.125(9) 0.049(8) 0.000 0.000 -0.018(13)
C2 0.107(8) 0.107(8) 0.058(8) 0.000 0.000 0.007(9)
C3 0.177(12) 0.177(12) 0.062(7) 0.008(4) -0.008(4) 0.101(14)
Zn1B 0.0515 0.0515 0.0515 0.0016 0.0016 -0.0016
Zn1A 0.0515 0.0515 0.0515 0.0016 -0.0016 0.0016
Zn1KD 0.0515 0.0515 0.0515 -0.0016 -0.0016 -0.0016
Zn1F 0.0515 0.0515 0.0515 0.0016 -0.0016 0.0016
Zn1C 0.0515 0.0515 0.0515 -0.0016 0.0016 0.0016
Zn1H 0.0515 0.0515 0.0515 0.0016 0.0016 -0.0016
Zn1J 0.0515 0.0515 0.0515 -0.0016 0.0016 0.0016
Zn1G 0.0515 0.0515 0.0515 -0.0016 -0.0016 -0.0016
Zn1AA 0.0515 0.0515 0.0515 -0.0016 0.0016 0.0016
O2WE 0.122 0.122 0.058 -0.001 0.001 0.032
O2NE 0.122 0.122 0.058 -0.001 0.001 0.032
O2C 0.122 0.122 0.058 0.001 -0.001 0.032
O2XE 0.122 0.058 0.122 0.001 0.032 -0.001
O2B 0.122 0.058 0.122 -0.001 0.032 0.001
O2H 0.122 0.058 0.122 -0.001 0.032 0.001
O2TE 0.122 0.058 0.122 0.001 0.032 -0.001
O2ZD 0.058 0.122 0.122 -0.032 -0.001 -0.001
O2KE 0.058 0.122 0.122 -0.032 0.001 0.001
O2GA 0.058 0.122 0.122 -0.032 0.001 0.001
O2TA 0.058 0.122 0.122 -0.032 -0.001 -0.001
O2YE 0.058 0.122 0.122 0.032 -0.001 0.001
O2ID 0.122 0.122 0.058 -0.001 -0.001 -0.032
O2A 0.058 0.122 0.122 0.032 0.001 -0.001
O2HE 0.122 0.058 0.122 -0.001 -0.032 -0.001
O2KD 0.122 0.058 0.122 0.001 -0.032 0.001
O2TD 0.122 0.122 0.058 0.001 0.001 -0.032
C1C 0.125 0.125 0.049 0 0 -0.018
C1B 0.125 0.049 0.125 0 -0.018 0
C1H 0.125 0.049 0.125 0 -0.018 0
C1ZD 0.049 0.125 0.125 0.018 0 0
C1GA 0.049 0.125 0.125 0.018 0 0
C2C 0.107 0.107 0.058 0 0 0.007
C2B 0.107 0.058 0.107 0 0.007 0
C2H 0.107 0.058 0.107 0 0.007 0
C2ZD 0.058 0.107 0.107 -0.007 0 0
C2GA 0.058 0.107 0.107 -0.007 0 0
C3NE 0.177 0.177 0.062 -0.008 0.008 0.101
C3C 0.177 0.177 0.062 0.008 -0.008 0.101
C3WE 0.177 0.177 0.062 -0.008 0.008 0.101
C3XE 0.177 0.062 0.177 0.008 0.101 -0.008
C3H 0.177 0.062 0.177 -0.008 0.101 0.008
C3TE 0.177 0.062 0.177 0.008 0.101 -0.008
C3B 0.177 0.062 0.177 -0.008 0.101 0.008
C3ZD 0.062 0.177 0.177 -0.101 -0.008 -0.008
C3GA 0.062 0.177 0.177 -0.101 0.008 0.008
C3TA 0.062 0.177 0.177 -0.101 -0.008 -0.008
C3KE 0.062 0.177 0.177 -0.101 0.008 0.008
loop_
_geom_bond_atom_site_label_1
_geom_bond_atom_site_label_2
_geom_bond_site_symmetry_1
_geom_bond_site_symmetry_2
Zn1 O1 1_555 1_555
O1 Zn1B 1_555 1_555
O2 Zn1 1_555 1_555
C1 O2 1_555 1_555
C2 C1 1_555 1_555
C3 C2 1_555 1_555
H1 C3 1_555 1_555
Zn1B O2B 1_555 1_555
Zn1A O1 1_555 1_555
Zn1KD O1 1_555 1_555
Zn1F O2NE 1_555 1_555
Zn1C O2C 1_555 1_555
Zn1H O2H 1_555 1_555
Zn1J O2TE 1_555 1_555
Zn1G O2GA 1_555 1_555
Zn1AA O2TA 1_555 1_555
O2WE C1 1_555 1_555
O2NE C1C 1_555 1_555
O2C C1C 1_555 1_555
O2XE Zn1 1_555 1_555
O2B C1B 1_555 1_555
O2H C1H 1_555 1_555
O2TE C1H 1_555 1_555
O2ZD Zn1 1_555 1_555
O2KE Zn1KD 1_555 1_555
O2GA C1GA 1_555 1_555
O2TA C1GA 1_555 1_555
O2YE Zn1B 1_555 1_555
O2ID Zn1B 1_555 1_555
O2A Zn1A 1_555 1_555
O2HE Zn1A 1_555 1_555
O2KD Zn1KD 1_555 1_555
O2TD Zn1KD 1_555 1_555
C1C C2C 1_555 1_555
C1B O2XE 1_555 1_555
C1H C2H 1_555 1_555
C1ZD O2ZD 1_555 1_555
C1GA C2GA 1_555 1_555
C2C C3NE 1_555 1_555
C2B C1B 1_555 1_555
C2H C3H 1_555 1_555
C2ZD C1ZD 1_555 1_555
C2GA C3GA 1_555 1_555
C3NE C3 1_555 1_555
C3C C2C 1_555 1_555
C3WE C2 1_555 1_555
C3XE C2B 1_555 1_555
C3H C3XE 1_555 1_555
C3TE C2H 1_555 1_555
C3B C2B 1_555 1_555
C3ZD C2ZD 1_555 1_555
C3GA C3ZD 1_555 1_555
C3TA C2GA 1_555 1_555
C3KE C2ZD 1_555 1_555
H1WE C3WE 1_555 1_555
H1C C3C 1_555 1_555
H1NE C3NE 1_555 1_555
H1XE C3XE 1_555 1_555
H1B C3B 1_555 1_555
H1TE C3TE 1_555 1_555
H1H C3H 1_555 1_555
H1ZD C3ZD 1_555 1_555
H1KE C3KE 1_555 1_555
H1TA C3TA 1_555 1_555
H1GA C3GA 1_555 1_555
Zn1A O2WE 1_555 1_555
O2KE C1ZD 1_555 1_555
C3C C3WE 1_555 1_555
C3TE C3B 1_555 1_555
C3TA C3KE 1_555 1_555

#END
