
#######################################################################
#
#                 Cambridge Crystallographic Data Centre
#                                CCDC 
#
#######################################################################
#
# If this CIF has been generated from an entry in the Cambridge 
# Structural Database, then it will include bibliographic, chemical, 
# crystal, experimental, refinement or atomic coordinate data resulting 
# from the CCDC's data processing and validation procedures.
#
#######################################################################

data_CUYHIO
_chemical_formula_moiety         '(C44 H42 N4 O11 Zn2)n'
_symmetry_cell_setting           monoclinic
_symmetry_space_group_name_H-M   'P 21/c'
_symmetry_Int_Tables_number      14
_space_group_name_Hall           '-P 2ybc'
loop_
_symmetry_equiv_pos_site_id
_symmetry_equiv_pos_as_xyz
1 x,y,z
2 -x,1/2+y,1/2-z
3 -x,-y,-z
4 x,1/2-y,1/2+z
_cell_length_a                   6.2047(7)
_cell_length_b                   17.746(2)
_cell_length_c                   20.4535(19)
_cell_angle_alpha                90
_cell_angle_beta                 99.009(3)
_cell_angle_gamma                90
_cell_volume                     2224.32
loop_
_atom_site_label
_atom_site_type_symbol
_atom_site_fract_x
_atom_site_fract_y
_atom_site_fract_z
Zn1 Zn 0.06871(9) 0.48620(3) 0.28062(3)
O1 O 0.0621(6) 0.3537(2) 0.3190(2)
O2 O -0.1838(6) 0.4155(2) 0.25716(18)
O3 O 0.1686(6) 0.1201(2) 0.30285(19)
O4 O 0.0485(6) 0.08406(19) 0.20091(18)
N1 N 0.1918(6) 0.4767(2) 0.19400(19)
N2 N 0.3391(6) 0.4959(2) 0.35185(18)
C1 C -0.1109(10) 0.3547(4) 0.2805(3)
C2 C -0.2269(8) 0.2829(3) 0.2588(2)
H7 H -0.3779 0.2860 0.2655
H8 H -0.1587 0.2412 0.2848
C3 C -0.2160(8) 0.2700(3) 0.1857(3)
C4 C -0.3878(9) 0.2941(3) 0.1388(3)
H9 H -0.5085 0.3164 0.1526
C5 C -0.3839(10) 0.2857(3) 0.0733(3)
H10 H -0.5029 0.3008 0.0426
C6 C -0.2047(11) 0.2551(3) 0.0522(3)
H11 H -0.1994 0.2506 0.0072
C7 C -0.0303(10) 0.2307(3) 0.0985(3)
H12 H 0.0900 0.2091 0.0838
C8 C -0.0309(8) 0.2378(3) 0.1662(3)
C9 C 0.1619(8) 0.2099(3) 0.2151(3)
H13 H 0.2894 0.2073 0.1932
H14 H 0.1924 0.2458 0.2511
C10 C 0.1229(8) 0.1329(3) 0.2435(3)
C11 C 0.3860(8) 0.5063(3) 0.1867(2)
H15 H 0.4721 0.5268 0.2237
C12 C 0.4636(8) 0.5078(3) 0.1280(2)
H16 H 0.5986 0.5297 0.1259
C13 C 0.3454(8) 0.4776(3) 0.0720(2)
C14 C 0.1482(8) 0.4449(3) 0.0789(2)
H17 H 0.0636 0.4225 0.0426
C15 C 0.0764(8) 0.4452(3) 0.1388(3)
H18 H -0.0573 0.4230 0.1418
C16 C 0.4164(8) 0.4797(3) 0.0076(2)
H19 H 0.3393 0.4504 -0.0258
C17 C 0.4814(8) 0.4393(3) 0.3659(3)
H20 H 0.4514 0.3936 0.3441
C18 C 0.6689(8) 0.4454(3) 0.4108(3)
H21 H 0.7626 0.4044 0.4188
C19 C 0.7201(8) 0.5130(3) 0.4446(2)
C20 C 0.5722(8) 0.5708(3) 0.4306(3)
H22 H 0.5973 0.6168 0.4523
C21 C 0.3883(8) 0.5607(3) 0.3849(3)
H23 H 0.2920 0.6010 0.3762
C22 C 0.9198(8) 0.5243(3) 0.4922(2)
H24 H 0.9349 0.5706 0.5137
Zn1A Zn -0.06871(9) 0.98620(3) 0.21938(3)
Zn1A_2 Zn -0.06871(9) -0.01380(3) 0.21938(3)
Zn1B Zn 0.93129(9) 0.51380(3) -0.28062(3)
Zn1B_2 Zn 1.93129(9) 0.51380(3) 0.71938(3)
O1A O -0.0621(6) 0.8537(2) 0.1810(2)
O2A O 0.1838(6) 0.9155(2) 0.24284(18)
O3A O -0.1686(6) 0.6201(2) 0.19715(19)
O4A O -0.0485(6) 0.58406(19) 0.29909(18)
O4_2 O 0.0485(6) 1.08406(19) 0.20091(18)
N1B N 0.8082(6) 0.5233(2) -0.19400(19)
N1A N -0.1918(6) 0.9767(2) 0.30600(19)
N2B N 1.6609(6) 0.5041(2) 0.64815(18)
N2A N -0.3391(6) 0.9959(2) 0.14815(18)
C1A C 0.1109(10) 0.8547(4) 0.2195(3)
C2A C 0.2269(8) 0.7829(3) 0.2412(2)
H7A H 0.3779 0.7860 0.2345
H8A H 0.1587 0.7412 0.2152
C3A C 0.2160(8) 0.7700(3) 0.3143(3)
C4A C 0.3878(9) 0.7941(3) 0.3612(3)
H9A H 0.5085 0.8164 0.3474
C5A C 0.3839(10) 0.7857(3) 0.4267(3)
H10A H 0.5029 0.8008 0.4574
C6A C 0.2047(11) 0.7551(3) 0.4478(3)
H11A H 0.1994 0.7506 0.4928
C7A C 0.0303(10) 0.7307(3) 0.4015(3)
H12A H -0.0900 0.7091 0.4162
C8A C 0.0309(8) 0.7378(3) 0.3338(3)
C9A C -0.1619(8) 0.7099(3) 0.2849(3)
H13A H -0.2894 0.7073 0.3068
H14A H -0.1924 0.7458 0.2489
C10A C -0.1229(8) 0.6329(3) 0.2565(3)
C11B C 0.6140(8) 0.4937(3) -0.1867(2)
H15B H 0.5279 0.4732 -0.2237
C12B C 0.5364(8) 0.4922(3) -0.1280(2)
H16B H 0.4014 0.4703 -0.1259
C13B C 0.6546(8) 0.5224(3) -0.0720(2)
C14B C 0.8518(8) 0.5551(3) -0.0789(2)
H17B H 0.9364 0.5775 -0.0426
C15B C 0.9236(8) 0.5548(3) -0.1388(3)
H18B H 1.0573 0.5770 -0.1418
C16B C 0.5836(8) 0.5203(3) -0.0076(2)
H19B H 0.6607 0.5496 0.0258
C17B C 1.5186(8) 0.5607(3) 0.6341(3)
H20B H 1.5486 0.6064 0.6559
C18B C 1.3311(8) 0.5546(3) 0.5892(3)
H21B H 1.2374 0.5956 0.5812
C19B C 1.2799(8) 0.4870(3) 0.5554(2)
C20B C 1.4278(8) 0.4292(3) 0.5694(3)
H22B H 1.4027 0.3832 0.5477
C21B C 1.6117(8) 0.4393(3) 0.6151(3)
H23B H 1.7080 0.3990 0.6238
C22B C 1.0802(8) 0.4757(3) 0.5078(2)
H24B H 1.0651 0.4294 0.4863
O5 O 0.9642(6) 0.1488(2) 0.4182(2)
H1 H 0.8376 0.1635 0.4099
H2 H 1.0226 0.1411 0.3856
O6 O 0.5227(7) 0.2011(2) 0.3873(2)
H3 H 0.4249 0.1783 0.3637
H4 H 0.4312 0.2255 0.4032
O7 O 0.2029(7) 0.2863(2) 0.4434(2)
H5 H 0.1358 0.2466 0.4359
H6 H 0.1618 0.3062 0.4074
loop_
_geom_bond_atom_site_label_1
_geom_bond_atom_site_label_2
_geom_bond_site_symmetry_1
_geom_bond_site_symmetry_2
Zn1 O1 1_555 1_555
O1 C1 1_555 1_555
O2 Zn1 1_555 1_555
O3 C10 1_555 1_555
O4 C10 1_555 1_555
O5 H1 1_555 1_555
H2 O5 1_555 1_555
O6 H3 1_555 1_555
H4 O6 1_555 1_555
O7 H5 1_555 1_555
H6 O7 1_555 1_555
N1 Zn1 1_555 1_555
N2 Zn1 1_555 1_555
C1 O2 1_555 1_555
C2 C1 1_555 1_555
H7 C2 1_555 1_555
H8 C2 1_555 1_555
C3 C2 1_555 1_555
C4 C3 1_555 1_555
H9 C4 1_555 1_555
C5 C4 1_555 1_555
H10 C5 1_555 1_555
C6 C5 1_555 1_555
H11 C6 1_555 1_555
C7 C6 1_555 1_555
H12 C7 1_555 1_555
C8 C3 1_555 1_555
C9 C8 1_555 1_555
H13 C9 1_555 1_555
H14 C9 1_555 1_555
C10 C9 1_555 1_555
C11 N1 1_555 1_555
H15 C11 1_555 1_555
C12 C11 1_555 1_555
H16 C12 1_555 1_555
C13 C12 1_555 1_555
C14 C13 1_555 1_555
H17 C14 1_555 1_555
C15 N1 1_555 1_555
H18 C15 1_555 1_555
C16 C13 1_555 1_555
H19 C16 1_555 1_555
C17 N2 1_555 1_555
H20 C17 1_555 1_555
C18 C17 1_555 1_555
H21 C18 1_555 1_555
C19 C18 1_555 1_555
C20 C19 1_555 1_555
H22 C20 1_555 1_555
C21 N2 1_555 1_555
H23 C21 1_555 1_555
C22 C19 1_555 1_555
H24 C22 1_555 1_555
Zn1A O1A 1_555 1_555
Zn1A_2 O4 1_555 1_555
Zn1B N1B 1_555 1_555
Zn1B_2 N2B 1_555 1_555
O1A C1A 1_555 1_555
O2A Zn1A 1_555 1_555
O3A C10A 1_555 1_555
O4A Zn1 1_555 1_555
O4_2 Zn1A 1_555 1_555
N1B C11B 1_555 1_555
N1A Zn1A 1_555 1_555
N2B C17B 1_555 1_555
N2A Zn1A 1_555 1_555
C1A O2A 1_555 1_555
C2A C1A 1_555 1_555
H7A C2A 1_555 1_555
H8A C2A 1_555 1_555
C3A C2A 1_555 1_555
C4A C3A 1_555 1_555
H9A C4A 1_555 1_555
C5A C4A 1_555 1_555
H10A C5A 1_555 1_555
C6A C5A 1_555 1_555
H11A C6A 1_555 1_555
C7A C6A 1_555 1_555
H12A C7A 1_555 1_555
C8A C3A 1_555 1_555
C9A C8A 1_555 1_555
H13A C9A 1_555 1_555
H14A C9A 1_555 1_555
C10A O4A 1_555 1_555
C11B H15B 1_555 1_555
C12B C11B 1_555 1_555
H16B C12B 1_555 1_555
C13B C12B 1_555 1_555
C14B C13B 1_555 1_555
H17B C14B 1_555 1_555
C15B N1B 1_555 1_555
H18B C15B 1_555 1_555
C16B C16 1_555 1_555
H19B C16B 1_555 1_555
C17B H20B 1_555 1_555
C18B C17B 1_555 1_555
H21B C18B 1_555 1_555
C19B C18B 1_555 1_555
C20B C19B 1_555 1_555
H22B C20B 1_555 1_555
C21B N2B 1_555 1_555
H23B C21B 1_555 1_555
C22B C22 1_555 1_555
H24B C22B 1_555 1_555
C7 C8 1_555 1_555
C14 C15 1_555 1_555
C20 C21 1_555 1_555
C7A C8A 1_555 1_555
C9A C10A 1_555 1_555
C13B C16B 1_555 1_555
C14B C15B 1_555 1_555
C19B C22B 1_555 1_555
C20B C21B 1_555 1_555

#END
