
#######################################################################
#
#                 Cambridge Crystallographic Data Centre
#                                CCDC 
#
#######################################################################
#
# If this CIF has been generated from an entry in the Cambridge 
# Structural Database, then it will include bibliographic, chemical, 
# crystal, experimental, refinement or atomic coordinate data resulting 
# from the CCDC's data processing and validation procedures.
#
#######################################################################

data_FUHJOJ
_chemical_formula_moiety         '(C31 H50 Co2 N12 O18)n'
_symmetry_cell_setting           monoclinic
_symmetry_space_group_name_H-M   'P 21/n'
_symmetry_Int_Tables_number      14
_space_group_name_Hall           '-P 2yn'
loop_
_symmetry_equiv_pos_site_id
_symmetry_equiv_pos_as_xyz
1 x,y,z
2 1/2-x,1/2+y,1/2-z
3 -x,-y,-z
4 1/2+x,1/2-y,1/2+z
_cell_length_a                   11.6164(11)
_cell_length_b                   16.3416(16)
_cell_length_c                   24.198(2)
_cell_angle_alpha                90
_cell_angle_beta                 99.020(3)
_cell_angle_gamma                90
_cell_volume                     4536.71
loop_
_atom_site_label
_atom_site_type_symbol
_atom_site_fract_x
_atom_site_fract_y
_atom_site_fract_z
Co1 Co 0.75508(5) 0.64948(4) 0.26112(3)
Co2 Co 0.62700(5) 0.50288(4) 0.48782(3)
C1 C 1.0433(4) 0.5139(3) 0.3423(2)
H1 H 1.1236 0.5070 0.3505
C2 C 0.9614(4) 0.4637(3) 0.35911(19)
C3 C 0.8544(4) 0.4995(3) 0.3369(2)
H2 H 0.7820 0.4789 0.3417
C4 C 0.9808(4) 0.3848(3) 0.3912(2)
H3 H 1.0598 0.3835 0.4114
H4 H 0.9277 0.3819 0.4183
C5 C 0.9616(5) 0.3124(3) 0.3526(3)
C6 C 1.0401(5) 0.2715(3) 0.3275(3)
H5 H 1.1203 0.2800 0.3335
C7 C 0.8562(5) 0.2803(3) 0.3272(2)
H6 H 0.7842 0.2984 0.3344
C8 C 0.7859(5) 0.7971(3) 0.3461(2)
H7 H 0.8526 0.8166 0.3338
C9 C 0.7300(5) 0.8362(3) 0.3863(2)
C10 C 0.6378(5) 0.7870(3) 0.3915(2)
H8 H 0.5828 0.7963 0.4148
C11 C 0.7649(6) 0.9146(3) 0.4176(2)
H9 H 0.8484 0.9141 0.4300
H10 H 0.7272 0.9169 0.4506
C12 C 0.7332(5) 0.9905(3) 0.3829(2)
C13 C 0.7582(5) 1.0089(3) 0.3293(2)
H11 H 0.7965 0.9733 0.3083
C14 C 0.6774(5) 1.0593(3) 0.3970(2)
H12 H 0.6491 1.0676 0.4304
C15 C 0.8132(4) 0.2805(3) 0.4860(2)
H13 H 0.8175 0.2255 0.4768
C16 C 0.8910(4) 0.3224(3) 0.5245(2)
C17 C 0.8475(4) 0.4017(3) 0.5225(2)
H14 H 0.8827 0.4447 0.5440
C18 C 1.0034(4) 0.2906(3) 0.5582(2)
H15 H 1.0086 0.3084 0.5967
H16 H 1.0028 0.2312 0.5578
C19 C 1.1079(4) 0.3212(3) 0.5345(2)
C20 C 1.1633(4) 0.3962(3) 0.5434(2)
H17 H 1.1419 0.4364 0.5670
C21 C 1.1669(4) 0.2822(3) 0.4969(2)
H18 H 1.1510 0.2301 0.4822
C22 C 0.5241(4) 0.5555(3) 0.2902(2)
C23 C 0.4601(4) 0.4734(3) 0.2883(2)
H19 H 0.4075 0.4735 0.2524
C24 C 0.5372(4) 0.3977(3) 0.2860(2)
H20 H 0.5911 0.3924 0.3207
H21 H 0.5820 0.4030 0.2555
C25 C 0.4580(4) 0.3216(3) 0.2768(2)
H22 H 0.4004 0.3337 0.2437
C26 C 0.3885(4) 0.3116(3) 0.3249(2)
H23 H 0.3362 0.2649 0.3154
C27 C 0.3103(4) 0.3870(3) 0.3272(2)
H24 H 0.2684 0.3815 0.3587
H25 H 0.2531 0.3889 0.2934
C28 C 0.3788(4) 0.4683(3) 0.3329(2)
H26 H 0.3209 0.5117 0.3238
C29 C 0.4665(4) 0.2898(3) 0.3800(2)
C30 C 0.4331(4) 0.4820(3) 0.3938(2)
C31 C 0.5151(4) 0.2411(3) 0.2640(2)
O1 O 0.6236(3) 0.5585(2) 0.27578(15)
O2 O 0.4483(3) 0.1787(2) 0.26018(19)
O3 O 0.6179(3) 0.23886(19) 0.25623(14)
O4 O 0.5419(3) 0.48702(19) 0.40718(15)
O5 O 0.3593(3) 0.4873(2) 0.42672(15)
O6 O 0.4245(3) 0.2977(2) 0.42464(16)
O7 O 0.5679(3) 0.2652(2) 0.37831(15)
O8 O 0.4921(3) 0.5980(2) 0.49302(16)
N1 N 0.8699(3) 0.5669(2) 0.30812(17)
N2 N 0.9876(3) 0.5749(3) 0.31190(19)
H27 H 1.0217 0.6139 0.2969
N3 N 0.8693(4) 0.2208(3) 0.2912(2)
N4 N 0.9819(4) 0.2160(3) 0.2919(2)
H28 H 1.0149 0.1819 0.2723
N5 N 0.7309(4) 0.7286(2) 0.32796(18)
N6 N 0.6400(4) 0.7229(3) 0.35707(19)
H29 H 0.5905 0.6834 0.3538
N7 N 0.7209(4) 1.0824(2) 0.31218(18)
N8 N 0.6703(4) 1.1132(3) 0.35425(19)
H30 H 0.6380 1.1606 0.3539
N9 N 0.7494(3) 0.4088(2) 0.48609(18)
N10 N 0.7298(3) 0.3332(2) 0.46396(18)
H31 H 0.6714 0.3205 0.4390
N11 N 1.2513(3) 0.4041(2) 0.51408(18)
N12 N 1.2514(3) 0.3325(2) 0.48537(18)
H32 H 1.2994 0.3210 0.4628
O9 O 0.4748(6) 0.6196(4) 0.3092(4)
Co1A Co 0.74492(5) 0.14948(4) 0.23888(3)
Co1A_2 Co 0.74492(5) 1.14948(4) 0.23888(3)
Co2B Co 0.37300(5) 0.49712(4) 0.51218(3)
Co2B_2 Co 1.37300(5) 0.49712(4) 0.51218(3)
O3A O 0.8821(3) 0.73886(19) 0.24377(14)
O5B O 0.6407(3) 0.5127(2) 0.57328(15)
O8B O 0.5079(3) 0.4020(2) 0.50698(16)
N3A N 0.6307(4) 0.7208(3) 0.2088(2)
N7A N 0.7791(4) 0.5824(2) 0.18782(18)
N11B N 0.7487(3) 0.5959(2) 0.48592(18)
O10 O 0.3907(8) 0.6728(6) 0.3972(4)
O11 O 0.0576(11) 0.6434(7) 0.0226(5)
O12 O 0.342(2) 1.0516(15) 0.3156(10)
O13 O 0.549(3) 0.5751(18) 0.0077(14)
O14 O 0.8372(19) 0.6079(11) -0.0410(8)
O15 O 0.308(3) 0.858(2) 0.3450(14)
O16 O 0.202(6) 0.561(4) 0.070(3)
O17 O 0.2695(16) 0.7013(11) 0.3017(8)
O18 O 0.4412(13) 0.4084(10) 0.1329(6)
loop_
_geom_bond_atom_site_label_1
_geom_bond_atom_site_label_2
_geom_bond_site_symmetry_1
_geom_bond_site_symmetry_2
Co1 O1 1_555 1_555
Co2 O4 1_555 1_555
C1 H1 1_555 1_555
C2 C1 1_555 1_555
C3 C2 1_555 1_555
H2 C3 1_555 1_555
C4 C2 1_555 1_555
H3 C4 1_555 1_555
H4 C4 1_555 1_555
C5 C4 1_555 1_555
C6 C5 1_555 1_555
H5 C6 1_555 1_555
C7 C5 1_555 1_555
H6 C7 1_555 1_555
C8 H7 1_555 1_555
C9 C8 1_555 1_555
C10 C9 1_555 1_555
H8 C10 1_555 1_555
C11 C9 1_555 1_555
H9 C11 1_555 1_555
H10 C11 1_555 1_555
C12 C11 1_555 1_555
C13 C12 1_555 1_555
H11 C13 1_555 1_555
C14 C12 1_555 1_555
H12 C14 1_555 1_555
C15 H13 1_555 1_555
C16 C15 1_555 1_555
C17 C16 1_555 1_555
H14 C17 1_555 1_555
C18 C16 1_555 1_555
H15 C18 1_555 1_555
H16 C18 1_555 1_555
C19 C18 1_555 1_555
C20 C19 1_555 1_555
H17 C20 1_555 1_555
C21 C19 1_555 1_555
H18 C21 1_555 1_555
C22 C23 1_555 1_555
C23 H19 1_555 1_555
C24 C23 1_555 1_555
H20 C24 1_555 1_555
H21 C24 1_555 1_555
C25 C24 1_555 1_555
H22 C25 1_555 1_555
C26 C25 1_555 1_555
H23 C26 1_555 1_555
C27 C26 1_555 1_555
H24 C27 1_555 1_555
H25 C27 1_555 1_555
C28 C23 1_555 1_555
H26 C28 1_555 1_555
C29 C26 1_555 1_555
C30 C28 1_555 1_555
C31 C25 1_555 1_555
O1 C22 1_555 1_555
O2 C31 1_555 1_555
O3 C31 1_555 1_555
O4 C30 1_555 1_555
O5 C30 1_555 1_555
O6 C29 1_555 1_555
O7 C29 1_555 1_555
O8 Co2 1_555 1_555
N1 Co1 1_555 1_555
N2 C1 1_555 1_555
H27 N2 1_555 1_555
N3 C7 1_555 1_555
N4 C6 1_555 1_555
H28 N4 1_555 1_555
N5 Co1 1_555 1_555
N6 C10 1_555 1_555
H29 N6 1_555 1_555
N7 C13 1_555 1_555
N8 C14 1_555 1_555
H30 N8 1_555 1_555
N9 Co2 1_555 1_555
N10 C15 1_555 1_555
H31 N10 1_555 1_555
N11 C20 1_555 1_555
N12 C21 1_555 1_555
H32 N12 1_555 1_555
O9 C22 1_555 1_555
Co1A O3 1_555 1_555
Co1A_2 N7 1_555 1_555
Co2B O5 1_555 1_555
Co2B_2 N11 1_555 1_555
O3A Co1 1_555 1_555
O5B Co2 1_555 1_555
O8B Co2 1_555 1_555
N3A Co1 1_555 1_555
N7A Co1 1_555 1_555
N11B Co2 1_555 1_555
C3 N1 1_555 1_555
C8 N5 1_555 1_555
C17 N9 1_555 1_555
C27 C28 1_555 1_555
O8 Co2B 1_555 1_555
N1 N2 1_555 1_555
N3 N4 1_555 1_555
N3 Co1A 1_555 1_555
N5 N6 1_555 1_555
N7 N8 1_555 1_555
N9 N10 1_555 1_555
N11 N12 1_555 1_555
Co2B O8B 1_555 1_555

#END
