
#######################################################################
#
#                 Cambridge Crystallographic Data Centre
#                                CCDC 
#
#######################################################################
#
# If this CIF has been generated from an entry in the Cambridge 
# Structural Database, then it will include bibliographic, chemical, 
# crystal, experimental, refinement or atomic coordinate data resulting 
# from the CCDC's data processing and validation procedures.
#
#######################################################################

data_MIYWIB
_chemical_formula_moiety         'C44 H14 Ag27 F24 N2 O32'
_symmetry_cell_setting           triclinic
_symmetry_space_group_name_H-M   'P -1'
_symmetry_Int_Tables_number      2
_space_group_name_Hall           '-P 1'
loop_
_symmetry_equiv_pos_site_id
_symmetry_equiv_pos_as_xyz
1 x,y,z
2 -x,-y,-z
_cell_length_a                   10.8001(8)
_cell_length_b                   11.6288(8)
_cell_length_c                   25.3183(18)
_cell_angle_alpha                89.094(1)
_cell_angle_beta                 87.425(1)
_cell_angle_gamma                78.440(1)
_cell_volume                     3112.06
loop_
_atom_site_label
_atom_site_type_symbol
_atom_site_fract_x
_atom_site_fract_y
_atom_site_fract_z
O21 O 0.4699(16) 0.6448(13) 0.8061(5)
O22 O 0.439(2) 0.659(2) 0.6941(6)
O24 O 0.320(9) 0.238(3) 0.211(2)
O26 O 0.581(2) 0.973(5) 0.2321(13)
Ag1 Ag -0.25905(6) 1.06095(5) 0.00639(3)
Ag2 Ag -0.50224(12) 1.05057(10) 0.10954(9)
Ag3 Ag -0.5124(2) 1.02851(17) 0.01078(9)
Ag4 Ag -0.47246(5) 1.19291(6) -0.06861(3)
Ag5 Ag -0.41883(6) 1.28413(6) 0.03260(3)
Ag6 Ag -0.37690(6) 1.42934(6) -0.06562(3)
Ag7 Ag -0.40579(7) 1.42486(6) -0.42611(3)
Ag8 Ag -0.49959(5) 1.19189(6) -0.43443(3)
Ag9 Ag -0.40430(6) 1.29161(6) -0.52916(3)
Ag10 Ag -0.26172(5) 1.06418(5) -0.50148(2)
Ag11 Ag -0.51918(10) 1.04717(12) -0.52190(5)
Ag12 Ag -0.52178(14) 0.93093(13) -0.42342(7)
Ag13 Ag -0.5524(3) 0.9539(3) -0.36607(12)
Ag14 Ag 0.02278(8) 1.33082(10) -0.25044(3)
C1 C -0.0675(6) 1.2856(7) -0.1379(3)
H1 H -0.1428 1.3201 -0.1532
C2 C -0.0736(6) 1.2437(6) -0.0865(3)
C3 C 0.0366(6) 1.1908(7) -0.0633(3)
H2 H 0.0356 1.1634 -0.0286
C4 C 0.1504(6) 1.1794(6) -0.0936(3)
C5 C 0.1477(6) 1.2263(7) -0.1443(3)
H3 H 0.2238 1.2208 -0.1637
C6 C -0.1952(6) 1.2510(6) -0.0591(3)
C7 C -0.2947(6) 1.2412(6) -0.0365(3)
C8 C -0.2699(7) 0.8780(7) 0.0723(3)
C9 C -0.3710(7) 0.9256(8) 0.0572(4)
C10 C 0.1239(7) 1.2205(7) -0.3580(3)
H4 H 0.1996 1.2148 -0.3411
C11 C 0.1274(6) 1.1749(7) -0.4081(3)
C12 C 0.0147(6) 1.1847(7) -0.4336(3)
H5 H 0.0141 1.1571 -0.4679
C13 C -0.0974(6) 1.2369(6) -0.4068(3)
C14 C -0.0921(6) 1.2798(7) -0.3566(3)
H6 H -0.1670 1.3151 -0.3389
C15 C -0.2158(6) 1.2434(6) -0.4312(3)
C16 C -0.3120(7) 1.2393(7) -0.4543(3)
C17 C 0.2471(7) 1.1168(9) -0.4311(4)
C18 C -0.6468(8) 1.0685(10) -0.4462(5)
C19 C -0.6918(8) 1.4513(8) -0.4353(5)
C20 C -0.8309(9) 1.5158(10) -0.4340(6)
C21 C -0.1789(9) 1.1579(9) -0.6101(4)
C22 C -0.1053(13) 1.1480(13) -0.6619(4)
C23 C -0.3374(7) 1.5483(7) 0.0755(4)
C24 C -0.2029(11) 1.4850(10) 0.0804(7)
C25 C -0.6663(8) 1.3037(8) -0.5793(4)
C26 C -0.7972(12) 1.3703(10) -0.5954(7)
C27 C -0.2064(11) 1.1489(10) 0.1140(4)
C28 C -0.1462(15) 1.1411(14) 0.1681(5)
C29 C -0.6926(8) 1.2965(7) 0.0736(4)
C30 C -0.8277(10) 1.3638(11) 0.0833(7)
C31 C -0.6633(15) 0.9109(17) 0.1815(7)
C32 C -0.752(2) 0.9038(19) 0.2275(8)
C33 C -0.530(2) 1.3013(17) -0.3315(9)
C34 C -0.618(2) 1.323(4) -0.2676(12)
F1 F -0.8614(11) 1.5426(15) -0.3835(6)
F2 F -0.9087(7) 1.4535(7) -0.4406(6)
F3 F -0.8550(7) 1.6115(7) -0.4574(5)
F4 F 0.0126(10) 1.1415(18) -0.6582(4)
F5 F -0.1154(19) 1.0547(12) -0.6863(5)
F6 F -0.1351(15) 1.2333(12) -0.6940(4)
F7 F -0.1219(7) 1.5461(8) 0.0722(7)
F8 F -0.1678(7) 1.3891(8) 0.0559(6)
F9 F -0.1823(13) 1.4558(16) 0.1317(6)
F10 F -0.7976(17) 1.369(2) -0.6467(6)
F11 F -0.8882(8) 1.3224(8) -0.5791(9)
F12 F -0.8228(8) 1.4755(7) -0.5818(8)
F13 F -0.140(2) 1.0449(12) 0.1894(4)
F14 F -0.1959(17) 1.2207(14) 0.2000(5)
F15 F -0.0270(13) 1.1494(16) 0.1633(4)
F16 F -0.9065(9) 1.3213(11) 0.0637(11)
F17 F -0.8483(8) 1.4692(7) 0.0786(9)
F18 F -0.8557(19) 1.352(3) 0.1343(8)
F19 F -0.8651(14) 0.915(2) 0.2177(7)
F20 F -0.743(2) 0.964(2) 0.2639(7)
F21 F -0.735(2) 0.8011(17) 0.2480(7)
F22 F -0.561(3) 1.389(3) -0.2407(13)
F23 F -0.736(2) 1.372(4) -0.2683(12)
F24 F -0.606(6) 1.220(3) -0.246(3)
N1 N 0.0402(6) 1.2794(6) -0.1668(2)
N2 N 0.0172(6) 1.2724(6) -0.3327(2)
O1 O -0.6752(8) 1.3499(7) -0.4245(6)
O2 O -0.6112(6) 1.5095(6) -0.4471(4)
O3 O -0.2952(7) 1.2082(7) -0.6115(3)
O4 O -0.1197(6) 1.1102(6) -0.5718(2)
O5 O -0.4079(5) 1.4902(5) 0.0561(3)
O6 O -0.6363(6) 1.3512(6) -0.0921(3)
O7 O -0.6572(7) 1.1949(6) -0.5775(3)
O8 O -0.4107(6) 1.6364(6) -0.4311(3)
O9 O -0.3255(9) 1.1974(8) 0.1149(3)
O10 O -0.1396(6) 1.1024(6) 0.0782(3)
O11 O -0.6160(5) 1.3601(5) 0.0650(3)
O12 O -0.6786(6) 1.1900(6) 0.0750(4)
O13 O -0.648(2) 1.0088(12) 0.1707(8)
O14 O -0.3821(10) 1.1787(9) -0.1579(3)
O15 O -0.5313(15) 1.187(2) -0.3388(7)
O16 O -0.490(4) 1.4040(19) -0.3374(9)
O18 O -0.3771(8) 1.4302(8) -0.1644(3)
O19 O -0.1256(7) 0.9454(7) -0.0560(3)
O20 O -0.1385(7) 0.9364(7) -0.4440(3)
O23 O -0.2037(12) 1.4645(12) -0.2494(4)
O25 O 0.018(10) 1.562(6) -0.2459(13)
Ag1A Ag -0.74095(6) 0.93905(5) -0.00639(3)
Ag2A Ag -0.49776(12) 0.94943(10) -0.10954(9)
Ag3A Ag -0.4876(2) 0.97149(17) -0.01078(9)
Ag4A Ag -0.52754(5) 0.80709(6) 0.06861(3)
Ag6A Ag -0.62310(6) 1.57066(6) 0.06562(3)
Ag8A Ag -0.50041(5) 0.80811(6) -0.56557(3)
Ag9A Ag -0.59570(6) 0.70839(6) -0.47084(3)
Ag9A_2 Ag -0.59570(6) 1.70839(6) -0.47084(3)
Ag10A Ag -0.73828(5) 0.93582(5) -0.49852(2)
Ag10A_2 Ag 0.26172(5) 0.93582(5) -0.49852(2)
Ag11A Ag -0.48082(10) 0.95283(12) -0.47810(5)
Ag12A Ag -0.47822(14) 1.06907(13) -0.57658(7)
Ag13A Ag -0.4476(3) 1.0461(3) -0.63393(12)
C4A C -0.1504(6) 0.8206(6) 0.0936(3)
C8A C 0.2699(7) 1.1220(7) -0.0723(3)
C9A C -0.6290(7) 1.0744(8) -0.0572(4)
C17A C -0.2471(7) 0.8832(9) -0.5689(4)
C17_2 C -0.7529(7) 1.1168(9) -0.4311(4)
C18A C -0.3532(8) 0.9315(10) -0.5538(5)
C18_2 C 0.3532(8) 1.0685(10) -0.4462(5)
C23A C -0.6626(7) 1.4517(7) -0.0755(4)
C25A C -0.3337(8) 1.6963(8) -0.4207(4)
C31A C -0.3367(15) 1.0891(17) -0.1815(7)
O2A O -0.3888(6) 1.4905(6) -0.5529(4)
O5A O -0.5921(5) 1.5098(5) -0.0561(3)
O6A O -0.3637(6) 1.6488(6) 0.0921(3)
O7A O -0.3428(7) 0.8051(6) -0.4225(3)
O8A O -0.5893(6) 1.3636(6) -0.5689(3)
O11A O -0.3840(5) 1.6399(5) -0.0650(3)
O14A O -0.6179(10) 0.8213(9) 0.1579(3)
loop_
_geom_bond_atom_site_label_1
_geom_bond_atom_site_label_2
_geom_bond_site_symmetry_1
_geom_bond_site_symmetry_2
Ag1 Ag2 1_555 1_555
Ag2 Ag3 1_555 1_555
Ag3 Ag1 1_555 1_555
Ag4 Ag1 1_555 1_555
Ag5 Ag1 1_555 1_555
Ag6 Ag4 1_555 1_555
Ag7 Ag8 1_555 1_555
Ag8 Ag9 1_555 1_555
Ag9 Ag7 1_555 1_555
Ag10 Ag8 1_555 1_555
Ag11 Ag8 1_555 1_555
Ag12 Ag8 1_555 1_555
Ag13 Ag8 1_555 1_555
Ag14 N1 1_555 1_555
C1 H1 1_555 1_555
C2 C1 1_555 1_555
C3 C2 1_555 1_555
H2 C3 1_555 1_555
C4 C3 1_555 1_555
C5 C4 1_555 1_555
H3 C5 1_555 1_555
C6 Ag6 1_555 1_555
C7 Ag1 1_555 1_555
C8 Ag1 1_555 1_555
C9 Ag1 1_555 1_555
C10 H4 1_555 1_555
C11 C10 1_555 1_555
C12 C11 1_555 1_555
H5 C12 1_555 1_555
C13 C12 1_555 1_555
C14 C13 1_555 1_555
H6 C14 1_555 1_555
C15 Ag7 1_555 1_555
C16 Ag7 1_555 1_555
C17 C11 1_555 1_555
C18 Ag8 1_555 1_555
C19 C20 1_555 1_555
C20 F1 1_555 1_555
C21 C22 1_555 1_555
C22 F4 1_555 1_555
C23 C24 1_555 1_555
C24 F7 1_555 1_555
C25 C26 1_555 1_555
C26 F10 1_555 1_555
C27 C28 1_555 1_555
C28 F13 1_555 1_555
C29 C30 1_555 1_555
C30 F16 1_555 1_555
C31 C32 1_555 1_555
C32 F19 1_555 1_555
C33 C34 1_555 1_555
C34 F22 1_555 1_555
F2 C20 1_555 1_555
F3 C20 1_555 1_555
F5 C22 1_555 1_555
F6 C22 1_555 1_555
F8 C24 1_555 1_555
F9 C24 1_555 1_555
F11 C26 1_555 1_555
F12 C26 1_555 1_555
F14 C28 1_555 1_555
F15 C28 1_555 1_555
F17 C30 1_555 1_555
F18 C30 1_555 1_555
F20 C32 1_555 1_555
F21 C32 1_555 1_555
F23 C34 1_555 1_555
F24 C34 1_555 1_555
N1 C1 1_555 1_555
N2 Ag14 1_555 1_555
O1 Ag8 1_555 1_555
O2 Ag7 1_555 1_555
O3 Ag9 1_555 1_555
O4 Ag10 1_555 1_555
O5 Ag5 1_555 1_555
O6 Ag4 1_555 1_555
O7 Ag11 1_555 1_555
O8 Ag7 1_555 1_555
O9 Ag5 1_555 1_555
O10 Ag1 1_555 1_555
O11 Ag5 1_555 1_555
O12 Ag2 1_555 1_555
O13 Ag2 1_555 1_555
O14 Ag4 1_555 1_555
O15 Ag8 1_555 1_555
O16 Ag7 1_555 1_555
O18 Ag6 1_555 1_555
O19 Ag1 1_555 1_555
O20 Ag10 1_555 1_555
O23 Ag14 1_555 1_555
O25 Ag14 1_555 1_555
Ag1A Ag3 1_555 1_555
Ag2A Ag3 1_555 1_555
Ag3A Ag1 1_555 1_555
Ag4A Ag2 1_555 1_555
Ag6A O5 1_555 1_555
Ag8A Ag11 1_555 1_555
Ag9A Ag12 1_555 1_555
Ag9A_2 O2 1_555 1_555
Ag10A Ag11 1_555 1_555
Ag10A_2 C17 1_555 1_555
Ag11A Ag8 1_555 1_555
Ag12A Ag9 1_555 1_555
Ag13A Ag11 1_555 1_555
C4A C8 1_555 1_555
C8A C4 1_555 1_555
C9A Ag3 1_555 1_555
C17A Ag10 1_555 1_555
C17_2 C18 1_555 1_555
C18A Ag10 1_555 1_555
C18_2 C17 1_555 1_555
C23A O6 1_555 1_555
C25A O8 1_555 1_555
C31A O14 1_555 1_555
O2A Ag9 1_555 1_555
O5A Ag6 1_555 1_555
O6A C23 1_555 1_555
O7A Ag12 1_555 1_555
O8A Ag9 1_555 1_555
O11A Ag6 1_555 1_555
O14A C31 1_555 1_555
Ag2 Ag5 1_555 1_555
Ag2 C9 1_555 1_555
Ag2 Ag3A 1_555 1_555
Ag3 Ag4 1_555 1_555
Ag3 Ag5 1_555 1_555
Ag3 C9 1_555 1_555
Ag3 Ag3A 1_555 1_555
Ag3 Ag4A 1_555 1_555
Ag4 Ag5 1_555 1_555
Ag4 C7 1_555 1_555
Ag4 Ag2A 1_555 1_555
Ag4 Ag3A 1_555 1_555
Ag4 C9A 1_555 1_555
Ag5 Ag6 1_555 1_555
Ag5 C7 1_555 1_555
Ag6 C7 1_555 1_555
Ag8 C16 1_555 1_555
Ag9 Ag10 1_555 1_555
Ag9 Ag11 1_555 1_555
Ag9 C16 1_555 1_555
Ag10 Ag11 1_555 1_555
Ag10 C16 1_555 1_555
Ag10 Ag11A 1_555 1_555
Ag10 Ag12A 1_555 1_555
Ag11 Ag12 1_555 1_555
Ag11 C18 1_555 1_555
Ag11 Ag11A 1_555 1_555
Ag11 Ag12A 1_555 1_555
Ag11 C18A 1_555 1_555
Ag12 Ag13 1_555 1_555
Ag12 C18 1_555 1_555
Ag12 Ag10A 1_555 1_555
Ag12 Ag11A 1_555 1_555
Ag13 C18 1_555 1_555
Ag13 Ag11A 1_555 1_555
C2 C6 1_555 1_555
C5 N1 1_555 1_555
C6 C7 1_555 1_555
C8 C9 1_555 1_555
C9 Ag3A 1_555 1_555
C9 Ag4A 1_555 1_555
C10 N2 1_555 1_555
C13 C15 1_555 1_555
C14 N2 1_555 1_555
C15 C16 1_555 1_555
C18 Ag10A 1_555 1_555
C18 Ag11A 1_555 1_555
C19 O1 1_555 1_555
C19 O2 1_555 1_555
C21 O3 1_555 1_555
C21 O4 1_555 1_555
C23 O5 1_555 1_555
C25 O7 1_555 1_555
C25 O8A 1_555 1_555
C27 O9 1_555 1_555
C27 O10 1_555 1_555
C29 O11 1_555 1_555
C29 O12 1_555 1_555
C31 O13 1_555 1_555
C33 O15 1_555 1_555
C33 O16 1_555 1_555
O7 Ag12A 1_555 1_555
O8 Ag9A_2 1_555 1_555
O11 Ag6A 1_555 1_555
Ag1A Ag2A 1_555 1_555
Ag1A Ag3A 1_555 1_555
Ag1A Ag4A 1_555 1_555
Ag1A C9A 1_555 1_555
Ag2A Ag3A 1_555 1_555
Ag2A C9A 1_555 1_555
Ag3A Ag4A 1_555 1_555
Ag3A C9A 1_555 1_555
Ag4A O14A 1_555 1_555
Ag8A Ag9A 1_555 1_555
Ag8A Ag10A 1_555 1_555
Ag8A Ag11A 1_555 1_555
Ag8A Ag12A 1_555 1_555
Ag8A Ag13A 1_555 1_555
Ag8A C18A 1_555 1_555
Ag9A Ag10A 1_555 1_555
Ag9A Ag11A 1_555 1_555
Ag10A Ag11A 1_555 1_555
Ag10A C17_2 1_555 1_555
Ag10A_2 C18_2 1_555 1_555
Ag11A Ag12A 1_555 1_555
Ag11A C18A 1_555 1_555
Ag11A O7A 1_555 1_555
Ag12A Ag13A 1_555 1_555
Ag12A C18A 1_555 1_555
Ag13A C18A 1_555 1_555
C17A C18A 1_555 1_555
C23A O5A 1_555 1_555

#END
