
#######################################################################
#
#                 Cambridge Crystallographic Data Centre
#                                CCDC 
#
#######################################################################
#
# If this CIF has been generated from an entry in the Cambridge 
# Structural Database, then it will include bibliographic, chemical, 
# crystal, experimental, refinement or atomic coordinate data resulting 
# from the CCDC's data processing and validation procedures.
#
#######################################################################

data_GIHPAQ
_chemical_formula_moiety         '(C24 H22 N4 Ni1 O5 W1)n'
_symmetry_cell_setting           rhombohedral
_symmetry_space_group_name_H-M   'R 3 2'
_symmetry_Int_Tables_number      155
_space_group_name_Hall           'R 3 2"'
loop_
_symmetry_equiv_pos_site_id
_symmetry_equiv_pos_as_xyz
1 x,y,z
2 -y,x-y,z
3 -x+y,-x,z
4 x-y,-y,-z
5 -x,-x+y,-z
6 y,x,-z
7 2/3+x,1/3+y,1/3+z
8 2/3-y,1/3+x-y,1/3+z
9 2/3-x+y,1/3-x,1/3+z
10 2/3+x-y,1/3-y,1/3-z
11 2/3-x,1/3-x+y,1/3-z
12 2/3+y,1/3+x,1/3-z
13 1/3+x,2/3+y,2/3+z
14 1/3-y,2/3+x-y,2/3+z
15 1/3-x+y,2/3-x,2/3+z
16 1/3+x-y,2/3-y,2/3-z
17 1/3-x,2/3-x+y,2/3-z
18 1/3+y,2/3+x,2/3-z
_cell_length_a                   21.1295(3)
_cell_length_b                   21.1295(3)
_cell_length_c                   18.0194(3)
_cell_angle_alpha                90
_cell_angle_beta                 90
_cell_angle_gamma                120
_cell_volume                     6967.06
loop_
_atom_site_label
_atom_site_type_symbol
_atom_site_fract_x
_atom_site_fract_y
_atom_site_fract_z
O3 O 0.3333 0.6071(9) 0.1667
W1 W 0.0000 0.207146(8) 0.5000
Ni1 Ni 0.04860(3) 0.3333 0.3333
O1 O 0.01578(12) 0.26377(12) 0.42148(11)
N1 N 0.60851(15) 0.60474(17) 0.62043(12)
N2 N 0.15156(14) 0.39646(15) 0.38506(15)
C1 C 0.58562(19) 0.6371(2) 0.57200(17)
H1 H 0.6193 0.6844 0.5554
C2 C 0.48797(19) 0.5007(2) 0.6184(2)
H2 H 0.4554 0.4536 0.6361
C3 C 0.2453(2) 0.4001(2) 0.4631(2)
H3 H 0.2616 0.3744 0.4927
C4 C 0.46451(19) 0.5338(2) 0.56706(18)
C5 C 0.1789(2) 0.3632(2) 0.4274(2)
H4 H 0.1512 0.3122 0.4327
C6 C 0.1926(2) 0.4693(2) 0.3786(2)
H5 H 0.1748 0.4938 0.3493
C7 C 0.2878(2) 0.4748(2) 0.4557(2)
C8 C 0.51517(19) 0.6045(2) 0.54532(19)
H6 H 0.5014 0.6300 0.5124
O2 O -0.07715(17) 0.12021(15) 0.48292(17)
C9 C 0.3897(2) 0.4926(2) 0.5377(2)
H7 H 0.3599 0.4446 0.5550
C10 C 0.3610(2) 0.5180(2) 0.4888(3)
H8 H 0.3894 0.5671 0.4742
C11 C 0.2594(2) 0.5100(2) 0.4125(2)
H9 H 0.2857 0.5611 0.4069
C12 C 0.55956(19) 0.53763(19) 0.64311(19)
H10 H 0.5744 0.5143 0.6776
O1D O -0.01578(12) 0.24799(17) 0.57852(11)
O2D O 0.07715(17) 0.19736(23) 0.51708(17)
N1C N 0.00377(23) 0.39526(17) 0.37957(12)
N2C N -0.24490(21) 0.60354(15) 0.61494(15)
C1C C -0.05148(28) 0.3629(2) 0.42800(17)
H1C H -0.0651 0.3156 0.4446
C2C C -0.01273(28) 0.4993(2) 0.3816(2)
H2C H 0.0018 0.5464 0.3639
C3C C -0.1548(3) 0.5999(2) 0.5369(2)
H3C H -0.1128 0.6256 0.5073
C4C C -0.06929(28) 0.4662(2) 0.43294(18)
C5C C -0.1843(3) 0.6368(2) 0.5726(2)
H4C H -0.1610 0.6878 0.5673
C6C C -0.2767(3) 0.5307(2) 0.6214(2)
H5C H -0.3190 0.5062 0.6507
C7C C -0.1870(3) 0.5252(2) 0.5443(2)
C8C C -0.08933(28) 0.3955(2) 0.45468(19)
H6C H -0.1286 0.3700 0.4876
C9C C -0.1029(3) 0.5074(2) 0.4623(2)
H7C H -0.0847 0.5554 0.4450
C10C C -0.1570(3) 0.4820(2) 0.5112(3)
H8C H -0.1777 0.4329 0.5258
C11C C -0.2506(3) 0.4900(2) 0.5875(2)
H9C H -0.2754 0.4389 0.5931
C12C C 0.02193(27) 0.46237(19) 0.35689(19)
H10C H 0.0601 0.4857 0.3224
Ni1C Ni -0.28470(3) 0.6667 0.6667
Ni1C_2 Ni 0.71530(3) 0.6667 0.6667
Ni1D Ni -0.04860(3) 0.28470(3) 0.6667
O1O O 0.08534(17) 0.40290(12) 0.24519(11)
N1L N -0.05816(15) 0.27141(17) 0.28710(12)
N2O N 0.08843(21) 0.27021(15) 0.28161(15)
loop_
_geom_bond_atom_site_label_1
_geom_bond_atom_site_label_2
_geom_bond_site_symmetry_1
_geom_bond_site_symmetry_2
W1 O1 1_555 1_555
Ni1 O1 1_555 1_555
N1 C1 1_555 1_555
N2 Ni1 1_555 1_555
C1 H1 1_555 1_555
C2 H2 1_555 1_555
C3 H3 1_555 1_555
C4 C2 1_555 1_555
C5 N2 1_555 1_555
H4 C5 1_555 1_555
C6 N2 1_555 1_555
H5 C6 1_555 1_555
C7 C3 1_555 1_555
C8 C1 1_555 1_555
H6 C8 1_555 1_555
O2 W1 1_555 1_555
C9 C4 1_555 1_555
H7 C9 1_555 1_555
C10 C7 1_555 1_555
H8 C10 1_555 1_555
C11 C6 1_555 1_555
H9 C11 1_555 1_555
C12 N1 1_555 1_555
H10 C12 1_555 1_555
O1D W1 1_555 1_555
O2D W1 1_555 1_555
N1C Ni1 1_555 1_555
N2C C5C 1_555 1_555
C1C N1C 1_555 1_555
H1C C1C 1_555 1_555
C2C H2C 1_555 1_555
C3C H3C 1_555 1_555
C4C C2C 1_555 1_555
C5C C3C 1_555 1_555
H4C C5C 1_555 1_555
C6C N2C 1_555 1_555
H5C C6C 1_555 1_555
C7C C3C 1_555 1_555
C8C C1C 1_555 1_555
H6C C8C 1_555 1_555
C9C C4C 1_555 1_555
H7C C9C 1_555 1_555
C10C C7C 1_555 1_555
H8C C10C 1_555 1_555
C11C C6C 1_555 1_555
H9C C11C 1_555 1_555
C12C N1C 1_555 1_555
H10C C12C 1_555 1_555
Ni1C N2C 1_555 1_555
Ni1C_2 N1 1_555 1_555
Ni1D O1D 1_555 1_555
O1O Ni1 1_555 1_555
N1L Ni1 1_555 1_555
N2O Ni1 1_555 1_555
C2 C12 1_555 1_555
C3 C5 1_555 1_555
C4 C8 1_555 1_555
C7 C11 1_555 1_555
C9 C10 1_555 1_555
C2C C12C 1_555 1_555
C4C C8C 1_555 1_555
C7C C11C 1_555 1_555
C9C C10C 1_555 1_555

#END
