
#######################################################################
#
#                 Cambridge Crystallographic Data Centre
#                                CCDC 
#
#######################################################################
#
# If this CIF has been generated from an entry in the Cambridge 
# Structural Database, then it will include bibliographic, chemical, 
# crystal, experimental, refinement or atomic coordinate data resulting 
# from the CCDC's data processing and validation procedures.
#
#######################################################################

data_OGIYAF
_chemical_formula_moiety         'C4 H4 Co5 O10'
_symmetry_cell_setting           orthorhombic
_symmetry_space_group_name_H-M   'I m m a'
_symmetry_Int_Tables_number      74
_space_group_name_Hall           '-I 2b 2'
loop_
_symmetry_equiv_pos_site_id
_symmetry_equiv_pos_as_xyz
1 x,y,z
2 -x,1/2-y,z
3 -x,1/2+y,-z
4 x,-y,-z
5 1/2+x,1/2+y,1/2+z
6 1/2-x,-y,1/2+z
7 1/2-x,y,1/2-z
8 1/2+x,1/2-y,1/2-z
9 -x,-y,-z
10 x,1/2+y,-z
11 x,1/2-y,z
12 -x,y,z
13 1/2-x,1/2-y,1/2-z
14 1/2+x,y,1/2-z
15 1/2+x,-y,1/2+z
16 1/2-x,1/2+y,1/2+z
_cell_length_a                   8.658(4)
_cell_length_b                   11.709(3)
_cell_length_c                   8.307(2)
_cell_angle_alpha                90
_cell_angle_beta                 90
_cell_angle_gamma                90
_cell_volume                     842.135
loop_
_atom_site_label
_atom_site_type_symbol
_atom_site_fract_x
_atom_site_fract_y
_atom_site_fract_z
Co1 Co 0.0000 0.0000 0.0000
O1 O -0.0000 0.1562(6) 0.1326(9)
O2 O 0.1643(6) -0.0706(5) 0.1523(6)
C1 C 0.0000 0.2500 0.0629(17)
H1 H 0.0000 0.2500 -0.0490
C2 C 0.2500 -0.0312(12) 0.2500
H2 H 0.2500 0.0482 0.2500
Co1A Co 0.0000 0.5000 0.0000
Co1E Co 0.5000 -0.0000 0.5000
Co1E_2 Co 0.5000 0.0000 -0.5000
Co1E_3 Co -0.5000 0.0000 -0.5000
O1C O 0.0000 -0.1562(6) -0.1326(9)
O1A O -0.0000 0.3438(6) 0.1326(9)
O2C O 0.1643(6) 0.0706(5) -0.1523(6)
O2H O -0.1643(6) 0.0706(5) -0.1523(6)
O2K O -0.1643(6) -0.0706(5) 0.1523(6)
O2F O 0.3357(6) -0.0706(5) 0.3477(6)
O2E O 0.3357(6) 0.0706(5) -0.3477(6)
O2N O -0.3357(6) 0.0706(5) -0.3477(6)
C2H C -0.2500 0.0312(12) -0.2500
C2C C 0.2500 0.0312(12) -0.2500
H2C H 0.2500 -0.0482 -0.2500
H2H H -0.2500 -0.0482 -0.2500
loop_
_geom_bond_atom_site_label_1
_geom_bond_atom_site_label_2
_geom_bond_site_symmetry_1
_geom_bond_site_symmetry_2
Co1 O1 1_555 1_555
O1 C1 1_555 1_555
O2 Co1 1_555 1_555
C1 H1 1_555 1_555
C2 O2 1_555 1_555
H2 C2 1_555 1_555
Co1A O1A 1_555 1_555
Co1E O2F 1_555 1_555
Co1E_2 O2E 1_555 1_555
Co1E_3 O2N 1_555 1_555
O1C Co1 1_555 1_555
O1A C1 1_555 1_555
O2C Co1 1_555 1_555
O2H Co1 1_555 1_555
O2K Co1 1_555 1_555
O2F C2 1_555 1_555
O2E C2C 1_555 1_555
O2N C2H 1_555 1_555
C2H O2H 1_555 1_555
C2C O2C 1_555 1_555
H2C C2C 1_555 1_555
H2H C2H 1_555 1_555

#END
