
#######################################################################
#
#                 Cambridge Crystallographic Data Centre
#                                CCDC 
#
#######################################################################
#
# If this CIF has been generated from an entry in the Cambridge 
# Structural Database, then it will include bibliographic, chemical, 
# crystal, experimental, refinement or atomic coordinate data resulting 
# from the CCDC's data processing and validation procedures.
#
#######################################################################

data_AVESOL
_chemical_formula_moiety         '(C23 H11 O11 Zn2)n'
_symmetry_cell_setting           monoclinic
_symmetry_space_group_name_H-M   'P 21/c'
_symmetry_Int_Tables_number      14
_space_group_name_Hall           '-P 2ybc'
loop_
_symmetry_equiv_pos_site_id
_symmetry_equiv_pos_as_xyz
1 x,y,z
2 -x,1/2+y,1/2-z
3 -x,-y,-z
4 x,1/2-y,1/2+z
_cell_length_a                   16.1475(14)
_cell_length_b                   12.5160(11)
_cell_length_c                   19.8687(17)
_cell_angle_alpha                90
_cell_angle_beta                 93.3210(10)
_cell_angle_gamma                90
_cell_volume                     4008.76
loop_
_atom_site_label
_atom_site_type_symbol
_atom_site_fract_x
_atom_site_fract_y
_atom_site_fract_z
Zn1 Zn 0.14325(2) 0.56476(3) 0.21031(2)
O1 O -0.29896(15) 1.01174(18) 0.41160(13)
O2 O -0.18929(17) 0.9635(2) 0.35695(16)
O3 O 0.05290(17) 0.6138(2) 0.28492(17)
O4 O 0.04441(17) 0.4598(2) 0.23531(16)
O5 O -0.26617(15) 0.25219(19) 0.36859(16)
O6 O -0.1887(2) 0.2137(2) 0.28743(19)
O7 O -0.35017(15) 0.4653(2) 0.76605(13)
O8 O -0.22974(16) 0.4830(2) 0.71794(14)
O9 O -0.55801(14) 0.8350(2) 0.61782(14)
O10 O -0.56583(17) 0.7401(3) 0.70941(15)
O11 O 0.0660(3) 0.6290(3) 0.1261(2)
H1 H 0.0869 0.5898 0.0965
H2 H 0.0256 0.5936 0.1403
C1 C -0.2448(2) 0.9454(3) 0.39676(18)
C2 C -0.2456(2) 0.8365(3) 0.42671(17)
C3 C -0.2049(2) 0.7547(3) 0.39656(18)
H3 H -0.1737 0.7701 0.3599
C4 C -0.2088(2) 0.6509(2) 0.41876(17)
C5 C -0.25241(19) 0.6302(3) 0.47567(17)
H4 H -0.2547 0.5606 0.4919
C6 C -0.29254(19) 0.7108(3) 0.50876(17)
C7 C -0.2902(2) 0.8139(3) 0.48323(17)
H5 H -0.3185 0.8684 0.5039
C8 C 0.0169(2) 0.5269(3) 0.2754(2)
C9 C -0.2098(3) 0.2737(3) 0.3328(2)
C10 C -0.0597(2) 0.5020(3) 0.31111(18)
C11 C -0.0968(2) 0.4034(3) 0.30564(19)
H6 H -0.0741 0.3507 0.2793
C12 C -0.1687(2) 0.3820(3) 0.33958(18)
C13 C -0.2036(2) 0.4621(3) 0.37702(17)
H7 H -0.2514 0.4480 0.3994
C14 C -0.1682(2) 0.5626(2) 0.38143(17)
C15 C -0.0953(2) 0.5819(3) 0.34899(18)
H8 H -0.0702 0.6487 0.3526
C16 C -0.3046(2) 0.5042(3) 0.72314(18)
C17 C -0.5302(2) 0.7647(3) 0.6583(2)
C18 C -0.3434(2) 0.5827(3) 0.67387(17)
C19 C -0.4172(2) 0.6326(3) 0.68676(18)
H9 H -0.4450 0.6138 0.7247
C20 C -0.4498(2) 0.7103(3) 0.64324(18)
C21 C -0.4096(2) 0.7355(3) 0.58593(18)
H10 H -0.4322 0.7870 0.5565
C22 C -0.3363(2) 0.6856(3) 0.57134(17)
C23 C -0.3037(2) 0.6099(3) 0.61646(17)
H11 H -0.2539 0.5766 0.6079
Zn2 Zn -0.33419(2) 1.12584(3) 0.34604(2)
Zn1A Zn -0.14325(2) 0.06476(3) 0.28969(2)
Zn1A_2 Zn -0.14325(2) 1.06476(3) 0.28969(2)
Zn1B Zn -0.14325(2) 0.43524(3) 0.78969(2)
O2A O 0.18929(17) 0.4635(2) 0.14305(16)
O5_2 O -0.26617(15) 1.25219(19) 0.36859(16)
O6A O 0.1887(2) 0.7137(2) 0.21257(19)
O7C O -0.35017(15) 1.0347(2) 0.26605(13)
O8B O 0.22974(16) 0.5170(2) 0.28206(14)
O9B O -0.44199(14) 1.1650(2) 0.38218(14)
O10B O -0.43417(17) 1.2599(3) 0.29059(15)
Zn2_2 Zn -0.33419(2) 0.12584(3) 0.34604(2)
Zn2B Zn -0.66581(2) 0.87416(3) 0.65396(2)
Zn2C Zn -0.33419(2) 0.37416(3) 0.84604(2)
loop_
_geom_bond_atom_site_label_1
_geom_bond_atom_site_label_2
_geom_bond_site_symmetry_1
_geom_bond_site_symmetry_2
Zn1 O3 1_555 1_555
O1 C1 1_555 1_555
O2 C1 1_555 1_555
O3 C8 1_555 1_555
O4 Zn1 1_555 1_555
O5 C9 1_555 1_555
O6 C9 1_555 1_555
O7 C16 1_555 1_555
O8 C16 1_555 1_555
O9 C17 1_555 1_555
O10 C17 1_555 1_555
O11 Zn1 1_555 1_555
H1 O11 1_555 1_555
H2 O11 1_555 1_555
C1 C2 1_555 1_555
C2 C3 1_555 1_555
C3 H3 1_555 1_555
C4 C3 1_555 1_555
C5 C4 1_555 1_555
H4 C5 1_555 1_555
C6 C5 1_555 1_555
C7 C2 1_555 1_555
H5 C7 1_555 1_555
C8 O4 1_555 1_555
C9 C12 1_555 1_555
C10 C8 1_555 1_555
C11 C10 1_555 1_555
H6 C11 1_555 1_555
C12 C11 1_555 1_555
C13 C12 1_555 1_555
H7 C13 1_555 1_555
C14 C4 1_555 1_555
C15 C10 1_555 1_555
H8 C15 1_555 1_555
C16 C18 1_555 1_555
C17 C20 1_555 1_555
C18 C19 1_555 1_555
C19 H9 1_555 1_555
C20 C19 1_555 1_555
C21 C20 1_555 1_555
H10 C21 1_555 1_555
C22 C6 1_555 1_555
C23 C18 1_555 1_555
H11 C23 1_555 1_555
Zn2 O1 1_555 1_555
Zn1A O6 1_555 1_555
Zn1A_2 O2 1_555 1_555
Zn1B O8 1_555 1_555
O2A Zn1 1_555 1_555
O5_2 Zn2 1_555 1_555
O6A Zn1 1_555 1_555
O7C Zn2 1_555 1_555
O8B Zn1 1_555 1_555
O9B Zn2 1_555 1_555
O10B Zn2 1_555 1_555
Zn2_2 O5 1_555 1_555
Zn2B O9 1_555 1_555
Zn2C O7 1_555 1_555
O10 Zn2B 1_555 1_555
C6 C7 1_555 1_555
C13 C14 1_555 1_555
C14 C15 1_555 1_555
C21 C22 1_555 1_555
C22 C23 1_555 1_555

#END
