
#######################################################################
#
#                 Cambridge Crystallographic Data Centre
#                                CCDC 
#
#######################################################################
#
# If this CIF has been generated from an entry in the Cambridge 
# Structural Database, then it will include bibliographic, chemical, 
# crystal, experimental, refinement or atomic coordinate data resulting 
# from the CCDC's data processing and validation procedures.
#
#######################################################################

data_AVETEC
_chemical_formula_moiety         '(C50 H24 Cd3 N1 O24 5-)n'
_symmetry_cell_setting           tetragonal
_symmetry_space_group_name_H-M   'I -4 2 d'
_symmetry_Int_Tables_number      122
_space_group_name_Hall           'I -4 2bw'
loop_
_symmetry_equiv_pos_site_id
_symmetry_equiv_pos_as_xyz
1 x,y,z
2 -x,-y,z
3 y,-x,-z
4 -y,x,-z
5 1/2-x,y,3/4-z
6 1/2+x,-y,3/4-z
7 1/2-y,-x,3/4+z
8 1/2+y,x,3/4+z
9 1/2+x,1/2+y,1/2+z
10 1/2-x,1/2-y,1/2+z
11 1/2+y,1/2-x,1/2-z
12 1/2-y,1/2+x,1/2-z
13 -x,1/2+y,1/4-z
14 x,1/2-y,1/4-z
15 -y,1/2-x,1/4+z
16 y,1/2+x,1/4+z
_cell_length_a                   29.220(2)
_cell_length_b                   29.220(2)
_cell_length_c                   9.3882(9)
_cell_angle_alpha                90
_cell_angle_beta                 90
_cell_angle_gamma                90
_cell_volume                     8015.72
loop_
_atom_site_label
_atom_site_type_symbol
_atom_site_fract_x
_atom_site_fract_y
_atom_site_fract_z
Cd1 Cd 0.5000 0.0000 0.7500
Cd2 Cd 0.35563(2) 0.2500 0.1250
O1 O 0.5123(2) 0.0668(2) 0.6578(8)
O2 O 0.4526(3) 0.0568(2) 0.5223(12)
O3 O 0.3894(2) 0.19435(19) 0.2644(8)
O4 O 0.4214(2) 0.2607(2) 0.2945(7)
O5 O 0.6897(5) 0.1735(6) 0.456(2)
O6 O 0.7285(4) 0.2245(6) 0.5752(19)
C1 C 0.4818(3) 0.0810(3) 0.5748(11)
C2 C 0.4190(3) 0.2194(3) 0.3181(9)
C3 C 0.4846(3) 0.1311(2) 0.5321(10)
C4 C 0.4522(3) 0.1506(3) 0.4491(9)
H1 H 0.4283 0.1328 0.4138
C5 C 0.4541(3) 0.1974(2) 0.4156(8)
C6 C 0.4903(3) 0.2233(2) 0.4658(9)
H2 H 0.4920 0.2544 0.4447
C7 C 0.5237(3) 0.2032(3) 0.5463(9)
C8 C 0.5206(3) 0.1563(3) 0.5796(9)
H3 H 0.5432 0.1426 0.6344
C9 C 0.6891(3) 0.2054(4) 0.5307(14)
C10 C 0.6508(3) 0.2303(2) 0.5899(11)
C11 C 0.6071(3) 0.2109(3) 0.5518(10)
H4 H 0.6070 0.1843 0.4973
C12 C 0.5669(3) 0.2287(2) 0.5900(9)
O1M O 0.5123(2) 0.4332(2) 0.5922(8)
O2M O 0.4526(3) 0.4432(2) 0.7277(12)
O3M O 0.3894(2) 0.30565(19) 0.9856(8)
O4M O 0.4214(2) 0.2393(2) 0.9555(7)
O5M O 0.6897(5) 0.3265(6) 0.794(2)
O6M O 0.7285(4) 0.2755(6) 0.6748(19)
C1M C 0.4818(3) 0.4190(3) 0.6752(11)
C2M C 0.4190(3) 0.2806(3) 0.9319(9)
C3M C 0.4846(3) 0.3689(2) 0.7179(10)
C4M C 0.4522(3) 0.3494(3) 0.8009(9)
H1M H 0.4283 0.3672 0.8362
C5M C 0.4541(3) 0.3026(2) 0.8344(8)
C6M C 0.4903(3) 0.2767(2) 0.7842(9)
H2M H 0.4920 0.2456 0.8053
C7M C 0.5237(3) 0.2968(3) 0.7037(9)
C8M C 0.5206(3) 0.3437(3) 0.6704(9)
H3M H 0.5432 0.3574 0.6156
C9M C 0.6891(3) 0.2946(4) 0.7193(14)
C10M C 0.6508(3) 0.2697(2) 0.6601(11)
C11M C 0.6071(3) 0.2891(3) 0.6982(10)
H4M H 0.6070 0.3157 0.7527
C12M C 0.5669(3) 0.2713(2) 0.6600(9)
Cd2A Cd 0.64437(2) -0.2500 0.1250
O1A O 0.4877(2) -0.0668(2) 0.6578(8)
O2A O 0.5474(3) -0.0568(2) 0.5223(12)
O3A O 0.6106(2) -0.19435(19) 0.2644(8)
O4A O 0.5786(2) -0.2607(2) 0.2945(7)
O5A O 0.3103(5) -0.1735(6) 0.456(2)
O6A O 0.2715(4) -0.2245(6) 0.5752(19)
C1A C 0.5182(3) -0.0810(3) 0.5748(11)
C2A C 0.5810(3) -0.2194(3) 0.3181(9)
C3A C 0.5154(3) -0.1311(2) 0.5321(10)
C4A C 0.5478(3) -0.1506(3) 0.4491(9)
H1A H 0.5717 -0.1328 0.4138
C5A C 0.5459(3) -0.1974(2) 0.4156(8)
C6A C 0.5097(3) -0.2233(2) 0.4658(9)
H2A H 0.5080 -0.2544 0.4447
C7A C 0.4763(3) -0.2032(3) 0.5463(9)
C8A C 0.4794(3) -0.1563(3) 0.5796(9)
H3A H 0.4568 -0.1426 0.6344
C9A C 0.3109(3) -0.2054(4) 0.5307(14)
C10A C 0.3492(3) -0.2303(2) 0.5899(11)
C11A C 0.3929(3) -0.2109(3) 0.5518(10)
H4A H 0.3930 -0.1843 0.4973
C12A C 0.4331(3) -0.2287(2) 0.5900(9)
O1L O 0.4877(2) -0.4332(2) 0.5922(8)
O2L O 0.5474(3) -0.4432(2) 0.7277(12)
O3L O 0.6106(2) -0.30565(19) 0.9856(8)
O4L O 0.5786(2) -0.2393(2) 0.9555(7)
O5L O 0.3103(5) -0.3265(6) 0.794(2)
O6L O 0.2715(4) -0.2755(6) 0.6748(19)
C1L C 0.5182(3) -0.4190(3) 0.6752(11)
C2L C 0.5810(3) -0.2806(3) 0.9319(9)
C3L C 0.5154(3) -0.3689(2) 0.7179(10)
C4L C 0.5478(3) -0.3494(3) 0.8009(9)
H1L H 0.5717 -0.3672 0.8362
C5L C 0.5459(3) -0.3026(2) 0.8344(8)
C6L C 0.5097(3) -0.2767(2) 0.7842(9)
H2L H 0.5080 -0.2456 0.8053
C7L C 0.4763(3) -0.2968(3) 0.7037(9)
C8L C 0.4794(3) -0.3437(3) 0.6704(9)
H3L H 0.4568 -0.3574 0.6156
C9L C 0.3109(3) -0.2946(4) 0.7193(14)
C10L C 0.3492(3) -0.2697(2) 0.6601(11)
C11L C 0.3929(3) -0.2891(3) 0.6982(10)
H4L H 0.3930 -0.3157 0.7527
C12L C 0.4331(3) -0.2713(2) 0.6600(9)
Cd1F Cd 0.5000 -0.5000 0.5000
Cd1F_2 Cd 0.5000 0.5000 0.5000
Cd2_2 Cd 0.35563(2) 0.2500 1.1250
Cd2A_2 Cd 0.64437(2) -0.2500 1.1250
Cd2B Cd 0.2500 -0.35563(2) 0.8750
Cd2C Cd 0.7500 0.35563(2) 0.8750
Cd2J Cd 0.7500 0.14437(2) 0.3750
Cd2K Cd 0.2500 -0.14437(2) 0.3750
O1J O 0.5668(2) -0.0123(2) 0.8422(8)
O1K O 0.4332(2) 0.0123(2) 0.8422(8)
O3L_2 O 0.6106(2) -0.30565(19) -0.0144(8)
O3M_2 O 0.3894(2) 0.30565(19) -0.0144(8)
O4L_2 O 0.5786(2) -0.2393(2) -0.0445(7)
O4M_2 O 0.4214(2) 0.2393(2) -0.0445(7)
O5F O 0.3265(6) 0.3103(5) 0.206(2)
O5G O 0.6735(6) -0.3103(5) 0.206(2)
O5J O 0.6735(6) -0.1897(5) 0.044(2)
O5K O 0.3265(6) 0.1897(5) 0.044(2)
N1 N 0.4342(10) 0.3594(9) 0.261(4)
H5 H 0.4425 0.3298 0.2543
H6 H 0.4114 0.3642 0.1982
C13 C 0.4163(10) 0.3677(9) 0.406(4)
H7 H 0.4405 0.3638 0.4742
H8 H 0.3922 0.3463 0.4262
H9 H 0.4046 0.3983 0.4122
C14 C 0.4731(9) 0.3877(12) 0.221(4)
H10 H 0.4709 0.4169 0.2674
H11 H 0.4729 0.3922 0.1192
H12 H 0.5010 0.3728 0.2482
loop_
_geom_bond_atom_site_label_1
_geom_bond_atom_site_label_2
_geom_bond_site_symmetry_1
_geom_bond_site_symmetry_2
Cd1 O1 1_555 1_555
Cd2 O3 1_555 1_555
O1 C1 1_555 1_555
O2 C1 1_555 1_555
O3 C2 1_555 1_555
O4 Cd2 1_555 1_555
O5 C9 1_555 1_555
O6 C9 1_555 1_555
C1 C3 1_555 1_555
C2 O4 1_555 1_555
C3 C4 1_555 1_555
C4 H1 1_555 1_555
C5 C2 1_555 1_555
C6 C5 1_555 1_555
H2 C6 1_555 1_555
C7 C6 1_555 1_555
C8 C3 1_555 1_555
H3 C8 1_555 1_555
C9 C10 1_555 1_555
C10 C11 1_555 1_555
C11 H4 1_555 1_555
C12 C7 1_555 1_555
N1 H5 1_555 1_555
H6 N1 1_555 1_555
C13 N1 1_555 1_555
H7 C13 1_555 1_555
H8 C13 1_555 1_555
H9 C13 1_555 1_555
C14 N1 1_555 1_555
H10 C14 1_555 1_555
H11 C14 1_555 1_555
H12 C14 1_555 1_555
O1M C1M 1_555 1_555
O2M C1M 1_555 1_555
O3M C2M 1_555 1_555
O4M C2M 1_555 1_555
O5M C9M 1_555 1_555
O6M C9M 1_555 1_555
C1M C3M 1_555 1_555
C2M C5M 1_555 1_555
C3M C4M 1_555 1_555
C4M H1M 1_555 1_555
C5M C4M 1_555 1_555
C6M C5M 1_555 1_555
H2M C6M 1_555 1_555
C7M C6M 1_555 1_555
C8M C3M 1_555 1_555
H3M C8M 1_555 1_555
C9M C10M 1_555 1_555
C10M C10 1_555 1_555
C11M C10M 1_555 1_555
H4M C11M 1_555 1_555
C12M C12 1_555 1_555
Cd2A O3A 1_555 1_555
O1A Cd1 1_555 1_555
O2A C1A 1_555 1_555
O3A C2A 1_555 1_555
O4A Cd2A 1_555 1_555
O5A C9A 1_555 1_555
O6A C9A 1_555 1_555
C1A O1A 1_555 1_555
C2A O4A 1_555 1_555
C3A C1A 1_555 1_555
C4A C3A 1_555 1_555
H1A C4A 1_555 1_555
C5A C2A 1_555 1_555
C6A C5A 1_555 1_555
H2A C6A 1_555 1_555
C7A C6A 1_555 1_555
C8A C3A 1_555 1_555
H3A C8A 1_555 1_555
C9A C10A 1_555 1_555
C10A C11A 1_555 1_555
C11A H4A 1_555 1_555
C12A C7A 1_555 1_555
O1L C1L 1_555 1_555
O2L C1L 1_555 1_555
O3L C2L 1_555 1_555
O4L C2L 1_555 1_555
O5L C9L 1_555 1_555
O6L C9L 1_555 1_555
C1L C3L 1_555 1_555
C2L C5L 1_555 1_555
C3L C4L 1_555 1_555
C4L H1L 1_555 1_555
C5L C4L 1_555 1_555
C6L C5L 1_555 1_555
H2L C6L 1_555 1_555
C7L C6L 1_555 1_555
C8L C3L 1_555 1_555
H3L C8L 1_555 1_555
C9L C10L 1_555 1_555
C10L C10A 1_555 1_555
C11L C10L 1_555 1_555
H4L C11L 1_555 1_555
C12L C12A 1_555 1_555
Cd1F O1L 1_555 1_555
Cd1F_2 O1M 1_555 1_555
Cd2_2 O3M 1_555 1_555
Cd2A_2 O3L 1_555 1_555
Cd2B O5L 1_555 1_555
Cd2C O5M 1_555 1_555
Cd2J O5 1_555 1_555
Cd2K O5A 1_555 1_555
O1J Cd1 1_555 1_555
O1K Cd1 1_555 1_555
O3L_2 Cd2A 1_555 1_555
O3M_2 Cd2 1_555 1_555
O4L_2 Cd2A 1_555 1_555
O4M_2 Cd2 1_555 1_555
O5F Cd2 1_555 1_555
O5G Cd2A 1_555 1_555
O5J Cd2A 1_555 1_555
O5K Cd2 1_555 1_555
C4 C5 1_555 1_555
C7 C8 1_555 1_555
C11 C12 1_555 1_555
O4M Cd2_2 1_555 1_555
C7M C8M 1_555 1_555
C7M C12M 1_555 1_555
C11M C12M 1_555 1_555
C4A C5A 1_555 1_555
C7A C8A 1_555 1_555
C11A C12A 1_555 1_555
O4L Cd2A_2 1_555 1_555
C7L C8L 1_555 1_555
C7L C12L 1_555 1_555
C11L C12L 1_555 1_555

#END
