
#######################################################################
#
#                 Cambridge Crystallographic Data Centre
#                                CCDC 
#
#######################################################################
#
# If this CIF has been generated from an entry in the Cambridge 
# Structural Database, then it will include bibliographic, chemical, 
# crystal, experimental, refinement or atomic coordinate data resulting 
# from the CCDC's data processing and validation procedures.
#
#######################################################################

data_SOWCOY01
_chemical_formula_moiety         '(C10 H5 N3 O4 Zn1)n'
_symmetry_cell_setting           monoclinic
_symmetry_space_group_name_H-M   'P 21/c'
_symmetry_Int_Tables_number      14
_space_group_name_Hall           '-P 2ybc'
loop_
_symmetry_equiv_pos_site_id
_symmetry_equiv_pos_as_xyz
1 x,y,z
2 -x,1/2+y,1/2-z
3 -x,-y,-z
4 x,1/2-y,1/2+z
_cell_length_a                   10.9484(3)
_cell_length_b                   12.1060(4)
_cell_length_c                   14.7728(5)
_cell_angle_alpha                90
_cell_angle_beta                 109.791(3)
_cell_angle_gamma                90
_cell_volume                     1842.35
loop_
_atom_site_label
_atom_site_type_symbol
_atom_site_fract_x
_atom_site_fract_y
_atom_site_fract_z
Zn1 Zn 0.89074(4) 0.41847(4) 0.46849(3)
O1 O 0.8304(3) 0.5225(3) 0.5533(3)
O2 O 0.8257(3) 0.9621(3) 0.8655(3)
O3 O 0.9968(3) 0.6400(3) 0.6061(3)
N1 N 0.2725(3) 0.6737(3) 0.5747(3)
C1 C 0.8805(4) 0.7361(4) 0.7314(3)
H1 H 0.9708 0.7364 0.7549
O4 O 0.9927(3) 0.8437(3) 0.9103(3)
C2 C 0.8840(5) 0.8758(5) 0.8581(3)
C3 C 0.8874(4) 0.6046(4) 0.6008(3)
N2 N 0.4734(4) 0.7275(3) 0.6295(3)
N3 N 0.2720(4) 0.7882(4) 0.5825(3)
C4 C 0.3939(4) 0.6398(4) 0.6027(3)
H2 H 0.4204 0.5667 0.6039
C5 C 0.6794(4) 0.6627(4) 0.6214(3)
H3 H 0.6349 0.6151 0.5717
C6 C 0.6136(4) 0.7282(4) 0.6648(4)
C7 C 0.6775(5) 0.8008(4) 0.7402(4)
H4 H 0.6310 0.8468 0.7671
C8 C 0.8129(4) 0.8017(4) 0.7736(3)
C9 C 0.8145(4) 0.6688(4) 0.6531(3)
C10 C 0.3934(5) 0.8169(5) 0.6153(4)
H5 H 0.4222 0.8894 0.6276
Zn1A Zn 1.10926(4) 0.91847(4) 1.03151(3)
Zn1B Zn 0.10926(4) 0.58153(4) 0.53151(3)
Zn1B_2 Zn 1.10926(4) 0.58153(4) 0.53151(3)
Zn1C Zn 0.89074(4) 1.08153(4) 0.96849(3)
O2C O 0.8257(3) 0.5379(3) 0.3655(3)
O3B O 1.0032(3) 0.3600(3) 0.3939(3)
N1B N 0.7275(3) 0.3263(3) 0.4253(3)
O4A O 1.0073(3) 0.3437(3) 0.5897(3)
loop_
_geom_bond_atom_site_label_1
_geom_bond_atom_site_label_2
_geom_bond_site_symmetry_1
_geom_bond_site_symmetry_2
Zn1 O1 1_555 1_555
O1 C3 1_555 1_555
O2 C2 1_555 1_555
O3 C3 1_555 1_555
N1 N3 1_555 1_555
C1 H1 1_555 1_555
O4 C2 1_555 1_555
C2 C8 1_555 1_555
C3 C9 1_555 1_555
N2 C4 1_555 1_555
N3 C10 1_555 1_555
C4 N1 1_555 1_555
H2 C4 1_555 1_555
C5 H3 1_555 1_555
C6 N2 1_555 1_555
C7 C6 1_555 1_555
H4 C7 1_555 1_555
C8 C1 1_555 1_555
C9 C1 1_555 1_555
C10 N2 1_555 1_555
H5 C10 1_555 1_555
Zn1A O4 1_555 1_555
Zn1B N1 1_555 1_555
Zn1B_2 O3 1_555 1_555
Zn1C O2 1_555 1_555
O2C Zn1 1_555 1_555
O3B Zn1 1_555 1_555
N1B Zn1 1_555 1_555
O4A Zn1 1_555 1_555
C5 C6 1_555 1_555
C5 C9 1_555 1_555
C7 C8 1_555 1_555

#END
