
#######################################################################
#
#                 Cambridge Crystallographic Data Centre
#                                CCDC 
#
#######################################################################
#
# If this CIF has been generated from an entry in the Cambridge 
# Structural Database, then it will include bibliographic, chemical, 
# crystal, experimental, refinement or atomic coordinate data resulting 
# from the CCDC's data processing and validation procedures.
#
#######################################################################

data_RICBEM
_chemical_formula_moiety         '(C54 H44 Cu2 O15)n'
_symmetry_cell_setting           orthorhombic
_symmetry_space_group_name_H-M   'I m a 2'
_symmetry_Int_Tables_number      46
_space_group_name_Hall           'I 2 -2a'
loop_
_symmetry_equiv_pos_site_id
_symmetry_equiv_pos_as_xyz
1 x,y,z
2 -x,-y,z
3 1/2-x,y,z
4 1/2+x,-y,z
5 1/2+x,1/2+y,1/2+z
6 1/2-x,1/2-y,1/2+z
7 -x,1/2+y,1/2+z
8 x,1/2-y,1/2+z
_cell_length_a                   37.755(19)
_cell_length_b                   13.781(7)
_cell_length_c                   29.867(13)
_cell_angle_alpha                90
_cell_angle_beta                 90
_cell_angle_gamma                90
_cell_volume                     15539.8
loop_
_atom_site_label
_atom_site_type_symbol
_atom_site_fract_x
_atom_site_fract_y
_atom_site_fract_z
Cu1 Cu 0.980343(15) 0.42172(5) 0.89848(5)
C1 C 1.0393(2) 0.0672(7) 0.4604(2)
O1 O 1.04803(17) -0.0086(6) 0.44573(18)
O2 O 1.04532(15) 0.5120(5) 0.85330(16)
C2 C 1.0903(3) 0.4394(9) 0.7860(3)
H1 H 1.0981 0.4974 0.7984
C3 C 1.0598(3) 0.3888(9) 0.7996(3)
C4 C 1.0592(3) 0.1091(9) 0.4985(3)
C5 C 1.0902(3) 0.0632(8) 0.5116(3)
H2 H 1.0979 0.0111 0.4944
C6 C 1.0681(3) 0.2661(9) 0.7421(3)
H3 H 1.0577 0.2172 0.7253
C7 C 1.0494(2) 0.3008(8) 0.7795(3)
H4 H 1.0303 0.2660 0.7909
C8 C 1.1556(3) 0.2167(8) 0.6110(3)
H5 H 1.1677 0.1985 0.5852
C9 C 1.1071(3) 0.3892(8) 0.7510(3)
H6 H 1.1266 0.4228 0.7400
C10 C 1.21273(17) 0.2447(11) 0.6506(4)
C11 C 1.0662(3) 0.2242(7) 0.5584(3)
H7 H 1.0605 0.2824 0.5724
C12 C 1.1112(3) 0.0896(8) 0.5495(3)
H8 H 1.1321 0.0589 0.5580
C13 C 1.2269(3) 0.4959(6) 0.6182(5)
H9 H 1.2124 0.5496 0.6227
C14 C 1.1176(2) 0.2766(6) 0.6880(2)
C15 C 1.1184(3) 0.1992(9) 0.6147(4)
C16 C 1.2306(2) 0.3092(5) 0.6262(3)
C17 C 1.2263(3) 0.1579(8) 0.6775(4)
C18 C 1.0345(4) 0.4225(10) 0.8388(4)
C19 C 1.2136(5) 0.3851(12) 0.6089(6)
H10 H 1.1937 0.3747 0.5911
C20 C 1.09934(15) 0.2387(9) 0.6511(3)
H11 H 1.0747 0.2395 0.6506
C21 C 1.1017(2) 0.3000(8) 0.7283(3)
C22 C 1.1534(2) 0.2866(8) 0.6840(3)
H12 H 1.1656 0.3125 0.7082
C23 C 1.0956(2) 0.1699(7) 0.5725(3)
C24 C 1.0457(3) 0.1896(9) 0.5231(3)
H13 H 1.0240 0.2178 0.5159
C25 C 1.17352(15) 0.2604(11) 0.6455(4)
O3 O 0.94594(11) 0.2956(3) 0.8958(3)
O4 O 1.01214(19) 0.3693(6) 0.85287(18)
C26 C 1.2130(3) 0.1059(9) 0.7063(4)
H14 H 1.1888 0.1109 0.7115
O5 O 1.01408(17) 0.1189(5) 0.44565(18)
C27 C 1.2307(2) 0.0458(9) 0.7293(3)
H15 H 1.2187 0.0004 0.7466
C1B C 1.4607(2) 0.0672(7) 0.4604(2)
O1B O 1.45197(17) -0.0086(6) 0.44573(18)
O2B O 1.45468(15) 0.5120(5) 0.85330(16)
C2B C 1.4097(3) 0.4394(9) 0.7860(3)
H1B H 1.4019 0.4974 0.7984
C3B C 1.4402(3) 0.3888(9) 0.7996(3)
C4B C 1.4408(3) 0.1091(9) 0.4985(3)
C5B C 1.4098(3) 0.0632(8) 0.5116(3)
H2B H 1.4021 0.0111 0.4944
C6B C 1.4319(3) 0.2661(9) 0.7421(3)
H3B H 1.4423 0.2172 0.7253
C7B C 1.4506(2) 0.3008(8) 0.7795(3)
H4B H 1.4697 0.2660 0.7909
C8B C 1.3444(3) 0.2167(8) 0.6110(3)
H5B H 1.3323 0.1985 0.5852
C9B C 1.3929(3) 0.3892(8) 0.7510(3)
H6B H 1.3734 0.4228 0.7400
C10B C 1.28727(17) 0.2447(11) 0.6506(4)
C11B C 1.4338(3) 0.2242(7) 0.5584(3)
H7B H 1.4395 0.2824 0.5724
C12B C 1.3888(3) 0.0896(8) 0.5495(3)
H8B H 1.3679 0.0589 0.5580
C13B C 1.2731(3) 0.4959(6) 0.6182(5)
H9B H 1.2876 0.5496 0.6227
C14B C 1.3824(2) 0.2766(6) 0.6880(2)
C15B C 1.3816(3) 0.1992(9) 0.6147(4)
C16B C 1.2694(2) 0.3092(5) 0.6262(3)
C17B C 1.2737(3) 0.1579(8) 0.6775(4)
C18B C 1.4655(4) 0.4225(10) 0.8388(4)
C19B C 1.2864(5) 0.3851(12) 0.6089(6)
H10B H 1.3063 0.3747 0.5911
C20B C 1.40066(15) 0.2387(9) 0.6511(3)
H11B H 1.4253 0.2395 0.6506
C21B C 1.3983(2) 0.3000(8) 0.7283(3)
C22B C 1.3466(2) 0.2866(8) 0.6840(3)
H12B H 1.3344 0.3125 0.7082
C23B C 1.4044(2) 0.1699(7) 0.5725(3)
C24B C 1.4543(3) 0.1896(9) 0.5231(3)
H13B H 1.4760 0.2178 0.5159
C25B C 1.32648(15) 0.2604(11) 0.6455(4)
O4B O 1.48786(19) 0.3693(6) 0.85287(18)
C26B C 1.2870(3) 0.1059(9) 0.7063(4)
H14B H 1.3112 0.1109 0.7115
O5B O 1.48592(17) 0.1189(5) 0.44565(18)
C27B C 1.2693(2) 0.0458(9) 0.7293(3)
H15B H 1.2813 0.0004 0.7466
Cu1A Cu 1.019657(15) 0.57828(5) 0.89848(5)
O3A O 1.05406(11) 0.7044(3) 0.8958(3)
Cu1B Cu 1.519657(15) 0.42172(5) 0.89848(5)
Cu1C Cu 1.480343(15) 0.57828(5) 0.89848(5)
Cu1D Cu 1.480343(15) -0.07828(5) 0.39848(5)
Cu1E Cu 1.519657(15) 0.07828(5) 0.39848(5)
Cu1F Cu 1.019657(15) -0.07828(5) 0.39848(5)
Cu1G Cu 0.980343(15) 0.07828(5) 0.39848(5)
O1F O 0.95197(17) 0.4914(6) 0.94573(18)
O1G O 1.04803(17) 0.5086(6) 0.94573(18)
O2A O 0.95468(15) 0.4880(5) 0.85330(16)
O4A O 0.98786(19) 0.6307(6) 0.85287(18)
O5F O 0.98592(17) 0.6189(5) 0.94565(18)
O5G O 1.01408(17) 0.3811(5) 0.94565(18)
O6 O 0.9496(4) 0.2648(10) 1.0302(5)
O7 O 1.1164(4) 0.5101(12) 0.5902(5)
O8 O 1.0000 0.5000 1.1316(6)
O9 O 1.2500 -0.0131(16) 0.5875(6)
O10 O 1.0333(4) 0.1181(13) 0.9081(8)
loop_
_geom_bond_atom_site_label_1
_geom_bond_atom_site_label_2
_geom_bond_site_symmetry_1
_geom_bond_site_symmetry_2
Cu1 O3 1_555 1_555
C1 O1 1_555 1_555
O1 Cu1F 1_555 1_555
O2 C18 1_555 1_555
C2 H1 1_555 1_555
C3 C2 1_555 1_555
C4 C1 1_555 1_555
C5 C4 1_555 1_555
H2 C5 1_555 1_555
C6 H3 1_555 1_555
C7 C3 1_555 1_555
H4 C7 1_555 1_555
C8 H5 1_555 1_555
C9 C2 1_555 1_555
H6 C9 1_555 1_555
C10 C16 1_555 1_555
C11 H7 1_555 1_555
C12 C5 1_555 1_555
H8 C12 1_555 1_555
C13 H9 1_555 1_555
C14 C20 1_555 1_555
C15 C8 1_555 1_555
C16 C19 1_555 1_555
C17 C10 1_555 1_555
C18 C3 1_555 1_555
C19 C13 1_555 1_555
H10 C19 1_555 1_555
C20 C15 1_555 1_555
H11 C20 1_555 1_555
C21 C6 1_555 1_555
C22 C14 1_555 1_555
H12 C22 1_555 1_555
C23 C11 1_555 1_555
C24 C4 1_555 1_555
H13 C24 1_555 1_555
C25 C8 1_555 1_555
O4 Cu1 1_555 1_555
C26 C17 1_555 1_555
H14 C26 1_555 1_555
O5 C1 1_555 1_555
C27 C26 1_555 1_555
H15 C27 1_555 1_555
C1B O1B 1_555 1_555
O1B Cu1D 1_555 1_555
O2B C18B 1_555 1_555
C2B H1B 1_555 1_555
C3B C2B 1_555 1_555
C4B C1B 1_555 1_555
C5B C4B 1_555 1_555
H2B C5B 1_555 1_555
C6B H3B 1_555 1_555
C7B C3B 1_555 1_555
H4B C7B 1_555 1_555
C8B H5B 1_555 1_555
C9B C2B 1_555 1_555
H6B C9B 1_555 1_555
C10B C16B 1_555 1_555
C11B H7B 1_555 1_555
C12B C5B 1_555 1_555
H8B C12B 1_555 1_555
C13B C13 1_555 1_555
H9B C13B 1_555 1_555
C14B C20B 1_555 1_555
C15B C8B 1_555 1_555
C16B C16 1_555 1_555
C17B C17 1_555 1_555
C18B C3B 1_555 1_555
C19B C13B 1_555 1_555
H10B C19B 1_555 1_555
C20B C15B 1_555 1_555
H11B C20B 1_555 1_555
C21B C6B 1_555 1_555
C22B C14B 1_555 1_555
H12B C22B 1_555 1_555
C23B C11B 1_555 1_555
C24B C4B 1_555 1_555
H13B C24B 1_555 1_555
C25B C8B 1_555 1_555
O4B C18B 1_555 1_555
C26B C17B 1_555 1_555
H14B C26B 1_555 1_555
O5B C1B 1_555 1_555
C27B C27 1_555 1_555
H15B C27B 1_555 1_555
Cu1A O2 1_555 1_555
O3A Cu1A 1_555 1_555
Cu1B O4B 1_555 1_555
Cu1C O2B 1_555 1_555
Cu1E O5B 1_555 1_555
Cu1G O5 1_555 1_555
O1F Cu1 1_555 1_555
O1G Cu1A 1_555 1_555
O2A Cu1 1_555 1_555
O4A Cu1A 1_555 1_555
O5F Cu1A 1_555 1_555
O5G Cu1 1_555 1_555
C6 C7 1_555 1_555
C9 C21 1_555 1_555
C10 C25 1_555 1_555
C11 C24 1_555 1_555
C12 C23 1_555 1_555
C14 C21 1_555 1_555
C15 C23 1_555 1_555
C18 O4 1_555 1_555
C22 C25 1_555 1_555
C6B C7B 1_555 1_555
C9B C21B 1_555 1_555
C10B C17B 1_555 1_555
C10B C25B 1_555 1_555
C11B C24B 1_555 1_555
C12B C23B 1_555 1_555
C14B C21B 1_555 1_555
C15B C23B 1_555 1_555
C16B C19B 1_555 1_555
C22B C25B 1_555 1_555
C26B C27B 1_555 1_555

#END
