
#######################################################################
#
#                 Cambridge Crystallographic Data Centre
#                                CCDC 
#
#######################################################################
#
# If this CIF has been generated from an entry in the Cambridge 
# Structural Database, then it will include bibliographic, chemical, 
# crystal, experimental, refinement or atomic coordinate data resulting 
# from the CCDC's data processing and validation procedures.
#
#######################################################################

data_GINNUO
_chemical_formula_moiety         '(C66 H64 Co3 N12 O16 S2 2+)n'
_symmetry_cell_setting           monoclinic
_symmetry_space_group_name_H-M   'C 2/c'
_symmetry_Int_Tables_number      15
_space_group_name_Hall           '-C 2yc'
loop_
_symmetry_equiv_pos_site_id
_symmetry_equiv_pos_as_xyz
1 x,y,z
2 -x,y,1/2-z
3 1/2+x,1/2+y,z
4 1/2-x,1/2+y,1/2-z
5 -x,-y,-z
6 x,-y,1/2+z
7 1/2-x,1/2-y,-z
8 1/2+x,1/2-y,1/2+z
_cell_length_a                   23.020(13)
_cell_length_b                   28.032(16)
_cell_length_c                   12.506(7)
_cell_angle_alpha                90
_cell_angle_beta                 100.389(7)
_cell_angle_gamma                90
_cell_volume                     7937.78
loop_
_atom_site_label
_atom_site_type_symbol
_atom_site_fract_x
_atom_site_fract_y
_atom_site_fract_z
Co1 Co 0.11054(4) 0.67143(3) 0.16510(7)
Co2 Co 0.0000 0.70088(4) -0.2500
C1 C 0.2407(3) 0.63985(19) 0.2148(4)
H1 H 0.2315 0.6131 0.2552
C2 C 0.2332(3) 0.7023(2) 0.1125(4)
H2 H 0.2166 0.7280 0.0675
C3 C 0.2918(3) 0.6920(2) 0.1383(5)
H3 H 0.3233 0.7087 0.1156
C4 C 0.3506(2) 0.62921(17) 0.2571(3)
C5 C 0.3996(2) 0.65643(18) 0.2952(4)
H4 H 0.3972 0.6902 0.2900
C6 C 0.4528(2) 0.63499(17) 0.3412(4)
H5 H 0.4866 0.6541 0.3660
C7 C 0.4565(2) 0.58534(15) 0.3513(3)
C8 C 0.40580(19) 0.55860(15) 0.3145(3)
H6 H 0.4073 0.5249 0.3225
C9 C 0.35337(19) 0.57988(15) 0.2668(3)
H7 H 0.3196 0.5609 0.2407
C10 C 0.51429(19) 0.56228(16) 0.3991(3)
C11 C 0.56154(19) 0.59012(17) 0.4539(3)
H8 H 0.5555 0.6232 0.4640
C12 C 0.61691(19) 0.57039(18) 0.4936(3)
C13 C 0.6246(2) 0.52095(17) 0.4804(3)
H9 H 0.6612 0.5065 0.5107
C14 C 0.57896(19) 0.49297(16) 0.4232(3)
C15 C 0.52439(18) 0.51375(16) 0.3849(3)
H10 H 0.4931 0.4945 0.3480
C16 C 0.58998(19) 0.44025(16) 0.4056(3)
C17 C 0.6481(2) 0.4240(2) 0.4168(5)
H11 H 0.6797 0.4462 0.4313
C18 C 0.6604(2) 0.3752(2) 0.4068(5)
H12 H 0.7000 0.3641 0.4169
C19 C 0.6143(2) 0.34419(18) 0.3824(3)
C20 C 0.5556(2) 0.35978(19) 0.3708(4)
H13 H 0.5236 0.3379 0.3557
C21 C 0.54568(19) 0.40784(16) 0.3820(4)
H14 H 0.5060 0.4188 0.3727
C22 C 0.6005(2) 0.26617(16) 0.2843(4)
H15 H 0.5705 0.2770 0.2270
C23 C 0.6689(3) 0.2664(2) 0.4317(5)
H16 H 0.6946 0.2764 0.4960
C24 C 0.6677(3) 0.2237(2) 0.3853(5)
H17 H 0.6932 0.1979 0.4113
C25 C 0.6676(2) 0.59926(17) 0.5501(4)
C26 C 0.6595(2) 0.6407(2) 0.6103(4)
H18 H 0.6207 0.6510 0.6148
C27 C 0.7078(2) 0.6662(2) 0.6629(5)
H19 H 0.7021 0.6934 0.7052
C28 C 0.7648(2) 0.6520(2) 0.6537(4)
C29 C 0.7729(2) 0.6133(2) 0.5908(4)
H20 H 0.8116 0.6037 0.5834
C30 C 0.7236(2) 0.5880(2) 0.5378(4)
H21 H 0.7294 0.5621 0.4917
C31 C 0.8686(2) 0.6792(2) 0.6810(4)
H22 H 0.8767 0.6677 0.6138
C32 C 0.8221(3) 0.6974(2) 0.8158(5)
H23 H 0.7928 0.7014 0.8597
C33 C 0.8801(2) 0.7106(2) 0.8407(4)
H24 H 0.8980 0.7253 0.9070
N1 N 0.2009(2) 0.66920(14) 0.1626(4)
N2 N 0.29585(19) 0.65217(16) 0.2042(3)
N3 N 0.6222(2) 0.22209(17) 0.2900(3)
N4 N 0.62519(18) 0.29384(16) 0.3680(3)
N5 N 0.9084(2) 0.69991(18) 0.7581(4)
N6 N 0.81486(19) 0.67696(18) 0.7122(3)
O1 O 0.1177(3) 0.6155(2) 0.2832(7)
O2 O 0.0911(3) 0.6158(3) 0.0494(9)
O3 O 0.0000 0.7700(4) -0.2500
S1 S 0.04230(11) 0.74998(8) -0.0106(2)
O4 O 0.0927(3) 0.7209(4) 0.0396(8)
O5 O 0.0175(4) 0.7322(4) -0.1145(6)
O6 O -0.0024(4) 0.7515(3) 0.0577(5)
O7 O 0.0136(4) 0.6731(3) 0.1635(8)
O8 O 0.0640(5) 0.7982(3) -0.0203(11)
O9 O 0.0000 0.6193(3) -0.2500
Co1A Co -0.11054(4) 0.67143(3) -0.66510(7)
C1A C -0.2407(3) 0.63985(19) -0.7148(4)
H1A H -0.2315 0.6131 -0.7552
C2A C -0.2332(3) 0.7023(2) -0.6125(4)
H2A H -0.2166 0.7280 -0.5675
C3A C -0.2918(3) 0.6920(2) -0.6383(5)
H3A H -0.3233 0.7087 -0.6156
C4A C -0.3506(2) 0.62921(17) -0.7571(3)
C5A C -0.3996(2) 0.65643(18) -0.7952(4)
H4A H -0.3972 0.6902 -0.7900
C6A C -0.4528(2) 0.63499(17) -0.8412(4)
H5A H -0.4866 0.6541 -0.8660
C7A C -0.4565(2) 0.58534(15) -0.8513(3)
C8A C -0.40580(19) 0.55860(15) -0.8145(3)
H6A H -0.4073 0.5249 -0.8225
C9A C -0.35337(19) 0.57988(15) -0.7668(3)
H7A H -0.3196 0.5609 -0.7407
C10A C -0.51429(19) 0.56228(16) -0.8991(3)
C11A C -0.56154(19) 0.59012(17) -0.9539(3)
H8A H -0.5555 0.6232 -0.9640
C12A C -0.61691(19) 0.57039(18) -0.9936(3)
C13A C -0.6246(2) 0.52095(17) -0.9804(3)
H9A H -0.6612 0.5065 -1.0107
C14A C -0.57896(19) 0.49297(16) -0.9232(3)
C15A C -0.52439(18) 0.51375(16) -0.8849(3)
H10A H -0.4931 0.4945 -0.8480
C16A C -0.58998(19) 0.44025(16) -0.9056(3)
C17A C -0.6481(2) 0.4240(2) -0.9168(5)
H11A H -0.6797 0.4462 -0.9313
C18A C -0.6604(2) 0.3752(2) -0.9068(5)
H12A H -0.7000 0.3641 -0.9169
C19A C -0.6143(2) 0.34419(18) -0.8824(3)
C20A C -0.5556(2) 0.35978(19) -0.8708(4)
H13A H -0.5236 0.3379 -0.8557
C21A C -0.54568(19) 0.40784(16) -0.8820(4)
H14A H -0.5060 0.4188 -0.8727
C22A C -0.6005(2) 0.26617(16) -0.7843(4)
H15A H -0.5705 0.2770 -0.7270
C23A C -0.6689(3) 0.2664(2) -0.9317(5)
H16A H -0.6946 0.2764 -0.9960
C24A C -0.6677(3) 0.2237(2) -0.8853(5)
H17A H -0.6932 0.1979 -0.9113
C25A C -0.6676(2) 0.59926(17) -1.0501(4)
C26A C -0.6595(2) 0.6407(2) -1.1103(4)
H18A H -0.6207 0.6510 -1.1148
C27A C -0.7078(2) 0.6662(2) -1.1629(5)
H19A H -0.7021 0.6934 -1.2052
C28A C -0.7648(2) 0.6520(2) -1.1537(4)
C29A C -0.7729(2) 0.6133(2) -1.0908(4)
H20A H -0.8116 0.6037 -1.0834
C30A C -0.7236(2) 0.5880(2) -1.0378(4)
H21A H -0.7294 0.5621 -0.9917
C31A C -0.8686(2) 0.6792(2) -1.1810(4)
H22A H -0.8767 0.6677 -1.1138
C32A C -0.8221(3) 0.6974(2) -1.3158(5)
H23A H -0.7928 0.7014 -1.3597
C33A C -0.8801(2) 0.7106(2) -1.3407(4)
H24A H -0.8980 0.7253 -1.4070
N1A N -0.2009(2) 0.66920(14) -0.6626(4)
N2A N -0.29585(19) 0.65217(16) -0.7042(3)
N3A N -0.6222(2) 0.22209(17) -0.7900(3)
N4A N -0.62519(18) 0.29384(16) -0.8680(3)
N5A N -0.9084(2) 0.69991(18) -1.2581(4)
N6A N -0.81486(19) 0.67696(18) -1.2122(3)
O1A O -0.1177(3) 0.6155(2) -0.7832(7)
O2A O -0.0911(3) 0.6158(3) -0.5494(9)
S1A S -0.04230(11) 0.74998(8) -0.4894(2)
O4A O -0.0927(3) 0.7209(4) -0.5396(8)
O5A O -0.0175(4) 0.7322(4) -0.3855(6)
O6A O 0.0024(4) 0.7515(3) -0.5577(5)
O7A O -0.0136(4) 0.6731(3) -0.6635(8)
O8A O -0.0640(5) 0.7982(3) -0.4797(11)
Co1B Co 0.61054(4) 0.17143(3) 0.16510(7)
Co1C Co -0.61054(4) 0.17143(3) -0.66510(7)
Co2_2 Co -1.0000 0.70088(4) -1.2500
Co2_3 Co 1.0000 0.70088(4) 0.7500
N3B N 0.1222(2) 0.72209(17) 0.2900(3)
N3C N -0.1222(2) 0.72209(17) -0.7900(3)
N5_2 N -0.0916(2) 0.69991(18) -0.2419(4)
N5A_2 N 0.0916(2) 0.69991(18) -0.2581(4)
loop_
_geom_bond_atom_site_label_1
_geom_bond_atom_site_label_2
_geom_bond_site_symmetry_1
_geom_bond_site_symmetry_2
Co1 N1 1_555 1_555
Co2 O3 1_555 1_555
C1 H1 1_555 1_555
C2 H2 1_555 1_555
C3 C2 1_555 1_555
H3 C3 1_555 1_555
C4 C5 1_555 1_555
C5 H4 1_555 1_555
C6 C5 1_555 1_555
H5 C6 1_555 1_555
C7 C6 1_555 1_555
C8 C7 1_555 1_555
H6 C8 1_555 1_555
C9 C4 1_555 1_555
H7 C9 1_555 1_555
C10 C7 1_555 1_555
C11 C10 1_555 1_555
H8 C11 1_555 1_555
C12 C11 1_555 1_555
C13 C12 1_555 1_555
H9 C13 1_555 1_555
C14 C13 1_555 1_555
C15 C10 1_555 1_555
H10 C15 1_555 1_555
C16 C14 1_555 1_555
C17 C16 1_555 1_555
H11 C17 1_555 1_555
C18 C17 1_555 1_555
H12 C18 1_555 1_555
C19 C18 1_555 1_555
C20 C19 1_555 1_555
H13 C20 1_555 1_555
C21 C16 1_555 1_555
H14 C21 1_555 1_555
C22 H15 1_555 1_555
C23 H16 1_555 1_555
C24 C23 1_555 1_555
H17 C24 1_555 1_555
C25 C12 1_555 1_555
C26 C25 1_555 1_555
H18 C26 1_555 1_555
C27 C26 1_555 1_555
H19 C27 1_555 1_555
C28 C27 1_555 1_555
C29 C28 1_555 1_555
H20 C29 1_555 1_555
C30 C25 1_555 1_555
H21 C30 1_555 1_555
C31 H22 1_555 1_555
C32 H23 1_555 1_555
C33 C32 1_555 1_555
H24 C33 1_555 1_555
N1 C1 1_555 1_555
N2 C1 1_555 1_555
N3 C22 1_555 1_555
N4 C19 1_555 1_555
N5 C31 1_555 1_555
N6 C28 1_555 1_555
O1 Co1 1_555 1_555
O2 Co1 1_555 1_555
S1 O4 1_555 1_555
O4 Co1 1_555 1_555
O5 Co2 1_555 1_555
O6 S1 1_555 1_555
O7 Co1 1_555 1_555
O8 S1 1_555 1_555
O9 Co2 1_555 1_555
Co1A N1A 1_555 1_555
C1A H1A 1_555 1_555
C2A H2A 1_555 1_555
C3A C2A 1_555 1_555
H3A C3A 1_555 1_555
C4A C5A 1_555 1_555
C5A H4A 1_555 1_555
C6A C5A 1_555 1_555
H5A C6A 1_555 1_555
C7A C6A 1_555 1_555
C8A C7A 1_555 1_555
H6A C8A 1_555 1_555
C9A C4A 1_555 1_555
H7A C9A 1_555 1_555
C10A C7A 1_555 1_555
C11A C10A 1_555 1_555
H8A C11A 1_555 1_555
C12A C11A 1_555 1_555
C13A C12A 1_555 1_555
H9A C13A 1_555 1_555
C14A C13A 1_555 1_555
C15A C10A 1_555 1_555
H10A C15A 1_555 1_555
C16A C14A 1_555 1_555
C17A C16A 1_555 1_555
H11A C17A 1_555 1_555
C18A C17A 1_555 1_555
H12A C18A 1_555 1_555
C19A C18A 1_555 1_555
C20A C19A 1_555 1_555
H13A C20A 1_555 1_555
C21A C16A 1_555 1_555
H14A C21A 1_555 1_555
C22A H15A 1_555 1_555
C23A H16A 1_555 1_555
C24A C23A 1_555 1_555
H17A C24A 1_555 1_555
C25A C12A 1_555 1_555
C26A C25A 1_555 1_555
H18A C26A 1_555 1_555
C27A C26A 1_555 1_555
H19A C27A 1_555 1_555
C28A C27A 1_555 1_555
C29A C28A 1_555 1_555
H20A C29A 1_555 1_555
C30A C25A 1_555 1_555
H21A C30A 1_555 1_555
C31A H22A 1_555 1_555
C32A H23A 1_555 1_555
C33A C32A 1_555 1_555
H24A C33A 1_555 1_555
N1A C1A 1_555 1_555
N2A C1A 1_555 1_555
N3A C22A 1_555 1_555
N4A C19A 1_555 1_555
N5A C31A 1_555 1_555
N6A C28A 1_555 1_555
O1A Co1A 1_555 1_555
O2A Co1A 1_555 1_555
S1A O4A 1_555 1_555
O4A Co1A 1_555 1_555
O5A Co2 1_555 1_555
O6A S1A 1_555 1_555
O7A Co1A 1_555 1_555
O8A S1A 1_555 1_555
Co1B N3 1_555 1_555
Co1C N3A 1_555 1_555
Co2_2 N5A 1_555 1_555
Co2_3 N5 1_555 1_555
N3B Co1 1_555 1_555
N3C Co1A 1_555 1_555
N5_2 Co2 1_555 1_555
N5A_2 Co2 1_555 1_555
C2 N1 1_555 1_555
C3 N2 1_555 1_555
C4 N2 1_555 1_555
C8 C9 1_555 1_555
C14 C15 1_555 1_555
C20 C21 1_555 1_555
C22 N4 1_555 1_555
C23 N4 1_555 1_555
C24 N3 1_555 1_555
C29 C30 1_555 1_555
C31 N6 1_555 1_555
C32 N6 1_555 1_555
C33 N5 1_555 1_555
S1 O5 1_555 1_555
C2A N1A 1_555 1_555
C3A N2A 1_555 1_555
C4A N2A 1_555 1_555
C8A C9A 1_555 1_555
C14A C15A 1_555 1_555
C20A C21A 1_555 1_555
C22A N4A 1_555 1_555
C23A N4A 1_555 1_555
C24A N3A 1_555 1_555
C29A C30A 1_555 1_555
C31A N6A 1_555 1_555
C32A N6A 1_555 1_555
C33A N5A 1_555 1_555
S1A O5A 1_555 1_555

#END
