
#######################################################################
#
#                 Cambridge Crystallographic Data Centre
#                                CCDC 
#
#######################################################################
#
# If this CIF has been generated from an entry in the Cambridge 
# Structural Database, then it will include bibliographic, chemical, 
# crystal, experimental, refinement or atomic coordinate data resulting 
# from the CCDC's data processing and validation procedures.
#
#######################################################################

data_GINPAW
_chemical_formula_moiety         '(C80 H66 Co3 N14 O14 S2)n'
_symmetry_cell_setting           monoclinic
_symmetry_space_group_name_H-M   'C 2/c'
_symmetry_Int_Tables_number      15
_space_group_name_Hall           '-C 2yc'
loop_
_symmetry_equiv_pos_site_id
_symmetry_equiv_pos_as_xyz
1 x,y,z
2 -x,y,1/2-z
3 1/2+x,1/2+y,z
4 1/2-x,1/2+y,1/2-z
5 -x,-y,-z
6 x,-y,1/2+z
7 1/2-x,1/2-y,-z
8 1/2+x,1/2-y,1/2+z
_cell_length_a                   21.665(9)
_cell_length_b                   27.475(11)
_cell_length_c                   14.277(6)
_cell_angle_alpha                90
_cell_angle_beta                 103.073(5)
_cell_angle_gamma                90
_cell_volume                     8278.07
loop_
_atom_site_label
_atom_site_type_symbol
_atom_site_fract_x
_atom_site_fract_y
_atom_site_fract_z
Co1 Co 0.10911(5) 0.17587(4) 0.57897(9)
Co2 Co 0.0000 0.21984(5) 0.2500
C1 C 0.6776(3) 0.0685(2) 1.0642(4)
C2 C 0.6891(3) 0.1173(2) 1.0498(4)
H1 H 0.6618 0.1349 0.9998
C3 C 0.7405(3) 0.14056(16) 1.1087(4)
H2 H 0.7484 0.1740 1.0989
C4 C 0.7805(2) 0.1149(2) 1.1820(4)
C5 C 0.7690(3) 0.0660(2) 1.1964(4)
H3 H 0.7963 0.0484 1.2465
C6 C 0.7175(3) 0.04277(17) 1.1375(5)
H4 H 0.7097 0.0094 1.1473
N1 N 0.9243(4) 0.1796(3) 1.2739(6)
C7 C 0.8736(4) 0.1686(3) 1.2016(5)
H5 H 0.8660 0.1804 1.1375
N2 N 0.8355(3) 0.1377(3) 1.2373(6)
C8 C 0.8627(4) 0.1296(4) 1.3316(6)
H6 H 0.8463 0.1094 1.3742
C9 C 0.9176(5) 0.1555(4) 1.3542(6)
H7 H 0.9462 0.1566 1.4153
C10 C 0.2447(4) 0.2021(4) 0.5944(10)
H8 H 0.2321 0.2306 0.5574
C11 C 0.3051(5) 0.1912(4) 0.6392(10)
H9 H 0.3418 0.2107 0.6426
C12 C 0.2406(4) 0.1337(3) 0.6623(6)
H10 H 0.2250 0.1049 0.6856
C13 C 0.3547(4) 0.1196(3) 0.7366(6)
C14 C 0.4084(5) 0.1444(3) 0.7793(8)
H11 H 0.4105 0.1786 0.7714
C15 C 0.4600(4) 0.1195(3) 0.8342(8)
H12 H 0.4967 0.1372 0.8647
C16 C 0.4588(3) 0.0694(3) 0.8454(5)
C17 C 0.4029(4) 0.0457(3) 0.8030(6)
H13 H 0.4000 0.0116 0.8122
C18 C 0.3513(3) 0.0698(3) 0.7481(6)
H14 H 0.3140 0.0524 0.7187
C19 C 0.5173(3) 0.0423(3) 0.8931(5)
C20 C 0.5695(4) 0.0659(3) 0.9521(5)
H15 H 0.5663 0.0996 0.9650
C21 C 0.6253(3) 0.0418(3) 0.9920(6)
C22 C 0.6303(4) -0.0072(3) 0.9672(6)
H16 H 0.6695 -0.0237 0.9887
C23 C 0.5792(4) -0.0321(3) 0.9121(6)
C24 C 0.5222(3) -0.0071(3) 0.8762(5)
H17 H 0.4867 -0.0242 0.8399
C25 C 0.5834(4) -0.0841(3) 0.8839(5)
C26 C 0.6307(4) -0.1005(3) 0.8408(6)
H18 H 0.6623 -0.0783 0.8309
C27 C 0.6333(4) -0.1486(3) 0.8116(7)
H19 H 0.6664 -0.1592 0.7828
C28 C 0.5867(4) -0.1808(3) 0.8253(6)
C29 C 0.5403(4) -0.1654(3) 0.8717(6)
H20 H 0.5098 -0.1879 0.8842
C30 C 0.5385(4) -0.1174(3) 0.8998(6)
H21 H 0.5061 -0.1069 0.9304
C31 C 0.5991(4) -0.2428(3) 0.7094(5)
H22 H 0.6097 -0.2208 0.6642
C32 C 0.5781(4) -0.3087(3) 0.7777(7)
H23 H 0.5717 -0.3421 0.7896
C33 C 0.5721(4) -0.2713(3) 0.8386(6)
H24 H 0.5605 -0.2733 0.8988
C34 C 0.0637(5) 0.0912(4) 0.5623(14)
C35 C 0.0305(5) 0.0437(4) 0.5282(16)
C36 C 0.0336(8) 0.0062(6) 0.5944(17)
H25 H 0.0571 0.0099 0.6588
C37 C -0.0014(8) 0.0370(5) 0.4359(15)
H26 H -0.0019 0.0624 0.3906
N3 N 0.2049(3) 0.1665(2) 0.6101(5)
N4 N 0.3019(3) 0.1457(2) 0.6787(5)
N5 N 0.5946(3) -0.2908(2) 0.6972(6)
N6 N 0.5869(3) -0.2297(2) 0.7926(5)
O1 O 0.0610(4) 0.1239(3) 0.4989(9)
O2 O 0.0946(4) 0.0965(3) 0.6487(9)
O3 O 0.1113(3) 0.2306(2) 0.4865(5)
O4 O 0.0391(3) 0.2656(2) 0.3501(4)
O5 O 0.0641(3) 0.3083(2) 0.4999(4)
O6 O 0.0009(3) 0.2351(2) 0.4848(5)
S1 S 0.05220(9) 0.26062(7) 0.45725(14)
C34D C -0.0637(5) -0.0912(4) 0.4377(14)
C35D C -0.0305(5) -0.0437(4) 0.4718(16)
C36D C -0.0336(8) -0.0062(6) 0.4056(17)
H25D H -0.0571 -0.0099 0.3412
C37D C 0.0014(8) -0.0370(5) 0.5641(15)
H26D H 0.0019 -0.0624 0.6094
O1D O -0.0610(4) -0.1239(3) 0.5011(9)
O2D O -0.0946(4) -0.0965(3) 0.3513(9)
Co1A Co -0.10911(5) 0.17587(4) -0.07897(9)
C1A C -0.6776(3) 0.0685(2) -0.5642(4)
C2A C -0.6891(3) 0.1173(2) -0.5498(4)
H1A H -0.6618 0.1349 -0.4998
C3A C -0.7405(3) 0.14056(16) -0.6087(4)
H2A H -0.7484 0.1740 -0.5989
C4A C -0.7805(2) 0.1149(2) -0.6820(4)
C5A C -0.7690(3) 0.0660(2) -0.6964(4)
H3A H -0.7963 0.0484 -0.7465
C6A C -0.7175(3) 0.04277(17) -0.6375(5)
H4A H -0.7097 0.0094 -0.6473
N1A N -0.9243(4) 0.1796(3) -0.7739(6)
C7A C -0.8736(4) 0.1686(3) -0.7016(5)
H5A H -0.8660 0.1804 -0.6375
N2A N -0.8355(3) 0.1377(3) -0.7373(6)
C8A C -0.8627(4) 0.1296(4) -0.8316(6)
H6A H -0.8463 0.1094 -0.8742
C9A C -0.9176(5) 0.1555(4) -0.8542(6)
H7A H -0.9462 0.1566 -0.9153
C10A C -0.2447(4) 0.2021(4) -0.0944(10)
H8A H -0.2321 0.2306 -0.0574
C11A C -0.3051(5) 0.1912(4) -0.1392(10)
H9A H -0.3418 0.2107 -0.1426
C12A C -0.2406(4) 0.1337(3) -0.1623(6)
H10A H -0.2250 0.1049 -0.1856
C13A C -0.3547(4) 0.1196(3) -0.2366(6)
C14A C -0.4084(5) 0.1444(3) -0.2793(8)
H11A H -0.4105 0.1786 -0.2714
C15A C -0.4600(4) 0.1195(3) -0.3342(8)
H12A H -0.4967 0.1372 -0.3647
C16A C -0.4588(3) 0.0694(3) -0.3454(5)
C17A C -0.4029(4) 0.0457(3) -0.3030(6)
H13A H -0.4000 0.0116 -0.3122
C18A C -0.3513(3) 0.0698(3) -0.2481(6)
H14A H -0.3140 0.0524 -0.2187
C19A C -0.5173(3) 0.0423(3) -0.3931(5)
C20A C -0.5695(4) 0.0659(3) -0.4521(5)
H15A H -0.5663 0.0996 -0.4650
C21A C -0.6253(3) 0.0418(3) -0.4920(6)
C22A C -0.6303(4) -0.0072(3) -0.4672(6)
H16A H -0.6695 -0.0237 -0.4887
C23A C -0.5792(4) -0.0321(3) -0.4121(6)
C24A C -0.5222(3) -0.0071(3) -0.3762(5)
H17A H -0.4867 -0.0242 -0.3399
C25A C -0.5834(4) -0.0841(3) -0.3839(5)
C26A C -0.6307(4) -0.1005(3) -0.3408(6)
H18A H -0.6623 -0.0783 -0.3309
C27A C -0.6333(4) -0.1486(3) -0.3116(7)
H19A H -0.6664 -0.1592 -0.2828
C28A C -0.5867(4) -0.1808(3) -0.3253(6)
C29A C -0.5403(4) -0.1654(3) -0.3717(6)
H20A H -0.5098 -0.1879 -0.3842
C30A C -0.5385(4) -0.1174(3) -0.3998(6)
H21A H -0.5061 -0.1069 -0.4304
C31A C -0.5991(4) -0.2428(3) -0.2094(5)
H22A H -0.6097 -0.2208 -0.1642
C32A C -0.5781(4) -0.3087(3) -0.2777(7)
H23A H -0.5717 -0.3421 -0.2896
C33A C -0.5721(4) -0.2713(3) -0.3386(6)
H24A H -0.5605 -0.2733 -0.3988
N3A N -0.2049(3) 0.1665(2) -0.1101(5)
N4A N -0.3019(3) 0.1457(2) -0.1787(5)
N5A N -0.5946(3) -0.2908(2) -0.1972(6)
N6A N -0.5869(3) -0.2297(2) -0.2926(5)
O3A O -0.1113(3) 0.2306(2) 0.0135(5)
O4A O -0.0391(3) 0.2656(2) 0.1499(4)
O5A O -0.0641(3) 0.3083(2) 0.0001(4)
O6A O -0.0009(3) 0.2351(2) 0.0152(5)
S1A S -0.05220(9) 0.26062(7) 0.04275(14)
Co1B Co 0.60911(5) -0.32413(4) 0.57897(9)
Co1C Co -0.60911(5) -0.32413(4) -0.07897(9)
Co1D Co -0.10911(5) -0.17587(4) 0.42103(9)
Co2_2 Co -1.0000 0.21984(5) -0.7500
Co2_3 Co 1.0000 0.21984(5) 1.2500
N1_2 N -0.0757(4) 0.1796(3) 0.2739(6)
N1A_2 N 0.0757(4) 0.1796(3) 0.2261(6)
N5B N 0.0946(3) 0.2092(2) 0.6972(6)
N5C N -0.0946(3) 0.2092(2) -0.1972(6)
O1A O -0.0610(4) 0.1239(3) 0.0011(9)
O2A O -0.0946(4) 0.0965(3) -0.1487(9)
C38 C 0.8123(9) 0.0116(7) 0.9712(11)
H27 H 0.8295 0.0416 0.9983
C39 C 0.8524(10) -0.0366(7) 1.1287(11)
H28 H 0.8539 -0.0702 1.1525
H29 H 0.8292 -0.0162 1.1653
H30 H 0.8957 -0.0242 1.1366
C40 C 0.7948(14) -0.0811(7) 0.9750(17)
H31 H 0.8040 -0.1085 1.0199
H32 H 0.8150 -0.0867 0.9210
H33 H 0.7489 -0.0782 0.9507
N7 N 0.8199(6) -0.0356(6) 1.0251(10)
O7 O 0.7810(8) 0.0071(6) 0.8866(11)
N8 N 0.2949(7) 0.2106(6) 0.8914(11)
O8 O 0.2494(9) 0.2783(6) 0.7864(13)
C41 C 0.2453(9) 0.2374(7) 0.8208(15)
H34 H 0.2059 0.2212 0.7997
C42 C 0.3617(8) 0.2283(11) 0.913(2)
H35 H 0.3645 0.2580 0.8763
H36 H 0.3892 0.2032 0.8958
H37 H 0.3754 0.2354 0.9821
C43 C 0.2776(13) 0.1663(9) 0.940(2)
H38 H 0.2321 0.1602 0.9179
H39 H 0.2881 0.1713 1.0096
H40 H 0.3013 0.1383 0.9238
loop_
_geom_bond_atom_site_label_1
_geom_bond_atom_site_label_2
_geom_bond_site_symmetry_1
_geom_bond_site_symmetry_2
Co1 N3 1_555 1_555
Co2 O4 1_555 1_555
C1 C2 1_555 1_555
C2 H1 1_555 1_555
C3 C2 1_555 1_555
H2 C3 1_555 1_555
C4 C3 1_555 1_555
C5 C4 1_555 1_555
H3 C5 1_555 1_555
C6 C1 1_555 1_555
H4 C6 1_555 1_555
N1 C7 1_555 1_555
C7 H5 1_555 1_555
N2 C4 1_555 1_555
C8 N2 1_555 1_555
H6 C8 1_555 1_555
C9 N1 1_555 1_555
H7 C9 1_555 1_555
C10 H8 1_555 1_555
C11 C10 1_555 1_555
H9 C11 1_555 1_555
C12 H10 1_555 1_555
C13 C14 1_555 1_555
C14 H11 1_555 1_555
C15 C14 1_555 1_555
H12 C15 1_555 1_555
C16 C15 1_555 1_555
C17 C16 1_555 1_555
H13 C17 1_555 1_555
C18 C13 1_555 1_555
H14 C18 1_555 1_555
C19 C16 1_555 1_555
C20 C19 1_555 1_555
H15 C20 1_555 1_555
C21 C1 1_555 1_555
C22 C21 1_555 1_555
H16 C22 1_555 1_555
C23 C22 1_555 1_555
C24 C19 1_555 1_555
H17 C24 1_555 1_555
C25 C23 1_555 1_555
C26 C25 1_555 1_555
H18 C26 1_555 1_555
C27 C26 1_555 1_555
H19 C27 1_555 1_555
C28 C27 1_555 1_555
C29 C28 1_555 1_555
H20 C29 1_555 1_555
C30 C25 1_555 1_555
H21 C30 1_555 1_555
C31 H22 1_555 1_555
C32 H23 1_555 1_555
C33 C32 1_555 1_555
H24 C33 1_555 1_555
C34 C35 1_555 1_555
C35 C36 1_555 1_555
C36 H25 1_555 1_555
C37 C35 1_555 1_555
H26 C37 1_555 1_555
N3 C10 1_555 1_555
N4 C11 1_555 1_555
N5 C31 1_555 1_555
N6 C28 1_555 1_555
O1 Co1 1_555 1_555
O2 Co1 1_555 1_555
O3 Co1 1_555 1_555
O4 S1 1_555 1_555
O5 S1 1_555 1_555
O6 S1 1_555 1_555
S1 O3 1_555 1_555
C38 H27 1_555 1_555
C39 H28 1_555 1_555
H29 C39 1_555 1_555
H30 C39 1_555 1_555
C40 H31 1_555 1_555
H32 C40 1_555 1_555
H33 C40 1_555 1_555
N7 C38 1_555 1_555
O7 C38 1_555 1_555
N8 C41 1_555 1_555
O8 C41 1_555 1_555
C41 H34 1_555 1_555
C42 N8 1_555 1_555
H35 C42 1_555 1_555
H36 C42 1_555 1_555
H37 C42 1_555 1_555
C43 N8 1_555 1_555
H38 C43 1_555 1_555
H39 C43 1_555 1_555
H40 C43 1_555 1_555
C34D C35D 1_555 1_555
C35D C36D 1_555 1_555
C36D C37 1_555 1_555
H25D C36D 1_555 1_555
C37D C36 1_555 1_555
H26D C37D 1_555 1_555
O1D C34D 1_555 1_555
O2D C34D 1_555 1_555
Co1A N3A 1_555 1_555
C1A C2A 1_555 1_555
C2A H1A 1_555 1_555
C3A C2A 1_555 1_555
H2A C3A 1_555 1_555
C4A C3A 1_555 1_555
C5A C4A 1_555 1_555
H3A C5A 1_555 1_555
C6A C1A 1_555 1_555
H4A C6A 1_555 1_555
N1A C7A 1_555 1_555
C7A H5A 1_555 1_555
N2A C4A 1_555 1_555
C8A N2A 1_555 1_555
H6A C8A 1_555 1_555
C9A N1A 1_555 1_555
H7A C9A 1_555 1_555
C10A H8A 1_555 1_555
C11A C10A 1_555 1_555
H9A C11A 1_555 1_555
C12A H10A 1_555 1_555
C13A C14A 1_555 1_555
C14A H11A 1_555 1_555
C15A C14A 1_555 1_555
H12A C15A 1_555 1_555
C16A C15A 1_555 1_555
C17A C16A 1_555 1_555
H13A C17A 1_555 1_555
C18A C13A 1_555 1_555
H14A C18A 1_555 1_555
C19A C16A 1_555 1_555
C20A C19A 1_555 1_555
H15A C20A 1_555 1_555
C21A C1A 1_555 1_555
C22A C21A 1_555 1_555
H16A C22A 1_555 1_555
C23A C22A 1_555 1_555
C24A C19A 1_555 1_555
H17A C24A 1_555 1_555
C25A C23A 1_555 1_555
C26A C25A 1_555 1_555
H18A C26A 1_555 1_555
C27A C26A 1_555 1_555
H19A C27A 1_555 1_555
C28A C27A 1_555 1_555
C29A C28A 1_555 1_555
H20A C29A 1_555 1_555
C30A C25A 1_555 1_555
H21A C30A 1_555 1_555
C31A H22A 1_555 1_555
C32A H23A 1_555 1_555
C33A C32A 1_555 1_555
H24A C33A 1_555 1_555
N3A C10A 1_555 1_555
N4A C11A 1_555 1_555
N5A C31A 1_555 1_555
N6A C28A 1_555 1_555
O3A Co1A 1_555 1_555
O4A Co2 1_555 1_555
O5A S1A 1_555 1_555
O6A S1A 1_555 1_555
S1A O3A 1_555 1_555
Co1B N5 1_555 1_555
Co1C N5A 1_555 1_555
Co1D O1D 1_555 1_555
Co2_2 N1A 1_555 1_555
Co2_3 N1 1_555 1_555
N1_2 Co2 1_555 1_555
N1A_2 Co2 1_555 1_555
N5B Co1 1_555 1_555
N5C Co1A 1_555 1_555
O1A Co1A 1_555 1_555
O2A Co1A 1_555 1_555
C5 C6 1_555 1_555
C7 N2 1_555 1_555
C8 C9 1_555 1_555
C12 N3 1_555 1_555
C12 N4 1_555 1_555
C13 N4 1_555 1_555
C17 C18 1_555 1_555
C20 C21 1_555 1_555
C23 C24 1_555 1_555
C29 C30 1_555 1_555
C31 N6 1_555 1_555
C32 N5 1_555 1_555
C33 N6 1_555 1_555
C34 O1 1_555 1_555
C34 O2 1_555 1_555
C39 N7 1_555 1_555
C40 N7 1_555 1_555
C35D C37D 1_555 1_555
O2D Co1D 1_555 1_555
C5A C6A 1_555 1_555
C7A N2A 1_555 1_555
C8A C9A 1_555 1_555
C12A N3A 1_555 1_555
C12A N4A 1_555 1_555
C13A N4A 1_555 1_555
C17A C18A 1_555 1_555
C20A C21A 1_555 1_555
C23A C24A 1_555 1_555
C29A C30A 1_555 1_555
C31A N6A 1_555 1_555
C32A N5A 1_555 1_555
C33A N6A 1_555 1_555
O4A S1A 1_555 1_555

#END
