
#######################################################################
#
#                 Cambridge Crystallographic Data Centre
#                                CCDC 
#
#######################################################################
#
# If this CIF has been generated from an entry in the Cambridge 
# Structural Database, then it will include bibliographic, chemical, 
# crystal, experimental, refinement or atomic coordinate data resulting 
# from the CCDC's data processing and validation procedures.
#
#######################################################################

data_DOPJEY
_chemical_formula_moiety         '(C2 H5 Ga2 O12 P2 1-)n'
_symmetry_cell_setting           tetragonal
_symmetry_space_group_name_H-M   'I 4/m'
_symmetry_Int_Tables_number      87
_space_group_name_Hall           '-I 4'
loop_
_symmetry_equiv_pos_site_id
_symmetry_equiv_pos_as_xyz
1 x,y,z
2 -x,-y,z
3 -y,x,z
4 y,-x,z
5 1/2+x,1/2+y,1/2+z
6 1/2-x,1/2-y,1/2+z
7 1/2-y,1/2+x,1/2+z
8 1/2+y,1/2-x,1/2+z
9 -x,-y,-z
10 x,y,-z
11 y,-x,-z
12 -y,x,-z
13 1/2-x,1/2-y,1/2-z
14 1/2+x,1/2+y,1/2-z
15 1/2+y,1/2-x,1/2-z
16 1/2-y,1/2+x,1/2-z
_cell_length_a                   24.7980(4)
_cell_length_b                   24.7980(4)
_cell_length_c                   6.2683(2)
_cell_angle_alpha                90
_cell_angle_beta                 90
_cell_angle_gamma                90
_cell_volume                     3854.63
loop_
_atom_site_label
_atom_site_type_symbol
_atom_site_fract_x
_atom_site_fract_y
_atom_site_fract_z
Ga1 Ga 0.21956(3) 0.37572(3) 0.0000
Ga2 Ga 0.09154(3) 0.29274(4) -0.5000
P1 P 0.10622(9) 0.31597(9) 0.0000
P2 P 0.18862(14) 0.38660(15) -0.5000
O1 O 0.1662(2) 0.3197(2) 0.0000
O2 O 0.08419(17) 0.28811(19) 0.1939(6)
O3 O 0.1356(2) 0.3547(2) -0.5000
O4 O 0.22148(17) 0.37973(19) -0.3067(6)
O5 O 0.2695(2) 0.4402(2) 0.0000
O6 O 0.1624(2) 0.4359(2) 0.0000
O7 O 0.2652(2) 0.5307(2) 0.0000
O8 O 0.1436(3) 0.2366(3) -0.5000
O9 O 0.1579(2) 0.5251(2) 0.0000
O10 O 0.2814(2) 0.3293(2) 0.0000
C1 C 0.1828(3) 0.4822(3) 0.0000
C2 C 0.2444(3) 0.4840(3) 0.0000
H1 H 0.0783 0.3615 0.0000
Ga1_2 Ga 0.21956(3) 0.37572(3) -1.0000
Ga2_2 Ga 0.09154(3) 0.29274(4) 0.5000
Ga2F Ga 0.20726(4) 0.59154(3) 0.0000
O2I O 0.08419(17) 0.28811(19) -0.1939(6)
O2_2 O 0.08419(17) 0.28811(19) -0.8061(6)
O4I O 0.22148(17) 0.37973(19) -0.6933(6)
O4I_2 O 0.22148(17) 0.37973(19) 0.3067(6)
O7G O 0.0307(2) 0.2348(2) -0.5000
O9G O 0.0251(2) 0.3421(2) -0.5000
loop_
_geom_bond_atom_site_label_1
_geom_bond_atom_site_label_2
_geom_bond_site_symmetry_1
_geom_bond_site_symmetry_2
Ga1 O1 1_555 1_555
Ga2 O3 1_555 1_555
P1 O1 1_555 1_555
P2 O3 1_555 1_555
O2 P1 1_555 1_555
O4 Ga1 1_555 1_555
O5 Ga1 1_555 1_555
O6 Ga1 1_555 1_555
O7 C2 1_555 1_555
O8 Ga2 1_555 1_555
O9 C1 1_555 1_555
O10 Ga1 1_555 1_555
C1 O6 1_555 1_555
C2 O5 1_555 1_555
H1 P1 1_555 1_555
Ga1_2 O4I 1_555 1_555
Ga2_2 O2 1_555 1_555
Ga2F O7 1_555 1_555
O2I Ga2 1_555 1_555
O2_2 Ga2 1_555 1_555
O4I P2 1_555 1_555
O4I_2 Ga1 1_555 1_555
O7G Ga2 1_555 1_555
O9G Ga2 1_555 1_555
P1 O2I 1_555 1_555
P2 O4 1_555 1_555
O9 Ga2F 1_555 1_555
C1 C2 1_555 1_555

#END
