
#######################################################################
#
#                 Cambridge Crystallographic Data Centre
#                                CCDC 
#
#######################################################################
#
# If this CIF has been generated from an entry in the Cambridge 
# Structural Database, then it will include bibliographic, chemical, 
# crystal, experimental, refinement or atomic coordinate data resulting 
# from the CCDC's data processing and validation procedures.
#
#######################################################################

data_DOPJOI
_chemical_formula_moiety         '(C2 H5 Ga2 O12 P2 1-)n'
_symmetry_cell_setting           tetragonal
_symmetry_space_group_name_H-M   'I 4/m'
_symmetry_Int_Tables_number      87
_space_group_name_Hall           '-I 4'
loop_
_symmetry_equiv_pos_site_id
_symmetry_equiv_pos_as_xyz
1 x,y,z
2 -x,-y,z
3 -y,x,z
4 y,-x,z
5 1/2+x,1/2+y,1/2+z
6 1/2-x,1/2-y,1/2+z
7 1/2-y,1/2+x,1/2+z
8 1/2+y,1/2-x,1/2+z
9 -x,-y,-z
10 x,y,-z
11 y,-x,-z
12 -y,x,-z
13 1/2-x,1/2-y,1/2-z
14 1/2+x,1/2+y,1/2-z
15 1/2+y,1/2-x,1/2-z
16 1/2-y,1/2+x,1/2-z
_cell_length_a                   24.7693(3)
_cell_length_b                   24.7693(3)
_cell_length_c                   6.26470(10)
_cell_angle_alpha                90
_cell_angle_beta                 90
_cell_angle_gamma                90
_cell_volume                     3843.51
loop_
_atom_site_label
_atom_site_type_symbol
_atom_site_fract_x
_atom_site_fract_y
_atom_site_fract_z
Ga1 Ga 0.78027(6) 0.37551(6) 0.0000
Ga2 Ga 0.90859(7) 0.29236(6) -0.5000
P1 P 0.89401(16) 0.31564(16) 0.0000
P2 P 0.8113(2) 0.3864(2) -0.5000
O1 O 0.8327(4) 0.3189(4) 0.0000
O2 O 0.9157(3) 0.2879(3) -0.1929(10)
O3 O 0.8635(5) 0.3541(4) -0.5000
O4 O 0.7776(3) 0.3786(3) -0.3072(10)
O5 O 0.8369(4) 0.4352(4) 0.0000
O6 O 0.7189(4) 0.3292(4) 0.0000
O7 O 0.7291(4) 0.4415(4) 0.0000
O8 O 0.7345(4) 0.5300(4) 0.0000
O9 O 0.8561(5) 0.2370(4) -0.5000
O10 O 0.8427(4) 0.5254(4) 0.0000
C1 C 0.7547(5) 0.4854(6) 0.0000
C2 C 0.8167(5) 0.4816(6) 0.0000
Ga1_2 Ga 0.78027(6) 0.37551(6) -1.0000
Ga2G Ga 0.79236(6) 0.59141(7) 0.0000
Ga2_2 Ga 0.90859(7) 0.29236(6) 0.5000
O2I O 0.9157(3) 0.2879(3) 0.1929(10)
O2I_2 O 0.9157(3) 0.2879(3) -0.8071(10)
O4I O 0.7776(3) 0.3786(3) -0.6928(10)
O4I_2 O 0.7776(3) 0.3786(3) 0.3072(10)
O8F O 0.9700(4) 0.2345(4) -0.5000
O10F O 0.9746(4) 0.3427(4) -0.5000
loop_
_geom_bond_atom_site_label_1
_geom_bond_atom_site_label_2
_geom_bond_site_symmetry_1
_geom_bond_site_symmetry_2
Ga1 O1 1_555 1_555
Ga2 O2 1_555 1_555
P1 O1 1_555 1_555
P2 O3 1_555 1_555
O2 P1 1_555 1_555
O3 Ga2 1_555 1_555
O4 Ga1 1_555 1_555
O5 Ga1 1_555 1_555
O6 Ga1 1_555 1_555
O7 Ga1 1_555 1_555
O8 C1 1_555 1_555
O9 Ga2 1_555 1_555
O10 C2 1_555 1_555
C1 O7 1_555 1_555
C2 O5 1_555 1_555
Ga1_2 O4I 1_555 1_555
Ga2G O8 1_555 1_555
Ga2_2 O2I 1_555 1_555
O2I P1 1_555 1_555
O2I_2 Ga2 1_555 1_555
O4I P2 1_555 1_555
O4I_2 Ga1 1_555 1_555
O8F Ga2 1_555 1_555
O10F Ga2 1_555 1_555
P2 O4 1_555 1_555
O10 Ga2G 1_555 1_555
C1 C2 1_555 1_555

#END
