
#######################################################################
#
#                 Cambridge Crystallographic Data Centre
#                                CCDC 
#
#######################################################################
#
# If this CIF has been generated from an entry in the Cambridge 
# Structural Database, then it will include bibliographic, chemical, 
# crystal, experimental, refinement or atomic coordinate data resulting 
# from the CCDC's data processing and validation procedures.
#
#######################################################################

data_DOPJIC
_chemical_formula_moiety         '(C2 H5 Ga2 O12 P2 1-)n'
_symmetry_cell_setting           orthorhombic
_symmetry_space_group_name_H-M   'C m c m'
_symmetry_Int_Tables_number      63
_space_group_name_Hall           '-C 2c 2'
loop_
_symmetry_equiv_pos_site_id
_symmetry_equiv_pos_as_xyz
1 x,y,z
2 -x,-y,1/2+z
3 -x,y,1/2-z
4 x,-y,-z
5 1/2+x,1/2+y,z
6 1/2-x,1/2-y,1/2+z
7 1/2-x,1/2+y,1/2-z
8 1/2+x,1/2-y,-z
9 -x,-y,-z
10 x,y,1/2-z
11 x,-y,1/2+z
12 -x,y,z
13 1/2-x,1/2-y,-z
14 1/2+x,1/2+y,1/2-z
15 1/2+x,1/2-y,1/2+z
16 1/2-x,1/2+y,z
_cell_length_a                   6.2496(12)
_cell_length_b                   16.153(3)
_cell_length_c                   16.824(3)
_cell_angle_alpha                90
_cell_angle_beta                 90
_cell_angle_gamma                90
_cell_volume                     1698.38
loop_
_atom_site_label
_atom_site_type_symbol
_atom_site_fract_x
_atom_site_fract_y
_atom_site_fract_z
Ga1 Ga 0.0000 0.34788(6) 0.43458(5)
P1 P 0.5000 0.30921(18) 0.44984(15)
O1 O 0.3055(7) 0.3577(3) 0.4343(3)
O2 O 0.0000 0.2382(4) 0.4726(4)
O3 O 0.0000 0.4716(4) 0.4010(4)
O4 O -0.0000 0.4029(4) 0.5432(4)
O5 O 0.0000 0.3175(4) 0.3252(4)
C1 C 0.0000 0.5206(7) 0.4586(5)
H1 H 0.5000 0.2533 0.3883
Ga1G Ga 0.5000 0.15212(6) 0.56542(5)
Ga1_2 Ga 1.0000 0.34788(6) 0.43458(5)
Ga1C Ga 0.0000 0.65212(6) 0.56542(5)
Ga1G_2 Ga -0.5000 0.15212(6) 0.56542(5)
P1G P 0.0000 0.19079(18) 0.55016(15)
O1K O -0.3055(7) 0.3577(3) 0.4343(3)
O1K_2 O 0.6945(7) 0.3577(3) 0.4343(3)
O1G O -0.1945(7) 0.1423(3) 0.5657(3)
O1L O 0.1945(7) 0.1423(3) 0.5657(3)
O1G_2 O 0.8055(7) 0.1423(3) 0.5657(3)
O2G O 0.5000 0.2618(4) 0.5274(4)
O3C O 0.0000 0.5284(4) 0.5990(4)
O3G O 0.5000 0.0284(4) 0.5990(4)
O4C O 0.0000 0.5971(4) 0.4568(4)
O4G O 0.5000 0.0971(4) 0.4568(4)
O5G O 0.5000 0.1825(4) 0.6748(4)
C1C C 0.0000 0.4794(7) 0.5414(5)
H1G H 0.0000 0.2467 0.6117
loop_
_geom_bond_atom_site_label_1
_geom_bond_atom_site_label_2
_geom_bond_site_symmetry_1
_geom_bond_site_symmetry_2
Ga1 O1 1_555 1_555
P1 O1 1_555 1_555
O2 Ga1 1_555 1_555
O3 Ga1 1_555 1_555
O4 Ga1 1_555 1_555
O5 Ga1 1_555 1_555
C1 O3 1_555 1_555
H1 P1 1_555 1_555
Ga1G O1L 1_555 1_555
Ga1_2 O1K_2 1_555 1_555
Ga1C O3C 1_555 1_555
Ga1G_2 O1G 1_555 1_555
P1G O2 1_555 1_555
O1K Ga1 1_555 1_555
O1K_2 P1 1_555 1_555
O1G P1G 1_555 1_555
O1L P1G 1_555 1_555
O1G_2 Ga1G 1_555 1_555
O2G P1 1_555 1_555
O3C C1C 1_555 1_555
O3G Ga1G 1_555 1_555
O4C C1 1_555 1_555
O4G Ga1G 1_555 1_555
O5G Ga1G 1_555 1_555
C1C O4 1_555 1_555
H1G P1G 1_555 1_555
C1 C1C 1_555 1_555
Ga1G O2G 1_555 1_555
Ga1C O4C 1_555 1_555

#END
