
#######################################################################
#
#                 Cambridge Crystallographic Data Centre
#                                CCDC 
#
#######################################################################
#
# If this CIF has been generated from an entry in the Cambridge 
# Structural Database, then it will include bibliographic, chemical, 
# crystal, experimental, refinement or atomic coordinate data resulting 
# from the CCDC's data processing and validation procedures.
#
#######################################################################

data_DOPJUO
_chemical_formula_moiety         '(C2 H5 Ga2 O12 P2 1-)n'
_symmetry_cell_setting           orthorhombic
_symmetry_space_group_name_H-M   'P n m a'
_symmetry_Int_Tables_number      62
_space_group_name_Hall           '-P 2ac 2n'
loop_
_symmetry_equiv_pos_site_id
_symmetry_equiv_pos_as_xyz
1 x,y,z
2 1/2-x,-y,1/2+z
3 -x,1/2+y,-z
4 1/2+x,1/2-y,1/2-z
5 -x,-y,-z
6 1/2+x,y,1/2-z
7 x,1/2-y,z
8 1/2-x,1/2+y,1/2+z
_cell_length_a                   19.591(4)
_cell_length_b                   6.2613(13)
_cell_length_c                   14.853(3)
_cell_angle_alpha                90
_cell_angle_beta                 90
_cell_angle_gamma                90
_cell_volume                     1821.95
loop_
_atom_site_label
_atom_site_type_symbol
_atom_site_fract_x
_atom_site_fract_y
_atom_site_fract_z
Ga1 Ga 0.12667(6) 0.2500 0.13663(9)
Ga2 Ga 0.19054(6) -0.2500 -0.09754(10)
P1 P 0.1956(3) 0.2500 -0.0555(4)
P2 P 0.1602(3) -0.2500 0.1178(3)
O1 O 0.1310(5) 0.2500 0.0111(5)
O2 O 0.1944(4) 0.0556(10) -0.1121(5)
O3 O 0.2007(5) -0.2500 0.0293(7)
O4 O 0.1281(4) -0.0576(10) 0.1438(5)
O5 O 0.0283(4) 0.2500 0.1393(6)
O6 O 0.0940(5) -0.2500 -0.1062(8)
O7 O 0.3066(4) 0.2500 0.2636(6)
O8 O 0.2299(4) 0.2500 0.1524(6)
O9 O 0.2065(4) 0.2500 0.3850(6)
O10 O 0.1289(4) 0.2500 0.2744(5)
C1 C 0.1886(6) 0.2500 0.3066(9)
C2 C 0.2464(5) 0.2500 0.2334(8)
Ga1_2 Ga 0.12667(6) -0.7500 0.13663(9)
Ga2A Ga 0.30946(6) 0.2500 0.40246(10)
Ga2_2 Ga 0.19054(6) 0.7500 -0.09754(10)
O2F O 0.1944(4) 0.4444(10) -0.1121(5)
O2F_2 O 0.1944(4) -0.5556(10) -0.1121(5)
O4F O 0.1281(4) -0.4424(10) 0.1438(5)
O4F_2 O 0.1281(4) 0.5576(10) 0.1438(5)
O7A O 0.1934(4) -0.2500 -0.2364(6)
O9A O 0.2935(4) -0.2500 -0.1150(6)
loop_
_geom_bond_atom_site_label_1
_geom_bond_atom_site_label_2
_geom_bond_site_symmetry_1
_geom_bond_site_symmetry_2
Ga1 O1 1_555 1_555
Ga2 O2 1_555 1_555
P1 O1 1_555 1_555
P2 O3 1_555 1_555
O2 P1 1_555 1_555
O3 Ga2 1_555 1_555
O4 Ga1 1_555 1_555
O5 Ga1 1_555 1_555
O6 Ga2 1_555 1_555
O7 C2 1_555 1_555
O8 Ga1 1_555 1_555
O9 C1 1_555 1_555
O10 Ga1 1_555 1_555
C1 O10 1_555 1_555
C2 O8 1_555 1_555
Ga1_2 O4F 1_555 1_555
Ga2A O7 1_555 1_555
Ga2_2 O2F 1_555 1_555
O2F P1 1_555 1_555
O2F_2 Ga2 1_555 1_555
O4F P2 1_555 1_555
O4F_2 Ga1 1_555 1_555
O7A Ga2 1_555 1_555
O9A Ga2 1_555 1_555
P2 O4 1_555 1_555
O9 Ga2A 1_555 1_555
C1 C2 1_555 1_555

#END
