
#######################################################################
#
#                 Cambridge Crystallographic Data Centre
#                                CCDC 
#
#######################################################################
#
# If this CIF has been generated from an entry in the Cambridge 
# Structural Database, then it will include bibliographic, chemical, 
# crystal, experimental, refinement or atomic coordinate data resulting 
# from the CCDC's data processing and validation procedures.
#
#######################################################################

data_EKOMEY
_chemical_formula_moiety         '(C52 H36 Cd1 N14 O4)n'
_symmetry_cell_setting           monoclinic
_symmetry_space_group_name_H-M   'C 2/c'
_symmetry_Int_Tables_number      15
_space_group_name_Hall           '-C 2yc'
loop_
_symmetry_equiv_pos_site_id
_symmetry_equiv_pos_as_xyz
1 x,y,z
2 -x,y,1/2-z
3 1/2+x,1/2+y,z
4 1/2-x,1/2+y,1/2-z
5 -x,-y,-z
6 x,-y,1/2+z
7 1/2-x,1/2-y,-z
8 1/2+x,1/2-y,1/2+z
_cell_length_a                   18.535(4)
_cell_length_b                   27.031(6)
_cell_length_c                   10.995(3)
_cell_angle_alpha                90
_cell_angle_beta                 103.158(4)
_cell_angle_gamma                90
_cell_volume                     5364.08
loop_
_atom_site_label
_atom_site_type_symbol
_atom_site_fract_x
_atom_site_fract_y
_atom_site_fract_z
Cd1 Cd 0.5000 0.261062(12) 0.7500
C1 C 0.4260(2) 0.18191(14) 0.5231(4)
H1 H 0.4725 0.1745 0.5093
C2 C 0.3412(2) 0.2081(2) 0.5988(5)
H2 H 0.3163 0.2237 0.6525
C3 C 0.0755(3) -0.17619(16) 0.0131(4)
H3 H 0.0603 -0.2015 0.0588
C4 C 0.0892(2) -0.13505(13) -0.1406(4)
H4 H 0.0879 -0.1238 -0.2210
C5 C 0.3500(2) 0.13786(13) 0.3398(3)
C6 C 0.4060(2) 0.13163(13) 0.2770(4)
H5 H 0.4517 0.1468 0.3067
C7 C 0.39443(19) 0.10315(13) 0.1708(4)
H6 H 0.4329 0.0985 0.1306
C8 C 0.32623(19) 0.08121(13) 0.1227(3)
C9 C 0.2701(2) 0.08869(15) 0.1862(4)
H7 H 0.2238 0.0745 0.1557
C10 C 0.2822(2) 0.11664(15) 0.2927(4)
H8 H 0.2440 0.1213 0.3336
C11 C 0.1694(2) -0.06908(13) -0.0198(4)
C12 C 0.2267(2) -0.06471(14) 0.0859(4)
H9 H 0.2337 -0.0888 0.1479
C13 C 0.2728(2) -0.02442(14) 0.0976(4)
H10 H 0.3106 -0.0208 0.1690
C14 C 0.2635(2) 0.01083(13) 0.0039(4)
C15 C 0.2054(2) 0.00661(14) -0.1023(4)
H11 H 0.1987 0.0306 -0.1645
C16 C 0.1582(2) -0.03378(14) -0.1137(4)
H12 H 0.1193 -0.0371 -0.1836
C17 C 0.3645(2) 0.05204(13) -0.0660(3)
C18 C 0.3816(2) 0.09524(13) -0.1204(4)
H13 H 0.3573 0.1244 -0.1095
C19 C 0.4346(2) 0.09551(13) -0.1910(4)
H14 H 0.4459 0.1251 -0.2254
C20 C 0.47134(19) 0.05253(12) -0.2118(3)
C21 C 0.4521(2) 0.00930(13) -0.1591(3)
H15 H 0.4750 -0.0202 -0.1723
C22 C 0.4000(2) 0.00885(13) -0.0878(3)
H16 H 0.3884 -0.0208 -0.0538
C23 C 0.6064(3) 0.24718(18) 0.5618(7)
C24 C 0.6817(2) 0.24876(14) 0.5303(5)
C25 C 0.6919(3) 0.2297(2) 0.4171(6)
H17 H 0.6521 0.2161 0.3598
C26 C 0.7391(3) 0.2688(2) 0.6094(5)
H18 H 0.7325 0.2822 0.6840
N1 N 0.41464(17) 0.20876(11) 0.6176(3)
N2 N 0.36232(16) 0.16698(11) 0.4505(3)
N3 N 0.3060(2) 0.18378(18) 0.4988(4)
N4 N 0.05688(17) -0.17534(11) -0.1133(3)
N5 N 0.12431(17) -0.11236(11) -0.0352(3)
N6 N 0.1159(2) -0.13946(13) 0.0670(3)
N7 N 0.31290(17) 0.05226(11) 0.0132(3)
O1 O 0.59608(19) 0.26476(18) 0.6536(3)
O2 O 0.5527(3) 0.2292(3) 0.4725(8)
C1A C 0.5740(2) 0.18191(14) -1.0231(4)
H1A H 0.5275 0.1745 -1.0093
C2A C 0.6588(2) 0.2081(2) -1.0988(5)
H2A H 0.6837 0.2237 -1.1525
C3A C 0.9245(3) -0.17619(16) -0.5131(4)
H3A H 0.9397 -0.2015 -0.5588
C4A C 0.9108(2) -0.13505(13) -0.3594(4)
H4A H 0.9121 -0.1238 -0.2790
C5A C 0.6500(2) 0.13786(13) -0.8398(3)
C6A C 0.5940(2) 0.13163(13) -0.7770(4)
H5A H 0.5483 0.1468 -0.8067
C7A C 0.60557(19) 0.10315(13) -0.6708(4)
H6A H 0.5671 0.0985 -0.6306
C8A C 0.67377(19) 0.08121(13) -0.6227(3)
C9A C 0.7299(2) 0.08869(15) -0.6862(4)
H7A H 0.7762 0.0745 -0.6557
C10A C 0.7178(2) 0.11664(15) -0.7927(4)
H8A H 0.7560 0.1213 -0.8336
C11A C 0.8306(2) -0.06908(13) -0.4802(4)
C12A C 0.7733(2) -0.06471(14) -0.5859(4)
H9A H 0.7663 -0.0888 -0.6479
C13A C 0.7272(2) -0.02442(14) -0.5976(4)
H10A H 0.6894 -0.0208 -0.6690
C14A C 0.7365(2) 0.01083(13) -0.5039(4)
C15A C 0.7946(2) 0.00661(14) -0.3977(4)
H11A H 0.8013 0.0306 -0.3355
C16A C 0.8418(2) -0.03378(14) -0.3863(4)
H12A H 0.8807 -0.0371 -0.3164
C17A C 0.6355(2) 0.05204(13) -0.4340(3)
C18A C 0.6184(2) 0.09524(13) -0.3796(4)
H13A H 0.6427 0.1244 -0.3905
C19A C 0.5654(2) 0.09551(13) -0.3090(4)
H14A H 0.5541 0.1251 -0.2746
C20A C 0.52866(19) 0.05253(12) -0.2882(3)
C21A C 0.5479(2) 0.00930(13) -0.3409(3)
H15A H 0.5250 -0.0202 -0.3277
C22A C 0.6000(2) 0.00885(13) -0.4122(3)
H16A H 0.6116 -0.0208 -0.4462
N1A N 0.58536(17) 0.20876(11) -1.1176(3)
N2A N 0.63768(16) 0.16698(11) -0.9505(3)
N3A N 0.6940(2) 0.18378(18) -0.9988(4)
N4A N 0.94312(17) -0.17534(11) -0.3867(3)
N5A N 0.87569(17) -0.11236(11) -0.4648(3)
N6A N 0.8841(2) -0.13946(13) -0.5670(3)
N7A N 0.68710(17) 0.05226(11) -0.5132(3)
C23F C 0.8936(3) 0.25282(18) 0.4382(7)
C24F C 0.8183(2) 0.25124(14) 0.4697(5)
C25F C 0.8081(3) 0.2703(2) 0.5829(6)
H17F H 0.8479 0.2839 0.6402
C26F C 0.7609(3) 0.2312(2) 0.3906(5)
H18F H 0.7675 0.2178 0.3160
O1F O 0.90392(19) 0.23524(18) 0.3464(3)
O2F O 0.9473(3) 0.2708(3) 0.5275(8)
Cd1_2 Cd 0.5000 0.261062(12) -1.2500
Cd1B Cd 0.0000 -0.238938(12) -0.2500
Cd1B_2 Cd 1.0000 -0.238938(12) -0.2500
Cd1F Cd 1.0000 0.238938(12) 0.2500
N1A_2 N 0.58536(17) 0.20876(11) 0.8824(3)
N4B N 0.55688(17) 0.32466(11) 0.8867(3)
N4C N 0.44312(17) 0.32466(11) 0.6133(3)
O1A O 0.40392(19) 0.26476(18) 0.8464(3)
loop_
_geom_bond_atom_site_label_1
_geom_bond_atom_site_label_2
_geom_bond_site_symmetry_1
_geom_bond_site_symmetry_2
Cd1 N1 1_555 1_555
C1 H1 1_555 1_555
C2 H2 1_555 1_555
C3 H3 1_555 1_555
C4 H4 1_555 1_555
C5 C6 1_555 1_555
C6 H5 1_555 1_555
C7 C6 1_555 1_555
H6 C7 1_555 1_555
C8 C7 1_555 1_555
C9 C8 1_555 1_555
H7 C9 1_555 1_555
C10 C5 1_555 1_555
H8 C10 1_555 1_555
C11 C12 1_555 1_555
C12 H9 1_555 1_555
C13 C12 1_555 1_555
H10 C13 1_555 1_555
C14 C13 1_555 1_555
C15 C14 1_555 1_555
H11 C15 1_555 1_555
C16 C11 1_555 1_555
H12 C16 1_555 1_555
C17 C18 1_555 1_555
C18 H13 1_555 1_555
C19 C18 1_555 1_555
H14 C19 1_555 1_555
C20 C19 1_555 1_555
C21 C20 1_555 1_555
H15 C21 1_555 1_555
C22 C17 1_555 1_555
H16 C22 1_555 1_555
C23 C24 1_555 1_555
C24 C25 1_555 1_555
C25 H17 1_555 1_555
C26 C24 1_555 1_555
H18 C26 1_555 1_555
N1 C1 1_555 1_555
N2 C1 1_555 1_555
N3 C2 1_555 1_555
N4 C3 1_555 1_555
N5 C4 1_555 1_555
N6 C3 1_555 1_555
N7 C8 1_555 1_555
O1 Cd1 1_555 1_555
O2 C23 1_555 1_555
C1A H1A 1_555 1_555
C2A H2A 1_555 1_555
C3A H3A 1_555 1_555
C4A H4A 1_555 1_555
C5A C6A 1_555 1_555
C6A H5A 1_555 1_555
C7A C6A 1_555 1_555
H6A C7A 1_555 1_555
C8A C7A 1_555 1_555
C9A C8A 1_555 1_555
H7A C9A 1_555 1_555
C10A C5A 1_555 1_555
H8A C10A 1_555 1_555
C11A C12A 1_555 1_555
C12A H9A 1_555 1_555
C13A C12A 1_555 1_555
H10A C13A 1_555 1_555
C14A C13A 1_555 1_555
C15A C14A 1_555 1_555
H11A C15A 1_555 1_555
C16A C11A 1_555 1_555
H12A C16A 1_555 1_555
C17A C18A 1_555 1_555
C18A H13A 1_555 1_555
C19A C18A 1_555 1_555
H14A C19A 1_555 1_555
C20A C20 1_555 1_555
C21A C20A 1_555 1_555
H15A C21A 1_555 1_555
C22A C17A 1_555 1_555
H16A C22A 1_555 1_555
N1A C1A 1_555 1_555
N2A C1A 1_555 1_555
N3A C2A 1_555 1_555
N4A C3A 1_555 1_555
N5A C4A 1_555 1_555
N6A C3A 1_555 1_555
N7A C8A 1_555 1_555
C23F C24F 1_555 1_555
C24F C25F 1_555 1_555
C25F C26 1_555 1_555
H17F C25F 1_555 1_555
C26F C25 1_555 1_555
H18F C26F 1_555 1_555
O1F C23F 1_555 1_555
O2F C23F 1_555 1_555
Cd1_2 N1A 1_555 1_555
Cd1B N4 1_555 1_555
Cd1B_2 N4A 1_555 1_555
Cd1F O1F 1_555 1_555
N1A_2 Cd1 1_555 1_555
N4B Cd1 1_555 1_555
N4C Cd1 1_555 1_555
O1A Cd1 1_555 1_555
C2 N1 1_555 1_555
C4 N4 1_555 1_555
C5 N2 1_555 1_555
C9 C10 1_555 1_555
C11 N5 1_555 1_555
C14 N7 1_555 1_555
C15 C16 1_555 1_555
C17 N7 1_555 1_555
C21 C22 1_555 1_555
C23 O1 1_555 1_555
N2 N3 1_555 1_555
N5 N6 1_555 1_555
C2A N1A 1_555 1_555
C4A N4A 1_555 1_555
C5A N2A 1_555 1_555
C9A C10A 1_555 1_555
C11A N5A 1_555 1_555
C14A N7A 1_555 1_555
C15A C16A 1_555 1_555
C17A N7A 1_555 1_555
C19A C20A 1_555 1_555
C21A C22A 1_555 1_555
N2A N3A 1_555 1_555
N5A N6A 1_555 1_555
C24F C26F 1_555 1_555

#END
