
#######################################################################
#
#                 Cambridge Crystallographic Data Centre
#                                CCDC 
#
#######################################################################
#
# If this CIF has been generated from an entry in the Cambridge 
# Structural Database, then it will include bibliographic, chemical, 
# crystal, experimental, refinement or atomic coordinate data resulting 
# from the CCDC's data processing and validation procedures.
#
#######################################################################

data_KOLTUC
_chemical_formula_moiety         '(C12 H28 Cd2 O23 Tm1)n'
_symmetry_cell_setting           cubic
_symmetry_space_group_name_H-M   'F d -3 c'
_symmetry_Int_Tables_number      228
_space_group_name_Hall           '-F 4ud 2vw 3'
loop_
_symmetry_equiv_pos_site_id
_symmetry_equiv_pos_as_xyz
1 x,y,z
2 -y,1/4+x,3/4+z
3 3/4-x,1/4-y,1/2+z
4 3/4+y,-x,1/4+z
5 x,1/4-y,1/4-z
6 3/4+y,1/4+x,-z
7 3/4-x,y,3/4-z
8 -y,-x,1/2-z
9 z,x,y
10 -x,1/4+z,3/4+y
11 3/4-z,1/4-x,1/2+y
12 3/4+x,-z,1/4+y
13 z,1/4-x,1/4-y
14 3/4+x,1/4+z,-y
15 3/4-z,x,3/4-y
16 -x,-z,1/2-y
17 y,z,x
18 1/2-z,-y,-x
19 -z,3/4+y,1/4+x
20 1/4+z,3/4+y,-x
21 3/4+z,-y,1/4+x
22 y,3/4-z,3/4-x
23 1/4-y,1/4-z,x
24 1/4-y,1/2+z,3/4-x
25 x,1/2+y,1/2+z
26 -y,3/4+x,1/4+z
27 3/4-x,3/4-y,z
28 3/4+y,1/2-x,3/4+z
29 x,3/4-y,3/4-z
30 3/4+y,3/4+x,1/2-z
31 3/4-x,1/2+y,1/4-z
32 -y,1/2-x,-z
33 z,1/2+x,1/2+y
34 -x,3/4+z,1/4+y
35 3/4-z,3/4-x,y
36 3/4+x,1/2-z,3/4+y
37 z,3/4-x,3/4-y
38 3/4+x,3/4+z,1/2-y
39 3/4-z,1/2+x,1/4-y
40 -x,1/2-z,-y
41 y,1/2+z,1/2+x
42 1/2-z,1/2-y,1/2-x
43 -z,1/4+y,3/4+x
44 1/4+z,1/4+y,1/2-x
45 3/4+z,1/2-y,3/4+x
46 y,1/4-z,1/4-x
47 1/4-y,3/4-z,1/2+x
48 1/4-y,z,1/4-x
49 1/2+x,y,1/2+z
50 1/2-y,1/4+x,1/4+z
51 1/4-x,1/4-y,z
52 1/4+y,-x,3/4+z
53 1/2+x,1/4-y,3/4-z
54 1/4+y,1/4+x,1/2-z
55 1/4-x,y,1/4-z
56 1/2-y,-x,-z
57 1/2+z,x,1/2+y
58 1/2-x,1/4+z,1/4+y
59 1/4-z,1/4-x,y
60 1/4+x,-z,3/4+y
61 1/2+z,1/4-x,3/4-y
62 1/4+x,1/4+z,1/2-y
63 1/4-z,x,1/4-y
64 1/2-x,-z,-y
65 1/2+y,z,1/2+x
66 -z,-y,1/2-x
67 1/2-z,3/4+y,3/4+x
68 3/4+z,3/4+y,1/2-x
69 1/4+z,-y,3/4+x
70 1/2+y,3/4-z,1/4-x
71 3/4-y,1/4-z,1/2+x
72 3/4-y,1/2+z,1/4-x
73 1/2+x,1/2+y,z
74 1/2-y,3/4+x,3/4+z
75 1/4-x,3/4-y,1/2+z
76 1/4+y,1/2-x,1/4+z
77 1/2+x,3/4-y,1/4-z
78 1/4+y,3/4+x,-z
79 1/4-x,1/2+y,3/4-z
80 1/2-y,1/2-x,1/2-z
81 1/2+z,1/2+x,y
82 1/2-x,3/4+z,3/4+y
83 1/4-z,3/4-x,1/2+y
84 1/4+x,1/2-z,1/4+y
85 1/2+z,3/4-x,1/4-y
86 1/4+x,3/4+z,-y
87 1/4-z,1/2+x,3/4-y
88 1/2-x,1/2-z,1/2-y
89 1/2+y,1/2+z,x
90 -z,1/2-y,-x
91 1/2-z,1/4+y,1/4+x
92 3/4+z,1/4+y,-x
93 1/4+z,1/2-y,1/4+x
94 1/2+y,1/4-z,3/4-x
95 3/4-y,3/4-z,x
96 3/4-y,z,3/4-x
97 -x,-y,-z
98 y,3/4-x,1/4-z
99 1/4+x,3/4+y,1/2-z
100 1/4-y,x,3/4-z
101 -x,3/4+y,3/4+z
102 1/4-y,3/4-x,z
103 1/4+x,-y,1/4+z
104 y,x,1/2+z
105 -z,-x,-y
106 x,3/4-z,1/4-y
107 1/4+z,3/4+x,1/2-y
108 1/4-x,z,3/4-y
109 -z,3/4+x,3/4+y
110 1/4-x,3/4-z,y
111 1/4+z,-x,1/4+y
112 x,z,1/2+y
113 -y,-z,-x
114 1/2+z,y,x
115 z,1/4-y,3/4-x
116 3/4-z,1/4-y,x
117 1/4-z,y,3/4-x
118 -y,1/4+z,1/4+x
119 3/4+y,3/4+z,-x
120 3/4+y,1/2-z,1/4+x
121 -x,1/2-y,1/2-z
122 y,1/4-x,3/4-z
123 1/4+x,1/4+y,-z
124 1/4-y,1/2+x,1/4-z
125 -x,1/4+y,1/4+z
126 1/4-y,1/4-x,1/2+z
127 1/4+x,1/2-y,3/4+z
128 y,1/2+x,z
129 -z,1/2-x,1/2-y
130 x,1/4-z,3/4-y
131 1/4+z,1/4+x,-y
132 1/4-x,1/2+z,1/4-y
133 -z,1/4+x,1/4+y
134 1/4-x,1/4-z,1/2+y
135 1/4+z,1/2-x,3/4+y
136 x,1/2+z,y
137 -y,1/2-z,1/2-x
138 1/2+z,1/2+y,1/2+x
139 z,3/4-y,1/4-x
140 3/4-z,3/4-y,1/2+x
141 1/4-z,1/2+y,1/4-x
142 -y,3/4+z,3/4+x
143 3/4+y,1/4+z,1/2-x
144 3/4+y,-z,3/4+x
145 1/2-x,-y,1/2-z
146 1/2+y,3/4-x,3/4-z
147 3/4+x,3/4+y,-z
148 3/4-y,x,1/4-z
149 1/2-x,3/4+y,1/4+z
150 3/4-y,3/4-x,1/2+z
151 3/4+x,-y,3/4+z
152 1/2+y,x,z
153 1/2-z,-x,1/2-y
154 1/2+x,3/4-z,3/4-y
155 3/4+z,3/4+x,-y
156 3/4-x,z,1/4-y
157 1/2-z,3/4+x,1/4+y
158 3/4-x,3/4-z,1/2+y
159 3/4+z,-x,3/4+y
160 1/2+x,z,y
161 1/2-y,-z,1/2-x
162 z,y,1/2+x
163 1/2+z,1/4-y,1/4-x
164 1/4-z,1/4-y,1/2+x
165 3/4-z,y,1/4-x
166 1/2-y,1/4+z,3/4+x
167 1/4+y,3/4+z,1/2-x
168 1/4+y,1/2-z,3/4+x
169 1/2-x,1/2-y,-z
170 1/2+y,1/4-x,1/4-z
171 3/4+x,1/4+y,1/2-z
172 3/4-y,1/2+x,3/4-z
173 1/2-x,1/4+y,3/4+z
174 3/4-y,1/4-x,z
175 3/4+x,1/2-y,1/4+z
176 1/2+y,1/2+x,1/2+z
177 1/2-z,1/2-x,-y
178 1/2+x,1/4-z,1/4-y
179 3/4+z,1/4+x,1/2-y
180 3/4-x,1/2+z,3/4-y
181 1/2-z,1/4+x,3/4+y
182 3/4-x,1/4-z,y
183 3/4+z,1/2-x,1/4+y
184 1/2+x,1/2+z,1/2+y
185 1/2-y,1/2-z,-x
186 z,1/2+y,x
187 1/2+z,3/4-y,3/4-x
188 1/4-z,3/4-y,x
189 3/4-z,1/2+y,3/4-x
190 1/2-y,3/4+z,1/4+x
191 1/4+y,1/4+z,-x
192 1/4+y,-z,1/4+x
_cell_length_a                   26.124(3)
_cell_length_b                   26.124(3)
_cell_length_c                   26.124(3)
_cell_angle_alpha                90
_cell_angle_beta                 90
_cell_angle_gamma                90
_cell_volume                     17828.7
loop_
_atom_site_label
_atom_site_type_symbol
_atom_site_fract_x
_atom_site_fract_y
_atom_site_fract_z
_atom_site_U_iso_or_equiv
_atom_site_thermal_displace_type
Tm1 Tm 0.0000 0.2500 1.0000 0.0290 Uani
Cd1 Cd 0.0000 0.5000 1.0000 0.0264 Uani
C1 C 0.0033(5) 0.3675(4) 1.0536(5) 0.0653 Uani
H1 H 0.0323 0.3826 1.0712 0.0780 Uiso
H2 H -0.0275 0.3849 1.0648 0.0780 Uiso
C2 C 0.0096(6) 0.3733(4) 0.9973(5) 0.0550 Uani
O1 O 0.0000 0.3154(3) 1.0654(3) 0.0530 Uani
O2 O 0.0144(3) 0.4173(3) 0.9769(3) 0.0637 Uani
O3 O 0.0089(3) 0.3338(3) 0.9699(3) 0.0593 Uani
C1I C -0.0033(5) 0.3036(5) 1.1175(4) 0.0653 Uani
H1I H -0.0323 0.3212 1.1326 0.0780 Uiso
H2I H 0.0275 0.3148 1.1349 0.0780 Uiso
C2I C -0.0096(6) 0.2473(5) 1.1233(4) 0.0550 Uani
O2I O -0.0144(3) 0.2269(3) 1.1673(3) 0.0637 Uani
O3I O -0.0089(3) 0.2199(3) 1.0838(3) 0.0593 Uani
C1E C 0.1175(4) 0.2533(5) 0.9464(5) 0.0653 Uani
H1E H 0.1326 0.2823 0.9288 0.0780 Uiso
H2E H 0.1349 0.2225 0.9352 0.0780 Uiso
C2E C 0.1233(4) 0.2596(6) 1.0027(5) 0.0550 Uani
O1E O 0.0654(3) 0.2500 0.9346(3) 0.0530 Uani
O2E O 0.1673(3) 0.2644(3) 1.0231(3) 0.0637 Uani
O3E O 0.0838(3) 0.2589(3) 1.0301(3) 0.0593 Uani
C1L C 0.0536(5) 0.2467(5) 0.8825(4) 0.0653 Uani
H1L H 0.0712 0.2177 0.8674 0.0780 Uiso
H2L H 0.0648 0.2775 0.8651 0.0780 Uiso
C2L C -0.0027(5) 0.2404(6) 0.8767(4) 0.0550 Uani
O2L O -0.0231(3) 0.2356(3) 0.8327(3) 0.0637 Uani
O3L O -0.0301(3) 0.2411(3) 0.9162(3) 0.0593 Uani
C1V C -0.1175(4) 0.1964(5) 1.0033(5) 0.0653 Uani
H1V H -0.1326 0.1788 1.0323 0.0780 Uiso
H2V H -0.1349 0.1852 0.9725 0.0780 Uiso
C2V C -0.1233(4) 0.2527(5) 1.0096(6) 0.0550 Uani
O1V O -0.0654(3) 0.1846(3) 1.0000 0.0530 Uani
O2V O -0.1673(3) 0.2731(3) 1.0144(3) 0.0637 Uani
O3V O -0.0838(3) 0.2801(3) 1.0089(3) 0.0593 Uani
C1KC C -0.0536(5) 0.1325(4) 0.9967(5) 0.0653 Uani
H1KC H -0.0712 0.1174 0.9677 0.0780 Uiso
H2KC H -0.0648 0.1151 1.0275 0.0780 Uiso
C2KC C 0.0027(5) 0.1267(4) 0.9904(6) 0.0550 Uani
O2KC O 0.0231(3) 0.0827(3) 0.9856(3) 0.0637 Uani
O3KC O 0.0301(3) 0.1662(3) 0.9911(3) 0.0593 Uani
Cd1E Cd 0.2500 0.2500 1.0000 0.0264 Uani
Cd1I Cd 0.0000 0.2500 1.2500 0.0264 Uani
Cd1J Cd -0.2500 0.2500 1.0000 0.0264 Uani
Cd1L Cd 0.0000 0.2500 0.7500 0.0264 Uani
Cd1O Cd 0.0000 0.0000 1.0000 0.0264 Uani
O2FA O -0.0231(3) 0.5144(3) 0.9173(3) 0.0637 Uani
O2JC O -0.0827(3) 0.4769(3) 1.0144(3) 0.0637 Uani
O2RC O -0.0144(3) 0.5827(3) 1.0231(3) 0.0637 Uani
O2XD O 0.0231(3) 0.4856(3) 1.0827(3) 0.0637 Uani
O2BG O 0.0827(3) 0.5231(3) 0.9856(3) 0.0637 Uani
Cd2 Cd 0.1250 0.1250 0.1250 0.0729 Uani
O4 O 0.0390(7) 0.1250 0.1250 0.0990 Uani
H3 H 0.027(7) 0.103(6) 0.104(7) 0.1100 Uiso
H3D H 0.027(7) 0.147(6) 0.146(7) 0.1100 Uiso
O4H O 0.1250 0.0390(7) 0.1250 0.0990 Uani
H3H H 0.104(7) 0.027(7) 0.103(6) 0.1100 Uiso
H3JB H 0.146(7) 0.027(7) 0.147(6) 0.1100 Uiso
O4L O 0.1250 0.2110(7) 0.1250 0.0990 Uani
H3L H 0.104(7) 0.223(7) 0.147(6) 0.1100 Uiso
H3FB H 0.146(7) 0.223(7) 0.103(6) 0.1100 Uiso
O4P O 0.1250 0.1250 0.0390(7) 0.0990 Uani
H3P H 0.103(6) 0.104(7) 0.027(7) 0.1100 Uiso
H3V H 0.147(6) 0.146(7) 0.027(7) 0.1100 Uiso
O4SA O 0.1250 0.1250 0.2110(7) 0.0990 Uani
H3SA H 0.103(6) 0.146(7) 0.223(7) 0.1100 Uiso
H3UA H 0.147(6) 0.104(7) 0.223(7) 0.1100 Uiso
O4XA O 0.2110(7) 0.1250 0.1250 0.0990 Uani
H3XA H 0.223(7) 0.147(6) 0.104(7) 0.1100 Uiso
H3BB H 0.223(7) 0.103(6) 0.146(7) 0.1100 Uiso
O5 O 0.922(2) 0.1250 0.1250 0.3467 Uani
H4 H 0.908(5) 0.154(3) 0.124(5) 0.0500 Uiso
H4D H 0.908(5) 0.096(3) 0.126(5) 0.0500 Uiso
O6 O 0.079(10) 0.329(10) 1.0000 2.0000 Uani
loop_
_atom_site_aniso_label
_atom_site_aniso_U_11
_atom_site_aniso_U_22
_atom_site_aniso_U_33
_atom_site_aniso_U_23
_atom_site_aniso_U_13
_atom_site_aniso_U_12
Tm1 0.0290(4) 0.0290(4) 0.0290(4) -0.00916(18) 0.00916(18) -0.00916(18)
Cd1 0.0264(5) 0.0264(5) 0.0264(5) -0.0037(2) -0.0037(2) -0.0037(2)
C1 0.087(9) 0.050(6) 0.059(7) -0.015(5) 0.011(6) -0.008(5)
C2 0.044(6) 0.051(9) 0.070(9) -0.012(5) -0.002(5) -0.010(4)
O1 0.069(7) 0.045(3) 0.045(3) -0.009(4) 0.007(3) -0.007(3)
O2 0.069(5) 0.058(5) 0.064(5) -0.008(4) 0.002(4) -0.007(4)
O3 0.071(5) 0.052(5) 0.055(5) -0.006(3) 0.011(4) -0.013(4)
C1I 0.087 0.059 0.05 -0.015 0.008 -0.011
C2I 0.044 0.07 0.051 -0.012 0.01 0.002
O2I 0.069 0.064 0.058 -0.008 0.007 -0.002
O3I 0.071 0.055 0.052 -0.006 0.013 -0.011
C1E 0.05 0.087 0.059 -0.011 0.015 -0.008
C2E 0.051 0.044 0.07 0.002 0.012 -0.01
O1E 0.045 0.069 0.045 -0.007 0.009 -0.007
O2E 0.058 0.069 0.064 -0.002 0.008 -0.007
O3E 0.052 0.071 0.055 -0.011 0.006 -0.013
C1L 0.059 0.087 0.05 -0.008 0.015 -0.011
C2L 0.07 0.044 0.051 -0.01 0.012 0.002
O2L 0.064 0.069 0.058 -0.007 0.008 -0.002
O3L 0.055 0.071 0.052 -0.013 0.006 -0.011
C1V 0.05 0.059 0.087 -0.011 0.008 -0.015
C2V 0.051 0.07 0.044 0.002 0.01 -0.012
O1V 0.045 0.045 0.069 -0.007 0.007 -0.009
O2V 0.058 0.064 0.069 -0.002 0.007 -0.008
O3V 0.052 0.055 0.071 -0.011 0.013 -0.006
C1KC 0.059 0.05 0.087 -0.008 0.011 -0.015
C2KC 0.07 0.051 0.044 -0.01 -0.002 -0.012
O2KC 0.064 0.058 0.069 -0.007 0.002 -0.008
O3KC 0.055 0.052 0.071 -0.013 0.011 -0.006
Cd1E 0.0264 0.0264 0.0264 0.0037 0.0037 -0.0037
Cd1I 0.0264 0.0264 0.0264 -0.0037 0.0037 0.0037
Cd1J 0.0264 0.0264 0.0264 0.0037 0.0037 -0.0037
Cd1L 0.0264 0.0264 0.0264 -0.0037 0.0037 0.0037
Cd1O 0.0264 0.0264 0.0264 -0.0037 -0.0037 -0.0037
O2FA 0.064 0.069 0.058 -0.007 -0.008 0.002
O2JC 0.058 0.064 0.069 0.002 -0.007 -0.008
O2RC 0.069 0.058 0.064 -0.008 0.002 -0.007
O2XD 0.064 0.069 0.058 -0.007 -0.008 0.002
O2BG 0.058 0.064 0.069 0.002 -0.007 -0.008
Cd2 0.0729(11) 0.0729(11) 0.0729(11) 0.000 0.000 0.000
O4 0.072(10) 0.065(10) 0.16(2) -0.001(11) 0.000 0.000
O4H 0.16 0.072 0.065 0 -0.001 0
O4L 0.16 0.072 0.065 0 0.001 0
O4P 0.065 0.16 0.072 0 0 -0.001
O4SA 0.065 0.16 0.072 0 0 0.001
O4XA 0.072 0.065 0.16 0.001 0 0
O5 0.36(8) 0.10(2) 0.58(11) 0.03(3) 0.000 0.000
O6 2.0(7) 2.0(7) 2.0(14) -0.4(7) 0.4(7) -0.4(8)
loop_
_geom_bond_atom_site_label_1
_geom_bond_atom_site_label_2
_geom_bond_site_symmetry_1
_geom_bond_site_symmetry_2
Tm1 O1 1_555 1_555
Cd1 O2 1_555 1_555
C1 H1 1_555 1_555
H2 C1 1_555 1_555
C2 C1 1_555 1_555
O1 C1 1_555 1_555
O2 C2 1_555 1_555
O3 Tm1 1_555 1_555
Cd2 O4 1_555 1_555
O4 H3 1_555 1_555
O5 H4 1_555 1_555
C1I O1 1_555 1_555
H1I C1I 1_555 1_555
H2I C1I 1_555 1_555
C2I C1I 1_555 1_555
O2I C2I 1_555 1_555
O3I Tm1 1_555 1_555
C1E H1E 1_555 1_555
H2E C1E 1_555 1_555
C2E C1E 1_555 1_555
O1E Tm1 1_555 1_555
O2E C2E 1_555 1_555
O3E Tm1 1_555 1_555
C1L O1E 1_555 1_555
H1L C1L 1_555 1_555
H2L C1L 1_555 1_555
C2L C1L 1_555 1_555
O2L C2L 1_555 1_555
O3L Tm1 1_555 1_555
C1V H1V 1_555 1_555
H2V C1V 1_555 1_555
C2V C1V 1_555 1_555
O1V Tm1 1_555 1_555
O2V C2V 1_555 1_555
O3V Tm1 1_555 1_555
C1KC O1V 1_555 1_555
H1KC C1KC 1_555 1_555
H2KC C1KC 1_555 1_555
C2KC C1KC 1_555 1_555
O2KC C2KC 1_555 1_555
O3KC Tm1 1_555 1_555
Cd1E O2E 1_555 1_555
Cd1I O2I 1_555 1_555
Cd1J O2V 1_555 1_555
Cd1L O2L 1_555 1_555
Cd1O O2KC 1_555 1_555
O2FA Cd1 1_555 1_555
O2JC Cd1 1_555 1_555
O2RC Cd1 1_555 1_555
O2XD Cd1 1_555 1_555
O2BG Cd1 1_555 1_555
H3D O4 1_555 1_555
O4H Cd2 1_555 1_555
H3H O4H 1_555 1_555
H3JB O4H 1_555 1_555
O4L Cd2 1_555 1_555
H3L O4L 1_555 1_555
H3FB O4L 1_555 1_555
O4P Cd2 1_555 1_555
H3P O4P 1_555 1_555
H3V O4P 1_555 1_555
O4SA Cd2 1_555 1_555
H3SA O4SA 1_555 1_555
H3UA O4SA 1_555 1_555
O4XA Cd2 1_555 1_555
H3XA O4XA 1_555 1_555
H3BB O4XA 1_555 1_555
H4D O5 1_555 1_555
C2 O3 1_555 1_555
C2I O3I 1_555 1_555
C1E O1E 1_555 1_555
C2E O3E 1_555 1_555
C2L O3L 1_555 1_555
C1V O1V 1_555 1_555
C2V O3V 1_555 1_555
C2KC O3KC 1_555 1_555

#END
