
#######################################################################
#
#                 Cambridge Crystallographic Data Centre
#                                CCDC 
#
#######################################################################
#
# If this CIF has been generated from an entry in the Cambridge 
# Structural Database, then it will include bibliographic, chemical, 
# crystal, experimental, refinement or atomic coordinate data resulting 
# from the CCDC's data processing and validation procedures.
#
#######################################################################

data_KOMJED
_chemical_formula_moiety         '(C12 H28 Cd2 Dy1 O23)n'
_symmetry_cell_setting           cubic
_symmetry_space_group_name_H-M   'F d -3 c'
_symmetry_Int_Tables_number      228
_space_group_name_Hall           '-F 4ud 2vw 3'
loop_
_symmetry_equiv_pos_site_id
_symmetry_equiv_pos_as_xyz
1 x,y,z
2 -y,1/4+x,3/4+z
3 3/4-x,1/4-y,1/2+z
4 3/4+y,-x,1/4+z
5 x,1/4-y,1/4-z
6 3/4+y,1/4+x,-z
7 3/4-x,y,3/4-z
8 -y,-x,1/2-z
9 z,x,y
10 -x,1/4+z,3/4+y
11 3/4-z,1/4-x,1/2+y
12 3/4+x,-z,1/4+y
13 z,1/4-x,1/4-y
14 3/4+x,1/4+z,-y
15 3/4-z,x,3/4-y
16 -x,-z,1/2-y
17 y,z,x
18 1/2-z,-y,-x
19 -z,3/4+y,1/4+x
20 1/4+z,3/4+y,-x
21 3/4+z,-y,1/4+x
22 y,3/4-z,3/4-x
23 1/4-y,1/4-z,x
24 1/4-y,1/2+z,3/4-x
25 x,1/2+y,1/2+z
26 -y,3/4+x,1/4+z
27 3/4-x,3/4-y,z
28 3/4+y,1/2-x,3/4+z
29 x,3/4-y,3/4-z
30 3/4+y,3/4+x,1/2-z
31 3/4-x,1/2+y,1/4-z
32 -y,1/2-x,-z
33 z,1/2+x,1/2+y
34 -x,3/4+z,1/4+y
35 3/4-z,3/4-x,y
36 3/4+x,1/2-z,3/4+y
37 z,3/4-x,3/4-y
38 3/4+x,3/4+z,1/2-y
39 3/4-z,1/2+x,1/4-y
40 -x,1/2-z,-y
41 y,1/2+z,1/2+x
42 1/2-z,1/2-y,1/2-x
43 -z,1/4+y,3/4+x
44 1/4+z,1/4+y,1/2-x
45 3/4+z,1/2-y,3/4+x
46 y,1/4-z,1/4-x
47 1/4-y,3/4-z,1/2+x
48 1/4-y,z,1/4-x
49 1/2+x,y,1/2+z
50 1/2-y,1/4+x,1/4+z
51 1/4-x,1/4-y,z
52 1/4+y,-x,3/4+z
53 1/2+x,1/4-y,3/4-z
54 1/4+y,1/4+x,1/2-z
55 1/4-x,y,1/4-z
56 1/2-y,-x,-z
57 1/2+z,x,1/2+y
58 1/2-x,1/4+z,1/4+y
59 1/4-z,1/4-x,y
60 1/4+x,-z,3/4+y
61 1/2+z,1/4-x,3/4-y
62 1/4+x,1/4+z,1/2-y
63 1/4-z,x,1/4-y
64 1/2-x,-z,-y
65 1/2+y,z,1/2+x
66 -z,-y,1/2-x
67 1/2-z,3/4+y,3/4+x
68 3/4+z,3/4+y,1/2-x
69 1/4+z,-y,3/4+x
70 1/2+y,3/4-z,1/4-x
71 3/4-y,1/4-z,1/2+x
72 3/4-y,1/2+z,1/4-x
73 1/2+x,1/2+y,z
74 1/2-y,3/4+x,3/4+z
75 1/4-x,3/4-y,1/2+z
76 1/4+y,1/2-x,1/4+z
77 1/2+x,3/4-y,1/4-z
78 1/4+y,3/4+x,-z
79 1/4-x,1/2+y,3/4-z
80 1/2-y,1/2-x,1/2-z
81 1/2+z,1/2+x,y
82 1/2-x,3/4+z,3/4+y
83 1/4-z,3/4-x,1/2+y
84 1/4+x,1/2-z,1/4+y
85 1/2+z,3/4-x,1/4-y
86 1/4+x,3/4+z,-y
87 1/4-z,1/2+x,3/4-y
88 1/2-x,1/2-z,1/2-y
89 1/2+y,1/2+z,x
90 -z,1/2-y,-x
91 1/2-z,1/4+y,1/4+x
92 3/4+z,1/4+y,-x
93 1/4+z,1/2-y,1/4+x
94 1/2+y,1/4-z,3/4-x
95 3/4-y,3/4-z,x
96 3/4-y,z,3/4-x
97 -x,-y,-z
98 y,3/4-x,1/4-z
99 1/4+x,3/4+y,1/2-z
100 1/4-y,x,3/4-z
101 -x,3/4+y,3/4+z
102 1/4-y,3/4-x,z
103 1/4+x,-y,1/4+z
104 y,x,1/2+z
105 -z,-x,-y
106 x,3/4-z,1/4-y
107 1/4+z,3/4+x,1/2-y
108 1/4-x,z,3/4-y
109 -z,3/4+x,3/4+y
110 1/4-x,3/4-z,y
111 1/4+z,-x,1/4+y
112 x,z,1/2+y
113 -y,-z,-x
114 1/2+z,y,x
115 z,1/4-y,3/4-x
116 3/4-z,1/4-y,x
117 1/4-z,y,3/4-x
118 -y,1/4+z,1/4+x
119 3/4+y,3/4+z,-x
120 3/4+y,1/2-z,1/4+x
121 -x,1/2-y,1/2-z
122 y,1/4-x,3/4-z
123 1/4+x,1/4+y,-z
124 1/4-y,1/2+x,1/4-z
125 -x,1/4+y,1/4+z
126 1/4-y,1/4-x,1/2+z
127 1/4+x,1/2-y,3/4+z
128 y,1/2+x,z
129 -z,1/2-x,1/2-y
130 x,1/4-z,3/4-y
131 1/4+z,1/4+x,-y
132 1/4-x,1/2+z,1/4-y
133 -z,1/4+x,1/4+y
134 1/4-x,1/4-z,1/2+y
135 1/4+z,1/2-x,3/4+y
136 x,1/2+z,y
137 -y,1/2-z,1/2-x
138 1/2+z,1/2+y,1/2+x
139 z,3/4-y,1/4-x
140 3/4-z,3/4-y,1/2+x
141 1/4-z,1/2+y,1/4-x
142 -y,3/4+z,3/4+x
143 3/4+y,1/4+z,1/2-x
144 3/4+y,-z,3/4+x
145 1/2-x,-y,1/2-z
146 1/2+y,3/4-x,3/4-z
147 3/4+x,3/4+y,-z
148 3/4-y,x,1/4-z
149 1/2-x,3/4+y,1/4+z
150 3/4-y,3/4-x,1/2+z
151 3/4+x,-y,3/4+z
152 1/2+y,x,z
153 1/2-z,-x,1/2-y
154 1/2+x,3/4-z,3/4-y
155 3/4+z,3/4+x,-y
156 3/4-x,z,1/4-y
157 1/2-z,3/4+x,1/4+y
158 3/4-x,3/4-z,1/2+y
159 3/4+z,-x,3/4+y
160 1/2+x,z,y
161 1/2-y,-z,1/2-x
162 z,y,1/2+x
163 1/2+z,1/4-y,1/4-x
164 1/4-z,1/4-y,1/2+x
165 3/4-z,y,1/4-x
166 1/2-y,1/4+z,3/4+x
167 1/4+y,3/4+z,1/2-x
168 1/4+y,1/2-z,3/4+x
169 1/2-x,1/2-y,-z
170 1/2+y,1/4-x,1/4-z
171 3/4+x,1/4+y,1/2-z
172 3/4-y,1/2+x,3/4-z
173 1/2-x,1/4+y,3/4+z
174 3/4-y,1/4-x,z
175 3/4+x,1/2-y,1/4+z
176 1/2+y,1/2+x,1/2+z
177 1/2-z,1/2-x,-y
178 1/2+x,1/4-z,1/4-y
179 3/4+z,1/4+x,1/2-y
180 3/4-x,1/2+z,3/4-y
181 1/2-z,1/4+x,3/4+y
182 3/4-x,1/4-z,y
183 3/4+z,1/2-x,1/4+y
184 1/2+x,1/2+z,1/2+y
185 1/2-y,1/2-z,-x
186 z,1/2+y,x
187 1/2+z,3/4-y,3/4-x
188 1/4-z,3/4-y,x
189 3/4-z,1/2+y,3/4-x
190 1/2-y,3/4+z,1/4+x
191 1/4+y,1/4+z,-x
192 1/4+y,-z,1/4+x
_cell_length_a                   26.2522(13)
_cell_length_b                   26.2522(13)
_cell_length_c                   26.2522(13)
_cell_angle_alpha                90
_cell_angle_beta                 90
_cell_angle_gamma                90
_cell_volume                     18092.4
loop_
_atom_site_label
_atom_site_type_symbol
_atom_site_fract_x
_atom_site_fract_y
_atom_site_fract_z
H1 H 0.014(5) 0.132(9) 0.144(7)
Cd1 Cd 0.1250 0.1250 0.1250
O1 O 0.0393(9) 0.1250 0.1250
H1D H 0.014(5) 0.118(9) 0.106(7)
H1H H 0.144(7) 0.014(5) 0.132(9)
O1H O 0.1250 0.0393(9) 0.1250
H1JB H 0.106(7) 0.014(5) 0.118(9)
H1L H 0.144(7) 0.236(5) 0.118(9)
O1L O 0.1250 0.2107(9) 0.1250
H1FB H 0.106(7) 0.236(5) 0.132(9)
H1P H 0.132(9) 0.144(7) 0.014(5)
O1P O 0.1250 0.1250 0.0393(9)
H1V H 0.118(9) 0.106(7) 0.014(5)
H1SA H 0.132(9) 0.106(7) 0.236(5)
O1SA O 0.1250 0.1250 0.2107(9)
H1UA H 0.118(9) 0.144(7) 0.236(5)
H1XA H 0.236(5) 0.118(9) 0.144(7)
O1XA O 0.2107(9) 0.1250 0.1250
H1BB H 0.236(5) 0.132(9) 0.106(7)
Dy1 Dy 0.0000 0.0000 0.2500
Cd2 Cd 0.0000 0.0000 0.5000
O2 O 0.0000 0.0658(3) 0.3158(3)
O3 O 0.0089(3) -0.0297(4) 0.3349(3)
O4 O 0.0143(4) -0.0214(4) 0.4174(4)
C1 C 0.0035(6) 0.0546(6) 0.3672(5)
H2 H -0.0271 0.0659 0.3846
H3 H 0.0324 0.0722 0.3820
C2 C 0.0098(6) -0.0022(6) 0.3737(5)
O3GA O -0.0089(3) 0.0849(3) 0.2203(4)
O4GA O -0.0143(4) 0.1674(4) 0.2286(4)
C1GA C -0.0035(6) 0.1172(5) 0.3046(6)
H2GA H 0.0271 0.1346 0.3159
H3GA H -0.0324 0.1320 0.3222
C2GA C -0.0098(6) 0.1237(5) 0.2478(6)
O2G O -0.0658(3) 0.0000 0.1842(3)
O3G O 0.0297(4) -0.0089(3) 0.1651(3)
O4G O 0.0214(4) -0.0143(4) 0.0826(4)
C1G C -0.0546(6) -0.0035(6) 0.1328(5)
H2G H -0.0659 0.0271 0.1154
H3G H -0.0722 -0.0324 0.1180
C2G C 0.0022(6) -0.0098(6) 0.1263(5)
O3JB O -0.0849(3) 0.0089(3) 0.2797(4)
O4JB O -0.1674(4) 0.0143(4) 0.2714(4)
C1JB C -0.1172(5) 0.0035(6) 0.1954(6)
H2JB H -0.1346 -0.0271 0.1841
H3JB H -0.1320 0.0324 0.1778
C2JB C -0.1237(5) 0.0098(6) 0.2522(6)
O2T O 0.0658(3) -0.0658(3) 0.2500
O3T O 0.0849(3) 0.0297(4) 0.2589(3)
O4T O 0.1674(4) 0.0214(4) 0.2643(4)
C1T C 0.1172(5) -0.0546(6) 0.2535(6)
H2T H 0.1346 -0.0659 0.2229
H3T H 0.1320 -0.0722 0.2824
C2T C 0.1237(5) 0.0022(6) 0.2598(6)
O3SA O -0.0297(4) -0.0849(3) 0.2411(3)
O4SA O -0.0214(4) -0.1674(4) 0.2357(4)
C1SA C 0.0546(6) -0.1172(5) 0.2465(6)
H2SA H 0.0659 -0.1346 0.2771
H3SA H 0.0722 -0.1320 0.2176
C2SA C -0.0022(6) -0.1237(5) 0.2402(6)
Cd2A Cd 0.0000 0.2500 0.2500
Cd2F Cd -0.2500 0.0000 0.2500
Cd2G Cd 0.0000 0.0000 0.0000
Cd2T Cd 0.2500 0.0000 0.2500
Cd2BA Cd 0.0000 -0.2500 0.2500
O4NA O -0.0214(4) -0.0826(4) 0.5143(4)
O4DB O -0.0826(4) 0.0143(4) 0.4786(4)
O4RC O -0.0143(4) 0.0214(4) 0.5826(4)
O4FE O 0.0214(4) 0.0826(4) 0.4857(4)
O4VE O 0.0826(4) -0.0143(4) 0.5214(4)
O5 O 0.9083(7) 0.1250 0.1250
O5YE O 0.8417(7) 0.1250 0.1250
loop_
_geom_bond_atom_site_label_1
_geom_bond_atom_site_label_2
_geom_bond_site_symmetry_1
_geom_bond_site_symmetry_2
H1 O1 1_555 1_555
Cd1 O1 1_555 1_555
O1 H1D 1_555 1_555
Dy1 O2 1_555 1_555
Cd2 O4 1_555 1_555
O2 C1 1_555 1_555
O3 Dy1 1_555 1_555
O4 C2 1_555 1_555
C1 H2 1_555 1_555
H3 C1 1_555 1_555
C2 O3 1_555 1_555
H1H O1H 1_555 1_555
O1H Cd1 1_555 1_555
H1JB O1H 1_555 1_555
H1L O1L 1_555 1_555
O1L Cd1 1_555 1_555
H1FB O1L 1_555 1_555
H1P O1P 1_555 1_555
O1P Cd1 1_555 1_555
H1V O1P 1_555 1_555
H1SA O1SA 1_555 1_555
O1SA Cd1 1_555 1_555
H1UA O1SA 1_555 1_555
H1XA O1XA 1_555 1_555
O1XA Cd1 1_555 1_555
H1BB O1XA 1_555 1_555
O3GA Dy1 1_555 1_555
O4GA C2GA 1_555 1_555
C1GA O2 1_555 1_555
H2GA C1GA 1_555 1_555
H3GA C1GA 1_555 1_555
C2GA O3GA 1_555 1_555
O2G Dy1 1_555 1_555
O3G Dy1 1_555 1_555
O4G C2G 1_555 1_555
C1G O2G 1_555 1_555
H2G C1G 1_555 1_555
H3G C1G 1_555 1_555
C2G O3G 1_555 1_555
O3JB Dy1 1_555 1_555
O4JB C2JB 1_555 1_555
C1JB O2G 1_555 1_555
H2JB C1JB 1_555 1_555
H3JB C1JB 1_555 1_555
C2JB O3JB 1_555 1_555
O2T Dy1 1_555 1_555
O3T Dy1 1_555 1_555
O4T C2T 1_555 1_555
C1T O2T 1_555 1_555
H2T C1T 1_555 1_555
H3T C1T 1_555 1_555
C2T O3T 1_555 1_555
O3SA Dy1 1_555 1_555
O4SA C2SA 1_555 1_555
C1SA O2T 1_555 1_555
H2SA C1SA 1_555 1_555
H3SA C1SA 1_555 1_555
C2SA O3SA 1_555 1_555
Cd2A O4GA 1_555 1_555
Cd2F O4JB 1_555 1_555
Cd2G O4G 1_555 1_555
Cd2T O4T 1_555 1_555
Cd2BA O4SA 1_555 1_555
O4NA Cd2 1_555 1_555
O4DB Cd2 1_555 1_555
O4RC Cd2 1_555 1_555
O4FE Cd2 1_555 1_555
O4VE Cd2 1_555 1_555
C1 C2 1_555 1_555
C1GA C2GA 1_555 1_555
C1G C2G 1_555 1_555
C1JB C2JB 1_555 1_555
C1T C2T 1_555 1_555
C1SA C2SA 1_555 1_555

#END
