
#######################################################################
#
#                 Cambridge Crystallographic Data Centre
#                                CCDC 
#
#######################################################################
#
# If this CIF has been generated from an entry in the Cambridge 
# Structural Database, then it will include bibliographic, chemical, 
# crystal, experimental, refinement or atomic coordinate data resulting 
# from the CCDC's data processing and validation procedures.
#
#######################################################################

data_KOMJON
_chemical_formula_moiety         '(C12 H28 Cd2 Er1 O23)n'
_symmetry_cell_setting           cubic
_symmetry_space_group_name_H-M   'F d -3 c'
_symmetry_Int_Tables_number      228
_space_group_name_Hall           '-F 4ud 2vw 3'
loop_
_symmetry_equiv_pos_site_id
_symmetry_equiv_pos_as_xyz
1 x,y,z
2 -y,1/4+x,3/4+z
3 3/4-x,1/4-y,1/2+z
4 3/4+y,-x,1/4+z
5 x,1/4-y,1/4-z
6 3/4+y,1/4+x,-z
7 3/4-x,y,3/4-z
8 -y,-x,1/2-z
9 z,x,y
10 -x,1/4+z,3/4+y
11 3/4-z,1/4-x,1/2+y
12 3/4+x,-z,1/4+y
13 z,1/4-x,1/4-y
14 3/4+x,1/4+z,-y
15 3/4-z,x,3/4-y
16 -x,-z,1/2-y
17 y,z,x
18 1/2-z,-y,-x
19 -z,3/4+y,1/4+x
20 1/4+z,3/4+y,-x
21 3/4+z,-y,1/4+x
22 y,3/4-z,3/4-x
23 1/4-y,1/4-z,x
24 1/4-y,1/2+z,3/4-x
25 x,1/2+y,1/2+z
26 -y,3/4+x,1/4+z
27 3/4-x,3/4-y,z
28 3/4+y,1/2-x,3/4+z
29 x,3/4-y,3/4-z
30 3/4+y,3/4+x,1/2-z
31 3/4-x,1/2+y,1/4-z
32 -y,1/2-x,-z
33 z,1/2+x,1/2+y
34 -x,3/4+z,1/4+y
35 3/4-z,3/4-x,y
36 3/4+x,1/2-z,3/4+y
37 z,3/4-x,3/4-y
38 3/4+x,3/4+z,1/2-y
39 3/4-z,1/2+x,1/4-y
40 -x,1/2-z,-y
41 y,1/2+z,1/2+x
42 1/2-z,1/2-y,1/2-x
43 -z,1/4+y,3/4+x
44 1/4+z,1/4+y,1/2-x
45 3/4+z,1/2-y,3/4+x
46 y,1/4-z,1/4-x
47 1/4-y,3/4-z,1/2+x
48 1/4-y,z,1/4-x
49 1/2+x,y,1/2+z
50 1/2-y,1/4+x,1/4+z
51 1/4-x,1/4-y,z
52 1/4+y,-x,3/4+z
53 1/2+x,1/4-y,3/4-z
54 1/4+y,1/4+x,1/2-z
55 1/4-x,y,1/4-z
56 1/2-y,-x,-z
57 1/2+z,x,1/2+y
58 1/2-x,1/4+z,1/4+y
59 1/4-z,1/4-x,y
60 1/4+x,-z,3/4+y
61 1/2+z,1/4-x,3/4-y
62 1/4+x,1/4+z,1/2-y
63 1/4-z,x,1/4-y
64 1/2-x,-z,-y
65 1/2+y,z,1/2+x
66 -z,-y,1/2-x
67 1/2-z,3/4+y,3/4+x
68 3/4+z,3/4+y,1/2-x
69 1/4+z,-y,3/4+x
70 1/2+y,3/4-z,1/4-x
71 3/4-y,1/4-z,1/2+x
72 3/4-y,1/2+z,1/4-x
73 1/2+x,1/2+y,z
74 1/2-y,3/4+x,3/4+z
75 1/4-x,3/4-y,1/2+z
76 1/4+y,1/2-x,1/4+z
77 1/2+x,3/4-y,1/4-z
78 1/4+y,3/4+x,-z
79 1/4-x,1/2+y,3/4-z
80 1/2-y,1/2-x,1/2-z
81 1/2+z,1/2+x,y
82 1/2-x,3/4+z,3/4+y
83 1/4-z,3/4-x,1/2+y
84 1/4+x,1/2-z,1/4+y
85 1/2+z,3/4-x,1/4-y
86 1/4+x,3/4+z,-y
87 1/4-z,1/2+x,3/4-y
88 1/2-x,1/2-z,1/2-y
89 1/2+y,1/2+z,x
90 -z,1/2-y,-x
91 1/2-z,1/4+y,1/4+x
92 3/4+z,1/4+y,-x
93 1/4+z,1/2-y,1/4+x
94 1/2+y,1/4-z,3/4-x
95 3/4-y,3/4-z,x
96 3/4-y,z,3/4-x
97 -x,-y,-z
98 y,3/4-x,1/4-z
99 1/4+x,3/4+y,1/2-z
100 1/4-y,x,3/4-z
101 -x,3/4+y,3/4+z
102 1/4-y,3/4-x,z
103 1/4+x,-y,1/4+z
104 y,x,1/2+z
105 -z,-x,-y
106 x,3/4-z,1/4-y
107 1/4+z,3/4+x,1/2-y
108 1/4-x,z,3/4-y
109 -z,3/4+x,3/4+y
110 1/4-x,3/4-z,y
111 1/4+z,-x,1/4+y
112 x,z,1/2+y
113 -y,-z,-x
114 1/2+z,y,x
115 z,1/4-y,3/4-x
116 3/4-z,1/4-y,x
117 1/4-z,y,3/4-x
118 -y,1/4+z,1/4+x
119 3/4+y,3/4+z,-x
120 3/4+y,1/2-z,1/4+x
121 -x,1/2-y,1/2-z
122 y,1/4-x,3/4-z
123 1/4+x,1/4+y,-z
124 1/4-y,1/2+x,1/4-z
125 -x,1/4+y,1/4+z
126 1/4-y,1/4-x,1/2+z
127 1/4+x,1/2-y,3/4+z
128 y,1/2+x,z
129 -z,1/2-x,1/2-y
130 x,1/4-z,3/4-y
131 1/4+z,1/4+x,-y
132 1/4-x,1/2+z,1/4-y
133 -z,1/4+x,1/4+y
134 1/4-x,1/4-z,1/2+y
135 1/4+z,1/2-x,3/4+y
136 x,1/2+z,y
137 -y,1/2-z,1/2-x
138 1/2+z,1/2+y,1/2+x
139 z,3/4-y,1/4-x
140 3/4-z,3/4-y,1/2+x
141 1/4-z,1/2+y,1/4-x
142 -y,3/4+z,3/4+x
143 3/4+y,1/4+z,1/2-x
144 3/4+y,-z,3/4+x
145 1/2-x,-y,1/2-z
146 1/2+y,3/4-x,3/4-z
147 3/4+x,3/4+y,-z
148 3/4-y,x,1/4-z
149 1/2-x,3/4+y,1/4+z
150 3/4-y,3/4-x,1/2+z
151 3/4+x,-y,3/4+z
152 1/2+y,x,z
153 1/2-z,-x,1/2-y
154 1/2+x,3/4-z,3/4-y
155 3/4+z,3/4+x,-y
156 3/4-x,z,1/4-y
157 1/2-z,3/4+x,1/4+y
158 3/4-x,3/4-z,1/2+y
159 3/4+z,-x,3/4+y
160 1/2+x,z,y
161 1/2-y,-z,1/2-x
162 z,y,1/2+x
163 1/2+z,1/4-y,1/4-x
164 1/4-z,1/4-y,1/2+x
165 3/4-z,y,1/4-x
166 1/2-y,1/4+z,3/4+x
167 1/4+y,3/4+z,1/2-x
168 1/4+y,1/2-z,3/4+x
169 1/2-x,1/2-y,-z
170 1/2+y,1/4-x,1/4-z
171 3/4+x,1/4+y,1/2-z
172 3/4-y,1/2+x,3/4-z
173 1/2-x,1/4+y,3/4+z
174 3/4-y,1/4-x,z
175 3/4+x,1/2-y,1/4+z
176 1/2+y,1/2+x,1/2+z
177 1/2-z,1/2-x,-y
178 1/2+x,1/4-z,1/4-y
179 3/4+z,1/4+x,1/2-y
180 3/4-x,1/2+z,3/4-y
181 1/2-z,1/4+x,3/4+y
182 3/4-x,1/4-z,y
183 3/4+z,1/2-x,1/4+y
184 1/2+x,1/2+z,1/2+y
185 1/2-y,1/2-z,-x
186 z,1/2+y,x
187 1/2+z,3/4-y,3/4-x
188 1/4-z,3/4-y,x
189 3/4-z,1/2+y,3/4-x
190 1/2-y,3/4+z,1/4+x
191 1/4+y,1/4+z,-x
192 1/4+y,-z,1/4+x
_cell_length_a                   26.160(3)
_cell_length_b                   26.160(3)
_cell_length_c                   26.160(3)
_cell_angle_alpha                90
_cell_angle_beta                 90
_cell_angle_gamma                90
_cell_volume                     17902.5
loop_
_atom_site_label
_atom_site_type_symbol
_atom_site_fract_x
_atom_site_fract_y
_atom_site_fract_z
_atom_site_U_iso_or_equiv
_atom_site_thermal_displace_type
Er1 Er 0.0000 0.2500 0.0000 0.0335 Uani
Cd1 Cd 0.0000 0.5000 0.0000 0.0287 Uani
O1 O 0.0141(4) 0.4169(4) -0.0227(4) 0.0713 Uani
O2 O 0.0089(4) 0.3343(4) -0.0301(4) 0.0650 Uani
O3 O -0.0000 0.3154(3) 0.0654(3) 0.0613 Uani
C1 C 0.0087(6) 0.3733(4) -0.0013(6) 0.0557 Uani
C2 C 0.0034(6) 0.3672(6) 0.0542(6) 0.0747 Uani
H1 H 0.0328 0.3819 0.0714 0.0900 Uiso
H2 H -0.0270 0.3848 0.0660 0.0900 Uiso
O1I O -0.0141(4) 0.2273(4) 0.1669(4) 0.0713 Uani
O2I O -0.0089(4) 0.2199(4) 0.0843(4) 0.0650 Uani
C1I C -0.0087(6) 0.2487(6) 0.1233(4) 0.0557 Uani
C2I C -0.0034(6) 0.3042(6) 0.1172(6) 0.0747 Uani
H1I H -0.0328 0.3214 0.1319 0.0900 Uiso
H2I H 0.0270 0.3160 0.1348 0.0900 Uiso
O1E O 0.1669(4) 0.2641(4) 0.0227(4) 0.0713 Uani
O2E O 0.0843(4) 0.2589(4) 0.0301(4) 0.0650 Uani
O3E O 0.0654(3) 0.2500 -0.0654(3) 0.0613 Uani
C1E C 0.1233(4) 0.2587(6) 0.0013(6) 0.0557 Uani
C2E C 0.1172(6) 0.2534(6) -0.0542(6) 0.0747 Uani
H1E H 0.1319 0.2828 -0.0714 0.0900 Uiso
H2E H 0.1348 0.2230 -0.0660 0.0900 Uiso
O1L O -0.0227(4) 0.2359(4) -0.1669(4) 0.0713 Uani
O2L O -0.0301(4) 0.2411(4) -0.0843(4) 0.0650 Uani
C1L C -0.0013(6) 0.2413(6) -0.1233(4) 0.0557 Uani
C2L C 0.0542(6) 0.2466(6) -0.1172(6) 0.0747 Uani
H1L H 0.0714 0.2172 -0.1319 0.0900 Uiso
H2L H 0.0660 0.2770 -0.1348 0.0900 Uiso
O1V O -0.1669(4) 0.2727(4) 0.0141(4) 0.0713 Uani
O2V O -0.0843(4) 0.2801(4) 0.0089(4) 0.0650 Uani
O3V O -0.0654(3) 0.1846(3) 0.0000 0.0613 Uani
C1V C -0.1233(4) 0.2513(6) 0.0087(6) 0.0557 Uani
C2V C -0.1172(6) 0.1958(6) 0.0034(6) 0.0747 Uani
H1V H -0.1319 0.1786 0.0328 0.0900 Uiso
H2V H -0.1348 0.1840 -0.0270 0.0900 Uiso
O1KC O 0.0227(4) 0.0831(4) -0.0141(4) 0.0713 Uani
O2KC O 0.0301(4) 0.1657(4) -0.0089(4) 0.0650 Uani
C1KC C 0.0013(6) 0.1267(4) -0.0087(6) 0.0557 Uani
C2KC C -0.0542(6) 0.1328(6) -0.0034(6) 0.0747 Uani
H1KC H -0.0714 0.1181 -0.0328 0.0900 Uiso
H2KC H -0.0660 0.1152 0.0270 0.0900 Uiso
Cd1E Cd 0.2500 0.2500 0.0000 0.0287 Uani
Cd1I Cd 0.0000 0.2500 0.2500 0.0287 Uani
Cd1J Cd -0.2500 0.2500 0.0000 0.0287 Uani
Cd1L Cd 0.0000 0.2500 -0.2500 0.0287 Uani
Cd1O Cd 0.0000 0.0000 0.0000 0.0287 Uani
O1FA O -0.0227(4) 0.5141(4) -0.0831(4) 0.0713 Uani
O1JC O -0.0831(4) 0.4773(4) 0.0141(4) 0.0713 Uani
O1RC O -0.0141(4) 0.5831(4) 0.0227(4) 0.0713 Uani
O1XD O 0.0227(4) 0.4859(4) 0.0831(4) 0.0713 Uani
O1BG O 0.0831(4) 0.5227(4) -0.0141(4) 0.0713 Uani
Cd2 Cd 0.1250 0.1250 0.1250 0.0836 Uani
O4 O 0.0396(8) 0.1250 0.1250 0.1090 Uani
H3 H 0.020(7) 0.150(6) 0.131(8) 0.1300 Uiso
H3D H 0.020(7) 0.100(6) 0.119(8) 0.1300 Uiso
O4H O 0.1250 0.0396(8) 0.1250 0.1090 Uani
H3H H 0.131(8) 0.020(7) 0.150(6) 0.1300 Uiso
H3JB H 0.119(8) 0.020(7) 0.100(6) 0.1300 Uiso
O4L O 0.1250 0.2104(8) 0.1250 0.1090 Uani
H3L H 0.131(8) 0.230(7) 0.100(6) 0.1300 Uiso
H3FB H 0.119(8) 0.230(7) 0.150(6) 0.1300 Uiso
O4P O 0.1250 0.1250 0.0396(8) 0.1090 Uani
H3P H 0.150(6) 0.131(8) 0.020(7) 0.1300 Uiso
H3V H 0.100(6) 0.119(8) 0.020(7) 0.1300 Uiso
O4SA O 0.1250 0.1250 0.2104(8) 0.1090 Uani
H3SA H 0.150(6) 0.119(8) 0.230(7) 0.1300 Uiso
H3UA H 0.100(6) 0.131(8) 0.230(7) 0.1300 Uiso
O4XA O 0.2104(8) 0.1250 0.1250 0.1090 Uani
H3XA H 0.230(7) 0.100(6) 0.131(8) 0.1300 Uiso
H3BB H 0.230(7) 0.150(6) 0.119(8) 0.1300 Uiso
O5 O 0.089(12) 0.339(12) 0.0000 2.0000 Uani
O6 O 0.8750 0.3750 0.0770(18) 0.2567 Uani
loop_
_atom_site_aniso_label
_atom_site_aniso_U_11
_atom_site_aniso_U_22
_atom_site_aniso_U_33
_atom_site_aniso_U_23
_atom_site_aniso_U_13
_atom_site_aniso_U_12
Er1 0.0335(5) 0.0335(5) 0.0335(5) -0.0102(2) 0.0102(2) -0.0102(2)
Cd1 0.0287(5) 0.0287(5) 0.0287(5) -0.0046(3) -0.0046(3) -0.0046(3)
O1 0.072(7) 0.070(8) 0.072(7) -0.013(6) 0.006(5) -0.008(5)
O2 0.074(7) 0.063(6) 0.058(6) -0.002(5) 0.011(5) -0.012(5)
O3 0.078(10) 0.053(5) 0.053(5) -0.015(6) 0.007(5) -0.007(5)
C1 0.051(8) 0.032(7) 0.084(12) -0.011(6) -0.005(7) -0.013(5)
C2 0.096(13) 0.068(10) 0.060(10) -0.016(7) 0.009(8) -0.006(8)
O1I 0.072 0.072 0.07 -0.013 0.008 -0.006
O2I 0.074 0.058 0.063 -0.002 0.012 -0.011
C1I 0.051 0.084 0.032 -0.011 0.013 0.005
C2I 0.096 0.06 0.068 -0.016 0.006 -0.009
O1E 0.07 0.072 0.072 -0.006 0.013 -0.008
O2E 0.063 0.074 0.058 -0.011 0.002 -0.012
O3E 0.053 0.078 0.053 -0.007 0.015 -0.007
C1E 0.032 0.051 0.084 0.005 0.011 -0.013
C2E 0.068 0.096 0.06 -0.009 0.016 -0.006
O1L 0.072 0.072 0.07 -0.008 0.013 -0.006
O2L 0.058 0.074 0.063 -0.012 0.002 -0.011
C1L 0.084 0.051 0.032 -0.013 0.011 0.005
C2L 0.06 0.096 0.068 -0.006 0.016 -0.009
O1V 0.07 0.072 0.072 -0.006 0.008 -0.013
O2V 0.063 0.058 0.074 -0.011 0.012 -0.002
O3V 0.053 0.053 0.078 -0.007 0.007 -0.015
C1V 0.032 0.084 0.051 0.005 0.013 -0.011
C2V 0.068 0.06 0.096 -0.009 0.006 -0.016
O1KC 0.072 0.07 0.072 -0.008 0.006 -0.013
O2KC 0.058 0.063 0.074 -0.012 0.011 -0.002
C1KC 0.084 0.032 0.051 -0.013 -0.005 -0.011
C2KC 0.06 0.068 0.096 -0.006 0.009 -0.016
Cd1E 0.0287 0.0287 0.0287 0.0046 0.0046 -0.0046
Cd1I 0.0287 0.0287 0.0287 -0.0046 0.0046 0.0046
Cd1J 0.0287 0.0287 0.0287 0.0046 0.0046 -0.0046
Cd1L 0.0287 0.0287 0.0287 -0.0046 0.0046 0.0046
Cd1O 0.0287 0.0287 0.0287 -0.0046 -0.0046 -0.0046
O1FA 0.072 0.072 0.07 -0.008 -0.013 0.006
O1JC 0.07 0.072 0.072 0.006 -0.008 -0.013
O1RC 0.072 0.07 0.072 -0.013 0.006 -0.008
O1XD 0.072 0.072 0.07 -0.008 -0.013 0.006
O1BG 0.07 0.072 0.072 0.006 -0.008 -0.013
Cd2 0.0836(15) 0.0836(15) 0.0836(15) 0.000 0.000 0.000
O4 0.064(12) 0.083(15) 0.18(2) 0.009(13) 0.000 0.000
O4H 0.18 0.064 0.083 0 0.009 0
O4L 0.18 0.064 0.083 0 -0.009 0
O4P 0.083 0.18 0.064 0 0 0.009
O4SA 0.083 0.18 0.064 0 0 -0.009
O4XA 0.064 0.083 0.18 -0.009 0 0
O5 2.0(7) 2.0(7) 2.0(14) -0.4(8) 0.4(8) -0.4(8)
O6 0.38(6) 0.15(3) 0.24(5) 0.000 0.000 -0.01(3)
loop_
_geom_bond_atom_site_label_1
_geom_bond_atom_site_label_2
_geom_bond_site_symmetry_1
_geom_bond_site_symmetry_2
Er1 O2 1_555 1_555
Cd1 O1 1_555 1_555
O1 C1 1_555 1_555
O2 C1 1_555 1_555
O3 Er1 1_555 1_555
C1 C2 1_555 1_555
C2 O3 1_555 1_555
H1 C2 1_555 1_555
H2 C2 1_555 1_555
Cd2 O4 1_555 1_555
O4 H3 1_555 1_555
O1I C1I 1_555 1_555
O2I Er1 1_555 1_555
C1I O2I 1_555 1_555
C2I O3 1_555 1_555
H1I C2I 1_555 1_555
H2I C2I 1_555 1_555
O1E C1E 1_555 1_555
O2E Er1 1_555 1_555
O3E Er1 1_555 1_555
C1E O2E 1_555 1_555
C2E O3E 1_555 1_555
H1E C2E 1_555 1_555
H2E C2E 1_555 1_555
O1L C1L 1_555 1_555
O2L Er1 1_555 1_555
C1L O2L 1_555 1_555
C2L O3E 1_555 1_555
H1L C2L 1_555 1_555
H2L C2L 1_555 1_555
O1V C1V 1_555 1_555
O2V Er1 1_555 1_555
O3V Er1 1_555 1_555
C1V O2V 1_555 1_555
C2V O3V 1_555 1_555
H1V C2V 1_555 1_555
H2V C2V 1_555 1_555
O1KC C1KC 1_555 1_555
O2KC Er1 1_555 1_555
C1KC O2KC 1_555 1_555
C2KC O3V 1_555 1_555
H1KC C2KC 1_555 1_555
H2KC C2KC 1_555 1_555
Cd1E O1E 1_555 1_555
Cd1I O1I 1_555 1_555
Cd1J O1V 1_555 1_555
Cd1L O1L 1_555 1_555
Cd1O O1KC 1_555 1_555
O1FA Cd1 1_555 1_555
O1JC Cd1 1_555 1_555
O1RC Cd1 1_555 1_555
O1XD Cd1 1_555 1_555
O1BG Cd1 1_555 1_555
H3D O4 1_555 1_555
O4H Cd2 1_555 1_555
H3H O4H 1_555 1_555
H3JB O4H 1_555 1_555
O4L Cd2 1_555 1_555
H3L O4L 1_555 1_555
H3FB O4L 1_555 1_555
O4P Cd2 1_555 1_555
H3P O4P 1_555 1_555
H3V O4P 1_555 1_555
O4SA Cd2 1_555 1_555
H3SA O4SA 1_555 1_555
H3UA O4SA 1_555 1_555
O4XA Cd2 1_555 1_555
H3XA O4XA 1_555 1_555
H3BB O4XA 1_555 1_555
C1I C2I 1_555 1_555
C1E C2E 1_555 1_555
C1L C2L 1_555 1_555
C1V C2V 1_555 1_555
C1KC C2KC 1_555 1_555

#END
