
#######################################################################
#
#                 Cambridge Crystallographic Data Centre
#                                CCDC 
#
#######################################################################
#
# If this CIF has been generated from an entry in the Cambridge 
# Structural Database, then it will include bibliographic, chemical, 
# crystal, experimental, refinement or atomic coordinate data resulting 
# from the CCDC's data processing and validation procedures.
#
#######################################################################

data_IZEBAR
_chemical_formula_moiety         '(C40 H36 N2 O18 Tb2)n'
_symmetry_cell_setting           monoclinic
_symmetry_space_group_name_H-M   'C 2/c'
_symmetry_Int_Tables_number      15
_space_group_name_Hall           '-C 2yc'
loop_
_symmetry_equiv_pos_site_id
_symmetry_equiv_pos_as_xyz
1 x,y,z
2 -x,y,1/2-z
3 1/2+x,1/2+y,z
4 1/2-x,1/2+y,1/2-z
5 -x,-y,-z
6 x,-y,1/2+z
7 1/2-x,1/2-y,-z
8 1/2+x,1/2-y,1/2+z
_cell_length_a                   29.660(7)
_cell_length_b                   13.592(4)
_cell_length_c                   14.082(4)
_cell_angle_alpha                90
_cell_angle_beta                 99.604(15)
_cell_angle_gamma                90
_cell_volume                     5597.43
loop_
_atom_site_label
_atom_site_type_symbol
_atom_site_fract_x
_atom_site_fract_y
_atom_site_fract_z
Tb1 Tb 0.314295(15) 0.70564(4) 0.04149(3)
O1 O 0.2293(2) 0.3486(6) 0.4564(6)
O2 O 0.2677(2) 0.6593(7) 0.1551(6)
O3 O 0.2899(2) 0.4379(6) 0.4474(6)
O4 O -0.1148(3) 0.8285(7) 0.4798(7)
O5 O 0.2015(3) 0.7400(7) 0.1189(5)
O6 O -0.1262(3) 0.6755(7) 0.5134(8)
O7 O 0.3502(3) 0.5632(9) 0.1289(8)
C1 C -0.0598(4) 0.7105(10) 0.4433(9)
C2 C 0.2087(3) 0.6205(9) 0.2427(7)
C3 C 0.2177(3) 0.4953(8) 0.3656(7)
C4 C 0.2279(4) 0.6798(9) 0.1660(8)
C5 C -0.1030(4) 0.7415(12) 0.4821(9)
C6 C 0.0634(4) 0.6255(11) 0.3576(9)
C7 C 0.2356(3) 0.5533(8) 0.2996(7)
H1 H 0.2662 0.5467 0.2938
C8 C 0.1726(3) 0.5093(9) 0.3788(8)
H2 H 0.1603 0.4705 0.4223
C9 C 0.1457(3) 0.5834(9) 0.3251(8)
C10 C 0.1643(4) 0.6356(9) 0.2554(8)
H3 H 0.1463 0.6812 0.2170
C11 C 0.1002(4) 0.6038(10) 0.3414(9)
C12 C -0.0092(5) 0.5913(13) 0.4088(14)
H4 H -0.0024 0.5247 0.4054
C13 C 0.0205(4) 0.6559(12) 0.3833(9)
C14 C 0.0063(6) 0.7475(14) 0.3794(17)
H5 H 0.0248 0.7952 0.3583
C15 C -0.0343(6) 0.7764(13) 0.4049(16)
H6 H -0.0442 0.8411 0.3956
C16 C -0.0493(5) 0.6170(14) 0.4399(14)
H7 H -0.0685 0.5690 0.4582
C17 C 0.2477(7) 0.4208(15) 0.4287(13)
O8 O 0.3523(4) 0.7635(11) 0.1916(8)
N2 N 0.3723(10) 0.838(3) 0.335(2)
C21 C 0.3375(10) 0.792(2) 0.262(2)
C22 C 0.4165(9) 0.867(2) 0.318(2)
C23 C 0.3561(9) 0.908(2) 0.394(2)
Tb1F Tb 0.185705(15) 0.79436(4) -0.04149(3)
Tb1A Tb 0.685705(15) 0.70564(4) -0.54149(3)
Tb1C Tb 0.185705(15) 0.20564(4) 0.45851(3)
Tb1C_2 Tb 0.185705(15) 1.20564(4) -0.54149(3)
Tb1E Tb 0.314295(15) 0.29436(4) 0.54149(3)
Tb1E_2 Tb 0.314295(15) 1.29436(4) -0.45851(3)
Tb1G Tb -0.185705(15) 0.79436(4) 0.54149(3)
O1F O 0.2707(2) 1.1514(6) -0.4564(6)
O1C O 0.2707(2) 0.8486(6) 0.0436(6)
O1E O 0.2293(2) 0.6514(6) -0.0436(6)
O2F O 0.2323(2) 0.8407(7) -0.1551(6)
O3F O 0.2101(2) 1.0621(6) -0.4474(6)
O3C O 0.2101(2) 0.9379(6) 0.0526(6)
O3E O 0.2899(2) 0.5621(6) -0.0526(6)
O4F O 0.6148(3) 0.6715(7) -0.4798(7)
O4A O 0.1148(3) 0.8285(7) 0.0202(7)
O4G O 0.3852(3) 0.6715(7) -0.0202(7)
O5F O 0.2985(3) 0.7600(7) -0.1189(5)
O6F O 0.6262(3) 0.8245(7) -0.5134(8)
O6A O 0.1262(3) 0.6755(7) -0.0134(8)
O6G O 0.3738(3) 0.8245(7) 0.0134(8)
O7F O 0.1498(3) 0.9368(9) -0.1289(8)
C1F C 0.5598(4) 0.7895(10) -0.4433(9)
C2F C 0.2913(3) 0.8795(9) -0.2427(7)
C3F C 0.2823(3) 1.0047(8) -0.3656(7)
C4F C 0.2721(4) 0.8202(9) -0.1660(8)
C5F C 0.6030(4) 0.7585(12) -0.4821(9)
C5A C 0.1030(4) 0.7415(12) 0.0179(9)
C5G C 0.3970(4) 0.7585(12) -0.0179(9)
C6F C 0.4366(4) 0.8745(11) -0.3576(9)
C7F C 0.2644(3) 0.9467(8) -0.2996(7)
H1F H 0.2338 0.9533 -0.2938
C8F C 0.3274(3) 0.9907(9) -0.3788(8)
H2F H 0.3397 1.0295 -0.4223
C9F C 0.3543(3) 0.9166(9) -0.3251(8)
C10F C 0.3357(4) 0.8644(9) -0.2554(8)
H3F H 0.3537 0.8188 -0.2170
C11F C 0.3998(4) 0.8962(10) -0.3414(9)
C12F C 0.5092(5) 0.9087(13) -0.4088(14)
H4F H 0.5024 0.9753 -0.4054
C13F C 0.4795(4) 0.8441(12) -0.3833(9)
C14F C 0.4937(6) 0.7525(14) -0.3794(17)
H5F H 0.4752 0.7048 -0.3583
C15F C 0.5343(6) 0.7236(13) -0.4049(16)
H6F H 0.5442 0.6589 -0.3956
C16F C 0.5493(5) 0.8830(14) -0.4399(14)
H7F H 0.5685 0.9310 -0.4582
C17F C 0.2523(7) 1.0792(15) -0.4287(13)
C17C C 0.2523(7) 0.9208(15) 0.0713(13)
C17E C 0.2477(7) 0.5792(15) -0.0713(13)
O8F O 0.1477(4) 0.7365(11) -0.1916(8)
N2F N 0.1277(10) 0.662(3) -0.335(2)
C21F C 0.1625(10) 0.708(2) -0.262(2)
C22F C 0.0835(9) 0.633(2) -0.318(2)
C23F C 0.1439(9) 0.592(2) -0.394(2)
O9 O 0.428(2) 0.493(6) -0.026(5)
O10 O 0.1475(13) 0.935(3) 0.216(3)
loop_
_geom_bond_atom_site_label_1
_geom_bond_atom_site_label_2
_geom_bond_site_symmetry_1
_geom_bond_site_symmetry_2
Tb1 O2 1_555 1_555
O1 C17 1_555 1_555
O2 C4 1_555 1_555
O3 C17 1_555 1_555
O4 C5 1_555 1_555
O5 C4 1_555 1_555
O6 C5 1_555 1_555
O7 Tb1 1_555 1_555
C1 C5 1_555 1_555
C2 C4 1_555 1_555
C3 C7 1_555 1_555
C6 C11 1_555 1_555
C7 C2 1_555 1_555
H1 C7 1_555 1_555
C8 C3 1_555 1_555
H2 C8 1_555 1_555
C9 C8 1_555 1_555
C10 C2 1_555 1_555
H3 C10 1_555 1_555
C11 C9 1_555 1_555
C12 H4 1_555 1_555
C13 C6 1_555 1_555
C14 C13 1_555 1_555
H5 C14 1_555 1_555
C15 C1 1_555 1_555
H6 C15 1_555 1_555
C16 C1 1_555 1_555
H7 C16 1_555 1_555
C17 C3 1_555 1_555
O8 Tb1 1_555 1_555
N2 C21 1_555 1_555
C21 O8 1_555 1_555
C22 N2 1_555 1_555
C23 N2 1_555 1_555
Tb1F O5 1_555 1_555
Tb1A O4F 1_555 1_555
Tb1C O1 1_555 1_555
Tb1C_2 O1F 1_555 1_555
Tb1E O1 1_555 1_555
Tb1E_2 O1F 1_555 1_555
Tb1G O4 1_555 1_555
O1F C17F 1_555 1_555
O1C Tb1 1_555 1_555
O1E Tb1 1_555 1_555
O2F Tb1F 1_555 1_555
O3F Tb1C_2 1_555 1_555
O3C Tb1F 1_555 1_555
O3E Tb1 1_555 1_555
O4F C5F 1_555 1_555
O4A Tb1F 1_555 1_555
O4G Tb1 1_555 1_555
O5F Tb1 1_555 1_555
O6F Tb1A 1_555 1_555
O6A Tb1F 1_555 1_555
O6G Tb1 1_555 1_555
O7F Tb1F 1_555 1_555
C1F C5F 1_555 1_555
C2F C4F 1_555 1_555
C3F C7F 1_555 1_555
C4F O2F 1_555 1_555
C5F O6F 1_555 1_555
C5A O4A 1_555 1_555
C5G O4G 1_555 1_555
C6F C11F 1_555 1_555
C7F C2F 1_555 1_555
H1F C7F 1_555 1_555
C8F C3F 1_555 1_555
H2F C8F 1_555 1_555
C9F C8F 1_555 1_555
C10F C2F 1_555 1_555
H3F C10F 1_555 1_555
C11F C9F 1_555 1_555
C12F H4F 1_555 1_555
C13F C6F 1_555 1_555
C14F C13F 1_555 1_555
H5F C14F 1_555 1_555
C15F C1F 1_555 1_555
H6F C15F 1_555 1_555
C16F C1F 1_555 1_555
H7F C16F 1_555 1_555
C17F O3F 1_555 1_555
C17C O1C 1_555 1_555
C17E O1E 1_555 1_555
O8F Tb1F 1_555 1_555
N2F C21F 1_555 1_555
C21F O8F 1_555 1_555
C22F N2F 1_555 1_555
C23F N2F 1_555 1_555
O3 Tb1E 1_555 1_555
O6 Tb1G 1_555 1_555
C9 C10 1_555 1_555
C12 C13 1_555 1_555
C12 C16 1_555 1_555
C14 C15 1_555 1_555
Tb1F O1C 1_555 1_555
Tb1F O1E 1_555 1_555
O3C C17C 1_555 1_555
O3E C17E 1_555 1_555
O5F C4F 1_555 1_555
O6A C5A 1_555 1_555
O6G C5G 1_555 1_555
C3F C17F 1_555 1_555
C9F C10F 1_555 1_555
C12F C13F 1_555 1_555
C12F C16F 1_555 1_555
C14F C15F 1_555 1_555

#END
