
#######################################################################
#
#                 Cambridge Crystallographic Data Centre
#                                CCDC 
#
#######################################################################
#
# If this CIF has been generated from an entry in the Cambridge 
# Structural Database, then it will include bibliographic, chemical, 
# crystal, experimental, refinement or atomic coordinate data resulting 
# from the CCDC's data processing and validation procedures.
#
#######################################################################

data_MUNNUF
_chemical_formula_moiety         '(C66 H66 N4 O15 Zn2)n'
_symmetry_cell_setting           triclinic
_symmetry_space_group_name_H-M   'P -1'
_symmetry_Int_Tables_number      2
_space_group_name_Hall           '-P 1'
loop_
_symmetry_equiv_pos_site_id
_symmetry_equiv_pos_as_xyz
1 x,y,z
2 -x,-y,-z
_cell_length_a                   12.975(2)
_cell_length_b                   13.060(2)
_cell_length_c                   22.382(4)
_cell_angle_alpha                95.776(2)
_cell_angle_beta                 92.004(3)
_cell_angle_gamma                112.678(2)
_cell_volume                     3470.45
loop_
_atom_site_label
_atom_site_type_symbol
_atom_site_fract_x
_atom_site_fract_y
_atom_site_fract_z
Zn1 Zn 0.86002(3) 0.76082(3) 0.299494(17)
Zn2 Zn 0.85366(3) 0.71572(3) 0.167222(17)
O1 O 0.8888(2) 0.9227(2) 0.28927(13)
C1 C 0.8815(3) 0.9434(3) 0.23563(18)
O2 O 0.8807(3) 0.8807(2) 0.18980(13)
O3 O 1.0222(2) 0.7863(2) 0.28874(13)
C2 C 1.0624(3) 0.7657(3) 0.24116(18)
O4 O 1.0185(2) 0.7532(3) 0.18854(13)
O5 O 0.8258(3) 1.5944(2) 0.28133(15)
C3 C 0.8271(3) 1.5333(3) 0.2347(2)
O6 O 0.8278(3) 1.5577(2) 0.18192(15)
O7 O 1.6979(2) 0.7265(2) 0.27369(13)
C4 C 1.6483(3) 0.7014(3) 0.22169(19)
O8 O 1.6887(2) 0.6819(2) 0.17374(13)
N1 N 0.8610(3) 0.7654(3) 0.39080(14)
C5 C 0.7765(4) 0.6905(4) 0.41539(18)
H1 H 0.7164 0.6366 0.3895
C6 C 0.7726(4) 0.6879(4) 0.47715(19)
H2 H 0.7106 0.6346 0.4934
C7 C 0.8618(4) 0.7655(3) 0.51430(17)
C8 C 0.9500(4) 0.8426(4) 0.48912(18)
H3 H 1.0122 0.8960 0.5139
C9 C 0.9458(4) 0.8406(4) 0.42727(18)
H4 H 1.0055 0.8947 0.4100
N2 N 0.8630(3) 0.7636(3) 0.57840(14)
C10 C 0.8518(3) 0.8535(3) 0.61374(17)
C11 C 0.8508(3) 0.8481(3) 0.67938(17)
C12 C 0.8448(3) 0.9353(3) 0.71671(18)
H5 H 0.8404 0.9978 0.7001
C13 C 0.8452(3) 0.9327(3) 0.77953(18)
H6 H 0.8416 0.9936 0.8052
C14 C 0.8507(3) 0.8414(3) 0.80374(17)
C15 C 0.8533(4) 0.8411(3) 0.86974(18)
N3 N 0.8572(3) 0.7442(3) 0.89097(14)
C16 C 0.8634(3) 0.6518(3) 0.85539(18)
C17 C 0.8626(3) 0.6566(3) 0.78937(17)
C18 C 0.8688(4) 0.5687(3) 0.75192(18)
H7 H 0.8714 0.5054 0.7683
C19 C 0.8715(4) 0.5733(4) 0.68971(18)
H8 H 0.8777 0.5137 0.6640
C20 C 0.8651(3) 0.6645(3) 0.66567(17)
C21 C 0.8701(4) 0.6686(3) 0.60017(18)
C22 C 0.8569(3) 0.7538(3) 0.70319(17)
C23 C 0.8559(3) 0.7503(3) 0.76599(17)
O9 O 0.8444(3) 0.9301(2) 0.59016(13)
O10 O 0.8525(3) 0.9178(3) 0.90464(13)
O11 O 0.8702(3) 0.5749(3) 0.87871(13)
O12 O 0.8826(3) 0.5974(3) 0.56575(14)
C24 C 1.1730(3) 0.7544(3) 0.24769(18)
C25 C 1.2302(4) 0.7760(4) 0.3051(2)
H9 H 1.1984 0.7970 0.3394
C26 C 1.3316(4) 0.7666(5) 0.3117(2)
H10 H 1.3699 0.7820 0.3506
C27 C 1.3799(3) 0.7344(3) 0.26109(18)
C28 C 1.4866(3) 0.7290(4) 0.26609(19)
H11 H 1.5278 0.7473 0.3043
C29 C 1.5312(3) 0.6976(3) 0.21627(18)
C30 C 1.4692(4) 0.6676(4) 0.1593(2)
H12 H 1.4998 0.6447 0.1250
C31 C 1.3663(4) 0.6715(5) 0.1536(2)
H13 H 1.3251 0.6501 0.1153
C32 C 1.3189(3) 0.7072(3) 0.20400(18)
C33 C 1.2154(3) 0.7189(3) 0.19856(18)
H14 H 1.1747 0.7018 0.1603
C34 C 0.8717(3) 1.0519(3) 0.22605(19)
C35 C 0.8620(3) 1.1207(3) 0.27313(19)
H15 H 0.8628 1.1006 0.3127
C36 C 0.8508(3) 1.2223(3) 0.26448(18)
C37 C 0.8401(4) 1.2941(3) 0.3130(2)
H16 H 0.8396 1.2745 0.3528
C38 C 0.8306(4) 1.3923(3) 0.3033(2)
H17 H 0.8238 1.4405 0.3363
C39 C 0.8308(3) 1.4220(3) 0.2438(2)
C40 C 0.8402(3) 1.3529(3) 0.1964(2)
H18 H 0.8404 1.3738 0.1569
C41 C 0.8496(3) 1.2506(3) 0.20463(18)
C42 C 0.8598(4) 1.1782(3) 0.15670(19)
H19 H 0.8590 1.1971 0.1168
C43 C 0.8707(4) 1.0810(3) 0.16623(19)
H20 H 0.8776 1.0330 0.1332
N4 N 0.8563(3) 0.7237(3) 1.07697(14)
C44 C 0.7709(4) 0.6544(4) 1.03894(19)
H21 H 0.7097 0.5993 1.0547
C45 C 0.7674(4) 0.6591(4) 0.97789(19)
H22 H 0.7054 0.6084 0.9519
C46 C 0.8568(3) 0.7397(3) 0.95525(17)
C47 C 0.9449(4) 0.8118(4) 0.99354(18)
H23 H 1.0069 0.8675 0.9787
C48 C 0.9419(3) 0.8017(3) 1.05457(17)
H24 H 1.0027 0.8519 1.0815
Zn1_2 Zn 0.86002(3) 1.76082(3) 0.299494(17)
Zn1_3 Zn 1.86002(3) 0.76082(3) 0.299494(17)
Zn2_2 Zn 0.85366(3) 1.71572(3) 0.167222(17)
Zn2_3 Zn 1.85366(3) 0.71572(3) 0.167222(17)
Zn2_4 Zn 0.85366(3) 0.71572(3) 1.167222(17)
O5_2 O 0.8258(3) 0.5944(2) 0.28133(15)
O6_2 O 0.8278(3) 0.5577(2) 0.18192(15)
O7_2 O 0.6979(2) 0.7265(2) 0.27369(13)
O8_2 O 0.6887(2) 0.6819(2) 0.17374(13)
N4_2 N 0.8563(3) 0.7237(3) 0.07697(14)
O13 O 0.3626(4) 0.4309(5) 0.4047(3)
H25 H 0.4008 0.4026 0.4229
C49 C 0.4342(6) 0.5226(6) 0.3783(3)
H26 H 0.4852 0.5795 0.4102
H27 H 0.3891 0.5569 0.3577
C50 C 0.5037(5) 0.4880(6) 0.3327(3)
H28 H 0.5627 0.5567 0.3216
H29 H 0.5419 0.4466 0.3529
C51 C 0.4407(5) 0.4164(6) 0.2750(3)
H30 H 0.3948 0.4526 0.2570
H31 H 0.3890 0.3429 0.2851
C52 C 0.5166(5) 0.3979(5) 0.2288(3)
H32 H 0.5534 0.3510 0.2443
H33 H 0.5761 0.4710 0.2237
C53 C 0.4553(6) 0.3419(7) 0.1674(3)
H34 H 0.4008 0.2656 0.1716
H35 H 0.4129 0.3849 0.1533
C54 C 0.5345(9) 0.3342(11) 0.1208(5)
H36 H 0.4916 0.2981 0.0822
H37 H 0.5754 0.2900 0.1340
H38 H 0.5879 0.4095 0.1160
O14 O 0.3046(5) 0.5977(6) 0.4932(3)
H39 H 0.3609 0.6584 0.4980
C55 C 0.2168(7) 0.6099(8) 0.5255(4)
H40 H 0.2486 0.6560 0.5648
H41 H 0.1636 0.5355 0.5335
C56 C 0.1548(8) 0.6651(7) 0.4901(4)
H42 H 0.0888 0.6635 0.5114
H43 H 0.1270 0.6204 0.4501
C57 C 0.2259(8) 0.7878(6) 0.4805(3)
H44 H 0.2987 0.7930 0.4659
H45 H 0.1863 0.8116 0.4496
C58 C 0.2457(6) 0.8639(5) 0.5389(3)
H46 H 0.1730 0.8479 0.5564
H47 H 0.2942 0.8455 0.5674
C59 C 0.2986(7) 0.9864(5) 0.5337(3)
H48 H 0.2534 1.0039 0.5029
H49 H 0.3741 1.0037 0.5193
C60 C 0.3097(12) 1.0609(9) 0.5911(4)
H50 H 0.3449 1.1393 0.5838
H51 H 0.3562 1.0460 0.6217
H52 H 0.2352 1.0462 0.6052
O15 O 0.5207(6) 0.6674(5) 0.5342(3)
H53 H 0.4535 0.6370 0.5201
C61 C 0.5473(8) 0.7817(6) 0.5543(4)
H54 H 0.5008 0.8089 0.5295
H55 H 0.6268 0.8254 0.5483
C62 C 0.5283(10) 0.8021(8) 0.6197(4)
H56 H 0.4485 0.7589 0.6252
H57 H 0.5735 0.7728 0.6441
C63 C 0.5568(12) 0.9205(9) 0.6431(6)
H58 H 0.5451 0.9610 0.6101
H59 H 0.6368 0.9558 0.6582
C64 C 0.4839(15) 0.9295(18) 0.6941(7)
H60 H 0.4667 0.9969 0.6929
H61 H 0.4124 0.8630 0.6897
C65 C 0.5465(15) 0.9370(17) 0.7520(7)
H62 H 0.6217 0.9982 0.7548
H63 H 0.5554 0.8659 0.7559
C66 C 0.4761(13) 0.9607(12) 0.8014(7)
H64 H 0.5120 0.9632 0.8411
H65 H 0.4008 0.9012 0.7968
H66 H 0.4707 1.0327 0.7979
loop_
_geom_bond_atom_site_label_1
_geom_bond_atom_site_label_2
_geom_bond_site_symmetry_1
_geom_bond_site_symmetry_2
Zn1 O1 1_555 1_555
Zn2 O2 1_555 1_555
O1 C1 1_555 1_555
C1 O2 1_555 1_555
O3 Zn1 1_555 1_555
C2 O3 1_555 1_555
O4 Zn2 1_555 1_555
O5 C3 1_555 1_555
C3 O6 1_555 1_555
O6 Zn2_2 1_555 1_555
O7 C4 1_555 1_555
C4 O8 1_555 1_555
O8 Zn2_3 1_555 1_555
N1 Zn1 1_555 1_555
C5 N1 1_555 1_555
H1 C5 1_555 1_555
C6 C5 1_555 1_555
H2 C6 1_555 1_555
C7 C6 1_555 1_555
C8 C7 1_555 1_555
H3 C8 1_555 1_555
C9 N1 1_555 1_555
H4 C9 1_555 1_555
N2 C7 1_555 1_555
C10 N2 1_555 1_555
C11 C10 1_555 1_555
C12 C11 1_555 1_555
H5 C12 1_555 1_555
C13 C12 1_555 1_555
H6 C13 1_555 1_555
C14 C13 1_555 1_555
C15 C14 1_555 1_555
N3 C15 1_555 1_555
C16 N3 1_555 1_555
C17 C16 1_555 1_555
C18 C17 1_555 1_555
H7 C18 1_555 1_555
C19 C18 1_555 1_555
H8 C19 1_555 1_555
C20 C19 1_555 1_555
C21 N2 1_555 1_555
C22 C11 1_555 1_555
C23 C14 1_555 1_555
O9 C10 1_555 1_555
O10 C15 1_555 1_555
O11 C16 1_555 1_555
O12 C21 1_555 1_555
C24 C2 1_555 1_555
C25 C24 1_555 1_555
H9 C25 1_555 1_555
C26 C25 1_555 1_555
H10 C26 1_555 1_555
C27 C26 1_555 1_555
C28 C27 1_555 1_555
H11 C28 1_555 1_555
C29 C4 1_555 1_555
C30 C29 1_555 1_555
H12 C30 1_555 1_555
C31 C30 1_555 1_555
H13 C31 1_555 1_555
C32 C27 1_555 1_555
C33 C24 1_555 1_555
H14 C33 1_555 1_555
C34 C1 1_555 1_555
C35 C34 1_555 1_555
H15 C35 1_555 1_555
C36 C35 1_555 1_555
C37 C36 1_555 1_555
H16 C37 1_555 1_555
C38 C37 1_555 1_555
H17 C38 1_555 1_555
C39 C3 1_555 1_555
C40 C39 1_555 1_555
H18 C40 1_555 1_555
C41 C36 1_555 1_555
C42 C41 1_555 1_555
H19 C42 1_555 1_555
C43 C34 1_555 1_555
H20 C43 1_555 1_555
N4 C44 1_555 1_555
C44 H21 1_555 1_555
C45 C44 1_555 1_555
H22 C45 1_555 1_555
C46 N3 1_555 1_555
C47 C46 1_555 1_555
H23 C47 1_555 1_555
C48 N4 1_555 1_555
H24 C48 1_555 1_555
O13 H25 1_555 1_555
C49 O13 1_555 1_555
H26 C49 1_555 1_555
H27 C49 1_555 1_555
C50 C49 1_555 1_555
H28 C50 1_555 1_555
H29 C50 1_555 1_555
C51 C50 1_555 1_555
H30 C51 1_555 1_555
H31 C51 1_555 1_555
C52 C51 1_555 1_555
H32 C52 1_555 1_555
H33 C52 1_555 1_555
C53 C52 1_555 1_555
H34 C53 1_555 1_555
H35 C53 1_555 1_555
C54 C53 1_555 1_555
H36 C54 1_555 1_555
H37 C54 1_555 1_555
H38 C54 1_555 1_555
O14 H39 1_555 1_555
C55 O14 1_555 1_555
H40 C55 1_555 1_555
H41 C55 1_555 1_555
C56 C55 1_555 1_555
H42 C56 1_555 1_555
H43 C56 1_555 1_555
C57 C56 1_555 1_555
H44 C57 1_555 1_555
H45 C57 1_555 1_555
C58 C57 1_555 1_555
H46 C58 1_555 1_555
H47 C58 1_555 1_555
C59 C58 1_555 1_555
H48 C59 1_555 1_555
H49 C59 1_555 1_555
C60 C59 1_555 1_555
H50 C60 1_555 1_555
H51 C60 1_555 1_555
H52 C60 1_555 1_555
O15 H53 1_555 1_555
C61 O15 1_555 1_555
H54 C61 1_555 1_555
H55 C61 1_555 1_555
C62 C61 1_555 1_555
H56 C62 1_555 1_555
H57 C62 1_555 1_555
C63 C62 1_555 1_555
H58 C63 1_555 1_555
H59 C63 1_555 1_555
C64 C63 1_555 1_555
H60 C64 1_555 1_555
H61 C64 1_555 1_555
C65 C64 1_555 1_555
H62 C65 1_555 1_555
H63 C65 1_555 1_555
C66 C65 1_555 1_555
H64 C66 1_555 1_555
H65 C66 1_555 1_555
H66 C66 1_555 1_555
Zn1_2 O5 1_555 1_555
Zn1_3 O7 1_555 1_555
Zn2_4 N4 1_555 1_555
O5_2 Zn1 1_555 1_555
O6_2 Zn2 1_555 1_555
O7_2 Zn1 1_555 1_555
O8_2 Zn2 1_555 1_555
N4_2 Zn2 1_555 1_555
C2 O4 1_555 1_555
C8 C9 1_555 1_555
C17 C23 1_555 1_555
C20 C21 1_555 1_555
C20 C22 1_555 1_555
C22 C23 1_555 1_555
C28 C29 1_555 1_555
C31 C32 1_555 1_555
C32 C33 1_555 1_555
C38 C39 1_555 1_555
C40 C41 1_555 1_555
C42 C43 1_555 1_555
C45 C46 1_555 1_555
C47 C48 1_555 1_555

#END
