
#######################################################################
#
#                 Cambridge Crystallographic Data Centre
#                                CCDC 
#
#######################################################################
#
# If this CIF has been generated from an entry in the Cambridge 
# Structural Database, then it will include bibliographic, chemical, 
# crystal, experimental, refinement or atomic coordinate data resulting 
# from the CCDC's data processing and validation procedures.
#
#######################################################################

data_MUNPAN
_chemical_formula_moiety         '(C79 H50 N8 O22 Zn2)n'
_symmetry_cell_setting           monoclinic
_symmetry_space_group_name_H-M   'P 21'
_symmetry_Int_Tables_number      4
_space_group_name_Hall           'P 2yb'
loop_
_symmetry_equiv_pos_site_id
_symmetry_equiv_pos_as_xyz
1 x,y,z
2 -x,1/2+y,-z
_cell_length_a                   13.063(2)
_cell_length_b                   22.324(4)
_cell_length_c                   13.129(2)
_cell_angle_alpha                90
_cell_angle_beta                 95.149(3)
_cell_angle_gamma                90
_cell_volume                     3813.21
loop_
_atom_site_label
_atom_site_type_symbol
_atom_site_fract_x
_atom_site_fract_y
_atom_site_fract_z
Zn1 Zn -0.23831(5) -0.20672(2) -0.63069(4)
Zn2 Zn -0.21410(4) -0.07700(2) -0.60870(4)
O1 O -0.2375(4) -0.1929(2) -0.4769(3)
C1 C -0.2370(4) -0.1451(3) -0.4249(4)
O2 O -0.2260(4) -0.0935(2) -0.4596(3)
O3 O -0.0843(3) -0.1972(2) -0.6201(4)
C2 C -0.0305(5) -0.1503(3) -0.6058(5)
O4 O -0.0633(3) -0.0989(2) -0.5923(4)
O5 O -0.2428(4) -0.1880(2) 0.2168(3)
C3 C -0.2280(5) -0.1361(3) 0.1841(4)
O6 O -0.2114(4) -0.0903(2) 0.2379(3)
O7 O 0.6109(4) -0.1857(2) -0.6385(4)
C4 C 0.5779(5) -0.1341(3) -0.6318(5)
O8 O 0.6297(3) -0.0871(2) -0.6307(4)
N1 N -0.2336(4) -0.2977(3) -0.6330(4)
C5 C -0.1943(6) -0.3284(3) -0.5514(5)
H1 H -0.1698 -0.3070 -0.4917
C6 C -0.1879(6) -0.3907(3) -0.5506(6)
H2 H -0.1615 -0.4119 -0.4913
C7 C -0.2217(5) -0.4202(3) -0.6397(5)
C8 C -0.2631(6) -0.3895(3) -0.7248(6)
H3 H -0.2887 -0.4100 -0.7853
C9 C -0.2659(5) -0.3274(3) -0.7184(5)
H4 H -0.2917 -0.3052 -0.7769
N2 N -0.2191(4) -0.4857(2) -0.6415(5)
C10 C -0.3139(5) -0.5144(3) -0.6514(5)
C11 C -0.3114(5) -0.5811(3) -0.6468(5)
C12 C -0.4008(5) -0.6122(3) -0.6450(6)
H5 H -0.4644 -0.5915 -0.6466
C13 C -0.3984(5) -0.6758(3) -0.6409(6)
H6 H -0.4602 -0.6980 -0.6382
C14 C -0.3060(4) -0.7050(3) -0.6409(5)
C15 C -0.3050(5) -0.7712(3) -0.6343(6)
C16 C -0.2087(5) -0.7994(3) -0.6320(5)
C17 C -0.1128(5) -0.7693(3) -0.6330(6)
C18 C -0.1178(5) -0.7031(3) -0.6417(4)
C19 C -0.0285(5) -0.6715(3) -0.6432(5)
H7 H 0.0351 -0.6922 -0.6426
C20 C -0.0299(5) -0.6083(3) -0.6458(5)
H8 H 0.0322 -0.5864 -0.6478
C21 C -0.1217(4) -0.5788(3) -0.6454(4)
C22 C -0.1215(5) -0.5122(3) -0.6404(5)
C23 C -0.2151(5) -0.6103(3) -0.6467(5)
C24 C -0.2137(5) -0.6738(3) -0.6422(5)
O9 O -0.3943(4) -0.4862(2) -0.6570(5)
O10 O -0.3827(4) -0.8012(2) -0.6328(5)
O11 O -0.0328(4) -0.7974(2) -0.6295(6)
O12 O -0.0446(4) -0.4821(2) -0.6365(4)
C25 C 0.0840(5) -0.1585(3) -0.6061(5)
C26 C 0.1271(5) -0.2161(3) -0.6124(5)
H9 H 0.0842 -0.2504 -0.6122
C27 C 0.2293(5) -0.2227(3) -0.6187(5)
H10 H 0.2572 -0.2617 -0.6243
C28 C 0.2962(5) -0.1716(3) -0.6169(5)
C29 C 0.4030(5) -0.1768(3) -0.6243(5)
H11 H 0.4328 -0.2154 -0.6289
C30 C 0.4642(5) -0.1271(3) -0.6250(5)
C31 C 0.4205(5) -0.0687(3) -0.6197(5)
H12 H 0.4629 -0.0343 -0.6216
C32 C 0.3174(5) -0.0626(3) -0.6117(6)
H13 H 0.2889 -0.0237 -0.6066
C33 C 0.2528(5) -0.1128(3) -0.6110(5)
C34 C 0.1444(5) -0.1080(3) -0.6042(5)
H14 H 0.1139 -0.0697 -0.5983
C35 C -0.2504(5) -0.1520(2) -0.3126(4)
C36 C -0.2831(5) -0.2078(3) -0.2754(5)
H15 H -0.3001 -0.2400 -0.3211
C37 C -0.2897(6) -0.2145(3) -0.1720(5)
H16 H -0.3140 -0.2512 -0.1466
C38 C -0.2608(5) -0.1671(3) -0.1027(5)
C39 C -0.2618(5) -0.1740(3) 0.0049(5)
H17 H -0.2842 -0.2107 0.0318
C40 C -0.2310(5) -0.1282(3) 0.0703(4)
C41 C -0.2026(5) -0.0716(3) 0.0313(4)
H18 H -0.1834 -0.0397 0.0769
C42 C -0.2032(6) -0.0634(3) -0.0719(5)
H19 H -0.1858 -0.0253 -0.0978
C43 C -0.2297(5) -0.1114(3) -0.1414(5)
C44 C -0.2263(5) -0.1049(3) -0.2479(5)
H20 H -0.2070 -0.0675 -0.2750
N3 N -0.2082(4) -0.9864(2) -0.6134(4)
C45 C -0.1564(5) -0.9539(3) -0.5401(5)
H21 H -0.1202 -0.9741 -0.4842
C46 C -0.1537(5) -0.8921(3) -0.5428(5)
H22 H -0.1160 -0.8697 -0.4905
C47 C -0.2080(5) -0.8637(3) -0.6251(6)
C48 C -0.2604(5) -0.8965(3) -0.7015(6)
H23 H -0.2964 -0.8772 -0.7584
C49 C -0.25954(13) -0.95856(8) -0.69356(13)
H24 H -0.2958 -0.9818 -0.7456
Zn1_2 Zn -0.23831(5) -0.20672(2) 0.36931(4)
Zn1_3 Zn 0.76169(5) -0.20672(2) -0.63069(4)
Zn2_2 Zn -0.21410(4) -0.07700(2) 0.39130(4)
Zn2_3 Zn 0.78590(4) -0.07700(2) -0.60870(4)
Zn2_4 Zn -0.21410(4) -1.07700(2) -0.60870(4)
O5_2 O -0.2428(4) -0.1880(2) -0.7832(3)
O6_2 O -0.2114(4) -0.0903(2) -0.7621(3)
O7_2 O -0.3891(4) -0.1857(2) -0.6385(4)
O8_2 O -0.3703(3) -0.0871(2) -0.6307(4)
N3_2 N -0.2082(4) 0.0136(2) -0.6134(4)
N4 N -0.44837(13) -0.38283(8) -0.40915(13)
O13 O -0.45908(13) -0.42223(8) -0.34628(13)
O14 O -0.38946(13) -0.34028(8) -0.39295(13)
C50 C -0.50891(13) -0.38667(8) -0.50836(13)
C51 C -0.49397(13) -0.34340(8) -0.58114(13)
H25 H -0.4470 -0.3141 -0.5675
C52 C -0.55156(13) -0.34718(8) -0.67462(13)
H26 H -0.5448 -0.3147 -0.7293
C53 C -0.62173(13) -0.39342(8) -0.69382(13)
H27 H -0.6617 -0.3949 -0.7583
C54 C -0.63443(13) -0.43664(8) -0.62008(13)
H28 H -0.6803 -0.4692 -0.6319
C55 C -0.57764(13) -0.43369(8) -0.52601(13)
H29 H -0.5857 -0.4632 -0.4773
N5 N -0.57245(13) 0.13382(8) 0.00967(13)
O15 O -0.58941(13) 0.16170(8) -0.07024(13)
O16 O -0.58740(13) 0.15463(8) 0.09371(13)
C56 C -0.53226(13) 0.07276(8) 0.00462(13)
C57 C -0.51679(13) 0.04026(8) 0.09452(13)
H30 H -0.5325 0.0564 0.1543
C58 C -0.47858(13) -0.01735(8) 0.08929(13)
H31 H -0.4630 -0.0421 0.1550
C59 C -0.45708(13) -0.04129(8) -0.00403(13)
H32 H -0.4296 -0.0808 -0.0061
C60 C -0.47438(13) -0.00808(8) -0.09322(13)
H33 H -0.4622 -0.0237 -0.1579
C61 C -0.51253(13) 0.04966(8) -0.08973(13)
H34 H -0.5251 0.0714 -0.1501
N7 N -1.26222(13) 0.43407(8) 0.02591(13)
O19 O -1.22696(13) 0.44347(8) 0.11390(13)
O20 O -1.24233(13) 0.46543(8) -0.04666(13)
C68 C -1.33158(13) 0.38300(8) 0.00646(13)
C69 C -1.36843(13) 0.37086(8) -0.09361(13)
H40 H -1.3488 0.3937 -0.1452
C70 C -1.43411(13) 0.32265(8) -0.11147(13)
H41 H -1.4655 0.3135 -0.1845
C71 C -1.46126(13) 0.28775(8) -0.03060(13)
H42 H -1.5076 0.2551 -0.0442
C72 C -1.42236(13) 0.30039(8) 0.06888(13)
H43 H -1.4381 0.2767 0.1250
C73 C -1.35657(13) 0.34844(8) 0.08848(13)
H44 H -1.3298 0.3562 0.1553
N8 N -1.08766(13) 0.09855(8) -0.24114(13)
O21 O -1.13320(13) 0.13442(8) -0.29924(13)
O22 O -1.10892(13) 0.04495(8) -0.24009(13)
C74 C -1.00393(13) 0.12077(8) -0.16940(13)
C75 C -0.94961(13) 0.07987(8) -0.10630(13)
H45 H -0.9652 0.0405 -0.1107
C76 C -0.87076(13) 0.10114(8) -0.03852(13)
H46 H -0.8310 0.0723 0.0118
C77 C -0.84751(13) 0.16184(8) -0.03506(13)
H47 H -0.7937 0.1758 0.0130
C78 C -0.90227(13) 0.20183(8) -0.09993(13)
H48 H -0.8867 0.2432 -0.1004
C79 C -0.98149(13) 0.18151(8) -0.16829(13)
H49 H -1.0171 0.2085 -0.2124
N10 N -1.23484(13) 0.19237(8) -0.01039(13)
O25 O -1.28102(13) 0.17379(8) -0.08923(13)
O26 O -1.23976(13) 0.16834(8) 0.07323(13)
C86 C -1.17082(13) 0.24590(8) -0.01624(13)
C87 C -1.11528(13) 0.26566(8) 0.07219(13)
H55 H -1.1180 0.2454 0.1314
C88 C -1.05514(13) 0.31632(8) 0.06624(13)
H56 H -1.0154 0.3334 0.1311
C89 C -1.05114(13) 0.34587(8) -0.02637(13)
H57 H -1.0102 0.3812 -0.0289
C90 C -1.10655(13) 0.32477(8) -0.11418(13)
H58 H -1.1036 0.3434 -0.1785
C91 C -1.16725(13) 0.27418(8) -0.10993(13)
H59 H -1.2033 0.2599 -0.1694
loop_
_geom_bond_atom_site_label_1
_geom_bond_atom_site_label_2
_geom_bond_site_symmetry_1
_geom_bond_site_symmetry_2
Zn1 O1 1_555 1_555
Zn2 O2 1_555 1_555
O1 C1 1_555 1_555
C1 O2 1_555 1_555
O3 Zn1 1_555 1_555
C2 O3 1_555 1_555
O4 Zn2 1_555 1_555
O5 C3 1_555 1_555
C3 O6 1_555 1_555
O6 Zn2_2 1_555 1_555
O7 C4 1_555 1_555
C4 O8 1_555 1_555
O8 Zn2_3 1_555 1_555
N1 Zn1 1_555 1_555
C5 N1 1_555 1_555
H1 C5 1_555 1_555
C6 C5 1_555 1_555
H2 C6 1_555 1_555
C7 C6 1_555 1_555
C8 C7 1_555 1_555
H3 C8 1_555 1_555
C9 N1 1_555 1_555
H4 C9 1_555 1_555
N2 C7 1_555 1_555
C10 N2 1_555 1_555
C11 C10 1_555 1_555
C12 C11 1_555 1_555
H5 C12 1_555 1_555
C13 C12 1_555 1_555
H6 C13 1_555 1_555
C14 C13 1_555 1_555
C15 C14 1_555 1_555
C16 C15 1_555 1_555
C17 C16 1_555 1_555
C18 C17 1_555 1_555
C19 C18 1_555 1_555
H7 C19 1_555 1_555
C20 C19 1_555 1_555
H8 C20 1_555 1_555
C21 C20 1_555 1_555
C22 N2 1_555 1_555
C23 C11 1_555 1_555
C24 C14 1_555 1_555
O9 C10 1_555 1_555
O10 C15 1_555 1_555
O11 C17 1_555 1_555
O12 C22 1_555 1_555
C25 C2 1_555 1_555
C26 C25 1_555 1_555
H9 C26 1_555 1_555
C27 C26 1_555 1_555
H10 C27 1_555 1_555
C28 C27 1_555 1_555
C29 C28 1_555 1_555
H11 C29 1_555 1_555
C30 C4 1_555 1_555
C31 C30 1_555 1_555
H12 C31 1_555 1_555
C32 C31 1_555 1_555
H13 C32 1_555 1_555
C33 C28 1_555 1_555
C34 C25 1_555 1_555
H14 C34 1_555 1_555
C35 C1 1_555 1_555
C36 C35 1_555 1_555
H15 C36 1_555 1_555
C37 C36 1_555 1_555
H16 C37 1_555 1_555
C38 C37 1_555 1_555
C39 C38 1_555 1_555
H17 C39 1_555 1_555
C40 C3 1_555 1_555
C41 C40 1_555 1_555
H18 C41 1_555 1_555
C42 C41 1_555 1_555
H19 C42 1_555 1_555
C43 C38 1_555 1_555
C44 C35 1_555 1_555
H20 C44 1_555 1_555
N3 C45 1_555 1_555
C45 H21 1_555 1_555
C46 C45 1_555 1_555
H22 C46 1_555 1_555
C47 C16 1_555 1_555
C48 C47 1_555 1_555
H23 C48 1_555 1_555
C49 N3 1_555 1_555
H24 C49 1_555 1_555
N4 O13 1_555 1_555
O14 N4 1_555 1_555
C50 N4 1_555 1_555
C51 C50 1_555 1_555
H25 C51 1_555 1_555
C52 C51 1_555 1_555
H26 C52 1_555 1_555
C53 C52 1_555 1_555
H27 C53 1_555 1_555
C54 C53 1_555 1_555
H28 C54 1_555 1_555
C55 C50 1_555 1_555
H29 C55 1_555 1_555
N5 O15 1_555 1_555
O16 N5 1_555 1_555
C56 N5 1_555 1_555
C57 C56 1_555 1_555
H30 C57 1_555 1_555
C58 C57 1_555 1_555
H31 C58 1_555 1_555
C59 C58 1_555 1_555
H32 C59 1_555 1_555
C60 C59 1_555 1_555
H33 C60 1_555 1_555
C61 C56 1_555 1_555
H34 C61 1_555 1_555
N7 O19 1_555 1_555
O20 N7 1_555 1_555
C68 N7 1_555 1_555
C69 C68 1_555 1_555
H40 C69 1_555 1_555
C70 C69 1_555 1_555
H41 C70 1_555 1_555
C71 C70 1_555 1_555
H42 C71 1_555 1_555
C72 C71 1_555 1_555
H43 C72 1_555 1_555
C73 C68 1_555 1_555
H44 C73 1_555 1_555
N8 O21 1_555 1_555
O22 N8 1_555 1_555
C74 N8 1_555 1_555
C75 C74 1_555 1_555
H45 C75 1_555 1_555
C76 C75 1_555 1_555
H46 C76 1_555 1_555
C77 C76 1_555 1_555
H47 C77 1_555 1_555
C78 C77 1_555 1_555
H48 C78 1_555 1_555
C79 C74 1_555 1_555
H49 C79 1_555 1_555
N10 O25 1_555 1_555
O26 N10 1_555 1_555
C86 N10 1_555 1_555
C87 C86 1_555 1_555
H55 C87 1_555 1_555
C88 C87 1_555 1_555
H56 C88 1_555 1_555
C89 C88 1_555 1_555
H57 C89 1_555 1_555
C90 C89 1_555 1_555
H58 C90 1_555 1_555
C91 C86 1_555 1_555
H59 C91 1_555 1_555
Zn1_2 O5 1_555 1_555
Zn1_3 O7 1_555 1_555
Zn2_4 N3 1_555 1_555
O5_2 Zn1 1_555 1_555
O6_2 Zn2 1_555 1_555
O7_2 Zn1 1_555 1_555
O8_2 Zn2 1_555 1_555
N3_2 Zn2 1_555 1_555
C2 O4 1_555 1_555
C8 C9 1_555 1_555
C18 C24 1_555 1_555
C21 C22 1_555 1_555
C21 C23 1_555 1_555
C23 C24 1_555 1_555
C29 C30 1_555 1_555
C32 C33 1_555 1_555
C33 C34 1_555 1_555
C39 C40 1_555 1_555
C42 C43 1_555 1_555
C43 C44 1_555 1_555
C46 C47 1_555 1_555
C48 C49 1_555 1_555
C54 C55 1_555 1_555
C60 C61 1_555 1_555
C72 C73 1_555 1_555
C78 C79 1_555 1_555
C90 C91 1_555 1_555

#END
