
#######################################################################
#
#                 Cambridge Crystallographic Data Centre
#                                CCDC 
#
#######################################################################
#
# If this CIF has been generated from an entry in the Cambridge 
# Structural Database, then it will include bibliographic, chemical, 
# crystal, experimental, refinement or atomic coordinate data resulting 
# from the CCDC's data processing and validation procedures.
#
#######################################################################

data_MOSDUT
_chemical_formula_moiety         'C25 H6 Co3 N24 O2'
_symmetry_cell_setting           monoclinic
_symmetry_space_group_name_H-M   'P 21/c'
_symmetry_Int_Tables_number      14
_space_group_name_Hall           '-P 2ybc'
loop_
_symmetry_equiv_pos_site_id
_symmetry_equiv_pos_as_xyz
1 x,y,z
2 x,1/2-y,1/2+z
3 -x,-y,-z
4 -x,1/2+y,1/2-z
_cell_length_a                   13.655(3)
_cell_length_b                   15.189(3)
_cell_length_c                   22.367(4)
_cell_angle_alpha                90.00
_cell_angle_beta                 114.100(2)
_cell_angle_gamma                90.00
_cell_volume                     4234.68
loop_
_atom_site_label
_atom_site_type_symbol
_atom_site_fract_x
_atom_site_fract_y
_atom_site_fract_z
Co1 Co 0.21635(8) 0.74093(8) 0.46109(5)
Co2 Co 0.78416(8) 0.74297(8) 0.60305(5)
Co3 Co 0.50124(10) 0.63425(9) 0.79981(5)
O1 O 0.2198(5) 0.6033(4) 0.4463(3)
O2 O 0.7821(6) 0.6043(5) 0.5867(3)
N1 N 0.2795(5) 0.7054(5) 0.5662(3)
N2 N 0.3875(5) 0.7409(4) 0.4898(3)
N3 N 0.6126(5) 0.7433(4) 0.5467(3)
N4 N 0.7219(6) 0.7070(5) 0.6769(3)
N5 N 0.6087(6) 0.6689(6) 0.7533(3)
N6 N 0.3917(6) 0.6649(5) 0.6991(3)
N7 N 0.2287(5) 0.8711(7) 0.4889(4)
N8 N 0.2353(7) 1.0205(7) 0.5237(4)
N9 N 0.6242(6) 0.6009(6) 0.8868(4)
N10 N 0.1844(5) 0.7564(5) 0.3636(3)
N11 N 0.1283(6) 0.7767(7) 0.2466(4)
N12 N 0.9409(6) 0.7342(6) 0.6668(3)
N13 N 0.0581(6) 0.7350(5) 0.4461(3)
N15 N -0.1314(14) 0.735(2) 0.4303(8)
N16 N 0.8154(5) 0.7574(5) 0.5207(3)
N17 N 0.7758(6) 0.8737(7) 0.6234(4)
N18 N 0.7641(7) 1.0238(6) 0.6555(5)
N19 N 0.3752(6) 0.5987(5) 0.8249(3)
N20 N 0.4991(7) 0.7627(7) 0.8248(3)
C1 C 0.4940(11) 0.8568(10) 0.8118(8)
C2 C 0.3868(7) 0.7028(6) 0.5945(4)
C3 C 0.4468(7) 0.7248(6) 0.5549(4)
C4 C 0.5558(7) 0.7252(6) 0.5822(4)
C5 C 0.6144(7) 0.7047(6) 0.6514(4)
C6 C 0.5604(7) 0.6845(7) 0.6905(4)
C7 C 0.4409(7) 0.6834(7) 0.6603(4)
C8 C 0.2849(7) 0.6642(7) 0.6707(4)
H1 H 0.2461 0.6505 0.6964
C9 C 0.2288(8) 0.6831(7) 0.6046(4)
H2 H 0.1526 0.6802 0.5859
C10 C 0.4434(7) 0.7574(6) 0.4555(4)
H3 H 0.4065 0.7699 0.4101
C11 C 0.5565(6) 0.7572(5) 0.4837(4)
H4 H 0.5934 0.7673 0.4564
C12 C 0.7705(8) 0.6921(7) 0.7403(4)
H5 H 0.8466 0.6945 0.7607
C13 C 0.7145(8) 0.6731(8) 0.7783(4)
H6 H 0.7535 0.6628 0.8238
C14 C 0.2373(7) 0.9417(9) 0.5093(5)
C15 C 0.6850(9) 0.5607(7) 0.9274(5)
C16 C 0.1548(6) 0.7646(6) 0.3100(4)
C17 C 1.0261(8) 0.7309(7) 0.7062(4)
C18 C -0.0270(7) 0.7467(8) 0.4422(4)
C19 C 0.8451(6) 0.7608(7) 0.4819(4)
C20 C 0.7639(7) 0.9440(9) 0.6400(5)
C21 C 0.3132(9) 0.5578(7) 0.8357(5)
N21 N 0.5101(6) 0.5085(6) 0.7646(4)
C15C C 0.3150(9) 1.0607(7) 0.5726(5)
C17A C 0.0261(8) 0.7691(7) 0.2062(4)
C19_2 C -0.1549(6) 0.7608(7) 0.4819(4)
C21C C 0.6868(9) 1.0578(7) 0.6643(5)
N8C N 0.7647(7) 0.5205(7) 0.9763(4)
N11A N 1.1283(6) 0.7233(7) 0.7466(4)
N15_2 N 0.8686(14) 0.735(2) 0.4303(8)
N18C N 0.2359(7) 0.5238(6) 0.8445(5)
loop_
_geom_bond_atom_site_label_1
_geom_bond_atom_site_label_2
_geom_bond_site_symmetry_1
_geom_bond_site_symmetry_2
Co1 O1 1_555 1_555
Co2 O2 1_555 1_555
Co3 N5 1_555 1_555
N1 Co1 1_555 1_555
N2 Co1 1_555 1_555
N3 Co2 1_555 1_555
N4 Co2 1_555 1_555
N5 C6 1_555 1_555
N6 Co3 1_555 1_555
N7 Co1 1_555 1_555
N8 C14 1_555 1_555
N9 Co3 1_555 1_555
N10 Co1 1_555 1_555
N11 C16 1_555 1_555
N12 Co2 1_555 1_555
N13 Co1 1_555 1_555
N15 C18 1_555 1_555
N16 Co2 1_555 1_555
N17 Co2 1_555 1_555
N18 C20 1_555 1_555
N19 Co3 1_555 1_555
N20 Co3 1_555 1_555
C1 N20 1_555 1_555
C2 N1 1_555 1_555
C3 N2 1_555 1_555
C4 N3 1_555 1_555
C5 N4 1_555 1_555
C6 C5 1_555 1_555
C7 N6 1_555 1_555
C8 N6 1_555 1_555
H1 C8 1_555 1_555
C9 N1 1_555 1_555
H2 C9 1_555 1_555
C10 N2 1_555 1_555
H3 C10 1_555 1_555
C11 N3 1_555 1_555
H4 C11 1_555 1_555
C12 N4 1_555 1_555
H5 C12 1_555 1_555
C13 N5 1_555 1_555
H6 C13 1_555 1_555
C14 N7 1_555 1_555
C15 N9 1_555 1_555
C16 N10 1_555 1_555
C17 N12 1_555 1_555
C18 N13 1_555 1_555
C19 N16 1_555 1_555
C20 N17 1_555 1_555
C21 N19 1_555 1_555
N21 Co3 1_555 1_555
C15C N8 1_555 1_555
C17A N11 1_555 1_555
C19_2 N15 1_555 1_555
C21C N18 1_555 1_555
N8C C15 1_555 1_555
N11A C17 1_555 1_555
N15_2 C19 1_555 1_555
N18C C21 1_555 1_555
C2 C3 1_555 1_555
C2 C7 1_555 1_555
C3 C4 1_555 1_555
C4 C5 1_555 1_555
C6 C7 1_555 1_555
C8 C9 1_555 1_555
C10 C11 1_555 1_555
C12 C13 1_555 1_555

#END
