
#######################################################################
#
#                 Cambridge Crystallographic Data Centre
#                                CCDC 
#
#######################################################################
#
# If this CIF has been generated from an entry in the Cambridge 
# Structural Database, then it will include bibliographic, chemical, 
# crystal, experimental, refinement or atomic coordinate data resulting 
# from the CCDC's data processing and validation procedures.
#
#######################################################################

data_PAQJUM
_chemical_formula_moiety         '(C22 H50 Al6 N2 O24 P6 1-)n'
_symmetry_cell_setting           rhombohedral
_symmetry_space_group_name_H-M   'R -3'
_symmetry_Int_Tables_number      148
_space_group_name_Hall           '-R 3'
loop_
_symmetry_equiv_pos_site_id
_symmetry_equiv_pos_as_xyz
1 x,y,z
2 -y,x-y,z
3 -x+y,-x,z
4 1/3+x,2/3+y,2/3+z
5 1/3-y,2/3+x-y,2/3+z
6 1/3-x+y,2/3-x,2/3+z
7 2/3+x,1/3+y,1/3+z
8 2/3-y,1/3+x-y,1/3+z
9 2/3-x+y,1/3-x,1/3+z
10 -x,-y,-z
11 y,-x+y,-z
12 x-y,x,-z
13 2/3-x,1/3-y,1/3-z
14 2/3+y,1/3-x+y,1/3-z
15 2/3+x-y,1/3+x,1/3-z
16 1/3-x,2/3-y,2/3-z
17 1/3+y,2/3-x+y,2/3-z
18 1/3+x-y,2/3+x,2/3-z
_cell_length_a                   12.726(2)
_cell_length_b                   12.726(2)
_cell_length_c                   30.939(6)
_cell_angle_alpha                90
_cell_angle_beta                 90
_cell_angle_gamma                120.00
_cell_volume                     4339.31
loop_
_atom_site_label
_atom_site_type_symbol
_atom_site_fract_x
_atom_site_fract_y
_atom_site_fract_z
N1 N 0.00000 0.00000 0.10248(42)
C1 C 0.00000 0.00000 0.18419(58)
C2 C -0.0415(14) 0.0827(14) 0.1662(67)
C3 C -0.0415(14) 0.0787(14) 0.11770(61)
C4 C -0.0312 0.03509 0.05560
C5 C 0.00000 0.00000 0.02411(86)
H1 H 0.0000 0.0000 0.2147
H2 H 0.0103 0.1631 0.1757
H3 H -0.1222 0.0567 0.1762
H4 H 0.0090 0.1580 0.1069
H5 H -0.1226 0.0498 0.1075
H6 H 0.0075 0.1208 0.0540
H7 H -0.1164 0.0017 0.0540
H8 H -0.0322 0.0529 0.0249
H9 H -0.0211 0.0263 -0.0015
C2A C -0.0827(14) -0.1242(20) 0.1662(67)
C3A C -0.0787(14) -0.1202(20) 0.11770(61)
C3B C 0.1202(20) 0.0415(14) 0.11770(61)
C2B C 0.1242(20) 0.0415(14) 0.1662(67)
H2B H 0.1528 -0.0103 0.1757
H3B H 0.1789 0.1222 0.1762
H4B H 0.1490 -0.0090 0.1069
H5B H 0.1724 0.1226 0.1075
C4A C -0.03509 -0.06629 0.05560
C4B C 0.06629 0.0312 0.05560
C5I C -0.00000 0.00000 -0.02411(86)
C4I C 0.0312 -0.03509 -0.05560
N1I N -0.00000 0.00000 -0.10248(42)
C3I C 0.0415(14) -0.0787(14) -0.11770(61)
C2I C 0.0415(14) -0.0827(14) -0.1662(67)
C1I C -0.00000 0.00000 -0.18419(58)
C2J C 0.0827(14) 0.1242(20) -0.1662(67)
C3J C 0.0787(14) 0.1202(20) -0.11770(61)
C3K C -0.1202(20) -0.0415(14) -0.11770(61)
C2K C -0.1242(20) -0.0415(14) -0.1662(67)
H1I H 0.0000 0.0000 -0.2147
H2K H -0.1528 0.0103 -0.1757
H3K H -0.1789 -0.1222 -0.1762
H4K H -0.1490 0.0090 -0.1069
H5K H -0.1724 -0.1226 -0.1075
C4J C 0.03509 0.06629 -0.05560
C4K C -0.06629 -0.0312 -0.05560
H6I H -0.0075 -0.1208 -0.0540
H7I H 0.1164 -0.0017 -0.0540
H8I H 0.0322 -0.0529 -0.0249
H8J H 0.0529 0.0851 -0.0249
H6J H 0.1208 0.1133 -0.0540
H7J H 0.0017 0.1181 -0.0540
H8K H -0.0851 -0.0322 -0.0249
H6K H -0.1133 0.0075 -0.0540
H7K H -0.1181 -0.1164 -0.0540
H9I H 0.0211 -0.0263 0.0015
H8A H -0.0529 -0.0851 0.0249
H6A H -0.1208 -0.1133 0.0540
H7A H -0.0017 -0.1181 0.0540
H8B H 0.0851 0.0322 0.0249
H6B H 0.1133 -0.0075 0.0540
H7B H 0.1181 0.1164 0.0540
H9J H 0.0263 0.0474 0.0015
H9A H -0.0263 -0.0474 -0.0015
H9K H -0.0474 -0.0211 0.0015
H9B H 0.0474 0.0211 -0.0015
H4J H 0.1580 0.1490 -0.1069
H5J H 0.0498 0.1724 -0.1075
H2J H 0.1631 0.1528 -0.1757
H3J H 0.0567 0.1789 -0.1762
H2I H -0.0103 -0.1631 -0.1757
H3I H 0.1222 -0.0567 -0.1762
H4I H -0.0090 -0.1580 -0.1069
H5I H 0.1226 -0.0498 -0.1075
H4A H -0.1580 -0.1490 0.1069
H5A H -0.0498 -0.1724 0.1075
H2A H -0.1631 -0.1528 0.1757
H3A H -0.0567 -0.1789 0.1762
Al1 Al 0.75330(12) 0.75722(13) 0.29540(5)
Al2 Al 0.57616(14) 0.90230(14) 0.21646(5)
P1 P 0.57783(12) 0.90432(12) 0.11444(65)
P2 P 0.75682(11) 1.00127(10) 0.29140(4)
O1 O 0.61376(41) 0.93930(40) 0.16168(14)
O2 O 0.53414(38) 0.75325(36) 0.22506(15)
O3 O 0.79283(39) 0.90717(36) 0.29395(17)
O4 O 0.46125(35) 0.92799(41) 0.23103(15)
O5 O 0.70143(39) 0.99588(39) 0.2472(15)
O6 O 0.87760(37) 0.74202(36) 0.29679(18)
O7 O 0.66441(44) 0.68355(45) 0.33993(16)
O8 O 0.67590(40) 0.68627(38) 0.24778(15)
O2N O 0.44756(52) 0.86747(38) 0.10827(15)
Al2N Al 0.34053(20) 0.90949(14) 0.11687(5)
O1N O 0.34113(57) 0.94709(41) 0.17165(14)
P1N P 0.34018(17) 0.91116(12) 0.21889(65)
O2A O 0.24675(36) 0.78089(52) 0.22506(15)
Al2A Al 0.09770(14) 0.67386(20) 0.21646(5)
Al2B Al 0.32614(20) 0.42384(14) 0.21646(5)
O2M O 0.41992(36) 0.55244(52) 0.10827(15)
Al2M Al 0.56897(14) 0.65947(20) 0.11687(5)
O1M O 0.60597(40) 0.65887(57) 0.17165(14)
P1M P 0.57099(12) 0.65982(17) 0.21889(65)
O8A O 0.31373(38) 0.98963(55) 0.24778(15)
Al1A Al 0.24278(13) 0.99608(18) 0.29540(5)
O4B O 0.46674(54) 0.53875(35) 0.23103(15)
P2A P 0.99873(10) 0.75555(15) 0.29140(4)
O3A O 1.09283(36) 0.88566(53) 0.29395(17)
O5A O 1.00412(39) 0.70555(55) 0.2472(15)
O7P O 1.01688(45) 0.68581(63) 0.32674(16)
Al1P Al 1.09055(13) 0.67059(18) 0.37127(5)
O8O O 0.65743(40) 0.98040(38) 0.41889(15)
Al1O Al 0.58003(12) 0.90945(13) 0.37127(5)
O3O O 0.54050(39) 0.75950(36) 0.37272(17)
P2O P 0.57651(11) 0.66540(10) 0.37527(4)
O5O O 0.63190(39) 0.67079(39) 0.4195(15)
Al2O Al 0.75717(14) 0.76437(14) 0.45021(5)
Al1Q Al 0.32941(18) 0.41997(12) 0.37127(5)
O6Q O 0.46891(52) 0.54427(37) 0.36988(18)
O6O O 0.45573(37) 0.92465(36) 0.36988(18)
O7O O 0.66892(44) 0.98312(45) 0.32674(16)
O4M O 0.59466(41) 0.80007(54) 0.10230(15)
O5M O 0.66255(39) 0.62778(55) 0.0861(15)
O4N O 0.19993(54) 0.79458(35) 0.10230(15)
O5N O 0.37222(55) 1.03476(39) 0.0861(15)
O8N O 0.65630(55) 1.00923(40) 0.08555(15)
O6B O 0.86442(52) 1.12240(37) 0.29679(18)
Al1A_2 Al 1.24278(13) 0.99608(18) 0.29540(5)
Al2A_2 Al 1.09770(14) 0.67386(20) 0.21646(5)
Al1B Al 1.00392(18) 1.24670(12) 0.29540(5)
P2N P 0.42222(15) 1.09015(11) 0.04193(4)
Al1N Al 0.66275(18) 1.08663(12) 0.03793(5)
O3N O 0.55233(53) 1.12616(39) 0.03938(17)
O6N O 0.80225(52) 1.21093(37) 0.03654(18)
O7N O 0.64753(63) 0.99774(44) -0.00660(16)
loop_
_geom_bond_atom_site_label_1
_geom_bond_atom_site_label_2
_geom_bond_site_symmetry_1
_geom_bond_site_symmetry_2
Al1 O3 1_555 1_555
Al2 O1 1_555 1_555
P1 O1 1_555 1_555
P2 O3 1_555 1_555
O2 Al2 1_555 1_555
O4 Al2 1_555 1_555
O5 Al2 1_555 1_555
O6 Al1 1_555 1_555
O7 Al1 1_555 1_555
O8 Al1 1_555 1_555
N1 C3 1_555 1_555
C1 C2 1_555 1_555
C2 C3 1_555 1_555
C3 H4 1_555 1_555
C4 N1 1_555 1_555
C5 C4 1_555 1_555
H1 C1 1_555 1_555
H2 C2 1_555 1_555
H3 C2 1_555 1_555
H5 C3 1_555 1_555
H6 C4 1_555 1_555
H7 C4 1_555 1_555
H8 C4 1_555 1_555
H9 C5 1_555 1_555
O2N P1 1_555 1_555
Al2N O2N 1_555 1_555
O1N Al2N 1_555 1_555
P1N O4 1_555 1_555
O2A P1N 1_555 1_555
Al2A O2A 1_555 1_555
Al2B O4B 1_555 1_555
O2M Al2M 1_555 1_555
Al2M O1M 1_555 1_555
O1M P1M 1_555 1_555
P1M O2 1_555 1_555
O8A P1N 1_555 1_555
Al1A O8A 1_555 1_555
O4B P1M 1_555 1_555
P2A O6 1_555 1_555
O3A P2A 1_555 1_555
O5A P2A 1_555 1_555
O7P P2A 1_555 1_555
Al1P O7P 1_555 1_555
O8O Al1O 1_555 1_555
Al1O O3O 1_555 1_555
O3O P2O 1_555 1_555
P2O O7 1_555 1_555
O5O P2O 1_555 1_555
Al2O O5O 1_555 1_555
Al1Q O6Q 1_555 1_555
O6Q P2O 1_555 1_555
O6O Al1O 1_555 1_555
O7O P2 1_555 1_555
O4M P1 1_555 1_555
O5M Al2M 1_555 1_555
O4N Al2N 1_555 1_555
O5N Al2N 1_555 1_555
O8N P1 1_555 1_555
O6B P2 1_555 1_555
C2A C1 1_555 1_555
C3A N1 1_555 1_555
C3B N1 1_555 1_555
C2B C1 1_555 1_555
H2B C2B 1_555 1_555
H3B C2B 1_555 1_555
H4B C3B 1_555 1_555
H5B C3B 1_555 1_555
C4A N1 1_555 1_555
C4B N1 1_555 1_555
C5I C5 1_555 1_555
C4I C5I 1_555 1_555
N1I C4I 1_555 1_555
C3I N1I 1_555 1_555
C2I C3I 1_555 1_555
C1I C2I 1_555 1_555
C2J C1I 1_555 1_555
C3J N1I 1_555 1_555
C3K N1I 1_555 1_555
C2K C1I 1_555 1_555
H1I C1I 1_555 1_555
H2K C2K 1_555 1_555
H3K C2K 1_555 1_555
H4K C3K 1_555 1_555
H5K C3K 1_555 1_555
C4J C5I 1_555 1_555
C4K C5I 1_555 1_555
H6I C4I 1_555 1_555
H7I C4I 1_555 1_555
H8I C5I 1_555 1_555
H8J C5I 1_555 1_555
H6J C4J 1_555 1_555
H7J C4J 1_555 1_555
H8K C5I 1_555 1_555
H6K C4K 1_555 1_555
H7K C4K 1_555 1_555
H9I C5 1_555 1_555
H8A C5 1_555 1_555
H6A C4A 1_555 1_555
H7A C4A 1_555 1_555
H8B C5 1_555 1_555
H6B C4B 1_555 1_555
H7B C4B 1_555 1_555
H9J C5 1_555 1_555
H9A C5 1_555 1_555
H9K C5 1_555 1_555
H9B C5 1_555 1_555
H4J C3J 1_555 1_555
H5J C3J 1_555 1_555
H2J C2J 1_555 1_555
H3J C2J 1_555 1_555
H2I C2I 1_555 1_555
H3I C2I 1_555 1_555
H4I C3I 1_555 1_555
H5I C3I 1_555 1_555
H4A C3A 1_555 1_555
H5A C3A 1_555 1_555
H2A C2A 1_555 1_555
H3A C2A 1_555 1_555
Al1A_2 O3A 1_555 1_555
Al2A_2 O5A 1_555 1_555
Al1B O6B 1_555 1_555
P2N O5N 1_555 1_555
Al1N O8N 1_555 1_555
O3N P2N 1_555 1_555
O6N Al1N 1_555 1_555
O7N Al1N 1_555 1_555
P2 O5 1_555 1_555
O8 P1M 1_555 1_555
C4 C4A 1_555 1_555
C4 C4B 1_555 1_555
C5 H8 1_555 1_555
C5 C4B 1_555 1_555
C5 C4A 1_555 1_555
H9 C5I 1_555 1_555
H9 H9K 1_555 1_555
H9 H9J 1_555 1_555
O1N P1N 1_555 1_555
Al2M O4M 1_555 1_555
Al1O O7O 1_555 1_555
C2A C3A 1_555 1_555
C3B C2B 1_555 1_555
C4A C4B 1_555 1_555
C4A H8A 1_555 1_555
C4B H8B 1_555 1_555
C5I H9I 1_555 1_555
C5I H9J 1_555 1_555
C5I H9K 1_555 1_555
C5I H9A 1_555 1_555
C5I H9B 1_555 1_555
C4I H8I 1_555 1_555
C4I C4J 1_555 1_555
C4I C4K 1_555 1_555
N1I C4J 1_555 1_555
N1I C4K 1_555 1_555
C2J C3J 1_555 1_555
C3K C2K 1_555 1_555
C4J C4K 1_555 1_555
C4J H8J 1_555 1_555
C4K H8K 1_555 1_555
H9I H9B 1_555 1_555
H9I H9A 1_555 1_555
H9J H9B 1_555 1_555
H9A H9K 1_555 1_555
Al1N O3N 1_555 1_555

#END
