
#######################################################################
#
#                 Cambridge Crystallographic Data Centre
#                                CCDC 
#
#######################################################################
#
# If this CIF has been generated from an entry in the Cambridge 
# Structural Database, then it will include bibliographic, chemical, 
# crystal, experimental, refinement or atomic coordinate data resulting 
# from the CCDC's data processing and validation procedures.
#
#######################################################################

data_MOGYAI
_chemical_formula_moiety         '(C28 H24 Ag17 F24 N1 O39)n'
_symmetry_cell_setting           orthorhombic
_symmetry_space_group_name_H-M   'P m n 21'
_symmetry_Int_Tables_number      31
_space_group_name_Hall           'P 2ac -2'
loop_
_symmetry_equiv_pos_site_id
_symmetry_equiv_pos_as_xyz
1 x,y,z
2 1/2-x,-y,1/2+z
3 1/2+x,-y,1/2+z
4 -x,y,z
_cell_length_a                   14.8459(6)
_cell_length_b                   10.5569(4)
_cell_length_c                   19.0663(7)
_cell_angle_alpha                90
_cell_angle_beta                 90
_cell_angle_gamma                90
_cell_volume                     2988.2
loop_
_atom_site_label
_atom_site_type_symbol
_atom_site_fract_x
_atom_site_fract_y
_atom_site_fract_z
Ag1 Ag -0.0000 0.43213(13) 0.73442(8)
Ag2 Ag -0.14975(5) 0.35116(7) 0.64761(5)
Ag3 Ag -0.10244(7) 0.12732(10) 0.54826(6)
Ag4 Ag -0.0000 0.41043(11) 0.54861(7)
Ag5 Ag 0.0000 0.13057(16) 0.74869(8)
Ag6 Ag 0.0000 0.96611(11) 0.91602(7)
Ag7 Ag 0.15035(5) 0.85260(7) 0.98440(4)
Ag8 Ag 0.11109(6) 0.64416(8) 1.08248(5)
Ag9 Ag 0.0000 0.91326(11) 1.08418(6)
Ag10 Ag -0.0000 0.68861(16) 0.86268(8)
Ag11 Ag -0.0000 0.48007(10) 0.99711(8)
Ag12 Ag -0.0000 0.76260(16) 0.57454(10)
Ag13 Ag -0.0000 0.33192(17) 1.18624(12)
C1 C 0.0000 0.2780(12) 0.6640(7)
C2 C -0.0000 0.2020(14) 0.6166(8)
C3 C -0.0000 0.7895(11) 0.9729(8)
C4 C 0.0000 0.6882(12) 1.0038(8)
N1 N 0.0000 0.8455(18) 0.7181(10)
O1 O -0.0000 0.9227(14) 0.6703(10)
O2 O -0.0000 0.7288(13) 0.7052(10)
O3 O -0.0000 0.882(2) 0.7812(8)
O4 O -0.0942(5) 0.1010(8) 0.8553(4)
O5 O -0.2154(4) 0.0037(7) 0.9011(4)
O6 O -0.2914(5) 0.2430(6) 0.6552(4)
O7 O -0.4006(5) 0.1077(8) 0.6828(4)
F1 F -0.3215(4) 0.1748(7) 0.8375(4)
F2 F -0.2035(5) 0.2641(6) 0.7933(3)
F3 F -0.2880(5) -0.0345(6) 0.7553(4)
F4 F -0.1763(4) 0.0640(7) 0.7067(4)
C5 C -0.1788(7) 0.0780(9) 0.8593(5)
C6 C -0.2414(7) 0.1497(8) 0.8093(5)
C7 C -0.2594(7) 0.0827(9) 0.7392(6)
C8 C -0.3245(7) 0.1499(8) 0.6871(6)
O8 O 0.0996(4) 0.5507(7) 0.7971(4)
O9 O 0.2164(5) 0.5090(7) 0.7270(4)
O10 O 0.2893(5) 0.7473(6) 0.9796(4)
O11 O 0.4000(5) 0.6207(8) 0.9451(5)
F5 F 0.3191(5) 0.6691(8) 0.7965(4)
F6 F 0.1964(5) 0.7596(6) 0.8370(4)
F7 F 0.2881(4) 0.4655(5) 0.8867(4)
F8 F 0.1757(4) 0.5712(6) 0.9314(4)
C9 C 0.1797(7) 0.5580(10) 0.7781(5)
C10 C 0.2378(7) 0.6460(10) 0.8273(6)
C11 C 0.2554(6) 0.5840(8) 0.8983(5)
C12 C 0.3195(6) 0.6581(10) 0.9454(6)
O12 O -0.2396(5) 0.4845(6) 0.5740(4)
O13 O -0.1081(5) 0.5872(7) 0.5652(5)
O14 O -0.3886(5) 0.9065(7) 0.5550(5)
O15 O -0.2604(5) 1.0143(6) 0.5591(4)
F9 F -0.3195(4) 0.6697(6) 0.5051(4)
F10 F -0.1912(4) 0.7606(6) 0.4856(4)
F11 F -0.1807(5) 0.8256(6) 0.6244(4)
F12 F -0.3110(5) 0.7389(6) 0.6422(4)
C13 C -0.1906(7) 0.5797(9) 0.5599(6)
C14 C -0.2406(6) 0.7000(9) 0.5371(6)
C15 C -0.2589(7) 0.7976(8) 0.5941(5)
C16 C -0.3073(7) 0.9192(8) 0.5675(6)
O16 O 0.0000 0.3502(13) 0.8931(8)
O17 O -0.0000 0.2850(10) 1.0555(6)
O18 O 0.1042(5) 0.5112(7) 1.1852(5)
O19 O -0.1095(5) 0.0157(8) 0.4440(5)
O20 O 0.0000 0.8161(11) 0.4565(7)
O21 O -0.0000 0.1118(19) 1.2263(10)
O18C O -0.1042(5) 0.5112(7) 1.1852(5)
O8C O -0.0996(4) 0.5507(7) 0.7971(4)
O9C O -0.2164(5) 0.5090(7) 0.7270(4)
O10C O -0.2893(5) 0.7473(6) 0.9796(4)
O11C O -0.4000(5) 0.6207(8) 0.9451(5)
F5C F -0.3191(5) 0.6691(8) 0.7965(4)
F6C F -0.1964(5) 0.7596(6) 0.8370(4)
F7C F -0.2881(4) 0.4655(5) 0.8867(4)
F8C F -0.1757(4) 0.5712(6) 0.9314(4)
C9C C -0.1797(7) 0.5580(10) 0.7781(5)
C10C C -0.2378(7) 0.6460(10) 0.8273(6)
C11C C -0.2554(6) 0.5840(8) 0.8983(5)
C12C C -0.3195(6) 0.6581(10) 0.9454(6)
Ag2C Ag 0.14975(5) 0.35116(7) 0.64761(5)
Ag3C Ag 0.10244(7) 0.12732(10) 0.54826(6)
Ag7C Ag -0.15035(5) 0.85260(7) 0.98440(4)
O12C O 0.2396(5) 0.4845(6) 0.5740(4)
O13C O 0.1081(5) 0.5872(7) 0.5652(5)
O14C O 0.3886(5) 0.9065(7) 0.5550(5)
O15C O 0.2604(5) 1.0143(6) 0.5591(4)
F9C F 0.3195(4) 0.6697(6) 0.5051(4)
F10C F 0.1912(4) 0.7606(6) 0.4856(4)
F11C F 0.1807(5) 0.8256(6) 0.6244(4)
F12C F 0.3110(5) 0.7389(6) 0.6422(4)
C13C C 0.1906(7) 0.5797(9) 0.5599(6)
C14C C 0.2406(6) 0.7000(9) 0.5371(6)
C15C C 0.2589(7) 0.7976(8) 0.5941(5)
C16C C 0.3073(7) 0.9192(8) 0.5675(6)
O4C O 0.0942(5) 0.1010(8) 0.8553(4)
O5C O 0.2154(4) 0.0037(7) 0.9011(4)
O6C O 0.2914(5) 0.2430(6) 0.6552(4)
O7C O 0.4006(5) 0.1077(8) 0.6828(4)
F1C F 0.3215(4) 0.1748(7) 0.8375(4)
F2C F 0.2035(5) 0.2641(6) 0.7933(3)
F3C F 0.2880(5) -0.0345(6) 0.7553(4)
F4C F 0.1763(4) 0.0640(7) 0.7067(4)
C5C C 0.1788(7) 0.0780(9) 0.8593(5)
C6C C 0.2414(7) 0.1497(8) 0.8093(5)
C7C C 0.2594(7) 0.0827(9) 0.7392(6)
C8C C 0.3245(7) 0.1499(8) 0.6871(6)
O19C O 0.1095(5) 0.0157(8) 0.4440(5)
Ag8C Ag -0.11109(6) 0.64416(8) 1.08248(5)
O10B O -0.2107(5) 0.2527(6) 0.4796(4)
O11A O 0.1000(5) 0.3793(8) 0.4451(5)
O11B O -0.1000(5) 0.3793(8) 0.4451(5)
O4_2 O -0.0942(5) 1.1010(8) 0.8553(4)
O4C_2 O 0.0942(5) 1.1010(8) 0.8553(4)
O5C_2 O 0.2154(4) 1.0037(7) 0.9011(4)
O15B O 0.2396(5) 0.9857(6) 1.0591(4)
O6B O 0.2086(5) 0.7570(6) 1.1552(4)
O7A O -0.0994(5) 0.8923(8) 1.1828(4)
O7B O 0.0994(5) 0.8923(8) 1.1828(4)
O14A O -0.1114(5) 1.0935(7) 1.0550(5)
O14B O 0.1114(5) 1.0935(7) 1.0550(5)
Ag6_2 Ag 0.0000 -0.03389(11) 0.91602(7)
Ag7C_2 Ag -0.15035(5) -0.14740(7) 0.98440(4)
Ag8B Ag -0.38891(6) 0.35584(8) 0.58248(5)
Ag9A Ag -0.5000 0.08674(11) 0.58418(6)
Ag3B Ag 0.39756(7) 0.87268(10) 1.04826(6)
Ag4A Ag 0.5000 0.58957(11) 1.04861(7)
Ag9A_2 Ag -0.5000 1.08674(11) 0.58418(6)
Ag7B Ag -0.34965(5) 1.14740(7) 0.48440(4)
Ag3A Ag -0.39756(7) 0.87268(10) 1.04826(6)
Ag4A_2 Ag -0.5000 0.58957(11) 1.04861(7)
O10A O 0.2107(5) 0.2527(6) 0.4796(4)
O5_2 O -0.2154(4) 1.0037(7) 0.9011(4)
O15A O -0.2396(5) 0.9857(6) 1.0591(4)
Ag9A_3 Ag 0.5000 1.08674(11) 0.58418(6)
Ag7A Ag 0.34965(5) 1.14740(7) 0.48440(4)
Ag7_2 Ag 0.15035(5) -0.14740(7) 0.98440(4)
Ag8A Ag 0.38891(6) 0.35584(8) 0.58248(5)
Ag9A_4 Ag 0.5000 0.08674(11) 0.58418(6)
O6A O -0.2086(5) 0.7570(6) 1.1552(4)
O22 O 0.5000 0.3249(11) 0.7600(6)
O23 O 0.5000 0.8414(15) 0.8680(9)
O24 O 0.5000 0.6065(15) 0.8425(10)
O25 O 0.5000 0.4041(11) 0.8991(8)
loop_
_geom_bond_atom_site_label_1
_geom_bond_atom_site_label_2
_geom_bond_site_symmetry_1
_geom_bond_site_symmetry_2
Ag1 C1 1_555 1_555
Ag2 C1 1_555 1_555
Ag3 C2 1_555 1_555
Ag4 C1 1_555 1_555
Ag5 C1 1_555 1_555
Ag6 C3 1_555 1_555
Ag7 C3 1_555 1_555
Ag8 C4 1_555 1_555
Ag9 C3 1_555 1_555
Ag10 C3 1_555 1_555
Ag11 C4 1_555 1_555
Ag12 O1 1_555 1_555
Ag13 O17 1_555 1_555
C1 C2 1_555 1_555
C2 Ag4 1_555 1_555
C3 C4 1_555 1_555
C4 Ag8C 1_555 1_555
N1 O1 1_555 1_555
O2 Ag12 1_555 1_555
O3 Ag10 1_555 1_555
O4 Ag5 1_555 1_555
O5 C5 1_555 1_555
O6 Ag2 1_555 1_555
O7 C8 1_555 1_555
F1 C6 1_555 1_555
F2 C6 1_555 1_555
F3 C7 1_555 1_555
F4 C7 1_555 1_555
C5 O4 1_555 1_555
C6 C5 1_555 1_555
C7 C6 1_555 1_555
C8 O6 1_555 1_555
O8 Ag1 1_555 1_555
O9 C9 1_555 1_555
O10 Ag7 1_555 1_555
O11 C12 1_555 1_555
F5 C10 1_555 1_555
F6 C10 1_555 1_555
F7 C11 1_555 1_555
F8 C11 1_555 1_555
C9 O8 1_555 1_555
C10 C9 1_555 1_555
C11 C10 1_555 1_555
C12 O10 1_555 1_555
O12 Ag2 1_555 1_555
O13 Ag4 1_555 1_555
O14 C16 1_555 1_555
O15 C16 1_555 1_555
F9 C14 1_555 1_555
F10 C14 1_555 1_555
F11 C15 1_555 1_555
F12 C15 1_555 1_555
C13 O12 1_555 1_555
C14 C13 1_555 1_555
C15 C14 1_555 1_555
C16 C15 1_555 1_555
O16 Ag11 1_555 1_555
O17 Ag11 1_555 1_555
O18 Ag8 1_555 1_555
O19 Ag3 1_555 1_555
O20 Ag12 1_555 1_555
O21 Ag13 1_555 1_555
O18C Ag13 1_555 1_555
O8C Ag1 1_555 1_555
O9C Ag2 1_555 1_555
O10C C12C 1_555 1_555
O11C C12C 1_555 1_555
F5C C10C 1_555 1_555
F6C C10C 1_555 1_555
F7C C11C 1_555 1_555
F8C C11C 1_555 1_555
C9C O8C 1_555 1_555
C10C C9C 1_555 1_555
C11C C10C 1_555 1_555
C12C C11C 1_555 1_555
Ag2C C1 1_555 1_555
Ag3C C2 1_555 1_555
Ag7C C3 1_555 1_555
O12C Ag2C 1_555 1_555
O13C Ag4 1_555 1_555
O14C C16C 1_555 1_555
O15C C16C 1_555 1_555
F9C C14C 1_555 1_555
F10C C14C 1_555 1_555
F11C C15C 1_555 1_555
F12C C15C 1_555 1_555
C13C O12C 1_555 1_555
C14C C13C 1_555 1_555
C15C C14C 1_555 1_555
C16C C15C 1_555 1_555
O4C Ag5 1_555 1_555
O5C C5C 1_555 1_555
O6C Ag2C 1_555 1_555
O7C C8C 1_555 1_555
F1C C6C 1_555 1_555
F2C C6C 1_555 1_555
F3C C7C 1_555 1_555
F4C C7C 1_555 1_555
C5C O4C 1_555 1_555
C6C C5C 1_555 1_555
C7C C6C 1_555 1_555
C8C O6C 1_555 1_555
O19C Ag3C 1_555 1_555
Ag8C O18C 1_555 1_555
O10B Ag3 1_555 1_555
O11A Ag4 1_555 1_555
O11B Ag4 1_555 1_555
O4_2 Ag6 1_555 1_555
O4C_2 Ag6 1_555 1_555
O5C_2 Ag7 1_555 1_555
O15B Ag7 1_555 1_555
O6B Ag8 1_555 1_555
O7A Ag9 1_555 1_555
O7B Ag9 1_555 1_555
O14A Ag9 1_555 1_555
O14B Ag9 1_555 1_555
Ag6_2 O4 1_555 1_555
Ag7C_2 O5 1_555 1_555
Ag8B O6 1_555 1_555
Ag9A O7 1_555 1_555
Ag3B O10 1_555 1_555
Ag4A O11 1_555 1_555
Ag9A_2 O14 1_555 1_555
Ag7B O15 1_555 1_555
Ag3A O10C 1_555 1_555
Ag4A_2 O11C 1_555 1_555
O10A Ag3C 1_555 1_555
O5_2 Ag7C 1_555 1_555
O15A Ag7C 1_555 1_555
Ag9A_3 O14C 1_555 1_555
Ag7A O15C 1_555 1_555
Ag7_2 O5C 1_555 1_555
Ag8A O6C 1_555 1_555
Ag9A_4 O7C 1_555 1_555
O6A Ag8C 1_555 1_555
Ag5 C2 1_555 1_555
Ag10 O8 1_555 1_555
Ag10 O8C 1_555 1_555
Ag12 O13 1_555 1_555
Ag12 O13C 1_555 1_555
Ag13 O18 1_555 1_555
N1 O2 1_555 1_555
N1 O3 1_555 1_555
C7 C8 1_555 1_555
O9 Ag2C 1_555 1_555
C11 C12 1_555 1_555
O13 C13 1_555 1_555
O9C C9C 1_555 1_555
O10C Ag7C 1_555 1_555
O13C C13C 1_555 1_555
O4C Ag6_2 1_555 1_555
C7C C8C 1_555 1_555

#END
