
#######################################################################
#
#                 Cambridge Crystallographic Data Centre
#                                CCDC 
#
#######################################################################
#
# If this CIF has been generated from an entry in the Cambridge 
# Structural Database, then it will include bibliographic, chemical, 
# crystal, experimental, refinement or atomic coordinate data resulting 
# from the CCDC's data processing and validation procedures.
#
#######################################################################

data_NIMWUD
_chemical_formula_moiety         '(C26 H20 Cd2 Cl4 N4 O10)n'
_symmetry_cell_setting           monoclinic
_symmetry_space_group_name_H-M   'C 2/c'
_symmetry_Int_Tables_number      15
_space_group_name_Hall           '-C 2yc'
loop_
_symmetry_equiv_pos_site_id
_symmetry_equiv_pos_as_xyz
1 x,y,z
2 -x,y,1/2-z
3 1/2+x,1/2+y,z
4 1/2-x,1/2+y,1/2-z
5 -x,-y,-z
6 x,-y,1/2+z
7 1/2-x,1/2-y,-z
8 1/2+x,1/2-y,1/2+z
_cell_length_a                   15.2423(8)
_cell_length_b                   17.1026(8)
_cell_length_c                   15.0777(7)
_cell_angle_alpha                90
_cell_angle_beta                 120.3120(10)
_cell_angle_gamma                90
_cell_volume                     3393.16
loop_
_atom_site_label
_atom_site_type_symbol
_atom_site_fract_x
_atom_site_fract_y
_atom_site_fract_z
C13 C 0.5512(11) 0.1333(10) 0.8625(12)
C14 C 0.6347(11) 0.1736(9) 0.9418(10)
O6 O 0.515(3) 0.114(2) 0.886(2)
Cd1 Cd 0.13541(2) 0.131426(18) 0.78620(2)
Cl1 Cl 0.36848(9) 0.36433(8) 0.70284(9)
Cl2 Cl 0.45578(11) -0.10280(11) 0.86020(10)
O1 O 0.4248(2) 0.28701(18) 1.1340(2)
O2 O 0.5550(2) 0.32940(19) 1.1192(2)
O3 O 0.2196(2) -0.07509(19) 0.4496(2)
O4 O 0.0979(3) 0.0089(2) 0.4294(2)
O5 O 0.0000 0.0510(2) 0.7500
H1 H 0.0246 0.0268 0.8069
N1 N 0.2636(3) 0.2216(2) 0.8328(2)
N2 N 0.2208(3) 0.0408(2) 0.7366(2)
C1 C 0.4674(3) 0.3026(2) 1.0840(3)
C2 C 0.4060(3) 0.2876(2) 0.9697(3)
C3 C 0.4232(3) 0.3271(3) 0.8990(3)
H2 H 0.4776 0.3614 0.9207
C4 C 0.3576(3) 0.3138(3) 0.7964(3)
C5 C 0.2791(3) 0.2605(3) 0.7658(3)
H3 H 0.2359 0.2516 0.6960
C6 C 0.3257(3) 0.2355(3) 0.9337(3)
H4 H 0.3142 0.2091 0.9809
C7 C 0.1777(3) -0.0298(3) 0.4823(3)
C8 C 0.2276(3) -0.0207(3) 0.5976(3)
C9 C 0.1839(3) 0.0300(3) 0.6367(3)
H5 H 0.1260 0.0576 0.5906
C10 C 0.3033(3) 0.0006(3) 0.8028(3)
H6 H 0.3297 0.0075 0.8730
C11 C 0.3502(3) -0.0511(3) 0.7695(3)
C12 C 0.3126(3) -0.0630(3) 0.6663(3)
H7 H 0.3434 -0.0982 0.6433
H1A H -0.0246 0.0268 0.6931
Cd1A Cd -0.13541(2) 0.131426(18) 0.71380(2)
Cl1A Cl -0.36848(9) 0.36433(8) 0.79716(9)
Cl2A Cl -0.45578(11) -0.10280(11) 0.63980(10)
O1A O -0.4248(2) 0.28701(18) 0.3660(2)
O2A O -0.5550(2) 0.32940(19) 0.3808(2)
O3A O -0.2196(2) -0.07509(19) 1.0504(2)
O4A O -0.0979(3) 0.0089(2) 1.0706(2)
N1A N -0.2636(3) 0.2216(2) 0.6672(2)
N2A N -0.2208(3) 0.0408(2) 0.7634(2)
C1A C -0.4674(3) 0.3026(2) 0.4160(3)
C2A C -0.4060(3) 0.2876(2) 0.5303(3)
C3A C -0.4232(3) 0.3271(3) 0.6010(3)
H2A H -0.4776 0.3614 0.5793
C4A C -0.3576(3) 0.3138(3) 0.7036(3)
C5A C -0.2791(3) 0.2605(3) 0.7342(3)
H3A H -0.2359 0.2516 0.8040
C6A C -0.3257(3) 0.2355(3) 0.5663(3)
H4A H -0.3142 0.2091 0.5191
C7A C -0.1777(3) -0.0298(3) 1.0177(3)
C8A C -0.2276(3) -0.0207(3) 0.9024(3)
C9A C -0.1839(3) 0.0300(3) 0.8633(3)
H5A H -0.1260 0.0576 0.9094
C10A C -0.3033(3) 0.0006(3) 0.6972(3)
H6A H -0.3297 0.0075 0.6270
C11A C -0.3502(3) -0.0511(3) 0.7305(3)
C12A C -0.3126(3) -0.0630(3) 0.8337(3)
H7A H -0.3434 -0.0982 0.8567
Cd1D Cd -0.13541(2) -0.131426(18) 1.21380(2)
Cd1E Cd 0.13541(2) -0.131426(18) 0.28620(2)
Cd1F Cd -0.63541(2) 0.368574(18) 0.21380(2)
Cd1F_2 Cd 0.36459(2) 0.368574(18) 1.21380(2)
Cd1G Cd -0.36459(2) 0.368574(18) 0.28620(2)
Cd1G_2 Cd 0.63541(2) 0.368574(18) 1.28620(2)
O1F O 0.0752(2) 0.21299(18) 0.8660(2)
O1G O -0.0752(2) 0.21299(18) 0.6340(2)
O2F O -0.0550(2) 0.17060(19) 0.8808(2)
O2G O 0.0550(2) 0.17060(19) 0.6192(2)
O3D O -0.2196(2) 0.07509(19) 0.5504(2)
O3E O 0.2196(2) 0.07509(19) 0.9496(2)
loop_
_geom_bond_atom_site_label_1
_geom_bond_atom_site_label_2
_geom_bond_site_symmetry_1
_geom_bond_site_symmetry_2
Cd1 O5 1_555 1_555
Cl1 C4 1_555 1_555
Cl2 C11 1_555 1_555
O1 C1 1_555 1_555
O2 C1 1_555 1_555
O3 C7 1_555 1_555
O4 C7 1_555 1_555
O5 H1 1_555 1_555
N1 Cd1 1_555 1_555
N2 Cd1 1_555 1_555
C1 C2 1_555 1_555
C2 C3 1_555 1_555
C3 H2 1_555 1_555
C4 C3 1_555 1_555
C5 N1 1_555 1_555
H3 C5 1_555 1_555
C6 N1 1_555 1_555
H4 C6 1_555 1_555
C7 C8 1_555 1_555
C8 C9 1_555 1_555
C9 N2 1_555 1_555
H5 C9 1_555 1_555
C10 N2 1_555 1_555
H6 C10 1_555 1_555
C11 C10 1_555 1_555
C12 C8 1_555 1_555
H7 C12 1_555 1_555
C13 C14 1_555 1_555
O6 C13 1_555 1_555
H1A O5 1_555 1_555
Cd1A O5 1_555 1_555
Cl1A C4A 1_555 1_555
Cl2A C11A 1_555 1_555
O1A C1A 1_555 1_555
O2A C1A 1_555 1_555
O3A C7A 1_555 1_555
O4A C7A 1_555 1_555
N1A Cd1A 1_555 1_555
N2A Cd1A 1_555 1_555
C1A C2A 1_555 1_555
C2A C3A 1_555 1_555
C3A H2A 1_555 1_555
C4A C3A 1_555 1_555
C5A N1A 1_555 1_555
H3A C5A 1_555 1_555
C6A N1A 1_555 1_555
H4A C6A 1_555 1_555
C7A C8A 1_555 1_555
C8A C9A 1_555 1_555
C9A N2A 1_555 1_555
H5A C9A 1_555 1_555
C10A N2A 1_555 1_555
H6A C10A 1_555 1_555
C11A C10A 1_555 1_555
C12A C8A 1_555 1_555
H7A C12A 1_555 1_555
Cd1D O3A 1_555 1_555
Cd1E O3 1_555 1_555
Cd1F O2A 1_555 1_555
Cd1F_2 O1 1_555 1_555
Cd1G O1A 1_555 1_555
Cd1G_2 O2 1_555 1_555
O1F Cd1 1_555 1_555
O1G Cd1A 1_555 1_555
O2F Cd1A 1_555 1_555
O2G Cd1 1_555 1_555
O3D Cd1A 1_555 1_555
O3E Cd1 1_555 1_555
C2 C6 1_555 1_555
C4 C5 1_555 1_555
C11 C12 1_555 1_555
C2A C6A 1_555 1_555
C4A C5A 1_555 1_555
C11A C12A 1_555 1_555

#END
