
#######################################################################
#
#                 Cambridge Crystallographic Data Centre
#                                CCDC 
#
#######################################################################
#
# If this CIF has been generated from an entry in the Cambridge 
# Structural Database, then it will include bibliographic, chemical, 
# crystal, experimental, refinement or atomic coordinate data resulting 
# from the CCDC's data processing and validation procedures.
#
#######################################################################

data_DICKEH
_chemical_formula_moiety         '(C26 H14 Cu2 O10)n'
_symmetry_cell_setting           rhombohedral
_symmetry_space_group_name_H-M   'R -3 m'
_symmetry_Int_Tables_number      166
_space_group_name_Hall           '-R 3 2"'
loop_
_symmetry_equiv_pos_site_id
_symmetry_equiv_pos_as_xyz
1 x,y,z
2 -y,x-y,z
3 -x+y,-x,z
4 y,x,-z
5 -x,-x+y,-z
6 x-y,-y,-z
7 2/3+x,1/3+y,1/3+z
8 2/3-y,1/3+x-y,1/3+z
9 2/3-x+y,1/3-x,1/3+z
10 2/3+y,1/3+x,1/3-z
11 2/3-x,1/3-x+y,1/3-z
12 2/3+x-y,1/3-y,1/3-z
13 1/3+x,2/3+y,2/3+z
14 1/3-y,2/3+x-y,2/3+z
15 1/3-x+y,2/3-x,2/3+z
16 1/3+y,2/3+x,2/3-z
17 1/3-x,2/3-x+y,2/3-z
18 1/3+x-y,2/3-y,2/3-z
19 -x,-y,-z
20 y,-x+y,-z
21 x-y,x,-z
22 -y,-x,z
23 x,x-y,z
24 -x+y,y,z
25 1/3-x,2/3-y,2/3-z
26 1/3+y,2/3-x+y,2/3-z
27 1/3+x-y,2/3+x,2/3-z
28 1/3-y,2/3-x,2/3+z
29 1/3+x,2/3+x-y,2/3+z
30 1/3-x+y,2/3+y,2/3+z
31 2/3-x,1/3-y,1/3-z
32 2/3+y,1/3-x+y,1/3-z
33 2/3+x-y,1/3+x,1/3-z
34 2/3-y,1/3-x,1/3+z
35 2/3+x,1/3+x-y,1/3+z
36 2/3-x+y,1/3+y,1/3+z
_cell_length_a                   18.8306(6)
_cell_length_b                   18.8306(6)
_cell_length_c                   53.788(4)
_cell_angle_alpha                90
_cell_angle_beta                 90
_cell_angle_gamma                120
_cell_volume                     16517.5
loop_
_atom_site_label
_atom_site_type_symbol
_atom_site_fract_x
_atom_site_fract_y
_atom_site_fract_z
_atom_site_U_iso_or_equiv
_atom_site_thermal_displace_type
C1 C 0.36145(10) 0.90619(10) 0.98144(3) 0.0612 Uani
C2 C 0.28375(11) 0.84681(11) 0.96942(3) 0.0744 Uani
C3 C 0.22449(8) 0.77552(8) 0.98103(4) 0.0659 Uani
H1 H 0.2330 0.7670 0.9975 0.0790 Uiso
C4 C 0.26912(12) 0.85892(12) 0.94508(3) 0.0823 Uani
H2 H 0.3076 0.9055 0.9367 0.0990 Uiso
C5 C 0.19761(9) 0.80239(9) 0.93297(5) 0.0832 Uani
C6 C 0.18740(9) 0.81260(9) 0.90739(6) 0.0868 Uani
C7 C 0.18494(10) 0.81506(10) 0.88527(6) 0.0986 Uani
C8 C 0.17573(12) 0.82427(12) 0.85907(6) 0.1057 Uani
C9 C 0.23635(12) 0.89129(13) 0.84654(4) 0.0935 Uani
H3 H 0.2841 0.9286 0.8547 0.1120 Uiso
Cu1 Cu 0.477353(9) 0.954706(17) 1.020562(5) 0.0658 Uani
O1 O 0.41007(7) 0.96501(7) 0.96913(2) 0.0709 Uani
O2 O 0.37212(7) 0.88873(7) 1.00326(2) 0.0741 Uani
O3 O 0.44716(5) 0.89432(10) 1.05564(3) 0.0727 Uani
H4 H 0.4953 0.8975 1.0629 0.0870 Uiso
C1O C 0.23952(10) 1.02812(10) 0.68523(3) 0.0612 Uani
C2O C 0.18014(11) 0.95042(11) 0.69725(3) 0.0744 Uani
C3O C 0.10885(8) 0.89116(8) 0.68564(4) 0.0659 Uani
H1O H 0.1003 0.8997 0.6692 0.0790 Uiso
C4O C 0.19225(12) 0.93579(12) 0.72159(3) 0.0823 Uani
H2O H 0.2388 0.9743 0.7300 0.0990 Uiso
C5O C 0.13572(9) 0.86428(9) 0.73370(5) 0.0832 Uani
C6O C 0.14593(9) 0.85407(9) 0.75928(6) 0.0868 Uani
C7O C 0.14839(10) 0.85161(10) 0.78140(6) 0.0986 Uani
C8O C 0.15760(12) 0.84240(12) 0.80760(6) 0.1057 Uani
C9O C 0.22462(13) 0.90302(12) 0.82013(4) 0.0935 Uani
H3O H 0.2619 0.9508 0.8120 0.1120 Uiso
O1O O 0.29834(7) 1.07674(7) 0.69754(2) 0.0709 Uani
O2O O 0.22206(7) 1.03879(7) 0.66341(2) 0.0741 Uani
C1U C 0.09381(10) 0.63855(10) 0.98144(3) 0.0612 Uani
C2U C 0.15319(11) 0.71625(11) 0.96942(3) 0.0744 Uani
C4U C 0.14108(12) 0.73088(12) 0.94508(3) 0.0823 Uani
H2U H 0.0945 0.6924 0.9367 0.0990 Uiso
C9U C 0.10871(13) 0.76365(12) 0.84654(4) 0.0935 Uani
H3U H 0.0714 0.7159 0.8547 0.1120 Uiso
O1U O 0.03499(7) 0.58993(7) 0.96913(2) 0.0709 Uani
O2U O 0.11127(7) 0.62788(7) 1.00326(2) 0.0741 Uani
C1X C -0.02812(10) 0.76048(10) 0.68523(3) 0.0612 Uani
C2X C 0.04958(11) 0.81986(11) 0.69725(3) 0.0744 Uani
C4X C 0.06421(12) 0.80775(12) 0.72159(3) 0.0823 Uani
H2X H 0.0257 0.7612 0.7300 0.0990 Uiso
C9X C 0.09698(12) 0.77538(13) 0.82013(4) 0.0935 Uani
H3X H 0.0492 0.7381 0.8120 0.1120 Uiso
O1X O -0.07674(7) 0.70166(7) 0.69754(2) 0.0709 Uani
O2X O -0.03879(7) 0.77794(7) 0.66341(2) 0.0741 Uani
H4W H 0.4022 0.8975 1.0629 0.0870 Uiso
Cu1A Cu 0.045294(17) 0.522647(19) 1.020562(5) 0.0658 Uani
O3A O 0.10568(10) 0.55284(11) 1.05564(3) 0.0727 Uani
H4A H 0.1025 0.5978 1.0629 0.0870 Uiso
H4U H 0.1025 0.5047 1.0629 0.0870 Uiso
Cu1C Cu -0.045294(17) 0.477353(9) 0.979438(5) 0.0658 Uani
Cu1E Cu 0.522647(19) 1.045294(17) 0.979438(5) 0.0658 Uani
Cu1L Cu -0.189314(9) 0.621373(17) 0.687229(5) 0.0658 Uani
Cu1M Cu 0.378627(17) 1.189314(19) 0.687229(5) 0.0658 Uani
Cu1O Cu 0.288039(17) 1.144020(9) 0.646105(5) 0.0658 Uani
Cu1Q Cu -0.144020(19) 0.711961(17) 0.646105(5) 0.0658 Uani
O1C O -0.03499(7) 0.41007(7) 1.03087(2) 0.0709 Uani
O1E O 0.44506(10) 1.03499(7) 1.03087(2) 0.0709 Uani
O1R O 0.58993(7) 1.03499(7) 1.03087(2) 0.0709 Uani
O1S O -0.03499(7) 0.55494(10) 1.03087(2) 0.0709 Uani
O2A O 0.11127(7) 0.48339(10) 1.00326(2) 0.0741 Uani
O2W O 0.51661(10) 0.88873(7) 1.00326(2) 0.0741 Uani
loop_
_atom_site_aniso_label
_atom_site_aniso_U_11
_atom_site_aniso_U_22
_atom_site_aniso_U_33
_atom_site_aniso_U_23
_atom_site_aniso_U_13
_atom_site_aniso_U_12
C1 0.0686(11) 0.0546(10) 0.0599(10) 0.0007(8) 0.0028(8) 0.0305(9)
C2 0.0745(12) 0.0711(11) 0.0627(11) 0.0042(9) -0.0052(9) 0.0252(10)
C3 0.0646(10) 0.0646(10) 0.0585(14) 0.0007(6) -0.0007(6) 0.0248(12)
C4 0.0831(13) 0.0769(12) 0.0641(11) 0.0078(9) -0.0052(10) 0.0228(10)
C5 0.0766(11) 0.0766(11) 0.0710(17) 0.0162(8) -0.0162(8) 0.0192(14)
C6 0.0825(13) 0.0825(13) 0.0762(19) 0.0174(8) -0.0174(8) 0.0269(15)
C7 0.0920(15) 0.0920(15) 0.083(2) 0.0240(9) -0.0240(9) 0.0243(17)
C8 0.0856(12) 0.0856(12) 0.087(2) 0.0292(11) -0.0292(11) -0.0014(17)
C9 0.0853(14) 0.0874(14) 0.0840(13) 0.0265(11) -0.0150(11) 0.0254(11)
Cu1 0.07110(17) 0.06132(19) 0.0617(2) 0.00814(13) 0.00407(6) 0.03066(10)
O1 0.0715(7) 0.0618(7) 0.0639(7) 0.0084(6) -0.0078(6) 0.0216(6)
O2 0.0732(8) 0.0655(7) 0.0674(7) 0.0074(6) -0.0004(6) 0.0225(6)
O3 0.0755(8) 0.0712(11) 0.0700(10) 0.0236(8) 0.0118(4) 0.0356(5)
C1O 0.0546 0.0686 0.0599 -0.0028 -0.0007 0.0305
C2O 0.0711 0.0745 0.0627 0.0052 -0.0042 0.0252
C3O 0.0646 0.0646 0.0585 0.0007 -0.0007 0.0248
C4O 0.0769 0.0831 0.0641 0.0052 -0.0078 0.0228
C5O 0.0766 0.0766 0.071 0.0162 -0.0162 0.0192
C6O 0.0825 0.0825 0.0762 0.0174 -0.0174 0.0269
C7O 0.092 0.092 0.083 0.024 -0.024 0.0243
C8O 0.0856 0.0856 0.087 0.0292 -0.0292 -0.0014
C9O 0.0874 0.0853 0.084 0.015 -0.0265 0.0254
O1O 0.0618 0.0715 0.0639 0.0078 -0.0084 0.0216
O2O 0.0655 0.0732 0.0674 0.0004 -0.0074 0.0225
C1U 0.0546 0.0686 0.0599 -0.0028 -0.0007 0.0305
C2U 0.0711 0.0745 0.0627 0.0052 -0.0042 0.0252
C4U 0.0769 0.0831 0.0641 0.0052 -0.0078 0.0228
C9U 0.0874 0.0853 0.084 0.015 -0.0265 0.0254
O1U 0.0618 0.0715 0.0639 0.0078 -0.0084 0.0216
O2U 0.0655 0.0732 0.0674 0.0004 -0.0074 0.0225
C1X 0.0686 0.0546 0.0599 0.0007 0.0028 0.0305
C2X 0.0745 0.0711 0.0627 0.0042 -0.0052 0.0252
C4X 0.0831 0.0769 0.0641 0.0078 -0.0052 0.0228
C9X 0.0853 0.0874 0.084 0.0265 -0.015 0.0254
O1X 0.0715 0.0618 0.0639 0.0084 -0.0078 0.0216
O2X 0.0732 0.0655 0.0674 0.0074 -0.0004 0.0225
Cu1A 0.06132 0.0711 0.0617 -0.00407 -0.00814 0.03066
O3A 0.0712 0.0755 0.07 -0.0118 -0.0236 0.0356
Cu1C 0.06132 0.0711 0.0617 -0.00407 -0.00814 0.03066
Cu1E 0.0711 0.06132 0.0617 0.00814 0.00407 0.03066
Cu1L 0.0711 0.06132 0.0617 0.00814 0.00407 0.03066
Cu1M 0.06132 0.0711 0.0617 -0.00407 -0.00814 0.03066
Cu1O 0.06132 0.0711 0.0617 -0.00407 -0.00814 0.03066
Cu1Q 0.0711 0.06132 0.0617 0.00814 0.00407 0.03066
O1C 0.0618 0.0715 0.0639 0.0078 -0.0084 0.0216
O1E 0.0901 0.0618 0.0639 0.0084 0.0162 0.0402
O1R 0.0715 0.0618 0.0639 0.0084 -0.0078 0.0216
O1S 0.0618 0.0901 0.0639 -0.0162 -0.0084 0.0402
O2A 0.0655 0.0937 0.0674 -0.0078 -0.0074 0.043
O2W 0.0937 0.0655 0.0674 0.0074 0.0078 0.043
loop_
_geom_bond_atom_site_label_1
_geom_bond_atom_site_label_2
_geom_bond_site_symmetry_1
_geom_bond_site_symmetry_2
C1 C2 1_555 1_555
C2 C3 1_555 1_555
C3 H1 1_555 1_555
C4 C2 1_555 1_555
H2 C4 1_555 1_555
C5 C4 1_555 1_555
C6 C5 1_555 1_555
C7 C6 1_555 1_555
C8 C7 1_555 1_555
C9 C8 1_555 1_555
H3 C9 1_555 1_555
Cu1 O2 1_555 1_555
O1 C1 1_555 1_555
O2 C1 1_555 1_555
O3 Cu1 1_555 1_555
H4 O3 1_555 1_555
C1O C2O 1_555 1_555
C2O C3O 1_555 1_555
C3O H1O 1_555 1_555
C4O C2O 1_555 1_555
H2O C4O 1_555 1_555
C5O C4O 1_555 1_555
C6O C5O 1_555 1_555
C7O C6O 1_555 1_555
C8O C7O 1_555 1_555
C9O C9 1_555 1_555
H3O C9O 1_555 1_555
O1O C1O 1_555 1_555
O2O C1O 1_555 1_555
C1U C2U 1_555 1_555
C2U C3 1_555 1_555
C4U C5 1_555 1_555
H2U C4U 1_555 1_555
C9U C8 1_555 1_555
H3U C9U 1_555 1_555
O1U C1U 1_555 1_555
O2U C1U 1_555 1_555
C1X C2X 1_555 1_555
C2X C3O 1_555 1_555
C4X C5O 1_555 1_555
H2X C4X 1_555 1_555
C9X C8O 1_555 1_555
H3X C9X 1_555 1_555
O1X C1X 1_555 1_555
O2X C1X 1_555 1_555
H4W O3 1_555 1_555
Cu1A O2U 1_555 1_555
O3A Cu1A 1_555 1_555
H4A O3A 1_555 1_555
H4U O3A 1_555 1_555
Cu1C O1U 1_555 1_555
Cu1E Cu1 1_555 1_555
Cu1L O1X 1_555 1_555
Cu1M O1O 1_555 1_555
Cu1O O2O 1_555 1_555
Cu1Q O2X 1_555 1_555
O1C Cu1A 1_555 1_555
O1E Cu1 1_555 1_555
O1R Cu1 1_555 1_555
O1S Cu1A 1_555 1_555
O2A Cu1A 1_555 1_555
O2W Cu1 1_555 1_555
O1 Cu1E 1_555 1_555
C8O C9O 1_555 1_555
C2U C4U 1_555 1_555
C9U C9X 1_555 1_555
C2X C4X 1_555 1_555
Cu1A Cu1C 1_555 1_555
Cu1L Cu1Q 1_555 1_555
Cu1M Cu1O 1_555 1_555

#END
