
#######################################################################
#
#                 Cambridge Crystallographic Data Centre
#                                CCDC 
#
#######################################################################
#
# If this CIF has been generated from an entry in the Cambridge 
# Structural Database, then it will include bibliographic, chemical, 
# crystal, experimental, refinement or atomic coordinate data resulting 
# from the CCDC's data processing and validation procedures.
#
#######################################################################

data_EQUNEL
_chemical_formula_moiety         'C54 H32 In20 N2 O56 2-'
_symmetry_cell_setting           cubic
_symmetry_space_group_name_H-M   'P m -3 n'
_symmetry_Int_Tables_number      223
_space_group_name_Hall           '-P 4n 2 3'
loop_
_symmetry_equiv_pos_site_id
_symmetry_equiv_pos_as_xyz
1 x,y,z
2 -x,-y,z
3 -x,y,-z
4 x,-y,-z
5 z,x,y
6 z,-x,-y
7 -z,-x,y
8 -z,x,-y
9 y,z,x
10 -y,z,-x
11 y,-z,-x
12 -y,-z,x
13 1/2+y,1/2+x,1/2-z
14 1/2-y,1/2-x,1/2-z
15 1/2+y,1/2-x,1/2+z
16 1/2-y,1/2+x,1/2+z
17 1/2+x,1/2+z,1/2-y
18 1/2-x,1/2+z,1/2+y
19 1/2-x,1/2-z,1/2-y
20 1/2+x,1/2-z,1/2+y
21 1/2+z,1/2+y,1/2-x
22 1/2+z,1/2-y,1/2+x
23 1/2-z,1/2+y,1/2+x
24 1/2-z,1/2-y,1/2-x
25 -x,-y,-z
26 x,y,-z
27 x,-y,z
28 -x,y,z
29 -z,-x,-y
30 -z,x,y
31 z,x,-y
32 z,-x,y
33 -y,-z,-x
34 y,-z,x
35 -y,z,x
36 y,z,-x
37 1/2-y,1/2-x,1/2+z
38 1/2+y,1/2+x,1/2+z
39 1/2-y,1/2+x,1/2-z
40 1/2+y,1/2-x,1/2-z
41 1/2-x,1/2-z,1/2+y
42 1/2+x,1/2-z,1/2-y
43 1/2+x,1/2+z,1/2+y
44 1/2-x,1/2+z,1/2-y
45 1/2-z,1/2-y,1/2+x
46 1/2-z,1/2+y,1/2-x
47 1/2+z,1/2-y,1/2-x
48 1/2+z,1/2+y,1/2+x
_cell_length_a                   22.6230(4)
_cell_length_b                   22.6230(4)
_cell_length_c                   22.6230(4)
_cell_angle_alpha                90
_cell_angle_beta                 90
_cell_angle_gamma                90
_cell_volume                     11578.5
loop_
_atom_site_label
_atom_site_type_symbol
_atom_site_fract_x
_atom_site_fract_y
_atom_site_fract_z
O5 O 0.1910 0.0000 0.3390
N1 N 0.3830 0.0000 0.3441
O6 O 0.3600 0.0000 0.3940
O7 O 0.3940 0.0473 0.3192
O7Z O 0.3940 -0.0473 0.3192
N2 N 0.1324 0.1324 0.1324
O8 O 0.1456 0.0886 0.1624
O8D O 0.1624 0.1456 0.0886
O8H O 0.0886 0.1624 0.1456
In1 In 0.2500 0.18633(3) 0.31367(3)
O1 O 0.2649(4) 0.1132(3) 0.2549(5)
O2 O 0.3059(4) 0.1563(3) 0.1742(5)
O3 O 0.2500 0.2500 0.2500
O4 O 0.2500 0.1187(5) 0.3813(5)
H1 H 0.247(5) 0.095(6) 0.356(6)
C1 C 0.3187(12) 0.0000 0.0867(13)
C2 C 0.3085(7) 0.0536(8) 0.1174(8)
H2 H 0.3109 0.0895 0.0975
C3 C 0.2956(7) 0.0525(5) 0.1751(7)
C4 C 0.2865(8) -0.0000 0.2055(9)
H3 H 0.2746 0.0000 0.2448
C5 C 0.3307(13) 0.0000 0.0256(12)
C6 C 0.2864(7) 0.1112(5) 0.2064(9)
O1C O 0.2649(4) -0.1132(3) -0.2549(5)
O2C O 0.3059(4) -0.1563(3) -0.1742(5)
C1C C 0.3187(12) 0.0000 -0.0867(13)
C2C C 0.3085(7) -0.0536(8) -0.1174(8)
H2C H 0.3109 -0.0895 -0.0975
C3C C 0.2956(7) -0.0525(5) -0.1751(7)
C4C C 0.2865(8) 0.0000 -0.2055(9)
H3C H 0.2746 0.0000 -0.2448
C5C C 0.3307(13) 0.0000 -0.0256(12)
C6C C 0.2864(7) -0.1112(5) -0.2064(9)
O1Y O 0.2649(4) 0.1132(3) -0.2549(5)
O2Y O 0.3059(4) 0.1563(3) -0.1742(5)
C2Y C 0.3085(7) 0.0536(8) -0.1174(8)
H2Y H 0.3109 0.0895 -0.0975
C3Y C 0.2956(7) 0.0525(5) -0.1751(7)
C6Y C 0.2864(7) 0.1112(5) -0.2064(9)
O1Z O 0.2649(4) -0.1132(3) 0.2549(5)
O2Z O 0.3059(4) -0.1563(3) 0.1742(5)
C2Z C 0.3085(7) -0.0536(8) 0.1174(8)
H2Z H 0.3109 -0.0895 0.0975
C3Z C 0.2956(7) -0.0525(5) 0.1751(7)
C6Z C 0.2864(7) -0.1112(5) 0.2064(9)
H1R H 0.253(5) 0.144(6) 0.405(6)
In1D In 0.31367(3) 0.2500 0.18633(3)
O1D O 0.2549(5) 0.2649(4) 0.1132(3)
O2D O 0.1742(5) 0.3059(4) 0.1563(3)
O4D O 0.3813(5) 0.2500 0.1187(5)
H1D H 0.356(6) 0.247(5) 0.095(6)
C1D C 0.0867(13) 0.3187(12) 0.0000
C2D C 0.1174(8) 0.3085(7) 0.0536(8)
H2D H 0.0975 0.3109 0.0895
C3D C 0.1751(7) 0.2956(7) 0.0525(5)
C4D C 0.2055(9) 0.2865(8) 0.0000
H3D H 0.2448 0.2746 0.0000
C5D C 0.0256(12) 0.3307(13) 0.0000
C6D C 0.2064(9) 0.2864(7) 0.1112(5)
O1G O -0.2549(5) 0.2649(4) -0.1132(3)
O2G O -0.1742(5) 0.3059(4) -0.1563(3)
C1G C -0.0867(13) 0.3187(12) 0.0000
C2G C -0.1174(8) 0.3085(7) -0.0536(8)
H2G H -0.0975 0.3109 -0.0895
C3G C -0.1751(7) 0.2956(7) -0.0525(5)
C4G C -0.2055(9) 0.2865(8) 0.0000
H3G H -0.2448 0.2746 0.0000
C5G C -0.0256(12) 0.3307(13) 0.0000
C6G C -0.2064(9) 0.2864(7) -0.1112(5)
O1CA O -0.2549(5) 0.2649(4) 0.1132(3)
O2CA O -0.1742(5) 0.3059(4) 0.1563(3)
C2CA C -0.1174(8) 0.3085(7) 0.0536(8)
H2CA H -0.0975 0.3109 0.0895
C3CA C -0.1751(7) 0.2956(7) 0.0525(5)
C6CA C -0.2064(9) 0.2864(7) 0.1112(5)
O1DA O 0.2549(5) 0.2649(4) -0.1132(3)
O2DA O 0.1742(5) 0.3059(4) -0.1563(3)
C2DA C 0.1174(8) 0.3085(7) -0.0536(8)
H2DA H 0.0975 0.3109 -0.0895
C3DA C 0.1751(7) 0.2956(7) -0.0525(5)
C6DA C 0.2064(9) 0.2864(7) -0.1112(5)
H1M H 0.405(6) 0.253(5) 0.144(6)
In1H In 0.18633(3) 0.31367(3) 0.2500
O4H O 0.1187(5) 0.3813(5) 0.2500
H1H H 0.095(6) 0.356(6) 0.247(5)
H1W H 0.144(6) 0.405(6) 0.253(5)
In1Y In 0.2500 0.18633(3) -0.31367(3)
O4Y O 0.2500 0.1187(5) -0.3813(5)
H1Y H 0.247(5) 0.095(6) -0.356(6)
H1NA H 0.253(5) 0.144(6) -0.405(6)
In1Z In 0.2500 -0.18633(3) 0.31367(3)
O4Z O 0.2500 -0.1187(5) 0.3813(5)
H1Z H 0.247(5) -0.095(6) 0.356(6)
H1QA H 0.253(5) -0.144(6) 0.405(6)
In1CA In -0.31367(3) 0.2500 0.18633(3)
O4CA O -0.3813(5) 0.2500 0.1187(5)
H1CA H -0.356(6) 0.247(5) 0.095(6)
H1MA H -0.405(6) 0.253(5) 0.144(6)
O1R O 0.2351(4) 0.2451(5) 0.3868(3)
O2R O 0.1941(4) 0.3258(5) 0.3437(3)
C1R C 0.1813(12) 0.4133(13) 0.5000
C2R C 0.1915(7) 0.3826(8) 0.4464(8)
H2R H 0.1891 0.4025 0.4105
C3R C 0.2044(7) 0.3249(7) 0.4475(5)
C4R C 0.2135(8) 0.2945(9) 0.5000
H3R H 0.2254 0.2552 0.5000
C5R C 0.1693(13) 0.4744(12) 0.5000
C6R C 0.2136(7) 0.2936(9) 0.3888(5)
O1Q O 0.2351(4) 0.7549(5) 0.6132(3)
O2Q O 0.1941(4) 0.6742(5) 0.6563(3)
C1Q C 0.1813(12) 0.5867(13) 0.5000
C2Q C 0.1915(7) 0.6174(8) 0.5536(8)
H2Q H 0.1891 0.5975 0.5895
C3Q C 0.2044(7) 0.6751(7) 0.5525(5)
C4Q C 0.2135(8) 0.7055(9) 0.5000
H3Q H 0.2254 0.7448 0.5000
C5Q C 0.1693(13) 0.5256(12) 0.5000
C6Q C 0.2136(7) 0.7064(9) 0.6112(5)
O1QA O 0.2351(4) 0.7549(5) 0.3868(3)
O2QA O 0.1941(4) 0.6742(5) 0.3437(3)
C2QA C 0.1915(7) 0.6174(8) 0.4464(8)
H2QA H 0.1891 0.5975 0.4105
C3QA C 0.2044(7) 0.6751(7) 0.4475(5)
C6QA C 0.2136(7) 0.7064(9) 0.3888(5)
O1NA O 0.2351(4) 0.2451(5) 0.6132(3)
O2NA O 0.1941(4) 0.3258(5) 0.6563(3)
C2NA C 0.1915(7) 0.3826(8) 0.5536(8)
H2NA H 0.1891 0.4025 0.5895
C3NA C 0.2044(7) 0.3249(7) 0.5525(5)
C6NA C 0.2136(7) 0.2936(9) 0.6112(5)
O3Y O 0.2500 0.2500 -0.2500
In1C In 0.2500 -0.18633(3) -0.31367(3)
In1C_2 In 0.2500 0.81367(3) 0.68633(3)
In1E In 0.31367(3) -0.2500 -0.18633(3)
In1G In -0.31367(3) 0.2500 -0.18633(3)
In1I In -0.18633(3) 0.31367(3) -0.2500
In1J In 0.18633(3) 0.68633(3) 0.7500
In1Y_2 In 0.2500 0.18633(3) 0.68633(3)
In1Z_2 In 0.2500 0.81367(3) 0.31367(3)
In1DA In 0.31367(3) 0.2500 -0.18633(3)
In1EA In 0.31367(3) -0.2500 0.18633(3)
In1GA In 0.18633(3) 0.68633(3) 0.2500
In1HA In -0.18633(3) 0.31367(3) 0.2500
In1IA In 0.18633(3) 0.31367(3) -0.2500
In1IA_2 In 0.18633(3) 0.31367(3) 0.7500
O1H O 0.1132(3) 0.2549(5) 0.2649(4)
O1M O 0.3868(3) 0.2351(4) 0.2451(5)
O1W O 0.2451(5) 0.3868(3) 0.2351(4)
O1MA O -0.3868(3) 0.2351(4) 0.2451(5)
O1NA_2 O 0.2351(4) 0.2451(5) -0.3868(3)
O1QA_2 O 0.2351(4) -0.2451(5) 0.3868(3)
O2H O 0.1563(3) 0.1742(5) 0.3059(4)
O2M O 0.3437(3) 0.1941(4) 0.3258(5)
O2W O 0.3258(5) 0.3437(3) 0.1941(4)
O2AA O -0.3059(4) 0.1563(3) 0.1742(5)
O2GA O 0.1563(3) -0.1742(5) 0.3059(4)
O2IA O 0.1563(3) 0.1742(5) -0.3059(4)
O2JA O 0.3437(3) 0.1941(4) -0.3258(5)
O2LA O 0.3437(3) -0.1941(4) 0.3258(5)
O2TA O -0.3258(5) 0.3437(3) 0.1941(4)
O3Z O 0.2500 -0.2500 0.2500
O3AA O -0.2500 0.2500 0.2500
loop_
_geom_bond_atom_site_label_1
_geom_bond_atom_site_label_2
_geom_bond_site_symmetry_1
_geom_bond_site_symmetry_2
In1 O1 1_555 1_555
O1 C6 1_555 1_555
O2 C6 1_555 1_555
O3 In1 1_555 1_555
O4 In1 1_555 1_555
H1 O4 1_555 1_555
C1 C2 1_555 1_555
C2 H2 1_555 1_555
C3 C2 1_555 1_555
C4 C3 1_555 1_555
H3 C4 1_555 1_555
C5 C1 1_555 1_555
C6 C3 1_555 1_555
N1 O6 1_555 1_555
O7 N1 1_555 1_555
N2 O8 1_555 1_555
O1C C6C 1_555 1_555
O2C C6C 1_555 1_555
C1C C2C 1_555 1_555
C2C H2C 1_555 1_555
C3C C2C 1_555 1_555
C4C C3C 1_555 1_555
H3C C4C 1_555 1_555
C5C C5 1_555 1_555
C6C C3C 1_555 1_555
O1Y C6Y 1_555 1_555
O2Y C6Y 1_555 1_555
C2Y C1C 1_555 1_555
H2Y C2Y 1_555 1_555
C3Y C4C 1_555 1_555
C6Y C3Y 1_555 1_555
O1Z C6Z 1_555 1_555
O2Z C6Z 1_555 1_555
C2Z C1 1_555 1_555
H2Z C2Z 1_555 1_555
C3Z C4 1_555 1_555
C6Z C3Z 1_555 1_555
H1R O4 1_555 1_555
In1D O2 1_555 1_555
O1D In1D 1_555 1_555
O2D C6D 1_555 1_555
O4D In1D 1_555 1_555
H1D O4D 1_555 1_555
C1D C2D 1_555 1_555
C2D H2D 1_555 1_555
C3D C2D 1_555 1_555
C4D C3D 1_555 1_555
H3D C4D 1_555 1_555
C5D C1D 1_555 1_555
C6D O1D 1_555 1_555
O1G C6G 1_555 1_555
O2G C6G 1_555 1_555
C1G C2G 1_555 1_555
C2G H2G 1_555 1_555
C3G C2G 1_555 1_555
C4G C3G 1_555 1_555
H3G C4G 1_555 1_555
C5G C5D 1_555 1_555
C6G C3G 1_555 1_555
O1CA C6CA 1_555 1_555
O2CA C6CA 1_555 1_555
C2CA C1G 1_555 1_555
H2CA C2CA 1_555 1_555
C3CA C4G 1_555 1_555
C6CA C3CA 1_555 1_555
O1DA C6DA 1_555 1_555
O2DA C6DA 1_555 1_555
C2DA C1D 1_555 1_555
H2DA C2DA 1_555 1_555
C3DA C4D 1_555 1_555
C6DA C3DA 1_555 1_555
H1M O4D 1_555 1_555
In1H O3 1_555 1_555
O4H In1H 1_555 1_555
H1H O4H 1_555 1_555
H1W O4H 1_555 1_555
In1Y O1Y 1_555 1_555
O4Y In1Y 1_555 1_555
H1Y O4Y 1_555 1_555
H1NA O4Y 1_555 1_555
In1Z O1Z 1_555 1_555
O4Z In1Z 1_555 1_555
H1Z O4Z 1_555 1_555
H1QA O4Z 1_555 1_555
In1CA O1CA 1_555 1_555
O4CA In1CA 1_555 1_555
H1CA O4CA 1_555 1_555
H1MA O4CA 1_555 1_555
O1R In1 1_555 1_555
O2R In1H 1_555 1_555
C1R C2R 1_555 1_555
C2R H2R 1_555 1_555
C3R C2R 1_555 1_555
C4R C3R 1_555 1_555
H3R C4R 1_555 1_555
C5R C1R 1_555 1_555
C6R O1R 1_555 1_555
O1Q C6Q 1_555 1_555
O2Q C6Q 1_555 1_555
C1Q C2Q 1_555 1_555
C2Q H2Q 1_555 1_555
C3Q C2Q 1_555 1_555
C4Q C3Q 1_555 1_555
H3Q C4Q 1_555 1_555
C5Q C5R 1_555 1_555
C6Q C3Q 1_555 1_555
O1QA C6QA 1_555 1_555
O2QA C6QA 1_555 1_555
C2QA C1Q 1_555 1_555
H2QA C2QA 1_555 1_555
C3QA C4Q 1_555 1_555
C6QA C3QA 1_555 1_555
O1NA C6NA 1_555 1_555
O2NA C6NA 1_555 1_555
C2NA C1R 1_555 1_555
H2NA C2NA 1_555 1_555
C3NA C4R 1_555 1_555
C6NA C3NA 1_555 1_555
O3Y In1Y 1_555 1_555
In1C O1C 1_555 1_555
In1C_2 O1Q 1_555 1_555
In1E O2C 1_555 1_555
In1G O1G 1_555 1_555
In1I O2G 1_555 1_555
In1J O2Q 1_555 1_555
In1Y_2 O1NA 1_555 1_555
In1Z_2 O1QA 1_555 1_555
In1DA O2Y 1_555 1_555
In1EA O2Z 1_555 1_555
In1GA O2QA 1_555 1_555
In1HA O2CA 1_555 1_555
In1IA O2DA 1_555 1_555
In1IA_2 O2NA 1_555 1_555
O1H In1H 1_555 1_555
O1M In1D 1_555 1_555
O1W In1H 1_555 1_555
O1MA In1CA 1_555 1_555
O1NA_2 In1Y 1_555 1_555
O1QA_2 In1Z 1_555 1_555
O2H In1 1_555 1_555
O2M In1 1_555 1_555
O2W In1D 1_555 1_555
O2AA In1CA 1_555 1_555
O2GA In1Z 1_555 1_555
O2IA In1Y 1_555 1_555
O2JA In1Y 1_555 1_555
O2LA In1Z 1_555 1_555
O2TA In1CA 1_555 1_555
O3Z In1Z 1_555 1_555
O3AA In1CA 1_555 1_555
O7Z N1 1_555 1_555
O8D N2 1_555 1_555
O8H N2 1_555 1_555
O3 In1D 1_555 1_555
C1C C5C 1_555 1_555
C2Y C3Y 1_555 1_555
C2Z C3Z 1_555 1_555
O2D In1H 1_555 1_555
C3D C6D 1_555 1_555
C1G C5G 1_555 1_555
C2CA C3CA 1_555 1_555
O1DA In1DA 1_555 1_555
C2DA C3DA 1_555 1_555
O2R C6R 1_555 1_555
C3R C6R 1_555 1_555
C1Q C5Q 1_555 1_555
C2QA C3QA 1_555 1_555
C2NA C3NA 1_555 1_555
O3Y In1DA 1_555 1_555
O3Y In1IA 1_555 1_555
In1EA O3Z 1_555 1_555
In1HA O3AA 1_555 1_555

#END
