
#######################################################################
#
#                 Cambridge Crystallographic Data Centre
#                                CCDC 
#
#######################################################################
#
# If this CIF has been generated from an entry in the Cambridge 
# Structural Database, then it will include bibliographic, chemical, 
# crystal, experimental, refinement or atomic coordinate data resulting 
# from the CCDC's data processing and validation procedures.
#
#######################################################################

data_DIHVIB
_chemical_formula_moiety         '(C18 H12 Cu3 O15)n'
_symmetry_cell_setting           cubic
_symmetry_space_group_name_H-M   'F m -3 m'
_symmetry_Int_Tables_number      225
_space_group_name_Hall           '-F 4 2 3'
loop_
_symmetry_equiv_pos_site_id
_symmetry_equiv_pos_as_xyz
1 x,y,z
2 -x,-y,z
3 -x,y,-z
4 x,-y,-z
5 z,x,y
6 z,-x,-y
7 -z,-x,y
8 -z,x,-y
9 y,z,x
10 -y,z,-x
11 y,-z,-x
12 -y,-z,x
13 y,x,-z
14 -y,-x,-z
15 y,-x,z
16 -y,x,z
17 x,z,-y
18 -x,z,y
19 -x,-z,-y
20 x,-z,y
21 z,y,-x
22 z,-y,x
23 -z,y,x
24 -z,-y,-x
25 x,1/2+y,1/2+z
26 -x,1/2-y,1/2+z
27 -x,1/2+y,1/2-z
28 x,1/2-y,1/2-z
29 z,1/2+x,1/2+y
30 z,1/2-x,1/2-y
31 -z,1/2-x,1/2+y
32 -z,1/2+x,1/2-y
33 y,1/2+z,1/2+x
34 -y,1/2+z,1/2-x
35 y,1/2-z,1/2-x
36 -y,1/2-z,1/2+x
37 y,1/2+x,1/2-z
38 -y,1/2-x,1/2-z
39 y,1/2-x,1/2+z
40 -y,1/2+x,1/2+z
41 x,1/2+z,1/2-y
42 -x,1/2+z,1/2+y
43 -x,1/2-z,1/2-y
44 x,1/2-z,1/2+y
45 z,1/2+y,1/2-x
46 z,1/2-y,1/2+x
47 -z,1/2+y,1/2+x
48 -z,1/2-y,1/2-x
49 1/2+x,y,1/2+z
50 1/2-x,-y,1/2+z
51 1/2-x,y,1/2-z
52 1/2+x,-y,1/2-z
53 1/2+z,x,1/2+y
54 1/2+z,-x,1/2-y
55 1/2-z,-x,1/2+y
56 1/2-z,x,1/2-y
57 1/2+y,z,1/2+x
58 1/2-y,z,1/2-x
59 1/2+y,-z,1/2-x
60 1/2-y,-z,1/2+x
61 1/2+y,x,1/2-z
62 1/2-y,-x,1/2-z
63 1/2+y,-x,1/2+z
64 1/2-y,x,1/2+z
65 1/2+x,z,1/2-y
66 1/2-x,z,1/2+y
67 1/2-x,-z,1/2-y
68 1/2+x,-z,1/2+y
69 1/2+z,y,1/2-x
70 1/2+z,-y,1/2+x
71 1/2-z,y,1/2+x
72 1/2-z,-y,1/2-x
73 1/2+x,1/2+y,z
74 1/2-x,1/2-y,z
75 1/2-x,1/2+y,-z
76 1/2+x,1/2-y,-z
77 1/2+z,1/2+x,y
78 1/2+z,1/2-x,-y
79 1/2-z,1/2-x,y
80 1/2-z,1/2+x,-y
81 1/2+y,1/2+z,x
82 1/2-y,1/2+z,-x
83 1/2+y,1/2-z,-x
84 1/2-y,1/2-z,x
85 1/2+y,1/2+x,-z
86 1/2-y,1/2-x,-z
87 1/2+y,1/2-x,z
88 1/2-y,1/2+x,z
89 1/2+x,1/2+z,-y
90 1/2-x,1/2+z,y
91 1/2-x,1/2-z,-y
92 1/2+x,1/2-z,y
93 1/2+z,1/2+y,-x
94 1/2+z,1/2-y,x
95 1/2-z,1/2+y,x
96 1/2-z,1/2-y,-x
97 -x,-y,-z
98 x,y,-z
99 x,-y,z
100 -x,y,z
101 -z,-x,-y
102 -z,x,y
103 z,x,-y
104 z,-x,y
105 -y,-z,-x
106 y,-z,x
107 -y,z,x
108 y,z,-x
109 -y,-x,z
110 y,x,z
111 -y,x,-z
112 y,-x,-z
113 -x,-z,y
114 x,-z,-y
115 x,z,y
116 -x,z,-y
117 -z,-y,x
118 -z,y,-x
119 z,-y,-x
120 z,y,x
121 -x,1/2-y,1/2-z
122 x,1/2+y,1/2-z
123 x,1/2-y,1/2+z
124 -x,1/2+y,1/2+z
125 -z,1/2-x,1/2-y
126 -z,1/2+x,1/2+y
127 z,1/2+x,1/2-y
128 z,1/2-x,1/2+y
129 -y,1/2-z,1/2-x
130 y,1/2-z,1/2+x
131 -y,1/2+z,1/2+x
132 y,1/2+z,1/2-x
133 -y,1/2-x,1/2+z
134 y,1/2+x,1/2+z
135 -y,1/2+x,1/2-z
136 y,1/2-x,1/2-z
137 -x,1/2-z,1/2+y
138 x,1/2-z,1/2-y
139 x,1/2+z,1/2+y
140 -x,1/2+z,1/2-y
141 -z,1/2-y,1/2+x
142 -z,1/2+y,1/2-x
143 z,1/2-y,1/2-x
144 z,1/2+y,1/2+x
145 1/2-x,-y,1/2-z
146 1/2+x,y,1/2-z
147 1/2+x,-y,1/2+z
148 1/2-x,y,1/2+z
149 1/2-z,-x,1/2-y
150 1/2-z,x,1/2+y
151 1/2+z,x,1/2-y
152 1/2+z,-x,1/2+y
153 1/2-y,-z,1/2-x
154 1/2+y,-z,1/2+x
155 1/2-y,z,1/2+x
156 1/2+y,z,1/2-x
157 1/2-y,-x,1/2+z
158 1/2+y,x,1/2+z
159 1/2-y,x,1/2-z
160 1/2+y,-x,1/2-z
161 1/2-x,-z,1/2+y
162 1/2+x,-z,1/2-y
163 1/2+x,z,1/2+y
164 1/2-x,z,1/2-y
165 1/2-z,-y,1/2+x
166 1/2-z,y,1/2-x
167 1/2+z,-y,1/2-x
168 1/2+z,y,1/2+x
169 1/2-x,1/2-y,-z
170 1/2+x,1/2+y,-z
171 1/2+x,1/2-y,z
172 1/2-x,1/2+y,z
173 1/2-z,1/2-x,-y
174 1/2-z,1/2+x,y
175 1/2+z,1/2+x,-y
176 1/2+z,1/2-x,y
177 1/2-y,1/2-z,-x
178 1/2+y,1/2-z,x
179 1/2-y,1/2+z,x
180 1/2+y,1/2+z,-x
181 1/2-y,1/2-x,z
182 1/2+y,1/2+x,z
183 1/2-y,1/2+x,-z
184 1/2+y,1/2-x,-z
185 1/2-x,1/2-z,y
186 1/2+x,1/2-z,-y
187 1/2+x,1/2+z,y
188 1/2-x,1/2+z,-y
189 1/2-z,1/2-y,x
190 1/2-z,1/2+y,-x
191 1/2+z,1/2-y,-x
192 1/2+z,1/2+y,x
_cell_length_a                   26.3034(2)
_cell_length_b                   26.3034(2)
_cell_length_c                   26.3034(2)
_cell_angle_alpha                90
_cell_angle_beta                 90
_cell_angle_gamma                90
_cell_volume                     18198.5
loop_
_atom_site_label
_atom_site_type_symbol
_atom_site_fract_x
_atom_site_fract_y
_atom_site_fract_z
Cu1 Cu 0.21612(5) 0.78388(5) 0.000
O1 O 0.18783(13) 0.74203(12) -0.04904(12)
O2 O 0.1568(2) 0.8432(2) 0.000
C1 C 0.20441(5) 0.70441(5) -0.06992(6)
C2 C 0.18112(5) 0.68112(5) -0.11622(6)
C3 C 0.20276(6) 0.63785(5) -0.13785(5)
H1 H 0.23101 0.623733 -0.123733
O1EA O 0.04904(12) 0.68783(13) -0.24203(12)
C1MD C 0.06992(6) 0.70441(5) -0.20441(5)
C2MD C 0.11622(6) 0.68112(5) -0.18112(5)
C3EA C 0.13785(5) 0.70276(6) -0.13785(5)
H1EA H 0.123733 0.73101 -0.123733
O1GE O 0.18783(13) 0.54904(12) -0.24203(12)
C1GE C 0.20441(5) 0.56992(6) -0.20441(5)
C2GE C 0.18112(5) 0.61622(6) -0.18112(5)
O1DC O 0.24203(12) 0.54904(12) -0.18783(13)
C3MD C 0.13785(5) 0.63785(5) -0.20276(6)
H1MD H 0.123733 0.623733 -0.23101
O1YF O 0.24203(12) 0.68783(13) -0.04904(12)
O1MD O 0.04904(12) 0.74203(12) -0.18783(13)
Cu1F Cu 0.000 0.78388(5) -0.21612(5)
O1F O 0.04904(12) 0.81217(13) -0.25797(12)
O2F O 0.000 0.8432(2) -0.1568(2)
C1F C 0.06992(6) 0.79559(5) -0.29559(5)
C2F C 0.11622(6) 0.81888(5) -0.31888(5)
C3F C 0.13785(5) 0.79724(6) -0.36215(5)
H1F H 0.123733 0.76899 -0.376267
O1DB O 0.24203(12) 0.95096(12) -0.31217(13)
C1JD C 0.20441(5) 0.93008(6) -0.29559(5)
C2JD C 0.18112(5) 0.88378(6) -0.31888(5)
C3JE C 0.13785(5) 0.86215(5) -0.29724(6)
H1JE H 0.123733 0.876267 -0.26899
O1CF O 0.24203(12) 0.81217(13) -0.45096(12)
C1AA C 0.20441(5) 0.79559(5) -0.43008(6)
C2AA C 0.18112(5) 0.81888(5) -0.38378(6)
O1AA O 0.18783(13) 0.75797(12) -0.45096(12)
C3JD C 0.20276(6) 0.86215(5) -0.36215(5)
H1JD H 0.23101 0.876267 -0.376267
O1JE O 0.04904(12) 0.75797(12) -0.31217(13)
O1JD O 0.18783(13) 0.95096(12) -0.25797(12)
Cu1I Cu 0.21612(5) 1.000 -0.21612(5)
O2I O 0.1568(2) 1.000 -0.1568(2)
Cu1AA Cu 0.21612(5) 0.71612(5) -0.500
Cu1EA Cu 0.000 0.71612(5) -0.28388(5)
Cu1IA Cu 0.21612(5) 0.500 -0.28388(5)
Cu1XA Cu 0.28388(5) 0.78388(5) -0.500
Cu1DB Cu 0.28388(5) 1.000 -0.28388(5)
Cu1UB Cu 0.28388(5) 0.71612(5) 0.000
Cu1DC Cu 0.28388(5) 0.500 -0.21612(5)
O1I O 0.25797(12) 0.95096(12) -0.18783(13)
O1M O 0.25797(12) 0.81217(13) 0.04904(12)
O1S O 0.18783(13) 1.04904(12) -0.25797(12)
O1T O -0.04904(12) 0.74203(12) -0.18783(13)
O1SC O 0.18783(13) 0.74203(12) 0.04904(12)
O1YC O -0.04904(12) 0.81217(13) -0.25797(12)
O1ZC O 0.25797(12) 1.04904(12) -0.18783(13)
O1DD O 0.25797(12) 0.81217(13) -0.04904(12)
loop_
_geom_bond_atom_site_label_1
_geom_bond_atom_site_label_2
_geom_bond_site_symmetry_1
_geom_bond_site_symmetry_2
Cu1 O1 1_555 1_555
O1 C1 1_555 1_555
O2 Cu1 1_555 1_555
C1 C2 1_555 1_555
C2 C3 1_555 1_555
C3 H1 1_555 1_555
O1EA C1MD 1_555 1_555
C1MD C2MD 1_555 1_555
C2MD C3EA 1_555 1_555
C3EA C2 1_555 1_555
H1EA C3EA 1_555 1_555
O1GE C1GE 1_555 1_555
C1GE C2GE 1_555 1_555
C2GE C3 1_555 1_555
O1DC C1GE 1_555 1_555
C3MD C2MD 1_555 1_555
H1MD C3MD 1_555 1_555
O1YF C1 1_555 1_555
O1MD C1MD 1_555 1_555
Cu1F O1MD 1_555 1_555
O1F Cu1F 1_555 1_555
O2F Cu1F 1_555 1_555
C1F O1F 1_555 1_555
C2F C1F 1_555 1_555
C3F C2F 1_555 1_555
H1F C3F 1_555 1_555
O1DB C1JD 1_555 1_555
C1JD C2JD 1_555 1_555
C2JD C3JE 1_555 1_555
C3JE C2F 1_555 1_555
H1JE C3JE 1_555 1_555
O1CF C1AA 1_555 1_555
C1AA C2AA 1_555 1_555
C2AA C3F 1_555 1_555
O1AA C1AA 1_555 1_555
C3JD C2JD 1_555 1_555
H1JD C3JD 1_555 1_555
O1JE C1F 1_555 1_555
O1JD C1JD 1_555 1_555
Cu1I O1JD 1_555 1_555
O2I Cu1I 1_555 1_555
Cu1AA O1AA 1_555 1_555
Cu1EA O1EA 1_555 1_555
Cu1IA O1GE 1_555 1_555
Cu1XA O1CF 1_555 1_555
Cu1DB O1DB 1_555 1_555
Cu1UB O1YF 1_555 1_555
Cu1DC O1DC 1_555 1_555
O1I Cu1I 1_555 1_555
O1M Cu1 1_555 1_555
O1S Cu1I 1_555 1_555
O1T Cu1F 1_555 1_555
O1SC Cu1 1_555 1_555
O1YC Cu1F 1_555 1_555
O1ZC Cu1I 1_555 1_555
O1DD Cu1 1_555 1_555
C2GE C3MD 1_555 1_555
C2AA C3JD 1_555 1_555
O1JE Cu1EA 1_555 1_555

#END
