
#######################################################################
#
#                 Cambridge Crystallographic Data Centre
#                                CCDC 
#
#######################################################################
#
# If this CIF has been generated from an entry in the Cambridge 
# Structural Database, then it will include bibliographic, chemical, 
# crystal, experimental, refinement or atomic coordinate data resulting 
# from the CCDC's data processing and validation procedures.
#
#######################################################################

data_JOYKOZ
_chemical_formula_moiety         '(C22 H30 Mn2 N4 O6)n'
_symmetry_cell_setting           trigonal
_symmetry_space_group_name_H-M   'P 32 2 1'
_symmetry_Int_Tables_number      154
_space_group_name_Hall           'P 32 2"'
loop_
_symmetry_equiv_pos_site_id
_symmetry_equiv_pos_as_xyz
1 x,y,z
2 -x,-x+y,2/3-z
3 -x+y,-x,1/3+z
4 -y,x-y,2/3+z
5 y,x,-z
6 x-y,-y,1/3-z
_cell_length_a                   21.72913(73)
_cell_length_b                   21.72913(73)
_cell_length_c                   7.12793(29)
_cell_angle_alpha                90
_cell_angle_beta                 90
_cell_angle_gamma                120
_cell_volume                     2914.6
loop_
_atom_site_label
_atom_site_type_symbol
_atom_site_fract_x
_atom_site_fract_y
_atom_site_fract_z
_atom_site_U_iso_or_equiv
_atom_site_thermal_displace_type
Mn1 Mn 0.61195(86) 0.27435(88) 1.1406(22) 0.0419 Uiso
O1 O 0.6545(42) 0.2408(48) 0.951(12) 0.0751 Uiso
O2 O 0.6344(33) 0.2831(37) 0.622(10) 0.0751 Uiso
O3 O 0.5861(42) 0.2089(29) 0.377(12) 0.0751 Uiso
C1 C 0.6219(59) 0.1754(91) 0.868(23) 0.0751 Uiso
C2 C 0.5970(64) 0.1620(86) 0.672(23) 0.0751 Uiso
C3 C 0.5649(50) 0.0946(77) 0.602(18) 0.0751 Uiso
C4 C 0.5544(48) 0.0352(49) 0.714(22) 0.0751 Uiso
C5 C 0.5785(52) 0.0481(58) 0.903(18) 0.0751 Uiso
C6 C 0.6130(60) 0.1206(76) 0.978(16) 0.0751 Uiso
C7 C 0.6064(74) 0.2205(72) 0.554(18) 0.0751 Uiso
H1 H 0.57231 0.00976 0.97995 0.0751 Uiso
H2 H 0.62917 0.12927 1.10458 0.0751 Uiso
H3 H 0.54932 0.08762 0.47526 0.0751 Uiso
N1 N 0.4973(32) 0.2081(48) 1.036(10) 0.0063 Uiso
N2 N 0.4273(81) 0.1184(72) 1.381(23) 0.2824 Uiso
C8 C 0.457(14) 0.246(23) 1.014(61) 0.2824 Uiso
C9 C 0.4464(94) 0.131(13) 1.042(30) 0.2824 Uiso
C10 C 0.3959(90) 0.1204(82) 1.200(24) 0.2824 Uiso
C11 C 0.4125(86) 0.0468(60) 1.428(27) 0.2824 Uiso
H4 H 0.40932 0.21579 1.05438 0.3382 Uiso
H5 H 0.47926 0.28832 1.08918 0.3382 Uiso
H6 H 0.45798 0.25844 0.88468 0.3382 Uiso
H7 H 0.42176 0.11565 0.92242 0.3382 Uiso
H8 H 0.47201 0.10556 1.06494 0.3382 Uiso
H9 H 0.38624 0.15937 1.20064 0.3382 Uiso
H10 H 0.35187 0.07589 1.18201 0.3382 Uiso
H11 H 0.46696 0.15887 1.39844 0.3382 Uiso
H12 H 0.37293 0.01278 1.35459 0.3382 Uiso
H13 H 0.4536 0.04276 1.40003 0.3382 Uiso
H14 H 0.40139 0.03807 1.55864 0.3382 Uiso
O1E O 0.4137(64) -0.2408(48) 0.382(12) 0.0751 Uiso
O2E O 0.3513(50) -0.2831(37) 0.711(10) 0.0751 Uiso
O3E O 0.3772(51) -0.2089(29) 0.956(12) 0.0751 Uiso
C1E C 0.447(11) -0.1754(91) 0.465(23) 0.0751 Uiso
C2E C 0.435(11) -0.1620(86) 0.661(23) 0.0751 Uiso
C3E C 0.4703(92) -0.0946(77) 0.731(18) 0.0751 Uiso
C4E C 0.5192(69) -0.0352(49) 0.619(22) 0.0751 Uiso
C5E C 0.5304(78) -0.0481(58) 0.430(18) 0.0751 Uiso
C6E C 0.4924(97) -0.1206(76) 0.355(16) 0.0751 Uiso
C7E C 0.386(10) -0.2205(72) 0.779(18) 0.0751 Uiso
H1E H 0.56255 -0.00976 0.35338 0.0751 Uiso
H2E H 0.49990 -0.12927 0.22875 0.0751 Uiso
H3E H 0.46170 -0.08762 0.85807 0.0751 Uiso
Mn1E Mn 0.3376(12) -0.27435(88) 0.1927(22) 0.0419 Uiso
N1E N 0.2892(58) -0.2081(48) 0.297(10) 0.0063 Uiso
N2E N 0.309(11) -0.1184(72) -0.048(23) 0.2824 Uiso
C8E C 0.211(27) -0.246(23) 0.319(61) 0.2824 Uiso
C9E C 0.315(16) -0.131(13) 0.291(30) 0.2824 Uiso
C10E C 0.276(12) -0.1204(82) 0.133(24) 0.2824 Uiso
C11E C 0.366(11) -0.0468(60) -0.095(27) 0.2824 Uiso
H4E H 0.19353 -0.21579 0.27895 0.3382 Uiso
H5E H 0.19094 -0.28832 0.24415 0.3382 Uiso
H6E H 0.19954 -0.25844 0.44865 0.3382 Uiso
H7E H 0.30611 -0.11565 0.41091 0.3382 Uiso
H8E H 0.36645 -0.10556 0.26839 0.3382 Uiso
H9E H 0.22687 -0.15937 0.13269 0.3382 Uiso
H10E H 0.27598 -0.07589 0.15132 0.3382 Uiso
H11E H 0.30809 -0.15887 -0.06511 0.3382 Uiso
H12E H 0.36015 -0.01278 -0.02126 0.3382 Uiso
H13E H 0.41084 -0.04276 -0.06670 0.3382 Uiso
H14E H 0.36332 -0.03807 -0.22531 0.3382 Uiso
Mn1A Mn 0.38805(86) -0.3376(12) 0.5261(22) 0.0419 Uiso
Mn1B Mn 0.6624(12) 0.38805(86) 0.4739(22) 0.0419 Uiso
Mn1C Mn 0.72565(88) 0.3376(12) 0.8073(22) 0.0419 Uiso
Mn1D Mn 0.27435(88) -0.38805(86) 0.8594(22) 0.0419 Uiso
Mn1E_2 Mn 0.3376(12) -0.27435(88) 1.1927(22) 0.0419 Uiso
Mn1_2 Mn 0.61195(86) 0.27435(88) 0.1406(22) 0.0419 Uiso
O1B O 0.5863(64) 0.3455(42) 1.284(12) 0.0751 Uiso
O1D O 0.2408(48) -0.3455(42) 0.049(12) 0.0751 Uiso
O2A O 0.3656(33) -0.3513(50) 0.045(10) 0.0751 Uiso
O2B O 0.6487(50) 0.3656(33) 0.955(10) 0.0751 Uiso
O2C O 0.7169(37) 0.3513(50) 1.289(10) 0.0751 Uiso
O2D O 0.2831(37) -0.3656(33) 0.378(10) 0.0751 Uiso
O3E_2 O 0.3772(51) -0.2089(29) -0.044(12) 0.0751 Uiso
O3_2 O 0.5861(42) 0.2089(29) 1.377(12) 0.0751 Uiso
loop_
_geom_bond_atom_site_label_1
_geom_bond_atom_site_label_2
_geom_bond_site_symmetry_1
_geom_bond_site_symmetry_2
Mn1 O1 1_555 1_555
O1 C1 1_555 1_555
O2 C7 1_555 1_555
O3 C7 1_555 1_555
C1 C2 1_555 1_555
C2 C3 1_555 1_555
C3 C4 1_555 1_555
C4 C5 1_555 1_555
C5 C6 1_555 1_555
C6 C1 1_555 1_555
C7 C2 1_555 1_555
H1 C5 1_555 1_555
H2 C6 1_555 1_555
H3 C3 1_555 1_555
N1 Mn1 1_555 1_555
N2 C10 1_555 1_555
C8 N1 1_555 1_555
C9 N1 1_555 1_555
C10 C9 1_555 1_555
C11 N2 1_555 1_555
H4 C8 1_555 1_555
H5 C8 1_555 1_555
H6 C8 1_555 1_555
H7 C9 1_555 1_555
H8 C9 1_555 1_555
H9 C10 1_555 1_555
H10 C10 1_555 1_555
H11 N2 1_555 1_555
H12 C11 1_555 1_555
H13 C11 1_555 1_555
H14 C11 1_555 1_555
O1E C1E 1_555 1_555
O2E C7E 1_555 1_555
O3E C7E 1_555 1_555
C1E C2E 1_555 1_555
C2E C3E 1_555 1_555
C3E C4E 1_555 1_555
C4E C4 1_555 1_555
C5E C4E 1_555 1_555
C6E C1E 1_555 1_555
C7E C2E 1_555 1_555
H1E C5E 1_555 1_555
H2E C6E 1_555 1_555
H3E C3E 1_555 1_555
Mn1E O1E 1_555 1_555
N1E Mn1E 1_555 1_555
N2E C10E 1_555 1_555
C8E N1E 1_555 1_555
C9E N1E 1_555 1_555
C10E C9E 1_555 1_555
C11E N2E 1_555 1_555
H4E C8E 1_555 1_555
H5E C8E 1_555 1_555
H6E C8E 1_555 1_555
H7E C9E 1_555 1_555
H8E C9E 1_555 1_555
H9E C10E 1_555 1_555
H10E C10E 1_555 1_555
H11E N2E 1_555 1_555
H12E C11E 1_555 1_555
H13E C11E 1_555 1_555
H14E C11E 1_555 1_555
Mn1A O1E 1_555 1_555
Mn1B O2 1_555 1_555
Mn1C O1 1_555 1_555
Mn1D O2E 1_555 1_555
Mn1E_2 O3E 1_555 1_555
Mn1_2 O3 1_555 1_555
O1B Mn1 1_555 1_555
O1D Mn1E 1_555 1_555
O2A Mn1E 1_555 1_555
O2B Mn1 1_555 1_555
O2C Mn1 1_555 1_555
O2D Mn1E 1_555 1_555
O3E_2 Mn1E 1_555 1_555
O3_2 Mn1 1_555 1_555
O2 Mn1C 1_555 1_555
O2E Mn1A 1_555 1_555
C5E C6E 1_555 1_555
Mn1A O2D 1_555 1_555
Mn1C O2B 1_555 1_555

#END
