
#######################################################################
#
#                 Cambridge Crystallographic Data Centre
#                                CCDC 
#
#######################################################################
#
# If this CIF has been generated from an entry in the Cambridge 
# Structural Database, then it will include bibliographic, chemical, 
# crystal, experimental, refinement or atomic coordinate data resulting 
# from the CCDC's data processing and validation procedures.
#
#######################################################################

data_IMAXUR
_chemical_formula_moiety         'C92 H64 Cu12 N26 O38'
_symmetry_cell_setting           tetragonal
_symmetry_space_group_name_H-M   'P 42/m n m'
_symmetry_Int_Tables_number      136
_space_group_name_Hall           '-P 4n 2n'
loop_
_symmetry_equiv_pos_site_id
_symmetry_equiv_pos_as_xyz
1 x,y,z
2 1/2-y,1/2+x,1/2+z
3 -x,-y,z
4 1/2+y,1/2-x,1/2+z
5 1/2+x,1/2-y,1/2-z
6 1/2-x,1/2+y,1/2-z
7 y,x,-z
8 -y,-x,-z
9 -x,-y,-z
10 1/2+y,1/2-x,1/2-z
11 x,y,-z
12 1/2-y,1/2+x,1/2-z
13 1/2-x,1/2+y,1/2+z
14 1/2+x,1/2-y,1/2+z
15 -y,-x,z
16 y,x,z
_cell_length_a                   19.111(3)
_cell_length_b                   19.111(3)
_cell_length_c                   19.915(4)
_cell_angle_alpha                90
_cell_angle_beta                 90
_cell_angle_gamma                90
_cell_volume                     7273.56
loop_
_atom_site_label
_atom_site_type_symbol
_atom_site_fract_x
_atom_site_fract_y
_atom_site_fract_z
Cu1 Cu 0.63126(3) 0.63126(3) 0.5000
C1 C 0.4154(4) 0.8542(4) 1.0000
H1 H 0.3765 0.8884 1.0000
H2 H 0.3951 0.8065 1.0000
Cu2 Cu 0.72847(4) 0.72847(4) 0.5000
Cu3 Cu 0.5000 1.0000 1.0000
N1 N 0.4580(2) 0.8639(2) 0.94051(16)
N2 N 0.4920(2) 0.9253(2) 0.92965(16)
C2 C 0.5256(3) 0.9176(2) 0.8719(2)
H3 H 0.5549 0.9520 0.8520
C3 C 0.5118(3) 0.8518(3) 0.8444(2)
C4 C 0.4691(2) 0.8191(3) 0.8898(2)
H4 H 0.4507 0.7731 0.8860
C5 C 0.5373(3) 0.8247(2) 0.7791(2)
C6 C 0.4998(3) 0.7740(3) 0.7440(2)
H5 H 0.4569 0.7570 0.7616
C7 C 0.5247(3) 0.7483(3) 0.6837(3)
H6 H 0.4985 0.7140 0.6600
C8 C 0.5874(2) 0.7722(2) 0.6576(2)
C9 C 0.6245(3) 0.8232(3) 0.6916(2)
H7 H 0.6671 0.8405 0.6736
C10 C 0.5993(3) 0.8490(3) 0.7521(2)
H8 H 0.6251 0.8840 0.7753
C11 C 0.6175(2) 0.7425(2) 0.5942(2)
O1 O 0.58776(17) 0.68798(17) 0.57055(14)
O2 O 0.67092(17) 0.77154(15) 0.57040(14)
N3 N 0.5511(3) 0.5511(3) 0.5000
C12 C 0.5522(5) 0.4973(5) 0.4572(5)
H9 H 0.5894 0.4941 0.4257
O3 O 0.8073(3) 0.8073(3) 0.5000
O4 O 0.3771(4) 1.0162(4) 1.0000
N4 N 0.3110(9) 1.0353(11) 1.0000
O5 O 0.2859(8) 1.0978(9) 1.0000
O6 O 0.2615(8) 0.9784(9) 1.0000
N1J N 0.4580(2) 0.8639(2) 1.05949(16)
N2J N 0.4920(2) 0.9253(2) 1.07035(16)
C2J C 0.5256(3) 0.9176(2) 1.1281(2)
H3J H 0.5549 0.9520 1.1480
C3J C 0.5118(3) 0.8518(3) 1.1556(2)
C4J C 0.4691(2) 0.8191(3) 1.1102(2)
H4J H 0.4507 0.7731 1.1140
C5J C 0.5373(3) 0.8247(2) 1.2209(2)
C6J C 0.4998(3) 0.7740(3) 1.2560(2)
H5J H 0.4569 0.7570 1.2384
C7J C 0.5247(3) 0.7483(3) 1.3163(3)
H6J H 0.4985 0.7140 1.3400
C8J C 0.5874(2) 0.7722(2) 1.3424(2)
C9J C 0.6245(3) 0.8232(3) 1.3084(2)
H7J H 0.6671 0.8405 1.3264
C10J C 0.5993(3) 0.8490(3) 1.2479(2)
H8J H 0.6251 0.8840 1.2247
C11J C 0.6175(2) 0.7425(2) 1.4058(2)
O1J O 0.58776(17) 0.68798(17) 1.42945(14)
O2J O 0.67092(17) 0.77154(15) 1.42960(14)
C12F C 0.4973(5) 0.5522(5) 0.5428(5)
H9F H 0.4941 0.5894 0.5743
C12J C 0.5522(5) 0.4973(5) 0.5428(5)
H9J H 0.5894 0.4941 0.5743
N3B N 0.4489(3) 0.4489(3) 0.5000
C12N C 0.5027(5) 0.4478(5) 0.4572(5)
H9N H 0.5059 0.4106 0.4257
C12O C 0.4973(5) 0.5522(5) 0.4572(5)
H9O H 0.4941 0.5894 0.4257
C12B C 0.4478(5) 0.5027(5) 0.4572(5)
H9B H 0.4106 0.5059 0.4257
C12G C 0.5027(5) 0.4478(5) 0.5428(5)
H9G H 0.5059 0.4106 0.5743
C12H C 0.4478(5) 0.5027(5) 0.5428(5)
H9H H 0.4106 0.5059 0.5743
Cu1B Cu 0.36874(3) 0.36874(3) 0.5000
C1B C 0.5846(4) 0.1458(4) 1.0000
H1B H 0.6235 0.1116 1.0000
H2B H 0.6049 0.1935 1.0000
Cu2B Cu 0.27153(4) 0.27153(4) 0.5000
Cu3_2 Cu 0.5000 0.0000 1.0000
N1B N 0.5420(2) 0.1361(2) 0.94051(16)
N2B N 0.5080(2) 0.0747(2) 0.92965(16)
C2B C 0.4744(3) 0.0824(2) 0.8719(2)
H3B H 0.4451 0.0480 0.8520
C3B C 0.4882(3) 0.1482(3) 0.8444(2)
C4B C 0.5309(2) 0.1809(3) 0.8898(2)
H4B H 0.5493 0.2269 0.8860
C5B C 0.4627(3) 0.1753(2) 0.7791(2)
C6B C 0.5002(3) 0.2260(3) 0.7440(2)
H5B H 0.5431 0.2430 0.7616
C7B C 0.4753(3) 0.2517(3) 0.6837(3)
H6B H 0.5015 0.2860 0.6600
C8B C 0.4126(2) 0.2278(2) 0.6576(2)
C9B C 0.3755(3) 0.1768(3) 0.6916(2)
H7B H 0.3329 0.1595 0.6736
C10B C 0.4007(3) 0.1510(3) 0.7521(2)
H8B H 0.3749 0.1160 0.7753
C11B C 0.3825(2) 0.2575(2) 0.5942(2)
O1B O 0.41224(17) 0.31202(17) 0.57055(14)
O2B O 0.32908(17) 0.22846(15) 0.57040(14)
O3B O 0.1927(3) 0.1927(3) 0.5000
O4B O 0.6229(4) -0.0162(4) 1.0000
N4B N 0.6890(9) -0.0353(11) 1.0000
O5B O 0.7141(8) -0.0978(9) 1.0000
O6B O 0.7385(8) 0.0216(9) 1.0000
N1H N 0.5420(2) 0.1361(2) 1.05949(16)
N2H N 0.5080(2) 0.0747(2) 1.07035(16)
C2H C 0.4744(3) 0.0824(2) 1.1281(2)
H3H H 0.4451 0.0480 1.1480
C3H C 0.4882(3) 0.1482(3) 1.1556(2)
C4H C 0.5309(2) 0.1809(3) 1.1102(2)
H4H H 0.5493 0.2269 1.1140
C5H C 0.4627(3) 0.1753(2) 1.2209(2)
C6H C 0.5002(3) 0.2260(3) 1.2560(2)
H5H H 0.5431 0.2430 1.2384
C7H C 0.4753(3) 0.2517(3) 1.3163(3)
H6H H 0.5015 0.2860 1.3400
C8H C 0.4126(2) 0.2278(2) 1.3424(2)
C9H C 0.3755(3) 0.1768(3) 1.3084(2)
H7H H 0.3329 0.1595 1.3264
C10H C 0.4007(3) 0.1510(3) 1.2479(2)
H8H H 0.3749 0.1160 1.2247
C11H C 0.3825(2) 0.2575(2) 1.4058(2)
O1H O 0.41224(17) 0.31202(17) 1.42945(14)
O2H O 0.32908(17) 0.22846(15) 1.42960(14)
C1G C 0.1458(4) 0.5846(4) 1.0000
H1G H 0.1116 0.6235 1.0000
H2G H 0.1935 0.6049 1.0000
N1N N 0.1361(2) 0.5420(2) 0.94051(16)
N2N N 0.0747(2) 0.5080(2) 0.92965(16)
C2N C 0.0824(2) 0.4744(3) 0.8719(2)
H3N H 0.0480 0.4451 0.8520
C3N C 0.1482(3) 0.4882(3) 0.8444(2)
C4N C 0.1809(3) 0.5309(2) 0.8898(2)
H4N H 0.2269 0.5493 0.8860
C5N C 0.1753(2) 0.4627(3) 0.7791(2)
C6N C 0.2260(3) 0.5002(3) 0.7440(2)
H5N H 0.2430 0.5431 0.7616
C7N C 0.2517(3) 0.4753(3) 0.6837(3)
H6N H 0.2860 0.5015 0.6600
C8N C 0.2278(2) 0.4126(2) 0.6576(2)
C9N C 0.1768(3) 0.3755(3) 0.6916(2)
H7N H 0.1595 0.3329 0.6736
C10N C 0.1510(3) 0.4007(3) 0.7521(2)
H8N H 0.1160 0.3749 0.7753
C11N C 0.2575(2) 0.3825(2) 0.5942(2)
O1N O 0.31202(17) 0.41224(17) 0.57055(14)
O2N O 0.22846(15) 0.32908(17) 0.57040(14)
N1G N 0.1361(2) 0.5420(2) 1.05949(16)
N2G N 0.0747(2) 0.5080(2) 1.07035(16)
C2G C 0.0824(2) 0.4744(3) 1.1281(2)
H3G H 0.0480 0.4451 1.1480
C3G C 0.1482(3) 0.4882(3) 1.1556(2)
C4G C 0.1809(3) 0.5309(2) 1.1102(2)
H4G H 0.2269 0.5493 1.1140
C5G C 0.1753(2) 0.4627(3) 1.2209(2)
C6G C 0.2260(3) 0.5002(3) 1.2560(2)
H5G H 0.2430 0.5431 1.2384
C7G C 0.2517(3) 0.4753(3) 1.3163(3)
H6G H 0.2860 0.5015 1.3400
C8G C 0.2278(2) 0.4126(2) 1.3424(2)
C9G C 0.1768(3) 0.3755(3) 1.3084(2)
H7G H 0.1595 0.3329 1.3264
C10G C 0.1510(3) 0.4007(3) 1.2479(2)
H8G H 0.1160 0.3749 1.2247
C11G C 0.2575(2) 0.3825(2) 1.4058(2)
O1G O 0.31202(17) 0.41224(17) 1.42945(14)
O2G O 0.22846(15) 0.32908(17) 1.42960(14)
C1F C 0.8542(4) 0.4154(4) 1.0000
H1F H 0.8884 0.3765 1.0000
H2F H 0.8065 0.3951 1.0000
N1O N 0.8639(2) 0.4580(2) 0.94051(16)
N2O N 0.9253(2) 0.4920(2) 0.92965(16)
C2O C 0.9176(2) 0.5256(3) 0.8719(2)
H3O H 0.9520 0.5549 0.8520
C3O C 0.8518(3) 0.5118(3) 0.8444(2)
C4O C 0.8191(3) 0.4691(2) 0.8898(2)
H4O H 0.7731 0.4507 0.8860
C5O C 0.8247(2) 0.5373(3) 0.7791(2)
C6O C 0.7740(3) 0.4998(3) 0.7440(2)
H5O H 0.7570 0.4569 0.7616
C7O C 0.7483(3) 0.5247(3) 0.6837(3)
H6O H 0.7140 0.4985 0.6600
C8O C 0.7722(2) 0.5874(2) 0.6576(2)
C9O C 0.8232(3) 0.6245(3) 0.6916(2)
H7O H 0.8405 0.6671 0.6736
C10O C 0.8490(3) 0.5993(3) 0.7521(2)
H8O H 0.8840 0.6251 0.7753
C11O C 0.7425(2) 0.6175(2) 0.5942(2)
O1O O 0.68798(17) 0.58776(17) 0.57055(14)
O2O O 0.77154(15) 0.67092(17) 0.57040(14)
N1F N 0.8639(2) 0.4580(2) 1.05949(16)
N2F N 0.9253(2) 0.4920(2) 1.07035(16)
C2F C 0.9176(2) 0.5256(3) 1.1281(2)
H3F H 0.9520 0.5549 1.1480
C3F C 0.8518(3) 0.5118(3) 1.1556(2)
C4F C 0.8191(3) 0.4691(2) 1.1102(2)
H4F H 0.7731 0.4507 1.1140
C5F C 0.8247(2) 0.5373(3) 1.2209(2)
C6F C 0.7740(3) 0.4998(3) 1.2560(2)
H5F H 0.7570 0.4569 1.2384
C7F C 0.7483(3) 0.5247(3) 1.3163(3)
H6F H 0.7140 0.4985 1.3400
C8F C 0.7722(2) 0.5874(2) 1.3424(2)
C9F C 0.8232(3) 0.6245(3) 1.3084(2)
H7F H 0.8405 0.6671 1.3264
C10F C 0.8490(3) 0.5993(3) 1.2479(2)
H8F H 0.8840 0.6251 1.2247
C11F C 0.7425(2) 0.6175(2) 1.4058(2)
O1F O 0.68798(17) 0.58776(17) 1.42945(14)
O2F O 0.77154(15) 0.67092(17) 1.42960(14)
O4B_2 O 0.6229(4) 0.9838(4) 1.0000
N4B_2 N 0.6890(9) 0.9647(11) 1.0000
O5B_2 O 0.7141(8) 0.9022(9) 1.0000
O6B_2 O 0.7385(8) 1.0216(9) 1.0000
O4_2 O 0.3771(4) 0.0162(4) 1.0000
N4_2 N 0.3110(9) 0.0353(11) 1.0000
O5_2 O 0.2859(8) 0.0978(9) 1.0000
O6_2 O 0.2615(8) -0.0216(9) 1.0000
Cu1_2 Cu 0.63126(3) 0.63126(3) 1.5000
Cu1B_2 Cu 0.36874(3) 0.36874(3) 1.5000
Cu2_2 Cu 0.72847(4) 0.72847(4) 1.5000
Cu2B_2 Cu 0.27153(4) 0.27153(4) 1.5000
Cu3F Cu 0.0000 0.5000 1.0000
Cu3F_2 Cu 1.0000 0.5000 1.0000
N2_2 N 0.4920(2) -0.0747(2) 0.92965(16)
N2B_2 N 0.5080(2) 1.0747(2) 0.92965(16)
N2H_2 N 0.5080(2) 1.0747(2) 1.07035(16)
N2J_2 N 0.4920(2) -0.0747(2) 1.07035(16)
O1F_2 O 0.68798(17) 0.58776(17) 0.42945(14)
O1G_2 O 0.31202(17) 0.41224(17) 0.42945(14)
O1H_2 O 0.41224(17) 0.31202(17) 0.42945(14)
O1J_2 O 0.58776(17) 0.68798(17) 0.42945(14)
O2F_2 O 0.77154(15) 0.67092(17) 0.42960(14)
O2G_2 O 0.22846(15) 0.32908(17) 0.42960(14)
O2H_2 O 0.32908(17) 0.22846(15) 0.42960(14)
O2J_2 O 0.67092(17) 0.77154(15) 0.42960(14)
loop_
_geom_bond_atom_site_label_1
_geom_bond_atom_site_label_2
_geom_bond_site_symmetry_1
_geom_bond_site_symmetry_2
Cu1 Cu2 1_555 1_555
C1 H1 1_555 1_555
H2 C1 1_555 1_555
Cu2 O2 1_555 1_555
Cu3 N2 1_555 1_555
N1 C1 1_555 1_555
N2 N1 1_555 1_555
C2 N2 1_555 1_555
H3 C2 1_555 1_555
C3 C2 1_555 1_555
C4 N1 1_555 1_555
H4 C4 1_555 1_555
C5 C3 1_555 1_555
C6 C5 1_555 1_555
H5 C6 1_555 1_555
C7 C6 1_555 1_555
H6 C7 1_555 1_555
C8 C7 1_555 1_555
C9 C8 1_555 1_555
H7 C9 1_555 1_555
C10 C5 1_555 1_555
H8 C10 1_555 1_555
C11 C8 1_555 1_555
O1 Cu1 1_555 1_555
O2 C11 1_555 1_555
N3 Cu1 1_555 1_555
C12 N3 1_555 1_555
H9 C12 1_555 1_555
O3 Cu2 1_555 1_555
O4 Cu3 1_555 1_555
N4 O4 1_555 1_555
O5 N4 1_555 1_555
O6 N4 1_555 1_555
N1J C1 1_555 1_555
N2J Cu3 1_555 1_555
C2J N2J 1_555 1_555
H3J C2J 1_555 1_555
C3J C2J 1_555 1_555
C4J N1J 1_555 1_555
H4J C4J 1_555 1_555
C5J C3J 1_555 1_555
C6J C5J 1_555 1_555
H5J C6J 1_555 1_555
C7J C6J 1_555 1_555
H6J C7J 1_555 1_555
C8J C7J 1_555 1_555
C9J C8J 1_555 1_555
H7J C9J 1_555 1_555
C10J C5J 1_555 1_555
H8J C10J 1_555 1_555
C11J C8J 1_555 1_555
O1J C11J 1_555 1_555
O2J C11J 1_555 1_555
C12F N3 1_555 1_555
H9F C12F 1_555 1_555
C12J N3 1_555 1_555
H9J C12J 1_555 1_555
N3B C12N 1_555 1_555
C12N C12 1_555 1_555
H9N C12N 1_555 1_555
C12O N3 1_555 1_555
H9O C12O 1_555 1_555
C12B N3B 1_555 1_555
H9B C12B 1_555 1_555
C12G C12J 1_555 1_555
H9G C12G 1_555 1_555
C12H C12F 1_555 1_555
H9H C12H 1_555 1_555
Cu1B N3B 1_555 1_555
C1B H1B 1_555 1_555
H2B C1B 1_555 1_555
Cu2B Cu1B 1_555 1_555
Cu3_2 N2B 1_555 1_555
N1B C1B 1_555 1_555
N2B N1B 1_555 1_555
C2B N2B 1_555 1_555
H3B C2B 1_555 1_555
C3B C2B 1_555 1_555
C4B N1B 1_555 1_555
H4B C4B 1_555 1_555
C5B C3B 1_555 1_555
C6B C5B 1_555 1_555
H5B C6B 1_555 1_555
C7B C6B 1_555 1_555
H6B C7B 1_555 1_555
C8B C7B 1_555 1_555
C9B C8B 1_555 1_555
H7B C9B 1_555 1_555
C10B C5B 1_555 1_555
H8B C10B 1_555 1_555
C11B C8B 1_555 1_555
O1B Cu1B 1_555 1_555
O2B Cu2B 1_555 1_555
O3B Cu2B 1_555 1_555
O4B Cu3_2 1_555 1_555
N4B O4B 1_555 1_555
O5B N4B 1_555 1_555
O6B N4B 1_555 1_555
N1H C1B 1_555 1_555
N2H Cu3_2 1_555 1_555
C2H N2H 1_555 1_555
H3H C2H 1_555 1_555
C3H C2H 1_555 1_555
C4H N1H 1_555 1_555
H4H C4H 1_555 1_555
C5H C3H 1_555 1_555
C6H C5H 1_555 1_555
H5H C6H 1_555 1_555
C7H C6H 1_555 1_555
H6H C7H 1_555 1_555
C8H C7H 1_555 1_555
C9H C8H 1_555 1_555
H7H C9H 1_555 1_555
C10H C5H 1_555 1_555
H8H C10H 1_555 1_555
C11H C8H 1_555 1_555
O1H C11H 1_555 1_555
O2H C11H 1_555 1_555
C1G H1G 1_555 1_555
H2G C1G 1_555 1_555
N1N C1G 1_555 1_555
N2N N1N 1_555 1_555
C2N N2N 1_555 1_555
H3N C2N 1_555 1_555
C3N C2N 1_555 1_555
C4N N1N 1_555 1_555
H4N C4N 1_555 1_555
C5N C3N 1_555 1_555
C6N C5N 1_555 1_555
H5N C6N 1_555 1_555
C7N C6N 1_555 1_555
H6N C7N 1_555 1_555
C8N C7N 1_555 1_555
C9N C8N 1_555 1_555
H7N C9N 1_555 1_555
C10N C5N 1_555 1_555
H8N C10N 1_555 1_555
C11N C8N 1_555 1_555
O1N Cu1B 1_555 1_555
O2N Cu2B 1_555 1_555
N1G C1G 1_555 1_555
N2G N1G 1_555 1_555
C2G N2G 1_555 1_555
H3G C2G 1_555 1_555
C3G C2G 1_555 1_555
C4G N1G 1_555 1_555
H4G C4G 1_555 1_555
C5G C3G 1_555 1_555
C6G C5G 1_555 1_555
H5G C6G 1_555 1_555
C7G C6G 1_555 1_555
H6G C7G 1_555 1_555
C8G C7G 1_555 1_555
C9G C8G 1_555 1_555
H7G C9G 1_555 1_555
C10G C5G 1_555 1_555
H8G C10G 1_555 1_555
C11G C8G 1_555 1_555
O1G C11G 1_555 1_555
O2G C11G 1_555 1_555
C1F H1F 1_555 1_555
H2F C1F 1_555 1_555
N1O C1F 1_555 1_555
N2O N1O 1_555 1_555
C2O N2O 1_555 1_555
H3O C2O 1_555 1_555
C3O C2O 1_555 1_555
C4O N1O 1_555 1_555
H4O C4O 1_555 1_555
C5O C3O 1_555 1_555
C6O C5O 1_555 1_555
H5O C6O 1_555 1_555
C7O C6O 1_555 1_555
H6O C7O 1_555 1_555
C8O C7O 1_555 1_555
C9O C8O 1_555 1_555
H7O C9O 1_555 1_555
C10O C5O 1_555 1_555
H8O C10O 1_555 1_555
C11O C8O 1_555 1_555
O1O Cu1 1_555 1_555
O2O Cu2 1_555 1_555
N1F C1F 1_555 1_555
N2F N1F 1_555 1_555
C2F N2F 1_555 1_555
H3F C2F 1_555 1_555
C3F C2F 1_555 1_555
C4F N1F 1_555 1_555
H4F C4F 1_555 1_555
C5F C3F 1_555 1_555
C6F C5F 1_555 1_555
H5F C6F 1_555 1_555
C7F C6F 1_555 1_555
H6F C7F 1_555 1_555
C8F C7F 1_555 1_555
C9F C8F 1_555 1_555
H7F C9F 1_555 1_555
C10F C5F 1_555 1_555
H8F C10F 1_555 1_555
C11F C8F 1_555 1_555
O1F C11F 1_555 1_555
O2F C11F 1_555 1_555
O4B_2 Cu3 1_555 1_555
N4B_2 O4B_2 1_555 1_555
O5B_2 N4B_2 1_555 1_555
O6B_2 N4B_2 1_555 1_555
O4_2 Cu3_2 1_555 1_555
N4_2 O4_2 1_555 1_555
O5_2 N4_2 1_555 1_555
O6_2 N4_2 1_555 1_555
Cu1_2 O1J 1_555 1_555
Cu1B_2 O1H 1_555 1_555
Cu2_2 O2J 1_555 1_555
Cu2B_2 O2H 1_555 1_555
Cu3F N2N 1_555 1_555
Cu3F_2 N2O 1_555 1_555
N2_2 Cu3_2 1_555 1_555
N2B_2 Cu3 1_555 1_555
N2H_2 Cu3 1_555 1_555
N2J_2 Cu3_2 1_555 1_555
O1F_2 Cu1 1_555 1_555
O1G_2 Cu1B 1_555 1_555
O1H_2 Cu1B 1_555 1_555
O1J_2 Cu1 1_555 1_555
O2F_2 Cu2 1_555 1_555
O2G_2 Cu2B 1_555 1_555
O2H_2 Cu2B 1_555 1_555
O2J_2 Cu2 1_555 1_555
C3 C4 1_555 1_555
C9 C10 1_555 1_555
C11 O1 1_555 1_555
C12 C12J 1_555 1_555
C12 C12O 1_555 1_555
N1J N2J 1_555 1_555
C3J C4J 1_555 1_555
C9J C10J 1_555 1_555
C12F C12J 1_555 1_555
C12F C12O 1_555 1_555
N3B C12G 1_555 1_555
N3B C12H 1_555 1_555
C12N C12B 1_555 1_555
C12N C12G 1_555 1_555
C12O C12B 1_555 1_555
C12B C12H 1_555 1_555
C12G C12H 1_555 1_555
C3B C4B 1_555 1_555
C9B C10B 1_555 1_555
C11B O1B 1_555 1_555
C11B O2B 1_555 1_555
N1H N2H 1_555 1_555
C3H C4H 1_555 1_555
C9H C10H 1_555 1_555
C3N C4N 1_555 1_555
C9N C10N 1_555 1_555
C11N O1N 1_555 1_555
C11N O2N 1_555 1_555
N2G Cu3F 1_555 1_555
C3G C4G 1_555 1_555
C9G C10G 1_555 1_555
O1G Cu1B_2 1_555 1_555
O2G Cu2B_2 1_555 1_555
C3O C4O 1_555 1_555
C9O C10O 1_555 1_555
C11O O1O 1_555 1_555
C11O O2O 1_555 1_555
N2F Cu3F_2 1_555 1_555
C3F C4F 1_555 1_555
C9F C10F 1_555 1_555
O1F Cu1_2 1_555 1_555
O2F Cu2_2 1_555 1_555
Cu1_2 Cu2_2 1_555 1_555
Cu1B_2 Cu2B_2 1_555 1_555

#END
