
#######################################################################
#
#                 Cambridge Crystallographic Data Centre
#                                CCDC 
#
#######################################################################
#
# If this CIF has been generated from an entry in the Cambridge 
# Structural Database, then it will include bibliographic, chemical, 
# crystal, experimental, refinement or atomic coordinate data resulting 
# from the CCDC's data processing and validation procedures.
#
#######################################################################

data_IMAXOL
_chemical_formula_moiety         'C96 H56 Cu12 N26 O38'
_symmetry_cell_setting           tetragonal
_symmetry_space_group_name_H-M   'P 42/m n m'
_symmetry_Int_Tables_number      136
_space_group_name_Hall           '-P 4n 2n'
loop_
_symmetry_equiv_pos_site_id
_symmetry_equiv_pos_as_xyz
1 x,y,z
2 1/2-y,1/2+x,1/2+z
3 -x,-y,z
4 1/2+y,1/2-x,1/2+z
5 1/2+x,1/2-y,1/2-z
6 1/2-x,1/2+y,1/2-z
7 y,x,-z
8 -y,-x,-z
9 -x,-y,-z
10 1/2+y,1/2-x,1/2-z
11 x,y,-z
12 1/2-y,1/2+x,1/2-z
13 1/2-x,1/2+y,1/2+z
14 1/2+x,1/2-y,1/2+z
15 -y,-x,z
16 y,x,z
_cell_length_a                   18.990(3)
_cell_length_b                   18.990(3)
_cell_length_c                   19.973(4)
_cell_angle_alpha                90
_cell_angle_beta                 90
_cell_angle_gamma                90
_cell_volume                     7202.67
loop_
_atom_site_label
_atom_site_type_symbol
_atom_site_fract_x
_atom_site_fract_y
_atom_site_fract_z
Cu1 Cu 0.12883(4) 0.12883(4) 0.0000
C1 C 0.3550(5) -0.0851(4) 0.5000
H1 H 0.3080 -0.1077 0.5000
H2 H 0.3911 -0.1226 0.5000
Cu2 Cu 0.22742(4) 0.22742(4) 0.0000
Cu3 Cu 0.5000 0.0000 0.5000
N1 N 0.3627(3) -0.0418(2) 0.44047(18)
N2 N 0.4254(3) -0.0074(2) 0.42942(18)
C2 C 0.4174(3) 0.0257(3) 0.3719(2)
H3 H 0.4521 0.0549 0.3518
C3 C 0.3502(3) 0.0121(3) 0.3444(2)
C4 C 0.3178(3) -0.0306(3) 0.3897(2)
H4 H 0.2715 -0.0491 0.3861
C5 C 0.3234(3) 0.0372(3) 0.2795(2)
C6 C 0.2717(4) 0.0011(3) 0.2457(3)
H5 H 0.2541 -0.0417 0.2636
C7 C 0.2449(4) 0.0265(3) 0.1855(3)
H6 H 0.2079 0.0019 0.1636
C8 C 0.2719(3) 0.0873(3) 0.1576(2)
C9 C 0.3245(3) 0.1220(4) 0.1909(3)
H7 H 0.3436 0.1637 0.1719
C10 C 0.3506(3) 0.0981(4) 0.2512(3)
H8 H 0.3870 0.1233 0.2733
C11 C 0.2417(3) 0.1164(3) 0.0939(2)
O1 O 0.1876(2) 0.0865(2) 0.07032(17)
O2 O 0.27135(17) 0.1704(2) 0.07030(15)
N3 N 0.0484(3) 0.0484(3) 0.0000
C12 C 0.0512(7) 0.0056(7) 0.0593(6)
C13 C -0.0233(9) 0.0785(10) 0.0000
O3 O 0.3067(4) 0.3067(4) 0.0000
O4 O 0.4861(5) 0.1260(5) 0.5000
N4 N 0.4587(14) 0.1878(11) 0.5000
O5 O 0.3904(14) 0.1925(14) 0.5000
O6 O 0.5010(14) 0.2399(14) 0.5000
N1J N 0.3627(3) -0.0418(2) 0.55953(18)
N2J N 0.4254(3) -0.0074(2) 0.57058(18)
C2J C 0.4174(3) 0.0257(3) 0.6281(2)
H3J H 0.4521 0.0549 0.6482
C3J C 0.3502(3) 0.0121(3) 0.6556(2)
C4J C 0.3178(3) -0.0306(3) 0.6103(2)
H4J H 0.2715 -0.0491 0.6139
C5J C 0.3234(3) 0.0372(3) 0.7205(2)
C6J C 0.2717(4) 0.0011(3) 0.7543(3)
H5J H 0.2541 -0.0417 0.7364
C7J C 0.2449(4) 0.0265(3) 0.8145(3)
H6J H 0.2079 0.0019 0.8364
C8J C 0.2719(3) 0.0873(3) 0.8424(2)
C9J C 0.3245(3) 0.1220(4) 0.8091(3)
H7J H 0.3436 0.1637 0.8281
C10J C 0.3506(3) 0.0981(4) 0.7488(3)
H8J H 0.3870 0.1233 0.7267
C11J C 0.2417(3) 0.1164(3) 0.9061(2)
O1J O 0.1876(2) 0.0865(2) 0.92968(17)
O2J O 0.27135(17) 0.1704(2) 0.92970(15)
C12F C 0.0056(7) 0.0512(7) -0.0593(6)
C13F C 0.0785(10) -0.0233(9) 0.0000
N3B N -0.0484(3) -0.0484(3) 0.0000
C12G C -0.0056(7) -0.0512(7) -0.0593(6)
C13G C -0.0785(10) 0.0233(9) 0.0000
C12H C -0.0512(7) -0.0056(7) -0.0593(6)
C13B C 0.0233(9) -0.0785(10) 0.0000
C12J C 0.0512(7) 0.0056(7) -0.0593(6)
C12N C -0.0056(7) -0.0512(7) 0.0593(6)
C12O C 0.0056(7) 0.0512(7) 0.0593(6)
C12B C -0.0512(7) -0.0056(7) 0.0593(6)
Cu1B Cu -0.12883(4) -0.12883(4) 0.0000
C1B C -0.3550(5) 0.0851(4) 0.5000
H1B H -0.3080 0.1077 0.5000
H2B H -0.3911 0.1226 0.5000
Cu2B Cu -0.22742(4) -0.22742(4) 0.0000
Cu3_2 Cu -0.5000 0.0000 0.5000
N1B N -0.3627(3) 0.0418(2) 0.44047(18)
N2B N -0.4254(3) 0.0074(2) 0.42942(18)
C2B C -0.4174(3) -0.0257(3) 0.3719(2)
H3B H -0.4521 -0.0549 0.3518
C3B C -0.3502(3) -0.0121(3) 0.3444(2)
C4B C -0.3178(3) 0.0306(3) 0.3897(2)
H4B H -0.2715 0.0491 0.3861
C5B C -0.3234(3) -0.0372(3) 0.2795(2)
C6B C -0.2717(4) -0.0011(3) 0.2457(3)
H5B H -0.2541 0.0417 0.2636
C7B C -0.2449(4) -0.0265(3) 0.1855(3)
H6B H -0.2079 -0.0019 0.1636
C8B C -0.2719(3) -0.0873(3) 0.1576(2)
C9B C -0.3245(3) -0.1220(4) 0.1909(3)
H7B H -0.3436 -0.1637 0.1719
C10B C -0.3506(3) -0.0981(4) 0.2512(3)
H8B H -0.3870 -0.1233 0.2733
C11B C -0.2417(3) -0.1164(3) 0.0939(2)
O1B O -0.1876(2) -0.0865(2) 0.07032(17)
O2B O -0.27135(17) -0.1704(2) 0.07030(15)
O3B O -0.3067(4) -0.3067(4) 0.0000
O4B O -0.4861(5) -0.1260(5) 0.5000
N4B N -0.4587(14) -0.1878(11) 0.5000
O5B O -0.3904(14) -0.1925(14) 0.5000
O6B O -0.5010(14) -0.2399(14) 0.5000
N1H N -0.3627(3) 0.0418(2) 0.55953(18)
N2H N -0.4254(3) 0.0074(2) 0.57058(18)
C2H C -0.4174(3) -0.0257(3) 0.6281(2)
H3H H -0.4521 -0.0549 0.6482
C3H C -0.3502(3) -0.0121(3) 0.6556(2)
C4H C -0.3178(3) 0.0306(3) 0.6103(2)
H4H H -0.2715 0.0491 0.6139
C5H C -0.3234(3) -0.0372(3) 0.7205(2)
C6H C -0.2717(4) -0.0011(3) 0.7543(3)
H5H H -0.2541 0.0417 0.7364
C7H C -0.2449(4) -0.0265(3) 0.8145(3)
H6H H -0.2079 -0.0019 0.8364
C8H C -0.2719(3) -0.0873(3) 0.8424(2)
C9H C -0.3245(3) -0.1220(4) 0.8091(3)
H7H H -0.3436 -0.1637 0.8281
C10H C -0.3506(3) -0.0981(4) 0.7488(3)
H8H H -0.3870 -0.1233 0.7267
C11H C -0.2417(3) -0.1164(3) 0.9061(2)
O1H O -0.1876(2) -0.0865(2) 0.92968(17)
O2H O -0.27135(17) -0.1704(2) 0.92970(15)
C1G C 0.0851(4) -0.3550(5) 0.5000
H1G H 0.1077 -0.3080 0.5000
H2G H 0.1226 -0.3911 0.5000
N1N N 0.0418(2) -0.3627(3) 0.44047(18)
N2N N 0.0074(2) -0.4254(3) 0.42942(18)
C2N C -0.0257(3) -0.4174(3) 0.3719(2)
H3N H -0.0549 -0.4521 0.3518
C3N C -0.0121(3) -0.3502(3) 0.3444(2)
C4N C 0.0306(3) -0.3178(3) 0.3897(2)
H4N H 0.0491 -0.2715 0.3861
C5N C -0.0372(3) -0.3234(3) 0.2795(2)
C6N C -0.0011(3) -0.2717(4) 0.2457(3)
H5N H 0.0417 -0.2541 0.2636
C7N C -0.0265(3) -0.2449(4) 0.1855(3)
H6N H -0.0019 -0.2079 0.1636
C8N C -0.0873(3) -0.2719(3) 0.1576(2)
C9N C -0.1220(4) -0.3245(3) 0.1909(3)
H7N H -0.1637 -0.3436 0.1719
C10N C -0.0981(4) -0.3506(3) 0.2512(3)
H8N H -0.1233 -0.3870 0.2733
C11N C -0.1164(3) -0.2417(3) 0.0939(2)
O1N O -0.0865(2) -0.1876(2) 0.07032(17)
O2N O -0.1704(2) -0.27135(17) 0.07030(15)
N1G N 0.0418(2) -0.3627(3) 0.55953(18)
N2G N 0.0074(2) -0.4254(3) 0.57058(18)
C2G C -0.0257(3) -0.4174(3) 0.6281(2)
H3G H -0.0549 -0.4521 0.6482
C3G C -0.0121(3) -0.3502(3) 0.6556(2)
C4G C 0.0306(3) -0.3178(3) 0.6103(2)
H4G H 0.0491 -0.2715 0.6139
C5G C -0.0372(3) -0.3234(3) 0.7205(2)
C6G C -0.0011(3) -0.2717(4) 0.7543(3)
H5G H 0.0417 -0.2541 0.7364
C7G C -0.0265(3) -0.2449(4) 0.8145(3)
H6G H -0.0019 -0.2079 0.8364
C8G C -0.0873(3) -0.2719(3) 0.8424(2)
C9G C -0.1220(4) -0.3245(3) 0.8091(3)
H7G H -0.1637 -0.3436 0.8281
C10G C -0.0981(4) -0.3506(3) 0.7488(3)
H8G H -0.1233 -0.3870 0.7267
C11G C -0.1164(3) -0.2417(3) 0.9061(2)
O1G O -0.0865(2) -0.1876(2) 0.92968(17)
O2G O -0.1704(2) -0.27135(17) 0.92970(15)
C1F C -0.0851(4) 0.3550(5) 0.5000
H1F H -0.1077 0.3080 0.5000
H2F H -0.1226 0.3911 0.5000
N1O N -0.0418(2) 0.3627(3) 0.44047(18)
N2O N -0.0074(2) 0.4254(3) 0.42942(18)
C2O C 0.0257(3) 0.4174(3) 0.3719(2)
H3O H 0.0549 0.4521 0.3518
C3O C 0.0121(3) 0.3502(3) 0.3444(2)
C4O C -0.0306(3) 0.3178(3) 0.3897(2)
H4O H -0.0491 0.2715 0.3861
C5O C 0.0372(3) 0.3234(3) 0.2795(2)
C6O C 0.0011(3) 0.2717(4) 0.2457(3)
H5O H -0.0417 0.2541 0.2636
C7O C 0.0265(3) 0.2449(4) 0.1855(3)
H6O H 0.0019 0.2079 0.1636
C8O C 0.0873(3) 0.2719(3) 0.1576(2)
C9O C 0.1220(4) 0.3245(3) 0.1909(3)
H7O H 0.1637 0.3436 0.1719
C10O C 0.0981(4) 0.3506(3) 0.2512(3)
H8O H 0.1233 0.3870 0.2733
C11O C 0.1164(3) 0.2417(3) 0.0939(2)
O1O O 0.0865(2) 0.1876(2) 0.07032(17)
O2O O 0.1704(2) 0.27135(17) 0.07030(15)
N1F N -0.0418(2) 0.3627(3) 0.55953(18)
N2F N -0.0074(2) 0.4254(3) 0.57058(18)
C2F C 0.0257(3) 0.4174(3) 0.6281(2)
H3F H 0.0549 0.4521 0.6482
C3F C 0.0121(3) 0.3502(3) 0.6556(2)
C4F C -0.0306(3) 0.3178(3) 0.6103(2)
H4F H -0.0491 0.2715 0.6139
C5F C 0.0372(3) 0.3234(3) 0.7205(2)
C6F C 0.0011(3) 0.2717(4) 0.7543(3)
H5F H -0.0417 0.2541 0.7364
C7F C 0.0265(3) 0.2449(4) 0.8145(3)
H6F H 0.0019 0.2079 0.8364
C8F C 0.0873(3) 0.2719(3) 0.8424(2)
C9F C 0.1220(4) 0.3245(3) 0.8091(3)
H7F H 0.1637 0.3436 0.8281
C10F C 0.0981(4) 0.3506(3) 0.7488(3)
H8F H 0.1233 0.3870 0.7267
C11F C 0.1164(3) 0.2417(3) 0.9061(2)
O1F O 0.0865(2) 0.1876(2) 0.92968(17)
O2F O 0.1704(2) 0.27135(17) 0.92970(15)
O4B_2 O 0.5139(5) -0.1260(5) 0.5000
N4B_2 N 0.5413(14) -0.1878(11) 0.5000
O5B_2 O 0.6096(14) -0.1925(14) 0.5000
O6B_2 O 0.4990(14) -0.2399(14) 0.5000
O4_2 O -0.5139(5) 0.1260(5) 0.5000
N4_2 N -0.5413(14) 0.1878(11) 0.5000
O5_2 O -0.6096(14) 0.1925(14) 0.5000
O6_2 O -0.4990(14) 0.2399(14) 0.5000
Cu1_2 Cu 0.12883(4) 0.12883(4) 1.0000
Cu1B_2 Cu -0.12883(4) -0.12883(4) 1.0000
Cu2_2 Cu 0.22742(4) 0.22742(4) 1.0000
Cu2B_2 Cu -0.22742(4) -0.22742(4) 1.0000
Cu3F Cu 0.0000 -0.5000 0.5000
Cu3F_2 Cu 0.0000 0.5000 0.5000
N2_2 N -0.5746(3) -0.0074(2) 0.42942(18)
N2B_2 N 0.5746(3) 0.0074(2) 0.42942(18)
N2H_2 N 0.5746(3) 0.0074(2) 0.57058(18)
N2J_2 N -0.5746(3) -0.0074(2) 0.57058(18)
O1F_2 O 0.0865(2) 0.1876(2) -0.07032(17)
O1G_2 O -0.0865(2) -0.1876(2) -0.07032(17)
O1H_2 O -0.1876(2) -0.0865(2) -0.07032(17)
O1J_2 O 0.1876(2) 0.0865(2) -0.07032(17)
O2F_2 O 0.1704(2) 0.27135(17) -0.07030(15)
O2G_2 O -0.1704(2) -0.27135(17) -0.07030(15)
O2H_2 O -0.27135(17) -0.1704(2) -0.07030(15)
O2J_2 O 0.27135(17) 0.1704(2) -0.07030(15)
loop_
_geom_bond_atom_site_label_1
_geom_bond_atom_site_label_2
_geom_bond_site_symmetry_1
_geom_bond_site_symmetry_2
Cu1 Cu2 1_555 1_555
C1 H1 1_555 1_555
H2 C1 1_555 1_555
Cu2 O2 1_555 1_555
Cu3 N2 1_555 1_555
N1 C1 1_555 1_555
N2 N1 1_555 1_555
C2 N2 1_555 1_555
H3 C2 1_555 1_555
C3 C2 1_555 1_555
C4 N1 1_555 1_555
H4 C4 1_555 1_555
C5 C3 1_555 1_555
C6 C5 1_555 1_555
H5 C6 1_555 1_555
C7 C6 1_555 1_555
H6 C7 1_555 1_555
C8 C7 1_555 1_555
C9 C8 1_555 1_555
H7 C9 1_555 1_555
C10 C5 1_555 1_555
H8 C10 1_555 1_555
C11 C8 1_555 1_555
O1 Cu1 1_555 1_555
O2 C11 1_555 1_555
N3 Cu1 1_555 1_555
C12 N3 1_555 1_555
C13 N3 1_555 1_555
O3 Cu2 1_555 1_555
O4 Cu3 1_555 1_555
N4 O4 1_555 1_555
O5 N4 1_555 1_555
O6 N4 1_555 1_555
N1J C1 1_555 1_555
N2J Cu3 1_555 1_555
C2J N2J 1_555 1_555
H3J C2J 1_555 1_555
C3J C2J 1_555 1_555
C4J N1J 1_555 1_555
H4J C4J 1_555 1_555
C5J C3J 1_555 1_555
C6J C5J 1_555 1_555
H5J C6J 1_555 1_555
C7J C6J 1_555 1_555
H6J C7J 1_555 1_555
C8J C7J 1_555 1_555
C9J C8J 1_555 1_555
H7J C9J 1_555 1_555
C10J C5J 1_555 1_555
H8J C10J 1_555 1_555
C11J C8J 1_555 1_555
O1J C11J 1_555 1_555
O2J C11J 1_555 1_555
C12F N3 1_555 1_555
C13F N3 1_555 1_555
N3B C12G 1_555 1_555
C12G C12H 1_555 1_555
C13G C13 1_555 1_555
C12H C12F 1_555 1_555
C13B C13F 1_555 1_555
C12J N3 1_555 1_555
C12N C12 1_555 1_555
C12O N3 1_555 1_555
C12B N3B 1_555 1_555
Cu1B N3B 1_555 1_555
C1B H1B 1_555 1_555
H2B C1B 1_555 1_555
Cu2B Cu1B 1_555 1_555
Cu3_2 N2B 1_555 1_555
N1B C1B 1_555 1_555
N2B N1B 1_555 1_555
C2B N2B 1_555 1_555
H3B C2B 1_555 1_555
C3B C2B 1_555 1_555
C4B N1B 1_555 1_555
H4B C4B 1_555 1_555
C5B C3B 1_555 1_555
C6B C5B 1_555 1_555
H5B C6B 1_555 1_555
C7B C6B 1_555 1_555
H6B C7B 1_555 1_555
C8B C7B 1_555 1_555
C9B C8B 1_555 1_555
H7B C9B 1_555 1_555
C10B C5B 1_555 1_555
H8B C10B 1_555 1_555
C11B C8B 1_555 1_555
O1B Cu1B 1_555 1_555
O2B Cu2B 1_555 1_555
O3B Cu2B 1_555 1_555
O4B Cu3_2 1_555 1_555
N4B O4B 1_555 1_555
O5B N4B 1_555 1_555
O6B N4B 1_555 1_555
N1H C1B 1_555 1_555
N2H Cu3_2 1_555 1_555
C2H N2H 1_555 1_555
H3H C2H 1_555 1_555
C3H C2H 1_555 1_555
C4H N1H 1_555 1_555
H4H C4H 1_555 1_555
C5H C3H 1_555 1_555
C6H C5H 1_555 1_555
H5H C6H 1_555 1_555
C7H C6H 1_555 1_555
H6H C7H 1_555 1_555
C8H C7H 1_555 1_555
C9H C8H 1_555 1_555
H7H C9H 1_555 1_555
C10H C5H 1_555 1_555
H8H C10H 1_555 1_555
C11H C8H 1_555 1_555
O1H C11H 1_555 1_555
O2H C11H 1_555 1_555
C1G H1G 1_555 1_555
H2G C1G 1_555 1_555
N1N C1G 1_555 1_555
N2N N1N 1_555 1_555
C2N N2N 1_555 1_555
H3N C2N 1_555 1_555
C3N C2N 1_555 1_555
C4N N1N 1_555 1_555
H4N C4N 1_555 1_555
C5N C3N 1_555 1_555
C6N C5N 1_555 1_555
H5N C6N 1_555 1_555
C7N C6N 1_555 1_555
H6N C7N 1_555 1_555
C8N C7N 1_555 1_555
C9N C8N 1_555 1_555
H7N C9N 1_555 1_555
C10N C5N 1_555 1_555
H8N C10N 1_555 1_555
C11N C8N 1_555 1_555
O1N Cu1B 1_555 1_555
O2N Cu2B 1_555 1_555
N1G C1G 1_555 1_555
N2G N1G 1_555 1_555
C2G N2G 1_555 1_555
H3G C2G 1_555 1_555
C3G C2G 1_555 1_555
C4G N1G 1_555 1_555
H4G C4G 1_555 1_555
C5G C3G 1_555 1_555
C6G C5G 1_555 1_555
H5G C6G 1_555 1_555
C7G C6G 1_555 1_555
H6G C7G 1_555 1_555
C8G C7G 1_555 1_555
C9G C8G 1_555 1_555
H7G C9G 1_555 1_555
C10G C5G 1_555 1_555
H8G C10G 1_555 1_555
C11G C8G 1_555 1_555
O1G C11G 1_555 1_555
O2G C11G 1_555 1_555
C1F H1F 1_555 1_555
H2F C1F 1_555 1_555
N1O C1F 1_555 1_555
N2O N1O 1_555 1_555
C2O N2O 1_555 1_555
H3O C2O 1_555 1_555
C3O C2O 1_555 1_555
C4O N1O 1_555 1_555
H4O C4O 1_555 1_555
C5O C3O 1_555 1_555
C6O C5O 1_555 1_555
H5O C6O 1_555 1_555
C7O C6O 1_555 1_555
H6O C7O 1_555 1_555
C8O C7O 1_555 1_555
C9O C8O 1_555 1_555
H7O C9O 1_555 1_555
C10O C5O 1_555 1_555
H8O C10O 1_555 1_555
C11O C8O 1_555 1_555
O1O Cu1 1_555 1_555
O2O Cu2 1_555 1_555
N1F C1F 1_555 1_555
N2F N1F 1_555 1_555
C2F N2F 1_555 1_555
H3F C2F 1_555 1_555
C3F C2F 1_555 1_555
C4F N1F 1_555 1_555
H4F C4F 1_555 1_555
C5F C3F 1_555 1_555
C6F C5F 1_555 1_555
H5F C6F 1_555 1_555
C7F C6F 1_555 1_555
H6F C7F 1_555 1_555
C8F C7F 1_555 1_555
C9F C8F 1_555 1_555
H7F C9F 1_555 1_555
C10F C5F 1_555 1_555
H8F C10F 1_555 1_555
C11F C8F 1_555 1_555
O1F C11F 1_555 1_555
O2F C11F 1_555 1_555
O4B_2 Cu3 1_555 1_555
N4B_2 O4B_2 1_555 1_555
O5B_2 N4B_2 1_555 1_555
O6B_2 N4B_2 1_555 1_555
O4_2 Cu3_2 1_555 1_555
N4_2 O4_2 1_555 1_555
O5_2 N4_2 1_555 1_555
O6_2 N4_2 1_555 1_555
Cu1_2 O1J 1_555 1_555
Cu1B_2 O1H 1_555 1_555
Cu2_2 O2J 1_555 1_555
Cu2B_2 O2H 1_555 1_555
Cu3F N2N 1_555 1_555
Cu3F_2 N2O 1_555 1_555
N2_2 Cu3_2 1_555 1_555
N2B_2 Cu3 1_555 1_555
N2H_2 Cu3 1_555 1_555
N2J_2 Cu3_2 1_555 1_555
O1F_2 Cu1 1_555 1_555
O1G_2 Cu1B 1_555 1_555
O1H_2 Cu1B 1_555 1_555
O1J_2 Cu1 1_555 1_555
O2F_2 Cu2 1_555 1_555
O2G_2 Cu2B 1_555 1_555
O2H_2 Cu2B 1_555 1_555
O2J_2 Cu2 1_555 1_555
C3 C4 1_555 1_555
C9 C10 1_555 1_555
C11 O1 1_555 1_555
C12 C13F 1_555 1_555
C12 C12O 1_555 1_555
C13 C12F 1_555 1_555
C13 C12O 1_555 1_555
N1J N2J 1_555 1_555
C3J C4J 1_555 1_555
C9J C10J 1_555 1_555
C12F C12J 1_555 1_555
C13F C12J 1_555 1_555
N3B C13G 1_555 1_555
N3B C12H 1_555 1_555
N3B C13B 1_555 1_555
N3B C12N 1_555 1_555
C12G C13B 1_555 1_555
C12G C12J 1_555 1_555
C13G C12H 1_555 1_555
C13G C12B 1_555 1_555
C13B C12N 1_555 1_555
C12N C12B 1_555 1_555
C12O C12B 1_555 1_555
C3B C4B 1_555 1_555
C9B C10B 1_555 1_555
C11B O1B 1_555 1_555
C11B O2B 1_555 1_555
N1H N2H 1_555 1_555
C3H C4H 1_555 1_555
C9H C10H 1_555 1_555
C3N C4N 1_555 1_555
C9N C10N 1_555 1_555
C11N O1N 1_555 1_555
C11N O2N 1_555 1_555
N2G Cu3F 1_555 1_555
C3G C4G 1_555 1_555
C9G C10G 1_555 1_555
O1G Cu1B_2 1_555 1_555
O2G Cu2B_2 1_555 1_555
C3O C4O 1_555 1_555
C9O C10O 1_555 1_555
C11O O1O 1_555 1_555
C11O O2O 1_555 1_555
N2F Cu3F_2 1_555 1_555
C3F C4F 1_555 1_555
C9F C10F 1_555 1_555
O1F Cu1_2 1_555 1_555
O2F Cu2_2 1_555 1_555
Cu1_2 Cu2_2 1_555 1_555
Cu1B_2 Cu2B_2 1_555 1_555

#END
