
#######################################################################
#
#                 Cambridge Crystallographic Data Centre
#                                CCDC 
#
#######################################################################
#
# If this CIF has been generated from an entry in the Cambridge 
# Structural Database, then it will include bibliographic, chemical, 
# crystal, experimental, refinement or atomic coordinate data resulting 
# from the CCDC's data processing and validation procedures.
#
#######################################################################

data_RETVIW
_chemical_formula_moiety         'C24 H8 Cd7 N3 Na6 O37 S2'
_symmetry_cell_setting           orthorhombic
_symmetry_space_group_name_H-M   'C m c a'
_symmetry_Int_Tables_number      64
_space_group_name_Hall           '-C 2ac 2'
loop_
_symmetry_equiv_pos_site_id
_symmetry_equiv_pos_as_xyz
1 x,y,z
2 1/2+x,1/2+y,z
3 -x,1/2-y,1/2+z
4 x,-y,-z
5 1/2-x,y,1/2-z
6 1/2-x,-y,1/2+z
7 1/2+x,1/2-y,-z
8 -x,1/2+y,1/2-z
9 -x,-y,-z
10 1/2-x,1/2-y,-z
11 x,1/2+y,1/2-z
12 -x,y,z
13 1/2+x,-y,1/2+z
14 1/2+x,y,1/2-z
15 1/2-x,1/2+y,z
16 x,1/2-y,1/2+z
_cell_length_a                   7.038(5)
_cell_length_b                   23.12(3)
_cell_length_c                   20.675(12)
_cell_angle_alpha                90
_cell_angle_beta                 90
_cell_angle_gamma                90
_cell_volume                     3364.21
loop_
_atom_site_label
_atom_site_type_symbol
_atom_site_fract_x
_atom_site_fract_y
_atom_site_fract_z
O8 O 0.326(5) 0.4588(15) 0.1996(14)
Cd1 Cd 0.5000 0.15649(3) 0.54015(3)
S1 S 0.5000 0.14191(14) 0.90962(14)
C1 C 0.5000 0.1766(5) 0.7838(5)
H1 H 0.5000 0.1366 0.7755
C2 C 0.5000 0.2148(5) 0.7323(4)
O1 O 0.5000 0.1397(3) 0.6542(3)
O2 O 0.5000 0.2287(3) 0.6177(3)
C3 C 0.5000 0.1927(5) 0.6637(5)
N1 N 0.5000 0.0584(4) 0.5148(4)
C4 C 0.5000 0.1956(5) 0.8472(5)
O3 O 0.3321(10) 0.1503(4) 0.9504(4)
C5 C 0.5000 0.2549(6) 0.8591(5)
C6 C 0.5000 0.2844(6) 0.9252(6)
C7 C 0.5000 0.2732(5) 0.7442(5)
H2 H 0.5000 0.2994 0.7095
C8 C 0.5000 0.2931(6) 0.8062(6)
H3 H 0.5000 0.3332 0.8138
O4 O 0.5000 0.0887(5) 0.8784(6)
O5 O 0.364(3) 0.3249(6) 0.9341(6)
O6 O 0.414(3) 0.2651(8) 0.9697(6)
C9 C 0.588(4) 0.0395(8) 0.4655(10)
C10 C 0.405(4) 0.0202(9) 0.5487(11)
Na1 Na 0.5000 0.3091(3) 0.5504(3)
O7 O 0.5000 0.3926(17) 0.616(2)
Cd1M Cd 1.0000 0.15649(3) 0.95985(3)
Cd1M_2 Cd -0.0000 0.15649(3) 0.95985(3)
Cd1O Cd 0.5000 0.34351(3) 1.04015(3)
Cd1H Cd 0.5000 -0.15649(3) 0.45985(3)
Cd1I Cd 1.0000 0.34351(3) 0.45985(3)
Cd1_2 Cd 1.5000 0.15649(3) 0.54015(3)
S1M S 1.0000 0.14191(14) 0.59038(14)
C1M C 1.0000 0.1766(5) 0.7162(5)
H1M H 1.0000 0.1366 0.7245
C2M C 1.0000 0.2148(5) 0.7677(4)
O1M O 1.0000 0.1397(3) 0.8458(3)
O2M O 1.0000 0.2287(3) 0.8823(3)
C3M C 1.0000 0.1927(5) 0.8363(5)
N1H N 0.5000 -0.0584(4) 0.4852(4)
N1M N 1.0000 0.0584(4) 0.9852(4)
C4M C 1.0000 0.1956(5) 0.6528(5)
O3K O 0.6679(10) 0.1503(4) 0.9504(4)
O3M O 0.8321(10) 0.1503(4) 0.5496(4)
O3D O 1.1679(10) 0.1503(4) 0.5496(4)
O3D_2 O 0.1679(10) 0.1503(4) 0.5496(4)
O3O O 0.3321(10) 0.3497(4) 0.4504(4)
O3B O 0.6679(10) 0.3497(4) 0.4504(4)
O3_2 O 1.3321(10) 0.1503(4) 0.9504(4)
O3I O 1.1679(10) 0.3497(4) 1.0496(4)
O3F O 0.8321(10) 0.3497(4) 1.0496(4)
C5M C 1.0000 0.2549(6) 0.6409(5)
C6M C 1.0000 0.2844(6) 0.5748(6)
C7M C 1.0000 0.2732(5) 0.7558(5)
H2M H 1.0000 0.2994 0.7905
C8M C 1.0000 0.2931(6) 0.6938(6)
H3M H 1.0000 0.3332 0.6862
O4M O 1.0000 0.0887(5) 0.6216(6)
O5K O 0.636(3) 0.3249(6) 0.9341(6)
O5M O 0.864(3) 0.3249(6) 0.5659(6)
O5D O 1.136(3) 0.3249(6) 0.5659(6)
O5O O 0.364(3) 0.1751(6) 0.4341(6)
O5B O 0.636(3) 0.1751(6) 0.4341(6)
O5D_2 O 0.136(3) 0.3249(6) 0.5659(6)
O5I O 1.136(3) 0.1751(6) 1.0659(6)
O5F O 0.864(3) 0.1751(6) 1.0659(6)
O5_2 O 1.364(3) 0.3249(6) 0.9341(6)
O6K O 0.586(3) 0.2651(8) 0.9697(6)
O6M O 0.914(3) 0.2651(8) 0.5303(6)
O6D O 1.086(3) 0.2651(8) 0.5303(6)
O6O O 0.414(3) 0.2349(8) 0.4697(6)
O6B O 0.586(3) 0.2349(8) 0.4697(6)
O6I O 1.086(3) 0.2349(8) 1.0303(6)
O6F O 0.914(3) 0.2349(8) 1.0303(6)
C9K C 0.412(4) 0.0395(8) 0.4655(10)
C9H C 0.412(4) -0.0395(8) 0.5345(10)
C9C C 0.588(4) -0.0395(8) 0.5345(10)
C10K C 0.595(4) 0.0202(9) 0.5487(11)
C10H C 0.595(4) -0.0202(9) 0.4513(11)
C10C C 0.405(4) -0.0202(9) 0.4513(11)
Na1M Na 1.0000 0.3091(3) 0.9496(3)
Na1O Na 0.5000 0.1909(3) 1.0504(3)
Na1M_2 Na -0.0000 0.3091(3) 0.9496(3)
Na1I Na 1.0000 0.1909(3) 0.4496(3)
Na1_2 Na 1.5000 0.3091(3) 0.5504(3)
O7M O 1.0000 0.3926(17) 0.884(2)
loop_
_geom_bond_atom_site_label_1
_geom_bond_atom_site_label_2
_geom_bond_site_symmetry_1
_geom_bond_site_symmetry_2
Cd1 O1 1_555 1_555
S1 C4 1_555 1_555
C1 H1 1_555 1_555
C2 C1 1_555 1_555
O1 C3 1_555 1_555
O2 Cd1 1_555 1_555
C3 C2 1_555 1_555
N1 Cd1 1_555 1_555
C4 C1 1_555 1_555
O3 S1 1_555 1_555
C5 C4 1_555 1_555
C6 C5 1_555 1_555
C7 C2 1_555 1_555
H2 C7 1_555 1_555
C8 C5 1_555 1_555
H3 C8 1_555 1_555
O4 S1 1_555 1_555
O5 C6 1_555 1_555
O6 C6 1_555 1_555
C9 N1 1_555 1_555
C10 N1 1_555 1_555
Na1 O2 1_555 1_555
O7 Na1 1_555 1_555
Cd1M O1M 1_555 1_555
Cd1M_2 O3 1_555 1_555
Cd1O O5 1_555 1_555
Cd1H N1H 1_555 1_555
Cd1I O3B 1_555 1_555
Cd1_2 O3D 1_555 1_555
S1M C4M 1_555 1_555
C1M H1M 1_555 1_555
C2M C1M 1_555 1_555
O1M C3M 1_555 1_555
O2M Cd1M 1_555 1_555
C3M C2M 1_555 1_555
N1H C9H 1_555 1_555
N1M Cd1M 1_555 1_555
C4M C1M 1_555 1_555
O3K S1 1_555 1_555
O3M Cd1 1_555 1_555
O3D S1M 1_555 1_555
O3D_2 Cd1 1_555 1_555
O3O Na1 1_555 1_555
O3B Na1 1_555 1_555
O3_2 Cd1M 1_555 1_555
O3I Na1M 1_555 1_555
O3F Cd1O 1_555 1_555
C5M C4M 1_555 1_555
C6M C5M 1_555 1_555
C7M C2M 1_555 1_555
H2M C7M 1_555 1_555
C8M C5M 1_555 1_555
H3M C8M 1_555 1_555
O4M S1M 1_555 1_555
O5K C6 1_555 1_555
O5M Na1 1_555 1_555
O5D Cd1I 1_555 1_555
O5O Cd1 1_555 1_555
O5B Cd1 1_555 1_555
O5D_2 Na1 1_555 1_555
O5I Cd1M 1_555 1_555
O5F Cd1M 1_555 1_555
O5_2 Na1M 1_555 1_555
O6K C6 1_555 1_555
O6M Cd1I 1_555 1_555
O6D Cd1I 1_555 1_555
O6O Cd1 1_555 1_555
O6B Cd1 1_555 1_555
O6I Cd1M 1_555 1_555
O6F Cd1M 1_555 1_555
C9K N1 1_555 1_555
C9H C10 1_555 1_555
C9C N1H 1_555 1_555
C10K N1 1_555 1_555
C10H C9 1_555 1_555
C10C N1H 1_555 1_555
Na1M O2M 1_555 1_555
Na1O O3 1_555 1_555
Na1M_2 O5 1_555 1_555
Na1I O3M 1_555 1_555
Na1_2 O5D 1_555 1_555
O7M Na1M 1_555 1_555
O2 C3 1_555 1_555
C7 C8 1_555 1_555
O5 O6 1_555 1_555
O6 Cd1O 1_555 1_555
O6 O6K 1_555 1_555
O6 Na1O 1_555 1_555
C9 C9K 1_555 1_555
C10 C10K 1_555 1_555
Na1 O6O 1_555 1_555
Na1 O6B 1_555 1_555
Cd1M O3K 1_555 1_555
Cd1O O5K 1_555 1_555
Cd1O O6K 1_555 1_555
Cd1I O5M 1_555 1_555
S1M O3M 1_555 1_555
O2M C3M 1_555 1_555
N1H C10H 1_555 1_555
O3K Na1O 1_555 1_555
O3D Na1I 1_555 1_555
O3F Na1M 1_555 1_555
C6M O5M 1_555 1_555
C6M O5D 1_555 1_555
C6M O6M 1_555 1_555
C6M O6D 1_555 1_555
C7M C8M 1_555 1_555
O5K O6K 1_555 1_555
O5K Na1M 1_555 1_555
O5M O6M 1_555 1_555
O5D O6D 1_555 1_555
O5O O6O 1_555 1_555
O5B O6B 1_555 1_555
O5B Na1I 1_555 1_555
O5I O6I 1_555 1_555
O5F O6F 1_555 1_555
O5F Na1O 1_555 1_555
O6K Na1O 1_555 1_555
O6M O6D 1_555 1_555
O6M Na1I 1_555 1_555
O6D Na1I 1_555 1_555
O6O O6B 1_555 1_555
O6I O6F 1_555 1_555
O6I Na1M 1_555 1_555
O6F Na1M 1_555 1_555
C9K C10C 1_555 1_555
C9H C9C 1_555 1_555
C9C C10K 1_555 1_555
C10H C10C 1_555 1_555

#END
