
#######################################################################
#
#                 Cambridge Crystallographic Data Centre
#                                CCDC 
#
#######################################################################
#
# If this CIF has been generated from an entry in the Cambridge 
# Structural Database, then it will include bibliographic, chemical, 
# crystal, experimental, refinement or atomic coordinate data resulting 
# from the CCDC's data processing and validation procedures.
#
#######################################################################

data_PEQFAT
_chemical_formula_moiety         '(C21 H52 Cu3 La2 N6 O35)n'
_symmetry_cell_setting           tetragonal
_symmetry_space_group_name_H-M   'I 41/a'
_symmetry_Int_Tables_number      88
_space_group_name_Hall           '-I 4ad'
loop_
_symmetry_equiv_pos_site_id
_symmetry_equiv_pos_as_xyz
1 x,y,z
2 3/4-y,1/4+x,1/4+z
3 1/2+x,1/2+y,1/2+z
4 1/4-y,3/4+x,3/4+z
5 1/4+y,1/4-x,1/4+z
6 1/2-x,-y,1/2+z
7 3/4+y,3/4-x,3/4+z
8 -x,1/2-y,z
9 -x,-y,-z
10 1/4+y,3/4-x,3/4-z
11 1/2-x,1/2-y,1/2-z
12 3/4+y,1/4-x,1/4-z
13 3/4-y,3/4+x,3/4-z
14 1/2+x,y,1/2-z
15 1/4-y,1/4+x,1/4-z
16 x,1/2+y,-z
_cell_length_a                   42.4947(9)
_cell_length_b                   42.4947(9)
_cell_length_c                   16.3378(3)
_cell_angle_alpha                90
_cell_angle_beta                 90
_cell_angle_gamma                90
_cell_volume                     29502.8
loop_
_atom_site_label
_atom_site_type_symbol
_atom_site_fract_x
_atom_site_fract_y
_atom_site_fract_z
La1 La 0.207610(12) 0.269341(11) 0.10590(3)
La2 La 0.374930(12) 0.465710(12) 0.20254(3)
Cu1 Cu 0.26099(3) 0.39296(2) 0.20019(7)
Cu2 Cu 0.13142(3) 0.17181(3) 0.25903(8)
Cu3 Cu 0.26828(4) 0.19393(3) -0.14685(8)
O1 O 0.22245(14) 0.32566(14) 0.0670(4)
O2 O 0.23485(16) 0.30245(14) 0.2167(4)
O3 O 0.15576(16) 0.23881(17) 0.1050(4)
O4 O 0.19423(15) 0.24045(15) 0.2368(4)
O5 O 0.21377(18) 0.21749(15) 0.0357(4)
O6 O 0.24715(16) 0.26931(14) -0.0131(4)
O7 O 0.25950(15) 0.24096(14) 0.1571(4)
O8 O 0.17619(17) 0.28184(17) -0.0229(4)
O9 O 0.16461(17) 0.30886(17) 0.1546(4)
O10 O 0.31803(16) 0.46166(15) 0.1373(4)
O11 O 0.33149(17) 0.44340(16) 0.2919(4)
O12 O 0.10441(15) 0.08449(17) 0.2210(4)
O13 O 0.13705(14) 0.08743(17) 0.3625(4)
O14 O 0.26764(18) 0.12472(15) -0.3061(4)
O15 O 0.29940(16) 0.17391(15) -0.3709(4)
O16 O 0.34347(18) 0.51818(19) 0.2123(5)
O17 O 0.41386(18) 0.51416(17) 0.1897(5)
O18 O 0.24058(14) 0.37235(13) 0.1024(4)
O19 O 0.27855(15) 0.42714(15) 0.1313(4)
O20 O 0.21343(19) 0.4184(2) 0.2116(5)
N1 N 0.25346(18) 0.35234(17) 0.2518(4)
N2 N 0.29034(18) 0.40737(18) 0.2814(5)
C1 C 0.23428(19) 0.34362(19) 0.1185(5)
C2 C 0.2410(2) 0.3317(2) 0.2040(6)
C3 C 0.3015(2) 0.4414(2) 0.1670(6)
C4 C 0.3090(2) 0.4300(2) 0.2550(6)
C5 C 0.2619(3) 0.3438(3) 0.3342(6)
H1 H 0.2803 0.3303 0.3332
H2 H 0.2448 0.3322 0.3594
C6 C 0.2689(8) 0.3727(6) 0.3831(13)
H3 H 0.2499 0.3853 0.3825
H4 H 0.2719 0.3659 0.4392
C8 C 0.2949(3) 0.3937(3) 0.3638(6)
H7 H 0.3146 0.3822 0.3655
H8 H 0.2959 0.4104 0.4041
O21 O 0.12933(17) 0.19843(16) 0.1602(4)
O22 O 0.11046(18) 0.13634(17) 0.2029(5)
O23 O 0.0848(3) 0.1918(3) 0.3115(9)
N3 N 0.16316(18) 0.20190(17) 0.2951(4)
N4 N 0.14146(19) 0.14128(18) 0.3409(5)
C9 C 0.1505(2) 0.2192(2) 0.1598(6)
C10 C 0.1710(2) 0.2209(2) 0.2382(6)
C11 C 0.1144(3) 0.1103(2) 0.2430(7)
C12 C 0.1327(2) 0.1120(2) 0.3226(6)
C13 C 0.1801(3) 0.2004(2) 0.3710(6)
H9 H 0.1830 0.2215 0.3924
H10 H 0.2008 0.1915 0.3614
C14 C 0.1631(3) 0.1810(3) 0.4324(7)
H11 H 0.1419 0.1891 0.4374
H12 H 0.1733 0.1837 0.4850
C15 C 0.1611(3) 0.1462(2) 0.4147(6)
H13 H 0.1821 0.1377 0.4055
H14 H 0.1519 0.1353 0.4610
O24 O 0.2384(2) 0.18856(16) -0.0575(4)
O25 O 0.2581(2) 0.15208(16) -0.1935(4)
O26 O 0.3110(4) 0.1729(3) -0.0644(8)
N5 N 0.2703(2) 0.23673(18) -0.1091(5)
N6 N 0.2901(2) 0.20068(19) -0.2506(5)
C16 C 0.2331(3) 0.2142(2) -0.0209(6)
C17 C 0.2523(2) 0.2432(2) -0.0493(6)
C18 C 0.2697(3) 0.1490(2) -0.2610(7)
C19 C 0.2883(2) 0.1770(2) -0.3004(6)
C20 C 0.2897(3) 0.2615(3) -0.1448(7)
H15 H 0.2974 0.2751 -0.1016
H16 H 0.2768 0.2742 -0.1812
C21 C 0.3176(6) 0.2482(6) -0.1928(19)
H17 H 0.3296 0.2343 -0.1574
H18 H 0.3313 0.2654 -0.2089
C23 C 0.3074(3) 0.2295(3) -0.2713(7)
H21 H 0.2942 0.2428 -0.3051
H22 H 0.3259 0.2240 -0.3029
La2J La 0.125070(12) 0.034290(12) 0.29746(3)
La2L La 0.284290(12) 0.124930(12) -0.45254(3)
La2F La 0.215710(12) 0.375070(12) -0.04746(3)
O12J O 0.39559(15) 0.41551(17) 0.2790(4)
O13J O 0.36295(14) 0.41257(17) 0.1375(4)
O14I O 0.37472(15) 0.48236(18) 0.0561(4)
O15I O 0.42391(15) 0.45060(16) 0.1209(4)
O18A O 0.37765(13) 0.49058(14) 0.3524(4)
O27 O 0.4080(4) 0.5668(3) 0.0932(9)
O28 O 0.6866(5) 0.2928(7) 0.0838(19)
O29 O 0.1216(5) 0.1397(6) 0.0297(11)
O30 O 0.6559(7) 0.5775(6) 0.0337(15)
O32 O 0.1647(10) 0.6752(11) 0.036(2)
O34 O 0.1065(9) 0.7840(9) 0.015(2)
O35 O 0.1299(18) 0.7473(18) 0.114(4)
O36 O 0.0377(11) 0.1474(10) 0.056(3)
O38 O 0.3153(11) -0.0162(12) 0.030(3)
loop_
_geom_bond_atom_site_label_1
_geom_bond_atom_site_label_2
_geom_bond_site_symmetry_1
_geom_bond_site_symmetry_2
La1 O1 1_555 1_555
La2 O10 1_555 1_555
Cu1 O18 1_555 1_555
Cu2 O21 1_555 1_555
Cu3 O24 1_555 1_555
O1 C1 1_555 1_555
O2 La1 1_555 1_555
O3 La1 1_555 1_555
O4 La1 1_555 1_555
O5 La1 1_555 1_555
O6 La1 1_555 1_555
O7 La1 1_555 1_555
O8 La1 1_555 1_555
O9 La1 1_555 1_555
O10 C3 1_555 1_555
O11 La2 1_555 1_555
O12 C11 1_555 1_555
O13 C12 1_555 1_555
O14 C18 1_555 1_555
O15 C19 1_555 1_555
O16 La2 1_555 1_555
O17 La2 1_555 1_555
O18 C1 1_555 1_555
O19 Cu1 1_555 1_555
O20 Cu1 1_555 1_555
N1 Cu1 1_555 1_555
N2 Cu1 1_555 1_555
C1 C2 1_555 1_555
C2 O2 1_555 1_555
C3 O19 1_555 1_555
C4 O11 1_555 1_555
C5 N1 1_555 1_555
H1 C5 1_555 1_555
H2 C5 1_555 1_555
C6 C5 1_555 1_555
H3 C6 1_555 1_555
H4 C6 1_555 1_555
C8 N2 1_555 1_555
H7 C8 1_555 1_555
H8 C8 1_555 1_555
O21 C9 1_555 1_555
O22 Cu2 1_555 1_555
O23 Cu2 1_555 1_555
N3 Cu2 1_555 1_555
N4 Cu2 1_555 1_555
C9 O3 1_555 1_555
C10 O4 1_555 1_555
C11 O22 1_555 1_555
C12 N4 1_555 1_555
C13 N3 1_555 1_555
H9 C13 1_555 1_555
H10 C13 1_555 1_555
C14 C13 1_555 1_555
H11 C14 1_555 1_555
H12 C14 1_555 1_555
C15 N4 1_555 1_555
H13 C15 1_555 1_555
H14 C15 1_555 1_555
O24 C16 1_555 1_555
O25 Cu3 1_555 1_555
O26 Cu3 1_555 1_555
N5 Cu3 1_555 1_555
N6 Cu3 1_555 1_555
C16 O5 1_555 1_555
C17 O6 1_555 1_555
C18 O25 1_555 1_555
C19 N6 1_555 1_555
C20 N5 1_555 1_555
H15 C20 1_555 1_555
H16 C20 1_555 1_555
C21 C20 1_555 1_555
H17 C21 1_555 1_555
H18 C21 1_555 1_555
C23 N6 1_555 1_555
H21 C23 1_555 1_555
H22 C23 1_555 1_555
La2J O12 1_555 1_555
La2L O14 1_555 1_555
La2F O18 1_555 1_555
O12J La2 1_555 1_555
O13J La2 1_555 1_555
O14I La2 1_555 1_555
O15I La2 1_555 1_555
O18A La2 1_555 1_555
O13 La2J 1_555 1_555
O15 La2L 1_555 1_555
N1 C2 1_555 1_555
N2 C4 1_555 1_555
C3 C4 1_555 1_555
C6 C8 1_555 1_555
N3 C10 1_555 1_555
C9 C10 1_555 1_555
C11 C12 1_555 1_555
C14 C15 1_555 1_555
N5 C17 1_555 1_555
C16 C17 1_555 1_555
C18 C19 1_555 1_555
C21 C23 1_555 1_555

#END
