
#######################################################################
#
#                 Cambridge Crystallographic Data Centre
#                                CCDC 
#
#######################################################################
#
# If this CIF has been generated from an entry in the Cambridge 
# Structural Database, then it will include bibliographic, chemical, 
# crystal, experimental, refinement or atomic coordinate data resulting 
# from the CCDC's data processing and validation procedures.
#
#######################################################################

data_ISUGIN
_chemical_formula_moiety         '(C72 H39 Gd9 N12 O39)n'
_symmetry_cell_setting           rhombohedral
_symmetry_space_group_name_H-M   'R -3 c'
_symmetry_Int_Tables_number      167
_space_group_name_Hall           '-R 3 2"c'
loop_
_symmetry_equiv_pos_site_id
_symmetry_equiv_pos_as_xyz
1 x,y,z
2 -y,x-y,z
3 -x+y,-x,z
4 y,x,1/2-z
5 x-y,-y,1/2-z
6 -x,-x+y,1/2-z
7 2/3+x,1/3+y,1/3+z
8 2/3-y,1/3+x-y,1/3+z
9 2/3-x+y,1/3-x,1/3+z
10 2/3+y,1/3+x,5/6-z
11 2/3+x-y,1/3-y,5/6-z
12 2/3-x,1/3-x+y,5/6-z
13 1/3+x,2/3+y,2/3+z
14 1/3-y,2/3+x-y,2/3+z
15 1/3-x+y,2/3-x,2/3+z
16 1/3+y,2/3+x,1/6-z
17 1/3+x-y,2/3-y,1/6-z
18 1/3-x,2/3-x+y,1/6-z
19 -x,-y,-z
20 y,-x+y,-z
21 x-y,x,-z
22 -y,-x,1/2+z
23 -x+y,y,1/2+z
24 x,x-y,1/2+z
25 1/3-x,2/3-y,2/3-z
26 1/3+y,2/3-x+y,2/3-z
27 1/3+x-y,2/3+x,2/3-z
28 1/3-y,2/3-x,1/6+z
29 1/3-x+y,2/3+y,1/6+z
30 1/3+x,2/3+x-y,1/6+z
31 2/3-x,1/3-y,1/3-z
32 2/3+y,1/3-x+y,1/3-z
33 2/3+x-y,1/3+x,1/3-z
34 2/3-y,1/3-x,5/6+z
35 2/3-x+y,1/3+y,5/6+z
36 2/3+x,1/3+x-y,5/6+z
_cell_length_a                   17.0151(3)
_cell_length_b                   17.0151(3)
_cell_length_c                   56.2326(17)
_cell_angle_alpha                90
_cell_angle_beta                 90
_cell_angle_gamma                120
_cell_volume                     14099
loop_
_atom_site_label
_atom_site_type_symbol
_atom_site_fract_x
_atom_site_fract_y
_atom_site_fract_z
Gd1 Gd 0.861589(17) 0.879694(17) 0.034394(4)
Gd2 Gd 0.6667 0.80722(2) 0.0833
C1 C 0.6396(4) 0.8210(4) 0.03041(10)
C2 C 0.6375(4) 0.8464(5) 0.00671(12)
C3 C 0.5554(5) 0.8344(7) -0.00169(15)
H1 H 0.5511 0.8494 -0.0173
C4 C 0.4803(5) 0.8006(8) 0.01283(16)
H2 H 0.4241 0.7881 0.0069
C5 C 0.4910(5) 0.7858(6) 0.03645(15)
H3 H 0.4421 0.7681 0.0467
C6 C 0.7207(4) 0.8918(4) -0.00834(10)
C7 C 0.9501(4) 1.1763(4) 0.08497(11)
C8 C 0.8586(4) 1.1063(5) 0.08352(12)
C9 C 0.7966(6) 1.1145(6) 0.09778(18)
H4 H 0.7361 1.0688 0.0978
C10 C 0.8243(8) 1.1905(8) 0.1121(2)
H5 H 0.7830 1.1963 0.1217
C11 C 0.9142(7) 1.2570(7) 0.1117(2)
H6 H 0.9326 1.3088 0.1209
C12 C 0.8271(4) 1.0242(4) 0.06846(10)
O1 O 0.7990(3) 0.9124(3) 0.00004(7)
O2 O 0.7153(3) 0.9151(4) -0.02912(8)
O3 O 0.7078(3) 0.8196(3) 0.04010(7)
O4 O 0.8807(3) 1.0207(3) 0.05281(7)
O5 O 0.7486(3) 0.9618(3) 0.07169(9)
O6 O 1.0171(3) 1.1774(3) 0.07368(7)
O7 O 1.0000 1.0000 0.02244(11)
H7 H 1.0000 1.0000 0.0000
N1 N 0.5678(4) 0.7956(4) 0.04519(9)
N2 N 0.9762(4) 1.2507(5) 0.09871(11)
Gd1T Gd 0.981895(24) 0.861589(17) -0.034394(4)
Gd1R Gd 1.138411(17) 1.120306(17) -0.034394(4)
Gd1S Gd 0.879694(17) 1.018105(24) -0.034394(4)
Gd1A Gd 1.120306(17) 0.981895(24) 0.034394(4)
Gd1B Gd 1.018105(24) 1.138411(17) 0.034394(4)
Gd1Q Gd 0.471744(17) 0.684772(24) 0.132273(4)
Gd1AA Gd 0.453639(17) 0.805078(17) 0.201061(4)
Gd1P Gd 0.315228(24) 0.786973(17) 0.132273(4)
Gd1O Gd 0.213027(17) 0.528256(17) 0.132273(4)
Gd2T Gd 0.85948(2) 0.6667 -0.0833
Gd2A Gd 1.19278(2) 0.85948(2) 0.0833
Gd2B Gd 1.14052(2) 1.3333 0.0833
Gd2R Gd 1.3333 1.19278(2) -0.0833
Gd2O Gd 0.14055(2) 0.3334 0.0834
Gd2P Gd 0.19281(2) 0.85945(2) 0.0834
Gd2S Gd 0.80722(2) 1.14052(2) -0.0833
C1T C 0.8186(6) 0.6396(4) -0.03041(10)
C1Q C 0.6937(4) 0.8481(6) 0.13626(10)
C1A C 1.1790(4) 0.8186(6) 0.03041(10)
C1R C 1.3604(4) 1.1790(4) -0.03041(10)
C1B C 1.1814(6) 1.3604(4) 0.03041(10)
C2T C 0.7911(6) 0.6375(4) -0.00671(12)
C2Q C 0.6958(4) 0.8756(6) 0.15996(12)
C2A C 1.1536(5) 0.7911(6) 0.00671(12)
C2R C 1.3625(4) 1.1536(5) -0.00671(12)
C2B C 1.2089(6) 1.3625(4) 0.00671(12)
C3T C 0.7210(9) 0.5554(5) 0.00169(15)
C3Q C 0.7779(5) 0.9457(9) 0.16836(15)
C3A C 1.1656(7) 0.7210(9) -0.00169(15)
C3R C 1.4446(5) 1.1656(7) 0.00169(15)
C3B C 1.2790(9) 1.4446(5) -0.00169(15)
H1T H 0.7017 0.5511 0.0173
H1Q H 0.7822 0.9650 0.1840
H1A H 1.1506 0.7017 -0.0173
H1R H 1.4489 1.1506 0.0173
H1B H 1.2983 1.4489 -0.0173
C4T C 0.6797(9) 0.4803(5) -0.01283(16)
C4Q C 0.8530(5) 0.9870(9) 0.15384(16)
C4A C 1.1994(8) 0.6797(9) 0.01283(16)
C4R C 1.5197(5) 1.1994(8) -0.01283(16)
C4B C 1.3203(9) 1.5197(5) 0.01283(16)
H2T H 0.6360 0.4241 -0.0069
H2Q H 0.9092 1.0307 0.1598
H2A H 1.2119 0.6360 0.0069
H2R H 1.5759 1.2119 -0.0069
H2B H 1.3640 1.5759 0.0069
C5T C 0.7052(8) 0.4910(5) -0.03645(15)
C5Q C 0.8423(5) 0.9615(8) 0.13022(15)
C5A C 1.2142(6) 0.7052(8) 0.03645(15)
C5R C 1.5090(5) 1.2142(6) -0.03645(15)
C5B C 1.2948(8) 1.5090(5) 0.03645(15)
H3T H 0.6740 0.4421 -0.0467
H3Q H 0.8912 0.9927 0.1200
H3A H 1.2319 0.6740 0.0467
H3R H 1.5579 1.2319 -0.0467
H3B H 1.3260 1.5579 0.0467
C6T C 0.8289(6) 0.7207(4) 0.00834(10)
C6Q C 0.6126(4) 0.8378(6) 0.17501(10)
C6A C 1.1082(4) 0.8289(6) -0.00834(10)
C6R C 1.2793(4) 1.1082(4) 0.00834(10)
C6B C 1.1711(6) 1.2793(4) -0.00834(10)
C7A C 0.8237(4) 0.7738(6) 0.08497(11)
C7Q C 0.3832(4) 0.8929(6) 0.08170(11)
C7O C 0.5096(4) 0.6168(4) 0.08170(11)
C7T C 0.7738(6) 0.9501(4) -0.08497(11)
C7R C 1.0499(4) 0.8237(4) -0.08497(11)
C8A C 0.8937(5) 0.7523(6) 0.08352(12)
C8Q C 0.4747(4) 0.9144(6) 0.08315(12)
C8O C 0.4396(5) 0.5253(4) 0.08315(12)
C8T C 0.7523(6) 0.8586(4) -0.08352(12)
C8R C 1.1414(4) 0.8937(5) -0.08352(12)
C9A C 0.8855(6) 0.6821(8) 0.09778(18)
C9Q C 0.5367(6) 0.9846(8) 0.06889(18)
C9O C 0.4478(6) 0.4633(6) 0.06889(18)
C9T C 0.6821(8) 0.7966(6) -0.09778(18)
C9R C 1.2034(6) 0.8855(6) -0.09778(18)
H4A H 0.9312 0.6673 0.0978
H4Q H 0.5972 0.9994 0.0689
H4O H 0.4021 0.4028 0.0689
H4T H 0.6673 0.7361 -0.0978
H4R H 1.2639 0.9312 -0.0978
C10A C 0.8095(8) 0.6338(11) 0.1121(2)
C10Q C 0.5090(8) 1.0329(11) 0.0546(2)
C10O C 0.5238(8) 0.4910(8) 0.0546(2)
C10T C 0.6338(11) 0.8243(8) -0.1121(2)
C10R C 1.1757(8) 0.8095(8) -0.1121(2)
H5A H 0.8037 0.5867 0.1217
H5Q H 0.5503 1.0800 0.0450
H5O H 0.5296 0.4497 0.0450
H5T H 0.5867 0.7830 -0.1217
H5R H 1.2170 0.8037 -0.1217
C11A C 0.7430(7) 0.6572(10) 0.1117(2)
C11Q C 0.4191(7) 1.0095(10) 0.0550(2)
C11O C 0.5903(7) 0.5809(7) 0.0550(2)
C11T C 0.6572(10) 0.9142(7) -0.1117(2)
C11R C 1.0858(7) 0.7430(7) -0.1117(2)
H6A H 0.6912 0.6238 0.1209
H6Q H 0.4007 1.0429 0.0458
H6O H 0.6421 0.5993 0.0458
H6T H 0.6238 0.9326 -0.1209
H6R H 1.0674 0.6912 -0.1209
C12A C 0.9758(4) 0.8029(6) 0.06846(10)
C12Q C 0.5062(4) 0.8638(6) 0.09821(10)
C12O C 0.3575(4) 0.4938(4) 0.09821(10)
C12T C 0.8029(6) 0.8271(4) -0.06846(10)
C12R C 1.1729(4) 0.9758(4) -0.06846(10)
O1T O 0.8866(4) 0.7990(3) -0.00004(7)
O1Q O 0.5343(3) 0.7801(4) 0.16663(7)
O1A O 1.0876(3) 0.8866(4) 0.00004(7)
O1R O 1.2010(3) 1.0876(3) -0.00004(7)
O1B O 1.1134(4) 1.2010(3) 0.00004(7)
O1S O 0.9124(3) 1.1134(4) -0.00004(7)
O2T O 0.8002(5) 0.7153(3) 0.02912(8)
O2Q O 0.6180(3) 0.8665(5) 0.19579(8)
O2A O 1.0849(4) 0.8002(5) -0.02912(8)
O2R O 1.2847(3) 1.0849(4) 0.02912(8)
O2B O 1.1998(5) 1.2847(3) -0.02912(8)
O2S O 0.9151(4) 1.1998(5) 0.02912(8)
O3T O 0.8882(4) 0.7078(3) -0.04010(7)
O3Q O 0.6255(3) 0.7785(4) 0.12657(7)
O3A O 1.1804(3) 0.8882(4) 0.04010(7)
O3R O 1.2922(3) 1.1804(3) -0.04010(7)
O3B O 1.1118(4) 1.2922(3) 0.04010(7)
O3S O 0.8196(3) 1.1118(4) -0.04010(7)
O3GA O 0.8471(3) 0.6255(3) -0.12657(7)
O3O O 1.1529(3) 1.3745(3) 0.12657(7)
O3O_2 O 0.1529(3) 0.3745(3) 0.12657(7)
O4A O 0.9793(3) 0.8600(4) 0.05281(7)
O4Q O 0.4526(3) 0.8067(4) 0.11386(7)
O4O O 0.3540(3) 0.5474(3) 0.11386(7)
O4T O 0.8600(4) 0.8807(3) -0.05281(7)
O4R O 1.1193(3) 0.9793(3) -0.05281(7)
O4S O 1.0207(3) 1.1400(4) -0.05281(7)
O4B O 1.1400(4) 1.1193(3) 0.05281(7)
O5A O 1.0382(3) 0.7868(4) 0.07169(9)
O5Q O 0.5847(3) 0.8799(4) 0.09498(9)
O5O O 0.2951(3) 0.4153(3) 0.09498(9)
O5T O 0.7868(4) 0.7486(3) -0.07169(9)
O5R O 1.2514(3) 1.0382(3) -0.07169(9)
O5GA O 0.7049(3) 0.5847(3) -0.09498(9)
O5B O 1.2132(4) 1.2514(3) 0.07169(9)
O5O_2 O 1.2951(3) 1.4153(3) 0.09498(9)
O6A O 0.8226(3) 0.8397(4) 0.07368(7)
O6Q O 0.3162(3) 0.8270(4) 0.09299(7)
O6O O 0.5107(3) 0.6838(3) 0.09299(7)
O6T O 0.8397(4) 1.0171(3) -0.07368(7)
O6R O 0.9829(3) 0.8226(3) -0.07368(7)
O6S O 1.1774(3) 1.1603(4) -0.07368(7)
O6B O 1.1603(4) 0.9829(3) 0.07368(7)
O6HA O 0.8270(4) 0.5107(3) -0.09299(7)
O6P O 1.1730(4) 1.4893(3) 0.09299(7)
O6P_2 O 0.1730(4) 0.4893(3) 0.09299(7)
O7R O 1.0000 1.0000 -0.02244(11)
N1T N 0.7722(6) 0.5678(4) -0.04519(9)
N1Q N 0.7655(4) 0.8945(6) 0.12148(9)
N1A N 1.2044(4) 0.7722(6) 0.04519(9)
N1R N 1.4322(4) 1.2044(4) -0.04519(9)
N1B N 1.2278(6) 1.4322(4) 0.04519(9)
N1GA N 0.8711(4) 0.7655(4) -0.12148(9)
N1O N 1.1289(4) 1.2345(4) 0.12148(9)
N2A N 0.7493(5) 0.7255(6) 0.09871(11)
N2Q N 0.3571(4) 0.9412(6) 0.06796(11)
N2O N 0.5840(5) 0.6429(4) 0.06796(11)
N2T N 0.7255(6) 0.9762(4) -0.09871(11)
N2R N 1.0238(4) 0.7493(5) -0.09871(11)
N2HA N 0.9412(6) 0.5840(5) -0.06796(11)
N2P N 1.0588(6) 1.4160(5) 0.06796(11)
O8 O 0.9511(8) 0.5557(8) 0.1418(2)
loop_
_geom_bond_atom_site_label_1
_geom_bond_atom_site_label_2
_geom_bond_site_symmetry_1
_geom_bond_site_symmetry_2
Gd1 O1 1_555 1_555
Gd2 O3 1_555 1_555
C1 C2 1_555 1_555
C2 C3 1_555 1_555
C3 H1 1_555 1_555
C4 C3 1_555 1_555
H2 C4 1_555 1_555
C5 C4 1_555 1_555
H3 C5 1_555 1_555
C6 C2 1_555 1_555
C7 C8 1_555 1_555
C8 C9 1_555 1_555
C9 H4 1_555 1_555
C10 C9 1_555 1_555
H5 C10 1_555 1_555
C11 C10 1_555 1_555
H6 C11 1_555 1_555
C12 C8 1_555 1_555
O1 C6 1_555 1_555
O2 C6 1_555 1_555
O3 Gd1 1_555 1_555
O4 Gd1 1_555 1_555
O5 Gd2 1_555 1_555
O6 C7 1_555 1_555
O7 Gd1 1_555 1_555
H7 O7 1_555 1_555
N1 Gd2 1_555 1_555
N2 C7 1_555 1_555
Gd1T O1T 1_555 1_555
Gd1R O1R 1_555 1_555
Gd1S O1 1_555 1_555
Gd1A O7 1_555 1_555
Gd1B O4 1_555 1_555
Gd1Q O1Q 1_555 1_555
Gd1AA O1Q 1_555 1_555
Gd1P O4Q 1_555 1_555
Gd1O O3O_2 1_555 1_555
Gd2T O3T 1_555 1_555
Gd2A O3A 1_555 1_555
Gd2B O6 1_555 1_555
Gd2R O3R 1_555 1_555
Gd2O O3O_2 1_555 1_555
Gd2P O6Q 1_555 1_555
Gd2S O3S 1_555 1_555
C1T C2T 1_555 1_555
C1Q C2Q 1_555 1_555
C1A C2A 1_555 1_555
C1R C2R 1_555 1_555
C1B C2B 1_555 1_555
C2T C3T 1_555 1_555
C2Q C3Q 1_555 1_555
C2A C3A 1_555 1_555
C2R C3R 1_555 1_555
C2B C3B 1_555 1_555
C3T H1T 1_555 1_555
C3Q H1Q 1_555 1_555
C3A H1A 1_555 1_555
C3R H1R 1_555 1_555
C3B H1B 1_555 1_555
C4T C3T 1_555 1_555
C4Q C3Q 1_555 1_555
C4A C3A 1_555 1_555
C4R C3R 1_555 1_555
C4B C3B 1_555 1_555
H2T C4T 1_555 1_555
H2Q C4Q 1_555 1_555
H2A C4A 1_555 1_555
H2R C4R 1_555 1_555
H2B C4B 1_555 1_555
C5T C4T 1_555 1_555
C5Q C4Q 1_555 1_555
C5A C4A 1_555 1_555
C5R C4R 1_555 1_555
C5B C4B 1_555 1_555
H3T C5T 1_555 1_555
H3Q C5Q 1_555 1_555
H3A C5A 1_555 1_555
H3R C5R 1_555 1_555
H3B C5B 1_555 1_555
C6T C2T 1_555 1_555
C6Q C2Q 1_555 1_555
C6A C2A 1_555 1_555
C6R C2R 1_555 1_555
C6B C2B 1_555 1_555
C7A C8A 1_555 1_555
C7Q C8Q 1_555 1_555
C7O C8O 1_555 1_555
C7T C8T 1_555 1_555
C7R C8R 1_555 1_555
C8A C9A 1_555 1_555
C8Q C9Q 1_555 1_555
C8O C9O 1_555 1_555
C8T C9T 1_555 1_555
C8R C9R 1_555 1_555
C9A H4A 1_555 1_555
C9Q H4Q 1_555 1_555
C9O H4O 1_555 1_555
C9T H4T 1_555 1_555
C9R H4R 1_555 1_555
C10A C9A 1_555 1_555
C10Q C9Q 1_555 1_555
C10O C9O 1_555 1_555
C10T C9T 1_555 1_555
C10R C9R 1_555 1_555
H5A C10A 1_555 1_555
H5Q C10Q 1_555 1_555
H5O C10O 1_555 1_555
H5T C10T 1_555 1_555
H5R C10R 1_555 1_555
C11A C10A 1_555 1_555
C11Q C10Q 1_555 1_555
C11O C10O 1_555 1_555
C11T C10T 1_555 1_555
C11R C10R 1_555 1_555
H6A C11A 1_555 1_555
H6Q C11Q 1_555 1_555
H6O C11O 1_555 1_555
H6T C11T 1_555 1_555
H6R C11R 1_555 1_555
C12A C8A 1_555 1_555
C12Q C8Q 1_555 1_555
C12O C8O 1_555 1_555
C12T C8T 1_555 1_555
C12R C8R 1_555 1_555
O1T Gd1 1_555 1_555
O1Q C6Q 1_555 1_555
O1A Gd1T 1_555 1_555
O1R Gd1A 1_555 1_555
O1B Gd1R 1_555 1_555
O1S Gd1S 1_555 1_555
O2T Gd1 1_555 1_555
O2Q Gd1AA 1_555 1_555
O2A Gd1T 1_555 1_555
O2R Gd1A 1_555 1_555
O2B Gd1R 1_555 1_555
O2S Gd1B 1_555 1_555
O3T Gd1T 1_555 1_555
O3Q Gd2 1_555 1_555
O3A Gd1A 1_555 1_555
O3R Gd1R 1_555 1_555
O3B Gd1B 1_555 1_555
O3S Gd1S 1_555 1_555
O3GA Gd2T 1_555 1_555
O3O Gd2B 1_555 1_555
O4A Gd1 1_555 1_555
O4Q Gd1Q 1_555 1_555
O4O Gd1Q 1_555 1_555
O4T Gd1T 1_555 1_555
O4R Gd1T 1_555 1_555
O4S Gd1R 1_555 1_555
O4B Gd1A 1_555 1_555
O5A Gd2A 1_555 1_555
O5Q Gd2 1_555 1_555
O5O Gd2O 1_555 1_555
O5T Gd2T 1_555 1_555
O5R Gd2R 1_555 1_555
O5GA Gd2T 1_555 1_555
O5B Gd2B 1_555 1_555
O5O_2 Gd2B 1_555 1_555
O6A Gd1 1_555 1_555
O6Q Gd1P 1_555 1_555
O6O Gd2 1_555 1_555
O6T Gd1S 1_555 1_555
O6R Gd1T 1_555 1_555
O6S Gd1R 1_555 1_555
O6B Gd1A 1_555 1_555
O6HA Gd2T 1_555 1_555
O6P Gd2B 1_555 1_555
O6P_2 Gd1O 1_555 1_555
O7R H7 1_555 1_555
N1T Gd2T 1_555 1_555
N1Q Gd2 1_555 1_555
N1A Gd2A 1_555 1_555
N1R Gd2R 1_555 1_555
N1B Gd2B 1_555 1_555
N1GA Gd2T 1_555 1_555
N1O Gd2B 1_555 1_555
N2A Gd2 1_555 1_555
N2Q Gd2P 1_555 1_555
N2O Gd2 1_555 1_555
N2T Gd2S 1_555 1_555
N2R Gd2T 1_555 1_555
N2HA Gd2T 1_555 1_555
N2P Gd2B 1_555 1_555
Gd2 O6A 1_555 1_555
C1 O3 1_555 1_555
C1 N1 1_555 1_555
C5 N1 1_555 1_555
C11 N2 1_555 1_555
C12 O4 1_555 1_555
C12 O5 1_555 1_555
O2 Gd1S 1_555 1_555
O6 Gd1B 1_555 1_555
O7 Gd1B 1_555 1_555
N2 Gd2B 1_555 1_555
Gd1T O7R 1_555 1_555
Gd1R O4R 1_555 1_555
Gd1R O7R 1_555 1_555
Gd1S O4T 1_555 1_555
Gd1S O4S 1_555 1_555
Gd1S O7R 1_555 1_555
Gd1A O1A 1_555 1_555
Gd1A O4A 1_555 1_555
Gd1B O1B 1_555 1_555
Gd1B O1S 1_555 1_555
Gd1B O4B 1_555 1_555
Gd1Q O3Q 1_555 1_555
Gd1Q O6O 1_555 1_555
Gd1O O4O 1_555 1_555
Gd2T O6R 1_555 1_555
Gd2A O6B 1_555 1_555
Gd2B O3B 1_555 1_555
Gd2R O6S 1_555 1_555
Gd2O O6P_2 1_555 1_555
Gd2S O6T 1_555 1_555
C1T O3T 1_555 1_555
C1T N1T 1_555 1_555
C1Q O3Q 1_555 1_555
C1Q N1Q 1_555 1_555
C1A O3A 1_555 1_555
C1A N1A 1_555 1_555
C1R O3R 1_555 1_555
C1R N1R 1_555 1_555
C1B O3B 1_555 1_555
C1B N1B 1_555 1_555
C5T N1T 1_555 1_555
C5Q N1Q 1_555 1_555
C5A N1A 1_555 1_555
C5R N1R 1_555 1_555
C5B N1B 1_555 1_555
C6T O1T 1_555 1_555
C6T O2T 1_555 1_555
C6Q O2Q 1_555 1_555
C6A O1A 1_555 1_555
C6A O2A 1_555 1_555
C6R O1R 1_555 1_555
C6R O2R 1_555 1_555
C6B O1B 1_555 1_555
C6B O2B 1_555 1_555
C7A O6A 1_555 1_555
C7A N2A 1_555 1_555
C7Q O6Q 1_555 1_555
C7Q N2Q 1_555 1_555
C7O O6O 1_555 1_555
C7O N2O 1_555 1_555
C7T O6T 1_555 1_555
C7T N2T 1_555 1_555
C7R O6R 1_555 1_555
C7R N2R 1_555 1_555
C11A N2A 1_555 1_555
C11Q N2Q 1_555 1_555
C11O N2O 1_555 1_555
C11T N2T 1_555 1_555
C11R N2R 1_555 1_555
C12A O4A 1_555 1_555
C12A O5A 1_555 1_555
C12Q O4Q 1_555 1_555
C12Q O5Q 1_555 1_555
C12O O4O 1_555 1_555
C12O O5O 1_555 1_555
C12T O4T 1_555 1_555
C12T O5T 1_555 1_555
C12R O4R 1_555 1_555
C12R O5R 1_555 1_555

#END
