
#######################################################################
#
#                 Cambridge Crystallographic Data Centre
#                                CCDC 
#
#######################################################################
#
# If this CIF has been generated from an entry in the Cambridge 
# Structural Database, then it will include bibliographic, chemical, 
# crystal, experimental, refinement or atomic coordinate data resulting 
# from the CCDC's data processing and validation procedures.
#
#######################################################################

data_ISUGOT
_chemical_formula_moiety         '(C72 H39 Eu9 N12 O39)n'
_symmetry_cell_setting           rhombohedral
_symmetry_space_group_name_H-M   'R -3 c'
_symmetry_Int_Tables_number      167
_space_group_name_Hall           '-R 3 2"c'
loop_
_symmetry_equiv_pos_site_id
_symmetry_equiv_pos_as_xyz
1 x,y,z
2 -y,x-y,z
3 -x+y,-x,z
4 y,x,1/2-z
5 x-y,-y,1/2-z
6 -x,-x+y,1/2-z
7 2/3+x,1/3+y,1/3+z
8 2/3-y,1/3+x-y,1/3+z
9 2/3-x+y,1/3-x,1/3+z
10 2/3+y,1/3+x,5/6-z
11 2/3+x-y,1/3-y,5/6-z
12 2/3-x,1/3-x+y,5/6-z
13 1/3+x,2/3+y,2/3+z
14 1/3-y,2/3+x-y,2/3+z
15 1/3-x+y,2/3-x,2/3+z
16 1/3+y,2/3+x,1/6-z
17 1/3+x-y,2/3-y,1/6-z
18 1/3-x,2/3-x+y,1/6-z
19 -x,-y,-z
20 y,-x+y,-z
21 x-y,x,-z
22 -y,-x,1/2+z
23 -x+y,y,1/2+z
24 x,x-y,1/2+z
25 1/3-x,2/3-y,2/3-z
26 1/3+y,2/3-x+y,2/3-z
27 1/3+x-y,2/3+x,2/3-z
28 1/3-y,2/3-x,1/6+z
29 1/3-x+y,2/3+y,1/6+z
30 1/3+x,2/3+x-y,1/6+z
31 2/3-x,1/3-y,1/3-z
32 2/3+y,1/3-x+y,1/3-z
33 2/3+x-y,1/3+x,1/3-z
34 2/3-y,1/3-x,5/6+z
35 2/3-x+y,1/3+y,5/6+z
36 2/3+x,1/3+x-y,5/6+z
_cell_length_a                   17.0615(4)
_cell_length_b                   17.0615(4)
_cell_length_c                   56.505(3)
_cell_angle_alpha                90
_cell_angle_beta                 90
_cell_angle_gamma                120
_cell_volume                     14244.7
loop_
_atom_site_label
_atom_site_type_symbol
_atom_site_fract_x
_atom_site_fract_y
_atom_site_fract_z
Eu1 Eu 0.21277(2) 0.52782(2) 0.132281(5)
Eu2 Eu 0.14042(3) 0.3333 0.0833
C1 C 0.1535(5) 0.3060(4) 0.13621(12)
C2 C 0.1805(5) 0.3047(5) 0.15986(14)
C3 C 0.1667(8) 0.2214(6) 0.16830(18)
H1 H 0.1787 0.2162 0.1841
C4 C 0.1358(9) 0.1473(6) 0.1538(2)
H2 H 0.1257 0.0920 0.1596
C5 C 0.1201(7) 0.1574(6) 0.13024(18)
H3 H 0.1033 0.1088 0.1200
C6 C 0.2246(5) 0.3861(5) 0.17485(13)
C7 C 0.1068(5) 0.4904(5) 0.08179(13)
C8 C 0.0852(5) 0.5605(5) 0.08302(14)
C9 C 0.0186(7) 0.5541(7) 0.0686(2)
H4 H 0.0070 0.6018 0.0677
C10 C -0.0339(10) 0.4747(10) 0.0547(3)
H5 H -0.0837 0.4670 0.0460
C11 C -0.0087(9) 0.4112(8) 0.0546(2)
H6 H -0.0396 0.3614 0.0447
C12 C 0.1362(5) 0.6423(4) 0.09824(12)
O1 O 0.2451(3) 0.4647(3) 0.16646(9)
O2 O 0.2477(4) 0.3809(4) 0.19551(10)
O3 O 0.1524(3) 0.3735(3) 0.12650(9)
O4 O 0.1933(3) 0.6456(3) 0.11370(9)
O5 O 0.1202(4) 0.7046(3) 0.09503(11)
O6 O 0.1719(3) 0.4884(3) 0.09301(9)
O7 O 0.3333 0.6667 0.14428(13)
H7 H 0.3333 0.6667 0.1667
N1 N 0.1281(5) 0.2349(4) 0.12136(11)
N2 N 0.0583(5) 0.4163(5) 0.06790(13)
Eu1EA Eu 0.19449(2) 0.64838(3) 0.201052(5)
Eu1FA Eu 0.35162(3) 0.54610(2) 0.201052(5)
Eu1A Eu 0.47218(2) 0.68495(3) 0.132281(5)
Eu1DA Eu 0.45390(2) 0.80551(2) 0.201052(5)
Eu1B Eu 0.31505(3) 0.78723(2) 0.132281(5)
Eu1P Eu 0.01828(3) 0.13885(2) 0.034386(5)
Eu1GA Eu 0.13885(2) 0.12056(2) -0.034386(5)
Eu1Q Eu 0.12056(2) -0.01828(3) 0.034386(5)
Eu1O Eu -0.13885(2) -0.12056(2) 0.034386(5)
Eu2EA Eu -0.0000 0.52621(3) 0.2500
Eu2B Eu 0.19288(3) 0.85958(3) 0.0833
Eu2A Eu 0.6667 0.80712(3) 0.0833
Eu2FA Eu 0.47379(3) 0.47375(3) 0.2500
Eu2O Eu -0.3334 -0.19291(3) 0.0834
Eu2B_2 Eu 0.19288(3) -0.14042(3) 0.0833
Eu2DA Eu 0.52625(3) 1.0000 0.2500
C1EA C -0.0273(4) 0.4858(6) 0.19712(12)
C1P C 0.1808(6) 0.3607(4) 0.03046(12)
C1B C 0.1525(6) 0.8465(5) 0.13621(12)
C1FA C 0.5142(6) 0.4868(5) 0.19712(12)
C1A C 0.6940(4) 0.8475(6) 0.13621(12)
C2EA C -0.0286(5) 0.4575(7) 0.17347(14)
C2P C 0.2091(7) 0.3620(5) 0.00681(14)
C2B C 0.1242(7) 0.8195(5) 0.15986(14)
C2FA C 0.5425(7) 0.5138(5) 0.17347(14)
C2A C 0.6953(5) 0.8758(7) 0.15986(14)
C3EA C -0.1119(6) 0.3880(10) 0.16503(18)
C3P C 0.2786(10) 0.4453(6) -0.00163(18)
C3B C 0.0547(10) 0.8333(8) 0.16830(18)
C3FA C 0.6120(10) 0.5000(8) 0.16503(18)
C3A C 0.7786(6) 0.9453(10) 0.16830(18)
H1EA H -0.1171 0.3708 0.1492
H1P H 0.2958 0.4505 -0.0174
H1B H 0.0375 0.8213 0.1841
H1FA H 0.6292 0.5120 0.1492
H1A H 0.7838 0.9625 0.1841
C4EA C -0.1860(6) 0.3448(11) 0.1795(2)
C4P C 0.3218(11) 0.5194(6) 0.0129(2)
C4B C 0.0115(11) 0.8642(9) 0.1538(2)
C4FA C 0.6552(11) 0.4691(9) 0.1795(2)
C4A C 0.8527(6) 0.9885(11) 0.1538(2)
H2EA H -0.2413 0.2996 0.1737
H2P H 0.3670 0.5747 0.0071
H2B H -0.0337 0.8743 0.1596
H2FA H 0.7004 0.4590 0.1737
H2A H 0.9080 1.0337 0.1596
C5EA C -0.1759(6) 0.3706(9) 0.20309(18)
C5P C 0.2960(9) 0.5093(6) 0.03643(18)
C5B C 0.0373(9) 0.8799(7) 0.13024(18)
C5FA C 0.6294(9) 0.4534(7) 0.20309(18)
C5A C 0.8426(6) 0.9627(9) 0.13024(18)
H3EA H -0.2245 0.3388 0.2133
H3P H 0.3278 0.5579 0.0467
H3B H 0.0055 0.8967 0.1200
H3FA H 0.6612 0.4366 0.2133
H3A H 0.8912 0.9945 0.1200
C6EA C 0.0528(5) 0.4948(7) 0.15848(13)
C6P C 0.1718(7) 0.2806(5) -0.00818(13)
C6B C 0.1615(7) 0.7754(5) 0.17485(13)
C6FA C 0.5052(7) 0.5579(5) 0.15848(13)
C6A C 0.6139(5) 0.8385(7) 0.17485(13)
C7A C 0.5096(5) 0.6164(7) 0.08179(13)
C7Q C 0.2265(5) 0.0503(7) 0.08488(13)
C7P C -0.0503(7) 0.1763(5) 0.08488(13)
C7EA C 0.1571(5) 0.7169(7) 0.25154(13)
C7FA C 0.2831(7) 0.4401(5) 0.25154(13)
C8A C 0.4395(5) 0.5247(7) 0.08302(14)
C8Q C 0.2481(5) 0.1420(7) 0.08365(14)
C8P C -0.1420(7) 0.1062(5) 0.08365(14)
C8EA C 0.2272(5) 0.8086(7) 0.25031(14)
C8FA C 0.1914(7) 0.4185(5) 0.25031(14)
C9A C 0.4459(7) 0.4645(10) 0.0686(2)
C9Q C 0.3147(7) 0.2022(10) 0.0981(2)
C9P C -0.2022(10) 0.1126(7) 0.0981(2)
C9EA C 0.2208(7) 0.8688(10) 0.2647(2)
C9FA C 0.1312(10) 0.3519(7) 0.2647(2)
H4A H 0.3982 0.4052 0.0677
H4Q H 0.3263 0.2615 0.0990
H4P H -0.2615 0.0649 0.0990
H4EA H 0.2685 0.9281 0.2656
H4FA H 0.0719 0.3403 0.2656
C10A C 0.5253(10) 0.4914(14) 0.0547(3)
C10Q C 0.3672(10) 0.1753(14) 0.1120(3)
C10P C -0.1753(14) 0.1920(10) 0.1120(3)
C10EA C 0.1414(10) 0.8419(14) 0.2786(3)
C10FA C 0.1581(14) 0.2994(10) 0.2786(3)
H5A H 0.5330 0.4493 0.0460
H5Q H 0.4170 0.2174 0.1207
H5P H -0.2174 0.1997 0.1207
H5EA H 0.1337 0.8840 0.2873
H5FA H 0.1160 0.2496 0.2873
C11A C 0.5888(8) 0.5801(12) 0.0546(2)
C11Q C 0.3420(9) 0.0866(12) 0.1121(2)
C11P C -0.0866(12) 0.2555(8) 0.1121(2)
C11EA C 0.0779(8) 0.7532(12) 0.2787(2)
C11FA C 0.2468(12) 0.3246(9) 0.2787(2)
H6A H 0.6386 0.5990 0.0447
H6Q H 0.3729 0.0677 0.1220
H6P H -0.0677 0.3053 0.1220
H6EA H 0.0281 0.7343 0.2886
H6FA H 0.2657 0.2937 0.2886
C12A C 0.3577(4) 0.4939(6) 0.09824(12)
C12Q C 0.1971(5) 0.1728(6) 0.06843(12)
C12P C -0.1728(6) 0.0244(4) 0.06843(12)
C12EA C 0.3090(4) 0.8394(6) 0.23509(12)
C12FA C 0.1606(6) 0.4695(5) 0.23509(12)
O1EA O 0.1314(3) 0.5529(4) 0.16687(9)
O1P O 0.1137(4) 0.2020(3) 0.00021(9)
O1B O 0.2196(4) 0.7549(3) 0.16646(9)
O1FA O 0.4471(4) 0.5784(3) 0.16687(9)
O1A O 0.5353(3) 0.7804(4) 0.16646(9)
O1DA O 0.4216(3) 0.8686(3) 0.16687(9)
O2EA O 0.0476(4) 0.4665(6) 0.13782(10)
O2P O 0.2001(6) 0.2858(4) -0.02884(10)
O2B O 0.1332(6) 0.7523(4) 0.19551(10)
O2FA O 0.5335(6) 0.5810(4) 0.13782(10)
O2A O 0.6191(4) 0.8668(6) 0.19551(10)
O2DA O 0.4190(4) 0.9524(4) 0.13782(10)
O3EA O 0.0402(3) 0.5544(4) 0.20683(9)
O3P O 0.1122(4) 0.2932(3) 0.04017(9)
O3B O 0.2211(4) 0.8476(3) 0.12650(9)
O3FA O 0.4456(4) 0.4857(3) 0.20683(9)
O3A O 0.6265(3) 0.7789(4) 0.12650(9)
O3DA O 0.5143(3) 0.9598(3) 0.20683(9)
O3Q O 0.1809(3) 0.8878(4) 0.04017(9)
O3CA O 0.4857(3) 0.4456(4) 0.29317(9)
O3O O -0.2932(3) -0.1809(3) 0.04017(9)
O4A O 0.3544(3) 0.5477(4) 0.11370(9)
O4Q O 0.1400(3) 0.1190(4) 0.05297(9)
O4P O -0.1190(4) 0.0211(3) 0.05297(9)
O4EA O 0.3123(3) 0.7856(4) 0.21963(9)
O4FA O 0.2144(4) 0.5266(3) 0.21963(9)
O4DA O 0.4734(3) 0.6877(3) 0.21963(9)
O4B O 0.4523(4) 0.8067(3) 0.11370(9)
O5A O 0.2954(3) 0.4156(5) 0.09503(11)
O5Q O 0.2131(4) 0.2511(5) 0.07164(11)
O5P O -0.2511(5) -0.0379(3) 0.07164(11)
O5EA O 0.3713(3) 0.9177(5) 0.23830(11)
O5FA O 0.0823(5) 0.4535(4) 0.23830(11)
O5O O 0.0379(3) 0.7869(4) 0.07164(11)
O5DA O 0.5465(4) 0.6287(3) 0.23830(11)
O5AA O 0.6287(3) 0.5465(4) 0.26170(11)
O6A O 0.5116(3) 0.6835(4) 0.09301(9)
O6Q O 0.1614(3) -0.0168(4) 0.07366(9)
O6P O 0.0168(4) 0.1783(3) 0.07366(9)
O6EA O 0.1551(3) 0.6498(4) 0.24032(9)
O6FA O 0.3502(4) 0.5052(3) 0.24032(9)
O6DA O 0.4948(3) 0.8449(3) 0.24032(9)
O6B O 0.3165(4) 0.8281(3) 0.09301(9)
O6Q_2 O 0.1614(3) 0.9832(4) 0.07366(9)
O6CA O 0.5052(3) 0.3502(4) 0.25968(9)
O6O O -0.1783(3) -0.1614(3) 0.07366(9)
O7DA O 0.3334 0.6666 0.18905(13)
N1EA N -0.0984(4) 0.4401(6) 0.21197(11)
N1P N 0.2265(6) 0.4318(4) 0.04531(11)
N1B N 0.1068(6) 0.8719(5) 0.12136(11)
N1FA N 0.5599(6) 0.4614(5) 0.21197(11)
N1A N 0.7651(4) 0.8932(6) 0.12136(11)
N1Q N 0.2052(5) 0.7735(6) 0.04531(11)
N1CA N 0.4614(5) 0.5599(6) 0.28803(11)
N2A N 0.5837(5) 0.6420(7) 0.06790(13)
N2Q N 0.2750(5) 0.0247(7) 0.09877(13)
N2P N -0.0247(7) 0.2504(5) 0.09877(13)
N2EA N 0.0830(5) 0.6913(7) 0.26543(13)
N2FA N 0.3087(7) 0.3916(5) 0.26543(13)
N2B N 0.3580(7) 0.9417(5) 0.06790(13)
N2Q_2 N 0.2750(5) 1.0247(7) 0.09877(13)
N2CA N 0.3916(5) 0.3087(7) 0.23457(13)
O8 O -0.0714(9) 0.5476(9) -0.0002(2)
loop_
_geom_bond_atom_site_label_1
_geom_bond_atom_site_label_2
_geom_bond_site_symmetry_1
_geom_bond_site_symmetry_2
Eu1 O1 1_555 1_555
Eu2 O3 1_555 1_555
C1 C2 1_555 1_555
C2 C3 1_555 1_555
C3 H1 1_555 1_555
C4 C3 1_555 1_555
H2 C4 1_555 1_555
C5 C4 1_555 1_555
H3 C5 1_555 1_555
C6 C2 1_555 1_555
C7 C8 1_555 1_555
C8 C9 1_555 1_555
C9 H4 1_555 1_555
C10 C9 1_555 1_555
H5 C10 1_555 1_555
C11 C10 1_555 1_555
H6 C11 1_555 1_555
C12 C8 1_555 1_555
O1 C6 1_555 1_555
O2 C6 1_555 1_555
O3 Eu1 1_555 1_555
O4 Eu1 1_555 1_555
O5 C12 1_555 1_555
O6 Eu1 1_555 1_555
O7 Eu1 1_555 1_555
H7 O7 1_555 1_555
N1 Eu2 1_555 1_555
N2 Eu2 1_555 1_555
Eu1EA O1EA 1_555 1_555
Eu1FA O1 1_555 1_555
Eu1A O7 1_555 1_555
Eu1DA O1A 1_555 1_555
Eu1B O4 1_555 1_555
Eu1P O1P 1_555 1_555
Eu1GA O1P 1_555 1_555
Eu1Q O4Q 1_555 1_555
Eu1O O3O 1_555 1_555
Eu2EA O3EA 1_555 1_555
Eu2B O5 1_555 1_555
Eu2A O3A 1_555 1_555
Eu2FA O3FA 1_555 1_555
Eu2O O3O 1_555 1_555
Eu2B_2 O6Q 1_555 1_555
Eu2DA O3DA 1_555 1_555
C1EA C2EA 1_555 1_555
C1P C2P 1_555 1_555
C1B C2B 1_555 1_555
C1FA C2FA 1_555 1_555
C1A C2A 1_555 1_555
C2EA C3EA 1_555 1_555
C2P C3P 1_555 1_555
C2B C3B 1_555 1_555
C2FA C3FA 1_555 1_555
C2A C3A 1_555 1_555
C3EA H1EA 1_555 1_555
C3P H1P 1_555 1_555
C3B H1B 1_555 1_555
C3FA H1FA 1_555 1_555
C3A H1A 1_555 1_555
C4EA C3EA 1_555 1_555
C4P C3P 1_555 1_555
C4B C3B 1_555 1_555
C4FA C3FA 1_555 1_555
C4A C3A 1_555 1_555
H2EA C4EA 1_555 1_555
H2P C4P 1_555 1_555
H2B C4B 1_555 1_555
H2FA C4FA 1_555 1_555
H2A C4A 1_555 1_555
C5EA C4EA 1_555 1_555
C5P C4P 1_555 1_555
C5B C4B 1_555 1_555
C5FA C4FA 1_555 1_555
C5A C4A 1_555 1_555
H3EA C5EA 1_555 1_555
H3P C5P 1_555 1_555
H3B C5B 1_555 1_555
H3FA C5FA 1_555 1_555
H3A C5A 1_555 1_555
C6EA C2EA 1_555 1_555
C6P C2P 1_555 1_555
C6B C2B 1_555 1_555
C6FA C2FA 1_555 1_555
C6A C2A 1_555 1_555
C7A C8A 1_555 1_555
C7Q C8Q 1_555 1_555
C7P C8P 1_555 1_555
C7EA C8EA 1_555 1_555
C7FA C8FA 1_555 1_555
C8A C9A 1_555 1_555
C8Q C9Q 1_555 1_555
C8P C9P 1_555 1_555
C8EA C9EA 1_555 1_555
C8FA C9FA 1_555 1_555
C9A H4A 1_555 1_555
C9Q H4Q 1_555 1_555
C9P H4P 1_555 1_555
C9EA H4EA 1_555 1_555
C9FA H4FA 1_555 1_555
C10A C9A 1_555 1_555
C10Q C9Q 1_555 1_555
C10P C9P 1_555 1_555
C10EA C9EA 1_555 1_555
C10FA C9FA 1_555 1_555
H5A C10A 1_555 1_555
H5Q C10Q 1_555 1_555
H5P C10P 1_555 1_555
H5EA C10EA 1_555 1_555
H5FA C10FA 1_555 1_555
C11A C10A 1_555 1_555
C11Q C10Q 1_555 1_555
C11P C10P 1_555 1_555
C11EA C10EA 1_555 1_555
C11FA C10FA 1_555 1_555
H6A C11A 1_555 1_555
H6Q C11Q 1_555 1_555
H6P C11P 1_555 1_555
H6EA C11EA 1_555 1_555
H6FA C11FA 1_555 1_555
C12A C8A 1_555 1_555
C12Q C8Q 1_555 1_555
C12P C8P 1_555 1_555
C12EA C8EA 1_555 1_555
C12FA C8FA 1_555 1_555
O1EA Eu1 1_555 1_555
O1P C6P 1_555 1_555
O1B Eu1EA 1_555 1_555
O1FA Eu1FA 1_555 1_555
O1A Eu1A 1_555 1_555
O1DA Eu1DA 1_555 1_555
O2EA Eu1 1_555 1_555
O2P Eu1GA 1_555 1_555
O2B Eu1EA 1_555 1_555
O2FA Eu1A 1_555 1_555
O2A Eu1DA 1_555 1_555
O2DA Eu1B 1_555 1_555
O3EA Eu1EA 1_555 1_555
O3P Eu2 1_555 1_555
O3B Eu1B 1_555 1_555
O3FA Eu1FA 1_555 1_555
O3A Eu1A 1_555 1_555
O3DA Eu1DA 1_555 1_555
O3Q Eu2B 1_555 1_555
O3CA Eu2FA 1_555 1_555
O4A Eu1 1_555 1_555
O4Q Eu1P 1_555 1_555
O4P Eu1P 1_555 1_555
O4EA Eu1EA 1_555 1_555
O4FA Eu1EA 1_555 1_555
O4DA Eu1FA 1_555 1_555
O4B Eu1A 1_555 1_555
O5A Eu2 1_555 1_555
O5Q Eu2 1_555 1_555
O5P Eu2O 1_555 1_555
O5EA Eu2DA 1_555 1_555
O5FA Eu2EA 1_555 1_555
O5O Eu2B 1_555 1_555
O5DA Eu2FA 1_555 1_555
O5AA Eu2FA 1_555 1_555
O6A Eu1A 1_555 1_555
O6Q Eu1Q 1_555 1_555
O6P Eu2 1_555 1_555
O6EA Eu1EA 1_555 1_555
O6FA Eu1FA 1_555 1_555
O6DA Eu1DA 1_555 1_555
O6B Eu1B 1_555 1_555
O6Q_2 Eu2B 1_555 1_555
O6CA Eu2FA 1_555 1_555
O6O Eu1O 1_555 1_555
O7DA H7 1_555 1_555
N1EA Eu2EA 1_555 1_555
N1P Eu2 1_555 1_555
N1B Eu2B 1_555 1_555
N1FA Eu2FA 1_555 1_555
N1A Eu2A 1_555 1_555
N1Q Eu2B 1_555 1_555
N1CA Eu2FA 1_555 1_555
N2A Eu2A 1_555 1_555
N2Q Eu2B_2 1_555 1_555
N2P Eu2 1_555 1_555
N2EA Eu2EA 1_555 1_555
N2FA Eu2FA 1_555 1_555
N2B Eu2B 1_555 1_555
N2Q_2 Eu2B 1_555 1_555
N2CA Eu2FA 1_555 1_555
Eu2 O6 1_555 1_555
C1 O3 1_555 1_555
C1 N1 1_555 1_555
C5 N1 1_555 1_555
C7 O6 1_555 1_555
C7 N2 1_555 1_555
C11 N2 1_555 1_555
C12 O4 1_555 1_555
O2 Eu1FA 1_555 1_555
O7 Eu1B 1_555 1_555
Eu1EA O7DA 1_555 1_555
Eu1FA O4FA 1_555 1_555
Eu1FA O7DA 1_555 1_555
Eu1A O1FA 1_555 1_555
Eu1A O4A 1_555 1_555
Eu1DA O4EA 1_555 1_555
Eu1DA O4DA 1_555 1_555
Eu1DA O7DA 1_555 1_555
Eu1B O1B 1_555 1_555
Eu1B O1DA 1_555 1_555
Eu1B O4B 1_555 1_555
Eu1P O3P 1_555 1_555
Eu1P O6P 1_555 1_555
Eu1O O4P 1_555 1_555
Eu2EA O6EA 1_555 1_555
Eu2B O3B 1_555 1_555
Eu2B O6B 1_555 1_555
Eu2A O6A 1_555 1_555
Eu2FA O6FA 1_555 1_555
Eu2O O6O 1_555 1_555
Eu2DA O6DA 1_555 1_555
C1EA O3EA 1_555 1_555
C1EA N1EA 1_555 1_555
C1P O3P 1_555 1_555
C1P N1P 1_555 1_555
C1B O3B 1_555 1_555
C1B N1B 1_555 1_555
C1FA O3FA 1_555 1_555
C1FA N1FA 1_555 1_555
C1A O3A 1_555 1_555
C1A N1A 1_555 1_555
C5EA N1EA 1_555 1_555
C5P N1P 1_555 1_555
C5B N1B 1_555 1_555
C5FA N1FA 1_555 1_555
C5A N1A 1_555 1_555
C6EA O1EA 1_555 1_555
C6EA O2EA 1_555 1_555
C6P O2P 1_555 1_555
C6B O1B 1_555 1_555
C6B O2B 1_555 1_555
C6FA O1FA 1_555 1_555
C6FA O2FA 1_555 1_555
C6A O1A 1_555 1_555
C6A O2A 1_555 1_555
C7A O6A 1_555 1_555
C7A N2A 1_555 1_555
C7Q O6Q 1_555 1_555
C7Q N2Q 1_555 1_555
C7P O6P 1_555 1_555
C7P N2P 1_555 1_555
C7EA O6EA 1_555 1_555
C7EA N2EA 1_555 1_555
C7FA O6FA 1_555 1_555
C7FA N2FA 1_555 1_555
C11A N2A 1_555 1_555
C11Q N2Q 1_555 1_555
C11P N2P 1_555 1_555
C11EA N2EA 1_555 1_555
C11FA N2FA 1_555 1_555
C12A O4A 1_555 1_555
C12A O5A 1_555 1_555
C12Q O4Q 1_555 1_555
C12Q O5Q 1_555 1_555
C12P O4P 1_555 1_555
C12P O5P 1_555 1_555
C12EA O4EA 1_555 1_555
C12EA O5EA 1_555 1_555
C12FA O4FA 1_555 1_555
C12FA O5FA 1_555 1_555

#END
