
#######################################################################
#
#                 Cambridge Crystallographic Data Centre
#                                CCDC 
#
#######################################################################
#
# If this CIF has been generated from an entry in the Cambridge 
# Structural Database, then it will include bibliographic, chemical, 
# crystal, experimental, refinement or atomic coordinate data resulting 
# from the CCDC's data processing and validation procedures.
#
#######################################################################

data_CAXVOO
_chemical_formula_moiety         '(C8 H5 Fe2 O6)n'
_symmetry_cell_setting           rhombohedral
_symmetry_space_group_name_H-M   'R -3'
_symmetry_Int_Tables_number      148
_space_group_name_Hall           '-R 3'
loop_
_symmetry_equiv_pos_site_id
_symmetry_equiv_pos_as_xyz
1 x,y,z
2 -y,x-y,z
3 -x+y,-x,z
4 1/3+x,2/3+y,2/3+z
5 1/3-y,2/3+x-y,2/3+z
6 1/3-x+y,2/3-x,2/3+z
7 2/3+x,1/3+y,1/3+z
8 2/3-y,1/3+x-y,1/3+z
9 2/3-x+y,1/3-x,1/3+z
10 -x,-y,-z
11 y,-x+y,-z
12 x-y,x,-z
13 2/3-x,1/3-y,1/3-z
14 2/3+y,1/3-x+y,1/3-z
15 2/3+x-y,1/3+x,1/3-z
16 1/3-x,2/3-y,2/3-z
17 1/3+y,2/3-x+y,2/3-z
18 1/3+x-y,2/3+x,2/3-z
_cell_length_a                   26.1021(28)
_cell_length_b                   26.1021(28)
_cell_length_c                   6.9107(12)
_cell_angle_alpha                90
_cell_angle_beta                 90
_cell_angle_gamma                120
_cell_volume                     4077.59
loop_
_atom_site_label
_atom_site_type_symbol
_atom_site_fract_x
_atom_site_fract_y
_atom_site_fract_z
_atom_site_U_iso_or_equiv
_atom_site_thermal_displace_type
D1 D 0.4521(14) 0.2954(19) 0.663(4) 0.1148 Uani
D2 D 0.2348(10) 0.4864(12) 0.857(5) 0.1120 Uani
Fe1 Fe 0.3818(8) 0.3513(9) 0.1413(30) 0.0080 Uiso
O1 O 0.3183(18) 0.2853(18) 0.353(5) 0.0050 Uiso
O2 O 0.3003(15) 0.2307(16) 0.598(6) 0.0080 Uiso
O3 O 0.3539(21) 0.2707(19) 0.011(7) 0.0440 Uiso
C1 C 0.3121(20) 0.2435(19) 0.445(5) 0.0480 Uiso
C2 C 0.3285(14) 0.2082(14) 0.279(5) 0.0070 Uiso
C3 C 0.3421(13) 0.2206(14) 0.086(5) 0.0020 Uiso
C4 C 0.3139(14) 0.1540(15) 0.361(4) 0.0060 Uiso
H1 H 0.2977(31) 0.1335(27) 0.516(12) 0.0400 Uiso
Fe1L Fe 0.2849(8) -0.0180(9) 0.1920(30) 0.0080 Uiso
Fe1G Fe 0.3154(9) 0.3638(12) 0.4746(30) 0.0080 Uiso
Fe1E Fe 0.3028(12) 0.2849(8) 0.8080(30) 0.0080 Uiso
Fe1E_2 Fe 0.3028(12) 0.2849(8) -0.1920(30) 0.0080 Uiso
Fe1J Fe 0.3513(9) -0.0305(12) -0.1413(30) 0.0080 Uiso
Fe1Q Fe 0.3638(12) 0.0485(8) -0.4746(30) 0.0080 Uiso
Fe1Q_2 Fe 0.3638(12) 0.0485(8) 0.5254(30) 0.0080 Uiso
O1L O 0.3484(18) 0.0480(18) -0.020(5) 0.0050 Uiso
O1E O 0.3003(25) 0.3484(18) 0.020(5) 0.0050 Uiso
O1Q O 0.3663(25) -0.0150(18) 0.314(5) 0.0050 Uiso
O2L O 0.3664(15) 0.1026(16) -0.265(6) 0.0080 Uiso
O2G O 0.4360(16) 0.4029(22) -0.069(6) 0.0080 Uiso
O2J O 0.2307(16) -0.0696(22) 0.402(6) 0.0080 Uiso
O3L O 0.3128(21) 0.0626(19) 0.322(7) 0.0440 Uiso
O3G O 0.3960(19) 0.4165(28) 0.344(7) 0.0440 Uiso
O3J O 0.2707(19) -0.0832(28) -0.011(7) 0.0440 Uiso
C1L C 0.3546(20) 0.0898(19) -0.112(5) 0.0480 Uiso
C2L C 0.3382(14) 0.1251(14) 0.054(5) 0.0070 Uiso
C3L C 0.3246(13) 0.1127(14) 0.247(5) 0.0020 Uiso
C4L C 0.3528(14) 0.1793(15) -0.028(4) 0.0060 Uiso
H1L H 0.3690(31) 0.1998(27) -0.183(12) 0.0400 Uiso
D3 D 0.5339(10) 0.6540(10) 0.7473(30) 0.0280 Uiso
loop_
_atom_site_aniso_label
_atom_site_aniso_U_11
_atom_site_aniso_U_22
_atom_site_aniso_U_33
_atom_site_aniso_U_23
_atom_site_aniso_U_13
_atom_site_aniso_U_12
D1 0.07(4) 0.25(5) 0.051(33) -0.023(31) -0.058(29) 0.10(4)
D2 0.011(25) 0.124(33) 0.22(5) 0.052(27) 0.047(20) 0.048(25)
loop_
_geom_bond_atom_site_label_1
_geom_bond_atom_site_label_2
_geom_bond_site_symmetry_1
_geom_bond_site_symmetry_2
Fe1 O1 1_555 1_555
O1 C1 1_555 1_555
O2 C1 1_555 1_555
O3 Fe1 1_555 1_555
C1 C2 1_555 1_555
C2 C3 1_555 1_555
C3 O3 1_555 1_555
C4 C2 1_555 1_555
H1 C4 1_555 1_555
Fe1L O1L 1_555 1_555
Fe1G O1 1_555 1_555
Fe1E O2 1_555 1_555
Fe1E_2 O3 1_555 1_555
Fe1J O1L 1_555 1_555
Fe1Q O2L 1_555 1_555
Fe1Q_2 O1Q 1_555 1_555
O1L C1L 1_555 1_555
O1E Fe1 1_555 1_555
O1Q Fe1L 1_555 1_555
O2L C1L 1_555 1_555
O2G Fe1 1_555 1_555
O2J Fe1L 1_555 1_555
O3L Fe1L 1_555 1_555
O3G Fe1 1_555 1_555
O3J Fe1L 1_555 1_555
C1L C2L 1_555 1_555
C2L C3L 1_555 1_555
C3L C4 1_555 1_555
C4L C3 1_555 1_555
H1L C4L 1_555 1_555
Fe1G O3G 1_555 1_555
Fe1E_2 O1E 1_555 1_555
Fe1J O3J 1_555 1_555
Fe1Q_2 O3L 1_555 1_555
O3L C3L 1_555 1_555
C2L C4L 1_555 1_555

#END
