
#######################################################################
#
#                 Cambridge Crystallographic Data Centre
#                                CCDC 
#
#######################################################################
#
# If this CIF has been generated from an entry in the Cambridge 
# Structural Database, then it will include bibliographic, chemical, 
# crystal, experimental, refinement or atomic coordinate data resulting 
# from the CCDC's data processing and validation procedures.
#
#######################################################################

data_CAXVUU
_chemical_formula_moiety         '(C8 H3 Fe2 O10)n'
_symmetry_cell_setting           rhombohedral
_symmetry_space_group_name_H-M   'R -3'
_symmetry_Int_Tables_number      148
_space_group_name_Hall           '-R 3'
loop_
_symmetry_equiv_pos_site_id
_symmetry_equiv_pos_as_xyz
1 x,y,z
2 -y,x-y,z
3 -x+y,-x,z
4 1/3+x,2/3+y,2/3+z
5 1/3-y,2/3+x-y,2/3+z
6 1/3-x+y,2/3-x,2/3+z
7 2/3+x,1/3+y,1/3+z
8 2/3-y,1/3+x-y,1/3+z
9 2/3-x+y,1/3-x,1/3+z
10 -x,-y,-z
11 y,-x+y,-z
12 x-y,x,-z
13 2/3-x,1/3-y,1/3-z
14 2/3+y,1/3-x+y,1/3-z
15 2/3+x-y,1/3+x,1/3-z
16 1/3-x,2/3-y,2/3-z
17 1/3+y,2/3-x+y,2/3-z
18 1/3+x-y,2/3+x,2/3-z
_cell_length_a                   25.9689(15)
_cell_length_b                   25.9689(15)
_cell_length_c                   6.8209(9)
_cell_angle_alpha                90
_cell_angle_beta                 90
_cell_angle_gamma                120
_cell_volume                     3983.63
loop_
_atom_site_label
_atom_site_type_symbol
_atom_site_fract_x
_atom_site_fract_y
_atom_site_fract_z
_atom_site_U_iso_or_equiv
_atom_site_thermal_displace_type
D1 D 0.4588(26) 0.3340(28) 0.314(9) 0.0540 Uiso
Fe1 Fe 0.3801(5) 0.3468(6) 0.1382(15) 0.0220 Uiso
O1 O 0.3273(8) 0.2982(8) 0.3592(33) 0.0480 Uiso
O2 O 0.3078(10) 0.2233(11) 0.6082(27) 0.0400 Uiso
O3 O 0.3510(8) 0.2706(5) 0.0014(30) 0.0320 Uiso
C1 C 0.3158(12) 0.2469(8) 0.4104(25) 0.0460 Uiso
C2 C 0.3365(11) 0.2120(9) 0.2843(27) 0.0530 Uiso
C3 C 0.3477(9) 0.2243(8) 0.0771(29) 0.0170 Uiso
C4 C 0.3091(9) 0.1543(9) 0.3490(28) 0.0290 Uiso
H1 H 0.2983(16) 0.1440(18) 0.531(5) 0.0260 Uiso
O4 O 0.4710(14) 0.3871(20) 0.275(5) 0.0270 Uiso
O5 O 0.481(4) 0.365(5) 0.073(11) 0.4667 Uani
Fe1L Fe 0.2866(5) -0.0135(6) 0.1951(15) 0.0220 Uiso
Fe1G Fe 0.3199(6) 0.3666(8) 0.4715(15) 0.0220 Uiso
Fe1E Fe 0.3000(8) 0.2866(5) 0.8049(15) 0.0220 Uiso
Fe1E_2 Fe 0.3000(8) 0.2866(5) -0.1951(15) 0.0220 Uiso
Fe1J Fe 0.3468(6) -0.0333(8) -0.1382(15) 0.0220 Uiso
Fe1Q Fe 0.3666(8) 0.0468(5) -0.4715(15) 0.0220 Uiso
Fe1Q_2 Fe 0.3666(8) 0.0468(5) 0.5285(15) 0.0220 Uiso
O1L O 0.3394(8) 0.0351(8) -0.0259(33) 0.0480 Uiso
O1E O 0.3042(11) 0.3394(8) 0.0259(33) 0.0480 Uiso
O1Q O 0.3624(11) -0.0060(8) 0.3075(33) 0.0480 Uiso
O2L O 0.3589(10) 0.1100(11) -0.2749(27) 0.0400 Uiso
O2G O 0.4434(11) 0.4178(15) -0.0585(27) 0.0400 Uiso
O2J O 0.2233(11) -0.0845(15) 0.3918(27) 0.0400 Uiso
O3L O 0.3157(8) 0.0627(5) 0.3319(30) 0.0320 Uiso
O3G O 0.3961(5) 0.4137(9) 0.3347(30) 0.0320 Uiso
O3J O 0.2706(5) -0.0804(9) -0.0014(30) 0.0320 Uiso
C1L C 0.3509(12) 0.0864(8) -0.0771(25) 0.0460 Uiso
C2L C 0.3302(11) 0.1213(9) 0.0490(27) 0.0530 Uiso
C3L C 0.3190(9) 0.1090(8) 0.2562(29) 0.0170 Uiso
C4L C 0.3576(9) 0.1790(9) -0.0157(28) 0.0290 Uiso
H1L H 0.3684(16) 0.1893(18) -0.198(5) 0.0260 Uiso
O4L O 0.1957(14) -0.0538(20) 0.058(5) 0.0270 Uiso
O5L O 0.186(4) -0.032(5) 0.260(11) 0.4667 Uani
loop_
_atom_site_aniso_label
_atom_site_aniso_U_11
_atom_site_aniso_U_22
_atom_site_aniso_U_33
_atom_site_aniso_U_23
_atom_site_aniso_U_13
_atom_site_aniso_U_12
O5 0.26 0.32 0.8 0.21 0.4 0.13
O5L 0.26 0.32 0.8 0.21 0.4 0.13
loop_
_geom_bond_atom_site_label_1
_geom_bond_atom_site_label_2
_geom_bond_site_symmetry_1
_geom_bond_site_symmetry_2
Fe1 O1 1_555 1_555
O1 C1 1_555 1_555
O2 C1 1_555 1_555
O3 Fe1 1_555 1_555
C1 C2 1_555 1_555
C2 C3 1_555 1_555
C3 O3 1_555 1_555
C4 C2 1_555 1_555
H1 C4 1_555 1_555
O4 Fe1 1_555 1_555
O5 Fe1 1_555 1_555
Fe1L O1L 1_555 1_555
Fe1G O1 1_555 1_555
Fe1E O2 1_555 1_555
Fe1E_2 O3 1_555 1_555
Fe1J O1L 1_555 1_555
Fe1Q O2L 1_555 1_555
Fe1Q_2 O1Q 1_555 1_555
O1L C1L 1_555 1_555
O1E Fe1 1_555 1_555
O1Q Fe1L 1_555 1_555
O2L C1L 1_555 1_555
O2G Fe1 1_555 1_555
O2J Fe1L 1_555 1_555
O3L Fe1L 1_555 1_555
O3G Fe1 1_555 1_555
O3J Fe1L 1_555 1_555
C1L C2L 1_555 1_555
C2L C3L 1_555 1_555
C3L C4 1_555 1_555
C4L C3 1_555 1_555
H1L C4L 1_555 1_555
O4L Fe1L 1_555 1_555
O5L Fe1L 1_555 1_555
O4 O5 1_555 1_555
Fe1G O3G 1_555 1_555
Fe1E_2 O1E 1_555 1_555
Fe1J O3J 1_555 1_555
Fe1Q_2 O3L 1_555 1_555
O3L C3L 1_555 1_555
C2L C4L 1_555 1_555
O4L O5L 1_555 1_555

#END
