
#######################################################################
#
#                 Cambridge Crystallographic Data Centre
#                                CCDC 
#
#######################################################################
#
# If this CIF has been generated from an entry in the Cambridge 
# Structural Database, then it will include bibliographic, chemical, 
# crystal, experimental, refinement or atomic coordinate data resulting 
# from the CCDC's data processing and validation procedures.
#
#######################################################################

data_CAXVII
_chemical_formula_moiety         '(C8 H3 Fe2 O6)n'
_symmetry_cell_setting           rhombohedral
_symmetry_space_group_name_H-M   'R -3'
_symmetry_Int_Tables_number      148
_space_group_name_Hall           '-R 3'
loop_
_symmetry_equiv_pos_site_id
_symmetry_equiv_pos_as_xyz
1 x,y,z
2 -y,x-y,z
3 -x+y,-x,z
4 1/3+x,2/3+y,2/3+z
5 1/3-y,2/3+x-y,2/3+z
6 1/3-x+y,2/3-x,2/3+z
7 2/3+x,1/3+y,1/3+z
8 2/3-y,1/3+x-y,1/3+z
9 2/3-x+y,1/3-x,1/3+z
10 -x,-y,-z
11 y,-x+y,-z
12 x-y,x,-z
13 2/3-x,1/3-y,1/3-z
14 2/3+y,1/3-x+y,1/3-z
15 2/3+x-y,1/3+x,1/3-z
16 1/3-x,2/3-y,2/3-z
17 1/3+y,2/3-x+y,2/3-z
18 1/3+x-y,2/3+x,2/3-z
_cell_length_a                   26.0951(28)
_cell_length_b                   26.0951(28)
_cell_length_c                   6.8945(11)
_cell_angle_alpha                90
_cell_angle_beta                 90
_cell_angle_gamma                120
_cell_volume                     4065.85
loop_
_atom_site_label
_atom_site_type_symbol
_atom_site_fract_x
_atom_site_fract_y
_atom_site_fract_z
_atom_site_U_iso_or_equiv
_atom_site_thermal_displace_type
Fe1 Fe 0.3820(8) 0.3514(9) 0.1416(28) 0.0350 Uiso
O1 O 0.3195(11) 0.2855(12) 0.366(4) 0.0000 Uiso
O2 O 0.3024(12) 0.2288(12) 0.600(4) -0.0020 Uiso
O3 O 0.3570(15) 0.2700(14) 0.010(5) 0.0280 Uiso
C1 C 0.3120(18) 0.2414(16) 0.442(5) 0.0940 Uiso
C2 C 0.3290(11) 0.2092(12) 0.2817(35) 0.0140 Uiso
C3 C 0.3428(12) 0.2210(12) 0.076(4) 0.0180 Uiso
C4 C 0.3139(11) 0.1553(12) 0.3610(28) 0.0050 Uiso
H1 H 0.2979(23) 0.1336(19) 0.506(8) 0.0320 Uiso
Fe1L Fe 0.2847(8) -0.0181(9) 0.1917(28) 0.0350 Uiso
Fe1G Fe 0.3153(9) 0.3639(12) 0.4749(28) 0.0350 Uiso
Fe1E Fe 0.3027(12) 0.2847(8) 0.8083(28) 0.0350 Uiso
Fe1E_2 Fe 0.3027(12) 0.2847(8) -0.1917(28) 0.0350 Uiso
Fe1J Fe 0.3514(9) -0.0306(12) -0.1416(28) 0.0350 Uiso
Fe1Q Fe 0.3639(12) 0.0487(8) -0.4749(28) 0.0350 Uiso
Fe1Q_2 Fe 0.3639(12) 0.0487(8) 0.5251(28) 0.0350 Uiso
O1L O 0.3472(11) 0.0478(12) -0.033(4) 0.0000 Uiso
O1E O 0.2993(16) 0.3472(11) 0.033(4) 0.0000 Uiso
O1Q O 0.3673(16) -0.0138(11) 0.301(4) 0.0000 Uiso
O2L O 0.3643(12) 0.1045(12) -0.267(4) -0.0020 Uiso
O2G O 0.4379(12) 0.4069(17) -0.067(4) -0.0020 Uiso
O2J O 0.2288(12) -0.0736(17) 0.400(4) -0.0020 Uiso
O3L O 0.3097(15) 0.0633(14) 0.323(5) 0.0280 Uiso
O3G O 0.3967(14) 0.4203(21) 0.343(5) 0.0280 Uiso
O3J O 0.2700(14) -0.0870(21) -0.010(5) 0.0280 Uiso
C1L C 0.3547(18) 0.0919(16) -0.109(5) 0.0940 Uiso
C2L C 0.3377(11) 0.1241(12) 0.0516(35) 0.0140 Uiso
C3L C 0.3239(12) 0.1123(12) 0.257(4) 0.0180 Uiso
C4L C 0.3528(11) 0.1780(12) -0.0277(28) 0.0050 Uiso
H1L H 0.3688(23) 0.1997(19) -0.173(8) 0.0320 Uiso
D1 D 0.5306(10) 0.6529(8) 0.7459(27) 0.0280 Uiso
loop_
_geom_bond_atom_site_label_1
_geom_bond_atom_site_label_2
_geom_bond_site_symmetry_1
_geom_bond_site_symmetry_2
Fe1 O1 1_555 1_555
O1 C1 1_555 1_555
O2 C1 1_555 1_555
O3 Fe1 1_555 1_555
C1 C2 1_555 1_555
C2 C3 1_555 1_555
C3 O3 1_555 1_555
C4 C2 1_555 1_555
H1 C4 1_555 1_555
Fe1L O1L 1_555 1_555
Fe1G O1 1_555 1_555
Fe1E O2 1_555 1_555
Fe1E_2 O3 1_555 1_555
Fe1J O1L 1_555 1_555
Fe1Q O2L 1_555 1_555
Fe1Q_2 O1Q 1_555 1_555
O1L C1L 1_555 1_555
O1E Fe1 1_555 1_555
O1Q Fe1L 1_555 1_555
O2L C1L 1_555 1_555
O2G Fe1 1_555 1_555
O2J Fe1L 1_555 1_555
O3L Fe1L 1_555 1_555
O3G Fe1 1_555 1_555
O3J Fe1L 1_555 1_555
C1L C2L 1_555 1_555
C2L C3L 1_555 1_555
C3L C4 1_555 1_555
C4L C3 1_555 1_555
H1L C4L 1_555 1_555
Fe1G O3G 1_555 1_555
Fe1E_2 O1E 1_555 1_555
Fe1J O3J 1_555 1_555
Fe1Q_2 O3L 1_555 1_555
O3L C3L 1_555 1_555
C2L C4L 1_555 1_555

#END
