
#######################################################################
#
#                 Cambridge Crystallographic Data Centre
#                                CCDC 
#
#######################################################################
#
# If this CIF has been generated from an entry in the Cambridge 
# Structural Database, then it will include bibliographic, chemical, 
# crystal, experimental, refinement or atomic coordinate data resulting 
# from the CCDC's data processing and validation procedures.
#
#######################################################################

data_CAXWAB
_chemical_formula_moiety         '(C8 H4 Fe2 O10)n'
_symmetry_cell_setting           rhombohedral
_symmetry_space_group_name_H-M   'R -3'
_symmetry_Int_Tables_number      148
_space_group_name_Hall           '-R 3'
loop_
_symmetry_equiv_pos_site_id
_symmetry_equiv_pos_as_xyz
1 x,y,z
2 -y,x-y,z
3 -x+y,-x,z
4 1/3+x,2/3+y,2/3+z
5 1/3-y,2/3+x-y,2/3+z
6 1/3-x+y,2/3-x,2/3+z
7 2/3+x,1/3+y,1/3+z
8 2/3-y,1/3+x-y,1/3+z
9 2/3-x+y,1/3-x,1/3+z
10 -x,-y,-z
11 y,-x+y,-z
12 x-y,x,-z
13 2/3-x,1/3-y,1/3-z
14 2/3+y,1/3-x+y,1/3-z
15 2/3+x-y,1/3+x,1/3-z
16 1/3-x,2/3-y,2/3-z
17 1/3+y,2/3-x+y,2/3-z
18 1/3+x-y,2/3+x,2/3-z
_cell_length_a                   25.9612(14)
_cell_length_b                   25.9612(14)
_cell_length_c                   6.8377(7)
_cell_angle_alpha                90
_cell_angle_beta                 90
_cell_angle_gamma                120
_cell_volume                     3991.08
loop_
_atom_site_label
_atom_site_type_symbol
_atom_site_fract_x
_atom_site_fract_y
_atom_site_fract_z
_atom_site_U_iso_or_equiv
_atom_site_thermal_displace_type
D1 D 0.423(5) 0.309(5) 0.393(15) 0.1300 Uiso
D2 D 0.4690(19) 0.3414(20) 0.279(4) 0.0590 Uiso
Fe1 Fe 0.3810(4) 0.3479(5) 0.1352(14) 0.0225 Uiso
O1 O 0.3276(8) 0.2996(7) 0.3495(28) 0.0490 Uiso
O2 O 0.3032(9) 0.2203(10) 0.6025(24) 0.0320 Uiso
O3 O 0.3532(7) 0.2721(4) 0.0014(27) 0.0090 Uiso
C1 C 0.3144(10) 0.2468(7) 0.4087(24) 0.0370 Uiso
C2 C 0.3325(10) 0.2114(8) 0.2892(24) 0.0450 Uiso
C3 C 0.3444(8) 0.2236(8) 0.0831(23) 0.0090 Uiso
C4 C 0.3140(9) 0.1550(9) 0.3479(22) 0.0190 Uiso
H1 H 0.2999(13) 0.1402(13) 0.5058(29) 0.0080 Uiso
O4 O 0.4705(17) 0.3827(25) 0.279(5) 0.0170 Uiso
O5 O 0.489(4) 0.382(5) 0.060(8) 0.5289 Uani
Fe1L Fe 0.2857(4) -0.0146(5) 0.1981(14) 0.0225 Uiso
Fe1G Fe 0.3188(5) 0.3664(6) 0.4685(14) 0.0225 Uiso
Fe1E Fe 0.3002(6) 0.2857(4) 0.8019(14) 0.0225 Uiso
Fe1E_2 Fe 0.3002(6) 0.2857(4) -0.1981(14) 0.0225 Uiso
Fe1J Fe 0.3479(5) -0.0331(6) -0.1352(14) 0.0225 Uiso
Fe1Q Fe 0.3664(6) 0.0477(4) -0.4685(14) 0.0225 Uiso
Fe1Q_2 Fe 0.3664(6) 0.0477(4) 0.5315(14) 0.0225 Uiso
O1L O 0.3391(8) 0.0337(7) -0.0162(28) 0.0490 Uiso
O1E O 0.3053(11) 0.3391(8) 0.0162(28) 0.0490 Uiso
O1Q O 0.3613(11) -0.0057(8) 0.3172(28) 0.0490 Uiso
O2L O 0.3635(9) 0.1130(10) -0.2692(24) 0.0320 Uiso
O2G O 0.4464(10) 0.4162(13) -0.0642(24) 0.0320 Uiso
O2J O 0.2203(10) -0.0829(13) 0.3975(24) 0.0320 Uiso
O3L O 0.3135(7) 0.0612(4) 0.3319(27) 0.0090 Uiso
O3G O 0.3946(4) 0.4144(8) 0.3347(27) 0.0090 Uiso
O3J O 0.2721(4) -0.0811(8) -0.0014(27) 0.0090 Uiso
C1L C 0.3523(10) 0.0865(7) -0.0754(24) 0.0370 Uiso
C2L C 0.3342(10) 0.1219(8) 0.0441(24) 0.0450 Uiso
C3L C 0.3223(8) 0.1097(8) 0.2502(23) 0.0090 Uiso
C4L C 0.3527(9) 0.1783(9) -0.0146(22) 0.0190 Uiso
H1L H 0.3668(13) 0.1931(13) -0.1725(29) 0.0080 Uiso
O4L O 0.1962(17) -0.0494(25) 0.054(5) 0.0170 Uiso
O5L O 0.178(4) -0.049(5) 0.273(8) 0.5289 Uani
loop_
_atom_site_aniso_label
_atom_site_aniso_U_11
_atom_site_aniso_U_22
_atom_site_aniso_U_33
_atom_site_aniso_U_23
_atom_site_aniso_U_13
_atom_site_aniso_U_12
O5 0.17 0.51 0.8 0.4 0.4 0.09
O5L 0.17 0.51 0.8 0.4 0.4 0.09
loop_
_geom_bond_atom_site_label_1
_geom_bond_atom_site_label_2
_geom_bond_site_symmetry_1
_geom_bond_site_symmetry_2
Fe1 O1 1_555 1_555
O1 C1 1_555 1_555
O2 C1 1_555 1_555
O3 Fe1 1_555 1_555
C1 C2 1_555 1_555
C2 C3 1_555 1_555
C3 O3 1_555 1_555
C4 C2 1_555 1_555
H1 C4 1_555 1_555
O4 Fe1 1_555 1_555
O5 Fe1 1_555 1_555
Fe1L O1L 1_555 1_555
Fe1G O1 1_555 1_555
Fe1E O2 1_555 1_555
Fe1E_2 O3 1_555 1_555
Fe1J O1L 1_555 1_555
Fe1Q O2L 1_555 1_555
Fe1Q_2 O1Q 1_555 1_555
O1L C1L 1_555 1_555
O1E Fe1 1_555 1_555
O1Q Fe1L 1_555 1_555
O2L C1L 1_555 1_555
O2G Fe1 1_555 1_555
O2J Fe1L 1_555 1_555
O3L Fe1L 1_555 1_555
O3G Fe1 1_555 1_555
O3J Fe1L 1_555 1_555
C1L C2L 1_555 1_555
C2L C3L 1_555 1_555
C3L C4 1_555 1_555
C4L C3 1_555 1_555
H1L C4L 1_555 1_555
O4L Fe1L 1_555 1_555
O5L Fe1L 1_555 1_555
O4 O5 1_555 1_555
Fe1G O3G 1_555 1_555
Fe1E_2 O1E 1_555 1_555
Fe1J O3J 1_555 1_555
Fe1Q_2 O3L 1_555 1_555
O3L C3L 1_555 1_555
C2L C4L 1_555 1_555
O4L O5L 1_555 1_555

#END
