
#######################################################################
#
#                 Cambridge Crystallographic Data Centre
#                                CCDC 
#
#######################################################################
#
# If this CIF has been generated from an entry in the Cambridge 
# Structural Database, then it will include bibliographic, chemical, 
# crystal, experimental, refinement or atomic coordinate data resulting 
# from the CCDC's data processing and validation procedures.
#
#######################################################################

data_KUCDES
_chemical_formula_moiety         '(C40 H54 B2 Li2 N20 O1)n'
_symmetry_cell_setting           cubic
_symmetry_space_group_name_H-M   'P 4 3 2'
_symmetry_Int_Tables_number      207
_space_group_name_Hall           'P 4 2 3'
loop_
_symmetry_equiv_pos_site_id
_symmetry_equiv_pos_as_xyz
1 x,y,z
2 -y,x,z
3 x,-y,-z
4 z,x,y
5 -x,-y,z
6 y,x,-z
7 -x,z,y
8 y,-x,z
9 -x,y,-z
10 -z,-x,y
11 -y,-x,-z
12 x,-z,y
13 z,-x,-y
14 -x,-z,-y
15 -z,x,-y
16 x,z,-y
17 y,z,x
18 -z,y,x
19 z,y,-x
20 y,-z,-x
21 -z,-y,-x
22 -y,z,-x
23 -y,-z,x
24 z,-y,x
_cell_length_a                   26.292(3)
_cell_length_b                   26.292(3)
_cell_length_c                   26.292(3)
_cell_angle_alpha                90
_cell_angle_beta                 90
_cell_angle_gamma                90
_cell_volume                     18174.9
loop_
_atom_site_label
_atom_site_type_symbol
_atom_site_fract_x
_atom_site_fract_y
_atom_site_fract_z
_atom_site_U_iso_or_equiv
_atom_site_thermal_displace_type
N9 N 0.50319(8) 0.3607(3) 0.31644(17) 0.2080 Uiso
H21 H 0.5101 0.3923 0.3248 0.2500 Uiso
N10 N 0.52814(8) 0.3233(2) 0.28250(16) 0.0820 Uiso
C17 C 0.47683(10) 0.3272(3) 0.3441(2) 0.1880 Uiso
H22 H 0.5372 0.3764 0.3354 0.2260 Uiso
C18 C 0.49807(19) 0.2902(3) 0.2788(3) 0.0840 Uiso
C19 C 0.5170(2) 0.3374(3) 0.2741(3) 0.1130 Uiso
H23 H 0.5361 0.3510 0.2466 0.1360 Uiso
C20 C 0.5021(3) 0.2489(4) 0.2427(3) 0.0770 Uiso
H24 H 0.4690 0.2201 0.2550 0.1150 Uiso
H25 H 0.5292 0.2226 0.2469 0.1150 Uiso
H26 H 0.4928 0.2611 0.2169 0.1150 Uiso
N9F N 0.49681(8) 0.31644(17) 0.3607(3) 0.2080 Uiso
H21F H 0.4899 0.3248 0.3923 0.2500 Uiso
N10F N 0.47186(8) 0.28250(16) 0.3233(2) 0.0820 Uiso
C17F C 0.52317(10) 0.3441(2) 0.3272(3) 0.1880 Uiso
H22F H 0.4628 0.3354 0.3764 0.2260 Uiso
C18F C 0.50193(19) 0.2788(3) 0.2902(3) 0.0840 Uiso
C19F C 0.4830(2) 0.2741(3) 0.3374(3) 0.1130 Uiso
H23F H 0.4639 0.2466 0.3510 0.1360 Uiso
C20F C 0.4979(3) 0.2427(3) 0.2489(4) 0.0770 Uiso
H24F H 0.5310 0.2550 0.2201 0.1150 Uiso
H25F H 0.4708 0.2469 0.2226 0.1150 Uiso
H26F H 0.5072 0.2169 0.2611 0.1150 Uiso
O1 O 0.5518(5) 0.4803(3) 0.1935(6) 0.1570 Uiso
Li1 Li 0.74464(19) 0.6096(2) -0.10871(19) 0.0667 Uani
B1 B 0.74894(12) 0.59999(13) 0.10198(13) 0.0582 Uani
N1 N 0.75752(9) 0.62182(9) 0.04809(8) 0.0560 Uani
N2 N 0.75276(9) 0.63373(9) -0.03570(9) 0.0604 Uani
C1 C 0.73868(10) 0.60470(10) 0.00334(12) 0.0594 Uani
H1 H 0.7178 0.5754 0.0002 0.0710 Uiso
C2 C 0.78211(11) 0.67209(12) -0.01464(11) 0.0641 Uani
C3 C 0.78459(11) 0.66533(12) 0.03631(11) 0.0609 Uani
H2 H 0.8019 0.6867 0.0598 0.0730 Uiso
C4 C 0.80416(18) 0.71301(18) -0.04590(17) 0.1043 Uani
H3 H 0.7774 0.7285 -0.0667 0.1570 Uiso
H4 H 0.8305 0.6988 -0.0681 0.1570 Uiso
H5 H 0.8192 0.7389 -0.0237 0.1570 Uiso
N3 N 0.72468(8) 0.54629(8) 0.09824(9) 0.0559 Uani
N4 N 0.71594(9) 0.46214(10) 0.10300(10) 0.0654 Uani
C5 C 0.74646(10) 0.50132(12) 0.10859(9) 0.0585 Uani
H6 H 0.7809 0.4981 0.1190 0.0700 Uiso
C6 C 0.67014(11) 0.48341(12) 0.08795(12) 0.0677 Uani
C7 C 0.67547(11) 0.53456(11) 0.08558(13) 0.0654 Uani
H7 H 0.6496 0.5582 0.0767 0.0780 Uiso
C8 C 0.62489(13) 0.45026(15) 0.07747(15) 0.0843 Uani
H8 H 0.6318 0.4288 0.0478 0.1270 Uiso
H9 H 0.5951 0.4716 0.0707 0.1270 Uiso
H10 H 0.6182 0.4287 0.1071 0.1270 Uiso
N5 N 0.80094(8) 0.59650(9) 0.12766(8) 0.0547 Uani
N6 N 0.86293(9) 0.60121(10) 0.18538(9) 0.0624 Uani
C9 C 0.81418(11) 0.60941(10) 0.17475(11) 0.0583 Uani
H11 H 0.7909 0.6233 0.1986 0.0700 Uiso
C10 C 0.88368(11) 0.58142(11) 0.14106(11) 0.0593 Uani
C11 C 0.84530(12) 0.57793(11) 0.10542(12) 0.0640 Uani
H12 H 0.8486 0.5652 0.0718 0.0770 Uiso
C12 C 0.93819(13) 0.56694(14) 0.13529(14) 0.0777 Uani
H13 H 0.9589 0.5977 0.1319 0.1170 Uiso
H14 H 0.9423 0.5458 0.1049 0.1170 Uiso
H15 H 0.9492 0.5478 0.1653 0.1170 Uiso
N7 N 0.71222(9) 0.63427(9) 0.13078(9) 0.0567 Uani
N8 N 0.65709(10) 0.69725(10) 0.14561(9) 0.0664 Uani
C13 C 0.69029(12) 0.67719(11) 0.11415(11) 0.0618 Uani
H16 H 0.6981 0.6919 0.0821 0.0740 Uiso
C14 C 0.65661(13) 0.66457(13) 0.18676(11) 0.0679 Uani
C15 C 0.68908(13) 0.62611(13) 0.17827(12) 0.0700 Uani
H17 H 0.6953 0.5983 0.2005 0.0840 Uiso
C16 C 0.62427(17) 0.67411(18) 0.23093(16) 0.1123 Uani
H18 H 0.6277 0.6460 0.2551 0.1690 Uiso
H19 H 0.5887 0.6768 0.2200 0.1690 Uiso
H20 H 0.6347 0.7059 0.2473 0.1690 Uiso
Li1B Li 0.74464(19) 0.3904(2) 0.10871(19) 0.0667 Uani
Li1R Li 0.89129(19) 0.6096(2) 0.25536(19) 0.0667 Uani
Li1E Li 0.6096(2) 0.74464(19) 0.10871(19) 0.0667 Uani
Li1W Li 0.89129(19) 0.3904(2) -0.25536(19) 0.0667 Uani
Li1G Li 0.6096(2) 0.25536(19) -0.10871(19) 0.0667 Uani
B1B B 0.74894(12) 0.40001(13) -0.10198(13) 0.0582 Uani
N1B N 0.75752(9) 0.37818(9) -0.04809(8) 0.0560 Uani
N2B N 0.75276(9) 0.36627(9) 0.03570(9) 0.0604 Uani
C1B C 0.73868(10) 0.39530(10) -0.00334(12) 0.0594 Uani
H1B H 0.7178 0.4246 -0.0002 0.0710 Uiso
C2B C 0.78211(11) 0.32791(12) 0.01464(11) 0.0641 Uani
C3B C 0.78459(11) 0.33467(12) -0.03631(11) 0.0609 Uani
H2B H 0.8019 0.3133 -0.0598 0.0730 Uiso
C4B C 0.80416(18) 0.28699(18) 0.04590(17) 0.1043 Uani
H3B H 0.7774 0.2715 0.0667 0.1570 Uiso
H4B H 0.8305 0.3012 0.0681 0.1570 Uiso
H5B H 0.8192 0.2611 0.0237 0.1570 Uiso
N3B N 0.72468(8) 0.45371(8) -0.09824(9) 0.0559 Uani
N4B N 0.71594(9) 0.53786(10) -0.10300(10) 0.0654 Uani
C5B C 0.74646(10) 0.49868(12) -0.10859(9) 0.0585 Uani
H6B H 0.7809 0.5019 -0.1190 0.0700 Uiso
C6B C 0.67014(11) 0.51659(12) -0.08795(12) 0.0677 Uani
C7B C 0.67547(11) 0.46544(11) -0.08558(13) 0.0654 Uani
H7B H 0.6496 0.4418 -0.0767 0.0780 Uiso
C8B C 0.62489(13) 0.54974(15) -0.07747(15) 0.0843 Uani
H8B H 0.6318 0.5712 -0.0478 0.1270 Uiso
H9B H 0.5951 0.5284 -0.0707 0.1270 Uiso
H10B H 0.6182 0.5713 -0.1071 0.1270 Uiso
N5B N 0.80094(8) 0.40350(9) -0.12766(8) 0.0547 Uani
N6B N 0.86293(9) 0.39879(10) -0.18538(9) 0.0624 Uani
N6Q N 0.81462(9) 0.60121(10) -0.13707(9) 0.0624 Uani
N6T N 0.81462(9) 0.39879(10) 0.13707(9) 0.0624 Uani
C9B C 0.81418(11) 0.39059(10) -0.17475(11) 0.0583 Uani
H11B H 0.7909 0.3767 -0.1986 0.0700 Uiso
C10B C 0.88368(11) 0.41858(11) -0.14106(11) 0.0593 Uani
C11B C 0.84530(12) 0.42207(11) -0.10542(12) 0.0640 Uani
H12B H 0.8486 0.4348 -0.0718 0.0770 Uiso
C12B C 0.93819(13) 0.43306(14) -0.13529(14) 0.0777 Uani
H13B H 0.9589 0.4023 -0.1319 0.1170 Uiso
H14B H 0.9423 0.4542 -0.1049 0.1170 Uiso
H15B H 0.9492 0.4522 -0.1653 0.1170 Uiso
N7B N 0.71222(9) 0.36573(9) -0.13078(9) 0.0567 Uani
N8B N 0.65709(10) 0.30275(10) -0.14561(9) 0.0664 Uani
N8E N 0.69725(10) 0.65709(10) -0.14561(9) 0.0664 Uani
N8G N 0.69725(10) 0.34291(10) 0.14561(9) 0.0664 Uani
C13B C 0.69029(12) 0.32281(11) -0.11415(11) 0.0618 Uani
H16B H 0.6981 0.3081 -0.0821 0.0740 Uiso
C14B C 0.65661(13) 0.33543(13) -0.18676(11) 0.0679 Uani
C15B C 0.68908(13) 0.37389(13) -0.17827(12) 0.0700 Uani
H17B H 0.6953 0.4017 -0.2005 0.0840 Uiso
C16B C 0.62427(17) 0.32589(18) -0.23093(16) 0.1123 Uani
H18B H 0.6277 0.3540 -0.2551 0.1690 Uiso
H19B H 0.5887 0.3232 -0.2200 0.1690 Uiso
H20B H 0.6347 0.2941 -0.2473 0.1690 Uiso
loop_
_atom_site_aniso_label
_atom_site_aniso_U_11
_atom_site_aniso_U_22
_atom_site_aniso_U_33
_atom_site_aniso_U_23
_atom_site_aniso_U_13
_atom_site_aniso_U_12
Li1 0.063 0.079 0.058 -0.004 0.003 0.012
B1 0.056 0.0642 0.0544 0.0052 -0.0054 0.0033
N1 0.0569 0.0679 0.0432 0.0011 -0.0017 0.0024
N2 0.0633 0.0674 0.0506 0.0049 0.003 0.0045
C1 0.0533 0.0656 0.0592 -0.0023 -0.0012 0.0036
C2 0.0625 0.0715 0.0582 0.0141 0.009 0.0035
C3 0.056 0.0659 0.0608 0.0004 -0.0069 -0.0015
C4 0.101 0.114 0.098 0.019 0.001 -0.004
N3 0.0502 0.0637 0.0539 0.0032 -0.0026 0.0036
N4 0.0651 0.0715 0.0597 0.0025 -0.0008 -0.0094
C5 0.0614 0.0648 0.0494 -0.0041 0.0005 0.0008
C6 0.055 0.079 0.0691 0.003 -0.0002 -0.0058
C7 0.0524 0.077 0.0667 0.0004 -0.0028 0.0044
C8 0.07 0.099 0.084 0 -0.0126 -0.0109
N5 0.0494 0.0605 0.0541 0.0024 0.0018 0.0052
N6 0.0626 0.0636 0.0611 -0.004 -0.0074 0.003
C9 0.0606 0.0612 0.0531 -0.0093 -0.0014 0.0062
C10 0.0601 0.0566 0.0611 -0.0034 0.0047 0.0073
C11 0.0658 0.0635 0.0626 -0.0083 0.0049 0.0004
C12 0.0702 0.079 0.084 -0.015 0.0016 -0.0007
N7 0.0586 0.0603 0.0513 0.0022 0.0025 0.0069
N8 0.0685 0.0776 0.0532 0.0001 -0.0043 0.0118
C13 0.0712 0.0643 0.05 -0.0005 -0.0071 0.0127
C14 0.0727 0.0723 0.0586 0.0012 0.0029 0.0136
C15 0.0736 0.079 0.0575 0.013 0.0081 0.0147
C16 0.124 0.124 0.089 0.011 0.042 0.042
Li1B 0.063 0.079 0.058 -0.004 -0.003 -0.012
Li1R 0.058 0.079 0.063 -0.012 -0.003 -0.004
Li1E 0.079 0.063 0.058 -0.003 0.004 0.012
Li1W 0.058 0.079 0.063 -0.012 0.003 0.004
Li1G 0.079 0.063 0.058 -0.003 -0.004 -0.012
B1B 0.056 0.0642 0.0544 0.0052 0.0054 -0.0033
N1B 0.0569 0.0679 0.0432 0.0011 0.0017 -0.0024
N2B 0.0633 0.0674 0.0506 0.0049 -0.003 -0.0045
C1B 0.0533 0.0656 0.0592 -0.0023 0.0012 -0.0036
C2B 0.0625 0.0715 0.0582 0.0141 -0.009 -0.0035
C3B 0.056 0.0659 0.0608 0.0004 0.0069 0.0015
C4B 0.101 0.114 0.098 0.019 -0.001 0.004
N3B 0.0502 0.0637 0.0539 0.0032 0.0026 -0.0036
N4B 0.0651 0.0715 0.0597 0.0025 0.0008 0.0094
C5B 0.0614 0.0648 0.0494 -0.0041 -0.0005 -0.0008
C6B 0.055 0.079 0.0691 0.003 0.0002 0.0058
C7B 0.0524 0.077 0.0667 0.0004 0.0028 -0.0044
C8B 0.07 0.099 0.084 0 0.0126 0.0109
N5B 0.0494 0.0605 0.0541 0.0024 -0.0018 -0.0052
N6B 0.0626 0.0636 0.0611 -0.004 0.0074 -0.003
N6Q 0.0611 0.0636 0.0626 0.003 0.0074 0.004
N6T 0.0611 0.0636 0.0626 0.003 -0.0074 -0.004
C9B 0.0606 0.0612 0.0531 -0.0093 0.0014 -0.0062
C10B 0.0601 0.0566 0.0611 -0.0034 -0.0047 -0.0073
C11B 0.0658 0.0635 0.0626 -0.0083 -0.0049 -0.0004
C12B 0.0702 0.079 0.084 -0.015 -0.0016 0.0007
N7B 0.0586 0.0603 0.0513 0.0022 -0.0025 -0.0069
N8B 0.0685 0.0776 0.0532 0.0001 0.0043 -0.0118
N8E 0.0776 0.0685 0.0532 0.0043 -0.0001 0.0118
N8G 0.0776 0.0685 0.0532 0.0043 0.0001 -0.0118
C13B 0.0712 0.0643 0.05 -0.0005 0.0071 -0.0127
C14B 0.0727 0.0723 0.0586 0.0012 -0.0029 -0.0136
C15B 0.0736 0.079 0.0575 0.013 -0.0081 -0.0147
C16B 0.124 0.124 0.089 0.011 -0.042 -0.042
loop_
_geom_bond_atom_site_label_1
_geom_bond_atom_site_label_2
_geom_bond_site_symmetry_1
_geom_bond_site_symmetry_2
Li1 N2 1_555 1_555
B1 N1 1_555 1_555
N1 C1 1_555 1_555
N2 C1 1_555 1_555
C1 H1 1_555 1_555
C2 N2 1_555 1_555
C3 N1 1_555 1_555
H2 C3 1_555 1_555
C4 C2 1_555 1_555
H3 C4 1_555 1_555
H4 C4 1_555 1_555
H5 C4 1_555 1_555
N3 B1 1_555 1_555
N4 C5 1_555 1_555
C5 N3 1_555 1_555
H6 C5 1_555 1_555
C6 N4 1_555 1_555
C7 N3 1_555 1_555
H7 C7 1_555 1_555
C8 C6 1_555 1_555
H8 C8 1_555 1_555
H9 C8 1_555 1_555
H10 C8 1_555 1_555
N5 B1 1_555 1_555
N6 C9 1_555 1_555
C9 N5 1_555 1_555
H11 C9 1_555 1_555
C10 N6 1_555 1_555
C11 N5 1_555 1_555
H12 C11 1_555 1_555
C12 C10 1_555 1_555
H13 C12 1_555 1_555
H14 C12 1_555 1_555
H15 C12 1_555 1_555
N7 B1 1_555 1_555
N8 C13 1_555 1_555
C13 N7 1_555 1_555
H16 C13 1_555 1_555
C14 N8 1_555 1_555
C15 N7 1_555 1_555
H17 C15 1_555 1_555
C16 C14 1_555 1_555
H18 C16 1_555 1_555
H19 C16 1_555 1_555
H20 C16 1_555 1_555
N9 H21 1_555 1_555
N10 N9 1_555 1_555
C17 N9 1_555 1_555
H22 N9 1_555 1_555
C18 N10 1_555 1_555
C19 N9 1_555 1_555
H23 N10 1_555 1_555
C20 C18 1_555 1_555
H24 C20 1_555 1_555
H25 C20 1_555 1_555
H26 C20 1_555 1_555
Li1B N4 1_555 1_555
Li1R N6 1_555 1_555
Li1E N8 1_555 1_555
Li1W N6B 1_555 1_555
Li1G N8B 1_555 1_555
B1B N1B 1_555 1_555
N1B C1B 1_555 1_555
N2B Li1B 1_555 1_555
C1B N2B 1_555 1_555
H1B C1B 1_555 1_555
C2B N2B 1_555 1_555
C3B N1B 1_555 1_555
H2B C3B 1_555 1_555
C4B C2B 1_555 1_555
H3B C4B 1_555 1_555
H4B C4B 1_555 1_555
H5B C4B 1_555 1_555
N3B B1B 1_555 1_555
N4B Li1 1_555 1_555
C5B N3B 1_555 1_555
H6B C5B 1_555 1_555
C6B N4B 1_555 1_555
C7B N3B 1_555 1_555
H7B C7B 1_555 1_555
C8B C6B 1_555 1_555
H8B C8B 1_555 1_555
H9B C8B 1_555 1_555
H10B C8B 1_555 1_555
N5B B1B 1_555 1_555
N6B C9B 1_555 1_555
N6Q Li1 1_555 1_555
N6T Li1B 1_555 1_555
C9B N5B 1_555 1_555
H11B C9B 1_555 1_555
C10B N6B 1_555 1_555
C11B N5B 1_555 1_555
H12B C11B 1_555 1_555
C12B C10B 1_555 1_555
H13B C12B 1_555 1_555
H14B C12B 1_555 1_555
H15B C12B 1_555 1_555
N7B B1B 1_555 1_555
N8B C13B 1_555 1_555
N8E Li1 1_555 1_555
N8G Li1B 1_555 1_555
C13B N7B 1_555 1_555
H16B C13B 1_555 1_555
C14B N8B 1_555 1_555
C15B N7B 1_555 1_555
H17B C15B 1_555 1_555
C16B C14B 1_555 1_555
H18B C16B 1_555 1_555
H19B C16B 1_555 1_555
H20B C16B 1_555 1_555
N9F N9 1_555 1_555
H21F N9F 1_555 1_555
N10F C17 1_555 1_555
C17F N9 1_555 1_555
H22F C17 1_555 1_555
C18F N10 1_555 1_555
C19F C17 1_555 1_555
H23F N10F 1_555 1_555
C20F C18 1_555 1_555
H24F C20 1_555 1_555
H25F C20 1_555 1_555
H26F C20 1_555 1_555
C2 C3 1_555 1_555
C6 C7 1_555 1_555
C10 C11 1_555 1_555
C14 C15 1_555 1_555
N10 C19 1_555 1_555
N10 C17F 1_555 1_555
C17 N9F 1_555 1_555
C17 C17F 1_555 1_555
H22 C17F 1_555 1_555
C18 C19 1_555 1_555
C18 N10F 1_555 1_555
C18 C18F 1_555 1_555
C18 C19F 1_555 1_555
C19 H23 1_555 1_555
C19 C17F 1_555 1_555
C19 C18F 1_555 1_555
C20 C18F 1_555 1_555
C20 C20F 1_555 1_555
H24 C20F 1_555 1_555
H25 C20F 1_555 1_555
H25 H26F 1_555 1_555
H26 C20F 1_555 1_555
H26 H25F 1_555 1_555
C2B C3B 1_555 1_555
N4B C5B 1_555 1_555
C6B C7B 1_555 1_555
C10B C11B 1_555 1_555
C14B C15B 1_555 1_555
N9F N10F 1_555 1_555
N9F C17F 1_555 1_555
N9F H22F 1_555 1_555
N9F C19F 1_555 1_555
N10F C18F 1_555 1_555
N10F C19F 1_555 1_555
C18F C19F 1_555 1_555
C18F C20F 1_555 1_555
C19F H23F 1_555 1_555
C20F H24F 1_555 1_555
C20F H25F 1_555 1_555
C20F H26F 1_555 1_555

#END
