
#######################################################################
#
#                 Cambridge Crystallographic Data Centre
#                                CCDC 
#
#######################################################################
#
# If this CIF has been generated from an entry in the Cambridge 
# Structural Database, then it will include bibliographic, chemical, 
# crystal, experimental, refinement or atomic coordinate data resulting 
# from the CCDC's data processing and validation procedures.
#
#######################################################################

data_GEDPAH
_chemical_formula_moiety         '(C20 H69 N5 Na6 O42 P5 1+)n'
_symmetry_cell_setting           triclinic
_symmetry_space_group_name_H-M   'P -1'
_symmetry_Int_Tables_number      2
_space_group_name_Hall           '-P 1'
loop_
_symmetry_equiv_pos_site_id
_symmetry_equiv_pos_as_xyz
1 x,y,z
2 -x,-y,-z
_cell_length_a                   7.163(3)
_cell_length_b                   10.443(3)
_cell_length_c                   20.003(5)
_cell_angle_alpha                81.20(3)
_cell_angle_beta                 85.04(3)
_cell_angle_gamma                86.91(3)
_cell_volume                     1471.88
loop_
_atom_site_label
_atom_site_type_symbol
_atom_site_fract_x
_atom_site_fract_y
_atom_site_fract_z
Na1 Na 0.0000 0.5000 0.5000
Na2 Na -0.5000 -0.0000 0.5000
Na3 Na -0.40584(11) -0.33798(8) 0.76645(4)
Na4 Na -0.34674(12) -0.43108(8) 0.93810(4)
P1 P -0.45286(7) 0.00103(5) 0.67050(3)
O1 O -0.53419(18) 0.03217(14) 0.73875(7)
O2 O -0.41722(19) -0.15123(13) 0.67649(8)
H1 H -0.404(4) -0.172(3) 0.6380(16)
O3 O -0.24978(18) 0.05871(13) 0.66078(7)
O4 O -0.56580(18) 0.04958(13) 0.61222(7)
O5 O -0.23280(18) 0.12765(13) 0.48978(7)
O6 O -0.16047(18) 0.30936(13) 0.52701(7)
N1 N 0.0961(3) 0.19424(17) 0.60674(10)
H2 H 0.020(4) 0.225(2) 0.6387(13)
H3 H 0.194(3) 0.150(2) 0.6260(12)
H4 H 0.143(3) 0.257(2) 0.5761(11)
C1 C -0.1459(3) 0.19020(18) 0.52611(10)
C2 C -0.0073(3) 0.10892(18) 0.57123(10)
H5 H 0.081(3) 0.0678(19) 0.5412(10)
C3 C -0.1004(3) 0.00022(18) 0.61960(10)
H6 H -0.154(3) -0.054(2) 0.5894(11)
C4 C 0.0282(3) -0.0797(2) 0.66729(11)
H7 H -0.032(3) -0.154(2) 0.6931(11)
H8 H 0.070(3) -0.031(2) 0.7005(12)
H9 H 0.143(3) -0.113(2) 0.6414(12)
P2 P 0.11722(7) 0.50348(5) 0.31617(3)
O7 O 0.07525(18) 0.43747(13) 0.25778(7)
O8 O 0.1210(2) 0.65537(13) 0.29634(8)
H10 H 0.176(4) 0.679(3) 0.2604(15)
O9 O 0.33255(17) 0.45648(13) 0.32733(7)
O10 O -0.00246(18) 0.47725(13) 0.38111(7)
O11 O 0.27375(18) 0.36786(13) 0.50665(7)
O12 O 0.36257(18) 0.21002(13) 0.44521(7)
N2 N 0.6795(2) 0.33511(17) 0.39140(9)
H11 H 0.655(3) 0.310(2) 0.3527(13)
H12 H 0.792(4) 0.379(3) 0.3838(13)
H13 H 0.698(3) 0.258(2) 0.4215(12)
C5 C 0.3743(3) 0.32153(18) 0.46133(10)
C6 C 0.5231(3) 0.41119(18) 0.42323(10)
H14 H 0.572(3) 0.4567(19) 0.4570(10)
C7 C 0.4353(3) 0.51803(18) 0.37324(10)
H15 H 0.346(3) 0.5670(19) 0.4014(10)
C8 C 0.5742(3) 0.6070(2) 0.33085(12)
H16 H 0.511(3) 0.681(2) 0.3062(12)
H17 H 0.660(3) 0.558(2) 0.3016(10)
H18 H 0.648(3) 0.642(2) 0.3592(12)
O19 O -0.3089(2) -0.23608(16) 0.85367(8)
H28 H -0.179(5) -0.235(3) 0.8516(17)
H29 H -0.342(4) -0.158(3) 0.8513(16)
O20 O -0.1854(2) -0.37902(18) 1.02614(9)
H30 H -0.120(4) -0.315(3) 1.0054(15)
H31 H -0.104(5) -0.431(4) 1.0494(18)
O21 O -0.7372(2) -0.32204(17) 0.75362(8)
H32 H -0.834(5) -0.368(3) 0.7502(16)
H33 H -0.772(4) -0.270(3) 0.7760(15)
O22 O -0.3759(2) -0.64415(15) 1.00281(8)
H34 H -0.400(4) -0.702(3) 0.9779(14)
H35 H -0.267(4) -0.669(3) 1.0133(13)
O23 O -0.4844(3) -0.51587(16) 0.85092(9)
H36 H -0.432(5) -0.591(3) 0.8425(16)
H37 H -0.581(5) -0.538(3) 0.8619(17)
O24 O -0.0288(3) -0.4639(2) 0.88109(10)
H38 H 0.021(4) -0.383(3) 0.8766(15)
H39 H -0.049(4) -0.477(3) 0.8435(17)
Na2_2 Na 0.5000 -0.0000 0.5000
Na2_3 Na 0.5000 1.0000 0.5000
Na2_4 Na -0.5000 1.0000 0.5000
Na3A Na 0.40584(11) 1.33798(8) 0.23355(4)
Na3A_2 Na 0.40584(11) 0.33798(8) 0.23355(4)
Na3_2 Na -0.40584(11) 0.66202(8) 0.76645(4)
Na4A Na 0.34674(12) 1.43108(8) 0.06190(4)
Na4A_2 Na -0.65326(12) -0.56892(8) 1.06190(4)
P1A P 0.45286(7) 0.99897(5) 0.32950(3)
O1A O 0.53419(18) 0.96783(14) 0.26125(7)
O2A O 0.41722(19) 1.15123(13) 0.32351(8)
H1A H 0.404(4) 1.172(3) 0.3620(16)
O3A O 0.24978(18) 0.94129(13) 0.33922(7)
O4A O 0.56580(18) 0.95042(13) 0.38778(7)
O4A_2 O -0.43420(18) -0.04958(13) 0.38778(7)
O5A O 0.23280(18) 0.87235(13) 0.51022(7)
O5A_2 O -0.76720(18) -0.12765(13) 0.51022(7)
O6A O 0.16047(18) 0.69064(13) 0.47299(7)
N1A N -0.0961(3) 0.80576(17) 0.39326(10)
H2A H -0.020(4) 0.775(2) 0.3613(13)
H3A H -0.194(3) 0.850(2) 0.3740(12)
H4A H -0.143(3) 0.743(2) 0.4239(11)
C1A C 0.1459(3) 0.80980(18) 0.47389(10)
C2A C 0.0073(3) 0.89108(18) 0.42877(10)
H5A H -0.081(3) 0.9322(19) 0.4588(10)
C3A C 0.1004(3) 0.99978(18) 0.38040(10)
H6A H 0.154(3) 1.054(2) 0.4106(11)
C4A C -0.0282(3) 1.0797(2) 0.33271(11)
H7A H 0.032(3) 1.154(2) 0.3069(11)
H8A H -0.070(3) 1.031(2) 0.2995(12)
H9A H -0.143(3) 1.113(2) 0.3586(12)
P2A P -0.11722(7) 0.49652(5) 0.68383(3)
O7A O -0.07525(18) 0.56253(13) 0.74222(7)
O7A_2 O -0.07525(18) -0.43747(13) 0.74222(7)
O7_2 O 0.07525(18) 1.43747(13) 0.25778(7)
O8A O -0.1210(2) 0.34463(13) 0.70366(8)
H10A H -0.176(4) 0.321(3) 0.7396(15)
O9A O -0.33255(17) 0.54352(13) 0.67267(7)
O9A_2 O -0.33255(17) -0.45648(13) 0.67267(7)
O9_2 O 0.33255(17) 1.45648(13) 0.32733(7)
O10A O 0.00246(18) 0.52275(13) 0.61889(7)
O11A O -0.27375(18) 0.63214(13) 0.49335(7)
O12A O -0.36257(18) 0.78998(13) 0.55479(7)
O12_2 O -0.63743(18) 0.21002(13) 0.44521(7)
O12A_2 O -0.36257(18) -0.21002(13) 0.55479(7)
N2A N -0.6795(2) 0.66489(17) 0.60860(9)
H11A H -0.655(3) 0.690(2) 0.6473(13)
H12A H -0.792(4) 0.621(3) 0.6162(13)
H13A H -0.698(3) 0.742(2) 0.5785(12)
C5A C -0.3743(3) 0.67847(18) 0.53867(10)
C6A C -0.5231(3) 0.58881(18) 0.57677(10)
H14A H -0.572(3) 0.5433(19) 0.5430(10)
C7A C -0.4353(3) 0.48197(18) 0.62676(10)
H15A H -0.346(3) 0.4330(19) 0.5986(10)
C8A C -0.5742(3) 0.3930(2) 0.66915(12)
H16A H -0.511(3) 0.319(2) 0.6938(12)
H17A H -0.660(3) 0.442(2) 0.6984(10)
H18A H -0.648(3) 0.358(2) 0.6408(12)
O19A O 0.3089(2) 1.23608(16) 0.14633(8)
H28A H 0.179(5) 1.235(3) 0.1484(17)
H29A H 0.342(4) 1.158(3) 0.1487(16)
O20A O 0.1854(2) 1.37902(18) -0.02614(9)
H30A H 0.120(4) 1.315(3) -0.0054(15)
H31A H 0.104(5) 1.431(4) -0.0494(18)
O21A O 0.7372(2) 1.32204(17) 0.24638(8)
H32A H 0.834(5) 1.368(3) 0.2498(16)
H33A H 0.772(4) 1.270(3) 0.2240(15)
O22A O -0.6241(2) -0.35585(15) 0.99719(8)
O22_2 O 0.6241(2) 1.35585(15) 0.00281(8)
O22A_2 O 0.3759(2) 1.64415(15) -0.00281(8)
H34A H -0.600(4) -0.298(3) 1.0221(14)
H34_2 H 0.600(4) 1.298(3) -0.0221(14)
H34A_2 H 0.400(4) 1.702(3) 0.0221(14)
H35A H -0.733(4) -0.331(3) 0.9867(13)
H35_2 H 0.733(4) 1.331(3) 0.0133(13)
H35A_2 H 0.267(4) 1.669(3) -0.0133(13)
O23A O 0.4844(3) 1.51587(16) 0.14908(9)
H36A H 0.432(5) 1.591(3) 0.1575(16)
H37A H 0.581(5) 1.538(3) 0.1381(17)
O24A O 0.0288(3) 1.4639(2) 0.11891(10)
H38A H -0.021(4) 1.383(3) 0.1234(15)
H39A H 0.049(4) 1.477(3) 0.1565(17)
P3 P 0.29630(7) 0.85579(5) 0.13089(3)
O13 O 0.41623(18) 0.85106(13) 0.06510(7)
O14 O 0.3452(2) 0.96989(13) 0.16577(7)
H19 H 0.418(5) 0.967(4) 0.209(2)
O15 O 0.09118(18) 0.89258(13) 0.10496(7)
O16 O 0.29307(19) 0.73069(13) 0.17940(7)
O17 O -0.0761(2) 1.19840(14) 0.14410(8)
O18 O -0.0339(2) 1.17703(14) 0.03376(7)
N3 N -0.2433(3) 0.97067(18) 0.04583(9)
H20 H -0.145(3) 0.932(2) 0.0277(12)
H21 H -0.343(3) 0.921(2) 0.0544(12)
H22 H -0.279(4) 1.044(3) 0.0154(14)
C9 C -0.0928(3) 1.14023(19) 0.09443(11)
C10 C -0.1954(3) 1.01387(19) 0.11007(10)
H23 H -0.312(3) 1.028(2) 0.1368(11)
C11 C -0.0745(3) 0.90816(19) 0.15028(10)
H24 H -0.043(3) 0.942(2) 0.1905(11)
C12 C -0.1720(3) 0.7813(2) 0.17022(12)
H25 H -0.093(3) 0.716(2) 0.1945(11)
H26 H -0.210(3) 0.747(2) 0.1284(12)
H27 H -0.285(4) 0.799(2) 0.2032(13)
loop_
_geom_bond_atom_site_label_1
_geom_bond_atom_site_label_2
_geom_bond_site_symmetry_1
_geom_bond_site_symmetry_2
Na1 O6 1_555 1_555
Na2 O4 1_555 1_555
Na3 O2 1_555 1_555
Na4 O19 1_555 1_555
P1 O1 1_555 1_555
O2 P1 1_555 1_555
H1 O2 1_555 1_555
O3 P1 1_555 1_555
O4 P1 1_555 1_555
O5 Na2 1_555 1_555
O6 C1 1_555 1_555
N1 H2 1_555 1_555
H3 N1 1_555 1_555
H4 N1 1_555 1_555
C1 O5 1_555 1_555
C2 N1 1_555 1_555
H5 C2 1_555 1_555
C3 O3 1_555 1_555
H6 C3 1_555 1_555
C4 C3 1_555 1_555
H7 C4 1_555 1_555
H8 C4 1_555 1_555
H9 C4 1_555 1_555
P2 O7 1_555 1_555
O7 Na3A_2 1_555 1_555
O8 P2 1_555 1_555
H10 O8 1_555 1_555
O9 P2 1_555 1_555
O10 Na1 1_555 1_555
O11 Na1 1_555 1_555
O12 C5 1_555 1_555
N2 H11 1_555 1_555
H12 N2 1_555 1_555
H13 N2 1_555 1_555
C5 O11 1_555 1_555
C6 N2 1_555 1_555
H14 C6 1_555 1_555
C7 O9 1_555 1_555
H15 C7 1_555 1_555
C8 C7 1_555 1_555
H16 C8 1_555 1_555
H17 C8 1_555 1_555
H18 C8 1_555 1_555
P3 O13 1_555 1_555
O14 P3 1_555 1_555
H19 O14 1_555 1_555
O15 P3 1_555 1_555
O16 P3 1_555 1_555
O17 C9 1_555 1_555
O18 C9 1_555 1_555
N3 H20 1_555 1_555
H21 N3 1_555 1_555
H22 N3 1_555 1_555
C9 C10 1_555 1_555
C10 N3 1_555 1_555
H23 C10 1_555 1_555
C11 O15 1_555 1_555
H24 C11 1_555 1_555
C12 C11 1_555 1_555
H25 C12 1_555 1_555
H26 C12 1_555 1_555
H27 C12 1_555 1_555
O19 Na3 1_555 1_555
H28 O19 1_555 1_555
H29 O19 1_555 1_555
O20 Na4 1_555 1_555
H30 O20 1_555 1_555
H31 O20 1_555 1_555
O21 Na3 1_555 1_555
H32 O21 1_555 1_555
H33 O21 1_555 1_555
O22 Na4 1_555 1_555
H34 O22 1_555 1_555
H35 O22 1_555 1_555
O23 Na3 1_555 1_555
H36 O23 1_555 1_555
H37 O23 1_555 1_555
O24 Na4 1_555 1_555
H38 O24 1_555 1_555
H39 O24 1_555 1_555
Na2_2 O12 1_555 1_555
Na2_3 O4A 1_555 1_555
Na2_4 O12A 1_555 1_555
Na3A O2A 1_555 1_555
Na3A_2 O9 1_555 1_555
Na3_2 O7A 1_555 1_555
Na4A O19A 1_555 1_555
Na4A_2 O22 1_555 1_555
P1A O1A 1_555 1_555
O2A P1A 1_555 1_555
H1A O2A 1_555 1_555
O3A P1A 1_555 1_555
O4A P1A 1_555 1_555
O4A_2 Na2 1_555 1_555
O5A Na2_3 1_555 1_555
O5A_2 Na2 1_555 1_555
O6A Na1 1_555 1_555
N1A H2A 1_555 1_555
H3A N1A 1_555 1_555
H4A N1A 1_555 1_555
C1A O5A 1_555 1_555
C2A N1A 1_555 1_555
H5A C2A 1_555 1_555
C3A O3A 1_555 1_555
H6A C3A 1_555 1_555
C4A C3A 1_555 1_555
H7A C4A 1_555 1_555
H8A C4A 1_555 1_555
H9A C4A 1_555 1_555
P2A O7A 1_555 1_555
O7A_2 Na3 1_555 1_555
O7_2 Na3A 1_555 1_555
O8A P2A 1_555 1_555
H10A O8A 1_555 1_555
O9A Na3_2 1_555 1_555
O9A_2 Na3 1_555 1_555
O9_2 Na3A 1_555 1_555
O10A Na1 1_555 1_555
O11A Na1 1_555 1_555
O12A C5A 1_555 1_555
O12_2 Na2 1_555 1_555
O12A_2 Na2 1_555 1_555
N2A H11A 1_555 1_555
H12A N2A 1_555 1_555
H13A N2A 1_555 1_555
C5A O11A 1_555 1_555
C6A N2A 1_555 1_555
H14A C6A 1_555 1_555
C7A O9A 1_555 1_555
H15A C7A 1_555 1_555
C8A C7A 1_555 1_555
H16A C8A 1_555 1_555
H17A C8A 1_555 1_555
H18A C8A 1_555 1_555
O19A Na3A 1_555 1_555
H28A O19A 1_555 1_555
H29A O19A 1_555 1_555
O20A Na4A 1_555 1_555
H30A O20A 1_555 1_555
H31A O20A 1_555 1_555
O21A Na3A 1_555 1_555
H32A O21A 1_555 1_555
H33A O21A 1_555 1_555
O22A Na4 1_555 1_555
O22_2 Na4A 1_555 1_555
O22A_2 Na4A 1_555 1_555
H34A O22A 1_555 1_555
H34_2 O22_2 1_555 1_555
H34A_2 O22A_2 1_555 1_555
H35A O22A 1_555 1_555
H35_2 O22_2 1_555 1_555
H35A_2 O22A_2 1_555 1_555
O23A Na3A 1_555 1_555
H36A O23A 1_555 1_555
H37A O23A 1_555 1_555
O24A Na4A 1_555 1_555
H38A O24A 1_555 1_555
H39A O24A 1_555 1_555
Na4 O23 1_555 1_555
C1 C2 1_555 1_555
C2 C3 1_555 1_555
P2 O10 1_555 1_555
C5 C6 1_555 1_555
C6 C7 1_555 1_555
C10 C11 1_555 1_555
Na4A O23A 1_555 1_555
Na4A_2 O22A 1_555 1_555
O6A C1A 1_555 1_555
C1A C2A 1_555 1_555
C2A C3A 1_555 1_555
P2A O9A 1_555 1_555
P2A O10A 1_555 1_555
C5A C6A 1_555 1_555
C6A C7A 1_555 1_555

#END
