
#######################################################################
#
#                 Cambridge Crystallographic Data Centre
#                                CCDC 
#
#######################################################################
#
# If this CIF has been generated from an entry in the Cambridge 
# Structural Database, then it will include bibliographic, chemical, 
# crystal, experimental, refinement or atomic coordinate data resulting 
# from the CCDC's data processing and validation procedures.
#
#######################################################################

data_BOWSOW
_chemical_formula_moiety         '(C10 H16 N2 O14 P4 V2)n'
_symmetry_cell_setting           monoclinic
_symmetry_space_group_name_H-M   'P 21/n'
_symmetry_Int_Tables_number      14
_space_group_name_Hall           '-P 2yn'
loop_
_symmetry_equiv_pos_site_id
_symmetry_equiv_pos_as_xyz
1 x,y,z
2 1/2-x,1/2+y,1/2-z
3 -x,-y,-z
4 1/2+x,1/2-y,1/2+z
_cell_length_a                   6.3541(14)
_cell_length_b                   10.460(2)
_cell_length_c                   14.769(3)
_cell_angle_alpha                90
_cell_angle_beta                 90.412(5)
_cell_angle_gamma                90
_cell_volume                     981.58
loop_
_atom_site_label
_atom_site_type_symbol
_atom_site_fract_x
_atom_site_fract_y
_atom_site_fract_z
V1 V 0.25485(13) 0.10990(8) 0.89048(5)
P1 P 0.1693(2) 0.32589(13) 0.72581(9)
P2 P 0.2339(2) -0.0328(2) 1.08278(11)
O1 O 0.2765(6) 0.2212(4) 0.7783(2)
O2 O 0.2371(6) -0.0400(3) 0.9789(2)
O3 O 0.2886(6) 0.4498(3) 0.7177(2)
O4 O 0.4423(6) -0.0675(4) 1.1257(3)
O5 O 0.0602(6) -0.1101(4) 1.1246(2)
O6 O 0.2769(7) 0.2212(4) 0.9634(3)
O7 O 0.1203(7) 0.2724(4) 0.6282(3)
H1 H 0.117(16) 0.309(9) 0.583(6)
V1A V 0.24515(13) -0.39010(8) 0.60952(5)
V1A_2 V 0.24515(13) 0.60990(8) 0.60952(5)
V1B V 0.74515(13) -0.10990(8) 1.10952(5)
V1B_2 V -0.25485(13) -0.10990(8) 1.10952(5)
V1_2 V 1.25485(13) 0.10990(8) 0.89048(5)
P1A P 0.3307(2) -0.17411(13) 0.77419(9)
P2B P 0.7661(2) 0.0328(2) 0.91722(11)
O1A O 0.2235(6) -0.2788(4) 0.7217(2)
O2B O 0.7629(6) 0.0400(3) 1.0211(2)
O2A O 0.2629(6) -0.5400(3) 0.5211(2)
O3A O 0.2114(6) -0.0502(3) 0.7823(2)
O3_2 O 0.2886(6) -0.5502(3) 0.7177(2)
O4B O 0.5577(6) 0.0675(4) 0.8743(3)
O4C O -0.0577(6) -0.4325(4) 0.6257(3)
O5B O 0.9398(6) 0.1101(4) 0.8754(2)
O5B_2 O -0.0602(6) 0.1101(4) 0.8754(2)
O5C O 0.5602(6) -0.3899(4) 0.6246(2)
O6A O 0.2231(7) -0.2788(4) 0.5366(3)
O7A O 0.3797(7) -0.2276(4) 0.8718(3)
H1A H 0.383(16) -0.191(9) 0.917(6)
N1 N 0.3663(8) 0.4910(5) 1.1767(3)
H2 H 0.460(10) 0.481(6) 1.228(4)
C1 C 0.424(4) 0.558(2) 1.0987(17)
C2 C 0.289(2) 0.5611(14) 1.0268(10)
C3 C 0.0765(10) 0.4983(6) 1.0379(4)
C4 C 0.0620(9) 0.4105(6) 1.1076(4)
H3 H -0.057(10) 0.327(6) 1.101(4)
C5 C 0.2095(10) 0.4100(7) 1.1755(4)
H4 H 0.207(13) 0.362(8) 1.209(5)
N1B N -0.3663(8) 0.5090(5) 0.8233(3)
H2B H -0.460(10) 0.519(6) 0.772(4)
C1B C -0.424(4) 0.442(2) 0.9013(17)
C2B C -0.289(2) 0.4389(14) 0.9732(10)
C3B C -0.0765(10) 0.5017(6) 0.9621(4)
C4B C -0.0620(9) 0.5895(6) 0.8924(4)
H3B H 0.057(10) 0.673(6) 0.899(4)
C5B C -0.2095(10) 0.5900(7) 0.8245(4)
H4B H -0.207(13) 0.638(8) 0.791(5)
loop_
_geom_bond_atom_site_label_1
_geom_bond_atom_site_label_2
_geom_bond_site_symmetry_1
_geom_bond_site_symmetry_2
V1 O1 1_555 1_555
P1 O1 1_555 1_555
P2 O2 1_555 1_555
O2 V1 1_555 1_555
O3 P1 1_555 1_555
O4 P2 1_555 1_555
O5 P2 1_555 1_555
O6 V1 1_555 1_555
O7 P1 1_555 1_555
H1 O7 1_555 1_555
N1 H2 1_555 1_555
C1 N1 1_555 1_555
C2 C1 1_555 1_555
C3 C2 1_555 1_555
C4 C3 1_555 1_555
H3 C4 1_555 1_555
C5 N1 1_555 1_555
H4 C5 1_555 1_555
V1A O1A 1_555 1_555
V1A_2 O3 1_555 1_555
V1B O4 1_555 1_555
V1B_2 O5 1_555 1_555
V1_2 O5B 1_555 1_555
P1A O1A 1_555 1_555
P2B O2B 1_555 1_555
O2B V1B 1_555 1_555
O2A V1A 1_555 1_555
O3A V1 1_555 1_555
O3_2 V1A 1_555 1_555
O4B V1 1_555 1_555
O4C V1A 1_555 1_555
O5B P2B 1_555 1_555
O5B_2 V1 1_555 1_555
O5C V1A 1_555 1_555
O6A V1A 1_555 1_555
O7A P1A 1_555 1_555
H1A O7A 1_555 1_555
N1B H2B 1_555 1_555
C1B N1B 1_555 1_555
C2B C1B 1_555 1_555
C3B C3 1_555 1_555
C4B C3B 1_555 1_555
H3B C4B 1_555 1_555
C5B N1B 1_555 1_555
H4B C5B 1_555 1_555
C4 C5 1_555 1_555
P1A O3A 1_555 1_555
P2B O4B 1_555 1_555
C2B C3B 1_555 1_555
C4B C5B 1_555 1_555

#END
