
#######################################################################
#
#                 Cambridge Crystallographic Data Centre
#                                CCDC 
#
#######################################################################
#
# If this CIF has been generated from an entry in the Cambridge 
# Structural Database, then it will include bibliographic, chemical, 
# crystal, experimental, refinement or atomic coordinate data resulting 
# from the CCDC's data processing and validation procedures.
#
#######################################################################

data_OTEGOL
_chemical_formula_moiety         '(C16 H8 In2 O10)n'
_symmetry_cell_setting           tetragonal
_symmetry_space_group_name_H-M   'I 41 2 2'
_symmetry_Int_Tables_number      98
_space_group_name_Hall           'I 4bw 2bw'
loop_
_symmetry_equiv_pos_site_id
_symmetry_equiv_pos_as_xyz
1 x,y,z
2 1/2-x,1/2-y,1/2+z
3 -y,1/2+x,1/4+z
4 1/2+y,-x,3/4+z
5 1/2-x,y,3/4-z
6 x,1/2-y,1/4-z
7 1/2+y,1/2+x,1/2-z
8 -y,-x,-z
9 1/2+x,1/2+y,1/2+z
10 -x,-y,z
11 1/2-y,x,3/4+z
12 y,1/2-x,1/4+z
13 -x,1/2+y,1/4-z
14 1/2+x,-y,3/4-z
15 y,x,-z
16 1/2-y,1/2-x,1/2-z
_cell_length_a                   15.4886(8)
_cell_length_b                   15.4886(8)
_cell_length_c                   12.3439(13)
_cell_angle_alpha                90
_cell_angle_beta                 90
_cell_angle_gamma                90
_cell_volume                     2961.26
loop_
_atom_site_label
_atom_site_type_symbol
_atom_site_fract_x
_atom_site_fract_y
_atom_site_fract_z
In1 In 0.68711(2) 0.31289(2) 0.0000
O1 O 0.6113(2) 0.3824(2) 0.1149(2)
C1 C 0.5853(3) 0.3629(3) 0.2093(3)
C2 C 0.5362(3) 0.4314(3) 0.3810(4)
H1 H 0.5586 0.3843 0.4183
C3 C 0.5000 0.5000 0.2121(4)
H2 H 0.5000 0.5000 0.1368
C4 C 0.5392(3) 0.4328(3) 0.2688(3)
C5 C 0.5000 0.5000 0.4388(5)
O2 O 0.7547(3) 0.2500 0.1250
H3 H 0.8147 0.2500 0.1250
O3 O 0.5944(2) 0.29198(18) 0.2556(3)
O1G O 0.6176(2) 0.3887(2) 0.8851(2)
C1G C 0.6371(3) 0.4147(3) 0.7907(3)
C2G C 0.5686(3) 0.4638(3) 0.6190(4)
H1G H 0.6157 0.4414 0.5817
C3G C 0.5000 0.5000 0.7879(4)
H2G H 0.5000 0.5000 0.8632
C4G C 0.5672(3) 0.4608(3) 0.7312(3)
C5G C 0.5000 0.5000 0.5612(5)
O3G O 0.70802(18) 0.4056(2) 0.7444(3)
O1I O 0.3887(2) 0.6176(2) 0.1149(2)
C1I C 0.4147(3) 0.6371(3) 0.2093(3)
C2I C 0.4638(3) 0.5686(3) 0.3810(4)
H1I H 0.4414 0.6157 0.4183
C4I C 0.4608(3) 0.5672(3) 0.2688(3)
O3I O 0.4056(2) 0.70802(18) 0.2556(3)
O1N O 0.3824(2) 0.6113(2) 0.8851(2)
C1N C 0.3629(3) 0.5853(3) 0.7907(3)
C2N C 0.4314(3) 0.5362(3) 0.6190(4)
H1N H 0.3843 0.5586 0.5817
C4N C 0.4328(3) 0.5392(3) 0.7312(3)
O3N O 0.29198(18) 0.5944(2) 0.7444(3)
In1C In 0.81289(2) 0.31289(2) 0.7500
O2A O 0.7453(3) 0.2500 0.6250
H3A H 0.6853 0.2500 0.6250
In1_2 In 0.68711(2) 0.31289(2) 1.0000
In1A In 0.81289(2) 0.18711(2) 0.5000
In1B In 0.68711(2) 0.18711(2) 0.2500
In1I In 0.31289(2) 0.68711(2) 0.0000
In1I_2 In 0.31289(2) 0.68711(2) 1.0000
In1J In 0.18711(2) 0.68711(2) 0.7500
In1K In 0.31289(2) 0.81289(2) 0.2500
O1C O 0.8824(2) 0.3887(2) 0.8649(2)
O1D O 0.8887(2) 0.3824(2) 0.6351(2)
O1G_2 O 0.6176(2) 0.3887(2) -0.1149(2)
O2C O 0.7500 0.2453(3) -0.1250
O2C_2 O 0.7500 0.2453(3) 0.8750
O3A O 0.9056(2) 0.20802(18) 0.7556(3)
O3C O 0.79198(18) 0.4056(2) 0.0056(3)
O3E O 0.5944(2) 0.20802(18) -0.0056(3)
loop_
_geom_bond_atom_site_label_1
_geom_bond_atom_site_label_2
_geom_bond_site_symmetry_1
_geom_bond_site_symmetry_2
In1 O1 1_555 1_555
O1 C1 1_555 1_555
C1 C4 1_555 1_555
C2 H1 1_555 1_555
C3 H2 1_555 1_555
C4 C2 1_555 1_555
C5 C2 1_555 1_555
O2 In1 1_555 1_555
H3 O2 1_555 1_555
O3 C1 1_555 1_555
O1G C1G 1_555 1_555
C1G C4G 1_555 1_555
C2G H1G 1_555 1_555
C3G H2G 1_555 1_555
C4G C2G 1_555 1_555
C5G C5 1_555 1_555
O3G C1G 1_555 1_555
O1I C1I 1_555 1_555
C1I C4I 1_555 1_555
C2I C5 1_555 1_555
H1I C2I 1_555 1_555
C4I C3 1_555 1_555
O3I C1I 1_555 1_555
O1N C1N 1_555 1_555
C1N C4N 1_555 1_555
C2N C5G 1_555 1_555
H1N C2N 1_555 1_555
C4N C3G 1_555 1_555
O3N C1N 1_555 1_555
In1C O3G 1_555 1_555
O2A In1C 1_555 1_555
H3A O2A 1_555 1_555
In1_2 O1G 1_555 1_555
In1A O2A 1_555 1_555
In1B O2 1_555 1_555
In1I O1I 1_555 1_555
In1I_2 O1N 1_555 1_555
In1J O3N 1_555 1_555
In1K O3I 1_555 1_555
O1C In1C 1_555 1_555
O1D In1C 1_555 1_555
O1G_2 In1 1_555 1_555
O2C In1 1_555 1_555
O2C_2 In1C 1_555 1_555
O3A In1C 1_555 1_555
O3C In1 1_555 1_555
O3E In1 1_555 1_555
C3 C4 1_555 1_555
O3 In1B 1_555 1_555
C2G C5G 1_555 1_555
C3G C4G 1_555 1_555
C2I C4I 1_555 1_555
C2N C4N 1_555 1_555
In1_2 O2C_2 1_555 1_555

#END
