
#######################################################################
#
#                 Cambridge Crystallographic Data Centre
#                                CCDC 
#
#######################################################################
#
# If this CIF has been generated from an entry in the Cambridge 
# Structural Database, then it will include bibliographic, chemical, 
# crystal, experimental, refinement or atomic coordinate data resulting 
# from the CCDC's data processing and validation procedures.
#
#######################################################################

data_GEFZAU
_chemical_formula_moiety         '(C37 H29 Cl7 Cu1 N1 P2)n'
_symmetry_cell_setting           trigonal
_symmetry_space_group_name_H-M   'P 32 2 1'
_symmetry_Int_Tables_number      154
_space_group_name_Hall           'P 32 2"'
loop_
_symmetry_equiv_pos_site_id
_symmetry_equiv_pos_as_xyz
1 x,y,z
2 -y,x-y,2/3+z
3 -x+y,-x,1/3+z
4 y,x,-z
5 x-y,-y,1/3-z
6 -x,-x+y,2/3-z
_cell_length_a                   18.410(4)
_cell_length_b                   18.410(4)
_cell_length_c                   21.321(2)
_cell_angle_alpha                90
_cell_angle_beta                 90
_cell_angle_gamma                120
_cell_volume                     6258.15
loop_
_atom_site_label
_atom_site_type_symbol
_atom_site_fract_x
_atom_site_fract_y
_atom_site_fract_z
_atom_site_U_iso_or_equiv
_atom_site_thermal_displace_type
C1 C 0.4080(12) 0.0025(11) 0.0649(7) 0.0758 Uani
H1 H 0.3528 -0.0057 0.0645 0.0910 Uiso
C2 C 0.4697(14) 0.0699(13) 0.0987(6) 0.0841 Uani
H2 H 0.4534 0.1042 0.1209 0.1010 Uiso
C3 C 0.5496(13) 0.0899(12) 0.1024(6) 0.0691 Uani
C4 C 0.5720(13) 0.0395(13) 0.0666(6) 0.0908 Uani
H3 H 0.6280 0.0499 0.0654 0.1090 Uiso
C5 C 0.5059(12) -0.0281(11) 0.0323(7) 0.0754 Uani
H4 H 0.5213 -0.0603 0.0065 0.0910 Uiso
C6 C 0.6153(13) 0.1594(12) 0.1377(7) 0.0698 Uani
C7 C 0.5939(12) 0.1812(11) 0.1948(6) 0.0737 Uani
H5 H 0.5378 0.1497 0.2096 0.0890 Uiso
C8 C 0.6521(11) 0.2472(11) 0.2302(6) 0.0710 Uani
C9 C 0.7359(13) 0.2929(12) 0.2081(6) 0.0888 Uani
H6 H 0.7773 0.3357 0.2339 0.1060 Uiso
C10 C 0.7592(11) 0.2774(11) 0.1508(6) 0.0674 Uani
C11 C 0.6969(14) 0.2054(12) 0.1167(6) 0.0828 Uani
H7 H 0.7124 0.1894 0.0789 0.1000 Uiso
C12 C 0.6313(10) 0.3687(7) 0.2954(5) 0.1063 Uani
C13 C 0.5615(7) 0.3732(8) 0.2764(5) 0.1070 Uani
H8 H 0.5085 0.3235 0.2727 0.1290 Uiso
C14 C 0.5691(8) 0.4506(10) 0.2628(5) 0.1084 Uani
H9 H 0.5213 0.4537 0.2498 0.1300 Uiso
C15 C 0.6465(10) 0.5234(7) 0.2682(5) 0.1100 Uani
H10 H 0.6517 0.5763 0.2590 0.1320 Uiso
C16 C 0.7163(7) 0.5189(8) 0.2873(5) 0.1106 Uani
H11 H 0.7693 0.5687 0.2910 0.1330 Uiso
C17 C 0.7088(8) 0.4416(10) 0.3009(5) 0.1096 Uani
H12 H 0.7565 0.4385 0.3139 0.1320 Uiso
C18 C 0.7058(14) 0.2795(12) 0.3576(7) 0.0918 Uani
C19 C 0.7236(14) 0.3324(13) 0.4130(6) 0.1210 Uani
H13 H 0.6960 0.3635 0.4204 0.1460 Uiso
C20 C 0.7827(17) 0.3347(18) 0.4543(10) 0.1253 Uani
H14 H 0.7952 0.3678 0.4911 0.1480 Uiso
C21 C 0.8205(16) 0.2947(17) 0.4450(9) 0.1218 Uani
H15 H 0.8572 0.2960 0.4768 0.1480 Uiso
C22 C 0.8120(14) 0.2481(15) 0.3904(7) 0.1224 Uani
H16 H 0.8471 0.2251 0.3822 0.1460 Uiso
C23 C 0.7476(14) 0.2375(14) 0.3481(8) 0.0972 Uani
H17 H 0.7341 0.2009 0.3132 0.1160 Uiso
Cl1 Cl 0.3787(5) 0.1621(5) 0.2941(3) 0.1556 Uani
Cu1 Cu 0.4926(2) 0.1561(2) 0.34181(9) 0.1033 Uani
N1 N 0.4229(9) -0.0511(9) 0.0329(6) 0.0767 Uani
P1 P 0.6197(4) 0.2653(4) 0.30675(16) 0.0924 Uani
C26 C 0.9116(17) 0.2741(16) 0.1394(11) 0.1298 Uani
C27 C 0.9048(16) 0.2434(15) 0.2044(11) 0.1334 Uani
H20 H 0.8695 0.2507 0.2332 0.1600 Uiso
C28 C 0.9464(16) 0.2062(15) 0.2236(12) 0.1361 Uani
H21 H 0.9388 0.1855 0.2654 0.1630 Uiso
C29 C 1.0028(17) 0.1965(16) 0.1827(10) 0.1380 Uani
H22 H 1.0338 0.1708 0.1964 0.1650 Uiso
C30 C 1.0097(16) 0.2271(15) 0.1215(11) 0.1351 Uani
H23 H 1.0444 0.2185 0.0930 0.1620 Uiso
C31 C 0.9714(16) 0.2672(15) 0.1002(12) 0.1329 Uani
H24 H 0.9834 0.2911 0.0594 0.1600 Uiso
C32 C 0.9126(9) 0.4264(7) 0.1585(6) 0.1104 Uani
C33 C 0.9696(9) 0.4437(8) 0.2068(6) 0.1132 Uani
H25 H 0.9862 0.4040 0.2176 0.1360 Uiso
C34 C 1.0023(7) 0.5189(9) 0.2395(5) 0.1154 Uani
H26 H 1.0412 0.5307 0.2726 0.1380 Uiso
C35 C 0.9779(8) 0.5769(7) 0.2238(6) 0.1159 Uani
H27 H 1.0002 0.6283 0.2461 0.1400 Uiso
C36 C 0.9210(9) 0.5597(8) 0.1754(7) 0.1142 Uani
H28 H 0.9043 0.5994 0.1647 0.1380 Uiso
C37 C 0.8883(8) 0.4845(10) 0.1428(5) 0.1120 Uani
H29 H 0.8494 0.4727 0.1097 0.1340 Uiso
P2 P 0.8610(4) 0.3312(4) 0.11349(17) 0.1027 Uani
Cu1D Cu 0.3365(3) -0.1561(2) -0.00848(9) 0.1033 Uani
Cu1A Cu 0.8439(2) 0.3365(3) 0.00848(9) 0.1033 Uani
N1D N 0.4740(13) 0.0511(9) 0.3004(6) 0.0767 Uani
P2B P 0.4702(6) 0.1390(4) 0.44682(17) 0.1027 Uani
C24 C 0.2915(10) 0.1515(10) 0.1366(11) 0.3783 Uani
H18 H 0.3000 0.1363 0.1800 0.4540 Uiso
Cl2 Cl 0.3878(8) 0.2219(9) 0.1129(7) 0.3714 Uani
Cl3 Cl 0.2479(9) 0.0610(7) 0.0979(7) 0.3852 Uani
Cl4 Cl 0.2274(9) 0.1903(9) 0.1465(7) 0.3791 Uani
C25 C 0.2259(11) 0.1994(9) 0.3504(7) 0.2977 Uani
H19 H 0.2648 0.1796 0.3361 0.3570 Uiso
Cl5 Cl 0.2553(7) 0.2866(7) 0.3095(5) 0.3017 Uani
Cl6 Cl 0.1306(7) 0.1209(7) 0.3316(5) 0.3061 Uani
Cl7 Cl 0.2449(7) 0.2163(7) 0.4278(4) 0.2893 Uani
loop_
_atom_site_aniso_label
_atom_site_aniso_U_11
_atom_site_aniso_U_22
_atom_site_aniso_U_33
_atom_site_aniso_U_23
_atom_site_aniso_U_13
_atom_site_aniso_U_12
C1 0.080(6) 0.076(6) 0.070(6) 0.002(4) 0.003(4) 0.038(5)
C2 0.117(19) 0.109(17) 0.035(8) -0.002(9) -0.004(10) 0.063(16)
C3 0.085(15) 0.083(14) 0.034(8) 0.002(8) 0.014(9) 0.038(13)
C4 0.107(17) 0.131(19) 0.043(8) 0.018(10) 0.020(10) 0.066(16)
C5 0.080(5) 0.078(5) 0.065(4) -0.004(4) 0.003(4) 0.037(4)
C6 0.093(16) 0.094(15) 0.040(8) -0.003(9) -0.021(10) 0.060(13)
C7 0.111(16) 0.092(14) 0.025(7) 0.001(8) 0.000(8) 0.056(13)
C8 0.088(14) 0.070(13) 0.033(7) 0.013(8) -0.001(9) 0.023(11)
C9 0.129(18) 0.094(16) 0.029(7) 0.006(8) -0.006(9) 0.045(14)
C10 0.108(14) 0.072(13) 0.033(7) 0.010(8) -0.001(8) 0.053(12)
C11 0.117(18) 0.089(15) 0.023(7) -0.010(8) 0.002(9) 0.037(14)
C12 0.111(4) 0.109(4) 0.095(4) -0.003(3) 0.007(3) 0.052(3)
C13 0.114(4) 0.108(4) 0.097(4) -0.004(3) 0.008(3) 0.054(3)
C14 0.115(4) 0.109(4) 0.100(4) -0.004(3) 0.007(3) 0.055(3)
C15 0.115(4) 0.110(4) 0.102(4) -0.007(3) 0.009(3) 0.054(3)
C16 0.117(4) 0.110(4) 0.101(4) -0.005(3) 0.006(3) 0.054(3)
C17 0.116(4) 0.109(4) 0.098(4) -0.003(3) 0.005(3) 0.052(3)
C18 0.14(2) 0.089(16) 0.038(8) 0.004(8) -0.011(10) 0.051(15)
C19 0.16(2) 0.123(18) 0.027(7) -0.012(10) -0.018(11) 0.031(17)
C20 0.12(2) 0.18(3) 0.056(12) -0.033(14) -0.028(13) 0.06(2)
C21 0.10(2) 0.17(3) 0.044(10) -0.013(12) -0.007(12) 0.029(18)
C22 0.14(2) 0.17(2) 0.050(10) -0.010(12) -0.026(12) 0.072(18)
C23 0.13(2) 0.108(19) 0.057(11) 0.005(11) -0.016(12) 0.062(16)
Cl1 0.226(8) 0.194(8) 0.104(4) 0.001(4) -0.021(5) 0.148(7)
Cu1 0.152(3) 0.141(3) 0.0366(10) -0.0127(15) -0.0064(14) 0.088(3)
N1 0.081(5) 0.079(5) 0.066(4) -0.003(3) 0.002(4) 0.037(4)
P1 0.134(5) 0.120(5) 0.0265(16) -0.005(2) 0.004(2) 0.066(4)
C26 0.129(5) 0.132(5) 0.128(5) 0.000(3) 0.001(3) 0.065(3)
C27 0.132(5) 0.135(5) 0.131(5) 0.004(3) 0.001(3) 0.065(3)
C28 0.135(5) 0.137(5) 0.135(5) 0.004(3) 0.001(3) 0.067(3)
C29 0.136(5) 0.139(5) 0.138(5) 0.003(3) 0.001(3) 0.068(3)
C30 0.134(5) 0.137(5) 0.136(5) 0.001(3) 0.002(3) 0.069(3)
C31 0.133(5) 0.134(5) 0.132(5) 0.000(3) 0.002(3) 0.067(3)
C32 0.110(5) 0.114(4) 0.106(4) -0.002(3) 0.001(3) 0.055(3)
C33 0.112(4) 0.116(4) 0.109(4) -0.004(3) -0.001(3) 0.055(3)
C34 0.114(4) 0.116(4) 0.113(4) -0.005(3) -0.001(3) 0.055(3)
C35 0.116(5) 0.115(4) 0.113(4) -0.004(3) -0.001(3) 0.055(3)
C36 0.115(4) 0.114(4) 0.112(4) -0.002(3) 0.000(3) 0.056(3)
C37 0.113(4) 0.113(4) 0.108(4) -0.002(3) 0.001(3) 0.055(3)
P2 0.118(5) 0.120(5) 0.048(2) 0.008(3) 0.004(3) 0.043(4)
Cu1D 0.117 0.141 0.0366 -0.0127 -0.0063 0.053
Cu1A 0.141 0.117 0.0366 0.0063 0.0127 0.053
N1D 0.086 0.079 0.066 -0.003 -0.005 0.042
P2B 0.152 0.118 0.048 -0.004 0.004 0.075
C24 0.379(6) 0.378(7) 0.383(7) -0.006(4) 0.003(4) 0.193(4)
Cl2 0.378(6) 0.372(7) 0.377(7) 0.000(4) 0.002(4) 0.197(4)
Cl3 0.385(7) 0.381(7) 0.393(7) -0.015(4) 0.010(4) 0.194(4)
Cl4 0.380(7) 0.380(7) 0.384(7) -0.009(4) 0.005(4) 0.195(5)
C25 0.298(6) 0.299(5) 0.293(5) -0.001(4) -0.006(4) 0.147(4)
Cl5 0.305(6) 0.302(5) 0.301(5) 0.000(4) -0.026(4) 0.154(4)
Cl6 0.302(6) 0.304(5) 0.309(6) -0.019(4) -0.004(4) 0.149(4)
Cl7 0.288(6) 0.295(6) 0.284(5) -0.008(4) 0.008(4) 0.145(4)
loop_
_geom_bond_atom_site_label_1
_geom_bond_atom_site_label_2
_geom_bond_site_symmetry_1
_geom_bond_site_symmetry_2
C1 H1 1_555 1_555
C2 C1 1_555 1_555
H2 C2 1_555 1_555
C3 C2 1_555 1_555
C4 C3 1_555 1_555
H3 C4 1_555 1_555
C5 C4 1_555 1_555
H4 C5 1_555 1_555
C6 C3 1_555 1_555
C7 C6 1_555 1_555
H5 C7 1_555 1_555
C8 C7 1_555 1_555
C9 C8 1_555 1_555
H6 C9 1_555 1_555
C10 C9 1_555 1_555
C11 C6 1_555 1_555
H7 C11 1_555 1_555
C12 C13 1_555 1_555
C13 H8 1_555 1_555
C14 C13 1_555 1_555
H9 C14 1_555 1_555
C15 C14 1_555 1_555
H10 C15 1_555 1_555
C16 C15 1_555 1_555
H11 C16 1_555 1_555
C17 C12 1_555 1_555
H12 C17 1_555 1_555
C18 C19 1_555 1_555
C19 H13 1_555 1_555
C20 C19 1_555 1_555
H14 C20 1_555 1_555
C21 C20 1_555 1_555
H15 C21 1_555 1_555
C22 C21 1_555 1_555
H16 C22 1_555 1_555
C23 C18 1_555 1_555
H17 C23 1_555 1_555
C24 H18 1_555 1_555
C25 H19 1_555 1_555
Cl1 Cu1 1_555 1_555
Cl2 C24 1_555 1_555
Cl3 C24 1_555 1_555
Cl4 C24 1_555 1_555
Cl5 C25 1_555 1_555
Cl6 C25 1_555 1_555
Cl7 C25 1_555 1_555
Cu1 P1 1_555 1_555
N1 C1 1_555 1_555
P1 C8 1_555 1_555
C26 C27 1_555 1_555
C27 H20 1_555 1_555
C28 C27 1_555 1_555
H21 C28 1_555 1_555
C29 C28 1_555 1_555
H22 C29 1_555 1_555
C30 C29 1_555 1_555
H23 C30 1_555 1_555
C31 C26 1_555 1_555
H24 C31 1_555 1_555
C32 C33 1_555 1_555
C33 H25 1_555 1_555
C34 C33 1_555 1_555
H26 C34 1_555 1_555
C35 C34 1_555 1_555
H27 C35 1_555 1_555
C36 C35 1_555 1_555
H28 C36 1_555 1_555
C37 C32 1_555 1_555
H29 C37 1_555 1_555
P2 C10 1_555 1_555
Cu1D N1 1_555 1_555
Cu1A P2 1_555 1_555
N1D Cu1 1_555 1_555
P2B Cu1 1_555 1_555
C5 N1 1_555 1_555
C10 C11 1_555 1_555
C12 P1 1_555 1_555
C16 C17 1_555 1_555
C18 P1 1_555 1_555
C22 C23 1_555 1_555
C26 P2 1_555 1_555
C30 C31 1_555 1_555
C32 P2 1_555 1_555
C36 C37 1_555 1_555

#END
