
#######################################################################
#
#                 Cambridge Crystallographic Data Centre
#                                CCDC 
#
#######################################################################
#
# If this CIF has been generated from an entry in the Cambridge 
# Structural Database, then it will include bibliographic, chemical, 
# crystal, experimental, refinement or atomic coordinate data resulting 
# from the CCDC's data processing and validation procedures.
#
#######################################################################

data_BARZUR
_chemical_formula_moiety         '(C22 H20 F6 N12 O6 S2 Zn1)n'
_symmetry_cell_setting           trigonal
_symmetry_space_group_name_H-M   'P 31 2 1'
_symmetry_Int_Tables_number      152
_space_group_name_Hall           'P 31 2"'
loop_
_symmetry_equiv_pos_site_id
_symmetry_equiv_pos_as_xyz
1 x,y,z
2 -y,x-y,1/3+z
3 -x+y,-x,2/3+z
4 y,x,-z
5 x-y,-y,2/3-z
6 -x,-x+y,1/3-z
_cell_length_a                   15.729(2)
_cell_length_b                   15.729(2)
_cell_length_c                   12.403(3)
_cell_angle_alpha                90
_cell_angle_beta                 90
_cell_angle_gamma                120
_cell_volume                     2657.42
loop_
_atom_site_label
_atom_site_type_symbol
_atom_site_fract_x
_atom_site_fract_y
_atom_site_fract_z
_atom_site_U_iso_or_equiv
_atom_site_thermal_displace_type
Zn1 Zn 0.0000 0.57877(3) 0.1667 0.0178 Uani
N1 N 0.1095(2) 0.3564(2) 0.0107(2) 0.0198 Uani
C1 C 0.1646(3) 0.4289(3) 0.0792(3) 0.0203 Uani
C2 C 0.1407(3) 0.4995(3) 0.1101(3) 0.0217 Uani
H1 H 0.1823 0.5498 0.1563 0.0260 Uiso
N2 N 0.0594(2) 0.4963(2) 0.0745(2) 0.0221 Uani
C3 C 0.0030(3) 0.4227(3) 0.0052(3) 0.0232 Uani
H2 H -0.0535 0.4190 -0.0233 0.0280 Uiso
C4 C 0.0280(3) 0.3531(3) -0.0238(3) 0.0224 Uani
N3 N -0.0368(2) 0.2735(2) -0.0898(3) 0.0269 Uani
C5 C -0.0034(4) 0.2454(5) -0.1846(5) 0.0829 Uani
H3 H -0.0586 0.1925 -0.2205 0.1240 Uiso
H4 H 0.0420 0.2244 -0.1638 0.1240 Uiso
H5 H 0.0285 0.3005 -0.2326 0.1240 Uiso
N4 N -0.1453(2) 0.2277(2) 0.0536(2) 0.0221 Uani
C6 C -0.1310(3) 0.2143(3) -0.0501(3) 0.0230 Uani
C7 C -0.2069(3) 0.1415(3) -0.1130(3) 0.0230 Uani
H6 H -0.1953 0.1320 -0.1843 0.0280 Uiso
N5 N -0.2962(2) 0.0855(2) -0.0692(2) 0.0227 Uani
C8 C -0.3104(3) 0.0977(3) 0.0341(3) 0.0208 Uani
H7 H -0.3715 0.0579 0.0656 0.0250 Uiso
C9 C -0.2336(3) 0.1705(3) 0.0959(3) 0.0208 Uani
N6 N -0.2452(2) 0.1846(2) 0.2040(2) 0.0236 Uani
C10 C -0.3146(18) 0.104(2) 0.273(3) 0.0429 Uani
H8 H -0.2848 0.0670 0.2980 0.0650 Uiso
H9 H -0.3728 0.0616 0.2328 0.0650 Uiso
H10 H -0.3316 0.1302 0.3340 0.0650 Uiso
S1 S -0.15873(8) 0.53208(8) -0.04445(8) 0.0292 Uani
O1 O -0.1180(2) 0.5123(3) -0.1372(2) 0.0413 Uani
O2 O -0.12394(19) 0.5148(2) 0.0577(2) 0.0253 Uani
O3 O -0.1615(4) 0.6212(4) -0.0470(3) 0.0768 Uani
C11 C -0.2856(4) 0.4340(8) -0.0458(5) 0.0899 Uani
F1 F -0.3325(3) 0.4432(6) 0.0363(4) 0.1561 Uani
F2 F -0.3289(3) 0.4373(5) -0.1348(4) 0.1406 Uani
F3 F -0.2909(5) 0.3494(4) -0.0368(5) 0.1486 Uani
Zn1A Zn 0.42123(3) 0.42123(3) 0.5000 0.0178 Uani
Zn1B Zn -0.42123(3) 0.0000 -0.1666 0.0178 Uani
N1E N -0.1095(2) 0.2469(3) 0.3226(2) 0.0198 Uani
C1E C -0.1646(3) 0.2643(4) 0.2541(3) 0.0203 Uani
C2E C -0.1407(3) 0.3588(4) 0.2232(3) 0.0217 Uani
H1E H -0.1823 0.3675 0.1770 0.0260 Uiso
N2E N -0.0594(2) 0.4369(3) 0.2588(2) 0.0221 Uani
C3E C -0.0030(3) 0.4197(4) 0.3281(3) 0.0232 Uani
H2E H 0.0535 0.4725 0.3566 0.0280 Uiso
C4E C -0.0280(3) 0.3251(4) 0.3571(3) 0.0224 Uani
N3E N 0.0368(2) 0.3103(3) 0.4231(3) 0.0269 Uani
C5E C 0.0034(4) 0.2488(6) 0.5179(5) 0.0829 Uani
H3E H 0.0586 0.2511 0.5538 0.1240 Uiso
H4E H -0.0420 0.1824 0.4971 0.1240 Uiso
H5E H -0.0285 0.2720 0.5659 0.1240 Uiso
N4E N 0.1453(2) 0.3730(3) 0.2797(2) 0.0221 Uani
C6E C 0.1310(3) 0.3453(4) 0.3834(3) 0.0230 Uani
C7E C 0.2069(3) 0.3484(4) 0.4463(3) 0.0230 Uani
H6E H 0.1953 0.3273 0.5176 0.0280 Uiso
N5E N 0.2962(2) 0.3817(3) 0.4025(2) 0.0227 Uani
N5A N -0.0855(2) 0.6183(3) 0.2641(2) 0.0227 Uani
N5C N 0.0855(2) 0.7038(2) 0.0692(2) 0.0227 Uani
C8E C 0.3104(3) 0.4081(4) 0.2992(3) 0.0208 Uani
H7E H 0.3715 0.4294 0.2677 0.0250 Uiso
C9E C 0.2336(3) 0.4041(4) 0.2374(3) 0.0208 Uani
N6E N 0.2452(2) 0.4298(3) 0.1293(2) 0.0236 Uani
C10E C 0.3146(18) 0.4186(27) 0.060(3) 0.0429 Uani
H8E H 0.2848 0.3518 0.0353 0.0650 Uiso
H9E H 0.3728 0.4344 0.1005 0.0650 Uiso
H10E H 0.3316 0.4618 -0.0007 0.0650 Uiso
S1E S 0.15873(8) 0.69081(11) 0.37778(8) 0.0292 Uani
O1E O 0.1180(2) 0.6303(4) 0.4705(2) 0.0413 Uani
O2E O 0.12394(19) 0.63874(28) 0.2756(2) 0.0253 Uani
O3E O 0.1615(4) 0.7827(6) 0.3803(3) 0.0768 Uani
C11E C 0.2856(4) 0.7196(9) 0.3791(5) 0.0899 Uani
F1E F 0.3325(3) 0.7757(7) 0.2970(4) 0.1561 Uani
F2E F 0.3289(3) 0.7662(6) 0.4681(4) 0.1406 Uani
F3E F 0.2909(5) 0.6403(6) 0.3701(5) 0.1486 Uani
loop_
_atom_site_aniso_label
_atom_site_aniso_U_11
_atom_site_aniso_U_22
_atom_site_aniso_U_33
_atom_site_aniso_U_23
_atom_site_aniso_U_13
_atom_site_aniso_U_12
Zn1 0.0181(3) 0.0180(2) 0.0174(2) 0.00144(11) 0.0029(2) 0.00903(14)
N1 0.0207(14) 0.0234(15) 0.0159(14) 0.0042(12) 0.0024(11) 0.0114(13)
C1 0.0145(16) 0.032(2) 0.0124(14) 0.0036(14) 0.0020(13) 0.0102(14)
C2 0.0226(17) 0.0202(17) 0.0174(16) 0.0020(14) -0.0002(14) 0.0071(14)
N2 0.0243(17) 0.0207(16) 0.0224(14) 0.0025(12) 0.0000(13) 0.0121(14)
C3 0.0177(17) 0.0256(19) 0.0233(18) -0.0012(15) -0.0048(14) 0.0086(15)
C4 0.0184(17) 0.0258(19) 0.0172(16) 0.0055(14) 0.0043(14) 0.0068(15)
N3 0.0230(16) 0.0293(17) 0.0218(15) -0.0066(13) 0.0025(13) 0.0082(14)
C5 0.029(3) 0.091(5) 0.074(4) -0.057(4) 0.028(3) -0.011(3)
N4 0.0220(15) 0.0210(15) 0.0173(14) -0.0024(12) 0.0012(12) 0.0062(13)
C6 0.0230(18) 0.0266(19) 0.0176(17) -0.0028(14) 0.0011(14) 0.0111(15)
C7 0.0154(17) 0.0280(18) 0.0228(17) -0.0027(15) 0.0018(14) 0.0087(15)
N5 0.0195(15) 0.0258(16) 0.0213(15) -0.0051(12) -0.0054(12) 0.0103(12)
C8 0.0200(17) 0.0229(17) 0.0189(16) 0.0023(14) 0.0010(14) 0.0102(14)
C9 0.0172(16) 0.0226(18) 0.0215(17) -0.0020(14) 0.0029(14) 0.0091(14)
N6 0.0220(15) 0.0192(15) 0.0173(14) 0.0004(12) 0.0019(12) 0.0010(13)
C10 0.049(7) 0.030(3) 0.018(7) 0.000(3) 0.004(7) -0.004(4)
S1 0.0297(5) 0.0366(5) 0.0251(4) 0.0028(4) -0.0044(4) 0.0194(4)
O1 0.0386(17) 0.057(2) 0.0235(14) -0.0019(14) -0.0028(13) 0.0204(17)
O2 0.0238(13) 0.0333(15) 0.0238(13) 0.0014(12) 0.0011(10) 0.0181(13)
O3 0.145(4) 0.089(3) 0.049(2) -0.003(2) -0.019(3) 0.098(4)
C11 0.027(3) 0.148(8) 0.047(3) 0.015(5) -0.009(2) 0.008(4)
F1 0.038(2) 0.314(9) 0.067(3) 0.018(4) 0.015(2) 0.051(4)
F2 0.038(2) 0.247(7) 0.071(3) 0.018(4) -0.0288(19) 0.022(3)
F3 0.134(5) 0.083(4) 0.095(4) 0.020(3) -0.030(3) -0.046(3)
Zn1A 0.018 0.01804 0.0174 0.00146 -0.00144 0.00897
Zn1B 0.01804 0.0181 0.0174 -0.0029 -0.00146 0.00907
N1E 0.0207 0.0213 0.0159 -0.0018 0.0024 0.0093
C1E 0.0145 0.0261 0.0124 -0.0016 0.002 0.0043
C2E 0.0226 0.0286 0.0174 -0.0022 -0.0002 0.0155
N2E 0.0243 0.0208 0.0224 -0.0025 0 0.0122
C3E 0.0177 0.0261 0.0233 -0.0036 -0.0048 0.0091
C4E 0.0184 0.0306 0.0172 -0.0012 0.0043 0.0116
N3E 0.023 0.0359 0.0218 0.0091 0.0025 0.0148
C5E 0.029 0.142 0.074 0.085 0.028 0.04
N4E 0.022 0.0306 0.0173 0.0036 0.0012 0.0158
C6E 0.023 0.0274 0.0176 0.0039 0.0011 0.0119
C7E 0.0154 0.026 0.0228 0.0045 0.0018 0.0067
N5E 0.0195 0.0247 0.0213 -0.0003 -0.0054 0.0092
N5A 0.0258 0.0247 0.0213 -0.0003 0.0051 0.0155
N5C 0.0258 0.0195 0.0213 0.0054 0.0051 0.0103
C8E 0.02 0.0225 0.0189 -0.0013 0.001 0.0098
C9E 0.0172 0.0216 0.0215 0.0049 0.0029 0.0081
N6E 0.022 0.0392 0.0173 0.0015 0.0019 0.021
C10E 0.049 0.087 0.018 0.004 0.004 0.053
S1E 0.0297 0.0275 0.0251 -0.0072 -0.0044 0.0103
O1E 0.0386 0.0548 0.0235 -0.0009 -0.0028 0.0182
O2E 0.0238 0.0209 0.0238 -0.0003 0.0011 0.0057
O3E 0.145 0.038 0.049 -0.016 -0.019 0.047
C11E 0.027 0.159 0.047 -0.024 -0.009 0.019
F1E 0.038 0.25 0.067 -0.003 0.015 -0.013
F2E 0.038 0.241 0.071 -0.0468 -0.0288 0.016
F3E 0.134 0.309 0.095 -0.05 -0.03 0.18
loop_
_geom_bond_atom_site_label_1
_geom_bond_atom_site_label_2
_geom_bond_site_symmetry_1
_geom_bond_site_symmetry_2
Zn1 N2 1_555 1_555
N1 C1 1_555 1_555
C1 C2 1_555 1_555
C2 H1 1_555 1_555
N2 C2 1_555 1_555
C3 N2 1_555 1_555
H2 C3 1_555 1_555
C4 N1 1_555 1_555
N3 C4 1_555 1_555
C5 N3 1_555 1_555
H3 C5 1_555 1_555
H4 C5 1_555 1_555
H5 C5 1_555 1_555
N4 C6 1_555 1_555
C6 N3 1_555 1_555
C7 C6 1_555 1_555
H6 C7 1_555 1_555
N5 C7 1_555 1_555
C8 N5 1_555 1_555
H7 C8 1_555 1_555
C9 N4 1_555 1_555
N6 C9 1_555 1_555
C10 N6 1_555 1_555
H8 C10 1_555 1_555
H9 C10 1_555 1_555
H10 C10 1_555 1_555
S1 O1 1_555 1_555
O2 Zn1 1_555 1_555
O3 S1 1_555 1_555
C11 S1 1_555 1_555
F1 C11 1_555 1_555
F2 C11 1_555 1_555
F3 C11 1_555 1_555
Zn1A N5E 1_555 1_555
Zn1B N5 1_555 1_555
N1E C1E 1_555 1_555
C1E N6 1_555 1_555
C2E C1E 1_555 1_555
H1E C2E 1_555 1_555
N2E Zn1 1_555 1_555
C3E N2E 1_555 1_555
H2E C3E 1_555 1_555
C4E N1E 1_555 1_555
N3E C4E 1_555 1_555
C5E N3E 1_555 1_555
H3E C5E 1_555 1_555
H4E C5E 1_555 1_555
H5E C5E 1_555 1_555
N4E C6E 1_555 1_555
C6E N3E 1_555 1_555
C7E C6E 1_555 1_555
H6E C7E 1_555 1_555
N5E C7E 1_555 1_555
N5A Zn1 1_555 1_555
N5C Zn1 1_555 1_555
C8E N5E 1_555 1_555
H7E C8E 1_555 1_555
C9E N4E 1_555 1_555
N6E C1 1_555 1_555
C10E N6E 1_555 1_555
H8E C10E 1_555 1_555
H9E C10E 1_555 1_555
H10E C10E 1_555 1_555
S1E O1E 1_555 1_555
O2E Zn1 1_555 1_555
O3E S1E 1_555 1_555
C11E S1E 1_555 1_555
F1E C11E 1_555 1_555
F2E C11E 1_555 1_555
F3E C11E 1_555 1_555
C3 C4 1_555 1_555
C8 C9 1_555 1_555
S1 O2 1_555 1_555
C2E N2E 1_555 1_555
C3E C4E 1_555 1_555
C8E C9E 1_555 1_555
C9E N6E 1_555 1_555
S1E O2E 1_555 1_555

#END
