
#######################################################################
#
#                 Cambridge Crystallographic Data Centre
#                                CCDC 
#
#######################################################################
#
# If this CIF has been generated from an entry in the Cambridge 
# Structural Database, then it will include bibliographic, chemical, 
# crystal, experimental, refinement or atomic coordinate data resulting 
# from the CCDC's data processing and validation procedures.
#
#######################################################################

data_MISQIQ04
_chemical_formula_moiety         '(H2 Al2 F2 N1 O6 P1 1-)n'
_symmetry_cell_setting           trigonal
_symmetry_space_group_name_H-M   'P 31 2 1'
_symmetry_Int_Tables_number      152
_space_group_name_Hall           'P 31 2"'
loop_
_symmetry_equiv_pos_site_id
_symmetry_equiv_pos_as_xyz
1 x,y,z
2 -y,x-y,1/3+z
3 -x+y,-x,2/3+z
4 y,x,-z
5 x-y,-y,2/3-z
6 -x,-x+y,1/3-z
_cell_length_a                   9.3425(2)
_cell_length_b                   9.3425(2)
_cell_length_c                   6.9940(3)
_cell_angle_alpha                90
_cell_angle_beta                 90
_cell_angle_gamma                120
_cell_volume                     528.667
loop_
_atom_site_label
_atom_site_type_symbol
_atom_site_fract_x
_atom_site_fract_y
_atom_site_fract_z
N1 N -0.0000 0.897(2) 0.1667
Al1 Al 0.16218(7) 0.52118(8) 0.05622(9)
P1 P 0.44940(8) 0.44940(8) 0.0000
F1 F -0.0000 0.3179(2) 0.1667
F2 F -0.0000 0.5683(2) 0.1667
O1 O 0.3014(2) 0.73033(18) -0.0397(2)
H1 H 0.3577 0.8206 0.0512
O2 O 0.2784(2) 0.4270(2) -0.0405(2)
O3 O 0.53314(19) 0.56580(27) 0.1696(2)
O2C O 0.4270(2) 0.2784(2) 0.0405(2)
O3C O 0.56580(27) 0.53314(19) -0.1696(2)
Al1C Al 0.52118(8) 0.16218(7) -0.05622(9)
O1C O 0.73033(18) 0.3014(2) 0.0397(2)
H1C H 0.8206 0.3577 -0.0512
Al1A Al 0.47882(8) 0.64100(11) 0.38955(9)
Al1B Al 0.35900(11) 0.83782(7) -0.27711(9)
Al1D Al 0.64100(11) 0.47882(8) -0.38955(9)
Al1E Al -0.16218(7) 0.35900(11) 0.27711(9)
Al1E_2 Al 0.83782(7) 0.35900(11) 0.27711(9)
F1B F 0.3179(2) -0.0000 -0.1666
F2B F 0.5683(2) -0.0000 -0.1666
O1A O 0.26967(18) 0.57107(27) 0.2936(2)
O1D O 0.57107(27) 0.26967(18) -0.2936(2)
O3B O 0.03266(33) 0.46686(19) -0.1637(2)
O3E O 0.46686(19) 0.03266(33) 0.1637(2)
loop_
_geom_bond_atom_site_label_1
_geom_bond_atom_site_label_2
_geom_bond_site_symmetry_1
_geom_bond_site_symmetry_2
Al1 F1 1_555 1_555
P1 O2 1_555 1_555
F1 Al1E 1_555 1_555
F2 Al1 1_555 1_555
O1 Al1 1_555 1_555
H1 O1 1_555 1_555
O2 Al1 1_555 1_555
O3 P1 1_555 1_555
O2C P1 1_555 1_555
O3C P1 1_555 1_555
Al1C O2C 1_555 1_555
O1C Al1C 1_555 1_555
H1C O1C 1_555 1_555
Al1A O3 1_555 1_555
Al1B O1 1_555 1_555
Al1D O3C 1_555 1_555
Al1E F2 1_555 1_555
Al1E_2 O1C 1_555 1_555
F1B Al1C 1_555 1_555
F2B Al1C 1_555 1_555
O1A Al1 1_555 1_555
O1D Al1C 1_555 1_555
O3B Al1 1_555 1_555
O3E Al1C 1_555 1_555
Al1A O1A 1_555 1_555
Al1D O1D 1_555 1_555

#END
