
#######################################################################
#
#                 Cambridge Crystallographic Data Centre
#                                CCDC 
#
#######################################################################
#
# If this CIF has been generated from an entry in the Cambridge 
# Structural Database, then it will include bibliographic, chemical, 
# crystal, experimental, refinement or atomic coordinate data resulting 
# from the CCDC's data processing and validation procedures.
#
#######################################################################

data_MISQIQ07
_chemical_formula_moiety         '(H2 Al2 F2 N1 O6 P1 1-)n'
_symmetry_cell_setting           trigonal
_symmetry_space_group_name_H-M   'P 31 2 1'
_symmetry_Int_Tables_number      152
_space_group_name_Hall           'P 31 2"'
loop_
_symmetry_equiv_pos_site_id
_symmetry_equiv_pos_as_xyz
1 x,y,z
2 -y,x-y,1/3+z
3 -x+y,-x,2/3+z
4 y,x,-z
5 x-y,-y,2/3-z
6 -x,-x+y,1/3-z
_cell_length_a                   9.3429(4)
_cell_length_b                   9.3429(4)
_cell_length_c                   6.9927(6)
_cell_angle_alpha                90
_cell_angle_beta                 90
_cell_angle_gamma                120
_cell_volume                     528.614
loop_
_atom_site_label
_atom_site_type_symbol
_atom_site_fract_x
_atom_site_fract_y
_atom_site_fract_z
N1 N 0.102(2) 0.102(2) 1.0000
Al1 Al 0.47892(11) 0.64105(11) 0.88953(11)
P1 P 0.55067(10) 1.0000 0.8333
F1 F 0.6822(3) 0.6822(3) 1.0000
F2 F 0.4318(3) 0.4318(3) 1.0000
O1 O 0.4287(2) 0.6985(3) 1.1263(3)
H1 H 0.4506 0.6460 1.2295
O2 O 0.5729(3) 0.8515(2) 0.7925(3)
O3 O 0.4342(2) 0.9671(3) 1.0028(3)
O2D O 0.7214(4) 1.1485(2) 0.8742(3)
O3D O 0.4671(4) 1.0329(3) 0.6639(3)
Al1C Al 0.64105(11) 0.47892(11) 1.11047(11)
O1C O 0.6985(3) 0.4287(2) 0.8737(3)
H1C H 0.6460 0.4506 0.7705
Al1A Al 0.35895(11) 0.83787(16) 1.22286(11)
Al1D Al 0.83787(16) 0.35895(11) 0.77714(11)
Al1D_2 Al 0.83787(16) 1.35895(11) 0.77714(11)
Al1E Al 0.52108(11) 1.16213(16) 0.44380(11)
O1B O 0.2698(4) 0.5713(2) 0.7930(3)
O1E O 0.5713(2) 0.2698(4) 1.2070(3)
O2C O 0.8515(2) 0.5729(3) 1.2075(3)
O3B O 0.5329(4) 0.5658(2) 0.6695(3)
O3E O 0.5658(2) 0.5329(4) 1.3305(3)
loop_
_geom_bond_atom_site_label_1
_geom_bond_atom_site_label_2
_geom_bond_site_symmetry_1
_geom_bond_site_symmetry_2
Al1 F1 1_555 1_555
P1 O2 1_555 1_555
F1 Al1C 1_555 1_555
F2 Al1 1_555 1_555
O1 Al1 1_555 1_555
H1 O1 1_555 1_555
O2 Al1 1_555 1_555
O3 P1 1_555 1_555
O2D P1 1_555 1_555
O3D P1 1_555 1_555
Al1C F2 1_555 1_555
O1C Al1C 1_555 1_555
H1C O1C 1_555 1_555
Al1A O1 1_555 1_555
Al1D O1C 1_555 1_555
Al1D_2 O2D 1_555 1_555
Al1E O3D 1_555 1_555
O1B Al1 1_555 1_555
O1E Al1C 1_555 1_555
O2C Al1C 1_555 1_555
O3B Al1 1_555 1_555
O3E Al1C 1_555 1_555
O3 Al1A 1_555 1_555

#END
