
#######################################################################
#
#                 Cambridge Crystallographic Data Centre
#                                CCDC 
#
#######################################################################
#
# If this CIF has been generated from an entry in the Cambridge 
# Structural Database, then it will include bibliographic, chemical, 
# crystal, experimental, refinement or atomic coordinate data resulting 
# from the CCDC's data processing and validation procedures.
#
#######################################################################

data_MISQIQ06
_chemical_formula_moiety         '(H2 Al2 F2 N1 O6 P1 1-)n'
_symmetry_cell_setting           trigonal
_symmetry_space_group_name_H-M   'P 31 2 1'
_symmetry_Int_Tables_number      152
_space_group_name_Hall           'P 31 2"'
loop_
_symmetry_equiv_pos_site_id
_symmetry_equiv_pos_as_xyz
1 x,y,z
2 -y,x-y,1/3+z
3 -x+y,-x,2/3+z
4 y,x,-z
5 x-y,-y,2/3-z
6 -x,-x+y,1/3-z
_cell_length_a                   9.3376(4)
_cell_length_b                   9.3376(4)
_cell_length_c                   6.9910(7)
_cell_angle_alpha                90
_cell_angle_beta                 90
_cell_angle_gamma                120
_cell_volume                     527.886
loop_
_atom_site_label
_atom_site_type_symbol
_atom_site_fract_x
_atom_site_fract_y
_atom_site_fract_z
N1 N 0.103(2) 1.0000 -0.1667
P1 P 0.55071(10) 0.55071(10) 0.0000
Al1 Al 0.47881(10) 0.83784(9) -0.05618(10)
F1 F 0.6821(3) 1.0000 -0.1667
F2 F 0.4319(2) 1.0000 -0.1667
O1 O 0.2703(2) 0.6987(2) 0.0404(2)
H1 H 0.1936 0.6411 -0.0417
O2 O 0.5726(3) 0.7215(2) 0.0407(2)
O3 O 0.4344(2) 0.4672(2) -0.1693(3)
O2C O 0.7215(2) 0.5726(3) -0.0407(2)
O3C O 0.4672(2) 0.4344(2) 0.1693(3)
Al1C Al 0.83784(9) 0.47881(10) 0.05618(10)
O1C O 0.6987(2) 0.2703(2) -0.0404(2)
H1C H 0.6411 0.1936 0.0417
Al1A Al 0.16216(9) 0.64097(13) 0.27715(10)
Al1B Al 0.35903(13) 0.52119(10) -0.38951(10)
Al1D Al 0.64097(13) 0.16216(9) -0.27715(10)
Al1D_2 Al 0.64097(13) 1.16216(9) -0.27715(10)
Al1E Al 0.52119(10) 0.35903(13) 0.38951(10)
F1A F 1.0000 0.6821(3) 0.1666
F2A F 1.0000 0.4319(2) 0.1666
O1B O 0.4284(3) 0.7297(2) -0.2929(2)
O1E O 0.7297(2) 0.4284(3) 0.2929(2)
O3A O 0.5328(2) 0.9672(3) 0.1640(3)
O3D O 0.9672(3) 0.5328(2) -0.1640(3)
loop_
_geom_bond_atom_site_label_1
_geom_bond_atom_site_label_2
_geom_bond_site_symmetry_1
_geom_bond_site_symmetry_2
P1 O2 1_555 1_555
Al1 F1 1_555 1_555
F1 Al1D_2 1_555 1_555
F2 Al1 1_555 1_555
O1 Al1 1_555 1_555
H1 O1 1_555 1_555
O2 Al1 1_555 1_555
O3 P1 1_555 1_555
O2C P1 1_555 1_555
O3C P1 1_555 1_555
Al1C O2C 1_555 1_555
O1C Al1C 1_555 1_555
H1C O1C 1_555 1_555
Al1A O1 1_555 1_555
Al1B O3 1_555 1_555
Al1D O1C 1_555 1_555
Al1D_2 F2 1_555 1_555
Al1E O3C 1_555 1_555
F1A Al1C 1_555 1_555
F2A Al1C 1_555 1_555
O1B Al1 1_555 1_555
O1E Al1C 1_555 1_555
O3A Al1 1_555 1_555
O3D Al1C 1_555 1_555
Al1B O1B 1_555 1_555
Al1E O1E 1_555 1_555

#END
