
#######################################################################
#
#                 Cambridge Crystallographic Data Centre
#                                CCDC 
#
#######################################################################
#
# If this CIF has been generated from an entry in the Cambridge 
# Structural Database, then it will include bibliographic, chemical, 
# crystal, experimental, refinement or atomic coordinate data resulting 
# from the CCDC's data processing and validation procedures.
#
#######################################################################

data_NERSUA
_chemical_formula_moiety         '(C34 H44 Cu3 N6 O12 P4)n'
_symmetry_cell_setting           monoclinic
_symmetry_space_group_name_H-M   'P 21/n'
_symmetry_Int_Tables_number      14
_space_group_name_Hall           '-P 2yn'
loop_
_symmetry_equiv_pos_site_id
_symmetry_equiv_pos_as_xyz
1 x,y,z
2 1/2-x,1/2+y,1/2-z
3 -x,-y,-z
4 1/2+x,1/2-y,1/2+z
_cell_length_a                   13.9010(4)
_cell_length_b                   9.5384(3)
_cell_length_c                   26.6923(12)
_cell_angle_alpha                90
_cell_angle_beta                 96.326(3)
_cell_angle_gamma                90
_cell_volume                     3517.67
loop_
_atom_site_label
_atom_site_type_symbol
_atom_site_fract_x
_atom_site_fract_y
_atom_site_fract_z
C1 C -0.0145(14) 0.2194(13) 0.3292(6)
H1 H 0.0344 0.2863 0.3331
C2 C -0.0788(16) 0.2289(16) 0.2863(7)
H2 H -0.0742 0.3053 0.2651
C3 C -0.1518(15) 0.052(2) 0.3111(7)
H3 H -0.1987 -0.0181 0.3068
C4 C -0.0938(10) 0.0592(18) 0.3555(7)
H4 H -0.1140 0.0090 0.3823
Cu1 Cu -0.57832(6) -0.37699(9) 0.07446(4)
Cu2 Cu -0.5000 0.0000 0.0000
P1 P -0.59856(12) -0.64092(16) 0.01348(8)
P2 P -0.68518(12) -0.11669(17) 0.04526(8)
N1 N -0.0153(4) 0.1272(6) 0.3644(2)
O1 O -0.6843(3) -0.7404(5) 0.0242(2)
O2 O -0.5295(3) -0.7150(5) -0.0161(2)
O3 O -0.5536(3) -0.5763(5) 0.0629(2)
O4 O -0.7813(4) -0.0659(6) 0.0565(2)
N2 N -0.6874(4) -0.3898(5) 0.0163(2)
O5 O -0.6273(3) 0.0048(4) 0.02737(19)
N3 N -0.4286(5) 0.0167(6) 0.0696(2)
O6 O -0.6290(3) -0.1937(4) 0.08944(18)
C5 C -0.7807(4) -0.4333(7) 0.0372(3)
H5 H -0.7972 -0.3635 0.0612
H6 H -0.7703 -0.5217 0.0549
C6 C -0.6948(5) -0.2466(6) -0.0057(3)
H7 H -0.7563 -0.2360 -0.0264
H8 H -0.6433 -0.2321 -0.0269
C7 C -0.6557(5) -0.4939(7) -0.0207(3)
C8 C -0.9574(4) -0.4926(8) 0.0199(3)
H9 H -0.9458 -0.5810 0.0375
H10 H -0.9716 -0.4222 0.0443
C9 C -0.8663(5) -0.4494(10) -0.0046(4)
H11 H -0.8778 -0.3614 -0.0224
H12 H -0.8512 -0.5203 -0.0286
C10 C -0.1434(8) 0.1392(14) 0.2746(4)
C11 C -0.2803(11) 0.0389(16) 0.2239(6)
H13 H -0.3267 0.0541 0.2479
H14 H -0.2456 -0.0478 0.2320
C12 C -0.4623(6) 0.1000(9) 0.1065(3)
H15 H -0.5184 0.1516 0.0978
C13 C -0.2167(13) 0.1522(17) 0.2230(7)
H16 H -0.2517 0.2403 0.2222
H17 H -0.1813 0.1472 0.1937
C14 C -0.3333(10) 0.0374(15) 0.1659(5)
C15 C -0.3490(7) -0.0474(10) 0.0821(4)
H18 H -0.3248 -0.1055 0.0585
C16 C -0.4208(9) 0.1108(13) 0.1522(4)
H19 H -0.4481 0.1659 0.1757
C17 C -0.2977(10) -0.0346(16) 0.1286(5)
H20 H -0.2371 -0.0765 0.1347
C1B C -0.9855(14) -0.2194(13) -0.3292(6)
H1B H -1.0344 -0.2863 -0.3331
C2B C -0.9212(16) -0.2289(16) -0.2863(7)
H2B H -0.9258 -0.3053 -0.2651
C3B C -0.8482(15) -0.052(2) -0.3111(7)
H3B H -0.8013 0.0181 -0.3068
C4B C -0.9062(10) -0.0592(18) -0.3555(7)
H4B H -0.8860 -0.0090 -0.3823
Cu1C Cu -1.07832(6) -0.12301(9) -0.42554(4)
Cu1A Cu 0.07832(6) 0.12301(9) 0.42554(4)
Cu1B Cu -1.42168(6) -0.62301(9) -0.07446(4)
Cu2_2 Cu -1.5000 -1.0000 0.0000
P1B P -1.40144(12) -0.35908(16) -0.01348(8)
P2B P -1.31482(12) -0.88331(17) -0.04526(8)
N1B N -0.9847(4) -0.1272(6) -0.3644(2)
N1A N -0.4847(4) -0.3728(6) 0.1356(2)
N1C N -1.5153(4) -0.6272(6) -0.1356(2)
O1B O -1.3157(3) -0.2596(5) -0.0242(2)
O2B O -1.4705(3) -0.2850(5) 0.0161(2)
O3B O -1.4464(3) -0.4237(5) -0.0629(2)
O4B O -1.2187(4) -0.9341(6) -0.0565(2)
N2B N -1.3126(4) -0.6102(5) -0.0163(2)
O5B O -1.3727(3) -1.0048(4) -0.02737(19)
O5B_2 O -0.3727(3) -0.0048(4) -0.02737(19)
N3B N -0.5714(5) -0.0167(6) -0.0696(2)
O6B O -1.3710(3) -0.8063(4) -0.08944(18)
C5B C -1.2193(4) -0.5667(7) -0.0372(3)
H5B H -1.2028 -0.6365 -0.0612
H6B H -1.2297 -0.4783 -0.0549
C6B C -1.3052(5) -0.7534(6) 0.0057(3)
H7B H -1.2437 -0.7640 0.0264
H8B H -1.3567 -0.7679 0.0269
C7B C -1.3443(5) -0.5061(7) 0.0207(3)
C8B C -1.0426(4) -0.5074(8) -0.0199(3)
H9B H -1.0542 -0.4190 -0.0375
H10B H -1.0284 -0.5778 -0.0443
C9B C -1.1337(5) -0.5506(10) 0.0046(4)
H11B H -1.1222 -0.6386 0.0224
H12B H -1.1488 -0.4797 0.0286
C10B C -0.8566(8) -0.1392(14) -0.2746(4)
C11B C -0.7197(11) -0.0389(16) -0.2239(6)
H13B H -0.6733 -0.0541 -0.2479
H14B H -0.7544 0.0478 -0.2320
C12B C -0.5377(6) -0.1000(9) -0.1065(3)
H15B H -0.4816 -0.1516 -0.0978
C13B C -0.7833(13) -0.1522(17) -0.2230(7)
H16B H -0.7483 -0.2403 -0.2222
H17B H -0.8187 -0.1472 -0.1937
C14B C -0.6667(10) -0.0374(15) -0.1659(5)
C15B C -0.6510(7) 0.0474(10) -0.0821(4)
H18B H -0.6752 0.1055 -0.0585
C16B C -0.5792(9) -0.1108(13) -0.1522(4)
H19B H -0.5519 -0.1659 -0.1757
C17B C -0.7023(10) 0.0346(16) -0.1286(5)
H20B H -0.7629 0.0765 -0.1347
loop_
_geom_bond_atom_site_label_1
_geom_bond_atom_site_label_2
_geom_bond_site_symmetry_1
_geom_bond_site_symmetry_2
C1 H1 1_555 1_555
C2 C1 1_555 1_555
H2 C2 1_555 1_555
C3 H3 1_555 1_555
C4 C3 1_555 1_555
H4 C4 1_555 1_555
Cu1 O3 1_555 1_555
Cu2 O5 1_555 1_555
P1 O1 1_555 1_555
P2 O4 1_555 1_555
N1 C1 1_555 1_555
O2 P1 1_555 1_555
O3 P1 1_555 1_555
N2 Cu1 1_555 1_555
O5 P2 1_555 1_555
N3 Cu2 1_555 1_555
O6 Cu1 1_555 1_555
C5 N2 1_555 1_555
H5 C5 1_555 1_555
H6 C5 1_555 1_555
C6 P2 1_555 1_555
H7 C6 1_555 1_555
H8 C6 1_555 1_555
C7 P1 1_555 1_555
C8 H9 1_555 1_555
H10 C8 1_555 1_555
C9 C5 1_555 1_555
H11 C9 1_555 1_555
H12 C9 1_555 1_555
C10 C2 1_555 1_555
C11 H13 1_555 1_555
H14 C11 1_555 1_555
C12 N3 1_555 1_555
H15 C12 1_555 1_555
C13 C10 1_555 1_555
H16 C13 1_555 1_555
H17 C13 1_555 1_555
C14 C11 1_555 1_555
C15 N3 1_555 1_555
H18 C15 1_555 1_555
C16 C12 1_555 1_555
H19 C16 1_555 1_555
C17 C14 1_555 1_555
H20 C17 1_555 1_555
C1B H1B 1_555 1_555
C2B C1B 1_555 1_555
H2B C2B 1_555 1_555
C3B H3B 1_555 1_555
C4B C3B 1_555 1_555
H4B C4B 1_555 1_555
Cu1C N1B 1_555 1_555
Cu1A N1 1_555 1_555
Cu1B N1C 1_555 1_555
Cu2_2 O5B 1_555 1_555
P1B O1B 1_555 1_555
P2B O4B 1_555 1_555
N1B C1B 1_555 1_555
N1A Cu1 1_555 1_555
O2B P1B 1_555 1_555
O3B Cu1B 1_555 1_555
N2B Cu1B 1_555 1_555
O5B P2B 1_555 1_555
O5B_2 Cu2 1_555 1_555
N3B Cu2 1_555 1_555
O6B Cu1B 1_555 1_555
C5B N2B 1_555 1_555
H5B C5B 1_555 1_555
H6B C5B 1_555 1_555
C6B P2B 1_555 1_555
H7B C6B 1_555 1_555
H8B C6B 1_555 1_555
C7B P1B 1_555 1_555
C8B C8 1_555 1_555
H9B C8B 1_555 1_555
H10B C8B 1_555 1_555
C9B C5B 1_555 1_555
H11B C9B 1_555 1_555
H12B C9B 1_555 1_555
C10B C2B 1_555 1_555
C11B H13B 1_555 1_555
H14B C11B 1_555 1_555
C12B N3B 1_555 1_555
H15B C12B 1_555 1_555
C13B C10B 1_555 1_555
H16B C13B 1_555 1_555
H17B C13B 1_555 1_555
C14B C11B 1_555 1_555
C15B N3B 1_555 1_555
H18B C15B 1_555 1_555
C16B C12B 1_555 1_555
H19B C16B 1_555 1_555
C17B C14B 1_555 1_555
H20B C17B 1_555 1_555
C3 C10 1_555 1_555
C4 N1 1_555 1_555
P2 O6 1_555 1_555
N2 C6 1_555 1_555
N2 C7 1_555 1_555
C8 C9 1_555 1_555
C11 C13 1_555 1_555
C14 C16 1_555 1_555
C15 C17 1_555 1_555
C3B C10B 1_555 1_555
C4B N1B 1_555 1_555
P1B O3B 1_555 1_555
P2B O6B 1_555 1_555
N2B C6B 1_555 1_555
N2B C7B 1_555 1_555
C8B C9B 1_555 1_555
C11B C13B 1_555 1_555
C14B C16B 1_555 1_555
C15B C17B 1_555 1_555

#END
