
#######################################################################
#
#                 Cambridge Crystallographic Data Centre
#                                CCDC 
#
#######################################################################
#
# If this CIF has been generated from an entry in the Cambridge 
# Structural Database, then it will include bibliographic, chemical, 
# crystal, experimental, refinement or atomic coordinate data resulting 
# from the CCDC's data processing and validation procedures.
#
#######################################################################

data_JOKXEM10
_chemical_formula_moiety         '(C14 H20 Cd2 N12 Ni2)n'
_symmetry_cell_setting           monoclinic
_symmetry_space_group_name_H-M   'A 1 1 2/a'
_symmetry_Int_Tables_number      15
_space_group_name_Hall           '-A 2a'
loop_
_symmetry_equiv_pos_site_id
_symmetry_equiv_pos_as_xyz
1 x,y,z
2 x,1/2+y,1/2+z
3 1/2-x,-y,z
4 1/2-x,1/2-y,1/2+z
5 -x,-y,-z
6 -x,1/2-y,1/2-z
7 1/2+x,y,-z
8 1/2+x,1/2+y,1/2-z
_cell_length_a                   13.987(2)
_cell_length_b                   26.971(2)
_cell_length_c                   7.595(2)
_cell_angle_alpha                90
_cell_angle_beta                 90
_cell_angle_gamma                91.74(1)
_cell_volume                     2863.84
loop_
_atom_site_label
_atom_site_type_symbol
_atom_site_fract_x
_atom_site_fract_y
_atom_site_fract_z
Cd1 Cd 0.27557(3) 0.13524(1) -0.12090(5)
Ni1 Ni 0.25000 0.00000 0.3722(1)
Ni2 Ni 0.00000 -0.25000 0.25000
N1 N 0.2549(4) 0.0800(2) 0.0958(7)
N2 N 0.2499(4) -0.0783(2) 0.6536(7)
N3 N 0.1739(4) -0.1996(2) 0.0892(8)
N4 N -0.1242(4) -0.1678(2) 0.1312(7)
N5 N 0.3181(4) 0.1930(2) -0.3479(8)
N6 N 0.4425(4) 0.1256(2) -0.1637(7)
C1 C 0.2521(4) 0.0492(2) 0.1992(7)
C2 C 0.2500(5) 0.0488(2) 0.5460(8)
C3 C 0.1083(4) -0.2188(2) 0.1515(8)
C4 C -0.0757(4) -0.1986(2) 0.1753(7)
C5 C 0.4202(7) 0.1901(5) -0.378(2)
C6 C 0.4764(6) 0.1595(5) -0.300(2)
C7 C 0.5816(5) 0.1583(4) -0.344(1)
C1B C 0.2479(4) -0.0492(2) 0.1992(7)
C2B C 0.2500(5) -0.0488(2) 0.5460(8)
N1B N 0.2451(4) -0.0800(2) 0.0958(7)
N2B N 0.2501(4) 0.0783(2) -0.3464(7)
Cd1B Cd 0.22443(3) -0.13524(1) -0.12090(5)
Cd1B_2 Cd 0.22443(3) -0.13524(1) 0.87910(5)
N2_2 N 0.2499(4) -0.0783(2) -0.3464(7)
N3B N 0.3261(4) 0.1996(2) 0.0892(8)
N4F N 0.3758(4) -0.1678(2) -0.1312(7)
N5B N 0.1819(4) -0.1930(2) -0.3479(8)
N6B N 0.0575(4) -0.1256(2) -0.1637(7)
C5B C 0.0798(7) -0.1901(5) -0.378(2)
C6B C 0.0236(6) -0.1595(5) -0.300(2)
C7B C -0.0816(5) -0.1583(4) -0.344(1)
C3E C -0.1083(4) -0.2812(2) 0.3485(8)
C4E C 0.0757(4) -0.3014(2) 0.3247(7)
N3E N -0.1739(4) -0.3004(2) 0.4108(8)
N4D N 0.1242(4) 0.1678(2) -0.1312(7)
N4E N 0.1242(4) -0.3322(2) 0.3688(7)
Cd1G Cd -0.22443(3) -0.36476(1) 0.62090(5)
Cd1D Cd -0.27557(3) -0.13524(1) 0.12090(5)
Cd1A Cd 0.27557(3) -0.36476(1) 0.37910(5)
N2B_2 N 0.2501(4) 0.0783(2) 0.6536(7)
Cd1_2 Cd 0.27557(3) 0.13524(1) 0.87910(5)
loop_
_geom_bond_atom_site_label_1
_geom_bond_atom_site_label_2
_geom_bond_site_symmetry_1
_geom_bond_site_symmetry_2
Cd1 N1 1_555 1_555
Ni1 C1 1_555 1_555
Ni2 C3 1_555 1_555
N1 C1 1_555 1_555
N2 C2B 1_555 1_555
N3 C3 1_555 1_555
N4 C4 1_555 1_555
N5 Cd1 1_555 1_555
N6 Cd1 1_555 1_555
C2 Ni1 1_555 1_555
C4 Ni2 1_555 1_555
C5 N5 1_555 1_555
C6 N6 1_555 1_555
C7 C6 1_555 1_555
C1B Ni1 1_555 1_555
C2B Ni1 1_555 1_555
N1B C1B 1_555 1_555
N2B Cd1 1_555 1_555
Cd1B N3 1_555 1_555
Cd1B_2 N2 1_555 1_555
N2_2 Cd1B 1_555 1_555
N3B Cd1 1_555 1_555
N4F Cd1B 1_555 1_555
N5B Cd1B 1_555 1_555
N6B Cd1B 1_555 1_555
C5B N5B 1_555 1_555
C6B N6B 1_555 1_555
C7B C6B 1_555 1_555
C3E Ni2 1_555 1_555
C4E Ni2 1_555 1_555
N3E C3E 1_555 1_555
N4D Cd1 1_555 1_555
N4E C4E 1_555 1_555
Cd1G N3E 1_555 1_555
Cd1D N4 1_555 1_555
Cd1A N4E 1_555 1_555
N2B_2 C2 1_555 1_555
Cd1_2 N2B_2 1_555 1_555
C5 C6 1_555 1_555
N1B Cd1B 1_555 1_555
C5B C6B 1_555 1_555

#END
