
#######################################################################
#
#                 Cambridge Crystallographic Data Centre
#                                CCDC 
#
#######################################################################
#
# If this CIF has been generated from an entry in the Cambridge 
# Structural Database, then it will include bibliographic, chemical, 
# crystal, experimental, refinement or atomic coordinate data resulting 
# from the CCDC's data processing and validation procedures.
#
#######################################################################

data_LAMFIO
_chemical_formula_moiety         '(C14 H20 Cd2 N12 Ni2)n'
_symmetry_cell_setting           monoclinic
_symmetry_space_group_name_H-M   'A 1 1 2/a'
_symmetry_Int_Tables_number      15
_space_group_name_Hall           '-A 2a'
loop_
_symmetry_equiv_pos_site_id
_symmetry_equiv_pos_as_xyz
1 x,y,z
2 x,1/2+y,1/2+z
3 1/2-x,-y,z
4 1/2-x,1/2-y,1/2+z
5 -x,-y,-z
6 -x,1/2-y,1/2-z
7 1/2+x,y,-z
8 1/2+x,1/2+y,1/2-z
_cell_length_a                   14.116(5)
_cell_length_b                   26.839(4)
_cell_length_c                   7.642(1)
_cell_angle_alpha                90
_cell_angle_beta                 90
_cell_angle_gamma                90.19(3)
_cell_volume                     2895.23
loop_
_atom_site_label
_atom_site_type_symbol
_atom_site_fract_x
_atom_site_fract_y
_atom_site_fract_z
Cd1 Cd 0.2798(1) 0.13518(5) -0.1148(2)
Ni1 Ni 0.2500 0.00000 0.3799(4)
Ni2 Ni 0.5000 0.25000 0.2500
N1 N 0.266(1) 0.0824(8) 0.104(2)
N2 N 0.257(2) 0.0808(9) -0.339(2)
N3 N 0.336(2) 0.1997(7) 0.085(3)
N4 N 0.631(1) 0.1687(7) 0.120(3)
N5 N 0.321(2) 0.1937(9) -0.344(3)
N6 N 0.446(1) 0.1262(6) -0.169(2)
C1 C 0.258(2) 0.0487(7) 0.207(2)
C2 C 0.252(2) 0.0478(8) -0.446(3)
C3 C 0.391(1) 0.2179(7) 0.153(3)
C4 C 0.579(1) 0.1991(7) 0.168(3)
C5 C 0.417(2) 0.189(1) -0.378(6)
C6 C 0.465(2) 0.148(2) -0.331(5)
C7 C 0.582(1) 0.158(1) -0.357(5)
C1B C 0.242(2) -0.0487(7) 0.207(2)
C2_2 C 0.252(2) 0.0478(8) 0.554(3)
C2B C 0.248(2) -0.0478(8) 0.554(3)
Ni1_2 Ni 0.2500 -0.00000 -0.6201(4)
C3E C 0.609(1) 0.2821(7) 0.347(3)
C4E C 0.421(1) 0.3009(7) 0.332(3)
N3E N 0.664(2) 0.3003(7) 0.415(3)
N4F N 0.131(1) 0.1687(7) -0.120(3)
N4E N 0.369(1) 0.3313(7) 0.380(3)
Cd1E Cd 0.7202(1) 0.36482(5) 0.6148(2)
Cd1F Cd 0.7798(1) 0.13518(5) 0.1148(2)
Cd1C Cd 0.2202(1) 0.36482(5) 0.3852(2)
N1E N 0.734(1) 0.4176(8) 0.396(2)
N2E N 0.743(2) 0.4192(9) 0.839(2)
N4C N 0.869(1) 0.3313(7) 0.620(3)
N5E N 0.679(2) 0.3063(9) 0.844(3)
N6E N 0.554(1) 0.3738(6) 0.669(2)
C1E C 0.742(2) 0.4513(7) 0.293(2)
C2E C 0.748(2) 0.4522(8) 0.946(3)
C5E C 0.583(2) 0.311(1) 0.878(6)
C6E C 0.535(2) 0.352(2) 0.831(5)
Ni1E Ni 0.7500 0.50000 0.1201(4)
Ni1E_2 Ni 0.7500 0.50000 1.1201(4)
C7E C 0.418(1) 0.342(1) 0.857(5)
loop_
_geom_bond_atom_site_label_1
_geom_bond_atom_site_label_2
_geom_bond_site_symmetry_1
_geom_bond_site_symmetry_2
Cd1 N1 1_555 1_555
Ni1 C1 1_555 1_555
Ni2 C3 1_555 1_555
N1 C1 1_555 1_555
N2 Cd1 1_555 1_555
N3 Cd1 1_555 1_555
N4 C4 1_555 1_555
N5 Cd1 1_555 1_555
N6 Cd1 1_555 1_555
C2 N2 1_555 1_555
C3 N3 1_555 1_555
C4 Ni2 1_555 1_555
C5 N5 1_555 1_555
C6 N6 1_555 1_555
C7 C6 1_555 1_555
C1B Ni1 1_555 1_555
C2_2 Ni1 1_555 1_555
C2B Ni1 1_555 1_555
Ni1_2 C2 1_555 1_555
C3E Ni2 1_555 1_555
C4E Ni2 1_555 1_555
N3E C3E 1_555 1_555
N4F Cd1 1_555 1_555
N4E C4E 1_555 1_555
Cd1E N3E 1_555 1_555
Cd1F N4 1_555 1_555
Cd1C N4E 1_555 1_555
N1E Cd1E 1_555 1_555
N2E Cd1E 1_555 1_555
N4C Cd1E 1_555 1_555
N5E Cd1E 1_555 1_555
N6E Cd1E 1_555 1_555
C1E N1E 1_555 1_555
C2E N2E 1_555 1_555
C5E N5E 1_555 1_555
C6E N6E 1_555 1_555
Ni1E C1E 1_555 1_555
Ni1E_2 C2E 1_555 1_555
C7E C6E 1_555 1_555
C5 C6 1_555 1_555
C5E C6E 1_555 1_555

#END
