
#######################################################################
#
#                 Cambridge Crystallographic Data Centre
#                                CCDC 
#
#######################################################################
#
# If this CIF has been generated from an entry in the Cambridge 
# Structural Database, then it will include bibliographic, chemical, 
# crystal, experimental, refinement or atomic coordinate data resulting 
# from the CCDC's data processing and validation procedures.
#
#######################################################################

data_AKUKUO
_chemical_formula_moiety         '(C34 H38 N8 Ni3 O16 P4)n'
_symmetry_cell_setting           triclinic
_symmetry_space_group_name_H-M   'P -1'
_symmetry_Int_Tables_number      2
_space_group_name_Hall           '-P 1'
loop_
_symmetry_equiv_pos_site_id
_symmetry_equiv_pos_as_xyz
1 x,y,z
2 -x,-y,-z
_cell_length_a                   8.8545(18)
_cell_length_b                   10.672(2)
_cell_length_c                   15.389(3)
_cell_angle_alpha                76.40(3)
_cell_angle_beta                 78.58(3)
_cell_angle_gamma                79.92(3)
_cell_volume                     1372.78
loop_
_atom_site_label
_atom_site_type_symbol
_atom_site_fract_x
_atom_site_fract_y
_atom_site_fract_z
Ni1 Ni 0.0000 0.5000 0.5000
Ni2 Ni -0.19226(9) 0.92526(7) 0.62692(5)
C1 C -0.1757(7) 0.8513(6) 0.4560(4)
C2 C -0.1874(7) 0.8706(6) 0.3570(4)
H1 H -0.1308 0.9417 0.3233
H2 H -0.1360 0.7927 0.3358
N1 N -0.3463(6) 0.8987(5) 0.3356(3)
C3 C -0.4606(8) 0.9896(7) 0.3604(4)
H3 H -0.4508 1.0478 0.3948
N2 N -0.5880(6) 0.9864(5) 0.3302(4)
C4 C -0.5542(10) 0.8871(8) 0.2850(6)
H4 H -0.6230 0.8611 0.2564
C5 C -0.4045(8) 0.8317(8) 0.2882(5)
H5 H -0.3526 0.7618 0.2629
P1 P -0.28459(18) 0.72695(15) 0.53786(11)
O1 O -0.2278(5) 0.5971(4) 0.5154(3)
O2 O -0.2731(5) 0.7500(4) 0.6294(3)
O3 O -0.4625(5) 0.7616(4) 0.5283(3)
H6 H -0.4723 0.7630 0.4762
P2 P 0.03409(18) 0.81387(14) 0.47125(10)
O4 O 0.0910(5) 0.6712(4) 0.4736(3)
O5 O 0.0327(5) 0.8541(4) 0.5608(3)
O6 O 0.1172(5) 0.9003(4) 0.3911(3)
O7 O -0.2346(5) 0.9712(4) 0.4880(3)
H7 H -0.1715 1.0259 0.4727
N3 N -0.0041(7) 0.5285(5) 0.3592(4)
C6 C -0.1204(10) 0.4953(8) 0.3307(5)
H8 H -0.1889 0.4449 0.3723
C7 C -0.1436(11) 0.5324(9) 0.2422(5)
H9 H -0.2310 0.5122 0.2262
C8 C -0.0427(11) 0.5970(9) 0.1788(5)
C9 C 0.0871(12) 0.6265(9) 0.2072(6)
H10 H 0.1622 0.6696 0.1654
C10 C 0.1005(10) 0.5906(8) 0.2974(5)
H11 H 0.1857 0.6104 0.3160
C11 C -0.0695(16) 0.6401(12) 0.0824(7)
H12 H -0.1208 0.5839 0.0645
C12 C -0.0386(18) 0.7315(13) 0.0242(7)
H13 H 0.0210 0.7843 0.0394
C13 C -0.0770(14) 0.7746(10) -0.0649(6)
C14 C -0.0796(16) 0.8990(13) -0.1095(7)
H14 H -0.0609 0.9593 -0.0794
C15 C -0.1076(12) 0.9420(10) -0.1951(7)
H15 H -0.1062 1.0295 -0.2220
C16 C -0.1559(16) 0.7420(11) -0.1982(7)
H16 H -0.1907 0.6858 -0.2255
C17 C -0.1243(16) 0.6966(12) -0.1083(7)
H17 H -0.1365 0.6114 -0.0789
N4 N -0.1383(7) 0.8588(6) -0.2438(4)
Ni2A Ni -0.80774(9) 1.07474(7) 0.37308(5)
C1A C -0.8243(7) 1.1487(6) 0.5440(4)
C2A C -0.8126(7) 1.1294(6) 0.6430(4)
H1A H -0.8692 1.0583 0.6767
H2A H -0.8640 1.2073 0.6642
N1A N -0.6537(6) 1.1013(5) 0.6644(3)
C3A C -0.5394(8) 1.0104(7) 0.6396(4)
H3A H -0.5492 0.9522 0.6052
N2A N -0.4120(6) 1.0136(5) 0.6698(4)
C4A C -0.4458(10) 1.1129(8) 0.7150(6)
H4A H -0.3770 1.1389 0.7436
C5A C -0.5955(8) 1.1683(8) 0.7118(5)
H5A H -0.6474 1.2382 0.7371
P1A P -0.71541(18) 1.27305(15) 0.46214(11)
O1A O -0.7722(5) 1.4029(4) 0.4846(3)
O2A O -0.7269(5) 1.2500(4) 0.3706(3)
O3A O -0.5375(5) 1.2384(4) 0.4717(3)
H6A H -0.5277 1.2370 0.5238
P2A P -1.03409(18) 1.18613(14) 0.52875(10)
O4A O -1.0910(5) 1.3288(4) 0.5264(3)
O5A O -1.0327(5) 1.1459(4) 0.4392(3)
O6A O -1.1172(5) 1.0997(4) 0.6089(3)
O7A O -0.7654(5) 1.0288(4) 0.5120(3)
H7A H -0.8285 0.9741 0.5273
N3A N 0.0041(7) 0.4715(5) 0.6408(4)
C6A C 0.1204(10) 0.5047(8) 0.6693(5)
H8A H 0.1889 0.5551 0.6277
C7A C 0.1436(11) 0.4676(9) 0.7578(5)
H9A H 0.2310 0.4878 0.7738
C8A C 0.0427(11) 0.4030(9) 0.8212(5)
C9A C -0.0871(12) 0.3735(9) 0.7928(6)
H10A H -0.1622 0.3304 0.8346
C10A C -0.1005(10) 0.4094(8) 0.7026(5)
H11A H -0.1857 0.3896 0.6840
C11A C 0.0695(16) 0.3599(12) 0.9176(7)
H12A H 0.1208 0.4161 0.9355
C12A C 0.0386(18) 0.2685(13) 0.9758(7)
H13A H -0.0210 0.2157 0.9606
C13A C 0.0770(14) 0.2254(10) 1.0649(6)
C14A C 0.0796(16) 0.1010(13) 1.1095(7)
H14A H 0.0609 0.0407 1.0794
C15A C 0.1076(12) 0.0580(10) 1.1951(7)
H15A H 0.1062 -0.0295 1.2220
C16A C 0.1559(16) 0.2580(11) 1.1982(7)
H16A H 0.1907 0.3142 1.2255
C17A C 0.1243(16) 0.3034(12) 1.1083(7)
H17A H 0.1365 0.3886 1.0789
N4A N 0.1383(7) 0.1412(6) 1.2438(4)
Ni1_2 Ni -1.0000 1.5000 0.5000
Ni2_2 Ni -1.19226(9) 0.92526(7) 0.62692(5)
Ni2_3 Ni -0.19226(9) 0.92526(7) -0.37308(5)
Ni2A_2 Ni 0.19226(9) 0.07474(7) 1.37308(5)
Ni2A_3 Ni 0.19226(9) 1.07474(7) 0.37308(5)
O1A_2 O 0.2278(5) 0.4029(4) 0.4846(3)
O4A_2 O -0.0910(5) 0.3288(4) 0.5264(3)
O6_2 O -0.8828(5) 0.9003(4) 0.3911(3)
O6A_2 O -0.1172(5) 1.0997(4) 0.6089(3)
N4_2 N -0.1383(7) 0.8588(6) 0.7562(4)
N4A_2 N -0.8617(7) 1.1412(6) 0.2438(4)
O8 O 0.4152(7) 0.6180(6) 0.4467(5)
H18 H 0.3761 0.5478 0.4564
H19 H 0.3408 0.6751 0.4615
O9 O 0.2530(18) 0.7641(13) 0.6835(9)
H20 H 0.1800 0.7863 0.6532
H21 H 0.3380 0.7632 0.6465
loop_
_geom_bond_atom_site_label_1
_geom_bond_atom_site_label_2
_geom_bond_site_symmetry_1
_geom_bond_site_symmetry_2
Ni1 O1 1_555 1_555
Ni2 O2 1_555 1_555
C1 C2 1_555 1_555
C2 H1 1_555 1_555
H2 C2 1_555 1_555
N1 C2 1_555 1_555
C3 N1 1_555 1_555
H3 C3 1_555 1_555
N2 C3 1_555 1_555
C4 N2 1_555 1_555
H4 C4 1_555 1_555
C5 N1 1_555 1_555
H5 C5 1_555 1_555
P1 C1 1_555 1_555
O1 P1 1_555 1_555
O2 P1 1_555 1_555
O3 P1 1_555 1_555
H6 O3 1_555 1_555
P2 C1 1_555 1_555
O4 Ni1 1_555 1_555
O5 Ni2 1_555 1_555
O6 P2 1_555 1_555
O7 Ni2 1_555 1_555
H7 O7 1_555 1_555
N3 Ni1 1_555 1_555
C6 N3 1_555 1_555
H8 C6 1_555 1_555
C7 C6 1_555 1_555
H9 C7 1_555 1_555
C8 C7 1_555 1_555
C9 C8 1_555 1_555
H10 C9 1_555 1_555
C10 N3 1_555 1_555
H11 C10 1_555 1_555
C11 C8 1_555 1_555
H12 C11 1_555 1_555
C12 C11 1_555 1_555
H13 C12 1_555 1_555
C13 C12 1_555 1_555
C14 C13 1_555 1_555
H14 C14 1_555 1_555
C15 C14 1_555 1_555
H15 C15 1_555 1_555
C16 H16 1_555 1_555
C17 C13 1_555 1_555
H17 C17 1_555 1_555
N4 C15 1_555 1_555
O8 H18 1_555 1_555
H19 O8 1_555 1_555
O9 H20 1_555 1_555
H21 O9 1_555 1_555
Ni2A N2 1_555 1_555
C1A C2A 1_555 1_555
C2A H1A 1_555 1_555
H2A C2A 1_555 1_555
N1A C2A 1_555 1_555
C3A N1A 1_555 1_555
H3A C3A 1_555 1_555
N2A Ni2 1_555 1_555
C4A N2A 1_555 1_555
H4A C4A 1_555 1_555
C5A N1A 1_555 1_555
H5A C5A 1_555 1_555
P1A C1A 1_555 1_555
O1A P1A 1_555 1_555
O2A Ni2A 1_555 1_555
O3A P1A 1_555 1_555
H6A O3A 1_555 1_555
P2A C1A 1_555 1_555
O4A P2A 1_555 1_555
O5A Ni2A 1_555 1_555
O6A P2A 1_555 1_555
O7A Ni2A 1_555 1_555
H7A O7A 1_555 1_555
N3A Ni1 1_555 1_555
C6A N3A 1_555 1_555
H8A C6A 1_555 1_555
C7A C6A 1_555 1_555
H9A C7A 1_555 1_555
C8A C7A 1_555 1_555
C9A C8A 1_555 1_555
H10A C9A 1_555 1_555
C10A N3A 1_555 1_555
H11A C10A 1_555 1_555
C11A C8A 1_555 1_555
H12A C11A 1_555 1_555
C12A C11A 1_555 1_555
H13A C12A 1_555 1_555
C13A C12A 1_555 1_555
C14A C13A 1_555 1_555
H14A C14A 1_555 1_555
C15A C14A 1_555 1_555
H15A C15A 1_555 1_555
C16A H16A 1_555 1_555
C17A C13A 1_555 1_555
H17A C17A 1_555 1_555
N4A C15A 1_555 1_555
Ni1_2 O1A 1_555 1_555
Ni2_2 O6A 1_555 1_555
Ni2_3 N4 1_555 1_555
Ni2A_2 N4A 1_555 1_555
Ni2A_3 O6 1_555 1_555
O1A_2 Ni1 1_555 1_555
O4A_2 Ni1 1_555 1_555
O6_2 Ni2A 1_555 1_555
O6A_2 Ni2 1_555 1_555
N4_2 Ni2 1_555 1_555
N4A_2 Ni2A 1_555 1_555
C1 O7 1_555 1_555
C4 C5 1_555 1_555
P2 O4 1_555 1_555
P2 O5 1_555 1_555
C9 C10 1_555 1_555
C16 C17 1_555 1_555
C16 N4 1_555 1_555
C1A O7A 1_555 1_555
C3A N2A 1_555 1_555
C4A C5A 1_555 1_555
P1A O2A 1_555 1_555
P2A O5A 1_555 1_555
O4A Ni1_2 1_555 1_555
C9A C10A 1_555 1_555
C16A C17A 1_555 1_555
C16A N4A 1_555 1_555

#END
