
#######################################################################
#
#                 Cambridge Crystallographic Data Centre
#                                CCDC 
#
#######################################################################
#
# If this CIF has been generated from an entry in the Cambridge 
# Structural Database, then it will include bibliographic, chemical, 
# crystal, experimental, refinement or atomic coordinate data resulting 
# from the CCDC's data processing and validation procedures.
#
#######################################################################

data_ERUVEU
_chemical_formula_moiety         '(C8 H12 Cd2 N18 O1)n'
_symmetry_cell_setting           monoclinic
_symmetry_space_group_name_H-M   'C 2/c'
_symmetry_Int_Tables_number      15
_space_group_name_Hall           '-C 2yc'
loop_
_symmetry_equiv_pos_site_id
_symmetry_equiv_pos_as_xyz
1 x,y,z
2 -x,y,1/2-z
3 1/2+x,1/2+y,z
4 1/2-x,1/2+y,1/2-z
5 -x,-y,-z
6 x,-y,1/2+z
7 1/2-x,1/2-y,-z
8 1/2+x,1/2-y,1/2+z
_cell_length_a                   21.6492(7)
_cell_length_b                   9.9528(3)
_cell_length_c                   8.4146(3)
_cell_angle_alpha                90
_cell_angle_beta                 105.5970(10)
_cell_angle_gamma                90
_cell_volume                     1746.33
loop_
_atom_site_label
_atom_site_type_symbol
_atom_site_fract_x
_atom_site_fract_y
_atom_site_fract_z
H1 H 0.5705(19) 1.163(4) -0.169(5)
C1 C 0.61871(11) 1.3282(2) -0.3750(3)
C2 C 0.64279(13) 1.2773(3) -0.2028(3)
H2 H 0.6700 1.3446 -0.1350
H3 H 0.6683 1.1970 -0.2021
C3 C 0.66168(12) 1.1303(3) 0.1065(3)
C4 C 0.61081(14) 1.2367(3) 0.0490(3)
H4 H 0.5746 1.2164 0.0924
H5 H 0.6280 1.3230 0.0931
Cd1 Cd 0.7500 0.7500 0.0000
N1 N 0.56326(11) 1.3921(2) -0.4292(3)
N2 N 0.56148(10) 1.4327(2) -0.5832(3)
N3 N 0.61359(11) 1.3940(2) -0.6197(3)
N4 N 0.65041(10) 1.3265(2) -0.4911(3)
N5 N 0.66227(11) 1.0165(2) 0.0239(3)
N6 N 0.71588(11) 0.9525(2) 0.1096(3)
N7 N 0.74545(11) 1.0229(2) 0.2382(3)
N8 N 0.71189(11) 1.1378(2) 0.2388(3)
N9 N 0.58815(11) 1.2459(2) -0.1332(3)
Cd2 Cd 0.5000 1.40325(2) -0.2500
H1A H 0.4295(19) 1.163(4) -0.331(5)
C1A C 0.38129(11) 1.3282(2) -0.1250(3)
C2A C 0.35721(13) 1.2773(3) -0.2972(3)
H2A H 0.3300 1.3446 -0.3650
H3A H 0.3317 1.1970 -0.2979
C3A C 0.33832(12) 1.1303(3) -0.6065(3)
C4A C 0.38919(14) 1.2367(3) -0.5490(3)
H4A H 0.4254 1.2164 -0.5924
H5A H 0.3720 1.3230 -0.5931
N1A N 0.43674(11) 1.3921(2) -0.0708(3)
N2A N 0.43852(10) 1.4327(2) 0.0832(3)
N3A N 0.38641(11) 1.3940(2) 0.1197(3)
N4A N 0.34959(10) 1.3265(2) -0.0089(3)
N5A N 0.33773(11) 1.0165(2) -0.5239(3)
N6A N 0.28412(11) 0.9525(2) -0.6096(3)
N7A N 0.25455(11) 1.0229(2) -0.7382(3)
N8A N 0.28811(11) 1.1378(2) -0.7388(3)
N9A N 0.41185(11) 1.2459(2) -0.3668(3)
Cd1A Cd 0.2500 0.7500 -0.5000
Cd1B Cd 0.2500 1.2500 -1.0000
Cd1B_2 Cd 0.2500 1.2500 0.0000
Cd1C Cd 0.7500 1.2500 -0.5000
Cd1C_2 Cd 0.7500 1.2500 0.5000
N2D N 0.43852(10) 1.5673(2) -0.4168(3)
N2E N 0.56148(10) 1.5673(2) -0.0832(3)
N4C N 0.84959(10) 0.8265(2) -0.0089(3)
N4E N 0.65041(10) 0.6735(2) 0.0089(3)
N6F N 0.78412(11) 0.5475(2) -0.1096(3)
N8C N 0.78811(11) 0.6378(2) 0.2612(3)
N8E N 0.71189(11) 0.8622(2) -0.2612(3)
Cd2D Cd 0.5000 1.59675(2) -0.7500
Cd2D_2 Cd 0.5000 1.59675(2) 0.2500
O1 O 0.5315(4) 0.9307(8) 0.9100(10)
H6 H 0.529(7) 0.933(13) 1.003(7)
H7 H 0.542(6) 0.958(13) 0.828(11)
loop_
_geom_bond_atom_site_label_1
_geom_bond_atom_site_label_2
_geom_bond_site_symmetry_1
_geom_bond_site_symmetry_2
H1 N9 1_555 1_555
C1 C2 1_555 1_555
C2 H2 1_555 1_555
H3 C2 1_555 1_555
C3 C4 1_555 1_555
C4 H4 1_555 1_555
H5 C4 1_555 1_555
Cd1 N6 1_555 1_555
N1 C1 1_555 1_555
N2 N1 1_555 1_555
N3 N2 1_555 1_555
N4 C1 1_555 1_555
N5 C3 1_555 1_555
N6 N5 1_555 1_555
N7 N6 1_555 1_555
N8 C3 1_555 1_555
N9 C2 1_555 1_555
Cd2 N1 1_555 1_555
O1 H6 1_555 1_555
H7 O1 1_555 1_555
H1A N9A 1_555 1_555
C1A C2A 1_555 1_555
C2A H2A 1_555 1_555
H3A C2A 1_555 1_555
C3A C4A 1_555 1_555
C4A H4A 1_555 1_555
H5A C4A 1_555 1_555
N1A Cd2 1_555 1_555
N2A N1A 1_555 1_555
N3A N2A 1_555 1_555
N4A C1A 1_555 1_555
N5A C3A 1_555 1_555
N6A N5A 1_555 1_555
N7A N6A 1_555 1_555
N8A C3A 1_555 1_555
N9A Cd2 1_555 1_555
Cd1A N6A 1_555 1_555
Cd1B N8A 1_555 1_555
Cd1B_2 N4A 1_555 1_555
Cd1C N4 1_555 1_555
Cd1C_2 N8 1_555 1_555
N2D Cd2 1_555 1_555
N2E Cd2 1_555 1_555
N4C Cd1 1_555 1_555
N4E Cd1 1_555 1_555
N6F Cd1 1_555 1_555
N8C Cd1 1_555 1_555
N8E Cd1 1_555 1_555
Cd2D N2 1_555 1_555
Cd2D_2 N2A 1_555 1_555
C4 N9 1_555 1_555
N3 N4 1_555 1_555
N7 N8 1_555 1_555
N9 Cd2 1_555 1_555
C1A N1A 1_555 1_555
C2A N9A 1_555 1_555
C4A N9A 1_555 1_555
N3A N4A 1_555 1_555
N7A N8A 1_555 1_555

#END
