
#######################################################################
#
#                 Cambridge Crystallographic Data Centre
#                                CCDC 
#
#######################################################################
#
# If this CIF has been generated from an entry in the Cambridge 
# Structural Database, then it will include bibliographic, chemical, 
# crystal, experimental, refinement or atomic coordinate data resulting 
# from the CCDC's data processing and validation procedures.
#
#######################################################################

data_MOYYOP
_chemical_formula_moiety         'C116 H88 Mn1 N11 O17 Zn10 1-'
_symmetry_cell_setting           tetragonal
_symmetry_space_group_name_H-M   'I 4/m m m'
_symmetry_Int_Tables_number      139
_space_group_name_Hall           '-I 4 2'
loop_
_symmetry_equiv_pos_site_id
_symmetry_equiv_pos_as_xyz
1 x,y,z
2 -x,-y,z
3 -y,x,z
4 y,-x,z
5 -x,y,-z
6 x,-y,-z
7 y,x,-z
8 -y,-x,-z
9 1/2+x,1/2+y,1/2+z
10 1/2-x,1/2-y,1/2+z
11 1/2-y,1/2+x,1/2+z
12 1/2+y,1/2-x,1/2+z
13 1/2-x,1/2+y,1/2-z
14 1/2+x,1/2-y,1/2-z
15 1/2+y,1/2+x,1/2-z
16 1/2-y,1/2-x,1/2-z
17 -x,-y,-z
18 x,y,-z
19 y,-x,-z
20 -y,x,-z
21 x,-y,z
22 -x,y,z
23 -y,-x,z
24 y,x,z
25 1/2-x,1/2-y,1/2-z
26 1/2+x,1/2+y,1/2-z
27 1/2+y,1/2-x,1/2-z
28 1/2-y,1/2+x,1/2-z
29 1/2+x,1/2-y,1/2+z
30 1/2-x,1/2+y,1/2+z
31 1/2-y,1/2-x,1/2+z
32 1/2+y,1/2+x,1/2+z
_cell_length_a                   16.6609(11)
_cell_length_b                   16.6609(11)
_cell_length_c                   25.688(2)
_cell_angle_alpha                90
_cell_angle_beta                 90
_cell_angle_gamma                90
_cell_volume                     7130.62
loop_
_atom_site_label
_atom_site_type_symbol
_atom_site_fract_x
_atom_site_fract_y
_atom_site_fract_z
N4 N 0.2790(18) -0.0000 0.1433(12)
O2 O 0.2429(17) -0.0635(3) 0.1435(12)
O3 O 0.3522(17) 0.0000 0.1422(15)
O2T O 0.2429(17) 0.0635(3) 0.1435(12)
Zn1 Zn 1.5000 -0.5000 -0.05633(3)
Mn1 Mn 1.0000 0.0000 0.0000
O1 O 1.41557(14) -0.41557(14) -0.04233(15)
N1 N 1.0000(3) -0.1208 0.0000
C1 C 1.0659(2) -0.1708(2) 0.0000
C2 C 1.0402(2) -0.2527(3) 0.0000
H1 H 1.0739 -0.2987 0.0000
C3 C 1.1465(2) -0.1465(2) 0.0000
C4 C 1.2092(2) -0.2092(2) 0.0000
C5 C 1.2388(2) -0.2388(2) 0.0451(2)
H2 H 1.2187 -0.2187 0.0772
C6 C 1.2975(2) -0.2975(2) 0.0459(2)
H3 H 1.3171 -0.3171 0.0783
C7 C 1.3278(2) -0.3278(2) 0.0000
C8 C 1.3913(3) -0.3913(3) 0.0000
N2 N 1.0000 0.0000 -0.0913(3)
N3 N 1.0000 0.0000 -0.3650(3)
C9 C 1.0000 0.0000 -0.1980(3)
C10 C 1.0000 0.0000 -0.2568(3)
C11 C 0.9365(6) -0.0273(7) -0.1183(4)
H4 H 0.8916 -0.0476 -0.0996
C12 C 0.9337(6) -0.0272(7) -0.1722(3)
H5 H 0.8875 -0.0453 -0.1905
C13 C 0.9364(7) 0.0307(9) -0.2851(3)
H6 H 0.8912 0.0523 -0.2675
C14 C 0.9700(8) 0.0617(8) -0.3378(3)
H7 H 0.9482 0.1060 -0.3563
Zn1D Zn 1.5000 -0.5000 0.05633(3)
Zn1L Zn 1.0000 0.0000 -0.44367(3)
Zn1D_2 Zn 1.5000 0.5000 0.05633(3)
Zn1_2 Zn 1.5000 0.5000 -0.05633(3)
Zn1D_3 Zn 0.5000 0.5000 0.05633(3)
Zn1_3 Zn 0.5000 0.5000 -0.05633(3)
Zn1D_4 Zn 0.5000 -0.5000 0.05633(3)
Zn1_4 Zn 0.5000 -0.5000 -0.05633(3)
Zn1H Zn 1.0000 0.0000 0.44367(3)
O1G O 1.41557(14) -0.41557(14) 0.04233(15)
O1E O 1.41557(14) 0.41557(14) 0.04233(15)
O1B O 1.41557(14) 0.41557(14) -0.04233(15)
O1F O 0.58443(14) 0.41557(14) 0.04233(15)
O1A O 0.58443(14) 0.41557(14) -0.04233(15)
O1D O 0.58443(14) -0.41557(14) 0.04233(15)
O1C O 0.58443(14) -0.41557(14) -0.04233(15)
O1A_2 O 1.58443(14) -0.58443(14) -0.04233(15)
O1B_2 O 1.41557(14) -0.58443(14) -0.04233(15)
O1C_2 O 1.58443(14) -0.41557(14) -0.04233(15)
O1F_2 O 1.58443(14) -0.58443(14) 0.04233(15)
O1D_2 O 1.58443(14) -0.41557(14) 0.04233(15)
O1E_2 O 1.41557(14) -0.58443(14) 0.04233(15)
N1C N 0.8792 0.0000(3) 0.0000
N1A N 1.0000(3) 0.1208 0.0000
N1B N 1.1208 0.0000(3) 0.0000
C1D C 0.9341(2) -0.1708(2) 0.0000
C1C C 0.8292(2) -0.0659(2) 0.0000
C1F C 0.8292(2) 0.0659(2) 0.0000
C1A C 0.9341(2) 0.1708(2) 0.0000
C1E C 1.0659(2) 0.1708(2) 0.0000
C1B C 1.1708(2) 0.0659(2) 0.0000
C1G C 1.1708(2) -0.0659(2) 0.0000
C2D C 0.9598(2) -0.2527(3) 0.0000
C2F C 0.7473(3) 0.0402(2) 0.0000
C2C C 0.7473(3) -0.0402(2) 0.0000
C2E C 1.0402(2) 0.2527(3) 0.0000
C2A C 0.9598(2) 0.2527(3) 0.0000
C2G C 1.2527(3) -0.0402(2) 0.0000
C2B C 1.2527(3) 0.0402(2) 0.0000
H1D H 0.9261 -0.2987 0.0000
H1C H 0.7013 -0.0739 0.0000
H1F H 0.7013 0.0739 0.0000
H1A H 0.9261 0.2987 0.0000
H1E H 1.0739 0.2987 0.0000
H1B H 1.2987 0.0739 0.0000
H1G H 1.2987 -0.0739 0.0000
C3C C 0.8535(2) -0.1465(2) 0.0000
C3A C 0.8535(2) 0.1465(2) 0.0000
C3B C 1.1465(2) 0.1465(2) 0.0000
C4B C 1.2092(2) 0.2092(2) 0.0000
C4A C 0.7908(2) 0.2092(2) 0.0000
C4C C 0.7908(2) -0.2092(2) 0.0000
C5E C 1.2388(2) 0.2388(2) -0.0451(2)
C5B C 1.2388(2) 0.2388(2) 0.0451(2)
C5F C 0.7612(2) 0.2388(2) -0.0451(2)
C5A C 0.7612(2) 0.2388(2) 0.0451(2)
C5D C 0.7612(2) -0.2388(2) -0.0451(2)
C5C C 0.7612(2) -0.2388(2) 0.0451(2)
C5G C 1.2388(2) -0.2388(2) -0.0451(2)
H2E H 1.2187 0.2187 -0.0772
H2B H 1.2187 0.2187 0.0772
H2F H 0.7813 0.2187 -0.0772
H2A H 0.7813 0.2187 0.0772
H2D H 0.7813 -0.2187 -0.0772
H2C H 0.7813 -0.2187 0.0772
H2G H 1.2187 -0.2187 -0.0772
C6E C 1.2975(2) 0.2975(2) -0.0459(2)
C6B C 1.2975(2) 0.2975(2) 0.0459(2)
C6F C 0.7025(2) 0.2975(2) -0.0459(2)
C6A C 0.7025(2) 0.2975(2) 0.0459(2)
C6D C 0.7025(2) -0.2975(2) -0.0459(2)
C6C C 0.7025(2) -0.2975(2) 0.0459(2)
C6G C 1.2975(2) -0.2975(2) -0.0459(2)
H3E H 1.3171 0.3171 -0.0783
H3B H 1.3171 0.3171 0.0783
H3F H 0.6829 0.3171 -0.0783
H3A H 0.6829 0.3171 0.0783
H3D H 0.6829 -0.3171 -0.0783
H3C H 0.6829 -0.3171 0.0783
H3G H 1.3171 -0.3171 -0.0783
C7B C 1.3278(2) 0.3278(2) 0.0000
C7A C 0.6722(2) 0.3278(2) 0.0000
C7C C 0.6722(2) -0.3278(2) 0.0000
C8B C 1.3913(3) 0.3913(3) 0.0000
C8A C 0.6087(3) 0.3913(3) 0.0000
C8C C 0.6087(3) -0.3913(3) 0.0000
N2D N 1.0000 0.0000 0.0913(3)
N3D N 1.0000 -0.0000 0.3650(3)
N3L N 1.5000 -0.5000 -0.1350(3)
N3H N 1.5000 -0.5000 0.1350(3)
C9D C 1.0000 0.0000 0.1980(3)
C10D C 1.0000 0.0000 0.2568(3)
C11C C 0.9727(7) 0.0635(6) -0.1183(4)
C11A C 1.0635(6) 0.0273(7) -0.1183(4)
C11B C 1.0273(7) -0.0635(6) -0.1183(4)
C11T C 0.9365(6) 0.0273(7) -0.1183(4)
C11W C 0.9727(7) -0.0635(6) -0.1183(4)
C11U C 1.0635(6) -0.0273(7) -0.1183(4)
C11V C 1.0273(7) 0.0635(6) -0.1183(4)
C11D C 1.0635(6) -0.0273(7) 0.1183(4)
C11G C 1.0273(7) 0.0635(6) 0.1183(4)
C11E C 0.9365(6) 0.0273(7) 0.1183(4)
C11F C 0.9727(7) -0.0635(6) 0.1183(4)
C11P C 1.0635(6) 0.0273(7) 0.1183(4)
C11S C 1.0273(7) -0.0635(6) 0.1183(4)
C11Q C 0.9365(6) -0.0273(7) 0.1183(4)
C11R C 0.9727(7) 0.0635(6) 0.1183(4)
H4A H 1.1084 0.0476 -0.0996
H4T H 0.8916 0.0476 -0.0996
H4U H 1.1084 -0.0476 -0.0996
H4V H 1.0476 0.1084 -0.0996
H4B H 1.0476 -0.1084 -0.0996
H4W H 0.9524 -0.1084 -0.0996
H4C H 0.9524 0.1084 -0.0996
H4D H 1.1084 -0.0476 0.0996
H4E H 0.8916 0.0476 0.0996
H4P H 1.1084 0.0476 0.0996
H4Q H 0.8916 -0.0476 0.0996
H4R H 0.9524 0.1084 0.0996
H4F H 0.9524 -0.1084 0.0996
H4S H 1.0476 -0.1084 0.0996
H4G H 1.0476 0.1084 0.0996
C12A C 1.0663(6) 0.0272(7) -0.1722(3)
C12T C 0.9337(6) 0.0272(7) -0.1722(3)
C12B C 1.0272(7) -0.0663(6) -0.1722(3)
C12U C 1.0663(6) -0.0272(7) -0.1722(3)
C12C C 0.9728(7) 0.0663(6) -0.1722(3)
C12V C 1.0272(7) 0.0663(6) -0.1722(3)
C12W C 0.9728(7) -0.0663(6) -0.1722(3)
C12D C 1.0663(6) -0.0272(7) 0.1722(3)
C12E C 0.9337(6) 0.0272(7) 0.1722(3)
C12P C 1.0663(6) 0.0272(7) 0.1722(3)
C12F C 0.9728(7) -0.0663(6) 0.1722(3)
C12Q C 0.9337(6) -0.0272(7) 0.1722(3)
C12G C 1.0272(7) 0.0663(6) 0.1722(3)
C12R C 0.9728(7) 0.0663(6) 0.1722(3)
C12S C 1.0272(7) -0.0663(6) 0.1722(3)
H5W H 0.9547 -0.1125 -0.1905
H5U H 1.1125 -0.0453 -0.1905
H5V H 1.0453 0.1125 -0.1905
H5T H 0.8875 0.0453 -0.1905
H5B H 1.0453 -0.1125 -0.1905
H5C H 0.9547 0.1125 -0.1905
H5A H 1.1125 0.0453 -0.1905
H5D H 1.1125 -0.0453 0.1905
H5S H 1.0453 -0.1125 0.1905
H5Q H 0.8875 -0.0453 0.1905
H5R H 0.9547 0.1125 0.1905
H5P H 1.1125 0.0453 0.1905
H5F H 0.9547 -0.1125 0.1905
H5G H 1.0453 0.1125 0.1905
H5E H 0.8875 0.0453 0.1905
C13C C 1.0307(9) 0.0636(7) -0.2851(3)
C13A C 1.0636(7) -0.0307(9) -0.2851(3)
C13B C 0.9693(9) -0.0636(7) -0.2851(3)
C13T C 0.9364(7) -0.0307(9) -0.2851(3)
C13W C 1.0307(9) -0.0636(7) -0.2851(3)
C13U C 1.0636(7) 0.0307(9) -0.2851(3)
C13V C 0.9693(9) 0.0636(7) -0.2851(3)
C13D C 1.0636(7) 0.0307(9) 0.2851(3)
C13G C 0.9693(9) 0.0636(7) 0.2851(3)
C13E C 0.9364(7) -0.0307(9) 0.2851(3)
C13F C 1.0307(9) -0.0636(7) 0.2851(3)
C13P C 1.0636(7) -0.0307(9) 0.2851(3)
C13S C 0.9693(9) -0.0636(7) 0.2851(3)
C13Q C 0.9364(7) 0.0307(9) 0.2851(3)
C13R C 1.0307(9) 0.0636(7) 0.2851(3)
H6T H 0.8912 -0.0523 -0.2675
H6B H 0.9477 -0.1088 -0.2675
H6C H 1.0523 0.1088 -0.2675
H6U H 1.1088 0.0523 -0.2675
H6V H 0.9477 0.1088 -0.2675
H6A H 1.1088 -0.0523 -0.2675
H6W H 1.0523 -0.1088 -0.2675
H6D H 1.1088 0.0523 0.2675
H6P H 1.1088 -0.0523 0.2675
H6F H 1.0523 -0.1088 0.2675
H6G H 0.9477 0.1088 0.2675
H6Q H 0.8912 0.0523 0.2675
H6R H 1.0523 0.1088 0.2675
H6E H 0.8912 -0.0523 0.2675
H6S H 0.9477 -0.1088 0.2675
C14T C 0.9700(8) -0.0617(8) -0.3378(3)
C14B C 0.9383(8) -0.0300(8) -0.3378(3)
C14A C 1.0300(8) -0.0617(8) -0.3378(3)
C14C C 1.0617(8) 0.0300(8) -0.3378(3)
C14U C 1.0300(8) 0.0617(8) -0.3378(3)
C14W C 1.0617(8) -0.0300(8) -0.3378(3)
C14V C 0.9383(8) 0.0300(8) -0.3378(3)
C14D C 1.0300(8) 0.0617(8) 0.3378(3)
C14P C 1.0300(8) -0.0617(8) 0.3378(3)
C14F C 1.0617(8) -0.0300(8) 0.3378(3)
C14E C 0.9700(8) -0.0617(8) 0.3378(3)
C14G C 0.9383(8) 0.0300(8) 0.3378(3)
C14Q C 0.9700(8) 0.0617(8) 0.3378(3)
C14S C 0.9383(8) -0.0300(8) 0.3378(3)
C14R C 1.0617(8) 0.0300(8) 0.3378(3)
H7B H 0.8940 -0.0518 -0.3563
H7C H 1.1060 0.0518 -0.3563
H7A H 1.0518 -0.1060 -0.3563
H7V H 0.8940 0.0518 -0.3563
H7T H 0.9482 -0.1060 -0.3563
H7W H 1.1060 -0.0518 -0.3563
H7U H 1.0518 0.1060 -0.3563
H7D H 1.0518 0.1060 0.3563
H7F H 1.1060 -0.0518 0.3563
H7G H 0.8940 0.0518 0.3563
H7E H 0.9482 -0.1060 0.3563
H7R H 1.1060 0.0518 0.3563
H7P H 1.0518 -0.1060 0.3563
H7S H 0.8940 -0.0518 0.3563
H7Q H 0.9482 0.1060 0.3563
loop_
_geom_bond_atom_site_label_1
_geom_bond_atom_site_label_2
_geom_bond_site_symmetry_1
_geom_bond_site_symmetry_2
Zn1 O1 1_555 1_555
Mn1 N1 1_555 1_555
O1 C8 1_555 1_555
N1 C1 1_555 1_555
C1 C2 1_555 1_555
C2 H1 1_555 1_555
C3 C1 1_555 1_555
C4 C3 1_555 1_555
C5 C4 1_555 1_555
H2 C5 1_555 1_555
C6 C5 1_555 1_555
H3 C6 1_555 1_555
C7 C6 1_555 1_555
C8 C7 1_555 1_555
N2 Mn1 1_555 1_555
N3 C14 1_555 1_555
C9 C10 1_555 1_555
C10 C13 1_555 1_555
C11 N2 1_555 1_555
H4 C11 1_555 1_555
C12 C9 1_555 1_555
H5 C12 1_555 1_555
C13 H6 1_555 1_555
C14 C13 1_555 1_555
H7 C14 1_555 1_555
N4 O2 1_555 1_555
O3 N4 1_555 1_555
Zn1D O1G 1_555 1_555
Zn1L N3 1_555 1_555
Zn1D_2 O1E 1_555 1_555
Zn1_2 O1B 1_555 1_555
Zn1D_3 O1F 1_555 1_555
Zn1_3 O1A 1_555 1_555
Zn1D_4 O1D 1_555 1_555
Zn1_4 O1C 1_555 1_555
Zn1H N3D 1_555 1_555
O1G C8 1_555 1_555
O1E C8B 1_555 1_555
O1B C8B 1_555 1_555
O1F C8A 1_555 1_555
O1A C8A 1_555 1_555
O1D C8C 1_555 1_555
O1C C8C 1_555 1_555
O1A_2 Zn1 1_555 1_555
O1B_2 Zn1 1_555 1_555
O1C_2 Zn1 1_555 1_555
O1F_2 Zn1D 1_555 1_555
O1D_2 Zn1D 1_555 1_555
O1E_2 Zn1D 1_555 1_555
N1C Mn1 1_555 1_555
N1A Mn1 1_555 1_555
N1B Mn1 1_555 1_555
C1D N1 1_555 1_555
C1C N1C 1_555 1_555
C1F N1C 1_555 1_555
C1A N1A 1_555 1_555
C1E N1A 1_555 1_555
C1B N1B 1_555 1_555
C1G C3 1_555 1_555
C2D C2 1_555 1_555
C2F C1F 1_555 1_555
C2C C1C 1_555 1_555
C2E C1E 1_555 1_555
C2A C1A 1_555 1_555
C2G C1G 1_555 1_555
C2B C1B 1_555 1_555
H1D C2D 1_555 1_555
H1C C2C 1_555 1_555
H1F C2F 1_555 1_555
H1A C2A 1_555 1_555
H1E C2E 1_555 1_555
H1B C2B 1_555 1_555
H1G C2G 1_555 1_555
C3C C1D 1_555 1_555
C3A C1F 1_555 1_555
C3B C1E 1_555 1_555
C4B C3B 1_555 1_555
C4A C3A 1_555 1_555
C4C C3C 1_555 1_555
C5E C4B 1_555 1_555
C5B C4B 1_555 1_555
C5F C4A 1_555 1_555
C5A C4A 1_555 1_555
C5D C4C 1_555 1_555
C5C C4C 1_555 1_555
C5G C4 1_555 1_555
H2E C5E 1_555 1_555
H2B C5B 1_555 1_555
H2F C5F 1_555 1_555
H2A C5A 1_555 1_555
H2D C5D 1_555 1_555
H2C C5C 1_555 1_555
H2G C5G 1_555 1_555
C6E C5E 1_555 1_555
C6B C5B 1_555 1_555
C6F C5F 1_555 1_555
C6A C5A 1_555 1_555
C6D C5D 1_555 1_555
C6C C5C 1_555 1_555
C6G C7 1_555 1_555
H3E C6E 1_555 1_555
H3B C6B 1_555 1_555
H3F C6F 1_555 1_555
H3A C6A 1_555 1_555
H3D C6D 1_555 1_555
H3C C6C 1_555 1_555
H3G C6G 1_555 1_555
C7B C6E 1_555 1_555
C7A C6F 1_555 1_555
C7C C6D 1_555 1_555
C8B C7B 1_555 1_555
C8A C7A 1_555 1_555
C8C C7C 1_555 1_555
N2D Mn1 1_555 1_555
N3D C14D 1_555 1_555
N3L Zn1 1_555 1_555
N3H Zn1D 1_555 1_555
C9D C10D 1_555 1_555
C10D C13D 1_555 1_555
C11C N2 1_555 1_555
C11A N2 1_555 1_555
C11B N2 1_555 1_555
C11T N2 1_555 1_555
C11W N2 1_555 1_555
C11U N2 1_555 1_555
C11V N2 1_555 1_555
C11D N2D 1_555 1_555
C11G N2D 1_555 1_555
C11E N2D 1_555 1_555
C11F N2D 1_555 1_555
C11P N2D 1_555 1_555
C11S N2D 1_555 1_555
C11Q N2D 1_555 1_555
C11R N2D 1_555 1_555
H4A C11A 1_555 1_555
H4T C11T 1_555 1_555
H4U C11U 1_555 1_555
H4V C11V 1_555 1_555
H4B C11B 1_555 1_555
H4W C11W 1_555 1_555
H4C C11C 1_555 1_555
H4D C11D 1_555 1_555
H4E C11E 1_555 1_555
H4P C11P 1_555 1_555
H4Q C11Q 1_555 1_555
H4R C11R 1_555 1_555
H4F C11F 1_555 1_555
H4S C11S 1_555 1_555
H4G C11G 1_555 1_555
C12A C9 1_555 1_555
C12T C9 1_555 1_555
C12B C9 1_555 1_555
C12U C9 1_555 1_555
C12C C9 1_555 1_555
C12V C9 1_555 1_555
C12W C9 1_555 1_555
C12D C9D 1_555 1_555
C12E C9D 1_555 1_555
C12P C9D 1_555 1_555
C12F C9D 1_555 1_555
C12Q C9D 1_555 1_555
C12G C9D 1_555 1_555
C12R C9D 1_555 1_555
C12S C9D 1_555 1_555
H5W C12W 1_555 1_555
H5U C12U 1_555 1_555
H5V C12V 1_555 1_555
H5T C12T 1_555 1_555
H5B C12B 1_555 1_555
H5C C12C 1_555 1_555
H5A C12A 1_555 1_555
H5D C12D 1_555 1_555
H5S C12S 1_555 1_555
H5Q C12Q 1_555 1_555
H5R C12R 1_555 1_555
H5P C12P 1_555 1_555
H5F C12F 1_555 1_555
H5G C12G 1_555 1_555
H5E C12E 1_555 1_555
C13C C10 1_555 1_555
C13A C10 1_555 1_555
C13B C10 1_555 1_555
C13T C10 1_555 1_555
C13W C10 1_555 1_555
C13U C10 1_555 1_555
C13V C10 1_555 1_555
C13D C13G 1_555 1_555
C13G C10D 1_555 1_555
C13E C10D 1_555 1_555
C13F C10D 1_555 1_555
C13P C10D 1_555 1_555
C13S C10D 1_555 1_555
C13Q C10D 1_555 1_555
C13R C10D 1_555 1_555
H6T C13T 1_555 1_555
H6B C13B 1_555 1_555
H6C C13C 1_555 1_555
H6U C13U 1_555 1_555
H6V C13V 1_555 1_555
H6A C13A 1_555 1_555
H6W C13W 1_555 1_555
H6D C13D 1_555 1_555
H6P C13P 1_555 1_555
H6F C13F 1_555 1_555
H6G C13G 1_555 1_555
H6Q C13Q 1_555 1_555
H6R C13R 1_555 1_555
H6E C13E 1_555 1_555
H6S C13S 1_555 1_555
C14T N3 1_555 1_555
C14B N3 1_555 1_555
C14A N3 1_555 1_555
C14C N3 1_555 1_555
C14U N3 1_555 1_555
C14W N3 1_555 1_555
C14V N3 1_555 1_555
C14D C13D 1_555 1_555
C14P N3D 1_555 1_555
C14F N3D 1_555 1_555
C14E N3D 1_555 1_555
C14G N3D 1_555 1_555
C14Q N3D 1_555 1_555
C14S N3D 1_555 1_555
C14R N3D 1_555 1_555
H7B C14B 1_555 1_555
H7C C14C 1_555 1_555
H7A C14A 1_555 1_555
H7V C14V 1_555 1_555
H7T C14T 1_555 1_555
H7W C14W 1_555 1_555
H7U C14U 1_555 1_555
H7D C14D 1_555 1_555
H7F C14F 1_555 1_555
H7G C14G 1_555 1_555
H7E C14E 1_555 1_555
H7R C14R 1_555 1_555
H7P C14P 1_555 1_555
H7S C14S 1_555 1_555
H7Q C14Q 1_555 1_555
O2T N4 1_555 1_555
C11 C12 1_555 1_555
C11 C11C 1_555 1_555
C11 C11B 1_555 1_555
C11 C11T 1_555 1_555
C11 C11W 1_555 1_555
C11 C12T 1_555 1_555
C11 C12W 1_555 1_555
C12 C11T 1_555 1_555
C12 C11W 1_555 1_555
C12 C12T 1_555 1_555
C12 C12B 1_555 1_555
C12 C12C 1_555 1_555
C12 C12W 1_555 1_555
C13 C13C 1_555 1_555
C13 C13B 1_555 1_555
C13 C13T 1_555 1_555
C13 C13V 1_555 1_555
C13 C14B 1_555 1_555
C13 C14V 1_555 1_555
C14 C13C 1_555 1_555
C14 C13V 1_555 1_555
C14 C14B 1_555 1_555
C14 C14C 1_555 1_555
C14 C14U 1_555 1_555
C14 C14V 1_555 1_555
N1B C1G 1_555 1_555
C1D C2D 1_555 1_555
C1C C3C 1_555 1_555
C1A C3A 1_555 1_555
C1B C3B 1_555 1_555
C2F C2C 1_555 1_555
C2E C2A 1_555 1_555
C2G C2B 1_555 1_555
C5G C6G 1_555 1_555
C6B C7B 1_555 1_555
C6A C7A 1_555 1_555
C6C C7C 1_555 1_555
C11C C11A 1_555 1_555
C11C C11T 1_555 1_555
C11C C11V 1_555 1_555
C11C C12T 1_555 1_555
C11C C12C 1_555 1_555
C11C C12V 1_555 1_555
C11A C11B 1_555 1_555
C11A C11U 1_555 1_555
C11A C11V 1_555 1_555
C11A C12A 1_555 1_555
C11A C12U 1_555 1_555
C11A C12V 1_555 1_555
C11B C11W 1_555 1_555
C11B C11U 1_555 1_555
C11B C12B 1_555 1_555
C11B C12U 1_555 1_555
C11B C12W 1_555 1_555
C11T C11W 1_555 1_555
C11T C11V 1_555 1_555
C11T C12T 1_555 1_555
C11T C12C 1_555 1_555
C11W C11U 1_555 1_555
C11W C12B 1_555 1_555
C11W C12W 1_555 1_555
C11U C11V 1_555 1_555
C11U C12A 1_555 1_555
C11U C12B 1_555 1_555
C11U C12U 1_555 1_555
C11V C12A 1_555 1_555
C11V C12C 1_555 1_555
C11V C12V 1_555 1_555
C11D C11G 1_555 1_555
C11D C11F 1_555 1_555
C11D C11P 1_555 1_555
C11D C11S 1_555 1_555
C11D C12D 1_555 1_555
C11D C12P 1_555 1_555
C11D C12S 1_555 1_555
C11G C11E 1_555 1_555
C11G C11P 1_555 1_555
C11G C11R 1_555 1_555
C11G C12P 1_555 1_555
C11G C12G 1_555 1_555
C11G C12R 1_555 1_555
C11E C11F 1_555 1_555
C11E C11Q 1_555 1_555
C11E C11R 1_555 1_555
C11E C12E 1_555 1_555
C11E C12Q 1_555 1_555
C11E C12R 1_555 1_555
C11F C11S 1_555 1_555
C11F C11Q 1_555 1_555
C11F C12F 1_555 1_555
C11F C12Q 1_555 1_555
C11F C12S 1_555 1_555
C11P C11S 1_555 1_555
C11P C11R 1_555 1_555
C11P C12D 1_555 1_555
C11P C12P 1_555 1_555
C11P C12G 1_555 1_555
C11S C11Q 1_555 1_555
C11S C12D 1_555 1_555
C11S C12F 1_555 1_555
C11S C12S 1_555 1_555
C11Q C11R 1_555 1_555
C11Q C12E 1_555 1_555
C11Q C12F 1_555 1_555
C11Q C12Q 1_555 1_555
C11R C12E 1_555 1_555
C11R C12G 1_555 1_555
C11R C12R 1_555 1_555
C12A C12B 1_555 1_555
C12A C12U 1_555 1_555
C12A C12C 1_555 1_555
C12A C12V 1_555 1_555
C12T C12C 1_555 1_555
C12T C12V 1_555 1_555
C12T C12W 1_555 1_555
C12B C12U 1_555 1_555
C12B C12W 1_555 1_555
C12U C12V 1_555 1_555
C12U C12W 1_555 1_555
C12C C12V 1_555 1_555
C12D C12P 1_555 1_555
C12D C12F 1_555 1_555
C12D C12G 1_555 1_555
C12D C12S 1_555 1_555
C12E C12F 1_555 1_555
C12E C12Q 1_555 1_555
C12E C12G 1_555 1_555
C12E C12R 1_555 1_555
C12P C12G 1_555 1_555
C12P C12R 1_555 1_555
C12P C12S 1_555 1_555
C12F C12Q 1_555 1_555
C12F C12S 1_555 1_555
C12Q C12R 1_555 1_555
C12Q C12S 1_555 1_555
C12G C12R 1_555 1_555
C13C C13A 1_555 1_555
C13C C13U 1_555 1_555
C13C C13V 1_555 1_555
C13C C14C 1_555 1_555
C13C C14U 1_555 1_555
C13A C13B 1_555 1_555
C13A C13W 1_555 1_555
C13A C13U 1_555 1_555
C13A C14A 1_555 1_555
C13A C14C 1_555 1_555
C13A C14W 1_555 1_555
C13B C13T 1_555 1_555
C13B C13W 1_555 1_555
C13B C14T 1_555 1_555
C13B C14B 1_555 1_555
C13B C14A 1_555 1_555
C13T C13W 1_555 1_555
C13T C13V 1_555 1_555
C13T C14T 1_555 1_555
C13T C14B 1_555 1_555
C13T C14V 1_555 1_555
C13W C13U 1_555 1_555
C13W C14T 1_555 1_555
C13W C14A 1_555 1_555
C13W C14W 1_555 1_555
C13U C13V 1_555 1_555
C13U C14C 1_555 1_555
C13U C14U 1_555 1_555
C13U C14W 1_555 1_555
C13V C14U 1_555 1_555
C13V C14V 1_555 1_555
C13D C13F 1_555 1_555
C13D C13P 1_555 1_555
C13D C13R 1_555 1_555
C13D C14F 1_555 1_555
C13D C14R 1_555 1_555
C13G C13E 1_555 1_555
C13G C13Q 1_555 1_555
C13G C13R 1_555 1_555
C13G C14D 1_555 1_555
C13G C14G 1_555 1_555
C13G C14Q 1_555 1_555
C13E C13F 1_555 1_555
C13E C13S 1_555 1_555
C13E C13Q 1_555 1_555
C13E C14E 1_555 1_555
C13E C14G 1_555 1_555
C13E C14S 1_555 1_555
C13F C13P 1_555 1_555
C13F C13S 1_555 1_555
C13F C14P 1_555 1_555
C13F C14F 1_555 1_555
C13F C14E 1_555 1_555
C13P C13S 1_555 1_555
C13P C13R 1_555 1_555
C13P C14P 1_555 1_555
C13P C14F 1_555 1_555
C13P C14R 1_555 1_555
C13S C13Q 1_555 1_555
C13S C14P 1_555 1_555
C13S C14E 1_555 1_555
C13S C14S 1_555 1_555
C13Q C13R 1_555 1_555
C13Q C14G 1_555 1_555
C13Q C14Q 1_555 1_555
C13Q C14S 1_555 1_555
C13R C14D 1_555 1_555
C13R C14Q 1_555 1_555
C13R C14R 1_555 1_555
C14T C14B 1_555 1_555
C14T C14A 1_555 1_555
C14T C14W 1_555 1_555
C14T C14V 1_555 1_555
C14B C14A 1_555 1_555
C14B C14V 1_555 1_555
C14A C14C 1_555 1_555
C14A C14W 1_555 1_555
C14C C14U 1_555 1_555
C14C C14W 1_555 1_555
C14U C14W 1_555 1_555
C14U C14V 1_555 1_555
C14D C14F 1_555 1_555
C14D C14G 1_555 1_555
C14D C14Q 1_555 1_555
C14D C14R 1_555 1_555
C14P C14F 1_555 1_555
C14P C14E 1_555 1_555
C14P C14S 1_555 1_555
C14P C14R 1_555 1_555
C14F C14E 1_555 1_555
C14F C14R 1_555 1_555
C14E C14G 1_555 1_555
C14E C14S 1_555 1_555
C14G C14Q 1_555 1_555
C14G C14S 1_555 1_555
C14Q C14S 1_555 1_555
C14Q C14R 1_555 1_555

#END
