
#######################################################################
#
#                 Cambridge Crystallographic Data Centre
#                                CCDC 
#
#######################################################################
#
# If this CIF has been generated from an entry in the Cambridge 
# Structural Database, then it will include bibliographic, chemical, 
# crystal, experimental, refinement or atomic coordinate data resulting 
# from the CCDC's data processing and validation procedures.
#
#######################################################################

data_MOYYUV
_chemical_formula_moiety         'C116 H88 Co10 Mn1 N11 O17 1-'
_symmetry_cell_setting           tetragonal
_symmetry_space_group_name_H-M   'I 4/m m m'
_symmetry_Int_Tables_number      139
_space_group_name_Hall           '-I 4 2'
loop_
_symmetry_equiv_pos_site_id
_symmetry_equiv_pos_as_xyz
1 x,y,z
2 -x,-y,z
3 -y,x,z
4 y,-x,z
5 -x,y,-z
6 x,-y,-z
7 y,x,-z
8 -y,-x,-z
9 1/2+x,1/2+y,1/2+z
10 1/2-x,1/2-y,1/2+z
11 1/2-y,1/2+x,1/2+z
12 1/2+y,1/2-x,1/2+z
13 1/2-x,1/2+y,1/2-z
14 1/2+x,1/2-y,1/2-z
15 1/2+y,1/2+x,1/2-z
16 1/2-y,1/2-x,1/2-z
17 -x,-y,-z
18 x,y,-z
19 y,-x,-z
20 -y,x,-z
21 x,-y,z
22 -x,y,z
23 -y,-x,z
24 y,x,z
25 1/2-x,1/2-y,1/2-z
26 1/2+x,1/2+y,1/2-z
27 1/2+y,1/2-x,1/2-z
28 1/2-y,1/2+x,1/2-z
29 1/2+x,1/2-y,1/2+z
30 1/2-x,1/2+y,1/2+z
31 1/2-y,1/2-x,1/2+z
32 1/2+y,1/2+x,1/2+z
_cell_length_a                   16.6905(12)
_cell_length_b                   16.6905(12)
_cell_length_c                   25.466(4)
_cell_angle_alpha                90
_cell_angle_beta                 90
_cell_angle_gamma                90
_cell_volume                     7094.13
loop_
_atom_site_label
_atom_site_type_symbol
_atom_site_fract_x
_atom_site_fract_y
_atom_site_fract_z
N4 N 0.2804(19) -0.0000 0.1461(13)
O2 O 0.2448(19) -0.0632(3) 0.1502(15)
O3 O 0.3527(19) -0.0000 0.1383(18)
O2T O 0.2448(19) 0.0632(3) 0.1502(15)
Co1 Co 1.5000 -0.5000 -0.05141(5)
Mn1 Mn 1.0000 0.0000 0.0000
O1 O 1.41491(17) -0.41491(17) -0.04355(15)
N1 N 1.0000(3) -0.1205 0.0000
C1 C 1.0651(3) -0.1700(3) 0.0000
C2 C 1.0401(3) -0.2531(3) 0.0000
H1 H 1.0740 -0.2988 0.0000
C3 C 1.1460(3) -0.1460(3) 0.0000
C4 C 1.2094(3) -0.2094(3) 0.0000
C5 C 1.2392(3) -0.2392(3) 0.0456(2)
H2 H 1.2193 -0.2193 0.0781
C6 C 1.2982(3) -0.2982(3) 0.0457(2)
H3 H 1.3182 -0.3182 0.0781
C7 C 1.3271(3) -0.3271(3) 0.0000
C8 C 1.3913(3) -0.3913(3) 0.0000
N2 N 1.0000 0.0000 -0.0918(3)
N3 N 1.0000 0.0000 -0.3667(4)
C9 C 1.0000 0.0000 -0.2018(5)
C10 C 1.0000 0.0000 -0.2570(5)
C11 C 0.9326(6) -0.0151(13) -0.1180(4)
H4 H 0.8848 -0.0263 -0.0992
C12 C 0.9315(7) -0.0147(14) -0.1723(4)
H5 H 0.8824 -0.0248 -0.1900
C13 C 0.9665(10) 0.0620(8) -0.2865(4)
H6 H 0.9415 0.1052 -0.2686
C14 C 0.9683(9) 0.0633(8) -0.3415(4)
H7 H 0.9476 0.1077 -0.3605
Co1D Co 1.5000 -0.5000 0.05141(5)
Co1L Co 1.0000 0.0000 -0.44859(5)
Co1D_2 Co 1.5000 0.5000 0.05141(5)
Co1_2 Co 1.5000 0.5000 -0.05141(5)
Co1D_3 Co 0.5000 0.5000 0.05141(5)
Co1_3 Co 0.5000 0.5000 -0.05141(5)
Co1D_4 Co 0.5000 -0.5000 0.05141(5)
Co1_4 Co 0.5000 -0.5000 -0.05141(5)
Co1H Co 1.0000 -0.0000 0.44859(5)
O1G O 1.41491(17) -0.41491(17) 0.04355(15)
O1E O 1.41491(17) 0.41491(17) 0.04355(15)
O1B O 1.41491(17) 0.41491(17) -0.04355(15)
O1F O 0.58509(17) 0.41491(17) 0.04355(15)
O1A O 0.58509(17) 0.41491(17) -0.04355(15)
O1D O 0.58509(17) -0.41491(17) 0.04355(15)
O1C O 0.58509(17) -0.41491(17) -0.04355(15)
O1A_2 O 1.58509(17) -0.58509(17) -0.04355(15)
O1B_2 O 1.41491(17) -0.58509(17) -0.04355(15)
O1C_2 O 1.58509(17) -0.41491(17) -0.04355(15)
O1F_2 O 1.58509(17) -0.58509(17) 0.04355(15)
O1D_2 O 1.58509(17) -0.41491(17) 0.04355(15)
O1E_2 O 1.41491(17) -0.58509(17) 0.04355(15)
N1C N 0.8795 0.0000(3) 0.0000
N1A N 1.0000(3) 0.1205 0.0000
N1B N 1.1205 0.0000(3) 0.0000
C1D C 0.9349(3) -0.1700(3) 0.0000
C1C C 0.8300(3) -0.0651(3) 0.0000
C1F C 0.8300(3) 0.0651(3) 0.0000
C1A C 0.9349(3) 0.1700(3) 0.0000
C1E C 1.0651(3) 0.1700(3) 0.0000
C1B C 1.1700(3) 0.0651(3) 0.0000
C1G C 1.1700(3) -0.0651(3) 0.0000
C2D C 0.9599(3) -0.2531(3) 0.0000
C2F C 0.7469(3) 0.0401(3) 0.0000
C2C C 0.7469(3) -0.0401(3) 0.0000
C2E C 1.0401(3) 0.2531(3) 0.0000
C2A C 0.9599(3) 0.2531(3) 0.0000
C2G C 1.2531(3) -0.0401(3) 0.0000
C2B C 1.2531(3) 0.0401(3) 0.0000
H1D H 0.9260 -0.2988 0.0000
H1C H 0.7012 -0.0740 0.0000
H1F H 0.7012 0.0740 0.0000
H1A H 0.9260 0.2988 0.0000
H1E H 1.0740 0.2988 0.0000
H1B H 1.2988 0.0740 0.0000
H1G H 1.2988 -0.0740 0.0000
C3C C 0.8540(3) -0.1460(3) 0.0000
C3A C 0.8540(3) 0.1460(3) 0.0000
C3B C 1.1460(3) 0.1460(3) 0.0000
C4B C 1.2094(3) 0.2094(3) 0.0000
C4A C 0.7906(3) 0.2094(3) 0.0000
C4C C 0.7906(3) -0.2094(3) 0.0000
C5E C 1.2392(3) 0.2392(3) -0.0456(2)
C5B C 1.2392(3) 0.2392(3) 0.0456(2)
C5F C 0.7608(3) 0.2392(3) -0.0456(2)
C5A C 0.7608(3) 0.2392(3) 0.0456(2)
C5D C 0.7608(3) -0.2392(3) -0.0456(2)
C5C C 0.7608(3) -0.2392(3) 0.0456(2)
C5G C 1.2392(3) -0.2392(3) -0.0456(2)
H2E H 1.2193 0.2193 -0.0781
H2B H 1.2193 0.2193 0.0781
H2F H 0.7807 0.2193 -0.0781
H2A H 0.7807 0.2193 0.0781
H2D H 0.7807 -0.2193 -0.0781
H2C H 0.7807 -0.2193 0.0781
H2G H 1.2193 -0.2193 -0.0781
C6E C 1.2982(3) 0.2982(3) -0.0457(2)
C6B C 1.2982(3) 0.2982(3) 0.0457(2)
C6F C 0.7018(3) 0.2982(3) -0.0457(2)
C6A C 0.7018(3) 0.2982(3) 0.0457(2)
C6D C 0.7018(3) -0.2982(3) -0.0457(2)
C6C C 0.7018(3) -0.2982(3) 0.0457(2)
C6G C 1.2982(3) -0.2982(3) -0.0457(2)
H3E H 1.3182 0.3182 -0.0781
H3B H 1.3182 0.3182 0.0781
H3F H 0.6818 0.3182 -0.0781
H3A H 0.6818 0.3182 0.0781
H3D H 0.6818 -0.3182 -0.0781
H3C H 0.6818 -0.3182 0.0781
H3G H 1.3182 -0.3182 -0.0781
C7B C 1.3271(3) 0.3271(3) 0.0000
C7A C 0.6729(3) 0.3271(3) 0.0000
C7C C 0.6729(3) -0.3271(3) 0.0000
C8B C 1.3913(3) 0.3913(3) 0.0000
C8A C 0.6087(3) 0.3913(3) 0.0000
C8C C 0.6087(3) -0.3913(3) 0.0000
N2D N 1.0000 -0.0000 0.0918(3)
N3D N 1.0000 -0.0000 0.3667(4)
N3L N 1.5000 -0.5000 -0.1333(4)
N3H N 1.5000 -0.5000 0.1333(4)
C9D C 1.0000 -0.0000 0.2018(5)
C10D C 1.0000 -0.0000 0.2570(5)
C11C C 0.9849(13) 0.0674(6) -0.1180(4)
C11A C 1.0674(6) 0.0151(13) -0.1180(4)
C11B C 1.0151(13) -0.0674(6) -0.1180(4)
C11T C 0.9326(6) 0.0151(13) -0.1180(4)
C11W C 0.9849(13) -0.0674(6) -0.1180(4)
C11U C 1.0674(6) -0.0151(13) -0.1180(4)
C11V C 1.0151(13) 0.0674(6) -0.1180(4)
C11D C 1.0674(6) -0.0151(13) 0.1180(4)
C11G C 1.0151(13) 0.0674(6) 0.1180(4)
C11E C 0.9326(6) 0.0151(13) 0.1180(4)
C11F C 0.9849(13) -0.0674(6) 0.1180(4)
C11P C 1.0674(6) 0.0151(13) 0.1180(4)
C11S C 1.0151(13) -0.0674(6) 0.1180(4)
C11Q C 0.9326(6) -0.0151(13) 0.1180(4)
C11R C 0.9849(13) 0.0674(6) 0.1180(4)
H4A H 1.1152 0.0263 -0.0992
H4B H 1.0263 -0.1152 -0.0992
H4C H 0.9737 0.1152 -0.0992
H4V H 1.0263 0.1152 -0.0992
H4T H 0.8848 0.0263 -0.0992
H4U H 1.1152 -0.0263 -0.0992
H4W H 0.9737 -0.1152 -0.0992
H4D H 1.1152 -0.0263 0.0992
H4E H 0.8848 0.0263 0.0992
H4F H 0.9737 -0.1152 0.0992
H4G H 1.0263 0.1152 0.0992
H4R H 0.9737 0.1152 0.0992
H4P H 1.1152 0.0263 0.0992
H4Q H 0.8848 -0.0263 0.0992
H4S H 1.0263 -0.1152 0.0992
C12C C 0.9853(14) 0.0685(7) -0.1723(4)
C12T C 0.9315(7) 0.0147(14) -0.1723(4)
C12A C 1.0685(7) 0.0147(14) -0.1723(4)
C12U C 1.0685(7) -0.0147(14) -0.1723(4)
C12B C 1.0147(14) -0.0685(7) -0.1723(4)
C12W C 0.9853(14) -0.0685(7) -0.1723(4)
C12V C 1.0147(14) 0.0685(7) -0.1723(4)
C12D C 1.0685(7) -0.0147(14) 0.1723(4)
C12G C 1.0147(14) 0.0685(7) 0.1723(4)
C12P C 1.0685(7) 0.0147(14) 0.1723(4)
C12E C 0.9315(7) 0.0147(14) 0.1723(4)
C12Q C 0.9315(7) -0.0147(14) 0.1723(4)
C12F C 0.9853(14) -0.0685(7) 0.1723(4)
C12S C 1.0147(14) -0.0685(7) 0.1723(4)
C12R C 0.9853(14) 0.0685(7) 0.1723(4)
H5C H 0.9752 0.1176 -0.1900
H5V H 1.0248 0.1176 -0.1900
H5T H 0.8824 0.0248 -0.1900
H5W H 0.9752 -0.1176 -0.1900
H5B H 1.0248 -0.1176 -0.1900
H5U H 1.1176 -0.0248 -0.1900
H5A H 1.1176 0.0248 -0.1900
H5D H 1.1176 -0.0248 0.1900
H5G H 1.0248 0.1176 0.1900
H5R H 0.9752 0.1176 0.1900
H5P H 1.1176 0.0248 0.1900
H5S H 1.0248 -0.1176 0.1900
H5F H 0.9752 -0.1176 0.1900
H5Q H 0.8824 -0.0248 0.1900
H5E H 0.8824 0.0248 0.1900
C13C C 1.0620(8) 0.0335(10) -0.2865(4)
C13A C 1.0335(10) -0.0620(8) -0.2865(4)
C13B C 0.9380(8) -0.0335(10) -0.2865(4)
C13T C 0.9665(10) -0.0620(8) -0.2865(4)
C13W C 1.0620(8) -0.0335(10) -0.2865(4)
C13U C 1.0335(10) 0.0620(8) -0.2865(4)
C13V C 0.9380(8) 0.0335(10) -0.2865(4)
C13D C 1.0335(10) 0.0620(8) 0.2865(4)
C13G C 0.9380(8) 0.0335(10) 0.2865(4)
C13E C 0.9665(10) -0.0620(8) 0.2865(4)
C13F C 1.0620(8) -0.0335(10) 0.2865(4)
C13P C 1.0335(10) -0.0620(8) 0.2865(4)
C13S C 0.9380(8) -0.0335(10) 0.2865(4)
C13Q C 0.9665(10) 0.0620(8) 0.2865(4)
C13R C 1.0620(8) 0.0335(10) 0.2865(4)
H6V H 0.8948 0.0585 -0.2686
H6A H 1.0585 -0.1052 -0.2686
H6W H 1.1052 -0.0585 -0.2686
H6T H 0.9415 -0.1052 -0.2686
H6B H 0.8948 -0.0585 -0.2686
H6U H 1.0585 0.1052 -0.2686
H6C H 1.1052 0.0585 -0.2686
H6D H 1.0585 0.1052 0.2686
H6R H 1.1052 0.0585 0.2686
H6E H 0.9415 -0.1052 0.2686
H6S H 0.8948 -0.0585 0.2686
H6P H 1.0585 -0.1052 0.2686
H6F H 1.1052 -0.0585 0.2686
H6Q H 0.9415 0.1052 0.2686
H6G H 0.8948 0.0585 0.2686
C14A C 1.0317(9) -0.0633(8) -0.3415(4)
C14W C 1.0633(8) -0.0317(9) -0.3415(4)
C14B C 0.9367(8) -0.0317(9) -0.3415(4)
C14T C 0.9683(9) -0.0633(8) -0.3415(4)
C14C C 1.0633(8) 0.0317(9) -0.3415(4)
C14U C 1.0317(9) 0.0633(8) -0.3415(4)
C14V C 0.9367(8) 0.0317(9) -0.3415(4)
C14D C 1.0317(9) 0.0633(8) 0.3415(4)
C14E C 0.9683(9) -0.0633(8) 0.3415(4)
C14S C 0.9367(8) -0.0317(9) 0.3415(4)
C14F C 1.0633(8) -0.0317(9) 0.3415(4)
C14P C 1.0317(9) -0.0633(8) 0.3415(4)
C14G C 0.9367(8) 0.0317(9) 0.3415(4)
C14Q C 0.9683(9) 0.0633(8) 0.3415(4)
C14R C 1.0633(8) 0.0317(9) 0.3415(4)
H7W H 1.1077 -0.0524 -0.3605
H7A H 1.0524 -0.1077 -0.3605
H7T H 0.9476 -0.1077 -0.3605
H7B H 0.8923 -0.0524 -0.3605
H7V H 0.8923 0.0524 -0.3605
H7U H 1.0524 0.1077 -0.3605
H7C H 1.1077 0.0524 -0.3605
H7D H 1.0524 0.1077 0.3605
H7S H 0.8923 -0.0524 0.3605
H7E H 0.9476 -0.1077 0.3605
H7P H 1.0524 -0.1077 0.3605
H7F H 1.1077 -0.0524 0.3605
H7R H 1.1077 0.0524 0.3605
H7Q H 0.9476 0.1077 0.3605
H7G H 0.8923 0.0524 0.3605
loop_
_geom_bond_atom_site_label_1
_geom_bond_atom_site_label_2
_geom_bond_site_symmetry_1
_geom_bond_site_symmetry_2
Co1 O1 1_555 1_555
Mn1 N1 1_555 1_555
O1 C8 1_555 1_555
N1 C1 1_555 1_555
C1 C2 1_555 1_555
C2 H1 1_555 1_555
C3 C1 1_555 1_555
C4 C3 1_555 1_555
C5 C4 1_555 1_555
H2 C5 1_555 1_555
C6 C5 1_555 1_555
H3 C6 1_555 1_555
C7 C6 1_555 1_555
C8 C7 1_555 1_555
N2 Mn1 1_555 1_555
N3 C14 1_555 1_555
C9 C10 1_555 1_555
C10 C13 1_555 1_555
C11 N2 1_555 1_555
H4 C11 1_555 1_555
C12 C9 1_555 1_555
H5 C12 1_555 1_555
C13 H6 1_555 1_555
H6 C13V 1_555 1_555
C14 C13 1_555 1_555
H7 C14 1_555 1_555
N4 O2 1_555 1_555
O3 N4 1_555 1_555
Co1D O1G 1_555 1_555
Co1L N3 1_555 1_555
Co1D_2 O1E 1_555 1_555
Co1_2 O1B 1_555 1_555
Co1D_3 O1F 1_555 1_555
Co1_3 O1A 1_555 1_555
Co1D_4 O1D 1_555 1_555
Co1_4 O1C 1_555 1_555
Co1H N3D 1_555 1_555
O1G C8 1_555 1_555
O1E C8B 1_555 1_555
O1B C8B 1_555 1_555
O1F C8A 1_555 1_555
O1A C8A 1_555 1_555
O1D C8C 1_555 1_555
O1C C8C 1_555 1_555
O1A_2 Co1 1_555 1_555
O1B_2 Co1 1_555 1_555
O1C_2 Co1 1_555 1_555
O1F_2 Co1D 1_555 1_555
O1D_2 Co1D 1_555 1_555
O1E_2 Co1D 1_555 1_555
N1C Mn1 1_555 1_555
N1A Mn1 1_555 1_555
N1B Mn1 1_555 1_555
C1D N1 1_555 1_555
C1C N1C 1_555 1_555
C1F N1C 1_555 1_555
C1A N1A 1_555 1_555
C1E N1A 1_555 1_555
C1B N1B 1_555 1_555
C1G C3 1_555 1_555
C2D C2 1_555 1_555
C2F C1F 1_555 1_555
C2C C1C 1_555 1_555
C2E C1E 1_555 1_555
C2A C1A 1_555 1_555
C2G C1G 1_555 1_555
C2B C1B 1_555 1_555
H1D C2D 1_555 1_555
H1C C2C 1_555 1_555
H1F C2F 1_555 1_555
H1A C2A 1_555 1_555
H1E C2E 1_555 1_555
H1B C2B 1_555 1_555
H1G C2G 1_555 1_555
C3C C1D 1_555 1_555
C3A C1F 1_555 1_555
C3B C1E 1_555 1_555
C4B C3B 1_555 1_555
C4A C3A 1_555 1_555
C4C C3C 1_555 1_555
C5E C4B 1_555 1_555
C5B C4B 1_555 1_555
C5F C4A 1_555 1_555
C5A C4A 1_555 1_555
C5D C4C 1_555 1_555
C5C C4C 1_555 1_555
C5G C4 1_555 1_555
H2E C5E 1_555 1_555
H2B C5B 1_555 1_555
H2F C5F 1_555 1_555
H2A C5A 1_555 1_555
H2D C5D 1_555 1_555
H2C C5C 1_555 1_555
H2G C5G 1_555 1_555
C6E C5E 1_555 1_555
C6B C5B 1_555 1_555
C6F C5F 1_555 1_555
C6A C5A 1_555 1_555
C6D C5D 1_555 1_555
C6C C5C 1_555 1_555
C6G C7 1_555 1_555
H3E C6E 1_555 1_555
H3B C6B 1_555 1_555
H3F C6F 1_555 1_555
H3A C6A 1_555 1_555
H3D C6D 1_555 1_555
H3C C6C 1_555 1_555
H3G C6G 1_555 1_555
C7B C6E 1_555 1_555
C7A C6F 1_555 1_555
C7C C6D 1_555 1_555
C8B C7B 1_555 1_555
C8A C7A 1_555 1_555
C8C C7C 1_555 1_555
N2D Mn1 1_555 1_555
N3D C14D 1_555 1_555
N3L Co1 1_555 1_555
N3H Co1D 1_555 1_555
C9D C10D 1_555 1_555
C10D C13D 1_555 1_555
C11C N2 1_555 1_555
C11A N2 1_555 1_555
C11B N2 1_555 1_555
C11T N2 1_555 1_555
C11W N2 1_555 1_555
C11U N2 1_555 1_555
C11V N2 1_555 1_555
C11D N2D 1_555 1_555
C11G N2D 1_555 1_555
C11E N2D 1_555 1_555
C11F N2D 1_555 1_555
C11P N2D 1_555 1_555
C11S N2D 1_555 1_555
C11Q N2D 1_555 1_555
C11R N2D 1_555 1_555
H4A C11A 1_555 1_555
H4B C11B 1_555 1_555
H4C C11C 1_555 1_555
H4V C11C 1_555 1_555
H4T C11 1_555 1_555
H4U C11A 1_555 1_555
H4W C11B 1_555 1_555
H4D C11D 1_555 1_555
H4E C11E 1_555 1_555
H4F C11F 1_555 1_555
H4G C11G 1_555 1_555
H4R C11G 1_555 1_555
H4P C11D 1_555 1_555
H4Q C11E 1_555 1_555
H4S C11F 1_555 1_555
C12C C9 1_555 1_555
C12T C9 1_555 1_555
C12A C9 1_555 1_555
C12U C9 1_555 1_555
C12B C9 1_555 1_555
C12W C9 1_555 1_555
C12V C9 1_555 1_555
C12D C9D 1_555 1_555
C12G C9D 1_555 1_555
C12P C9D 1_555 1_555
C12E C9D 1_555 1_555
C12Q C9D 1_555 1_555
C12F C9D 1_555 1_555
C12S C9D 1_555 1_555
C12R C9D 1_555 1_555
H5C C12C 1_555 1_555
H5V C12C 1_555 1_555
H5T C12 1_555 1_555
H5W C12B 1_555 1_555
H5B C12B 1_555 1_555
H5U C12A 1_555 1_555
H5A C12A 1_555 1_555
H5D C12D 1_555 1_555
H5G C12G 1_555 1_555
H5R C12G 1_555 1_555
H5P C12D 1_555 1_555
H5S C12F 1_555 1_555
H5F C12F 1_555 1_555
H5Q C12E 1_555 1_555
H5E C12E 1_555 1_555
C13C C10 1_555 1_555
C13A C10 1_555 1_555
C13B C10 1_555 1_555
C13T C10 1_555 1_555
C13W C10 1_555 1_555
C13U C10 1_555 1_555
C13V C10 1_555 1_555
C13D C13G 1_555 1_555
C13G C10D 1_555 1_555
C13E C10D 1_555 1_555
C13F C10D 1_555 1_555
C13P C10D 1_555 1_555
C13S C10D 1_555 1_555
C13Q C10D 1_555 1_555
C13R C10D 1_555 1_555
H6V C13 1_555 1_555
H6A C13A 1_555 1_555
H6W C13A 1_555 1_555
H6T C13B 1_555 1_555
H6B C13B 1_555 1_555
H6U C13C 1_555 1_555
H6C C13C 1_555 1_555
H6D C13D 1_555 1_555
H6R C13D 1_555 1_555
H6E C13E 1_555 1_555
H6S C13E 1_555 1_555
H6P C13F 1_555 1_555
H6F C13F 1_555 1_555
H6Q C13G 1_555 1_555
H6G C13G 1_555 1_555
C14A N3 1_555 1_555
C14W N3 1_555 1_555
C14B N3 1_555 1_555
C14T N3 1_555 1_555
C14C N3 1_555 1_555
C14U N3 1_555 1_555
C14V N3 1_555 1_555
C14D C13D 1_555 1_555
C14E N3D 1_555 1_555
C14S N3D 1_555 1_555
C14F N3D 1_555 1_555
C14P N3D 1_555 1_555
C14G N3D 1_555 1_555
C14Q N3D 1_555 1_555
C14R N3D 1_555 1_555
H7W C14W 1_555 1_555
H7A C14A 1_555 1_555
H7T C14T 1_555 1_555
H7B C14B 1_555 1_555
H7V C14V 1_555 1_555
H7U C14U 1_555 1_555
H7C C14C 1_555 1_555
H7D C14D 1_555 1_555
H7S C14S 1_555 1_555
H7E C14E 1_555 1_555
H7P C14P 1_555 1_555
H7F C14F 1_555 1_555
H7R C14R 1_555 1_555
H7Q C14Q 1_555 1_555
H7G C14G 1_555 1_555
O2T N4 1_555 1_555
C11 C12 1_555 1_555
C11 C11C 1_555 1_555
C11 C11B 1_555 1_555
C11 C11T 1_555 1_555
C11 C11W 1_555 1_555
C11 C12T 1_555 1_555
H4 C11T 1_555 1_555
C12 C11T 1_555 1_555
C12 C12C 1_555 1_555
C12 C12T 1_555 1_555
C12 C12B 1_555 1_555
C12 C12W 1_555 1_555
H5 C12T 1_555 1_555
H5 H5T 1_555 1_555
C13 C13C 1_555 1_555
C13 C13B 1_555 1_555
C13 C13U 1_555 1_555
C13 C13V 1_555 1_555
C13 C14V 1_555 1_555
C14 C13V 1_555 1_555
C14 C14B 1_555 1_555
C14 C14C 1_555 1_555
C14 C14U 1_555 1_555
C14 C14V 1_555 1_555
N1B C1G 1_555 1_555
C1D C2D 1_555 1_555
C1C C3C 1_555 1_555
C1A C3A 1_555 1_555
C1B C3B 1_555 1_555
C2F C2C 1_555 1_555
C2E C2A 1_555 1_555
C2G C2B 1_555 1_555
C5G C6G 1_555 1_555
C6B C7B 1_555 1_555
C6A C7A 1_555 1_555
C6C C7C 1_555 1_555
C11C C11A 1_555 1_555
C11C C11T 1_555 1_555
C11C C11V 1_555 1_555
C11C C12C 1_555 1_555
C11C C12V 1_555 1_555
C11A C11B 1_555 1_555
C11A C11U 1_555 1_555
C11A C11V 1_555 1_555
C11A C12A 1_555 1_555
C11A C12U 1_555 1_555
C11B C11W 1_555 1_555
C11B C11U 1_555 1_555
C11B C12B 1_555 1_555
C11B C12W 1_555 1_555
C11T C11W 1_555 1_555
C11T C11V 1_555 1_555
C11T H4T 1_555 1_555
C11T C12T 1_555 1_555
C11W C11U 1_555 1_555
C11W H4B 1_555 1_555
C11W H4W 1_555 1_555
C11W C12B 1_555 1_555
C11W C12W 1_555 1_555
C11U C11V 1_555 1_555
C11U H4A 1_555 1_555
C11U H4U 1_555 1_555
C11U C12A 1_555 1_555
C11U C12U 1_555 1_555
C11V H4C 1_555 1_555
C11V H4V 1_555 1_555
C11V C12C 1_555 1_555
C11V C12V 1_555 1_555
C11D C11G 1_555 1_555
C11D C11F 1_555 1_555
C11D C11P 1_555 1_555
C11D C11S 1_555 1_555
C11D C12D 1_555 1_555
C11D C12P 1_555 1_555
C11G C11E 1_555 1_555
C11G C11P 1_555 1_555
C11G C11R 1_555 1_555
C11G C12G 1_555 1_555
C11G C12R 1_555 1_555
C11E C11F 1_555 1_555
C11E C11Q 1_555 1_555
C11E C11R 1_555 1_555
C11E C12E 1_555 1_555
C11E C12Q 1_555 1_555
C11F C11S 1_555 1_555
C11F C11Q 1_555 1_555
C11F C12F 1_555 1_555
C11F C12S 1_555 1_555
C11P C11S 1_555 1_555
C11P C11R 1_555 1_555
C11P H4D 1_555 1_555
C11P H4P 1_555 1_555
C11P C12D 1_555 1_555
C11P C12P 1_555 1_555
C11S C11Q 1_555 1_555
C11S H4F 1_555 1_555
C11S H4S 1_555 1_555
C11S C12F 1_555 1_555
C11S C12S 1_555 1_555
C11Q C11R 1_555 1_555
C11Q H4E 1_555 1_555
C11Q H4Q 1_555 1_555
C11Q C12E 1_555 1_555
C11Q C12Q 1_555 1_555
C11R H4G 1_555 1_555
C11R H4R 1_555 1_555
C11R C12G 1_555 1_555
C11R C12R 1_555 1_555
C12C C12T 1_555 1_555
C12C C12A 1_555 1_555
C12C C12V 1_555 1_555
C12T C12W 1_555 1_555
C12T C12V 1_555 1_555
C12T H5T 1_555 1_555
C12A C12U 1_555 1_555
C12A C12B 1_555 1_555
C12A C12V 1_555 1_555
C12U C12B 1_555 1_555
C12U C12W 1_555 1_555
C12U C12V 1_555 1_555
C12U H5U 1_555 1_555
C12U H5A 1_555 1_555
C12B C12W 1_555 1_555
C12W H5W 1_555 1_555
C12W H5B 1_555 1_555
C12V H5C 1_555 1_555
C12V H5V 1_555 1_555
C12D C12G 1_555 1_555
C12D C12P 1_555 1_555
C12D C12F 1_555 1_555
C12D C12S 1_555 1_555
C12G C12P 1_555 1_555
C12G C12E 1_555 1_555
C12G C12R 1_555 1_555
C12P C12S 1_555 1_555
C12P C12R 1_555 1_555
C12P H5D 1_555 1_555
C12P H5P 1_555 1_555
C12E C12Q 1_555 1_555
C12E C12F 1_555 1_555
C12E C12R 1_555 1_555
C12Q C12F 1_555 1_555
C12Q C12S 1_555 1_555
C12Q C12R 1_555 1_555
C12Q H5Q 1_555 1_555
C12Q H5E 1_555 1_555
C12F C12S 1_555 1_555
C12S H5S 1_555 1_555
C12S H5F 1_555 1_555
C12R H5G 1_555 1_555
C12R H5R 1_555 1_555
H5C H5V 1_555 1_555
H5W H5B 1_555 1_555
H5U H5A 1_555 1_555
H5D H5P 1_555 1_555
H5G H5R 1_555 1_555
H5S H5F 1_555 1_555
H5Q H5E 1_555 1_555
C13C C13A 1_555 1_555
C13C C13W 1_555 1_555
C13C C13U 1_555 1_555
C13C C14C 1_555 1_555
C13C C14U 1_555 1_555
C13A C13B 1_555 1_555
C13A C13T 1_555 1_555
C13A C13W 1_555 1_555
C13A C14A 1_555 1_555
C13A C14W 1_555 1_555
C13B C13T 1_555 1_555
C13B C13V 1_555 1_555
C13B C14B 1_555 1_555
C13B C14T 1_555 1_555
C13T C13W 1_555 1_555
C13T C13V 1_555 1_555
C13T H6T 1_555 1_555
C13T H6B 1_555 1_555
C13T C14B 1_555 1_555
C13T C14T 1_555 1_555
C13W C13U 1_555 1_555
C13W H6A 1_555 1_555
C13W H6W 1_555 1_555
C13W C14A 1_555 1_555
C13W C14W 1_555 1_555
C13U C13V 1_555 1_555
C13U H6U 1_555 1_555
C13U H6C 1_555 1_555
C13U C14C 1_555 1_555
C13U C14U 1_555 1_555
C13V H6V 1_555 1_555
C13V C14V 1_555 1_555
C13D C13F 1_555 1_555
C13D C13Q 1_555 1_555
C13D C13R 1_555 1_555
C13D C14R 1_555 1_555
C13G C13E 1_555 1_555
C13G C13S 1_555 1_555
C13G C13Q 1_555 1_555
C13G C14G 1_555 1_555
C13G C14Q 1_555 1_555
C13E C13F 1_555 1_555
C13E C13P 1_555 1_555
C13E C13S 1_555 1_555
C13E C14E 1_555 1_555
C13E C14S 1_555 1_555
C13F C13P 1_555 1_555
C13F C13R 1_555 1_555
C13F C14F 1_555 1_555
C13F C14P 1_555 1_555
C13P C13S 1_555 1_555
C13P C13R 1_555 1_555
C13P H6P 1_555 1_555
C13P H6F 1_555 1_555
C13P C14F 1_555 1_555
C13P C14P 1_555 1_555
C13S C13Q 1_555 1_555
C13S H6E 1_555 1_555
C13S H6S 1_555 1_555
C13S C14E 1_555 1_555
C13S C14S 1_555 1_555
C13Q C13R 1_555 1_555
C13Q H6Q 1_555 1_555
C13Q H6G 1_555 1_555
C13Q C14G 1_555 1_555
C13Q C14Q 1_555 1_555
C13R H6D 1_555 1_555
C13R H6R 1_555 1_555
C13R C14D 1_555 1_555
C13R C14R 1_555 1_555
C14A C14W 1_555 1_555
C14A C14B 1_555 1_555
C14A C14T 1_555 1_555
C14A C14C 1_555 1_555
C14W C14T 1_555 1_555
C14W C14C 1_555 1_555
C14W C14U 1_555 1_555
C14B C14T 1_555 1_555
C14B C14V 1_555 1_555
C14T C14V 1_555 1_555
C14C C14U 1_555 1_555
C14U C14V 1_555 1_555
C14D C14F 1_555 1_555
C14D C14G 1_555 1_555
C14D C14Q 1_555 1_555
C14D C14R 1_555 1_555
C14E C14S 1_555 1_555
C14E C14F 1_555 1_555
C14E C14P 1_555 1_555
C14E C14G 1_555 1_555
C14S C14P 1_555 1_555
C14S C14G 1_555 1_555
C14S C14Q 1_555 1_555
C14F C14P 1_555 1_555
C14F C14R 1_555 1_555
C14P C14R 1_555 1_555
C14G C14Q 1_555 1_555
C14Q C14R 1_555 1_555

#END
