
#######################################################################
#
#                 Cambridge Crystallographic Data Centre
#                                CCDC 
#
#######################################################################
#
# If this CIF has been generated from an entry in the Cambridge 
# Structural Database, then it will include bibliographic, chemical, 
# crystal, experimental, refinement or atomic coordinate data resulting 
# from the CCDC's data processing and validation procedures.
#
#######################################################################

data_MOYZOQ
_chemical_formula_moiety         'C82 H56 Co9 N7 O14 Pt1'
_symmetry_cell_setting           tetragonal
_symmetry_space_group_name_H-M   'P 4/m m m'
_symmetry_Int_Tables_number      123
_space_group_name_Hall           '-P 4 2'
loop_
_symmetry_equiv_pos_site_id
_symmetry_equiv_pos_as_xyz
1 x,y,z
2 -x,-y,z
3 -y,x,z
4 y,-x,z
5 -x,y,-z
6 x,-y,-z
7 y,x,-z
8 -y,-x,-z
9 -x,-y,-z
10 x,y,-z
11 y,-x,-z
12 -y,x,-z
13 x,-y,z
14 -x,y,z
15 -y,-x,z
16 y,x,z
_cell_length_a                   16.7088(6)
_cell_length_b                   16.7088(6)
_cell_length_c                   13.9151(7)
_cell_angle_alpha                90
_cell_angle_beta                 90
_cell_angle_gamma                90
_cell_volume                     3884.87
loop_
_atom_site_label
_atom_site_type_symbol
_atom_site_fract_x
_atom_site_fract_y
_atom_site_fract_z
Pt1 Pt 0.5000 0.5000 -0.5000
Co1 Co 1.0000 1.0000 -0.59811(2)
O1 O 0.91467(3) 0.91467(3) -0.57964(7)
N1 N 0.50000(8) 0.6203 -0.5000
N2 N 1.0000 1.0000 -0.74552(15)
C1 C 0.56589(7) 0.66989(7) -0.5000
C2 C 0.53993(8) 0.75170(9) -0.5000
H1 H 0.5728 0.7966 -0.5000
C3 C 0.64530(7) 0.64530(7) -0.5000
C4 C 0.70884(7) 0.70884(7) -0.5000
C5 C 0.73847(6) 0.73847(6) -0.41647(14)
H2 H 0.7191 0.7191 -0.3583
C6 C 0.79737(6) 0.79737(6) -0.41634(13)
H3 H 0.8168 0.8168 -0.3582
C7 C 0.82678(6) 0.82678(6) -0.5000
C8 C 0.89040(6) 0.89040(6) -0.5000
C9 C 1.0000 1.0000 -0.9457(2)
C10 C 0.9369(3) 0.9766(4) -0.7952(2)
H4 H 0.8917 0.9603 -0.7614
C11 C 0.9340(3) 0.9750(3) -0.8951(3)
H5 H 0.8883 0.9573 -0.9269
Co1D Co 1.0000 1.0000 -0.40189(2)
Co1D_2 Co 1.0000 0.0000 -0.40189(2)
Co1_2 Co 1.0000 0.0000 -0.59811(2)
Co1D_3 Co 0.0000 0.0000 -0.40189(2)
Co1_3 Co 0.0000 0.0000 -0.59811(2)
Co1D_4 Co -0.0000 1.0000 -0.40189(2)
Co1_4 Co -0.0000 1.0000 -0.59811(2)
Co1D_5 Co 1.0000 1.0000 -1.40189(2)
O1F O 0.91467(3) 0.91467(3) -0.42036(7)
O1E O 0.91467(3) 0.08533(3) -0.42036(7)
O1C O 0.91467(3) 0.08533(3) -0.57964(7)
O1G O 0.08533(3) 0.08533(3) -0.42036(7)
O1A O 0.08533(3) 0.08533(3) -0.57964(7)
O1D O 0.08533(3) 0.91467(3) -0.42036(7)
O1B O 0.08533(3) 0.91467(3) -0.57964(7)
O1A_2 O 1.08533(3) 1.08533(3) -0.57964(7)
O1B_2 O 1.08533(3) 0.91467(3) -0.57964(7)
O1C_2 O 0.91467(3) 1.08533(3) -0.57964(7)
O1G_2 O 1.08533(3) 1.08533(3) -0.42036(7)
O1E_2 O 0.91467(3) 1.08533(3) -0.42036(7)
O1D_2 O 1.08533(3) 0.91467(3) -0.42036(7)
N1B N 0.3797 0.50000(8) -0.5000
N1A N 0.50000(8) 0.3797 -0.5000
N1C N 0.6203 0.50000(8) -0.5000
N2D N 1.0000 1.0000 -1.25448(15)
N2D_2 N 1.0000 1.0000 -0.25448(15)
C1D C 0.43411(7) 0.66989(7) -0.5000
C1B C 0.33011(7) 0.56589(7) -0.5000
C1G C 0.33011(7) 0.43411(7) -0.5000
C1A C 0.43411(7) 0.33011(7) -0.5000
C1E C 0.56589(7) 0.33011(7) -0.5000
C1C C 0.66989(7) 0.43411(7) -0.5000
C1F C 0.66989(7) 0.56589(7) -0.5000
C2D C 0.46007(8) 0.75170(9) -0.5000
C2G C 0.24830(9) 0.46007(8) -0.5000
C2B C 0.24830(9) 0.53993(8) -0.5000
C2E C 0.53993(8) 0.24830(9) -0.5000
C2A C 0.46007(8) 0.24830(9) -0.5000
C2F C 0.75170(9) 0.53993(8) -0.5000
C2C C 0.75170(9) 0.46007(8) -0.5000
H1D H 0.4272 0.7966 -0.5000
H1B H 0.2034 0.5728 -0.5000
H1G H 0.2034 0.4272 -0.5000
H1A H 0.4272 0.2034 -0.5000
H1E H 0.5728 0.2034 -0.5000
H1C H 0.7966 0.4272 -0.5000
H1F H 0.7966 0.5728 -0.5000
C3B C 0.35470(7) 0.64530(7) -0.5000
C3A C 0.35470(7) 0.35470(7) -0.5000
C3C C 0.64530(7) 0.35470(7) -0.5000
C4C C 0.70884(7) 0.29116(7) -0.5000
C4A C 0.29116(7) 0.29116(7) -0.5000
C4B C 0.29116(7) 0.70884(7) -0.5000
C5E C 0.73847(6) 0.26153(6) -0.58353(14)
C5C C 0.73847(6) 0.26153(6) -0.41647(14)
C5G C 0.26153(6) 0.26153(6) -0.58353(14)
C5A C 0.26153(6) 0.26153(6) -0.41647(14)
C5D C 0.26153(6) 0.73847(6) -0.58353(14)
C5B C 0.26153(6) 0.73847(6) -0.41647(14)
C5F C 0.73847(6) 0.73847(6) -0.58353(14)
H2E H 0.7191 0.2809 -0.6417
H2C H 0.7191 0.2809 -0.3583
H2G H 0.2809 0.2809 -0.6417
H2A H 0.2809 0.2809 -0.3583
H2D H 0.2809 0.7191 -0.6417
H2B H 0.2809 0.7191 -0.3583
H2F H 0.7191 0.7191 -0.6417
C6E C 0.79737(6) 0.20263(6) -0.58366(13)
C6C C 0.79737(6) 0.20263(6) -0.41634(13)
C6G C 0.20263(6) 0.20263(6) -0.58366(13)
C6A C 0.20263(6) 0.20263(6) -0.41634(13)
C6D C 0.20263(6) 0.79737(6) -0.58366(13)
C6B C 0.20263(6) 0.79737(6) -0.41634(13)
C6F C 0.79737(6) 0.79737(6) -0.58366(13)
H3E H 0.8168 0.1832 -0.6418
H3C H 0.8168 0.1832 -0.3582
H3G H 0.1832 0.1832 -0.6418
H3A H 0.1832 0.1832 -0.3582
H3D H 0.1832 0.8168 -0.6418
H3B H 0.1832 0.8168 -0.3582
H3F H 0.8168 0.8168 -0.6418
C7C C 0.82678(6) 0.17322(6) -0.5000
C7A C 0.17322(6) 0.17322(6) -0.5000
C7B C 0.17322(6) 0.82678(6) -0.5000
C8C C 0.89040(6) 0.10960(6) -0.5000
C8A C 0.10960(6) 0.10960(6) -0.5000
C8B C 0.10960(6) 0.89040(6) -0.5000
C9D C 1.0000 1.0000 -1.0543(2)
C10C C 0.9766(4) 1.0631(3) -0.7952(2)
C10A C 1.0631(3) 1.0234(4) -0.7952(2)
C10B C 1.0234(4) 0.9369(3) -0.7952(2)
C10L C 0.9369(3) 1.0234(4) -0.7952(2)
C10O C 0.9766(4) 0.9369(3) -0.7952(2)
C10M C 1.0631(3) 0.9766(4) -0.7952(2)
C10N C 1.0234(4) 1.0631(3) -0.7952(2)
C10D C 1.0631(3) 0.9766(4) -1.2048(2)
C10E C 0.9369(3) 1.0234(4) -1.2048(2)
C10F C 0.9766(4) 0.9369(3) -1.2048(2)
C10G C 1.0234(4) 1.0631(3) -1.2048(2)
C10I C 0.9369(3) 0.9766(4) -1.2048(2)
C10J C 0.9766(4) 1.0631(3) -1.2048(2)
C10K C 1.0234(4) 0.9369(3) -1.2048(2)
C10H C 1.0631(3) 1.0234(4) -1.2048(2)
H4A H 1.1083 1.0397 -0.7614
H4G H 1.0397 1.1083 -1.2386
H4E H 0.8917 1.0397 -1.2386
H4F H 0.9603 0.8917 -1.2386
H4K H 1.0397 0.8917 -1.2386
H4D H 1.1083 0.9603 -1.2386
H4J H 0.9603 1.1083 -1.2386
H4H H 1.1083 1.0397 -1.2386
H4I H 0.8917 0.9603 -1.2386
H4B H 1.0397 0.8917 -0.7614
H4L H 0.8917 1.0397 -0.7614
H4C H 0.9603 1.1083 -0.7614
H4M H 1.1083 0.9603 -0.7614
H4N H 1.0397 1.1083 -0.7614
H4O H 0.9603 0.8917 -0.7614
C11A C 1.0660(3) 1.0250(3) -0.8951(3)
C11D C 1.0660(3) 0.9750(3) -1.1049(3)
C11G C 1.0250(3) 1.0660(3) -1.1049(3)
C11E C 0.9340(3) 1.0250(3) -1.1049(3)
C11I C 0.9340(3) 0.9750(3) -1.1049(3)
C11F C 0.9750(3) 0.9340(3) -1.1049(3)
C11K C 1.0250(3) 0.9340(3) -1.1049(3)
C11H C 1.0660(3) 1.0250(3) -1.1049(3)
C11J C 0.9750(3) 1.0660(3) -1.1049(3)
C11L C 0.9340(3) 1.0250(3) -0.8951(3)
C11B C 1.0250(3) 0.9340(3) -0.8951(3)
C11O C 0.9750(3) 0.9340(3) -0.8951(3)
C11C C 0.9750(3) 1.0660(3) -0.8951(3)
C11N C 1.0250(3) 1.0660(3) -0.8951(3)
C11M C 1.0660(3) 0.9750(3) -0.8951(3)
H5I H 0.8883 0.9573 -1.0731
H5F H 0.9573 0.8883 -1.0731
H5K H 1.0427 0.8883 -1.0731
H5D H 1.1117 0.9573 -1.0731
H5H H 1.1117 1.0427 -1.0731
H5G H 1.0427 1.1117 -1.0731
H5J H 0.9573 1.1117 -1.0731
H5E H 0.8883 1.0427 -1.0731
H5M H 1.1117 0.9573 -0.9269
H5N H 1.0427 1.1117 -0.9269
H5O H 0.9573 0.8883 -0.9269
H5B H 1.0427 0.8883 -0.9269
H5C H 0.9573 1.1117 -0.9269
H5A H 1.1117 1.0427 -0.9269
H5L H 0.8883 1.0427 -0.9269
loop_
_geom_bond_atom_site_label_1
_geom_bond_atom_site_label_2
_geom_bond_site_symmetry_1
_geom_bond_site_symmetry_2
Pt1 N1 1_555 1_555
Co1 O1 1_555 1_555
O1 C8 1_555 1_555
N1 C1 1_555 1_555
N2 Co1 1_555 1_555
C1 C2 1_555 1_555
C2 H1 1_555 1_555
C3 C1 1_555 1_555
C4 C3 1_555 1_555
C5 C4 1_555 1_555
H2 C5 1_555 1_555
C6 C5 1_555 1_555
H3 C6 1_555 1_555
C7 C6 1_555 1_555
C8 C7 1_555 1_555
C9 C11 1_555 1_555
C10 N2 1_555 1_555
H4 C10 1_555 1_555
C11 C10 1_555 1_555
H5 C11 1_555 1_555
Co1D O1F 1_555 1_555
Co1D_2 O1E 1_555 1_555
Co1_2 O1C 1_555 1_555
Co1D_3 O1G 1_555 1_555
Co1_3 O1A 1_555 1_555
Co1D_4 O1D 1_555 1_555
Co1_4 O1B 1_555 1_555
Co1D_5 N2D 1_555 1_555
O1F C8 1_555 1_555
O1E C8C 1_555 1_555
O1C C8C 1_555 1_555
O1G C8A 1_555 1_555
O1A C8A 1_555 1_555
O1D C8B 1_555 1_555
O1B C8B 1_555 1_555
O1A_2 Co1 1_555 1_555
O1B_2 Co1 1_555 1_555
O1C_2 Co1 1_555 1_555
O1G_2 Co1D 1_555 1_555
O1E_2 Co1D 1_555 1_555
O1D_2 Co1D 1_555 1_555
N1B Pt1 1_555 1_555
N1A Pt1 1_555 1_555
N1C Pt1 1_555 1_555
N2D C10D 1_555 1_555
N2D_2 Co1D 1_555 1_555
C1D N1 1_555 1_555
C1B N1B 1_555 1_555
C1G N1B 1_555 1_555
C1A N1A 1_555 1_555
C1E N1A 1_555 1_555
C1C N1C 1_555 1_555
C1F C3 1_555 1_555
C2D C2 1_555 1_555
C2G C1G 1_555 1_555
C2B C1B 1_555 1_555
C2E C1E 1_555 1_555
C2A C1A 1_555 1_555
C2F C1F 1_555 1_555
C2C C1C 1_555 1_555
H1D C2D 1_555 1_555
H1B C2B 1_555 1_555
H1G C2G 1_555 1_555
H1A C2A 1_555 1_555
H1E C2E 1_555 1_555
H1C C2C 1_555 1_555
H1F C2F 1_555 1_555
C3B C1D 1_555 1_555
C3A C1G 1_555 1_555
C3C C1E 1_555 1_555
C4C C3C 1_555 1_555
C4A C3A 1_555 1_555
C4B C3B 1_555 1_555
C5E C4C 1_555 1_555
C5C C4C 1_555 1_555
C5G C4A 1_555 1_555
C5A C4A 1_555 1_555
C5D C4B 1_555 1_555
C5B C4B 1_555 1_555
C5F C4 1_555 1_555
H2E C5E 1_555 1_555
H2C C5C 1_555 1_555
H2G C5G 1_555 1_555
H2A C5A 1_555 1_555
H2D C5D 1_555 1_555
H2B C5B 1_555 1_555
H2F C5F 1_555 1_555
C6E C5E 1_555 1_555
C6C C5C 1_555 1_555
C6G C5G 1_555 1_555
C6A C5A 1_555 1_555
C6D C5D 1_555 1_555
C6B C5B 1_555 1_555
C6F C7 1_555 1_555
H3E C6E 1_555 1_555
H3C C6C 1_555 1_555
H3G C6G 1_555 1_555
H3A C6A 1_555 1_555
H3D C6D 1_555 1_555
H3B C6B 1_555 1_555
H3F C6F 1_555 1_555
C7C C6E 1_555 1_555
C7A C6G 1_555 1_555
C7B C6D 1_555 1_555
C8C C7C 1_555 1_555
C8A C7A 1_555 1_555
C8B C7B 1_555 1_555
C9D C9 1_555 1_555
C10C N2 1_555 1_555
C10A N2 1_555 1_555
C10B N2 1_555 1_555
C10L N2 1_555 1_555
C10O N2 1_555 1_555
C10M N2 1_555 1_555
C10N N2 1_555 1_555
C10D C10F 1_555 1_555
C10E N2D 1_555 1_555
C10F N2D 1_555 1_555
C10G N2D 1_555 1_555
C10I N2D 1_555 1_555
C10J N2D 1_555 1_555
C10K N2D 1_555 1_555
C10H N2D 1_555 1_555
H4A C10A 1_555 1_555
H4G C10G 1_555 1_555
H4E C10E 1_555 1_555
H4F C10F 1_555 1_555
H4K C10K 1_555 1_555
H4D C10D 1_555 1_555
H4J C10J 1_555 1_555
H4H C10H 1_555 1_555
H4I C10I 1_555 1_555
H4B C10B 1_555 1_555
H4L C10L 1_555 1_555
H4C C10C 1_555 1_555
H4M C10M 1_555 1_555
H4N C10N 1_555 1_555
H4O C10O 1_555 1_555
C11A C9 1_555 1_555
C11D C9D 1_555 1_555
C11G C9D 1_555 1_555
C11E C9D 1_555 1_555
C11I C9D 1_555 1_555
C11F C9D 1_555 1_555
C11K C9D 1_555 1_555
C11H C9D 1_555 1_555
C11J C9D 1_555 1_555
C11L C9 1_555 1_555
C11B C9 1_555 1_555
C11O C9 1_555 1_555
C11C C9 1_555 1_555
C11N C9 1_555 1_555
C11M C9 1_555 1_555
H5I C11I 1_555 1_555
H5F C11F 1_555 1_555
H5K C11K 1_555 1_555
H5D C11D 1_555 1_555
H5H C11H 1_555 1_555
H5G C11G 1_555 1_555
H5J C11J 1_555 1_555
H5E C11E 1_555 1_555
H5M C11M 1_555 1_555
H5N C11N 1_555 1_555
H5O C11O 1_555 1_555
H5B C11B 1_555 1_555
H5C C11C 1_555 1_555
H5A C11A 1_555 1_555
H5L C11L 1_555 1_555
C10 C10C 1_555 1_555
C10 C10B 1_555 1_555
C10 C10L 1_555 1_555
C10 C10O 1_555 1_555
C10 C11L 1_555 1_555
C10 C11O 1_555 1_555
C11 C10L 1_555 1_555
C11 C10O 1_555 1_555
C11 C11L 1_555 1_555
C11 C11B 1_555 1_555
C11 C11O 1_555 1_555
C11 C11C 1_555 1_555
N1C C1F 1_555 1_555
C1D C2D 1_555 1_555
C1B C3B 1_555 1_555
C1A C3A 1_555 1_555
C1C C3C 1_555 1_555
C2G C2B 1_555 1_555
C2E C2A 1_555 1_555
C2F C2C 1_555 1_555
C5F C6F 1_555 1_555
C6C C7C 1_555 1_555
C6A C7A 1_555 1_555
C6B C7B 1_555 1_555
C10C C10A 1_555 1_555
C10C C10L 1_555 1_555
C10C C10N 1_555 1_555
C10C C11L 1_555 1_555
C10C C11C 1_555 1_555
C10C C11N 1_555 1_555
C10A C10B 1_555 1_555
C10A C10M 1_555 1_555
C10A C10N 1_555 1_555
C10A C11A 1_555 1_555
C10A C11N 1_555 1_555
C10A C11M 1_555 1_555
C10B C10O 1_555 1_555
C10B C10M 1_555 1_555
C10B C11B 1_555 1_555
C10B C11O 1_555 1_555
C10B C11M 1_555 1_555
C10L C10O 1_555 1_555
C10L C10N 1_555 1_555
C10L C11L 1_555 1_555
C10L C11C 1_555 1_555
C10O C10M 1_555 1_555
C10O C11B 1_555 1_555
C10O C11O 1_555 1_555
C10M C10N 1_555 1_555
C10M C11A 1_555 1_555
C10M C11B 1_555 1_555
C10M C11M 1_555 1_555
C10N C11A 1_555 1_555
C10N C11C 1_555 1_555
C10N C11N 1_555 1_555
C10D C10G 1_555 1_555
C10D C10K 1_555 1_555
C10D C10H 1_555 1_555
C10D C11D 1_555 1_555
C10D C11K 1_555 1_555
C10D C11H 1_555 1_555
C10E C10F 1_555 1_555
C10E C10G 1_555 1_555
C10E C10I 1_555 1_555
C10E C10J 1_555 1_555
C10E C11E 1_555 1_555
C10E C11I 1_555 1_555
C10E C11J 1_555 1_555
C10F C10I 1_555 1_555
C10F C10K 1_555 1_555
C10F C11I 1_555 1_555
C10F C11F 1_555 1_555
C10F C11K 1_555 1_555
C10G C10J 1_555 1_555
C10G C10H 1_555 1_555
C10G C11G 1_555 1_555
C10G C11H 1_555 1_555
C10G C11J 1_555 1_555
C10I C10J 1_555 1_555
C10I C10K 1_555 1_555
C10I C11E 1_555 1_555
C10I C11I 1_555 1_555
C10I C11F 1_555 1_555
C10J C10H 1_555 1_555
C10J C11G 1_555 1_555
C10J C11E 1_555 1_555
C10J C11J 1_555 1_555
C10K C10H 1_555 1_555
C10K C11D 1_555 1_555
C10K C11F 1_555 1_555
C10K C11K 1_555 1_555
C10H C11D 1_555 1_555
C10H C11G 1_555 1_555
C10H C11H 1_555 1_555
C11A C11B 1_555 1_555
C11A C11C 1_555 1_555
C11A C11N 1_555 1_555
C11A C11M 1_555 1_555
C11D C11G 1_555 1_555
C11D C11F 1_555 1_555
C11D C11K 1_555 1_555
C11D C11H 1_555 1_555
C11G C11E 1_555 1_555
C11G C11H 1_555 1_555
C11G C11J 1_555 1_555
C11E C11I 1_555 1_555
C11E C11F 1_555 1_555
C11E C11J 1_555 1_555
C11I C11F 1_555 1_555
C11I C11K 1_555 1_555
C11I C11J 1_555 1_555
C11F C11K 1_555 1_555
C11K C11H 1_555 1_555
C11H C11J 1_555 1_555
C11L C11O 1_555 1_555
C11L C11C 1_555 1_555
C11L C11N 1_555 1_555
C11B C11O 1_555 1_555
C11B C11M 1_555 1_555
C11O C11M 1_555 1_555
C11C C11N 1_555 1_555
C11N C11M 1_555 1_555

#END
