
#######################################################################
#
#                 Cambridge Crystallographic Data Centre
#                                CCDC 
#
#######################################################################
#
# If this CIF has been generated from an entry in the Cambridge 
# Structural Database, then it will include bibliographic, chemical, 
# crystal, experimental, refinement or atomic coordinate data resulting 
# from the CCDC's data processing and validation procedures.
#
#######################################################################

data_MOYZUW
_chemical_formula_moiety         'C82 H56 N7 Ni1 O14 Zn9'
_symmetry_cell_setting           tetragonal
_symmetry_space_group_name_H-M   'P 4/m m m'
_symmetry_Int_Tables_number      123
_space_group_name_Hall           '-P 4 2'
loop_
_symmetry_equiv_pos_site_id
_symmetry_equiv_pos_as_xyz
1 x,y,z
2 -x,-y,z
3 -y,x,z
4 y,-x,z
5 -x,y,-z
6 x,-y,-z
7 y,x,-z
8 -y,-x,-z
9 -x,-y,-z
10 x,y,-z
11 y,-x,-z
12 -y,x,-z
13 x,-y,z
14 -x,y,z
15 -y,-x,z
16 y,x,z
_cell_length_a                   16.6544(4)
_cell_length_b                   16.6544(4)
_cell_length_c                   14.0525(7)
_cell_angle_alpha                90
_cell_angle_beta                 90
_cell_angle_gamma                90
_cell_volume                     3897.73
loop_
_atom_site_label
_atom_site_type_symbol
_atom_site_fract_x
_atom_site_fract_y
_atom_site_fract_z
Ni1 Ni 0.5000 0.5000 -0.5000
Zn1 Zn 1.0000 1.0000 -0.60425(2)
O1 O 0.91498(5) 0.91498(5) -0.57855(9)
N1 N 0.50000(11) 0.6170 -0.5000
N2 N 1.0000 1.0000 -0.74867(18)
C1 C 0.56557(10) 0.66811(10) -0.5000
C2 C 0.54035(13) 0.74967(13) -0.5000
H1 H 0.5735 0.7946 -0.5000
C3 C 0.64466(9) 0.64466(9) -0.5000
C4 C 0.70809(10) 0.70809(10) -0.5000
C5 C 0.73834(9) 0.73834(9) -0.41805(18)
H2 H 0.7190 0.7190 -0.3604
C6 C 0.79711(9) 0.79711(9) -0.41736(17)
H3 H 0.8164 0.8164 -0.3596
C7 C 0.82696(9) 0.82696(9) -0.5000
C8 C 0.89075(9) 0.89075(9) -0.5000
C9 C 1.0000 1.0000 -0.9464(2)
C10 C 0.9373(4) 0.9739(3) -0.7991(3)
H4 H 0.8927 0.9553 -0.7660
C11 C 0.9342(4) 0.9730(4) -0.8959(3)
H5 H 0.8888 0.9544 -0.9274
Zn1D Zn 1.0000 1.0000 -0.39575(2)
Zn1D_2 Zn 1.0000 0.0000 -0.39575(2)
Zn1_2 Zn 1.0000 0.0000 -0.60425(2)
Zn1D_3 Zn 0.0000 0.0000 -0.39575(2)
Zn1_3 Zn 0.0000 0.0000 -0.60425(2)
Zn1D_4 Zn 0.0000 1.0000 -0.39575(2)
Zn1_4 Zn 0.0000 1.0000 -0.60425(2)
Zn1D_5 Zn 1.0000 1.0000 -1.39575(2)
O1F O 0.91498(5) 0.91498(5) -0.42145(9)
O1E O 0.91498(5) 0.08502(5) -0.42145(9)
O1C O 0.91498(5) 0.08502(5) -0.57855(9)
O1G O 0.08502(5) 0.08502(5) -0.42145(9)
O1A O 0.08502(5) 0.08502(5) -0.57855(9)
O1D O 0.08502(5) 0.91498(5) -0.42145(9)
O1B O 0.08502(5) 0.91498(5) -0.57855(9)
O1A_2 O 1.08502(5) 1.08502(5) -0.57855(9)
O1B_2 O 1.08502(5) 0.91498(5) -0.57855(9)
O1C_2 O 0.91498(5) 1.08502(5) -0.57855(9)
O1G_2 O 1.08502(5) 1.08502(5) -0.42145(9)
O1E_2 O 0.91498(5) 1.08502(5) -0.42145(9)
O1D_2 O 1.08502(5) 0.91498(5) -0.42145(9)
N1B N 0.3830 0.50000(11) -0.5000
N1A N 0.50000(11) 0.3830 -0.5000
N1C N 0.6170 0.50000(11) -0.5000
N2D N 1.0000 1.0000 -1.25133(18)
N2D_2 N 1.0000 1.0000 -0.25133(18)
C1D C 0.43443(10) 0.66811(10) -0.5000
C1B C 0.33189(10) 0.56557(10) -0.5000
C1G C 0.33189(10) 0.43443(10) -0.5000
C1A C 0.43443(10) 0.33189(10) -0.5000
C1E C 0.56557(10) 0.33189(10) -0.5000
C1C C 0.66811(10) 0.43443(10) -0.5000
C1F C 0.66811(10) 0.56557(10) -0.5000
C2D C 0.45965(13) 0.74967(13) -0.5000
C2G C 0.25033(13) 0.45965(13) -0.5000
C2B C 0.25033(13) 0.54035(13) -0.5000
C2E C 0.54035(13) 0.25033(13) -0.5000
C2A C 0.45965(13) 0.25033(13) -0.5000
C2F C 0.74967(13) 0.54035(13) -0.5000
C2C C 0.74967(13) 0.45965(13) -0.5000
H1D H 0.4265 0.7946 -0.5000
H1B H 0.2054 0.5735 -0.5000
H1G H 0.2054 0.4265 -0.5000
H1A H 0.4265 0.2054 -0.5000
H1E H 0.5735 0.2054 -0.5000
H1C H 0.7946 0.4265 -0.5000
H1F H 0.7946 0.5735 -0.5000
C3B C 0.35534(9) 0.64466(9) -0.5000
C3A C 0.35534(9) 0.35534(9) -0.5000
C3C C 0.64466(9) 0.35534(9) -0.5000
C4C C 0.70809(10) 0.29191(10) -0.5000
C4A C 0.29191(10) 0.29191(10) -0.5000
C4B C 0.29191(10) 0.70809(10) -0.5000
C5E C 0.73834(9) 0.26166(9) -0.58195(18)
C5C C 0.73834(9) 0.26166(9) -0.41805(18)
C5G C 0.26166(9) 0.26166(9) -0.58195(18)
C5A C 0.26166(9) 0.26166(9) -0.41805(18)
C5D C 0.26166(9) 0.73834(9) -0.58195(18)
C5B C 0.26166(9) 0.73834(9) -0.41805(18)
C5F C 0.73834(9) 0.73834(9) -0.58195(18)
H2E H 0.7190 0.2810 -0.6396
H2C H 0.7190 0.2810 -0.3604
H2G H 0.2810 0.2810 -0.6396
H2A H 0.2810 0.2810 -0.3604
H2D H 0.2810 0.7190 -0.6396
H2B H 0.2810 0.7190 -0.3604
H2F H 0.7190 0.7190 -0.6396
C6E C 0.79711(9) 0.20289(9) -0.58264(17)
C6C C 0.79711(9) 0.20289(9) -0.41736(17)
C6G C 0.20289(9) 0.20289(9) -0.58264(17)
C6A C 0.20289(9) 0.20289(9) -0.41736(17)
C6D C 0.20289(9) 0.79711(9) -0.58264(17)
C6B C 0.20289(9) 0.79711(9) -0.41736(17)
C6F C 0.79711(9) 0.79711(9) -0.58264(17)
H3E H 0.8164 0.1836 -0.6404
H3C H 0.8164 0.1836 -0.3596
H3G H 0.1836 0.1836 -0.6404
H3A H 0.1836 0.1836 -0.3596
H3D H 0.1836 0.8164 -0.6404
H3B H 0.1836 0.8164 -0.3596
H3F H 0.8164 0.8164 -0.6404
C7C C 0.82696(9) 0.17304(9) -0.5000
C7A C 0.17304(9) 0.17304(9) -0.5000
C7B C 0.17304(9) 0.82696(9) -0.5000
C8C C 0.89075(9) 0.10925(9) -0.5000
C8A C 0.10925(9) 0.10925(9) -0.5000
C8B C 0.10925(9) 0.89075(9) -0.5000
C9D C 1.0000 1.0000 -1.0536(2)
C10C C 0.9739(3) 1.0627(4) -0.7991(3)
C10A C 1.0627(4) 1.0261(3) -0.7991(3)
C10B C 1.0261(3) 0.9373(4) -0.7991(3)
C10L C 0.9373(4) 1.0261(3) -0.7991(3)
C10O C 0.9739(3) 0.9373(4) -0.7991(3)
C10M C 1.0627(4) 0.9739(3) -0.7991(3)
C10N C 1.0261(3) 1.0627(4) -0.7991(3)
C10D C 1.0627(4) 0.9739(3) -1.2009(3)
C10E C 0.9373(4) 1.0261(3) -1.2009(3)
C10F C 0.9739(3) 0.9373(4) -1.2009(3)
C10G C 1.0261(3) 1.0627(4) -1.2009(3)
C10I C 0.9373(4) 0.9739(3) -1.2009(3)
C10J C 0.9739(3) 1.0627(4) -1.2009(3)
C10K C 1.0261(3) 0.9373(4) -1.2009(3)
C10H C 1.0627(4) 1.0261(3) -1.2009(3)
H4A H 1.1073 1.0447 -0.7660
H4G H 1.0447 1.1073 -1.2340
H4E H 0.8927 1.0447 -1.2340
H4F H 0.9553 0.8927 -1.2340
H4K H 1.0447 0.8927 -1.2340
H4D H 1.1073 0.9553 -1.2340
H4J H 0.9553 1.1073 -1.2340
H4H H 1.1073 1.0447 -1.2340
H4I H 0.8927 0.9553 -1.2340
H4B H 1.0447 0.8927 -0.7660
H4L H 0.8927 1.0447 -0.7660
H4C H 0.9553 1.1073 -0.7660
H4M H 1.1073 0.9553 -0.7660
H4N H 1.0447 1.1073 -0.7660
H4O H 0.9553 0.8927 -0.7660
C11A C 1.0658(4) 1.0270(4) -0.8959(3)
C11D C 1.0658(4) 0.9730(4) -1.1041(3)
C11G C 1.0270(4) 1.0658(4) -1.1041(3)
C11E C 0.9342(4) 1.0270(4) -1.1041(3)
C11I C 0.9342(4) 0.9730(4) -1.1041(3)
C11F C 0.9730(4) 0.9342(4) -1.1041(3)
C11K C 1.0270(4) 0.9342(4) -1.1041(3)
C11H C 1.0658(4) 1.0270(4) -1.1041(3)
C11J C 0.9730(4) 1.0658(4) -1.1041(3)
C11L C 0.9342(4) 1.0270(4) -0.8959(3)
C11B C 1.0270(4) 0.9342(4) -0.8959(3)
C11O C 0.9730(4) 0.9342(4) -0.8959(3)
C11C C 0.9730(4) 1.0658(4) -0.8959(3)
C11N C 1.0270(4) 1.0658(4) -0.8959(3)
C11M C 1.0658(4) 0.9730(4) -0.8959(3)
H5I H 0.8888 0.9544 -1.0726
H5F H 0.9544 0.8888 -1.0726
H5K H 1.0456 0.8888 -1.0726
H5D H 1.1112 0.9544 -1.0726
H5H H 1.1112 1.0456 -1.0726
H5G H 1.0456 1.1112 -1.0726
H5J H 0.9544 1.1112 -1.0726
H5E H 0.8888 1.0456 -1.0726
H5M H 1.1112 0.9544 -0.9274
H5N H 1.0456 1.1112 -0.9274
H5O H 0.9544 0.8888 -0.9274
H5B H 1.0456 0.8888 -0.9274
H5C H 0.9544 1.1112 -0.9274
H5A H 1.1112 1.0456 -0.9274
H5L H 0.8888 1.0456 -0.9274
loop_
_geom_bond_atom_site_label_1
_geom_bond_atom_site_label_2
_geom_bond_site_symmetry_1
_geom_bond_site_symmetry_2
Ni1 N1 1_555 1_555
Zn1 O1 1_555 1_555
O1 C8 1_555 1_555
N1 C1 1_555 1_555
N2 Zn1 1_555 1_555
C1 C2 1_555 1_555
C2 H1 1_555 1_555
C3 C1 1_555 1_555
C4 C3 1_555 1_555
C5 C4 1_555 1_555
H2 C5 1_555 1_555
C6 C5 1_555 1_555
H3 C6 1_555 1_555
C7 C6 1_555 1_555
C8 C7 1_555 1_555
C9 C11 1_555 1_555
C10 N2 1_555 1_555
H4 C10 1_555 1_555
C11 C10 1_555 1_555
H5 C11 1_555 1_555
Zn1D O1F 1_555 1_555
Zn1D_2 O1E 1_555 1_555
Zn1_2 O1C 1_555 1_555
Zn1D_3 O1G 1_555 1_555
Zn1_3 O1A 1_555 1_555
Zn1D_4 O1D 1_555 1_555
Zn1_4 O1B 1_555 1_555
Zn1D_5 N2D 1_555 1_555
O1F C8 1_555 1_555
O1E C8C 1_555 1_555
O1C C8C 1_555 1_555
O1G C8A 1_555 1_555
O1A C8A 1_555 1_555
O1D C8B 1_555 1_555
O1B C8B 1_555 1_555
O1A_2 Zn1 1_555 1_555
O1B_2 Zn1 1_555 1_555
O1C_2 Zn1 1_555 1_555
O1G_2 Zn1D 1_555 1_555
O1E_2 Zn1D 1_555 1_555
O1D_2 Zn1D 1_555 1_555
N1B Ni1 1_555 1_555
N1A Ni1 1_555 1_555
N1C Ni1 1_555 1_555
N2D C10D 1_555 1_555
N2D_2 Zn1D 1_555 1_555
C1D N1 1_555 1_555
C1B N1B 1_555 1_555
C1G N1B 1_555 1_555
C1A N1A 1_555 1_555
C1E N1A 1_555 1_555
C1C N1C 1_555 1_555
C1F C3 1_555 1_555
C2D C2 1_555 1_555
C2G C1G 1_555 1_555
C2B C1B 1_555 1_555
C2E C1E 1_555 1_555
C2A C1A 1_555 1_555
C2F C1F 1_555 1_555
C2C C1C 1_555 1_555
H1D C2D 1_555 1_555
H1B C2B 1_555 1_555
H1G C2G 1_555 1_555
H1A C2A 1_555 1_555
H1E C2E 1_555 1_555
H1C C2C 1_555 1_555
H1F C2F 1_555 1_555
C3B C1D 1_555 1_555
C3A C1G 1_555 1_555
C3C C1E 1_555 1_555
C4C C3C 1_555 1_555
C4A C3A 1_555 1_555
C4B C3B 1_555 1_555
C5E C4C 1_555 1_555
C5C C4C 1_555 1_555
C5G C4A 1_555 1_555
C5A C4A 1_555 1_555
C5D C4B 1_555 1_555
C5B C4B 1_555 1_555
C5F C4 1_555 1_555
H2E C5E 1_555 1_555
H2C C5C 1_555 1_555
H2G C5G 1_555 1_555
H2A C5A 1_555 1_555
H2D C5D 1_555 1_555
H2B C5B 1_555 1_555
H2F C5F 1_555 1_555
C6E C5E 1_555 1_555
C6C C5C 1_555 1_555
C6G C5G 1_555 1_555
C6A C5A 1_555 1_555
C6D C5D 1_555 1_555
C6B C5B 1_555 1_555
C6F C7 1_555 1_555
H3E C6E 1_555 1_555
H3C C6C 1_555 1_555
H3G C6G 1_555 1_555
H3A C6A 1_555 1_555
H3D C6D 1_555 1_555
H3B C6B 1_555 1_555
H3F C6F 1_555 1_555
C7C C6E 1_555 1_555
C7A C6G 1_555 1_555
C7B C6D 1_555 1_555
C8C C7C 1_555 1_555
C8A C7A 1_555 1_555
C8B C7B 1_555 1_555
C9D C9 1_555 1_555
C10C N2 1_555 1_555
C10A N2 1_555 1_555
C10B N2 1_555 1_555
C10L N2 1_555 1_555
C10O N2 1_555 1_555
C10M N2 1_555 1_555
C10N N2 1_555 1_555
C10D C10F 1_555 1_555
C10E N2D 1_555 1_555
C10F N2D 1_555 1_555
C10G N2D 1_555 1_555
C10I N2D 1_555 1_555
C10J N2D 1_555 1_555
C10K N2D 1_555 1_555
C10H N2D 1_555 1_555
H4A C10A 1_555 1_555
H4G C10G 1_555 1_555
H4E C10E 1_555 1_555
H4F C10F 1_555 1_555
H4K C10K 1_555 1_555
H4D C10D 1_555 1_555
H4J C10J 1_555 1_555
H4H C10H 1_555 1_555
H4I C10I 1_555 1_555
H4B C10B 1_555 1_555
H4L C10L 1_555 1_555
H4C C10C 1_555 1_555
H4M C10M 1_555 1_555
H4N C10N 1_555 1_555
H4O C10O 1_555 1_555
C11A C9 1_555 1_555
C11D C9D 1_555 1_555
C11G C9D 1_555 1_555
C11E C9D 1_555 1_555
C11I C9D 1_555 1_555
C11F C9D 1_555 1_555
C11K C9D 1_555 1_555
C11H C9D 1_555 1_555
C11J C9D 1_555 1_555
C11L C9 1_555 1_555
C11B C9 1_555 1_555
C11O C9 1_555 1_555
C11C C9 1_555 1_555
C11N C9 1_555 1_555
C11M C9 1_555 1_555
H5I C11I 1_555 1_555
H5F C11F 1_555 1_555
H5K C11K 1_555 1_555
H5D C11D 1_555 1_555
H5H C11H 1_555 1_555
H5G C11G 1_555 1_555
H5J C11J 1_555 1_555
H5E C11E 1_555 1_555
H5M C11M 1_555 1_555
H5N C11N 1_555 1_555
H5O C11O 1_555 1_555
H5B C11B 1_555 1_555
H5C C11C 1_555 1_555
H5A C11A 1_555 1_555
H5L C11L 1_555 1_555
C10 C10C 1_555 1_555
C10 C10B 1_555 1_555
C10 C10L 1_555 1_555
C10 C10O 1_555 1_555
C10 C11L 1_555 1_555
C10 C11O 1_555 1_555
C11 C10L 1_555 1_555
C11 C10O 1_555 1_555
C11 C11L 1_555 1_555
C11 C11B 1_555 1_555
C11 C11O 1_555 1_555
C11 C11C 1_555 1_555
N1C C1F 1_555 1_555
C1D C2D 1_555 1_555
C1B C3B 1_555 1_555
C1A C3A 1_555 1_555
C1C C3C 1_555 1_555
C2G C2B 1_555 1_555
C2E C2A 1_555 1_555
C2F C2C 1_555 1_555
C5F C6F 1_555 1_555
C6C C7C 1_555 1_555
C6A C7A 1_555 1_555
C6B C7B 1_555 1_555
C10C C10A 1_555 1_555
C10C C10L 1_555 1_555
C10C C10N 1_555 1_555
C10C C11L 1_555 1_555
C10C C11C 1_555 1_555
C10C C11N 1_555 1_555
C10A C10B 1_555 1_555
C10A C10M 1_555 1_555
C10A C10N 1_555 1_555
C10A C11A 1_555 1_555
C10A C11N 1_555 1_555
C10A C11M 1_555 1_555
C10B C10O 1_555 1_555
C10B C10M 1_555 1_555
C10B C11B 1_555 1_555
C10B C11O 1_555 1_555
C10B C11M 1_555 1_555
C10L C10O 1_555 1_555
C10L C10N 1_555 1_555
C10L C11L 1_555 1_555
C10L C11C 1_555 1_555
C10O C10M 1_555 1_555
C10O C11B 1_555 1_555
C10O C11O 1_555 1_555
C10M C10N 1_555 1_555
C10M C11A 1_555 1_555
C10M C11B 1_555 1_555
C10M C11M 1_555 1_555
C10N C11A 1_555 1_555
C10N C11C 1_555 1_555
C10N C11N 1_555 1_555
C10D C10G 1_555 1_555
C10D C10K 1_555 1_555
C10D C10H 1_555 1_555
C10D C11D 1_555 1_555
C10D C11K 1_555 1_555
C10D C11H 1_555 1_555
C10E C10F 1_555 1_555
C10E C10G 1_555 1_555
C10E C10I 1_555 1_555
C10E C10J 1_555 1_555
C10E C11E 1_555 1_555
C10E C11I 1_555 1_555
C10E C11J 1_555 1_555
C10F C10I 1_555 1_555
C10F C10K 1_555 1_555
C10F C11I 1_555 1_555
C10F C11F 1_555 1_555
C10F C11K 1_555 1_555
C10G C10J 1_555 1_555
C10G C10H 1_555 1_555
C10G C11G 1_555 1_555
C10G C11H 1_555 1_555
C10G C11J 1_555 1_555
C10I C10J 1_555 1_555
C10I C10K 1_555 1_555
C10I C11E 1_555 1_555
C10I C11I 1_555 1_555
C10I C11F 1_555 1_555
C10J C10H 1_555 1_555
C10J C11G 1_555 1_555
C10J C11E 1_555 1_555
C10J C11J 1_555 1_555
C10K C10H 1_555 1_555
C10K C11D 1_555 1_555
C10K C11F 1_555 1_555
C10K C11K 1_555 1_555
C10H C11D 1_555 1_555
C10H C11G 1_555 1_555
C10H C11H 1_555 1_555
C11A C11B 1_555 1_555
C11A C11C 1_555 1_555
C11A C11N 1_555 1_555
C11A C11M 1_555 1_555
C11D C11G 1_555 1_555
C11D C11F 1_555 1_555
C11D C11K 1_555 1_555
C11D C11H 1_555 1_555
C11G C11E 1_555 1_555
C11G C11H 1_555 1_555
C11G C11J 1_555 1_555
C11E C11I 1_555 1_555
C11E C11F 1_555 1_555
C11E C11J 1_555 1_555
C11I C11F 1_555 1_555
C11I C11K 1_555 1_555
C11I C11J 1_555 1_555
C11F C11K 1_555 1_555
C11K C11H 1_555 1_555
C11H C11J 1_555 1_555
C11L C11O 1_555 1_555
C11L C11C 1_555 1_555
C11L C11N 1_555 1_555
C11B C11O 1_555 1_555
C11B C11M 1_555 1_555
C11O C11M 1_555 1_555
C11C C11N 1_555 1_555
C11N C11M 1_555 1_555

#END
