
#######################################################################
#
#                 Cambridge Crystallographic Data Centre
#                                CCDC 
#
#######################################################################
#
# If this CIF has been generated from an entry in the Cambridge 
# Structural Database, then it will include bibliographic, chemical, 
# crystal, experimental, refinement or atomic coordinate data resulting 
# from the CCDC's data processing and validation procedures.
#
#######################################################################

data_AROQAB
_chemical_formula_moiety         '(C44 H38 K2 N4 O2)n'
_symmetry_cell_setting           monoclinic
_symmetry_space_group_name_H-M   'C c'
_symmetry_Int_Tables_number      9
_space_group_name_Hall           'C -2yc'
loop_
_symmetry_equiv_pos_site_id
_symmetry_equiv_pos_as_xyz
1 x,y,z
2 x,-y,1/2+z
3 1/2+x,1/2+y,z
4 1/2+x,1/2-y,1/2+z
_cell_length_a                   21.6589(4)
_cell_length_b                   15.1951(3)
_cell_length_c                   13.7325(2)
_cell_angle_alpha                90
_cell_angle_beta                 107.7860(10)
_cell_angle_gamma                90
_cell_volume                     4303.48
loop_
_atom_site_label
_atom_site_type_symbol
_atom_site_fract_x
_atom_site_fract_y
_atom_site_fract_z
_atom_site_U_iso_or_equiv
_atom_site_thermal_displace_type
K1 K -0.14236(4) -0.02028(7) -0.59677(6) 0.0659 Uani
N1 N -0.07812(14) -0.1147(2) -0.4211(2) 0.0495 Uani
O1 O -0.06066(13) -0.08567(19) -0.13165(19) 0.0584 Uani
O2 O 0.24495(12) -0.41437(18) -0.09759(19) 0.0550 Uani
C1 C 0.22788(16) -0.5762(3) -0.2460(3) 0.0499 Uani
C2 C 0.2777(2) -0.6343(3) -0.2404(3) 0.0600 Uani
C3 C -0.05611(15) -0.0860(2) -0.3293(3) 0.0451 Uani
C4 C -0.05981(17) -0.1994(2) -0.4462(2) 0.0478 Uani
N2 N -0.01179(13) -0.1311(2) -0.2512(2) 0.0465 Uani
C5 C -0.07545(18) 0.0060(3) -0.3144(3) 0.0515 Uani
K2 K 0.03703(4) -0.30920(5) -0.26583(5) 0.0508 Uani
C6 C -0.00713(19) -0.2060(3) -0.4849(3) 0.0580 Uani
C7 C -0.09828(18) -0.2731(3) -0.4425(3) 0.0512 Uani
C8 C -0.01474(16) -0.1183(2) -0.1560(3) 0.0476 Uani
C9 C -0.0279(2) 0.0675(3) -0.2638(3) 0.0651 Uani
C10 C -0.1385(2) 0.0350(3) -0.3546(3) 0.0607 Uani
N3 N 0.14308(13) -0.4328(2) -0.2142(2) 0.0482 Uani
C11 C 0.0067(2) -0.2882(4) -0.5179(3) 0.0692 Uani
C12 C -0.0300(3) -0.3606(3) -0.5147(3) 0.0723 Uani
C13 C -0.0823(2) -0.3534(3) -0.4774(3) 0.0636 Uani
C14 C 0.1023(2) -0.1699(3) -0.0872(3) 0.0698 Uani
C15 C 0.03835(17) -0.4937(3) -0.1587(3) 0.0507 Uani
C16 C 0.04523(19) -0.4368(3) -0.0746(3) 0.0573 Uani
C17 C -0.0085(2) -0.3871(3) -0.0741(3) 0.0659 Uani
C18 C -0.0663(2) -0.3918(3) -0.1510(4) 0.0751 Uani
C19 C -0.0725(2) -0.4500(3) -0.2303(4) 0.0691 Uani
C20 C -0.02099(18) -0.5014(3) -0.2358(3) 0.0560 Uani
C21 C 0.17479(18) -0.2953(3) -0.3334(3) 0.0540 Uani
C22 C 0.0322(2) -0.1247(4) -0.4874(4) 0.0780 Uani
C23 C -0.1536(2) -0.2651(3) -0.4004(3) 0.0623 Uani
C24 C 0.04327(18) -0.1505(3) -0.0707(3) 0.0545 Uani
H1 H 0.0155 0.0497 -0.2363 0.0780 Uiso
C25 C -0.0449(3) 0.1534(4) -0.2546(4) 0.0857 Uani
C26 C -0.1555(3) 0.1212(4) -0.3434(5) 0.0860 Uani
H2 H -0.1707 -0.0049 -0.3903 0.0730 Uiso
C27 C 0.13851(18) -0.5182(3) -0.1811(3) 0.0507 Uani
C28 C 0.20012(17) -0.3919(3) -0.1749(3) 0.0466 Uani
H3 H 0.0423 -0.2940 -0.5431 0.0830 Uiso
H4 H -0.0198 -0.4153 -0.5378 0.0860 Uiso
H5 H -0.1075 -0.4034 -0.4756 0.0760 Uiso
C29 C 0.1527(3) -0.2009(4) -0.0076(4) 0.0949 Uani
H6 H 0.1074 -0.1619 -0.1522 0.0840 Uiso
N4 N 0.08921(16) -0.5499(2) -0.1601(3) 0.0557 Uani
C30 C 0.1067(2) -0.4368(4) 0.0122(3) 0.0787 Uani
H7 H -0.0051 -0.3489 -0.0189 0.0800 Uiso
H8 H -0.1012 -0.3557 -0.1496 0.0900 Uiso
H9 H -0.1126 -0.4550 -0.2817 0.0820 Uiso
C31 C -0.0275(3) -0.5648(3) -0.3228(4) 0.0774 Uani
C32 C 0.21012(17) -0.3105(2) -0.2305(3) 0.0491 Uani
H10 H 0.1415 -0.3339 -0.3684 0.0650 Uiso
C33 C 0.1899(2) -0.2225(3) -0.3823(4) 0.0699 Uani
H11 H 0.0631 -0.1374 -0.5238 0.1170 Uiso
H12 H 0.0553 -0.1067 -0.4180 0.1170 Uiso
H13 H 0.0036 -0.0777 -0.5219 0.1170 Uiso
H14 H -0.1822 -0.2183 -0.4356 0.0940 Uiso
H15 H -0.1373 -0.2516 -0.3279 0.0940 Uiso
H16 H -0.1773 -0.3202 -0.4100 0.0940 Uiso
C34 C 0.0370(3) -0.1601(3) 0.0256(3) 0.0763 Uani
H17 H -0.0126 0.1941 -0.2213 0.1030 Uiso
C35 C -0.1078(4) 0.1812(4) -0.2927(5) 0.0932 Uani
H18 H -0.1990 0.1392 -0.3698 0.1040 Uiso
C36 C 0.19195(17) -0.5815(3) -0.1778(3) 0.0508 Uani
C37 C 0.1476(3) -0.2095(5) 0.0875(5) 0.1099 Uani
H19 H 0.1917 -0.2165 -0.0195 0.1140 Uiso
H20 H 0.1021 -0.3981 0.0658 0.1180 Uiso
H21 H 0.1420 -0.4161 -0.0115 0.1180 Uiso
H22 H 0.1160 -0.4961 0.0389 0.1180 Uiso
H23 H -0.0011 -0.5448 -0.3641 0.1160 Uiso
H24 H -0.0725 -0.5677 -0.3647 0.1160 Uiso
H25 H -0.0132 -0.6228 -0.2956 0.1160 Uiso
C38 C 0.2587(2) -0.2522(3) -0.1820(3) 0.0634 Uani
H26 H 0.1671 -0.2130 -0.4516 0.0840 Uiso
C39 C 0.2373(3) -0.1636(4) -0.3328(4) 0.0805 Uani
H27 H -0.0025 -0.1475 0.0375 0.0920 Uiso
C40 C 0.0908(3) -0.1892(4) 0.1060(4) 0.1019 Uani
H28 H -0.1187 0.2400 -0.2849 0.1120 Uiso
C41 C 0.2064(2) -0.6478(3) -0.1055(4) 0.0732 Uani
H29 H 0.1833 -0.2295 0.1411 0.1320 Uiso
C42 C 0.2717(3) -0.1800(3) -0.2324(5) 0.0849 Uani
H30 H 0.2832 -0.2621 -0.1135 0.0760 Uiso
H31 H 0.2460 -0.1136 -0.3667 0.0960 Uiso
H32 H 0.0876 -0.1946 0.1724 0.1220 Uiso
H33 H 0.2180 -0.5323 -0.2966 0.0600 Uiso
C43 C 0.2563(3) -0.7065(4) -0.0995(4) 0.0884 Uani
H34 H 0.1820 -0.6531 -0.0597 0.0880 Uiso
H35 H 0.3047 -0.1409 -0.1976 0.1020 Uiso
H36 H 0.3015 -0.6300 -0.2870 0.0720 Uiso
C44 C 0.2924(2) -0.6988(3) -0.1664(4) 0.0746 Uani
H37 H 0.2656 -0.7514 -0.0501 0.1070 Uiso
H38 H 0.3270 -0.7376 -0.1614 0.0890 Uiso
K1A K -0.14236(4) 0.02028(7) -0.09677(6) 0.0659 Uani
K1C K 0.35764(4) -0.47972(7) -0.09677(6) 0.0659 Uani
O1A O -0.06066(13) 0.08567(19) -0.63165(19) 0.0584 Uani
O2C O -0.25505(12) -0.08563(18) -0.59759(19) 0.0550 Uani
C1C C -0.27212(16) 0.0762(3) -0.7460(3) 0.0499 Uani
C2C C -0.2223(2) 0.1343(3) -0.7404(3) 0.0600 Uani
loop_
_atom_site_aniso_label
_atom_site_aniso_U_11
_atom_site_aniso_U_22
_atom_site_aniso_U_33
_atom_site_aniso_U_23
_atom_site_aniso_U_13
_atom_site_aniso_U_12
K1 0.0414(4) 0.0876(7) 0.0621(5) 0.0317(5) 0.0061(3) -0.0095(4)
N1 0.0511(16) 0.0549(18) 0.0400(15) 0.0058(13) 0.0101(12) 0.0150(13)
O1 0.0524 0.0765 0.0498 0.0081 0.0206 0.0216
O2 0.0454 0.0649 0.0497 -0.0026 0.0072 0.0112
C1 0.0413 0.055 0.0519 -0.0084 0.0119 -0.0004
C2 0.059 0.054 0.069 -0.012 0.0227 0.0019
C3 0.0383(16) 0.054(2) 0.0433(17) 0.0054(15) 0.0131(14) 0.0098(14)
C4 0.0510(19) 0.058(2) 0.0309(15) 0.0048(14) 0.0073(13) 0.0192(16)
N2 0.0426(14) 0.0558(18) 0.0383(14) 0.0022(12) 0.0080(11) 0.0158(13)
C5 0.058(2) 0.059(2) 0.0412(18) 0.0063(16) 0.0205(16) 0.0116(17)
K2 0.0502(4) 0.0542(4) 0.0484(4) 0.0096(3) 0.0157(3) 0.0141(3)
C6 0.053(2) 0.076(3) 0.0454(19) 0.0118(18) 0.0156(16) 0.0196(19)
C7 0.056(2) 0.057(2) 0.0357(16) -0.0028(15) 0.0067(14) 0.0143(17)
C8 0.0415(17) 0.057(2) 0.0422(17) 0.0020(15) 0.0096(14) 0.0067(15)
C9 0.078(3) 0.056(2) 0.060(2) -0.0015(19) 0.019(2) 0.005(2)
C10 0.059(2) 0.067(3) 0.061(2) 0.0121(19) 0.0254(18) 0.0192(19)
N3 0.0384(15) 0.0601(19) 0.0479(16) 0.0068(14) 0.0159(12) 0.0096(13)
C11 0.070(3) 0.094(4) 0.049(2) 0.004(2) 0.026(2) 0.036(3)
C12 0.099(3) 0.069(3) 0.048(2) -0.007(2) 0.021(2) 0.033(3)
C13 0.072(3) 0.066(3) 0.048(2) -0.0116(19) 0.0114(19) 0.014(2)
C14 0.049(2) 0.097(3) 0.056(2) -0.014(2) 0.0052(18) 0.016(2)
C15 0.052(2) 0.053(2) 0.054(2) 0.0165(16) 0.0264(16) 0.0081(16)
C16 0.060(2) 0.063(2) 0.054(2) 0.0173(18) 0.0249(17) 0.0067(18)
C17 0.090(3) 0.058(3) 0.063(2) 0.0105(19) 0.043(2) 0.017(2)
C18 0.070(3) 0.086(3) 0.082(3) 0.026(3) 0.042(2) 0.033(2)
C19 0.046(2) 0.094(3) 0.071(3) 0.021(2) 0.0235(19) 0.019(2)
C20 0.052(2) 0.063(2) 0.056(2) 0.0119(17) 0.0210(17) 0.0079(17)
C21 0.0480(19) 0.063(2) 0.053(2) 0.0009(17) 0.0184(16) 0.0049(17)
C22 0.062(3) 0.093(4) 0.086(3) 0.026(3) 0.033(2) 0.014(2)
C23 0.052(2) 0.075(3) 0.058(2) -0.003(2) 0.0138(17) 0.005(2)
C24 0.054(2) 0.060(2) 0.0424(18) -0.0057(16) 0.0043(15) 0.0161(17)
C25 0.117(4) 0.061(3) 0.081(3) -0.005(2) 0.033(3) 0.004(3)
C26 0.101(4) 0.071(3) 0.098(4) 0.023(3) 0.048(3) 0.045(3)
C27 0.0483(19) 0.059(2) 0.0453(19) 0.0091(16) 0.0149(15) 0.0106(16)
C28 0.0432(17) 0.0504(19) 0.0453(17) -0.0024(15) 0.0123(14) 0.0113(14)
C29 0.065(3) 0.122(4) 0.080(3) -0.017(3) -0.004(2) 0.036(3)
N4 0.0521(17) 0.0584(19) 0.0623(18) 0.0144(15) 0.0258(14) 0.0127(15)
C30 0.080(3) 0.101(4) 0.056(2) 0.011(2) 0.022(2) 0.005(3)
C31 0.077(3) 0.074(3) 0.078(3) -0.005(2) 0.019(2) -0.007(2)
C32 0.0440(17) 0.053(2) 0.0536(19) -0.0022(16) 0.0197(15) 0.0097(15)
C33 0.075(3) 0.077(3) 0.063(2) 0.016(2) 0.029(2) 0.012(2)
C34 0.091(3) 0.086(3) 0.044(2) 0.000(2) 0.009(2) 0.033(3)
C35 0.144(6) 0.059(3) 0.092(4) 0.008(3) 0.059(4) 0.032(4)
C36 0.0455(18) 0.056(2) 0.0510(19) 0.0015(17) 0.0149(15) 0.0081(16)
C37 0.104(4) 0.124(5) 0.072(3) -0.011(3) -0.017(3) 0.057(4)
C38 0.067(2) 0.064(3) 0.058(2) -0.0079(19) 0.0175(19) -0.003(2)
C39 0.086(3) 0.068(3) 0.092(4) 0.008(3) 0.034(3) -0.005(3)
C40 0.120(4) 0.123(5) 0.045(2) 0.004(3) -0.001(3) 0.045(4)
C41 0.076(3) 0.076(3) 0.078(3) 0.021(2) 0.039(2) 0.030(2)
C42 0.087(3) 0.070(3) 0.100(4) -0.013(3) 0.032(3) -0.015(3)
C43 0.100(4) 0.086(4) 0.082(3) 0.031(3) 0.032(3) 0.049(3)
C44 0.063(3) 0.073(3) 0.089(3) -0.015(2) 0.025(2) 0.023(2)
K1A 0.0414 0.0876 0.0621 -0.0317 0.0061 0.0095
K1C 0.0414 0.0876 0.0621 -0.0317 0.0061 0.0095
O1A 0.0524 0.0765 0.0498 -0.0081 0.0206 -0.0216
O2C 0.0454 0.0649 0.0497 0.0026 0.0072 -0.0112
C1C 0.0413 0.055 0.0519 0.0084 0.0119 0.0004
C2C 0.059 0.054 0.069 0.012 0.0227 -0.0019
loop_
_geom_bond_atom_site_label_1
_geom_bond_atom_site_label_2
_geom_bond_site_symmetry_1
_geom_bond_site_symmetry_2
K1 N1 1_555 1_555
N1 C3 1_555 1_555
O1 C8 1_555 1_555
O2 C28 1_555 1_555
C1 C2 1_555 1_555
C2 H36 1_555 1_555
C3 N2 1_555 1_555
C4 N1 1_555 1_555
N2 K2 1_555 1_555
C5 C3 1_555 1_555
K2 C4 1_555 1_555
C6 C4 1_555 1_555
C7 C4 1_555 1_555
C8 N2 1_555 1_555
C9 C5 1_555 1_555
C10 C5 1_555 1_555
N3 K2 1_555 1_555
C11 K2 1_555 1_555
C12 K2 1_555 1_555
C13 K2 1_555 1_555
C14 K2 1_555 1_555
C15 K2 1_555 1_555
C16 K2 1_555 1_555
C17 K2 1_555 1_555
C18 K2 1_555 1_555
C19 K2 1_555 1_555
C20 K2 1_555 1_555
C21 K2 1_555 1_555
C22 C6 1_555 1_555
C23 C7 1_555 1_555
C24 C8 1_555 1_555
H1 C9 1_555 1_555
C25 C9 1_555 1_555
C26 C10 1_555 1_555
H2 C10 1_555 1_555
C27 N3 1_555 1_555
C28 N3 1_555 1_555
H3 C11 1_555 1_555
H4 C12 1_555 1_555
H5 C13 1_555 1_555
C29 C14 1_555 1_555
H6 C14 1_555 1_555
N4 C15 1_555 1_555
C30 C16 1_555 1_555
H7 C17 1_555 1_555
H8 C18 1_555 1_555
H9 C19 1_555 1_555
C31 C20 1_555 1_555
C32 C21 1_555 1_555
H10 C21 1_555 1_555
C33 C21 1_555 1_555
H11 C22 1_555 1_555
H12 C22 1_555 1_555
H13 C22 1_555 1_555
H14 C23 1_555 1_555
H15 C23 1_555 1_555
H16 C23 1_555 1_555
C34 C24 1_555 1_555
H17 C25 1_555 1_555
C35 C25 1_555 1_555
H18 C26 1_555 1_555
C36 C1 1_555 1_555
C37 C29 1_555 1_555
H19 C29 1_555 1_555
H20 C30 1_555 1_555
H21 C30 1_555 1_555
H22 C30 1_555 1_555
H23 C31 1_555 1_555
H24 C31 1_555 1_555
H25 C31 1_555 1_555
C38 C32 1_555 1_555
H26 C33 1_555 1_555
C39 C33 1_555 1_555
H27 C34 1_555 1_555
C40 C34 1_555 1_555
H28 C35 1_555 1_555
C41 C36 1_555 1_555
H29 C37 1_555 1_555
C42 C38 1_555 1_555
H30 C38 1_555 1_555
H31 C39 1_555 1_555
H32 C40 1_555 1_555
H33 C1 1_555 1_555
C43 C41 1_555 1_555
H34 C41 1_555 1_555
H35 C42 1_555 1_555
C44 C2 1_555 1_555
H37 C43 1_555 1_555
H38 C44 1_555 1_555
K1A O1 1_555 1_555
K1C O2 1_555 1_555
O1A K1 1_555 1_555
O2C K1 1_555 1_555
C1C K1 1_555 1_555
C2C K1 1_555 1_555
C1 K1C 1_555 1_555
C2 K1C 1_555 1_555
K2 C6 1_555 1_555
K2 C7 1_555 1_555
C6 C11 1_555 1_555
C7 C13 1_555 1_555
C11 C12 1_555 1_555
C12 C13 1_555 1_555
C14 C24 1_555 1_555
C15 C16 1_555 1_555
C15 C20 1_555 1_555
C16 C17 1_555 1_555
C17 C18 1_555 1_555
C18 C19 1_555 1_555
C19 C20 1_555 1_555
C26 C35 1_555 1_555
C27 N4 1_555 1_555
C27 C36 1_555 1_555
C28 C32 1_555 1_555
C37 C40 1_555 1_555
C39 C42 1_555 1_555
C43 C44 1_555 1_555
C1C C2C 1_555 1_555

#END
