
#######################################################################
#
#                 Cambridge Crystallographic Data Centre
#                                CCDC 
#
#######################################################################
#
# If this CIF has been generated from an entry in the Cambridge 
# Structural Database, then it will include bibliographic, chemical, 
# crystal, experimental, refinement or atomic coordinate data resulting 
# from the CCDC's data processing and validation procedures.
#
#######################################################################

data_MEGBAD
_chemical_formula_moiety         '(C52 H36 Cl2 Mn5 N4 Ni1 O24)n'
_symmetry_cell_setting           orthorhombic
_symmetry_space_group_name_H-M   'F m m m'
_symmetry_Int_Tables_number      69
_space_group_name_Hall           '-F 2 2'
loop_
_symmetry_equiv_pos_site_id
_symmetry_equiv_pos_as_xyz
1 x,y,z
2 -x,-y,z
3 -x,y,-z
4 x,-y,-z
5 x,1/2+y,1/2+z
6 -x,1/2-y,1/2+z
7 -x,1/2+y,1/2-z
8 x,1/2-y,1/2-z
9 1/2+x,y,1/2+z
10 1/2-x,-y,1/2+z
11 1/2-x,y,1/2-z
12 1/2+x,-y,1/2-z
13 1/2+x,1/2+y,z
14 1/2-x,1/2-y,z
15 1/2-x,1/2+y,-z
16 1/2+x,1/2-y,-z
17 -x,-y,-z
18 x,y,-z
19 x,-y,z
20 -x,y,z
21 -x,1/2-y,1/2-z
22 x,1/2+y,1/2-z
23 x,1/2-y,1/2+z
24 -x,1/2+y,1/2+z
25 1/2-x,-y,1/2-z
26 1/2+x,y,1/2-z
27 1/2+x,-y,1/2+z
28 1/2-x,y,1/2+z
29 1/2-x,1/2-y,-z
30 1/2+x,1/2+y,-z
31 1/2+x,1/2-y,z
32 1/2-x,1/2+y,z
_cell_length_a                   24.0125(12)
_cell_length_b                   28.8745(17)
_cell_length_c                   31.348(2)
_cell_angle_alpha                90
_cell_angle_beta                 90
_cell_angle_gamma                90
_cell_volume                     21735.1
loop_
_atom_site_label
_atom_site_type_symbol
_atom_site_fract_x
_atom_site_fract_y
_atom_site_fract_z
_atom_site_U_iso_or_equiv
_atom_site_thermal_displace_type
Mn1 Mn 0.16404(9) 0.0000 -0.15123(7) 0.1047 Uani
Mn2 Mn 0.2500 0.0000 -0.2500 0.0814 Uani
Mn3 Mn 0.30809(6) 0.27780(6) 0.0000 0.0763 Uani
Ni1 Ni 0.5000 0.2500 -0.2500 0.0663 Uani
Cl1 Cl 0.39767(19) 0.3091(2) 0.0000 0.1947 Uani
O1 O 0.3106(2) 0.2251(2) -0.04753(16) 0.1030 Uani
O2 O 0.2333(3) 0.1834(2) -0.04664(17) 0.1047 Uani
O3 O 0.2223(4) 0.0533(3) -0.1483(2) 0.1520 Uani
O4 O 0.2741(3) 0.05314(18) -0.20618(18) 0.1070 Uani
O5 O 0.1590(4) 0.0000 -0.2237(2) 0.1140 Uani
O6 O 0.1064(8) 0.0530(8) -0.1445(6) 0.3803 Uani
O7 O 0.1686(9) 0.0000 -0.0736(5) 0.2583 Uani
N1 N 0.4190(3) 0.2500 -0.2500 0.0777 Uani
N2 N 0.5000 0.2039(3) -0.2023(2) 0.0697 Uani
C1 C 0.3265(3) 0.2346(3) -0.2340(2) 0.0967 Uani
H1 H 0.2954 0.2220 -0.2207 0.1160 Uiso
C2 C 0.3833(3) 0.2249(2) -0.2242(2) 0.0797 Uani
C3 C 0.3999(2) 0.1944(2) -0.19203(19) 0.0697 Uani
C4 C 0.4539(3) 0.1861(2) -0.1836(2) 0.0757 Uani
C5 C 0.4729(3) 0.1537(3) -0.1505(3) 0.0960 Uani
H2 H 0.4502 0.1362 -0.1327 0.1150 Uiso
C6 C 0.3549(3) 0.1719(2) -0.1660(2) 0.0750 Uani
C7 C 0.3290(3) 0.1324(2) -0.1795(2) 0.0817 Uani
H3 H 0.3400 0.1185 -0.2049 0.0980 Uiso
C8 C 0.2859(3) 0.1125(2) -0.1556(2) 0.0797 Uani
C9 C 0.2716(3) 0.1325(2) -0.1183(2) 0.0847 Uani
H4 H 0.2429 0.1194 -0.1024 0.1020 Uiso
C10 C 0.2976(3) 0.1715(2) -0.1031(2) 0.0797 Uani
C11 C 0.3399(3) 0.1898(2) -0.12664(19) 0.0770 Uani
H5 H 0.3594 0.2151 -0.1159 0.0920 Uiso
C12 C 0.2789(4) 0.1945(3) -0.0619(2) 0.0930 Uani
C13 C 0.2588(3) 0.0690(3) -0.1714(2) 0.0907 Uani
Mn1A Mn 0.83596(9) 0.0000 -0.15123(7) 0.1047 Uani
Mn1F Mn 0.83596(9) 0.5000 -0.34877(7) 0.1047 Uani
Mn1G Mn 0.16404(9) 0.5000 -0.34877(7) 0.1047 Uani
Mn1J Mn 0.33596(9) 0.0000 -0.34877(7) 0.1047 Uani
Mn2A Mn 0.7500 0.0000 -0.2500 0.0814 Uani
Mn2F Mn 0.7500 0.5000 -0.2500 0.0814 Uani
Mn2G Mn 0.2500 0.5000 -0.2500 0.0814 Uani
Mn3B Mn 0.69191(6) 0.27780(6) 0.0000 0.0763 Uani
Mn3M Mn 0.19191(6) 0.22220(6) 0.0000 0.0763 Uani
Mn3O Mn 0.80809(6) 0.22220(6) 0.0000 0.0763 Uani
Mn3E Mn 0.69191(6) 0.22220(6) -0.5000 0.0763 Uani
Mn3H Mn 0.80809(6) 0.27780(6) -0.5000 0.0763 Uani
Mn3G Mn 0.30809(6) 0.22220(6) -0.5000 0.0763 Uani
Mn3J Mn 0.19191(6) 0.27780(6) -0.5000 0.0763 Uani
Cl1B Cl 0.60233(19) 0.3091(2) 0.0000 0.1947 Uani
O1S O 0.6894(2) 0.2251(2) -0.04753(16) 0.1030 Uani
O1T O 0.6894(2) 0.2749(2) -0.45247(16) 0.1030 Uani
O1G O 0.3106(2) 0.2749(2) -0.45247(16) 0.1030 Uani
O1Q O 0.3106(2) 0.2251(2) 0.04753(16) 0.1030 Uani
O1B O 0.6894(2) 0.2251(2) 0.04753(16) 0.1030 Uani
O2S O 0.7667(3) 0.1834(2) -0.04664(17) 0.1047 Uani
O2T O 0.7667(3) 0.3166(2) -0.45336(17) 0.1047 Uani
O2G O 0.2333(3) 0.3166(2) -0.45336(17) 0.1047 Uani
O2M O 0.2667(3) 0.3166(2) -0.04664(17) 0.1047 Uani
O2BA O 0.2667(3) 0.3166(2) 0.04664(17) 0.1047 Uani
O2DA O 0.7333(3) 0.3166(2) -0.04664(17) 0.1047 Uani
O2O O 0.7333(3) 0.3166(2) 0.04664(17) 0.1047 Uani
O3S O 0.7777(4) 0.0533(3) -0.1483(2) 0.1520 Uani
O3T O 0.7777(4) 0.4467(3) -0.3517(2) 0.1520 Uani
O3G O 0.2223(4) 0.4467(3) -0.3517(2) 0.1520 Uani
O3R O 0.2223(4) -0.0533(3) -0.1483(2) 0.1520 Uani
O3A O 0.7777(4) -0.0533(3) -0.1483(2) 0.1520 Uani
O4S O 0.7259(3) 0.05314(18) -0.20618(18) 0.1070 Uani
O4T O 0.7259(3) 0.44686(18) -0.29382(18) 0.1070 Uani
O4G O 0.2741(3) 0.44686(18) -0.29382(18) 0.1070 Uani
O4J O 0.2259(3) 0.05314(18) -0.29382(18) 0.1070 Uani
O4R O 0.2741(3) -0.05314(18) -0.20618(18) 0.1070 Uani
O4X O 0.2259(3) -0.05314(18) -0.29382(18) 0.1070 Uani
O5J O 0.3410(4) 0.0000 -0.2763(2) 0.1140 Uani
O5A O 0.8410(4) 0.0000 -0.2237(2) 0.1140 Uani
O6R O 0.1064(8) -0.0530(8) -0.1445(6) 0.3803 Uani
O6S O 0.8936(8) 0.0530(8) -0.1445(6) 0.3803 Uani
O6A O 0.8936(8) -0.0530(8) -0.1445(6) 0.3803 Uani
O7A O 0.8314(9) 0.0000 -0.0736(5) 0.2583 Uani
N1S N 0.5810(3) 0.2500 -0.2500 0.0777 Uani
N2G N 0.5000 0.2961(3) -0.2977(2) 0.0697 Uani
C1G C 0.3265(3) 0.2654(3) -0.2660(2) 0.0967 Uani
C1S C 0.6735(3) 0.2346(3) -0.2340(2) 0.0967 Uani
C1T C 0.6735(3) 0.2654(3) -0.2660(2) 0.0967 Uani
H1G H 0.2954 0.2780 -0.2793 0.1160 Uiso
H1T H 0.7046 0.2780 -0.2793 0.1160 Uiso
H1S H 0.7046 0.2220 -0.2207 0.1160 Uiso
C2G C 0.3833(3) 0.2751(2) -0.2758(2) 0.0797 Uani
C2T C 0.6167(3) 0.2751(2) -0.2758(2) 0.0797 Uani
C2S C 0.6167(3) 0.2249(2) -0.2242(2) 0.0797 Uani
C3G C 0.3999(2) 0.3056(2) -0.30797(19) 0.0697 Uani
C3T C 0.6001(2) 0.3056(2) -0.30797(19) 0.0697 Uani
C3S C 0.6001(2) 0.1944(2) -0.19203(19) 0.0697 Uani
C4G C 0.4539(3) 0.3139(2) -0.3164(2) 0.0757 Uani
C4T C 0.5461(3) 0.3139(2) -0.3164(2) 0.0757 Uani
C4S C 0.5461(3) 0.1861(2) -0.1836(2) 0.0757 Uani
C5S C 0.5271(3) 0.1537(3) -0.1505(3) 0.0960 Uani
C5T C 0.5271(3) 0.3463(3) -0.3495(3) 0.0960 Uani
C5G C 0.4729(3) 0.3463(3) -0.3495(3) 0.0960 Uani
H2S H 0.5498 0.1362 -0.1327 0.1150 Uiso
H2G H 0.4502 0.3638 -0.3673 0.1150 Uiso
H2T H 0.5498 0.3638 -0.3673 0.1150 Uiso
C6S C 0.6451(3) 0.1719(2) -0.1660(2) 0.0750 Uani
C6T C 0.6451(3) 0.3281(2) -0.3340(2) 0.0750 Uani
C6G C 0.3549(3) 0.3281(2) -0.3340(2) 0.0750 Uani
C7S C 0.6710(3) 0.1324(2) -0.1795(2) 0.0817 Uani
C7T C 0.6710(3) 0.3676(2) -0.3205(2) 0.0817 Uani
C7G C 0.3290(3) 0.3676(2) -0.3205(2) 0.0817 Uani
H3S H 0.6600 0.1185 -0.2049 0.0980 Uiso
H3T H 0.6600 0.3815 -0.2951 0.0980 Uiso
H3G H 0.3400 0.3815 -0.2951 0.0980 Uiso
C8S C 0.7141(3) 0.1125(2) -0.1556(2) 0.0797 Uani
C8T C 0.7141(3) 0.3875(2) -0.3444(2) 0.0797 Uani
C8G C 0.2859(3) 0.3875(2) -0.3444(2) 0.0797 Uani
C9S C 0.7284(3) 0.1325(2) -0.1183(2) 0.0847 Uani
C9T C 0.7284(3) 0.3675(2) -0.3817(2) 0.0847 Uani
C9G C 0.2716(3) 0.3675(2) -0.3817(2) 0.0847 Uani
H4S H 0.7571 0.1194 -0.1024 0.1020 Uiso
H4T H 0.7571 0.3806 -0.3976 0.1020 Uiso
H4G H 0.2429 0.3806 -0.3976 0.1020 Uiso
C10S C 0.7024(3) 0.1715(2) -0.1031(2) 0.0797 Uani
C10T C 0.7024(3) 0.3285(2) -0.3969(2) 0.0797 Uani
C10G C 0.2976(3) 0.3285(2) -0.3969(2) 0.0797 Uani
C11S C 0.6601(3) 0.1898(2) -0.12664(19) 0.0770 Uani
C11T C 0.6601(3) 0.3102(2) -0.37336(19) 0.0770 Uani
C11G C 0.3399(3) 0.3102(2) -0.37336(19) 0.0770 Uani
H5S H 0.6406 0.2151 -0.1159 0.0920 Uiso
H5T H 0.6406 0.2849 -0.3841 0.0920 Uiso
H5G H 0.3594 0.2849 -0.3841 0.0920 Uiso
C12S C 0.7211(4) 0.1945(3) -0.0619(2) 0.0930 Uani
C12T C 0.7211(4) 0.3055(3) -0.4381(2) 0.0930 Uani
C12G C 0.2789(4) 0.3055(3) -0.4381(2) 0.0930 Uani
C13S C 0.7412(3) 0.0690(3) -0.1714(2) 0.0907 Uani
C13T C 0.7412(3) 0.4310(3) -0.3286(2) 0.0907 Uani
C13G C 0.2588(3) 0.4310(3) -0.3286(2) 0.0907 Uani
loop_
_atom_site_aniso_label
_atom_site_aniso_U_11
_atom_site_aniso_U_22
_atom_site_aniso_U_33
_atom_site_aniso_U_23
_atom_site_aniso_U_13
_atom_site_aniso_U_12
Mn1 0.1118(13) 0.0780(11) 0.1243(14) 0.000 0.0409(11) 0.000
Mn2 0.1052(15) 0.0698(13) 0.0693(12) 0.000 0.0109(11) 0.000
Mn3 0.0818(9) 0.0868(10) 0.0604(8) 0.000 0.000 -0.0121(7)
Ni1 0.0725(11) 0.0674(12) 0.0591(10) 0.0028(9) 0.000 0.000
Cl1 0.119(3) 0.182(5) 0.283(7) 0.000 0.000 -0.041(3)
O1 0.128(4) 0.104(4) 0.077(3) -0.019(3) 0.015(3) -0.014(3)
O2 0.123(4) 0.105(4) 0.086(3) -0.010(3) 0.033(3) -0.012(3)
O3 0.214(7) 0.124(5) 0.118(4) -0.048(4) 0.070(5) -0.075(5)
O4 0.134(4) 0.084(3) 0.103(4) -0.024(3) 0.020(3) -0.012(3)
O5 0.170(8) 0.094(5) 0.078(4) 0.000 0.028(5) 0.000
O6 0.331(19) 0.45(2) 0.36(2) 0.170(19) 0.172(16) 0.270(18)
O7 0.30(2) 0.32(2) 0.155(12) 0.000 0.062(13) 0.000
N1 0.084(5) 0.074(5) 0.075(4) -0.005(4) 0.000 0.000
N2 0.069(4) 0.079(5) 0.061(4) 0.013(3) 0.000 0.000
C1 0.061(4) 0.135(7) 0.094(5) 0.036(4) 0.006(3) -0.007(4)
C2 0.077(4) 0.082(4) 0.080(4) 0.004(3) 0.014(3) -0.009(3)
C3 0.068(4) 0.075(4) 0.066(3) 0.003(3) -0.003(3) -0.006(3)
C4 0.084(4) 0.075(4) 0.068(3) 0.007(3) 0.004(3) -0.004(3)
C5 0.080(4) 0.105(5) 0.103(5) 0.036(4) 0.011(4) 0.001(4)
C6 0.074(4) 0.082(4) 0.069(4) 0.002(3) 0.011(3) 0.001(3)
C7 0.103(5) 0.074(4) 0.068(4) -0.005(3) 0.011(3) -0.001(4)
C8 0.098(4) 0.076(4) 0.065(4) -0.006(3) 0.015(3) -0.013(3)
C9 0.100(5) 0.076(4) 0.078(4) 0.000(3) 0.009(3) -0.012(4)
C10 0.100(5) 0.080(4) 0.059(3) 0.001(3) 0.006(3) -0.001(4)
C11 0.088(4) 0.079(4) 0.064(3) -0.007(3) -0.005(3) -0.006(3)
C12 0.118(6) 0.092(5) 0.069(4) -0.012(4) -0.004(4) -0.004(5)
C13 0.109(5) 0.078(4) 0.085(4) -0.010(4) 0.022(4) -0.028(4)
Mn1A 0.1118 0.078 0.1243 0 -0.0409 0
Mn1F 0.1118 0.078 0.1243 0 0.0409 0
Mn1G 0.1118 0.078 0.1243 0 -0.0409 0
Mn1J 0.1118 0.078 0.1243 0 0.0409 0
Mn2A 0.1052 0.0698 0.0693 0 -0.0109 0
Mn2F 0.1052 0.0698 0.0693 0 0.0109 0
Mn2G 0.1052 0.0698 0.0693 0 -0.0109 0
Mn3B 0.0818 0.0868 0.0604 0 0 0.0121
Mn3M 0.0818 0.0868 0.0604 0 0 -0.0121
Mn3O 0.0818 0.0868 0.0604 0 0 0.0121
Mn3E 0.0818 0.0868 0.0604 0 0 -0.0121
Mn3H 0.0818 0.0868 0.0604 0 0 -0.0121
Mn3G 0.0818 0.0868 0.0604 0 0 0.0121
Mn3J 0.0818 0.0868 0.0604 0 0 0.0121
Cl1B 0.119 0.182 0.283 0 0 0.041
O1S 0.128 0.104 0.077 -0.019 -0.015 0.014
O1T 0.128 0.104 0.077 -0.019 0.015 -0.014
O1G 0.128 0.104 0.077 -0.019 -0.015 0.014
O1Q 0.128 0.104 0.077 0.019 -0.015 -0.014
O1B 0.128 0.104 0.077 0.019 0.015 0.014
O2S 0.123 0.105 0.086 -0.01 -0.033 0.012
O2T 0.123 0.105 0.086 -0.01 0.033 -0.012
O2G 0.123 0.105 0.086 -0.01 -0.033 0.012
O2M 0.123 0.105 0.086 0.01 -0.033 -0.012
O2BA 0.123 0.105 0.086 -0.01 0.033 -0.012
O2DA 0.123 0.105 0.086 0.01 0.033 0.012
O2O 0.123 0.105 0.086 -0.01 -0.033 0.012
O3S 0.214 0.124 0.118 -0.048 -0.07 0.075
O3T 0.214 0.124 0.118 -0.048 0.07 -0.075
O3G 0.214 0.124 0.118 -0.048 -0.07 0.075
O3R 0.214 0.124 0.118 0.048 0.07 0.075
O3A 0.214 0.124 0.118 0.048 -0.07 -0.075
O4S 0.134 0.084 0.103 -0.024 -0.02 0.012
O4T 0.134 0.084 0.103 -0.024 0.02 -0.012
O4G 0.134 0.084 0.103 -0.024 -0.02 0.012
O4J 0.134 0.084 0.103 0.024 0.02 0.012
O4R 0.134 0.084 0.103 0.024 0.02 0.012
O4X 0.134 0.084 0.103 -0.024 0.02 -0.012
O5J 0.17 0.094 0.078 0 0.028 0
O5A 0.17 0.094 0.078 0 -0.028 0
O6R 0.331 0.45 0.36 -0.17 0.172 -0.27
O6S 0.331 0.45 0.36 0.17 -0.172 -0.27
O6A 0.331 0.45 0.36 -0.17 -0.172 0.27
O7A 0.3 0.32 0.155 0 -0.062 0
N1S 0.084 0.074 0.075 -0.005 0 0
N2G 0.069 0.079 0.061 0.013 0 0
C1G 0.061 0.135 0.094 0.036 -0.006 0.007
C1S 0.061 0.135 0.094 0.036 -0.006 0.007
C1T 0.061 0.135 0.094 0.036 0.006 -0.007
C2G 0.077 0.082 0.08 0.004 -0.014 0.009
C2T 0.077 0.082 0.08 0.004 0.014 -0.009
C2S 0.077 0.082 0.08 0.004 -0.014 0.009
C3G 0.068 0.075 0.066 0.003 0.003 0.006
C3T 0.068 0.075 0.066 0.003 -0.003 -0.006
C3S 0.068 0.075 0.066 0.003 0.003 0.006
C4G 0.084 0.075 0.068 0.007 -0.004 0.004
C4T 0.084 0.075 0.068 0.007 0.004 -0.004
C4S 0.084 0.075 0.068 0.007 -0.004 0.004
C5S 0.08 0.105 0.103 0.036 -0.011 -0.001
C5T 0.08 0.105 0.103 0.036 0.011 0.001
C5G 0.08 0.105 0.103 0.036 -0.011 -0.001
C6S 0.074 0.082 0.069 0.002 -0.011 -0.001
C6T 0.074 0.082 0.069 0.002 0.011 0.001
C6G 0.074 0.082 0.069 0.002 -0.011 -0.001
C7S 0.103 0.074 0.068 -0.005 -0.011 0.001
C7T 0.103 0.074 0.068 -0.005 0.011 -0.001
C7G 0.103 0.074 0.068 -0.005 -0.011 0.001
C8S 0.098 0.076 0.065 -0.006 -0.015 0.013
C8T 0.098 0.076 0.065 -0.006 0.015 -0.013
C8G 0.098 0.076 0.065 -0.006 -0.015 0.013
C9S 0.1 0.076 0.078 0 -0.009 0.012
C9T 0.1 0.076 0.078 0 0.009 -0.012
C9G 0.1 0.076 0.078 0 -0.009 0.012
C10S 0.1 0.08 0.059 0.001 -0.006 0.001
C10T 0.1 0.08 0.059 0.001 0.006 -0.001
C10G 0.1 0.08 0.059 0.001 -0.006 0.001
C11S 0.088 0.079 0.064 -0.007 0.005 0.006
C11T 0.088 0.079 0.064 -0.007 -0.005 -0.006
C11G 0.088 0.079 0.064 -0.007 0.005 0.006
C12S 0.118 0.092 0.069 -0.012 0.004 0.004
C12T 0.118 0.092 0.069 -0.012 -0.004 -0.004
C12G 0.118 0.092 0.069 -0.012 0.004 0.004
C13S 0.109 0.078 0.085 -0.01 -0.022 0.028
C13T 0.109 0.078 0.085 -0.01 0.022 -0.028
C13G 0.109 0.078 0.085 -0.01 -0.022 0.028
loop_
_geom_bond_atom_site_label_1
_geom_bond_atom_site_label_2
_geom_bond_site_symmetry_1
_geom_bond_site_symmetry_2
Mn1 O3 1_555 1_555
Mn2 O4 1_555 1_555
Mn3 Cl1 1_555 1_555
Ni1 N1 1_555 1_555
O1 Mn3 1_555 1_555
O2 C12 1_555 1_555
O3 C13 1_555 1_555
O4 C13 1_555 1_555
O5 Mn1 1_555 1_555
O6 Mn1 1_555 1_555
O7 Mn1 1_555 1_555
N1 C2 1_555 1_555
N2 Ni1 1_555 1_555
C1 H1 1_555 1_555
C2 C1 1_555 1_555
C3 C2 1_555 1_555
C4 N2 1_555 1_555
C5 C4 1_555 1_555
H2 C5 1_555 1_555
C6 C3 1_555 1_555
C7 C6 1_555 1_555
H3 C7 1_555 1_555
C8 C7 1_555 1_555
C9 C8 1_555 1_555
H4 C9 1_555 1_555
C10 C9 1_555 1_555
C11 C6 1_555 1_555
H5 C11 1_555 1_555
C12 O1 1_555 1_555
C13 C8 1_555 1_555
Mn1A O3S 1_555 1_555
Mn1F O3T 1_555 1_555
Mn1G O3G 1_555 1_555
Mn1J O5J 1_555 1_555
Mn2A O4S 1_555 1_555
Mn2F O4T 1_555 1_555
Mn2G O4G 1_555 1_555
Mn3B Cl1B 1_555 1_555
Mn3M O2 1_555 1_555
Mn3O O2S 1_555 1_555
Mn3E O1T 1_555 1_555
Mn3H O2T 1_555 1_555
Mn3G O1G 1_555 1_555
Mn3J O2G 1_555 1_555
O1S Mn3B 1_555 1_555
O1T C12T 1_555 1_555
O1G C12G 1_555 1_555
O1Q Mn3 1_555 1_555
O1B Mn3B 1_555 1_555
O2S C12S 1_555 1_555
O2T C12T 1_555 1_555
O2G C12G 1_555 1_555
O2M Mn3 1_555 1_555
O2BA Mn3 1_555 1_555
O2DA Mn3B 1_555 1_555
O2O Mn3B 1_555 1_555
O3S C13S 1_555 1_555
O3T C13T 1_555 1_555
O3G C13G 1_555 1_555
O3R Mn1 1_555 1_555
O3A Mn1A 1_555 1_555
O4S C13S 1_555 1_555
O4T C13T 1_555 1_555
O4G C13G 1_555 1_555
O4J Mn2 1_555 1_555
O4R Mn2 1_555 1_555
O4X Mn2 1_555 1_555
O5J Mn2 1_555 1_555
O5A Mn1A 1_555 1_555
O6R Mn1 1_555 1_555
O6S Mn1A 1_555 1_555
O6A Mn1A 1_555 1_555
O7A Mn1A 1_555 1_555
N1S Ni1 1_555 1_555
N2G Ni1 1_555 1_555
C1G C1 1_555 1_555
C1S C1T 1_555 1_555
C1T H1T 1_555 1_555
H1G C1G 1_555 1_555
H1S C1S 1_555 1_555
C2G N1 1_555 1_555
C2T N1S 1_555 1_555
C2S N1S 1_555 1_555
C3G C2G 1_555 1_555
C3T C2T 1_555 1_555
C3S C2S 1_555 1_555
C4G N2G 1_555 1_555
C4T N2G 1_555 1_555
C4S N2 1_555 1_555
C5S C5 1_555 1_555
C5T C4T 1_555 1_555
C5G C4G 1_555 1_555
H2S C5S 1_555 1_555
H2G C5G 1_555 1_555
H2T C5T 1_555 1_555
C6S C3S 1_555 1_555
C6T C3T 1_555 1_555
C6G C3G 1_555 1_555
C7S C6S 1_555 1_555
C7T C6T 1_555 1_555
C7G C6G 1_555 1_555
H3S C7S 1_555 1_555
H3T C7T 1_555 1_555
H3G C7G 1_555 1_555
C8S C7S 1_555 1_555
C8T C7T 1_555 1_555
C8G C7G 1_555 1_555
C9S C8S 1_555 1_555
C9T C8T 1_555 1_555
C9G C8G 1_555 1_555
H4S C9S 1_555 1_555
H4T C9T 1_555 1_555
H4G C9G 1_555 1_555
C10S C9S 1_555 1_555
C10T C9T 1_555 1_555
C10G C9G 1_555 1_555
C11S C6S 1_555 1_555
C11T C6T 1_555 1_555
C11G C6G 1_555 1_555
H5S C11S 1_555 1_555
H5T C11T 1_555 1_555
H5G C11G 1_555 1_555
C12S O1S 1_555 1_555
C12T C10T 1_555 1_555
C12G C10G 1_555 1_555
C13S C8S 1_555 1_555
C13T C8T 1_555 1_555
C13G C8G 1_555 1_555
Mn2 O5 1_555 1_555
C3 C4 1_555 1_555
C10 C11 1_555 1_555
C10 C12 1_555 1_555
Mn2A O5A 1_555 1_555
C1G C2G 1_555 1_555
C1S C2S 1_555 1_555
C1T C2T 1_555 1_555
C3G C4G 1_555 1_555
C3T C4T 1_555 1_555
C3S C4S 1_555 1_555
C4S C5S 1_555 1_555
C5T C5G 1_555 1_555
C10S C11S 1_555 1_555
C10S C12S 1_555 1_555
C10T C11T 1_555 1_555
C10G C11G 1_555 1_555

#END
