
#######################################################################
#
#                 Cambridge Crystallographic Data Centre
#                                CCDC 
#
#######################################################################
#
# If this CIF has been generated from an entry in the Cambridge 
# Structural Database, then it will include bibliographic, chemical, 
# crystal, experimental, refinement or atomic coordinate data resulting 
# from the CCDC's data processing and validation procedures.
#
#######################################################################

data_ELOZEK
_chemical_formula_moiety         '(C12 H26 N2 O12 P4 Pb4)n'
_symmetry_cell_setting           rhombohedral
_symmetry_space_group_name_H-M   'R -3'
_symmetry_Int_Tables_number      148
_space_group_name_Hall           '-R 3'
loop_
_symmetry_equiv_pos_site_id
_symmetry_equiv_pos_as_xyz
1 x,y,z
2 -y,x-y,z
3 -x+y,-x,z
4 2/3+x,1/3+y,1/3+z
5 2/3-y,1/3+x-y,1/3+z
6 2/3-x+y,1/3-x,1/3+z
7 1/3+x,2/3+y,2/3+z
8 2/3+y,1/3-x+y,1/3-z
9 2/3+x-y,1/3+x,1/3-z
10 -x,-y,-z
11 y,-x+y,-z
12 x-y,x,-z
13 1/3-x,2/3-y,2/3-z
14 1/3+y,2/3-x+y,2/3-z
15 1/3+x-y,2/3+x,2/3-z
16 2/3-x,1/3-y,1/3-z
17 1/3-y,2/3+x-y,2/3+z
18 1/3-x+y,2/3-x,2/3+z
_cell_length_a                   36.5415(18)
_cell_length_b                   36.5415(18)
_cell_length_c                   10.3515(7)
_cell_angle_alpha                90
_cell_angle_beta                 90
_cell_angle_gamma                120.00
_cell_volume                     11970.3
loop_
_atom_site_label
_atom_site_type_symbol
_atom_site_fract_x
_atom_site_fract_y
_atom_site_fract_z
Pb1 Pb 0.58015(3) 0.06078(3) 0.13356(8)
Pb2 Pb 0.54442(3) -0.00027(3) -0.24432(8)
Pb3 Pb 0.67753(3) -0.02963(3) 0.35873(8)
Pb4 Pb 0.55112(3) -0.03374(3) 0.38375(8)
P1 P 0.50517(17) -0.04652(18) 0.0825(6)
P2 P 0.58962(18) -0.09616(19) 0.1868(5)
P3 P 0.54578(17) 0.05565(18) 0.4584(6)
P4 P 0.66970(19) 0.06213(19) 0.3044(6)
N1 N 0.5088(6) -0.1083(6) 0.2284(16)
N2 N 0.6265(6) 0.1059(6) 0.3643(17)
C1 C 0.5347(7) -0.1293(7) 0.237(2)
H1 H 0.5218 -0.1544 0.1829
H2 H 0.5342 -0.1384 0.3250
C2 C 0.5045(7) -0.0970(7) 0.097(2)
H3 H 0.4782 -0.1192 0.0615
H4 H 0.5273 -0.0955 0.0455
C3 C 0.4647(7) -0.1362(7) 0.287(2)
H5 H 0.4681 -0.1358 0.3801
H6 H 0.4481 -0.1228 0.2689
C4 C 0.4392(9) -0.1815(10) 0.246(3)
C5 C 0.440(3) -0.2066(13) 0.345(7)
C7 C 0.427(2) -0.1915(17) 0.142(5)
C9 C 0.5954(7) 0.1058(7) 0.451(2)
H7 H 0.5894 0.1277 0.4233
H8 H 0.6074 0.1130 0.5368
C10 C 0.6488(7) 0.0869(7) 0.422(2)
H9 H 0.6299 0.0653 0.4826
H10 H 0.6723 0.1083 0.4717
C11 C 0.6578(7) 0.1502(7) 0.318(2)
H11 H 0.6791 0.1488 0.2664
H12 H 0.6428 0.1596 0.2621
C12 C 0.6799(7) 0.1833(8) 0.421(3)
C13 C 0.7250(8) 0.1944(16) 0.417(4)
C14 C 0.685(3) 0.2221(12) 0.348(7)
O1 O 0.5512(4) -0.0120(4) 0.1089(15)
O2 O 0.4904(5) -0.0451(5) -0.0541(14)
O3 O 0.4760(5) -0.0468(4) 0.1884(13)
O4 O 0.6058(4) -0.0515(4) 0.2406(15)
O5 O 0.6137(5) -0.1156(5) 0.2440(15)
O6 O 0.5921(5) -0.0950(5) 0.0423(14)
O7 O 0.5530(5) 0.0249(5) 0.5401(14)
O8 O 0.5346(5) 0.0378(5) 0.3194(13)
O9 O 0.5140(4) 0.0661(5) 0.5159(13)
O10 O 0.6770(5) 0.0320(5) 0.3938(15)
O11 O 0.7098(5) 0.0976(5) 0.2467(17)
O12 O 0.6339(5) 0.0390(5) 0.2050(15)
O2I O 0.5096(5) 0.0451(5) 0.0541(14)
O5Q O 0.6040(7) 0.0530(5) -0.0893(15)
O3I O 0.5240(5) 0.0468(4) -0.1884(13)
O7_2 O 0.5530(5) 0.0249(5) -0.4599(14)
O8I O 0.4654(5) -0.0378(5) -0.3194(13)
O4D O 0.7182(4) -0.0094(6) 0.5739(15)
O6D O 0.7617(5) 0.0204(7) 0.3756(14)
O12D O 0.6277(5) -0.0718(7) 0.5383(15)
O9I O 0.4860(4) -0.0661(5) 0.4841(13)
O11D O 0.5691(5) -0.0545(7) 0.5800(17)
Pb1I Pb 0.41985(3) -0.06078(3) -0.13356(8)
Pb2I Pb 0.45558(3) 0.00027(3) 0.24432(8)
Pb3Q Pb 0.62617(4) -0.01086(3) 0.02540(8)
Pb1D Pb 0.60589(3) -0.14730(4) 0.46689(8)
Pb2D Pb 0.66694(3) -0.12198(4) 0.08901(8)
Pb2_2 Pb 0.54442(3) -0.00027(3) 0.75568(8)
Pb4I Pb 0.44888(3) 0.03374(3) 0.61625(8)
Pb4Q Pb 0.74847(4) 0.11555(3) 0.05042(8)
loop_
_geom_bond_atom_site_label_1
_geom_bond_atom_site_label_2
_geom_bond_site_symmetry_1
_geom_bond_site_symmetry_2
Pb1 O1 1_555 1_555
Pb2 O2 1_555 1_555
Pb3 O4 1_555 1_555
Pb4 O7 1_555 1_555
P1 C2 1_555 1_555
P2 C1 1_555 1_555
P3 C9 1_555 1_555
P4 C10 1_555 1_555
N1 C1 1_555 1_555
N2 C9 1_555 1_555
C1 H1 1_555 1_555
H2 C1 1_555 1_555
C2 N1 1_555 1_555
H3 C2 1_555 1_555
H4 C2 1_555 1_555
C3 N1 1_555 1_555
H5 C3 1_555 1_555
H6 C3 1_555 1_555
C4 C3 1_555 1_555
C5 C4 1_555 1_555
C7 C4 1_555 1_555
C9 H7 1_555 1_555
H8 C9 1_555 1_555
C10 N2 1_555 1_555
H9 C10 1_555 1_555
H10 C10 1_555 1_555
C11 N2 1_555 1_555
H11 C11 1_555 1_555
H12 C11 1_555 1_555
C12 C11 1_555 1_555
C13 C12 1_555 1_555
C14 C12 1_555 1_555
O1 P1 1_555 1_555
O2 P1 1_555 1_555
O3 P1 1_555 1_555
O4 P2 1_555 1_555
O5 P2 1_555 1_555
O6 P2 1_555 1_555
O7 P3 1_555 1_555
O8 Pb1 1_555 1_555
O9 P3 1_555 1_555
O10 Pb3 1_555 1_555
O11 P4 1_555 1_555
O12 Pb1 1_555 1_555
O2I Pb1 1_555 1_555
O5Q Pb1 1_555 1_555
O3I Pb2 1_555 1_555
O7_2 Pb2 1_555 1_555
O8I Pb2 1_555 1_555
O4D Pb3 1_555 1_555
O6D Pb3 1_555 1_555
O12D Pb3 1_555 1_555
O9I Pb4 1_555 1_555
O11D Pb4 1_555 1_555
Pb1I O2 1_555 1_555
Pb2I O3 1_555 1_555
Pb3Q O4 1_555 1_555
Pb1D O5 1_555 1_555
Pb2D O5 1_555 1_555
Pb2_2 O7 1_555 1_555
Pb4I O9 1_555 1_555
Pb4Q O11 1_555 1_555
Pb2 O5Q 1_555 1_555
P3 O8 1_555 1_555
P4 O10 1_555 1_555
P4 O12 1_555 1_555
O6 Pb3Q 1_555 1_555
O8 Pb2I 1_555 1_555
O12 Pb3Q 1_555 1_555
O2I Pb2I 1_555 1_555
O8I Pb1I 1_555 1_555
O12D Pb1D 1_555 1_555

#END
