
#######################################################################
#
#                 Cambridge Crystallographic Data Centre
#                                CCDC 
#
#######################################################################
#
# If this CIF has been generated from an entry in the Cambridge 
# Structural Database, then it will include bibliographic, chemical, 
# crystal, experimental, refinement or atomic coordinate data resulting 
# from the CCDC's data processing and validation procedures.
#
#######################################################################

data_EQAMUG
_chemical_formula_moiety         'C24 H12 N4 Nd10 O35'
_symmetry_cell_setting           orthorhombic
_symmetry_space_group_name_H-M   'P b c a'
_symmetry_Int_Tables_number      61
_space_group_name_Hall           '-P 2ac 2ab'
loop_
_symmetry_equiv_pos_site_id
_symmetry_equiv_pos_as_xyz
1 x,y,z
2 1/2-x,-y,1/2+z
3 -x,1/2+y,1/2-z
4 1/2+x,1/2-y,-z
5 -x,-y,-z
6 1/2+x,y,1/2-z
7 x,1/2-y,1/2+z
8 1/2-x,1/2+y,z
_cell_length_a                   6.9070(7)
_cell_length_b                   21.897(2)
_cell_length_c                   23.151(2)
_cell_angle_alpha                90
_cell_angle_beta                 90
_cell_angle_gamma                90
_cell_volume                     3501.42
loop_
_atom_site_label
_atom_site_type_symbol
_atom_site_fract_x
_atom_site_fract_y
_atom_site_fract_z
O12 O 0.9023(7) 0.5497(2) 0.6917(2)
O13 O 0.3114(6) 0.56836(19) 0.68471(18)
O14 O 0.3841(7) 0.46956(19) 0.39006(19)
Nd1 Nd 0.57830(4) 0.26843(2) 0.44936(2)
O1 O 0.6006(6) 0.31026(17) 0.34950(15)
O2 O 0.5664(6) 0.21088(17) 0.35873(15)
O3 O 0.7982(6) 0.35142(17) 0.46075(16)
O4 O 0.4150(5) 0.22452(16) 0.05241(14)
O5 O 0.7284(5) 0.23946(16) 0.05149(14)
O6 O 1.0494(5) 0.33625(16) 0.52031(15)
C1 C 0.5824(7) 0.2577(2) 0.3274(2)
C2 C 0.5795(7) 0.2497(2) 0.2634(2)
C3 C 0.5707(9) 0.1918(2) 0.2398(2)
H1 H 0.5646 0.1576 0.2636
C4 C 0.5868(9) 0.3002(2) 0.2271(2)
H2 H 0.5928 0.3392 0.2429
C5 C 0.5730(7) 0.2315(2) 0.0785(2)
C6 C 0.5765(7) 0.2347(2) 0.1438(2)
O7 O 0.3846(6) 0.36281(18) 0.45478(18)
C7 C 0.5853(9) 0.2931(3) 0.1675(2)
H3 H 0.5901 0.3271 0.1436
C8 C 0.5710(10) 0.1854(2) 0.1804(2)
O8 O 0.6021(11) 0.1170(2) 0.1050(2)
O9 O 0.535(2) 0.0826(3) 0.1887(3)
N1 N 0.5683(16) 0.1239(3) 0.1562(3)
N2 N 1.0976(18) 0.4308(5) 0.5995(5)
O10 O 0.961(2) 0.4137(6) 0.6297(6)
O11 O 1.263(3) 0.4245(8) 0.6107(7)
C9 C 0.9313(8) 0.3697(2) 0.4932(2)
C10 C 0.8980(8) 0.4750(3) 0.4534(2)
C11 C 1.0628(9) 0.4627(3) 0.5441(2)
C12 C 0.9641(7) 0.4374(2) 0.4980(2)
O3D O 1.2018(6) 0.64858(17) 0.53925(16)
O6D O 0.9506(5) 0.66375(16) 0.47969(15)
N2D N 0.9024(18) 0.5692(5) 0.4005(5)
O10D O 1.039(2) 0.5863(6) 0.3703(6)
O11D O 0.737(3) 0.5755(8) 0.3893(7)
C9D C 1.0687(8) 0.6303(2) 0.5068(2)
C10D C 1.1020(8) 0.5250(3) 0.5466(2)
C11D C 0.9372(9) 0.5373(3) 0.4559(2)
C12D C 1.0359(7) 0.5626(2) 0.5020(2)
Nd1D Nd 1.42170(4) 0.73157(2) 0.55064(2)
O1D O 1.3994(6) 0.68974(17) 0.65050(15)
O2D O 1.4336(6) 0.78912(17) 0.64127(15)
O4D O 1.5850(5) 0.77548(16) 0.94759(14)
O5D O 1.2716(5) 0.76054(16) 0.94851(14)
C1D C 1.4176(7) 0.7423(2) 0.6726(2)
C2D C 1.4205(7) 0.7503(2) 0.7366(2)
C3D C 1.4293(9) 0.8082(2) 0.7602(2)
H1D H 1.4354 0.8424 0.7364
C4D C 1.4132(9) 0.6998(2) 0.7729(2)
H2D H 1.4072 0.6608 0.7571
C5D C 1.4270(7) 0.7685(2) 0.9215(2)
C6D C 1.4235(7) 0.7653(2) 0.8562(2)
O7D O 1.6154(6) 0.63719(18) 0.54522(18)
C7D C 1.4147(9) 0.7069(3) 0.8325(2)
H3D H 1.4099 0.6729 0.8564
C8D C 1.4290(10) 0.8146(2) 0.8196(2)
O8D O 1.3979(11) 0.8830(2) 0.8950(2)
O9D O 1.465(2) 0.9174(3) 0.8113(3)
N1D N 1.4317(16) 0.8761(3) 0.8438(3)
Nd1A Nd 0.92170(4) 0.73157(2) 0.94936(2)
Nd1A_2 Nd 1.92170(4) 0.73157(2) 0.94936(2)
Nd1B Nd 1.42170(4) 0.76843(2) 1.05064(2)
Nd1C Nd 1.07830(4) 0.23157(2) 0.55064(2)
Nd1E Nd 0.07830(4) 0.26843(2) 0.05064(2)
Nd1E_2 Nd 1.07830(4) 0.26843(2) 0.05064(2)
Nd1F Nd 0.57830(4) 0.23157(2) -0.05064(2)
Nd1G Nd 0.92170(4) 0.76843(2) 0.44936(2)
O4A O 1.0850(5) 0.77548(16) 0.55241(14)
O4B O 1.5850(5) 0.72452(16) 0.44759(14)
O4E O 0.9150(5) 0.22452(16) 0.44759(14)
O4F O 0.4150(5) 0.27548(16) 0.55241(14)
O5A O 1.7716(5) 0.76054(16) 0.55149(14)
O5B O 1.2716(5) 0.73946(16) 0.44851(14)
O5E O 0.2284(5) 0.23946(16) 0.44851(14)
O5F O 0.7284(5) 0.26054(16) 0.55149(14)
O6C O 0.5494(5) 0.16375(16) 0.47969(15)
O6G O 1.4506(5) 0.83625(16) 0.52031(15)
loop_
_geom_bond_atom_site_label_1
_geom_bond_atom_site_label_2
_geom_bond_site_symmetry_1
_geom_bond_site_symmetry_2
Nd1 O1 1_555 1_555
O1 C1 1_555 1_555
O2 Nd1 1_555 1_555
O3 Nd1 1_555 1_555
O4 C5 1_555 1_555
O5 C5 1_555 1_555
O6 C9 1_555 1_555
C1 O2 1_555 1_555
C2 C1 1_555 1_555
C3 C2 1_555 1_555
H1 C3 1_555 1_555
C4 C2 1_555 1_555
H2 C4 1_555 1_555
C5 C6 1_555 1_555
C6 C7 1_555 1_555
O7 Nd1 1_555 1_555
C7 C4 1_555 1_555
H3 C7 1_555 1_555
C8 C3 1_555 1_555
O8 N1 1_555 1_555
O9 N1 1_555 1_555
N1 C8 1_555 1_555
N2 O10 1_555 1_555
O11 N2 1_555 1_555
C9 O3 1_555 1_555
C10 C12 1_555 1_555
C11 N2 1_555 1_555
C12 C9 1_555 1_555
O3D C9D 1_555 1_555
O6D C9D 1_555 1_555
N2D O10D 1_555 1_555
O11D N2D 1_555 1_555
C9D C12D 1_555 1_555
C10D C11 1_555 1_555
C11D C10 1_555 1_555
C12D C10D 1_555 1_555
Nd1D O3D 1_555 1_555
O1D Nd1D 1_555 1_555
O2D Nd1D 1_555 1_555
O4D C5D 1_555 1_555
O5D C5D 1_555 1_555
C1D O1D 1_555 1_555
C2D C1D 1_555 1_555
C3D C2D 1_555 1_555
H1D C3D 1_555 1_555
C4D C2D 1_555 1_555
H2D C4D 1_555 1_555
C5D C6D 1_555 1_555
C6D C7D 1_555 1_555
O7D Nd1D 1_555 1_555
C7D C4D 1_555 1_555
H3D C7D 1_555 1_555
C8D C3D 1_555 1_555
O8D N1D 1_555 1_555
O9D N1D 1_555 1_555
N1D C8D 1_555 1_555
Nd1A O5D 1_555 1_555
Nd1A_2 O4D 1_555 1_555
Nd1B O4D 1_555 1_555
Nd1C O6 1_555 1_555
Nd1E O4 1_555 1_555
Nd1E_2 O5 1_555 1_555
Nd1F O4 1_555 1_555
Nd1G O6D 1_555 1_555
O4A Nd1D 1_555 1_555
O4B Nd1D 1_555 1_555
O4E Nd1 1_555 1_555
O4F Nd1 1_555 1_555
O5A Nd1D 1_555 1_555
O5B Nd1D 1_555 1_555
O5E Nd1 1_555 1_555
O5F Nd1 1_555 1_555
O6C Nd1 1_555 1_555
O6G Nd1D 1_555 1_555
O5 Nd1F 1_555 1_555
C6 C8 1_555 1_555
C11 C12 1_555 1_555
N2D C11D 1_555 1_555
C11D C12D 1_555 1_555
O2D C1D 1_555 1_555
O5D Nd1B 1_555 1_555
C6D C8D 1_555 1_555
Nd1C O4E 1_555 1_555
Nd1C O5F 1_555 1_555
Nd1G O4A 1_555 1_555
Nd1G O5B 1_555 1_555

#END
