
#######################################################################
#
#                 Cambridge Crystallographic Data Centre
#                                CCDC 
#
#######################################################################
#
# If this CIF has been generated from an entry in the Cambridge 
# Structural Database, then it will include bibliographic, chemical, 
# crystal, experimental, refinement or atomic coordinate data resulting 
# from the CCDC's data processing and validation procedures.
#
#######################################################################

data_ANOMOG
_chemical_formula_moiety         'C102 H34 Cu20 N6 O62'
_symmetry_cell_setting           monoclinic
_symmetry_space_group_name_H-M   'C 2/m'
_symmetry_Int_Tables_number      12
_space_group_name_Hall           '-C 2y'
loop_
_symmetry_equiv_pos_site_id
_symmetry_equiv_pos_as_xyz
1 x,y,z
2 -x,y,-z
3 1/2+x,1/2+y,z
4 1/2-x,1/2+y,-z
5 -x,-y,-z
6 x,-y,z
7 1/2-x,1/2-y,-z
8 1/2+x,1/2-y,z
_cell_length_a                   32.461(12)
_cell_length_b                   18.024(6)
_cell_length_c                   19.748(7)
_cell_angle_alpha                90
_cell_angle_beta                 119.964(9)
_cell_angle_gamma                90
_cell_volume                     10009.8
loop_
_atom_site_label
_atom_site_type_symbol
_atom_site_fract_x
_atom_site_fract_y
_atom_site_fract_z
O1 O 0.2620(2) 0.1296(4) -0.0004(4)
O2 O 0.1875(3) 0.1966(5) -0.0030(5)
O3 O 0.0454(2) 0.0747(4) 0.0965(3)
Cu1 Cu -0.00400(6) -0.0000 0.06329(9)
Cu2 Cu 0.22008(5) 0.21122(9) -0.06166(7)
O4 O 0.0051(4) 0.0000 0.1816(5)
O5 O 0.1720(2) 0.1416(5) -0.1600(4)
O6 O 0.0533(2) 0.0708(5) -0.0110(4)
O7 O 0.2382(3) 0.2623(4) 0.1008(4)
O8 O 0.3141(3) 0.1940(5) 0.1063(4)
C1 C 0.0672(4) 0.0999(7) 0.0614(8)
C2 C 0.1060(4) 0.1435(7) 0.0987(7)
C3 C 0.1300(3) 0.1652(6) 0.0618(5)
H1 H 0.1193 0.1504 0.0094
C4 C 0.1709(5) 0.2101(8) 0.1023(8)
C5 C 0.1976(6) 0.2270(9) 0.0664(9)
C6 C 0.1917(5) 0.2246(8) 0.1808(7)
H2 H 0.2207 0.2508 0.2097
C7 C 0.1655(5) 0.1966(7) 0.2140(6)
C8 C 0.1243(4) 0.1592(8) 0.1791(8)
H3 H 0.1084 0.1443 0.2064
C9 C 0.2232(4) 0.3058(9) 0.4079(8)
C10 C 0.2382(4) 0.2468(7) 0.4599(5)
C11 C 0.2235(4) 0.1768(9) 0.4323(8)
C12 C 0.2389(5) 0.3759(10) 0.4368(10)
H4 H 0.2315 0.4168 0.4022
C13 C 0.2330(5) 0.1131(9) 0.4793(9)
H5 H 0.2216 0.0655 0.4572
C14 C 0.3034(6) 0.0000 0.0717(10)
H6 H 0.2756 -0.0000 0.0216
C15 C 0.1947(5) 0.2855(11) 0.3201(9)
C16 C 0.3626(5) 0.0651(9) 0.1859(8)
H7 H 0.3789 0.1093 0.2113
C17 C 0.3748(8) 0.0000 0.2212(13)
C18 C 0.3228(4) 0.0655(8) 0.1065(8)
O9 O 0.1818(3) 0.3401(6) 0.2772(5)
O10 O 0.1816(4) 0.0967(7) 0.3180(6)
C19 C 0.1973(6) 0.1538(11) 0.3466(10)
N1 N 0.1859(3) 0.2171(7) 0.2996(6)
C20 C 0.3010(5) 0.1365(10) 0.0683(9)
C21 C 0.4379(8) 0.0250(14) 0.4366(13)
C22 C 0.4820(5) 0.0000 0.4592(7)
C23 C 0.4921(6) 0.0217(12) 0.4029(10)
C24 C 0.5393(9) 0.0473(14) 0.4297(16)
H8 H 0.5469 0.0608 0.3906
C25 C 0.4230(12) 0.0550(17) 0.4899(18)
H9 H 0.3928 0.0765 0.4740
O11 O 0.3558(6) -0.0531(10) 0.3289(10)
N2 N 0.4149(5) -0.0000 0.3045(7)
C26 C 0.4057(8) -0.0303(12) 0.3600(13)
C27 C 0.4583(9) 0.021(2) 0.3188(14)
O12 O 0.4714(8) 0.0534(13) 0.2743(13)
O1D O 0.7380(2) -0.1296(4) 1.0004(4)
O1A O 0.7380(2) 0.1296(4) 1.0004(4)
O1E O 0.2620(2) -0.1296(4) -0.0004(4)
O1F O 0.2380(2) 0.3704(4) 1.0004(4)
O1A_2 O -0.2620(2) 0.1296(4) 0.0004(4)
O1G O -0.2380(2) 0.3704(4) -1.0004(4)
O2F O 0.3125(3) 0.3034(5) 1.0030(5)
O2A O -0.1875(3) 0.1966(5) 0.0030(5)
O2G O -0.3125(3) 0.3034(5) -1.0030(5)
O3F O 0.4546(2) 0.4253(4) 0.9035(3)
O3A O -0.0454(2) 0.0747(4) -0.0965(3)
O3G O -0.4546(2) 0.4253(4) -0.9035(3)
O3E O 0.0454(2) -0.0747(4) 0.0965(3)
O3C O 0.4546(2) 0.5747(4) 0.9035(3)
Cu1C Cu 0.50400(6) 0.5000 0.93671(9)
Cu1A Cu 0.00400(6) 0.0000 -0.06329(9)
Cu1B Cu 0.49600(6) 0.5000 1.06329(9)
Cu1B_2 Cu -0.50400(6) 0.5000 -0.93671(9)
Cu1C_2 Cu -0.49600(6) 0.5000 -1.06329(9)
Cu2F Cu 0.27992(5) 0.28878(9) 1.06166(7)
Cu2A Cu -0.22008(5) 0.21122(9) 0.06166(7)
Cu2G Cu -0.27992(5) 0.28878(9) -1.06166(7)
Cu2F_2 Cu 0.27992(5) 0.28878(9) 0.06166(7)
Cu2D Cu 0.77992(5) -0.21122(9) 1.06166(7)
Cu2B Cu 0.72008(5) -0.28878(9) 0.93834(7)
Cu2A_2 Cu 0.77992(5) 0.21122(9) 1.06166(7)
Cu2G_2 Cu 0.72008(5) 0.28878(9) 0.93834(7)
Cu2E Cu 0.22008(5) -0.21122(9) -0.06166(7)
Cu2C Cu 0.27992(5) -0.28878(9) 0.06166(7)
Cu2_2 Cu 0.22008(5) 0.21122(9) 0.93834(7)
Cu2G_3 Cu -0.27992(5) 0.28878(9) -0.06166(7)
Cu2A_3 Cu -0.22008(5) 0.21122(9) -0.93834(7)
O4C O 0.4949(4) 0.5000 0.8184(5)
O5F O 0.3280(2) 0.3584(5) 1.1600(4)
O5A O -0.1720(2) 0.1416(5) 0.1600(4)
O5G O -0.3280(2) 0.3584(5) -1.1600(4)
O6F O 0.4467(2) 0.4292(5) 1.0110(4)
O6A O -0.0533(2) 0.0708(5) 0.0110(4)
O6G O -0.4467(2) 0.4292(5) -1.0110(4)
O6D O -0.0533(2) -0.0708(5) 0.0110(4)
O6G_2 O 0.5533(2) 0.4292(5) 0.9890(4)
O6B O 0.5533(2) 0.5708(5) 0.9890(4)
O7F O 0.2618(3) 0.2377(4) 0.8992(4)
O7A O -0.2382(3) 0.2623(4) -0.1008(4)
O7G O -0.2618(3) 0.2377(4) -0.8992(4)
O7F_2 O 0.2618(3) 0.2377(4) -0.1008(4)
O7_2 O 0.2382(3) 0.2623(4) 1.1008(4)
O7G_2 O -0.2618(3) 0.2377(4) 0.1008(4)
O7A_2 O -0.2382(3) 0.2623(4) -1.1008(4)
O8D O 0.6859(3) -0.1940(5) 0.8937(4)
O8A O 0.6859(3) 0.1940(5) 0.8937(4)
O8E O 0.3141(3) -0.1940(5) 0.1063(4)
O8F O 0.1859(3) 0.3060(5) -0.1063(4)
O8_2 O 0.3141(3) 0.1940(5) 1.1063(4)
O8G O -0.1859(3) 0.3060(5) 0.1063(4)
O8A_2 O -0.3141(3) 0.1940(5) -1.1063(4)
C1F C 0.4328(4) 0.4001(7) 0.9386(8)
C1A C -0.0672(4) 0.0999(7) -0.0614(8)
C1G C -0.4328(4) 0.4001(7) -0.9386(8)
C2F C 0.3940(4) 0.3565(7) 0.9013(7)
C2A C -0.1060(4) 0.1435(7) -0.0987(7)
C2G C -0.3940(4) 0.3565(7) -0.9013(7)
C3F C 0.3700(3) 0.3348(6) 0.9382(5)
C3A C -0.1300(3) 0.1652(6) -0.0618(5)
C3G C -0.3700(3) 0.3348(6) -0.9382(5)
H1F H 0.3807 0.3496 0.9906
H1A H -0.1193 0.1504 -0.0094
H1G H -0.3807 0.3496 -0.9906
C4F C 0.3291(5) 0.2899(8) 0.8977(8)
C4A C -0.1709(5) 0.2101(8) -0.1023(8)
C4G C -0.3291(5) 0.2899(8) -0.8977(8)
C5F C 0.3024(6) 0.2730(9) 0.9336(9)
C5A C -0.1976(6) 0.2270(9) -0.0664(9)
C5G C -0.3024(6) 0.2730(9) -0.9336(9)
C6F C 0.3083(5) 0.2754(8) 0.8192(7)
C6A C -0.1917(5) 0.2246(8) -0.1808(7)
C6G C -0.3083(5) 0.2754(8) -0.8192(7)
H2F H 0.2793 0.2492 0.7903
H2A H -0.2207 0.2508 -0.2097
H2G H -0.2793 0.2492 -0.7903
C7F C 0.3345(5) 0.3034(7) 0.7860(6)
C7A C -0.1655(5) 0.1966(7) -0.2140(6)
C7G C -0.3345(5) 0.3034(7) -0.7860(6)
C8F C 0.3757(4) 0.3408(8) 0.8209(8)
C8A C -0.1243(4) 0.1592(8) -0.1791(8)
C8G C -0.3757(4) 0.3408(8) -0.8209(8)
H3F H 0.3916 0.3557 0.7936
H3A H -0.1084 0.1443 -0.2064
H3G H -0.3916 0.3557 -0.7936
C9F C 0.2768(4) 0.1942(9) 0.5921(8)
C9A C -0.2232(4) 0.3058(9) -0.4079(8)
C9G C -0.2768(4) 0.1942(9) -0.5921(8)
C10F C 0.2618(4) 0.2532(7) 0.5401(5)
C10A C -0.2382(4) 0.2468(7) -0.4599(5)
C10G C -0.2618(4) 0.2532(7) -0.5401(5)
C11F C 0.2765(4) 0.3232(9) 0.5677(8)
C11A C -0.2235(4) 0.1768(9) -0.4323(8)
C11G C -0.2765(4) 0.3232(9) -0.5677(8)
C12F C 0.2611(5) 0.1241(10) 0.5632(10)
C12A C -0.2389(5) 0.3759(10) -0.4368(10)
C12G C -0.2611(5) 0.1241(10) -0.5632(10)
H4F H 0.2685 0.0832 0.5978
H4A H -0.2315 0.4168 -0.4022
H4G H -0.2685 0.0832 -0.5978
C13F C 0.2670(5) 0.3869(9) 0.5207(9)
C13A C -0.2330(5) 0.1131(9) -0.4793(9)
C13G C -0.2670(5) 0.3869(9) -0.5207(9)
H5F H 0.2784 0.4345 0.5428
H5A H -0.2216 0.0655 -0.4572
H5G H -0.2784 0.4345 -0.5428
C14A C 0.6966(6) -0.0000 0.9283(10)
H6A H 0.7244 0.0000 0.9784
C15F C 0.3053(5) 0.2145(11) 0.6799(9)
C15A C -0.1947(5) 0.2855(11) -0.3201(9)
C15G C -0.3053(5) 0.2145(11) -0.6799(9)
C16E C 0.3626(5) -0.0651(9) 0.1859(8)
C16A C 0.6374(5) 0.0651(9) 0.8141(8)
C16D C 0.6374(5) -0.0651(9) 0.8141(8)
H7E H 0.3789 -0.1093 0.2113
H7A H 0.6211 0.1093 0.7887
H7D H 0.6211 -0.1093 0.7887
C17A C 0.6252(8) 0.0000 0.7788(13)
C18E C 0.3228(4) -0.0655(8) 0.1065(8)
C18A C 0.6772(4) 0.0655(8) 0.8935(8)
C18D C 0.6772(4) -0.0655(8) 0.8935(8)
O9F O 0.3182(3) 0.1599(6) 0.7228(5)
O9A O -0.1818(3) 0.3401(6) -0.2772(5)
O9G O -0.3182(3) 0.1599(6) -0.7228(5)
O10F O 0.3184(4) 0.4033(7) 0.6820(6)
O10A O -0.1816(4) 0.0967(7) -0.3180(6)
O10G O -0.3184(4) 0.4033(7) -0.6820(6)
C19F C 0.3027(6) 0.3462(11) 0.6534(10)
C19A C -0.1973(6) 0.1538(11) -0.3466(10)
C19G C -0.3027(6) 0.3462(11) -0.6534(10)
N1F N 0.3141(3) 0.2829(7) 0.7004(6)
N1A N -0.1859(3) 0.2171(7) -0.2996(6)
N1G N -0.3141(3) 0.2829(7) -0.7004(6)
C20D C 0.6990(5) -0.1365(10) 0.9317(9)
C20A C 0.6990(5) 0.1365(10) 0.9317(9)
C20E C 0.3010(5) -0.1365(10) 0.0683(9)
C21E C 0.4379(8) -0.0250(14) 0.4366(13)
C21A C 0.5621(8) 0.0250(14) 0.5634(13)
C21D C 0.5621(8) -0.0250(14) 0.5634(13)
C22A C 0.5180(5) -0.0000 0.5408(7)
C23A C 0.5079(6) 0.0217(12) 0.5971(10)
C23E C 0.4921(6) -0.0217(12) 0.4029(10)
C23D C 0.5079(6) -0.0217(12) 0.5971(10)
C24A C 0.4607(9) 0.0473(14) 0.5703(16)
C24E C 0.5393(9) -0.0473(14) 0.4297(16)
C24D C 0.4607(9) -0.0473(14) 0.5703(16)
H8A H 0.4531 0.0608 0.6094
H8D H 0.4531 -0.0608 0.6094
H8E H 0.5469 -0.0608 0.3906
C25A C 0.5770(12) 0.0550(17) 0.5101(18)
C25D C 0.5770(12) -0.0550(17) 0.5101(18)
C25E C 0.4230(12) -0.0550(17) 0.4899(18)
H9E H 0.3928 -0.0765 0.4740
H9D H 0.6072 -0.0765 0.5260
H9A H 0.6072 0.0765 0.5260
O11A O 0.6442(6) -0.0531(10) 0.6711(10)
O11D O 0.6442(6) 0.0531(10) 0.6711(10)
O11E O 0.3558(6) 0.0531(10) 0.3289(10)
N2A N 0.5851(5) 0.0000 0.6955(7)
C26E C 0.4057(8) 0.0303(12) 0.3600(13)
C26A C 0.5943(8) -0.0303(12) 0.6400(13)
C26D C 0.5943(8) 0.0303(12) 0.6400(13)
C27E C 0.4583(9) -0.021(2) 0.3188(14)
C27D C 0.5417(9) -0.021(2) 0.6812(14)
C27A C 0.5417(9) 0.021(2) 0.6812(14)
O12A O 0.5286(8) 0.0534(13) 0.7257(13)
O12D O 0.5286(8) -0.0534(13) 0.7257(13)
O12E O 0.4714(8) -0.0534(13) 0.2743(13)
loop_
_geom_bond_atom_site_label_1
_geom_bond_atom_site_label_2
_geom_bond_site_symmetry_1
_geom_bond_site_symmetry_2
O1 Cu2 1_555 1_555
O2 Cu2 1_555 1_555
O3 Cu1 1_555 1_555
Cu1 O4 1_555 1_555
Cu2 O5 1_555 1_555
O6 C1 1_555 1_555
O7 C5 1_555 1_555
O8 C20 1_555 1_555
C1 O3 1_555 1_555
C2 C1 1_555 1_555
C3 C2 1_555 1_555
H1 C3 1_555 1_555
C4 C3 1_555 1_555
C5 O2 1_555 1_555
C6 C4 1_555 1_555
H2 C6 1_555 1_555
C7 C6 1_555 1_555
C8 C2 1_555 1_555
H3 C8 1_555 1_555
C9 C10 1_555 1_555
C10 C11 1_555 1_555
C11 C13 1_555 1_555
C12 C9 1_555 1_555
H4 C12 1_555 1_555
C13 H5 1_555 1_555
C14 H6 1_555 1_555
C15 C9 1_555 1_555
C16 H7 1_555 1_555
C17 C16 1_555 1_555
C18 C14 1_555 1_555
O9 C15 1_555 1_555
O10 C19 1_555 1_555
C19 C11 1_555 1_555
N1 C7 1_555 1_555
C20 O1 1_555 1_555
C21 C22 1_555 1_555
C22 C23 1_555 1_555
C23 C24 1_555 1_555
C24 H8 1_555 1_555
C25 C21 1_555 1_555
H9 C25 1_555 1_555
O11 C26 1_555 1_555
N2 C17 1_555 1_555
C26 C21 1_555 1_555
C27 C23 1_555 1_555
O12 C27 1_555 1_555
O1D Cu2D 1_555 1_555
O1A Cu2A_2 1_555 1_555
O1E Cu2E 1_555 1_555
O1F Cu2F 1_555 1_555
O1A_2 Cu2A 1_555 1_555
O1G Cu2G 1_555 1_555
O2F Cu2F 1_555 1_555
O2A Cu2A 1_555 1_555
O2G Cu2G 1_555 1_555
O3F Cu1C 1_555 1_555
O3A Cu1A 1_555 1_555
O3G Cu1B_2 1_555 1_555
O3E Cu1 1_555 1_555
O3C Cu1C 1_555 1_555
Cu1C O4C 1_555 1_555
Cu1A O6 1_555 1_555
Cu1B O6F 1_555 1_555
Cu1C_2 O6G 1_555 1_555
Cu2F O5F 1_555 1_555
Cu2A O5A 1_555 1_555
Cu2G O5G 1_555 1_555
Cu2F_2 O7 1_555 1_555
Cu2B O8D 1_555 1_555
Cu2G_2 O8A 1_555 1_555
Cu2C O8E 1_555 1_555
Cu2_2 O7F 1_555 1_555
Cu2G_3 O7A 1_555 1_555
Cu2A_3 O7G 1_555 1_555
O6F C1F 1_555 1_555
O6A Cu1 1_555 1_555
O6G C1G 1_555 1_555
O6D Cu1 1_555 1_555
O6G_2 Cu1C 1_555 1_555
O6B Cu1C 1_555 1_555
O7F C5F 1_555 1_555
O7A C5A 1_555 1_555
O7G C5G 1_555 1_555
O7F_2 Cu2 1_555 1_555
O7_2 Cu2F 1_555 1_555
O7G_2 Cu2A 1_555 1_555
O7A_2 Cu2G 1_555 1_555
O8D C20D 1_555 1_555
O8A C20A 1_555 1_555
O8E C20E 1_555 1_555
O8F Cu2 1_555 1_555
O8_2 Cu2F 1_555 1_555
O8G Cu2A 1_555 1_555
O8A_2 Cu2G 1_555 1_555
C1F O3F 1_555 1_555
C1A O3A 1_555 1_555
C1G O3G 1_555 1_555
C2F C1F 1_555 1_555
C2A C1A 1_555 1_555
C2G C1G 1_555 1_555
C3F C2F 1_555 1_555
C3A C2A 1_555 1_555
C3G C2G 1_555 1_555
H1F C3F 1_555 1_555
H1A C3A 1_555 1_555
H1G C3G 1_555 1_555
C4F C3F 1_555 1_555
C4A C3A 1_555 1_555
C4G C3G 1_555 1_555
C5F O2F 1_555 1_555
C5A O2A 1_555 1_555
C5G O2G 1_555 1_555
C6F C4F 1_555 1_555
C6A C4A 1_555 1_555
C6G C4G 1_555 1_555
H2F C6F 1_555 1_555
H2A C6A 1_555 1_555
H2G C6G 1_555 1_555
C7F C6F 1_555 1_555
C7A C6A 1_555 1_555
C7G C6G 1_555 1_555
C8F C2F 1_555 1_555
C8A C2A 1_555 1_555
C8G C2G 1_555 1_555
H3F C8F 1_555 1_555
H3A C8A 1_555 1_555
H3G C8G 1_555 1_555
C9F C10F 1_555 1_555
C9A C10A 1_555 1_555
C9G C10G 1_555 1_555
C10F C10 1_555 1_555
C10A C10G 1_555 1_555
C10G C11G 1_555 1_555
C11F C10F 1_555 1_555
C11A C10A 1_555 1_555
C11G C13G 1_555 1_555
C12F C13 1_555 1_555
C12A C9A 1_555 1_555
C12G C9G 1_555 1_555
H4F C12F 1_555 1_555
H4A C12A 1_555 1_555
H4G C12G 1_555 1_555
C13F C12 1_555 1_555
C13A C11A 1_555 1_555
C13G C12A 1_555 1_555
H5F C13F 1_555 1_555
H5A C13A 1_555 1_555
H5G C13G 1_555 1_555
C14A H6A 1_555 1_555
C15F C9F 1_555 1_555
C15A C9A 1_555 1_555
C15G C9G 1_555 1_555
C16E C17 1_555 1_555
C16A H7A 1_555 1_555
C16D H7D 1_555 1_555
H7E C16E 1_555 1_555
C17A C16A 1_555 1_555
C18E C14 1_555 1_555
C18A C14A 1_555 1_555
C18D C14A 1_555 1_555
O9F C15F 1_555 1_555
O9A C15A 1_555 1_555
O9G C15G 1_555 1_555
O10F C19F 1_555 1_555
O10A C19A 1_555 1_555
O10G C19G 1_555 1_555
C19F C11F 1_555 1_555
C19A C11A 1_555 1_555
C19G C11G 1_555 1_555
N1F C7F 1_555 1_555
N1A C7A 1_555 1_555
N1G C7G 1_555 1_555
C20D O1D 1_555 1_555
C20A O1A 1_555 1_555
C20E O1E 1_555 1_555
C21E C21 1_555 1_555
C21A C21D 1_555 1_555
C21D C22A 1_555 1_555
C22A C22 1_555 1_555
C23A C22A 1_555 1_555
C23E C22 1_555 1_555
C23D C22A 1_555 1_555
C24A C25 1_555 1_555
C24E C24 1_555 1_555
C24D C23D 1_555 1_555
H8A C24A 1_555 1_555
H8D C24D 1_555 1_555
H8E C24E 1_555 1_555
C25A C24 1_555 1_555
C25D C21D 1_555 1_555
C25E C21E 1_555 1_555
H9E C25E 1_555 1_555
H9D C25D 1_555 1_555
H9A C25A 1_555 1_555
O11A O11D 1_555 1_555
O11D C26D 1_555 1_555
O11E O11 1_555 1_555
N2A C17A 1_555 1_555
C26E C21 1_555 1_555
C26A C21A 1_555 1_555
C26D C21A 1_555 1_555
C27E C23 1_555 1_555
C27D C23A 1_555 1_555
C27A C23A 1_555 1_555
O12A C27D 1_555 1_555
O12D C27D 1_555 1_555
O12E C27 1_555 1_555
O8 Cu2F_2 1_555 1_555
C4 C5 1_555 1_555
C7 C8 1_555 1_555
C15 N1 1_555 1_555
C16 C18 1_555 1_555
C18 C20 1_555 1_555
C19 N1 1_555 1_555
C22 C21E 1_555 1_555
C23 C23E 1_555 1_555
N2 C26 1_555 1_555
N2 C27 1_555 1_555
N2 C26E 1_555 1_555
N2 C27E 1_555 1_555
C26 C21E 1_555 1_555
C26 C26E 1_555 1_555
C27 C23E 1_555 1_555
C27 C27E 1_555 1_555
O12 C27E 1_555 1_555
O12 O12E 1_555 1_555
O6A C1A 1_555 1_555
C4F C5F 1_555 1_555
C4A C5A 1_555 1_555
C4G C5G 1_555 1_555
C7F C8F 1_555 1_555
C7A C8A 1_555 1_555
C7G C8G 1_555 1_555
C9F C12F 1_555 1_555
C11F C13F 1_555 1_555
C12G C13A 1_555 1_555
C15F N1F 1_555 1_555
C15A N1A 1_555 1_555
C15G N1G 1_555 1_555
C16E C18E 1_555 1_555
C16A C18A 1_555 1_555
C16D C17A 1_555 1_555
C16D C18D 1_555 1_555
C18E C20E 1_555 1_555
C18A C20A 1_555 1_555
C18D C20D 1_555 1_555
C19F N1F 1_555 1_555
C19A N1A 1_555 1_555
C19G N1G 1_555 1_555
C21E C26E 1_555 1_555
C21A C22A 1_555 1_555
C21A C25A 1_555 1_555
C21D C26A 1_555 1_555
C21D C26D 1_555 1_555
C23A C23D 1_555 1_555
C23A C24A 1_555 1_555
C23E C24E 1_555 1_555
C23E C27E 1_555 1_555
C23D C27D 1_555 1_555
C23D C27A 1_555 1_555
C24A C24D 1_555 1_555
C24E C25D 1_555 1_555
C24D C25E 1_555 1_555
O11A C26A 1_555 1_555
O11E C26E 1_555 1_555
N2A C26A 1_555 1_555
N2A C26D 1_555 1_555
N2A C27D 1_555 1_555
N2A C27A 1_555 1_555
C26A C26D 1_555 1_555
C27E O12E 1_555 1_555
C27D C27A 1_555 1_555
C27A O12A 1_555 1_555
C27A O12D 1_555 1_555
O12A O12D 1_555 1_555

#END
