
#######################################################################
#
#                 Cambridge Crystallographic Data Centre
#                                CCDC 
#
#######################################################################
#
# If this CIF has been generated from an entry in the Cambridge 
# Structural Database, then it will include bibliographic, chemical, 
# crystal, experimental, refinement or atomic coordinate data resulting 
# from the CCDC's data processing and validation procedures.
#
#######################################################################

data_ANOMUM
_chemical_formula_moiety         'C46 H46 Cu8 N6 O20'
_symmetry_cell_setting           orthorhombic
_symmetry_space_group_name_H-M   'I m m a'
_symmetry_Int_Tables_number      74
_space_group_name_Hall           '-I 2b 2'
loop_
_symmetry_equiv_pos_site_id
_symmetry_equiv_pos_as_xyz
1 x,y,z
2 -x,1/2-y,z
3 -x,1/2+y,-z
4 x,-y,-z
5 1/2+x,1/2+y,1/2+z
6 1/2-x,-y,1/2+z
7 1/2-x,y,1/2-z
8 1/2+x,1/2-y,1/2-z
9 -x,-y,-z
10 x,1/2+y,-z
11 x,1/2-y,z
12 -x,y,z
13 1/2-x,1/2-y,1/2-z
14 1/2+x,y,1/2-z
15 1/2+x,-y,1/2+z
16 1/2-x,1/2+y,1/2+z
_cell_length_a                   15.2248(3)
_cell_length_b                   36.4392(7)
_cell_length_c                   10.3036(2)
_cell_angle_alpha                90
_cell_angle_beta                 90
_cell_angle_gamma                90
_cell_volume                     5716.23
loop_
_atom_site_label
_atom_site_type_symbol
_atom_site_fract_x
_atom_site_fract_y
_atom_site_fract_z
_atom_site_U_iso_or_equiv
_atom_site_thermal_displace_type
Cu1 Cu 0.5000 0.025269(10) -0.59328(4) 0.0223 Uani
O1 O 0.41113(10) 0.05125(4) -0.49340(15) 0.0358 Uani
O2 O 0.40773(9) 0.00740(4) -0.34039(15) 0.0341 Uani
O3 O 0.3494(2) 0.15321(5) -0.0890(3) 0.0991 Uani
C1 C 0.38275(13) 0.03690(5) -0.3915(2) 0.0281 Uani
C2 C 0.2500 0.03857(7) -0.2500 0.0285 Uani
H1 H 0.2500 0.0125 -0.2500 0.0340 Uiso
C3 C 0.31261(13) 0.05732(5) -0.3198(2) 0.0297 Uani
C4 C 0.31135(14) 0.09568(5) -0.3234(2) 0.0346 Uani
H2 H 0.3521 0.1088 -0.3755 0.0420 Uiso
C5 C 0.2500 0.11400(8) -0.2500 0.0373 Uani
N1 N 0.2500 0.15390(6) -0.2500 0.0397 Uani
C6 C 0.3044(2) 0.17102(7) -0.1609(3) 0.0578 Uani
C7 C 0.3046(2) 0.21191(7) -0.1628(3) 0.0558 Uani
C8 C 0.3576(3) 0.23070(8) -0.0811(4) 0.0910 Uani
H3 H 0.3951 0.2177 -0.0234 0.1090 Uiso
C9 C 0.2500 0.23059(8) -0.2500 0.0412 Uani
O4 O 0.5000 0.06073(6) -0.7543(2) 0.0440 Uani
N2 N 0.4854(14) 0.06397(14) -0.9673(4) 0.0703 Uani
C10 C 0.5286(3) 0.06270(12) -0.8590(5) 0.0403 Uani
C11 C 0.5231(11) 0.0709(3) -1.0976(6) 0.1197 Uani
H4 H 0.5791 0.0578 -1.1059 0.1800 Uiso
H5 H 0.4822 0.0621 -1.1642 0.1800 Uiso
H6 H 0.5329 0.0972 -1.1089 0.1800 Uiso
C12 C 0.6101(6) 0.0585(3) -0.9632(10) 0.1163 Uani
H7 H 0.6392 0.0822 -0.9503 0.1750 Uiso
H8 H 0.6298 0.0477 -1.0452 0.1750 Uiso
H9 H 0.6250 0.0420 -0.8914 0.1750 Uiso
C13 C 0.6297(4) 0.0667(2) -0.8572(8) 0.0797 Uani
H10 H 0.6567 0.0431 -0.8794 0.1200 Uiso
H11 H 0.6476 0.0853 -0.9207 0.1200 Uiso
H12 H 0.6489 0.0742 -0.7704 0.1200 Uiso
Cu1F Cu -0.0000 0.025269(10) 0.09328(4) 0.0223 Uani
Cu1C Cu 0.5000 -0.025269(10) -0.40672(4) 0.0223 Uani
Cu1E Cu 0.0000 -0.025269(10) -0.09328(4) 0.0223 Uani
Cu1A Cu 0.5000 0.474731(10) -0.59328(4) 0.0223 Uani
Cu1B Cu 0.5000 0.525269(10) -0.40672(4) 0.0223 Uani
Cu1G Cu 0.0000 0.474731(10) 0.09328(4) 0.0223 Uani
Cu1D Cu 0.0000 0.525269(10) -0.09328(4) 0.0223 Uani
O1F O 0.08887(10) 0.05125(4) -0.00660(15) 0.0358 Uani
O1J O 0.41113(10) 0.44875(4) -0.49340(15) 0.0358 Uani
O1L O 0.08887(10) 0.44875(4) -0.00660(15) 0.0358 Uani
O1K O 0.58887(10) 0.05125(4) -0.49340(15) 0.0358 Uani
O1M O -0.08887(10) 0.05125(4) -0.00660(15) 0.0358 Uani
O2F O 0.09227(9) 0.00740(4) -0.15961(15) 0.0341 Uani
O2J O 0.40773(9) 0.49260(4) -0.34039(15) 0.0341 Uani
O2L O 0.09227(9) 0.49260(4) -0.15961(15) 0.0341 Uani
O2C O 0.40773(9) -0.00740(4) -0.65961(15) 0.0341 Uani
O2H O 0.59227(9) -0.00740(4) -0.65961(15) 0.0341 Uani
O2E O 0.09227(9) -0.00740(4) 0.15961(15) 0.0341 Uani
O2N O -0.09227(9) -0.00740(4) 0.15961(15) 0.0341 Uani
O3J O 0.3494(2) 0.34679(5) -0.0890(3) 0.0991 Uani
O3L O 0.1506(2) 0.34679(5) -0.4110(3) 0.0991 Uani
O3F O 0.1506(2) 0.15321(5) -0.4110(3) 0.0991 Uani
C1F C 0.11725(13) 0.03690(5) -0.1085(2) 0.0281 Uani
C1J C 0.38275(13) 0.46310(5) -0.3915(2) 0.0281 Uani
C1L C 0.11725(13) 0.46310(5) -0.1085(2) 0.0281 Uani
C2J C 0.2500 0.46143(7) -0.2500 0.0285 Uani
H1J H 0.2500 0.4875 -0.2500 0.0340 Uiso
C3F C 0.18739(13) 0.05732(5) -0.1802(2) 0.0297 Uani
C3J C 0.31261(13) 0.44268(5) -0.3198(2) 0.0297 Uani
C3L C 0.18739(13) 0.44268(5) -0.1802(2) 0.0297 Uani
C4F C 0.18865(14) 0.09568(5) -0.1766(2) 0.0346 Uani
C4J C 0.31135(14) 0.40432(5) -0.3234(2) 0.0346 Uani
C4L C 0.18865(14) 0.40432(5) -0.1766(2) 0.0346 Uani
H2F H 0.1479 0.1088 -0.1245 0.0420 Uiso
H2L H 0.1479 0.3912 -0.1245 0.0420 Uiso
H2J H 0.3521 0.3912 -0.3755 0.0420 Uiso
C5J C 0.2500 0.38600(8) -0.2500 0.0373 Uani
N1J N 0.2500 0.34610(6) -0.2500 0.0397 Uani
C6J C 0.3044(2) 0.32898(7) -0.1609(3) 0.0578 Uani
C6L C 0.1956(2) 0.32898(7) -0.3391(3) 0.0578 Uani
C6F C 0.1956(2) 0.17102(7) -0.3391(3) 0.0578 Uani
C7J C 0.3046(2) 0.28809(7) -0.1628(3) 0.0558 Uani
C7L C 0.1954(2) 0.28809(7) -0.3372(3) 0.0558 Uani
C7F C 0.1954(2) 0.21191(7) -0.3372(3) 0.0558 Uani
C8J C 0.3576(3) 0.26930(8) -0.0811(4) 0.0910 Uani
C8L C 0.1424(3) 0.26930(8) -0.4189(4) 0.0910 Uani
C8F C 0.1424(3) 0.23070(8) -0.4189(4) 0.0910 Uani
H3F H 0.1049 0.2177 -0.4766 0.1090 Uiso
H3L H 0.1049 0.2823 -0.4766 0.1090 Uiso
H3J H 0.3951 0.2823 -0.0234 0.1090 Uiso
C9J C 0.2500 0.26941(8) -0.2500 0.0412 Uani
O4F O 0.0000 0.06073(6) 0.2543(2) 0.0440 Uani
N2K N 0.5146(14) 0.06397(14) -0.9673(4) 0.0703 Uani
N2F N 0.0146(14) 0.06397(14) 0.4673(4) 0.0703 Uani
N2M N -0.0146(14) 0.06397(14) 0.4673(4) 0.0703 Uani
C10K C 0.4714(3) 0.06270(12) -0.8590(5) 0.0403 Uani
C10F C -0.0286(3) 0.06270(12) 0.3590(5) 0.0403 Uani
C10M C 0.0286(3) 0.06270(12) 0.3590(5) 0.0403 Uani
C11K C 0.4769(11) 0.0709(3) -1.0976(6) 0.1197 Uani
C11F C -0.0231(11) 0.0709(3) 0.5976(6) 0.1197 Uani
C11M C 0.0231(11) 0.0709(3) 0.5976(6) 0.1197 Uani
H4K H 0.4209 0.0578 -1.1059 0.1800 Uiso
H4F H -0.0791 0.0578 0.6059 0.1800 Uiso
H4M H 0.0791 0.0578 0.6059 0.1800 Uiso
H5K H 0.5178 0.0621 -1.1642 0.1800 Uiso
H5F H 0.0178 0.0621 0.6642 0.1800 Uiso
H5M H -0.0178 0.0621 0.6642 0.1800 Uiso
H6K H 0.4671 0.0972 -1.1089 0.1800 Uiso
H6F H -0.0329 0.0972 0.6089 0.1800 Uiso
H6M H 0.0329 0.0972 0.6089 0.1800 Uiso
C12K C 0.3899(6) 0.0585(3) -0.9632(10) 0.1163 Uani
C12F C -0.1101(6) 0.0585(3) 0.4632(10) 0.1163 Uani
C12M C 0.1101(6) 0.0585(3) 0.4632(10) 0.1163 Uani
H7K H 0.3608 0.0822 -0.9503 0.1750 Uiso
H7F H -0.1392 0.0822 0.4503 0.1750 Uiso
H7M H 0.1392 0.0822 0.4503 0.1750 Uiso
H8K H 0.3702 0.0477 -1.0452 0.1750 Uiso
H8F H -0.1298 0.0477 0.5452 0.1750 Uiso
H8M H 0.1298 0.0477 0.5452 0.1750 Uiso
H9K H 0.3750 0.0420 -0.8914 0.1750 Uiso
H9F H -0.1250 0.0420 0.3914 0.1750 Uiso
H9M H 0.1250 0.0420 0.3914 0.1750 Uiso
C13K C 0.3703(4) 0.0667(2) -0.8572(8) 0.0797 Uani
C13F C -0.1297(4) 0.0667(2) 0.3572(8) 0.0797 Uani
C13M C 0.1297(4) 0.0667(2) 0.3572(8) 0.0797 Uani
H10K H 0.3433 0.0431 -0.8794 0.1200 Uiso
H10F H -0.1567 0.0431 0.3794 0.1200 Uiso
H10M H 0.1567 0.0431 0.3794 0.1200 Uiso
H11K H 0.3524 0.0853 -0.9207 0.1200 Uiso
H11F H -0.1476 0.0853 0.4207 0.1200 Uiso
H11M H 0.1476 0.0853 0.4207 0.1200 Uiso
H12K H 0.3511 0.0742 -0.7704 0.1200 Uiso
H12F H -0.1489 0.0742 0.2704 0.1200 Uiso
H12M H 0.1489 0.0742 0.2704 0.1200 Uiso
loop_
_atom_site_aniso_label
_atom_site_aniso_U_11
_atom_site_aniso_U_22
_atom_site_aniso_U_33
_atom_site_aniso_U_23
_atom_site_aniso_U_13
_atom_site_aniso_U_12
Cu1 0.0212 0.0203 0.0253 0.00153 0 0
O1 0.0385 0.0292 0.0396 0.0038 0.0145 0.0065
O2 0.0319 0.0293 0.041 0.0027 0.0109 0.0075
O3 0.14 0.0282 0.129 0.0059 -0.07 -0.0003
C1 0.0254 0.0205 0.0385 -0.0021 0.0035 -0.0042
C2 0.0288 0.0196 0.0372 0 0.002 0
C3 0.0303 0.0228 0.0359 -0.0007 0.0063 0.0001
C4 0.0377 0.0227 0.0435 0.0022 0.0112 -0.0033
C5 0.0449 0.0193 0.0477 0 0.0128 0
N1 0.0501 0.0198 0.0493 0 0.0152 0
C6 0.0759 0.025 0.0725 0.0008 -0.0062 0.0012
C7 0.0739 0.0254 0.0682 0.0003 -0.0034 -0.0017
C8 0.123 0.0281 0.122 -0.0002 -0.058 0.0033
C9 0.053 0.0225 0.048 0 0.0145 0
O4 0.0707 0.0334 0.028 0.0091 0 0
N2 0.086 0.092 0.033 0.0056 -0.009 -0.025
C10 0.049 0.033 0.039 0.0064 0.0077 -0.0019
C11 0.17 0.145 0.044 -0.003 0.027 -0.062
C12 0.092 0.155 0.102 0.042 0.045 0.064
C13 0.052 0.102 0.085 0.04 0.014 0
Cu1F 0.0212 0.0203 0.0253 -0.00153 0 0
Cu1C 0.0212 0.0203 0.0253 0.00153 0 0
Cu1E 0.0212 0.0203 0.0253 -0.00153 0 0
Cu1A 0.0212 0.0203 0.0253 -0.00153 0 0
Cu1B 0.0212 0.0203 0.0253 -0.00153 0 0
Cu1G 0.0212(2) 0.0203(2) 0.0253(2) 0.00153(15) 0.000 0.000
Cu1D 0.0212 0.0203 0.0253 0.00153 0 0
O1F 0.0385 0.0292 0.0396 -0.0038 0.0145 -0.0065
O1J 0.0385 0.0292 0.0396 -0.0038 0.0145 -0.0065
O1L 0.0385(8) 0.0292(7) 0.0396(9) 0.0038(6) 0.0145(7) 0.0065(6)
O1K 0.0385 0.0292 0.0396 0.0038 -0.0145 -0.0065
O1M 0.0385 0.0292 0.0396 -0.0038 -0.0145 0.0065
O2F 0.0319 0.0293 0.041 -0.0027 0.0109 -0.0075
O2J 0.0319 0.0293 0.041 -0.0027 0.0109 -0.0075
O2L 0.0319 0.0293 0.041 0.0027 0.0109 0.0075
O2C 0.0319 0.0293 0.041 0.0027 -0.0109 -0.0075
O2H 0.0319 0.0293 0.041 0.0027 0.0109 0.0075
O2E 0.0319 0.0293 0.041 -0.0027 -0.0109 0.0075
O2N 0.0319 0.0293 0.041 -0.0027 0.0109 -0.0075
O3J 0.14 0.0282 0.129 -0.0059 -0.07 0.0003
O3L 0.140(2) 0.0282(10) 0.129(2) 0.0059(11) -0.070(2) -0.0003(13)
O3F 0.14 0.0282 0.129 -0.0059 -0.07 0.0003
C1F 0.0254 0.0205 0.0385 0.0021 0.0035 0.0042
C1J 0.0254 0.0205 0.0385 0.0021 0.0035 0.0042
C1L 0.0254(10) 0.0205(9) 0.0385(12) -0.0021(8) 0.0035(9) -0.0042(8)
C2J 0.0288(14) 0.0196(13) 0.0372(16) 0.000 0.0020(12) 0.000
C3F 0.0303 0.0228 0.0359 0.0007 0.0063 -0.0001
C3J 0.0303 0.0228 0.0359 0.0007 0.0063 -0.0001
C3L 0.0303(10) 0.0228(10) 0.0359(12) -0.0007(8) 0.0063(9) 0.0001(8)
C4F 0.0377 0.0227 0.0435 -0.0022 0.0112 0.0033
C4J 0.0377 0.0227 0.0435 -0.0022 0.0112 0.0033
C4L 0.0377(12) 0.0227(10) 0.0435(13) 0.0022(9) 0.0112(10) -0.0033(8)
C5J 0.0449(17) 0.0193(14) 0.0477(19) 0.000 0.0128(15) 0.000
N1J 0.0501(16) 0.0198(12) 0.0493(17) 0.000 0.0152(13) 0.000
C6J 0.0759 0.025 0.0725 -0.0008 -0.0062 -0.0012
C6L 0.0759(19) 0.0250(12) 0.0725(19) 0.0008(12) -0.0062(16) 0.0012(12)
C6F 0.0759 0.025 0.0725 -0.0008 -0.0062 -0.0012
C7J 0.0739 0.0254 0.0682 -0.0003 -0.0034 0.0017
C7L 0.0739(18) 0.0254(12) 0.0682(18) 0.0003(12) -0.0034(15) -0.0017(12)
C7F 0.0739 0.0254 0.0682 -0.0003 -0.0034 0.0017
C8J 0.123 0.0281 0.122 0.0002 -0.058 -0.0033
C8L 0.123(3) 0.0281(15) 0.122(3) -0.0002(16) -0.058(3) 0.0033(17)
C8F 0.123 0.0281 0.122 0.0002 -0.058 -0.0033
C9J 0.053(2) 0.0225(15) 0.048(2) 0.000 0.0145(16) 0.000
O4F 0.0707 0.0334 0.028 -0.0091 0 0
N2K 0.086 0.092 0.033 0.0056 0.009 0.025
N2F 0.086 0.092 0.033 -0.0056 -0.009 0.025
N2M 0.086 0.092 0.033 -0.0056 0.009 -0.025
C10K 0.049 0.033 0.039 0.0064 -0.0077 0.0019
C10F 0.049 0.033 0.039 -0.0064 0.0077 0.0019
C10M 0.049 0.033 0.039 -0.0064 -0.0077 -0.0019
C11K 0.17 0.145 0.044 -0.003 -0.027 0.062
C11F 0.17 0.145 0.044 0.003 0.027 0.062
C11M 0.17 0.145 0.044 0.003 -0.027 -0.062
C12K 0.092 0.155 0.102 0.042 -0.045 -0.064
C12F 0.092 0.155 0.102 -0.042 0.045 -0.064
C12M 0.092 0.155 0.102 -0.042 -0.045 0.064
C13K 0.052 0.102 0.085 0.04 -0.014 0
C13F 0.052 0.102 0.085 -0.04 0.014 0
C13M 0.052 0.102 0.085 -0.04 -0.014 0
loop_
_geom_bond_atom_site_label_1
_geom_bond_atom_site_label_2
_geom_bond_site_symmetry_1
_geom_bond_site_symmetry_2
Cu1 O1 1_555 1_555
O1 C1 1_555 1_555
O2 C1 1_555 1_555
O3 C6 1_555 1_555
C1 C3 1_555 1_555
C2 H1 1_555 1_555
C3 C2 1_555 1_555
C4 C3 1_555 1_555
H2 C4 1_555 1_555
C5 C4 1_555 1_555
N1 C5 1_555 1_555
C6 N1 1_555 1_555
C7 C6 1_555 1_555
C8 C7 1_555 1_555
H3 C8 1_555 1_555
C9 C7 1_555 1_555
O4 Cu1 1_555 1_555
N2 C10 1_555 1_555
C10 O4 1_555 1_555
C11 N2 1_555 1_555
H4 C11 1_555 1_555
H5 C11 1_555 1_555
H6 C11 1_555 1_555
C12 C10 1_555 1_555
H7 C12 1_555 1_555
H8 C12 1_555 1_555
H9 C12 1_555 1_555
C13 C10 1_555 1_555
H10 C12 1_555 1_555
H11 C12 1_555 1_555
H12 C13 1_555 1_555
Cu1F O1F 1_555 1_555
Cu1C O2 1_555 1_555
Cu1E O2F 1_555 1_555
Cu1A O1J 1_555 1_555
Cu1B O2J 1_555 1_555
Cu1G O1L 1_555 1_555
Cu1D O2L 1_555 1_555
O1F C1F 1_555 1_555
O1J C1J 1_555 1_555
O1L C1L 1_555 1_555
O1K Cu1 1_555 1_555
O1M Cu1F 1_555 1_555
O2F C1F 1_555 1_555
O2J C1J 1_555 1_555
O2L C1L 1_555 1_555
O2C Cu1 1_555 1_555
O2H Cu1 1_555 1_555
O2E Cu1F 1_555 1_555
O2N Cu1F 1_555 1_555
O3J C6J 1_555 1_555
O3L C6L 1_555 1_555
O3F C6F 1_555 1_555
C1F C3F 1_555 1_555
C1J C3J 1_555 1_555
C1L C3L 1_555 1_555
C2J H1J 1_555 1_555
C3F C2 1_555 1_555
C3J C2J 1_555 1_555
C3L C2J 1_555 1_555
C4F C5 1_555 1_555
C4J C3J 1_555 1_555
C4L C3L 1_555 1_555
H2F C4F 1_555 1_555
H2L C4L 1_555 1_555
H2J C4J 1_555 1_555
C5J C4J 1_555 1_555
N1J C5J 1_555 1_555
C6J N1J 1_555 1_555
C6L N1J 1_555 1_555
C6F N1 1_555 1_555
C7J C6J 1_555 1_555
C7L C6L 1_555 1_555
C7F C9 1_555 1_555
C8J C8 1_555 1_555
C8L C7L 1_555 1_555
C8F C7F 1_555 1_555
H3F C8F 1_555 1_555
H3L C8L 1_555 1_555
H3J C8J 1_555 1_555
C9J C9 1_555 1_555
O4F Cu1F 1_555 1_555
N2K N2 1_555 1_555
N2F N2M 1_555 1_555
N2M C10F 1_555 1_555
C10K O4 1_555 1_555
C10F O4F 1_555 1_555
C10M O4F 1_555 1_555
C11K N2 1_555 1_555
C11F N2F 1_555 1_555
C11M N2F 1_555 1_555
H4K C11K 1_555 1_555
H4F C11F 1_555 1_555
H4M C11M 1_555 1_555
H5K C11 1_555 1_555
H5F C11F 1_555 1_555
H5M C11F 1_555 1_555
H6K C11 1_555 1_555
H6F C11F 1_555 1_555
H6M C11F 1_555 1_555
C12K N2 1_555 1_555
C12F N2M 1_555 1_555
C12M N2F 1_555 1_555
H7K C12K 1_555 1_555
H7F C12F 1_555 1_555
H7M C12M 1_555 1_555
H8K C12K 1_555 1_555
H8F C12F 1_555 1_555
H8M C12M 1_555 1_555
H9K C12K 1_555 1_555
H9F C12F 1_555 1_555
H9M C12M 1_555 1_555
C13K C10K 1_555 1_555
C13F C10F 1_555 1_555
C13M C10M 1_555 1_555
H10K C12K 1_555 1_555
H10F C12F 1_555 1_555
H10M C12M 1_555 1_555
H11K C12K 1_555 1_555
H11F C12F 1_555 1_555
H11M C12M 1_555 1_555
H12K C13K 1_555 1_555
H12F C13F 1_555 1_555
H12M C13M 1_555 1_555
N2 C10K 1_555 1_555
C10 N2K 1_555 1_555
C10 C10K 1_555 1_555
C11 N2K 1_555 1_555
C11 C11K 1_555 1_555
H5 C11K 1_555 1_555
H5 H5K 1_555 1_555
H6 C11K 1_555 1_555
C12 C13 1_555 1_555
C12 N2K 1_555 1_555
H7 C13 1_555 1_555
H7 H11 1_555 1_555
H9 C13 1_555 1_555
H9 H10 1_555 1_555
C13 H10 1_555 1_555
C13 H11 1_555 1_555
C3F C4F 1_555 1_555
C4L C5J 1_555 1_555
C6F C7F 1_555 1_555
C7J C8J 1_555 1_555
C7J C9J 1_555 1_555
C7L C9J 1_555 1_555
C8L C8F 1_555 1_555
N2K C10K 1_555 1_555
N2K C11K 1_555 1_555
N2F C10F 1_555 1_555
N2F C10M 1_555 1_555
N2M C10M 1_555 1_555
N2M C11F 1_555 1_555
N2M C11M 1_555 1_555
C10K C12K 1_555 1_555
C10F C10M 1_555 1_555
C10F C12F 1_555 1_555
C10M C12M 1_555 1_555
C11K H5K 1_555 1_555
C11K H6K 1_555 1_555
C11F C11M 1_555 1_555
C11M H5F 1_555 1_555
C11M H5M 1_555 1_555
C11M H6F 1_555 1_555
C11M H6M 1_555 1_555
H5F H5M 1_555 1_555
C12K C13K 1_555 1_555
C12F C13F 1_555 1_555
C12M C13M 1_555 1_555
H7K C13K 1_555 1_555
H7K H11K 1_555 1_555
H7F C13F 1_555 1_555
H7F H11F 1_555 1_555
H7M C13M 1_555 1_555
H7M H11M 1_555 1_555
H9K C13K 1_555 1_555
H9K H10K 1_555 1_555
H9F C13F 1_555 1_555
H9F H10F 1_555 1_555
H9M C13M 1_555 1_555
H9M H10M 1_555 1_555
C13K H10K 1_555 1_555
C13K H11K 1_555 1_555
C13F H10F 1_555 1_555
C13F H11F 1_555 1_555
C13M H10M 1_555 1_555
C13M H11M 1_555 1_555

#END
