
#######################################################################
#
#                 Cambridge Crystallographic Data Centre
#                                CCDC 
#
#######################################################################
#
# If this CIF has been generated from an entry in the Cambridge 
# Structural Database, then it will include bibliographic, chemical, 
# crystal, experimental, refinement or atomic coordinate data resulting 
# from the CCDC's data processing and validation procedures.
#
#######################################################################

data_KEQDER
_chemical_formula_moiety         '(C66 H36 O20 Zn4)n'
_symmetry_cell_setting           tetragonal
_symmetry_space_group_name_H-M   'I 4/m m m'
_symmetry_Int_Tables_number      139
_space_group_name_Hall           '-I 4 2'
loop_
_symmetry_equiv_pos_site_id
_symmetry_equiv_pos_as_xyz
1 x,y,z
2 -y,x,z
3 y,-x,z
4 y,x,-z
5 1/2+x,1/2+y,1/2+z
6 1/2-y,1/2+x,1/2+z
7 1/2+y,1/2-x,1/2+z
8 1/2+y,1/2+x,1/2-z
9 -x,-y,z
10 -x,y,-z
11 x,-y,-z
12 -y,-x,-z
13 1/2-x,1/2-y,1/2+z
14 1/2-x,1/2+y,1/2-z
15 1/2+x,1/2-y,1/2-z
16 1/2-y,1/2-x,1/2-z
17 -x,-y,-z
18 y,-x,-z
19 -y,x,-z
20 -y,-x,z
21 1/2-x,1/2-y,1/2-z
22 1/2+y,1/2-x,1/2-z
23 1/2-y,1/2+x,1/2-z
24 1/2-y,1/2-x,1/2+z
25 x,y,-z
26 x,-y,z
27 -x,y,z
28 y,x,z
29 1/2+x,1/2+y,1/2-z
30 1/2+x,1/2-y,1/2+z
31 1/2-x,1/2+y,1/2+z
32 1/2+y,1/2+x,1/2+z
_cell_length_a                   18.765(3)
_cell_length_b                   18.765(3)
_cell_length_c                   46.463(12)
_cell_angle_alpha                90
_cell_angle_beta                 90
_cell_angle_gamma                90
_cell_volume                     16360.8
loop_
_atom_site_label
_atom_site_type_symbol
_atom_site_fract_x
_atom_site_fract_y
_atom_site_fract_z
_atom_site_U_iso_or_equiv
_atom_site_thermal_displace_type
Zn1 Zn 0.28747(3) 0.28747(3) 0.225609(14) 0.1128 Uani
O1 O 0.2627(2) 0.36901(17) 0.25106(8) 0.1410 Uani
C1 C 0.2013(5) 0.5000 0.33478(14) 0.1493 Uani
C2 C 0.2100(3) 0.4367(3) 0.32092(9) 0.1397 Uani
H1 H 0.2035 0.3934 0.3312 0.1670 Uiso
C3 C 0.2282(3) 0.4343(3) 0.29185(10) 0.1193 Uani
C4 C 0.2395(4) 0.5000 0.27841(15) 0.1177 Uani
H2 H 0.2557 0.5000 0.2590 0.1410 Uiso
C5 C 0.1699(7) 0.5000 0.38975(17) 0.2157 Uani
C6 C 0.1826(6) 0.5000 0.36412(16) 0.1867 Uani
C7 C 0.1487(9) 0.5000 0.42008(19) 0.2400 Uani
O2 O 0.3363(2) 0.3363(2) 0.19307(8) 0.1470 Uani
C8 C 0.0853(8) 0.5000 0.47303(15) 0.2663 Uani
C9 C 0.1277(7) 0.4407(5) 0.43230(16) 0.3330 Uani
H3 H 0.1325 0.3968 0.4223 0.3990 Uiso
C10 C 0.0983(6) 0.4416(5) 0.45983(15) 0.3300 Uani
H4 H 0.0875 0.3977 0.4690 0.3960 Uiso
C11 C 0.0347(10) 0.5000 0.5000 0.2643 Uani
C12 C 0.2339(3) 0.3660(4) 0.27683(12) 0.1340 Uani
O3 O 0.2090(3) 0.3113(2) 0.28874(7) 0.1607 Uani
Zn1J Zn 0.28747(3) 0.71253(3) 0.774391(14) 0.1128 Uani
Zn1C Zn 0.28747(3) 0.28747(3) 0.774391(14) 0.1128 Uani
Zn1H Zn -0.28747(3) 0.71253(3) 0.225609(14) 0.1128 Uani
Zn1O Zn 0.21253(3) 0.21253(3) 0.274391(14) 0.1128 Uani
Zn1E Zn 0.21253(3) 0.78747(3) 0.725609(14) 0.1128 Uani
Zn1L Zn 0.21253(3) 0.21253(3) 0.725609(14) 0.1128 Uani
Zn1G Zn -0.21253(3) 0.78747(3) 0.274391(14) 0.1128 Uani
Zn1A Zn -0.28747(3) 0.28747(3) 0.225609(14) 0.1128 Uani
Zn1N Zn -0.21253(3) 0.21253(3) 0.274391(14) 0.1128 Uani
Zn1K Zn -0.28747(3) 0.71253(3) 0.774391(14) 0.1128 Uani
Zn1D Zn -0.21253(3) 0.78747(3) 0.725609(14) 0.1128 Uani
Zn1I Zn -0.28747(3) 0.28747(3) 0.774391(14) 0.1128 Uani
Zn1F Zn -0.21253(3) 0.21253(3) 0.725609(14) 0.1128 Uani
Zn1B Zn 0.28747(3) 0.71253(3) 0.225609(14) 0.1128 Uani
Zn1M Zn 0.21253(3) 0.78747(3) 0.274391(14) 0.1128 Uani
O1J O 0.2627(2) 0.63099(17) 0.74894(8) 0.1410 Uani
O1X O 0.2627(2) 0.36901(17) 0.74894(8) 0.1410 Uani
O1H O -0.2627(2) 0.63099(17) 0.25106(8) 0.1410 Uani
O1Z O -0.2627(2) 0.36901(17) 0.25106(8) 0.1410 Uani
O1P O -0.2627(2) 0.63099(17) 0.74894(8) 0.1410 Uani
O1I O -0.2627(2) 0.36901(17) 0.74894(8) 0.1410 Uani
O1Y O 0.2627(2) 0.63099(17) 0.25106(8) 0.1410 Uani
O1AA O 0.36901(17) 0.2627(2) 0.25106(8) 0.1410 Uani
O1Q O 0.36901(17) 0.7373(2) 0.74894(8) 0.1410 Uani
O1C O 0.36901(17) 0.2627(2) 0.74894(8) 0.1410 Uani
O1S O -0.36901(17) 0.7373(2) 0.25106(8) 0.1410 Uani
C1J C 0.2013(5) 0.5000 0.66522(14) 0.1493 Uani
C1H C -0.2013(5) 0.5000 0.33478(14) 0.1493 Uani
C1I C -0.2013(5) 0.5000 0.66522(14) 0.1493 Uani
C2X C 0.2100(3) 0.4367(3) 0.67908(9) 0.1397 Uani
C2J C 0.2100(3) 0.5633(3) 0.67908(9) 0.1397 Uani
C2Z C -0.2100(3) 0.4367(3) 0.32092(9) 0.1397 Uani
C2H C -0.2100(3) 0.5633(3) 0.32092(9) 0.1397 Uani
C2I C -0.2100(3) 0.4367(3) 0.67908(9) 0.1397 Uani
C2P C -0.2100(3) 0.5633(3) 0.67908(9) 0.1397 Uani
C2Y C 0.2100(3) 0.5633(3) 0.32092(9) 0.1397 Uani
H1X H 0.2035 0.3934 0.6688 0.1670 Uiso
H1J H 0.2035 0.6066 0.6688 0.1670 Uiso
H1Z H -0.2035 0.3934 0.3312 0.1670 Uiso
H1H H -0.2035 0.6066 0.3312 0.1670 Uiso
H1I H -0.2035 0.3934 0.6688 0.1670 Uiso
H1P H -0.2035 0.6066 0.6688 0.1670 Uiso
H1Y H 0.2035 0.6066 0.3312 0.1670 Uiso
C3X C 0.2282(3) 0.4343(3) 0.70815(10) 0.1193 Uani
C3J C 0.2282(3) 0.5657(3) 0.70815(10) 0.1193 Uani
C3Z C -0.2282(3) 0.4343(3) 0.29185(10) 0.1193 Uani
C3H C -0.2282(3) 0.5657(3) 0.29185(10) 0.1193 Uani
C3I C -0.2282(3) 0.4343(3) 0.70815(10) 0.1193 Uani
C3P C -0.2282(3) 0.5657(3) 0.70815(10) 0.1193 Uani
C3Y C 0.2282(3) 0.5657(3) 0.29185(10) 0.1193 Uani
C4J C 0.2395(4) 0.5000 0.72159(15) 0.1177 Uani
C4H C -0.2395(4) 0.5000 0.27841(15) 0.1177 Uani
C4I C -0.2395(4) 0.5000 0.72159(15) 0.1177 Uani
H2J H 0.2557 0.5000 0.7410 0.1410 Uiso
H2H H -0.2557 0.5000 0.2590 0.1410 Uiso
H2I H -0.2557 0.5000 0.7410 0.1410 Uiso
C5J C 0.1699(7) 0.5000 0.61025(17) 0.2157 Uani
C5H C -0.1699(7) 0.5000 0.38975(17) 0.2157 Uani
C5I C -0.1699(7) 0.5000 0.61025(17) 0.2157 Uani
C6J C 0.1826(6) 0.5000 0.63588(16) 0.1867 Uani
C6H C -0.1826(6) 0.5000 0.36412(16) 0.1867 Uani
C6I C -0.1826(6) 0.5000 0.63588(16) 0.1867 Uani
C7J C 0.1487(9) 0.5000 0.57992(19) 0.2400 Uani
C7H C -0.1487(9) 0.5000 0.42008(19) 0.2400 Uani
C7I C -0.1487(9) 0.5000 0.57992(19) 0.2400 Uani
O2J O 0.3363(2) 0.6637(2) 0.80693(8) 0.1470 Uani
O2C O 0.3363(2) 0.3363(2) 0.80693(8) 0.1470 Uani
O2H O -0.3363(2) 0.6637(2) 0.19307(8) 0.1470 Uani
C8J C 0.0853(8) 0.5000 0.52697(15) 0.2663 Uani
C8H C -0.0853(8) 0.5000 0.47303(15) 0.2663 Uani
C8I C -0.0853(8) 0.5000 0.52697(15) 0.2663 Uani
C9X C 0.1277(7) 0.4407(5) 0.56770(16) 0.3330 Uani
C9J C 0.1277(7) 0.5593(5) 0.56770(16) 0.3330 Uani
C9Z C -0.1277(7) 0.4407(5) 0.43230(16) 0.3330 Uani
C9H C -0.1277(7) 0.5593(5) 0.43230(16) 0.3330 Uani
C9I C -0.1277(7) 0.4407(5) 0.56770(16) 0.3330 Uani
C9P C -0.1277(7) 0.5593(5) 0.56770(16) 0.3330 Uani
C9Y C 0.1277(7) 0.5593(5) 0.43230(16) 0.3330 Uani
H3J H 0.1325 0.6032 0.5777 0.3990 Uiso
H3X H 0.1325 0.3968 0.5777 0.3990 Uiso
H3H H -0.1325 0.6032 0.4223 0.3990 Uiso
H3Z H -0.1325 0.3968 0.4223 0.3990 Uiso
H3P H -0.1325 0.6032 0.5777 0.3990 Uiso
H3I H -0.1325 0.3968 0.5777 0.3990 Uiso
H3Y H 0.1325 0.6032 0.4223 0.3990 Uiso
C10X C 0.0983(6) 0.4416(5) 0.54017(15) 0.3300 Uani
C10J C 0.0983(6) 0.5584(5) 0.54017(15) 0.3300 Uani
C10Z C -0.0983(6) 0.4416(5) 0.45983(15) 0.3300 Uani
C10H C -0.0983(6) 0.5584(5) 0.45983(15) 0.3300 Uani
C10I C -0.0983(6) 0.4416(5) 0.54017(15) 0.3300 Uani
C10P C -0.0983(6) 0.5584(5) 0.54017(15) 0.3300 Uani
C10Y C 0.0983(6) 0.5584(5) 0.45983(15) 0.3300 Uani
H4J H 0.0875 0.6023 0.5310 0.3960 Uiso
H4X H 0.0875 0.3977 0.5310 0.3960 Uiso
H4H H -0.0875 0.6023 0.4690 0.3960 Uiso
H4Z H -0.0875 0.3977 0.4690 0.3960 Uiso
H4P H -0.0875 0.6023 0.5310 0.3960 Uiso
H4I H -0.0875 0.3977 0.5310 0.3960 Uiso
H4Y H 0.0875 0.6023 0.4690 0.3960 Uiso
C11H C -0.0347(10) 0.5000 0.5000 0.2643 Uani
C12J C 0.2339(3) 0.6340(4) 0.72317(12) 0.1340 Uani
C12X C 0.2339(3) 0.3660(4) 0.72317(12) 0.1340 Uani
C12H C -0.2339(3) 0.6340(4) 0.27683(12) 0.1340 Uani
C12Z C -0.2339(3) 0.3660(4) 0.27683(12) 0.1340 Uani
C12P C -0.2339(3) 0.6340(4) 0.72317(12) 0.1340 Uani
C12I C -0.2339(3) 0.3660(4) 0.72317(12) 0.1340 Uani
C12Y C 0.2339(3) 0.6340(4) 0.27683(12) 0.1340 Uani
O3J O 0.2090(3) 0.6887(2) 0.71126(7) 0.1607 Uani
O3X O 0.2090(3) 0.3113(2) 0.71126(7) 0.1607 Uani
O3H O -0.2090(3) 0.6887(2) 0.28874(7) 0.1607 Uani
O3Z O -0.2090(3) 0.3113(2) 0.28874(7) 0.1607 Uani
O3P O -0.2090(3) 0.6887(2) 0.71126(7) 0.1607 Uani
O3I O -0.2090(3) 0.3113(2) 0.71126(7) 0.1607 Uani
O3Y O 0.2090(3) 0.6887(2) 0.28874(7) 0.1607 Uani
O3T O 0.2910(3) 0.1887(2) 0.21126(7) 0.1607 Uani
O3O O 0.1887(2) 0.2910(3) 0.21126(7) 0.1607 Uani
O3DA O 0.2910(3) 0.8113(2) 0.78874(7) 0.1607 Uani
O3E O 0.1887(2) 0.7090(3) 0.78874(7) 0.1607 Uani
O3L O 0.2910(3) 0.1887(2) 0.78874(7) 0.1607 Uani
O3W O 0.1887(2) 0.2910(3) 0.78874(7) 0.1607 Uani
O3BA O -0.2910(3) 0.8113(2) 0.21126(7) 0.1607 Uani
O3G O -0.1887(2) 0.7090(3) 0.21126(7) 0.1607 Uani
loop_
_atom_site_aniso_label
_atom_site_aniso_U_11
_atom_site_aniso_U_22
_atom_site_aniso_U_33
_atom_site_aniso_U_23
_atom_site_aniso_U_13
_atom_site_aniso_U_12
Zn1 0.1354(6) 0.1354(6) 0.0677(5) 0.0303(3) 0.0303(3) 0.0057(7)
O1 0.186(4) 0.130(3) 0.107(2) 0.010(2) 0.024(2) 0.029(3)
C1 0.226(9) 0.169(8) 0.053(4) 0.000 0.002(5) 0.000
C2 0.183(6) 0.170(6) 0.066(3) 0.011(3) 0.001(3) 0.007(5)
C3 0.141(5) 0.136(5) 0.081(3) 0.007(3) 0.001(3) 0.013(4)
C4 0.129(6) 0.139(6) 0.085(5) 0.000 -0.001(4) 0.000
C5 0.363(13) 0.194(9) 0.090(5) 0.000 0.048(7) 0.000
C6 0.316(11) 0.164(7) 0.080(4) 0.000 0.026(6) 0.000
C7 0.443(16) 0.188(11) 0.089(5) 0.000 0.073(8) 0.000
O2 0.171(3) 0.171(3) 0.099(3) 0.043(2) 0.043(2) 0.002(4)
C8 0.521(17) 0.253(13) 0.025(4) 0.000 -0.008(6) 0.000
C9 0.637(16) 0.206(9) 0.156(6) 0.042(5) 0.183(8) 0.058(10)
C10 0.657(16) 0.221(9) 0.112(5) 0.032(5) 0.128(7) 0.045(10)
C11 0.50(3) 0.249(13) 0.044(5) 0.000 0.000 0.000
C12 0.180(6) 0.126(5) 0.096(4) 0.004(4) -0.018(4) 0.027(5)
O3 0.242(5) 0.132(4) 0.108(2) 0.026(2) 0.023(3) 0.029(3)
Zn1J 0.1354 0.1354 0.0677 0.0303 -0.0303 -0.0057
Zn1C 0.1354 0.1354 0.0677 -0.0303 -0.0303 0.0057
Zn1H 0.1354 0.1354 0.0677 -0.0303 -0.0303 0.0057
Zn1O 0.1354 0.1354 0.0677 0.0303 0.0303 0.0057
Zn1E 0.1354 0.1354 0.0677 0.0303 -0.0303 -0.0057
Zn1L 0.1354 0.1354 0.0677 -0.0303 -0.0303 0.0057
Zn1G 0.1354 0.1354 0.0677 -0.0303 -0.0303 0.0057
Zn1A 0.1354 0.1354 0.0677 0.0303 -0.0303 -0.0057
Zn1N 0.1354 0.1354 0.0677 0.0303 -0.0303 -0.0057
Zn1K 0.1354 0.1354 0.0677 0.0303 0.0303 0.0057
Zn1D 0.1354 0.1354 0.0677 0.0303 0.0303 0.0057
Zn1I 0.1354 0.1354 0.0677 -0.0303 0.0303 -0.0057
Zn1F 0.1354 0.1354 0.0677 -0.0303 0.0303 -0.0057
Zn1B 0.1354 0.1354 0.0677 -0.0303 0.0303 -0.0057
Zn1M 0.1354 0.1354 0.0677 -0.0303 0.0303 -0.0057
O1J 0.186 0.13 0.107 0.01 -0.024 -0.029
O1X 0.186 0.13 0.107 -0.01 -0.024 0.029
O1H 0.186 0.13 0.107 -0.01 -0.024 0.029
O1Z 0.186 0.13 0.107 0.01 -0.024 -0.029
O1P 0.186 0.13 0.107 0.01 0.024 0.029
O1I 0.186 0.13 0.107 -0.01 0.024 -0.029
O1Y 0.186 0.13 0.107 -0.01 0.024 -0.029
O1AA 0.13 0.186 0.107 0.024 0.01 0.029
O1Q 0.13 0.186 0.107 0.024 -0.01 -0.029
O1C 0.13 0.186 0.107 -0.024 -0.01 0.029
O1S 0.13 0.186 0.107 -0.024 -0.01 0.029
C1J 0.226 0.169 0.053 0 -0.002 0
C1H 0.226 0.169 0.053 0 -0.002 0
C1I 0.226 0.169 0.053 0 0.002 0
C2X 0.183 0.17 0.066 -0.011 -0.001 0.007
C2J 0.183 0.17 0.066 0.011 -0.001 -0.007
C2Z 0.183 0.17 0.066 0.011 -0.001 -0.007
C2H 0.183 0.17 0.066 -0.011 -0.001 0.007
C2I 0.183 0.17 0.066 -0.011 0.001 -0.007
C2P 0.183 0.17 0.066 0.011 0.001 0.007
C2Y 0.183 0.17 0.066 -0.011 0.001 -0.007
C3X 0.141 0.136 0.081 -0.007 -0.001 0.013
C3J 0.141 0.136 0.081 0.007 -0.001 -0.013
C3Z 0.141 0.136 0.081 0.007 -0.001 -0.013
C3H 0.141 0.136 0.081 -0.007 -0.001 0.013
C3I 0.141 0.136 0.081 -0.007 0.001 -0.013
C3P 0.141 0.136 0.081 0.007 0.001 0.013
C3Y 0.141 0.136 0.081 -0.007 0.001 -0.013
C4J 0.129 0.139 0.085 0 0.001 0
C4H 0.129 0.139 0.085 0 0.001 0
C4I 0.129 0.139 0.085 0 -0.001 0
C5J 0.363 0.194 0.09 0 -0.048 0
C5H 0.363 0.194 0.09 0 -0.048 0
C5I 0.363 0.194 0.09 0 0.048 0
C6J 0.316 0.164 0.08 0 -0.026 0
C6H 0.316 0.164 0.08 0 -0.026 0
C6I 0.316 0.164 0.08 0 0.026 0
C7J 0.443 0.188 0.089 0 -0.073 0
C7H 0.443 0.188 0.089 0 -0.073 0
C7I 0.443 0.188 0.089 0 0.073 0
O2J 0.171 0.171 0.099 0.043 -0.043 -0.002
O2C 0.171 0.171 0.099 -0.043 -0.043 0.002
O2H 0.171 0.171 0.099 -0.043 -0.043 0.002
C8J 0.521 0.253 0.025 0 0.008 0
C8H 0.521 0.253 0.025 0 0.008 0
C8I 0.521 0.253 0.025 0 -0.008 0
C9X 0.637 0.206 0.156 -0.042 -0.183 0.058
C9J 0.637 0.206 0.156 0.042 -0.183 -0.058
C9Z 0.637 0.206 0.156 0.042 -0.183 -0.058
C9H 0.637 0.206 0.156 -0.042 -0.183 0.058
C9I 0.637 0.206 0.156 -0.042 0.183 -0.058
C9P 0.637 0.206 0.156 0.042 0.183 0.058
C9Y 0.637 0.206 0.156 -0.042 0.183 -0.058
C10X 0.657 0.221 0.112 -0.032 -0.128 0.045
C10J 0.657 0.221 0.112 0.032 -0.128 -0.045
C10Z 0.657 0.221 0.112 0.032 -0.128 -0.045
C10H 0.657 0.221 0.112 -0.032 -0.128 0.045
C10I 0.657 0.221 0.112 -0.032 0.128 -0.045
C10P 0.657 0.221 0.112 0.032 0.128 0.045
C10Y 0.657 0.221 0.112 -0.032 0.128 -0.045
C11H 0.5 0.249 0.044 0 0 0
C12J 0.18 0.126 0.096 0.004 0.018 -0.027
C12X 0.18 0.126 0.096 -0.004 0.018 0.027
C12H 0.18 0.126 0.096 -0.004 0.018 0.027
C12Z 0.18 0.126 0.096 0.004 0.018 -0.027
C12P 0.18 0.126 0.096 0.004 -0.018 0.027
C12I 0.18 0.126 0.096 -0.004 -0.018 -0.027
C12Y 0.18 0.126 0.096 -0.004 -0.018 -0.027
O3J 0.242 0.132 0.108 0.026 -0.023 -0.029
O3X 0.242 0.132 0.108 -0.026 -0.023 0.029
O3H 0.242 0.132 0.108 -0.026 -0.023 0.029
O3Z 0.242 0.132 0.108 0.026 -0.023 -0.029
O3P 0.242 0.132 0.108 0.026 0.023 0.029
O3I 0.242 0.132 0.108 -0.026 0.023 -0.029
O3Y 0.242 0.132 0.108 -0.026 0.023 -0.029
O3T 0.242 0.132 0.108 0.026 0.023 0.029
O3O 0.132 0.242 0.108 0.023 0.026 0.029
O3DA 0.242 0.132 0.108 0.026 -0.023 -0.029
O3E 0.132 0.242 0.108 0.023 -0.026 -0.029
O3L 0.242 0.132 0.108 -0.026 -0.023 0.029
O3W 0.132 0.242 0.108 -0.023 -0.026 0.029
O3BA 0.242 0.132 0.108 -0.026 -0.023 0.029
O3G 0.132 0.242 0.108 -0.023 -0.026 0.029
loop_
_geom_bond_atom_site_label_1
_geom_bond_atom_site_label_2
_geom_bond_site_symmetry_1
_geom_bond_site_symmetry_2
Zn1 O1 1_555 1_555
O1 C12 1_555 1_555
C1 C2 1_555 1_555
C2 H1 1_555 1_555
C3 C2 1_555 1_555
C4 C3 1_555 1_555
H2 C4 1_555 1_555
C5 C6 1_555 1_555
C6 C1 1_555 1_555
C7 C5 1_555 1_555
O2 Zn1 1_555 1_555
C8 C10 1_555 1_555
C9 C7 1_555 1_555
H3 C9 1_555 1_555
C10 C9 1_555 1_555
H4 C10 1_555 1_555
C11 C8 1_555 1_555
C12 C3 1_555 1_555
O3 C12 1_555 1_555
Zn1J O1J 1_555 1_555
Zn1C O1X 1_555 1_555
Zn1H O1H 1_555 1_555
Zn1O O3 1_555 1_555
Zn1E O3J 1_555 1_555
Zn1L O3X 1_555 1_555
Zn1G O3H 1_555 1_555
Zn1A O1Z 1_555 1_555
Zn1N O3Z 1_555 1_555
Zn1K O1P 1_555 1_555
Zn1D O3P 1_555 1_555
Zn1I O1I 1_555 1_555
Zn1F O3I 1_555 1_555
Zn1B O1Y 1_555 1_555
Zn1M O3Y 1_555 1_555
O1J C12J 1_555 1_555
O1X C12X 1_555 1_555
O1H C12H 1_555 1_555
O1Z C12Z 1_555 1_555
O1P C12P 1_555 1_555
O1I C12I 1_555 1_555
O1Y C12Y 1_555 1_555
O1AA Zn1 1_555 1_555
O1Q Zn1J 1_555 1_555
O1C Zn1C 1_555 1_555
O1S Zn1H 1_555 1_555
C1J C2X 1_555 1_555
C1H C2Z 1_555 1_555
C1I C2I 1_555 1_555
C2X H1X 1_555 1_555
C2J C1J 1_555 1_555
C2Z H1Z 1_555 1_555
C2H C1H 1_555 1_555
C2I H1I 1_555 1_555
C2P C1I 1_555 1_555
C2Y C1 1_555 1_555
H1J C2J 1_555 1_555
H1H C2H 1_555 1_555
H1P C2P 1_555 1_555
H1Y C2Y 1_555 1_555
C3X C2X 1_555 1_555
C3J C2J 1_555 1_555
C3Z C2Z 1_555 1_555
C3H C2H 1_555 1_555
C3I C2I 1_555 1_555
C3P C2P 1_555 1_555
C3Y C4 1_555 1_555
C4J C3X 1_555 1_555
C4H C3Z 1_555 1_555
C4I C3I 1_555 1_555
H2J C4J 1_555 1_555
H2H C4H 1_555 1_555
H2I C4I 1_555 1_555
C5J C6J 1_555 1_555
C5H C6H 1_555 1_555
C5I C6I 1_555 1_555
C6J C1J 1_555 1_555
C6H C1H 1_555 1_555
C6I C1I 1_555 1_555
C7J C5J 1_555 1_555
C7H C5H 1_555 1_555
C7I C5I 1_555 1_555
O2J Zn1J 1_555 1_555
O2C Zn1C 1_555 1_555
O2H Zn1H 1_555 1_555
C8J C11 1_555 1_555
C8H C10Z 1_555 1_555
C8I C10I 1_555 1_555
C9X C7J 1_555 1_555
C9J C7J 1_555 1_555
C9Z C7H 1_555 1_555
C9H C7H 1_555 1_555
C9I C7I 1_555 1_555
C9P C7I 1_555 1_555
C9Y C7 1_555 1_555
H3J C9J 1_555 1_555
H3X C9X 1_555 1_555
H3H C9H 1_555 1_555
H3Z C9Z 1_555 1_555
H3P C9P 1_555 1_555
H3I C9I 1_555 1_555
H3Y C9Y 1_555 1_555
C10X C8J 1_555 1_555
C10J C8J 1_555 1_555
C10Z C9Z 1_555 1_555
C10H C8H 1_555 1_555
C10I C9I 1_555 1_555
C10P C8I 1_555 1_555
C10Y C8 1_555 1_555
H4J C10J 1_555 1_555
H4X C10X 1_555 1_555
H4H C10H 1_555 1_555
H4Z C10Z 1_555 1_555
H4P C10P 1_555 1_555
H4I C10I 1_555 1_555
H4Y C10Y 1_555 1_555
C11H C11 1_555 1_555
C12J C3J 1_555 1_555
C12X C3X 1_555 1_555
C12H C3H 1_555 1_555
C12Z C3Z 1_555 1_555
C12P C3P 1_555 1_555
C12I C3I 1_555 1_555
C12Y C3Y 1_555 1_555
O3J C12J 1_555 1_555
O3X C12X 1_555 1_555
O3H C12H 1_555 1_555
O3Z C12Z 1_555 1_555
O3P C12P 1_555 1_555
O3I C12I 1_555 1_555
O3Y C12Y 1_555 1_555
O3T Zn1 1_555 1_555
O3O Zn1 1_555 1_555
O3DA Zn1J 1_555 1_555
O3E Zn1J 1_555 1_555
O3L Zn1C 1_555 1_555
O3W Zn1C 1_555 1_555
O3BA Zn1H 1_555 1_555
O3G Zn1H 1_555 1_555
C2Y C3Y 1_555 1_555
C3J C4J 1_555 1_555
C3H C4H 1_555 1_555
C3P C4I 1_555 1_555
C8H C11H 1_555 1_555
C8I C11H 1_555 1_555
C9X C10X 1_555 1_555
C9J C10J 1_555 1_555
C9H C10H 1_555 1_555
C9P C10P 1_555 1_555
C9Y C10Y 1_555 1_555

#END
