
#######################################################################
#
#                 Cambridge Crystallographic Data Centre
#                                CCDC 
#
#######################################################################
#
# If this CIF has been generated from an entry in the Cambridge 
# Structural Database, then it will include bibliographic, chemical, 
# crystal, experimental, refinement or atomic coordinate data resulting 
# from the CCDC's data processing and validation procedures.
#
#######################################################################

data_APAYUN
_chemical_formula_moiety         '(C21 H15 La1 O8)n'
_symmetry_cell_setting           monoclinic
_symmetry_space_group_name_H-M   'C 2/c'
_symmetry_Int_Tables_number      15
_space_group_name_Hall           '-C 2yc'
loop_
_symmetry_equiv_pos_site_id
_symmetry_equiv_pos_as_xyz
1 x,y,z
2 -x,y,1/2-z
3 1/2+x,1/2+y,z
4 1/2-x,1/2+y,1/2-z
5 -x,-y,-z
6 x,-y,1/2+z
7 1/2-x,1/2-y,-z
8 1/2+x,1/2-y,1/2+z
_cell_length_a                   33.69(3)
_cell_length_b                   12.970(11)
_cell_length_c                   14.771(12)
_cell_angle_alpha                90
_cell_angle_beta                 101.572(9)
_cell_angle_gamma                90
_cell_volume                     6323.13
loop_
_atom_site_label
_atom_site_type_symbol
_atom_site_fract_x
_atom_site_fract_y
_atom_site_fract_z
_atom_site_U_iso_or_equiv
_atom_site_thermal_displace_type
C1 C 0.25256(12) 0.4379(3) 0.0692(3) 0.0390 Uani
C2 C 0.28008(11) 0.5092(3) 0.1342(3) 0.0367 Uani
C3 C 0.26420(12) 0.5647(3) 0.2000(3) 0.0398 Uani
H1 H 0.2371 0.5571 0.2037 0.0480 Uiso
C4 C 0.28893(12) 0.6307(3) 0.2593(3) 0.0388 Uani
C5 C 0.32923(12) 0.6451(4) 0.2517(3) 0.0403 Uani
H2 H 0.3455 0.6908 0.2913 0.0490 Uiso
C6 C 0.34546(11) 0.5916(3) 0.1852(3) 0.0379 Uani
C7 C 0.32031(11) 0.5212(3) 0.1283(3) 0.0382 Uani
H3 H 0.3309 0.4821 0.0859 0.0460 Uiso
C8 C 0.27247(13) 0.6887(4) 0.3337(4) 0.0440 Uani
C9 C 0.38763(12) 0.6113(4) 0.1717(3) 0.0423 Uani
C10 C 0.40464(13) 0.7096(4) 0.1857(4) 0.0542 Uani
H4 H 0.3904 0.7611 0.2094 0.0650 Uiso
C11 C 0.44250(13) 0.7328(4) 0.1652(4) 0.0582 Uani
H5 H 0.4528 0.7994 0.1744 0.0700 Uiso
C12 C 0.46479(13) 0.6571(4) 0.1311(4) 0.0480 Uani
C13 C 0.44849(13) 0.5588(4) 0.1214(4) 0.0587 Uani
H6 H 0.4634 0.5059 0.1018 0.0710 Uiso
C14 C 0.41060(12) 0.5367(4) 0.1400(4) 0.0537 Uani
H7 H 0.4005 0.4700 0.1308 0.0650 Uiso
C15 C 0.50388(13) 0.6819(4) 0.1026(4) 0.0499 Uani
C16 C 0.51260(17) 0.7824(5) 0.0801(6) 0.0943 Uani
H8 H 0.4943 0.8350 0.0844 0.1130 Uiso
C17 C 0.54834(18) 0.8047(5) 0.0512(6) 0.0983 Uani
H9 H 0.5540 0.8728 0.0387 0.1180 Uiso
C18 C 0.57573(13) 0.7289(4) 0.0403(4) 0.0544 Uani
C19 C 0.56777(13) 0.6316(4) 0.0650(4) 0.0592 Uani
H10 H 0.5862 0.5793 0.0606 0.0710 Uiso
C20 C 0.53240(14) 0.6081(4) 0.0970(4) 0.0619 Uani
H11 H 0.5282 0.5409 0.1149 0.0740 Uiso
C21 C 0.61325(13) 0.7534(5) 0.0039(4) 0.0519 Uani
La1 La 0.30913(2) 0.19977(2) 0.05111(2) 0.0323 Uani
O1 O 0.34641(14) 0.2696(4) 0.2100(3) 0.1086 Uani
H12 H 0.3300 0.3098 0.2305 0.1630 Uiso
H13 H 0.3713 0.2538 0.2178 0.1630 Uiso
O2 O 0.33839(14) 0.0371(3) 0.1410(3) 0.1066 Uani
H14 H 0.3614 0.0182 0.1321 0.1600 Uiso
H15 H 0.3291 0.0323 0.1902 0.1600 Uiso
O3 O 0.26786(8) 0.3605(2) 0.0364(2) 0.0395 Uani
O4 O 0.21521(8) 0.4580(2) 0.0493(2) 0.0512 Uani
O5 O 0.23578(9) 0.6713(3) 0.3365(2) 0.0586 Uani
O6 O 0.29602(9) 0.7500(3) 0.3843(2) 0.0495 Uani
O7 O 0.62353(10) 0.8465(3) -0.0029(3) 0.0707 Uani
O8 O 0.63314(10) 0.6795(3) -0.0213(3) 0.0654 Uani
La1C La 0.19087(2) 0.69977(2) 0.44889(2) 0.0323 Uani
La1D La 0.69087(2) 0.80023(2) -0.05111(2) 0.0323 Uani
La1E La 0.30913(2) 0.80023(2) 0.55111(2) 0.0323 Uani
La1F La 0.19087(2) 0.30023(2) -0.05111(2) 0.0323 Uani
O3F O 0.23214(8) 0.1395(2) -0.0364(2) 0.0395 Uani
O4F O 0.28479(8) 0.0420(2) -0.0493(2) 0.0512 Uani
O5C O 0.26422(9) 0.1713(3) 0.1635(2) 0.0586 Uani
O6E O 0.29602(9) 0.2500(3) -0.1157(2) 0.0495 Uani
O7D O 0.37647(10) 0.1535(3) 0.0029(3) 0.0707 Uani
O8D O 0.36686(10) 0.3205(3) 0.0213(3) 0.0654 Uani
loop_
_atom_site_aniso_label
_atom_site_aniso_U_11
_atom_site_aniso_U_22
_atom_site_aniso_U_33
_atom_site_aniso_U_23
_atom_site_aniso_U_13
_atom_site_aniso_U_12
C1 0.028(2) 0.049(3) 0.043(3) -0.001(2) 0.014(2) -0.0068(19)
C2 0.024(2) 0.043(2) 0.046(3) -0.004(2) 0.014(2) 0.0000(17)
C3 0.024(2) 0.052(3) 0.046(3) -0.001(2) 0.013(2) -0.0047(18)
C4 0.028(2) 0.053(3) 0.037(3) -0.005(2) 0.010(2) 0.0008(19)
C5 0.025(2) 0.061(3) 0.036(3) -0.008(2) 0.009(2) -0.0044(19)
C6 0.025(2) 0.051(3) 0.042(3) -0.009(2) 0.017(2) -0.0070(18)
C7 0.026(2) 0.048(2) 0.045(3) -0.009(2) 0.018(2) -0.0016(18)
C8 0.028(2) 0.067(3) 0.040(3) -0.004(2) 0.014(2) 0.002(2)
C9 0.027(2) 0.062(3) 0.041(3) -0.012(2) 0.014(2) -0.010(2)
C10 0.034(2) 0.070(3) 0.066(4) -0.017(3) 0.028(3) -0.007(2)
C11 0.033(3) 0.063(3) 0.084(5) -0.011(3) 0.025(3) -0.014(2)
C12 0.028(2) 0.070(3) 0.051(4) -0.008(3) 0.020(2) -0.006(2)
C13 0.034(3) 0.074(3) 0.074(4) -0.020(3) 0.025(3) -0.006(2)
C14 0.032(2) 0.061(3) 0.074(4) -0.017(3) 0.025(3) -0.010(2)
C15 0.028(2) 0.070(3) 0.057(4) 0.000(3) 0.021(2) -0.003(2)
C16 0.057(4) 0.083(4) 0.163(8) 0.032(4) 0.070(4) 0.011(3)
C17 0.061(4) 0.080(4) 0.175(8) 0.030(5) 0.074(5) 0.004(3)
C18 0.029(2) 0.073(4) 0.066(4) 0.009(3) 0.021(3) 0.001(2)
C19 0.032(2) 0.072(4) 0.079(4) -0.013(3) 0.024(3) -0.005(2)
C20 0.044(3) 0.065(3) 0.085(5) -0.004(3) 0.033(3) -0.009(2)
C21 0.024(2) 0.076(3) 0.057(4) 0.003(3) 0.011(2) -0.005(2)
La1 0.01718(13) 0.04764(16) 0.03395(18) -0.00019(13) 0.00988(10) -0.00210(10)
O1 0.077(3) 0.147(4) 0.091(4) -0.002(3) -0.009(3) -0.038(3)
O2 0.119(4) 0.117(4) 0.095(4) 0.044(3) 0.048(3) 0.054(3)
O3 0.0271(15) 0.0437(17) 0.051(2) -0.0109(15) 0.0155(14) -0.0025(12)
O4 0.0225(15) 0.0531(19) 0.076(3) -0.0196(18) 0.0050(16) -0.0019(13)
O5 0.0322(17) 0.099(3) 0.051(2) -0.020(2) 0.0237(17) -0.0077(16)
O6 0.0375(17) 0.075(2) 0.040(2) -0.0197(18) 0.0170(16) -0.0052(16)
O7 0.0438(19) 0.061(2) 0.120(4) 0.019(2) 0.047(2) 0.0038(17)
O8 0.0415(19) 0.073(2) 0.092(3) -0.022(2) 0.038(2) -0.0198(17)
La1C 0.01718 0.04764 0.03395 0.00019 0.00988 0.0021
La1D 0.01718 0.04764 0.03395 -0.00019 0.00988 -0.0021
La1E 0.01718 0.04764 0.03395 0.00019 0.00988 0.0021
La1F 0.01718 0.04764 0.03395 -0.00019 0.00988 -0.0021
O3F 0.0271 0.0437 0.051 -0.0109 0.0155 -0.0025
O4F 0.0225 0.0531 0.076 -0.0196 0.005 -0.0019
O5C 0.0322 0.099 0.051 0.02 0.0237 0.0077
O6E 0.0375 0.075 0.04 0.0197 0.017 0.0052
O7D 0.0438 0.061 0.12 0.019 0.047 0.0038
O8D 0.0415 0.073 0.092 -0.022 0.038 -0.0198
loop_
_geom_bond_atom_site_label_1
_geom_bond_atom_site_label_2
_geom_bond_site_symmetry_1
_geom_bond_site_symmetry_2
C1 C2 1_555 1_555
C2 C3 1_555 1_555
C3 H1 1_555 1_555
C4 C3 1_555 1_555
C5 C4 1_555 1_555
H2 C5 1_555 1_555
C6 C5 1_555 1_555
C7 C2 1_555 1_555
H3 C7 1_555 1_555
C8 C4 1_555 1_555
C9 C6 1_555 1_555
C10 C9 1_555 1_555
H4 C10 1_555 1_555
C11 C10 1_555 1_555
H5 C11 1_555 1_555
C12 C11 1_555 1_555
C13 C12 1_555 1_555
H6 C13 1_555 1_555
C14 C9 1_555 1_555
H7 C14 1_555 1_555
C15 C12 1_555 1_555
C16 C15 1_555 1_555
H8 C16 1_555 1_555
C17 C16 1_555 1_555
H9 C17 1_555 1_555
C18 C17 1_555 1_555
C19 C18 1_555 1_555
H10 C19 1_555 1_555
C20 C15 1_555 1_555
H11 C20 1_555 1_555
C21 C18 1_555 1_555
La1 O1 1_555 1_555
O1 H12 1_555 1_555
H13 O1 1_555 1_555
O2 La1 1_555 1_555
H14 O2 1_555 1_555
H15 O2 1_555 1_555
O3 C1 1_555 1_555
O4 C1 1_555 1_555
O5 C8 1_555 1_555
O6 C8 1_555 1_555
O7 C21 1_555 1_555
O8 C21 1_555 1_555
La1C O5 1_555 1_555
La1D O7 1_555 1_555
La1E O6 1_555 1_555
La1F O3 1_555 1_555
O3F La1 1_555 1_555
O4F La1 1_555 1_555
O5C La1 1_555 1_555
O6E La1 1_555 1_555
O7D La1 1_555 1_555
O8D La1 1_555 1_555
C6 C7 1_555 1_555
C13 C14 1_555 1_555
C19 C20 1_555 1_555
La1 O3 1_555 1_555
O4 La1F 1_555 1_555
O8 La1D 1_555 1_555
La1F O3F 1_555 1_555

#END
