
#######################################################################
#
#                 Cambridge Crystallographic Data Centre
#                                CCDC 
#
#######################################################################
#
# If this CIF has been generated from an entry in the Cambridge 
# Structural Database, then it will include bibliographic, chemical, 
# crystal, experimental, refinement or atomic coordinate data resulting 
# from the CCDC's data processing and validation procedures.
#
#######################################################################

data_APAZIC
_chemical_formula_moiety         '(C27 H19 La1 O8)n'
_symmetry_cell_setting           monoclinic
_symmetry_space_group_name_H-M   'I 2/a'
_symmetry_Int_Tables_number      15
_space_group_name_Hall           '-I 2ya'
loop_
_symmetry_equiv_pos_site_id
_symmetry_equiv_pos_as_xyz
1 x,y,z
2 1/2-x,y,-z
3 1/2+x,1/2+y,1/2+z
4 -x,1/2+y,1/2-z
5 -x,-y,-z
6 1/2+x,-y,z
7 1/2-x,1/2-y,1/2-z
8 x,1/2-y,1/2+z
_cell_length_a                   13.9999(10)
_cell_length_b                   14.6470(11)
_cell_length_c                   42.040(3)
_cell_angle_alpha                90
_cell_angle_beta                 97.9480(10)
_cell_angle_gamma                90
_cell_volume                     8537.77
loop_
_atom_site_label
_atom_site_type_symbol
_atom_site_fract_x
_atom_site_fract_y
_atom_site_fract_z
_atom_site_U_iso_or_equiv
_atom_site_thermal_displace_type
C1 C 0.5653(5) 0.6680(4) 0.23601(14) 0.0334 Uani
C2 C 0.4811(4) 0.6077(4) 0.22279(14) 0.0327 Uani
C3 C 0.4424(4) 0.5437(4) 0.24177(14) 0.0322 Uani
H1 H 0.4665 0.5387 0.2634 0.0390 Uiso
C4 C 0.3690(4) 0.4880(4) 0.22869(13) 0.0303 Uani
C5 C 0.3286(5) 0.4981(4) 0.19644(14) 0.0337 Uani
H2 H 0.2792 0.4593 0.1878 0.0410 Uiso
C6 C 0.3611(5) 0.5645(4) 0.17751(14) 0.0365 Uani
C7 C 0.4405(4) 0.6167(4) 0.19067(14) 0.0352 Uani
H3 H 0.4670 0.6585 0.1777 0.0420 Uiso
C8 C 0.3284(5) 0.4175(4) 0.24947(14) 0.0319 Uani
C9 C 0.3163(5) 0.5801(5) 0.14385(15) 0.0398 Uani
C10 C 0.2731(5) 0.5092(5) 0.12461(16) 0.0549 Uani
H4 H 0.2725 0.4502 0.1328 0.0660 Uiso
C11 C 0.2312(6) 0.5268(5) 0.09341(16) 0.0543 Uani
H5 H 0.2046 0.4781 0.0810 0.0650 Uiso
C12 C 0.2269(5) 0.6123(5) 0.07975(15) 0.0426 Uani
C13 C 0.2702(6) 0.6808(5) 0.09871(16) 0.0544 Uani
H6 H 0.2703 0.7396 0.0903 0.0650 Uiso
C14 C 0.3140(5) 0.6659(5) 0.13007(17) 0.0547 Uani
H7 H 0.3423 0.7147 0.1420 0.0650 Uiso
C15 C 0.1793(4) 0.6306(4) 0.04620(9) 0.0518 Uani
C16 C 0.1461(5) 0.5583(3) 0.02627(12) 0.0921 Uani
H8 H 0.1547 0.4985 0.0336 0.1100 Uiso
C17 C 0.1001(5) 0.5752(3) -0.00462(11) 0.0882 Uani
H9 H 0.0779 0.5268 -0.0180 0.1060 Uiso
C18 C 0.0873(4) 0.6645(4) -0.01559(9) 0.0587 Uani
C19 C 0.1204(5) 0.7368(3) 0.00433(13) 0.1058 Uani
H10 H 0.1118 0.7966 -0.0030 0.1270 Uiso
C20 C 0.1664(5) 0.7199(3) 0.03523(12) 0.1014 Uani
H11 H 0.1886 0.7683 0.0486 0.1220 Uiso
C21 C 0.0336(5) 0.6825(5) -0.04928(16) 0.0507 Uani
C22 C 0.0068(5) 0.6121(5) -0.07136(16) 0.0539 Uani
H12 H 0.0237 0.5522 -0.0658 0.0650 Uiso
C23 C -0.0437(5) 0.6297(5) -0.10087(16) 0.0514 Uani
H13 H -0.0617 0.5818 -0.1149 0.0620 Uiso
C24 C -0.0682(5) 0.7181(5) -0.10999(15) 0.0425 Uani
C25 C -0.0354(6) 0.7894(6) -0.08930(16) 0.0578 Uani
H14 H -0.0462 0.8496 -0.0958 0.0690 Uiso
C26 C 0.0123(6) 0.7710(6) -0.05957(18) 0.0634 Uani
H15 H 0.0313 0.8192 -0.0457 0.0760 Uiso
C27 C -0.1295(5) 0.7395(5) -0.14123(16) 0.0441 Uani
La1 La 0.74569(3) 0.78748(2) 0.20248(2) 0.0256 Uani
O1 O 0.8907(5) 0.7208(4) 0.17728(15) 0.0883 Uani
H16 H 0.8960 0.6643 0.1817 0.1320 Uiso
H17 H 0.8803 0.7277 0.1570 0.1320 Uiso
O2 O 0.8129(4) 0.9225(4) 0.17325(13) 0.0847 Uani
H18 H 0.7801 0.9700 0.1759 0.1270 Uiso
H19 H 0.8715 0.9314 0.1811 0.1270 Uiso
O3 O 0.5937(3) 0.7267(3) 0.21748(10) 0.0379 Uani
O4 O 0.6020(3) 0.6557(3) 0.26415(10) 0.0452 Uani
O5 O 0.3406(3) 0.4287(3) 0.27930(9) 0.0420 Uani
O6 O 0.2843(3) 0.3495(3) 0.23645(9) 0.0360 Uani
O7 O -0.1741(4) 0.6764(3) -0.15732(11) 0.0517 Uani
O8 O -0.1331(4) 0.8197(3) -0.15156(11) 0.0583 Uani
La1A La -0.24569(3) 0.78748(2) -0.20248(2) 0.0256 Uani
La1C La 0.25431(3) 0.28748(2) 0.29752(2) 0.0256 Uani
La1E La 0.24569(3) 0.21252(2) 0.20248(2) 0.0256 Uani
La1F La 0.75431(3) 0.71252(2) 0.29752(2) 0.0256 Uani
O4F O 0.8980(3) 0.8443(3) 0.23585(10) 0.0452 Uani
O5C O 0.6594(3) 0.9287(3) 0.22070(9) 0.0420 Uani
O6C O 0.7157(3) 0.8495(3) 0.26355(9) 0.0360 Uani
O6E O 0.7843(3) 0.6505(3) 0.23645(9) 0.0360 Uani
O7A O 0.6741(4) 0.6764(3) 0.15732(11) 0.0517 Uani
O8A O 0.6331(4) 0.8197(3) 0.15156(11) 0.0583 Uani
loop_
_atom_site_aniso_label
_atom_site_aniso_U_11
_atom_site_aniso_U_22
_atom_site_aniso_U_33
_atom_site_aniso_U_23
_atom_site_aniso_U_13
_atom_site_aniso_U_12
C1 0.032(3) 0.040(3) 0.028(3) 0.000(3) 0.003(2) -0.003(3)
C2 0.031(3) 0.037(3) 0.028(3) 0.005(2) -0.003(2) -0.011(3)
C3 0.034(3) 0.036(3) 0.024(3) 0.001(2) -0.005(2) -0.006(3)
C4 0.033(3) 0.031(3) 0.025(3) 0.005(2) -0.003(2) -0.002(2)
C5 0.035(3) 0.034(3) 0.030(3) 0.004(3) -0.003(3) -0.009(3)
C6 0.041(3) 0.036(3) 0.029(3) 0.004(2) -0.008(2) -0.009(3)
C7 0.035(3) 0.041(3) 0.027(3) 0.007(3) -0.005(2) -0.013(3)
C8 0.040(3) 0.026(3) 0.028(3) -0.001(2) -0.001(3) 0.000(3)
C9 0.043(3) 0.043(3) 0.030(3) 0.008(3) -0.007(3) -0.010(3)
C10 0.063(4) 0.054(4) 0.041(3) 0.008(3) -0.017(3) -0.019(3)
C11 0.067(4) 0.052(4) 0.038(3) 0.002(3) -0.014(3) -0.016(3)
C12 0.042(3) 0.053(3) 0.030(3) 0.008(3) -0.005(3) -0.006(3)
C13 0.064(4) 0.052(4) 0.041(3) 0.016(3) -0.015(3) -0.010(3)
C14 0.062(4) 0.051(4) 0.044(3) 0.012(3) -0.018(3) -0.016(3)
C15 0.058(4) 0.059(4) 0.034(3) 0.010(3) -0.009(3) -0.010(3)
C16 0.128(5) 0.077(4) 0.057(4) 0.013(4) -0.038(4) -0.004(4)
C17 0.122(5) 0.074(4) 0.055(4) 0.006(4) -0.036(4) -0.009(4)
C18 0.070(4) 0.065(4) 0.036(3) 0.009(3) -0.011(3) -0.003(3)
C19 0.145(6) 0.085(5) 0.071(4) 0.007(4) -0.043(4) -0.001(5)
C20 0.137(5) 0.080(4) 0.071(4) 0.006(4) -0.043(4) -0.002(5)
C21 0.054(4) 0.062(4) 0.033(3) 0.007(3) -0.005(3) -0.001(3)
C22 0.061(4) 0.055(4) 0.041(3) 0.010(3) -0.010(3) -0.001(3)
C23 0.060(4) 0.055(4) 0.034(3) 0.004(3) -0.012(3) -0.012(3)
C24 0.042(3) 0.055(3) 0.028(3) 0.005(3) -0.004(2) 0.001(3)
C25 0.070(4) 0.054(4) 0.042(3) 0.009(3) -0.019(3) 0.005(4)
C26 0.079(4) 0.062(4) 0.042(3) 0.000(3) -0.017(3) -0.004(4)
C27 0.047(3) 0.052(3) 0.031(3) 0.005(3) -0.003(3) -0.001(3)
La1 0.0296(2) 0.0276(2) 0.01770(17) -0.00146(18) -0.00340(12) -0.0010(2)
O1 0.104(5) 0.086(4) 0.082(4) -0.025(4) 0.038(4) -0.015(4)
O2 0.069(4) 0.108(5) 0.073(4) 0.042(4) -0.005(3) -0.008(4)
O3 0.029(2) 0.044(3) 0.039(2) 0.004(2) -0.0017(19) -0.008(2)
O4 0.042(3) 0.062(3) 0.028(2) 0.006(2) -0.008(2) -0.020(2)
O5 0.066(3) 0.033(2) 0.024(2) 0.0052(19) -0.004(2) -0.010(2)
O6 0.042(3) 0.029(2) 0.034(2) 0.0041(19) -0.0051(19) -0.013(2)
O7 0.064(3) 0.049(3) 0.035(2) 0.013(2) -0.018(2) -0.010(2)
O8 0.072(3) 0.051(3) 0.043(3) 0.004(2) -0.024(3) -0.006(3)
La1A 0.0296 0.0276 0.0177 0.00146 -0.0034 0.001
La1C 0.0296 0.0276 0.0177 0.00146 -0.0034 0.001
La1E 0.0296 0.0276 0.0177 0.00146 -0.0034 0.001
La1F 0.0296 0.0276 0.0177 -0.00146 -0.0034 -0.001
O4F 0.042 0.062 0.028 0.006 -0.008 -0.02
O5C 0.066 0.033 0.024 -0.0052 -0.004 0.01
O6C 0.042 0.029 0.034 -0.0041 -0.0051 0.013
O6E 0.042 0.029 0.034 -0.0041 -0.0051 0.013
O7A 0.064 0.049 0.035 -0.013 -0.018 0.01
O8A 0.072 0.051 0.043 -0.004 -0.024 0.006
loop_
_geom_bond_atom_site_label_1
_geom_bond_atom_site_label_2
_geom_bond_site_symmetry_1
_geom_bond_site_symmetry_2
C1 C2 1_555 1_555
C2 C3 1_555 1_555
C3 H1 1_555 1_555
C4 C3 1_555 1_555
C5 C4 1_555 1_555
H2 C5 1_555 1_555
C6 C5 1_555 1_555
C7 C2 1_555 1_555
H3 C7 1_555 1_555
C8 C4 1_555 1_555
C9 C6 1_555 1_555
C10 C9 1_555 1_555
H4 C10 1_555 1_555
C11 C10 1_555 1_555
H5 C11 1_555 1_555
C12 C11 1_555 1_555
C13 C12 1_555 1_555
H6 C13 1_555 1_555
C14 C9 1_555 1_555
H7 C14 1_555 1_555
C15 C12 1_555 1_555
C16 C15 1_555 1_555
H8 C16 1_555 1_555
C17 C16 1_555 1_555
H9 C17 1_555 1_555
C18 C17 1_555 1_555
C19 C18 1_555 1_555
H10 C19 1_555 1_555
C20 C15 1_555 1_555
H11 C20 1_555 1_555
C21 C18 1_555 1_555
C22 C21 1_555 1_555
H12 C22 1_555 1_555
C23 C22 1_555 1_555
H13 C23 1_555 1_555
C24 C23 1_555 1_555
C25 C24 1_555 1_555
H14 C25 1_555 1_555
C26 C21 1_555 1_555
H15 C26 1_555 1_555
C27 C24 1_555 1_555
La1 O1 1_555 1_555
O1 H16 1_555 1_555
H17 O1 1_555 1_555
O2 La1 1_555 1_555
H18 O2 1_555 1_555
H19 O2 1_555 1_555
O3 C1 1_555 1_555
O4 C1 1_555 1_555
O5 C8 1_555 1_555
O6 C8 1_555 1_555
O7 C27 1_555 1_555
O8 C27 1_555 1_555
La1A O7 1_555 1_555
La1C O5 1_555 1_555
La1E O6 1_555 1_555
La1F O4 1_555 1_555
O4F La1 1_555 1_555
O5C La1 1_555 1_555
O6C La1 1_555 1_555
O6E La1 1_555 1_555
O7A La1 1_555 1_555
O8A La1 1_555 1_555
C6 C7 1_555 1_555
C13 C14 1_555 1_555
C19 C20 1_555 1_555
C25 C26 1_555 1_555
La1 O3 1_555 1_555
O6 La1C 1_555 1_555
O8 La1A 1_555 1_555
La1F O6C 1_555 1_555
La1F O6E 1_555 1_555

#END
