
#######################################################################
#
#                 Cambridge Crystallographic Data Centre
#                                CCDC 
#
#######################################################################
#
# If this CIF has been generated from an entry in the Cambridge 
# Structural Database, then it will include bibliographic, chemical, 
# crystal, experimental, refinement or atomic coordinate data resulting 
# from the CCDC's data processing and validation procedures.
#
#######################################################################

data_APAZOI
_chemical_formula_moiety         '(C15 H11 La1 O8)n'
_symmetry_cell_setting           monoclinic
_symmetry_space_group_name_H-M   'C 2/c'
_symmetry_Int_Tables_number      15
_space_group_name_Hall           '-C 2yc'
loop_
_symmetry_equiv_pos_site_id
_symmetry_equiv_pos_as_xyz
1 x,y,z
2 -x,y,1/2-z
3 1/2+x,1/2+y,z
4 1/2-x,1/2+y,1/2-z
5 -x,-y,-z
6 x,-y,1/2+z
7 1/2-x,1/2-y,-z
8 1/2+x,1/2-y,1/2+z
_cell_length_a                   24.799(18)
_cell_length_b                   13.263(10)
_cell_length_c                   14.971(11)
_cell_angle_alpha                90
_cell_angle_beta                 96.635(8)
_cell_angle_gamma                90
_cell_volume                     4891.12
loop_
_atom_site_label
_atom_site_type_symbol
_atom_site_fract_x
_atom_site_fract_y
_atom_site_fract_z
_atom_site_U_iso_or_equiv
_atom_site_thermal_displace_type
C1 C 0.2495(2) -0.0662(4) 0.9261(4) 0.0399 Uani
C2 C 0.2149(2) 0.0070(4) 0.8696(4) 0.0380 Uani
C3 C 0.2367(2) 0.0567(4) 0.7995(3) 0.0385 Uani
H1 H 0.2722 0.0436 0.7887 0.0460 Uiso
C4 C 0.2059(2) 0.1244(4) 0.7469(3) 0.0368 Uani
C5 C 0.1535(2) 0.1465(5) 0.7656(4) 0.0410 Uani
H2 H 0.1327 0.1929 0.7300 0.0490 Uiso
C6 C 0.1316(2) 0.1004(4) 0.8367(4) 0.0386 Uani
C7 C 0.1622(2) 0.0276(4) 0.8861(3) 0.0371 Uani
H3 H 0.1471 -0.0078 0.9308 0.0450 Uiso
C8 C 0.2274(2) 0.1738(5) 0.6665(4) 0.0444 Uani
C9 C 0.0774(2) 0.1312(5) 0.8604(4) 0.0423 Uani
C10 C 0.0616(3) 0.2322(5) 0.8544(5) 0.0573 Uani
H4 H 0.0841 0.2794 0.8317 0.0680 Uiso
C11 C 0.0127(3) 0.2631(5) 0.8819(5) 0.0537 Uani
H5 H 0.0023 0.3304 0.8763 0.0650 Uiso
C12 C -0.0207(2) 0.1939(4) 0.9177(4) 0.0439 Uani
C13 C -0.0063(2) 0.0941(5) 0.9214(4) 0.0506 Uani
H6 H -0.0293 0.0468 0.9428 0.0610 Uiso
C14 C 0.0428(2) 0.0632(5) 0.8934(4) 0.0472 Uani
H7 H 0.0523 -0.0047 0.8970 0.0570 Uiso
C15 C -0.0703(2) 0.2284(5) 0.9574(4) 0.0475 Uani
La1 La 0.32989(2) -0.20785(2) 1.03064(2) 0.0319 Uani
O1 O 0.3798(3) -0.0570(6) 1.1064(5) 0.1133 Uani
H8 H 0.3911 -0.0194 1.0665 0.1700 Uiso
H9 H 0.3580 -0.0239 1.1352 0.1700 Uiso
O2 O 0.3751(3) -0.2766(5) 1.1788(4) 0.0967 Uani
H10 H 0.3975 -0.3222 1.1680 0.1450 Uiso
H11 H 0.3920 -0.2292 1.2083 0.1450 Uiso
O3 O 0.29936(16) -0.0534(3) 0.9363(3) 0.0515 Uani
O4 O 0.22684(15) -0.1398(3) 0.9618(3) 0.0427 Uani
O5 O 0.27489(16) 0.1514(4) 0.6523(3) 0.0566 Uani
O6 O 0.19728(18) 0.2347(4) 0.6236(3) 0.0484 Uani
O7 O -0.08402(19) 0.3193(4) 0.9533(4) 0.0672 Uani
O8 O -0.09801(17) 0.1632(4) 0.9937(3) 0.0565 Uani
La1B La -0.17011(2) 0.29215(2) 1.03064(2) 0.0319 Uani
La1C La 0.17011(2) 0.29215(2) 0.46936(2) 0.0319 Uani
La1E La 0.32989(2) 0.20785(2) 0.53064(2) 0.0319 Uani
La1F La 0.17011(2) -0.29215(2) 0.96936(2) 0.0319 Uani
O4F O 0.27316(15) -0.3602(3) 1.0382(3) 0.0427 Uani
O5E O 0.27489(16) -0.1514(4) 1.1523(3) 0.0566 Uani
O6C O 0.30272(18) -0.2653(4) 0.8764(3) 0.0484 Uani
O7B O 0.41598(19) -0.1807(4) 0.9533(4) 0.0672 Uani
O8B O 0.40199(17) -0.3368(4) 0.9937(3) 0.0565 Uani
loop_
_atom_site_aniso_label
_atom_site_aniso_U_11
_atom_site_aniso_U_22
_atom_site_aniso_U_33
_atom_site_aniso_U_23
_atom_site_aniso_U_13
_atom_site_aniso_U_12
C1 0.032(2) 0.046(3) 0.044(3) 0.007(2) 0.014(2) 0.007(2)
C2 0.033(2) 0.043(3) 0.040(2) 0.003(2) 0.013(2) 0.007(2)
C3 0.027(2) 0.050(3) 0.041(3) 0.007(2) 0.014(2) 0.006(2)
C4 0.029(2) 0.049(3) 0.034(2) 0.008(2) 0.0099(19) 0.004(2)
C5 0.030(3) 0.056(3) 0.039(3) 0.014(2) 0.012(2) 0.008(2)
C6 0.028(2) 0.052(3) 0.038(2) 0.007(2) 0.013(2) 0.007(2)
C7 0.031(3) 0.047(3) 0.036(2) 0.009(2) 0.015(2) 0.006(2)
C8 0.036(3) 0.062(3) 0.038(3) 0.004(2) 0.016(2) -0.004(2)
C9 0.034(3) 0.053(3) 0.043(3) 0.008(2) 0.018(2) 0.010(2)
C10 0.043(3) 0.061(3) 0.073(4) 0.019(3) 0.029(3) 0.011(3)
C11 0.041(3) 0.053(3) 0.072(4) 0.011(3) 0.027(3) 0.015(3)
C12 0.029(3) 0.055(3) 0.051(3) 0.009(2) 0.019(2) 0.010(2)
C13 0.032(3) 0.060(3) 0.064(3) 0.011(3) 0.023(2) 0.006(2)
C14 0.037(3) 0.049(3) 0.060(3) 0.008(3) 0.025(2) 0.007(2)
C15 0.031(3) 0.057(3) 0.057(3) 0.006(3) 0.016(2) 0.010(2)
La1 0.0207(2) 0.0468(2) 0.0296(2) 0.00025(12) 0.00846(13) 0.00345(12)
O1 0.108(5) 0.123(5) 0.108(5) -0.032(4) 0.009(4) -0.054(4)
O2 0.105(5) 0.120(5) 0.059(3) 0.004(3) -0.016(3) 0.038(4)
O3 0.032(2) 0.058(2) 0.064(2) 0.018(2) 0.0029(18) 0.0030(19)
O4 0.036(2) 0.048(2) 0.047(2) 0.0108(17) 0.0172(16) 0.0030(17)
O5 0.036(2) 0.090(3) 0.047(2) 0.020(2) 0.0181(18) 0.003(2)
O6 0.047(2) 0.068(3) 0.032(2) 0.0171(19) 0.0121(18) 0.001(2)
O7 0.041(2) 0.062(3) 0.105(4) 0.004(3) 0.036(2) 0.008(2)
O8 0.036(2) 0.065(3) 0.074(3) 0.015(2) 0.030(2) 0.017(2)
La1B 0.0207 0.0468 0.0296 0.00025 0.00846 0.00345
La1C 0.0207 0.0468 0.0296 -0.00025 0.00846 -0.00345
La1E 0.0207 0.0468 0.0296 -0.00025 0.00846 -0.00345
La1F 0.0207 0.0468 0.0296 0.00025 0.00846 0.00345
O4F 0.036 0.048 0.047 0.0108 0.0172 0.003
O5E 0.036 0.09 0.047 -0.02 0.0181 -0.003
O6C 0.047 0.068 0.032 -0.0171 0.0121 -0.001
O7B 0.041 0.062 0.105 0.004 0.036 0.008
O8B 0.036 0.065 0.074 0.015 0.03 0.017
loop_
_geom_bond_atom_site_label_1
_geom_bond_atom_site_label_2
_geom_bond_site_symmetry_1
_geom_bond_site_symmetry_2
C1 C2 1_555 1_555
C2 C3 1_555 1_555
C3 H1 1_555 1_555
C4 C3 1_555 1_555
C5 C4 1_555 1_555
H2 C5 1_555 1_555
C6 C5 1_555 1_555
C7 C2 1_555 1_555
H3 C7 1_555 1_555
C8 C4 1_555 1_555
C9 C6 1_555 1_555
C10 C9 1_555 1_555
H4 C10 1_555 1_555
C11 C10 1_555 1_555
H5 C11 1_555 1_555
C12 C11 1_555 1_555
C13 C12 1_555 1_555
H6 C13 1_555 1_555
C14 C9 1_555 1_555
H7 C14 1_555 1_555
C15 C12 1_555 1_555
La1 O1 1_555 1_555
O1 H8 1_555 1_555
H9 O1 1_555 1_555
O2 La1 1_555 1_555
H10 O2 1_555 1_555
H11 O2 1_555 1_555
O3 C1 1_555 1_555
O4 C1 1_555 1_555
O5 C8 1_555 1_555
O6 C8 1_555 1_555
O7 C15 1_555 1_555
O8 C15 1_555 1_555
La1B O7 1_555 1_555
La1C O6 1_555 1_555
La1E O5 1_555 1_555
La1F O4 1_555 1_555
O4F La1 1_555 1_555
O5E La1 1_555 1_555
O6C La1 1_555 1_555
O7B La1 1_555 1_555
O8B La1 1_555 1_555
C6 C7 1_555 1_555
C13 C14 1_555 1_555
La1 O3 1_555 1_555
La1 O4 1_555 1_555
O8 La1B 1_555 1_555
La1F O4F 1_555 1_555

#END
