
#######################################################################
#
#                 Cambridge Crystallographic Data Centre
#                                CCDC 
#
#######################################################################
#
# If this CIF has been generated from an entry in the Cambridge 
# Structural Database, then it will include bibliographic, chemical, 
# crystal, experimental, refinement or atomic coordinate data resulting 
# from the CCDC's data processing and validation procedures.
#
#######################################################################

data_APAZAU
_chemical_formula_moiety         '(C27 H19 Eu1 O8)n'
_symmetry_cell_setting           monoclinic
_symmetry_space_group_name_H-M   'C 2/c'
_symmetry_Int_Tables_number      15
_space_group_name_Hall           '-C 2yc'
loop_
_symmetry_equiv_pos_site_id
_symmetry_equiv_pos_as_xyz
1 x,y,z
2 -x,y,1/2-z
3 1/2+x,1/2+y,z
4 1/2-x,1/2+y,1/2-z
5 -x,-y,-z
6 x,-y,1/2+z
7 1/2-x,1/2-y,-z
8 1/2+x,1/2-y,1/2+z
_cell_length_a                   42.142(15)
_cell_length_b                   14.065(5)
_cell_length_c                   13.870(5)
_cell_angle_alpha                90
_cell_angle_beta                 101.996(5)
_cell_angle_gamma                90
_cell_volume                     8041.59
loop_
_atom_site_label
_atom_site_type_symbol
_atom_site_fract_x
_atom_site_fract_y
_atom_site_fract_z
_atom_site_U_iso_or_equiv
_atom_site_thermal_displace_type
C1 C 0.2528(3) 0.4212(9) 0.5771(9) 0.0423 Uani
C2 C 0.2724(3) 0.4923(8) 0.6358(8) 0.0387 Uani
C3 C 0.3047(3) 0.5031(8) 0.6303(9) 0.0433 Uani
H1 H 0.3135 0.4640 0.5885 0.0520 Uiso
C4 C 0.3243(3) 0.5722(9) 0.6870(9) 0.0428 Uani
C5 C 0.3113(2) 0.6258(8) 0.7515(8) 0.0386 Uani
H2 H 0.3242 0.6713 0.7895 0.0460 Uiso
C6 C 0.2798(2) 0.6147(8) 0.7623(8) 0.0398 Uani
C7 C 0.2596(2) 0.5510(8) 0.6996(8) 0.0403 Uani
H3 H 0.2376 0.5479 0.7005 0.0480 Uiso
C8 C 0.2655(3) 0.6763(10) 0.8372(10) 0.0460 Uani
C9 C 0.3588(3) 0.5869(9) 0.6764(10) 0.0507 Uani
C10 C 0.3783(3) 0.5145(10) 0.6555(10) 0.0550 Uani
H4 H 0.3700 0.4530 0.6515 0.0660 Uiso
C11 C 0.4098(3) 0.5272(10) 0.6399(10) 0.0605 Uani
H5 H 0.4217 0.4755 0.6254 0.0730 Uiso
C12 C 0.4231(3) 0.6198(10) 0.6464(10) 0.0601 Uani
C13 C 0.4034(3) 0.6973(10) 0.6713(12) 0.0593 Uani
H6 H 0.4121 0.7582 0.6800 0.0720 Uiso
C14 C 0.3715(3) 0.6819(10) 0.6823(11) 0.0579 Uani
H7 H 0.3586 0.7328 0.6934 0.0690 Uiso
C15 C 0.45710(19) 0.6380(8) 0.6350(9) 0.0738 Uani
C16 C 0.4759(2) 0.5628(6) 0.6138(9) 0.0915 Uani
H8 H 0.4681 0.5009 0.6123 0.1100 Uiso
C17 C 0.5065(2) 0.5801(7) 0.5947(9) 0.0907 Uani
H9 H 0.5191 0.5298 0.5805 0.1080 Uiso
C18 C 0.5183(2) 0.6726(8) 0.5969(9) 0.0809 Uani
C19 C 0.4994(3) 0.7478(6) 0.6181(10) 0.0966 Uani
H10 H 0.5073 0.8097 0.6196 0.1160 Uiso
C20 C 0.4689(2) 0.7305(7) 0.6372(10) 0.0937 Uani
H11 H 0.4562 0.7808 0.6514 0.1120 Uiso
C21 C 0.6441(3) 0.7490(11) 0.4995(11) 0.0581 Uani
C22 C 0.55246(17) 0.6921(7) 0.5788(8) 0.0682 Uani
C23 C 0.5734(2) 0.6176(5) 0.5702(7) 0.0634 Uani
H12 H 0.5673 0.5553 0.5800 0.0760 Uiso
C24 C 0.60329(19) 0.6362(5) 0.5469(7) 0.0638 Uani
H13 H 0.6173 0.5863 0.5411 0.0770 Uiso
C25 C 0.61231(17) 0.7293(6) 0.5322(8) 0.0636 Uani
C26 C 0.5914(2) 0.8038(5) 0.5408(9) 0.0711 Uani
H14 H 0.5974 0.8660 0.5310 0.0860 Uiso
C27 C 0.5615(2) 0.7852(6) 0.5641(9) 0.0726 Uani
H15 H 0.5475 0.8350 0.5699 0.0870 Uiso
Eu1 Eu 0.20411(2) 0.29234(4) 0.45204(4) 0.0338 Uani
O1 O 0.1770(3) 0.4256(9) 0.3522(9) 0.1037 Uani
H16 H 0.1613 0.4046 0.3089 0.1550 Uiso
H17 H 0.1910 0.4695 0.3664 0.1550 Uiso
O2 O 0.1782(3) 0.2227(8) 0.2916(8) 0.0856 Uani
H18 H 0.1636 0.1840 0.3001 0.1280 Uiso
H19 H 0.1933 0.2301 0.2603 0.1280 Uiso
O3 O 0.22275(19) 0.4327(6) 0.5508(7) 0.0561 Uani
O4 O 0.26449(17) 0.3460(6) 0.5486(6) 0.0443 Uani
O5 O 0.23786(19) 0.6624(7) 0.8401(6) 0.0580 Uani
O6 O 0.2839(2) 0.7399(7) 0.8810(6) 0.0477 Uani
O7 O 0.6536(2) 0.8324(8) 0.5058(8) 0.0685 Uani
O8 O 0.6595(2) 0.6840(7) 0.4747(7) 0.0599 Uani
Eu1B Eu 0.70411(2) 0.79234(4) 0.45204(4) 0.0338 Uani
Eu1C Eu 0.29589(2) 0.79234(4) 1.04796(4) 0.0338 Uani
Eu1E Eu 0.20411(2) 0.70766(4) 0.95204(4) 0.0338 Uani
Eu1F Eu 0.29589(2) 0.20766(4) 0.54796(4) 0.0338 Uani
O4F O 0.23551(17) 0.1540(6) 0.4514(6) 0.0443 Uani
O5E O 0.23786(19) 0.3376(7) 0.3401(6) 0.0580 Uani
O6C O 0.2161(2) 0.2399(7) 0.6190(6) 0.0477 Uani
O7B O 0.1536(2) 0.3324(8) 0.5058(8) 0.0685 Uani
O8B O 0.1595(2) 0.1840(7) 0.4747(7) 0.0599 Uani
loop_
_atom_site_aniso_label
_atom_site_aniso_U_11
_atom_site_aniso_U_22
_atom_site_aniso_U_33
_atom_site_aniso_U_23
_atom_site_aniso_U_13
_atom_site_aniso_U_12
C1 0.031(4) 0.047(4) 0.055(4) -0.007(4) 0.023(3) -0.003(3)
C2 0.032(4) 0.049(4) 0.038(4) -0.003(3) 0.014(3) -0.005(3)
C3 0.043(4) 0.049(5) 0.043(4) -0.007(4) 0.021(4) -0.006(4)
C4 0.033(4) 0.054(4) 0.044(4) -0.012(4) 0.014(3) -0.007(4)
C5 0.026(4) 0.054(5) 0.037(4) -0.009(4) 0.009(3) -0.010(4)
C6 0.033(4) 0.052(4) 0.039(4) -0.010(4) 0.018(3) -0.009(4)
C7 0.024(4) 0.054(5) 0.045(4) -0.011(4) 0.012(4) -0.008(4)
C8 0.035(4) 0.060(4) 0.047(4) -0.011(4) 0.018(4) -0.002(4)
C9 0.041(4) 0.058(4) 0.057(5) -0.013(4) 0.019(4) -0.008(4)
C10 0.040(4) 0.061(5) 0.067(5) -0.013(5) 0.018(4) -0.012(4)
C11 0.049(5) 0.065(5) 0.073(5) -0.009(5) 0.025(4) -0.005(4)
C12 0.050(4) 0.066(5) 0.069(5) -0.008(4) 0.023(4) -0.009(4)
C13 0.042(5) 0.069(5) 0.070(5) -0.004(5) 0.019(4) -0.009(4)
C14 0.045(5) 0.067(5) 0.067(5) -0.002(5) 0.024(4) -0.008(4)
C15 0.057(4) 0.081(5) 0.091(5) -0.004(5) 0.033(4) -0.006(4)
C16 0.072(5) 0.094(6) 0.121(6) -0.005(5) 0.049(5) -0.006(5)
C17 0.071(5) 0.096(5) 0.117(6) 0.000(6) 0.047(5) -0.009(5)
C18 0.064(5) 0.093(5) 0.093(5) 0.000(5) 0.033(5) -0.004(4)
C19 0.074(5) 0.098(6) 0.127(6) 0.006(6) 0.042(5) -0.003(5)
C20 0.073(5) 0.091(5) 0.125(6) 0.008(6) 0.039(5) -0.003(5)
C21 0.052(4) 0.061(5) 0.065(5) 0.003(4) 0.021(4) -0.006(4)
C22 0.054(4) 0.078(5) 0.078(5) 0.007(5) 0.026(4) -0.002(4)
C23 0.051(5) 0.071(5) 0.074(5) 0.002(5) 0.026(4) -0.006(4)
C24 0.054(5) 0.070(5) 0.073(5) -0.005(5) 0.026(5) -0.006(4)
C25 0.053(4) 0.070(5) 0.073(5) 0.005(4) 0.025(4) -0.002(4)
C26 0.055(5) 0.074(5) 0.090(6) 0.017(5) 0.028(5) -0.002(4)
C27 0.057(5) 0.079(5) 0.088(6) 0.015(5) 0.029(5) 0.003(5)
Eu1 0.0209(4) 0.0510(4) 0.0316(3) 0.0001(3) 0.0100(2) -0.0018(2)
O1 0.098(8) 0.120(8) 0.089(8) 0.047(7) 0.010(6) 0.025(7)
O2 0.081(7) 0.142(9) 0.041(5) -0.020(5) 0.029(5) -0.033(6)
O3 0.037(4) 0.056(4) 0.077(5) -0.019(4) 0.016(4) -0.007(3)
O4 0.032(3) 0.058(4) 0.048(4) -0.005(3) 0.020(3) -0.004(3)
O5 0.038(4) 0.090(5) 0.056(4) -0.012(4) 0.033(4) -0.002(4)
O6 0.047(4) 0.063(4) 0.032(4) -0.014(4) 0.006(3) -0.004(4)
O7 0.051(4) 0.074(5) 0.091(5) -0.004(5) 0.039(4) -0.014(4)
O8 0.050(4) 0.070(5) 0.065(5) -0.006(4) 0.024(4) -0.013(4)
Eu1B 0.0209 0.051 0.0316 0.0001 0.01 -0.0018
Eu1C 0.0209 0.051 0.0316 -0.0001 0.01 0.0018
Eu1E 0.0209 0.051 0.0316 -0.0001 0.01 0.0018
Eu1F 0.0209 0.051 0.0316 0.0001 0.01 -0.0018
O4F 0.032 0.058 0.048 -0.005 0.02 -0.004
O5E 0.038 0.09 0.056 0.012 0.033 0.002
O6C 0.047 0.063 0.032 0.014 0.006 0.004
O7B 0.051 0.074 0.091 -0.004 0.039 -0.014
O8B 0.05 0.07 0.065 -0.006 0.024 -0.013
loop_
_geom_bond_atom_site_label_1
_geom_bond_atom_site_label_2
_geom_bond_site_symmetry_1
_geom_bond_site_symmetry_2
C1 C2 1_555 1_555
C2 C3 1_555 1_555
C3 H1 1_555 1_555
C4 C3 1_555 1_555
C5 C4 1_555 1_555
H2 C5 1_555 1_555
C6 C5 1_555 1_555
C7 C2 1_555 1_555
H3 C7 1_555 1_555
C8 C6 1_555 1_555
C9 C4 1_555 1_555
C10 C9 1_555 1_555
H4 C10 1_555 1_555
C11 C10 1_555 1_555
H5 C11 1_555 1_555
C12 C11 1_555 1_555
C13 C12 1_555 1_555
H6 C13 1_555 1_555
C14 C9 1_555 1_555
H7 C14 1_555 1_555
C15 C12 1_555 1_555
C16 C15 1_555 1_555
H8 C16 1_555 1_555
C17 C16 1_555 1_555
H9 C17 1_555 1_555
C18 C17 1_555 1_555
C19 C18 1_555 1_555
H10 C19 1_555 1_555
C20 C15 1_555 1_555
H11 C20 1_555 1_555
C21 C25 1_555 1_555
C22 C18 1_555 1_555
C23 C22 1_555 1_555
H12 C23 1_555 1_555
C24 C23 1_555 1_555
H13 C24 1_555 1_555
C25 C24 1_555 1_555
C26 C25 1_555 1_555
H14 C26 1_555 1_555
C27 C22 1_555 1_555
H15 C27 1_555 1_555
Eu1 O1 1_555 1_555
O1 H16 1_555 1_555
H17 O1 1_555 1_555
O2 Eu1 1_555 1_555
H18 O2 1_555 1_555
H19 O2 1_555 1_555
O3 C1 1_555 1_555
O4 C1 1_555 1_555
O5 C8 1_555 1_555
O6 C8 1_555 1_555
O7 C21 1_555 1_555
O8 C21 1_555 1_555
Eu1B O7 1_555 1_555
Eu1C O6 1_555 1_555
Eu1E O5 1_555 1_555
Eu1F O4 1_555 1_555
O4F Eu1 1_555 1_555
O5E Eu1 1_555 1_555
O6C Eu1 1_555 1_555
O7B Eu1 1_555 1_555
O8B Eu1 1_555 1_555
C6 C7 1_555 1_555
C13 C14 1_555 1_555
C19 C20 1_555 1_555
C26 C27 1_555 1_555
Eu1 O3 1_555 1_555
Eu1 O4 1_555 1_555
O8 Eu1B 1_555 1_555
Eu1F O4F 1_555 1_555

#END
