
#######################################################################
#
#                 Cambridge Crystallographic Data Centre
#                                CCDC 
#
#######################################################################
#
# If this CIF has been generated from an entry in the Cambridge 
# Structural Database, then it will include bibliographic, chemical, 
# crystal, experimental, refinement or atomic coordinate data resulting 
# from the CCDC's data processing and validation procedures.
#
#######################################################################

data_HOGJIX
_chemical_formula_moiety         '(C66 H60 N12 O30 Zn6)n'
_symmetry_cell_setting           monoclinic
_symmetry_space_group_name_H-M   'C 2/c'
_symmetry_Int_Tables_number      15
_space_group_name_Hall           '-C 2yc'
loop_
_symmetry_equiv_pos_site_id
_symmetry_equiv_pos_as_xyz
1 x,y,z
2 1/2+x,1/2+y,z
3 -x,y,1/2-z
4 1/2-x,1/2+y,1/2-z
5 -x,-y,-z
6 1/2-x,1/2-y,-z
7 x,-y,1/2+z
8 1/2+x,1/2-y,1/2+z
_cell_length_a                   33.540(7)
_cell_length_b                   19.607(4)
_cell_length_c                   21.705(4)
_cell_angle_alpha                90
_cell_angle_beta                 120.30(3)
_cell_angle_gamma                90
_cell_volume                     12323.8
loop_
_atom_site_label
_atom_site_type_symbol
_atom_site_fract_x
_atom_site_fract_y
_atom_site_fract_z
C1 C 0.73881(13) 0.90461(16) 0.28566(18)
C2 C 0.74095(14) 0.83656(17) 0.31958(18)
C3 C 0.74427(16) 0.83571(18) 0.3858(2)
H1 H 0.7444 0.8773 0.4085
C4 C 0.74061(13) 0.77623(15) 0.28619(18)
H2 H 0.7373 0.777 0.2401
C5 C 0.8233(2) 1.0528(3) 0.4609(3)
H3 H 0.838 1.0244 0.4428
C6 C 0.4116(2) 1.2949(3) 0.0301(3)
H4 H 0.4407 1.3135 0.0413
N1 N 0.84538(19) 1.0648(3) 0.5308(2)
N2 N 0.37708(19) 1.2903(3) -0.0400(2)
C7 C 0.8911(3) 1.0359(4) 0.5763(3)
H5 H 0.8891 0.9988 0.6049
H6 H 0.9119 1.0713 0.6081
H7 H 0.9031 1.0181 0.5467
C8 C 0.8237(2) 1.1042(4) 0.5610(3)
H8 H 0.8445 1.1082 0.6127
H9 H 0.795 1.0818 0.5516
H10 H 0.8166 1.1498 0.5396
C9 C 0.3332(2) 1.2618(3) -0.0608(3)
H11 H 0.3137 1.2637 -0.1129
H12 H 0.3185 1.2878 -0.039
H13 H 0.337 1.2142 -0.045
N3 N 0.74919(19) 0.77760(16) 0.4863(2)
C10 C 0.7474(2) 0.77348(18) 0.4191(2)
C11 C 0.3850(3) 1.3156(4) -0.0978(4)
H14 H 0.357 1.3084 -0.1442
H15 H 0.4107 1.2905 -0.0962
H16 H 0.3923 1.3643 -0.0909
C12 C 0.6736(2) 0.9436(3) 0.0312(3)
H17 H 0.6554 0.9263 0.05
N4 N 0.6565(2) 0.9361(3) -0.0394(3)
C13 C 0.6125(3) 0.9028(4) -0.0877(5)
H18 H 0.6073 0.9038 -0.1364
H19 H 0.5874 0.927 -0.0864
H20 H 0.6135 0.8554 -0.0728
C14 C 0.6805(3) 0.9615(6) -0.0703(4)
H21 H 0.6633 0.9519 -0.1216
H22 H 0.7109 0.9397 -0.0487
H23 H 0.6843 1.0109 -0.0626
C15 C 0.74806(18) 0.71278(18) 0.3868(2)
H24 H 0.7504 0.6706 0.4099
C16 C 0.74525(14) 0.71352(17) 0.32113(18)
C17 C 0.74693(12) 0.64770(16) 0.28805(17)
C18 C 0.65910(12) 1.04941(17) 0.20124(18)
C19 C 0.60885(13) 1.06528(18) 0.17049(19)
C20 C 0.57639(14) 1.0329(2) 0.1077(2)
H25 H 0.5858 0.9999 0.0855
C21 C 0.52995(14) 1.0499(2) 0.0785(2)
C22 C 0.51590(14) 1.0983(2) 0.1102(2)
H26 H 0.4841 1.1098 0.0891
C23 C 0.54818(12) 1.12994(17) 0.17251(19)
C24 C 0.59475(12) 1.11226(17) 0.20436(18)
H27 H 0.6167 1.1319 0.2487
C25 C 0.53316(12) 1.18384(17) 0.20563(18)
C26 C 0.82669(12) 0.99591(17) 0.27622(17)
C27 C 0.87620(12) 0.97701(18) 0.31051(18)
C28 C 0.90692(14) 1.0018(2) 0.3792(2)
H28 H 0.8959 1.0321 0.4014
C29 C 0.95295(14) 0.9828(2) 0.4150(2)
C30 C 0.96917(13) 0.9391(2) 0.38201(19)
H29 H 1.0006 0.9253 0.4067
C31 C 0.94005(12) 0.91584(18) 0.31387(18)
C32 C 0.89361(12) 0.93550(17) 0.27781(17)
H30 H 0.8737 0.9203 0.2303
C33 C 0.95813(12) 0.86631(17) 0.28120(16)
N5 N 0.49353(13) 1.0195(2) 0.0144(2)
N6 N 0.98029(12) 1.0102(2) 0.48479(18)
O1 O 0.74289(10) 0.95673(12) 0.32225(14)
O2 O 0.73425(9) 0.90433(11) 0.22461(12)
O3 O 0.73825(9) 0.64908(11) 0.22442(12)
O4 O 0.75836(9) 0.59587(11) 0.32779(12)
O5 O 0.68676(8) 1.07445(12) 0.26237(13)
O6 O 0.66962(8) 1.01337(12) 0.16359(13)
O7 O 0.81408(9) 1.02502(14) 0.31510(12)
O8 O 0.80047(8) 0.97833(12) 0.21148(12)
O9 O 0.70978(10) 0.96997(15) 0.07287(12)
O10 O 0.78311(9) 1.07726(12) 0.41608(11)
O11 O 0.49112(9) 1.19941(13) 0.17070(13)
O12 O 0.56319(8) 1.20955(12) 0.26408(13)
O13 O 0.93178(8) 0.85153(11) 0.21621(12)
O14 O 0.99795(8) 0.84262(12) 0.32134(12)
O15 O 0.40563(9) 1.27514(12) 0.07910(12)
Zn1 Zn 0.754974(12) 1.057017(16) 0.312599(17)
Zn2 Zn 0.731886(13) 0.992792(17) 0.173110(17)
Zn3 Zn 0.454864(12) 1.275273(16) 0.180757(17)
C1E C 0.76119(13) 0.59539(16) 0.71434(18)
C2E C 0.75905(14) 0.66344(17) 0.68042(18)
C3E C 0.75573(16) 0.66429(18) 0.6142(2)
H1E H 0.7556 0.6227 0.5915
C4E C 0.75939(13) 0.72377(15) 0.71381(18)
H2E H 0.7627 0.723 0.7599
C5E C 0.6767(2) 0.4472(3) 0.5391(3)
H3E H 0.662 0.4756 0.5572
C6D C 0.5884(2) 0.7051(3) -0.0301(3)
H4D H 0.5593 0.6865 -0.0413
N1E N 0.65462(19) 0.4352(3) 0.4692(2)
N2D N 0.62292(19) 0.7097(3) 0.0400(2)
C7E C 0.6089(3) 0.4641(4) 0.4237(3)
H5E H 0.6109 0.5012 0.3951
H6E H 0.5881 0.4287 0.3919
H7E H 0.5969 0.4819 0.4533
C8E C 0.6763(2) 0.3958(4) 0.4390(3)
H8E H 0.6555 0.3918 0.3873
H9E H 0.705 0.4182 0.4484
H10E H 0.6834 0.3502 0.4604
C9D C 0.6668(2) 0.7382(3) 0.0608(3)
H11D H 0.6863 0.7363 0.1129
H12D H 0.6815 0.7122 0.039
H13D H 0.663 0.7858 0.045
N3E N 0.75081(19) 0.72240(16) 0.5137(2)
C10E C 0.7526(2) 0.72652(18) 0.5809(2)
C11D C 0.6150(3) 0.6844(4) 0.0978(4)
H14D H 0.643 0.6916 0.1442
H15D H 0.5893 0.7095 0.0962
H16D H 0.6077 0.6357 0.0909
C12E C 0.8264(2) 0.5564(3) 0.9688(3)
H17E H 0.8446 0.5737 0.95
N4E N 0.8435(2) 0.5639(3) 1.0394(3)
C13E C 0.8875(3) 0.5972(4) 1.0877(5)
H18E H 0.8927 0.5962 1.1364
H19E H 0.9126 0.573 1.0864
H20E H 0.8865 0.6446 1.0728
C14E C 0.8195(3) 0.5385(6) 1.0703(4)
H21E H 0.8367 0.5481 1.1216
H22E H 0.7891 0.5603 1.0487
H23E H 0.8157 0.4891 1.0626
C15E C 0.75194(18) 0.78722(18) 0.6132(2)
H24E H 0.7496 0.8294 0.5901
C16E C 0.75475(14) 0.78648(17) 0.67887(18)
C17E C 0.75307(12) 0.85230(16) 0.71195(17)
C18D C 0.34090(12) 0.95059(17) -0.20124(18)
C19D C 0.39115(13) 0.93472(18) -0.17049(19)
C20D C 0.42361(14) 0.9671(2) -0.1077(2)
H25D H 0.4142 1.0001 -0.0855
C21D C 0.47005(14) 0.9501(2) -0.0785(2)
C22D C 0.48410(14) 0.9017(2) -0.1102(2)
H26D H 0.5159 0.8902 -0.0891
C23D C 0.45182(12) 0.87006(17) -0.17251(19)
C24D C 0.40525(12) 0.88774(17) -0.20436(18)
H27D H 0.3833 0.8681 -0.2487
C25D C 0.46684(12) 0.81616(17) -0.20563(18)
C26D C 1.17331(12) 1.00409(17) 0.72378(17)
C27D C 1.12380(12) 1.02299(18) 0.68949(18)
C28D C 1.09308(14) 0.9982(2) 0.6208(2)
H28D H 1.1041 0.9679 0.5986
C29D C 1.04705(14) 1.0172(2) 0.5850(2)
C30D C 1.03083(13) 1.0609(2) 0.61799(19)
H29D H 0.9994 1.0747 0.5933
C31D C 1.05995(12) 1.08416(18) 0.68613(18)
C32D C 1.10639(12) 1.06450(17) 0.72219(17)
H30D H 1.1263 1.0797 0.7697
C33D C 1.04187(12) 1.13369(17) 0.71880(16)
N5D N 0.50647(13) 0.9805(2) -0.0144(2)
N6D N 1.01971(12) 0.9898(2) 0.51521(18)
O1E O 0.75711(10) 0.54327(12) 0.67775(14)
O2E O 0.76575(9) 0.59567(11) 0.77539(12)
O3E O 0.76175(9) 0.85092(11) 0.77558(12)
O3C O 0.76175(9) 1.14908(11) 0.27558(12)
O3F O 0.73825(9) 0.35092(11) 0.72442(12)
O4E O 0.74164(9) 0.90413(11) 0.67221(12)
O4C O 0.74164(9) 1.09587(11) 0.17221(12)
O4F O 0.75836(9) 0.40413(11) 0.82779(12)
O5D O 0.31324(8) 0.92555(12) -0.26237(13)
O5E O 0.81324(8) 0.42555(12) 0.73763(13)
O6D O 0.33038(8) 0.98663(12) -0.16359(13)
O6E O 0.83038(8) 0.48663(12) 0.83641(13)
O7D O 1.18592(9) 0.97498(14) 0.68490(12)
O7E O 0.68592(9) 0.47498(14) 0.68490(12)
O8D O 1.19953(8) 1.02167(12) 0.78852(12)
O8E O 0.69953(8) 0.52167(12) 0.78852(12)
O9E O 0.79022(10) 0.53003(15) 0.92713(12)
O10E O 0.71689(9) 0.42274(12) 0.58392(11)
O11D O 0.50888(9) 0.80059(13) -0.17070(13)
O12D O 0.43681(8) 0.79045(12) -0.26408(13)
O12B O 0.43681(8) 1.20955(12) 0.23592(13)
O12F O 0.56319(8) 0.79045(12) -0.23592(13)
O13D O 1.06822(8) 1.14847(11) 0.78379(12)
O13A O 0.43178(8) 1.35153(11) 0.21621(12)
O13E O 0.56822(8) 0.64847(11) -0.21621(12)
O14D O 1.00205(8) 1.15738(12) 0.67866(12)
O14C O 0.50205(8) 1.34262(12) 0.17866(12)
O14G O 0.49795(8) 0.65738(12) -0.17866(12)
O15D O 0.59437(9) 0.72486(12) -0.07910(12)
Zn1E Zn 0.745026(12) 0.442983(16) 0.687401(17)
Zn1C Zn 0.745026(12) 0.557017(16) 0.187401(17)
Zn1F Zn 0.754974(12) 0.942983(16) 0.812599(17)
Zn1D Zn 0.245026(12) 0.942983(16) -0.312599(17)
Zn1D_2 Zn 1.245026(12) 0.942983(16) 0.687401(17)
Zn2E Zn 0.768114(13) 0.507208(17) 0.826890(17)
Zn2C Zn 0.768114(13) 0.492792(17) 0.326890(17)
Zn2F Zn 0.731886(13) 1.007208(17) 0.673110(17)
Zn2D Zn 0.268114(13) 1.007208(17) -0.173110(17)
Zn2D_2 Zn 1.268114(13) 1.007208(17) 0.826890(17)
Zn3D Zn 0.545136(12) 0.724727(16) -0.180757(17)
Zn3B Zn 0.545136(12) 1.275273(16) 0.319243(17)
Zn3A Zn 0.954864(12) 0.775273(16) 0.180757(17)
Zn3C Zn 1.045136(12) 0.775273(16) 0.319243(17)
Zn3F Zn 0.454864(12) 0.724727(16) -0.319243(17)
Zn3E Zn 1.045136(12) 1.224727(16) 0.819243(17)
Zn3G Zn 0.954864(12) 1.224727(16) 0.680757(17)
loop_
_geom_bond_atom_site_label_1
_geom_bond_atom_site_label_2
_geom_bond_site_symmetry_1
_geom_bond_site_symmetry_2
C1 C2 1_555 1_555
C2 C3 1_555 1_555
C3 H1 1_555 1_555
C4 C2 1_555 1_555
H2 C4 1_555 1_555
C5 H3 1_555 1_555
C6 H4 1_555 1_555
N1 C5 1_555 1_555
N2 C6 1_555 1_555
C7 N1 1_555 1_555
H5 C7 1_555 1_555
H6 C7 1_555 1_555
H7 C7 1_555 1_555
C8 N1 1_555 1_555
H8 C8 1_555 1_555
H9 C8 1_555 1_555
H10 C8 1_555 1_555
C9 N2 1_555 1_555
H11 C9 1_555 1_555
H12 C9 1_555 1_555
H13 C9 1_555 1_555
N3 C10 1_555 1_555
C10 C3 1_555 1_555
C11 N2 1_555 1_555
H14 C11 1_555 1_555
H15 C11 1_555 1_555
H16 C11 1_555 1_555
C12 H17 1_555 1_555
N4 C12 1_555 1_555
C13 N4 1_555 1_555
H18 C13 1_555 1_555
H19 C13 1_555 1_555
H20 C13 1_555 1_555
C14 N4 1_555 1_555
H21 C14 1_555 1_555
H22 C14 1_555 1_555
H23 C14 1_555 1_555
C15 C10 1_555 1_555
H24 C15 1_555 1_555
C16 C4 1_555 1_555
C17 C16 1_555 1_555
C18 C19 1_555 1_555
C19 C20 1_555 1_555
C20 H25 1_555 1_555
C21 C20 1_555 1_555
C22 C21 1_555 1_555
H26 C22 1_555 1_555
C23 C22 1_555 1_555
C24 C19 1_555 1_555
H27 C24 1_555 1_555
C25 C23 1_555 1_555
C26 C27 1_555 1_555
C27 C28 1_555 1_555
C28 H28 1_555 1_555
C29 C28 1_555 1_555
C30 C29 1_555 1_555
H29 C30 1_555 1_555
C31 C30 1_555 1_555
C32 C27 1_555 1_555
H30 C32 1_555 1_555
C33 C31 1_555 1_555
N5 C21 1_555 1_555
N6 C29 1_555 1_555
O1 C1 1_555 1_555
O2 C1 1_555 1_555
O3 C17 1_555 1_555
O4 C17 1_555 1_555
O5 C18 1_555 1_555
O6 C18 1_555 1_555
O7 C26 1_555 1_555
O8 C26 1_555 1_555
O9 C12 1_555 1_555
O10 C5 1_555 1_555
O11 C25 1_555 1_555
O12 C25 1_555 1_555
O13 C33 1_555 1_555
O14 C33 1_555 1_555
O15 C6 1_555 1_555
Zn1 O1 1_555 1_555
Zn2 O2 1_555 1_555
Zn3 O11 1_555 1_555
C1E C2E 1_555 1_555
C2E C3E 1_555 1_555
C3E H1E 1_555 1_555
C4E C2E 1_555 1_555
H2E C4E 1_555 1_555
C5E H3E 1_555 1_555
C6D H4D 1_555 1_555
N1E C5E 1_555 1_555
N2D C6D 1_555 1_555
C7E N1E 1_555 1_555
H5E C7E 1_555 1_555
H6E C7E 1_555 1_555
H7E C7E 1_555 1_555
C8E N1E 1_555 1_555
H8E C8E 1_555 1_555
H9E C8E 1_555 1_555
H10E C8E 1_555 1_555
C9D N2D 1_555 1_555
H11D C9D 1_555 1_555
H12D C9D 1_555 1_555
H13D C9D 1_555 1_555
N3E N3 1_555 1_555
C10E C3E 1_555 1_555
C11D N2D 1_555 1_555
H14D C11D 1_555 1_555
H15D C11D 1_555 1_555
H16D C11D 1_555 1_555
C12E H17E 1_555 1_555
N4E C12E 1_555 1_555
C13E N4E 1_555 1_555
H18E C13E 1_555 1_555
H19E C13E 1_555 1_555
H20E C13E 1_555 1_555
C14E N4E 1_555 1_555
H21E C14E 1_555 1_555
H22E C14E 1_555 1_555
H23E C14E 1_555 1_555
C15E C10E 1_555 1_555
H24E C15E 1_555 1_555
C16E C4E 1_555 1_555
C17E C16E 1_555 1_555
C18D C19D 1_555 1_555
C19D C20D 1_555 1_555
C20D H25D 1_555 1_555
C21D C20D 1_555 1_555
C22D C21D 1_555 1_555
H26D C22D 1_555 1_555
C23D C22D 1_555 1_555
C24D C19D 1_555 1_555
H27D C24D 1_555 1_555
C25D C23D 1_555 1_555
C26D C27D 1_555 1_555
C27D C28D 1_555 1_555
C28D H28D 1_555 1_555
C29D C28D 1_555 1_555
C30D C29D 1_555 1_555
H29D C30D 1_555 1_555
C31D C30D 1_555 1_555
C32D C27D 1_555 1_555
H30D C32D 1_555 1_555
C33D C31D 1_555 1_555
N5D N5 1_555 1_555
N6D N6 1_555 1_555
O1E C1E 1_555 1_555
O2E C1E 1_555 1_555
O3E C17E 1_555 1_555
O3C Zn1 1_555 1_555
O3F Zn1E 1_555 1_555
O4E C17E 1_555 1_555
O4C Zn2 1_555 1_555
O4F Zn2E 1_555 1_555
O5D C18D 1_555 1_555
O5E Zn1E 1_555 1_555
O6D C18D 1_555 1_555
O6E Zn2E 1_555 1_555
O7D C26D 1_555 1_555
O7E Zn1E 1_555 1_555
O8D C26D 1_555 1_555
O8E Zn2E 1_555 1_555
O9E C12E 1_555 1_555
O10E C5E 1_555 1_555
O11D C25D 1_555 1_555
O12D C25D 1_555 1_555
O12B Zn3 1_555 1_555
O12F Zn3D 1_555 1_555
O13D C33D 1_555 1_555
O13A Zn3 1_555 1_555
O13E Zn3D 1_555 1_555
O14D C33D 1_555 1_555
O14C Zn3 1_555 1_555
O14G Zn3D 1_555 1_555
O15D C6D 1_555 1_555
Zn1E O1E 1_555 1_555
Zn1C O3 1_555 1_555
Zn1F O3E 1_555 1_555
Zn1D O5D 1_555 1_555
Zn1D_2 O7D 1_555 1_555
Zn2E O2E 1_555 1_555
Zn2C O4 1_555 1_555
Zn2F O4E 1_555 1_555
Zn2D O6D 1_555 1_555
Zn2D_2 O8D 1_555 1_555
Zn3D O11D 1_555 1_555
Zn3B O12 1_555 1_555
Zn3A O13 1_555 1_555
Zn3C O14 1_555 1_555
Zn3F O12D 1_555 1_555
Zn3E O13D 1_555 1_555
Zn3G O14D 1_555 1_555
C15 C16 1_555 1_555
C23 C24 1_555 1_555
C31 C32 1_555 1_555
O5 Zn1 1_555 1_555
O6 Zn2 1_555 1_555
O7 Zn1 1_555 1_555
O8 Zn2 1_555 1_555
O9 Zn2 1_555 1_555
O10 Zn1 1_555 1_555
O15 Zn3 1_555 1_555
Zn1 Zn2 1_555 1_555
Zn3 Zn3B 1_555 1_555
N3E C10E 1_555 1_555
C15E C16E 1_555 1_555
C21D N5D 1_555 1_555
C23D C24D 1_555 1_555
C29D N6D 1_555 1_555
C31D C32D 1_555 1_555
O9E Zn2E 1_555 1_555
O10E Zn1E 1_555 1_555
O15D Zn3D 1_555 1_555
Zn1E Zn2E 1_555 1_555
Zn1C Zn2C 1_555 1_555
Zn1F Zn2F 1_555 1_555
Zn1D Zn2D 1_555 1_555
Zn1D_2 Zn2D_2 1_555 1_555
Zn3D Zn3F 1_555 1_555
Zn3A Zn3C 1_555 1_555
Zn3E Zn3G 1_555 1_555

#END
