
#######################################################################
#
#                 Cambridge Crystallographic Data Centre
#                                CCDC 
#
#######################################################################
#
# If this CIF has been generated from an entry in the Cambridge 
# Structural Database, then it will include bibliographic, chemical, 
# crystal, experimental, refinement or atomic coordinate data resulting 
# from the CCDC's data processing and validation procedures.
#
#######################################################################

data_HAWZIQ
_chemical_formula_moiety         '(C18 H54 Cl1 La2 Mo3 N3 O36 S4)n'
_symmetry_cell_setting           triclinic
_symmetry_space_group_name_H-M   'P -1'
_symmetry_Int_Tables_number      2
_space_group_name_Hall           '-P 1'
loop_
_symmetry_equiv_pos_site_id
_symmetry_equiv_pos_as_xyz
1 x,y,z
2 -x,-y,-z
_cell_length_a                   11.2219(3)
_cell_length_b                   13.2435(3)
_cell_length_c                   17.6351(5)
_cell_angle_alpha                82.3650(10)
_cell_angle_beta                 72.7870(10)
_cell_angle_gamma                68.6080(10)
_cell_volume                     2330.1
loop_
_atom_site_label
_atom_site_type_symbol
_atom_site_fract_x
_atom_site_fract_y
_atom_site_fract_z
La1 La 1.043670(16) 0.127059(14) 0.365208(10)
La2 La 1.393300(18) -0.322350(15) 0.010420(11)
Mo1 Mo 0.34530(2) 0.275670(19) 0.623440(14)
Mo2 Mo 0.82546(2) -0.201990(19) 0.255160(14)
Mo3 Mo 0.81114(2) 0.595916(19) 0.248469(14)
S1 S 0.11218(7) 0.35051(6) 0.65908(4)
S2 S 0.39411(7) 0.11155(6) 0.68994(4)
S3 S 0.41256(7) 0.36252(6) 0.69790(4)
S4 S 0.79660(7) -0.26961(6) 0.15095(4)
O1 O 0.3354(2) 0.20030(19) 0.52580(13)
O2 O 0.3428(2) 0.39727(18) 0.53135(13)
O3 O 0.4499(3) 0.1194(3) 0.41069(17)
O4 O 0.4612(3) 0.4477(3) 0.41732(17)
O5 O 0.8438(2) 0.1717(2) 0.47788(13)
O6 O 0.8870(2) 0.0593(2) 0.57910(15)
N1 N 0.5624(2) 0.2196(2) 0.54662(14)
C1 C 0.5739(3) 0.1360(3) 0.49306(19)
H1 H 0.6427 0.1374 0.4429
H2 H 0.6033 0.0634 0.5187
C2 C 0.4444(3) 0.1537(3) 0.47398(19)
C3 C 0.5802(3) 0.3175(3) 0.49872(19)
H3 H 0.6104 0.3574 0.5285
H4 H 0.6502 0.2941 0.4485
C4 C 0.4534(3) 0.3928(3) 0.47966(19)
C5 C 0.6637(3) 0.1717(2) 0.59282(17)
H5 H 0.6527 0.2272 0.6292
H6 H 0.6438 0.1105 0.6261
C6 C 0.8097(3) 0.1306(2) 0.54467(18)
O7 O 1.0326(2) -0.24111(18) 0.19150(14)
O8 O 0.8894(2) -0.12171(18) 0.32276(14)
O9 O 1.1776(3) -0.1987(2) 0.08773(16)
O10 O 0.8885(2) 0.0346(2) 0.35440(15)
O11 O 0.8098(6) 0.1499(3) 0.0857(2)
O12 O 0.6271(3) 0.1517(4) 0.0652(3)
N2 N 0.8331(3) -0.0445(2) 0.18174(16)
C7 C 0.9628(4) -0.0710(4) 0.1215(3)
H7 H 0.9991 -0.0127 0.1200
H8 H 0.9478 -0.0707 0.0688
C8 C 1.0655(3) -0.1778(3) 0.13397(19)
C9 C 0.8200(6) 0.0339(3) 0.2396(3)
H9 H 0.7251 0.0788 0.2590
H10 H 0.8692 0.0829 0.2121
C10 C 0.8716(3) -0.0208(3) 0.30960(19)
C11 C 0.7256(4) 0.0047(3) 0.1414(2)
H11 H 0.6395 0.0186 0.1822
H12 H 0.7323 -0.0493 0.1052
C12 C 0.7228(5) 0.1105(3) 0.0934(2)
O13 O 0.8515(2) 0.44112(18) 0.30773(13)
O14 O 1.0150(2) 0.51643(18) 0.19042(13)
O15 O 0.8539(2) 0.27115(19) 0.31290(15)
O16 O 1.1576(2) 0.4377(2) 0.08019(14)
O17 O 0.5875(2) 0.5151(2) 0.03062(14)
O18 O 0.7626(2) 0.37699(19) 0.04636(15)
N3 N 0.8020(3) 0.4849(2) 0.16178(15)
C13 C 0.7786(4) 0.3887(3) 0.20970(19)
H13 H 0.8203 0.3248 0.1754
H14 H 0.6819 0.4023 0.2277
C14 C 0.8335(3) 0.3629(2) 0.28152(19)
C15 C 0.9331(3) 0.4539(3) 0.10050(19)
H15 H 0.9223 0.4981 0.0515
H16 H 0.9595 0.3769 0.0876
C16 C 1.0443(3) 0.4684(2) 0.12525(18)
C17 C 0.6936(3) 0.5385(3) 0.12169(18)
H17 H 0.7060 0.6056 0.0941
H18 H 0.6077 0.5604 0.1630
C18 C 0.6842(3) 0.4709(3) 0.06206(19)
O19 O 1.1182(3) 0.2093(3) 0.22359(16)
O20 O 1.0019(8) 0.3272(5) 0.4008(6)
O21 O 1.1238(3) 0.1225(3) 0.49329(16)
O22 O 1.2877(3) 0.0983(3) 0.33314(17)
O23 O 1.1559(3) -0.0207(2) 0.25388(16)
O24 O 1.4136(3) -0.2821(3) 0.14208(17)
O25 O 1.2728(2) -0.4304(2) 0.12597(15)
O26 O 1.5162(3) -0.3682(3) -0.14068(18)
O27 O 1.6059(2) -0.2746(2) -0.01678(17)
La1A La 0.956330(16) -0.127059(14) 0.634792(10)
La2A La 0.606700(18) 0.322350(15) -0.010420(11)
La2_2 La 0.393300(18) 0.677650(15) 0.010420(11)
Mo1A Mo 0.65470(2) -0.275670(19) 0.376560(14)
Mo1A_2 Mo 0.65470(2) 0.724330(19) 0.376560(14)
Mo2A Mo 0.17454(2) 0.201990(19) 0.744840(14)
Mo2_2 Mo 0.82546(2) 0.798010(19) 0.255160(14)
Mo3A Mo 0.18886(2) 0.404084(19) 0.751531(14)
Mo3_2 Mo 0.81114(2) -0.404084(19) 0.248469(14)
S1A S 0.88782(7) -0.35051(6) 0.34092(4)
S1A_2 S 0.88782(7) 0.64949(6) 0.34092(4)
S2A S 0.60589(7) -0.11155(6) 0.31006(4)
S3A S 0.58744(7) 0.63748(6) 0.30210(4)
S4_2 S 0.79660(7) 0.73039(6) 0.15095(4)
O6A O 1.1130(2) -0.0593(2) 0.42090(15)
O12A O 1.3729(3) -0.1517(4) -0.0652(3)
O17_2 O 1.5875(2) -0.4849(2) 0.03062(14)
O17A O 1.4125(2) -0.5151(2) -0.03062(14)
O18A O 1.2374(2) -0.37699(19) -0.04636(15)
Cl1 Cl 0.44567(11) 0.93604(9) 0.14579(8)
O28 O 0.2101(3) 0.7467(3) 0.28211(19)
O29 O 0.0483(3) 0.1791(3) 0.09176(19)
O30 O 0.3800(3) 0.1849(3) 0.1899(2)
O31 O 1.2142(3) 0.4052(3) 0.2732(2)
O32 O 0.6741(3) 0.9061(3) -0.0177(2)
O33 O 0.5320(5) 0.2842(5) 0.2865(2)
O34 O 0.7433(4) 0.4467(4) 0.6486(3)
O35 O 0.9058(5) 0.4573(4) 0.5000(3)
O37 O 0.825(2) 0.6031(15) 0.5701(12)
loop_
_geom_bond_atom_site_label_1
_geom_bond_atom_site_label_2
_geom_bond_site_symmetry_1
_geom_bond_site_symmetry_2
La1 O5 1_555 1_555
La2 O9 1_555 1_555
Mo1 S1 1_555 1_555
Mo2 S4 1_555 1_555
Mo3 O13 1_555 1_555
S1 Mo2A 1_555 1_555
S2 Mo1 1_555 1_555
S3 Mo1 1_555 1_555
S4 Mo3_2 1_555 1_555
O1 Mo1 1_555 1_555
O2 Mo1 1_555 1_555
O3 C2 1_555 1_555
O4 C4 1_555 1_555
O5 C6 1_555 1_555
O6 C6 1_555 1_555
N1 Mo1 1_555 1_555
C1 N1 1_555 1_555
H1 C1 1_555 1_555
H2 C1 1_555 1_555
C2 O1 1_555 1_555
C3 N1 1_555 1_555
H3 C3 1_555 1_555
H4 C3 1_555 1_555
C4 O2 1_555 1_555
C5 N1 1_555 1_555
H5 C5 1_555 1_555
H6 C5 1_555 1_555
C6 C5 1_555 1_555
O7 Mo2 1_555 1_555
O8 Mo2 1_555 1_555
O9 C8 1_555 1_555
O10 La1 1_555 1_555
O11 C12 1_555 1_555
O12 C12 1_555 1_555
N2 Mo2 1_555 1_555
C7 N2 1_555 1_555
H7 C7 1_555 1_555
H8 C7 1_555 1_555
C8 O7 1_555 1_555
C9 N2 1_555 1_555
H9 C9 1_555 1_555
H10 C9 1_555 1_555
C10 O8 1_555 1_555
C11 N2 1_555 1_555
H11 C11 1_555 1_555
H12 C11 1_555 1_555
C12 C11 1_555 1_555
O13 C14 1_555 1_555
O14 Mo3 1_555 1_555
O15 La1 1_555 1_555
O16 C16 1_555 1_555
O17 C18 1_555 1_555
O18 C18 1_555 1_555
N3 Mo3 1_555 1_555
C13 N3 1_555 1_555
H13 C13 1_555 1_555
H14 C13 1_555 1_555
C14 O15 1_555 1_555
C15 N3 1_555 1_555
H15 C15 1_555 1_555
H16 C15 1_555 1_555
C16 O14 1_555 1_555
C17 N3 1_555 1_555
H17 C17 1_555 1_555
H18 C17 1_555 1_555
C18 C17 1_555 1_555
O19 La1 1_555 1_555
O20 La1 1_555 1_555
O21 La1 1_555 1_555
O22 La1 1_555 1_555
O23 La1 1_555 1_555
O24 La2 1_555 1_555
O25 La2 1_555 1_555
O26 La2 1_555 1_555
O27 La2 1_555 1_555
La1A O6 1_555 1_555
La2A O12 1_555 1_555
La2_2 O17 1_555 1_555
Mo1A Mo2 1_555 1_555
Mo1A_2 Mo3 1_555 1_555
Mo2A Mo1 1_555 1_555
Mo2_2 Mo3 1_555 1_555
Mo3A Mo1 1_555 1_555
Mo3_2 Mo2 1_555 1_555
S1A Mo2 1_555 1_555
S1A_2 Mo3 1_555 1_555
S2A Mo2 1_555 1_555
S3A Mo3 1_555 1_555
S4_2 Mo3 1_555 1_555
O6A La1 1_555 1_555
O12A La2 1_555 1_555
O17_2 La2 1_555 1_555
O17A La2 1_555 1_555
O18A La2 1_555 1_555
S1 Mo3A 1_555 1_555
S2 Mo2A 1_555 1_555
S3 Mo3A 1_555 1_555
C1 C2 1_555 1_555
C3 C4 1_555 1_555
O10 C10 1_555 1_555
C7 C8 1_555 1_555
C9 C10 1_555 1_555
O17 La2A 1_555 1_555
O18 La2A 1_555 1_555
C13 C14 1_555 1_555
C15 C16 1_555 1_555
Mo1A Mo3_2 1_555 1_555
Mo1A S1A 1_555 1_555
Mo1A S2A 1_555 1_555
Mo1A_2 Mo2_2 1_555 1_555
Mo1A_2 S1A_2 1_555 1_555
Mo1A_2 S3A 1_555 1_555
Mo2A Mo3A 1_555 1_555
Mo2_2 S1A_2 1_555 1_555
Mo2_2 S4_2 1_555 1_555
Mo3_2 S1A 1_555 1_555

#END
