
#######################################################################
#
#                 Cambridge Crystallographic Data Centre
#                                CCDC 
#
#######################################################################
#
# If this CIF has been generated from an entry in the Cambridge 
# Structural Database, then it will include bibliographic, chemical, 
# crystal, experimental, refinement or atomic coordinate data resulting 
# from the CCDC's data processing and validation procedures.
#
#######################################################################

data_BICPUA
_chemical_formula_moiety         '(C66 H42 O16 Yb3)n'
_symmetry_cell_setting           hexagonal
_symmetry_space_group_name_H-M   'P -6 2 c'
_symmetry_Int_Tables_number      190
_space_group_name_Hall           'P -6c -2c'
loop_
_symmetry_equiv_pos_site_id
_symmetry_equiv_pos_as_xyz
1 x,y,z
2 -x+y,-x,1/2-z
3 -y,x-y,z
4 x,y,1/2-z
5 -x+y,-x,z
6 -y,x-y,1/2-z
7 y,x,1/2+z
8 x-y,-y,-z
9 -x,-x+y,1/2+z
10 y,x,-z
11 x-y,-y,1/2+z
12 -x,-x+y,-z
_cell_length_a                   19.8480(2)
_cell_length_b                   19.8480(2)
_cell_length_c                   27.8530(5)
_cell_angle_alpha                90
_cell_angle_beta                 90
_cell_angle_gamma                120
_cell_volume                     9502.46
loop_
_atom_site_label
_atom_site_type_symbol
_atom_site_fract_x
_atom_site_fract_y
_atom_site_fract_z
Yb1 Yb 0.41967(3) 0.63427(3) 0.2500
O1 O 0.3562(6) 0.5426(6) 0.1951(3)
O2 O 0.2311(6) 0.5098(5) 0.1946(3)
O3 O 0.3333 0.6667 0.2500
O4 O 0.5138(10) 0.6022(12) 0.2500
C1 C 0.2885(10) 0.5028(8) 0.1805(4)
C2 C 0.2726(7) 0.4434(6) 0.1415(3)
C3 C 0.1996(8) 0.3986(8) 0.1226(5)
H1 H 0.1592 0.4055 0.1336
C4 C 0.1847(7) 0.3441(7) 0.0879(4)
H2 H 0.1345 0.3139 0.0760
C5 C 0.2432(6) 0.3340(6) 0.0709(4)
C6 C 0.3169(7) 0.3792(7) 0.0892(5)
H3 H 0.3576 0.3730 0.0779
C7 C 0.3307(7) 0.4340(7) 0.1244(4)
H4 H 0.3808 0.4647 0.1363
C8 C 0.2848(6) 0.2848(6) 0.0000
H5 H 0.3316 0.3316 0.0000
C9 C 0.2284(6) 0.2727(6) 0.0342(3)
C10 C 0.1589(5) 0.2035(5) 0.0331(3)
H6 H 0.1201 0.1953 0.0550
C11 C 0.1455(6) 0.1455(6) 0.0000
C12 C 0.0699(6) 0.0699(6) 0.0000
C13 C 0.0000 0.0699(6) 0.0000
H7 H 0.0000 0.1168 0.0000
O1B O -0.5426(6) -0.1864(8) 0.1951(3)
O2B O -0.5098(5) -0.2787(8) 0.1946(3)
C1B C -0.5028(8) -0.2143(13) 0.1805(4)
C2B C -0.4434(6) -0.1708(9) 0.1415(3)
C3B C -0.3986(8) -0.1990(11) 0.1226(5)
H1B H -0.4055 -0.2463 0.1336
C4B C -0.3441(7) -0.1594(10) 0.0879(4)
H2B H -0.3139 -0.1794 0.0760
C5B C -0.3340(6) -0.0908(8) 0.0709(4)
C6B C -0.3792(7) -0.0623(10) 0.0892(5)
H3B H -0.3730 -0.0154 0.0779
C7B C -0.4340(7) -0.1033(10) 0.1244(4)
H4B H -0.4647 -0.0839 0.1363
C8B C -0.2848(6) 0.0000(8) 0.0000
H5B H -0.3316 0.0000 0.0000
C9B C -0.2727(6) -0.0443(8) 0.0342(3)
C10B C -0.2035(5) -0.0446(7) 0.0331(3)
H6B H -0.1953 -0.0752 0.0550
C11B C -0.1455(6) 0.0000(8) 0.0000
C12B C -0.0699(6) 0.0000(8) 0.0000
C13B C -0.0699(6) -0.0699(6) 0.0000
H7B H -0.1168 -0.1168 0.0000
O1D O 0.1864(8) -0.3562(6) 0.1951(3)
O2D O 0.2787(8) -0.2311(6) 0.1946(3)
C1D C 0.2143(13) -0.2885(10) 0.1805(4)
C2D C 0.1708(9) -0.2726(7) 0.1415(3)
C3D C 0.1990(11) -0.1996(8) 0.1226(5)
H1D H 0.2463 -0.1592 0.1336
C4D C 0.1594(10) -0.1847(7) 0.0879(4)
H2D H 0.1794 -0.1345 0.0760
C5D C 0.0908(8) -0.2432(6) 0.0709(4)
C6D C 0.0623(10) -0.3169(7) 0.0892(5)
H3D H 0.0154 -0.3576 0.0779
C7D C 0.1033(10) -0.3307(7) 0.1244(4)
H4D H 0.0839 -0.3808 0.1363
C8D C 0.0000(8) -0.2848(6) 0.0000
H5D H 0.0000 -0.3316 0.0000
C9D C 0.0443(8) -0.2284(6) 0.0342(3)
C10D C 0.0446(7) -0.1589(5) 0.0331(3)
H6D H 0.0752 -0.1201 0.0550
C11D C 0.0000(8) -0.1455(6) 0.0000
C12D C -0.0000(8) -0.0699(6) 0.0000
C13D C 0.0699(6) 0.0000 0.0000
H7D H 0.1168 0.0000 0.0000
O1I O 0.5426(6) 0.3562(6) -0.1951(3)
O2I O 0.5098(5) 0.2311(6) -0.1946(3)
C1I C 0.5028(8) 0.2885(10) -0.1805(4)
C2I C 0.4434(6) 0.2726(7) -0.1415(3)
C3I C 0.3986(8) 0.1996(8) -0.1226(5)
H1I H 0.4055 0.1592 -0.1336
C4I C 0.3441(7) 0.1847(7) -0.0879(4)
H2I H 0.3139 0.1345 -0.0760
C5I C 0.3340(6) 0.2432(6) -0.0709(4)
C6I C 0.3792(7) 0.3169(7) -0.0892(5)
H3I H 0.3730 0.3576 -0.0779
C7I C 0.4340(7) 0.3307(7) -0.1244(4)
H4I H 0.4647 0.3808 -0.1363
C9I C 0.2727(6) 0.2284(6) -0.0342(3)
C10I C 0.2035(5) 0.1589(5) -0.0331(3)
H6I H 0.1953 0.1201 -0.0550
O1K O -0.3562(6) 0.1864(8) -0.1951(3)
O2K O -0.2311(6) 0.2787(8) -0.1946(3)
C1K C -0.2885(10) 0.2143(13) -0.1805(4)
C2K C -0.2726(7) 0.1708(9) -0.1415(3)
C3K C -0.1996(8) 0.1990(11) -0.1226(5)
H1K H -0.1592 0.2463 -0.1336
C4K C -0.1847(7) 0.1594(10) -0.0879(4)
H2K H -0.1345 0.1794 -0.0760
C5K C -0.2432(6) 0.0908(8) -0.0709(4)
C6K C -0.3169(7) 0.0623(10) -0.0892(5)
H3K H -0.3576 0.0154 -0.0779
C7K C -0.3307(7) 0.1033(10) -0.1244(4)
H4K H -0.3808 0.0839 -0.1363
C9K C -0.2284(6) 0.0443(8) -0.0342(3)
C10K C -0.1589(5) 0.0446(7) -0.0331(3)
H6K H -0.1201 0.0752 -0.0550
O1G O -0.1864(8) -0.5426(6) -0.1951(3)
O2G O -0.2787(8) -0.5098(5) -0.1946(3)
C1G C -0.2143(13) -0.5028(8) -0.1805(4)
C2G C -0.1708(9) -0.4434(6) -0.1415(3)
C3G C -0.1990(11) -0.3986(8) -0.1226(5)
H1G H -0.2463 -0.4055 -0.1336
C4G C -0.1594(10) -0.3441(7) -0.0879(4)
H2G H -0.1794 -0.3139 -0.0760
C5G C -0.0908(8) -0.3340(6) -0.0709(4)
C6G C -0.0623(10) -0.3792(7) -0.0892(5)
H3G H -0.0154 -0.3730 -0.0779
C7G C -0.1033(10) -0.4340(7) -0.1244(4)
H4G H -0.0839 -0.4647 -0.1363
C9G C -0.0443(8) -0.2727(6) -0.0342(3)
C10G C -0.0446(7) -0.2035(5) -0.0331(3)
H6G H -0.0752 -0.1953 -0.0550
Yb1A Yb 0.21460(4) -0.41967(3) 0.2500
O4A O 0.0884(16) -0.5138(10) 0.2500
Yb1A_2 Yb 0.21460(4) 0.58033(3) 0.2500
O4A_2 O 0.0884(16) 0.4862(10) 0.2500
Yb1_2 Yb -0.58033(3) -0.36573(3) 0.2500
Yb1B Yb -0.63427(3) -0.21460(4) 0.2500
Yb1B_2 Yb 0.36573(3) -0.21460(4) 0.2500
Yb1B_3 Yb 0.36573(3) 0.78540(4) 0.2500
Yb1F Yb -0.36573(3) -0.58033(3) -0.2500
Yb1F_2 Yb 0.63427(3) 0.41967(3) -0.2500
Yb1G Yb -0.21460(4) -0.63427(3) -0.2500
Yb1G_2 Yb -0.21460(4) 0.36573(3) -0.2500
Yb1H Yb -0.41967(3) 0.21460(4) -0.2500
Yb1H_2 Yb 0.58033(3) 0.21460(4) -0.2500
O1A O 0.1864(8) -0.3562(6) 0.3049(3)
O1A_2 O 0.1864(8) 0.6438(6) 0.3049(3)
O1C O 0.3562(6) 0.5426(6) 0.3049(3)
O1D_2 O 0.1864(8) 0.6438(6) 0.1951(3)
O2_2 O 0.2311(6) -0.4902(5) 0.1946(3)
O2B_2 O 0.4902(5) 0.7213(8) 0.1946(3)
O2C O 0.2311(6) -0.4902(5) 0.3054(3)
O2C_2 O 0.2311(6) 0.5098(5) 0.3054(3)
O2E O 0.4902(5) 0.7213(8) 0.3054(3)
O3_2 O 0.3333 -0.3333 0.2500
loop_
_geom_bond_atom_site_label_1
_geom_bond_atom_site_label_2
_geom_bond_site_symmetry_1
_geom_bond_site_symmetry_2
Yb1 O1 1_555 1_555
O1 C1 1_555 1_555
O2 C1 1_555 1_555
O3 Yb1 1_555 1_555
O4 Yb1 1_555 1_555
C1 C2 1_555 1_555
C2 C3 1_555 1_555
C3 H1 1_555 1_555
C4 C3 1_555 1_555
H2 C4 1_555 1_555
C5 C4 1_555 1_555
C6 C5 1_555 1_555
H3 C6 1_555 1_555
C7 C2 1_555 1_555
H4 C7 1_555 1_555
C8 H5 1_555 1_555
C9 C5 1_555 1_555
C10 C9 1_555 1_555
H6 C10 1_555 1_555
C11 C10 1_555 1_555
C12 C11 1_555 1_555
C13 C12 1_555 1_555
H7 C13 1_555 1_555
O1B C1B 1_555 1_555
O2B C1B 1_555 1_555
C1B C2B 1_555 1_555
C2B C3B 1_555 1_555
C3B H1B 1_555 1_555
C4B C3B 1_555 1_555
H2B C4B 1_555 1_555
C5B C4B 1_555 1_555
C6B C5B 1_555 1_555
H3B C6B 1_555 1_555
C7B C2B 1_555 1_555
H4B C7B 1_555 1_555
C8B H5B 1_555 1_555
C9B C5B 1_555 1_555
C10B C9B 1_555 1_555
H6B C10B 1_555 1_555
C11B C10B 1_555 1_555
C12B C13 1_555 1_555
C13B C12B 1_555 1_555
H7B C13B 1_555 1_555
O1D C1D 1_555 1_555
O2D C1D 1_555 1_555
C1D C2D 1_555 1_555
C2D C3D 1_555 1_555
C3D H1D 1_555 1_555
C4D C3D 1_555 1_555
H2D C4D 1_555 1_555
C5D C4D 1_555 1_555
C6D C5D 1_555 1_555
H3D C6D 1_555 1_555
C7D C2D 1_555 1_555
H4D C7D 1_555 1_555
C8D H5D 1_555 1_555
C9D C5D 1_555 1_555
C10D C9D 1_555 1_555
H6D C10D 1_555 1_555
C11D C10D 1_555 1_555
C12D C13B 1_555 1_555
C13D C12 1_555 1_555
H7D C13D 1_555 1_555
O1I C1I 1_555 1_555
O2I C1I 1_555 1_555
C1I C2I 1_555 1_555
C2I C3I 1_555 1_555
C3I H1I 1_555 1_555
C4I C3I 1_555 1_555
H2I C4I 1_555 1_555
C5I C4I 1_555 1_555
C6I C5I 1_555 1_555
H3I C6I 1_555 1_555
C7I C2I 1_555 1_555
H4I C7I 1_555 1_555
C9I C8 1_555 1_555
C10I C11 1_555 1_555
H6I C10I 1_555 1_555
O1K C1K 1_555 1_555
O2K C1K 1_555 1_555
C1K C2K 1_555 1_555
C2K C3K 1_555 1_555
C3K H1K 1_555 1_555
C4K C3K 1_555 1_555
H2K C4K 1_555 1_555
C5K C4K 1_555 1_555
C6K C5K 1_555 1_555
H3K C6K 1_555 1_555
C7K C2K 1_555 1_555
H4K C7K 1_555 1_555
C9K C8B 1_555 1_555
C10K C11B 1_555 1_555
H6K C10K 1_555 1_555
O1G C1G 1_555 1_555
O2G C1G 1_555 1_555
C1G C2G 1_555 1_555
C2G C3G 1_555 1_555
C3G H1G 1_555 1_555
C4G C3G 1_555 1_555
H2G C4G 1_555 1_555
C5G C4G 1_555 1_555
C6G C5G 1_555 1_555
H3G C6G 1_555 1_555
C7G C2G 1_555 1_555
H4G C7G 1_555 1_555
C9G C8D 1_555 1_555
C10G C11D 1_555 1_555
H6G C10G 1_555 1_555
Yb1A O1D 1_555 1_555
O4A Yb1A 1_555 1_555
Yb1A_2 O2 1_555 1_555
O4A_2 Yb1A_2 1_555 1_555
Yb1_2 O2B 1_555 1_555
Yb1B O1B 1_555 1_555
Yb1B_2 O2D 1_555 1_555
Yb1B_3 O3 1_555 1_555
Yb1F O2G 1_555 1_555
Yb1F_2 O1I 1_555 1_555
Yb1G O1G 1_555 1_555
Yb1G_2 O2K 1_555 1_555
Yb1H O1K 1_555 1_555
Yb1H_2 O2I 1_555 1_555
O1A Yb1A 1_555 1_555
O1A_2 Yb1A_2 1_555 1_555
O1C Yb1 1_555 1_555
O1D_2 Yb1A_2 1_555 1_555
O2_2 Yb1A 1_555 1_555
O2B_2 Yb1 1_555 1_555
O2C Yb1A 1_555 1_555
O2C_2 Yb1A_2 1_555 1_555
O2E Yb1 1_555 1_555
O3_2 Yb1A 1_555 1_555
O3 Yb1A_2 1_555 1_555
C6 C7 1_555 1_555
C8 C9 1_555 1_555
C6B C7B 1_555 1_555
C8B C9B 1_555 1_555
C11B C12B 1_555 1_555
C6D C7D 1_555 1_555
C8D C9D 1_555 1_555
C11D C12D 1_555 1_555
C12D C13D 1_555 1_555
C5I C9I 1_555 1_555
C6I C7I 1_555 1_555
C9I C10I 1_555 1_555
C5K C9K 1_555 1_555
C6K C7K 1_555 1_555
C9K C10K 1_555 1_555
C5G C9G 1_555 1_555
C6G C7G 1_555 1_555
C9G C10G 1_555 1_555
Yb1B_2 O3_2 1_555 1_555

#END
