
#######################################################################
#
#                 Cambridge Crystallographic Data Centre
#                                CCDC 
#
#######################################################################
#
# If this CIF has been generated from an entry in the Cambridge 
# Structural Database, then it will include bibliographic, chemical, 
# crystal, experimental, refinement or atomic coordinate data resulting 
# from the CCDC's data processing and validation procedures.
#
#######################################################################

data_PIJDIX
_chemical_formula_moiety         '(C8 H22 N2 O12 P4 Zn3)n'
_symmetry_cell_setting           monoclinic
_symmetry_space_group_name_H-M   'P 21/c'
_symmetry_Int_Tables_number      14
_space_group_name_Hall           '-P 2ybc'
loop_
_symmetry_equiv_pos_site_id
_symmetry_equiv_pos_as_xyz
1 x,y,z
2 -x,1/2+y,1/2-z
3 -x,-y,-z
4 x,1/2-y,1/2+z
_cell_length_a                   9.7412(5)
_cell_length_b                   13.0955(6)
_cell_length_c                   15.6922(3)
_cell_angle_alpha                90
_cell_angle_beta                 95.092(5)
_cell_angle_gamma                90
_cell_volume                     1993.89
loop_
_atom_site_label
_atom_site_type_symbol
_atom_site_fract_x
_atom_site_fract_y
_atom_site_fract_z
Zn1 Zn 0.28845(4) 0.13752(3) 0.25016(3)
Zn2 Zn -0.18929(4) 0.02908(3) 0.43410(3)
Zn3 Zn -0.40300(4) -0.13144(3) 0.09005(3)
P1 P 0.35934(9) 0.03917(8) 0.08559(6)
H1 H 0.4602 0.1130 0.1138
P2 P 0.10195(9) 0.11297(8) 0.40618(6)
H2 H 0.1707 0.1963 0.4555
P3 P -0.50266(9) 0.12727(7) 0.40727(7)
H3 H -0.5633 0.0605 0.4453
P4 P -0.30293(10) -0.12087(7) 0.28634(7)
H4 H -0.4377 -0.0928 0.3115
O1 O 0.2535(2) 0.0507(2) 0.15029(16)
O2 O -0.5393(3) 0.1067(3) 0.3140(2)
O3 O -0.3059(4) -0.2328(2) 0.3046(2)
O4 O 0.1304(3) 0.1183(2) 0.31320(18)
O5 O -0.0497(2) 0.13240(19) 0.41590(17)
O6 O -0.3513(2) 0.1131(2) 0.43073(19)
O7 O 0.1537(3) 0.0142(2) 0.44791(17)
O8 O -0.1910(3) -0.0658(2) 0.34168(18)
O9 O -0.2928(3) -0.0975(3) 0.19354(19)
O10 O 0.2998(3) 0.0704(2) -0.00292(17)
O11 O -0.5533(3) 0.2285(2) 0.4357(2)
O12 O 0.4178(3) -0.0671(2) 0.0864(2)
Zn1_2 Zn -0.71155(4) 0.13752(3) 0.25016(3)
Zn1A Zn -0.28845(4) -0.36248(3) 0.24984(3)
Zn2B Zn 0.18929(4) -0.02908(3) 0.56590(3)
Zn3_2 Zn 0.59700(4) -0.13144(3) 0.09005(3)
Zn3A Zn -0.59700(4) 0.36856(3) 0.40995(3)
Zn3B Zn 0.40300(4) 0.13144(3) -0.09005(3)
O2_2 O 0.4607(3) 0.1067(3) 0.3140(2)
O3A O 0.3059(4) 0.2672(2) 0.1954(2)
O7B O -0.1537(3) -0.0142(2) 0.55209(17)
O10B O -0.2998(3) -0.0704(2) 0.00292(17)
O11A O -0.4467(3) -0.2715(2) 0.0643(2)
O12_2 O -0.5822(3) -0.0671(2) 0.0864(2)
C1 C 0.2088(4) -0.3524(3) 0.2823(3)
H5 H 0.3000 -0.3828 0.2883
H6 H 0.1673 -0.3669 0.2251
C2 C 0.1217(4) -0.3977(3) 0.3476(3)
H7 H 0.0310 -0.4146 0.3206
H8 H 0.1640 -0.4600 0.3707
C3 C 0.0777(4) -0.1977(3) 0.3010(3)
H9 H 0.0170 -0.2217 0.2528
H10 H 0.0797 -0.1237 0.2992
C4 C 0.0247(4) -0.2329(3) 0.3838(3)
H11 H 0.0317 -0.1778 0.4252
H12 H -0.0715 -0.2524 0.3738
C5 C 0.3038(4) -0.2182(3) 0.3788(3)
H13 H 0.2958 -0.1469 0.3942
H14 H 0.4001 -0.2332 0.3734
C6 C 0.2500(4) -0.2855(3) 0.4473(3)
H15 H 0.3113 -0.3432 0.4588
H16 H 0.2472 -0.2469 0.4999
C7 C 0.2851(5) -0.1909(4) 0.2223(3)
H17 H 0.3763 -0.2179 0.2197
H18 H 0.2904 -0.1183 0.2307
H19 H 0.2307 -0.2054 0.1697
C8 C 0.0443(5) -0.3693(3) 0.4911(3)
H20 H -0.0468 -0.3927 0.4722
H21 H 0.0389 -0.3194 0.5355
H22 H 0.0991 -0.4260 0.5129
N1 N 0.2198(3) -0.2391(3) 0.2953(2)
N2 N 0.1087(3) -0.3227(2) 0.4180(2)
loop_
_geom_bond_atom_site_label_1
_geom_bond_atom_site_label_2
_geom_bond_site_symmetry_1
_geom_bond_site_symmetry_2
Zn1 O1 1_555 1_555
Zn2 O5 1_555 1_555
Zn3 O9 1_555 1_555
P1 H1 1_555 1_555
P2 H2 1_555 1_555
P3 H3 1_555 1_555
P4 H4 1_555 1_555
O1 P1 1_555 1_555
O2 P3 1_555 1_555
O3 P4 1_555 1_555
O4 Zn1 1_555 1_555
O5 P2 1_555 1_555
O6 Zn2 1_555 1_555
O7 P2 1_555 1_555
O8 Zn2 1_555 1_555
O9 P4 1_555 1_555
O10 P1 1_555 1_555
O11 P3 1_555 1_555
O12 P1 1_555 1_555
C1 H5 1_555 1_555
H6 C1 1_555 1_555
C2 C1 1_555 1_555
H7 C2 1_555 1_555
H8 C2 1_555 1_555
C3 H9 1_555 1_555
H10 C3 1_555 1_555
C4 C3 1_555 1_555
H11 C4 1_555 1_555
H12 C4 1_555 1_555
C5 H13 1_555 1_555
H14 C5 1_555 1_555
C6 C5 1_555 1_555
H15 C6 1_555 1_555
H16 C6 1_555 1_555
C7 H17 1_555 1_555
H18 C7 1_555 1_555
H19 C7 1_555 1_555
C8 H20 1_555 1_555
H21 C8 1_555 1_555
H22 C8 1_555 1_555
N1 C1 1_555 1_555
N2 C2 1_555 1_555
Zn1_2 O2 1_555 1_555
Zn1A O3 1_555 1_555
Zn2B O7 1_555 1_555
Zn3_2 O12 1_555 1_555
Zn3A O11 1_555 1_555
Zn3B O10 1_555 1_555
O2_2 Zn1 1_555 1_555
O3A Zn1 1_555 1_555
O7B Zn2 1_555 1_555
O10B Zn3 1_555 1_555
O11A Zn3 1_555 1_555
O12_2 Zn3 1_555 1_555
P2 O4 1_555 1_555
P3 O6 1_555 1_555
P4 O8 1_555 1_555
C3 N1 1_555 1_555
C4 N2 1_555 1_555
C5 N1 1_555 1_555
C6 N2 1_555 1_555
C7 N1 1_555 1_555
C8 N2 1_555 1_555

#END
