
#######################################################################
#
#                 Cambridge Crystallographic Data Centre
#                                CCDC 
#
#######################################################################
#
# If this CIF has been generated from an entry in the Cambridge 
# Structural Database, then it will include bibliographic, chemical, 
# crystal, experimental, refinement or atomic coordinate data resulting 
# from the CCDC's data processing and validation procedures.
#
#######################################################################

data_QULLEP
_chemical_formula_moiety         '(C40 H30 Cd1 N2 O9)n'
_symmetry_cell_setting           orthorhombic
_symmetry_space_group_name_H-M   'P n c 2'
_symmetry_Int_Tables_number      30
_space_group_name_Hall           'P 2 -2bc'
loop_
_symmetry_equiv_pos_site_id
_symmetry_equiv_pos_as_xyz
1 x,y,z
2 -x,-y,z
3 -x,1/2+y,1/2+z
4 x,1/2-y,1/2+z
_cell_length_a                   12.264(3)
_cell_length_b                   28.899(6)
_cell_length_c                   9.6755(19)
_cell_angle_alpha                90
_cell_angle_beta                 90
_cell_angle_gamma                90
_cell_volume                     3429.16
loop_
_atom_site_label
_atom_site_type_symbol
_atom_site_fract_x
_atom_site_fract_y
_atom_site_fract_z
Cd1 Cd -0.845510(19) -0.026350(8) -0.50061(6)
O1 O -0.1474(3) -0.47279(11) -0.1626(4)
O3 O -0.6885(4) -0.05397(13) -0.6392(4)
O4 O -0.0136(3) -0.44296(11) -0.0376(3)
O5 O -0.7720(2) -0.10099(10) -0.4988(5)
O6 O -0.3918(3) -0.22991(12) -0.7301(5)
O7 O -0.0934(3) -0.28206(11) -0.4775(5)
N1 N -0.7113(3) 0.01669(13) -0.3814(4)
N2 N -0.8752(3) -0.03274(12) -0.2629(4)
C1 C -0.6981(4) -0.09309(18) -0.5859(5)
C2 C -0.6193(4) -0.12965(15) -0.6227(5)
C3 C -0.5288(4) -0.11957(16) -0.7052(6)
H2 H -0.5182 -0.0896 -0.7377
C4 C -0.4544(4) -0.15422(16) -0.7391(6)
H3 H -0.3945 -0.1474 -0.7944
C5 C -0.4694(4) -0.19875(16) -0.6905(5)
C6 C -0.5583(4) -0.20921(17) -0.6099(6)
H4 H -0.5691 -0.2393 -0.5784
C7 C -0.6311(4) -0.17484(18) -0.5762(6)
H5 H -0.6904 -0.1821 -0.5203
C8 C -0.4069(5) -0.27754(18) -0.6888(7)
H6 H -0.4736 -0.2900 -0.7276
H7 H -0.4101 -0.2802 -0.5889
C9 C -0.3073(5) -0.30291(16) -0.7460(5)
C10 C -0.2048(4) -0.29909(15) -0.6827(5)
C11 C -0.1170(5) -0.32170(18) -0.7423(6)
H8 H -0.0487 -0.3201 -0.7008
C12 C -0.1304(5) -0.34685(19) -0.8642(6)
H9 H -0.0707 -0.3617 -0.9037
C13 C -0.2296(6) -0.34996(19) -0.9258(6)
H10 H -0.2373 -0.3661 -1.0083
C14 C -0.3194(5) -0.3290(2) -0.8651(7)
H11 H -0.3881 -0.3324 -0.9047
C15 C -0.1879(6) -0.27025(19) -0.5539(6)
H12 H -0.1832 -0.2379 -0.5804
H13 H -0.2511 -0.2737 -0.4946
C16 C -0.0957(4) -0.32123(15) -0.3962(5)
C17 C -0.1768(4) -0.35423(18) -0.4021(5)
H14 H -0.2361 -0.3503 -0.4608
C18 C -0.0089(5) -0.32665(18) -0.3060(5)
H15 H 0.0457 -0.3044 -0.3019
C19 C -0.1691(3) -0.39342(18) -0.3194(5)
H16 H -0.2225 -0.4162 -0.3258
C20 C -0.0036(4) -0.36550(17) -0.2214(5)
H17 H 0.0543 -0.3688 -0.1601
C21 C -0.0835(3) -0.39929(15) -0.2274(4)
C22 C -0.0793(4) -0.44147(15) -0.1374(4)
C23 C -0.6324(5) 0.0408(2) -0.4394(6)
H18 H -0.6319 0.0438 -0.5351
C24 C -0.5501(5) 0.0619(2) -0.3638(7)
H19 H -0.4965 0.0791 -0.4084
C25 C -0.5486(4) 0.0572(2) -0.2230(7)
H20 H -0.4931 0.0705 -0.1710
C26 C -0.6312(4) 0.03207(17) -0.1590(6)
C27 C -0.6338(4) 0.02391(18) -0.0130(12)
H21 H -0.5796 0.0366 0.0425
C28 C -0.7118(5) -0.0014(2) 0.0450(5)
H22 H -0.7106 -0.0062 0.1400
C29 C -0.7974(4) -0.02151(17) -0.0352(4)
C30 C -0.8816(5) -0.0478(2) 0.0177(7)
H23 H -0.8842 -0.0533 0.1124
C31 C -0.9608(5) -0.0658(2) -0.0646(6)
H24 H -1.0179 -0.0830 -0.0274
C32 C -0.9539(4) -0.05788(18) -0.2069(5)
H25 H -1.0065 -0.0707 -0.2644
C33 C -0.7981(4) -0.01464(14) -0.1805(4)
C34 C -0.7119(3) 0.01221(14) -0.2424(4)
Cd1B Cd -0.154490(19) -0.526350(8) -0.00061(6)
Cd1C Cd 0.154490(19) -0.473650(8) -0.00061(6)
O1B O -0.8526(3) 0.02721(11) -0.6626(4)
O4C O -1.0136(3) -0.05704(11) -0.5376(3)
O2 O 0.5000 -0.5000 -1.2351(11)
H1 H 0.5452(7) -0.5133(3) -1.180(2)
H1A H 0.4548(7) -0.4867(3) -1.180(2)
O8 O 0.1588(5) -0.3317(3) -0.8381(9)
O9 O 0.3230(7) -0.3828(4) -0.7376(12)
C35 C 0.2056(8) -0.3233(4) -0.7150(10)
C36 C 0.1690(7) -0.2859(3) -0.6345(11)
H26 H 0.1166 -0.2654 -0.6667
C37 C 0.2168(10) -0.2812(4) -0.5002(14)
H27 H 0.1962 -0.2573 -0.4416
C38 C 0.2956(12) -0.3138(5) -0.4590(11)
H28 H 0.3258 -0.3115 -0.3711
C39 C 0.3276(9) -0.3472(5) -0.5409(11)
H29 H 0.3806 -0.3681 -0.5120
C40 C 0.2823(8) -0.3509(4) -0.6685(9)
loop_
_geom_bond_atom_site_label_1
_geom_bond_atom_site_label_2
_geom_bond_site_symmetry_1
_geom_bond_site_symmetry_2
Cd1 O3 1_555 1_555
O1 C22 1_555 1_555
O2 H1 1_555 1_555
O3 C1 1_555 1_555
O4 C22 1_555 1_555
O5 Cd1 1_555 1_555
O6 C5 1_555 1_555
O7 C15 1_555 1_555
O8 C35 1_555 1_555
O9 C40 1_555 1_555
N1 Cd1 1_555 1_555
N2 Cd1 1_555 1_555
C1 O5 1_555 1_555
C2 C1 1_555 1_555
C3 C2 1_555 1_555
H2 C3 1_555 1_555
C4 C3 1_555 1_555
H3 C4 1_555 1_555
C5 C4 1_555 1_555
C6 C5 1_555 1_555
H4 C6 1_555 1_555
C7 C2 1_555 1_555
H5 C7 1_555 1_555
C8 O6 1_555 1_555
H6 C8 1_555 1_555
H7 C8 1_555 1_555
C9 C8 1_555 1_555
C10 C9 1_555 1_555
C11 C10 1_555 1_555
H8 C11 1_555 1_555
C12 C11 1_555 1_555
H9 C12 1_555 1_555
C13 C12 1_555 1_555
H10 C13 1_555 1_555
C14 C9 1_555 1_555
H11 C14 1_555 1_555
C15 C10 1_555 1_555
H12 C15 1_555 1_555
H13 C15 1_555 1_555
C16 O7 1_555 1_555
C17 C16 1_555 1_555
H14 C17 1_555 1_555
C18 C16 1_555 1_555
H15 C18 1_555 1_555
C19 C17 1_555 1_555
H16 C19 1_555 1_555
C20 C18 1_555 1_555
H17 C20 1_555 1_555
C21 C19 1_555 1_555
C22 C21 1_555 1_555
C23 N1 1_555 1_555
H18 C23 1_555 1_555
C24 C23 1_555 1_555
H19 C24 1_555 1_555
C25 C24 1_555 1_555
H20 C25 1_555 1_555
C26 C25 1_555 1_555
C27 C26 1_555 1_555
H21 C27 1_555 1_555
C28 C27 1_555 1_555
H22 C28 1_555 1_555
C29 C28 1_555 1_555
C30 C29 1_555 1_555
H23 C30 1_555 1_555
C31 C30 1_555 1_555
H24 C31 1_555 1_555
C32 N2 1_555 1_555
H25 C32 1_555 1_555
C33 N2 1_555 1_555
C34 N1 1_555 1_555
C35 C36 1_555 1_555
C36 H26 1_555 1_555
C37 C36 1_555 1_555
H27 C37 1_555 1_555
C38 C37 1_555 1_555
H28 C38 1_555 1_555
C39 C38 1_555 1_555
H29 C39 1_555 1_555
C40 C35 1_555 1_555
Cd1B O1 1_555 1_555
Cd1C O4 1_555 1_555
O1B Cd1 1_555 1_555
H1A O2 1_555 1_555
O4C Cd1 1_555 1_555
C6 C7 1_555 1_555
C13 C14 1_555 1_555
C20 C21 1_555 1_555
C26 C34 1_555 1_555
C29 C33 1_555 1_555
C31 C32 1_555 1_555
C33 C34 1_555 1_555
C39 C40 1_555 1_555

#END
