
#######################################################################
#
#                 Cambridge Crystallographic Data Centre
#                                CCDC 
#
#######################################################################
#
# If this CIF has been generated from an entry in the Cambridge 
# Structural Database, then it will include bibliographic, chemical, 
# crystal, experimental, refinement or atomic coordinate data resulting 
# from the CCDC's data processing and validation procedures.
#
#######################################################################

data_IHAJEH
_chemical_formula_moiety         '(C8 H26 N2 O21 P6 Zn5 2-)n'
_symmetry_cell_setting           monoclinic
_symmetry_space_group_name_H-M   'C 2/c'
_symmetry_Int_Tables_number      15
_space_group_name_Hall           '-C 2yc'
loop_
_symmetry_equiv_pos_site_id
_symmetry_equiv_pos_as_xyz
1 x,y,z
2 -x,y,1/2-z
3 1/2+x,1/2+y,z
4 1/2-x,1/2+y,1/2-z
5 -x,-y,-z
6 x,-y,1/2+z
7 1/2-x,1/2-y,-z
8 1/2+x,1/2-y,1/2+z
_cell_length_a                   33.929(7)
_cell_length_b                   13.045(3)
_cell_length_c                   8.9713(18)
_cell_angle_alpha                90
_cell_angle_beta                 104.37(3)
_cell_angle_gamma                90
_cell_volume                     3846.5
loop_
_atom_site_label
_atom_site_type_symbol
_atom_site_fract_x
_atom_site_fract_y
_atom_site_fract_z
Zn1 Zn 0.14770(3) 1.10455(8) 0.66062(12)
Zn2 Zn 0.0000 1.01279(14) 0.2500
Zn3 Zn 0.22899(3) 0.85717(10) 0.62707(13)
P1 P 0.05116(7) 1.11897(17) 0.5663(3)
H1 H 0.0465(16) 1.2272(6) 0.563(10)
P2 P 0.19505(7) 0.9488(2) 0.9043(3)
P3 P 0.18009(8) 0.7065(2) 0.3843(3)
H2 H 0.1611(5) 0.6117(8) 0.401(5)
O1 O 0.1922(2) 0.7374(6) 0.5479(8)
O2 O 0.22456(15) 0.8711(5) 0.8328(7)
O3 O 0.2186(2) 1.0470(6) 0.9712(10)
O4 O 0.15683(18) 0.9794(5) 0.7777(7)
O5 O 0.18398(19) 0.8878(5) 1.0307(8)
O6 O 0.09316(18) 1.0900(5) 0.5388(8)
O7 O 0.01617(18) 1.1052(5) 0.4248(7)
O8 O 0.1462(2) 0.7745(5) 0.2904(7)
O9 O 0.0442(2) 1.0703(7) 0.7118(8)
O10 O 0.2139(2) 0.6903(6) 0.3075(8)
Zn1A Zn -0.14770(3) 1.10455(8) -0.16062(12)
Zn1D Zn -0.14770(3) 0.89545(8) -0.66062(12)
Zn1D_2 Zn -0.14770(3) 0.89545(8) 0.33938(12)
Zn1E Zn 0.14770(3) 0.89545(8) 0.16062(12)
Zn1E_2 Zn 0.14770(3) 0.89545(8) 1.16062(12)
Zn2D Zn -0.0000 0.98721(14) -0.2500
Zn2D_2 Zn 0.0000 0.98721(14) 0.7500
Zn3A Zn -0.22899(3) 0.85717(10) -0.12707(13)
Zn3D Zn -0.22899(3) 1.14283(10) -0.62707(13)
Zn3E Zn 0.22899(3) 1.14283(10) 1.12707(13)
Zn3F Zn 0.27101(3) 0.64283(10) 0.37293(13)
Zn3G Zn -0.27101(3) 0.64283(10) 0.12707(13)
P1A P -0.05116(7) 1.11897(17) -0.0663(3)
H1A H -0.0465(16) 1.2272(6) -0.063(10)
P2A P -0.19505(7) 0.9488(2) -0.4043(3)
P3A P -0.18009(8) 0.7065(2) 0.1157(3)
H2A H -0.1611(5) 0.6117(8) 0.099(5)
O1A O -0.1922(2) 0.7374(6) -0.0479(8)
O2A O -0.22456(15) 0.8711(5) -0.3328(7)
O3A O -0.2186(2) 1.0470(6) -0.4712(10)
O3D O -0.2186(2) 0.9530(6) 0.0288(10)
O3E O 0.2186(2) 0.9530(6) 0.4712(10)
O4A O -0.15683(18) 0.9794(5) -0.2777(7)
O5A O -0.18398(19) 0.8878(5) -0.5307(8)
O5D O -0.18398(19) 1.1122(5) -0.0307(8)
O5E O 0.18398(19) 1.1122(5) 0.5307(8)
O6A O -0.09316(18) 1.0900(5) -0.0388(8)
O7A O -0.01617(18) 1.1052(5) 0.0752(7)
O8A O -0.1462(2) 0.7745(5) 0.2096(7)
O8D O -0.1462(2) 1.2255(5) -0.2904(7)
O8E O 0.1462(2) 1.2255(5) 0.7904(7)
O9A O -0.0442(2) 1.0703(7) -0.2118(8)
O9D O -0.0442(2) 0.9297(7) 0.2882(8)
O9E O 0.0442(2) 0.9297(7) 0.2118(8)
O10A O -0.2139(2) 0.6903(6) 0.1925(8)
O10F O 0.2861(2) 0.8097(6) 0.6925(8)
O10G O -0.2861(2) 0.8097(6) -0.1925(8)
O11 O 0.2801(2) 0.0683(7) 0.7714(9)
H3 H 0.2579(3) 0.0347(15) 0.749(4)
H4 H 0.2951(5) 0.060(4) 0.8620(14)
N1 N 0.1063(2) 0.1222(6) 0.0063(8)
H5 H 0.1213 0.1617 -0.0392
H6 H 0.0960 0.0704 -0.0556
H7 H 0.1219 0.0977 0.0939
C1 C 0.0856(4) 0.2852(12) 0.1057(17)
H8 H 0.0963 0.3257 0.0324
C2 C 0.1162(4) 0.2801(9) 0.2555(15)
H9 H 0.1400 0.2444 0.2410
H10 H 0.1050 0.2398 0.3262
C3 C 0.1291(4) 0.3817(11) 0.3273(15)
H11 H 0.1385 0.4227 0.2513
C4 C 0.0879(5) 0.4379(13) 0.3554(17)
H12 H 0.0780 0.4010 0.4328
H13 H 0.0941 0.5077 0.3909
C5 C 0.0569(4) 0.4380(12) 0.2093(17)
H14 H 0.0662 0.4824 0.1383
H15 H 0.0323 0.4679 0.2268
C6 C 0.0465(3) 0.3383(11) 0.1349(17)
H16 H 0.0265 0.3476 0.0377
H17 H 0.0346 0.2947 0.1998
C7 C 0.0722(2) 0.1845(9) 0.0401(13)
H18 H 0.0512 0.1938 -0.0544
H19 H 0.0604 0.1469 0.1115
C8 C 0.1631(4) 0.3846(11) 0.4787(16)
H20 H 0.1697 0.4554 0.5072
H21 H 0.1531 0.3530 0.5603
N2 N 0.1990(4) 0.3323(11) 0.4641(13)
H22 H 0.1921 0.2808 0.3976
H23 H 0.2122 0.3078 0.5554
H24 H 0.2150 0.3758 0.4301
loop_
_geom_bond_atom_site_label_1
_geom_bond_atom_site_label_2
_geom_bond_site_symmetry_1
_geom_bond_site_symmetry_2
Zn1 O4 1_555 1_555
Zn2 O7 1_555 1_555
Zn3 O1 1_555 1_555
P1 H1 1_555 1_555
P2 O2 1_555 1_555
P3 H2 1_555 1_555
O1 P3 1_555 1_555
O2 Zn3 1_555 1_555
O3 P2 1_555 1_555
O4 P2 1_555 1_555
O5 P2 1_555 1_555
O6 Zn1 1_555 1_555
O7 P1 1_555 1_555
O8 P3 1_555 1_555
O9 P1 1_555 1_555
O10 P3 1_555 1_555
O11 H3 1_555 1_555
H4 O11 1_555 1_555
N1 H5 1_555 1_555
H6 N1 1_555 1_555
H7 N1 1_555 1_555
C1 H8 1_555 1_555
C2 C1 1_555 1_555
H9 C2 1_555 1_555
H10 C2 1_555 1_555
C3 C2 1_555 1_555
H11 C3 1_555 1_555
C4 C3 1_555 1_555
H12 C4 1_555 1_555
H13 C4 1_555 1_555
C5 C4 1_555 1_555
H14 C5 1_555 1_555
H15 C5 1_555 1_555
C6 C1 1_555 1_555
H16 C6 1_555 1_555
H17 C6 1_555 1_555
C7 N1 1_555 1_555
H18 C7 1_555 1_555
H19 C7 1_555 1_555
C8 C3 1_555 1_555
H20 C8 1_555 1_555
H21 C8 1_555 1_555
N2 C8 1_555 1_555
H22 N2 1_555 1_555
H23 N2 1_555 1_555
H24 N2 1_555 1_555
Zn1A O4A 1_555 1_555
Zn1D O5A 1_555 1_555
Zn1D_2 O8A 1_555 1_555
Zn1E O8 1_555 1_555
Zn1E_2 O5 1_555 1_555
Zn2D O9A 1_555 1_555
Zn2D_2 O9 1_555 1_555
Zn3A O1A 1_555 1_555
Zn3D O3A 1_555 1_555
Zn3E O3 1_555 1_555
Zn3F O10 1_555 1_555
Zn3G O10A 1_555 1_555
P1A H1A 1_555 1_555
P2A O2A 1_555 1_555
P3A H2A 1_555 1_555
O1A P3A 1_555 1_555
O2A Zn3A 1_555 1_555
O3A P2A 1_555 1_555
O3D Zn3A 1_555 1_555
O3E Zn3 1_555 1_555
O4A P2A 1_555 1_555
O5A P2A 1_555 1_555
O5D Zn1A 1_555 1_555
O5E Zn1 1_555 1_555
O6A Zn1A 1_555 1_555
O7A Zn2 1_555 1_555
O8A P3A 1_555 1_555
O8D Zn1A 1_555 1_555
O8E Zn1 1_555 1_555
O9A P1A 1_555 1_555
O9D Zn2 1_555 1_555
O9E Zn2 1_555 1_555
O10A P3A 1_555 1_555
O10F Zn3 1_555 1_555
O10G Zn3A 1_555 1_555
P1 O6 1_555 1_555
C1 C7 1_555 1_555
C5 C6 1_555 1_555
P1A O6A 1_555 1_555
P1A O7A 1_555 1_555

#END
