
#######################################################################
#
#                 Cambridge Crystallographic Data Centre
#                                CCDC 
#
#######################################################################
#
# If this CIF has been generated from an entry in the Cambridge 
# Structural Database, then it will include bibliographic, chemical, 
# crystal, experimental, refinement or atomic coordinate data resulting 
# from the CCDC's data processing and validation procedures.
#
#######################################################################

data_IHAJIL
_chemical_formula_moiety         '(C8 H24 N2 O12 P4 Zn3)n'
_symmetry_cell_setting           orthorhombic
_symmetry_space_group_name_H-M   'P n a 21'
_symmetry_Int_Tables_number      33
_space_group_name_Hall           'P 2c -2n'
loop_
_symmetry_equiv_pos_site_id
_symmetry_equiv_pos_as_xyz
1 x,y,z
2 -x,-y,1/2+z
3 1/2+x,1/2-y,z
4 1/2-x,1/2+y,1/2+z
_cell_length_a                   14.0720(5)
_cell_length_b                   14.5227(5)
_cell_length_c                   10.4461(3)
_cell_angle_alpha                90
_cell_angle_beta                 90
_cell_angle_gamma                90
_cell_volume                     2134.8
loop_
_atom_site_label
_atom_site_type_symbol
_atom_site_fract_x
_atom_site_fract_y
_atom_site_fract_z
_atom_site_U_iso_or_equiv
_atom_site_thermal_displace_type
Zn1 Zn 0.89685(4) 0.17004(5) 0.71486(7) 0.0242 Uani
Zn2 Zn 0.74631(5) 0.53934(4) 0.68215(10) 0.0227 Uani
Zn3 Zn 0.61368(4) 0.15153(5) 0.65162(7) 0.0264 Uani
P1 P 0.61543(10) 0.36810(10) 0.70201(18) 0.0266 Uani
P2 P 0.89895(10) 0.38537(10) 0.65405(19) 0.0283 Uani
P3 P 0.77657(14) 0.58951(15) 0.3973(2) 0.0443 Uani
P4 P 0.78228(11) 0.13863(11) 0.45875(16) 0.0265 Uani
O1 O 0.8554(3) 0.4647(2) 0.7281(5) 0.0357 Uani
O2 O 0.6469(3) 0.4525(3) 0.6257(5) 0.0313 Uani
O3 O 0.5187(3) 0.3855(3) 0.7617(4) 0.0337 Uani
O4 O 0.9027(3) 0.3011(3) 0.7366(5) 0.0433 Uani
O5 O 0.6983(3) 0.0960(3) 0.5267(5) 0.0373 Uani
O6 O 0.6184(3) 0.2826(3) 0.6228(5) 0.0443 Uani
O7 O 0.8730(3) 0.1357(3) 0.5377(5) 0.0380 Uani
O8 O 0.6861(4) 0.6140(4) 0.3362(6) 0.0647 Uani
O9 O 0.9958(3) 0.4109(3) 0.6021(5) 0.0397 Uani
O10 O 0.7805(4) 0.6138(3) 0.5381(5) 0.0463 Uani
O11 O 0.8038(3) 0.0939(4) 0.3313(5) 0.0540 Uani
O12 O 0.8650(3) 0.6240(4) 0.3295(5) 0.0510 Uani
H21 H 0.680(5) 0.358(4) 0.814(9) 0.0680 Uiso
H22 H 0.762(4) 0.232(5) 0.436(9) 0.0680 Uiso
H23 H 0.837(5) 0.367(5) 0.556(10) 0.0680 Uiso
H24 H 0.769(5) 0.485(5) 0.383(8) 0.0680 Uiso
Zn1B Zn 0.39685(4) 0.32996(5) 0.71486(7) 0.0242 Uani
Zn1C Zn 0.60315(4) 0.67004(5) 0.21486(7) 0.0242 Uani
Zn2C Zn 0.75369(5) 0.03934(4) 0.18215(10) 0.0227 Uani
Zn3B Zn 1.11368(4) 0.34847(5) 0.65162(7) 0.0264 Uani
Zn3C Zn 0.88632(4) 0.65153(5) 0.15162(7) 0.0264 Uani
O3B O 1.0187(3) 0.1145(3) 0.7617(4) 0.0337 Uani
O8C O 0.8139(4) 0.1140(4) 0.8362(6) 0.0647 Uani
O9B O 0.4958(3) 0.0891(3) 0.6021(5) 0.0397 Uani
O11C O 0.6962(3) 0.5939(4) 0.8313(5) 0.0540 Uani
O12C O 0.6350(3) 0.1240(4) 0.8295(5) 0.0510 Uani
C1 C -0.0172(5) 0.8427(4) 0.6556(10) 0.0453 Uani
H1 H 0.0361 0.8716 0.7008 0.0540 Uiso
C2 C 0.0159(6) 0.6501(4) 0.7301(9) 0.0497 Uani
H2 H 0.0538 0.6055 0.7766 0.0600 Uiso
H3 H -0.0353 0.6174 0.6877 0.0600 Uiso
N1 N -0.0174(4) 0.9748(3) 0.5025(6) 0.0393 Uani
H4 H 0.0395 0.9847 0.5369 0.0590 Uiso
H5 H -0.0466 1.0284 0.4898 0.0590 Uiso
H6 H -0.0106 0.9458 0.4280 0.0590 Uiso
C3 C 0.0777(5) 0.6973(4) 0.6300(8) 0.0447 Uani
H7 H 0.1297 0.7278 0.6759 0.0540 Uiso
C4 C -0.0799(6) 0.7933(5) 0.7528(8) 0.0547 Uani
H8 H -0.1049 0.8379 0.8132 0.0660 Uiso
H9 H -0.1332 0.7653 0.7087 0.0660 Uiso
C5 C 0.0218(5) 0.7724(5) 0.5614(8) 0.0453 Uani
H10 H 0.0629 0.8031 0.5002 0.0550 Uiso
H11 H -0.0304 0.7447 0.5144 0.0550 Uiso
C6 C -0.0261(6) 0.7200(5) 0.8247(9) 0.0560 Uani
H12 H -0.0686 0.6888 0.8836 0.0670 Uiso
H13 H 0.0245 0.7481 0.8741 0.0670 Uiso
N2 N 0.0540(4) 0.5694(4) 0.4677(5) 0.0440 Uani
H14 H 0.0378 0.5225 0.5180 0.0660 Uiso
H15 H 0.0810 0.5479 0.3967 0.0660 Uiso
H16 H 0.0023 0.6015 0.4474 0.0660 Uiso
C7 C -0.0752(5) 0.9171(5) 0.5905(7) 0.0447 Uani
H17 H -0.1263 0.8885 0.5425 0.0530 Uiso
H18 H -0.1035 0.9562 0.6553 0.0530 Uiso
C8 C 0.1226(5) 0.6301(5) 0.5367(8) 0.0457 Uani
H19 H 0.1586 0.6648 0.4739 0.0550 Uiso
H20 H 0.1671 0.5916 0.5832 0.0550 Uiso
loop_
_atom_site_aniso_label
_atom_site_aniso_U_11
_atom_site_aniso_U_22
_atom_site_aniso_U_33
_atom_site_aniso_U_23
_atom_site_aniso_U_13
_atom_site_aniso_U_12
Zn1 0.0238(3) 0.0272(3) 0.0217(4) -0.0002(3) -0.0002(3) 0.0002(2)
Zn2 0.0236(3) 0.0250(3) 0.0194(3) -0.0003(3) 0.0010(2) 0.0007(2)
Zn3 0.0253(4) 0.0284(3) 0.0254(5) -0.0009(3) 0.0024(3) -0.0013(2)
P1 0.0262(7) 0.0274(7) 0.0262(10) 0.0016(7) -0.0015(7) -0.0020(5)
P2 0.0282(7) 0.0290(7) 0.0277(9) -0.0019(7) -0.0033(7) 0.0042(5)
P3 0.0372(9) 0.0645(12) 0.0311(10) 0.0094(10) -0.0019(8) 0.0030(9)
P4 0.0268(8) 0.0330(8) 0.0197(8) -0.0034(7) -0.0008(6) -0.0019(6)
O1 0.033(2) 0.033(2) 0.041(3) -0.007(2) -0.004(2) 0.0090(17)
O2 0.032(2) 0.031(2) 0.031(3) 0.0024(18) -0.004(2) -0.0084(16)
O3 0.027(2) 0.043(2) 0.031(3) -0.004(2) 0.0003(18) -0.0065(18)
O4 0.059(3) 0.030(2) 0.041(3) 0.003(2) 0.002(2) 0.004(2)
O5 0.030(2) 0.041(2) 0.041(3) -0.007(2) 0.009(2) -0.0012(19)
O6 0.062(3) 0.028(2) 0.043(3) -0.004(2) 0.016(2) -0.001(2)
O7 0.030(2) 0.053(3) 0.031(3) -0.005(2) -0.006(2) 0.003(2)
O8 0.041(3) 0.109(5) 0.044(4) 0.015(3) -0.007(3) 0.016(3)
O9 0.028(2) 0.043(2) 0.048(3) 0.007(2) 0.006(2) 0.0108(19)
O10 0.064(3) 0.050(3) 0.025(3) 0.011(2) -0.002(2) -0.019(2)
O11 0.041(3) 0.087(4) 0.034(3) -0.022(3) 0.006(2) -0.018(2)
O12 0.038(3) 0.082(4) 0.033(3) 0.009(3) 0.001(2) -0.002(3)
Zn1B 0.0238 0.0272 0.0217 0.0002 -0.0002 -0.0002
Zn1C 0.0238 0.0272 0.0217 -0.0002 0.0002 -0.0002
Zn2C 0.0236 0.025 0.0194 -0.0003 -0.001 -0.0007
Zn3B 0.0253 0.0284 0.0254 0.0009 0.0024 0.0013
Zn3C 0.0253 0.0284 0.0254 -0.0009 -0.0024 0.0013
O3B 0.027 0.043 0.031 0.004 0.0003 0.0065
O8C 0.041 0.109 0.044 0.015 0.007 -0.016
O9B 0.028 0.043 0.048 -0.007 0.006 -0.0108
O11C 0.041 0.087 0.034 -0.022 -0.006 0.018
O12C 0.038 0.082 0.033 0.009 -0.001 0.002
C1 0.042(4) 0.048(4) 0.046(5) -0.008(4) 0.004(4) -0.003(3)
C2 0.066(5) 0.045(4) 0.038(5) 0.003(4) 0.003(4) -0.007(3)
N1 0.043(3) 0.039(3) 0.036(3) -0.008(2) -0.006(3) 0.004(2)
C3 0.051(4) 0.036(3) 0.047(5) 0.003(3) 0.001(4) -0.002(3)
C4 0.058(5) 0.066(5) 0.040(5) 0.005(4) 0.017(4) 0.005(4)
C5 0.055(4) 0.046(4) 0.035(5) 0.000(3) 0.013(4) 0.002(3)
C6 0.071(5) 0.056(5) 0.041(5) 0.003(4) 0.012(4) -0.013(4)
N2 0.054(3) 0.044(3) 0.034(3) 0.013(3) 0.008(3) 0.010(3)
C7 0.044(4) 0.045(4) 0.045(5) -0.004(3) 0.005(3) 0.001(3)
C8 0.051(4) 0.045(4) 0.041(4) 0.006(3) 0.008(3) 0.005(3)
loop_
_geom_bond_atom_site_label_1
_geom_bond_atom_site_label_2
_geom_bond_site_symmetry_1
_geom_bond_site_symmetry_2
Zn1 O4 1_555 1_555
Zn2 O1 1_555 1_555
Zn3 O5 1_555 1_555
P1 O2 1_555 1_555
P2 O1 1_555 1_555
P3 O8 1_555 1_555
P4 O5 1_555 1_555
O2 Zn2 1_555 1_555
O3 P1 1_555 1_555
O4 P2 1_555 1_555
O6 Zn3 1_555 1_555
O7 Zn1 1_555 1_555
O8 Zn1C 1_555 1_555
O9 P2 1_555 1_555
O10 Zn2 1_555 1_555
O11 P4 1_555 1_555
O12 P3 1_555 1_555
C1 H1 1_555 1_555
C2 H2 1_555 1_555
H3 C2 1_555 1_555
N1 H4 1_555 1_555
H5 N1 1_555 1_555
H6 N1 1_555 1_555
C3 C2 1_555 1_555
H7 C3 1_555 1_555
C4 C1 1_555 1_555
H8 C4 1_555 1_555
H9 C4 1_555 1_555
C5 C1 1_555 1_555
H10 C5 1_555 1_555
H11 C5 1_555 1_555
C6 C2 1_555 1_555
H12 C6 1_555 1_555
H13 C6 1_555 1_555
N2 H14 1_555 1_555
H15 N2 1_555 1_555
H16 N2 1_555 1_555
C7 C1 1_555 1_555
H17 C7 1_555 1_555
H18 C7 1_555 1_555
C8 C3 1_555 1_555
H19 C8 1_555 1_555
H20 C8 1_555 1_555
H21 P1 1_555 1_555
H22 P4 1_555 1_555
H23 P2 1_555 1_555
H24 P3 1_555 1_555
Zn1B O3 1_555 1_555
Zn2C O11 1_555 1_555
Zn3B O9 1_555 1_555
Zn3C O12 1_555 1_555
O3B Zn1 1_555 1_555
O8C Zn1 1_555 1_555
O9B Zn3 1_555 1_555
O11C Zn2 1_555 1_555
O12C Zn3 1_555 1_555
P1 O6 1_555 1_555
P3 O10 1_555 1_555
P4 O7 1_555 1_555
N1 C7 1_555 1_555
C3 C5 1_555 1_555
C4 C6 1_555 1_555
N2 C8 1_555 1_555

#END
