
#######################################################################
#
#                 Cambridge Crystallographic Data Centre
#                                CCDC 
#
#######################################################################
#
# If this CIF has been generated from an entry in the Cambridge 
# Structural Database, then it will include bibliographic, chemical, 
# crystal, experimental, refinement or atomic coordinate data resulting 
# from the CCDC's data processing and validation procedures.
#
#######################################################################

data_MIXBEC
_chemical_formula_moiety         'C26 H16 Cu8 N6 O16'
_symmetry_cell_setting           orthorhombic
_symmetry_space_group_name_H-M   'F m m m'
_symmetry_Int_Tables_number      69
_space_group_name_Hall           '-F 2 2'
loop_
_symmetry_equiv_pos_site_id
_symmetry_equiv_pos_as_xyz
1 x,y,z
2 -x,-y,z
3 -x,y,-z
4 x,-y,-z
5 x,1/2+y,1/2+z
6 -x,1/2-y,1/2+z
7 -x,1/2+y,1/2-z
8 x,1/2-y,1/2-z
9 1/2+x,y,1/2+z
10 1/2-x,-y,1/2+z
11 1/2-x,y,1/2-z
12 1/2+x,-y,1/2-z
13 1/2+x,1/2+y,z
14 1/2-x,1/2-y,z
15 1/2-x,1/2+y,-z
16 1/2+x,1/2-y,-z
17 -x,-y,-z
18 x,y,-z
19 x,-y,z
20 -x,y,z
21 -x,1/2-y,1/2-z
22 x,1/2+y,1/2-z
23 x,1/2-y,1/2+z
24 -x,1/2+y,1/2+z
25 1/2-x,-y,1/2-z
26 1/2+x,y,1/2-z
27 1/2+x,-y,1/2+z
28 1/2-x,y,1/2+z
29 1/2-x,1/2-y,-z
30 1/2+x,1/2+y,-z
31 1/2+x,1/2-y,z
32 1/2-x,1/2+y,z
_cell_length_a                   24.9933(13)
_cell_length_b                   28.2078(12)
_cell_length_c                   38.8733(18)
_cell_angle_alpha                90
_cell_angle_beta                 90
_cell_angle_gamma                90
_cell_volume                     27405.9
loop_
_atom_site_label
_atom_site_type_symbol
_atom_site_fract_x
_atom_site_fract_y
_atom_site_fract_z
_atom_site_U_iso_or_equiv
_atom_site_thermal_displace_type
Cu1 Cu 0.0000 0.279815(17) 0.223907(13) 0.0565 Uani
Cu2 Cu 0.28657(2) 0.0000 0.225311(13) 0.0559 Uani
O1 O 0.24053(8) 0.04888(7) 0.20514(5) 0.0730 Uani
O2 O 0.05462(9) 0.23720(7) 0.20526(5) 0.0766 Uani
C1 C 0.20037(12) 0.06391(9) 0.21933(6) 0.0619 Uani
C2 C 0.07057(11) 0.20119(10) 0.22065(7) 0.0635 Uani
C3 C 0.11035(12) 0.16998(9) 0.20210(7) 0.0666 Uani
C4 C 0.12240(14) 0.17995(11) 0.16813(7) 0.0834 Uani
H1 H 0.1063 0.2053 0.1569 0.1000 Uiso
C5 C 0.15892(16) 0.15141(12) 0.15122(7) 0.0955 Uani
C6 C 0.13422(12) 0.13214(10) 0.21838(7) 0.0659 Uani
H2 H 0.1253 0.1251 0.2410 0.0790 Uiso
C7 C 0.17109(12) 0.10468(10) 0.20130(7) 0.0688 Uani
C8 C 0.18388(14) 0.11416(11) 0.16749(7) 0.0846 Uani
H3 H 0.2089 0.0957 0.1559 0.1020 Uiso
C9 C 0.1604(2) 0.19750(16) 0.09587(9) 0.1376 Uani
H4 H 0.1450 0.2259 0.1029 0.1650 Uiso
C10 C 0.1765(2) 0.18604(18) 0.06351(9) 0.1480 Uani
C11 C 0.1806(3) 0.1877(3) 0.0000 0.1437 Uani
H5 H 0.1849 0.1550 0.0000 0.1720 Uiso
C12 C 0.1772(2) 0.2135(2) 0.03127(9) 0.1420 Uani
N1 N 0.17096(16) 0.16010(12) 0.11552(6) 0.1230 Uani
N2 N 0.1953(3) 0.12764(18) 0.09663(9) 0.1253 Uani
N3 N 0.1966(3) 0.1435(2) 0.06464(9) 0.1260 Uani
O3 O 0.17916(8) 0.04970(7) 0.24681(5) 0.0730 Uani
O4 O 0.05519(8) 0.18670(6) 0.24937(5) 0.0720 Uani
C13 C 0.1697(3) 0.2610(2) 0.03141(12) 0.1147 Uani
H6 H 0.1676 0.2772 0.0522 0.2750 Uiso
C14 C 0.1651(6) 0.2862(3) 0.0000 0.1413 Uani
H7 H 0.1591 0.3187 0.0000 0.3360 Uiso
O5 O 0.34287(17) 0.0000 0.18311(10) 0.1190 Uani
H8 H 0.3585 -0.0255 0.1825 0.1780 Uiso
O6 O 0.0000 0.32612(15) 0.17955(10) 0.1230 Uani
H9 H 0.0202 0.3485 0.1830 0.1840 Uiso
O1Q O 0.24053(8) 0.04888(7) -0.20514(5) 0.0730 Uani
O2Q O 0.05462(9) 0.23720(7) -0.20526(5) 0.0766 Uani
C1Q C 0.20037(12) 0.06391(9) -0.21933(6) 0.0619 Uani
C2Q C 0.07057(11) 0.20119(10) -0.22065(7) 0.0635 Uani
C3Q C 0.11035(12) 0.16998(9) -0.20210(7) 0.0666 Uani
C4Q C 0.12240(14) 0.17995(11) -0.16813(7) 0.0834 Uani
H1Q H 0.1063 0.2053 -0.1569 0.1000 Uiso
C5Q C 0.15892(16) 0.15141(12) -0.15122(7) 0.0955 Uani
C6Q C 0.13422(12) 0.13214(10) -0.21838(7) 0.0659 Uani
H2Q H 0.1253 0.1251 -0.2410 0.0790 Uiso
C7Q C 0.17109(12) 0.10468(10) -0.20130(7) 0.0688 Uani
C8Q C 0.18388(14) 0.11416(11) -0.16749(7) 0.0846 Uani
H3Q H 0.2089 0.0957 -0.1559 0.1020 Uiso
C9Q C 0.1604(2) 0.19750(16) -0.09587(9) 0.1376 Uani
H4Q H 0.1450 0.2259 -0.1029 0.1650 Uiso
C10Q C 0.1765(2) 0.18604(18) -0.06351(9) 0.1480 Uani
C12Q C 0.1772(2) 0.2135(2) -0.03127(9) 0.1420 Uani
N1Q N 0.17096(16) 0.16010(12) -0.11552(6) 0.1230 Uani
N2Q N 0.1953(3) 0.12764(18) -0.09663(9) 0.1253 Uani
N3Q N 0.1966(3) 0.1435(2) -0.06464(9) 0.1260 Uani
O3Q O 0.17916(8) 0.04970(7) -0.24681(5) 0.0730 Uani
O4Q O 0.05519(8) 0.18670(6) -0.24937(5) 0.0720 Uani
C13Q C 0.1697(3) 0.2610(2) -0.03141(12) 0.1147 Uani
H6Q H 0.1676 0.2772 -0.0522 0.2750 Uiso
H8R H 0.3585 0.0255 0.1825 0.1780 Uiso
H9S H -0.0202 0.3485 0.1830 0.1840 Uiso
Cu1B Cu 0.0000 0.279815(17) -0.223907(13) 0.0565 Uani
Cu1E Cu 0.0000 0.220185(17) -0.276093(13) 0.0565 Uani
Cu1G Cu -0.0000 0.220185(17) 0.276093(13) 0.0565 Uani
Cu2C Cu 0.28657(2) 0.0000 -0.225311(13) 0.0559 Uani
Cu2I Cu 0.21343(2) 0.0000 -0.274689(13) 0.0559 Uani
Cu2J Cu 0.21343(2) 0.0000 0.274689(13) 0.0559 Uani
O1R O 0.24053(8) -0.04888(7) 0.20514(5) 0.0730 Uani
O2S O -0.05462(9) 0.23720(7) 0.20526(5) 0.0766 Uani
O3J O 0.32084(8) 0.04970(7) 0.25319(5) 0.0730 Uani
O3X O 0.32084(8) -0.04970(7) 0.25319(5) 0.0730 Uani
O4G O 0.05519(8) 0.31330(6) 0.25063(5) 0.0720 Uani
O4T O -0.05519(8) 0.31330(6) 0.25063(5) 0.0720 Uani
loop_
_atom_site_aniso_label
_atom_site_aniso_U_11
_atom_site_aniso_U_22
_atom_site_aniso_U_33
_atom_site_aniso_U_23
_atom_site_aniso_U_13
_atom_site_aniso_U_12
Cu1 0.0757(4) 0.0446(3) 0.0491(3) 0.0052(2) 0.000 0.000
Cu2 0.0656(3) 0.0516(3) 0.0504(3) 0.000 0.0055(2) 0.000
O1 0.0874(13) 0.0680(11) 0.0635(11) 0.0078(10) 0.0051(10) 0.0255(11)
O2 0.1015(14) 0.0649(11) 0.0633(11) 0.0050(10) 0.0087(11) 0.0221(11)
C1 0.0893(19) 0.0504(14) 0.0459(14) -0.0072(12) 0.0027(13) 0.0067(14)
C2 0.0665(16) 0.0697(17) 0.0543(15) 0.0037(14) -0.0068(13) 0.0066(14)
C3 0.0832(19) 0.0605(15) 0.0560(15) -0.0071(13) -0.0036(14) 0.0114(15)
C4 0.114(3) 0.081(2) 0.0553(16) 0.0021(15) -0.0087(16) 0.0408(19)
C5 0.147(3) 0.098(2) 0.0414(14) -0.0016(15) -0.0012(17) 0.055(2)
C6 0.0843(19) 0.0617(16) 0.0516(14) -0.0016(13) -0.0044(13) 0.0085(14)
C7 0.0874(19) 0.0632(16) 0.0559(15) -0.0042(13) -0.0078(14) 0.0200(15)
C8 0.121(3) 0.081(2) 0.0517(16) -0.0070(15) -0.0009(16) 0.0394(19)
C9 0.239(5) 0.119(3) 0.0547(19) 0.005(2) 0.001(3) 0.086(4)
C10 0.257(6) 0.138(4) 0.049(2) 0.004(2) 0.003(3) 0.087(4)
C11 0.206(7) 0.179(7) 0.046(3) 0.000 0.000 0.059(6)
C12 0.220(6) 0.148(4) 0.058(2) -0.004(3) -0.002(3) 0.059(4)
N1 0.202(3) 0.121(3) 0.0461(14) -0.0021(16) 0.0026(18) 0.088(2)
N2 0.232(9) 0.113(5) 0.031(2) 0.014(3) 0.028(4) 0.120(6)
N3 0.226(9) 0.119(5) 0.033(2) 0.015(3) 0.029(4) 0.109(6)
O3 0.0841(13) 0.0685(11) 0.0665(12) 0.0012(10) 0.0038(10) 0.0203(10)
O4 0.0903(13) 0.0626(11) 0.0630(11) 0.0025(9) 0.0052(10) 0.0206(10)
C13 0.238(13) 0.071(5) 0.035(3) -0.005(3) -0.003(5) 0.034(7)
C14 0.32(2) 0.071(7) 0.033(4) 0.000 0.000 0.000(10)
O5 0.118(3) 0.130(4) 0.109(3) 0.000 0.051(2) 0.000
O6 0.159(4) 0.111(3) 0.099(3) 0.055(2) 0.000 0.000
O1Q 0.0874 0.068 0.0635 -0.0078 -0.0051 0.0255
O2Q 0.1015 0.0649 0.0633 -0.005 -0.0087 0.0221
C1Q 0.0893 0.0504 0.0459 0.0072 -0.0027 0.0067
C2Q 0.0665 0.0697 0.0543 -0.0037 0.0068 0.0066
C3Q 0.0832 0.0605 0.056 0.0071 0.0036 0.0114
C4Q 0.114 0.081 0.0553 -0.0021 0.0087 0.0408
C5Q 0.147 0.098 0.0414 0.0016 0.0012 0.055
C6Q 0.0843 0.0617 0.0516 0.0016 0.0044 0.0085
C7Q 0.0874 0.0632 0.0559 0.0042 0.0078 0.02
C8Q 0.121 0.081 0.0517 0.007 0.0009 0.0394
C9Q 0.239 0.119 0.0547 -0.005 -0.001 0.086
C10Q 0.257 0.138 0.049 -0.004 -0.003 0.087
C12Q 0.22 0.148 0.058 0.004 0.002 0.059
N1Q 0.202 0.121 0.0461 0.0021 -0.0026 0.088
N2Q 0.232 0.113 0.031 -0.014 -0.028 0.12
N3Q 0.226 0.119 0.033 -0.015 -0.029 0.109
O3Q 0.0841 0.0685 0.0665 -0.0012 -0.0038 0.0203
O4Q 0.0903 0.0626 0.063 -0.0025 -0.0052 0.0206
C13Q 0.238 0.071 0.035 0.005 0.003 0.034
Cu1B 0.0757 0.0446 0.0491 -0.0052 0 0
Cu1E 0.0757 0.0446 0.0491 -0.0052 0 0
Cu1G 0.0757 0.0446 0.0491 0.0052 0 0
Cu2C 0.0656 0.0516 0.0504 0 -0.0055 0
Cu2I 0.0656 0.0516 0.0504 0 -0.0055 0
Cu2J 0.0656 0.0516 0.0504 0 0.0055 0
O1R 0.0874 0.068 0.0635 -0.0078 0.0051 -0.0255
O2S 0.1015 0.0649 0.0633 0.005 -0.0087 -0.0221
O3J 0.0841 0.0685 0.0665 -0.0012 0.0038 -0.0203
O3X 0.0841 0.0685 0.0665 0.0012 0.0038 0.0203
O4G 0.0903 0.0626 0.063 0.0025 -0.0052 -0.0206
O4T 0.0903 0.0626 0.063 0.0025 0.0052 0.0206
loop_
_geom_bond_atom_site_label_1
_geom_bond_atom_site_label_2
_geom_bond_site_symmetry_1
_geom_bond_site_symmetry_2
Cu1 O2 1_555 1_555
Cu2 O1 1_555 1_555
O1 C1 1_555 1_555
O2 C2 1_555 1_555
C1 C7 1_555 1_555
C2 C3 1_555 1_555
C3 C4 1_555 1_555
C4 H1 1_555 1_555
C5 C4 1_555 1_555
C6 C3 1_555 1_555
H2 C6 1_555 1_555
C7 C6 1_555 1_555
C8 C5 1_555 1_555
H3 C8 1_555 1_555
C9 H4 1_555 1_555
C10 C9 1_555 1_555
C11 H5 1_555 1_555
C12 C10 1_555 1_555
N1 C5 1_555 1_555
N2 N1 1_555 1_555
N3 C10 1_555 1_555
O3 C1 1_555 1_555
O4 C2 1_555 1_555
C13 C12 1_555 1_555
H6 C13 1_555 1_555
C14 C13 1_555 1_555
H7 C14 1_555 1_555
O5 Cu2 1_555 1_555
H8 O5 1_555 1_555
O6 Cu1 1_555 1_555
H9 O6 1_555 1_555
O1Q C1Q 1_555 1_555
O2Q C2Q 1_555 1_555
C1Q C7Q 1_555 1_555
C2Q C3Q 1_555 1_555
C3Q C4Q 1_555 1_555
C4Q H1Q 1_555 1_555
C5Q C4Q 1_555 1_555
C6Q C3Q 1_555 1_555
H2Q C6Q 1_555 1_555
C7Q C6Q 1_555 1_555
C8Q C5Q 1_555 1_555
H3Q C8Q 1_555 1_555
C9Q H4Q 1_555 1_555
C10Q C9Q 1_555 1_555
C12Q C11 1_555 1_555
N1Q C5Q 1_555 1_555
N2Q N1Q 1_555 1_555
N3Q C10Q 1_555 1_555
O3Q C1Q 1_555 1_555
O4Q C2Q 1_555 1_555
C13Q C14 1_555 1_555
H6Q C13Q 1_555 1_555
H8R O5 1_555 1_555
H9S O6 1_555 1_555
Cu1B O2Q 1_555 1_555
Cu1E O4Q 1_555 1_555
Cu1G Cu1 1_555 1_555
Cu2C O1Q 1_555 1_555
Cu2I O3Q 1_555 1_555
Cu2J Cu2 1_555 1_555
O1R Cu2 1_555 1_555
O2S Cu1 1_555 1_555
O3J Cu2 1_555 1_555
O3X Cu2 1_555 1_555
O4G Cu1 1_555 1_555
O4T Cu1 1_555 1_555
C7 C8 1_555 1_555
C9 N1 1_555 1_555
C11 C12 1_555 1_555
N2 N3 1_555 1_555
O3 Cu2J 1_555 1_555
O4 Cu1G 1_555 1_555
C7Q C8Q 1_555 1_555
C9Q N1Q 1_555 1_555
C10Q C12Q 1_555 1_555
C12Q C13Q 1_555 1_555
N2Q N3Q 1_555 1_555
Cu1B Cu1E 1_555 1_555
Cu2C Cu2I 1_555 1_555

#END
