
#######################################################################
#
#                 Cambridge Crystallographic Data Centre
#                                CCDC 
#
#######################################################################
#
# If this CIF has been generated from an entry in the Cambridge 
# Structural Database, then it will include bibliographic, chemical, 
# crystal, experimental, refinement or atomic coordinate data resulting 
# from the CCDC's data processing and validation procedures.
#
#######################################################################

data_ROTTUR
_chemical_formula_moiety         '(C23 H16 N2 O5 Zn1)n'
_symmetry_cell_setting           monoclinic
_symmetry_space_group_name_H-M   'C 2/c'
_symmetry_Int_Tables_number      15
_space_group_name_Hall           '-C 2yc'
loop_
_symmetry_equiv_pos_site_id
_symmetry_equiv_pos_as_xyz
1 x,y,z
2 -x,y,1/2-z
3 1/2+x,1/2+y,z
4 1/2-x,1/2+y,1/2-z
5 -x,-y,-z
6 x,-y,1/2+z
7 1/2-x,1/2-y,-z
8 1/2+x,1/2-y,1/2+z
_cell_length_a                   29.971(8)
_cell_length_b                   16.271(4)
_cell_length_c                   15.804(4)
_cell_angle_alpha                90
_cell_angle_beta                 115.749(7)
_cell_angle_gamma                90
_cell_volume                     6941.69
loop_
_atom_site_label
_atom_site_type_symbol
_atom_site_fract_x
_atom_site_fract_y
_atom_site_fract_z
_atom_site_U_iso_or_equiv
_atom_site_thermal_displace_type
Zn1 Zn 0.24686(2) 0.21143(3) 0.37151(3) 0.0405 Uani
O1 O 0.24791(13) 0.3364(2) 0.3746(2) 0.0484 Uani
O2 O 0.24953(16) 0.70610(19) 0.2606(3) 0.0529 Uani
N1 N -0.1738(2) 0.2921(3) -0.0542(4) 0.0600 Uani
N2 N 0.1672(2) 0.2139(3) 0.2957(4) 0.0607 Uani
C1 C 0.2539(2) 0.3747(3) 0.4477(3) 0.0443 Uani
C2 C 0.2532(2) 0.5885(3) 0.3524(3) 0.0499 Uani
C3 C 0.2503(2) 0.6307(3) 0.2650(4) 0.0491 Uani
C4 C 0.0635(4) 0.2166(8) 0.1868(11) 0.1362 Uani
C5 C 0.0980(5) 0.2856(9) 0.1812(14) 0.2119 Uani
H1 H 0.0854 0.3305 0.1414 0.2560 Uiso
C6 C -0.1488(4) 0.3430(8) 0.0125(12) 0.1734 Uani
H2 H -0.1663 0.3816 0.0297 0.2080 Uiso
C7 C 0.0870(4) 0.1532(8) 0.2365(10) 0.1489 Uani
H3 H 0.0692 0.1062 0.2359 0.1780 Uiso
C8 C 0.1464(4) 0.2778(7) 0.2360(12) 0.1666 Uani
H4 H 0.1674 0.3187 0.2331 0.2000 Uiso
C9 C 0.1371(4) 0.1541(6) 0.2896(8) 0.1172 Uani
H5 H 0.1511 0.1073 0.3249 0.1410 Uiso
C10 C -0.1474(4) 0.2353(9) -0.0744(10) 0.1491 Uani
H6 H -0.1639 0.1957 -0.1196 0.1790 Uiso
C11 C -0.0694(4) 0.2898(7) 0.0409(10) 0.1233 Uani
C12 C -0.0962(5) 0.2345(12) -0.0295(15) 0.2057 Uani
H7 H -0.0791 0.1955 -0.0473 0.2490 Uiso
C13 C -0.0957(6) 0.3435(10) 0.0616(16) 0.2414 Uani
H8 H -0.0798 0.3822 0.1085 0.2880 Uiso
O3 O 0.25206(17) 0.5862(2) 0.2002(3) 0.0629 Uani
C14 C 0.2559(2) 0.4661(3) 0.4386(3) 0.0439 Uani
C15 C 0.25269(17) 0.5049(3) 0.3592(3) 0.0421 Uani
H9 H 0.2501 0.4732 0.3082 0.0510 Uiso
C16 C 0.2598(3) 0.5146(3) 0.5165(4) 0.0757 Uani
H10 H 0.2618 0.4899 0.5711 0.0910 Uiso
C17 C 0.2605(4) 0.5997(4) 0.5092(5) 0.0981 Uani
C18 C 0.2571(4) 0.6382(3) 0.4271(5) 0.0894 Uani
H11 H 0.2576 0.6952 0.4228 0.1070 Uiso
O4 O 0.2612(2) 0.3457(2) 0.5237(3) 0.0753 Uani
O5 O 0.2663(3) 0.6534(2) 0.5829(4) 0.1395 Uani
C19 C 0.2811(6) 0.6190(6) 0.6757(6) 0.1530 Uani
H12 H 0.2620 0.5697 0.6711 0.1840 Uiso
H13 H 0.2742 0.6582 0.7148 0.1840 Uiso
C20 C 0.3397(9) 0.5967(8) 0.7241(12) 0.1776 Uani
C21 C 0.3873(14) 0.5783(18) 0.7732(17) 0.3365 Uani
H14 H 0.4206 0.5654 0.8075 0.4030 Uiso
C22 C 0.0236(4) 0.2830(6) 0.1114(9) 0.0540 Uiso
C23 C -0.0168(7) 0.2951(9) 0.0910(13) 0.0920 Uiso
Zn1C Zn 0.25314(2) 0.71143(3) 0.12849(3) 0.0405 Uani
Zn1F Zn 0.25314(2) 0.28857(3) 0.62849(3) 0.0405 Uani
Zn1G Zn -0.25314(2) 0.28857(3) -0.12849(3) 0.0405 Uani
O2C O 0.25047(16) 0.20610(19) 0.2394(3) 0.0529 Uani
N1G N 0.3262(2) 0.2079(3) 0.4458(4) 0.0600 Uani
O3C O 0.24794(17) 0.0862(2) 0.2998(3) 0.0629 Uani
O4F O 0.2388(2) 0.1543(2) 0.4763(3) 0.0753 Uani
loop_
_atom_site_aniso_label
_atom_site_aniso_U_11
_atom_site_aniso_U_22
_atom_site_aniso_U_33
_atom_site_aniso_U_23
_atom_site_aniso_U_13
_atom_site_aniso_U_12
Zn1 0.0698(5) 0.0240(4) 0.0316(4) 0.00031(19) 0.0256(3) 0.0018(2)
O1 0.086(3) 0.0336(19) 0.0248(17) -0.0035(12) 0.0233(18) 0.0021(16)
O2 0.088 0.0303 0.044 0.0132 0.032 0.0009
N1 0.061 0.059 0.052 0.001 0.017 -0.003
N2 0.053(3) 0.065(3) 0.068(3) 0.000(2) 0.030(3) 0.008(2)
C1 0.076(3) 0.020(2) 0.039(3) 0.0014(18) 0.027(2) 0.008(2)
C2 0.107 0.019 0.033 0.0003 0.039 0.001
C3 0.066 0.041 0.042 0.005 0.025 -0.002
C4 0.055(5) 0.152(11) 0.174(13) 0.012(8) 0.024(6) 0.004(5)
C5 0.109(10) 0.174(14) 0.25(2) 0.104(13) -0.018(10) 0.016(8)
C6 0.075 0.111 0.277 -0.046 0.023 -0.017
C7 0.081(7) 0.118(9) 0.196(13) 0.034(9) 0.012(7) -0.008(6)
C8 0.069(6) 0.120(8) 0.260(18) 0.084(10) 0.024(8) -0.004(5)
C9 0.109(7) 0.070(5) 0.163(9) 0.019(6) 0.050(7) -0.016(5)
C10 0.095 0.173 0.145 -0.059 0.02 0.036
C11 0.07 0.125 0.126 -0.001 -0.003 0.002
C12 0.09 0.219 0.26 -0.07 0.031 0.044
C13 0.116 0.122 0.35 -0.055 -0.026 -0.007
O3 0.117 0.038 0.047 0.0055 0.048 0.004
C14 0.085(4) 0.020(2) 0.037(2) 0.0012(18) 0.036(2) -0.001(2)
C15 0.064(3) 0.034(3) 0.030(2) -0.0062(19) 0.022(2) -0.005(2)
C16 0.179(7) 0.023(2) 0.057(3) -0.002(2) 0.081(4) 0.003(3)
C17 0.231(10) 0.036(3) 0.056(4) -0.007(3) 0.089(5) 0.005(4)
C18 0.218 0.021 0.059 0.002 0.088 -0.007
O4 0.165(4) 0.0280(19) 0.052(2) 0.0019(16) 0.065(3) -0.009(2)
O5 0.349(10) 0.023(2) 0.084(4) 0.009(2) 0.129(5) 0.029(4)
C19 0.317(17) 0.083(6) 0.054(5) -0.008(4) 0.076(8) 0.070(9)
C20 0.35(3) 0.073(7) 0.129(12) -0.034(7) 0.122(15) -0.038(11)
C21 0.41(4) 0.27(3) 0.19(2) -0.04(2) 0.00(2) 0.08(3)
Zn1C 0.0698 0.024 0.0316 -0.00031 0.0256 -0.0018
Zn1F 0.0698 0.024 0.0316 0.00031 0.0256 0.0018
Zn1G 0.0698 0.024 0.0316 -0.00031 0.0256 -0.0018
O2C 0.088 0.0303 0.044 -0.0132 0.032 -0.0009
N1G 0.061 0.059 0.052 -0.001 0.017 0.003
O3C 0.117 0.038 0.047 -0.0055 0.048 -0.004
O4F 0.165 0.028 0.052 0.0019 0.065 -0.009
loop_
_geom_bond_atom_site_label_1
_geom_bond_atom_site_label_2
_geom_bond_site_symmetry_1
_geom_bond_site_symmetry_2
Zn1 O1 1_555 1_555
O1 C1 1_555 1_555
O2 C3 1_555 1_555
N1 C6 1_555 1_555
N2 Zn1 1_555 1_555
C1 C14 1_555 1_555
C2 C3 1_555 1_555
C3 O3 1_555 1_555
C4 C5 1_555 1_555
C5 H1 1_555 1_555
C6 H2 1_555 1_555
C7 C4 1_555 1_555
H3 C7 1_555 1_555
C8 N2 1_555 1_555
H4 C8 1_555 1_555
C9 N2 1_555 1_555
H5 C9 1_555 1_555
C10 N1 1_555 1_555
H6 C10 1_555 1_555
C11 C12 1_555 1_555
C12 C10 1_555 1_555
H7 C12 1_555 1_555
C13 C6 1_555 1_555
H8 C13 1_555 1_555
O3 Zn1C 1_555 1_555
C14 C15 1_555 1_555
C15 C2 1_555 1_555
H9 C15 1_555 1_555
C16 C14 1_555 1_555
H10 C16 1_555 1_555
C17 C16 1_555 1_555
C18 C2 1_555 1_555
H11 C18 1_555 1_555
O4 C1 1_555 1_555
O5 C17 1_555 1_555
C19 O5 1_555 1_555
H12 C19 1_555 1_555
H13 C19 1_555 1_555
C20 C19 1_555 1_555
C21 C20 1_555 1_555
H14 C21 1_555 1_555
C22 C4 1_555 1_555
C23 C11 1_555 1_555
Zn1C O2 1_555 1_555
Zn1F O4 1_555 1_555
Zn1G N1 1_555 1_555
O2C Zn1 1_555 1_555
N1G Zn1 1_555 1_555
O3C Zn1 1_555 1_555
O4F Zn1 1_555 1_555
C5 C8 1_555 1_555
C7 C9 1_555 1_555
C11 C13 1_555 1_555
C17 C18 1_555 1_555
C22 C23 1_555 1_555

#END
