
#######################################################################
#
#                 Cambridge Crystallographic Data Centre
#                                CCDC 
#
#######################################################################
#
# If this CIF has been generated from an entry in the Cambridge 
# Structural Database, then it will include bibliographic, chemical, 
# crystal, experimental, refinement or atomic coordinate data resulting 
# from the CCDC's data processing and validation procedures.
#
#######################################################################

data_ROTTOL
_chemical_formula_moiety         '(C27 H30 N4 O8 Zn1)n'
_symmetry_cell_setting           monoclinic
_symmetry_space_group_name_H-M   'P 21/c'
_symmetry_Int_Tables_number      14
_space_group_name_Hall           '-P 2ybc'
loop_
_symmetry_equiv_pos_site_id
_symmetry_equiv_pos_as_xyz
1 x,y,z
2 -x,1/2+y,1/2-z
3 -x,-y,-z
4 x,1/2-y,1/2+z
_cell_length_a                   11.361(5)
_cell_length_b                   15.532(5)
_cell_length_c                   16.269(5)
_cell_angle_alpha                90
_cell_angle_beta                 94.661(5)
_cell_angle_gamma                90
_cell_volume                     2861.32
loop_
_atom_site_label
_atom_site_type_symbol
_atom_site_fract_x
_atom_site_fract_y
_atom_site_fract_z
Zn1 Zn 0.02421(4) 0.12599(3) 0.03811(3)
O1 O 0.0302(3) 0.19925(18) 0.16157(18)
O2 O 0.0115(3) 0.26194(19) 0.04080(17)
O3 O -0.0505(4) 0.5716(2) 0.09436(19)
N1 N -0.1640(3) 0.1184(2) 0.0407(2)
N2 N -0.7872(3) 0.1290(2) 0.0390(2)
C1 C 0.0010(4) 0.3518(3) 0.1582(3)
C2 C -0.0160(3) 0.4360(2) 0.2803(2)
C3 C -0.5408(4) 0.1249(3) 0.0399(3)
C4 C 0.0160(4) 0.2653(3) 0.1180(3)
C5 C -0.4103(4) 0.1221(3) 0.0402(3)
C6 C 0.0031(4) 0.3574(3) 0.2433(3)
C7 C -0.0181(4) 0.4240(3) 0.1097(3)
C8 C -0.0360(5) 0.5036(3) 0.1470(3)
C9 C -0.0374(4) 0.5097(3) 0.2325(3)
C10 C -0.3420(4) 0.0791(4) 0.0994(3)
C11 C -0.6107(4) 0.1465(4) -0.0295(3)
C12 C -0.2207(4) 0.0786(4) 0.0977(3)
C13 C -0.7324(4) 0.1474(3) -0.0278(3)
C14 C -0.3513(5) 0.1670(6) -0.0179(4)
C15 C -0.5974(5) 0.1106(6) 0.1105(4)
C16 C -0.7196(4) 0.1137(5) 0.1074(3)
C17 C -0.2295(5) 0.1648(5) -0.0147(4)
C18 C -0.0759(7) 0.6537(3) 0.1290(3)
C19 C -0.1992(8) 0.6589(4) 0.1507(4)
O4 O 0.0126(3) 0.37595(17) 0.41308(17)
O5 O -0.0474(3) 0.51194(18) 0.40246(17)
C20 C -0.0170(3) 0.4422(2) 0.3720(2)
C21 C -0.2996(11) 0.6665(8) 0.1669(6)
H1 H -0.014(4) 0.422(3) 0.050(3)
H2 H 0.018(4) 0.314(3) 0.277(3)
H3 H -0.054(4) 0.565(3) 0.254(3)
H4 H -0.379(7) 0.026(5) 0.134(5)
H5 H -0.777(5) 0.164(4) -0.072(4)
H6 H -0.564(8) 0.099(6) 0.166(6)
H7 H -0.768(6) 0.117(4) 0.157(4)
H8 H -0.172(7) 0.041(5) 0.140(5)
H9 H -0.582(7) 0.153(5) -0.077(5)
H10 H -0.394(7) 0.204(5) -0.053(5)
H11 H -0.184(7) 0.211(5) -0.050(5)
H12 H -0.371(6) 0.681(8) 0.198(6)
Zn1_2 Zn -0.97579(4) 0.12599(3) 0.03811(3)
Zn1A Zn -0.02421(4) 0.62599(3) 0.46189(3)
Zn1C Zn 0.02421(4) 0.37401(3) 0.53811(3)
N2_2 N 0.2128(3) 0.1290(2) 0.0390(2)
O4C O 0.0126(3) 0.12405(17) -0.08692(17)
O5A O 0.0474(3) 0.01194(18) 0.09754(17)
C22 C 0.2998(10) 0.3705(8) 0.0712(8)
H13 H 0.3142 0.3107 0.0833
H14 H 0.3527 0.3898 0.0320
H15 H 0.2197 0.3779 0.0487
N3 N 0.3172(11) 0.4153(13) 0.1386(8)
C23 C 0.331(2) 0.392(3) 0.2241(13)
H16 H 0.3445 0.4427 0.2571
H17 H 0.3965 0.3534 0.2336
H18 H 0.2601 0.3640 0.2390
O6 O 0.293(3) 0.527(3) 0.053(2)
C24 C 0.307(2) 0.4999(19) 0.140(2)
H19 H 0.3080 0.5349 0.1868
O7 O -0.5546(11) 0.7098(14) 0.1984(8)
H20 H -0.566(4) 0.764(3) 0.238(3)
H21 H -0.600(7) 0.675(5) 0.142(5)
N4 N -0.366(2) 0.3723(16) 0.1936(17)
C25 C -0.328(3) 0.2926(18) 0.229(2)
H22 H -0.3991 0.2632 0.2266
C26 C -0.360(3) 0.384(4) 0.1050(17)
O8 O -0.251(2) 0.2278(15) 0.2666(15)
C27 C -0.355(2) 0.4192(19) 0.2615(19)
loop_
_geom_bond_atom_site_label_1
_geom_bond_atom_site_label_2
_geom_bond_site_symmetry_1
_geom_bond_site_symmetry_2
Zn1 O1 1_555 1_555
O1 C4 1_555 1_555
O2 Zn1 1_555 1_555
O3 C8 1_555 1_555
N1 Zn1 1_555 1_555
N2 C13 1_555 1_555
C1 C4 1_555 1_555
C2 C6 1_555 1_555
C3 C5 1_555 1_555
C4 O2 1_555 1_555
C5 C10 1_555 1_555
C6 C1 1_555 1_555
C7 C1 1_555 1_555
C8 C7 1_555 1_555
C9 C2 1_555 1_555
C10 C12 1_555 1_555
C11 C3 1_555 1_555
C12 N1 1_555 1_555
C13 C11 1_555 1_555
C14 C5 1_555 1_555
C15 C3 1_555 1_555
C16 N2 1_555 1_555
C17 N1 1_555 1_555
C18 O3 1_555 1_555
C19 C18 1_555 1_555
O4 C20 1_555 1_555
O5 C20 1_555 1_555
C20 C2 1_555 1_555
C21 C19 1_555 1_555
H1 C7 1_555 1_555
H2 C6 1_555 1_555
H3 C9 1_555 1_555
H4 C10 1_555 1_555
H5 C13 1_555 1_555
H6 C15 1_555 1_555
H7 C16 1_555 1_555
H8 C12 1_555 1_555
H9 C11 1_555 1_555
H10 C14 1_555 1_555
H11 C17 1_555 1_555
H12 C21 1_555 1_555
C22 H13 1_555 1_555
H14 C22 1_555 1_555
H15 C22 1_555 1_555
N3 C22 1_555 1_555
C23 N3 1_555 1_555
H16 C23 1_555 1_555
H17 C23 1_555 1_555
H18 C23 1_555 1_555
O6 C24 1_555 1_555
C24 N3 1_555 1_555
H19 C24 1_555 1_555
O7 H20 1_555 1_555
H21 O7 1_555 1_555
N4 C25 1_555 1_555
C25 H22 1_555 1_555
C26 N4 1_555 1_555
O8 C25 1_555 1_555
C27 N4 1_555 1_555
Zn1_2 N2 1_555 1_555
Zn1A O5 1_555 1_555
Zn1C O4 1_555 1_555
N2_2 Zn1 1_555 1_555
O4C Zn1 1_555 1_555
O5A Zn1 1_555 1_555
C8 C9 1_555 1_555
C14 C17 1_555 1_555
C15 C16 1_555 1_555

#END
