
#######################################################################
#
#                 Cambridge Crystallographic Data Centre
#                                CCDC 
#
#######################################################################
#
# If this CIF has been generated from an entry in the Cambridge 
# Structural Database, then it will include bibliographic, chemical, 
# crystal, experimental, refinement or atomic coordinate data resulting 
# from the CCDC's data processing and validation procedures.
#
#######################################################################

data_JOBGIS
_chemical_formula_moiety         '(C96 H60 N10 O2 Zn2)n'
_symmetry_cell_setting           tetragonal
_symmetry_space_group_name_H-M   'I 41'
_symmetry_Int_Tables_number      80
_space_group_name_Hall           'I 4bw'
loop_
_symmetry_equiv_pos_site_id
_symmetry_equiv_pos_as_xyz
1 x,y,z
2 -y,1/2+x,1/4+z
3 1/2-x,1/2-y,1/2+z
4 1/2+y,-x,3/4+z
5 1/2+x,1/2+y,1/2+z
6 1/2-y,x,3/4+z
7 -x,-y,z
8 y,1/2-x,1/4+z
_cell_length_a                   17.809(2)
_cell_length_b                   17.809(2)
_cell_length_c                   27.080(8)
_cell_angle_alpha                90
_cell_angle_beta                 90
_cell_angle_gamma                90
_cell_volume                     8588.71
loop_
_atom_site_label
_atom_site_type_symbol
_atom_site_fract_x
_atom_site_fract_y
_atom_site_fract_z
_atom_site_U_iso_or_equiv
_atom_site_thermal_displace_type
Zn1 Zn 0.49893(6) 0.79936(5) 0.81786(4) 0.0741 Uani
N1 N 0.5256(4) 0.8369(4) 0.7497(3) 0.0637 Uani
N2 N 0.4185(4) 0.7315(4) 0.7868(3) 0.0770 Uani
N3 N 0.4863(5) 0.7410(4) 0.8840(3) 0.0890 Uani
N4 N 0.5958(4) 0.8448(3) 0.8440(2) 0.0607 Uani
C1 C 0.5876(5) 0.8814(4) 0.7382(3) 0.0720 Uani
C2 C 0.4810(5) 0.8360(5) 0.7087(4) 0.0680 Uani
C3 C 0.3859(5) 0.7431(5) 0.7405(4) 0.0810 Uani
C4 C 0.3734(6) 0.6811(5) 0.8117(6) 0.1093 Uani
C5 C 0.4316(7) 0.6898(5) 0.8940(4) 0.0867 Uani
C6 C 0.5260(6) 0.7503(6) 0.9268(4) 0.0847 Uani
C7 C 0.6235(5) 0.8394(5) 0.8900(4) 0.0707 Uani
C8 C 0.6517(4) 0.8811(4) 0.8190(3) 0.0600 Uani
C9 C 0.5803(6) 0.9050(5) 0.6868(4) 0.0793 Uani
H1 H 0.6153 0.9343 0.6687 0.0950 Uiso
C10 C 0.5141(5) 0.8773(5) 0.6697(4) 0.0763 Uani
H2 H 0.4939 0.8844 0.6376 0.0920 Uiso
C11 C 0.3214(6) 0.6955(6) 0.7357(4) 0.0837 Uani
H3 H 0.2902 0.6914 0.7074 0.1000 Uiso
C12 C 0.3133(6) 0.6586(6) 0.7773(4) 0.0903 Uani
H4 H 0.2748 0.6231 0.7842 0.1080 Uiso
C13 C 0.4370(6) 0.6696(6) 0.9422(5) 0.0973 Uani
H5 H 0.4061 0.6334 0.9580 0.1170 Uiso
C14 C 0.4928(6) 0.7086(5) 0.9647(5) 0.0863 Uani
H6 H 0.5064 0.7077 0.9986 0.1040 Uiso
C15 C 0.6961(6) 0.8747(4) 0.8955(3) 0.0720 Uani
H7 H 0.7250 0.8792 0.9249 0.0870 Uiso
C16 C 0.7138(5) 0.8993(5) 0.8508(4) 0.0730 Uani
H8 H 0.7588 0.9243 0.8416 0.0880 Uiso
C17 C 0.4159(6) 0.7909(5) 0.7050(4) 0.0777 Uani
C18 C 0.3835(8) 0.6592(6) 0.8631(6) 0.1117 Uani
C19 C 0.5902(5) 0.7959(5) 0.9310(4) 0.0860 Uani
C20 C 0.6479(5) 0.8982(4) 0.7686(3) 0.0677 Uani
C21 C 0.3719(5) 0.8001(4) 0.6599(4) 0.0710 Uani
C22 C 0.3301(6) 0.8642(7) 0.6485(5) 0.1023 Uani
H9 H 0.3312 0.9050 0.6711 0.1230 Uiso
C23 C 0.2892(7) 0.8711(6) 0.6080(6) 0.1147 Uani
H10 H 0.2608 0.9155 0.6027 0.1370 Uiso
C24 C 0.2875(5) 0.8143(6) 0.5734(6) 0.1063 Uani
H11 H 0.2571 0.8202 0.5449 0.1270 Uiso
C25 C 0.3290(4) 0.7486(5) 0.5791(3) 0.0723 Uani
H12 H 0.3285 0.7093 0.5553 0.0870 Uiso
C26 C 0.3713(4) 0.7448(4) 0.6224(3) 0.0657 Uani
C27 C 0.3212(4) 0.6053(4) 0.8827(2) 0.1287 Uani
C28 C 0.2584(4) 0.6275(4) 0.9095(4) 0.1347 Uani
H13 H 0.2498 0.6792 0.9158 0.1620 Uiso
C29 C 0.2084(4) 0.5739(4) 0.9271(3) 0.1517 Uani
H14 H 0.1654 0.5891 0.9454 0.1820 Uiso
C30 C 0.2210(4) 0.4982(4) 0.9179(3) 0.1610 Uani
H15 H 0.1868 0.4616 0.9299 0.1930 Uiso
C31 C 0.2838(5) 0.4760(4) 0.8912(4) 0.1650 Uani
H16 H 0.2925 0.4242 0.8849 0.1980 Uiso
C32 C 0.3339(5) 0.5295(4) 0.8736(4) 0.1597 Uani
H17 H 0.3768 0.5144 0.8553 0.1920 Uiso
C33 C 0.6290(5) 0.7951(6) 0.9787(4) 0.0753 Uani
C34 C 0.6323(6) 0.8567(7) 1.0083(4) 0.0910 Uani
H18 H 0.6119 0.9026 0.9966 0.1090 Uiso
C35 C 0.6648(6) 0.8554(8) 1.0558(5) 0.1180 Uani
H19 H 0.6633 0.8985 1.0764 0.1410 Uiso
C36 C 0.7003(6) 0.7872(11) 1.0723(6) 0.1217 Uani
H20 H 0.7235 0.7836 1.1038 0.1460 Uiso
C37 C 0.6987(8) 0.7289(10) 1.0410(6) 0.1300 Uani
H21 H 0.7249 0.6846 1.0501 0.1560 Uiso
C38 C 0.6599(7) 0.7291(7) 0.9943(5) 0.1127 Uani
H22 H 0.6559 0.6848 0.9750 0.1350 Uiso
C39 C 0.7145(5) 0.9354(5) 0.7434(3) 0.0623 Uani
C40 C 0.7531(6) 0.8937(6) 0.7090(4) 0.0907 Uani
H23 H 0.7399 0.8429 0.7024 0.1090 Uiso
C41 C 0.8127(6) 0.9287(7) 0.6839(4) 0.0980 Uani
H24 H 0.8383 0.9024 0.6585 0.1180 Uiso
C42 C 0.8341(5) 0.9997(7) 0.6956(5) 0.1070 Uani
H25 H 0.8756 1.0220 0.6790 0.1280 Uiso
C43 C 0.7966(7) 1.0393(7) 0.7309(5) 0.1050 Uani
H26 H 0.8103 1.0893 0.7392 0.1260 Uiso
C44 C 0.7372(5) 1.0032(6) 0.7543(4) 0.0900 Uani
H27 H 0.7116 1.0294 0.7798 0.1080 Uiso
C45 C 0.4163(5) 0.6087(5) 0.6169(3) 0.0703 Uani
C46 C 0.4614(4) 0.5548(4) 0.6447(3) 0.0603 Uani
C47 C 0.5000 0.5000 0.6169(4) 0.0590 Uani
H28 H 0.5000 0.5000 0.5818 0.0710 Uiso
C48 C 0.4612(5) 0.5544(4) 0.6952(3) 0.0710 Uani
H29 H 0.4343 0.5917 0.7130 0.0850 Uiso
C49 C 0.5000 0.5000 0.7197(4) 0.0757 Uani
H30 H 0.5000 0.5000 0.7548 0.0910 Uiso
N5 N 0.4159(4) 0.6799(3) 0.6330(2) 0.0630 Uani
H31 H 0.4510 0.6887 0.6551 0.0760 Uiso
O1 O 0.3819(3) 0.5918(3) 0.5777(2) 0.0733 Uani
N1F N 0.4744(4) 0.1631(4) 0.7497(3) 0.0637 Uani
N2F N 0.5815(4) 0.2685(4) 0.7868(3) 0.0770 Uani
N3F N 0.5137(5) 0.2590(4) 0.8840(3) 0.0890 Uani
N4F N 0.4042(4) 0.1552(3) 0.8440(2) 0.0607 Uani
C1F C 0.4124(5) 0.1186(4) 0.7382(3) 0.0720 Uani
C2F C 0.5190(5) 0.1640(5) 0.7087(4) 0.0680 Uani
C3F C 0.6141(5) 0.2569(5) 0.7405(4) 0.0810 Uani
C4F C 0.6266(6) 0.3189(5) 0.8117(6) 0.1093 Uani
C5F C 0.5684(7) 0.3102(5) 0.8940(4) 0.0867 Uani
C6F C 0.4740(6) 0.2497(6) 0.9268(4) 0.0847 Uani
C7F C 0.3765(5) 0.1606(5) 0.8900(4) 0.0707 Uani
C8F C 0.3483(4) 0.1189(4) 0.8190(3) 0.0600 Uani
C9F C 0.4197(6) 0.0950(5) 0.6868(4) 0.0793 Uani
H1F H 0.3847 0.0657 0.6687 0.0950 Uiso
C10F C 0.4859(5) 0.1227(5) 0.6697(4) 0.0763 Uani
H2F H 0.5061 0.1156 0.6376 0.0920 Uiso
C11F C 0.6786(6) 0.3045(6) 0.7357(4) 0.0837 Uani
H3F H 0.7098 0.3086 0.7074 0.1000 Uiso
C12F C 0.6867(6) 0.3414(6) 0.7773(4) 0.0903 Uani
H4F H 0.7252 0.3769 0.7842 0.1080 Uiso
C13F C 0.5630(6) 0.3304(6) 0.9422(5) 0.0973 Uani
H5F H 0.5939 0.3666 0.9580 0.1170 Uiso
C14F C 0.5072(6) 0.2914(5) 0.9647(5) 0.0863 Uani
H6F H 0.4936 0.2923 0.9986 0.1040 Uiso
C15F C 0.3039(6) 0.1253(4) 0.8955(3) 0.0720 Uani
H7F H 0.2750 0.1208 0.9249 0.0870 Uiso
C16F C 0.2862(5) 0.1007(5) 0.8508(4) 0.0730 Uani
H8F H 0.2412 0.0757 0.8416 0.0880 Uiso
C17F C 0.5841(6) 0.2091(5) 0.7050(4) 0.0777 Uani
C18F C 0.6165(8) 0.3408(6) 0.8631(6) 0.1117 Uani
C19F C 0.4098(5) 0.2041(5) 0.9310(4) 0.0860 Uani
C20F C 0.3521(5) 0.1018(4) 0.7686(3) 0.0677 Uani
C21F C 0.6281(5) 0.1999(4) 0.6599(4) 0.0710 Uani
C22F C 0.6699(6) 0.1358(7) 0.6485(5) 0.1023 Uani
H9F H 0.6688 0.0950 0.6711 0.1230 Uiso
C23F C 0.7108(7) 0.1289(6) 0.6080(6) 0.1147 Uani
H10F H 0.7392 0.0845 0.6027 0.1370 Uiso
C24F C 0.7125(5) 0.1857(6) 0.5734(6) 0.1063 Uani
H11F H 0.7429 0.1798 0.5449 0.1270 Uiso
C25F C 0.6710(4) 0.2514(5) 0.5791(3) 0.0723 Uani
H12F H 0.6715 0.2907 0.5553 0.0870 Uiso
C26F C 0.6287(4) 0.2552(4) 0.6224(3) 0.0657 Uani
C27F C 0.6788(4) 0.3947(4) 0.8827(2) 0.1287 Uani
C28F C 0.7416(4) 0.3725(4) 0.9095(4) 0.1347 Uani
H13F H 0.7502 0.3208 0.9158 0.1620 Uiso
C29F C 0.7916(4) 0.4261(4) 0.9271(3) 0.1517 Uani
H14F H 0.8346 0.4109 0.9454 0.1820 Uiso
C30F C 0.7790(4) 0.5018(4) 0.9179(3) 0.1610 Uani
H15F H 0.8132 0.5384 0.9299 0.1930 Uiso
C31F C 0.7162(5) 0.5240(4) 0.8912(4) 0.1650 Uani
H16F H 0.7075 0.5758 0.8849 0.1980 Uiso
C32F C 0.6661(5) 0.4705(4) 0.8736(4) 0.1597 Uani
H17F H 0.6232 0.4856 0.8553 0.1920 Uiso
C33F C 0.3710(5) 0.2049(6) 0.9787(4) 0.0753 Uani
C34F C 0.3677(6) 0.1433(7) 1.0083(4) 0.0910 Uani
H18F H 0.3881 0.0974 0.9966 0.1090 Uiso
C35F C 0.3352(6) 0.1446(8) 1.0558(5) 0.1180 Uani
H19F H 0.3367 0.1015 1.0764 0.1410 Uiso
C36F C 0.2997(6) 0.2128(11) 1.0723(6) 0.1217 Uani
H20F H 0.2765 0.2164 1.1038 0.1460 Uiso
C37F C 0.3013(8) 0.2711(10) 1.0410(6) 0.1300 Uani
H21F H 0.2751 0.3154 1.0501 0.1560 Uiso
C38F C 0.3401(7) 0.2709(7) 0.9943(5) 0.1127 Uani
H22F H 0.3441 0.3152 0.9750 0.1350 Uiso
C39F C 0.2855(5) 0.0646(5) 0.7434(3) 0.0623 Uani
C40F C 0.2469(6) 0.1063(6) 0.7090(4) 0.0907 Uani
H23F H 0.2601 0.1571 0.7024 0.1090 Uiso
C41F C 0.1873(6) 0.0713(7) 0.6839(4) 0.0980 Uani
H24F H 0.1617 0.0976 0.6585 0.1180 Uiso
C42F C 0.1659(5) 0.0003(7) 0.6956(5) 0.1070 Uani
H25F H 0.1244 -0.0220 0.6790 0.1280 Uiso
C43F C 0.2034(7) -0.0393(7) 0.7309(5) 0.1050 Uani
H26F H 0.1897 -0.0893 0.7392 0.1260 Uiso
C44F C 0.2628(5) -0.0032(6) 0.7543(4) 0.0900 Uani
H27F H 0.2884 -0.0294 0.7798 0.1080 Uiso
C45F C 0.5837(5) 0.3913(5) 0.6169(3) 0.0703 Uani
C46F C 0.5386(4) 0.4452(4) 0.6447(3) 0.0603 Uani
C48F C 0.5388(5) 0.4456(4) 0.6952(3) 0.0710 Uani
H29F H 0.5657 0.4083 0.7130 0.0850 Uiso
N5F N 0.5841(4) 0.3201(3) 0.6330(2) 0.0630 Uani
H31F H 0.5490 0.3113 0.6551 0.0760 Uiso
O1F O 0.6181(3) 0.4082(3) 0.5777(2) 0.0733 Uani
Zn1F Zn 0.50107(6) 0.20064(5) 0.81786(4) 0.0741 Uani
Zn1C Zn 0.29936(5) 0.50107(6) 0.56786(4) 0.0741 Uani
Zn1E Zn 0.70064(5) 0.49893(6) 0.56786(4) 0.0741 Uani
O1A O 0.4082(3) 0.8819(3) 0.8277(2) 0.0733 Uani
O1G O 0.5918(3) 0.1181(3) 0.8277(2) 0.0733 Uani
loop_
_atom_site_aniso_label
_atom_site_aniso_U_11
_atom_site_aniso_U_22
_atom_site_aniso_U_33
_atom_site_aniso_U_23
_atom_site_aniso_U_13
_atom_site_aniso_U_12
Zn1 0.0797(7) 0.0617(6) 0.0810(6) -0.0094(5) 0.0199(5) -0.0205(5)
N1 0.066(4) 0.059(4) 0.066(4) -0.014(3) 0.013(4) -0.016(3)
N2 0.078(5) 0.060(4) 0.093(6) -0.038(4) 0.025(4) -0.036(4)
N3 0.087(6) 0.065(5) 0.115(7) 0.007(4) 0.023(5) -0.026(4)
N4 0.081(4) 0.057(4) 0.044(3) 0.008(3) 0.016(3) -0.001(3)
C1 0.083(6) 0.045(5) 0.088(7) -0.005(4) 0.010(5) -0.001(4)
C2 0.062(5) 0.046(5) 0.096(7) -0.015(4) 0.026(5) 0.007(4)
C3 0.079(6) 0.062(6) 0.102(8) -0.054(6) 0.028(6) -0.030(5)
C4 0.095(7) 0.045(5) 0.188(14) -0.041(7) 0.031(9) -0.017(5)
C5 0.112(8) 0.059(6) 0.089(7) 0.007(5) 0.012(6) -0.051(6)
C6 0.093(7) 0.091(7) 0.070(6) -0.018(5) 0.014(5) -0.030(6)
C7 0.075(6) 0.050(5) 0.087(6) 0.006(4) 0.029(5) -0.006(4)
C8 0.064(5) 0.050(4) 0.066(5) 0.012(4) 0.010(5) 0.011(3)
C9 0.097(7) 0.056(5) 0.085(6) 0.003(4) 0.015(5) -0.020(5)
C10 0.070(6) 0.067(6) 0.092(7) -0.016(5) -0.010(5) -0.005(5)
C11 0.093(7) 0.090(6) 0.068(6) -0.044(5) 0.030(5) -0.029(5)
C12 0.096(7) 0.093(7) 0.082(7) -0.037(6) 0.028(5) -0.031(6)
C13 0.091(8) 0.077(7) 0.124(9) 0.025(6) 0.030(7) -0.016(6)
C14 0.071(6) 0.067(6) 0.121(9) 0.002(6) 0.015(6) -0.005(5)
C15 0.091(7) 0.058(5) 0.067(5) 0.003(4) 0.039(5) -0.007(5)
C16 0.065(5) 0.059(5) 0.095(6) -0.004(4) 0.003(5) -0.005(4)
C17 0.102(7) 0.045(5) 0.086(6) -0.041(5) 0.010(6) -0.010(5)
C18 0.119(10) 0.075(7) 0.141(11) 0.016(8) 0.049(9) -0.026(7)
C19 0.079(6) 0.063(6) 0.116(9) -0.009(5) 0.029(6) -0.014(5)
C20 0.074(6) 0.050(5) 0.079(6) -0.005(4) 0.005(5) -0.006(4)
C21 0.061(5) 0.039(4) 0.113(8) -0.016(4) 0.036(5) 0.005(4)
C22 0.080(7) 0.088(8) 0.139(10) -0.027(7) -0.005(7) 0.003(6)
C23 0.087(7) 0.061(6) 0.196(14) -0.015(8) -0.030(9) 0.013(5)
C24 0.057(5) 0.090(7) 0.172(11) -0.025(8) -0.010(7) 0.021(5)
C25 0.057(5) 0.078(6) 0.082(6) -0.006(5) -0.004(4) 0.012(4)
C26 0.057(5) 0.059(5) 0.081(6) -0.021(4) 0.000(4) 0.001(4)
C27 0.145(6) 0.103(5) 0.138(6) -0.015(5) 0.023(5) -0.029(5)
C28 0.127(6) 0.114(6) 0.163(6) 0.003(5) 0.024(5) -0.031(5)
C29 0.146(6) 0.133(6) 0.176(7) 0.004(6) 0.024(6) -0.025(6)
C30 0.168(7) 0.138(6) 0.177(7) -0.013(6) 0.013(6) -0.042(6)
C31 0.180(7) 0.138(6) 0.177(7) -0.014(6) 0.029(6) -0.038(6)
C32 0.180(7) 0.137(6) 0.162(6) -0.017(6) 0.039(6) -0.035(6)
C33 0.064(6) 0.079(7) 0.083(6) 0.002(5) 0.015(5) -0.005(5)
C34 0.080(7) 0.103(8) 0.090(8) 0.040(7) -0.003(6) -0.016(6)
C35 0.075(7) 0.149(11) 0.130(11) 0.022(9) 0.015(7) -0.039(8)
C36 0.075(7) 0.194(15) 0.096(9) 0.045(10) -0.001(7) -0.004(8)
C37 0.124(11) 0.154(14) 0.112(11) 0.042(10) 0.014(9) 0.032(10)
C38 0.123(9) 0.083(8) 0.132(10) 0.020(7) 0.011(8) 0.037(7)
C39 0.071(5) 0.067(5) 0.049(4) 0.004(4) 0.010(4) -0.001(4)
C40 0.073(6) 0.086(7) 0.113(8) 0.013(6) 0.003(6) -0.010(5)
C41 0.065(6) 0.120(8) 0.109(8) 0.013(7) 0.025(6) -0.017(6)
C42 0.043(5) 0.165(11) 0.113(9) 0.048(8) 0.004(6) -0.020(7)
C43 0.096(8) 0.095(8) 0.124(9) 0.018(7) 0.033(7) -0.028(6)
C44 0.062(6) 0.086(7) 0.122(8) 0.002(6) 0.011(6) -0.011(5)
C45 0.063(5) 0.078(6) 0.070(6) -0.024(5) 0.007(5) -0.001(4)
C46 0.067(5) 0.050(4) 0.064(5) -0.009(4) 0.007(4) 0.007(4)
C47 0.054(6) 0.063(7) 0.060(6) 0.000 0.000 -0.016(5)
C48 0.107(7) 0.048(5) 0.058(5) -0.005(4) 0.014(5) -0.011(5)
C49 0.111(10) 0.090(9) 0.026(5) 0.000 0.000 -0.009(8)
N5 0.062(4) 0.053(4) 0.074(4) -0.018(3) -0.011(3) 0.002(3)
O1 0.089(4) 0.069(3) 0.062(4) -0.013(3) -0.014(3) 0.015(3)
N1F 0.066 0.059 0.066 0.014 -0.013 -0.016
N2F 0.078 0.06 0.093 0.038 -0.025 -0.036
N3F 0.087 0.065 0.115 -0.007 -0.023 -0.026
N4F 0.081 0.057 0.044 -0.008 -0.016 -0.001
C1F 0.083 0.045 0.088 0.005 -0.01 -0.001
C2F 0.062 0.046 0.096 0.015 -0.026 0.007
C3F 0.079 0.062 0.102 0.054 -0.028 -0.03
C4F 0.095 0.045 0.188 0.041 -0.031 -0.017
C5F 0.112 0.059 0.089 -0.007 -0.012 -0.051
C6F 0.093 0.091 0.07 0.018 -0.014 -0.03
C7F 0.075 0.05 0.087 -0.006 -0.029 -0.006
C8F 0.064 0.05 0.066 -0.012 -0.01 0.011
C9F 0.097 0.056 0.085 -0.003 -0.015 -0.02
C10F 0.07 0.067 0.092 0.016 0.01 -0.005
C11F 0.093 0.09 0.068 0.044 -0.03 -0.029
C12F 0.096 0.093 0.082 0.037 -0.028 -0.031
C13F 0.091 0.077 0.124 -0.025 -0.03 -0.016
C14F 0.071 0.067 0.121 -0.002 -0.015 -0.005
C15F 0.091 0.058 0.067 -0.003 -0.039 -0.007
C16F 0.065 0.059 0.095 0.004 -0.003 -0.005
C17F 0.102 0.045 0.086 0.041 -0.01 -0.01
C18F 0.119 0.075 0.141 -0.016 -0.049 -0.026
C19F 0.079 0.063 0.116 0.009 -0.029 -0.014
C20F 0.074 0.05 0.079 0.005 -0.005 -0.006
C21F 0.061 0.039 0.113 0.016 -0.036 0.005
C22F 0.08 0.088 0.139 0.027 0.005 0.003
C23F 0.087 0.061 0.196 0.015 0.03 0.013
C24F 0.057 0.09 0.172 0.025 0.01 0.021
C25F 0.057 0.078 0.082 0.006 0.004 0.012
C26F 0.057 0.059 0.081 0.021 0 0.001
C27F 0.145 0.103 0.138 0.015 -0.023 -0.029
C28F 0.127 0.114 0.163 -0.003 -0.024 -0.031
C29F 0.146 0.133 0.176 -0.004 -0.024 -0.025
C30F 0.168 0.138 0.177 0.013 -0.013 -0.042
C31F 0.18 0.138 0.177 0.014 -0.029 -0.038
C32F 0.18 0.137 0.162 0.017 -0.039 -0.035
C33F 0.064 0.079 0.083 -0.002 -0.015 -0.005
C34F 0.08 0.103 0.09 -0.04 0.003 -0.016
C35F 0.075 0.149 0.13 -0.022 -0.015 -0.039
C36F 0.075 0.194 0.096 -0.045 0.001 -0.004
C37F 0.124 0.154 0.112 -0.042 -0.014 0.032
C38F 0.123 0.083 0.132 -0.02 -0.011 0.037
C39F 0.071 0.067 0.049 -0.004 -0.01 -0.001
C40F 0.073 0.086 0.113 -0.013 -0.003 -0.01
C41F 0.065 0.12 0.109 -0.013 -0.025 -0.017
C42F 0.043 0.165 0.113 -0.048 -0.004 -0.02
C43F 0.096 0.095 0.124 -0.018 -0.033 -0.028
C44F 0.062 0.086 0.122 -0.002 -0.011 -0.011
C45F 0.063 0.078 0.07 0.024 -0.007 -0.001
C46F 0.067 0.05 0.064 0.009 -0.007 0.007
C48F 0.107 0.048 0.058 0.005 -0.014 -0.011
N5F 0.062 0.053 0.074 0.018 0.011 0.002
O1F 0.089 0.069 0.062 0.013 0.014 0.015
Zn1F 0.0797 0.0617 0.081 0.0094 -0.0199 -0.0205
Zn1C 0.0617 0.0797 0.081 -0.0199 -0.0094 0.0205
Zn1E 0.0617 0.0797 0.081 0.0199 0.0094 0.0205
O1A 0.069 0.089 0.062 -0.014 0.013 -0.015
O1G 0.069 0.089 0.062 0.014 -0.013 -0.015
loop_
_geom_bond_atom_site_label_1
_geom_bond_atom_site_label_2
_geom_bond_site_symmetry_1
_geom_bond_site_symmetry_2
Zn1 N1 1_555 1_555
N1 C1 1_555 1_555
N2 Zn1 1_555 1_555
N3 Zn1 1_555 1_555
N4 Zn1 1_555 1_555
C1 C9 1_555 1_555
C2 N1 1_555 1_555
C3 N2 1_555 1_555
C4 N2 1_555 1_555
C5 N3 1_555 1_555
C6 N3 1_555 1_555
C7 N4 1_555 1_555
C8 N4 1_555 1_555
C9 H1 1_555 1_555
C10 C2 1_555 1_555
H2 C10 1_555 1_555
C11 C3 1_555 1_555
H3 C11 1_555 1_555
C12 C4 1_555 1_555
H4 C12 1_555 1_555
C13 C5 1_555 1_555
H5 C13 1_555 1_555
C14 C6 1_555 1_555
H6 C14 1_555 1_555
C15 C7 1_555 1_555
H7 C15 1_555 1_555
C16 C8 1_555 1_555
H8 C16 1_555 1_555
C17 C2 1_555 1_555
C18 C4 1_555 1_555
C19 C6 1_555 1_555
C20 C1 1_555 1_555
C21 C17 1_555 1_555
C22 C21 1_555 1_555
H9 C22 1_555 1_555
C23 C22 1_555 1_555
H10 C23 1_555 1_555
C24 C23 1_555 1_555
H11 C24 1_555 1_555
C25 C24 1_555 1_555
H12 C25 1_555 1_555
C26 C21 1_555 1_555
C27 C18 1_555 1_555
C28 C27 1_555 1_555
H13 C28 1_555 1_555
C29 C28 1_555 1_555
H14 C29 1_555 1_555
C30 C29 1_555 1_555
H15 C30 1_555 1_555
C31 C30 1_555 1_555
H16 C31 1_555 1_555
C32 C27 1_555 1_555
H17 C32 1_555 1_555
C33 C19 1_555 1_555
C34 C33 1_555 1_555
H18 C34 1_555 1_555
C35 C34 1_555 1_555
H19 C35 1_555 1_555
C36 C35 1_555 1_555
H20 C36 1_555 1_555
C37 C36 1_555 1_555
H21 C37 1_555 1_555
C38 C33 1_555 1_555
H22 C38 1_555 1_555
C39 C20 1_555 1_555
C40 C39 1_555 1_555
H23 C40 1_555 1_555
C41 C40 1_555 1_555
H24 C41 1_555 1_555
C42 C41 1_555 1_555
H25 C42 1_555 1_555
C43 C42 1_555 1_555
H26 C43 1_555 1_555
C44 C39 1_555 1_555
H27 C44 1_555 1_555
C45 C46 1_555 1_555
C46 C47 1_555 1_555
C47 H28 1_555 1_555
C48 C46 1_555 1_555
H29 C48 1_555 1_555
C49 C48 1_555 1_555
H30 C49 1_555 1_555
N5 C26 1_555 1_555
H31 N5 1_555 1_555
O1 C45 1_555 1_555
N1F C1F 1_555 1_555
N2F C3F 1_555 1_555
N3F C5F 1_555 1_555
N4F C7F 1_555 1_555
C1F C9F 1_555 1_555
C2F N1F 1_555 1_555
C3F C11F 1_555 1_555
C4F N2F 1_555 1_555
C5F C13F 1_555 1_555
C6F N3F 1_555 1_555
C7F C15F 1_555 1_555
C8F N4F 1_555 1_555
C9F H1F 1_555 1_555
C10F C2F 1_555 1_555
H2F C10F 1_555 1_555
C11F H3F 1_555 1_555
C12F C4F 1_555 1_555
H4F C12F 1_555 1_555
C13F H5F 1_555 1_555
C14F C6F 1_555 1_555
H6F C14F 1_555 1_555
C15F H7F 1_555 1_555
C16F C8F 1_555 1_555
H8F C16F 1_555 1_555
C17F C2F 1_555 1_555
C18F C4F 1_555 1_555
C19F C6F 1_555 1_555
C20F C1F 1_555 1_555
C21F C17F 1_555 1_555
C22F C21F 1_555 1_555
H9F C22F 1_555 1_555
C23F C22F 1_555 1_555
H10F C23F 1_555 1_555
C24F C23F 1_555 1_555
H11F C24F 1_555 1_555
C25F C24F 1_555 1_555
H12F C25F 1_555 1_555
C26F C21F 1_555 1_555
C27F C18F 1_555 1_555
C28F C27F 1_555 1_555
H13F C28F 1_555 1_555
C29F C28F 1_555 1_555
H14F C29F 1_555 1_555
C30F C29F 1_555 1_555
H15F C30F 1_555 1_555
C31F C30F 1_555 1_555
H16F C31F 1_555 1_555
C32F C27F 1_555 1_555
H17F C32F 1_555 1_555
C33F C19F 1_555 1_555
C34F C33F 1_555 1_555
H18F C34F 1_555 1_555
C35F C34F 1_555 1_555
H19F C35F 1_555 1_555
C36F C35F 1_555 1_555
H20F C36F 1_555 1_555
C37F C36F 1_555 1_555
H21F C37F 1_555 1_555
C38F C33F 1_555 1_555
H22F C38F 1_555 1_555
C39F C20F 1_555 1_555
C40F C39F 1_555 1_555
H23F C40F 1_555 1_555
C41F C40F 1_555 1_555
H24F C41F 1_555 1_555
C42F C41F 1_555 1_555
H25F C42F 1_555 1_555
C43F C42F 1_555 1_555
H26F C43F 1_555 1_555
C44F C39F 1_555 1_555
H27F C44F 1_555 1_555
C45F C46F 1_555 1_555
C46F C47 1_555 1_555
C48F C49 1_555 1_555
H29F C48F 1_555 1_555
N5F C26F 1_555 1_555
H31F N5F 1_555 1_555
O1F C45F 1_555 1_555
Zn1F N1F 1_555 1_555
Zn1C O1 1_555 1_555
Zn1E O1F 1_555 1_555
O1A Zn1 1_555 1_555
O1G Zn1F 1_555 1_555
C3 C17 1_555 1_555
C5 C18 1_555 1_555
C7 C19 1_555 1_555
C8 C20 1_555 1_555
C9 C10 1_555 1_555
C11 C12 1_555 1_555
C13 C14 1_555 1_555
C15 C16 1_555 1_555
C25 C26 1_555 1_555
C31 C32 1_555 1_555
C37 C38 1_555 1_555
C43 C44 1_555 1_555
C45 N5 1_555 1_555
N2F Zn1F 1_555 1_555
N3F Zn1F 1_555 1_555
N4F Zn1F 1_555 1_555
C3F C17F 1_555 1_555
C5F C18F 1_555 1_555
C7F C19F 1_555 1_555
C8F C20F 1_555 1_555
C9F C10F 1_555 1_555
C11F C12F 1_555 1_555
C13F C14F 1_555 1_555
C15F C16F 1_555 1_555
C25F C26F 1_555 1_555
C31F C32F 1_555 1_555
C37F C38F 1_555 1_555
C43F C44F 1_555 1_555
C45F N5F 1_555 1_555
C46F C48F 1_555 1_555

#END
