
#######################################################################
#
#                 Cambridge Crystallographic Data Centre
#                                CCDC 
#
#######################################################################
#
# If this CIF has been generated from an entry in the Cambridge 
# Structural Database, then it will include bibliographic, chemical, 
# crystal, experimental, refinement or atomic coordinate data resulting 
# from the CCDC's data processing and validation procedures.
#
#######################################################################

data_DAPHOU
_chemical_formula_moiety         '(C32 H20 N4 O20 Zn4)n'
_symmetry_cell_setting           rhombohedral
_symmetry_space_group_name_H-M   'R -3'
_symmetry_Int_Tables_number      148
_space_group_name_Hall           '-R 3'
loop_
_symmetry_equiv_pos_site_id
_symmetry_equiv_pos_as_xyz
1 x,y,z
2 -y,x-y,z
3 -x+y,-x,z
4 2/3+x,1/3+y,1/3+z
5 2/3-y,1/3+x-y,1/3+z
6 2/3-x+y,1/3-x,1/3+z
7 1/3+x,2/3+y,2/3+z
8 1/3-y,2/3+x-y,2/3+z
9 1/3-x+y,2/3-x,2/3+z
10 -x,-y,-z
11 y,-x+y,-z
12 x-y,x,-z
13 1/3-x,2/3-y,2/3-z
14 1/3+y,2/3-x+y,2/3-z
15 1/3+x-y,2/3+x,2/3-z
16 2/3-x,1/3-y,1/3-z
17 2/3+y,1/3-x+y,1/3-z
18 2/3+x-y,1/3+x,1/3-z
_cell_length_a                   38.569(9)
_cell_length_b                   38.569(9)
_cell_length_c                   28.647(9)
_cell_angle_alpha                90
_cell_angle_beta                 90
_cell_angle_gamma                120
_cell_volume                     36905.1
loop_
_atom_site_label
_atom_site_type_symbol
_atom_site_fract_x
_atom_site_fract_y
_atom_site_fract_z
_atom_site_U_iso_or_equiv
_atom_site_thermal_displace_type
Zn1 Zn -0.28056(2) 0.24205(2) 0.45337(3) 0.0417 Uani
Zn2 Zn -0.26135(2) 0.21700(2) 0.54392(3) 0.0408 Uani
Zn3 Zn -0.03034(2) 0.23275(2) 0.54976(3) 0.0398 Uani
Zn4 Zn 0.01533(2) 0.25878(2) 0.46014(3) 0.0393 Uani
C1 C -0.1582(2) 0.2618(2) 0.4562(3) 0.0504 Uani
C2 C -0.1502(3) 0.2786(4) 0.4123(3) 0.0848 Uani
H1 H -0.1696 0.2826 0.3966 0.1020 Uiso
C3 C -0.1147(3) 0.2894(3) 0.3914(3) 0.0669 Uani
C4 C -0.0858(2) 0.2842(3) 0.4131(3) 0.0632 Uani
H2 H -0.0613 0.2915 0.3976 0.0760 Uiso
C5 C -0.0926(2) 0.2680(3) 0.4585(3) 0.0537 Uani
C6 C -0.1299(2) 0.2570(3) 0.4796(3) 0.0567 Uani
H3 H -0.1354 0.2462 0.5102 0.0680 Uiso
C7 C -0.1977(3) 0.2491(3) 0.4772(3) 0.0634 Uani
C8 C -0.0633(2) 0.2596(3) 0.4817(3) 0.0604 Uani
C9 C -0.0707(3) 0.3383(4) 0.2854(4) 0.0801 Uani
C10 C -0.0986(3) 0.3449(3) 0.2636(3) 0.0677 Uani
H4 H -0.1236 0.3368 0.2781 0.0810 Uiso
C11 C -0.0899(2) 0.3639(3) 0.2189(3) 0.0580 Uani
C12 C -0.0539(2) 0.3749(3) 0.1993(3) 0.0516 Uani
H5 H -0.0484 0.3864 0.1690 0.0620 Uiso
C13 C -0.0244(3) 0.3700(3) 0.2222(3) 0.0636 Uani
C14 C -0.0336(3) 0.3511(3) 0.2646(3) 0.0708 Uani
H6 H -0.0144 0.3467 0.2802 0.0840 Uiso
C15 C -0.1201(2) 0.3708(2) 0.1967(2) 0.0428 Uani
C16 C 0.0161(2) 0.3839(3) 0.2012(3) 0.0550 Uani
C17 C -0.0805(2) 0.1369(2) 0.4487(3) 0.0564 Uani
C18 C -0.0724(3) 0.1275(3) 0.4070(4) 0.0858 Uani
H7 H -0.0480 0.1458 0.3922 0.1030 Uiso
C19 C -0.0986(3) 0.0916(3) 0.3839(4) 0.0857 Uani
C20 C -0.1356(3) 0.0666(3) 0.4019(3) 0.0696 Uani
H8 H -0.1555 0.0448 0.3844 0.0830 Uiso
C21 C -0.1434(2) 0.0746(2) 0.4478(3) 0.0602 Uani
C22 C -0.1165(3) 0.1086(2) 0.4711(3) 0.0562 Uani
H9 H -0.1220 0.1132 0.5021 0.0680 Uiso
C23 C -0.0526(3) 0.1745(2) 0.4716(3) 0.0556 Uani
C24 C -0.1827(2) 0.0453(2) 0.4691(3) 0.0499 Uani
C25 C -0.0166(3) 0.1100(3) 0.2572(3) 0.0812 Uani
H10 H 0.0042 0.1322 0.2734 0.0980 Uiso
C26 C -0.0091(3) 0.0994(2) 0.2140(3) 0.0612 Uani
C27 C -0.0409(3) 0.0655(2) 0.1904(3) 0.0650 Uani
H11 H -0.0365 0.0581 0.1603 0.0780 Uiso
C28 C -0.0763(3) 0.0446(3) 0.2108(3) 0.0646 Uani
C29 C -0.0850(3) 0.0536(3) 0.2546(4) 0.0821 Uani
H12 H -0.1103 0.0372 0.2689 0.0990 Uiso
C30 C -0.0548(3) 0.0883(3) 0.2771(3) 0.0716 Uani
C31 C 0.0317(2) 0.1223(2) 0.1949(4) 0.0614 Uani
C32 C -0.1112(2) 0.0054(2) 0.1875(3) 0.0576 Uani
N1 N -0.1091(2) 0.3081(3) 0.3454(3) 0.0803 Uani
N2 N -0.0750(3) 0.3205(3) 0.3289(3) 0.0854 Uani
N3 N -0.0921(3) 0.0803(3) 0.3395(3) 0.1016 Uani
N4 N -0.0588(3) 0.1009(3) 0.3206(3) 0.0990 Uani
O1 O -0.22376(19) 0.2503(2) 0.4522(2) 0.0670 Uani
O2 O -0.20582(18) 0.2337(2) 0.5186(2) 0.0679 Uani
O3 O -0.03417(16) 0.2658(2) 0.4566(2) 0.0651 Uani
O4 O -0.06938(17) 0.2477(2) 0.52313(19) 0.0606 Uani
O5 O -0.14876(16) 0.36628(18) 0.22137(19) 0.0559 Uani
O6 O -0.11279(16) 0.38497(18) 0.1564(2) 0.0629 Uani
O7 O 0.02151(18) 0.3998(2) 0.1601(2) 0.0629 Uani
O8 O 0.04045(17) 0.38387(19) 0.2257(2) 0.0637 Uani
O9 O -0.02303(16) 0.20169(18) 0.44746(19) 0.0594 Uani
O10 O -0.06182(17) 0.18077(18) 0.5125(2) 0.0676 Uani
O11 O -0.19000(18) 0.05338(16) 0.5097(2) 0.0652 Uani
O12 O -0.20484(18) 0.01670(15) 0.4457(2) 0.0657 Uani
O13 O 0.05776(17) 0.14798(18) 0.2193(2) 0.0621 Uani
O14 O 0.03725(19) 0.11451(19) 0.1527(3) 0.0774 Uani
O15 O -0.10391(16) -0.00020(19) 0.1473(2) 0.0713 Uani
O16 O -0.14018(16) -0.01415(18) 0.2131(2) 0.0619 Uani
O17 O -0.2846(2) 0.2560(2) 0.38763(17) 0.0737 Uani
H13 H -0.2691 0.2540 0.3655 0.0880 Uiso
H14 H -0.3018 0.2644 0.3799 0.0880 Uiso
O18 O -0.2566(2) 0.2036(2) 0.60928(19) 0.0914 Uani
H15 H -0.2712 0.2066 0.6318 0.1090 Uiso
H16 H -0.2400 0.1944 0.6166 0.1090 Uiso
O19 O -0.05326(17) 0.21480(19) 0.61260(16) 0.0630 Uani
H17 H -0.0396 0.2097 0.6344 0.0760 Uiso
H18 H -0.0774 0.2118 0.6195 0.0760 Uiso
O20 O 0.03586(19) 0.2740(2) 0.39568(18) 0.0720 Uani
H19 H 0.0193 0.2728 0.3728 0.0860 Uiso
H20 H 0.0617 0.2822 0.3892 0.0860 Uiso
Zn1G Zn 0.09128(2) 0.14406(3) 0.12004(3) 0.0417 Uani
Zn1H Zn -0.14406(3) -0.05277(2) 0.12004(3) 0.0417 Uani
Zn1N Zn -0.18928(3) 0.38611(2) 0.21330(3) 0.0417 Uani
Zn2G Zn 0.11633(2) 0.18832(3) 0.21059(3) 0.0408 Uani
Zn2H Zn -0.18832(3) -0.07198(2) 0.21059(3) 0.0408 Uani
Zn2N Zn -0.14502(3) 0.40532(2) 0.12275(3) 0.0408 Uani
Zn3G Zn 0.10058(2) 0.40358(3) 0.21643(3) 0.0398 Uani
Zn3K Zn -0.26309(3) -0.03034(2) 0.45024(3) 0.0398 Uani
Zn4G Zn 0.07455(2) 0.42322(3) 0.12681(3) 0.0393 Uani
Zn4K Zn -0.24345(3) 0.01533(2) 0.53986(3) 0.0393 Uani
O5M O -0.30039(18) 0.18171(24) 0.44530(19) 0.0559 Uani
O6M O -0.28170(18) 0.16443(24) 0.5103(2) 0.0629 Uani
O7E O 0.04496(27) 0.31182(18) 0.4934(2) 0.0629 Uani
O8E O 0.01009(25) 0.29288(17) 0.5590(2) 0.0637 Uani
O11J O 0.05338(16) 0.24338(24) 0.4903(2) 0.0652 Uani
O12J O 0.01670(15) 0.22154(23) 0.5543(2) 0.0657 Uani
O13E O -0.24311(25) 0.27557(17) 0.5526(2) 0.0621 Uani
O14E O -0.25607(27) 0.29608(19) 0.4860(3) 0.0774 Uani
O15D O -0.33313(19) 0.22962(25) 0.4806(2) 0.0713 Uani
O16D O -0.31918(18) 0.20730(24) 0.5464(2) 0.0619 Uani
loop_
_atom_site_aniso_label
_atom_site_aniso_U_11
_atom_site_aniso_U_22
_atom_site_aniso_U_33
_atom_site_aniso_U_23
_atom_site_aniso_U_13
_atom_site_aniso_U_12
Zn1 0.0430(5) 0.0461(5) 0.0416(5) -0.0005(3) -0.0003(3) 0.0265(4)
Zn2 0.0498(5) 0.0437(5) 0.0374(5) 0.0019(3) 0.0033(3) 0.0297(4)
Zn3 0.0312(5) 0.0446(5) 0.0398(5) 0.0013(3) 0.0021(3) 0.0161(3)
Zn4 0.0309(5) 0.0416(5) 0.0403(5) 0.0011(3) 0.0020(3) 0.0143(3)
C1 0.043(4) 0.060(4) 0.050(4) 0.007(3) 0.004(3) 0.027(4)
C2 0.046(5) 0.141(9) 0.089(6) 0.075(7) 0.032(4) 0.063(6)
C3 0.053(5) 0.096(7) 0.066(5) 0.036(5) 0.010(4) 0.048(5)
C4 0.043(4) 0.077(6) 0.075(5) 0.028(4) 0.021(4) 0.034(4)
C5 0.042(4) 0.074(5) 0.057(4) 0.022(4) 0.013(3) 0.038(4)
C6 0.044(4) 0.072(5) 0.066(5) 0.019(4) 0.011(3) 0.038(4)
C7 0.060(5) 0.084(6) 0.073(6) 0.006(5) 0.005(4) 0.056(5)
C8 0.024(3) 0.062(5) 0.100(7) -0.010(5) -0.013(4) 0.025(3)
C9 0.064(6) 0.115(8) 0.083(7) 0.024(6) 0.002(5) 0.061(6)
C10 0.046(4) 0.099(7) 0.071(5) 0.044(5) 0.022(4) 0.046(5)
C11 0.038(4) 0.072(5) 0.058(4) 0.009(4) -0.001(3) 0.023(4)
C12 0.043(4) 0.072(5) 0.052(4) 0.013(4) -0.005(3) 0.038(4)
C13 0.053(5) 0.118(8) 0.040(4) 0.007(4) 0.011(3) 0.058(5)
C14 0.047(5) 0.097(7) 0.087(6) 0.020(5) 0.010(4) 0.050(5)
C15 0.041(4) 0.046(4) 0.051(4) 0.000(3) 0.000(3) 0.029(3)
C16 0.037(4) 0.081(6) 0.049(4) 0.007(4) 0.015(3) 0.031(4)
C17 0.043(4) 0.045(4) 0.052(4) -0.012(3) 0.006(3) 0.000(3)
C18 0.044(5) 0.069(6) 0.096(7) -0.040(5) 0.025(5) -0.008(4)
C19 0.065(6) 0.077(6) 0.081(6) -0.021(5) 0.033(5) 0.010(5)
C20 0.045(4) 0.046(4) 0.074(5) -0.014(4) 0.012(4) -0.010(4)
C21 0.047(4) 0.040(4) 0.062(5) -0.003(4) 0.012(4) -0.002(3)
C22 0.054(5) 0.042(4) 0.054(4) -0.007(3) 0.002(4) 0.010(4)
C23 0.057(5) 0.045(4) 0.048(4) 0.001(3) 0.004(4) 0.013(4)
C24 0.034(4) 0.044(4) 0.055(4) 0.007(3) 0.006(3) 0.007(3)
C25 0.048(5) 0.073(6) 0.077(6) -0.035(5) 0.012(4) -0.004(4)
C26 0.071(5) 0.039(4) 0.045(4) 0.009(3) 0.006(4) 0.006(4)
C27 0.051(5) 0.048(4) 0.059(5) -0.014(4) -0.016(4) -0.003(4)
C28 0.063(5) 0.052(5) 0.075(6) -0.009(4) -0.008(4) 0.026(4)
C29 0.047(5) 0.078(6) 0.089(7) -0.036(6) -0.031(5) 0.007(5)
C30 0.052(5) 0.062(5) 0.064(5) -0.014(4) 0.003(4) 0.001(4)
C31 0.042(4) 0.033(4) 0.095(7) 0.000(4) 0.002(4) 0.008(3)
C32 0.051(4) 0.034(4) 0.062(5) -0.004(3) 0.001(4) 0.002(3)
N1 0.049(4) 0.132(8) 0.077(5) 0.046(5) 0.020(4) 0.058(5)
N2 0.059(5) 0.129(8) 0.079(5) 0.035(5) 0.004(4) 0.055(5)
N3 0.066(5) 0.090(6) 0.082(6) -0.041(5) 0.027(5) -0.011(5)
N4 0.059(5) 0.094(6) 0.097(6) -0.044(5) 0.021(5) 0.003(5)
O1 0.075(4) 0.097(5) 0.057(3) 0.011(3) 0.011(3) 0.064(4)
O2 0.054(3) 0.102(5) 0.061(3) 0.014(3) 0.017(3) 0.049(3)
O3 0.041(3) 0.073(4) 0.082(4) -0.003(3) -0.008(3) 0.029(3)
O4 0.051(3) 0.090(4) 0.047(3) 0.012(3) 0.016(2) 0.040(3)
O5 0.045(3) 0.073(4) 0.061(3) 0.018(3) 0.000(2) 0.038(3)
O6 0.048(3) 0.071(4) 0.074(4) 0.014(3) -0.006(3) 0.033(3)
O7 0.059(3) 0.084(4) 0.058(3) 0.016(3) 0.004(3) 0.045(3)
O8 0.045(3) 0.075(4) 0.071(4) 0.028(3) 0.012(3) 0.030(3)
O9 0.042(3) 0.062(3) 0.061(3) -0.011(3) -0.001(2) 0.016(3)
O10 0.045(3) 0.050(3) 0.080(4) -0.006(3) 0.011(3) 0.003(3)
O11 0.060(3) 0.041(3) 0.069(4) 0.010(3) 0.022(3) 0.006(3)
O12 0.063(4) 0.030(3) 0.077(4) 0.000(3) 0.029(3) 0.003(3)
O13 0.054(3) 0.060(3) 0.057(3) 0.015(3) 0.019(3) 0.017(3)
O14 0.057(4) 0.059(4) 0.087(5) 0.000(3) 0.017(3) 0.007(3)
O15 0.040(3) 0.069(4) 0.074(4) -0.018(3) -0.007(3) 0.004(3)
O16 0.037(3) 0.056(3) 0.063(3) -0.005(3) -0.006(2) 0.001(2)
O17 0.101(5) 0.109(5) 0.049(3) 0.011(3) -0.014(3) 0.081(5)
O18 0.118(6) 0.120(6) 0.049(3) 0.009(4) -0.019(4) 0.069(5)
O19 0.049(3) 0.085(4) 0.037(3) 0.020(3) 0.017(2) 0.020(3)
O20 0.057(3) 0.089(4) 0.048(3) 0.003(3) 0.028(3) 0.020(3)
Zn1G 0.0461 0.0361 0.0416 0.0002 0.0005 0.0196
Zn1H 0.0361 0.043 0.0416 0.0003 -0.0002 0.0165
Zn1N 0.0361 0.043 0.0416 0.0003 -0.0002 0.0165
Zn2G 0.0437 0.0341 0.0374 0.0014 -0.0019 0.014
Zn2H 0.0341 0.0498 0.0374 -0.0033 -0.0014 0.0201
Zn2N 0.0341 0.0498 0.0374 -0.0033 -0.0014 0.0201
Zn3G 0.0446 0.0436 0.0398 0.0008 -0.0013 0.0285
Zn3K 0.0436 0.0312 0.0398 -0.0021 -0.0008 0.0151
Zn4G 0.0416 0.0439 0.0403 0.0009 -0.0011 0.0273
Zn4K 0.0439 0.0309 0.0403 -0.002 -0.0009 0.0166
O5M 0.073 0.042 0.061 -0.018 -0.018 0.035
O6M 0.071 0.053 0.074 -0.02 -0.014 0.038
O7E 0.053 0.059 0.058 -0.004 0.012 0.014
O8E 0.06 0.045 0.071 -0.012 0.016 0.015
O11J 0.041 0.089 0.069 0.012 -0.01 0.035
O12J 0.03 0.087 0.077 0.029 0 0.027
O13E 0.08 0.054 0.057 -0.019 -0.004 0.037
O14E 0.102 0.057 0.087 -0.017 -0.017 0.05
O15D 0.069 0.101 0.074 0.011 0.018 0.065
O16D 0.056 0.091 0.063 -0.001 0.005 0.055
loop_
_geom_bond_atom_site_label_1
_geom_bond_atom_site_label_2
_geom_bond_site_symmetry_1
_geom_bond_site_symmetry_2
Zn1 O1 1_555 1_555
Zn2 O2 1_555 1_555
Zn3 O4 1_555 1_555
Zn4 O3 1_555 1_555
C1 C2 1_555 1_555
C2 H1 1_555 1_555
C3 C2 1_555 1_555
C4 C3 1_555 1_555
H2 C4 1_555 1_555
C5 C4 1_555 1_555
C6 C1 1_555 1_555
H3 C6 1_555 1_555
C7 C1 1_555 1_555
C8 C5 1_555 1_555
C9 C10 1_555 1_555
C10 H4 1_555 1_555
C11 C10 1_555 1_555
C12 C11 1_555 1_555
H5 C12 1_555 1_555
C13 C12 1_555 1_555
C14 C9 1_555 1_555
H6 C14 1_555 1_555
C15 C11 1_555 1_555
C16 C13 1_555 1_555
C17 C18 1_555 1_555
C18 H7 1_555 1_555
C19 C18 1_555 1_555
C20 C19 1_555 1_555
H8 C20 1_555 1_555
C21 C20 1_555 1_555
C22 C17 1_555 1_555
H9 C22 1_555 1_555
C23 C17 1_555 1_555
C24 C21 1_555 1_555
C25 H10 1_555 1_555
C26 C25 1_555 1_555
C27 C26 1_555 1_555
H11 C27 1_555 1_555
C28 C27 1_555 1_555
C29 C28 1_555 1_555
H12 C29 1_555 1_555
C30 C25 1_555 1_555
C31 C26 1_555 1_555
C32 C28 1_555 1_555
N1 C3 1_555 1_555
N2 C9 1_555 1_555
N3 C19 1_555 1_555
N4 C30 1_555 1_555
O1 C7 1_555 1_555
O2 C7 1_555 1_555
O3 C8 1_555 1_555
O4 C8 1_555 1_555
O5 C15 1_555 1_555
O6 C15 1_555 1_555
O7 C16 1_555 1_555
O8 C16 1_555 1_555
O9 Zn4 1_555 1_555
O10 Zn3 1_555 1_555
O11 C24 1_555 1_555
O12 C24 1_555 1_555
O13 C31 1_555 1_555
O14 C31 1_555 1_555
O15 C32 1_555 1_555
O16 C32 1_555 1_555
O17 Zn1 1_555 1_555
H13 O17 1_555 1_555
H14 O17 1_555 1_555
O18 Zn2 1_555 1_555
H15 O18 1_555 1_555
H16 O18 1_555 1_555
O19 Zn3 1_555 1_555
H17 O19 1_555 1_555
H18 O19 1_555 1_555
O20 Zn4 1_555 1_555
H19 O20 1_555 1_555
H20 O20 1_555 1_555
Zn1G O14 1_555 1_555
Zn1H O15 1_555 1_555
Zn1N O5 1_555 1_555
Zn2G O13 1_555 1_555
Zn2H O16 1_555 1_555
Zn2N O6 1_555 1_555
Zn3G O8 1_555 1_555
Zn3K O12 1_555 1_555
Zn4G O7 1_555 1_555
Zn4K O11 1_555 1_555
O5M Zn1 1_555 1_555
O6M Zn2 1_555 1_555
O7E Zn4 1_555 1_555
O8E Zn3 1_555 1_555
O11J Zn4 1_555 1_555
O12J Zn3 1_555 1_555
O13E Zn2 1_555 1_555
O14E Zn1 1_555 1_555
O15D Zn1 1_555 1_555
O16D Zn2 1_555 1_555
C5 C6 1_555 1_555
C13 C14 1_555 1_555
C21 C22 1_555 1_555
C23 O9 1_555 1_555
C23 O10 1_555 1_555
C29 C30 1_555 1_555
N1 N2 1_555 1_555
N3 N4 1_555 1_555

#END
