
#######################################################################
#
#                 Cambridge Crystallographic Data Centre
#                                CCDC 
#
#######################################################################
#
# If this CIF has been generated from an entry in the Cambridge 
# Structural Database, then it will include bibliographic, chemical, 
# crystal, experimental, refinement or atomic coordinate data resulting 
# from the CCDC's data processing and validation procedures.
#
#######################################################################

data_REGRAY
_chemical_formula_moiety         '(C39 H31 N3 O22 Zn5)n'
_symmetry_cell_setting           monoclinic
_symmetry_space_group_name_H-M   'P 21/c'
_symmetry_Int_Tables_number      14
_space_group_name_Hall           '-P 2ybc'
loop_
_symmetry_equiv_pos_site_id
_symmetry_equiv_pos_as_xyz
1 x,y,z
2 -x,1/2+y,1/2-z
3 -x,-y,-z
4 x,1/2-y,1/2+z
_cell_length_a                   18.060(12)
_cell_length_b                   12.104(8)
_cell_length_c                   31.65(2)
_cell_angle_alpha                90
_cell_angle_beta                 90.480(15)
_cell_angle_gamma                90
_cell_volume                     6918.39
loop_
_atom_site_label
_atom_site_type_symbol
_atom_site_fract_x
_atom_site_fract_y
_atom_site_fract_z
_atom_site_U_iso_or_equiv
_atom_site_thermal_displace_type
Zn1 Zn 0.04406(6) 0.59888(11) 0.51347(4) 0.0422 Uani
Zn2 Zn 0.54498(5) 0.40093(8) 0.48757(3) 0.0199 Uani
Zn3 Zn 0.33414(6) 0.00203(8) 0.30995(3) 0.0242 Uani
Zn4 Zn 0.24535(6) 0.59182(8) 0.73129(3) 0.0269 Uani
Zn5 Zn -0.14537(7) -0.03162(12) 0.69460(4) 0.0476 Uani
O1 O -0.0914(6) 0.0813(11) 0.6570(4) 0.1032 Uani
O2 O -0.0598(6) 0.1156(9) 0.7221(4) 0.0890 Uani
O3 O 0.1532(8) 0.3874(8) 0.7486(4) 0.1112 Uani
O4 O 0.1662(5) 0.5140(8) 0.6988(3) 0.0578 Uani
O5 O 0.0458(6) 0.4895(9) 0.5636(3) 0.0737 Uani
O6 O -0.0194(5) 0.3442(8) 0.5447(3) 0.0608 Uani
O7 O 0.6007(6) 0.1748(8) 0.7284(2) 0.0811 Uani
O8 O 0.6009(4) 0.1079(5) 0.6634(2) 0.0384 Uani
O9 O 0.5162(4) 0.3727(6) 0.54985(19) 0.0419 Uani
O10 O 0.4476(4) 0.5217(6) 0.5697(2) 0.0443 Uani
O11 O 0.3322(4) 0.5195(6) 0.70679(19) 0.0360 Uani
O12 O 0.3796(4) 0.4203(5) 0.76085(17) 0.0306 Uani
O13 O 0.1125(4) 0.4826(7) 0.4845(3) 0.0533 Uani
O14 O 0.0484(4) 0.3308(8) 0.4619(3) 0.0604 Uani
O15 O 0.1946(4) 0.1167(7) 0.3528(3) 0.0557 Uani
O16 O 0.3170(4) 0.1143(6) 0.3546(2) 0.0374 Uani
O17 O 0.4455(3) 0.3437(6) 0.4682(2) 0.0377 Uani
O18 O 0.3796(4) 0.4910(6) 0.4894(2) 0.0377 Uani
O19 O 0.1187(4) 0.7105(6) 0.5313(2) 0.0481 Uani
O20 O 0.6045(4) 0.2622(5) 0.47885(19) 0.0340 Uani
O21 O 0.2405(4) 0.7441(6) 0.7122(2) 0.0496 Uani
O22 O 0.2388(4) -0.0644(5) 0.29155(18) 0.0310 Uani
C1 C -0.0076(7) 0.2254(11) 0.6703(4) 0.0582 Uani
C2 C 0.0413(7) 0.2798(10) 0.6989(4) 0.0530 Uani
H1 H 0.0434 0.2570 0.7276 0.0630 Uiso
C3 C 0.0873(7) 0.3681(10) 0.6849(4) 0.0504 Uani
C4 C 0.0818(8) 0.4041(11) 0.6432(4) 0.0628 Uani
H2 H 0.1126 0.4621 0.6334 0.0750 Uiso
C5 C 0.0283(6) 0.3516(11) 0.6147(4) 0.0494 Uani
C6 C -0.0160(6) 0.2629(11) 0.6277(4) 0.0570 Uani
H3 H -0.0504 0.2289 0.6088 0.0690 Uiso
C7 C -0.0541(7) 0.1341(14) 0.6844(5) 0.0705 Uani
C8 C 0.1362(7) 0.4245(10) 0.7125(4) 0.0544 Uani
C9 C 0.0199(7) 0.3965(11) 0.5707(4) 0.0544 Uani
C10 C 0.5287(7) 0.2683(9) 0.6761(3) 0.0453 Uani
C11 C 0.5281(6) 0.3033(8) 0.6350(3) 0.0386 Uani
H4 H 0.5600 0.2696 0.6151 0.0460 Uiso
C12 C 0.4795(6) 0.3908(8) 0.6219(3) 0.0363 Uani
C13 C 0.4327(5) 0.4349(8) 0.6501(2) 0.0320 Uani
H5 H 0.4001 0.4922 0.6412 0.0380 Uiso
C14 C 0.4303(5) 0.3989(7) 0.6929(3) 0.0283 Uani
C15 C 0.4797(6) 0.3177(9) 0.7063(3) 0.0377 Uani
H6 H 0.4810 0.2952 0.7350 0.0450 Uiso
C16 C 0.5807(5) 0.1755(9) 0.6907(3) 0.0373 Uani
C17 C 0.4818(6) 0.4339(9) 0.5769(3) 0.0366 Uani
C18 C 0.3779(5) 0.4517(7) 0.7225(3) 0.0273 Uani
C19 C 0.1820(6) 0.3447(11) 0.4511(3) 0.0490 Uani
C20 C 0.1846(6) 0.2579(10) 0.4185(3) 0.0460 Uani
H7 H 0.1409 0.2218 0.4090 0.0550 Uiso
C21 C 0.2505(5) 0.2320(8) 0.4029(3) 0.0297 Uani
C22 C 0.3214(5) 0.2676(7) 0.4214(3) 0.0267 Uani
H8 H 0.3676 0.2386 0.4126 0.0320 Uiso
C23 C 0.3154(5) 0.3492(8) 0.4537(3) 0.0330 Uani
C24 C 0.2467(5) 0.3873(9) 0.4668(3) 0.0367 Uani
H9 H 0.2446 0.4446 0.4873 0.0440 Uiso
C25 C 0.1102(7) 0.3867(11) 0.4662(4) 0.0517 Uani
C26 C 0.2543(5) 0.1461(8) 0.3675(3) 0.0257 Uani
C27 C 0.3830(5) 0.3975(8) 0.4719(3) 0.0313 Uani
C28 C 0.1746(5) 0.6977(9) 0.5550(3) 0.0377 Uani
C29 C 0.2177(7) 0.5963(10) 0.5626(4) 0.0534 Uani
H10 H 0.2470 0.5770 0.5374 0.0640 Uiso
H11 H 0.1844 0.5338 0.5693 0.0640 Uiso
C30 C 0.2691(7) 0.6222(13) 0.6004(4) 0.0627 Uani
H12 H 0.3184 0.5883 0.5963 0.0750 Uiso
H13 H 0.2478 0.5934 0.6269 0.0750 Uiso
C31 C 0.2754(8) 0.7512(13) 0.6020(4) 0.0673 Uani
H14 H 0.2712 0.7797 0.6312 0.0810 Uiso
H15 H 0.3221 0.7778 0.5894 0.0810 Uiso
C32 C 0.5735(10) 0.0346(11) 0.5466(4) 0.0713 Uani
H16 H 0.5860 0.0359 0.5771 0.0860 Uiso
H17 H 0.5278 -0.0097 0.5428 0.0860 Uiso
C33 C 0.6308(13) -0.0140(13) 0.5245(6) 0.1045 Uani
H18 H 0.6156 -0.0872 0.5134 0.1240 Uiso
H19 H 0.6748 -0.0238 0.5430 0.1240 Uiso
C34 C 0.6484(9) 0.0685(10) 0.4869(4) 0.0616 Uani
H20 H 0.7019 0.0858 0.4858 0.0740 Uiso
H21 H 0.6324 0.0372 0.4594 0.0740 Uiso
C35 C 0.6036(6) 0.1699(8) 0.4979(3) 0.0390 Uani
C36 C 0.1386(8) 1.0005(12) 0.7123(6) 0.0736 Uani
H22 H 0.1069 1.0146 0.6872 0.0880 Uiso
H23 H 0.1554 1.0719 0.7243 0.0880 Uiso
C37 C 0.1005(9) 0.9351(13) 0.7432(6) 0.0804 Uani
H24 H 0.1097 0.9649 0.7719 0.0970 Uiso
H25 H 0.0465 0.9361 0.7376 0.0970 Uiso
C38 C 0.1310(7) 0.8147(11) 0.7399(4) 0.0617 Uani
H26 H 0.0954 0.7668 0.7245 0.0740 Uiso
H27 H 0.1399 0.7831 0.7683 0.0740 Uiso
C39 C 0.1958(6) 0.8232(9) 0.7182(3) 0.0400 Uani
N1 N 0.2082(6) 0.7818(9) 0.5751(3) 0.0561 Uani
H28 H 0.1924 0.8503 0.5728 0.0670 Uiso
N2 N 0.5604(6) 0.1470(8) 0.5318(3) 0.0506 Uani
H29 H 0.5289 0.1936 0.5432 0.0610 Uiso
N3 N 0.2050(8) 0.9252(10) 0.7013(5) 0.0852 Uani
H30 H 0.2433 0.9456 0.6862 0.1020 Uiso
Zn1B Zn -0.04406(6) 0.40112(11) 0.48653(4) 0.0422 Uani
Zn2B Zn 0.45502(5) 0.59907(8) 0.51243(3) 0.0199 Uani
Zn3B Zn 0.66586(6) -0.00203(8) 0.69005(3) 0.0242 Uani
Zn3C Zn 0.33414(6) 0.49797(8) 0.80995(3) 0.0242 Uani
Zn4C Zn 0.24535(6) -0.09182(8) 0.23129(3) 0.0269 Uani
Zn5A Zn 0.14537(7) 0.46838(12) 0.80540(4) 0.0476 Uani
Zn5B Zn 0.14537(7) 0.03162(12) 0.30540(4) 0.0476 Uani
O3A O -0.1532(8) -0.1126(8) 0.7514(4) 0.1112 Uani
O6B O 0.0194(5) 0.6558(8) 0.4553(3) 0.0608 Uani
O8B O 0.3991(4) -0.1079(5) 0.3366(2) 0.0384 Uani
O10B O 0.5524(4) 0.4783(6) 0.4303(2) 0.0443 Uani
O12C O 0.3796(4) 0.0797(5) 0.26085(17) 0.0306 Uani
O14B O -0.0484(4) 0.6692(8) 0.5381(3) 0.0604 Uani
O15B O -0.1946(4) -0.1167(7) 0.6472(3) 0.0557 Uani
O18B O 0.6204(4) 0.5090(6) 0.5106(2) 0.0377 Uani
O22C O 0.2388(4) 0.5644(5) 0.79155(18) 0.0310 Uani
O22B O -0.2388(4) 0.0644(5) 0.70845(18) 0.0310 Uani
loop_
_atom_site_aniso_label
_atom_site_aniso_U_11
_atom_site_aniso_U_22
_atom_site_aniso_U_33
_atom_site_aniso_U_23
_atom_site_aniso_U_13
_atom_site_aniso_U_12
Zn1 0.0210(6) 0.0621(9) 0.0433(7) -0.0346(6) -0.0074(5) 0.0032(5)
Zn2 0.0217(6) 0.0235(5) 0.0144(4) -0.0023(3) -0.0030(4) 0.0038(4)
Zn3 0.0289 0.0291 0.0145 -0.0023 -0.0017 0.0048
Zn4 0.0306 0.0301 0.02 0.0005 -0.002 0.0037
Zn5 0.032 0.0655 0.045 -0.0332 -0.0106 0.0098
O1 0.071 0.157 0.082 -0.057 0.03 -0.072
O2 0.069 0.077 0.121 -0.014 -0.002 -0.008
O3 0.181 0.054 0.097 0.013 -0.101 -0.041
O4 0.053 0.072 0.048 -0.012 -0.021 -0.008
O5 0.073 0.095 0.053 -0.017 -0.014 -0.022
O6 0.058 0.066 0.058 -0.023 -0.027 -0.003
O7 0.133 0.078 0.032 -0.001 -0.016 0.071
O8 0.047 0.037 0.031 0 -0.008 0.023
O9 0.064 0.041 0.021 0.008 0.012 0.022
O10 0.069 0.036 0.028 0.005 0.001 0.019
O11 0.039 0.048 0.021 0.006 -0.005 0.014
O12 0.038 0.037 0.017 0.006 0.006 0.002
O13 0.036(4) 0.065(6) 0.059(5) -0.033(4) 0.001(4) 0.003(4)
O14 0.037(5) 0.077(6) 0.067(5) -0.040(5) -0.003(4) 0.001(4)
O15 0.030(4) 0.078(6) 0.059(5) -0.044(4) -0.003(4) 0.005(4)
O16 0.033(4) 0.043(4) 0.036(3) -0.023(3) -0.005(3) 0.008(3)
O17 0.023(4) 0.044(4) 0.046(4) -0.006(3) -0.004(3) -0.015(3)
O18 0.034(4) 0.046(4) 0.033(3) -0.011(3) 0.001(3) 0.001(3)
O19 0.044(4) 0.050(5) 0.050(4) -0.017(3) -0.019(4) -0.011(3)
O20 0.043(4) 0.028(4) 0.031(3) 0.003(3) 0.004(3) 0.005(3)
O21 0.049 0.046 0.054 0.014 0.011 0.013
O22 0.041 0.026 0.026 0.001 0 -0.005
C1 0.057 0.06 0.058 -0.024 0.017 -0.018
C2 0.059 0.057 0.043 -0.019 0.009 -0.023
C3 0.051 0.047 0.053 -0.011 -0.014 -0.012
C4 0.065 0.058 0.065 -0.017 -0.025 -0.02
C5 0.03 0.065 0.053 -0.019 -0.007 -0.019
C6 0.036 0.084 0.051 -0.042 0.005 -0.009
C7 0.041 0.106 0.065 -0.019 0.026 -0.025
C8 0.055 0.036 0.072 -0.001 -0.017 -0.003
C9 0.043 0.069 0.051 -0.018 -0.01 -0.001
C10 0.074 0.037 0.025 0.005 0 0.027
C11 0.051 0.038 0.027 0.006 0.01 0.017
C12 0.051 0.045 0.013 0.013 -0.001 0.01
C13 0.041 0.04 0.015 0.005 0.008 0.025
C14 0.028 0.04 0.017 0.01 0.008 0.01
C15 0.038 0.051 0.024 0.01 0.003 0.015
C16 0.03 0.052 0.03 0.008 0.008 0.018
C17 0.037 0.055 0.018 0 0.012 0.001
C18 0.023 0.03 0.029 -0.011 0.011 0.001
C19 0.030(6) 0.072(8) 0.045(6) -0.040(6) -0.002(5) 0.005(5)
C20 0.041(6) 0.060(7) 0.037(5) -0.040(5) -0.006(5) 0.011(5)
C21 0.019(5) 0.046(6) 0.024(4) -0.009(4) 0.000(4) -0.010(4)
C22 0.020(5) 0.032(5) 0.028(4) -0.014(4) 0.000(4) 0.000(4)
C23 0.035(6) 0.045(6) 0.019(4) -0.014(4) 0.005(4) 0.000(4)
C24 0.023(5) 0.047(6) 0.040(5) -0.019(4) 0.002(4) -0.005(4)
C25 0.042(7) 0.068(8) 0.045(6) -0.026(5) -0.001(5) 0.026(6)
C26 0.018(5) 0.036(5) 0.023(4) -0.008(3) 0.002(4) -0.001(4)
C27 0.030(5) 0.042(6) 0.022(4) -0.004(4) -0.001(4) 0.008(4)
C28 0.027(5) 0.057(7) 0.029(5) -0.015(4) 0.001(4) -0.017(5)
C29 0.040(7) 0.066(8) 0.054(7) -0.013(6) -0.014(6) 0.013(6)
C30 0.050(8) 0.091(11) 0.047(7) 0.003(6) 0.002(6) 0.005(7)
C31 0.059(8) 0.102(12) 0.041(6) -0.007(7) -0.001(6) 0.005(8)
C32 0.114(13) 0.048(8) 0.052(7) 0.012(6) -0.001(8) -0.005(8)
C33 0.18(2) 0.051(10) 0.082(11) 0.015(8) -0.022(13) 0.009(11)
C34 0.084(10) 0.044(7) 0.057(7) 0.000(5) 0.016(7) 0.012(7)
C35 0.053(7) 0.028(5) 0.036(5) -0.003(4) -0.003(5) 0.008(4)
C36 0.06 0.06 0.101 -0.008 0.011 0.009
C37 0.073 0.074 0.094 -0.005 -0.02 0.02
C38 0.056 0.06 0.069 -0.001 -0.013 0.006
C39 0.047 0.04 0.033 0.003 0.006 0.015
N1 0.056(6) 0.059(7) 0.053(5) -0.015(5) -0.023(5) -0.026(5)
N2 0.074(7) 0.037(5) 0.041(5) 0.012(4) 0.018(5) 0.003(5)
N3 0.096 0.05 0.11 0.006 0.033 -0.012
Zn1B 0.021 0.0621 0.0433 -0.0346 -0.0074 0.0032
Zn2B 0.0217 0.0235 0.0144 -0.0023 -0.003 0.0038
Zn3B 0.0289 0.0291 0.0145 -0.0023 -0.0017 0.0048
Zn3C 0.0289 0.0291 0.0145 0.0023 -0.0017 -0.0048
Zn4C 0.0306 0.0301 0.02 -0.0005 -0.002 -0.0037
Zn5A 0.032 0.0655 0.045 0.0332 -0.0106 -0.0098
Zn5B 0.032 0.0655 0.045 -0.0332 -0.0106 0.0098
O3A 0.181 0.054 0.097 -0.013 -0.101 0.041
O6B 0.058(5) 0.066(6) 0.058(5) -0.023(4) -0.027(4) -0.003(4)
O8B 0.047 0.037 0.031 0 -0.008 0.023
O10B 0.069(5) 0.036(4) 0.028(3) 0.005(3) 0.001(3) 0.019(4)
O12C 0.038 0.037 0.017 -0.006 0.006 -0.002
O14B 0.037 0.077 0.067 -0.04 -0.003 0.001
O15B 0.03 0.078 0.059 -0.044 -0.003 0.005
O18B 0.034 0.046 0.033 -0.011 0.001 0.001
O22C 0.041 0.026 0.026 -0.001 0 0.005
O22B 0.041 0.026 0.026 0.001 0 -0.005
loop_
_geom_bond_atom_site_label_1
_geom_bond_atom_site_label_2
_geom_bond_site_symmetry_1
_geom_bond_site_symmetry_2
Zn1 O5 1_555 1_555
Zn2 O9 1_555 1_555
Zn3 O16 1_555 1_555
Zn4 O4 1_555 1_555
Zn5 O1 1_555 1_555
O1 C7 1_555 1_555
O2 C7 1_555 1_555
O3 C8 1_555 1_555
O4 C8 1_555 1_555
O5 C9 1_555 1_555
O6 C9 1_555 1_555
O7 C16 1_555 1_555
O8 C16 1_555 1_555
O9 C17 1_555 1_555
O10 C17 1_555 1_555
O11 Zn4 1_555 1_555
O12 C18 1_555 1_555
O13 Zn1 1_555 1_555
O14 C25 1_555 1_555
O15 C26 1_555 1_555
O16 C26 1_555 1_555
O17 Zn2 1_555 1_555
O18 C27 1_555 1_555
O19 Zn1 1_555 1_555
O20 Zn2 1_555 1_555
O21 Zn4 1_555 1_555
O22 Zn3 1_555 1_555
C1 C2 1_555 1_555
C2 H1 1_555 1_555
C3 C2 1_555 1_555
C4 C3 1_555 1_555
H2 C4 1_555 1_555
C5 C4 1_555 1_555
C6 C1 1_555 1_555
H3 C6 1_555 1_555
C7 C1 1_555 1_555
C8 C3 1_555 1_555
C9 C5 1_555 1_555
C10 C11 1_555 1_555
C11 H4 1_555 1_555
C12 C11 1_555 1_555
C13 C12 1_555 1_555
H5 C13 1_555 1_555
C14 C13 1_555 1_555
C15 C10 1_555 1_555
H6 C15 1_555 1_555
C16 C10 1_555 1_555
C17 C12 1_555 1_555
C18 O11 1_555 1_555
C19 C20 1_555 1_555
C20 H7 1_555 1_555
C21 C20 1_555 1_555
C22 C21 1_555 1_555
H8 C22 1_555 1_555
C23 C22 1_555 1_555
C24 C19 1_555 1_555
H9 C24 1_555 1_555
C25 O13 1_555 1_555
C26 C21 1_555 1_555
C27 O17 1_555 1_555
C28 O19 1_555 1_555
C29 C28 1_555 1_555
H10 C29 1_555 1_555
H11 C29 1_555 1_555
C30 C29 1_555 1_555
H12 C30 1_555 1_555
H13 C30 1_555 1_555
C31 C30 1_555 1_555
H14 C31 1_555 1_555
H15 C31 1_555 1_555
C32 H16 1_555 1_555
H17 C32 1_555 1_555
C33 C32 1_555 1_555
H18 C33 1_555 1_555
H19 C33 1_555 1_555
C34 C33 1_555 1_555
H20 C34 1_555 1_555
H21 C34 1_555 1_555
C35 O20 1_555 1_555
C36 H22 1_555 1_555
H23 C36 1_555 1_555
C37 C36 1_555 1_555
H24 C37 1_555 1_555
H25 C37 1_555 1_555
C38 C37 1_555 1_555
H26 C38 1_555 1_555
H27 C38 1_555 1_555
C39 O21 1_555 1_555
N1 C28 1_555 1_555
H28 N1 1_555 1_555
N2 C32 1_555 1_555
H29 N2 1_555 1_555
N3 C36 1_555 1_555
H30 N3 1_555 1_555
Zn1B O6 1_555 1_555
Zn2B O10 1_555 1_555
Zn3B O8 1_555 1_555
Zn3C O12 1_555 1_555
Zn4C O22 1_555 1_555
Zn5A O3 1_555 1_555
Zn5B O15 1_555 1_555
O3A Zn5 1_555 1_555
O6B Zn1 1_555 1_555
O8B Zn3 1_555 1_555
O10B Zn2 1_555 1_555
O12C Zn3 1_555 1_555
O14B Zn1 1_555 1_555
O15B Zn5 1_555 1_555
O18B Zn2 1_555 1_555
O22C Zn4 1_555 1_555
O22B Zn5 1_555 1_555
O14 Zn1B 1_555 1_555
O18 Zn2B 1_555 1_555
O22 Zn5B 1_555 1_555
C5 C6 1_555 1_555
C14 C15 1_555 1_555
C14 C18 1_555 1_555
C19 C25 1_555 1_555
C23 C24 1_555 1_555
C23 C27 1_555 1_555
C31 N1 1_555 1_555
C34 C35 1_555 1_555
C35 N2 1_555 1_555
C38 C39 1_555 1_555
C39 N3 1_555 1_555
Zn3C O22C 1_555 1_555
Zn5A O22C 1_555 1_555

#END
