
#######################################################################
#
#                 Cambridge Crystallographic Data Centre
#                                CCDC 
#
#######################################################################
#
# If this CIF has been generated from an entry in the Cambridge 
# Structural Database, then it will include bibliographic, chemical, 
# crystal, experimental, refinement or atomic coordinate data resulting 
# from the CCDC's data processing and validation procedures.
#
#######################################################################

data_REGRIG
_chemical_formula_moiety         '(C28 H28 N4 O15 Zn3)n'
_symmetry_cell_setting           monoclinic
_symmetry_space_group_name_H-M   'C 2/c'
_symmetry_Int_Tables_number      15
_space_group_name_Hall           '-C 2yc'
loop_
_symmetry_equiv_pos_site_id
_symmetry_equiv_pos_as_xyz
1 x,y,z
2 -x,y,1/2-z
3 1/2+x,1/2+y,z
4 1/2-x,1/2+y,1/2-z
5 -x,-y,-z
6 x,-y,1/2+z
7 1/2-x,1/2-y,-z
8 1/2+x,1/2-y,1/2+z
_cell_length_a                   31.171(12)
_cell_length_b                   12.186(4)
_cell_length_c                   27.629(11)
_cell_angle_alpha                90
_cell_angle_beta                 108.264(4)
_cell_angle_gamma                90
_cell_volume                     9966.17
loop_
_atom_site_label
_atom_site_type_symbol
_atom_site_fract_x
_atom_site_fract_y
_atom_site_fract_z
_atom_site_U_iso_or_equiv
_atom_site_thermal_displace_type
Zn1 Zn -0.260514(18) -0.10200(4) -0.121129(19) 0.0257 Uani
Zn2 Zn -0.179591(19) 0.08830(5) -0.12460(2) 0.0282 Uani
Zn3 Zn -0.025290(19) 0.25956(5) 0.17961(2) 0.0345 Uani
O1 O -0.21829(14) -0.0685(4) -0.05266(14) 0.0462 Uani
O2 O -0.16574(15) 0.0583(3) -0.05090(13) 0.0424 Uani
O3 O -0.06604(14) 0.1811(4) 0.11915(15) 0.0499 Uani
O4 O -0.05584(19) 0.0746(5) 0.18693(17) 0.0684 Uani
O5 O -0.1595(2) -0.2475(5) 0.17182(18) 0.0851 Uani
O6 O -0.20477(15) -0.2963(3) 0.09542(15) 0.0439 Uani
O7 O -0.29179(13) 0.0300(3) -0.15675(14) 0.0388 Uani
O8 O -0.23604(12) 0.0898(3) -0.18508(14) 0.0365 Uani
O9 O -0.26967(13) 0.3306(4) -0.33384(14) 0.0426 Uani
O10 O -0.33460(14) 0.4294(3) -0.35697(15) 0.0405 Uani
O11 O -0.46117(12) 0.2836(3) -0.29943(16) 0.0439 Uani
O12 O -0.44276(13) 0.1887(3) -0.22591(16) 0.0454 Uani
O13 O -0.1969(2) 0.2478(3) -0.11179(19) 0.0581 Uani
O14 O -0.12326(15) 0.1398(4) -0.1361(2) 0.0582 Uani
O15 O -0.0148(2) 0.4043(4) 0.1528(3) 0.0819 Uani
C1 C -0.16214(16) -0.0334(4) 0.02597(17) 0.0287 Uani
C2 C -0.12846(17) 0.0344(4) 0.05460(18) 0.0326 Uani
H1 H -0.1186 0.0923 0.0389 0.0390 Uiso
C3 C -0.10863(17) 0.0172(4) 0.10750(18) 0.0324 Uani
C4 C -0.12258(18) -0.0752(4) 0.12982(18) 0.0318 Uani
H2 H -0.1088 -0.0903 0.1642 0.0390 Uiso
C5 C -0.15679(17) -0.1439(4) 0.10085(18) 0.0317 Uani
C6 C -0.17670(18) -0.1219(4) 0.04818(18) 0.0332 Uani
H3 H -0.1996 -0.1670 0.0285 0.0400 Uiso
C7 C -0.18345(18) -0.0133(4) -0.03048(17) 0.0309 Uani
C8 C -0.07495(18) 0.0940(5) 0.1390(2) 0.0384 Uani
C9 C -0.1743(2) -0.2371(5) 0.1262(2) 0.0424 Uani
C10 C -0.30950(15) 0.1561(4) -0.22540(17) 0.0291 Uani
C11 C -0.29465(17) 0.2178(4) -0.26089(18) 0.0307 Uani
H4 H -0.2648 0.2130 -0.2608 0.0370 Uiso
C12 C -0.32508(16) 0.2849(4) -0.29557(19) 0.0301 Uani
C13 C -0.36998(16) 0.2919(4) -0.29661(19) 0.0322 Uani
H5 H -0.3901 0.3376 -0.3200 0.0380 Uiso
C14 C -0.38460(16) 0.2296(4) -0.26210(18) 0.0317 Uani
C15 C -0.35449(15) 0.1645(4) -0.22637(17) 0.0296 Uani
H6 H -0.3642 0.1258 -0.2027 0.0350 Uiso
C16 C -0.27655(17) 0.0868(4) -0.18628(18) 0.0284 Uani
C17 C -0.30875(16) 0.3532(4) -0.33164(17) 0.0307 Uani
C18 C -0.43302(17) 0.2365(4) -0.2619(2) 0.0321 Uani
C19 C -0.2247(2) 0.3181(5) -0.1348(3) 0.0497 Uani
C20 C -0.2814(5) 0.2890(10) -0.0906(6) 0.1268 Uani
C21 C -0.2896(4) 0.4279(8) -0.1633(4) 0.0875 Uani
C22 C -0.2562(4) 0.4637(6) -0.1895(4) 0.0896 Uani
C23 C -0.1819(4) 0.3847(9) -0.1921(5) 0.1013 Uani
C24 C -0.0160(3) 0.5048(7) 0.1605(4) 0.0762 Uani
C25 C -0.1005(5) 0.5189(15) 0.1295(6) 0.1494 Uani
C26 C -0.0475(7) 0.6700(11) 0.1609(7) 0.1595 Uani
C27 C 0.0093(7) 0.6771(12) 0.1709(8) 0.1918 Uani
C28 C 0.0646(5) 0.5242(18) 0.1836(13) 0.2852 Uani
N1 N -0.2636(3) 0.3492(7) -0.1258(3) 0.0842 Uani
N2 N -0.2199(3) 0.3838(6) -0.1742(3) 0.0723 Uani
N3 N -0.0538(4) 0.5631(7) 0.1561(4) 0.1063 Uani
N4 N 0.0183(4) 0.5695(8) 0.1774(6) 0.1662 Uani
Zn1F Zn -0.239486(18) -0.39800(4) 0.121129(19) 0.0257 Uani
Zn1C Zn -0.239486(18) 0.39800(4) -0.378871(19) 0.0257 Uani
Zn2C Zn -0.320409(19) 0.58830(5) -0.37540(2) 0.0282 Uani
Zn3G Zn -0.525290(19) 0.24044(5) -0.32039(2) 0.0345 Uani
Zn3F Zn -0.474710(19) 0.24044(5) -0.17961(2) 0.0345 Uani
O6F O -0.29523(15) -0.2037(3) -0.09542(15) 0.0439 Uani
O9C O -0.23033(13) -0.1694(4) -0.16616(14) 0.0426 Uani
O10C O -0.16540(14) -0.0706(3) -0.14303(15) 0.0405 Uani
O11G O 0.03883(12) 0.2164(3) 0.20057(16) 0.0439 Uani
O12F O -0.05724(13) 0.3113(3) 0.22591(16) 0.0454 Uani
loop_
_atom_site_aniso_label
_atom_site_aniso_U_11
_atom_site_aniso_U_22
_atom_site_aniso_U_33
_atom_site_aniso_U_23
_atom_site_aniso_U_13
_atom_site_aniso_U_12
Zn1 0.0243(3) 0.0329(3) 0.0203(3) 0.00265(19) 0.0075(2) 0.00043(19)
Zn2 0.0243(3) 0.0366(3) 0.0234(3) 0.0032(2) 0.0072(2) 0.0008(2)
Zn3 0.0217 0.0463 0.0338 -0.0022 0.0064 -0.0084
O1 0.041(2) 0.069(3) 0.0235(17) -0.0001(17) 0.0028(16) -0.0178(19)
O2 0.059(3) 0.041(2) 0.0242(17) 0.0035(15) 0.0089(17) -0.0160(18)
O3 0.042(2) 0.065(3) 0.038(2) -0.0023(19) 0.0056(18) -0.023(2)
O4 0.060(3) 0.091(4) 0.036(2) 0.007(2) -0.011(2) -0.026(3)
O5 0.101(5) 0.109(5) 0.034(2) 0.028(3) 0.005(3) -0.044(4)
O6 0.050(2) 0.045(2) 0.039(2) 0.0032(17) 0.0172(18) -0.0156(18)
O7 0.032(2) 0.049(2) 0.0389(19) 0.0187(17) 0.0162(16) 0.0105(16)
O8 0.0220(18) 0.052(2) 0.0330(18) 0.0089(15) 0.0051(14) 0.0071(14)
O9 0.034(2) 0.061(3) 0.038(2) 0.0108(18) 0.0187(16) 0.0020(17)
O10 0.033(2) 0.042(2) 0.042(2) 0.0108(17) 0.0053(17) -0.0063(15)
O11 0.0187(17) 0.058(2) 0.053(2) 0.0178(19) 0.0085(16) 0.0045(15)
O12 0.030(2) 0.058(3) 0.055(2) 0.023(2) 0.0231(18) 0.0079(17)
O13 0.075(4) 0.039(2) 0.054(3) 0.0033(18) 0.011(2) 0.011(2)
O14 0.036(2) 0.067(3) 0.081(3) 0.013(3) 0.032(2) 0.000(2)
O15 0.104 0.058 0.113 0.016 0.076 -0.001
C1 0.028(2) 0.032(2) 0.022(2) 0.0013(18) 0.0021(17) -0.0027(18)
C2 0.031(3) 0.040(3) 0.027(2) 0.0007(19) 0.0092(19) -0.003(2)
C3 0.029(2) 0.043(3) 0.024(2) -0.0038(19) 0.0064(18) -0.006(2)
C4 0.031(3) 0.040(3) 0.023(2) 0.0024(19) 0.0065(19) -0.0023(19)
C5 0.031(2) 0.039(3) 0.026(2) 0.0033(19) 0.0103(19) -0.003(2)
C6 0.030(3) 0.043(3) 0.026(2) -0.001(2) 0.0077(19) -0.003(2)
C7 0.039(3) 0.033(2) 0.021(2) -0.0020(18) 0.0097(19) -0.0011(19)
C8 0.022(2) 0.057(3) 0.033(3) -0.009(2) 0.004(2) -0.010(2)
C9 0.050(3) 0.048(3) 0.032(3) 0.003(2) 0.017(2) -0.015(2)
C10 0.021(2) 0.036(2) 0.029(2) 0.0119(19) 0.0059(17) 0.0041(17)
C11 0.023(2) 0.038(3) 0.031(2) 0.003(2) 0.0083(18) -0.0018(18)
C12 0.023(2) 0.036(3) 0.032(2) 0.0068(19) 0.0096(18) -0.0019(18)
C13 0.020(2) 0.040(3) 0.035(2) 0.009(2) 0.0063(19) 0.0022(18)
C14 0.021(2) 0.045(3) 0.029(2) 0.012(2) 0.0077(18) 0.0022(19)
C15 0.021(2) 0.039(3) 0.029(2) 0.0120(19) 0.0080(18) 0.0029(18)
C16 0.026(2) 0.031(2) 0.026(2) 0.0015(17) 0.0048(18) 0.0018(17)
C17 0.026(2) 0.043(3) 0.022(2) 0.0042(19) 0.0059(17) -0.0046(19)
C18 0.023(2) 0.039(3) 0.034(2) 0.011(2) 0.0085(19) 0.0028(18)
C19 0.054(4) 0.032(3) 0.064(4) -0.005(3) 0.020(3) 0.006(3)
C20 0.165(13) 0.118(9) 0.155(11) -0.045(8) 0.133(11) -0.049(8)
C21 0.079(7) 0.071(5) 0.113(8) 0.008(5) 0.031(6) 0.033(5)
C22 0.086(7) 0.044(4) 0.121(8) 0.019(4) 0.007(6) 0.023(4)
C23 0.078(7) 0.107(8) 0.124(9) 0.049(7) 0.039(6) 0.007(6)
C24 0.063 0.064 0.101 0.03 0.025 -0.007
C25 0.073 0.207 0.167 0.071 0.036 0.011
C26 0.208 0.081 0.195 0.011 0.071 0.037
C27 0.194 0.094 0.24 0.055 0 -0.054
C28 0.072 0.218 0.52 0.23 0.027 -0.02
N1 0.071(5) 0.106(6) 0.085(5) 0.009(4) 0.038(4) 0.023(4)
N2 0.070(5) 0.068(4) 0.080(5) 0.027(3) 0.025(4) 0.021(3)
N3 0.095 0.078 0.151 0.023 0.046 0.013
N4 0.098 0.082 0.264 0.042 -0.022 -0.031
Zn1F 0.0243 0.0329 0.0203 0.00265 0.0075 0.00043
Zn1C 0.0243 0.0329 0.0203 -0.00265 0.0075 -0.00043
Zn2C 0.0243 0.0366 0.0234 -0.0032 0.0072 -0.0008
Zn3G 0.0217(3) 0.0463(4) 0.0338(3) 0.0022(2) 0.0064(2) 0.0084(2)
Zn3F 0.0217 0.0463 0.0338 -0.0022 0.0064 -0.0084
O6F 0.05 0.045 0.039 0.0032 0.0172 -0.0156
O9C 0.034 0.061 0.038 -0.0108 0.0187 -0.002
O10C 0.033 0.042 0.042 -0.0108 0.0053 0.0063
O11G 0.0187 0.058 0.053 -0.0178 0.0085 -0.0045
O12F 0.03 0.058 0.055 0.023 0.0231 0.0079
loop_
_geom_bond_atom_site_label_1
_geom_bond_atom_site_label_2
_geom_bond_site_symmetry_1
_geom_bond_site_symmetry_2
Zn1 O1 1_555 1_555
Zn2 O2 1_555 1_555
Zn3 O3 1_555 1_555
O1 C7 1_555 1_555
O2 C7 1_555 1_555
O3 C8 1_555 1_555
O4 Zn3 1_555 1_555
O5 C9 1_555 1_555
O6 C9 1_555 1_555
O7 Zn1 1_555 1_555
O8 Zn2 1_555 1_555
O9 C17 1_555 1_555
O10 C17 1_555 1_555
O11 C18 1_555 1_555
O12 C18 1_555 1_555
O13 Zn2 1_555 1_555
O14 Zn2 1_555 1_555
O15 Zn3 1_555 1_555
C1 C2 1_555 1_555
C2 H1 1_555 1_555
C3 C2 1_555 1_555
C4 C3 1_555 1_555
H2 C4 1_555 1_555
C5 C4 1_555 1_555
C6 C1 1_555 1_555
H3 C6 1_555 1_555
C7 C1 1_555 1_555
C8 O4 1_555 1_555
C9 C5 1_555 1_555
C10 C11 1_555 1_555
C11 H4 1_555 1_555
C12 C11 1_555 1_555
C13 C12 1_555 1_555
H5 C13 1_555 1_555
C14 C13 1_555 1_555
C15 C10 1_555 1_555
H6 C15 1_555 1_555
C16 O7 1_555 1_555
C17 C12 1_555 1_555
C18 C14 1_555 1_555
C19 O13 1_555 1_555
C20 N1 1_555 1_555
C21 C22 1_555 1_555
C22 N2 1_555 1_555
C23 N2 1_555 1_555
C24 O15 1_555 1_555
C25 N3 1_555 1_555
C26 C27 1_555 1_555
C27 N4 1_555 1_555
C28 N4 1_555 1_555
N1 C19 1_555 1_555
N2 C19 1_555 1_555
N3 C24 1_555 1_555
N4 C24 1_555 1_555
Zn1F O6 1_555 1_555
Zn1C O9 1_555 1_555
Zn2C O10 1_555 1_555
Zn3G O11 1_555 1_555
Zn3F O12 1_555 1_555
O6F Zn1 1_555 1_555
O9C Zn1 1_555 1_555
O10C Zn2 1_555 1_555
O11G Zn3 1_555 1_555
O12F Zn3 1_555 1_555
O8 C16 1_555 1_555
C3 C8 1_555 1_555
C5 C6 1_555 1_555
C10 C16 1_555 1_555
C14 C15 1_555 1_555
C21 N1 1_555 1_555
C26 N3 1_555 1_555

#END
