
#######################################################################
#
#                 Cambridge Crystallographic Data Centre
#                                CCDC 
#
#######################################################################
#
# If this CIF has been generated from an entry in the Cambridge 
# Structural Database, then it will include bibliographic, chemical, 
# crystal, experimental, refinement or atomic coordinate data resulting 
# from the CCDC's data processing and validation procedures.
#
#######################################################################

data_OFEHEO
_chemical_formula_moiety         '(C34 H24 Cd2 N6 O8)n'
_symmetry_cell_setting           tetragonal
_symmetry_space_group_name_H-M   'I 41/a'
_symmetry_Int_Tables_number      88
_space_group_name_Hall           '-I 4ad'
loop_
_symmetry_equiv_pos_site_id
_symmetry_equiv_pos_as_xyz
1 x,y,z
2 1/2-x,-y,1/2+z
3 3/4-y,1/4+x,1/4+z
4 3/4+y,3/4-x,3/4+z
5 1/2+x,1/2+y,1/2+z
6 -x,1/2-y,z
7 1/4-y,3/4+x,3/4+z
8 1/4+y,1/4-x,1/4+z
9 -x,-y,-z
10 1/2+x,y,1/2-z
11 1/4+y,3/4-x,3/4-z
12 1/4-y,1/4+x,1/4-z
13 1/2-x,1/2-y,1/2-z
14 x,1/2+y,-z
15 3/4+y,1/4-x,1/4-z
16 3/4-y,3/4+x,3/4-z
_cell_length_a                   22.143(4)
_cell_length_b                   22.143(4)
_cell_length_c                   16.282(6)
_cell_angle_alpha                90
_cell_angle_beta                 90
_cell_angle_gamma                90
_cell_volume                     7983.27
loop_
_atom_site_label
_atom_site_type_symbol
_atom_site_fract_x
_atom_site_fract_y
_atom_site_fract_z
_atom_site_U_iso_or_equiv
_atom_site_thermal_displace_type
Cd1 Cd 0.920320(7) 0.488325(7) 0.949745(10) 0.0253 Uani
O1 O 0.89667(10) 0.57320(8) 1.04353(11) 0.0463 Uani
O2 O 0.80258(11) 0.73296(9) 0.95026(12) 0.0554 Uani
O3 O 0.77940(8) 0.73541(7) 0.81783(11) 0.0361 Uani
N1 N 0.94294(10) 0.39855(9) 0.88070(14) 0.0389 Uani
C1 C 0.79992(11) 0.70910(10) 0.88044(15) 0.0323 Uani
O4 O 0.85396(11) 0.66334(9) 1.04794(11) 0.0549 Uani
H1 H 0.8362 0.6861 1.0164 0.0820 Uiso
C2 C 0.86988(11) 0.61444(11) 1.00872(15) 0.0359 Uani
N2 N 0.86455(8) 0.55552(8) 0.88090(12) 0.0264 Uani
C3 C 0.98704(12) 0.28127(10) 0.85713(17) 0.0384 Uani
C4 C 0.85275(10) 0.60841(9) 0.92167(14) 0.0276 Uani
C5 C 0.83965(10) 0.56203(10) 0.80641(14) 0.0283 Uani
C6 C 0.83772(12) 0.51429(10) 0.74302(15) 0.0368 Uani
C7 C 1.02216(12) 0.33130(11) 0.83974(18) 0.0416 Uani
H2 H 1.0612 0.3267 0.8198 0.0500 Uiso
C8 C 0.99825(11) 0.38880(11) 0.85248(17) 0.0388 Uani
H3 H 1.0224 0.4221 0.8405 0.0470 Uiso
C9 C 0.92769(13) 0.29134(12) 0.8805(2) 0.0552 Uani
H4 H 0.9016 0.2590 0.8884 0.0660 Uiso
C10 C 0.90769(13) 0.34960(12) 0.8921(2) 0.0557 Uani
H5 H 0.8679 0.3555 0.9086 0.0670 Uiso
N3 N 0.81345(9) 0.61686(8) 0.79632(12) 0.0299 Uani
C11 C 0.82167(10) 0.64611(10) 0.86922(14) 0.0276 Uani
C12 C 0.88873(16) 0.48301(14) 0.7205(2) 0.0577 Uani
H6 H 0.9256 0.4920 0.7449 0.0690 Uiso
C13 C 0.78259(15) 0.49973(14) 0.70617(19) 0.0523 Uani
H7 H 0.7478 0.5207 0.7207 0.0630 Uiso
C14 C 0.8306(2) 0.4232(2) 0.6250(3) 0.1052 Uani
C15 C 0.7797(2) 0.45414(17) 0.6480(2) 0.0740 Uani
H8 H 0.7428 0.4444 0.6243 0.0890 Uiso
C16 C 0.8851(2) 0.4378(2) 0.6611(3) 0.1052 Uani
H9 H 0.9199 0.4173 0.6455 0.1260 Uiso
C17 C 0.8263(2) 0.3740(2) 0.5589(3) 0.1052 Uani
H10 H 0.8049 0.3895 0.5122 0.1580 Uiso
H11 H 0.8051 0.3397 0.5807 0.1580 Uiso
H12 H 0.8662 0.3620 0.5426 0.1580 Uiso
N1E N 1.05706(10) 0.10145(9) 0.88070(14) 0.0389 Uani
C3E C 1.01296(12) 0.21873(10) 0.85713(17) 0.0384 Uani
C7E C 0.97784(12) 0.16870(11) 0.83974(18) 0.0416 Uani
H2E H 0.9388 0.1733 0.8198 0.0500 Uiso
C8E C 1.00175(11) 0.11120(11) 0.85248(17) 0.0388 Uani
H3E H 0.9776 0.0779 0.8405 0.0470 Uiso
C9E C 1.07231(13) 0.20866(12) 0.8805(2) 0.0552 Uani
H4E H 1.0984 0.2410 0.8884 0.0660 Uiso
C10E C 1.09231(13) 0.15040(12) 0.8921(2) 0.0557 Uani
H5E H 1.1321 0.1445 0.9086 0.0670 Uiso
Cd1E Cd 1.079680(7) 0.011675(7) 0.949745(10) 0.0253 Uani
O1E O 1.10333(10) -0.07320(8) 1.04353(11) 0.0463 Uani
O2E O 1.19742(11) -0.23296(9) 0.95026(12) 0.0554 Uani
O3E O 1.22060(8) -0.23541(7) 0.81783(11) 0.0361 Uani
C1E C 1.20008(11) -0.20910(10) 0.88044(15) 0.0323 Uani
O4E O 1.14604(11) -0.16334(9) 1.04794(11) 0.0549 Uani
H1E H 1.1638 -0.1861 1.0164 0.0820 Uiso
C2E C 1.13012(11) -0.11444(11) 1.00872(15) 0.0359 Uani
N2E N 1.13545(8) -0.05552(8) 0.88090(12) 0.0264 Uani
C4E C 1.14725(10) -0.10841(9) 0.92167(14) 0.0276 Uani
C5E C 1.16035(10) -0.06203(10) 0.80641(14) 0.0283 Uani
C6E C 1.16228(12) -0.01429(10) 0.74302(15) 0.0368 Uani
N3E N 1.18655(9) -0.11686(8) 0.79632(12) 0.0299 Uani
C11E C 1.17833(10) -0.14611(10) 0.86922(14) 0.0276 Uani
C12E C 1.11127(16) 0.01699(14) 0.7205(2) 0.0577 Uani
H6E H 1.0744 0.0080 0.7449 0.0690 Uiso
C13E C 1.21741(15) 0.00027(14) 0.70617(19) 0.0523 Uani
H7E H 1.2522 -0.0207 0.7207 0.0630 Uiso
C14E C 1.1694(2) 0.0768(2) 0.6250(3) 0.1052 Uani
C15E C 1.2203(2) 0.04586(17) 0.6480(2) 0.0740 Uani
H8E H 1.2572 0.0556 0.6243 0.0890 Uiso
C16E C 1.1149(2) 0.0622(2) 0.6611(3) 0.1052 Uani
H9E H 1.0801 0.0827 0.6455 0.1260 Uiso
C17E C 1.1737(2) 0.1260(2) 0.5589(3) 0.1052 Uani
H10E H 1.1951 0.1105 0.5122 0.1580 Uiso
H11E H 1.1949 0.1603 0.5807 0.1580 Uiso
H12E H 1.1338 0.1380 0.5426 0.1580 Uiso
Cd1C Cd 1.238325(7) -0.170320(7) 0.699745(10) 0.0253 Uani
Cd1F Cd 0.761675(7) 0.670320(7) 0.699745(10) 0.0253 Uani
Cd1J Cd 0.738325(7) 0.829680(7) 0.800255(10) 0.0253 Uani
Cd1O Cd 1.261675(7) -0.329680(7) 0.800255(10) 0.0253 Uani
O3B O 1.01459(7) 0.02940(8) 1.06783(11) 0.0361 Uani
O3G O 0.98541(7) 0.47060(8) 1.06783(11) 0.0361 Uani
O3J O 0.98541(7) -0.02940(8) 0.93217(11) 0.0361 Uani
O3O O 1.01459(7) 0.52940(8) 0.93217(11) 0.0361 Uani
N3B N 1.13314(8) 0.06345(9) 1.04632(12) 0.0299 Uani
N3G N 0.86686(8) 0.43655(9) 1.04632(12) 0.0299 Uani
loop_
_atom_site_aniso_label
_atom_site_aniso_U_11
_atom_site_aniso_U_22
_atom_site_aniso_U_33
_atom_site_aniso_U_23
_atom_site_aniso_U_13
_atom_site_aniso_U_12
Cd1 0.02081(11) 0.02085(11) 0.03435(13) 0.00962(6) 0.00073(6) 0.00087(5)
O1 0.0643(13) 0.0369(10) 0.0378(10) 0.0036(8) -0.0200(9) 0.0126(9)
O2 0.0855 0.034 0.0468 -0.0112 -0.0204 0.026
O3 0.037 0.0223 0.0491 0.0005 -0.019 0.0069
N1 0.0381(12) 0.0268(10) 0.0518(13) 0.0002(9) 0.0035(10) 0.0023(8)
C1 0.0301 0.0242 0.0426 -0.002 -0.0106 0.0057
O4 0.0840(16) 0.0422(11) 0.0386(11) -0.0091(8) -0.0232(10) 0.0231(10)
C2 0.0423(14) 0.0294(12) 0.0360(13) -0.0012(10) -0.0099(11) 0.0041(10)
N2 0.0265(9) 0.0202(9) 0.0325(10) 0.0036(7) -0.0048(8) 0.0037(7)
C3 0.0403(14) 0.0263(12) 0.0485(15) -0.0003(11) -0.0002(11) 0.0010(10)
C4 0.0296(11) 0.0217(10) 0.0316(12) 0.0006(9) -0.0061(9) 0.0022(8)
C5 0.0276(11) 0.0225(11) 0.0348(12) 0.0012(9) -0.0056(9) 0.0032(9)
C6 0.0507(15) 0.0251(12) 0.0345(13) -0.0007(10) -0.0088(11) 0.0066(10)
C7 0.0340(13) 0.0315(13) 0.0593(17) 0.0037(12) 0.0079(12) 0.0033(10)
C8 0.0373(13) 0.0263(12) 0.0529(16) 0.0059(11) 0.0021(12) -0.0027(10)
C9 0.0450(16) 0.0277(13) 0.093(2) -0.0019(14) 0.0160(16) -0.0072(11)
C10 0.0400(15) 0.0340(14) 0.093(2) -0.0051(15) 0.0171(15) -0.0022(12)
N3 0.0313(10) 0.0231(10) 0.0352(11) 0.0005(8) -0.0106(8) 0.0039(8)
C11 0.0264(11) 0.0217(10) 0.0347(12) -0.0013(9) -0.0088(9) 0.0038(8)
C12 0.0560(19) 0.0531(18) 0.064(2) -0.0183(15) -0.0038(16) 0.0161(14)
C13 0.0557(18) 0.0444(16) 0.0568(18) -0.0102(13) -0.0181(14) 0.0051(14)
C14 0.119(2) 0.0925(19) 0.104(2) -0.0601(17) -0.0175(17) 0.0261(17)
C15 0.090(3) 0.063(2) 0.069(2) -0.0245(18) -0.028(2) 0.0004(19)
C16 0.119(2) 0.0925(19) 0.104(2) -0.0601(17) -0.0175(17) 0.0261(17)
C17 0.119(2) 0.0925(19) 0.104(2) -0.0601(17) -0.0175(17) 0.0261(17)
N1E 0.0381 0.0268 0.0518 -0.0002 -0.0035 0.0023
C3E 0.0403 0.0263 0.0485 0.0003 0.0002 0.001
C7E 0.034 0.0315 0.0593 -0.0037 -0.0079 0.0033
C8E 0.0373 0.0263 0.0529 -0.0059 -0.0021 -0.0027
C9E 0.045 0.0277 0.093 0.0019 -0.016 -0.0072
C10E 0.04 0.034 0.093 0.0051 -0.0171 -0.0022
Cd1E 0.02081 0.02085 0.03435 -0.00962 -0.00073 0.00087
O1E 0.0643 0.0369 0.0378 -0.0036 0.02 0.0126
O2E 0.0855 0.034 0.0468 0.0112 0.0204 0.026
O3E 0.037 0.0223 0.0491 -0.0005 0.019 0.0069
C1E 0.0301 0.0242 0.0426 0.002 0.0106 0.0057
O4E 0.084 0.0422 0.0386 0.0091 0.0232 0.0231
C2E 0.0423 0.0294 0.036 0.0012 0.0099 0.0041
N2E 0.0265 0.0202 0.0325 -0.0036 0.0048 0.0037
C4E 0.0296 0.0217 0.0316 -0.0006 0.0061 0.0022
C5E 0.0276 0.0225 0.0348 -0.0012 0.0056 0.0032
C6E 0.0507 0.0251 0.0345 0.0007 0.0088 0.0066
N3E 0.0313 0.0231 0.0352 -0.0005 0.0106 0.0039
C11E 0.0264 0.0217 0.0347 0.0013 0.0088 0.0038
C12E 0.056 0.0531 0.064 0.0183 0.0038 0.0161
C13E 0.0557 0.0444 0.0568 0.0102 0.0181 0.0051
C14E 0.119 0.0925 0.104 0.0601 0.0175 0.0261
C15E 0.09 0.063 0.069 0.0245 0.028 0.0004
C16E 0.119 0.0925 0.104 0.0601 0.0175 0.0261
C17E 0.119 0.0925 0.104 0.0601 0.0175 0.0261
Cd1C 0.02085 0.02081 0.03435 -0.00073 0.00962 -0.00087
Cd1F 0.02085 0.02081 0.03435 0.00073 -0.00962 -0.00087
Cd1J 0.02085 0.02081 0.03435 0.00073 -0.00962 -0.00087
Cd1O 0.02085 0.02081 0.03435 -0.00073 0.00962 -0.00087
O3B 0.0223 0.037 0.0491 -0.019 -0.0005 -0.0069
O3G 0.0223 0.037 0.0491 0.019 0.0005 -0.0069
O3J 0.0223 0.037 0.0491 -0.019 -0.0005 -0.0069
O3O 0.0223 0.037 0.0491 0.019 0.0005 -0.0069
N3B 0.0231 0.0313 0.0352 -0.0106 -0.0005 -0.0039
N3G 0.0231 0.0313 0.0352 0.0106 0.0005 -0.0039
loop_
_geom_bond_atom_site_label_1
_geom_bond_atom_site_label_2
_geom_bond_site_symmetry_1
_geom_bond_site_symmetry_2
Cd1 O1 1_555 1_555
O1 C2 1_555 1_555
O2 C1 1_555 1_555
O3 C1 1_555 1_555
N1 Cd1 1_555 1_555
C1 C11 1_555 1_555
O4 H1 1_555 1_555
C2 O4 1_555 1_555
N2 Cd1 1_555 1_555
C3 C7 1_555 1_555
C4 C2 1_555 1_555
C5 N2 1_555 1_555
C6 C5 1_555 1_555
C7 H2 1_555 1_555
C8 N1 1_555 1_555
H3 C8 1_555 1_555
C9 C3 1_555 1_555
H4 C9 1_555 1_555
C10 N1 1_555 1_555
H5 C10 1_555 1_555
N3 C5 1_555 1_555
C11 C4 1_555 1_555
C12 C6 1_555 1_555
H6 C12 1_555 1_555
C13 C6 1_555 1_555
H7 C13 1_555 1_555
C14 C15 1_555 1_555
C15 C13 1_555 1_555
H8 C15 1_555 1_555
C16 C12 1_555 1_555
H9 C16 1_555 1_555
C17 C14 1_555 1_555
H10 C17 1_555 1_555
H11 C17 1_555 1_555
H12 C17 1_555 1_555
N1E C8E 1_555 1_555
C3E C3 1_555 1_555
C7E C3E 1_555 1_555
H2E C7E 1_555 1_555
C8E C7E 1_555 1_555
H3E C8E 1_555 1_555
C9E C3E 1_555 1_555
H4E C9E 1_555 1_555
C10E N1E 1_555 1_555
H5E C10E 1_555 1_555
Cd1E N1E 1_555 1_555
O1E Cd1E 1_555 1_555
O2E C1E 1_555 1_555
O3E C1E 1_555 1_555
C1E C11E 1_555 1_555
O4E H1E 1_555 1_555
C2E O1E 1_555 1_555
N2E Cd1E 1_555 1_555
C4E C2E 1_555 1_555
C5E N2E 1_555 1_555
C6E C5E 1_555 1_555
N3E C5E 1_555 1_555
C11E C4E 1_555 1_555
C12E C6E 1_555 1_555
H6E C12E 1_555 1_555
C13E C6E 1_555 1_555
H7E C13E 1_555 1_555
C14E C15E 1_555 1_555
C15E C13E 1_555 1_555
H8E C15E 1_555 1_555
C16E C12E 1_555 1_555
H9E C16E 1_555 1_555
C17E C14E 1_555 1_555
H10E C17E 1_555 1_555
H11E C17E 1_555 1_555
H12E C17E 1_555 1_555
Cd1C O3E 1_555 1_555
Cd1F O3 1_555 1_555
Cd1J O3 1_555 1_555
Cd1O O3E 1_555 1_555
O3B Cd1E 1_555 1_555
O3G Cd1 1_555 1_555
O3J Cd1E 1_555 1_555
O3O Cd1 1_555 1_555
N3B Cd1E 1_555 1_555
N3G Cd1 1_555 1_555
N2 C4 1_555 1_555
C7 C8 1_555 1_555
C9 C10 1_555 1_555
N3 C11 1_555 1_555
N3 Cd1F 1_555 1_555
C14 C16 1_555 1_555
C9E C10E 1_555 1_555
O4E C2E 1_555 1_555
N2E C4E 1_555 1_555
N3E C11E 1_555 1_555
N3E Cd1C 1_555 1_555
C14E C16E 1_555 1_555

#END
