
#######################################################################
#
#                 Cambridge Crystallographic Data Centre
#                                CCDC 
#
#######################################################################
#
# If this CIF has been generated from an entry in the Cambridge 
# Structural Database, then it will include bibliographic, chemical, 
# crystal, experimental, refinement or atomic coordinate data resulting 
# from the CCDC's data processing and validation procedures.
#
#######################################################################

data_SUZMEH
_chemical_formula_moiety         '(C58 H44 Cd3 N8 O14)n'
_symmetry_cell_setting           orthorhombic
_symmetry_space_group_name_H-M   'P 21 21 2'
_symmetry_Int_Tables_number      18
_space_group_name_Hall           'P 2 2ab'
loop_
_symmetry_equiv_pos_site_id
_symmetry_equiv_pos_as_xyz
1 x,y,z
2 -x,-y,z
3 1/2-x,1/2+y,-z
4 1/2+x,1/2-y,-z
_cell_length_a                   15.7377(5)
_cell_length_b                   21.1254(8)
_cell_length_c                   11.7487(3)
_cell_angle_alpha                90
_cell_angle_beta                 90
_cell_angle_gamma                90
_cell_volume                     3906.03
loop_
_atom_site_label
_atom_site_type_symbol
_atom_site_fract_x
_atom_site_fract_y
_atom_site_fract_z
Cd1 Cd 1.25157(3) 0.41183(2) 0.36997(4)
Cd2 Cd 0.5000 0.5000 0.39547(5)
C1 C 0.5000 0.5000 0.8294(7)
C2 C 1.2534(6) 0.4126(4) -0.0679(6)
N1 N 1.2461(5) 0.4106(3) 0.1711(5)
C3 C 0.5000 0.5000 0.9620(7)
N2 N 1.2629(5) 0.4133(3) -0.4317(5)
C4 C 1.2591(6) 0.4127(3) -0.1894(7)
N3 N 0.5000 0.5000 1.1957(7)
O1 O 0.7836(3) 0.4802(2) 0.3564(6)
N4 N 0.5000 0.5000 0.5958(7)
O2 O 0.8744(3) 0.1405(2) 0.6599(4)
O3 O 0.6472(3) 0.4966(2) 0.3838(5)
O4 O 0.9972(4) 0.1102(2) 0.5837(4)
C5 C 0.7096(4) 0.4607(3) 0.3692(7)
C6 C 1.2238(7) 0.4607(4) 0.1139(7)
H1 H 1.2048 0.4958 0.1545
C7 C 0.4713(5) 0.4500(4) 1.1378(7)
H2 H 0.4489 0.4159 1.1779
C8 C 0.4738(6) 0.4472(4) 1.0200(7)
H3 H 0.4582 0.4105 0.9814
C9 C 1.2709(6) 0.3604(4) 0.1121(7)
H4 H 1.2877 0.3244 0.1517
C10 C 1.2267(8) 0.4650(4) -0.0064(7)
H5 H 1.2110 0.5022 -0.0433
C11 C 1.0337(6) 0.2959(4) 0.4562(9)
C12 C 0.5197(8) 0.4491(4) 0.6535(7)
H6 H 0.5330 0.4124 0.6137
C13 C 1.2514(10) 0.3578(5) -0.2542(8)
H7 H 1.2449 0.3190 -0.2175
C14 C 1.2693(9) 0.4683(5) -0.2525(8)
H8 H 1.2728 0.5072 -0.2155
C15 C 1.2743(9) 0.4655(5) -0.3701(9)
H9 H 1.2865 0.5028 -0.4089
C16 C 1.2532(10) 0.3596(5) -0.3723(8)
H10 H 1.2473 0.3218 -0.4122
O5 O 1.1787(4) 0.2885(4) 0.4023(9)
C17 C 0.5216(8) 0.4476(4) 0.7702(8)
H11 H 0.5376 0.4109 0.8082
O6 O 1.1176(4) 0.3803(3) 0.3898(7)
C18 C 0.9402(4) 0.1492(3) 0.6005(6)
C19 C 1.2730(7) 0.3589(5) -0.0076(8)
H12 H 1.2876 0.3218 -0.0456
N5 N 0.7682(4) 0.3526(3) 0.3826(8)
C20 C 0.9504(5) 0.2150(4) 0.5503(6)
O7 O 0.7772(5) 0.3820(3) 0.5639(6)
C21 C 1.0271(5) 0.2354(4) 0.5054(7)
H13 H 1.0744 0.2090 0.5079
C22 C 0.8797(5) 0.2536(4) 0.5461(7)
H14 H 0.8289 0.2405 0.5788
C23 C 1.1171(5) 0.3222(4) 0.4124(8)
C24 C 0.8846(5) 0.3120(4) 0.4931(8)
C25 C 0.6929(5) 0.3901(4) 0.3633(10)
H15 H 0.6484 0.3783 0.4178
C26 C 0.8043(6) 0.3522(4) 0.4835(9)
C27 C 0.9600(6) 0.3320(4) 0.4465(9)
H16 H 0.9619 0.3703 0.4076
C28 C 0.6655(7) 0.3713(5) 0.2397(10)
H17 H 0.6041 0.3687 0.2330
H18 H 0.6869 0.4013 0.1841
C29 C 0.7950(7) 0.3177(6) 0.2828(10)
H19 H 0.8213 0.2776 0.3024
H20 H 0.8332 0.3422 0.2353
C30 C 0.7053(13) 0.3086(10) 0.226(2)
H21 H 0.7108 0.2975 0.1461
H22 H 0.6728 0.2761 0.2645
C7A C 0.5287(5) 0.5500(4) 1.1378(7)
H2A H 0.5511 0.5841 1.1779
C8A C 0.5262(6) 0.5528(4) 1.0200(7)
H3A H 0.5418 0.5895 0.9814
C12A C 0.4803(8) 0.5509(4) 0.6535(7)
H6A H 0.4670 0.5876 0.6137
C17A C 0.4784(8) 0.5524(4) 0.7702(8)
H11A H 0.4624 0.5891 0.8082
Cd1A Cd -0.25157(3) 0.58817(2) 0.36997(4)
C2A C -0.2534(6) 0.5874(4) -0.0679(6)
N1A N -0.2461(5) 0.5894(3) 0.1711(5)
N2A N -0.2629(5) 0.5867(3) -0.4317(5)
C4A C -0.2591(6) 0.5873(3) -0.1894(7)
O1A O 0.2164(3) 0.5198(2) 0.3564(6)
O2A O 0.1256(3) 0.8595(2) 0.6599(4)
O3A O 0.3528(3) 0.5034(2) 0.3838(5)
O4A O 0.0028(4) 0.8898(2) 0.5837(4)
C5A C 0.2904(4) 0.5393(3) 0.3692(7)
C6A C -0.2238(7) 0.5393(4) 0.1139(7)
H1A H -0.2048 0.5042 0.1545
C9A C -0.2709(6) 0.6396(4) 0.1121(7)
H4A H -0.2877 0.6756 0.1517
C10A C -0.2267(8) 0.5350(4) -0.0064(7)
H5A H -0.2110 0.4978 -0.0433
C11A C -0.0337(6) 0.7041(4) 0.4562(9)
C13A C -0.2514(10) 0.6422(5) -0.2542(8)
H7A H -0.2449 0.6810 -0.2175
C14A C -0.2693(9) 0.5317(5) -0.2525(8)
H8A H -0.2728 0.4928 -0.2155
C15A C -0.2743(9) 0.5345(5) -0.3701(9)
H9A H -0.2865 0.4972 -0.4089
C16A C -0.2532(10) 0.6404(5) -0.3723(8)
H10A H -0.2473 0.6782 -0.4122
O5A O -0.1787(4) 0.7115(4) 0.4023(9)
O6A O -0.1176(4) 0.6197(3) 0.3898(7)
C18A C 0.0598(4) 0.8508(3) 0.6005(6)
C19A C -0.2730(7) 0.6411(5) -0.0076(8)
H12A H -0.2876 0.6782 -0.0456
N5A N 0.2318(4) 0.6474(3) 0.3826(8)
C20A C 0.0496(5) 0.7850(4) 0.5503(6)
O7A O 0.2228(5) 0.6180(3) 0.5639(6)
C21A C -0.0271(5) 0.7646(4) 0.5054(7)
H13A H -0.0744 0.7910 0.5079
C22A C 0.1203(5) 0.7464(4) 0.5461(7)
H14A H 0.1711 0.7595 0.5788
C23A C -0.1171(5) 0.6778(4) 0.4124(8)
C24A C 0.1154(5) 0.6880(4) 0.4931(8)
C25A C 0.3071(5) 0.6099(4) 0.3633(10)
H15A H 0.3516 0.6217 0.4178
C26A C 0.1957(6) 0.6478(4) 0.4835(9)
C27A C 0.0400(6) 0.6680(4) 0.4465(9)
H16A H 0.0381 0.6297 0.4076
C28A C 0.3345(7) 0.6287(5) 0.2397(10)
H17A H 0.3959 0.6313 0.2330
H18A H 0.3131 0.5987 0.1841
C29A C 0.2050(7) 0.6823(6) 0.2828(10)
H19A H 0.1787 0.7224 0.3024
H20A H 0.1668 0.6578 0.2353
C30A C 0.2947(13) 0.6914(10) 0.226(2)
H21A H 0.2892 0.7025 0.1461
H22A H 0.3272 0.7239 0.2645
Cd1_2 Cd 0.25157(3) 0.41183(2) 0.36997(4)
Cd1_3 Cd 1.25157(3) 0.41183(2) -0.63003(4)
Cd1A_2 Cd -0.25157(3) 0.58817(2) -0.63003(4)
Cd1A_3 Cd 0.74843(3) 0.58817(2) 0.36997(4)
Cd1B Cd 0.24843(3) 0.91183(2) 0.63003(4)
Cd1C Cd 0.75157(3) 0.08817(2) 0.63003(4)
Cd2_2 Cd 0.5000 0.5000 1.39547(5)
Cd2B Cd -0.0000 1.0000 0.60453(5)
Cd2B_2 Cd 1.0000 0.0000 0.60453(5)
N2_2 N 1.2629(5) 0.4133(3) 0.5683(5)
N2A_2 N -0.2629(5) 0.5867(3) 0.5683(5)
N3_2 N 0.5000 0.5000 0.1957(7)
O1_2 O -0.2164(3) 0.4802(2) 0.3564(6)
O1A_2 O 1.2164(3) 0.5198(2) 0.3564(6)
O2B O -0.3744(3) 0.6405(2) 0.3401(4)
O2C O 1.3744(3) 0.3595(2) 0.3401(4)
O3_2 O -0.3528(3) 0.4966(2) 0.3838(5)
O3A_2 O 1.3528(3) 0.5034(2) 0.3838(5)
O4B O 0.5028(4) 0.6102(2) 0.4163(4)
O4C O 0.4972(4) 0.3898(2) 0.4163(4)
loop_
_geom_bond_atom_site_label_1
_geom_bond_atom_site_label_2
_geom_bond_site_symmetry_1
_geom_bond_site_symmetry_2
Cd1 N1 1_555 1_555
Cd2 N4 1_555 1_555
C1 C3 1_555 1_555
C2 C4 1_555 1_555
N1 C6 1_555 1_555
C3 C8 1_555 1_555
N2 C15 1_555 1_555
C4 C13 1_555 1_555
N3 C7 1_555 1_555
O1 C5 1_555 1_555
N4 C12 1_555 1_555
O2 C18 1_555 1_555
O3 Cd2 1_555 1_555
O4 C18 1_555 1_555
C5 O3 1_555 1_555
C6 H1 1_555 1_555
C7 H2 1_555 1_555
C8 C7 1_555 1_555
H3 C8 1_555 1_555
C9 N1 1_555 1_555
H4 C9 1_555 1_555
C10 C2 1_555 1_555
H5 C10 1_555 1_555
C11 C21 1_555 1_555
C12 H6 1_555 1_555
C13 H7 1_555 1_555
C14 C4 1_555 1_555
H8 C14 1_555 1_555
C15 C14 1_555 1_555
H9 C15 1_555 1_555
C16 N2 1_555 1_555
H10 C16 1_555 1_555
O5 C23 1_555 1_555
C17 C1 1_555 1_555
H11 C17 1_555 1_555
O6 Cd1 1_555 1_555
C18 C20 1_555 1_555
C19 C2 1_555 1_555
H12 C19 1_555 1_555
N5 C25 1_555 1_555
C20 C21 1_555 1_555
O7 C26 1_555 1_555
C21 H13 1_555 1_555
C22 C20 1_555 1_555
H14 C22 1_555 1_555
C23 C11 1_555 1_555
C24 C22 1_555 1_555
C25 C5 1_555 1_555
H15 C25 1_555 1_555
C26 N5 1_555 1_555
C27 C11 1_555 1_555
H16 C27 1_555 1_555
C28 C25 1_555 1_555
H17 C28 1_555 1_555
H18 C28 1_555 1_555
C29 N5 1_555 1_555
H19 C29 1_555 1_555
H20 C29 1_555 1_555
C30 C28 1_555 1_555
H21 C30 1_555 1_555
H22 C30 1_555 1_555
C7A N3 1_555 1_555
H2A C7A 1_555 1_555
C8A C3 1_555 1_555
H3A C8A 1_555 1_555
C12A N4 1_555 1_555
H6A C12A 1_555 1_555
C17A C1 1_555 1_555
H11A C17A 1_555 1_555
Cd1A N1A 1_555 1_555
C2A C4A 1_555 1_555
N1A C6A 1_555 1_555
N2A C15A 1_555 1_555
C4A C13A 1_555 1_555
O1A C5A 1_555 1_555
O2A C18A 1_555 1_555
O3A Cd2 1_555 1_555
O4A C18A 1_555 1_555
C5A O3A 1_555 1_555
C6A H1A 1_555 1_555
C9A N1A 1_555 1_555
H4A C9A 1_555 1_555
C10A C2A 1_555 1_555
H5A C10A 1_555 1_555
C11A C21A 1_555 1_555
C13A H7A 1_555 1_555
C14A C4A 1_555 1_555
H8A C14A 1_555 1_555
C15A C14A 1_555 1_555
H9A C15A 1_555 1_555
C16A N2A 1_555 1_555
H10A C16A 1_555 1_555
O5A C23A 1_555 1_555
O6A Cd1A 1_555 1_555
C18A C20A 1_555 1_555
C19A C2A 1_555 1_555
H12A C19A 1_555 1_555
N5A C25A 1_555 1_555
C20A C21A 1_555 1_555
O7A C26A 1_555 1_555
C21A H13A 1_555 1_555
C22A C20A 1_555 1_555
H14A C22A 1_555 1_555
C23A C11A 1_555 1_555
C24A C22A 1_555 1_555
C25A C5A 1_555 1_555
H15A C25A 1_555 1_555
C26A N5A 1_555 1_555
C27A C11A 1_555 1_555
H16A C27A 1_555 1_555
C28A C25A 1_555 1_555
H17A C28A 1_555 1_555
H18A C28A 1_555 1_555
C29A N5A 1_555 1_555
H19A C29A 1_555 1_555
H20A C29A 1_555 1_555
C30A C28A 1_555 1_555
H21A C30A 1_555 1_555
H22A C30A 1_555 1_555
Cd1_2 O1A 1_555 1_555
Cd1_3 N2 1_555 1_555
Cd1A_2 N2A 1_555 1_555
Cd1A_3 O1 1_555 1_555
Cd1B O2A 1_555 1_555
Cd1C O2 1_555 1_555
Cd2_2 N3 1_555 1_555
Cd2B O4A 1_555 1_555
Cd2B_2 O4 1_555 1_555
N2_2 Cd1 1_555 1_555
N2A_2 Cd1A 1_555 1_555
N3_2 Cd2 1_555 1_555
O1_2 Cd1A 1_555 1_555
O1A_2 Cd1 1_555 1_555
O2B Cd1A 1_555 1_555
O2C Cd1 1_555 1_555
O3_2 Cd1A 1_555 1_555
O3A_2 Cd1 1_555 1_555
O4B Cd2 1_555 1_555
O4C Cd2 1_555 1_555
O3 Cd1A_3 1_555 1_555
C6 C10 1_555 1_555
C9 C19 1_555 1_555
C12 C17 1_555 1_555
C13 C16 1_555 1_555
O6 C23 1_555 1_555
C24 C26 1_555 1_555
C24 C27 1_555 1_555
C29 C30 1_555 1_555
C7A C8A 1_555 1_555
C12A C17A 1_555 1_555
O3A Cd1_2 1_555 1_555
C6A C10A 1_555 1_555
C9A C19A 1_555 1_555
C13A C16A 1_555 1_555
O6A C23A 1_555 1_555
C24A C26A 1_555 1_555
C24A C27A 1_555 1_555
C29A C30A 1_555 1_555

#END
