
#######################################################################
#
#                 Cambridge Crystallographic Data Centre
#                                CCDC 
#
#######################################################################
#
# If this CIF has been generated from an entry in the Cambridge 
# Structural Database, then it will include bibliographic, chemical, 
# crystal, experimental, refinement or atomic coordinate data resulting 
# from the CCDC's data processing and validation procedures.
#
#######################################################################

data_SOJGOO
_chemical_formula_moiety         '(C97 H59 Ce3 N8 O21)n'
_symmetry_cell_setting           triclinic
_symmetry_space_group_name_H-M   'P -1'
_symmetry_Int_Tables_number      2
_space_group_name_Hall           '-P 1'
loop_
_symmetry_equiv_pos_site_id
_symmetry_equiv_pos_as_xyz
1 x,y,z
2 -x,-y,-z
_cell_length_a                   11.8493(2)
_cell_length_b                   13.9604(3)
_cell_length_c                   34.2738(8)
_cell_angle_alpha                97.0961(9)
_cell_angle_beta                 99.4543(8)
_cell_angle_gamma                100.1027(9)
_cell_volume                     5437.71
loop_
_atom_site_label
_atom_site_type_symbol
_atom_site_fract_x
_atom_site_fract_y
_atom_site_fract_z
Ce1 Ce -0.13167(3) 0.04270(2) 0.249817(9)
Ce2 Ce 0.15868(3) -0.09220(3) 0.247434(9)
Ce3 Ce -0.51281(3) 0.01341(3) -0.246260(9)
C1 C 0.4590(5) 0.5442(4) 0.08602(16)
C2 C 0.4872(5) 0.5178(4) 0.12541(17)
H1 H 0.5524 0.5482 0.1458
C3 C 0.4017(5) 0.4407(4) 0.12740(17)
H2 H 0.3961 0.4068 0.1496
C4 C 0.3205(5) 0.4198(4) 0.08930(16)
C5 C 0.2182(5) 0.3483(4) 0.08062(16)
C6 C 0.1318(5) 0.3336(4) 0.04610(17)
C7 C 0.0289(5) 0.2592(5) 0.03535(19)
H3 H 0.0056 0.2103 0.0510
C8 C -0.0301(5) 0.2688(5) -0.00040(18)
H4 H -0.1027 0.2293 -0.0141
C9 C 0.0369(5) 0.3501(4) -0.01417(16)
C10 C 0.0073(5) 0.3844(4) -0.05046(16)
C11 C 0.0709(5) 0.4671(4) -0.06204(16)
C12 C 0.0409(5) 0.4972(4) -0.10026(17)
H5 H -0.0249 0.4676 -0.1206
C13 C 0.1226(5) 0.5744(5) -0.10181(18)
H6 H 0.1254 0.6103 -0.1236
C14 C 0.2060(5) 0.5941(4) -0.06474(16)
C15 C 0.3102(5) 0.6656(4) -0.05632(17)
C16 C 0.3990(5) 0.6778(4) -0.02283(17)
C17 C 0.5065(6) 0.7483(5) -0.01325(18)
H7 H 0.5325 0.7953 -0.0293
C18 C 0.5647(6) 0.7364(5) 0.02252(19)
H8 H 0.6383 0.7744 0.0362
C19 C 0.4966(5) 0.6566(4) 0.03647(17)
C20 C 0.5252(5) 0.6220(4) 0.07282(16)
N1 N 0.3589(4) 0.4838(3) 0.06478(12)
H9 H 0.3253 0.4856 0.0401
N2 N 0.1340(4) 0.3885(3) 0.01478(13)
N3 N 0.1707(4) 0.5269(3) -0.04101(13)
H11 H 0.2061 0.5233 -0.0167
N4 N 0.3969(4) 0.6222(3) 0.00806(13)
C21 C 0.1906(5) 0.2843(4) 0.11093(17)
C22 C 0.1075(6) 0.3011(5) 0.13340(19)
H13 H 0.0718 0.3564 0.1306
C23 C 0.0750(6) 0.2391(5) 0.15997(19)
H14 H 0.0175 0.2520 0.1751
C24 C 0.1263(5) 0.1581(4) 0.16455(17)
C25 C 0.2096(6) 0.1411(5) 0.14238(18)
H15 H 0.2448 0.0855 0.1450
C26 C 0.2426(6) 0.2046(5) 0.11619(18)
H16 H 0.3019 0.1929 0.1017
C27 C 0.0854(6) 0.0900(5) 0.19168(17)
O1 O 0.0024(4) 0.1082(3) 0.20841(13)
O2 O 0.1397(4) 0.0209(3) 0.19759(12)
C28 C -0.0902(5) 0.3202(4) -0.08079(16)
C29 C -0.0720(5) 0.2329(4) -0.09949(16)
H17 H -0.0007 0.2125 -0.0912
C30 C -0.1547(5) 0.1745(4) -0.12991(17)
H18 H -0.1393 0.1156 -0.1431
C31 C -0.2608(5) 0.2020(4) -0.14128(16)
C32 C -0.2841(5) 0.2862(5) -0.12136(18)
H19 H -0.3583 0.3032 -0.1280
C33 C -0.1978(5) 0.3461(5) -0.09143(19)
H20 H -0.2127 0.4051 -0.0782
C34 C -0.3492(6) 0.1389(4) -0.17593(18)
O3 O -0.3115(3) 0.1073(3) -0.20629(11)
O4 O -0.4541(4) 0.1171(4) -0.17365(13)
C35 C 0.3275(5) 0.7326(4) -0.08702(16)
C36 C 0.4165(5) 0.7333(5) -0.10807(17)
H21 H 0.4727 0.6940 -0.1016
C37 C 0.4269(6) 0.7890(5) -0.13821(18)
H22 H 0.4897 0.7881 -0.1522
C38 C 0.3459(6) 0.8461(4) -0.14805(17)
C39 C 0.2563(5) 0.8486(4) -0.12695(19)
H23 H 0.2007 0.8883 -0.1335
C40 C 0.2474(5) 0.7931(4) -0.09610(19)
H24 H 0.1869 0.7962 -0.0812
C41 C 0.3489(7) 0.9034(5) -0.1818(2)
O5 O 0.4314(5) 0.8987(4) -0.20098(14)
O6 O 0.2719(5) 0.9508(3) -0.19106(13)
C42 C 0.6325(5) 0.6782(4) 0.10174(16)
C43 C 0.7301(5) 0.6340(5) 0.11115(19)
H25 H 0.7302 0.5701 0.0978
C44 C 0.8241(5) 0.6830(5) 0.13939(18)
H26 H 0.8900 0.6533 0.1450
C45 C 0.8259(5) 0.7761(4) 0.16030(16)
C46 C 0.7309(5) 0.8205(5) 0.15124(17)
H27 H 0.7309 0.8841 0.1648
C47 C 0.6349(5) 0.7704(4) 0.12180(18)
H28 H 0.5699 0.8009 0.1156
C48 C 0.9287(6) 0.8244(5) 0.19226(17)
O7 O 1.0164(4) 0.7843(3) 0.19638(12)
O8 O 0.9266(3) 0.9035(3) 0.21449(11)
C49 C 0.9091(5) 0.5409(4) 0.57582(16)
C50 C 0.9179(5) 0.5233(4) 0.61693(17)
H29 H 0.9739 0.5593 0.6393
C51 C 0.8323(5) 0.4465(4) 0.61756(17)
H30 H 0.8163 0.4181 0.6404
C52 C 0.7688(5) 0.4156(4) 0.57655(16)
C53 C 0.6734(5) 0.3387(4) 0.56537(17)
C54 C 0.5990(6) 0.3174(4) 0.52796(17)
C55 C 0.5000(6) 0.2385(5) 0.51424(19)
H31 H 0.4716 0.1903 0.5295
C56 C 0.4532(6) 0.2440(5) 0.47556(19)
H32 H 0.3874 0.2000 0.4592
C57 C 0.5204(5) 0.3272(4) 0.46409(17)
C58 C 0.5010(5) 0.3574(4) 0.42665(17)
C59 C 0.5683(5) 0.4396(4) 0.41580(16)
C60 C 0.5444(5) 0.4684(4) 0.37650(16)
H33 H 0.4808 0.4387 0.3553
C61 C 0.6305(5) 0.5461(4) 0.37595(17)
H34 H 0.6397 0.5810 0.3542
C62 C 0.7062(5) 0.5656(4) 0.41542(16)
C63 C 0.8093(5) 0.6366(4) 0.42563(16)
C64 C 0.8902(5) 0.6509(4) 0.46144(18)
C65 C 0.9991(6) 0.7211(5) 0.47269(19)
H35 H 1.0320 0.7640 0.4563
C66 C 1.0467(6) 0.7149(5) 0.51115(19)
H36 H 1.1181 0.7536 0.5263
C67 C 0.9712(5) 0.6407(4) 0.52469(17)
C68 C 0.9834(5) 0.6152(4) 0.56300(17)
N5 N 0.8166(4) 0.4763(3) 0.55237(13)
H37 H 0.7920 0.4739 0.5265
N6 N 0.6099(4) 0.3692(3) 0.49610(13)
N7 N 0.6656(4) 0.5006(3) 0.43884(13)
H39 H 0.6960 0.4983 0.4639
N8 N 0.8761(4) 0.6027(3) 0.49376(13)
C69 C 0.6462(5) 0.2733(4) 0.59525(16)
C70 C 0.7250(6) 0.2193(4) 0.61105(17)
H41 H 0.7965 0.2225 0.6017
C71 C 0.7039(5) 0.1611(4) 0.63979(17)
H42 H 0.7614 0.1269 0.6506
C72 C 0.5984(5) 0.1527(5) 0.65287(16)
C73 C 0.5172(6) 0.2043(5) 0.63656(19)
H43 H 0.4437 0.1971 0.6447
C74 C 0.5398(6) 0.2656(5) 0.60896(19)
H44 H 0.4839 0.3024 0.5993
C75 C 0.5691(6) 0.0899(5) 0.68293(18)
O9 O 0.6495(3) 0.0652(3) 0.70695(11)
O10 O 0.4627(4) 0.0597(4) 0.68430(14)
C76 C 0.4017(5) 0.2985(4) 0.39639(17)
C77 C 0.4160(6) 0.2164(5) 0.37175(19)
H45 H 0.4898 0.1976 0.3748
C78 C 0.3235(5) 0.1611(5) 0.34248(18)
H46 H 0.3354 0.1057 0.3257
C79 C 0.2164(5) 0.1859(4) 0.33774(16)
C80 C 0.2023(6) 0.2680(5) 0.36180(19)
H47 H 0.1290 0.2877 0.3584
C81 C 0.2948(6) 0.3225(5) 0.39118(18)
H48 H 0.2825 0.3777 0.4079
C82 C 0.1151(6) 0.1285(5) 0.30652(18)
O11 O 0.1320(4) 0.0530(3) 0.28513(12)
O12 O 0.0192(4) 0.1571(3) 0.30170(12)
C83 C 0.8435(5) 0.6977(4) 0.39463(17)
C84 C 0.9272(6) 0.6758(5) 0.3733(2)
H49 H 0.9607 0.6202 0.3777
C85 C 0.9636(6) 0.7317(5) 0.34589(19)
H50 H 1.0229 0.7157 0.3321
C86 C 0.9138(5) 0.8114(4) 0.33832(16)
C87 C 0.8278(6) 0.8340(5) 0.35923(19)
H51 H 0.7928 0.8887 0.3542
C88 C 0.7930(5) 0.7771(5) 0.38735(18)
H52 H 0.7345 0.7929 0.4015
C89 C 0.9549(5) 0.8733(5) 0.30920(18)
O13 O 0.9059(3) 0.9442(3) 0.30245(11)
O14 O 1.0377(4) 0.8507(3) 0.29302(12)
C90 C 1.0800(5) 0.6802(4) 0.59384(17)
C91 C 1.1747(5) 0.6447(5) 0.61254(19)
H53 H 1.1829 0.5795 0.6037
C92 C 1.2555(6) 0.7020(5) 0.64324(19)
H54 H 1.3200 0.6769 0.6553
C93 C 1.2435(5) 0.7984(4) 0.65721(17)
C94 C 1.1490(5) 0.8349(4) 0.63878(17)
H55 H 1.1386 0.8991 0.6481
C95 C 1.0713(5) 0.7760(4) 0.60681(17)
H56 H 1.0098 0.8021 0.5933
C96 C 1.3236(5) 0.8614(5) 0.69290(19)
O15 O 1.4277(4) 0.8486(3) 0.70260(13)
O16 O 1.2867(3) 0.9245(3) 0.71400(12)
O17 O 0.2054(4) -0.2628(4) 0.25330(15)
O18 O -0.1509(4) 0.2249(3) 0.24870(13)
O19 O -0.3602(4) -0.0948(4) -0.23933(15)
O20 O -0.3153(3) -0.0991(3) 0.24011(12)
C97 C -0.3621(8) -0.1874(6) 0.2430(2)
H57 H -0.3187 -0.2386 0.2436
O21 O -0.4742(5) -0.2033(4) 0.24515(18)
Ce1A Ce 0.13167(3) 0.95730(2) -0.249817(9)
Ce1_2 Ce 0.86833(3) 1.04270(2) 0.249817(9)
Ce1A_2 Ce 1.13167(3) 0.95730(2) 0.750183(9)
Ce2A Ce -0.15868(3) 0.09220(3) -0.247434(9)
Ce2_2 Ce 1.15868(3) 0.90780(3) 0.247434(9)
Ce2A_2 Ce 0.84132(3) 0.09220(3) 0.752566(9)
Ce3_2 Ce 0.48719(3) 1.01341(3) -0.246260(9)
Ce3_3 Ce 0.48719(3) 0.01341(3) 0.753740(9)
Ce3_4 Ce 1.48719(3) 1.01341(3) 0.753740(9)
Ce3A Ce -0.48719(3) -0.01341(3) 0.246260(9)
O3A O 0.3115(3) -0.1073(3) 0.20629(11)
O5_2 O -0.5686(5) -0.1013(4) -0.20098(14)
O6A O -0.2719(5) 0.0492(3) 0.19106(13)
O7_2 O 0.0164(4) -0.2157(3) 0.19638(12)
O8_2 O -0.0734(3) -0.0965(3) 0.21449(11)
O9A O 0.3505(3) -0.0652(3) 0.29305(11)
O10_2 O -0.5373(4) 0.0597(4) -0.31570(14)
O13_2 O -0.0941(3) -0.0558(3) 0.30245(11)
O14_2 O 0.0377(4) -0.1493(3) 0.29302(12)
O15_2 O -0.5723(4) -0.1514(3) -0.29740(13)
O16A O -0.2867(3) 0.0755(3) 0.28600(12)
O16_2 O -0.7133(3) -0.0755(3) -0.28600(12)
O20A O -0.6847(3) 0.0991(3) -0.24011(12)
loop_
_geom_bond_atom_site_label_1
_geom_bond_atom_site_label_2
_geom_bond_site_symmetry_1
_geom_bond_site_symmetry_2
Ce1 O1 1_555 1_555
Ce2 O2 1_555 1_555
Ce3 O3 1_555 1_555
C1 C2 1_555 1_555
C2 H1 1_555 1_555
C3 C2 1_555 1_555
H2 C3 1_555 1_555
C4 C3 1_555 1_555
C5 C4 1_555 1_555
C6 C5 1_555 1_555
C7 C6 1_555 1_555
H3 C7 1_555 1_555
C8 C7 1_555 1_555
H4 C8 1_555 1_555
C9 C8 1_555 1_555
C10 C9 1_555 1_555
C11 C10 1_555 1_555
C12 C11 1_555 1_555
H5 C12 1_555 1_555
C13 C12 1_555 1_555
H6 C13 1_555 1_555
C14 C13 1_555 1_555
C15 C14 1_555 1_555
C16 C15 1_555 1_555
C17 C16 1_555 1_555
H7 C17 1_555 1_555
C18 C17 1_555 1_555
H8 C18 1_555 1_555
C19 C18 1_555 1_555
C20 C1 1_555 1_555
N1 C1 1_555 1_555
H9 N1 1_555 1_555
N2 C6 1_555 1_555
N3 C11 1_555 1_555
H11 N3 1_555 1_555
N4 C16 1_555 1_555
C21 C5 1_555 1_555
C22 C21 1_555 1_555
H13 C22 1_555 1_555
C23 C22 1_555 1_555
H14 C23 1_555 1_555
C24 C23 1_555 1_555
C25 C24 1_555 1_555
H15 C25 1_555 1_555
C26 C21 1_555 1_555
H16 C26 1_555 1_555
C27 C24 1_555 1_555
O1 C27 1_555 1_555
O2 C27 1_555 1_555
C28 C10 1_555 1_555
C29 C28 1_555 1_555
H17 C29 1_555 1_555
C30 C29 1_555 1_555
H18 C30 1_555 1_555
C31 C30 1_555 1_555
C32 C31 1_555 1_555
H19 C32 1_555 1_555
C33 C28 1_555 1_555
H20 C33 1_555 1_555
C34 C31 1_555 1_555
O3 C34 1_555 1_555
O4 Ce3 1_555 1_555
C35 C15 1_555 1_555
C36 C35 1_555 1_555
H21 C36 1_555 1_555
C37 C36 1_555 1_555
H22 C37 1_555 1_555
C38 C37 1_555 1_555
C39 C38 1_555 1_555
H23 C39 1_555 1_555
C40 C35 1_555 1_555
H24 C40 1_555 1_555
C41 C38 1_555 1_555
O5 C41 1_555 1_555
O6 C41 1_555 1_555
C42 C20 1_555 1_555
C43 C42 1_555 1_555
H25 C43 1_555 1_555
C44 C43 1_555 1_555
H26 C44 1_555 1_555
C45 C44 1_555 1_555
C46 C45 1_555 1_555
H27 C46 1_555 1_555
C47 C42 1_555 1_555
H28 C47 1_555 1_555
C48 C45 1_555 1_555
O7 C48 1_555 1_555
O8 C48 1_555 1_555
C49 C50 1_555 1_555
C50 H29 1_555 1_555
C51 C50 1_555 1_555
H30 C51 1_555 1_555
C52 C51 1_555 1_555
C53 C52 1_555 1_555
C54 C53 1_555 1_555
C55 C54 1_555 1_555
H31 C55 1_555 1_555
C56 C55 1_555 1_555
H32 C56 1_555 1_555
C57 C56 1_555 1_555
C58 C57 1_555 1_555
C59 C58 1_555 1_555
C60 C59 1_555 1_555
H33 C60 1_555 1_555
C61 C60 1_555 1_555
H34 C61 1_555 1_555
C62 C61 1_555 1_555
C63 C62 1_555 1_555
C64 C63 1_555 1_555
C65 C64 1_555 1_555
H35 C65 1_555 1_555
C66 C65 1_555 1_555
H36 C66 1_555 1_555
C67 C66 1_555 1_555
C68 C49 1_555 1_555
N5 C49 1_555 1_555
H37 N5 1_555 1_555
N6 C54 1_555 1_555
N7 C59 1_555 1_555
H39 N7 1_555 1_555
N8 C64 1_555 1_555
C69 C53 1_555 1_555
C70 C69 1_555 1_555
H41 C70 1_555 1_555
C71 C70 1_555 1_555
H42 C71 1_555 1_555
C72 C71 1_555 1_555
C73 C72 1_555 1_555
H43 C73 1_555 1_555
C74 C69 1_555 1_555
H44 C74 1_555 1_555
C75 C72 1_555 1_555
O9 C75 1_555 1_555
O10 C75 1_555 1_555
C76 C58 1_555 1_555
C77 C76 1_555 1_555
H45 C77 1_555 1_555
C78 C77 1_555 1_555
H46 C78 1_555 1_555
C79 C78 1_555 1_555
C80 C79 1_555 1_555
H47 C80 1_555 1_555
C81 C76 1_555 1_555
H48 C81 1_555 1_555
C82 C79 1_555 1_555
O11 Ce2 1_555 1_555
O12 Ce1 1_555 1_555
C83 C63 1_555 1_555
C84 C83 1_555 1_555
H49 C84 1_555 1_555
C85 C84 1_555 1_555
H50 C85 1_555 1_555
C86 C85 1_555 1_555
C87 C86 1_555 1_555
H51 C87 1_555 1_555
C88 C83 1_555 1_555
H52 C88 1_555 1_555
C89 C86 1_555 1_555
O13 C89 1_555 1_555
O14 C89 1_555 1_555
C90 C68 1_555 1_555
C91 C90 1_555 1_555
H53 C91 1_555 1_555
C92 C91 1_555 1_555
H54 C92 1_555 1_555
C93 C92 1_555 1_555
C94 C93 1_555 1_555
H55 C94 1_555 1_555
C95 C90 1_555 1_555
H56 C95 1_555 1_555
C96 C93 1_555 1_555
O15 C96 1_555 1_555
O16 C96 1_555 1_555
O17 Ce2 1_555 1_555
O18 Ce1 1_555 1_555
O19 Ce3 1_555 1_555
O20 Ce1 1_555 1_555
C97 O20 1_555 1_555
H57 C97 1_555 1_555
O21 C97 1_555 1_555
Ce1A O6 1_555 1_555
Ce1_2 O8 1_555 1_555
Ce1A_2 O16 1_555 1_555
Ce2A O3 1_555 1_555
Ce2_2 O7 1_555 1_555
Ce2A_2 O9 1_555 1_555
Ce3_2 O5 1_555 1_555
Ce3_3 O10 1_555 1_555
Ce3_4 O15 1_555 1_555
Ce3A O20 1_555 1_555
O3A Ce2 1_555 1_555
O5_2 Ce3 1_555 1_555
O6A Ce1 1_555 1_555
O7_2 Ce2 1_555 1_555
O8_2 Ce1 1_555 1_555
O9A Ce2 1_555 1_555
O10_2 Ce3 1_555 1_555
O13_2 Ce1 1_555 1_555
O14_2 Ce2 1_555 1_555
O15_2 Ce3 1_555 1_555
O16A Ce1 1_555 1_555
O16_2 Ce3 1_555 1_555
O20A Ce3 1_555 1_555
C4 N1 1_555 1_555
C9 N2 1_555 1_555
C14 N3 1_555 1_555
C19 C20 1_555 1_555
C19 N4 1_555 1_555
C25 C26 1_555 1_555
C32 C33 1_555 1_555
C34 O4 1_555 1_555
C39 C40 1_555 1_555
C46 C47 1_555 1_555
C52 N5 1_555 1_555
C57 N6 1_555 1_555
C62 N7 1_555 1_555
C67 C68 1_555 1_555
C67 N8 1_555 1_555
C73 C74 1_555 1_555
C80 C81 1_555 1_555
C82 O11 1_555 1_555
C82 O12 1_555 1_555
C87 C88 1_555 1_555
O13 Ce1_2 1_555 1_555
O14 Ce2_2 1_555 1_555
C94 C95 1_555 1_555
O16 Ce3_4 1_555 1_555
Ce3A O16A 1_555 1_555

#END
