
#######################################################################
#
#                 Cambridge Crystallographic Data Centre
#                                CCDC 
#
#######################################################################
#
# If this CIF has been generated from an entry in the Cambridge 
# Structural Database, then it will include bibliographic, chemical, 
# crystal, experimental, refinement or atomic coordinate data resulting 
# from the CCDC's data processing and validation procedures.
#
#######################################################################

data_COQJEZ
_chemical_formula_moiety         '(C75 H66 Mn3 N12 O12)n'
_symmetry_cell_setting           monoclinic
_symmetry_space_group_name_H-M   'P 21/c'
_symmetry_Int_Tables_number      14
_space_group_name_Hall           '-P 2ybc'
loop_
_symmetry_equiv_pos_site_id
_symmetry_equiv_pos_as_xyz
1 x,y,z
2 -x,1/2+y,1/2-z
3 -x,-y,-z
4 x,1/2-y,1/2+z
_cell_length_a                   12.289(3)
_cell_length_b                   32.302(7)
_cell_length_c                   25.974(5)
_cell_angle_alpha                90
_cell_angle_beta                 93.57(3)
_cell_angle_gamma                90
_cell_volume                     10290.6
loop_
_atom_site_label
_atom_site_type_symbol
_atom_site_fract_x
_atom_site_fract_y
_atom_site_fract_z
Mn1 Mn 0.19263(2) 0.43031(2) 0.29798(2)
Mn2 Mn -0.01057(2) 0.50194(2) 0.24955(2)
O1 O 1.01957(10) 0.44566(4) 0.29762(5)
O2 O 0.23849(12) 0.42884(5) 0.71673(5)
N1 N 0.18107(13) 0.40738(5) 0.38145(6)
O3 O 0.25218(12) 0.48792(5) 0.32359(6)
O4 O 0.09952(13) 0.47100(5) 0.69299(5)
N2 N 0.23090(13) 0.37134(5) 0.39669(6)
O5 O 0.28847(12) 1.01074(5) 0.31764(6)
O6 O 1.05021(11) 0.37920(5) 0.28603(6)
N3 N 0.36394(13) 0.36137(5) 0.33498(6)
N4 N 0.34876(13) 0.39635(5) 0.30614(6)
O7 O 0.12976(12) 0.53121(5) 0.28508(6)
C1 C 0.21636(15) 0.52321(6) 0.31168(7)
C2 C 0.36961(15) 0.86984(5) 0.38966(7)
C3 C 0.28683(14) 0.93972(4) 0.33850(7)
C4 C 0.26909(15) 0.34395(6) 0.35758(7)
H1 H 0.2103 0.3396 0.3303
H2 H 0.2881 0.3167 0.3732
C5 C 0.23656(15) 0.97717(6) 0.31214(7)
C6 C 0.98623(15) 0.40801(6) 0.29415(8)
C7 C 0.15937(16) 0.42691(6) 0.42482(7)
C8 C 0.19661(16) 0.40340(7) 0.46824(7)
C9 C 0.69502(17) 0.42420(7) 0.32614(9)
H3 H 0.6515 0.4457 0.3390
C10 C 0.17301(16) 0.44567(6) 0.68369(7)
C11 C 0.18161(16) 0.43471(6) 0.62800(7)
C12 C 0.80413(18) 0.43142(7) 0.32045(9)
H4 H 0.8352 0.4576 0.3291
O8 O 0.14777(14) 0.97294(5) 0.28764(7)
C13 C 0.52799(16) 0.38129(7) 0.31675(9)
C14 C 0.47059(15) 0.35104(6) 0.34232(8)
C15 C 0.09854(17) 0.43312(7) 0.54138(7)
H5 H 0.0378 0.4389 0.5180
C16 C 0.09403(17) 0.44371(7) 0.59290(7)
H6 H 0.0312 0.4571 0.6044
C17 C 0.24224(16) 0.36809(7) 0.44885(7)
C18 C 0.1013(2) 0.46766(7) 0.42267(8)
H7 H 0.0920 0.4770 0.3868
H8 H 0.1442 0.4881 0.4431
H9 H 0.0296 0.4646 0.4368
C19 C 0.44835(17) 0.40873(7) 0.29509(8)
C20 C 0.27301(17) 0.41541(8) 0.61081(7)
H10 H 0.3323 0.4087 0.6345
C21 C 0.28344(16) 0.55952(7) 0.33093(8)
C22 C 0.64673(17) 0.38597(7) 0.31349(10)
C23 C 0.86829(16) 0.39992(7) 0.30191(9)
C24 C 0.27827(17) 0.40575(8) 0.55853(7)
H11 H 0.3423 0.3933 0.5469
C25 C 0.19050(17) 0.41419(7) 0.52320(7)
C26 C 0.50619(18) 0.81080(6) 0.40945(9)
N5 N 0.51712(18) 0.78026(6) 0.44486(8)
C27 C 0.46272(19) 0.44713(9) 0.26398(11)
H12 H 0.4062 0.4482 0.2357
H13 H 0.5348 0.4468 0.2498
H14 H 0.4565 0.4715 0.2861
C28 C 0.27695(18) 0.59670(7) 0.30341(8)
H15 H 0.2253 0.5995 0.2749
C29 C 0.2931(2) 0.33146(8) 0.47517(8)
H16 H 0.2810 0.3069 0.4533
H17 H 0.2603 0.3271 0.5082
H18 H 0.3716 0.3362 0.4814
C30 C 0.57495(19) 0.67921(7) 0.34723(11)
N6 N 0.57039(17) 0.71280(6) 0.41761(8)
C31 C 0.41928(18) 0.62619(7) 0.36021(9)
N7 N 0.62224(17) 0.71081(6) 0.37204(9)
C32 C 0.4227(2) 0.58942(8) 0.38775(10)
H19 H 0.4704 0.5871 0.4178
C33 C 0.3579(2) 0.55595(7) 0.37219(9)
H20 H 0.3651 0.5304 0.3903
C34 C 0.49115(18) 0.68394(6) 0.41947(9)
C35 C 0.4132(2) 0.83189(7) 0.41798(9)
C36 C 0.50992(19) 0.31519(7) 0.37407(10)
H21 H 0.4929 0.3196 0.4100
H22 H 0.5890 0.3124 0.3721
H23 H 0.4738 0.2899 0.3610
C37 C 0.34522(18) 0.62943(7) 0.31743(9)
H24 H 0.3416 0.6543 0.2978
C38 C 0.5865(2) 0.81556(8) 0.36694(11)
H25 H 0.6536 0.8287 0.3813
H26 H 0.5535 0.8328 0.3391
H27 H 0.6036 0.7882 0.3532
C39 C 0.49234(19) 0.66115(7) 0.37509(9)
C40 C 0.82231(19) 0.36150(8) 0.29054(12)
H28 H 0.8665 0.3397 0.2788
N8 N 0.43394(19) 0.78152(7) 0.47796(8)
C41 C 0.5949(2) 0.74743(6) 0.45143(11)
H29 H 0.5970 0.7377 0.4876
H30 H 0.6681 0.7582 0.4448
C42 C 0.3733(2) 0.81277(8) 0.46134(9)
C43 C 0.4159(2) 0.68076(8) 0.46327(10)
H31 H 0.4487 0.6626 0.4902
H32 H 0.3456 0.6693 0.4503
H33 H 0.4047 0.7083 0.4777
C44 C 0.6115(3) 0.66698(9) 0.29432(12)
H34 H 0.6646 0.6872 0.2831
H35 H 0.5482 0.6664 0.2694
H36 H 0.6452 0.6395 0.2964
C45 C 0.2718(3) 0.82306(11) 0.48893(13)
H37 H 0.2658 0.8042 0.5181
H38 H 0.2075 0.8201 0.4650
H39 H 0.2764 0.8516 0.5016
C46 C 0.3899(2) 0.93681(10) 0.35511(13)
H40 H 0.4369 0.9596 0.3499
C47 C 0.2142(2) 0.90532(9) 0.34714(13)
H41 H 0.1397 0.9065 0.3351
C48 C 0.71247(19) 0.35468(8) 0.29616(12)
H42 H 0.6818 0.3283 0.2881
C49 C 0.4328(2) 0.90191(10) 0.37995(13)
H43 H 0.5084 0.9009 0.3901
C50 C 0.2552(3) 0.87052(10) 0.37329(13)
H44 H 0.2092 0.8478 0.3802
Mn3 Mn 0.22653(2) 0.43086(2) -0.20245(2)
O9 O 0.20989(13) 0.43259(5) 0.21748(5)
N9 N 0.25919(13) 0.37462(5) -0.09909(6)
O10 O 1.05251(11) 0.44182(4) -0.20111(5)
O11 O 1.08307(11) 0.37452(5) -0.20625(6)
N10 N 0.39510(12) 0.36245(5) -0.15851(6)
O12 O 0.07507(15) 0.47507(5) 0.18968(6)
N11 N 0.38231(13) 0.39639(5) -0.18947(6)
C51 C 0.30111(13) 0.34693(5) -0.13579(6)
H45 H 0.2436 0.3414 -0.1634
H46 H 0.3196 0.3203 -0.1185
C52 C 0.83943(16) 0.42995(6) -0.17377(8)
H47 H 0.8712 0.4565 -0.1685
C53 C 0.90321(15) 0.39684(6) -0.18820(7)
C54 C 1.01892(15) 0.40421(6) -0.19952(7)
C55 C 0.48292(15) 0.40808(6) -0.19927(7)
C56 C 0.50189(15) 0.35244(6) -0.14811(7)
C57 C 0.72931(17) 0.42410(6) -0.16710(8)
H48 H 0.6864 0.4468 -0.1570
C58 C 0.56091(15) 0.38166(6) -0.17369(7)
C59 C 0.21383(17) 0.40808(7) -0.02963(7)
C60 C 0.85730(16) 0.35725(7) -0.19272(8)
H49 H 0.9016 0.3342 -0.2003
C61 C 0.49938(17) 0.44442(7) -0.23371(9)
H50 H 0.4878 0.4701 -0.2147
H51 H 0.5739 0.4440 -0.2452
H52 H 0.4473 0.4430 -0.2638
C62 C 0.18604(18) 0.43136(7) -0.07488(7)
C63 C 0.14910(18) 0.44972(7) 0.18289(7)
C64 C 0.74653(17) 0.35156(6) -0.18606(8)
H53 H 0.7156 0.3246 -0.1891
C65 C 0.68065(15) 0.38556(6) -0.17491(8)
C66 C 0.53734(17) 0.31722(7) -0.11400(9)
H54 H 0.5053 0.2915 -0.1279
H55 H 0.6170 0.3151 -0.1124
H56 H 0.5130 0.3220 -0.0793
C67 C 0.26077(17) 0.37161(7) -0.04686(7)
C68 C 0.16820(18) 0.43915(7) 0.12761(7)
C69 C 0.3058(2) 0.33512(8) -0.01801(8)
H57 H 0.3840 0.3392 -0.0098
H58 H 0.2685 0.3319 0.0140
H59 H 0.2947 0.3102 -0.0392
C70 C 0.1337(2) 0.47289(8) -0.08008(8)
H60 H 0.0562 0.4705 -0.0737
H61 H 0.1692 0.4919 -0.0549
H62 H 0.1413 0.4835 -0.1150
C71 C 0.27698(19) 0.40910(8) 0.06331(8)
H63 H 0.3421 0.3956 0.0547
C72 C 0.0893(2) 0.44901(9) 0.08932(8)
H64 H 0.0243 0.4625 0.0981
C73 C 0.19747(19) 0.41916(8) 0.02427(7)
C74 C 0.26154(19) 0.41869(7) 0.11438(8)
H65 H 0.3154 0.4112 0.1405
C75 C 0.1043(2) 0.43926(9) 0.03811(8)
H66 H 0.0497 0.4465 0.0122
N12 N 0.21489(13) 0.41110(5) -0.11666(6)
Mn1_2 Mn 1.19263(2) 0.43031(2) 0.29798(2)
Mn2_2 Mn 0.98943(2) 0.50194(2) 0.24955(2)
Mn2A Mn 0.01057(2) 1.00194(2) 0.25045(2)
Mn2B Mn 0.01057(2) 0.49806(2) 0.75045(2)
Mn2B_2 Mn 1.01057(2) 0.49806(2) -0.24955(2)
O1_2 O 0.01957(10) 0.44566(4) 0.29762(5)
O2_2 O 0.23849(12) 0.42884(5) -0.28327(5)
O4B O -0.09952(13) 0.52900(5) 0.30701(5)
O5C O 0.28847(12) 0.48926(5) -0.18236(6)
O6_2 O 0.05021(11) 0.37920(5) 0.28603(6)
O8A O -0.14777(14) 0.47294(5) 0.21236(7)
Mn3_2 Mn 0.22653(2) 0.43086(2) 0.79755(2)
Mn3_3 Mn 1.22653(2) 0.43086(2) -0.20245(2)
Mn3C Mn 0.22653(2) 1.06914(2) 0.29755(2)
O10_2 O 0.05251(11) 0.44182(4) -0.20111(5)
O10B O -0.05251(11) 0.55818(4) 0.20111(5)
loop_
_geom_bond_atom_site_label_1
_geom_bond_atom_site_label_2
_geom_bond_site_symmetry_1
_geom_bond_site_symmetry_2
Mn1 N1 1_555 1_555
Mn2 O7 1_555 1_555
O1 C6 1_555 1_555
O2 C10 1_555 1_555
N1 N2 1_555 1_555
O3 Mn1 1_555 1_555
O4 C10 1_555 1_555
N2 C4 1_555 1_555
O5 C5 1_555 1_555
O6 C6 1_555 1_555
N3 N4 1_555 1_555
N4 Mn1 1_555 1_555
O7 C1 1_555 1_555
C1 O3 1_555 1_555
C2 C35 1_555 1_555
C3 C5 1_555 1_555
C4 N3 1_555 1_555
H1 C4 1_555 1_555
H2 C4 1_555 1_555
C5 O8 1_555 1_555
C6 C23 1_555 1_555
C7 N1 1_555 1_555
C8 C7 1_555 1_555
C9 H3 1_555 1_555
C10 C11 1_555 1_555
C11 C16 1_555 1_555
C12 C9 1_555 1_555
H4 C12 1_555 1_555
O8 Mn2A 1_555 1_555
C13 C14 1_555 1_555
C14 N3 1_555 1_555
C15 H5 1_555 1_555
C16 C15 1_555 1_555
H6 C16 1_555 1_555
C17 N2 1_555 1_555
C18 C7 1_555 1_555
H7 C18 1_555 1_555
H8 C18 1_555 1_555
H9 C18 1_555 1_555
C19 N4 1_555 1_555
C20 C11 1_555 1_555
H10 C20 1_555 1_555
C21 C1 1_555 1_555
C22 C9 1_555 1_555
C23 C12 1_555 1_555
C24 C20 1_555 1_555
H11 C24 1_555 1_555
C25 C8 1_555 1_555
C26 N5 1_555 1_555
N5 N8 1_555 1_555
C27 C19 1_555 1_555
H12 C27 1_555 1_555
H13 C27 1_555 1_555
H14 C27 1_555 1_555
C28 C21 1_555 1_555
H15 C28 1_555 1_555
C29 C17 1_555 1_555
H16 C29 1_555 1_555
H17 C29 1_555 1_555
H18 C29 1_555 1_555
C30 N7 1_555 1_555
N6 N7 1_555 1_555
C31 C32 1_555 1_555
C32 H19 1_555 1_555
C33 C21 1_555 1_555
H20 C33 1_555 1_555
C34 N6 1_555 1_555
C35 C26 1_555 1_555
C36 C14 1_555 1_555
H21 C36 1_555 1_555
H22 C36 1_555 1_555
H23 C36 1_555 1_555
C37 C28 1_555 1_555
H24 C37 1_555 1_555
C38 C26 1_555 1_555
H25 C38 1_555 1_555
H26 C38 1_555 1_555
H27 C38 1_555 1_555
C39 C30 1_555 1_555
C40 C23 1_555 1_555
H28 C40 1_555 1_555
N8 C42 1_555 1_555
C41 N5 1_555 1_555
H29 C41 1_555 1_555
H30 C41 1_555 1_555
C42 C35 1_555 1_555
C43 C34 1_555 1_555
H31 C43 1_555 1_555
H32 C43 1_555 1_555
H33 C43 1_555 1_555
C44 C30 1_555 1_555
H34 C44 1_555 1_555
H35 C44 1_555 1_555
H36 C44 1_555 1_555
C45 C42 1_555 1_555
H37 C45 1_555 1_555
H38 C45 1_555 1_555
H39 C45 1_555 1_555
C46 C3 1_555 1_555
H40 C46 1_555 1_555
C47 C3 1_555 1_555
H41 C47 1_555 1_555
C48 C22 1_555 1_555
H42 C48 1_555 1_555
C49 C2 1_555 1_555
H43 C49 1_555 1_555
C50 C2 1_555 1_555
H44 C50 1_555 1_555
Mn3 N11 1_555 1_555
O9 Mn1 1_555 1_555
N9 C51 1_555 1_555
O10 C54 1_555 1_555
O11 C54 1_555 1_555
N10 N11 1_555 1_555
O12 Mn2 1_555 1_555
N11 C55 1_555 1_555
C51 N10 1_555 1_555
H45 C51 1_555 1_555
H46 C51 1_555 1_555
C52 H47 1_555 1_555
C53 C52 1_555 1_555
C54 C53 1_555 1_555
C55 C58 1_555 1_555
C56 N10 1_555 1_555
C57 C52 1_555 1_555
H48 C57 1_555 1_555
C58 C56 1_555 1_555
C59 C62 1_555 1_555
C60 C53 1_555 1_555
H49 C60 1_555 1_555
C61 C55 1_555 1_555
H50 C61 1_555 1_555
H51 C61 1_555 1_555
H52 C61 1_555 1_555
C62 C70 1_555 1_555
C63 O9 1_555 1_555
C64 C60 1_555 1_555
H53 C64 1_555 1_555
C65 C57 1_555 1_555
C66 C56 1_555 1_555
H54 C66 1_555 1_555
H55 C66 1_555 1_555
H56 C66 1_555 1_555
C67 N9 1_555 1_555
C68 C63 1_555 1_555
C69 C67 1_555 1_555
H57 C69 1_555 1_555
H58 C69 1_555 1_555
H59 C69 1_555 1_555
C70 H60 1_555 1_555
H61 C70 1_555 1_555
H62 C70 1_555 1_555
C71 H63 1_555 1_555
C72 C68 1_555 1_555
H64 C72 1_555 1_555
C73 C59 1_555 1_555
C74 C68 1_555 1_555
H65 C74 1_555 1_555
C75 C72 1_555 1_555
H66 C75 1_555 1_555
N12 Mn3 1_555 1_555
Mn1_2 O1 1_555 1_555
Mn2_2 O1 1_555 1_555
Mn2B O4 1_555 1_555
Mn2B_2 O10 1_555 1_555
O1_2 Mn1 1_555 1_555
O2_2 Mn3 1_555 1_555
O4B Mn2 1_555 1_555
O5C Mn3 1_555 1_555
O6_2 Mn1 1_555 1_555
O8A Mn2 1_555 1_555
Mn3_2 O2 1_555 1_555
Mn3_3 O10 1_555 1_555
Mn3C O5 1_555 1_555
O10_2 Mn3 1_555 1_555
O10B Mn2 1_555 1_555
Mn2 O1_2 1_555 1_555
O6 Mn1_2 1_555 1_555
C8 C17 1_555 1_555
C13 C19 1_555 1_555
C13 C22 1_555 1_555
C15 C25 1_555 1_555
C24 C25 1_555 1_555
N6 C41 1_555 1_555
C31 C37 1_555 1_555
C31 C39 1_555 1_555
C32 C33 1_555 1_555
C34 C39 1_555 1_555
C40 C48 1_555 1_555
C46 C49 1_555 1_555
C47 C50 1_555 1_555
N9 N12 1_555 1_555
O12 C63 1_555 1_555
C58 C65 1_555 1_555
C59 C67 1_555 1_555
C62 N12 1_555 1_555
C64 C65 1_555 1_555
C71 C73 1_555 1_555
C71 C74 1_555 1_555
C73 C75 1_555 1_555

#END
