
#######################################################################
#
#                 Cambridge Crystallographic Data Centre
#                                CCDC 
#
#######################################################################
#
# If this CIF has been generated from an entry in the Cambridge 
# Structural Database, then it will include bibliographic, chemical, 
# crystal, experimental, refinement or atomic coordinate data resulting 
# from the CCDC's data processing and validation procedures.
#
#######################################################################

data_COQJAV
_chemical_formula_moiety         '(C75 H70 Mn3 N12 O14)n'
_symmetry_cell_setting           monoclinic
_symmetry_space_group_name_H-M   'C 2/c'
_symmetry_Int_Tables_number      15
_space_group_name_Hall           '-C 2yc'
loop_
_symmetry_equiv_pos_site_id
_symmetry_equiv_pos_as_xyz
1 x,y,z
2 -x,y,1/2-z
3 1/2+x,1/2+y,z
4 1/2-x,1/2+y,1/2-z
5 -x,-y,-z
6 x,-y,1/2+z
7 1/2-x,1/2-y,-z
8 1/2+x,1/2-y,1/2+z
_cell_length_a                   16.9293(10)
_cell_length_b                   18.4694(7)
_cell_length_c                   28.346(2)
_cell_angle_alpha                90
_cell_angle_beta                 100.629(6)
_cell_angle_gamma                90
_cell_volume                     8710.99
loop_
_atom_site_label
_atom_site_type_symbol
_atom_site_fract_x
_atom_site_fract_y
_atom_site_fract_z
Mn1 Mn 0.21746(6) 0.38004(5) 0.08829(4)
Mn2 Mn 0.2500 0.2500 0.0000
O1 O -0.2000(3) 0.7950(2) 0.07215(17)
O2 O -0.2140(3) 0.7877(3) 0.14753(19)
O3 O 0.6143(3) 0.8172(3) 0.0811(2)
O4 O 0.6385(3) 0.7444(3) 0.02241(18)
O5 O 0.2012(3) 0.4371(3) 0.02437(18)
O6 O 0.2344(3) 0.3580(2) -0.02865(18)
N1 N 0.1880(3) 0.4962(3) 0.1694(2)
N2 N 0.0621(4) 0.7030(3) -0.2218(2)
N3 N 0.3262(4) 0.4846(3) 0.1627(2)
N4 N 0.3269(4) 0.4437(3) 0.1225(2)
N5 N 0.1562(3) 0.4662(3) 0.1255(2)
N6 N 0.1396(4) 0.7144(4) -0.2265(2)
C1 C 0.3789(4) 0.4757(4) 0.0988(3)
C2 C 0.3977(5) 0.4463(5) 0.0535(3)
H1 H 0.4524 0.4268 0.0594
H2 H 0.3936 0.4851 0.0295
H3 H 0.3595 0.4077 0.0415
C3 C 0.0398(5) 0.4894(4) 0.0617(3)
H4 H 0.0610 0.5138 0.0359
H5 H -0.0153 0.5059 0.0616
H6 H 0.0398 0.4369 0.0565
C4 C 0.0000 0.7463(6) -0.2500
H7 H -0.0243 0.7779 -0.2283
C5 C 0.2118(4) 0.4191(4) -0.0168(3)
C6 C -0.1784(4) 0.7695(4) 0.1144(3)
C7 C 0.0174(4) 0.6163(4) 0.1371(3)
C8 C 0.0823(4) 0.5615(4) 0.1424(3)
C9 C 0.5716(5) 0.6298(4) 0.0679(3)
H8 H 0.6139 0.6165 0.0518
C10 C 0.4095(4) 0.5407(4) 0.1231(3)
C11 C 0.0562(5) 0.6537(4) -0.1868(3)
C12 C 0.6061(5) 0.7584(4) 0.0576(3)
C13 C 0.4904(5) 0.7208(4) 0.0963(3)
H9 H 0.4787 0.7703 0.1008
C14 C 0.1455(5) 0.5532(4) 0.1801(3)
C15 C -0.0642(4) 0.7051(4) 0.0873(3)
H10 H -0.0759 0.7309 0.0578
C16 C 0.2665(4) 0.4683(4) 0.1918(3)
H11 H 0.2828 0.4903 0.2239
H12 H 0.2631 0.4153 0.1959
C17 C 0.1337(5) 0.6318(4) -0.1679(3)
C18 C 0.4609(4) 0.5960(4) 0.1068(3)
C19 C -0.0269(5) 0.6291(4) 0.1729(3)
H13 H -0.0144 0.6033 0.2023
C20 C 0.0918(4) 0.5072(4) 0.1093(3)
C21 C 0.5262(4) 0.5763(4) 0.0855(3)
H14 H 0.5396 0.5267 0.0830
C22 C 0.2035(5) 0.4596(4) -0.1017(3)
H15 H 0.2208 0.4127 -0.1090
C23 C 0.1576(5) 0.5785(4) -0.1287(3)
C24 C 0.5545(4) 0.7027(4) 0.0741(3)
C25 C 0.1971(4) 0.4757(4) -0.0558(3)
C26 C 0.1833(5) 0.6712(5) -0.1937(3)
C27 C -0.0023(5) 0.6555(4) 0.0944(3)
H16 H 0.0278 0.6478 0.0697
C28 C -0.0894(5) 0.6794(4) 0.1662(3)
H17 H -0.1186 0.6877 0.1913
C29 C -0.1099(4) 0.7181(4) 0.1225(3)
C30 C 0.3746(5) 0.5444(4) 0.1635(3)
C31 C 0.1732(5) 0.5445(4) -0.0454(3)
H18 H 0.1697 0.5570 -0.0134
C32 C 0.1854(6) 0.5106(4) -0.1383(3)
H19 H 0.1921 0.4987 -0.1700
C33 C -0.0224(5) 0.6282(5) -0.1768(3)
H20 H -0.0577 0.6699 -0.1754
H21 H -0.0139 0.6025 -0.1461
H22 H -0.0474 0.5954 -0.2025
C34 C 0.4439(5) 0.6683(4) 0.1116(3)
H23 H 0.3994 0.6819 0.1257
C35 C 0.1542(5) 0.5960(4) -0.0820(3)
H24 H 0.1387 0.6434 -0.0745
C36 C 0.2738(6) 0.6677(7) -0.1882(4)
H25 H 0.2914 0.6998 -0.2117
H26 H 0.2901 0.6179 -0.1934
H27 H 0.2984 0.6831 -0.1557
C37 C 0.3867(6) 0.5973(5) 0.2042(3)
H28 H 0.4404 0.6188 0.2076
H29 H 0.3816 0.5723 0.2339
H30 H 0.3460 0.6355 0.1976
C38 C 0.1677(5) 0.5951(5) 0.2258(3)
H31 H 0.1634 0.5637 0.2531
H32 H 0.1311 0.6364 0.2253
H33 H 0.2230 0.6127 0.2290
H7A H 0.0243 0.7779 -0.2717
O5A O -0.2012(3) 0.4371(3) -0.52437(18)
O6A O -0.2344(3) 0.3580(2) -0.47135(18)
N2A N -0.0621(4) 0.7030(3) -0.2782(2)
N6A N -0.1396(4) 0.7144(4) -0.2735(2)
C5A C -0.2118(4) 0.4191(4) -0.4832(3)
C11A C -0.0562(5) 0.6537(4) -0.3132(3)
C17A C -0.1337(5) 0.6318(4) -0.3321(3)
C22A C -0.2035(5) 0.4596(4) -0.3983(3)
H15A H -0.2208 0.4127 -0.3910
C23A C -0.1576(5) 0.5785(4) -0.3713(3)
C25A C -0.1971(4) 0.4757(4) -0.4442(3)
C26A C -0.1833(5) 0.6712(5) -0.3063(3)
C31A C -0.1732(5) 0.5445(4) -0.4546(3)
H18A H -0.1697 0.5570 -0.4866
C32A C -0.1854(6) 0.5106(4) -0.3617(3)
H19A H -0.1921 0.4987 -0.3300
C33A C 0.0224(5) 0.6282(5) -0.3232(3)
H20A H 0.0577 0.6699 -0.3246
H21A H 0.0139 0.6025 -0.3539
H22A H 0.0474 0.5954 -0.2975
C35A C -0.1542(5) 0.5960(4) -0.4180(3)
H24A H -0.1387 0.6434 -0.4255
C36A C -0.2738(6) 0.6677(7) -0.3118(4)
H25A H -0.2914 0.6998 -0.2883
H26A H -0.2901 0.6179 -0.3066
H27A H -0.2984 0.6831 -0.3443
Mn1A Mn -0.21746(6) 0.38004(5) -0.58829(4)
O1A O 0.2000(3) 0.7950(2) -0.57215(17)
O2A O 0.2140(3) 0.7877(3) -0.64753(19)
O3A O -0.6143(3) 0.8172(3) -0.5811(2)
O4A O -0.6385(3) 0.7444(3) -0.52241(18)
N1A N -0.1880(3) 0.4962(3) -0.6694(2)
N3A N -0.3262(4) 0.4846(3) -0.6627(2)
N4A N -0.3269(4) 0.4437(3) -0.6225(2)
N5A N -0.1562(3) 0.4662(3) -0.6255(2)
C1A C -0.3789(4) 0.4757(4) -0.5988(3)
C2A C -0.3977(5) 0.4463(5) -0.5535(3)
H1A H -0.4524 0.4268 -0.5594
H2A H -0.3936 0.4851 -0.5295
H3A H -0.3595 0.4077 -0.5415
C3A C -0.0398(5) 0.4894(4) -0.5617(3)
H4A H -0.0610 0.5138 -0.5359
H5A H 0.0153 0.5059 -0.5616
H6A H -0.0398 0.4369 -0.5565
C6A C 0.1784(4) 0.7695(4) -0.6144(3)
C7A C -0.0174(4) 0.6163(4) -0.6371(3)
C8A C -0.0823(4) 0.5615(4) -0.6424(3)
C9A C -0.5716(5) 0.6298(4) -0.5679(3)
H8A H -0.6139 0.6165 -0.5518
C10A C -0.4095(4) 0.5407(4) -0.6231(3)
C12A C -0.6061(5) 0.7584(4) -0.5576(3)
C13A C -0.4904(5) 0.7208(4) -0.5963(3)
H9A H -0.4787 0.7703 -0.6008
C14A C -0.1455(5) 0.5532(4) -0.6801(3)
C15A C 0.0642(4) 0.7051(4) -0.5873(3)
H10A H 0.0759 0.7309 -0.5578
C16A C -0.2665(4) 0.4683(4) -0.6918(3)
H11A H -0.2828 0.4903 -0.7239
H12A H -0.2631 0.4153 -0.6959
C18A C -0.4609(4) 0.5960(4) -0.6068(3)
C19A C 0.0269(5) 0.6291(4) -0.6729(3)
H13A H 0.0144 0.6033 -0.7023
C20A C -0.0918(4) 0.5072(4) -0.6093(3)
C21A C -0.5262(4) 0.5763(4) -0.5855(3)
H14A H -0.5396 0.5267 -0.5830
C24A C -0.5545(4) 0.7027(4) -0.5741(3)
C27A C 0.0023(5) 0.6555(4) -0.5944(3)
H16A H -0.0278 0.6478 -0.5697
C28A C 0.0894(5) 0.6794(4) -0.6662(3)
H17A H 0.1186 0.6877 -0.6913
C29A C 0.1099(4) 0.7181(4) -0.6225(3)
C30A C -0.3746(5) 0.5444(4) -0.6635(3)
C34A C -0.4439(5) 0.6683(4) -0.6116(3)
H23A H -0.3994 0.6819 -0.6257
C37A C -0.3867(6) 0.5973(5) -0.7042(3)
H28A H -0.4404 0.6188 -0.7076
H29A H -0.3816 0.5723 -0.7339
H30A H -0.3460 0.6355 -0.6976
C38A C -0.1677(5) 0.5951(5) -0.7258(3)
H31A H -0.1634 0.5637 -0.7531
H32A H -0.1311 0.6364 -0.7253
H33A H -0.2230 0.6127 -0.7290
Mn1B Mn -0.28254(6) 0.88004(5) 0.08829(4)
Mn1B_2 Mn 0.71746(6) 0.88004(5) 0.08829(4)
Mn1C Mn -0.71746(6) 0.88004(5) -0.58829(4)
Mn1C_2 Mn 0.28254(6) 0.88004(5) -0.58829(4)
Mn2A Mn -0.2500 0.2500 -0.5000
Mn2B Mn -0.2500 0.7500 0.0000
Mn2B_2 Mn 0.7500 0.7500 0.0000
Mn2C Mn -0.7500 0.7500 -0.5000
Mn2C_2 Mn 0.2500 0.7500 -0.5000
O1B O 0.3000(3) 0.2950(2) 0.07215(17)
O1C O -0.3000(3) 0.2950(2) -0.57215(17)
O1D O 0.2000(3) 0.2050(2) -0.07215(17)
O3B O 0.1143(3) 0.3172(3) 0.0811(2)
O3C O -0.1143(3) 0.3172(3) -0.5811(2)
O4B O 0.1385(3) 0.2444(3) 0.02241(18)
O4D O 0.3615(3) 0.2556(3) -0.02241(18)
O6F O 0.2656(3) 0.1420(2) 0.02865(18)
O7 O 0.1952(4) 0.2012(3) 0.2007(2)
O8 O 0.1629(4) 0.0547(4) 0.1923(2)
loop_
_geom_bond_atom_site_label_1
_geom_bond_atom_site_label_2
_geom_bond_site_symmetry_1
_geom_bond_site_symmetry_2
Mn1 O5 1_555 1_555
Mn2 O6 1_555 1_555
O1 C6 1_555 1_555
O2 C6 1_555 1_555
O3 C12 1_555 1_555
O4 C12 1_555 1_555
O5 C5 1_555 1_555
O6 C5 1_555 1_555
N1 N5 1_555 1_555
N2 N6 1_555 1_555
N3 N4 1_555 1_555
N4 Mn1 1_555 1_555
N5 Mn1 1_555 1_555
N6 C26 1_555 1_555
C1 N4 1_555 1_555
C2 C1 1_555 1_555
H1 C2 1_555 1_555
H2 C2 1_555 1_555
H3 C2 1_555 1_555
C3 H4 1_555 1_555
H5 C3 1_555 1_555
H6 C3 1_555 1_555
C4 N2 1_555 1_555
H7 C4 1_555 1_555
C5 C25 1_555 1_555
C6 C29 1_555 1_555
C7 C8 1_555 1_555
C8 C14 1_555 1_555
C9 H8 1_555 1_555
C10 C1 1_555 1_555
C11 N2 1_555 1_555
C12 C24 1_555 1_555
C13 H9 1_555 1_555
C14 N1 1_555 1_555
C15 H10 1_555 1_555
C16 N1 1_555 1_555
H11 C16 1_555 1_555
H12 C16 1_555 1_555
C17 C11 1_555 1_555
C18 C10 1_555 1_555
C19 C7 1_555 1_555
H13 C19 1_555 1_555
C20 N5 1_555 1_555
C21 C9 1_555 1_555
H14 C21 1_555 1_555
C22 H15 1_555 1_555
C23 C17 1_555 1_555
C24 C9 1_555 1_555
C25 C22 1_555 1_555
C26 C17 1_555 1_555
C27 C7 1_555 1_555
H16 C27 1_555 1_555
C28 C19 1_555 1_555
H17 C28 1_555 1_555
C29 C15 1_555 1_555
C30 N3 1_555 1_555
C31 C25 1_555 1_555
H18 C31 1_555 1_555
C32 C22 1_555 1_555
H19 C32 1_555 1_555
C33 C11 1_555 1_555
H20 C33 1_555 1_555
H21 C33 1_555 1_555
H22 C33 1_555 1_555
C34 C13 1_555 1_555
H23 C34 1_555 1_555
C35 C23 1_555 1_555
H24 C35 1_555 1_555
C36 C26 1_555 1_555
H25 C36 1_555 1_555
H26 C36 1_555 1_555
H27 C36 1_555 1_555
C37 C30 1_555 1_555
H28 C37 1_555 1_555
H29 C37 1_555 1_555
H30 C37 1_555 1_555
C38 C14 1_555 1_555
H31 C38 1_555 1_555
H32 C38 1_555 1_555
H33 C38 1_555 1_555
H7A C4 1_555 1_555
O5A C5A 1_555 1_555
O6A C5A 1_555 1_555
N2A C4 1_555 1_555
N6A N2A 1_555 1_555
C5A C25A 1_555 1_555
C11A N2A 1_555 1_555
C17A C11A 1_555 1_555
C22A H15A 1_555 1_555
C23A C17A 1_555 1_555
C25A C22A 1_555 1_555
C26A N6A 1_555 1_555
C31A C25A 1_555 1_555
H18A C31A 1_555 1_555
C32A C22A 1_555 1_555
H19A C32A 1_555 1_555
C33A C11A 1_555 1_555
H20A C33A 1_555 1_555
H21A C33A 1_555 1_555
H22A C33A 1_555 1_555
C35A C23A 1_555 1_555
H24A C35A 1_555 1_555
C36A C26A 1_555 1_555
H25A C36A 1_555 1_555
H26A C36A 1_555 1_555
H27A C36A 1_555 1_555
Mn1A O5A 1_555 1_555
O1A C6A 1_555 1_555
O2A C6A 1_555 1_555
O3A C12A 1_555 1_555
O4A C12A 1_555 1_555
N1A N5A 1_555 1_555
N3A N4A 1_555 1_555
N4A Mn1A 1_555 1_555
N5A Mn1A 1_555 1_555
C1A N4A 1_555 1_555
C2A C1A 1_555 1_555
H1A C2A 1_555 1_555
H2A C2A 1_555 1_555
H3A C2A 1_555 1_555
C3A H4A 1_555 1_555
H5A C3A 1_555 1_555
H6A C3A 1_555 1_555
C6A C29A 1_555 1_555
C7A C8A 1_555 1_555
C8A C14A 1_555 1_555
C9A H8A 1_555 1_555
C10A C1A 1_555 1_555
C12A C24A 1_555 1_555
C13A H9A 1_555 1_555
C14A N1A 1_555 1_555
C15A H10A 1_555 1_555
C16A N1A 1_555 1_555
H11A C16A 1_555 1_555
H12A C16A 1_555 1_555
C18A C10A 1_555 1_555
C19A C7A 1_555 1_555
H13A C19A 1_555 1_555
C20A N5A 1_555 1_555
C21A C9A 1_555 1_555
H14A C21A 1_555 1_555
C24A C9A 1_555 1_555
C27A C7A 1_555 1_555
H16A C27A 1_555 1_555
C28A C19A 1_555 1_555
H17A C28A 1_555 1_555
C29A C15A 1_555 1_555
C30A N3A 1_555 1_555
C34A C13A 1_555 1_555
H23A C34A 1_555 1_555
C37A C30A 1_555 1_555
H28A C37A 1_555 1_555
H29A C37A 1_555 1_555
H30A C37A 1_555 1_555
C38A C14A 1_555 1_555
H31A C38A 1_555 1_555
H32A C38A 1_555 1_555
H33A C38A 1_555 1_555
Mn1B O1 1_555 1_555
Mn1B_2 O3 1_555 1_555
Mn1C O3A 1_555 1_555
Mn1C_2 O1A 1_555 1_555
Mn2A O6A 1_555 1_555
Mn2B O1 1_555 1_555
Mn2B_2 O4 1_555 1_555
Mn2C O4A 1_555 1_555
Mn2C_2 O1A 1_555 1_555
O1B Mn1 1_555 1_555
O1C Mn1A 1_555 1_555
O1D Mn2 1_555 1_555
O3B Mn1 1_555 1_555
O3C Mn1A 1_555 1_555
O4B Mn2 1_555 1_555
O4D Mn2 1_555 1_555
O6F Mn2 1_555 1_555
Mn2 O1B 1_555 1_555
N3 C16 1_555 1_555
C3 C20 1_555 1_555
C8 C20 1_555 1_555
C10 C30 1_555 1_555
C13 C24 1_555 1_555
C15 C27 1_555 1_555
C18 C21 1_555 1_555
C18 C34 1_555 1_555
C23 C32 1_555 1_555
C28 C29 1_555 1_555
C31 C35 1_555 1_555
C17A C26A 1_555 1_555
C23A C32A 1_555 1_555
C31A C35A 1_555 1_555
N3A C16A 1_555 1_555
C3A C20A 1_555 1_555
C8A C20A 1_555 1_555
C10A C30A 1_555 1_555
C13A C24A 1_555 1_555
C15A C27A 1_555 1_555
C18A C21A 1_555 1_555
C18A C34A 1_555 1_555
C28A C29A 1_555 1_555
Mn2A O1C 1_555 1_555

#END
