
#######################################################################
#
#                 Cambridge Crystallographic Data Centre
#                                CCDC 
#
#######################################################################
#
# If this CIF has been generated from an entry in the Cambridge 
# Structural Database, then it will include bibliographic, chemical, 
# crystal, experimental, refinement or atomic coordinate data resulting 
# from the CCDC's data processing and validation procedures.
#
#######################################################################

data_JUXFAL
_chemical_formula_moiety         '(C18 H12 O17 Tb2)n'
_symmetry_cell_setting           monoclinic
_symmetry_space_group_name_H-M   'C 2/c'
_symmetry_Int_Tables_number      15
_space_group_name_Hall           '-C 2yc'
loop_
_symmetry_equiv_pos_site_id
_symmetry_equiv_pos_as_xyz
1 x,y,z
2 -x,y,1/2-z
3 1/2+x,1/2+y,z
4 1/2-x,1/2+y,1/2-z
5 -x,-y,-z
6 x,-y,1/2+z
7 1/2-x,1/2-y,-z
8 1/2+x,1/2-y,1/2+z
_cell_length_a                   16.60520(10)
_cell_length_b                   16.0739(2)
_cell_length_c                   10.28190(10)
_cell_angle_alpha                90
_cell_angle_beta                 94.400(10)
_cell_angle_gamma                90
_cell_volume                     2736.26
loop_
_atom_site_label
_atom_site_type_symbol
_atom_site_fract_x
_atom_site_fract_y
_atom_site_fract_z
Tb1 Tb 0.038105(6) 0.622566(7) 0.543043(10)
O1 O 0.35713(13) 0.32015(14) 0.44561(19)
H1 H 0.348(3) 0.343(3) 0.401(4)
C1 C 0.30887(15) 0.33277(16) 0.5437(2)
C2 C 0.32135(15) 0.28826(16) 0.6613(2)
C3 C 0.26866(15) 0.30206(16) 0.7585(2)
H2 H 0.2759 0.2711 0.8373
C4 C 0.20596(15) 0.35938(16) 0.7444(2)
C5 C 0.19688(15) 0.40606(16) 0.6285(2)
C6 C 0.24726(16) 0.39183(16) 0.5299(2)
H3 H 0.2398 0.4229 0.4513
C7 C 0.38902(15) 0.22786(15) 0.6893(2)
O2 O 0.42014(11) 0.19291(12) 0.59651(18)
O3 O 0.41002(11) 0.21506(12) 0.80829(17)
C8 C 0.15015(15) 0.36828(16) 0.8501(2)
O4 O 0.15708(12) 0.32078(12) 0.94732(18)
O5 O 0.09438(11) 0.42327(12) 0.84079(17)
C9 C 0.13658(15) 0.47433(16) 0.6065(2)
O6 O 0.06771(11) 0.46091(11) 0.54841(17)
O7 O 0.15686(11) 0.54701(11) 0.64085(18)
O8 O 0.0000 0.55200(16) 0.7500
H4 H -0.033(4) 0.524(4) 0.723(6)
O9 O -0.00633(14) 0.72933(15) 0.3845(2)
H5 H 0.0348(17) 0.765(2) 0.394(4)
H6 H -0.0560(11) 0.746(3) 0.401(4)
H4A H 0.033(4) 0.524(4) 0.777(6)
Tb1A Tb -0.038105(6) 0.622566(7) 0.956957(10)
O1A O -0.35713(13) 0.32015(14) 1.05439(19)
H1A H -0.348(3) 0.343(3) 1.099(4)
C1A C -0.30887(15) 0.33277(16) 0.9563(2)
C2A C -0.32135(15) 0.28826(16) 0.8387(2)
C3A C -0.26866(15) 0.30206(16) 0.7415(2)
H2A H -0.2759 0.2711 0.6627
C4A C -0.20596(15) 0.35938(16) 0.7556(2)
C5A C -0.19688(15) 0.40606(16) 0.8715(2)
C6A C -0.24726(16) 0.39183(16) 0.9701(2)
H3A H -0.2398 0.4229 1.0487
C7A C -0.38902(15) 0.22786(15) 0.8107(2)
O2A O -0.42014(11) 0.19291(12) 0.90349(18)
O3A O -0.41002(11) 0.21506(12) 0.69171(17)
C8A C -0.15015(15) 0.36828(16) 0.6499(2)
O4A O -0.15708(12) 0.32078(12) 0.55268(18)
O5A O -0.09438(11) 0.42327(12) 0.65921(17)
C9A C -0.13658(15) 0.47433(16) 0.8935(2)
O6A O -0.06771(11) 0.46091(11) 0.95159(17)
O7A O -0.15686(11) 0.54701(11) 0.85915(18)
O9A O 0.00633(14) 0.72933(15) 1.1155(2)
H5A H -0.0348(17) 0.765(2) 1.106(4)
H6A H 0.0560(11) 0.746(3) 1.099(4)
Tb1B Tb -0.461895(6) 0.122566(7) 0.543043(10)
Tb1B_2 Tb 0.538105(6) 0.122566(7) 0.543043(10)
Tb1C Tb -0.538105(6) 0.122566(7) 0.956957(10)
Tb1C_2 Tb 0.461895(6) 0.122566(7) 0.956957(10)
Tb1D Tb -0.038105(6) 0.377434(7) 0.456957(10)
Tb1E Tb 0.038105(6) 0.377434(7) 1.043043(10)
O2B O -0.07986(11) 0.69291(12) 0.59651(18)
O2C O 0.07986(11) 0.69291(12) 0.90349(18)
O3B O -0.08998(11) 0.71506(12) 0.80829(17)
O3C O 0.08998(11) 0.71506(12) 0.69171(17)
O4D O -0.15708(12) 0.67922(12) 1.05268(18)
O4E O 0.15708(12) 0.67922(12) 0.44732(18)
O5D O -0.09438(11) 0.57673(12) 1.15921(17)
O5E O 0.09438(11) 0.57673(12) 0.34079(17)
O6D O -0.06771(11) 0.53909(11) 0.45159(17)
O6E O 0.06771(11) 0.53909(11) 1.04841(17)
loop_
_geom_bond_atom_site_label_1
_geom_bond_atom_site_label_2
_geom_bond_site_symmetry_1
_geom_bond_site_symmetry_2
Tb1 O6 1_555 1_555
O1 H1 1_555 1_555
C1 O1 1_555 1_555
C2 C1 1_555 1_555
C3 C2 1_555 1_555
H2 C3 1_555 1_555
C4 C3 1_555 1_555
C5 C4 1_555 1_555
C6 C1 1_555 1_555
H3 C6 1_555 1_555
C7 C2 1_555 1_555
O2 C7 1_555 1_555
O3 C7 1_555 1_555
C8 C4 1_555 1_555
O4 C8 1_555 1_555
O5 C8 1_555 1_555
C9 C5 1_555 1_555
O6 C9 1_555 1_555
O7 Tb1 1_555 1_555
O8 Tb1 1_555 1_555
H4 O8 1_555 1_555
O9 Tb1 1_555 1_555
H5 O9 1_555 1_555
H6 O9 1_555 1_555
H4A O8 1_555 1_555
Tb1A O8 1_555 1_555
O1A H1A 1_555 1_555
C1A O1A 1_555 1_555
C2A C1A 1_555 1_555
C3A C2A 1_555 1_555
H2A C3A 1_555 1_555
C4A C3A 1_555 1_555
C5A C4A 1_555 1_555
C6A C1A 1_555 1_555
H3A C6A 1_555 1_555
C7A C2A 1_555 1_555
O2A C7A 1_555 1_555
O3A C7A 1_555 1_555
C8A C4A 1_555 1_555
O4A C8A 1_555 1_555
O5A C8A 1_555 1_555
C9A C5A 1_555 1_555
O6A Tb1A 1_555 1_555
O7A Tb1A 1_555 1_555
O9A Tb1A 1_555 1_555
H5A O9A 1_555 1_555
H6A O9A 1_555 1_555
Tb1B O3A 1_555 1_555
Tb1B_2 O2 1_555 1_555
Tb1C O2A 1_555 1_555
Tb1C_2 O3 1_555 1_555
Tb1D O6 1_555 1_555
Tb1E O4 1_555 1_555
O2B Tb1 1_555 1_555
O2C Tb1A 1_555 1_555
O3B Tb1A 1_555 1_555
O3C Tb1 1_555 1_555
O4D Tb1A 1_555 1_555
O4E Tb1 1_555 1_555
O5D Tb1A 1_555 1_555
O5E Tb1 1_555 1_555
O6D Tb1 1_555 1_555
O6E Tb1A 1_555 1_555
C5 C6 1_555 1_555
O5 Tb1E 1_555 1_555
C9 O7 1_555 1_555
C5A C6A 1_555 1_555
O4A Tb1D 1_555 1_555
O5A Tb1D 1_555 1_555
C9A O6A 1_555 1_555
C9A O7A 1_555 1_555
O6A Tb1E 1_555 1_555
Tb1D O6D 1_555 1_555
Tb1E O6E 1_555 1_555

#END
