
#######################################################################
#
#                 Cambridge Crystallographic Data Centre
#                                CCDC 
#
#######################################################################
#
# If this CIF has been generated from an entry in the Cambridge 
# Structural Database, then it will include bibliographic, chemical, 
# crystal, experimental, refinement or atomic coordinate data resulting 
# from the CCDC's data processing and validation procedures.
#
#######################################################################

data_ERAJAK
_chemical_formula_moiety         '(C6 H4 Co2 N6 O2)n'
_symmetry_cell_setting           rhombohedral
_symmetry_space_group_name_H-M   'R -3 m'
_symmetry_Int_Tables_number      166
_space_group_name_Hall           '-R 3 2"'
loop_
_symmetry_equiv_pos_site_id
_symmetry_equiv_pos_as_xyz
1 x,y,z
2 -y,x-y,z
3 -x+y,-x,z
4 y,x,-z
5 x-y,-y,-z
6 -x,-x+y,-z
7 2/3+x,1/3+y,1/3+z
8 2/3-y,1/3+x-y,1/3+z
9 2/3-x+y,1/3-x,1/3+z
10 2/3+y,1/3+x,1/3-z
11 2/3+x-y,1/3-y,1/3-z
12 2/3-x,1/3-x+y,1/3-z
13 1/3+x,2/3+y,2/3+z
14 1/3-y,2/3+x-y,2/3+z
15 1/3-x+y,2/3-x,2/3+z
16 1/3+y,2/3+x,2/3-z
17 1/3+x-y,2/3-y,2/3-z
18 1/3-x,2/3-x+y,2/3-z
19 -x,-y,-z
20 y,-x+y,-z
21 x-y,x,-z
22 -y,-x,z
23 -x+y,y,z
24 x,x-y,z
25 1/3-x,2/3-y,2/3-z
26 1/3+y,2/3-x+y,2/3-z
27 1/3+x-y,2/3+x,2/3-z
28 1/3-y,2/3-x,2/3+z
29 1/3-x+y,2/3+y,2/3+z
30 1/3+x,2/3+x-y,2/3+z
31 2/3-x,1/3-y,1/3-z
32 2/3+y,1/3-x+y,1/3-z
33 2/3+x-y,1/3+x,1/3-z
34 2/3-y,1/3-x,1/3+z
35 2/3-x+y,1/3+y,1/3+z
36 2/3+x,1/3+x-y,1/3+z
_cell_length_a                   24.7610
_cell_length_b                   24.7610
_cell_length_c                   8.1851
_cell_angle_alpha                90
_cell_angle_beta                 90
_cell_angle_gamma                120
_cell_volume                     4346.01
loop_
_atom_site_label
_atom_site_type_symbol
_atom_site_fract_x
_atom_site_fract_y
_atom_site_fract_z
N1 N 0.93028 0.27388 0.52890
C1 C 0.87855 0.21942 0.57747
Co1 Co 0.95722 0.33333 0.33333
N2 N 0.96303 0.29637 0.66667
C2 C 0.82512 0.17488 0.48916
H1 H 0.81900 0.18100 0.36198
O1 O 1.00000 0.39628 0.50000
N1U N 0.72612 0.06972 0.52890
C1U C 0.78058 0.12145 0.57747
N2U N 0.70363 0.03697 0.66667
N1I N 0.94055 0.26361 0.80443
C1I C 0.88609 0.21188 0.75586
C2I C 0.84155 0.15845 0.84417
H1I H 0.84767 0.15233 0.97135
N1DA N 0.73639 0.05945 0.80443
C1DA C 0.78812 0.11391 0.75586
Co1U Co 0.66667 0.04278 0.33333
O1M O 0.93705 0.27039 0.16667
N1P N 0.98973 0.39279 0.13777
N1Y N 0.60721 0.01027 0.13777
Co1E Co 1.04278 0.37611 0.66667
Co1T Co 0.62389 -0.04278 0.66667
Co1I Co 1.00000 0.29055 0.00000
Co1I_2 Co 1.00000 0.29055 1.00000
Co1DA Co 0.70945 0.00000 1.00000
N2E N 1.03697 0.33334 0.33333
N2T N 0.66666 -0.03697 0.33333
O1T O 0.60372 -0.00000 0.50000
O1Y O 0.72961 0.06295 0.16667
loop_
_geom_bond_atom_site_label_1
_geom_bond_atom_site_label_2
_geom_bond_site_symmetry_1
_geom_bond_site_symmetry_2
N1 C1 1_555 1_555
C1 C2 1_555 1_555
Co1 N1 1_555 1_555
N2 N1 1_555 1_555
C2 H1 1_555 1_555
O1 Co1 1_555 1_555
N1U C1U 1_555 1_555
C1U C2 1_555 1_555
N2U N1U 1_555 1_555
N1I N2 1_555 1_555
C1I C1 1_555 1_555
C2I C1I 1_555 1_555
H1I C2I 1_555 1_555
N1DA N2U 1_555 1_555
C1DA C1U 1_555 1_555
Co1U N1U 1_555 1_555
O1M Co1 1_555 1_555
N1P Co1 1_555 1_555
N1Y Co1U 1_555 1_555
Co1E N2 1_555 1_555
Co1T N2U 1_555 1_555
Co1I O1M 1_555 1_555
Co1I_2 N1I 1_555 1_555
Co1DA N1DA 1_555 1_555
N2E Co1 1_555 1_555
N2T Co1U 1_555 1_555
O1T Co1U 1_555 1_555
O1Y Co1U 1_555 1_555
O1 Co1E 1_555 1_555
N1I C1I 1_555 1_555
C2I C1DA 1_555 1_555
N1DA C1DA 1_555 1_555
Co1T O1T 1_555 1_555

#END
