
#######################################################################
#
#                 Cambridge Crystallographic Data Centre
#                                CCDC 
#
#######################################################################
#
# If this CIF has been generated from an entry in the Cambridge 
# Structural Database, then it will include bibliographic, chemical, 
# crystal, experimental, refinement or atomic coordinate data resulting 
# from the CCDC's data processing and validation procedures.
#
#######################################################################

data_AWAKEQ
_chemical_formula_moiety         '(C39 H44 Cd1 N6 O7)n'
_symmetry_cell_setting           monoclinic
_symmetry_space_group_name_H-M   'P 21/c'
_symmetry_Int_Tables_number      14
_space_group_name_Hall           '-P 2ybc'
loop_
_symmetry_equiv_pos_site_id
_symmetry_equiv_pos_as_xyz
1 x,y,z
2 -x,1/2+y,1/2-z
3 -x,-y,-z
4 x,1/2-y,1/2+z
_cell_length_a                   10.1080(5)
_cell_length_b                   13.6695(7)
_cell_length_c                   28.8626(14)
_cell_angle_alpha                90
_cell_angle_beta                 99.5020(10)
_cell_angle_gamma                90
_cell_volume                     3933.27
loop_
_atom_site_label
_atom_site_type_symbol
_atom_site_fract_x
_atom_site_fract_y
_atom_site_fract_z
C1 C 0.4785(4) 0.1860(3) -0.11126(14)
C2 C 0.4276(4) 0.2468(3) -0.07451(12)
C3 C 0.4936(4) 0.2506(3) -0.02893(13)
H1 H 0.5671 0.2101 -0.0197
C4 C 0.3142(4) 0.3038(3) -0.08652(14)
H2 H 0.2670 0.3007 -0.1170
C5 C 0.2694(4) 0.3650(4) -0.05474(14)
H3 H 0.1913 0.4011 -0.0636
C6 C 0.4524(4) 0.3137(3) 0.00357(13)
H4 H 0.4998 0.3160 0.0340
C7 C 0.3410(4) 0.3733(3) -0.00899(13)
C8 C 0.2322(4) 0.5293(3) 0.00685(14)
C9 C 0.1385(6) 0.5666(4) 0.0325(2)
H5 H 0.1202 0.5334 0.0589
C10 C 0.2545(5) 0.5788(3) -0.03268(15)
H6 H 0.3167 0.5547 -0.0502
C11 C 0.1852(6) 0.6641(4) -0.04651(17)
H7 H 0.2006 0.6959 -0.0736
C12 C 0.0724(7) 0.6537(5) 0.0187(2)
H8 H 0.0122 0.6796 0.0366
C13 C 0.0949(6) 0.7023(5) -0.0214(2)
H9 H 0.0493 0.7599 -0.0309
C14 C 0.3541(4) 0.4354(3) 0.07196(13)
C15 C 0.3391(4) 0.3505(3) 0.09657(13)
H10 H 0.2974 0.2962 0.0811
C16 C 0.4199(5) 0.5145(3) 0.09485(14)
H11 H 0.4332 0.5706 0.0780
C17 C 0.3864(4) 0.3468(3) 0.14429(13)
H12 H 0.3760 0.2896 0.1607
C18 C 0.4664(5) 0.5106(3) 0.14292(14)
H13 H 0.5094 0.5646 0.1583
C19 C 0.4488(4) 0.4263(3) 0.16802(13)
C20 C 0.4906(4) 0.4237(3) 0.22064(13)
C21 C 1.1534(4) -0.3622(3) 0.33236(15)
C22 C 1.2823(4) -0.3277(3) 0.34453(18)
H14 H 1.2966 -0.2637 0.3551
C23 C 1.1398(5) -0.4570(4) 0.31636(18)
H15 H 1.0546 -0.4833 0.3073
C24 C 1.2507(5) -0.5132(3) 0.31364(17)
H16 H 1.2382 -0.5775 0.3034
C25 C 1.3903(5) -0.3872(3) 0.34124(18)
H17 H 1.4764 -0.3626 0.3505
C26 C 0.8600(5) 0.3300(4) 0.33456(17)
H18 H 0.8805 0.3908 0.3484
C27 C 0.7074(4) 0.2210(3) 0.29825(16)
H19 H 0.6187 0.2052 0.2864
C28 C 0.9624(5) 0.2646(4) 0.33292(18)
H20 H 1.0499 0.2816 0.3458
C29 C 0.8038(4) 0.1518(3) 0.29518(15)
H21 H 0.7804 0.0910 0.2818
C30 C 0.9365(4) 0.1738(3) 0.31232(15)
C31 C 1.0495(4) 0.1061(4) 0.30628(19)
H22 H 1.0817 0.1230 0.2774
H23 H 1.1228 0.1162 0.3321
C32 C 0.9828(5) -0.0340(4) 0.34947(15)
H24 H 0.9852 0.0044 0.3762
C33 C 1.1200(4) -0.0558(3) 0.29049(17)
H25 H 1.2002 -0.0308 0.2837
C34 C 0.9488(5) -0.1392(4) 0.34731(17)
H26 H 0.8683 -0.1654 0.3532
C35 C 1.0824(5) -0.1628(3) 0.28842(15)
H27 H 1.0749 -0.2017 0.2617
C36 C 1.0324(4) -0.3007(4) 0.33559(18)
H28 H 0.9621 -0.3169 0.3096
H29 H 0.9999 -0.3164 0.3645
N1 N 0.3029(4) 0.4420(3) 0.02292(11)
N2 N 0.7329(4) 0.3098(2) 0.31717(12)
N3 N 1.3756(4) -0.4794(2) 0.32515(12)
N4 N 1.0122(3) 0.0030(3) 0.30464(12)
N5 N 1.0597(3) -0.1962(3) 0.33461(13)
O1 O 0.4306(3) 0.2037(2) -0.15327(9)
O2 O 0.7161(3) 0.5439(2) 0.34164(11)
O3 O 0.5639(3) 0.1212(2) -0.09917(10)
O4 O 0.4550(3) 0.3523(2) 0.24298(9)
O5 O 0.5575(3) 0.4924(2) 0.24112(9)
Cd1 Cd 0.55659(3) 0.41825(2) 0.317741(9)
N3_2 N 0.3756(4) 0.5206(2) 0.32515(12)
O1C O 0.4306(3) 0.2963(2) 0.34673(9)
O3C O 0.5639(3) 0.3788(2) 0.40083(10)
Cd1_2 Cd 1.55659(3) -0.58175(2) 0.317741(9)
Cd1C Cd 0.55659(3) 0.08175(2) -0.182259(9)
C37 C 0.1256(9) 0.1042(7) -0.0293(3)
H30 H 0.1203 0.0934 -0.0625
H31 H 0.1507 0.1709 -0.0221
H32 H 0.0398 0.0913 -0.0205
C38 C 0.2919(12) -0.0193(7) -0.0343(3)
H33 H 0.2567 -0.0073 -0.0668
H34 H 0.2796 -0.0869 -0.0272
H35 H 0.3858 -0.0038 -0.0283
C39 C 0.2515(10) 0.0397(6) 0.0415(3)
N6 N 0.2212(6) 0.0419(4) -0.0048(2)
O6 O 0.1956(7) 0.0922(4) 0.06710(19)
O7 O 0.3078(3) 0.1710(2) 0.23407(12)
loop_
_geom_bond_atom_site_label_1
_geom_bond_atom_site_label_2
_geom_bond_site_symmetry_1
_geom_bond_site_symmetry_2
C1 C2 1_555 1_555
C2 C3 1_555 1_555
C3 H1 1_555 1_555
C4 C2 1_555 1_555
H2 C4 1_555 1_555
C5 C4 1_555 1_555
H3 C5 1_555 1_555
C6 C3 1_555 1_555
H4 C6 1_555 1_555
C7 C5 1_555 1_555
C8 C9 1_555 1_555
C9 H5 1_555 1_555
C10 C8 1_555 1_555
H6 C10 1_555 1_555
C11 C10 1_555 1_555
H7 C11 1_555 1_555
C12 C9 1_555 1_555
H8 C12 1_555 1_555
C13 C11 1_555 1_555
H9 C13 1_555 1_555
C14 C15 1_555 1_555
C15 H10 1_555 1_555
C16 C14 1_555 1_555
H11 C16 1_555 1_555
C17 C15 1_555 1_555
H12 C17 1_555 1_555
C18 C16 1_555 1_555
H13 C18 1_555 1_555
C19 C17 1_555 1_555
C20 C19 1_555 1_555
C21 C22 1_555 1_555
C22 H14 1_555 1_555
C23 C21 1_555 1_555
H15 C23 1_555 1_555
C24 C23 1_555 1_555
H16 C24 1_555 1_555
C25 C22 1_555 1_555
H17 C25 1_555 1_555
C26 H18 1_555 1_555
C27 H19 1_555 1_555
C28 C26 1_555 1_555
H20 C28 1_555 1_555
C29 C27 1_555 1_555
H21 C29 1_555 1_555
C30 C28 1_555 1_555
C31 C30 1_555 1_555
H22 C31 1_555 1_555
H23 C31 1_555 1_555
C32 H24 1_555 1_555
C33 H25 1_555 1_555
C34 C32 1_555 1_555
H26 C34 1_555 1_555
C35 C33 1_555 1_555
H27 C35 1_555 1_555
C36 C21 1_555 1_555
H28 C36 1_555 1_555
H29 C36 1_555 1_555
N1 C7 1_555 1_555
N2 C26 1_555 1_555
N3 C24 1_555 1_555
N4 C31 1_555 1_555
N5 C34 1_555 1_555
O1 C1 1_555 1_555
O2 Cd1 1_555 1_555
O3 C1 1_555 1_555
O4 C20 1_555 1_555
O5 C20 1_555 1_555
Cd1 N2 1_555 1_555
C37 H30 1_555 1_555
H31 C37 1_555 1_555
H32 C37 1_555 1_555
C38 H33 1_555 1_555
H34 C38 1_555 1_555
H35 C38 1_555 1_555
C39 N6 1_555 1_555
N6 C37 1_555 1_555
O6 C39 1_555 1_555
N3_2 Cd1 1_555 1_555
O1C Cd1 1_555 1_555
O3C Cd1 1_555 1_555
Cd1_2 N3 1_555 1_555
Cd1C O1 1_555 1_555
C6 C7 1_555 1_555
C8 N1 1_555 1_555
C12 C13 1_555 1_555
C14 N1 1_555 1_555
C18 C19 1_555 1_555
C25 N3 1_555 1_555
C27 N2 1_555 1_555
C29 C30 1_555 1_555
C32 N4 1_555 1_555
C33 N4 1_555 1_555
C35 N5 1_555 1_555
C36 N5 1_555 1_555
O3 Cd1C 1_555 1_555
O4 Cd1 1_555 1_555
O5 Cd1 1_555 1_555
C38 N6 1_555 1_555

#END
