
#######################################################################
#
#                 Cambridge Crystallographic Data Centre
#                                CCDC 
#
#######################################################################
#
# If this CIF has been generated from an entry in the Cambridge 
# Structural Database, then it will include bibliographic, chemical, 
# crystal, experimental, refinement or atomic coordinate data resulting 
# from the CCDC's data processing and validation procedures.
#
#######################################################################

data_QEKLUP
_chemical_formula_moiety         '(C1 H6 Ba1 O10 P2 U1)n'
_symmetry_cell_setting           monoclinic
_symmetry_space_group_name_H-M   'C 2/m'
_symmetry_Int_Tables_number      12
_space_group_name_Hall           '-C 2y'
loop_
_symmetry_equiv_pos_site_id
_symmetry_equiv_pos_as_xyz
1 x,y,z
2 -x,y,-z
3 1/2+x,1/2+y,z
4 1/2-x,1/2+y,-z
5 -x,-y,-z
6 x,-y,z
7 1/2-x,1/2-y,-z
8 1/2+x,1/2-y,z
_cell_length_a                   15.378(3)
_cell_length_b                   13.439(2)
_cell_length_c                   5.0483(9)
_cell_angle_alpha                90
_cell_angle_beta                 98.828(3)
_cell_angle_gamma                90
_cell_volume                     1030.95
loop_
_atom_site_label
_atom_site_type_symbol
_atom_site_fract_x
_atom_site_fract_y
_atom_site_fract_z
U1 U 0.2500 0.7500 -0.5000
Ba1 Ba 0.10554(4) 1.0000 -0.66105(12)
P1 P 0.08808(12) 0.79201(14) -0.0973(3)
C1 C -0.0000 0.71900(19) 0.0000
H1 H -0.0239 0.6764 -0.1486
O1 O 0.2590 0.87326(19) -0.3650
O2 O 0.1359 0.72361(19) -0.2748
O3 O 0.0559 0.88852(19) -0.2252
O4 O 0.1503 0.81405(19) 0.1682
O5 O 0.2632 0.99999(19) -0.8782
U1_2 U 0.2500 0.7500 0.5000
U1A U -0.2500 0.7500 0.5000
U1A_2 U -0.2500 0.7500 -0.5000
Ba1A Ba -0.10554(4) 1.0000 -0.33895(12)
Ba1_2 Ba 0.10554(4) 1.0000 0.33895(12)
Ba1A_2 Ba -0.10554(4) 1.0000 0.66105(12)
P1A P -0.08808(12) 0.79201(14) 0.0973(3)
H1A H 0.0239 0.6764 0.1486
O1F O 0.2410 0.62674(19) -0.6350
O2A O -0.1359 0.72361(19) 0.2748
O2F O 0.3641 0.77639(19) -0.7252
O3A O -0.0559 0.88852(19) 0.2252
O3A_2 O -0.0559 0.88852(19) -0.7748
O3D O -0.0559 1.11148(19) -0.7748
O3E O 0.0559 1.11148(19) -0.2252
O4A O -0.1503 0.81405(19) -0.1682
O4_2 O 0.1503 0.81405(19) -0.8318
O4F O 0.3497 0.68595(19) -0.1682
O4E O 0.1503 1.18595(19) -0.8318
O6 O 0.0672 0.49999(19) 0.3048
loop_
_geom_bond_atom_site_label_1
_geom_bond_atom_site_label_2
_geom_bond_site_symmetry_1
_geom_bond_site_symmetry_2
U1 O1 1_555 1_555
Ba1 O3 1_555 1_555
P1 C1 1_555 1_555
C1 H1 1_555 1_555
O2 U1 1_555 1_555
O3 P1 1_555 1_555
O4 P1 1_555 1_555
O5 Ba1 1_555 1_555
U1_2 O4 1_555 1_555
U1A O2A 1_555 1_555
U1A_2 O4A 1_555 1_555
Ba1A O3 1_555 1_555
Ba1_2 O4 1_555 1_555
Ba1A_2 O3A 1_555 1_555
P1A C1 1_555 1_555
H1A C1 1_555 1_555
O1F U1 1_555 1_555
O2A P1A 1_555 1_555
O2F U1 1_555 1_555
O3A Ba1_2 1_555 1_555
O3A_2 Ba1 1_555 1_555
O3D Ba1 1_555 1_555
O3E Ba1 1_555 1_555
O4A Ba1A 1_555 1_555
O4_2 U1 1_555 1_555
O4F U1 1_555 1_555
O4E Ba1 1_555 1_555
Ba1 O4_2 1_555 1_555
P1 O2 1_555 1_555
Ba1A O3A_2 1_555 1_555
Ba1A O3D 1_555 1_555
Ba1A O3E 1_555 1_555
P1A O3A 1_555 1_555
P1A O4A 1_555 1_555

#END
