
#######################################################################
#
#                 Cambridge Crystallographic Data Centre
#                                CCDC 
#
#######################################################################
#
# If this CIF has been generated from an entry in the Cambridge 
# Structural Database, then it will include bibliographic, chemical, 
# crystal, experimental, refinement or atomic coordinate data resulting 
# from the CCDC's data processing and validation procedures.
#
#######################################################################

data_NEXXEV
_chemical_formula_moiety         '(C48 H41 Li4 N5 O16)n'
_symmetry_cell_setting           orthorhombic
_symmetry_space_group_name_H-M   'I b a 2'
_symmetry_Int_Tables_number      45
_space_group_name_Hall           'I 2 -2c'
loop_
_symmetry_equiv_pos_site_id
_symmetry_equiv_pos_as_xyz
1 x,y,z
2 -x,-y,z
3 -x,y,1/2+z
4 x,-y,1/2+z
5 1/2+x,1/2+y,1/2+z
6 1/2-x,1/2-y,1/2+z
7 1/2-x,1/2+y,z
8 1/2+x,1/2-y,z
_cell_length_a                   28.643(6)
_cell_length_b                   28.661(6)
_cell_length_c                   12.915(3)
_cell_angle_alpha                90
_cell_angle_beta                 90
_cell_angle_gamma                90
_cell_volume                     10602.4
loop_
_atom_site_label
_atom_site_type_symbol
_atom_site_fract_x
_atom_site_fract_y
_atom_site_fract_z
_atom_site_U_iso_or_equiv
_atom_site_thermal_displace_type
O13 O 0.6791(6) 0.1307(10) 0.329(2) 0.2460 Uiso
O14 O 0.6399(11) 0.1171(13) 0.2131(17) 0.2970 Uiso
N4 N 0.6320(4) 0.1295(5) 0.3072(12) 0.1910 Uiso
C37 C 0.6072(4) 0.1192(5) 0.3904(12) 0.3030 Uiso
C38 C 0.6247(4) 0.1017(5) 0.4830(12) 0.2050 Uiso
H22 H 0.6574 0.0978 0.4916 0.2460 Uiso
C39 C 0.5945(4) 0.0901(5) 0.5630(12) 0.2560 Uiso
H23 H 0.6064 0.0782 0.6263 0.3070 Uiso
C40 C 0.5466(4) 0.0959(5) 0.5504(12) 0.2000 Uiso
H24 H 0.5259 0.0880 0.6051 0.2400 Uiso
C41 C 0.5291(4) 0.1134(5) 0.4579(12) 0.1950 Uiso
H25 H 0.4964 0.1173 0.4493 0.2340 Uiso
C42 C 0.5593(4) 0.1250(5) 0.3779(12) 0.3200 Uiso
H26 H 0.5474 0.1369 0.3146 0.3830 Uiso
O15 O 0.3831(12) 0.2028(11) 0.343(2) 0.3190 Uiso
O16 O 0.3476(6) 0.1790(6) 0.4714(14) 0.1910 Uiso
N5 N 0.3815(5) 0.1698(5) 0.4125(13) 0.2900 Uiso
C43 C 0.4106(5) 0.1336(5) 0.4144(13) 0.4000 Uiso
C44 C 0.4440(5) 0.1313(5) 0.3364(13) 0.3700 Uiso
H27 H 0.4438 0.1535 0.2819 0.4490 Uiso
C45 C 0.4777(5) 0.0965(5) 0.3383(13) 0.2200 Uiso
H28 H 0.5005 0.0949 0.2851 0.2630 Uiso
C46 C 0.4781(5) 0.0639(5) 0.4182(13) 0.2120 Uiso
H29 H 0.5011 0.0401 0.4195 0.2550 Uiso
C47 C 0.4447(5) 0.0663(5) 0.4961(13) 0.1890 Uiso
H30 H 0.4449 0.0441 0.5507 0.2260 Uiso
C48 C 0.4110(5) 0.1011(5) 0.4942(13) 0.4300 Uiso
H31 H 0.3881 0.1027 0.5475 0.5170 Uiso
Li1 Li 0.27885(19) -0.2829(2) 0.8019(5) 0.0397 Uani
Li2 Li 0.2658(2) 0.21665(19) 0.4547(5) 0.0403 Uani
Li3 Li 0.2833(2) 0.23887(19) 0.6509(5) 0.0393 Uani
Li4 Li 0.3423(6) 0.3518(5) 0.3016(13) 0.1033 Uani
O1 O 0.3940(4) 0.3659(4) 0.2138(8) 0.1460 Uani
O2 O 0.3449(6) 0.4059(5) 0.3923(16) 0.2360 Uani
O3 O 0.31405(8) 0.25479(9) 0.5209(2) 0.0413 Uani
O4 O 0.33663(9) 0.29439(11) 0.3821(2) 0.0489 Uani
O5 O 0.72697(8) 0.23520(8) 0.3975(2) 0.0358 Uani
O6 O 0.67787(10) 0.22317(13) 0.2648(2) 0.0529 Uani
N1 N 0.53133(14) 0.2716(5) 0.6232(4) 0.1644 Uani
C1 C 0.34492(11) 0.27571(13) 0.4687(3) 0.0414 Uani
C2 C 0.39344(13) 0.27727(19) 0.5108(3) 0.0543 Uani
C3 C 0.40521(16) 0.2473(3) 0.5906(4) 0.0837 Uani
H1 H 0.3815 0.2287 0.6214 0.1010 Uiso
C4 C 0.45135(19) 0.2436(4) 0.6274(5) 0.1007 Uani
H2 H 0.4590 0.2222 0.6809 0.1210 Uiso
C5 C 0.48470(17) 0.2715(4) 0.5847(4) 0.1009 Uani
C6 C 0.47277(15) 0.3040(3) 0.5070(4) 0.0867 Uani
H3 H 0.4961 0.3241 0.4798 0.1040 Uiso
C7 C 0.42710(15) 0.3070(2) 0.4696(4) 0.0687 Uani
H4 H 0.4192 0.3289 0.4172 0.0820 Uiso
C8 C 0.68617(12) 0.23250(13) 0.3579(3) 0.0407 Uani
C9 C 0.64614(12) 0.24213(18) 0.4286(3) 0.0498 Uani
C10 C 0.65166(12) 0.2528(2) 0.5332(3) 0.0595 Uani
H5 H 0.6823 0.2531 0.5616 0.0710 Uiso
C11 C 0.61446(16) 0.2629(3) 0.5972(4) 0.0778 Uani
H6 H 0.6198 0.2708 0.6676 0.0940 Uiso
C12 C 0.56848(15) 0.2615(4) 0.5582(4) 0.1079 Uani
C13 C 0.56277(16) 0.2494(4) 0.4536(4) 0.1050 Uani
H7 H 0.5322 0.2472 0.4256 0.1260 Uiso
C14 C 0.60033(14) 0.2407(3) 0.3916(3) 0.0786 Uani
H8 H 0.5952 0.2334 0.3207 0.0940 Uiso
C15 C 0.5390(2) 0.2749(9) 0.7335(6) 0.1970 Uani
O7 O 0.26932(8) -0.22917(8) 0.70762(19) 0.0371 Uani
O8 O 0.28901(13) -0.18224(9) 0.8390(2) 0.0521 Uani
O9 O 0.25455(10) 0.18522(8) 0.5835(2) 0.0422 Uani
O10 O 0.21775(13) 0.15804(9) 0.7224(2) 0.0535 Uani
N2 N 0.2629(5) -0.03158(15) 0.4769(4) 0.1577 Uani
C16 C 0.27784(14) -0.18972(11) 0.7452(3) 0.0411 Uani
C17 C 0.27619(18) -0.14825(12) 0.6750(3) 0.0502 Uani
C18 C 0.2857(3) -0.10407(15) 0.7117(4) 0.0860 Uani
H9 H 0.2962 -0.1000 0.7809 0.1030 Uiso
C19 C 0.2800(5) -0.06496(16) 0.6467(4) 0.1295 Uani
H10 H 0.2849 -0.0345 0.6739 0.1550 Uiso
C20 C 0.2674(4) -0.07029(16) 0.5438(4) 0.0994 Uani
C21 C 0.2600(3) -0.11523(15) 0.5066(3) 0.0743 Uani
H11 H 0.2527 -0.1196 0.4354 0.0890 Uiso
C22 C 0.2629(2) -0.15380(12) 0.5709(3) 0.0547 Uani
H12 H 0.2560 -0.1840 0.5447 0.0660 Uiso
C23 C 0.23761(17) 0.15244(12) 0.6362(3) 0.0496 Uani
C24 C 0.2419(3) 0.10437(13) 0.5931(3) 0.0669 Uani
C25 C 0.2737(3) 0.09529(16) 0.5131(4) 0.0895 Uani
H13 H 0.2911 0.1202 0.4840 0.1080 Uiso
C26 C 0.2799(5) 0.05076(18) 0.4763(5) 0.1263 Uani
H14 H 0.3015 0.0456 0.4217 0.1520 Uiso
C27 C 0.2555(5) 0.01332(15) 0.5168(4) 0.1377 Uani
C28 C 0.2255(4) 0.02121(18) 0.5968(5) 0.1150 Uani
H15 H 0.2093 -0.0043 0.6272 0.1380 Uiso
C29 C 0.2182(3) 0.06661(16) 0.6351(4) 0.0906 Uani
H16 H 0.1969 0.0715 0.6904 0.1090 Uiso
C30 C 0.2686(8) -0.0377(2) 0.3666(5) 0.2073 Uani
O11 O 0.1817(10) 0.1921(9) 0.2315(19) 0.1940 Uiso
O12 O 0.2198(9) 0.1709(13) 0.354(3) 0.2330 Uiso
N3 N 0.1823(6) 0.1648(5) 0.3064(15) 0.2630 Uiso
C31 C 0.1415(6) 0.1260(5) 0.3171(15) 0.3200 Uiso
C32 C 0.1351(6) 0.1001(5) 0.4070(15) 0.3100 Uiso
H17 H 0.1552 0.1047 0.4645 0.3710 Uiso
C33 C 0.0992(6) 0.0676(5) 0.4127(15) 0.3600 Uiso
H18 H 0.0948 0.0499 0.4741 0.4310 Uiso
C34 C 0.0697(6) 0.0609(5) 0.3285(15) 0.1750 Uiso
H19 H 0.0452 0.0387 0.3324 0.2100 Uiso
C35 C 0.0761(6) 0.0868(5) 0.2386(15) 0.2650 Uiso
H20 H 0.0560 0.0822 0.1810 0.3180 Uiso
C36 C 0.1120(6) 0.1193(5) 0.2329(15) 0.3400 Uiso
H21 H 0.1164 0.1370 0.1714 0.4090 Uiso
Li1C Li 0.27885(19) 0.2829(2) 0.3019(5) 0.0397 Uani
Li1D Li 0.77885(19) 0.2171(2) 0.3019(5) 0.0397 Uani
Li1F Li 0.22115(19) 0.2171(2) 0.8019(5) 0.0397 Uani
Li2C Li 0.2658(2) -0.21665(19) 0.9547(5) 0.0403 Uani
Li2G Li 0.7658(2) 0.28335(19) 0.4547(5) 0.0403 Uani
Li3B Li 0.7167(2) 0.23887(19) 0.1509(5) 0.0393 Uani
Li3E Li 0.2167(2) 0.26113(19) 0.1509(5) 0.0393 Uani
Li3F Li 0.2167(2) -0.26113(19) 0.6509(5) 0.0393 Uani
Li4E Li 0.1577(6) 0.1482(5) 0.8016(13) 0.1033 Uani
O4C O 0.33663(9) -0.29439(11) 0.8821(2) 0.0489 Uani
O5D O 0.22697(8) -0.26480(8) 0.8975(2) 0.0358 Uani
O5G O 0.22697(8) 0.26480(8) 0.3975(2) 0.0358 Uani
O6B O 0.32213(10) 0.22317(13) 0.7648(2) 0.0529 Uani
O7F O 0.23068(8) 0.27083(8) 0.70762(19) 0.0371 Uani
O8C O 0.28901(13) 0.18224(9) 0.3390(2) 0.0521 Uani
O10E O 0.28225(13) 0.34196(9) 0.2224(2) 0.0535 Uani
O10F O 0.28225(13) -0.34196(9) 0.7224(2) 0.0535 Uani
O11E O 0.3183(10) 0.3079(9) 0.7315(19) 0.1940 Uiso
loop_
_atom_site_aniso_label
_atom_site_aniso_U_11
_atom_site_aniso_U_22
_atom_site_aniso_U_33
_atom_site_aniso_U_23
_atom_site_aniso_U_13
_atom_site_aniso_U_12
Li1 0.036(2) 0.049(3) 0.034(3) -0.003(2) -0.0038(19) 0.0009(18)
Li2 0.051(3) 0.036(2) 0.034(3) -0.002(2) 0.005(2) -0.0027(18)
Li3 0.053(3) 0.038(2) 0.027(3) -0.0034(18) 0.008(2) -0.0073(19)
Li4 0.112(9) 0.105(8) 0.093(9) 0.015(7) -0.043(7) -0.044(7)
O1 0.148(7) 0.146(6) 0.144(7) 0.033(5) 0.058(6) -0.043(5)
O2 0.239(14) 0.149(9) 0.32(2) -0.110(11) -0.136(15) -0.027(8)
O3 0.0374(10) 0.0543(12) 0.0321(12) 0.0025(9) -0.0003(9) -0.0044(8)
O4 0.0438(11) 0.0697(16) 0.0331(12) 0.0060(11) -0.0019(9) -0.0154(10)
O5 0.0362(10) 0.0395(11) 0.0316(11) 0.0022(8) -0.0005(8) 0.0006(7)
O6 0.0413(12) 0.0866(19) 0.0308(13) -0.0024(12) 0.0002(10) -0.0055(11)
N1 0.0213(17) 0.434(19) 0.038(3) -0.030(5) 0.0023(16) 0.006(3)
C1 0.0363(13) 0.0574(16) 0.0305(16) -0.0022(12) 0.0000(12) -0.0056(11)
C2 0.0351(15) 0.089(3) 0.0389(19) -0.0005(16) 0.0015(13) -0.0030(14)
C3 0.0360(19) 0.174(7) 0.041(2) 0.016(3) -0.0003(16) 0.013(3)
C4 0.043(2) 0.220(9) 0.039(2) 0.017(4) -0.0020(19) 0.034(3)
C5 0.0327(18) 0.240(10) 0.030(2) -0.013(3) 0.0030(15) 0.002(3)
C6 0.0341(17) 0.189(7) 0.037(2) -0.006(3) 0.0005(15) -0.023(3)
C7 0.0380(17) 0.117(4) 0.051(2) -0.009(2) -0.0019(16) -0.0173(19)
C8 0.0363(14) 0.0588(18) 0.0269(15) 0.0033(11) 0.0014(10) -0.0006(11)
C9 0.0345(15) 0.091(3) 0.0240(15) 0.0019(14) -0.0011(11) 0.0009(14)
C10 0.0287(13) 0.119(4) 0.0308(19) 0.0060(19) -0.0031(12) -0.0046(17)
C11 0.0384(19) 0.165(6) 0.030(2) -0.008(2) 0.0027(15) 0.003(2)
C12 0.0296(17) 0.268(11) 0.026(2) -0.015(3) 0.0048(15) -0.002(3)
C13 0.0340(19) 0.249(10) 0.032(2) -0.012(3) -0.0009(17) -0.006(3)
C14 0.0347(17) 0.176(6) 0.0250(18) 0.003(2) -0.0010(15) -0.007(2)
C15 0.045(3) 0.51(3) 0.036(3) -0.016(7) 0.003(2) 0.019(6)
O7 0.0496(12) 0.0332(10) 0.0284(11) 0.0001(8) 0.0047(8) -0.0010(7)
O8 0.0821(19) 0.0404(12) 0.0338(14) 0.0024(9) 0.0023(12) -0.0133(11)
O9 0.0601(13) 0.0332(10) 0.0332(12) 0.0007(8) 0.0016(10) -0.0070(8)
O10 0.0830(19) 0.0409(11) 0.0366(14) -0.0010(10) 0.0109(13) -0.0165(11)
N2 0.416(17) 0.029(2) 0.028(2) 0.0013(15) 0.005(4) 0.015(4)
C16 0.0656(19) 0.0292(13) 0.0284(15) 0.0031(10) 0.0022(12) -0.0033(11)
C17 0.093(3) 0.0297(14) 0.0278(17) 0.0021(11) 0.0040(15) -0.0051(14)
C18 0.198(7) 0.0332(17) 0.0267(18) 0.0047(14) -0.005(3) -0.027(2)
C19 0.328(15) 0.0275(18) 0.033(2) 0.0074(16) -0.015(4) -0.034(3)
C20 0.238(10) 0.0312(19) 0.029(2) -0.0020(15) 0.007(3) 0.001(3)
C21 0.163(6) 0.0357(18) 0.0241(17) -0.0016(14) -0.008(2) 0.005(2)
C22 0.105(3) 0.0328(14) 0.0262(17) -0.0012(12) -0.0044(17) -0.0003(15)
C23 0.091(3) 0.0281(13) 0.0296(17) -0.0032(11) -0.0024(15) -0.0043(14)
C24 0.139(5) 0.0280(16) 0.0337(19) -0.0021(13) 0.007(2) -0.0071(19)
C25 0.190(7) 0.0315(18) 0.047(3) 0.0077(16) 0.031(3) 0.014(2)
C26 0.306(14) 0.035(2) 0.038(3) 0.0033(19) 0.032(4) 0.032(4)
C27 0.358(16) 0.022(2) 0.033(2) 0.0003(15) -0.010(4) -0.003(3)
C28 0.270(12) 0.029(2) 0.046(3) -0.0034(17) 0.016(4) -0.032(3)
C29 0.196(7) 0.0287(17) 0.047(3) -0.0049(15) 0.017(3) -0.033(3)
C30 0.55(3) 0.039(2) 0.033(3) 0.001(2) 0.050(7) 0.020(6)
Li1C 0.036 0.049 0.034 0.003 -0.0038 -0.0009
Li1D 0.036 0.049 0.034 -0.003 -0.0038 0.0009
Li1F 0.036 0.049 0.034 -0.003 0.0038 -0.0009
Li2C 0.051 0.036 0.034 0.002 0.005 0.0027
Li2G 0.051 0.036 0.034 0.002 0.005 0.0027
Li3B 0.053 0.038 0.027 -0.0034 -0.008 0.0073
Li3E 0.053 0.038 0.027 0.0034 -0.008 -0.0073
Li3F 0.053 0.038 0.027 -0.0034 -0.008 0.0073
Li4E 0.112 0.105 0.093 -0.015 0.043 -0.044
O4C 0.0438 0.0697 0.0331 -0.006 -0.0019 0.0154
O5D 0.0362 0.0395 0.0316 0.0022 -0.0005 0.0006
O5G 0.0362 0.0395 0.0316 -0.0022 -0.0005 -0.0006
O6B 0.0413 0.0866 0.0308 -0.0024 -0.0002 0.0055
O7F 0.0496 0.0332 0.0284 0.0001 -0.0047 0.001
O8C 0.0821 0.0404 0.0338 -0.0024 0.0023 0.0133
O10E 0.083 0.0409 0.0366 0.001 -0.0109 -0.0165
O10F 0.083 0.0409 0.0366 -0.001 -0.0109 0.0165
loop_
_geom_bond_atom_site_label_1
_geom_bond_atom_site_label_2
_geom_bond_site_symmetry_1
_geom_bond_site_symmetry_2
Li1 O7 1_555 1_555
Li2 O3 1_555 1_555
Li3 O3 1_555 1_555
Li4 O1 1_555 1_555
O2 Li4 1_555 1_555
O3 C1 1_555 1_555
O4 Li4 1_555 1_555
O5 C8 1_555 1_555
O6 C8 1_555 1_555
N1 C5 1_555 1_555
C1 O4 1_555 1_555
C2 C1 1_555 1_555
C3 C2 1_555 1_555
H1 C3 1_555 1_555
C4 C3 1_555 1_555
H2 C4 1_555 1_555
C5 C4 1_555 1_555
C6 C5 1_555 1_555
H3 C6 1_555 1_555
C7 C2 1_555 1_555
H4 C7 1_555 1_555
C8 C9 1_555 1_555
C9 C10 1_555 1_555
C10 H5 1_555 1_555
C11 C10 1_555 1_555
H6 C11 1_555 1_555
C12 N1 1_555 1_555
C13 C12 1_555 1_555
H7 C13 1_555 1_555
C14 C9 1_555 1_555
H8 C14 1_555 1_555
C15 N1 1_555 1_555
O7 C16 1_555 1_555
O8 C16 1_555 1_555
O9 Li2 1_555 1_555
O10 C23 1_555 1_555
N2 C20 1_555 1_555
C16 C17 1_555 1_555
C17 C18 1_555 1_555
C18 H9 1_555 1_555
C19 C18 1_555 1_555
H10 C19 1_555 1_555
C20 C19 1_555 1_555
C21 C20 1_555 1_555
H11 C21 1_555 1_555
C22 C17 1_555 1_555
H12 C22 1_555 1_555
C23 O9 1_555 1_555
C24 C23 1_555 1_555
C25 C24 1_555 1_555
H13 C25 1_555 1_555
C26 C25 1_555 1_555
H14 C26 1_555 1_555
C27 N2 1_555 1_555
C28 C27 1_555 1_555
H15 C28 1_555 1_555
C29 C24 1_555 1_555
H16 C29 1_555 1_555
C30 N2 1_555 1_555
O11 N3 1_555 1_555
O12 Li2 1_555 1_555
N3 O12 1_555 1_555
C31 N3 1_555 1_555
C32 C31 1_555 1_555
H17 C32 1_555 1_555
C33 C32 1_555 1_555
H18 C33 1_555 1_555
C34 C33 1_555 1_555
H19 C34 1_555 1_555
C35 C34 1_555 1_555
H20 C35 1_555 1_555
C36 C31 1_555 1_555
H21 C36 1_555 1_555
O13 N4 1_555 1_555
O14 N4 1_555 1_555
N4 C37 1_555 1_555
C37 C38 1_555 1_555
C38 H22 1_555 1_555
C39 C38 1_555 1_555
H23 C39 1_555 1_555
C40 C39 1_555 1_555
H24 C40 1_555 1_555
C41 C40 1_555 1_555
H25 C41 1_555 1_555
C42 C37 1_555 1_555
H26 C42 1_555 1_555
O15 N5 1_555 1_555
O16 N5 1_555 1_555
N5 C43 1_555 1_555
C43 C44 1_555 1_555
C44 H27 1_555 1_555
C45 C44 1_555 1_555
H28 C45 1_555 1_555
C46 C45 1_555 1_555
H29 C46 1_555 1_555
C47 C46 1_555 1_555
H30 C47 1_555 1_555
C48 C43 1_555 1_555
H31 C48 1_555 1_555
Li1C O4 1_555 1_555
Li1D O5 1_555 1_555
Li1F O10 1_555 1_555
Li2C O8 1_555 1_555
Li2G O5 1_555 1_555
Li3B O6 1_555 1_555
Li3E O11 1_555 1_555
Li3F O7 1_555 1_555
Li4E O10 1_555 1_555
O4C Li1 1_555 1_555
O5D Li1 1_555 1_555
O5G Li2 1_555 1_555
O6B Li3 1_555 1_555
O7F Li3 1_555 1_555
O8C Li2 1_555 1_555
O10E Li4 1_555 1_555
O10F Li1 1_555 1_555
O11E Li3 1_555 1_555
Li3 O9 1_555 1_555
C6 C7 1_555 1_555
C11 C12 1_555 1_555
C13 C14 1_555 1_555
C21 C22 1_555 1_555
C26 C27 1_555 1_555
C28 C29 1_555 1_555
C35 C36 1_555 1_555
C41 C42 1_555 1_555
C47 C48 1_555 1_555
Li1C O5G 1_555 1_555
Li1C O10E 1_555 1_555
Li1F O7F 1_555 1_555
Li2C O5D 1_555 1_555

#END
