
#######################################################################
#
#                 Cambridge Crystallographic Data Centre
#                                CCDC 
#
#######################################################################
#
# If this CIF has been generated from an entry in the Cambridge 
# Structural Database, then it will include bibliographic, chemical, 
# crystal, experimental, refinement or atomic coordinate data resulting 
# from the CCDC's data processing and validation procedures.
#
#######################################################################

data_WOCVUG
_chemical_formula_moiety         '(C22 H24 Cu2 N2 O8)n'
_symmetry_cell_setting           monoclinic
_symmetry_space_group_name_H-M   'C 2'
_symmetry_Int_Tables_number      5
_space_group_name_Hall           'C 2y'
loop_
_symmetry_equiv_pos_site_id
_symmetry_equiv_pos_as_xyz
1 x,y,z
2 -x,y,-z
3 1/2+x,1/2+y,z
4 1/2-x,1/2+y,-z
_cell_length_a                   21.0446(18)
_cell_length_b                   13.7315(15)
_cell_length_c                   9.1291(10)
_cell_angle_alpha                90
_cell_angle_beta                 104.150(4)
_cell_angle_gamma                90
_cell_volume                     2558.03
loop_
_atom_site_label
_atom_site_type_symbol
_atom_site_fract_x
_atom_site_fract_y
_atom_site_fract_z
Cu1 Cu 0.800688(19) 0.28193(3) 0.81509(4)
Cu2 Cu 0.69469(2) 0.37266(3) 0.66842(4)
O1 O 0.65205(13) 0.3320(2) 0.8290(3)
O2 O 0.74699(11) 0.2710(2) 0.9621(2)
O3 O 0.76610(12) -0.0131(2) 1.2126(3)
O4 O 0.67142(12) -0.08752(19) 1.1072(3)
O5 O 0.75385(13) 0.1669(2) 0.7109(3)
O6 O 0.66844(12) 0.24395(19) 0.5764(3)
O7 O 0.66012(12) -0.1922(2) 0.3564(3)
O8 O 0.74818(13) -0.1069(2) 0.4701(3)
N1 N 0.87948(15) 0.2062(2) 0.9693(3)
N2 N 1.11790(15) -0.0461(3) 1.5193(3)
C1 C 0.68659(17) 0.2876(3) 0.9404(4)
C2 C 0.65320(17) 0.2532(3) 1.0609(4)
H1 H 0.6069 0.2361 1.0103
C3 C 0.68492(19) 0.1652(3) 1.1464(4)
H2 H 0.6625 0.1495 1.2269
H3 H 0.7312 0.1803 1.1953
C4 C 0.6823(2) 0.0773(3) 1.0449(4)
H4 H 0.6362 0.0654 0.9907
H5 H 0.7072 0.0920 0.9684
C5 C 0.7097(2) -0.0137(3) 1.1281(4)
C6 C 0.6520(2) 0.3394(3) 1.1726(4)
H6 H 0.6312 0.3962 1.1157
H7 H 0.6970 0.3559 1.2263
H8 H 0.6272 0.3199 1.2457
C7 C 0.70024(17) 0.1686(3) 0.6172(4)
C8 C 0.6738(2) 0.0731(3) 0.5473(5)
H9 H 0.6948 0.0575 0.4643
H10 H 0.6261 0.0798 0.5030
C9 C 0.6854(2) -0.0102(3) 0.6597(4)
H11 H 0.6633 0.0051 0.7410
H12 H 0.7330 -0.0148 0.7064
C10 C 0.66033(19) -0.1132(3) 0.5902(4)
H13 H 0.6740 -0.1631 0.6717
C11 C 0.69195(19) -0.1398(3) 0.4625(4)
C12 C 0.5858(2) -0.1114(4) 0.5440(6)
H14 H 0.5695 -0.1747 0.5012
H15 H 0.5711 -0.0604 0.4681
H16 H 0.5688 -0.0980 0.6327
C13 C 0.8800(2) 0.1087(3) 0.9832(6)
H17 H 0.8502 0.0711 0.9099
C14 C 0.9212(3) 0.0631(4) 1.0969(6)
H18 H 0.9143 -0.0039 1.1133
C15 C 0.97254(16) 0.1088(3) 1.1899(4)
C16 C 1.02256(19) 0.0551(3) 1.3033(4)
C17 C 1.01784(18) -0.0441(3) 1.3228(4)
H19 H 0.9823 -0.0798 1.2624
C18 C 1.0667(2) -0.0920(3) 1.4336(4)
H20 H 1.0625 -0.1601 1.4474
C19 C 1.1239(2) 0.0454(3) 1.4981(5)
H21 H 1.1625 0.0774 1.5526
C20 C 1.0760(2) 0.1003(3) 1.3979(5)
H22 H 1.0803 0.1691 1.3949
C21 C 0.9713(2) 0.2063(4) 1.1764(5)
H23 H 1.0035 0.2440 1.2440
C22 C 0.9265(2) 0.2507(3) 1.0714(5)
H24 H 0.9279 0.3198 1.0684
Cu1C Cu 0.699312(19) -0.21807(3) 1.18491(4)
Cu1C_2 Cu 0.699312(19) -0.21807(3) 0.18491(4)
Cu2C Cu 0.80531(2) -0.12734(3) 1.33158(4)
Cu2C_2 Cu 0.80531(2) -0.12734(3) 0.33158(4)
Cu2B Cu 1.19469(2) -0.12734(3) 1.66842(4)
O3C O 0.73390(12) 0.4869(2) 0.7874(3)
O4C O 0.82858(12) 0.41248(19) 0.8928(3)
O7C O 0.83988(12) 0.3078(2) 0.6436(3)
O8C O 0.75182(13) 0.3931(2) 0.5299(3)
N2B N 0.61790(15) 0.4539(3) 0.5193(3)
loop_
_geom_bond_atom_site_label_1
_geom_bond_atom_site_label_2
_geom_bond_site_symmetry_1
_geom_bond_site_symmetry_2
Cu1 O2 1_555 1_555
Cu2 O1 1_555 1_555
O1 C1 1_555 1_555
O2 C1 1_555 1_555
O3 C5 1_555 1_555
O4 C5 1_555 1_555
O5 Cu1 1_555 1_555
O6 Cu2 1_555 1_555
O7 C11 1_555 1_555
O8 C11 1_555 1_555
N1 Cu1 1_555 1_555
N2 C18 1_555 1_555
C1 C2 1_555 1_555
C2 H1 1_555 1_555
C3 C2 1_555 1_555
H2 C3 1_555 1_555
H3 C3 1_555 1_555
C4 C3 1_555 1_555
H4 C4 1_555 1_555
H5 C4 1_555 1_555
C5 C4 1_555 1_555
C6 C2 1_555 1_555
H6 C6 1_555 1_555
H7 C6 1_555 1_555
H8 C6 1_555 1_555
C7 O5 1_555 1_555
C8 C7 1_555 1_555
H9 C8 1_555 1_555
H10 C8 1_555 1_555
C9 C8 1_555 1_555
H11 C9 1_555 1_555
H12 C9 1_555 1_555
C10 C9 1_555 1_555
H13 C10 1_555 1_555
C11 C10 1_555 1_555
C12 C10 1_555 1_555
H14 C12 1_555 1_555
H15 C12 1_555 1_555
H16 C12 1_555 1_555
C13 N1 1_555 1_555
H17 C13 1_555 1_555
C14 C13 1_555 1_555
H18 C14 1_555 1_555
C15 C14 1_555 1_555
C16 C15 1_555 1_555
C17 C16 1_555 1_555
H19 C17 1_555 1_555
C18 C17 1_555 1_555
H20 C18 1_555 1_555
C19 N2 1_555 1_555
H21 C19 1_555 1_555
C20 C16 1_555 1_555
H22 C20 1_555 1_555
C21 C15 1_555 1_555
H23 C21 1_555 1_555
C22 N1 1_555 1_555
H24 C22 1_555 1_555
Cu1C O4 1_555 1_555
Cu1C_2 O7 1_555 1_555
Cu2C O3 1_555 1_555
Cu2C_2 O8 1_555 1_555
Cu2B N2 1_555 1_555
O3C Cu2 1_555 1_555
O4C Cu1 1_555 1_555
O7C Cu1 1_555 1_555
O8C Cu2 1_555 1_555
N2B Cu2 1_555 1_555
O6 C7 1_555 1_555
C19 C20 1_555 1_555
C21 C22 1_555 1_555

#END
