
#######################################################################
#
#                 Cambridge Crystallographic Data Centre
#                                CCDC 
#
#######################################################################
#
# If this CIF has been generated from an entry in the Cambridge 
# Structural Database, then it will include bibliographic, chemical, 
# crystal, experimental, refinement or atomic coordinate data resulting 
# from the CCDC's data processing and validation procedures.
#
#######################################################################

data_LEZJOQ
_chemical_formula_moiety         'C102 H78 Cu22 N21 O90'
_symmetry_cell_setting           hexagonal
_symmetry_space_group_name_H-M   'P 6/m'
_symmetry_Int_Tables_number      175
_space_group_name_Hall           '-P 6'
loop_
_symmetry_equiv_pos_site_id
_symmetry_equiv_pos_as_xyz
1 x,y,z
2 -y,x-y,z
3 -x+y,-x,z
4 y,-x+y,z
5 x-y,x,z
6 -x,-y,z
7 -x,-y,-z
8 y,-x+y,-z
9 x-y,x,-z
10 -y,x-y,-z
11 -x+y,-x,-z
12 x,y,-z
_cell_length_a                   16.7531(13)
_cell_length_b                   16.7531(13)
_cell_length_c                   10.8111(12)
_cell_angle_alpha                90
_cell_angle_beta                 90
_cell_angle_gamma                120
_cell_volume                     2627.79
loop_
_atom_site_label
_atom_site_type_symbol
_atom_site_fract_x
_atom_site_fract_y
_atom_site_fract_z
O2 O 0.0000 -0.0000 0.1126(6)
O3 O 0.0000 0.5000 0.0000
O4 O 0.6667 0.3333 0.0000
O5 O -0.0000 1.0000 0.3330(6)
O6 O 0.8603(3) 0.4964(3) 1.0000
H1 H 0.9057 0.4871 1.0000
C1 C 1.0349(2) 0.3657(2) 0.3406(3)
C2 C 1.1022(2) 0.4687(3) 0.3215(4)
H2 H 1.0914 0.4869 0.2409
H3 H 1.0905 0.5034 0.3835
C3 C 1.2577(3) 0.5780(3) 0.3263(4)
C4 C 1.2445(2) 0.6519(2) 0.3259(3)
H4 H 1.1849 0.6425 0.3254
C5 C 0.8431(2) 0.1156(2) 0.0680(3)
H5 H 0.8341 0.0641 0.1120
C6 C 0.8686(2) 0.2641(2) 0.0645(3)
H6 H 0.8775 0.3172 0.1040
N1 N 0.8579(2) 0.1886(2) 0.1312(3)
O7 O 0.94994(16) 0.34219(16) 0.3425(2)
O8 O 1.06509(15) 0.31579(15) 0.3508(2)
O9 O 1.19030(14) 0.48978(15) 0.3291(2)
O10 O 0.8635(2) 0.2058(2) 0.5000
Cu1 Cu 0.85044(6) 0.20332(6) 0.31982(9)
C3B C 1.3203(4) 0.7423(3) 0.3263(4)
C4B C 1.4074(3) 0.7555(2) 0.3259(3)
C3A C 1.4220(3) 0.6797(4) 0.3263(4)
C4A C 1.3481(2) 0.5926(3) 0.3259(3)
H4A H 1.3575 0.5424 0.3254
O9A O 1.51022(15) 0.70052(21) 0.3291(2)
C2A C 1.5313(3) 0.6335(4) 0.3215(4)
C1A C 1.6343(2) 0.6692(3) 0.3406(3)
O7A O 1.65781(16) 0.60775(23) 0.3425(2)
Cu1A Cu 1.79668(6) 0.64712(8) 0.31982(9)
N1A N 1.8114(2) 0.6693(3) 0.1312(3)
C5A C 1.8844(2) 0.7275(3) 0.0680(3)
C5I C 1.8844(2) 0.7275(3) -0.0680(3)
H5I H 1.9359 0.7700 -0.1120
N1I N 1.8114(2) 0.6693(3) -0.1312(3)
C6I C 1.7359(2) 0.6045(3) -0.0645(3)
C6A C 1.7359(2) 0.6045(3) 0.0645(3)
H6A H 1.6828 0.5603 0.1040
H6I H 1.6828 0.5603 -0.1040
Cu1I Cu 1.79668(6) 0.64712(8) -0.31982(9)
O7I O 1.65781(16) 0.60775(23) -0.3425(2)
C1I C 1.6343(2) 0.6692(3) -0.3406(3)
C2I C 1.5313(3) 0.6335(4) -0.3215(4)
H2I H 1.5131 0.6045 -0.2409
H3I H 1.4966 0.5871 -0.3835
O9I O 1.51022(15) 0.70052(21) -0.3291(2)
C3I C 1.4220(3) 0.6797(4) -0.3263(4)
C4I C 1.3481(2) 0.5926(3) -0.3259(3)
C3K C 1.2577(3) 0.5780(3) -0.3263(4)
C4K C 1.2445(2) 0.6519(2) -0.3259(3)
C3J C 1.3203(4) 0.7423(3) -0.3263(4)
C4J C 1.4074(3) 0.7555(2) -0.3259(3)
H4J H 1.4576 0.8151 -0.3254
O9J O 1.29948(21) 0.80970(14) -0.3291(2)
C2J C 1.3665(4) 0.8978(2) -0.3215(4)
C1J C 1.3308(3) 0.9651(2) -0.3406(3)
O7J O 1.39225(23) 1.05006(16) -0.3425(2)
Cu1J Cu 1.35288(8) 1.14956(6) -0.31982(9)
N1J N 1.3307(3) 1.1421(2) -0.1312(3)
C5J C 1.2725(3) 1.1569(2) -0.0680(3)
C5B C 1.2725(3) 1.1569(2) 0.0680(3)
H5B H 1.2300 1.1659 0.1120
N1B N 1.3307(3) 1.1421(2) 0.1312(3)
C6B C 1.3955(3) 1.1314(2) 0.0645(3)
C6J C 1.3955(3) 1.1314(2) -0.0645(3)
H6J H 1.4397 1.1225 -0.1040
H6B H 1.4397 1.1225 0.1040
Cu1B Cu 1.35288(8) 1.14956(6) 0.31982(9)
O7B O 1.39225(23) 1.05006(16) 0.3425(2)
C1B C 1.3308(3) 0.9651(2) 0.3406(3)
C2B C 1.3665(4) 0.8978(2) 0.3215(4)
H2B H 1.3955 0.9086 0.2409
H3B H 1.4129 0.9095 0.3835
O9B O 1.29948(21) 0.80970(14) 0.3291(2)
Cu1E Cu 1.14956(6) 0.79668(6) 0.31982(9)
N1E N 1.1421(2) 0.8114(2) 0.1312(3)
C5E C 1.1569(2) 0.8844(2) 0.0680(3)
C5F C 1.1569(2) 0.8844(2) -0.0680(3)
H5E H 1.1659 0.9359 0.1120
C6E C 1.1314(2) 0.7359(2) 0.0645(3)
C6F C 1.1314(2) 0.7359(2) -0.0645(3)
H6E H 1.1225 0.6828 0.1040
O7E O 1.05006(16) 0.65781(16) 0.3425(2)
C1E C 0.9651(2) 0.6343(2) 0.3406(3)
C2E C 0.8978(2) 0.5313(3) 0.3215(4)
H2E H 0.9086 0.5131 0.2409
H3E H 0.9095 0.4966 0.3835
O9E O 0.80970(14) 0.51022(15) 0.3291(2)
C3E C 0.7423(3) 0.4220(3) 0.3263(4)
C4E C 0.7555(2) 0.3481(2) 0.3259(3)
C3D C 0.6797(4) 0.2577(3) 0.3263(4)
C4D C 0.5926(3) 0.2445(2) 0.3259(3)
C3C C 0.5780(3) 0.3203(4) 0.3263(4)
C4C C 0.6519(2) 0.4074(3) 0.3259(3)
H4C H 0.6425 0.4576 0.3254
O9C O 0.48978(15) 0.29948(21) 0.3291(2)
C2C C 0.4687(3) 0.3665(4) 0.3215(4)
C1C C 0.3657(2) 0.3308(3) 0.3406(3)
O7C O 0.34219(16) 0.39225(23) 0.3425(2)
Cu1C Cu 0.20332(6) 0.35288(8) 0.31982(9)
N1C N 0.1886(2) 0.3307(3) 0.1312(3)
C5C C 0.1156(2) 0.2725(3) 0.0680(3)
C5G C 0.1156(2) 0.2725(3) -0.0680(3)
H5C H 0.0641 0.2300 0.1120
C6C C 0.2641(2) 0.3955(3) 0.0645(3)
C6G C 0.2641(2) 0.3955(3) -0.0645(3)
H6C H 0.3172 0.4397 0.1040
O8_2 O 0.06509(15) 0.31579(15) 0.3508(2)
C1_2 C 0.0349(2) 0.3657(2) 0.3406(3)
C2_2 C 0.1022(2) 0.4687(3) 0.3215(4)
O7_2 O -0.05006(16) 0.34219(16) 0.3425(2)
Cu1_2 Cu -0.14956(6) 0.20332(6) 0.31982(9)
N1_2 N -0.1421(2) 0.1886(2) 0.1312(3)
C5_2 C -0.1569(2) 0.1156(2) 0.0680(3)
H5_2 H -0.1659 0.0641 0.1120
C6_2 C -0.1314(2) 0.2641(2) 0.0645(3)
H6_2 H -0.1225 0.3172 0.1040
O8D O -0.25070(21) 0.06509(15) 0.3508(2)
C1D C -0.3308(3) 0.0349(2) 0.3406(3)
C2D C -0.3665(4) 0.1022(2) 0.3215(4)
H2D H -0.3955 0.0914 0.2409
H3D H -0.4129 0.0905 0.3835
O9D O -0.29948(21) 0.19030(14) 0.3291(2)
C3D_2 C -0.3203(4) 0.2577(3) 0.3263(4)
C4D_2 C -0.4074(3) 0.2445(2) 0.3259(3)
C4E_2 C -0.2445(2) 0.3481(2) 0.3259(3)
O10_2 O -0.1365(2) 0.2058(2) 0.5000
Cu1K Cu -0.14956(6) 0.20332(6) 0.68018(9)
N1K N -0.1421(2) 0.1886(2) 0.8688(3)
C5K C -0.1569(2) 0.1156(2) 0.9320(3)
C5_3 C -0.1569(2) 0.1156(2) 1.0680(3)
H5K H -0.1659 0.0641 0.8880
C6K C -0.1314(2) 0.2641(2) 0.9355(3)
C6_3 C -0.1314(2) 0.2641(2) 1.0645(3)
H6K H -0.1225 0.3172 0.8960
O7K O -0.05006(16) 0.34219(16) 0.6575(2)
C1K C 0.0349(2) 0.3657(2) 0.6594(3)
C2K C 0.1022(2) 0.4687(3) 0.6785(4)
H2K H 0.0914 0.4869 0.7591
H3K H 0.0905 0.5034 0.6165
O9K O 0.19030(14) 0.48978(15) 0.6709(2)
C3K_2 C 0.2577(3) 0.5780(3) 0.6737(4)
C4K_2 C 0.2445(2) 0.6519(2) 0.6741(3)
C4I_2 C 0.3481(2) 0.5926(3) 0.6741(3)
Cu1G Cu 0.20332(6) 0.35288(8) 0.68018(9)
N1G N 0.1886(2) 0.3307(3) 0.8688(3)
C5G_2 C 0.1156(2) 0.2725(3) 0.9320(3)
C5C_2 C 0.1156(2) 0.2725(3) 1.0680(3)
H5G H 0.0641 0.2300 0.8880
C6G_2 C 0.2641(2) 0.3955(3) 0.9355(3)
C6C_2 C 0.2641(2) 0.3955(3) 1.0645(3)
H6G H 0.3172 0.4397 0.8960
O7G O 0.34219(16) 0.39225(23) 0.6575(2)
C1G C 0.3657(2) 0.3308(3) 0.6594(3)
C2G C 0.4687(3) 0.3665(4) 0.6785(4)
H2G H 0.4869 0.3955 0.7591
H3G H 0.5034 0.4129 0.6165
O9G O 0.48978(15) 0.29948(21) 0.6709(2)
C3G C 0.5780(3) 0.3203(4) 0.6737(4)
C4G C 0.6519(2) 0.4074(3) 0.6741(3)
C3F C 0.7423(3) 0.4220(3) 0.6737(4)
C4F C 0.7555(2) 0.3481(2) 0.6741(3)
C3H C 0.6797(4) 0.2577(3) 0.6737(4)
C4H C 0.5926(3) 0.2445(2) 0.6741(3)
H4H H 0.5424 0.1849 0.6746
O9H O 0.70052(21) 0.19030(14) 0.6709(2)
C2H C 0.6335(4) 0.1022(2) 0.6785(4)
C1H C 0.6692(3) 0.0349(2) 0.6594(3)
O7H O 0.60775(23) -0.05006(16) 0.6575(2)
Cu1H Cu 0.64712(8) -0.14956(6) 0.68018(9)
N1H N 0.6693(3) -0.1421(2) 0.8688(3)
C5H C 0.7275(3) -0.1569(2) 0.9320(3)
H5H H 0.7700 -0.1659 0.8880
C6H C 0.6045(3) -0.1314(2) 0.9355(3)
H6H H 0.5603 -0.1225 0.8960
O8I O 0.68421(15) -0.25070(21) 0.6492(2)
C1I_2 C 0.6343(2) -0.3308(3) 0.6594(3)
C2I_2 C 0.5313(3) -0.3665(4) 0.6785(4)
O7I_2 O 0.65781(16) -0.39225(23) 0.6575(2)
O9I_2 O 0.51022(15) -0.29948(21) 0.6709(2)
C3I_2 C 0.4220(3) -0.3203(4) 0.6737(4)
O10H O 0.6577(3) -0.1365(2) 0.5000
Cu1D Cu 0.64712(8) -0.14956(6) 0.31982(9)
N1D N 0.6693(3) -0.1421(2) 0.1312(3)
C5D C 0.7275(3) -0.1569(2) 0.0680(3)
H5D H 0.7700 -0.1659 0.1120
C6D C 0.6045(3) -0.1314(2) 0.0645(3)
H6D H 0.5603 -0.1225 0.1040
O7D O 0.60775(23) -0.05006(16) 0.3425(2)
C1D_2 C 0.6692(3) 0.0349(2) 0.3406(3)
C2D_2 C 0.6335(4) 0.1022(2) 0.3215(4)
O8D_2 O 0.74930(21) 0.06509(15) 0.3508(2)
O8A O 0.68421(15) -0.25070(21) 0.3508(2)
C1A_2 C 0.6343(2) -0.3308(3) 0.3406(3)
C2A_2 C 0.5313(3) -0.3665(4) 0.3215(4)
O7A_2 O 0.65781(16) -0.39225(23) 0.3425(2)
O9A_2 O 0.51022(15) -0.29948(21) 0.3291(2)
C3A_2 C 0.4220(3) -0.3203(4) 0.3263(4)
O8H O 0.74930(21) 0.06509(15) 0.6492(2)
Cu1K_2 Cu 0.85044(6) 0.20332(6) 0.68018(9)
N1K_2 N 0.8579(2) 0.1886(2) 0.8688(3)
O7K_2 O 0.94994(16) 0.34219(16) 0.6575(2)
H2H H 0.6045 0.0914 0.7591
H3H H 0.5871 0.0905 0.6165
H4F H 0.8151 0.3575 0.6746
O9F O 0.80970(14) 0.51022(15) 0.6709(2)
C2F C 0.8978(2) 0.5313(3) 0.6785(4)
C1F C 0.9651(2) 0.6343(2) 0.6594(3)
O7F O 1.05006(16) 0.65781(16) 0.6575(2)
Cu1F Cu 1.14956(6) 0.79668(6) 0.68018(9)
N1F N 1.1421(2) 0.8114(2) 0.8688(3)
C5F_2 C 1.1569(2) 0.8844(2) 0.9320(3)
H5F H 1.1659 0.9359 0.8880
C6F_2 C 1.1314(2) 0.7359(2) 0.9355(3)
H6F H 1.1225 0.6828 0.8960
O8J O 1.25070(21) 0.93491(15) 0.6492(2)
C1J_2 C 1.3308(3) 0.9651(2) 0.6594(3)
C2J_2 C 1.3665(4) 0.8978(2) 0.6785(4)
O7J_2 O 1.39225(23) 1.05006(16) 0.6575(2)
O9J_2 O 1.29948(21) 0.80970(14) 0.6709(2)
C3J_2 C 1.3203(4) 0.7423(3) 0.6737(4)
O10F O 1.1365(2) 0.7942(2) 0.5000
O8B O 1.25070(21) 0.93491(15) 0.3508(2)
O8F O 0.93491(15) 0.68421(15) 0.6492(2)
Cu1I_2 Cu 0.79668(6) 0.64712(8) 0.68018(9)
N1I_2 N 0.8114(2) 0.6693(3) 0.8688(3)
O7I_3 O 0.65781(16) 0.60775(23) 0.6575(2)
O10I O 0.7942(2) 0.6577(3) 0.5000
Cu1A_2 Cu 0.79668(6) 0.64712(8) 0.31982(9)
N1A_2 N 0.8114(2) 0.6693(3) 0.1312(3)
O7A_3 O 0.65781(16) 0.60775(23) 0.3425(2)
O8E O 0.93491(15) 0.68421(15) 0.3508(2)
H2F H 0.9086 0.5131 0.7591
H3F H 0.9095 0.4966 0.6165
H4G H 0.6425 0.4576 0.6746
Cu1J_2 Cu 0.35288(8) 0.14956(6) 0.68018(9)
N1J_2 N 0.3307(3) 0.1421(2) 0.8688(3)
O7J_3 O 0.39225(23) 0.05006(16) 0.6575(2)
O8G O 0.31579(15) 0.25070(21) 0.6492(2)
O10J O 0.3423(3) 0.1365(2) 0.5000
Cu1B_2 Cu 0.35288(8) 0.14956(6) 0.31982(9)
N1B_2 N 0.3307(3) 0.1421(2) 0.1312(3)
O7B_2 O 0.39225(23) 0.05006(16) 0.3425(2)
O8C O 0.31579(15) 0.25070(21) 0.3508(2)
O8K O 0.06509(15) 0.31579(15) 0.6492(2)
O10G O 0.2058(2) 0.3423(3) 0.5000
O9_2 O 0.19030(14) 0.48978(15) 0.3291(2)
C3_2 C 0.2577(3) 0.5780(3) 0.3263(4)
O8H_2 O -0.25070(21) 0.06509(15) 0.6492(2)
O9H_2 O -0.29948(21) 0.19030(14) 0.6709(2)
O7D_2 O -0.39225(23) -0.05006(16) 0.3425(2)
H2C H 0.4869 0.3955 0.2409
H3C H 0.5034 0.4129 0.3835
H4D H 0.5424 0.1849 0.3254
O9D_2 O 0.70052(21) 0.19030(14) 0.3291(2)
H4E H 0.8151 0.3575 0.3254
O8C_2 O 1.31579(15) 1.25070(21) 0.3508(2)
O9C_2 O 1.48978(15) 1.29948(21) 0.3291(2)
O10B O 1.3423(3) 1.1365(2) 0.5000
H5J H 1.2300 1.1659 -0.1120
O8G_2 O 1.31579(15) 1.25070(21) -0.3508(2)
O9G_2 O 1.48978(15) 1.29948(21) -0.3291(2)
O10J_2 O 1.3423(3) 1.1365(2) -0.5000
O8J_2 O 1.25070(21) 0.93491(15) -0.3508(2)
H2J H 1.3955 0.9086 -0.2409
H3J H 1.4129 0.9095 -0.3835
Cu1F_2 Cu 1.14956(6) 0.79668(6) -0.31982(9)
H4K H 1.1849 0.6425 -0.3254
O9K_2 O 1.19030(14) 0.48978(15) -0.3291(2)
H4I H 1.3575 0.5424 -0.3254
Cu1H_2 Cu 1.64712(8) 0.85044(6) -0.31982(9)
O8I_2 O 1.68421(15) 0.74930(21) -0.3508(2)
O8F_2 O 1.93491(15) 0.68421(15) -0.3508(2)
O9F_2 O 1.80970(14) 0.51022(15) -0.3291(2)
O10I_2 O 1.7942(2) 0.6577(3) -0.5000
H5A H 1.9359 0.7700 0.1120
O8E_2 O 1.93491(15) 0.68421(15) 0.3508(2)
O9E_2 O 1.80970(14) 0.51022(15) 0.3291(2)
O10A O 1.7942(2) 0.6577(3) 0.5000
O8A_2 O 1.68421(15) 0.74930(21) 0.3508(2)
H2A H 1.5131 0.6045 0.2409
H3A H 1.4966 0.5871 0.3835
Cu1D_2 Cu 1.64712(8) 0.85044(6) 0.31982(9)
H4B H 1.4576 0.8151 0.3254
Cu1C_2 Cu 1.20332(6) 0.35288(8) 0.31982(9)
H2D_2 H 0.6045 0.0914 0.2409
H3D_2 H 0.5871 0.0905 0.3835
N1F_2 N 1.1421(2) 0.8114(2) -0.1312(3)
O7F_2 O 1.05006(16) 0.65781(16) -0.3425(2)
O10F_2 O 1.1365(2) 0.7942(2) -0.5000
N1H_2 N 1.6693(3) 0.8579(2) -0.1312(3)
O7H_2 O 1.60775(23) 0.94994(16) -0.3425(2)
O10H_2 O 1.6577(3) 0.8635(2) -0.5000
N1D_2 N 1.6693(3) 0.8579(2) 0.1312(3)
O7D_3 O 1.60775(23) 0.94994(16) 0.3425(2)
O10D O 1.6577(3) 0.8635(2) 0.5000
H5F_2 H 1.1659 0.9359 -0.1120
H6F_2 H 1.1225 0.6828 -0.1040
O1 O 0.8657(3) 1.0031(2) 0.5000
loop_
_geom_bond_atom_site_label_1
_geom_bond_atom_site_label_2
_geom_bond_site_symmetry_1
_geom_bond_site_symmetry_2
O6 H1 1_555 1_555
C1 C2 1_555 1_555
C2 H2 1_555 1_555
H3 C2 1_555 1_555
C3 C4 1_555 1_555
C4 H4 1_555 1_555
C5 H5 1_555 1_555
C6 H6 1_555 1_555
N1 C5 1_555 1_555
O7 C1 1_555 1_555
O8 C1 1_555 1_555
O9 C2 1_555 1_555
O10 Cu1 1_555 1_555
Cu1 N1 1_555 1_555
C3B C4 1_555 1_555
C4B C3B 1_555 1_555
C3A C4B 1_555 1_555
C4A C3 1_555 1_555
H4A C4A 1_555 1_555
O9A C3A 1_555 1_555
C2A O9A 1_555 1_555
C1A C2A 1_555 1_555
O7A C1A 1_555 1_555
Cu1A O7A 1_555 1_555
N1A Cu1A 1_555 1_555
C5A N1A 1_555 1_555
C5I C5A 1_555 1_555
H5I C5I 1_555 1_555
N1I C5I 1_555 1_555
C6I N1I 1_555 1_555
C6A N1A 1_555 1_555
H6A C6A 1_555 1_555
H6I C6I 1_555 1_555
Cu1I N1I 1_555 1_555
O7I Cu1I 1_555 1_555
C1I O7I 1_555 1_555
C2I C1I 1_555 1_555
H2I C2I 1_555 1_555
H3I C2I 1_555 1_555
O9I C2I 1_555 1_555
C3I O9I 1_555 1_555
C4I C3I 1_555 1_555
C3K C4I 1_555 1_555
C4K C3K 1_555 1_555
C3J C4K 1_555 1_555
C4J C3I 1_555 1_555
H4J C4J 1_555 1_555
O9J C3J 1_555 1_555
C2J O9J 1_555 1_555
C1J C2J 1_555 1_555
O7J C1J 1_555 1_555
Cu1J O7J 1_555 1_555
N1J Cu1J 1_555 1_555
C5J N1J 1_555 1_555
C5B C5J 1_555 1_555
H5B C5B 1_555 1_555
N1B C5B 1_555 1_555
C6B N1B 1_555 1_555
C6J N1J 1_555 1_555
H6J C6J 1_555 1_555
H6B C6B 1_555 1_555
Cu1B N1B 1_555 1_555
O7B Cu1B 1_555 1_555
C1B O7B 1_555 1_555
C2B C1B 1_555 1_555
H2B C2B 1_555 1_555
H3B C2B 1_555 1_555
O9B C3B 1_555 1_555
Cu1E O9B 1_555 1_555
N1E Cu1E 1_555 1_555
C5E N1E 1_555 1_555
C5F C5E 1_555 1_555
H5E C5E 1_555 1_555
C6E N1E 1_555 1_555
C6F C6E 1_555 1_555
H6E C6E 1_555 1_555
O7E Cu1E 1_555 1_555
C1E O7E 1_555 1_555
C2E C1E 1_555 1_555
H2E C2E 1_555 1_555
H3E C2E 1_555 1_555
O9E C2E 1_555 1_555
C3E O9E 1_555 1_555
C4E C3E 1_555 1_555
C3D C4E 1_555 1_555
C4D C3D 1_555 1_555
C3C C4D 1_555 1_555
C4C C3E 1_555 1_555
H4C C4C 1_555 1_555
O9C C3C 1_555 1_555
C2C O9C 1_555 1_555
C1C C2C 1_555 1_555
O7C C1C 1_555 1_555
Cu1C O7C 1_555 1_555
N1C Cu1C 1_555 1_555
C5C N1C 1_555 1_555
C5G C5C 1_555 1_555
H5C C5C 1_555 1_555
C6C N1C 1_555 1_555
C6G C6C 1_555 1_555
H6C C6C 1_555 1_555
O8_2 Cu1C 1_555 1_555
C1_2 O8_2 1_555 1_555
C2_2 C1_2 1_555 1_555
O7_2 C1_2 1_555 1_555
Cu1_2 O7_2 1_555 1_555
N1_2 Cu1_2 1_555 1_555
C5_2 N1_2 1_555 1_555
H5_2 C5_2 1_555 1_555
C6_2 N1_2 1_555 1_555
H6_2 C6_2 1_555 1_555
O8D Cu1_2 1_555 1_555
C1D O8D 1_555 1_555
C2D C1D 1_555 1_555
H2D C2D 1_555 1_555
H3D C2D 1_555 1_555
O9D Cu1_2 1_555 1_555
C3D_2 O9D 1_555 1_555
C4D_2 C3D_2 1_555 1_555
C4E_2 C3D_2 1_555 1_555
O10_2 Cu1_2 1_555 1_555
Cu1K O10_2 1_555 1_555
N1K Cu1K 1_555 1_555
C5K N1K 1_555 1_555
C5_3 C5K 1_555 1_555
H5K C5K 1_555 1_555
C6K N1K 1_555 1_555
C6_3 C6K 1_555 1_555
H6K C6K 1_555 1_555
O7K Cu1K 1_555 1_555
C1K O7K 1_555 1_555
C2K C1K 1_555 1_555
H2K C2K 1_555 1_555
H3K C2K 1_555 1_555
O9K C2K 1_555 1_555
C3K_2 O9K 1_555 1_555
C4K_2 C3K_2 1_555 1_555
C4I_2 C3K_2 1_555 1_555
Cu1G O9K 1_555 1_555
N1G Cu1G 1_555 1_555
C5G_2 N1G 1_555 1_555
C5C_2 C5G_2 1_555 1_555
H5G C5G_2 1_555 1_555
C6G_2 N1G 1_555 1_555
C6C_2 C6G_2 1_555 1_555
H6G C6G_2 1_555 1_555
O7G Cu1G 1_555 1_555
C1G O7G 1_555 1_555
C2G C1G 1_555 1_555
H2G C2G 1_555 1_555
H3G C2G 1_555 1_555
O9G C2G 1_555 1_555
C3G O9G 1_555 1_555
C4G C3G 1_555 1_555
C3F C4G 1_555 1_555
C4F C3F 1_555 1_555
C3H C4F 1_555 1_555
C4H C3G 1_555 1_555
H4H C4H 1_555 1_555
O9H C3H 1_555 1_555
C2H O9H 1_555 1_555
C1H C2H 1_555 1_555
O7H C1H 1_555 1_555
Cu1H O7H 1_555 1_555
N1H Cu1H 1_555 1_555
C5H N1H 1_555 1_555
H5H C5H 1_555 1_555
C6H N1H 1_555 1_555
H6H C6H 1_555 1_555
O8I Cu1H 1_555 1_555
C1I_2 O8I 1_555 1_555
C2I_2 C1I_2 1_555 1_555
O7I_2 C1I_2 1_555 1_555
O9I_2 Cu1H 1_555 1_555
C3I_2 O9I_2 1_555 1_555
O10H Cu1H 1_555 1_555
Cu1D O10H 1_555 1_555
N1D Cu1D 1_555 1_555
C5D N1D 1_555 1_555
H5D C5D 1_555 1_555
C6D N1D 1_555 1_555
H6D C6D 1_555 1_555
O7D Cu1D 1_555 1_555
C1D_2 O7D 1_555 1_555
C2D_2 C1D_2 1_555 1_555
O8D_2 Cu1 1_555 1_555
O8A Cu1D 1_555 1_555
C1A_2 O8A 1_555 1_555
C2A_2 C1A_2 1_555 1_555
O7A_2 C1A_2 1_555 1_555
O9A_2 Cu1D 1_555 1_555
C3A_2 O9A_2 1_555 1_555
O8H C1H 1_555 1_555
Cu1K_2 O10 1_555 1_555
N1K_2 Cu1K_2 1_555 1_555
O7K_2 Cu1K_2 1_555 1_555
H2H C2H 1_555 1_555
H3H C2H 1_555 1_555
H4F C4F 1_555 1_555
O9F C3F 1_555 1_555
C2F O9F 1_555 1_555
C1F C2F 1_555 1_555
O7F C1F 1_555 1_555
Cu1F O7F 1_555 1_555
N1F Cu1F 1_555 1_555
C5F_2 N1F 1_555 1_555
H5F C5F_2 1_555 1_555
C6F_2 N1F 1_555 1_555
H6F C6F_2 1_555 1_555
O8J Cu1F 1_555 1_555
C1J_2 O8J 1_555 1_555
C2J_2 C1J_2 1_555 1_555
O7J_2 C1J_2 1_555 1_555
O9J_2 Cu1F 1_555 1_555
C3J_2 O9J_2 1_555 1_555
O10F Cu1E 1_555 1_555
O8B C1B 1_555 1_555
O8F C1F 1_555 1_555
Cu1I_2 O9F 1_555 1_555
N1I_2 Cu1I_2 1_555 1_555
O7I_3 Cu1I_2 1_555 1_555
O10I Cu1I_2 1_555 1_555
Cu1A_2 O9E 1_555 1_555
N1A_2 Cu1A_2 1_555 1_555
O7A_3 Cu1A_2 1_555 1_555
O8E C1E 1_555 1_555
H2F C2F 1_555 1_555
H3F C2F 1_555 1_555
H4G C4G 1_555 1_555
Cu1J_2 O9G 1_555 1_555
N1J_2 Cu1J_2 1_555 1_555
O7J_3 Cu1J_2 1_555 1_555
O8G C1G 1_555 1_555
O10J Cu1J_2 1_555 1_555
Cu1B_2 O9C 1_555 1_555
N1B_2 Cu1B_2 1_555 1_555
O7B_2 Cu1B_2 1_555 1_555
O8C C1C 1_555 1_555
O8K C1K 1_555 1_555
O10G Cu1C 1_555 1_555
O9_2 Cu1C 1_555 1_555
C3_2 O9_2 1_555 1_555
O8H_2 Cu1K 1_555 1_555
O9H_2 Cu1K 1_555 1_555
O7D_2 C1D 1_555 1_555
H2C C2C 1_555 1_555
H3C C2C 1_555 1_555
H4D C4D 1_555 1_555
O9D_2 Cu1 1_555 1_555
H4E C4E 1_555 1_555
O8C_2 Cu1B 1_555 1_555
O9C_2 Cu1B 1_555 1_555
O10B Cu1B 1_555 1_555
H5J C5J 1_555 1_555
O8G_2 Cu1J 1_555 1_555
O9G_2 Cu1J 1_555 1_555
O10J_2 Cu1J 1_555 1_555
O8J_2 C1J 1_555 1_555
H2J C2J 1_555 1_555
H3J C2J 1_555 1_555
Cu1F_2 O9J 1_555 1_555
H4K C4K 1_555 1_555
O9K_2 C3K 1_555 1_555
H4I C4I 1_555 1_555
Cu1H_2 O9I 1_555 1_555
O8I_2 C1I 1_555 1_555
O8F_2 Cu1I 1_555 1_555
O9F_2 Cu1I 1_555 1_555
O10I_2 Cu1I 1_555 1_555
H5A C5A 1_555 1_555
O8E_2 Cu1A 1_555 1_555
O9E_2 Cu1A 1_555 1_555
O10A Cu1A 1_555 1_555
O8A_2 C1A 1_555 1_555
H2A C2A 1_555 1_555
H3A C2A 1_555 1_555
Cu1D_2 O9A 1_555 1_555
H4B C4B 1_555 1_555
Cu1C_2 O8 1_555 1_555
H2D_2 C2D_2 1_555 1_555
H3D_2 C2D_2 1_555 1_555
N1F_2 C5F 1_555 1_555
O7F_2 Cu1F_2 1_555 1_555
O10F_2 Cu1F_2 1_555 1_555
N1H_2 Cu1H_2 1_555 1_555
O7H_2 Cu1H_2 1_555 1_555
O10H_2 Cu1H_2 1_555 1_555
N1D_2 Cu1D_2 1_555 1_555
O7D_3 Cu1D_2 1_555 1_555
O10D Cu1D_2 1_555 1_555
H5F_2 C5F 1_555 1_555
H6F_2 C6F 1_555 1_555
C3 O9 1_555 1_555
C6 N1 1_555 1_555
O7 Cu1 1_555 1_555
O9 Cu1C_2 1_555 1_555
C3A C4A 1_555 1_555
C6I C6A 1_555 1_555
C3J C4J 1_555 1_555
C6B C6J 1_555 1_555
C2B O9B 1_555 1_555
Cu1E O8B 1_555 1_555
C6F N1F_2 1_555 1_555
C3D O9D_2 1_555 1_555
C3C C4C 1_555 1_555
C2_2 O9_2 1_555 1_555
C2D O9D 1_555 1_555
Cu1G O8K 1_555 1_555
Cu1G O10G 1_555 1_555
C3H C4H 1_555 1_555
O9H Cu1K_2 1_555 1_555
C2I_2 O9I_2 1_555 1_555
C1D_2 O8D_2 1_555 1_555
C2D_2 O9D_2 1_555 1_555
C2A_2 O9A_2 1_555 1_555
O8H Cu1K_2 1_555 1_555
Cu1F O10F 1_555 1_555
C2J_2 O9J_2 1_555 1_555
O8F Cu1I_2 1_555 1_555
O10I Cu1A_2 1_555 1_555
Cu1A_2 O8E 1_555 1_555
Cu1J_2 O8G 1_555 1_555
O10J Cu1B_2 1_555 1_555
Cu1B_2 O8C 1_555 1_555
O8J_2 Cu1F_2 1_555 1_555
Cu1F_2 N1F_2 1_555 1_555
Cu1H_2 O8I_2 1_555 1_555
O8A_2 Cu1D_2 1_555 1_555

#END
