
#######################################################################
#
#                 Cambridge Crystallographic Data Centre
#                                CCDC 
#
#######################################################################
#
# If this CIF has been generated from an entry in the Cambridge 
# Structural Database, then it will include bibliographic, chemical, 
# crystal, experimental, refinement or atomic coordinate data resulting 
# from the CCDC's data processing and validation procedures.
#
#######################################################################

data_EKEMEO
_chemical_formula_moiety         'C93 H54 Cu12 O33'
_symmetry_cell_setting           rhombohedral
_symmetry_space_group_name_H-M   'R -3 m'
_symmetry_Int_Tables_number      166
_space_group_name_Hall           '-R 3 2"'
loop_
_symmetry_equiv_pos_site_id
_symmetry_equiv_pos_as_xyz
1 x,y,z
2 -y,x-y,z
3 -x+y,-x,z
4 y,x,-z
5 -x,-x+y,-z
6 x-y,-y,-z
7 2/3+x,1/3+y,1/3+z
8 2/3-y,1/3+x-y,1/3+z
9 2/3-x+y,1/3-x,1/3+z
10 2/3+y,1/3+x,1/3-z
11 2/3-x,1/3-x+y,1/3-z
12 2/3+x-y,1/3-y,1/3-z
13 1/3+x,2/3+y,2/3+z
14 1/3-y,2/3+x-y,2/3+z
15 1/3-x+y,2/3-x,2/3+z
16 1/3+y,2/3+x,2/3-z
17 1/3-x,2/3-x+y,2/3-z
18 1/3+x-y,2/3-y,2/3-z
19 -x,-y,-z
20 y,-x+y,-z
21 x-y,x,-z
22 -y,-x,z
23 x,x-y,z
24 -x+y,y,z
25 1/3-x,2/3-y,2/3-z
26 1/3+y,2/3-x+y,2/3-z
27 1/3+x-y,2/3+x,2/3-z
28 1/3-y,2/3-x,2/3+z
29 1/3+x,2/3+x-y,2/3+z
30 1/3-x+y,2/3+y,2/3+z
31 2/3-x,1/3-y,1/3-z
32 2/3+y,1/3-x+y,1/3-z
33 2/3+x-y,1/3+x,1/3-z
34 2/3-y,1/3-x,1/3+z
35 2/3+x,1/3+x-y,1/3+z
36 2/3-x+y,1/3+y,1/3+z
_cell_length_a                   18.6567(5)
_cell_length_b                   18.6567(5)
_cell_length_c                   38.6198(13)
_cell_angle_alpha                90
_cell_angle_beta                 90
_cell_angle_gamma                120
_cell_volume                     11641.5
loop_
_atom_site_label
_atom_site_type_symbol
_atom_site_fract_x
_atom_site_fract_y
_atom_site_fract_z
Cu1 Cu 0.523232(19) 0.476768(19) -0.027625(15)
O1 O 0.48150(19) 0.37194(17) -0.00317(6)
O2 O 0.4421(2) 0.41130(18) 0.04405(7)
O3 O 0.4495(10) 0.3165(10) 0.1456(4)
O4 O 0.5591(2) 0.4409(2) -0.07461(13)
C1 C 0.4534(3) 0.3610(2) 0.02718(9)
C2 C 0.4469(4) 0.2234(2) 0.02739(13)
H1 H 0.4667 0.2333 0.0048
C3 C 0.4321(3) 0.2800(2) 0.04422(9)
C4 C 0.4016(3) 0.2648(3) 0.07808(10)
H2 H 0.3907 0.3025 0.0892
C5 C 0.3877(5) 0.1939(3) 0.09512(15)
C6 C 0.3738(10) 0.1869(5) 0.1328(4)
C7 C 0.4052(9) 0.2531(8) 0.1555(5)
C8 C 0.3870(17) 0.2401(11) 0.1906(5)
H3 H 0.4171 0.2838 0.2070
C9 C 0.497(2) 0.3934(16) 0.1691(8)
H4 H 0.5436 0.3934 0.1806
H5 H 0.4614 0.3969 0.1863
C10 C 0.5297(19) 0.4703(19) 0.1400(15)
H6 H 0.5418 0.4582 0.1170
H7 H 0.4996 0.5004 0.1396
O1J O 0.18517(19) 0.22377(25) 0.33650(6)
O2J O 0.2246(2) 0.30253(27) 0.28928(7)
O3J O 0.2172(10) 0.2003(14) 0.1877(4)
C1J C 0.2133(3) 0.2409(4) 0.30615(9)
C2J C 0.2198(4) 0.1098(4) 0.30594(13)
H1J H 0.2000 0.0999 0.3285
C3J C 0.2346(3) 0.1812(4) 0.28911(9)
C4J C 0.2651(3) 0.1965(4) 0.25525(10)
H2J H 0.2760 0.2451 0.2441
C5J C 0.2790(5) 0.1395(6) 0.23821(15)
C6J C 0.2929(10) 0.1464(11) 0.2005(4)
C7J C 0.2615(9) 0.1812(12) 0.1778(5)
C8J C 0.2797(17) 0.1864(20) 0.1427(5)
H3J H 0.2496 0.2000 0.1263
C9J C 0.170(2) 0.2297(26) 0.1642(8)
H4J H 0.1231 0.1831 0.1527
H5J H 0.2053 0.2688 0.1470
C10J C 0.1370(19) 0.2739(27) 0.1933(15)
H6J H 0.1249 0.2497 0.2163
H7J H 0.1671 0.3341 0.1937
O1U O 0.62806(17) 0.51850(19) -0.00317(6)
O2U O 0.58870(18) 0.5579(2) 0.04405(7)
O3U O 0.6835(10) 0.5505(10) 0.1456(4)
C1U C 0.6390(2) 0.5466(3) 0.02718(9)
C2B C 0.7765(4) 0.5531(4) 0.02739(13)
H1B H 0.7666 0.5333 0.0048
C3U C 0.7200(2) 0.5679(3) 0.04422(9)
C4U C 0.7352(3) 0.5984(3) 0.07808(10)
H2U H 0.6975 0.6093 0.0892
C5B C 0.8062(6) 0.6123(5) 0.09512(15)
C6B C 0.8131(11) 0.6262(10) 0.1328(4)
C7U C 0.7469(8) 0.5948(9) 0.1555(5)
C8U C 0.7599(11) 0.6130(17) 0.1906(5)
H3U H 0.7162 0.5829 0.2070
C9U C 0.6066(16) 0.503(2) 0.1691(8)
H4U H 0.6066 0.4564 0.1806
H5U H 0.6031 0.5386 0.1863
O1V O 0.48150(19) 0.10956(25) -0.00317(6)
O2V O 0.4421(2) 0.03080(27) 0.04405(7)
O3V O 0.4495(10) 0.1330(14) 0.1456(4)
C1V C 0.4534(3) 0.0924(4) 0.02718(9)
C3V C 0.4321(3) 0.1521(4) 0.04422(9)
C4V C 0.4016(3) 0.1368(4) 0.07808(10)
H2V H 0.3907 0.0882 0.0892
C7V C 0.4052(9) 0.1521(12) 0.1555(5)
C8V C 0.3870(17) 0.1469(20) 0.1906(5)
H3V H 0.4171 0.1333 0.2070
C9V C 0.497(2) 0.1036(26) 0.1691(8)
H4V H 0.5436 0.1502 0.1806
H5V H 0.4614 0.0645 0.1863
C10A C 0.5297(19) 0.0594(27) 0.1400(15)
H6A H 0.5418 0.0836 0.1170
H7A H 0.4996 -0.0008 0.1396
Cu1A Cu 0.523232(19) 0.046464(27) -0.027625(15)
O1A O 0.62806(17) 0.10956(25) -0.00317(6)
O2A O 0.58870(18) 0.03080(27) 0.04405(7)
O3A O 0.6835(10) 0.1330(14) 0.1456(4)
O4A O 0.5591(2) 0.1182(3) -0.07461(13)
C1A C 0.6390(2) 0.0924(4) 0.02718(9)
C2A C 0.7766(2) 0.2235(4) 0.02739(13)
H1A H 0.7667 0.2334 0.0048
C3A C 0.7200(2) 0.1521(4) 0.04422(9)
C4A C 0.7352(3) 0.1368(4) 0.07808(10)
H2A H 0.6975 0.0882 0.0892
C5A C 0.8061(3) 0.1938(6) 0.09512(15)
C6A C 0.8131(5) 0.1869(11) 0.1328(4)
C7A C 0.7469(8) 0.1521(12) 0.1555(5)
C8A C 0.7599(11) 0.1469(20) 0.1906(5)
H3A H 0.7162 0.1333 0.2070
C9A C 0.6066(16) 0.1036(26) 0.1691(8)
H4A H 0.6066 0.1502 0.1806
H5A H 0.6031 0.0645 0.1863
O1K O 0.77623(25) -0.03861(17) 0.33650(6)
O2K O 0.69747(27) -0.07797(18) 0.28928(7)
O3K O 0.7997(14) 0.0168(10) 0.1877(4)
C1K C 0.7591(4) -0.0277(2) 0.30615(9)
C2K C 0.8902(4) 0.1099(2) 0.30594(13)
H1K H 0.9001 0.1000 0.3285
C3K C 0.8188(4) 0.0533(2) 0.28911(9)
C4K C 0.8035(4) 0.0685(3) 0.25525(10)
H2K H 0.7549 0.0308 0.2441
C5K C 0.8605(6) 0.1394(3) 0.23821(15)
C6K C 0.8536(11) 0.1464(5) 0.2005(4)
C7K C 0.8188(12) 0.0802(8) 0.1778(5)
C8K C 0.8136(20) 0.0932(11) 0.1427(5)
H3K H 0.8000 0.0495 0.1263
C9K C 0.7703(26) -0.0601(16) 0.1642(8)
H4K H 0.8169 -0.0601 0.1527
H5K H 0.7312 -0.0636 0.1470
C10K C 0.7261(27) -0.1370(19) 0.1933(15)
H6K H 0.7503 -0.1249 0.2163
H7K H 0.6659 -0.1671 0.1937
O1W O 0.89044(25) 0.37194(17) -0.00317(6)
O2W O 0.96920(27) 0.41130(18) 0.04405(7)
O3W O 0.8670(14) 0.3165(10) 0.1456(4)
C1W C 0.9076(4) 0.3610(2) 0.02718(9)
C3W C 0.8479(4) 0.2800(2) 0.04422(9)
C4W C 0.8632(4) 0.2648(3) 0.07808(10)
H2W H 0.9118 0.3025 0.0892
C7W C 0.8479(12) 0.2531(8) 0.1555(5)
C8W C 0.8531(20) 0.2401(11) 0.1906(5)
H3W H 0.8667 0.2838 0.2070
C9W C 0.8964(26) 0.3934(16) 0.1691(8)
H4W H 0.8498 0.3934 0.1806
H5W H 0.9355 0.3969 0.1863
C10B C 0.9406(27) 0.4703(19) 0.1400(15)
H6B H 0.9164 0.4582 0.1170
H7B H 1.0008 0.5004 0.1396
O1B O 0.89044(25) 0.51850(19) -0.00317(6)
O2B O 0.96920(27) 0.5579(2) 0.04405(7)
O3B O 0.8670(14) 0.5505(10) 0.1456(4)
C1B C 0.9076(4) 0.5466(3) 0.02718(9)
C3B C 0.8479(4) 0.5679(3) 0.04422(9)
C4B C 0.8632(4) 0.5984(3) 0.07808(10)
H2B H 0.9118 0.6093 0.0892
C7B C 0.8479(12) 0.5948(9) 0.1555(5)
C8B C 0.8531(20) 0.6130(17) 0.1906(5)
H3B H 0.8667 0.5829 0.2070
C9B C 0.8964(26) 0.503(2) 0.1691(8)
H4B H 0.8498 0.4564 0.1806
H5B H 0.9355 0.5386 0.1863
O1I O 1.03861(17) 0.81483(19) 0.33650(6)
O2I O 1.07797(18) 0.7754(2) 0.28928(7)
O3I O 0.9832(10) 0.7828(10) 0.1877(4)
C1I C 1.0277(2) 0.7867(3) 0.30615(9)
C2I C 0.8901(2) 0.7802(4) 0.30594(13)
H1I H 0.9000 0.8000 0.3285
C3I C 0.9467(2) 0.7654(3) 0.28911(9)
C4I C 0.9315(3) 0.7349(3) 0.25525(10)
H2I H 0.9692 0.7240 0.2441
C5I C 0.8606(3) 0.7210(5) 0.23821(15)
C6I C 0.8536(5) 0.7071(10) 0.2005(4)
C7I C 0.9198(8) 0.7385(9) 0.1778(5)
C8I C 0.9068(11) 0.7203(17) 0.1427(5)
H3I H 0.9505 0.7504 0.1263
C9I C 1.0601(16) 0.830(2) 0.1642(8)
H4I H 1.0601 0.8769 0.1527
H5I H 1.0636 0.7947 0.1470
C10I C 1.1370(19) 0.8630(19) 0.1933(15)
H6I H 1.1249 0.8751 0.2163
H7I H 1.1671 0.8329 0.1937
Cu1B Cu 0.953536(27) 0.476768(19) -0.027625(15)
Cu1C Cu 0.476768(19) 0.523232(19) 0.027625(15)
Cu1D Cu 0.476768(19) -0.046464(27) 0.027625(15)
Cu1E Cu 1.046464(27) 0.523232(19) 0.027625(15)
Cu1F Cu 1.189899(19) 0.810101(19) 0.305708(15)
Cu1G Cu 0.189899(19) 0.379797(27) 0.305708(15)
Cu1H Cu 0.620203(27) -0.189899(19) 0.305708(15)
Cu1I Cu 1.143435(19) 0.856565(19) 0.360958(15)
Cu1J Cu 0.143435(19) 0.286869(27) 0.360958(15)
Cu1K Cu 0.713131(27) -0.143435(19) 0.360958(15)
O2C O 0.41130(18) 0.4421(2) -0.04405(7)
O2D O 0.5579(2) -0.03080(27) -0.04405(7)
O2R O 0.5579(2) 0.58870(18) -0.04405(7)
O2S O 0.41130(18) -0.03080(27) -0.04405(7)
C3DA C 0.2346(3) 0.0533(2) 0.28911(9)
C3EA C 0.9467(2) 0.1812(4) 0.28911(9)
C3FA C 0.8188(4) 0.7654(3) 0.28911(9)
C4DA C 0.2651(3) 0.0685(3) 0.25525(10)
C4EA C 0.9315(3) 0.1965(4) 0.25525(10)
C4FA C 0.8035(4) 0.7349(3) 0.25525(10)
C7DA C 0.2615(9) 0.0802(8) 0.1778(5)
C7EA C 0.9198(8) 0.1812(12) 0.1778(5)
C7FA C 0.8188(12) 0.7385(9) 0.1778(5)
C8DA C 0.2797(17) 0.0932(11) 0.1427(5)
C8EA C 0.9068(11) 0.1864(20) 0.1427(5)
C8FA C 0.8136(20) 0.7203(17) 0.1427(5)
C9DA C 1.170(2) 0.9399(16) 0.1642(8)
C9EA C 0.0601(16) 0.2297(26) 0.1642(8)
C9FA C 0.7703(26) -0.170(2) 0.1642(8)
loop_
_geom_bond_atom_site_label_1
_geom_bond_atom_site_label_2
_geom_bond_site_symmetry_1
_geom_bond_site_symmetry_2
Cu1 O1 1_555 1_555
O1 C1 1_555 1_555
O2 C1 1_555 1_555
O3 C7 1_555 1_555
O4 Cu1 1_555 1_555
C1 C3 1_555 1_555
C2 H1 1_555 1_555
C3 C2 1_555 1_555
C4 C3 1_555 1_555
H2 C4 1_555 1_555
C5 C4 1_555 1_555
C6 C5 1_555 1_555
C7 C6 1_555 1_555
C8 C7 1_555 1_555
H3 C8 1_555 1_555
C9 O3 1_555 1_555
H4 C9 1_555 1_555
H5 C9 1_555 1_555
C10 C9 1_555 1_555
H6 C10 1_555 1_555
H7 C10 1_555 1_555
O1J C1J 1_555 1_555
O2J C1J 1_555 1_555
O3J C7J 1_555 1_555
C1J C3J 1_555 1_555
C2J H1J 1_555 1_555
C3J C2J 1_555 1_555
C4J C3J 1_555 1_555
H2J C4J 1_555 1_555
C5J C4J 1_555 1_555
C6J C8 1_555 1_555
C7J C6J 1_555 1_555
C8J C6 1_555 1_555
H3J C8J 1_555 1_555
C9J O3J 1_555 1_555
H4J C9J 1_555 1_555
H5J C9J 1_555 1_555
C10J C9J 1_555 1_555
H6J C10J 1_555 1_555
H7J C10J 1_555 1_555
O1U Cu1 1_555 1_555
O2U C1U 1_555 1_555
O3U C7U 1_555 1_555
C1U O1U 1_555 1_555
C2B H1B 1_555 1_555
C3U C1U 1_555 1_555
C4U C3U 1_555 1_555
H2U C4U 1_555 1_555
C5B C4U 1_555 1_555
C6B C5B 1_555 1_555
C7U C6B 1_555 1_555
C8U C7U 1_555 1_555
H3U C8U 1_555 1_555
C9U C10 1_555 1_555
H4U C9U 1_555 1_555
H5U C9U 1_555 1_555
O1V C1V 1_555 1_555
O2V C1V 1_555 1_555
O3V C7V 1_555 1_555
C1V C3V 1_555 1_555
C3V C2 1_555 1_555
C4V C5 1_555 1_555
H2V C4V 1_555 1_555
C7V C6 1_555 1_555
C8V C6J 1_555 1_555
H3V C8V 1_555 1_555
C9V O3V 1_555 1_555
H4V C9V 1_555 1_555
H5V C9V 1_555 1_555
C10A C9V 1_555 1_555
H6A C10A 1_555 1_555
H7A C10A 1_555 1_555
Cu1A O1V 1_555 1_555
O1A Cu1A 1_555 1_555
O2A C1A 1_555 1_555
O3A C7A 1_555 1_555
O4A Cu1A 1_555 1_555
C1A O1A 1_555 1_555
C2A H1A 1_555 1_555
C3A C1A 1_555 1_555
C4A C3A 1_555 1_555
H2A C4A 1_555 1_555
C5A C4A 1_555 1_555
C6A C5A 1_555 1_555
C7A C6A 1_555 1_555
C8A C7A 1_555 1_555
H3A C8A 1_555 1_555
C9A C10A 1_555 1_555
H4A C9A 1_555 1_555
H5A C9A 1_555 1_555
O1K C1K 1_555 1_555
O2K C1K 1_555 1_555
O3K C7K 1_555 1_555
C1K C3K 1_555 1_555
C2K H1K 1_555 1_555
C3K C2K 1_555 1_555
C4K C3K 1_555 1_555
H2K C4K 1_555 1_555
C5K C4K 1_555 1_555
C6K C8A 1_555 1_555
C7K C6K 1_555 1_555
C8K C6A 1_555 1_555
H3K C8K 1_555 1_555
C9K O3K 1_555 1_555
H4K C9K 1_555 1_555
H5K C9K 1_555 1_555
C10K C9K 1_555 1_555
H6K C10K 1_555 1_555
H7K C10K 1_555 1_555
O1W C1W 1_555 1_555
O2W C1W 1_555 1_555
O3W C7W 1_555 1_555
C1W C3W 1_555 1_555
C3W C2A 1_555 1_555
C4W C5A 1_555 1_555
H2W C4W 1_555 1_555
C7W C6A 1_555 1_555
C8W C6K 1_555 1_555
H3W C8W 1_555 1_555
C9W O3W 1_555 1_555
H4W C9W 1_555 1_555
H5W C9W 1_555 1_555
C10B C9W 1_555 1_555
H6B C10B 1_555 1_555
H7B C10B 1_555 1_555
O1B C1B 1_555 1_555
O2B C1B 1_555 1_555
O3B C7B 1_555 1_555
C1B C3B 1_555 1_555
C3B C2B 1_555 1_555
C4B C5B 1_555 1_555
H2B C4B 1_555 1_555
C7B C6B 1_555 1_555
C8B C7B 1_555 1_555
H3B C8B 1_555 1_555
C9B C10B 1_555 1_555
H4B C9B 1_555 1_555
H5B C9B 1_555 1_555
O1I C1I 1_555 1_555
O2I C1I 1_555 1_555
O3I C7I 1_555 1_555
C1I C3I 1_555 1_555
C2I H1I 1_555 1_555
C3I C2I 1_555 1_555
C4I C3I 1_555 1_555
H2I C4I 1_555 1_555
C5I C4I 1_555 1_555
C6I C8U 1_555 1_555
C7I C6I 1_555 1_555
C8I C6B 1_555 1_555
H3I C8I 1_555 1_555
C9I O3I 1_555 1_555
H4I C9I 1_555 1_555
H5I C9I 1_555 1_555
C10I C9I 1_555 1_555
H6I C10I 1_555 1_555
H7I C10I 1_555 1_555
Cu1B O1W 1_555 1_555
Cu1C O2 1_555 1_555
Cu1D O2V 1_555 1_555
Cu1E O2W 1_555 1_555
Cu1F O2I 1_555 1_555
Cu1G O2J 1_555 1_555
Cu1H O2K 1_555 1_555
Cu1I O1I 1_555 1_555
Cu1J O1J 1_555 1_555
Cu1K O1K 1_555 1_555
O2C Cu1 1_555 1_555
O2D Cu1A 1_555 1_555
O2R Cu1 1_555 1_555
O2S Cu1A 1_555 1_555
C3DA C2J 1_555 1_555
C3EA C2K 1_555 1_555
C3FA C2I 1_555 1_555
C4DA C5J 1_555 1_555
C4EA C5K 1_555 1_555
C4FA C5I 1_555 1_555
C7DA C6J 1_555 1_555
C7EA C6K 1_555 1_555
C7FA C6I 1_555 1_555
C8DA C6 1_555 1_555
C8EA C6A 1_555 1_555
C8FA C6B 1_555 1_555
C9DA C10I 1_555 1_555
C9EA C10J 1_555 1_555
C9FA C10K 1_555 1_555
C5J C6J 1_555 1_555
C7J C8J 1_555 1_555
O2U Cu1C 1_555 1_555
O3U C9U 1_555 1_555
C2B C3U 1_555 1_555
C3V C4V 1_555 1_555
C7V C8V 1_555 1_555
O2A Cu1D 1_555 1_555
O3A C9A 1_555 1_555
C2A C3A 1_555 1_555
C5K C6K 1_555 1_555
C7K C8K 1_555 1_555
C3W C4W 1_555 1_555
C7W C8W 1_555 1_555
O1B Cu1B 1_555 1_555
O2B Cu1E 1_555 1_555
O3B C9B 1_555 1_555
C3B C4B 1_555 1_555
C8B C6I 1_555 1_555
C5I C6I 1_555 1_555
C7I C8I 1_555 1_555
C3DA C4DA 1_555 1_555
C3EA C4EA 1_555 1_555
C3FA C4FA 1_555 1_555
C7DA C8DA 1_555 1_555
C7EA C8EA 1_555 1_555
C7FA C8FA 1_555 1_555

#END
