
#######################################################################
#
#                 Cambridge Crystallographic Data Centre
#                                CCDC 
#
#######################################################################
#
# If this CIF has been generated from an entry in the Cambridge 
# Structural Database, then it will include bibliographic, chemical, 
# crystal, experimental, refinement or atomic coordinate data resulting 
# from the CCDC's data processing and validation procedures.
#
#######################################################################

data_HIXDOH
_chemical_formula_moiety         'C56 H2 Cu4 F52 N18 O1 W5'
_symmetry_cell_setting           tetragonal
_symmetry_space_group_name_H-M   'P 4/m m m'
_symmetry_Int_Tables_number      123
_space_group_name_Hall           '-P 4 2'
loop_
_symmetry_equiv_pos_site_id
_symmetry_equiv_pos_as_xyz
1 x,y,z
2 -y,x,z
3 x,-y,-z
4 -x,-y,z
5 y,x,-z
6 y,-x,z
7 -x,y,-z
8 -y,-x,-z
9 -x,-y,-z
10 y,-x,-z
11 -x,y,z
12 x,y,-z
13 -y,-x,z
14 -y,x,-z
15 x,-y,z
16 y,x,z
_cell_length_a                   6.886(3)
_cell_length_b                   6.886(3)
_cell_length_c                   8.300(2)
_cell_angle_alpha                90
_cell_angle_beta                 90
_cell_angle_gamma                90
_cell_volume                     393.561
loop_
_atom_site_label
_atom_site_type_symbol
_atom_site_fract_x
_atom_site_fract_y
_atom_site_fract_z
O1 O 0.0000 0.0000 0.5000
N2 N 0.0000 0.0000 0.166(3)
C2 C 0.181(3) 0.0000 0.078(3)
C2B C 0.181(3) 0.0000 -0.078(3)
N2B N -0.0000 0.0000 -0.166(3)
C2G C 0.0000 -0.181(3) -0.078(3)
C2E C 0.0000 -0.181(3) 0.078(3)
C2A C -0.0000 0.181(3) 0.078(3)
C2D C -0.0000 0.181(3) -0.078(3)
C2C C -0.181(3) 0.0000 0.078(3)
C2F C -0.181(3) 0.0000 -0.078(3)
W1 W 0.5000 0.5000 0.0000
Cu1 Cu 0.5000 0.5000 0.5000
F1 F 0.5000 0.5000 0.2296(4)
F2 F 0.4181(7) 0.2411(7) 0.0000
N1 N 0.5000 0.2006(6) 0.5000
C1 C 0.4405(6) 0.1000(6) 0.3724(5)
F1B F 0.5000 0.5000 0.7704(4)
W1B W 0.5000 0.5000 1.0000
F1_2 F 0.5000 0.5000 1.2296(4)
Cu1_2 Cu 0.5000 0.5000 1.5000
F2B F 0.4181(7) 0.7589(7) 1.0000
F2C F 0.5819(7) 0.7589(7) 1.0000
F2G F 0.7589(7) 0.5819(7) 1.0000
F2A F 0.7589(7) 0.4181(7) 1.0000
F2_2 F 0.4181(7) 0.2411(7) 1.0000
F2F F 0.5819(7) 0.2411(7) 1.0000
F2E F 0.2411(7) 0.5819(7) 1.0000
F2D F 0.2411(7) 0.4181(7) 1.0000
C1C C 0.5595(6) -0.1000(6) 0.3724(5)
N1C N 0.5000 -0.2006(6) 0.5000
Cu1C Cu 0.5000 -0.5000 0.5000
F1C F 0.5000 -0.5000 0.2296(4)
W1C W 0.5000 -0.5000 0.0000
F1F F 0.5000 -0.5000 0.7704(4)
W1F W 0.5000 -0.5000 1.0000
N1E N 0.2006(6) -0.5000 0.5000
C1E C 0.1000(6) -0.4405(6) 0.3724(5)
C1A C -0.1000(6) -0.5595(6) 0.3724(5)
N1A N -0.2006(6) -0.5000 0.5000
Cu1A Cu -0.5000 -0.5000 0.5000
F1D F -0.5000 -0.5000 0.7704(4)
W1D W -0.5000 -0.5000 1.0000
N1C_2 N -0.5000 -0.2006(6) 0.5000
N1D N -0.7994(6) -0.5000 0.5000
N1F N -0.5000 -0.7994(6) 0.5000
C1G C -0.1000(6) -0.4405(6) 0.6276(5)
C1D C 0.1000(6) -0.5595(6) 0.6276(5)
C1O C 0.1000(6) -0.5595(6) 0.3724(5)
C1L C -0.1000(6) -0.4405(6) 0.3724(5)
C1M C -0.1000(6) -0.5595(6) 0.6276(5)
C1I C 0.1000(6) -0.4405(6) 0.6276(5)
N1F_2 N 0.5000 -0.7994(6) 0.5000
N1G N 0.7994(6) -0.5000 0.5000
C1B C 0.4405(6) -0.1000(6) 0.6276(5)
C1F C 0.5595(6) 0.1000(6) 0.6276(5)
C1J C 0.5595(6) 0.1000(6) 0.3724(5)
C1N C 0.4405(6) -0.1000(6) 0.3724(5)
C1H C 0.5595(6) -0.1000(6) 0.6276(5)
C1K C 0.4405(6) 0.1000(6) 0.6276(5)
N1A_2 N 0.7994(6) 0.5000 0.5000
N1B N 0.5000 0.7994(6) 0.5000
N1D_2 N 0.2006(6) 0.5000 0.5000
F2A_2 F 0.7589(7) 0.4181(7) 0.0000
F2B_2 F 0.4181(7) 0.7589(7) 0.0000
F2C_2 F 0.5819(7) 0.7589(7) 0.0000
F2D_2 F 0.2411(7) 0.4181(7) 0.0000
F2E_2 F 0.2411(7) 0.5819(7) 0.0000
F2F_2 F 0.5819(7) 0.2411(7) 0.0000
F2G_2 F 0.7589(7) 0.5819(7) 0.0000
F1B_2 F 0.5000 0.5000 -0.2296(4)
F1B_3 F 0.5000 0.5000 1.7704(4)
N1_2 N 0.5000 0.2006(6) 1.5000
N1A_3 N 0.7994(6) 0.5000 1.5000
N1B_2 N 0.5000 0.7994(6) 1.5000
N1D_3 N 0.2006(6) 0.5000 1.5000
F1B_4 F 0.5000 -0.5000 -0.2296(4)
F2_3 F 0.4181(7) -0.7589(7) 0.0000
F2A_3 F 0.7589(7) -0.5819(7) 0.0000
F2B_3 F 0.4181(7) -0.2411(7) 0.0000
F2C_3 F 0.5819(7) -0.2411(7) 0.0000
F2D_3 F 0.2411(7) -0.5819(7) 0.0000
F2E_3 F 0.2411(7) -0.4181(7) 0.0000
F2F_3 F 0.5819(7) -0.7589(7) 0.0000
F2G_3 F 0.7589(7) -0.4181(7) 0.0000
F1_3 F 0.5000 -0.5000 1.2296(4)
F2_4 F 0.4181(7) -0.7589(7) 1.0000
F2A_4 F 0.7589(7) -0.5819(7) 1.0000
F2B_4 F 0.4181(7) -0.2411(7) 1.0000
F2C_4 F 0.5819(7) -0.2411(7) 1.0000
F2D_4 F 0.2411(7) -0.5819(7) 1.0000
F2E_4 F 0.2411(7) -0.4181(7) 1.0000
F2F_4 F 0.5819(7) -0.7589(7) 1.0000
F2G_4 F 0.7589(7) -0.4181(7) 1.0000
F1_4 F -0.5000 -0.5000 0.2296(4)
F1_5 F -0.5000 -0.5000 1.2296(4)
F2_5 F -0.5819(7) -0.7589(7) 1.0000
F2A_5 F -0.2411(7) -0.5819(7) 1.0000
F2B_5 F -0.5819(7) -0.2411(7) 1.0000
F2C_5 F -0.4181(7) -0.2411(7) 1.0000
F2D_5 F -0.7589(7) -0.5819(7) 1.0000
F2E_5 F -0.7589(7) -0.4181(7) 1.0000
F2F_5 F -0.4181(7) -0.7589(7) 1.0000
F2G_5 F -0.2411(7) -0.4181(7) 1.0000
C1B_2 C -0.5595(6) -0.1000(6) 0.6276(5)
C1C_2 C -0.4405(6) -0.1000(6) 0.3724(5)
C1H_2 C -0.4405(6) -0.1000(6) 0.6276(5)
C1N_2 C -0.5595(6) -0.1000(6) 0.3724(5)
C1D_2 C -0.9000(6) -0.5595(6) 0.6276(5)
C1E_2 C -0.9000(6) -0.4405(6) 0.3724(5)
C1I_2 C -0.9000(6) -0.4405(6) 0.6276(5)
C1O_2 C -0.9000(6) -0.5595(6) 0.3724(5)
C1_2 C -0.5595(6) -0.9000(6) 0.3724(5)
C1F_2 C -0.4405(6) -0.9000(6) 0.6276(5)
C1J_2 C -0.4405(6) -0.9000(6) 0.3724(5)
C1K_2 C -0.5595(6) -0.9000(6) 0.6276(5)
C1_3 C 0.4405(6) -0.9000(6) 0.3724(5)
C1F_3 C 0.5595(6) -0.9000(6) 0.6276(5)
C1J_3 C 0.5595(6) -0.9000(6) 0.3724(5)
C1K_3 C 0.4405(6) -0.9000(6) 0.6276(5)
C1A_2 C 0.9000(6) -0.5595(6) 0.3724(5)
C1G_2 C 0.9000(6) -0.4405(6) 0.6276(5)
C1L_2 C 0.9000(6) -0.4405(6) 0.3724(5)
C1M_2 C 0.9000(6) -0.5595(6) 0.6276(5)
C1A_3 C 0.9000(6) 0.4405(6) 0.3724(5)
C1G_3 C 0.9000(6) 0.5595(6) 0.6276(5)
C1L_3 C 0.9000(6) 0.5595(6) 0.3724(5)
C1M_3 C 0.9000(6) 0.4405(6) 0.6276(5)
C1B_3 C 0.4405(6) 0.9000(6) 0.6276(5)
C1C_3 C 0.5595(6) 0.9000(6) 0.3724(5)
C1H_3 C 0.5595(6) 0.9000(6) 0.6276(5)
C1N_3 C 0.4405(6) 0.9000(6) 0.3724(5)
C1D_3 C 0.1000(6) 0.4405(6) 0.6276(5)
C1E_3 C 0.1000(6) 0.5595(6) 0.3724(5)
C1I_3 C 0.1000(6) 0.5595(6) 0.6276(5)
C1O_3 C 0.1000(6) 0.4405(6) 0.3724(5)
loop_
_geom_bond_atom_site_label_1
_geom_bond_atom_site_label_2
_geom_bond_site_symmetry_1
_geom_bond_site_symmetry_2
W1 F1 1_555 1_555
Cu1 F1 1_555 1_555
F2 W1 1_555 1_555
N1 Cu1 1_555 1_555
N2 C2 1_555 1_555
C1 N1 1_555 1_555
C2 C2B 1_555 1_555
F1B Cu1 1_555 1_555
W1B F1B 1_555 1_555
F1_2 W1B 1_555 1_555
Cu1_2 F1_2 1_555 1_555
F2B W1B 1_555 1_555
F2C W1B 1_555 1_555
F2G W1B 1_555 1_555
F2A W1B 1_555 1_555
F2_2 W1B 1_555 1_555
F2F W1B 1_555 1_555
F2E W1B 1_555 1_555
F2D W1B 1_555 1_555
C1C C1 1_555 1_555
N1C C1C 1_555 1_555
Cu1C N1C 1_555 1_555
F1C Cu1C 1_555 1_555
W1C F1C 1_555 1_555
F1F Cu1C 1_555 1_555
W1F F1F 1_555 1_555
N1E Cu1C 1_555 1_555
C1E N1E 1_555 1_555
C1A C1E 1_555 1_555
N1A C1A 1_555 1_555
Cu1A N1A 1_555 1_555
F1D Cu1A 1_555 1_555
W1D F1D 1_555 1_555
N1C_2 Cu1A 1_555 1_555
N1D Cu1A 1_555 1_555
N1F Cu1A 1_555 1_555
C1G N1A 1_555 1_555
C1D N1E 1_555 1_555
C1O N1E 1_555 1_555
C1L C1E 1_555 1_555
C1M N1A 1_555 1_555
C1I N1E 1_555 1_555
N1F_2 Cu1C 1_555 1_555
N1G Cu1C 1_555 1_555
C1B N1C 1_555 1_555
C1F N1 1_555 1_555
C1J N1 1_555 1_555
C1N C1 1_555 1_555
C1H N1C 1_555 1_555
C1K N1 1_555 1_555
N1A_2 Cu1 1_555 1_555
N1B Cu1 1_555 1_555
N1D_2 Cu1 1_555 1_555
F2A_2 W1 1_555 1_555
F2B_2 W1 1_555 1_555
F2C_2 W1 1_555 1_555
F2D_2 W1 1_555 1_555
F2E_2 W1 1_555 1_555
F2F_2 W1 1_555 1_555
F2G_2 W1 1_555 1_555
C2B N2B 1_555 1_555
N2B C2G 1_555 1_555
C2G C2E 1_555 1_555
C2E N2 1_555 1_555
C2A N2 1_555 1_555
C2D N2B 1_555 1_555
C2C N2 1_555 1_555
C2F N2B 1_555 1_555
F1B_2 W1 1_555 1_555
F1B_3 Cu1_2 1_555 1_555
N1_2 Cu1_2 1_555 1_555
N1A_3 Cu1_2 1_555 1_555
N1B_2 Cu1_2 1_555 1_555
N1D_3 Cu1_2 1_555 1_555
F1B_4 W1C 1_555 1_555
F2_3 W1C 1_555 1_555
F2A_3 W1C 1_555 1_555
F2B_3 W1C 1_555 1_555
F2C_3 W1C 1_555 1_555
F2D_3 W1C 1_555 1_555
F2E_3 W1C 1_555 1_555
F2F_3 W1C 1_555 1_555
F2G_3 W1C 1_555 1_555
F1_3 W1F 1_555 1_555
F2_4 W1F 1_555 1_555
F2A_4 W1F 1_555 1_555
F2B_4 W1F 1_555 1_555
F2C_4 W1F 1_555 1_555
F2D_4 W1F 1_555 1_555
F2E_4 W1F 1_555 1_555
F2F_4 W1F 1_555 1_555
F2G_4 W1F 1_555 1_555
F1_4 Cu1A 1_555 1_555
F1_5 W1D 1_555 1_555
F2_5 W1D 1_555 1_555
F2A_5 W1D 1_555 1_555
F2B_5 W1D 1_555 1_555
F2C_5 W1D 1_555 1_555
F2D_5 W1D 1_555 1_555
F2E_5 W1D 1_555 1_555
F2F_5 W1D 1_555 1_555
F2G_5 W1D 1_555 1_555
C1B_2 N1C_2 1_555 1_555
C1C_2 N1C_2 1_555 1_555
C1H_2 N1C_2 1_555 1_555
C1N_2 N1C_2 1_555 1_555
C1D_2 N1D 1_555 1_555
C1E_2 N1D 1_555 1_555
C1I_2 N1D 1_555 1_555
C1O_2 N1D 1_555 1_555
C1_2 N1F 1_555 1_555
C1F_2 N1F 1_555 1_555
C1J_2 N1F 1_555 1_555
C1K_2 N1F 1_555 1_555
C1_3 N1F_2 1_555 1_555
C1F_3 N1F_2 1_555 1_555
C1J_3 N1F_2 1_555 1_555
C1K_3 N1F_2 1_555 1_555
C1A_2 N1G 1_555 1_555
C1G_2 N1G 1_555 1_555
C1L_2 N1G 1_555 1_555
C1M_2 N1G 1_555 1_555
C1A_3 N1A_2 1_555 1_555
C1G_3 N1A_2 1_555 1_555
C1L_3 N1A_2 1_555 1_555
C1M_3 N1A_2 1_555 1_555
C1B_3 N1B 1_555 1_555
C1C_3 N1B 1_555 1_555
C1H_3 N1B 1_555 1_555
C1N_3 N1B 1_555 1_555
C1D_3 N1D_2 1_555 1_555
C1E_3 N1D_2 1_555 1_555
C1I_3 N1D_2 1_555 1_555
C1O_3 N1D_2 1_555 1_555
F2 F2F_2 1_555 1_555
C1 C1J 1_555 1_555
F2B F2C 1_555 1_555
F2G F2A 1_555 1_555
F2_2 F2F 1_555 1_555
F2E F2D 1_555 1_555
C1C C1N 1_555 1_555
C1C C1J 1_555 1_555
N1C C1N 1_555 1_555
C1E C1O 1_555 1_555
C1A C1L 1_555 1_555
C1A C1O 1_555 1_555
N1A C1L 1_555 1_555
C1G C1D 1_555 1_555
C1G C1M 1_555 1_555
C1G C1I 1_555 1_555
C1D C1I 1_555 1_555
C1D C1M 1_555 1_555
C1O C1L 1_555 1_555
C1M C1I 1_555 1_555
C1B C1F 1_555 1_555
C1B C1H 1_555 1_555
C1B C1K 1_555 1_555
C1F C1K 1_555 1_555
C1F C1H 1_555 1_555
C1J C1N 1_555 1_555
C1H C1K 1_555 1_555
F2A_2 F2G_2 1_555 1_555
F2B_2 F2C_2 1_555 1_555
F2D_2 F2E_2 1_555 1_555
C2A C2D 1_555 1_555
C2C C2F 1_555 1_555

#END
