
#######################################################################
#
#                 Cambridge Crystallographic Data Centre
#                                CCDC 
#
#######################################################################
#
# If this CIF has been generated from an entry in the Cambridge 
# Structural Database, then it will include bibliographic, chemical, 
# crystal, experimental, refinement or atomic coordinate data resulting 
# from the CCDC's data processing and validation procedures.
#
#######################################################################

data_KONCIB
_chemical_formula_moiety         '(H16 Al6 F6 Mn2 O33 P9 1-)n'
_symmetry_cell_setting           hexagonal
_symmetry_space_group_name_H-M   'P 63/m'
_symmetry_Int_Tables_number      176
_space_group_name_Hall           '-P 6c'
loop_
_symmetry_equiv_pos_site_id
_symmetry_equiv_pos_as_xyz
1 x,y,z
2 -y,x-y,z
3 -x+y,-x,z
4 -x,-y,1/2+z
5 y,-x+y,1/2+z
6 x-y,x,1/2+z
7 -x,-y,-z
8 y,-x+y,-z
9 x-y,x,-z
10 x,y,1/2-z
11 -y,x-y,1/2-z
12 -x+y,-x,1/2-z
_cell_length_a                   13.2544(2)
_cell_length_b                   13.2544(2)
_cell_length_c                   15.6722(4)
_cell_angle_alpha                90
_cell_angle_beta                 90
_cell_angle_gamma                120
_cell_volume                     2384.41
loop_
_atom_site_label
_atom_site_type_symbol
_atom_site_fract_x
_atom_site_fract_y
_atom_site_fract_z
O7 O 0.3426(17) 0.260(2) 0.6282(11)
O8 O 0.0000 0.0000 0.5000
O9 O 0.063(5) 0.142(4) 0.600(5)
Mn1 Mn 0.6667 0.3333 0.65227(7)
Al1 Al 0.59749(9) 0.54365(9) 0.55814(7)
P1 P 0.6691(3) 0.5656(3) 0.7500
P2 P 0.47091(16) 0.28372(13) 0.50486(13)
F1 F 0.43859(17) 0.49316(17) 0.55746(13)
O1 O 0.6055(2) 0.5698(2) 0.67190(17)
O2 O 0.6913(3) 0.4646(3) 0.7500
O3 O 0.4158(2) 0.1646(2) 0.54346(18)
O4 O 0.3782(2) 0.3092(2) 0.47080(17)
O5 O 0.5522(2) 0.3780(2) 0.57102(16)
O6 O 0.7881(10) 0.6774(11) 0.7500
O1I O 0.6055(2) 0.5698(2) 0.82810(17)
Al1A Al 0.45635(9) 0.05384(13) 0.55814(7)
P1A P 0.4344(3) 0.1035(4) 0.7500
P2A P 0.71628(13) 0.18719(21) 0.50486(13)
F1A F 0.50684(17) -0.05457(24) 0.55746(13)
O1A O 0.4302(2) 0.0357(3) 0.67190(17)
O2A O 0.5354(3) 0.2267(4) 0.7500
O3A O 0.8354(2) 0.2512(3) 0.54346(18)
O4A O 0.6908(2) 0.0690(3) 0.47080(17)
O5A O 0.6220(2) 0.1742(3) 0.57102(16)
O6A O 0.3226(11) 0.1107(15) 0.7500
O1J O 0.4302(2) 0.0357(3) 0.82810(17)
Al1B Al 0.94616(13) 0.40251(9) 0.55814(7)
P1B P 0.8965(4) 0.3309(3) 0.7500
P2B P 0.81281(21) 0.52909(16) 0.50486(13)
F1B F 1.05457(24) 0.56141(17) 0.55746(13)
O1B O 0.9643(3) 0.3945(2) 0.67190(17)
O2B O 0.7733(4) 0.3087(3) 0.7500
O3B O 0.7488(3) 0.5842(2) 0.54346(18)
O4B O 0.9310(3) 0.6218(2) 0.47080(17)
O5B O 0.8258(3) 0.4478(2) 0.57102(16)
O6B O 0.8893(15) 0.2119(10) 0.7500
O1K O 0.9643(3) 0.3945(2) 0.82810(17)
Mn1F Mn 0.3333 0.6667 0.34773(7)
Al1F Al 0.40251(9) 0.45635(9) 0.44186(7)
P2F P 0.52909(16) 0.71628(13) 0.49514(13)
F1F F 0.56141(17) 0.50684(17) 0.44254(13)
O3F O 0.5842(2) 0.8354(2) 0.45654(18)
O4F O 0.6218(2) 0.6908(2) 0.52920(17)
O5F O 0.4478(2) 0.6220(2) 0.42898(16)
Al1G Al 0.54365(9) -0.05384(13) 0.44186(7)
P2G P 0.28372(13) -0.18719(21) 0.49514(13)
F1G F 0.49316(17) 0.05457(24) 0.44254(13)
O3G O 0.1646(2) -0.2512(3) 0.45654(18)
O4G O 0.3092(2) -0.0690(3) 0.52920(17)
O5G O 0.3780(2) -0.1742(3) 0.42898(16)
Al1H Al 0.05384(13) 0.59749(9) 0.44186(7)
P2H P 0.18719(21) 0.47091(16) 0.49514(13)
F1H F -0.05457(24) 0.43859(17) 0.44254(13)
O3H O 0.2512(3) 0.4158(2) 0.45654(18)
O4H O 0.0690(3) 0.3782(2) 0.52920(17)
O5H O 0.1742(3) 0.5522(2) 0.42898(16)
Mn1F_2 Mn 0.3333 -0.3333 0.34773(7)
Mn1I Mn 0.6667 0.3333 0.84773(7)
Al1B_2 Al -0.05384(13) 0.40251(9) 0.55814(7)
Al1G_2 Al 0.54365(9) 0.94616(13) 0.44186(7)
Al1H_2 Al 0.05384(13) -0.40251(9) 0.44186(7)
Al1H_3 Al 1.05384(13) 0.59749(9) 0.44186(7)
Al1I Al 0.59749(9) 0.54365(9) 0.94186(7)
Al1J Al 0.45635(9) 0.05384(13) 0.94186(7)
Al1K Al 0.94616(13) 0.40251(9) 0.94186(7)
F1B_2 F 0.05457(24) 0.56141(17) 0.55746(13)
F1H_2 F 0.94543(24) 0.43859(17) 0.44254(13)
O1F O 0.3945(2) 0.4302(2) 0.32810(17)
O1G O 0.5698(2) -0.0357(3) 0.32810(17)
O1H O 0.0357(3) 0.6055(2) 0.32810(17)
O2C O 0.3087(3) 0.5354(3) 0.2500
O2D O 0.4646(3) 0.7733(4) 0.2500
O2E O 0.2267(4) 0.6913(3) 0.2500
O3F_2 O 0.5842(2) -0.1646(2) 0.45654(18)
O3G_2 O 0.1646(2) 0.7488(3) 0.45654(18)
O4B_2 O -0.0690(3) 0.6218(2) 0.47080(17)
O4H_2 O 1.0690(3) 0.3782(2) 0.52920(17)
O5G_2 O 0.3780(2) 0.8258(3) 0.42898(16)
loop_
_geom_bond_atom_site_label_1
_geom_bond_atom_site_label_2
_geom_bond_site_symmetry_1
_geom_bond_site_symmetry_2
Mn1 O2 1_555 1_555
Al1 F1 1_555 1_555
P1 O1 1_555 1_555
P2 O3 1_555 1_555
F1 Al1F 1_555 1_555
O1 Al1 1_555 1_555
O2 P1 1_555 1_555
O3 Al1A 1_555 1_555
O4 P2 1_555 1_555
O5 Mn1 1_555 1_555
O6 P1 1_555 1_555
O1I P1 1_555 1_555
Al1A F1A 1_555 1_555
P1A O1A 1_555 1_555
P2A O3A 1_555 1_555
F1A Al1G 1_555 1_555
O1A Al1A 1_555 1_555
O2A Mn1 1_555 1_555
O3A Al1B 1_555 1_555
O4A P2A 1_555 1_555
O5A Mn1 1_555 1_555
O6A P1A 1_555 1_555
O1J P1A 1_555 1_555
Al1B F1B 1_555 1_555
P1B O1B 1_555 1_555
P2B O3B 1_555 1_555
F1B Al1H_3 1_555 1_555
O1B Al1B 1_555 1_555
O2B Mn1 1_555 1_555
O3B Al1 1_555 1_555
O4B P2B 1_555 1_555
O5B Mn1 1_555 1_555
O6B P1B 1_555 1_555
O1K P1B 1_555 1_555
Mn1F O5F 1_555 1_555
Al1F O4 1_555 1_555
P2F O3F 1_555 1_555
F1F Al1 1_555 1_555
O3F Al1G_2 1_555 1_555
O4F Al1 1_555 1_555
O5F Al1F 1_555 1_555
Al1G O4A 1_555 1_555
P2G O3G 1_555 1_555
F1G Al1A 1_555 1_555
O3G Al1H_2 1_555 1_555
O4G Al1A 1_555 1_555
O5G Al1G 1_555 1_555
Al1H F1H 1_555 1_555
P2H O3H 1_555 1_555
F1H Al1B_2 1_555 1_555
O3H Al1F 1_555 1_555
O4H P2H 1_555 1_555
O5H Mn1F 1_555 1_555
Mn1F_2 O5G 1_555 1_555
Mn1I O2 1_555 1_555
Al1B_2 O4H 1_555 1_555
Al1G_2 O5G_2 1_555 1_555
Al1H_3 O4B 1_555 1_555
Al1I O1I 1_555 1_555
Al1J O1J 1_555 1_555
Al1K O1K 1_555 1_555
F1B_2 Al1H 1_555 1_555
F1H_2 Al1B 1_555 1_555
O1F Al1F 1_555 1_555
O1G Al1G 1_555 1_555
O1H Al1H 1_555 1_555
O2C Mn1F 1_555 1_555
O2D Mn1F 1_555 1_555
O2E Mn1F 1_555 1_555
O3F_2 Al1G 1_555 1_555
O3G_2 Al1H 1_555 1_555
O4B_2 Al1H 1_555 1_555
O4H_2 Al1B 1_555 1_555
O5G_2 Mn1F 1_555 1_555
Al1 O5 1_555 1_555
P2 O5 1_555 1_555
Al1A O5A 1_555 1_555
P1A O2A 1_555 1_555
P2A O5A 1_555 1_555
O2A Mn1I 1_555 1_555
Al1B O5B 1_555 1_555
P1B O2B 1_555 1_555
P2B O5B 1_555 1_555
O2B Mn1I 1_555 1_555
Al1F F1F 1_555 1_555
P2F O4F 1_555 1_555
P2F O5F 1_555 1_555
Al1G F1G 1_555 1_555
P2G O4G 1_555 1_555
P2G O5G 1_555 1_555
Al1H O5H 1_555 1_555
P2H O5H 1_555 1_555
Al1B_2 F1B_2 1_555 1_555
Al1H_3 F1H_2 1_555 1_555

#END
