
#######################################################################
#
#                 Cambridge Crystallographic Data Centre
#                                CCDC 
#
#######################################################################
#
# If this CIF has been generated from an entry in the Cambridge 
# Structural Database, then it will include bibliographic, chemical, 
# crystal, experimental, refinement or atomic coordinate data resulting 
# from the CCDC's data processing and validation procedures.
#
#######################################################################

data_DIKJUD
_chemical_formula_moiety         '(C28 H34 Cu1 F12 N8 O7 P2)n'
_symmetry_cell_setting           orthorhombic
_symmetry_space_group_name_H-M   'P c a 21'
_symmetry_Int_Tables_number      29
_space_group_name_Hall           'P 2c -2ac'
loop_
_symmetry_equiv_pos_site_id
_symmetry_equiv_pos_as_xyz
1 x,y,z
2 -x,-y,1/2+z
3 1/2+x,-y,z
4 1/2-x,y,1/2+z
_cell_length_a                   21.296(4)
_cell_length_b                   9.3820(19)
_cell_length_c                   18.803(4)
_cell_angle_alpha                90
_cell_angle_beta                 90
_cell_angle_gamma                90
_cell_volume                     3756.82
loop_
_atom_site_label
_atom_site_type_symbol
_atom_site_fract_x
_atom_site_fract_y
_atom_site_fract_z
_atom_site_U_iso_or_equiv
_atom_site_thermal_displace_type
Cu1 Cu 0.88791(5) 0.01883(11) 0.88200(7) 0.0350 Uani
O2 O 0.8528(5) 0.0496(12) 1.0191(5) 0.0800 Uani
O3 O 0.9241(4) -0.0045(9) 0.7645(4) 0.0520 Uani
O4 O 0.9032(3) -0.5040(9) 1.0213(4) 0.0527 Uani
N1 N 0.9510(4) -0.1330(10) 0.9152(4) 0.0403 Uani
C1 C 0.9767(5) -0.3213(11) 0.9946(6) 0.0393 Uani
C2 C 0.9338(5) -0.2340(12) 0.9611(6) 0.0430 Uani
H1 H 0.8913 -0.2462 0.9709 0.0510 Uiso
C3 C 1.0133(5) -0.1184(11) 0.9011(5) 0.0427 Uani
H2 H 1.0259 -0.0488 0.8689 0.0510 Uiso
C4 C 1.0571(5) -0.2001(12) 0.9317(6) 0.0477 Uani
H3 H 1.0990 -0.1876 0.9196 0.0570 Uiso
C5 C 1.0409(5) -0.3021(12) 0.9807(7) 0.0473 Uani
H4 H 1.0713 -0.3564 1.0037 0.0570 Uiso
C6 C 0.9528(5) -0.4417(12) 1.0374(6) 0.0447 Uani
O5 O 0.9247(4) -0.5499(11) 1.3006(5) 0.0730 Uani
N2 N 1.0506(4) -0.1786(9) 1.4003(4) 0.0427 Uani
C7 C 0.9906(5) -0.3747(12) 1.3546(5) 0.0437 Uani
C8 C 1.0372(4) -0.2785(10) 1.3496(5) 0.0340 Uani
H5 H 1.0621 -0.2802 1.3090 0.0410 Uiso
C9 C 1.0134(5) -0.1835(13) 1.4577(6) 0.0477 Uani
H6 H 1.0210 -0.1173 1.4935 0.0570 Uiso
C10 C 0.9658(5) -0.2768(13) 1.4681(6) 0.0500 Uani
H7 H 0.9432 -0.2777 1.5104 0.0600 Uiso
C11 C 0.9522(5) -0.3677(11) 1.4153(5) 0.0407 Uani
H8 H 0.9172 -0.4265 1.4188 0.0490 Uiso
C12 C 0.9756(5) -0.4881(13) 1.3003(6) 0.0510 Uani
N3 N 0.9836(4) -0.4793(10) 1.0970(4) 0.0440 Uani
H9 H 1.0167 -0.4329 1.1090 0.0530 Uiso
N4 N 1.0188(4) -0.5188(11) 1.2527(5) 0.0507 Uani
H10 H 1.0534 -0.4714 1.2527 0.0610 Uiso
C13 C 0.9620(5) -0.5973(13) 1.1421(6) 0.0497 Uani
H11 H 0.9548 -0.6807 1.1128 0.0590 Uiso
H12 H 0.9225 -0.5714 1.1643 0.0590 Uiso
C14 C 1.0097(5) -0.6329(14) 1.1992(7) 0.0540 Uani
H13 H 0.9963 -0.7190 1.2234 0.0650 Uiso
H14 H 1.0497 -0.6528 1.1766 0.0650 Uiso
O6 O 0.6716(3) 0.4621(10) 0.9695(5) 0.0583 Uani
N5 N 0.8205(3) 0.1671(9) 0.8595(5) 0.0397 Uani
C15 C 0.7489(5) 0.3389(10) 0.9027(5) 0.0363 Uani
C16 C 0.8032(4) 0.2622(11) 0.9091(5) 0.0340 Uani
H15 H 0.8288 0.2763 0.9486 0.0410 Uiso
C17 C 0.7822(5) 0.1473(12) 0.8021(6) 0.0480 Uani
H16 H 0.7932 0.0790 0.7685 0.0580 Uiso
C18 C 0.7283(5) 0.2237(12) 0.7921(6) 0.0477 Uani
H17 H 0.7046 0.2133 0.7509 0.0570 Uiso
C19 C 0.7102(5) 0.3169(12) 0.8452(6) 0.0433 Uani
H18 H 0.6720 0.3645 0.8420 0.0520 Uiso
C20 C 0.7282(4) 0.4336(13) 0.9613(5) 0.0393 Uani
O7 O 0.6675(4) 0.5222(11) 1.2288(5) 0.0727 Uani
N6 N 0.6794(4) 0.8672(7) 1.3691(5) 0.0403 Uani
C21 C 0.7260(4) 0.6840(11) 1.2990(5) 0.0367 Uani
C22 C 0.6757(5) 0.7673(11) 1.3177(6) 0.0403 Uani
H19 H 0.6378 0.7544 1.2941 0.0480 Uiso
C23 C 0.7339(5) 0.8770(10) 1.4068(5) 0.0390 Uani
H20 H 0.7369 0.9418 1.4440 0.0470 Uiso
C24 C 0.7845(5) 0.7924(12) 1.3904(7) 0.0497 Uani
H21 H 0.8212 0.8015 1.4168 0.0600 Uiso
C25 C 0.7823(5) 0.6952(12) 1.3364(5) 0.0413 Uani
H22 H 0.8169 0.6390 1.3251 0.0500 Uiso
C26 C 0.7172(5) 0.5851(14) 1.2372(6) 0.0497 Uani
N7 N 0.7730(4) 0.4939(11) 1.0033(4) 0.0463 Uani
H23 H 0.8117 0.4828 0.9913 0.0560 Uiso
N8 N 0.7678(5) 0.5663(11) 1.1959(5) 0.0533 Uani
H24 H 0.8018 0.6089 1.2085 0.0640 Uiso
C27 C 0.7598(6) 0.5752(15) 1.0666(6) 0.0573 Uani
H25 H 0.7872 0.6577 1.0688 0.0690 Uiso
H26 H 0.7167 0.6085 1.0657 0.0690 Uiso
C28 C 0.7704(6) 0.4807(14) 1.1319(7) 0.0600 Uani
H27 H 0.8110 0.4344 1.1285 0.0720 Uiso
H28 H 0.7384 0.4072 1.1338 0.0720 Uiso
Cu1A Cu 1.11209(5) -0.01883(11) 1.38200(7) 0.0350 Uani
Cu1C Cu 0.61209(5) 1.01883(11) 1.38200(7) 0.0350 Uani
N2A N 0.9494(4) 0.1786(9) 0.9003(4) 0.0427 Uani
N6C N 0.8206(4) -0.1328(7) 0.8691(5) 0.0403 Uani
O1 O 0.9034(5) 0.3387(13) 0.6534(7) 0.0987 Uani
P1 P 0.82634(19) 0.9838(5) 0.58991(17) 0.0692 Uani
F1 F 0.7582(5) 0.9243(13) 0.5756(6) 0.1300 Uani
F2 F 0.8931(6) 1.0413(19) 0.5959(7) 0.1703 Uani
F3 F 0.8499(7) 0.8546(16) 0.5543(12) 0.2070 Uani
F4 F 0.8243(7) 0.9184(17) 0.6627(6) 0.1570 Uani
F5 F 0.8259(11) 1.057(3) 0.5212(7) 0.2817 Uani
F6 F 0.7977(9) 1.1157(15) 0.6222(14) 0.2553 Uani
P2 P 0.59213(19) 0.8930(5) 0.6978(2) 0.0690 Uani
F7 F 0.6616(7) 0.940(2) 0.7015(10) 0.2410 Uani
F8 F 0.5244(5) 0.8357(17) 0.6979(9) 0.1777 Uani
F9 F 0.5968(10) 0.856(2) 0.6215(5) 0.2653 Uani
F10 F 0.5741(14) 1.0421(13) 0.6856(17) 0.3620 Uani
F11 F 0.6101(7) 0.7423(14) 0.7115(10) 0.1887 Uani
F12 F 0.5850(12) 0.920(3) 0.7764(8) 0.2787 Uani
loop_
_atom_site_aniso_label
_atom_site_aniso_U_11
_atom_site_aniso_U_22
_atom_site_aniso_U_33
_atom_site_aniso_U_23
_atom_site_aniso_U_13
_atom_site_aniso_U_12
Cu1 0.029 0.0367 0.0394 -0.0023 -0.0028 0.0001
O2 0.08 0.104 0.056 0.008 -0.009 -0.008
O3 0.052 0.065 0.039 -0.006 0.003 -0.012
O4 0.034 0.06 0.064 0.011 -0.012 -0.012
N1 0.028 0.053 0.04 -0.01 0.007 0.002
C1 0.032 0.044 0.042 0.001 -0.008 0.006
C2 0.031 0.041 0.057 0.008 -0.001 -0.003
C3 0.041 0.04 0.047 -0.017 0.016 -0.008
C4 0.031 0.046 0.066 0.005 0.001 0.014
C5 0.024 0.053 0.065 -0.004 -0.008 0.005
C6 0.038 0.036 0.06 0.004 -0.016 0.012
O5 0.055 0.089 0.075 -0.016 0.026 -0.045
N2 0.041 0.053 0.034 0.008 0.011 -0.018
C7 0.041 0.051 0.039 0.013 -0.007 0
C8 0.036 0.036 0.03 -0.002 0.004 -0.004
C9 0.054 0.044 0.045 0.006 0.006 -0.003
C10 0.042 0.056 0.052 0.008 0.016 0.002
C11 0.03 0.046 0.046 0.033 0.013 0
C12 0.044 0.059 0.05 0.024 -0.004 -0.024
N3 0.039 0.051 0.042 0.008 -0.011 -0.01
N4 0.038 0.065 0.049 0.005 0.002 -0.017
C13 0.037 0.062 0.05 0.008 -0.004 -0.006
C14 0.048 0.055 0.059 -0.002 -0.012 0.001
O6 0.03 0.073 0.072 -0.017 -0.006 0.018
N5 0.023 0.038 0.058 -0.002 -0.012 -0.007
C15 0.034 0.039 0.036 0.001 -0.006 0.004
C16 0.035 0.037 0.03 -0.006 0.002 0.013
C17 0.052 0.049 0.043 -0.011 -0.004 0.011
C18 0.048 0.044 0.051 -0.009 -0.02 0.013
C19 0.041 0.046 0.043 0.012 -0.008 0.006
C20 0.024 0.056 0.038 -0.008 0.002 0.001
O7 0.055 0.092 0.071 -0.035 -0.009 -0.009
N6 0.057 0.015 0.049 0.003 0.004 -0.006
C21 0.033 0.049 0.028 -0.014 -0.004 0.008
C22 0.038 0.04 0.043 -0.006 -0.006 -0.009
C23 0.063 0.032 0.022 -0.003 -0.006 0.003
C24 0.036 0.061 0.052 -0.003 -0.01 0.002
C25 0.044 0.051 0.029 -0.003 0 0.013
C26 0.05 0.064 0.035 -0.02 -0.002 0.005
N7 0.027 0.075 0.037 -0.018 -0.006 0.013
N8 0.054 0.059 0.047 -0.011 0.009 0.003
C27 0.051 0.079 0.042 -0.011 -0.008 0.013
C28 0.066 0.064 0.05 -0.025 -0.002 0.016
Cu1A 0.029 0.0367 0.0394 0.0023 0.0028 0.0001
Cu1C 0.029 0.0367 0.0394 -0.0023 0.0028 -0.0001
N2A 0.041 0.053 0.034 -0.008 -0.011 -0.018
N6C 0.057 0.015 0.049 0.003 -0.004 0.006
O1 0.073 0.104 0.119 -0.038 0.031 -0.028
P1 0.076 0.092 0.0396 -0.0088 -0.0042 -0.014
F1 0.102 0.162 0.126 0.018 -0.025 -0.028
F2 0.132 0.272 0.107 0.022 -0.015 -0.113
F3 0.134 0.147 0.34 -0.12 0.09 -0.012
F4 0.178 0.212 0.081 0 -0.029 -0.024
F5 0.36 0.39 0.095 0.081 -0.086 -0.23
F6 0.27 0.086 0.41 -0.044 0.07 0.01
P2 0.067 0.076 0.064 0 0.0186 -0.0042
F7 0.142 0.37 0.211 -0.17 0.053 -0.146
F8 0.084 0.209 0.24 0.01 0.033 -0.017
F9 0.45 0.31 0.036 0.016 -0.008 -0.24
F10 0.47 0.056 0.56 0.041 -0.11 0.028
F11 0.155 0.131 0.28 0.002 -0.011 0.046
F12 0.4 0.3 0.136 -0.083 0.109 -0.13
loop_
_geom_bond_atom_site_label_1
_geom_bond_atom_site_label_2
_geom_bond_site_symmetry_1
_geom_bond_site_symmetry_2
Cu1 O2 1_555 1_555
O3 Cu1 1_555 1_555
O4 C6 1_555 1_555
N1 Cu1 1_555 1_555
C1 C2 1_555 1_555
C2 N1 1_555 1_555
H1 C2 1_555 1_555
C3 N1 1_555 1_555
H2 C3 1_555 1_555
C4 C3 1_555 1_555
H3 C4 1_555 1_555
C5 C1 1_555 1_555
H4 C5 1_555 1_555
C6 C1 1_555 1_555
O5 C12 1_555 1_555
N2 C8 1_555 1_555
C7 C8 1_555 1_555
C8 H5 1_555 1_555
C9 N2 1_555 1_555
H6 C9 1_555 1_555
C10 C9 1_555 1_555
H7 C10 1_555 1_555
C11 C7 1_555 1_555
H8 C11 1_555 1_555
C12 C7 1_555 1_555
N3 C6 1_555 1_555
H9 N3 1_555 1_555
N4 C12 1_555 1_555
H10 N4 1_555 1_555
C13 N3 1_555 1_555
H11 C13 1_555 1_555
H12 C13 1_555 1_555
C14 N4 1_555 1_555
H13 C14 1_555 1_555
H14 C14 1_555 1_555
O6 C20 1_555 1_555
N5 Cu1 1_555 1_555
C15 C16 1_555 1_555
C16 N5 1_555 1_555
H15 C16 1_555 1_555
C17 N5 1_555 1_555
H16 C17 1_555 1_555
C18 C17 1_555 1_555
H17 C18 1_555 1_555
C19 C15 1_555 1_555
H18 C19 1_555 1_555
C20 C15 1_555 1_555
O7 C26 1_555 1_555
N6 C22 1_555 1_555
C21 C22 1_555 1_555
C22 H19 1_555 1_555
C23 N6 1_555 1_555
H20 C23 1_555 1_555
C24 C23 1_555 1_555
H21 C24 1_555 1_555
C25 C21 1_555 1_555
H22 C25 1_555 1_555
C26 C21 1_555 1_555
N7 C20 1_555 1_555
H23 N7 1_555 1_555
N8 C26 1_555 1_555
H24 N8 1_555 1_555
C27 N7 1_555 1_555
H25 C27 1_555 1_555
H26 C27 1_555 1_555
C28 N8 1_555 1_555
H27 C28 1_555 1_555
H28 C28 1_555 1_555
P1 F1 1_555 1_555
F2 P1 1_555 1_555
F3 P1 1_555 1_555
F4 P1 1_555 1_555
F5 P1 1_555 1_555
F6 P1 1_555 1_555
P2 F7 1_555 1_555
F8 P2 1_555 1_555
F9 P2 1_555 1_555
F10 P2 1_555 1_555
F11 P2 1_555 1_555
F12 P2 1_555 1_555
Cu1A N2 1_555 1_555
Cu1C N6 1_555 1_555
N2A Cu1 1_555 1_555
N6C Cu1 1_555 1_555
C4 C5 1_555 1_555
C10 C11 1_555 1_555
C13 C14 1_555 1_555
C18 C19 1_555 1_555
C24 C25 1_555 1_555
C27 C28 1_555 1_555

#END
