
#######################################################################
#
#                 Cambridge Crystallographic Data Centre
#                                CCDC 
#
#######################################################################
#
# If this CIF has been generated from an entry in the Cambridge 
# Structural Database, then it will include bibliographic, chemical, 
# crystal, experimental, refinement or atomic coordinate data resulting 
# from the CCDC's data processing and validation procedures.
#
#######################################################################

data_OPENIH
_chemical_formula_moiety         '(C22 H15 Cu2 N5 O10)n'
_symmetry_cell_setting           triclinic
_symmetry_space_group_name_H-M   'P -1'
_symmetry_Int_Tables_number      2
_space_group_name_Hall           '-P 1'
loop_
_symmetry_equiv_pos_site_id
_symmetry_equiv_pos_as_xyz
1 x,y,z
2 -x,-y,-z
_cell_length_a                   8.4970(17)
_cell_length_b                   9.4900(19)
_cell_length_c                   14.135(3)
_cell_angle_alpha                80.55(3)
_cell_angle_beta                 88.56(3)
_cell_angle_gamma                73.51(3)
_cell_volume                     1077.81
loop_
_atom_site_label
_atom_site_type_symbol
_atom_site_fract_x
_atom_site_fract_y
_atom_site_fract_z
Cu1 Cu 0.44348(7) 0.35585(6) 0.85691(4)
Cu2 Cu 1.48461(6) 0.20156(6) 0.09778(4)
C1 C 0.6975(5) 0.0899(5) 0.9472(4)
C2 C 0.8456(5) -0.0294(5) 0.9275(3)
C3 C 0.9591(5) 0.0044(5) 0.8613(3)
H1 H 0.9364 0.0998 0.8260
C4 C 1.1050(5) -0.1004(5) 0.8468(3)
C5 C 1.1322(5) -0.2458(5) 0.8953(3)
C6 C 1.0164(5) -0.2794(5) 0.9589(3)
H2 H 1.0340 -0.3771 0.9898
C7 C 0.8757(5) -0.1732(5) 0.9781(3)
C8 C 0.7652(5) -0.2236(5) 1.0529(3)
C9 C 1.2246(6) -0.0505(5) 0.7765(3)
C10 C 1.2781(5) -0.3750(5) 0.8845(3)
C11 C 0.4946(6) 0.5542(5) 0.6830(3)
H3 H 0.4201 0.6278 0.7106
C12 C 0.5675(6) 0.5964(5) 0.5994(3)
H4 H 0.5428 0.6961 0.5715
C13 C 0.6778(6) 0.4887(6) 0.5574(3)
C14 C 0.7059(7) 0.3418(6) 0.6004(4)
H5 H 0.7767 0.2661 0.5728
C15 C 0.6289(6) 0.3081(6) 0.6838(4)
H6 H 0.6493 0.2086 0.7118
C16 C 0.7658(6) 0.5258(6) 0.4703(4)
C17 C 0.9282(6) 0.4995(6) 0.3569(4)
C18 C 1.0554(6) 0.4337(6) 0.2918(3)
C19 C 1.1268(6) 0.2806(6) 0.3105(4)
H7 H 1.0912 0.2218 0.3608
C20 C 1.2511(6) 0.2179(6) 0.2529(4)
H8 H 1.3010 0.1159 0.2669
C21 C 1.2332(6) 0.4434(6) 0.1593(3)
H9 H 1.2682 0.4993 0.1070
C22 C 1.1107(6) 0.5144(6) 0.2149(4)
H10 H 1.0651 0.6170 0.2006
N1 N 0.5256(5) 0.4121(4) 0.7270(3)
N2 N 0.8789(5) 0.4211(5) 0.4320(3)
N3 N 0.7428(5) 0.6629(5) 0.4243(3)
N4 N 0.8481(5) 0.6444(5) 0.3510(3)
N5 N 1.3035(4) 0.2964(5) 0.1781(3)
O1 O 0.6517(4) 0.2041(4) 0.8848(2)
O2 O 0.6335(4) 0.0653(4) 1.0266(2)
O3 O 0.6531(4) -0.2762(4) 1.0229(2)
O4 O 0.7887(4) -0.2295(4) 1.1378(2)
O5 O 1.3781(4) -0.1146(4) 0.7873(3)
O6 O 1.1646(4) 0.0516(4) 0.7101(3)
O7 O 1.2513(4) -0.4713(3) 0.8405(2)
O8 O 1.4130(4) -0.3885(4) 0.9226(3)
H15 H 0.8592 0.7188 0.3042
Cu1A Cu 0.55652(7) -0.35585(6) 1.14309(4)
Cu1_2 Cu 1.44348(7) -0.64415(6) 0.85691(4)
Cu2_2 Cu 0.48461(6) 0.20156(6) 1.09778(4)
Cu2A Cu 0.51539(6) -0.20156(6) 0.90222(4)
Cu2A_2 Cu 1.51539(6) -0.20156(6) 0.90222(4)
O2_2 O 1.6335(4) 0.0653(4) 0.0266(2)
O3A O 0.3469(4) 0.2762(4) 0.9771(2)
O3A_2 O 1.3469(4) 0.2762(4) -0.0229(2)
O5A O 1.6219(4) 0.1146(4) 0.2127(3)
O7_2 O 0.2513(4) 0.5287(3) 0.8405(2)
O8A O 1.5870(4) 0.3885(4) 0.0774(3)
O9 O 0.5089(13) 0.0384(11) 0.5998(8)
H11 H 0.4286 0.1238 0.5937
H12 H 0.4645 -0.0032 0.6519
O10 O 0.1740(16) 0.9828(13) 0.5121(8)
H13 H 0.1697 1.0025 0.5688
H14 H 0.2614 0.9768 0.4805
loop_
_geom_bond_atom_site_label_1
_geom_bond_atom_site_label_2
_geom_bond_site_symmetry_1
_geom_bond_site_symmetry_2
Cu1 N1 1_555 1_555
Cu2 N5 1_555 1_555
C1 C2 1_555 1_555
C2 C3 1_555 1_555
C3 H1 1_555 1_555
C4 C3 1_555 1_555
C5 C4 1_555 1_555
C6 C5 1_555 1_555
H2 C6 1_555 1_555
C7 C2 1_555 1_555
C8 C7 1_555 1_555
C9 C4 1_555 1_555
C10 C5 1_555 1_555
C11 H3 1_555 1_555
C12 C11 1_555 1_555
H4 C12 1_555 1_555
C13 C12 1_555 1_555
C14 C13 1_555 1_555
H5 C14 1_555 1_555
C15 C14 1_555 1_555
H6 C15 1_555 1_555
C16 C13 1_555 1_555
C17 C18 1_555 1_555
C18 C19 1_555 1_555
C19 H7 1_555 1_555
C20 C19 1_555 1_555
H8 C20 1_555 1_555
C21 H9 1_555 1_555
C22 C18 1_555 1_555
H10 C22 1_555 1_555
N1 C11 1_555 1_555
N2 C16 1_555 1_555
N3 C16 1_555 1_555
N4 C17 1_555 1_555
N5 C20 1_555 1_555
O1 Cu1 1_555 1_555
O2 C1 1_555 1_555
O3 C8 1_555 1_555
O4 C8 1_555 1_555
O5 C9 1_555 1_555
O6 C9 1_555 1_555
O7 C10 1_555 1_555
O8 C10 1_555 1_555
O9 H11 1_555 1_555
O10 H13 1_555 1_555
H12 O9 1_555 1_555
H14 O10 1_555 1_555
H15 N4 1_555 1_555
Cu1A O3 1_555 1_555
Cu1_2 O7 1_555 1_555
Cu2_2 O2 1_555 1_555
Cu2A O3 1_555 1_555
Cu2A_2 O5 1_555 1_555
O2_2 Cu2 1_555 1_555
O3A Cu1 1_555 1_555
O3A_2 Cu2 1_555 1_555
O5A Cu2 1_555 1_555
O7_2 Cu1 1_555 1_555
O8A Cu2 1_555 1_555
C1 O1 1_555 1_555
C6 C7 1_555 1_555
C15 N1 1_555 1_555
C17 N2 1_555 1_555
C21 C22 1_555 1_555
C21 N5 1_555 1_555
N3 N4 1_555 1_555
O8 Cu2A_2 1_555 1_555
Cu2_2 O3A 1_555 1_555

#END
