
#######################################################################
#
#                 Cambridge Crystallographic Data Centre
#                                CCDC 
#
#######################################################################
#
# If this CIF has been generated from an entry in the Cambridge 
# Structural Database, then it will include bibliographic, chemical, 
# crystal, experimental, refinement or atomic coordinate data resulting 
# from the CCDC's data processing and validation procedures.
#
#######################################################################

data_NESSUB
_chemical_formula_moiety         '(C56 H46 Cd2 N8 O8)n'
_symmetry_cell_setting           triclinic
_symmetry_space_group_name_H-M   'P -1'
_symmetry_Int_Tables_number      2
_space_group_name_Hall           '-P 1'
loop_
_symmetry_equiv_pos_site_id
_symmetry_equiv_pos_as_xyz
1 x,y,z
2 -x,-y,-z
_cell_length_a                   9.640(5)
_cell_length_b                   12.486(5)
_cell_length_c                   13.574(5)
_cell_angle_alpha                72.784(5)
_cell_angle_beta                 77.913(5)
_cell_angle_gamma                89.230(5)
_cell_volume                     1523.97
loop_
_atom_site_label
_atom_site_type_symbol
_atom_site_fract_x
_atom_site_fract_y
_atom_site_fract_z
C1 C 0.7806(6) 0.4709(5) 0.7586(3)
C2 C 0.9227(7) 0.5075(6) 0.7338(5)
C3 C 1.0088(5) 0.5061(8) 0.6382(5)
C4 C 0.9527(5) 0.4682(7) 0.5675(4)
C5 C 0.8105(5) 0.4317(6) 0.5923(4)
C6 C 0.7245(4) 0.4330(5) 0.6878(4)
N1 N 0.8218(8) 1.0290(6) 0.8978(7)
C7 C 0.7000(8) 1.0398(6) 0.8781(7)
C8 C 0.6384(13) 1.1514(7) 0.8494(14)
C9 C 0.6126(5) 0.7346(3) 0.9117(5)
C10 C 0.6838(5) 0.8319(4) 0.9088(6)
C11 C 0.6234(5) 0.9350(4) 0.8788(5)
C12 C 0.4917(6) 0.9408(3) 0.8515(7)
C13 C 0.4204(5) 0.8435(4) 0.8544(7)
N2 N 0.4809(5) 0.7404(3) 0.8845(5)
O1 O 0.1651(18) 0.6782(18) 0.8448(16)
O2 O 0.3350(6) 0.6565(5) 0.7107(4)
C14 C 0.2236(9) 0.6970(7) 0.7428(7)
C15 C 0.1455(5) 0.7740(4) 0.6656(3)
C16 C 0.2050(5) 0.8055(5) 0.5580(3)
C17 C 0.1417(6) 0.8852(5) 0.4879(3)
C18 C 0.0189(6) 0.9333(6) 0.5255(4)
C19 C -0.0407(6) 0.9017(6) 0.6331(5)
C20 C 0.0226(6) 0.8221(5) 0.7031(3)
C21 C 1.1133(4) 1.3755(3) 0.9577(3)
H1 H 1.0759 1.4091 1.0096
C22 C 1.0359(4) 1.2875(3) 0.9500(3)
H2 H 0.9478 1.2636 0.9950
C23 C 1.0899(5) 1.2359(4) 0.8755(4)
C24 C 1.2198(6) 1.2764(6) 0.8103(5)
H3 H 1.2601 1.2435 0.7585
C25 C 1.2904(5) 1.3666(5) 0.8220(4)
H4 H 1.3773 1.3937 0.7766
C26 C 1.0100(6) 1.1401(6) 0.8657(6)
C27 C 1.0954(10) 1.0447(8) 0.8272(9)
C28 C 0.6874(4) 0.4842(4) 0.8533(4)
N3 N 1.2392(3) 1.4151(3) 0.8945(3)
N4 N 0.8886(4) 1.1162(3) 0.9171(4)
O3 O 0.5568(3) 0.4913(4) 0.8573(3)
O4 O 0.7467(3) 0.4763(3) 0.9277(2)
Cd1 Cd 0.35642(2) 0.574648(19) 0.90113(2)
C1A C 0.2194(6) 0.5291(5) 1.2414(3)
C2A C 0.0773(7) 0.4925(6) 1.2662(5)
C3A C -0.0088(5) 0.4939(8) 1.3618(5)
C4A C 0.0473(5) 0.5318(7) 1.4325(4)
C5A C 0.1895(5) 0.5683(6) 1.4077(4)
C6A C 0.2755(4) 0.5670(5) 1.3122(4)
N1_2 N -0.1782(8) 0.0290(6) 0.8978(7)
C7_2 C -0.3000(8) 0.0398(6) 0.8781(7)
C8_2 C -0.3616(13) 0.1514(7) 0.8494(14)
C9_2 C -0.3874(5) -0.2654(3) 0.9117(5)
C10_2 C -0.3162(5) -0.1681(4) 0.9088(6)
C11_2 C -0.3766(5) -0.0650(4) 0.8788(5)
C12_2 C -0.5083(6) -0.0592(3) 0.8515(7)
C13_2 C -0.5796(5) -0.1565(4) 0.8544(7)
N2_2 N -0.5191(5) -0.2596(3) 0.8845(5)
N2A N 0.5191(5) 0.2596(3) 1.1155(5)
O1A O -0.1651(18) 1.3218(18) 0.1552(16)
O1A_2 O 0.8349(18) 0.3218(18) 1.1552(16)
O2A O -0.3350(6) 1.3435(5) 0.2893(4)
O2A_2 O 0.6650(6) 0.3435(5) 1.2893(4)
C14A C -0.2236(9) 1.3030(7) 0.2572(7)
C15A C -0.1455(5) 1.2260(4) 0.3344(3)
C16A C -0.2050(5) 1.1945(5) 0.4420(3)
C17A C -0.1417(6) 1.1148(5) 0.5121(3)
C18A C -0.0189(6) 1.0667(6) 0.4745(4)
C19A C 0.0407(6) 1.0983(6) 0.3669(5)
C20A C -0.0226(6) 1.1779(5) 0.2969(3)
C21_2 C 0.1133(4) 0.3755(3) 0.9577(3)
H1_2 H 0.0759 0.4091 1.0096
C22_2 C 0.0359(4) 0.2875(3) 0.9500(3)
H2_2 H -0.0522 0.2636 0.9950
C23_2 C 0.0899(5) 0.2359(4) 0.8755(4)
C24_2 C 0.2198(6) 0.2764(6) 0.8103(5)
H3_2 H 0.2601 0.2435 0.7585
C25_2 C 0.2904(5) 0.3666(5) 0.8220(4)
H4_2 H 0.3773 0.3937 0.7766
C26_2 C 0.0100(6) 0.1401(6) 0.8657(6)
C27_2 C 0.0954(10) 0.0447(8) 0.8272(9)
C28A C 0.3126(4) 0.5158(4) 1.1467(4)
N3_2 N 0.2392(3) 0.4151(3) 0.8945(3)
N3A N 0.7608(3) 0.5849(3) 1.1055(3)
N4_2 N -0.1114(4) 0.1162(3) 0.9171(4)
O3A O 0.4432(3) 0.5087(4) 1.1427(3)
O4A O 0.2533(3) 0.5237(3) 1.0723(2)
Cd1A Cd 0.64358(2) 0.425352(19) 1.09887(2)
Cd1_2 Cd 1.35642(2) 1.574648(19) 0.90113(2)
Cd1A_2 Cd -0.35642(2) 1.425352(19) 0.09887(2)
Cd1_3 Cd -0.64358(2) -0.425352(19) 0.90113(2)
loop_
_geom_bond_atom_site_label_1
_geom_bond_atom_site_label_2
_geom_bond_site_symmetry_1
_geom_bond_site_symmetry_2
C1 C2 1_555 1_555
C2 C3 1_555 1_555
C3 C4 1_555 1_555
C4 C5 1_555 1_555
C5 C6 1_555 1_555
C6 C1 1_555 1_555
N1 C7 1_555 1_555
C7 C8 1_555 1_555
C9 C10 1_555 1_555
C10 C11 1_555 1_555
C11 C7 1_555 1_555
C12 C11 1_555 1_555
C13 C12 1_555 1_555
N2 C9 1_555 1_555
O1 C14 1_555 1_555
O2 C14 1_555 1_555
C14 C15 1_555 1_555
C15 C16 1_555 1_555
C16 C17 1_555 1_555
C17 C18 1_555 1_555
C18 C19 1_555 1_555
C19 C20 1_555 1_555
C20 C15 1_555 1_555
C21 H1 1_555 1_555
C22 C21 1_555 1_555
H2 C22 1_555 1_555
C23 C22 1_555 1_555
C24 C23 1_555 1_555
H3 C24 1_555 1_555
C25 C24 1_555 1_555
H4 C25 1_555 1_555
C26 C23 1_555 1_555
C27 C26 1_555 1_555
C28 C1 1_555 1_555
N3 C21 1_555 1_555
N4 N1 1_555 1_555
O3 C28 1_555 1_555
O4 C28 1_555 1_555
Cd1 N2 1_555 1_555
C1A C2A 1_555 1_555
C2A C3A 1_555 1_555
C3A C4A 1_555 1_555
C4A C5A 1_555 1_555
C5A C6A 1_555 1_555
C6A C1A 1_555 1_555
N1_2 C7_2 1_555 1_555
C7_2 C8_2 1_555 1_555
C9_2 C10_2 1_555 1_555
C10_2 C11_2 1_555 1_555
C11_2 C7_2 1_555 1_555
C12_2 C11_2 1_555 1_555
C13_2 C12_2 1_555 1_555
N2_2 C9_2 1_555 1_555
N2A Cd1A 1_555 1_555
O1A C14A 1_555 1_555
O1A_2 Cd1A 1_555 1_555
O2A C14A 1_555 1_555
O2A_2 Cd1A 1_555 1_555
C14A C15A 1_555 1_555
C15A C16A 1_555 1_555
C16A C17A 1_555 1_555
C17A C18A 1_555 1_555
C18A C18 1_555 1_555
C19A C18A 1_555 1_555
C20A C15A 1_555 1_555
C21_2 H1_2 1_555 1_555
C22_2 C21_2 1_555 1_555
H2_2 C22_2 1_555 1_555
C23_2 C22_2 1_555 1_555
C24_2 C23_2 1_555 1_555
H3_2 C24_2 1_555 1_555
C25_2 C24_2 1_555 1_555
H4_2 C25_2 1_555 1_555
C26_2 C23_2 1_555 1_555
C27_2 C26_2 1_555 1_555
C28A C1A 1_555 1_555
N3_2 Cd1 1_555 1_555
N3A Cd1A 1_555 1_555
N4_2 N1_2 1_555 1_555
O3A C28A 1_555 1_555
O4A Cd1 1_555 1_555
Cd1A O4 1_555 1_555
Cd1_2 N3 1_555 1_555
Cd1A_2 O1A 1_555 1_555
Cd1_3 N2_2 1_555 1_555
C13 N2 1_555 1_555
O1 Cd1 1_555 1_555
O2 Cd1 1_555 1_555
C25 N3 1_555 1_555
C26 N4 1_555 1_555
O3 Cd1 1_555 1_555
C13_2 N2_2 1_555 1_555
O2A Cd1A_2 1_555 1_555
C19A C20A 1_555 1_555
C21_2 N3_2 1_555 1_555
C25_2 N3_2 1_555 1_555
C26_2 N4_2 1_555 1_555
C28A O4A 1_555 1_555
O3A Cd1A 1_555 1_555

#END
