
#######################################################################
#
#                 Cambridge Crystallographic Data Centre
#                                CCDC 
#
#######################################################################
#
# If this CIF has been generated from an entry in the Cambridge 
# Structural Database, then it will include bibliographic, chemical, 
# crystal, experimental, refinement or atomic coordinate data resulting 
# from the CCDC's data processing and validation procedures.
#
#######################################################################

data_NESSOV
_chemical_formula_moiety         '(C42 H30 Co2 N4 O8)n'
_symmetry_cell_setting           monoclinic
_symmetry_space_group_name_H-M   'C 2/c'
_symmetry_Int_Tables_number      15
_space_group_name_Hall           '-C 2yc'
loop_
_symmetry_equiv_pos_site_id
_symmetry_equiv_pos_as_xyz
1 x,y,z
2 -x,y,1/2-z
3 1/2+x,1/2+y,z
4 1/2-x,1/2+y,1/2-z
5 -x,-y,-z
6 x,-y,1/2+z
7 1/2-x,1/2-y,-z
8 1/2+x,1/2-y,1/2+z
_cell_length_a                   19.420(5)
_cell_length_b                   23.558(5)
_cell_length_c                   14.760(5)
_cell_angle_alpha                90
_cell_angle_beta                 127.075(5)
_cell_angle_gamma                90
_cell_volume                     5387.58
loop_
_atom_site_label
_atom_site_type_symbol
_atom_site_fract_x
_atom_site_fract_y
_atom_site_fract_z
C1 C 0.41284(12) 0.64209(8) 0.75693(17)
C2 C 0.36674(13) 0.59171(8) 0.75877(17)
C3 C 0.29159(14) 0.57121(9) 0.65959(18)
H1 H 0.2685 0.5899 0.5914
C4 C 0.25112(14) 0.52417(10) 0.66052(18)
H2 H 0.2005 0.5119 0.5928
C5 C 0.28337(13) 0.49387(8) 0.76004(17)
C6 C 0.35859(15) 0.51454(10) 0.85807(19)
H3 H 0.3828 0.4954 0.9262
C7 C 0.39853(15) 0.56258(10) 0.85741(19)
H4 H 0.4482 0.5757 0.9253
C8 C 0.23872(13) 0.44296(9) 0.76011(17)
C9 C 0.17816(16) 0.41361(10) 0.66016(19)
H5 H 0.1680 0.4250 0.5927
C10 C 0.13312(15) 0.36819(10) 0.65884(18)
H6 H 0.0928 0.3497 0.5907
C11 C 0.14690(12) 0.34960(8) 0.75716(16)
C12 C 0.21108(16) 0.37599(10) 0.85738(18)
H7 H 0.2249 0.3624 0.9257
C13 C 0.25480(16) 0.42176(10) 0.85823(18)
H8 H 0.2966 0.4391 0.9271
C14 C 0.09599(12) 0.30191(8) 0.75597(16)
C15 C -0.10061(14) 0.20883(10) 0.39943(17)
H9 H -0.0516 0.1861 0.4384
C16 C -0.14296(15) 0.21725(11) 0.28480(18)
H10 H -0.1219 0.2009 0.2486
C17 C -0.21646(13) 0.24999(10) 0.22424(15)
C18 C -0.24353(14) 0.27295(9) 0.28325(17)
H11 H -0.2933 0.2950 0.2455
C19 C -0.19724(13) 0.26353(9) 0.39846(16)
H12 H -0.2165 0.2802 0.4365
C20 C -0.26542(14) 0.25924(11) 0.09936(17)
C21 C -0.35448(16) 0.28269(14) 0.0355(2)
H13 H -0.3811 0.2822 -0.0444
H14 H -0.3519 0.3210 0.0594
H15 H -0.3878 0.2600 0.0502
N1 N -0.12636(10) 0.23171(6) 0.45760(12)
N2 N -0.22661(13) 0.24498(11) 0.05817(14)
O1 O 0.47794(9) 0.65930(6) 0.85145(12)
O2 O 0.38393(9) 0.66374(6) 0.66206(12)
O3 O 0.03754(9) 0.27987(5) 0.66194(11)
O4 O 0.11522(9) 0.28611(5) 0.85045(11)
Co1 Co -0.054804(15) 0.223092(9) 0.631209(19)
C1C C 0.08716(12) 0.14209(8) 0.74307(17)
C2C C 0.13326(13) 0.09171(8) 0.74123(17)
C3C C 0.20841(14) 0.07121(9) 0.84041(18)
H1C H 0.2315 0.0899 0.9086
C4C C 0.24888(14) 0.02417(10) 0.83948(18)
H2C H 0.2995 0.0119 0.9072
C5C C 0.21663(13) -0.00613(8) 0.73996(17)
C6C C 0.14141(15) 0.01454(10) 0.64193(19)
H3C H 0.1172 -0.0046 0.5738
C7C C 0.10147(15) 0.06258(10) 0.64259(19)
H4C H 0.0518 0.0757 0.5747
C8C C 0.26128(13) -0.05704(9) 0.73989(17)
C9C C 0.32184(16) -0.08639(10) 0.83984(19)
H5C H 0.3320 -0.0750 0.9073
C10C C 0.36688(15) -0.13181(10) 0.84116(18)
H6C H 0.4072 -0.1503 0.9093
C11C C 0.35310(12) -0.15040(8) 0.74284(16)
C12C C 0.28892(16) -0.12401(10) 0.64262(18)
H7C H 0.2751 -0.1376 0.5743
C13C C 0.24520(16) -0.07824(10) 0.64177(18)
H8C H 0.2034 -0.0609 0.5729
C14C C 0.40401(12) -0.19809(8) 0.74403(16)
C15F C -0.39939(14) 0.29117(10) -0.39943(17)
H9F H -0.4484 0.3139 -0.4384
C16F C -0.35704(15) 0.28275(11) -0.28480(18)
H10F H -0.3781 0.2991 -0.2486
C17F C -0.28354(13) 0.25001(10) -0.22424(15)
C18F C -0.25647(14) 0.22705(9) -0.28325(17)
H11F H -0.2067 0.2050 -0.2455
C19F C -0.30276(13) 0.23647(9) -0.39846(16)
H12F H -0.2835 0.2198 -0.4365
C20F C -0.23458(14) 0.24076(11) -0.09936(17)
C21F C -0.14552(16) 0.21731(14) -0.0355(2)
H13F H -0.1189 0.2178 0.0444
H14F H -0.1481 0.1790 -0.0594
H15F H -0.1122 0.2400 -0.0502
N1F N -0.37364(10) 0.26829(6) -0.45760(12)
N1C N 0.62636(10) -0.26829(6) 1.04240(12)
N2F N -0.27339(13) 0.25502(11) -0.05817(14)
O1C O 0.02206(9) 0.15930(6) 0.64855(12)
O1_2 O 0.47794(9) -0.34070(6) 0.85145(12)
O2C O 0.11607(9) 0.16374(6) 0.83794(12)
O2B O -0.11607(9) 0.16374(6) 0.66206(12)
O2A O 0.61607(9) -0.33626(6) 0.83794(12)
O3C O 0.46246(9) -0.22013(5) 0.83806(11)
O4C O 0.38478(9) -0.21389(5) 0.64955(11)
O4A O -0.11522(9) 0.28611(5) 0.64955(11)
O4B O 0.61522(9) -0.21389(5) 0.85045(11)
Co1C Co 0.554804(15) -0.276908(9) 0.868791(19)
Co1C_2 Co 0.554804(15) 0.723092(9) 0.868791(19)
Co1B Co 0.445196(15) 0.723092(9) 0.631209(19)
Co1A Co 0.054804(15) 0.223092(9) 0.868791(19)
Co1F Co -0.445196(15) 0.276908(9) -0.631209(19)
Co1B_2 Co 0.445196(15) -0.276908(9) 0.631209(19)
loop_
_geom_bond_atom_site_label_1
_geom_bond_atom_site_label_2
_geom_bond_site_symmetry_1
_geom_bond_site_symmetry_2
C1 C2 1_555 1_555
C2 C3 1_555 1_555
C3 H1 1_555 1_555
C4 C3 1_555 1_555
H2 C4 1_555 1_555
C5 C4 1_555 1_555
C6 C5 1_555 1_555
H3 C6 1_555 1_555
C7 C2 1_555 1_555
H4 C7 1_555 1_555
C8 C5 1_555 1_555
C9 C8 1_555 1_555
H5 C9 1_555 1_555
C10 C9 1_555 1_555
H6 C10 1_555 1_555
C11 C10 1_555 1_555
C12 C11 1_555 1_555
H7 C12 1_555 1_555
C13 C8 1_555 1_555
H8 C13 1_555 1_555
C14 C11 1_555 1_555
C15 H9 1_555 1_555
C16 C15 1_555 1_555
H10 C16 1_555 1_555
C17 C16 1_555 1_555
C18 C17 1_555 1_555
H11 C18 1_555 1_555
C19 C18 1_555 1_555
H12 C19 1_555 1_555
C20 C17 1_555 1_555
C21 C20 1_555 1_555
H13 C21 1_555 1_555
H14 C21 1_555 1_555
H15 C21 1_555 1_555
N1 C15 1_555 1_555
N2 C20 1_555 1_555
O1 C1 1_555 1_555
O2 C1 1_555 1_555
O3 C14 1_555 1_555
O4 C14 1_555 1_555
Co1 N1 1_555 1_555
C1C C2C 1_555 1_555
C2C C3C 1_555 1_555
C3C H1C 1_555 1_555
C4C C3C 1_555 1_555
H2C C4C 1_555 1_555
C5C C4C 1_555 1_555
C6C C5C 1_555 1_555
H3C C6C 1_555 1_555
C7C C2C 1_555 1_555
H4C C7C 1_555 1_555
C8C C5C 1_555 1_555
C9C C8C 1_555 1_555
H5C C9C 1_555 1_555
C10C C9C 1_555 1_555
H6C C10C 1_555 1_555
C11C C10C 1_555 1_555
C12C C11C 1_555 1_555
H7C C12C 1_555 1_555
C13C C8C 1_555 1_555
H8C C13C 1_555 1_555
C14C C11C 1_555 1_555
C15F H9F 1_555 1_555
C16F C15F 1_555 1_555
H10F C16F 1_555 1_555
C17F C16F 1_555 1_555
C18F C17F 1_555 1_555
H11F C18F 1_555 1_555
C19F C18F 1_555 1_555
H12F C19F 1_555 1_555
C20F C17F 1_555 1_555
C21F C20F 1_555 1_555
H13F C21F 1_555 1_555
H14F C21F 1_555 1_555
H15F C21F 1_555 1_555
N1F C15F 1_555 1_555
N1C Co1C 1_555 1_555
N2F N2 1_555 1_555
O1C Co1 1_555 1_555
O1_2 Co1C 1_555 1_555
O2C C1C 1_555 1_555
O2B Co1 1_555 1_555
O2A Co1C 1_555 1_555
O3C C14C 1_555 1_555
O4C C14C 1_555 1_555
O4A Co1 1_555 1_555
O4B Co1C 1_555 1_555
Co1C O3C 1_555 1_555
Co1C_2 O1 1_555 1_555
Co1B O2 1_555 1_555
Co1A O4 1_555 1_555
Co1F N1F 1_555 1_555
Co1B_2 O4C 1_555 1_555
C6 C7 1_555 1_555
C12 C13 1_555 1_555
C19 N1 1_555 1_555
O3 Co1 1_555 1_555
Co1 Co1A 1_555 1_555
C1C O1C 1_555 1_555
C6C C7C 1_555 1_555
C12C C13C 1_555 1_555
C19F N1F 1_555 1_555
C20F N2F 1_555 1_555
O2C Co1A 1_555 1_555
Co1C Co1B_2 1_555 1_555
Co1C_2 Co1B 1_555 1_555

#END
