
#######################################################################
#
#                 Cambridge Crystallographic Data Centre
#                                CCDC 
#
#######################################################################
#
# If this CIF has been generated from an entry in the Cambridge 
# Structural Database, then it will include bibliographic, chemical, 
# crystal, experimental, refinement or atomic coordinate data resulting 
# from the CCDC's data processing and validation procedures.
#
#######################################################################

data_VACFOV01
_chemical_formula_moiety         '(C16 H9 In1 O8)n'
_symmetry_cell_setting           hexagonal
_symmetry_space_group_name_H-M   'P 62 2 2'
_symmetry_Int_Tables_number      180
_space_group_name_Hall           'P 62 2 (0 0 4)'
loop_
_symmetry_equiv_pos_site_id
_symmetry_equiv_pos_as_xyz
1 x,y,z
2 x-y,x,1/3+z
3 -y,x-y,2/3+z
4 -x,-y,z
5 -x+y,-x,1/3+z
6 y,-x+y,2/3+z
7 -y,-x,2/3-z
8 x-y,-y,-z
9 x,x-y,1/3-z
10 y,x,2/3-z
11 -x+y,y,-z
12 -x,-x+y,1/3-z
_cell_length_a                   14.682(6)
_cell_length_b                   14.682(6)
_cell_length_c                   12.178(7)
_cell_angle_alpha                90
_cell_angle_beta                 90
_cell_angle_gamma                120
_cell_volume                     2273.41
loop_
_atom_site_label
_atom_site_type_symbol
_atom_site_fract_x
_atom_site_fract_y
_atom_site_fract_z
In1 In 0.5000 0.5000 -0.1667
O1 O 0.4194(4) 0.3490(3) -0.0672(3)
O2 O 0.5872(3) 0.4584(3) -0.0416(3)
C1 C 0.4079(5) 0.2320(5) 0.1221(4)
H1 H 0.3449 0.2194 0.0906
C2 C 0.5059(5) 0.3102(4) 0.0779(3)
C3 C 0.5980(5) 0.3281(4) 0.1227(4)
H2 H 0.6614 0.3801 0.0936
C4 C 0.5065(5) 0.3776(4) -0.0171(3)
O1H O 0.4194(4) 0.0704(5) 0.4005(3)
O2H O 0.5872(3) 0.1288(4) 0.3749(3)
C1H C 0.4079(5) 0.1759(7) 0.2112(4)
H1H H 0.3449 0.1255 0.2427
C2H C 0.5059(5) 0.1957(6) 0.2554(3)
C3H C 0.5980(5) 0.2699(6) 0.2106(4)
H2H H 0.6614 0.2813 0.2397
C4H C 0.5065(5) 0.1289(6) 0.3504(3)
O1C O 0.5806(4) 0.6510(3) -0.0672(3)
O2C O 0.4128(3) 0.5416(3) -0.0416(3)
C1C C 0.5921(5) 0.7680(5) 0.1221(4)
H1C H 0.6551 0.7806 0.0906
C2C C 0.4941(5) 0.6898(4) 0.0779(3)
C3C C 0.4020(5) 0.6719(4) 0.1227(4)
H2C H 0.3386 0.6199 0.0936
C4C C 0.4935(5) 0.6224(4) -0.0171(3)
O1K O 0.5806(4) 0.9296(5) 0.4005(3)
O2K O 0.4128(3) 0.8712(4) 0.3749(3)
C1K C 0.5921(5) 0.8241(7) 0.2112(4)
H1K H 0.6551 0.8745 0.2427
C2K C 0.4941(5) 0.8043(6) 0.2554(3)
C3K C 0.4020(5) 0.7301(6) 0.2106(4)
H2K H 0.3386 0.7187 0.2397
C4K C 0.4935(5) 0.8711(6) 0.3504(3)
In1B In 0.5000 0.0000 0.5000
In1B_2 In 0.5000 1.0000 0.5000
O1F O 0.6510(3) 0.5806(4) -0.2661(3)
O1I O 0.3490(3) 0.4194(4) -0.2661(3)
O2F O 0.5416(3) 0.4128(3) -0.2917(3)
O2I O 0.4584(3) 0.5872(3) -0.2917(3)
loop_
_geom_bond_atom_site_label_1
_geom_bond_atom_site_label_2
_geom_bond_site_symmetry_1
_geom_bond_site_symmetry_2
In1 O1 1_555 1_555
O1 C4 1_555 1_555
O2 In1 1_555 1_555
C1 H1 1_555 1_555
C2 C1 1_555 1_555
C3 C2 1_555 1_555
H2 C3 1_555 1_555
C4 O2 1_555 1_555
O1H C4H 1_555 1_555
O2H C4H 1_555 1_555
C1H C1 1_555 1_555
H1H C1H 1_555 1_555
C2H C1H 1_555 1_555
C3H C3 1_555 1_555
H2H C3H 1_555 1_555
C4H C2H 1_555 1_555
O1C In1 1_555 1_555
O2C In1 1_555 1_555
C1C H1C 1_555 1_555
C2C C1C 1_555 1_555
C3C C2C 1_555 1_555
H2C C3C 1_555 1_555
C4C O1C 1_555 1_555
O1K C4K 1_555 1_555
O2K C4K 1_555 1_555
C1K C1C 1_555 1_555
H1K C1K 1_555 1_555
C2K C1K 1_555 1_555
C3K C3C 1_555 1_555
H2K C3K 1_555 1_555
C4K C2K 1_555 1_555
In1B O1H 1_555 1_555
In1B_2 O1K 1_555 1_555
O1F In1 1_555 1_555
O1I In1 1_555 1_555
O2F In1 1_555 1_555
O2I In1 1_555 1_555
C2 C4 1_555 1_555
O2H In1B 1_555 1_555
C2H C3H 1_555 1_555
O2C C4C 1_555 1_555
C2C C4C 1_555 1_555
O2K In1B_2 1_555 1_555
C2K C3K 1_555 1_555

#END
