
#######################################################################
#
#                 Cambridge Crystallographic Data Centre
#                                CCDC 
#
#######################################################################
#
# If this CIF has been generated from an entry in the Cambridge 
# Structural Database, then it will include bibliographic, chemical, 
# crystal, experimental, refinement or atomic coordinate data resulting 
# from the CCDC's data processing and validation procedures.
#
#######################################################################

data_IZIGUV
_chemical_formula_moiety         '(C83 H85 In2 N11 O22 2+)n'
_symmetry_cell_setting           monoclinic
_symmetry_space_group_name_H-M   'P 21/c'
_symmetry_Int_Tables_number      14
_space_group_name_Hall           '-P 2ybc'
loop_
_symmetry_equiv_pos_site_id
_symmetry_equiv_pos_as_xyz
1 x,y,z
2 -x,1/2+y,1/2-z
3 -x,-y,-z
4 x,1/2-y,1/2+z
_cell_length_a                   21.038(3)
_cell_length_b                   12.5112(17)
_cell_length_c                   53.184(7)
_cell_angle_alpha                90
_cell_angle_beta                 94.509(4)
_cell_angle_gamma                90
_cell_volume                     13955.3
loop_
_atom_site_label
_atom_site_type_symbol
_atom_site_fract_x
_atom_site_fract_y
_atom_site_fract_z
In1 In -0.12947(4) 0.37325(7) 0.80228(2)
In2 In 0.38881(5) 0.68670(7) 0.55366(2)
O1 O -0.0553(3) 0.3263(5) 0.77654(14)
O2 O 0.8166(3) 1.2268(5) 0.78424(12)
O3 O 0.7952(3) 1.1374(6) 0.32954(13)
O4 O -0.0722(3) 0.4967(6) 0.78106(13)
O5 O 0.8229(3) 0.9780(6) 0.31858(12)
O6 O -0.0587(4) 0.1004(6) 0.33479(13)
O7 O 0.7990(3) 1.3845(6) 0.76791(13)
O8 O -0.0836(4) 0.2655(7) 0.32699(14)
O9 O 0.6366(6) 0.7126(7) 0.40297(17)
O10 O 0.1776(6) 0.3378(7) 0.6913(2)
O11 O 0.4685(5) 0.5504(8) 0.56865(19)
H1 H 0.4660 0.5073 0.5826
H2 H 0.5056 0.5350 0.5612
O12 O 0.3552(5) 0.9271(8) 0.55901(18)
O13 O 0.3141(6) 0.7891(10) 0.5381(3)
O14 O 0.6131(8) 1.2412(10) 0.6581(3)
O15 O 0.1326(11) 0.1660(13) 0.4460(3)
N1 N 0.4721(4) 0.7760(7) 0.54888(14)
N2 N 0.3938(5) 0.6218(8) 0.51716(15)
N3 N 0.3195(5) 0.5684(8) 0.56050(16)
N4 N 0.3982(4) 0.7208(6) 0.59301(14)
N5 N 0.6487(7) 1.0975(9) 0.6831(2)
H3 H 0.6468 1.0291 0.6841
N6 N 0.6552(6) 0.8853(8) 0.4131(2)
H4 H 0.6535 0.9319 0.4250
N7 N 0.1453(6) 0.5007(7) 0.7022(2)
H5 H 0.1547 0.5673 0.7008
N8 N 0.1002(10) 0.3232(14) 0.4279(3)
H6 H 0.1259 0.3693 0.4223
C1 C -0.0459(4) 0.4214(8) 0.77174(17)
C2 C 0.5990(6) 0.7830(9) 0.4420(2)
C3 C 0.4404(5) 0.7870(8) 0.60423(17)
C4 C 0.6860(6) 0.9135(8) 0.3912(2)
C5 C 0.7898(4) 1.2855(8) 0.76659(19)
C6 C 0.2320(13) 0.276(2) 0.4751(5)
H7 H 0.2458 0.2098 0.4699
C7 C 0.7921(5) 1.0381(9) 0.33159(18)
C8 C 0.2923(6) 0.5503(10) 0.5832(2)
C9 C 0.4388(6) 0.6516(9) 0.50030(19)
C10 C 0.0970(6) 0.4786(8) 0.7193(2)
C11 C 0.4862(6) 0.7259(9) 0.5048(2)
C12 C 0.5031(5) 0.8360(9) 0.56711(18)
C13 C 0.6288(6) 0.7875(9) 0.4164(2)
C14 C -0.0532(5) 0.1975(10) 0.3409(2)
C15 C 0.4353(6) 0.7825(8) 0.63123(18)
H8 H 0.4599 0.8199 0.6436
C16 C 0.3500(7) 0.5547(11) 0.5059(2)
C17 C 0.0360(7) 0.3565(9) 0.7425(3)
H9 H 0.0232 0.2870 0.7457
C18 C 0.2813(5) 0.5578(9) 0.6287(2)
C19 C 0.5566(6) 0.8894(10) 0.5566(2)
H10 H 0.5850 0.9376 0.5646
C20 C 0.2416(6) 0.6232(10) 0.6407(2)
H11 H 0.2365 0.6936 0.6353
C21 C 0.5560(6) 0.8533(9) 0.5322(2)
H12 H 0.5851 0.8714 0.5206
C22 C 0.5593(7) 0.6615(9) 0.4722(2)
H13 H 0.5589 0.5938 0.4794
C23 C 0.7195(7) 1.0596(9) 0.3656(2)
H14 H 0.7192 1.1322 0.3619
C24 C 0.0688(7) 0.5637(8) 0.7304(3)
H15 H 0.0801 0.6336 0.7267
C25 C 0.2895(6) 0.4572(9) 0.6375(2)
H16 H 0.3176 0.4120 0.6300
C26 C 0.2574(6) 0.4198(9) 0.6572(2)
H17 H 0.2645 0.3500 0.6628
C27 C 0.0230(6) 0.5426(9) 0.7472(2)
H18 H 0.0022 0.5998 0.7541
C28 C 0.2845(6) 0.5126(11) 0.5420(2)
C29 C 0.5272(6) 0.9219(9) 0.60942(19)
C30 C 0.2991(7) 0.5036(10) 0.5162(2)
C31 C 0.2084(6) 0.5882(9) 0.6608(2)
H19 H 0.1819 0.6346 0.6688
C32 C 0.7427(8) 1.1289(11) 0.7433(3)
H20 H 0.7610 1.0835 0.7557
C33 C 0.2155(5) 0.4827(8) 0.6688(2)
C34 C 0.3693(8) 0.5408(13) 0.4792(2)
H21 H 0.3488 0.4975 0.4669
C35 C 0.1783(7) 0.4350(10) 0.6891(3)
C36 C 0.2392(7) 0.4801(12) 0.5780(2)
H22 H 0.2130 0.4534 0.5898
C37 C 0.0843(6) 0.3740(8) 0.7262(2)
H23 H 0.1071 0.3171 0.7202
C38 C 0.4187(8) 0.5985(11) 0.4765(2)
H24 H 0.4387 0.6055 0.4616
C39 C 0.0072(5) 0.4415(8) 0.7539(2)
C40 C -0.0131(7) 0.2275(12) 0.3634(3)
C41 C 0.7507(5) 1.2395(9) 0.7458(2)
C42 C 0.6801(8) 1.1513(11) 0.7040(3)
C43 C 0.7530(6) 0.8868(9) 0.3571(2)
H25 H 0.7758 0.8397 0.3477
C44 C 0.7077(9) 1.0864(12) 0.7223(3)
H26 H 0.7030 1.0127 0.7208
C45 C 0.7543(5) 0.9910(8) 0.3513(2)
C46 C 0.5913(8) 1.0630(12) 0.6435(3)
C47 C 0.7192(6) 0.8441(8) 0.3768(2)
H27 H 0.7193 0.7710 0.3800
C48 C 0.2333(8) 0.4593(13) 0.5533(3)
H28 H 0.2016 0.4178 0.5449
C49 C 0.6855(7) 1.0240(9) 0.3852(2)
H29 H 0.6625 1.0718 0.3943
C50 C 0.2542(8) 0.4404(13) 0.4991(3)
C51 C 0.7196(7) 1.3027(11) 0.7275(3)
H30 H 0.7224 1.3766 0.7291
C52 C 0.5916(7) 0.6793(10) 0.4515(2)
H31 H 0.6091 0.6218 0.4434
C53 C 0.6192(9) 1.1446(14) 0.6619(3)
C54 C 0.5656(6) 0.8621(9) 0.4514(2)
H32 H 0.5652 0.9288 0.4437
C55 C 0.0222(8) 0.1551(13) 0.3767(3)
H33 H 0.0223 0.0849 0.3710
C56 C 0.5310(6) 0.8471(8) 0.47265(19)
H34 H 0.5113 0.9047 0.4799
C57 C 0.5805(8) 0.8947(13) 0.6230(3)
H35 H 0.5965 0.8261 0.6212
C58 C 0.5267(6) 0.7461(8) 0.48255(19)
C59 C 0.1366(12) 0.2630(19) 0.4446(4)
C60 C 0.5026(5) 0.7830(8) 0.52770(18)
C61 C 0.3169(12) 0.8907(17) 0.5432(5)
H36 H 0.2884 0.9368 0.5345
C62 C 0.4891(5) 0.8437(9) 0.59260(18)
C63 C 0.6843(9) 1.2600(12) 0.7066(3)
H37 H 0.6639 1.3048 0.6945
C64 C 0.3874(5) 0.7123(8) 0.63484(18)
H38 H 0.3725 0.6939 0.6503
C65 C 0.6136(9) 0.9643(14) 0.6400(3)
H39 H 0.6512 0.9420 0.6488
C66 C 0.3140(5) 0.5968(7) 0.60637(18)
C67 C 0.1626(12) 0.429(2) 0.4714(4)
H40 H 0.1265 0.4628 0.4640
C68 C 0.3643(5) 0.6726(8) 0.61097(18)
C69 C 0.5037(9) 1.0255(12) 0.6128(3)
H41 H 0.4674 1.0471 0.6030
C70 C -0.0093(12) 0.3339(16) 0.3704(4)
H42 H -0.0318 0.3867 0.3612
C71 C 0.0589(9) 0.1804(15) 0.3989(3)
H43 H 0.0813 0.1275 0.4081
C72 C 0.5320(9) 1.0961(13) 0.6299(3)
H44 H 0.5139 1.1624 0.6328
C73 C 0.0613(12) 0.2852(17) 0.4070(4)
C74 C 0.2650(12) 0.3373(17) 0.4941(4)
H45 H 0.2971 0.3032 0.5041
C75 C 0.1743(11) 0.3276(17) 0.4645(4)
C76 C 0.2005(12) 0.483(2) 0.4883(5)
H46 H 0.1890 0.5514 0.4928
C77 C 0.0311(11) 0.3584(19) 0.3925(4)
H47 H 0.0365 0.4298 0.3970
In1_2 In 0.87053(4) 1.37325(7) 0.80228(2)
In1C In -0.12947(4) 0.12675(7) 0.30228(2)
In1C_2 In 0.87053(4) 1.12675(7) 0.30228(2)
O2_2 O -0.1834(3) 0.2268(5) 0.78424(12)
O3C O -0.2048(3) 0.3626(6) 0.82954(13)
O5C O -0.1771(3) 0.5220(6) 0.81858(12)
O6C O -0.0587(4) 0.3996(6) 0.83479(13)
O7_2 O -0.2010(3) 0.3845(6) 0.76791(13)
O8C O -0.0836(4) 0.2345(7) 0.82699(14)
O16 O 0.3852(14) 0.1162(19) 0.3020(5)
O17 O 0.7813(18) 0.839(3) 0.2607(6)
O18 O 0.6453(16) 0.211(3) 0.2956(6)
O19 O 0.947(2) 0.821(3) 0.3341(8)
O20 O 0.4547(17) -0.016(3) 0.6819(6)
O21 O 0.4682(17) 0.448(3) 0.6113(7)
N9 N 0.148(3) 0.636(5) 0.3011(11)
H48 H 0.1878 0.6586 0.3031
H49 H 0.1354 0.6310 0.3167
C78 C 0.156(3) 0.529(6) 0.2953(13)
H50 H 0.1498 0.5187 0.2773
H51 H 0.1263 0.4857 0.3035
H52 H 0.1988 0.5077 0.3009
C79 C 0.111(3) 0.743(6) 0.2910(14)
H53 H 0.1067 0.7430 0.2729
H54 H 0.1349 0.8048 0.2969
H55 H 0.0690 0.7465 0.2971
C80 C 0.379(3) 0.393(6) 0.4213(15)
H56 H 0.3908 0.4060 0.4045
H57 H 0.4100 0.3460 0.4298
H58 H 0.3785 0.4594 0.4303
C81 C 0.279(3) 0.259(5) 0.4110(12)
H59 H 0.2516 0.2828 0.3969
H60 H 0.2539 0.2337 0.4241
H61 H 0.3058 0.2020 0.4058
N10 N 0.318(3) 0.345(5) 0.4203(13)
H62 H 0.3123 0.3400 0.4367
H63 H 0.2936 0.3998 0.4150
C82 C 0.123(4) 0.261(6) 0.5656(13)
H64 H 0.1561 0.2301 0.5767
H65 H 0.0824 0.2498 0.5726
H66 H 0.1301 0.3361 0.5639
N11 N 0.122(3) 0.212(6) 0.5419(12)
H67 H 0.0925 0.2571 0.5350
H68 H 0.1583 0.2423 0.5384
C83 C 0.119(4) 0.146(6) 0.5206(13)
H69 H 0.1575 0.1551 0.5122
H70 H 0.0831 0.1664 0.5094
H71 H 0.1149 0.0731 0.5256
O22 O 0.859(3) 0.185(5) 0.4215(11)
loop_
_geom_bond_atom_site_label_1
_geom_bond_atom_site_label_2
_geom_bond_site_symmetry_1
_geom_bond_site_symmetry_2
In1 O1 1_555 1_555
In2 O11 1_555 1_555
O1 C1 1_555 1_555
O2 C5 1_555 1_555
O3 C7 1_555 1_555
O4 In1 1_555 1_555
O5 C7 1_555 1_555
O6 C14 1_555 1_555
O7 C5 1_555 1_555
O8 C14 1_555 1_555
O9 C13 1_555 1_555
O10 C35 1_555 1_555
O11 H1 1_555 1_555
H2 O11 1_555 1_555
O12 C61 1_555 1_555
O13 In2 1_555 1_555
O14 C53 1_555 1_555
O15 C59 1_555 1_555
N1 In2 1_555 1_555
N2 In2 1_555 1_555
N3 In2 1_555 1_555
N4 In2 1_555 1_555
N5 H3 1_555 1_555
N6 H4 1_555 1_555
N7 H5 1_555 1_555
N8 H6 1_555 1_555
C1 O4 1_555 1_555
C2 C13 1_555 1_555
C3 N4 1_555 1_555
C4 N6 1_555 1_555
C5 C41 1_555 1_555
C6 H7 1_555 1_555
C7 C45 1_555 1_555
C8 N3 1_555 1_555
C9 N2 1_555 1_555
C10 N7 1_555 1_555
C11 C9 1_555 1_555
C12 N1 1_555 1_555
C13 N6 1_555 1_555
C14 C40 1_555 1_555
C15 C3 1_555 1_555
H8 C15 1_555 1_555
C16 N2 1_555 1_555
C17 H9 1_555 1_555
C18 C20 1_555 1_555
C19 C12 1_555 1_555
H10 C19 1_555 1_555
C20 H11 1_555 1_555
C21 C19 1_555 1_555
H12 C21 1_555 1_555
C22 H13 1_555 1_555
C23 H14 1_555 1_555
C24 C10 1_555 1_555
H15 C24 1_555 1_555
C25 C18 1_555 1_555
H16 C25 1_555 1_555
C26 C25 1_555 1_555
H17 C26 1_555 1_555
C27 C24 1_555 1_555
H18 C27 1_555 1_555
C28 N3 1_555 1_555
C29 C57 1_555 1_555
C30 C16 1_555 1_555
C31 C20 1_555 1_555
H19 C31 1_555 1_555
C32 H20 1_555 1_555
C33 C26 1_555 1_555
C34 C16 1_555 1_555
H21 C34 1_555 1_555
C35 N7 1_555 1_555
C36 C8 1_555 1_555
H22 C36 1_555 1_555
C37 C10 1_555 1_555
H23 C37 1_555 1_555
C38 C9 1_555 1_555
H24 C38 1_555 1_555
C39 C1 1_555 1_555
C40 C55 1_555 1_555
C41 C32 1_555 1_555
C42 N5 1_555 1_555
C43 H25 1_555 1_555
C44 C32 1_555 1_555
H26 C44 1_555 1_555
C45 C23 1_555 1_555
C46 C53 1_555 1_555
C47 C4 1_555 1_555
H27 C47 1_555 1_555
C48 C28 1_555 1_555
H28 C48 1_555 1_555
C49 C4 1_555 1_555
H29 C49 1_555 1_555
C50 C30 1_555 1_555
C51 C41 1_555 1_555
H30 C51 1_555 1_555
C52 C2 1_555 1_555
H31 C52 1_555 1_555
C53 N5 1_555 1_555
C54 C2 1_555 1_555
H32 C54 1_555 1_555
C55 H33 1_555 1_555
C56 C54 1_555 1_555
H34 C56 1_555 1_555
C57 H35 1_555 1_555
C58 C11 1_555 1_555
C59 N8 1_555 1_555
C60 N1 1_555 1_555
C61 O13 1_555 1_555
H36 C61 1_555 1_555
C62 C3 1_555 1_555
C63 C42 1_555 1_555
H37 C63 1_555 1_555
C64 C15 1_555 1_555
H38 C64 1_555 1_555
C65 C46 1_555 1_555
H39 C65 1_555 1_555
C66 C8 1_555 1_555
C67 H40 1_555 1_555
C68 N4 1_555 1_555
C69 C29 1_555 1_555
H41 C69 1_555 1_555
C70 C40 1_555 1_555
H42 C70 1_555 1_555
C71 C55 1_555 1_555
H43 C71 1_555 1_555
C72 C46 1_555 1_555
H44 C72 1_555 1_555
C73 N8 1_555 1_555
C74 C6 1_555 1_555
H45 C74 1_555 1_555
C75 C6 1_555 1_555
C76 C50 1_555 1_555
H46 C76 1_555 1_555
C77 C70 1_555 1_555
H47 C77 1_555 1_555
N9 H48 1_555 1_555
H49 N9 1_555 1_555
C78 N9 1_555 1_555
H50 C78 1_555 1_555
H51 C78 1_555 1_555
H52 C78 1_555 1_555
C79 N9 1_555 1_555
H53 C79 1_555 1_555
H54 C79 1_555 1_555
H55 C79 1_555 1_555
C80 H56 1_555 1_555
H57 C80 1_555 1_555
H58 C80 1_555 1_555
C81 H59 1_555 1_555
H60 C81 1_555 1_555
H61 C81 1_555 1_555
N10 C80 1_555 1_555
H62 N10 1_555 1_555
H63 N10 1_555 1_555
C82 H64 1_555 1_555
H65 C82 1_555 1_555
H66 C82 1_555 1_555
N11 C82 1_555 1_555
H67 N11 1_555 1_555
H68 N11 1_555 1_555
C83 N11 1_555 1_555
H69 C83 1_555 1_555
H70 C83 1_555 1_555
H71 C83 1_555 1_555
In1_2 O2 1_555 1_555
In1C O6 1_555 1_555
In1C_2 O3 1_555 1_555
O2_2 In1 1_555 1_555
O3C In1 1_555 1_555
O5C In1 1_555 1_555
O6C In1 1_555 1_555
O7_2 In1 1_555 1_555
O8C In1 1_555 1_555
O5 In1C_2 1_555 1_555
O7 In1_2 1_555 1_555
O8 In1C 1_555 1_555
C11 C60 1_555 1_555
C12 C62 1_555 1_555
C17 C37 1_555 1_555
C17 C39 1_555 1_555
C18 C66 1_555 1_555
C21 C60 1_555 1_555
C22 C52 1_555 1_555
C22 C58 1_555 1_555
C23 C49 1_555 1_555
C27 C39 1_555 1_555
C28 C30 1_555 1_555
C29 C62 1_555 1_555
C31 C33 1_555 1_555
C33 C35 1_555 1_555
C34 C38 1_555 1_555
C36 C48 1_555 1_555
C42 C44 1_555 1_555
C43 C45 1_555 1_555
C43 C47 1_555 1_555
C50 C74 1_555 1_555
C51 C63 1_555 1_555
C56 C58 1_555 1_555
C57 C65 1_555 1_555
C59 C75 1_555 1_555
C64 C68 1_555 1_555
C66 C68 1_555 1_555
C67 C75 1_555 1_555
C67 C76 1_555 1_555
C69 C72 1_555 1_555
C71 C73 1_555 1_555
C73 C77 1_555 1_555
C81 N10 1_555 1_555

#END
