
#######################################################################
#
#                 Cambridge Crystallographic Data Centre
#                                CCDC 
#
#######################################################################
#
# If this CIF has been generated from an entry in the Cambridge 
# Structural Database, then it will include bibliographic, chemical, 
# crystal, experimental, refinement or atomic coordinate data resulting 
# from the CCDC's data processing and validation procedures.
#
#######################################################################

data_ECASAD
_chemical_formula_moiety         '(C10 H12 N2 O9 P2 Zn2)n'
_symmetry_cell_setting           monoclinic
_symmetry_space_group_name_H-M   'C 2/c'
_symmetry_Int_Tables_number      15
_space_group_name_Hall           '-C 2yc'
loop_
_symmetry_equiv_pos_site_id
_symmetry_equiv_pos_as_xyz
1 x,y,z
2 1/2+x,1/2+y,z
3 -x,y,1/2-z
4 1/2-x,1/2+y,1/2-z
5 -x,-y,-z
6 1/2-x,1/2-y,-z
7 x,-y,1/2+z
8 1/2+x,1/2-y,1/2+z
_cell_length_a                   21.188(4)
_cell_length_b                   10.229(2)
_cell_length_c                   9.0656(18)
_cell_angle_alpha                90
_cell_angle_beta                 90.21(3)
_cell_angle_gamma                90
_cell_volume                     1964.79
loop_
_atom_site_label
_atom_site_type_symbol
_atom_site_fract_x
_atom_site_fract_y
_atom_site_fract_z
Zn1 Zn 0.276560(13) -0.56968(3) 0.07004(3)
P1 P 0.22193(3) -0.34263(6) 0.26329(6)
O1 O 0.27049(9) -0.39907(17) 0.1585(2)
O2 O 0.21607(10) -0.5841(2) -0.0916(2)
O3 O 0.23741(12) -0.20006(19) 0.2846(2)
O4 O 0.15429(10) -0.3570(3) 0.1940(2)
H1 H 0.1532 -0.3195 0.1141
N1 N 0.36252(11) -0.5766(2) -0.0285(2)
C1 C 0.39460(16) -0.6865(3) -0.0549(4)
H4 H 0.3799 -0.7642 -0.0146
C2 C 0.44848(16) -0.6898(3) -0.1392(4)
H5 H 0.4696 -0.7684 -0.1538
C3 C 0.47135(12) -0.5752(3) -0.2024(3)
C4 C 0.43851(15) -0.4615(3) -0.1740(4)
H6 H 0.4523 -0.3823 -0.2127
C5 C 0.38466(15) -0.4666(3) -0.0870(4)
H7 H 0.3630 -0.3892 -0.0688
Zn1F Zn 0.276560(13) -0.43032(3) 0.57004(3)
Zn1C Zn 0.223440(13) -0.06968(3) 0.42996(3)
Zn1F_2 Zn 0.276560(13) -0.43032(3) -0.42996(3)
Zn1E Zn 0.223440(13) -0.93032(3) -0.07004(3)
Zn1B Zn 0.723440(13) -0.56968(3) -0.57004(3)
P1F P 0.22193(3) -0.65737(6) -0.23671(6)
O1F O 0.27049(9) -0.60093(17) 0.6585(2)
O1F_2 O 0.27049(9) -0.60093(17) -0.3415(2)
O2F O 0.21607(10) -0.4159(2) 0.4084(2)
O3E O 0.26259(12) -0.29994(19) 0.7154(2)
O3C O 0.26259(12) -0.70006(19) 0.2154(2)
O3F O 0.23741(12) -0.79994(19) -0.2154(2)
O4F O 0.15429(10) -0.6430(3) -0.3060(2)
H1F H 0.1532 -0.6805 -0.3859
N1F N 0.36252(11) -0.4234(2) 0.4715(2)
N1B N 0.63748(11) -0.5766(2) -0.4715(2)
C1B C 0.60540(16) -0.6865(3) -0.4451(4)
H4B H 0.6201 -0.7642 -0.4854
C2B C 0.55152(16) -0.6898(3) -0.3608(4)
H5B H 0.5304 -0.7684 -0.3462
C3B C 0.52865(12) -0.5752(3) -0.2976(3)
C4B C 0.56149(15) -0.4615(3) -0.3260(4)
H6B H 0.5477 -0.3823 -0.2873
C5B C 0.61534(15) -0.4666(3) -0.4130(4)
H7B H 0.6370 -0.3892 -0.4312
O5 O 0.14919(11) -0.3447(3) -0.0931(2)
H2 H 0.1751(18) -0.276(3) -0.124(5)
H3 H 0.167(2) -0.411(5) -0.110(5)
loop_
_geom_bond_atom_site_label_1
_geom_bond_atom_site_label_2
_geom_bond_site_symmetry_1
_geom_bond_site_symmetry_2
Zn1 O1 1_555 1_555
P1 O1 1_555 1_555
O2 Zn1 1_555 1_555
O3 P1 1_555 1_555
O4 P1 1_555 1_555
H1 O4 1_555 1_555
O5 H2 1_555 1_555
H3 O5 1_555 1_555
N1 Zn1 1_555 1_555
C1 N1 1_555 1_555
H4 C1 1_555 1_555
C2 C1 1_555 1_555
H5 C2 1_555 1_555
C3 C2 1_555 1_555
C4 C3 1_555 1_555
H6 C4 1_555 1_555
C5 N1 1_555 1_555
H7 C5 1_555 1_555
Zn1F O1F 1_555 1_555
Zn1C O3 1_555 1_555
Zn1F_2 O1F_2 1_555 1_555
Zn1E O3F 1_555 1_555
Zn1B N1B 1_555 1_555
P1F O2 1_555 1_555
O1F_2 P1F 1_555 1_555
O2F P1 1_555 1_555
O3E Zn1F 1_555 1_555
O3C Zn1 1_555 1_555
O3F P1F 1_555 1_555
O4F P1F 1_555 1_555
H1F O4F 1_555 1_555
N1F Zn1F 1_555 1_555
N1B C1B 1_555 1_555
C1B H4B 1_555 1_555
C2B C1B 1_555 1_555
H5B C2B 1_555 1_555
C3B C3 1_555 1_555
C4B C3B 1_555 1_555
H6B C4B 1_555 1_555
C5B N1B 1_555 1_555
H7B C5B 1_555 1_555
C4 C5 1_555 1_555
Zn1F O2F 1_555 1_555
C2B C3B 1_555 1_555
C4B C5B 1_555 1_555

#END
