
#######################################################################
#
#                 Cambridge Crystallographic Data Centre
#                                CCDC 
#
#######################################################################
#
# If this CIF has been generated from an entry in the Cambridge 
# Structural Database, then it will include bibliographic, chemical, 
# crystal, experimental, refinement or atomic coordinate data resulting 
# from the CCDC's data processing and validation procedures.
#
#######################################################################

data_XEKDUO
_chemical_formula_moiety         '(C18 H12 Co3 N15 O4 P1)n'
_symmetry_cell_setting           rhombohedral
_symmetry_space_group_name_H-M   'R 3'
_symmetry_Int_Tables_number      146
_space_group_name_Hall           'R 3'
loop_
_symmetry_equiv_pos_site_id
_symmetry_equiv_pos_as_xyz
1 x,y,z
2 -y,x-y,z
3 -x+y,-x,z
4 2/3+x,1/3+y,1/3+z
5 2/3-y,1/3+x-y,1/3+z
6 2/3-x+y,1/3-x,1/3+z
7 1/3+x,2/3+y,2/3+z
8 1/3-y,2/3+x-y,2/3+z
9 1/3-x+y,2/3-x,2/3+z
_cell_length_a                   22.202(2)
_cell_length_b                   22.202(2)
_cell_length_c                   4.3536(9)
_cell_angle_alpha                90
_cell_angle_beta                 90
_cell_angle_gamma                120
_cell_volume                     1858.5
loop_
_atom_site_label
_atom_site_type_symbol
_atom_site_fract_x
_atom_site_fract_y
_atom_site_fract_z
Co1 Co 0.72025(4) 0.27884(4) 0.7415(2)
P1 P 0.6667 0.3333 0.2713(7)
O1 O 0.6667 0.3333 0.6336(19)
O2 O 0.7049(3) 0.2951(3) 0.1837(11)
N1 N 0.7746(3) 0.2259(3) 0.8422(13)
N2 N 0.9582(3) 0.1032(3) 1.3336(13)
N3 N 0.8984(3) 0.0427(3) 1.3194(14)
N4 N 0.9480(3) 0.1544(3) 1.2344(16)
C1 C 0.8442(4) 0.1575(4) 1.0431(18)
C2 C 0.8789(4) 0.1212(4) 1.1600(17)
N5 N 0.8484(3) 0.0538(3) 1.2186(16)
C3 C 0.7572(6) 0.1597(7) 0.740(3)
H1 H 0.7200 0.1362 0.5986
C4 C 0.7922(6) 0.1288(6) 0.838(3)
H2 H 0.7796 0.0842 0.7575
C5 C 0.8271(6) 0.2556(6) 1.027(3)
H3 H 0.8394 0.3009 1.0955
C6 C 0.8676(6) 0.2290(6) 1.137(3)
H4 H 0.9073 0.2550 1.2636
Co1A Co 0.72116(4) 0.44141(6) 0.7415(2)
Co1B Co 0.55859(6) 0.27975(4) 0.7415(2)
Co1_2 Co 0.72025(4) 0.27884(4) -0.2585(2)
Co1A_2 Co 0.72116(4) 0.44141(6) -0.2585(2)
Co1B_2 Co 0.55859(6) 0.27975(4) -0.2585(2)
Co1F Co 0.05358(4) -0.05449(4) 1.4082(2)
Co1F_2 Co 1.05358(4) 0.94551(4) 1.4082(2)
Co1G Co 0.05449(4) 0.10808(6) 1.4082(2)
Co1G_2 Co 1.05449(4) 0.10808(6) 1.4082(2)
Co1H Co 0.89192(6) -0.05358(4) 1.4082(2)
Co1H_2 Co 0.89192(6) 0.94642(4) 1.4082(2)
O2A O 0.7049(3) 0.4098(4) 0.1837(11)
O2B O 0.5902(4) 0.2951(3) 0.1837(11)
O2_2 O 0.7049(3) 0.2951(3) 1.1837(11)
O2A_2 O 0.7049(3) 0.4098(4) 1.1837(11)
O2B_2 O 0.5902(4) 0.2951(3) 1.1837(11)
N1A N 0.7741(3) 0.5487(4) 0.8422(13)
N1B N 0.4513(4) 0.2254(3) 0.8422(13)
N2A N 0.8968(3) 0.8550(4) 1.3336(13)
N2B N 0.1450(4) 0.0418(3) 1.3336(13)
N2C N 0.6249(3) 0.4365(3) 0.6669(13)
N2D N 0.5635(3) 0.1883(4) 0.6669(13)
N2E N 0.8117(4) 0.3751(3) 0.6669(13)
N3A N 0.9573(3) 0.8557(4) 1.3194(14)
N3B N 0.1443(4) 0.1016(3) 1.3194(14)
N3C N 0.5651(3) 0.3760(3) 0.6527(14)
N3D N 0.6240(3) 0.1890(4) 0.6527(14)
N3E N 0.8110(4) 0.4349(3) 0.6527(14)
N4A N 0.8456(3) 0.7936(4) 1.2344(16)
N4B N 0.2064(4) 0.0520(3) 1.2344(16)
C1A C 0.8425(4) 0.6867(6) 1.0431(18)
C1B C 0.3133(6) 0.1558(4) 1.0431(18)
C2A C 0.8788(4) 0.7577(6) 1.1600(17)
C2B C 0.2423(6) 0.1211(4) 1.1600(17)
N5A N 0.9462(3) 0.7946(4) 1.2186(16)
N5B N 0.2054(4) 0.1516(3) 1.2186(16)
C3A C 0.8403(7) 0.5975(9) 0.740(3)
C3B C 0.4025(9) 0.2428(6) 0.740(3)
H1A H 0.8638 0.5838 0.5986
H1B H 0.4162 0.2800 0.5986
C4A C 0.8712(6) 0.6634(8) 0.838(3)
C4B C 0.3366(8) 0.2078(6) 0.838(3)
H2A H 0.9158 0.6954 0.7575
H2B H 0.3046 0.2204 0.7575
C5A C 0.7444(6) 0.5715(8) 1.027(3)
C5B C 0.4285(8) 0.1729(6) 1.027(3)
H3A H 0.6991 0.5385 1.0955
H3B H 0.4615 0.1606 1.0955
C6A C 0.7710(6) 0.6386(8) 1.137(3)
C6B C 0.3614(8) 0.1324(6) 1.137(3)
H4A H 0.7450 0.6523 1.2636
H4B H 0.3477 0.0927 1.2636
loop_
_geom_bond_atom_site_label_1
_geom_bond_atom_site_label_2
_geom_bond_site_symmetry_1
_geom_bond_site_symmetry_2
Co1 O1 1_555 1_555
P1 O1 1_555 1_555
O1 Co1A 1_555 1_555
O2 P1 1_555 1_555
N1 Co1 1_555 1_555
N2 N3 1_555 1_555
N3 N5 1_555 1_555
N4 N2 1_555 1_555
C1 C2 1_555 1_555
C2 N4 1_555 1_555
N5 C2 1_555 1_555
C3 N1 1_555 1_555
H1 C3 1_555 1_555
C4 C1 1_555 1_555
H2 C4 1_555 1_555
C5 N1 1_555 1_555
H3 C5 1_555 1_555
C6 C1 1_555 1_555
H4 C6 1_555 1_555
Co1A O2A_2 1_555 1_555
Co1B O1 1_555 1_555
Co1_2 O2 1_555 1_555
Co1A_2 O2A 1_555 1_555
Co1B_2 O2B 1_555 1_555
Co1F N2B 1_555 1_555
Co1F_2 N3A 1_555 1_555
Co1G N3B 1_555 1_555
Co1G_2 N2 1_555 1_555
Co1H N3 1_555 1_555
Co1H_2 N2A 1_555 1_555
O2A P1 1_555 1_555
O2B P1 1_555 1_555
O2_2 Co1 1_555 1_555
O2B_2 Co1B 1_555 1_555
N1A Co1A 1_555 1_555
N1B Co1B 1_555 1_555
N2A N3A 1_555 1_555
N2B N3B 1_555 1_555
N2C Co1A 1_555 1_555
N2D Co1B 1_555 1_555
N2E Co1 1_555 1_555
N3A N5A 1_555 1_555
N3B N5B 1_555 1_555
N3C Co1B 1_555 1_555
N3D Co1 1_555 1_555
N3E Co1A 1_555 1_555
N4A N2A 1_555 1_555
N4B N2B 1_555 1_555
C1A C2A 1_555 1_555
C1B C2B 1_555 1_555
C2A N4A 1_555 1_555
C2B N4B 1_555 1_555
N5A C2A 1_555 1_555
N5B C2B 1_555 1_555
C3A N1A 1_555 1_555
C3B N1B 1_555 1_555
H1A C3A 1_555 1_555
H1B C3B 1_555 1_555
C4A C1A 1_555 1_555
C4B C1B 1_555 1_555
H2A C4A 1_555 1_555
H2B C4B 1_555 1_555
C5A N1A 1_555 1_555
C5B N1B 1_555 1_555
H3A C5A 1_555 1_555
H3B C5B 1_555 1_555
C6A C1A 1_555 1_555
C6B C1B 1_555 1_555
H4A C6A 1_555 1_555
H4B C6B 1_555 1_555
C3 C4 1_555 1_555
C5 C6 1_555 1_555
N2C N3C 1_555 1_555
N2D N3D 1_555 1_555
N2E N3E 1_555 1_555
C3A C4A 1_555 1_555
C3B C4B 1_555 1_555
C5A C6A 1_555 1_555
C5B C6B 1_555 1_555

#END
