
#######################################################################
#
#                 Cambridge Crystallographic Data Centre
#                                CCDC 
#
#######################################################################
#
# If this CIF has been generated from an entry in the Cambridge 
# Structural Database, then it will include bibliographic, chemical, 
# crystal, experimental, refinement or atomic coordinate data resulting 
# from the CCDC's data processing and validation procedures.
#
#######################################################################

data_NATKIF
_chemical_formula_moiety         '(C61 H40 Cu2 N12 O10)n'
_symmetry_cell_setting           tetragonal
_symmetry_space_group_name_H-M   'P 42 21 2'
_symmetry_Int_Tables_number      94
_space_group_name_Hall           'P 4n 2n'
loop_
_symmetry_equiv_pos_site_id
_symmetry_equiv_pos_as_xyz
1 x,y,z
2 1/2-y,1/2+x,1/2+z
3 -x,-y,z
4 1/2+y,1/2-x,1/2+z
5 1/2+x,1/2-y,1/2-z
6 y,x,-z
7 1/2-x,1/2+y,1/2-z
8 -y,-x,-z
_cell_length_a                   22.8050(5)
_cell_length_b                   22.8050(5)
_cell_length_c                   44.0727(12)
_cell_angle_alpha                90
_cell_angle_beta                 90
_cell_angle_gamma                90
_cell_volume                     22920.8
loop_
_atom_site_label
_atom_site_type_symbol
_atom_site_fract_x
_atom_site_fract_y
_atom_site_fract_z
Cu1 Cu 0.55582(4) 0.48451(4) 0.36105(2)
O1 O 0.5322(2) 0.4296(2) 0.33004(10)
O2 O 0.4347(2) 0.4555(2) 0.32993(11)
O3 O 0.0703(2) 0.0329(2) -0.10794(13)
O4 O 0.04305(19) -0.0613(2) -0.10741(7)
O5 O 0.64690(19) 0.4565(2) 0.36094(14)
H1 H 0.667271 0.485651 0.355317
H2 H 0.655842 0.449641 0.379567
N1 N 0.4319(4) 0.2544(4) 0.2284(2)
N2 N 0.3766(4) 0.2523(6) 0.2141(3)
N3 N 0.3814(4) 0.2110(6) 0.1940(3)
N4 N 0.2757(5) -0.1085(4) 0.0325(2)
N5 N 0.2337(4) -0.1096(4) 0.0133(2)
N6 N 0.2423(3) -0.0648(4) -0.00407(12)
C1 C 0.4773(3) 0.4246(4) 0.32022(15)
C2 C 0.4652(4) 0.3785(4) 0.29707(18)
C3 C 0.5087(5) 0.3465(5) 0.2869(2)
H3 H 0.545995 0.350996 0.295108
C4 C 0.4998(4) 0.3072(5) 0.2645(2)
H4 H 0.531148 0.284852 0.257481
C5 C 0.4479(5) 0.2997(4) 0.2524(2)
C6 C 0.3993(4) 0.3320(5) 0.2618(2)
H5 H 0.362318 0.327194 0.253277
C7 C 0.4099(4) 0.3716(5) 0.2847(2)
H6 H 0.379140 0.394216 0.292057
C8 C 0.4665(4) 0.2153(5) 0.2137(2)
H7 H 0.506471 0.210211 0.216958
C9 C 0.4331(5) 0.1845(5) 0.1933(2)
C10 C 0.4523(4) 0.1393(5) 0.17346(18)
C11 C 0.5078(4) 0.1146(4) 0.17375(19)
H8 H 0.535605 0.127821 0.187587
C12 C 0.5213(4) 0.0727(4) 0.15458(16)
H9 H 0.558821 0.056874 0.155500
C13 C 0.4815(3) 0.0499(3) 0.13228(18)
C14 C 0.4266(3) 0.0744(4) 0.1325(2)
H10 H 0.397669 0.059484 0.119773
C15 C 0.4137(4) 0.1223(5) 0.1519(2)
H11 H 0.378338 0.142187 0.149818
C16 C 0.500000 0.000000 0.1101(3)
C17 C 0.4483(3) -0.0171(4) 0.08983(15)
C18 C 0.4234(4) -0.0713(4) 0.08913(18)
H12 H 0.437284 -0.099255 0.102708
C19 C 0.3791(4) -0.0876(4) 0.06981(19)
H13 H 0.364480 -0.125652 0.070414
C20 C 0.3568(4) -0.0484(4) 0.0499(2)
C21 C 0.3809(3) 0.0095(4) 0.04813(15)
H14 H 0.366101 0.037746 0.034992
C22 C 0.4291(3) 0.0208(3) 0.06786(14)
H15 H 0.448753 0.056310 0.065692
C23 C 0.3055(4) -0.0597(4) 0.0290(2)
C24 C 0.2831(3) -0.0299(4) 0.00668(15)
H16 H 0.293619 0.007233 -0.000092
C25 C 0.2006(5) -0.0560(4) -0.0269(2)
C26 C 0.1620(4) -0.0963(3) -0.03865(19)
H17 H 0.162526 -0.133839 -0.030435
C27 C 0.1218(3) -0.0852(4) -0.06223(13)
H18 H 0.097574 -0.114881 -0.069415
C28 C 0.1190(4) -0.0304(3) -0.07431(17)
C29 C 0.1576(3) 0.0130(4) -0.06457(19)
H19 H 0.157498 0.049626 -0.073851
C30 C 0.1971(3) 0.0011(4) -0.04027(18)
H20 H 0.221165 0.030905 -0.033022
C31 C 0.0751(3) -0.0198(4) -0.09830(15)
O1B O 0.4678(2) -0.4296(2) 0.33004(10)
O2B O 0.5653(2) -0.4555(2) 0.32993(11)
O3B O 0.9297(2) -0.0329(2) -0.10794(13)
O4B O 0.95695(19) 0.0613(2) -0.10741(7)
N1B N 0.5681(4) -0.2544(4) 0.2284(2)
N2B N 0.6234(4) -0.2523(6) 0.2141(3)
N3B N 0.6186(4) -0.2110(6) 0.1940(3)
N4B N 0.7243(5) 0.1085(4) 0.0325(2)
N5B N 0.7663(4) 0.1096(4) 0.0133(2)
N6B N 0.7577(3) 0.0648(4) -0.00407(12)
C1B C 0.5227(3) -0.4246(4) 0.32022(15)
C2B C 0.5348(4) -0.3785(4) 0.29707(18)
C3B C 0.4913(5) -0.3465(5) 0.2869(2)
H3B H 0.454005 -0.350996 0.295108
C4B C 0.5002(4) -0.3072(5) 0.2645(2)
H4B H 0.468852 -0.284852 0.257481
C5B C 0.5521(5) -0.2997(4) 0.2524(2)
C6B C 0.6007(4) -0.3320(5) 0.2618(2)
H5B H 0.637682 -0.327194 0.253277
C7B C 0.5901(4) -0.3716(5) 0.2847(2)
H6B H 0.620860 -0.394216 0.292057
C8B C 0.5335(4) -0.2153(5) 0.2137(2)
H7B H 0.493529 -0.210211 0.216958
C9B C 0.5669(5) -0.1845(5) 0.1933(2)
C10B C 0.5477(4) -0.1393(5) 0.17346(18)
C11B C 0.4922(4) -0.1146(4) 0.17375(19)
H8B H 0.464395 -0.127821 0.187587
C12B C 0.4787(4) -0.0727(4) 0.15458(16)
H9B H 0.441179 -0.056874 0.155500
C13B C 0.5185(3) -0.0499(3) 0.13228(18)
C14B C 0.5734(3) -0.0744(4) 0.1325(2)
H10B H 0.602331 -0.059484 0.119773
C15B C 0.5863(4) -0.1223(5) 0.1519(2)
H11B H 0.621662 -0.142187 0.149818
C17B C 0.5517(3) 0.0171(4) 0.08983(15)
C18B C 0.5766(4) 0.0713(4) 0.08913(18)
H12B H 0.562716 0.099255 0.102708
C19B C 0.6209(4) 0.0876(4) 0.06981(19)
H13B H 0.635520 0.125652 0.070414
C20B C 0.6432(4) 0.0484(4) 0.0499(2)
C21B C 0.6191(3) -0.0095(4) 0.04813(15)
H14B H 0.633899 -0.037746 0.034992
C22B C 0.5709(3) -0.0208(3) 0.06786(14)
H15B H 0.551247 -0.056310 0.065692
C23B C 0.6945(4) 0.0597(4) 0.0290(2)
C24B C 0.7169(3) 0.0299(4) 0.00668(15)
H16B H 0.706381 -0.007233 -0.000092
C25B C 0.7994(5) 0.0560(4) -0.0269(2)
C26B C 0.8380(4) 0.0963(3) -0.03865(19)
H17B H 0.837474 0.133839 -0.030435
C27B C 0.8782(3) 0.0852(4) -0.06223(13)
H18B H 0.902426 0.114881 -0.069415
C28B C 0.8810(4) 0.0304(3) -0.07431(17)
C29B C 0.8424(3) -0.0130(4) -0.06457(19)
H19B H 0.842502 -0.049626 -0.073851
C30B C 0.8029(3) -0.0011(4) -0.04027(18)
H20B H 0.778835 -0.030905 -0.033022
C31B C 0.9249(3) 0.0198(4) -0.09830(15)
Cu1B Cu 0.44418(4) -0.48451(4) 0.36105(2)
O5B O 0.35310(19) -0.4565(2) 0.36094(14)
H1B H 0.332729 -0.485651 0.355317
H2B H 0.344158 -0.449641 0.379567
Cu1_2 Cu 0.55582(4) -0.51549(4) 0.36105(2)
Cu1A Cu 0.01549(4) 0.05582(4) -0.13895(2)
Cu1A_2 Cu 1.01549(4) 0.05582(4) -0.13895(2)
Cu1B_2 Cu 0.44418(4) 0.51549(4) 0.36105(2)
Cu1C Cu -0.01549(4) -0.05582(4) -0.13895(2)
Cu1C_2 Cu 0.98451(4) -0.05582(4) -0.13895(2)
O2_2 O 0.4347(2) -0.5445(2) 0.32993(11)
O2B_2 O 0.5653(2) 0.5445(2) 0.32993(11)
O3A O 0.4671(2) -0.4297(2) 0.39206(13)
O3C O 0.5329(2) 0.4297(2) 0.39206(13)
O4A O 0.5613(2) 0.54305(19) 0.39259(7)
O4C O 0.4387(2) -0.54305(19) 0.39259(7)
loop_
_geom_bond_atom_site_label_1
_geom_bond_atom_site_label_2
_geom_bond_site_symmetry_1
_geom_bond_site_symmetry_2
Cu1 O1 1_555 1_555
O1 C1 1_555 1_555
O2 C1 1_555 1_555
O3 C31 1_555 1_555
O4 C31 1_555 1_555
O5 Cu1 1_555 1_555
H1 O5 1_555 1_555
H2 O5 1_555 1_555
N1 N2 1_555 1_555
N2 N3 1_555 1_555
N3 C9 1_555 1_555
N4 N5 1_555 1_555
N5 N6 1_555 1_555
N6 C24 1_555 1_555
C1 C2 1_555 1_555
C2 C3 1_555 1_555
C3 H3 1_555 1_555
C4 C3 1_555 1_555
H4 C4 1_555 1_555
C5 N1 1_555 1_555
C6 C5 1_555 1_555
H5 C6 1_555 1_555
C7 C2 1_555 1_555
H6 C7 1_555 1_555
C8 N1 1_555 1_555
H7 C8 1_555 1_555
C9 C8 1_555 1_555
C10 C9 1_555 1_555
C11 C10 1_555 1_555
H8 C11 1_555 1_555
C12 C11 1_555 1_555
H9 C12 1_555 1_555
C13 C12 1_555 1_555
C14 C13 1_555 1_555
H10 C14 1_555 1_555
C15 C10 1_555 1_555
H11 C15 1_555 1_555
C16 C13 1_555 1_555
C17 C16 1_555 1_555
C18 C17 1_555 1_555
H12 C18 1_555 1_555
C19 C18 1_555 1_555
H13 C19 1_555 1_555
C20 C19 1_555 1_555
C21 C20 1_555 1_555
H14 C21 1_555 1_555
C22 C17 1_555 1_555
H15 C22 1_555 1_555
C23 N4 1_555 1_555
C24 C23 1_555 1_555
H16 C24 1_555 1_555
C25 N6 1_555 1_555
C26 C25 1_555 1_555
H17 C26 1_555 1_555
C27 C26 1_555 1_555
H18 C27 1_555 1_555
C28 C27 1_555 1_555
C29 C28 1_555 1_555
H19 C29 1_555 1_555
C30 C25 1_555 1_555
H20 C30 1_555 1_555
C31 C28 1_555 1_555
O1B C1B 1_555 1_555
O2B C1B 1_555 1_555
O3B C31B 1_555 1_555
O4B C31B 1_555 1_555
N1B N2B 1_555 1_555
N2B N3B 1_555 1_555
N3B C9B 1_555 1_555
N4B N5B 1_555 1_555
N5B N6B 1_555 1_555
N6B C24B 1_555 1_555
C1B C2B 1_555 1_555
C2B C3B 1_555 1_555
C3B H3B 1_555 1_555
C4B C3B 1_555 1_555
H4B C4B 1_555 1_555
C5B N1B 1_555 1_555
C6B C5B 1_555 1_555
H5B C6B 1_555 1_555
C7B C2B 1_555 1_555
H6B C7B 1_555 1_555
C8B N1B 1_555 1_555
H7B C8B 1_555 1_555
C9B C8B 1_555 1_555
C10B C9B 1_555 1_555
C11B C10B 1_555 1_555
H8B C11B 1_555 1_555
C12B C11B 1_555 1_555
H9B C12B 1_555 1_555
C13B C16 1_555 1_555
C14B C13B 1_555 1_555
H10B C14B 1_555 1_555
C15B C10B 1_555 1_555
H11B C15B 1_555 1_555
C17B C16 1_555 1_555
C18B C17B 1_555 1_555
H12B C18B 1_555 1_555
C19B C18B 1_555 1_555
H13B C19B 1_555 1_555
C20B C19B 1_555 1_555
C21B C20B 1_555 1_555
H14B C21B 1_555 1_555
C22B C17B 1_555 1_555
H15B C22B 1_555 1_555
C23B N4B 1_555 1_555
C24B C23B 1_555 1_555
H16B C24B 1_555 1_555
C25B N6B 1_555 1_555
C26B C25B 1_555 1_555
H17B C26B 1_555 1_555
C27B C26B 1_555 1_555
H18B C27B 1_555 1_555
C28B C27B 1_555 1_555
C29B C28B 1_555 1_555
H19B C29B 1_555 1_555
C30B C25B 1_555 1_555
H20B C30B 1_555 1_555
C31B C28B 1_555 1_555
Cu1B O1B 1_555 1_555
O5B Cu1B 1_555 1_555
H1B O5B 1_555 1_555
H2B O5B 1_555 1_555
Cu1_2 O2B 1_555 1_555
Cu1A O3 1_555 1_555
Cu1A_2 O4B 1_555 1_555
Cu1B_2 Cu1 1_555 1_555
Cu1C O4 1_555 1_555
Cu1C_2 O3B 1_555 1_555
O2_2 Cu1B 1_555 1_555
O2B_2 Cu1 1_555 1_555
O3A Cu1B 1_555 1_555
O3C Cu1 1_555 1_555
O4A Cu1 1_555 1_555
O4C Cu1B 1_555 1_555
O2 Cu1B_2 1_555 1_555
C4 C5 1_555 1_555
C6 C7 1_555 1_555
C14 C15 1_555 1_555
C20 C23 1_555 1_555
C21 C22 1_555 1_555
C29 C30 1_555 1_555
C4B C5B 1_555 1_555
C6B C7B 1_555 1_555
C12B C13B 1_555 1_555
C14B C15B 1_555 1_555
C20B C23B 1_555 1_555
C21B C22B 1_555 1_555
C29B C30B 1_555 1_555
Cu1B Cu1_2 1_555 1_555
Cu1A Cu1C 1_555 1_555
Cu1A_2 Cu1C_2 1_555 1_555

#END
