
#######################################################################
#
#                 Cambridge Crystallographic Data Centre
#                                CCDC 
#
#######################################################################
#
# If this CIF has been generated from an entry in the Cambridge 
# Structural Database, then it will include bibliographic, chemical, 
# crystal, experimental, refinement or atomic coordinate data resulting 
# from the CCDC's data processing and validation procedures.
#
#######################################################################

data_NATKOL
_chemical_formula_moiety         '(C61 H40 Cu2 N12 O10)n'
_symmetry_cell_setting           tetragonal
_symmetry_space_group_name_H-M   'P 42 21 2'
_symmetry_Int_Tables_number      94
_space_group_name_Hall           'P 4n 2n'
loop_
_symmetry_equiv_pos_site_id
_symmetry_equiv_pos_as_xyz
1 x,y,z
2 1/2-y,1/2+x,1/2+z
3 1/2+x,1/2-y,1/2-z
4 -x,-y,z
5 -y,-x,-z
6 y,x,-z
7 1/2+y,1/2-x,1/2+z
8 1/2-x,1/2+y,1/2-z
_cell_length_a                   16.0604(4)
_cell_length_b                   16.0604(4)
_cell_length_c                   44.1170(11)
_cell_angle_alpha                90
_cell_angle_beta                 90
_cell_angle_gamma                90
_cell_volume                     11379.4
loop_
_atom_site_label
_atom_site_type_symbol
_atom_site_fract_x
_atom_site_fract_y
_atom_site_fract_z
Cu1 Cu 1.45842(5) -0.07051(5) 0.71035(2)
O1 O 1.3897(3) -0.0144(3) 0.68041(8)
O2 O 1.4666(3) 0.1017(3) 0.67740(8)
C1 C 1.0341(4) 0.4302(4) 0.48094(8)
C2 C 1.000000 0.500000 0.46021(13)
N1 N 1.1979(4) 0.1724(4) 0.57431(11)
C3 C 0.9310(4) 0.4670(4) 0.43915(9)
O3 O 1.3897(4) -0.1865(3) 0.71185(12)
H1 H 1.385429 -0.205456 0.694654
H2 H 1.361405 -0.155204 0.723613
C4 C 1.3497(5) 0.0901(4) 0.64508(11)
C5 C 1.1003(4) 0.3067(4) 0.51919(11)
N2 N 0.6724(4) 0.3011(5) 0.34772(13)
C6 C 1.1329(5) 0.2430(5) 0.53971(12)
C7 C 0.8056(4) 0.4019(4) 0.40033(11)
C8 C 0.8444(4) 0.4835(4) 0.44460(11)
H3 H 0.828747 0.516105 0.461059
C9 C 1.0805(4) 0.4507(4) 0.50565(10)
H4 H 1.088049 0.506633 0.510338
C10 C 1.4060(5) 0.0566(5) 0.66987(11)
C11 C 0.7836(4) 0.4509(5) 0.42546(13)
H5 H 0.727723 0.461834 0.429352
N3 N 1.1061(5) 0.1611(4) 0.53915(12)
C12 C 1.1919(5) 0.2511(5) 0.56186(14)
H6 H 1.221205 0.298703 0.567312
N4 N 1.1451(5) 0.1178(4) 0.56039(13)
C13 C 0.9483(4) 0.4193(4) 0.41391(10)
H7 H 1.003694 0.407489 0.409518
C14 C 1.3758(5) 0.1568(5) 0.62855(12)
H8 H 1.425732 0.183523 0.632913
C15 C 0.8884(4) 0.3885(5) 0.39507(11)
H9 H 0.904352 0.357665 0.378197
C16 C 0.7469(5) 0.3158(5) 0.35708(12)
H10 H 0.795863 0.295276 0.348687
C17 C 1.0524(5) 0.2863(4) 0.49454(13)
H11 H 1.041481 0.230658 0.490246
C18 C 1.1171(5) 0.3906(4) 0.52416(11)
H12 H 1.152588 0.406461 0.539771
C19 C 1.0203(5) 0.3480(4) 0.47603(12)
H13 H 0.987923 0.332447 0.459504
C20 C 1.2500(5) 0.1445(5) 0.59887(12)
C21 C 1.2749(5) 0.0488(5) 0.63856(13)
H14 H 1.259214 0.001953 0.649528
C22 C 1.2261(5) 0.0782(5) 0.61613(14)
H15 H 1.175085 0.052847 0.612351
C23 C 1.3237(5) 0.1842(5) 0.60422(14)
H16 H 1.339886 0.228834 0.592133
C24 C 0.7409(5) 0.3656(5) 0.38081(15)
C25 C 0.6437(5) 0.2460(6) 0.32294(15)
N5 N 0.6618(5) 0.3763(7) 0.3858(2)
N6 N 0.6182(5) 0.3396(8) 0.3646(2)
C26 C 0.6945(6) 0.1918(6) 0.31105(17)
H17 H 0.748141 0.185258 0.318636
C27 C 0.6664(5) 0.1434(5) 0.28640(16)
H18 H 0.702665 0.105955 0.277204
C28 C 0.5621(6) 0.2584(7) 0.31252(19)
H19 H 0.526862 0.297022 0.321576
C29 C 0.5363(5) 0.2102(6) 0.28796(18)
H20 H 0.483690 0.219084 0.279778
C30 C 0.5857(5) 0.1507(5) 0.27571(13)
C31 C 0.5539(6) 0.0941(5) 0.25114(13)
O4 O 0.4800(3) 0.1056(3) 0.24306(8)
O5 O 0.6052(3) 0.0421(3) 0.24041(8)
O1C O 0.6103(3) 1.0144(3) 0.68041(8)
O2C O 0.5334(3) 0.8983(3) 0.67740(8)
C1C C 0.9659(4) 0.5698(4) 0.48094(8)
N1C N 0.8021(4) 0.8276(4) 0.57431(11)
C3C C 1.0690(4) 0.5330(4) 0.43915(9)
C4C C 0.6503(5) 0.9099(4) 0.64508(11)
C5C C 0.8997(4) 0.6933(4) 0.51919(11)
N2C N 1.3276(4) 0.6989(5) 0.34772(13)
C6C C 0.8671(5) 0.7570(5) 0.53971(12)
C7C C 1.1944(4) 0.5981(4) 0.40033(11)
C8C C 1.1556(4) 0.5165(4) 0.44460(11)
H3C H 1.171253 0.483895 0.461059
C9C C 0.9195(4) 0.5493(4) 0.50565(10)
H4C H 0.911951 0.493367 0.510338
C10C C 0.5940(5) 0.9434(5) 0.66987(11)
C11C C 1.2164(4) 0.5491(5) 0.42546(13)
H5C H 1.272277 0.538166 0.429352
N3C N 0.8939(5) 0.8389(4) 0.53915(12)
C12C C 0.8081(5) 0.7489(5) 0.56186(14)
H6C H 0.778795 0.701297 0.567312
N4C N 0.8549(5) 0.8822(4) 0.56039(13)
C13C C 1.0517(4) 0.5807(4) 0.41391(10)
H7C H 0.996306 0.592511 0.409518
C14C C 0.6242(5) 0.8432(5) 0.62855(12)
H8C H 0.574268 0.816477 0.632913
C15C C 1.1116(4) 0.6115(5) 0.39507(11)
H9C H 1.095648 0.642335 0.378197
C16C C 1.2531(5) 0.6842(5) 0.35708(12)
H10C H 1.204137 0.704724 0.348687
C17C C 0.9476(5) 0.7137(4) 0.49454(13)
H11C H 0.958519 0.769342 0.490246
C18C C 0.8829(5) 0.6094(4) 0.52416(11)
H12C H 0.847412 0.593539 0.539771
C19C C 0.9797(5) 0.6520(4) 0.47603(12)
H13C H 1.012077 0.667553 0.459504
C20C C 0.7500(5) 0.8555(5) 0.59887(12)
C21C C 0.7251(5) 0.9512(5) 0.63856(13)
H14C H 0.740786 0.998047 0.649528
C22C C 0.7739(5) 0.9218(5) 0.61613(14)
H15C H 0.824915 0.947153 0.612351
C23C C 0.6763(5) 0.8158(5) 0.60422(14)
H16C H 0.660114 0.771166 0.592133
C24C C 1.2591(5) 0.6344(5) 0.38081(15)
C25C C 1.3563(5) 0.7540(6) 0.32294(15)
N5C N 1.3382(5) 0.6237(7) 0.3858(2)
N6C N 1.3818(5) 0.6604(8) 0.3646(2)
C26C C 1.3055(6) 0.8082(6) 0.31105(17)
H17C H 1.251859 0.814742 0.318636
C27C C 1.3336(5) 0.8566(5) 0.28640(16)
H18C H 1.297335 0.894045 0.277204
C28C C 1.4379(6) 0.7416(7) 0.31252(19)
H19C H 1.473138 0.702978 0.321576
C29C C 1.4637(5) 0.7898(6) 0.28796(18)
H20C H 1.516310 0.780916 0.279778
C30C C 1.4143(5) 0.8493(5) 0.27571(13)
C31C C 1.4461(6) 0.9059(5) 0.25114(13)
O4C O 1.5200(3) 0.8944(3) 0.24306(8)
O5C O 1.3948(3) 0.9579(3) 0.24041(8)
Cu1C Cu 0.54158(5) 1.07051(5) 0.71035(2)
O3C O 0.6103(4) 1.1865(3) 0.71185(12)
H1C H 0.614571 1.205456 0.694654
H2C H 0.638595 1.155204 0.723613
Cu1_2 Cu 0.45842(5) 0.92949(5) 0.71035(2)
Cu1A Cu 0.57051(5) -0.04158(5) 0.21035(2)
Cu1A_2 Cu 1.57051(5) 0.95842(5) 0.21035(2)
Cu1C_2 Cu 1.54158(5) 0.07051(5) 0.71035(2)
Cu1F Cu 0.42949(5) 0.04158(5) 0.21035(2)
Cu1F_2 Cu 1.42949(5) 1.04158(5) 0.21035(2)
O2_2 O 0.4666(3) 1.1017(3) 0.67740(8)
O2C_2 O 1.5334(3) -0.1017(3) 0.67740(8)
O4A O 1.3944(3) -0.0200(3) 0.74306(8)
O4F O 0.6056(3) 1.0200(3) 0.74306(8)
O5A O 0.4579(3) 1.1052(3) 0.74041(8)
O5F O 1.5421(3) -0.1052(3) 0.74041(8)
loop_
_geom_bond_atom_site_label_1
_geom_bond_atom_site_label_2
_geom_bond_site_symmetry_1
_geom_bond_site_symmetry_2
Cu1 O1 1_555 1_555
O1 C10 1_555 1_555
O2 C10 1_555 1_555
C1 C2 1_555 1_555
C2 C3 1_555 1_555
N1 C12 1_555 1_555
C3 C8 1_555 1_555
O3 Cu1 1_555 1_555
H1 O3 1_555 1_555
H2 O3 1_555 1_555
C4 C10 1_555 1_555
C5 C6 1_555 1_555
N2 C16 1_555 1_555
C6 N3 1_555 1_555
C7 C11 1_555 1_555
C8 H3 1_555 1_555
C9 C1 1_555 1_555
H4 C9 1_555 1_555
C11 C8 1_555 1_555
H5 C11 1_555 1_555
N3 N4 1_555 1_555
C12 C6 1_555 1_555
H6 C12 1_555 1_555
N4 N1 1_555 1_555
C13 C3 1_555 1_555
H7 C13 1_555 1_555
C14 C4 1_555 1_555
H8 C14 1_555 1_555
C15 C7 1_555 1_555
H9 C15 1_555 1_555
C16 H10 1_555 1_555
C17 C5 1_555 1_555
H11 C17 1_555 1_555
C18 C5 1_555 1_555
H12 C18 1_555 1_555
C19 C1 1_555 1_555
H13 C19 1_555 1_555
C20 N1 1_555 1_555
C21 C4 1_555 1_555
H14 C21 1_555 1_555
C22 C20 1_555 1_555
H15 C22 1_555 1_555
C23 C14 1_555 1_555
H16 C23 1_555 1_555
C24 C7 1_555 1_555
C25 N2 1_555 1_555
N5 C24 1_555 1_555
N6 N2 1_555 1_555
C26 C25 1_555 1_555
H17 C26 1_555 1_555
C27 C26 1_555 1_555
H18 C27 1_555 1_555
C28 C25 1_555 1_555
H19 C28 1_555 1_555
C29 C28 1_555 1_555
H20 C29 1_555 1_555
C30 C27 1_555 1_555
C31 C30 1_555 1_555
O4 C31 1_555 1_555
O5 C31 1_555 1_555
O1C C10C 1_555 1_555
O2C C10C 1_555 1_555
C1C C2 1_555 1_555
N1C C12C 1_555 1_555
C3C C2 1_555 1_555
C4C C10C 1_555 1_555
C5C C6C 1_555 1_555
N2C C16C 1_555 1_555
C6C N3C 1_555 1_555
C7C C11C 1_555 1_555
C8C C3C 1_555 1_555
H3C C8C 1_555 1_555
C9C C1C 1_555 1_555
H4C C9C 1_555 1_555
C11C C8C 1_555 1_555
H5C C11C 1_555 1_555
N3C N4C 1_555 1_555
C12C C6C 1_555 1_555
H6C C12C 1_555 1_555
N4C N1C 1_555 1_555
C13C C3C 1_555 1_555
H7C C13C 1_555 1_555
C14C C4C 1_555 1_555
H8C C14C 1_555 1_555
C15C C7C 1_555 1_555
H9C C15C 1_555 1_555
C16C H10C 1_555 1_555
C17C C5C 1_555 1_555
H11C C17C 1_555 1_555
C18C C5C 1_555 1_555
H12C C18C 1_555 1_555
C19C C1C 1_555 1_555
H13C C19C 1_555 1_555
C20C N1C 1_555 1_555
C21C C4C 1_555 1_555
H14C C21C 1_555 1_555
C22C C20C 1_555 1_555
H15C C22C 1_555 1_555
C23C C14C 1_555 1_555
H16C C23C 1_555 1_555
C24C C7C 1_555 1_555
C25C N2C 1_555 1_555
N5C C24C 1_555 1_555
N6C N2C 1_555 1_555
C26C C25C 1_555 1_555
H17C C26C 1_555 1_555
C27C C26C 1_555 1_555
H18C C27C 1_555 1_555
C28C C25C 1_555 1_555
H19C C28C 1_555 1_555
C29C C28C 1_555 1_555
H20C C29C 1_555 1_555
C30C C27C 1_555 1_555
C31C C30C 1_555 1_555
O4C C31C 1_555 1_555
O5C C31C 1_555 1_555
Cu1C O1C 1_555 1_555
O3C Cu1C 1_555 1_555
H1C O3C 1_555 1_555
H2C O3C 1_555 1_555
Cu1_2 O2C 1_555 1_555
Cu1A O5 1_555 1_555
Cu1A_2 O4C 1_555 1_555
Cu1C_2 Cu1 1_555 1_555
Cu1F O4 1_555 1_555
Cu1F_2 O5C 1_555 1_555
O2_2 Cu1C 1_555 1_555
O2C_2 Cu1 1_555 1_555
O4A Cu1 1_555 1_555
O4F Cu1C 1_555 1_555
O5A Cu1C 1_555 1_555
O5F Cu1 1_555 1_555
O2 Cu1C_2 1_555 1_555
C9 C18 1_555 1_555
C13 C15 1_555 1_555
C16 C24 1_555 1_555
C17 C19 1_555 1_555
C20 C23 1_555 1_555
C21 C22 1_555 1_555
N5 N6 1_555 1_555
C29 C30 1_555 1_555
C9C C18C 1_555 1_555
C13C C15C 1_555 1_555
C16C C24C 1_555 1_555
C17C C19C 1_555 1_555
C20C C23C 1_555 1_555
C21C C22C 1_555 1_555
N5C N6C 1_555 1_555
C29C C30C 1_555 1_555
Cu1C Cu1_2 1_555 1_555
Cu1A Cu1F 1_555 1_555
Cu1A_2 Cu1F_2 1_555 1_555

#END
