
#######################################################################
#
#                 Cambridge Crystallographic Data Centre
#                                CCDC 
#
#######################################################################
#
# If this CIF has been generated from an entry in the Cambridge 
# Structural Database, then it will include bibliographic, chemical, 
# crystal, experimental, refinement or atomic coordinate data resulting 
# from the CCDC's data processing and validation procedures.
#
#######################################################################

data_ETEMIB
_chemical_formula_moiety         '(C30 H24 Co4 N6 O16)n'
_symmetry_cell_setting           monoclinic
_symmetry_space_group_name_H-M   'P 21/n'
_symmetry_Int_Tables_number      14
_space_group_name_Hall           '-P 2yn'
loop_
_symmetry_equiv_pos_site_id
_symmetry_equiv_pos_as_xyz
1 x,y,z
2 1/2-x,1/2+y,1/2-z
3 -x,-y,-z
4 1/2+x,1/2-y,1/2+z
_cell_length_a                   10.1845(4)
_cell_length_b                   20.8747(8)
_cell_length_c                   10.7070(6)
_cell_angle_alpha                90
_cell_angle_beta                 101.876(5)
_cell_angle_gamma                90
_cell_volume                     2227.57
loop_
_atom_site_label
_atom_site_type_symbol
_atom_site_fract_x
_atom_site_fract_y
_atom_site_fract_z
Co1 Co -0.08538(3) 0.44935(2) 0.55978(4)
Co2 Co 0.07706(3) 0.38594(2) 0.36418(4)
O1 O -0.05291(17) 0.35448(9) 0.6131(2)
O2 O 0.10913(17) 0.31866(9) 0.5149(2)
O3 O -0.31655(17) 0.16720(10) 0.7483(2)
O4 O -0.19461(18) 0.09967(10) 0.8776(2)
O5 O 0.29205(17) 0.07902(9) 0.8823(2)
O6 O 0.39639(16) 0.15909(9) 0.8050(2)
O7 O 0.09379(16) 0.45603(8) 0.49290(19)
H1 H 0.161(2) 0.4538(13) 0.558(2)
O8 O -0.26765(19) 0.45750(12) 0.6282(2)
H2 H -0.327(3) 0.4240(10) 0.622(3)
H3 H -0.315(3) 0.4918(9) 0.615(4)
N1 N 0.0106(2) 0.48016(11) 0.7454(2)
N2 N -0.0012(2) 0.54360(11) 0.7797(2)
N3 N 0.1339(2) 0.49484(13) 0.9355(3)
C1 C 0.3742(3) 0.49194(18) 1.0290(3)
C2 C 0.4269(3) 0.55221(19) 1.0237(4)
H4 H 0.3773 0.5881 1.0400
C3 C 0.4481(3) 0.43930(18) 1.0054(4)
H5 H 0.4134 0.3978 1.0091
C4 C 0.2349(3) 0.4834(2) 1.0539(3)
H6 H 0.2248 0.4399 1.0847
H7 H 0.2207 0.5136 1.1200
C5 C 0.0915(3) 0.45251(15) 0.8404(3)
H8 H 0.1168 0.4092 0.8423
C6 C 0.0744(3) 0.55083(15) 0.8936(3)
H9 H 0.0857 0.5895 0.9395
C7 C 0.0326(2) 0.25089(13) 0.6611(3)
C8 C -0.0835(2) 0.22638(13) 0.6931(3)
H10 H -0.1654 0.2482 0.6677
C9 C -0.0785(2) 0.17001(13) 0.7623(3)
C10 C 0.0427(2) 0.13911(13) 0.8031(3)
H11 H 0.0463 0.1017 0.8526
C11 C 0.1602(2) 0.16287(13) 0.7718(3)
C12 C 0.1533(2) 0.21792(13) 0.6986(3)
H12 H 0.2309 0.2332 0.6738
C13 C 0.0295(2) 0.31279(13) 0.5896(3)
C14 C -0.2036(3) 0.14396(13) 0.7982(3)
C15 C 0.2922(2) 0.13113(13) 0.8233(3)
N1B N 0.9894(2) 0.51984(11) 1.2546(2)
N2B N 1.0012(2) 0.45640(11) 1.2203(2)
N3B N 0.8661(2) 0.50516(13) 1.0645(3)
C1B C 0.6258(3) 0.50806(18) 0.9710(3)
C2B C 0.5731(3) 0.44779(19) 0.9763(4)
H4B H 0.6227 0.4119 0.9600
C3B C 0.5519(3) 0.56070(18) 0.9946(4)
H5B H 0.5866 0.6022 0.9909
C4B C 0.7651(3) 0.5166(2) 0.9461(3)
H6B H 0.7752 0.5601 0.9153
H7B H 0.7793 0.4864 0.8800
C5B C 0.9085(3) 0.54749(15) 1.1596(3)
H8B H 0.8832 0.5908 1.1577
C6B C 0.9256(3) 0.44917(15) 1.1064(3)
H9B H 0.9143 0.4105 1.0605
Co1B Co 0.08538(3) 0.55065(2) 0.44022(4)
Co2B Co -0.07706(3) 0.61406(2) 0.63582(4)
O1B O 0.05291(17) 0.64552(9) 0.3869(2)
O2B O -0.10913(17) 0.68134(9) 0.4851(2)
O3B O 0.31655(17) 0.83280(10) 0.2517(2)
O4B O 0.19461(18) 0.90033(10) 0.1224(2)
O5B O -0.29205(17) 0.92098(9) 0.1177(2)
O6B O -0.39639(16) 0.84091(9) 0.1950(2)
O7B O -0.09379(16) 0.54397(8) 0.50710(19)
H1B H -0.161(2) 0.5462(13) 0.442(2)
O8B O 0.26765(19) 0.54250(12) 0.3718(2)
H2B H 0.327(3) 0.5760(10) 0.378(3)
H3B H 0.315(3) 0.5082(9) 0.385(4)
C7B C -0.0326(2) 0.74911(13) 0.3389(3)
C8B C 0.0835(2) 0.77362(13) 0.3069(3)
H10B H 0.1654 0.7518 0.3323
C9B C 0.0785(2) 0.82999(13) 0.2377(3)
C10B C -0.0427(2) 0.86089(13) 0.1969(3)
H11B H -0.0463 0.8983 0.1474
C11B C -0.1602(2) 0.83713(13) 0.2282(3)
C12B C -0.1533(2) 0.78208(13) 0.3014(3)
H12B H -0.2309 0.7668 0.3262
C13B C -0.0295(2) 0.68721(13) 0.4104(3)
C14B C 0.2036(3) 0.85604(13) 0.2018(3)
C15B C -0.2922(2) 0.86887(13) 0.1767(3)
Co1A Co -0.41462(3) 0.94935(2) -0.05978(4)
Co1B_2 Co 1.08538(3) 0.55065(2) 1.44022(4)
Co1C Co 0.41462(3) 0.05065(2) 1.05978(4)
Co2_2 Co 1.07706(3) 0.38594(2) 1.36418(4)
Co2A Co -0.57706(3) 0.88594(2) 0.13582(4)
Co2A_2 Co 0.42294(3) 0.88594(2) 0.13582(4)
Co2C Co -0.42294(3) 0.11406(2) 0.86418(4)
Co2C_2 Co 0.57706(3) 0.11406(2) 0.86418(4)
O3A O -0.18345(17) 0.66720(10) 0.7517(2)
O3C O 0.18345(17) 0.33280(10) 0.2483(2)
O4A O -0.30539(18) 0.59967(10) 0.6224(2)
O4C O 0.30539(18) 0.40033(10) 0.3776(2)
O5A O 0.20795(17) 0.57902(9) 0.6177(2)
O5C O -0.20795(17) 0.42098(9) 0.3823(2)
O6A O 0.10361(16) 0.65909(9) 0.6950(2)
O6C O -0.10361(16) 0.34091(9) 0.3050(2)
N1B_2 N -0.0106(2) 0.51984(11) 0.2546(2)
N2B_2 N 0.0012(2) 0.45640(11) 0.2203(2)
loop_
_geom_bond_atom_site_label_1
_geom_bond_atom_site_label_2
_geom_bond_site_symmetry_1
_geom_bond_site_symmetry_2
Co1 O1 1_555 1_555
Co2 O2 1_555 1_555
O1 C13 1_555 1_555
O2 C13 1_555 1_555
O3 C14 1_555 1_555
O4 C14 1_555 1_555
O5 C15 1_555 1_555
O6 C15 1_555 1_555
O7 Co1 1_555 1_555
H1 O7 1_555 1_555
O8 Co1 1_555 1_555
H2 O8 1_555 1_555
H3 O8 1_555 1_555
N1 Co1 1_555 1_555
N2 N1 1_555 1_555
N3 C4 1_555 1_555
C1 C2 1_555 1_555
C2 H4 1_555 1_555
C3 C1 1_555 1_555
H5 C3 1_555 1_555
C4 C1 1_555 1_555
H6 C4 1_555 1_555
H7 C4 1_555 1_555
C5 N1 1_555 1_555
H8 C5 1_555 1_555
C6 N2 1_555 1_555
H9 C6 1_555 1_555
C7 C8 1_555 1_555
C8 H10 1_555 1_555
C9 C8 1_555 1_555
C10 C9 1_555 1_555
H11 C10 1_555 1_555
C11 C10 1_555 1_555
C12 C7 1_555 1_555
H12 C12 1_555 1_555
C13 C7 1_555 1_555
C14 C9 1_555 1_555
C15 C11 1_555 1_555
N1B N2B 1_555 1_555
N2B C6B 1_555 1_555
N3B C4B 1_555 1_555
C1B C2B 1_555 1_555
C2B C3 1_555 1_555
H4B C2B 1_555 1_555
C3B C2 1_555 1_555
H5B C3B 1_555 1_555
C4B C1B 1_555 1_555
H6B C4B 1_555 1_555
H7B C4B 1_555 1_555
C5B N1B 1_555 1_555
H8B C5B 1_555 1_555
C6B N3B 1_555 1_555
H9B C6B 1_555 1_555
Co1B O7 1_555 1_555
Co2B N2 1_555 1_555
O1B Co1B 1_555 1_555
O2B Co2B 1_555 1_555
O3B C14B 1_555 1_555
O4B C14B 1_555 1_555
O5B C15B 1_555 1_555
O6B C15B 1_555 1_555
O7B Co1 1_555 1_555
H1B O7B 1_555 1_555
O8B Co1B 1_555 1_555
H2B O8B 1_555 1_555
H3B O8B 1_555 1_555
C7B C8B 1_555 1_555
C8B H10B 1_555 1_555
C9B C8B 1_555 1_555
C10B C9B 1_555 1_555
H11B C10B 1_555 1_555
C11B C10B 1_555 1_555
C12B C7B 1_555 1_555
H12B C12B 1_555 1_555
C13B O1B 1_555 1_555
C14B C9B 1_555 1_555
C15B C11B 1_555 1_555
Co1A O5B 1_555 1_555
Co1B_2 N1B 1_555 1_555
Co1C O5 1_555 1_555
Co2_2 N2B 1_555 1_555
Co2A O6B 1_555 1_555
Co2A_2 O3B 1_555 1_555
Co2C O3 1_555 1_555
Co2C_2 O6 1_555 1_555
O3A Co2B 1_555 1_555
O3C Co2 1_555 1_555
O4A Co2B 1_555 1_555
O4C Co2 1_555 1_555
O5A Co1B 1_555 1_555
O5C Co1 1_555 1_555
O6A Co2B 1_555 1_555
O6C Co2 1_555 1_555
N1B_2 Co1B 1_555 1_555
N2B_2 Co2 1_555 1_555
Co2 O7 1_555 1_555
O4 Co2C 1_555 1_555
N3 C5 1_555 1_555
N3 C6 1_555 1_555
C11 C12 1_555 1_555
N3B C5B 1_555 1_555
C1B C3B 1_555 1_555
Co1B O7B 1_555 1_555
Co2B O7B 1_555 1_555
O2B C13B 1_555 1_555
O4B Co2A_2 1_555 1_555
C7B C13B 1_555 1_555
C11B C12B 1_555 1_555
N1B_2 N2B_2 1_555 1_555

#END
