
#######################################################################
#
#                 Cambridge Crystallographic Data Centre
#                                CCDC 
#
#######################################################################
#
# If this CIF has been generated from an entry in the Cambridge 
# Structural Database, then it will include bibliographic, chemical, 
# crystal, experimental, refinement or atomic coordinate data resulting 
# from the CCDC's data processing and validation procedures.
#
#######################################################################

data_ETEMEX
_chemical_formula_moiety         '(C36 H29 Co4 N9 O23)n'
_symmetry_cell_setting           triclinic
_symmetry_space_group_name_H-M   'P -1'
_symmetry_Int_Tables_number      2
_space_group_name_Hall           '-P 1'
loop_
_symmetry_equiv_pos_site_id
_symmetry_equiv_pos_as_xyz
1 x,y,z
2 -x,-y,-z
_cell_length_a                   10.7998(3)
_cell_length_b                   14.5731(5)
_cell_length_c                   17.0590(6)
_cell_angle_alpha                78.401(3)
_cell_angle_beta                 89.438(2)
_cell_angle_gamma                83.039(2)
_cell_volume                     2610.35
loop_
_atom_site_label
_atom_site_type_symbol
_atom_site_fract_x
_atom_site_fract_y
_atom_site_fract_z
Co1 Co 0.26760(3) 0.88879(2) 1.50835(2)
Co2 Co 0.49278(3) 1.01918(2) 1.40603(2)
Co3 Co 0.73662(3) 0.58668(2) 0.97474(2)
Co4 Co 0.50062(3) 0.46401(2) 0.91805(2)
O1 O 0.81833(16) 1.02926(12) 0.59125(10)
O2 O 0.69689(15) 0.91278(12) 0.60136(10)
O3 O 0.74138(17) 0.66037(14) 0.84629(12)
O4 O 0.90253(16) 0.64625(13) 0.92704(11)
O5 O 0.27805(16) 0.78332(13) 0.61797(11)
O6 O 0.09534(17) 0.82027(13) 0.55816(11)
O7 O 0.44705(15) 0.91660(12) 1.50221(10)
O8 O 0.17881(15) 0.46035(12) 0.91528(10)
O9 O 0.33210(15) 0.54811(13) 0.87347(11)
O10 O 0.55527(15) 0.57346(12) 0.96156(10)
O11 O 0.44853(17) 0.96934(14) 1.30671(11)
O12 O 0.4485(3) 0.81433(17) 1.32163(15)
O13 O 0.68210(16) 0.71824(12) 1.00652(11)
O14 O 0.55708(16) 0.65648(12) 1.10483(11)
O15 O 0.5911(2) 1.13931(14) 1.04347(13)
O16 O 0.7054(8) 1.0633(7) 0.9724(5)
O17 O -0.1802(8) 0.4828(6) 0.7474(4)
O18 O -0.2111(10) 0.5868(8) 0.6372(6)
O19 O 0.53200(18) 1.14145(14) 1.32477(11)
H1 H 0.6113 1.1543 1.3302
H2 H 0.5226 1.1356 1.2735
O20 O 0.56096(19) 0.50782(16) 0.79820(12)
H3 H 0.5166 0.5638 0.7715
H4 H 0.6440 0.5182 0.7953
O21 O 0.3014(2) 0.77949(14) 1.44491(13)
H5 H 0.3216 0.7244 1.4778
H6 H 0.3639 0.7894 1.4114
O22 O 1.1829(2) 0.9850(2) 0.76609(16)
O23 O 1.1619(7) 0.9066(6) 0.8860(4)
N1 N 1.22430(19) 0.00475(15) 0.56611(13)
N2 N 1.31755(18) 0.04502(15) 0.59512(13)
N3 N 1.1435(2) 0.13843(16) 0.59435(14)
N4 N 0.86670(19) 0.30750(15) 0.94586(13)
N5 N 0.78147(18) 0.44966(14) 0.94911(13)
N6 N 0.68797(19) 0.39557(15) 0.94044(13)
N7 N 0.6419(2) 1.06441(17) 1.03067(14)
N8 N 1.1440(3) 0.9190(3) 0.8092(2)
N9 N -0.1480(3) 0.5479(2) 0.6962(2)
C1 C 1.1209(2) 0.0625(2) 0.56567(16)
H7 H 1.0426 0.0522 0.5479
C2 C 1.2665(2) 0.1247(2) 0.61210(17)
H8 H 1.3096 0.1665 0.6336
C3 C 1.0515(3) 0.2199(2) 0.60429(18)
H9 H 0.9726 0.2160 0.5779
H10 H 1.0826 0.2787 0.5783
C4 C 1.0284(3) 0.2215(2) 0.69151(18)
C5 C 1.1036(3) 0.2659(2) 0.73336(19)
H11 H 1.1693 0.2958 0.7071
C6 C 1.0833(3) 0.2667(2) 0.81349(19)
H12 H 1.1350 0.2974 0.8411
C7 C 0.9875(2) 0.22257(19) 0.85319(17)
C8 C 0.9118(3) 0.1787(2) 0.8112(2)
H13 H 0.8460 0.1489 0.8375
C9 C 0.9314(3) 0.1780(2) 0.7315(2)
H14 H 0.8790 0.1480 0.7039
C10 C 0.9620(3) 0.2273(2) 0.93992(18)
H15 H 0.9328 0.1683 0.9675
H16 H 1.0394 0.2345 0.9663
C11 C 0.8871(2) 0.39533(18) 0.95213(15)
H17 H 0.9659 0.4145 0.9578
C12 C 0.7421(2) 0.31121(19) 0.93802(17)
H18 H 0.7001 0.2602 0.9317
C13 C 0.7859(2) 0.94954(17) 0.62342(15)
C14 C 0.8623(2) 0.89660(18) 0.69512(15)
C15 C 0.8240(2) 0.81557(18) 0.74192(15)
H19 H 0.7522 0.7923 0.7270
C16 C 0.8911(2) 0.76849(19) 0.81071(15)
C17 C 0.9968(2) 0.8013(2) 0.83281(16)
H20 H 1.0427 0.7702 0.8791
C18 C 1.0338(3) 0.8816(2) 0.78498(18)
C19 C 0.9684(2) 0.9302(2) 0.71780(16)
H21 H 0.9951 0.9855 0.6876
C20 C 0.8432(2) 0.68574(19) 0.86402(16)
C21 C 0.2267(2) 0.52368(17) 0.86620(15)
C22 C 0.1498(2) 0.57093(18) 0.79319(15)
C23 C 0.1895(2) 0.64703(18) 0.73920(15)
H22 H 0.2654 0.6687 0.7488
C24 C 0.1180(2) 0.69121(18) 0.67124(15)
C25 C 0.0063(2) 0.65908(19) 0.65629(17)
H23 H -0.0431 0.6881 0.6109
C26 C -0.0301(2) 0.5829(2) 0.71039(18)
C27 C 0.0392(2) 0.53850(19) 0.77785(16)
H24 H 0.0115 0.4869 0.8130
C28 C 0.1644(2) 0.77052(18) 0.61216(15)
C29 C 0.6149(2) 0.72155(18) 1.06690(15)
C30 C 0.5992(2) 0.81178(18) 1.09785(16)
C31 C 0.6366(2) 0.89410(18) 1.05314(16)
H25 H 0.6787 0.8937 1.0047
C32 C 0.6105(2) 0.97652(18) 1.08152(16)
C33 C 0.5550(2) 0.97936(19) 1.15450(16)
H26 H 0.5398 1.0364 1.1727
C34 C 0.5219(2) 0.89583(19) 1.20048(16)
C35 C 0.5430(2) 0.81325(19) 1.17069(16)
H27 H 0.5183 0.7572 1.2008
C36 C 0.4670(3) 0.8933(2) 1.28253(17)
H28 H 0.5068(17) 0.8669(11) 1.5075(18)
H29 H 0.505(2) 0.6266(12) 0.9410(18)
Co1_2 Co 0.26760(3) 0.88879(2) 0.50835(2)
Co1_3 Co 1.26760(3) -0.11121(2) 0.50835(2)
Co1A Co 0.73240(3) 1.11121(2) 0.49165(2)
Co2A Co 0.50722(3) 0.98082(2) 0.59397(2)
Co2A_2 Co 0.50722(3) 0.98082(2) 1.59397(2)
Co2A_3 Co 1.50722(3) -0.01918(2) 0.59397(2)
Co3A Co 0.26338(3) 0.41332(2) 1.02526(2)
Co4A Co 0.49938(3) 0.53599(2) 1.08195(2)
O1A O 0.18167(16) 0.97074(12) 1.40875(10)
O2A O 0.30311(15) 1.08722(12) 1.39864(10)
O5_2 O 0.27805(16) 0.78332(13) 1.61797(11)
O6_2 O 0.09534(17) 0.82027(13) 1.55816(11)
O7A O 0.55295(15) 1.08340(12) 1.49779(10)
O8A O 0.82119(15) 0.53965(12) 1.08472(10)
O10A O 0.44473(15) 0.42654(12) 1.03844(10)
O14A O 0.44292(16) 0.34352(12) 0.89517(11)
N1_2 N 0.22430(19) 1.00475(15) 1.56611(13)
N2A N 0.68245(18) 0.95498(15) 1.40488(13)
loop_
_geom_bond_atom_site_label_1
_geom_bond_atom_site_label_2
_geom_bond_site_symmetry_1
_geom_bond_site_symmetry_2
Co1 O7 1_555 1_555
Co2 O7 1_555 1_555
Co3 O3 1_555 1_555
Co4 O9 1_555 1_555
O1 C13 1_555 1_555
O2 C13 1_555 1_555
O3 C20 1_555 1_555
O4 Co3 1_555 1_555
O5 C28 1_555 1_555
O6 C28 1_555 1_555
O7 H28 1_555 1_555
O8 C21 1_555 1_555
O9 C21 1_555 1_555
O10 Co3 1_555 1_555
O11 Co2 1_555 1_555
O12 C36 1_555 1_555
O13 Co3 1_555 1_555
O14 C29 1_555 1_555
O15 N7 1_555 1_555
O16 N7 1_555 1_555
O17 N9 1_555 1_555
O18 N9 1_555 1_555
O19 Co2 1_555 1_555
H1 O19 1_555 1_555
H2 O19 1_555 1_555
O20 Co4 1_555 1_555
H3 O20 1_555 1_555
H4 O20 1_555 1_555
O21 Co1 1_555 1_555
H5 O21 1_555 1_555
H6 O21 1_555 1_555
O22 N8 1_555 1_555
O23 N8 1_555 1_555
N1 N2 1_555 1_555
N2 C2 1_555 1_555
N3 C1 1_555 1_555
N4 C10 1_555 1_555
N5 Co3 1_555 1_555
N6 Co4 1_555 1_555
N7 C32 1_555 1_555
N8 C18 1_555 1_555
N9 C26 1_555 1_555
C1 N1 1_555 1_555
H7 C1 1_555 1_555
C2 N3 1_555 1_555
H8 C2 1_555 1_555
C3 N3 1_555 1_555
H9 C3 1_555 1_555
H10 C3 1_555 1_555
C4 C3 1_555 1_555
C5 C4 1_555 1_555
H11 C5 1_555 1_555
C6 C5 1_555 1_555
H12 C6 1_555 1_555
C7 C6 1_555 1_555
C8 C7 1_555 1_555
H13 C8 1_555 1_555
C9 C4 1_555 1_555
H14 C9 1_555 1_555
C10 C7 1_555 1_555
H15 C10 1_555 1_555
H16 C10 1_555 1_555
C11 N4 1_555 1_555
H17 C11 1_555 1_555
C12 N4 1_555 1_555
H18 C12 1_555 1_555
C13 C14 1_555 1_555
C14 C15 1_555 1_555
C15 H19 1_555 1_555
C16 C15 1_555 1_555
C17 C16 1_555 1_555
H20 C17 1_555 1_555
C18 C17 1_555 1_555
C19 C14 1_555 1_555
H21 C19 1_555 1_555
C20 O4 1_555 1_555
C21 C22 1_555 1_555
C22 C23 1_555 1_555
C23 H22 1_555 1_555
C24 C23 1_555 1_555
C25 C24 1_555 1_555
H23 C25 1_555 1_555
C26 C25 1_555 1_555
C27 C22 1_555 1_555
H24 C27 1_555 1_555
C28 C24 1_555 1_555
C29 O13 1_555 1_555
C30 C29 1_555 1_555
C31 C30 1_555 1_555
H25 C31 1_555 1_555
C32 C31 1_555 1_555
C33 C32 1_555 1_555
H26 C33 1_555 1_555
C34 C33 1_555 1_555
C35 C30 1_555 1_555
H27 C35 1_555 1_555
C36 O11 1_555 1_555
H29 O10 1_555 1_555
Co1_2 O5 1_555 1_555
Co1_3 N1 1_555 1_555
Co1A O1 1_555 1_555
Co2A O2 1_555 1_555
Co2A_2 O7 1_555 1_555
Co2A_3 N2 1_555 1_555
Co3A O8 1_555 1_555
Co4A O10 1_555 1_555
O1A Co1 1_555 1_555
O2A Co2 1_555 1_555
O5_2 Co1 1_555 1_555
O6_2 Co1 1_555 1_555
O7A Co2 1_555 1_555
O8A Co3 1_555 1_555
O10A Co4 1_555 1_555
O14A Co4 1_555 1_555
N1_2 Co1 1_555 1_555
N2A Co2 1_555 1_555
Co4 O10 1_555 1_555
O6 Co1_2 1_555 1_555
O14 Co4A 1_555 1_555
N5 N6 1_555 1_555
N5 C11 1_555 1_555
N6 C12 1_555 1_555
C8 C9 1_555 1_555
C16 C20 1_555 1_555
C18 C19 1_555 1_555
C26 C27 1_555 1_555
C34 C35 1_555 1_555
C34 C36 1_555 1_555
Co2A_2 O7A 1_555 1_555
Co3A O10A 1_555 1_555
Co4A O10A 1_555 1_555

#END
