
#######################################################################
#
#                 Cambridge Crystallographic Data Centre
#                                CCDC 
#
#######################################################################
#
# If this CIF has been generated from an entry in the Cambridge 
# Structural Database, then it will include bibliographic, chemical, 
# crystal, experimental, refinement or atomic coordinate data resulting 
# from the CCDC's data processing and validation procedures.
#
#######################################################################

data_GUPJEG01
_chemical_formula_moiety         '(C12 H8 Mn1 N2 O5)n'
_symmetry_cell_setting           monoclinic
_symmetry_space_group_name_H-M   'C 2/c'
_symmetry_Int_Tables_number      15
_space_group_name_Hall           '-C 2yc'
loop_
_symmetry_equiv_pos_site_id
_symmetry_equiv_pos_as_xyz
1 x,y,z
2 1/2+x,1/2+y,z
3 -x,y,1/2-z
4 1/2-x,1/2+y,1/2-z
5 -x,-y,-z
6 1/2-x,1/2-y,-z
7 x,-y,1/2+z
8 1/2+x,1/2-y,1/2+z
_cell_length_a                   11.9505(9)
_cell_length_b                   14.5679(11)
_cell_length_c                   9.2494(7)
_cell_angle_alpha                90
_cell_angle_beta                 127.7910(10)
_cell_angle_gamma                90
_cell_volume                     1272.51
loop_
_atom_site_label
_atom_site_type_symbol
_atom_site_fract_x
_atom_site_fract_y
_atom_site_fract_z
Mn1 Mn 0.0000 0.03480(3) 0.2500
N1 N 0.10607(19) 0.16170(12) 0.2322(3)
C1 C 0.0651(2) 0.24228(14) 0.2568(3)
C2 C 0.1406(2) 0.32264(14) 0.2957(3)
H1 H 0.1134 0.3774 0.3224
C3 C 0.2566(2) 0.32246(15) 0.2952(3)
C4 C 0.2945(2) 0.24084(15) 0.2584(3)
H2 H 0.3703 0.2391 0.2511
C5 C 0.2191(2) 0.16164(15) 0.2324(3)
H3 H 0.2484 0.1051 0.2141
C6 C 0.3334(2) 0.41155(14) 0.3305(3)
O1 O 0.36425(17) 0.42983(11) 0.2256(2)
O2 O 0.35439(16) 0.46251(10) 0.4541(2)
C1B C -0.0651(2) 0.24228(14) 0.2432(3)
N1B N -0.10607(19) 0.16170(12) 0.2678(3)
C5B C -0.2191(2) 0.16164(15) 0.2676(3)
C4B C -0.2945(2) 0.24084(15) 0.2416(3)
C3B C -0.2566(2) 0.32246(15) 0.2048(3)
C2B C -0.1406(2) 0.32264(14) 0.2043(3)
H1B H -0.1134 0.3774 0.1776
C6B C -0.3334(2) 0.41155(14) 0.1695(3)
O1B O -0.36425(17) 0.42983(11) 0.2744(2)
O2B O -0.35439(16) 0.46251(10) 0.0459(2)
H2B H -0.3703 0.2391 0.2489
H3B H -0.2484 0.1051 0.2859
O1A O -0.13575(17) -0.07017(11) 0.2256(2)
O1C O 0.13575(17) -0.07017(11) 0.2744(2)
O2G O -0.14561(16) 0.03749(10) -0.0459(2)
O2E O 0.14561(16) 0.03749(10) 0.5459(2)
Mn1A Mn 0.5000 0.53480(3) 0.2500
Mn1G Mn 0.5000 0.46520(3) 0.7500
Mn1A_2 Mn -0.5000 0.53480(3) 0.2500
Mn1G_2 Mn -0.5000 0.46520(3) -0.2500
O3 O 0.0626(5) 0.4862(3) -0.0448(6)
loop_
_geom_bond_atom_site_label_1
_geom_bond_atom_site_label_2
_geom_bond_site_symmetry_1
_geom_bond_site_symmetry_2
Mn1 N1 1_555 1_555
N1 C1 1_555 1_555
C1 C2 1_555 1_555
C2 H1 1_555 1_555
C3 C2 1_555 1_555
C4 C3 1_555 1_555
H2 C4 1_555 1_555
C5 N1 1_555 1_555
H3 C5 1_555 1_555
C6 C3 1_555 1_555
O1 C6 1_555 1_555
O2 C6 1_555 1_555
C1B C1 1_555 1_555
N1B Mn1 1_555 1_555
C5B N1B 1_555 1_555
C4B C5B 1_555 1_555
C3B C4B 1_555 1_555
C2B C1B 1_555 1_555
H1B C2B 1_555 1_555
C6B C3B 1_555 1_555
O1B C6B 1_555 1_555
O2B C6B 1_555 1_555
H2B C4B 1_555 1_555
H3B C5B 1_555 1_555
O1A Mn1 1_555 1_555
O1C Mn1 1_555 1_555
O2G Mn1 1_555 1_555
O2E Mn1 1_555 1_555
Mn1A O1 1_555 1_555
Mn1G O2 1_555 1_555
Mn1A_2 O1B 1_555 1_555
Mn1G_2 O2B 1_555 1_555
C4 C5 1_555 1_555
C1B N1B 1_555 1_555
C3B C2B 1_555 1_555

#END
