
#######################################################################
#
#                 Cambridge Crystallographic Data Centre
#                                CCDC 
#
#######################################################################
#
# If this CIF has been generated from an entry in the Cambridge 
# Structural Database, then it will include bibliographic, chemical, 
# crystal, experimental, refinement or atomic coordinate data resulting 
# from the CCDC's data processing and validation procedures.
#
#######################################################################

data_AQERUL
_chemical_formula_moiety         'C49 H43 Co10 N7 O19'
_symmetry_cell_setting           tetragonal
_symmetry_space_group_name_H-M   'P 42/m b c'
_symmetry_Int_Tables_number      135
_space_group_name_Hall           '-P 4c 2ab'
loop_
_symmetry_equiv_pos_site_id
_symmetry_equiv_pos_as_xyz
1 x,y,z
2 -x,-y,z
3 -y,x,1/2+z
4 y,-x,1/2+z
5 1/2-x,1/2+y,-z
6 1/2+x,1/2-y,-z
7 1/2+y,1/2+x,1/2-z
8 1/2-y,1/2-x,1/2-z
9 -x,-y,-z
10 x,y,-z
11 y,-x,1/2-z
12 -y,x,1/2-z
13 1/2+x,1/2-y,z
14 1/2-x,1/2+y,z
15 1/2-y,1/2-x,1/2+z
16 1/2+y,1/2+x,1/2+z
_cell_length_a                   25.569(7)
_cell_length_b                   25.569(7)
_cell_length_c                   16.707(6)
_cell_angle_alpha                90
_cell_angle_beta                 90
_cell_angle_gamma                90
_cell_volume                     10922.6
loop_
_atom_site_label
_atom_site_type_symbol
_atom_site_fract_x
_atom_site_fract_y
_atom_site_fract_z
_atom_site_U_iso_or_equiv
_atom_site_thermal_displace_type
N3 N -0.3386(2) 0.1479(2) 0.0000 0.0377 Uani
O8 O -0.2781(2) 0.2128(2) 0.0000 0.0690 Uani
C27 C -0.3497(3) 0.0930(3) 0.0000 0.0467 Uani
H20 H -0.3175 0.0736 0.0000 0.0700 Uiso
H21 H -0.3696 0.0842 0.0469 0.0700 Uiso
C28 C -0.2899(3) 0.1662(3) 0.0000 0.0520 Uani
H22 H -0.2619 0.1413 0.0000 0.0620 Uiso
C29 C -0.3831(3) 0.1826(3) 0.0000 0.0613 Uani
H23 H -0.3706 0.2180 0.0000 0.0920 Uiso
H24 H -0.4040 0.1767 -0.0469 0.0920 Uiso
H21I H -0.3696 0.0842 -0.0469 0.0700 Uiso
H24I H -0.4040 0.1767 0.0469 0.0920 Uiso
Co1 Co -0.93271(2) 0.66047(2) 0.59964(2) 0.0106 Uani
Co2 Co -0.99693(2) 0.56336(2) 0.68829(3) 0.0097 Uani
O1 O -0.99690(9) 0.69412(9) 0.65538(14) 0.0161 Uani
O2 O -1.04609(9) 0.62630(9) 0.69768(14) 0.0165 Uani
O3 O -0.98049(9) 0.58964(9) 0.56701(13) 0.0126 Uani
O4 O -0.93065(9) 0.61276(9) 0.70283(13) 0.0127 Uani
O5 O -1.00303(8) 0.55084(9) 0.81402(13) 0.0110 Uani
O6 O -0.86657(9) 0.61839(9) 0.56721(14) 0.0176 Uani
O7 O -0.94690(13) 0.69824(13) 0.5000 0.0154 Uani
N1 N -1.27955(12) 0.88364(12) 0.85026(18) 0.0196 Uani
C1 C -0.99397(17) 0.57221(18) 0.5000 0.0110 Uani
H1 H -1.0167 0.5428 0.5000 0.0130 Uiso
C2 C -1.15497(16) 0.78199(15) 0.7720(3) 0.0280 Uani
C3 C -1.1123(2) 0.6978(2) 0.7770(3) 0.0593 Uani
H2 H -1.1050 0.6681 0.8071 0.0710 Uiso
C4 C -1.07705(14) 0.71241(14) 0.7190(2) 0.0195 Uani
C5 C -0.84922(18) 0.60370(18) 0.5000 0.0143 Uani
C6 C -1.1190(2) 0.79671(18) 0.7153(4) 0.0590 Uani
H3 H -1.1208 0.8309 0.6931 0.0710 Uiso
C7 C -1.19798(15) 0.81733(15) 0.7983(2) 0.0267 Uani
C8 C -0.78389(16) 0.54707(18) 0.4281(3) 0.0387 Uani
H4 H -0.7978 0.5591 0.3787 0.0470 Uiso
C9 C -0.9585(2) 0.7519(2) 0.5000 0.0263 Uani
C10 C -1.0798(2) 0.76247(17) 0.6895(4) 0.0510 Uani
H5 H -1.0555 0.7737 0.6518 0.0610 Uiso
C11 C -1.03634(13) 0.67462(13) 0.68822(19) 0.0139 Uani
C12 C -1.00635(13) 0.59582(13) 0.8649(2) 0.0155 Uani
H6 H -0.9754 0.6167 0.8588 0.0230 Uiso
H7 H -1.0364 0.6162 0.8504 0.0230 Uiso
H8 H -1.0095 0.5848 0.9196 0.0230 Uiso
C13 C -0.89264(13) 0.60736(13) 0.7500 0.0133 Uani
H9 H -0.8660 0.6340 0.7500 0.0160 Uiso
C14 C -0.74265(19) 0.5109(2) 0.4284(4) 0.0613 Uani
H10 H -0.7331 0.4988 0.3656 0.0730 Uiso
C15 C -0.7214(3) 0.4930(3) 0.5000 0.0743 Uani
C16 C -0.80456(19) 0.5654(2) 0.5000 0.0230 Uani
C17 C -1.2798(4) 0.8322(4) 0.8616(7) 0.0227 Uani
H11 H -1.3092 0.8175 0.8881 0.0270 Uiso
C18 C -1.2400(4) 0.7982(5) 0.8374(8) 0.0290 Uani
H12 H -1.2426 0.7618 0.8484 0.0350 Uiso
C19 C -1.1957(5) 0.8726(5) 0.7824(9) 0.0367 Uani
H13 H -1.1666 0.8878 0.7558 0.0440 Uiso
C20 C -1.2384(6) 0.9034(6) 0.8079(9) 0.0303 Uani
H14 H -1.2385 0.9396 0.7950 0.0360 Uiso
C21 C -1.1505(2) 0.7317(2) 0.8031(4) 0.0660 Uani
H15 H -1.1743 0.7205 0.8433 0.0790 Uiso
C22 C -0.6759(7) 0.4589(8) 0.4876(13) 0.0297 Uani
C23 C -0.6375(7) 0.4672(8) 0.4258(12) 0.0663 Uani
H16 H -0.6422 0.4946 0.3879 0.0790 Uiso
C24 C -0.5921(7) 0.4341(7) 0.4213(11) 0.0607 Uani
H17 H -0.5668 0.4395 0.3805 0.0730 Uiso
N2 N -0.5850(6) 0.3927(7) 0.4786(10) 0.0493 Uani
C25 C -0.6234(7) 0.3844(8) 0.5404(11) 0.0617 Uani
H18 H -0.6187 0.3571 0.5783 0.0740 Uiso
C26 C -0.6688(8) 0.4175(8) 0.5449(12) 0.0540 Uani
H19 H -0.6941 0.4121 0.5857 0.0650 Uiso
O3I O -0.98049(9) 0.58964(9) 0.43299(13) 0.0126 Uani
O4F O -0.88724(9) 0.56935(9) 0.79717(13) 0.0127 Uani
O6I O -0.86657(9) 0.61839(9) 0.43279(14) 0.0176 Uani
C8I C -0.78389(16) 0.54707(18) 0.5719(3) 0.0387 Uani
H4I H -0.7978 0.5591 0.6213 0.0470 Uiso
C14I C -0.74265(19) 0.5109(2) 0.5716(4) 0.0613 Uani
H10I H -0.7331 0.4988 0.6344 0.0730 Uiso
C22I C -0.6759(7) 0.4589(8) 0.5124(13) 0.0297 Uani
C23I C -0.6375(7) 0.4672(8) 0.5742(12) 0.0663 Uani
H16I H -0.6422 0.4946 0.6121 0.0790 Uiso
C24I C -0.5921(7) 0.4341(7) 0.5787(11) 0.0607 Uani
H17I H -0.5668 0.4395 0.6195 0.0730 Uiso
N2I N -0.5850(6) 0.3927(7) 0.5214(10) 0.0493 Uani
C25I C -0.6234(7) 0.3844(8) 0.4596(11) 0.0617 Uani
H18I H -0.6187 0.3571 0.4217 0.0740 Uiso
C26I C -0.6688(8) 0.4175(8) 0.4551(12) 0.0540 Uani
H19I H -0.6941 0.4121 0.4143 0.0650 Uiso
Co1F Co -0.83953(2) 0.56729(2) 0.90036(2) 0.0106 Uani
Co2F Co -0.93664(2) 0.50307(2) 0.81171(3) 0.0097 Uani
O1F O -0.80588(9) 0.50310(9) 0.84462(14) 0.0161 Uani
O2F O -0.87370(9) 0.45391(9) 0.80232(14) 0.0165 Uani
O5F O -0.94916(9) 0.49697(8) 0.68598(13) 0.0110 Uani
N1F N -0.61636(12) 0.22045(12) 0.64974(18) 0.0196 Uani
C2F C -0.71801(15) 0.34503(16) 0.7280(3) 0.0280 Uani
C3F C -0.8022(2) 0.3877(2) 0.7230(3) 0.0593 Uani
H2F H -0.8319 0.3950 0.6929 0.0710 Uiso
C4F C -0.78759(14) 0.42295(14) 0.7810(2) 0.0195 Uani
C6F C -0.70329(18) 0.3810(2) 0.7847(4) 0.0590 Uani
H3F H -0.6691 0.3792 0.8069 0.0710 Uiso
C7F C -0.68267(15) 0.30202(15) 0.7017(2) 0.0267 Uani
C10F C -0.73753(17) 0.4202(2) 0.8105(4) 0.0510 Uani
H5F H -0.7263 0.4445 0.8482 0.0610 Uiso
C11F C -0.82538(13) 0.46366(13) 0.81178(19) 0.0139 Uani
C12F C -0.90418(13) 0.49365(13) 0.6351(2) 0.0155 Uani
H6F H -0.8833 0.5246 0.6412 0.0230 Uiso
H7F H -0.8838 0.4636 0.6496 0.0230 Uiso
H8F H -0.9152 0.4905 0.5804 0.0230 Uiso
C17F C -0.6678(4) 0.2202(4) 0.6384(7) 0.0227 Uani
H11F H -0.6825 0.1908 0.6119 0.0270 Uiso
C18F C -0.7018(5) 0.2600(4) 0.6626(8) 0.0290 Uani
H12F H -0.7382 0.2574 0.6516 0.0350 Uiso
C19F C -0.6274(5) 0.3043(5) 0.7176(9) 0.0367 Uani
H13F H -0.6122 0.3334 0.7442 0.0440 Uiso
C20F C -0.5966(6) 0.2616(6) 0.6921(9) 0.0303 Uani
H14F H -0.5604 0.2615 0.7050 0.0360 Uiso
C21F C -0.7683(2) 0.3495(2) 0.6969(4) 0.0660 Uani
H15F H -0.7795 0.3257 0.6567 0.0790 Uiso
Co1I Co -0.93271(2) 0.66047(2) 0.40036(2) 0.0106 Uani
Co1J Co -1.33953(2) 0.93271(2) 0.90036(2) 0.0106 Uani
Co1M Co -0.56729(2) 0.16047(2) 0.59964(2) 0.0106 Uani
Co2A Co -1.00307(2) 0.43664(2) 0.68829(3) 0.0097 Uani
Co2G Co -1.06336(2) 0.49693(2) 0.81171(3) 0.0097 Uani
Co2I Co -0.99693(2) 0.56336(2) 0.31171(3) 0.0097 Uani
O3F O -0.91036(9) 0.51951(9) 0.93299(13) 0.0126 Uani
O5A O -0.99697(8) 0.44916(9) 0.81402(13) 0.0110 Uani
O5G O -1.05084(9) 0.50303(8) 0.68598(13) 0.0110 Uani
O6F O -0.88161(9) 0.63343(9) 0.93279(14) 0.0176 Uani
O7F O -0.80176(13) 0.55310(13) 1.0000 0.0154 Uani
N1K N -0.88364(12) 0.72045(12) 0.64974(18) 0.0196 Uani
N1L N -0.77955(12) 0.61636(12) 0.85026(18) 0.0196 Uani
loop_
_atom_site_aniso_label
_atom_site_aniso_U_11
_atom_site_aniso_U_22
_atom_site_aniso_U_33
_atom_site_aniso_U_23
_atom_site_aniso_U_13
_atom_site_aniso_U_12
N3 0.051(3) 0.033(3) 0.029(3) 0.000 0.000 -0.006(3)
O8 0.070(4) 0.035(3) 0.102(5) 0.000 0.000 -0.018(3)
C27 0.062(5) 0.043(4) 0.035(3) 0.000 0.000 -0.018(4)
C28 0.055(5) 0.036(4) 0.065(5) 0.000 0.000 -0.003(3)
C29 0.059(5) 0.047(4) 0.078(6) 0.000 0.000 -0.007(4)
Co1 0.0098(2) 0.0094(2) 0.0127(3) 0.00039(16) 0.00007(16) -0.00126(16)
Co2 0.0087(2) 0.0083(3) 0.0122(3) 0.00070(16) 0.00045(16) 0.00014(15)
O1 0.0146(12) 0.0118(11) 0.0218(13) -0.0002(10) 0.0044(10) 0.0010(9)
O2 0.0127(12) 0.0129(12) 0.0239(12) 0.0037(10) 0.0027(10) 0.0029(9)
O3 0.0121(11) 0.0117(11) 0.0141(11) 0.0015(9) 0.0001(9) -0.0008(9)
O4 0.0118(11) 0.0129(11) 0.0134(11) 0.0018(9) -0.0005(9) -0.0001(9)
O5 0.0113(11) 0.0089(11) 0.0127(12) -0.0019(9) 0.0019(8) -0.0007(8)
O6 0.0135(12) 0.0184(12) 0.0208(13) 0.0014(10) 0.0011(10) -0.0002(10)
O7 0.0201(17) 0.0106(16) 0.0156(16) 0.000 0.000 0.0001(13)
N1 0.0179(15) 0.0171(15) 0.0238(16) -0.0002(12) 0.0030(12) 0.0051(12)
C1 0.010(2) 0.007(2) 0.016(2) 0.000 0.000 -0.0002(17)
C2 0.025(2) 0.024(2) 0.035(2) -0.0015(17) 0.0100(17) 0.0117(16)
C3 0.063(3) 0.046(3) 0.069(4) 0.042(3) 0.049(3) 0.043(3)
C4 0.0167(17) 0.0168(17) 0.0251(18) -0.0005(14) 0.0061(15) 0.0063(14)
C5 0.009(2) 0.013(2) 0.021(2) 0.000 0.000 -0.0068(18)
C6 0.057(3) 0.018(2) 0.102(4) 0.021(3) 0.056(3) 0.018(2)
C7 0.024(2) 0.024(2) 0.032(2) -0.0018(16) 0.0082(16) 0.0099(16)
C8 0.019(2) 0.039(2) 0.058(3) -0.020(2) 0.003(2) 0.0023(18)
C9 0.043(3) 0.010(2) 0.026(3) 0.000 0.000 0.007(2)
C10 0.046(3) 0.021(2) 0.086(4) 0.015(2) 0.048(3) 0.011(2)
C11 0.0123(16) 0.0141(16) 0.0152(15) 0.0003(13) -0.0012(13) 0.0029(13)
C12 0.0181(17) 0.0118(16) 0.0166(16) -0.0031(13) 0.0016(13) 0.0007(13)
C13 0.0130(13) 0.0130(13) 0.014(2) 0.0006(13) -0.0006(13) -0.0012(18)
C14 0.021(2) 0.048(3) 0.115(5) -0.041(3) 0.008(3) 0.007(2)
C15 0.016(3) 0.025(4) 0.182(11) 0.000 0.000 0.008(3)
C16 0.009(2) 0.020(3) 0.040(3) 0.000 0.000 -0.002(2)
C17 0.015(5) 0.020(4) 0.033(6) -0.001(4) 0.004(4) 0.004(3)
C18 0.023(6) 0.016(5) 0.048(7) -0.005(5) 0.007(5) 0.002(4)
C19 0.030(7) 0.024(6) 0.056(9) 0.001(5) 0.019(6) 0.002(5)
C20 0.032(8) 0.015(6) 0.044(9) -0.002(5) 0.016(6) 0.004(5)
C21 0.069(4) 0.058(3) 0.071(4) 0.040(3) 0.057(3) 0.049(3)
C22 0.029(7) 0.025(7) 0.035(11) -0.016(8) 0.002(8) 0.015(6)
C23 0.059(11) 0.076(11) 0.064(11) 0.000(9) 0.009(8) 0.018(8)
C24 0.045(10) 0.073(11) 0.064(10) -0.001(8) 0.004(8) 0.021(8)
N2 0.035(7) 0.050(8) 0.063(11) -0.006(7) -0.002(7) 0.019(6)
C25 0.059(11) 0.054(11) 0.072(12) -0.002(9) -0.008(9) 0.004(8)
C26 0.050(10) 0.045(11) 0.067(11) 0.009(8) 0.012(8) 0.012(8)
O3I 0.0121 0.0117 0.0141 -0.0015 -0.0001 -0.0008
O4F 0.0129 0.0118 0.0134 0.0005 -0.0018 -0.0001
O6I 0.0135 0.0184 0.0208 -0.0014 -0.0011 -0.0002
C8I 0.019 0.039 0.058 0.02 -0.003 0.0023
C14I 0.021 0.048 0.115 0.041 -0.008 0.007
C22I 0.029 0.025 0.035 0.016 -0.002 0.015
C23I 0.059 0.076 0.064 0 -0.009 0.018
C24I 0.045 0.073 0.064 0.001 -0.004 0.021
N2I 0.035 0.05 0.063 0.006 0.002 0.019
C25I 0.059 0.054 0.072 0.002 0.008 0.004
C26I 0.05 0.045 0.067 -0.009 -0.012 0.012
Co1F 0.0094 0.0098 0.0127 -7e-05 -0.00039 -0.00126
Co2F 0.0083 0.0087 0.0122 -0.00045 -0.0007 0.00014
O1F 0.0118 0.0146 0.0218 -0.0044 0.0002 0.001
O2F 0.0129 0.0127 0.0239 -0.0027 -0.0037 0.0029
O5F 0.0089 0.0113 0.0127 -0.0019 0.0019 -0.0007
N1F 0.0171 0.0179 0.0238 -0.003 0.0002 0.0051
C2F 0.024 0.025 0.035 -0.01 0.0015 0.0117
C3F 0.046 0.063 0.069 -0.049 -0.042 0.043
C4F 0.0168 0.0167 0.0251 -0.0061 0.0005 0.0063
C6F 0.018 0.057 0.102 -0.056 -0.021 0.018
C7F 0.024 0.024 0.032 -0.0082 0.0018 0.0099
C10F 0.021 0.046 0.086 -0.048 -0.015 0.011
C11F 0.0141 0.0123 0.0152 0.0012 -0.0003 0.0029
C12F 0.0118 0.0181 0.0166 -0.0016 0.0031 0.0007
C17F 0.02 0.015 0.033 -0.004 0.001 0.004
C18F 0.016 0.023 0.048 -0.007 0.005 0.002
C19F 0.024 0.03 0.056 -0.019 -0.001 0.002
C20F 0.015 0.032 0.044 -0.016 0.002 0.004
C21F 0.058 0.069 0.071 -0.057 -0.04 0.049
Co1I 0.0098 0.0094 0.0127 -0.00039 -7e-05 -0.00126
Co1J 0.0094 0.0098 0.0127 7e-05 -0.00039 0.00126
Co1M 0.0098 0.0094 0.0127 0.00039 -7e-05 0.00126
Co2A 0.0087 0.0083 0.0122 -0.0007 -0.00045 0.00014
Co2G 0.0083 0.0087 0.0122 0.00045 0.0007 0.00014
Co2I 0.0087 0.0083 0.0122 -0.0007 -0.00045 0.00014
O3F 0.0117 0.0121 0.0141 -0.0001 -0.0015 -0.0008
O5A 0.0113 0.0089 0.0127 0.0019 -0.0019 -0.0007
O5G 0.0089 0.0113 0.0127 0.0019 -0.0019 -0.0007
O6F 0.0184 0.0135 0.0208 -0.0011 -0.0014 -0.0002
O7F 0.0106 0.0201 0.0156 0 0 0.0001
N1K 0.0171 0.0179 0.0238 -0.003 -0.0002 -0.0051
N1L 0.0179 0.0171 0.0238 0.0002 0.003 -0.0051
loop_
_geom_bond_atom_site_label_1
_geom_bond_atom_site_label_2
_geom_bond_site_symmetry_1
_geom_bond_site_symmetry_2
Co1 O1 1_555 1_555
Co2 O2 1_555 1_555
O1 C11 1_555 1_555
O2 C11 1_555 1_555
O3 Co1 1_555 1_555
O4 Co1 1_555 1_555
O5 Co2 1_555 1_555
O6 Co1 1_555 1_555
O7 Co1 1_555 1_555
N1 C17 1_555 1_555
C1 O3 1_555 1_555
H1 C1 1_555 1_555
C2 C6 1_555 1_555
C3 H2 1_555 1_555
C4 C3 1_555 1_555
C5 O6 1_555 1_555
C6 H3 1_555 1_555
C7 C2 1_555 1_555
C8 H4 1_555 1_555
C9 O7 1_555 1_555
C10 C4 1_555 1_555
H5 C10 1_555 1_555
C11 C4 1_555 1_555
C12 O5 1_555 1_555
H6 C12 1_555 1_555
H7 C12 1_555 1_555
H8 C12 1_555 1_555
C13 O4 1_555 1_555
H9 C13 1_555 1_555
C14 C8 1_555 1_555
H10 C14 1_555 1_555
C15 C14 1_555 1_555
C16 C5 1_555 1_555
C17 H11 1_555 1_555
C18 C7 1_555 1_555
H12 C18 1_555 1_555
C19 C7 1_555 1_555
H13 C19 1_555 1_555
C20 N1 1_555 1_555
H14 C20 1_555 1_555
C21 C2 1_555 1_555
H15 C21 1_555 1_555
C22 C15 1_555 1_555
C23 C22 1_555 1_555
H16 C23 1_555 1_555
C24 C23 1_555 1_555
H17 C24 1_555 1_555
N2 C24 1_555 1_555
C25 H18 1_555 1_555
C26 C22 1_555 1_555
H19 C26 1_555 1_555
N3 C27 1_555 1_555
O8 C28 1_555 1_555
C27 H20 1_555 1_555
H21 C27 1_555 1_555
C28 N3 1_555 1_555
H22 C28 1_555 1_555
C29 N3 1_555 1_555
H23 C29 1_555 1_555
H24 C29 1_555 1_555
O3I C1 1_555 1_555
O4F C13 1_555 1_555
O6I C5 1_555 1_555
C8I C16 1_555 1_555
H4I C8I 1_555 1_555
C14I C15 1_555 1_555
H10I C14I 1_555 1_555
C22I C15 1_555 1_555
C23I C22 1_555 1_555
H16I C23I 1_555 1_555
C24I C23I 1_555 1_555
H17I C24I 1_555 1_555
N2I N2 1_555 1_555
C25I N2 1_555 1_555
H18I C25I 1_555 1_555
C26I C22 1_555 1_555
H19I C26I 1_555 1_555
Co1F O4F 1_555 1_555
Co2F O5 1_555 1_555
O1F Co1F 1_555 1_555
O2F Co2F 1_555 1_555
O5F Co2 1_555 1_555
N1F C17F 1_555 1_555
C2F C6F 1_555 1_555
C3F H2F 1_555 1_555
C4F C3F 1_555 1_555
C6F H3F 1_555 1_555
C7F C2F 1_555 1_555
C10F C4F 1_555 1_555
H5F C10F 1_555 1_555
C11F O1F 1_555 1_555
C12F O5F 1_555 1_555
H6F C12F 1_555 1_555
H7F C12F 1_555 1_555
H8F C12F 1_555 1_555
C17F H11F 1_555 1_555
C18F C7F 1_555 1_555
H12F C18F 1_555 1_555
C19F C7F 1_555 1_555
H13F C19F 1_555 1_555
C20F N1F 1_555 1_555
H14F C20F 1_555 1_555
C21F C2F 1_555 1_555
H15F C21F 1_555 1_555
Co1I O7 1_555 1_555
Co1J N1 1_555 1_555
Co1M N1F 1_555 1_555
Co2A O5F 1_555 1_555
Co2G O5 1_555 1_555
Co2I O3I 1_555 1_555
O3F Co1F 1_555 1_555
O5A Co2F 1_555 1_555
O5G Co2 1_555 1_555
O6F Co1F 1_555 1_555
O7F Co1F 1_555 1_555
N1K Co1 1_555 1_555
N1L Co1F 1_555 1_555
H21I C27 1_555 1_555
H24I C29 1_555 1_555
Co2 O3 1_555 1_555
Co2 O4 1_555 1_555
C3 C21 1_555 1_555
C6 C10 1_555 1_555
C8 C16 1_555 1_555
C17 C18 1_555 1_555
C19 C20 1_555 1_555
C23 C22I 1_555 1_555
C25 C26 1_555 1_555
C25 N2I 1_555 1_555
C26 C22I 1_555 1_555
O3I Co1I 1_555 1_555
O4F Co2F 1_555 1_555
O6I Co1I 1_555 1_555
C8I C14I 1_555 1_555
C22I C23I 1_555 1_555
C22I C26I 1_555 1_555
C24I N2I 1_555 1_555
C25I C26I 1_555 1_555
Co2F O5F 1_555 1_555
Co2F O3F 1_555 1_555
O2F C11F 1_555 1_555
C3F C21F 1_555 1_555
C4F C11F 1_555 1_555
C6F C10F 1_555 1_555
C17F C18F 1_555 1_555
C19F C20F 1_555 1_555
Co2A O5A 1_555 1_555
Co2A O5G 1_555 1_555
Co2G O5A 1_555 1_555
Co2G O5G 1_555 1_555

#END
