
#######################################################################
#
#                 Cambridge Crystallographic Data Centre
#                                CCDC 
#
#######################################################################
#
# If this CIF has been generated from an entry in the Cambridge 
# Structural Database, then it will include bibliographic, chemical, 
# crystal, experimental, refinement or atomic coordinate data resulting 
# from the CCDC's data processing and validation procedures.
#
#######################################################################

data_ZIKJIO
_chemical_formula_moiety         '(C30 H29 Cu2 N3 O10)n'
_symmetry_cell_setting           monoclinic
_symmetry_space_group_name_H-M   'C 2/c'
_symmetry_Int_Tables_number      15
_space_group_name_Hall           '-C 2yc'
loop_
_symmetry_equiv_pos_site_id
_symmetry_equiv_pos_as_xyz
1 x,y,z
2 -x,y,1/2-z
3 1/2+x,1/2+y,z
4 1/2-x,1/2+y,1/2-z
5 -x,-y,-z
6 x,-y,1/2+z
7 1/2-x,1/2-y,-z
8 1/2+x,1/2-y,1/2+z
_cell_length_a                   15.1849(4)
_cell_length_b                   17.0797(4)
_cell_length_c                   18.8731(4)
_cell_angle_alpha                90
_cell_angle_beta                 97.172(2)
_cell_angle_gamma                90
_cell_volume                     4856.51
loop_
_atom_site_label
_atom_site_type_symbol
_atom_site_fract_x
_atom_site_fract_y
_atom_site_fract_z
_atom_site_U_iso_or_equiv
_atom_site_thermal_displace_type
Cu1 Cu 0.466347(19) 0.438154(17) 0.527950(14) 0.0314 Uani
O1 O -0.01998(12) 0.89233(10) 0.43403(8) 0.0429 Uani
O2 O 0.35116(11) 0.48201(10) 0.48740(9) 0.0430 Uani
O3 O 0.41026(11) 0.58658(11) 0.43865(10) 0.0451 Uani
O4 O 0.03542(12) 0.99827(10) 0.38531(8) 0.0418 Uani
O5 O 0.41061(12) 0.33094(11) 0.56279(10) 0.0479 Uani
N1 N -0.0000 0.68140(16) 0.2500 0.0413 Uani
C1 C 0.00435(13) 0.80497(14) 0.31420(11) 0.0348 Uani
H1 H 0.0072 0.7778 0.3583 0.0420 Uiso
C2 C -0.0000 0.76216(18) 0.2500 0.0339 Uani
C3 C 0.00452(14) 0.88601(14) 0.31400(10) 0.0354 Uani
C4 C 0.0000 0.92797(19) 0.2500 0.0373 Uani
H2 H -0.0000 0.9836 0.2500 0.0450 Uiso
C5 C 0.34657(15) 0.54384(14) 0.45008(11) 0.0385 Uani
C6 C 0.08916(15) 0.61305(14) 0.35009(13) 0.0432 Uani
C7 C 0.25629(17) 0.56764(13) 0.41647(14) 0.0410 Uani
C8 C 0.18022(18) 0.53126(15) 0.43448(15) 0.0495 Uani
H3 H 0.1850 0.4908 0.4693 0.0590 Uiso
C9 C 0.09681(19) 0.55415(16) 0.40146(17) 0.0529 Uani
H4 H 0.0450 0.5294 0.4141 0.0630 Uiso
C10 C 0.16490(16) 0.64951(16) 0.33304(14) 0.0470 Uani
H5 H 0.1601 0.6900 0.2983 0.0560 Uiso
C11 C -0.00207(16) 0.63602(15) 0.31431(14) 0.0461 Uani
H6 H -0.0372 0.5879 0.3025 0.0550 Uiso
H7 H -0.0326 0.6668 0.3485 0.0550 Uiso
C12 C 0.24798(17) 0.62756(16) 0.36614(14) 0.0479 Uani
H8 H 0.2995 0.6536 0.3544 0.0570 Uiso
N2 N 0.2891(2) 0.2622(2) 0.59122(18) 0.0748 Uani
C13 C 0.3305(2) 0.3270(2) 0.57616(17) 0.0617 Uani
H9 H 0.2979 0.3746 0.5752 0.0740 Uiso
C14 C 0.1975(4) 0.2647(4) 0.6107(4) 0.1180 Uani
H10 H 0.1982 0.2494 0.6608 0.1770 Uiso
H11 H 0.1598 0.2285 0.5802 0.1770 Uiso
H12 H 0.1739 0.3180 0.6040 0.1770 Uiso
C15 C 0.3348(4) 0.1869(2) 0.5907(3) 0.1043 Uani
H13 H 0.3969 0.1956 0.5834 0.1570 Uiso
H14 H 0.3057 0.1543 0.5520 0.1570 Uiso
H15 H 0.3326 0.1603 0.6365 0.1570 Uiso
C16 C 0.00732(15) 0.92902(13) 0.38323(12) 0.0354 Uani
O1A O 0.01998(12) 0.89233(10) 0.06597(8) 0.0429 Uani
O2A O -0.35116(11) 0.48201(10) 0.01260(9) 0.0430 Uani
O3A O -0.41026(11) 0.58658(11) 0.06135(10) 0.0451 Uani
O4A O -0.03542(12) 0.99827(10) 0.11469(8) 0.0418 Uani
C1A C -0.00435(13) 0.80497(14) 0.18580(11) 0.0348 Uani
H1A H -0.0072 0.7778 0.1417 0.0420 Uiso
C3A C -0.00452(14) 0.88601(14) 0.18600(10) 0.0354 Uani
C5A C -0.34657(15) 0.54384(14) 0.04992(11) 0.0385 Uani
C6A C -0.08916(15) 0.61305(14) 0.14991(13) 0.0432 Uani
C7A C -0.25629(17) 0.56764(13) 0.08353(14) 0.0410 Uani
C8A C -0.18022(18) 0.53126(15) 0.06552(15) 0.0495 Uani
H3A H -0.1850 0.4908 0.0307 0.0590 Uiso
C9A C -0.09681(19) 0.55415(16) 0.09854(17) 0.0529 Uani
H4A H -0.0450 0.5294 0.0859 0.0630 Uiso
C10A C -0.16490(16) 0.64951(16) 0.16696(14) 0.0470 Uani
H5A H -0.1601 0.6900 0.2017 0.0560 Uiso
C11A C 0.00207(16) 0.63602(15) 0.18569(14) 0.0461 Uani
H6A H 0.0372 0.5879 0.1975 0.0550 Uiso
H7A H 0.0326 0.6668 0.1515 0.0550 Uiso
C12A C -0.24798(17) 0.62756(16) 0.13386(14) 0.0479 Uani
H8A H -0.2995 0.6536 0.1456 0.0570 Uiso
C16A C -0.00732(15) 0.92902(13) 0.11677(12) 0.0354 Uani
Cu1A Cu -0.466347(19) 0.438154(17) -0.027950(14) 0.0314 Uani
O5A O -0.41061(12) 0.33094(11) -0.06279(10) 0.0479 Uani
N2A N -0.2891(2) 0.2622(2) -0.09122(18) 0.0748 Uani
C13A C -0.3305(2) 0.3270(2) -0.07616(17) 0.0617 Uani
H9A H -0.2979 0.3746 -0.0752 0.0740 Uiso
C14A C -0.1975(4) 0.2647(4) -0.1107(4) 0.1180 Uani
H10A H -0.1982 0.2494 -0.1608 0.1770 Uiso
H11A H -0.1598 0.2285 -0.0802 0.1770 Uiso
H12A H -0.1739 0.3180 -0.1040 0.1770 Uiso
C15A C -0.3348(4) 0.1869(2) -0.0907(3) 0.1043 Uani
H13A H -0.3969 0.1956 -0.0834 0.1570 Uiso
H14A H -0.3057 0.1543 -0.0520 0.1570 Uiso
H15A H -0.3326 0.1603 -0.1365 0.1570 Uiso
Cu1B Cu -0.033653(19) 0.938154(17) 0.527950(14) 0.0314 Uani
Cu1C Cu 0.033653(19) 0.938154(17) -0.027950(14) 0.0314 Uani
Cu1D Cu 0.533653(19) 0.561846(17) 0.472050(14) 0.0314 Uani
Cu1E Cu -0.533653(19) 0.561846(17) 0.027950(14) 0.0314 Uani
Cu1F Cu 0.033653(19) 1.061846(17) 0.472050(14) 0.0314 Uani
Cu1G Cu -0.033653(19) 1.061846(17) 0.027950(14) 0.0314 Uani
O1B O 0.48002(12) 0.39233(10) 0.43403(8) 0.0429 Uani
O1C O -0.48002(12) 0.39233(10) 0.06597(8) 0.0429 Uani
O3D O 0.58974(11) 0.41342(11) 0.56135(10) 0.0451 Uani
O3E O -0.58974(11) 0.41342(11) -0.06135(10) 0.0451 Uani
O4F O 0.46458(12) 0.50173(10) 0.61469(8) 0.0418 Uani
O4G O -0.46458(12) 0.50173(10) -0.11469(8) 0.0418 Uani
loop_
_atom_site_aniso_label
_atom_site_aniso_U_11
_atom_site_aniso_U_22
_atom_site_aniso_U_33
_atom_site_aniso_U_23
_atom_site_aniso_U_13
_atom_site_aniso_U_12
Cu1 0.0357(2) 0.0353(2) 0.0219(2) 0.00511(10) -0.00133(13) 0.00377(11)
O1 0.0565(9) 0.0438(9) 0.0288(7) 0.0031(6) 0.0070(7) -0.0015(7)
O2 0.0401(8) 0.0459(9) 0.0404(8) 0.0113(7) -0.0051(6) 0.0059(7)
O3 0.0381(8) 0.0494(9) 0.0454(9) 0.0140(8) -0.0037(7) 0.0059(7)
O4 0.0550(9) 0.0429(9) 0.0268(7) 0.0006(6) 0.0026(6) -0.0050(7)
O5 0.0545(10) 0.0424(9) 0.0479(9) 0.0105(7) 0.0109(8) 0.0008(8)
N1 0.0373(13) 0.0368(13) 0.0454(14) 0.000 -0.0122(11) 0.000
C1 0.0295(9) 0.0453(12) 0.0277(9) 0.0058(8) -0.0042(7) 0.0017(8)
C2 0.0262(12) 0.0374(15) 0.0354(14) 0.000 -0.0064(10) 0.000
C3 0.0349(10) 0.0438(11) 0.0261(9) 0.0023(8) -0.0021(7) 0.0017(9)
C4 0.0434(16) 0.0427(16) 0.0244(14) 0.000 -0.0008(12) 0.000
C5 0.0390(11) 0.0430(11) 0.0312(10) 0.0021(9) -0.0043(9) 0.0086(10)
C6 0.0393(11) 0.0412(12) 0.0453(12) 0.0064(10) -0.0092(9) -0.0018(9)
C7 0.0412(12) 0.0397(12) 0.0388(12) 0.0055(9) -0.0076(9) 0.0032(9)
C8 0.0494(13) 0.0416(13) 0.0532(14) 0.0138(11) -0.0107(11) -0.0010(11)
C9 0.0420(13) 0.0465(13) 0.0662(18) 0.0185(12) -0.0086(12) -0.0050(10)
C10 0.0389(11) 0.0488(13) 0.0504(13) 0.0148(11) -0.0063(10) 0.0003(10)
C11 0.0395(11) 0.0388(12) 0.0558(14) 0.0093(10) -0.0109(10) -0.0040(9)
C12 0.0399(11) 0.0536(14) 0.0476(13) 0.0165(11) -0.0047(10) 0.0000(11)
N2 0.0779(18) 0.0794(19) 0.0701(17) 0.0009(14) 0.0216(14) -0.0203(15)
C13 0.0626(17) 0.0679(18) 0.0554(16) 0.0032(14) 0.0101(13) -0.0063(15)
C14 0.097(3) 0.136(5) 0.130(5) 0.004(4) 0.050(3) -0.011(3)
C15 0.160(5) 0.055(2) 0.106(3) 0.007(2) 0.048(3) -0.017(3)
C16 0.0375(10) 0.0420(12) 0.0249(10) 0.0048(8) -0.0027(8) 0.0074(8)
O1A 0.0565 0.0438 0.0288 -0.0031 0.007 0.0015
O2A 0.0401 0.0459 0.0404 -0.0113 -0.0051 -0.0059
O3A 0.0381 0.0494 0.0454 -0.014 -0.0037 -0.0059
O4A 0.055 0.0429 0.0268 -0.0006 0.0026 0.005
C1A 0.0295 0.0453 0.0277 -0.0058 -0.0042 -0.0017
C3A 0.0349 0.0438 0.0261 -0.0023 -0.0021 -0.0017
C5A 0.039 0.043 0.0312 -0.0021 -0.0043 -0.0086
C6A 0.0393 0.0412 0.0453 -0.0064 -0.0092 0.0018
C7A 0.0412 0.0397 0.0388 -0.0055 -0.0076 -0.0032
C8A 0.0494 0.0416 0.0532 -0.0138 -0.0107 0.001
C9A 0.042 0.0465 0.0662 -0.0185 -0.0086 0.005
C10A 0.0389 0.0488 0.0504 -0.0148 -0.0063 -0.0003
C11A 0.0395 0.0388 0.0558 -0.0093 -0.0109 0.004
C12A 0.0399 0.0536 0.0476 -0.0165 -0.0047 0
C16A 0.0375 0.042 0.0249 -0.0048 -0.0027 -0.0074
Cu1A 0.0357 0.0353 0.0219 -0.00511 -0.00133 -0.00377
O5A 0.0545 0.0424 0.0479 -0.0105 0.0109 -0.0008
N2A 0.0779 0.0794 0.0701 -0.0009 0.0216 0.0203
C13A 0.0626 0.0679 0.0554 -0.0032 0.0101 0.0063
C14A 0.097 0.136 0.13 -0.004 0.05 0.011
C15A 0.16 0.055 0.106 -0.007 0.048 0.017
Cu1B 0.0357 0.0353 0.0219 0.00511 -0.00133 0.00377
Cu1C 0.0357 0.0353 0.0219 -0.00511 -0.00133 -0.00377
Cu1D 0.0357 0.0353 0.0219 0.00511 -0.00133 0.00377
Cu1E 0.0357 0.0353 0.0219 -0.00511 -0.00133 -0.00377
Cu1F 0.0357 0.0353 0.0219 0.00511 -0.00133 0.00377
Cu1G 0.0357 0.0353 0.0219 -0.00511 -0.00133 -0.00377
O1B 0.0565 0.0438 0.0288 0.0031 0.007 -0.0015
O1C 0.0565 0.0438 0.0288 -0.0031 0.007 0.0015
O3D 0.0381 0.0494 0.0454 0.014 -0.0037 0.0059
O3E 0.0381 0.0494 0.0454 -0.014 -0.0037 -0.0059
O4F 0.055 0.0429 0.0268 0.0006 0.0026 -0.005
O4G 0.055 0.0429 0.0268 -0.0006 0.0026 0.005
loop_
_geom_bond_atom_site_label_1
_geom_bond_atom_site_label_2
_geom_bond_site_symmetry_1
_geom_bond_site_symmetry_2
Cu1 O2 1_555 1_555
O1 C16 1_555 1_555
O2 C5 1_555 1_555
O3 C5 1_555 1_555
O4 C16 1_555 1_555
O5 Cu1 1_555 1_555
N1 C2 1_555 1_555
C1 H1 1_555 1_555
C2 C1 1_555 1_555
C3 C1 1_555 1_555
C4 C3 1_555 1_555
H2 C4 1_555 1_555
C5 C7 1_555 1_555
C6 C9 1_555 1_555
C7 C8 1_555 1_555
C8 H3 1_555 1_555
C9 C8 1_555 1_555
H4 C9 1_555 1_555
C10 C6 1_555 1_555
H5 C10 1_555 1_555
C11 N1 1_555 1_555
H6 C11 1_555 1_555
H7 C11 1_555 1_555
C12 C7 1_555 1_555
H8 C12 1_555 1_555
N2 C13 1_555 1_555
C13 O5 1_555 1_555
H9 C13 1_555 1_555
C14 N2 1_555 1_555
H10 C14 1_555 1_555
H11 C14 1_555 1_555
H12 C14 1_555 1_555
C15 N2 1_555 1_555
H13 C15 1_555 1_555
H14 C15 1_555 1_555
H15 C15 1_555 1_555
C16 C3 1_555 1_555
O1A C16A 1_555 1_555
O2A C5A 1_555 1_555
O3A C5A 1_555 1_555
O4A C16A 1_555 1_555
C1A C2 1_555 1_555
H1A C1A 1_555 1_555
C3A C4 1_555 1_555
C5A C7A 1_555 1_555
C6A C9A 1_555 1_555
C7A C8A 1_555 1_555
C8A H3A 1_555 1_555
C9A C8A 1_555 1_555
H4A C9A 1_555 1_555
C10A C6A 1_555 1_555
H5A C10A 1_555 1_555
C11A N1 1_555 1_555
H6A C11A 1_555 1_555
H7A C11A 1_555 1_555
C12A C7A 1_555 1_555
H8A C12A 1_555 1_555
C16A C3A 1_555 1_555
Cu1A O2A 1_555 1_555
O5A Cu1A 1_555 1_555
N2A C13A 1_555 1_555
C13A O5A 1_555 1_555
H9A C13A 1_555 1_555
C14A N2A 1_555 1_555
H10A C14A 1_555 1_555
H11A C14A 1_555 1_555
H12A C14A 1_555 1_555
C15A N2A 1_555 1_555
H13A C15A 1_555 1_555
H14A C15A 1_555 1_555
H15A C15A 1_555 1_555
Cu1B O1 1_555 1_555
Cu1C O1A 1_555 1_555
Cu1D O3 1_555 1_555
Cu1E O3A 1_555 1_555
Cu1F O4 1_555 1_555
Cu1G O4A 1_555 1_555
O1B Cu1 1_555 1_555
O1C Cu1A 1_555 1_555
O3D Cu1 1_555 1_555
O3E Cu1A 1_555 1_555
O4F Cu1 1_555 1_555
O4G Cu1A 1_555 1_555
C6 C11 1_555 1_555
C10 C12 1_555 1_555
C1A C3A 1_555 1_555
C6A C11A 1_555 1_555
C10A C12A 1_555 1_555

#END
