
#######################################################################
#
#                 Cambridge Crystallographic Data Centre
#                                CCDC 
#
#######################################################################
#
# If this CIF has been generated from an entry in the Cambridge 
# Structural Database, then it will include bibliographic, chemical, 
# crystal, experimental, refinement or atomic coordinate data resulting 
# from the CCDC's data processing and validation procedures.
#
#######################################################################

data_HAKCAZ
_chemical_formula_moiety         'C144 H72 Dy18 N12 O43 Zn3'
_symmetry_cell_setting           orthorhombic
_symmetry_space_group_name_H-M   'C c c m'
_symmetry_Int_Tables_number      66
_space_group_name_Hall           '-C 2 2c'
loop_
_symmetry_equiv_pos_site_id
_symmetry_equiv_pos_as_xyz
1 x,y,z
2 -x,-y,z
3 x,-y,1/2-z
4 -x,y,1/2-z
5 1/2+x,1/2+y,z
6 1/2-x,1/2-y,z
7 1/2+x,1/2-y,1/2-z
8 1/2-x,1/2+y,1/2-z
9 -x,-y,-z
10 x,y,-z
11 -x,y,1/2+z
12 x,-y,1/2+z
13 1/2-x,1/2-y,-z
14 1/2+x,1/2+y,-z
15 1/2-x,1/2+y,1/2+z
16 1/2+x,1/2-y,1/2+z
_cell_length_a                   16.7295(3)
_cell_length_b                   32.1935(5)
_cell_length_c                   33.4739(7)
_cell_angle_alpha                90
_cell_angle_beta                 90
_cell_angle_gamma                90
_cell_volume                     18028.4
loop_
_atom_site_label
_atom_site_type_symbol
_atom_site_fract_x
_atom_site_fract_y
_atom_site_fract_z
Dy1 Dy 0.5000 -0.233075(16) -0.2500
Dy2 Dy 0.2500 -0.2500 -0.283766(13)
Zn1 Zn 0.38507(8) -0.02997(4) 0.0000
Zn2 Zn 0.5000 -0.5000 -0.5000
C1 C 0.3650(4) -0.15926(18) -0.01995(17)
H1 H 0.3616 -0.1823 -0.0366
C2 C 0.3711(4) -0.11721(18) -0.03273(17)
C3 C 0.3621(4) -0.10376(18) -0.07212(18)
C4 C 0.3634(4) -0.06312(19) -0.08356(17)
C5 C 0.3514(4) -0.0486(2) -0.1243(2)
H2 H 0.3399 -0.0648 -0.1466
C6 C 0.3618(5) -0.0073(2) -0.1238(2)
H3 H 0.3569 0.0102 -0.1457
C7 C 0.3815(4) 0.00466(18) -0.0836(2)
C8 C 0.3973(4) 0.0449(2) -0.0717(2)
C9 C 0.4092(4) 0.0572(2) -0.0321(2)
C10 C 0.4291(4) 0.09799(18) -0.0189(2)
H4 H 0.4424 0.1202 -0.0354
N1 N 0.3743(5) -0.0911(2) 0.0000
N2 N 0.3803(3) -0.02937(14) -0.05841(15)
N3 N 0.4016(5) 0.0305(2) 0.0000
C11 C 0.3464(4) -0.1358(2) -0.10422(18)
C12 C 0.2757(5) -0.1360(2) -0.1245(2)
H5 H 0.2354 -0.1180 -0.1167
C13 C 0.2650(4) -0.1605(2) -0.1581(2)
H6 H 0.2160 -0.1612 -0.1711
C14 C 0.3261(5) -0.1857(2) -0.1711(2)
C15 C 0.3957(5) -0.1877(2) -0.15007(19)
H7 H 0.4364 -0.2050 -0.1590
C16 C 0.4067(4) -0.16347(19) -0.11606(18)
H8 H 0.4532 -0.1659 -0.1011
C17 C 0.3188(5) -0.2075(2) -0.2101(2)
O1 O 0.3755(3) -0.22901(16) -0.22358(14)
O2 O 0.2516(3) -0.20540(16) -0.22849(16)
C18 C 0.3959(5) 0.0786(2) -0.1041(2)
C19 C 0.4513(5) 0.0793(2) -0.1343(3)
H9 H 0.4897 0.0587 -0.1362
C20 C 0.4493(5) 0.1121(3) -0.1622(3)
H10 H 0.4874 0.1137 -0.1823
C21 C 0.3924(5) 0.1408(2) -0.1603(3)
C22 C 0.3343(6) 0.1402(3) -0.1290(3)
H11 H 0.2967 0.1613 -0.1272
C23 C 0.3379(5) 0.1087(2) -0.1011(3)
H12 H 0.3001 0.1070 -0.0809
C24 C 0.3876(7) 0.1764(3) -0.1910(3)
O3 O 0.4497(4) 0.1811(2) -0.2122(2)
O4 O 0.3238(4) 0.19645(17) -0.19288(18)
C25 C 0.4571(5) -0.3726(2) -0.4802(2)
H13 H 0.4478 -0.3494 -0.4632
C26 C 0.4734(4) -0.4128(2) -0.4683(2)
C27 C 0.4777(4) -0.4262(2) -0.4274(2)
C28 C 0.4892(4) -0.4657(2) -0.4152(2)
C29 C 0.4918(6) -0.4800(2) -0.3749(2)
H14 H 0.4833 -0.4633 -0.3526
N4 N 0.4813(4) -0.4387(2) -0.5000
N5 N 0.5000 -0.5000 -0.4403(2)
C30 C 0.4655(5) -0.3930(2) -0.3968(2)
C31 C 0.5094(6) -0.3331(3) -0.3600(3)
H15 H 0.5502 -0.3149 -0.3532
C32 C 0.5255(5) -0.3640(3) -0.3886(3)
H16 H 0.5729 -0.3639 -0.4030
C33 C 0.4377(5) -0.3289(2) -0.3421(3)
C34 C 0.3804(5) -0.3558(2) -0.3501(2)
H17 H 0.3313 -0.3532 -0.3374
C35 C 0.3939(5) -0.3883(2) -0.3773(3)
H18 H 0.3541 -0.4079 -0.3815
C36 C 0.4226(7) -0.2933(3) -0.3132(3)
O5 O 0.3549(4) -0.29009(16) -0.29897(16)
O6 O 0.4910(9) -0.2776(5) -0.2970(5)
O7 O 0.2500 -0.2500 -0.3551(6)
Dy1A Dy 0.5000 -0.766925(16) -0.2500
Dy1A_2 Dy 0.5000 0.233075(16) -0.2500
Dy1H Dy 0.5000 0.233075(16) 0.2500
Dy1I Dy 0.5000 -0.233075(16) 0.2500
Dy1H_2 Dy 0.5000 -0.766925(16) -0.7500
Dy1I_2 Dy 0.5000 -0.233075(16) -0.7500
Dy2A Dy 0.7500 -0.7500 -0.283766(13)
Dy2B Dy 0.2500 0.2500 -0.216234(13)
Dy2K Dy 0.2500 0.2500 0.216234(13)
Dy2I Dy 0.2500 -0.2500 0.283766(13)
Dy2H Dy 0.7500 -0.7500 -0.716234(13)
Dy2I_2 Dy 0.2500 -0.2500 -0.716234(13)
Dy2A_2 Dy 0.7500 0.2500 -0.283766(13)
Dy2C Dy 0.7500 -0.2500 -0.216234(13)
Dy2J Dy 0.7500 -0.2500 0.216234(13)
Dy2H_2 Dy 0.7500 0.2500 0.283766(13)
Zn1A Zn 0.61493(8) 0.02997(4) 0.0000
C1I C 0.3650(4) -0.15926(18) 0.01995(17)
C1A C 0.6350(4) 0.15926(18) -0.01995(17)
C1H C 0.6350(4) 0.15926(18) 0.01995(17)
H1I H 0.3616 -0.1823 0.0366
H1A H 0.6384 0.1823 -0.0366
H1H H 0.6384 0.1823 0.0366
C2I C 0.3711(4) -0.11721(18) 0.03273(17)
C2A C 0.6289(4) 0.11721(18) -0.03273(17)
C2H C 0.6289(4) 0.11721(18) 0.03273(17)
C3I C 0.3621(4) -0.10376(18) 0.07212(18)
C3A C 0.6379(4) 0.10376(18) -0.07212(18)
C3H C 0.6379(4) 0.10376(18) 0.07212(18)
C4I C 0.3634(4) -0.06312(19) 0.08356(17)
C4A C 0.6366(4) 0.06312(19) -0.08356(17)
C4H C 0.6366(4) 0.06312(19) 0.08356(17)
C5I C 0.3514(4) -0.0486(2) 0.1243(2)
C5A C 0.6486(4) 0.0486(2) -0.1243(2)
C5H C 0.6486(4) 0.0486(2) 0.1243(2)
H2I H 0.3399 -0.0648 0.1466
H2A H 0.6601 0.0648 -0.1466
H2H H 0.6601 0.0648 0.1466
C6I C 0.3618(5) -0.0073(2) 0.1238(2)
C6A C 0.6382(5) 0.0073(2) -0.1238(2)
C6H C 0.6382(5) 0.0073(2) 0.1238(2)
H3I H 0.3569 0.0102 0.1457
H3A H 0.6431 -0.0102 -0.1457
H3H H 0.6431 -0.0102 0.1457
C7I C 0.3815(4) 0.00466(18) 0.0836(2)
C7A C 0.6185(4) -0.00466(18) -0.0836(2)
C7H C 0.6185(4) -0.00466(18) 0.0836(2)
C8I C 0.3973(4) 0.0449(2) 0.0717(2)
C8A C 0.6027(4) -0.0449(2) -0.0717(2)
C8H C 0.6027(4) -0.0449(2) 0.0717(2)
C9I C 0.4092(4) 0.0572(2) 0.0321(2)
C9A C 0.5908(4) -0.0572(2) -0.0321(2)
C9H C 0.5908(4) -0.0572(2) 0.0321(2)
C10I C 0.4291(4) 0.09799(18) 0.0189(2)
C10A C 0.5709(4) -0.09799(18) -0.0189(2)
C10H C 0.5709(4) -0.09799(18) 0.0189(2)
H4I H 0.4424 0.1202 0.0354
H4A H 0.5576 -0.1202 -0.0354
H4H H 0.5576 -0.1202 0.0354
N1A N 0.6257(5) 0.0911(2) 0.0000
N2I N 0.3803(3) -0.02937(14) 0.05841(15)
N2A N 0.6197(3) 0.02937(14) -0.05841(15)
N2H N 0.6197(3) 0.02937(14) 0.05841(15)
N3A N 0.5984(5) -0.0305(2) 0.0000
C11I C 0.3464(4) -0.1358(2) 0.10422(18)
C11A C 0.6536(4) 0.1358(2) -0.10422(18)
C11H C 0.6536(4) 0.1358(2) 0.10422(18)
C12I C 0.2757(5) -0.1360(2) 0.1245(2)
C12A C 0.7243(5) 0.1360(2) -0.1245(2)
C12H C 0.7243(5) 0.1360(2) 0.1245(2)
H5I H 0.2354 -0.1180 0.1167
H5A H 0.7646 0.1180 -0.1167
H5H H 0.7646 0.1180 0.1167
C13I C 0.2650(4) -0.1605(2) 0.1581(2)
C13A C 0.7350(4) 0.1605(2) -0.1581(2)
C13H C 0.7350(4) 0.1605(2) 0.1581(2)
H6I H 0.2160 -0.1612 0.1711
H6A H 0.7840 0.1612 -0.1711
H6H H 0.7840 0.1612 0.1711
C14I C 0.3261(5) -0.1857(2) 0.1711(2)
C14A C 0.6739(5) 0.1857(2) -0.1711(2)
C14H C 0.6739(5) 0.1857(2) 0.1711(2)
C15I C 0.3957(5) -0.1877(2) 0.15007(19)
C15A C 0.6043(5) 0.1877(2) -0.15007(19)
C15H C 0.6043(5) 0.1877(2) 0.15007(19)
H7I H 0.4364 -0.2050 0.1590
H7A H 0.5636 0.2050 -0.1590
H7H H 0.5636 0.2050 0.1590
C16I C 0.4067(4) -0.16347(19) 0.11606(18)
C16A C 0.5933(4) 0.16347(19) -0.11606(18)
C16H C 0.5933(4) 0.16347(19) 0.11606(18)
H8I H 0.4532 -0.1659 0.1011
H8A H 0.5468 0.1659 -0.1011
H8H H 0.5468 0.1659 0.1011
C17I C 0.3188(5) -0.2075(2) 0.2101(2)
C17A C 0.6812(5) 0.2075(2) -0.2101(2)
C17H C 0.6812(5) 0.2075(2) 0.2101(2)
O1I O 0.3755(3) -0.22901(16) 0.22358(14)
O1A O 0.6245(3) 0.22901(16) -0.22358(14)
O1H O 0.6245(3) 0.22901(16) 0.22358(14)
O1C O 0.6245(3) -0.22901(16) -0.27642(14)
O1A_2 O 0.6245(3) -0.77099(16) -0.22358(14)
O1B O 0.3755(3) -0.77099(16) -0.27642(14)
O2I O 0.2516(3) -0.20540(16) 0.22849(16)
O2A O 0.7484(3) 0.20540(16) -0.22849(16)
O2H O 0.7484(3) 0.20540(16) 0.22849(16)
O2E O 0.2484(3) -0.29460(16) -0.22849(16)
O2A_2 O 0.7484(3) -0.79460(16) -0.22849(16)
O2D O 0.7516(3) -0.70540(16) -0.22849(16)
C18I C 0.3959(5) 0.0786(2) 0.1041(2)
C18A C 0.6041(5) -0.0786(2) -0.1041(2)
C18H C 0.6041(5) -0.0786(2) 0.1041(2)
C19I C 0.4513(5) 0.0793(2) 0.1343(3)
C19A C 0.5487(5) -0.0793(2) -0.1343(3)
C19H C 0.5487(5) -0.0793(2) 0.1343(3)
H9I H 0.4897 0.0587 0.1362
H9A H 0.5103 -0.0587 -0.1362
H9H H 0.5103 -0.0587 0.1362
C20I C 0.4493(5) 0.1121(3) 0.1622(3)
C20A C 0.5507(5) -0.1121(3) -0.1622(3)
C20H C 0.5507(5) -0.1121(3) 0.1622(3)
H10I H 0.4874 0.1137 0.1823
H10A H 0.5126 -0.1137 -0.1823
H10H H 0.5126 -0.1137 0.1823
C21I C 0.3924(5) 0.1408(2) 0.1603(3)
C21A C 0.6076(5) -0.1408(2) -0.1603(3)
C21H C 0.6076(5) -0.1408(2) 0.1603(3)
C22I C 0.3343(6) 0.1402(3) 0.1290(3)
C22A C 0.6657(6) -0.1402(3) -0.1290(3)
C22H C 0.6657(6) -0.1402(3) 0.1290(3)
H11I H 0.2967 0.1613 0.1272
H11A H 0.7033 -0.1613 -0.1272
H11H H 0.7033 -0.1613 0.1272
C23I C 0.3379(5) 0.1087(2) 0.1011(3)
C23A C 0.6621(5) -0.1087(2) -0.1011(3)
C23H C 0.6621(5) -0.1087(2) 0.1011(3)
H12I H 0.3001 0.1070 0.0809
H12A H 0.6999 -0.1070 -0.0809
H12H H 0.6999 -0.1070 0.0809
C24I C 0.3876(7) 0.1764(3) 0.1910(3)
C24A C 0.6124(7) -0.1764(3) -0.1910(3)
C24H C 0.6124(7) -0.1764(3) 0.1910(3)
O3I O 0.4497(4) 0.1811(2) 0.2122(2)
O3A O 0.5503(4) -0.1811(2) -0.2122(2)
O3H O 0.5503(4) -0.1811(2) 0.2122(2)
O3B O 0.4497(4) -0.1811(2) -0.2878(2)
O3_2 O 0.4497(4) -0.8189(2) -0.2122(2)
O3C O 0.5503(4) -0.8189(2) -0.2878(2)
O4I O 0.3238(4) 0.19645(17) 0.19288(18)
O4A O 0.6762(4) -0.19645(17) -0.19288(18)
O4H O 0.6762(4) -0.19645(17) 0.19288(18)
O4B O 0.3238(4) -0.19645(17) -0.30712(18)
O4G O 0.1762(4) -0.30355(17) -0.30712(18)
O4C O 0.6762(4) -0.80355(17) -0.30712(18)
O4F O 0.8238(4) -0.69645(17) -0.30712(18)
C25I C 0.4571(5) -0.3726(2) -0.5198(2)
C25H C 0.5429(5) -0.6274(2) -0.5198(2)
C25A C 0.5429(5) -0.6274(2) -0.4802(2)
H13I H 0.4478 -0.3494 -0.5368
H13A H 0.5522 -0.6506 -0.4632
H13H H 0.5522 -0.6506 -0.5368
C26I C 0.4734(4) -0.4128(2) -0.5317(2)
C26H C 0.5266(4) -0.5872(2) -0.5317(2)
C26A C 0.5266(4) -0.5872(2) -0.4683(2)
C27I C 0.4777(4) -0.4262(2) -0.5726(2)
C27H C 0.5223(4) -0.5738(2) -0.5726(2)
C27A C 0.5223(4) -0.5738(2) -0.4274(2)
C28I C 0.4892(4) -0.4657(2) -0.5848(2)
C28H C 0.5108(4) -0.5343(2) -0.5848(2)
C28A C 0.5108(4) -0.5343(2) -0.4152(2)
C29I C 0.4918(6) -0.4800(2) -0.6251(2)
C29H C 0.5082(6) -0.5200(2) -0.6251(2)
C29A C 0.5082(6) -0.5200(2) -0.3749(2)
H14I H 0.4833 -0.4633 -0.6474
H14A H 0.5167 -0.5367 -0.3526
H14H H 0.5167 -0.5367 -0.6474
N4A N 0.5187(4) -0.5613(2) -0.5000
N5H N 0.5000 -0.5000 -0.5597(2)
C30A C 0.5345(5) -0.6070(2) -0.3968(2)
C30H C 0.5345(5) -0.6070(2) -0.6032(2)
C30I C 0.4655(5) -0.3930(2) -0.6032(2)
C31A C 0.4906(6) -0.6669(3) -0.3600(3)
C31H C 0.4906(6) -0.6669(3) -0.6400(3)
C31I C 0.5094(6) -0.3331(3) -0.6400(3)
H15A H 0.4498 -0.6851 -0.3532
H15H H 0.4498 -0.6851 -0.6468
H15I H 0.5502 -0.3149 -0.6468
C32A C 0.4745(5) -0.6360(3) -0.3886(3)
C32H C 0.4745(5) -0.6360(3) -0.6114(3)
C32I C 0.5255(5) -0.3640(3) -0.6114(3)
H16A H 0.4271 -0.6361 -0.4030
H16H H 0.4271 -0.6361 -0.5970
H16I H 0.5729 -0.3639 -0.5970
C33A C 0.5623(5) -0.6711(2) -0.3421(3)
C33H C 0.5623(5) -0.6711(2) -0.6579(3)
C33I C 0.4377(5) -0.3289(2) -0.6579(3)
C34A C 0.6196(5) -0.6442(2) -0.3501(2)
C34H C 0.6196(5) -0.6442(2) -0.6499(2)
C34I C 0.3804(5) -0.3558(2) -0.6499(2)
H17A H 0.6687 -0.6468 -0.3374
H17H H 0.6687 -0.6468 -0.6626
H17I H 0.3313 -0.3532 -0.6626
C35A C 0.6061(5) -0.6117(2) -0.3773(3)
C35H C 0.6061(5) -0.6117(2) -0.6227(3)
C35I C 0.3939(5) -0.3883(2) -0.6227(3)
H18A H 0.6459 -0.5921 -0.3815
H18H H 0.6459 -0.5921 -0.6185
H18I H 0.3541 -0.4079 -0.6185
C36A C 0.5774(7) -0.7067(3) -0.3132(3)
C36H C 0.5774(7) -0.7067(3) -0.6868(3)
C36I C 0.4226(7) -0.2933(3) -0.6868(3)
O5A O 0.6451(4) -0.70991(16) -0.29897(16)
O5H O 0.6451(4) -0.70991(16) -0.70103(16)
O5I O 0.3549(4) -0.29009(16) -0.70103(16)
O5E O 0.1451(4) -0.20991(16) -0.29897(16)
O5D O 0.8549(4) -0.79009(16) -0.29897(16)
O6A O 0.5090(9) -0.7224(5) -0.2970(5)
O6H O 0.5090(9) -0.7224(5) -0.7030(5)
O6I O 0.4910(9) -0.2776(5) -0.7030(5)
O6C O 0.5090(9) -0.2776(5) -0.2030(5)
O6B O 0.4910(9) -0.7224(5) -0.2030(5)
O7A O 0.7500 -0.7500 -0.3551(6)
loop_
_geom_bond_atom_site_label_1
_geom_bond_atom_site_label_2
_geom_bond_site_symmetry_1
_geom_bond_site_symmetry_2
Dy1 O1 1_555 1_555
Dy2 O2 1_555 1_555
Zn1 N1 1_555 1_555
Zn2 N4 1_555 1_555
C1 H1 1_555 1_555
C2 C1 1_555 1_555
C3 C2 1_555 1_555
C4 C3 1_555 1_555
C5 C4 1_555 1_555
H2 C5 1_555 1_555
C6 C5 1_555 1_555
H3 C6 1_555 1_555
C7 C6 1_555 1_555
C8 C7 1_555 1_555
C9 C8 1_555 1_555
C10 C9 1_555 1_555
H4 C10 1_555 1_555
N1 C2 1_555 1_555
N2 Zn1 1_555 1_555
N3 Zn1 1_555 1_555
C11 C3 1_555 1_555
C12 C11 1_555 1_555
H5 C12 1_555 1_555
C13 C12 1_555 1_555
H6 C13 1_555 1_555
C14 C13 1_555 1_555
C15 C14 1_555 1_555
H7 C15 1_555 1_555
C16 C11 1_555 1_555
H8 C16 1_555 1_555
C17 C14 1_555 1_555
O1 C17 1_555 1_555
O2 C17 1_555 1_555
C18 C8 1_555 1_555
C19 C18 1_555 1_555
H9 C19 1_555 1_555
C20 C19 1_555 1_555
H10 C20 1_555 1_555
C21 C20 1_555 1_555
C22 C21 1_555 1_555
H11 C22 1_555 1_555
C23 C18 1_555 1_555
H12 C23 1_555 1_555
C24 C21 1_555 1_555
O3 C24 1_555 1_555
O4 C24 1_555 1_555
C25 H13 1_555 1_555
C26 C25 1_555 1_555
C27 C26 1_555 1_555
C28 C27 1_555 1_555
C29 C28 1_555 1_555
H14 C29 1_555 1_555
N4 C26 1_555 1_555
N5 Zn2 1_555 1_555
C30 C27 1_555 1_555
C31 H15 1_555 1_555
C32 C30 1_555 1_555
H16 C32 1_555 1_555
C33 C31 1_555 1_555
C34 C33 1_555 1_555
H17 C34 1_555 1_555
C35 C30 1_555 1_555
H18 C35 1_555 1_555
C36 C33 1_555 1_555
O5 Dy2 1_555 1_555
O6 Dy1 1_555 1_555
O7 Dy2 1_555 1_555
Dy1A O1A_2 1_555 1_555
Dy1A_2 O3 1_555 1_555
Dy1H O1H 1_555 1_555
Dy1I O1I 1_555 1_555
Dy1H_2 O6H 1_555 1_555
Dy1I_2 O6I 1_555 1_555
Dy2A O2A_2 1_555 1_555
Dy2B O4 1_555 1_555
Dy2K O4I 1_555 1_555
Dy2I O2I 1_555 1_555
Dy2H O5H 1_555 1_555
Dy2I_2 O5I 1_555 1_555
Dy2A_2 O2A 1_555 1_555
Dy2C O4A 1_555 1_555
Dy2J O4H 1_555 1_555
Dy2H_2 O2H 1_555 1_555
Zn1A N1A 1_555 1_555
C1I C1 1_555 1_555
C1A C1H 1_555 1_555
C1H H1H 1_555 1_555
H1I C1I 1_555 1_555
H1A C1A 1_555 1_555
C2I N1 1_555 1_555
C2A C1A 1_555 1_555
C2H C1H 1_555 1_555
C3I C2I 1_555 1_555
C3A C2A 1_555 1_555
C3H C2H 1_555 1_555
C4I C3I 1_555 1_555
C4A C3A 1_555 1_555
C4H C3H 1_555 1_555
C5I C4I 1_555 1_555
C5A C4A 1_555 1_555
C5H C4H 1_555 1_555
H2I C5I 1_555 1_555
H2A C5A 1_555 1_555
H2H C5H 1_555 1_555
C6I C5I 1_555 1_555
C6A C5A 1_555 1_555
C6H C5H 1_555 1_555
H3I C6I 1_555 1_555
H3A C6A 1_555 1_555
H3H C6H 1_555 1_555
C7I C6I 1_555 1_555
C7A C6A 1_555 1_555
C7H C6H 1_555 1_555
C8I C7I 1_555 1_555
C8A C7A 1_555 1_555
C8H C7H 1_555 1_555
C9I N3 1_555 1_555
C9A C8A 1_555 1_555
C9H C8H 1_555 1_555
C10I C10 1_555 1_555
C10A C9A 1_555 1_555
C10H C9H 1_555 1_555
H4I C10I 1_555 1_555
H4A C10A 1_555 1_555
H4H C10H 1_555 1_555
N1A C2A 1_555 1_555
N2I Zn1 1_555 1_555
N2A Zn1A 1_555 1_555
N2H Zn1A 1_555 1_555
N3A Zn1A 1_555 1_555
C11I C3I 1_555 1_555
C11A C3A 1_555 1_555
C11H C3H 1_555 1_555
C12I C11I 1_555 1_555
C12A C11A 1_555 1_555
C12H C11H 1_555 1_555
H5I C12I 1_555 1_555
H5A C12A 1_555 1_555
H5H C12H 1_555 1_555
C13I C12I 1_555 1_555
C13A C12A 1_555 1_555
C13H C12H 1_555 1_555
H6I C13I 1_555 1_555
H6A C13A 1_555 1_555
H6H C13H 1_555 1_555
C14I C13I 1_555 1_555
C14A C13A 1_555 1_555
C14H C13H 1_555 1_555
C15I C14I 1_555 1_555
C15A C14A 1_555 1_555
C15H C14H 1_555 1_555
H7I C15I 1_555 1_555
H7A C15A 1_555 1_555
H7H C15H 1_555 1_555
C16I C11I 1_555 1_555
C16A C11A 1_555 1_555
C16H C11H 1_555 1_555
H8I C16I 1_555 1_555
H8A C16A 1_555 1_555
H8H C16H 1_555 1_555
C17I C14I 1_555 1_555
C17A C14A 1_555 1_555
C17H C14H 1_555 1_555
O1I C17I 1_555 1_555
O1A Dy1A_2 1_555 1_555
O1H C17H 1_555 1_555
O1C Dy1 1_555 1_555
O1B Dy1A 1_555 1_555
O2I C17I 1_555 1_555
O2A C17A 1_555 1_555
O2H C17H 1_555 1_555
O2E Dy2 1_555 1_555
O2D Dy2A 1_555 1_555
C18I C8I 1_555 1_555
C18A C8A 1_555 1_555
C18H C8H 1_555 1_555
C19I C18I 1_555 1_555
C19A C18A 1_555 1_555
C19H C18H 1_555 1_555
H9I C19I 1_555 1_555
H9A C19A 1_555 1_555
H9H C19H 1_555 1_555
C20I C19I 1_555 1_555
C20A C19A 1_555 1_555
C20H C19H 1_555 1_555
H10I C20I 1_555 1_555
H10A C20A 1_555 1_555
H10H C20H 1_555 1_555
C21I C20I 1_555 1_555
C21A C20A 1_555 1_555
C21H C20H 1_555 1_555
C22I C21I 1_555 1_555
C22A C21A 1_555 1_555
C22H C21H 1_555 1_555
H11I C22I 1_555 1_555
H11A C22A 1_555 1_555
H11H C22H 1_555 1_555
C23I C18I 1_555 1_555
C23A C18A 1_555 1_555
C23H C18H 1_555 1_555
H12I C23I 1_555 1_555
H12A C23A 1_555 1_555
H12H C23H 1_555 1_555
C24I C21I 1_555 1_555
C24A C21A 1_555 1_555
C24H C21H 1_555 1_555
O3I Dy1H 1_555 1_555
O3A Dy1 1_555 1_555
O3H Dy1I 1_555 1_555
O3B Dy1 1_555 1_555
O3_2 Dy1A 1_555 1_555
O3C Dy1A 1_555 1_555
O4I C24I 1_555 1_555
O4A C24A 1_555 1_555
O4H C24H 1_555 1_555
O4B Dy2 1_555 1_555
O4G Dy2 1_555 1_555
O4C Dy2A 1_555 1_555
O4F Dy2A 1_555 1_555
C25I C25 1_555 1_555
C25H C25A 1_555 1_555
C25A H13A 1_555 1_555
H13I C25I 1_555 1_555
H13H C25H 1_555 1_555
C26I N4 1_555 1_555
C26H C25H 1_555 1_555
C26A C25A 1_555 1_555
C27I C26I 1_555 1_555
C27H C26H 1_555 1_555
C27A C26A 1_555 1_555
C28I C27I 1_555 1_555
C28H C27H 1_555 1_555
C28A N5 1_555 1_555
C29I C28I 1_555 1_555
C29H C28H 1_555 1_555
C29A C29 1_555 1_555
H14I C29I 1_555 1_555
H14A C29A 1_555 1_555
H14H C29H 1_555 1_555
N4A Zn2 1_555 1_555
N5H Zn2 1_555 1_555
C30A C27A 1_555 1_555
C30H C27H 1_555 1_555
C30I C27I 1_555 1_555
C31A H15A 1_555 1_555
C31H H15H 1_555 1_555
C31I H15I 1_555 1_555
C32A C30A 1_555 1_555
C32H C30H 1_555 1_555
C32I C30I 1_555 1_555
H16A C32A 1_555 1_555
H16H C32H 1_555 1_555
H16I C32I 1_555 1_555
C33A C31A 1_555 1_555
C33H C31H 1_555 1_555
C33I C31I 1_555 1_555
C34A C33A 1_555 1_555
C34H C33H 1_555 1_555
C34I C33I 1_555 1_555
H17A C34A 1_555 1_555
H17H C34H 1_555 1_555
H17I C34I 1_555 1_555
C35A C30A 1_555 1_555
C35H C30H 1_555 1_555
C35I C30I 1_555 1_555
H18A C35A 1_555 1_555
H18H C35H 1_555 1_555
H18I C35I 1_555 1_555
C36A C33A 1_555 1_555
C36H C33H 1_555 1_555
C36I C33I 1_555 1_555
O5A Dy2A 1_555 1_555
O5H C36H 1_555 1_555
O5I C36I 1_555 1_555
O5E Dy2 1_555 1_555
O5D Dy2A 1_555 1_555
O6A Dy1A 1_555 1_555
O6H C36H 1_555 1_555
O6I C36I 1_555 1_555
O6C Dy1 1_555 1_555
O6B Dy1A 1_555 1_555
O7A Dy2A 1_555 1_555
C4 N2 1_555 1_555
C7 N2 1_555 1_555
C9 N3 1_555 1_555
C15 C16 1_555 1_555
C22 C23 1_555 1_555
C28 N5 1_555 1_555
C31 C32 1_555 1_555
C34 C35 1_555 1_555
C36 O5 1_555 1_555
C36 O6 1_555 1_555
C1I C2I 1_555 1_555
C2H N1A 1_555 1_555
C4I N2I 1_555 1_555
C4A N2A 1_555 1_555
C4H N2H 1_555 1_555
C7I N2I 1_555 1_555
C7A N2A 1_555 1_555
C7H N2H 1_555 1_555
C8I C9I 1_555 1_555
C9I C10I 1_555 1_555
C9A N3A 1_555 1_555
C9H N3A 1_555 1_555
C10A C10H 1_555 1_555
C15I C16I 1_555 1_555
C15A C16A 1_555 1_555
C15H C16H 1_555 1_555
C17A O1A 1_555 1_555
C22I C23I 1_555 1_555
C22A C23A 1_555 1_555
C22H C23H 1_555 1_555
C24I O3I 1_555 1_555
C24A O3A 1_555 1_555
C24H O3H 1_555 1_555
C25I C26I 1_555 1_555
C26H N4A 1_555 1_555
C26A N4A 1_555 1_555
C27A C28A 1_555 1_555
C28I N5H 1_555 1_555
C28H N5H 1_555 1_555
C28A C29A 1_555 1_555
C29I C29H 1_555 1_555
C31A C32A 1_555 1_555
C31H C32H 1_555 1_555
C31I C32I 1_555 1_555
C34A C35A 1_555 1_555
C34H C35H 1_555 1_555
C34I C35I 1_555 1_555
C36A O5A 1_555 1_555
C36A O6A 1_555 1_555

#END
