
#######################################################################
#
#                 Cambridge Crystallographic Data Centre
#                                CCDC 
#
#######################################################################
#
# If this CIF has been generated from an entry in the Cambridge 
# Structural Database, then it will include bibliographic, chemical, 
# crystal, experimental, refinement or atomic coordinate data resulting 
# from the CCDC's data processing and validation procedures.
#
#######################################################################

data_ATOBIW
_chemical_formula_moiety         '(C25 H17 N5 O5 Zn1)n'
_symmetry_cell_setting           monoclinic
_symmetry_space_group_name_H-M   'C 2/c'
_symmetry_Int_Tables_number      15
_space_group_name_Hall           '-C 2yc'
loop_
_symmetry_equiv_pos_site_id
_symmetry_equiv_pos_as_xyz
1 x,y,z
2 -x,y,1/2-z
3 1/2+x,1/2+y,z
4 1/2-x,1/2+y,1/2-z
5 -x,-y,-z
6 x,-y,1/2+z
7 1/2-x,1/2-y,-z
8 1/2+x,1/2-y,1/2+z
_cell_length_a                   26.932(5)
_cell_length_b                   10.850(5)
_cell_length_c                   21.795(5)
_cell_angle_alpha                90
_cell_angle_beta                 92.825(5)
_cell_angle_gamma                90
_cell_volume                     6361.03
loop_
_atom_site_label
_atom_site_type_symbol
_atom_site_fract_x
_atom_site_fract_y
_atom_site_fract_z
_atom_site_U_iso_or_equiv
_atom_site_thermal_displace_type
C1 C 0.20444(10) 0.9319(2) 0.10093(11) 0.0232 Uani
H1 H 0.2138 0.9849 0.0701 0.0280 Uiso
C2 C 0.18856(10) 0.8569(2) 0.18928(12) 0.0266 Uani
H2 H 0.1854 0.8501 0.2315 0.0320 Uiso
C3 C 0.17720(11) 0.7681(3) 0.14800(12) 0.0281 Uani
H3 H 0.1647 0.6901 0.1559 0.0340 Uiso
C4 C 0.18150(10) 0.7567(2) 0.03309(11) 0.0220 Uani
C5 C 0.16267(12) 0.6395(2) 0.02857(12) 0.0344 Uani
H4 H 0.1533 0.5960 0.0629 0.0410 Uiso
C6 C 0.15830(13) 0.5894(3) -0.02950(13) 0.0439 Uani
H5 H 0.1458 0.5100 -0.0349 0.0530 Uiso
C7 C 0.17222(12) 0.6559(3) -0.07973(12) 0.0370 Uani
H6 H 0.1695 0.6235 -0.1192 0.0440 Uiso
C8 C 0.19047(10) 0.7734(2) -0.06841(11) 0.0228 Uani
C9 C 0.20498(9) 0.8147(2) -0.17791(11) 0.0213 Uani
H7 H 0.1918 0.7413 -0.1936 0.0250 Uiso
C10 C 0.22837(10) 0.9616(2) -0.11343(12) 0.0266 Uani
H8 H 0.2343 1.0078 -0.0779 0.0320 Uiso
C11 C 0.23917(10) 0.9938(2) -0.17066(11) 0.0260 Uani
H9 H 0.2543 1.0670 -0.1817 0.0310 Uiso
C12 C 0.32723(10) 1.0863(2) 0.18599(11) 0.0214 Uani
C13 C 0.37862(10) 1.0985(2) 0.16341(12) 0.0227 Uani
C14 C 0.41273(10) 1.0046(2) 0.17427(12) 0.0268 Uani
H10 H 0.4041 0.9374 0.1980 0.0320 Uiso
C15 C 0.45944(10) 1.0089(3) 0.15038(12) 0.0271 Uani
H11 H 0.4822 0.9456 0.1579 0.0330 Uiso
C16 C 0.47137(10) 1.1091(3) 0.11535(13) 0.0302 Uani
C17 C 0.43839(10) 1.2043(3) 0.10504(13) 0.0360 Uani
H12 H 0.4473 1.2720 0.0818 0.0430 Uiso
C18 C 0.39220(10) 1.1995(3) 0.12905(13) 0.0328 Uani
H13 H 0.3700 1.2642 0.1222 0.0390 Uiso
C19 C 0.55240(10) 1.0283(3) 0.09804(13) 0.0318 Uani
C20 C 0.56230(10) 0.9474(3) 0.05165(13) 0.0315 Uani
H14 H 0.5433 0.9489 0.0148 0.0380 Uiso
C21 C 0.60061(10) 0.8642(2) 0.06036(12) 0.0267 Uani
H15 H 0.6081 0.8108 0.0287 0.0320 Uiso
C22 C 0.62830(9) 0.8591(2) 0.11615(12) 0.0218 Uani
C23 C 0.61715(9) 0.9412(2) 0.16303(12) 0.0237 Uani
H16 H 0.6352 0.9382 0.2005 0.0280 Uiso
C24 C 0.57926(10) 1.0271(3) 0.15393(12) 0.0285 Uani
H17 H 0.5721 1.0828 0.1847 0.0340 Uiso
C25 C 0.66927(10) 0.7679(2) 0.12612(12) 0.0236 Uani
N1 N 0.20558(8) 0.95954(19) 0.15955(9) 0.0204 Uani
N2 N 0.18778(8) 0.81578(19) 0.09156(9) 0.0210 Uani
N3 N 0.19573(8) 0.82442(19) -0.01358(9) 0.0203 Uani
N4 N 0.20668(8) 0.84630(19) -0.11766(9) 0.0214 Uani
N5 N 0.22417(8) 0.90058(19) -0.21073(9) 0.0211 Uani
O1 O 0.31468(6) 0.98942(16) 0.21117(8) 0.0257 Uani
O2 O 0.29727(7) 1.17604(16) 0.17561(8) 0.0270 Uani
O3 O 0.51604(7) 1.1186(2) 0.08659(10) 0.0433 Uani
O4 O 0.68448(6) 0.75072(15) 0.18174(8) 0.0229 Uani
O5 O 0.68665(8) 0.71352(19) 0.08178(8) 0.0411 Uani
Zn1 Zn 0.232087(11) 1.11549(3) 0.198161(12) 0.0195 Uani
N5E N 0.22417(8) 1.09942(19) 0.28927(9) 0.0211 Uani
O4B O 0.18448(6) 1.25072(15) 0.18174(8) 0.0229 Uani
Zn1B Zn 0.732087(11) 0.61549(3) 0.198161(12) 0.0195 Uani
Zn1E Zn 0.232087(11) 0.88451(3) -0.301839(12) 0.0195 Uani
loop_
_atom_site_aniso_label
_atom_site_aniso_U_11
_atom_site_aniso_U_22
_atom_site_aniso_U_33
_atom_site_aniso_U_23
_atom_site_aniso_U_13
_atom_site_aniso_U_12
C1 0.0345(16) 0.0200(13) 0.0152(15) 0.0010(11) 0.0023(12) -0.0043(12)
C2 0.0386(17) 0.0310(16) 0.0103(14) 0.0019(11) 0.0012(12) -0.0059(13)
C3 0.0392(17) 0.0280(16) 0.0171(15) 0.0037(12) 0.0010(12) -0.0092(13)
C4 0.0287(15) 0.0266(15) 0.0107(13) -0.0017(11) 0.0022(11) -0.0042(12)
C5 0.057(2) 0.0290(16) 0.0177(16) -0.0024(12) 0.0082(14) -0.0162(15)
C6 0.078(3) 0.0303(18) 0.0248(17) -0.0076(13) 0.0166(16) -0.0292(17)
C7 0.064(2) 0.0335(16) 0.0143(15) -0.0077(12) 0.0110(14) -0.0204(16)
C8 0.0285(15) 0.0234(15) 0.0168(15) 0.0008(11) 0.0050(11) -0.0048(12)
C9 0.0262(15) 0.0231(15) 0.0146(14) -0.0019(11) 0.0016(11) -0.0068(12)
C10 0.0399(17) 0.0204(14) 0.0194(15) -0.0044(11) 0.0013(12) -0.0097(13)
C11 0.0374(17) 0.0224(15) 0.0179(14) -0.0003(11) -0.0026(12) -0.0090(13)
C12 0.0252(15) 0.0239(15) 0.0148(14) -0.0059(11) -0.0029(11) 0.0000(12)
C13 0.0227(14) 0.0289(15) 0.0164(14) -0.0066(11) -0.0012(11) 0.0024(12)
C14 0.0321(16) 0.0279(15) 0.0204(15) 0.0005(12) 0.0010(12) -0.0001(13)
C15 0.0226(15) 0.0296(16) 0.0291(16) 0.0033(12) 0.0008(12) 0.0098(13)
C16 0.0218(15) 0.0424(18) 0.0263(16) 0.0077(13) 0.0013(12) 0.0065(14)
C17 0.0279(17) 0.0395(18) 0.0408(19) 0.0168(14) 0.0031(14) 0.0048(14)
C18 0.0261(16) 0.0356(17) 0.0366(18) 0.0062(14) 0.0016(13) 0.0117(14)
C19 0.0206(15) 0.0417(18) 0.0335(17) 0.0196(14) 0.0051(12) 0.0047(14)
C20 0.0241(16) 0.0459(18) 0.0239(16) 0.0093(14) -0.0039(12) -0.0009(14)
C21 0.0313(16) 0.0278(16) 0.0207(15) 0.0008(11) -0.0027(12) -0.0032(13)
C22 0.0208(14) 0.0221(15) 0.0223(15) 0.0034(11) -0.0007(11) -0.0023(11)
C23 0.0206(14) 0.0288(15) 0.0216(15) 0.0040(12) -0.0010(11) 0.0002(12)
C24 0.0292(16) 0.0318(16) 0.0250(16) 0.0015(12) 0.0077(12) 0.0014(13)
C25 0.0281(15) 0.0228(15) 0.0198(16) 0.0039(11) 0.0002(12) -0.0006(12)
N1 0.0292(13) 0.0219(12) 0.0100(11) -0.0004(9) -0.0004(9) 0.0002(10)
N2 0.0298(13) 0.0212(12) 0.0122(11) -0.0011(9) 0.0038(9) -0.0057(10)
N3 0.0268(12) 0.0220(12) 0.0124(12) -0.0006(9) 0.0028(9) -0.0014(10)
N4 0.0312(13) 0.0202(11) 0.0129(12) 0.0004(9) 0.0034(9) -0.0062(10)
N5 0.0285(13) 0.0221(12) 0.0126(11) 0.0015(9) 0.0010(9) -0.0058(10)
O1 0.0275(11) 0.0296(11) 0.0200(10) -0.0005(8) 0.0005(8) 0.0012(9)
O2 0.0246(10) 0.0259(11) 0.0309(11) -0.0012(9) 0.0041(8) 0.0032(9)
O3 0.0263(11) 0.0551(14) 0.0496(14) 0.0294(11) 0.0117(10) 0.0156(11)
O4 0.0265(10) 0.0226(10) 0.0192(10) 0.0006(8) -0.0023(8) 0.0043(8)
O5 0.0596(15) 0.0419(13) 0.0220(12) -0.0010(9) 0.0033(10) 0.0226(11)
Zn1 0.02635(18) 0.02009(17) 0.01194(17) -0.00110(12) 0.00094(12) 0.00242(14)
N5E 0.0285 0.0221 0.0126 -0.0015 0.001 0.0058
O4B 0.0265 0.0226 0.0192 0.0006 -0.0023 0.0043
Zn1B 0.02635 0.02009 0.01194 -0.0011 0.00094 0.00242
Zn1E 0.02635 0.02009 0.01194 0.0011 0.00094 -0.00242
loop_
_geom_bond_atom_site_label_1
_geom_bond_atom_site_label_2
_geom_bond_site_symmetry_1
_geom_bond_site_symmetry_2
C1 H1 1_555 1_555
C2 H2 1_555 1_555
C3 C2 1_555 1_555
H3 C3 1_555 1_555
C4 C5 1_555 1_555
C5 H4 1_555 1_555
C6 C5 1_555 1_555
H5 C6 1_555 1_555
C7 C6 1_555 1_555
H6 C7 1_555 1_555
C8 C7 1_555 1_555
C9 H7 1_555 1_555
C10 H8 1_555 1_555
C11 C10 1_555 1_555
H9 C11 1_555 1_555
C12 C13 1_555 1_555
C13 C14 1_555 1_555
C14 H10 1_555 1_555
C15 C14 1_555 1_555
H11 C15 1_555 1_555
C16 C15 1_555 1_555
C17 C16 1_555 1_555
H12 C17 1_555 1_555
C18 C13 1_555 1_555
H13 C18 1_555 1_555
C19 C20 1_555 1_555
C20 H14 1_555 1_555
C21 C20 1_555 1_555
H15 C21 1_555 1_555
C22 C21 1_555 1_555
C23 C22 1_555 1_555
H16 C23 1_555 1_555
C24 C19 1_555 1_555
H17 C24 1_555 1_555
C25 C22 1_555 1_555
N1 C1 1_555 1_555
N2 C1 1_555 1_555
N3 C4 1_555 1_555
N4 C8 1_555 1_555
N5 C9 1_555 1_555
O1 C12 1_555 1_555
O2 C12 1_555 1_555
O3 C16 1_555 1_555
O4 C25 1_555 1_555
O5 C25 1_555 1_555
Zn1 N1 1_555 1_555
N5E Zn1 1_555 1_555
O4B Zn1 1_555 1_555
Zn1B O4 1_555 1_555
Zn1E N5 1_555 1_555
C2 N1 1_555 1_555
C3 N2 1_555 1_555
C4 N2 1_555 1_555
C8 N3 1_555 1_555
C9 N4 1_555 1_555
C10 N4 1_555 1_555
C11 N5 1_555 1_555
C17 C18 1_555 1_555
C19 O3 1_555 1_555
C23 C24 1_555 1_555
O2 Zn1 1_555 1_555

#END
