
#######################################################################
#
#                 Cambridge Crystallographic Data Centre
#                                CCDC 
#
#######################################################################
#
# If this CIF has been generated from an entry in the Cambridge 
# Structural Database, then it will include bibliographic, chemical, 
# crystal, experimental, refinement or atomic coordinate data resulting 
# from the CCDC's data processing and validation procedures.
#
#######################################################################

data_ATOBOC
_chemical_formula_moiety         '(C25 H17 Cd1 N5 O5)n'
_symmetry_cell_setting           monoclinic
_symmetry_space_group_name_H-M   'C 2/c'
_symmetry_Int_Tables_number      15
_space_group_name_Hall           '-C 2yc'
loop_
_symmetry_equiv_pos_site_id
_symmetry_equiv_pos_as_xyz
1 x,y,z
2 -x,y,1/2-z
3 1/2+x,1/2+y,z
4 1/2-x,1/2+y,1/2-z
5 -x,-y,-z
6 x,-y,1/2+z
7 1/2-x,1/2-y,-z
8 1/2+x,1/2-y,1/2+z
_cell_length_a                   28.928(8)
_cell_length_b                   12.354(3)
_cell_length_c                   16.349(4)
_cell_angle_alpha                90
_cell_angle_beta                 114.571(7)
_cell_angle_gamma                90
_cell_volume                     5313.67
loop_
_atom_site_label
_atom_site_type_symbol
_atom_site_fract_x
_atom_site_fract_y
_atom_site_fract_z
_atom_site_U_iso_or_equiv
_atom_site_thermal_displace_type
C1 C 0.12484(19) 0.3588(4) 0.1945(3) 0.0265 Uani
H1 H 0.1491 0.3278 0.1762 0.0320 Uiso
C2 C 0.06406(18) 0.4565(4) 0.1991(3) 0.0243 Uani
H2 H 0.0375 0.5084 0.1830 0.0290 Uiso
C3 C 0.08113(18) 0.3964(4) 0.2749(4) 0.0274 Uani
H3 H 0.0689 0.3965 0.3205 0.0330 Uiso
C4 C 0.15036(18) 0.2578(4) 0.3376(3) 0.0218 Uani
C5 C 0.22519(18) 0.1663(4) 0.3981(3) 0.0261 Uani
C6 C 0.2110(2) 0.1126(4) 0.4585(4) 0.0320 Uani
H4 H 0.2331 0.0617 0.4999 0.0380 Uiso
C7 C 0.1638(2) 0.1355(5) 0.4566(4) 0.0343 Uani
H5 H 0.1528 0.1001 0.4970 0.0410 Uiso
C8 C 0.1330(2) 0.2096(4) 0.3961(4) 0.0299 Uani
H6 H 0.1006 0.2274 0.3942 0.0360 Uiso
C9 C 0.2957(2) 0.2175(5) 0.3578(4) 0.0372 Uani
H7 H 0.2806 0.2788 0.3214 0.0440 Uiso
C10 C 0.3092(2) 0.0754(4) 0.4445(4) 0.0289 Uani
H8 H 0.3039 0.0196 0.4796 0.0350 Uiso
C11 C 0.01445(18) 0.6769(4) -0.0365(3) 0.0229 Uani
C12 C -0.01783(18) 0.7765(4) -0.0672(3) 0.0215 Uani
C13 C -0.0470(2) 0.8127(4) -0.0236(4) 0.0275 Uani
H9 H -0.0456 0.7754 0.0281 0.0330 Uiso
C14 C -0.0780(2) 0.9018(4) -0.0542(4) 0.0355 Uani
H10 H -0.0977 0.9263 -0.0236 0.0420 Uiso
C15 C -0.0800(2) 0.9557(4) -0.1306(4) 0.0322 Uani
C16 C -0.0508(2) 0.9233(4) -0.1742(4) 0.0299 Uani
H11 H -0.0520 0.9618 -0.2254 0.0360 Uiso
C17 C -0.01912(19) 0.8328(4) -0.1422(3) 0.0246 Uani
H12 H 0.0014 0.8097 -0.1716 0.0290 Uiso
C18 C -0.1079(2) 1.1146(4) -0.2198(4) 0.0317 Uani
C19 C -0.1453(2) 1.1188(5) -0.3062(4) 0.0478 Uani
H13 H -0.1737 1.0712 -0.3247 0.0570 Uiso
C20 C -0.1409(2) 1.1937(5) -0.3659(4) 0.0424 Uani
H14 H -0.1662 1.1965 -0.4259 0.0500 Uiso
C21 C -0.0998(2) 1.2651(4) -0.3387(4) 0.0269 Uani
C22 C -0.0634(2) 1.2595(4) -0.2506(4) 0.0302 Uani
H15 H -0.0353 1.3080 -0.2309 0.0360 Uiso
C23 C -0.0673(2) 1.1841(4) -0.1909(4) 0.0325 Uani
H16 H -0.0422 1.1807 -0.1308 0.0390 Uiso
C24 C -0.0950(2) 1.3468(4) -0.4025(4) 0.0300 Uani
C25 C 0.3429(2) 0.1777(5) 0.3787(4) 0.0371 Uani
H17 H 0.3668 0.2069 0.3587 0.0440 Uiso
Cd1 Cd 0.071961(13) 0.49153(3) 0.00782(2) 0.0212 Uani
N1 N 0.09080(14) 0.4319(3) 0.1481(3) 0.0204 Uani
N2 N 0.12056(15) 0.3339(3) 0.2720(3) 0.0217 Uani
N3 N 0.19581(15) 0.2374(3) 0.3381(3) 0.0250 Uani
N4 N 0.27430(15) 0.1517(3) 0.3996(3) 0.0260 Uani
N5 N 0.35112(16) 0.0878(3) 0.4336(3) 0.0280 Uani
O1 O 0.00958(13) 0.6172(3) 0.0225(2) 0.0260 Uani
O2 O 0.04478(12) 0.6548(3) -0.0715(2) 0.0265 Uani
O3 O -0.11322(16) 1.0425(3) -0.1586(3) 0.0448 Uani
O4 O -0.05659(14) 1.4043(3) -0.3766(2) 0.0292 Uani
O5 O -0.13007(16) 1.3525(3) -0.4816(3) 0.0421 Uani
Cd1A Cd -0.071961(13) 1.49153(3) -0.50782(2) 0.0212 Uani
Cd1C Cd 0.428039(13) -0.00847(3) 0.49218(2) 0.0212 Uani
Cd1D Cd -0.071961(13) 0.50847(3) -0.00782(2) 0.0212 Uani
N5C N 0.14888(16) 0.5878(3) 0.0664(3) 0.0280 Uani
O1D O -0.00958(13) 0.3828(3) -0.0225(2) 0.0260 Uani
O4A O 0.05659(14) 0.4043(3) -0.1234(2) 0.0292 Uani
O5A O 0.13007(16) 0.3525(3) -0.0184(3) 0.0421 Uani
loop_
_atom_site_aniso_label
_atom_site_aniso_U_11
_atom_site_aniso_U_22
_atom_site_aniso_U_33
_atom_site_aniso_U_23
_atom_site_aniso_U_13
_atom_site_aniso_U_12
C1 0.023(3) 0.027(3) 0.028(3) 0.000(2) 0.009(2) 0.004(2)
C2 0.016(2) 0.023(2) 0.031(3) -0.008(2) 0.007(2) 0.0047(19)
C3 0.022(3) 0.029(3) 0.027(3) -0.003(2) 0.006(2) 0.005(2)
C4 0.021(2) 0.023(2) 0.014(2) -0.0029(19) 0.000(2) 0.0034(19)
C5 0.020(3) 0.024(3) 0.029(3) 0.005(2) 0.005(2) 0.003(2)
C6 0.022(3) 0.034(3) 0.035(3) 0.008(2) 0.007(2) 0.004(2)
C7 0.041(3) 0.034(3) 0.031(3) 0.003(2) 0.018(3) -0.003(3)
C8 0.025(3) 0.030(3) 0.031(3) 0.004(2) 0.008(2) 0.005(2)
C9 0.032(3) 0.043(3) 0.043(3) 0.015(3) 0.022(3) 0.009(3)
C10 0.028(3) 0.030(3) 0.028(3) 0.001(2) 0.011(2) -0.003(2)
C11 0.021(3) 0.018(2) 0.025(3) -0.008(2) 0.005(2) -0.0050(19)
C12 0.019(2) 0.018(2) 0.021(2) 0.0047(19) 0.002(2) -0.0020(19)
C13 0.031(3) 0.025(3) 0.034(3) 0.008(2) 0.021(2) 0.005(2)
C14 0.039(3) 0.027(3) 0.050(4) 0.008(3) 0.028(3) 0.007(2)
C15 0.035(3) 0.023(3) 0.040(3) 0.010(2) 0.017(3) 0.011(2)
C16 0.040(3) 0.026(3) 0.026(3) 0.006(2) 0.016(2) 0.005(2)
C17 0.026(3) 0.025(3) 0.021(3) -0.002(2) 0.008(2) 0.005(2)
C18 0.040(3) 0.016(2) 0.047(4) 0.009(2) 0.026(3) 0.006(2)
C19 0.041(4) 0.035(3) 0.052(4) 0.007(3) 0.004(3) -0.010(3)
C20 0.034(3) 0.034(3) 0.038(3) 0.013(3) -0.006(3) -0.012(3)
C21 0.036(3) 0.019(2) 0.030(3) 0.005(2) 0.018(2) 0.009(2)
C22 0.029(3) 0.028(3) 0.036(3) -0.004(2) 0.016(2) 0.000(2)
C23 0.036(3) 0.027(3) 0.033(3) 0.004(2) 0.013(3) 0.008(2)
C24 0.042(3) 0.025(3) 0.030(3) 0.001(2) 0.022(3) 0.010(2)
C25 0.035(3) 0.036(3) 0.044(4) 0.014(3) 0.020(3) 0.007(2)
Cd1 0.0187(2) 0.0221(2) 0.0205(2) 0.00143(15) 0.00586(15) 0.00107(14)
N1 0.017(2) 0.028(2) 0.015(2) 0.0023(17) 0.0056(17) -0.0014(17)
N2 0.020(2) 0.026(2) 0.019(2) 0.0027(17) 0.0080(17) 0.0022(17)
N3 0.022(2) 0.025(2) 0.026(2) 0.0013(18) 0.0080(18) 0.0012(17)
N4 0.020(2) 0.029(2) 0.024(2) 0.0058(18) 0.0043(18) 0.0059(17)
N5 0.024(2) 0.024(2) 0.034(3) 0.0030(19) 0.010(2) 0.0041(18)
O1 0.0283(19) 0.0217(18) 0.026(2) 0.0030(15) 0.0093(16) 0.0031(14)
O2 0.0196(17) 0.0265(19) 0.033(2) 0.0069(15) 0.0105(16) 0.0043(14)
O3 0.050(3) 0.035(2) 0.063(3) 0.024(2) 0.037(2) 0.0192(19)
O4 0.031(2) 0.030(2) 0.037(2) 0.0032(16) 0.0246(18) -0.0004(16)
O5 0.047(2) 0.038(2) 0.036(2) 0.0102(19) 0.012(2) -0.0028(19)
Cd1A 0.0187 0.0221 0.0205 -0.00143 0.00586 -0.00107
Cd1C 0.0187 0.0221 0.0205 -0.00143 0.00586 -0.00107
Cd1D 0.0187 0.0221 0.0205 0.00143 0.00586 0.00107
N5C 0.024 0.024 0.034 -0.003 0.01 -0.0041
O1D 0.0283 0.0217 0.026 0.003 0.0093 0.0031
O4A 0.031 0.03 0.037 -0.0032 0.0246 0.0004
O5A 0.047 0.038 0.036 -0.0102 0.012 0.0028
loop_
_geom_bond_atom_site_label_1
_geom_bond_atom_site_label_2
_geom_bond_site_symmetry_1
_geom_bond_site_symmetry_2
C1 H1 1_555 1_555
C2 H2 1_555 1_555
C3 C2 1_555 1_555
H3 C3 1_555 1_555
C4 C8 1_555 1_555
C5 C6 1_555 1_555
C6 H4 1_555 1_555
C7 C6 1_555 1_555
H5 C7 1_555 1_555
C8 C7 1_555 1_555
H6 C8 1_555 1_555
C9 H7 1_555 1_555
C10 H8 1_555 1_555
C11 C12 1_555 1_555
C12 C13 1_555 1_555
C13 H9 1_555 1_555
C14 C13 1_555 1_555
H10 C14 1_555 1_555
C15 C14 1_555 1_555
C16 C15 1_555 1_555
H11 C16 1_555 1_555
C17 C12 1_555 1_555
H12 C17 1_555 1_555
C18 C19 1_555 1_555
C19 H13 1_555 1_555
C20 C19 1_555 1_555
H14 C20 1_555 1_555
C21 C20 1_555 1_555
C22 C21 1_555 1_555
H15 C22 1_555 1_555
C23 C18 1_555 1_555
H16 C23 1_555 1_555
C24 C21 1_555 1_555
C25 C9 1_555 1_555
H17 C25 1_555 1_555
Cd1 N1 1_555 1_555
N1 C1 1_555 1_555
N2 C1 1_555 1_555
N3 C4 1_555 1_555
N4 C5 1_555 1_555
N5 C10 1_555 1_555
O1 C11 1_555 1_555
O2 C11 1_555 1_555
O3 C15 1_555 1_555
O4 C24 1_555 1_555
O5 C24 1_555 1_555
Cd1A O4 1_555 1_555
Cd1C N5 1_555 1_555
Cd1D O1 1_555 1_555
N5C Cd1 1_555 1_555
O1D Cd1 1_555 1_555
O4A Cd1 1_555 1_555
O5A Cd1 1_555 1_555
C2 N1 1_555 1_555
C3 N2 1_555 1_555
C4 N2 1_555 1_555
C5 N3 1_555 1_555
C9 N4 1_555 1_555
C10 N4 1_555 1_555
C16 C17 1_555 1_555
C18 O3 1_555 1_555
C22 C23 1_555 1_555
C25 N5 1_555 1_555
Cd1 O1 1_555 1_555
Cd1 O2 1_555 1_555
O5 Cd1A 1_555 1_555
Cd1D O1D 1_555 1_555

#END
