
#######################################################################
#
#                 Cambridge Crystallographic Data Centre
#                                CCDC 
#
#######################################################################
#
# If this CIF has been generated from an entry in the Cambridge 
# Structural Database, then it will include bibliographic, chemical, 
# crystal, experimental, refinement or atomic coordinate data resulting 
# from the CCDC's data processing and validation procedures.
#
#######################################################################

data_LAVZUG
_chemical_formula_moiety         '(C38 H32 N4 O24 P4 U3)n'
_symmetry_cell_setting           monoclinic
_symmetry_space_group_name_H-M   'P 21/n'
_symmetry_Int_Tables_number      14
_space_group_name_Hall           '-P 2yn'
loop_
_symmetry_equiv_pos_site_id
_symmetry_equiv_pos_as_xyz
1 x,y,z
2 1/2-x,1/2+y,1/2-z
3 -x,-y,-z
4 1/2+x,1/2-y,1/2+z
_cell_length_a                   14.8008(9)
_cell_length_b                   12.2543(7)
_cell_length_c                   30.2243(19)
_cell_angle_alpha                90
_cell_angle_beta                 90.9910(10)
_cell_angle_gamma                90
_cell_volume                     5481.07
loop_
_atom_site_label
_atom_site_type_symbol
_atom_site_fract_x
_atom_site_fract_y
_atom_site_fract_z
U1 U 0.45495(3) 0.67133(3) 0.234756(18)
U2 U 0.53319(6) 0.35956(6) 0.07635(2)
U3 U 0.74841(3) 0.42695(4) 0.242915(17)
P1 P -0.0200(2) 0.8956(2) 0.30250(12)
P2 P -0.0236(2) 0.4484(2) 0.29164(13)
P3 P 0.6948(2) 0.6843(2) 0.19599(12)
P4 P 0.4752(4) 0.6359(4) 0.04756(17)
O1 O 0.4231(7) 0.6804(7) 0.1778(4)
O2 O 0.4816(7) 0.6639(8) 0.2916(3)
O3 O 0.6047(6) 0.6771(7) 0.2185(3)
O4 O 0.3098(6) 0.5834(7) 0.2495(4)
O5 O 0.3120(6) 0.7616(7) 0.2541(4)
O6 O 0.8119(6) 0.3593(7) 0.2018(3)
O7 O 0.6868(6) 0.4959(7) 0.2839(3)
O8 O 0.7459(6) 0.5756(7) 0.1978(3)
O9 O 0.7534(6) 0.7751(7) 0.2137(4)
O10 O 0.834(2) 0.920(3) 0.0663(11)
O11 O 0.728(2) 0.936(2) 0.0115(8)
O12 O 0.4887(15) 0.6410(12) -0.0013(5)
O13 O 0.3934(15) 0.7090(19) 0.0596(9)
O14 O 0.4606(8) 0.5248(12) 0.0662(4)
O15 O 0.6349(9) 0.4321(12) 0.0705(5)
O16 O 0.4339(17) 0.290(2) 0.0805(6)
O17 O 0.6451(19) 0.254(2) 0.1272(10)
O18 O 0.601(2) 0.185(2) 0.0478(10)
O19 O 0.0195(6) 0.9870(7) 0.2761(3)
O20 O -0.0092(7) 0.9143(8) 0.3521(3)
O21 O -0.1195(6) 0.8735(7) 0.2915(3)
O22 O -0.1218(6) 0.4741(7) 0.2806(4)
O23 O -0.0169(8) 0.4170(9) 0.3410(4)
O24 O 0.0214(6) 0.3608(7) 0.2649(3)
C1 C 0.2698(8) 0.6709(11) 0.2571(5)
C2 C 0.1728(8) 0.6726(10) 0.2702(5)
C3 C 0.1293(8) 0.7709(10) 0.2778(5)
H1 H 0.1603 0.8364 0.2749
C4 C 0.0394(8) 0.7708(9) 0.2896(4)
C5 C -0.0067(8) 0.6716(10) 0.2928(5)
H2 H -0.0676 0.6710 0.2999
C6 C 0.0386(8) 0.5733(9) 0.2854(5)
C7 C 0.1275(8) 0.5738(9) 0.2742(5)
H3 H 0.1577 0.5084 0.2693
C8 C 0.760(3) 0.899(3) 0.0489(12)
C9 C 0.6983(19) 0.8174(18) 0.0725(9)
C10 C 0.7226(14) 0.7925(15) 0.1165(6)
H4 H 0.7720 0.8262 0.1302
C11 C 0.6705(10) 0.7155(11) 0.1395(5)
C12 C 0.5980(11) 0.6687(12) 0.1172(5)
H5 H 0.5635 0.6176 0.1322
C13 C 0.5733(14) 0.6937(14) 0.0734(7)
C14 C 0.6246(18) 0.7674(18) 0.0511(8)
H6 H 0.6106 0.7843 0.0217
U1A U 0.04505(3) 0.17133(3) 0.265244(18)
U1A_2 U 0.04505(3) 1.17133(3) 0.265244(18)
U2A U -0.03319(6) 0.85956(6) 0.42365(2)
U2B U 0.46681(6) 0.64044(6) -0.07635(2)
U3_2 U -0.25159(3) 0.42695(4) 0.242915(17)
U3A U -0.24841(3) 0.92695(4) 0.257085(17)
U3A_2 U 0.75159(3) 0.92695(4) 0.257085(17)
O9A O 0.7466(6) 0.2751(7) 0.2863(4)
O12B O 0.5113(15) 0.3590(12) 0.0013(5)
O19A O 0.4805(6) 0.4870(7) 0.2239(3)
O20A O 0.5092(7) 0.4143(8) 0.1479(3)
O21A O 0.6195(6) 0.3735(7) 0.2085(3)
O22_2 O 0.8782(6) 0.4741(7) 0.2806(4)
O24A O 0.4786(6) 0.8608(7) 0.2351(3)
C15 C 0.382(4) 0.381(3) 0.3368(11)
H7 H 0.3503 0.4464 0.3381
C16 C 0.479(3) 0.381(3) 0.3276(11)
H8 H 0.5104 0.4465 0.3259
C17 C 0.522(2) 0.290(3) 0.3221(8)
H9 H 0.5821 0.2923 0.3141
C18 C 0.4825(14) 0.189(2) 0.3272(6)
C19 C 0.3857(13) 0.194(2) 0.3384(6)
C20 C 0.3427(11) 0.0895(16) 0.3432(5)
C21 C 0.2086(16) 0.001(3) 0.3609(7)
H10 H 0.1479 0.0045 0.3683
C22 C 0.2505(18) -0.097(3) 0.3564(7)
H11 H 0.2187 -0.1609 0.3615
C23 C 0.339(2) -0.102(2) 0.3445(7)
H12 H 0.3667 -0.1691 0.3411
C24 C 0.3872(13) -0.0048(18) 0.3373(6)
C25 C 0.4806(15) -0.003(2) 0.3265(6)
H13 H 0.5110 -0.0690 0.3226
C26 C 0.5240(13) 0.088(2) 0.3220(7)
H14 H 0.5850 0.0864 0.3151
N1 N 0.3379(16) 0.2872(17) 0.3430(7)
H15 H 0.2816 0.2861 0.3497
N2 N 0.2544(10) 0.0897(17) 0.3548(6)
H16 H 0.2278 0.1515 0.3583
C27 C -0.138(3) 0.419(4) 0.0866(13)
H17 H -0.1751 0.3612 0.0944
C28 C -0.166(3) 0.520(5) 0.0890(14)
H18 H -0.2250 0.5335 0.0982
C29 C -0.1109(12) 0.606(2) 0.0780(5)
H19 H -0.1317 0.6772 0.0821
C30 C -0.0244(12) 0.590(2) 0.0609(5)
C31 C 0.0041(12) 0.482(2) 0.0595(5)
N3 N 0.1147(16) 0.355(2) 0.0460(6)
C32 C 0.2013(18) 0.330(2) 0.0319(7)
H20 H 0.2201 0.2574 0.0308
C33 C 0.2596(12) 0.413(3) 0.0197(8)
H21 H 0.3175 0.3960 0.0103
C34 C 0.2315(14) 0.521(2) 0.0214(7)
H22 H 0.2706 0.5765 0.0132
C35 C 0.1450(16) 0.5459(19) 0.0355(6)
C36 C 0.0866(11) 0.463(2) 0.0477(5)
C37 C 0.123(3) 0.656(2) 0.0343(13)
H23 H 0.1622 0.7112 0.0257
C38 C 0.036(3) 0.671(3) 0.0474(14)
H24 H 0.0147 0.7426 0.0474
N4 N -0.0506(18) 0.403(3) 0.0720(8)
H25 H -0.0307 0.3373 0.0710
loop_
_geom_bond_atom_site_label_1
_geom_bond_atom_site_label_2
_geom_bond_site_symmetry_1
_geom_bond_site_symmetry_2
U1 O1 1_555 1_555
U2 O14 1_555 1_555
U3 O6 1_555 1_555
P1 O19 1_555 1_555
P2 O22 1_555 1_555
P3 O3 1_555 1_555
P4 O12 1_555 1_555
O2 U1 1_555 1_555
O3 U1 1_555 1_555
O4 U1 1_555 1_555
O5 U1 1_555 1_555
O7 U3 1_555 1_555
O8 U3 1_555 1_555
O9 P3 1_555 1_555
O10 C8 1_555 1_555
O11 C8 1_555 1_555
O12 U2B 1_555 1_555
O13 P4 1_555 1_555
O14 P4 1_555 1_555
O15 U2 1_555 1_555
O16 U2 1_555 1_555
O17 U2 1_555 1_555
O18 U2 1_555 1_555
O19 U1A_2 1_555 1_555
O20 P1 1_555 1_555
O21 P1 1_555 1_555
O22 U3_2 1_555 1_555
O23 P2 1_555 1_555
O24 P2 1_555 1_555
C1 O4 1_555 1_555
C2 C1 1_555 1_555
C3 C2 1_555 1_555
H1 C3 1_555 1_555
C4 P1 1_555 1_555
C5 C4 1_555 1_555
H2 C5 1_555 1_555
C6 P2 1_555 1_555
C7 C2 1_555 1_555
H3 C7 1_555 1_555
C8 C9 1_555 1_555
C9 C10 1_555 1_555
C10 H4 1_555 1_555
C11 P3 1_555 1_555
C12 C11 1_555 1_555
H5 C12 1_555 1_555
C13 P4 1_555 1_555
C14 C9 1_555 1_555
H6 C14 1_555 1_555
C15 H7 1_555 1_555
C16 C15 1_555 1_555
H8 C16 1_555 1_555
C17 C16 1_555 1_555
H9 C17 1_555 1_555
C18 C17 1_555 1_555
C19 C18 1_555 1_555
C20 C19 1_555 1_555
C21 H10 1_555 1_555
C22 C21 1_555 1_555
H11 C22 1_555 1_555
C23 C22 1_555 1_555
H12 C23 1_555 1_555
C24 C20 1_555 1_555
C25 C24 1_555 1_555
H13 C25 1_555 1_555
C26 C18 1_555 1_555
H14 C26 1_555 1_555
N1 C15 1_555 1_555
H15 N1 1_555 1_555
N2 C20 1_555 1_555
H16 N2 1_555 1_555
C27 H17 1_555 1_555
C28 C27 1_555 1_555
H18 C28 1_555 1_555
C29 C28 1_555 1_555
H19 C29 1_555 1_555
C30 C29 1_555 1_555
C31 C30 1_555 1_555
N3 C32 1_555 1_555
C32 H20 1_555 1_555
C33 C32 1_555 1_555
H21 C33 1_555 1_555
C34 C33 1_555 1_555
H22 C34 1_555 1_555
C35 C34 1_555 1_555
C36 C31 1_555 1_555
C37 C35 1_555 1_555
H23 C37 1_555 1_555
C38 C30 1_555 1_555
H24 C38 1_555 1_555
N4 C27 1_555 1_555
H25 N4 1_555 1_555
U1A O24 1_555 1_555
U2A O20 1_555 1_555
U3A O21 1_555 1_555
U3A_2 O9 1_555 1_555
O9A U3 1_555 1_555
O12B U2 1_555 1_555
O19A U1 1_555 1_555
O20A U2 1_555 1_555
O21A U3 1_555 1_555
O22_2 U3 1_555 1_555
O24A U1 1_555 1_555
P3 O8 1_555 1_555
O5 C1 1_555 1_555
C3 C4 1_555 1_555
C5 C6 1_555 1_555
C6 C7 1_555 1_555
C10 C11 1_555 1_555
C12 C13 1_555 1_555
C13 C14 1_555 1_555
C19 N1 1_555 1_555
C21 N2 1_555 1_555
C23 C24 1_555 1_555
C25 C26 1_555 1_555
C31 N4 1_555 1_555
N3 C36 1_555 1_555
C35 C36 1_555 1_555
C37 C38 1_555 1_555

#END
