
#######################################################################
#
#                 Cambridge Crystallographic Data Centre
#                                CCDC 
#
#######################################################################
#
# If this CIF has been generated from an entry in the Cambridge 
# Structural Database, then it will include bibliographic, chemical, 
# crystal, experimental, refinement or atomic coordinate data resulting 
# from the CCDC's data processing and validation procedures.
#
#######################################################################

data_NAGQOD
_chemical_formula_moiety         '(C24 H16 Co1 N10)n'
_symmetry_cell_setting           rhombohedral
_symmetry_space_group_name_H-M   'R -3'
_symmetry_Int_Tables_number      148
_space_group_name_Hall           '-R 3'
loop_
_symmetry_equiv_pos_site_id
_symmetry_equiv_pos_as_xyz
1 x,y,z
2 -y,x-y,z
3 -x+y,-x,z
4 2/3+x,1/3+y,1/3+z
5 2/3-y,1/3+x-y,1/3+z
6 2/3-x+y,1/3-x,1/3+z
7 1/3+x,2/3+y,2/3+z
8 1/3-y,2/3+x-y,2/3+z
9 1/3-x+y,2/3-x,2/3+z
10 -x,-y,-z
11 y,-x+y,-z
12 x-y,x,-z
13 1/3-x,2/3-y,2/3-z
14 1/3+y,2/3-x+y,2/3-z
15 1/3+x-y,2/3+x,2/3-z
16 2/3-x,1/3-y,1/3-z
17 2/3+y,1/3-x+y,1/3-z
18 2/3+x-y,1/3+x,1/3-z
_cell_length_a                   27.720(3)
_cell_length_b                   27.720(3)
_cell_length_c                   9.7135(9)
_cell_angle_alpha                90
_cell_angle_beta                 90
_cell_angle_gamma                120
_cell_volume                     6463.87
loop_
_atom_site_label
_atom_site_type_symbol
_atom_site_fract_x
_atom_site_fract_y
_atom_site_fract_z
_atom_site_U_iso_or_equiv
_atom_site_thermal_displace_type
Co1 Co 0.5000 1.0000 0.0000 0.0588 Uani
N1 N 0.54532(17) 1.01378(19) 0.1750(4) 0.0603 Uani
N2 N 0.59619(16) 1.05340(17) 0.2205(4) 0.0574 Uani
N3 N 0.55461(18) 0.98687(19) 0.3855(4) 0.0669 Uani
N4 N 0.44402(17) 0.92958(18) 0.1282(4) 0.0681 Uani
N5 N 0.74893(17) 1.12611(18) 0.5765(4) 0.0669 Uani
C1 C 0.3918(3) 0.8898(3) 0.1023(7) 0.0872 Uani
H1 H 0.3769 0.8889 0.0159 0.1050 Uiso
C2 C 0.3591(3) 0.8505(3) 0.1970(8) 0.1042 Uani
H2 H 0.3226 0.8240 0.1757 0.1250 Uiso
C3 C 0.3811(3) 0.8506(3) 0.3246(8) 0.1041 Uani
H3 H 0.3597 0.8237 0.3897 0.1240 Uiso
C4 C 0.4343(3) 0.8903(3) 0.3544(7) 0.0874 Uani
H4 H 0.4496 0.8912 0.4402 0.1050 Uiso
C5 C 0.4656(2) 0.9296(2) 0.2545(6) 0.0647 Uani
C6 C 0.5219(2) 0.9755(2) 0.2745(6) 0.0607 Uani
C7 C 0.5993(2) 1.0347(2) 0.3464(5) 0.0578 Uani
C8 C 0.65019(19) 1.0667(2) 0.4294(5) 0.0559 Uani
C9 C 0.6915(2) 1.1183(2) 0.3878(6) 0.0734 Uani
H5 H 0.6871 1.1341 0.3078 0.0880 Uiso
C10 C 0.7391(2) 1.1463(2) 0.4635(6) 0.0744 Uani
H6 H 0.7661 1.1815 0.4341 0.0890 Uiso
C11 C 0.7086(2) 1.0758(2) 0.6164(6) 0.0827 Uani
H7 H 0.7143 1.0604 0.6955 0.1000 Uiso
C12 C 0.6593(2) 1.0457(2) 0.5471(6) 0.0791 Uani
H8 H 0.6322 1.0111 0.5801 0.0950 Uiso
Co1H Co 0.8333 1.1667 0.6667 0.0588 Uani
Co1E Co 0.1667 0.8333 -0.6667 0.0588 Uani
N1I N 0.45468(17) 0.98622(19) -0.1750(4) 0.0603 Uani
N2I N 0.40381(16) 0.94660(17) -0.2205(4) 0.0574 Uani
N3I N 0.44539(18) 1.01313(19) -0.3855(4) 0.0669 Uani
N4I N 0.55598(17) 1.07042(18) -0.1282(4) 0.0681 Uani
N5I N 0.25107(17) 0.87389(18) -0.5765(4) 0.0669 Uani
N5D N 0.54056(18) 0.95615(25) -0.0902(4) 0.0669 Uani
N5M N 0.45944(18) 1.04385(25) 0.0902(4) 0.0669 Uani
C1I C 0.6082(3) 1.1102(3) -0.1023(7) 0.0872 Uani
H1I H 0.6231 1.1111 -0.0159 0.1050 Uiso
C2I C 0.6409(3) 1.1495(3) -0.1970(8) 0.1042 Uani
H2I H 0.6774 1.1760 -0.1757 0.1250 Uiso
C3I C 0.6189(3) 1.1494(3) -0.3246(8) 0.1041 Uani
H3I H 0.6403 1.1763 -0.3897 0.1240 Uiso
C4I C 0.5657(3) 1.1097(3) -0.3544(7) 0.0874 Uani
H4I H 0.5504 1.1088 -0.4402 0.1050 Uiso
C5I C 0.5344(2) 1.0704(2) -0.2545(6) 0.0647 Uani
C6I C 0.4781(2) 1.0245(2) -0.2745(6) 0.0607 Uani
C7I C 0.4007(2) 0.9653(2) -0.3464(5) 0.0578 Uani
C8I C 0.34981(19) 0.9333(2) -0.4294(5) 0.0559 Uani
C9I C 0.3085(2) 0.8817(2) -0.3878(6) 0.0734 Uani
H5I H 0.3129 0.8659 -0.3078 0.0880 Uiso
C10I C 0.2609(2) 0.8537(2) -0.4635(6) 0.0744 Uani
H6I H 0.2339 0.8185 -0.4341 0.0890 Uiso
C11I C 0.2914(2) 0.9242(2) -0.6164(6) 0.0827 Uani
H7I H 0.2857 0.9396 -0.6955 0.1000 Uiso
C12I C 0.3407(2) 0.9543(2) -0.5471(6) 0.0791 Uani
H8I H 0.3678 0.9889 -0.5801 0.0950 Uiso
loop_
_atom_site_aniso_label
_atom_site_aniso_U_11
_atom_site_aniso_U_22
_atom_site_aniso_U_33
_atom_site_aniso_U_23
_atom_site_aniso_U_13
_atom_site_aniso_U_12
Co1 0.0524(6) 0.0867(8) 0.0430(6) -0.0264(5) -0.0133(4) 0.0390(6)
N1 0.052(3) 0.081(3) 0.049(3) -0.025(2) -0.012(2) 0.034(2)
N2 0.052(2) 0.077(3) 0.043(2) -0.018(2) -0.0126(19) 0.032(2)
N3 0.059(3) 0.083(3) 0.054(3) -0.012(2) -0.017(2) 0.032(3)
N4 0.056(3) 0.087(3) 0.059(3) -0.028(2) -0.013(2) 0.034(3)
N5 0.062(3) 0.065(3) 0.054(3) 0.012(2) -0.015(2) 0.017(2)
C1 0.064(4) 0.099(5) 0.075(4) -0.025(4) -0.024(3) 0.023(4)
C2 0.076(5) 0.107(5) 0.094(6) -0.021(5) -0.020(4) 0.019(4)
C3 0.084(5) 0.104(5) 0.087(5) -0.002(4) -0.004(4) 0.019(4)
C4 0.080(4) 0.096(5) 0.069(4) -0.010(4) -0.007(3) 0.031(4)
C5 0.060(3) 0.080(4) 0.054(3) -0.018(3) -0.010(3) 0.035(3)
C6 0.052(3) 0.075(4) 0.054(3) -0.017(3) -0.007(3) 0.031(3)
C7 0.053(3) 0.074(4) 0.048(3) -0.015(3) -0.012(2) 0.033(3)
C8 0.052(3) 0.069(3) 0.045(3) -0.006(2) -0.011(2) 0.029(3)
C9 0.070(4) 0.079(4) 0.059(3) 0.012(3) -0.019(3) 0.028(3)
C10 0.066(4) 0.071(4) 0.066(4) 0.017(3) -0.020(3) 0.019(3)
C11 0.074(4) 0.077(4) 0.068(4) 0.015(3) -0.027(3) 0.016(3)
C12 0.067(4) 0.072(4) 0.064(4) 0.009(3) -0.020(3) 0.009(3)
Co1H 0.0611 0.0524 0.043 0.0133 -0.0131 0.0134
Co1E 0.0611 0.0524 0.043 0.0133 -0.0131 0.0134
N1I 0.052 0.081 0.049 -0.025 -0.012 0.034
N2I 0.052 0.077 0.043 -0.018 -0.0126 0.032
N3I 0.059 0.083 0.054 -0.012 -0.017 0.032
N4I 0.056 0.087 0.059 -0.028 -0.013 0.034
N5I 0.062 0.065 0.054 0.012 -0.015 0.017
N5D 0.065 0.093 0.054 -0.027 -0.012 0.048
N5M 0.065 0.093 0.054 -0.027 -0.012 0.048
C1I 0.064 0.099 0.075 -0.025 -0.024 0.023
C2I 0.076 0.107 0.094 -0.021 -0.02 0.019
C3I 0.084 0.104 0.087 -0.002 -0.004 0.019
C4I 0.08 0.096 0.069 -0.01 -0.007 0.031
C5I 0.06 0.08 0.054 -0.018 -0.01 0.035
C6I 0.052 0.075 0.054 -0.017 -0.007 0.031
C7I 0.053 0.074 0.048 -0.015 -0.012 0.033
C8I 0.052 0.069 0.045 -0.006 -0.011 0.029
C9I 0.07 0.079 0.059 0.012 -0.019 0.028
C10I 0.066 0.071 0.066 0.017 -0.02 0.019
C11I 0.074 0.077 0.068 0.015 -0.027 0.016
C12I 0.067 0.072 0.064 0.009 -0.02 0.009
loop_
_geom_bond_atom_site_label_1
_geom_bond_atom_site_label_2
_geom_bond_site_symmetry_1
_geom_bond_site_symmetry_2
Co1 N1 1_555 1_555
N1 N2 1_555 1_555
N2 C7 1_555 1_555
N3 C6 1_555 1_555
N4 Co1 1_555 1_555
N5 C10 1_555 1_555
C1 N4 1_555 1_555
H1 C1 1_555 1_555
C2 C1 1_555 1_555
H2 C2 1_555 1_555
C3 C2 1_555 1_555
H3 C3 1_555 1_555
C4 C3 1_555 1_555
H4 C4 1_555 1_555
C5 N4 1_555 1_555
C6 N1 1_555 1_555
C7 N3 1_555 1_555
C8 C7 1_555 1_555
C9 C8 1_555 1_555
H5 C9 1_555 1_555
C10 C9 1_555 1_555
H6 C10 1_555 1_555
C11 N5 1_555 1_555
H7 C11 1_555 1_555
C12 C8 1_555 1_555
H8 C12 1_555 1_555
Co1H N5 1_555 1_555
Co1E N5I 1_555 1_555
N1I Co1 1_555 1_555
N2I N1I 1_555 1_555
N3I C6I 1_555 1_555
N4I Co1 1_555 1_555
N5I C10I 1_555 1_555
N5D Co1 1_555 1_555
N5M Co1 1_555 1_555
C1I N4I 1_555 1_555
H1I C1I 1_555 1_555
C2I C1I 1_555 1_555
H2I C2I 1_555 1_555
C3I C2I 1_555 1_555
H3I C3I 1_555 1_555
C4I C3I 1_555 1_555
H4I C4I 1_555 1_555
C5I N4I 1_555 1_555
C6I N1I 1_555 1_555
C7I N2I 1_555 1_555
C8I C7I 1_555 1_555
C9I C8I 1_555 1_555
H5I C9I 1_555 1_555
C10I C9I 1_555 1_555
H6I C10I 1_555 1_555
C11I N5I 1_555 1_555
H7I C11I 1_555 1_555
C12I C8I 1_555 1_555
H8I C12I 1_555 1_555
C4 C5 1_555 1_555
C5 C6 1_555 1_555
C11 C12 1_555 1_555
N3I C7I 1_555 1_555
C4I C5I 1_555 1_555
C5I C6I 1_555 1_555
C11I C12I 1_555 1_555

#END
