
#######################################################################
#
#                 Cambridge Crystallographic Data Centre
#                                CCDC 
#
#######################################################################
#
# If this CIF has been generated from an entry in the Cambridge 
# Structural Database, then it will include bibliographic, chemical, 
# crystal, experimental, refinement or atomic coordinate data resulting 
# from the CCDC's data processing and validation procedures.
#
#######################################################################

data_VEMHIF
_chemical_formula_moiety         'C6 H12 Cd5 N43 O6'
_symmetry_cell_setting           hexagonal
_symmetry_space_group_name_H-M   'P 6/m m m'
_symmetry_Int_Tables_number      191
_space_group_name_Hall           '-P 6 2'
loop_
_symmetry_equiv_pos_site_id
_symmetry_equiv_pos_as_xyz
1 x,y,z
2 x-y,x,z
3 -y,x-y,z
4 -x+y,-x,z
5 y,-x+y,z
6 y,x,-z
7 -x+y,y,-z
8 x,x-y,-z
9 -x,-y,z
10 x-y,-y,-z
11 -x,-x+y,-z
12 -y,-x,-z
13 -x,-y,-z
14 -x+y,-x,-z
15 y,-x+y,-z
16 x-y,x,-z
17 -y,x-y,-z
18 -y,-x,z
19 x-y,-y,z
20 -x,-x+y,z
21 x,y,-z
22 -x+y,y,z
23 x,x-y,z
24 y,x,z
_cell_length_a                   26.3397(6)
_cell_length_b                   26.3397(6)
_cell_length_c                   13.2433(5)
_cell_angle_alpha                90
_cell_angle_beta                 90
_cell_angle_gamma                120
_cell_volume                     7956.98
loop_
_atom_site_label
_atom_site_type_symbol
_atom_site_fract_x
_atom_site_fract_y
_atom_site_fract_z
_atom_site_U_iso_or_equiv
_atom_site_thermal_displace_type
O3 O 0.1562(13) 0.312(3) 0.5000 0.1611 Uani
O4 O 0.5000 0.5000 0.0000 0.2500 Uani
O6 O -0.0000 0.0000 0.5000 0.1600 Uani
O7 O 0.3333 0.6667 0.0000 0.2433 Uani
Cd1 Cd 0.3333 0.6667 0.34436(9) 0.0109 Uani
Cd2 Cd 0.248965(14) 0.49793(3) 0.24624(5) 0.0121 Uani
Cd3 Cd -0.0000 0.34182(4) 0.5000 0.0172 Uani
Cd4 Cd -0.0000 0.24939(3) 0.24880(5) 0.0156 Uani
Cd5 Cd -0.0000 0.15888(9) 0.0000 0.0613 Uani
O1 O -0.0000 0.4310(7) 0.5000 0.0670 Uani
N1 N 0.0723(3) 0.2266(3) 0.2083(5) 0.0261 Uani
N2 N 0.0742(4) 0.1983(4) 0.1276(6) 0.0343 Uani
N3 N 0.1523(3) 0.4286(3) 0.2895(5) 0.0247 Uani
N4 N 0.1212(4) 0.3771(4) 0.2451(6) 0.0382 Uani
N5 N 0.0716(3) 0.3442(3) 0.2936(5) 0.0249 Uani
N6 N 0.0717(3) 0.3757(3) 0.3735(5) 0.0250 Uani
N7 N 0.26380(19) 0.5276(4) 0.4176(6) 0.0186 Uani
N8 N 0.29185(18) 0.5837(4) 0.4504(6) 0.0141 Uani
N9 N 0.2072(3) 0.4143(5) 0.0492(8) 0.0389 Uani
N10 N 0.2350(2) 0.4699(5) 0.0812(7) 0.0261 Uani
N11 N 0.0000 0.2505(7) 0.0000 0.0400 Uani
N12 N -0.0000 0.2783(4) 0.0814(7) 0.0301 Uani
N13 N -0.0000 0.3265(6) 0.0491(13) 0.0868 Uani
N14 N 0.3753(2) 0.6247(2) 0.2468(7) 0.0161 Uani
N15 N 0.3479(3) 0.5697(3) 0.2134(6) 0.0239 Uani
N16 N 0.3865(4) 0.5621(4) 0.1584(9) 0.0454 Uani
N17 N -0.0000 0.2506(5) 0.5000 0.0203 Uani
N18 N 0.0000 0.2209(4) 0.4184(7) 0.0254 Uani
C3 C -0.0000 0.1727(5) 0.4514(10) 0.0514 Uani
C4 C 0.1221(3) 0.4262(3) 0.3703(6) 0.0244 Uani
H1 H 0.1346 0.4564 0.4195 0.0290 Uiso
C5 C 0.2478(4) 0.4955(7) 0.5000 0.0258 Uani
H2 H 0.2269 0.4539 0.5000 0.0310 Uiso
C6 C 0.2516(4) 0.5033(8) 0.0000 0.0322 Uani
H3 H 0.2725 0.5449 0.0000 0.0490 Uiso
O2 O -0.0000 0.068(2) 0.0000 0.2933 Uani
C7 C 0.1217(3) 0.2434(7) 0.2576(9) 0.0290 Uani
H4 H 0.1322 0.2644 0.3196 0.0440 Uiso
N1S N -0.0723(3) 0.1543(4) 0.2083(5) 0.0261 Uani
N1U N 0.1543(4) 0.2266(3) 0.2083(5) 0.0261 Uani
N2T N 0.0742(4) 0.1983(4) -0.1276(6) 0.0343 Uani
N2S N -0.0742(4) 0.1241(6) 0.1276(6) 0.0343 Uani
N2J N -0.0742(4) 0.1241(6) -0.1276(6) 0.0343 Uani
N2U N 0.1241(6) 0.1983(4) 0.1276(6) 0.0343 Uani
N3U N 0.2763(4) 0.4286(3) 0.2895(5) 0.0247 Uani
N5S N -0.0716(3) 0.2726(4) 0.2936(5) 0.0249 Uani
N6T N 0.0717(3) 0.3757(3) 0.6265(5) 0.0250 Uani
N6S N -0.0717(3) 0.3040(4) 0.3735(5) 0.0250 Uani
N6J N -0.0717(3) 0.3040(4) 0.6265(5) 0.0250 Uani
N7F N 0.26380(44) 0.5276(4) 0.5824(6) 0.0186 Uani
N8B N 0.4163(4) 0.70815(44) 0.4504(6) 0.0141 Uani
N8C N 0.29185(44) 0.70815(18) 0.4504(6) 0.0141 Uani
N8F N 0.29185(44) 0.5837(4) 0.5496(6) 0.0141 Uani
N9F N 0.2071(6) 0.4143(5) -0.0492(8) 0.0389 Uani
N10F N 0.2349(5) 0.4699(5) -0.0812(7) 0.0261 Uani
N12T N -0.0000 0.2783(4) -0.0814(7) 0.0301 Uani
N13T N 0.0000 0.3265(6) -0.0491(13) 0.0868 Uani
N14B N 0.3753(2) 0.7506(3) 0.2468(7) 0.0161 Uani
N14C N 0.2494(3) 0.6247(2) 0.2468(7) 0.0161 Uani
N15U N 0.2218(4) 0.5697(3) 0.2134(6) 0.0239 Uani
N15Q N 0.4303(3) 0.6521(3) 0.2134(6) 0.0239 Uani
N16Q N 0.4379(4) 0.6135(4) 0.1584(9) 0.0454 Uani
N18T N -0.0000 0.2209(4) 0.5816(7) 0.0254 Uani
C3T C -0.0000 0.1727(5) 0.5486(10) 0.0514 Uani
loop_
_atom_site_aniso_label
_atom_site_aniso_U_11
_atom_site_aniso_U_22
_atom_site_aniso_U_33
_atom_site_aniso_U_23
_atom_site_aniso_U_13
_atom_site_aniso_U_12
O3 0.16(2) 0.25(5) 0.11(3) 0.000 0.000 0.13(3)
O4 0.19(6) 0.19(6) 0.39(15) 0.000 0.000 0.11(7)
O6 0.16(6) 0.16(6) 0.16(10) 0.000 0.000 0.08(3)
O7 0.34(9) 0.34(9) 0.05(3) 0.000 0.000 0.17(4)
Cd1 0.0117(4) 0.0117(4) 0.0091(6) 0.000 0.000 0.0058(2)
Cd2 0.0160(4) 0.0089(4) 0.0092(5) -0.0004(2) -0.00019(11) 0.0045(2)
Cd3 0.0155(5) 0.0231(5) 0.0105(5) 0.000 0.000 0.0078(3)
Cd4 0.0128(5) 0.0193(4) 0.0125(5) -0.0030(2) 0.000 0.0064(2)
Cd5 0.0567(12) 0.0723(11) 0.0498(11) 0.000 0.000 0.0284(6)
O1 0.070(13) 0.049(7) 0.089(15) 0.000 0.000 0.035(6)
N1 0.021(3) 0.040(4) 0.021(3) -0.007(3) -0.005(3) 0.018(3)
N2 0.026(4) 0.056(5) 0.027(4) -0.009(4) 0.000(3) 0.025(4)
N3 0.018(3) 0.024(3) 0.022(3) 0.000(3) 0.008(3) 0.003(3)
N4 0.028(4) 0.032(5) 0.036(5) -0.009(3) 0.013(3) 0.001(4)
N5 0.023(3) 0.019(3) 0.020(3) -0.004(3) 0.005(3) 0.001(3)
N6 0.022(3) 0.021(3) 0.019(3) 0.000(3) 0.006(3) 0.001(3)
N7 0.031(4) 0.011(4) 0.007(4) 0.001(3) 0.0004(16) 0.0053(19)
N8 0.022(3) 0.011(4) 0.006(4) 0.003(3) 0.0014(15) 0.0057(19)
N9 0.062(6) 0.030(6) 0.014(5) 0.003(4) 0.001(2) 0.015(3)
N10 0.040(4) 0.030(5) 0.005(4) 0.001(4) 0.0007(18) 0.015(3)
N11 0.047(12) 0.040(8) 0.036(12) 0.000 0.000 0.024(6)
N12 0.052(7) 0.038(4) 0.005(4) 0.000(3) 0.000 0.026(3)
N13 0.21(3) 0.071(8) 0.027(8) -0.006(5) 0.000 0.106(15)
N14 0.015(3) 0.015(3) 0.019(5) -0.0039(16) 0.0039(16) 0.008(4)
N15 0.014(3) 0.012(3) 0.037(4) -0.007(3) 0.008(3) 0.000(2)
N16 0.025(4) 0.020(4) 0.075(7) -0.017(4) 0.010(4) -0.001(4)
N17 0.023(7) 0.022(6) 0.017(8) 0.000 0.000 0.012(4)
N18 0.043 0.024 0.015 0 0 0.021
C3 0.104 0.042 0.029 -0.007 0 0.052
C4 0.018(4) 0.018(4) 0.020(4) -0.008(3) 0.005(3) -0.004(3)
C5 0.041(9) 0.011(7) 0.016(9) 0.000 0.000 0.006(4)
C6 0.049(11) 0.020(9) 0.018(10) 0.000 0.000 0.010(4)
O2 0.26(10) 0.08(3) 0.6(2) 0.000 0.000 0.13(5)
C7 0.024(4) 0.048(8) 0.023(6) -0.013(5) -0.006(3) 0.024(4)
N1S 0.021 0.025 0.021 -0.002 0.005 0.003
N1U 0.025 0.04 0.021 -0.007 -0.002 0.022
N2T 0.026 0.056 0.027 0.009 0 0.025
N2S 0.026 0.032 0.027 -0.009 0 0.001
N2J 0.026 0.032 0.027 0.009 0 0.001
N2U 0.032 0.056 0.027 -0.009 -0.009 0.031
N3U 0.036 0.024 0.022 0 -0.008 0.021
N5S 0.023 0.04 0.02 -0.009 -0.005 0.022
N6T 0.022 0.021 0.019 0 -0.006 0.001
N6S 0.022 0.041 0.019 -0.006 -0.006 0.021
N6J 0.022 0.041 0.019 0.006 0.006 0.021
N7F 0.0314 0.011 0.007 -0.001 -0.0006 0.0057
N8B 0.011 0.0216 0.006 -0.0016 -0.003 0.0053
N8C 0.0216 0.022 0.006 -0.0014 0.0016 0.0163
N8F 0.0216 0.011 0.006 -0.003 -0.0016 0.0053
N9F 0.062 0.03 0.014 -0.003 -0.002 0.015
N10F 0.04 0.03 0.005 -0.001 -0.0003 0.015
N12T 0.052 0.038 0.005 0 0 0.026
N13T 0.21 0.069 0.027 0.006 0 0.104
N14B 0.015 0.014 0.019 0.0078 0.0039 0.007
N14C 0.014 0.015 0.019 -0.0039 -0.0078 0.007
N15U 0.026 0.012 0.037 -0.007 -0.015 0.012
N15Q 0.012 0.014 0.037 -0.008 0.007 0
N16Q 0.02 0.025 0.075 -0.01 0.017 -0.001
N18T 0.043(6) 0.025(3) 0.015(4) 0.000(3) 0.000 0.022(3)
C3T 0.104(13) 0.042(5) 0.029(6) 0.007(4) 0.000 0.052(7)
loop_
_geom_bond_atom_site_label_1
_geom_bond_atom_site_label_2
_geom_bond_site_symmetry_1
_geom_bond_site_symmetry_2
Cd1 N8 1_555 1_555
Cd2 N3 1_555 1_555
Cd3 O1 1_555 1_555
Cd4 N1 1_555 1_555
Cd5 N2 1_555 1_555
N1 N2 1_555 1_555
N2 N2U 1_555 1_555
N3 N4 1_555 1_555
N4 N5 1_555 1_555
N5 Cd4 1_555 1_555
N6 Cd3 1_555 1_555
N7 Cd2 1_555 1_555
N8 N7 1_555 1_555
N9 N10 1_555 1_555
N10 Cd2 1_555 1_555
N11 Cd5 1_555 1_555
N12 Cd4 1_555 1_555
N13 N12 1_555 1_555
N14 Cd1 1_555 1_555
N15 Cd2 1_555 1_555
N16 N15 1_555 1_555
N17 Cd3 1_555 1_555
N18 Cd4 1_555 1_555
C3 N18 1_555 1_555
C4 N3 1_555 1_555
H1 C4 1_555 1_555
C5 N7 1_555 1_555
H2 C5 1_555 1_555
C6 N10 1_555 1_555
H3 C6 1_555 1_555
O2 Cd5 1_555 1_555
C7 N1 1_555 1_555
H4 C7 1_555 1_555
N1S Cd4 1_555 1_555
N1U C7 1_555 1_555
N2T Cd5 1_555 1_555
N2S Cd5 1_555 1_555
N2J Cd5 1_555 1_555
N2U N1U 1_555 1_555
N3U Cd2 1_555 1_555
N5S Cd4 1_555 1_555
N6T Cd3 1_555 1_555
N6S Cd3 1_555 1_555
N6J Cd3 1_555 1_555
N7F C5 1_555 1_555
N8B Cd1 1_555 1_555
N8C Cd1 1_555 1_555
N8F N8 1_555 1_555
N9F N9 1_555 1_555
N10F C6 1_555 1_555
N12T N11 1_555 1_555
N13T N13 1_555 1_555
N14B Cd1 1_555 1_555
N14C Cd1 1_555 1_555
N15U Cd2 1_555 1_555
N15Q N14 1_555 1_555
N16Q N16 1_555 1_555
N18T N17 1_555 1_555
C3T C3 1_555 1_555
N5 N6 1_555 1_555
N6 C4 1_555 1_555
N11 N12 1_555 1_555
N14 N15 1_555 1_555
N17 N18 1_555 1_555
N1S N2S 1_555 1_555
N5S N6S 1_555 1_555
N7F N8F 1_555 1_555
N9F N10F 1_555 1_555
N12T N13T 1_555 1_555
N14C N15U 1_555 1_555
N15Q N16Q 1_555 1_555
N18T C3T 1_555 1_555

#END
