
#######################################################################
#
#                 Cambridge Crystallographic Data Centre
#                                CCDC 
#
#######################################################################
#
# If this CIF has been generated from an entry in the Cambridge 
# Structural Database, then it will include bibliographic, chemical, 
# crystal, experimental, refinement or atomic coordinate data resulting 
# from the CCDC's data processing and validation procedures.
#
#######################################################################

data_RAPMOK
_chemical_formula_moiety         '(C1 H17 N3 O29 P6 Zn7 2-)n'
_symmetry_cell_setting           rhombohedral
_symmetry_space_group_name_H-M   'R 3'
_symmetry_Int_Tables_number      146
_space_group_name_Hall           'R 3'
loop_
_symmetry_equiv_pos_site_id
_symmetry_equiv_pos_as_xyz
1 x,y,z
2 -y,x-y,z
3 -x+y,-x,z
4 1/3+x,2/3+y,2/3+z
5 1/3-y,2/3+x-y,2/3+z
6 1/3-x+y,2/3-x,2/3+z
7 2/3+x,1/3+y,1/3+z
8 2/3-y,1/3+x-y,1/3+z
9 2/3-x+y,1/3-x,1/3+z
_cell_length_a                   15.356(6)
_cell_length_b                   15.356(6)
_cell_length_c                   12.617(4)
_cell_angle_alpha                90
_cell_angle_beta                 90
_cell_angle_gamma                120.00
_cell_volume                     2576.58
loop_
_atom_site_label
_atom_site_type_symbol
_atom_site_fract_x
_atom_site_fract_y
_atom_site_fract_z
Zn1 Zn 0.6476(2) 0.6828(2) -0.0068(4)
Zn2 Zn 0.7717(2) 0.9316(2) 0.1944(4)
Zn3 Zn 0.3333 0.6667 0.1521(4)
P1 P 0.5653(5) 0.7394(5) 0.1813(5)
P2 P 0.8439(5) 0.7741(5) 0.1299(5)
O1 O 0.793(1) 0.752(1) 0.022(1)
O2 O 0.783(1) 0.690(1) 0.208(1)
O3 O 0.547(1) 0.655(1) 0.101(1)
O4 O 0.608(1) 0.726(1) 0.287(1)
O5 O 0.640(1) 0.840(1) 0.134(1)
O6 O 0.946(1) 0.785(1) 0.109(1)
O7 O 0.860(1) 0.871(1) 0.177(1)
O8 O 0.757(1) 0.952(1) 0.351(1)
O9 O 0.470(1) 0.741(1) 0.206(1)
O10 O 0.3333 0.6667 -0.005(2)
P1A P 0.2606(5) 0.8259(7) 0.1813(5)
O3A O 0.345(1) 0.892(1) 0.101(1)
O4A O 0.274(1) 0.882(1) 0.287(1)
O5A O 0.160(1) 0.800(1) 0.134(1)
O9A O 0.259(1) 0.729(1) 0.206(1)
P1B P 0.1741(7) 0.4347(5) 0.1813(5)
O3B O 0.108(1) 0.453(1) 0.101(1)
O4B O 0.118(1) 0.392(1) 0.287(1)
O5B O 0.200(1) 0.360(1) 0.134(1)
O9B O 0.271(1) 0.530(1) 0.206(1)
Zn1A Zn 0.3172(2) 0.9648(3) -0.0068(4)
Zn1B Zn 0.0352(3) 0.3524(2) -0.0068(4)
Zn2A Zn 0.0684(2) 0.8401(3) 0.1944(4)
Zn2B Zn 0.1599(3) 0.2283(2) 0.1944(4)
P2D P 0.5592(5) 0.7365(7) -0.2034(5)
O1D O 0.581(1) 0.708(1) -0.311(1)
O2D O 0.643(1) 0.760(1) -0.125(1)
O6D O 0.548(1) 0.828(1) -0.224(1)
O7D O 0.462(1) 0.656(1) -0.156(1)
P2B P 0.9302(7) 1.1561(5) 0.1299(5)
O1B O 0.959(1) 1.207(1) 0.022(1)
O2B O 0.907(1) 1.217(1) 0.208(1)
O6B O 0.839(1) 1.054(1) 0.109(1)
O7B O 1.011(1) 1.140(1) 0.177(1)
O8A O 0.048(1) 0.805(1) 0.351(1)
O8B O 0.195(1) 0.243(1) 0.351(1)
O4D O 0.607(1) 0.549(1) -0.046(1)
Zn1H Zn 0.7019(3) 0.6857(2) 0.3265(4)
Zn2A_2 Zn 1.0684(2) 0.8401(3) 0.1944(4)
Zn1F Zn 0.3143(2) 1.0161(2) 0.3265(4)
Zn1G Zn -0.0161(2) 0.2981(3) 0.3265(4)
O1A O 0.248(1) 1.041(1) 0.022(1)
O2E O 0.240(1) 0.884(1) -0.125(1)
O4E O 0.451(1) 1.059(1) -0.046(1)
O1B_2 O -0.041(1) 0.207(1) 0.022(1)
O2C O 0.116(1) 0.357(1) -0.125(1)
O4C O -0.059(1) 0.393(1) -0.046(1)
O6_2 O -0.054(1) 0.785(1) 0.109(1)
O7A O 0.129(1) 0.989(1) 0.177(1)
O6A O 0.215(1) 0.161(1) 0.109(1)
O7B_2 O 0.011(1) 0.140(1) 0.177(1)
Zn1D Zn 0.6505(2) 0.6315(3) -0.3401(4)
Zn2E Zn 0.4932(3) 0.8950(2) -0.1389(4)
Zn2D Zn 0.4017(2) 0.5068(3) -0.1389(4)
Zn1B_2 Zn 1.0352(3) 1.3524(2) -0.0068(4)
Zn1G_2 Zn 0.9839(2) 1.2981(3) 0.3265(4)
Zn2B_2 Zn 1.1599(3) 1.2283(2) 0.1944(4)
O11 O 1.0000 1.0000 0.004(3)
C1 C 0.497(2) 0.345(2) 0.148(2)
N1 N 0.473(1) 0.299(1) 0.054(1)
N2 N 0.451(1) 0.300(1) 0.239(2)
N3 N 0.570(2) 0.441(1) 0.153(2)
loop_
_geom_bond_atom_site_label_1
_geom_bond_atom_site_label_2
_geom_bond_site_symmetry_1
_geom_bond_site_symmetry_2
Zn1 O1 1_555 1_555
Zn2 O5 1_555 1_555
Zn3 O9 1_555 1_555
P1 O3 1_555 1_555
P2 O1 1_555 1_555
O2 P2 1_555 1_555
O3 Zn1 1_555 1_555
O4 P1 1_555 1_555
O5 P1 1_555 1_555
O6 P2 1_555 1_555
O7 Zn2 1_555 1_555
O8 Zn2 1_555 1_555
O9 P1 1_555 1_555
O10 Zn3 1_555 1_555
C1 N1 1_555 1_555
N2 C1 1_555 1_555
N3 C1 1_555 1_555
P1A O3A 1_555 1_555
O3A Zn1A 1_555 1_555
O4A P1A 1_555 1_555
O5A P1A 1_555 1_555
O9A Zn3 1_555 1_555
P1B O3B 1_555 1_555
O3B Zn1B 1_555 1_555
O4B P1B 1_555 1_555
O5B P1B 1_555 1_555
O9B Zn3 1_555 1_555
Zn1A O1A 1_555 1_555
Zn1B O1B_2 1_555 1_555
Zn2A O5A 1_555 1_555
Zn2B O5B 1_555 1_555
P2D O1D 1_555 1_555
O1D Zn1D 1_555 1_555
O2D Zn1 1_555 1_555
O6D P2D 1_555 1_555
O7D P2D 1_555 1_555
P2B O1B 1_555 1_555
O1B Zn1B_2 1_555 1_555
O2B P2B 1_555 1_555
O6B Zn2 1_555 1_555
O7B P2B 1_555 1_555
O8A Zn2A 1_555 1_555
O8B Zn2B 1_555 1_555
O4D Zn1 1_555 1_555
Zn1H O2 1_555 1_555
Zn2A_2 O6 1_555 1_555
Zn1F O4A 1_555 1_555
Zn1G O4B 1_555 1_555
O2E Zn1A 1_555 1_555
O4E Zn1A 1_555 1_555
O2C Zn1B 1_555 1_555
O4C Zn1B 1_555 1_555
O6_2 Zn2A 1_555 1_555
O7A Zn2A 1_555 1_555
O6A Zn2B 1_555 1_555
O7B_2 Zn2B 1_555 1_555
Zn2E O6D 1_555 1_555
Zn2D O7D 1_555 1_555
Zn1G_2 O2B 1_555 1_555
Zn2B_2 O7B 1_555 1_555
P2 O7 1_555 1_555
O4 Zn1H 1_555 1_555
P1A O9A 1_555 1_555
P1B O9B 1_555 1_555
P2D O2D 1_555 1_555
P2B O6B 1_555 1_555

#END
