
#######################################################################
#
#                 Cambridge Crystallographic Data Centre
#                                CCDC 
#
#######################################################################
#
# If this CIF has been generated from an entry in the Cambridge 
# Structural Database, then it will include bibliographic, chemical, 
# crystal, experimental, refinement or atomic coordinate data resulting 
# from the CCDC's data processing and validation procedures.
#
#######################################################################

data_WAQFAX
_chemical_formula_moiety         'C87 H52 In17 O45'
_symmetry_cell_setting           tetragonal
_symmetry_space_group_name_H-M   'P 41 21 2'
_symmetry_Int_Tables_number      92
_space_group_name_Hall           'P 4abw 2nw'
loop_
_symmetry_equiv_pos_site_id
_symmetry_equiv_pos_as_xyz
1 x,y,z
2 -x,-y,1/2+z
3 1/2-y,1/2+x,1/4+z
4 1/2+y,1/2-x,3/4+z
5 1/2-x,1/2+y,1/4-z
6 1/2+x,1/2-y,3/4-z
7 y,x,-z
8 -y,-x,1/2-z
_cell_length_a                   22.0466(2)
_cell_length_b                   22.0466(2)
_cell_length_c                   36.7720(7)
_cell_angle_alpha                90
_cell_angle_beta                 90
_cell_angle_gamma                90
_cell_volume                     17873.1
loop_
_atom_site_label
_atom_site_type_symbol
_atom_site_fract_x
_atom_site_fract_y
_atom_site_fract_z
In1 In 0.99941(3) 1.28680(3) 0.150751(15)
In2 In 1.00425(3) 1.34861(3) 0.239365(15)
In3 In 1.50955(3) 1.69220(3) 0.022161(16)
O1 O 1.0751(4) 1.3932(4) 0.2082(2)
O2 O 1.0745(4) 1.3512(4) 0.1532(2)
O3 O 1.4373(4) 1.7121(4) 0.1064(2)
O4 O 1.4350(4) 1.6594(3) 0.0535(2)
O5 O 0.9266(3) 1.2242(3) 0.1373(2)
O6 O 0.9338(4) 1.1610(4) 0.18384(19)
O7 O 0.5645(4) 0.8990(4) 0.0391(2)
O8 O 0.5638(4) 0.8631(4) 0.0952(2)
O9 O 1.0495(4) 1.2049(3) 0.27425(18)
O10 O 1.0705(4) 1.3038(3) 0.2726(2)
O11 O 1.4111(3) 1.2793(3) 0.49172(18)
O12 O 1.4353(3) 1.1855(3) 0.4739(2)
O13 O 1.5262(4) 1.6019(3) 0.0022(2)
O14 O 1.0155(4) 1.4235(4) 0.2770(2)
O15 O 1.0020(5) 1.3058(4) 0.0938(2)
H1 H 0.9800 1.3365 0.0846
H2 H 1.0252 1.2829 0.0790
O16 O 0.9982(3) 1.2760(2) 0.20550(14)
C1 C 1.1416(6) 1.4305(6) 0.1643(3)
C2 C 1.1598(9) 1.4289(9) 0.1292(5)
H3 H 1.1418 1.4025 0.1127
C3 C 1.2058(10) 1.4675(10) 0.1184(5)
H4 H 1.2203 1.4643 0.0947
C4 C 1.2313(7) 1.5100(8) 0.1406(4)
C5 C 1.2142(8) 1.5076(8) 0.1775(4)
H5 H 1.2342 1.5316 0.1945
C6 C 1.1688(7) 1.4702(8) 0.1882(4)
H6 H 1.1557 1.4714 0.2122
C7 C 1.0932(5) 1.3877(5) 0.1759(3)
C8 C 1.2797(7) 1.5523(8) 0.1277(4)
C9 C 1.3072(10) 1.5435(10) 0.0957(6)
H7 H 1.2957 1.5099 0.0820
C10 C 1.3521(10) 1.5811(9) 0.0815(5)
H8 H 1.3697 1.5720 0.0592
C11 C 1.3706(5) 1.6318(6) 0.1004(4)
C12 C 1.3465(8) 1.6376(8) 0.1340(4)
H9 H 1.3600 1.6690 0.1489
C13 C 1.3022(9) 1.5984(8) 0.1473(5)
H10 H 1.2876 1.6044 0.1708
C14 C 1.4182(5) 1.6706(6) 0.0857(4)
C15 C 0.8676(5) 1.1340(5) 0.1374(3)
C16 C 0.8536(5) 1.0827(5) 0.1551(3)
H11 H 0.8757 1.0726 0.1758
C17 C 0.8085(6) 1.0448(6) 0.1441(3)
H12 H 0.7996 1.0099 0.1573
C18 C 0.7747(6) 1.0597(6) 0.1119(3)
C19 C 0.7934(6) 1.1107(6) 0.0930(3)
H13 H 0.7751 1.1197 0.0708
C20 C 0.8369(5) 1.1475(6) 0.1056(3)
H14 H 0.8466 1.1825 0.0928
C21 C 0.9124(5) 1.1763(5) 0.1533(3)
C22 C 0.7237(6) 1.0189(6) 0.1010(4)
C23 C 0.6849(6) 0.9938(6) 0.1265(3)
H15 H 0.6900 1.0043 0.1508
C24 C 0.6409(5) 0.9557(5) 0.1179(3)
H16 H 0.6158 0.9399 0.1359
C25 C 0.6323(6) 0.9392(6) 0.0813(3)
C26 C 0.6676(6) 0.9664(7) 0.0549(4)
H17 H 0.6601 0.9583 0.0305
C27 C 0.7135(7) 1.0051(8) 0.0642(4)
H18 H 0.7378 1.0222 0.0463
C28 C 0.5836(5) 0.8968(5) 0.0710(3)
C29 C 1.1201(5) 1.2447(5) 0.3162(3)
C30 C 1.1487(5) 1.2955(5) 0.3301(3)
H19 H 1.1407 1.3333 0.3200
C31 C 1.1888(6) 1.2908(5) 0.3587(3)
H20 H 1.2073 1.3254 0.3681
C32 C 1.2013(5) 1.2355(5) 0.3731(3)
C33 C 1.1717(6) 1.1848(6) 0.3609(3)
H21 H 1.1790 1.1475 0.3718
C34 C 1.1308(5) 1.1886(6) 0.3322(3)
H22 H 1.1109 1.1541 0.3239
C35 C 1.0758(5) 1.2520(6) 0.2851(3)
C36 C 1.2494(5) 1.2317(5) 0.4016(3)
C37 C 1.2555(5) 1.2774(5) 0.4262(3)
H23 H 1.2276 1.3090 0.4266
C38 C 1.3043(5) 1.2767(5) 0.4511(3)
H24 H 1.3084 1.3079 0.4680
C39 C 1.3466(5) 1.2289(5) 0.4504(3)
C40 C 1.3381(6) 1.1806(6) 0.4268(3)
H25 H 1.3649 1.1480 0.4264
C41 C 1.2877(6) 1.1824(6) 0.4035(4)
H26 H 1.2797 1.1490 0.3888
C42 C 1.4016(5) 1.2307(5) 0.4741(3)
C43 C 1.5853(7) 1.5853(7) 0.0000
O17 O 1.0943(16) 1.4746(17) 0.3113(9)
C44 C 1.068(2) 1.4390(13) 0.2904(12)
In1D In 1.50059(3) 0.78680(3) 0.099249(15)
In1D_2 In 1.50059(3) 1.78680(3) 0.099249(15)
In1D_3 In 0.50059(3) 0.78680(3) 0.099249(15)
In1D_4 In 0.50059(3) 1.78680(3) 0.099249(15)
In2D In 1.49575(3) 0.84861(3) 0.010635(15)
In2D_2 In 0.49575(3) 0.84861(3) 0.010635(15)
In2E In 1.50425(3) 1.15139(3) 0.510635(15)
In2E_2 In 0.50425(3) 1.15139(3) 0.510635(15)
In2D_3 In 1.49575(3) 1.84861(3) 0.010635(15)
In3D In 0.99045(3) 1.19220(3) 0.227839(16)
In3A In 1.49045(3) 1.30780(3) 0.522161(16)
In3F In 1.69220(3) 1.50955(3) -0.022161(16)
In3_2 In 0.50955(3) 1.69220(3) 0.022161(16)
In3A_2 In 0.49045(3) 1.30780(3) 0.522161(16)
O1D O 1.4249(4) 0.8932(4) 0.0418(2)
O2D O 1.4255(4) 0.8512(4) 0.0968(2)
O3D O 1.0627(4) 1.2121(4) 0.1436(2)
O3_2 O 1.4373(4) 0.7121(4) 0.1064(2)
O4D O 1.0650(4) 1.1594(3) 0.1965(2)
O5D O 0.5734(3) 1.7242(3) 0.1127(2)
O5D_2 O 1.5734(3) 0.7242(3) 0.1127(2)
O6D O 0.5662(4) 1.6610(4) 0.06616(19)
O6D_2 O 1.5662(4) 1.6610(4) 0.06616(19)
O7D O 0.9355(4) 1.3990(4) 0.2109(2)
O7_2 O 1.5645(4) 0.8990(4) 0.0391(2)
O8D O 0.9362(4) 1.3631(4) 0.1548(2)
O8_2 O 1.5638(4) 0.8631(4) 0.0952(2)
O9E O 0.5495(4) 1.2951(3) 0.47575(18)
O9D O 1.4505(4) 1.7049(3) -0.02425(18)
O10E O 0.5705(4) 1.1962(3) 0.4774(2)
O10D O 1.4295(4) 0.8038(3) -0.0226(2)
O11E O 0.9111(3) 1.2207(3) 0.25828(18)
O11A O 1.5889(3) 1.7207(3) -0.00828(18)
O12E O 0.9353(3) 1.3145(3) 0.2761(2)
O12A O 1.5647(3) 0.8145(3) -0.0261(2)
O13F O 1.6019(3) 1.5262(4) -0.0022(2)
O13D O 0.9738(4) 1.1019(3) 0.2478(2)
O14D O 1.4845(4) 0.9235(4) -0.0270(2)
O15D O 1.4980(5) 0.8058(4) 0.1562(2)
H1D H 1.5200 0.8365 0.1654
H2D H 1.4748 0.7829 0.1710
O16D O 1.5018(3) 1.7760(2) 0.04450(14)
O16D_2 O 1.5018(3) 0.7760(2) 0.04450(14)
C1D C 1.3584(6) 0.9305(6) 0.0857(3)
C2D C 1.3402(9) 0.9289(9) 0.1208(5)
H3D H 1.3582 0.9025 0.1373
C3D C 1.2942(10) 0.9675(10) 0.1316(5)
H4D H 1.2797 0.9643 0.1553
C4D C 1.2687(7) 1.0100(8) 0.1094(4)
C5D C 1.2858(8) 1.0076(8) 0.0725(4)
H5D H 1.2658 1.0316 0.0555
C6D C 1.3312(7) 0.9702(8) 0.0618(4)
H6D H 1.3443 0.9714 0.0378
C7D C 1.4068(5) 0.8877(5) 0.0741(3)
C8D C 1.2203(7) 1.0523(8) 0.1223(4)
C9D C 1.1928(10) 1.0435(10) 0.1543(6)
H7D H 1.2043 1.0099 0.1680
C10D C 1.1479(10) 1.0811(9) 0.1685(5)
H8D H 1.1303 1.0720 0.1908
C11D C 1.1294(5) 1.1318(6) 0.1496(4)
C12D C 1.1535(8) 1.1376(8) 0.1160(4)
H9D H 1.1400 1.1690 0.1011
C13D C 1.1978(9) 1.0984(8) 0.1027(5)
H10D H 1.2124 1.1044 0.0792
C14D C 1.0818(5) 1.1706(6) 0.1643(4)
C15D C 0.6324(5) 1.6340(5) 0.1126(3)
C16D C 0.6464(5) 1.5827(5) 0.0949(3)
H11D H 0.6243 1.5726 0.0742
C17D C 0.6915(6) 1.5448(6) 0.1059(3)
H12D H 0.7004 1.5099 0.0927
C18D C 0.7253(6) 1.5597(6) 0.1381(3)
C19D C 0.7066(6) 1.6107(6) 0.1570(3)
H13D H 0.7249 1.6197 0.1792
C20D C 0.6631(5) 1.6475(6) 0.1444(3)
H14D H 0.6534 1.6825 0.1572
C21D C 0.5876(5) 1.6763(5) 0.0967(3)
C22D C 0.7763(6) 1.5189(6) 0.1490(4)
C23D C 0.8151(6) 1.4938(6) 0.1235(3)
H15D H 0.8100 1.5043 0.0992
C24D C 0.8591(5) 1.4557(5) 0.1321(3)
H16D H 0.8842 1.4399 0.1141
C25D C 0.8677(6) 1.4392(6) 0.1687(3)
C26D C 0.8324(6) 1.4664(7) 0.1951(4)
H17D H 0.8399 1.4583 0.2195
C27D C 0.7865(7) 1.5051(8) 0.1858(4)
H18D H 0.7622 1.5222 0.2037
C28D C 0.9164(5) 1.3968(5) 0.1790(3)
C29E C 0.6201(5) 1.2553(5) 0.4338(3)
C30E C 0.6487(5) 1.2045(5) 0.4199(3)
H19E H 0.6407 1.1667 0.4300
C31E C 0.6888(6) 1.2092(5) 0.3913(3)
H20E H 0.7073 1.1746 0.3819
C32E C 0.7013(5) 1.2645(5) 0.3769(3)
C33E C 0.6717(6) 1.3152(6) 0.3891(3)
H21E H 0.6790 1.3525 0.3782
C34E C 0.6308(5) 1.3114(6) 0.4178(3)
H22E H 0.6109 1.3459 0.4261
C35E C 0.5758(5) 1.2480(6) 0.4649(3)
C36E C 0.7494(5) 1.2683(5) 0.3484(3)
C37E C 0.7555(5) 1.2226(5) 0.3238(3)
H23E H 0.7276 1.1910 0.3234
C38E C 0.8043(5) 1.2233(5) 0.2989(3)
H24E H 0.8084 1.1921 0.2820
C39E C 0.8466(5) 1.2711(5) 0.2996(3)
C40E C 0.8381(6) 1.3194(6) 0.3232(3)
H25E H 0.8649 1.3520 0.3236
C41E C 0.7877(6) 1.3176(6) 0.3465(4)
H26E H 0.7797 1.3510 0.3612
C42E C 0.9016(5) 1.2693(5) 0.2759(3)
O17D O 1.4057(16) 0.9746(17) -0.0613(9)
C44D C 1.432(2) 0.9390(13) -0.0404(12)
loop_
_geom_bond_atom_site_label_1
_geom_bond_atom_site_label_2
_geom_bond_site_symmetry_1
_geom_bond_site_symmetry_2
In1 O2 1_555 1_555
In2 O1 1_555 1_555
In3 O4 1_555 1_555
O1 C7 1_555 1_555
O2 C7 1_555 1_555
O3 C14 1_555 1_555
O4 C14 1_555 1_555
O5 In1 1_555 1_555
O6 C21 1_555 1_555
O7 C28 1_555 1_555
O8 C28 1_555 1_555
O9 C35 1_555 1_555
O10 In2 1_555 1_555
O11 C42 1_555 1_555
O12 C42 1_555 1_555
O13 In3 1_555 1_555
O14 In2 1_555 1_555
O15 In1 1_555 1_555
H1 O15 1_555 1_555
H2 O15 1_555 1_555
O16 In1 1_555 1_555
C1 C2 1_555 1_555
C2 H3 1_555 1_555
C3 C2 1_555 1_555
H4 C3 1_555 1_555
C4 C3 1_555 1_555
C5 C4 1_555 1_555
H5 C5 1_555 1_555
C6 C1 1_555 1_555
H6 C6 1_555 1_555
C7 C1 1_555 1_555
C8 C4 1_555 1_555
C9 C8 1_555 1_555
H7 C9 1_555 1_555
C10 C9 1_555 1_555
H8 C10 1_555 1_555
C11 C10 1_555 1_555
C12 C11 1_555 1_555
H9 C12 1_555 1_555
C13 C8 1_555 1_555
H10 C13 1_555 1_555
C14 C11 1_555 1_555
C15 C16 1_555 1_555
C16 H11 1_555 1_555
C17 C16 1_555 1_555
H12 C17 1_555 1_555
C18 C17 1_555 1_555
C19 C18 1_555 1_555
H13 C19 1_555 1_555
C20 C15 1_555 1_555
H14 C20 1_555 1_555
C21 O5 1_555 1_555
C22 C18 1_555 1_555
C23 C22 1_555 1_555
H15 C23 1_555 1_555
C24 C23 1_555 1_555
H16 C24 1_555 1_555
C25 C24 1_555 1_555
C26 C25 1_555 1_555
H17 C26 1_555 1_555
C27 C22 1_555 1_555
H18 C27 1_555 1_555
C28 C25 1_555 1_555
C29 C30 1_555 1_555
C30 H19 1_555 1_555
C31 C30 1_555 1_555
H20 C31 1_555 1_555
C32 C31 1_555 1_555
C33 C32 1_555 1_555
H21 C33 1_555 1_555
C34 C29 1_555 1_555
H22 C34 1_555 1_555
C35 O10 1_555 1_555
C36 C32 1_555 1_555
C37 C36 1_555 1_555
H23 C37 1_555 1_555
C38 C37 1_555 1_555
H24 C38 1_555 1_555
C39 C38 1_555 1_555
C40 C39 1_555 1_555
H25 C40 1_555 1_555
C41 C36 1_555 1_555
H26 C41 1_555 1_555
C42 C39 1_555 1_555
C43 O13 1_555 1_555
O17 C44 1_555 1_555
C44 O14 1_555 1_555
In1D O2D 1_555 1_555
In1D_2 O3 1_555 1_555
In1D_3 O8 1_555 1_555
In1D_4 O5D 1_555 1_555
In2D O1D 1_555 1_555
In2D_2 O7 1_555 1_555
In2E O12 1_555 1_555
In2E_2 O10E 1_555 1_555
In2D_3 O16D 1_555 1_555
In3D O6 1_555 1_555
In3A O11 1_555 1_555
In3F O13F 1_555 1_555
In3_2 O6D 1_555 1_555
In3A_2 O9E 1_555 1_555
O1D C7D 1_555 1_555
O2D C7D 1_555 1_555
O3D In1 1_555 1_555
O3_2 In1D 1_555 1_555
O4D In3D 1_555 1_555
O5D C21D 1_555 1_555
O5D_2 In1D 1_555 1_555
O6D C21D 1_555 1_555
O6D_2 In3 1_555 1_555
O7D In2 1_555 1_555
O7_2 In2D 1_555 1_555
O8D In1 1_555 1_555
O8_2 In1D 1_555 1_555
O9E C35E 1_555 1_555
O9D In3 1_555 1_555
O10E C35E 1_555 1_555
O10D In2D 1_555 1_555
O11E In3D 1_555 1_555
O11A In3 1_555 1_555
O12E In2 1_555 1_555
O12A In2D 1_555 1_555
O13F C43 1_555 1_555
O13D In3D 1_555 1_555
O14D In2D 1_555 1_555
O15D In1D 1_555 1_555
H1D O15D 1_555 1_555
H2D O15D 1_555 1_555
O16D In3 1_555 1_555
O16D_2 In1D 1_555 1_555
C1D C2D 1_555 1_555
C2D H3D 1_555 1_555
C3D C2D 1_555 1_555
H4D C3D 1_555 1_555
C4D C3D 1_555 1_555
C5D C4D 1_555 1_555
H5D C5D 1_555 1_555
C6D C1D 1_555 1_555
H6D C6D 1_555 1_555
C7D C1D 1_555 1_555
C8D C4D 1_555 1_555
C9D C8D 1_555 1_555
H7D C9D 1_555 1_555
C10D C9D 1_555 1_555
H8D C10D 1_555 1_555
C11D C10D 1_555 1_555
C12D C11D 1_555 1_555
H9D C12D 1_555 1_555
C13D C8D 1_555 1_555
H10D C13D 1_555 1_555
C14D O3D 1_555 1_555
C15D C16D 1_555 1_555
C16D H11D 1_555 1_555
C17D C16D 1_555 1_555
H12D C17D 1_555 1_555
C18D C17D 1_555 1_555
C19D C18D 1_555 1_555
H13D C19D 1_555 1_555
C20D C15D 1_555 1_555
H14D C20D 1_555 1_555
C21D C15D 1_555 1_555
C22D C18D 1_555 1_555
C23D C22D 1_555 1_555
H15D C23D 1_555 1_555
C24D C23D 1_555 1_555
H16D C24D 1_555 1_555
C25D C24D 1_555 1_555
C26D C25D 1_555 1_555
H17D C26D 1_555 1_555
C27D C22D 1_555 1_555
H18D C27D 1_555 1_555
C28D O7D 1_555 1_555
C29E C30E 1_555 1_555
C30E H19E 1_555 1_555
C31E C30E 1_555 1_555
H20E C31E 1_555 1_555
C32E C31E 1_555 1_555
C33E C32E 1_555 1_555
H21E C33E 1_555 1_555
C34E C29E 1_555 1_555
H22E C34E 1_555 1_555
C35E C29E 1_555 1_555
C36E C32E 1_555 1_555
C37E C36E 1_555 1_555
H23E C37E 1_555 1_555
C38E C37E 1_555 1_555
H24E C38E 1_555 1_555
C39E C38E 1_555 1_555
C40E C39E 1_555 1_555
H25E C40E 1_555 1_555
C41E C36E 1_555 1_555
H26E C41E 1_555 1_555
C42E O11E 1_555 1_555
O17D C44D 1_555 1_555
C44D O14D 1_555 1_555
In2 O16 1_555 1_555
O9 In3D 1_555 1_555
O16 In3D 1_555 1_555
C5 C6 1_555 1_555
C12 C13 1_555 1_555
C15 C21 1_555 1_555
C19 C20 1_555 1_555
C26 C27 1_555 1_555
C29 C35 1_555 1_555
C33 C34 1_555 1_555
C40 C41 1_555 1_555
In1D_2 O16D 1_555 1_555
In2D O16D_2 1_555 1_555
O4D C14D 1_555 1_555
O8D C28D 1_555 1_555
O12E C42E 1_555 1_555
C5D C6D 1_555 1_555
C11D C14D 1_555 1_555
C12D C13D 1_555 1_555
C19D C20D 1_555 1_555
C25D C28D 1_555 1_555
C26D C27D 1_555 1_555
C33E C34E 1_555 1_555
C39E C42E 1_555 1_555
C40E C41E 1_555 1_555

#END
