
#######################################################################
#
#                 Cambridge Crystallographic Data Centre
#                                CCDC 
#
#######################################################################
#
# If this CIF has been generated from an entry in the Cambridge 
# Structural Database, then it will include bibliographic, chemical, 
# crystal, experimental, refinement or atomic coordinate data resulting 
# from the CCDC's data processing and validation procedures.
#
#######################################################################

data_ZARLIP
_chemical_formula_moiety         '(C105 H59 N2 O22 Zn5)n'
_symmetry_cell_setting           monoclinic
_symmetry_space_group_name_H-M   'C 2/c'
_symmetry_Int_Tables_number      15
_space_group_name_Hall           '-C 2yc'
loop_
_symmetry_equiv_pos_site_id
_symmetry_equiv_pos_as_xyz
1 x,y,z
2 -x,y,1/2-z
3 1/2+x,1/2+y,z
4 1/2-x,1/2+y,1/2-z
5 -x,-y,-z
6 x,-y,1/2+z
7 1/2-x,1/2-y,-z
8 1/2+x,1/2-y,1/2+z
_cell_length_a                   25.1355(17)
_cell_length_b                   37.055(2)
_cell_length_c                   20.2587(14)
_cell_angle_alpha                90
_cell_angle_beta                 124.71(2)
_cell_angle_gamma                90
_cell_volume                     15511.1
loop_
_atom_site_label
_atom_site_type_symbol
_atom_site_fract_x
_atom_site_fract_y
_atom_site_fract_z
Zn1 Zn 0.900709(12) 0.716038(7) 0.240672(19)
Zn2 Zn 0.997817(13) 0.680763(8) 0.41548(2)
Zn3 Zn 1.0000 0.651625(12) 0.2500
O1 O 0.44770(7) 0.24868(4) 0.19872(11)
O2 O 0.98848(8) 0.68946(4) 0.31322(11)
O3 O 0.57068(8) 0.25439(5) 0.16937(11)
O4 O 0.82047(8) 0.74712(5) 0.16522(12)
O5 O 0.84949(8) 0.68348(5) 0.27058(13)
O6 O 0.91952(9) 0.62650(5) 0.19112(15)
O7 O 0.49889(8) 0.23061(5) 0.04870(12)
O8 O 0.86427(9) 0.67788(5) 0.14336(12)
C1 C 0.5000 0.41925(9) 0.2500
O9 O 0.07946(10) 0.65651(7) -0.51196(16)
C2 C 0.5000 0.49033(9) 0.2500
C3 C 0.86750(13) 0.64444(7) 0.14864(18)
O10 O 0.91837(9) 0.65835(6) 0.39049(13)
C4 C 0.55806(12) 0.32388(6) 0.29277(18)
H1 H 0.5979 0.3111 0.3224
C5 C 0.55635(12) 0.50904(6) 0.27593(16)
H2 H 0.5954 0.4962 0.2953
C6 C 0.53178(12) 0.48433(7) -0.05610(16)
H3 H 0.5721 0.4720 -0.0258
C7 C 0.5000 0.30504(9) 0.2500
C8 C 0.47718(12) 0.42806(7) -0.06701(16)
C9 C 0.51818(12) 0.29312(7) 0.05805(17)
C10 C 0.5000 0.45139(9) 0.2500
C11 C 0.53060(12) 0.52127(7) -0.06999(15)
C12 C 0.55599(12) 0.54705(7) 0.27365(17)
C13 C 0.55794(12) 0.36135(7) 0.29234(17)
H4 H 0.5978 0.3741 0.3212
C14 C 0.41529(12) 0.48344(7) -0.13281(15)
H5 H 0.3759 0.4706 -0.1547
C15 C 0.58948(14) 0.54121(8) -0.03732(18)
C16 C 0.47182(13) 0.53899(7) -0.11558(15)
H6 H 0.4709 0.5641 -0.1254
C17 C 0.61248(14) 0.56613(7) 0.29099(19)
C18 C 0.86295(12) 0.66332(8) 0.3264(2)
C19 C 0.80641(13) 0.62265(7) 0.10249(19)
N1 N 0.71498(11) 0.75196(8) 0.06520(16)
C20 C 0.76500(12) 0.73453(8) 0.1239(2)
H7 H 0.7584 0.7108 0.1355
C21 C 0.5000 0.56544(9) 0.2500
H8 H 0.5000 0.5911 0.2500
C22 C 0.49440(13) 0.36188(7) -0.01059(18)
C23 C 0.55085(17) 0.32306(7) 0.1063(2)
H9 H 0.5811 0.3201 0.1625
C24 C 0.5000 0.38030(9) 0.2500
C25 C 0.41414(12) 0.52038(7) -0.14717(16)
C26 C 0.47462(12) 0.46531(7) -0.08613(15)
C27 C 0.35421(14) 0.53982(8) -0.19773(19)
C28 C 0.65702(14) 0.58247(8) 0.3007(2)
C29 C 0.70937(14) 0.60260(8) 0.3077(2)
C30 C 0.63675(14) 0.55928(8) -0.0093(2)
C31 C 0.47539(15) 0.29797(8) -0.0231(2)
H10 H 0.4535 0.2777 -0.0567
C32 C 0.69133(14) 0.61776(8) 0.0170(2)
H11 H 0.6506 0.6294 -0.0162
C33 C 0.53941(17) 0.35691(8) 0.0725(2)
H12 H 0.5622 0.3771 0.1057
C34 C 0.74734(13) 0.63798(8) 0.0547(2)
H13 H 0.7443 0.6634 0.0469
C35 C 0.70013(14) 0.61898(9) 0.2409(2)
H14 H 0.6600 0.6165 0.1902
C36 C 0.80874(13) 0.64200(8) 0.31962(19)
C37 C 0.48403(13) 0.39725(7) -0.04410(18)
C38 C 0.69389(14) 0.58097(8) 0.0270(2)
C39 C 0.18819(17) 0.61565(10) -0.4119(2)
H15 H 0.1815 0.6252 -0.4596
C40 C 0.14534(17) 0.62302(10) -0.3942(3)
C41 C 0.46375(15) 0.33214(8) -0.05673(19)
H16 H 0.4338 0.3349 -0.1131
C42 C 0.25211(16) 0.57990(10) -0.2934(2)
C43 C 0.74978(14) 0.63930(9) 0.2479(2)
H17 H 0.7425 0.6514 0.2021
C44 C 0.81811(16) 0.62447(11) 0.3857(2)
H18 H 0.8592 0.6257 0.4356
C45 C 0.7201(2) 0.78753(11) 0.0427(3)
H19 H 0.7041 0.8049 0.0640
H20 H 0.6941 0.7894 -0.0160
H21 H 0.7654 0.7928 0.0646
C46 C 0.80943(17) 0.58598(10) 0.1121(4)
H22 H 0.8503 0.5747 0.1470
C47 C 0.24241(17) 0.59416(10) -0.3613(2)
H23 H 0.2726 0.5895 -0.3743
C48 C 0.76912(17) 0.60522(11) 0.3806(2)
H24 H 0.7762 0.5938 0.4270
C49 C 0.30845(15) 0.55768(9) -0.2402(2)
C50 C 0.1546(2) 0.60929(13) -0.3253(3)
H25 H 0.1242 0.6145 -0.3129
O11 O 0.04825(15) 0.65340(11) -0.4313(2)
C51 C 0.2079(2) 0.58789(15) -0.2741(3)
H26 H 0.2145 0.5787 -0.2262
C52 C 0.75466(18) 0.56539(10) 0.0722(4)
H27 H 0.7584 0.5398 0.0755
C53 C 0.65023(16) 0.73427(15) 0.0191(3)
H28 H 0.6529 0.7111 0.0439
H29 H 0.6364 0.7303 -0.0364
H30 H 0.6188 0.7498 0.0193
C54 C 0.5000 0.26462(9) 0.2500
C55 C 0.53057(13) 0.25672(7) 0.09580(17)
C56 C 0.0859(2) 0.64637(11) -0.4504(3)
Zn1A Zn 1.099291(12) 0.716038(7) 0.259328(19)
Zn1B Zn 0.400709(12) 0.216038(7) 0.240672(19)
Zn1C Zn 0.599291(12) 0.216038(7) 0.259328(19)
Zn1A_2 Zn 0.099291(12) 0.716038(7) 0.259328(19)
Zn1B_2 Zn 1.400709(12) 0.216038(7) 0.240672(19)
Zn2A Zn 1.002183(13) 0.680763(8) 0.08452(2)
Zn2C Zn 0.502183(13) 0.180763(8) 0.08452(2)
Zn2_2 Zn -0.002183(13) 0.680763(8) -0.58452(2)
Zn2A_2 Zn 0.002183(13) 0.680763(8) 0.08452(2)
Zn2B Zn 1.497817(13) 0.180763(8) 0.41548(2)
Zn2A_3 Zn 2.002183(13) 0.680763(8) 1.08452(2)
O1A O 0.55230(7) 0.24868(4) 0.30128(11)
O1B O 0.94770(7) 0.74868(4) 0.19872(11)
O1C O 1.05230(7) 0.74868(4) 0.30128(11)
O2A O 1.01152(8) 0.68946(4) 0.18678(11)
O3A O 1.42932(8) 0.25439(5) 0.33063(11)
O3C O 0.92932(8) 0.75439(5) 0.33063(11)
O3B O 1.07068(8) 0.75439(5) 0.16937(11)
O4A O 1.17953(8) 0.74712(5) 0.33478(12)
O5A O 0.15051(8) 0.68348(5) 0.22942(13)
O5A_2 O 1.15051(8) 0.68348(5) 0.22942(13)
O6A O 1.08048(9) 0.62650(5) 0.30888(15)
O7A O 1.50111(8) 0.23061(5) 0.45130(12)
O7C O 1.00111(8) 0.73061(5) 0.45130(12)
O7B O 0.99889(8) 0.73061(5) 0.04870(12)
O8A O 1.13573(9) 0.67788(5) 0.35664(12)
O9A O 1.92054(10) 0.65651(7) 1.01196(16)
O9_2 O 1.07946(10) 0.65651(7) 0.48804(16)
O9A_2 O 0.92054(10) 0.65651(7) 0.01196(16)
C3A C 1.13250(13) 0.64444(7) 0.35136(18)
O10A O 0.08163(9) 0.65835(6) 0.10951(13)
O10A_2 O 1.08163(9) 0.65835(6) 0.10951(13)
C4A C 0.44194(12) 0.32388(6) 0.20723(18)
H1A H 0.4021 0.3111 0.1776
C5A C 0.44365(12) 0.50904(6) 0.22407(16)
H2A H 0.4046 0.4962 0.2047
C6A C 1.46822(12) 0.48433(7) 0.55610(16)
H3A H 1.4279 0.4720 0.5258
C8A C 1.52282(12) 0.42806(7) 0.56701(16)
C9A C 1.48182(12) 0.29312(7) 0.44195(17)
C11A C 1.46940(12) 0.52127(7) 0.56999(15)
C12A C 0.44401(12) 0.54705(7) 0.22635(17)
C13A C 0.44206(12) 0.36135(7) 0.20766(17)
H4A H 0.4022 0.3741 0.1788
C14A C 1.58471(12) 0.48344(7) 0.63281(15)
H5A H 1.6241 0.4706 0.6547
C15A C 1.41052(14) 0.54121(8) 0.53732(18)
C16A C 1.52818(13) 0.53899(7) 0.61558(15)
H6A H 1.5291 0.5641 0.6254
C17A C 0.38752(14) 0.56613(7) 0.20901(19)
C18A C 0.13705(12) 0.66332(8) 0.1736(2)
C19A C 1.19359(13) 0.62265(7) 0.39751(19)
N1A N 1.28502(11) 0.75196(8) 0.43480(16)
C20A C 1.23500(12) 0.73453(8) 0.3761(2)
H7A H 1.2416 0.7108 0.3645
C22A C 1.50560(13) 0.36188(7) 0.51059(18)
C23A C 1.44915(17) 0.32306(7) 0.3937(2)
H9A H 1.4189 0.3201 0.3375
C25A C 1.58586(12) 0.52038(7) 0.64717(16)
C26A C 1.52538(12) 0.46531(7) 0.58613(15)
C27A C 1.64579(14) 0.53982(8) 0.69773(19)
C28A C 0.34298(14) 0.58247(8) 0.1993(2)
C29A C 0.29063(14) 0.60260(8) 0.1923(2)
C30A C 1.36325(14) 0.55928(8) 0.5093(2)
C31A C 1.52461(15) 0.29797(8) 0.5231(2)
H10A H 1.5465 0.2777 0.5567
C32A C 1.30867(14) 0.61776(8) 0.4830(2)
H11A H 1.3494 0.6294 0.5162
C33A C 1.46059(17) 0.35691(8) 0.4275(2)
H12A H 1.4378 0.3771 0.3943
C34A C 1.25266(13) 0.63798(8) 0.4453(2)
H13A H 1.2557 0.6634 0.4531
C35A C 0.29987(14) 0.61898(9) 0.2591(2)
H14A H 0.3400 0.6165 0.3098
C36A C 0.19126(13) 0.64200(8) 0.18038(19)
C37A C 1.51597(13) 0.39725(7) 0.54410(18)
C38A C 1.30611(14) 0.58097(8) 0.4730(2)
C39A C 1.81181(17) 0.61565(10) 0.9119(2)
H15A H 1.8185 0.6252 0.9596
C40A C 1.85466(17) 0.62302(10) 0.8942(3)
C41A C 1.53625(15) 0.33214(8) 0.55673(19)
H16A H 1.5662 0.3349 0.6131
C42A C 1.74789(16) 0.57990(10) 0.7934(2)
C43A C 0.25022(14) 0.63930(9) 0.2521(2)
H17A H 0.2575 0.6514 0.2979
C44A C 0.18189(16) 0.62447(11) 0.1143(2)
H18A H 0.1408 0.6257 0.0644
C45A C 1.2799(2) 0.78753(11) 0.4573(3)
H19A H 1.2959 0.8049 0.4360
H20A H 1.3059 0.7894 0.5160
H21A H 1.2346 0.7928 0.4354
C46A C 1.19057(17) 0.58598(10) 0.3879(4)
H22A H 1.1497 0.5747 0.3530
C47A C 1.75759(17) 0.59416(10) 0.8613(2)
H23A H 1.7274 0.5895 0.8743
C48A C 0.23088(17) 0.60522(11) 0.1194(2)
H24A H 0.2238 0.5938 0.0730
C49A C 1.69155(15) 0.55768(9) 0.7402(2)
C50A C 1.8454(2) 0.60929(13) 0.8253(3)
H25A H 1.8758 0.6145 0.8129
O11A O 1.95175(15) 0.65340(11) 0.9313(2)
C51A C 1.7921(2) 0.58789(15) 0.7741(3)
H26A H 1.7855 0.5787 0.7262
C52A C 1.24534(18) 0.56539(10) 0.4278(4)
H27A H 1.2416 0.5398 0.4245
C53A C 1.34977(16) 0.73427(15) 0.4809(3)
H28A H 1.3471 0.7111 0.4561
H29A H 1.3636 0.7303 0.5364
H30A H 1.3812 0.7498 0.4807
C55A C 1.46943(13) 0.25672(7) 0.40420(17)
C56A C 1.9141(2) 0.64637(11) 0.9504(3)
loop_
_geom_bond_atom_site_label_1
_geom_bond_atom_site_label_2
_geom_bond_site_symmetry_1
_geom_bond_site_symmetry_2
Zn1 O2 1_555 1_555
Zn2 O2 1_555 1_555
Zn3 O2 1_555 1_555
O1 C54 1_555 1_555
O3 C55 1_555 1_555
O4 Zn1 1_555 1_555
O5 Zn1 1_555 1_555
O6 Zn3 1_555 1_555
O7 C55 1_555 1_555
O8 Zn1 1_555 1_555
C1 C10 1_555 1_555
O9 C56 1_555 1_555
C2 C5 1_555 1_555
C3 O6 1_555 1_555
O10 Zn2 1_555 1_555
C4 H1 1_555 1_555
C5 H2 1_555 1_555
C6 H3 1_555 1_555
C7 C4 1_555 1_555
C8 C26 1_555 1_555
C9 C23 1_555 1_555
C10 C2 1_555 1_555
C11 C6 1_555 1_555
C12 C5 1_555 1_555
C13 C4 1_555 1_555
H4 C13 1_555 1_555
C14 H5 1_555 1_555
C15 C11 1_555 1_555
C16 C11 1_555 1_555
H6 C16 1_555 1_555
C17 C12 1_555 1_555
C18 O5 1_555 1_555
C19 C3 1_555 1_555
N1 C20 1_555 1_555
C20 O4 1_555 1_555
H7 C20 1_555 1_555
C21 C12 1_555 1_555
H8 C21 1_555 1_555
C22 C33 1_555 1_555
C23 H9 1_555 1_555
C24 C1 1_555 1_555
C25 C14 1_555 1_555
C26 C6 1_555 1_555
C27 C25 1_555 1_555
C28 C17 1_555 1_555
C29 C28 1_555 1_555
C30 C15 1_555 1_555
C31 C9 1_555 1_555
H10 C31 1_555 1_555
C32 H11 1_555 1_555
C33 C23 1_555 1_555
H12 C33 1_555 1_555
C34 C19 1_555 1_555
H13 C34 1_555 1_555
C35 C29 1_555 1_555
H14 C35 1_555 1_555
C36 C18 1_555 1_555
C37 C8 1_555 1_555
C38 C30 1_555 1_555
C39 H15 1_555 1_555
C40 C39 1_555 1_555
C41 C22 1_555 1_555
H16 C41 1_555 1_555
C42 C47 1_555 1_555
C43 C35 1_555 1_555
H17 C43 1_555 1_555
C44 C36 1_555 1_555
H18 C44 1_555 1_555
C45 N1 1_555 1_555
H19 C45 1_555 1_555
H20 C45 1_555 1_555
H21 C45 1_555 1_555
C46 C19 1_555 1_555
H22 C46 1_555 1_555
C47 C39 1_555 1_555
H23 C47 1_555 1_555
C48 C29 1_555 1_555
H24 C48 1_555 1_555
C49 C27 1_555 1_555
C50 C40 1_555 1_555
H25 C50 1_555 1_555
O11 C56 1_555 1_555
C51 C42 1_555 1_555
H26 C51 1_555 1_555
C52 C38 1_555 1_555
H27 C52 1_555 1_555
C53 N1 1_555 1_555
H28 C53 1_555 1_555
H29 C53 1_555 1_555
H30 C53 1_555 1_555
C54 C7 1_555 1_555
C55 C9 1_555 1_555
C56 C40 1_555 1_555
Zn1A O1C 1_555 1_555
Zn1B O1 1_555 1_555
Zn1C O3 1_555 1_555
Zn1A_2 O5A 1_555 1_555
Zn1B_2 O3A 1_555 1_555
Zn2A O2A 1_555 1_555
Zn2C O7 1_555 1_555
Zn2_2 O9 1_555 1_555
Zn2A_2 O10A 1_555 1_555
Zn2B O7A 1_555 1_555
Zn2A_3 O9A 1_555 1_555
O1A C54 1_555 1_555
O1B Zn1 1_555 1_555
O2A Zn3 1_555 1_555
O3A C55A 1_555 1_555
O3C Zn1 1_555 1_555
O3B Zn1A 1_555 1_555
O4A Zn1A 1_555 1_555
O5A C18A 1_555 1_555
O5A_2 Zn1A 1_555 1_555
O6A Zn3 1_555 1_555
O7A C55A 1_555 1_555
O7C Zn2 1_555 1_555
O7B Zn2A 1_555 1_555
O8A Zn1A 1_555 1_555
O9A C56A 1_555 1_555
O9_2 Zn2 1_555 1_555
O9A_2 Zn2A 1_555 1_555
C3A O6A 1_555 1_555
O10A C18A 1_555 1_555
O10A_2 Zn2A 1_555 1_555
C4A C7 1_555 1_555
H1A C4A 1_555 1_555
C5A C2 1_555 1_555
H2A C5A 1_555 1_555
C6A H3A 1_555 1_555
C8A C26A 1_555 1_555
C9A C23A 1_555 1_555
C11A C6A 1_555 1_555
C12A C21 1_555 1_555
C13A C24 1_555 1_555
H4A C13A 1_555 1_555
C14A H5A 1_555 1_555
C15A C11A 1_555 1_555
C16A C11A 1_555 1_555
H6A C16A 1_555 1_555
C17A C12A 1_555 1_555
C18A C36A 1_555 1_555
C19A C3A 1_555 1_555
N1A C20A 1_555 1_555
C20A O4A 1_555 1_555
H7A C20A 1_555 1_555
C22A C33A 1_555 1_555
C23A H9A 1_555 1_555
C25A C14A 1_555 1_555
C26A C6A 1_555 1_555
C27A C25A 1_555 1_555
C28A C17A 1_555 1_555
C29A C28A 1_555 1_555
C30A C15A 1_555 1_555
C31A C9A 1_555 1_555
H10A C31A 1_555 1_555
C32A H11A 1_555 1_555
C33A C23A 1_555 1_555
H12A C33A 1_555 1_555
C34A C19A 1_555 1_555
H13A C34A 1_555 1_555
C35A C29A 1_555 1_555
H14A C35A 1_555 1_555
C36A C43A 1_555 1_555
C37A C8A 1_555 1_555
C38A C30A 1_555 1_555
C39A H15A 1_555 1_555
C40A C39A 1_555 1_555
C41A C22A 1_555 1_555
H16A C41A 1_555 1_555
C42A C47A 1_555 1_555
C43A C35A 1_555 1_555
H17A C43A 1_555 1_555
C44A C36A 1_555 1_555
H18A C44A 1_555 1_555
C45A N1A 1_555 1_555
H19A C45A 1_555 1_555
H20A C45A 1_555 1_555
H21A C45A 1_555 1_555
C46A C19A 1_555 1_555
H22A C46A 1_555 1_555
C47A C39A 1_555 1_555
H23A C47A 1_555 1_555
C48A C29A 1_555 1_555
H24A C48A 1_555 1_555
C49A C27A 1_555 1_555
C50A C40A 1_555 1_555
H25A C50A 1_555 1_555
O11A C56A 1_555 1_555
C51A C42A 1_555 1_555
H26A C51A 1_555 1_555
C52A C38A 1_555 1_555
H27A C52A 1_555 1_555
C53A N1A 1_555 1_555
H28A C53A 1_555 1_555
H29A C53A 1_555 1_555
H30A C53A 1_555 1_555
C55A C9A 1_555 1_555
C56A C40A 1_555 1_555
O8 C3 1_555 1_555
O10 C18 1_555 1_555
C13 C24 1_555 1_555
C14 C26 1_555 1_555
C16 C25 1_555 1_555
C22 C37 1_555 1_555
C31 C41 1_555 1_555
C32 C34 1_555 1_555
C32 C38 1_555 1_555
C36 C43 1_555 1_555
C42 C49 1_555 1_555
C44 C48 1_555 1_555
C46 C52 1_555 1_555
C50 C51 1_555 1_555
Zn1A O2A 1_555 1_555
Zn1C O1A 1_555 1_555
O8A C3A 1_555 1_555
C4A C13A 1_555 1_555
C5A C12A 1_555 1_555
C14A C26A 1_555 1_555
C16A C25A 1_555 1_555
C22A C37A 1_555 1_555
C31A C41A 1_555 1_555
C32A C34A 1_555 1_555
C32A C38A 1_555 1_555
C42A C49A 1_555 1_555
C44A C48A 1_555 1_555
C46A C52A 1_555 1_555
C50A C51A 1_555 1_555

#END
