
#######################################################################
#
#                 Cambridge Crystallographic Data Centre
#                                CCDC 
#
#######################################################################
#
# If this CIF has been generated from an entry in the Cambridge 
# Structural Database, then it will include bibliographic, chemical, 
# crystal, experimental, refinement or atomic coordinate data resulting 
# from the CCDC's data processing and validation procedures.
#
#######################################################################

data_ZARLEL
_chemical_formula_moiety         '(C72 H44 N2 O14 Zn3)n'
_symmetry_cell_setting           tetragonal
_symmetry_space_group_name_H-M   'P 43 2 2'
_symmetry_Int_Tables_number      95
_space_group_name_Hall           'P 4cw 2c'
loop_
_symmetry_equiv_pos_site_id
_symmetry_equiv_pos_as_xyz
1 x,y,z
2 -x,-y,1/2+z
3 x,-y,1/2-z
4 -x,y,-z
5 -y,-x,3/4-z
6 y,x,1/4-z
7 y,-x,1/4+z
8 -y,x,3/4+z
_cell_length_a                   20.269(2)
_cell_length_b                   20.269(2)
_cell_length_c                   39.645(4)
_cell_angle_alpha                90
_cell_angle_beta                 90
_cell_angle_gamma                90
_cell_volume                     16287.4
loop_
_atom_site_label
_atom_site_type_symbol
_atom_site_fract_x
_atom_site_fract_y
_atom_site_fract_z
Zn1 Zn 0.16811(2) 0.0000 0.2500
Zn2 Zn 0.168079(17) -0.145433(17) 0.299124(8)
O1 O 0.16968(9) 0.01580(9) 0.30166(4)
O2 O 0.15036(10) -0.07614(11) 0.33134(4)
O3 O 0.14902(13) 0.73685(11) 0.46111(6)
O4 O 0.07150(13) 0.76064(12) 0.50008(6)
O5 O -0.10922(11) 0.17329(12) 0.76274(5)
O6 O -0.09326(10) 0.06920(12) 0.75704(5)
O7 O 0.16226(14) -0.22431(11) 0.32943(6)
N1 N 0.1297(4) -0.3084(4) 0.3688(2)
C1 C 0.15612(15) -0.01444(18) 0.32782(7)
C2 C 0.14420(15) 0.02579(18) 0.35960(7)
C3 C 0.14981(18) 0.0924(2) 0.35882(8)
H1 H 0.1619 0.1134 0.3386
C4 C 0.13795(18) 0.13015(17) 0.38735(9)
H2 H 0.1422 0.1763 0.3867
C5 C 0.11923(17) 0.0974(2) 0.41751(9)
C6 C 0.11407(17) 0.0296(2) 0.41808(8)
H3 H 0.1024 0.0082 0.4382
C7 C 0.12591(15) -0.00774(17) 0.38907(8)
H4 H 0.1217 -0.0539 0.3893
C8 C 0.10723(19) 0.13635(18) 0.44788(10)
C9 C 0.09925(19) 0.1685(2) 0.47208(10)
C10 C 0.08904(18) 0.2107(2) 0.50092(10)
C11 C 0.09400(18) 0.2784(2) 0.49756(9)
H5 H 0.1043 0.2963 0.4763
C12 C 0.0843(2) 0.3204(2) 0.52445(11)
C13 C 0.07166(18) 0.29220(19) 0.55730(9)
H6 H 0.0659 0.3195 0.5763
C14 C 0.06817(18) 0.2243(2) 0.56033(9)
C15 C 0.07736(18) 0.18149(18) 0.53263(10)
H7 H 0.0758 0.1354 0.5352
C16 C 0.0906(3) 0.3848(3) 0.52107(11)
C17 C 0.0925(2) 0.4440(3) 0.51690(10)
C18 C 0.1010(3) 0.5167(2) 0.50869(12)
C19 C 0.1371(2) 0.5375(2) 0.48198(11)
H8 H 0.1598 0.5068 0.4685
C20 C 0.1403(2) 0.6029(2) 0.47463(9)
H9 H 0.1656 0.6169 0.4561
C21 C 0.10756(18) 0.6490(2) 0.49374(10)
C22 C 0.07170(19) 0.6283(2) 0.52198(10)
H10 H 0.0516 0.6598 0.5360
C23 C 0.0659(2) 0.5652(3) 0.52902(10)
H11 H 0.0392 0.5514 0.5471
C24 C 0.1105(2) 0.7223(2) 0.48359(10)
C25 C 0.0518(2) 0.19707(17) 0.59345(10)
C26 C 0.03613(18) 0.18147(16) 0.62054(10)
C27 C 0.01127(18) 0.1654(2) 0.65428(8)
C28 C -0.0176(2) 0.21630(18) 0.67163(10)
H12 H -0.0175 0.2592 0.6626
C29 C -0.04664(19) 0.2042(2) 0.70201(10)
H13 H -0.0646 0.2396 0.7143
C30 C -0.05026(17) 0.1426(2) 0.71496(8)
C31 C -0.01694(15) 0.09076(17) 0.69755(9)
H14 H -0.0152 0.0484 0.7071
C32 C 0.01224(17) 0.1021(2) 0.66725(9)
H15 H 0.0327 0.0676 0.6553
C33 C -0.08670(17) 0.1262(2) 0.74735(9)
C34 C 0.1205(5) -0.2529(5) 0.3468(2)
H16 H 0.0773 -0.2363 0.3454
C35 C 0.2018(7) -0.3281(8) 0.3696(4)
C36 C 0.0703(5) -0.3144(5) 0.3917(2)
Zn1A Zn -0.16811(2) 0.0000 -0.2500
Zn1A_2 Zn -0.16811(2) 0.0000 0.7500
Zn1D Zn -0.0000 0.83189(2) 0.5000
Zn1E Zn 0.0000 -0.83189(2) 0.0000
Zn2B Zn 0.168079(17) 0.145433(17) 0.200876(8)
Zn2A Zn -0.168079(17) 0.145433(17) 0.799124(8)
Zn2C Zn -0.168079(17) -0.145433(17) -0.299124(8)
Zn2D Zn 0.145433(17) 0.831921(17) 0.450876(8)
Zn2G Zn 0.145433(17) -0.831921(17) 0.049124(8)
O1B O 0.16968(9) -0.01580(9) 0.19834(4)
O2B O 0.15036(10) 0.07614(11) 0.16866(4)
O3B O 0.14902(13) -0.73685(11) 0.03889(6)
O3D O 0.26315(11) -0.14902(13) 0.28889(6)
O3G O 0.26315(11) 0.14902(13) 0.21111(6)
O4B O 0.07150(13) -0.76064(12) -0.00008(6)
O4D O 0.23936(12) -0.07150(13) 0.24992(6)
O4G O 0.23936(12) 0.07150(13) 0.25008(6)
O5B O -0.10922(11) -0.17329(12) -0.26274(5)
O5A O 0.10922(11) -0.17329(12) 0.26274(5)
O5C O 0.10922(11) 0.17329(12) 0.23726(5)
O6B O -0.09326(10) -0.06920(12) -0.25704(5)
O6A O 0.09326(10) -0.06920(12) 0.25704(5)
O6C O 0.09326(10) 0.06920(12) 0.24296(5)
O7B O 0.16226(14) 0.22431(11) 0.17057(6)
N1B N 0.1297(4) 0.3084(4) 0.1312(2)
C1B C 0.15612(15) 0.01444(18) 0.17218(7)
C2B C 0.14420(15) -0.02579(18) 0.14040(7)
C3B C 0.14981(18) -0.0924(2) 0.14118(8)
H1B H 0.1619 -0.1134 0.1614
C4B C 0.13795(18) -0.13015(17) 0.11265(9)
H2B H 0.1422 -0.1763 0.1133
C5B C 0.11923(17) -0.0974(2) 0.08249(9)
C6B C 0.11407(17) -0.0296(2) 0.08192(8)
H3B H 0.1024 -0.0082 0.0618
C7B C 0.12591(15) 0.00774(17) 0.11093(8)
H4B H 0.1217 0.0539 0.1107
C8B C 0.10723(19) -0.13635(18) 0.05212(10)
C9B C 0.09925(19) -0.1685(2) 0.02792(10)
C10B C 0.08904(18) -0.2107(2) -0.00092(10)
C11B C 0.09400(18) -0.2784(2) 0.00244(9)
H5B H 0.1043 -0.2963 0.0237
C12B C 0.0843(2) -0.3204(2) -0.02445(11)
C13B C 0.07166(18) -0.29220(19) -0.05730(9)
H6B H 0.0659 -0.3195 -0.0763
C14B C 0.06817(18) -0.2243(2) -0.06033(9)
C15B C 0.07736(18) -0.18149(18) -0.03263(10)
H7B H 0.0758 -0.1354 -0.0352
C16B C 0.0906(3) -0.3848(3) -0.02107(11)
C17B C 0.0925(2) -0.4440(3) -0.01690(10)
C18B C 0.1010(3) -0.5167(2) -0.00869(12)
C19B C 0.1371(2) -0.5375(2) 0.01802(11)
H8B H 0.1598 -0.5068 0.0315
C20B C 0.1403(2) -0.6029(2) 0.02537(9)
H9B H 0.1656 -0.6169 0.0439
C21B C 0.10756(18) -0.6490(2) 0.00626(10)
C22B C 0.07170(19) -0.6283(2) -0.02198(10)
H10B H 0.0516 -0.6598 -0.0360
C23B C 0.0659(2) -0.5652(3) -0.02902(10)
H11B H 0.0392 -0.5514 -0.0471
C24B C 0.1105(2) -0.7223(2) 0.01641(10)
C25B C 0.0518(2) -0.19707(17) -0.09345(10)
C26B C 0.03613(18) -0.18147(16) -0.12054(10)
C27B C 0.01127(18) -0.1654(2) -0.15428(8)
C28B C -0.0176(2) -0.21630(18) -0.17163(10)
H12B H -0.0175 -0.2592 -0.1626
C29B C -0.04664(19) -0.2042(2) -0.20201(10)
H13B H -0.0646 -0.2396 -0.2143
C30B C -0.05026(17) -0.1426(2) -0.21496(8)
C31B C -0.01694(15) -0.09076(17) -0.19755(9)
H14B H -0.0152 -0.0484 -0.2071
C32B C 0.01224(17) -0.1021(2) -0.16725(9)
H15B H 0.0327 -0.0676 -0.1553
C33B C -0.08670(17) -0.1262(2) -0.24735(9)
C34B C 0.1205(5) 0.2529(5) 0.1532(2)
H16B H 0.0773 0.2363 0.1546
C35B C 0.2018(7) 0.3281(8) 0.1304(4)
C36B C 0.0703(5) 0.3144(5) 0.1083(2)
loop_
_geom_bond_atom_site_label_1
_geom_bond_atom_site_label_2
_geom_bond_site_symmetry_1
_geom_bond_site_symmetry_2
Zn1 O1 1_555 1_555
Zn2 O2 1_555 1_555
O1 C1 1_555 1_555
O2 C1 1_555 1_555
O3 C24 1_555 1_555
O4 C24 1_555 1_555
O5 C33 1_555 1_555
O6 C33 1_555 1_555
O7 Zn2 1_555 1_555
N1 C34 1_555 1_555
C1 C2 1_555 1_555
C2 C3 1_555 1_555
C3 H1 1_555 1_555
C4 C3 1_555 1_555
H2 C4 1_555 1_555
C5 C4 1_555 1_555
C6 C5 1_555 1_555
H3 C6 1_555 1_555
C7 C2 1_555 1_555
H4 C7 1_555 1_555
C8 C5 1_555 1_555
C9 C8 1_555 1_555
C10 C9 1_555 1_555
C11 C10 1_555 1_555
H5 C11 1_555 1_555
C12 C11 1_555 1_555
C13 C12 1_555 1_555
H6 C13 1_555 1_555
C14 C13 1_555 1_555
C15 C10 1_555 1_555
H7 C15 1_555 1_555
C16 C12 1_555 1_555
C17 C16 1_555 1_555
C18 C17 1_555 1_555
C19 C18 1_555 1_555
H8 C19 1_555 1_555
C20 C19 1_555 1_555
H9 C20 1_555 1_555
C21 C20 1_555 1_555
C22 C21 1_555 1_555
H10 C22 1_555 1_555
C23 C18 1_555 1_555
H11 C23 1_555 1_555
C24 C21 1_555 1_555
C25 C14 1_555 1_555
C26 C25 1_555 1_555
C27 C26 1_555 1_555
C28 C27 1_555 1_555
H12 C28 1_555 1_555
C29 C28 1_555 1_555
H13 C29 1_555 1_555
C30 C29 1_555 1_555
C31 C30 1_555 1_555
H14 C31 1_555 1_555
C32 C27 1_555 1_555
H15 C32 1_555 1_555
C33 C30 1_555 1_555
C34 O7 1_555 1_555
H16 C34 1_555 1_555
C35 N1 1_555 1_555
C36 N1 1_555 1_555
Zn1A O6B 1_555 1_555
Zn1A_2 O6 1_555 1_555
Zn1D O4 1_555 1_555
Zn1E O4B 1_555 1_555
Zn2B O2B 1_555 1_555
Zn2A O5 1_555 1_555
Zn2C O5B 1_555 1_555
Zn2D O3 1_555 1_555
Zn2G O3B 1_555 1_555
O1B Zn1 1_555 1_555
O2B C1B 1_555 1_555
O3B C24B 1_555 1_555
O3D Zn2 1_555 1_555
O3G Zn2B 1_555 1_555
O4B C24B 1_555 1_555
O4D Zn1 1_555 1_555
O4G Zn1 1_555 1_555
O5B C33B 1_555 1_555
O5A Zn2 1_555 1_555
O5C Zn2B 1_555 1_555
O6B C33B 1_555 1_555
O6A Zn1 1_555 1_555
O6C Zn1 1_555 1_555
O7B Zn2B 1_555 1_555
N1B C34B 1_555 1_555
C1B O1B 1_555 1_555
C2B C1B 1_555 1_555
C3B C2B 1_555 1_555
H1B C3B 1_555 1_555
C4B C3B 1_555 1_555
H2B C4B 1_555 1_555
C5B C4B 1_555 1_555
C6B C5B 1_555 1_555
H3B C6B 1_555 1_555
C7B C2B 1_555 1_555
H4B C7B 1_555 1_555
C8B C5B 1_555 1_555
C9B C8B 1_555 1_555
C10B C9B 1_555 1_555
C11B C10B 1_555 1_555
H5B C11B 1_555 1_555
C12B C11B 1_555 1_555
C13B C12B 1_555 1_555
H6B C13B 1_555 1_555
C14B C13B 1_555 1_555
C15B C10B 1_555 1_555
H7B C15B 1_555 1_555
C16B C12B 1_555 1_555
C17B C16B 1_555 1_555
C18B C17B 1_555 1_555
C19B C18B 1_555 1_555
H8B C19B 1_555 1_555
C20B C19B 1_555 1_555
H9B C20B 1_555 1_555
C21B C20B 1_555 1_555
C22B C21B 1_555 1_555
H10B C22B 1_555 1_555
C23B C18B 1_555 1_555
H11B C23B 1_555 1_555
C24B C21B 1_555 1_555
C25B C14B 1_555 1_555
C26B C25B 1_555 1_555
C27B C26B 1_555 1_555
C28B C27B 1_555 1_555
H12B C28B 1_555 1_555
C29B C28B 1_555 1_555
H13B C29B 1_555 1_555
C30B C29B 1_555 1_555
C31B C30B 1_555 1_555
H14B C31B 1_555 1_555
C32B C27B 1_555 1_555
H15B C32B 1_555 1_555
C33B C30B 1_555 1_555
C34B O7B 1_555 1_555
H16B C34B 1_555 1_555
C35B N1B 1_555 1_555
C36B N1B 1_555 1_555
C6 C7 1_555 1_555
C14 C15 1_555 1_555
C22 C23 1_555 1_555
C31 C32 1_555 1_555
C6B C7B 1_555 1_555
C14B C15B 1_555 1_555
C22B C23B 1_555 1_555
C31B C32B 1_555 1_555

#END
