
#######################################################################
#
#                 Cambridge Crystallographic Data Centre
#                                CCDC 
#
#######################################################################
#
# If this CIF has been generated from an entry in the Cambridge 
# Structural Database, then it will include bibliographic, chemical, 
# crystal, experimental, refinement or atomic coordinate data resulting 
# from the CCDC's data processing and validation procedures.
#
#######################################################################

data_KEFBOO
_chemical_formula_moiety         '(C18 H10 O10 Zn2)n'
_symmetry_cell_setting           rhombohedral
_symmetry_space_group_name_H-M   'R -3 m'
_symmetry_Int_Tables_number      166
_space_group_name_Hall           '-R 3 2"'
loop_
_symmetry_equiv_pos_site_id
_symmetry_equiv_pos_as_xyz
1 x,y,z
2 -y,x-y,z
3 -x+y,-x,z
4 y,x,-z
5 x-y,-y,-z
6 -x,-x+y,-z
7 2/3+x,1/3+y,1/3+z
8 2/3-y,1/3+x-y,1/3+z
9 2/3-x+y,1/3-x,1/3+z
10 2/3+y,1/3+x,1/3-z
11 2/3+x-y,1/3-y,1/3-z
12 2/3-x,1/3-x+y,1/3-z
13 1/3+x,2/3+y,2/3+z
14 1/3-y,2/3+x-y,2/3+z
15 1/3-x+y,2/3-x,2/3+z
16 1/3+y,2/3+x,2/3-z
17 1/3+x-y,2/3-y,2/3-z
18 1/3-x,2/3-x+y,2/3-z
19 -x,-y,-z
20 y,-x+y,-z
21 x-y,x,-z
22 -y,-x,z
23 -x+y,y,z
24 x,x-y,z
25 1/3-x,2/3-y,2/3-z
26 1/3+y,2/3-x+y,2/3-z
27 1/3+x-y,2/3+x,2/3-z
28 1/3-y,2/3-x,2/3+z
29 1/3-x+y,2/3+y,2/3+z
30 1/3+x,2/3+x-y,2/3+z
31 2/3-x,1/3-y,1/3-z
32 2/3+y,1/3-x+y,1/3-z
33 2/3+x-y,1/3+x,1/3-z
34 2/3-y,1/3-x,1/3+z
35 2/3-x+y,1/3+y,1/3+z
36 2/3+x,1/3+x-y,1/3+z
_cell_length_a                   23.8339(9)
_cell_length_b                   23.8339(9)
_cell_length_c                   20.2720(17)
_cell_angle_alpha                90
_cell_angle_beta                 90
_cell_angle_gamma                120
_cell_volume                     9972.81
loop_
_atom_site_label
_atom_site_type_symbol
_atom_site_fract_x
_atom_site_fract_y
_atom_site_fract_z
_atom_site_U_iso_or_equiv
_atom_site_thermal_displace_type
C1 C 0.36168(11) 0.98383(11) 0.37146(14) 0.0506 Uani
C2 C 0.30443(11) 0.92478(12) 0.37159(13) 0.0555 Uani
H1 H 0.3002 0.8899 0.3961 0.0670 Uiso
C3 C 0.25310(16) 0.91977(16) 0.3333 0.0570 Uani
C4 C 0.36838(14) 1.03505(14) 0.3333 0.0430 Uani
H2 H 0.4074 1.0741 0.3333 0.0510 Uiso
C5 C 0.41753(11) 0.99153(12) 0.41333(15) 0.0528 Uani
C6 C 0.19069(14) 0.85736(14) 0.3333 0.0584 Uani
O1 O 0.41091(8) 0.94230(8) 0.44258(9) 0.0544 Uani
O2 O 0.46399(8) 1.04741(7) 0.41904(9) 0.0517 Uani
O3 O 0.41664(6) 0.83328(11) 0.51738(14) 0.0605 Uani
Zn1 Zn 0.464516(9) 0.929032(18) 0.51250(2) 0.0392 Uani
C1O C 0.31716(11) 1.02835(11) 0.29521(14) 0.0506 Uani
C1U C 0.01617(11) 0.63832(11) 0.37146(14) 0.0506 Uani
C1X C -0.02835(11) 0.68284(11) 0.29521(14) 0.0506 Uani
C2O C 0.25811(12) 0.97110(11) 0.29508(13) 0.0555 Uani
C2U C 0.07522(12) 0.69557(11) 0.37159(13) 0.0555 Uani
C2X C 0.02890(11) 0.74189(12) 0.29508(13) 0.0555 Uani
H1O H 0.2232 0.9669 0.2706 0.0670 Uiso
H1X H 0.0331 0.7768 0.2706 0.0670 Uiso
H1U H 0.1101 0.6998 0.3961 0.0670 Uiso
C3U C 0.08023(16) 0.74690(16) 0.3333 0.0570 Uani
C4U C -0.03505(14) 0.63162(14) 0.3333 0.0430 Uani
H2U H -0.0741 0.5926 0.3333 0.0510 Uiso
C5O C 0.32486(12) 1.08420(11) 0.25334(15) 0.0528 Uani
C5X C -0.08420(11) 0.67514(12) 0.25334(15) 0.0528 Uani
C5U C 0.00847(12) 0.58247(11) 0.41333(15) 0.0528 Uani
C6U C 0.14264(14) 0.80931(14) 0.3333 0.0584 Uani
O1O O 0.27563(8) 1.07758(8) 0.22409(9) 0.0544 Uani
O1X O -0.07758(8) 0.72437(8) 0.22409(9) 0.0544 Uani
O1U O 0.05770(8) 0.58909(8) 0.44258(9) 0.0544 Uani
O1V O 0.53139(11) 0.94230(8) 0.44258(9) 0.0544 Uani
O1Y O 0.27563(8) 1.19806(11) 0.22409(9) 0.0544 Uani
O2O O 0.38074(7) 1.13066(8) 0.24763(9) 0.0517 Uani
O2X O -0.13066(8) 0.61926(7) 0.24763(9) 0.0517 Uani
O2U O -0.04741(7) 0.53601(8) 0.41904(9) 0.0517 Uani
O2D O 0.41658(11) 0.95259(7) 0.58096(9) 0.0517 Uani
O2R O 0.53601(8) 0.95259(7) 0.58096(9) 0.0517 Uani
O2M O 0.28592(7) 1.08325(11) 0.08571(9) 0.0517 Uani
O2AA O 0.28592(7) 1.20268(8) 0.08571(9) 0.0517 Uani
O3O O 0.16661(11) 1.08331(6) 0.14929(14) 0.0605 Uani
Zn1O Zn 0.262365(18) 1.131183(9) 0.15417(2) 0.0392 Uani
Zn1D Zn 0.535484(20) 1.070968(18) 0.48750(2) 0.0392 Uani
Zn1M Zn 0.404301(18) 1.202151(20) 0.17917(2) 0.0392 Uani
Zn1P Zn -0.131183(20) 0.737635(18) 0.15417(2) 0.0392 Uani
Zn1L Zn -0.202151(9) 0.595699(18) 0.17917(2) 0.0392 Uani
Zn1A Zn 0.070968(18) 0.535484(20) 0.51250(2) 0.0392 Uani
Zn1C Zn -0.070968(18) 0.464516(9) 0.48750(2) 0.0392 Uani
loop_
_atom_site_aniso_label
_atom_site_aniso_U_11
_atom_site_aniso_U_22
_atom_site_aniso_U_33
_atom_site_aniso_U_23
_atom_site_aniso_U_13
_atom_site_aniso_U_12
C1 0.0467(10) 0.0484(11) 0.0604(16) 0.0150(11) 0.0159(11) 0.0265(8)
C2 0.0572(11) 0.0527(11) 0.0619(16) 0.0176(11) 0.0102(12) 0.0314(8)
C3 0.0484(10) 0.0484(10) 0.066(3) 0.0047(10) -0.0047(10) 0.0181(13)
C4 0.0324(7) 0.0324(7) 0.061(2) 0.0002(8) -0.0002(8) 0.0139(10)
C5 0.0497(11) 0.0522(10) 0.0631(17) 0.0160(11) 0.0084(11) 0.0305(8)
C6 0.0425(9) 0.0425(9) 0.088(3) 0.0034(10) -0.0034(10) 0.0195(11)
O1 0.0560(7) 0.0501(7) 0.0651(12) 0.0034(8) 0.0091(8) 0.0325(5)
O2 0.0417(7) 0.0542(8) 0.0568(11) -0.0014(8) 0.0005(7) 0.0221(6)
O3 0.0575(12) 0.0393(13) 0.0785(17) -0.0298(12) -0.0149(6) 0.0196(6)
Zn1 0.03481(15) 0.03211(19) 0.0497(2) -0.01113(16) -0.00556(8) 0.01605(10)
C1O 0.0484 0.0467 0.0604 -0.0159 -0.015 0.0265
C1U 0.0484 0.0467 0.0604 -0.0159 -0.015 0.0265
C1X 0.0467 0.0484 0.0604 0.015 0.0159 0.0265
C2O 0.0527 0.0572 0.0619 -0.0102 -0.0176 0.0314
C2U 0.0527 0.0572 0.0619 -0.0102 -0.0176 0.0314
C2X 0.0572 0.0527 0.0619 0.0176 0.0102 0.0314
C3U 0.0484 0.0484 0.066 0.0047 -0.0047 0.0181
C4U 0.0324 0.0324 0.061 0.0002 -0.0002 0.0139
C5O 0.0522 0.0497 0.0631 -0.0084 -0.016 0.0305
C5X 0.0497 0.0522 0.0631 0.016 0.0084 0.0305
C5U 0.0522 0.0497 0.0631 -0.0084 -0.016 0.0305
C6U 0.0425 0.0425 0.088 0.0034 -0.0034 0.0195
O1O 0.0501 0.056 0.0651 -0.0091 -0.0034 0.0325
O1X 0.056 0.0501 0.0651 0.0034 0.0091 0.0325
O1U 0.0501 0.056 0.0651 -0.0091 -0.0034 0.0325
O1V 0.0411 0.0501 0.0651 0.0034 -0.0057 0.0176
O1Y 0.0501 0.0411 0.0651 0.0057 -0.0034 0.0176
O2O 0.0542 0.0417 0.0568 -0.0005 0.0014 0.0221
O2X 0.0417 0.0542 0.0568 -0.0014 0.0005 0.0221
O2U 0.0542 0.0417 0.0568 -0.0005 0.0014 0.0221
O2D 0.0517 0.0542 0.0568 -0.0014 -0.0019 0.0321
O2R 0.0417 0.0542 0.0568 -0.0014 0.0005 0.0221
O2M 0.0542 0.0517 0.0568 0.0019 0.0014 0.0321
O2AA 0.0542 0.0417 0.0568 -0.0005 0.0014 0.0221
O3O 0.0393 0.0575 0.0785 0.0149 0.0298 0.0196
Zn1O 0.03211 0.03481 0.0497 0.00556 0.01113 0.01605
Zn1D 0.03482 0.03211 0.0497 -0.01113 -0.00557 0.01606
Zn1M 0.03211 0.03482 0.0497 0.00557 0.01113 0.01606
Zn1P 0.03482 0.03211 0.0497 -0.01113 -0.00557 0.01606
Zn1L 0.03481 0.03211 0.0497 -0.01113 -0.00556 0.01605
Zn1A 0.03211 0.03482 0.0497 0.00557 0.01113 0.01606
Zn1C 0.03211 0.03481 0.0497 0.00556 0.01113 0.01605
loop_
_geom_bond_atom_site_label_1
_geom_bond_atom_site_label_2
_geom_bond_site_symmetry_1
_geom_bond_site_symmetry_2
C1 C2 1_555 1_555
C2 H1 1_555 1_555
C3 C2 1_555 1_555
C4 C1 1_555 1_555
H2 C4 1_555 1_555
C5 C1 1_555 1_555
C6 C3 1_555 1_555
O1 C5 1_555 1_555
O2 C5 1_555 1_555
O3 Zn1 1_555 1_555
Zn1 O1 1_555 1_555
C1O C4 1_555 1_555
C1U C2U 1_555 1_555
C1X C2X 1_555 1_555
C2O C3 1_555 1_555
C2U H1U 1_555 1_555
C2X H1X 1_555 1_555
H1O C2O 1_555 1_555
C3U C2U 1_555 1_555
C4U C1U 1_555 1_555
H2U C4U 1_555 1_555
C5O C1O 1_555 1_555
C5X C1X 1_555 1_555
C5U C1U 1_555 1_555
C6U C6 1_555 1_555
O1O C5O 1_555 1_555
O1X C5X 1_555 1_555
O1U C5U 1_555 1_555
O1V Zn1 1_555 1_555
O1Y Zn1O 1_555 1_555
O2O C5O 1_555 1_555
O2X C5X 1_555 1_555
O2U C5U 1_555 1_555
O2D Zn1 1_555 1_555
O2R Zn1 1_555 1_555
O2M Zn1O 1_555 1_555
O2AA Zn1O 1_555 1_555
O3O Zn1O 1_555 1_555
Zn1O O1O 1_555 1_555
Zn1D O2 1_555 1_555
Zn1M O2O 1_555 1_555
Zn1P O1X 1_555 1_555
Zn1L O2X 1_555 1_555
Zn1A O1U 1_555 1_555
Zn1C O2U 1_555 1_555
C1O C2O 1_555 1_555
C1X C4U 1_555 1_555
C2X C3U 1_555 1_555
C3U C6U 1_555 1_555

#END
