
#######################################################################
#
#                 Cambridge Crystallographic Data Centre
#                                CCDC 
#
#######################################################################
#
# If this CIF has been generated from an entry in the Cambridge 
# Structural Database, then it will include bibliographic, chemical, 
# crystal, experimental, refinement or atomic coordinate data resulting 
# from the CCDC's data processing and validation procedures.
#
#######################################################################

data_EPEWEC
_chemical_formula_moiety         '(C23 H20 Co2 N6 O11)n'
_symmetry_cell_setting           tetragonal
_symmetry_space_group_name_H-M   'P 43 2 2'
_symmetry_Int_Tables_number      95
_space_group_name_Hall           'P 4cw 2c'
loop_
_symmetry_equiv_pos_site_id
_symmetry_equiv_pos_as_xyz
1 x,y,z
2 -x,-y,1/2+z
3 -y,x,3/4+z
4 y,-x,1/4+z
5 -x,y,-z
6 x,-y,1/2-z
7 y,x,1/4-z
8 -y,-x,3/4-z
_cell_length_a                   11.3108(2)
_cell_length_b                   11.3108(2)
_cell_length_c                   25.2380(12)
_cell_angle_alpha                90
_cell_angle_beta                 90
_cell_angle_gamma                90
_cell_volume                     3228.8
loop_
_atom_site_label
_atom_site_type_symbol
_atom_site_fract_x
_atom_site_fract_y
_atom_site_fract_z
_atom_site_U_iso_or_equiv
_atom_site_thermal_displace_type
C12 C 0.839(3) -0.001(3) -0.0906(14) 0.1980 Uiso
O6 O 0.762(3) 0.006(2) -0.1429(11) 0.2890 Uiso
N3 N 0.758(3) -0.026(3) -0.0448(11) 0.2420 Uiso
N4 N 0.981(3) 0.001(3) -0.0757(12) 0.3940 Uiso
Co1 Co 0.5000 0.70322(16) 0.0000 0.0135 Uiso
Co2 Co 0.59629(12) 0.59629(12) 0.1250 0.0138 Uiso
O1 O 0.5901(5) 1.4147(5) 0.1251(2) 0.0237 Uiso
O2 O 0.5954(6) 0.7760(6) 0.1253(3) 0.0232 Uiso
C1 C 0.6627(8) 0.4912(9) 0.0155(4) 0.0190 Uiso
C2 C 0.6155(9) 0.9797(9) 0.1056(4) 0.0180 Uiso
C3 C 0.6383(8) 1.2148(8) 0.1365(4) 0.0130 Uiso
O3 O 0.5875(6) 0.8329(6) 0.0403(2) 0.0247 Uiso
O4 O 0.5981(5) 0.5658(5) 0.0391(2) 0.0186 Uiso
N1 N 0.6295(8) 0.4266(8) -0.0259(3) 0.0300 Uiso
H1 H 0.5590 0.4242 -0.0387 0.0360 Uiso
O5 O 0.7004(6) 1.3639(6) 0.1952(3) 0.0228 Uiso
C4 C 0.6539(10) 1.0079(9) 0.1566(4) 0.0250 Uiso
H2 H 0.6701 0.9479 0.1808 0.0300 Uiso
C5 C 0.5999(10) 1.1848(9) 0.0858(4) 0.0280 Uiso
H3 H 0.5802 1.2439 0.0617 0.0340 Uiso
C6 C 0.6449(9) 1.3403(9) 0.1537(4) 0.0220 Uiso
C7 C 0.5912(9) 1.0695(9) 0.0714(4) 0.0260 Uiso
H4 H 0.5679 1.0513 0.0371 0.0310 Uiso
C8 C 0.6675(9) 1.1227(9) 0.1710(4) 0.0240 Uiso
H5 H 0.6969 1.1404 0.2045 0.0290 Uiso
C9 C 0.8187(11) 0.3674(11) -0.0028(5) 0.0520 Uiso
H6 H 0.8218 0.2943 0.0173 0.0620 Uiso
H7 H 0.8970 0.3854 -0.0163 0.0620 Uiso
C10 C 0.5977(9) 0.8529(9) 0.0895(4) 0.0200 Uiso
N2 N 0.7725(8) 0.4641(8) 0.0291(3) 0.0300 Uiso
H8 H 0.8115 0.4992 0.0538 0.0360 Uiso
C11 C 0.7302(10) 0.3602(11) -0.0465(5) 0.0400 Uiso
H9 H 0.7606 0.3959 -0.0787 0.0480 Uiso
H10 H 0.7087 0.2787 -0.0538 0.0480 Uiso
O1B O 0.5853(5) 0.5901(5) -0.1249(2) 0.0237 Uiso
O2B O 1.2240(6) 0.5954(6) -0.1247(3) 0.0232 Uiso
C2B C 1.0203(9) 0.6155(9) -0.1444(4) 0.0180 Uiso
C3B C 0.7852(8) 0.6383(8) -0.1135(4) 0.0130 Uiso
O3B O 1.1671(6) 0.5875(6) -0.2097(2) 0.0247 Uiso
O5B O 0.6361(6) 0.7004(6) -0.0548(3) 0.0228 Uiso
C4B C 0.9921(9) 0.6539(10) -0.0934(4) 0.0250 Uiso
H2B H 1.0521 0.6701 -0.0692 0.0300 Uiso
C5B C 0.8152(9) 0.5999(10) -0.1642(4) 0.0280 Uiso
H3B H 0.7561 0.5802 -0.1883 0.0340 Uiso
C6B C 0.6597(9) 0.6449(9) -0.0963(4) 0.0220 Uiso
C7B C 0.9305(9) 0.5912(9) -0.1786(4) 0.0260 Uiso
H4B H 0.9487 0.5679 -0.2129 0.0310 Uiso
C8B C 0.8773(9) 0.6675(9) -0.0790(4) 0.0240 Uiso
H5B H 0.8596 0.6969 -0.0455 0.0290 Uiso
C10B C 1.1471(9) 0.5977(9) -0.1605(4) 0.0200 Uiso
C1D C 0.3373(8) 0.4912(9) -0.0155(4) 0.0190 Uiso
O4D O 0.4019(5) 0.5658(5) -0.0391(2) 0.0186 Uiso
N1D N 0.3705(8) 0.4266(8) 0.0259(3) 0.0300 Uiso
H1D H 0.4410 0.4242 0.0387 0.0360 Uiso
C9D C 0.1813(11) 0.3674(11) 0.0028(5) 0.0520 Uiso
H6D H 0.1782 0.2943 -0.0173 0.0620 Uiso
H7D H 0.1030 0.3854 0.0163 0.0620 Uiso
N2D N 0.2275(8) 0.4641(8) -0.0291(3) 0.0300 Uiso
H8D H 0.1885 0.4992 -0.0538 0.0360 Uiso
C11D C 0.2698(10) 0.3602(11) 0.0465(5) 0.0400 Uiso
H9D H 0.2394 0.3959 0.0787 0.0480 Uiso
H10D H 0.2913 0.2787 0.0538 0.0480 Uiso
O3D O 0.4125(6) 0.8329(6) -0.0403(2) 0.0247 Uiso
O5F O 0.3639(6) 0.7004(6) 0.0548(3) 0.0228 Uiso
O1_2 O 0.5901(5) 0.4147(5) 0.1251(2) 0.0237 Uiso
O1F O 0.4147(5) 0.5901(5) 0.1249(2) 0.0237 Uiso
O2F O 0.7760(6) 0.5954(6) 0.1247(3) 0.0232 Uiso
O4F O 0.5658(5) 0.5981(5) 0.2109(2) 0.0186 Uiso
Co2_2 Co 0.59629(12) 1.59629(12) 0.1250 0.0138 Uiso
Co1C Co 0.70322(16) 1.5000 0.2500 0.0135 Uiso
Co2B Co 0.40371(12) 0.59629(12) -0.1250 0.0138 Uiso
Co2B_2 Co 1.40371(12) 0.59629(12) -0.1250 0.0138 Uiso
Co1B Co 1.29678(16) 0.5000 -0.2500 0.0135 Uiso
loop_
_geom_bond_atom_site_label_1
_geom_bond_atom_site_label_2
_geom_bond_site_symmetry_1
_geom_bond_site_symmetry_2
Co1 O3 1_555 1_555
Co2 O2 1_555 1_555
O1 C6 1_555 1_555
O2 C10 1_555 1_555
C1 O4 1_555 1_555
C2 C4 1_555 1_555
C3 C5 1_555 1_555
O3 C10 1_555 1_555
O4 Co1 1_555 1_555
N1 C1 1_555 1_555
H1 N1 1_555 1_555
O5 C6 1_555 1_555
C4 H2 1_555 1_555
C5 H3 1_555 1_555
C6 C3 1_555 1_555
C7 C2 1_555 1_555
H4 C7 1_555 1_555
C8 C3 1_555 1_555
H5 C8 1_555 1_555
C9 H6 1_555 1_555
H7 C9 1_555 1_555
C10 C2 1_555 1_555
N2 C1 1_555 1_555
H8 N2 1_555 1_555
C11 N1 1_555 1_555
H9 C11 1_555 1_555
H10 C11 1_555 1_555
C12 O6 1_555 1_555
N3 C12 1_555 1_555
N4 C12 1_555 1_555
O1B C6B 1_555 1_555
O2B C10B 1_555 1_555
C2B C4B 1_555 1_555
C3B C5B 1_555 1_555
O3B C10B 1_555 1_555
O5B Co1 1_555 1_555
C4B H2B 1_555 1_555
C5B H3B 1_555 1_555
C6B C3B 1_555 1_555
C7B C2B 1_555 1_555
H4B C7B 1_555 1_555
C8B C3B 1_555 1_555
H5B C8B 1_555 1_555
C10B C2B 1_555 1_555
C1D O4D 1_555 1_555
O4D Co1 1_555 1_555
N1D C1D 1_555 1_555
H1D N1D 1_555 1_555
C9D H6D 1_555 1_555
H7D C9D 1_555 1_555
N2D C1D 1_555 1_555
H8D N2D 1_555 1_555
C11D N1D 1_555 1_555
H9D C11D 1_555 1_555
H10D C11D 1_555 1_555
O3D Co1 1_555 1_555
O5F Co1 1_555 1_555
O1_2 Co2 1_555 1_555
O1F Co2 1_555 1_555
O2F Co2 1_555 1_555
O4F Co2 1_555 1_555
Co2_2 O1 1_555 1_555
Co1C O5 1_555 1_555
Co2B O1B 1_555 1_555
Co2B_2 O2B 1_555 1_555
Co1B O3B 1_555 1_555
Co2 O4 1_555 1_555
C4 C8 1_555 1_555
C5 C7 1_555 1_555
C9 C11 1_555 1_555
C9 N2 1_555 1_555
O5B C6B 1_555 1_555
C4B C8B 1_555 1_555
C5B C7B 1_555 1_555
O4D Co2B 1_555 1_555
C9D C11D 1_555 1_555
C9D N2D 1_555 1_555

#END
