
#######################################################################
#
#                 Cambridge Crystallographic Data Centre
#                                CCDC 
#
#######################################################################
#
# If this CIF has been generated from an entry in the Cambridge 
# Structural Database, then it will include bibliographic, chemical, 
# crystal, experimental, refinement or atomic coordinate data resulting 
# from the CCDC's data processing and validation procedures.
#
#######################################################################

data_HEKTAU
_chemical_formula_moiety         '(C28 H30 Cd1 N4 O7)n'
_symmetry_cell_setting           monoclinic
_symmetry_space_group_name_H-M   'C 2/c'
_symmetry_Int_Tables_number      15
_space_group_name_Hall           '-C 2yc'
loop_
_symmetry_equiv_pos_site_id
_symmetry_equiv_pos_as_xyz
1 x,y,z
2 -x,y,1/2-z
3 1/2+x,1/2+y,z
4 1/2-x,1/2+y,1/2-z
5 -x,-y,-z
6 x,-y,1/2+z
7 1/2-x,1/2-y,-z
8 1/2+x,1/2-y,1/2+z
_cell_length_a                   28.978(6)
_cell_length_b                   11.392(2)
_cell_length_c                   21.953(4)
_cell_angle_alpha                90
_cell_angle_beta                 130.38(3)
_cell_angle_gamma                90
_cell_volume                     5520.56
loop_
_atom_site_label
_atom_site_type_symbol
_atom_site_fract_x
_atom_site_fract_y
_atom_site_fract_z
_atom_site_U_iso_or_equiv
_atom_site_thermal_displace_type
C1 C 0.1539(4) 0.1352(7) -0.4844(4) 0.0326 Uani
C2 C 0.1268(3) 0.2137(6) -0.4592(4) 0.0274 Uani
C3 C 0.1625(4) 0.2985(7) -0.4022(5) 0.0459 Uani
H1 H 0.2038 0.3059 -0.3787 0.0550 Uiso
C4 C 0.1382(4) 0.3742(7) -0.3787(5) 0.0447 Uani
H2 H 0.1638 0.4307 -0.3380 0.0540 Uiso
C5 C 0.0781(3) 0.3680(6) -0.4135(4) 0.0268 Uani
C6 C 0.0418(4) 0.2826(7) -0.4727(5) 0.0412 Uani
H3 H 0.0000 0.2763 -0.4987 0.0500 Uiso
C7 C 0.0680(4) 0.2068(7) -0.4931(5) 0.0416 Uani
H4 H 0.0434 0.1481 -0.5324 0.0490 Uiso
C8 C 0.0514(3) 0.4516(7) -0.3905(4) 0.0287 Uani
C9 C 0.0832(3) 0.5450(6) -0.3395(4) 0.0253 Uani
H5 H 0.1236 0.5597 -0.3181 0.0310 Uiso
C10 C 0.0562(3) 0.6179(6) -0.3195(4) 0.0275 Uani
C11 C 0.0888(3) 0.7188(6) -0.2636(4) 0.0275 Uani
C12 C 0.1510(3) 0.7265(7) -0.2058(4) 0.0313 Uani
H6 H 0.1760 0.6686 -0.2029 0.0380 Uiso
C13 C 0.1771(4) 0.8190(7) -0.1518(5) 0.0379 Uani
H7 H 0.2200 0.8233 -0.1131 0.0450 Uiso
C14 C 0.0843(4) 0.8986(7) -0.2098(5) 0.0397 Uani
H8 H 0.0608 0.9603 -0.2128 0.0470 Uiso
C15 C 0.0545(4) 0.8088(7) -0.2657(4) 0.0340 Uani
H9 H 0.0115 0.8079 -0.3048 0.0400 Uiso
C16 C -0.0069(3) 0.4355(6) -0.4192(4) 0.0290 Uani
H10 H -0.0299 0.3706 -0.4532 0.0350 Uiso
C17 C -0.0325(3) 0.5117(6) -0.3994(4) 0.0281 Uani
C18 C -0.0963(3) 0.5018(6) -0.4330(4) 0.0263 Uani
C19 C -0.1233(4) 0.5879(7) -0.4217(5) 0.0364 Uani
H11 H -0.1004 0.6544 -0.3897 0.0440 Uiso
C20 C -0.1836(4) 0.5787(7) -0.4567(5) 0.0390 Uani
H12 H -0.2011 0.6408 -0.4487 0.0470 Uiso
C21 C -0.1918(4) 0.4025(6) -0.5111(4) 0.0323 Uani
H13 H -0.2156 0.3363 -0.5423 0.0380 Uiso
C22 C -0.1322(3) 0.4057(7) -0.4793(5) 0.0342 Uani
H14 H -0.1159 0.3433 -0.4889 0.0410 Uiso
C23 C -0.3735(4) 0.2759(7) -0.6503(4) 0.0322 Uani
C24 C -0.4090(4) 0.1810(8) -0.7118(5) 0.0557 Uani
H15 H -0.4436 0.1587 -0.7159 0.0830 Uiso
H16 H -0.3830 0.1125 -0.6960 0.0830 Uiso
H17 H -0.4237 0.2099 -0.7638 0.0830 Uiso
Cd1 Cd -0.31511(3) 0.46552(5) -0.54435(3) 0.0284 Uani
N2 N -0.0012(3) 0.6014(5) -0.3494(3) 0.0300 Uani
N3 N 0.1448(3) 0.9020(5) -0.1517(4) 0.0325 Uani
N4 N -0.2179(3) 0.4882(5) -0.5003(4) 0.0305 Uani
O3 O 0.2041(3) 0.1538(5) -0.4635(3) 0.0389 Uani
O4 O 0.1201(3) 0.0482(5) -0.5298(3) 0.0399 Uani
O5 O -0.3176(3) 0.2853(5) -0.6122(3) 0.0409 Uani
O6 O -0.4005(3) 0.3446(5) -0.6375(3) 0.0417 Uani
O7 O -0.2670(2) 0.3721(4) -0.4232(3) 0.0384 Uani
H29 H -0.2832 0.3510 -0.4053 0.0460 Uiso
H30 H -0.2337 0.3405 -0.3966 0.0460 Uiso
Cd1G Cd 0.18489(3) 1.03448(5) -0.04435(3) 0.0284 Uani
Cd1B Cd 0.18489(3) -0.03448(5) -0.54435(3) 0.0284 Uani
N3G N -0.3552(3) 0.5980(5) -0.6517(4) 0.0325 Uani
O3B O -0.2959(3) 0.6538(5) -0.4635(3) 0.0389 Uani
O4B O -0.3799(3) 0.5482(5) -0.5298(3) 0.0399 Uani
C25 C -0.3665(14) 0.4052(15) -0.3785(9) 0.0648 Uani
H18 H -0.4046 0.4329 -0.4290 0.0980 Uiso
H19 H -0.3748 0.3386 -0.3585 0.0980 Uiso
H20 H -0.3390 0.3805 -0.3875 0.0980 Uiso
C26 C -0.3776(15) 0.554(3) -0.307(2) 0.0953 Uani
H21 H -0.3539 0.6076 -0.2612 0.1350 Uiso
H22 H -0.3954 0.4924 -0.2969 0.1350 Uiso
H23 H -0.4100 0.5981 -0.3551 0.1350 Uiso
N1 N -0.3383(8) 0.5013(13) -0.3190(9) 0.0746 Uani
C27 C -0.2822(8) 0.5367(12) -0.2840(8) 0.0744 Uani
O1 O -0.2592(8) 0.4765(16) -0.3076(10) 0.0561 Uani
C28 C -0.2567(17) 0.6351(16) -0.2245(11) 0.0847 Uani
H24 H -0.2124 0.6341 -0.1892 0.1280 Uiso
H25 H -0.2691 0.6251 -0.1925 0.1280 Uiso
H26 H -0.2720 0.7103 -0.2529 0.1280 Uiso
O2 O -0.4715(4) 0.3719(7) -0.5934(5) 0.1143 Uani
H27 H -0.4554 0.3399 -0.6088 0.1380 Uiso
H28 H -0.4588 0.4394 -0.5808 0.1380 Uiso
loop_
_atom_site_aniso_label
_atom_site_aniso_U_11
_atom_site_aniso_U_22
_atom_site_aniso_U_33
_atom_site_aniso_U_23
_atom_site_aniso_U_13
_atom_site_aniso_U_12
C1 0.031 0.034 0.028 0.007 0.017 0.004
C2 0.022 0.029 0.036 -0.004 0.021 -0.001
C3 0.026 0.045 0.068 -0.021 0.031 -0.004
C4 0.033 0.043 0.06 -0.018 0.031 -0.008
C5 0.027 0.025 0.031 0.005 0.02 0.005
C6 0.026 0.05 0.044 -0.015 0.021 -0.004
C7 0.037 0.039 0.049 -0.012 0.028 0.004
C8 0.025 0.036 0.03 0.005 0.02 0.008
C9 0.02 0.031 0.028 -0.005 0.017 -0.005
C10 0.025 0.027 0.028 0.005 0.016 0.004
C11 0.024 0.035 0.032 -0.003 0.022 -0.005
C12 0.026 0.032 0.041 -0.002 0.024 -0.001
C13 0.029 0.039 0.048 -0.004 0.026 -0.002
C14 0.039 0.033 0.046 -0.006 0.027 0.002
C15 0.02 0.039 0.036 -0.006 0.015 0
C16 0.034 0.027 0.032 -0.004 0.024 -0.003
C17 0.027 0.03 0.033 0.003 0.022 0.003
C18 0.025 0.027 0.031 -0.001 0.02 0
C19 0.036 0.027 0.048 -0.012 0.028 -0.007
C20 0.037 0.039 0.051 -0.007 0.033 0.006
C21 0.031 0.023 0.043 0.001 0.024 0.01
C22 0.028 0.033 0.046 0.001 0.026 0.009
C23 0.038 0.034 0.023 0.003 0.019 0.001
C24 0.05 0.05 0.049 -0.019 0.024 -0.013
Cd1 0.0242 0.027 0.0349 -0.0007 0.0195 0.0021
N2 0.03 0.03 0.032 0.001 0.021 0.004
N3 0.03 0.034 0.038 -0.001 0.024 0.002
N4 0.027 0.023 0.036 -0.002 0.018 -0.001
O3 0.034 0.038 0.057 -0.007 0.035 0.003
O4 0.047 0.035 0.054 -0.011 0.04 -0.003
O5 0.03 0.038 0.045 -0.007 0.02 0.004
O6 0.043 0.036 0.058 -0.003 0.038 -0.002
O7 0.038 0.036 0.043 0.008 0.027 0.009
Cd1G 0.0242 0.027 0.0349 0.0007 0.0195 -0.0021
Cd1B 0.0242 0.027 0.0349 -0.0007 0.0195 0.0021
N3G 0.03 0.034 0.038 0.001 0.024 -0.002
O3B 0.034 0.038 0.057 -0.007 0.035 0.003
O4B 0.047 0.035 0.054 -0.011 0.04 -0.003
C25 0.076 0.07 0.061 0.014 0.05 -0.018
C26 0.11 0.12 0.09 0.02 0.08 0.03
N1 0.074 0.08 0.082 0.028 0.056 0.013
C27 0.057 0.061 0.067 0.043 0.023 0.015
O1 0.027 0.093 0.031 -0.006 0.011 0.036
C28 0.11 0.09 0.05 -0.01 0.05 0.04
O2 0.114 0.115 0.179 -0.066 0.124 -0.058
loop_
_geom_bond_atom_site_label_1
_geom_bond_atom_site_label_2
_geom_bond_site_symmetry_1
_geom_bond_site_symmetry_2
C1 C2 1_555 1_555
C2 C3 1_555 1_555
C3 H1 1_555 1_555
C4 C3 1_555 1_555
H2 C4 1_555 1_555
C5 C4 1_555 1_555
C6 C5 1_555 1_555
H3 C6 1_555 1_555
C7 C2 1_555 1_555
H4 C7 1_555 1_555
C8 C5 1_555 1_555
C9 C8 1_555 1_555
H5 C9 1_555 1_555
C10 C9 1_555 1_555
C11 C10 1_555 1_555
C12 C11 1_555 1_555
H6 C12 1_555 1_555
C13 C12 1_555 1_555
H7 C13 1_555 1_555
C14 H8 1_555 1_555
C15 C11 1_555 1_555
H9 C15 1_555 1_555
C16 C8 1_555 1_555
H10 C16 1_555 1_555
C17 C16 1_555 1_555
C18 C17 1_555 1_555
C19 C18 1_555 1_555
H11 C19 1_555 1_555
C20 C19 1_555 1_555
H12 C20 1_555 1_555
C21 H13 1_555 1_555
C22 C18 1_555 1_555
H14 C22 1_555 1_555
C23 C24 1_555 1_555
C24 H15 1_555 1_555
H16 C24 1_555 1_555
H17 C24 1_555 1_555
Cd1 N4 1_555 1_555
C25 H18 1_555 1_555
H19 C25 1_555 1_555
H20 C25 1_555 1_555
C26 H21 1_555 1_555
H22 C26 1_555 1_555
H23 C26 1_555 1_555
N1 C25 1_555 1_555
C27 N1 1_555 1_555
O1 C27 1_555 1_555
C28 C27 1_555 1_555
H24 C28 1_555 1_555
H25 C28 1_555 1_555
H26 C28 1_555 1_555
O2 H27 1_555 1_555
H28 O2 1_555 1_555
N2 C10 1_555 1_555
N3 C13 1_555 1_555
N4 C20 1_555 1_555
O3 C1 1_555 1_555
O4 C1 1_555 1_555
O5 C23 1_555 1_555
O6 C23 1_555 1_555
O7 Cd1 1_555 1_555
H29 O7 1_555 1_555
H30 O7 1_555 1_555
Cd1G N3 1_555 1_555
Cd1B O3 1_555 1_555
N3G Cd1 1_555 1_555
O3B Cd1 1_555 1_555
O4B Cd1 1_555 1_555
C6 C7 1_555 1_555
C14 C15 1_555 1_555
C14 N3 1_555 1_555
C17 N2 1_555 1_555
C21 C22 1_555 1_555
C21 N4 1_555 1_555
Cd1 O5 1_555 1_555
Cd1 O6 1_555 1_555
C26 N1 1_555 1_555
O4 Cd1B 1_555 1_555

#END
