
#######################################################################
#
#                 Cambridge Crystallographic Data Centre
#                                CCDC 
#
#######################################################################
#
# If this CIF has been generated from an entry in the Cambridge 
# Structural Database, then it will include bibliographic, chemical, 
# crystal, experimental, refinement or atomic coordinate data resulting 
# from the CCDC's data processing and validation procedures.
#
#######################################################################

data_ONAWAC
_chemical_formula_moiety         '(C16 H28 B1 Cu1 F4 N12 O2 1+)n'
_symmetry_cell_setting           orthorhombic
_symmetry_space_group_name_H-M   'F d d d'
_symmetry_Int_Tables_number      70
_space_group_name_Hall           '-F 2uv 2vw'
loop_
_symmetry_equiv_pos_site_id
_symmetry_equiv_pos_as_xyz
1 x,y,z
2 1/4-x,1/4-y,z
3 x,1/4-y,1/4-z
4 1/4-x,y,1/4-z
5 x,1/2+y,1/2+z
6 1/4-x,3/4-y,1/2+z
7 x,3/4-y,3/4-z
8 1/4-x,1/2+y,3/4-z
9 1/2+x,y,1/2+z
10 3/4-x,1/4-y,1/2+z
11 1/2+x,1/4-y,3/4-z
12 3/4-x,y,3/4-z
13 1/2+x,1/2+y,z
14 3/4-x,3/4-y,z
15 1/2+x,3/4-y,1/4-z
16 3/4-x,1/2+y,1/4-z
17 -x,-y,-z
18 3/4+x,3/4+y,-z
19 -x,3/4+y,3/4+z
20 3/4+x,-y,3/4+z
21 -x,1/2-y,1/2-z
22 3/4+x,1/4+y,1/2-z
23 -x,1/4+y,1/4+z
24 3/4+x,1/2-y,1/4+z
25 1/2-x,-y,1/2-z
26 1/4+x,3/4+y,1/2-z
27 1/2-x,3/4+y,1/4+z
28 1/4+x,-y,1/4+z
29 1/2-x,1/2-y,-z
30 1/4+x,1/4+y,-z
31 1/2-x,1/4+y,3/4+z
32 1/4+x,1/2-y,3/4+z
_cell_length_a                   13.052(2)
_cell_length_b                   17.251(2)
_cell_length_c                   25.210(3)
_cell_angle_alpha                90
_cell_angle_beta                 90
_cell_angle_gamma                90
_cell_volume                     5676.28
loop_
_atom_site_label
_atom_site_type_symbol
_atom_site_fract_x
_atom_site_fract_y
_atom_site_fract_z
_atom_site_U_iso_or_equiv
_atom_site_thermal_displace_type
Cu1 Cu 0.6250 0.1250 0.1250 0.0192 Uani
O1 O 0.6250 0.26501(13) 0.1250 0.0350 Uani
H1 H 0.671(2) 0.2875(16) 0.1284(12) 0.0420 Uiso
N1 N 0.51628(11) 0.12758(10) 0.06845(6) 0.0245 Uani
N2 N 0.41876(13) 0.16428(10) 0.00352(7) 0.0287 Uani
C1 C 0.44073(18) 0.07559(14) 0.05873(11) 0.0434 Uani
H2 H 0.4328 0.0290 0.0784 0.0520 Uiso
N3 N 0.37958(16) 0.09534(12) 0.01967(9) 0.0467 Uani
C2 C 0.49994(14) 0.18247(12) 0.03263(7) 0.0251 Uani
H3 H 0.5402 0.2279 0.0285 0.0300 Uiso
C3 C 0.36933(18) 0.21033(15) -0.03816(8) 0.0383 Uani
H4 H 0.3328 0.1752 -0.0628 0.0580 Uiso
H5 H 0.4224 0.2383 -0.0587 0.0580 Uiso
C4 C 0.2937(2) 0.26859(18) -0.01509(11) 0.0350 Uani
H6 H 0.3310 0.3040 0.0091 0.0530 Uiso
H7 H 0.2651 0.3002 -0.0443 0.0530 Uiso
Cu1BA Cu -0.1250 0.3750 -0.1250 0.0192 Uani
Cu1P Cu 1.3750 -0.1250 -0.1250 0.0192 Uani
O1A O 0.6250 -0.01501(13) 0.1250 0.0350 Uani
H1C H 0.579(2) 0.2875(16) 0.1216(12) 0.0420 Uiso
H1A H 0.579(2) -0.0375(16) 0.1284(12) 0.0420 Uiso
H1B H 0.671(2) -0.0375(16) 0.1216(12) 0.0420 Uiso
N1BA N -0.01628(11) 0.37242(10) -0.06845(6) 0.0245 Uani
N1A N 0.73372(11) 0.12242(10) 0.06845(6) 0.0245 Uani
N1Q N 1.26628(11) -0.12242(10) -0.06845(6) 0.0245 Uani
N1B N 0.51628(11) 0.12242(10) 0.18155(6) 0.0245 Uani
N1C N 0.73372(11) 0.12758(10) 0.18155(6) 0.0245 Uani
N2BA N 0.08124(13) 0.33572(10) -0.00352(7) 0.0287 Uani
N2A N 0.83124(13) 0.08572(10) 0.00352(7) 0.0287 Uani
N2Q N 1.16876(13) -0.08572(10) -0.00352(7) 0.0287 Uani
C1BA C 0.05927(18) 0.42441(14) -0.05873(11) 0.0434 Uani
C1A C 0.80927(18) 0.17441(14) 0.05873(11) 0.0434 Uani
C1Q C 1.19073(18) -0.17441(14) -0.05873(11) 0.0434 Uani
H2BA H 0.0672 0.4710 -0.0784 0.0520 Uiso
H2A H 0.8172 0.2210 0.0784 0.0520 Uiso
H2Q H 1.1828 -0.2210 -0.0784 0.0520 Uiso
N3BA N 0.12042(16) 0.40466(12) -0.01967(9) 0.0467 Uani
N3A N 0.87042(16) 0.15466(12) 0.01967(9) 0.0467 Uani
N3Q N 1.12958(16) -0.15466(12) -0.01967(9) 0.0467 Uani
C2BA C 0.00006(14) 0.31753(12) -0.03263(7) 0.0251 Uani
C2A C 0.75006(14) 0.06753(12) 0.03263(7) 0.0251 Uani
C2Q C 1.24994(14) -0.06753(12) -0.03263(7) 0.0251 Uani
H3BA H -0.0402 0.2721 -0.0285 0.0300 Uiso
H3A H 0.7098 0.0221 0.0285 0.0300 Uiso
H3Q H 1.2902 -0.0221 -0.0285 0.0300 Uiso
C3BA C 0.13067(18) 0.28967(15) 0.03816(8) 0.0383 Uani
C3A C 0.88067(18) 0.03967(15) -0.03816(8) 0.0383 Uani
C3Q C 1.11933(18) -0.03967(15) 0.03816(8) 0.0383 Uani
H4BA H 0.1672 0.3248 0.0628 0.0580 Uiso
H4A H 0.9172 0.0748 -0.0628 0.0580 Uiso
H4Q H 1.0828 -0.0748 0.0628 0.0580 Uiso
H5BA H 0.0776 0.2617 0.0587 0.0580 Uiso
H5A H 0.8276 0.0117 -0.0587 0.0580 Uiso
H5Q H 1.1724 -0.0117 0.0587 0.0580 Uiso
C4BA C 0.2063(2) 0.23141(18) 0.01509(11) 0.0350 Uani
C4A C 0.9563(2) -0.01859(18) -0.01509(11) 0.0350 Uani
C4Q C 1.0437(2) 0.01859(18) 0.01509(11) 0.0350 Uani
H6BA H 0.1690 0.1960 -0.0091 0.0530 Uiso
H6A H 0.9190 -0.0540 0.0091 0.0530 Uiso
H6Q H 1.0810 0.0540 -0.0091 0.0530 Uiso
H7BA H 0.2349 0.1998 0.0443 0.0530 Uiso
H7A H 0.9849 -0.0502 -0.0443 0.0530 Uiso
H7Q H 1.0151 0.0502 0.0443 0.0530 Uiso
B1 B 0.3750 0.3750 0.13058(15) 0.0424 Uani
F1 F 0.4428(5) 0.3332(6) 0.1003(4) 0.0507 Uani
F4 F 0.4279(10) 0.3823(10) 0.1727(5) 0.1137 Uani
F1M F 0.3072(5) 0.4168(6) 0.1003(4) 0.0507 Uani
F4M F 0.3221(10) 0.3677(10) 0.1727(5) 0.1137 Uani
loop_
_atom_site_aniso_label
_atom_site_aniso_U_11
_atom_site_aniso_U_22
_atom_site_aniso_U_33
_atom_site_aniso_U_23
_atom_site_aniso_U_13
_atom_site_aniso_U_12
Cu1 0.0117(2) 0.0233(2) 0.0227(2) 0.000 0.000 0.000
O1 0.0223(10) 0.0247(11) 0.0580(14) 0.000 -0.0019(11) 0.000
N1 0.0178(7) 0.0248(8) 0.0308(8) -0.0002(7) -0.0029(6) 0.0007(6)
N2 0.0268(8) 0.0292(9) 0.0301(8) -0.0023(7) -0.0071(7) 0.0056(7)
C1 0.0351(12) 0.0270(11) 0.0682(16) 0.0105(11) -0.0239(11) -0.0075(9)
N3 0.0414(10) 0.0310(10) 0.0678(14) 0.0031(9) -0.0277(11) -0.0056(9)
C2 0.0200(8) 0.0294(10) 0.0259(9) -0.0016(8) 0.0001(7) 0.0011(7)
C3 0.0357(11) 0.0514(14) 0.0279(10) 0.0035(9) -0.0081(9) 0.0116(10)
C4 0.0333(13) 0.0336(15) 0.0381(15) 0.0052(11) -0.0099(12) 0.0059(12)
Cu1BA 0.0117 0.0233 0.0227 0 0 0
Cu1P 0.0117 0.0233 0.0227 0 0 0
O1A 0.0223 0.0247 0.058 0 0.0019 0
N1BA 0.0178 0.0248 0.0308 -0.0002 -0.0029 0.0007
N1A 0.0178 0.0248 0.0308 0.0002 0.0029 0.0007
N1Q 0.0178 0.0248 0.0308 0.0002 0.0029 0.0007
N1B 0.0178 0.0248 0.0308 -0.0002 0.0029 -0.0007
N1C 0.0178 0.0248 0.0308 0.0002 -0.0029 -0.0007
N2BA 0.0268 0.0292 0.0301 -0.0023 -0.0071 0.0056
N2A 0.0268 0.0292 0.0301 0.0023 0.0071 0.0056
N2Q 0.0268 0.0292 0.0301 0.0023 0.0071 0.0056
C1BA 0.0351 0.027 0.0682 0.0105 -0.0239 -0.0075
C1A 0.0351 0.027 0.0682 -0.0105 0.0239 -0.0075
C1Q 0.0351 0.027 0.0682 -0.0105 0.0239 -0.0075
N3BA 0.0414 0.031 0.0678 0.0031 -0.0277 -0.0056
N3A 0.0414 0.031 0.0678 -0.0031 0.0277 -0.0056
N3Q 0.0414 0.031 0.0678 -0.0031 0.0277 -0.0056
C2BA 0.02 0.0294 0.0259 -0.0016 0.0001 0.0011
C2A 0.02 0.0294 0.0259 0.0016 -0.0001 0.0011
C2Q 0.02 0.0294 0.0259 0.0016 -0.0001 0.0011
C3BA 0.0357 0.0514 0.0279 0.0035 -0.0081 0.0116
C3A 0.0357 0.0514 0.0279 -0.0035 0.0081 0.0116
C3Q 0.0357 0.0514 0.0279 -0.0035 0.0081 0.0116
C4BA 0.0333 0.0336 0.0381 0.0052 -0.0099 0.0059
C4A 0.0333 0.0336 0.0381 -0.0052 0.0099 0.0059
C4Q 0.0333 0.0336 0.0381 -0.0052 0.0099 0.0059
B1 0.0358(18) 0.055(2) 0.0365(18) 0.000 0.000 0.0220(17)
F1 0.031(3) 0.059(5) 0.062(3) 0.001(3) 0.004(2) 0.028(3)
F4 0.115(9) 0.150(8) 0.076(6) -0.023(7) -0.052(6) -0.052(7)
F1M 0.031 0.059 0.062 -0.001 -0.004 0.028
F4M 0.115 0.15 0.076 0.023 0.052 -0.052
loop_
_geom_bond_atom_site_label_1
_geom_bond_atom_site_label_2
_geom_bond_site_symmetry_1
_geom_bond_site_symmetry_2
Cu1 O1 1_555 1_555
O1 H1 1_555 1_555
N1 Cu1 1_555 1_555
N2 N3 1_555 1_555
C1 N1 1_555 1_555
H2 C1 1_555 1_555
N3 C1 1_555 1_555
C2 N1 1_555 1_555
H3 C2 1_555 1_555
C3 N2 1_555 1_555
H4 C3 1_555 1_555
H5 C3 1_555 1_555
C4 C3 1_555 1_555
H6 C4 1_555 1_555
H7 C4 1_555 1_555
B1 F1 1_555 1_555
F4 B1 1_555 1_555
Cu1BA N1BA 1_555 1_555
Cu1P N1Q 1_555 1_555
O1A Cu1 1_555 1_555
H1C O1 1_555 1_555
H1A O1A 1_555 1_555
H1B O1A 1_555 1_555
N1BA C1BA 1_555 1_555
N1A Cu1 1_555 1_555
N1Q C1Q 1_555 1_555
N1B Cu1 1_555 1_555
N1C Cu1 1_555 1_555
N2BA N3BA 1_555 1_555
N2A N3A 1_555 1_555
N2Q N3Q 1_555 1_555
C1BA H2BA 1_555 1_555
C1A N1A 1_555 1_555
C1Q H2Q 1_555 1_555
H2A C1A 1_555 1_555
N3BA C1BA 1_555 1_555
N3A C1A 1_555 1_555
N3Q C1Q 1_555 1_555
C2BA N1BA 1_555 1_555
C2A N1A 1_555 1_555
C2Q N1Q 1_555 1_555
H3BA C2BA 1_555 1_555
H3A C2A 1_555 1_555
H3Q C2Q 1_555 1_555
C3BA N2BA 1_555 1_555
C3A N2A 1_555 1_555
C3Q N2Q 1_555 1_555
H4BA C3BA 1_555 1_555
H4A C3A 1_555 1_555
H4Q C3Q 1_555 1_555
H5BA C3BA 1_555 1_555
H5A C3A 1_555 1_555
H5Q C3Q 1_555 1_555
C4BA C4 1_555 1_555
C4A C3A 1_555 1_555
C4Q C3Q 1_555 1_555
H6BA C4BA 1_555 1_555
H6A C4A 1_555 1_555
H6Q C4Q 1_555 1_555
H7BA C4BA 1_555 1_555
H7A C4A 1_555 1_555
H7Q C4Q 1_555 1_555
F1M B1 1_555 1_555
F4M B1 1_555 1_555
N2 C2 1_555 1_555
N2BA C2BA 1_555 1_555
N2A C2A 1_555 1_555
N2Q C2Q 1_555 1_555
C3BA C4BA 1_555 1_555
C4A C4Q 1_555 1_555

#END
