
#######################################################################
#
#                 Cambridge Crystallographic Data Centre
#                                CCDC 
#
#######################################################################
#
# If this CIF has been generated from an entry in the Cambridge 
# Structural Database, then it will include bibliographic, chemical, 
# crystal, experimental, refinement or atomic coordinate data resulting 
# from the CCDC's data processing and validation procedures.
#
#######################################################################

data_HOQMIL01
_chemical_formula_moiety         '(C29 H23 Mg2 N3 O11)n'
_symmetry_cell_setting           monoclinic
_symmetry_space_group_name_H-M   'C 2/c'
_symmetry_Int_Tables_number      15
_space_group_name_Hall           '-C 2yc'
loop_
_symmetry_equiv_pos_site_id
_symmetry_equiv_pos_as_xyz
1 x,y,z
2 -x,y,1/2-z
3 1/2+x,1/2+y,z
4 1/2-x,1/2+y,1/2-z
5 -x,-y,-z
6 x,-y,1/2+z
7 1/2-x,1/2-y,-z
8 1/2+x,1/2-y,1/2+z
_cell_length_a                   18.0541(16)
_cell_length_b                   17.2527(14)
_cell_length_c                   13.4128(11)
_cell_angle_alpha                90
_cell_angle_beta                 129.2740(10)
_cell_angle_gamma                90
_cell_volume                     3234.19
loop_
_atom_site_label
_atom_site_type_symbol
_atom_site_fract_x
_atom_site_fract_y
_atom_site_fract_z
Mg1 Mg 0.0000 0.30499(7) 0.2500
Mg2 Mg 0.2500 0.2500 0.5000
O1 O 0.07549(15) 0.29957(11) 0.18533(19)
O2 O 0.22992(15) 0.31351(12) 0.35459(19)
O3 O 0.08841(15) 0.61257(12) -0.1201(2)
O4 O 0.23029(14) 0.64939(11) 0.06227(19)
O5 O 0.09995(14) 0.22088(12) 0.38967(19)
N1 N 0.07411(17) 0.16020(14) 0.4228(2)
C1 C 0.1615(2) 0.39827(17) 0.1772(3)
C2 C 0.0862(3) 0.4143(2) 0.0497(3)
H1 H 0.037(3) 0.382(2) 0.010(4)
C3 C 0.0875(3) 0.4792(2) -0.0095(3)
H2 H 0.037(3) 0.493(2) -0.097(4)
C4 C 0.1643(2) 0.52976(17) 0.0584(3)
C5 C 0.2401(2) 0.5136(2) 0.1857(3)
H3 H 0.291(3) 0.552(2) 0.230(4)
C6 C 0.2390(2) 0.4479(2) 0.2439(3)
H4 H 0.286(4) 0.443(3) 0.333(5)
C7 C 0.1560(2) 0.33147(17) 0.2448(3)
C8 C 0.1607(2) 0.60342(17) -0.0052(3)
C9 C 0.0367(2) 0.1714(2) 0.4815(4)
H5 H 0.035(3) 0.224(3) 0.496(4)
C10 C 0.0071(3) 0.1088(2) 0.5121(4)
H6 H -0.021(3) 0.120(3) 0.553(4)
C11 C 0.0155(2) 0.03399(18) 0.4835(3)
C12 C 0.0572(2) 0.02505(19) 0.4253(3)
H7 H 0.069(3) -0.022(2) 0.404(4)
C13 C 0.0867(2) 0.08861(18) 0.3971(3)
H8 H 0.119(3) 0.086(2) 0.364(4)
O5D O -0.09995(14) -0.22088(12) 0.61033(19)
N1D N -0.07411(17) -0.16020(14) 0.5772(2)
C9D C -0.0367(2) -0.1714(2) 0.5185(4)
H5D H -0.035(3) -0.224(3) 0.504(4)
C10D C -0.0071(3) -0.1088(2) 0.4879(4)
H6D H 0.021(3) -0.120(3) 0.447(4)
C11D C -0.0155(2) -0.03399(18) 0.5165(3)
C12D C -0.0572(2) -0.02505(19) 0.5747(3)
H7D H -0.069(3) 0.022(2) 0.596(4)
C13D C -0.0867(2) -0.08861(18) 0.6029(3)
H8D H -0.119(3) -0.086(2) 0.636(4)
O1A O -0.07549(15) 0.29957(11) 0.31467(19)
O2A O -0.22992(15) 0.31351(12) 0.14541(19)
O3A O -0.08841(15) 0.61257(12) 0.6201(2)
O4A O -0.23029(14) 0.64939(11) 0.43773(19)
C1A C -0.1615(2) 0.39827(17) 0.3228(3)
C2A C -0.0862(3) 0.4143(2) 0.4503(3)
H1A H -0.037(3) 0.382(2) 0.490(4)
C3A C -0.0875(3) 0.4792(2) 0.5095(3)
H2A H -0.037(3) 0.493(2) 0.597(4)
C4A C -0.1643(2) 0.52976(17) 0.4416(3)
C5A C -0.2401(2) 0.5136(2) 0.3143(3)
H3A H -0.291(3) 0.552(2) 0.270(4)
C6A C -0.2390(2) 0.4479(2) 0.2561(3)
H4A H -0.286(4) 0.443(3) 0.167(5)
C7A C -0.1560(2) 0.33147(17) 0.2552(3)
C8A C -0.1607(2) 0.60342(17) 0.5052(3)
Mg1D Mg 0.0000 -0.30499(7) 0.7500
Mg1D_2 Mg 0.0000 0.69501(7) -0.2500
Mg1D_3 Mg 0.0000 0.69501(7) 0.7500
Mg2A Mg -0.2500 0.2500 0.0000
Mg2B Mg -0.2500 -0.2500 0.5000
Mg2B_2 Mg -0.2500 0.7500 0.5000
Mg2C Mg 0.2500 0.7500 0.0000
O2F O 0.27008(15) 0.18649(12) 0.64541(19)
O3D O -0.08841(15) 0.38743(12) 0.1201(2)
O3E O 0.08841(15) 0.38743(12) 0.3799(2)
O4C O 0.26971(14) 0.14939(11) 0.43773(19)
O4E O 0.23029(14) 0.35061(11) 0.56227(19)
O5A O -0.09995(14) 0.22088(12) 0.11033(19)
O5F O 0.40005(14) 0.27912(12) 0.61033(19)
O6 O 0.1333(4) 0.1465(3) -0.0879(6)
N2 N 0.2773(4) 0.1641(4) 0.1146(5)
C14 C 0.2223(6) 0.1334(4) -0.0031(7)
H9 H 0.2509 0.1003 -0.0246
C15 C 0.2449(7) 0.2142(4) 0.1575(8)
H10 H 0.2968 0.2289 0.2446
H11 H 0.1958 0.1896 0.1543
H12 H 0.2192 0.2595 0.1038
C16 C 0.3741(8) 0.1417(8) 0.2025(11)
H13 H 0.4040 0.1671 0.2835
H14 H 0.4062 0.1561 0.1693
H15 H 0.3780 0.0865 0.2146
loop_
_geom_bond_atom_site_label_1
_geom_bond_atom_site_label_2
_geom_bond_site_symmetry_1
_geom_bond_site_symmetry_2
Mg1 O1 1_555 1_555
Mg2 O2 1_555 1_555
O1 C7 1_555 1_555
O2 C7 1_555 1_555
O3 C8 1_555 1_555
O4 C8 1_555 1_555
O5 Mg1 1_555 1_555
N1 O5 1_555 1_555
C1 C2 1_555 1_555
C2 H1 1_555 1_555
C3 C2 1_555 1_555
H2 C3 1_555 1_555
C4 C3 1_555 1_555
C5 C4 1_555 1_555
H3 C5 1_555 1_555
C6 C1 1_555 1_555
H4 C6 1_555 1_555
C7 C1 1_555 1_555
C8 C4 1_555 1_555
C9 N1 1_555 1_555
H5 C9 1_555 1_555
C10 C9 1_555 1_555
H6 C10 1_555 1_555
C11 C10 1_555 1_555
C12 C11 1_555 1_555
H7 C12 1_555 1_555
C13 N1 1_555 1_555
H8 C13 1_555 1_555
O6 C14 1_555 1_555
N2 C14 1_555 1_555
C14 H9 1_555 1_555
C15 N2 1_555 1_555
H10 C15 1_555 1_555
H11 C15 1_555 1_555
H12 C15 1_555 1_555
C16 N2 1_555 1_555
H13 C16 1_555 1_555
H14 C16 1_555 1_555
H15 C16 1_555 1_555
O5D N1D 1_555 1_555
N1D C9D 1_555 1_555
C9D H5D 1_555 1_555
C10D C9D 1_555 1_555
H6D C10D 1_555 1_555
C11D C11 1_555 1_555
C12D C11D 1_555 1_555
H7D C12D 1_555 1_555
C13D N1D 1_555 1_555
H8D C13D 1_555 1_555
O1A Mg1 1_555 1_555
O2A C7A 1_555 1_555
O3A C8A 1_555 1_555
O4A C8A 1_555 1_555
C1A C2A 1_555 1_555
C2A H1A 1_555 1_555
C3A C2A 1_555 1_555
H2A C3A 1_555 1_555
C4A C3A 1_555 1_555
C5A C4A 1_555 1_555
H3A C5A 1_555 1_555
C6A C1A 1_555 1_555
H4A C6A 1_555 1_555
C7A O1A 1_555 1_555
C8A C4A 1_555 1_555
Mg1D O5D 1_555 1_555
Mg1D_2 O3 1_555 1_555
Mg1D_3 O3A 1_555 1_555
Mg2A O2A 1_555 1_555
Mg2B O5D 1_555 1_555
Mg2B_2 O4A 1_555 1_555
Mg2C O4 1_555 1_555
O2F Mg2 1_555 1_555
O3D Mg1 1_555 1_555
O3E Mg1 1_555 1_555
O4C Mg2 1_555 1_555
O4E Mg2 1_555 1_555
O5A Mg1 1_555 1_555
O5F Mg2 1_555 1_555
Mg2 O5 1_555 1_555
C5 C6 1_555 1_555
C12 C13 1_555 1_555
C10D C11D 1_555 1_555
C12D C13D 1_555 1_555
C1A C7A 1_555 1_555
C5A C6A 1_555 1_555
Mg2A O5A 1_555 1_555

#END
