
#######################################################################
#
#                 Cambridge Crystallographic Data Centre
#                                CCDC 
#
#######################################################################
#
# If this CIF has been generated from an entry in the Cambridge 
# Structural Database, then it will include bibliographic, chemical, 
# crystal, experimental, refinement or atomic coordinate data resulting 
# from the CCDC's data processing and validation procedures.
#
#######################################################################

data_HOQNOS
_chemical_formula_moiety         '(C32 H21 Mg2 N3 O12)n'
_symmetry_cell_setting           monoclinic
_symmetry_space_group_name_H-M   'C 2/c'
_symmetry_Int_Tables_number      15
_space_group_name_Hall           '-C 2yc'
loop_
_symmetry_equiv_pos_site_id
_symmetry_equiv_pos_as_xyz
1 x,y,z
2 -x,y,1/2-z
3 1/2+x,1/2+y,z
4 1/2-x,1/2+y,1/2-z
5 -x,-y,-z
6 x,-y,1/2+z
7 1/2-x,1/2-y,-z
8 1/2+x,1/2-y,1/2+z
_cell_length_a                   19.2119(13)
_cell_length_b                   16.1935(11)
_cell_length_c                   14.0617(17)
_cell_angle_alpha                90
_cell_angle_beta                 130.1130(10)
_cell_angle_gamma                90
_cell_volume                     3345.67
loop_
_atom_site_label
_atom_site_type_symbol
_atom_site_fract_x
_atom_site_fract_y
_atom_site_fract_z
Mg1 Mg 0.0000 0.43811(10) 0.7500
Mg2 Mg 0.0000 0.5000 1.0000
O1 O 0.07099(18) 0.39078(16) 1.0562(3)
O2 O 0.03863(19) 0.35074(16) 0.8791(3)
O3 O 0.37458(18) 0.05536(17) 1.1968(2)
O4 O 0.38196(18) 0.06386(17) 1.3615(2)
O5 O -0.03763(18) 0.53026(17) 0.6127(2)
N1 N -0.0965(2) 0.5909(2) 0.5794(3)
C1 C 0.1411(3) 0.2703(3) 1.0574(4)
C2 C 0.2034(8) 0.2676(8) 1.1919(12)
C3 C 0.2666(8) 0.2060(8) 1.2521(11)
C4 C 0.2720(3) 0.1440(3) 1.1828(4)
C5 C 0.2253(3) 0.1597(3) 1.0581(4)
C6 C 0.1601(3) 0.2214(3) 0.9961(4)
C7 C 0.0774(3) 0.3426(2) 0.9915(4)
C8 C 0.3483(3) 0.0822(2) 1.2527(4)
C9 C -0.0692(3) 0.6691(3) 0.5986(5)
H1 H -0.0100 0.6811 0.6320
C10 C -0.1280(3) 0.7325(3) 0.5695(5)
H2 H -0.1075 0.7868 0.5852
C11 C -0.2171(3) 0.7163(3) 0.5172(4)
C12 C -0.2437(3) 0.6337(3) 0.4946(5)
H3 H -0.3032 0.6199 0.4586
C13 C -0.1826(3) 0.5722(3) 0.5253(4)
H4 H -0.2015 0.5173 0.5083
O5F O -0.46237(18) 0.96974(17) 0.3873(2)
N1F N -0.4035(2) 0.9091(2) 0.4206(3)
C9F C -0.4308(3) 0.8309(3) 0.4014(5)
H1F H -0.4900 0.8189 0.3680
C10F C -0.3720(3) 0.7675(3) 0.4305(5)
H2F H -0.3925 0.7132 0.4148
C11F C -0.2829(3) 0.7837(3) 0.4828(4)
C12F C -0.2563(3) 0.8663(3) 0.5054(5)
H3F H -0.1968 0.8801 0.5414
C13F C -0.3174(3) 0.9278(3) 0.4747(4)
H4F H -0.2985 0.9827 0.4917
O1A O -0.07099(18) 0.39078(16) 0.4438(3)
O2A O -0.03863(19) 0.35074(16) 0.6209(3)
O3A O -0.37458(18) 0.05536(17) 0.3032(2)
O4A O -0.38196(18) 0.06386(17) 0.1385(2)
C1A C -0.1411(3) 0.2703(3) 0.4426(4)
C2A C -0.2034(8) 0.2676(8) 0.3081(12)
C3A C -0.2666(8) 0.2060(8) 0.2479(11)
C4A C -0.2720(3) 0.1440(3) 0.3172(4)
C5A C -0.2253(3) 0.1597(3) 0.4419(4)
C6A C -0.1601(3) 0.2214(3) 0.5039(4)
C7A C -0.0774(3) 0.3426(2) 0.5085(4)
C8A C -0.3483(3) 0.0822(2) 0.2473(4)
Mg1F Mg -0.5000 0.06189(10) 0.2500
Mg1F_2 Mg -0.5000 1.06189(10) 0.2500
Mg1F_3 Mg 0.5000 0.06189(10) 1.2500
Mg2A Mg 0.0000 0.5000 0.5000
Mg2B Mg -0.5000 0.0000 0.0000
Mg2C Mg -0.5000 1.0000 0.5000
Mg2C_2 Mg 0.5000 0.0000 1.5000
O1D O -0.07099(18) 0.60922(16) 0.9438(3)
O3F O 0.12542(18) 0.44464(17) 0.8032(2)
O3G O -0.12542(18) 0.44464(17) 0.6968(2)
O4C O 0.11804(18) 0.56386(17) 1.1385(2)
O4G O -0.11804(18) 0.43614(17) 0.8615(2)
O5A O 0.03763(18) 0.53026(17) 0.8873(2)
O5E O -0.03763(18) 0.46974(17) 1.1127(2)
O6 O 0.0500(10) -0.1392(9) 0.6690(14)
O7 O -0.0757(7) -0.0737(13) 0.5619(13)
N2 N 0.0163(8) -0.0705(9) 0.6456(13)
C16 C 0.0587(7) 0.0069(7) 0.6646(10)
C17 C 0.0116(10) 0.0769(8) 0.6375(17)
H5 H -0.0493 0.0785 0.6019
C18 C 0.0636(9) 0.1450(8) 0.6685(14)
H6 H 0.0380 0.1965 0.6580
C19 C 0.1506(11) 0.1419(10) 0.7139(17)
H7 H 0.1822 0.1905 0.7288
C20 C 0.1931(10) 0.0650(9) 0.7384(15)
H8 H 0.2539 0.0626 0.7737
C21 C 0.1459(8) -0.0052(9) 0.7107(12)
H9 H 0.1705 -0.0573 0.7220
loop_
_geom_bond_atom_site_label_1
_geom_bond_atom_site_label_2
_geom_bond_site_symmetry_1
_geom_bond_site_symmetry_2
Mg1 O2 1_555 1_555
Mg2 O1 1_555 1_555
O1 C7 1_555 1_555
O2 C7 1_555 1_555
O3 C8 1_555 1_555
O4 C8 1_555 1_555
O5 Mg1 1_555 1_555
N1 O5 1_555 1_555
C1 C2 1_555 1_555
C2 C3 1_555 1_555
C3 C4 1_555 1_555
C4 C5 1_555 1_555
C5 C6 1_555 1_555
C6 C1 1_555 1_555
C7 C1 1_555 1_555
C8 C4 1_555 1_555
C9 N1 1_555 1_555
H1 C9 1_555 1_555
C10 C9 1_555 1_555
H2 C10 1_555 1_555
C11 C10 1_555 1_555
C12 C11 1_555 1_555
H3 C12 1_555 1_555
C13 N1 1_555 1_555
H4 C13 1_555 1_555
O6 N2 1_555 1_555
O7 N2 1_555 1_555
N2 C16 1_555 1_555
C16 C17 1_555 1_555
C17 H5 1_555 1_555
C18 C17 1_555 1_555
H6 C18 1_555 1_555
C19 C18 1_555 1_555
H7 C19 1_555 1_555
C20 C19 1_555 1_555
H8 C20 1_555 1_555
C21 C16 1_555 1_555
H9 C21 1_555 1_555
O5F N1F 1_555 1_555
N1F C9F 1_555 1_555
C9F H1F 1_555 1_555
C10F C9F 1_555 1_555
H2F C10F 1_555 1_555
C11F C11 1_555 1_555
C12F C11F 1_555 1_555
H3F C12F 1_555 1_555
C13F N1F 1_555 1_555
H4F C13F 1_555 1_555
O1A C7A 1_555 1_555
O2A Mg1 1_555 1_555
O3A C8A 1_555 1_555
O4A C8A 1_555 1_555
C1A C2A 1_555 1_555
C2A C3A 1_555 1_555
C3A C4A 1_555 1_555
C4A C5A 1_555 1_555
C5A C6A 1_555 1_555
C6A C1A 1_555 1_555
C7A O2A 1_555 1_555
C8A C4A 1_555 1_555
Mg1F O3A 1_555 1_555
Mg1F_2 O5F 1_555 1_555
Mg1F_3 O3 1_555 1_555
Mg2A O5 1_555 1_555
Mg2B O4A 1_555 1_555
Mg2C O5F 1_555 1_555
Mg2C_2 O4 1_555 1_555
O1D Mg2 1_555 1_555
O3F Mg1 1_555 1_555
O3G Mg1 1_555 1_555
O4C Mg2 1_555 1_555
O4G Mg2 1_555 1_555
O5A Mg1 1_555 1_555
O5E Mg2 1_555 1_555
Mg2 O5A 1_555 1_555
C12 C13 1_555 1_555
C20 C21 1_555 1_555
C10F C11F 1_555 1_555
C12F C13F 1_555 1_555
O1A Mg2A 1_555 1_555
C1A C7A 1_555 1_555

#END
