
#######################################################################
#
#                 Cambridge Crystallographic Data Centre
#                                CCDC 
#
#######################################################################
#
# If this CIF has been generated from an entry in the Cambridge 
# Structural Database, then it will include bibliographic, chemical, 
# crystal, experimental, refinement or atomic coordinate data resulting 
# from the CCDC's data processing and validation procedures.
#
#######################################################################

data_HOQNEI
_chemical_formula_moiety         '(C28 H21 Mg2 N3 O12)n'
_symmetry_cell_setting           monoclinic
_symmetry_space_group_name_H-M   'C 2/c'
_symmetry_Int_Tables_number      15
_space_group_name_Hall           '-C 2yc'
loop_
_symmetry_equiv_pos_site_id
_symmetry_equiv_pos_as_xyz
1 x,y,z
2 -x,y,1/2-z
3 1/2+x,1/2+y,z
4 1/2-x,1/2+y,1/2-z
5 -x,-y,-z
6 x,-y,1/2+z
7 1/2-x,1/2-y,-z
8 1/2+x,1/2-y,1/2+z
_cell_length_a                   17.3288(19)
_cell_length_b                   17.7491(19)
_cell_length_c                   12.8570(14)
_cell_angle_alpha                90
_cell_angle_beta                 126.530(2)
_cell_angle_gamma                90
_cell_volume                     3177.57
loop_
_atom_site_label
_atom_site_type_symbol
_atom_site_fract_x
_atom_site_fract_y
_atom_site_fract_z
Mg1 Mg 0.2500 0.2500 0.5000
Mg2 Mg 0.5000 0.19483(8) 0.7500
O1 O 0.27454(17) 0.15291(13) 0.4371(2)
O2 O 0.41385(18) 0.11508(13) 0.6193(2)
O3 O 0.26395(17) -0.18616(13) 0.1467(2)
O4 O 0.41793(18) -0.20070(13) 0.3141(2)
O5 O 0.40262(17) 0.27875(12) 0.6132(2)
N1 N 0.4301(2) 0.33944(16) 0.5826(3)
C1 C 0.3350(3) 0.03140(19) 0.4427(3)
C2 C 0.4071(3) -0.0213(2) 0.5110(4)
H1 H 0.4567 -0.0128 0.5978
C3 C 0.4066(3) -0.0865(2) 0.4520(4)
H2 H 0.4564 -0.1210 0.4991
C4 C 0.3330(3) -0.10102(19) 0.3244(3)
C5 C 0.2587(3) -0.0500(2) 0.2571(4)
H3 H 0.2071 -0.0603 0.1720
C6 C 0.2603(3) 0.0165(2) 0.3152(4)
H4 H 0.2107 0.0512 0.2680
C7 C 0.3417(3) 0.10570(19) 0.5049(3)
C8 C 0.3375(3) -0.16806(19) 0.2562(3)
C9 C 0.4785(3) 0.3320(2) 0.5320(4)
H5 H 0.4933 0.2842 0.5190
C10 C 0.5063(3) 0.3940(2) 0.4993(5)
H6 H 0.5392 0.3879 0.4633
C11 C 0.4862(3) 0.4660(2) 0.5188(3)
C12 C 0.4368(3) 0.4713(2) 0.5726(4)
H7 H 0.4223 0.5186 0.5882
C13 C 0.4089(3) 0.4074(2) 0.6033(4)
H8 H 0.3752 0.4117 0.6385
O5D O 0.59738(17) 0.72125(12) 0.3868(2)
N1D N 0.5699(2) 0.66056(16) 0.4174(3)
C9D C 0.5215(3) 0.6680(2) 0.4680(4)
H5D H 0.5067 0.7158 0.4810
C10D C 0.4937(3) 0.6060(2) 0.5007(5)
H6D H 0.4608 0.6121 0.5367
C11D C 0.5138(3) 0.5340(2) 0.4812(3)
C12D C 0.5632(3) 0.5287(2) 0.4274(4)
H7D H 0.5777 0.4814 0.4118
C13D C 0.5911(3) 0.5926(2) 0.3967(4)
H8D H 0.6248 0.5883 0.3615
O1A O 0.72546(17) 0.15291(13) 1.0629(2)
O2A O 0.58615(18) 0.11508(13) 0.8807(2)
O3A O 0.73605(17) -0.18616(13) 1.3533(2)
O4A O 0.58207(18) -0.20070(13) 1.1859(2)
C1A C 0.6650(3) 0.03140(19) 1.0573(3)
C2A C 0.5929(3) -0.0213(2) 0.9890(4)
H1A H 0.5433 -0.0128 0.9022
C3A C 0.5934(3) -0.0865(2) 1.0480(4)
H2A H 0.5436 -0.1210 1.0009
C4A C 0.6670(3) -0.10102(19) 1.1756(3)
C5A C 0.7413(3) -0.0500(2) 1.2429(4)
H3A H 0.7929 -0.0603 1.3280
C6A C 0.7397(3) 0.0165(2) 1.1848(4)
H4A H 0.7893 0.0512 1.2320
C7A C 0.6583(3) 0.10570(19) 0.9951(3)
C8A C 0.6625(3) -0.16806(19) 1.2438(3)
Mg1A Mg 0.7500 0.2500 1.0000
Mg1B Mg 0.7500 -0.2500 1.5000
Mg1B_2 Mg 0.7500 0.7500 0.5000
Mg1C Mg 0.2500 -0.2500 0.0000
Mg2D Mg 0.5000 -0.19483(8) 0.2500
Mg2D_2 Mg 0.5000 -0.19483(8) 1.2500
Mg2D_3 Mg 0.5000 0.80517(8) 0.2500
O1F O 0.22546(17) 0.34709(13) 0.5629(2)
O3C O 0.23605(17) 0.31384(13) 0.3533(2)
O3E O 0.26395(17) 0.18616(13) 0.6467(2)
O4D O 0.58207(18) 0.20070(13) 0.6859(2)
O4E O 0.41793(18) 0.20070(13) 0.8141(2)
O5A O 0.59738(17) 0.27875(12) 0.8868(2)
O5F O 0.09738(17) 0.22125(12) 0.3868(2)
O7 O 0.6052(8) 0.3668(5) 0.3181(10)
O8 O 0.6000(6) 0.2630(4) 0.4115(8)
N2 N 0.6246(6) 0.2929(5) 0.3487(8)
C14 C 0.6627(9) 0.2520(8) 0.2957(10)
H9 H 0.6315 0.2695 0.2076
H10 H 0.7302 0.2647 0.3440
C15 C 0.6551(10) 0.1743(8) 0.2924(11)
H11 H 0.6847 0.1532 0.2553
H12 H 0.5885 0.1602 0.2408
H13 H 0.6867 0.1555 0.3789
loop_
_geom_bond_atom_site_label_1
_geom_bond_atom_site_label_2
_geom_bond_site_symmetry_1
_geom_bond_site_symmetry_2
Mg1 O1 1_555 1_555
Mg2 O2 1_555 1_555
O1 C7 1_555 1_555
O2 C7 1_555 1_555
O3 C8 1_555 1_555
O4 C8 1_555 1_555
O5 Mg1 1_555 1_555
N1 O5 1_555 1_555
C1 C2 1_555 1_555
C2 H1 1_555 1_555
C3 C2 1_555 1_555
H2 C3 1_555 1_555
C4 C3 1_555 1_555
C5 C4 1_555 1_555
H3 C5 1_555 1_555
C6 C1 1_555 1_555
H4 C6 1_555 1_555
C7 C1 1_555 1_555
C8 C4 1_555 1_555
C9 N1 1_555 1_555
H5 C9 1_555 1_555
C10 C9 1_555 1_555
H6 C10 1_555 1_555
C11 C10 1_555 1_555
C12 C11 1_555 1_555
H7 C12 1_555 1_555
C13 N1 1_555 1_555
H8 C13 1_555 1_555
O7 N2 1_555 1_555
O8 N2 1_555 1_555
N2 C14 1_555 1_555
C14 H9 1_555 1_555
H10 C14 1_555 1_555
C15 C14 1_555 1_555
H11 C15 1_555 1_555
H12 C15 1_555 1_555
H13 C15 1_555 1_555
O5D N1D 1_555 1_555
N1D C9D 1_555 1_555
C9D H5D 1_555 1_555
C10D C9D 1_555 1_555
H6D C10D 1_555 1_555
C11D C11 1_555 1_555
C12D C11D 1_555 1_555
H7D C12D 1_555 1_555
C13D N1D 1_555 1_555
H8D C13D 1_555 1_555
O1A C7A 1_555 1_555
O2A Mg2 1_555 1_555
O3A C8A 1_555 1_555
O4A C8A 1_555 1_555
C1A C2A 1_555 1_555
C2A H1A 1_555 1_555
C3A C2A 1_555 1_555
H2A C3A 1_555 1_555
C4A C3A 1_555 1_555
C5A C4A 1_555 1_555
H3A C5A 1_555 1_555
C6A C1A 1_555 1_555
H4A C6A 1_555 1_555
C7A O2A 1_555 1_555
C8A C4A 1_555 1_555
Mg1A O1A 1_555 1_555
Mg1B O3A 1_555 1_555
Mg1B_2 O5D 1_555 1_555
Mg1C O3 1_555 1_555
Mg2D O4 1_555 1_555
Mg2D_2 O4A 1_555 1_555
Mg2D_3 O5D 1_555 1_555
O1F Mg1 1_555 1_555
O3C Mg1 1_555 1_555
O3E Mg1 1_555 1_555
O4D Mg2 1_555 1_555
O4E Mg2 1_555 1_555
O5A Mg2 1_555 1_555
O5F Mg1 1_555 1_555
Mg2 O5 1_555 1_555
C5 C6 1_555 1_555
C12 C13 1_555 1_555
C10D C11D 1_555 1_555
C12D C13D 1_555 1_555
C1A C7A 1_555 1_555
C5A C6A 1_555 1_555
Mg1A O5A 1_555 1_555

#END
