
#######################################################################
#
#                 Cambridge Crystallographic Data Centre
#                                CCDC 
#
#######################################################################
#
# If this CIF has been generated from an entry in the Cambridge 
# Structural Database, then it will include bibliographic, chemical, 
# crystal, experimental, refinement or atomic coordinate data resulting 
# from the CCDC's data processing and validation procedures.
#
#######################################################################

data_DAVYEG
_chemical_formula_moiety         '(C48 H30 Co2 F12 N4 O8)n'
_symmetry_cell_setting           monoclinic
_symmetry_space_group_name_H-M   'C 2/c'
_symmetry_Int_Tables_number      15
_space_group_name_Hall           '-C 2yc'
loop_
_symmetry_equiv_pos_site_id
_symmetry_equiv_pos_as_xyz
1 x,y,z
2 -x,y,1/2-z
3 1/2+x,1/2+y,z
4 1/2-x,1/2+y,1/2-z
5 -x,-y,-z
6 x,-y,1/2+z
7 1/2-x,1/2-y,-z
8 1/2+x,1/2-y,1/2+z
_cell_length_a                   27.375(6)
_cell_length_b                   7.2770(15)
_cell_length_c                   24.644(5)
_cell_angle_alpha                90
_cell_angle_beta                 106.24(3)
_cell_angle_gamma                90
_cell_volume                     4713.39
loop_
_atom_site_label
_atom_site_type_symbol
_atom_site_fract_x
_atom_site_fract_y
_atom_site_fract_z
Co1 Co 1.033813(8) 0.84621(3) 1.011359(9)
F1 F 0.82449(4) 0.74892(15) 0.64911(4)
O1 O 0.93521(5) -0.00666(17) 0.54144(5)
F2 F 0.82067(4) 0.19878(15) 0.75258(4)
F3 F 0.75955(4) 0.67773(16) 0.67793(5)
O2 O 0.99227(5) 0.70884(18) 0.94233(5)
F4 F 0.77598(4) 0.52522(16) 0.61059(4)
F5 F 0.77211(4) 0.42781(16) 0.75639(4)
F6 F 0.75854(4) 0.26851(16) 0.68021(4)
O3 O 0.98842(5) 0.23404(17) 0.55961(5)
O4 O 0.93885(5) 0.94928(18) 0.92810(5)
N1 N 1.09610(6) 0.6840(2) 1.04373(6)
N2 N 1.14617(5) 0.4412(2) 1.05861(6)
C1 C 0.95378(7) 0.7975(3) 0.91395(7)
C2 C 0.93212(6) 0.5375(2) 0.84352(7)
H1 H 0.9574 0.4669 0.8676
C3 C 0.79778(7) 0.6066(3) 0.66002(7)
C4 C 0.83147(6) 0.4705(2) 0.70285(7)
C5 C 0.85541(7) 0.1937(2) 0.64988(7)
H2 H 0.8297 0.1245 0.6579
C6 C 0.90355(6) 0.4651(2) 0.79243(7)
H3 H 0.9106 0.3473 0.7820
C7 C 0.90379(7) 0.4719(2) 0.65881(7)
H4 H 0.9111 0.5895 0.6736
C8 C 0.86437(6) 0.5666(2) 0.75645(7)
C9 C 0.86468(6) 0.3714(2) 0.67076(7)
C10 C 0.92298(6) 0.7156(3) 0.85890(7)
C11 C 1.13777(7) 0.7183(3) 1.08917(7)
H5 H 1.1437 0.8269 1.1098
C12 C 1.10259(6) 0.5167(2) 1.02683(7)
H6 H 1.0799 0.4577 0.9967
C13 C 1.20907(7) 0.2607(2) 1.02374(7)
C14 C 0.88422(7) 0.1186(2) 0.61712(7)
H7 H 0.8781 -0.0013 0.6039
C15 C 0.85519(7) 0.7440(2) 0.77219(7)
H8 H 0.8292 0.8133 0.7488
C16 C 0.79539(7) 0.3405(2) 0.72293(7)
C17 C 1.16618(7) 0.2594(2) 1.05157(8)
H9 H 1.1386 0.1845 1.0290
H10 H 1.1783 0.2021 1.0884
C18 C 1.16872(7) 0.5693(3) 1.09909(7)
H11 H 1.1991 0.5561 1.1275
C19 C 1.21955(7) 0.0985(3) 0.99972(8)
H12 H 1.1992 -0.0041 0.9992
C20 C 0.88459(7) 0.8180(2) 0.82251(8)
H13 H 0.8786 0.9378 0.8321
C21 C 1.23975(7) 0.4125(3) 1.02360(8)
H14 H 1.2330 0.5227 1.0393
C22 C 0.92207(6) 0.2216(2) 0.60399(7)
C23 C 0.95113(6) 0.1419(2) 0.56590(7)
C24 C 0.93194(7) 0.3990(3) 0.62525(7)
H15 H 0.9574 0.4686 0.6169
Co1D Co 0.966187(8) 1.15379(3) 0.988641(9)
Co1A Co 0.966187(8) -0.15379(3) 0.488641(9)
Co1A_2 Co 0.966187(8) 1.84621(3) 1.488641(9)
Co1E Co 1.033813(8) 0.15379(3) 0.511359(9)
Co1E_2 Co 1.033813(8) 2.15379(3) 1.511359(9)
Co1F Co 1.466187(8) -0.34621(3) 0.988641(9)
F1D F 1.17551(4) 1.25108(15) 1.35089(4)
O1D O 1.06479(5) 2.00666(17) 1.45856(5)
O1A O 1.06479(5) 0.99334(17) 0.95856(5)
O1E O 0.93521(5) 1.00666(17) 1.04144(5)
F2D F 1.17933(4) 1.80122(15) 1.24742(4)
F3D F 1.24045(4) 1.32227(16) 1.32207(5)
O2D O 1.00773(5) 1.29116(18) 1.05767(5)
F4D F 1.22402(4) 1.47478(16) 1.38941(4)
F5D F 1.22789(4) 1.57219(16) 1.24361(4)
F6D F 1.24146(4) 1.73149(16) 1.31979(4)
O3D O 1.01158(5) 1.76596(17) 1.44039(5)
O3A O 1.01158(5) 1.23404(17) 0.94039(5)
O3E O 0.98842(5) 0.76596(17) 1.05961(5)
O4D O 1.06115(5) 1.05072(18) 1.07190(5)
N1F N 1.40390(6) -0.1840(2) 0.95627(6)
N1D N 0.90390(6) 1.3160(2) 0.95627(6)
N2F N 1.35383(5) 0.0588(2) 0.94139(6)
C1D C 1.04622(7) 1.2025(3) 1.08605(7)
C2D C 1.06788(6) 1.4625(2) 1.15648(7)
H1D H 1.0426 1.5331 1.1324
C3D C 1.20222(7) 1.3934(3) 1.33998(7)
C4D C 1.16853(6) 1.5295(2) 1.29715(7)
C5D C 1.14459(7) 1.8063(2) 1.35012(7)
H2D H 1.1703 1.8755 1.3421
C6D C 1.09645(6) 1.5349(2) 1.20757(7)
H3D H 1.0894 1.6527 1.2180
C7D C 1.09621(7) 1.5281(2) 1.34119(7)
H4D H 1.0889 1.4105 1.3264
C8D C 1.13563(6) 1.4334(2) 1.24355(7)
C9D C 1.13532(6) 1.6286(2) 1.32924(7)
C10D C 1.07702(6) 1.2844(3) 1.14110(7)
C11F C 1.36223(7) -0.2183(3) 0.91083(7)
H5F H 1.3563 -0.3269 0.8902
C12F C 1.39741(6) -0.0167(2) 0.97317(7)
H6F H 1.4201 0.0423 1.0033
C13F C 1.29093(7) 0.2393(2) 0.97626(7)
C14D C 1.11578(7) 1.8814(2) 1.38288(7)
H7D H 1.1219 2.0013 1.3961
C15D C 1.14481(7) 1.2560(2) 1.22781(7)
H8D H 1.1708 1.1867 1.2512
C16D C 1.20461(7) 1.6595(2) 1.27707(7)
C17F C 1.33382(7) 0.2406(2) 0.94843(8)
H9F H 1.3614 0.3155 0.9710
H10F H 1.3217 0.2979 0.9116
C18F C 1.33128(7) -0.0693(3) 0.90091(7)
H11F H 1.3009 -0.0561 0.8725
C19F C 1.28045(7) 0.4015(3) 1.00028(8)
H12F H 1.3008 0.5041 1.0008
C20D C 1.11541(7) 1.1820(2) 1.17749(8)
H13D H 1.1214 1.0622 1.1679
C21F C 1.26025(7) 0.0875(3) 0.97640(8)
H14F H 1.2670 -0.0227 0.9607
C22D C 1.07793(6) 1.7784(2) 1.39601(7)
C23D C 1.04887(6) 1.8581(2) 1.43410(7)
C24D C 1.06806(7) 1.6010(3) 1.37475(7)
H15D H 1.0426 1.5314 1.3831
loop_
_geom_bond_atom_site_label_1
_geom_bond_atom_site_label_2
_geom_bond_site_symmetry_1
_geom_bond_site_symmetry_2
Co1 O2 1_555 1_555
F1 C3 1_555 1_555
O1 C23 1_555 1_555
F2 C16 1_555 1_555
F3 C3 1_555 1_555
O2 C1 1_555 1_555
F4 C3 1_555 1_555
F5 C16 1_555 1_555
F6 C16 1_555 1_555
O3 C23 1_555 1_555
O4 C1 1_555 1_555
N1 Co1 1_555 1_555
N2 C12 1_555 1_555
C1 C10 1_555 1_555
C2 H1 1_555 1_555
C3 C4 1_555 1_555
C4 C8 1_555 1_555
C5 H2 1_555 1_555
C6 C2 1_555 1_555
H3 C6 1_555 1_555
C7 H4 1_555 1_555
C8 C6 1_555 1_555
C9 C4 1_555 1_555
C10 C2 1_555 1_555
C11 N1 1_555 1_555
H5 C11 1_555 1_555
C12 N1 1_555 1_555
H6 C12 1_555 1_555
C13 C17 1_555 1_555
C14 C5 1_555 1_555
H7 C14 1_555 1_555
C15 C8 1_555 1_555
H8 C15 1_555 1_555
C16 C4 1_555 1_555
C17 N2 1_555 1_555
H9 C17 1_555 1_555
H10 C17 1_555 1_555
C18 N2 1_555 1_555
H11 C18 1_555 1_555
C19 C13 1_555 1_555
H12 C19 1_555 1_555
C20 C10 1_555 1_555
H13 C20 1_555 1_555
C21 C13 1_555 1_555
H14 C21 1_555 1_555
C22 C14 1_555 1_555
C23 C22 1_555 1_555
C24 C7 1_555 1_555
H15 C24 1_555 1_555
Co1D Co1 1_555 1_555
Co1A O1 1_555 1_555
Co1A_2 Co1E_2 1_555 1_555
Co1E O3 1_555 1_555
Co1E_2 O1D 1_555 1_555
Co1F N1F 1_555 1_555
F1D C3D 1_555 1_555
O1D C23D 1_555 1_555
O1A Co1 1_555 1_555
O1E Co1D 1_555 1_555
F2D C16D 1_555 1_555
F3D C3D 1_555 1_555
O2D Co1D 1_555 1_555
F4D C3D 1_555 1_555
F5D C16D 1_555 1_555
F6D C16D 1_555 1_555
O3D Co1A_2 1_555 1_555
O3A Co1D 1_555 1_555
O3E Co1 1_555 1_555
O4D Co1 1_555 1_555
N1F C11F 1_555 1_555
N1D Co1D 1_555 1_555
N2F C12F 1_555 1_555
C1D O2D 1_555 1_555
C2D H1D 1_555 1_555
C3D C4D 1_555 1_555
C4D C8D 1_555 1_555
C5D H2D 1_555 1_555
C6D C2D 1_555 1_555
H3D C6D 1_555 1_555
C7D H4D 1_555 1_555
C8D C6D 1_555 1_555
C9D C4D 1_555 1_555
C10D C1D 1_555 1_555
C11F H5F 1_555 1_555
C12F N1F 1_555 1_555
H6F C12F 1_555 1_555
C13F C17F 1_555 1_555
C14D C5D 1_555 1_555
H7D C14D 1_555 1_555
C15D C8D 1_555 1_555
H8D C15D 1_555 1_555
C16D C4D 1_555 1_555
C17F N2F 1_555 1_555
H9F C17F 1_555 1_555
H10F C17F 1_555 1_555
C18F N2F 1_555 1_555
H11F C18F 1_555 1_555
C19F C21 1_555 1_555
H12F C19F 1_555 1_555
C20D C10D 1_555 1_555
H13D C20D 1_555 1_555
C21F C19 1_555 1_555
H14F C21F 1_555 1_555
C22D C14D 1_555 1_555
C23D O3D 1_555 1_555
C24D C7D 1_555 1_555
H15D C24D 1_555 1_555
O4 Co1D 1_555 1_555
C5 C9 1_555 1_555
C7 C9 1_555 1_555
C11 C18 1_555 1_555
C15 C20 1_555 1_555
C22 C24 1_555 1_555
Co1A Co1E 1_555 1_555
O4D C1D 1_555 1_555
C2D C10D 1_555 1_555
C5D C9D 1_555 1_555
C7D C9D 1_555 1_555
C11F C18F 1_555 1_555
C13F C19F 1_555 1_555
C13F C21F 1_555 1_555
C15D C20D 1_555 1_555
C22D C23D 1_555 1_555
C22D C24D 1_555 1_555

#END
