
#######################################################################
#
#                 Cambridge Crystallographic Data Centre
#                                CCDC 
#
#######################################################################
#
# If this CIF has been generated from an entry in the Cambridge 
# Structural Database, then it will include bibliographic, chemical, 
# crystal, experimental, refinement or atomic coordinate data resulting 
# from the CCDC's data processing and validation procedures.
#
#######################################################################

data_POHMAC
_chemical_formula_moiety         '(C24 H20 Gd2 O18)n'
_symmetry_cell_setting           monoclinic
_symmetry_space_group_name_H-M   'P 21/c'
_symmetry_Int_Tables_number      14
_space_group_name_Hall           '-P 2ybc'
loop_
_symmetry_equiv_pos_site_id
_symmetry_equiv_pos_as_xyz
1 x,y,z
2 -x,1/2+y,1/2-z
3 -x,-y,-z
4 x,1/2-y,1/2+z
_cell_length_a                   8.783(5)
_cell_length_b                   18.952(9)
_cell_length_c                   9.285(5)
_cell_angle_alpha                90
_cell_angle_beta                 109.398(9)
_cell_angle_gamma                90
_cell_volume                     1457.8
loop_
_atom_site_label
_atom_site_type_symbol
_atom_site_fract_x
_atom_site_fract_y
_atom_site_fract_z
Gd1 Gd -0.21026(3) 0.446883(13) 0.51511(3)
O1 O -0.2678(7) 0.3809(3) 0.7168(6)
H1 H -0.2343 0.3344 0.7050
H2 H -0.2546 0.4093 0.8071
C1 C -0.1037(7) 0.4514(3) 0.2449(6)
O2 O -0.3032(6) 0.5546(2) 0.3672(6)
H3 H -0.3614 0.5624 0.2609
H4 H -0.2462 0.5801 0.4399
C2 C -0.0561(6) 0.4741(3) 0.1130(6)
O3 O -0.0052(5) 0.4646(2) 0.3784(4)
C3 C -0.1203(7) 0.5354(3) 0.0347(6)
H5 H -0.2014 0.5589 0.0591
O4 O -0.2391(5) 0.4250(3) 0.2288(5)
C4 C 0.0673(7) 0.4374(3) 0.0785(7)
O5 O -0.1518(6) 0.1826(2) -0.0027(5)
C5 C 0.1278(6) 0.3684(3) 0.1551(6)
O6 O 0.0369(5) 0.1182(2) 0.1551(5)
C6 C 0.0342(7) 0.3085(3) 0.0978(7)
H6 H -0.0615 0.3129 0.0163
O7 O 0.3255(5) 0.4833(2) 0.3400(5)
C7 C 0.0827(7) 0.2424(3) 0.1614(7)
O8 O 0.5320(5) 0.4080(2) 0.3883(5)
C8 C 0.2235(8) 0.2357(3) 0.2859(8)
H7 H 0.2549 0.1918 0.3310
C9 C 0.3165(8) 0.2949(3) 0.3421(8)
H8 H 0.4103 0.2905 0.4259
C10 C 0.2722(7) 0.3610(3) 0.2752(7)
C11 C 0.3836(7) 0.4226(3) 0.3400(7)
C12 C -0.0178(7) 0.1782(3) 0.0994(7)
C1B C 0.1037(7) 0.5486(3) -0.2449(6)
C2B C 0.0561(6) 0.5259(3) -0.1130(6)
O3B O 0.0052(5) 0.5354(2) -0.3784(4)
C3B C 0.1203(7) 0.4646(3) -0.0347(6)
H5B H 0.2014 0.4411 -0.0591
O4B O 0.2391(5) 0.5750(3) -0.2288(5)
C4B C -0.0673(7) 0.5626(3) -0.0785(7)
O5B O 0.1518(6) 0.8174(2) 0.0027(5)
C5B C -0.1278(6) 0.6316(3) -0.1551(6)
O6B O -0.0369(5) 0.8818(2) -0.1551(5)
C6B C -0.0342(7) 0.6915(3) -0.0978(7)
H6B H 0.0615 0.6871 -0.0163
O7B O -0.3255(5) 0.5167(2) -0.3400(5)
C7B C -0.0827(7) 0.7576(3) -0.1614(7)
O8B O -0.5320(5) 0.5920(2) -0.3883(5)
C8B C -0.2235(8) 0.7643(3) -0.2859(8)
H7B H -0.2549 0.8082 -0.3310
C9B C -0.3165(8) 0.7051(3) -0.3421(8)
H8B H -0.4103 0.7095 -0.4259
C10B C -0.2722(7) 0.6390(3) -0.2752(7)
C11B C -0.3836(7) 0.5774(3) -0.3400(7)
C12B C 0.0178(7) 0.8218(3) -0.0994(7)
Gd1B Gd -0.78974(3) 0.553117(13) -0.51511(3)
O1B O -0.7322(7) 0.6191(3) -0.7168(6)
H1B H -0.7657 0.6656 -0.7050
H2B H -0.7454 0.5907 -0.8071
O2B O -0.6968(6) 0.4454(2) -0.3672(6)
H3B H -0.6386 0.4376 -0.2609
H4B H -0.7538 0.4199 -0.4399
Gd1_2 Gd -0.21026(3) 0.446883(13) -0.48489(3)
Gd1_3 Gd 0.78974(3) 0.446883(13) 0.51511(3)
Gd1A Gd 0.21026(3) 0.946883(13) -0.01511(3)
Gd1B_2 Gd 0.21026(3) 0.553117(13) -0.51511(3)
Gd1B_3 Gd 0.21026(3) 0.553117(13) 0.48489(3)
Gd1C Gd -0.21026(3) 0.053117(13) 0.01511(3)
O3_2 O -1.0052(5) 0.4646(2) -0.6216(4)
O3B_2 O -0.9948(5) 0.5354(2) -0.3784(4)
O3B_3 O 0.0052(5) 0.5354(2) 0.6216(4)
O4B_2 O -0.7609(5) 0.5750(3) -0.2288(5)
O5A O -0.8482(6) 0.6826(2) -0.4973(5)
O5C O -0.1518(6) 0.3174(2) 0.4973(5)
O6A O -1.0369(5) 0.6182(2) -0.6551(5)
O6C O 0.0369(5) 0.3818(2) 0.6551(5)
O7_2 O -0.6745(5) 0.4833(2) -0.6600(5)
O7B_2 O -0.3255(5) 0.5167(2) 0.6600(5)
O8_2 O -0.4680(5) 0.4080(2) 0.3883(5)
O9 O 0.3554(17) 0.7645(7) 0.3009(14)
O10 O 0.5378(12) 0.4105(5) 0.9229(11)
loop_
_geom_bond_atom_site_label_1
_geom_bond_atom_site_label_2
_geom_bond_site_symmetry_1
_geom_bond_site_symmetry_2
Gd1 O1 1_555 1_555
O1 H1 1_555 1_555
H2 O1 1_555 1_555
C1 C2 1_555 1_555
O2 Gd1 1_555 1_555
H3 O2 1_555 1_555
H4 O2 1_555 1_555
C2 C3 1_555 1_555
O3 Gd1 1_555 1_555
C3 H5 1_555 1_555
O4 Gd1 1_555 1_555
C4 C2 1_555 1_555
O5 C12 1_555 1_555
C5 C4 1_555 1_555
O6 C12 1_555 1_555
C6 C5 1_555 1_555
H6 C6 1_555 1_555
O7 C11 1_555 1_555
C7 C6 1_555 1_555
O8 C11 1_555 1_555
C8 C7 1_555 1_555
H7 C8 1_555 1_555
C9 C8 1_555 1_555
H8 C9 1_555 1_555
C10 C5 1_555 1_555
C11 C10 1_555 1_555
C12 C7 1_555 1_555
C1B C2B 1_555 1_555
C2B C3B 1_555 1_555
O3B C1B 1_555 1_555
C3B C4 1_555 1_555
H5B C3B 1_555 1_555
O4B C1B 1_555 1_555
C4B C3 1_555 1_555
O5B C12B 1_555 1_555
C5B C4B 1_555 1_555
O6B C12B 1_555 1_555
C6B C5B 1_555 1_555
H6B C6B 1_555 1_555
O7B C11B 1_555 1_555
C7B C6B 1_555 1_555
O8B C11B 1_555 1_555
C8B C7B 1_555 1_555
H7B C8B 1_555 1_555
C9B C8B 1_555 1_555
H8B C9B 1_555 1_555
C10B C5B 1_555 1_555
C11B C10B 1_555 1_555
C12B C7B 1_555 1_555
Gd1B O8B 1_555 1_555
O1B Gd1B 1_555 1_555
H1B O1B 1_555 1_555
H2B O1B 1_555 1_555
O2B Gd1B 1_555 1_555
H3B O2B 1_555 1_555
H4B O2B 1_555 1_555
Gd1_2 O3B 1_555 1_555
Gd1_3 O8 1_555 1_555
Gd1A O5B 1_555 1_555
Gd1B_2 O3B 1_555 1_555
Gd1B_3 O3 1_555 1_555
Gd1C O5 1_555 1_555
O3_2 Gd1B 1_555 1_555
O3B_2 Gd1B 1_555 1_555
O3B_3 Gd1 1_555 1_555
O4B_2 Gd1B 1_555 1_555
O5A Gd1B 1_555 1_555
O5C Gd1 1_555 1_555
O6A Gd1B 1_555 1_555
O6C Gd1 1_555 1_555
O7_2 Gd1B 1_555 1_555
O7B_2 Gd1 1_555 1_555
O8_2 Gd1 1_555 1_555
C1 O3 1_555 1_555
C1 O4 1_555 1_555
O6 Gd1C 1_555 1_555
O7 Gd1B_3 1_555 1_555
C9 C10 1_555 1_555
C2B C4B 1_555 1_555
O4B Gd1B_2 1_555 1_555
O6B Gd1A 1_555 1_555
O7B Gd1_2 1_555 1_555
C9B C10B 1_555 1_555
Gd1B_3 O3B_3 1_555 1_555

#END
