
#######################################################################
#
#                 Cambridge Crystallographic Data Centre
#                                CCDC 
#
#######################################################################
#
# If this CIF has been generated from an entry in the Cambridge 
# Structural Database, then it will include bibliographic, chemical, 
# crystal, experimental, refinement or atomic coordinate data resulting 
# from the CCDC's data processing and validation procedures.
#
#######################################################################

data_EJATIS
_chemical_formula_moiety         '(C8 H30 Fe6 N4 O34 P8)n'
_symmetry_cell_setting           triclinic
_symmetry_space_group_name_H-M   'P -1'
_symmetry_Int_Tables_number      2
_space_group_name_Hall           '-P 1'
loop_
_symmetry_equiv_pos_site_id
_symmetry_equiv_pos_as_xyz
1 x,y,z
2 -x,-y,-z
_cell_length_a                   6.3554(16)
_cell_length_b                   9.166(2)
_cell_length_c                   15.311(4)
_cell_angle_alpha                90.270(4)
_cell_angle_beta                 91.338(4)
_cell_angle_gamma                106.594(4)
_cell_volume                     854.481
loop_
_atom_site_label
_atom_site_type_symbol
_atom_site_fract_x
_atom_site_fract_y
_atom_site_fract_z
N1 N -0.5124(7) 0.3464(5) 0.4750(3)
H3 H -0.5593 0.2943 0.5247
H4 H -0.4960 0.2786 0.4340
C1 C -0.2964(8) 0.4610(6) 0.4932(3)
H5 H -0.2383 0.5099 0.4385
H6 H -0.1920 0.4097 0.5168
C2 C -0.6818(8) 0.4204(6) 0.4430(3)
H7 H -0.6392 0.4675 0.3864
H8 H -0.8237 0.3430 0.4350
C2A C -0.3182(8) 0.5796(6) 0.5570(3)
N1A N -0.4876(7) 0.6536(5) 0.5250(3)
H3A H -0.4407 0.7057 0.4753
H4A H -0.5040 0.7214 0.5660
C1A C -0.7036(8) 0.5390(6) 0.5068(3)
H5A H -0.7617 0.4901 0.5615
H6A H -0.8080 0.5903 0.4832
H7A H -0.3608 0.5325 0.6136
H8A H -0.1763 0.6570 0.5650
N2 N -0.5027(8) -0.3703(5) -0.0505(3)
H9 H -0.5287 -0.3293 -0.1023
H10 H -0.4581 -0.2934 -0.0104
C3 C -0.3286(11) -0.4442(7) -0.0610(4)
H11 H -0.3704 -0.5205 -0.1081
H12 H -0.1927 -0.3682 -0.0771
C4 C -0.7093(9) -0.4812(7) -0.0215(6)
H13 H -0.8209 -0.4280 -0.0125
H14 H -0.7647 -0.5588 -0.0672
C4A C -0.2907(9) -0.5188(7) 0.0215(6)
N2A N -0.4973(8) -0.6297(5) 0.0505(3)
H9A H -0.4713 -0.6707 0.1023
H10A H -0.5419 -0.7066 0.0104
C3A C -0.6714(11) -0.5558(7) 0.0610(4)
H11A H -0.6296 -0.4795 0.1081
H12A H -0.8073 -0.6318 0.0771
H13A H -0.1791 -0.5720 0.0125
H14A H -0.2353 -0.4412 0.0672
Fe1 Fe -0.23468(9) 0.03711(6) 0.38230(4)
Fe2 Fe -0.25269(10) 0.04156(8) 0.12640(4)
Fe3 Fe 0.12952(9) -0.31140(6) 0.24959(4)
P1 P -0.34494(17) -0.22356(12) 0.27779(7)
O1 O -0.1736(5) -0.2939(4) 0.2421(2)
O2 O -0.3194(4) -0.1937(3) 0.37748(18)
O3 O -0.3072(5) -0.0585(3) 0.24361(19)
O4 O -0.5678(5) -0.3289(3) 0.25099(19)
O5 O -0.1581(5) 0.2429(3) 0.33639(18)
O6 O 0.0224(5) 0.4736(3) 0.2530(2)
P2 P -0.1787(2) 0.33615(15) 0.25889(9)
O7 O -0.2635(11) 0.2540(7) 0.1767(4)
O9 O -0.3835(7) 0.3966(5) 0.2721(5)
H1 H -0.3168 0.4967 0.2612
P4 P -0.6645(4) -0.1253(3) 0.07954(14)
O12 O -0.4485(9) -0.1691(7) 0.0683(4)
O13 O 0.0718(9) 0.1126(7) 0.1796(4)
O16 O -0.5745(5) 0.0201(4) 0.1087(3)
O17 O -0.8181(6) -0.1324(4) -0.0120(2)
O18 O -0.8360(5) -0.2406(3) 0.13311(19)
P6 P -0.77599(17) -0.05024(12) 0.40192(7)
O19 O -0.8145(5) -0.2051(4) 0.3563(2)
O20 O -0.5386(5) 0.0478(3) 0.3909(2)
O21 O -0.9248(5) 0.0387(3) 0.3629(2)
O22 O -0.8262(5) -0.0848(4) 0.49774(19)
P6_2 P 0.22401(17) -0.05024(12) 0.40192(7)
O19_2 O 0.1855(5) -0.2051(4) 0.3563(2)
O20_2 O 0.4614(5) 0.0478(3) 0.3909(2)
O21_2 O 0.0752(5) 0.0387(3) 0.3629(2)
O22_2 O 0.1738(5) -0.0848(4) 0.49774(19)
Fe1_2 Fe 0.76532(9) 0.03711(6) 0.38230(4)
Fe3_2 Fe -0.87048(9) -0.31140(6) 0.24959(4)
P4A P -0.3355(4) 0.1253(3) -0.07954(14)
O12A O -0.5515(9) 0.1691(7) -0.0683(4)
O16A O -0.4255(5) -0.0201(4) -0.1087(3)
O17A O -0.1819(6) 0.1324(4) 0.0120(2)
O18A O -0.1640(5) 0.2406(3) -0.13311(19)
P1_2 P 0.65506(17) -0.22356(12) 0.27779(7)
O1_2 O 0.8264(5) -0.2939(4) 0.2421(2)
O2_2 O 0.6806(4) -0.1937(3) 0.37748(18)
O3_2 O 0.6928(5) -0.0585(3) 0.24361(19)
O4_2 O 0.4322(5) -0.3289(3) 0.25099(19)
O5_2 O -0.1581(5) -0.7571(3) 0.33639(18)
O6_2 O 0.0224(5) -0.5264(3) 0.2530(2)
P2_2 P -0.1787(2) -0.66385(15) 0.25889(9)
O7_2 O -0.2635(11) -0.7460(7) 0.1767(4)
O9_2 O -0.3835(7) -0.6034(5) 0.2721(5)
H1_2 H -0.3168 -0.5033 0.2612
Fe2_2 Fe 0.74731(10) 0.04156(8) 0.12640(4)
O13_2 O 1.0718(9) 0.1126(7) 0.1796(4)
O22A O -0.1738(5) 0.0848(4) 0.50226(19)
O18_2 O 0.1640(5) -0.2406(3) 0.13311(19)
Fe3_3 Fe 0.12952(9) 0.68860(6) 0.24959(4)
Fe2A Fe -0.74731(10) -0.04156(8) -0.12640(4)
Fe1_3 Fe -1.23468(9) 0.03711(6) 0.38230(4)
Fe1A Fe -0.76532(9) -0.03711(6) 0.61770(4)
Fe1A_2 Fe 0.23468(9) -0.03711(6) 0.61770(4)
O5_3 O 0.8419(5) 0.2429(3) 0.33639(18)
O21_3 O 1.0752(5) 0.0387(3) 0.3629(2)
O22A_2 O 0.8262(5) 0.0848(4) 0.50226(19)
O1_3 O -1.1736(5) -0.2939(4) 0.2421(2)
O6_3 O -0.9776(5) -0.5264(3) 0.2530(2)
Fe3A Fe -0.12952(9) 0.31140(6) -0.24959(4)
Fe3_4 Fe 1.12952(9) -0.31140(6) 0.24959(4)
Fe1_4 Fe -0.23468(9) -0.96289(6) 0.38230(4)
Fe2_3 Fe -0.25269(10) -0.95844(8) 0.12640(4)
O7_3 O 0.7365(11) 0.2540(7) 0.1767(4)
O12_2 O 0.5515(9) -0.1691(7) 0.0683(4)
O16_2 O 0.4255(5) 0.0201(4) 0.1087(3)
O17A_2 O 0.8181(6) 0.1324(4) 0.0120(2)
loop_
_geom_bond_atom_site_label_1
_geom_bond_atom_site_label_2
_geom_bond_site_symmetry_1
_geom_bond_site_symmetry_2
Fe1 O2 1_555 1_555
Fe2 O3 1_555 1_555
Fe3 O1 1_555 1_555
P1 O1 1_555 1_555
O2 P1 1_555 1_555
O3 Fe1 1_555 1_555
O4 P1 1_555 1_555
O5 Fe1 1_555 1_555
O6 P2 1_555 1_555
P2 O5 1_555 1_555
O7 Fe2 1_555 1_555
O9 P2 1_555 1_555
H1 O9 1_555 1_555
P4 O12 1_555 1_555
O12 Fe2 1_555 1_555
O13 Fe2 1_555 1_555
O16 Fe2 1_555 1_555
O17 P4 1_555 1_555
O18 P4 1_555 1_555
P6 O19 1_555 1_555
O19 Fe3_2 1_555 1_555
O20 Fe1 1_555 1_555
O21 P6 1_555 1_555
O22 P6 1_555 1_555
N1 H3 1_555 1_555
H4 N1 1_555 1_555
C1 N1 1_555 1_555
H5 C1 1_555 1_555
H6 C1 1_555 1_555
C2 N1 1_555 1_555
H7 C2 1_555 1_555
H8 C2 1_555 1_555
N2 H9 1_555 1_555
H10 N2 1_555 1_555
C3 N2 1_555 1_555
H11 C3 1_555 1_555
H12 C3 1_555 1_555
C4 N2 1_555 1_555
H13 C4 1_555 1_555
H14 C4 1_555 1_555
C2A C1 1_555 1_555
N1A C2A 1_555 1_555
H3A N1A 1_555 1_555
H4A N1A 1_555 1_555
C1A C2 1_555 1_555
H5A C1A 1_555 1_555
H6A C1A 1_555 1_555
H7A C2A 1_555 1_555
H8A C2A 1_555 1_555
C4A C3 1_555 1_555
N2A C4A 1_555 1_555
H9A N2A 1_555 1_555
H10A N2A 1_555 1_555
C3A C4 1_555 1_555
H11A C3A 1_555 1_555
H12A C3A 1_555 1_555
H13A C4A 1_555 1_555
H14A C4A 1_555 1_555
P6_2 O19_2 1_555 1_555
O19_2 Fe3 1_555 1_555
O20_2 P6_2 1_555 1_555
O21_2 Fe1 1_555 1_555
O22_2 P6_2 1_555 1_555
Fe1_2 O20_2 1_555 1_555
Fe3_2 O4 1_555 1_555
P4A O12A 1_555 1_555
O12A Fe2A 1_555 1_555
O16A P4A 1_555 1_555
O17A Fe2 1_555 1_555
O18A P4A 1_555 1_555
P1_2 O1_2 1_555 1_555
O1_2 Fe3_4 1_555 1_555
O2_2 Fe1_2 1_555 1_555
O3_2 Fe1_2 1_555 1_555
O4_2 Fe3 1_555 1_555
O5_2 P2_2 1_555 1_555
O6_2 Fe3 1_555 1_555
P2_2 O6_2 1_555 1_555
O7_2 P2_2 1_555 1_555
O9_2 P2_2 1_555 1_555
H1_2 O9_2 1_555 1_555
Fe2_2 O3_2 1_555 1_555
O13_2 Fe2_2 1_555 1_555
O22A Fe1 1_555 1_555
O18_2 Fe3 1_555 1_555
Fe3_3 O6 1_555 1_555
Fe2A O17 1_555 1_555
Fe1_3 O21 1_555 1_555
Fe1A O22 1_555 1_555
Fe1A_2 O22_2 1_555 1_555
O5_3 Fe1_2 1_555 1_555
O21_3 Fe1_2 1_555 1_555
O22A_2 Fe1_2 1_555 1_555
O1_3 Fe3_2 1_555 1_555
O6_3 Fe3_2 1_555 1_555
Fe3A O18A 1_555 1_555
Fe1_4 O5_2 1_555 1_555
Fe2_3 O7_2 1_555 1_555
O7_3 Fe2_2 1_555 1_555
O12_2 Fe2_2 1_555 1_555
O16_2 Fe2_2 1_555 1_555
O17A_2 Fe2_2 1_555 1_555
P1 O3 1_555 1_555
P2 O7 1_555 1_555
P4 O16 1_555 1_555
O18 Fe3_2 1_555 1_555
P6 O20 1_555 1_555
N1A C1A 1_555 1_555
N2A C3A 1_555 1_555
P6_2 O21_2 1_555 1_555
P4A O17A 1_555 1_555
O16A Fe2A 1_555 1_555
P1_2 O2_2 1_555 1_555
P1_2 O3_2 1_555 1_555
P1_2 O4_2 1_555 1_555

#END
