
#######################################################################
#
#                 Cambridge Crystallographic Data Centre
#                                CCDC 
#
#######################################################################
#
# If this CIF has been generated from an entry in the Cambridge 
# Structural Database, then it will include bibliographic, chemical, 
# crystal, experimental, refinement or atomic coordinate data resulting 
# from the CCDC's data processing and validation procedures.
#
#######################################################################

data_AMILUE
_chemical_formula_moiety         '(C63 H55 N9 O17 Zn4)n'
_symmetry_cell_setting           monoclinic
_symmetry_space_group_name_H-M   'C c'
_symmetry_Int_Tables_number      9
_space_group_name_Hall           'C -2yc'
loop_
_symmetry_equiv_pos_site_id
_symmetry_equiv_pos_as_xyz
1 x,y,z
2 x,-y,1/2+z
3 1/2+x,1/2+y,z
4 1/2+x,1/2-y,1/2+z
_cell_length_a                   24.8414(6)
_cell_length_b                   31.1031(8)
_cell_length_c                   12.3400(3)
_cell_angle_alpha                90
_cell_angle_beta                 97.318(1)
_cell_angle_gamma                90
_cell_volume                     9456.77
loop_
_atom_site_label
_atom_site_type_symbol
_atom_site_fract_x
_atom_site_fract_y
_atom_site_fract_z
Zn1 Zn 0.179252(12) 0.255647(10) 0.38810(2)
Zn2 Zn 0.228409(12) 0.245275(10) 0.19120(2)
Zn3 Zn 0.026024(14) 0.365803(10) 0.58950(2)
Zn4 Zn 0.381980(14) -0.130740(11) 0.49994(2)
O1 O 0.44730(19) -0.07940(7) 0.5379(3)
C1 C 0.43864(18) -0.04760(12) 0.5914(4)
H1 H 0.4171 -0.0511 0.6491
N1 N 0.45706(17) -0.00917(10) 0.5745(3)
C2 C 0.4494(3) 0.02631(16) 0.6519(7)
H2 H 0.4662 0.0526 0.6282
H3 H 0.4664 0.0185 0.7253
H4 H 0.4105 0.0312 0.6533
C3 C 0.4867(4) 0.0010(2) 0.4858(7)
H5 H 0.4971 0.0314 0.4898
H6 H 0.4639 -0.0046 0.4164
H7 H 0.5194 -0.0169 0.4904
N2 N 0.14120(11) 0.26467(9) 0.5264(2)
N3 N 0.07635(12) 0.30939(8) 0.6085(2)
N4 N 0.07710(17) 0.23115(11) 0.6338(3)
N5 N 0.15009(16) 0.27425(13) 0.7240(2)
C4 C 0.10622(12) 0.30359(9) 0.5140(2)
H8 H 0.1290 0.3292 0.5062
H9 H 0.0801 0.3009 0.4467
C5 C 0.10604(16) 0.22642(10) 0.5397(3)
H10 H 0.0796 0.2229 0.4731
H11 H 0.1288 0.2002 0.5484
C6 C 0.17986(16) 0.26961(14) 0.6280(3)
H12 H 0.2039 0.2441 0.6378
H13 H 0.2028 0.2953 0.6218
C7 C 0.04226(18) 0.26978(11) 0.6177(4)
H14 H 0.0212 0.2730 0.6801
H15 H 0.0163 0.2664 0.5504
C8 C 0.1169(3) 0.23702(16) 0.7313(4)
H16 H 0.0975 0.2397 0.7962
H17 H 0.1404 0.2113 0.7414
C9 C 0.11595(17) 0.31287(13) 0.7089(3)
H18 H 0.1392 0.3384 0.7035
H19 H 0.0962 0.3167 0.7730
N6 N 0.26440(10) 0.23369(8) 0.0520(2)
N7 N 0.33009(11) 0.18744(8) -0.0262(2)
N8 N 0.32616(16) 0.26442(10) -0.0656(3)
N9 N 0.25124(14) 0.21741(12) -0.1430(2)
C10 C 0.30085(12) 0.19553(9) 0.0695(2)
H20 H 0.3276 0.2003 0.1351
H21 H 0.2791 0.1699 0.0830
C11 C 0.29781(16) 0.27143(10) 0.0285(3)
H22 H 0.2740 0.2969 0.0152
H23 H 0.3246 0.2775 0.0931
C12 C 0.22453(15) 0.22538(12) -0.0482(3)
H24 H 0.2018 0.2002 -0.0350
H25 H 0.2003 0.2506 -0.0621
C13 C 0.36119(15) 0.22715(10) -0.0466(3)
H26 H 0.3887 0.2327 0.0172
H27 H 0.3805 0.2225 -0.1110
C14 C 0.2844(2) 0.25490(15) -0.1616(4)
H28 H 0.2605 0.2802 -0.1767
H29 H 0.3030 0.2497 -0.2269
C15 C 0.28753(16) 0.18034(12) -0.1223(3)
H30 H 0.3055 0.1747 -0.1881
H31 H 0.2658 0.1547 -0.1086
O2 O 0.25876(11) 0.26405(11) 0.4472(2)
O3 O 0.29832(12) 0.25322(9) 0.2953(2)
C16 C 0.29988(14) 0.26003(10) 0.3963(3)
C17 C 0.35467(14) 0.26263(11) 0.4646(3)
C18 C 0.40025(14) 0.26009(13) 0.4185(3)
H32 H 0.3981 0.2580 0.3413
C19 C 0.45238(15) 0.26039(13) 0.4829(3)
C20 C 0.45508(13) 0.26350(11) 0.5970(3)
C21 C 0.40604(16) 0.26735(19) 0.6442(3)
H33 H 0.4072 0.2698 0.7212
C22 C 0.35690(17) 0.26760(19) 0.5788(3)
H34 H 0.3243 0.2711 0.6105
C23 C 0.50068(16) 0.2570(2) 0.4366(3)
H35 H 0.4993 0.2544 0.3596
C24 C 0.54972(16) 0.2574(2) 0.5001(3)
H36 H 0.5820 0.2557 0.4664
C25 C 0.55368(14) 0.26029(11) 0.6150(3)
C26 C 0.50624(13) 0.26236(12) 0.6618(3)
H37 H 0.5080 0.2630 0.7391
C27 C 0.60809(13) 0.25821(10) 0.6821(3)
O4 O 0.64808(11) 0.25860(10) 0.6319(2)
O5 O 0.60921(10) 0.25578(8) 0.78440(19)
O6 O 0.17711(11) 0.31637(7) 0.3296(2)
O7 O 0.22065(13) 0.30959(8) 0.1823(2)
C28 C 0.19445(15) 0.33074(10) 0.2462(3)
C29 C 0.18267(16) 0.37747(10) 0.2177(3)
C30 C 0.1984(3) 0.39442(14) 0.1206(5)
H38 H 0.2171 0.3769 0.0744
C31 C 0.1864(3) 0.43646(15) 0.0934(5)
H39 H 0.1975 0.4481 0.0286
C32 C 0.1578(2) 0.46268(13) 0.1596(4)
C33 C 0.14224(17) 0.44546(10) 0.2559(3)
C34 C 0.15571(15) 0.40203(10) 0.2837(3)
H40 H 0.1457 0.3902 0.3492
C35 C 0.1444(2) 0.50557(13) 0.1294(4)
H41 H 0.1573 0.5179 0.0673
C36 C 0.1127(2) 0.52919(12) 0.1898(4)
C37 C 0.09621(19) 0.51198(12) 0.2851(4)
H42 H 0.0750 0.5289 0.3278
C38 C 0.1105(2) 0.47101(12) 0.3170(4)
H43 H 0.0988 0.4596 0.3815
C39 C 0.0935(2) 0.57341(12) 0.1479(4)
O8 O 0.1168(2) 0.59127(10) 0.0751(3)
O9 O 0.05476(13) 0.58869(9) 0.1869(3)
O10 O 0.19325(11) 0.19150(8) 0.4041(2)
O11 O -0.10964(10) 0.36134(8) 0.66147(19)
O12 O -0.02361(10) 0.34035(7) 0.68567(19)
C40 C -0.06686(13) 0.35170(9) 0.7207(2)
C41 C -0.06774(14) 0.35312(11) 0.8423(2)
C42 C -0.02031(15) 0.35427(12) 0.9105(3)
H44 H 0.0132 0.3542 0.8811
C43 C -0.02053(14) 0.35558(12) 1.0260(3)
C44 C -0.07137(13) 0.35449(11) 1.0687(3)
C45 C -0.12041(15) 0.35414(13) 0.9950(3)
H45 H -0.1544 0.3546 1.0224
C46 C -0.11848(14) 0.35318(13) 0.8846(3)
H46 H -0.1513 0.3526 0.8358
C47 C 0.02793(17) 0.35589(15) 1.0998(3)
H47 H 0.0619 0.3559 1.0720
C48 C 0.02699(15) 0.35610(14) 1.2101(3)
H48 H 0.0599 0.3575 1.2583
C49 C -0.02349(14) 0.35428(10) 1.2524(2)
C50 C -0.07124(14) 0.35404(12) 1.1823(3)
H49 H -0.1048 0.3536 1.2115
C51 C -0.02424(14) 0.35373(9) 1.3724(2)
O13 O 0.01936(11) 0.36483(8) 1.43041(19)
O14 O -0.06647(10) 0.34096(7) 1.4101(2)
O15 O 0.22656(12) 0.18385(7) 0.2459(2)
C52 C 0.21444(13) 0.17013(10) 0.3352(3)
C53 C 0.22885(17) 0.12468(11) 0.3630(3)
C54 C 0.25376(15) 0.09938(10) 0.2920(3)
H50 H 0.2601 0.1107 0.2232
C55 C 0.26990(16) 0.05701(10) 0.3202(3)
C56 C 0.2598(2) 0.03995(12) 0.4208(4)
C57 C 0.2328(3) 0.06552(14) 0.4913(4)
H51 H 0.2247 0.0539 0.5586
C58 C 0.2181(2) 0.10694(14) 0.4637(4)
H52 H 0.2004 0.1239 0.5127
C59 C 0.29783(19) 0.03154(12) 0.2493(4)
H53 H 0.3056 0.0431 0.1817
C60 C 0.3135(2) -0.00959(13) 0.2780(4)
H54 H 0.3318 -0.0264 0.2298
C61 C 0.30276(19) -0.02724(12) 0.3776(4)
C62 C 0.2775(2) -0.00289(13) 0.4474(4)
H55 H 0.2713 -0.0147 0.5157
C63 C 0.3248(2) -0.07010(12) 0.4131(5)
O16 O 0.35205(16) -0.09115(10) 0.3509(4)
O17 O 0.32034(14) -0.08403(9) 0.5056(3)
Zn1C Zn 0.679252(12) 0.244353(10) 0.88810(2)
Zn2C Zn 0.728409(12) 0.254725(10) 0.69120(2)
Zn3A Zn 0.026024(14) 0.634197(10) 0.08950(2)
Zn3_2 Zn 0.026024(14) 0.365803(10) 1.58950(2)
Zn4A Zn 0.381980(14) 0.130740(11) -0.00006(2)
Zn4B Zn -0.118020(14) 0.369260(11) 0.49994(2)
Zn4B_2 Zn -0.118020(14) 0.369260(11) 1.49994(2)
N7A N 0.33009(11) -0.18744(8) 0.4738(2)
O4C O 0.14808(11) 0.24140(10) 0.1319(2)
O5C O 0.10921(10) 0.24422(8) 0.28440(19)
O9A O 0.05476(13) 0.41131(9) 0.6869(3)
O11B O 0.39036(10) -0.13866(8) 0.66147(19)
O13_2 O 0.01936(11) 0.36483(8) 0.43041(19)
O14B O 0.43353(10) -0.15904(7) 0.4101(2)
loop_
_geom_bond_atom_site_label_1
_geom_bond_atom_site_label_2
_geom_bond_site_symmetry_1
_geom_bond_site_symmetry_2
Zn1 N2 1_555 1_555
Zn2 N6 1_555 1_555
Zn3 N3 1_555 1_555
Zn4 O1 1_555 1_555
O1 C1 1_555 1_555
C1 H1 1_555 1_555
N1 C1 1_555 1_555
C2 N1 1_555 1_555
H2 C2 1_555 1_555
H3 C2 1_555 1_555
H4 C2 1_555 1_555
C3 N1 1_555 1_555
H5 C3 1_555 1_555
H6 C3 1_555 1_555
H7 C3 1_555 1_555
N2 C4 1_555 1_555
N3 C4 1_555 1_555
N4 C5 1_555 1_555
N5 C6 1_555 1_555
C4 H8 1_555 1_555
H9 C4 1_555 1_555
C5 N2 1_555 1_555
H10 C5 1_555 1_555
H11 C5 1_555 1_555
C6 N2 1_555 1_555
H12 C6 1_555 1_555
H13 C6 1_555 1_555
C7 N3 1_555 1_555
H14 C7 1_555 1_555
H15 C7 1_555 1_555
C8 N4 1_555 1_555
H16 C8 1_555 1_555
H17 C8 1_555 1_555
C9 N3 1_555 1_555
H18 C9 1_555 1_555
H19 C9 1_555 1_555
N6 C10 1_555 1_555
N7 C10 1_555 1_555
N8 C11 1_555 1_555
N9 C12 1_555 1_555
C10 H20 1_555 1_555
H21 C10 1_555 1_555
C11 N6 1_555 1_555
H22 C11 1_555 1_555
H23 C11 1_555 1_555
C12 N6 1_555 1_555
H24 C12 1_555 1_555
H25 C12 1_555 1_555
C13 N7 1_555 1_555
H26 C13 1_555 1_555
H27 C13 1_555 1_555
C14 N8 1_555 1_555
H28 C14 1_555 1_555
H29 C14 1_555 1_555
C15 N7 1_555 1_555
H30 C15 1_555 1_555
H31 C15 1_555 1_555
O2 Zn1 1_555 1_555
O3 Zn2 1_555 1_555
C16 O2 1_555 1_555
C17 C16 1_555 1_555
C18 C17 1_555 1_555
H32 C18 1_555 1_555
C19 C18 1_555 1_555
C20 C19 1_555 1_555
C21 C20 1_555 1_555
H33 C21 1_555 1_555
C22 C17 1_555 1_555
H34 C22 1_555 1_555
C23 C19 1_555 1_555
H35 C23 1_555 1_555
C24 C23 1_555 1_555
H36 C24 1_555 1_555
C25 C24 1_555 1_555
C26 C20 1_555 1_555
H37 C26 1_555 1_555
C27 C25 1_555 1_555
O4 C27 1_555 1_555
O5 C27 1_555 1_555
O6 Zn1 1_555 1_555
O7 Zn2 1_555 1_555
C28 O6 1_555 1_555
C29 C28 1_555 1_555
C30 C29 1_555 1_555
H38 C30 1_555 1_555
C31 C30 1_555 1_555
H39 C31 1_555 1_555
C32 C31 1_555 1_555
C33 C32 1_555 1_555
C34 C29 1_555 1_555
H40 C34 1_555 1_555
C35 C32 1_555 1_555
H41 C35 1_555 1_555
C36 C35 1_555 1_555
C37 C36 1_555 1_555
H42 C37 1_555 1_555
C38 C33 1_555 1_555
H43 C38 1_555 1_555
C39 C36 1_555 1_555
O8 C39 1_555 1_555
O9 C39 1_555 1_555
O10 Zn1 1_555 1_555
O11 C40 1_555 1_555
O12 Zn3 1_555 1_555
C40 O12 1_555 1_555
C41 C40 1_555 1_555
C42 C41 1_555 1_555
H44 C42 1_555 1_555
C43 C42 1_555 1_555
C44 C43 1_555 1_555
C45 C44 1_555 1_555
H45 C45 1_555 1_555
C46 C41 1_555 1_555
H46 C46 1_555 1_555
C47 C43 1_555 1_555
H47 C47 1_555 1_555
C48 C47 1_555 1_555
H48 C48 1_555 1_555
C49 C48 1_555 1_555
C50 C44 1_555 1_555
H49 C50 1_555 1_555
C51 C49 1_555 1_555
O13 C51 1_555 1_555
O14 C51 1_555 1_555
O15 Zn2 1_555 1_555
C52 O10 1_555 1_555
C53 C52 1_555 1_555
C54 C53 1_555 1_555
H50 C54 1_555 1_555
C55 C54 1_555 1_555
C56 C55 1_555 1_555
C57 C56 1_555 1_555
H51 C57 1_555 1_555
C58 C53 1_555 1_555
H52 C58 1_555 1_555
C59 C55 1_555 1_555
H53 C59 1_555 1_555
C60 C59 1_555 1_555
H54 C60 1_555 1_555
C61 C60 1_555 1_555
C62 C56 1_555 1_555
H55 C62 1_555 1_555
C63 C61 1_555 1_555
O16 Zn4 1_555 1_555
O17 Zn4 1_555 1_555
Zn1C O5 1_555 1_555
Zn2C O4 1_555 1_555
Zn3A O9 1_555 1_555
Zn3_2 O13 1_555 1_555
Zn4A N7 1_555 1_555
Zn4B O11 1_555 1_555
Zn4B_2 O14 1_555 1_555
N7A Zn4 1_555 1_555
O4C Zn2 1_555 1_555
O5C Zn1 1_555 1_555
O9A Zn3 1_555 1_555
O11B Zn4 1_555 1_555
O13_2 Zn3 1_555 1_555
O14B Zn4 1_555 1_555
N4 C7 1_555 1_555
N5 C8 1_555 1_555
N5 C9 1_555 1_555
N8 C13 1_555 1_555
N9 C14 1_555 1_555
N9 C15 1_555 1_555
O3 C16 1_555 1_555
C21 C22 1_555 1_555
C25 C26 1_555 1_555
O7 C28 1_555 1_555
C33 C34 1_555 1_555
C37 C38 1_555 1_555
C45 C46 1_555 1_555
C49 C50 1_555 1_555
O15 C52 1_555 1_555
C57 C58 1_555 1_555
C61 C62 1_555 1_555
C63 O16 1_555 1_555
C63 O17 1_555 1_555

#END
