
#######################################################################
#
#                 Cambridge Crystallographic Data Centre
#                                CCDC 
#
#######################################################################
#
# If this CIF has been generated from an entry in the Cambridge 
# Structural Database, then it will include bibliographic, chemical, 
# crystal, experimental, refinement or atomic coordinate data resulting 
# from the CCDC's data processing and validation procedures.
#
#######################################################################

data_AMIMEP
_chemical_formula_moiety         '(C103 H95 Fe4 N9 O17 Zn4)n'
_symmetry_cell_setting           monoclinic
_symmetry_space_group_name_H-M   'C c'
_symmetry_Int_Tables_number      9
_space_group_name_Hall           'C -2yc'
loop_
_symmetry_equiv_pos_site_id
_symmetry_equiv_pos_as_xyz
1 x,y,z
2 x,-y,1/2+z
3 1/2+x,1/2+y,z
4 1/2+x,1/2-y,1/2+z
_cell_length_a                   24.6659(7)
_cell_length_b                   31.3085(12)
_cell_length_c                   12.2751(5)
_cell_angle_alpha                90
_cell_angle_beta                 96.306(1)
_cell_angle_gamma                90
_cell_volume                     9422.12
loop_
_atom_site_label
_atom_site_type_symbol
_atom_site_fract_x
_atom_site_fract_y
_atom_site_fract_z
Zn1 Zn 0.138766(16) 0.744858(13) 0.18676(3)
Zn2 Zn 0.088562(16) 0.755778(13) 0.38620(3)
Zn3 Zn -0.067340(17) 1.131280(13) 0.07069(3)
Zn4 Zn 0.287107(17) 0.627448(14) -0.01809(3)
N1 N 0.36045(17) 0.50608(11) 0.0562(3)
C41 C 0.34141(17) 0.54494(13) 0.0672(4)
H41 H 0.3220 0.5504 0.1284
C42 C 0.3913(3) 0.49580(19) -0.0346(5)
H42 H 0.4023 0.4657 -0.0300
H43 H 0.4239 0.5139 -0.0310
H44 H 0.3686 0.5009 -0.1040
C43 C 0.3542(2) 0.47236(16) 0.1366(5)
H45 H 0.3711 0.4460 0.1136
H46 H 0.3153 0.4673 0.1414
H47 H 0.3719 0.4812 0.2084
O1 O 0.34716(12) 0.57510(9) 0.0027(2)
C44 C 0.02029(15) 0.73164(11) 0.5569(3)
H48 H -0.0071 0.7242 0.4947
H49 H 0.0450 0.7069 0.5714
C45 C -0.04411(15) 0.77644(12) 0.6324(3)
H50 H -0.0627 0.7823 0.6983
H51 H -0.0724 0.7693 0.5715
C46 C 0.02853(15) 0.82526(12) 0.6960(3)
H52 H 0.0496 0.8506 0.6773
H53 H 0.0106 0.8322 0.7621
C47 C 0.03402(16) 0.75157(12) 0.7454(3)
H54 H 0.0157 0.7574 0.8117
H55 H 0.0590 0.7271 0.7617
C48 C 0.09279(15) 0.78022(12) 0.6235(3)
H56 H 0.1182 0.7560 0.6389
H57 H 0.1144 0.8054 0.6057
C49 C 0.01458(16) 0.80645(12) 0.5059(3)
H58 H 0.0354 0.8320 0.4875
H59 H -0.0126 0.8000 0.4425
N2 N 0.05258(12) 0.76946(9) 0.5266(3)
N3 N -0.00751(13) 0.74004(10) 0.6539(3)
N4 N 0.06599(12) 0.78930(10) 0.7205(2)
N5 N -0.01407(12) 0.81565(9) 0.6032(3)
C50 C 0.14222(16) 0.73433(13) -0.0575(3)
H60 H 0.1160 0.7104 -0.0570
H61 H 0.1211 0.7612 -0.0663
C51 C 0.20969(15) 0.69462(11) 0.0591(3)
H62 H 0.2339 0.6947 0.1290
H63 H 0.1840 0.6704 0.0611
C52 C 0.21800(15) 0.77126(12) 0.0441(3)
H64 H 0.1978 0.7986 0.0369
H65 H 0.2426 0.7722 0.1135
C53 C 0.20541(16) 0.68912(12) -0.1373(3)
H66 H 0.2270 0.6855 -0.2000
H67 H 0.1796 0.6649 -0.1379
C54 C 0.21334(17) 0.76459(13) -0.1488(3)
H68 H 0.1928 0.7918 -0.1586
H69 H 0.2352 0.7614 -0.2113
C55 C 0.28072(15) 0.72641(11) -0.0337(3)
H70 H 0.3053 0.7272 0.0356
H71 H 0.3035 0.7232 -0.0948
N6 N 0.17828(12) 0.73522(10) 0.0489(3)
N7 N 0.24298(13) 0.68841(9) -0.0324(3)
N8 N 0.17465(13) 0.72920(11) -0.1501(3)
N9 N 0.25020(14) 0.76668(10) -0.0469(3)
C56 C 0.10862(15) 0.83115(12) 0.2462(3)
C57 C 0.09679(17) 0.87667(12) 0.2144(3)
C58 C 0.06542(16) 0.90128(12) 0.2757(3)
H72 H 0.0542 0.8902 0.3417
C59 C 0.04957(17) 0.94327(12) 0.2412(3)
C60 C 0.01477(17) 0.96851(13) 0.2997(3)
H73 H 0.0033 0.9581 0.3662
C61 C -0.00230(17) 1.00746(12) 0.2610(3)
H74 H -0.0268 1.0235 0.2994
C62 C 0.05017(17) 1.00124(13) 0.1085(3)
H75 H 0.0626 1.0130 0.0444
C63 C 0.10119(18) 0.93376(13) 0.0844(4)
H76 H 0.1144 0.9446 0.0201
C64 C 0.11459(17) 0.89320(13) 0.1184(4)
H77 H 0.1363 0.8760 0.0765
C65 C 0.01575(16) 1.02440(12) 0.1648(3)
C66 C -0.00456(17) 1.06707(12) 0.1215(3)
C67 C 0.06789(16) 0.95979(12) 0.1439(3)
O2 O 0.13459(11) 0.80937(8) 0.1838(2)
O3 O 0.09011(12) 0.81707(9) 0.3307(2)
O4 O -0.04487(11) 1.08253(9) 0.1646(2)
O5 O 0.01654(13) 1.08514(8) 0.0471(2)
C68 C 0.11812(16) 0.67008(13) 0.3298(4)
C69 C 0.13117(16) 0.62399(12) 0.3524(3)
C70 C 0.15491(17) 0.59967(12) 0.2762(3)
H78 H 0.1606 0.6120 0.2076
C71 C 0.17081(16) 0.55712(12) 0.2983(3)
C72 C 0.16232(18) 0.53870(13) 0.4003(4)
C73 C 0.1381(2) 0.56447(15) 0.4775(4)
H79 H 0.1323 0.5528 0.5467
C74 C 0.12297(19) 0.60544(14) 0.4540(4)
H80 H 0.1067 0.6219 0.5068
C75 C 0.19624(17) 0.53274(13) 0.2214(3)
H81 H 0.2020 0.5449 0.1527
C76 C 0.21258(17) 0.49184(13) 0.2451(4)
H82 H 0.2291 0.4756 0.1924
C77 C 0.18062(19) 0.49619(13) 0.4229(4)
H83 H 0.1758 0.4834 0.4914
C78 C 0.20510(17) 0.47363(13) 0.3466(4)
C79 C 0.22759(18) 0.42937(14) 0.3746(5)
O6 O 0.13014(12) 0.68450(9) 0.2399(2)
O7 O 0.09676(12) 0.69098(8) 0.4008(2)
O8 O 0.24910(14) 0.40870(10) 0.3051(3)
O9 O 0.22592(14) 0.41608(10) 0.4715(3)
C80 C 0.01823(16) 0.74432(12) 0.1794(4)
C81 C -0.03649(16) 0.74116(12) 0.1114(3)
C82 C -0.08399(16) 0.74640(13) 0.1585(3)
H84 H -0.0825 0.7507 0.2354
C83 C -0.13508(16) 0.74544(12) 0.0939(3)
C84 C -0.18513(16) 0.75066(14) 0.1414(3)
H85 H -0.1845 0.7549 0.2181
C85 C -0.18852(16) 0.74053(12) -0.0857(3)
H86 H -0.1901 0.7376 -0.1630
C86 C -0.13700(16) 0.73990(12) -0.0207(3)
C87 C -0.08774(16) 0.73328(13) -0.0672(3)
H87 H -0.0885 0.7282 -0.1437
C88 C -0.03866(16) 0.73413(13) -0.0022(3)
H88 H -0.0058 0.7299 -0.0344
C89 C -0.23578(16) 0.74522(12) -0.0383(3)
C90 C -0.28937(16) 0.74542(12) -0.1065(3)
C91 C -0.23351(16) 0.74956(15) 0.0768(3)
H89 H -0.2665 0.7518 0.1096
O10 O 0.05865(11) 0.74374(10) 0.1264(2)
O11 O 0.01892(11) 0.74709(9) 0.2812(2)
O12 O -0.33170(11) 0.74028(9) -0.0565(2)
O13 O -0.29098(11) 0.75160(9) -0.2075(2)
C92 C -0.16294(16) 1.14287(12) -0.6771(3)
C93 C -0.16310(16) 1.14295(12) -0.7984(3)
C94 C -0.21312(16) 1.14103(13) -0.6314(4)
H90 H -0.2464 1.1399 -0.6782
C95 C -0.21387(17) 1.14081(13) -0.5208(4)
H91 H -0.2478 1.1402 -0.4907
C96 C -0.16418(17) 1.14188(13) -0.3348(3)
H92 H -0.1977 1.1418 -0.3033
C97 C -0.11679(16) 1.14370(11) -0.1465(3)
C98 C -0.16493(16) 1.14142(13) -0.4507(3)
C99 C -0.11403(16) 1.14232(13) -0.4957(3)
C100 C -0.11475(16) 1.14321(13) -0.6104(3)
H93 H -0.0813 1.1441 -0.6420
C101 C -0.06458(17) 1.14224(14) -0.4238(4)
H94 H -0.0306 1.1422 -0.4533
C102 C -0.11578(16) 1.14249(12) -0.2671(3)
C103 C -0.06557(17) 1.14223(14) -0.3133(3)
H95 H -0.0322 1.1420 -0.2665
O14 O -0.16075(11) 1.15448(8) -0.1097(2)
O15 O -0.07329(11) 1.13411(9) -0.0885(2)
O16 O -0.20647(11) 1.13154(9) -0.8549(2)
O17 O -0.12089(11) 1.15609(8) -0.8382(2)
O13C O 0.20902(11) 0.74840(9) 0.2925(2)
O12C O 0.16830(11) 0.75972(9) 0.4435(2)
N5A N -0.01407(12) 1.18435(9) 0.1032(3)
O17_2 O -0.12089(11) 1.15609(8) 0.1618(2)
O9A O 0.22592(14) 0.58392(10) -0.0285(3)
O14B O 0.33925(11) 0.65448(8) -0.1097(2)
O16B O 0.29353(11) 0.63154(9) 0.1451(2)
Zn3A Zn -0.067340(17) 0.868720(13) 0.57069(3)
Zn4A Zn 0.287107(17) 0.372552(14) 0.48191(3)
Zn2C Zn -0.411438(16) 0.744222(13) -0.11380(3)
Zn1C Zn -0.361234(16) 0.755142(13) -0.31324(3)
Zn4B Zn -0.212893(17) 1.127448(14) -0.01809(3)
Zn4B_2 Zn -0.212893(17) 1.127448(14) -1.01809(3)
Zn3_2 Zn -0.067340(17) 1.131280(13) -0.92931(3)
Fe1 Fe 0.69082(3) 0.40714(2) 0.71065(5)
C1 C 0.70707(18) 0.38725(17) 0.8697(4)
H1 H 0.7351 0.3679 0.8965
C2 C 0.7473(2) 0.43033(15) 0.6167(4)
H2 H 0.7758 0.4499 0.6392
C3 C 0.7003(2) 0.36875(19) 0.5800(5)
H3 H 0.6911 0.3393 0.5735
C4 C 0.6948(2) 0.44100(19) 0.5710(4)
H4 H 0.6810 0.4691 0.5579
C5 C 0.7511(2) 0.38495(16) 0.6238(4)
H5 H 0.7820 0.3688 0.6526
C6 C 0.6653(2) 0.4025(2) 0.5474(4)
H6 H 0.6286 0.4001 0.5154
C7 C 0.65227(19) 0.37609(15) 0.8285(4)
H7 H 0.6374 0.3481 0.8240
C8 C 0.6242(2) 0.41417(14) 0.7958(4)
H8 H 0.5873 0.4161 0.7650
C9 C 0.6606(2) 0.44881(15) 0.8166(4)
H9 H 0.6523 0.4780 0.8020
C10 C 0.7120(2) 0.43237(18) 0.8634(4)
H10 H 0.7438 0.4487 0.8861
Fe2 Fe 0.80038(3) 0.41198(2) 0.25028(6)
C11 C 0.7524(2) 0.45319(16) 0.1551(4)
H11 H 0.7305 0.4462 0.0890
C12 C 0.8073(2) 0.46680(15) 0.1632(5)
H12 H 0.8288 0.4705 0.1043
C13 C 0.8242(2) 0.47387(15) 0.2764(6)
H13 H 0.8591 0.4834 0.3071
C14 C 0.7796(2) 0.46426(14) 0.3346(4)
H14 H 0.7791 0.4659 0.4118
C15 C 0.73596(19) 0.45174(15) 0.2581(4)
H15 H 0.7007 0.4436 0.2750
C16 C 0.7999(2) 0.35426(16) 0.1702(5)
H16 H 0.7845 0.3482 0.0976
C17 C 0.8529(2) 0.36721(15) 0.2004(6)
H17 H 0.8796 0.3724 0.1517
C18 C 0.7717(2) 0.35148(15) 0.2668(5)
H18 H 0.7345 0.3441 0.2696
C19 C 0.8108(2) 0.36196(15) 0.3572(5)
H19 H 0.8049 0.3626 0.4324
C20 C 0.8608(2) 0.37140(14) 0.3124(6)
H20 H 0.8941 0.3793 0.3537
Fe3 Fe 0.03240(3) 0.58066(2) 0.79788(8)
C21 C 0.0064(2) 0.53624(16) 0.6820(5)
H21 H 0.0078 0.5387 0.6052
C22 C -0.0370(2) 0.54920(16) 0.7386(7)
H22 H -0.0701 0.5619 0.7071
C23 C -0.0230(2) 0.53996(17) 0.8518(6)
H23 H -0.0447 0.5456 0.9095
C24 C 0.0304(2) 0.52052(16) 0.8627(6)
H24 H 0.0500 0.5107 0.9289
C25 C 0.0481(2) 0.51869(15) 0.7587(6)
H25 H 0.0821 0.5077 0.7419
C26 C 0.0389(3) 0.63267(19) 0.8986(7)
H26 H 0.0224 0.6360 0.9645
C27 C 0.0913(2) 0.61470(17) 0.8894(6)
H27 H 0.1161 0.6041 0.9478
C28 C 0.0993(2) 0.61561(16) 0.7775(5)
H28 H 0.1306 0.6055 0.7469
C29 C 0.0527(2) 0.63404(16) 0.7188(6)
H29 H 0.0472 0.6385 0.6418
C30 C 0.0160(2) 0.64463(16) 0.7933(7)
H30 H -0.0186 0.6577 0.7757
Fe4 Fe -0.06947(9) 0.60550(6) 0.25566(18)
C31 C -0.0592(4) 0.5596(3) 0.1427(7)
H31 H -0.0641 0.5298 0.1520
C32 C -0.0991(4) 0.5880(3) 0.0981(6)
H32 H -0.1358 0.5812 0.0725
C33 C -0.0745(3) 0.6290(3) 0.0982(6)
H33 H -0.0921 0.6546 0.0717
C34 C -0.0195(3) 0.6255(2) 0.1445(7)
H34 H 0.0061 0.6482 0.1549
C35 C -0.0097(3) 0.5826(3) 0.1721(7)
H35 H 0.0238 0.5709 0.2044
C36 C -0.0813(4) 0.5753(4) 0.4014(10)
H36 H -0.0801 0.5455 0.4164
C37 C -0.1286(4) 0.6009(3) 0.3590(9)
H37 H -0.1647 0.5903 0.3436
C38 C -0.1120(4) 0.6447(4) 0.3440(9)
H38 H -0.1342 0.6677 0.3145
C39 C -0.0567(4) 0.6460(4) 0.3822(9)
H39 H -0.0348 0.6710 0.3857
C40 C -0.0377(4) 0.6049(3) 0.4151(9)
H40 H -0.0011 0.5982 0.4422
loop_
_geom_bond_atom_site_label_1
_geom_bond_atom_site_label_2
_geom_bond_site_symmetry_1
_geom_bond_site_symmetry_2
Zn1 N6 1_555 1_555
Zn2 N2 1_555 1_555
Zn3 O4 1_555 1_555
Zn4 O1 1_555 1_555
Fe1 C1 1_555 1_555
C1 H1 1_555 1_555
C2 Fe1 1_555 1_555
H2 C2 1_555 1_555
C3 Fe1 1_555 1_555
H3 C3 1_555 1_555
C4 Fe1 1_555 1_555
H4 C4 1_555 1_555
C5 Fe1 1_555 1_555
H5 C5 1_555 1_555
C6 Fe1 1_555 1_555
H6 C6 1_555 1_555
C7 Fe1 1_555 1_555
H7 C7 1_555 1_555
C8 Fe1 1_555 1_555
H8 C8 1_555 1_555
C9 Fe1 1_555 1_555
H9 C9 1_555 1_555
C10 Fe1 1_555 1_555
H10 C10 1_555 1_555
Fe2 C11 1_555 1_555
C11 H11 1_555 1_555
C12 Fe2 1_555 1_555
H12 C12 1_555 1_555
C13 Fe2 1_555 1_555
H13 C13 1_555 1_555
C14 Fe2 1_555 1_555
H14 C14 1_555 1_555
C15 Fe2 1_555 1_555
H15 C15 1_555 1_555
C16 Fe2 1_555 1_555
H16 C16 1_555 1_555
C17 Fe2 1_555 1_555
H17 C17 1_555 1_555
C18 Fe2 1_555 1_555
H18 C18 1_555 1_555
C19 Fe2 1_555 1_555
H19 C19 1_555 1_555
C20 Fe2 1_555 1_555
H20 C20 1_555 1_555
Fe3 C21 1_555 1_555
C21 H21 1_555 1_555
C22 Fe3 1_555 1_555
H22 C22 1_555 1_555
C23 Fe3 1_555 1_555
H23 C23 1_555 1_555
C24 Fe3 1_555 1_555
H24 C24 1_555 1_555
C25 Fe3 1_555 1_555
H25 C25 1_555 1_555
C26 Fe3 1_555 1_555
H26 C26 1_555 1_555
C27 Fe3 1_555 1_555
H27 C27 1_555 1_555
C28 Fe3 1_555 1_555
H28 C28 1_555 1_555
C29 Fe3 1_555 1_555
H29 C29 1_555 1_555
C30 Fe3 1_555 1_555
H30 C30 1_555 1_555
Fe4 C31 1_555 1_555
C31 H31 1_555 1_555
C32 Fe4 1_555 1_555
H32 C32 1_555 1_555
C33 Fe4 1_555 1_555
H33 C33 1_555 1_555
C34 Fe4 1_555 1_555
H34 C34 1_555 1_555
C35 Fe4 1_555 1_555
H35 C35 1_555 1_555
C36 Fe4 1_555 1_555
H36 C36 1_555 1_555
C37 Fe4 1_555 1_555
H37 C37 1_555 1_555
C38 Fe4 1_555 1_555
H38 C38 1_555 1_555
C39 Fe4 1_555 1_555
H39 C39 1_555 1_555
C40 Fe4 1_555 1_555
H40 C40 1_555 1_555
N1 C41 1_555 1_555
C41 H41 1_555 1_555
C42 N1 1_555 1_555
H42 C42 1_555 1_555
H43 C42 1_555 1_555
H44 C42 1_555 1_555
C43 N1 1_555 1_555
H45 C43 1_555 1_555
H46 C43 1_555 1_555
H47 C43 1_555 1_555
O1 C41 1_555 1_555
C44 H48 1_555 1_555
H49 C44 1_555 1_555
C45 H50 1_555 1_555
H51 C45 1_555 1_555
C46 H52 1_555 1_555
H53 C46 1_555 1_555
C47 H54 1_555 1_555
H55 C47 1_555 1_555
C48 H56 1_555 1_555
H57 C48 1_555 1_555
C49 H58 1_555 1_555
H59 C49 1_555 1_555
N2 C44 1_555 1_555
N3 C44 1_555 1_555
N4 C46 1_555 1_555
N5 C45 1_555 1_555
C50 H60 1_555 1_555
H61 C50 1_555 1_555
C51 H62 1_555 1_555
H63 C51 1_555 1_555
C52 H64 1_555 1_555
H65 C52 1_555 1_555
C53 H66 1_555 1_555
H67 C53 1_555 1_555
C54 H68 1_555 1_555
H69 C54 1_555 1_555
C55 H70 1_555 1_555
H71 C55 1_555 1_555
N6 C50 1_555 1_555
N7 Zn4 1_555 1_555
N8 C50 1_555 1_555
N9 C52 1_555 1_555
C56 C57 1_555 1_555
C57 C58 1_555 1_555
C58 H72 1_555 1_555
C59 C58 1_555 1_555
C60 C59 1_555 1_555
H73 C60 1_555 1_555
C61 C60 1_555 1_555
H74 C61 1_555 1_555
C62 H75 1_555 1_555
C63 H76 1_555 1_555
C64 C57 1_555 1_555
H77 C64 1_555 1_555
C65 C61 1_555 1_555
C66 C65 1_555 1_555
C67 C59 1_555 1_555
O2 Zn1 1_555 1_555
O3 Zn2 1_555 1_555
O4 C66 1_555 1_555
O5 C66 1_555 1_555
C68 C69 1_555 1_555
C69 C70 1_555 1_555
C70 H78 1_555 1_555
C71 C70 1_555 1_555
C72 C71 1_555 1_555
C73 C72 1_555 1_555
H79 C73 1_555 1_555
C74 C69 1_555 1_555
H80 C74 1_555 1_555
C75 C71 1_555 1_555
H81 C75 1_555 1_555
C76 C75 1_555 1_555
H82 C76 1_555 1_555
C77 C72 1_555 1_555
H83 C77 1_555 1_555
C78 C76 1_555 1_555
C79 C78 1_555 1_555
O6 Zn1 1_555 1_555
O7 Zn2 1_555 1_555
O8 C79 1_555 1_555
O9 C79 1_555 1_555
C80 C81 1_555 1_555
C81 C82 1_555 1_555
C82 H84 1_555 1_555
C83 C82 1_555 1_555
C84 C83 1_555 1_555
H85 C84 1_555 1_555
C85 H86 1_555 1_555
C86 C83 1_555 1_555
C87 C86 1_555 1_555
H87 C87 1_555 1_555
C88 C81 1_555 1_555
H88 C88 1_555 1_555
C89 C85 1_555 1_555
C90 C89 1_555 1_555
C91 C84 1_555 1_555
H89 C91 1_555 1_555
O10 Zn1 1_555 1_555
O11 Zn2 1_555 1_555
O12 C90 1_555 1_555
O13 C90 1_555 1_555
C92 C93 1_555 1_555
C93 O16 1_555 1_555
C94 C92 1_555 1_555
H90 C94 1_555 1_555
C95 C94 1_555 1_555
H91 C95 1_555 1_555
C96 H92 1_555 1_555
C97 C102 1_555 1_555
C98 C95 1_555 1_555
C99 C98 1_555 1_555
C100 C92 1_555 1_555
H93 C100 1_555 1_555
C101 C99 1_555 1_555
H94 C101 1_555 1_555
C102 C96 1_555 1_555
C103 C101 1_555 1_555
H95 C103 1_555 1_555
O14 C97 1_555 1_555
O15 Zn3 1_555 1_555
O16 Zn4B_2 1_555 1_555
O17 C93 1_555 1_555
O13C Zn1 1_555 1_555
O12C Zn2 1_555 1_555
N5A Zn3 1_555 1_555
O17_2 Zn3 1_555 1_555
O9A Zn4 1_555 1_555
O14B Zn4 1_555 1_555
O16B Zn4 1_555 1_555
Zn3A N5 1_555 1_555
Zn4A O9 1_555 1_555
Zn2C O12 1_555 1_555
Zn1C O13 1_555 1_555
Zn4B O14 1_555 1_555
Zn3_2 O17 1_555 1_555
C1 C7 1_555 1_555
C1 C10 1_555 1_555
C2 C4 1_555 1_555
C2 C5 1_555 1_555
C3 C6 1_555 1_555
C3 C5 1_555 1_555
C4 C6 1_555 1_555
C7 C8 1_555 1_555
C8 C9 1_555 1_555
C9 C10 1_555 1_555
C11 C12 1_555 1_555
C11 C15 1_555 1_555
C12 C13 1_555 1_555
C13 C14 1_555 1_555
C14 C15 1_555 1_555
C16 C17 1_555 1_555
C16 C18 1_555 1_555
C17 C20 1_555 1_555
C18 C19 1_555 1_555
C19 C20 1_555 1_555
C21 C22 1_555 1_555
C21 C25 1_555 1_555
C22 C23 1_555 1_555
C23 C24 1_555 1_555
C24 C25 1_555 1_555
C26 C27 1_555 1_555
C26 C30 1_555 1_555
C27 C28 1_555 1_555
C28 C29 1_555 1_555
C29 C30 1_555 1_555
C31 C32 1_555 1_555
C31 C35 1_555 1_555
C32 C33 1_555 1_555
C33 C34 1_555 1_555
C34 C35 1_555 1_555
C36 C37 1_555 1_555
C36 C40 1_555 1_555
C37 C38 1_555 1_555
C38 C39 1_555 1_555
C39 C40 1_555 1_555
C45 N3 1_555 1_555
C46 N5 1_555 1_555
C47 N3 1_555 1_555
C47 N4 1_555 1_555
C48 N2 1_555 1_555
C48 N4 1_555 1_555
C49 N5 1_555 1_555
C49 N2 1_555 1_555
C51 N6 1_555 1_555
C51 N7 1_555 1_555
C52 N6 1_555 1_555
C53 N7 1_555 1_555
C53 N8 1_555 1_555
C54 N8 1_555 1_555
C54 N9 1_555 1_555
C55 N9 1_555 1_555
C55 N7 1_555 1_555
C56 O2 1_555 1_555
C56 O3 1_555 1_555
C62 C65 1_555 1_555
C62 C67 1_555 1_555
C63 C67 1_555 1_555
C63 C64 1_555 1_555
C68 O6 1_555 1_555
C68 O7 1_555 1_555
C73 C74 1_555 1_555
C77 C78 1_555 1_555
C80 O10 1_555 1_555
C80 O11 1_555 1_555
C85 C86 1_555 1_555
C87 C88 1_555 1_555
C89 C91 1_555 1_555
C96 C98 1_555 1_555
C97 O15 1_555 1_555
C99 C100 1_555 1_555
C102 C103 1_555 1_555

#END
