
#######################################################################
#
#                 Cambridge Crystallographic Data Centre
#                                CCDC 
#
#######################################################################
#
# If this CIF has been generated from an entry in the Cambridge 
# Structural Database, then it will include bibliographic, chemical, 
# crystal, experimental, refinement or atomic coordinate data resulting 
# from the CCDC's data processing and validation procedures.
#
#######################################################################

data_QONKUB
_chemical_formula_moiety         '(C42 H54 Cu3 N28 O2)n'
_symmetry_cell_setting           monoclinic
_symmetry_space_group_name_H-M   'P 21/n'
_symmetry_Int_Tables_number      14
_space_group_name_Hall           '-P 2yn'
loop_
_symmetry_equiv_pos_site_id
_symmetry_equiv_pos_as_xyz
1 x,y,z
2 1/2-x,1/2+y,1/2-z
3 -x,-y,-z
4 1/2+x,1/2-y,1/2+z
_cell_length_a                   13.2610(18)
_cell_length_b                   15.134(2)
_cell_length_c                   15.5470(19)
_cell_angle_alpha                90
_cell_angle_beta                 93.449(13)
_cell_angle_gamma                90
_cell_volume                     3114.51
loop_
_atom_site_label
_atom_site_type_symbol
_atom_site_fract_x
_atom_site_fract_y
_atom_site_fract_z
Cu1 Cu 0.0000 0.0000 0.0000
Cu2 Cu -0.05029(7) 0.18875(6) 0.10240(5)
C1 C -0.4164(6) 0.3229(6) -0.2396(5)
H1 H -0.4403 0.3806 -0.2375
C2 C -0.3473(6) 0.2944(5) -0.1762(5)
H2 H -0.3251 0.3328 -0.1323
C3 C -0.3112(5) 0.2101(5) -0.1774(4)
C4 C -0.3456(7) 0.1556(5) -0.2453(5)
H3 H -0.3227 0.0978 -0.2493
C5 C -0.4141(6) 0.1896(5) -0.3058(5)
H4 H -0.4367 0.1531 -0.3511
C6 C -0.2368(5) 0.1768(5) -0.1134(4)
C7 C 0.3111(6) 0.2580(5) -0.2695(5)
H5 H 0.3291 0.3129 -0.2466
C8 C 0.2506(6) 0.2047(5) -0.2238(4)
H6 H 0.2265 0.2248 -0.1723
C9 C 0.2252(6) 0.1220(5) -0.2534(4)
C10 C 0.2611(6) 0.0976(5) -0.3325(4)
H7 H 0.2451 0.0428 -0.3567
C11 C 0.3204(6) 0.1562(5) -0.3738(5)
H8 H 0.3445 0.1385 -0.4260
C12 C 0.1638(5) 0.0625(4) -0.2057(4)
N1 N -0.4502(4) 0.2709(4) -0.3040(4)
N2 N -0.2057(4) 0.2214(4) -0.0421(3)
N3 N -0.1397(4) 0.1667(4) -0.0046(3)
N4 N -0.1286(5) 0.0930(4) -0.0487(4)
N5 N -0.1918(5) 0.0980(4) -0.1191(3)
N6 N 0.3458(4) 0.2352(4) -0.3454(3)
N7 N 0.1160(4) 0.0873(4) -0.1360(3)
N8 N 0.0725(4) 0.0142(3) -0.1096(3)
N9 N 0.0932(4) -0.0531(4) -0.1599(3)
N10 N 0.1517(4) -0.0242(4) -0.2219(3)
N11 N 0.0550(4) 0.1171(4) 0.0501(3)
N12 N 0.1426(5) 0.1337(5) 0.0578(5)
N13 N 0.2251(7) 0.1517(8) 0.0643(8)
C13 C 0.0195(9) 0.3043(10) -0.0767(7)
H9 H 0.0426 0.2471 -0.0854
C14 C -0.0059(13) 0.3134(12) -0.2222(8)
H10 H -0.0249 0.3565 -0.2655
H11 H -0.0540 0.2659 -0.2247
H12 H 0.0599 0.2905 -0.2323
C15 C -0.0339(13) 0.4419(7) -0.1182(12)
H13 H -0.0506 0.4737 -0.1705
H14 H 0.0206 0.4712 -0.0863
H15 H -0.0918 0.4396 -0.0841
N14 N -0.0037(10) 0.3540(9) -0.1386(6)
O1 O 0.0103(6) 0.3358(6) 0.0023(4)
Cu2B Cu 0.05029(7) -0.18875(6) -0.10240(5)
C1B C 0.4164(6) -0.3229(6) 0.2396(5)
H1B H 0.4403 -0.3806 0.2375
C2B C 0.3473(6) -0.2944(5) 0.1762(5)
H2B H 0.3251 -0.3328 0.1323
C3B C 0.3112(5) -0.2101(5) 0.1774(4)
C4B C 0.3456(7) -0.1556(5) 0.2453(5)
H3B H 0.3227 -0.0978 0.2493
C5B C 0.4141(6) -0.1896(5) 0.3058(5)
H4B H 0.4367 -0.1531 0.3511
C6B C 0.2368(5) -0.1768(5) 0.1134(4)
C7B C -0.3111(6) -0.2580(5) 0.2695(5)
H5B H -0.3291 -0.3129 0.2466
C8B C -0.2506(6) -0.2047(5) 0.2238(4)
H6B H -0.2265 -0.2248 0.1723
C9B C -0.2252(6) -0.1220(5) 0.2534(4)
C10B C -0.2611(6) -0.0976(5) 0.3325(4)
H7B H -0.2451 -0.0428 0.3567
C11B C -0.3204(6) -0.1562(5) 0.3738(5)
H8B H -0.3445 -0.1385 0.4260
C12B C -0.1638(5) -0.0625(4) 0.2057(4)
N1B N 0.4502(4) -0.2709(4) 0.3040(4)
N2B N 0.2057(4) -0.2214(4) 0.0421(3)
N3B N 0.1397(4) -0.1667(4) 0.0046(3)
N4B N 0.1286(5) -0.0930(4) 0.0487(4)
N5B N 0.1918(5) -0.0980(4) 0.1191(3)
N6B N -0.3458(4) -0.2352(4) 0.3454(3)
N7B N -0.1160(4) -0.0873(4) 0.1360(3)
N8B N -0.0725(4) -0.0142(3) 0.1096(3)
N9B N -0.0932(4) 0.0531(4) 0.1599(3)
N10B N -0.1517(4) 0.0242(4) 0.2219(3)
N11B N -0.0550(4) -0.1171(4) -0.0501(3)
N12B N -0.1426(5) -0.1337(5) -0.0578(5)
N13B N -0.2251(7) -0.1517(8) -0.0643(8)
C13B C -0.0195(9) -0.3043(10) 0.0767(7)
H9B H -0.0426 -0.2471 0.0854
C14B C 0.0059(13) -0.3134(12) 0.2222(8)
H10B H 0.0249 -0.3565 0.2655
H11B H 0.0540 -0.2659 0.2247
H12B H -0.0599 -0.2905 0.2323
C15B C 0.0339(13) -0.4419(7) 0.1182(12)
H13B H 0.0506 -0.4737 0.1705
H14B H -0.0206 -0.4712 0.0863
H15B H 0.0918 -0.4396 0.0841
N14B N 0.0037(10) -0.3540(9) 0.1386(6)
O1B O -0.0103(6) -0.3358(6) -0.0023(4)
Cu2A Cu -0.44971(7) -0.31125(6) 0.39760(5)
Cu2A_2 Cu 0.55029(7) -0.31125(6) 0.39760(5)
Cu2C Cu -0.55029(7) 0.31125(6) -0.39760(5)
Cu2C_2 Cu 0.44971(7) 0.31125(6) -0.39760(5)
N1A N -0.0498(4) -0.2291(4) -0.1960(4)
N1C N 0.0498(4) 0.2291(4) 0.1960(4)
N6A N 0.1542(4) -0.2648(4) -0.1546(3)
N6C N -0.1542(4) 0.2648(4) 0.1546(3)
C16 C -0.021(3) 0.164(2) -0.429(3)
H16 H -0.0304 0.2191 -0.3998
H17 H 0.0507 0.1559 -0.4362
C17 C -0.057(3) 0.094(3) -0.381(3)
H18 H -0.0188 0.0423 -0.3962
H19 H -0.0377 0.1073 -0.3215
C18 C -0.148(2) 0.070(2) -0.3829(15)
H20 H -0.1823 0.1076 -0.3435
H21 H -0.1496 0.0103 -0.3607
C19 C -0.2032(15) 0.0719(16) -0.4639(14)
H22 H -0.2702 0.0948 -0.4556
H23 H -0.2109 0.0118 -0.4849
C20 C -0.160(2) 0.1217(16) -0.5257(12)
H24 H -0.1513 0.0825 -0.5740
H25 H -0.2109 0.1648 -0.5453
C21 C -0.074(2) 0.166(2) -0.512(2)
H26 H -0.0877 0.2273 -0.5258
H27 H -0.0279 0.1444 -0.5536
C22 C -0.563(4) -0.007(5) -0.069(3)
C23 C -0.500(6) 0.076(3) -0.034(5)
H28 H -0.4882 0.1195 -0.0777
H29 H -0.5276 0.1031 0.0162
C24 C -0.416(4) 0.020(6) -0.014(6)
C22B C -0.437(4) 0.007(5) 0.069(3)
C23B C -0.500(6) -0.076(3) 0.034(5)
H28B H -0.5118 -0.1195 0.0777
H29B H -0.4724 -0.1031 -0.0162
C24B C -0.584(4) -0.020(6) 0.014(6)
loop_
_geom_bond_atom_site_label_1
_geom_bond_atom_site_label_2
_geom_bond_site_symmetry_1
_geom_bond_site_symmetry_2
Cu1 N4 1_555 1_555
Cu2 N3 1_555 1_555
C1 H1 1_555 1_555
C2 C1 1_555 1_555
H2 C2 1_555 1_555
C3 C2 1_555 1_555
C4 C3 1_555 1_555
H3 C4 1_555 1_555
C5 C4 1_555 1_555
H4 C5 1_555 1_555
C6 C3 1_555 1_555
C7 H5 1_555 1_555
C8 C7 1_555 1_555
H6 C8 1_555 1_555
C9 C8 1_555 1_555
C10 C9 1_555 1_555
H7 C10 1_555 1_555
C11 C10 1_555 1_555
H8 C11 1_555 1_555
C12 C9 1_555 1_555
N1 C1 1_555 1_555
N2 C6 1_555 1_555
N3 N2 1_555 1_555
N4 N3 1_555 1_555
N5 C6 1_555 1_555
N6 C7 1_555 1_555
N7 C12 1_555 1_555
N8 Cu1 1_555 1_555
N9 N8 1_555 1_555
N10 C12 1_555 1_555
N11 Cu1 1_555 1_555
N12 N11 1_555 1_555
N13 N12 1_555 1_555
C13 H9 1_555 1_555
C14 H10 1_555 1_555
H11 C14 1_555 1_555
H12 C14 1_555 1_555
C15 H13 1_555 1_555
H14 C15 1_555 1_555
H15 C15 1_555 1_555
N14 C13 1_555 1_555
O1 Cu2 1_555 1_555
C16 H16 1_555 1_555
H17 C16 1_555 1_555
C17 C16 1_555 1_555
H18 C17 1_555 1_555
H19 C17 1_555 1_555
C18 C17 1_555 1_555
H20 C18 1_555 1_555
H21 C18 1_555 1_555
C19 C18 1_555 1_555
H22 C19 1_555 1_555
H23 C19 1_555 1_555
C20 C19 1_555 1_555
H24 C20 1_555 1_555
H25 C20 1_555 1_555
C21 C16 1_555 1_555
H26 C21 1_555 1_555
H27 C21 1_555 1_555
C22 C23 1_555 1_555
C23 H28 1_555 1_555
H29 C23 1_555 1_555
C24 C23 1_555 1_555
Cu2B N9 1_555 1_555
C1B H1B 1_555 1_555
C2B C1B 1_555 1_555
H2B C2B 1_555 1_555
C3B C2B 1_555 1_555
C4B C3B 1_555 1_555
H3B C4B 1_555 1_555
C5B C4B 1_555 1_555
H4B C5B 1_555 1_555
C6B C3B 1_555 1_555
C7B H5B 1_555 1_555
C8B C7B 1_555 1_555
H6B C8B 1_555 1_555
C9B C8B 1_555 1_555
C10B C9B 1_555 1_555
H7B C10B 1_555 1_555
C11B C10B 1_555 1_555
H8B C11B 1_555 1_555
C12B C9B 1_555 1_555
N1B C1B 1_555 1_555
N2B C6B 1_555 1_555
N3B Cu2B 1_555 1_555
N4B Cu1 1_555 1_555
N5B C6B 1_555 1_555
N6B C7B 1_555 1_555
N7B C12B 1_555 1_555
N8B Cu1 1_555 1_555
N9B Cu2 1_555 1_555
N10B C12B 1_555 1_555
N11B Cu1 1_555 1_555
N12B N11B 1_555 1_555
N13B N12B 1_555 1_555
C13B H9B 1_555 1_555
C14B H10B 1_555 1_555
H11B C14B 1_555 1_555
H12B C14B 1_555 1_555
C15B H13B 1_555 1_555
H14B C15B 1_555 1_555
H15B C15B 1_555 1_555
N14B C13B 1_555 1_555
O1B Cu2B 1_555 1_555
Cu2A N6B 1_555 1_555
Cu2A_2 N1B 1_555 1_555
Cu2C N1 1_555 1_555
Cu2C_2 N6 1_555 1_555
N1A Cu2B 1_555 1_555
N1C Cu2 1_555 1_555
N6A Cu2B 1_555 1_555
N6C Cu2 1_555 1_555
C22B C24 1_555 1_555
C23B C22B 1_555 1_555
H28B C23B 1_555 1_555
H29B C23B 1_555 1_555
C24B C22 1_555 1_555
Cu2 N11 1_555 1_555
C5 N1 1_555 1_555
C11 N6 1_555 1_555
N4 N5 1_555 1_555
N7 N8 1_555 1_555
N9 N10 1_555 1_555
C13 O1 1_555 1_555
C14 N14 1_555 1_555
C15 N14 1_555 1_555
C20 C21 1_555 1_555
Cu2B N11B 1_555 1_555
C5B N1B 1_555 1_555
C11B N6B 1_555 1_555
N2B N3B 1_555 1_555
N3B N4B 1_555 1_555
N4B N5B 1_555 1_555
N7B N8B 1_555 1_555
N8B N9B 1_555 1_555
N9B N10B 1_555 1_555
C13B O1B 1_555 1_555
C14B N14B 1_555 1_555
C15B N14B 1_555 1_555
C23B C24B 1_555 1_555

#END
