
#######################################################################
#
#                 Cambridge Crystallographic Data Centre
#                                CCDC 
#
#######################################################################
#
# If this CIF has been generated from an entry in the Cambridge 
# Structural Database, then it will include bibliographic, chemical, 
# crystal, experimental, refinement or atomic coordinate data resulting 
# from the CCDC's data processing and validation procedures.
#
#######################################################################

data_QONKOV
_chemical_formula_moiety         '(C33 H39 Cu3 N29 O4)n'
_symmetry_cell_setting           monoclinic
_symmetry_space_group_name_H-M   'P 21/n'
_symmetry_Int_Tables_number      14
_space_group_name_Hall           '-P 2yn'
loop_
_symmetry_equiv_pos_site_id
_symmetry_equiv_pos_as_xyz
1 x,y,z
2 1/2-x,1/2+y,1/2-z
3 -x,-y,-z
4 1/2+x,1/2-y,1/2+z
_cell_length_a                   13.1350(5)
_cell_length_b                   14.8550(8)
_cell_length_c                   15.3900(5)
_cell_angle_alpha                90
_cell_angle_beta                 91.130(3)
_cell_angle_gamma                90
_cell_volume                     3002.32
loop_
_atom_site_label
_atom_site_type_symbol
_atom_site_fract_x
_atom_site_fract_y
_atom_site_fract_z
Cu1 Cu 0.5000 0.0000 0.5000
Cu2 Cu 0.51769(4) 0.20820(4) 0.40294(4)
C1 C 0.8850(5) 0.3117(4) 0.7481(4)
H1 H 0.9099 0.3703 0.7491
C2 C 0.8152(5) 0.2882(4) 0.6847(4)
H2 H 0.7944 0.3298 0.6429
C3 C 0.7767(4) 0.2023(3) 0.6839(3)
C4 C 0.8089(5) 0.1429(4) 0.7470(4)
H3 H 0.7830 0.0847 0.7487
C5 C 0.8807(5) 0.1714(4) 0.8080(4)
H4 H 0.9031 0.1309 0.8503
C6 C 0.7024(4) 0.1730(3) 0.6165(3)
C7 C 0.1518(4) 0.2317(4) 0.7674(4)
H5 H 0.1245 0.2824 0.7401
C8 C 0.2171(5) 0.1780(4) 0.7213(4)
H6 H 0.2322 0.1921 0.6641
C9 C 0.2602(4) 0.1025(4) 0.7610(3)
C10 C 0.2345(4) 0.0856(4) 0.8465(3)
H7 H 0.2626 0.0366 0.8760
C11 C 0.1673(4) 0.1415(4) 0.8873(4)
H8 H 0.1495 0.1282 0.9441
C12 C 0.3298(4) 0.0456(3) 0.7127(3)
C13 C 0.4495(6) 0.3121(6) 0.5710(5)
H9 H 0.4201 0.2559 0.5797
C14 C 0.4589(17) 0.3236(12) 0.7277(7)
H10 H 0.4784 0.3681 0.7701
H11 H 0.5009 0.2712 0.7351
H12 H 0.3889 0.3075 0.7353
C15 C 0.5257(11) 0.4411(7) 0.6349(8)
H13 H 0.5344 0.4666 0.6919
H14 H 0.4884 0.4825 0.5984
H15 H 0.5912 0.4299 0.6106
N1 N 0.9186(3) 0.2536(3) 0.8087(3)
N2 N 0.6730(3) 0.2243(3) 0.5493(3)
N3 N 0.6076(3) 0.1730(3) 0.5059(3)
N4 N 0.5983(3) 0.0947(2) 0.5452(2)
N5 N 0.6572(3) 0.0921(3) 0.6158(3)
N6 N 0.1260(3) 0.2147(3) 0.8489(3)
N7 N 0.3726(3) 0.0734(3) 0.6398(3)
N8 N 0.4261(3) 0.0026(2) 0.6144(2)
N9 N 0.4162(3) -0.0658(3) 0.6691(3)
N10 N 0.3548(3) -0.0402(3) 0.7326(3)
N11 N 0.4138(3) 0.1237(3) 0.4480(3)
N12 N 0.3281(4) 0.1452(4) 0.4551(4)
N13 N 0.2451(5) 0.1651(7) 0.4647(8)
N14 N 0.4718(6) 0.3602(4) 0.6406(4)
O1 O 0.4636(4) 0.3345(3) 0.4970(3)
Cu2B Cu 0.48231(4) -0.20820(4) 0.59706(4)
C1B C 0.1150(5) -0.3117(4) 0.2519(4)
H1B H 0.0901 -0.3703 0.2509
C2B C 0.1848(5) -0.2882(4) 0.3153(4)
H2B H 0.2056 -0.3298 0.3571
C3B C 0.2233(4) -0.2023(3) 0.3161(3)
C4B C 0.1911(5) -0.1429(4) 0.2530(4)
H3B H 0.2170 -0.0847 0.2513
C5B C 0.1193(5) -0.1714(4) 0.1920(4)
H4B H 0.0969 -0.1309 0.1497
C6B C 0.2976(4) -0.1730(3) 0.3835(3)
C7B C 0.8482(4) -0.2317(4) 0.2326(4)
H5B H 0.8755 -0.2824 0.2599
C8B C 0.7829(5) -0.1780(4) 0.2787(4)
H6B H 0.7678 -0.1921 0.3359
C9B C 0.7398(4) -0.1025(4) 0.2390(3)
C10B C 0.7655(4) -0.0856(4) 0.1535(3)
H7B H 0.7374 -0.0366 0.1240
C11B C 0.8327(4) -0.1415(4) 0.1127(4)
H8B H 0.8505 -0.1282 0.0559
C12B C 0.6702(4) -0.0456(3) 0.2873(3)
C13B C 0.5505(6) -0.3121(6) 0.4290(5)
H9B H 0.5799 -0.2559 0.4203
C14B C 0.5411(17) -0.3236(12) 0.2723(7)
H10B H 0.5216 -0.3681 0.2299
H11B H 0.4991 -0.2712 0.2649
H12B H 0.6111 -0.3075 0.2647
C15B C 0.4743(11) -0.4411(7) 0.3651(8)
H13B H 0.4656 -0.4666 0.3081
H14B H 0.5116 -0.4825 0.4016
H15B H 0.4088 -0.4299 0.3894
N1B N 0.0814(3) -0.2536(3) 0.1913(3)
N2B N 0.3270(3) -0.2243(3) 0.4507(3)
N3B N 0.3924(3) -0.1730(3) 0.4941(3)
N4B N 0.4017(3) -0.0947(2) 0.4548(2)
N5B N 0.3428(3) -0.0921(3) 0.3842(3)
N6B N 0.8740(3) -0.2147(3) 0.1511(3)
N7B N 0.6274(3) -0.0734(3) 0.3602(3)
N8B N 0.5739(3) -0.0026(2) 0.3856(2)
N9B N 0.5838(3) 0.0658(3) 0.3309(3)
N10B N 0.6452(3) 0.0402(3) 0.2674(3)
N11B N 0.5862(3) -0.1237(3) 0.5520(3)
N12B N 0.6719(4) -0.1452(4) 0.5449(4)
N13B N 0.7549(5) -0.1651(7) 0.5353(8)
N14B N 0.5282(6) -0.3602(4) 0.3594(4)
O1B O 0.5364(4) -0.3345(3) 0.5030(3)
Cu2A Cu -0.01769(4) -0.29180(4) 0.09706(4)
Cu2A_2 Cu 0.98231(4) -0.29180(4) 0.09706(4)
Cu2C Cu 0.01769(4) 0.29180(4) 0.90294(4)
Cu2C_2 Cu 1.01769(4) 0.29180(4) 0.90294(4)
N1A N 0.5814(3) -0.2464(3) 0.6913(3)
N1C N 0.4186(3) 0.2464(3) 0.3087(3)
N6A N 0.3740(3) -0.2853(3) 0.6511(3)
N6C N 0.6260(3) 0.2853(3) 0.3489(3)
C16 C 0.0920(19) -0.0113(14) 0.4127(14)
H16 H 0.1379 0.0360 0.4195
C17 C 0.0104(19) -0.1486(16) 0.459(3)
H17 H 0.0176 -0.1914 0.5051
H18 H 0.0188 -0.1787 0.4040
H19 H -0.0560 -0.1218 0.4600
C18 C 0.1604(13) -0.0704(17) 0.5453(10)
H20 H 0.1513 -0.1210 0.5831
H21 H 0.1468 -0.0158 0.5763
H22 H 0.2292 -0.0695 0.5254
N15 N 0.0885(10) -0.0779(11) 0.4688(10)
O2 O 0.0274(15) -0.0149(14) 0.3463(10)
O3 O 0.6045(15) 0.0926(13) 0.9331(15)
loop_
_geom_bond_atom_site_label_1
_geom_bond_atom_site_label_2
_geom_bond_site_symmetry_1
_geom_bond_site_symmetry_2
Cu1 N4 1_555 1_555
Cu2 N3 1_555 1_555
C1 H1 1_555 1_555
C2 C1 1_555 1_555
H2 C2 1_555 1_555
C3 C2 1_555 1_555
C4 C3 1_555 1_555
H3 C4 1_555 1_555
C5 C4 1_555 1_555
H4 C5 1_555 1_555
C6 C3 1_555 1_555
C7 H5 1_555 1_555
C8 C7 1_555 1_555
H6 C8 1_555 1_555
C9 C8 1_555 1_555
C10 C9 1_555 1_555
H7 C10 1_555 1_555
C11 C10 1_555 1_555
H8 C11 1_555 1_555
C12 C9 1_555 1_555
C13 H9 1_555 1_555
C14 H10 1_555 1_555
H11 C14 1_555 1_555
H12 C14 1_555 1_555
C15 H13 1_555 1_555
H14 C15 1_555 1_555
H15 C15 1_555 1_555
N1 C1 1_555 1_555
N2 C6 1_555 1_555
N3 N2 1_555 1_555
N4 N3 1_555 1_555
N5 C6 1_555 1_555
N6 C7 1_555 1_555
N7 C12 1_555 1_555
N8 Cu1 1_555 1_555
N9 N8 1_555 1_555
N10 C12 1_555 1_555
N11 Cu1 1_555 1_555
N12 N11 1_555 1_555
N13 N12 1_555 1_555
N14 C13 1_555 1_555
O1 Cu2 1_555 1_555
C16 H16 1_555 1_555
C17 H17 1_555 1_555
H18 C17 1_555 1_555
H19 C17 1_555 1_555
C18 H20 1_555 1_555
H21 C18 1_555 1_555
H22 C18 1_555 1_555
N15 C16 1_555 1_555
O2 C16 1_555 1_555
Cu2B N9 1_555 1_555
C1B H1B 1_555 1_555
C2B C1B 1_555 1_555
H2B C2B 1_555 1_555
C3B C2B 1_555 1_555
C4B C3B 1_555 1_555
H3B C4B 1_555 1_555
C5B C4B 1_555 1_555
H4B C5B 1_555 1_555
C6B C3B 1_555 1_555
C7B H5B 1_555 1_555
C8B C7B 1_555 1_555
H6B C8B 1_555 1_555
C9B C8B 1_555 1_555
C10B C9B 1_555 1_555
H7B C10B 1_555 1_555
C11B C10B 1_555 1_555
H8B C11B 1_555 1_555
C12B C9B 1_555 1_555
C13B H9B 1_555 1_555
C14B H10B 1_555 1_555
H11B C14B 1_555 1_555
H12B C14B 1_555 1_555
C15B H13B 1_555 1_555
H14B C15B 1_555 1_555
H15B C15B 1_555 1_555
N1B C1B 1_555 1_555
N2B C6B 1_555 1_555
N3B Cu2B 1_555 1_555
N4B Cu1 1_555 1_555
N5B C6B 1_555 1_555
N6B C7B 1_555 1_555
N7B C12B 1_555 1_555
N8B Cu1 1_555 1_555
N9B Cu2 1_555 1_555
N10B C12B 1_555 1_555
N11B Cu1 1_555 1_555
N12B N11B 1_555 1_555
N13B N12B 1_555 1_555
N14B C13B 1_555 1_555
O1B Cu2B 1_555 1_555
Cu2A N1B 1_555 1_555
Cu2A_2 N6B 1_555 1_555
Cu2C N6 1_555 1_555
Cu2C_2 N1 1_555 1_555
N1A Cu2B 1_555 1_555
N1C Cu2 1_555 1_555
N6A Cu2B 1_555 1_555
N6C Cu2 1_555 1_555
Cu2 N11 1_555 1_555
C5 N1 1_555 1_555
C11 N6 1_555 1_555
C13 O1 1_555 1_555
C14 N14 1_555 1_555
C15 N14 1_555 1_555
N4 N5 1_555 1_555
N7 N8 1_555 1_555
N9 N10 1_555 1_555
C17 N15 1_555 1_555
C18 N15 1_555 1_555
Cu2B N11B 1_555 1_555
C5B N1B 1_555 1_555
C11B N6B 1_555 1_555
C13B O1B 1_555 1_555
C14B N14B 1_555 1_555
C15B N14B 1_555 1_555
N2B N3B 1_555 1_555
N3B N4B 1_555 1_555
N4B N5B 1_555 1_555
N7B N8B 1_555 1_555
N8B N9B 1_555 1_555
N9B N10B 1_555 1_555

#END
