
#######################################################################
#
#                 Cambridge Crystallographic Data Centre
#                                CCDC 
#
#######################################################################
#
# If this CIF has been generated from an entry in the Cambridge 
# Structural Database, then it will include bibliographic, chemical, 
# crystal, experimental, refinement or atomic coordinate data resulting 
# from the CCDC's data processing and validation procedures.
#
#######################################################################

data_QONLIQ
_chemical_formula_moiety         '(C30 H30 Cu3 N28 O2)n'
_symmetry_cell_setting           monoclinic
_symmetry_space_group_name_H-M   'P 21/n'
_symmetry_Int_Tables_number      14
_space_group_name_Hall           '-P 2yn'
loop_
_symmetry_equiv_pos_site_id
_symmetry_equiv_pos_as_xyz
1 x,y,z
2 1/2-x,1/2+y,1/2-z
3 -x,-y,-z
4 1/2+x,1/2-y,1/2+z
_cell_length_a                   13.2990(7)
_cell_length_b                   14.7100(5)
_cell_length_c                   15.6890(5)
_cell_angle_alpha                90
_cell_angle_beta                 93.375(4)
_cell_angle_gamma                90
_cell_volume                     3063.89
loop_
_atom_site_label
_atom_site_type_symbol
_atom_site_fract_x
_atom_site_fract_y
_atom_site_fract_z
Cu1 Cu 0.5000 0.0000 1.0000
N1 N 0.6068(3) -0.0933(3) 1.0386(2)
N2 N 0.4322(3) -0.0134(3) 1.1116(2)
N3 N 0.4241(3) -0.1271(3) 0.9401(3)
N4 N 0.6190(3) -0.1691(3) 0.9942(2)
N5 N 0.6685(3) -0.0934(3) 1.1075(2)
N6 N 0.3837(4) -0.0869(3) 1.1356(3)
N7 N 0.4209(3) 0.0535(3) 1.1666(2)
Cu2 Cu 0.53354(4) -0.19323(4) 0.88597(3)
N8 N 0.3415(6) -0.1463(7) 0.9385(6)
N9 N 0.6890(4) -0.2210(3) 1.0330(3)
C1 C 0.7180(4) -0.1722(4) 1.1026(3)
C2 C 0.3424(4) -0.0613(3) 1.2074(3)
N10 N 0.3642(4) 0.0248(3) 1.2278(2)
N11 N 0.9361(3) -0.2624(3) 1.2919(3)
N12 N 0.1423(3) -0.2314(3) 1.3361(3)
N13 N 0.2588(8) -0.1628(13) 0.9383(16)
C3 C 0.7950(5) -0.2041(4) 1.1667(3)
C4 C 0.2757(4) -0.1204(3) 1.2533(3)
C5 C 0.8322(7) -0.2890(5) 1.1670(5)
C6 C 0.8293(8) -0.1479(5) 1.2315(6)
C7 C 0.2430(6) -0.2025(4) 1.2193(4)
C8 C 0.2404(6) -0.0973(4) 1.3305(4)
C9 C 0.9028(7) -0.3161(5) 1.2298(5)
H1 H 0.8102 -0.3298 1.1245
H2 H 0.8064 -0.0883 1.2345
C10 C 0.8993(8) -0.1817(5) 1.2928(6)
C11 C 0.1777(6) -0.2555(4) 1.2613(4)
H3 H 0.2657 -0.2218 1.1673
H4 H 0.2616 -0.0434 1.3569
C12 C 0.1734(6) -0.1534(4) 1.3695(4)
H5 H 0.9279 -0.3750 1.2280
H6 H 0.9209 -0.1434 1.3373
H7 H 0.1570 -0.3105 1.2369
H8 H 0.1494 -0.1354 1.4214
C13 C 0.470(2) -0.3148(13) 1.0710(11)
H9 H 0.4358 -0.2598 1.0747
C14 C 0.565(3) -0.435(2) 1.167(3)
H10 H 0.5747 -0.4707 1.1176
H11 H 0.5278 -0.4694 1.2070
H12 H 0.6287 -0.4175 1.1938
C15 C 0.514(3) -0.3061(17) 1.218(2)
H13 H 0.4944 -0.2438 1.2094
H14 H 0.5819 -0.3086 1.2421
H15 H 0.4699 -0.3339 1.2574
N14 N 0.507(3) -0.352(2) 1.1423(13)
O1 O 0.4770(10) -0.3501(9) 0.9944(7)
N1B N 0.3932(3) 0.0933(3) 0.9614(2)
N2B N 0.5678(3) 0.0134(3) 0.8884(2)
N3B N 0.5759(3) 0.1271(3) 1.0599(3)
N4B N 0.3810(3) 0.1691(3) 1.0058(2)
N5B N 0.3315(3) 0.0934(3) 0.8925(2)
N6B N 0.6163(4) 0.0869(3) 0.8644(3)
N7B N 0.5791(3) -0.0535(3) 0.8334(2)
Cu2B Cu 0.46646(4) 0.19323(4) 1.11403(3)
N8B N 0.6585(6) 0.1463(7) 1.0615(6)
N9B N 0.3110(4) 0.2210(3) 0.9670(3)
C1B C 0.2820(4) 0.1722(4) 0.8974(3)
C2B C 0.6576(4) 0.0613(3) 0.7926(3)
N10B N 0.6358(4) -0.0248(3) 0.7722(2)
N11B N 0.0639(3) 0.2624(3) 0.7081(3)
N12B N 0.8577(3) 0.2314(3) 0.6639(3)
N13B N 0.7412(8) 0.1628(13) 1.0617(16)
C3B C 0.2050(5) 0.2041(4) 0.8333(3)
C4B C 0.7243(4) 0.1204(3) 0.7467(3)
C5B C 0.1678(7) 0.2890(5) 0.8330(5)
C6B C 0.1707(8) 0.1479(5) 0.7685(6)
C7B C 0.7570(6) 0.2025(4) 0.7807(4)
C8B C 0.7596(6) 0.0973(4) 0.6695(4)
C9B C 0.0972(7) 0.3161(5) 0.7702(5)
H1B H 0.1898 0.3298 0.8755
H2B H 0.1936 0.0883 0.7655
C10B C 0.1007(8) 0.1817(5) 0.7072(6)
C11B C 0.8223(6) 0.2555(4) 0.7387(4)
H3B H 0.7343 0.2218 0.8327
H4B H 0.7384 0.0434 0.6431
C12B C 0.8266(6) 0.1534(4) 0.6305(4)
H5B H 0.0721 0.3750 0.7720
H6B H 0.0791 0.1434 0.6627
H7B H 0.8430 0.3105 0.7631
H8B H 0.8506 0.1354 0.5786
C13B C 0.530(2) 0.3148(13) 0.9290(11)
H9B H 0.5642 0.2598 0.9253
C14B C 0.435(3) 0.435(2) 0.833(3)
H10B H 0.4253 0.4707 0.8824
H11B H 0.4722 0.4694 0.7930
H12B H 0.3713 0.4175 0.8062
C15B C 0.486(3) 0.3061(17) 0.782(2)
H13B H 0.5056 0.2438 0.7906
H14B H 0.4181 0.3086 0.7579
H15B H 0.5301 0.3339 0.7426
N14B N 0.493(3) 0.352(2) 0.8577(13)
O1B O 0.5230(10) 0.3501(9) 1.0056(7)
Cu2A Cu -0.03354(4) 0.30677(4) 0.61403(3)
Cu2A_2 Cu 0.96646(4) 0.30677(4) 0.61403(3)
Cu2C Cu 0.03354(4) -0.30677(4) 1.38597(3)
Cu2C_2 Cu 1.03354(4) -0.30677(4) 1.38597(3)
N11A N 0.5639(3) 0.2376(3) 1.2081(3)
N11C N 0.4361(3) -0.2376(3) 0.7919(3)
N12A N 0.3577(3) 0.2686(3) 1.1639(3)
N12C N 0.6423(3) -0.2686(3) 0.8361(3)
loop_
_geom_bond_atom_site_label_1
_geom_bond_atom_site_label_2
_geom_bond_site_symmetry_1
_geom_bond_site_symmetry_2
Cu1 N1 1_555 1_555
N1 N4 1_555 1_555
N2 Cu1 1_555 1_555
N3 Cu1 1_555 1_555
N4 Cu2 1_555 1_555
N5 N1 1_555 1_555
N6 N2 1_555 1_555
N7 N2 1_555 1_555
Cu2 N3 1_555 1_555
N8 N3 1_555 1_555
N9 N4 1_555 1_555
C1 N5 1_555 1_555
C2 N6 1_555 1_555
N10 N7 1_555 1_555
N11 C9 1_555 1_555
N12 C11 1_555 1_555
N13 N8 1_555 1_555
C3 C1 1_555 1_555
C4 C2 1_555 1_555
C5 C3 1_555 1_555
C6 C3 1_555 1_555
C7 C4 1_555 1_555
C8 C4 1_555 1_555
C9 C5 1_555 1_555
H1 C5 1_555 1_555
H2 C6 1_555 1_555
C10 N11 1_555 1_555
C11 C7 1_555 1_555
H3 C7 1_555 1_555
H4 C8 1_555 1_555
C12 N12 1_555 1_555
H5 C9 1_555 1_555
H6 C10 1_555 1_555
H7 C11 1_555 1_555
H8 C12 1_555 1_555
C13 H9 1_555 1_555
C14 H10 1_555 1_555
H11 C14 1_555 1_555
H12 C14 1_555 1_555
C15 H13 1_555 1_555
H14 C15 1_555 1_555
H15 C15 1_555 1_555
N14 C13 1_555 1_555
O1 Cu2 1_555 1_555
N1B Cu1 1_555 1_555
N2B Cu1 1_555 1_555
N3B Cu1 1_555 1_555
N4B N1B 1_555 1_555
N5B N1B 1_555 1_555
N6B N2B 1_555 1_555
N7B Cu2 1_555 1_555
Cu2B N7 1_555 1_555
N8B N3B 1_555 1_555
N9B N4B 1_555 1_555
C1B N5B 1_555 1_555
C2B N6B 1_555 1_555
N10B N7B 1_555 1_555
N11B C9B 1_555 1_555
N12B C11B 1_555 1_555
N13B N8B 1_555 1_555
C3B C1B 1_555 1_555
C4B C2B 1_555 1_555
C5B C3B 1_555 1_555
C6B C3B 1_555 1_555
C7B C4B 1_555 1_555
C8B C4B 1_555 1_555
C9B C5B 1_555 1_555
H1B C5B 1_555 1_555
H2B C6B 1_555 1_555
C10B N11B 1_555 1_555
C11B C7B 1_555 1_555
H3B C7B 1_555 1_555
H4B C8B 1_555 1_555
C12B N12B 1_555 1_555
H5B C9B 1_555 1_555
H6B C10B 1_555 1_555
H7B C11B 1_555 1_555
H8B C12B 1_555 1_555
C13B H9B 1_555 1_555
C14B H10B 1_555 1_555
H11B C14B 1_555 1_555
H12B C14B 1_555 1_555
C15B H13B 1_555 1_555
H14B C15B 1_555 1_555
H15B C15B 1_555 1_555
N14B C13B 1_555 1_555
O1B Cu2B 1_555 1_555
Cu2A N11B 1_555 1_555
Cu2A_2 N12B 1_555 1_555
Cu2C N12 1_555 1_555
Cu2C_2 N11 1_555 1_555
N11A Cu2B 1_555 1_555
N11C Cu2 1_555 1_555
N12A Cu2B 1_555 1_555
N12C Cu2 1_555 1_555
N9 C1 1_555 1_555
C2 N10 1_555 1_555
C6 C10 1_555 1_555
C8 C12 1_555 1_555
C13 O1 1_555 1_555
C14 N14 1_555 1_555
C15 N14 1_555 1_555
N2B N7B 1_555 1_555
N3B Cu2B 1_555 1_555
N4B Cu2B 1_555 1_555
N9B C1B 1_555 1_555
C2B N10B 1_555 1_555
C6B C10B 1_555 1_555
C8B C12B 1_555 1_555
C13B O1B 1_555 1_555
C14B N14B 1_555 1_555
C15B N14B 1_555 1_555

#END
