
#######################################################################
#
#                 Cambridge Crystallographic Data Centre
#                                CCDC 
#
#######################################################################
#
# If this CIF has been generated from an entry in the Cambridge 
# Structural Database, then it will include bibliographic, chemical, 
# crystal, experimental, refinement or atomic coordinate data resulting 
# from the CCDC's data processing and validation procedures.
#
#######################################################################

data_FAGREM
_chemical_formula_moiety         '(C18 H12 O16 Zn4)n'
_symmetry_cell_setting           orthorhombic
_symmetry_space_group_name_H-M   'P 21 21 21'
_symmetry_Int_Tables_number      19
_space_group_name_Hall           'P 2ac 2ab'
loop_
_symmetry_equiv_pos_site_id
_symmetry_equiv_pos_as_xyz
1 x,y,z
2 1/2-x,-y,1/2+z
3 1/2+x,1/2-y,-z
4 -x,1/2+y,1/2-z
_cell_length_a                   10.9180(6)
_cell_length_b                   17.1253(14)
_cell_length_c                   17.2092(15)
_cell_angle_alpha                90
_cell_angle_beta                 90
_cell_angle_gamma                90
_cell_volume                     3217.67
loop_
_atom_site_label
_atom_site_type_symbol
_atom_site_fract_x
_atom_site_fract_y
_atom_site_fract_z
Zn1 Zn -0.17638(2) -0.216340(16) -0.495980(17)
Zn2 Zn -0.55529(3) -0.647850(18) -0.933310(18)
Zn3 Zn -0.66522(3) -0.59836(2) -0.11031(2)
Zn4 Zn -0.28626(2) -0.604150(17) -0.009730(18)
O1 O -0.5031(2) -0.56623(13) -0.14688(13)
O2 O -0.10985(17) -0.56991(12) -0.01055(13)
O3 O -0.3325(2) -0.52335(11) -0.08961(11)
O4 O -0.7180(4) -0.48218(17) -0.0964(2)
O5 O -0.3980(2) -0.21106(12) -0.35966(12)
O6 O -0.27189(18) -0.29089(12) -0.42394(12)
O7 O -0.6666(6) -0.4240(4) -0.3731(4)
O8 O -0.56151(19) -0.32824(13) -0.42436(12)
O9 O -0.51011(19) -0.55556(13) -0.87538(13)
O10 O -0.31927(18) -0.53472(12) -0.91666(11)
O11 O -0.41363(18) -0.22069(12) -0.65112(12)
O12 O -0.28022(18) -0.29223(12) -0.58249(11)
O13 O -0.69418(19) -0.38648(17) -0.68200(14)
O14 O -0.57215(19) -0.33740(13) -0.59055(12)
O15 O -0.07118(15) -0.31976(10) -0.50648(11)
H1 H -0.0340 -0.3194 -0.5583
O16 O -0.30163(15) -0.12590(10) -0.50059(11)
H2 H -0.2592 -0.0811 -0.5237
C1 C -0.4012(3) -0.45589(18) -0.20038(17)
C2 C -0.2976(3) -0.40920(18) -0.20178(16)
H3 H -0.2372 -0.4161 -0.1643
C3 C -0.2828(3) -0.35239(19) -0.25837(17)
H4 H -0.2121 -0.3221 -0.2593
C4 C -0.3749(3) -0.34062(17) -0.31452(16)
C5 C -0.4785(3) -0.38780(19) -0.31379(18)
C6 C -0.4899(3) -0.44526(19) -0.25634(18)
H5 H -0.5591 -0.4770 -0.2559
C7 C -0.4141(3) -0.51945(16) -0.14082(17)
C8 C -0.3489(2) -0.27618(16) -0.37146(15)
C9 C -0.5771(3) -0.3793(2) -0.3742(2)
C10 C -0.3952(3) -0.45982(16) -0.81159(16)
C11 C -0.2820(3) -0.42174(17) -0.80100(16)
H6 H -0.2158 -0.4336 -0.8329
C12 C -0.2701(3) -0.36692(16) -0.74299(17)
H7 H -0.1947 -0.3429 -0.7351
C13 C -0.3685(2) -0.34683(17) -0.69598(16)
C14 C -0.4818(2) -0.38448(17) -0.70692(17)
C15 C -0.4931(3) -0.44065(17) -0.76457(17)
H8 H -0.5677 -0.4658 -0.7716
C16 C -0.4087(3) -0.52109(16) -0.87316(16)
C17 C -0.3536(2) -0.28296(17) -0.63741(16)
C18 C -0.5901(3) -0.36808(17) -0.65547(18)
Zn1B Zn -0.67638(2) -0.283660(16) -0.504020(17)
Zn2C Zn -0.44471(3) -0.147850(18) -0.566690(18)
Zn2A Zn 0.05529(3) -0.352150(18) -0.433310(18)
Zn3A Zn -0.83478(3) -0.40164(2) -0.61031(2)
Zn3C Zn -0.33478(3) -0.09836(2) -0.38969(2)
Zn4_2 Zn -0.28626(2) -0.604150(17) -1.009730(18)
Zn4A Zn -0.21374(2) -0.395850(17) -0.509730(18)
O5C O -0.6020(2) -0.71106(12) -0.14034(12)
O6A O -0.22811(18) -0.70911(12) 0.07606(12)
O8B O -0.06151(19) -0.17176(13) -0.57564(12)
O10_2 O -0.31927(18) -0.53472(12) 0.08334(11)
O11C O -0.58637(18) -0.72069(12) -0.84888(12)
O12A O -0.21978(18) -0.70777(12) -0.08249(11)
O13A O -0.80582(19) -0.61352(17) -0.18200(14)
O14B O -0.07215(19) -0.16260(13) -0.40945(12)
O15A O -0.42882(15) -0.68024(10) -1.00648(11)
O15A_2 O -0.42882(15) -0.68024(10) -0.00648(11)
H1A H -0.4660 -0.6806 -1.0583
H1A_2 H -0.4660 -0.6806 -0.0583
O16C O -0.69837(15) -0.62590(10) -0.99941(11)
O16C_2 O -0.69837(15) -0.62590(10) 0.00059(11)
H2C H -0.7408 -0.5811 -0.9763
H2C_2 H -0.7408 -0.5811 0.0237
loop_
_geom_bond_atom_site_label_1
_geom_bond_atom_site_label_2
_geom_bond_site_symmetry_1
_geom_bond_site_symmetry_2
Zn1 O6 1_555 1_555
Zn2 O9 1_555 1_555
Zn3 O1 1_555 1_555
Zn4 O2 1_555 1_555
O1 C7 1_555 1_555
O3 Zn4 1_555 1_555
O4 Zn3 1_555 1_555
O5 C8 1_555 1_555
O6 C8 1_555 1_555
O7 C9 1_555 1_555
O8 C9 1_555 1_555
O9 C16 1_555 1_555
O10 C16 1_555 1_555
O11 C17 1_555 1_555
O12 Zn1 1_555 1_555
O13 C18 1_555 1_555
O14 C18 1_555 1_555
O15 Zn1 1_555 1_555
H1 O15 1_555 1_555
O16 Zn1 1_555 1_555
H2 O16 1_555 1_555
C1 C2 1_555 1_555
C2 H3 1_555 1_555
C3 C2 1_555 1_555
H4 C3 1_555 1_555
C4 C3 1_555 1_555
C5 C4 1_555 1_555
C6 C1 1_555 1_555
H5 C6 1_555 1_555
C7 O3 1_555 1_555
C8 C4 1_555 1_555
C9 C5 1_555 1_555
C10 C11 1_555 1_555
C11 H6 1_555 1_555
C12 C11 1_555 1_555
H7 C12 1_555 1_555
C13 C12 1_555 1_555
C14 C13 1_555 1_555
C15 C10 1_555 1_555
H8 C15 1_555 1_555
C16 C10 1_555 1_555
C17 O12 1_555 1_555
C18 C14 1_555 1_555
Zn1B O8 1_555 1_555
Zn2C O11 1_555 1_555
Zn2A O15 1_555 1_555
Zn3A O13 1_555 1_555
Zn3C O5 1_555 1_555
Zn4_2 O10 1_555 1_555
Zn4A O6 1_555 1_555
O5C Zn3 1_555 1_555
O6A Zn4 1_555 1_555
O8B Zn1 1_555 1_555
O10_2 Zn4 1_555 1_555
O11C Zn2 1_555 1_555
O12A Zn4 1_555 1_555
O13A Zn3 1_555 1_555
O14B Zn1 1_555 1_555
O15A Zn2 1_555 1_555
O15A_2 Zn4 1_555 1_555
H1A O15A 1_555 1_555
H1A_2 O15A_2 1_555 1_555
O16C Zn2 1_555 1_555
O16C_2 Zn3 1_555 1_555
H2C O16C 1_555 1_555
H2C_2 O16C_2 1_555 1_555
O12 Zn4A 1_555 1_555
O14 Zn1B 1_555 1_555
O15 Zn4A 1_555 1_555
O16 Zn2C 1_555 1_555
O16 Zn3C 1_555 1_555
C1 C7 1_555 1_555
C5 C6 1_555 1_555
C13 C17 1_555 1_555
C14 C15 1_555 1_555
Zn4_2 O15A 1_555 1_555

#END
