
#######################################################################
#
#                 Cambridge Crystallographic Data Centre
#                                CCDC 
#
#######################################################################
#
# If this CIF has been generated from an entry in the Cambridge 
# Structural Database, then it will include bibliographic, chemical, 
# crystal, experimental, refinement or atomic coordinate data resulting 
# from the CCDC's data processing and validation procedures.
#
#######################################################################

data_ECIYEU01
_chemical_formula_moiety         '(C2 H9 Al3 N1 O13 P3)n'
_symmetry_cell_setting           orthorhombic
_symmetry_space_group_name_H-M   'P b c a'
_symmetry_Int_Tables_number      61
_space_group_name_Hall           '-P 2ac 2ab'
loop_
_symmetry_equiv_pos_site_id
_symmetry_equiv_pos_as_xyz
1 x,y,z
2 1/2-x,-y,1/2+z
3 -x,1/2+y,1/2-z
4 1/2+x,1/2-y,-z
5 -x,-y,-z
6 1/2+x,y,1/2-z
7 x,1/2-y,1/2+z
8 1/2-x,1/2+y,z
_cell_length_a                   13.57920(10)
_cell_length_b                   10.3511(2)
_cell_length_c                   17.4655(4)
_cell_angle_alpha                90
_cell_angle_beta                 90
_cell_angle_gamma                90
_cell_volume                     2454.94
loop_
_atom_site_label
_atom_site_type_symbol
_atom_site_fract_x
_atom_site_fract_y
_atom_site_fract_z
_atom_site_U_iso_or_equiv
_atom_site_thermal_displace_type
Al1 Al -0.43905(14) 0.12550(17) -0.39310(11) 0.0091 Uani
Al2 Al -0.51595(14) 0.17330(17) -0.19973(10) 0.0091 Uani
Al3 Al -0.76147(14) 0.36710(17) -0.30514(11) 0.0100 Uani
P1 P -0.43302(12) 0.13296(15) -0.57710(9) 0.0088 Uani
P2 P -0.53332(12) 0.37322(14) -0.33067(9) 0.0099 Uani
P3 P -0.24700(12) 0.12637(15) -0.29352(9) 0.0097 Uani
O1 O -0.3412(3) 0.0888(4) -0.6223(2) 0.0150 Uani
O2 O -0.4688(3) 0.2602(4) -0.6112(2) 0.0123 Uani
O3 O -0.4029(3) 0.1532(4) -0.4939(2) 0.0117 Uani
O4 O -0.5130(3) 0.0300(4) -0.5829(2) 0.0117 Uani
O5 O -0.4809(3) 0.2898(4) -0.3909(2) 0.0157 Uani
O6 O -0.5056(3) 0.3343(4) -0.2489(3) 0.0120 Uani
O7 O -0.6440(3) 0.3556(4) -0.3439(3) 0.0193 Uani
O8 O -0.5044(3) 0.5129(4) -0.3450(2) 0.0147 Uani
O9 O -0.1469(3) 0.1796(4) -0.3149(2) 0.0143 Uani
O10 O -0.2378(3) -0.0130(4) -0.2645(2) 0.0163 Uani
O11 O -0.3112(3) 0.1235(4) -0.3654(2) 0.0140 Uani
O12 O -0.2939(3) 0.2137(4) -0.2314(2) 0.0123 Uani
O13 O -0.4902(3) 0.0984(4) -0.2934(2) 0.0127 Uani
Al1D Al -0.56095(14) -0.12550(17) -0.60690(11) 0.0091 Uani
O2F O -0.4688(3) 0.2398(4) -0.1112(2) 0.0123 Uani
O10B O -0.7622(3) 0.4870(4) -0.2355(2) 0.0163 Uani
Al3C Al -0.26147(14) 0.13290(17) -0.69486(11) 0.0100 Uani
O1C O -0.8412(3) 0.4112(4) -0.3777(2) 0.0150 Uani
O12E O -0.7939(3) 0.2137(4) -0.2686(2) 0.0123 Uani
O9E O -0.6469(3) 0.1796(4) -0.1851(2) 0.0143 Uani
O8B O -0.4956(3) 0.0129(4) -0.1550(2) 0.0147 Uani
O4D O -0.4870(3) -0.0300(4) -0.4171(2) 0.0117 Uani
Al2F Al -0.51595(14) 0.32670(17) -0.69973(10) 0.0091 Uani
Al3E Al -0.26147(14) 0.36710(17) -0.19486(11) 0.0100 Uani
Al2B Al -0.48405(14) 0.67330(17) -0.30027(10) 0.0091 Uani
Al3B Al -0.23853(14) -0.13290(17) -0.19486(11) 0.0100 Uani
Al2E Al -0.01595(14) 0.17330(17) -0.30027(10) 0.0091 Uani
C1 C -0.3567(16) 0.4694(17) -0.4982(8) 0.1157 Uani
N1 N -0.2779(9) 0.3961(11) -0.4528(7) 0.0830 Uani
C2 C -0.2022(10) 0.3236(11) -0.4960(7) 0.0643 Uani
loop_
_atom_site_aniso_label
_atom_site_aniso_U_11
_atom_site_aniso_U_22
_atom_site_aniso_U_33
_atom_site_aniso_U_23
_atom_site_aniso_U_13
_atom_site_aniso_U_12
Al1 0.0129 0.0039 0.0106 0 0.0005 -0.0005
Al2 0.014 0.0032 0.0101 -0.0003 -0.001 0.0006
Al3 0.0136 0.0047 0.0116 0.0004 -0.0017 -0.0003
P1 0.0133 0.0031 0.01 0.0001 0.0006 -0.001
P2 0.0144 0.0035 0.0119 -0.0004 0.0007 0.0006
P3 0.0129 0.0047 0.0115 -0.001 -0.0008 0.0005
O1 0.021 0.01 0.014 0.0027 0.0037 0.0025
O2 0.02 0.004 0.013 0.0009 -0.0001 0.0023
O3 0.017 0.007 0.011 0.0016 -0.001 -0.0012
O4 0.018 0.006 0.011 -0.0019 0.0004 -0.0042
O5 0.025 0.009 0.013 0.0005 0.0056 0.004
O6 0.017 0.002 0.017 -0.0001 -0.0001 0.0006
O7 0.025 0.018 0.015 0.001 0.001 -0.003
O8 0.032 0.001 0.011 0.0018 -0.004 0.0001
O9 0.017 0.008 0.018 -0.0017 -0.002 -0.0008
O10 0.023 0.008 0.018 0.001 -0.002 0.003
O11 0.015 0.014 0.013 0.0009 -0.0004 -0.0001
O12 0.017 0.005 0.015 0.0005 0.003 -0.0004
O13 0.019 0.007 0.012 -0.0004 0.0028 -0.0013
Al1D 0.0129 0.0039 0.0106 0 0.0005 -0.0005
O2F 0.02 0.004 0.013 -0.0009 -0.0001 -0.0023
O10B 0.023 0.008 0.018 -0.001 -0.002 -0.003
Al3C 0.0136 0.0047 0.0116 0.0004 0.0017 0.0003
O1C 0.021 0.01 0.014 0.0027 -0.0037 -0.0025
O12E 0.017 0.005 0.015 -0.0005 -0.003 -0.0004
O9E 0.017 0.008 0.018 0.0017 0.002 -0.0008
O8B 0.032 0.001 0.011 -0.0018 -0.004 -0.0001
O4D 0.018 0.006 0.011 -0.0019 0.0004 -0.0042
Al2F 0.014 0.0032 0.0101 0.0003 -0.001 -0.0006
Al3E 0.0136 0.0047 0.0116 -0.0004 0.0017 -0.0003
Al2B 0.014 0.0032 0.0101 0.0003 -0.001 -0.0006
Al3B 0.0136 0.0047 0.0116 -0.0004 -0.0017 0.0003
Al2E 0.014 0.0032 0.0101 0.0003 0.001 0.0006
C1 0.2 0.101 0.046 0.018 0.006 0.036
N1 0.099 0.069 0.081 -0.019 0.007 -0.044
C2 0.071 0.046 0.076 0.003 0.01 -0.015
loop_
_geom_bond_atom_site_label_1
_geom_bond_atom_site_label_2
_geom_bond_site_symmetry_1
_geom_bond_site_symmetry_2
Al1 O3 1_555 1_555
Al2 O6 1_555 1_555
Al3 O7 1_555 1_555
P1 O1 1_555 1_555
P2 O5 1_555 1_555
P3 O9 1_555 1_555
O1 Al3C 1_555 1_555
O2 P1 1_555 1_555
O3 P1 1_555 1_555
O4 P1 1_555 1_555
O5 Al1 1_555 1_555
O6 P2 1_555 1_555
O7 P2 1_555 1_555
O8 P2 1_555 1_555
O9 Al2E 1_555 1_555
O10 P3 1_555 1_555
O11 Al1 1_555 1_555
O12 P3 1_555 1_555
O13 Al1 1_555 1_555
C1 N1 1_555 1_555
N1 C2 1_555 1_555
Al1D O4 1_555 1_555
O2F Al2 1_555 1_555
O10B Al3 1_555 1_555
O1C Al3 1_555 1_555
O12E Al3 1_555 1_555
O9E Al2 1_555 1_555
O8B Al2 1_555 1_555
O4D Al1 1_555 1_555
Al2F O2 1_555 1_555
Al3E O12 1_555 1_555
Al2B O8 1_555 1_555
Al3B O10 1_555 1_555
Al2 O13 1_555 1_555
P3 O11 1_555 1_555

#END
