
#######################################################################
#
#                 Cambridge Crystallographic Data Centre
#                                CCDC 
#
#######################################################################
#
# If this CIF has been generated from an entry in the Cambridge 
# Structural Database, then it will include bibliographic, chemical, 
# crystal, experimental, refinement or atomic coordinate data resulting 
# from the CCDC's data processing and validation procedures.
#
#######################################################################

data_FUSQUH
_chemical_formula_moiety         '(C68 H64 Co2 N8 O14)n'
_symmetry_cell_setting           monoclinic
_symmetry_space_group_name_H-M   'C 2/c'
_symmetry_Int_Tables_number      15
_space_group_name_Hall           '-C 2yc'
loop_
_symmetry_equiv_pos_site_id
_symmetry_equiv_pos_as_xyz
1 x,y,z
2 -x,y,1/2-z
3 1/2+x,1/2+y,z
4 1/2-x,1/2+y,1/2-z
5 -x,-y,-z
6 x,-y,1/2+z
7 1/2-x,1/2-y,-z
8 1/2+x,1/2-y,1/2+z
_cell_length_a                   38.226(7)
_cell_length_b                   13.456(2)
_cell_length_c                   33.945(7)
_cell_angle_alpha                90
_cell_angle_beta                 110.132(11)
_cell_angle_gamma                90
_cell_volume                     16393.5
loop_
_atom_site_label
_atom_site_type_symbol
_atom_site_fract_x
_atom_site_fract_y
_atom_site_fract_z
_atom_site_U_iso_or_equiv
_atom_site_thermal_displace_type
Co1 Co 0.00961(2) 0.31545(6) 0.04214(3) 0.0548 Uani
Co2 Co 0.28975(2) 0.38202(6) 0.46733(3) 0.0514 Uani
O1 O 0.26213(12) 0.3689(3) 0.40031(12) 0.0638 Uani
O2 O 0.21829(11) 0.3357(3) -0.01576(14) 0.0635 Uani
O3 O 0.11850(11) 0.2859(3) 0.04194(14) 0.0653 Uani
H1 H 0.0982 0.2988 0.0440 0.0980 Uiso
O4 O 0.22392(13) 0.3805(4) 0.32096(13) 0.0905 Uani
H2 H 0.2405 0.3934 0.3432 0.1360 Uiso
O5 O 0.02423(13) 0.3761(4) 0.09889(14) 0.0763 Uani
O6 O 0.04867(10) 0.3215(3) 0.01738(14) 0.0606 Uani
N1 N -0.04400(14) 0.4194(4) -0.03132(18) 0.0615 Uani
H3 H -0.0291 0.4132 -0.0452 0.0740 Uiso
O7 O 0.01632(12) 0.3453(4) -0.05005(15) 0.0789 Uani
O8 O 0.06344(13) 0.2583(4) 0.10729(14) 0.0872 Uani
O9 O 0.23739(10) 0.2982(3) 0.44170(13) 0.0598 Uani
C1 C 0.20679(17) 0.2742(5) 0.36923(18) 0.0530 Uani
N2 N -0.03429(13) 0.3983(4) 0.00986(17) 0.0550 Uani
O10 O 0.12198(12) 0.2473(4) 0.17259(13) 0.0783 Uani
H4 H 0.1073 0.2328 0.1493 0.1170 Uiso
C2 C -0.06472(17) 0.4190(5) 0.0196(2) 0.0572 Uani
C3 C 0.18163(16) 0.2321(5) 0.0282(2) 0.0599 Uani
H5 H 0.1974 0.1889 0.0187 0.0720 Uiso
H6 H 0.1762 0.1979 0.0506 0.0720 Uiso
C4 C 0.22082(17) 0.3739(5) 0.0217(2) 0.0533 Uani
C5 C 0.23677(17) 0.3173(5) 0.40486(19) 0.0484 Uani
C6 C 0.16667(19) 0.3165(6) 0.2504(2) 0.0781 Uani
H7 H 0.1707 0.2640 0.2329 0.0940 Uiso
H8 H 0.1857 0.3665 0.2533 0.0940 Uiso
N3 N -0.01030(14) 0.1768(4) 0.04049(18) 0.0621 Uani
C7 C 0.14530(16) 0.2475(4) -0.0079(2) 0.0498 Uani
C8 C 0.04568(18) 0.3240(5) -0.0214(2) 0.0567 Uani
C9 C 0.07974(16) 0.2963(4) -0.0310(2) 0.0517 Uani
C10 C 0.11463(17) 0.2767(4) 0.0012(2) 0.0491 Uani
C11 C 0.0519(2) 0.3294(5) 0.1215(2) 0.0549 Uani
C12 C -0.06708(17) -0.0473(5) -0.0005(2) 0.0701 Uani
H9 H -0.0570 -0.0723 -0.0212 0.0840 Uiso
H10 H -0.0668 -0.1017 0.0184 0.0840 Uiso
C13 C -0.04172(17) 0.0337(5) 0.0243(2) 0.0582 Uani
C14 C 0.20161(19) 0.3086(5) 0.3273(2) 0.0659 Uani
C15 C 0.14134(19) 0.2272(5) -0.0501(2) 0.0629 Uani
C16 C 0.20357(16) 0.3268(5) 0.0463(2) 0.0538 Uani
C17 C 0.22706(18) 0.4570(6) 0.0990(2) 0.0647 Uani
N4 N -0.00339(15) 0.1184(5) 0.0743(2) 0.0786 Uani
H11 H 0.0115 0.1345 0.0989 0.0950 Uiso
C18 C 0.1501(2) 0.1946(6) 0.2993(2) 0.0761 Uani
C19 C -0.03333(17) 0.1237(5) 0.0095(2) 0.0601 Uani
C20 C 0.20718(16) 0.3679(6) 0.0862(2) 0.0600 Uani
C21 C 0.24482(16) 0.5018(5) 0.0737(2) 0.0597 Uani
H12 H 0.2585 0.5596 0.0828 0.0710 Uiso
C22 C 0.07356(18) 0.3670(5) 0.16410(19) 0.0588 Uani
C23 C 0.1292(2) 0.3630(6) 0.2274(2) 0.0724 Uani
C24 C 0.17271(19) 0.2733(6) 0.29326(19) 0.0662 Uani
C25 C 0.1068(2) 0.2492(5) -0.0838(2) 0.0654 Uani
C26 C -0.07860(19) 0.4504(4) -0.0480(2) 0.0608 Uani
C27 C 0.19001(18) 0.3242(6) 0.1131(2) 0.0785 Uani
H13 H 0.1763 0.2660 0.1050 0.0950 Uiso
C28 C 0.1701(2) 0.1826(5) -0.0627(3) 0.0749 Uani
H14 H 0.1928 0.1660 -0.0423 0.0900 Uiso
C29 C 0.10813(19) 0.3264(6) 0.1883(2) 0.0640 Uani
C30 C -0.10658(16) -0.0168(4) -0.0226(2) 0.0516 Uani
C31 C 0.24231(16) 0.4619(5) 0.0359(2) 0.0535 Uani
C32 C -0.0962(2) 0.4768(6) -0.0932(2) 0.0892 Uani
H15 H -0.0786 0.4667 -0.1073 0.1340 Uiso
H16 H -0.1038 0.5452 -0.0956 0.1340 Uiso
H17 H -0.1176 0.4354 -0.1058 0.1340 Uiso
C33 C 0.1014(2) 0.2303(6) -0.1262(2) 0.0869 Uani
H18 H 0.0789 0.2445 -0.1474 0.1050 Uiso
C34 C 0.07717(18) 0.2852(5) -0.0719(2) 0.0610 Uani
H19 H 0.0549 0.3022 -0.0928 0.0730 Uiso
C35 C 0.1557(2) 0.1588(6) 0.3398(2) 0.0770 Uani
C36 C 0.1332(3) 0.0842(7) 0.3474(3) 0.1248 Uani
H20 H 0.1373 0.0616 0.3745 0.1500 Uiso
C37 C -0.09324(16) 0.4528(4) -0.0156(2) 0.0564 Uani
C38 C -0.0476(2) 0.1607(6) -0.0357(2) 0.0948 Uani
H21 H -0.0372 0.2250 -0.0371 0.1420 Uiso
H22 H -0.0743 0.1654 -0.0452 0.1420 Uiso
H23 H -0.0403 0.1151 -0.0532 0.1420 Uiso
C39 C 0.2311(2) 0.4984(8) 0.1383(3) 0.1063 Uani
H24 H 0.2450 0.5561 0.1471 0.1280 Uiso
C40 C -0.0219(2) 0.0333(6) 0.0660(2) 0.0768 Uani
C41 C 0.1311(3) 0.1896(7) -0.1351(3) 0.1033 Uani
H25 H 0.1287 0.1786 -0.1630 0.1240 Uiso
C42 C 0.1212(3) 0.1520(6) 0.2660(2) 0.1039 Uani
H26 H 0.1169 0.1735 0.2387 0.1240 Uiso
C43 C 0.1937(2) 0.3679(8) 0.1510(3) 0.1011 Uani
H27 H 0.1819 0.3392 0.1680 0.1220 Uiso
C44 C 0.1832(2) 0.2017(5) 0.3739(2) 0.0728 Uani
H28 H 0.1857 0.1806 0.4008 0.0870 Uiso
C45 C 0.1647(2) 0.1644(6) -0.1035(3) 0.0900 Uani
H29 H 0.1835 0.1347 -0.1108 0.1080 Uiso
C46 C 0.0993(3) 0.0796(8) 0.2732(3) 0.1681 Uani
H30 H 0.0802 0.0527 0.2507 0.2020 Uiso
C47 C -0.06520(18) 0.4070(6) 0.0631(2) 0.0868 Uani
H31 H -0.0415 0.3824 0.0810 0.1300 Uiso
H32 H -0.0844 0.3607 0.0629 0.1300 Uiso
H33 H -0.0701 0.4700 0.0734 0.1300 Uiso
C48 C 0.0794(3) 0.4811(7) 0.2216(3) 0.1043 Uani
C49 C 0.0595(2) 0.4426(6) 0.1805(2) 0.0854 Uani
H34 H 0.0366 0.4701 0.1648 0.1030 Uiso
C50 C 0.2142(3) 0.4528(9) 0.1641(3) 0.1269 Uani
H35 H 0.2169 0.4799 0.1902 0.1520 Uiso
C51 C 0.1151(3) 0.4434(6) 0.2437(2) 0.0867 Uani
C52 C 0.0647(3) 0.5605(9) 0.2386(3) 0.1760 Uani
H36 H 0.0411 0.5850 0.2239 0.2110 Uiso
C53 C -0.0190(3) -0.0396(7) 0.1008(3) 0.1355 Uani
H37 H -0.0019 -0.0145 0.1268 0.2040 Uiso
H38 H -0.0101 -0.1023 0.0945 0.2040 Uiso
H39 H -0.0431 -0.0485 0.1032 0.2040 Uiso
C54 C 0.1046(3) 0.0446(9) 0.3135(4) 0.1599 Uani
H40 H 0.0893 -0.0047 0.3177 0.1920 Uiso
C55 C 0.1345(3) 0.4876(7) 0.2831(3) 0.1212 Uani
H41 H 0.1580 0.4645 0.2991 0.1450 Uiso
C56 C 0.1188(4) 0.5637(9) 0.2976(3) 0.1776 Uani
H42 H 0.1319 0.5913 0.3237 0.2130 Uiso
C57 C 0.0847(4) 0.6004(10) 0.2755(4) 0.2033 Uani
H43 H 0.0752 0.6537 0.2860 0.2440 Uiso
C58 C -0.13091(18) 0.0250(4) -0.0045(2) 0.0503 Uani
C59 C -0.12669(19) -0.0273(5) -0.0639(2) 0.0586 Uani
N5 N -0.16151(14) 0.0075(4) -0.07028(16) 0.0602 Uani
H44 H -0.1791 0.0088 -0.0943 0.0730 Uiso
N6 N -0.16500(12) 0.0401(4) -0.03393(16) 0.0496 Uani
C60 C -0.12474(18) 0.0547(5) 0.0386(2) 0.0734 Uani
H45 H -0.1474 0.0811 0.0406 0.1100 Uiso
H46 H -0.1057 0.1046 0.0470 0.1100 Uiso
H47 H -0.1171 -0.0020 0.0567 0.1100 Uiso
C61 C -0.1170(2) -0.0700(6) -0.0996(2) 0.0900 Uani
H48 H -0.1381 -0.0645 -0.1251 0.1350 Uiso
H49 H -0.1103 -0.1387 -0.0941 0.1350 Uiso
H50 H -0.0963 -0.0341 -0.1026 0.1350 Uiso
C62 C 0.26144(17) 0.5136(5) 0.0090(2) 0.0576 Uani
O11 O 0.28146(12) 0.5891(3) 0.02358(13) 0.0653 Uani
O12 O 0.25726(11) 0.4793(3) -0.02670(14) 0.0635 Uani
C63 C -0.13249(15) 0.4810(5) -0.0184(2) 0.0678 Uani
H51 H -0.1311 0.5345 0.0012 0.0820 Uiso
H52 H -0.1459 0.5057 -0.0464 0.0820 Uiso
C64 C -0.15354(16) 0.3974(5) -0.0093(2) 0.0557 Uani
C65 C -0.16682(16) 0.3896(5) 0.0235(2) 0.0552 Uani
C66 C -0.16563(17) 0.3108(5) -0.0333(2) 0.0569 Uani
N7 N -0.18517(13) 0.3008(4) 0.01855(17) 0.0587 Uani
H53 H -0.1958 0.2787 0.0354 0.0710 Uiso
N8 N -0.18469(13) 0.2522(4) -0.01572(16) 0.0523 Uani
C67 C -0.16348(18) 0.4556(5) 0.0600(2) 0.0748 Uani
H54 H -0.1499 0.5144 0.0583 0.1120 Uiso
H55 H -0.1505 0.4210 0.0856 0.1120 Uiso
H56 H -0.1879 0.4738 0.0595 0.1120 Uiso
C68 C -0.1588(2) 0.2818(5) -0.0727(2) 0.0813 Uani
H57 H -0.1704 0.2190 -0.0824 0.1220 Uiso
H58 H -0.1324 0.2764 -0.0670 0.1220 Uiso
H59 H -0.1690 0.3314 -0.0938 0.1220 Uiso
Co2E Co 0.28975(2) 0.61798(6) -0.03267(3) 0.0514 Uani
Co2G Co -0.21025(2) 0.11798(6) -0.03267(3) 0.0514 Uani
N6G N 0.33500(12) 0.4599(4) 0.46607(16) 0.0496 Uani
O11E O 0.28146(12) 0.4109(3) 0.52358(13) 0.0653 Uani
O12E O 0.25726(11) 0.5207(3) 0.47330(14) 0.0635 Uani
N8G N 0.31531(13) 0.2478(4) 0.48428(16) 0.0523 Uani
O13 O 0.28336(16) 0.5469(5) 0.35078(17) 0.1244 Uani
O14 O 0.2590(3) 0.1457(8) 0.1597(3) 0.2270 Uiso
loop_
_atom_site_aniso_label
_atom_site_aniso_U_11
_atom_site_aniso_U_22
_atom_site_aniso_U_33
_atom_site_aniso_U_23
_atom_site_aniso_U_13
_atom_site_aniso_U_12
Co1 0.0395(5) 0.0587(6) 0.0638(6) 0.0009(5) 0.0146(4) -0.0063(4)
Co2 0.0413(5) 0.0547(6) 0.0586(5) 0.0002(4) 0.0177(4) 0.0083(4)
O1 0.055(3) 0.085(4) 0.049(3) 0.004(2) 0.015(2) -0.004(3)
O2 0.066(3) 0.054(3) 0.073(3) -0.008(2) 0.027(2) -0.012(2)
O3 0.047(2) 0.076(3) 0.071(3) 0.005(2) 0.018(2) 0.000(2)
O4 0.082(3) 0.120(4) 0.057(3) 0.006(3) 0.008(3) -0.044(3)
O5 0.053(3) 0.095(4) 0.072(3) -0.012(3) 0.010(2) -0.006(3)
O6 0.044(2) 0.069(3) 0.070(3) 0.010(2) 0.021(2) -0.007(2)
N1 0.037(3) 0.069(4) 0.080(4) 0.012(3) 0.022(3) -0.005(3)
O7 0.047(3) 0.112(4) 0.076(3) 0.001(3) 0.019(3) 0.008(3)
O8 0.074(3) 0.106(4) 0.066(3) -0.027(3) 0.004(3) 0.011(3)
O9 0.050(2) 0.075(3) 0.051(3) 0.001(2) 0.013(2) 0.003(2)
C1 0.054(4) 0.056(4) 0.041(4) 0.005(3) 0.006(3) 0.006(3)
N2 0.033(3) 0.066(4) 0.064(4) 0.006(3) 0.014(3) -0.006(3)
O10 0.068(3) 0.105(4) 0.052(3) -0.013(3) 0.008(2) 0.012(3)
C2 0.038(4) 0.055(4) 0.073(5) 0.009(4) 0.012(4) -0.003(3)
C3 0.049(4) 0.050(4) 0.079(5) 0.009(4) 0.020(4) -0.011(3)
C4 0.049(4) 0.050(4) 0.054(4) 0.002(4) 0.009(3) 0.003(3)
C5 0.048(4) 0.052(4) 0.041(4) 0.005(3) 0.010(3) 0.012(3)
C6 0.070(5) 0.095(6) 0.057(5) -0.001(4) 0.006(4) -0.002(4)
N3 0.047(3) 0.063(4) 0.070(4) 0.012(3) 0.012(3) -0.019(3)
C7 0.048(4) 0.035(4) 0.070(5) 0.010(3) 0.025(4) -0.005(3)
C8 0.052(4) 0.046(4) 0.067(5) 0.012(4) 0.014(4) -0.009(3)
C9 0.047(4) 0.042(4) 0.072(5) -0.001(3) 0.028(4) -0.009(3)
C10 0.047(4) 0.028(4) 0.072(5) 0.005(3) 0.020(4) -0.003(3)
C11 0.056(4) 0.056(5) 0.059(5) -0.005(4) 0.028(4) -0.004(4)
C12 0.059(4) 0.044(4) 0.104(6) 0.002(4) 0.024(4) -0.005(4)
C13 0.045(4) 0.050(5) 0.080(5) -0.001(4) 0.022(4) -0.003(3)
C14 0.066(4) 0.065(5) 0.060(5) 0.013(4) 0.013(4) -0.008(4)
C15 0.058(5) 0.042(4) 0.096(6) 0.000(4) 0.036(4) -0.007(4)
C16 0.042(4) 0.045(4) 0.077(5) 0.026(4) 0.024(3) 0.007(3)
C17 0.056(4) 0.083(6) 0.062(5) 0.012(4) 0.029(4) -0.005(4)
N4 0.059(4) 0.073(5) 0.090(5) 0.019(4) 0.008(3) -0.013(3)
C18 0.082(5) 0.084(6) 0.057(5) 0.003(4) 0.017(4) -0.015(5)
C19 0.046(4) 0.052(5) 0.081(5) -0.001(4) 0.020(4) 0.000(4)
C20 0.039(4) 0.078(5) 0.064(5) 0.028(4) 0.019(3) 0.005(4)
C21 0.048(4) 0.056(5) 0.075(5) 0.001(4) 0.021(4) -0.010(3)
C22 0.064(4) 0.054(5) 0.050(4) -0.002(3) 0.009(4) 0.008(4)
C23 0.075(5) 0.093(6) 0.040(4) 0.012(4) 0.008(4) -0.020(5)
C24 0.060(4) 0.089(6) 0.045(4) 0.007(4) 0.012(4) 0.004(4)
C25 0.064(5) 0.043(4) 0.098(6) -0.001(4) 0.039(5) -0.010(4)
C26 0.055(4) 0.037(4) 0.085(5) 0.019(4) 0.017(4) -0.013(3)
C27 0.066(5) 0.106(6) 0.066(5) 0.030(5) 0.026(4) -0.015(4)
C28 0.070(5) 0.064(5) 0.102(6) -0.014(5) 0.044(5) -0.011(4)
C29 0.068(5) 0.077(5) 0.052(4) 0.011(4) 0.027(4) 0.005(4)
C30 0.043(4) 0.042(4) 0.066(5) 0.004(3) 0.014(4) -0.007(3)
C31 0.039(3) 0.063(5) 0.058(4) 0.003(4) 0.016(3) 0.006(3)
C32 0.082(5) 0.085(6) 0.094(6) 0.038(5) 0.022(4) -0.005(5)
C33 0.099(6) 0.103(7) 0.071(5) -0.027(5) 0.045(5) -0.001(5)
C34 0.052(4) 0.056(5) 0.069(5) 0.002(4) 0.013(4) -0.012(3)
C35 0.074(5) 0.071(5) 0.069(5) 0.009(4) 0.003(4) -0.018(4)
C36 0.135(8) 0.104(7) 0.102(7) 0.035(6) -0.002(6) -0.054(7)
C37 0.044(4) 0.032(4) 0.092(5) 0.004(4) 0.022(4) -0.012(3)
C38 0.117(6) 0.086(6) 0.073(5) 0.010(4) 0.022(5) -0.036(5)
C39 0.089(6) 0.161(9) 0.084(6) 0.003(6) 0.049(5) -0.032(6)
C40 0.065(5) 0.060(5) 0.088(6) 0.029(4) 0.004(4) -0.013(4)
C41 0.117(7) 0.129(8) 0.083(6) -0.029(6) 0.059(6) -0.011(7)
C42 0.141(8) 0.086(6) 0.056(5) 0.008(4) -0.003(5) -0.038(6)
C43 0.077(6) 0.158(9) 0.073(6) 0.015(6) 0.032(5) -0.027(6)
C44 0.085(5) 0.070(5) 0.063(5) 0.017(4) 0.025(4) -0.011(4)
C45 0.087(6) 0.089(6) 0.111(7) -0.010(6) 0.056(6) 0.015(5)
C46 0.217(12) 0.140(10) 0.089(8) 0.019(7) -0.022(7) -0.123(9)
C47 0.054(4) 0.111(7) 0.101(6) 0.010(5) 0.034(4) 0.005(4)
C48 0.115(7) 0.101(7) 0.085(6) -0.019(5) 0.019(6) 0.032(6)
C49 0.088(6) 0.085(6) 0.072(6) 0.011(5) 0.013(5) 0.010(5)
C50 0.106(7) 0.204(12) 0.069(6) -0.023(7) 0.028(5) -0.060(8)
C51 0.109(7) 0.073(6) 0.062(5) -0.013(5) 0.009(5) -0.002(5)
C52 0.207(12) 0.176(11) 0.106(8) -0.063(8) 0.004(8) 0.108(10)
C53 0.127(8) 0.100(7) 0.144(8) 0.054(6) 0.001(6) -0.026(6)
C54 0.168(10) 0.152(10) 0.123(9) 0.032(8) 0.003(8) -0.077(9)
C55 0.176(10) 0.087(7) 0.070(6) -0.027(5) 0.003(6) -0.008(7)
C56 0.221(14) 0.138(10) 0.098(8) -0.061(8) -0.042(8) 0.057(10)
C57 0.249(16) 0.194(14) 0.106(9) -0.071(9) -0.017(10) 0.097(12)
C58 0.054(4) 0.036(4) 0.061(4) -0.001(3) 0.020(4) -0.013(3)
C59 0.053(4) 0.045(4) 0.085(5) -0.002(4) 0.033(4) -0.004(3)
N5 0.059(4) 0.069(4) 0.049(3) -0.004(3) 0.014(3) -0.010(3)
N6 0.042(3) 0.055(3) 0.053(3) -0.007(3) 0.018(3) -0.002(3)
C60 0.062(4) 0.078(5) 0.075(5) -0.018(4) 0.017(4) 0.000(4)
C61 0.093(6) 0.100(6) 0.090(6) -0.013(5) 0.048(5) 0.015(5)
C62 0.045(4) 0.052(5) 0.076(5) 0.018(4) 0.021(4) 0.003(4)
O11 0.066(3) 0.059(3) 0.074(3) 0.004(2) 0.028(2) -0.015(3)
O12 0.061(3) 0.075(3) 0.060(3) -0.007(3) 0.028(2) -0.014(2)
C63 0.038(4) 0.049(4) 0.116(6) 0.019(4) 0.026(4) 0.000(3)
C64 0.039(4) 0.045(5) 0.083(5) 0.014(4) 0.021(4) 0.004(3)
C65 0.034(3) 0.047(4) 0.078(5) 0.000(4) 0.011(3) 0.006(3)
C66 0.049(4) 0.046(4) 0.072(5) 0.013(4) 0.016(3) 0.001(3)
N7 0.052(3) 0.063(4) 0.067(4) -0.010(3) 0.028(3) -0.009(3)
N8 0.048(3) 0.047(3) 0.066(4) 0.006(3) 0.025(3) -0.017(3)
C67 0.065(5) 0.067(5) 0.091(5) -0.020(4) 0.025(4) -0.008(4)
C68 0.086(5) 0.087(6) 0.086(6) -0.004(4) 0.049(5) -0.023(4)
Co2E 0.0413 0.0547 0.0586 -0.0002 0.0177 -0.0083
Co2G 0.0413 0.0547 0.0586 -0.0002 0.0177 -0.0083
N6G 0.042 0.055 0.053 0.007 0.018 0.002
O11E 0.066 0.059 0.074 -0.004 0.028 0.015
O12E 0.061 0.075 0.06 0.007 0.028 0.014
N8G 0.048 0.047 0.066 -0.006 0.025 0.017
O13 0.118(5) 0.149(6) 0.101(4) -0.004(4) 0.031(4) -0.060(4)
loop_
_geom_bond_atom_site_label_1
_geom_bond_atom_site_label_2
_geom_bond_site_symmetry_1
_geom_bond_site_symmetry_2
Co1 O5 1_555 1_555
Co2 O1 1_555 1_555
O1 C5 1_555 1_555
O2 C4 1_555 1_555
O3 H1 1_555 1_555
O4 H2 1_555 1_555
O5 C11 1_555 1_555
O6 Co1 1_555 1_555
N1 H3 1_555 1_555
O7 C8 1_555 1_555
O8 C11 1_555 1_555
O9 Co2 1_555 1_555
C1 C5 1_555 1_555
N2 Co1 1_555 1_555
O10 H4 1_555 1_555
C2 N2 1_555 1_555
C3 H5 1_555 1_555
H6 C3 1_555 1_555
C4 C16 1_555 1_555
C5 O9 1_555 1_555
C6 H7 1_555 1_555
H8 C6 1_555 1_555
N3 Co1 1_555 1_555
C7 C3 1_555 1_555
C8 O6 1_555 1_555
C9 C8 1_555 1_555
C10 O3 1_555 1_555
C11 C22 1_555 1_555
C12 H9 1_555 1_555
H10 C12 1_555 1_555
C13 C12 1_555 1_555
C14 O4 1_555 1_555
C15 C7 1_555 1_555
C16 C3 1_555 1_555
C17 C20 1_555 1_555
N4 N3 1_555 1_555
H11 N4 1_555 1_555
C18 C24 1_555 1_555
C19 N3 1_555 1_555
C20 C16 1_555 1_555
C21 C17 1_555 1_555
H12 C21 1_555 1_555
C22 C29 1_555 1_555
C23 C6 1_555 1_555
C24 C6 1_555 1_555
C25 C15 1_555 1_555
C26 N1 1_555 1_555
C27 C20 1_555 1_555
H13 C27 1_555 1_555
C28 C15 1_555 1_555
H14 C28 1_555 1_555
C29 O10 1_555 1_555
C30 C12 1_555 1_555
C31 C4 1_555 1_555
C32 C26 1_555 1_555
H15 C32 1_555 1_555
H16 C32 1_555 1_555
H17 C32 1_555 1_555
C33 C25 1_555 1_555
H18 C33 1_555 1_555
C34 C9 1_555 1_555
H19 C34 1_555 1_555
C35 C18 1_555 1_555
C36 C35 1_555 1_555
H20 C36 1_555 1_555
C37 C2 1_555 1_555
C38 C19 1_555 1_555
H21 C38 1_555 1_555
H22 C38 1_555 1_555
H23 C38 1_555 1_555
C39 C17 1_555 1_555
H24 C39 1_555 1_555
C40 C13 1_555 1_555
C41 C33 1_555 1_555
H25 C41 1_555 1_555
C42 C18 1_555 1_555
H26 C42 1_555 1_555
C43 C27 1_555 1_555
H27 C43 1_555 1_555
C44 C1 1_555 1_555
H28 C44 1_555 1_555
C45 C28 1_555 1_555
H29 C45 1_555 1_555
C46 C42 1_555 1_555
H30 C46 1_555 1_555
C47 C2 1_555 1_555
H31 C47 1_555 1_555
H32 C47 1_555 1_555
H33 C47 1_555 1_555
C48 C49 1_555 1_555
C49 C22 1_555 1_555
H34 C49 1_555 1_555
C50 C39 1_555 1_555
H35 C50 1_555 1_555
C51 C23 1_555 1_555
C52 C48 1_555 1_555
H36 C52 1_555 1_555
C53 C40 1_555 1_555
H37 C53 1_555 1_555
H38 C53 1_555 1_555
H39 C53 1_555 1_555
C54 C36 1_555 1_555
H40 C54 1_555 1_555
C55 C51 1_555 1_555
H41 C55 1_555 1_555
C56 C55 1_555 1_555
H42 C56 1_555 1_555
C57 C52 1_555 1_555
H43 C57 1_555 1_555
C58 C30 1_555 1_555
C59 C30 1_555 1_555
N5 C59 1_555 1_555
H44 N5 1_555 1_555
N6 C58 1_555 1_555
C60 C58 1_555 1_555
H45 C60 1_555 1_555
H46 C60 1_555 1_555
H47 C60 1_555 1_555
C61 C59 1_555 1_555
H48 C61 1_555 1_555
H49 C61 1_555 1_555
H50 C61 1_555 1_555
C62 C31 1_555 1_555
O11 C62 1_555 1_555
O12 C62 1_555 1_555
C63 C37 1_555 1_555
H51 C63 1_555 1_555
H52 C63 1_555 1_555
C64 C63 1_555 1_555
C65 C64 1_555 1_555
C66 C64 1_555 1_555
N7 C65 1_555 1_555
H53 N7 1_555 1_555
N8 C66 1_555 1_555
C67 C65 1_555 1_555
H54 C67 1_555 1_555
H55 C67 1_555 1_555
H56 C67 1_555 1_555
C68 C66 1_555 1_555
H57 C68 1_555 1_555
H58 C68 1_555 1_555
H59 C68 1_555 1_555
Co2E O11 1_555 1_555
Co2G N6 1_555 1_555
N6G Co2 1_555 1_555
O11E Co2 1_555 1_555
O12E Co2 1_555 1_555
N8G Co2 1_555 1_555
N1 N2 1_555 1_555
C1 C14 1_555 1_555
C7 C10 1_555 1_555
C9 C10 1_555 1_555
C13 C19 1_555 1_555
C14 C24 1_555 1_555
N4 C40 1_555 1_555
C21 C31 1_555 1_555
C23 C29 1_555 1_555
C25 C34 1_555 1_555
C26 C37 1_555 1_555
C35 C44 1_555 1_555
C41 C45 1_555 1_555
C43 C50 1_555 1_555
C46 C54 1_555 1_555
C48 C51 1_555 1_555
C56 C57 1_555 1_555
N5 N6 1_555 1_555
O12 Co2E 1_555 1_555
N7 N8 1_555 1_555
N8 Co2G 1_555 1_555

#END
