
#######################################################################
#
#                 Cambridge Crystallographic Data Centre
#                                CCDC 
#
#######################################################################
#
# If this CIF has been generated from an entry in the Cambridge 
# Structural Database, then it will include bibliographic, chemical, 
# crystal, experimental, refinement or atomic coordinate data resulting 
# from the CCDC's data processing and validation procedures.
#
#######################################################################

data_HAKYEA
_chemical_formula_moiety         'C88 H82 N11 O22 Zn11'
_symmetry_cell_setting           triclinic
_symmetry_space_group_name_H-M   'P -1'
_symmetry_Int_Tables_number      2
_space_group_name_Hall           '-P 1'
loop_
_symmetry_equiv_pos_site_id
_symmetry_equiv_pos_as_xyz
1 x,y,z
2 -x,-y,-z
_cell_length_a                   11.739(2)
_cell_length_b                   13.760(3)
_cell_length_c                   16.428(3)
_cell_angle_alpha                114.67(3)
_cell_angle_beta                 95.03(3)
_cell_angle_gamma                92.65(3)
_cell_volume                     2392.03
loop_
_atom_site_label
_atom_site_type_symbol
_atom_site_fract_x
_atom_site_fract_y
_atom_site_fract_z
Zn1 Zn 0.20188(4) 0.40358(4) 0.72753(4)
Zn2 Zn 0.45527(4) 0.40573(4) 0.82597(3)
O1 O 0.2808(3) 0.2891(3) 0.6409(3)
O2 O 0.4628(3) 0.3111(3) 0.7016(2)
O3 O 0.5466(3) 0.4445(2) 0.1526(2)
O4 O 0.7099(3) 0.4606(3) 0.2385(3)
O5 O 0.3603(2) 0.3512(2) 0.8905(2)
O6 O 0.1881(3) 0.3587(3) 0.8253(3)
O7 O 0.0567(3) 0.3869(4) 0.6562(3)
O8 O 0.0337(3) 0.5239(4) 0.7841(3)
N1 N 0.5028(5) -0.0312(4) 0.3025(3)
N2 N 0.5516(6) -0.0303(4) 0.1355(4)
N3 N 0.006(2) 0.117(3) 1.040(2)
N4 N 0.6158(3) 0.4055(3) 0.8804(2)
C1 C 0.3839(4) 0.2676(4) 0.6363(3)
C2 C 0.4148(4) 0.1860(4) 0.5508(3)
C3 C 0.3313(4) 0.1313(4) 0.4786(3)
H1 H 0.2531 0.1435 0.4858
C4 C 0.3590(5) 0.0602(4) 0.3973(3)
H2 H 0.3003 0.0242 0.3485
C5 C 0.4741(5) 0.0401(4) 0.3856(3)
C6 C 0.5589(4) 0.0950(4) 0.4593(4)
H3 H 0.6373 0.0827 0.4528
C7 C 0.5294(4) 0.1658(4) 0.5399(3)
H4 H 0.5874 0.2019 0.5892
C8 C 0.4182(6) -0.1159(4) 0.2389(4)
H5 H 0.3565 -0.1279 0.2720
H6 H 0.4556 -0.1834 0.2121
C9 C 0.3652(7) -0.0899(4) 0.1639(4)
H7 H 0.2967 -0.1412 0.1325
H8 H 0.3386 -0.0171 0.1911
C10 C 0.4427(8) -0.0938(5) 0.0962(4)
H9 H 0.4573 -0.1694 0.0605
H10 H 0.4036 -0.0677 0.0542
C11 C 0.6328(8) -0.0722(5) 0.1840(5)
H11 H 0.7120 -0.0514 0.1772
H12 H 0.6211 -0.1516 0.1552
C12 C 0.6215(6) -0.0336(5) 0.2828(5)
H13 H 0.6606 -0.0812 0.3055
H14 H 0.6612 0.0396 0.3156
C13 C 0.5669(6) 0.0767(4) 0.1504(4)
C14 C 0.4822(7) 0.1267(5) 0.1237(4)
H15 H 0.4098 0.0873 0.0969
C15 C 0.4978(6) 0.2329(4) 0.1344(3)
H16 H 0.4371 0.2638 0.1142
C16 C 0.6018(5) 0.2931(4) 0.1745(3)
C17 C 0.6873(5) 0.2437(5) 0.2023(5)
H17 H 0.7595 0.2830 0.2299
C18 C 0.6700(6) 0.1388(5) 0.1908(5)
H18 H 0.7305 0.1080 0.2113
C19 C 0.6213(4) 0.4066(4) 0.1896(3)
C20 C 0.2509(4) 0.3348(3) 0.8780(3)
C21 C 0.1871(18) 0.2782(19) 0.9148(11)
C22 C 0.0722(18) 0.2351(19) 0.8788(14)
H19 H 0.0386 0.2404 0.8262
C23 C 0.0094(16) 0.1855(16) 0.9200(13)
H20 H -0.0696 0.1626 0.8996
C24 C 0.0660(15) 0.1683(19) 0.9965(15)
C25 C 0.1787(15) 0.2204(19) 1.0334(17)
H21 H 0.2155 0.2172 1.0859
C26 C 0.2339(14) 0.2755(19) 0.9925(15)
H22 H 0.3072 0.3129 1.0195
C27 C -0.0031(4) 0.4596(6) 0.7061(5)
C28 C -0.1209(5) 0.4615(6) 0.6672(5)
C29 C -0.1766(14) 0.3863(19) 0.6054(12)
H23 H -0.1407 0.3214 0.5804
C30 C -0.2885(12) 0.3851(15) 0.5670(11)
H24 H -0.3256 0.3256 0.5153
C31 C -0.3452(12) 0.4886(15) 0.6159(15)
C32 C -0.2827(10) 0.5748(14) 0.6807(10)
H25 H -0.3147 0.6420 0.7042
C33 C -0.1716(10) 0.5672(13) 0.7140(11)
H26 H -0.1298 0.6257 0.7638
C34 C -0.4755(12) 0.3906(11) 0.4067(10)
H27 H -0.5346 0.3500 0.3550
H28 H -0.4047 0.3531 0.3948
C35 C 0.6429(3) 0.3949(3) 0.9569(3)
H29 H 0.5830 0.3749 0.9837
C36 C 0.7540(3) 0.4119(3) 0.9987(3)
H30 H 0.7697 0.4019 1.0522
C37 C 0.8428(3) 0.4436(4) 0.9617(3)
C38 C 0.8151(4) 0.4475(5) 0.8789(3)
H31 H 0.8736 0.4636 0.8488
C39 C 0.7022(4) 0.4278(5) 0.8412(3)
H32 H 0.6848 0.4302 0.7846
C40 C 0.9586(3) 0.4759(4) 1.0108(3)
H33 H 0.9746 0.4608 1.0618
C41 C -0.4501(10) 0.5059(11) 0.4118(7)
H34 H -0.3716 0.5347 0.4425
H35 H -0.4528 0.5010 0.3498
C42 C -0.5046(10) 0.3585(11) 0.4424(8)
H36 H -0.4645 0.2921 0.4205
H37 H -0.5883 0.3374 0.4311
N5 N -0.4704(8) 0.4214(9) 0.5412(7)
C43 C -0.108(2) 0.065(3) 0.991(2)
H38 H -0.1432 0.1145 0.9684
H39 H -0.1568 0.0585 1.0350
C44 C 0.077(3) 0.064(3) 1.091(2)
H40 H 0.1363 0.1167 1.1363
H41 H 0.0268 0.0344 1.1224
O5A O -0.3603(2) -0.3512(2) 1.1095(2)
O6A O -0.1881(3) -0.3587(3) 1.1747(3)
N3A N -0.006(2) -0.117(3) 0.960(2)
C20A C -0.2509(4) -0.3348(3) 1.1220(3)
C21A C -0.1871(18) -0.2782(19) 1.0852(11)
C22A C -0.0722(18) -0.2351(19) 1.1212(14)
H19A H -0.0386 -0.2404 1.1738
C23A C -0.0094(16) -0.1855(16) 1.0800(13)
H20A H 0.0696 -0.1626 1.1004
C24A C -0.0660(15) -0.1683(19) 1.0035(15)
C25A C -0.1787(15) -0.2204(19) 0.9666(17)
H21A H -0.2155 -0.2172 0.9141
C26A C -0.2339(14) -0.2755(19) 1.0075(15)
H22A H -0.3072 -0.3129 0.9805
C43A C 0.108(2) -0.065(3) 1.009(2)
H38A H 0.1432 -0.1145 1.0316
H39A H 0.1568 -0.0585 0.9650
C44A C -0.077(3) -0.064(3) 0.909(2)
H40A H -0.1363 -0.1167 0.8637
H41A H -0.0268 -0.0344 0.8776
O7A O -1.0567(3) 0.6131(4) 0.3438(3)
O8A O -1.0337(3) 0.4761(4) 0.2159(3)
C27A C -0.9969(4) 0.5404(6) 0.2939(5)
C28A C -0.8791(5) 0.5385(6) 0.3328(5)
C29A C -0.8234(14) 0.6137(19) 0.3946(12)
H23A H -0.8593 0.6786 0.4196
C30A C -0.7115(12) 0.6149(15) 0.4330(11)
H24A H -0.6744 0.6744 0.4847
C31A C -0.6548(12) 0.5114(15) 0.3841(15)
C32A C -0.7173(10) 0.4252(14) 0.3193(10)
H25A H -0.6853 0.3580 0.2958
C33A C -0.8284(10) 0.4328(13) 0.2860(11)
H26A H -0.8702 0.3743 0.2362
C34A C -0.5245(12) 0.6094(11) 0.5933(10)
H27A H -0.4654 0.6500 0.6450
H28A H -0.5953 0.6469 0.6052
C41A C -0.5499(10) 0.4941(11) 0.5882(7)
H34A H -0.6284 0.4653 0.5575
H35A H -0.5472 0.4990 0.6502
C42A C -0.4954(10) 0.6415(11) 0.5576(8)
H36A H -0.5355 0.7079 0.5795
H37A H -0.4117 0.6626 0.5689
N5A N -0.5296(8) 0.5786(9) 0.4588(7)
N4A N 1.3842(3) 0.5945(3) 1.1196(2)
C35A C 1.3571(3) 0.6051(3) 1.0431(3)
H29A H 1.4170 0.6251 1.0163
C36A C 1.2460(3) 0.5881(3) 1.0013(3)
H30A H 1.2303 0.5981 0.9478
C37A C 1.1572(3) 0.5564(4) 1.0383(3)
C38A C 1.1849(4) 0.5525(5) 1.1211(3)
H31A H 1.1264 0.5364 1.1512
C39A C 1.2978(4) 0.5722(5) 1.1588(3)
H32A H 1.3152 0.5698 1.2154
C40A C 1.0414(3) 0.5241(4) 0.9892(3)
H33A H 1.0254 0.5392 0.9382
Zn1A Zn -1.20188(4) 0.59642(4) 0.27247(4)
Zn2A Zn -1.45527(4) 0.59427(4) 0.17403(3)
O1A O -1.2808(3) 0.7109(3) 0.3591(3)
O2A O -1.4628(3) 0.6889(3) 0.2984(2)
O3A O -1.5466(3) 0.5555(2) 0.8474(2)
O4A O -1.7099(3) 0.5394(3) 0.7615(3)
N1A N -1.5028(5) 1.0312(4) 0.6975(3)
N2A N -1.5516(6) 1.0303(4) 0.8645(4)
C1A C -1.3839(4) 0.7324(4) 0.3637(3)
C2A C -1.4148(4) 0.8140(4) 0.4492(3)
C3A C -1.3313(4) 0.8687(4) 0.5214(3)
H1A H -1.2531 0.8565 0.5142
C4A C -1.3590(5) 0.9398(4) 0.6027(3)
H2A H -1.3003 0.9758 0.6515
C5A C -1.4741(5) 0.9599(4) 0.6144(3)
C6A C -1.5589(4) 0.9050(4) 0.5407(4)
H3A H -1.6373 0.9173 0.5472
C7A C -1.5294(4) 0.8342(4) 0.4601(3)
H4A H -1.5874 0.7981 0.4108
C8A C -1.4182(6) 1.1159(4) 0.7611(4)
H5A H -1.3565 1.1279 0.7280
H6A H -1.4556 1.1834 0.7879
C9A C -1.3652(7) 1.0899(4) 0.8361(4)
H7A H -1.2967 1.1412 0.8675
H8A H -1.3386 1.0171 0.8089
C10A C -1.4427(8) 1.0938(5) 0.9038(4)
H9A H -1.4573 1.1694 0.9395
H10A H -1.4036 1.0677 0.9458
C11A C -1.6328(8) 1.0722(5) 0.8160(5)
H11A H -1.7120 1.0514 0.8228
H12A H -1.6211 1.1516 0.8448
C12A C -1.6215(6) 1.0336(5) 0.7172(5)
H13A H -1.6606 1.0812 0.6945
H14A H -1.6612 0.9604 0.6844
C13A C -1.5669(6) 0.9233(4) 0.8496(4)
C14A C -1.4822(7) 0.8733(5) 0.8763(4)
H15A H -1.4098 0.9127 0.9031
C15A C -1.4978(6) 0.7671(4) 0.8656(3)
H16A H -1.4371 0.7362 0.8858
C16A C -1.6018(5) 0.7069(4) 0.8255(3)
C17A C -1.6873(5) 0.7563(5) 0.7977(5)
H17A H -1.7595 0.7170 0.7701
C18A C -1.6700(6) 0.8612(5) 0.8092(5)
H18A H -1.7305 0.8920 0.7887
C19A C -1.6213(4) 0.5934(4) 0.8104(3)
Zn1_2 Zn -1.79812(4) 0.40358(4) 0.72753(4)
Zn1A_2 Zn -0.20188(4) -0.40358(4) 1.27247(4)
Zn1A_3 Zn 0.79812(4) 0.59642(4) 0.27247(4)
Zn2_2 Zn -1.54473(4) 0.40573(4) 0.82597(3)
Zn2A_2 Zn -0.45527(4) -0.40573(4) 1.17403(3)
Zn2A_3 Zn 0.54473(4) 0.59427(4) 0.17403(3)
Zn2A_4 Zn 1.54473(4) 0.59427(4) 1.17403(3)
O3_2 O -1.4534(3) 0.4445(2) 0.1526(2)
O3A_2 O 0.4534(3) 0.5555(2) 0.8474(2)
O4_2 O -1.2901(3) 0.4606(3) 0.2385(3)
O4A_2 O 0.2901(3) 0.5394(3) 0.7615(3)
O5A_2 O -1.3603(2) 0.6488(2) 0.1095(2)
O6A_2 O -1.1881(3) 0.6413(3) 0.1747(3)
N4A_2 N -1.6158(3) 0.5945(3) 0.1196(2)
loop_
_geom_bond_atom_site_label_1
_geom_bond_atom_site_label_2
_geom_bond_site_symmetry_1
_geom_bond_site_symmetry_2
Zn1 O1 1_555 1_555
Zn2 O2 1_555 1_555
O1 C1 1_555 1_555
O2 C1 1_555 1_555
O3 C19 1_555 1_555
O4 C19 1_555 1_555
O5 Zn2 1_555 1_555
O6 Zn1 1_555 1_555
O7 Zn1 1_555 1_555
O8 C27 1_555 1_555
N1 C5 1_555 1_555
N2 C10 1_555 1_555
N3 C24 1_555 1_555
N4 Zn2 1_555 1_555
C1 C2 1_555 1_555
C2 C3 1_555 1_555
C3 H1 1_555 1_555
C4 C3 1_555 1_555
H2 C4 1_555 1_555
C5 C4 1_555 1_555
C6 C5 1_555 1_555
H3 C6 1_555 1_555
C7 C2 1_555 1_555
H4 C7 1_555 1_555
C8 N1 1_555 1_555
H5 C8 1_555 1_555
H6 C8 1_555 1_555
C9 C8 1_555 1_555
H7 C9 1_555 1_555
H8 C9 1_555 1_555
C10 C9 1_555 1_555
H9 C10 1_555 1_555
H10 C10 1_555 1_555
C11 N2 1_555 1_555
H11 C11 1_555 1_555
H12 C11 1_555 1_555
C12 N1 1_555 1_555
H13 C12 1_555 1_555
H14 C12 1_555 1_555
C13 N2 1_555 1_555
C14 C13 1_555 1_555
H15 C14 1_555 1_555
C15 C14 1_555 1_555
H16 C15 1_555 1_555
C16 C15 1_555 1_555
C17 C16 1_555 1_555
H17 C17 1_555 1_555
C18 C13 1_555 1_555
H18 C18 1_555 1_555
C19 C16 1_555 1_555
C20 O5 1_555 1_555
C21 C20 1_555 1_555
C22 C21 1_555 1_555
H19 C22 1_555 1_555
C23 C22 1_555 1_555
H20 C23 1_555 1_555
C24 C23 1_555 1_555
C25 C24 1_555 1_555
H21 C25 1_555 1_555
C26 C21 1_555 1_555
H22 C26 1_555 1_555
C27 O7 1_555 1_555
C28 C27 1_555 1_555
C29 C28 1_555 1_555
H23 C29 1_555 1_555
C30 C29 1_555 1_555
H24 C30 1_555 1_555
C31 C30 1_555 1_555
C32 C31 1_555 1_555
H25 C32 1_555 1_555
C33 C28 1_555 1_555
H26 C33 1_555 1_555
C34 H27 1_555 1_555
H28 C34 1_555 1_555
C35 N4 1_555 1_555
H29 C35 1_555 1_555
C36 C35 1_555 1_555
H30 C36 1_555 1_555
C37 C36 1_555 1_555
C38 C37 1_555 1_555
H31 C38 1_555 1_555
C39 N4 1_555 1_555
H32 C39 1_555 1_555
C40 C37 1_555 1_555
H33 C40 1_555 1_555
C41 C34 1_555 1_555
H34 C41 1_555 1_555
H35 C41 1_555 1_555
C42 C34 1_555 1_555
H36 C42 1_555 1_555
H37 C42 1_555 1_555
N5 C31 1_555 1_555
C43 N3 1_555 1_555
H38 C43 1_555 1_555
H39 C43 1_555 1_555
C44 N3 1_555 1_555
H40 C44 1_555 1_555
H41 C44 1_555 1_555
O5A C20A 1_555 1_555
O6A C20A 1_555 1_555
N3A C24A 1_555 1_555
C20A C21A 1_555 1_555
C21A C22A 1_555 1_555
C22A H19A 1_555 1_555
C23A C22A 1_555 1_555
H20A C23A 1_555 1_555
C24A C23A 1_555 1_555
C25A C24A 1_555 1_555
H21A C25A 1_555 1_555
C26A C21A 1_555 1_555
H22A C26A 1_555 1_555
C43A C44 1_555 1_555
H38A C43A 1_555 1_555
H39A C43A 1_555 1_555
C44A C43 1_555 1_555
H40A C44A 1_555 1_555
H41A C44A 1_555 1_555
O7A C27A 1_555 1_555
O8A C27A 1_555 1_555
C27A C28A 1_555 1_555
C28A C29A 1_555 1_555
C29A H23A 1_555 1_555
C30A C29A 1_555 1_555
H24A C30A 1_555 1_555
C31A C30A 1_555 1_555
C32A C31A 1_555 1_555
H25A C32A 1_555 1_555
C33A C28A 1_555 1_555
H26A C33A 1_555 1_555
C34A H27A 1_555 1_555
H28A C34A 1_555 1_555
C41A N5 1_555 1_555
H34A C41A 1_555 1_555
H35A C41A 1_555 1_555
C42A C34A 1_555 1_555
H36A C42A 1_555 1_555
H37A C42A 1_555 1_555
N5A C41 1_555 1_555
N4A C35A 1_555 1_555
C35A H29A 1_555 1_555
C36A C35A 1_555 1_555
H30A C36A 1_555 1_555
C37A C36A 1_555 1_555
C38A C37A 1_555 1_555
H31A C38A 1_555 1_555
C39A N4A 1_555 1_555
H32A C39A 1_555 1_555
C40A C40 1_555 1_555
H33A C40A 1_555 1_555
Zn1A O7A 1_555 1_555
Zn2A O2A 1_555 1_555
O1A Zn1A 1_555 1_555
O2A C1A 1_555 1_555
O3A C19A 1_555 1_555
O4A C19A 1_555 1_555
N1A C5A 1_555 1_555
N2A C10A 1_555 1_555
C1A O1A 1_555 1_555
C2A C1A 1_555 1_555
C3A C2A 1_555 1_555
H1A C3A 1_555 1_555
C4A C3A 1_555 1_555
H2A C4A 1_555 1_555
C5A C4A 1_555 1_555
C6A C5A 1_555 1_555
H3A C6A 1_555 1_555
C7A C2A 1_555 1_555
H4A C7A 1_555 1_555
C8A N1A 1_555 1_555
H5A C8A 1_555 1_555
H6A C8A 1_555 1_555
C9A C8A 1_555 1_555
H7A C9A 1_555 1_555
H8A C9A 1_555 1_555
C10A C9A 1_555 1_555
H9A C10A 1_555 1_555
H10A C10A 1_555 1_555
C11A N2A 1_555 1_555
H11A C11A 1_555 1_555
H12A C11A 1_555 1_555
C12A N1A 1_555 1_555
H13A C12A 1_555 1_555
H14A C12A 1_555 1_555
C13A N2A 1_555 1_555
C14A C13A 1_555 1_555
H15A C14A 1_555 1_555
C15A C14A 1_555 1_555
H16A C15A 1_555 1_555
C16A C15A 1_555 1_555
C17A C16A 1_555 1_555
H17A C17A 1_555 1_555
C18A C13A 1_555 1_555
H18A C18A 1_555 1_555
C19A C16A 1_555 1_555
Zn1_2 O4A 1_555 1_555
Zn1A_2 O6A 1_555 1_555
Zn1A_3 O4 1_555 1_555
Zn2_2 O3A 1_555 1_555
Zn2A_2 O5A 1_555 1_555
Zn2A_3 O3 1_555 1_555
Zn2A_4 N4A 1_555 1_555
O3_2 Zn2A 1_555 1_555
O3A_2 Zn2 1_555 1_555
O4_2 Zn1A 1_555 1_555
O4A_2 Zn1 1_555 1_555
O5A_2 Zn2A 1_555 1_555
O6A_2 Zn1A 1_555 1_555
N4A_2 Zn2A 1_555 1_555
O6 C20 1_555 1_555
C6 C7 1_555 1_555
C11 C12 1_555 1_555
C17 C18 1_555 1_555
C25 C26 1_555 1_555
C32 C33 1_555 1_555
C38 C39 1_555 1_555
C42 N5 1_555 1_555
N3A C43A 1_555 1_555
N3A C44A 1_555 1_555
C25A C26A 1_555 1_555
C31A N5A 1_555 1_555
C32A C33A 1_555 1_555
C34A C41A 1_555 1_555
C42A N5A 1_555 1_555
C37A C40A 1_555 1_555
C38A C39A 1_555 1_555
C6A C7A 1_555 1_555
C11A C12A 1_555 1_555
C17A C18A 1_555 1_555

#END
