
#######################################################################
#
#                 Cambridge Crystallographic Data Centre
#                                CCDC 
#
#######################################################################
#
# If this CIF has been generated from an entry in the Cambridge 
# Structural Database, then it will include bibliographic, chemical, 
# crystal, experimental, refinement or atomic coordinate data resulting 
# from the CCDC's data processing and validation procedures.
#
#######################################################################

data_QAQRUW
_chemical_formula_moiety         '(C56 H62 Mg3 N4 O16)n'
_symmetry_cell_setting           monoclinic
_symmetry_space_group_name_H-M   'C 2/c'
_symmetry_Int_Tables_number      15
_space_group_name_Hall           '-C 2yc'
loop_
_symmetry_equiv_pos_site_id
_symmetry_equiv_pos_as_xyz
1 x,y,z
2 1/2+x,1/2+y,z
3 -x,y,1/2-z
4 1/2-x,1/2+y,1/2-z
5 -x,-y,-z
6 1/2-x,1/2-y,-z
7 x,-y,1/2+z
8 1/2+x,1/2-y,1/2+z
_cell_length_a                   15.045(4)
_cell_length_b                   18.036(5)
_cell_length_c                   20.979(5)
_cell_angle_alpha                90
_cell_angle_beta                 101.493(4)
_cell_angle_gamma                90
_cell_volume                     5578.54
loop_
_atom_site_label
_atom_site_type_symbol
_atom_site_fract_x
_atom_site_fract_y
_atom_site_fract_z
Mg1 Mg 0.0000 0.24815(15) 0.7500
Mg2 Mg 0.20485(14) 0.25473(12) 0.69232(9)
O1 O 0.1182(3) 0.1919(3) 0.6308(2)
O2 O 0.0079(3) 0.1632(2) 0.68456(18)
O3 O -0.0019(3) 0.3272(2) 0.67766(18)
O4 O 0.1385(3) 0.3466(2) 0.66017(19)
O5 O 0.1418(3) 0.2468(2) 0.77693(17)
O6 O 0.2707(3) 0.3060(2) 0.78016(19)
O7 O 0.2692(4) 0.1549(3) 0.7257(3)
N1 N 0.2504(5) 0.0344(4) 0.7512(4)
C1 C 0.0512(5) 0.1536(3) 0.6402(3)
C2 C 0.0223(4) 0.0911(4) 0.5937(3)
C3 C -0.0461(5) 0.0441(4) 0.6024(3)
H1 H -0.0737 0.0507 0.6390
C4 C -0.0753(5) -0.0119(4) 0.5593(3)
H2 H -0.1231 -0.0434 0.5663
C5 C -0.0355(4) -0.0234(4) 0.5047(3)
C6 C 0.0635(4) 0.0802(4) 0.5418(3)
H3 H 0.1122 0.1117 0.5367
C7 C 0.0538(5) 0.3557(3) 0.6482(3)
C8 C 0.0180(4) 0.4080(3) 0.5932(3)
C9 C -0.0747(4) 0.4142(4) 0.5674(3)
H4 H -0.1163 0.3855 0.5857
C10 C -0.1071(4) 0.4605(4) 0.5165(3)
H5 H -0.1707 0.4647 0.5007
C11 C -0.0469(4) 0.5022(3) 0.4873(3)
C12 C 0.0773(4) 0.4491(4) 0.5654(3)
H6 H 0.1405 0.4447 0.5822
C13 C 0.2121(5) 0.2787(4) 0.8087(3)
C14 C 0.2324(4) 0.2794(3) 0.8808(3)
C15 C 0.2993(4) 0.3273(3) 0.9140(3)
H7 H 0.3277 0.3616 0.8900
C16 C 0.3244(4) 0.3255(4) 0.9801(3)
H8 H 0.3692 0.3591 1.0016
C17 C 0.2848(4) 0.2743(3) 1.0169(3)
C18 C 0.1906(4) 0.2302(3) 0.9142(3)
H9 H 0.1446 0.1985 0.8913
C19 C 0.2341(5) 0.1058(4) 0.7540(4)
H10 H 0.1920 0.1210 0.7798
C20 C 0.2059(6) -0.0193(5) 0.7870(4)
H11 H 0.1973 0.0031 0.8283
H12 H 0.2454 -0.0634 0.7976
C21 C 0.1168(6) -0.0427(5) 0.7484(5)
H13 H 0.0888 -0.0785 0.7735
H14 H 0.1253 -0.0657 0.7078
H15 H 0.0773 0.0008 0.7385
C22 C 0.3022(8) 0.0064(6) 0.6962(7)
H16 H 0.2826 -0.0441 0.6813
H17 H 0.2918 0.0404 0.6584
C23 C 0.3892(9) 0.0071(7) 0.7268(6)
H18 H 0.4275 -0.0095 0.6968
H19 H 0.3974 -0.0262 0.7644
H20 H 0.4065 0.0576 0.7415
O8 O 0.3053(9) 0.2627(7) 0.6450(6)
N3 N 0.4291(11) 0.2625(9) 0.5790(9)
C25 C 0.3804(16) 0.2655(12) 0.6462(11)
C27 C 0.3729(9) 0.2171(8) 0.5234(7)
C28 C 0.3165(17) 0.1583(15) 0.5352(13)
C30 C 0.520(3) 0.204(2) 0.591(2)
C32 C 0.566(2) 0.159(2) 0.6138(17)
Mg1F Mg 0.0000 -0.24815(15) 0.2500
Mg1F_2 Mg 0.0000 0.75185(15) 0.2500
Mg1G Mg 0.5000 0.25185(15) 1.2500
Mg2D Mg -0.20485(14) -0.25473(12) 0.30768(9)
Mg2D_2 Mg -0.20485(14) 0.74527(12) 0.30768(9)
Mg2E Mg 0.29515(14) 0.24527(12) 1.30768(9)
O1D O -0.1182(3) -0.1919(3) 0.3692(2)
O2D O -0.0079(3) -0.1632(2) 0.31544(18)
O2B O -0.0079(3) 0.1632(2) 0.81544(18)
O3D O 0.0019(3) 0.6728(2) 0.32234(18)
O3B O 0.0019(3) 0.3272(2) 0.82234(18)
O4D O -0.1385(3) 0.6534(2) 0.33983(19)
O4D_2 O -0.1385(3) -0.3466(2) 0.33983(19)
O5E O 0.3582(3) 0.2532(2) 1.22307(17)
O5B O -0.1418(3) 0.2468(2) 0.72307(17)
O5D O -0.1418(3) -0.2468(2) 0.22307(17)
O6E O 0.2293(3) 0.1940(2) 1.21984(19)
O6D O -0.2707(3) -0.3060(2) 0.21984(19)
O7D O -0.2692(4) -0.1549(3) 0.2743(3)
N1D N -0.2504(5) -0.0344(4) 0.2488(4)
C1D C -0.0512(5) -0.1536(3) 0.3598(3)
C2D C -0.0223(4) -0.0911(4) 0.4063(3)
C3D C 0.0461(5) -0.0441(4) 0.3976(3)
H1D H 0.0737 -0.0507 0.3610
C4D C 0.0753(5) 0.0119(4) 0.4407(3)
H2D H 0.1231 0.0434 0.4337
C5D C 0.0355(4) 0.0234(4) 0.4953(3)
C6D C -0.0635(4) -0.0802(4) 0.4582(3)
H3D H -0.1122 -0.1117 0.4633
C7D C -0.0538(5) 0.6443(3) 0.3518(3)
C8D C -0.0180(4) 0.5920(3) 0.4068(3)
C9D C 0.0747(4) 0.5858(4) 0.4326(3)
H4D H 0.1163 0.6145 0.4143
C10D C 0.1071(4) 0.5395(4) 0.4835(3)
H5D H 0.1707 0.5353 0.4993
C11D C 0.0469(4) 0.4978(3) 0.5127(3)
C12D C -0.0773(4) 0.5509(4) 0.4346(3)
H6D H -0.1405 0.5553 0.4178
C13E C 0.2879(5) 0.2213(4) 1.1913(3)
C14E C 0.2676(4) 0.2206(3) 1.1192(3)
C15E C 0.2007(4) 0.1727(3) 1.0860(3)
H7E H 0.1723 0.1384 1.1100
C16E C 0.1756(4) 0.1745(4) 1.0199(3)
H8E H 0.1308 0.1409 0.9984
C17E C 0.2152(4) 0.2257(3) 0.9831(3)
C18E C 0.3094(4) 0.2698(3) 1.0858(3)
H9E H 0.3554 0.3015 1.1087
C19D C -0.2341(5) -0.1058(4) 0.2460(4)
H10D H -0.1920 -0.1210 0.2202
C20D C -0.2059(6) 0.0193(5) 0.2130(4)
H11D H -0.1973 -0.0031 0.1717
H12D H -0.2454 0.0634 0.2024
C21D C -0.1168(6) 0.0427(5) 0.2516(5)
H13D H -0.0888 0.0785 0.2265
H14D H -0.1253 0.0657 0.2922
H15D H -0.0773 -0.0008 0.2615
C22D C -0.3022(8) -0.0064(6) 0.3038(7)
H16D H -0.2826 0.0441 0.3187
H17D H -0.2918 -0.0404 0.3416
C23D C -0.3892(9) -0.0071(7) 0.2732(6)
H18D H -0.4275 0.0095 0.3032
H19D H -0.3974 0.0262 0.2356
H20D H -0.4065 -0.0576 0.2585
O8D O -0.3053(9) -0.2627(7) 0.3550(6)
N3D N -0.4291(11) -0.2625(9) 0.4210(9)
C25D C -0.3804(16) -0.2655(12) 0.3538(11)
C27D C -0.3729(9) -0.2171(8) 0.4766(7)
C28D C -0.3165(17) -0.1583(15) 0.4648(13)
C30D C -0.520(3) -0.204(2) 0.409(2)
C32D C -0.566(2) -0.159(2) 0.3862(17)
loop_
_geom_bond_atom_site_label_1
_geom_bond_atom_site_label_2
_geom_bond_site_symmetry_1
_geom_bond_site_symmetry_2
Mg1 O2 1_555 1_555
Mg2 O1 1_555 1_555
O1 C1 1_555 1_555
O2 C1 1_555 1_555
O3 Mg1 1_555 1_555
O4 Mg2 1_555 1_555
O5 Mg1 1_555 1_555
O6 Mg2 1_555 1_555
O7 Mg2 1_555 1_555
N1 C19 1_555 1_555
C1 C2 1_555 1_555
C2 C3 1_555 1_555
C3 H1 1_555 1_555
C4 C3 1_555 1_555
H2 C4 1_555 1_555
C5 C4 1_555 1_555
C6 C2 1_555 1_555
H3 C6 1_555 1_555
C7 O3 1_555 1_555
C8 C7 1_555 1_555
C9 C8 1_555 1_555
H4 C9 1_555 1_555
C10 C9 1_555 1_555
H5 C10 1_555 1_555
C11 C10 1_555 1_555
C12 C8 1_555 1_555
H6 C12 1_555 1_555
C13 O5 1_555 1_555
C14 C13 1_555 1_555
C15 C14 1_555 1_555
H7 C15 1_555 1_555
C16 C15 1_555 1_555
H8 C16 1_555 1_555
C17 C16 1_555 1_555
C18 C14 1_555 1_555
H9 C18 1_555 1_555
C19 O7 1_555 1_555
H10 C19 1_555 1_555
C20 N1 1_555 1_555
H11 C20 1_555 1_555
H12 C20 1_555 1_555
C21 C20 1_555 1_555
H13 C21 1_555 1_555
H14 C21 1_555 1_555
H15 C21 1_555 1_555
C22 N1 1_555 1_555
H16 C22 1_555 1_555
H17 C22 1_555 1_555
C23 C22 1_555 1_555
H18 C23 1_555 1_555
H19 C23 1_555 1_555
H20 C23 1_555 1_555
O8 Mg2 1_555 1_555
N3 C25 1_555 1_555
C25 O8 1_555 1_555
C27 N3 1_555 1_555
C28 C27 1_555 1_555
C30 N3 1_555 1_555
C32 C30 1_555 1_555
Mg1F O2D 1_555 1_555
Mg1F_2 O3D 1_555 1_555
Mg1G O5E 1_555 1_555
Mg2D O1D 1_555 1_555
Mg2D_2 O4D 1_555 1_555
Mg2E O5E 1_555 1_555
O1D C1D 1_555 1_555
O2D C1D 1_555 1_555
O2B Mg1 1_555 1_555
O3D C7D 1_555 1_555
O3B Mg1 1_555 1_555
O4D C7D 1_555 1_555
O4D_2 Mg2D 1_555 1_555
O5E C13E 1_555 1_555
O5B Mg1 1_555 1_555
O5D Mg1F 1_555 1_555
O6E Mg2E 1_555 1_555
O6D Mg2D 1_555 1_555
O7D Mg2D 1_555 1_555
N1D C19D 1_555 1_555
C1D C2D 1_555 1_555
C2D C3D 1_555 1_555
C3D H1D 1_555 1_555
C4D C3D 1_555 1_555
H2D C4D 1_555 1_555
C5D C5 1_555 1_555
C6D C5 1_555 1_555
H3D C6D 1_555 1_555
C7D C8D 1_555 1_555
C8D C9D 1_555 1_555
C9D H4D 1_555 1_555
C10D C9D 1_555 1_555
H5D C10D 1_555 1_555
C11D C11 1_555 1_555
C12D C11 1_555 1_555
H6D C12D 1_555 1_555
C13E O6E 1_555 1_555
C14E C13E 1_555 1_555
C15E C14E 1_555 1_555
H7E C15E 1_555 1_555
C16E C15E 1_555 1_555
H8E C16E 1_555 1_555
C17E C17 1_555 1_555
C18E C17 1_555 1_555
H9E C18E 1_555 1_555
C19D O7D 1_555 1_555
H10D C19D 1_555 1_555
C20D N1D 1_555 1_555
H11D C20D 1_555 1_555
H12D C20D 1_555 1_555
C21D C20D 1_555 1_555
H13D C21D 1_555 1_555
H14D C21D 1_555 1_555
H15D C21D 1_555 1_555
C22D N1D 1_555 1_555
H16D C22D 1_555 1_555
H17D C22D 1_555 1_555
C23D C22D 1_555 1_555
H18D C23D 1_555 1_555
H19D C23D 1_555 1_555
H20D C23D 1_555 1_555
O8D Mg2D 1_555 1_555
N3D C25D 1_555 1_555
C25D O8D 1_555 1_555
C27D N3D 1_555 1_555
C28D C27D 1_555 1_555
C30D N3D 1_555 1_555
C32D C30D 1_555 1_555
Mg2 O5 1_555 1_555
O4 C7 1_555 1_555
O6 C13 1_555 1_555
C6 C5D 1_555 1_555
C12 C11D 1_555 1_555
C18 C17E 1_555 1_555
Mg2D O5D 1_555 1_555
C2D C6D 1_555 1_555
C4D C5D 1_555 1_555
C8D C12D 1_555 1_555
C10D C11D 1_555 1_555
C14E C18E 1_555 1_555
C16E C17E 1_555 1_555

#END
