
#######################################################################
#
#                 Cambridge Crystallographic Data Centre
#                                CCDC 
#
#######################################################################
#
# If this CIF has been generated from an entry in the Cambridge 
# Structural Database, then it will include bibliographic, chemical, 
# crystal, experimental, refinement or atomic coordinate data resulting 
# from the CCDC's data processing and validation procedures.
#
#######################################################################

data_IZENEI
_chemical_formula_moiety         '(C48 H42 In6 N6 O38)n'
_symmetry_cell_setting           cubic
_symmetry_space_group_name_H-M   'P -4 3 n'
_symmetry_Int_Tables_number      218
_space_group_name_Hall           'P -4n 2 3'
loop_
_symmetry_equiv_pos_site_id
_symmetry_equiv_pos_as_xyz
1 x,y,z
2 -x,-y,z
3 -x,y,-z
4 x,-y,-z
5 z,x,y
6 z,-x,-y
7 -z,-x,y
8 -z,x,-y
9 y,z,x
10 -y,z,-x
11 y,-z,-x
12 -y,-z,x
13 1/2+y,1/2+x,1/2+z
14 1/2-y,1/2-x,1/2+z
15 1/2+y,1/2-x,1/2-z
16 1/2-y,1/2+x,1/2-z
17 1/2+x,1/2+z,1/2+y
18 1/2-x,1/2+z,1/2-y
19 1/2-x,1/2-z,1/2+y
20 1/2+x,1/2-z,1/2-y
21 1/2+z,1/2+y,1/2+x
22 1/2+z,1/2-y,1/2-x
23 1/2-z,1/2+y,1/2-x
24 1/2-z,1/2-y,1/2+x
_cell_length_a                   22.4570(3)
_cell_length_b                   22.4570(3)
_cell_length_c                   22.4570(3)
_cell_angle_alpha                90
_cell_angle_beta                 90
_cell_angle_gamma                90
_cell_volume                     11325.4
loop_
_atom_site_label
_atom_site_type_symbol
_atom_site_fract_x
_atom_site_fract_y
_atom_site_fract_z
In1 In 0.677694(18) 0.739293(17) 0.806421(18)
C1 C 0.8051(3) 0.7200(3) 1.1015(3)
C2 C 0.7949(3) 0.7053(3) 0.8771(3)
C3 C 0.8285(3) 0.7064(3) 0.9346(3)
C4 C 0.8949(3) 0.7057(4) 1.0390(3)
H1 H 0.9178 0.7053 1.0746
C5 C 0.8005(3) 0.7143(3) 0.9890(3)
H2 H 0.7587 0.7205 0.9907
C6 C 0.8341(3) 0.7131(3) 1.0415(3)
C7 C 0.9227(3) 0.6987(4) 0.9843(3)
C8 C 0.8896(3) 0.6986(4) 0.9318(3)
H3 H 0.9087 0.6931 0.8944
O1 O 0.6071(11) 0.7388(12) 0.8720(8)
O2 O 0.7403(2) 0.7403(2) 0.7403(2)
N1 N 0.9862(3) 0.6957(4) 0.9771(3)
O3 O 0.74070(19) 0.7205(2) 0.87857(19)
O4 O 0.8245(2) 0.6900(2) 0.83225(19)
O5 O 0.8372(2) 0.7061(2) 1.14586(19)
O6 O 0.75246(19) 0.7387(2) 1.10330(18)
C1B C 1.1949(3) 0.7200(3) 0.8985(3)
C2B C 1.2051(3) 0.7053(3) 1.1229(3)
C3B C 1.1715(3) 0.7064(3) 1.0654(3)
C4B C 1.1051(3) 0.7057(4) 0.9610(3)
H1B H 1.0822 0.7053 0.9254
C5B C 1.1995(3) 0.7143(3) 1.0110(3)
H2B H 1.2413 0.7205 1.0093
C6B C 1.1659(3) 0.7131(3) 0.9585(3)
C7B C 1.0773(3) 0.6987(4) 1.0157(3)
C8B C 1.1104(3) 0.6986(4) 1.0682(3)
H3B H 1.0913 0.6931 1.1056
N1B N 1.0138(3) 0.6957(4) 1.0229(3)
O3B O 1.25930(19) 0.7205(2) 1.12143(19)
O4B O 1.1755(2) 0.6900(2) 1.16775(19)
O5B O 1.1628(2) 0.7061(2) 0.85414(19)
O6B O 1.24754(19) 0.7387(2) 0.89670(18)
In1B In 1.322306(18) 0.739293(17) 1.193579(18)
O1B O 1.3929(11) 0.7388(12) 1.1280(8)
O2B O 1.2597(2) 0.7403(2) 1.2597(2)
In1D In 0.806421(18) 0.677694(18) 0.739293(17)
C1D C 1.1015(3) 0.8051(3) 0.7200(3)
C2D C 0.8771(3) 0.7949(3) 0.7053(3)
C3D C 0.9346(3) 0.8285(3) 0.7064(3)
C4D C 1.0390(3) 0.8949(3) 0.7057(4)
H1D H 1.0746 0.9178 0.7053
C5D C 0.9890(3) 0.8005(3) 0.7143(3)
H2D H 0.9907 0.7587 0.7205
C6D C 1.0415(3) 0.8341(3) 0.7131(3)
C7D C 0.9843(3) 0.9227(3) 0.6987(4)
C8D C 0.9318(3) 0.8896(3) 0.6986(4)
H3D H 0.8944 0.9087 0.6931
O1D O 0.8720(8) 0.6071(11) 0.7388(12)
N1D N 0.9771(3) 0.9862(3) 0.6957(4)
O3D O 0.87857(19) 0.74070(19) 0.7205(2)
O4D O 0.83225(19) 0.8245(2) 0.6900(2)
O5D O 1.14586(19) 0.8372(2) 0.7061(2)
O6D O 1.10330(18) 0.75246(19) 0.7387(2)
C1F C 0.8985(3) 1.1949(3) 0.7200(3)
C2F C 1.1229(3) 1.2051(3) 0.7053(3)
C3F C 1.0654(3) 1.1715(3) 0.7064(3)
C4F C 0.9610(3) 1.1051(3) 0.7057(4)
H1F H 0.9254 1.0822 0.7053
C5F C 1.0110(3) 1.1995(3) 0.7143(3)
H2F H 1.0093 1.2413 0.7205
C6F C 0.9585(3) 1.1659(3) 0.7131(3)
C7F C 1.0157(3) 1.0773(3) 0.6987(4)
C8F C 1.0682(3) 1.1104(3) 0.6986(4)
H3F H 1.1056 1.0913 0.6931
N1F N 1.0229(3) 1.0138(3) 0.6957(4)
O3F O 1.12143(19) 1.25930(19) 0.7205(2)
O4F O 1.16775(19) 1.1755(2) 0.6900(2)
O5F O 0.85414(19) 1.1628(2) 0.7061(2)
O6F O 0.89670(18) 1.24754(19) 0.7387(2)
In1F In 1.193579(18) 1.322306(18) 0.739293(17)
O1F O 1.1280(8) 1.3929(11) 0.7388(12)
In1G In 1.193579(18) 0.677694(18) 1.260707(17)
C1G C 0.8985(3) 0.8051(3) 1.2800(3)
C2G C 1.1229(3) 0.7949(3) 1.2947(3)
C3G C 1.0654(3) 0.8285(3) 1.2936(3)
C4G C 0.9610(3) 0.8949(3) 1.2943(4)
H1G H 0.9254 0.9178 1.2947
C5G C 1.0110(3) 0.8005(3) 1.2857(3)
H2G H 1.0093 0.7587 1.2795
C6G C 0.9585(3) 0.8341(3) 1.2869(3)
C7G C 1.0157(3) 0.9227(3) 1.3013(4)
C8G C 1.0682(3) 0.8896(3) 1.3014(4)
H3G H 1.1056 0.9087 1.3069
O1G O 1.1280(8) 0.6071(11) 1.2612(12)
N1G N 1.0229(3) 0.9862(3) 1.3043(4)
O3G O 1.12143(19) 0.74070(19) 1.2795(2)
O4G O 1.16775(19) 0.8245(2) 1.3100(2)
O5G O 0.85414(19) 0.8372(2) 1.2939(2)
O6G O 0.89670(18) 0.75246(19) 1.2613(2)
C1E C 1.1015(3) 1.1949(3) 1.2800(3)
C2E C 0.8771(3) 1.2051(3) 1.2947(3)
C3E C 0.9346(3) 1.1715(3) 1.2936(3)
C4E C 1.0390(3) 1.1051(3) 1.2943(4)
H1E H 1.0746 1.0822 1.2947
C5E C 0.9890(3) 1.1995(3) 1.2857(3)
H2E H 0.9907 1.2413 1.2795
C6E C 1.0415(3) 1.1659(3) 1.2869(3)
C7E C 0.9843(3) 1.0773(3) 1.3013(4)
C8E C 0.9318(3) 1.1104(3) 1.3014(4)
H3E H 0.8944 1.0913 1.3069
N1E N 0.9771(3) 1.0138(3) 1.3043(4)
O3E O 0.87857(19) 1.25930(19) 1.2795(2)
O4E O 0.83225(19) 1.1755(2) 1.3100(2)
O5E O 1.14586(19) 1.1628(2) 1.2939(2)
O6E O 1.10330(18) 1.24754(19) 1.2613(2)
In1H In 0.739293(17) 0.806421(18) 0.677694(18)
O1H O 0.7388(12) 0.8720(8) 0.6071(11)
In1E In 0.806421(18) 1.322306(18) 1.260707(17)
In1I In 1.260707(17) 0.806421(18) 1.322306(18)
In1J In 0.739293(17) 1.193579(18) 1.322306(18)
In1K In 1.260707(17) 1.193579(18) 0.677694(18)
In1L In 1.239293(17) 1.177694(18) 1.306421(18)
In1M In 0.760707(17) 0.822306(18) 1.306421(18)
In1N In 1.239293(17) 0.822306(18) 0.693579(18)
In1O In 0.760707(17) 1.177694(18) 0.693579(18)
In1P In 1.177694(18) 1.306421(18) 1.239293(17)
In1Q In 0.822306(18) 1.306421(18) 0.760707(17)
In1R In 0.822306(18) 0.693579(18) 1.239293(17)
In1S In 1.177694(18) 0.693579(18) 0.760707(17)
In1U In 1.306421(18) 0.760707(17) 0.822306(18)
In1W In 0.693579(18) 0.760707(17) 1.177694(18)
O2A O 1.2597(2) 1.2597(2) 0.7403(2)
O3H O 0.7205(2) 0.87857(19) 0.74070(19)
O4A O 1.1755(2) 1.3100(2) 0.83225(19)
O4H O 0.6900(2) 0.83225(19) 0.8245(2)
O4I O 1.3100(2) 0.83225(19) 1.1755(2)
O5L O 1.2061(2) 1.3372(2) 0.64586(19)
O5M O 0.7939(2) 0.6628(2) 0.64586(19)
O5N O 1.2061(2) 0.6628(2) 1.35414(19)
O5P O 1.3372(2) 0.64586(19) 1.2061(2)
O5Q O 0.6628(2) 0.64586(19) 0.7939(2)
O5U O 0.64586(19) 0.7939(2) 0.6628(2)
O6M O 0.7613(2) 0.74754(19) 0.60330(18)
O6P O 1.25246(19) 0.60330(18) 1.2387(2)
O6Q O 0.74754(19) 0.60330(18) 0.7613(2)
O6S O 1.25246(19) 1.39670(18) 0.7613(2)
O6U O 0.60330(18) 0.7613(2) 0.74754(19)
O6W O 1.39670(18) 0.7613(2) 1.25246(19)
O7 O 0.8562(7) 0.8562(7) 0.8562(7)
O8 O 0.5028(11) 0.6898(11) 0.8338(11)
O9 O 0.4948(15) 0.6443(13) 0.7231(14)
O10 O 0.6321(8) 0.6321(8) 0.6321(8)
O11 O 0.6941(18) 0.5988(17) 0.9970(17)
O12 O 0.612(2) 0.599(2) 0.990(2)
loop_
_geom_bond_atom_site_label_1
_geom_bond_atom_site_label_2
_geom_bond_site_symmetry_1
_geom_bond_site_symmetry_2
In1 O1 1_555 1_555
C1 C6 1_555 1_555
C2 C3 1_555 1_555
C3 C5 1_555 1_555
C4 H1 1_555 1_555
C5 H2 1_555 1_555
C6 C4 1_555 1_555
C7 C4 1_555 1_555
C8 C3 1_555 1_555
H3 C8 1_555 1_555
O2 In1 1_555 1_555
N1 C7 1_555 1_555
O3 In1 1_555 1_555
O4 C2 1_555 1_555
O5 C1 1_555 1_555
O6 C1 1_555 1_555
C1B C6B 1_555 1_555
C2B C3B 1_555 1_555
C3B C5B 1_555 1_555
C4B H1B 1_555 1_555
C5B H2B 1_555 1_555
C6B C4B 1_555 1_555
C7B C4B 1_555 1_555
C8B C3B 1_555 1_555
H3B C8B 1_555 1_555
N1B N1 1_555 1_555
O3B C2B 1_555 1_555
O4B C2B 1_555 1_555
O5B C1B 1_555 1_555
O6B C1B 1_555 1_555
In1B O3B 1_555 1_555
O1B In1B 1_555 1_555
O2B In1B 1_555 1_555
In1D O2 1_555 1_555
C1D C6D 1_555 1_555
C2D C3D 1_555 1_555
C3D C5D 1_555 1_555
C4D H1D 1_555 1_555
C5D H2D 1_555 1_555
C6D C4D 1_555 1_555
C7D C4D 1_555 1_555
C8D C3D 1_555 1_555
H3D C8D 1_555 1_555
O1D In1D 1_555 1_555
N1D C7D 1_555 1_555
O3D In1D 1_555 1_555
O4D C2D 1_555 1_555
O5D C1D 1_555 1_555
O6D C1D 1_555 1_555
C1F C6F 1_555 1_555
C2F C3F 1_555 1_555
C3F C5F 1_555 1_555
C4F H1F 1_555 1_555
C5F H2F 1_555 1_555
C6F C4F 1_555 1_555
C7F C4F 1_555 1_555
C8F C3F 1_555 1_555
H3F C8F 1_555 1_555
N1F N1D 1_555 1_555
O3F C2F 1_555 1_555
O4F C2F 1_555 1_555
O5F C1F 1_555 1_555
O6F C1F 1_555 1_555
In1F O3F 1_555 1_555
O1F In1F 1_555 1_555
In1G O4B 1_555 1_555
C1G C6G 1_555 1_555
C2G C3G 1_555 1_555
C3G C5G 1_555 1_555
C4G H1G 1_555 1_555
C5G H2G 1_555 1_555
C6G C4G 1_555 1_555
C7G C4G 1_555 1_555
C8G C3G 1_555 1_555
H3G C8G 1_555 1_555
O1G In1G 1_555 1_555
N1G C7G 1_555 1_555
O3G In1G 1_555 1_555
O4G C2G 1_555 1_555
O5G C1G 1_555 1_555
O6G C1G 1_555 1_555
C1E C6E 1_555 1_555
C2E C3E 1_555 1_555
C3E C5E 1_555 1_555
C4E H1E 1_555 1_555
C5E H2E 1_555 1_555
C6E C4E 1_555 1_555
C7E C4E 1_555 1_555
C8E C3E 1_555 1_555
H3E C8E 1_555 1_555
N1E N1G 1_555 1_555
O3E C2E 1_555 1_555
O4E C2E 1_555 1_555
O5E C1E 1_555 1_555
O6E C1E 1_555 1_555
In1H O2 1_555 1_555
O1H In1H 1_555 1_555
In1E O3E 1_555 1_555
In1I O2B 1_555 1_555
In1J O4E 1_555 1_555
In1K O4F 1_555 1_555
In1L O5E 1_555 1_555
In1M O5G 1_555 1_555
In1N O5D 1_555 1_555
In1O O5F 1_555 1_555
In1P O6E 1_555 1_555
In1Q O6F 1_555 1_555
In1R O5 1_555 1_555
In1S O5B 1_555 1_555
In1U O6B 1_555 1_555
In1W O6 1_555 1_555
O2A In1F 1_555 1_555
O3H In1H 1_555 1_555
O4A In1F 1_555 1_555
O4H In1 1_555 1_555
O4I In1B 1_555 1_555
O5L In1F 1_555 1_555
O5M In1D 1_555 1_555
O5N In1G 1_555 1_555
O5P In1B 1_555 1_555
O5Q In1 1_555 1_555
O5U In1H 1_555 1_555
O6M In1H 1_555 1_555
O6P In1G 1_555 1_555
O6Q In1D 1_555 1_555
O6S In1F 1_555 1_555
O6U In1 1_555 1_555
O6W In1B 1_555 1_555
C2 O3 1_555 1_555
C5 C6 1_555 1_555
C7 C8 1_555 1_555
O4 In1D 1_555 1_555
C5B C6B 1_555 1_555
C7B C8B 1_555 1_555
C7B N1B 1_555 1_555
O2B In1G 1_555 1_555
C2D O3D 1_555 1_555
C5D C6D 1_555 1_555
C7D C8D 1_555 1_555
O4D In1H 1_555 1_555
O6D In1S 1_555 1_555
C5F C6F 1_555 1_555
C7F C8F 1_555 1_555
C7F N1F 1_555 1_555
C2G O3G 1_555 1_555
C5G C6G 1_555 1_555
C7G C8G 1_555 1_555
O4G In1I 1_555 1_555
O6G In1R 1_555 1_555
C5E C6E 1_555 1_555
C7E C8E 1_555 1_555
C7E N1E 1_555 1_555
In1K O2A 1_555 1_555

#END
