
#######################################################################
#
#                 Cambridge Crystallographic Data Centre
#                                CCDC 
#
#######################################################################
#
# If this CIF has been generated from an entry in the Cambridge 
# Structural Database, then it will include bibliographic, chemical, 
# crystal, experimental, refinement or atomic coordinate data resulting 
# from the CCDC's data processing and validation procedures.
#
#######################################################################

data_IZENUY
_chemical_formula_moiety         '(C48 H30 Cl3 Fe6 N6 O32 1-)n'
_symmetry_cell_setting           cubic
_symmetry_space_group_name_H-M   'P -4 3 n'
_symmetry_Int_Tables_number      218
_space_group_name_Hall           'P -4n 2 3'
loop_
_symmetry_equiv_pos_site_id
_symmetry_equiv_pos_as_xyz
1 x,y,z
2 -x,-y,z
3 -x,y,-z
4 x,-y,-z
5 z,x,y
6 z,-x,-y
7 -z,-x,y
8 -z,x,-y
9 y,z,x
10 -y,z,-x
11 y,-z,-x
12 -y,-z,x
13 1/2+y,1/2+x,1/2+z
14 1/2-y,1/2-x,1/2+z
15 1/2+y,1/2-x,1/2-z
16 1/2-y,1/2+x,1/2-z
17 1/2+x,1/2+z,1/2+y
18 1/2-x,1/2+z,1/2-y
19 1/2-x,1/2-z,1/2+y
20 1/2+x,1/2-z,1/2-y
21 1/2+z,1/2+y,1/2+x
22 1/2+z,1/2-y,1/2-x
23 1/2-z,1/2+y,1/2-x
24 1/2-z,1/2-y,1/2+x
_cell_length_a                   21.8720(9)
_cell_length_b                   21.8720(9)
_cell_length_c                   21.8720(9)
_cell_angle_alpha                90
_cell_angle_beta                 90
_cell_angle_gamma                90
_cell_volume                     10463.2
loop_
_atom_site_label
_atom_site_type_symbol
_atom_site_fract_x
_atom_site_fract_y
_atom_site_fract_z
_atom_site_U_iso_or_equiv
_atom_site_thermal_displace_type
Fe1 Fe 0.26092(5) 0.67949(5) 0.80347(5) 0.0327 Uani
O1 O 0.2601(2) 0.7399(2) 0.7399(2) 0.0279 Uani
O2 O 0.3498(2) 0.6654(3) 0.7956(3) 0.0477 Uani
O3 O 0.3927(2) 0.7499(2) 0.7547(2) 0.0490 Uani
O4 O 0.6262(2) 0.7634(3) 0.7741(3) 0.0510 Uani
O5 O 0.6712(2) 0.6809(2) 0.8143(3) 0.0553 Uani
O6 O 0.2618(3) 0.6134(2) 0.8727(3) 0.0543 Uani
C1 C 0.3956(3) 0.6968(4) 0.7762(3) 0.0423 Uani
C2 C 0.4574(3) 0.6692(4) 0.7848(4) 0.0490 Uani
C3 C 0.4612(4) 0.6065(4) 0.7944(6) 0.0817 Uani
H1 H 0.4252 0.5830 0.7950 0.0980 Uiso
C4 C 0.5146(4) 0.5794(4) 0.8027(6) 0.0903 Uani
C5 C 0.5717(4) 0.6128(4) 0.8028(5) 0.0683 Uani
H2 H 0.6094 0.5930 0.8087 0.0820 Uiso
C6 C 0.5104(4) 0.7025(4) 0.7831(4) 0.0517 Uani
H3 H 0.5086 0.7446 0.7746 0.0620 Uiso
C7 C 0.5680(4) 0.6748(4) 0.7938(4) 0.0507 Uani
C8 C 0.6258(4) 0.7076(5) 0.7939(4) 0.0500 Uani
N1 N 0.5241(3) 0.5126(4) 0.8049(5) 0.1003 Uani
O2A O 0.6502(2) 0.3346(3) 0.7956(3) 0.0477 Uani
O3A O 0.6073(2) 0.2501(2) 0.7547(2) 0.0490 Uani
C1A C 0.6044(3) 0.3032(4) 0.7762(3) 0.0423 Uani
C2A C 0.5426(3) 0.3308(4) 0.7848(4) 0.0490 Uani
C3A C 0.5388(4) 0.3935(4) 0.7944(6) 0.0817 Uani
H1A H 0.5748 0.4170 0.7950 0.0980 Uiso
C4A C 0.4854(4) 0.4206(4) 0.8027(6) 0.0903 Uani
C5A C 0.4283(4) 0.3872(4) 0.8028(5) 0.0683 Uani
H2A H 0.3906 0.4070 0.8087 0.0820 Uiso
C6A C 0.4896(4) 0.2975(4) 0.7831(4) 0.0517 Uani
H3A H 0.4914 0.2554 0.7746 0.0620 Uiso
C7A C 0.4320(4) 0.3252(4) 0.7938(4) 0.0507 Uani
N1A N 0.4759(3) 0.4874(4) 0.8049(5) 0.1003 Uani
O5A O 0.3288(2) 0.3191(2) 0.8143(3) 0.0553 Uani
C8A C 0.3742(4) 0.2924(5) 0.7939(4) 0.0500 Uani
O4A O 0.3738(2) 0.2366(3) 0.7741(3) 0.0510 Uani
Fe1A Fe 0.73908(5) 0.32051(5) 0.80347(5) 0.0327 Uani
O1A O 0.7399(2) 0.2601(2) 0.7399(2) 0.0279 Uani
O6A O 0.7382(3) 0.3866(2) 0.8727(3) 0.0543 Uani
Fe1D Fe 0.80347(5) 0.26092(5) 0.67949(5) 0.0327 Uani
O2D O 0.7956(3) 0.3498(2) 0.6654(3) 0.0477 Uani
O3D O 0.7547(2) 0.3927(2) 0.7499(2) 0.0490 Uani
O4D O 0.7741(3) 0.6262(2) 0.7634(3) 0.0510 Uani
O5D O 0.8143(3) 0.6712(2) 0.6809(2) 0.0553 Uani
O6D O 0.8727(3) 0.2618(3) 0.6134(2) 0.0543 Uani
C1D C 0.7762(3) 0.3956(3) 0.6968(4) 0.0423 Uani
C2D C 0.7848(4) 0.4574(3) 0.6692(4) 0.0490 Uani
C3D C 0.7944(6) 0.4612(4) 0.6065(4) 0.0817 Uani
H1D H 0.7950 0.4252 0.5830 0.0980 Uiso
C4D C 0.8027(6) 0.5146(4) 0.5794(4) 0.0903 Uani
C5D C 0.8028(5) 0.5717(4) 0.6128(4) 0.0683 Uani
H2D H 0.8087 0.6094 0.5930 0.0820 Uiso
C6D C 0.7831(4) 0.5104(4) 0.7025(4) 0.0517 Uani
H3D H 0.7746 0.5086 0.7446 0.0620 Uiso
C7D C 0.7938(4) 0.5680(4) 0.6748(4) 0.0507 Uani
C8D C 0.7939(4) 0.6258(4) 0.7076(5) 0.0500 Uani
N1D N 0.8049(5) 0.5241(3) 0.5126(4) 0.1003 Uani
O2E O 0.7956(3) 0.6502(2) 0.3346(3) 0.0477 Uani
O3E O 0.7547(2) 0.6073(2) 0.2501(2) 0.0490 Uani
C1E C 0.7762(3) 0.6044(3) 0.3032(4) 0.0423 Uani
C2E C 0.7848(4) 0.5426(3) 0.3308(4) 0.0490 Uani
C3E C 0.7944(6) 0.5388(4) 0.3935(4) 0.0817 Uani
H1E H 0.7950 0.5748 0.4170 0.0980 Uiso
C4E C 0.8027(6) 0.4854(4) 0.4206(4) 0.0903 Uani
C5E C 0.8028(5) 0.4283(4) 0.3872(4) 0.0683 Uani
H2E H 0.8087 0.3906 0.4070 0.0820 Uiso
C6E C 0.7831(4) 0.4896(4) 0.2975(4) 0.0517 Uani
H3E H 0.7746 0.4914 0.2554 0.0620 Uiso
C7E C 0.7938(4) 0.4320(4) 0.3252(4) 0.0507 Uani
N1E N 0.8049(5) 0.4759(3) 0.4874(4) 0.1003 Uani
O5E O 0.8143(3) 0.3288(2) 0.3191(2) 0.0553 Uani
C8E C 0.7939(4) 0.3742(4) 0.2924(5) 0.0500 Uani
O4E O 0.7741(3) 0.3738(2) 0.2366(3) 0.0510 Uani
Fe1E Fe 0.80347(5) 0.73908(5) 0.32051(5) 0.0327 Uani
O6E O 0.8727(3) 0.7382(3) 0.3866(2) 0.0543 Uani
Fe1F Fe 0.19653(5) 0.73908(5) 0.67949(5) 0.0327 Uani
O2F O 0.2044(3) 0.6502(2) 0.6654(3) 0.0477 Uani
O3F O 0.2453(2) 0.6073(2) 0.7499(2) 0.0490 Uani
O4F O 0.2259(3) 0.3738(2) 0.7634(3) 0.0510 Uani
O5F O 0.1857(3) 0.3288(2) 0.6809(2) 0.0553 Uani
O6F O 0.1273(3) 0.7382(3) 0.6134(2) 0.0543 Uani
C1F C 0.2238(3) 0.6044(3) 0.6968(4) 0.0423 Uani
C2F C 0.2152(4) 0.5426(3) 0.6692(4) 0.0490 Uani
C3F C 0.2056(6) 0.5388(4) 0.6065(4) 0.0817 Uani
H1F H 0.2050 0.5748 0.5830 0.0980 Uiso
C4F C 0.1973(6) 0.4854(4) 0.5794(4) 0.0903 Uani
C5F C 0.1972(5) 0.4283(4) 0.6128(4) 0.0683 Uani
H2F H 0.1913 0.3906 0.5930 0.0820 Uiso
C6F C 0.2169(4) 0.4896(4) 0.7025(4) 0.0517 Uani
H3F H 0.2254 0.4914 0.7446 0.0620 Uiso
C7F C 0.2062(4) 0.4320(4) 0.6748(4) 0.0507 Uani
C8F C 0.2061(4) 0.3742(4) 0.7076(5) 0.0500 Uani
N1F N 0.1951(5) 0.4759(3) 0.5126(4) 0.1003 Uani
O2G O 0.2044(3) 0.3498(2) 0.3346(3) 0.0477 Uani
O3G O 0.2453(2) 0.3927(2) 0.2501(2) 0.0490 Uani
C1G C 0.2238(3) 0.3956(3) 0.3032(4) 0.0423 Uani
C2G C 0.2152(4) 0.4574(3) 0.3308(4) 0.0490 Uani
C3G C 0.2056(6) 0.4612(4) 0.3935(4) 0.0817 Uani
H1G H 0.2050 0.4252 0.4170 0.0980 Uiso
C4G C 0.1973(6) 0.5146(4) 0.4206(4) 0.0903 Uani
C5G C 0.1972(5) 0.5717(4) 0.3872(4) 0.0683 Uani
H2G H 0.1913 0.6094 0.4070 0.0820 Uiso
C6G C 0.2169(4) 0.5104(4) 0.2975(4) 0.0517 Uani
H3G H 0.2254 0.5086 0.2554 0.0620 Uiso
C7G C 0.2062(4) 0.5680(4) 0.3252(4) 0.0507 Uani
N1G N 0.1951(5) 0.5241(3) 0.4874(4) 0.1003 Uani
O5G O 0.1857(3) 0.6712(2) 0.3191(2) 0.0553 Uani
C8G C 0.2061(4) 0.6258(4) 0.2924(5) 0.0500 Uani
O4G O 0.2259(3) 0.6262(2) 0.2366(3) 0.0510 Uani
Fe1G Fe 0.19653(5) 0.26092(5) 0.32051(5) 0.0327 Uani
O6G O 0.1273(3) 0.2618(3) 0.3866(2) 0.0543 Uani
Fe1B Fe 0.73908(5) 0.67949(5) 0.19653(5) 0.0327 Uani
Fe1C Fe 0.26092(5) 0.32051(5) 0.19653(5) 0.0327 Uani
Fe1I Fe 0.32051(5) 0.80347(5) 0.73908(5) 0.0327 Uani
Fe1J Fe 0.67949(5) 0.19653(5) 0.73908(5) 0.0327 Uani
Fe1L Fe 0.17949(5) 0.76092(5) 0.30347(5) 0.0327 Uani
Fe1M Fe 0.82051(5) 0.23908(5) 0.30347(5) 0.0327 Uani
Fe1N Fe 0.17949(5) 0.23908(5) 0.69653(5) 0.0327 Uani
Fe1O Fe 0.82051(5) 0.76092(5) 0.69653(5) 0.0327 Uani
Fe1P Fe 0.76092(5) 0.30347(5) 0.17949(5) 0.0327 Uani
Fe1Q Fe 0.23908(5) 0.30347(5) 0.82051(5) 0.0327 Uani
Fe1R Fe 0.23908(5) 0.69653(5) 0.17949(5) 0.0327 Uani
Fe1S Fe 0.76092(5) 0.69653(5) 0.82051(5) 0.0327 Uani
Fe1T Fe 0.30347(5) 0.17949(5) 0.76092(5) 0.0327 Uani
Fe1W Fe 0.69653(5) 0.82051(5) 0.76092(5) 0.0327 Uani
O1B O 0.7399(2) 0.7399(2) 0.2601(2) 0.0279 Uani
O1C O 0.2601(2) 0.2601(2) 0.2601(2) 0.0279 Uani
O3H O 0.7499(2) 0.7547(2) 0.3927(2) 0.0490 Uani
O3I O 0.2501(2) 0.7547(2) 0.6073(2) 0.0490 Uani
O3J O 0.7499(2) 0.2453(2) 0.6073(2) 0.0490 Uani
O3K O 0.2501(2) 0.2453(2) 0.3927(2) 0.0490 Uani
O4P O 0.1262(2) 0.2741(3) 0.2634(3) 0.0510 Uani
O4Q O 0.8738(2) 0.2741(3) 0.7366(3) 0.0510 Uani
O4R O 0.8738(2) 0.7259(3) 0.2634(3) 0.0510 Uani
O4S O 0.1262(2) 0.7259(3) 0.7366(3) 0.0510 Uani
O4U O 0.2741(3) 0.7366(3) 0.8738(2) 0.0510 Uani
O4V O 0.7259(3) 0.2634(3) 0.8738(2) 0.0510 Uani
O5L O 0.1809(2) 0.1712(2) 0.3143(3) 0.0553 Uani
O5M O 0.8191(2) 0.8288(2) 0.3143(3) 0.0553 Uani
O5N O 0.1809(2) 0.8288(2) 0.6857(3) 0.0553 Uani
O5O O 0.8191(2) 0.1712(2) 0.6857(3) 0.0553 Uani
O5Q O 0.8288(2) 0.3143(3) 0.8191(2) 0.0553 Uani
O5S O 0.1712(2) 0.6857(3) 0.8191(2) 0.0553 Uani
Cl1 Cl 0.1399(10) 0.8601(10) 0.8601(10) 0.2550 Uiso
Cl2 Cl 0.375(2) 0.625(2) 0.625(2) 0.3800 Uiso
Cl3 Cl 0.3278(18) 0.6231(19) 0.5167(19) 0.2230 Uiso
loop_
_atom_site_aniso_label
_atom_site_aniso_U_11
_atom_site_aniso_U_22
_atom_site_aniso_U_33
_atom_site_aniso_U_23
_atom_site_aniso_U_13
_atom_site_aniso_U_12
Fe1 0.0237(6) 0.0365(7) 0.0379(7) 0.0049(5) 0.0004(5) 0.0009(5)
O1 0.0279(18) 0.0279(18) 0.0279(18) 0.002(2) -0.002(2) -0.002(2)
O2 0.026(3) 0.056(4) 0.061(4) 0.013(3) 0.000(3) 0.002(3)
O3 0.041(3) 0.050(4) 0.056(4) 0.008(3) 0.000(3) -0.003(3)
O4 0.031 0.057 0.065 0 -0.005 -0.001
O5 0.034 0.056 0.076 0.021 -0.008 -0.004
O6 0.050(3) 0.059(4) 0.054(4) 0.026(3) -0.008(3) -0.005(3)
C1 0.034(5) 0.058(6) 0.035(5) -0.007(5) 0.011(4) 0.008(4)
C2 0.026(4) 0.048(5) 0.073(6) -0.004(5) -0.005(4) 0.005(4)
C3 0.020(4) 0.046(6) 0.179(12) 0.002(7) 0.001(6) -0.003(4)
C4 0.027(5) 0.043(6) 0.201(14) 0.019(7) -0.012(7) -0.004(4)
C5 0.037(5) 0.055(6) 0.113(9) -0.001(6) -0.015(5) 0.002(4)
C6 0.030(4) 0.055(6) 0.070(6) -0.010(5) -0.004(4) -0.001(4)
C7 0.036(5) 0.047(5) 0.069(6) -0.006(5) -0.006(4) -0.012(4)
C8 0.026 0.081 0.043 -0.007 0 -0.012
N1 0.048(6) 0.051(5) 0.202(10) -0.004(7) 0.027(6) 0.001(4)
O2A 0.026 0.056 0.061 -0.013 0 0.002
O3A 0.041 0.05 0.056 -0.008 0 -0.003
C1A 0.034 0.058 0.035 0.007 -0.011 0.008
C2A 0.026 0.048 0.073 0.004 0.005 0.005
C3A 0.02 0.046 0.179 -0.002 -0.001 -0.003
C4A 0.027 0.043 0.201 -0.019 0.012 -0.004
C5A 0.037 0.055 0.113 0.001 0.015 0.002
C6A 0.03 0.055 0.07 0.01 0.004 -0.001
C7A 0.036 0.047 0.069 0.006 0.006 -0.012
N1A 0.048 0.051 0.202 0.004 -0.027 0.001
O5A 0.034 0.056 0.076 -0.021 0.008 -0.004
C8A 0.026 0.081 0.043 0.007 0 -0.012
O4A 0.031 0.057 0.065 0 0.005 -0.001
Fe1A 0.0237 0.0365 0.0379 -0.0049 -0.0004 0.0009
O1A 0.0279 0.0279 0.0279 -0.002 0.002 -0.002
O6A 0.05 0.059 0.054 -0.026 0.008 -0.005
Fe1D 0.0379 0.0237 0.0365 0.0009 0.0049 0.0004
O2D 0.061 0.026 0.056 0.002 0.013 0
O3D 0.056 0.041 0.05 -0.003 0.008 0
O4D 0.065 0.031 0.057 -0.001 0 -0.005
O5D 0.076 0.034 0.056 -0.004 0.021 -0.008
O6D 0.054 0.05 0.059 -0.005 0.026 -0.008
C1D 0.035 0.034 0.058 0.008 -0.007 0.011
C2D 0.073 0.026 0.048 0.005 -0.004 -0.005
C3D 0.179 0.02 0.046 -0.003 0.002 0.001
C4D 0.201 0.027 0.043 -0.004 0.019 -0.012
C5D 0.113 0.037 0.055 0.002 -0.001 -0.015
C6D 0.07 0.03 0.055 -0.001 -0.01 -0.004
C7D 0.069 0.036 0.047 -0.012 -0.006 -0.006
C8D 0.043 0.026 0.081 -0.012 -0.007 0
N1D 0.202 0.048 0.051 0.001 -0.004 0.027
O2E 0.061 0.026 0.056 0.002 -0.013 0
O3E 0.056 0.041 0.05 -0.003 -0.008 0
C1E 0.035 0.034 0.058 0.008 0.007 -0.011
C2E 0.073 0.026 0.048 0.005 0.004 0.005
C3E 0.179 0.02 0.046 -0.003 -0.002 -0.001
C4E 0.201 0.027 0.043 -0.004 -0.019 0.012
C5E 0.113 0.037 0.055 0.002 0.001 0.015
C6E 0.07 0.03 0.055 -0.001 0.01 0.004
C7E 0.069 0.036 0.047 -0.012 0.006 0.006
N1E 0.202 0.048 0.051 0.001 0.004 -0.027
O5E 0.076 0.034 0.056 -0.004 -0.021 0.008
C8E 0.043 0.026 0.081 -0.012 0.007 0
O4E 0.065 0.031 0.057 -0.001 0 0.005
Fe1E 0.0379 0.0237 0.0365 0.0009 -0.0049 -0.0004
O6E 0.054 0.05 0.059 -0.005 -0.026 0.008
Fe1F 0.0379 0.0237 0.0365 -0.0009 -0.0049 0.0004
O2F 0.061 0.026 0.056 -0.002 -0.013 0
O3F 0.056 0.041 0.05 0.003 -0.008 0
O4F 0.065 0.031 0.057 0.001 0 -0.005
O5F 0.076 0.034 0.056 0.004 -0.021 -0.008
O6F 0.054 0.05 0.059 0.005 -0.026 -0.008
C1F 0.035 0.034 0.058 -0.008 0.007 0.011
C2F 0.073 0.026 0.048 -0.005 0.004 -0.005
C3F 0.179 0.02 0.046 0.003 -0.002 0.001
C4F 0.201 0.027 0.043 0.004 -0.019 -0.012
C5F 0.113 0.037 0.055 -0.002 0.001 -0.015
C6F 0.07 0.03 0.055 0.001 0.01 -0.004
C7F 0.069 0.036 0.047 0.012 0.006 -0.006
C8F 0.043 0.026 0.081 0.012 0.007 0
N1F 0.202 0.048 0.051 -0.001 0.004 0.027
O2G 0.061 0.026 0.056 -0.002 0.013 0
O3G 0.056 0.041 0.05 0.003 0.008 0
C1G 0.035 0.034 0.058 -0.008 -0.007 -0.011
C2G 0.073 0.026 0.048 -0.005 -0.004 0.005
C3G 0.179 0.02 0.046 0.003 0.002 -0.001
C4G 0.201 0.027 0.043 0.004 0.019 0.012
C5G 0.113 0.037 0.055 -0.002 -0.001 0.015
C6G 0.07 0.03 0.055 0.001 -0.01 0.004
C7G 0.069 0.036 0.047 0.012 -0.006 0.006
N1G 0.202 0.048 0.051 -0.001 -0.004 -0.027
O5G 0.076 0.034 0.056 0.004 0.021 0.008
C8G 0.043 0.026 0.081 0.012 -0.007 0
O4G 0.065 0.031 0.057 0.001 0 0.005
Fe1G 0.0379 0.0237 0.0365 -0.0009 0.0049 -0.0004
O6G 0.054 0.05 0.059 0.005 0.026 0.008
Fe1B 0.0237 0.0365 0.0379 -0.0049 0.0004 -0.0009
Fe1C 0.0237 0.0365 0.0379 0.0049 -0.0004 -0.0009
Fe1I 0.0365 0.0379 0.0237 -0.0004 0.0009 -0.0049
Fe1J 0.0365 0.0379 0.0237 0.0004 -0.0009 -0.0049
Fe1L 0.0365 0.0237 0.0379 0.0004 0.0049 0.0009
Fe1M 0.0365 0.0237 0.0379 -0.0004 -0.0049 0.0009
Fe1N 0.0365 0.0237 0.0379 0.0004 -0.0049 -0.0009
Fe1O 0.0365 0.0237 0.0379 -0.0004 0.0049 -0.0009
Fe1P 0.0237 0.0379 0.0365 0.0049 0.0009 0.0004
Fe1Q 0.0237 0.0379 0.0365 -0.0049 0.0009 -0.0004
Fe1R 0.0237 0.0379 0.0365 -0.0049 -0.0009 0.0004
Fe1S 0.0237 0.0379 0.0365 0.0049 -0.0009 -0.0004
Fe1T 0.0379 0.0365 0.0237 0.0009 0.0004 0.0049
Fe1W 0.0379 0.0365 0.0237 -0.0009 -0.0004 0.0049
O1B 0.0279 0.0279 0.0279 -0.002 -0.002 0.002
O1C 0.0279 0.0279 0.0279 0.002 0.002 0.002
O3H 0.05 0.056 0.041 0 -0.003 0.008
O3I 0.05 0.056 0.041 0 -0.003 -0.008
O3J 0.05 0.056 0.041 0 0.003 -0.008
O3K 0.05 0.056 0.041 0 0.003 0.008
O4P 0.031 0.065 0.057 0 -0.001 -0.005
O4Q 0.031 0.065 0.057 0 -0.001 0.005
O4R 0.031 0.065 0.057 0 0.001 -0.005
O4S 0.031 0.065 0.057 0 0.001 0.005
O4U 0.065 0.057 0.031 -0.001 0.005 0
O4V 0.065 0.057 0.031 0.001 -0.005 0
O5L 0.056 0.034 0.076 -0.008 0.021 -0.004
O5M 0.056 0.034 0.076 0.008 -0.021 -0.004
O5N 0.056 0.034 0.076 -0.008 -0.021 0.004
O5O 0.056 0.034 0.076 0.008 0.021 0.004
O5Q 0.034 0.076 0.056 -0.021 -0.004 0.008
O5S 0.034 0.076 0.056 0.021 0.004 0.008
loop_
_geom_bond_atom_site_label_1
_geom_bond_atom_site_label_2
_geom_bond_site_symmetry_1
_geom_bond_site_symmetry_2
Fe1 O1 1_555 1_555
O1 Fe1F 1_555 1_555
O2 Fe1 1_555 1_555
O3 C1 1_555 1_555
O4 C8 1_555 1_555
O5 C8 1_555 1_555
O6 Fe1 1_555 1_555
C1 O2 1_555 1_555
C2 C1 1_555 1_555
C3 C2 1_555 1_555
H1 C3 1_555 1_555
C4 C3 1_555 1_555
C5 C4 1_555 1_555
H2 C5 1_555 1_555
C6 C2 1_555 1_555
H3 C6 1_555 1_555
C7 C5 1_555 1_555
C8 C7 1_555 1_555
N1 C4 1_555 1_555
O2A C1A 1_555 1_555
O3A C1A 1_555 1_555
C1A C2A 1_555 1_555
C2A C3A 1_555 1_555
C3A H1A 1_555 1_555
C4A C3A 1_555 1_555
C5A C4A 1_555 1_555
H2A C5A 1_555 1_555
C6A C2A 1_555 1_555
H3A C6A 1_555 1_555
C7A C5A 1_555 1_555
N1A N1 1_555 1_555
O5A C8A 1_555 1_555
C8A C7A 1_555 1_555
O4A C8A 1_555 1_555
Fe1A O2A 1_555 1_555
O1A Fe1A 1_555 1_555
O6A Fe1A 1_555 1_555
Fe1D O1A 1_555 1_555
O2D Fe1D 1_555 1_555
O3D Fe1A 1_555 1_555
O4D C8D 1_555 1_555
O5D C8D 1_555 1_555
O6D Fe1D 1_555 1_555
C1D O2D 1_555 1_555
C2D C1D 1_555 1_555
C3D C2D 1_555 1_555
H1D C3D 1_555 1_555
C4D C3D 1_555 1_555
C5D C4D 1_555 1_555
H2D C5D 1_555 1_555
C6D C2D 1_555 1_555
H3D C6D 1_555 1_555
C7D C5D 1_555 1_555
C8D C7D 1_555 1_555
N1D C4D 1_555 1_555
O2E C1E 1_555 1_555
O3E C1E 1_555 1_555
C1E C2E 1_555 1_555
C2E C3E 1_555 1_555
C3E H1E 1_555 1_555
C4E C3E 1_555 1_555
C5E C4E 1_555 1_555
H2E C5E 1_555 1_555
C6E C2E 1_555 1_555
H3E C6E 1_555 1_555
C7E C5E 1_555 1_555
N1E N1D 1_555 1_555
O5E C8E 1_555 1_555
C8E C7E 1_555 1_555
O4E C8E 1_555 1_555
Fe1E O2E 1_555 1_555
O6E Fe1E 1_555 1_555
Fe1F O2F 1_555 1_555
O2F C1F 1_555 1_555
O3F Fe1 1_555 1_555
O4F C8F 1_555 1_555
O5F C8F 1_555 1_555
O6F Fe1F 1_555 1_555
C1F O3F 1_555 1_555
C2F C1F 1_555 1_555
C3F C2F 1_555 1_555
H1F C3F 1_555 1_555
C4F C3F 1_555 1_555
C5F C4F 1_555 1_555
H2F C5F 1_555 1_555
C6F C2F 1_555 1_555
H3F C6F 1_555 1_555
C7F C5F 1_555 1_555
C8F C7F 1_555 1_555
N1F C4F 1_555 1_555
O2G C1G 1_555 1_555
O3G C1G 1_555 1_555
C1G C2G 1_555 1_555
C2G C3G 1_555 1_555
C3G H1G 1_555 1_555
C4G C3G 1_555 1_555
C5G C4G 1_555 1_555
H2G C5G 1_555 1_555
C6G C2G 1_555 1_555
H3G C6G 1_555 1_555
C7G C5G 1_555 1_555
N1G N1F 1_555 1_555
O5G C8G 1_555 1_555
C8G C7G 1_555 1_555
O4G C8G 1_555 1_555
Fe1G O2G 1_555 1_555
O6G Fe1G 1_555 1_555
Fe1B O3E 1_555 1_555
Fe1C O3G 1_555 1_555
Fe1I O1 1_555 1_555
Fe1J O3A 1_555 1_555
Fe1L O5G 1_555 1_555
Fe1M O5E 1_555 1_555
Fe1N O5F 1_555 1_555
Fe1O O5D 1_555 1_555
Fe1P O4E 1_555 1_555
Fe1Q O5A 1_555 1_555
Fe1R O4G 1_555 1_555
Fe1S O5 1_555 1_555
Fe1T O4A 1_555 1_555
Fe1W O4 1_555 1_555
O1B Fe1E 1_555 1_555
O1C Fe1G 1_555 1_555
O3H Fe1E 1_555 1_555
O3I Fe1F 1_555 1_555
O3J Fe1D 1_555 1_555
O3K Fe1G 1_555 1_555
O4P Fe1G 1_555 1_555
O4Q Fe1D 1_555 1_555
O4R Fe1E 1_555 1_555
O4S Fe1F 1_555 1_555
O4U Fe1 1_555 1_555
O4V Fe1A 1_555 1_555
O5L Fe1G 1_555 1_555
O5M Fe1E 1_555 1_555
O5N Fe1F 1_555 1_555
O5O Fe1D 1_555 1_555
O5Q Fe1A 1_555 1_555
O5S Fe1 1_555 1_555
O3 Fe1I 1_555 1_555
C6 C7 1_555 1_555
C4A N1A 1_555 1_555
C6A C7A 1_555 1_555
O1A Fe1J 1_555 1_555
O3D C1D 1_555 1_555
O4D Fe1S 1_555 1_555
C6D C7D 1_555 1_555
C4E N1E 1_555 1_555
C6E C7E 1_555 1_555
O4F Fe1Q 1_555 1_555
C6F C7F 1_555 1_555
C4G N1G 1_555 1_555
C6G C7G 1_555 1_555
Fe1B O1B 1_555 1_555
Fe1C O1C 1_555 1_555

#END
