
#######################################################################
#
#                 Cambridge Crystallographic Data Centre
#                                CCDC 
#
#######################################################################
#
# If this CIF has been generated from an entry in the Cambridge 
# Structural Database, then it will include bibliographic, chemical, 
# crystal, experimental, refinement or atomic coordinate data resulting 
# from the CCDC's data processing and validation procedures.
#
#######################################################################

data_IZENIM
_chemical_formula_moiety         '(C48 H42 In6 N6 O38)n'
_symmetry_cell_setting           cubic
_symmetry_space_group_name_H-M   'P -4 3 n'
_symmetry_Int_Tables_number      218
_space_group_name_Hall           'P -4n 2 3'
loop_
_symmetry_equiv_pos_site_id
_symmetry_equiv_pos_as_xyz
1 x,y,z
2 -x,-y,z
3 -x,y,-z
4 x,-y,-z
5 z,x,y
6 z,-x,-y
7 -z,-x,y
8 -z,x,-y
9 y,z,x
10 -y,z,-x
11 y,-z,-x
12 -y,-z,x
13 1/2+y,1/2+x,1/2+z
14 1/2-y,1/2-x,1/2+z
15 1/2+y,1/2-x,1/2-z
16 1/2-y,1/2+x,1/2-z
17 1/2+x,1/2+z,1/2+y
18 1/2-x,1/2+z,1/2-y
19 1/2-x,1/2-z,1/2+y
20 1/2+x,1/2-z,1/2-y
21 1/2+z,1/2+y,1/2+x
22 1/2+z,1/2-y,1/2-x
23 1/2-z,1/2+y,1/2-x
24 1/2-z,1/2-y,1/2+x
_cell_length_a                   22.4530(4)
_cell_length_b                   22.4530(4)
_cell_length_c                   22.4530(4)
_cell_angle_alpha                90
_cell_angle_beta                 90
_cell_angle_gamma                90
_cell_volume                     11319.4
loop_
_atom_site_label
_atom_site_type_symbol
_atom_site_fract_x
_atom_site_fract_y
_atom_site_fract_z
In1 In 0.322303(18) 0.739164(17) 0.806326(18)
C1 C 0.4612(3) 0.7950(4) 0.6047(3)
H1 H 0.4257 0.7967 0.5819
C2 C 0.4588(3) 0.7866(3) 0.6662(3)
C3 C 0.5112(3) 0.7861(3) 0.6994(3)
H2 H 0.5095 0.7805 0.7413
C4 C 0.5163(3) 0.8010(5) 0.5774(3)
C5 C 0.3990(3) 0.7798(3) 0.6951(3)
C6 C 0.5652(3) 0.7936(3) 0.6718(3)
C7 C 0.5680(3) 0.8019(4) 0.6098(3)
H3 H 0.6052 0.8081 0.5907
C8 C 0.6231(3) 0.7946(3) 0.7052(3)
N1 N 0.5229(3) 0.8042(4) 0.5138(3)
O1 O 0.39696(19) 0.7614(2) 0.7478(2)
O2 O 0.6214(2) 0.7802(2) 0.7592(2)
O3 O 0.3543(2) 0.7935(2) 0.6627(2)
O4 O 0.6677(2) 0.8106(2) 0.6758(2)
O5 O 0.2596(2) 0.7404(2) 0.7404(2)
O6 O 0.3880(5) 0.7360(6) 0.8716(5)
C1B C 0.5388(3) 0.7950(4) 0.3953(3)
H1B H 0.5743 0.7967 0.4181
C2B C 0.5412(3) 0.7866(3) 0.3338(3)
C3B C 0.4888(3) 0.7861(3) 0.3006(3)
H2B H 0.4905 0.7805 0.2587
C4B C 0.4837(3) 0.8010(5) 0.4226(3)
C5B C 0.6010(3) 0.7798(3) 0.3049(3)
C6B C 0.4348(3) 0.7936(3) 0.3282(3)
C7B C 0.4320(3) 0.8019(4) 0.3902(3)
H3B H 0.3948 0.8081 0.4093
C8B C 0.3769(3) 0.7946(3) 0.2948(3)
N1B N 0.4771(3) 0.8042(4) 0.4862(3)
O1B O 0.60304(19) 0.7614(2) 0.2522(2)
O2B O 0.3786(2) 0.7802(2) 0.2408(2)
O3B O 0.6457(2) 0.7935(2) 0.3373(2)
O4B O 0.3323(2) 0.8106(2) 0.3242(2)
In1B In 0.677697(18) 0.739164(17) 0.193674(18)
O5B O 0.7404(2) 0.7404(2) 0.2596(2)
O6B O 0.6120(5) 0.7360(6) 0.1284(5)
In1D In 0.806326(18) 0.322303(18) 0.739164(17)
C1D C 0.6047(3) 0.4612(3) 0.7950(4)
H1D H 0.5819 0.4257 0.7967
C2D C 0.6662(3) 0.4588(3) 0.7866(3)
C3D C 0.6994(3) 0.5112(3) 0.7861(3)
H2D H 0.7413 0.5095 0.7805
C4D C 0.5774(3) 0.5163(3) 0.8010(5)
C5D C 0.6951(3) 0.3990(3) 0.7798(3)
C6D C 0.6718(3) 0.5652(3) 0.7936(3)
C7D C 0.6098(3) 0.5680(3) 0.8019(4)
H3D H 0.5907 0.6052 0.8081
C8D C 0.7052(3) 0.6231(3) 0.7946(3)
N1D N 0.5138(3) 0.5229(3) 0.8042(4)
O1D O 0.7478(2) 0.39696(19) 0.7614(2)
O2D O 0.7592(2) 0.6214(2) 0.7802(2)
O3D O 0.6627(2) 0.3543(2) 0.7935(2)
O4D O 0.6758(2) 0.6677(2) 0.8106(2)
O6D O 0.8716(5) 0.3880(5) 0.7360(6)
C1F C 0.3953(3) 0.5388(3) 0.7950(4)
H1F H 0.4181 0.5743 0.7967
C2F C 0.3338(3) 0.5412(3) 0.7866(3)
C3F C 0.3006(3) 0.4888(3) 0.7861(3)
H2F H 0.2587 0.4905 0.7805
C4F C 0.4226(3) 0.4837(3) 0.8010(5)
C5F C 0.3049(3) 0.6010(3) 0.7798(3)
C6F C 0.3282(3) 0.4348(3) 0.7936(3)
C7F C 0.3902(3) 0.4320(3) 0.8019(4)
H3F H 0.4093 0.3948 0.8081
C8F C 0.2948(3) 0.3769(3) 0.7946(3)
N1F N 0.4862(3) 0.4771(3) 0.8042(4)
O1F O 0.2522(2) 0.60304(19) 0.7614(2)
O2F O 0.2408(2) 0.3786(2) 0.7802(2)
O3F O 0.3373(2) 0.6457(2) 0.7935(2)
O4F O 0.3242(2) 0.3323(2) 0.8106(2)
In1E In 0.806326(18) 0.677697(18) 0.260836(17)
C1E C 0.6047(3) 0.5388(3) 0.2050(4)
H1E H 0.5819 0.5743 0.2033
C2E C 0.6662(3) 0.5412(3) 0.2134(3)
C3E C 0.6994(3) 0.4888(3) 0.2139(3)
H2E H 0.7413 0.4905 0.2195
C4E C 0.5774(3) 0.4837(3) 0.1990(5)
C5E C 0.6951(3) 0.6010(3) 0.2202(3)
C6E C 0.6718(3) 0.4348(3) 0.2064(3)
C7E C 0.6098(3) 0.4320(3) 0.1981(4)
H3E H 0.5907 0.3948 0.1919
C8E C 0.7052(3) 0.3769(3) 0.2054(3)
N1E N 0.5138(3) 0.4771(3) 0.1958(4)
O1E O 0.7478(2) 0.60304(19) 0.2386(2)
O2E O 0.7592(2) 0.3786(2) 0.2198(2)
O3E O 0.6627(2) 0.6457(2) 0.2065(2)
O4E O 0.6758(2) 0.3323(2) 0.1894(2)
O6E O 0.8716(5) 0.6120(5) 0.2640(6)
C1G C 0.3953(3) 0.4612(3) 0.2050(4)
H1G H 0.4181 0.4257 0.2033
C2G C 0.3338(3) 0.4588(3) 0.2134(3)
C3G C 0.3006(3) 0.5112(3) 0.2139(3)
H2G H 0.2587 0.5095 0.2195
C4G C 0.4226(3) 0.5163(3) 0.1990(5)
C5G C 0.3049(3) 0.3990(3) 0.2202(3)
C6G C 0.3282(3) 0.5652(3) 0.2064(3)
C7G C 0.3902(3) 0.5680(3) 0.1981(4)
H3G H 0.4093 0.6052 0.1919
C8G C 0.2948(3) 0.6231(3) 0.2054(3)
N1G N 0.4862(3) 0.5229(3) 0.1958(4)
O1G O 0.2522(2) 0.39696(19) 0.2386(2)
O2G O 0.2408(2) 0.6214(2) 0.2198(2)
O3G O 0.3373(2) 0.3543(2) 0.2065(2)
O4G O 0.3242(2) 0.6677(2) 0.1894(2)
In1F In 0.193674(18) 0.677697(18) 0.739164(17)
O6F O 0.1284(5) 0.6120(5) 0.7360(6)
In1G In 0.193674(18) 0.322303(18) 0.260836(17)
O6G O 0.1284(5) 0.3880(5) 0.2640(6)
In1A In 0.677697(18) 0.260836(17) 0.806326(18)
In1C In 0.322303(18) 0.260836(17) 0.193674(18)
In1H In 0.739164(17) 0.806326(18) 0.322303(18)
In1I In 0.260836(17) 0.806326(18) 0.677697(18)
In1L In 0.239164(17) 0.822303(18) 0.306326(18)
In1O In 0.760836(17) 0.822303(18) 0.693674(18)
In1P In 0.822303(18) 0.306326(18) 0.239164(17)
In1Q In 0.177697(18) 0.306326(18) 0.760836(17)
In1R In 0.177697(18) 0.693674(18) 0.239164(17)
In1S In 0.822303(18) 0.693674(18) 0.760836(17)
In1T In 0.306326(18) 0.239164(17) 0.822303(18)
In1U In 0.306326(18) 0.760836(17) 0.177697(18)
In1V In 0.693674(18) 0.239164(17) 0.177697(18)
In1W In 0.693674(18) 0.760836(17) 0.822303(18)
O2P O 0.1214(2) 0.2592(2) 0.2802(2)
O2Q O 0.8786(2) 0.2592(2) 0.7198(2)
O2R O 0.8786(2) 0.7408(2) 0.2802(2)
O2S O 0.1214(2) 0.7408(2) 0.7198(2)
O2U O 0.2592(2) 0.7198(2) 0.8786(2)
O2W O 0.7408(2) 0.7198(2) 0.1214(2)
O3H O 0.7935(2) 0.6627(2) 0.3543(2)
O3I O 0.2065(2) 0.6627(2) 0.6457(2)
O3J O 0.7935(2) 0.3373(2) 0.6457(2)
O3K O 0.2065(2) 0.3373(2) 0.3543(2)
O4M O 0.6894(2) 0.8323(2) 0.1758(2)
O4N O 0.3106(2) 0.8323(2) 0.8242(2)
O4T O 0.1758(2) 0.3106(2) 0.1677(2)
O4U O 0.1758(2) 0.6894(2) 0.8323(2)
O4V O 0.8242(2) 0.3106(2) 0.8323(2)
O4W O 0.8242(2) 0.6894(2) 0.1677(2)
O5A O 0.7404(2) 0.2596(2) 0.7404(2)
O5C O 0.2596(2) 0.2596(2) 0.2596(2)
O7 O 0.1467(9) 0.8533(9) 0.8533(9)
O8 O 0.398(4) 0.602(4) 0.602(4)
O9 O 0.8349(10) 0.4971(11) 0.6896(10)
H4 H 0.8538 0.5420 0.7064
O10 O 0.5041(15) 0.6444(14) 0.7226(15)
O11 O 0.446(4) 0.897(4) 0.841(4)
O12 O 0.512(4) 0.900(4) 0.896(4)
loop_
_geom_bond_atom_site_label_1
_geom_bond_atom_site_label_2
_geom_bond_site_symmetry_1
_geom_bond_site_symmetry_2
In1 O1 1_555 1_555
C1 H1 1_555 1_555
C2 C1 1_555 1_555
C3 C2 1_555 1_555
H2 C3 1_555 1_555
C4 C1 1_555 1_555
C5 C2 1_555 1_555
C6 C3 1_555 1_555
C7 C4 1_555 1_555
H3 C7 1_555 1_555
C8 C6 1_555 1_555
N1 C4 1_555 1_555
O1 C5 1_555 1_555
O2 C8 1_555 1_555
O3 C5 1_555 1_555
O4 C8 1_555 1_555
O5 In1 1_555 1_555
O6 In1 1_555 1_555
O9 H4 1_555 1_555
C1B H1B 1_555 1_555
C2B C1B 1_555 1_555
C3B C2B 1_555 1_555
H2B C3B 1_555 1_555
C4B C1B 1_555 1_555
C5B C2B 1_555 1_555
C6B C3B 1_555 1_555
C7B C4B 1_555 1_555
H3B C7B 1_555 1_555
C8B C6B 1_555 1_555
N1B N1 1_555 1_555
O1B C5B 1_555 1_555
O2B C8B 1_555 1_555
O3B C5B 1_555 1_555
O4B C8B 1_555 1_555
In1B O1B 1_555 1_555
O5B In1B 1_555 1_555
O6B In1B 1_555 1_555
In1D O1D 1_555 1_555
C1D H1D 1_555 1_555
C2D C1D 1_555 1_555
C3D C2D 1_555 1_555
H2D C3D 1_555 1_555
C4D C1D 1_555 1_555
C5D C2D 1_555 1_555
C6D C3D 1_555 1_555
C7D C4D 1_555 1_555
H3D C7D 1_555 1_555
C8D C6D 1_555 1_555
N1D C4D 1_555 1_555
O1D C5D 1_555 1_555
O2D C8D 1_555 1_555
O3D C5D 1_555 1_555
O4D C8D 1_555 1_555
O6D In1D 1_555 1_555
C1F H1F 1_555 1_555
C2F C1F 1_555 1_555
C3F C2F 1_555 1_555
H2F C3F 1_555 1_555
C4F C1F 1_555 1_555
C5F C2F 1_555 1_555
C6F C3F 1_555 1_555
C7F C4F 1_555 1_555
H3F C7F 1_555 1_555
C8F C6F 1_555 1_555
N1F N1D 1_555 1_555
O1F C5F 1_555 1_555
O2F C8F 1_555 1_555
O3F In1 1_555 1_555
O4F C8F 1_555 1_555
In1E O5B 1_555 1_555
C1E H1E 1_555 1_555
C2E C1E 1_555 1_555
C3E C2E 1_555 1_555
H2E C3E 1_555 1_555
C4E C1E 1_555 1_555
C5E C2E 1_555 1_555
C6E C3E 1_555 1_555
C7E C4E 1_555 1_555
H3E C7E 1_555 1_555
C8E C6E 1_555 1_555
N1E C4E 1_555 1_555
O1E In1E 1_555 1_555
O2E C8E 1_555 1_555
O3E In1B 1_555 1_555
O4E C8E 1_555 1_555
O6E In1E 1_555 1_555
C1G H1G 1_555 1_555
C2G C1G 1_555 1_555
C3G C2G 1_555 1_555
H2G C3G 1_555 1_555
C4G C1G 1_555 1_555
C5G C2G 1_555 1_555
C6G C3G 1_555 1_555
C7G C4G 1_555 1_555
H3G C7G 1_555 1_555
C8G C6G 1_555 1_555
N1G N1E 1_555 1_555
O1G C5G 1_555 1_555
O2G C8G 1_555 1_555
O3G C5G 1_555 1_555
O4G C8G 1_555 1_555
In1F O5 1_555 1_555
O6F In1F 1_555 1_555
In1G O1G 1_555 1_555
O6G In1G 1_555 1_555
In1A O3D 1_555 1_555
In1C O3G 1_555 1_555
In1H O3B 1_555 1_555
In1I O3 1_555 1_555
In1L O4B 1_555 1_555
In1O O4 1_555 1_555
In1P O2E 1_555 1_555
In1Q O2F 1_555 1_555
In1R O2G 1_555 1_555
In1S O2D 1_555 1_555
In1T O4F 1_555 1_555
In1U O2B 1_555 1_555
In1V O4E 1_555 1_555
In1W O2 1_555 1_555
O2P In1G 1_555 1_555
O2Q In1D 1_555 1_555
O2R In1E 1_555 1_555
O2S In1F 1_555 1_555
O2U In1 1_555 1_555
O2W In1B 1_555 1_555
O3H In1E 1_555 1_555
O3I In1F 1_555 1_555
O3J In1D 1_555 1_555
O3K In1G 1_555 1_555
O4M In1B 1_555 1_555
O4N In1 1_555 1_555
O4T In1G 1_555 1_555
O4U In1F 1_555 1_555
O4V In1D 1_555 1_555
O4W In1E 1_555 1_555
O5A In1D 1_555 1_555
O5C In1G 1_555 1_555
C6 C7 1_555 1_555
O5 In1I 1_555 1_555
C4B N1B 1_555 1_555
C6B C7B 1_555 1_555
O5B In1H 1_555 1_555
C6D C7D 1_555 1_555
O4D In1W 1_555 1_555
C4F N1F 1_555 1_555
C5F O3F 1_555 1_555
C6F C7F 1_555 1_555
O1F In1F 1_555 1_555
C5E O1E 1_555 1_555
C5E O3E 1_555 1_555
C6E C7E 1_555 1_555
C4G N1G 1_555 1_555
C6G C7G 1_555 1_555
O4G In1U 1_555 1_555
In1A O5A 1_555 1_555
In1C O5C 1_555 1_555

#END
