
#######################################################################
#
#                 Cambridge Crystallographic Data Centre
#                                CCDC 
#
#######################################################################
#
# If this CIF has been generated from an entry in the Cambridge 
# Structural Database, then it will include bibliographic, chemical, 
# crystal, experimental, refinement or atomic coordinate data resulting 
# from the CCDC's data processing and validation procedures.
#
#######################################################################

data_FALZEY
_chemical_formula_moiety         '(C9 H10 Al18 Li1 N4 O101 P24 24-)n'
_symmetry_cell_setting           cubic
_symmetry_space_group_name_H-M   'I -4 3 m'
_symmetry_Int_Tables_number      217
_space_group_name_Hall           'I -4 2 3'
loop_
_symmetry_equiv_pos_site_id
_symmetry_equiv_pos_as_xyz
1 x,y,z
2 -x,-y,z
3 -x,y,-z
4 x,-y,-z
5 z,x,y
6 z,-x,-y
7 -z,-x,y
8 -z,x,-y
9 y,z,x
10 -y,z,-x
11 y,-z,-x
12 -y,-z,x
13 y,x,z
14 -y,-x,z
15 y,-x,-z
16 -y,x,-z
17 x,z,y
18 -x,z,-y
19 -x,-z,y
20 x,-z,-y
21 z,y,x
22 z,-y,-x
23 -z,y,-x
24 -z,-y,x
25 1/2+x,1/2+y,1/2+z
26 1/2-x,1/2-y,1/2+z
27 1/2-x,1/2+y,1/2-z
28 1/2+x,1/2-y,1/2-z
29 1/2+z,1/2+x,1/2+y
30 1/2+z,1/2-x,1/2-y
31 1/2-z,1/2-x,1/2+y
32 1/2-z,1/2+x,1/2-y
33 1/2+y,1/2+z,1/2+x
34 1/2-y,1/2+z,1/2-x
35 1/2+y,1/2-z,1/2-x
36 1/2-y,1/2-z,1/2+x
37 1/2+y,1/2+x,1/2+z
38 1/2-y,1/2-x,1/2+z
39 1/2+y,1/2-x,1/2-z
40 1/2-y,1/2+x,1/2-z
41 1/2+x,1/2+z,1/2+y
42 1/2-x,1/2+z,1/2-y
43 1/2-x,1/2-z,1/2+y
44 1/2+x,1/2-z,1/2-y
45 1/2+z,1/2+y,1/2+x
46 1/2+z,1/2-y,1/2-x
47 1/2-z,1/2+y,1/2-x
48 1/2-z,1/2-y,1/2+x
_cell_length_a                   16.66070(10)
_cell_length_b                   16.66070(10)
_cell_length_c                   16.66070(10)
_cell_angle_alpha                90
_cell_angle_beta                 90
_cell_angle_gamma                90
_cell_volume                     4624.66
loop_
_atom_site_label
_atom_site_type_symbol
_atom_site_fract_x
_atom_site_fract_y
_atom_site_fract_z
N1 N 1.30297(17) 0.69703(17) 0.69703(17)
C1 C 1.3752(3) 0.7427(3) 0.6749(3)
C2 C 1.35976(15) 0.82540(15) 0.6402(3)
N2 N 1.30705(15) 0.87448(15) 0.69295(19)
C1P C 1.3752(3) 0.6749(3) 0.7427(3)
C1F C 1.3251(3) 0.6248(3) 0.7427(3)
C1M C 1.2573(3) 0.6248(3) 0.6749(3)
C1I C 1.2573(3) 0.6749(3) 0.6248(3)
C1V C 1.3251(3) 0.7427(3) 0.6248(3)
C2M C 1.17460(15) 0.64024(15) 0.6402(3)
C2P C 1.35976(15) 0.6402(3) 0.82540(15)
N2I N 1.12552(15) 0.69295(19) 0.69295(15)
N2F N 1.30705(19) 0.69295(15) 0.87448(15)
Li2 Li 0.5000 0.5000 0.5000
O4 O 0.5847(8) 0.5847(8) 0.5847(8)
O4A O 0.4153(8) 0.4153(8) 0.5847(8)
O4B O 0.4153(8) 0.5847(8) 0.4153(8)
O4C O 0.5847(8) 0.4153(8) 0.4153(8)
O5 O 1.5570(7) 0.7332(6) 0.5570(7)
Al1 Al 1.0000 0.5000 1.0000
Al2 Al 1.0000 0.5000 0.7500
P1 P 1.12232(3) 0.56584(4) 0.87768(3)
O1 O 1.14416(10) 0.65136(15) 0.85584(10)
O2 O 1.09070(11) 0.51867(10) 0.80522(9)
O3 O 1.05691(8) 0.56595(14) 0.94309(8)
Al1FA Al 1.0000 0.5000 0.5000
Al1BA Al 1.5000 0.5000 1.0000
Al1BA_2 Al 0.5000 0.5000 1.0000
Al1FA_2 Al 1.0000 0.5000 1.5000
Al1D Al 1.0000 0.0000 0.5000
Al1D_2 Al 1.0000 1.0000 0.5000
Al2V Al 1.2500 0.5000 1.0000
Al2T Al 0.7500 0.5000 1.0000
Al2B Al 1.0000 0.5000 1.2500
Al2R Al 1.0000 0.2500 0.5000
Al2P Al 1.0000 0.7500 0.5000
Al2J Al 1.5000 0.2500 1.0000
Al2H Al 1.5000 0.7500 1.0000
Al2H_2 Al 0.5000 0.7500 1.0000
Al2J_2 Al 0.5000 0.2500 1.0000
Al2R_2 Al 1.0000 0.2500 1.5000
Al2P_2 Al 1.0000 0.7500 1.5000
Al2B_2 Al 1.0000 0.5000 0.2500
Al2T_2 Al 1.7500 0.5000 1.0000
Al2V_2 Al 0.2500 0.5000 1.0000
Al2_2 Al 1.0000 0.5000 1.7500
Al2D Al 0.7500 0.0000 0.5000
Al2F Al 1.2500 0.0000 0.5000
Al2F_2 Al 1.2500 1.0000 0.5000
Al2D_2 Al 0.7500 1.0000 0.5000
P1A P 0.87768(3) 0.43416(4) 0.87768(3)
P1B P 0.87768(3) 0.56584(4) 1.12232(3)
P1C P 1.12232(3) 0.43416(4) 1.12232(3)
P1FA P 1.06584(4) 0.37768(3) 0.62232(3)
P1IA P 0.93416(4) 0.62232(3) 0.62232(3)
P1CA P 1.37768(3) 0.37768(3) 0.93416(4)
P1BA P 1.37768(3) 0.62232(3) 1.06584(4)
P1EA P 0.62232(3) 0.62232(3) 0.93416(4)
P1DA P 0.62232(3) 0.37768(3) 1.06584(4)
P1GA P 0.93416(4) 0.37768(3) 1.37768(3)
P1HA P 1.06584(4) 0.62232(3) 1.37768(3)
P1HA_2 P 1.06584(4) 0.62232(3) 0.37768(3)
P1GA_2 P 0.93416(4) 0.37768(3) 0.37768(3)
P1EA_2 P 1.62232(3) 0.62232(3) 0.93416(4)
P1DA_2 P 1.62232(3) 0.37768(3) 1.06584(4)
P1CA_2 P 0.37768(3) 0.37768(3) 0.93416(4)
P1BA_2 P 0.37768(3) 0.62232(3) 1.06584(4)
P1IA_2 P 0.93416(4) 0.62232(3) 1.62232(3)
P1FA_2 P 1.06584(4) 0.37768(3) 1.62232(3)
P1D P 0.87768(3) 0.12232(3) 0.56584(4)
P1G P 1.12232(3) 0.12232(3) 0.43416(4)
P1F P 1.12232(3) 0.87768(3) 0.56584(4)
P1E P 0.87768(3) 0.87768(3) 0.43416(4)
O1A O 0.85584(10) 0.34864(15) 0.85584(10)
O1B O 0.85584(10) 0.65136(15) 1.14416(10)
O1C O 1.14416(10) 0.34864(15) 1.14416(10)
O1FA O 1.15136(15) 0.35584(10) 0.64416(10)
O1IA O 0.84864(15) 0.64416(10) 0.64416(10)
O1CA O 1.35584(10) 0.35584(10) 0.84864(15)
O1BA O 1.35584(10) 0.64416(10) 1.15136(15)
O1EA O 0.64416(10) 0.64416(10) 0.84864(15)
O1DA O 0.64416(10) 0.35584(10) 1.15136(15)
O1GA O 0.84864(15) 0.35584(10) 1.35584(10)
O1HA O 1.15136(15) 0.64416(10) 1.35584(10)
O1HA_2 O 1.15136(15) 0.64416(10) 0.35584(10)
O1GA_2 O 0.84864(15) 0.35584(10) 0.35584(10)
O1EA_2 O 1.64416(10) 0.64416(10) 0.84864(15)
O1DA_2 O 1.64416(10) 0.35584(10) 1.15136(15)
O1CA_2 O 0.35584(10) 0.35584(10) 0.84864(15)
O1BA_2 O 0.35584(10) 0.64416(10) 1.15136(15)
O1IA_2 O 0.84864(15) 0.64416(10) 1.64416(10)
O1FA_2 O 1.15136(15) 0.35584(10) 1.64416(10)
O1D O 0.85584(10) 0.14416(10) 0.65136(15)
O1G O 1.14416(10) 0.14416(10) 0.34864(15)
O1F O 1.14416(10) 0.85584(10) 0.65136(15)
O1E O 0.85584(10) 0.85584(10) 0.34864(15)
O2V O 1.19478(9) 0.51867(10) 0.90930(11)
O2A O 0.90930(11) 0.48133(10) 0.80522(9)
O2U O 0.80522(9) 0.48133(10) 0.90930(11)
O2B O 0.90930(11) 0.51867(10) 1.19478(9)
O2T O 0.80522(9) 0.51867(10) 1.09070(11)
O2C O 1.09070(11) 0.48133(10) 1.19478(9)
O2W O 1.19478(9) 0.48133(10) 1.09070(11)
O2LA O 1.01867(10) 0.40930(11) 0.69478(9)
O2FA O 1.01867(10) 0.30522(9) 0.59070(11)
O2MA O 0.98133(10) 0.59070(11) 0.69478(9)
O2IA O 0.98133(10) 0.69478(9) 0.59070(11)
O2CA O 1.30522(9) 0.40930(11) 0.98133(10)
O2OA O 1.40930(11) 0.30522(9) 0.98133(10)
O2BA O 1.30522(9) 0.59070(11) 1.01867(10)
O2PA O 1.40930(11) 0.69478(9) 1.01867(10)
O2EA O 0.69478(9) 0.59070(11) 0.98133(10)
O2QA O 0.59070(11) 0.69478(9) 0.98133(10)
O2DA O 0.69478(9) 0.40930(11) 1.01867(10)
O2NA O 0.59070(11) 0.30522(9) 1.01867(10)
O2KA O 0.98133(10) 0.40930(11) 1.30522(9)
O2GA O 0.98133(10) 0.30522(9) 1.40930(11)
O2JA O 1.01867(10) 0.59070(11) 1.30522(9)
O2HA O 1.01867(10) 0.69478(9) 1.40930(11)
O2JA_2 O 1.01867(10) 0.59070(11) 0.30522(9)
O2HA_2 O 1.01867(10) 0.69478(9) 0.40930(11)
O2KA_2 O 0.98133(10) 0.40930(11) 0.30522(9)
O2GA_2 O 0.98133(10) 0.30522(9) 0.40930(11)
O2EA_2 O 1.69478(9) 0.59070(11) 0.98133(10)
O2QA_2 O 1.59070(11) 0.69478(9) 0.98133(10)
O2DA_2 O 1.69478(9) 0.40930(11) 1.01867(10)
O2NA_2 O 1.59070(11) 0.30522(9) 1.01867(10)
O2CA_2 O 0.30522(9) 0.40930(11) 0.98133(10)
O2OA_2 O 0.40930(11) 0.30522(9) 0.98133(10)
O2BA_2 O 0.30522(9) 0.59070(11) 1.01867(10)
O2PA_2 O 0.40930(11) 0.69478(9) 1.01867(10)
O2MA_2 O 0.98133(10) 0.59070(11) 1.69478(9)
O2IA_2 O 0.98133(10) 0.69478(9) 1.59070(11)
O2LA_2 O 1.01867(10) 0.40930(11) 1.69478(9)
O2FA_2 O 1.01867(10) 0.30522(9) 1.59070(11)
O2R O 0.90930(11) 0.19478(9) 0.51867(10)
O2D O 0.80522(9) 0.09070(11) 0.51867(10)
O2S O 1.09070(11) 0.19478(9) 0.48133(10)
O2G O 1.19478(9) 0.09070(11) 0.48133(10)
O2P O 1.09070(11) 0.80522(9) 0.51867(10)
O2F O 1.19478(9) 0.90930(11) 0.51867(10)
O2Q O 0.90930(11) 0.80522(9) 0.48133(10)
O2E O 0.80522(9) 0.90930(11) 0.48133(10)
O2J O 1.51867(10) 0.19478(9) 0.90930(11)
O2K O 1.48133(10) 0.19478(9) 1.09070(11)
O2H O 1.51867(10) 0.80522(9) 1.09070(11)
O2I O 1.48133(10) 0.80522(9) 0.90930(11)
O2H_2 O 0.51867(10) 0.80522(9) 1.09070(11)
O2I_2 O 0.48133(10) 0.80522(9) 0.90930(11)
O2J_2 O 0.51867(10) 0.19478(9) 0.90930(11)
O2K_2 O 0.48133(10) 0.19478(9) 1.09070(11)
O2R_2 O 0.90930(11) 0.19478(9) 1.51867(10)
O2S_2 O 1.09070(11) 0.19478(9) 1.48133(10)
O2P_2 O 1.09070(11) 0.80522(9) 1.51867(10)
O2Q_2 O 0.90930(11) 0.80522(9) 1.48133(10)
O3A O 0.94309(8) 0.43405(14) 0.94309(8)
O3B O 0.94309(8) 0.56595(14) 1.05691(8)
O3C O 1.05691(8) 0.43405(14) 1.05691(8)
O3FA O 1.06595(14) 0.44309(8) 0.55691(8)
O3IA O 0.93405(14) 0.55691(8) 0.55691(8)
O3CA O 1.44309(8) 0.44309(8) 0.93405(14)
O3BA O 1.44309(8) 0.55691(8) 1.06595(14)
O3EA O 0.55691(8) 0.55691(8) 0.93405(14)
O3DA O 0.55691(8) 0.44309(8) 1.06595(14)
O3GA O 0.93405(14) 0.44309(8) 1.44309(8)
O3HA O 1.06595(14) 0.55691(8) 1.44309(8)
O3HA_2 O 1.06595(14) 0.55691(8) 0.44309(8)
O3GA_2 O 0.93405(14) 0.44309(8) 0.44309(8)
O3EA_2 O 1.55691(8) 0.55691(8) 0.93405(14)
O3DA_2 O 1.55691(8) 0.44309(8) 1.06595(14)
O3CA_2 O 0.44309(8) 0.44309(8) 0.93405(14)
O3BA_2 O 0.44309(8) 0.55691(8) 1.06595(14)
O3IA_2 O 0.93405(14) 0.55691(8) 1.55691(8)
O3FA_2 O 1.06595(14) 0.44309(8) 1.55691(8)
O3D O 0.94309(8) 0.05691(8) 0.56595(14)
O3G O 1.05691(8) 0.05691(8) 0.43405(14)
O3F O 1.05691(8) 0.94309(8) 0.56595(14)
O3E O 0.94309(8) 0.94309(8) 0.43405(14)
O3E_2 O 0.94309(8) -0.05691(8) 0.43405(14)
O3F_2 O 1.05691(8) -0.05691(8) 0.56595(14)
loop_
_geom_bond_atom_site_label_1
_geom_bond_atom_site_label_2
_geom_bond_site_symmetry_1
_geom_bond_site_symmetry_2
Al1 O3 1_555 1_555
Al2 O2 1_555 1_555
P1 O1 1_555 1_555
O2 P1 1_555 1_555
O3 P1 1_555 1_555
N1 C1 1_555 1_555
C1 C2 1_555 1_555
C2 N2 1_555 1_555
Li2 O4 1_555 1_555
Al1FA O3FA 1_555 1_555
Al1BA O3CA 1_555 1_555
Al1BA_2 O3EA 1_555 1_555
Al1FA_2 O3GA 1_555 1_555
Al1D O3D 1_555 1_555
Al1D_2 O3F 1_555 1_555
Al2V O2V 1_555 1_555
Al2T O2U 1_555 1_555
Al2B O2B 1_555 1_555
Al2R O2FA 1_555 1_555
Al2P O2IA 1_555 1_555
Al2J O2OA 1_555 1_555
Al2H O2PA 1_555 1_555
Al2H_2 O2QA 1_555 1_555
Al2J_2 O2NA 1_555 1_555
Al2R_2 O2GA 1_555 1_555
Al2P_2 O2HA 1_555 1_555
Al2B_2 O2JA_2 1_555 1_555
Al2T_2 O2EA_2 1_555 1_555
Al2V_2 O2CA_2 1_555 1_555
Al2_2 O2MA_2 1_555 1_555
Al2D O2D 1_555 1_555
Al2F O2G 1_555 1_555
Al2F_2 O2F 1_555 1_555
Al2D_2 O2E 1_555 1_555
P1A O1A 1_555 1_555
P1B O1B 1_555 1_555
P1C O1C 1_555 1_555
P1FA O1FA 1_555 1_555
P1IA O1IA 1_555 1_555
P1CA O1CA 1_555 1_555
P1BA O1BA 1_555 1_555
P1EA O1EA 1_555 1_555
P1DA O1DA 1_555 1_555
P1GA O1GA 1_555 1_555
P1HA O1HA 1_555 1_555
P1HA_2 O1HA_2 1_555 1_555
P1GA_2 O1GA_2 1_555 1_555
P1EA_2 O1EA_2 1_555 1_555
P1DA_2 O1DA_2 1_555 1_555
P1CA_2 O1CA_2 1_555 1_555
P1BA_2 O1BA_2 1_555 1_555
P1IA_2 O1IA_2 1_555 1_555
P1FA_2 O1FA_2 1_555 1_555
P1D O1D 1_555 1_555
P1G O1G 1_555 1_555
P1F O1F 1_555 1_555
P1E O1E 1_555 1_555
O2V P1 1_555 1_555
O2A Al2 1_555 1_555
O2U P1A 1_555 1_555
O2B P1B 1_555 1_555
O2T Al2T 1_555 1_555
O2C Al2B 1_555 1_555
O2W Al2V 1_555 1_555
O2LA Al2 1_555 1_555
O2FA P1FA 1_555 1_555
O2MA Al2 1_555 1_555
O2IA P1IA 1_555 1_555
O2CA Al2V 1_555 1_555
O2OA P1CA 1_555 1_555
O2BA Al2V 1_555 1_555
O2PA P1BA 1_555 1_555
O2EA Al2T 1_555 1_555
O2QA P1EA 1_555 1_555
O2DA Al2T 1_555 1_555
O2NA P1DA 1_555 1_555
O2KA Al2B 1_555 1_555
O2GA P1GA 1_555 1_555
O2JA Al2B 1_555 1_555
O2HA P1HA 1_555 1_555
O2JA_2 P1HA_2 1_555 1_555
O2HA_2 Al2P 1_555 1_555
O2KA_2 Al2B_2 1_555 1_555
O2GA_2 Al2R 1_555 1_555
O2EA_2 P1EA_2 1_555 1_555
O2QA_2 Al2H 1_555 1_555
O2DA_2 Al2T_2 1_555 1_555
O2NA_2 Al2J 1_555 1_555
O2CA_2 P1CA_2 1_555 1_555
O2OA_2 Al2J_2 1_555 1_555
O2BA_2 Al2V_2 1_555 1_555
O2PA_2 Al2H_2 1_555 1_555
O2MA_2 P1IA_2 1_555 1_555
O2IA_2 Al2P_2 1_555 1_555
O2LA_2 Al2_2 1_555 1_555
O2FA_2 Al2R_2 1_555 1_555
O2R Al2R 1_555 1_555
O2D P1D 1_555 1_555
O2S Al2R 1_555 1_555
O2G P1G 1_555 1_555
O2P Al2P 1_555 1_555
O2F P1F 1_555 1_555
O2Q Al2P 1_555 1_555
O2E P1E 1_555 1_555
O2J Al2J 1_555 1_555
O2K Al2J 1_555 1_555
O2H Al2H 1_555 1_555
O2I Al2H 1_555 1_555
O2H_2 Al2H_2 1_555 1_555
O2I_2 Al2H_2 1_555 1_555
O2J_2 Al2J_2 1_555 1_555
O2K_2 Al2J_2 1_555 1_555
O2R_2 Al2R_2 1_555 1_555
O2S_2 Al2R_2 1_555 1_555
O2P_2 Al2P_2 1_555 1_555
O2Q_2 Al2P_2 1_555 1_555
O3A Al1 1_555 1_555
O3B Al1 1_555 1_555
O3C Al1 1_555 1_555
O3FA P1FA 1_555 1_555
O3IA Al1FA 1_555 1_555
O3CA P1CA 1_555 1_555
O3BA Al1BA 1_555 1_555
O3EA P1EA 1_555 1_555
O3DA Al1BA_2 1_555 1_555
O3GA P1GA 1_555 1_555
O3HA Al1FA_2 1_555 1_555
O3HA_2 Al1FA 1_555 1_555
O3GA_2 Al1FA 1_555 1_555
O3EA_2 Al1BA 1_555 1_555
O3DA_2 Al1BA 1_555 1_555
O3CA_2 Al1BA_2 1_555 1_555
O3BA_2 Al1BA_2 1_555 1_555
O3IA_2 Al1FA_2 1_555 1_555
O3FA_2 Al1FA_2 1_555 1_555
O3D P1D 1_555 1_555
O3G Al1D 1_555 1_555
O3F P1F 1_555 1_555
O3E Al1D_2 1_555 1_555
O3E_2 Al1D 1_555 1_555
O3F_2 Al1D 1_555 1_555
C1P N1 1_555 1_555
C1F N1 1_555 1_555
C1M N1 1_555 1_555
C1I N1 1_555 1_555
C1V N1 1_555 1_555
C2M C1M 1_555 1_555
C2P C1P 1_555 1_555
N2I C2M 1_555 1_555
N2F C2P 1_555 1_555
O4A Li2 1_555 1_555
O4B Li2 1_555 1_555
O4C Li2 1_555 1_555
C1 C1P 1_555 1_555
C1 C1V 1_555 1_555
C2 C1V 1_555 1_555
P1A O2A 1_555 1_555
P1A O3A 1_555 1_555
P1B O2T 1_555 1_555
P1B O3B 1_555 1_555
P1C O2C 1_555 1_555
P1C O2W 1_555 1_555
P1C O3C 1_555 1_555
P1FA O2LA 1_555 1_555
P1IA O2MA 1_555 1_555
P1IA O3IA 1_555 1_555
P1CA O2CA 1_555 1_555
P1BA O2BA 1_555 1_555
P1BA O3BA 1_555 1_555
P1EA O2EA 1_555 1_555
P1DA O2DA 1_555 1_555
P1DA O3DA 1_555 1_555
P1GA O2KA 1_555 1_555
P1HA O2JA 1_555 1_555
P1HA O3HA 1_555 1_555
P1HA_2 O2HA_2 1_555 1_555
P1HA_2 O3HA_2 1_555 1_555
P1GA_2 O2KA_2 1_555 1_555
P1GA_2 O2GA_2 1_555 1_555
P1GA_2 O3GA_2 1_555 1_555
P1EA_2 O2QA_2 1_555 1_555
P1EA_2 O3EA_2 1_555 1_555
P1DA_2 O2DA_2 1_555 1_555
P1DA_2 O2NA_2 1_555 1_555
P1DA_2 O3DA_2 1_555 1_555
P1CA_2 O2OA_2 1_555 1_555
P1CA_2 O3CA_2 1_555 1_555
P1BA_2 O2BA_2 1_555 1_555
P1BA_2 O2PA_2 1_555 1_555
P1BA_2 O3BA_2 1_555 1_555
P1IA_2 O2IA_2 1_555 1_555
P1IA_2 O3IA_2 1_555 1_555
P1FA_2 O2LA_2 1_555 1_555
P1FA_2 O2FA_2 1_555 1_555
P1FA_2 O3FA_2 1_555 1_555
P1D O2R 1_555 1_555
P1G O2S 1_555 1_555
P1G O3G 1_555 1_555
P1F O2P 1_555 1_555
P1E O2Q 1_555 1_555
P1E O3E 1_555 1_555
C1P C1F 1_555 1_555
C1F C1M 1_555 1_555
C1F C2P 1_555 1_555
C1M C1I 1_555 1_555
C1I C1V 1_555 1_555
C1I C2M 1_555 1_555

#END
