
#######################################################################
#
#                 Cambridge Crystallographic Data Centre
#                                CCDC 
#
#######################################################################
#
# If this CIF has been generated from an entry in the Cambridge 
# Structural Database, then it will include bibliographic, chemical, 
# crystal, experimental, refinement or atomic coordinate data resulting 
# from the CCDC's data processing and validation procedures.
#
#######################################################################

data_FALZIC
_chemical_formula_moiety         '(C9 H10 Ga18 Li1 N4 O101 P24 24-)n'
_symmetry_cell_setting           cubic
_symmetry_space_group_name_H-M   'I -4 3 m'
_symmetry_Int_Tables_number      217
_space_group_name_Hall           'I -4 2 3'
loop_
_symmetry_equiv_pos_site_id
_symmetry_equiv_pos_as_xyz
1 x,y,z
2 -x,-y,z
3 -x,y,-z
4 x,-y,-z
5 z,x,y
6 z,-x,-y
7 -z,-x,y
8 -z,x,-y
9 y,z,x
10 -y,z,-x
11 y,-z,-x
12 -y,-z,x
13 y,x,z
14 -y,-x,z
15 y,-x,-z
16 -y,x,-z
17 x,z,y
18 -x,z,-y
19 -x,-z,y
20 x,-z,-y
21 z,y,x
22 z,-y,-x
23 -z,y,-x
24 -z,-y,x
25 1/2+x,1/2+y,1/2+z
26 1/2-x,1/2-y,1/2+z
27 1/2-x,1/2+y,1/2-z
28 1/2+x,1/2-y,1/2-z
29 1/2+z,1/2+x,1/2+y
30 1/2+z,1/2-x,1/2-y
31 1/2-z,1/2-x,1/2+y
32 1/2-z,1/2+x,1/2-y
33 1/2+y,1/2+z,1/2+x
34 1/2-y,1/2+z,1/2-x
35 1/2+y,1/2-z,1/2-x
36 1/2-y,1/2-z,1/2+x
37 1/2+y,1/2+x,1/2+z
38 1/2-y,1/2-x,1/2+z
39 1/2+y,1/2-x,1/2-z
40 1/2-y,1/2+x,1/2-z
41 1/2+x,1/2+z,1/2+y
42 1/2-x,1/2+z,1/2-y
43 1/2-x,1/2-z,1/2+y
44 1/2+x,1/2-z,1/2-y
45 1/2+z,1/2+y,1/2+x
46 1/2+z,1/2-y,1/2-x
47 1/2-z,1/2+y,1/2-x
48 1/2-z,1/2-y,1/2+x
_cell_length_a                   16.8395(2)
_cell_length_b                   16.8395(2)
_cell_length_c                   16.8395(2)
_cell_angle_alpha                90
_cell_angle_beta                 90
_cell_angle_gamma                90
_cell_volume                     4775.16
loop_
_atom_site_label
_atom_site_type_symbol
_atom_site_fract_x
_atom_site_fract_y
_atom_site_fract_z
N1 N -0.3027(3) 0.3027(3) 0.3027(3)
C1 C -0.3257(5) 0.2585(4) 0.3751(5)
C2 C -0.3604(2) 0.1772(2) 0.3604(4)
N2 N -0.3077(2) 0.1276(2) 0.3077(3)
C1M C -0.2585(4) 0.3257(5) 0.3751(5)
C1F C -0.3751(5) 0.3257(5) 0.2585(4)
C1V C -0.3751(5) 0.2585(4) 0.3257(5)
C1I C -0.2585(4) 0.3751(5) 0.3257(5)
C1P C -0.3257(5) 0.3751(5) 0.2585(4)
C2F C -0.3604(4) 0.3604(2) 0.1772(2)
C2I C -0.1772(2) 0.3604(4) 0.3604(2)
N2F N -0.3077(3) 0.3077(2) 0.1276(2)
N2I N -0.1276(2) 0.3077(3) 0.3077(2)
Li2 Li 0.5000 0.5000 0.5000
O4 O 0.418(2) 0.418(2) 0.418(2)
O4A O 0.582(2) 0.582(2) 0.418(2)
O4B O 0.582(2) 0.418(2) 0.582(2)
O4C O 0.418(2) 0.582(2) 0.582(2)
O5 O -0.5619(10) 0.2654(8) 0.4381(10)
Ga1 Ga 0.0000 0.5000 0.0000
Ga2 Ga -0.0000 0.5000 0.2500
P1 P -0.12331(4) 0.43504(5) 0.12331(4)
O1 O -0.14662(16) 0.3525(2) 0.14662(16)
O2 O -0.09251(14) 0.48362(17) 0.19400(13)
O3 O -0.05824(13) 0.4302(2) 0.05824(13)
Ga1FA Ga 0.0000 0.5000 0.5000
Ga1BA Ga -0.5000 0.5000 0.0000
Ga1BA_2 Ga 0.5000 0.5000 0.0000
Ga1FA_2 Ga 0.0000 0.5000 -0.5000
Ga1D Ga -0.0000 1.0000 0.5000
Ga1D_2 Ga 0.0000 0.0000 0.5000
Ga2V Ga -0.2500 0.5000 0.0000
Ga2T Ga 0.2500 0.5000 0.0000
Ga2B Ga 0.0000 0.5000 -0.2500
Ga2R Ga -0.0000 0.7500 0.5000
Ga2P Ga -0.0000 0.2500 0.5000
Ga2J Ga -0.5000 0.7500 0.0000
Ga2H Ga -0.5000 0.2500 0.0000
Ga2H_2 Ga 0.5000 0.2500 0.0000
Ga2J_2 Ga 0.5000 0.7500 0.0000
Ga2R_2 Ga 0.0000 0.7500 -0.5000
Ga2P_2 Ga 0.0000 0.2500 -0.5000
Ga2B_2 Ga -0.0000 0.5000 0.7500
Ga2T_2 Ga -0.7500 0.5000 0.0000
Ga2V_2 Ga 0.7500 0.5000 0.0000
Ga2_2 Ga 0.0000 0.5000 -0.7500
Ga2D Ga 0.2500 1.0000 0.5000
Ga2F Ga -0.2500 1.0000 0.5000
Ga2F_2 Ga -0.2500 0.0000 0.5000
Ga2D_2 Ga 0.2500 0.0000 0.5000
P1A P 0.12331(4) 0.56496(5) 0.12331(4)
P1B P 0.12331(4) 0.43504(5) -0.12331(4)
P1C P -0.12331(4) 0.56496(5) -0.12331(4)
P1FA P -0.06496(5) 0.62331(4) 0.37669(4)
P1IA P 0.06496(5) 0.37669(4) 0.37669(4)
P1CA P -0.37669(4) 0.62331(4) 0.06496(5)
P1BA P -0.37669(4) 0.37669(4) -0.06496(5)
P1EA P 0.37669(4) 0.37669(4) 0.06496(5)
P1DA P 0.37669(4) 0.62331(4) -0.06496(5)
P1GA P 0.06496(5) 0.62331(4) -0.37669(4)
P1HA P -0.06496(5) 0.37669(4) -0.37669(4)
P1HA_2 P -0.06496(5) 0.37669(4) 0.62331(4)
P1GA_2 P 0.06496(5) 0.62331(4) 0.62331(4)
P1EA_2 P -0.62331(4) 0.37669(4) 0.06496(5)
P1DA_2 P -0.62331(4) 0.62331(4) -0.06496(5)
P1CA_2 P 0.62331(4) 0.62331(4) 0.06496(5)
P1BA_2 P 0.62331(4) 0.37669(4) -0.06496(5)
P1IA_2 P 0.06496(5) 0.37669(4) -0.62331(4)
P1FA_2 P -0.06496(5) 0.62331(4) -0.62331(4)
P1D P 0.12331(4) 0.87669(4) 0.43504(5)
P1G P -0.12331(4) 0.87669(4) 0.56496(5)
P1F P -0.12331(4) 0.12331(4) 0.43504(5)
P1E P 0.12331(4) 0.12331(4) 0.56496(5)
O1A O 0.14662(16) 0.6475(2) 0.14662(16)
O1B O 0.14662(16) 0.3525(2) -0.14662(16)
O1C O -0.14662(16) 0.6475(2) -0.14662(16)
O1FA O -0.1475(2) 0.64662(16) 0.35338(16)
O1IA O 0.1475(2) 0.35338(16) 0.35338(16)
O1CA O -0.35338(16) 0.64662(16) 0.1475(2)
O1BA O -0.35338(16) 0.35338(16) -0.1475(2)
O1EA O 0.35338(16) 0.35338(16) 0.1475(2)
O1DA O 0.35338(16) 0.64662(16) -0.1475(2)
O1GA O 0.1475(2) 0.64662(16) -0.35338(16)
O1HA O -0.1475(2) 0.35338(16) -0.35338(16)
O1HA_2 O -0.1475(2) 0.35338(16) 0.64662(16)
O1GA_2 O 0.1475(2) 0.64662(16) 0.64662(16)
O1EA_2 O -0.64662(16) 0.35338(16) 0.1475(2)
O1DA_2 O -0.64662(16) 0.64662(16) -0.1475(2)
O1CA_2 O 0.64662(16) 0.64662(16) 0.1475(2)
O1BA_2 O 0.64662(16) 0.35338(16) -0.1475(2)
O1IA_2 O 0.1475(2) 0.35338(16) -0.64662(16)
O1FA_2 O -0.1475(2) 0.64662(16) -0.64662(16)
O1D O 0.14662(16) 0.85338(16) 0.3525(2)
O1G O -0.14662(16) 0.85338(16) 0.6475(2)
O1F O -0.14662(16) 0.14662(16) 0.3525(2)
O1E O 0.14662(16) 0.14662(16) 0.6475(2)
O2V O -0.19400(13) 0.48362(17) 0.09251(14)
O2A O 0.09251(14) 0.51638(17) 0.19400(13)
O2U O 0.19400(13) 0.51638(17) 0.09251(14)
O2B O 0.09251(14) 0.48362(17) -0.19400(13)
O2T O 0.19400(13) 0.48362(17) -0.09251(14)
O2C O -0.09251(14) 0.51638(17) -0.19400(13)
O2W O -0.19400(13) 0.51638(17) -0.09251(14)
O2LA O -0.01638(17) 0.59251(14) 0.30600(13)
O2FA O -0.01638(17) 0.69400(13) 0.40749(14)
O2MA O 0.01638(17) 0.40749(14) 0.30600(13)
O2IA O 0.01638(17) 0.30600(13) 0.40749(14)
O2CA O -0.30600(13) 0.59251(14) 0.01638(17)
O2OA O -0.40749(14) 0.69400(13) 0.01638(17)
O2BA O -0.30600(13) 0.40749(14) -0.01638(17)
O2PA O -0.40749(14) 0.30600(13) -0.01638(17)
O2EA O 0.30600(13) 0.40749(14) 0.01638(17)
O2QA O 0.40749(14) 0.30600(13) 0.01638(17)
O2DA O 0.30600(13) 0.59251(14) -0.01638(17)
O2NA O 0.40749(14) 0.69400(13) -0.01638(17)
O2KA O 0.01638(17) 0.59251(14) -0.30600(13)
O2GA O 0.01638(17) 0.69400(13) -0.40749(14)
O2JA O -0.01638(17) 0.40749(14) -0.30600(13)
O2HA O -0.01638(17) 0.30600(13) -0.40749(14)
O2JA_2 O -0.01638(17) 0.40749(14) 0.69400(13)
O2HA_2 O -0.01638(17) 0.30600(13) 0.59251(14)
O2KA_2 O 0.01638(17) 0.59251(14) 0.69400(13)
O2GA_2 O 0.01638(17) 0.69400(13) 0.59251(14)
O2EA_2 O -0.69400(13) 0.40749(14) 0.01638(17)
O2QA_2 O -0.59251(14) 0.30600(13) 0.01638(17)
O2DA_2 O -0.69400(13) 0.59251(14) -0.01638(17)
O2NA_2 O -0.59251(14) 0.69400(13) -0.01638(17)
O2CA_2 O 0.69400(13) 0.59251(14) 0.01638(17)
O2OA_2 O 0.59251(14) 0.69400(13) 0.01638(17)
O2BA_2 O 0.69400(13) 0.40749(14) -0.01638(17)
O2PA_2 O 0.59251(14) 0.30600(13) -0.01638(17)
O2MA_2 O 0.01638(17) 0.40749(14) -0.69400(13)
O2IA_2 O 0.01638(17) 0.30600(13) -0.59251(14)
O2LA_2 O -0.01638(17) 0.59251(14) -0.69400(13)
O2FA_2 O -0.01638(17) 0.69400(13) -0.59251(14)
O2R O 0.09251(14) 0.80600(13) 0.48362(17)
O2D O 0.19400(13) 0.90749(14) 0.48362(17)
O2S O -0.09251(14) 0.80600(13) 0.51638(17)
O2G O -0.19400(13) 0.90749(14) 0.51638(17)
O2P O -0.09251(14) 0.19400(13) 0.48362(17)
O2F O -0.19400(13) 0.09251(14) 0.48362(17)
O2Q O 0.09251(14) 0.19400(13) 0.51638(17)
O2E O 0.19400(13) 0.09251(14) 0.51638(17)
O2J O -0.51638(17) 0.80600(13) 0.09251(14)
O2K O -0.48362(17) 0.80600(13) -0.09251(14)
O2H O -0.51638(17) 0.19400(13) -0.09251(14)
O2I O -0.48362(17) 0.19400(13) 0.09251(14)
O2H_2 O 0.48362(17) 0.19400(13) -0.09251(14)
O2I_2 O 0.51638(17) 0.19400(13) 0.09251(14)
O2J_2 O 0.48362(17) 0.80600(13) 0.09251(14)
O2K_2 O 0.51638(17) 0.80600(13) -0.09251(14)
O2R_2 O 0.09251(14) 0.80600(13) -0.51638(17)
O2S_2 O -0.09251(14) 0.80600(13) -0.48362(17)
O2P_2 O -0.09251(14) 0.19400(13) -0.51638(17)
O2Q_2 O 0.09251(14) 0.19400(13) -0.48362(17)
O3A O 0.05824(13) 0.5698(2) 0.05824(13)
O3B O 0.05824(13) 0.4302(2) -0.05824(13)
O3C O -0.05824(13) 0.5698(2) -0.05824(13)
O3FA O -0.0698(2) 0.55824(13) 0.44176(13)
O3IA O 0.0698(2) 0.44176(13) 0.44176(13)
O3CA O -0.44176(13) 0.55824(13) 0.0698(2)
O3BA O -0.44176(13) 0.44176(13) -0.0698(2)
O3EA O 0.44176(13) 0.44176(13) 0.0698(2)
O3DA O 0.44176(13) 0.55824(13) -0.0698(2)
O3GA O 0.0698(2) 0.55824(13) -0.44176(13)
O3HA O -0.0698(2) 0.44176(13) -0.44176(13)
O3HA_2 O -0.0698(2) 0.44176(13) 0.55824(13)
O3GA_2 O 0.0698(2) 0.55824(13) 0.55824(13)
O3EA_2 O -0.55824(13) 0.44176(13) 0.0698(2)
O3DA_2 O -0.55824(13) 0.55824(13) -0.0698(2)
O3CA_2 O 0.55824(13) 0.55824(13) 0.0698(2)
O3BA_2 O 0.55824(13) 0.44176(13) -0.0698(2)
O3IA_2 O 0.0698(2) 0.44176(13) -0.55824(13)
O3FA_2 O -0.0698(2) 0.55824(13) -0.55824(13)
O3D O 0.05824(13) 0.94176(13) 0.4302(2)
O3G O -0.05824(13) 0.94176(13) 0.5698(2)
O3F O -0.05824(13) 0.05824(13) 0.4302(2)
O3E O 0.05824(13) 0.05824(13) 0.5698(2)
O3E_2 O 0.05824(13) 1.05824(13) 0.5698(2)
O3F_2 O -0.05824(13) 1.05824(13) 0.4302(2)
loop_
_geom_bond_atom_site_label_1
_geom_bond_atom_site_label_2
_geom_bond_site_symmetry_1
_geom_bond_site_symmetry_2
Ga1 O3 1_555 1_555
Ga2 O2 1_555 1_555
P1 O1 1_555 1_555
O2 P1 1_555 1_555
O3 P1 1_555 1_555
N1 C1 1_555 1_555
C1 C2 1_555 1_555
C2 N2 1_555 1_555
Li2 O4 1_555 1_555
Ga1FA O3FA 1_555 1_555
Ga1BA O3CA 1_555 1_555
Ga1BA_2 O3EA 1_555 1_555
Ga1FA_2 O3GA 1_555 1_555
Ga1D O3D 1_555 1_555
Ga1D_2 O3F 1_555 1_555
Ga2V O2V 1_555 1_555
Ga2T O2U 1_555 1_555
Ga2B O2B 1_555 1_555
Ga2R O2FA 1_555 1_555
Ga2P O2IA 1_555 1_555
Ga2J O2OA 1_555 1_555
Ga2H O2PA 1_555 1_555
Ga2H_2 O2QA 1_555 1_555
Ga2J_2 O2NA 1_555 1_555
Ga2R_2 O2GA 1_555 1_555
Ga2P_2 O2HA 1_555 1_555
Ga2B_2 O2JA_2 1_555 1_555
Ga2T_2 O2EA_2 1_555 1_555
Ga2V_2 O2CA_2 1_555 1_555
Ga2_2 O2MA_2 1_555 1_555
Ga2D O2D 1_555 1_555
Ga2F O2G 1_555 1_555
Ga2F_2 O2F 1_555 1_555
Ga2D_2 O2E 1_555 1_555
P1A O1A 1_555 1_555
P1B O1B 1_555 1_555
P1C O1C 1_555 1_555
P1FA O1FA 1_555 1_555
P1IA O1IA 1_555 1_555
P1CA O1CA 1_555 1_555
P1BA O1BA 1_555 1_555
P1EA O1EA 1_555 1_555
P1DA O1DA 1_555 1_555
P1GA O1GA 1_555 1_555
P1HA O1HA 1_555 1_555
P1HA_2 O1HA_2 1_555 1_555
P1GA_2 O1GA_2 1_555 1_555
P1EA_2 O1EA_2 1_555 1_555
P1DA_2 O1DA_2 1_555 1_555
P1CA_2 O1CA_2 1_555 1_555
P1BA_2 O1BA_2 1_555 1_555
P1IA_2 O1IA_2 1_555 1_555
P1FA_2 O1FA_2 1_555 1_555
P1D O1D 1_555 1_555
P1G O1G 1_555 1_555
P1F O1F 1_555 1_555
P1E O1E 1_555 1_555
O2V P1 1_555 1_555
O2A Ga2 1_555 1_555
O2U P1A 1_555 1_555
O2B P1B 1_555 1_555
O2T Ga2T 1_555 1_555
O2C Ga2B 1_555 1_555
O2W Ga2V 1_555 1_555
O2LA Ga2 1_555 1_555
O2FA P1FA 1_555 1_555
O2MA Ga2 1_555 1_555
O2IA P1IA 1_555 1_555
O2CA Ga2V 1_555 1_555
O2OA P1CA 1_555 1_555
O2BA Ga2V 1_555 1_555
O2PA P1BA 1_555 1_555
O2EA Ga2T 1_555 1_555
O2QA P1EA 1_555 1_555
O2DA Ga2T 1_555 1_555
O2NA P1DA 1_555 1_555
O2KA Ga2B 1_555 1_555
O2GA P1GA 1_555 1_555
O2JA Ga2B 1_555 1_555
O2HA P1HA 1_555 1_555
O2JA_2 P1HA_2 1_555 1_555
O2HA_2 Ga2P 1_555 1_555
O2KA_2 Ga2B_2 1_555 1_555
O2GA_2 Ga2R 1_555 1_555
O2EA_2 P1EA_2 1_555 1_555
O2QA_2 Ga2H 1_555 1_555
O2DA_2 Ga2T_2 1_555 1_555
O2NA_2 Ga2J 1_555 1_555
O2CA_2 P1CA_2 1_555 1_555
O2OA_2 Ga2J_2 1_555 1_555
O2BA_2 Ga2V_2 1_555 1_555
O2PA_2 Ga2H_2 1_555 1_555
O2MA_2 P1IA_2 1_555 1_555
O2IA_2 Ga2P_2 1_555 1_555
O2LA_2 Ga2_2 1_555 1_555
O2FA_2 Ga2R_2 1_555 1_555
O2R Ga2R 1_555 1_555
O2D P1D 1_555 1_555
O2S Ga2R 1_555 1_555
O2G P1G 1_555 1_555
O2P Ga2P 1_555 1_555
O2F P1F 1_555 1_555
O2Q Ga2P 1_555 1_555
O2E P1E 1_555 1_555
O2J Ga2J 1_555 1_555
O2K Ga2J 1_555 1_555
O2H Ga2H 1_555 1_555
O2I Ga2H 1_555 1_555
O2H_2 Ga2H_2 1_555 1_555
O2I_2 Ga2H_2 1_555 1_555
O2J_2 Ga2J_2 1_555 1_555
O2K_2 Ga2J_2 1_555 1_555
O2R_2 Ga2R_2 1_555 1_555
O2S_2 Ga2R_2 1_555 1_555
O2P_2 Ga2P_2 1_555 1_555
O2Q_2 Ga2P_2 1_555 1_555
O3A Ga1 1_555 1_555
O3B Ga1 1_555 1_555
O3C Ga1 1_555 1_555
O3FA P1FA 1_555 1_555
O3IA Ga1FA 1_555 1_555
O3CA P1CA 1_555 1_555
O3BA Ga1BA 1_555 1_555
O3EA P1EA 1_555 1_555
O3DA Ga1BA_2 1_555 1_555
O3GA P1GA 1_555 1_555
O3HA Ga1FA_2 1_555 1_555
O3HA_2 Ga1FA 1_555 1_555
O3GA_2 Ga1FA 1_555 1_555
O3EA_2 Ga1BA 1_555 1_555
O3DA_2 Ga1BA 1_555 1_555
O3CA_2 Ga1BA_2 1_555 1_555
O3BA_2 Ga1BA_2 1_555 1_555
O3IA_2 Ga1FA_2 1_555 1_555
O3FA_2 Ga1FA_2 1_555 1_555
O3D P1D 1_555 1_555
O3G Ga1D 1_555 1_555
O3F P1F 1_555 1_555
O3E Ga1D_2 1_555 1_555
O3E_2 Ga1D 1_555 1_555
O3F_2 Ga1D 1_555 1_555
C1M N1 1_555 1_555
C1F N1 1_555 1_555
C1V N1 1_555 1_555
C1I N1 1_555 1_555
C1P N1 1_555 1_555
C2F C1F 1_555 1_555
C2I C1M 1_555 1_555
N2F C2F 1_555 1_555
N2I C2I 1_555 1_555
O4A Li2 1_555 1_555
O4B Li2 1_555 1_555
O4C Li2 1_555 1_555
C1 C1M 1_555 1_555
C1 C1V 1_555 1_555
C2 C1V 1_555 1_555
P1A O2A 1_555 1_555
P1A O3A 1_555 1_555
P1B O2T 1_555 1_555
P1B O3B 1_555 1_555
P1C O2C 1_555 1_555
P1C O2W 1_555 1_555
P1C O3C 1_555 1_555
P1FA O2LA 1_555 1_555
P1IA O2MA 1_555 1_555
P1IA O3IA 1_555 1_555
P1CA O2CA 1_555 1_555
P1BA O2BA 1_555 1_555
P1BA O3BA 1_555 1_555
P1EA O2EA 1_555 1_555
P1DA O2DA 1_555 1_555
P1DA O3DA 1_555 1_555
P1GA O2KA 1_555 1_555
P1HA O2JA 1_555 1_555
P1HA O3HA 1_555 1_555
P1HA_2 O2HA_2 1_555 1_555
P1HA_2 O3HA_2 1_555 1_555
P1GA_2 O2KA_2 1_555 1_555
P1GA_2 O2GA_2 1_555 1_555
P1GA_2 O3GA_2 1_555 1_555
P1EA_2 O2QA_2 1_555 1_555
P1EA_2 O3EA_2 1_555 1_555
P1DA_2 O2DA_2 1_555 1_555
P1DA_2 O2NA_2 1_555 1_555
P1DA_2 O3DA_2 1_555 1_555
P1CA_2 O2OA_2 1_555 1_555
P1CA_2 O3CA_2 1_555 1_555
P1BA_2 O2BA_2 1_555 1_555
P1BA_2 O2PA_2 1_555 1_555
P1BA_2 O3BA_2 1_555 1_555
P1IA_2 O2IA_2 1_555 1_555
P1IA_2 O3IA_2 1_555 1_555
P1FA_2 O2LA_2 1_555 1_555
P1FA_2 O2FA_2 1_555 1_555
P1FA_2 O3FA_2 1_555 1_555
P1D O2R 1_555 1_555
P1G O2S 1_555 1_555
P1G O3G 1_555 1_555
P1F O2P 1_555 1_555
P1E O2Q 1_555 1_555
P1E O3E 1_555 1_555
C1M C1I 1_555 1_555
C1F C1V 1_555 1_555
C1F C1P 1_555 1_555
C1I C1P 1_555 1_555
C1I C2I 1_555 1_555
C1P C2F 1_555 1_555

#END
