
#######################################################################
#
#                 Cambridge Crystallographic Data Centre
#                                CCDC 
#
#######################################################################
#
# If this CIF has been generated from an entry in the Cambridge 
# Structural Database, then it will include bibliographic, chemical, 
# crystal, experimental, refinement or atomic coordinate data resulting 
# from the CCDC's data processing and validation procedures.
#
#######################################################################

data_VARJEF
_chemical_formula_moiety         '(C95 H76 Fe4 N24 O7)n'
_symmetry_cell_setting           tetragonal
_symmetry_space_group_name_H-M   'P -4 21 c'
_symmetry_Int_Tables_number      114
_space_group_name_Hall           'P -4 2n'
loop_
_symmetry_equiv_pos_site_id
_symmetry_equiv_pos_as_xyz
1 x,y,z
2 y,-x,-z
3 -x,-y,z
4 -y,x,-z
5 1/2-x,1/2+y,1/2-z
6 1/2-y,1/2-x,1/2+z
7 1/2+x,1/2-y,1/2-z
8 1/2+y,1/2+x,1/2+z
_cell_length_a                   17.2926(4)
_cell_length_b                   17.2926(4)
_cell_length_c                   22.8962(8)
_cell_angle_alpha                90
_cell_angle_beta                 90
_cell_angle_gamma                90
_cell_volume                     6846.74
loop_
_atom_site_label
_atom_site_type_symbol
_atom_site_fract_x
_atom_site_fract_y
_atom_site_fract_z
Fe1 Fe 0.0000 0.0000 0.0000
Fe2 Fe 0.5000 0.0000 -0.051560(10)
Fe3 Fe 0.5000 0.5000 0.0000
N1 N 0.12315(11) 0.01536(10) -0.00123(8)
N2 N 0.37786(10) 0.02357(10) -0.04989(9)
N3 N 0.12167(10) 0.47852(10) 0.05070(9)
N4 N 0.37685(11) 0.48569(11) 0.00071(8)
N5 N 0.0000 0.0000 0.09527(11)
N6 N 0.0000 0.0000 0.40400(11)
N7 N 0.5000 0.0000 0.04405(7)
N8 N 0.5000 0.0000 0.35368(7)
C1 C 0.18285(13) 0.04317(12) -0.00895(10)
C2 C 0.25135(12) 0.08525(13) -0.01691(10)
C3 C 0.31903(14) 0.04827(12) -0.03517(10)
C4 C 0.25080(14) 0.16801(14) -0.00670(12)
C5 C 0.18588(13) 0.20705(13) 0.01415(10)
C6 C 0.18561(13) 0.28645(13) 0.02422(12)
C7 C 0.25054(13) 0.32985(13) 0.01283(10)
C8 C 0.31615(16) 0.29374(14) -0.00904(13)
C9 C 0.31707(14) 0.21521(15) -0.01805(14)
C10 C 0.25068(14) 0.41625(13) 0.02211(11)
C11 C 0.31687(12) 0.45767(13) 0.01084(10)
C12 C 0.18162(13) 0.45320(12) 0.03749(9)
C13 C -0.05929(15) 0.02891(15) 0.12536(10)
C14 C -0.06107(16) 0.03107(15) 0.18604(10)
C15 C 0.0000 0.0000 0.21762(15)
C16 C 0.0000 0.0000 0.28213(13)
C17 C -0.04022(14) 0.05604(15) 0.31456(10)
C18 C -0.03899(14) 0.05333(15) 0.37384(10)
C19 C 0.46538(11) 0.05568(11) 0.07461(8)
C20 C 0.46374(12) 0.05860(12) 0.13498(8)
C21 C 0.5000 0.0000 0.16692(9)
C22 C 0.5000 -0.0000 0.23099(8)
C23 C 0.43997(11) 0.03299(12) 0.26293(8)
C24 C 0.44210(11) 0.03230(11) 0.32302(8)
H1 H 0.1401 0.1784 0.0218
H2 H 0.1402 0.3109 0.0386
H3 H 0.3606 0.3236 -0.0182
H4 H 0.3631 0.1915 -0.0320
H5 H -0.1021 0.0490 0.1042
H6 H -0.1039 0.0537 0.2056
H7 H -0.0682 0.0956 0.2950
H8 H -0.0675 0.0913 0.3947
H9 H 0.4404 0.0959 0.0536
H10 H 0.4382 0.0999 0.1545
H11 H 0.3976 0.0565 0.2434
H12 H 0.4007 0.0552 0.3441
Fe2A Fe 0.0000 -0.5000 0.051560(10)
Fe2A_2 Fe 0.0000 0.5000 0.051560(10)
Fe2E Fe 0.5000 0.0000 0.448440(10)
Fe2_2 Fe -0.5000 0.0000 -0.051560(10)
Fe2E_2 Fe 0.5000 0.0000 -0.551560(10)
Fe3D Fe 0.0000 0.0000 0.5000
Fe3_2 Fe 0.5000 -0.5000 0.0000
Fe3_3 Fe -0.5000 -0.5000 0.0000
Fe3_4 Fe -0.5000 0.5000 0.0000
Fe3D_2 Fe 0.0000 0.0000 -0.5000
N1A N 0.01536(10) -0.12315(11) 0.00123(8)
N1B N -0.12315(11) -0.01536(10) -0.00123(8)
N1C N -0.01536(10) 0.12315(11) 0.00123(8)
N2A N 0.02357(10) -0.37786(10) 0.04989(9)
N2B N -0.37786(10) -0.02357(10) -0.04989(9)
N2C N -0.02357(10) 0.37786(10) 0.04989(9)
N2B_2 N 0.62214(10) -0.02357(10) -0.04989(9)
N2C_2 N -0.02357(10) -0.62214(10) 0.04989(9)
N3A N 0.47852(10) -0.12167(10) -0.05070(9)
N3B N -0.12167(10) -0.47852(10) 0.05070(9)
N3C N -0.47852(10) 0.12167(10) -0.05070(9)
N3C_2 N 0.52148(10) 0.12167(10) -0.05070(9)
N3_2 N 0.12167(10) -0.52148(10) 0.05070(9)
N4A N 0.48569(11) -0.37685(11) -0.00071(8)
N4B N -0.37685(11) -0.48569(11) 0.00071(8)
N4C N -0.48569(11) 0.37685(11) -0.00071(8)
N4A_2 N 0.48569(11) 0.62315(11) -0.00071(8)
N4B_2 N 0.62315(11) 0.51431(11) 0.00071(8)
N4C_2 N 0.51431(11) 0.37685(11) -0.00071(8)
N5A N 0.0000 0.0000 -0.09527(11)
N6A N 0.0000 0.0000 -0.40400(11)
N6D N 0.5000 0.5000 0.09600(11)
N6E N 0.5000 0.5000 -0.09600(11)
N7E N 0.5000 -0.0000 -0.45595(7)
N7A N 0.0000 -0.5000 -0.04405(7)
N8E N 0.5000 -0.0000 -0.14632(7)
N8D N 0.0000 -0.5000 0.14632(7)
C1A C 0.04317(12) -0.18285(13) 0.00895(10)
C1B C -0.18285(13) -0.04317(12) -0.00895(10)
C1C C -0.04317(12) 0.18285(13) 0.00895(10)
C2A C 0.08525(13) -0.25135(12) 0.01691(10)
C2B C -0.25135(12) -0.08525(13) -0.01691(10)
C2C C -0.08525(13) 0.25135(12) 0.01691(10)
C3A C 0.04827(12) -0.31903(14) 0.03517(10)
C3B C -0.31903(14) -0.04827(12) -0.03517(10)
C3C C -0.04827(12) 0.31903(14) 0.03517(10)
C4A C 0.16801(14) -0.25080(14) 0.00670(12)
C4B C -0.25080(14) -0.16801(14) -0.00670(12)
C4C C -0.16801(14) 0.25080(14) 0.00670(12)
C5A C 0.20705(13) -0.18588(13) -0.01415(10)
C5B C -0.18588(13) -0.20705(13) 0.01415(10)
C5C C -0.20705(13) 0.18588(13) -0.01415(10)
C6A C 0.28645(13) -0.18561(13) -0.02422(12)
C6B C -0.18561(13) -0.28645(13) 0.02422(12)
C6C C -0.28645(13) 0.18561(13) -0.02422(12)
C7A C 0.32985(13) -0.25054(13) -0.01283(10)
C7B C -0.25054(13) -0.32985(13) 0.01283(10)
C7C C -0.32985(13) 0.25054(13) -0.01283(10)
C8A C 0.29374(14) -0.31615(16) 0.00904(13)
C8B C -0.31615(16) -0.29374(14) -0.00904(13)
C8C C -0.29374(14) 0.31615(16) 0.00904(13)
C9A C 0.21521(15) -0.31707(14) 0.01805(14)
C9B C -0.31707(14) -0.21521(15) -0.01805(14)
C9C C -0.21521(15) 0.31707(14) 0.01805(14)
C10A C 0.41625(13) -0.25068(14) -0.02211(11)
C10B C -0.25068(14) -0.41625(13) 0.02211(11)
C10C C -0.41625(13) 0.25068(14) -0.02211(11)
C11A C 0.45767(13) -0.31687(12) -0.01084(10)
C11B C -0.31687(12) -0.45767(13) 0.01084(10)
C11C C -0.45767(13) 0.31687(12) -0.01084(10)
C12A C 0.45320(12) -0.18162(13) -0.03749(9)
C12B C -0.18162(13) -0.45320(12) 0.03749(9)
C12C C -0.45320(12) 0.18162(13) -0.03749(9)
C13B C 0.05929(15) -0.02891(15) 0.12536(10)
C13A C 0.02891(15) 0.05929(15) -0.12536(10)
C13C C -0.02891(15) -0.05929(15) -0.12536(10)
C14B C 0.06107(16) -0.03107(15) 0.18604(10)
C14A C 0.03107(15) 0.06107(16) -0.18604(10)
C14C C -0.03107(15) -0.06107(16) -0.18604(10)
C15A C -0.0000 -0.0000 -0.21762(15)
C16A C 0.0000 0.0000 -0.28213(13)
C17B C 0.04022(14) -0.05604(15) 0.31456(10)
C17A C 0.05604(15) 0.04022(14) -0.31456(10)
C17C C -0.05604(15) -0.04022(14) -0.31456(10)
C18B C 0.03899(14) -0.05333(15) 0.37384(10)
C18A C 0.05333(15) 0.03899(14) -0.37384(10)
C18C C -0.05333(15) -0.03899(14) -0.37384(10)
C19B C 0.53462(11) -0.05568(11) 0.07461(8)
C19E C 0.44432(11) 0.03462(11) -0.42539(8)
C19G C 0.55568(11) -0.03462(11) -0.42539(8)
C20B C 0.53626(12) -0.05860(12) 0.13498(8)
C20E C 0.44140(12) 0.03626(12) -0.36502(8)
C20G C 0.55860(12) -0.03626(12) -0.36502(8)
C21E C 0.5000 0.0000 -0.33308(9)
C22E C 0.5000 -0.0000 -0.26901(8)
C23B C 0.56003(11) -0.03299(12) 0.26293(8)
C23E C 0.46701(12) 0.06003(11) -0.23707(8)
C23G C 0.53299(12) -0.06003(11) -0.23707(8)
C24B C 0.55790(11) -0.03230(11) 0.32302(8)
C24E C 0.46770(11) 0.05790(11) -0.17698(8)
C24G C 0.53230(11) -0.05790(11) -0.17698(8)
H1A H 0.1784 -0.1401 -0.0218
H1B H -0.1401 -0.1784 0.0218
H1C H -0.1784 0.1401 -0.0218
H2A H 0.3109 -0.1402 -0.0386
H2B H -0.1402 -0.3109 0.0386
H2C H -0.3109 0.1402 -0.0386
H3A H 0.3236 -0.3606 0.0182
H3B H -0.3606 -0.3236 -0.0182
H3C H -0.3236 0.3606 0.0182
H4A H 0.1915 -0.3631 0.0320
H4B H -0.3631 -0.1915 -0.0320
H4C H -0.1915 0.3631 0.0320
H5B H 0.1021 -0.0490 0.1042
H5A H 0.0490 0.1021 -0.1042
H5C H -0.0490 -0.1021 -0.1042
H6B H 0.1039 -0.0537 0.2056
H6A H 0.0537 0.1039 -0.2056
H6C H -0.0537 -0.1039 -0.2056
H7B H 0.0682 -0.0956 0.2950
H7A H 0.0956 0.0682 -0.2950
H7C H -0.0956 -0.0682 -0.2950
H8B H 0.0675 -0.0913 0.3947
H8A H 0.0913 0.0675 -0.3947
H8C H -0.0913 -0.0675 -0.3947
H9B H 0.5596 -0.0959 0.0536
H9E H 0.4041 0.0596 -0.4464
H9G H 0.5959 -0.0596 -0.4464
H10B H 0.5618 -0.0999 0.1545
H10E H 0.4001 0.0618 -0.3455
H10G H 0.5999 -0.0618 -0.3455
H11B H 0.6024 -0.0565 0.2434
H11E H 0.4435 0.1024 -0.2566
H11G H 0.5565 -0.1024 -0.2566
H12B H 0.5993 -0.0552 0.3441
H12E H 0.4448 0.0993 -0.1559
H12G H 0.5552 -0.0993 -0.1559
O1 O 0.4111(2) -0.20889(15) 0.18480(10)
C25 C 0.4486(2) -0.2471(2) 0.13931(15)
H13 H 0.5013 -0.2549 0.1493
H14 H 0.4244 -0.2957 0.1329
H15 H 0.4455 -0.2170 0.1047
O2 O 0.11125(13) -0.21655(12) 0.22886(9)
C26 C 0.15561(17) -0.22975(18) 0.17670(12)
H16 H 0.1253 -0.2586 0.1498
H17 H 0.1693 -0.1815 0.1597
H18 H 0.2012 -0.2579 0.1859
O3 O -0.04022(14) -0.21829(15) 0.21903(9)
C27 C -0.0619(2) -0.2360(3) 0.16120(17)
H19 H -0.1127 -0.2178 0.1537
H20 H -0.0603 -0.2905 0.1561
H21 H -0.0267 -0.2122 0.1348
O4 O 0.32425(11) -0.08482(12) 0.16874(8)
C28 C 0.3001(2) -0.0850(2) 0.10865(13)
H22 H 0.2670 -0.1277 0.1014
H23 H 0.2732 -0.0382 0.1008
H24 H 0.3442 -0.0883 0.0841
O5 O 0.23719(11) -0.06241(12) 0.26337(8)
C29 C 0.2655(2) -0.11552(19) 0.30572(15)
H25 H 0.2299 -0.1193 0.3372
H26 H 0.2718 -0.1649 0.2881
H27 H 0.3140 -0.0980 0.3200
O6 O 0.3184(2) 0.17427(18) 0.20198(13)
C30 C 0.2817(4) 0.1681(4) 0.1490(3)
H28 H 0.2921 0.2157 0.1297
H29 H 0.2274 0.1614 0.1527
H30 H 0.3028 0.1267 0.1269
O7 O 0.24965(14) 0.08439(14) 0.29310(12)
C31 C 0.1922(2) 0.1063(2) 0.3311(2)
H31 H 0.1444 0.0854 0.3180
H32 H 0.1887 0.1611 0.3323
H33 H 0.2035 0.0871 0.3690
loop_
_geom_bond_atom_site_label_1
_geom_bond_atom_site_label_2
_geom_bond_site_symmetry_1
_geom_bond_site_symmetry_2
Fe1 N1 1_555 1_555
Fe2 N2 1_555 1_555
Fe3 N4 1_555 1_555
O1 C25 1_555 1_555
O2 C26 1_555 1_555
O3 C27 1_555 1_555
O4 C28 1_555 1_555
O5 C29 1_555 1_555
O6 C30 1_555 1_555
O7 C31 1_555 1_555
N1 C1 1_555 1_555
N2 C3 1_555 1_555
N3 C12 1_555 1_555
N4 C11 1_555 1_555
N5 Fe1 1_555 1_555
N6 C18 1_555 1_555
N7 Fe2 1_555 1_555
N8 C24 1_555 1_555
C1 C2 1_555 1_555
C2 C3 1_555 1_555
C4 C2 1_555 1_555
C5 C4 1_555 1_555
C6 C5 1_555 1_555
C7 C6 1_555 1_555
C8 C7 1_555 1_555
C9 C4 1_555 1_555
C10 C7 1_555 1_555
C11 C10 1_555 1_555
C12 C10 1_555 1_555
C13 N5 1_555 1_555
C14 C13 1_555 1_555
C15 C14 1_555 1_555
C16 C15 1_555 1_555
C17 C16 1_555 1_555
C18 C17 1_555 1_555
C19 N7 1_555 1_555
C20 C19 1_555 1_555
C21 C20 1_555 1_555
C22 C21 1_555 1_555
C23 C22 1_555 1_555
C24 C23 1_555 1_555
C25 H13 1_555 1_555
C26 H16 1_555 1_555
C27 H19 1_555 1_555
C28 H22 1_555 1_555
C29 H25 1_555 1_555
C30 H28 1_555 1_555
C31 H31 1_555 1_555
H1 C5 1_555 1_555
H2 C6 1_555 1_555
H3 C8 1_555 1_555
H4 C9 1_555 1_555
H5 C13 1_555 1_555
H6 C14 1_555 1_555
H7 C17 1_555 1_555
H8 C18 1_555 1_555
H9 C19 1_555 1_555
H10 C20 1_555 1_555
H11 C23 1_555 1_555
H12 C24 1_555 1_555
H14 C25 1_555 1_555
H15 C25 1_555 1_555
H17 C26 1_555 1_555
H18 C26 1_555 1_555
H20 C27 1_555 1_555
H21 C27 1_555 1_555
H23 C28 1_555 1_555
H24 C28 1_555 1_555
H26 C29 1_555 1_555
H27 C29 1_555 1_555
H29 C30 1_555 1_555
H30 C30 1_555 1_555
H32 C31 1_555 1_555
H33 C31 1_555 1_555
Fe2A N2A 1_555 1_555
Fe2A_2 N3 1_555 1_555
Fe2E N8 1_555 1_555
Fe2_2 N2B 1_555 1_555
Fe2E_2 N7E 1_555 1_555
Fe3D N6 1_555 1_555
Fe3_2 N4A 1_555 1_555
Fe3_3 N4B 1_555 1_555
Fe3_4 N4C 1_555 1_555
Fe3D_2 N6A 1_555 1_555
N1A Fe1 1_555 1_555
N1B Fe1 1_555 1_555
N1C Fe1 1_555 1_555
N2A C3A 1_555 1_555
N2B C3B 1_555 1_555
N2C Fe2A_2 1_555 1_555
N2B_2 Fe2 1_555 1_555
N2C_2 Fe2A 1_555 1_555
N3A Fe2 1_555 1_555
N3B Fe2A 1_555 1_555
N3C Fe2_2 1_555 1_555
N3C_2 Fe2 1_555 1_555
N3_2 Fe2A 1_555 1_555
N4A C11A 1_555 1_555
N4B C11B 1_555 1_555
N4C C11C 1_555 1_555
N4A_2 Fe3 1_555 1_555
N4B_2 Fe3 1_555 1_555
N4C_2 Fe3 1_555 1_555
N5A Fe1 1_555 1_555
N6A C18A 1_555 1_555
N6D Fe3 1_555 1_555
N6E Fe3 1_555 1_555
N7E C19E 1_555 1_555
N7A Fe2A 1_555 1_555
N8E Fe2 1_555 1_555
N8D Fe2A 1_555 1_555
C1A N1A 1_555 1_555
C1B N1B 1_555 1_555
C1C N1C 1_555 1_555
C2A C1A 1_555 1_555
C2B C1B 1_555 1_555
C2C C1C 1_555 1_555
C3A C2A 1_555 1_555
C3B C2B 1_555 1_555
C3C N2C 1_555 1_555
C4A C2A 1_555 1_555
C4B C2B 1_555 1_555
C4C C2C 1_555 1_555
C5A C4A 1_555 1_555
C5B C4B 1_555 1_555
C5C C4C 1_555 1_555
C6A C5A 1_555 1_555
C6B C5B 1_555 1_555
C6C C5C 1_555 1_555
C7A C6A 1_555 1_555
C7B C6B 1_555 1_555
C7C C6C 1_555 1_555
C8A C7A 1_555 1_555
C8B C7B 1_555 1_555
C8C C7C 1_555 1_555
C9A C4A 1_555 1_555
C9B C4B 1_555 1_555
C9C C4C 1_555 1_555
C10A C7A 1_555 1_555
C10B C7B 1_555 1_555
C10C C7C 1_555 1_555
C11A C10A 1_555 1_555
C11B C10B 1_555 1_555
C11C C10C 1_555 1_555
C12A N3A 1_555 1_555
C12B N3B 1_555 1_555
C12C N3C 1_555 1_555
C13B N5 1_555 1_555
C13A N5A 1_555 1_555
C13C N5A 1_555 1_555
C14B C15 1_555 1_555
C14A C13A 1_555 1_555
C14C C13C 1_555 1_555
C15A C14A 1_555 1_555
C16A C15A 1_555 1_555
C17B C16 1_555 1_555
C17A C16A 1_555 1_555
C17C C16A 1_555 1_555
C18B N6 1_555 1_555
C18A C17A 1_555 1_555
C18C N6A 1_555 1_555
C19B N7 1_555 1_555
C19E C20E 1_555 1_555
C19G N7E 1_555 1_555
C20B C21 1_555 1_555
C20E C21E 1_555 1_555
C20G C19G 1_555 1_555
C21E C20G 1_555 1_555
C22E C21E 1_555 1_555
C23B C22 1_555 1_555
C23E C22E 1_555 1_555
C23G C22E 1_555 1_555
C24B N8 1_555 1_555
C24E N8E 1_555 1_555
C24G N8E 1_555 1_555
H1A C5A 1_555 1_555
H1B C5B 1_555 1_555
H1C C5C 1_555 1_555
H2A C6A 1_555 1_555
H2B C6B 1_555 1_555
H2C C6C 1_555 1_555
H3A C8A 1_555 1_555
H3B C8B 1_555 1_555
H3C C8C 1_555 1_555
H4A C9A 1_555 1_555
H4B C9B 1_555 1_555
H4C C9C 1_555 1_555
H5B C13B 1_555 1_555
H5A C13A 1_555 1_555
H5C C13C 1_555 1_555
H6B C14B 1_555 1_555
H6A C14A 1_555 1_555
H6C C14C 1_555 1_555
H7B C17B 1_555 1_555
H7A C17A 1_555 1_555
H7C C17C 1_555 1_555
H8B C18B 1_555 1_555
H8A C18A 1_555 1_555
H8C C18C 1_555 1_555
H9B C19B 1_555 1_555
H9E C19E 1_555 1_555
H9G C19G 1_555 1_555
H10B C20B 1_555 1_555
H10E C20E 1_555 1_555
H10G C20G 1_555 1_555
H11B C23B 1_555 1_555
H11E C23E 1_555 1_555
H11G C23G 1_555 1_555
H12B C24B 1_555 1_555
H12E C24E 1_555 1_555
H12G C24G 1_555 1_555
C8 C9 1_555 1_555
C2C C3C 1_555 1_555
C8A C9A 1_555 1_555
C8B C9B 1_555 1_555
C8C C9C 1_555 1_555
C10A C12A 1_555 1_555
C10B C12B 1_555 1_555
C10C C12C 1_555 1_555
C13B C14B 1_555 1_555
C14C C15A 1_555 1_555
C17B C18B 1_555 1_555
C17C C18C 1_555 1_555
C19B C20B 1_555 1_555
C23B C24B 1_555 1_555
C23E C24E 1_555 1_555
C23G C24G 1_555 1_555

#END
