
#######################################################################
#
#                 Cambridge Crystallographic Data Centre
#                                CCDC 
#
#######################################################################
#
# If this CIF has been generated from an entry in the Cambridge 
# Structural Database, then it will include bibliographic, chemical, 
# crystal, experimental, refinement or atomic coordinate data resulting 
# from the CCDC's data processing and validation procedures.
#
#######################################################################

data_FIRVEH
_chemical_formula_moiety         'C46 Ca22 O51'
_symmetry_cell_setting           tetragonal
_symmetry_space_group_name_H-M   'I -4 2 d'
_symmetry_Int_Tables_number      122
_space_group_name_Hall           'I -4 2bw'
loop_
_symmetry_equiv_pos_site_id
_symmetry_equiv_pos_as_xyz
1 x,y,z
2 1/2+x,1/2+y,1/2+z
3 -y,x,-z
4 1/2-y,1/2+x,1/2-z
5 -x,-y,z
6 1/2-x,1/2-y,1/2+z
7 y,-x,-z
8 1/2+y,1/2-x,1/2-z
9 y,1/2+x,1/4+z
10 1/2+y,x,3/4+z
11 x,1/2-y,1/4-z
12 1/2+x,-y,3/4-z
13 -y,1/2-x,1/4+z
14 1/2-y,-x,3/4+z
15 -x,1/2+y,1/4-z
16 1/2-x,y,3/4-z
_cell_length_a                   13.615(2)
_cell_length_b                   13.615(2)
_cell_length_c                   7.675(1)
_cell_angle_alpha                90
_cell_angle_beta                 90
_cell_angle_gamma                90
_cell_volume                     1422.7
loop_
_atom_site_label
_atom_site_type_symbol
_atom_site_fract_x
_atom_site_fract_y
_atom_site_fract_z
Ca1 Ca 0.3093(1) 0.2500 0.125
O1 O 0.1548(1) 0.2670(2) -0.0734(2)
O2 O 0.2696(3) 0.0854(2) 0.0844(3)
C1 C 0.0852(2) 0.2580(3) 0.0319(3)
C2 C 0.2590(3) 0.0216(2) -0.0306(3)
O1E O 0.3452(1) 0.2330(2) 0.4266(2)
O1J O 0.1548(1) 0.2330(2) 0.3234(2)
O1O O 0.3452(1) 0.2670(2) -0.1766(2)
O2J O 0.2696(3) 0.4146(2) 0.1656(3)
Ca1E Ca 0.1907(1) 0.2500 -0.375
C1J C 0.0852(2) 0.2420(3) 0.2181(3)
C2B C -0.0216(2) 0.2590(3) 0.0306(3)
C1F C 0.2580(3) -0.0852(2) -0.0319(3)
C2O C 0.2410(3) 0.0216(2) -0.2194(3)
Ca1E_2 Ca 0.1907(1) 0.2500 0.625
C1E C 0.4148(2) 0.2420(3) 0.5319(3)
C1O C 0.4148(2) 0.2580(3) -0.2819(3)
C2J C 0.2590(3) 0.4784(2) 0.2806(3)
O1E_2 O 0.3452(1) 0.2330(2) -0.5734(2)
O1J_2 O 0.1548(1) 0.2330(2) -0.6766(2)
O2E O 0.2304(3) 0.4146(2) -0.4156(3)
O2O O 0.2304(3) 0.0854(2) -0.3344(3)
C2L C -0.0216(2) 0.2410(3) 0.2194(3)
O2B O -0.0854(2) 0.2696(3) -0.0844(3)
O1F O 0.2670(2) -0.1548(1) 0.0734(2)
C1M C 0.2420(3) -0.0852(2) -0.2181(3)
C1O_2 C 0.4148(2) 0.2580(3) 0.7181(3)
C2G C 0.5216(2) 0.2410(3) 0.5306(3)
C1E_2 C 0.4148(2) 0.2420(3) -0.4681(3)
C2I C 0.5216(2) 0.2590(3) -0.2806(3)
C1H C 0.2580(3) 0.5852(2) 0.2819(3)
C2E C 0.2410(3) 0.4784(2) 0.4694(3)
C2E_2 C 0.2410(3) 0.4784(2) -0.5306(3)
O2L O -0.0854(2) 0.2304(3) 0.3344(3)
Ca1B Ca -0.2500 0.3093(1) -0.125
Ca1C Ca 0.2500 -0.1907(1) 0.375
Ca1F Ca 0.2500 -0.3093(1) -0.125
O1M O 0.2330(2) -0.1548(1) -0.3234(2)
O2G O 0.5854(2) 0.2304(3) 0.4156(3)
C2I_2 C 0.5216(2) 0.2590(3) 0.7194(3)
O2I O 0.5854(2) 0.2696(3) -0.1656(3)
C2G_2 C 0.5216(2) 0.2410(3) -0.4694(3)
O1H O 0.2670(2) 0.6548(1) 0.1766(2)
C1C C 0.2420(3) 0.5852(2) 0.4681(3)
O2E_2 O 0.2304(3) 0.4146(2) 0.5844(3)
Ca1G Ca -0.2500 0.1907(1) 0.375
O1B O -0.2670(2) 0.1548(1) 0.0734(2)
O1G O -0.2330(2) 0.3452(1) -0.4266(2)
O1I O -0.2330(2) 0.1548(1) -0.3234(2)
O1L O -0.2670(2) 0.3452(1) 0.1766(2)
O2I_2 O -0.4146(2) 0.2696(3) -0.1656(3)
O1C O 0.2330(2) -0.3452(1) 0.5734(2)
O1H_2 O 0.2670(2) -0.3452(1) 0.1766(2)
O1M_2 O 0.2330(2) -0.1548(1) 0.6766(2)
O2C O 0.4146(2) -0.2304(3) 0.4156(3)
O2H O 0.0854(2) -0.2304(3) 0.3344(3)
O1C_2 O 0.2330(2) -0.3452(1) -0.4266(2)
O2F O 0.0854(2) -0.2696(3) -0.0844(3)
O2M O 0.4146(2) -0.2696(3) -0.1656(3)
Ca1C_2 Ca 0.2500 -0.1907(1) -0.625
Ca1G_2 Ca 0.7500 0.1907(1) 0.375
Ca1B_2 Ca 0.7500 0.3093(1) -0.125
Ca1C_3 Ca 0.2500 0.8093(1) 0.375
Ca1F_2 Ca 0.2500 0.6907(1) -0.125
O1C_3 O 0.2330(2) 0.6548(1) 0.5734(2)
O1G_2 O -0.2330(2) 0.3452(1) 0.5734(2)
O1I_2 O -0.2330(2) 0.1548(1) 0.6766(2)
O2G_2 O -0.4146(2) 0.2304(3) 0.4156(3)
C1B C -0.2580(3) 0.0852(2) -0.0319(3)
Ca1G_3 Ca -0.2500 0.1907(1) -0.625
C1G C -0.2420(3) 0.4148(2) -0.5319(3)
C1I C -0.2420(3) 0.0852(2) -0.2181(3)
C1L C -0.2580(3) 0.4148(2) 0.2819(3)
Ca1F_3 Ca 0.2500 -0.3093(1) 0.875
C1C_2 C 0.2420(3) -0.4148(2) 0.4681(3)
C2C C 0.4784(2) -0.2410(3) 0.5306(3)
C2H C 0.0216(2) -0.2410(3) 0.2194(3)
C2F C 0.0216(2) -0.2590(3) 0.0306(3)
C2M C 0.4784(2) -0.2590(3) -0.2806(3)
C2D C -0.2590(3) -0.0216(2) -0.0306(3)
C1L_2 C -0.2580(3) 0.4148(2) -0.7181(3)
C2A C -0.2410(3) 0.5216(2) -0.5306(3)
C2K C -0.2410(3) -0.0216(2) -0.2194(3)
C1G_2 C -0.2420(3) 0.4148(2) 0.4681(3)
C2N C -0.2590(3) 0.5216(2) 0.2806(3)
C1A C 0.5852(2) -0.2420(3) 0.5319(3)
C2M_2 C 0.4784(2) -0.2590(3) 0.7194(3)
C1N C -0.0852(2) -0.2420(3) 0.2181(3)
C1D C -0.0852(2) -0.2580(3) 0.0319(3)
C1K C 0.5852(2) -0.2580(3) -0.2819(3)
C2C_2 C 0.4784(2) -0.2410(3) -0.4694(3)
O2D O -0.2696(3) -0.0854(2) 0.0844(3)
O2A O -0.2304(3) 0.5854(2) -0.4156(3)
C2N_2 C -0.2590(3) 0.5216(2) -0.7194(3)
O2K O -0.2304(3) -0.0854(2) -0.3344(3)
O2N O -0.2696(3) 0.5854(2) 0.1656(3)
C2A_2 C -0.2410(3) 0.5216(2) 0.4694(3)
O1A O 0.6548(1) -0.2330(2) 0.4266(2)
C1K_2 C 0.5852(2) -0.2580(3) 0.7181(3)
O1N O -0.1548(1) -0.2330(2) 0.3234(2)
O1D O -0.1548(1) -0.2670(2) -0.0734(2)
O1K O 0.6548(1) -0.2670(2) -0.1766(2)
C1A_2 C 0.5852(2) -0.2420(3) -0.4681(3)
Ca1D Ca -0.3093(1) -0.2500 0.125
Ca1A Ca -0.1907(1) 0.7500 -0.375
Ca1A_2 Ca -0.1907(1) -0.2500 -0.375
Ca1D_2 Ca -0.3093(1) 0.7500 0.125
Ca1A_3 Ca 0.8093(1) -0.2500 0.625
Ca1D_3 Ca 0.6907(1) -0.2500 0.125
Ca1A_4 Ca -0.1907(1) -0.2500 0.625
Ca1A_5 Ca 0.8093(1) -0.2500 -0.375
O1A_2 O -0.3452(1) -0.2330(2) 0.4266(2)
O1K_2 O -0.3452(1) -0.2670(2) -0.1766(2)
O2N_2 O -0.2696(3) -0.4146(2) 0.1656(3)
O1A_3 O -0.3452(1) 0.7670(2) -0.5734(2)
O1D_2 O -0.1548(1) 0.7330(2) -0.0734(2)
O1K_3 O -0.3452(1) 0.7330(2) -0.1766(2)
O1N_2 O -0.1548(1) 0.7670(2) -0.6766(2)
O2K_2 O -0.2304(3) 0.9146(2) -0.3344(3)
loop_
_geom_bond_atom_site_label_1
_geom_bond_atom_site_label_2
_geom_bond_site_symmetry_1
_geom_bond_site_symmetry_2
Ca1 O1 1_555 1_555
O1 C1 1_555 1_555
O2 Ca1 1_555 1_555
C1 C1J 1_555 1_555
C2 O2 1_555 1_555
O1E Ca1 1_555 1_555
O1J Ca1 1_555 1_555
O1O Ca1 1_555 1_555
O2J Ca1 1_555 1_555
Ca1E O1 1_555 1_555
C1J O1J 1_555 1_555
C2B C1 1_555 1_555
C1F C2 1_555 1_555
C2O C2 1_555 1_555
Ca1E_2 O1E 1_555 1_555
C1E O1E 1_555 1_555
C1O O1O 1_555 1_555
C2J O2J 1_555 1_555
O1E_2 Ca1E 1_555 1_555
O1J_2 Ca1E 1_555 1_555
O2E Ca1E 1_555 1_555
O2O Ca1E 1_555 1_555
C2L C1J 1_555 1_555
O2B C2B 1_555 1_555
O1F C1F 1_555 1_555
C1M C1F 1_555 1_555
C1O_2 C1E 1_555 1_555
C2G C1E 1_555 1_555
C1E_2 C1O 1_555 1_555
C2I C1O 1_555 1_555
C1H C2J 1_555 1_555
C2E C2J 1_555 1_555
C2E_2 O2E 1_555 1_555
O2L C2L 1_555 1_555
Ca1B O2B 1_555 1_555
Ca1C O1F 1_555 1_555
Ca1F O1F 1_555 1_555
O1M C1M 1_555 1_555
O2G C2G 1_555 1_555
C2I_2 C2G 1_555 1_555
O2I C2I 1_555 1_555
C2G_2 C2I 1_555 1_555
O1H C1H 1_555 1_555
C1C C1H 1_555 1_555
O2E_2 C2E 1_555 1_555
Ca1G O2L 1_555 1_555
O1B Ca1B 1_555 1_555
O1G Ca1B 1_555 1_555
O1I Ca1B 1_555 1_555
O1L Ca1B 1_555 1_555
O2I_2 Ca1B 1_555 1_555
O1C Ca1C 1_555 1_555
O1H_2 Ca1C 1_555 1_555
O1M_2 Ca1C 1_555 1_555
O2C Ca1C 1_555 1_555
O2H Ca1C 1_555 1_555
O1C_2 Ca1F 1_555 1_555
O2F Ca1F 1_555 1_555
O2M Ca1F 1_555 1_555
Ca1C_2 O1M 1_555 1_555
Ca1G_2 O2G 1_555 1_555
Ca1B_2 O2I 1_555 1_555
Ca1C_3 O1H 1_555 1_555
Ca1F_2 O1H 1_555 1_555
O1C_3 C1C 1_555 1_555
O1G_2 Ca1G 1_555 1_555
O1I_2 Ca1G 1_555 1_555
O2G_2 Ca1G 1_555 1_555
C1B O1B 1_555 1_555
Ca1G_3 O1G 1_555 1_555
C1G O1G 1_555 1_555
C1I O1I 1_555 1_555
C1L O1L 1_555 1_555
Ca1F_3 O1C 1_555 1_555
C1C_2 O1C 1_555 1_555
C2C O2C 1_555 1_555
C2H O2H 1_555 1_555
C2F O2F 1_555 1_555
C2M O2M 1_555 1_555
C2D C1B 1_555 1_555
C1L_2 C1G 1_555 1_555
C2A C1G 1_555 1_555
C2K C1I 1_555 1_555
C1G_2 C1L 1_555 1_555
C2N C1L 1_555 1_555
C1A C2C 1_555 1_555
C2M_2 C2C 1_555 1_555
C1N C2H 1_555 1_555
C1D C2F 1_555 1_555
C1K C2M 1_555 1_555
C2C_2 C2M 1_555 1_555
O2D C2D 1_555 1_555
O2A C2A 1_555 1_555
C2N_2 C2A 1_555 1_555
O2K C2K 1_555 1_555
O2N C2N 1_555 1_555
C2A_2 C2N 1_555 1_555
O1A C1A 1_555 1_555
C1K_2 C1A 1_555 1_555
O1N C1N 1_555 1_555
O1D C1D 1_555 1_555
O1K C1K 1_555 1_555
C1A_2 C1K 1_555 1_555
Ca1D O2D 1_555 1_555
Ca1A O2A 1_555 1_555
Ca1A_2 O2K 1_555 1_555
Ca1D_2 O2N 1_555 1_555
Ca1A_3 O1A 1_555 1_555
Ca1D_3 O1A 1_555 1_555
Ca1A_4 O1N 1_555 1_555
Ca1A_5 O1K 1_555 1_555
O1A_2 Ca1D 1_555 1_555
O1K_2 Ca1D 1_555 1_555
O2N_2 Ca1D 1_555 1_555
O1A_3 Ca1A 1_555 1_555
O1D_2 Ca1A 1_555 1_555
O1K_3 Ca1A 1_555 1_555
O1N_2 Ca1A 1_555 1_555
O2K_2 Ca1A 1_555 1_555
O1J Ca1E_2 1_555 1_555
O1O Ca1E 1_555 1_555
C2B C2L 1_555 1_555
C2O O2O 1_555 1_555
C2O C1M 1_555 1_555
C2E C1C 1_555 1_555
Ca1F O1M 1_555 1_555
Ca1F O1H_2 1_555 1_555
Ca1G O1B 1_555 1_555
Ca1G O1L 1_555 1_555
O1I Ca1G_3 1_555 1_555
C1B C1I 1_555 1_555
C2H C2F 1_555 1_555
C2D C2K 1_555 1_555
C1N C1D 1_555 1_555
O1N Ca1D 1_555 1_555
O1D Ca1D 1_555 1_555
O1D Ca1A_2 1_555 1_555
O1K Ca1D_3 1_555 1_555

#END
