
#######################################################################
#
#                 Cambridge Crystallographic Data Centre
#                                CCDC 
#
#######################################################################
#
# If this CIF has been generated from an entry in the Cambridge 
# Structural Database, then it will include bibliographic, chemical, 
# crystal, experimental, refinement or atomic coordinate data resulting 
# from the CCDC's data processing and validation procedures.
#
#######################################################################

data_UFUQIV
_chemical_formula_moiety         '(C23 H20 Cl2 Cu1 F6 N4 O7 S2)n'
_symmetry_cell_setting           tetragonal
_symmetry_space_group_name_H-M   'I 41/a c d'
_symmetry_Int_Tables_number      142
_space_group_name_Hall           '-I 4bd 2c'
loop_
_symmetry_equiv_pos_site_id
_symmetry_equiv_pos_as_xyz
1 x,y,z
2 1/4-y,1/4-x,1/4-z
3 3/4+y,1/4+x,1/4-z
4 1/4+y,1/4-x,3/4+z
5 1/4-y,3/4+x,1/4+z
6 1/2+x,1/2+y,1/2+z
7 1/4+y,3/4+x,3/4-z
8 3/4+y,3/4-x,1/4+z
9 3/4-y,1/4+x,3/4+z
10 -x,1/2-y,z
11 x,-y,1/2-z
12 1/2-x,y,-z
13 1/2-x,-y,1/2+z
14 1/2+x,1/2-y,-z
15 -x,1/2+y,1/2-z
16 3/4-y,3/4-x,3/4-z
17 -x,-y,-z
18 3/4+y,3/4+x,3/4+z
19 1/4-y,3/4-x,3/4+z
20 3/4-y,3/4+x,1/4-z
21 3/4+y,1/4-x,3/4-z
22 1/2-x,1/2-y,1/2-z
23 3/4-y,1/4-x,1/4+z
24 1/4-y,1/4+x,3/4-z
25 1/4+y,3/4-x,1/4-z
26 x,1/2+y,-z
27 -x,y,1/2+z
28 1/2+x,-y,z
29 1/2+x,y,1/2-z
30 1/2-x,1/2+y,z
31 x,1/2-y,1/2+z
32 1/4+y,1/4+x,1/4+z
_cell_length_a                   28.484(8)
_cell_length_b                   28.484(8)
_cell_length_c                   18.219(7)
_cell_angle_alpha                90
_cell_angle_beta                 90
_cell_angle_gamma                90
_cell_volume                     14781.8
loop_
_atom_site_label
_atom_site_type_symbol
_atom_site_fract_x
_atom_site_fract_y
_atom_site_fract_z
_atom_site_U_iso_or_equiv
_atom_site_thermal_displace_type
O1 O 0.4478(17) 0.2631(16) 0.094(2) 0.2800 Uiso
Cl1 Cl 0.8139(3) 0.4307(3) 0.0462(2) 0.2290 Uani
C1 C 0.8430(4) 0.4070(4) 0.1250 0.1493 Uani
H1 H 0.8376 0.3734 0.1283 0.1800 Uiso
H2 H 0.8766 0.4124 0.1217 0.1800 Uiso
Cl1A Cl 0.8193(3) 0.4361(3) 0.2038(2) 0.2290 Uani
Cu1 Cu 0.49243(3) 0.0000 0.2500 0.0337 Uani
O2 O 0.4901(3) -0.0537(3) 0.0063(3) 0.1583 Uani
O3 O 0.49024(14) -0.05099(15) 0.1394(2) 0.0460 Uani
S1 S 0.50388(19) -0.07413(16) 0.0738(2) 0.0787 Uani
O4 O 0.5532(3) -0.0847(4) 0.0738(5) 0.0963 Uani
C2 C 0.4754(6) -0.1313(6) 0.0770(6) 0.1477 Uani
F1 F 0.4887(9) -0.1480(10) 0.0111(11) 0.3067 Uani
F2 F 0.4957(10) -0.1531(10) 0.1343(12) 0.2020 Uani
F3 F 0.4287(5) -0.1257(8) 0.0840(13) 0.2387 Uani
N1 N 0.44318(15) -0.04135(17) 0.2956(3) 0.0343 Uani
N2 N 0.29136(15) -0.20752(16) 0.4551(3) 0.0340 Uani
C3 C 0.2753(2) -0.1779(2) 0.4044(4) 0.0457 Uani
H3 H 0.2440 -0.1798 0.3906 0.0550 Uiso
C4 C 0.38137(19) -0.1054(2) 0.3584(3) 0.0367 Uani
C5 C 0.34950(19) -0.1406(2) 0.3916(3) 0.0363 Uani
C6 C 0.4450(2) -0.0516(2) 0.3678(4) 0.0423 Uani
H4 H 0.4673 -0.0366 0.3968 0.0510 Uiso
C7 C 0.3363(2) -0.2043(2) 0.4736(4) 0.0483 Uani
H5 H 0.3480 -0.2251 0.5085 0.0580 Uiso
C8 C 0.4099(2) -0.0619(2) 0.2556(4) 0.0437 Uani
H6 H 0.4077 -0.0542 0.2061 0.0530 Uiso
C9 C 0.3661(2) -0.1718(2) 0.4438(4) 0.0493 Uani
H7 H 0.3974 -0.1707 0.4584 0.0590 Uiso
C10 C 0.4156(2) -0.0833(2) 0.4001(4) 0.0433 Uani
H8 H 0.4184 -0.0899 0.4499 0.0520 Uiso
C11 C 0.3786(2) -0.0941(2) 0.2843(4) 0.0460 Uani
H9 H 0.3561 -0.1080 0.2545 0.0550 Uiso
C12 C 0.3031(2) -0.1447(2) 0.3716(4) 0.0497 Uani
H10 H 0.2906 -0.1250 0.3359 0.0590 Uiso
O2J O 0.4901(3) 0.0537(3) 0.4937(3) 0.1583 Uani
O3J O 0.49024(14) 0.05099(15) 0.3606(2) 0.0460 Uani
S1J S 0.50388(19) 0.07413(16) 0.4262(2) 0.0787 Uani
O4J O 0.5532(3) 0.0847(4) 0.4262(5) 0.0963 Uani
C2J C 0.4754(6) 0.1313(6) 0.4230(6) 0.1477 Uani
F1J F 0.4887(9) 0.1480(10) 0.4889(11) 0.3067 Uani
F2J F 0.4957(10) 0.1531(10) 0.3657(12) 0.2020 Uani
F3J F 0.4287(5) 0.1257(8) 0.4160(13) 0.2387 Uani
N1J N 0.44318(15) 0.04135(17) 0.2044(3) 0.0343 Uani
N2J N 0.29136(15) 0.20752(16) 0.0449(3) 0.0340 Uani
C3J C 0.2753(2) 0.1779(2) 0.0956(4) 0.0457 Uani
H3J H 0.2440 0.1798 0.1094 0.0550 Uiso
C4J C 0.38137(19) 0.1054(2) 0.1416(3) 0.0367 Uani
C5J C 0.34950(19) 0.1406(2) 0.1084(3) 0.0363 Uani
C6J C 0.4450(2) 0.0516(2) 0.1322(4) 0.0423 Uani
H4J H 0.4673 0.0366 0.1032 0.0510 Uiso
C7J C 0.3363(2) 0.2043(2) 0.0264(4) 0.0483 Uani
H5J H 0.3480 0.2251 -0.0085 0.0580 Uiso
C8J C 0.4099(2) 0.0619(2) 0.2444(4) 0.0437 Uani
H6J H 0.4077 0.0542 0.2939 0.0530 Uiso
C9J C 0.3661(2) 0.1718(2) 0.0562(4) 0.0493 Uani
H7J H 0.3974 0.1707 0.0416 0.0590 Uiso
C10J C 0.4156(2) 0.0833(2) 0.0999(4) 0.0433 Uani
H8J H 0.4184 0.0899 0.0501 0.0520 Uiso
C11J C 0.3786(2) 0.0941(2) 0.2157(4) 0.0460 Uani
H9J H 0.3561 0.1080 0.2455 0.0550 Uiso
C12J C 0.3031(2) 0.1447(2) 0.1284(4) 0.0497 Uani
H10J H 0.2906 0.1250 0.1641 0.0590 Uiso
N2Q N 0.54248(16) 0.04136(15) 0.2051(3) 0.0340 Uani
N2T N 0.54248(16) -0.04136(15) 0.2949(3) 0.0340 Uani
Cu1EA Cu 0.2500 -0.25757(3) 0.5000 0.0337 Uani
Cu1R Cu 0.2500 0.25757(3) 0.0000 0.0337 Uani
loop_
_atom_site_aniso_label
_atom_site_aniso_U_11
_atom_site_aniso_U_22
_atom_site_aniso_U_33
_atom_site_aniso_U_23
_atom_site_aniso_U_13
_atom_site_aniso_U_12
Cl1 0.304(8) 0.257(7) 0.126(4) -0.026(4) -0.002(4) 0.118(6)
C1 0.144(12) 0.144(12) 0.16(2) -0.014(11) -0.014(11) -0.008(15)
Cl1A 0.257 0.304 0.126 -0.002 -0.026 0.118
Cu1 0.0157(5) 0.0337(6) 0.0516(7) 0.0274(4) 0.000 0.000
O2 0.208(11) 0.211(12) 0.056(5) 0.021(6) 0.023(6) 0.064(9)
O3 0.046(3) 0.044(2) 0.048(3) 0.007(2) 0.000(2) -0.0015(19)
S1 0.066(3) 0.100(3) 0.070(3) -0.023(2) -0.006(2) 0.013(2)
O4 0.066(7) 0.134(12) 0.089(9) -0.037(8) 0.009(6) 0.020(7)
C2 0.16(2) 0.098(11) 0.185(19) -0.042(12) -0.064(16) 0.022(13)
F1 0.28(3) 0.32(4) 0.32(3) -0.26(3) 0.01(2) -0.12(3)
F2 0.26(3) 0.116(16) 0.23(3) -0.020(16) -0.08(2) 0.059(18)
F3 0.136(15) 0.24(3) 0.34(3) -0.05(2) -0.063(18) -0.087(16)
N1 0.021(2) 0.040(3) 0.042(3) 0.025(2) -0.0028(19) -0.0045(19)
N2 0.033 0.017 0.052 0.003 0.021 -0.0032
C3 0.029 0.039 0.069 0.015 0.006 -0.005
C4 0.025(3) 0.037(3) 0.048(4) 0.016(3) 0.006(2) -0.005(2)
C5 0.032 0.03 0.047 0.01 0.01 -0.005
C6 0.032(3) 0.046(4) 0.049(4) 0.016(3) -0.002(3) -0.013(3)
C7 0.036 0.043 0.066 0.024 0.01 -0.002
C8 0.027(3) 0.055(4) 0.049(4) 0.029(3) -0.004(3) -0.010(3)
C9 0.029 0.049 0.07 0.028 0.006 -0.005
C10 0.038(3) 0.050(4) 0.042(3) 0.017(3) 0.004(3) -0.014(3)
C11 0.032(3) 0.057(4) 0.049(4) 0.018(3) -0.004(3) -0.015(3)
C12 0.035 0.047 0.067 0.028 -0.002 -0.007
O2J 0.208 0.211 0.056 0.021 -0.023 -0.064
O3J 0.046 0.044 0.048 0.007 0 0.0015
S1J 0.066 0.1 0.07 -0.023 0.006 -0.013
O4J 0.066 0.134 0.089 -0.037 -0.009 -0.02
C2J 0.16 0.098 0.185 -0.042 0.064 -0.022
F1J 0.28 0.32 0.32 -0.26 -0.01 0.12
F2J 0.26 0.116 0.23 -0.02 0.08 -0.059
F3J 0.136 0.24 0.34 -0.05 0.063 0.087
N1J 0.021 0.04 0.042 0.025 0.0028 0.0045
N2J 0.033 0.017 0.052 0.003 -0.021 0.0032
C3J 0.029 0.039 0.069 0.015 -0.006 0.005
C4J 0.025 0.037 0.048 0.016 -0.006 0.005
C5J 0.032 0.03 0.047 0.01 -0.01 0.005
C6J 0.032 0.046 0.049 0.016 0.002 0.013
C7J 0.036 0.043 0.066 0.024 -0.01 0.002
C8J 0.027 0.055 0.049 0.029 0.004 0.01
C9J 0.029 0.049 0.07 0.028 -0.006 0.005
C10J 0.038 0.05 0.042 0.017 -0.004 0.014
C11J 0.032 0.057 0.049 0.018 0.004 0.015
C12J 0.035 0.047 0.067 0.028 0.002 0.007
N2Q 0.017 0.033 0.052 0.021 0.003 -0.0032
N2T 0.017 0.033 0.052 0.021 -0.003 0.0032
Cu1EA 0.0337 0.0157 0.0516 0 0.0274 0
Cu1R 0.0337 0.0157 0.0516 0 -0.0274 0
loop_
_geom_bond_atom_site_label_1
_geom_bond_atom_site_label_2
_geom_bond_site_symmetry_1
_geom_bond_site_symmetry_2
Cl1 C1 1_555 1_555
C1 H1 1_555 1_555
H2 C1 1_555 1_555
Cu1 O3 1_555 1_555
O2 S1 1_555 1_555
O3 S1 1_555 1_555
S1 O4 1_555 1_555
C2 S1 1_555 1_555
F1 C2 1_555 1_555
F2 C2 1_555 1_555
F3 C2 1_555 1_555
N1 Cu1 1_555 1_555
N2 C3 1_555 1_555
C3 H3 1_555 1_555
C4 C5 1_555 1_555
C5 C9 1_555 1_555
C6 N1 1_555 1_555
H4 C6 1_555 1_555
C7 N2 1_555 1_555
H5 C7 1_555 1_555
C8 N1 1_555 1_555
H6 C8 1_555 1_555
C9 C7 1_555 1_555
H7 C9 1_555 1_555
C10 C4 1_555 1_555
H8 C10 1_555 1_555
C11 C4 1_555 1_555
H9 C11 1_555 1_555
C12 C3 1_555 1_555
H10 C12 1_555 1_555
Cl1A C1 1_555 1_555
O2J S1J 1_555 1_555
O3J Cu1 1_555 1_555
S1J O3J 1_555 1_555
O4J S1J 1_555 1_555
C2J S1J 1_555 1_555
F1J C2J 1_555 1_555
F2J C2J 1_555 1_555
F3J C2J 1_555 1_555
N1J Cu1 1_555 1_555
N2J C3J 1_555 1_555
C3J H3J 1_555 1_555
C4J C5J 1_555 1_555
C5J C9J 1_555 1_555
C6J N1J 1_555 1_555
H4J C6J 1_555 1_555
C7J N2J 1_555 1_555
H5J C7J 1_555 1_555
C8J N1J 1_555 1_555
H6J C8J 1_555 1_555
C9J C7J 1_555 1_555
H7J C9J 1_555 1_555
C10J C4J 1_555 1_555
H8J C10J 1_555 1_555
C11J C4J 1_555 1_555
H9J C11J 1_555 1_555
C12J C3J 1_555 1_555
H10J C12J 1_555 1_555
N2Q Cu1 1_555 1_555
N2T Cu1 1_555 1_555
Cu1EA N2 1_555 1_555
Cu1R N2J 1_555 1_555
C5 C12 1_555 1_555
C6 C10 1_555 1_555
C8 C11 1_555 1_555
C5J C12J 1_555 1_555
C6J C10J 1_555 1_555
C8J C11J 1_555 1_555

#END
