
#######################################################################
#
#                 Cambridge Crystallographic Data Centre
#                                CCDC 
#
#######################################################################
#
# If this CIF has been generated from an entry in the Cambridge 
# Structural Database, then it will include bibliographic, chemical, 
# crystal, experimental, refinement or atomic coordinate data resulting 
# from the CCDC's data processing and validation procedures.
#
#######################################################################

data_GUJREK01
_chemical_formula_moiety         '(C48 H36 Cl1 Cu4 N12 O10 S2 1+)n'
_symmetry_cell_setting           orthorhombic
_symmetry_space_group_name_H-M   'I 21 21 21'
_symmetry_Int_Tables_number      24
_space_group_name_Hall           'I 2b 2c'
loop_
_symmetry_equiv_pos_site_id
_symmetry_equiv_pos_as_xyz
1 x,y,z
2 -x,1/2-y,z
3 x,-y,1/2-z
4 -x,1/2+y,1/2-z
5 1/2+x,1/2+y,1/2+z
6 1/2-x,-y,1/2+z
7 1/2+x,1/2-y,-z
8 1/2-x,y,-z
_cell_length_a                   12.3588(10)
_cell_length_b                   15.5011(12)
_cell_length_c                   34.305(3)
_cell_angle_alpha                90
_cell_angle_beta                 90
_cell_angle_gamma                90
_cell_volume                     6571.98
loop_
_atom_site_label
_atom_site_type_symbol
_atom_site_fract_x
_atom_site_fract_y
_atom_site_fract_z
Cu1 Cu 0.65009(8) 0.64226(6) 0.51369(3)
Cu2 Cu 1.0000 0.2500 0.26002(4)
Cu3 Cu 1.00531(12) 0.5000 0.2500
S1 S 0.88048(15) 0.62868(13) 0.30932(7)
C1 C 0.8152(10) 0.2315(5) 0.3332(4)
H1 H 0.8775 0.1940 0.3284
H2 H 0.7510 0.2073 0.3205
H3 H 0.8023 0.2358 0.3613
C2 C 0.8373(8) 0.3186(5) 0.3172(3)
C3 C 0.8256(7) 0.4571(5) 0.3068(3)
C4 C 0.7894(7) 0.5463(5) 0.3062(3)
C5 C 0.6884(7) 0.5755(6) 0.2988(3)
H4 H 0.6271 0.5390 0.2958
C6 C 0.6842(7) 0.6666(5) 0.2960(3)
H5 H 0.6196 0.6981 0.2914
C7 C 0.7825(7) 0.7039(5) 0.3005(3)
C8 C 0.8142(7) 0.7942(5) 0.2955(3)
C9 C 0.8172(7) 0.9338(5) 0.3023(3)
C10 C 0.7952(8) 1.0219(5) 0.3165(3)
H6 H 0.8361 1.0635 0.3009
H7 H 0.8172 1.0265 0.3439
H8 H 0.7177 1.0341 0.3143
C11 C 0.7022(7) 0.4019(5) 0.3582(2)
C12 C 0.6009(7) 0.3627(6) 0.3564(3)
H9 H 0.5809 0.3285 0.3346
C13 C 0.5295(7) 0.3750(7) 0.3875(3)
H10 H 0.4613 0.3467 0.3875
C14 C 0.5579(8) 0.4287(6) 0.4185(3)
H11 H 0.5073 0.4391 0.4388
C15 C 0.6612(8) 0.4679(5) 0.4199(2)
C16 C 0.7307(7) 0.4536(4) 0.3891(2)
H12 H 0.8000 0.4801 0.3893
C17 C 0.6921(8) 0.5275(5) 0.4509(2)
C18 C 0.6975(7) 0.8537(5) 0.3488(2)
C19 C 0.5938(7) 0.8878(5) 0.3468(3)
H13 H 0.5682 0.9145 0.3236
C20 C 0.5292(8) 0.8818(6) 0.3792(3)
H14 H 0.4591 0.9069 0.3787
C21 C 0.5634(7) 0.8402(6) 0.4129(3)
H15 H 0.5166 0.8352 0.4347
C22 C 0.6676(7) 0.8057(5) 0.4141(3)
C23 C 0.7347(8) 0.8123(5) 0.3815(2)
H16 H 0.8055 0.7884 0.3819
C24 C 0.7022(8) 0.7535(7) 0.4482(2)
N1 N 0.7795(6) 0.3911(4) 0.3270(2)
N2 N 0.9133(6) 0.3381(4) 0.2922(2)
N3 N 0.9083(6) 0.4270(4) 0.2860(2)
N4 N 0.7685(5) 0.8617(4) 0.31557(18)
N5 N 0.8900(6) 0.8230(4) 0.27179(19)
N6 N 0.8912(6) 0.9125(4) 0.2757(2)
O1 O 0.6188(5) 0.5551(4) 0.47421(19)
O2 O 0.7902(5) 0.5529(4) 0.4521(2)
O3 O 0.6333(5) 0.7327(4) 0.47363(18)
O4 O 0.8012(6) 0.7301(4) 0.44889(19)
O5 O 0.4863(5) 0.6410(5) 0.5358(2)
Cu1A Cu 1.34991(8) -0.14226(6) 0.51369(3)
S1A S 1.11952(15) -0.12868(13) 0.30932(7)
C1A C 1.1848(10) 0.2685(5) 0.3332(4)
H1A H 1.1225 0.3060 0.3284
H2A H 1.2490 0.2927 0.3205
H3A H 1.1977 0.2642 0.3613
C2A C 1.1627(8) 0.1814(5) 0.3172(3)
C3A C 1.1744(7) 0.0429(5) 0.3068(3)
C4A C 1.2106(7) -0.0463(5) 0.3062(3)
C5A C 1.3116(7) -0.0755(6) 0.2988(3)
H4A H 1.3729 -0.0390 0.2958
C6A C 1.3158(7) -0.1666(5) 0.2960(3)
H5A H 1.3804 -0.1981 0.2914
C7A C 1.2175(7) -0.2039(5) 0.3005(3)
C8A C 1.1858(7) -0.2942(5) 0.2955(3)
C9A C 1.1828(7) -0.4338(5) 0.3023(3)
C10A C 1.2048(8) -0.5219(5) 0.3165(3)
H6A H 1.1639 -0.5635 0.3009
H7A H 1.1828 -0.5265 0.3439
H8A H 1.2823 -0.5341 0.3143
C11A C 1.2978(7) 0.0981(5) 0.3582(2)
C12A C 1.3991(7) 0.1373(6) 0.3564(3)
H9A H 1.4191 0.1715 0.3346
C13A C 1.4705(7) 0.1250(7) 0.3875(3)
H10A H 1.5387 0.1533 0.3875
C14A C 1.4421(8) 0.0713(6) 0.4185(3)
H11A H 1.4927 0.0609 0.4388
C15A C 1.3388(8) 0.0321(5) 0.4199(2)
C16A C 1.2693(7) 0.0464(4) 0.3891(2)
H12A H 1.2000 0.0199 0.3893
C17A C 1.3079(8) -0.0275(5) 0.4509(2)
C18A C 1.3025(7) -0.3537(5) 0.3488(2)
C19A C 1.4062(7) -0.3878(5) 0.3468(3)
H13A H 1.4318 -0.4145 0.3236
C20A C 1.4708(8) -0.3818(6) 0.3792(3)
H14A H 1.5409 -0.4069 0.3787
C21A C 1.4366(7) -0.3402(6) 0.4129(3)
H15A H 1.4834 -0.3352 0.4347
C22A C 1.3324(7) -0.3057(5) 0.4141(3)
C23A C 1.2653(8) -0.3123(5) 0.3815(2)
H16A H 1.1945 -0.2884 0.3819
C24A C 1.2978(8) -0.2535(7) 0.4482(2)
N1A N 1.2205(6) 0.1089(4) 0.3270(2)
N2A N 1.0867(6) 0.1619(4) 0.2922(2)
N3A N 1.0917(6) 0.0730(4) 0.2860(2)
N4A N 1.2315(5) -0.3617(4) 0.31557(18)
N5A N 1.1100(6) -0.3230(4) 0.27179(19)
N6A N 1.1088(6) -0.4125(4) 0.2757(2)
O1A O 1.3812(5) -0.0551(4) 0.47421(19)
O2A O 1.2098(5) -0.0529(4) 0.4521(2)
O3A O 1.3667(5) -0.2327(4) 0.47363(18)
O4A O 1.1988(6) -0.2301(4) 0.44889(19)
O5A O 1.5137(5) -0.1410(5) 0.5358(2)
Cu1F Cu 1.15009(8) -0.14226(6) 0.48631(3)
Cu1G Cu 0.84991(8) 0.64226(6) 0.48631(3)
Cu2B Cu 1.0000 -0.2500 0.23998(4)
Cu2B_2 Cu 1.0000 0.7500 0.23998(4)
Cu3_2 Cu 1.00531(12) -0.5000 0.2500
Cu3A Cu 0.99469(12) 0.0000 0.2500
Cu3A_2 Cu 0.99469(12) 1.0000 0.2500
N3B N 0.9083(6) 0.5730(4) 0.2140(2)
N5B N 0.8900(6) 0.1770(4) 0.22821(19)
N5C N 1.1100(6) 0.3230(4) 0.22821(19)
N6A_2 N 1.1088(6) 0.5875(4) 0.2757(2)
N6C N 1.1088(6) 0.4125(4) 0.2243(2)
O2F O 1.2902(5) -0.0529(4) 0.5479(2)
O2G O 0.7098(5) 0.5529(4) 0.5479(2)
O4F O 1.3012(6) -0.2301(4) 0.55111(19)
O4G O 0.6988(6) 0.7301(4) 0.55111(19)
Cl1 Cl 0.5668(3) 1.0000 0.2500
loop_
_geom_bond_atom_site_label_1
_geom_bond_atom_site_label_2
_geom_bond_site_symmetry_1
_geom_bond_site_symmetry_2
Cu1 O1 1_555 1_555
Cu2 N2 1_555 1_555
Cu3 N3 1_555 1_555
S1 C4 1_555 1_555
C1 H1 1_555 1_555
H2 C1 1_555 1_555
H3 C1 1_555 1_555
C2 C1 1_555 1_555
C3 C4 1_555 1_555
C4 C5 1_555 1_555
C5 H4 1_555 1_555
C6 C5 1_555 1_555
H5 C6 1_555 1_555
C7 S1 1_555 1_555
C8 C7 1_555 1_555
C9 C10 1_555 1_555
C10 H6 1_555 1_555
H7 C10 1_555 1_555
H8 C10 1_555 1_555
C11 C12 1_555 1_555
C12 H9 1_555 1_555
C13 C12 1_555 1_555
H10 C13 1_555 1_555
C14 C13 1_555 1_555
H11 C14 1_555 1_555
C15 C14 1_555 1_555
C16 C11 1_555 1_555
H12 C16 1_555 1_555
C17 C15 1_555 1_555
C18 C19 1_555 1_555
C19 H13 1_555 1_555
C20 C19 1_555 1_555
H14 C20 1_555 1_555
C21 C20 1_555 1_555
H15 C21 1_555 1_555
C22 C21 1_555 1_555
C23 C18 1_555 1_555
H16 C23 1_555 1_555
C24 C22 1_555 1_555
N1 C2 1_555 1_555
N2 C2 1_555 1_555
N3 C3 1_555 1_555
N4 C8 1_555 1_555
N5 C8 1_555 1_555
N6 C9 1_555 1_555
O1 C17 1_555 1_555
O2 C17 1_555 1_555
O3 Cu1 1_555 1_555
O4 C24 1_555 1_555
O5 Cu1 1_555 1_555
Cu1A O1A 1_555 1_555
S1A C4A 1_555 1_555
C1A H1A 1_555 1_555
H2A C1A 1_555 1_555
H3A C1A 1_555 1_555
C2A C1A 1_555 1_555
C3A C4A 1_555 1_555
C4A C5A 1_555 1_555
C5A H4A 1_555 1_555
C6A C5A 1_555 1_555
H5A C6A 1_555 1_555
C7A S1A 1_555 1_555
C8A C7A 1_555 1_555
C9A C10A 1_555 1_555
C10A H6A 1_555 1_555
H7A C10A 1_555 1_555
H8A C10A 1_555 1_555
C11A C12A 1_555 1_555
C12A H9A 1_555 1_555
C13A C12A 1_555 1_555
H10A C13A 1_555 1_555
C14A C13A 1_555 1_555
H11A C14A 1_555 1_555
C15A C14A 1_555 1_555
C16A C11A 1_555 1_555
H12A C16A 1_555 1_555
C17A C15A 1_555 1_555
C18A C19A 1_555 1_555
C19A H13A 1_555 1_555
C20A C19A 1_555 1_555
H14A C20A 1_555 1_555
C21A C20A 1_555 1_555
H15A C21A 1_555 1_555
C22A C21A 1_555 1_555
C23A C18A 1_555 1_555
H16A C23A 1_555 1_555
C24A C22A 1_555 1_555
N1A C2A 1_555 1_555
N2A Cu2 1_555 1_555
N3A C3A 1_555 1_555
N4A C8A 1_555 1_555
N5A C8A 1_555 1_555
N6A C9A 1_555 1_555
O1A C17A 1_555 1_555
O2A C17A 1_555 1_555
O3A Cu1A 1_555 1_555
O4A C24A 1_555 1_555
O5A Cu1A 1_555 1_555
Cu1F O2A 1_555 1_555
Cu1G O2 1_555 1_555
Cu2B N5A 1_555 1_555
Cu2B_2 N5 1_555 1_555
Cu3_2 N6A 1_555 1_555
Cu3A N3A 1_555 1_555
Cu3A_2 N6 1_555 1_555
N3B Cu3 1_555 1_555
N5B Cu2 1_555 1_555
N5C Cu2 1_555 1_555
N6A_2 Cu3 1_555 1_555
N6C Cu3 1_555 1_555
O2F Cu1A 1_555 1_555
O2G Cu1 1_555 1_555
O4F Cu1A 1_555 1_555
O4G Cu1 1_555 1_555
C3 N1 1_555 1_555
C6 C7 1_555 1_555
C9 N4 1_555 1_555
C11 N1 1_555 1_555
C15 C16 1_555 1_555
C18 N4 1_555 1_555
C22 C23 1_555 1_555
C24 O3 1_555 1_555
N2 N3 1_555 1_555
N5 N6 1_555 1_555
O4 Cu1G 1_555 1_555
C2A N2A 1_555 1_555
C3A N1A 1_555 1_555
C6A C7A 1_555 1_555
C9A N4A 1_555 1_555
C11A N1A 1_555 1_555
C15A C16A 1_555 1_555
C18A N4A 1_555 1_555
C22A C23A 1_555 1_555
C24A O3A 1_555 1_555
N2A N3A 1_555 1_555
N5A N6A 1_555 1_555
O4A Cu1F 1_555 1_555
N5C N6C 1_555 1_555

#END
