
#######################################################################
#
#                 Cambridge Crystallographic Data Centre
#                                CCDC 
#
#######################################################################
#
# If this CIF has been generated from an entry in the Cambridge 
# Structural Database, then it will include bibliographic, chemical, 
# crystal, experimental, refinement or atomic coordinate data resulting 
# from the CCDC's data processing and validation procedures.
#
#######################################################################

data_DEPJIR
_chemical_formula_moiety         '(C8 H16 N4 O12 Zn2)n'
_symmetry_cell_setting           orthorhombic
_symmetry_space_group_name_H-M   'P n n 2'
_symmetry_Int_Tables_number      34
_space_group_name_Hall           'P 2 -2n'
loop_
_symmetry_equiv_pos_site_id
_symmetry_equiv_pos_as_xyz
1 x,y,z
2 1/2-x,1/2+y,1/2+z
3 1/2+x,1/2-y,1/2+z
4 -x,-y,z
_cell_length_a                   11.617(10)
_cell_length_b                   8.717(3)
_cell_length_c                   8.289(2)
_cell_angle_alpha                90
_cell_angle_beta                 90
_cell_angle_gamma                90
_cell_volume                     839.389
loop_
_atom_site_label
_atom_site_type_symbol
_atom_site_fract_x
_atom_site_fract_y
_atom_site_fract_z
Zn1 Zn 0.25010(7) 0.98543(3) 0.0000
O1 O 0.3130(2) 1.1647(3) -0.1393(3)
O2 O 0.3235(2) 0.8334(3) -0.1564(4)
O3 O 0.4052(2) 0.9848(3) 0.1373(3)
O4 O 0.0946(2) 0.9909(3) -0.1296(3)
N1 N 0.3234(3) 1.3343(3) -0.3333(4)
N2 N 0.3207(3) 0.6608(4) -0.3512(4)
C1 C 0.2825(3) 1.2177(4) -0.2667(4)
C2 C 0.2769(4) 0.7220(5) -0.2213(4)
C3 C 0.50000 1.00000 0.0567(4)
C4 C -0.00000 1.00000 -0.0743(5)
H1 H 0.2207 1.1660 -0.3339
H2 H 0.2227 0.6660 -0.1680
H3 H 0.500 1.000 -0.0839
H4 H 0.000 1.000 0.0820
O3C O 0.5948(2) 1.0152(3) 0.1373(3)
O4C O -0.0946(2) 1.0091(3) -0.1296(3)
O1A O 0.1870(2) 0.6647(3) 0.3607(3)
N1A N 0.1766(3) 0.8343(3) 0.1667(4)
C1A C 0.2175(3) 0.7177(4) 0.2333(4)
H1A H 0.2793 0.6660 0.1661
O2A O 0.1765(2) 1.3334(3) 0.3436(4)
N2A N 0.1793(3) 1.1608(4) 0.1488(4)
C2A C 0.2231(4) 1.2220(5) 0.2787(4)
H2A H 0.2773 1.1660 0.3320
Zn1A Zn 0.24990(7) 0.48543(3) 0.5000
Zn1A_2 Zn 0.24990(7) 1.48543(3) -0.5000
Zn1A_3 Zn 0.24990(7) 0.48543(3) -0.5000
Zn1C Zn 0.74990(7) 1.01457(3) 0.0000
Zn1C_2 Zn -0.25010(7) 1.01457(3) 0.0000
Zn1A_4 Zn 0.24990(7) 1.48543(3) 0.5000
O2A_2 O 0.1765(2) 0.3334(3) 0.3436(4)
O3A O 0.0948(2) 0.4848(3) 0.6373(3)
O4A O 0.4054(2) 0.4909(3) 0.3704(3)
N1_2 N 0.3234(3) 0.3343(3) 0.6667(4)
N2_2 N 0.3207(3) 0.6608(4) 0.6488(4)
O5 O 0.0623(5) 0.4060(9) -0.0154(5)
C5 C -0.00000 0.50000 0.0395(7)
H5 H -0.000 0.500 0.1660
O5C O -0.0623(5) 0.5940(9) -0.0154(5)
O6 O 0.4351(3) 0.3986(4) 0.0341(3)
C6 C 0.50000 0.50000 -0.0518(6)
H6 H 0.500 0.500 -0.1680
O6C O 0.5649(3) 0.6014(4) 0.0341(3)
loop_
_geom_bond_atom_site_label_1
_geom_bond_atom_site_label_2
_geom_bond_site_symmetry_1
_geom_bond_site_symmetry_2
Zn1 O1 1_555 1_555
O1 C1 1_555 1_555
O2 Zn1 1_555 1_555
O3 Zn1 1_555 1_555
O4 Zn1 1_555 1_555
N1 C1 1_555 1_555
N2 C2 1_555 1_555
C1 H1 1_555 1_555
C2 O2 1_555 1_555
C3 O3 1_555 1_555
C4 O4 1_555 1_555
H2 C2 1_555 1_555
H3 C3 1_555 1_555
H4 C4 1_555 1_555
O5 C5 1_555 1_555
C5 H5 1_555 1_555
O6 C6 1_555 1_555
C6 H6 1_555 1_555
O3C C3 1_555 1_555
O4C C4 1_555 1_555
O1A C1A 1_555 1_555
N1A Zn1 1_555 1_555
C1A N1A 1_555 1_555
H1A C1A 1_555 1_555
O2A C2A 1_555 1_555
N2A Zn1 1_555 1_555
C2A N2A 1_555 1_555
H2A C2A 1_555 1_555
Zn1A O1A 1_555 1_555
Zn1A_2 N1 1_555 1_555
Zn1A_3 N2 1_555 1_555
Zn1C O3C 1_555 1_555
Zn1C_2 O4C 1_555 1_555
Zn1A_4 O2A 1_555 1_555
O2A_2 Zn1A 1_555 1_555
O3A Zn1A 1_555 1_555
O4A Zn1A 1_555 1_555
N1_2 Zn1A 1_555 1_555
N2_2 Zn1A 1_555 1_555
O5C C5 1_555 1_555
O6C C6 1_555 1_555

#END
