
#######################################################################
#
#                 Cambridge Crystallographic Data Centre
#                                CCDC 
#
#######################################################################
#
# If this CIF has been generated from an entry in the Cambridge 
# Structural Database, then it will include bibliographic, chemical, 
# crystal, experimental, refinement or atomic coordinate data resulting 
# from the CCDC's data processing and validation procedures.
#
#######################################################################

data_XIGHIF
_chemical_formula_moiety         '(C105 H78 Cl2 I12 N26 O5 Zn6)n'
_symmetry_cell_setting           monoclinic
_symmetry_space_group_name_H-M   'C 2/c'
_symmetry_Int_Tables_number      15
_space_group_name_Hall           '-C 2yc'
loop_
_symmetry_equiv_pos_site_id
_symmetry_equiv_pos_as_xyz
1 x,y,z
2 1/2+x,1/2+y,z
3 -x,y,1/2-z
4 1/2-x,1/2+y,1/2-z
5 -x,-y,-z
6 1/2-x,1/2-y,-z
7 x,-y,1/2+z
8 1/2+x,1/2-y,1/2+z
_cell_length_a                   35.960(7)
_cell_length_b                   14.845(3)
_cell_length_c                   30.800(6)
_cell_angle_alpha                90
_cell_angle_beta                 102.94(3)
_cell_angle_gamma                90
_cell_volume                     16024.3
loop_
_atom_site_label
_atom_site_type_symbol
_atom_site_fract_x
_atom_site_fract_y
_atom_site_fract_z
C37 C 0.2662(2) 0.5351(9) 0.5435(3)
C38 C 0.3044(3) 0.5312(9) 0.5371(3)
C39 C 0.3184(3) 0.4484(10) 0.5290(5)
H25 H 0.3442 0.4435 0.5263
C40 C 0.2967(4) 0.3746(10) 0.5250(5)
H26 H 0.3070 0.3185 0.5187
C41 C 0.2593(4) 0.3784(12) 0.5298(7)
H27 H 0.2437 0.3261 0.5264
C42 C 0.2457(4) 0.4614(10) 0.5396(6)
H28 H 0.2203 0.4650 0.5437
C43 C 0.2505(2) 0.6190(8) 0.5517(3)
H29 H 0.2248 0.6198 0.5547
C44 C 0.2517(2) 0.7741(8) 0.5638(3)
C45 C 0.2143(3) 0.7847(10) 0.5710(5)
H30 H 0.1986 0.7331 0.5703
C46 C 0.2004(3) 0.8667(9) 0.5790(5)
H31 H 0.1751 0.8722 0.5832
C47 C 0.2227(3) 0.9402(8) 0.5808(3)
C48 C 0.2590(3) 0.9329(8) 0.5736(4)
H32 H 0.2744 0.9851 0.5744
C49 C 0.2721(2) 0.8548(9) 0.5657(3)
H33 H 0.2972 0.8522 0.5608
Cl1 Cl 0.20465(7) 1.0452(2) 0.59128(9)
N13 N 0.26806(19) 0.6927(7) 0.5553(3)
O1 O 0.3259(2) 0.6030(7) 0.5404(4)
C50 C 0.5189(3) 0.5633(10) 0.3517(4)
C51 C 0.5134(3) 0.6379(9) 0.3768(5)
C52 C 0.5392(5) 0.6566(8) 0.4166(5)
H34 H 0.5354 0.7075 0.4338
C53 C 0.5705(4) 0.6007(11) 0.4313(4)
H35 H 0.5882 0.6135 0.4585
C54 C 0.5760(3) 0.5262(10) 0.4062(5)
H36 H 0.5974 0.4880 0.4162
C55 C 0.5502(4) 0.5075(9) 0.3664(5)
H37 H 0.5540 0.4565 0.3492
C56 C 0.4908(6) 0.5393(17) 0.3128(8)
H38 H 0.4965 0.4872 0.2977
C57 C 0.4314(3) 0.5453(10) 0.2587(4)
C58 C 0.4197(3) 0.4558(9) 0.2547(4)
H39 H 0.4328 0.4120 0.2749
C59 C 0.3889(4) 0.4305(7) 0.2210(4)
H40 H 0.3809 0.3693 0.2183
C60 C 0.3697(3) 0.4945(6) 0.1913(3)
C61 C 0.3814(4) 0.5840(7) 0.1953(4)
H41 H 0.3684 0.6278 0.1750
C62 C 0.4123(4) 0.6094(8) 0.2290(4)
H42 H 0.4203 0.6705 0.2317
Cl2 Cl 0.33217(16) 0.4680(4) 0.15286(17)
N14 N 0.4606(6) 0.5752(15) 0.2961(8)
O2 O 0.4867(5) 0.6868(17) 0.3627(8)
C63 C 0.5000 0.8150(16) 0.7500
C64 C 0.4663(8) 0.788(3) 0.7160(10)
O3 O 0.5218(9) 0.890(2) 0.7316(10)
C64B C 0.5337(8) 0.788(3) 0.7840(10)
O3B O 0.4782(9) 0.890(2) 0.7684(10)
C67 C 0.3826(7) 0.1476(17) 0.6175(8)
C68 C 0.4105(9) 0.113(2) 0.5890(12)
C69 C 0.4040(11) 0.144(3) 0.6674(9)
C70 C 0.3713(11) 0.2464(16) 0.6046(16)
O4 O 0.3470(7) 0.0881(17) 0.6105(9)
I1 I 0.105759(13) 0.26403(3) 0.102817(17)
I2 I 0.266680(13) 1.23432(3) 0.202361(19)
I3 I 0.375245(15) 1.16530(3) 0.299549(18)
I4 I 0.140310(12) 0.41338(4) -0.007868(16)
I5 I 0.379227(17) 0.26775(3) 0.447086(17)
I6 I 0.472399(15) 0.34049(4) 0.375899(17)
Zn1 Zn 0.41472(2) 0.37565(4) 0.40708(2)
Zn2 Zn 0.32685(2) 1.14146(4) 0.22638(3)
Zn3 Zn 0.119992(17) 0.40812(4) 0.06572(2)
C1 C 0.16911(19) 0.5590(4) 0.1062(2)
H1 H 0.1518 0.5917 0.0840
C2 C 0.19918(19) 0.6052(4) 0.1324(2)
H2 H 0.2026 0.6677 0.1280
C3 C 0.22399(14) 0.5587(4) 0.16495(19)
C4 C 0.21751(18) 0.4681(4) 0.1701(2)
H3 H 0.2341 0.4341 0.1925
C5 C 0.18662(16) 0.4275(4) 0.1424(2)
H4 H 0.1821 0.3654 0.1465
C6 C 0.25628(15) 0.6031(3) 0.19556(19)
C7 C 0.29212(15) 0.7238(3) 0.21909(19)
C8 C 0.30678(15) 0.5915(4) 0.25285(18)
C9 C 0.29973(15) 0.8218(3) 0.2185(2)
C10 C 0.33201(19) 0.8566(4) 0.2467(3)
H5 H 0.3499 0.8179 0.2652
C11 C 0.33779(18) 0.9489(4) 0.2475(2)
H6 H 0.3599 0.9724 0.2671
C12 C 0.28274(16) 0.9720(4) 0.1956(2)
H7 H 0.2652 1.0125 0.1779
C13 C 0.27482(16) 0.8812(4) 0.1923(2)
H8 H 0.2525 0.8597 0.1724
C14 C 0.33120(15) 0.5374(4) 0.2891(2)
C15 C 0.32351(16) 0.4482(4) 0.2957(2)
H9 H 0.3025 0.4187 0.2769
C16 C 0.34716(16) 0.4024(4) 0.33040(19)
H10 H 0.3418 0.3411 0.3354
C17 C 0.38467(19) 0.5268(4) 0.3489(2)
H11 H 0.4067 0.5541 0.3670
C18 C 0.3625(2) 0.5767(4) 0.3163(2)
H12 H 0.3684 0.6381 0.3124
C19 C 0.45970(16) 0.5306(4) 0.4560(2)
H13 H 0.4792 0.5099 0.4422
C20 C 0.46621(16) 0.6072(4) 0.48216(19)
H14 H 0.4895 0.6395 0.4854
C21 C 0.43832(15) 0.6361(3) 0.50365(19)
C22 C 0.40449(17) 0.5876(4) 0.4972(2)
H15 H 0.3848 0.6056 0.5114
C23 C 0.39994(18) 0.5133(4) 0.4701(2)
H16 H 0.3767 0.4808 0.4656
C24 C 0.44442(14) 0.7161(3) 0.53260(19)
C25 C 0.47789(15) 0.8399(4) 0.55753(19)
C26 C 0.42972(16) 0.7965(4) 0.5879(2)
C27 C 0.51088(16) 0.8992(4) 0.55788(19)
C28 C 0.52991(17) 0.8989(4) 0.5240(2)
H17 H 0.5217 0.8611 0.4988
C29 C 0.56106(17) 0.9542(4) 0.5273(2)
H18 H 0.5742 0.9530 0.5037
C30 C 0.5552(3) 1.0097(7) 0.5932(3)
H19 H 0.5636 1.0496 0.6176
C31 C 0.5239(3) 0.9555(8) 0.5933(3)
H20 H 0.5116 0.9572 0.6176
C32 C 0.40451(16) 0.8122(4) 0.6195(2)
C33 C 0.3735(2) 0.7600(5) 0.6197(3)
H21 H 0.3676 0.7112 0.5994
C34 C 0.3509(2) 0.7765(5) 0.6483(3)
H22 H 0.3295 0.7386 0.6474
C35 C 0.3859(3) 0.8960(7) 0.6749(4)
H23 H 0.3898 0.9476 0.6936
C36 C 0.4105(3) 0.8832(7) 0.6476(4)
H24 H 0.4313 0.9232 0.6483
N1 N 0.16292(12) 0.4721(3) 0.11018(16)
N2 N 0.27701(12) 0.5513(3) 0.22743(15)
N3 N 0.31574(12) 0.6769(3) 0.25028(17)
N4 N 0.26247(13) 0.6906(3) 0.18973(16)
N5 N 0.37711(14) 0.4416(3) 0.35694(17)
N6 N 0.31405(13) 1.0057(3) 0.22254(17)
N7 N 0.35733(15) 0.8430(3) 0.6775(2)
N8 N 0.47176(12) 0.7739(3) 0.52768(15)
N9 N 0.45740(14) 0.8552(3) 0.58808(17)
N10 N 0.42242(13) 0.7245(3) 0.56217(16)
N11 N 0.42699(13) 0.4846(3) 0.44945(17)
N12 N 0.57389(13) 1.0089(3) 0.56098(17)
I1G I 0.605759(13) 1.23597(3) 0.602817(17)
I2F I 0.266680(13) 0.76568(3) 0.702361(19)
I3F I 0.375245(15) 0.83470(3) 0.799549(18)
I4G I 0.640310(12) 1.08662(4) 0.492132(16)
I5F I 0.379227(17) 1.73225(3) 0.947086(17)
I6F I 0.472399(15) 1.65951(4) 0.875899(17)
Zn1F Zn 0.41472(2) 1.62435(4) 0.90708(2)
Zn1F_2 Zn 0.41472(2) 1.62435(4) -0.09292(2)
Zn2F Zn 0.32685(2) 0.85854(4) 0.72638(3)
Zn3G Zn 0.619992(17) 1.09188(4) 0.56572(2)
Zn3A Zn 0.619992(17) 0.90812(4) 0.06572(2)
Zn3F Zn 0.119992(17) 1.59188(4) 0.56572(2)
C1F C 0.16911(19) 1.4410(4) 0.6062(2)
H1F H 0.1518 1.4083 0.5840
C2F C 0.19918(19) 1.3948(4) 0.6324(2)
H2F H 0.2026 1.3323 0.6280
C3F C 0.22399(14) 1.4413(4) 0.66495(19)
C4F C 0.21751(18) 1.5319(4) 0.6701(2)
H3F H 0.2341 1.5659 0.6925
C5F C 0.18662(16) 1.5725(4) 0.6424(2)
H4F H 0.1821 1.6346 0.6465
C6F C 0.25628(15) 1.3969(3) 0.69556(19)
C7F C 0.29212(15) 1.2762(3) 0.71909(19)
C8F C 0.30678(15) 1.4085(4) 0.75285(18)
C9F C 0.29973(15) 1.1782(3) 0.7185(2)
C10F C 0.33201(19) 1.1434(4) 0.7467(3)
H5F H 0.3499 1.1821 0.7652
C11F C 0.33779(18) 1.0511(4) 0.7475(2)
H6F H 0.3599 1.0276 0.7671
C12F C 0.28274(16) 1.0280(4) 0.6956(2)
H7F H 0.2652 0.9875 0.6779
C13F C 0.27482(16) 1.1188(4) 0.6923(2)
H8F H 0.2525 1.1403 0.6724
C14F C 0.33120(15) 1.4626(4) 0.7891(2)
C15F C 0.32351(16) 1.5518(4) 0.7957(2)
H9F H 0.3025 1.5813 0.7769
C16F C 0.34716(16) 1.5976(4) 0.83040(19)
H10F H 0.3418 1.6589 0.8354
C17F C 0.38467(19) 1.4732(4) 0.8489(2)
H11F H 0.4067 1.4459 0.8670
C18F C 0.3625(2) 1.4233(4) 0.8163(2)
H12F H 0.3684 1.3619 0.8124
C19F C 0.45970(16) 1.4694(4) -0.0440(2)
H13F H 0.4792 1.4901 -0.0578
C20F C 0.46621(16) 1.3928(4) -0.01784(19)
H14F H 0.4895 1.3605 -0.0146
C21F C 0.43832(15) 1.3639(3) 0.00365(19)
C22F C 0.40449(17) 1.4124(4) -0.0028(2)
H15F H 0.3848 1.3944 0.0114
C23F C 0.39994(18) 1.4867(4) -0.0299(2)
H16F H 0.3767 1.5192 -0.0344
C24F C 0.44442(14) 1.2839(3) 0.03260(19)
C25F C 0.47789(15) 1.1601(4) 0.05753(19)
C26F C 0.42972(16) 1.2035(4) 0.0879(2)
C27F C 0.51088(16) 1.1008(4) 0.05788(19)
C28F C 0.52991(17) 1.1011(4) 0.0240(2)
H17F H 0.5217 1.1389 -0.0012
C29F C 0.56106(17) 1.0458(4) 0.0273(2)
H18F H 0.5742 1.0470 0.0037
C30F C 0.5552(3) 0.9903(7) 0.0932(3)
H19F H 0.5636 0.9504 0.1176
C31F C 0.5239(3) 1.0445(8) 0.0933(3)
H20F H 0.5116 1.0428 0.1176
C32F C 0.40451(16) 1.1878(4) 0.1195(2)
C33F C 0.3735(2) 1.2400(5) 0.1197(3)
H21F H 0.3676 1.2888 0.0994
C34F C 0.3509(2) 1.2235(5) 0.1483(3)
H22F H 0.3295 1.2614 0.1474
C35F C 0.3859(3) 1.1040(7) 0.1749(4)
H23F H 0.3898 1.0524 0.1936
C36F C 0.4105(3) 1.1168(7) 0.1476(4)
H24F H 0.4313 1.0768 0.1483
N1F N 0.16292(12) 1.5279(3) 0.61018(16)
N1G N 0.66292(12) 1.0279(3) 0.61018(16)
N2F N 0.27701(12) 1.4487(3) 0.72743(15)
N3F N 0.31574(12) 1.3231(3) 0.75028(17)
N4F N 0.26247(13) 1.3094(3) 0.68973(16)
N5F N 0.37711(14) 1.5584(3) 0.85694(17)
N6F N 0.31405(13) 0.9943(3) 0.72254(17)
N7F N 0.35733(15) 1.1570(3) 0.1775(2)
N8F N 0.47176(12) 1.2261(3) 0.02768(15)
N9F N 0.45740(14) 1.1448(3) 0.08808(17)
N10F N 0.42242(13) 1.2755(3) 0.06217(16)
N11F N 0.42699(13) 1.5154(3) -0.05055(17)
N11F_2 N 0.42699(13) 1.5154(3) 0.94945(17)
N12F N 0.57389(13) 0.9911(3) 0.06098(17)
N12G N 0.07389(13) 0.4911(3) 0.06098(17)
loop_
_geom_bond_atom_site_label_1
_geom_bond_atom_site_label_2
_geom_bond_site_symmetry_1
_geom_bond_site_symmetry_2
I1 Zn3 1_555 1_555
I2 Zn2 1_555 1_555
I3 Zn2 1_555 1_555
I4 Zn3 1_555 1_555
I5 Zn1 1_555 1_555
I6 Zn1 1_555 1_555
Zn1 N5 1_555 1_555
Zn2 N6 1_555 1_555
Zn3 N1 1_555 1_555
C1 H1 1_555 1_555
C2 C1 1_555 1_555
H2 C2 1_555 1_555
C3 C2 1_555 1_555
C4 C3 1_555 1_555
H3 C4 1_555 1_555
C5 C4 1_555 1_555
H4 C5 1_555 1_555
C6 C3 1_555 1_555
C7 C9 1_555 1_555
C8 C14 1_555 1_555
C9 C10 1_555 1_555
C10 H5 1_555 1_555
C11 C10 1_555 1_555
H6 C11 1_555 1_555
C12 H7 1_555 1_555
C13 C9 1_555 1_555
H8 C13 1_555 1_555
C14 C15 1_555 1_555
C15 H9 1_555 1_555
C16 C15 1_555 1_555
H10 C16 1_555 1_555
C17 H11 1_555 1_555
C18 C14 1_555 1_555
H12 C18 1_555 1_555
C19 H13 1_555 1_555
C20 C19 1_555 1_555
H14 C20 1_555 1_555
C21 C20 1_555 1_555
C22 C21 1_555 1_555
H15 C22 1_555 1_555
C23 C22 1_555 1_555
H16 C23 1_555 1_555
C24 C21 1_555 1_555
C25 C27 1_555 1_555
C26 C32 1_555 1_555
C27 C28 1_555 1_555
C28 H17 1_555 1_555
C29 C28 1_555 1_555
H18 C29 1_555 1_555
C30 H19 1_555 1_555
C31 C27 1_555 1_555
H20 C31 1_555 1_555
C32 C33 1_555 1_555
C33 H21 1_555 1_555
C34 C33 1_555 1_555
H22 C34 1_555 1_555
C35 H23 1_555 1_555
C36 C32 1_555 1_555
H24 C36 1_555 1_555
N1 C1 1_555 1_555
N2 C6 1_555 1_555
N3 C7 1_555 1_555
N4 C6 1_555 1_555
N5 C16 1_555 1_555
N6 C11 1_555 1_555
N7 C34 1_555 1_555
N8 C24 1_555 1_555
N9 C25 1_555 1_555
N10 C24 1_555 1_555
N11 Zn1 1_555 1_555
N12 C29 1_555 1_555
C37 C38 1_555 1_555
C38 C39 1_555 1_555
C39 H25 1_555 1_555
C40 C39 1_555 1_555
H26 C40 1_555 1_555
C41 C40 1_555 1_555
H27 C41 1_555 1_555
C42 C37 1_555 1_555
H28 C42 1_555 1_555
C43 C37 1_555 1_555
H29 C43 1_555 1_555
C44 C45 1_555 1_555
C45 H30 1_555 1_555
C46 C45 1_555 1_555
H31 C46 1_555 1_555
C47 C46 1_555 1_555
C48 C47 1_555 1_555
H32 C48 1_555 1_555
C49 C44 1_555 1_555
H33 C49 1_555 1_555
Cl1 C47 1_555 1_555
N13 C43 1_555 1_555
O1 C38 1_555 1_555
C50 C51 1_555 1_555
C51 C52 1_555 1_555
C52 H34 1_555 1_555
C53 C52 1_555 1_555
H35 C53 1_555 1_555
C54 C53 1_555 1_555
H36 C54 1_555 1_555
C55 C50 1_555 1_555
H37 C55 1_555 1_555
C56 C50 1_555 1_555
H38 C56 1_555 1_555
C57 C58 1_555 1_555
C58 H39 1_555 1_555
C59 C58 1_555 1_555
H40 C59 1_555 1_555
C60 C59 1_555 1_555
C61 C60 1_555 1_555
H41 C61 1_555 1_555
C62 C57 1_555 1_555
H42 C62 1_555 1_555
Cl2 C60 1_555 1_555
N14 C56 1_555 1_555
O2 C51 1_555 1_555
C63 C64 1_555 1_555
O3 C63 1_555 1_555
C67 C68 1_555 1_555
C69 C67 1_555 1_555
C70 C67 1_555 1_555
O4 C67 1_555 1_555
I1G Zn3G 1_555 1_555
I2F Zn2F 1_555 1_555
I3F Zn2F 1_555 1_555
I4G Zn3G 1_555 1_555
I5F Zn1F 1_555 1_555
I6F Zn1F 1_555 1_555
Zn1F N5F 1_555 1_555
Zn1F_2 N11F 1_555 1_555
Zn2F N7 1_555 1_555
Zn3G N12 1_555 1_555
Zn3A N12F 1_555 1_555
Zn3F N1F 1_555 1_555
C1F H1F 1_555 1_555
C2F C1F 1_555 1_555
H2F C2F 1_555 1_555
C3F C2F 1_555 1_555
C4F C3F 1_555 1_555
H3F C4F 1_555 1_555
C5F C4F 1_555 1_555
H4F C5F 1_555 1_555
C6F C3F 1_555 1_555
C7F C9F 1_555 1_555
C8F C14F 1_555 1_555
C9F C10F 1_555 1_555
C10F H5F 1_555 1_555
C11F C10F 1_555 1_555
H6F C11F 1_555 1_555
C12F H7F 1_555 1_555
C13F C9F 1_555 1_555
H8F C13F 1_555 1_555
C14F C15F 1_555 1_555
C15F H9F 1_555 1_555
C16F C15F 1_555 1_555
H10F C16F 1_555 1_555
C17F H11F 1_555 1_555
C18F C14F 1_555 1_555
H12F C18F 1_555 1_555
C19F H13F 1_555 1_555
C20F C19F 1_555 1_555
H14F C20F 1_555 1_555
C21F C20F 1_555 1_555
C22F C21F 1_555 1_555
H15F C22F 1_555 1_555
C23F C22F 1_555 1_555
H16F C23F 1_555 1_555
C24F C21F 1_555 1_555
C25F C27F 1_555 1_555
C26F C32F 1_555 1_555
C27F C28F 1_555 1_555
C28F H17F 1_555 1_555
C29F C28F 1_555 1_555
H18F C29F 1_555 1_555
C30F H19F 1_555 1_555
C31F C27F 1_555 1_555
H20F C31F 1_555 1_555
C32F C33F 1_555 1_555
C33F H21F 1_555 1_555
C34F C33F 1_555 1_555
H22F C34F 1_555 1_555
C35F H23F 1_555 1_555
C36F C32F 1_555 1_555
H24F C36F 1_555 1_555
N1F C1F 1_555 1_555
N1G Zn3G 1_555 1_555
N2F C6F 1_555 1_555
N3F C7F 1_555 1_555
N4F C6F 1_555 1_555
N5F C16F 1_555 1_555
N6F Zn2F 1_555 1_555
N7F Zn2 1_555 1_555
N8F C24F 1_555 1_555
N9F C25F 1_555 1_555
N10F C24F 1_555 1_555
N11F C19F 1_555 1_555
N11F_2 Zn1F 1_555 1_555
N12F C29F 1_555 1_555
N12G Zn3 1_555 1_555
C64B C63 1_555 1_555
O3B C63 1_555 1_555
C5 N1 1_555 1_555
C7 N4 1_555 1_555
C8 N2 1_555 1_555
C8 N3 1_555 1_555
C12 C13 1_555 1_555
C12 N6 1_555 1_555
C17 C18 1_555 1_555
C17 N5 1_555 1_555
C19 N11 1_555 1_555
C23 N11 1_555 1_555
C25 N8 1_555 1_555
C26 N9 1_555 1_555
C26 N10 1_555 1_555
C30 C31 1_555 1_555
C30 N12 1_555 1_555
C35 C36 1_555 1_555
C35 N7 1_555 1_555
C41 C42 1_555 1_555
C44 N13 1_555 1_555
C48 C49 1_555 1_555
C54 C55 1_555 1_555
C57 N14 1_555 1_555
C61 C62 1_555 1_555
C5F N1F 1_555 1_555
C7F N4F 1_555 1_555
C8F N2F 1_555 1_555
C8F N3F 1_555 1_555
C11F N6F 1_555 1_555
C12F C13F 1_555 1_555
C12F N6F 1_555 1_555
C17F C18F 1_555 1_555
C17F N5F 1_555 1_555
C23F N11F 1_555 1_555
C25F N8F 1_555 1_555
C26F N9F 1_555 1_555
C26F N10F 1_555 1_555
C30F C31F 1_555 1_555
C30F N12F 1_555 1_555
C34F N7F 1_555 1_555
C35F C36F 1_555 1_555
C35F N7F 1_555 1_555

#END
