
#######################################################################
#
#                 Cambridge Crystallographic Data Centre
#                                CCDC 
#
#######################################################################
#
# If this CIF has been generated from an entry in the Cambridge 
# Structural Database, then it will include bibliographic, chemical, 
# crystal, experimental, refinement or atomic coordinate data resulting 
# from the CCDC's data processing and validation procedures.
#
#######################################################################

data_XIGHAX
_chemical_formula_moiety         'C110 H92 Cl2 I12 N29 O2 Zn9'
_symmetry_cell_setting           monoclinic
_symmetry_space_group_name_H-M   'C 2/c'
_symmetry_Int_Tables_number      15
_space_group_name_Hall           '-C 2yc'
loop_
_symmetry_equiv_pos_site_id
_symmetry_equiv_pos_as_xyz
1 x,y,z
2 1/2+x,1/2+y,z
3 -x,y,1/2-z
4 1/2-x,1/2+y,1/2-z
5 -x,-y,-z
6 1/2-x,1/2-y,-z
7 x,-y,1/2+z
8 1/2+x,1/2-y,1/2+z
_cell_length_a                   35.648(7)
_cell_length_b                   14.809(3)
_cell_length_c                   31.842(6)
_cell_angle_alpha                90
_cell_angle_beta                 102.75(3)
_cell_angle_gamma                90
_cell_volume                     16395.3
loop_
_atom_site_label
_atom_site_type_symbol
_atom_site_fract_x
_atom_site_fract_y
_atom_site_fract_z
C37 C 0.1755(2) 0.4360(4) 0.44125(19)
C38 C 0.1766(2) 0.5206(5) 0.4221(2)
C39 C 0.2114(3) 0.5630(6) 0.4245(3)
H25 H 0.2124 0.6208 0.4119
C40 C 0.2439(3) 0.5223(7) 0.4448(3)
H26 H 0.2677 0.5519 0.4457
C41 C 0.2444(2) 0.4419(7) 0.4637(3)
H27 H 0.2681 0.4154 0.4776
C42 C 0.2102(2) 0.3971(6) 0.4632(2)
H28 H 0.2102 0.3408 0.4776
C43 C 0.1398(2) 0.3874(5) 0.43661(19)
H29 H 0.1400 0.3297 0.4497
C44 C 0.0723(2) 0.3674(6) 0.4083(2)
C45 C 0.0712(2) 0.2749(6) 0.4153(2)
H30 H 0.0940 0.2423 0.4273
C46 C 0.0364(3) 0.2318(8) 0.4044(3)
C47 C 0.0046(3) 0.2678(11) 0.3909(5)
H31 H -0.0187 0.2341 0.3859
C48 C 0.0048(3) 0.3604(10) 0.3832(4)
H32 H -0.0187 0.3900 0.3711
C49 C 0.0390(3) 0.4115(8) 0.3930(4)
H33 H 0.0386 0.4751 0.3889
Cl1 Cl 0.03701(10) 0.1115(2) 0.41005(8)
N13 N 0.10779(18) 0.4195(4) 0.41535(18)
O1 O 0.14356(17) 0.5610(3) 0.40085(17)
C50 C 0.12568(19) 0.4485(5) 0.2918(2)
C51 C 0.0975(2) 0.4223(5) 0.2560(2)
C52 C 0.0821(2) 0.4898(6) 0.2254(2)
H34 H 0.0626 0.4744 0.2009
C53 C 0.0951(2) 0.5760(5) 0.2307(2)
H35 H 0.0844 0.6201 0.2098
C54 C 0.1230(2) 0.6008(5) 0.2650(2)
H36 H 0.1318 0.6615 0.2679
C55 C 0.1383(2) 0.5379(4) 0.2953(2)
H37 H 0.1579 0.5554 0.3193
C56 C 0.1432(2) 0.3826(5) 0.3250(2)
H38 H 0.1628 0.4024 0.3485
C57 C 0.1527(2) 0.2402(5) 0.3561(2)
C58 C 0.1906(2) 0.2515(5) 0.3772(2)
H39 H 0.2049 0.3019 0.3708
C59 C 0.2075(2) 0.1890(5) 0.4075(2)
C60 C 0.1876(3) 0.1159(6) 0.4181(3)
H40 H 0.1995 0.0735 0.4392
C61 C 0.1498(3) 0.1070(6) 0.3968(3)
H41 H 0.1352 0.0584 0.4046
C62 C 0.1321(3) 0.1654(5) 0.3648(3)
H42 H 0.1065 0.1549 0.3491
Cl2 Cl 0.25614(7) 0.19892(17) 0.43061(7)
N14 N 0.13305(17) 0.2997(4) 0.32333(17)
O2 O 0.08557(16) 0.3358(4) 0.25014(18)
C63 C 0.0095(3) 0.6236(9) 0.2747(3)
H43 H -0.0106 0.6137 0.2912
H44 H 0.0281 0.5731 0.2811
C64 C 0.0300(3) 0.7108(10) 0.2890(4)
H45 H 0.0545 0.7119 0.2792
H46 H 0.0364 0.7129 0.3208
C65 C 0.0060(4) 0.7972(11) 0.2714(6)
H47 H -0.0166 0.8010 0.2846
H48 H 0.0221 0.8514 0.2802
C63B C -0.0095(3) 0.6236(9) 0.2253(3)
H43B H 0.0106 0.6137 0.2088
H44B H -0.0281 0.5731 0.2189
C64B C -0.0300(3) 0.7108(10) 0.2110(4)
H45B H -0.0545 0.7119 0.2208
H46B H -0.0364 0.7129 0.1792
C65B C -0.0060(4) 0.7972(11) 0.2286(6)
H47B H 0.0166 0.8010 0.2154
H48B H -0.0221 0.8514 0.2198
C66 C 0.2330(3) 0.9034(6) 0.4110(3)
H49 H 0.2142 0.9016 0.3830
H50 H 0.2216 0.9407 0.4308
C67 C 0.2377(3) 0.8106(6) 0.4284(3)
H51 H 0.2163 0.7979 0.4427
H52 H 0.2352 0.7682 0.4039
C68 C 0.2728(3) 0.7920(7) 0.4580(4)
H53 H 0.2688 0.8030 0.4873
H54 H 0.2785 0.7269 0.4559
C69 C 0.3056(3) 0.8412(8) 0.4533(4)
H55 H 0.3186 0.8053 0.4345
H56 H 0.3233 0.8438 0.4820
C70 C 0.3015(3) 0.9307(8) 0.4367(4)
H57 H 0.3241 0.9444 0.4245
H58 H 0.3021 0.9727 0.4610
C71 C 0.2676(3) 0.9491(8) 0.4045(3)
H59 H 0.2722 0.9309 0.3761
H60 H 0.2629 1.0150 0.4036
I1 I 0.723170(11) 0.27139(2) 0.288850(12)
I2 I 0.395024(11) 0.73146(2) 0.402995(13)
I3 I 0.354374(11) 0.58488(3) 0.508973(11)
I4 I 0.625140(13) -0.24070(2) 0.543620(12)
I5 I 0.615610(13) 0.34649(3) 0.197150(12)
I6 I 0.532840(11) -0.15562(3) 0.615370(12)
Zn1 Zn 0.373997(15) 0.58990(4) 0.437159(17)
Zn2 Zn 0.663530(17) 0.37098(4) 0.268110(18)
Zn3 Zn 0.589580(17) -0.12792(4) 0.580660(17)
C1 C 0.48479(13) 0.4000(3) 0.44199(14)
C2 C 0.55510(13) 0.2221(3) 0.46396(14)
C3 C 0.56165(13) 0.1380(3) 0.49015(14)
C4 C 0.56799(14) 0.3072(3) 0.41094(15)
C5 C 0.51921(14) 0.3445(3) 0.44190(15)
C6 C 0.59221(15) 0.3263(3) 0.37947(16)
C7 C 0.53630(14) 0.1109(3) 0.51532(16)
H1 H 0.5142 0.1461 0.5164
C8 C 0.62264(15) 0.2719(4) 0.37709(17)
H2 H 0.6295 0.2231 0.3966
C9 C 0.64325(16) 0.2888(3) 0.34589(17)
H3 H 0.6641 0.2499 0.3443
C10 C 0.59848(16) 0.0058(3) 0.51430(16)
H4 H 0.6202 -0.0310 0.5138
C11 C 0.59294(16) 0.0839(3) 0.48941(16)
H5 H 0.6105 0.0997 0.4721
C12 C 0.58477(19) 0.3997(4) 0.3517(2)
H6 H 0.5648 0.4411 0.3535
C13 C 0.54382(14) 0.0322(3) 0.53865(16)
H7 H 0.5263 0.0136 0.5555
C14 C 0.15570(14) 0.6069(3) 0.15846(15)
H8 H 0.1586 0.6702 0.1554
C15 C 0.17844(14) 0.5635(3) 0.19368(15)
H9 H 0.1965 0.5967 0.2144
C16 C 0.12685(18) 0.4747(3) 0.13285(17)
H10 H 0.1090 0.4427 0.1114
C17 C 0.15520(15) 0.0660(3) 0.24594(16)
H11 H 0.1325 0.0440 0.2272
C18 C 0.27970(14) 0.5433(3) 0.32775(15)
H12 H 0.2648 0.5797 0.3057
C19 C 0.19572(13) 0.4207(3) 0.23571(14)
C20 C 0.24131(13) 0.4085(3) 0.29690(14)
C21 C 0.30927(15) 0.5811(3) 0.35808(16)
H13 H 0.3146 0.6435 0.3560
C22 C 0.27198(13) 0.4517(3) 0.32979(14)
C23 C 0.32288(15) 0.4450(3) 0.39263(16)
H14 H 0.3376 0.4104 0.4156
C24 C 0.19606(13) 0.1899(3) 0.27277(14)
C25 C 0.16319(14) 0.1568(3) 0.24559(16)
H15 H 0.1463 0.1965 0.2269
C26 C 0.20546(13) 0.2871(3) 0.27166(14)
C27 C 0.20959(14) 0.0400(3) 0.29795(15)
H16 H 0.2261 -0.0009 0.3163
C28 C 0.17442(14) 0.4717(3) 0.19824(14)
C29 C 0.29432(14) 0.4018(3) 0.36299(16)
H17 H 0.2900 0.3389 0.3653
C30 C 0.14840(17) 0.4270(3) 0.16688(17)
H18 H 0.1453 0.3635 0.1687
C31 C 0.21912(14) 0.1295(3) 0.29975(14)
H19 H 0.2415 0.1499 0.3195
C32 C 0.46949(14) 0.4063(3) 0.47737(16)
H20 H 0.4810 0.3755 0.5031
C33 C 0.46610(16) 0.4434(4) 0.40482(16)
H21 H 0.4756 0.4386 0.3793
C34 C 0.43388(16) 0.4932(4) 0.40499(16)
H22 H 0.4213 0.5224 0.3791
C35 C 0.43681(14) 0.4585(3) 0.47529(16)
H23 H 0.4264 0.4631 0.5002
C36 C 0.60690(18) 0.4113(4) 0.3215(2)
H24 H 0.6014 0.4610 0.3024
N1 N 0.57447(12) -0.0192(3) 0.53878(12)
N2 N 0.52706(11) 0.2773(3) 0.47015(12)
N3 N 0.57613(11) 0.2333(3) 0.43479(12)
N4 N 0.53913(12) 0.3638(3) 0.41178(13)
N5 N 0.41942(11) 0.5026(3) 0.43967(12)
N6 N 0.63540(12) 0.3567(3) 0.31802(13)
N7 N 0.17807(12) 0.0074(3) 0.27155(12)
N8 N 0.23329(11) 0.3216(2) 0.30246(12)
N9 N 0.22397(11) 0.4613(2) 0.26417(12)
N10 N 0.33086(11) 0.5326(3) 0.39058(12)
N11 N 0.12989(12) 0.5633(2) 0.12868(12)
N12 N 0.18561(11) 0.3338(3) 0.23813(12)
I1A I 0.223170(11) -0.22861(2) 0.288850(12)
I2A I -0.104976(11) 0.23146(2) 0.402995(13)
I3A I -0.145626(11) 0.08488(3) 0.508973(11)
I4G I 0.125140(13) 0.74070(2) 0.043620(12)
I5A I 0.115610(13) -0.15351(3) 0.197150(12)
I6G I 0.032840(11) 0.65562(3) 0.115370(12)
Zn1A Zn -0.126003(15) 0.08990(4) 0.437159(17)
Zn1A_2 Zn 0.873997(15) 1.08990(4) 0.437159(17)
Zn2A Zn 0.163530(17) -0.12902(4) 0.268110(18)
Zn3G Zn 0.089580(17) 0.62792(4) 0.080660(17)
Zn3F Zn 0.589580(17) 1.12792(4) 0.080660(17)
Zn3A Zn 0.089580(17) -0.62792(4) 0.580660(17)
C1A C -0.01521(13) -0.1000(3) 0.44199(14)
C2A C 0.05510(13) -0.2779(3) 0.46396(14)
C3A C 0.06165(13) -0.3620(3) 0.49015(14)
C4A C 0.06799(14) -0.1928(3) 0.41094(15)
C5A C 0.01921(14) -0.1555(3) 0.44190(15)
C6A C 0.09221(15) -0.1737(3) 0.37947(16)
C7A C 0.03630(14) -0.3891(3) 0.51532(16)
H1A H 0.0142 -0.3539 0.5164
C8A C 0.12264(15) -0.2281(4) 0.37709(17)
H2A H 0.1295 -0.2769 0.3966
C9A C 0.14325(16) -0.2112(3) 0.34589(17)
H3A H 0.1641 -0.2501 0.3443
C10A C 0.09848(16) -0.4942(3) 0.51430(16)
H4A H 0.1202 -0.5310 0.5138
C11A C 0.09294(16) -0.4161(3) 0.48941(16)
H5A H 0.1105 -0.4003 0.4721
C12A C 0.08477(19) -0.1003(4) 0.3517(2)
H6A H 0.0648 -0.0589 0.3535
C13A C 0.04382(14) -0.4678(3) 0.53865(16)
H7A H 0.0263 -0.4864 0.5555
C14A C 0.65570(14) 1.1069(3) 0.15846(15)
H8A H 0.6586 1.1702 0.1554
C15A C 0.67844(14) 1.0635(3) 0.19368(15)
H9A H 0.6965 1.0967 0.2144
C16A C 0.62685(18) 0.9747(3) 0.13285(17)
H10A H 0.6090 0.9427 0.1114
C17A C 0.65520(15) 0.5660(3) 0.24594(16)
H11A H 0.6325 0.5440 0.2272
C18A C 0.77970(14) 1.0433(3) 0.32775(15)
H12A H 0.7648 1.0797 0.3057
C19A C 0.69572(13) 0.9207(3) 0.23571(14)
C20A C 0.74131(13) 0.9085(3) 0.29690(14)
C21A C 0.80927(15) 1.0811(3) 0.35808(16)
H13A H 0.8146 1.1435 0.3560
C22A C 0.77198(13) 0.9517(3) 0.32979(14)
C23A C 0.82288(15) 0.9450(3) 0.39263(16)
H14A H 0.8376 0.9104 0.4156
C24A C 0.69606(13) 0.6899(3) 0.27277(14)
C25A C 0.66319(14) 0.6568(3) 0.24559(16)
H15A H 0.6463 0.6965 0.2269
C26A C 0.70546(13) 0.7871(3) 0.27166(14)
C27A C 0.70959(14) 0.5400(3) 0.29795(15)
H16A H 0.7261 0.4991 0.3163
C28A C 0.67442(14) 0.9717(3) 0.19824(14)
C29A C 0.79432(14) 0.9018(3) 0.36299(16)
H17A H 0.7900 0.8389 0.3653
C30A C 0.64840(17) 0.9270(3) 0.16688(17)
H18A H 0.6453 0.8635 0.1687
C31A C 0.71912(14) 0.6295(3) 0.29975(14)
H19A H 0.7415 0.6499 0.3195
C32A C -0.03051(14) -0.0937(3) 0.47737(16)
H20A H -0.0190 -0.1245 0.5031
C33A C -0.03390(16) -0.0566(4) 0.40482(16)
H21A H -0.0244 -0.0614 0.3793
C34A C -0.06612(16) -0.0068(4) 0.40499(16)
H22A H -0.0787 0.0224 0.3791
C35A C -0.06319(14) -0.0415(3) 0.47529(16)
H23A H -0.0736 -0.0369 0.5002
C36A C 0.10690(18) -0.0887(4) 0.3215(2)
H24A H 0.1014 -0.0390 0.3024
N1A N 0.07447(12) -0.5192(3) 0.53878(12)
N1G N 0.07447(12) 0.5192(3) 0.03878(12)
N2A N 0.02706(11) -0.2227(3) 0.47015(12)
N3A N 0.07613(11) -0.2667(3) 0.43479(12)
N4A N 0.03913(12) -0.1362(3) 0.41178(13)
N5A N -0.08058(11) 0.0026(3) 0.43967(12)
N6A N 0.13540(12) -0.1433(3) 0.31802(13)
N7A N 0.67807(12) 0.5074(3) 0.27155(12)
N8A N 0.73329(11) 0.8216(2) 0.30246(12)
N9A N 0.72397(11) 0.9613(2) 0.26417(12)
N10A N 0.83086(11) 1.0326(3) 0.39058(12)
N10A_2 N -0.16914(11) 0.0326(3) 0.39058(12)
N11A N 0.62989(12) 1.0633(2) 0.12868(12)
N11G N 0.62989(12) -0.0633(2) 0.62868(12)
N12A N 0.68561(11) 0.8338(3) 0.23813(12)
loop_
_geom_bond_atom_site_label_1
_geom_bond_atom_site_label_2
_geom_bond_site_symmetry_1
_geom_bond_site_symmetry_2
I1 Zn2 1_555 1_555
I2 Zn1 1_555 1_555
I3 Zn1 1_555 1_555
I4 Zn3 1_555 1_555
I5 Zn2 1_555 1_555
I6 Zn3 1_555 1_555
Zn1 N5 1_555 1_555
Zn2 N6 1_555 1_555
Zn3 N1 1_555 1_555
C1 C5 1_555 1_555
C2 C3 1_555 1_555
C3 C7 1_555 1_555
C4 C6 1_555 1_555
C5 N2 1_555 1_555
C6 C8 1_555 1_555
C7 H1 1_555 1_555
C8 H2 1_555 1_555
C9 C8 1_555 1_555
H3 C9 1_555 1_555
C10 H4 1_555 1_555
C11 C3 1_555 1_555
H5 C11 1_555 1_555
C12 C6 1_555 1_555
H6 C12 1_555 1_555
C13 C7 1_555 1_555
H7 C13 1_555 1_555
C14 H8 1_555 1_555
C15 C14 1_555 1_555
H9 C15 1_555 1_555
C16 H10 1_555 1_555
C17 H11 1_555 1_555
C18 H12 1_555 1_555
C19 C28 1_555 1_555
C20 C22 1_555 1_555
C21 C18 1_555 1_555
H13 C21 1_555 1_555
C22 C18 1_555 1_555
C23 H14 1_555 1_555
C24 C25 1_555 1_555
C25 C17 1_555 1_555
H15 C25 1_555 1_555
C26 C24 1_555 1_555
C27 H16 1_555 1_555
C28 C15 1_555 1_555
C29 C22 1_555 1_555
H17 C29 1_555 1_555
C30 C16 1_555 1_555
H18 C30 1_555 1_555
C31 C24 1_555 1_555
H19 C31 1_555 1_555
C32 C1 1_555 1_555
H20 C32 1_555 1_555
C33 C1 1_555 1_555
H21 C33 1_555 1_555
C34 C33 1_555 1_555
H22 C34 1_555 1_555
C35 C32 1_555 1_555
H23 C35 1_555 1_555
C36 C12 1_555 1_555
H24 C36 1_555 1_555
N1 C10 1_555 1_555
N2 C2 1_555 1_555
N3 C2 1_555 1_555
N4 C4 1_555 1_555
N5 C34 1_555 1_555
N6 C9 1_555 1_555
N7 C17 1_555 1_555
N8 C20 1_555 1_555
N9 C19 1_555 1_555
N10 Zn1 1_555 1_555
N11 C14 1_555 1_555
N12 C19 1_555 1_555
C37 C38 1_555 1_555
C38 C39 1_555 1_555
C39 H25 1_555 1_555
C40 C39 1_555 1_555
H26 C40 1_555 1_555
C41 C40 1_555 1_555
H27 C41 1_555 1_555
C42 C37 1_555 1_555
H28 C42 1_555 1_555
C43 C37 1_555 1_555
H29 C43 1_555 1_555
C44 C45 1_555 1_555
C45 H30 1_555 1_555
C46 C45 1_555 1_555
C47 C46 1_555 1_555
H31 C47 1_555 1_555
C48 C47 1_555 1_555
H32 C48 1_555 1_555
C49 C44 1_555 1_555
H33 C49 1_555 1_555
Cl1 C46 1_555 1_555
N13 C43 1_555 1_555
O1 C38 1_555 1_555
C50 C51 1_555 1_555
C51 C52 1_555 1_555
C52 H34 1_555 1_555
C53 C52 1_555 1_555
H35 C53 1_555 1_555
C54 C53 1_555 1_555
H36 C54 1_555 1_555
C55 C50 1_555 1_555
H37 C55 1_555 1_555
C56 C50 1_555 1_555
H38 C56 1_555 1_555
C57 C58 1_555 1_555
C58 H39 1_555 1_555
C59 C58 1_555 1_555
C60 C59 1_555 1_555
H40 C60 1_555 1_555
C61 C60 1_555 1_555
H41 C61 1_555 1_555
C62 C57 1_555 1_555
H42 C62 1_555 1_555
Cl2 C59 1_555 1_555
N14 C56 1_555 1_555
O2 C51 1_555 1_555
C63 H43 1_555 1_555
H44 C63 1_555 1_555
C64 C63 1_555 1_555
H45 C64 1_555 1_555
H46 C64 1_555 1_555
C65 C64 1_555 1_555
H47 C65 1_555 1_555
H48 C65 1_555 1_555
C66 H49 1_555 1_555
H50 C66 1_555 1_555
C67 C66 1_555 1_555
H51 C67 1_555 1_555
H52 C67 1_555 1_555
C68 C67 1_555 1_555
H53 C68 1_555 1_555
H54 C68 1_555 1_555
C69 C68 1_555 1_555
H55 C69 1_555 1_555
H56 C69 1_555 1_555
C70 C69 1_555 1_555
H57 C70 1_555 1_555
H58 C70 1_555 1_555
C71 C66 1_555 1_555
H59 C71 1_555 1_555
H60 C71 1_555 1_555
I1A Zn2A 1_555 1_555
I2A Zn1A 1_555 1_555
I3A Zn1A 1_555 1_555
I4G Zn3G 1_555 1_555
I5A Zn2A 1_555 1_555
I6G Zn3G 1_555 1_555
Zn1A N5A 1_555 1_555
Zn1A_2 N10A 1_555 1_555
Zn2A N7 1_555 1_555
Zn3G N11 1_555 1_555
Zn3F N11A 1_555 1_555
Zn3A N1A 1_555 1_555
C1A C5A 1_555 1_555
C2A C3A 1_555 1_555
C3A C7A 1_555 1_555
C4A C6A 1_555 1_555
C5A N2A 1_555 1_555
C6A C8A 1_555 1_555
C7A H1A 1_555 1_555
C8A H2A 1_555 1_555
C9A C8A 1_555 1_555
H3A C9A 1_555 1_555
C10A H4A 1_555 1_555
C11A C3A 1_555 1_555
H5A C11A 1_555 1_555
C12A C6A 1_555 1_555
H6A C12A 1_555 1_555
C13A C7A 1_555 1_555
H7A C13A 1_555 1_555
C14A H8A 1_555 1_555
C15A C14A 1_555 1_555
H9A C15A 1_555 1_555
C16A H10A 1_555 1_555
C17A H11A 1_555 1_555
C18A H12A 1_555 1_555
C19A C28A 1_555 1_555
C20A C22A 1_555 1_555
C21A C18A 1_555 1_555
H13A C21A 1_555 1_555
C22A C18A 1_555 1_555
C23A H14A 1_555 1_555
C24A C25A 1_555 1_555
C25A C17A 1_555 1_555
H15A C25A 1_555 1_555
C26A C24A 1_555 1_555
C27A H16A 1_555 1_555
C28A C15A 1_555 1_555
C29A C22A 1_555 1_555
H17A C29A 1_555 1_555
C30A C16A 1_555 1_555
H18A C30A 1_555 1_555
C31A C24A 1_555 1_555
H19A C31A 1_555 1_555
C32A C1A 1_555 1_555
H20A C32A 1_555 1_555
C33A C1A 1_555 1_555
H21A C33A 1_555 1_555
C34A C33A 1_555 1_555
H22A C34A 1_555 1_555
C35A C32A 1_555 1_555
H23A C35A 1_555 1_555
C36A C12A 1_555 1_555
H24A C36A 1_555 1_555
N1A C10A 1_555 1_555
N1G Zn3G 1_555 1_555
N2A C2A 1_555 1_555
N3A C2A 1_555 1_555
N4A C4A 1_555 1_555
N5A C34A 1_555 1_555
N6A Zn2A 1_555 1_555
N7A Zn2 1_555 1_555
N8A C20A 1_555 1_555
N9A C19A 1_555 1_555
N10A C21A 1_555 1_555
N10A_2 Zn1A 1_555 1_555
N11A C14A 1_555 1_555
N11G Zn3 1_555 1_555
N12A C19A 1_555 1_555
C63B C63 1_555 1_555
H43B C63B 1_555 1_555
H44B C63B 1_555 1_555
C64B C63B 1_555 1_555
H45B C64B 1_555 1_555
H46B C64B 1_555 1_555
C65B C65 1_555 1_555
H47B C65B 1_555 1_555
H48B C65B 1_555 1_555
C4 N3 1_555 1_555
C5 N4 1_555 1_555
C10 C11 1_555 1_555
C13 N1 1_555 1_555
C16 N11 1_555 1_555
C20 N9 1_555 1_555
C21 N10 1_555 1_555
C23 C29 1_555 1_555
C23 N10 1_555 1_555
C26 N8 1_555 1_555
C26 N12 1_555 1_555
C27 C31 1_555 1_555
C27 N7 1_555 1_555
C28 C30 1_555 1_555
C35 N5 1_555 1_555
C36 N6 1_555 1_555
C41 C42 1_555 1_555
C44 N13 1_555 1_555
C48 C49 1_555 1_555
C54 C55 1_555 1_555
C57 N14 1_555 1_555
C61 C62 1_555 1_555
C70 C71 1_555 1_555
C4A N3A 1_555 1_555
C5A N4A 1_555 1_555
C9A N6A 1_555 1_555
C10A C11A 1_555 1_555
C13A N1A 1_555 1_555
C16A N11A 1_555 1_555
C17A N7A 1_555 1_555
C20A N9A 1_555 1_555
C23A C29A 1_555 1_555
C23A N10A 1_555 1_555
C26A N8A 1_555 1_555
C26A N12A 1_555 1_555
C27A C31A 1_555 1_555
C27A N7A 1_555 1_555
C28A C30A 1_555 1_555
C35A N5A 1_555 1_555
C36A N6A 1_555 1_555
C64B C65B 1_555 1_555

#END
