
#######################################################################
#
#                 Cambridge Crystallographic Data Centre
#                                CCDC 
#
#######################################################################
#
# If this CIF has been generated from an entry in the Cambridge 
# Structural Database, then it will include bibliographic, chemical, 
# crystal, experimental, refinement or atomic coordinate data resulting 
# from the CCDC's data processing and validation procedures.
#
#######################################################################

data_DEGJIK
_chemical_formula_moiety         '(C6 H4 Cu1 N5)n'
_symmetry_cell_setting           monoclinic
_symmetry_space_group_name_H-M   'P 21/c'
_symmetry_Int_Tables_number      14
_space_group_name_Hall           '-P 2ybc'
loop_
_symmetry_equiv_pos_site_id
_symmetry_equiv_pos_as_xyz
1 x,y,z
2 -x,1/2+y,1/2-z
3 -x,-y,-z
4 x,1/2-y,1/2+z
_cell_length_a                   5.8145(7)
_cell_length_b                   16.880(2)
_cell_length_c                   8.9663(11)
_cell_angle_alpha                90
_cell_angle_beta                 94.078(2)
_cell_angle_gamma                90
_cell_volume                     877.803
loop_
_atom_site_label
_atom_site_type_symbol
_atom_site_fract_x
_atom_site_fract_y
_atom_site_fract_z
Cu1 Cu 0.24791(11) 0.43510(4) 0.52825(8)
N1 N 0.5725(7) 0.4224(3) 0.6408(5)
N2 N 0.7525(7) 0.4617(3) 0.5869(5)
N3 N 0.9409(7) 0.4174(3) 0.6082(5)
N4 N 0.8899(8) 0.3496(3) 0.6753(5)
N5 N 0.3265(8) 0.1607(3) 0.8921(5)
C1 C 0.6654(9) 0.3550(3) 0.6949(6)
C2 C 0.5416(8) 0.2899(3) 0.7626(6)
C3 C 0.3495(9) 0.3002(3) 0.8433(6)
H1 H 0.2880 0.3517 0.8560
C4 C 0.2470(9) 0.2351(3) 0.9055(6)
H2 H 0.1148 0.2433 0.9600
C5 C 0.6226(10) 0.2123(3) 0.7478(6)
H3 H 0.7541 0.2021 0.6936
C6 C 0.5098(10) 0.1510(3) 0.8124(6)
H4 H 0.5655 0.0987 0.7995
Cu1B Cu 0.75209(11) 0.56490(4) 0.47175(8)
Cu1_2 Cu 1.24791(11) 0.43510(4) 0.52825(8)
Cu1C Cu 0.24791(11) 0.06490(4) 1.02825(8)
N2B N 0.2475(7) 0.5383(3) 0.4131(5)
N3_2 N -0.0591(7) 0.4174(3) 0.6082(5)
N5C N 0.3265(8) 0.3393(3) 0.3921(5)
loop_
_geom_bond_atom_site_label_1
_geom_bond_atom_site_label_2
_geom_bond_site_symmetry_1
_geom_bond_site_symmetry_2
Cu1 N1 1_555 1_555
N1 N2 1_555 1_555
N2 N3 1_555 1_555
N3 N4 1_555 1_555
N4 C1 1_555 1_555
N5 C4 1_555 1_555
C1 N1 1_555 1_555
C2 C1 1_555 1_555
C3 C2 1_555 1_555
H1 C3 1_555 1_555
C4 C3 1_555 1_555
H2 C4 1_555 1_555
C5 C2 1_555 1_555
H3 C5 1_555 1_555
C6 N5 1_555 1_555
H4 C6 1_555 1_555
Cu1B N2 1_555 1_555
Cu1_2 N3 1_555 1_555
Cu1C N5 1_555 1_555
N2B Cu1 1_555 1_555
N3_2 Cu1 1_555 1_555
N5C Cu1 1_555 1_555
C5 C6 1_555 1_555

#END
