
#######################################################################
#
#                 Cambridge Crystallographic Data Centre
#                                CCDC 
#
#######################################################################
#
# If this CIF has been generated from an entry in the Cambridge 
# Structural Database, then it will include bibliographic, chemical, 
# crystal, experimental, refinement or atomic coordinate data resulting 
# from the CCDC's data processing and validation procedures.
#
#######################################################################

data_ALURAB
_chemical_formula_moiety         '(C76 H96 Co3 N14 O32)n'
_symmetry_cell_setting           orthorhombic
_symmetry_space_group_name_H-M   'P 21 21 2'
_symmetry_Int_Tables_number      18
_space_group_name_Hall           'P 2 2ab'
loop_
_symmetry_equiv_pos_site_id
_symmetry_equiv_pos_as_xyz
1 x,y,z
2 -x,-y,z
3 1/2-x,1/2+y,-z
4 1/2+x,1/2-y,-z
_cell_length_a                   18.657(4)
_cell_length_b                   24.380(5)
_cell_length_c                   11.400(2)
_cell_angle_alpha                90
_cell_angle_beta                 90
_cell_angle_gamma                90
_cell_volume                     5185.38
loop_
_atom_site_label
_atom_site_type_symbol
_atom_site_fract_x
_atom_site_fract_y
_atom_site_fract_z
Co1 Co 0.5000 0.5000 0.45986(10)
Co2 Co 0.69972(4) 0.48131(3) 0.46481(7)
C1 C 0.6175(3) 0.3985(2) 0.4622(6)
C2 C 0.5706(3) 0.3473(2) 0.4666(6)
H1 H 0.5254 0.3550 0.4244
C3 C 0.5525(4) 0.3320(3) 0.5935(6)
H2 H 0.5954 0.3191 0.6329
H3 H 0.5166 0.3032 0.5939
H4 H 0.5339 0.3639 0.6340
C4 C 0.6146(3) 0.2983(3) 0.2942(6)
C5 C 0.6612(4) 0.2530(3) 0.2479(6)
C6 C 0.6502(4) 0.2314(3) 0.1376(6)
H5 H 0.6112 0.2436 0.0924
C7 C 0.6952(4) 0.1924(3) 0.0930(6)
C8 C 0.7524(4) 0.1728(3) 0.1595(6)
H6 H 0.7842 0.1468 0.1276
C9 C 0.7622(4) 0.1921(3) 0.2744(6)
C10 C 0.7171(4) 0.2341(2) 0.3171(6)
H7 H 0.7250 0.2491 0.3919
C11 C 0.6835(4) 0.1691(3) -0.0264(7)
C12 C 0.5523(5) 0.1873(5) -0.2429(8)
H8 H 0.5355 0.2240 -0.2255
H9 H 0.5291 0.1613 -0.1908
H10 H 0.5409 0.1782 -0.3236
C13 C 0.6325(4) 0.1847(3) -0.2254(6)
H11 H 0.6476 0.1461 -0.2364
C14 C 0.6721(4) 0.2193(4) -0.3149(7)
C15 C 0.8208(4) 0.1689(3) 0.3478(6)
C16 C 0.8527(4) 0.1711(3) 0.6669(6)
H12 H 0.8064 0.1570 0.6912
H13 H 0.8520 0.2109 0.6701
H14 H 0.8896 0.1573 0.7189
C17 C 0.8684(3) 0.1525(2) 0.5410(6)
H15 H 0.9144 0.1687 0.5150
C18 C 0.8741(3) 0.0898(2) 0.5367(5)
C19 C 0.7368(4) 0.5218(3) 0.8346(5)
H16 H 0.7593 0.5514 0.8725
C20 C 0.7340(3) 0.5198(3) 0.7141(5)
H17 H 0.7550 0.5487 0.6718
C21 C 0.6755(4) 0.4382(3) 0.7181(6)
H18 H 0.6539 0.4087 0.6786
C22 C 0.6768(4) 0.4364(3) 0.8384(6)
H19 H 0.6579 0.4060 0.8785
C23 C 0.7061(3) 0.4797(3) 0.9000(5)
C24 C 0.7063(3) 0.4793(3) 1.0300(6)
C25 C 0.7218(4) 0.4329(3) 1.0946(6)
H20 H 0.7342 0.4002 1.0561
C26 C 0.7190(4) 0.4344(3) 1.2164(6)
H21 H 0.7310 0.4026 1.2589
C27 C 0.6856(4) 0.5242(3) 1.2116(6)
H22 H 0.6725 0.5563 1.2519
C28 C 0.6885(4) 0.5265(3) 1.0924(6)
H23 H 0.6787 0.5595 1.0527
C29 C 0.8544(4) 0.4472(3) 0.4812(11)
H24 H 0.8329 0.4136 0.5012
C30 C 0.9275(4) 0.4491(3) 0.4773(11)
H25 H 0.9548 0.4176 0.4938
C31 C 0.9604(3) 0.4976(3) 0.4491(7)
C32 C 0.9164(4) 0.5419(3) 0.4278(10)
H26 H 0.9362 0.5763 0.4097
C33 C 0.8435(4) 0.5354(3) 0.4333(9)
H27 H 0.8146 0.5662 0.4175
C34 C 0.5103(3) 0.4537(2) 0.2100(5)
H28 H 0.5180 0.4208 0.2509
C35 C 0.5100(4) 0.4525(3) 0.0910(5)
H29 H 0.5168 0.4189 0.0522
C36 C 0.5000 0.5000 0.0252(8)
C37 C 0.5000 0.5000 -0.1036(8)
C38 C 0.4656(4) 0.4592(2) -0.1672(6)
H30 H 0.4415 0.4306 -0.1283
C39 C 0.4671(3) 0.4611(3) -0.2880(5)
H31 H 0.4433 0.4330 -0.3291
N1 N 0.6064(3) 0.3017(2) 0.4090(4)
H32 H 0.6232 0.2753 0.4524
N2 N 0.6507(4) 0.2007(3) -0.1045(5)
H33 H 0.6390 0.2337 -0.0824
N3 N 0.8115(3) 0.17191(19) 0.4654(5)
H34 H 0.7721 0.1852 0.4949
N4 N 0.7028(3) 0.4789(2) 0.6527(4)
N5 N 0.7000(3) 0.4797(2) 1.2750(4)
N6 N 0.8114(2) 0.48904(19) 0.4591(5)
N7 N 0.5000 0.5000 0.2719(6)
N8 N 0.5000 0.5000 -0.3511(6)
O1 O 0.59072(19) 0.44628(15) 0.4644(4)
O2 O 0.6857(2) 0.39360(15) 0.4617(4)
O3 O 0.5869(3) 0.3324(2) 0.2264(4)
O4 O 0.7063(3) 0.2602(2) -0.2801(5)
O5 O 0.6655(3) 0.2054(3) -0.4213(4)
O6 O 0.7011(4) 0.1211(2) -0.0509(5)
O7 O 0.8168(2) 0.06276(16) 0.5287(4)
O8 O 0.9363(2) 0.06982(15) 0.5471(4)
O9 O 0.8739(2) 0.1483(2) 0.3042(4)
Co1_2 Co 0.5000 0.5000 -0.54014(10)
Co1B Co 1.0000 0.0000 0.54014(10)
Co1B_2 Co 0.0000 1.0000 0.54014(10)
Co2A Co 0.30028(4) 0.51869(3) 0.46481(7)
Co2_2 Co 0.69972(4) 0.48131(3) 1.46481(7)
Co2B Co 0.80028(4) -0.01869(3) 0.53519(7)
Co2A_2 Co 1.30028(4) 0.51869(3) 0.46481(7)
Co2C Co 0.19972(4) 1.01869(3) 0.53519(7)
Co2_3 Co 0.69972(4) 0.48131(3) -0.53519(7)
C1A C 0.3825(3) 0.6015(2) 0.4622(6)
C2A C 0.4294(3) 0.6527(2) 0.4666(6)
H1A H 0.4746 0.6450 0.4244
C3A C 0.4475(4) 0.6680(3) 0.5935(6)
H2A H 0.4046 0.6809 0.6329
H3A H 0.4834 0.6968 0.5939
H4A H 0.4661 0.6361 0.6340
C4A C 0.3854(3) 0.7017(3) 0.2942(6)
C5A C 0.3388(4) 0.7470(3) 0.2479(6)
C6A C 0.3498(4) 0.7686(3) 0.1376(6)
H5A H 0.3888 0.7564 0.0924
C7A C 0.3048(4) 0.8076(3) 0.0930(6)
C8A C 0.2476(4) 0.8272(3) 0.1595(6)
H6A H 0.2158 0.8532 0.1276
C9A C 0.2378(4) 0.8079(3) 0.2744(6)
C10A C 0.2829(4) 0.7659(2) 0.3171(6)
H7A H 0.2750 0.7509 0.3919
C11A C 0.3165(4) 0.8309(3) -0.0264(7)
C12A C 0.4477(5) 0.8127(5) -0.2429(8)
H8A H 0.4645 0.7760 -0.2255
H9A H 0.4709 0.8387 -0.1908
H10A H 0.4591 0.8218 -0.3236
C13A C 0.3675(4) 0.8153(3) -0.2254(6)
H11A H 0.3524 0.8539 -0.2364
C14A C 0.3279(4) 0.7807(4) -0.3149(7)
C15A C 0.1792(4) 0.8311(3) 0.3478(6)
C16A C 0.1473(4) 0.8289(3) 0.6669(6)
H12A H 0.1936 0.8430 0.6912
H13A H 0.1480 0.7891 0.6701
H14A H 0.1104 0.8427 0.7189
C17A C 0.1316(3) 0.8475(2) 0.5410(6)
H15A H 0.0856 0.8313 0.5150
C18A C 0.1259(3) 0.9102(2) 0.5367(5)
C19_2 C 0.7368(4) 0.5218(3) -0.1654(5)
H16_2 H 0.7593 0.5514 -0.1275
C20_2 C 0.7340(3) 0.5198(3) -0.2859(5)
H17_2 H 0.7550 0.5487 -0.3282
C21_2 C 0.6755(4) 0.4382(3) -0.2819(6)
H18_2 H 0.6539 0.4087 -0.3214
C22_2 C 0.6768(4) 0.4364(3) -0.1616(6)
H19_2 H 0.6579 0.4060 -0.1215
C23_2 C 0.7061(3) 0.4797(3) -0.1000(5)
C24_2 C 0.7063(3) 0.4793(3) 0.0300(6)
C25_2 C 0.7218(4) 0.4329(3) 0.0946(6)
H20_2 H 0.7342 0.4002 0.0561
C26_2 C 0.7190(4) 0.4344(3) 0.2164(6)
H21_2 H 0.7310 0.4026 0.2589
C27_2 C 0.6856(4) 0.5242(3) 0.2116(6)
H22_2 H 0.6725 0.5563 0.2519
C28_2 C 0.6885(4) 0.5265(3) 0.0924(6)
H23_2 H 0.6787 0.5595 0.0527
C29A C 1.1456(4) 0.5528(3) 0.4812(11)
H24A H 1.1671 0.5864 0.5012
C30A C 1.0725(4) 0.5509(3) 0.4773(11)
H25A H 1.0452 0.5824 0.4938
C31A C 1.0396(3) 0.5024(3) 0.4491(7)
C32A C 1.0836(4) 0.4581(3) 0.4278(10)
H26A H 1.0638 0.4237 0.4097
C33A C 1.1565(4) 0.4646(3) 0.4333(9)
H27A H 1.1854 0.4338 0.4175
C34A C 0.4897(3) 0.5463(2) 0.2100(5)
H28A H 0.4820 0.5792 0.2509
C35A C 0.4900(4) 0.5475(3) 0.0910(5)
H29A H 0.4832 0.5811 0.0522
C38A C 0.5344(4) 0.5408(2) -0.1672(6)
H30A H 0.5585 0.5694 -0.1283
C39A C 0.5329(3) 0.5389(3) -0.2880(5)
H31A H 0.5567 0.5670 -0.3291
N1A N 0.3936(3) 0.6983(2) 0.4090(4)
H32A H 0.3768 0.7247 0.4524
N2A N 0.3493(4) 0.7993(3) -0.1045(5)
H33A H 0.3610 0.7663 -0.0824
N3A N 0.1885(3) 0.82809(19) 0.4654(5)
H34A H 0.2279 0.8148 0.4949
N4_2 N 0.7028(3) 0.4789(2) -0.3473(4)
N4A N 0.2972(3) 0.5211(2) 0.6527(4)
N5_2 N 0.7000(3) 0.4797(2) 0.2750(4)
N5A N 0.3000(3) 0.5203(2) 0.2750(4)
N6A N 1.1886(2) 0.51096(19) 0.4591(5)
N6A_2 N 0.1886(2) 0.51096(19) 0.4591(5)
N8_2 N 0.5000 0.5000 0.6489(6)
O1A O 0.40928(19) 0.55372(15) 0.4644(4)
O2A O 0.3143(2) 0.60640(15) 0.4617(4)
O3A O 0.4131(3) 0.6676(2) 0.2264(4)
O4A O 0.2937(3) 0.7398(2) -0.2801(5)
O5A O 0.3345(3) 0.7946(3) -0.4213(4)
O6A O 0.2989(4) 0.8789(2) -0.0509(5)
O7A O 0.1832(2) 0.93724(16) 0.5287(4)
O7B O 0.6832(2) 0.56276(16) 0.4713(4)
O7C O 0.3168(2) 0.43724(16) 0.4713(4)
O8A O 0.0637(2) 0.93018(15) 0.5471(4)
O8B O 0.5637(2) 0.56982(15) 0.4529(4)
O8C O 0.4363(2) 0.43018(15) 0.4529(4)
O9A O 0.1261(2) 0.8517(2) 0.3042(4)
O10 O 0.5866(3) 0.3269(2) 0.9676(6)
H35 H 0.5837 0.3323 1.0416
H36 H 0.6310 0.3234 0.9527
O11 O 0.7846(3) 0.3208(2) 0.5723(5)
H37 H 0.7549 0.3427 0.5404
H38 H 0.7622 0.2932 0.5998
O12 O 0.5449(4) 0.1663(3) 0.4524(7)
H39 H 0.5836 0.1848 0.4520
H40 H 0.5057 0.1782 0.4807
O13 O 0.9116(4) 0.2932(3) 0.4526(8)
H41 H 0.8748 0.3083 0.4832
H42 H 0.9251 0.3105 0.3916
O14 O 0.9423(5) 0.1781(3) 0.0944(7)
H43 H 0.9862 0.1768 0.0743
H44 H 0.9378 0.1922 0.1624
O15 O 0.7562(6) 0.3150(3) 0.9111(7)
H45 H 0.7391 0.2897 0.8679
H46 H 0.7924 0.3036 0.9492
O16 O 0.8766(5) 0.2792(4) 0.0371(10)
H47 H 0.8749 0.2441 0.0372
H48 H 0.9170 0.2897 0.0104
O17 O 0.8677(4) 0.3444(4) 0.2377(9)
H49 H 0.8487 0.3440 0.3056
H50 H 0.8814 0.3121 0.2196
O18 O 0.5972(5) 0.0350(4) 0.9381(11)
H51 H 0.6281 0.0606 0.9428
H52 H 0.5776 0.0356 0.8705
O19 O 0.8523(6) 0.3847(5) 0.7683(10)
H53 H 0.8330 0.3665 0.7130
H54 H 0.8368 0.3774 0.8341
O20 O 0.9514(6) 0.4307(4) 0.1255(11)
H55 H 0.9556 0.4548 0.0715
H56 H 0.9081 0.4297 0.1492
O21 O 0.5797(6) 0.9961(6) 0.1807(11)
H57 H 0.5744 0.9836 0.1113
H58 H 0.5791 0.9696 0.2297
O22 O 0.5745(9) 0.1044(6) 0.2551(13)
H59 H 0.5464 0.1155 0.2015
H60 H 0.5683 0.1235 0.3169
O23 O 0.9751(10) 0.3590(7) 0.9234(14)
H61 H 0.9687 0.3801 0.9820
H62 H 0.9402 0.3669 0.8785
loop_
_geom_bond_atom_site_label_1
_geom_bond_atom_site_label_2
_geom_bond_site_symmetry_1
_geom_bond_site_symmetry_2
Co1 N7 1_555 1_555
Co2 N4 1_555 1_555
C1 C2 1_555 1_555
C2 H1 1_555 1_555
C3 C2 1_555 1_555
H2 C3 1_555 1_555
H3 C3 1_555 1_555
H4 C3 1_555 1_555
C4 C5 1_555 1_555
C5 C6 1_555 1_555
C6 H5 1_555 1_555
C7 C6 1_555 1_555
C8 C7 1_555 1_555
H6 C8 1_555 1_555
C9 C8 1_555 1_555
C10 C5 1_555 1_555
H7 C10 1_555 1_555
C11 C7 1_555 1_555
C12 H8 1_555 1_555
H9 C12 1_555 1_555
H10 C12 1_555 1_555
C13 C12 1_555 1_555
H11 C13 1_555 1_555
C14 C13 1_555 1_555
C15 C9 1_555 1_555
C16 H12 1_555 1_555
H13 C16 1_555 1_555
H14 C16 1_555 1_555
C17 C16 1_555 1_555
H15 C17 1_555 1_555
C18 C17 1_555 1_555
C19 H16 1_555 1_555
C20 C19 1_555 1_555
H17 C20 1_555 1_555
C21 H18 1_555 1_555
C22 C21 1_555 1_555
H19 C22 1_555 1_555
C23 C19 1_555 1_555
C24 C23 1_555 1_555
C25 C24 1_555 1_555
H20 C25 1_555 1_555
C26 C25 1_555 1_555
H21 C26 1_555 1_555
C27 H22 1_555 1_555
C28 C24 1_555 1_555
H23 C28 1_555 1_555
C29 H24 1_555 1_555
C30 C29 1_555 1_555
H25 C30 1_555 1_555
C31 C30 1_555 1_555
C32 C31 1_555 1_555
H26 C32 1_555 1_555
C33 C32 1_555 1_555
H27 C33 1_555 1_555
C34 H28 1_555 1_555
C35 C34 1_555 1_555
H29 C35 1_555 1_555
C36 C35 1_555 1_555
C37 C36 1_555 1_555
C38 C37 1_555 1_555
H30 C38 1_555 1_555
C39 C38 1_555 1_555
H31 C39 1_555 1_555
N1 C2 1_555 1_555
H32 N1 1_555 1_555
N2 C11 1_555 1_555
H33 N2 1_555 1_555
N3 C15 1_555 1_555
H34 N3 1_555 1_555
N4 C20 1_555 1_555
N5 C26 1_555 1_555
N6 Co2 1_555 1_555
N7 C34 1_555 1_555
N8 C39 1_555 1_555
O1 Co1 1_555 1_555
O2 Co2 1_555 1_555
O3 C4 1_555 1_555
O4 C14 1_555 1_555
O5 C14 1_555 1_555
O6 C11 1_555 1_555
O7 C18 1_555 1_555
O8 C18 1_555 1_555
O9 C15 1_555 1_555
O10 H35 1_555 1_555
H36 O10 1_555 1_555
O11 H37 1_555 1_555
H38 O11 1_555 1_555
O12 H39 1_555 1_555
H40 O12 1_555 1_555
O13 H41 1_555 1_555
H42 O13 1_555 1_555
O14 H43 1_555 1_555
H44 O14 1_555 1_555
O15 H45 1_555 1_555
H46 O15 1_555 1_555
O16 H47 1_555 1_555
H48 O16 1_555 1_555
O17 H49 1_555 1_555
H50 O17 1_555 1_555
O18 H51 1_555 1_555
H52 O18 1_555 1_555
O19 H53 1_555 1_555
H54 O19 1_555 1_555
O20 H55 1_555 1_555
H56 O20 1_555 1_555
O21 H57 1_555 1_555
H58 O21 1_555 1_555
O22 H59 1_555 1_555
H60 O22 1_555 1_555
O23 H61 1_555 1_555
H62 O23 1_555 1_555
Co1_2 N8 1_555 1_555
Co1B O8 1_555 1_555
Co1B_2 O8A 1_555 1_555
Co2A N4A 1_555 1_555
Co2_2 N5 1_555 1_555
Co2B O7 1_555 1_555
Co2A_2 N6A 1_555 1_555
Co2C O7A 1_555 1_555
Co2_3 N4_2 1_555 1_555
C1A C2A 1_555 1_555
C2A H1A 1_555 1_555
C3A C2A 1_555 1_555
H2A C3A 1_555 1_555
H3A C3A 1_555 1_555
H4A C3A 1_555 1_555
C4A C5A 1_555 1_555
C5A C6A 1_555 1_555
C6A H5A 1_555 1_555
C7A C6A 1_555 1_555
C8A C7A 1_555 1_555
H6A C8A 1_555 1_555
C9A C8A 1_555 1_555
C10A C5A 1_555 1_555
H7A C10A 1_555 1_555
C11A C7A 1_555 1_555
C12A H8A 1_555 1_555
H9A C12A 1_555 1_555
H10A C12A 1_555 1_555
C13A C12A 1_555 1_555
H11A C13A 1_555 1_555
C14A C13A 1_555 1_555
C15A C9A 1_555 1_555
C16A H12A 1_555 1_555
H13A C16A 1_555 1_555
H14A C16A 1_555 1_555
C17A C16A 1_555 1_555
H15A C17A 1_555 1_555
C18A C17A 1_555 1_555
C19_2 H16_2 1_555 1_555
C20_2 C19_2 1_555 1_555
H17_2 C20_2 1_555 1_555
C21_2 H18_2 1_555 1_555
C22_2 C21_2 1_555 1_555
H19_2 C22_2 1_555 1_555
C23_2 C19_2 1_555 1_555
C24_2 C23_2 1_555 1_555
C25_2 C24_2 1_555 1_555
H20_2 C25_2 1_555 1_555
C26_2 C25_2 1_555 1_555
H21_2 C26_2 1_555 1_555
C27_2 H22_2 1_555 1_555
C28_2 C24_2 1_555 1_555
H23_2 C28_2 1_555 1_555
C29A H24A 1_555 1_555
C30A C29A 1_555 1_555
H25A C30A 1_555 1_555
C31A C31 1_555 1_555
C32A C31A 1_555 1_555
H26A C32A 1_555 1_555
C33A C32A 1_555 1_555
H27A C33A 1_555 1_555
C34A N7 1_555 1_555
H28A C34A 1_555 1_555
C35A C36 1_555 1_555
H29A C35A 1_555 1_555
C38A C37 1_555 1_555
H30A C38A 1_555 1_555
C39A N8 1_555 1_555
H31A C39A 1_555 1_555
N1A C2A 1_555 1_555
H32A N1A 1_555 1_555
N2A C11A 1_555 1_555
H33A N2A 1_555 1_555
N3A C15A 1_555 1_555
H34A N3A 1_555 1_555
N4_2 C20_2 1_555 1_555
N5_2 Co2 1_555 1_555
N5A Co2A 1_555 1_555
N6A C29A 1_555 1_555
N6A_2 Co2A 1_555 1_555
N8_2 Co1 1_555 1_555
O1A Co1 1_555 1_555
O2A Co2A 1_555 1_555
O3A C4A 1_555 1_555
O4A C14A 1_555 1_555
O5A C14A 1_555 1_555
O6A C11A 1_555 1_555
O7A C18A 1_555 1_555
O7B Co2 1_555 1_555
O7C Co2A 1_555 1_555
O8A C18A 1_555 1_555
O8B Co1 1_555 1_555
O8C Co1 1_555 1_555
O9A C15A 1_555 1_555
Co2 O1 1_555 1_555
C1 O1 1_555 1_555
C1 O2 1_555 1_555
C4 N1 1_555 1_555
C9 C10 1_555 1_555
C13 N2 1_555 1_555
C17 N3 1_555 1_555
C21 N4 1_555 1_555
C22 C23 1_555 1_555
C27 C28 1_555 1_555
C27 N5 1_555 1_555
C29 N6 1_555 1_555
C33 N6 1_555 1_555
Co2A O1A 1_555 1_555
C1A O1A 1_555 1_555
C1A O2A 1_555 1_555
C4A N1A 1_555 1_555
C9A C10A 1_555 1_555
C13A N2A 1_555 1_555
C17A N3A 1_555 1_555
C21_2 N4_2 1_555 1_555
C22_2 C23_2 1_555 1_555
C26_2 N5_2 1_555 1_555
C27_2 C28_2 1_555 1_555
C27_2 N5_2 1_555 1_555
C30A C31A 1_555 1_555
C33A N6A 1_555 1_555
C34A C35A 1_555 1_555
C38A C39A 1_555 1_555

#END
