
#######################################################################
#
#                 Cambridge Crystallographic Data Centre
#                                CCDC 
#
#######################################################################
#
# If this CIF has been generated from an entry in the Cambridge 
# Structural Database, then it will include bibliographic, chemical, 
# crystal, experimental, refinement or atomic coordinate data resulting 
# from the CCDC's data processing and validation procedures.
#
#######################################################################

data_PIXHOV
_chemical_formula_moiety         '(C28 H20 N2 O4 Zn1)n'
_symmetry_cell_setting           monoclinic
_symmetry_space_group_name_H-M   'P 2/n'
_symmetry_Int_Tables_number      13
_space_group_name_Hall           '-P 2yac'
loop_
_symmetry_equiv_pos_site_id
_symmetry_equiv_pos_as_xyz
1 x,y,z
2 1/2-x,y,1/2-z
3 -x,-y,-z
4 1/2+x,-y,1/2+z
_cell_length_a                   13.9519(9)
_cell_length_b                   7.6513(5)
_cell_length_c                   14.2991(10)
_cell_angle_alpha                90
_cell_angle_beta                 99.359(5)
_cell_angle_gamma                90
_cell_volume                     1506.11
loop_
_atom_site_label
_atom_site_type_symbol
_atom_site_fract_x
_atom_site_fract_y
_atom_site_fract_z
Zn1 Zn 0.7500 0.59944(8) 0.7500
N1 N 0.8136(2) 0.4163(4) 0.6760(3)
C1 C 0.7874(3) 0.3895(5) 0.5824(3)
H1 H 0.7508 0.4744 0.5462
C2 C 0.8128(3) 0.2411(5) 0.5382(3)
H2 H 0.7941 0.2288 0.4731
C3 C 0.8663(3) 0.1088(5) 0.5895(3)
C4 C 0.8941(3) 0.1377(5) 0.6859(3)
H3 H 0.9306 0.0548 0.7237
C5 C 0.8670(3) 0.2909(5) 0.7246(3)
H4 H 0.8872 0.3085 0.7891
C6 C 0.8912(3) -0.0507(5) 0.5431(3)
H5 H 0.8723 -0.0568 0.4777
C7 C 0.9378(3) -0.1873(5) 0.5844(3)
H6 H 0.9530 -0.1824 0.6502
C8 C 0.9690(3) -0.3467(5) 0.5397(3)
C9 C 0.9449(3) -0.3794(5) 0.4423(3)
H7 H 0.9073 -0.2997 0.4031
C10 C 1.0231(3) -0.4711(6) 0.5949(3)
H8 H 1.0384 -0.4524 0.6599
O1 O 0.8233(3) 0.7621(5) 0.8354(3)
O2 O 0.9400(4) 0.5894(6) 0.8744(5)
C11 C 0.9037(4) 0.7296(5) 0.8779(4)
C12 C 0.9541(3) 0.8688(4) 0.9415(3)
C13 C 1.0401(4) 0.8394(6) 0.9989(4)
H9 H 1.0682 0.7291 0.9998
C14 C 0.9125(4) 1.0292(6) 0.9432(4)
H10 H 0.8526 1.0514 0.9059
N1B N 1.1864(2) -1.4163(4) 0.3240(3)
C1B C 1.2126(3) -1.3895(5) 0.4176(3)
H1B H 1.2492 -1.4744 0.4538
C2B C 1.1872(3) -1.2411(5) 0.4618(3)
H2B H 1.2059 -1.2288 0.5269
C3B C 1.1337(3) -1.1088(5) 0.4105(3)
C4B C 1.1059(3) -1.1377(5) 0.3141(3)
H3B H 1.0694 -1.0548 0.2763
C5B C 1.1330(3) -1.2909(5) 0.2754(3)
H4B H 1.1128 -1.3085 0.2109
C6B C 1.1088(3) -0.9493(5) 0.4569(3)
H5B H 1.1277 -0.9432 0.5223
C7B C 1.0622(3) -0.8127(5) 0.4156(3)
H6B H 1.0470 -0.8176 0.3498
C8B C 1.0310(3) -0.6533(5) 0.4603(3)
C9B C 1.0551(3) -0.6206(5) 0.5577(3)
H7B H 1.0927 -0.7003 0.5969
C10B C 0.9769(3) -0.5289(6) 0.4051(3)
H8B H 0.9616 -0.5476 0.3401
O1B O 1.1767(3) 1.2379(5) 1.1646(3)
O2B O 1.0600(4) 1.4106(6) 1.1256(5)
C11B C 1.0963(4) 1.2704(5) 1.1221(4)
C12B C 1.0459(3) 1.1312(4) 1.0585(3)
C13B C 0.9599(4) 1.1606(6) 1.0011(4)
H9B H 0.9318 1.2709 1.0002
C14B C 1.0875(4) 0.9708(6) 1.0568(4)
H10B H 1.1474 0.9486 1.0941
Zn1B Zn 1.2500 -1.59944(8) 0.2500
Zn1B_2 Zn 1.2500 1.40056(8) 1.2500
N1A N 0.6864(2) 0.4163(4) 0.8240(3)
O1A O 0.6767(3) 0.7621(5) 0.6646(3)
loop_
_geom_bond_atom_site_label_1
_geom_bond_atom_site_label_2
_geom_bond_site_symmetry_1
_geom_bond_site_symmetry_2
Zn1 N1 1_555 1_555
N1 C1 1_555 1_555
C1 H1 1_555 1_555
C2 C1 1_555 1_555
H2 C2 1_555 1_555
C3 C2 1_555 1_555
C4 C3 1_555 1_555
H3 C4 1_555 1_555
C5 N1 1_555 1_555
H4 C5 1_555 1_555
C6 C3 1_555 1_555
H5 C6 1_555 1_555
C7 C6 1_555 1_555
H6 C7 1_555 1_555
C8 C7 1_555 1_555
C9 C8 1_555 1_555
H7 C9 1_555 1_555
C10 C8 1_555 1_555
H8 C10 1_555 1_555
O1 Zn1 1_555 1_555
O2 C11 1_555 1_555
C11 O1 1_555 1_555
C12 C11 1_555 1_555
C13 C12 1_555 1_555
H9 C13 1_555 1_555
C14 C12 1_555 1_555
H10 C14 1_555 1_555
N1B C1B 1_555 1_555
C1B H1B 1_555 1_555
C2B C1B 1_555 1_555
H2B C2B 1_555 1_555
C3B C2B 1_555 1_555
C4B C3B 1_555 1_555
H3B C4B 1_555 1_555
C5B N1B 1_555 1_555
H4B C5B 1_555 1_555
C6B C3B 1_555 1_555
H5B C6B 1_555 1_555
C7B C6B 1_555 1_555
H6B C7B 1_555 1_555
C8B C7B 1_555 1_555
C9B C10 1_555 1_555
H7B C9B 1_555 1_555
C10B C9 1_555 1_555
H8B C10B 1_555 1_555
O1B C11B 1_555 1_555
O2B C11B 1_555 1_555
C11B C12B 1_555 1_555
C12B C13B 1_555 1_555
C13B C14 1_555 1_555
H9B C13B 1_555 1_555
C14B C13 1_555 1_555
H10B C14B 1_555 1_555
Zn1B N1B 1_555 1_555
Zn1B_2 O1B 1_555 1_555
N1A Zn1 1_555 1_555
O1A Zn1 1_555 1_555
C4 C5 1_555 1_555
C4B C5B 1_555 1_555
C8B C9B 1_555 1_555
C8B C10B 1_555 1_555
C12B C14B 1_555 1_555

#END
