
#######################################################################
#
#                 Cambridge Crystallographic Data Centre
#                                CCDC 
#
#######################################################################
#
# If this CIF has been generated from an entry in the Cambridge 
# Structural Database, then it will include bibliographic, chemical, 
# crystal, experimental, refinement or atomic coordinate data resulting 
# from the CCDC's data processing and validation procedures.
#
#######################################################################

data_PIXPET
_chemical_formula_moiety         '(C28 H20 N2 O4 Zn1)n'
_symmetry_cell_setting           monoclinic
_symmetry_space_group_name_H-M   'P 2/n'
_symmetry_Int_Tables_number      13
_space_group_name_Hall           '-P 2yac'
loop_
_symmetry_equiv_pos_site_id
_symmetry_equiv_pos_as_xyz
1 x,y,z
2 1/2-x,y,1/2-z
3 -x,-y,-z
4 1/2+x,-y,1/2+z
_cell_length_a                   13.9159(4)
_cell_length_b                   7.6229(2)
_cell_length_c                   14.2827(4)
_cell_angle_alpha                90
_cell_angle_beta                 99.271(2)
_cell_angle_gamma                90
_cell_volume                     1495.31
loop_
_atom_site_label
_atom_site_type_symbol
_atom_site_fract_x
_atom_site_fract_y
_atom_site_fract_z
Zn1 Zn 0.7500 0.59980(7) 0.7500
N1 N 0.8138(2) 0.4155(3) 0.6761(2)
C1 C 0.7871(3) 0.3892(4) 0.5815(3)
H1 H 0.7497 0.4768 0.5448
C2 C 0.8119(2) 0.2423(5) 0.5374(2)
H2 H 0.7920 0.2296 0.4709
C3 C 0.8665(3) 0.1091(4) 0.5885(3)
C4 C 0.8935(3) 0.1392(5) 0.6849(3)
H3 H 0.9303 0.0535 0.7235
C5 C 0.8675(3) 0.2909(5) 0.7247(2)
H4 H 0.8888 0.3087 0.7906
C6 C 0.8912(3) -0.0505(5) 0.5431(3)
H5 H 0.8710 -0.0583 0.4764
C7 C 0.9393(3) -0.1870(5) 0.5849(2)
H6 H 0.9562 -0.1814 0.6519
C8 C 0.9692(2) -0.3449(5) 0.5396(2)
C9 C 0.9456(3) -0.3802(4) 0.4422(2)
H7 H 0.9083 -0.2976 0.4018
C10 C 1.0244(3) -0.4692(5) 0.5951(2)
H8 H 1.0420 -0.4484 0.6612
O1 O 0.8231(2) 0.7626(4) 0.8343(2)
O2 O 0.9406(5) 0.5871(5) 0.8733(5)
C11 C 0.9043(4) 0.7291(5) 0.8771(3)
C12 C 0.9549(3) 0.8689(4) 0.9410(3)
C13 C 1.0414(3) 0.8380(6) 1.0000(4)
H9 H 1.0700 0.7246 1.0015
C14 C 0.9127(3) 1.0312(6) 0.9433(3)
H10 H 0.8513 1.0534 0.9053
N1B N 1.1862(2) -1.4155(3) 0.3239(2)
C1B C 1.2129(3) -1.3892(4) 0.4185(3)
H1B H 1.2503 -1.4768 0.4552
C2B C 1.1881(2) -1.2423(5) 0.4626(2)
H2B H 1.2080 -1.2296 0.5291
C3B C 1.1335(3) -1.1091(4) 0.4115(3)
C4B C 1.1065(3) -1.1392(5) 0.3151(3)
H3B H 1.0697 -1.0535 0.2765
C5B C 1.1325(3) -1.2909(5) 0.2753(2)
H4B H 1.1112 -1.3087 0.2094
C6B C 1.1088(3) -0.9495(5) 0.4569(3)
H5B H 1.1290 -0.9417 0.5236
C7B C 1.0607(3) -0.8130(5) 0.4151(2)
H6B H 1.0438 -0.8186 0.3481
C8B C 1.0308(2) -0.6551(5) 0.4604(2)
C9B C 1.0544(3) -0.6198(4) 0.5578(2)
H7B H 1.0917 -0.7024 0.5982
C10B C 0.9756(3) -0.5308(5) 0.4049(2)
H8B H 0.9580 -0.5516 0.3388
O1B O 1.1769(2) 1.2374(4) 1.1657(2)
O2B O 1.0594(5) 1.4129(5) 1.1267(5)
C11B C 1.0957(4) 1.2709(5) 1.1229(3)
C12B C 1.0451(3) 1.1311(4) 1.0590(3)
C13B C 0.9586(3) 1.1620(6) 1.0000(4)
H9B H 0.9300 1.2754 0.9985
C14B C 1.0873(3) 0.9688(6) 1.0567(3)
H10B H 1.1487 0.9466 1.0947
Zn1B Zn 1.2500 -1.59980(7) 0.2500
Zn1B_2 Zn 1.2500 1.40020(7) 1.2500
N1A N 0.6862(2) 0.4155(3) 0.8239(2)
O1A O 0.6769(2) 0.7626(4) 0.6657(2)
loop_
_geom_bond_atom_site_label_1
_geom_bond_atom_site_label_2
_geom_bond_site_symmetry_1
_geom_bond_site_symmetry_2
Zn1 N1 1_555 1_555
N1 C1 1_555 1_555
C1 H1 1_555 1_555
C2 C1 1_555 1_555
H2 C2 1_555 1_555
C3 C2 1_555 1_555
C4 C3 1_555 1_555
H3 C4 1_555 1_555
C5 N1 1_555 1_555
H4 C5 1_555 1_555
C6 C3 1_555 1_555
H5 C6 1_555 1_555
C7 C6 1_555 1_555
H6 C7 1_555 1_555
C8 C7 1_555 1_555
C9 C8 1_555 1_555
H7 C9 1_555 1_555
C10 C8 1_555 1_555
H8 C10 1_555 1_555
O1 Zn1 1_555 1_555
O2 C11 1_555 1_555
C11 O1 1_555 1_555
C12 C11 1_555 1_555
C13 C12 1_555 1_555
H9 C13 1_555 1_555
C14 C12 1_555 1_555
H10 C14 1_555 1_555
N1B C1B 1_555 1_555
C1B H1B 1_555 1_555
C2B C1B 1_555 1_555
H2B C2B 1_555 1_555
C3B C2B 1_555 1_555
C4B C3B 1_555 1_555
H3B C4B 1_555 1_555
C5B N1B 1_555 1_555
H4B C5B 1_555 1_555
C6B C3B 1_555 1_555
H5B C6B 1_555 1_555
C7B C6B 1_555 1_555
H6B C7B 1_555 1_555
C8B C7B 1_555 1_555
C9B C10 1_555 1_555
H7B C9B 1_555 1_555
C10B C9 1_555 1_555
H8B C10B 1_555 1_555
O1B C11B 1_555 1_555
O2B C11B 1_555 1_555
C11B C12B 1_555 1_555
C12B C13B 1_555 1_555
C13B C14 1_555 1_555
H9B C13B 1_555 1_555
C14B C13 1_555 1_555
H10B C14B 1_555 1_555
Zn1B N1B 1_555 1_555
Zn1B_2 O1B 1_555 1_555
N1A Zn1 1_555 1_555
O1A Zn1 1_555 1_555
C4 C5 1_555 1_555
C4B C5B 1_555 1_555
C8B C9B 1_555 1_555
C8B C10B 1_555 1_555
C12B C14B 1_555 1_555

#END
