
#######################################################################
#
#                 Cambridge Crystallographic Data Centre
#                                CCDC 
#
#######################################################################
#
# If this CIF has been generated from an entry in the Cambridge 
# Structural Database, then it will include bibliographic, chemical, 
# crystal, experimental, refinement or atomic coordinate data resulting 
# from the CCDC's data processing and validation procedures.
#
#######################################################################

data_KUYGOC
_chemical_formula_moiety         '(C96 H60 Cd4 O24)n'
_symmetry_cell_setting           monoclinic
_symmetry_space_group_name_H-M   'C 2'
_symmetry_Int_Tables_number      5
_space_group_name_Hall           'C 2y'
loop_
_symmetry_equiv_pos_site_id
_symmetry_equiv_pos_as_xyz
1 x,y,z
2 -x,y,-z
3 1/2+x,1/2+y,z
4 1/2-x,1/2+y,-z
_cell_length_a                   43.6263(18)
_cell_length_b                   13.2340(7)
_cell_length_c                   13.8249(7)
_cell_angle_alpha                90
_cell_angle_beta                 108.465(3)
_cell_angle_gamma                90
_cell_volume                     7570.89
loop_
_atom_site_label
_atom_site_type_symbol
_atom_site_fract_x
_atom_site_fract_y
_atom_site_fract_z
Cd1 Cd 0.98348(3) 0.18234(15) 0.23430(11)
Cd2 Cd 1.0000 0.1516(2) 0.5000
Cd3 Cd 1.0000 0.2074(3) 1.0000
O1 O 0.9576(3) 0.1487(11) 0.3475(10)
O2 O 0.9375(3) 0.2681(11) 0.2382(15)
O3 O 0.9793(5) 0.3348(16) 0.8980(16)
C1 C 0.9375(4) 0.1501(14) 1.0451(11)
C2 C 0.7524(2) 0.0924(11) 0.4069(10)
C3 C 0.7549(3) 0.1024(13) 0.3095(9)
C4 C 0.7842(4) 0.1284(14) 0.2971(8)
H1 H 0.7859 0.1352 0.2305
C5 C 0.8112(3) 0.1446(13) 0.3820(10)
C6 C 0.8088(2) 0.1346(8) 0.4794(8)
C7 C 0.7794(2) 0.1085(7) 0.4919(8)
C8 C 0.7769(3) 0.0986(11) 0.5893(9)
H2 H 0.7568 0.0808 0.5978
C9 C 0.8039(4) 0.1147(12) 0.6742(8)
H3 H 0.8022 0.1079 0.7408
C10 C 0.8333(3) 0.1408(11) 0.6618(9)
C11 C 0.8357(2) 0.1507(11) 0.5644(10)
H4 H 0.8558 0.1685 0.5559
C12 C 0.8443(4) 0.1586(18) 0.3589(16)
C13 C 0.8703(5) 0.0958(15) 0.4057(14)
H5 H 0.8676 0.0405 0.4461
C14 C 0.9002(4) 0.1140(14) 0.3933(14)
H6 H 0.9180 0.0711 0.4252
C15 C 0.9041(3) 0.1949(14) 0.3341(14)
C16 C 0.8781(4) 0.2577(14) 0.2874(14)
H7 H 0.8807 0.3130 0.2470
C17 C 0.8481(4) 0.2395(17) 0.2998(16)
H8 H 0.8303 0.2824 0.2678
C18 C 0.9352(4) 0.2084(14) 0.3079(13)
C19 C 0.7202(2) 0.0684(12) 0.4306(12)
C20 C 0.7157(3) -0.0352(12) 0.4357(12)
C21 C 0.6853(4) -0.0733(9) 0.4269(12)
H9 H 0.6822 -0.1441 0.4304
C22 C 0.6593(3) -0.0078(8) 0.4131(11)
C23 C 0.6638(2) 0.0958(8) 0.4080(6)
C24 C 0.6943(2) 0.1339(9) 0.4168(8)
C25 C 0.6988(3) 0.2375(10) 0.4117(12)
H10 H 0.7196 0.2636 0.4177
C26 C 0.6728(4) 0.3030(8) 0.3979(11)
H11 H 0.6759 0.3738 0.3944
C27 C 0.6423(3) 0.2649(9) 0.3891(9)
C28 C 0.6378(2) 0.1612(9) 0.3942(8)
H12 H 0.6170 0.1352 0.3882
C29 C 0.5318(4) 0.5301(13) 0.3373(16)
C30 C 0.6158(4) 0.3418(14) 0.3862(17)
C31 C 0.5971(4) 0.3323(12) 0.4506(14)
H13 H 0.6024 0.2825 0.5029
C32 C 0.5708(4) 0.3955(13) 0.4386(12)
H14 H 0.5580 0.3890 0.4826
C33 C 0.5630(4) 0.4683(12) 0.3621(13)
C34 C 0.5817(5) 0.4778(15) 0.2977(14)
H15 H 0.5764 0.5275 0.2454
C35 C 0.6081(5) 0.4145(18) 0.3097(16)
H16 H 0.6209 0.4211 0.2657
C36 C 0.5357(4) -0.1909(13) 0.3693(16)
C37 C 0.8606(3) 0.0706(13) 0.8407(14)
H17 H 0.8433 0.0248 0.8333
C38 C 0.8849(4) 0.0794(11) 0.9339(11)
H18 H 0.8842 0.0395 0.9902
C39 C 0.9103(3) 0.1465(12) 0.9447(10)
C40 C 0.9114(4) 0.2049(13) 0.8622(13)
H19 H 0.9287 0.2508 0.8696
C41 C 0.8871(5) 0.1961(16) 0.7690(11)
H20 H 0.8878 0.2360 0.7127
C42 C 0.8617(4) 0.1290(17) 0.7582(10)
O4 O 0.5256(5) 0.5517(15) 0.2402(15)
C43 C 0.6226(3) -0.0392(14) 0.3690(17)
C44 C 0.5967(4) -0.0453(13) 0.2792(14)
H21 H 0.5982 -0.0144 0.2188
C45 C 0.5688(3) -0.0967(12) 0.2778(11)
H22 H 0.5511 -0.1009 0.2164
C46 C 0.5667(4) -0.1420(13) 0.3662(13)
C47 C 0.5925(5) -0.1359(15) 0.4560(11)
H23 H 0.5911 -0.1668 0.5165
C48 C 0.6205(4) -0.0845(16) 0.4574(14)
H24 H 0.6381 -0.0803 0.5188
O5 O 0.5202(5) 0.5410(14) 0.4132(15)
O6 O 0.5139(4) -0.1794(12) 0.2809(13)
O7 O 0.9585(3) 0.2206(9) 1.0649(8)
O8 O 0.9401(4) 0.0885(12) 1.1178(12)
O9 O 0.5303(5) -0.2272(14) 0.4495(15)
O10 O 0.7323(5) 0.1108(18) 0.2189(14)
O11 O 0.7404(6) -0.091(2) 0.433(2)
O12 O 1.0332(5) 0.1077(15) 1.1163(15)
Cd1A Cd 1.01652(3) 0.18234(15) 0.76570(11)
O1A O 1.0424(3) 0.1487(11) 0.6525(10)
O2A O 1.0625(3) 0.2681(11) 0.7618(15)
C1A C 1.0625(4) 0.1501(14) -0.0451(11)
C2A C 1.2476(2) 0.0924(11) 0.5931(10)
C3A C 1.2451(3) 0.1024(13) 0.6905(9)
C4A C 1.2158(4) 0.1284(14) 0.7029(8)
H1A H 1.2141 0.1352 0.7695
C5A C 1.1888(3) 0.1446(13) 0.6180(10)
C6A C 1.1912(2) 0.1346(8) 0.5206(8)
C7A C 1.2206(2) 0.1085(7) 0.5081(8)
C8A C 1.2231(3) 0.0986(11) 0.4107(9)
H2A H 1.2432 0.0808 0.4022
C9A C 1.1961(4) 0.1147(12) 0.3258(8)
H3A H 1.1978 0.1079 0.2592
C10A C 1.1667(3) 0.1408(11) 0.3382(9)
C11A C 1.1643(2) 0.1507(11) 0.4356(10)
H4A H 1.1442 0.1685 0.4441
C12A C 1.1557(4) 0.1586(18) 0.6411(16)
C13A C 1.1297(5) 0.0958(15) 0.5943(14)
H5A H 1.1324 0.0405 0.5539
C14A C 1.0998(4) 0.1140(14) 0.6067(14)
H6A H 1.0820 0.0711 0.5748
C15A C 1.0959(3) 0.1949(14) 0.6659(14)
C16A C 1.1219(4) 0.2577(14) 0.7126(14)
H7A H 1.1193 0.3130 0.7530
C17A C 1.1519(4) 0.2395(17) 0.7002(16)
H8A H 1.1697 0.2824 0.7322
C18A C 1.0648(4) 0.2084(14) 0.6921(13)
C19A C 1.2798(2) 0.0684(12) 0.5694(12)
C20A C 1.2843(3) -0.0352(12) 0.5643(12)
C21A C 1.3147(4) -0.0733(9) 0.5731(12)
H9A H 1.3178 -0.1441 0.5696
C22A C 1.3407(3) -0.0078(8) 0.5869(11)
C23A C 1.3362(2) 0.0958(8) 0.5920(6)
C24A C 1.3057(2) 0.1339(9) 0.5832(8)
C25A C 1.3012(3) 0.2375(10) 0.5883(12)
H10A H 1.2804 0.2636 0.5823
C26A C 1.3272(4) 0.3030(8) 0.6021(11)
H11A H 1.3241 0.3738 0.6056
C27A C 1.3577(3) 0.2649(9) 0.6109(9)
C28A C 1.3622(2) 0.1612(9) 0.6058(8)
H12A H 1.3830 0.1352 0.6118
C29A C 1.4682(4) 0.5301(13) 0.6627(16)
C30A C 1.3842(4) 0.3418(14) 0.6138(17)
C31A C 1.4029(4) 0.3323(12) 0.5494(14)
H13A H 1.3976 0.2825 0.4971
C32A C 1.4292(4) 0.3955(13) 0.5614(12)
H14A H 1.4420 0.3890 0.5174
C33A C 1.4370(4) 0.4683(12) 0.6379(13)
C34A C 1.4183(5) 0.4778(15) 0.7023(14)
H15A H 1.4236 0.5275 0.7546
C35A C 1.3919(5) 0.4145(18) 0.6903(16)
H16A H 1.3791 0.4211 0.7343
C36A C 1.4643(4) -0.1909(13) 0.6307(16)
C37A C 1.1394(3) 0.0706(13) 0.1593(14)
H17A H 1.1567 0.0248 0.1667
C38A C 1.1151(4) 0.0794(11) 0.0661(11)
H18A H 1.1158 0.0395 0.0098
C39A C 1.0897(3) 0.1465(12) 0.0553(10)
C40A C 1.0886(4) 0.2049(13) 0.1378(13)
H19A H 1.0713 0.2508 0.1304
C41A C 1.1129(5) 0.1961(16) 0.2310(11)
H20A H 1.1122 0.2360 0.2873
C42A C 1.1383(4) 0.1290(17) 0.2418(10)
O4A O 1.4744(5) 0.5517(15) 0.7598(15)
C43A C 1.3774(3) -0.0392(14) 0.6310(17)
C44A C 1.4033(4) -0.0453(13) 0.7208(14)
H21A H 1.4018 -0.0144 0.7812
C45A C 1.4312(3) -0.0967(12) 0.7222(11)
H22A H 1.4489 -0.1009 0.7836
C46A C 1.4333(4) -0.1420(13) 0.6338(13)
C47A C 1.4075(5) -0.1359(15) 0.5440(11)
H23A H 1.4089 -0.1668 0.4835
C48A C 1.3795(4) -0.0845(16) 0.5426(14)
H24A H 1.3619 -0.0803 0.4812
O5A O 1.4798(5) 0.5410(14) 0.5868(15)
O6A O 1.4861(4) -0.1794(12) 0.7191(13)
O7A O 1.0415(3) 0.2206(9) -0.0649(8)
O8A O 1.0599(4) 0.0885(12) -0.1178(12)
O9A O 1.4697(5) -0.2272(14) 0.5505(15)
O10A O 1.2677(5) 0.1108(18) 0.7811(14)
O11A O 1.2596(6) -0.091(2) 0.567(2)
O3A O 1.0207(5) 0.3348(16) 1.1020(16)
O12A O 0.9668(5) 0.1077(15) 0.8837(15)
Cd1_2 Cd 0.98348(3) 0.18234(15) 1.23430(11)
Cd1A_2 Cd 1.01652(3) 0.18234(15) -0.23430(11)
Cd1B Cd 0.48348(3) -0.31766(15) 0.23430(11)
Cd1B_2 Cd 0.48348(3) 0.68234(15) 0.23430(11)
Cd1C Cd 1.51652(3) -0.31766(15) 0.76570(11)
Cd1C_2 Cd 1.51652(3) 0.68234(15) 0.76570(11)
Cd2B Cd 0.5000 -0.3484(2) 0.5000
Cd2B_2 Cd 0.5000 0.6516(2) 0.5000
Cd2B_3 Cd 1.5000 -0.3484(2) 0.5000
Cd2B_4 Cd 1.5000 0.6516(2) 0.5000
Cd3_2 Cd 1.0000 0.2074(3) 0.0000
O4B O 1.0256(5) 0.0517(15) 0.2402(15)
O4C O 0.9744(5) 0.0517(15) 0.7598(15)
O5B O 1.0202(5) 0.0410(14) 0.4132(15)
O5C O 0.9798(5) 0.0410(14) 0.5868(15)
O6B O 1.0139(4) 0.3206(12) 0.2809(13)
O6C O 0.9861(4) 0.3206(12) 0.7191(13)
O7_2 O 0.9585(3) 0.2206(9) 0.0649(8)
O7A_2 O 1.0415(3) 0.2206(9) 0.9351(8)
O8_2 O 0.9401(4) 0.0885(12) 0.1178(12)
O8A_2 O 1.0599(4) 0.0885(12) 0.8822(12)
O9B O 1.0303(5) 0.2728(14) 0.4495(15)
O9C O 0.9697(5) 0.2728(14) 0.5505(15)
loop_
_geom_bond_atom_site_label_1
_geom_bond_atom_site_label_2
_geom_bond_site_symmetry_1
_geom_bond_site_symmetry_2
Cd1 O1 1_555 1_555
Cd2 O1 1_555 1_555
Cd3 O3 1_555 1_555
O1 C18 1_555 1_555
O2 Cd1 1_555 1_555
C1 C39 1_555 1_555
C2 C3 1_555 1_555
C3 C4 1_555 1_555
C4 H1 1_555 1_555
C5 C4 1_555 1_555
C6 C5 1_555 1_555
C7 C2 1_555 1_555
C8 C7 1_555 1_555
H2 C8 1_555 1_555
C9 C8 1_555 1_555
H3 C9 1_555 1_555
C10 C9 1_555 1_555
C11 C6 1_555 1_555
H4 C11 1_555 1_555
C12 C5 1_555 1_555
C13 C12 1_555 1_555
H5 C13 1_555 1_555
C14 C13 1_555 1_555
H6 C14 1_555 1_555
C15 C14 1_555 1_555
C16 C15 1_555 1_555
H7 C16 1_555 1_555
C17 C12 1_555 1_555
H8 C17 1_555 1_555
C18 O2 1_555 1_555
C19 C2 1_555 1_555
C20 C19 1_555 1_555
C21 C20 1_555 1_555
H9 C21 1_555 1_555
C22 C21 1_555 1_555
C23 C22 1_555 1_555
C24 C19 1_555 1_555
C25 C24 1_555 1_555
H10 C25 1_555 1_555
C26 C25 1_555 1_555
H11 C26 1_555 1_555
C27 C26 1_555 1_555
C28 C23 1_555 1_555
H12 C28 1_555 1_555
C29 C33 1_555 1_555
C30 C27 1_555 1_555
C31 C30 1_555 1_555
H13 C31 1_555 1_555
C32 C31 1_555 1_555
H14 C32 1_555 1_555
C33 C32 1_555 1_555
C34 C33 1_555 1_555
H15 C34 1_555 1_555
C35 C30 1_555 1_555
H16 C35 1_555 1_555
C36 C46 1_555 1_555
C37 H17 1_555 1_555
C38 C37 1_555 1_555
H18 C38 1_555 1_555
C39 C38 1_555 1_555
C40 C39 1_555 1_555
H19 C40 1_555 1_555
C41 C40 1_555 1_555
H20 C41 1_555 1_555
C42 C10 1_555 1_555
O4 C29 1_555 1_555
C43 C22 1_555 1_555
C44 C43 1_555 1_555
H21 C44 1_555 1_555
C45 C44 1_555 1_555
H22 C45 1_555 1_555
C46 C45 1_555 1_555
C47 C46 1_555 1_555
H23 C47 1_555 1_555
C48 C43 1_555 1_555
H24 C48 1_555 1_555
O5 C29 1_555 1_555
O6 C36 1_555 1_555
O7 Cd3 1_555 1_555
O8 C1 1_555 1_555
O9 C36 1_555 1_555
O10 C3 1_555 1_555
O11 C20 1_555 1_555
O12 Cd3 1_555 1_555
Cd1A O1A 1_555 1_555
O1A Cd2 1_555 1_555
O2A Cd1A 1_555 1_555
C1A C39A 1_555 1_555
C2A C3A 1_555 1_555
C3A C4A 1_555 1_555
C4A H1A 1_555 1_555
C5A C4A 1_555 1_555
C6A C5A 1_555 1_555
C7A C2A 1_555 1_555
C8A C7A 1_555 1_555
H2A C8A 1_555 1_555
C9A C8A 1_555 1_555
H3A C9A 1_555 1_555
C10A C9A 1_555 1_555
C11A C6A 1_555 1_555
H4A C11A 1_555 1_555
C12A C5A 1_555 1_555
C13A C12A 1_555 1_555
H5A C13A 1_555 1_555
C14A C13A 1_555 1_555
H6A C14A 1_555 1_555
C15A C14A 1_555 1_555
C16A C15A 1_555 1_555
H7A C16A 1_555 1_555
C17A C12A 1_555 1_555
H8A C17A 1_555 1_555
C18A O1A 1_555 1_555
C19A C2A 1_555 1_555
C20A C19A 1_555 1_555
C21A C20A 1_555 1_555
H9A C21A 1_555 1_555
C22A C21A 1_555 1_555
C23A C22A 1_555 1_555
C24A C19A 1_555 1_555
C25A C24A 1_555 1_555
H10A C25A 1_555 1_555
C26A C25A 1_555 1_555
H11A C26A 1_555 1_555
C27A C26A 1_555 1_555
C28A C23A 1_555 1_555
H12A C28A 1_555 1_555
C29A C33A 1_555 1_555
C30A C27A 1_555 1_555
C31A C30A 1_555 1_555
H13A C31A 1_555 1_555
C32A C31A 1_555 1_555
H14A C32A 1_555 1_555
C33A C32A 1_555 1_555
C34A C33A 1_555 1_555
H15A C34A 1_555 1_555
C35A C30A 1_555 1_555
H16A C35A 1_555 1_555
C36A C46A 1_555 1_555
C37A H17A 1_555 1_555
C38A C37A 1_555 1_555
H18A C38A 1_555 1_555
C39A C38A 1_555 1_555
C40A C39A 1_555 1_555
H19A C40A 1_555 1_555
C41A C40A 1_555 1_555
H20A C41A 1_555 1_555
C42A C10A 1_555 1_555
O4A C29A 1_555 1_555
C43A C22A 1_555 1_555
C44A C43A 1_555 1_555
H21A C44A 1_555 1_555
C45A C44A 1_555 1_555
H22A C45A 1_555 1_555
C46A C45A 1_555 1_555
C47A C46A 1_555 1_555
H23A C47A 1_555 1_555
C48A C43A 1_555 1_555
H24A C48A 1_555 1_555
O5A C29A 1_555 1_555
O6A C36A 1_555 1_555
O7A C1A 1_555 1_555
O8A C1A 1_555 1_555
O9A C36A 1_555 1_555
O10A C3A 1_555 1_555
O11A C20A 1_555 1_555
O3A Cd3 1_555 1_555
O12A Cd3 1_555 1_555
Cd1_2 O7 1_555 1_555
Cd1A_2 O7A 1_555 1_555
Cd1B O6 1_555 1_555
Cd1B_2 O4 1_555 1_555
Cd1C O6A 1_555 1_555
Cd1C_2 O4A 1_555 1_555
Cd2B O9 1_555 1_555
Cd2B_2 O5 1_555 1_555
Cd2B_3 O9A 1_555 1_555
Cd2B_4 O5A 1_555 1_555
Cd3_2 O7A 1_555 1_555
O4B Cd1 1_555 1_555
O4C Cd1A 1_555 1_555
O5B Cd2 1_555 1_555
O5C Cd2 1_555 1_555
O6B Cd1 1_555 1_555
O6C Cd1A 1_555 1_555
O7_2 Cd1 1_555 1_555
O7A_2 Cd3 1_555 1_555
O8_2 Cd1 1_555 1_555
O8A_2 Cd1A 1_555 1_555
O9B Cd2 1_555 1_555
O9C Cd2 1_555 1_555
C1 O7 1_555 1_555
C6 C7 1_555 1_555
C10 C11 1_555 1_555
C15 C18 1_555 1_555
C16 C17 1_555 1_555
C23 C24 1_555 1_555
C27 C28 1_555 1_555
C34 C35 1_555 1_555
C37 C42 1_555 1_555
C41 C42 1_555 1_555
C47 C48 1_555 1_555
O8 Cd1_2 1_555 1_555
Cd1A O7A_2 1_555 1_555
O2A C18A 1_555 1_555
C6A C7A 1_555 1_555
C10A C11A 1_555 1_555
C15A C18A 1_555 1_555
C16A C17A 1_555 1_555
C23A C24A 1_555 1_555
C27A C28A 1_555 1_555
C34A C35A 1_555 1_555
C37A C42A 1_555 1_555
C41A C42A 1_555 1_555
C47A C48A 1_555 1_555
O8A Cd1A_2 1_555 1_555
Cd3_2 O7_2 1_555 1_555

#END
