
#######################################################################
#
#                 Cambridge Crystallographic Data Centre
#                                CCDC 
#
#######################################################################
#
# If this CIF has been generated from an entry in the Cambridge 
# Structural Database, then it will include bibliographic, chemical, 
# crystal, experimental, refinement or atomic coordinate data resulting 
# from the CCDC's data processing and validation procedures.
#
#######################################################################

data_IJODES
_chemical_formula_moiety         '(C38 H40 N12 O19 Zn3)n'
_symmetry_cell_setting           monoclinic
_symmetry_space_group_name_H-M   'P 2/c'
_symmetry_Int_Tables_number      13
_space_group_name_Hall           '-P 2yc'
loop_
_symmetry_equiv_pos_site_id
_symmetry_equiv_pos_as_xyz
1 x,y,z
2 -x,y,1/2-z
3 -x,-y,-z
4 x,-y,1/2+z
_cell_length_a                   13.0360(5)
_cell_length_b                   12.2948(5)
_cell_length_c                   18.7055(9)
_cell_angle_alpha                90
_cell_angle_beta                 123.019(3)
_cell_angle_gamma                90
_cell_volume                     2513.81
loop_
_atom_site_label
_atom_site_type_symbol
_atom_site_fract_x
_atom_site_fract_y
_atom_site_fract_z
Zn1 Zn -0.40007(7) -0.30748(6) 0.12625(4)
Zn2 Zn -0.5000 -0.31303(9) 0.2500
C1 C -0.3887(7) -0.4124(6) -0.0170(4)
H1 H -0.3626 -0.4795 0.0102
C2 C -0.4073(7) -0.3876(5) -0.0933(4)
H2 H -0.3982 -0.4339 -0.1288
C3 C -0.4474(7) -0.2433(5) -0.0420(4)
H3 H -0.4706 -0.1734 -0.0375
C4 C -0.4707(6) -0.2159(5) -0.1818(4)
C5 C -0.4664(6) -0.1048(6) -0.1770(4)
H4 H -0.4416 -0.0692 -0.1262
C6 C -0.5000 -0.0472(8) -0.2500
H5 H -0.5000 0.0285 -0.2500
C7 C -0.1769(6) -0.8143(5) 0.2567(4)
C8 C 0.0085(6) -0.7084(5) 0.3467(4)
C9 C 0.0189(6) -0.9064(5) 0.3516(4)
C10 C -0.1837(7) -0.6179(5) 0.2458(5)
H6 H -0.2455 -0.6316 0.1862
H7 H -0.1295 -0.5619 0.2482
C11 C -0.2450(6) -0.5771(5) 0.2892(4)
H8 H -0.1830 -0.5594 0.3480
H9 H -0.2959 -0.6344 0.2895
C12 C -0.3227(6) -0.4780(5) 0.2461(4)
C13 C 0.2050(6) -0.8016(6) 0.4328(4)
H10 H 0.2344 -0.7382 0.4182
H11 H 0.2391 -0.8654 0.4227
C14 C 0.2526(7) -0.7965(7) 0.5276(4)
H12 H 0.2192 -0.7338 0.5396
H13 H 0.2300 -0.8617 0.5451
C15 C 0.3898(7) -0.7875(6) 0.5738(4)
C16 C -0.1651(7) -1.0133(5) 0.2568(4)
H14 H -0.1082 -1.0639 0.2567
H15 H -0.2328 -1.0032 0.1983
C17 C -0.2134(6) -1.0626(5) 0.3075(4)
H16 H -0.1453 -1.0849 0.3632
H17 H -0.2601 -1.0084 0.3158
C18 C -0.2938(6) -1.1599(5) 0.2613(4)
O1 O -0.3738(4) -0.4328(3) 0.2783(3)
O2 O -0.3295(5) -0.4479(4) 0.1793(3)
O3 O 0.4482(5) -0.8553(5) 0.5636(4)
O4 O 0.4414(4) -0.6982(4) 0.6186(3)
O5 O -0.3703(4) -1.1899(3) 0.2792(3)
O6 O -0.2791(5) -1.2054(4) 0.2069(3)
O7 O -0.2850(5) -0.8192(4) 0.2062(3)
O8 O 0.0580(5) -0.6216(4) 0.3719(4)
O9 O 0.0773(5) -0.9889(4) 0.3815(3)
N1 N -0.4152(5) -0.3200(4) 0.0150(3)
N2 N -0.4425(5) -0.2794(4) -0.1084(3)
N3 N -0.5000 -0.2713(6) -0.2500
N4 N -0.1134(5) -0.7172(4) 0.2841(3)
N5 N 0.0721(5) -0.8057(4) 0.3762(3)
N6 N -0.1038(5) -0.9093(4) 0.2908(3)
C1A C -0.6113(7) -0.4124(6) -0.4830(4)
H1A H -0.6374 -0.4795 -0.5102
C2A C -0.5927(7) -0.3876(5) -0.4067(4)
H2A H -0.6018 -0.4339 -0.3712
C3A C -0.5526(7) -0.2433(5) -0.4580(4)
H3A H -0.5294 -0.1734 -0.4625
C4A C -0.5293(6) -0.2159(5) -0.3182(4)
C5A C -0.5336(6) -0.1048(6) -0.3230(4)
H4A H -0.5584 -0.0692 -0.3738
N1A N -0.5848(5) -0.3200(4) -0.5150(3)
N2A N -0.5575(5) -0.2794(4) -0.3916(3)
Zn1A Zn -0.59993(7) -0.30748(6) -0.62625(4)
C7A C -0.8231(6) -0.8143(5) -0.7567(4)
C8A C -1.0085(6) -0.7084(5) -0.8467(4)
C9A C -1.0189(6) -0.9064(5) -0.8516(4)
C10A C -0.8163(7) -0.6179(5) -0.7458(5)
H6A H -0.7545 -0.6316 -0.6862
H7A H -0.8705 -0.5619 -0.7482
C11A C -0.7550(6) -0.5771(5) -0.7892(4)
H8A H -0.8170 -0.5594 -0.8480
H9A H -0.7041 -0.6344 -0.7895
C12A C -0.6773(6) -0.4780(5) -0.7461(4)
C13A C -1.2050(6) -0.8016(6) -0.9328(4)
H10A H -1.2344 -0.7382 -0.9182
H11A H -1.2391 -0.8654 -0.9227
C14A C -1.2526(7) -0.7965(7) -1.0276(4)
H12A H -1.2192 -0.7338 -1.0396
H13A H -1.2300 -0.8617 -1.0451
C15A C -1.3898(7) -0.7875(6) -1.0738(4)
C16A C -0.8349(7) -1.0133(5) -0.7568(4)
H14A H -0.8918 -1.0639 -0.7567
H15A H -0.7672 -1.0032 -0.6983
C17A C -0.7866(6) -1.0626(5) -0.8075(4)
H16A H -0.8547 -1.0849 -0.8632
H17A H -0.7399 -1.0084 -0.8158
C18A C -0.7062(6) -1.1599(5) -0.7613(4)
O1A O -0.6262(4) -0.4328(3) -0.7783(3)
O2A O -0.6705(5) -0.4479(4) -0.6793(3)
O3A O -1.4482(5) -0.8553(5) -1.0636(4)
O4A O -1.4414(4) -0.6982(4) -1.1186(3)
O5A O -0.6297(4) -1.1899(3) -0.7792(3)
O6A O -0.7209(5) -1.2054(4) -0.7069(3)
O7A O -0.7150(5) -0.8192(4) -0.7062(3)
O8A O -1.0580(5) -0.6216(4) -0.8719(4)
O9A O -1.0773(5) -0.9889(4) -0.8815(3)
N4A N -0.8866(5) -0.7172(4) -0.7841(3)
N5A N -1.0721(5) -0.8057(4) -0.8762(3)
N6A N -0.8962(5) -0.9093(4) -0.7908(3)
Zn1_2 Zn -0.40007(7) -1.30748(6) 0.12625(4)
Zn1A_2 Zn -0.59993(7) -1.30748(6) -0.62625(4)
Zn1B Zn -1.59993(7) -0.69252(6) -1.12625(4)
Zn1C Zn 0.59993(7) -0.69252(6) 0.62625(4)
Zn2_2 Zn -0.5000 -1.31303(9) -0.7500
Zn2_3 Zn -0.5000 -1.31303(9) 0.2500
Zn2_4 Zn -0.5000 -0.31303(9) -0.7500
Zn2B Zn -1.5000 -0.68697(9) -1.2500
Zn2B_2 Zn 0.5000 -0.68697(9) 0.7500
O1A_2 O -0.6262(4) -0.4328(3) 0.2217(3)
O4B O -0.4414(4) -0.3018(4) -0.6186(3)
O4B_2 O -0.4414(4) -0.3018(4) 0.3814(3)
O4C O -0.5586(4) -0.3018(4) 0.1186(3)
O5_2 O -0.3703(4) -0.1899(3) 0.2792(3)
O5A_2 O -0.6297(4) -0.1899(3) 0.2208(3)
O6_2 O -0.2791(5) -0.2054(4) 0.2069(3)
O6A_2 O -0.7209(5) -0.2054(4) -0.7069(3)
N7 N -0.0722(7) -0.7225(6) 0.5605(5)
O10 O -0.1190(10) -0.7959(6) 0.4357(5)
C19 C -0.1213(11) -0.7956(8) 0.4991(6)
H18 H -0.1621 -0.8532 0.5055
C20 C -0.0800(12) -0.7299(10) 0.6343(6)
H19 H -0.1291 -0.7916 0.6285
H20 H -0.1167 -0.6649 0.6390
H21 H 0.0007 -0.7382 0.6845
C21 C -0.0013(14) -0.6327(10) 0.5557(9)
H22 H -0.0049 -0.6375 0.5032
H23 H 0.0823 -0.6376 0.6029
H24 H -0.0352 -0.5644 0.5581
loop_
_geom_bond_atom_site_label_1
_geom_bond_atom_site_label_2
_geom_bond_site_symmetry_1
_geom_bond_site_symmetry_2
Zn1 O2 1_555 1_555
Zn2 O1 1_555 1_555
C1 H1 1_555 1_555
C2 C1 1_555 1_555
H2 C2 1_555 1_555
C3 H3 1_555 1_555
C4 C5 1_555 1_555
C5 H4 1_555 1_555
C6 C5 1_555 1_555
H5 C6 1_555 1_555
C7 O7 1_555 1_555
C8 O8 1_555 1_555
C9 O9 1_555 1_555
C10 H6 1_555 1_555
H7 C10 1_555 1_555
C11 C10 1_555 1_555
H8 C11 1_555 1_555
H9 C11 1_555 1_555
C12 C11 1_555 1_555
C13 H10 1_555 1_555
H11 C13 1_555 1_555
C14 C13 1_555 1_555
H12 C14 1_555 1_555
H13 C14 1_555 1_555
C15 C14 1_555 1_555
C16 H14 1_555 1_555
H15 C16 1_555 1_555
C17 C16 1_555 1_555
H16 C17 1_555 1_555
H17 C17 1_555 1_555
C18 C17 1_555 1_555
O1 C12 1_555 1_555
O2 C12 1_555 1_555
O3 C15 1_555 1_555
O4 C15 1_555 1_555
O5 C18 1_555 1_555
O6 C18 1_555 1_555
N1 Zn1 1_555 1_555
N2 C2 1_555 1_555
N3 C4 1_555 1_555
N4 C7 1_555 1_555
N5 C8 1_555 1_555
N6 C7 1_555 1_555
N7 C19 1_555 1_555
O10 C19 1_555 1_555
C19 H18 1_555 1_555
C20 N7 1_555 1_555
H19 C20 1_555 1_555
H20 C20 1_555 1_555
H21 C20 1_555 1_555
C21 N7 1_555 1_555
H22 C21 1_555 1_555
H23 C21 1_555 1_555
H24 C21 1_555 1_555
C1A H1A 1_555 1_555
C2A C1A 1_555 1_555
H2A C2A 1_555 1_555
C3A H3A 1_555 1_555
C4A N3 1_555 1_555
C5A C6 1_555 1_555
H4A C5A 1_555 1_555
N1A C1A 1_555 1_555
N2A C2A 1_555 1_555
Zn1A N1A 1_555 1_555
C7A O7A 1_555 1_555
C8A O8A 1_555 1_555
C9A O9A 1_555 1_555
C10A H6A 1_555 1_555
H7A C10A 1_555 1_555
C11A C10A 1_555 1_555
H8A C11A 1_555 1_555
H9A C11A 1_555 1_555
C12A C11A 1_555 1_555
C13A H10A 1_555 1_555
H11A C13A 1_555 1_555
C14A C13A 1_555 1_555
H12A C14A 1_555 1_555
H13A C14A 1_555 1_555
C15A C14A 1_555 1_555
C16A H14A 1_555 1_555
H15A C16A 1_555 1_555
C17A C16A 1_555 1_555
H16A C17A 1_555 1_555
H17A C17A 1_555 1_555
C18A C17A 1_555 1_555
O1A C12A 1_555 1_555
O2A Zn1A 1_555 1_555
O3A C15A 1_555 1_555
O4A C15A 1_555 1_555
O5A C18A 1_555 1_555
O6A C18A 1_555 1_555
N4A C7A 1_555 1_555
N5A C8A 1_555 1_555
N6A C7A 1_555 1_555
Zn1_2 O6 1_555 1_555
Zn1A_2 O6A 1_555 1_555
Zn1B O4A 1_555 1_555
Zn1C O4 1_555 1_555
Zn2_2 O5A 1_555 1_555
Zn2_3 O5 1_555 1_555
Zn2_4 O1A 1_555 1_555
Zn2B O4A 1_555 1_555
Zn2B_2 O4 1_555 1_555
O1A_2 Zn2 1_555 1_555
O4B Zn1A 1_555 1_555
O4B_2 Zn2 1_555 1_555
O4C Zn1 1_555 1_555
O5_2 Zn2 1_555 1_555
O5A_2 Zn2 1_555 1_555
O6_2 Zn1 1_555 1_555
O6A_2 Zn1A 1_555 1_555
Zn2 O4C 1_555 1_555
C1 N1 1_555 1_555
C3 N1 1_555 1_555
C3 N2 1_555 1_555
C4 N2 1_555 1_555
C8 N4 1_555 1_555
C9 N5 1_555 1_555
C9 N6 1_555 1_555
C10 N4 1_555 1_555
C13 N5 1_555 1_555
C16 N6 1_555 1_555
C3A N1A 1_555 1_555
C3A N2A 1_555 1_555
C4A C5A 1_555 1_555
C4A N2A 1_555 1_555
C8A N4A 1_555 1_555
C9A N5A 1_555 1_555
C9A N6A 1_555 1_555
C10A N4A 1_555 1_555
C12A O2A 1_555 1_555
C13A N5A 1_555 1_555
C16A N6A 1_555 1_555
Zn2_4 O4B 1_555 1_555

#END
