
#######################################################################
#
#                 Cambridge Crystallographic Data Centre
#                                CCDC 
#
#######################################################################
#
# If this CIF has been generated from an entry in the Cambridge 
# Structural Database, then it will include bibliographic, chemical, 
# crystal, experimental, refinement or atomic coordinate data resulting 
# from the CCDC's data processing and validation procedures.
#
#######################################################################

data_MAZYER
_chemical_formula_moiety         '(C11 H5 Cd2 K2 N2 O16 1-)n'
_symmetry_cell_setting           monoclinic
_symmetry_space_group_name_H-M   'C 2/c'
_symmetry_Int_Tables_number      15
_space_group_name_Hall           '-C 2yc'
loop_
_symmetry_equiv_pos_site_id
_symmetry_equiv_pos_as_xyz
1 x,y,z
2 1/2+x,1/2+y,z
3 x,-y,1/2+z
4 1/2+x,1/2-y,1/2+z
5 -x,-y,-z
6 1/2-x,1/2-y,-z
7 -x,y,1/2-z
8 1/2-x,1/2+y,1/2-z
_cell_length_a                   13.0160(2)
_cell_length_b                   11.2910(3)
_cell_length_c                   15.7543(4)
_cell_angle_alpha                90.00
_cell_angle_beta                 105.0390(10)
_cell_angle_gamma                90.00
_cell_volume                     2236.01
loop_
_atom_site_label
_atom_site_type_symbol
_atom_site_fract_x
_atom_site_fract_y
_atom_site_fract_z
_atom_site_U_iso_or_equiv
_atom_site_thermal_displace_type
Cd1 Cd -0.30210(2) 0.17712(2) -0.32564(2) 0.0147 Uani
O1 O -0.3628(2) 0.1511(3) -0.2004(2) 0.0288 Uani
O2 O -0.3592(2) 0.3756(3) -0.3294(2) 0.0291 Uani
O3 O -0.1633(2) 0.4734(3) -0.1461(2) 0.0246 Uani
O4 O -0.3671(2) 0.1885(2) -0.4836(2) 0.0232 Uani
O5 O -0.1642(2) 0.2350(3) -0.3953(2) 0.0244 Uani
O6 O -0.1801(2) 0.2989(2) -0.2141(2) 0.0220 Uani
O7 O -0.3455(2) 0.5484(2) -0.2584(2) 0.0235 Uani
O8 O -0.5015(2) 0.1497(3) -0.3616(2) 0.0239 Uani
C1 C -0.4602(3) 0.1514(3) -0.2033(3) 0.0176 Uani
C2 C -0.3144(3) 0.4463(3) -0.2703(3) 0.0166 Uani
C3 C -0.2091(3) 0.4021(3) -0.2044(3) 0.0153 Uani
C4 C -0.3087(3) 0.2366(3) -0.5258(3) 0.0153 Uani
O8F O -0.4985(2) 0.1497(3) -0.1384(2) 0.0239 Uani
Cd1F Cd -0.69790(2) 0.17712(2) -0.17436(2) 0.0147 Uani
O1F O -0.6372(2) 0.1511(3) -0.2996(2) 0.0288 Uani
C1F C -0.5398(3) 0.1514(3) -0.2967(3) 0.0176 Uani
O7G O -0.1545(2) 0.0484(2) -0.2416(2) 0.0235 Uani
Cd1G Cd -0.19790(2) 0.67712(2) -0.17436(2) 0.0147 Uani
O3G O -0.3367(2) -0.0266(3) -0.3539(2) 0.0246 Uani
O5E O -0.3358(2) 0.2650(3) -0.6047(2) 0.0244 Uani
Cd1E Cd -0.19790(2) 0.32288(2) -0.67436(2) 0.0147 Uani
O1E O -0.1372(2) 0.3489(3) -0.7996(2) 0.0288 Uani
C1E C -0.0398(3) 0.3486(3) -0.7967(3) 0.0176 Uani
O8C O -0.0015(2) 0.3503(3) -0.8616(2) 0.0239 Uani
Cd1C Cd 0.19790(2) 0.32288(2) -0.82564(2) 0.0147 Uani
O1C O 0.1372(2) 0.3489(3) -0.7004(2) 0.0288 Uani
C1C C 0.0398(3) 0.3486(3) -0.7033(3) 0.0176 Uani
O8E O 0.0015(2) 0.3503(3) -0.6384(2) 0.0239 Uani
O2E O -0.1408(2) 0.1244(3) -0.6706(2) 0.0291 Uani
O6E O -0.3199(2) 0.2011(2) -0.7859(2) 0.0220 Uani
O3B O -0.1633(2) 0.5266(3) -0.6461(2) 0.0246 Uani
O4E O -0.1329(2) 0.3115(2) -0.5164(2) 0.0232 Uani
C4E C -0.1913(3) 0.2634(3) -0.4742(3) 0.0153 Uani
O7B O -0.3455(2) 0.4516(2) -0.7584(2) 0.0235 Uani
C5 C -0.6843(4) 0.3600(4) -0.5603(3) 0.0216 Uani
H1 H -0.7286(4) 0.3318(4) -0.6126(3) 0.0260 Uiso
C6 C -0.5487(3) 0.3866(4) -0.4545(3) 0.0205 Uani
H2 H -0.4796(3) 0.3808(4) -0.4190(3) 0.0250 Uiso
N1 N -0.5867(6) 0.3300(4) -0.5270(4) 0.0714 Uani
H3 H -0.5519(6) 0.2797(4) -0.5497(4) 0.0850 Uiso
C7 C -0.6236(5) 0.4532(5) -0.4395(3) 0.0495 Uani
H4 H -0.6187(5) 0.5023(5) -0.3912(3) 0.0590 Uiso
N2 N -0.7097(4) 0.4371(6) -0.5074(4) 0.0789 Uani
H5 H -0.7703(4) 0.4713(6) -0.5147(4) 0.0950 Uiso
K1 K -0.5000 0.0000 -0.5000 0.0243 Uani
K2 K 0.0000 0.21197(12) -0.2500 0.0232 Uani
loop_
_atom_site_aniso_label
_atom_site_aniso_U_11
_atom_site_aniso_U_22
_atom_site_aniso_U_33
_atom_site_aniso_U_23
_atom_site_aniso_U_13
_atom_site_aniso_U_12
Cd1 0.0158 0.014 0.0146 0.00021 0.00432 -0.00017
O1 0.013 0.055 0.018 0.002 0.0032 -0.0006
O2 0.027 0.02 0.03 -0.0065 -0.0109 0.0042
O3 0.026 0.02 0.023 -0.0038 -0.0022 -0.0023
O4 0.018 0.03 0.023 0.003 0.008 -0.0062
O5 0.018 0.036 0.018 0.0054 0.0023 -0.0031
O6 0.021 0.018 0.025 -0.0001 0.0026 0.0052
O7 0.025 0.016 0.029 0.0008 0.006 0.0048
O8 0.022 0.033 0.018 0.0004 0.0074 0.0014
C1 0.019 0.016 0.019 0.001 0.007 0.001
C2 0.017 0.016 0.017 0 0.005 -0.002
C3 0.016 0.016 0.015 0.001 0.006 -0.003
C4 0.018 0.015 0.014 0 0.006 0
O8F 0.022 0.033 0.018 -0.0004 0.0074 -0.0014
Cd1F 0.0158 0.014 0.0146 -0.00021 0.00432 0.00017
O1F 0.013 0.055 0.018 -0.002 0.0032 0.0006
C1F 0.019 0.016 0.019 -0.001 0.007 -0.001
O7G 0.025 0.016 0.029 -0.0008 0.006 -0.0048
Cd1G 0.0158 0.014 0.0146 -0.00021 0.00432 0.00017
O3G 0.026 0.02 0.023 0.0038 -0.0022 0.0023
O5E 0.018 0.036 0.018 0.0054 0.0023 -0.0031
Cd1E 0.0158 0.014 0.0146 0.00021 0.00432 -0.00017
O1E 0.013 0.055 0.018 0.002 0.0032 -0.0006
C1E 0.019 0.016 0.019 0.001 0.007 0.001
O8C 0.022 0.033 0.018 -0.0004 0.0074 -0.0014
Cd1C 0.0158 0.014 0.0146 -0.00021 0.00432 0.00017
O1C 0.013 0.055 0.018 -0.002 0.0032 0.0006
C1C 0.019 0.016 0.019 -0.001 0.007 -0.001
O8E 0.022 0.033 0.018 0.0004 0.0074 0.0014
O2E 0.027 0.02 0.03 -0.0065 -0.0109 0.0042
O6E 0.021 0.018 0.025 -0.0001 0.0026 0.0052
O3B 0.026 0.02 0.023 0.0038 -0.0022 0.0023
O4E 0.018 0.03 0.023 0.003 0.008 -0.0062
C4E 0.018 0.015 0.014 0 0.006 0
O7B 0.025 0.016 0.029 -0.0008 0.006 -0.0048
C5 0.026 0.024 0.009 -0.002 -0.006 -0.002
C6 0.014 0.026 0.014 0.003 -0.01 0
N1 0.107 0.036 0.097 0.012 0.073 0.024
C7 0.075 0.046 0.03 -0.016 0.018 -0.016
N2 0.043 0.087 0.109 0.024 0.024 0.015
K1 0.0236 0.0255 0.0209 -0.0015 0.0003 -0.007
K2 0.0151 0.0289 0.024 0 0.0023 0
loop_
_geom_bond_atom_site_label_1
_geom_bond_atom_site_label_2
_geom_bond_site_symmetry_1
_geom_bond_site_symmetry_2
Cd1 O1 1_555 1_555
O1 C1 1_555 1_555
O2 Cd1 1_555 1_555
O3 C3 1_555 1_555
O4 Cd1 1_555 1_555
O5 Cd1 1_555 1_555
O6 Cd1 1_555 1_555
O7 C2 1_555 1_555
O8 Cd1 1_555 1_555
C1 O8F 1_555 1_555
C2 O2 1_555 1_555
C3 O6 1_555 1_555
C4 O4 1_555 1_555
C5 H1 1_555 1_555
C6 H2 1_555 1_555
N1 C5 1_555 1_555
H3 N1 1_555 1_555
C7 C6 1_555 1_555
H4 C7 1_555 1_555
N2 C5 1_555 1_555
H5 N2 1_555 1_555
O8F Cd1F 1_555 1_555
Cd1F O1F 1_555 1_555
O1F C1F 1_555 1_555
C1F O8 1_555 1_555
O7G Cd1 1_555 1_555
Cd1G O3 1_555 1_555
O3G Cd1 1_555 1_555
O5E C4 1_555 1_555
Cd1E O5E 1_555 1_555
O1E Cd1E 1_555 1_555
C1E O1E 1_555 1_555
O8C C1E 1_555 1_555
Cd1C O8C 1_555 1_555
O1C Cd1C 1_555 1_555
C1C C1E 1_555 1_555
O8E Cd1E 1_555 1_555
O2E Cd1E 1_555 1_555
O6E Cd1E 1_555 1_555
O3B Cd1E 1_555 1_555
O4E Cd1E 1_555 1_555
C4E O5 1_555 1_555
O7B Cd1E 1_555 1_555
O7 Cd1G 1_555 1_555
C1 C1F 1_555 1_555
C2 C3 1_555 1_555
C4 C4E 1_555 1_555
C6 N1 1_555 1_555
C7 N2 1_555 1_555
O1C C1C 1_555 1_555
C1C O8E 1_555 1_555
O4E C4E 1_555 1_555

#END
