
#######################################################################
#
#                 Cambridge Crystallographic Data Centre
#                                CCDC 
#
#######################################################################
#
# If this CIF has been generated from an entry in the Cambridge 
# Structural Database, then it will include bibliographic, chemical, 
# crystal, experimental, refinement or atomic coordinate data resulting 
# from the CCDC's data processing and validation procedures.
#
#######################################################################

data_NIHBIQ01
_chemical_formula_moiety         '(C18 H18 Fe6 O24)n'
_symmetry_cell_setting           monoclinic
_symmetry_space_group_name_H-M   'P 21/c'
_symmetry_Int_Tables_number      14
_space_group_name_Hall           '-P 2ybc'
loop_
_symmetry_equiv_pos_site_id
_symmetry_equiv_pos_as_xyz
1 x,y,z
2 -x,1/2+y,1/2-z
3 -x,-y,-z
4 x,1/2-y,1/2+z
_cell_length_a                   11.4667(2)
_cell_length_b                   10.0705(2)
_cell_length_c                   18.9071(5)
_cell_angle_alpha                90
_cell_angle_beta                 126.4390(10)
_cell_angle_gamma                90
_cell_volume                     1756.45
loop_
_atom_site_label
_atom_site_type_symbol
_atom_site_fract_x
_atom_site_fract_y
_atom_site_fract_z
Fe1 Fe 0.38012(3) 0.07174(3) 0.13433(2)
Fe2 Fe 0.43815(3) 0.12418(3) -0.30237(2)
Fe3 Fe 0.5000 0.0000 0.0000
Fe4 Fe 0.0000 0.0000 0.0000
O1 O 0.44315(16) 0.18568(15) 0.24937(10)
O2 O 0.55152(18) 0.04285(16) 0.36208(10)
O3 O 0.58575(16) -0.01838(15) 0.21357(10)
O4 O 0.67095(18) -0.03030(17) 0.13410(11)
O5 O 0.46906(16) 0.24769(15) 0.11919(10)
O6 O 0.51273(18) 0.20489(16) 0.02062(11)
O7 O 0.34210(16) -0.09532(15) 0.18904(10)
O8 O 0.10305(17) -0.13179(17) 0.10767(11)
O9 O 0.33432(16) -0.01881(15) 0.02060(10)
O10 O 0.10585(17) -0.09013(16) -0.04577(11)
O11 O 0.16987(15) 0.14745(15) 0.06980(10)
O12 O 0.21341(16) 0.36366(16) 0.10705(10)
C1 C 0.5044(3) 0.1539(2) 0.32913(17)
C2 C 0.6840(3) -0.0391(3) 0.20335(18)
C3 C 0.5083(3) 0.2801(3) 0.07083(17)
C4 C 0.2289(3) -0.1564(3) 0.16923(18)
C5 C 0.2196(3) -0.0819(3) -0.03872(18)
C6 C 0.1326(3) 0.2682(3) 0.06695(17)
H1 H 0.518(2) 0.226(2) 0.3682(14)
H2 H 0.778(3) -0.059(3) 0.2540(19)
H3 H 0.543(3) 0.377(3) 0.0776(17)
H4 H 0.243(3) -0.228(3) 0.2066(18)
H5 H 0.219(2) -0.129(2) -0.0846(15)
H6 H 0.037(3) 0.283(2) 0.0311(15)
Fe1B Fe 0.61988(3) -0.07174(3) -0.13433(2)
Fe1B_2 Fe -0.38012(3) -0.07174(3) -0.13433(2)
Fe1A Fe 0.61988(3) 0.57174(3) 0.36567(2)
Fe2B Fe 0.56185(3) -0.12418(3) 0.30237(2)
Fe2C Fe 0.43815(3) 0.37582(3) 0.19763(2)
Fe2A Fe 0.56185(3) -0.37582(3) -0.19763(2)
Fe2A_2 Fe -0.43815(3) -0.37582(3) -0.19763(2)
Fe2B_2 Fe 0.56185(3) 0.87582(3) 0.30237(2)
Fe3C Fe 0.5000 0.5000 0.5000
Fe4_2 Fe 1.0000 0.0000 0.0000
O1B O 0.55685(16) -0.18568(15) -0.24937(10)
O1C O 0.44315(16) 0.31432(15) -0.25063(10)
O1A O 0.55685(16) 0.68568(15) 0.25063(10)
O2B O 0.44848(18) -0.04285(16) -0.36208(10)
O2A O 0.44848(18) 0.54285(16) 0.13792(10)
O3B O 0.41425(16) 0.01838(15) -0.21357(10)
O3A O 0.41425(16) 0.48162(15) 0.28643(10)
O4B O 0.32905(18) 0.03030(17) -0.13410(11)
O4A O 0.32905(18) 0.46970(17) 0.36590(11)
O5B O 0.53094(16) -0.24769(15) -0.11919(10)
O5C O 0.46906(16) 0.25231(15) -0.38081(10)
O6B O 0.48727(18) -0.20489(16) -0.02062(11)
O7B O 0.65790(16) 0.09532(15) -0.18904(10)
O7A O 0.65790(16) 0.40468(15) 0.31096(10)
O8B O -0.10305(17) 0.13179(17) -0.10767(11)
O9B O 0.66568(16) 0.01881(15) -0.02060(10)
O10B O 0.89415(17) 0.09013(16) 0.04577(11)
O10B_2 O -0.10585(17) 0.09013(16) 0.04577(11)
O11B O -0.16987(15) -0.14745(15) -0.06980(10)
O11B_2 O 0.83013(15) -0.14745(15) -0.06980(10)
O12C O 0.21341(16) 0.13634(16) -0.39295(10)
O12B O -0.21341(16) -0.36366(16) -0.10705(10)
C1A C 0.4956(3) 0.6539(2) 0.17087(17)
C2B C 0.3160(3) 0.0391(3) -0.20335(18)
C2A C 0.3160(3) 0.4609(3) 0.29665(18)
C3B C 0.4917(3) -0.2801(3) -0.07083(17)
C5B C 0.7804(3) 0.0819(3) 0.03872(18)
C6B C -0.1326(3) -0.2682(3) -0.06695(17)
H1A H 0.482(2) 0.726(2) 0.1318(14)
H2B H 0.222(3) 0.059(3) -0.2540(19)
H2A H 0.222(3) 0.441(3) 0.2460(19)
H3B H 0.457(3) -0.377(3) -0.0776(17)
H5B H 0.781(2) 0.129(2) 0.0846(15)
H6B H -0.037(3) -0.283(2) -0.0311(15)
C7 C 0.1795(4) 0.4007(4) -0.0900(3)
H7 H 0.2134 0.3402 -0.0429
C8 C 0.1280(4) 0.5219(5) -0.0884(2)
H8 H 0.1285 0.5464 -0.0397
C9 C 0.0755(3) 0.6086(3) -0.1573(2)
H9 H 0.0394 0.6931 -0.1564
C10 C 0.0752(3) 0.5730(3) -0.2268(2)
H10 H 0.0374 0.6317 -0.2752
C11 C 0.1301(4) 0.4513(3) -0.2267(2)
H11 H 0.1313 0.4269 -0.2748
C12 C 0.1826(4) 0.3657(3) -0.1584(2)
H12 H 0.2212 0.2822 -0.1584
loop_
_geom_bond_atom_site_label_1
_geom_bond_atom_site_label_2
_geom_bond_site_symmetry_1
_geom_bond_site_symmetry_2
Fe1 O1 1_555 1_555
Fe2 O1C 1_555 1_555
Fe3 O4 1_555 1_555
Fe4 O8 1_555 1_555
O1 C1 1_555 1_555
O2 C1 1_555 1_555
O3 Fe1 1_555 1_555
O4 C2 1_555 1_555
O5 Fe1 1_555 1_555
O6 Fe3 1_555 1_555
O7 Fe1 1_555 1_555
O8 C4 1_555 1_555
O9 Fe1 1_555 1_555
O10 Fe4 1_555 1_555
O11 Fe1 1_555 1_555
O12 C6 1_555 1_555
C1 H1 1_555 1_555
C2 O3 1_555 1_555
C3 O5 1_555 1_555
C4 O7 1_555 1_555
C5 O9 1_555 1_555
C6 O11 1_555 1_555
H2 C2 1_555 1_555
H3 C3 1_555 1_555
H4 C4 1_555 1_555
H5 C5 1_555 1_555
H6 C6 1_555 1_555
C7 H7 1_555 1_555
C8 C7 1_555 1_555
H8 C8 1_555 1_555
C9 C8 1_555 1_555
H9 C9 1_555 1_555
C10 C9 1_555 1_555
H10 C10 1_555 1_555
C11 C10 1_555 1_555
H11 C11 1_555 1_555
C12 C7 1_555 1_555
H12 C12 1_555 1_555
Fe1B O1B 1_555 1_555
Fe1B_2 O11B 1_555 1_555
Fe1A O1A 1_555 1_555
Fe2B O2 1_555 1_555
Fe2C O1 1_555 1_555
Fe2A O1B 1_555 1_555
Fe2A_2 O12B 1_555 1_555
Fe2B_2 O1A 1_555 1_555
Fe3C O4A 1_555 1_555
Fe4_2 O10B 1_555 1_555
O1A C1A 1_555 1_555
O2B Fe2 1_555 1_555
O2A Fe2C 1_555 1_555
O3B Fe2 1_555 1_555
O3A Fe1A 1_555 1_555
O4B Fe3 1_555 1_555
O4A C2A 1_555 1_555
O5B Fe1B 1_555 1_555
O5C Fe2 1_555 1_555
O6B Fe3 1_555 1_555
O7B Fe2 1_555 1_555
O7A Fe1A 1_555 1_555
O8B Fe4 1_555 1_555
O9B Fe3 1_555 1_555
O10B C5B 1_555 1_555
O10B_2 Fe4 1_555 1_555
O11B Fe4 1_555 1_555
O11B_2 Fe1B 1_555 1_555
O12C Fe2 1_555 1_555
O12B C6B 1_555 1_555
C1A O2A 1_555 1_555
C2B O3B 1_555 1_555
C2A O3A 1_555 1_555
C3B O5B 1_555 1_555
C5B O9B 1_555 1_555
C6B O11B 1_555 1_555
H1A C1A 1_555 1_555
H2B C2B 1_555 1_555
H2A C2A 1_555 1_555
H3B C3B 1_555 1_555
H5B C5B 1_555 1_555
H6B C6B 1_555 1_555
Fe3 O9 1_555 1_555
Fe4 O11 1_555 1_555
O3 Fe2B 1_555 1_555
O5 Fe2C 1_555 1_555
O6 C3 1_555 1_555
O7 Fe2B 1_555 1_555
O10 C5 1_555 1_555
O12 Fe2C 1_555 1_555
C11 C12 1_555 1_555
Fe1B O3B 1_555 1_555
Fe1B O7B 1_555 1_555
Fe1B O9B 1_555 1_555
Fe2C O3A 1_555 1_555
Fe2C O7A 1_555 1_555
Fe2A O5B 1_555 1_555
Fe4_2 O11B_2 1_555 1_555
O4B C2B 1_555 1_555
O6B C3B 1_555 1_555

#END
