
#######################################################################
#
#                 Cambridge Crystallographic Data Centre
#                                CCDC 
#
#######################################################################
#
# If this CIF has been generated from an entry in the Cambridge 
# Structural Database, then it will include bibliographic, chemical, 
# crystal, experimental, refinement or atomic coordinate data resulting 
# from the CCDC's data processing and validation procedures.
#
#######################################################################

data_NIHBEM02
_chemical_formula_moiety         '(C16 H16 Fe6 O25)n'
_symmetry_cell_setting           monoclinic
_symmetry_space_group_name_H-M   'P 21/c'
_symmetry_Int_Tables_number      14
_space_group_name_Hall           '-P 2ybc'
loop_
_symmetry_equiv_pos_site_id
_symmetry_equiv_pos_as_xyz
1 x,y,z
2 -x,1/2+y,1/2-z
3 -x,-y,-z
4 x,1/2-y,1/2+z
_cell_length_a                   11.4136(3)
_cell_length_b                   9.9922(2)
_cell_length_c                   18.6468(5)
_cell_angle_alpha                90
_cell_angle_beta                 126.6110(10)
_cell_angle_gamma                90
_cell_volume                     1707.04
loop_
_atom_site_label
_atom_site_type_symbol
_atom_site_fract_x
_atom_site_fract_y
_atom_site_fract_z
Fe1 Fe 0.37889(4) 0.07594(4) 0.13371(3)
Fe2 Fe 0.43142(4) 0.11581(4) -0.30726(3)
Fe3 Fe 0.5000 0.0000 0.0000
Fe4 Fe 0.0000 0.0000 0.0000
O1 O 0.4408(2) 0.19315(18) 0.24839(12)
O2 O 0.5540(2) 0.05395(19) 0.36530(13)
O3 O 0.5893(2) -0.01183(18) 0.21553(13)
O4 O 0.6773(2) -0.0165(2) 0.13672(14)
O5 O 0.4602(2) 0.25395(18) 0.11276(13)
O6 O 0.4969(2) 0.2090(2) 0.01038(15)
O7 O 0.3443(2) -0.08831(18) 0.19316(13)
O8 O 0.1040(2) -0.1173(2) 0.11662(15)
O9 O 0.3351(2) -0.02494(19) 0.02164(13)
O10 O 0.1100(2) -0.1027(2) -0.04082(15)
O11 O 0.1663(2) 0.15321(18) 0.06527(13)
O12 O 0.2064(2) 0.37147(19) 0.10057(14)
C1 C 0.5019(3) 0.1646(3) 0.3295(2)
C2 C 0.6894(4) -0.0282(3) 0.2064(2)
C3 C 0.4874(4) 0.2853(3) 0.0583(2)
C4 C 0.2316(4) -0.1425(3) 0.1787(2)
C5 C 0.2225(3) -0.0948(3) -0.0348(2)
C6 C 0.1263(4) 0.2745(3) 0.0595(2)
H1 H 0.510(3) 0.235(3) 0.369(2)
H2 H 0.781(4) -0.054(3) 0.259(2)
H3 H 0.496(4) 0.377(3) 0.054(2)
H4 H 0.244(4) -0.221(4) 0.218(2)
H5 H 0.229(3) -0.146(3) -0.074(2)
H6 H 0.027(4) 0.290(3) 0.020(2)
Fe1B Fe 0.62111(4) -0.07594(4) -0.13371(3)
Fe1B_2 Fe -0.37889(4) -0.07594(4) -0.13371(3)
Fe1A Fe 0.62111(4) 0.57594(4) 0.36629(3)
Fe2B Fe 0.56858(4) -0.11581(4) 0.30726(3)
Fe2C Fe 0.43142(4) 0.38419(4) 0.19274(3)
Fe2A Fe 0.56858(4) -0.38419(4) -0.19274(3)
Fe2A_2 Fe -0.43142(4) -0.38419(4) -0.19274(3)
Fe2B_2 Fe 0.56858(4) 0.88419(4) 0.30726(3)
Fe3C Fe 0.5000 0.5000 0.5000
Fe4_2 Fe 1.0000 0.0000 0.0000
O1B O 0.5592(2) -0.19315(18) -0.24839(12)
O1C O 0.4408(2) 0.30685(18) -0.25161(12)
O1A O 0.5592(2) 0.69315(18) 0.25161(12)
O2B O 0.4460(2) -0.05395(19) -0.36530(13)
O2A O 0.4460(2) 0.55395(19) 0.13470(13)
O3B O 0.4107(2) 0.01183(18) -0.21553(13)
O3A O 0.4107(2) 0.48817(18) 0.28447(13)
O4B O 0.3227(2) 0.0165(2) -0.13672(14)
O4A O 0.3227(2) 0.4835(2) 0.36328(14)
O5B O 0.5398(2) -0.25395(18) -0.11276(13)
O5C O 0.4602(2) 0.24605(18) -0.38724(13)
O6B O 0.5031(2) -0.2090(2) -0.01038(15)
O7B O 0.6557(2) 0.08831(18) -0.19316(13)
O7A O 0.6557(2) 0.41169(18) 0.30684(13)
O8B O -0.1040(2) 0.1173(2) -0.11662(15)
O9B O 0.6649(2) 0.02494(19) -0.02164(13)
O10B O 0.8900(2) 0.1027(2) 0.04082(15)
O10B_2 O -0.1100(2) 0.1027(2) 0.04082(15)
O11B O -0.1663(2) -0.15321(18) -0.06527(13)
O11B_2 O 0.8337(2) -0.15321(18) -0.06527(13)
O12C O 0.2064(2) 0.12853(19) -0.39943(14)
O12B O -0.2064(2) -0.37147(19) -0.10057(14)
C1A C 0.4981(3) 0.6646(3) 0.1705(2)
C2B C 0.3106(4) 0.0282(3) -0.2064(2)
C2A C 0.3106(4) 0.4718(3) 0.2936(2)
C3B C 0.5126(4) -0.2853(3) -0.0583(2)
C5B C 0.7775(3) 0.0948(3) 0.0348(2)
C6B C -0.1263(4) -0.2745(3) -0.0595(2)
H1A H 0.490(3) 0.735(3) 0.131(2)
H2B H 0.219(4) 0.054(3) -0.259(2)
H2A H 0.219(4) 0.446(3) 0.241(2)
H3B H 0.504(4) -0.377(3) -0.054(2)
H5B H 0.771(3) 0.146(3) 0.074(2)
H6B H -0.027(4) -0.290(3) -0.020(2)
O13 O 0.1402(10) 0.3671(10) -0.1085(7)
C7 C 0.1513(11) 0.4959(12) -0.0976(6)
H7 H 0.1836 0.5384 -0.0444
C8 C 0.1139(10) 0.5551(8) -0.1661(7)
H8 H 0.1036 0.6471 -0.1759
C9 C 0.0904(12) 0.4573(16) -0.2254(5)
H9 H 0.0649 0.4718 -0.2823
C10 C 0.1089(16) 0.3467(12) -0.1901(10)
H10 H 0.1025 0.2641 -0.2152
loop_
_geom_bond_atom_site_label_1
_geom_bond_atom_site_label_2
_geom_bond_site_symmetry_1
_geom_bond_site_symmetry_2
Fe1 O1 1_555 1_555
Fe2 O1C 1_555 1_555
Fe3 O4 1_555 1_555
Fe4 O8 1_555 1_555
O1 C1 1_555 1_555
O2 C1 1_555 1_555
O3 Fe1 1_555 1_555
O4 C2 1_555 1_555
O5 Fe1 1_555 1_555
O6 Fe3 1_555 1_555
O7 Fe1 1_555 1_555
O8 C4 1_555 1_555
O9 Fe1 1_555 1_555
O10 Fe4 1_555 1_555
O11 Fe1 1_555 1_555
O12 C6 1_555 1_555
C1 H1 1_555 1_555
C2 O3 1_555 1_555
C3 O5 1_555 1_555
C4 O7 1_555 1_555
C5 O9 1_555 1_555
C6 O11 1_555 1_555
H2 C2 1_555 1_555
H3 C3 1_555 1_555
H4 C4 1_555 1_555
H5 C5 1_555 1_555
H6 C6 1_555 1_555
O13 C7 1_555 1_555
C7 H7 1_555 1_555
C8 C7 1_555 1_555
H8 C8 1_555 1_555
C9 C8 1_555 1_555
H9 C9 1_555 1_555
C10 O13 1_555 1_555
H10 C10 1_555 1_555
Fe1B O1B 1_555 1_555
Fe1B_2 O11B 1_555 1_555
Fe1A O1A 1_555 1_555
Fe2B O2 1_555 1_555
Fe2C O1 1_555 1_555
Fe2A O1B 1_555 1_555
Fe2A_2 O12B 1_555 1_555
Fe2B_2 O1A 1_555 1_555
Fe3C O4A 1_555 1_555
Fe4_2 O10B 1_555 1_555
O1A C1A 1_555 1_555
O2B Fe2 1_555 1_555
O2A Fe2C 1_555 1_555
O3B Fe2 1_555 1_555
O3A Fe1A 1_555 1_555
O4B Fe3 1_555 1_555
O4A C2A 1_555 1_555
O5B Fe1B 1_555 1_555
O5C Fe2 1_555 1_555
O6B Fe3 1_555 1_555
O7B Fe2 1_555 1_555
O7A Fe1A 1_555 1_555
O8B Fe4 1_555 1_555
O9B Fe3 1_555 1_555
O10B C5B 1_555 1_555
O10B_2 Fe4 1_555 1_555
O11B Fe4 1_555 1_555
O11B_2 Fe1B 1_555 1_555
O12C Fe2 1_555 1_555
O12B C6B 1_555 1_555
C1A O2A 1_555 1_555
C2B O3B 1_555 1_555
C2A O3A 1_555 1_555
C3B O5B 1_555 1_555
C5B O9B 1_555 1_555
C6B O11B 1_555 1_555
H1A C1A 1_555 1_555
H2B C2B 1_555 1_555
H2A C2A 1_555 1_555
H3B C3B 1_555 1_555
H5B C5B 1_555 1_555
H6B C6B 1_555 1_555
Fe3 O9 1_555 1_555
Fe4 O11 1_555 1_555
O3 Fe2B 1_555 1_555
O5 Fe2C 1_555 1_555
O6 C3 1_555 1_555
O7 Fe2B 1_555 1_555
O10 C5 1_555 1_555
O12 Fe2C 1_555 1_555
C9 C10 1_555 1_555
Fe1B O3B 1_555 1_555
Fe1B O7B 1_555 1_555
Fe1B O9B 1_555 1_555
Fe2C O3A 1_555 1_555
Fe2C O7A 1_555 1_555
Fe2A O5B 1_555 1_555
Fe4_2 O11B_2 1_555 1_555
O4B C2B 1_555 1_555
O6B C3B 1_555 1_555

#END
