
#######################################################################
#
#                 Cambridge Crystallographic Data Centre
#                                CCDC 
#
#######################################################################
#
# If this CIF has been generated from an entry in the Cambridge 
# Structural Database, then it will include bibliographic, chemical, 
# crystal, experimental, refinement or atomic coordinate data resulting 
# from the CCDC's data processing and validation procedures.
#
#######################################################################

data_NIHBIQ
_chemical_formula_moiety         '(C18 H18 Fe6 O24)n'
_symmetry_cell_setting           monoclinic
_symmetry_space_group_name_H-M   'P 21/c'
_symmetry_Int_Tables_number      14
_space_group_name_Hall           '-P 2ybc'
loop_
_symmetry_equiv_pos_site_id
_symmetry_equiv_pos_as_xyz
1 x,y,z
2 -x,1/2+y,1/2-z
3 -x,-y,-z
4 x,1/2-y,1/2+z
_cell_length_a                   11.4488(2)
_cell_length_b                   10.0224(2)
_cell_length_c                   18.8720(5)
_cell_angle_alpha                90
_cell_angle_beta                 126.4830(10)
_cell_angle_gamma                90
_cell_volume                     1741.1
loop_
_atom_site_label
_atom_site_type_symbol
_atom_site_fract_x
_atom_site_fract_y
_atom_site_fract_z
Fe1 Fe 0.38010(3) 0.07370(3) 0.13442(2)
Fe2 Fe 0.43713(3) 0.12123(3) -0.30326(2)
Fe3 Fe 0.5000 0.0000 0.0000
Fe4 Fe 0.0000 0.0000 0.0000
O1 O 0.44166(16) 0.18860(14) 0.24903(9)
O2 O 0.55202(17) 0.04619(15) 0.36305(10)
O3 O 0.58672(16) -0.01487(14) 0.21448(10)
O4 O 0.67172(16) -0.02901(16) 0.13449(10)
O5 O 0.46880(16) 0.25001(14) 0.11860(9)
O6 O 0.51247(17) 0.20654(15) 0.01979(10)
O7 O 0.34282(16) -0.09390(14) 0.18956(10)
O8 O 0.10306(16) -0.13186(15) 0.10814(10)
O9 O 0.33443(16) -0.01847(14) 0.02079(10)
O10 O 0.10610(16) -0.09163(15) -0.04544(10)
O11 O 0.16944(15) 0.14914(14) 0.06935(9)
O12 O 0.21150(16) 0.36667(15) 0.10567(10)
C1 C 0.5034(2) 0.1576(2) 0.32951(15)
C2 C 0.6856(3) -0.0368(2) 0.20416(16)
C3 C 0.5080(3) 0.2822(2) 0.06976(16)
C4 C 0.2298(3) -0.1558(2) 0.17030(16)
C5 C 0.2200(3) -0.0833(2) -0.03858(16)
C6 C 0.1307(3) 0.2701(2) 0.06571(15)
H1 H 0.515(2) 0.227(2) 0.3684(15)
H2 H 0.781(3) -0.056(2) 0.2571(17)
H3 H 0.541(3) 0.372(3) 0.0755(15)
H4 H 0.242(2) -0.230(2) 0.2067(15)
H5 H 0.221(2) -0.128(2) -0.0834(16)
H6 H 0.031(3) 0.286(2) 0.0266(15)
Fe1B Fe 0.61990(3) -0.07370(3) -0.13442(2)
Fe1B_2 Fe -0.38010(3) -0.07370(3) -0.13442(2)
Fe1A Fe 0.61990(3) 0.57370(3) 0.36558(2)
Fe2B Fe 0.56287(3) -0.12123(3) 0.30326(2)
Fe2C Fe 0.43713(3) 0.37877(3) 0.19674(2)
Fe2A Fe 0.56287(3) -0.37877(3) -0.19674(2)
Fe2A_2 Fe -0.43713(3) -0.37877(3) -0.19674(2)
Fe2B_2 Fe 0.56287(3) 0.87877(3) 0.30326(2)
Fe3C Fe 0.5000 0.5000 0.5000
Fe4_2 Fe 1.0000 0.0000 0.0000
O1B O 0.55834(16) -0.18860(14) -0.24903(9)
O1C O 0.44166(16) 0.31140(14) -0.25097(9)
O1A O 0.55834(16) 0.68860(14) 0.25097(9)
O2B O 0.44798(17) -0.04619(15) -0.36305(10)
O2A O 0.44798(17) 0.54619(15) 0.13695(10)
O3B O 0.41328(16) 0.01487(14) -0.21448(10)
O3A O 0.41328(16) 0.48513(14) 0.28552(10)
O4B O 0.32828(16) 0.02901(16) -0.13449(10)
O4A O 0.32828(16) 0.47099(16) 0.36551(10)
O5B O 0.53120(16) -0.25001(14) -0.11860(9)
O5C O 0.46880(16) 0.24999(14) -0.38140(9)
O6B O 0.48753(17) -0.20654(15) -0.01979(10)
O7B O 0.65718(16) 0.09390(14) -0.18956(10)
O7A O 0.65718(16) 0.40610(14) 0.31044(10)
O8B O -0.10306(16) 0.13186(15) -0.10814(10)
O9B O 0.66557(16) 0.01847(14) -0.02079(10)
O10B O 0.89390(16) 0.09163(15) 0.04544(10)
O10B_2 O -0.10610(16) 0.09163(15) 0.04544(10)
O11B O -0.16944(15) -0.14914(14) -0.06935(9)
O11B_2 O 0.83056(15) -0.14914(14) -0.06935(9)
O12C O 0.21150(16) 0.13333(15) -0.39433(10)
O12B O -0.21150(16) -0.36667(15) -0.10567(10)
C1A C 0.4966(2) 0.6576(2) 0.17049(15)
C2B C 0.3144(3) 0.0368(2) -0.20416(16)
C2A C 0.3144(3) 0.4632(2) 0.29584(16)
C3B C 0.4920(3) -0.2822(2) -0.06976(16)
C5B C 0.7800(3) 0.0833(2) 0.03858(16)
C6B C -0.1307(3) -0.2701(2) -0.06571(15)
H1A H 0.485(2) 0.727(2) 0.1316(15)
H2B H 0.219(3) 0.056(2) -0.2571(17)
H2A H 0.219(3) 0.444(2) 0.2429(17)
H3B H 0.459(3) -0.372(3) -0.0755(15)
H5B H 0.779(2) 0.128(2) 0.0834(16)
H6B H -0.031(3) -0.286(2) -0.0266(15)
C7 C 0.1795(3) 0.3989(3) -0.0904(2)
H7 H 0.2138 0.3376 -0.0435
C8 C 0.1275(3) 0.5211(3) -0.08844(19)
H8 H 0.1280 0.5451 -0.0395
C9 C 0.0741(3) 0.6097(3) -0.15776(18)
H9 H 0.0376 0.6942 -0.1567
C10 C 0.0743(3) 0.5747(3) -0.22763(19)
H10 H 0.0369 0.6346 -0.2756
C11 C 0.1292(3) 0.4512(3) -0.22856(18)
H11 H 0.1297 0.4270 -0.2770
C12 C 0.1824(3) 0.3647(3) -0.15961(18)
H12 H 0.2212 0.2811 -0.1598
loop_
_geom_bond_atom_site_label_1
_geom_bond_atom_site_label_2
_geom_bond_site_symmetry_1
_geom_bond_site_symmetry_2
Fe1 O1 1_555 1_555
Fe2 O1C 1_555 1_555
Fe3 O4 1_555 1_555
Fe4 O8 1_555 1_555
O1 C1 1_555 1_555
O2 C1 1_555 1_555
O3 Fe1 1_555 1_555
O4 C2 1_555 1_555
O5 Fe1 1_555 1_555
O6 Fe3 1_555 1_555
O7 Fe1 1_555 1_555
O8 C4 1_555 1_555
O9 Fe1 1_555 1_555
O10 Fe4 1_555 1_555
O11 Fe1 1_555 1_555
O12 C6 1_555 1_555
C1 H1 1_555 1_555
C2 O3 1_555 1_555
C3 O5 1_555 1_555
C4 O7 1_555 1_555
C5 O9 1_555 1_555
C6 O11 1_555 1_555
H2 C2 1_555 1_555
H3 C3 1_555 1_555
H4 C4 1_555 1_555
H5 C5 1_555 1_555
H6 C6 1_555 1_555
C7 H7 1_555 1_555
C8 C7 1_555 1_555
H8 C8 1_555 1_555
C9 C8 1_555 1_555
H9 C9 1_555 1_555
C10 C9 1_555 1_555
H10 C10 1_555 1_555
C11 C10 1_555 1_555
H11 C11 1_555 1_555
C12 C7 1_555 1_555
H12 C12 1_555 1_555
Fe1B O1B 1_555 1_555
Fe1B_2 O11B 1_555 1_555
Fe1A O1A 1_555 1_555
Fe2B O2 1_555 1_555
Fe2C O1 1_555 1_555
Fe2A O1B 1_555 1_555
Fe2A_2 O12B 1_555 1_555
Fe2B_2 O1A 1_555 1_555
Fe3C O4A 1_555 1_555
Fe4_2 O10B 1_555 1_555
O1A C1A 1_555 1_555
O2B Fe2 1_555 1_555
O2A Fe2C 1_555 1_555
O3B Fe2 1_555 1_555
O3A Fe1A 1_555 1_555
O4B Fe3 1_555 1_555
O4A C2A 1_555 1_555
O5B Fe1B 1_555 1_555
O5C Fe2 1_555 1_555
O6B Fe3 1_555 1_555
O7B Fe2 1_555 1_555
O7A Fe1A 1_555 1_555
O8B Fe4 1_555 1_555
O9B Fe3 1_555 1_555
O10B C5B 1_555 1_555
O10B_2 Fe4 1_555 1_555
O11B Fe4 1_555 1_555
O11B_2 Fe1B 1_555 1_555
O12C Fe2 1_555 1_555
O12B C6B 1_555 1_555
C1A O2A 1_555 1_555
C2B O3B 1_555 1_555
C2A O3A 1_555 1_555
C3B O5B 1_555 1_555
C5B O9B 1_555 1_555
C6B O11B 1_555 1_555
H1A C1A 1_555 1_555
H2B C2B 1_555 1_555
H2A C2A 1_555 1_555
H3B C3B 1_555 1_555
H5B C5B 1_555 1_555
H6B C6B 1_555 1_555
Fe3 O9 1_555 1_555
Fe4 O11 1_555 1_555
O3 Fe2B 1_555 1_555
O5 Fe2C 1_555 1_555
O6 C3 1_555 1_555
O7 Fe2B 1_555 1_555
O10 C5 1_555 1_555
O12 Fe2C 1_555 1_555
C11 C12 1_555 1_555
Fe1B O3B 1_555 1_555
Fe1B O7B 1_555 1_555
Fe1B O9B 1_555 1_555
Fe2C O3A 1_555 1_555
Fe2C O7A 1_555 1_555
Fe2A O5B 1_555 1_555
Fe4_2 O11B_2 1_555 1_555
O4B C2B 1_555 1_555
O6B C3B 1_555 1_555

#END
