
#######################################################################
#
#                 Cambridge Crystallographic Data Centre
#                                CCDC 
#
#######################################################################
#
# If this CIF has been generated from an entry in the Cambridge 
# Structural Database, then it will include bibliographic, chemical, 
# crystal, experimental, refinement or atomic coordinate data resulting 
# from the CCDC's data processing and validation procedures.
#
#######################################################################

data_NIHBIQ02
_chemical_formula_moiety         '(C18 H18 Fe6 O24)n'
_symmetry_cell_setting           monoclinic
_symmetry_space_group_name_H-M   'P 21/c'
_symmetry_Int_Tables_number      14
_space_group_name_Hall           '-P 2ybc'
loop_
_symmetry_equiv_pos_site_id
_symmetry_equiv_pos_as_xyz
1 x,y,z
2 -x,1/2+y,1/2-z
3 -x,-y,-z
4 x,1/2-y,1/2+z
_cell_length_a                   11.5008(3)
_cell_length_b                   10.1568(2)
_cell_length_c                   18.9745(4)
_cell_angle_alpha                90
_cell_angle_beta                 126.3570(10)
_cell_angle_gamma                90
_cell_volume                     1784.98
loop_
_atom_site_label
_atom_site_type_symbol
_atom_site_fract_x
_atom_site_fract_y
_atom_site_fract_z
Fe1 Fe 0.38014(4) 0.06845(4) 0.13429(2)
Fe2 Fe 0.43955(4) 0.12905(4) -0.30100(2)
Fe3 Fe 0.5000 0.0000 0.0000
Fe4 Fe 0.0000 0.0000 0.0000
O1 O 0.44575(19) 0.18122(17) 0.25004(11)
O2 O 0.5508(2) 0.03750(18) 0.36021(12)
O3 O 0.5840(2) -0.02428(17) 0.21221(12)
O4 O 0.6700(2) -0.0308(2) 0.13359(13)
O5 O 0.4682(2) 0.24404(18) 0.11962(11)
O6 O 0.5118(2) 0.20274(19) 0.02124(13)
O7 O 0.3410(2) -0.09741(17) 0.18825(11)
O8 O 0.1031(2) -0.1320(2) 0.10666(13)
O9 O 0.3340(2) -0.01951(18) 0.02039(12)
O10 O 0.1057(2) -0.0880(2) -0.04600(13)
O11 O 0.17100(18) 0.14495(17) 0.07106(11)
O12 O 0.2159(2) 0.35791(18) 0.10994(12)
C1 C 0.5059(3) 0.1482(3) 0.32875(19)
C2 C 0.6810(3) -0.0427(3) 0.2016(2)
C3 C 0.5061(4) 0.2759(3) 0.0711(2)
C4 C 0.2284(3) -0.1571(3) 0.1680(2)
C5 C 0.2191(4) -0.0802(3) -0.0392(2)
C6 C 0.1344(3) 0.2636(3) 0.06944(19)
H1 H 0.525(3) 0.216(3) 0.3702(17)
H2 H 0.771(4) -0.066(3) 0.251(2)
H3 H 0.526(4) 0.368(3) 0.069(2)
H4 H 0.244(3) -0.234(3) 0.206(2)
H5 H 0.215(3) -0.123(3) -0.087(2)
H6 H 0.032(3) 0.278(3) 0.0308(18)
Fe1B Fe 0.61986(4) -0.06845(4) -0.13429(2)
Fe1B_2 Fe -0.38014(4) -0.06845(4) -0.13429(2)
Fe1A Fe 0.61986(4) 0.56845(4) 0.36571(2)
Fe2B Fe 0.56045(4) -0.12905(4) 0.30100(2)
Fe2C Fe 0.43955(4) 0.37095(4) 0.19900(2)
Fe2A Fe 0.56045(4) -0.37095(4) -0.19900(2)
Fe2A_2 Fe -0.43955(4) -0.37095(4) -0.19900(2)
Fe2B_2 Fe 0.56045(4) 0.87095(4) 0.30100(2)
Fe3C Fe 0.5000 0.5000 0.5000
Fe4_2 Fe 1.0000 0.0000 0.0000
O1B O 0.55425(19) -0.18122(17) -0.25004(11)
O1C O 0.44575(19) 0.31878(17) -0.24996(11)
O1A O 0.55425(19) 0.68122(17) 0.24996(11)
O2B O 0.4492(2) -0.03750(18) -0.36021(12)
O2A O 0.4492(2) 0.53750(18) 0.13979(12)
O3B O 0.4160(2) 0.02428(17) -0.21221(12)
O3A O 0.4160(2) 0.47572(17) 0.28779(12)
O4B O 0.3300(2) 0.0308(2) -0.13359(13)
O4A O 0.3300(2) 0.4692(2) 0.36641(13)
O5B O 0.5318(2) -0.24404(18) -0.11962(11)
O5C O 0.4682(2) 0.25596(18) -0.38038(11)
O6B O 0.4882(2) -0.20274(19) -0.02124(13)
O7B O 0.6590(2) 0.09741(17) -0.18825(11)
O7A O 0.6590(2) 0.40259(17) 0.31175(11)
O8B O -0.1031(2) 0.1320(2) -0.10666(13)
O9B O 0.6660(2) 0.01951(18) -0.02039(12)
O10B O 0.8943(2) 0.0880(2) 0.04600(13)
O10B_2 O -0.1057(2) 0.0880(2) 0.04600(13)
O11B O -0.17100(18) -0.14495(17) -0.07106(11)
O11B_2 O 0.82900(18) -0.14495(17) -0.07106(11)
O12C O 0.2159(2) 0.14209(18) -0.39006(12)
O12B O -0.2159(2) -0.35791(18) -0.10994(12)
C1A C 0.4941(3) 0.6482(3) 0.17125(19)
C2B C 0.3190(3) 0.0427(3) -0.2016(2)
C2A C 0.3190(3) 0.4573(3) 0.2984(2)
C3B C 0.4939(4) -0.2759(3) -0.0711(2)
C5B C 0.7809(4) 0.0802(3) 0.0392(2)
C6B C -0.1344(3) -0.2636(3) -0.06944(19)
H1A H 0.475(3) 0.716(3) 0.1298(17)
H2B H 0.229(4) 0.066(3) -0.251(2)
H2A H 0.229(4) 0.434(3) 0.249(2)
H3B H 0.474(4) -0.368(3) -0.069(2)
H5B H 0.785(3) 0.123(3) 0.087(2)
H6B H -0.032(3) -0.278(3) -0.0308(18)
C7 C 0.1734(7) 0.3970(8) -0.0913(4)
H7 H 0.2017 0.3366 -0.0470
C8 C 0.1285(7) 0.5165(8) -0.0883(3)
H8 H 0.1305 0.5403 -0.0402
C9 C 0.0794(5) 0.6045(5) -0.1551(4)
H9 H 0.0458 0.6870 -0.1537
C10 C 0.0808(6) 0.5690(5) -0.2226(4)
H10 H 0.0472 0.6270 -0.2689
C11 C 0.1309(6) 0.4492(5) -0.2235(3)
H11 H 0.1328 0.4258 -0.2702
C12 C 0.1779(6) 0.3635(5) -0.1580(3)
H12 H 0.2134 0.2817 -0.1588
loop_
_geom_bond_atom_site_label_1
_geom_bond_atom_site_label_2
_geom_bond_site_symmetry_1
_geom_bond_site_symmetry_2
Fe1 O1 1_555 1_555
Fe2 O1C 1_555 1_555
Fe3 O4 1_555 1_555
Fe4 O8 1_555 1_555
O1 C1 1_555 1_555
O2 C1 1_555 1_555
O3 Fe1 1_555 1_555
O4 C2 1_555 1_555
O5 Fe1 1_555 1_555
O6 Fe3 1_555 1_555
O7 Fe1 1_555 1_555
O8 C4 1_555 1_555
O9 Fe1 1_555 1_555
O10 Fe4 1_555 1_555
O11 Fe1 1_555 1_555
O12 C6 1_555 1_555
C1 H1 1_555 1_555
C2 O3 1_555 1_555
C3 O5 1_555 1_555
C4 O7 1_555 1_555
C5 O9 1_555 1_555
C6 O11 1_555 1_555
H2 C2 1_555 1_555
H3 C3 1_555 1_555
H4 C4 1_555 1_555
H5 C5 1_555 1_555
H6 C6 1_555 1_555
C7 H7 1_555 1_555
C8 C7 1_555 1_555
H8 C8 1_555 1_555
C9 C8 1_555 1_555
H9 C9 1_555 1_555
C10 C9 1_555 1_555
H10 C10 1_555 1_555
C11 C10 1_555 1_555
H11 C11 1_555 1_555
C12 C7 1_555 1_555
H12 C12 1_555 1_555
Fe1B O1B 1_555 1_555
Fe1B_2 O11B 1_555 1_555
Fe1A O1A 1_555 1_555
Fe2B O2 1_555 1_555
Fe2C O1 1_555 1_555
Fe2A O1B 1_555 1_555
Fe2A_2 O12B 1_555 1_555
Fe2B_2 O1A 1_555 1_555
Fe3C O4A 1_555 1_555
Fe4_2 O10B 1_555 1_555
O1A C1A 1_555 1_555
O2B Fe2 1_555 1_555
O2A Fe2C 1_555 1_555
O3B Fe2 1_555 1_555
O3A Fe1A 1_555 1_555
O4B Fe3 1_555 1_555
O4A C2A 1_555 1_555
O5B Fe1B 1_555 1_555
O5C Fe2 1_555 1_555
O6B Fe3 1_555 1_555
O7B Fe2 1_555 1_555
O7A Fe1A 1_555 1_555
O8B Fe4 1_555 1_555
O9B Fe3 1_555 1_555
O10B C5B 1_555 1_555
O10B_2 Fe4 1_555 1_555
O11B Fe4 1_555 1_555
O11B_2 Fe1B 1_555 1_555
O12C Fe2 1_555 1_555
O12B C6B 1_555 1_555
C1A O2A 1_555 1_555
C2B O3B 1_555 1_555
C2A O3A 1_555 1_555
C3B O5B 1_555 1_555
C5B O9B 1_555 1_555
C6B O11B 1_555 1_555
H1A C1A 1_555 1_555
H2B C2B 1_555 1_555
H2A C2A 1_555 1_555
H3B C3B 1_555 1_555
H5B C5B 1_555 1_555
H6B C6B 1_555 1_555
Fe3 O9 1_555 1_555
Fe4 O11 1_555 1_555
O3 Fe2B 1_555 1_555
O5 Fe2C 1_555 1_555
O6 C3 1_555 1_555
O7 Fe2B 1_555 1_555
O10 C5 1_555 1_555
O12 Fe2C 1_555 1_555
C11 C12 1_555 1_555
Fe1B O3B 1_555 1_555
Fe1B O7B 1_555 1_555
Fe1B O9B 1_555 1_555
Fe2C O3A 1_555 1_555
Fe2C O7A 1_555 1_555
Fe2A O5B 1_555 1_555
Fe4_2 O11B_2 1_555 1_555
O4B C2B 1_555 1_555
O6B C3B 1_555 1_555

#END
