
#######################################################################
#
#                 Cambridge Crystallographic Data Centre
#                                CCDC 
#
#######################################################################
#
# If this CIF has been generated from an entry in the Cambridge 
# Structural Database, then it will include bibliographic, chemical, 
# crystal, experimental, refinement or atomic coordinate data resulting 
# from the CCDC's data processing and validation procedures.
#
#######################################################################

data_NIHBAI02
_chemical_formula_moiety         '(C12 H12 Fe6 I2 O24)n'
_symmetry_cell_setting           monoclinic
_symmetry_space_group_name_H-M   'P 21/c'
_symmetry_Int_Tables_number      14
_space_group_name_Hall           '-P 2ybc'
loop_
_symmetry_equiv_pos_site_id
_symmetry_equiv_pos_as_xyz
1 x,y,z
2 -x,1/2+y,1/2-z
3 -x,-y,-z
4 x,1/2-y,1/2+z
_cell_length_a                   11.4198(2)
_cell_length_b                   9.8979(2)
_cell_length_c                   18.4392(4)
_cell_angle_alpha                90
_cell_angle_beta                 126.8530(10)
_cell_angle_gamma                90
_cell_volume                     1667.75
loop_
_atom_site_label
_atom_site_type_symbol
_atom_site_fract_x
_atom_site_fract_y
_atom_site_fract_z
Fe1 Fe 0.37725(5) 0.08216(5) 0.13297(3)
Fe2 Fe 0.42781(5) 0.10670(5) -0.31167(3)
Fe3 Fe 0.5000 0.0000 0.0000
Fe4 Fe 0.0000 0.0000 0.0000
O1 O 0.4371(3) 0.2028(2) 0.24630(15)
O2 O 0.5497(3) 0.0643(3) 0.36579(16)
O3 O 0.5895(3) -0.0016(2) 0.21840(16)
O4 O 0.6763(3) -0.0001(3) 0.13793(18)
O5 O 0.4547(3) 0.2594(2) 0.10745(15)
O6 O 0.4843(3) 0.2098(3) 0.00171(18)
O7 O 0.3453(3) -0.0814(2) 0.19548(15)
O8 O 0.1047(3) -0.1055(3) 0.11953(19)
O9 O 0.3365(3) -0.0246(3) 0.02278(16)
O10 O 0.1147(3) -0.1045(3) -0.0342(2)
O11 O 0.1597(3) 0.1558(3) 0.06076(15)
O12 O 0.2033(3) 0.3770(3) 0.09432(18)
C1 C 0.4962(4) 0.1735(4) 0.3292(2)
H1 H 0.4987 0.2413 0.3649
C2 C 0.6913(4) -0.0135(4) 0.2096(2)
H2 H 0.7844 -0.0341 0.2613
C3 C 0.4742(4) 0.2894(4) 0.0492(2)
H3 H 0.4817 0.3808 0.0410
C4 C 0.2319(4) -0.1297(4) 0.1829(2)
H4 H 0.2468 -0.1899 0.2265
C5 C 0.2239(4) -0.0971(4) -0.0317(3)
H5 H 0.2249 -0.1490 -0.0733
C6 C 0.1196(4) 0.2803(4) 0.0532(3)
H6 H 0.0200 0.2987 0.0138
Fe1B Fe 0.62275(5) -0.08216(5) -0.13297(3)
Fe1B_2 Fe -0.37725(5) -0.08216(5) -0.13297(3)
Fe1A Fe 0.62275(5) 0.58216(5) 0.36703(3)
Fe2B Fe 0.57219(5) -0.10670(5) 0.31167(3)
Fe2C Fe 0.42781(5) 0.39330(5) 0.18833(3)
Fe2A Fe 0.57219(5) -0.39330(5) -0.18833(3)
Fe2A_2 Fe -0.42781(5) -0.39330(5) -0.18833(3)
Fe2B_2 Fe 0.57219(5) 0.89330(5) 0.31167(3)
Fe3C Fe 0.5000 0.5000 0.5000
Fe4_2 Fe 1.0000 0.0000 0.0000
O1B O 0.5629(3) -0.2028(2) -0.24630(15)
O1C O 0.4371(3) 0.2972(2) -0.25370(15)
O1A O 0.5629(3) 0.7028(2) 0.25370(15)
O2B O 0.4503(3) -0.0643(3) -0.36579(16)
O2A O 0.4503(3) 0.5643(3) 0.13421(16)
O3B O 0.4105(3) 0.0016(2) -0.21840(16)
O3A O 0.4105(3) 0.4984(2) 0.28160(16)
O4B O 0.3237(3) 0.0001(3) -0.13793(18)
O4A O 0.3237(3) 0.4999(3) 0.36207(18)
O5B O 0.5453(3) -0.2594(2) -0.10745(15)
O5C O 0.4547(3) 0.2406(2) -0.39255(15)
O6B O 0.5157(3) -0.2098(3) -0.00171(18)
O7B O 0.6547(3) 0.0814(2) -0.19548(15)
O7A O 0.6547(3) 0.4186(2) 0.30452(15)
O8B O -0.1047(3) 0.1055(3) -0.11953(19)
O9B O 0.6635(3) 0.0246(3) -0.02278(16)
O10B O 0.8853(3) 0.1045(3) 0.0342(2)
O10B_2 O -0.1147(3) 0.1045(3) 0.0342(2)
O11B O -0.1597(3) -0.1558(3) -0.06076(15)
O11B_2 O 0.8403(3) -0.1558(3) -0.06076(15)
O12C O 0.2033(3) 0.1230(3) -0.40568(18)
O12B O -0.2033(3) -0.3770(3) -0.09432(18)
C1A C 0.5038(4) 0.6735(4) 0.1708(2)
H1A H 0.5013 0.7413 0.1351
C2B C 0.3087(4) 0.0135(4) -0.2096(2)
C2A C 0.3087(4) 0.4865(4) 0.2904(2)
H2B H 0.2156 0.0341 -0.2613
H2A H 0.2156 0.4659 0.2387
C3B C 0.5258(4) -0.2894(4) -0.0492(2)
H3B H 0.5183 -0.3808 -0.0410
C5B C 0.7761(4) 0.0971(4) 0.0317(3)
H5B H 0.7751 0.1490 0.0733
C6B C -0.1196(4) -0.2803(4) -0.0532(3)
H6B H -0.0200 -0.2987 -0.0138
I1 I -0.1457(4) -0.52720(16) 0.1361(4)
I2 I -0.1142(9) -0.494(2) 0.1790(11)
loop_
_geom_bond_atom_site_label_1
_geom_bond_atom_site_label_2
_geom_bond_site_symmetry_1
_geom_bond_site_symmetry_2
Fe1 O1 1_555 1_555
Fe2 O1C 1_555 1_555
Fe3 O4 1_555 1_555
Fe4 O8 1_555 1_555
O1 C1 1_555 1_555
O2 C1 1_555 1_555
O3 Fe1 1_555 1_555
O4 C2 1_555 1_555
O5 Fe1 1_555 1_555
O6 Fe3 1_555 1_555
O7 Fe1 1_555 1_555
O8 C4 1_555 1_555
O9 Fe1 1_555 1_555
O10 Fe4 1_555 1_555
O11 Fe1 1_555 1_555
O12 C6 1_555 1_555
C1 H1 1_555 1_555
C2 O3 1_555 1_555
H2 C2 1_555 1_555
C3 O5 1_555 1_555
H3 C3 1_555 1_555
C4 O7 1_555 1_555
H4 C4 1_555 1_555
C5 O9 1_555 1_555
H5 C5 1_555 1_555
C6 O11 1_555 1_555
H6 C6 1_555 1_555
I1 I2 1_555 1_555
Fe1B O1B 1_555 1_555
Fe1B_2 O11B 1_555 1_555
Fe1A O1A 1_555 1_555
Fe2B O2 1_555 1_555
Fe2C O1 1_555 1_555
Fe2A O1B 1_555 1_555
Fe2A_2 O12B 1_555 1_555
Fe2B_2 O1A 1_555 1_555
Fe3C O4A 1_555 1_555
Fe4_2 O10B 1_555 1_555
O1A C1A 1_555 1_555
O2B Fe2 1_555 1_555
O2A Fe2C 1_555 1_555
O3B Fe2 1_555 1_555
O3A Fe1A 1_555 1_555
O4B Fe3 1_555 1_555
O4A C2A 1_555 1_555
O5B Fe1B 1_555 1_555
O5C Fe2 1_555 1_555
O6B Fe3 1_555 1_555
O7B Fe2 1_555 1_555
O7A Fe1A 1_555 1_555
O8B Fe4 1_555 1_555
O9B Fe3 1_555 1_555
O10B C5B 1_555 1_555
O10B_2 Fe4 1_555 1_555
O11B Fe4 1_555 1_555
O11B_2 Fe1B 1_555 1_555
O12C Fe2 1_555 1_555
O12B C6B 1_555 1_555
C1A O2A 1_555 1_555
H1A C1A 1_555 1_555
C2B O3B 1_555 1_555
C2A O3A 1_555 1_555
H2B C2B 1_555 1_555
H2A C2A 1_555 1_555
C3B O5B 1_555 1_555
H3B C3B 1_555 1_555
C5B O9B 1_555 1_555
H5B C5B 1_555 1_555
C6B O11B 1_555 1_555
H6B C6B 1_555 1_555
Fe3 O9 1_555 1_555
Fe4 O11 1_555 1_555
O3 Fe2B 1_555 1_555
O5 Fe2C 1_555 1_555
O6 C3 1_555 1_555
O7 Fe2B 1_555 1_555
O10 C5 1_555 1_555
O12 Fe2C 1_555 1_555
Fe1B O3B 1_555 1_555
Fe1B O7B 1_555 1_555
Fe1B O9B 1_555 1_555
Fe2C O3A 1_555 1_555
Fe2C O7A 1_555 1_555
Fe2A O5B 1_555 1_555
Fe4_2 O11B_2 1_555 1_555
O4B C2B 1_555 1_555
O6B C3B 1_555 1_555

#END
