
#######################################################################
#
#                 Cambridge Crystallographic Data Centre
#                                CCDC 
#
#######################################################################
#
# If this CIF has been generated from an entry in the Cambridge 
# Structural Database, then it will include bibliographic, chemical, 
# crystal, experimental, refinement or atomic coordinate data resulting 
# from the CCDC's data processing and validation procedures.
#
#######################################################################

data_NIHBEM01
_chemical_formula_moiety         '(C16 H16 Fe6 O25)n'
_symmetry_cell_setting           monoclinic
_symmetry_space_group_name_H-M   'P 21/c'
_symmetry_Int_Tables_number      14
_space_group_name_Hall           '-P 2ybc'
loop_
_symmetry_equiv_pos_site_id
_symmetry_equiv_pos_as_xyz
1 x,y,z
2 -x,1/2+y,1/2-z
3 -x,-y,-z
4 x,1/2-y,1/2+z
_cell_length_a                   11.3390(3)
_cell_length_b                   9.9023(2)
_cell_length_c                   18.5536(5)
_cell_angle_alpha                90
_cell_angle_beta                 126.7070(10)
_cell_angle_gamma                90
_cell_volume                     1670.14
loop_
_atom_site_label
_atom_site_type_symbol
_atom_site_fract_x
_atom_site_fract_y
_atom_site_fract_z
Fe1 Fe 0.37879(4) 0.07931(4) 0.13363(2)
Fe2 Fe 0.42897(4) 0.11077(4) -0.30903(2)
Fe3 Fe 0.5000 0.0000 0.0000
Fe4 Fe 0.0000 0.0000 0.0000
O1 O 0.4374(2) 0.19834(17) 0.24741(12)
O2 O 0.5541(2) 0.05995(18) 0.36693(13)
O3 O 0.5922(2) -0.00565(17) 0.21714(12)
O4 O 0.6816(2) -0.0103(2) 0.13798(13)
O5 O 0.4605(2) 0.25773(17) 0.11192(12)
O6 O 0.4917(2) 0.21035(19) 0.00630(13)
O7 O 0.3448(2) -0.08618(17) 0.19408(12)
O8 O 0.1025(2) -0.11119(19) 0.12003(14)
O9 O 0.3362(2) -0.02586(18) 0.02261(13)
O10 O 0.1114(2) -0.11017(19) -0.03857(14)
O11 O 0.16508(19) 0.15703(17) 0.06256(12)
O12 O 0.2028(2) 0.37776(17) 0.09707(13)
C1 C 0.4987(3) 0.1705(3) 0.32976(19)
C2 C 0.6945(3) -0.0210(3) 0.2091(2)
C3 C 0.4837(3) 0.2894(3) 0.05490(19)
C4 C 0.2314(3) -0.1370(3) 0.1817(2)
C5 C 0.2244(3) -0.1008(3) -0.0326(2)
C6 C 0.1235(3) 0.2794(3) 0.05442(19)
H1 H 0.504(3) 0.243(3) 0.3691(17)
H2 H 0.798(3) -0.036(3) 0.267(2)
H3 H 0.499(3) 0.387(3) 0.051(2)
H4 H 0.242(3) -0.214(3) 0.217(2)
H5 H 0.235(3) -0.152(3) -0.0693(19)
H6 H 0.020(4) 0.291(3) 0.011(2)
Fe1B Fe 0.62121(4) -0.07931(4) -0.13363(2)
Fe1B_2 Fe -0.37879(4) -0.07931(4) -0.13363(2)
Fe1A Fe 0.62121(4) 0.57931(4) 0.36637(2)
Fe2B Fe 0.57103(4) -0.11077(4) 0.30903(2)
Fe2C Fe 0.42897(4) 0.38923(4) 0.19097(2)
Fe2A Fe 0.57103(4) -0.38923(4) -0.19097(2)
Fe2A_2 Fe -0.42897(4) -0.38923(4) -0.19097(2)
Fe2B_2 Fe 0.57103(4) 0.88923(4) 0.30903(2)
Fe3C Fe 0.5000 0.5000 0.5000
Fe4_2 Fe 1.0000 0.0000 0.0000
O1B O 0.5626(2) -0.19834(17) -0.24741(12)
O1C O 0.4374(2) 0.30166(17) -0.25259(12)
O1A O 0.5626(2) 0.69834(17) 0.25259(12)
O2B O 0.4459(2) -0.05995(18) -0.36693(13)
O2A O 0.4459(2) 0.55995(18) 0.13307(13)
O3B O 0.4078(2) 0.00565(17) -0.21714(12)
O3A O 0.4078(2) 0.49435(17) 0.28286(12)
O4B O 0.3184(2) 0.0103(2) -0.13798(13)
O4A O 0.3184(2) 0.4897(2) 0.36202(13)
O5B O 0.5395(2) -0.25773(17) -0.11192(12)
O5C O 0.4605(2) 0.24227(17) -0.38808(12)
O6B O 0.5083(2) -0.21035(19) -0.00630(13)
O7B O 0.6552(2) 0.08618(17) -0.19408(12)
O7A O 0.6552(2) 0.41382(17) 0.30592(12)
O8B O -0.1025(2) 0.11119(19) -0.12003(14)
O9B O 0.6638(2) 0.02586(18) -0.02261(13)
O10B O 0.8886(2) 0.11017(19) 0.03857(14)
O10B_2 O -0.1114(2) 0.11017(19) 0.03857(14)
O11B O -0.16508(19) -0.15703(17) -0.06256(12)
O11B_2 O 0.83492(19) -0.15703(17) -0.06256(12)
O12C O 0.2028(2) 0.12224(17) -0.40293(13)
O12B O -0.2028(2) -0.37776(17) -0.09707(13)
C1A C 0.5013(3) 0.6705(3) 0.17024(19)
C2B C 0.3055(3) 0.0210(3) -0.2091(2)
C2A C 0.3055(3) 0.4790(3) 0.2909(2)
C3B C 0.5163(3) -0.2894(3) -0.05490(19)
C5B C 0.7756(3) 0.1008(3) 0.0326(2)
C6B C -0.1235(3) -0.2794(3) -0.05442(19)
H1A H 0.496(3) 0.743(3) 0.1309(17)
H2B H 0.202(3) 0.036(3) -0.267(2)
H2A H 0.202(3) 0.464(3) 0.233(2)
H3B H 0.501(3) -0.387(3) -0.051(2)
H5B H 0.765(3) 0.152(3) 0.0693(19)
H6B H -0.020(4) -0.291(3) -0.011(2)
O13 O 0.1602(5) 0.3717(4) -0.0873(3)
C7 C 0.1508(6) 0.5028(5) -0.0984(4)
H7 H 0.1690 0.5654 -0.0539
C8 C 0.1137(6) 0.5378(6) -0.1771(4)
H8 H 0.0999 0.6266 -0.2004
C9 C 0.0982(6) 0.4111(6) -0.2212(3)
H9 H 0.0718 0.3982 -0.2799
C10 C 0.1286(7) 0.3194(6) -0.1624(4)
H10 H 0.1280 0.2253 -0.1724
loop_
_geom_bond_atom_site_label_1
_geom_bond_atom_site_label_2
_geom_bond_site_symmetry_1
_geom_bond_site_symmetry_2
Fe1 O1 1_555 1_555
Fe2 O1C 1_555 1_555
Fe3 O4 1_555 1_555
Fe4 O8 1_555 1_555
O1 C1 1_555 1_555
O2 C1 1_555 1_555
O3 Fe1 1_555 1_555
O4 C2 1_555 1_555
O5 Fe1 1_555 1_555
O6 Fe3 1_555 1_555
O7 Fe1 1_555 1_555
O8 C4 1_555 1_555
O9 Fe1 1_555 1_555
O10 Fe4 1_555 1_555
O11 Fe1 1_555 1_555
O12 C6 1_555 1_555
C1 H1 1_555 1_555
C2 O3 1_555 1_555
C3 O5 1_555 1_555
C4 O7 1_555 1_555
C5 O9 1_555 1_555
C6 O11 1_555 1_555
H2 C2 1_555 1_555
H3 C3 1_555 1_555
H4 C4 1_555 1_555
H5 C5 1_555 1_555
H6 C6 1_555 1_555
O13 C7 1_555 1_555
C7 H7 1_555 1_555
C8 C7 1_555 1_555
H8 C8 1_555 1_555
C9 C8 1_555 1_555
H9 C9 1_555 1_555
C10 O13 1_555 1_555
H10 C10 1_555 1_555
Fe1B O1B 1_555 1_555
Fe1B_2 O11B 1_555 1_555
Fe1A O1A 1_555 1_555
Fe2B O2 1_555 1_555
Fe2C O1 1_555 1_555
Fe2A O1B 1_555 1_555
Fe2A_2 O12B 1_555 1_555
Fe2B_2 O1A 1_555 1_555
Fe3C O4A 1_555 1_555
Fe4_2 O10B 1_555 1_555
O1A C1A 1_555 1_555
O2B Fe2 1_555 1_555
O2A Fe2C 1_555 1_555
O3B Fe2 1_555 1_555
O3A Fe1A 1_555 1_555
O4B Fe3 1_555 1_555
O4A C2A 1_555 1_555
O5B Fe1B 1_555 1_555
O5C Fe2 1_555 1_555
O6B Fe3 1_555 1_555
O7B Fe2 1_555 1_555
O7A Fe1A 1_555 1_555
O8B Fe4 1_555 1_555
O9B Fe3 1_555 1_555
O10B C5B 1_555 1_555
O10B_2 Fe4 1_555 1_555
O11B Fe4 1_555 1_555
O11B_2 Fe1B 1_555 1_555
O12C Fe2 1_555 1_555
O12B C6B 1_555 1_555
C1A O2A 1_555 1_555
C2B O3B 1_555 1_555
C2A O3A 1_555 1_555
C3B O5B 1_555 1_555
C5B O9B 1_555 1_555
C6B O11B 1_555 1_555
H1A C1A 1_555 1_555
H2B C2B 1_555 1_555
H2A C2A 1_555 1_555
H3B C3B 1_555 1_555
H5B C5B 1_555 1_555
H6B C6B 1_555 1_555
Fe3 O9 1_555 1_555
Fe4 O11 1_555 1_555
O3 Fe2B 1_555 1_555
O5 Fe2C 1_555 1_555
O6 C3 1_555 1_555
O7 Fe2B 1_555 1_555
O10 C5 1_555 1_555
O12 Fe2C 1_555 1_555
C9 C10 1_555 1_555
Fe1B O3B 1_555 1_555
Fe1B O7B 1_555 1_555
Fe1B O9B 1_555 1_555
Fe2C O3A 1_555 1_555
Fe2C O7A 1_555 1_555
Fe2A O5B 1_555 1_555
Fe4_2 O11B_2 1_555 1_555
O4B C2B 1_555 1_555
O6B C3B 1_555 1_555

#END
