
#######################################################################
#
#                 Cambridge Crystallographic Data Centre
#                                CCDC 
#
#######################################################################
#
# If this CIF has been generated from an entry in the Cambridge 
# Structural Database, then it will include bibliographic, chemical, 
# crystal, experimental, refinement or atomic coordinate data resulting 
# from the CCDC's data processing and validation procedures.
#
#######################################################################

data_NIKYOW01
_chemical_formula_moiety         '(C13 H18 Fe6 O26)n'
_symmetry_cell_setting           monoclinic
_symmetry_space_group_name_H-M   'P 21/c'
_symmetry_Int_Tables_number      14
_space_group_name_Hall           '-P 2ybc'
loop_
_symmetry_equiv_pos_site_id
_symmetry_equiv_pos_as_xyz
1 x,y,z
2 -x,1/2+y,1/2-z
3 -x,-y,-z
4 x,1/2-y,1/2+z
_cell_length_a                   11.3577(2)
_cell_length_b                   9.8862(2)
_cell_length_c                   18.2191(5)
_cell_angle_alpha                90
_cell_angle_beta                 127.3020(10)
_cell_angle_gamma                90
_cell_volume                     1627.27
loop_
_atom_site_label
_atom_site_type_symbol
_atom_site_fract_x
_atom_site_fract_y
_atom_site_fract_z
Fe1 Fe 0.37704(4) 0.08141(3) 0.13244(3)
Fe2 Fe 0.42558(4) 0.10545(3) -0.31390(3)
Fe3 Fe 0.5000 0.0000 0.0000
Fe4 Fe 0.0000 0.0000 0.0000
O1 O 0.4381(2) 0.20391(16) 0.24664(12)
O2 O 0.5591(2) 0.06948(17) 0.37133(13)
O3 O 0.5939(2) -0.00107(16) 0.22023(13)
O4 O 0.6871(2) 0.00625(19) 0.14234(14)
O5 O 0.4540(2) 0.26050(16) 0.10581(12)
O6 O 0.4747(2) 0.20904(18) -0.00539(13)
O7 O 0.34606(19) -0.07999(16) 0.19847(12)
O8 O 0.1033(2) -0.09535(19) 0.12788(14)
O9 O 0.3356(2) -0.02930(17) 0.02269(13)
O10 O 0.1147(2) -0.11882(18) -0.03452(14)
O11 O 0.16125(19) 0.16061(17) 0.05757(12)
O12 O 0.1979(2) 0.38296(17) 0.08666(14)
C1 C 0.5032(3) 0.1785(3) 0.33185(19)
H1 H 0.5094 0.2505 0.3686
C2 C 0.6987(3) -0.0075(3) 0.2138(2)
H2 H 0.7950 -0.0245 0.2690
C3 C 0.4701(3) 0.2902(3) 0.0446(2)
H3 H 0.4796 0.3834 0.0363
C4 C 0.2332(3) -0.1202(3) 0.1914(2)
H4 H 0.2513 -0.1749 0.2402
C5 C 0.2265(3) -0.1095(3) -0.03012(19)
H5 H 0.2328 -0.1668 -0.0694
C6 C 0.1185(3) 0.2836(3) 0.04512(19)
H6 H 0.0158 0.3002 -0.0004
Fe1B Fe 0.62296(4) -0.08141(3) -0.13244(3)
Fe1B_2 Fe -0.37704(4) -0.08141(3) -0.13244(3)
Fe1A Fe 0.62296(4) 0.58141(3) 0.36756(3)
Fe2B Fe 0.57442(4) -0.10545(3) 0.31390(3)
Fe2C Fe 0.42558(4) 0.39455(3) 0.18610(3)
Fe2A Fe 0.57442(4) -0.39455(3) -0.18610(3)
Fe2A_2 Fe -0.42558(4) -0.39455(3) -0.18610(3)
Fe2B_2 Fe 0.57442(4) 0.89455(3) 0.31390(3)
Fe3C Fe 0.5000 0.5000 0.5000
Fe4_2 Fe 1.0000 0.0000 0.0000
O1B O 0.5619(2) -0.20391(16) -0.24664(12)
O1C O 0.4381(2) 0.29609(16) -0.25336(12)
O1A O 0.5619(2) 0.70391(16) 0.25336(12)
O2B O 0.4409(2) -0.06948(17) -0.37133(13)
O2A O 0.4409(2) 0.56948(17) 0.12867(13)
O3B O 0.4061(2) 0.00107(16) -0.22023(13)
O3A O 0.4061(2) 0.49893(16) 0.27977(13)
O4B O 0.3129(2) -0.00625(19) -0.14234(14)
O4A O 0.3129(2) 0.50625(19) 0.35766(14)
O5B O 0.5460(2) -0.26050(16) -0.10581(12)
O5C O 0.4540(2) 0.23950(16) -0.39419(12)
O6B O 0.5253(2) -0.20904(18) 0.00539(13)
O7B O 0.65394(19) 0.07999(16) -0.19847(12)
O7A O 0.65394(19) 0.42001(16) 0.30153(12)
O8B O -0.1033(2) 0.09535(19) -0.12788(14)
O9B O 0.6644(2) 0.02930(17) -0.02269(13)
O10B O 0.8853(2) 0.11882(18) 0.03452(14)
O10B_2 O -0.1147(2) 0.11882(18) 0.03452(14)
O11B O -0.16125(19) -0.16061(17) -0.05757(12)
O11B_2 O 0.83875(19) -0.16061(17) -0.05757(12)
O12C O 0.1979(2) 0.11704(17) -0.41334(14)
O12B O -0.1979(2) -0.38296(17) -0.08666(14)
C1A C 0.4968(3) 0.6785(3) 0.16815(19)
H1A H 0.4906 0.7505 0.1314
C2B C 0.3013(3) 0.0075(3) -0.2138(2)
C2A C 0.3013(3) 0.4925(3) 0.2862(2)
H2B H 0.2050 0.0245 -0.2690
H2A H 0.2050 0.4755 0.2310
C3B C 0.5299(3) -0.2902(3) -0.0446(2)
H3B H 0.5204 -0.3834 -0.0363
C5B C 0.7735(3) 0.1095(3) 0.03012(19)
H5B H 0.7672 0.1668 0.0694
C6B C -0.1185(3) -0.2836(3) -0.04512(19)
H6B H -0.0158 -0.3002 0.0004
C7 C 0.1579(7) 0.5216(6) -0.1046(4)
O13 O 0.2090(6) 0.5760(5) -0.1366(4)
O14 O 0.121(5) 0.336(4) -0.223(3)
loop_
_geom_bond_atom_site_label_1
_geom_bond_atom_site_label_2
_geom_bond_site_symmetry_1
_geom_bond_site_symmetry_2
Fe1 O1 1_555 1_555
Fe2 O1C 1_555 1_555
Fe3 O4 1_555 1_555
Fe4 O8 1_555 1_555
O1 C1 1_555 1_555
O2 C1 1_555 1_555
O3 Fe1 1_555 1_555
O4 C2 1_555 1_555
O5 Fe1 1_555 1_555
O6 Fe3 1_555 1_555
O7 Fe1 1_555 1_555
O8 C4 1_555 1_555
O9 Fe1 1_555 1_555
O10 Fe4 1_555 1_555
O11 Fe1 1_555 1_555
O12 C6 1_555 1_555
C1 H1 1_555 1_555
C2 O3 1_555 1_555
H2 C2 1_555 1_555
C3 O5 1_555 1_555
H3 C3 1_555 1_555
C4 O7 1_555 1_555
H4 C4 1_555 1_555
C5 O9 1_555 1_555
H5 C5 1_555 1_555
C6 O11 1_555 1_555
H6 C6 1_555 1_555
C7 O13 1_555 1_555
Fe1B O1B 1_555 1_555
Fe1B_2 O11B 1_555 1_555
Fe1A O1A 1_555 1_555
Fe2B O2 1_555 1_555
Fe2C O1 1_555 1_555
Fe2A O1B 1_555 1_555
Fe2A_2 O12B 1_555 1_555
Fe2B_2 O1A 1_555 1_555
Fe3C O4A 1_555 1_555
Fe4_2 O10B 1_555 1_555
O1A C1A 1_555 1_555
O2B Fe2 1_555 1_555
O2A Fe2C 1_555 1_555
O3B Fe2 1_555 1_555
O3A Fe1A 1_555 1_555
O4B Fe3 1_555 1_555
O4A C2A 1_555 1_555
O5B Fe1B 1_555 1_555
O5C Fe2 1_555 1_555
O6B Fe3 1_555 1_555
O7B Fe2 1_555 1_555
O7A Fe1A 1_555 1_555
O8B Fe4 1_555 1_555
O9B Fe3 1_555 1_555
O10B C5B 1_555 1_555
O10B_2 Fe4 1_555 1_555
O11B Fe4 1_555 1_555
O11B_2 Fe1B 1_555 1_555
O12C Fe2 1_555 1_555
O12B C6B 1_555 1_555
C1A O2A 1_555 1_555
H1A C1A 1_555 1_555
C2B O3B 1_555 1_555
C2A O3A 1_555 1_555
H2B C2B 1_555 1_555
H2A C2A 1_555 1_555
C3B O5B 1_555 1_555
H3B C3B 1_555 1_555
C5B O9B 1_555 1_555
H5B C5B 1_555 1_555
C6B O11B 1_555 1_555
H6B C6B 1_555 1_555
Fe3 O9 1_555 1_555
Fe4 O11 1_555 1_555
O3 Fe2B 1_555 1_555
O5 Fe2C 1_555 1_555
O6 C3 1_555 1_555
O7 Fe2B 1_555 1_555
O10 C5 1_555 1_555
O12 Fe2C 1_555 1_555
Fe1B O3B 1_555 1_555
Fe1B O7B 1_555 1_555
Fe1B O9B 1_555 1_555
Fe2C O3A 1_555 1_555
Fe2C O7A 1_555 1_555
Fe2A O5B 1_555 1_555
Fe4_2 O11B_2 1_555 1_555
O4B C2B 1_555 1_555
O6B C3B 1_555 1_555

#END
