
#######################################################################
#
#                 Cambridge Crystallographic Data Centre
#                                CCDC 
#
#######################################################################
#
# If this CIF has been generated from an entry in the Cambridge 
# Structural Database, then it will include bibliographic, chemical, 
# crystal, experimental, refinement or atomic coordinate data resulting 
# from the CCDC's data processing and validation procedures.
#
#######################################################################

data_NIKYUC01
_chemical_formula_moiety         '(C16 H20 Fe6 O25)n'
_symmetry_cell_setting           monoclinic
_symmetry_space_group_name_H-M   'P 21/c'
_symmetry_Int_Tables_number      14
_space_group_name_Hall           '-P 2ybc'
loop_
_symmetry_equiv_pos_site_id
_symmetry_equiv_pos_as_xyz
1 x,y,z
2 -x,1/2+y,1/2-z
3 -x,-y,-z
4 x,1/2-y,1/2+z
_cell_length_a                   11.4525(2)
_cell_length_b                   9.9803(2)
_cell_length_c                   18.5592(4)
_cell_angle_alpha                90
_cell_angle_beta                 126.8140(10)
_cell_angle_gamma                90
_cell_volume                     1698.29
loop_
_atom_site_label
_atom_site_type_symbol
_atom_site_fract_x
_atom_site_fract_y
_atom_site_fract_z
Fe1 Fe -0.62223(3) 0.07623(3) 0.133680(19)
Fe2 Fe -0.56851(3) 0.11547(3) -0.308020(19)
Fe3 Fe -0.5000 0.0000 0.0000
Fe4 Fe -1.0000 0.0000 0.0000
O1 O -0.55382(14) 0.19387(14) 0.24967(9)
O2 O -0.43473(16) 0.05686(15) 0.36889(10)
O3 O -0.41238(15) -0.01358(14) 0.21478(9)
O4 O -0.32060(16) -0.01456(16) 0.13737(10)
O5 O -0.54422(15) 0.25456(14) 0.10994(9)
O6 O -0.50468(16) 0.20894(15) 0.00825(10)
O7 O -0.65597(14) -0.08570(14) 0.19564(9)
O8 O -0.89647(15) -0.11513(16) 0.11806(10)
O9 O -0.66458(15) -0.02476(14) 0.02232(9)
O10 O -0.88999(16) -0.10313(15) -0.04153(11)
O11 O -0.83472(14) 0.15338(14) 0.06615(9)
O12 O -0.79476(15) 0.37098(15) 0.10283(10)
C1 C -0.4864(2) 0.1670(2) 0.33286(14)
C2 C -0.3113(2) -0.0305(2) 0.20651(15)
C3 C -0.5145(2) 0.2867(2) 0.05643(15)
C4 C -0.7692(2) -0.1382(2) 0.18190(15)
C5 C -0.7770(2) -0.0956(2) -0.03462(15)
C6 C -0.8754(2) 0.2743(2) 0.06159(15)
H1 H -0.472(2) 0.242(2) 0.3708(14)
H2 H -0.210(3) -0.056(2) 0.2613(18)
H3 H -0.502(2) 0.380(3) 0.0516(15)
H4 H -0.755(2) -0.206(2) 0.2230(14)
H5 H -0.769(2) -0.146(2) -0.0729(14)
H6 H -0.980(2) 0.292(2) 0.0217(14)
Fe1B Fe -0.37777(3) -0.07623(3) -0.133680(19)
Fe1B_2 Fe -1.37777(3) -0.07623(3) -0.133680(19)
Fe1A Fe -0.37777(3) 0.57623(3) 0.366320(19)
Fe2B Fe -0.43149(3) -0.11547(3) 0.308020(19)
Fe2C Fe -0.56851(3) 0.38453(3) 0.191980(19)
Fe2A Fe -0.43149(3) -0.38453(3) -0.191980(19)
Fe2A_2 Fe -1.43149(3) -0.38453(3) -0.191980(19)
Fe2B_2 Fe -0.43149(3) 0.88453(3) 0.308020(19)
Fe3C Fe -0.5000 0.5000 0.5000
Fe4_2 Fe 0.0000 0.0000 0.0000
O1B O -0.44618(14) -0.19387(14) -0.24967(9)
O1C O -0.55382(14) 0.30613(14) -0.25033(9)
O1A O -0.44618(14) 0.69387(14) 0.25033(9)
O2B O -0.56527(16) -0.05686(15) -0.36889(10)
O2A O -0.56527(16) 0.55686(15) 0.13111(10)
O3B O -0.58762(15) 0.01358(14) -0.21478(9)
O3A O -0.58762(15) 0.48642(14) 0.28522(9)
O4B O -0.67940(16) 0.01456(16) -0.13737(10)
O4A O -0.67940(16) 0.48544(16) 0.36263(10)
O5B O -0.45578(15) -0.25456(14) -0.10994(9)
O5C O -0.54422(15) 0.24544(14) -0.39006(9)
O6B O -0.49532(16) -0.20894(15) -0.00825(10)
O7B O -0.34403(14) 0.08570(14) -0.19564(9)
O7A O -0.34403(14) 0.41430(14) 0.30436(9)
O8B O -1.10353(15) 0.11513(16) -0.11806(10)
O9B O -0.33542(15) 0.02476(14) -0.02232(9)
O10B O -0.11001(16) 0.10313(15) 0.04153(11)
O10B_2 O -1.11001(16) 0.10313(15) 0.04153(11)
O11B O -1.16528(14) -0.15338(14) -0.06615(9)
O11B_2 O -0.16528(14) -0.15338(14) -0.06615(9)
O12C O -0.79476(15) 0.12902(15) -0.39717(10)
O12B O -1.20524(15) -0.37098(15) -0.10283(10)
C1A C -0.5136(2) 0.6670(2) 0.16714(14)
C2B C -0.6887(2) 0.0305(2) -0.20651(15)
C2A C -0.6887(2) 0.4695(2) 0.29349(15)
C3B C -0.4855(2) -0.2867(2) -0.05643(15)
C5B C -0.2230(2) 0.0956(2) 0.03462(15)
C6B C -1.1246(2) -0.2743(2) -0.06159(15)
H1A H -0.528(2) 0.742(2) 0.1292(14)
H2B H -0.790(3) 0.056(2) -0.2613(18)
H2A H -0.790(3) 0.444(2) 0.2387(18)
H3B H -0.498(2) -0.380(3) -0.0516(15)
H5B H -0.231(2) 0.146(2) 0.0729(14)
H6B H -1.020(2) -0.292(2) -0.0217(14)
O13 O -0.2258(3) 0.4915(3) 0.15894(19)
C7 C -0.1753(4) 0.6165(4) 0.2036(3)
H7 H -0.1385 0.6072 0.2671
H8 H -0.2555 0.6830 0.1738
C8 C -0.0584(4) 0.6595(4) 0.1989(3)
H9 H 0.0378 0.6310 0.2533
H10 H -0.0584 0.7582 0.1935
C9 C -0.0899(4) 0.5940(4) 0.1183(2)
H11 H 0.0006 0.5769 0.1243
H12 H -0.1569 0.6488 0.0639
C10 C -0.1595(4) 0.4677(4) 0.1151(2)
H13 H -0.2340 0.4401 0.0519
H14 H -0.0858 0.3956 0.1463
loop_
_geom_bond_atom_site_label_1
_geom_bond_atom_site_label_2
_geom_bond_site_symmetry_1
_geom_bond_site_symmetry_2
Fe1 O1 1_555 1_555
Fe2 O1C 1_555 1_555
Fe3 O4 1_555 1_555
Fe4 O8 1_555 1_555
O1 C1 1_555 1_555
O2 C1 1_555 1_555
O3 Fe1 1_555 1_555
O4 C2 1_555 1_555
O5 Fe1 1_555 1_555
O6 Fe3 1_555 1_555
O7 Fe1 1_555 1_555
O8 C4 1_555 1_555
O9 Fe1 1_555 1_555
O10 Fe4 1_555 1_555
O11 Fe1 1_555 1_555
O12 C6 1_555 1_555
C1 H1 1_555 1_555
C2 O3 1_555 1_555
C3 O5 1_555 1_555
C4 O7 1_555 1_555
C5 O9 1_555 1_555
C6 O11 1_555 1_555
H2 C2 1_555 1_555
H3 C3 1_555 1_555
H4 C4 1_555 1_555
H5 C5 1_555 1_555
H6 C6 1_555 1_555
O13 C7 1_555 1_555
C7 H7 1_555 1_555
H8 C7 1_555 1_555
C8 C7 1_555 1_555
H9 C8 1_555 1_555
H10 C8 1_555 1_555
C9 C8 1_555 1_555
H11 C9 1_555 1_555
H12 C9 1_555 1_555
C10 O13 1_555 1_555
H13 C10 1_555 1_555
H14 C10 1_555 1_555
Fe1B O1B 1_555 1_555
Fe1B_2 O11B 1_555 1_555
Fe1A O1A 1_555 1_555
Fe2B O2 1_555 1_555
Fe2C O1 1_555 1_555
Fe2A O1B 1_555 1_555
Fe2A_2 O12B 1_555 1_555
Fe2B_2 O1A 1_555 1_555
Fe3C O4A 1_555 1_555
Fe4_2 O10B 1_555 1_555
O1A C1A 1_555 1_555
O2B Fe2 1_555 1_555
O2A Fe2C 1_555 1_555
O3B Fe2 1_555 1_555
O3A Fe1A 1_555 1_555
O4B Fe3 1_555 1_555
O4A C2A 1_555 1_555
O5B Fe1B 1_555 1_555
O5C Fe2 1_555 1_555
O6B Fe3 1_555 1_555
O7B Fe2 1_555 1_555
O7A Fe1A 1_555 1_555
O8B Fe4 1_555 1_555
O9B Fe3 1_555 1_555
O10B C5B 1_555 1_555
O10B_2 Fe4 1_555 1_555
O11B Fe4 1_555 1_555
O11B_2 Fe1B 1_555 1_555
O12C Fe2 1_555 1_555
O12B C6B 1_555 1_555
C1A O2A 1_555 1_555
C2B O3B 1_555 1_555
C2A O3A 1_555 1_555
C3B O5B 1_555 1_555
C5B O9B 1_555 1_555
C6B O11B 1_555 1_555
H1A C1A 1_555 1_555
H2B C2B 1_555 1_555
H2A C2A 1_555 1_555
H3B C3B 1_555 1_555
H5B C5B 1_555 1_555
H6B C6B 1_555 1_555
Fe3 O9 1_555 1_555
Fe4 O11 1_555 1_555
O3 Fe2B 1_555 1_555
O5 Fe2C 1_555 1_555
O6 C3 1_555 1_555
O7 Fe2B 1_555 1_555
O10 C5 1_555 1_555
O12 Fe2C 1_555 1_555
C9 C10 1_555 1_555
Fe1B O3B 1_555 1_555
Fe1B O7B 1_555 1_555
Fe1B O9B 1_555 1_555
Fe2C O3A 1_555 1_555
Fe2C O7A 1_555 1_555
Fe2A O5B 1_555 1_555
Fe4_2 O11B_2 1_555 1_555
O4B C2B 1_555 1_555
O6B C3B 1_555 1_555

#END
