
#######################################################################
#
#                 Cambridge Crystallographic Data Centre
#                                CCDC 
#
#######################################################################
#
# If this CIF has been generated from an entry in the Cambridge 
# Structural Database, then it will include bibliographic, chemical, 
# crystal, experimental, refinement or atomic coordinate data resulting 
# from the CCDC's data processing and validation procedures.
#
#######################################################################

data_NIKZAJ
_chemical_formula_moiety         '(C14 H15 Fe6 N1 O24)n'
_symmetry_cell_setting           monoclinic
_symmetry_space_group_name_H-M   'P 21/c'
_symmetry_Int_Tables_number      14
_space_group_name_Hall           '-P 2ybc'
loop_
_symmetry_equiv_pos_site_id
_symmetry_equiv_pos_as_xyz
1 x,y,z
2 -x,1/2+y,1/2-z
3 -x,-y,-z
4 x,1/2-y,1/2+z
_cell_length_a                   11.3190(3)
_cell_length_b                   9.7577(2)
_cell_length_c                   18.2410(4)
_cell_angle_alpha                90
_cell_angle_beta                 127.2850(10)
_cell_angle_gamma                90
_cell_volume                     1602.94
loop_
_atom_site_label
_atom_site_type_symbol
_atom_site_fract_x
_atom_site_fract_y
_atom_site_fract_z
Fe1 Fe 0.37556(4) 0.08429(3) 0.13143(2)
Fe2 Fe 0.42367(4) 0.09979(3) -0.31499(2)
Fe3 Fe 0.5000 0.0000 0.0000
Fe4 Fe 0.0000 0.0000 0.0000
O1 O 0.43220(18) 0.20851(15) 0.24450(11)
O2 O 0.55204(19) 0.07400(16) 0.36949(11)
O3 O 0.59577(18) 0.00630(15) 0.22109(11)
O4 O 0.68863(19) 0.01017(17) 0.14255(11)
O5 O 0.45214(17) 0.26529(15) 0.10438(10)
O6 O 0.46700(19) 0.21129(17) -0.00884(11)
O7 O 0.34718(18) -0.07996(15) 0.19759(11)
O8 O 0.10323(18) -0.10418(17) 0.12629(11)
O9 O 0.33754(18) -0.03177(16) 0.02387(11)
O10 O 0.11166(18) -0.11717(17) -0.03722(12)
O11 O 0.15902(17) 0.16407(16) 0.05699(11)
O12 O 0.19501(18) 0.39015(16) 0.08679(12)
C1 C 0.4949(3) 0.1838(2) 0.32937(16)
H1 H 0.4980 0.2566 0.3651
C2 C 0.7013(3) -0.0009(2) 0.21453(17)
H2 H 0.7983 -0.0162 0.2698
C3 C 0.4648(3) 0.2945(2) 0.04189(16)
H3 H 0.4734 0.3888 0.0329
C4 C 0.2348(3) -0.1264(2) 0.19007(17)
H4 H 0.2546 -0.1838 0.2384
C5 C 0.2287(3) -0.1142(2) -0.02832(17)
H5 H 0.2393 -0.1786 -0.0631
C6 C 0.1148(3) 0.2884(2) 0.04611(16)
H6 H 0.0111 0.3043 0.0029
Fe1B Fe 0.62444(4) -0.08429(3) -0.13143(2)
Fe1B_2 Fe -0.37556(4) -0.08429(3) -0.13143(2)
Fe1A Fe 0.62444(4) 0.58429(3) 0.36857(2)
Fe2B Fe 0.57633(4) -0.09979(3) 0.31499(2)
Fe2C Fe 0.42367(4) 0.40021(3) 0.18501(2)
Fe2A Fe 0.57633(4) -0.40021(3) -0.18501(2)
Fe2A_2 Fe -0.42367(4) -0.40021(3) -0.18501(2)
Fe2B_2 Fe 0.57633(4) 0.90021(3) 0.31499(2)
Fe3C Fe 0.5000 0.5000 0.5000
Fe4_2 Fe 1.0000 0.0000 0.0000
O1B O 0.56780(18) -0.20851(15) -0.24450(11)
O1C O 0.43220(18) 0.29149(15) -0.25550(11)
O1A O 0.56780(18) 0.70851(15) 0.25550(11)
O2B O 0.44796(19) -0.07400(16) -0.36949(11)
O2A O 0.44796(19) 0.57400(16) 0.13051(11)
O3B O 0.40423(18) -0.00630(15) -0.22109(11)
O3A O 0.40423(18) 0.50630(15) 0.27891(11)
O4B O 0.31137(19) -0.01017(17) -0.14255(11)
O4A O 0.31137(19) 0.51017(17) 0.35745(11)
O5B O 0.54786(17) -0.26529(15) -0.10438(10)
O5C O 0.45214(17) 0.23471(15) -0.39562(10)
O6B O 0.53300(19) -0.21129(17) 0.00884(11)
O7B O 0.65282(18) 0.07996(15) -0.19759(11)
O7A O 0.65282(18) 0.42004(15) 0.30241(11)
O8B O -0.10323(18) 0.10418(17) -0.12629(11)
O9B O 0.66246(18) 0.03177(16) -0.02387(11)
O10B O 0.88834(18) 0.11717(17) 0.03722(12)
O10B_2 O -0.11166(18) 0.11717(17) 0.03722(12)
O11B O -0.15902(17) -0.16407(16) -0.05699(11)
O11B_2 O 0.84098(17) -0.16407(16) -0.05699(11)
O12C O 0.19501(18) 0.10985(16) -0.41321(12)
O12B O -0.19501(18) -0.39015(16) -0.08679(12)
C1A C 0.5051(3) 0.6838(2) 0.17063(16)
H1A H 0.5020 0.7566 0.1349
C2B C 0.2987(3) 0.0009(2) -0.21453(17)
C2A C 0.2987(3) 0.4991(2) 0.28547(17)
H2B H 0.2017 0.0162 -0.2698
H2A H 0.2017 0.4838 0.2302
C3B C 0.5352(3) -0.2945(2) -0.04189(16)
H3B H 0.5266 -0.3888 -0.0329
C5B C 0.7713(3) 0.1142(2) 0.02832(17)
H5B H 0.7607 0.1786 0.0631
C6B C -0.1148(3) -0.2884(2) -0.04611(16)
H6B H -0.0111 -0.3043 -0.0029
N1 N 0.1854(4) -0.4414(4) -0.1482(2)
C7 C 0.1436(4) -0.5520(4) -0.1741(3)
C8 C 0.0922(5) -0.6897(4) -0.2070(3)
H7 H 0.0302 -0.7201 -0.1893
H8 H 0.1777 -0.7511 -0.1798
H9 H 0.0338 -0.6915 -0.2743
loop_
_geom_bond_atom_site_label_1
_geom_bond_atom_site_label_2
_geom_bond_site_symmetry_1
_geom_bond_site_symmetry_2
Fe1 O1 1_555 1_555
Fe2 O1C 1_555 1_555
Fe3 O4 1_555 1_555
Fe4 O8 1_555 1_555
O1 C1 1_555 1_555
O2 C1 1_555 1_555
O3 Fe1 1_555 1_555
O4 C2 1_555 1_555
O5 Fe1 1_555 1_555
O6 Fe3 1_555 1_555
O7 Fe1 1_555 1_555
O8 C4 1_555 1_555
O9 Fe1 1_555 1_555
O10 Fe4 1_555 1_555
O11 Fe1 1_555 1_555
O12 C6 1_555 1_555
C1 H1 1_555 1_555
C2 O3 1_555 1_555
H2 C2 1_555 1_555
C3 O5 1_555 1_555
H3 C3 1_555 1_555
C4 O7 1_555 1_555
H4 C4 1_555 1_555
C5 O9 1_555 1_555
H5 C5 1_555 1_555
C6 O11 1_555 1_555
H6 C6 1_555 1_555
N1 C7 1_555 1_555
C7 C8 1_555 1_555
C8 H7 1_555 1_555
H8 C8 1_555 1_555
H9 C8 1_555 1_555
Fe1B O1B 1_555 1_555
Fe1B_2 O11B 1_555 1_555
Fe1A O1A 1_555 1_555
Fe2B O2 1_555 1_555
Fe2C O1 1_555 1_555
Fe2A O1B 1_555 1_555
Fe2A_2 O12B 1_555 1_555
Fe2B_2 O1A 1_555 1_555
Fe3C O4A 1_555 1_555
Fe4_2 O10B 1_555 1_555
O1A C1A 1_555 1_555
O2B Fe2 1_555 1_555
O2A Fe2C 1_555 1_555
O3B Fe2 1_555 1_555
O3A Fe1A 1_555 1_555
O4B Fe3 1_555 1_555
O4A C2A 1_555 1_555
O5B Fe1B 1_555 1_555
O5C Fe2 1_555 1_555
O6B Fe3 1_555 1_555
O7B Fe2 1_555 1_555
O7A Fe1A 1_555 1_555
O8B Fe4 1_555 1_555
O9B Fe3 1_555 1_555
O10B C5B 1_555 1_555
O10B_2 Fe4 1_555 1_555
O11B Fe4 1_555 1_555
O11B_2 Fe1B 1_555 1_555
O12C Fe2 1_555 1_555
O12B C6B 1_555 1_555
C1A O2A 1_555 1_555
H1A C1A 1_555 1_555
C2B O3B 1_555 1_555
C2A O3A 1_555 1_555
H2B C2B 1_555 1_555
H2A C2A 1_555 1_555
C3B O5B 1_555 1_555
H3B C3B 1_555 1_555
C5B O9B 1_555 1_555
H5B C5B 1_555 1_555
C6B O11B 1_555 1_555
H6B C6B 1_555 1_555
Fe3 O9 1_555 1_555
Fe4 O11 1_555 1_555
O3 Fe2B 1_555 1_555
O5 Fe2C 1_555 1_555
O6 C3 1_555 1_555
O7 Fe2B 1_555 1_555
O10 C5 1_555 1_555
O12 Fe2C 1_555 1_555
Fe1B O3B 1_555 1_555
Fe1B O7B 1_555 1_555
Fe1B O9B 1_555 1_555
Fe2C O3A 1_555 1_555
Fe2C O7A 1_555 1_555
Fe2A O5B 1_555 1_555
Fe4_2 O11B_2 1_555 1_555
O4B C2B 1_555 1_555
O6B C3B 1_555 1_555

#END
