
#######################################################################
#
#                 Cambridge Crystallographic Data Centre
#                                CCDC 
#
#######################################################################
#
# If this CIF has been generated from an entry in the Cambridge 
# Structural Database, then it will include bibliographic, chemical, 
# crystal, experimental, refinement or atomic coordinate data resulting 
# from the CCDC's data processing and validation procedures.
#
#######################################################################

data_NIKZAJ01
_chemical_formula_moiety         '(C14 H15 Fe6 N1 O24)n'
_symmetry_cell_setting           monoclinic
_symmetry_space_group_name_H-M   'P 21/c'
_symmetry_Int_Tables_number      14
_space_group_name_Hall           '-P 2ybc'
loop_
_symmetry_equiv_pos_site_id
_symmetry_equiv_pos_as_xyz
1 x,y,z
2 -x,1/2+y,1/2-z
3 -x,-y,-z
4 x,1/2-y,1/2+z
_cell_length_a                   11.3416(2)
_cell_length_b                   9.8058(2)
_cell_length_c                   18.2631(4)
_cell_angle_alpha                90
_cell_angle_beta                 127.184(1)
_cell_angle_gamma                90
_cell_volume                     1618.18
loop_
_atom_site_label
_atom_site_type_symbol
_atom_site_fract_x
_atom_site_fract_y
_atom_site_fract_z
Fe1 Fe 0.37570(4) 0.08327(3) 0.13164(2)
Fe2 Fe 0.42491(4) 0.10180(3) -0.31424(2)
Fe3 Fe 0.5000 0.0000 0.0000
Fe4 Fe 0.0000 0.0000 0.0000
O1 O 0.43396(19) 0.20656(17) 0.24494(11)
O2 O 0.5522(2) 0.07164(17) 0.36891(12)
O3 O 0.59421(19) 0.00369(16) 0.22021(12)
O4 O 0.6876(2) 0.00890(19) 0.14221(13)
O5 O 0.45271(19) 0.26367(16) 0.10509(11)
O6 O 0.4690(2) 0.21065(19) -0.00744(12)
O7 O 0.34652(19) -0.08019(16) 0.19718(12)
O8 O 0.10374(19) -0.10503(19) 0.12558(13)
O9 O 0.33751(19) -0.03126(18) 0.02376(12)
O10 O 0.1122(2) -0.11538(18) -0.03718(14)
O11 O 0.15981(18) 0.16267(17) 0.05787(12)
O12 O 0.1971(2) 0.38680(17) 0.08847(13)
C1 C 0.4969(3) 0.1819(3) 0.32979(17)
H1 H 0.5017 0.2545 0.3660
C2 C 0.6999(3) -0.0030(3) 0.21408(19)
H2 H 0.7964 -0.0185 0.2692
C3 C 0.4663(3) 0.2929(3) 0.04309(19)
H3 H 0.4754 0.3868 0.0344
C4 C 0.2343(3) -0.1269(3) 0.18909(18)
H4 H 0.2536 -0.1846 0.2370
C5 C 0.2280(3) -0.1119(3) -0.02873(18)
H5 H 0.2376 -0.1748 -0.0644
C6 C 0.1165(3) 0.2864(3) 0.04788(18)
H6 H 0.0131 0.3028 0.0055
Fe1B Fe 0.62430(4) -0.08327(3) -0.13164(2)
Fe1B_2 Fe -0.37570(4) -0.08327(3) -0.13164(2)
Fe1A Fe 0.62430(4) 0.58327(3) 0.36836(2)
Fe2B Fe 0.57509(4) -0.10180(3) 0.31424(2)
Fe2C Fe 0.42491(4) 0.39820(3) 0.18576(2)
Fe2A Fe 0.57509(4) -0.39820(3) -0.18576(2)
Fe2A_2 Fe -0.42491(4) -0.39820(3) -0.18576(2)
Fe2B_2 Fe 0.57509(4) 0.89820(3) 0.31424(2)
Fe3C Fe 0.5000 0.5000 0.5000
Fe4_2 Fe 1.0000 0.0000 0.0000
O1B O 0.56604(19) -0.20656(17) -0.24494(11)
O1C O 0.43396(19) 0.29344(17) -0.25506(11)
O1A O 0.56604(19) 0.70656(17) 0.25506(11)
O2B O 0.4478(2) -0.07164(17) -0.36891(12)
O2A O 0.4478(2) 0.57164(17) 0.13109(12)
O3B O 0.40579(19) -0.00369(16) -0.22021(12)
O3A O 0.40579(19) 0.50369(16) 0.27979(12)
O4B O 0.3124(2) -0.00890(19) -0.14221(13)
O4A O 0.3124(2) 0.50890(19) 0.35779(13)
O5B O 0.54729(19) -0.26367(16) -0.10509(11)
O5C O 0.45271(19) 0.23633(16) -0.39491(11)
O6B O 0.5310(2) -0.21065(19) 0.00744(12)
O7B O 0.65348(19) 0.08019(16) -0.19718(12)
O7A O 0.65348(19) 0.41981(16) 0.30282(12)
O8B O -0.10374(19) 0.10503(19) -0.12558(13)
O9B O 0.66249(19) 0.03126(18) -0.02376(12)
O10B O 0.8878(2) 0.11538(18) 0.03718(14)
O10B_2 O -0.1122(2) 0.11538(18) 0.03718(14)
O11B O -0.15981(18) -0.16267(17) -0.05787(12)
O11B_2 O 0.84019(18) -0.16267(17) -0.05787(12)
O12C O 0.1971(2) 0.11320(17) -0.41153(13)
O12B O -0.1971(2) -0.38680(17) -0.08847(13)
C1A C 0.5031(3) 0.6819(3) 0.17021(17)
H1A H 0.4983 0.7545 0.1340
C2B C 0.3001(3) 0.0030(3) -0.21408(19)
C2A C 0.3001(3) 0.4970(3) 0.28592(19)
H2B H 0.2036 0.0185 -0.2692
H2A H 0.2036 0.4815 0.2308
C3B C 0.5337(3) -0.2929(3) -0.04309(19)
H3B H 0.5246 -0.3868 -0.0344
C5B C 0.7720(3) 0.1119(3) 0.02873(18)
H5B H 0.7624 0.1748 0.0644
C6B C -0.1165(3) -0.2864(3) -0.04788(18)
H6B H -0.0131 -0.3028 -0.0055
N1 N 0.1817(6) -0.4411(5) -0.1479(3)
C7 C 0.1417(6) -0.5509(6) -0.1743(3)
C8 C 0.0912(6) -0.6878(6) -0.2061(4)
H7 H 0.0927 -0.7390 -0.1595
H8 H 0.1565 -0.7323 -0.2172
H9 H -0.0099 -0.6855 -0.2634
loop_
_geom_bond_atom_site_label_1
_geom_bond_atom_site_label_2
_geom_bond_site_symmetry_1
_geom_bond_site_symmetry_2
Fe1 O1 1_555 1_555
Fe2 O1C 1_555 1_555
Fe3 O4 1_555 1_555
Fe4 O8 1_555 1_555
O1 C1 1_555 1_555
O2 C1 1_555 1_555
O3 Fe1 1_555 1_555
O4 C2 1_555 1_555
O5 Fe1 1_555 1_555
O6 Fe3 1_555 1_555
O7 Fe1 1_555 1_555
O8 C4 1_555 1_555
O9 Fe1 1_555 1_555
O10 Fe4 1_555 1_555
O11 Fe1 1_555 1_555
O12 C6 1_555 1_555
C1 H1 1_555 1_555
C2 O3 1_555 1_555
H2 C2 1_555 1_555
C3 O5 1_555 1_555
H3 C3 1_555 1_555
C4 O7 1_555 1_555
H4 C4 1_555 1_555
C5 O9 1_555 1_555
H5 C5 1_555 1_555
C6 O11 1_555 1_555
H6 C6 1_555 1_555
N1 C7 1_555 1_555
C7 C8 1_555 1_555
C8 H7 1_555 1_555
H8 C8 1_555 1_555
H9 C8 1_555 1_555
Fe1B O1B 1_555 1_555
Fe1B_2 O11B 1_555 1_555
Fe1A O1A 1_555 1_555
Fe2B O2 1_555 1_555
Fe2C O1 1_555 1_555
Fe2A O1B 1_555 1_555
Fe2A_2 O12B 1_555 1_555
Fe2B_2 O1A 1_555 1_555
Fe3C O4A 1_555 1_555
Fe4_2 O10B 1_555 1_555
O1A C1A 1_555 1_555
O2B Fe2 1_555 1_555
O2A Fe2C 1_555 1_555
O3B Fe2 1_555 1_555
O3A Fe1A 1_555 1_555
O4B Fe3 1_555 1_555
O4A C2A 1_555 1_555
O5B Fe1B 1_555 1_555
O5C Fe2 1_555 1_555
O6B Fe3 1_555 1_555
O7B Fe2 1_555 1_555
O7A Fe1A 1_555 1_555
O8B Fe4 1_555 1_555
O9B Fe3 1_555 1_555
O10B C5B 1_555 1_555
O10B_2 Fe4 1_555 1_555
O11B Fe4 1_555 1_555
O11B_2 Fe1B 1_555 1_555
O12C Fe2 1_555 1_555
O12B C6B 1_555 1_555
C1A O2A 1_555 1_555
H1A C1A 1_555 1_555
C2B O3B 1_555 1_555
C2A O3A 1_555 1_555
H2B C2B 1_555 1_555
H2A C2A 1_555 1_555
C3B O5B 1_555 1_555
H3B C3B 1_555 1_555
C5B O9B 1_555 1_555
H5B C5B 1_555 1_555
C6B O11B 1_555 1_555
H6B C6B 1_555 1_555
Fe3 O9 1_555 1_555
Fe4 O11 1_555 1_555
O3 Fe2B 1_555 1_555
O5 Fe2C 1_555 1_555
O6 C3 1_555 1_555
O7 Fe2B 1_555 1_555
O10 C5 1_555 1_555
O12 Fe2C 1_555 1_555
Fe1B O3B 1_555 1_555
Fe1B O7B 1_555 1_555
Fe1B O9B 1_555 1_555
Fe2C O3A 1_555 1_555
Fe2C O7A 1_555 1_555
Fe2A O5B 1_555 1_555
Fe4_2 O11B_2 1_555 1_555
O4B C2B 1_555 1_555
O6B C3B 1_555 1_555

#END
