
#######################################################################
#
#                 Cambridge Crystallographic Data Centre
#                                CCDC 
#
#######################################################################
#
# If this CIF has been generated from an entry in the Cambridge 
# Structural Database, then it will include bibliographic, chemical, 
# crystal, experimental, refinement or atomic coordinate data resulting 
# from the CCDC's data processing and validation procedures.
#
#######################################################################

data_NIKZEN02
_chemical_formula_moiety         '(C15 H18 Fe6 O25)n'
_symmetry_cell_setting           monoclinic
_symmetry_space_group_name_H-M   'P 21/c'
_symmetry_Int_Tables_number      14
_space_group_name_Hall           '-P 2ybc'
loop_
_symmetry_equiv_pos_site_id
_symmetry_equiv_pos_as_xyz
1 x,y,z
2 -x,1/2+y,1/2-z
3 -x,-y,-z
4 x,1/2-y,1/2+z
_cell_length_a                   11.4964(2)
_cell_length_b                   10.0205(2)
_cell_length_c                   18.5291(4)
_cell_angle_alpha                90
_cell_angle_beta                 126.7850(10)
_cell_angle_gamma                90
_cell_volume                     1709.53
loop_
_atom_site_label
_atom_site_type_symbol
_atom_site_fract_x
_atom_site_fract_y
_atom_site_fract_z
Fe1 Fe -0.62316(3) 0.07405(3) 0.133020(19)
Fe2 Fe -0.56685(3) 0.11819(3) -0.30727(2)
Fe3 Fe -0.5000 0.0000 0.0000
Fe4 Fe -1.0000 0.0000 0.0000
O1 O -0.55422(16) 0.19145(14) 0.24934(9)
O2 O -0.43885(18) 0.05327(15) 0.36734(10)
O3 O -0.41474(16) -0.01609(14) 0.21420(10)
O4 O -0.32082(18) -0.00907(19) 0.13851(11)
O5 O -0.54452(16) 0.25234(14) 0.10985(10)
O6 O -0.51164(19) 0.20719(16) 0.00497(11)
O7 O -0.65761(15) -0.08792(14) 0.19401(10)
O8 O -0.89586(17) -0.11551(17) 0.11837(12)
O9 O -0.66514(15) -0.02652(15) 0.02159(10)
O10 O -0.88873(17) -0.10325(16) -0.04046(12)
O11 O -0.83450(15) 0.15193(14) 0.06550(10)
O12 O -0.79203(16) 0.36875(15) 0.10183(11)
C1 C -0.4900(2) 0.1631(2) 0.33186(15)
H1 H -0.4806 0.2313 0.3690
C2 C -0.3128(2) -0.0279(3) 0.20682(16)
H2 H -0.2227 -0.0534 0.2583
C3 C -0.5198(3) 0.2837(2) 0.05377(16)
H3 H -0.5063 0.3739 0.0491
C4 C -0.7691(2) -0.1390(2) 0.18114(16)
H4 H -0.7533 -0.2008 0.2236
C5 C -0.7766(3) -0.0974(2) -0.03398(16)
H5 H -0.7722 -0.1500 -0.0736
C6 C -0.8725(2) 0.2722(2) 0.06105(16)
H6 H -0.9717 0.2897 0.0230
Fe1B Fe -0.37684(3) -0.07405(3) -0.133020(19)
Fe1B_2 Fe -1.37684(3) -0.07405(3) -0.133020(19)
Fe1A Fe -0.37684(3) 0.57405(3) 0.366980(19)
Fe2B Fe -0.43315(3) -0.11819(3) 0.30727(2)
Fe2C Fe -0.56685(3) 0.38181(3) 0.19273(2)
Fe2A Fe -0.43315(3) -0.38181(3) -0.19273(2)
Fe2A_2 Fe -1.43315(3) -0.38181(3) -0.19273(2)
Fe2B_2 Fe -0.43315(3) 0.88181(3) 0.30727(2)
Fe3C Fe -0.5000 0.5000 0.5000
Fe4_2 Fe 0.0000 0.0000 0.0000
O1B O -0.44578(16) -0.19145(14) -0.24934(9)
O1C O -0.55422(16) 0.30855(14) -0.25066(9)
O1A O -0.44578(16) 0.69145(14) 0.25066(9)
O2B O -0.56115(18) -0.05327(15) -0.36734(10)
O2A O -0.56115(18) 0.55327(15) 0.13266(10)
O3B O -0.58526(16) 0.01609(14) -0.21420(10)
O3A O -0.58526(16) 0.48391(14) 0.28580(10)
O4B O -0.67918(18) 0.00907(19) -0.13851(11)
O4A O -0.67918(18) 0.49093(19) 0.36149(11)
O5B O -0.45548(16) -0.25234(14) -0.10985(10)
O5C O -0.54452(16) 0.24766(14) -0.39015(10)
O6B O -0.48836(19) -0.20719(16) -0.00497(11)
O7B O -0.34239(15) 0.08792(14) -0.19401(10)
O7A O -0.34239(15) 0.41208(14) 0.30599(10)
O8B O -1.10414(17) 0.11551(17) -0.11837(12)
O9B O -0.33486(15) 0.02652(15) -0.02159(10)
O10B O -0.11127(17) 0.10325(16) 0.04046(12)
O10B_2 O -1.11127(17) 0.10325(16) 0.04046(12)
O11B O -1.16550(15) -0.15193(14) -0.06550(10)
O11B_2 O -0.16550(15) -0.15193(14) -0.06550(10)
O12C O -0.79203(16) 0.13125(15) -0.39817(11)
O12B O -1.20797(16) -0.36875(15) -0.10183(11)
C1A C -0.5100(2) 0.6631(2) 0.16814(15)
H1A H -0.5194 0.7313 0.1310
C2B C -0.6872(2) 0.0279(3) -0.20682(16)
C2A C -0.6872(2) 0.4721(3) 0.29318(16)
H2B H -0.7773 0.0534 -0.2583
H2A H -0.7773 0.4466 0.2417
C3B C -0.4802(3) -0.2837(2) -0.05377(16)
H3B H -0.4937 -0.3739 -0.0491
C5B C -0.2234(3) 0.0974(2) 0.03398(16)
H5B H -0.2278 0.1500 0.0736
C6B C -1.1275(2) -0.2722(2) -0.06105(16)
H6B H -1.0283 -0.2897 -0.0230
O13 O -0.2284(9) 0.4635(12) 0.1616(4)
C7 C -0.1562(6) 0.5390(10) 0.1609(4)
C8 C -0.1157(8) 0.5077(10) 0.1044(5)
H7 H -0.0607 0.4264 0.1245
H8 H -0.0576 0.5788 0.1066
H9 H -0.2013 0.4969 0.0436
C9 C -0.1084(11) 0.6546(8) 0.2134(5)
H10 H -0.1430 0.6550 0.2494
H11 H -0.1451 0.7315 0.1748
H12 H -0.0041 0.6567 0.2520
loop_
_geom_bond_atom_site_label_1
_geom_bond_atom_site_label_2
_geom_bond_site_symmetry_1
_geom_bond_site_symmetry_2
Fe1 O1 1_555 1_555
Fe2 O1C 1_555 1_555
Fe3 O4 1_555 1_555
Fe4 O8 1_555 1_555
O1 C1 1_555 1_555
O2 C1 1_555 1_555
O3 Fe1 1_555 1_555
O4 C2 1_555 1_555
O5 Fe1 1_555 1_555
O6 Fe3 1_555 1_555
O7 Fe1 1_555 1_555
O8 C4 1_555 1_555
O9 Fe1 1_555 1_555
O10 Fe4 1_555 1_555
O11 Fe1 1_555 1_555
O12 C6 1_555 1_555
C1 H1 1_555 1_555
C2 O3 1_555 1_555
H2 C2 1_555 1_555
C3 O5 1_555 1_555
H3 C3 1_555 1_555
C4 O7 1_555 1_555
H4 C4 1_555 1_555
C5 O9 1_555 1_555
H5 C5 1_555 1_555
C6 O11 1_555 1_555
H6 C6 1_555 1_555
O13 C7 1_555 1_555
C7 C8 1_555 1_555
C8 H7 1_555 1_555
H8 C8 1_555 1_555
H9 C8 1_555 1_555
C9 C7 1_555 1_555
H10 C9 1_555 1_555
H11 C9 1_555 1_555
H12 C9 1_555 1_555
Fe1B O1B 1_555 1_555
Fe1B_2 O11B 1_555 1_555
Fe1A O1A 1_555 1_555
Fe2B O2 1_555 1_555
Fe2C O1 1_555 1_555
Fe2A O1B 1_555 1_555
Fe2A_2 O12B 1_555 1_555
Fe2B_2 O1A 1_555 1_555
Fe3C O4A 1_555 1_555
Fe4_2 O10B 1_555 1_555
O1A C1A 1_555 1_555
O2B Fe2 1_555 1_555
O2A Fe2C 1_555 1_555
O3B Fe2 1_555 1_555
O3A Fe1A 1_555 1_555
O4B Fe3 1_555 1_555
O4A C2A 1_555 1_555
O5B Fe1B 1_555 1_555
O5C Fe2 1_555 1_555
O6B Fe3 1_555 1_555
O7B Fe2 1_555 1_555
O7A Fe1A 1_555 1_555
O8B Fe4 1_555 1_555
O9B Fe3 1_555 1_555
O10B C5B 1_555 1_555
O10B_2 Fe4 1_555 1_555
O11B Fe4 1_555 1_555
O11B_2 Fe1B 1_555 1_555
O12C Fe2 1_555 1_555
O12B C6B 1_555 1_555
C1A O2A 1_555 1_555
H1A C1A 1_555 1_555
C2B O3B 1_555 1_555
C2A O3A 1_555 1_555
H2B C2B 1_555 1_555
H2A C2A 1_555 1_555
C3B O5B 1_555 1_555
H3B C3B 1_555 1_555
C5B O9B 1_555 1_555
H5B C5B 1_555 1_555
C6B O11B 1_555 1_555
H6B C6B 1_555 1_555
Fe3 O9 1_555 1_555
Fe4 O11 1_555 1_555
O3 Fe2B 1_555 1_555
O5 Fe2C 1_555 1_555
O6 C3 1_555 1_555
O7 Fe2B 1_555 1_555
O10 C5 1_555 1_555
O12 Fe2C 1_555 1_555
Fe1B O3B 1_555 1_555
Fe1B O7B 1_555 1_555
Fe1B O9B 1_555 1_555
Fe2C O3A 1_555 1_555
Fe2C O7A 1_555 1_555
Fe2A O5B 1_555 1_555
Fe4_2 O11B_2 1_555 1_555
O4B C2B 1_555 1_555
O6B C3B 1_555 1_555

#END
