
#######################################################################
#
#                 Cambridge Crystallographic Data Centre
#                                CCDC 
#
#######################################################################
#
# If this CIF has been generated from an entry in the Cambridge 
# Structural Database, then it will include bibliographic, chemical, 
# crystal, experimental, refinement or atomic coordinate data resulting 
# from the CCDC's data processing and validation procedures.
#
#######################################################################

data_NIKZAJ02
_chemical_formula_moiety         '(C14 H15 Fe6 N1 O24)n'
_symmetry_cell_setting           monoclinic
_symmetry_space_group_name_H-M   'P 21/c'
_symmetry_Int_Tables_number      14
_space_group_name_Hall           '-P 2ybc'
loop_
_symmetry_equiv_pos_site_id
_symmetry_equiv_pos_as_xyz
1 x,y,z
2 -x,1/2+y,1/2-z
3 -x,-y,-z
4 x,1/2-y,1/2+z
_cell_length_a                   11.3983(3)
_cell_length_b                   9.8820(3)
_cell_length_c                   18.3252(6)
_cell_angle_alpha                90
_cell_angle_beta                 127.1280(10)
_cell_angle_gamma                90
_cell_volume                     1645.7
loop_
_atom_site_label
_atom_site_type_symbol
_atom_site_fract_x
_atom_site_fract_y
_atom_site_fract_z
Fe1 Fe 0.37591(4) 0.08153(3) 0.13196(2)
Fe2 Fe 0.42700(4) 0.10535(3) -0.31283(2)
Fe3 Fe 0.5000 0.0000 0.0000
Fe4 Fe 0.0000 0.0000 0.0000
O1 O 0.43720(19) 0.20363(16) 0.24623(11)
O2 O 0.5532(2) 0.06743(18) 0.36829(12)
O3 O 0.59207(19) -0.00102(16) 0.21881(12)
O4 O 0.6842(2) 0.0054(2) 0.14113(13)
O5 O 0.45363(19) 0.26079(16) 0.10611(11)
O6 O 0.4728(2) 0.20973(19) -0.00497(13)
O7 O 0.34549(18) -0.08163(16) 0.19668(12)
O8 O 0.1049(2) -0.1070(2) 0.12416(14)
O9 O 0.33641(18) -0.03008(17) 0.02303(12)
O10 O 0.1127(2) -0.11130(19) -0.03733(14)
O11 O 0.16121(18) 0.15971(17) 0.05983(12)
O12 O 0.20018(19) 0.38160(18) 0.09116(13)
C1 C 0.4999(3) 0.1774(3) 0.33001(18)
H1 H 0.5064 0.2476 0.3661
C2 C 0.6960(3) -0.0081(3) 0.21209(19)
H2 H 0.7897 -0.0250 0.2655
C3 C 0.4693(3) 0.2900(3) 0.0455(2)
H3 H 0.4792 0.3812 0.0379
C4 C 0.2343(3) -0.1295(3) 0.18721(19)
H4 H 0.2525 -0.1880 0.2328
C5 C 0.2264(3) -0.1081(3) -0.02985(18)
H5 H 0.2340 -0.1681 -0.0660
C6 C 0.1198(3) 0.2832(3) 0.05114(19)
H6 H 0.0192 0.2999 0.0107
Fe1B Fe 0.62409(4) -0.08153(3) -0.13196(2)
Fe1B_2 Fe -0.37591(4) -0.08153(3) -0.13196(2)
Fe1A Fe 0.62409(4) 0.58153(3) 0.36804(2)
Fe2B Fe 0.57300(4) -0.10535(3) 0.31283(2)
Fe2C Fe 0.42700(4) 0.39465(3) 0.18717(2)
Fe2A Fe 0.57300(4) -0.39465(3) -0.18717(2)
Fe2A_2 Fe -0.42700(4) -0.39465(3) -0.18717(2)
Fe2B_2 Fe 0.57300(4) 0.89465(3) 0.31283(2)
Fe3C Fe 0.5000 0.5000 0.5000
Fe4_2 Fe 1.0000 0.0000 0.0000
O1B O 0.56280(19) -0.20363(16) -0.24623(11)
O1C O 0.43720(19) 0.29637(16) -0.25377(11)
O1A O 0.56280(19) 0.70363(16) 0.25377(11)
O2B O 0.4468(2) -0.06743(18) -0.36829(12)
O2A O 0.4468(2) 0.56743(18) 0.13171(12)
O3B O 0.40793(19) 0.00102(16) -0.21881(12)
O3A O 0.40793(19) 0.49898(16) 0.28119(12)
O4B O 0.3158(2) -0.0054(2) -0.14113(13)
O4A O 0.3158(2) 0.5054(2) 0.35887(13)
O5B O 0.54637(19) -0.26079(16) -0.10611(11)
O5C O 0.45363(19) 0.23921(16) -0.39389(11)
O6B O 0.5272(2) -0.20973(19) 0.00497(13)
O7B O 0.65451(18) 0.08163(16) -0.19668(12)
O7A O 0.65451(18) 0.41837(16) 0.30332(12)
O8B O -0.1049(2) 0.1070(2) -0.12416(14)
O9B O 0.66359(18) 0.03008(17) -0.02303(12)
O10B O 0.8873(2) 0.11130(19) 0.03733(14)
O10B_2 O -0.1127(2) 0.11130(19) 0.03733(14)
O11B O -0.16121(18) -0.15971(17) -0.05983(12)
O11B_2 O 0.83879(18) -0.15971(17) -0.05983(12)
O12C O 0.20018(19) 0.11840(18) -0.40884(13)
O12B O -0.20018(19) -0.38160(18) -0.09116(13)
C1A C 0.5001(3) 0.6774(3) 0.16999(18)
H1A H 0.4936 0.7476 0.1339
C2B C 0.3040(3) 0.0081(3) -0.21209(19)
C2A C 0.3040(3) 0.4919(3) 0.28791(19)
H2B H 0.2103 0.0250 -0.2655
H2A H 0.2103 0.4750 0.2345
C3B C 0.5307(3) -0.2900(3) -0.0455(2)
H3B H 0.5208 -0.3812 -0.0379
C5B C 0.7736(3) 0.1081(3) 0.02985(18)
H5B H 0.7660 0.1681 0.0660
C6B C -0.1198(3) -0.2832(3) -0.05114(19)
H6B H -0.0192 -0.2999 -0.0107
N1 N 0.1755(10) -0.4405(8) -0.1473(6)
C7 C 0.1399(8) -0.5512(10) -0.1725(5)
C8 C 0.0928(8) -0.6863(8) -0.2033(6)
H7 H 0.0942 -0.7362 -0.1578
H8 H 0.1578 -0.7284 -0.2134
H9 H -0.0054 -0.6854 -0.2595
loop_
_geom_bond_atom_site_label_1
_geom_bond_atom_site_label_2
_geom_bond_site_symmetry_1
_geom_bond_site_symmetry_2
Fe1 O1 1_555 1_555
Fe2 O1C 1_555 1_555
Fe3 O4 1_555 1_555
Fe4 O8 1_555 1_555
O1 C1 1_555 1_555
O2 C1 1_555 1_555
O3 Fe1 1_555 1_555
O4 C2 1_555 1_555
O5 Fe1 1_555 1_555
O6 Fe3 1_555 1_555
O7 Fe1 1_555 1_555
O8 C4 1_555 1_555
O9 Fe1 1_555 1_555
O10 Fe4 1_555 1_555
O11 Fe1 1_555 1_555
O12 C6 1_555 1_555
C1 H1 1_555 1_555
C2 O3 1_555 1_555
H2 C2 1_555 1_555
C3 O5 1_555 1_555
H3 C3 1_555 1_555
C4 O7 1_555 1_555
H4 C4 1_555 1_555
C5 O9 1_555 1_555
H5 C5 1_555 1_555
C6 O11 1_555 1_555
H6 C6 1_555 1_555
N1 C7 1_555 1_555
C7 C8 1_555 1_555
C8 H7 1_555 1_555
H8 C8 1_555 1_555
H9 C8 1_555 1_555
Fe1B O1B 1_555 1_555
Fe1B_2 O11B 1_555 1_555
Fe1A O1A 1_555 1_555
Fe2B O2 1_555 1_555
Fe2C O1 1_555 1_555
Fe2A O1B 1_555 1_555
Fe2A_2 O12B 1_555 1_555
Fe2B_2 O1A 1_555 1_555
Fe3C O4A 1_555 1_555
Fe4_2 O10B 1_555 1_555
O1A C1A 1_555 1_555
O2B Fe2 1_555 1_555
O2A Fe2C 1_555 1_555
O3B Fe2 1_555 1_555
O3A Fe1A 1_555 1_555
O4B Fe3 1_555 1_555
O4A C2A 1_555 1_555
O5B Fe1B 1_555 1_555
O5C Fe2 1_555 1_555
O6B Fe3 1_555 1_555
O7B Fe2 1_555 1_555
O7A Fe1A 1_555 1_555
O8B Fe4 1_555 1_555
O9B Fe3 1_555 1_555
O10B C5B 1_555 1_555
O10B_2 Fe4 1_555 1_555
O11B Fe4 1_555 1_555
O11B_2 Fe1B 1_555 1_555
O12C Fe2 1_555 1_555
O12B C6B 1_555 1_555
C1A O2A 1_555 1_555
H1A C1A 1_555 1_555
C2B O3B 1_555 1_555
C2A O3A 1_555 1_555
H2B C2B 1_555 1_555
H2A C2A 1_555 1_555
C3B O5B 1_555 1_555
H3B C3B 1_555 1_555
C5B O9B 1_555 1_555
H5B C5B 1_555 1_555
C6B O11B 1_555 1_555
H6B C6B 1_555 1_555
Fe3 O9 1_555 1_555
Fe4 O11 1_555 1_555
O3 Fe2B 1_555 1_555
O5 Fe2C 1_555 1_555
O6 C3 1_555 1_555
O7 Fe2B 1_555 1_555
O10 C5 1_555 1_555
O12 Fe2C 1_555 1_555
Fe1B O3B 1_555 1_555
Fe1B O7B 1_555 1_555
Fe1B O9B 1_555 1_555
Fe2C O3A 1_555 1_555
Fe2C O7A 1_555 1_555
Fe2A O5B 1_555 1_555
Fe4_2 O11B_2 1_555 1_555
O4B C2B 1_555 1_555
O6B C3B 1_555 1_555

#END
