
#######################################################################
#
#                 Cambridge Crystallographic Data Centre
#                                CCDC 
#
#######################################################################
#
# If this CIF has been generated from an entry in the Cambridge 
# Structural Database, then it will include bibliographic, chemical, 
# crystal, experimental, refinement or atomic coordinate data resulting 
# from the CCDC's data processing and validation procedures.
#
#######################################################################

data_RATCUL01
_chemical_formula_moiety         '(C12 H12 Fe6 O24)n'
_symmetry_cell_setting           monoclinic
_symmetry_space_group_name_H-M   'P 21/c'
_symmetry_Int_Tables_number      14
_space_group_name_Hall           '-P 2ybc'
loop_
_symmetry_equiv_pos_site_id
_symmetry_equiv_pos_as_xyz
1 x,y,z
2 -x,1/2+y,1/2-z
3 -x,-y,-z
4 x,1/2-y,1/2+z
_cell_length_a                   11.4702(2)
_cell_length_b                   9.9598(2)
_cell_length_c                   18.3735(4)
_cell_angle_alpha                90
_cell_angle_beta                 127.443(2)
_cell_angle_gamma                90
_cell_volume                     1666.52
loop_
_atom_site_label
_atom_site_type_symbol
_atom_site_fract_x
_atom_site_fract_y
_atom_site_fract_z
Fe1 Fe 0.37816(3) 0.07729(3) 0.13308(2)
Fe2 Fe 0.42772(3) 0.11180(3) -0.31203(2)
Fe3 Fe 0.5000 0.0000 0.0000
Fe4 Fe 0.0000 0.0000 0.0000
O1 O 0.44172(16) 0.19783(15) 0.24723(9)
O2 O 0.55520(17) 0.06068(15) 0.36937(10)
O3 O 0.59185(17) -0.00822(15) 0.21897(10)
O4 O 0.68267(18) 0.00112(17) 0.14104(10)
O5 O 0.45445(16) 0.25574(15) 0.10697(9)
O6 O 0.48009(18) 0.20885(16) -0.00198(10)
O7 O 0.34656(16) -0.08511(15) 0.19664(10)
O8 O 0.10523(17) -0.10538(16) 0.12422(11)
O9 O 0.33641(16) -0.02750(15) 0.02242(10)
O10 O 0.11318(17) -0.10986(16) -0.03668(11)
O11 O 0.16388(16) 0.15547(15) 0.06127(10)
O12 O 0.20199(17) 0.37652(15) 0.09117(10)
C1 C 0.5039(3) 0.1709(2) 0.33170(15)
C2 C 0.6939(3) -0.0167(2) 0.21143(16)
C3 C 0.4701(3) 0.2875(2) 0.04624(15)
C4 C 0.2345(3) -0.1316(2) 0.18689(15)
C5 C 0.2237(3) -0.1023(2) -0.03269(15)
C6 C 0.1216(3) 0.2771(2) 0.05091(15)
H1 H 0.514(2) 0.245(2) 0.3689(14)
H2 H 0.790(3) -0.041(2) 0.2648(16)
H3 H 0.477(3) 0.385(3) 0.0415(17)
H4 H 0.258(3) -0.197(2) 0.2363(16)
H5 H 0.226(2) -0.153(2) -0.0752(16)
H6 H 0.014(3) 0.292(2) 0.0071(14)
Fe1B Fe 0.62184(3) -0.07729(3) -0.13308(2)
Fe1B_2 Fe -0.37816(3) -0.07729(3) -0.13308(2)
Fe1A Fe 0.62184(3) 0.57729(3) 0.36692(2)
Fe2B Fe 0.57228(3) -0.11180(3) 0.31203(2)
Fe2C Fe 0.42772(3) 0.38820(3) 0.18797(2)
Fe2A Fe 0.57228(3) -0.38820(3) -0.18797(2)
Fe2A_2 Fe -0.42772(3) -0.38820(3) -0.18797(2)
Fe2B_2 Fe 0.57228(3) 0.88820(3) 0.31203(2)
Fe3C Fe 0.5000 0.5000 0.5000
Fe4_2 Fe 1.0000 0.0000 0.0000
O1B O 0.55828(16) -0.19783(15) -0.24723(9)
O1C O 0.44172(16) 0.30217(15) -0.25277(9)
O1A O 0.55828(16) 0.69783(15) 0.25277(9)
O2B O 0.44480(17) -0.06068(15) -0.36937(10)
O2A O 0.44480(17) 0.56068(15) 0.13063(10)
O3B O 0.40815(17) 0.00822(15) -0.21897(10)
O3A O 0.40815(17) 0.49178(15) 0.28103(10)
O4B O 0.31733(18) -0.00112(17) -0.14104(10)
O4A O 0.31733(18) 0.50112(17) 0.35896(10)
O5B O 0.54555(16) -0.25574(15) -0.10697(9)
O5C O 0.45445(16) 0.24426(15) -0.39303(9)
O6B O 0.51991(18) -0.20885(16) 0.00198(10)
O7B O 0.65344(16) 0.08511(15) -0.19664(10)
O7A O 0.65344(16) 0.41489(15) 0.30336(10)
O8B O -0.10523(17) 0.10538(16) -0.12422(11)
O9B O 0.66359(16) 0.02750(15) -0.02242(10)
O10B O 0.88682(17) 0.10986(16) 0.03668(11)
O10B_2 O -0.11318(17) 0.10986(16) 0.03668(11)
O11B O -0.16388(16) -0.15547(15) -0.06127(10)
O11B_2 O 0.83612(16) -0.15547(15) -0.06127(10)
O12C O 0.20199(17) 0.12348(15) -0.40883(10)
O12B O -0.20199(17) -0.37652(15) -0.09117(10)
C1A C 0.4961(3) 0.6709(2) 0.16830(15)
C2B C 0.3061(3) 0.0167(2) -0.21143(16)
C2A C 0.3061(3) 0.4833(2) 0.28857(16)
C3B C 0.5299(3) -0.2875(2) -0.04624(15)
C5B C 0.7763(3) 0.1023(2) 0.03269(15)
C6B C -0.1216(3) -0.2771(2) -0.05091(15)
H1A H 0.486(2) 0.745(2) 0.1311(14)
H2B H 0.210(3) 0.041(2) -0.2648(16)
H2A H 0.210(3) 0.459(2) 0.2352(16)
H3B H 0.523(3) -0.385(3) -0.0415(17)
H5B H 0.774(2) 0.153(2) 0.0752(16)
H6B H -0.014(3) -0.292(2) -0.0071(14)
loop_
_geom_bond_atom_site_label_1
_geom_bond_atom_site_label_2
_geom_bond_site_symmetry_1
_geom_bond_site_symmetry_2
Fe1 O1 1_555 1_555
Fe2 O1C 1_555 1_555
Fe3 O4 1_555 1_555
Fe4 O8 1_555 1_555
O1 C1 1_555 1_555
O2 C1 1_555 1_555
O3 Fe1 1_555 1_555
O4 C2 1_555 1_555
O5 Fe1 1_555 1_555
O6 Fe3 1_555 1_555
O7 Fe1 1_555 1_555
O8 C4 1_555 1_555
O9 Fe1 1_555 1_555
O10 Fe4 1_555 1_555
O11 Fe1 1_555 1_555
O12 C6 1_555 1_555
C1 H1 1_555 1_555
C2 O3 1_555 1_555
C3 O5 1_555 1_555
C4 O7 1_555 1_555
C5 O9 1_555 1_555
C6 O11 1_555 1_555
H2 C2 1_555 1_555
H3 C3 1_555 1_555
H4 C4 1_555 1_555
H5 C5 1_555 1_555
H6 C6 1_555 1_555
Fe1B O1B 1_555 1_555
Fe1B_2 O11B 1_555 1_555
Fe1A O1A 1_555 1_555
Fe2B O2 1_555 1_555
Fe2C O1 1_555 1_555
Fe2A O1B 1_555 1_555
Fe2A_2 O12B 1_555 1_555
Fe2B_2 O1A 1_555 1_555
Fe3C O4A 1_555 1_555
Fe4_2 O10B 1_555 1_555
O1A C1A 1_555 1_555
O2B Fe2 1_555 1_555
O2A Fe2C 1_555 1_555
O3B Fe2 1_555 1_555
O3A Fe1A 1_555 1_555
O4B Fe3 1_555 1_555
O4A C2A 1_555 1_555
O5B Fe1B 1_555 1_555
O5C Fe2 1_555 1_555
O6B Fe3 1_555 1_555
O7B Fe2 1_555 1_555
O7A Fe1A 1_555 1_555
O8B Fe4 1_555 1_555
O9B Fe3 1_555 1_555
O10B C5B 1_555 1_555
O10B_2 Fe4 1_555 1_555
O11B Fe4 1_555 1_555
O11B_2 Fe1B 1_555 1_555
O12C Fe2 1_555 1_555
O12B C6B 1_555 1_555
C1A O2A 1_555 1_555
C2B O3B 1_555 1_555
C2A O3A 1_555 1_555
C3B O5B 1_555 1_555
C5B O9B 1_555 1_555
C6B O11B 1_555 1_555
H1A C1A 1_555 1_555
H2B C2B 1_555 1_555
H2A C2A 1_555 1_555
H3B C3B 1_555 1_555
H5B C5B 1_555 1_555
H6B C6B 1_555 1_555
Fe3 O9 1_555 1_555
Fe4 O11 1_555 1_555
O3 Fe2B 1_555 1_555
O5 Fe2C 1_555 1_555
O6 C3 1_555 1_555
O7 Fe2B 1_555 1_555
O10 C5 1_555 1_555
O12 Fe2C 1_555 1_555
Fe1B O3B 1_555 1_555
Fe1B O7B 1_555 1_555
Fe1B O9B 1_555 1_555
Fe2C O3A 1_555 1_555
Fe2C O7A 1_555 1_555
Fe2A O5B 1_555 1_555
Fe4_2 O11B_2 1_555 1_555
O4B C2B 1_555 1_555
O6B C3B 1_555 1_555

#END
