
#######################################################################
#
#                 Cambridge Crystallographic Data Centre
#                                CCDC 
#
#######################################################################
#
# If this CIF has been generated from an entry in the Cambridge 
# Structural Database, then it will include bibliographic, chemical, 
# crystal, experimental, refinement or atomic coordinate data resulting 
# from the CCDC's data processing and validation procedures.
#
#######################################################################

data_QEFWUV
_chemical_formula_moiety         '(C48 H50 Cl1 Fe1 N4 O21 Zr3)n'
_symmetry_cell_setting           hexagonal
_symmetry_space_group_name_H-M   'P 6/m m m'
_symmetry_Int_Tables_number      191
_space_group_name_Hall           '-P 6 2'
loop_
_symmetry_equiv_pos_site_id
_symmetry_equiv_pos_as_xyz
1 x,y,z
2 -y,x-y,z
3 -x+y,-x,z
4 -x,-y,z
5 y,-x+y,z
6 x-y,x,z
7 y,x,-z
8 x-y,-y,-z
9 -x,-x+y,-z
10 -y,-x,-z
11 -x+y,y,-z
12 x,x-y,-z
13 -x,-y,-z
14 y,-x+y,-z
15 x-y,x,-z
16 x,y,-z
17 -y,x-y,-z
18 -x+y,-x,-z
19 -y,-x,z
20 -x+y,y,z
21 x,x-y,z
22 y,x,z
23 x-y,-y,z
24 -x,-x+y,z
_cell_length_a                   42.680(6)
_cell_length_b                   42.680(6)
_cell_length_c                   16.660(3)
_cell_angle_alpha                90
_cell_angle_beta                 90
_cell_angle_gamma                120
_cell_volume                     26281.8
loop_
_atom_site_label
_atom_site_type_symbol
_atom_site_fract_x
_atom_site_fract_y
_atom_site_fract_z
O1 O 0.8170(7) 0.4085(3) 0.5000
O2 O 0.9220(7) 0.3436(7) 0.5000
O3 O 0.8641(7) 0.5479(7) 0.5000
Cl1 Cl 1.2774(4) 0.7226(2) 0.0000
O4 O 1.03176(15) 0.47496(25) -0.5000
C1 C 1.1488(5) 0.6531(4) -0.0391(4)
H1 H 1.1313 0.6353 -0.0722
C2 C 1.2264(6) 0.7420(4) -0.2534(5)
H2 H 1.2122 0.7304 -0.2979
C3 C 1.21899(47) 0.72969(36) -0.1713(5)
C4 C 1.08625(33) 0.59325(26) -0.3671(5)
N1 N 1.24655(34) 0.75345(15) -0.1212(5)
O5 O 1.03303(17) 0.51651(19) -0.6068(4)
O6 O 1.0000(2) 0.4616 -0.2619(4)
H3 H 1.0162 0.4586 -0.2439
O7 O 1.05392(18) 0.58510(13) -0.3528(3)
O8 O 1.09719(16) 0.57946(13) -0.4194(3)
Zr1 Zr 1.0000 0.45878(2) -0.39436(5)
Zr2 Zr 1.066480(23) 0.533240(11) -0.5000
Fe1 Fe 1.24760(12) 0.75240(5) 0.0000
N2 N 1.1997(5) 0.7062(4) 0.0000
C5 C 1.14944(34) 0.62884(28) -0.3119(5)
H4 H 1.1559 0.6157 -0.3457
C6 C 1.1147(5) 0.6228(4) -0.3148(5)
C7 C 1.1649(5) 0.6715(4) -0.2091(5)
C8 C 1.17477(47) 0.65347(36) -0.2611(5)
H5 H 1.1984 0.6579 -0.2620
C9 C 1.1044(5) 0.6417(4) -0.2676(6)
H6 H 1.0811 0.6381 -0.2708
C10 C 1.1812(5) 0.6859(4) -0.0653(5)
C11 C 1.1899(5) 0.6961(4) -0.1445(5)
C12 C 1.1303(5) 0.6677(4) -0.2125(5)
H7 H 1.1242 0.6815 -0.1799
O9 O 1.00000(15) 0.4059 -0.4024(5)
H8 H 0.9805 0.3894 -0.3868
O4K O 1.03176(15) 0.55680(29) -0.5000
O4H O 0.96824(15) 0.44320(29) -0.5000
O4C O 0.96824(15) 0.52504(25) -0.5000
C1O C 1.1488(5) 0.6531(4) 0.0391(4)
C1R C 1.3469(4) 0.8512(5) -0.0391(4)
C1I C 1.3469(4) 0.8512(5) 0.0391(4)
H1O H 1.1313 0.6353 0.0722
H1R H 1.3647 0.8687 -0.0722
H1I H 1.3647 0.8687 0.0722
C2R C 1.2580(4) 0.7736(6) -0.2534(5)
C2I C 1.2580(4) 0.7736(6) 0.2534(5)
C2O C 1.2264(6) 0.7420(4) 0.2534(5)
H2R H 1.2696 0.7878 -0.2979
H2O H 1.2122 0.7304 0.2979
H2I H 1.2696 0.7878 0.2979
C3R C 1.27031(36) 0.78101(47) -0.1713(5)
C3I C 1.27031(36) 0.78101(47) 0.1713(5)
C3O C 1.21899(47) 0.72969(36) 0.1713(5)
C4R C 1.40675(26) 0.91375(33) -0.3671(5)
C4O C 1.08625(33) 0.59325(26) 0.3671(5)
C4I C 1.40675(26) 0.91375(33) 0.3671(5)
N1I N 1.24655(15) 0.75345(34) 0.1212(5)
O5K O 1.03303(17) 0.51652(25) -0.3932(4)
O5H O 0.96697(17) 0.48348(25) -0.3932(4)
O5C O 0.96697(17) 0.48349(19) -0.6068(4)
O6K O 1.0000(2) 0.5384(2) -0.7381(4)
H3W H 0.9838 0.4424 -0.2439
H3K H 1.0162 0.5576 -0.7561
H3L H 0.9838 0.5414 -0.7561
O7R O 1.41490(13) 0.94608(18) -0.3528(3)
O7O O 1.05392(18) 0.58510(13) 0.3528(3)
O7I O 1.41490(13) 0.94608(18) 0.3528(3)
O7C O 0.94608(18) 0.41490(13) -0.3528(3)
O7T O 1.05392(18) 0.46882(22) -0.3528(3)
O7H O 0.94608(18) 0.53118(22) -0.6472(3)
O7O_2 O 1.05392(18) 0.58510(13) -0.6472(3)
O8R O 1.42054(13) 0.90281(16) -0.4194(3)
O8O O 1.09719(16) 0.57946(13) 0.4194(3)
O8I O 1.42054(13) 0.90281(16) 0.4194(3)
O8K O 1.09719(16) 0.51773(21) -0.5806(3)
O8O_2 O 1.09719(16) 0.57946(13) -0.5806(3)
O8T O 1.09719(16) 0.51773(21) -0.4194(3)
Zr1K Zr 1.0000 0.54122(2) -0.60564(5)
Zr1H Zr 1.0000 0.45878(2) -0.60564(5)
Zr1C Zr 1.0000 0.54122(2) -0.39436(5)
Zr1B Zr 1.45878(2) 1.0000 -0.39436(5)
Zr1K_2 Zr 1.0000 0.54122(2) 0.39436(5)
Zr1F Zr 1.45878(2) 1.0000 0.39436(5)
Zr2B Zr 1.466760(25) 0.933520(23) -0.5000
Zr2_2 Zr 1.066480(23) 0.533240(11) 0.5000
Zr2B_2 Zr 1.466760(25) 0.933520(23) 0.5000
N2I N 1.2938(4) 0.8003(5) 0.0000
C5R C 1.37116(28) 0.85056(34) -0.3119(5)
C5O C 1.14944(34) 0.62884(28) 0.3119(5)
C5I C 1.37116(28) 0.85056(34) 0.3119(5)
H4R H 1.3843 0.8441 -0.3457
H4O H 1.1559 0.6157 0.3457
H4I H 1.3843 0.8441 0.3457
C6R C 1.3772(4) 0.8853(5) -0.3148(5)
C6O C 1.1147(5) 0.6228(4) 0.3148(5)
C6I C 1.3772(4) 0.8853(5) 0.3148(5)
C7R C 1.3285(4) 0.8351(5) -0.2091(5)
C7O C 1.1649(5) 0.6715(4) 0.2091(5)
C7I C 1.3285(4) 0.8351(5) 0.2091(5)
C8R C 1.34653(36) 0.82523(47) -0.2611(5)
C8O C 1.17477(47) 0.65347(36) 0.2611(5)
C8I C 1.34653(36) 0.82523(47) 0.2611(5)
H5R H 1.3421 0.8016 -0.2620
H5O H 1.1984 0.6579 0.2620
H5I H 1.3421 0.8016 0.2620
C9R C 1.3583(4) 0.8956(5) -0.2676(6)
C9O C 1.1044(5) 0.6417(4) 0.2676(6)
C9I C 1.3583(4) 0.8956(5) 0.2676(6)
H6R H 1.3619 0.9189 -0.2708
H6O H 1.0811 0.6381 0.2708
H6I H 1.3619 0.9189 0.2708
C10O C 1.1812(5) 0.6859(4) 0.0653(5)
C10R C 1.3141(4) 0.8188(5) -0.0653(5)
C10I C 1.3141(4) 0.8188(5) 0.0653(5)
C11R C 1.3039(4) 0.8101(5) -0.1445(5)
C11I C 1.3039(4) 0.8101(5) 0.1445(5)
C11O C 1.1899(5) 0.6961(4) 0.1445(5)
C12R C 1.3323(4) 0.8697(5) -0.2125(5)
C12O C 1.1303(5) 0.6677(4) 0.2125(5)
C12I C 1.3323(4) 0.8697(5) 0.2125(5)
H7R H 1.3185 0.8758 -0.1799
H7O H 1.1242 0.6815 0.1799
H7I H 1.3185 0.8758 0.1799
O9K O 1.00000(15) 0.59410(15) -0.5976(5)
H8W H 1.0195 0.4089 -0.3868
H8K H 0.9805 0.5911 -0.6132
H8L H 1.0195 0.6106 -0.6132
O10 O 0.9217(5) 0.4609(2) 0.2280(12)
O11 O 0.8879(7) 0.4440(4) 0.1318(17)
loop_
_geom_bond_atom_site_label_1
_geom_bond_atom_site_label_2
_geom_bond_site_symmetry_1
_geom_bond_site_symmetry_2
Cl1 Fe1 1_555 1_555
O4 Zr1 1_555 1_555
C1 H1 1_555 1_555
C2 H2 1_555 1_555
C3 C2 1_555 1_555
C4 O7 1_555 1_555
N1 C3 1_555 1_555
O5 Zr2 1_555 1_555
O6 H3 1_555 1_555
O7 Zr1C 1_555 1_555
O8 C4 1_555 1_555
Zr1 O6 1_555 1_555
Zr2 O4 1_555 1_555
Fe1 N1 1_555 1_555
N2 Fe1 1_555 1_555
C5 H4 1_555 1_555
C6 C4 1_555 1_555
C7 C8 1_555 1_555
C8 C5 1_555 1_555
H5 C8 1_555 1_555
C9 C6 1_555 1_555
H6 C9 1_555 1_555
C10 C1 1_555 1_555
C11 C3 1_555 1_555
C12 C7 1_555 1_555
H7 C12 1_555 1_555
O9 Zr1 1_555 1_555
H8 O9 1_555 1_555
O4K Zr2 1_555 1_555
O4H Zr1 1_555 1_555
O4C Zr1K 1_555 1_555
C1O C1 1_555 1_555
C1R C1I 1_555 1_555
C1I H1I 1_555 1_555
H1O C1O 1_555 1_555
H1R C1R 1_555 1_555
C2R C2 1_555 1_555
C2I C2O 1_555 1_555
C2O H2O 1_555 1_555
H2R C2R 1_555 1_555
H2I C2I 1_555 1_555
C3R N1 1_555 1_555
C3I C2I 1_555 1_555
C3O C2O 1_555 1_555
C4R O7R 1_555 1_555
C4O O7O 1_555 1_555
C4I O7I 1_555 1_555
N1I Fe1 1_555 1_555
O5K Zr1 1_555 1_555
O5H Zr1 1_555 1_555
O5C Zr1K 1_555 1_555
O6K H3K 1_555 1_555
H3W O6 1_555 1_555
H3L O6K 1_555 1_555
O7R Zr1B 1_555 1_555
O7O Zr1K_2 1_555 1_555
O7I Zr1F 1_555 1_555
O7C Zr1 1_555 1_555
O7T Zr1 1_555 1_555
O7H Zr1K 1_555 1_555
O7O_2 Zr1K 1_555 1_555
O8R C4R 1_555 1_555
O8O C4O 1_555 1_555
O8I C4I 1_555 1_555
O8K Zr2 1_555 1_555
O8O_2 Zr2 1_555 1_555
O8T Zr2 1_555 1_555
Zr1K O5 1_555 1_555
Zr1H O4 1_555 1_555
Zr1C O4K 1_555 1_555
Zr2B O8R 1_555 1_555
Zr2_2 O8O 1_555 1_555
Zr2B_2 O8I 1_555 1_555
N2I Fe1 1_555 1_555
C5R H4R 1_555 1_555
C5O H4O 1_555 1_555
C5I H4I 1_555 1_555
C6R C4R 1_555 1_555
C6O C4O 1_555 1_555
C6I C4I 1_555 1_555
C7R C8R 1_555 1_555
C7O C8O 1_555 1_555
C7I C8I 1_555 1_555
C8R C5R 1_555 1_555
C8O C5O 1_555 1_555
C8I C5I 1_555 1_555
H5R C8R 1_555 1_555
H5O C8O 1_555 1_555
H5I C8I 1_555 1_555
C9R C6R 1_555 1_555
C9O C6O 1_555 1_555
C9I C6I 1_555 1_555
H6R C9R 1_555 1_555
H6O C9O 1_555 1_555
H6I C9I 1_555 1_555
C10O N2 1_555 1_555
C10R C1R 1_555 1_555
C10I C1I 1_555 1_555
C11R C3R 1_555 1_555
C11I C3I 1_555 1_555
C11O C3O 1_555 1_555
C12R C7R 1_555 1_555
C12O C7O 1_555 1_555
C12I C7I 1_555 1_555
H7R C12R 1_555 1_555
H7O C12O 1_555 1_555
H7I C12I 1_555 1_555
O9K Zr1K 1_555 1_555
H8W O9 1_555 1_555
H8K O9K 1_555 1_555
H8L O9K 1_555 1_555
O5 Zr1H 1_555 1_555
O8 Zr2 1_555 1_555
Zr2 O5K 1_555 1_555
N2 C10 1_555 1_555
C5 C6 1_555 1_555
C7 C11 1_555 1_555
C9 C12 1_555 1_555
C10 C11 1_555 1_555
O4K Zr1K 1_555 1_555
O4H Zr1H 1_555 1_555
O4C Zr1C 1_555 1_555
C1O C10O 1_555 1_555
C2R C3R 1_555 1_555
C3I N1I 1_555 1_555
C3O N1I 1_555 1_555
O5K Zr1C 1_555 1_555
O5H Zr1C 1_555 1_555
O5C Zr1H 1_555 1_555
O6K Zr1K 1_555 1_555
N2I C10R 1_555 1_555
N2I C10I 1_555 1_555
C5R C6R 1_555 1_555
C5O C6O 1_555 1_555
C5I C6I 1_555 1_555
C7R C11R 1_555 1_555
C7O C11O 1_555 1_555
C7I C11I 1_555 1_555
C9R C12R 1_555 1_555
C9O C12O 1_555 1_555
C9I C12I 1_555 1_555
C10O C11O 1_555 1_555
C10R C11R 1_555 1_555
C10I C11I 1_555 1_555

#END
