
#######################################################################
#
#                 Cambridge Crystallographic Data Centre
#                                CCDC 
#
#######################################################################
#
# If this CIF has been generated from an entry in the Cambridge 
# Structural Database, then it will include bibliographic, chemical, 
# crystal, experimental, refinement or atomic coordinate data resulting 
# from the CCDC's data processing and validation procedures.
#
#######################################################################

data_PURRUR
_chemical_formula_moiety         '(C66 H58 Cd3 O20)n'
_symmetry_cell_setting           rhombohedral
_symmetry_space_group_name_H-M   'R -3 c'
_symmetry_Int_Tables_number      167
_space_group_name_Hall           '-R 3 2"c'
loop_
_symmetry_equiv_pos_site_id
_symmetry_equiv_pos_as_xyz
1 x,y,z
2 -y,x-y,z
3 -x+y,-x,z
4 y,x,1/2-z
5 x-y,-y,1/2-z
6 -x,-x+y,1/2-z
7 2/3+x,1/3+y,1/3+z
8 2/3-y,1/3+x-y,1/3+z
9 2/3-x+y,1/3-x,1/3+z
10 2/3+y,1/3+x,5/6-z
11 2/3+x-y,1/3-y,5/6-z
12 2/3-x,1/3-x+y,5/6-z
13 1/3+x,2/3+y,2/3+z
14 1/3-y,2/3+x-y,2/3+z
15 1/3-x+y,2/3-x,2/3+z
16 1/3+y,2/3+x,1/6-z
17 1/3+x-y,2/3-y,1/6-z
18 1/3-x,2/3-x+y,1/6-z
19 -x,-y,-z
20 y,-x+y,-z
21 x-y,x,-z
22 -y,-x,1/2+z
23 -x+y,y,1/2+z
24 x,x-y,1/2+z
25 1/3-x,2/3-y,2/3-z
26 1/3+y,2/3-x+y,2/3-z
27 1/3+x-y,2/3+x,2/3-z
28 1/3-y,2/3-x,1/6+z
29 1/3-x+y,2/3+y,1/6+z
30 1/3+x,2/3+x-y,1/6+z
31 2/3-x,1/3-y,1/3-z
32 2/3+y,1/3-x+y,1/3-z
33 2/3+x-y,1/3+x,1/3-z
34 2/3-y,1/3-x,5/6+z
35 2/3-x+y,1/3+y,5/6+z
36 2/3+x,1/3+x-y,5/6+z
_cell_length_a                   38.9244(15)
_cell_length_b                   38.9244(15)
_cell_length_c                   59.952(3)
_cell_angle_alpha                90
_cell_angle_beta                 90
_cell_angle_gamma                120
_cell_volume                     78664.4
loop_
_atom_site_label
_atom_site_type_symbol
_atom_site_fract_x
_atom_site_fract_y
_atom_site_fract_z
_atom_site_U_iso_or_equiv
_atom_site_thermal_displace_type
C1 C 0.30709(13) 0.20933(13) 0.37001(8) 0.0487 Uani
C2 C 0.29561(12) 0.23929(12) 0.37343(7) 0.0473 Uani
C3 C 0.31728(13) 0.27099(13) 0.38792(8) 0.0542 Uani
H1 H 0.3362 0.2705 0.3972 0.0660 Uiso
C4 C 0.31150(13) 0.30253(14) 0.38887(8) 0.0567 Uani
H2 H 0.3269 0.3238 0.3982 0.0680 Uiso
C5 C 0.28316(14) 0.30275(13) 0.37608(8) 0.0603 Uani
H3 H 0.2789 0.3242 0.3768 0.0720 Uiso
C6 C 0.26006(13) 0.27118(12) 0.36178(7) 0.0491 Uani
C7 C 0.26616(13) 0.23908(13) 0.36021(7) 0.0521 Uani
H4 H 0.2510 0.2181 0.3506 0.0630 Uiso
C8 C 0.20675(12) 0.24498(13) 0.33484(7) 0.0491 Uani
H5 H 0.1901 0.2202 0.3426 0.0590 Uiso
H6 H 0.2221 0.2405 0.3237 0.0590 Uiso
C9 C 0.18120(12) 0.25976(12) 0.32383(7) 0.0460 Uani
C10 C 0.15213(13) 0.26190(12) 0.33631(8) 0.0492 Uani
C11 C 0.13294(12) 0.28023(12) 0.32703(8) 0.0497 Uani
C12 C 0.13931(12) 0.29290(12) 0.30500(7) 0.0446 Uani
C13 C 0.16802(13) 0.28913(13) 0.29276(7) 0.0499 Uani
C14 C 0.19087(13) 0.27411(12) 0.30279(7) 0.0468 Uani
C15 C 0.22448(12) 0.27446(13) 0.28941(7) 0.0530 Uani
H7 H 0.2464 0.2807 0.2991 0.0800 Uiso
H8 H 0.2328 0.2941 0.2778 0.0800 Uiso
H9 H 0.2153 0.2488 0.2829 0.0800 Uiso
C16 C 0.14014(13) 0.24358(13) 0.35977(7) 0.0538 Uani
H10 H 0.1366 0.2174 0.3596 0.0810 Uiso
H11 H 0.1157 0.2422 0.3641 0.0810 Uiso
H12 H 0.1606 0.2598 0.3702 0.0810 Uiso
C17 C 0.11670(13) 0.31077(12) 0.29482(8) 0.0533 Uani
H13 H 0.0927 0.3025 0.3031 0.0800 Uiso
H14 H 0.1102 0.3021 0.2796 0.0800 Uiso
H15 H 0.1327 0.3392 0.2952 0.0800 Uiso
C18 C 0.10434(12) 0.28750(12) 0.34070(8) 0.0533 Uani
H16 H 0.1106 0.2886 0.3564 0.0640 Uiso
H17 H 0.1065 0.3126 0.3365 0.0640 Uiso
C19 C 0.03498(12) 0.25906(13) 0.34732(7) 0.0493 Uani
C20 C 0.04155(13) 0.29044(13) 0.36053(7) 0.0519 Uani
H18 H 0.0675 0.3103 0.3633 0.0620 Uiso
C21 C 0.01112(13) 0.29338(13) 0.36974(7) 0.0536 Uani
H19 H 0.0162 0.3156 0.3781 0.0640 Uiso
C22 C -0.02824(13) 0.26217(13) 0.36648(7) 0.0550 Uani
H20 H -0.0494 0.2631 0.3730 0.0660 Uiso
C23 C -0.03478(12) 0.22955(12) 0.35306(7) 0.0471 Uani
C24 C -0.00355(12) 0.22846(12) 0.34336(7) 0.0476 Uani
H21 H -0.0080 0.2074 0.3341 0.0580 Uiso
C25 C -0.07651(13) 0.19750(14) 0.34936(8) 0.0510 Uani
C26 C 0.17607(13) 0.30417(12) 0.26879(7) 0.0483 Uani
H22 H 0.1867 0.2902 0.2604 0.0580 Uiso
H23 H 0.1514 0.2989 0.2618 0.0580 Uiso
C27 C 0.20995(13) 0.36474(12) 0.24860(8) 0.0498 Uani
C28 C 0.23623(13) 0.40556(13) 0.24965(8) 0.0533 Uani
H24 H 0.2478 0.4172 0.2632 0.0640 Uiso
C29 C 0.24511(13) 0.42864(14) 0.23086(8) 0.0586 Uani
H25 H 0.2621 0.4559 0.2317 0.0700 Uiso
C30 C 0.22822(13) 0.41066(13) 0.21016(8) 0.0551 Uani
H26 H 0.2351 0.4258 0.1972 0.0660 Uiso
C31 C 0.20138(12) 0.37025(12) 0.20935(8) 0.0481 Uani
C32 C 0.19361(12) 0.34789(12) 0.22862(7) 0.0473 Uani
H27 H 0.1767 0.3206 0.2279 0.0570 Uiso
C33 C 0.18301(13) 0.35007(14) 0.18770(8) 0.0507 Uani
C34 C 0.17097(14) 0.13023(13) 0.34347(8) 0.0558 Uani
C35 C 0.14819(13) 0.13418(13) 0.36302(8) 0.0548 Uani
C36 C 0.10799(13) 0.12061(13) 0.36118(8) 0.0601 Uani
H28 H 0.0944 0.1081 0.3482 0.0720 Uiso
C37 C 0.08810(14) 0.12584(15) 0.37878(8) 0.0634 Uani
H29 H 0.0610 0.1167 0.3780 0.0760 Uiso
C38 C 0.11020(13) 0.14552(13) 0.39808(8) 0.0576 Uani
H30 H 0.0975 0.1499 0.4100 0.0690 Uiso
C39 C 0.14962(13) 0.15821(13) 0.39958(8) 0.0568 Uani
C40 C 0.16824(14) 0.15194(12) 0.38193(7) 0.0514 Uani
H31 H 0.1951 0.1600 0.3830 0.0610 Uiso
C41 C 0.20836(13) 0.19704(14) 0.41944(8) 0.0602 Uani
H32 H 0.2179 0.2118 0.4056 0.0720 Uiso
H33 H 0.2187 0.1790 0.4206 0.0720 Uiso
C42 C 0.22269(13) 0.22560(13) 0.43924(8) 0.0552 Uani
C43 C 0.22249(13) 0.26072(14) 0.43783(8) 0.0560 Uani
C44 C 0.24154(13) 0.28955(13) 0.45521(7) 0.0500 Uani
C45 C 0.26114(13) 0.28222(13) 0.47190(8) 0.0533 Uani
C46 C 0.25916(13) 0.24523(14) 0.47390(8) 0.0566 Uani
C47 C 0.23830(14) 0.21563(13) 0.45834(8) 0.0547 Uani
C48 C 0.23357(14) 0.17455(12) 0.46058(8) 0.0594 Uani
H34 H 0.2089 0.1553 0.4539 0.0900 Uiso
H35 H 0.2337 0.1684 0.4761 0.0900 Uiso
H36 H 0.2551 0.1740 0.4531 0.0900 Uiso
C49 C 0.20513(14) 0.27064(15) 0.41911(8) 0.0643 Uani
H37 H 0.2259 0.2897 0.4097 0.0970 Uiso
H38 H 0.1895 0.2816 0.4246 0.0970 Uiso
H39 H 0.1885 0.2471 0.4107 0.0970 Uiso
C50 C 0.28527(14) 0.31605(13) 0.48875(8) 0.0599 Uani
H40 H 0.3022 0.3401 0.4808 0.0900 Uiso
H41 H 0.3011 0.3091 0.4979 0.0900 Uiso
H42 H 0.2674 0.3199 0.4980 0.0900 Uiso
C51 C 0.24252(13) 0.32852(12) 0.45393(8) 0.0544 Uani
H43 H 0.2218 0.3267 0.4441 0.0650 Uiso
H44 H 0.2391 0.3369 0.4686 0.0650 Uiso
C52 C 0.29413(8) 0.39533(6) 0.44721(5) 0.0507 Uani
C53 C 0.33437(7) 0.42115(8) 0.44375(5) 0.0554 Uani
H45 H 0.3513 0.4112 0.4411 0.0660 Uiso
C54 C 0.34935(6) 0.46190(7) 0.44428(5) 0.0584 Uani
H46 H 0.3763 0.4792 0.4420 0.0700 Uiso
C55 C 0.32410(8) 0.47683(6) 0.44827(5) 0.0568 Uani
H47 H 0.3341 0.5041 0.4486 0.0680 Uiso
C56 C 0.28386(7) 0.45100(8) 0.45174(5) 0.0510 Uani
C57 C 0.26888(6) 0.41025(7) 0.45121(5) 0.0517 Uani
H48 H 0.2420 0.3930 0.4535 0.0620 Uiso
C58 C 0.25786(13) 0.46732(13) 0.45593(7) 0.0494 Uani
C59 C 0.28522(14) 0.24133(15) 0.49119(7) 0.0581 Uani
H49 H 0.2846 0.2163 0.4890 0.0700 Uiso
H50 H 0.3124 0.2626 0.4892 0.0700 Uiso
C60 C 0.30243(14) 0.25731(12) 0.52932(7) 0.0509 Uani
C61 C 0.29289(14) 0.26809(13) 0.54919(8) 0.0533 Uani
H51 H 0.2680 0.2656 0.5510 0.0640 Uiso
C62 C 0.31964(15) 0.28254(13) 0.56643(8) 0.0599 Uani
H52 H 0.3124 0.2893 0.5798 0.0720 Uiso
C63 C 0.35595(14) 0.28711(12) 0.56439(7) 0.0527 Uani
H53 H 0.3740 0.2974 0.5761 0.0630 Uiso
C64 C 0.36638(13) 0.27591(12) 0.54393(7) 0.0499 Uani
C65 C 0.33911(13) 0.26158(12) 0.52674(7) 0.0491 Uani
H54 H 0.3459 0.2548 0.5132 0.0590 Uiso
C66 C 0.40677(14) 0.28015(14) 0.54152(8) 0.0541 Uani
Cd1 Cd 0.342852(10) 0.164561(10) 0.360954(6) 0.0516 Uani
Cd2 Cd 0.255422(9) 0.139986(9) 0.328368(6) 0.0494 Uani
Cd3 Cd 0.185591(10) 0.140079(10) 0.292386(6) 0.0515 Uani
O1 O 0.33662(9) 0.21168(9) 0.38065(5) 0.0595 Uani
O2 O 0.29033(9) 0.18219(9) 0.35673(5) 0.0546 Uani
O3 O 0.23276(9) 0.27520(8) 0.35036(5) 0.0576 Uani
O4 O 0.20306(8) 0.34483(8) 0.26832(5) 0.0466 Uani
O5 O 0.15889(8) 0.31372(9) 0.18868(5) 0.0558 Uani
O6 O 0.19329(9) 0.37101(9) 0.17048(5) 0.0571 Uani
O7 O 0.06444(8) 0.25526(8) 0.33651(5) 0.0523 Uani
O8 O -0.08303(8) 0.16560(9) 0.34102(5) 0.0530 Uani
O9 O -0.10333(9) 0.20391(9) 0.35657(5) 0.0595 Uani
O10 O 0.20155(9) 0.13126(9) 0.34755(5) 0.0556 Uani
O11 O 0.15505(9) 0.12526(9) 0.32521(5) 0.0602 Uani
O12 O 0.16625(8) 0.17517(9) 0.41936(5) 0.0572 Uani
O13 O 0.28201(8) 0.35625(9) 0.44488(5) 0.0540 Uani
O14 O 0.22245(9) 0.44293(9) 0.46201(5) 0.0542 Uani
O15 O 0.26772(9) 0.50292(9) 0.45275(5) 0.0602 Uani
O16 O 0.27278(9) 0.24290(9) 0.51321(5) 0.0557 Uani
O17 O 0.41718(8) 0.27464(8) 0.52292(5) 0.0514 Uani
O18 O 0.42908(9) 0.28890(9) 0.55851(5) 0.0542 Uani
O19 O 0.3974(18) 0.1691(17) 0.3719(11) 0.0591 Uani
O20 O 0.1396(16) 0.1461(16) 0.2754(8) 0.0802 Uani
Cd1A Cd -0.164561(10) 0.178291(14) 0.360954(6) 0.0516 Uani
Cd1C Cd 0.164561(10) 0.342852(10) 0.139046(6) 0.0516 Uani
Cd2A Cd -0.139986(9) 0.115436(13) 0.328368(6) 0.0494 Uani
Cd2C Cd 0.139986(9) 0.255422(9) 0.171632(6) 0.0494 Uani
Cd2K Cd 0.411245(9) 0.217897(13) 0.504965(6) 0.0494 Uani
Cd2AA Cd 0.193347(9) 0.411245(9) 0.495035(6) 0.0494 Uani
Cd3K Cd 0.481076(10) 0.287821(14) 0.540947(6) 0.0515 Uani
Cd3AA Cd 0.193254(10) 0.481076(10) 0.459053(6) 0.0515 Uani
O5C O 0.31372(9) 0.15889(8) 0.31132(5) 0.0558 Uani
O6C O 0.37101(9) 0.19329(9) 0.32952(5) 0.0571 Uani
O8B O 0.24863(12) 0.08303(8) 0.34102(5) 0.0530 Uani
O9B O 0.30724(13) 0.10333(9) 0.35657(5) 0.0595 Uani
O14GA O 0.22374(9) 0.11088(9) 0.29534(5) 0.0542 Uani
O15GA O 0.16375(9) 0.06561(9) 0.28608(5) 0.0602 Uani
O17K O 0.24949(8) 0.19079(11) 0.31041(5) 0.0514 Uani
O18K O 0.23759(9) 0.19315(13) 0.27482(5) 0.0542 Uani
loop_
_atom_site_aniso_label
_atom_site_aniso_U_11
_atom_site_aniso_U_22
_atom_site_aniso_U_33
_atom_site_aniso_U_23
_atom_site_aniso_U_13
_atom_site_aniso_U_12
C1 0.048(3) 0.041(3) 0.046(3) -0.007(2) -0.007(2) 0.014(2)
C2 0.041(2) 0.046(3) 0.042(2) -0.011(2) -0.005(2) 0.012(2)
C3 0.053(3) 0.050(3) 0.052(3) -0.015(2) -0.012(2) 0.020(2)
C4 0.049(3) 0.052(3) 0.058(3) -0.021(2) -0.015(2) 0.017(2)
C5 0.057(3) 0.046(3) 0.065(3) -0.007(2) -0.004(3) 0.016(2)
C6 0.049(3) 0.043(3) 0.046(3) -0.014(2) -0.007(2) 0.016(2)
C7 0.046(3) 0.052(3) 0.047(3) -0.010(2) -0.001(2) 0.016(2)
C8 0.045(3) 0.048(3) 0.042(3) -0.001(2) 0.005(2) 0.014(2)
C9 0.041(2) 0.037(2) 0.046(3) 0.002(2) 0.006(2) 0.009(2)
C10 0.043(2) 0.042(2) 0.049(3) 0.005(2) 0.010(2) 0.011(2)
C11 0.040(2) 0.040(2) 0.053(3) 0.005(2) 0.011(2) 0.008(2)
C12 0.048(3) 0.042(2) 0.039(2) -0.010(2) -0.006(2) 0.019(2)
C13 0.050(3) 0.046(3) 0.047(3) 0.007(2) 0.011(2) 0.019(2)
C14 0.053(3) 0.042(2) 0.043(3) -0.005(2) 0.007(2) 0.022(2)
C15 0.048(3) 0.052(3) 0.051(3) 0.010(2) 0.015(2) 0.019(2)
C16 0.050(3) 0.048(3) 0.052(3) 0.013(2) 0.015(2) 0.016(2)
C17 0.051(3) 0.043(3) 0.060(3) 0.002(2) -0.005(2) 0.019(2)
C18 0.047(3) 0.046(3) 0.056(3) -0.015(2) 0.005(2) 0.015(2)
C19 0.043(3) 0.049(3) 0.048(3) -0.008(2) 0.008(2) 0.017(2)
C20 0.042(2) 0.052(3) 0.049(3) -0.014(2) 0.013(2) 0.014(2)
C21 0.049(3) 0.051(3) 0.050(3) -0.011(2) 0.012(2) 0.017(2)
C22 0.041(3) 0.063(3) 0.049(3) -0.004(2) 0.017(2) 0.017(2)
C23 0.038(2) 0.043(2) 0.044(3) 0.007(2) 0.016(2) 0.008(2)
C24 0.042(3) 0.046(3) 0.040(2) -0.006(2) 0.007(2) 0.011(2)
C25 0.046(3) 0.050(3) 0.049(3) 0.011(2) 0.012(2) 0.018(2)
C26 0.050(3) 0.044(3) 0.045(3) 0.003(2) 0.005(2) 0.019(2)
C27 0.048(3) 0.040(3) 0.048(3) -0.004(2) 0.013(2) 0.012(2)
C28 0.049(3) 0.051(3) 0.048(3) -0.008(2) 0.011(2) 0.016(2)
C29 0.052(3) 0.044(3) 0.061(3) 0.009(2) 0.011(3) 0.010(2)
C30 0.051(3) 0.045(3) 0.052(3) 0.015(2) 0.016(2) 0.011(2)
C31 0.038(2) 0.045(3) 0.051(3) 0.005(2) 0.007(2) 0.013(2)
C32 0.044(2) 0.036(2) 0.050(3) 0.006(2) 0.007(2) 0.011(2)
C33 0.043(3) 0.052(3) 0.052(3) 0.006(2) 0.007(2) 0.020(2)
C34 0.046(3) 0.050(3) 0.054(3) -0.017(2) -0.007(2) 0.011(2)
C35 0.048(3) 0.051(3) 0.055(3) -0.012(2) -0.009(2) 0.017(2)
C36 0.049(3) 0.060(3) 0.047(3) -0.019(2) -0.011(2) 0.009(2)
C37 0.049(3) 0.077(3) 0.057(3) -0.015(3) -0.008(2) 0.026(3)
C38 0.047(3) 0.059(3) 0.050(3) -0.015(2) 0.003(2) 0.014(2)
C39 0.049(3) 0.055(3) 0.049(3) -0.009(2) -0.009(2) 0.013(2)
C40 0.054(3) 0.050(3) 0.045(3) 0.004(2) -0.005(2) 0.022(2)
C41 0.053(3) 0.064(3) 0.054(3) -0.008(3) -0.006(2) 0.022(3)
C42 0.047(3) 0.047(3) 0.059(3) -0.007(2) -0.010(2) 0.014(2)
C43 0.055(3) 0.053(3) 0.048(3) 0.002(2) -0.009(2) 0.018(2)
C44 0.051(3) 0.047(3) 0.042(3) 0.002(2) 0.009(2) 0.017(2)
C45 0.053(3) 0.046(3) 0.056(3) -0.009(2) -0.008(2) 0.021(2)
C46 0.053(3) 0.054(3) 0.055(3) -0.010(2) -0.012(2) 0.021(2)
C47 0.061(3) 0.046(3) 0.052(3) -0.012(2) -0.018(2) 0.023(2)
C48 0.062(3) 0.045(3) 0.061(3) -0.010(2) -0.016(3) 0.019(2)
C49 0.059(3) 0.071(3) 0.053(3) 0.010(3) -0.007(3) 0.025(3)
C50 0.056(3) 0.047(3) 0.057(3) -0.007(2) -0.009(2) 0.011(2)
C51 0.046(3) 0.049(3) 0.058(3) 0.005(2) 0.010(2) 0.016(2)
C52 0.047(3) 0.050(3) 0.048(3) 0.012(2) 0.008(2) 0.019(2)
C53 0.050(3) 0.054(3) 0.057(3) 0.014(2) 0.014(2) 0.022(2)
C54 0.050(3) 0.052(3) 0.066(3) 0.005(2) 0.007(2) 0.020(2)
C55 0.061(3) 0.046(3) 0.057(3) 0.006(2) 0.015(2) 0.022(2)
C56 0.041(3) 0.047(3) 0.053(3) 0.009(2) 0.011(2) 0.013(2)
C57 0.041(2) 0.050(3) 0.051(3) 0.014(2) 0.014(2) 0.013(2)
C58 0.049(3) 0.047(3) 0.047(3) 0.015(2) 0.014(2) 0.020(2)
C59 0.062(3) 0.063(3) 0.049(3) -0.009(2) -0.010(2) 0.031(3)
C60 0.058(3) 0.042(3) 0.042(3) 0.004(2) 0.001(2) 0.017(2)
C61 0.051(3) 0.052(3) 0.048(3) 0.009(2) 0.010(2) 0.019(2)
C62 0.070(3) 0.053(3) 0.045(3) 0.008(2) 0.008(3) 0.022(3)
C63 0.054(3) 0.046(3) 0.042(3) 0.007(2) 0.005(2) 0.013(2)
C64 0.057(3) 0.033(2) 0.043(3) 0.010(2) 0.000(2) 0.010(2)
C65 0.053(3) 0.041(2) 0.046(3) -0.009(2) 0.003(2) 0.018(2)
C66 0.053(3) 0.057(3) 0.049(3) 0.014(2) 0.013(3) 0.025(2)
Cd1 0.0489(2) 0.04588(19) 0.0506(2) -0.01160(16) -0.01470(16) 0.01661(16)
Cd2 0.04751(19) 0.04610(19) 0.0471(2) -0.00954(16) -0.01250(16) 0.01778(16)
Cd3 0.0508(2) 0.0496(2) 0.0482(2) 0.00495(16) -0.01343(16) 0.02061(16)
O1 0.0573(19) 0.0551(19) 0.060(2) -0.0218(16) -0.0165(17) 0.0236(16)
O2 0.0544(19) 0.0491(18) 0.0510(19) -0.0026(16) -0.0239(16) 0.0190(15)
O3 0.0570(19) 0.0455(18) 0.059(2) -0.0137(16) -0.0066(17) 0.0171(16)
O4 0.0470(17) 0.0387(16) 0.0430(17) -0.0066(14) -0.0066(14) 0.0132(14)
O5 0.0477(18) 0.0495(19) 0.0503(19) 0.0046(15) -0.0127(15) 0.0093(16)
O6 0.0565(19) 0.0594(19) 0.0482(19) 0.0113(16) 0.0142(16) 0.0236(16)
O7 0.0445(17) 0.0481(17) 0.0525(18) -0.0149(15) 0.0099(15) 0.0144(14)
O8 0.0530(19) 0.0443(18) 0.0467(18) 0.0065(15) 0.0129(15) 0.0130(15)
O9 0.0413(17) 0.0540(19) 0.065(2) -0.0107(16) 0.0115(16) 0.0102(15)
O10 0.054(2) 0.058(2) 0.0487(19) 0.0084(15) 0.0030(16) 0.0235(17)
O11 0.0492(18) 0.060(2) 0.055(2) -0.0069(17) -0.0055(16) 0.0150(16)
O12 0.0494(19) 0.0560(19) 0.055(2) -0.0106(16) -0.0101(16) 0.0180(16)
O13 0.0462(17) 0.0521(19) 0.0569(19) 0.0129(16) 0.0144(15) 0.0195(15)
O14 0.0530(19) 0.0570(19) 0.0491(18) 0.0146(15) 0.0138(16) 0.0248(16)
O15 0.0497(18) 0.053(2) 0.067(2) -0.0037(17) -0.0010(16) 0.0176(16)
O16 0.0554(19) 0.0567(19) 0.0474(19) 0.0115(16) 0.0046(16) 0.0223(16)
O17 0.0522(18) 0.0461(17) 0.0493(19) -0.0104(15) -0.0134(16) 0.0196(15)
O18 0.0530(19) 0.0568(19) 0.0491(19) 0.0141(16) 0.0132(16) 0.0246(16)
O19 0.041(8) 0.043(9) 0.08(3) -0.008(11) -0.015(12) 0.011(6)
O20 0.07(2) 0.08(2) 0.07(2) 0.018(15) 0.000(15) 0.022(16)
Cd1A 0.04588 0.06156 0.0506 -0.0031 0.0116 0.02927
Cd1C 0.04588 0.0489 0.0506 0.0147 0.0116 0.01661
Cd2A 0.0461 0.05805 0.0471 -0.00296 0.00954 0.02832
Cd2C 0.0461 0.04751 0.0471 0.0125 0.00954 0.01778
Cd2K 0.04751 0.05805 0.0471 -0.00296 -0.0125 0.02973
Cd2AA 0.0461 0.04751 0.0471 0.0125 0.00954 0.01778
Cd3K 0.0508 0.05918 0.0482 -0.01838 -0.01343 0.03019
Cd3AA 0.0496 0.0508 0.0482 0.01343 -0.00495 0.02061
O5C 0.0495 0.0477 0.0503 0.0127 -0.0046 0.0093
O6C 0.0594 0.0565 0.0482 -0.0142 -0.0113 0.0236
O8B 0.0713 0.053 0.0467 -0.0129 -0.0064 0.04
O9B 0.0749 0.0413 0.065 -0.0115 -0.0222 0.0311
O14GA 0.057 0.053 0.0491 -0.0138 -0.0146 0.0248
O15GA 0.053 0.0497 0.067 0.001 0.0037 0.0176
O17K 0.0522 0.0591 0.0493 -0.003 -0.0134 0.0326
O18K 0.053 0.0606 0.0491 -0.0009 0.0132 0.0284
loop_
_geom_bond_atom_site_label_1
_geom_bond_atom_site_label_2
_geom_bond_site_symmetry_1
_geom_bond_site_symmetry_2
C1 C2 1_555 1_555
C2 C3 1_555 1_555
C3 H1 1_555 1_555
C4 C3 1_555 1_555
H2 C4 1_555 1_555
C5 C4 1_555 1_555
H3 C5 1_555 1_555
C6 C5 1_555 1_555
C7 C2 1_555 1_555
H4 C7 1_555 1_555
C8 H5 1_555 1_555
H6 C8 1_555 1_555
C9 C8 1_555 1_555
C10 C9 1_555 1_555
C11 C10 1_555 1_555
C12 C11 1_555 1_555
C13 C12 1_555 1_555
C14 C9 1_555 1_555
C15 C14 1_555 1_555
H7 C15 1_555 1_555
H8 C15 1_555 1_555
H9 C15 1_555 1_555
C16 C10 1_555 1_555
H10 C16 1_555 1_555
H11 C16 1_555 1_555
H12 C16 1_555 1_555
C17 C12 1_555 1_555
H13 C17 1_555 1_555
H14 C17 1_555 1_555
H15 C17 1_555 1_555
C18 C11 1_555 1_555
H16 C18 1_555 1_555
H17 C18 1_555 1_555
C19 C20 1_555 1_555
C20 H18 1_555 1_555
C21 C20 1_555 1_555
H19 C21 1_555 1_555
C22 C21 1_555 1_555
H20 C22 1_555 1_555
C23 C22 1_555 1_555
C24 C19 1_555 1_555
H21 C24 1_555 1_555
C25 C23 1_555 1_555
C26 C13 1_555 1_555
H22 C26 1_555 1_555
H23 C26 1_555 1_555
C27 C28 1_555 1_555
C28 H24 1_555 1_555
C29 C28 1_555 1_555
H25 C29 1_555 1_555
C30 C29 1_555 1_555
H26 C30 1_555 1_555
C31 C30 1_555 1_555
C32 C27 1_555 1_555
H27 C32 1_555 1_555
C33 C31 1_555 1_555
C34 C35 1_555 1_555
C35 C36 1_555 1_555
C36 H28 1_555 1_555
C37 C36 1_555 1_555
H29 C37 1_555 1_555
C38 C37 1_555 1_555
H30 C38 1_555 1_555
C39 C38 1_555 1_555
C40 C35 1_555 1_555
H31 C40 1_555 1_555
C41 H32 1_555 1_555
H33 C41 1_555 1_555
C42 C41 1_555 1_555
C43 C42 1_555 1_555
C44 C43 1_555 1_555
C45 C44 1_555 1_555
C46 C45 1_555 1_555
C47 C42 1_555 1_555
C48 C47 1_555 1_555
H34 C48 1_555 1_555
H35 C48 1_555 1_555
H36 C48 1_555 1_555
C49 C43 1_555 1_555
H37 C49 1_555 1_555
H38 C49 1_555 1_555
H39 C49 1_555 1_555
C50 C45 1_555 1_555
H40 C50 1_555 1_555
H41 C50 1_555 1_555
H42 C50 1_555 1_555
C51 C44 1_555 1_555
H43 C51 1_555 1_555
H44 C51 1_555 1_555
C52 C53 1_555 1_555
C53 H45 1_555 1_555
C54 C53 1_555 1_555
H46 C54 1_555 1_555
C55 C54 1_555 1_555
H47 C55 1_555 1_555
C56 C55 1_555 1_555
C57 C52 1_555 1_555
H48 C57 1_555 1_555
C58 C56 1_555 1_555
C59 C46 1_555 1_555
H49 C59 1_555 1_555
H50 C59 1_555 1_555
C60 C61 1_555 1_555
C61 H51 1_555 1_555
C62 C61 1_555 1_555
H52 C62 1_555 1_555
C63 C62 1_555 1_555
H53 C63 1_555 1_555
C64 C63 1_555 1_555
C65 C60 1_555 1_555
H54 C65 1_555 1_555
C66 C64 1_555 1_555
Cd1 O1 1_555 1_555
Cd2 O2 1_555 1_555
Cd3 O11 1_555 1_555
O1 C1 1_555 1_555
O2 C1 1_555 1_555
O3 C6 1_555 1_555
O4 C26 1_555 1_555
O5 C33 1_555 1_555
O6 C33 1_555 1_555
O7 C18 1_555 1_555
O8 C25 1_555 1_555
O9 C25 1_555 1_555
O10 C34 1_555 1_555
O11 C34 1_555 1_555
O12 C39 1_555 1_555
O13 C51 1_555 1_555
O14 C58 1_555 1_555
O15 C58 1_555 1_555
O16 C59 1_555 1_555
O17 C66 1_555 1_555
O18 C66 1_555 1_555
O19 Cd1 1_555 1_555
O20 Cd3 1_555 1_555
Cd1A O9 1_555 1_555
Cd1C O6 1_555 1_555
Cd2A O8 1_555 1_555
Cd2C O5 1_555 1_555
Cd2K O17 1_555 1_555
Cd2AA O14 1_555 1_555
Cd3K O17 1_555 1_555
Cd3AA O14 1_555 1_555
O5C Cd2 1_555 1_555
O6C Cd1 1_555 1_555
O8B Cd2 1_555 1_555
O9B Cd1 1_555 1_555
O14GA Cd2 1_555 1_555
O15GA Cd3 1_555 1_555
O17K Cd2 1_555 1_555
O18K Cd3 1_555 1_555
C6 C7 1_555 1_555
C8 O3 1_555 1_555
C13 C14 1_555 1_555
C19 O7 1_555 1_555
C23 C24 1_555 1_555
C27 O4 1_555 1_555
C31 C32 1_555 1_555
C39 C40 1_555 1_555
C41 O12 1_555 1_555
C46 C47 1_555 1_555
C52 O13 1_555 1_555
C56 C57 1_555 1_555
C60 O16 1_555 1_555
C64 C65 1_555 1_555
Cd1 O2 1_555 1_555
Cd2 O10 1_555 1_555
Cd3 O14GA 1_555 1_555
Cd3 O17K 1_555 1_555
O15 Cd3AA 1_555 1_555
O18 Cd3K 1_555 1_555

#END
