
#######################################################################
#
#                 Cambridge Crystallographic Data Centre
#                                CCDC 
#
#######################################################################
#
# If this CIF has been generated from an entry in the Cambridge 
# Structural Database, then it will include bibliographic, chemical, 
# crystal, experimental, refinement or atomic coordinate data resulting 
# from the CCDC's data processing and validation procedures.
#
#######################################################################

data_PURSEC
_chemical_formula_moiety         '(C66 H58 Mn3 O20)n'
_symmetry_cell_setting           rhombohedral
_symmetry_space_group_name_H-M   'R -3 c'
_symmetry_Int_Tables_number      167
_space_group_name_Hall           '-R 3 2"c'
loop_
_symmetry_equiv_pos_site_id
_symmetry_equiv_pos_as_xyz
1 x,y,z
2 -y,x-y,z
3 -x+y,-x,z
4 y,x,1/2-z
5 x-y,-y,1/2-z
6 -x,-x+y,1/2-z
7 2/3+x,1/3+y,1/3+z
8 2/3-y,1/3+x-y,1/3+z
9 2/3-x+y,1/3-x,1/3+z
10 2/3+y,1/3+x,5/6-z
11 2/3+x-y,1/3-y,5/6-z
12 2/3-x,1/3-x+y,5/6-z
13 1/3+x,2/3+y,2/3+z
14 1/3-y,2/3+x-y,2/3+z
15 1/3-x+y,2/3-x,2/3+z
16 1/3+y,2/3+x,1/6-z
17 1/3+x-y,2/3-y,1/6-z
18 1/3-x,2/3-x+y,1/6-z
19 -x,-y,-z
20 y,-x+y,-z
21 x-y,x,-z
22 -y,-x,1/2+z
23 -x+y,y,1/2+z
24 x,x-y,1/2+z
25 1/3-x,2/3-y,2/3-z
26 1/3+y,2/3-x+y,2/3-z
27 1/3+x-y,2/3+x,2/3-z
28 1/3-y,2/3-x,1/6+z
29 1/3-x+y,2/3+y,1/6+z
30 1/3+x,2/3+x-y,1/6+z
31 2/3-x,1/3-y,1/3-z
32 2/3+y,1/3-x+y,1/3-z
33 2/3+x-y,1/3+x,1/3-z
34 2/3-y,1/3-x,5/6+z
35 2/3-x+y,1/3+y,5/6+z
36 2/3+x,1/3+x-y,5/6+z
_cell_length_a                   38.648(2)
_cell_length_b                   38.648(2)
_cell_length_c                   59.844(3)
_cell_angle_alpha                90
_cell_angle_beta                 90
_cell_angle_gamma                120
_cell_volume                     77411.5
loop_
_atom_site_label
_atom_site_type_symbol
_atom_site_fract_x
_atom_site_fract_y
_atom_site_fract_z
C1 C 0.30716(9) 0.20870(9) 0.36996(5)
C2 C 0.29562(8) 0.23883(8) 0.37339(4)
C3 C 0.31793(8) 0.27102(9) 0.38776(4)
H1 H 0.3375 0.2708 0.3967
C4 C 0.31167(9) 0.30247(9) 0.38891(5)
H2 H 0.3268 0.3237 0.3985
C5 C 0.28356(9) 0.30270(9) 0.37616(5)
H3 H 0.2795 0.3244 0.3768
C6 C 0.25988(9) 0.27072(9) 0.36166(5)
C7 C 0.26616(8) 0.23886(8) 0.36032(4)
H4 H 0.2508 0.2176 0.3508
C8 C 0.20654(8) 0.24459(8) 0.33486(4)
H5 H 0.1898 0.2197 0.3427
H6 H 0.2220 0.2400 0.3237
C9 C 0.18106(8) 0.25958(7) 0.32389(5)
C10 C 0.15188(8) 0.26169(8) 0.33631(4)
C11 C 0.13284(8) 0.28025(8) 0.32709(5)
C12 C 0.13947(8) 0.29290(8) 0.30493(5)
C13 C 0.16791(8) 0.28930(8) 0.29271(5)
C14 C 0.19098(8) 0.27401(8) 0.30286(4)
C15 C 0.22445(8) 0.27436(8) 0.28958(4)
H7 H 0.2466 0.2806 0.2993
H8 H 0.2328 0.2941 0.2780
H9 H 0.2152 0.2485 0.2830
C16 C 0.13993(8) 0.24361(8) 0.35970(4)
H10 H 0.1364 0.2172 0.3597
H11 H 0.1154 0.2423 0.3640
H12 H 0.1605 0.2600 0.3701
C17 C 0.11684(8) 0.31098(8) 0.29479(5)
H13 H 0.0927 0.3027 0.3031
H14 H 0.1103 0.3023 0.2796
H15 H 0.1330 0.3396 0.2952
C18 C 0.10433(8) 0.28741(8) 0.34065(4)
H16 H 0.1107 0.2886 0.3564
H17 H 0.1065 0.3126 0.3364
C19 C 0.03501(5) 0.25876(5) 0.34714(3)
C20 C 0.04203(4) 0.29112(5) 0.36044(3)
H18 H 0.0680 0.3117 0.3629
C21 C 0.01017(6) 0.29274(5) 0.37011(3)
H19 H 0.0149 0.3144 0.3790
C22 C -0.02872(5) 0.26200(6) 0.36647(3)
H20 H -0.0500 0.2631 0.3729
C23 C -0.03574(4) 0.22963(5) 0.35317(3)
C24 C -0.00388(5) 0.22801(4) 0.34350(3)
H21 H -0.0086 0.2064 0.3346
C25 C -0.07690(9) 0.19716(9) 0.34934(5)
C26 C 0.17627(8) 0.30412(8) 0.26873(4)
H22 H 0.1873 0.2902 0.2606
H23 H 0.1515 0.2986 0.2615
C27 C 0.20964(8) 0.36455(8) 0.24860(5)
C28 C 0.23607(8) 0.40542(9) 0.24946(5)
H24 H 0.2479 0.4173 0.2630
C29 C 0.24489(9) 0.42843(9) 0.23054(5)
H25 H 0.2620 0.4559 0.2313
C30 C 0.22798(9) 0.41034(9) 0.21006(5)
H26 H 0.2347 0.4256 0.1971
C31 C 0.20133(8) 0.36989(8) 0.20922(5)
C32 C 0.19331(8) 0.34728(8) 0.22864(4)
H27 H 0.1764 0.3198 0.2279
C33 C 0.18305(9) 0.34978(10) 0.18755(5)
C34 C 0.17085(10) 0.12994(8) 0.34342(5)
C35 C 0.14841(6) 0.13367(6) 0.36261(3)
C36 C 0.10783(6) 0.12062(6) 0.36100(3)
H28 H 0.0939 0.1080 0.3480
C37 C 0.08804(4) 0.12635(6) 0.37875(3)
H29 H 0.0609 0.1176 0.3777
C38 C 0.10883(6) 0.14514(6) 0.39812(3)
H30 H 0.0956 0.1490 0.4100
C39 C 0.14941(6) 0.15819(5) 0.39973(3)
C40 C 0.16920(4) 0.15246(5) 0.38197(3)
H31 H 0.1963 0.1612 0.3830
C41 C 0.20834(9) 0.19668(9) 0.41937(5)
H32 H 0.2182 0.2115 0.4055
H33 H 0.2184 0.1783 0.4206
C42 C 0.22275(8) 0.22549(9) 0.43921(5)
C43 C 0.22240(9) 0.26084(9) 0.43792(5)
C44 C 0.24136(8) 0.28945(8) 0.45523(5)
C45 C 0.26073(8) 0.28217(9) 0.47205(5)
C46 C 0.25912(8) 0.24531(9) 0.47404(5)
C47 C 0.23809(9) 0.21552(9) 0.45841(5)
C48 C 0.23321(9) 0.17443(8) 0.46059(5)
H34 H 0.2084 0.1551 0.4539
H35 H 0.2332 0.1682 0.4761
H36 H 0.2549 0.1739 0.4531
C49 C 0.20505(9) 0.27063(9) 0.41906(5)
H37 H 0.2260 0.2887 0.4092
H38 H 0.1904 0.2830 0.4244
H39 H 0.1873 0.2466 0.4111
C50 C 0.28494(9) 0.31570(8) 0.48889(4)
H40 H 0.3023 0.3399 0.4810
H41 H 0.3006 0.3083 0.4981
H42 H 0.2670 0.3198 0.4981
C51 C 0.24209(8) 0.32833(8) 0.45386(5)
H43 H 0.2213 0.3263 0.4440
H44 H 0.2384 0.3368 0.4685
C52 C 0.29389(6) 0.39519(4) 0.44724(3)
C53 C 0.33438(6) 0.42118(6) 0.44366(3)
H45 H 0.3514 0.4111 0.4409
C54 C 0.34952(4) 0.46223(6) 0.44424(3)
H46 H 0.3766 0.4796 0.4418
C55 C 0.32416(6) 0.47729(4) 0.44839(3)
H47 H 0.3343 0.5048 0.4488
C56 C 0.28366(6) 0.45131(6) 0.45196(3)
C57 C 0.26852(4) 0.41026(5) 0.45138(3)
H48 H 0.2414 0.3929 0.4538
C58 C 0.25761(9) 0.46730(10) 0.45607(5)
C59 C 0.28493(9) 0.24152(9) 0.49129(5)
H49 H 0.2845 0.2165 0.4891
H50 H 0.3122 0.2630 0.4893
C60 C 0.30198(5) 0.25719(5) 0.52925(3)
C61 C 0.29184(5) 0.26797(6) 0.54931(4)
H51 H 0.2667 0.2652 0.5511
C62 C 0.31930(7) 0.28287(6) 0.56671(3)
H52 H 0.3125 0.2901 0.5801
C63 C 0.35691(6) 0.28697(5) 0.56406(3)
H53 H 0.3753 0.2969 0.5757
C64 C 0.36705(5) 0.27619(5) 0.54400(3)
C65 C 0.33959(6) 0.26129(5) 0.52660(2)
H54 H 0.3464 0.2541 0.5132
C66 C 0.40685(9) 0.27991(8) 0.54130(6)
Mn1 Mn 0.343017(13) 0.164502(12) 0.360981(7)
Mn2 Mn 0.255272(12) 0.139980(12) 0.328482(6)
Mn3 Mn 0.185670(13) 0.139944(13) 0.292484(7)
O1 O 0.33681(6) 0.21141(6) 0.38050(3)
O2 O 0.29018(6) 0.18155(6) 0.35647(3)
O3 O 0.23277(6) 0.27502(5) 0.35037(3)
O4 O 0.20306(5) 0.34488(5) 0.26826(3)
O5 O 0.15873(6) 0.31303(6) 0.18854(3)
O6 O 0.19296(5) 0.37026(6) 0.17037(3)
O7 O 0.06431(5) 0.25511(5) 0.33659(3)
O8 O -0.08334(5) 0.16536(6) 0.34100(3)
O9 O -0.10375(6) 0.20384(6) 0.35650(3)
O10 O 0.20188(6) 0.13110(6) 0.34750(3)
O11 O 0.15533(6) 0.12555(6) 0.32491(3)
O12 O 0.16623(6) 0.17539(6) 0.41935(3)
O13 O 0.28201(6) 0.35645(6) 0.44490(3)
O14 O 0.22228(6) 0.44321(6) 0.46240(3)
O15 O 0.26738(6) 0.50275(6) 0.45256(3)
O16 O 0.27271(6) 0.24279(5) 0.51330(3)
O17 O 0.41716(5) 0.27428(5) 0.52263(3)
O18 O 0.42934(6) 0.28863(5) 0.55833(3)
O19 O 0.3968(14) 0.1699(14) 0.3713(7)
O20 O 0.1448(8) 0.1472(10) 0.2756(5)
Mn1A Mn -0.164502(12) 0.178515(18) 0.360981(7)
Mn1C Mn 0.164502(12) 0.343017(13) 0.139019(7)
Mn2A Mn -0.139980(12) 0.115292(17) 0.328482(6)
Mn2C Mn 0.139980(12) 0.255272(12) 0.171518(6)
Mn2K Mn 0.411395(12) 0.218041(17) 0.504851(6)
Mn2AA Mn 0.193353(12) 0.411395(12) 0.495149(6)
Mn3K Mn 0.480997(13) 0.287607(18) 0.540849(7)
Mn3AA Mn 0.193389(13) 0.480997(13) 0.459151(7)
O5C O 0.31303(6) 0.15873(6) 0.31146(3)
O6C O 0.37026(6) 0.19296(5) 0.32963(3)
O8B O 0.24870(8) 0.08334(5) 0.34100(3)
O9B O 0.30759(8) 0.10375(6) 0.35650(3)
O14GA O 0.22346(6) 0.11105(6) 0.29573(3)
O17K O 0.24951(5) 0.19045(7) 0.31070(3)
O18K O 0.23733(6) 0.19262(8) 0.27500(3)
loop_
_geom_bond_atom_site_label_1
_geom_bond_atom_site_label_2
_geom_bond_site_symmetry_1
_geom_bond_site_symmetry_2
C1 C2 1_555 1_555
C2 C3 1_555 1_555
C3 H1 1_555 1_555
C4 C3 1_555 1_555
H2 C4 1_555 1_555
C5 C4 1_555 1_555
H3 C5 1_555 1_555
C6 C5 1_555 1_555
C7 C2 1_555 1_555
H4 C7 1_555 1_555
C8 H5 1_555 1_555
H6 C8 1_555 1_555
C9 C8 1_555 1_555
C10 C9 1_555 1_555
C11 C10 1_555 1_555
C12 C11 1_555 1_555
C13 C12 1_555 1_555
C14 C9 1_555 1_555
C15 C14 1_555 1_555
H7 C15 1_555 1_555
H8 C15 1_555 1_555
H9 C15 1_555 1_555
C16 C10 1_555 1_555
H10 C16 1_555 1_555
H11 C16 1_555 1_555
H12 C16 1_555 1_555
C17 C12 1_555 1_555
H13 C17 1_555 1_555
H14 C17 1_555 1_555
H15 C17 1_555 1_555
C18 C11 1_555 1_555
H16 C18 1_555 1_555
H17 C18 1_555 1_555
C19 C20 1_555 1_555
C20 H18 1_555 1_555
C21 C20 1_555 1_555
H19 C21 1_555 1_555
C22 C21 1_555 1_555
H20 C22 1_555 1_555
C23 C22 1_555 1_555
C24 C19 1_555 1_555
H21 C24 1_555 1_555
C25 C23 1_555 1_555
C26 C13 1_555 1_555
H22 C26 1_555 1_555
H23 C26 1_555 1_555
C27 C28 1_555 1_555
C28 H24 1_555 1_555
C29 C28 1_555 1_555
H25 C29 1_555 1_555
C30 C29 1_555 1_555
H26 C30 1_555 1_555
C31 C30 1_555 1_555
C32 C27 1_555 1_555
H27 C32 1_555 1_555
C33 C31 1_555 1_555
C34 C35 1_555 1_555
C35 C36 1_555 1_555
C36 H28 1_555 1_555
C37 C36 1_555 1_555
H29 C37 1_555 1_555
C38 C37 1_555 1_555
H30 C38 1_555 1_555
C39 C38 1_555 1_555
C40 C35 1_555 1_555
H31 C40 1_555 1_555
C41 H32 1_555 1_555
H33 C41 1_555 1_555
C42 C41 1_555 1_555
C43 C42 1_555 1_555
C44 C43 1_555 1_555
C45 C44 1_555 1_555
C46 C45 1_555 1_555
C47 C42 1_555 1_555
C48 C47 1_555 1_555
H34 C48 1_555 1_555
H35 C48 1_555 1_555
H36 C48 1_555 1_555
C49 C43 1_555 1_555
H37 C49 1_555 1_555
H38 C49 1_555 1_555
H39 C49 1_555 1_555
C50 C45 1_555 1_555
H40 C50 1_555 1_555
H41 C50 1_555 1_555
H42 C50 1_555 1_555
C51 C44 1_555 1_555
H43 C51 1_555 1_555
H44 C51 1_555 1_555
C52 C53 1_555 1_555
C53 H45 1_555 1_555
C54 C53 1_555 1_555
H46 C54 1_555 1_555
C55 C54 1_555 1_555
H47 C55 1_555 1_555
C56 C55 1_555 1_555
C57 C52 1_555 1_555
H48 C57 1_555 1_555
C58 C56 1_555 1_555
C59 C46 1_555 1_555
H49 C59 1_555 1_555
H50 C59 1_555 1_555
C60 C61 1_555 1_555
C61 H51 1_555 1_555
C62 C61 1_555 1_555
H52 C62 1_555 1_555
C63 C62 1_555 1_555
H53 C63 1_555 1_555
C64 C63 1_555 1_555
C65 C60 1_555 1_555
H54 C65 1_555 1_555
C66 C64 1_555 1_555
Mn1 O1 1_555 1_555
Mn2 O2 1_555 1_555
Mn3 O11 1_555 1_555
O1 C1 1_555 1_555
O2 C1 1_555 1_555
O3 C6 1_555 1_555
O4 C26 1_555 1_555
O5 C33 1_555 1_555
O6 C33 1_555 1_555
O7 C18 1_555 1_555
O8 C25 1_555 1_555
O9 C25 1_555 1_555
O10 C34 1_555 1_555
O11 C34 1_555 1_555
O12 C39 1_555 1_555
O13 C51 1_555 1_555
O14 C58 1_555 1_555
O15 C58 1_555 1_555
O16 C59 1_555 1_555
O17 C66 1_555 1_555
O18 C66 1_555 1_555
O19 Mn1 1_555 1_555
O20 Mn3 1_555 1_555
Mn1A O9 1_555 1_555
Mn1C O6 1_555 1_555
Mn2A O8 1_555 1_555
Mn2C O5 1_555 1_555
Mn2K O17 1_555 1_555
Mn2AA O14 1_555 1_555
Mn3K O18 1_555 1_555
Mn3AA O14 1_555 1_555
O5C Mn2 1_555 1_555
O6C Mn1 1_555 1_555
O8B Mn2 1_555 1_555
O9B Mn1 1_555 1_555
O14GA Mn2 1_555 1_555
O17K Mn2 1_555 1_555
O18K Mn3 1_555 1_555
C6 C7 1_555 1_555
C8 O3 1_555 1_555
C13 C14 1_555 1_555
C19 O7 1_555 1_555
C23 C24 1_555 1_555
C27 O4 1_555 1_555
C31 C32 1_555 1_555
C39 C40 1_555 1_555
C41 O12 1_555 1_555
C46 C47 1_555 1_555
C52 O13 1_555 1_555
C56 C57 1_555 1_555
C60 O16 1_555 1_555
C64 C65 1_555 1_555
Mn1 O2 1_555 1_555
Mn2 O10 1_555 1_555
Mn3 O14GA 1_555 1_555

#END
