
#######################################################################
#
#                 Cambridge Crystallographic Data Centre
#                                CCDC 
#
#######################################################################
#
# If this CIF has been generated from an entry in the Cambridge 
# Structural Database, then it will include bibliographic, chemical, 
# crystal, experimental, refinement or atomic coordinate data resulting 
# from the CCDC's data processing and validation procedures.
#
#######################################################################

data_GACQAE
_chemical_formula_moiety         'C21 H13 N1 O13 Zn7'
_symmetry_cell_setting           orthorhombic
_symmetry_space_group_name_H-M   'P 21 21 21'
_symmetry_Int_Tables_number      19
_space_group_name_Hall           'P 2ac 2ab'
loop_
_symmetry_equiv_pos_site_id
_symmetry_equiv_pos_as_xyz
1 x,y,z
2 1/2-x,-y,1/2+z
3 -x,1/2+y,1/2-z
4 1/2+x,1/2-y,-z
_cell_length_a                   10.2398(3)
_cell_length_b                   15.4892(6)
_cell_length_c                   23.7128(8)
_cell_angle_alpha                90
_cell_angle_beta                 90
_cell_angle_gamma                90
_cell_volume                     3761
loop_
_atom_site_label
_atom_site_type_symbol
_atom_site_fract_x
_atom_site_fract_y
_atom_site_fract_z
Zn1 Zn 0.38558(3) 0.69114(3) -0.012103(19)
Zn2 Zn 0.56873(4) 0.87968(3) 0.00785(2)
O1 O 0.6374(3) 0.9146(2) 0.08183(13)
O2 O 0.8375(3) 0.8575(3) 0.08674(13)
O3 O 0.8389(3) 1.0815(3) 0.43942(14)
O4 O 0.6238(3) 1.1069(2) 0.44861(12)
O5 O 0.4107(2) 0.81100(18) 0.01410(12)
O6 O 0.1885(2) 0.73278(16) -0.00183(12)
O7 O 0.0712(3) 0.8394(2) 0.03316(13)
C1 C 0.7411(4) 0.8952(3) 0.10687(19)
C2 C 0.7546(4) 0.9251(4) 0.1675(2)
C3 C 0.8770(4) 0.9206(4) 0.1933(2)
H1 H 0.9494 0.8976 0.1733
C4 C 0.8925(4) 0.9496(4) 0.2475(2)
H2 H 0.9769 0.9483 0.2641
C5 C 0.7888(4) 0.9806(4) 0.2786(2)
C6 C 0.6617(4) 0.9835(4) 0.2535(2)
C7 C 0.6493(4) 0.9548(4) 0.1971(2)
H3 H 0.5661 0.9562 0.1794
C8 C 0.8007(4) 1.0103(4) 0.3342(2)
H4 H 0.8836 1.0064 0.3521
C9 C 0.6990(4) 1.0447(4) 0.36398(18)
C10 C 0.5748(5) 1.0445(4) 0.3382(2)
H5 H 0.5019 1.0661 0.3585
C11 C 0.5571(5) 1.0144(4) 0.2855(2)
H6 H 0.4718 1.0141 0.2698
C12 C 0.7226(5) 1.0815(4) 0.42243(18)
C13 C 0.1760(3) 0.8032(3) 0.02299(16)
C14 C 0.3003(4) 0.8507(3) 0.04031(19)
H7 H 0.2943 0.9122 0.0278
C15 C 0.3100(5) 0.8475(4) 0.1060(2)
C16 C 0.3841(5) 0.7864(4) 0.1334(2)
H8 H 0.4301 0.7445 0.1118
C17 C 0.3931(6) 0.7844(5) 0.1913(2)
H9 H 0.4450 0.7425 0.2101
C18 C 0.3220(7) 0.8474(5) 0.2217(3)
H10 H 0.3211 0.8446 0.2617
C19 C 0.2584(6) 0.9083(5) 0.1972(2)
H11 H 0.2174 0.9524 0.2187
C20 C 0.2504(5) 0.9086(4) 0.1373(2)
H12 H 0.2020 0.9528 0.1190
O8 O 0.4671(3) 0.9973(2) 0.0038(2)
C21 C 0.4718(13) 1.0502(8) -0.0366(7)
H13 H 0.5617 1.0563 -0.0457
N1 N 0.4079(11) 1.1016(7) -0.0726(5)
Zn1B Zn 0.61442(3) 1.19114(3) 0.512103(19)
Zn1C Zn -0.11442(3) 0.80886(3) 0.012103(19)
Zn1C_2 Zn 0.88558(3) 0.80886(3) 0.012103(19)
Zn2A Zn 0.93127(4) 1.12032(3) 0.50785(2)
Zn2C Zn 0.06873(4) 0.62032(3) -0.00785(2)
O2C O 0.3375(3) 0.6425(3) -0.08674(13)
O3A O 0.6611(3) 0.9185(3) -0.06058(14)
O4B O 0.3762(3) 0.6069(2) 0.05139(12)
O6C O 0.6885(2) 0.76722(16) 0.00183(12)
O7C O 0.5712(3) 0.6606(2) -0.03316(13)
loop_
_geom_bond_atom_site_label_1
_geom_bond_atom_site_label_2
_geom_bond_site_symmetry_1
_geom_bond_site_symmetry_2
Zn1 O5 1_555 1_555
Zn2 O1 1_555 1_555
O1 C1 1_555 1_555
O2 C1 1_555 1_555
O3 C12 1_555 1_555
O4 C12 1_555 1_555
O5 Zn2 1_555 1_555
O6 Zn1 1_555 1_555
O7 C13 1_555 1_555
C1 C2 1_555 1_555
C2 C3 1_555 1_555
C3 H1 1_555 1_555
C4 C3 1_555 1_555
H2 C4 1_555 1_555
C5 C4 1_555 1_555
C6 C5 1_555 1_555
C7 C2 1_555 1_555
H3 C7 1_555 1_555
C8 C5 1_555 1_555
H4 C8 1_555 1_555
C9 C8 1_555 1_555
C10 C9 1_555 1_555
H5 C10 1_555 1_555
C11 C6 1_555 1_555
H6 C11 1_555 1_555
C12 C9 1_555 1_555
C13 O6 1_555 1_555
C14 O5 1_555 1_555
H7 C14 1_555 1_555
C15 C14 1_555 1_555
C16 C15 1_555 1_555
H8 C16 1_555 1_555
C17 C16 1_555 1_555
H9 C17 1_555 1_555
C18 C17 1_555 1_555
H10 C18 1_555 1_555
C19 C18 1_555 1_555
H11 C19 1_555 1_555
C20 C15 1_555 1_555
H12 C20 1_555 1_555
O8 Zn2 1_555 1_555
C21 O8 1_555 1_555
H13 C21 1_555 1_555
N1 C21 1_555 1_555
Zn1B O4 1_555 1_555
Zn1C O7 1_555 1_555
Zn1C_2 O2 1_555 1_555
Zn2A O3 1_555 1_555
Zn2C O6 1_555 1_555
O2C Zn1 1_555 1_555
O3A Zn2 1_555 1_555
O4B Zn1 1_555 1_555
O6C Zn2 1_555 1_555
O7C Zn1 1_555 1_555
C6 C7 1_555 1_555
C10 C11 1_555 1_555
C13 C14 1_555 1_555
C19 C20 1_555 1_555
Zn1C_2 O6C 1_555 1_555

#END
