
#######################################################################
#
#                 Cambridge Crystallographic Data Centre
#                                CCDC 
#
#######################################################################
#
# If this CIF has been generated from an entry in the Cambridge 
# Structural Database, then it will include bibliographic, chemical, 
# crystal, experimental, refinement or atomic coordinate data resulting 
# from the CCDC's data processing and validation procedures.
#
#######################################################################

data_JOVWOI
_chemical_formula_moiety         '(C16 H50 Al5 Fe2 N8 O33 P8 4+)n'
_symmetry_cell_setting           triclinic
_symmetry_space_group_name_H-M   'P -1'
_symmetry_Int_Tables_number      2
_space_group_name_Hall           '-P 1'
loop_
_symmetry_equiv_pos_site_id
_symmetry_equiv_pos_as_xyz
1 x,y,z
2 -x,-y,-z
_cell_length_a                   9.057(2)
_cell_length_b                   12.606(3)
_cell_length_c                   14.623(4)
_cell_angle_alpha                89.547(4)
_cell_angle_beta                 86.530(4)
_cell_angle_gamma                72.512(4)
_cell_volume                     1589.37
loop_
_atom_site_label
_atom_site_type_symbol
_atom_site_fract_x
_atom_site_fract_y
_atom_site_fract_z
Fe1 Fe 0.18119(14) 0.06253(11) 0.23973(8)
Fe2 Fe 0.03642(16) 0.80503(13) 0.39430(10)
Al1 Al 0.0465(2) 0.36635(18) 0.11213(13)
Al2 Al 0.0589(2) -0.1469(2) 0.12075(14)
Al3 Al -0.3106(2) 0.19076(19) 0.25222(14)
Al4 Al 0.0626(2) 0.37223(18) 0.36106(13)
Al5 Al -0.3195(3) 0.6862(2) 0.26290(15)
P1 P 0.3288(2) 0.23759(17) 0.21860(12)
P2 P -0.2327(2) -0.07424(18) 0.27050(13)
P3 P -0.1382(2) 0.61968(18) 0.43349(13)
P4 P -0.2137(2) 0.42220(19) 0.21626(13)
P5 P 0.3185(2) -0.19423(18) 0.25652(13)
P6 P -0.0392(2) 0.63374(18) 0.10442(13)
P7 P -0.0377(2) 0.13032(18) 0.09852(13)
P8 P -0.0827(2) 0.1707(2) 0.40200(13)
O1 O 0.2528(6) 0.3197(5) 0.1438(3)
O2 O -0.0423(5) 0.3891(5) 0.2457(3)
O3 O -0.2841(6) 0.6757(5) 0.3822(3)
O4 O -0.0522(6) 0.2825(5) 0.4048(4)
O5 O 0.0605(6) 0.5132(5) 0.1232(4)
O6 O -0.2016(6) 0.1507(5) 0.1435(4)
O7 O 0.2228(6) 0.2583(5) 0.3062(3)
O8 O 0.1642(6) 0.4833(5) 0.3034(4)
O9 O -0.0923(6) 0.4954(5) 0.4139(4)
O10 O 0.0710(6) 0.0179(5) 0.1339(3)
O11 O 0.2476(6) -0.1816(5) 0.1640(4)
O12 O 0.0357(6) 0.2178(5) 0.1260(4)
O13 O -0.3122(6) 0.5335(5) 0.2544(4)
O14 O -0.1000(7) 0.6433(5) 0.0092(4)
O15 O -0.1788(6) 0.6446(5) 0.5356(3)
O16 O -0.1800(6) 0.4219(5) 0.1108(3)
O17 O -0.2937(6) 0.3377(5) 0.2468(4)
O18 O -0.3313(6) 0.0454(5) 0.2677(4)
O19 O -0.0049(6) 0.6649(5) 0.3980(4)
O20 O -0.3388(6) -0.1486(5) 0.2660(4)
O21 O 0.4866(6) 0.2510(5) 0.2336(4)
O22 O -0.0465(7) 0.1206(5) -0.0041(4)
O23 O 0.3490(7) 0.1174(5) 0.1875(4)
O24 O 0.0646(7) 0.7081(5) 0.1148(4)
O25 O -0.1170(7) -0.1010(5) 0.1884(4)
O26 O -0.1507(8) -0.0956(6) 0.3600(4)
O27 O -0.1787(6) 0.6699(5) 0.1721(4)
O28 O -0.2463(7) 0.1855(6) 0.3702(4)
O29 O 0.4814(6) -0.2759(5) 0.2437(4)
O30 O -0.0805(8) 0.1263(7) 0.5011(4)
O31 O 0.0385(9) 0.0857(6) 0.3425(5)
O32 O 0.2222(8) -0.2414(6) 0.3247(5)
O33 O 0.3203(8) -0.0812(6) 0.2883(5)
Fe2_2 Fe 0.03642(16) -0.19497(13) 0.39430(10)
Fe2A Fe -0.03642(16) 0.19497(13) 0.60570(10)
Al1A Al -0.0465(2) 0.63365(18) -0.11213(13)
Al2_2 Al 0.0589(2) 0.8531(2) 0.12075(14)
Al2A Al -0.0589(2) 0.1469(2) -0.12075(14)
Al3_2 Al 0.6894(2) 0.19076(19) 0.25222(14)
Al4A Al -0.0626(2) 0.62777(18) 0.63894(13)
Al5_2 Al -0.3195(3) -0.3138(2) 0.26290(15)
Al5_3 Al 0.6805(3) -0.3138(2) 0.26290(15)
O14A O 0.1000(7) 0.3567(5) -0.0092(4)
O15A O 0.1788(6) 0.3554(5) 0.4644(3)
O20_2 O -0.3388(6) 0.8514(5) 0.2660(4)
O21_2 O -0.5134(6) 0.2510(5) 0.2336(4)
O22A O 0.0465(7) -0.1206(5) 0.0041(4)
O24_2 O 0.0646(7) -0.2919(5) 0.1148(4)
O26_2 O -0.1507(8) 0.9044(6) 0.3600(4)
O29_2 O -0.5186(6) 0.7241(5) 0.2437(4)
O30A O 0.0805(8) 0.8737(7) 0.4989(4)
O32_2 O 0.2222(8) 0.7586(6) 0.3247(5)
C1 C 0.6299(8) 0.5394(7) 0.9765(5)
C2 C 0.5864(10) 0.4627(8) 0.9127(6)
N1 N 0.4920(10) 0.6109(8) 1.0301(7)
C1A C 0.3701(8) 0.4606(7) 1.0235(5)
C2A C 0.4136(10) 0.5373(8) 1.0873(6)
N1A N 0.5080(10) 0.3891(8) 0.9699(7)
N2 N 0.5946(9) 0.0134(7) 0.0716(5)
C3 C 0.5960(13) -0.1006(9) 0.0411(7)
C4 C 0.5552(14) 0.0952(9) -0.0034(7)
N2A N 0.4054(9) -0.0134(7) -0.0716(5)
C3A C 0.4040(13) 0.1006(9) -0.0411(7)
C4A C 0.4448(14) -0.0952(9) 0.0034(7)
N3 N 0.6144(9) 0.4406(7) 0.4310(5)
C5 C 0.6362(11) 0.4201(9) 0.5326(6)
C6 C 0.4515(9) 0.4759(9) 0.4119(6)
N3A N 0.3856(9) 0.5594(7) 0.5690(5)
C5A C 0.3638(11) 0.5799(9) 0.4674(6)
C6A C 0.5485(9) 0.5241(9) 0.5881(6)
C7 C 0.3932(12) 0.0789(9) 0.4449(7)
N4 N 0.3534(9) -0.0208(7) 0.4837(6)
C8 C 0.4997(12) 0.1144(8) 0.5066(7)
C7A C 0.6068(12) -0.0789(9) 0.5551(7)
N4A N 0.6466(9) 0.0208(7) 0.5163(6)
C8A C 0.5003(12) -0.1144(8) 0.4934(7)
loop_
_geom_bond_atom_site_label_1
_geom_bond_atom_site_label_2
_geom_bond_site_symmetry_1
_geom_bond_site_symmetry_2
Fe1 O10 1_555 1_555
Fe2 O19 1_555 1_555
Al1 O1 1_555 1_555
Al2 O10 1_555 1_555
Al3 O6 1_555 1_555
Al4 O2 1_555 1_555
Al5 O3 1_555 1_555
P1 O1 1_555 1_555
P2 O18 1_555 1_555
P3 O3 1_555 1_555
P4 O2 1_555 1_555
P5 O11 1_555 1_555
P6 O5 1_555 1_555
P7 O6 1_555 1_555
P8 O4 1_555 1_555
O2 Al1 1_555 1_555
O4 Al4 1_555 1_555
O5 Al1 1_555 1_555
O7 Al4 1_555 1_555
O8 Al4 1_555 1_555
O9 Al4 1_555 1_555
O10 P7 1_555 1_555
O11 Al2 1_555 1_555
O12 Al1 1_555 1_555
O13 Al5 1_555 1_555
O14 P6 1_555 1_555
O15 P3 1_555 1_555
O16 Al1 1_555 1_555
O17 Al3 1_555 1_555
O18 Al3 1_555 1_555
O19 P3 1_555 1_555
O20 P2 1_555 1_555
O21 P1 1_555 1_555
O22 P7 1_555 1_555
O23 Fe1 1_555 1_555
O24 P6 1_555 1_555
O25 Al2 1_555 1_555
O26 P2 1_555 1_555
O27 Al5 1_555 1_555
O28 Al3 1_555 1_555
O29 P5 1_555 1_555
O30 P8 1_555 1_555
O31 Fe1 1_555 1_555
O32 P5 1_555 1_555
O33 Fe1 1_555 1_555
C1 C2 1_555 1_555
C2 N1A 1_555 1_555
N1 C1 1_555 1_555
N2 C3 1_555 1_555
C3 C4A 1_555 1_555
C4 N2 1_555 1_555
N3 C5 1_555 1_555
C5 C6A 1_555 1_555
C6 N3 1_555 1_555
C7 N4 1_555 1_555
N4 C8A 1_555 1_555
C8 C7 1_555 1_555
Fe2_2 O26 1_555 1_555
Fe2A O30 1_555 1_555
Al1A O14 1_555 1_555
Al2_2 O24 1_555 1_555
Al2A O22 1_555 1_555
Al3_2 O21 1_555 1_555
Al4A O15 1_555 1_555
Al5_2 O20 1_555 1_555
Al5_3 O29 1_555 1_555
O14A Al1 1_555 1_555
O15A Al4 1_555 1_555
O20_2 Al5 1_555 1_555
O21_2 Al3 1_555 1_555
O22A Al2 1_555 1_555
O24_2 Al2 1_555 1_555
O26_2 Fe2 1_555 1_555
O29_2 Al5 1_555 1_555
O30A Fe2 1_555 1_555
O32_2 Fe2 1_555 1_555
C1A C2A 1_555 1_555
C2A N1 1_555 1_555
N1A C1A 1_555 1_555
N2A C3A 1_555 1_555
C3A C4 1_555 1_555
C4A N2A 1_555 1_555
N3A C5A 1_555 1_555
C5A C6 1_555 1_555
C6A N3A 1_555 1_555
C7A N4A 1_555 1_555
N4A C8 1_555 1_555
C8A C7A 1_555 1_555
P1 O7 1_555 1_555
P1 O23 1_555 1_555
P2 O25 1_555 1_555
P3 O9 1_555 1_555
P4 O13 1_555 1_555
P4 O16 1_555 1_555
P4 O17 1_555 1_555
P5 O33 1_555 1_555
P6 O27 1_555 1_555
P7 O12 1_555 1_555
P8 O28 1_555 1_555
P8 O31 1_555 1_555
O32 Fe2_2 1_555 1_555

#END
