
#######################################################################
#
#                 Cambridge Crystallographic Data Centre
#                                CCDC 
#
#######################################################################
#
# If this CIF has been generated from an entry in the Cambridge 
# Structural Database, then it will include bibliographic, chemical, 
# crystal, experimental, refinement or atomic coordinate data resulting 
# from the CCDC's data processing and validation procedures.
#
#######################################################################

data_OXITOF
_chemical_formula_moiety         '(C34 H40 Co4 O32)n'
_symmetry_cell_setting           triclinic
_symmetry_space_group_name_H-M   'P -1'
_symmetry_Int_Tables_number      2
_space_group_name_Hall           '-P 1'
loop_
_symmetry_equiv_pos_site_id
_symmetry_equiv_pos_as_xyz
1 x,y,z
2 -x,-y,-z
_cell_length_a                   7.331(8)
_cell_length_b                   11.901(15)
_cell_length_c                   15.838(18)
_cell_angle_alpha                103.50(6)
_cell_angle_beta                 100.46(5)
_cell_angle_gamma                104.75(4)
_cell_volume                     1255.95
loop_
_atom_site_label
_atom_site_type_symbol
_atom_site_fract_x
_atom_site_fract_y
_atom_site_fract_z
Co1 Co -0.5000 0.0000 -0.5000
Co2 Co -1.02743(12) -0.95281(8) -0.33490(6)
Co3 Co 0.0000 0.0000 0.0000
O1 O -0.4831(6) -0.1342(4) -0.4390(3)
O2 O -1.1219(6) -0.7936(4) -0.2706(3)
O4 O -0.2550(6) -0.0678(4) -0.3062(3)
O5 O -1.2202(6) -0.8857(3) -0.4167(3)
O7 O -0.2487(7) -0.0845(5) -0.1102(3)
O8 O -1.6237(6) -0.9287(4) -0.3987(3)
O10 O -0.1677(7) -0.2353(4) -0.1959(3)
O11 O -1.7919(6) -0.8123(4) -0.3377(3)
O13 O -1.1650(6) -0.3224(4) -0.4295(3)
O16 O -0.0826(15) -0.1267(8) 0.0639(5)
H13 H -0.0010 -0.1544 0.0404
H14 H -0.1711 -0.2257 0.0298
O17 O -0.1487(9) 0.1101(8) 0.0670(6)
O18 O -0.8468(8) -0.9900(6) -0.2344(4)
H15 H -0.8170 -0.9143 -0.2044
H16 H -0.9106 -1.0133 -0.2098
O19 O -1.0199(6) -1.0896(4) -0.4418(3)
H17 H -0.8999 -1.0320 -0.4401
H18 H -1.0371 -1.1568 -0.4279
C1 C -0.8898(8) -0.3358(6) -0.3326(4)
C2 C -1.2354(9) -0.4942(5) -0.3744(4)
C3 C -0.7520(8) -0.2666(5) -0.3669(4)
H19 H -0.7928 -0.2564 -0.4229
C4 C -1.1708(8) -0.5915(5) -0.3612(4)
H20 H -1.0387 -0.5838 -0.3525
C5 C -0.5555(9) -0.2125(5) -0.3195(4)
C6 C -1.3013(8) -0.7002(5) -0.3608(4)
C7 C -0.4930(9) -0.2298(5) -0.2350(4)
C8 C -1.5013(9) -0.7108(6) -0.3699(4)
C9 C -0.6303(9) -0.2988(6) -0.1996(4)
H21 H -0.5895 -0.3095 -0.1437
C10 C -1.5646(9) -0.6115(5) -0.3815(4)
H22 H -1.6951 -0.6170 -0.3865
C11 C -0.8259(9) -0.3511(5) -0.2473(4)
H23 H -0.9145 -0.3960 -0.2230
C12 C -1.4359(9) -0.5055(6) -0.3857(4)
H24 H -1.4816 -0.4425 -0.3958
C13 C -0.4196(8) -0.1328(5) -0.3586(4)
C14 C -1.2147(8) -0.8000(5) -0.3477(4)
C15 C -0.2852(9) -0.1789(6) -0.1783(4)
C16 C -1.6501(8) -0.8262(5) -0.3699(4)
C17 C -1.0999(8) -0.3791(6) -0.3819(4)
Co1_2 Co -1.5000 -1.0000 -0.5000
Co1_3 Co 0.5000 1.0000 -0.5000
Co2A Co 0.02743(12) 0.95281(8) -0.66510(6)
Co2_2 Co -0.02743(12) 0.04719(8) -0.33490(6)
Co2_3 Co -2.02743(12) -0.95281(8) -0.33490(6)
Co2A_2 Co -0.97257(12) -0.04719(8) -0.66510(6)
Co2A_3 Co 1.02743(12) 0.95281(8) -0.66510(6)
Co3_2 Co -1.0000 0.0000 -1.0000
O1A O -0.5169(6) 0.1342(4) -0.5610(3)
O2A O 0.1219(6) 0.7936(4) -0.7294(3)
O4A O -0.7450(6) 0.0678(4) -0.6938(3)
O4_2 O -1.2550(6) -1.0678(4) -0.3062(3)
O4A_2 O 0.2550(6) 1.0678(4) -0.6938(3)
O5A O 0.2202(6) 0.8857(3) -0.5833(3)
O5_2 O -0.2202(6) 0.1143(3) -0.4167(3)
O5A_2 O -0.7798(6) -0.1143(3) -0.5833(3)
O7A O -0.7513(7) 0.0845(5) -0.8898(3)
O7A_2 O 0.2487(7) 0.0845(5) 0.1102(3)
O8A O 0.6237(6) 0.9287(4) -0.6013(3)
O8_2 O -0.6237(6) 0.0713(4) -0.3987(3)
O8A_2 O -0.3763(6) -0.0713(4) -0.6013(3)
O10A O -0.8323(7) 0.2353(4) -0.8041(3)
O11A O 0.7919(6) 0.8123(4) -0.6623(3)
O11_2 O -0.7919(6) -0.8123(4) -0.3377(3)
O11A_2 O -0.2081(6) 0.8123(4) -0.6623(3)
O13A O 0.1650(6) 0.3224(4) -0.5705(3)
O16A O 0.0826(15) 0.1267(8) -0.0639(5)
H13A H 0.0010 0.1544 -0.0404
H14A H 0.1711 0.2257 -0.0298
O17A O 0.1487(9) -0.1101(8) -0.0670(6)
O18A O -0.1532(8) 0.9900(6) -0.7656(4)
H15A H -0.1830 0.9143 -0.7956
H16A H -0.0894 1.0133 -0.7902
O19A O 0.0199(6) 1.0896(4) -0.5582(3)
H17A H -0.1001 1.0320 -0.5599
H18A H 0.0371 1.1568 -0.5721
C1A C -0.1102(8) 0.3358(6) -0.6674(4)
C2A C 0.2354(9) 0.4942(5) -0.6256(4)
C3A C -0.2480(8) 0.2666(5) -0.6331(4)
H19A H -0.2072 0.2564 -0.5771
C4A C 0.1708(8) 0.5915(5) -0.6388(4)
H20A H 0.0387 0.5838 -0.6475
C5A C -0.4445(9) 0.2125(5) -0.6805(4)
C6A C 0.3013(8) 0.7002(5) -0.6392(4)
C7A C -0.5070(9) 0.2298(5) -0.7650(4)
C8A C 0.5013(9) 0.7108(6) -0.6301(4)
C9A C -0.3697(9) 0.2988(6) -0.8004(4)
H21A H -0.4105 0.3095 -0.8563
C10A C 0.5646(9) 0.6115(5) -0.6185(4)
H22A H 0.6951 0.6170 -0.6135
C11A C -0.1741(9) 0.3511(5) -0.7527(4)
H23A H -0.0855 0.3960 -0.7770
C12A C 0.4359(9) 0.5055(6) -0.6143(4)
H24A H 0.4816 0.4425 -0.6042
C13A C -0.5804(8) 0.1328(5) -0.6414(4)
C14A C 0.2147(8) 0.8000(5) -0.6523(4)
C15A C -0.7148(9) 0.1789(6) -0.8217(4)
C16A C 0.6501(8) 0.8262(5) -0.6301(4)
C17A C 0.0999(8) 0.3791(6) -0.6181(4)
O3 O 0.2171(14) 0.6740(9) -0.0048(6)
H1 H 0.3142 0.7413 0.0341
H2 H 0.1393 0.6681 0.0400
O6 O 0.4496(11) 0.9033(7) 0.1819(4)
H3 H 0.3422 0.9199 0.2286
H4 H 0.4504 0.8663 0.1190
O9 O 0.0555(9) 0.5844(6) 0.1203(4)
H5 H -0.0629 0.5262 0.0861
H6 H 0.046(14) 0.611(8) 0.181(3)
O12 O 0.6129(8) 0.6693(5) 0.0184(4)
H7 H 0.643(13) 0.658(8) 0.068(3)
H8 H 0.686(13) 0.621(8) -0.010(4)
O14 O 0.3111(8) 0.4540(5) 0.1420(4)
H9 H 0.2788 0.3769 0.1676
H10 H 0.2060 0.4854 0.1248
O15 O 0.6936(8) 0.6048(5) 0.1758(3)
H11 H 0.5697 0.5419 0.1714
H12 H 0.645(7) 0.660(2) 0.210(5)
loop_
_geom_bond_atom_site_label_1
_geom_bond_atom_site_label_2
_geom_bond_site_symmetry_1
_geom_bond_site_symmetry_2
Co1 O1 1_555 1_555
Co2 O2 1_555 1_555
Co3 O7 1_555 1_555
O1 C13 1_555 1_555
O2 C14 1_555 1_555
O3 H1 1_555 1_555
H2 O3 1_555 1_555
O4 C13 1_555 1_555
O5 Co2 1_555 1_555
O6 H3 1_555 1_555
H4 O6 1_555 1_555
O7 C15 1_555 1_555
O8 C16 1_555 1_555
O9 H5 1_555 1_555
H6 O9 1_555 1_555
O10 C15 1_555 1_555
O11 C16 1_555 1_555
O12 H7 1_555 1_555
H8 O12 1_555 1_555
O13 C17 1_555 1_555
O14 H9 1_555 1_555
H10 O14 1_555 1_555
O15 H11 1_555 1_555
H12 O15 1_555 1_555
O16 Co3 1_555 1_555
H13 O16 1_555 1_555
H14 O16 1_555 1_555
O17 Co3 1_555 1_555
O18 Co2 1_555 1_555
H15 O18 1_555 1_555
H16 O18 1_555 1_555
O19 Co2 1_555 1_555
H17 O19 1_555 1_555
H18 O19 1_555 1_555
C1 C3 1_555 1_555
C2 C4 1_555 1_555
C3 H19 1_555 1_555
C4 H20 1_555 1_555
C5 C3 1_555 1_555
C6 C4 1_555 1_555
C7 C5 1_555 1_555
C8 C6 1_555 1_555
C9 C7 1_555 1_555
H21 C9 1_555 1_555
C10 C8 1_555 1_555
H22 C10 1_555 1_555
C11 C1 1_555 1_555
H23 C11 1_555 1_555
C12 C2 1_555 1_555
H24 C12 1_555 1_555
C13 C5 1_555 1_555
C14 O5 1_555 1_555
C15 C7 1_555 1_555
C16 C8 1_555 1_555
C17 C1 1_555 1_555
Co1_2 O5 1_555 1_555
Co1_3 O5A 1_555 1_555
Co2A O2A 1_555 1_555
Co2_2 O4 1_555 1_555
Co2_3 O11 1_555 1_555
Co2A_2 O4A 1_555 1_555
Co2A_3 O11A 1_555 1_555
Co3_2 O7A 1_555 1_555
O1A Co1 1_555 1_555
O2A C14A 1_555 1_555
O4A C13A 1_555 1_555
O4_2 Co2 1_555 1_555
O4A_2 Co2A 1_555 1_555
O5A Co2A 1_555 1_555
O5_2 Co1 1_555 1_555
O5A_2 Co1 1_555 1_555
O7A C15A 1_555 1_555
O7A_2 Co3 1_555 1_555
O8A Co1_3 1_555 1_555
O8_2 Co1 1_555 1_555
O8A_2 Co1 1_555 1_555
O10A C15A 1_555 1_555
O11A C16A 1_555 1_555
O11_2 Co2 1_555 1_555
O11A_2 Co2A 1_555 1_555
O13A C17A 1_555 1_555
O16A Co3 1_555 1_555
H13A O16A 1_555 1_555
H14A O16A 1_555 1_555
O17A Co3 1_555 1_555
O18A Co2A 1_555 1_555
H15A O18A 1_555 1_555
H16A O18A 1_555 1_555
O19A Co2A 1_555 1_555
H17A O19A 1_555 1_555
H18A O19A 1_555 1_555
C1A C3A 1_555 1_555
C2A C4A 1_555 1_555
C3A H19A 1_555 1_555
C4A H20A 1_555 1_555
C5A C3A 1_555 1_555
C6A C4A 1_555 1_555
C7A C5A 1_555 1_555
C8A C6A 1_555 1_555
C9A C7A 1_555 1_555
H21A C9A 1_555 1_555
C10A C8A 1_555 1_555
H22A C10A 1_555 1_555
C11A C1A 1_555 1_555
H23A C11A 1_555 1_555
C12A C2A 1_555 1_555
H24A C12A 1_555 1_555
C13A O1A 1_555 1_555
C14A O5A 1_555 1_555
C15A C7A 1_555 1_555
C16A O8A 1_555 1_555
C17A C1A 1_555 1_555
O8 Co1_2 1_555 1_555
C2 C17 1_555 1_555
C6 C14 1_555 1_555
C9 C11 1_555 1_555
C10 C12 1_555 1_555
Co2_2 O5_2 1_555 1_555
Co2A_2 O5A_2 1_555 1_555
C2A C17A 1_555 1_555
C5A C13A 1_555 1_555
C6A C14A 1_555 1_555
C8A C16A 1_555 1_555
C9A C11A 1_555 1_555
C10A C12A 1_555 1_555

#END
