
#######################################################################
#
#                 Cambridge Crystallographic Data Centre
#                                CCDC 
#
#######################################################################
#
# If this CIF has been generated from an entry in the Cambridge 
# Structural Database, then it will include bibliographic, chemical, 
# crystal, experimental, refinement or atomic coordinate data resulting 
# from the CCDC's data processing and validation procedures.
#
#######################################################################

data_DALVIY
_chemical_formula_moiety         '(C104 H98 Gd6 N18 O47)n'
_symmetry_cell_setting           orthorhombic
_symmetry_space_group_name_H-M   'P b c a'
_symmetry_Int_Tables_number      61
_space_group_name_Hall           '-P 2ac 2ab'
loop_
_symmetry_equiv_pos_site_id
_symmetry_equiv_pos_as_xyz
1 x,y,z
2 1/2-x,-y,1/2+z
3 -x,1/2+y,1/2-z
4 1/2+x,1/2-y,-z
5 -x,-y,-z
6 1/2+x,y,1/2-z
7 x,1/2-y,1/2+z
8 1/2-x,1/2+y,z
_cell_length_a                   34.967(2)
_cell_length_b                   21.6125(12)
_cell_length_c                   41.296(2)
_cell_angle_alpha                90
_cell_angle_beta                 90
_cell_angle_gamma                90
_cell_volume                     31208.4
loop_
_atom_site_label
_atom_site_type_symbol
_atom_site_fract_x
_atom_site_fract_y
_atom_site_fract_z
O47 O 0.3674(7) 0.3285(11) 0.9127(6)
C102 C 0.3941(9) 0.3619(15) 0.9199(7)
H90 H 0.4162 0.3412 0.9263
N18 N 0.3965(6) 0.4212(10) 0.9202(4)
C103 C 0.3596(8) 0.4510(13) 0.9130(7)
H91 H 0.3428 0.4215 0.9030
H92 H 0.3637 0.4851 0.8985
H93 H 0.3484 0.4657 0.9328
C104 C 0.4267(6) 0.4590(10) 0.9262(5)
H94 H 0.4243 0.4761 0.9476
H95 H 0.4271 0.4918 0.9106
H96 H 0.4500 0.4357 0.9248
Gd1 Gd 0.27660(3) 0.06248(4) 1.04341(2)
Gd2 Gd 0.52233(3) 0.27573(4) 0.89407(2)
Gd3 Gd 0.44891(3) 0.14542(4) 0.83986(2)
Gd4 Gd 0.59304(3) 0.35301(4) 1.14623(2)
Gd5 Gd 0.35367(3) -0.21973(4) 0.92994(2)
Gd6 Gd 0.34570(3) -0.05993(4) 0.98324(2)
C1 C 0.2742(5) 0.2568(7) 1.0617(4)
C2 C 0.2730(6) 0.1881(8) 1.0570(5)
O1 O 0.2494(3) 0.1671(5) 1.0374(3)
O2 O 0.2927(4) 0.1553(6) 1.0750(3)
C3 C 0.2495(5) 0.2949(8) 1.0451(4)
H1 H 0.2312 0.2775 1.0315
C4 C 0.2512(6) 0.3593(7) 1.0483(4)
C5 C 0.2234(5) 0.3998(9) 1.0304(4)
O3 O 0.2254(3) 0.4579(5) 1.0361(3)
O4 O 0.1998(3) 0.3748(5) 1.0106(3)
C6 C 0.2790(6) 0.3861(9) 1.0664(5)
H2 H 0.2812 0.4290 1.0675
C7 C 0.3046(7) 0.3473(9) 1.0836(5)
C8 C 0.3316(10) 0.3739(10) 1.1029(8)
N1 N 0.3575(8) 0.3933(10) 1.1194(7)
C9 C 0.3860(6) 0.3308(10) 0.8184(5)
H3 H 0.3821 0.2884 0.8162
C10 C 0.3012(6) 0.2843(10) 1.0809(5)
H4 H 0.3179 0.2593 1.0926
C11 C 0.3771(5) 0.1496(8) 0.9861(5)
C12 C 0.3488(5) 0.1000(8) 0.9972(4)
O5 O 0.3221(4) 0.1152(6) 1.0146(3)
O6 O 0.3557(3) 0.0459(6) 0.9877(3)
C13 C 0.3979(5) 0.1429(7) 0.9587(4)
H5 H 0.3962 0.1068 0.9465
C14 C 0.4224(5) 0.1913(8) 0.9489(4)
C15 C 0.4419(6) 0.1904(8) 0.9173(4)
O7 O 0.4696(4) 0.2289(5) 0.9135(3)
O8 O 0.4310(3) 0.1540(5) 0.8960(3)
C16 C 0.4265(5) 0.2413(10) 0.9695(5)
H6 H 0.4421 0.2740 0.9632
C17 C 0.4080(6) 0.2446(10) 0.9992(5)
C18 C 0.4093(7) 0.3002(13) 1.0186(6)
N2 N 0.4131(9) 0.3432(13) 1.0345(6)
C19 C 0.3819(5) 0.1985(9) 1.0082(5)
H7 H 0.3686 0.2001 1.0276
C20 C 0.5549(6) 0.0664(9) 0.8894(5)
C21 C 0.5303(6) 0.1238(9) 0.8868(4)
O9 O 0.5409(3) 0.1703(6) 0.9017(3)
O10 O 0.5035(4) 0.1185(5) 0.8674(3)
C22 C 0.5842(6) 0.0632(8) 0.9124(5)
H8 H 0.5883 0.0972 0.9257
C23 C 0.6080(6) 0.0106(10) 0.9162(5)
C24 C 0.6393(7) 0.0096(11) 0.9398(5)
O11 O 0.6371(3) 0.0493(6) 0.9629(3)
O12 O 0.6640(5) -0.0307(6) 0.9367(4)
C25 C 0.6020(7) -0.0394(11) 0.8987(7)
H9 H 0.6169 -0.0745 0.9018
C26 C 0.5719(11) -0.0393(17) 0.8744(9)
C27 C 0.562(3) -0.098(2) 0.8662(14)
N3 N 0.5580(11) -0.129(2) 0.8438(10)
C28 C 0.5486(8) 0.0167(13) 0.8702(8)
H10 H 0.5295 0.0179 0.8545
C29 C 0.5220(5) 0.3528(8) 0.9900(4)
C30 C 0.5220(5) 0.3283(8) 0.9571(4)
O13 O 0.4990(3) 0.3508(5) 0.9356(3)
O14 O 0.5435(3) 0.2839(6) 0.9496(3)
C31 C 0.5470(5) 0.3320(8) 1.0132(4)
H11 H 0.5633 0.2996 1.0080
C32 C 0.5489(5) 0.3565(7) 1.0437(4)
C33 C 0.5772(6) 0.3327(9) 1.0658(4)
O15 O 0.5849(3) 0.3667(6) 1.0904(3)
O16 O 0.5928(4) 0.2806(7) 1.0616(3)
C34 C 0.5233(5) 0.4020(8) 1.0522(4)
H12 H 0.5242 0.4187 1.0730
C35 C 0.4958(5) 0.4235(7) 1.0302(4)
C36 C 0.4685(6) 0.4723(9) 1.0402(5)
N4 N 0.4478(5) 0.5087(8) 1.0480(4)
C37 C 0.4954(5) 0.4001(8) 0.9994(4)
H13 H 0.4778 0.4151 0.9844
C38 C 0.5578(6) 0.2326(8) 0.7929(4)
C39 C 0.5260(5) 0.2153(9) 0.8137(4)
O17 O 0.5263(3) 0.2435(5) 0.8419(3)
O18 O 0.5011(4) 0.1795(5) 0.8052(3)
C40 C 0.5608(6) 0.2043(7) 0.7619(4)
H14 H 0.5424 0.1763 0.7548
C41 C 0.5918(6) 0.2197(8) 0.7426(4)
C42 C 0.5944(6) 0.1909(9) 0.7092(5)
O19 O 0.5646(4) 0.1632(5) 0.6987(3)
O20 O 0.6245(3) 0.1984(5) 0.6927(3)
C43 C 0.6196(8) 0.2584(15) 0.7522(6)
H15 H 0.6415 0.2665 0.7401
C44 C 0.6126(10) 0.2850(15) 0.7820(9)
C45 C 0.6418(16) 0.321(3) 0.792(3)
N5 N 0.6627(12) 0.359(3) 0.8002(10)
C46 C 0.5852(8) 0.2726(12) 0.8032(6)
H16 H 0.5847 0.2901 0.8238
C47 C 0.4519(5) -0.0526(8) 0.8290(4)
C48 C 0.4495(6) 0.0154(8) 0.8315(4)
O21 O 0.4664(4) 0.0494(6) 0.8115(3)
O22 O 0.4304(4) 0.0379(5) 0.8544(4)
C49 C 0.4351(6) -0.0889(7) 0.8507(4)
H17 H 0.4216 -0.0710 0.8677
C50 C 0.4372(5) -0.1551(9) 0.8485(5)
C51 C 0.4153(5) -0.1934(9) 0.8726(5)
O23 O 0.4011(4) -0.1704(5) 0.8977(3)
O24 O 0.4139(5) -0.2500(5) 0.8660(3)
C52 C 0.4553(5) -0.1785(8) 0.8230(5)
H18 H 0.4554 -0.2212 0.8202
C53 C 0.4740(6) -0.1413(11) 0.8002(5)
C54 C 0.4950(7) -0.1677(11) 0.7737(7)
N6 N 0.5125(7) -0.1861(11) 0.7517(6)
C55 C 0.4712(6) -0.0794(8) 0.8034(4)
H19 H 0.4825 -0.0540 0.7879
C56 C 0.2418(5) 0.0294(8) 0.9340(4)
C57 C 0.2643(5) 0.0214(8) 0.9648(4)
O25 O 0.2566(4) 0.0549(6) 0.9885(3)
O26 O 0.2884(4) -0.0255(6) 0.9658(3)
C58 C 0.2188(5) 0.0786(8) 0.9313(4)
H20 H 0.2154 0.1052 0.9488
C59 C 0.2004(5) 0.0896(7) 0.9030(4)
C60 C 0.1736(6) 0.1453(9) 0.8983(5)
O27 O 0.1727(4) 0.1818(6) 0.9211(3)
O28 O 0.1543(4) 0.1516(6) 0.8726(3)
C61 C 0.2048(6) 0.0504(9) 0.8752(4)
H21 H 0.1928 0.0594 0.8557
C62 C 0.2278(6) -0.0010(12) 0.8786(5)
C63 C 0.2347(8) -0.0406(15) 0.8514(6)
N7 N 0.2395(8) -0.0722(14) 0.8309(7)
C64 C 0.2476(5) -0.0075(9) 0.9072(5)
H22 H 0.2660 -0.0385 0.9086
C65 C 0.4173(6) 0.3507(8) 0.8351(4)
C66 C 0.4464(5) 0.3071(9) 0.8511(4)
O29 O 0.4718(3) 0.3280(5) 0.8682(3)
O30 O 0.4404(4) 0.2505(5) 0.8429(3)
C67 C 0.4198(5) 0.4140(7) 0.8413(4)
H23 H 0.4397 0.4284 0.8542
C68 C 0.3947(5) 0.4549(7) 0.8293(4)
C69 C 0.3992(6) 0.5220(8) 0.8360(4)
O31 O 0.4251(4) 0.5400(5) 0.8543(3)
O32 O 0.3754(4) 0.5614(5) 0.8237(3)
C70 C 0.3652(7) 0.4348(9) 0.8103(5)
H24 H 0.3486 0.4635 0.8010
C71 C 0.3595(6) 0.3713(9) 0.8045(5)
C72 C 0.3272(9) 0.3470(14) 0.7840(7)
N8 N 0.3038(8) 0.3293(12) 0.7674(7)
O33 O 0.2897(5) -0.2053(7) 0.9463(4)
C73 C 0.2622(8) -0.2339(13) 0.9601(6)
H25 H 0.2660 -0.2736 0.9681
N9 N 0.2299(5) -0.2089(8) 0.9628(4)
C74 C 0.2198(8) -0.1445(13) 0.9563(7)
H26 H 0.2014 -0.1307 0.9719
H27 H 0.2092 -0.1412 0.9350
H28 H 0.2424 -0.1192 0.9578
C75 C 0.1984(8) -0.2474(13) 0.9780(6)
H29 H 0.2095 -0.2775 0.9923
H30 H 0.1843 -0.2681 0.9613
H31 H 0.1815 -0.2210 0.9900
O34 O 0.4103(5) -0.0549(8) 0.9733(4)
C76 C 0.4342(7) -0.0150(12) 0.9741(12)
H32 H 0.4351 0.0036 0.9943
N10 N 0.4588(9) 0.0089(16) 0.9549(8)
C77 C 0.4870(12) 0.0572(18) 0.9608(11)
H33 H 0.4880 0.0846 0.9426
H34 H 0.5117 0.0386 0.9640
H35 H 0.4801 0.0801 0.9799
C78 C 0.4612(11) -0.0183(18) 0.9231(9)
H36 H 0.4412 -0.0484 0.9206
H37 H 0.4856 -0.0380 0.9206
H38 H 0.4583 0.0134 0.9070
O35 O 0.2095(4) 0.0457(6) 1.0435(3)
C79 C 0.1861(7) 0.0712(11) 1.0252(5)
H39 H 0.1880 0.1139 1.0231
N11 N 0.1576(6) 0.0426(10) 1.0076(5)
C80 C 0.1290(9) 0.0788(14) 0.9887(7)
H40 H 0.1064 0.0846 1.0015
H41 H 0.1227 0.0567 0.9692
H42 H 0.1397 0.1183 0.9831
C81 C 0.1478(9) -0.0279(14) 1.0116(7)
H43 H 0.1709 -0.0518 1.0104
H44 H 0.1307 -0.0405 0.9946
H45 H 0.1358 -0.0345 1.0322
O36 O 0.5495(4) 0.3700(7) 0.8770(3)
C82 C 0.5330(9) 0.4202(15) 0.8752(7)
H46 H 0.5081 0.4233 0.8829
N12 N 0.5494(12) 0.4694(19) 0.8629(9)
C83 C 0.5287(12) 0.5276(19) 0.8637(11)
H47 H 0.5137 0.5316 0.8443
H48 H 0.5465 0.5612 0.8650
H49 H 0.5121 0.5283 0.8822
C84 C 0.5890(13) 0.464(3) 0.8521(14)
H50 H 0.5897 0.4635 0.8289
H51 H 0.5999 0.4268 0.8605
H52 H 0.6033 0.4991 0.8599
O37 O 0.4226(4) 0.1598(7) 0.7863(4)
C85 C 0.4199(13) 0.2018(13) 0.7673(6)
H53 H 0.4421 0.2255 0.7669
N13 N 0.3951(9) 0.2229(14) 0.7474(7)
C86 C 0.3943(10) 0.2817(16) 0.7303(8)
H54 H 0.4149 0.3073 0.7378
H55 H 0.3704 0.3022 0.7344
H56 H 0.3971 0.2746 0.7075
C87 C 0.3603(12) 0.186(2) 0.7452(12)
H57 H 0.3387 0.2131 0.7429
H58 H 0.3575 0.1618 0.7645
H59 H 0.3619 0.1593 0.7267
O38 O 0.3813(4) 0.1501(7) 0.8427(4)
C88 C 0.3620(11) 0.1232(18) 0.8636(9)
H60 H 0.3663 0.0812 0.8669
N14 N 0.3356(9) 0.1511(15) 0.8815(7)
C89 C 0.3113(11) 0.1292(17) 0.9051(9)
H61 H 0.2892 0.1111 0.8951
H62 H 0.3035 0.1628 0.9188
H63 H 0.3243 0.0986 0.9178
C90 C 0.3398(19) 0.217(3) 0.8752(16)
H64 H 0.3658 0.2290 0.8791
H65 H 0.3231 0.2397 0.8893
H66 H 0.3332 0.2254 0.8531
O39 O 0.5267(4) 0.3436(6) 1.1361(3)
C91 C 0.4991(7) 0.3331(12) 1.1521(9)
H67 H 0.5026 0.3377 1.1743
N15 N 0.4658(10) 0.3167(12) 1.1437(9)
C92 C 0.4574(13) 0.309(2) 1.1097(9)
H68 H 0.4352 0.2836 1.1072
H69 H 0.4788 0.2904 1.0990
H70 H 0.4525 0.3492 1.1002
C93 C 0.4344(14) 0.311(2) 1.1666(13)
H71 H 0.4382 0.3398 1.1841
H72 H 0.4335 0.2699 1.1749
H73 H 0.4107 0.3205 1.1558
O40 O 0.5921(5) 0.2672(7) 0.8905(4)
C94 C 0.6260(6) 0.261(3) 0.8941(13)
H74 H 0.6378 0.2237 0.8892
N16 N 0.6462(13) 0.308(2) 0.9050(10)
C95 C 0.6885(13) 0.307(3) 0.9090(15)
H75 H 0.7005 0.3144 0.8885
H76 H 0.6961 0.2667 0.9169
H77 H 0.6961 0.3379 0.9242
C96 C 0.629(3) 0.369(3) 0.914(3)
H78 H 0.6235 0.3686 0.9371
H79 H 0.6063 0.3758 0.9022
H80 H 0.6473 0.4013 0.9098
O41 O 0.3231(4) -0.2055(7) 0.8807(4)
C97 C 0.3165(10) -0.2147(14) 0.8525(5)
H81 H 0.3378 -0.2156 0.8390
N17 N 0.2847(10) -0.2233(18) 0.8386(10)
C98 C 0.2833(13) -0.221(2) 0.8036(10)
H82 H 0.3079 -0.2093 0.7954
H83 H 0.2645 -0.1917 0.7969
H84 H 0.2767 -0.2614 0.7954
C99 C 0.2506(14) -0.222(3) 0.8587(13)
H85 H 0.2376 -0.2607 0.8575
H86 H 0.2338 -0.1895 0.8512
H87 H 0.2577 -0.2135 0.8808
O42 O 0.2610(4) 0.0346(7) 1.0987(3)
O43 O 0.3417(4) -0.1100(6) 0.9301(3)
C100 C 0.3499(5) -0.0610(10) 0.9117(5)
H88 H 0.3512 -0.0648 0.8893
O44 O 0.3554(4) -0.0139(7) 0.9238(4)
O45 O 0.3679(4) -0.1665(5) 0.9814(3)
C101 C 0.3584(5) -0.2146(9) 0.9995(5)
H89 H 0.3594 -0.2108 1.0219
O46 O 0.3483(4) -0.2640(5) 0.9877(3)
Gd1D Gd 0.72340(3) -0.06248(4) 0.95659(2)
Gd1G Gd 0.22340(3) 0.56248(4) 1.04341(2)
Gd4C Gd 0.09304(3) 0.14699(4) 0.85377(2)
Gd4D Gd 0.40696(3) -0.35301(4) 0.85377(2)
Gd4D_2 Gd 0.40696(3) 0.64699(4) 0.85377(2)
Gd4F Gd 0.59304(3) 0.14699(4) 0.64623(2)
Gd5D Gd 0.64633(3) 0.21973(4) 1.07006(2)
Gd5G Gd 0.14633(3) 0.28027(4) 0.92994(2)
Gd6D Gd 0.65430(3) 0.05993(4) 1.01676(2)
Gd6G Gd 0.15430(3) 0.44007(4) 0.98324(2)
O3G O 0.2746(3) -0.0421(5) 1.0361(3)
O4G O 0.3002(3) -0.1252(5) 1.0106(3)
O11D O 0.3629(3) -0.0493(6) 1.0371(3)
O12D O 0.3360(5) 0.0307(6) 1.0633(4)
O16D O 0.4072(4) -0.2806(7) 0.9384(3)
O19F O 0.5646(4) 0.3368(5) 1.1987(3)
O20F O 0.6245(3) 0.3016(5) 1.1927(3)
O24D O 0.5861(5) 0.2500(5) 1.1340(3)
O27G O 0.3273(4) -0.3182(6) 0.9211(3)
O28C O 0.6543(4) 0.3484(6) 1.1274(3)
O31D O 0.5749(4) 0.4600(5) 1.1457(3)
O32D O 0.6246(4) 0.4386(5) 1.1763(3)
loop_
_geom_bond_atom_site_label_1
_geom_bond_atom_site_label_2
_geom_bond_site_symmetry_1
_geom_bond_site_symmetry_2
Gd1 O1 1_555 1_555
Gd2 O7 1_555 1_555
Gd3 O8 1_555 1_555
Gd4 O15 1_555 1_555
Gd5 O23 1_555 1_555
Gd6 O6 1_555 1_555
C1 C2 1_555 1_555
C2 O1 1_555 1_555
O2 Gd1 1_555 1_555
C3 C1 1_555 1_555
H1 C3 1_555 1_555
C4 C3 1_555 1_555
C5 C4 1_555 1_555
O3 C5 1_555 1_555
O4 C5 1_555 1_555
C6 C4 1_555 1_555
H2 C6 1_555 1_555
C7 C6 1_555 1_555
C8 C7 1_555 1_555
N1 C8 1_555 1_555
C9 H3 1_555 1_555
C10 C1 1_555 1_555
H4 C10 1_555 1_555
C11 C12 1_555 1_555
C12 O5 1_555 1_555
O5 Gd1 1_555 1_555
O6 C12 1_555 1_555
C13 C11 1_555 1_555
H5 C13 1_555 1_555
C14 C13 1_555 1_555
C15 C14 1_555 1_555
O7 C15 1_555 1_555
O8 C15 1_555 1_555
C16 C14 1_555 1_555
H6 C16 1_555 1_555
C17 C16 1_555 1_555
C18 C17 1_555 1_555
N2 C18 1_555 1_555
C19 C11 1_555 1_555
H7 C19 1_555 1_555
C20 C21 1_555 1_555
C21 O9 1_555 1_555
O9 Gd2 1_555 1_555
O10 Gd3 1_555 1_555
C22 C20 1_555 1_555
H8 C22 1_555 1_555
C23 C22 1_555 1_555
C24 C23 1_555 1_555
O11 C24 1_555 1_555
O12 C24 1_555 1_555
C25 C23 1_555 1_555
H9 C25 1_555 1_555
C26 C25 1_555 1_555
C27 C26 1_555 1_555
N3 C27 1_555 1_555
C28 C20 1_555 1_555
H10 C28 1_555 1_555
C29 C30 1_555 1_555
C30 O13 1_555 1_555
O13 Gd2 1_555 1_555
O14 Gd2 1_555 1_555
C31 C29 1_555 1_555
H11 C31 1_555 1_555
C32 C31 1_555 1_555
C33 C32 1_555 1_555
O15 C33 1_555 1_555
O16 C33 1_555 1_555
C34 C32 1_555 1_555
H12 C34 1_555 1_555
C35 C34 1_555 1_555
C36 C35 1_555 1_555
N4 C36 1_555 1_555
C37 C29 1_555 1_555
H13 C37 1_555 1_555
C38 C39 1_555 1_555
C39 O17 1_555 1_555
O17 Gd2 1_555 1_555
O18 Gd3 1_555 1_555
C40 C38 1_555 1_555
H14 C40 1_555 1_555
C41 C40 1_555 1_555
C42 C41 1_555 1_555
O19 C42 1_555 1_555
O20 C42 1_555 1_555
C43 C41 1_555 1_555
H15 C43 1_555 1_555
C44 C43 1_555 1_555
C45 C44 1_555 1_555
N5 C45 1_555 1_555
C46 C38 1_555 1_555
H16 C46 1_555 1_555
C47 C48 1_555 1_555
C48 O21 1_555 1_555
O21 Gd3 1_555 1_555
O22 Gd3 1_555 1_555
C49 C47 1_555 1_555
H17 C49 1_555 1_555
C50 C49 1_555 1_555
C51 C50 1_555 1_555
O23 C51 1_555 1_555
O24 C51 1_555 1_555
C52 C50 1_555 1_555
H18 C52 1_555 1_555
C53 C52 1_555 1_555
C54 C53 1_555 1_555
N6 C54 1_555 1_555
C55 C47 1_555 1_555
H19 C55 1_555 1_555
C56 C57 1_555 1_555
C57 O25 1_555 1_555
O25 Gd1 1_555 1_555
O26 Gd6 1_555 1_555
C58 C56 1_555 1_555
H20 C58 1_555 1_555
C59 C58 1_555 1_555
C60 C59 1_555 1_555
O27 C60 1_555 1_555
O28 C60 1_555 1_555
C61 C59 1_555 1_555
H21 C61 1_555 1_555
C62 C61 1_555 1_555
C63 C62 1_555 1_555
N7 C63 1_555 1_555
C64 C56 1_555 1_555
H22 C64 1_555 1_555
C65 C9 1_555 1_555
C66 C65 1_555 1_555
O29 Gd2 1_555 1_555
O30 Gd3 1_555 1_555
C67 C65 1_555 1_555
H23 C67 1_555 1_555
C68 C67 1_555 1_555
C69 C68 1_555 1_555
O31 C69 1_555 1_555
O32 C69 1_555 1_555
C70 C68 1_555 1_555
H24 C70 1_555 1_555
C71 C9 1_555 1_555
C72 C71 1_555 1_555
N8 C72 1_555 1_555
O33 Gd5 1_555 1_555
C73 O33 1_555 1_555
H25 C73 1_555 1_555
N9 C73 1_555 1_555
C74 N9 1_555 1_555
H26 C74 1_555 1_555
H27 C74 1_555 1_555
H28 C74 1_555 1_555
C75 N9 1_555 1_555
H29 C75 1_555 1_555
H30 C75 1_555 1_555
H31 C75 1_555 1_555
O34 Gd6 1_555 1_555
C76 O34 1_555 1_555
H32 C76 1_555 1_555
N10 C76 1_555 1_555
C77 N10 1_555 1_555
H33 C77 1_555 1_555
H34 C77 1_555 1_555
H35 C77 1_555 1_555
C78 N10 1_555 1_555
H36 C78 1_555 1_555
H37 C78 1_555 1_555
H38 C78 1_555 1_555
O35 Gd1 1_555 1_555
C79 O35 1_555 1_555
H39 C79 1_555 1_555
N11 C79 1_555 1_555
C80 N11 1_555 1_555
H40 C80 1_555 1_555
H41 C80 1_555 1_555
H42 C80 1_555 1_555
C81 N11 1_555 1_555
H43 C81 1_555 1_555
H44 C81 1_555 1_555
H45 C81 1_555 1_555
O36 Gd2 1_555 1_555
C82 O36 1_555 1_555
H46 C82 1_555 1_555
N12 C82 1_555 1_555
C83 N12 1_555 1_555
H47 C83 1_555 1_555
H48 C83 1_555 1_555
H49 C83 1_555 1_555
C84 N12 1_555 1_555
H50 C84 1_555 1_555
H51 C84 1_555 1_555
H52 C84 1_555 1_555
O37 Gd3 1_555 1_555
C85 O37 1_555 1_555
H53 C85 1_555 1_555
N13 C85 1_555 1_555
C86 N13 1_555 1_555
H54 C86 1_555 1_555
H55 C86 1_555 1_555
H56 C86 1_555 1_555
C87 N13 1_555 1_555
H57 C87 1_555 1_555
H58 C87 1_555 1_555
H59 C87 1_555 1_555
O38 Gd3 1_555 1_555
C88 O38 1_555 1_555
H60 C88 1_555 1_555
N14 C88 1_555 1_555
C89 N14 1_555 1_555
H61 C89 1_555 1_555
H62 C89 1_555 1_555
H63 C89 1_555 1_555
C90 N14 1_555 1_555
H64 C90 1_555 1_555
H65 C90 1_555 1_555
H66 C90 1_555 1_555
O39 Gd4 1_555 1_555
C91 O39 1_555 1_555
H67 C91 1_555 1_555
N15 C91 1_555 1_555
C92 N15 1_555 1_555
H68 C92 1_555 1_555
H69 C92 1_555 1_555
H70 C92 1_555 1_555
C93 N15 1_555 1_555
H71 C93 1_555 1_555
H72 C93 1_555 1_555
H73 C93 1_555 1_555
O40 Gd2 1_555 1_555
C94 O40 1_555 1_555
H74 C94 1_555 1_555
N16 C94 1_555 1_555
C95 N16 1_555 1_555
H75 C95 1_555 1_555
H76 C95 1_555 1_555
H77 C95 1_555 1_555
C96 N16 1_555 1_555
H78 C96 1_555 1_555
H79 C96 1_555 1_555
H80 C96 1_555 1_555
O41 Gd5 1_555 1_555
C97 O41 1_555 1_555
H81 C97 1_555 1_555
N17 C97 1_555 1_555
C98 N17 1_555 1_555
H82 C98 1_555 1_555
H83 C98 1_555 1_555
H84 C98 1_555 1_555
C99 N17 1_555 1_555
H85 C99 1_555 1_555
H86 C99 1_555 1_555
H87 C99 1_555 1_555
O42 Gd1 1_555 1_555
O43 Gd5 1_555 1_555
C100 O43 1_555 1_555
H88 C100 1_555 1_555
O44 Gd6 1_555 1_555
O45 Gd5 1_555 1_555
C101 O45 1_555 1_555
H89 C101 1_555 1_555
O46 Gd5 1_555 1_555
O47 C102 1_555 1_555
C102 H90 1_555 1_555
N18 C102 1_555 1_555
C103 N18 1_555 1_555
H91 C103 1_555 1_555
H92 C103 1_555 1_555
H93 C103 1_555 1_555
C104 N18 1_555 1_555
H94 C104 1_555 1_555
H95 C104 1_555 1_555
H96 C104 1_555 1_555
Gd1D O12 1_555 1_555
Gd1G O3 1_555 1_555
Gd4C O28 1_555 1_555
Gd4D O24 1_555 1_555
Gd4D_2 O31 1_555 1_555
Gd4F O19 1_555 1_555
Gd5D O16 1_555 1_555
Gd5G O27 1_555 1_555
Gd6D O11 1_555 1_555
Gd6G O4 1_555 1_555
O3G Gd1 1_555 1_555
O4G Gd6 1_555 1_555
O11D Gd6 1_555 1_555
O12D Gd1 1_555 1_555
O16D Gd5 1_555 1_555
O19F Gd4 1_555 1_555
O20F Gd4 1_555 1_555
O24D Gd4 1_555 1_555
O27G Gd5 1_555 1_555
O28C Gd4 1_555 1_555
O31D Gd4 1_555 1_555
O32D Gd4 1_555 1_555
Gd6 O43 1_555 1_555
Gd6 O45 1_555 1_555
C2 O2 1_555 1_555
C7 C10 1_555 1_555
C17 C19 1_555 1_555
C21 O10 1_555 1_555
C26 C28 1_555 1_555
C30 O14 1_555 1_555
C35 C37 1_555 1_555
C39 O18 1_555 1_555
O20 Gd4F 1_555 1_555
C44 C46 1_555 1_555
C48 O22 1_555 1_555
C53 C55 1_555 1_555
C57 O26 1_555 1_555
C62 C64 1_555 1_555
C66 O29 1_555 1_555
C66 O30 1_555 1_555
O32 Gd4D_2 1_555 1_555
C70 C71 1_555 1_555
C100 O44 1_555 1_555
C101 O46 1_555 1_555

#END
