
#######################################################################
#
#                 Cambridge Crystallographic Data Centre
#                                CCDC 
#
#######################################################################
#
# If this CIF has been generated from an entry in the Cambridge 
# Structural Database, then it will include bibliographic, chemical, 
# crystal, experimental, refinement or atomic coordinate data resulting 
# from the CCDC's data processing and validation procedures.
#
#######################################################################

data_MAWTUC
_chemical_formula_moiety         '(C11 H14 N2 O4 Zn1)n'
_symmetry_cell_setting           tetragonal
_symmetry_space_group_name_H-M   'P 43'
_symmetry_Int_Tables_number      78
_space_group_name_Hall           'P 4cw'
loop_
_symmetry_equiv_pos_site_id
_symmetry_equiv_pos_as_xyz
1 x,y,z
2 -x,-y,1/2+z
3 -y,x,3/4+z
4 y,-x,1/4+z
_cell_length_a                   12.487(10)
_cell_length_b                   12.487(10)
_cell_length_c                   9.776(11)
_cell_angle_alpha                90
_cell_angle_beta                 90
_cell_angle_gamma                90
_cell_volume                     1524.32
loop_
_atom_site_label
_atom_site_type_symbol
_atom_site_fract_x
_atom_site_fract_y
_atom_site_fract_z
_atom_site_U_iso_or_equiv
_atom_site_thermal_displace_type
N1 N 0.9410(19) 0.5631(19) 0.251(3) 0.0790 Uani
H1 H 0.9724 0.5793 0.1626 0.0950 Uiso
N2 N 0.6706(14) 0.8564(11) 0.101(2) 0.0800 Uani
C1 C 0.7523(15) 0.8082(15) 0.026(2) 0.0930 Uani
H2 H 0.7746 0.8379 -0.0561 0.1120 Uiso
C2 C 0.8007(14) 0.7156(16) 0.075(2) 0.0843 Uani
H3 H 0.8554 0.6833 0.0256 0.1010 Uiso
C3 C 0.7674(16) 0.6712(13) 0.199(2) 0.0850 Uani
C4 C 0.6857(15) 0.7194(14) 0.273(2) 0.0960 Uani
H4 H 0.6634 0.6897 0.3553 0.1160 Uiso
C5 C 0.6373(12) 0.8120(13) 0.224(2) 0.0717 Uani
H5 H 0.5826 0.8443 0.2736 0.0860 Uiso
C6 C 0.812(2) 0.576(2) 0.242(3) 0.0677 Uani
H6 H 0.7869 0.5198 0.1810 0.0810 Uiso
H7 H 0.7838 0.5601 0.3318 0.0810 Uiso
C7 C 0.985(3) 0.640(3) 0.358(3) 0.0777 Uani
H8 H 0.9301 0.6910 0.3873 0.0930 Uiso
C8 C 1.079(3) 0.697(3) 0.305(4) 0.1267 Uani
H9 H 1.1032 0.7403 0.3619 0.1910 Uiso
H10 H 1.0606 0.7337 0.2221 0.1910 Uiso
H11 H 1.1354 0.6462 0.2861 0.1910 Uiso
C9 C 1.017(2) 0.566(2) 0.476(3) 0.0590 Uani
C10 C 0.644(2) 1.174(3) -0.0267(8) 0.1093 Uani
C11 C 0.714(5) 1.267(3) -0.046(7) 0.3067 Uani
H12 H 0.6699 1.3273 -0.0697 0.4560 Uiso
H13 H 0.7449 1.2543 -0.1175 0.4560 Uiso
H14 H 0.7518 1.2828 0.0377 0.4560 Uiso
O1 O 1.0525(19) 0.6269(17) 0.577(3) 0.0910 Uani
O2 O 1.0207(13) 0.4747(13) 0.469(2) 0.0530 Uani
O3 O 0.6848(17) 1.0988(18) 0.024(2) 0.0967 Uani
O4 O 0.551(2) 1.174(3) -0.062(3) 0.1467 Uani
Zn1 Zn 0.5902(2) 0.9842(3) 0.0279(18) 0.0636 Uani
N1B N 0.4369(19) 0.9410(19) 0.001(3) 0.0790 Uani
O1C O 0.6269(17) 0.9475(19) -0.173(3) 0.0910 Uani
O2B O 0.5253(13) 1.0207(13) 0.219(2) 0.0530 Uani
Zn1B Zn 1.0158(3) 0.5902(2) 0.7779(18) 0.0636 Uani
Zn1C Zn 0.9842(3) 0.4098(2) 0.2779(18) 0.0636 Uani
loop_
_atom_site_aniso_label
_atom_site_aniso_U_11
_atom_site_aniso_U_22
_atom_site_aniso_U_33
_atom_site_aniso_U_23
_atom_site_aniso_U_13
_atom_site_aniso_U_12
N1 0.103(15) 0.117(16) 0.017(11) -0.020(10) -0.022(10) -0.004(14)
N2 0.091(15) 0.124(17) 0.025(10) -0.013(11) -0.016(10) 0.033(13)
C1 0.098(17) 0.14(2) 0.041(13) 0.027(17) 0.015(15) 0.052(16)
C2 0.119(19) 0.108(19) 0.026(11) 0.003(12) 0.001(13) 0.045(16)
C3 0.115(19) 0.110(18) 0.030(12) -0.006(12) 0.000(13) 0.061(16)
C4 0.098(17) 0.111(18) 0.079(18) -0.002(18) 0.012(17) 0.048(15)
C5 0.094(16) 0.102(17) 0.019(10) 0.010(12) 0.000(12) 0.041(15)
C6 0.084(15) 0.075(15) 0.044(15) -0.007(12) 0.013(12) 0.024(14)
C7 0.105(18) 0.093(18) 0.035(13) -0.004(13) -0.027(14) 0.018(15)
C8 0.12(3) 0.20(4) 0.06(2) 0.03(2) -0.04(2) -0.06(3)
C9 0.092(16) 0.070(16) 0.015(10) -0.009(10) -0.010(11) -0.020(14)
C10 0.14(3) 0.13(2) 0.058(18) -0.020(19) 0.00(2) -0.04(2)
C11 0.41(7) 0.23(5) 0.28(7) 0.04(5) 0.02(6) -0.13(5)
O1 0.143(16) 0.096(13) 0.034(9) -0.004(9) -0.013(10) -0.021(12)
O2 0.099(12) 0.049(9) 0.011(6) 0.004(7) -0.002(7) 0.000(9)
O3 0.129(14) 0.136(15) 0.025(8) -0.008(13) 0.007(11) 0.019(12)
O4 0.17(2) 0.16(2) 0.11(2) 0.014(18) -0.02(2) 0.04(2)
Zn1 0.083(2) 0.090(2) 0.0179(11) 0.0004(17) -0.0027(15) 0.0048(19)
N1B 0.117 0.103 0.017 -0.022 0.02 0.004
O1C 0.096 0.143 0.034 0.013 -0.004 0.021
O2B 0.049 0.099 0.011 -0.002 -0.004 0
Zn1B 0.09 0.083 0.0179 -0.0027 -0.0004 -0.0048
Zn1C 0.09 0.083 0.0179 0.0027 0.0004 -0.0048
loop_
_geom_bond_atom_site_label_1
_geom_bond_atom_site_label_2
_geom_bond_site_symmetry_1
_geom_bond_site_symmetry_2
N1 H1 1_555 1_555
N2 C1 1_555 1_555
C1 H2 1_555 1_555
C2 C1 1_555 1_555
H3 C2 1_555 1_555
C3 C2 1_555 1_555
C4 C3 1_555 1_555
H4 C4 1_555 1_555
C5 N2 1_555 1_555
H5 C5 1_555 1_555
C6 N1 1_555 1_555
H6 C6 1_555 1_555
H7 C6 1_555 1_555
C7 N1 1_555 1_555
H8 C7 1_555 1_555
C8 C7 1_555 1_555
H9 C8 1_555 1_555
H10 C8 1_555 1_555
H11 C8 1_555 1_555
C9 C7 1_555 1_555
C10 C11 1_555 1_555
C11 H12 1_555 1_555
H13 C11 1_555 1_555
H14 C11 1_555 1_555
O1 C9 1_555 1_555
O2 C9 1_555 1_555
O3 C10 1_555 1_555
O4 C10 1_555 1_555
Zn1 N2 1_555 1_555
N1B Zn1 1_555 1_555
O1C Zn1 1_555 1_555
O2B Zn1 1_555 1_555
Zn1B O1 1_555 1_555
Zn1C N1 1_555 1_555
C3 C6 1_555 1_555
C4 C5 1_555 1_555
O2 Zn1C 1_555 1_555
O3 Zn1 1_555 1_555
O4 Zn1 1_555 1_555

#END
