
#######################################################################
#
#                 Cambridge Crystallographic Data Centre
#                                CCDC 
#
#######################################################################
#
# If this CIF has been generated from an entry in the Cambridge 
# Structural Database, then it will include bibliographic, chemical, 
# crystal, experimental, refinement or atomic coordinate data resulting 
# from the CCDC's data processing and validation procedures.
#
#######################################################################

data_MAWVAK
_chemical_formula_moiety         '(C11 H14 N2 O4 Zn1)n'
_symmetry_cell_setting           tetragonal
_symmetry_space_group_name_H-M   'P 41'
_symmetry_Int_Tables_number      76
_space_group_name_Hall           'P 4w'
loop_
_symmetry_equiv_pos_site_id
_symmetry_equiv_pos_as_xyz
1 x,y,z
2 -x,-y,1/2+z
3 -y,x,1/4+z
4 y,-x,3/4+z
_cell_length_a                   12.800(3)
_cell_length_b                   12.800(3)
_cell_length_c                   9.984(5)
_cell_angle_alpha                90
_cell_angle_beta                 90
_cell_angle_gamma                90
_cell_volume                     1635.78
loop_
_atom_site_label
_atom_site_type_symbol
_atom_site_fract_x
_atom_site_fract_y
_atom_site_fract_z
_atom_site_U_iso_or_equiv
_atom_site_thermal_displace_type
C1 C 0.7518(7) 0.6940(7) 1.0363(12) 0.0607 Uani
H1 H 0.7332 0.6671 1.1195 0.0730 Uiso
C2 C 0.7008(8) 0.7818(8) 0.9920(10) 0.0613 Uani
H2 H 0.6497 0.8128 1.0450 0.0740 Uiso
C3 C 0.7256(7) 0.8246(8) 0.8675(9) 0.0537 Uani
C4 C 0.8044(7) 0.7753(7) 0.7961(10) 0.0597 Uani
H3 H 0.8242 0.8004 0.7124 0.0720 Uiso
C5 C 0.8526(8) 0.6896(8) 0.8494(10) 0.0587 Uani
H4 H 0.9073 0.6599 0.8013 0.0700 Uiso
C6 C 0.6816(6) 0.9259(7) 0.8216(8) 0.0483 Uani
H5 H 0.7090 0.9405 0.7330 0.0580 Uiso
H6 H 0.7068 0.9803 0.8809 0.0580 Uiso
C7 C 0.5154(8) 0.8645(7) 0.7140(8) 0.0490 Uani
H7 H 0.5657 0.8118 0.6836 0.0590 Uiso
C8 C 0.4191(11) 0.8094(9) 0.7762(14) 0.0967 Uani
H8 H 0.4421 0.7551 0.8356 0.1450 Uiso
H9 H 0.3772 0.7797 0.7062 0.1450 Uiso
H10 H 0.3784 0.8594 0.8254 0.1450 Uiso
C9 C 0.4780(6) 0.9289(7) 0.5943(8) 0.0417 Uani
C10 C 0.8590(15) 0.3268(13) 1.1020(17) 0.1057 Uani
C11 C 0.830(2) 0.2169(17) 1.117(3) 0.2107 Uani
H11 H 0.7552 0.2106 1.1172 0.3160 Uiso
H12 H 0.8571 0.1907 1.2005 0.3160 Uiso
H13 H 0.8584 0.1771 1.0445 0.3160 Uiso
N1 N 0.8261(6) 0.6450(6) 0.9680(7) 0.0487 Uani
N2 N 0.5655(5) 0.9329(5) 0.8156(7) 0.0440 Uani
H14 H 0.5416 0.9115 0.8959 0.0530 Uiso
O1 O 0.4780(4) 1.0261(4) 0.5996(6) 0.0417 Uani
O2 O 0.4455(5) 0.8753(5) 0.4954(6) 0.0520 Uani
O3 O 0.8107(6) 0.3937(6) 1.0452(10) 0.0857 Uani
O4 O 0.9528(10) 0.3363(10) 1.1403(14) 0.1427 Uani
Zn1 Zn 0.90972(7) 0.51723(7) 1.04161(7) 0.0401 Uani
N2B N 1.0671(5) 0.5655(5) 1.0656(7) 0.0440 Uani
O1B O 0.9739(4) 0.4780(4) 0.8496(6) 0.0417 Uani
O2C O 0.8753(5) 0.5545(5) 1.2454(6) 0.0520 Uani
Zn1B Zn 0.48277(7) 0.90972(7) 0.29161(7) 0.0401 Uani
Zn1C Zn 0.51723(7) 1.09028(7) 0.79161(7) 0.0401 Uani
loop_
_atom_site_aniso_label
_atom_site_aniso_U_11
_atom_site_aniso_U_22
_atom_site_aniso_U_33
_atom_site_aniso_U_23
_atom_site_aniso_U_13
_atom_site_aniso_U_12
C1 0.063(4) 0.077(5) 0.042(4) 0.004(5) 0.007(4) 0.022(4)
C2 0.071(5) 0.074(5) 0.039(4) 0.008(4) 0.011(4) 0.024(4)
C3 0.056(4) 0.070(5) 0.035(4) 0.000(4) 0.002(3) 0.012(4)
C4 0.066(5) 0.075(5) 0.038(4) -0.001(4) 0.005(4) 0.018(4)
C5 0.066(5) 0.075(5) 0.035(4) 0.003(4) 0.009(4) 0.025(4)
C6 0.051(4) 0.057(4) 0.037(5) -0.001(3) 0.003(3) 0.009(3)
C7 0.072(5) 0.047(4) 0.028(4) -0.002(3) -0.007(4) -0.001(4)
C8 0.133(9) 0.085(7) 0.072(8) 0.017(7) 0.000(8) -0.055(7)
C9 0.053(4) 0.051(4) 0.021(3) -0.001(3) -0.002(3) -0.014(3)
C10 0.131(8) 0.096(6) 0.090(7) -0.001(6) -0.015(7) -0.030(6)
C11 0.251(17) 0.160(11) 0.221(17) 0.033(14) -0.011(16) -0.054(13)
N1 0.053(4) 0.064(4) 0.029(3) 0.003(3) 0.003(3) 0.017(3)
N2 0.055(4) 0.050(3) 0.027(4) 0.000(3) 0.000(3) 0.006(3)
O1 0.057(3) 0.040(3) 0.028(2) 0.000(2) -0.005(2) 0.001(3)
O2 0.076(4) 0.053(3) 0.027(3) 0.006(2) -0.005(3) -0.020(3)
O3 0.099(5) 0.100(5) 0.058(4) -0.008(5) 0.003(5) -0.030(4)
O4 0.165(9) 0.125(8) 0.138(10) -0.016(7) -0.042(8) 0.012(7)
Zn1 0.0441(5) 0.0530(6) 0.0232(4) 0.0002(4) -0.0020(4) 0.0003(4)
N2B 0.05 0.055 0.027 0 0 -0.006
O1B 0.04 0.057 0.028 -0.005 0 -0.001
O2C 0.053 0.076 0.027 0.005 0.006 0.02
Zn1B 0.053 0.0441 0.0232 -0.002 -0.0002 -0.0003
Zn1C 0.053 0.0441 0.0232 0.002 0.0002 -0.0003
loop_
_geom_bond_atom_site_label_1
_geom_bond_atom_site_label_2
_geom_bond_site_symmetry_1
_geom_bond_site_symmetry_2
C1 H1 1_555 1_555
C2 C1 1_555 1_555
H2 C2 1_555 1_555
C3 C2 1_555 1_555
C4 C3 1_555 1_555
H3 C4 1_555 1_555
C5 C4 1_555 1_555
H4 C5 1_555 1_555
C6 C3 1_555 1_555
H5 C6 1_555 1_555
H6 C6 1_555 1_555
C7 H7 1_555 1_555
C8 C7 1_555 1_555
H8 C8 1_555 1_555
H9 C8 1_555 1_555
H10 C8 1_555 1_555
C9 C7 1_555 1_555
C10 C11 1_555 1_555
C11 H11 1_555 1_555
H12 C11 1_555 1_555
H13 C11 1_555 1_555
N1 C1 1_555 1_555
N2 C6 1_555 1_555
H14 N2 1_555 1_555
O1 C9 1_555 1_555
O2 C9 1_555 1_555
O3 C10 1_555 1_555
O4 C10 1_555 1_555
Zn1 N1 1_555 1_555
N2B Zn1 1_555 1_555
O1B Zn1 1_555 1_555
O2C Zn1 1_555 1_555
Zn1B O2 1_555 1_555
Zn1C N2 1_555 1_555
C5 N1 1_555 1_555
C7 N2 1_555 1_555
O1 Zn1C 1_555 1_555
O3 Zn1 1_555 1_555
O4 Zn1 1_555 1_555

#END
