
#######################################################################
#
#                 Cambridge Crystallographic Data Centre
#                                CCDC 
#
#######################################################################
#
# If this CIF has been generated from an entry in the Cambridge 
# Structural Database, then it will include bibliographic, chemical, 
# crystal, experimental, refinement or atomic coordinate data resulting 
# from the CCDC's data processing and validation procedures.
#
#######################################################################

data_BUVVIZ
_chemical_formula_moiety         '(C95 H71 N16 O42 Tb5)n'
_symmetry_cell_setting           monoclinic
_symmetry_space_group_name_H-M   'C 2/c'
_symmetry_Int_Tables_number      15
_space_group_name_Hall           '-C 2yc'
loop_
_symmetry_equiv_pos_site_id
_symmetry_equiv_pos_as_xyz
1 x,y,z
2 -x,y,1/2-z
3 1/2+x,1/2+y,z
4 1/2-x,1/2+y,1/2-z
5 -x,-y,-z
6 x,-y,1/2+z
7 1/2-x,1/2-y,-z
8 1/2+x,1/2-y,1/2+z
_cell_length_a                   15.5659(12)
_cell_length_b                   29.759(2)
_cell_length_c                   22.7134(19)
_cell_angle_alpha                90
_cell_angle_beta                 97.1550(10)
_cell_angle_gamma                90
_cell_volume                     10439.5
loop_
_atom_site_label
_atom_site_type_symbol
_atom_site_fract_x
_atom_site_fract_y
_atom_site_fract_z
Tb1 Tb 0.556811(16) 0.170705(8) 0.384881(11)
Tb2 Tb 0.811507(14) 0.056863(7) 0.596813(9)
Tb3 Tb 0.5000 0.023047(9) 0.7500
N1 N 0.5875(3) 0.23172(15) 0.4617(2)
N2 N 0.6876(3) 0.22306(13) 0.37710(18)
N3 N 0.6687(3) 0.14545(13) 0.32009(19)
N4 N 0.9357(2) 0.40465(12) 0.29112(17)
N5 N 0.9356(3) 0.08985(14) 0.55183(17)
N6 N 0.8377(3) 0.02635(13) 0.49592(16)
N7 N 0.7017(3) 0.00241(13) 0.54986(17)
N8 N 0.8743(3) -0.04536(14) 0.20488(17)
O1 O 0.4826(3) 0.16368(16) 0.4686(2)
O2 O 0.4186(5) 0.1956(2) 0.5387(3)
O3 O 0.5449(3) 0.09457(13) 0.35429(19)
O4 O 0.5763(3) 0.03817(12) 0.2955(2)
O5 O 0.8077(3) 0.38518(13) 0.15410(17)
O6 O 0.8884(2) 0.44397(11) 0.18698(15)
O7 O 0.8603(2) 0.12605(12) 0.63638(15)
O8 O 0.9664(3) 0.17570(14) 0.65945(19)
O9 O 0.6995(2) 0.04180(13) 0.65319(16)
O10 O 0.5816(2) 0.00424(12) 0.67140(16)
O11 O 0.9281(3) 0.06609(13) 0.17807(17)
O12 O 0.8827(2) 0.01031(12) 0.11664(15)
O13 O 0.6624(3) 0.13871(14) 0.45555(19)
O14 O 0.7243(2) 0.10291(12) 0.53351(16)
O15 O 0.5142(8) 0.1835(4) 0.2814(5)
O16 O 0.4031(4) 0.1560(3) 0.3547(3)
O17 O 0.4601(6) 0.2405(3) 0.3766(4)
C1 C 0.4729(5) 0.1944(2) 0.5042(3)
C2 C 0.5361(4) 0.2336(2) 0.5050(3)
C3 C 0.5404(5) 0.2677(2) 0.5467(3)
H1 H 0.5037 0.2678 0.5760
C4 C 0.5998(4) 0.3013(2) 0.5440(3)
H2 H 0.6038 0.3247 0.5713
C5 C 0.6543(4) 0.29996(19) 0.4998(3)
H3 H 0.6959 0.3221 0.4977
C6 C 0.6455(3) 0.26504(17) 0.4591(2)
C7 C 0.6987(3) 0.26095(15) 0.4095(2)
C8 C 0.7553(3) 0.29470(16) 0.3967(2)
H4 H 0.7648 0.3196 0.4214
C9 C 0.7974(3) 0.29076(16) 0.3468(2)
C10 C 0.7886(3) 0.25140(17) 0.3147(2)
H5 H 0.8175 0.2475 0.2817
C11 C 0.7361(3) 0.21757(15) 0.3324(2)
C12 C 0.7288(3) 0.17294(16) 0.3027(3)
C13 C 0.7818(4) 0.1595(2) 0.2617(3)
H6 H 0.8243 0.1787 0.2508
C14 C 0.7710(5) 0.1175(2) 0.2373(3)
H7 H 0.8058 0.1082 0.2092
C15 C 0.7090(4) 0.08899(19) 0.2544(3)
H8 H 0.7011 0.0603 0.2383
C16 C 0.6590(3) 0.10433(17) 0.2959(2)
C17 C 0.5872(3) 0.07643(17) 0.3171(2)
C18 C 0.9520(3) 0.38788(16) 0.3463(2)
H9 H 0.9946 0.4017 0.3725
C19 C 0.9099(4) 0.35181(17) 0.3663(2)
H10 H 0.9227 0.3419 0.4052
C20 C 0.8475(3) 0.33008(15) 0.3272(2)
C21 C 0.8307(3) 0.34653(16) 0.2698(2)
H11 H 0.7902 0.3325 0.2422
C22 C 0.8749(3) 0.38407(15) 0.2541(2)
C23 C 0.8545(3) 0.40543(17) 0.1933(2)
C24 C 0.9335(4) 0.14337(18) 0.6304(2)
C25 C 0.9798(3) 0.12273(17) 0.5826(2)
C26 C 1.0591(4) 0.1380(2) 0.5682(3)
H12 H 1.0888 0.1609 0.5898
C27 C 1.0924(4) 0.1181(2) 0.5210(3)
H13 H 1.1464 0.1268 0.5114
C28 C 1.0453(4) 0.0852(2) 0.4880(3)
H14 H 1.0665 0.0719 0.4557
C29 C 0.9662(3) 0.07253(18) 0.5043(2)
C30 C 0.9059(3) 0.04036(17) 0.4702(2)
C31 C 0.9185(3) 0.02767(18) 0.4127(2)
H15 H 0.9656 0.0384 0.3955
C32 C 0.8594(3) -0.00127(17) 0.3818(2)
C33 C 0.7900(3) -0.01630(19) 0.4087(2)
H16 H 0.7500 -0.0360 0.3889
C34 C 0.7802(3) -0.00174(17) 0.4660(2)
C35 C 0.7058(3) -0.01615(18) 0.4964(2)
C36 C 0.6443(5) -0.0468(3) 0.4721(3)
H17 H 0.6468 -0.0589 0.4346
C37 C 0.5790(5) -0.0589(3) 0.5053(3)
H18 H 0.5374 -0.0798 0.4904
C38 C 0.5755(4) -0.0402(2) 0.5602(3)
H19 H 0.5324 -0.0483 0.5830
C39 C 0.6367(3) -0.00943(17) 0.5804(2)
C40 C 0.6395(3) 0.01409(16) 0.6403(2)
C41 C 0.8604(3) -0.07503(18) 0.2476(2)
H20 H 0.8532 -0.1053 0.2379
C42 C 0.8567(3) -0.06148(18) 0.3056(2)
H21 H 0.8455 -0.0823 0.3341
C43 C 0.8699(3) -0.01680(18) 0.3207(2)
C44 C 0.8887(3) 0.01335(18) 0.2768(2)
H22 H 0.9009 0.0433 0.2858
C45 C 0.8888(3) -0.00254(16) 0.2198(2)
C46 C 0.9014(3) 0.02812(17) 0.1684(2)
C47 C 0.6735(4) 0.10662(19) 0.4880(3)
H23 H 0.6394 0.0816 0.4772
C48 C 0.5000 0.2170(4) 0.2500
O15A O 0.4858(8) 0.1835(4) 0.2186(5)
Tb1A Tb 0.443189(16) 0.170705(8) 0.115119(11)
Tb2A Tb 0.188493(14) 0.056863(7) -0.096813(9)
N1A N 0.4125(3) 0.23172(15) 0.0383(2)
N2A N 0.3124(3) 0.22306(13) 0.12290(18)
N3A N 0.3313(3) 0.14545(13) 0.17991(19)
N4A N 0.0643(2) 0.40465(12) 0.20888(17)
N5A N 0.0644(3) 0.08985(14) -0.05183(17)
N6A N 0.1623(3) 0.02635(13) 0.00408(16)
N7A N 0.2983(3) 0.00241(13) -0.04986(17)
N8A N 0.1257(3) -0.04536(14) 0.29512(17)
O1A O 0.5174(3) 0.16368(16) 0.0314(2)
O2A O 0.5814(5) 0.1956(2) -0.0387(3)
O3A O 0.4551(3) 0.09457(13) 0.14571(19)
O4A O 0.4237(3) 0.03817(12) 0.2045(2)
O5A O 0.1923(3) 0.38518(13) 0.34590(17)
O6A O 0.1116(2) 0.44397(11) 0.31302(15)
O7A O 0.1397(2) 0.12605(12) -0.13638(15)
O8A O 0.0336(3) 0.17570(14) -0.15945(19)
O9A O 0.3005(2) 0.04180(13) -0.15319(16)
O10A O 0.4184(2) 0.00424(12) -0.17140(16)
O11A O 0.0719(3) 0.06609(13) 0.32193(17)
O12A O 0.1173(2) 0.01031(12) 0.38336(15)
O13A O 0.3376(3) 0.13871(14) 0.04445(19)
O14A O 0.2757(2) 0.10291(12) -0.03351(16)
O16A O 0.5969(4) 0.1560(3) 0.1453(3)
O17A O 0.5399(6) 0.2405(3) 0.1234(4)
C1A C 0.5271(5) 0.1944(2) -0.0042(3)
C2A C 0.4639(4) 0.2336(2) -0.0050(3)
C3A C 0.4596(5) 0.2677(2) -0.0467(3)
H1A H 0.4963 0.2678 -0.0760
C4A C 0.4002(4) 0.3013(2) -0.0440(3)
H2A H 0.3962 0.3247 -0.0713
C5A C 0.3457(4) 0.29996(19) 0.0002(3)
H3A H 0.3041 0.3221 0.0023
C6A C 0.3545(3) 0.26504(17) 0.0409(2)
C7A C 0.3013(3) 0.26095(15) 0.0905(2)
C8A C 0.2447(3) 0.29470(16) 0.1033(2)
H4A H 0.2352 0.3196 0.0786
C9A C 0.2026(3) 0.29076(16) 0.1532(2)
C10A C 0.2114(3) 0.25140(17) 0.1853(2)
H5A H 0.1825 0.2475 0.2183
C11A C 0.2639(3) 0.21757(15) 0.1676(2)
C12A C 0.2712(3) 0.17294(16) 0.1973(3)
C13A C 0.2182(4) 0.1595(2) 0.2383(3)
H6A H 0.1757 0.1787 0.2492
C14A C 0.2290(5) 0.1175(2) 0.2627(3)
H7A H 0.1942 0.1082 0.2908
C15A C 0.2910(4) 0.08899(19) 0.2456(3)
H8A H 0.2989 0.0603 0.2617
C16A C 0.3410(3) 0.10433(17) 0.2041(2)
C17A C 0.4128(3) 0.07643(17) 0.1829(2)
C18A C 0.0480(3) 0.38788(16) 0.1537(2)
H9A H 0.0054 0.4017 0.1275
C19A C 0.0901(4) 0.35181(17) 0.1337(2)
H10A H 0.0773 0.3419 0.0948
C20A C 0.1525(3) 0.33008(15) 0.1728(2)
C21A C 0.1693(3) 0.34653(16) 0.2302(2)
H11A H 0.2098 0.3325 0.2578
C22A C 0.1251(3) 0.38407(15) 0.2459(2)
C23A C 0.1455(3) 0.40543(17) 0.3067(2)
C24A C 0.0665(4) 0.14337(18) -0.1304(2)
C25A C 0.0202(3) 0.12273(17) -0.0826(2)
C26A C -0.0591(4) 0.1380(2) -0.0682(3)
H12A H -0.0888 0.1609 -0.0898
C27A C -0.0924(4) 0.1181(2) -0.0210(3)
H13A H -0.1464 0.1268 -0.0114
C28A C -0.0453(4) 0.0852(2) 0.0120(3)
H14A H -0.0665 0.0719 0.0443
C29A C 0.0338(3) 0.07253(18) -0.0043(2)
C30A C 0.0941(3) 0.04036(17) 0.0298(2)
C31A C 0.0815(3) 0.02767(18) 0.0873(2)
H15A H 0.0344 0.0384 0.1045
C32A C 0.1406(3) -0.00127(17) 0.1182(2)
C33A C 0.2100(3) -0.01630(19) 0.0913(2)
H16A H 0.2500 -0.0360 0.1111
C34A C 0.2198(3) -0.00174(17) 0.0340(2)
C35A C 0.2942(3) -0.01615(18) 0.0036(2)
C36A C 0.3557(5) -0.0468(3) 0.0279(3)
H17A H 0.3532 -0.0589 0.0654
C37A C 0.4210(5) -0.0589(3) -0.0053(3)
H18A H 0.4626 -0.0798 0.0096
C38A C 0.4245(4) -0.0402(2) -0.0602(3)
H19A H 0.4676 -0.0483 -0.0830
C39A C 0.3633(3) -0.00943(17) -0.0804(2)
C40A C 0.3605(3) 0.01409(16) -0.1403(2)
C41A C 0.1396(3) -0.07503(18) 0.2524(2)
H20A H 0.1468 -0.1053 0.2621
C42A C 0.1433(3) -0.06148(18) 0.1944(2)
H21A H 0.1545 -0.0823 0.1659
C43A C 0.1301(3) -0.01680(18) 0.1793(2)
C44A C 0.1113(3) 0.01335(18) 0.2232(2)
H22A H 0.0991 0.0433 0.2142
C45A C 0.1112(3) -0.00254(16) 0.2802(2)
C46A C 0.0986(3) 0.02812(17) 0.3316(2)
C47A C 0.3265(4) 0.10662(19) 0.0120(3)
H23A H 0.3606 0.0816 0.0228
Tb2D Tb 0.188493(14) -0.056863(7) 0.403187(9)
Tb2E Tb 0.811507(14) -0.056863(7) 0.096813(9)
Tb3_2 Tb 0.5000 0.023047(9) -0.2500
Tb3D Tb 0.5000 -0.023047(9) 0.2500
Tb3F Tb 0.0000 0.476953(9) 0.2500
Tb3F_2 Tb 1.0000 0.476953(9) 0.2500
N4F N 0.5643(2) 0.09535(12) 0.70888(17)
N4G N 0.4357(2) 0.09535(12) 0.79112(17)
N8D N 0.1257(3) 0.04536(14) -0.20488(17)
N8E N 0.8743(3) 0.04536(14) 0.70488(17)
O4D O 0.4237(3) -0.03817(12) 0.7045(2)
O4E O 0.5763(3) -0.03817(12) 0.7955(2)
O6F O 0.6116(2) 0.05603(11) 0.81302(15)
O6G O 0.3884(2) 0.05603(11) 0.68698(15)
O10A_2 O 0.4184(2) 0.00424(12) 0.82860(16)
O12D O 0.1173(2) -0.01031(12) -0.11664(15)
O12E O 0.8827(2) -0.01031(12) 0.61664(15)
O18 O 0.1220(3) 0.81099(19) 0.2352(2)
O19 O 0.3069(7) 0.7543(3) 0.8278(5)
O20 O 0.8350(10) 0.2943(3) 0.1336(6)
O21 O 0.2738(8) 0.8548(7) 0.9271(6)
O22 O 0.9383(12) 0.2325(5) 0.2039(9)
O23 O 0.9272(16) 0.1545(4) 0.1317(7)
O24 O 0.3134(14) 0.7289(9) 0.9609(19)
O25 O 0.2884(11) 0.8515(10) 0.0448(9)
loop_
_geom_bond_atom_site_label_1
_geom_bond_atom_site_label_2
_geom_bond_site_symmetry_1
_geom_bond_site_symmetry_2
Tb1 N1 1_555 1_555
Tb2 N5 1_555 1_555
Tb3 O10 1_555 1_555
N1 C2 1_555 1_555
N2 Tb1 1_555 1_555
N3 Tb1 1_555 1_555
N4 C18 1_555 1_555
N5 C25 1_555 1_555
N6 Tb2 1_555 1_555
N7 Tb2 1_555 1_555
N8 C41 1_555 1_555
O1 Tb1 1_555 1_555
O2 C1 1_555 1_555
O3 Tb1 1_555 1_555
O4 C17 1_555 1_555
O5 C23 1_555 1_555
O6 C23 1_555 1_555
O7 Tb2 1_555 1_555
O8 C24 1_555 1_555
O9 Tb2 1_555 1_555
O10 C40 1_555 1_555
O11 C46 1_555 1_555
O12 C46 1_555 1_555
O13 Tb1 1_555 1_555
O14 Tb2 1_555 1_555
O15 Tb1 1_555 1_555
O16 Tb1 1_555 1_555
O17 Tb1 1_555 1_555
C1 O1 1_555 1_555
C2 C1 1_555 1_555
C3 C2 1_555 1_555
H1 C3 1_555 1_555
C4 C3 1_555 1_555
H2 C4 1_555 1_555
C5 C4 1_555 1_555
H3 C5 1_555 1_555
C6 N1 1_555 1_555
C7 N2 1_555 1_555
C8 C7 1_555 1_555
H4 C8 1_555 1_555
C9 C8 1_555 1_555
C10 C9 1_555 1_555
H5 C10 1_555 1_555
C11 N2 1_555 1_555
C12 N3 1_555 1_555
C13 C12 1_555 1_555
H6 C13 1_555 1_555
C14 C13 1_555 1_555
H7 C14 1_555 1_555
C15 C14 1_555 1_555
H8 C15 1_555 1_555
C16 N3 1_555 1_555
C17 O3 1_555 1_555
C18 H9 1_555 1_555
C19 C18 1_555 1_555
H10 C19 1_555 1_555
C20 C9 1_555 1_555
C21 C20 1_555 1_555
H11 C21 1_555 1_555
C22 N4 1_555 1_555
C23 C22 1_555 1_555
C24 O7 1_555 1_555
C25 C24 1_555 1_555
C26 C25 1_555 1_555
H12 C26 1_555 1_555
C27 C26 1_555 1_555
H13 C27 1_555 1_555
C28 C27 1_555 1_555
H14 C28 1_555 1_555
C29 N5 1_555 1_555
C30 N6 1_555 1_555
C31 C30 1_555 1_555
H15 C31 1_555 1_555
C32 C31 1_555 1_555
C33 C32 1_555 1_555
H16 C33 1_555 1_555
C34 N6 1_555 1_555
C35 N7 1_555 1_555
C36 C35 1_555 1_555
H17 C36 1_555 1_555
C37 C36 1_555 1_555
H18 C37 1_555 1_555
C38 C37 1_555 1_555
H19 C38 1_555 1_555
C39 N7 1_555 1_555
C40 O9 1_555 1_555
C41 H20 1_555 1_555
C42 C41 1_555 1_555
H21 C42 1_555 1_555
C43 C32 1_555 1_555
C44 C43 1_555 1_555
H22 C44 1_555 1_555
C45 N8 1_555 1_555
C46 C45 1_555 1_555
C47 O13 1_555 1_555
H23 C47 1_555 1_555
C48 O15 1_555 1_555
O15A C48 1_555 1_555
Tb1A O15A 1_555 1_555
Tb2A N5A 1_555 1_555
N1A Tb1A 1_555 1_555
N2A Tb1A 1_555 1_555
N3A Tb1A 1_555 1_555
N4A C18A 1_555 1_555
N5A C25A 1_555 1_555
N6A Tb2A 1_555 1_555
N7A Tb2A 1_555 1_555
N8A C41A 1_555 1_555
O1A Tb1A 1_555 1_555
O2A C1A 1_555 1_555
O3A Tb1A 1_555 1_555
O4A C17A 1_555 1_555
O5A C23A 1_555 1_555
O6A C23A 1_555 1_555
O7A Tb2A 1_555 1_555
O8A C24A 1_555 1_555
O9A Tb2A 1_555 1_555
O10A C40A 1_555 1_555
O11A C46A 1_555 1_555
O12A C46A 1_555 1_555
O13A Tb1A 1_555 1_555
O14A Tb2A 1_555 1_555
O16A Tb1A 1_555 1_555
O17A Tb1A 1_555 1_555
C1A O1A 1_555 1_555
C2A N1A 1_555 1_555
C3A C2A 1_555 1_555
H1A C3A 1_555 1_555
C4A C3A 1_555 1_555
H2A C4A 1_555 1_555
C5A C4A 1_555 1_555
H3A C5A 1_555 1_555
C6A N1A 1_555 1_555
C7A N2A 1_555 1_555
C8A C7A 1_555 1_555
H4A C8A 1_555 1_555
C9A C8A 1_555 1_555
C10A C9A 1_555 1_555
H5A C10A 1_555 1_555
C11A N2A 1_555 1_555
C12A N3A 1_555 1_555
C13A C12A 1_555 1_555
H6A C13A 1_555 1_555
C14A C13A 1_555 1_555
H7A C14A 1_555 1_555
C15A C14A 1_555 1_555
H8A C15A 1_555 1_555
C16A N3A 1_555 1_555
C17A O3A 1_555 1_555
C18A H9A 1_555 1_555
C19A C18A 1_555 1_555
H10A C19A 1_555 1_555
C20A C9A 1_555 1_555
C21A C20A 1_555 1_555
H11A C21A 1_555 1_555
C22A N4A 1_555 1_555
C23A C22A 1_555 1_555
C24A O7A 1_555 1_555
C25A C24A 1_555 1_555
C26A C25A 1_555 1_555
H12A C26A 1_555 1_555
C27A C26A 1_555 1_555
H13A C27A 1_555 1_555
C28A C27A 1_555 1_555
H14A C28A 1_555 1_555
C29A N5A 1_555 1_555
C30A N6A 1_555 1_555
C31A C30A 1_555 1_555
H15A C31A 1_555 1_555
C32A C31A 1_555 1_555
C33A C32A 1_555 1_555
H16A C33A 1_555 1_555
C34A N6A 1_555 1_555
C35A N7A 1_555 1_555
C36A C35A 1_555 1_555
H17A C36A 1_555 1_555
C37A C36A 1_555 1_555
H18A C37A 1_555 1_555
C38A C37A 1_555 1_555
H19A C38A 1_555 1_555
C39A N7A 1_555 1_555
C40A O9A 1_555 1_555
C41A H20A 1_555 1_555
C42A C41A 1_555 1_555
H21A C42A 1_555 1_555
C43A C32A 1_555 1_555
C44A C43A 1_555 1_555
H22A C44A 1_555 1_555
C45A N8A 1_555 1_555
C46A C45A 1_555 1_555
C47A O13A 1_555 1_555
H23A C47A 1_555 1_555
Tb2D N8A 1_555 1_555
Tb2E N8 1_555 1_555
Tb3_2 O10A 1_555 1_555
Tb3D O4 1_555 1_555
Tb3F N4A 1_555 1_555
Tb3F_2 N4 1_555 1_555
N4F Tb3 1_555 1_555
N4G Tb3 1_555 1_555
N8D Tb2A 1_555 1_555
N8E Tb2 1_555 1_555
O4D Tb3 1_555 1_555
O4E Tb3 1_555 1_555
O6F Tb3 1_555 1_555
O6G Tb3 1_555 1_555
O10A_2 Tb3 1_555 1_555
O12D Tb2A 1_555 1_555
O12E Tb2 1_555 1_555
O6 Tb3F_2 1_555 1_555
O12 Tb2E 1_555 1_555
O14 C47 1_555 1_555
C5 C6 1_555 1_555
C6 C7 1_555 1_555
C10 C11 1_555 1_555
C11 C12 1_555 1_555
C15 C16 1_555 1_555
C16 C17 1_555 1_555
C19 C20 1_555 1_555
C21 C22 1_555 1_555
C28 C29 1_555 1_555
C29 C30 1_555 1_555
C33 C34 1_555 1_555
C34 C35 1_555 1_555
C38 C39 1_555 1_555
C39 C40 1_555 1_555
C42 C43 1_555 1_555
C44 C45 1_555 1_555
O4A Tb3D 1_555 1_555
O6A Tb3F 1_555 1_555
O12A Tb2D 1_555 1_555
O14A C47A 1_555 1_555
C1A C2A 1_555 1_555
C5A C6A 1_555 1_555
C6A C7A 1_555 1_555
C10A C11A 1_555 1_555
C11A C12A 1_555 1_555
C15A C16A 1_555 1_555
C16A C17A 1_555 1_555
C19A C20A 1_555 1_555
C21A C22A 1_555 1_555
C28A C29A 1_555 1_555
C29A C30A 1_555 1_555
C33A C34A 1_555 1_555
C34A C35A 1_555 1_555
C38A C39A 1_555 1_555
C39A C40A 1_555 1_555
C42A C43A 1_555 1_555
C44A C45A 1_555 1_555

#END
