
#######################################################################
#
#                 Cambridge Crystallographic Data Centre
#                                CCDC 
#
#######################################################################
#
# If this CIF has been generated from an entry in the Cambridge 
# Structural Database, then it will include bibliographic, chemical, 
# crystal, experimental, refinement or atomic coordinate data resulting 
# from the CCDC's data processing and validation procedures.
#
#######################################################################

data_BUVVOF
_chemical_formula_moiety         '(C94 H62 Dy5 N16 O38)n'
_symmetry_cell_setting           monoclinic
_symmetry_space_group_name_H-M   'C 2/c'
_symmetry_Int_Tables_number      15
_space_group_name_Hall           '-C 2yc'
loop_
_symmetry_equiv_pos_site_id
_symmetry_equiv_pos_as_xyz
1 x,y,z
2 -x,y,1/2-z
3 1/2+x,1/2+y,z
4 1/2-x,1/2+y,1/2-z
5 -x,-y,-z
6 x,-y,1/2+z
7 1/2-x,1/2-y,-z
8 1/2+x,1/2-y,1/2+z
_cell_length_a                   15.5149(11)
_cell_length_b                   29.726(2)
_cell_length_c                   22.6206(17)
_cell_angle_alpha                90
_cell_angle_beta                 97.5490(10)
_cell_angle_gamma                90
_cell_volume                     10342.1
loop_
_atom_site_label
_atom_site_type_symbol
_atom_site_fract_x
_atom_site_fract_y
_atom_site_fract_z
Dy1 Dy 0.5000 0.025123(14) 0.2500
N1 N 0.4357(4) 0.0969(2) 0.2914(3)
O1 O 0.3876(4) 0.05737(17) 0.1867(2)
O2 O 0.4216(4) 0.00645(19) 0.3297(3)
O3 O 0.0779(4) 0.46400(19) 0.2941(3)
C1 C 0.3750(5) 0.1178(3) 0.2534(3)
C2 C 0.4524(5) 0.1138(3) 0.3467(4)
C3 C 0.3540(5) 0.0964(3) 0.1918(4)
C4 C 0.3639(5) 0.0157(3) 0.3606(3)
C5 C 0.3308(5) 0.1556(3) 0.2690(4)
C6 C 0.4108(6) 0.1505(3) 0.3669(4)
H1 H 0.4949 0.0997 0.3732
O4 O 0.3075(4) 0.1166(2) 0.1522(3)
C7 C 0.3661(5) -0.0078(3) 0.4204(4)
O5 O 0.3011(4) 0.0427(2) 0.3467(3)
C8 C 0.3472(6) 0.1719(2) 0.3267(4)
H2 H 0.2906 0.1699 0.2410
H3 H 0.4243 0.1607 0.4059
C9 C 0.4281(6) -0.0388(4) 0.4401(4)
N2 N 0.3001(4) 0.0041(2) 0.4512(3)
Dy2 Dy 0.19033(2) 0.057691(12) 0.403344(15)
C10 C 0.2972(5) 0.2109(3) 0.3460(4)
H4 H 0.4714 -0.0470 0.4174
C11 C 0.4233(9) -0.0575(5) 0.4957(5)
C12 C 0.2952(6) -0.0144(3) 0.5046(4)
N3 N 0.1635(4) 0.0274(2) 0.5041(3)
N4 N 0.0657(4) 0.0898(2) 0.4470(3)
O6 O 0.1427(4) 0.12632(19) 0.3633(2)
O7 O 0.2765(4) 0.1039(2) 0.4663(3)
N5 N 0.1277(4) -0.0455(2) 0.7953(3)
O8 O 0.1197(4) 0.00944(19) 0.8853(2)
C13 C 0.2533(5) 0.2073(2) 0.3954(4)
C14 C 0.2890(6) 0.2506(3) 0.3131(4)
H5 H 0.4643 -0.0788 0.5107
C15 C 0.3599(8) -0.0455(5) 0.5286(5)
C16 C 0.2222(6) -0.0005(3) 0.5345(4)
C17 C 0.0944(5) 0.0408(3) 0.5295(3)
C18 C 0.0353(5) 0.0723(3) 0.4942(3)
C19 C 0.0190(5) 0.1230(3) 0.4161(4)
C20 C 0.0697(6) 0.1436(3) 0.3682(4)
C21 C 0.3269(7) 0.1094(3) 0.5114(4)
C22 C 0.1980(5) 0.2409(3) 0.4081(4)
H6 H 0.2612 0.1821 0.4198
H7 H 0.3191 0.2547 0.2806
C23 C 0.2344(5) 0.2841(3) 0.3301(4)
H8 H 0.3590 -0.0574 0.5665
C24 C 0.2119(6) -0.0151(3) 0.5913(4)
C25 C 0.0829(6) 0.0280(3) 0.5864(4)
C26 C -0.0459(6) 0.0855(4) 0.5085(4)
C27 C -0.0581(6) 0.1377(3) 0.4288(4)
O9 O 0.0347(5) 0.1752(2) 0.3384(3)
H9 H 0.3678 0.0866 0.5197
O10 O 0.3323(6) 0.1387(2) 0.5462(3)
C28 C 0.1430(5) 0.2371(3) 0.4566(4)
N6 N 0.1872(4) 0.2786(2) 0.3747(3)
C29 C 0.2283(6) 0.3285(3) 0.3009(5)
H10 H 0.2523 -0.0346 0.6116
C30 C 0.1413(5) -0.0004(3) 0.6176(3)
H11 H 0.0356 0.0387 0.6036
H12 H -0.0682 0.0723 0.5405
C31 C -0.0921(7) 0.1177(4) 0.4756(5)
H13 H -0.0878 0.1606 0.4068
Dy3 Dy 0.44230(13) 0.16927(7) 0.61824(8)
C32 C 0.1487(7) 0.2023(3) 0.4970(4)
N7 N 0.0847(5) 0.2697(2) 0.4576(3)
C33 C 0.2799(8) 0.3421(3) 0.2588(6)
N8 N 0.1689(4) 0.3564(2) 0.3174(3)
C34 C 0.1308(5) -0.0161(3) 0.6781(3)
H14 H -0.1466 0.1262 0.4846
C35 C 0.0942(7) 0.2016(3) 0.5409(5)
H15 H 0.1889 0.1793 0.4949
C36 C 0.0305(7) 0.2683(3) 0.4999(5)
O11 O -0.0222(6) 0.3379(3) 0.4609(5)
O12 O 0.0464(4) 0.4070(2) 0.3528(3)
H16 H 0.3229 0.3229 0.2484
C37 C 0.2683(9) 0.3839(4) 0.2321(7)
C38 C 0.1591(6) 0.3972(3) 0.2930(4)
C39 C 0.1438(6) -0.0611(3) 0.6933(3)
C40 C 0.1124(5) 0.0137(3) 0.7233(4)
C41 C 0.0345(8) 0.2344(4) 0.5408(5)
H17 H 0.0988 0.1791 0.5697
C42 C -0.0327(8) 0.3074(4) 0.4965(6)
C43 C 0.0882(6) 0.4254(3) 0.3155(4)
H18 H 0.3002 0.3925 0.2020
C44 C 0.2075(7) 0.4123(3) 0.2517(5)
H19 H 0.1540 -0.0820 0.6645
C45 C 0.1415(6) -0.0748(3) 0.7523(4)
H20 H 0.1008 0.0438 0.7150
C46 C 0.1120(5) -0.0030(3) 0.7805(3)
H21 H -0.0044 0.2339 0.5687
O13 O -0.0865(8) 0.3081(4) 0.5299(6)
H22 H 0.2001 0.4414 0.2367
H23 H 0.1498 -0.1050 0.7620
C47 C 0.1003(5) 0.0278(3) 0.8328(4)
O14 O 0.0723(4) 0.0660(2) 0.8236(3)
O15 O 0.4889(15) 0.1934(9) 0.7269(9)
O16 O 0.5951(9) 0.1584(6) 0.6446(7)
O15A O 0.5111(15) 0.1934(9) 0.7731(9)
N1A N 0.5643(4) 0.0969(2) 0.2086(3)
O1A O 0.6124(4) 0.05737(17) 0.3133(2)
O2A O 0.5784(4) 0.00645(19) 0.1703(3)
O3A O 0.9221(4) 0.46400(19) 0.2059(3)
C1A C 0.6250(5) 0.1178(3) 0.2466(3)
C2A C 0.5476(5) 0.1138(3) 0.1533(4)
C3A C 0.6460(5) 0.0964(3) 0.3082(4)
C4A C 0.6361(5) 0.0157(3) 0.1394(3)
C5A C 0.6692(5) 0.1556(3) 0.2310(4)
C6A C 0.5892(6) 0.1505(3) 0.1331(4)
H1A H 0.5051 0.0997 0.1268
O4A O 0.6925(4) 0.1166(2) 0.3478(3)
C7A C 0.6339(5) -0.0078(3) 0.0796(4)
O5A O 0.6989(4) 0.0427(2) 0.1533(3)
C8A C 0.6528(6) 0.1719(2) 0.1733(4)
H2A H 0.7094 0.1699 0.2590
H3A H 0.5757 0.1607 0.0941
C9A C 0.5719(6) -0.0388(4) 0.0599(4)
N2A N 0.6999(4) 0.0041(2) 0.0488(3)
Dy2A Dy 0.80967(2) 0.057691(12) 0.096656(15)
C10A C 0.7028(5) 0.2109(3) 0.1540(4)
H4A H 0.5286 -0.0470 0.0826
C11A C 0.5767(9) -0.0575(5) 0.0043(5)
C12A C 0.7048(6) -0.0144(3) -0.0046(4)
N3A N 0.8365(4) 0.0274(2) -0.0041(3)
N4A N 0.9343(4) 0.0898(2) 0.0530(3)
O6A O 0.8573(4) 0.12632(19) 0.1367(2)
O7A O 0.7235(4) 0.1039(2) 0.0337(3)
N5A N 0.8723(4) -0.0455(2) -0.2953(3)
O8A O 0.8803(4) 0.00944(19) -0.3853(2)
C13A C 0.7467(5) 0.2073(2) 0.1046(4)
C14A C 0.7110(6) 0.2506(3) 0.1869(4)
H5A H 0.5357 -0.0788 -0.0107
C15A C 0.6401(8) -0.0455(5) -0.0286(5)
C16A C 0.7778(6) -0.0005(3) -0.0345(4)
C17A C 0.9056(5) 0.0408(3) -0.0295(3)
C18A C 0.9647(5) 0.0723(3) 0.0058(3)
C19A C 0.9810(5) 0.1230(3) 0.0839(4)
C20A C 0.9303(6) 0.1436(3) 0.1318(4)
C21A C 0.6731(7) 0.1094(3) -0.0114(4)
C22A C 0.8020(5) 0.2409(3) 0.0919(4)
H6A H 0.7388 0.1821 0.0802
H7A H 0.6809 0.2547 0.2194
C23A C 0.7656(5) 0.2841(3) 0.1699(4)
H8A H 0.6410 -0.0574 -0.0665
C24A C 0.7881(6) -0.0151(3) -0.0913(4)
C25A C 0.9171(6) 0.0280(3) -0.0864(4)
C26A C 1.0459(6) 0.0855(4) -0.0085(4)
C27A C 1.0581(6) 0.1377(3) 0.0712(4)
O9A O 0.9653(5) 0.1752(2) 0.1616(3)
H9A H 0.6322 0.0866 -0.0197
O10A O 0.6677(6) 0.1387(2) -0.0462(3)
C28A C 0.8570(5) 0.2371(3) 0.0434(4)
N6A N 0.8128(4) 0.2786(2) 0.1253(3)
C29A C 0.7717(6) 0.3285(3) 0.1991(5)
H10A H 0.7477 -0.0346 -0.1116
C30A C 0.8587(5) -0.0004(3) -0.1176(3)
H11A H 0.9644 0.0387 -0.1036
H12A H 1.0682 0.0723 -0.0405
C31A C 1.0921(7) 0.1177(4) 0.0244(5)
H13A H 1.0878 0.1606 0.0932
Dy3A Dy 0.55770(13) 0.16927(7) -0.11824(8)
C32A C 0.8513(7) 0.2023(3) 0.0030(4)
N7A N 0.9153(5) 0.2697(2) 0.0424(3)
C33A C 0.7201(8) 0.3421(3) 0.2412(6)
N8A N 0.8311(4) 0.3564(2) 0.1826(3)
C34A C 0.8692(5) -0.0161(3) -0.1781(3)
H14A H 1.1466 0.1262 0.0154
C35A C 0.9058(7) 0.2016(3) -0.0409(5)
H15A H 0.8111 0.1793 0.0051
C36A C 0.9695(7) 0.2683(3) 0.0001(5)
O11A O 1.0222(6) 0.3379(3) 0.0391(5)
O12A O 0.9536(4) 0.4070(2) 0.1472(3)
H16A H 0.6771 0.3229 0.2516
C37A C 0.7317(9) 0.3839(4) 0.2679(7)
C38A C 0.8409(6) 0.3972(3) 0.2070(4)
C39A C 0.8562(6) -0.0611(3) -0.1933(3)
C40A C 0.8876(5) 0.0137(3) -0.2233(4)
C41A C 0.9655(8) 0.2344(4) -0.0408(5)
H17A H 0.9012 0.1791 -0.0697
C42A C 1.0327(8) 0.3074(4) 0.0035(6)
C43A C 0.9118(6) 0.4254(3) 0.1845(4)
H18A H 0.6998 0.3925 0.2980
C44A C 0.7925(7) 0.4123(3) 0.2483(5)
H19A H 0.8460 -0.0820 -0.1645
C45A C 0.8585(6) -0.0748(3) -0.2523(4)
H20A H 0.8992 0.0438 -0.2150
C46A C 0.8880(5) -0.0030(3) -0.2805(3)
H21A H 1.0044 0.2339 -0.0687
O13A O 1.0865(8) 0.3081(4) -0.0299(6)
H22A H 0.7999 0.4414 0.2633
H23A H 0.8502 -0.1050 -0.2620
C47A C 0.8997(5) 0.0278(3) -0.3328(4)
O14A O 0.9277(4) 0.0660(2) -0.3236(3)
O16A O 0.4049(9) 0.1584(6) -0.1446(7)
Dy1B Dy 0.0000 0.525123(14) 0.2500
Dy1B_2 Dy 1.0000 0.525123(14) 0.2500
O3B O 0.5779(4) -0.03600(19) 0.2941(3)
O3C O 0.4221(4) -0.03600(19) 0.2059(3)
Dy2D Dy 0.80967(2) -0.057691(12) -0.403344(15)
Dy2E Dy 0.19033(2) -0.057691(12) 0.903344(15)
N5D N 0.8723(4) 0.0455(2) 0.2047(3)
N5E N 0.1277(4) 0.0455(2) 0.2953(3)
O8D O 0.8803(4) -0.00944(19) 0.1147(2)
O8E O 0.1197(4) -0.00944(19) 0.3853(2)
N6F N 0.3128(4) 0.2214(2) 0.6253(3)
N6G N 0.6872(4) 0.2214(2) -0.1253(3)
Dy3A_2 Dy 0.55770(13) 0.16927(7) 0.88176(8)
Dy3F Dy 0.05770(13) 0.33073(7) 0.38176(8)
Dy3G Dy 0.94230(13) 0.33073(7) 0.11824(8)
N7F N 0.4153(5) 0.2303(2) 0.5424(3)
N7G N 0.5847(5) 0.2303(2) -0.0424(3)
N8F N 0.3311(4) 0.1436(2) 0.6826(3)
N8G N 0.6689(4) 0.1436(2) -0.1826(3)
O11F O 0.5222(6) 0.1621(3) 0.5391(5)
O11G O 0.4778(6) 0.1621(3) -0.0391(5)
O12F O 0.4536(4) 0.0930(2) 0.6472(3)
O12G O 0.5464(4) 0.0930(2) -0.1472(3)
O15A_2 O 0.5111(15) 0.1934(9) -0.2269(9)
O17 O 0.8776(6) 0.1903(3) 0.2665(4)
O18 O 0.7665(18) 0.3524(9) 0.4263(12)
O19 O 0.8336(11) 0.2942(5) 0.6289(7)
O20 O 0.8174(15) 0.2560(8) 0.3423(11)
O21 O 0.9129(14) 0.1566(7) 0.6228(9)
O22 O 0.9335(15) 0.2326(7) 0.6968(10)
loop_
_geom_bond_atom_site_label_1
_geom_bond_atom_site_label_2
_geom_bond_site_symmetry_1
_geom_bond_site_symmetry_2
Dy1 N1 1_555 1_555
N1 C1 1_555 1_555
O1 Dy1 1_555 1_555
O2 Dy1 1_555 1_555
O3 C43 1_555 1_555
C1 C3 1_555 1_555
C2 N1 1_555 1_555
C3 O1 1_555 1_555
C4 O2 1_555 1_555
C5 C1 1_555 1_555
C6 C2 1_555 1_555
H1 C2 1_555 1_555
O4 C3 1_555 1_555
C7 C4 1_555 1_555
O5 C4 1_555 1_555
C8 C5 1_555 1_555
H2 C5 1_555 1_555
H3 C6 1_555 1_555
C9 C7 1_555 1_555
N2 C7 1_555 1_555
Dy2 O5 1_555 1_555
C10 C8 1_555 1_555
H4 C9 1_555 1_555
C11 C9 1_555 1_555
C12 N2 1_555 1_555
N3 Dy2 1_555 1_555
N4 Dy2 1_555 1_555
O6 Dy2 1_555 1_555
O7 Dy2 1_555 1_555
N5 C45 1_555 1_555
O8 C47 1_555 1_555
C13 C10 1_555 1_555
C14 C10 1_555 1_555
H5 C11 1_555 1_555
C15 C11 1_555 1_555
C16 C12 1_555 1_555
C17 N3 1_555 1_555
C18 N4 1_555 1_555
C19 N4 1_555 1_555
C20 O6 1_555 1_555
C21 O7 1_555 1_555
C22 C13 1_555 1_555
H6 C13 1_555 1_555
H7 C14 1_555 1_555
C23 C14 1_555 1_555
H8 C15 1_555 1_555
C24 C16 1_555 1_555
C25 C17 1_555 1_555
C26 C18 1_555 1_555
C27 C19 1_555 1_555
O9 C20 1_555 1_555
H9 C21 1_555 1_555
O10 C21 1_555 1_555
C28 C22 1_555 1_555
N6 C22 1_555 1_555
C29 C23 1_555 1_555
H10 C24 1_555 1_555
C30 C24 1_555 1_555
H11 C25 1_555 1_555
H12 C26 1_555 1_555
C31 C26 1_555 1_555
H13 C27 1_555 1_555
Dy3 O10 1_555 1_555
C32 C28 1_555 1_555
N7 C28 1_555 1_555
C33 C29 1_555 1_555
N8 C29 1_555 1_555
C34 C30 1_555 1_555
H14 C31 1_555 1_555
C35 C32 1_555 1_555
H15 C32 1_555 1_555
C36 N7 1_555 1_555
O11 C42 1_555 1_555
O12 C43 1_555 1_555
H16 C33 1_555 1_555
C37 C33 1_555 1_555
C38 N8 1_555 1_555
C39 C34 1_555 1_555
C40 C34 1_555 1_555
C41 C35 1_555 1_555
H17 C35 1_555 1_555
C42 C36 1_555 1_555
C43 C38 1_555 1_555
H18 C37 1_555 1_555
C44 C37 1_555 1_555
H19 C39 1_555 1_555
C45 C39 1_555 1_555
H20 C40 1_555 1_555
C46 N5 1_555 1_555
H21 C41 1_555 1_555
O13 C42 1_555 1_555
H22 C44 1_555 1_555
H23 C45 1_555 1_555
C47 C46 1_555 1_555
O14 C47 1_555 1_555
O15 Dy3 1_555 1_555
O16 Dy3 1_555 1_555
O15A O15 1_555 1_555
N1A Dy1 1_555 1_555
O1A Dy1 1_555 1_555
O2A Dy1 1_555 1_555
O3A C43A 1_555 1_555
C1A N1A 1_555 1_555
C2A N1A 1_555 1_555
C3A O1A 1_555 1_555
C4A O2A 1_555 1_555
C5A C1A 1_555 1_555
C6A C2A 1_555 1_555
H1A C2A 1_555 1_555
O4A C3A 1_555 1_555
C7A C4A 1_555 1_555
O5A C4A 1_555 1_555
C8A C5A 1_555 1_555
H2A C5A 1_555 1_555
H3A C6A 1_555 1_555
C9A C7A 1_555 1_555
N2A C7A 1_555 1_555
Dy2A O5A 1_555 1_555
C10A C8A 1_555 1_555
H4A C9A 1_555 1_555
C11A C9A 1_555 1_555
C12A N2A 1_555 1_555
N3A Dy2A 1_555 1_555
N4A Dy2A 1_555 1_555
O6A Dy2A 1_555 1_555
O7A Dy2A 1_555 1_555
N5A C45A 1_555 1_555
O8A C47A 1_555 1_555
C13A C10A 1_555 1_555
C14A C10A 1_555 1_555
H5A C11A 1_555 1_555
C15A C11A 1_555 1_555
C16A C12A 1_555 1_555
C17A N3A 1_555 1_555
C18A N4A 1_555 1_555
C19A N4A 1_555 1_555
C20A O6A 1_555 1_555
C21A O7A 1_555 1_555
C22A C13A 1_555 1_555
H6A C13A 1_555 1_555
H7A C14A 1_555 1_555
C23A C14A 1_555 1_555
H8A C15A 1_555 1_555
C24A C16A 1_555 1_555
C25A C17A 1_555 1_555
C26A C18A 1_555 1_555
C27A C19A 1_555 1_555
O9A C20A 1_555 1_555
H9A C21A 1_555 1_555
O10A C21A 1_555 1_555
C28A C22A 1_555 1_555
N6A C22A 1_555 1_555
C29A C23A 1_555 1_555
H10A C24A 1_555 1_555
C30A C24A 1_555 1_555
H11A C25A 1_555 1_555
H12A C26A 1_555 1_555
C31A C26A 1_555 1_555
H13A C27A 1_555 1_555
Dy3A O10A 1_555 1_555
C32A C28A 1_555 1_555
N7A C28A 1_555 1_555
C33A C29A 1_555 1_555
N8A C29A 1_555 1_555
C34A C30A 1_555 1_555
H14A C31A 1_555 1_555
C35A C32A 1_555 1_555
H15A C32A 1_555 1_555
C36A N7A 1_555 1_555
O11A C42A 1_555 1_555
O12A C43A 1_555 1_555
H16A C33A 1_555 1_555
C37A C33A 1_555 1_555
C38A N8A 1_555 1_555
C39A C34A 1_555 1_555
C40A C34A 1_555 1_555
C41A C35A 1_555 1_555
H17A C35A 1_555 1_555
C42A C36A 1_555 1_555
C43A C38A 1_555 1_555
H18A C37A 1_555 1_555
C44A C37A 1_555 1_555
H19A C39A 1_555 1_555
C45A C39A 1_555 1_555
H20A C40A 1_555 1_555
C46A N5A 1_555 1_555
H21A C41A 1_555 1_555
O13A C42A 1_555 1_555
H22A C44A 1_555 1_555
H23A C45A 1_555 1_555
C47A C46A 1_555 1_555
O14A C47A 1_555 1_555
O16A Dy3A 1_555 1_555
Dy1B O3 1_555 1_555
Dy1B_2 O3A 1_555 1_555
O3B Dy1 1_555 1_555
O3C Dy1 1_555 1_555
Dy2D N5A 1_555 1_555
Dy2E N5 1_555 1_555
N5D Dy2A 1_555 1_555
N5E Dy2 1_555 1_555
O8D Dy2A 1_555 1_555
O8E Dy2 1_555 1_555
N6F Dy3 1_555 1_555
N6G Dy3A 1_555 1_555
Dy3A_2 O15A 1_555 1_555
Dy3F N6 1_555 1_555
Dy3G N6A 1_555 1_555
N7F Dy3 1_555 1_555
N7G Dy3A 1_555 1_555
N8F Dy3 1_555 1_555
N8G Dy3A 1_555 1_555
O11F Dy3 1_555 1_555
O11G Dy3A 1_555 1_555
O12F Dy3 1_555 1_555
O12G Dy3A 1_555 1_555
O15A_2 Dy3A 1_555 1_555
C6 C8 1_555 1_555
N2 Dy2 1_555 1_555
C12 C15 1_555 1_555
N3 C16 1_555 1_555
O8 Dy2E 1_555 1_555
C17 C18 1_555 1_555
C19 C20 1_555 1_555
C23 N6 1_555 1_555
C25 C30 1_555 1_555
C27 C31 1_555 1_555
N7 Dy3F 1_555 1_555
N8 Dy3F 1_555 1_555
C36 C41 1_555 1_555
O11 Dy3F 1_555 1_555
O12 Dy3F 1_555 1_555
C38 C44 1_555 1_555
C40 C46 1_555 1_555
C1A C3A 1_555 1_555
C6A C8A 1_555 1_555
N2A Dy2A 1_555 1_555
C12A C15A 1_555 1_555
N3A C16A 1_555 1_555
O8A Dy2D 1_555 1_555
C17A C18A 1_555 1_555
C19A C20A 1_555 1_555
C23A N6A 1_555 1_555
C25A C30A 1_555 1_555
C27A C31A 1_555 1_555
N7A Dy3G 1_555 1_555
N8A Dy3G 1_555 1_555
C36A C41A 1_555 1_555
O11A Dy3G 1_555 1_555
O12A Dy3G 1_555 1_555
C38A C44A 1_555 1_555
C40A C46A 1_555 1_555

#END
