
#######################################################################
#
#                 Cambridge Crystallographic Data Centre
#                                CCDC 
#
#######################################################################
#
# If this CIF has been generated from an entry in the Cambridge 
# Structural Database, then it will include bibliographic, chemical, 
# crystal, experimental, refinement or atomic coordinate data resulting 
# from the CCDC's data processing and validation procedures.
#
#######################################################################

data_PUMGIP
_chemical_formula_moiety         '(C104 H100 Cd2 N8 O14 V2)n'
_symmetry_cell_setting           orthorhombic
_symmetry_space_group_name_H-M   'P 2 2 21'
_symmetry_Int_Tables_number      17
_space_group_name_Hall           'P 2c 2'
loop_
_symmetry_equiv_pos_site_id
_symmetry_equiv_pos_as_xyz
1 x,y,z
2 -x,-y,1/2+z
3 x,-y,-z
4 -x,y,1/2-z
_cell_length_a                   17.2270(3)
_cell_length_b                   24.0435(4)
_cell_length_c                   28.8385(4)
_cell_angle_alpha                90
_cell_angle_beta                 90
_cell_angle_gamma                90
_cell_volume                     11944.8
loop_
_atom_site_label
_atom_site_type_symbol
_atom_site_fract_x
_atom_site_fract_y
_atom_site_fract_z
Cd1 Cd 0.90833(3) 0.39461(2) 0.70964(2)
Cd2 Cd 0.59221(3) 0.33387(2) 0.21069(2)
O1 O 0.6012(5) 0.8895(3) 0.1934(3)
N1 N 0.9254(4) 0.2996(3) 0.7096(3)
N2 N 0.5951(5) 0.4299(3) 0.2152(3)
V1 V 0.67067(14) 0.83941(9) 0.22595(8)
N3 N 0.9147(6) -0.5094(4) 0.7049(3)
N4 N 0.5819(5) 1.2390(4) 0.2120(3)
O2 O 0.6682(4) 0.3316(3) 0.2758(2)
O3 O 0.8963(4) 0.3884(3) 0.6303(2)
O4 O 0.6004(5) 0.3360(4) 0.1320(2)
C1 C 0.6150(5) 0.3337(4) 0.3070(3)
O5 O 0.5445(3) 0.3383(3) 0.2964(2)
O6 O 0.9561(4) 0.3986(3) -0.2015(2)
C2 C 0.8859(5) 0.3927(4) -0.1936(3)
O7 O 0.8363(4) 0.3939(4) -0.2243(2)
O8 O 0.6182(5) 0.7796(3) 0.1934(3)
O9 O 0.7851(4) 0.3769(3) 0.6660(2)
C3 C 0.8249(6) 0.3759(4) 0.6305(3)
C4 C 0.6032(5) 0.5470(4) 0.2127(3)
C5 C 0.6412(5) 0.3343(4) 0.3558(3)
O10 O 0.9160(7) -0.1627(4) 0.6740(3)
C6 C 0.8584(5) 0.3819(4) -0.1449(3)
C7 C 0.8809(6) 0.3698(6) -0.0627(4)
H1 H 0.9153 0.3694 -0.0378
C8 C 0.6219(7) 1.2074(4) 0.2428(4)
H2 H 0.6506 1.2254 0.2656
C9 C 0.6158(6) 0.3456(7) 0.4379(4)
H3 H 0.5810 0.3517 0.4620
O11 O 0.7156(5) 0.3241(4) 0.1629(2)
C10 C 0.7806(6) 0.3718(4) -0.1372(3)
H4 H 0.7463 0.3711 -0.1621
C11 C 0.6224(8) 1.1509(5) 0.2423(4)
H5 H 0.6504 1.1314 0.2646
C12 C 0.6731(7) 0.3308(5) 0.1291(3)
N5 N 0.8446(6) -0.0505(4) 0.7622(4)
C13 C 0.6167(5) 0.7246(4) 0.1977(4)
N6 N 0.6565(7) 0.8893(4) 0.2835(3)
C14 C 0.8739(10) -0.4768(5) 0.7341(5)
H6 H 0.8421 -0.4934 0.7562
C15 C 0.5808(6) 1.1217(4) 0.2081(4)
C16 C 0.5406(6) 0.4611(4) 0.1936(4)
H7 H 0.4996 0.4428 0.1792
C17 C 0.6957(6) 0.3697(5) 0.0031(3)
H8 H 0.6667 0.3882 -0.0194
C18 C 0.9170(8) -0.3956(5) 0.6948(5)
C19 C 0.8778(11) -0.4220(7) 0.7323(5)
H9 H 0.8550 -0.4007 0.7555
C20 C 0.5778(5) 0.6354(4) 0.1707(4)
H10 H 0.5538 0.6133 0.1485
C21 C 0.9348(8) -0.3073(5) 0.6469(6)
H11 H 0.9493 -0.3298 0.6221
O12 O 0.7552(6) 0.8508(4) 0.2052(4)
C22 C 0.7444(6) 0.3286(5) 0.4107(3)
H12 H 0.7969 0.3232 0.4165
C23 C 0.9300(6) 0.1829(4) 0.7007(4)
C24 C 0.7184(6) 0.3264(5) 0.3664(4)
H13 H 0.7535 0.3195 0.3426
C25 C 0.6940(6) 0.3386(5) 0.4481(3)
C26 C 0.5844(7) 1.0599(4) 0.2055(4)
C27 C 0.9111(9) 0.0067(5) 0.6798(5)
C28 C 0.9537(10) -0.4878(6) 0.6716(6)
H14 H 0.9797 -0.5107 0.6508
N7 N 0.6883(6) 0.7827(4) 0.2774(3)
C29 C 0.6513(7) 0.4572(5) 0.2361(5)
H15 H 0.6880 0.4368 0.2525
C30 C 0.6037(8) 1.0279(5) 0.2439(5)
H16 H 0.6118 1.0453 0.2723
C31 C 0.5424(6) 0.5179(4) 0.1919(4)
H17 H 0.5030 0.5372 0.1767
C32 C 0.7717(7) 0.3508(5) -0.0082(3)
C33 C 0.8068(4) 0.3593(6) 0.4999(2)
H18 H 0.8386 0.3596 0.4738
C34 C 0.8385(3) 0.3676(5) 0.5436(3)
H19 H 0.8916 0.3734 0.5469
C35 C 0.7909(4) 0.3672(4) 0.5825(2)
C36 C 0.7115(4) 0.3585(5) 0.57767(19)
H20 H 0.6797 0.3582 0.6037
C37 C 0.6798(3) 0.3502(6) 0.5339(2)
H21 H 0.6267 0.3444 0.5306
C38 C 0.7274(4) 0.3506(5) 0.49498(18)
C39 C 0.6640(7) 0.3614(6) 0.0461(4)
H22 H 0.6132 0.3723 0.0521
C40 C 0.7531(6) 0.3626(5) -0.0926(3)
H23 H 0.7001 0.3577 -0.0880
C41 C 0.6494(6) 0.6982(4) 0.2377(4)
C42 C 0.5964(7) 0.9426(4) 0.1969(4)
C43 C 0.5803(5) 0.6917(4) 0.1630(4)
C44 C 0.8939(13) -0.2994(6) 0.7275(5)
H24 H 0.8801 -0.3147 0.7559
C45 C 0.6088(5) 0.6093(4) 0.2095(4)
C46 C 0.5403(7) 1.2110(4) 0.1809(4)
H25 H 0.5099 1.2314 0.1605
C47 C 0.6447(6) 0.6407(4) 0.2416(4)
H26 H 0.6671 0.6234 0.2672
C48 C 0.7132(7) 0.8984(5) 0.3647(4)
H27 H 0.7626 0.9117 0.3530
H28 H 0.6809 0.9303 0.3719
C49 C 0.9015(7) 0.0888(4) 0.7294(4)
H29 H 0.8908 0.1047 0.7581
C50 C 0.5709(6) 1.0333(4) 0.1635(4)
H30 H 0.5560 1.0545 0.1380
C51 C 0.6735(7) 0.8624(4) 0.3279(4)
H31 H 0.6245 0.8487 0.3409
C52 C 0.6591(6) 0.5146(4) 0.2351(4)
H32 H 0.7015 0.5314 0.2492
C53 C 0.5790(7) 0.9756(5) 0.1580(4)
C54 C 0.5390(7) 1.1535(4) 0.1767(5)
H33 H 0.5105 1.1366 0.1532
C55 C 0.7430(6) 0.7772(4) 0.3602(4)
H34 H 0.6958 0.7598 0.3714
H35 H 0.7798 0.7481 0.3524
C56 C 0.8913(8) 0.0315(6) 0.7244(5)
C57 C 0.7768(7) 0.8143(4) 0.3976(4)
H36 H 0.8277 0.8270 0.3879
H37 H 0.7831 0.7929 0.4258
C58 C 0.8023(6) 0.3605(5) -0.0549(3)
C59 C 0.9654(6) 0.2192(5) 0.6674(4)
H38 H 0.9910 0.2044 0.6418
C60 C 0.9616(6) 0.2750(5) 0.6732(4)
H39 H 0.9851 0.2976 0.6511
C61 C 0.7254(7) 0.8118(4) 0.3173(4)
H40 H 0.7751 0.8264 0.3062
C62 C 0.8961(6) 0.2664(5) 0.7419(3)
H41 H 0.8728 0.2824 0.7678
C63 C 0.9403(7) 0.0972(5) 0.6509(4)
H42 H 0.9567 0.1194 0.6263
N8 N 0.8619(7) -0.1599(4) 0.7653(4)
C64 C 0.7258(7) 0.8643(5) 0.4075(4)
H43 H 0.6761 0.8518 0.4194
H44 H 0.7501 0.8872 0.4311
C65 C 0.9264(6) 0.1227(5) 0.6946(4)
C66 C 0.7887(8) -0.0454(6) 0.8439(5)
H45 H 0.7570 -0.0132 0.8366
H46 H 0.8381 -0.0323 0.8558
C67 C 0.6479(8) 0.9184(5) 0.0969(4)
H47 H 0.6902 0.9441 0.0994
H48 H 0.6453 0.9043 0.0658
H49 H 0.6557 0.8881 0.1180
C68 C 0.5709(7) 0.9484(4) 0.1088(4)
C69 C 0.9156(10) -0.3347(5) 0.6904(6)
C70 C 0.7482(9) -0.0802(6) 0.8811(5)
H50 H 0.6949 -0.0868 0.8716
H51 H 0.7471 -0.0593 0.9098
C71 C 0.8931(11) -0.2419(6) 0.7215(5)
C72 C 0.8987(6) 0.2106(4) 0.7389(4)
H52 H 0.8787 0.1896 0.7633
C73 C 0.9304(8) 0.0417(5) 0.6435(4)
C74 C 0.6314(9) 0.9404(5) 0.2811(5)
H53 H 0.6266 0.9597 0.3089
C75 C 0.9154(9) -0.2167(5) 0.6785(5)
C76 C 0.8446(8) -0.1331(5) 0.8111(4)
H54 H 0.8946 -0.1236 0.8252
C77 C 0.6112(8) 0.9690(4) 0.2407(5)
C78 C 0.6844(6) 0.7297(4) 0.2745(4)
H55 H 0.7065 0.7095 0.2986
C79 C 0.8019(8) -0.0779(5) 0.8016(5)
H56 H 0.7505 -0.0878 0.7897
C80 C 0.7883(10) -0.1365(7) 0.8896(5)
H57 H 0.8381 -0.1301 0.9044
H58 H 0.7568 -0.1585 0.9106
C81 C 0.5035(8) 0.9062(5) 0.1101(6)
H59 H 0.5126 0.8797 0.1344
H60 H 0.5005 0.8871 0.0809
H61 H 0.4556 0.9254 0.1158
C82 C 0.8005(10) -0.1678(7) 0.8464(5)
H62 H 0.7506 -0.1784 0.8335
H63 H 0.8294 -0.2015 0.8530
C83 C 0.9577(10) -0.4304(6) 0.6664(7)
H64 H 0.9887 -0.4155 0.6431
O13 O 0.9072(6) -0.0472(3) 0.6735(3)
C84 C 0.5988(7) 0.7567(4) 0.0937(4)
H65 H 0.6146 0.7866 0.1136
H66 H 0.5732 0.7715 0.0669
H67 H 0.6436 0.7359 0.0842
C85 C 0.9566(11) 0.0636(6) 0.5579(4)
H68 H 0.9143 0.0896 0.5582
H69 H 1.0039 0.0826 0.5657
H70 H 0.9613 0.0474 0.5276
C86 C 0.7828(8) 0.3178(7) 0.0709(4)
H71 H 0.8115 0.2993 0.0934
C87 C 0.9087(6) 0.3799(5) -0.1073(3)
H72 H 0.9616 0.3853 -0.1120
C88 C 0.5424(6) 0.7180(4) 0.1203(4)
C89 C 0.5105(8) 0.6758(5) 0.0877(6)
H73 H 0.5463 0.6454 0.0850
H74 H 0.5028 0.6924 0.0578
H75 H 0.4618 0.6623 0.0993
C90 C 0.9413(9) 0.0176(6) 0.5936(4)
C91 C 0.8153(8) 0.3264(8) 0.0269(4)
H76 H 0.8663 0.3158 0.0212
C92 C 0.5547(10) 0.9918(5) 0.0716(5)
H77 H 0.5046 1.0081 0.0768
H78 H 0.5557 0.9744 0.0416
H79 H 0.5938 1.0203 0.0729
C93 C 0.8603(9) 0.0002(7) 0.7610(5)
H80 H 0.8499 0.0198 0.7881
C94 C 0.9332(7) -0.2513(5) 0.6395(5)
C95 C 0.4731(7) 0.7552(7) 0.1366(7)
H81 H 0.4280 0.7324 0.1413
H82 H 0.4623 0.7828 0.1135
H83 H 0.4866 0.7732 0.1652
C96 C 0.5878(6) 0.3436(5) 0.3920(3)
H84 H 0.5353 0.3484 0.3857
C97 C 0.7084(7) 0.3364(5) 0.0812(3)
C98 C 0.8648(10) -0.0123(6) 0.5783(5)
H85 H 0.8623 -0.0484 0.5924
H86 H 0.8642 -0.0161 0.5452
H87 H 0.8208 0.0094 0.5880
C99 C 0.9507(8) -0.2256(6) 0.5913(5)
C100 C 0.8789(10) -0.1936(5) 0.5765(5)
H88 H 0.8395 -0.2192 0.5666
H89 H 0.8918 -0.1691 0.5514
H90 H 0.8599 -0.1722 0.6022
O14 O 0.7734(8) -0.1129(6) 0.6890(5)
C101 C 1.0204(9) -0.1861(6) 0.5940(7)
H91 H 1.0025 -0.1489 0.5998
H92 H 1.0483 -0.1870 0.5652
H93 H 1.0542 -0.1976 0.6187
C102 C 1.0102(9) -0.0237(6) 0.5926(5)
H94 H 1.0574 -0.0043 0.5998
H95 H 1.0142 -0.0400 0.5623
H96 H 1.0018 -0.0525 0.6151
C103 C 0.8699(13) -0.2106(7) 0.7628(5)
H97 H 0.8603 -0.2309 0.7896
C104 C 0.9671(9) -0.2703(6) 0.5579(6)
H98 H 1.0126 -0.2903 0.5675
H99 H 0.9237 -0.2953 0.5566
H100 H 0.9757 -0.2545 0.5278
V2 V 0.8587(3) -0.10718(14) 0.70730(13)
Cd1_2 Cd 0.90833(3) -0.60539(2) 0.70964(2)
Cd1_3 Cd 0.90833(3) 0.39461(2) -0.29036(2)
Cd1C Cd 1.09167(3) 0.39461(2) -0.20964(2)
Cd2_2 Cd 0.59221(3) 1.33387(2) 0.21069(2)
Cd2C Cd 0.40779(3) 0.33387(2) 0.28931(2)
N3_2 N 0.9147(6) 0.4906(4) 0.7049(3)
N4_2 N 0.5819(5) 0.2390(4) 0.2120(3)
O5C O 0.4555(3) 0.3383(3) 0.2036(2)
O6_2 O 0.9561(4) 0.3986(3) 0.7985(2)
O6C O 1.0439(4) 0.3986(3) 0.7015(2)
O7_2 O 0.8363(4) 0.3939(4) 0.7757(2)
loop_
_geom_bond_atom_site_label_1
_geom_bond_atom_site_label_2
_geom_bond_site_symmetry_1
_geom_bond_site_symmetry_2
Cd1 N1 1_555 1_555
Cd2 N2 1_555 1_555
O1 V1 1_555 1_555
N1 C60 1_555 1_555
N2 C16 1_555 1_555
V1 O8 1_555 1_555
N3 C14 1_555 1_555
N4 C8 1_555 1_555
O2 Cd2 1_555 1_555
O3 Cd1 1_555 1_555
O4 Cd2 1_555 1_555
C1 O2 1_555 1_555
O5 Cd2 1_555 1_555
O6 C2 1_555 1_555
C2 O7 1_555 1_555
O7 Cd1_3 1_555 1_555
O8 C13 1_555 1_555
O9 Cd1 1_555 1_555
C3 O3 1_555 1_555
C4 C31 1_555 1_555
C5 C1 1_555 1_555
O10 C75 1_555 1_555
C6 C2 1_555 1_555
C7 H1 1_555 1_555
C8 H2 1_555 1_555
C9 H3 1_555 1_555
O11 Cd2 1_555 1_555
C10 C6 1_555 1_555
H4 C10 1_555 1_555
C11 C8 1_555 1_555
H5 C11 1_555 1_555
C12 O4 1_555 1_555
N5 C79 1_555 1_555
C13 C41 1_555 1_555
N6 V1 1_555 1_555
C14 H6 1_555 1_555
C15 C11 1_555 1_555
C16 H7 1_555 1_555
C17 H8 1_555 1_555
C18 C19 1_555 1_555
C19 C14 1_555 1_555
H9 C19 1_555 1_555
C20 H10 1_555 1_555
C21 H11 1_555 1_555
O12 V1 1_555 1_555
C22 H12 1_555 1_555
C23 C59 1_555 1_555
C24 C5 1_555 1_555
H13 C24 1_555 1_555
C25 C9 1_555 1_555
C26 C15 1_555 1_555
C27 C56 1_555 1_555
C28 N3 1_555 1_555
H14 C28 1_555 1_555
N7 V1 1_555 1_555
C29 N2 1_555 1_555
H15 C29 1_555 1_555
C30 C26 1_555 1_555
H16 C30 1_555 1_555
C31 C16 1_555 1_555
H17 C31 1_555 1_555
C32 C17 1_555 1_555
C33 H18 1_555 1_555
C34 C33 1_555 1_555
H19 C34 1_555 1_555
C35 C3 1_555 1_555
C36 C35 1_555 1_555
H20 C36 1_555 1_555
C37 C36 1_555 1_555
H21 C37 1_555 1_555
C38 C25 1_555 1_555
C39 C17 1_555 1_555
H22 C39 1_555 1_555
C40 C10 1_555 1_555
H23 C40 1_555 1_555
C41 C47 1_555 1_555
C42 O1 1_555 1_555
C43 C13 1_555 1_555
C44 H24 1_555 1_555
C45 C4 1_555 1_555
C46 N4 1_555 1_555
H25 C46 1_555 1_555
C47 C45 1_555 1_555
H26 C47 1_555 1_555
C48 H27 1_555 1_555
H28 C48 1_555 1_555
C49 H29 1_555 1_555
C50 C26 1_555 1_555
H30 C50 1_555 1_555
C51 N6 1_555 1_555
H31 C51 1_555 1_555
C52 C4 1_555 1_555
H32 C52 1_555 1_555
C53 C42 1_555 1_555
C54 C15 1_555 1_555
H33 C54 1_555 1_555
C55 H34 1_555 1_555
H35 C55 1_555 1_555
C56 C49 1_555 1_555
C57 C55 1_555 1_555
H36 C57 1_555 1_555
H37 C57 1_555 1_555
C58 C7 1_555 1_555
C59 H38 1_555 1_555
C60 C59 1_555 1_555
H39 C60 1_555 1_555
C61 N7 1_555 1_555
H40 C61 1_555 1_555
C62 N1 1_555 1_555
H41 C62 1_555 1_555
C63 H42 1_555 1_555
N8 C76 1_555 1_555
C64 C48 1_555 1_555
H43 C64 1_555 1_555
H44 C64 1_555 1_555
C65 C23 1_555 1_555
C66 H45 1_555 1_555
H46 C66 1_555 1_555
C67 H47 1_555 1_555
H48 C67 1_555 1_555
H49 C67 1_555 1_555
C68 C53 1_555 1_555
C69 C18 1_555 1_555
C70 C66 1_555 1_555
H50 C70 1_555 1_555
H51 C70 1_555 1_555
C71 C44 1_555 1_555
C72 C23 1_555 1_555
H52 C72 1_555 1_555
C73 C27 1_555 1_555
C74 N6 1_555 1_555
H53 C74 1_555 1_555
C75 C71 1_555 1_555
C76 H54 1_555 1_555
C77 C30 1_555 1_555
C78 N7 1_555 1_555
H55 C78 1_555 1_555
C79 C66 1_555 1_555
H56 C79 1_555 1_555
C80 C70 1_555 1_555
H57 C80 1_555 1_555
H58 C80 1_555 1_555
C81 C68 1_555 1_555
H59 C81 1_555 1_555
H60 C81 1_555 1_555
H61 C81 1_555 1_555
C82 C76 1_555 1_555
H62 C82 1_555 1_555
H63 C82 1_555 1_555
C83 C18 1_555 1_555
H64 C83 1_555 1_555
O13 C27 1_555 1_555
C84 H65 1_555 1_555
H66 C84 1_555 1_555
H67 C84 1_555 1_555
C85 H68 1_555 1_555
H69 C85 1_555 1_555
H70 C85 1_555 1_555
C86 H71 1_555 1_555
C87 C6 1_555 1_555
H72 C87 1_555 1_555
C88 C43 1_555 1_555
C89 C88 1_555 1_555
H73 C89 1_555 1_555
H74 C89 1_555 1_555
H75 C89 1_555 1_555
C90 C73 1_555 1_555
C91 C32 1_555 1_555
H76 C91 1_555 1_555
C92 C68 1_555 1_555
H77 C92 1_555 1_555
H78 C92 1_555 1_555
H79 C92 1_555 1_555
C93 N5 1_555 1_555
H80 C93 1_555 1_555
C94 C21 1_555 1_555
C95 C88 1_555 1_555
H81 C95 1_555 1_555
H82 C95 1_555 1_555
H83 C95 1_555 1_555
C96 C5 1_555 1_555
H84 C96 1_555 1_555
C97 C12 1_555 1_555
C98 C90 1_555 1_555
H85 C98 1_555 1_555
H86 C98 1_555 1_555
H87 C98 1_555 1_555
C99 C94 1_555 1_555
C100 C99 1_555 1_555
H88 C100 1_555 1_555
H89 C100 1_555 1_555
H90 C100 1_555 1_555
O14 V2 1_555 1_555
C101 C99 1_555 1_555
H91 C101 1_555 1_555
H92 C101 1_555 1_555
H93 C101 1_555 1_555
C102 C90 1_555 1_555
H94 C102 1_555 1_555
H95 C102 1_555 1_555
H96 C102 1_555 1_555
C103 N8 1_555 1_555
H97 C103 1_555 1_555
C104 C99 1_555 1_555
H98 C104 1_555 1_555
H99 C104 1_555 1_555
H100 C104 1_555 1_555
V2 O10 1_555 1_555
Cd1_2 N3 1_555 1_555
Cd1_3 O6 1_555 1_555
Cd1C O6 1_555 1_555
Cd2_2 N4 1_555 1_555
Cd2C O5 1_555 1_555
N3_2 Cd1 1_555 1_555
N4_2 Cd2 1_555 1_555
O5C Cd2 1_555 1_555
O6_2 Cd1 1_555 1_555
O6C Cd1 1_555 1_555
O7_2 Cd1 1_555 1_555
C1 O5 1_555 1_555
O9 C3 1_555 1_555
C7 C87 1_555 1_555
C9 C96 1_555 1_555
O11 C12 1_555 1_555
N5 V2 1_555 1_555
C20 C43 1_555 1_555
C20 C45 1_555 1_555
C21 C69 1_555 1_555
C22 C24 1_555 1_555
C22 C25 1_555 1_555
C28 C83 1_555 1_555
C29 C52 1_555 1_555
C32 C58 1_555 1_555
C33 C38 1_555 1_555
C34 C35 1_555 1_555
C37 C38 1_555 1_555
C39 C97 1_555 1_555
C40 C58 1_555 1_555
C41 C78 1_555 1_555
C42 C77 1_555 1_555
C44 C69 1_555 1_555
C46 C54 1_555 1_555
C48 C51 1_555 1_555
C49 C65 1_555 1_555
C50 C53 1_555 1_555
C51 C61 1_555 1_555
C55 C61 1_555 1_555
C56 C93 1_555 1_555
C57 C64 1_555 1_555
C62 C72 1_555 1_555
C63 C65 1_555 1_555
C63 C73 1_555 1_555
N8 V2 1_555 1_555
C67 C68 1_555 1_555
C71 C103 1_555 1_555
C74 C77 1_555 1_555
C75 C94 1_555 1_555
C76 C79 1_555 1_555
C80 C82 1_555 1_555
O13 V2 1_555 1_555
C84 C88 1_555 1_555
C85 C90 1_555 1_555
C86 C91 1_555 1_555
C86 C97 1_555 1_555
Cd2C O5C 1_555 1_555

#END
