
#######################################################################
#
#                 Cambridge Crystallographic Data Centre
#                                CCDC 
#
#######################################################################
#
# If this CIF has been generated from an entry in the Cambridge 
# Structural Database, then it will include bibliographic, chemical, 
# crystal, experimental, refinement or atomic coordinate data resulting 
# from the CCDC's data processing and validation procedures.
#
#######################################################################

data_HAKSAQ
_chemical_formula_moiety         'C30 H18 In11 N11 O25 Zn2'
_symmetry_cell_setting           hexagonal
_symmetry_space_group_name_H-M   'P 63/m m c'
_symmetry_Int_Tables_number      194
_space_group_name_Hall           '-P 6c 2c'
loop_
_symmetry_equiv_pos_site_id
_symmetry_equiv_pos_as_xyz
1 x,y,z
2 -y,x-y,z
3 -x+y,-x,z
4 -x,-y,1/2+z
5 y,-x+y,1/2+z
6 x-y,x,1/2+z
7 y,x,-z
8 x-y,-y,-z
9 -x,-x+y,-z
10 -y,-x,1/2-z
11 -x+y,y,1/2-z
12 x,x-y,1/2-z
13 -x,-y,-z
14 y,-x+y,-z
15 x-y,x,-z
16 x,y,1/2-z
17 -y,x-y,1/2-z
18 -x+y,-x,1/2-z
19 -y,-x,z
20 -x+y,y,z
21 x,x-y,z
22 y,x,1/2+z
23 x-y,-y,1/2+z
24 -x,-x+y,1/2+z
_cell_length_a                   13.81(2)
_cell_length_b                   13.81(2)
_cell_length_c                   18.33(3)
_cell_angle_alpha                90
_cell_angle_beta                 90
_cell_angle_gamma                120
_cell_volume                     3027.47
loop_
_atom_site_label
_atom_site_type_symbol
_atom_site_fract_x
_atom_site_fract_y
_atom_site_fract_z
In1 In 0.75119(3) 0.24881(3) 0.7500
O1 O 0.6667 0.3333 0.7500
O2 O 0.6490(4) 0.1365(4) 0.6645(2)
N1 N 0.8408(4) 0.1592(4) 0.7500
C1 C 0.5571(4) 0.1142(8) 0.6378(4)
C2 C 0.8736(5) 0.1264(5) 0.6962(8)
C3 C 0.5270(4) 0.0540(8) 0.5663(4)
N2 N 0.9273(5) 0.0727(5) 0.7124(5)
H1 H 0.8608 0.1392 0.6483
C4 C 0.5991(6) 0.0260(7) 0.5336(4)
Zn1 Zn 1.0000 0.0000 0.63581(9)
H2 H 0.6654 0.0421 0.5567
O3 O 1.0865(3) -0.0865(3) 0.5670(3)
O2I O 0.8635(4) 0.3510(4) 0.8355(2)
O2O O 0.6490(4) 0.1365(4) 0.8355(2)
O2R O 0.8635(4) 0.3510(4) 0.6645(2)
In1A In 0.75119(3) 0.50238(4) 0.7500
In1B In 0.49762(4) 0.24881(3) 0.7500
C2I C 0.8736(5) 0.1264(5) 0.8038(8)
C1I C 0.8858(8) 0.4429(4) 0.8622(4)
O2P O 0.8635(4) 0.5125(6) 0.8355(2)
O2T O 0.6490(4) 0.5125(6) 0.6645(2)
O2A O 0.8635(4) 0.5125(6) 0.6645(2)
N1A N 0.8408(4) 0.6816(6) 0.7500
O2K O 0.6490(4) 0.5125(6) 0.8355(2)
O2S O 0.4875(6) 0.1365(4) 0.6645(2)
O2J O 0.4875(6) 0.1365(4) 0.8355(2)
O2B O 0.4875(6) 0.3510(4) 0.6645(2)
N1B N 0.3184(6) 0.1592(4) 0.7500
O2Q O 0.4875(6) 0.3510(4) 0.8355(2)
N2I N 0.9273(5) 0.0727(5) 0.7876(5)
H1I H 0.8608 0.1392 0.8517
C3I C 0.9460(8) 0.4730(4) 0.9337(4)
C1B C 0.5571(9) 0.4429(4) 0.6378(4)
C4S C 0.4269(9) 0.0260(7) 0.5336(4)
Zn1I Zn 1.0000 0.0000 0.86419(9)
C4I C 0.9740(7) 0.4009(6) 0.9664(4)
C4P C 0.9740(7) 0.5731(9) 0.9664(4)
C3B C 0.5270(9) 0.4730(4) 0.5663(4)
C4G C 0.5731(9) -0.0260(7) 0.4664(4)
C4L C 0.4009(6) -0.0260(7) 0.4664(4)
H2S H 0.3767 0.0421 0.5567
N2A N 0.9273(5) -0.1454(7) 0.7124(5)
O3A O 1.0865(3) 0.1730(4) 0.5670(3)
O3B O 0.8270(4) -0.0865(3) 0.5670(3)
N2B N 1.1454(7) 0.0727(5) 0.7124(5)
N2K N 0.9273(5) -0.1454(7) 0.7876(5)
O3K O 1.0865(3) 0.1730(4) 0.9330(3)
O3I O 1.0865(3) -0.0865(3) 0.9330(3)
O3J O 0.8270(4) -0.0865(3) 0.9330(3)
N2J N 1.1454(7) 0.0727(5) 0.7876(5)
C4D C 1.0260(7) 0.4269(9) 1.0336(4)
H2I H 0.9579 0.3346 0.9433
C4U C 1.0260(7) 0.5991(6) 1.0336(4)
H2P H 0.9579 0.6233 0.9433
C4B C 0.4269(9) 0.4009(6) 0.5336(4)
C4T C 0.5991(6) 0.5731(9) 0.5336(4)
C3G C 0.4730(9) -0.0540(8) 0.4337(4)
H2G H 0.6233 -0.0421 0.4433
H2L H 0.3346 -0.0421 0.4433
C2A C 0.8736(5) -0.2528(7) 0.6962(8)
C2B C 1.2528(7) 0.1264(5) 0.6962(8)
C2K C 0.8736(5) -0.2528(7) 0.8038(8)
C2J C 1.2528(7) 0.1264(5) 0.8038(8)
C3D C 1.0540(8) 0.5270(9) 1.0663(4)
H2D H 1.0421 0.3767 1.0567
H2U H 1.0421 0.6654 1.0567
C4H C 0.4009(6) 0.4269(9) 0.4664(4)
H2B H 0.3767 0.3346 0.5567
H2T H 0.6654 0.6233 0.5567
C4N C 0.5731(9) 0.5991(6) 0.4664(4)
C1G C 0.4429(9) -0.1142(8) 0.3622(4)
N1A_2 N 0.8408(4) -0.3184(6) 0.7500
H1A H 0.8608 -0.2784 0.6483
H1B H 1.2784 0.1392 0.6483
N1B_2 N 1.3184(6) 0.1592(4) 0.7500
H1K H 0.8608 -0.2784 0.8517
H1J H 1.2784 0.1392 0.8517
C1D C 1.1142(8) 0.5571(9) 1.1378(4)
C3H C 0.4730(4) 0.5270(9) 0.4337(4)
H2H H 0.3346 0.3767 0.4433
H2N H 0.6233 0.6654 0.4433
O2G O 0.5125(6) -0.1365(4) 0.3355(2)
O2L O 0.3510(4) -0.1365(4) 0.3355(2)
In1A_2 In 0.75119(3) -0.49762(4) 0.7500
In1B_2 In 1.49762(4) 0.24881(3) 0.7500
O2U O 1.1365(4) 0.6490(4) 1.1645(2)
O2D O 1.1365(4) 0.4875(6) 1.1645(2)
C1H C 0.4429(4) 0.5571(9) 0.3622(4)
In1E In 0.50238(4) -0.24881(3) 0.2500
In1C In 0.24881(3) -0.24881(3) 0.2500
In1C_2 In 1.24881(3) 0.75119(3) 1.2500
In1D In 1.24881(3) 0.49762(4) 1.2500
O2N O 0.5125(6) 0.6490(4) 0.3355(2)
O2H O 0.3510(4) 0.4875(6) 0.3355(2)
In1E_2 In 0.50238(4) 0.75119(3) 0.2500
In1D_2 In 0.24881(3) 0.49762(4) 0.2500
loop_
_geom_bond_atom_site_label_1
_geom_bond_atom_site_label_2
_geom_bond_site_symmetry_1
_geom_bond_site_symmetry_2
In1 O1 1_555 1_555
O1 In1A 1_555 1_555
O2 In1 1_555 1_555
N1 In1 1_555 1_555
C1 O2 1_555 1_555
C2 N1 1_555 1_555
C3 C1 1_555 1_555
N2 C2 1_555 1_555
H1 C2 1_555 1_555
C4 C3 1_555 1_555
Zn1 N2 1_555 1_555
H2 C4 1_555 1_555
O3 Zn1 1_555 1_555
O2I In1 1_555 1_555
O2O In1 1_555 1_555
O2R In1 1_555 1_555
In1A O2P 1_555 1_555
In1B O1 1_555 1_555
C2I N1 1_555 1_555
C1I O2I 1_555 1_555
O2P C1I 1_555 1_555
O2T In1A 1_555 1_555
O2A In1A 1_555 1_555
N1A In1A 1_555 1_555
O2K In1A 1_555 1_555
O2S C1 1_555 1_555
O2J In1B 1_555 1_555
O2B In1B 1_555 1_555
N1B In1B 1_555 1_555
O2Q In1B 1_555 1_555
N2I N2 1_555 1_555
H1I C2I 1_555 1_555
C3I C1I 1_555 1_555
C1B O2T 1_555 1_555
C4S C3 1_555 1_555
Zn1I N2I 1_555 1_555
C4I C3I 1_555 1_555
C4P C3I 1_555 1_555
C3B C1B 1_555 1_555
C4G C4 1_555 1_555
C4L C4S 1_555 1_555
H2S C4S 1_555 1_555
N2A Zn1 1_555 1_555
O3A Zn1 1_555 1_555
O3B Zn1 1_555 1_555
N2B Zn1 1_555 1_555
N2K Zn1I 1_555 1_555
O3K Zn1I 1_555 1_555
O3I Zn1I 1_555 1_555
O3J Zn1I 1_555 1_555
N2J Zn1I 1_555 1_555
C4D C4I 1_555 1_555
H2I C4I 1_555 1_555
C4U C4P 1_555 1_555
H2P C4P 1_555 1_555
C4B C3B 1_555 1_555
C4T C3B 1_555 1_555
C3G C4G 1_555 1_555
H2G C4G 1_555 1_555
H2L C4L 1_555 1_555
C2A N2A 1_555 1_555
C2B N2B 1_555 1_555
C2K N2K 1_555 1_555
C2J N2J 1_555 1_555
C3D C4D 1_555 1_555
H2D C4D 1_555 1_555
H2U C4U 1_555 1_555
C4H C4B 1_555 1_555
H2B C4B 1_555 1_555
H2T C4T 1_555 1_555
C4N C4T 1_555 1_555
C1G C3G 1_555 1_555
N1A_2 C2A 1_555 1_555
H1A C2A 1_555 1_555
H1B C2B 1_555 1_555
N1B_2 C2B 1_555 1_555
H1K C2K 1_555 1_555
H1J C2J 1_555 1_555
C1D C3D 1_555 1_555
C3H C4H 1_555 1_555
H2H C4H 1_555 1_555
H2N C4N 1_555 1_555
O2G C1G 1_555 1_555
O2L C1G 1_555 1_555
In1A_2 N1A_2 1_555 1_555
In1B_2 N1B_2 1_555 1_555
O2U C1D 1_555 1_555
O2D C1D 1_555 1_555
C1H C3H 1_555 1_555
In1E O2G 1_555 1_555
In1C O2L 1_555 1_555
In1C_2 O2U 1_555 1_555
In1D O2D 1_555 1_555
O2N C1H 1_555 1_555
O2H C1H 1_555 1_555
In1E_2 O2N 1_555 1_555
In1D_2 O2H 1_555 1_555
In1B O2S 1_555 1_555
C2I N2I 1_555 1_555
O2B C1B 1_555 1_555
C4L C3G 1_555 1_555
N2A N2K 1_555 1_555
N2B N2J 1_555 1_555
C4U C3D 1_555 1_555
C2K N1A_2 1_555 1_555
C2J N1B_2 1_555 1_555
C4N C3H 1_555 1_555

#END
