
#######################################################################
#
#                 Cambridge Crystallographic Data Centre
#                                CCDC 
#
#######################################################################
#
# If this CIF has been generated from an entry in the Cambridge 
# Structural Database, then it will include bibliographic, chemical, 
# crystal, experimental, refinement or atomic coordinate data resulting 
# from the CCDC's data processing and validation procedures.
#
#######################################################################

data_HAKTAR
_chemical_formula_moiety         'C30 H18 Co2 In11 N11 O25'
_symmetry_cell_setting           hexagonal
_symmetry_space_group_name_H-M   'P 63/m m c'
_symmetry_Int_Tables_number      194
_space_group_name_Hall           '-P 6c 2c'
loop_
_symmetry_equiv_pos_site_id
_symmetry_equiv_pos_as_xyz
1 x,y,z
2 -y,x-y,z
3 -x+y,-x,z
4 -x,-y,1/2+z
5 y,-x+y,1/2+z
6 x-y,x,1/2+z
7 y,x,-z
8 x-y,-y,-z
9 -x,-x+y,-z
10 -y,-x,1/2-z
11 -x+y,y,1/2-z
12 x,x-y,1/2-z
13 -x,-y,-z
14 y,-x+y,-z
15 x-y,x,-z
16 x,y,1/2-z
17 -y,x-y,1/2-z
18 -x+y,-x,1/2-z
19 -y,-x,z
20 -x+y,y,z
21 x,x-y,z
22 y,x,1/2+z
23 x-y,-y,1/2+z
24 -x,-x+y,1/2+z
_cell_length_a                   13.9050(6)
_cell_length_b                   13.9050(6)
_cell_length_c                   18.4663(8)
_cell_angle_alpha                90
_cell_angle_beta                 90
_cell_angle_gamma                120
_cell_volume                     3092.09
loop_
_atom_site_label
_atom_site_type_symbol
_atom_site_fract_x
_atom_site_fract_y
_atom_site_fract_z
In1 In -0.24905(2) 0.24905(2) 0.2500
O1 O -0.3333 0.3333 0.2500
O2 O -0.1368(2) 0.3515(2) 0.33547(13)
N1 N -0.1593(2) 0.1593(2) 0.2500
C1 C -0.1139(4) 0.4431(2) 0.3622(2)
C2 C -0.1251(2) 0.1251(2) 0.3068(3)
C3 C -0.0542(5) 0.4729(2) 0.4334(3)
H1 H -0.1370 0.1370 0.3547
N2 N -0.07249(17) 0.07249(17) 0.2874(2)
C4 C -0.0271(5) 0.5713(4) 0.4668(2)
Co1 Co 0.0000 0.0000 0.35738(5)
H2 H -0.0451 0.6204 0.4448
O3 O 0.08185(18) 0.1637(4) 0.43000(19)
O2R O -0.3515(2) 0.1368(2) 0.33547(13)
O2I O -0.3515(2) 0.1368(2) 0.16453(13)
O2O O -0.1368(2) 0.3515(2) 0.16453(13)
In1B In -0.50190(3) 0.24905(2) 0.2500
In1A In -0.24905(2) 0.50190(3) 0.2500
C2I C -0.1251(2) 0.1251(2) 0.1932(3)
C1B C -0.4430(4) 0.1139(4) 0.3622(2)
O2B O -0.5117(3) 0.1368(2) 0.33547(13)
N1B N -0.6814(3) 0.1593(2) 0.2500
O2J O -0.5117(3) 0.3515(2) 0.16453(13)
O2Q O -0.5117(3) 0.1368(2) 0.16453(13)
O2S O -0.5117(3) 0.3515(2) 0.33547(13)
O2T O -0.1368(2) 0.5117(3) 0.33547(13)
O2K O -0.1368(2) 0.5117(3) 0.16453(13)
O2P O -0.3515(2) 0.5117(3) 0.16453(13)
N1A N -0.1593(2) 0.6814(3) 0.2500
O2A O -0.3515(2) 0.5117(3) 0.33547(13)
H1I H -0.1370 0.1370 0.1453
N2I N -0.07249(17) 0.07249(17) 0.2126(2)
C3B C -0.4729(5) 0.0542(5) 0.4334(3)
C1A C -0.4431(2) 0.4430(4) 0.3622(2)
C4T C -0.0271(5) 0.4016(6) 0.4668(2)
Co1I Co 0.0000 0.0000 0.14262(5)
C4B C -0.4016(6) 0.0271(5) 0.4668(2)
C4R C -0.5713(4) 0.0271(5) 0.4668(2)
C3A C -0.4729(2) 0.4729(5) 0.4334(3)
C4H C 0.0271(5) 0.5984(6) 0.5332(2)
C4L C 0.0271(5) 0.4287(4) 0.5332(2)
H2T H -0.0451 0.3345 0.4448
O3A O -0.1637(4) -0.08185(44) 0.43000(19)
N2A N -0.07249(17) -0.14498(24) 0.2874(2)
O3B O 0.08185(44) -0.08185(18) 0.43000(19)
N2B N 0.14498(24) 0.07249(17) 0.2874(2)
N2K N -0.07249(17) -0.14498(24) 0.2126(2)
O3I O -0.1637(4) -0.08185(18) 0.07000(19)
O3J O 0.08185(44) 0.1637(4) 0.07000(19)
O3K O 0.08185(18) -0.08185(44) 0.07000(19)
N2J N 0.14498(24) 0.07249(17) 0.2126(2)
H2B H -0.3345 0.0451 0.4448
C4F C -0.4287(4) -0.0271(5) 0.5332(2)
C4N C -0.5984(6) -0.0271(5) 0.5332(2)
H2R H -0.6204 0.0451 0.4448
C4A C -0.5713(4) 0.4016(6) 0.4668(2)
C4S C -0.4016(6) 0.5713(4) 0.4668(2)
C3H C 0.0542(5) 0.5271(5) 0.5666(3)
H2H H 0.0451 0.6655 0.5552
H2L H 0.0451 0.3796 0.5552
C2A C -0.1251(2) -0.2502(3) 0.3068(3)
C2B C 0.2502(3) 0.1251(2) 0.3068(3)
C2K C -0.1251(2) -0.2502(3) 0.1932(3)
C2J C 0.2502(3) 0.1251(2) 0.1932(3)
C3F C -0.5271(2) -0.0542(5) 0.5666(3)
H2F H -0.3796 -0.0451 0.5552
H2N H -0.6655 -0.0451 0.5552
H2A H -0.6204 0.3345 0.4448
C4G C -0.5984(6) 0.4287(4) 0.5332(2)
C4M C -0.4287(4) 0.5984(6) 0.5332(2)
H2S H -0.3345 0.6204 0.4448
C1H C 0.1139(4) 0.5570(4) 0.6378(2)
H1A H -0.1370 -0.2740 0.3547
N1A_2 N -0.1593(2) -0.3186(3) 0.2500
N1B_2 N 0.3186(3) 0.1593(2) 0.2500
H1B H 0.2740 0.1370 0.3547
H1K H -0.1370 -0.2740 0.1453
H1J H 0.2740 0.1370 0.1453
C1F C -0.5569(2) -0.1139(4) 0.6378(2)
C3G C -0.5271(5) 0.5271(2) 0.5666(3)
H2G H -0.6655 0.3796 0.5552
H2M H -0.3796 0.6655 0.5552
O2H O 0.1368(2) 0.4883(3) 0.66453(13)
O2L O 0.1368(2) 0.6485(2) 0.66453(13)
In1A_2 In -0.24905(2) -0.49810(3) 0.2500
In1B_2 In 0.49810(3) 0.24905(2) 0.2500
O2F O -0.6485(2) -0.1368(2) 0.66453(13)
O2N O -0.4883(3) -0.1368(2) 0.66453(13)
C1G C -0.5570(4) 0.5569(2) 0.6378(2)
In1D In 0.24905(2) 0.49810(3) 0.7500
In1C In 0.24905(2) 0.75095(2) 0.7500
In1C_2 In -0.75095(2) -0.24905(2) 0.7500
In1E In -0.49810(3) -0.24905(2) 0.7500
O2G O -0.4883(3) 0.6485(2) 0.66453(13)
O2M O -0.6485(2) 0.4883(3) 0.66453(13)
In1E_2 In -0.49810(3) 0.75095(2) 0.7500
In1D_2 In -0.75095(2) 0.49810(3) 0.7500
loop_
_geom_bond_atom_site_label_1
_geom_bond_atom_site_label_2
_geom_bond_site_symmetry_1
_geom_bond_site_symmetry_2
In1 O1 1_555 1_555
O1 In1B 1_555 1_555
O2 In1 1_555 1_555
N1 In1 1_555 1_555
C1 O2 1_555 1_555
C2 N1 1_555 1_555
C3 C1 1_555 1_555
H1 C2 1_555 1_555
N2 C2 1_555 1_555
C4 C3 1_555 1_555
Co1 N2 1_555 1_555
H2 C4 1_555 1_555
O3 Co1 1_555 1_555
O2R In1 1_555 1_555
O2I In1 1_555 1_555
O2O In1 1_555 1_555
In1B O2B 1_555 1_555
In1A O1 1_555 1_555
C2I N1 1_555 1_555
C1B O2R 1_555 1_555
O2B C1B 1_555 1_555
N1B In1B 1_555 1_555
O2J In1B 1_555 1_555
O2Q In1B 1_555 1_555
O2S In1B 1_555 1_555
O2T C1 1_555 1_555
O2K In1A 1_555 1_555
O2P In1A 1_555 1_555
N1A In1A 1_555 1_555
O2A In1A 1_555 1_555
H1I C2I 1_555 1_555
N2I N2 1_555 1_555
C3B C1B 1_555 1_555
C1A O2S 1_555 1_555
C4T C3 1_555 1_555
Co1I N2I 1_555 1_555
C4B C3B 1_555 1_555
C4R C3B 1_555 1_555
C3A C1A 1_555 1_555
C4H C4 1_555 1_555
C4L C4T 1_555 1_555
H2T C4T 1_555 1_555
O3A Co1 1_555 1_555
N2A Co1 1_555 1_555
O3B Co1 1_555 1_555
N2B Co1 1_555 1_555
N2K Co1I 1_555 1_555
O3I Co1I 1_555 1_555
O3J Co1I 1_555 1_555
O3K Co1I 1_555 1_555
N2J Co1I 1_555 1_555
H2B C4B 1_555 1_555
C4F C4B 1_555 1_555
C4N C4R 1_555 1_555
H2R C4R 1_555 1_555
C4A C3A 1_555 1_555
C4S C3A 1_555 1_555
C3H C4H 1_555 1_555
H2H C4H 1_555 1_555
H2L C4L 1_555 1_555
C2A N2A 1_555 1_555
C2B N2B 1_555 1_555
C2K N2K 1_555 1_555
C2J N2J 1_555 1_555
C3F C4F 1_555 1_555
H2F C4F 1_555 1_555
H2N C4N 1_555 1_555
H2A C4A 1_555 1_555
C4G C4A 1_555 1_555
C4M C4S 1_555 1_555
H2S C4S 1_555 1_555
C1H C3H 1_555 1_555
H1A C2A 1_555 1_555
N1A_2 C2A 1_555 1_555
N1B_2 C2B 1_555 1_555
H1B C2B 1_555 1_555
H1K C2K 1_555 1_555
H1J C2J 1_555 1_555
C1F C3F 1_555 1_555
C3G C4G 1_555 1_555
H2G C4G 1_555 1_555
H2M C4M 1_555 1_555
O2H C1H 1_555 1_555
O2L C1H 1_555 1_555
In1A_2 N1A_2 1_555 1_555
In1B_2 N1B_2 1_555 1_555
O2F C1F 1_555 1_555
O2N C1F 1_555 1_555
C1G C3G 1_555 1_555
In1D O2H 1_555 1_555
In1C O2L 1_555 1_555
In1C_2 O2F 1_555 1_555
In1E O2N 1_555 1_555
O2G C1G 1_555 1_555
O2M C1G 1_555 1_555
In1E_2 O2G 1_555 1_555
In1D_2 O2M 1_555 1_555
In1A O2T 1_555 1_555
C2I N2I 1_555 1_555
O2A C1A 1_555 1_555
C4L C3H 1_555 1_555
N2A N2K 1_555 1_555
N2B N2J 1_555 1_555
C4N C3F 1_555 1_555
C2K N1A_2 1_555 1_555
C2J N1B_2 1_555 1_555
C4M C3G 1_555 1_555

#END
