
#######################################################################
#
#                 Cambridge Crystallographic Data Centre
#                                CCDC 
#
#######################################################################
#
# If this CIF has been generated from an entry in the Cambridge 
# Structural Database, then it will include bibliographic, chemical, 
# crystal, experimental, refinement or atomic coordinate data resulting 
# from the CCDC's data processing and validation procedures.
#
#######################################################################

data_HAKVUN
_chemical_formula_moiety         '(C21 H15 Ag1 In3 N3 O16 2+)n'
_symmetry_cell_setting           hexagonal
_symmetry_space_group_name_H-M   'P -6 2 c'
_symmetry_Int_Tables_number      190
_space_group_name_Hall           'P -6c -2c'
loop_
_symmetry_equiv_pos_site_id
_symmetry_equiv_pos_as_xyz
1 x,y,z
2 -y,x-y,z
3 -x+y,-x,z
4 x,y,1/2-z
5 -y,x-y,1/2-z
6 -x+y,-x,1/2-z
7 y,x,-z
8 x-y,-y,-z
9 -x,-x+y,-z
10 y,x,1/2+z
11 x-y,-y,1/2+z
12 -x,-x+y,1/2+z
_cell_length_a                   13.6360(10)
_cell_length_b                   13.6360(10)
_cell_length_c                   14.9222(13)
_cell_angle_alpha                90
_cell_angle_beta                 90
_cell_angle_gamma                120
_cell_volume                     2402.91
loop_
_atom_site_label
_atom_site_type_symbol
_atom_site_fract_x
_atom_site_fract_y
_atom_site_fract_z
In1 In 0.64127(8) 0.17267(8) 0.7500
O1 O 0.6667 0.3333 0.7500
O2 O 0.8856(7) 0.3978(10) 0.6469(6)
O3 O 0.7718(8) 0.2087(7) 0.6515(6)
O4 O 0.6162(13) 0.0073(11) 0.7500
C1 C 0.9288(10) 0.2819(10) 0.5577(7)
C2 C 0.8547(9) 0.2968(10) 0.6243(7)
C3 C 1.0000 0.3710(12) 0.5000
H1 H 1.0000 0.4392 0.5000
C4 C 0.9332(11) 0.1829(9) 0.5549(8)
H2 H 0.8866 0.1247 0.5937
N1 N 1.0000 0.1660(10) 0.5000
Ag1 Ag 1.0000 0.0000 0.5000
O3H O 1.2282(8) 0.4369(11) 0.3485(6)
C1H C 1.0712(10) 0.3531(14) 0.4423(7)
C2H C 1.1453(9) 0.4421(13) 0.3757(7)
C4H C 1.0668(11) 0.2497(14) 0.4451(8)
H2H H 1.1134 0.2381 0.4063
O2H O 1.1144(7) 0.5122(12) 0.3531(6)
In1A In 0.82733(8) -0.53140(11) 0.7500
O2A O 0.6022(10) -0.5122(12) 0.6469(6)
O3A O 0.7913(7) -0.4369(11) 0.6515(6)
O4A O 0.9927(11) -0.3911(17) 0.7500
C1A C 0.7181(10) -0.3531(14) 0.5577(7)
C2A C 0.7032(10) -0.4421(13) 0.6243(7)
C3A C 0.6290(12) -0.3710(12) 0.5000
H1A H 0.5608 -0.4392 0.5000
C4A C 0.8171(9) -0.2497(14) 0.5549(8)
H2A H 0.8753 -0.2381 0.5937
N1A N 0.8340(10) -0.1660(10) 0.5000
O3G O 0.5631(11) -0.2087(7) 0.3485(6)
C1G C 0.6469(14) -0.2819(10) 0.4423(7)
C2G C 0.5579(13) -0.2968(10) 0.3757(7)
C4G C 0.7503(14) -0.1829(9) 0.4451(8)
H2G H 0.7619 -0.1247 0.4063
O2G O 0.4878(12) -0.3978(10) 0.3531(6)
In1B In 0.53140(11) 0.35873(8) 0.7500
O2B O 0.5122(12) 0.1144(7) 0.6469(6)
O3B O 0.4369(11) 0.2282(8) 0.6515(6)
O4B O 0.3911(17) 0.3838(13) 0.7500
C1B C 0.3531(14) 0.0712(10) 0.5577(7)
C2B C 0.4421(13) 0.1453(9) 0.6243(7)
C3B C 0.3710(12) 0.0000 0.5000
H1B H 0.4392 0.0000 0.5000
C4B C 0.2497(14) 0.0668(11) 0.5549(8)
H2B H 0.2381 0.1134 0.5937
N1B N 0.1660(10) 0.0000 0.5000
O3F O 0.2087(7) -0.2282(8) 0.3485(6)
C1F C 0.2819(10) -0.0712(10) 0.4423(7)
C2F C 0.2968(10) -0.1453(9) 0.3757(7)
C4F C 0.1829(9) -0.0668(11) 0.4451(8)
H2F H 0.1247 -0.1134 0.4063
O2F O 0.3978(10) -0.1144(7) 0.3531(6)
In1A_2 In 0.82733(8) 0.46860(11) 0.7500
In1B_2 In 0.53140(11) -0.64127(8) 0.7500
In1F In 0.17267(8) -0.35873(8) 0.2500
In1F_2 In 1.17267(8) 0.64127(8) 0.2500
In1G In 0.46860(11) -0.17267(8) 0.2500
In1H In 0.35873(8) -0.46860(11) 0.2500
In1H_2 In 1.35873(8) 0.53140(11) 0.2500
O1_2 O 0.6667 -0.6667 0.7500
O2_2 O 0.8856(7) -0.6022(10) 0.6469(6)
O2A_2 O 0.6022(10) 0.4878(12) 0.6469(6)
O2C O 0.8856(7) -0.6022(10) 0.8531(6)
O2D O 0.6022(10) 0.4878(12) 0.8531(6)
O2E O 0.5122(12) 0.1144(7) 0.8531(6)
O3C O 0.7718(8) 0.2087(7) 0.8485(6)
O3D O 0.7913(7) -0.4369(11) 0.8485(6)
O3E O 0.4369(11) 0.2282(8) 0.8485(6)
N1B_2 N 1.1660(10) 0.0000 0.5000
Ag1_2 Ag 0.0000 0.0000 0.5000
loop_
_geom_bond_atom_site_label_1
_geom_bond_atom_site_label_2
_geom_bond_site_symmetry_1
_geom_bond_site_symmetry_2
In1 O1 1_555 1_555
O1 In1B 1_555 1_555
O2 C2 1_555 1_555
O3 In1 1_555 1_555
O4 In1 1_555 1_555
C1 C2 1_555 1_555
C2 O3 1_555 1_555
C3 C1 1_555 1_555
H1 C3 1_555 1_555
C4 C1 1_555 1_555
H2 C4 1_555 1_555
N1 C4 1_555 1_555
Ag1 N1 1_555 1_555
O3H C2H 1_555 1_555
C1H C3 1_555 1_555
C2H C1H 1_555 1_555
C4H N1 1_555 1_555
H2H C4H 1_555 1_555
O2H C2H 1_555 1_555
In1A O3A 1_555 1_555
O2A C2A 1_555 1_555
O3A C2A 1_555 1_555
O4A In1A 1_555 1_555
C1A C2A 1_555 1_555
C3A C1A 1_555 1_555
H1A C3A 1_555 1_555
C4A C1A 1_555 1_555
H2A C4A 1_555 1_555
N1A Ag1 1_555 1_555
O3G C2G 1_555 1_555
C1G C3A 1_555 1_555
C2G C1G 1_555 1_555
C4G N1A 1_555 1_555
H2G C4G 1_555 1_555
O2G C2G 1_555 1_555
In1B O3B 1_555 1_555
O2B In1 1_555 1_555
O3B C2B 1_555 1_555
O4B In1B 1_555 1_555
C1B C2B 1_555 1_555
C2B O2B 1_555 1_555
C3B C1B 1_555 1_555
H1B C3B 1_555 1_555
C4B C1B 1_555 1_555
H2B C4B 1_555 1_555
N1B C4B 1_555 1_555
O3F C2F 1_555 1_555
C1F C3B 1_555 1_555
C2F C1F 1_555 1_555
C4F N1B 1_555 1_555
H2F C4F 1_555 1_555
O2F C2F 1_555 1_555
In1A_2 O1 1_555 1_555
In1B_2 O2A 1_555 1_555
In1F O3F 1_555 1_555
In1F_2 O2H 1_555 1_555
In1G O3G 1_555 1_555
In1H O2G 1_555 1_555
In1H_2 O3H 1_555 1_555
O1_2 In1A 1_555 1_555
O2_2 In1A 1_555 1_555
O2A_2 In1B 1_555 1_555
O2C In1A 1_555 1_555
O2D In1B 1_555 1_555
O2E In1 1_555 1_555
O3C In1 1_555 1_555
O3D In1A 1_555 1_555
O3E In1B 1_555 1_555
N1B_2 Ag1 1_555 1_555
Ag1_2 N1B 1_555 1_555
O2 In1A_2 1_555 1_555
C1H C4H 1_555 1_555
C4A N1A 1_555 1_555
C1G C4G 1_555 1_555
C1F C4F 1_555 1_555
O2F In1G 1_555 1_555
In1B_2 O1_2 1_555 1_555

#END
