
#######################################################################
#
#                 Cambridge Crystallographic Data Centre
#                                CCDC 
#
#######################################################################
#
# If this CIF has been generated from an entry in the Cambridge 
# Structural Database, then it will include bibliographic, chemical, 
# crystal, experimental, refinement or atomic coordinate data resulting 
# from the CCDC's data processing and validation procedures.
#
#######################################################################

data_HAKVIB
_chemical_formula_moiety         '(C30 H18 Ag3 In3 N9 O13 1+)n'
_symmetry_cell_setting           hexagonal
_symmetry_space_group_name_H-M   'P 63/m m c'
_symmetry_Int_Tables_number      194
_space_group_name_Hall           '-P 6c 2c'
loop_
_symmetry_equiv_pos_site_id
_symmetry_equiv_pos_as_xyz
1 x,y,z
2 -y,x-y,z
3 -x+y,-x,z
4 -x,-y,1/2+z
5 y,-x+y,1/2+z
6 x-y,x,1/2+z
7 y,x,-z
8 x-y,-y,-z
9 -x,-x+y,-z
10 -y,-x,1/2-z
11 -x+y,y,1/2-z
12 x,x-y,1/2-z
13 -x,-y,-z
14 y,-x+y,-z
15 x-y,x,-z
16 x,y,1/2-z
17 -y,x-y,1/2-z
18 -x+y,-x,1/2-z
19 -y,-x,z
20 -x+y,y,z
21 x,x-y,z
22 y,x,1/2+z
23 x-y,-y,1/2+z
24 -x,-x+y,1/2+z
_cell_length_a                   15.727(3)
_cell_length_b                   15.727(3)
_cell_length_c                   16.957(4)
_cell_angle_alpha                90
_cell_angle_beta                 90
_cell_angle_gamma                120
_cell_volume                     3632.21
loop_
_atom_site_label
_atom_site_type_symbol
_atom_site_fract_x
_atom_site_fract_y
_atom_site_fract_z
In1 In 1.25874(3) 0.74126(3) 0.7500
O1 O 1.3333 0.6667 0.7500
O2 O 1.1566(3) 0.6487(3) 0.6599(3)
N1 N 1.1793(4) 0.8207(4) 0.7500
C1 C 1.1309(7) 0.5655(3) 0.6333(5)
C2 C 1.0851(10) 0.7858(10) 0.7500
C3 C 1.0618(7) 0.5309(3) 0.5651(5)
N2 N 1.0611(7) 0.8537(7) 0.7500
H1 H 1.0395 0.7190 0.7500
C4 C 1.0305(7) 0.4413(6) 0.5323(5)
Ag1 Ag 0.92458(7) 0.84917(15) 0.7500
H2 H 1.0507 0.3999 0.5539
O2I O 1.3513(3) 0.8434(3) 0.8401(3)
O2O O 1.1566(3) 0.6487(3) 0.8401(3)
O2R O 1.3513(3) 0.8434(3) 0.6599(3)
In1A In 1.25874(3) 0.51748(4) 0.7500
In1B In 1.48252(4) 0.74126(3) 0.7500
C2I C 1.2142(10) 0.9149(10) 0.7500
C1I C 1.4345(3) 0.8691(7) 0.8667(5)
O2T O 1.1566(3) 0.5079(4) 0.6599(3)
O2A O 1.3513(3) 0.5079(4) 0.6599(3)
N1A N 1.1793(4) 0.3586(6) 0.7500
O2K O 1.1566(3) 0.5079(4) 0.8401(3)
O2P O 1.3513(3) 0.5079(4) 0.8401(3)
O2S O 1.4921(4) 0.6487(3) 0.6599(3)
O2J O 1.4921(4) 0.6487(3) 0.8401(3)
O2Q O 1.4921(4) 0.8434(3) 0.8401(3)
O2B O 1.4921(4) 0.8434(3) 0.6599(3)
N1B N 1.6414(6) 0.8207(4) 0.7500
N2I N 1.1463(7) 0.9389(7) 0.7500
H1I H 1.2810 0.9605 0.7500
C3I C 1.4691(3) 0.9382(7) 0.9349(5)
C1A C 1.4345(3) 0.5654(8) 0.6333(5)
C4T C 1.0305(7) 0.5892(9) 0.5323(5)
Ag1A Ag 1.15083(15) 1.07541(17) 0.7500
C4I C 1.5587(6) 0.9695(7) 0.9677(5)
C4Q C 1.4108(9) 0.9695(7) 0.9677(5)
C3A C 1.4691(3) 0.5309(8) 0.5651(5)
C4H C 0.9695(7) 0.4108(9) 0.4677(5)
C4L C 0.9695(7) 0.5587(6) 0.4677(5)
H2T H 1.0507 0.6508 0.5539
N2J N 0.7926(10) 0.8537(7) 0.7500
N2A N 1.1463(7) 1.2074(10) 0.7500
C4E C 1.5892(9) 1.0305(7) 1.0323(5)
H2I H 1.6001 0.9493 0.9461
C4U C 1.4413(6) 1.0305(7) 1.0323(5)
H2Q H 1.3492 0.9493 0.9461
C4A C 1.5587(6) 0.5892(9) 0.5323(5)
C4S C 1.4108(9) 0.4413(6) 0.5323(5)
C3H C 0.9382(7) 0.4691(8) 0.4349(5)
H2H H 0.9493 0.3492 0.4461
H2L H 0.9493 0.6001 0.4461
N2B N 0.7926(10) 0.9389(7) 0.7500
C2J C 0.7007(14) 0.7858(10) 0.7500
N2K N 1.0611(7) 1.2074(10) 0.7500
C2A C 1.2142(10) 1.2993(14) 0.7500
H2E H 1.6508 1.0507 1.0539
C3E C 1.5309(8) 1.0618(7) 1.0651(5)
H2U H 1.3999 1.0507 1.0539
H2A H 1.6001 0.6508 0.5539
C4G C 1.5892(9) 0.5587(6) 0.4677(5)
C4M C 1.4413(6) 0.4108(9) 0.4677(5)
H2S H 1.3492 0.3999 0.5539
C1H C 0.8691(7) 0.4346(8) 0.3667(5)
C2B C 0.7007(14) 0.9149(10) 0.7500
Ag1B Ag 0.92459(17) 1.07542(7) 0.7500
N1B_2 N 0.6414(6) 0.8207(4) 0.7500
H1J H 0.6795 0.7190 0.7500
C2K C 1.0851(10) 1.2993(14) 0.7500
N1A_2 N 1.1793(4) 1.3586(6) 0.7500
H1A H 1.2810 1.3205 0.7500
C1E C 1.5654(8) 1.1309(7) 1.1333(5)
C3G C 1.5309(8) 0.4691(3) 0.4349(5)
H2G H 1.6508 0.6001 0.4461
H2M H 1.3999 0.3492 0.4461
O2H O 0.8434(3) 0.4921(4) 0.3401(3)
O2L O 0.8434(3) 0.3513(3) 0.3401(3)
H1B H 0.6795 0.9605 0.7500
In1B_2 In 0.48252(4) 0.74126(3) 0.7500
H1K H 1.0395 1.3205 0.7500
In1A_2 In 1.25874(3) 1.51748(4) 0.7500
O2E O 1.5079(4) 1.1566(3) 1.1599(3)
O2U O 1.6487(3) 1.1566(3) 1.1599(3)
C1G C 1.5654(8) 0.4345(3) 0.3667(5)
In1D In 0.74126(3) 0.48252(4) 0.2500
In1C In 0.74126(3) 0.25874(3) 0.2500
In1E In 1.51748(4) 1.25874(3) 1.2500
In1C_2 In 1.74126(3) 1.25874(3) 1.2500
O2G O 1.5079(4) 0.3513(3) 0.3401(3)
O2M O 1.6487(3) 0.4921(4) 0.3401(3)
In1E_2 In 1.51748(4) 0.25874(3) 0.2500
In1D_2 In 1.74126(3) 0.48252(4) 0.2500
loop_
_geom_bond_atom_site_label_1
_geom_bond_atom_site_label_2
_geom_bond_site_symmetry_1
_geom_bond_site_symmetry_2
In1 O1 1_555 1_555
O1 In1A 1_555 1_555
O2 In1 1_555 1_555
N1 In1 1_555 1_555
C1 O2 1_555 1_555
C2 N1 1_555 1_555
C3 C1 1_555 1_555
N2 C2 1_555 1_555
H1 C2 1_555 1_555
C4 C3 1_555 1_555
Ag1 N2 1_555 1_555
H2 C4 1_555 1_555
O2I In1 1_555 1_555
O2O In1 1_555 1_555
O2R In1 1_555 1_555
In1A O2T 1_555 1_555
In1B O1 1_555 1_555
C2I N1 1_555 1_555
C1I O2I 1_555 1_555
O2T C1 1_555 1_555
O2A In1A 1_555 1_555
N1A In1A 1_555 1_555
O2K In1A 1_555 1_555
O2P In1A 1_555 1_555
O2S In1B 1_555 1_555
O2J In1B 1_555 1_555
O2Q In1B 1_555 1_555
O2B In1B 1_555 1_555
N1B In1B 1_555 1_555
N2I N2 1_555 1_555
H1I C2I 1_555 1_555
C3I C1I 1_555 1_555
C1A O2A 1_555 1_555
C4T C3 1_555 1_555
Ag1A N2I 1_555 1_555
C4I C3I 1_555 1_555
C4Q C3I 1_555 1_555
C3A C1A 1_555 1_555
C4H C4 1_555 1_555
C4L C4T 1_555 1_555
H2T C4T 1_555 1_555
N2J Ag1 1_555 1_555
N2A Ag1A 1_555 1_555
C4E C4I 1_555 1_555
H2I C4I 1_555 1_555
C4U C4Q 1_555 1_555
H2Q C4Q 1_555 1_555
C4A C3A 1_555 1_555
C4S C3A 1_555 1_555
C3H C4H 1_555 1_555
H2H C4H 1_555 1_555
H2L C4L 1_555 1_555
N2B N2J 1_555 1_555
C2J N2J 1_555 1_555
N2K N2A 1_555 1_555
C2A N2A 1_555 1_555
H2E C4E 1_555 1_555
C3E C4E 1_555 1_555
H2U C4U 1_555 1_555
H2A C4A 1_555 1_555
C4G C4A 1_555 1_555
C4M C4S 1_555 1_555
H2S C4S 1_555 1_555
C1H C3H 1_555 1_555
C2B N2B 1_555 1_555
Ag1B N2B 1_555 1_555
N1B_2 C2J 1_555 1_555
H1J C2J 1_555 1_555
C2K N2K 1_555 1_555
N1A_2 C2A 1_555 1_555
H1A C2A 1_555 1_555
C1E C3E 1_555 1_555
C3G C4G 1_555 1_555
H2G C4G 1_555 1_555
H2M C4M 1_555 1_555
O2H C1H 1_555 1_555
O2L C1H 1_555 1_555
H1B C2B 1_555 1_555
In1B_2 N1B_2 1_555 1_555
H1K C2K 1_555 1_555
In1A_2 N1A_2 1_555 1_555
O2E C1E 1_555 1_555
O2U C1E 1_555 1_555
C1G C3G 1_555 1_555
In1D O2H 1_555 1_555
In1C O2L 1_555 1_555
In1E O2E 1_555 1_555
In1C_2 O2U 1_555 1_555
O2G C1G 1_555 1_555
O2M C1G 1_555 1_555
In1E_2 O2G 1_555 1_555
In1D_2 O2M 1_555 1_555
C2I N2I 1_555 1_555
C1I O2Q 1_555 1_555
O2S C1A 1_555 1_555
C4L C3H 1_555 1_555
C4U C3E 1_555 1_555
N2K Ag1B 1_555 1_555
C4M C3G 1_555 1_555
C2B N1B_2 1_555 1_555
C2K N1A_2 1_555 1_555

#END
