
#######################################################################
#
#                 Cambridge Crystallographic Data Centre
#                                CCDC 
#
#######################################################################
#
# If this CIF has been generated from an entry in the Cambridge 
# Structural Database, then it will include bibliographic, chemical, 
# crystal, experimental, refinement or atomic coordinate data resulting 
# from the CCDC's data processing and validation procedures.
#
#######################################################################

data_EBAWOW
_chemical_formula_moiety         '(C84 H54 Co3 N12 O12)n'
_symmetry_cell_setting           orthorhombic
_symmetry_space_group_name_H-M   'P b c n'
_symmetry_Int_Tables_number      60
_space_group_name_Hall           '-P 2n 2ab'
loop_
_symmetry_equiv_pos_site_id
_symmetry_equiv_pos_as_xyz
1 x,y,z
2 1/2-x,1/2-y,1/2+z
3 -x,y,1/2-z
4 1/2+x,1/2-y,-z
5 -x,-y,-z
6 1/2+x,1/2+y,1/2-z
7 x,-y,1/2+z
8 1/2-x,1/2+y,z
_cell_length_a                   29.507(5)
_cell_length_b                   19.224(3)
_cell_length_c                   16.462(3)
_cell_angle_alpha                90
_cell_angle_beta                 90
_cell_angle_gamma                90
_cell_volume                     9337.95
loop_
_atom_site_label
_atom_site_type_symbol
_atom_site_fract_x
_atom_site_fract_y
_atom_site_fract_z
Co1 Co 0.76263(2) 0.27868(3) 0.26047(3)
Co2 Co 0.5000 0.95301(5) 0.7500
N1 N 0.54763(19) 1.0138(2) 0.7997(3)
N2 N 0.59820(17) 1.0461(2) 0.8892(3)
N3 N 0.69372(12) 0.83696(18) 1.1886(2)
N4 N 0.66094(13) 0.91831(18) 1.1159(2)
N5 N 0.72148(13) 1.24273(19) 1.1692(3)
N6 N 0.68657(14) 1.1671(2) 1.0907(3)
O1 O 0.72616(12) 0.35703(17) 0.3118(2)
O2 O 0.70696(13) 0.2544(2) 0.3548(2)
O3 O 0.51769(18) 0.8861(2) 0.6674(3)
O4 O 0.5834(2) 0.8680(2) 0.7263(4)
O5 O 0.30204(11) 0.31032(17) 0.7398(2)
O6 O 0.32167(11) 0.23454(18) 0.6482(2)
C1 C 0.6408(2) 1.1073(2) 0.9938(4)
H1 H 0.6359 1.1492 0.9670
C2 C 0.6237(2) 1.0458(3) 0.9636(4)
C3 C 0.62965(19) 0.9840(3) 1.0040(4)
H2 H 0.6180 0.9429 0.9827
C4 C 0.65302(18) 0.9835(2) 1.0763(3)
C5 C 0.67134(16) 1.0438(2) 1.1074(3)
H3 H 0.6874 1.0434 1.1560
C6 C 0.66527(18) 1.1050(2) 1.0643(3)
C7 C 0.5633(2) 1.0023(3) 0.8743(4)
H4 H 0.5520 0.9695 0.9105
C8 C 0.5724(3) 1.0667(4) 0.7679(5)
H5 H 0.5693 1.0845 0.7157
C9 C 0.6026(3) 1.0895(4) 0.8248(4)
H6 H 0.6223 1.1272 0.8202
C10 C 0.69352(15) 0.9020(2) 1.1691(3)
H7 H 0.7139 0.9343 1.1900
C11 C 0.65709(19) 0.8094(3) 1.1472(3)
H8 H 0.6473 0.7636 1.1510
C12 C 0.63807(19) 0.8576(3) 1.1016(4)
H9 H 0.6137 0.8515 1.0664
C13 C 0.70090(16) 1.1837(2) 1.1669(3)
H10 H 0.6963 1.1556 1.2122
C14 C 0.7217(2) 1.2649(3) 1.0904(4)
H11 H 0.7348 1.3064 1.0732
C15 C 0.7011(3) 1.2200(3) 1.0410(4)
H12 H 0.6973 1.2237 0.9851
C16 C 0.5517(3) 0.8476(3) 0.6878(5)
C17 C 0.5475(2) 0.7711(3) 0.6676(3)
C18 C 0.50679(19) 0.7443(3) 0.6427(4)
H13 H 0.4821 0.7735 0.6343
C19 C 0.50260(18) 0.6718(3) 0.6298(3)
H14 H 0.4748 0.6532 0.6143
C20 C 0.53957(15) 0.6283(3) 0.6401(3)
C21 C 0.57999(18) 0.6562(3) 0.6641(4)
H15 H 0.6051 0.6275 0.6708
C22 C 0.5840(2) 0.7277(3) 0.6789(4)
H16 H 0.6115 0.7459 0.6964
C23 C 0.53553(15) 0.5527(2) 0.6205(3)
C24 C 0.49639(15) 0.5158(3) 0.6377(3)
H17 H 0.4727 0.5382 0.6641
C25 C 0.49164(14) 0.4467(2) 0.6169(3)
C26 C 0.52652(15) 0.4143(3) 0.5757(3)
H18 H 0.5235 0.3679 0.5607
C27 C 0.56639(15) 0.4501(3) 0.5562(3)
C28 C 0.56975(15) 0.5189(3) 0.5801(3)
H19 H 0.5962 0.5432 0.5683
C29 C 0.60228(15) 0.4161(3) 0.5066(3)
C30 C 0.61166(18) 0.3465(3) 0.5160(4)
H20 H 0.5965 0.3205 0.5551
C31 C 0.64426(19) 0.3149(3) 0.4661(4)
H21 H 0.6510 0.2680 0.4735
C32 C 0.66646(16) 0.3516(3) 0.4066(3)
C33 C 0.65615(18) 0.4216(3) 0.3970(4)
H22 H 0.6708 0.4475 0.3572
C34 C 0.62420(17) 0.4528(3) 0.4464(4)
H23 H 0.6174 0.4996 0.4389
C35 C 0.70150(17) 0.3192(3) 0.3552(3)
C36 C 0.44901(15) 0.4085(2) 0.6343(3)
C37 C 0.42287(15) 0.4218(3) 0.7029(3)
H24 H 0.4319 0.4564 0.7389
C38 C 0.38402(15) 0.3850(3) 0.7186(3)
H25 H 0.3673 0.3947 0.7651
C39 C 0.36948(14) 0.3331(2) 0.6655(3)
C40 C 0.39477(16) 0.3205(3) 0.5963(3)
H26 H 0.3855 0.2862 0.5601
C41 C 0.43343(17) 0.3580(3) 0.5806(3)
H27 H 0.4495 0.3494 0.5331
C42 C 0.32833(16) 0.2911(3) 0.6844(3)
Co1B Co 0.23737(2) 0.27868(3) 1.23953(3)
N1B N 0.45237(19) 1.0138(2) 0.7003(3)
N2B N 0.40180(17) 1.0461(2) 0.6108(3)
N3B N 0.30628(12) 0.83696(18) 0.3114(2)
N4B N 0.33906(13) 0.91831(18) 0.3841(2)
N5B N 0.27852(13) 1.24273(19) 0.3308(3)
N6B N 0.31343(14) 1.1671(2) 0.4093(3)
O1B O 0.27384(12) 0.35703(17) 1.1882(2)
O2B O 0.29304(13) 0.2544(2) 1.1452(2)
O3B O 0.48231(18) 0.8861(2) 0.8326(3)
O4B O 0.4166(2) 0.8680(2) 0.7737(4)
O5B O 0.69796(11) 0.31032(17) 0.7602(2)
O6B O 0.67833(11) 0.23454(18) 0.8518(2)
C1B C 0.3592(2) 1.1073(2) 0.5062(4)
H1B H 0.3641 1.1492 0.5330
C2B C 0.3763(2) 1.0458(3) 0.5364(4)
C3B C 0.37035(19) 0.9840(3) 0.4960(4)
H2B H 0.3820 0.9429 0.5173
C4B C 0.34698(18) 0.9835(2) 0.4237(3)
C5B C 0.32866(16) 1.0438(2) 0.3926(3)
H3B H 0.3126 1.0434 0.3440
C6B C 0.33473(18) 1.1050(2) 0.4357(3)
C7B C 0.4367(2) 1.0023(3) 0.6257(4)
H4B H 0.4480 0.9695 0.5895
C8B C 0.4276(3) 1.0667(4) 0.7321(5)
H5B H 0.4307 1.0845 0.7843
C9B C 0.3974(3) 1.0895(4) 0.6752(4)
H6B H 0.3777 1.1272 0.6798
C10B C 0.30648(15) 0.9020(2) 0.3309(3)
H7B H 0.2861 0.9343 0.3100
C11B C 0.34291(19) 0.8094(3) 0.3528(3)
H8B H 0.3527 0.7636 0.3490
C12B C 0.36193(19) 0.8576(3) 0.3984(4)
H9B H 0.3863 0.8515 0.4336
C13B C 0.29910(16) 1.1837(2) 0.3331(3)
H10B H 0.3037 1.1556 0.2878
C14B C 0.2783(2) 1.2649(3) 0.4096(4)
H11B H 0.2652 1.3064 0.4268
C15B C 0.2989(3) 1.2200(3) 0.4590(4)
H12B H 0.3027 1.2237 0.5149
C16B C 0.4483(3) 0.8476(3) 0.8122(5)
C17B C 0.4525(2) 0.7711(3) 0.8324(3)
C18B C 0.49321(19) 0.7443(3) 0.8573(4)
H13B H 0.5179 0.7735 0.8657
C19B C 0.49740(18) 0.6718(3) 0.8702(3)
H14B H 0.5252 0.6532 0.8857
C20B C 0.46043(15) 0.6283(3) 0.8599(3)
C21B C 0.42001(18) 0.6562(3) 0.8359(4)
H15B H 0.3949 0.6275 0.8292
C22B C 0.4160(2) 0.7277(3) 0.8211(4)
H16B H 0.3885 0.7459 0.8036
C23B C 0.46447(15) 0.5527(2) 0.8795(3)
C24B C 0.50361(15) 0.5158(3) 0.8623(3)
H17B H 0.5273 0.5382 0.8359
C25B C 0.50836(14) 0.4467(2) 0.8831(3)
C26B C 0.47348(15) 0.4143(3) 0.9243(3)
H18B H 0.4765 0.3679 0.9393
C27B C 0.43361(15) 0.4501(3) 0.9438(3)
C28B C 0.43025(15) 0.5189(3) 0.9199(3)
H19B H 0.4038 0.5432 0.9317
C29B C 0.39772(15) 0.4161(3) 0.9934(3)
C30B C 0.38834(18) 0.3465(3) 0.9840(4)
H20B H 0.4035 0.3205 0.9449
C31B C 0.35574(19) 0.3149(3) 1.0339(4)
H21B H 0.3490 0.2680 1.0265
C32B C 0.33354(16) 0.3516(3) 1.0934(3)
C33B C 0.34385(18) 0.4216(3) 1.1030(4)
H22B H 0.3292 0.4475 1.1428
C34B C 0.37580(17) 0.4528(3) 1.0536(4)
H23B H 0.3826 0.4996 1.0611
C35B C 0.29850(17) 0.3192(3) 1.1448(3)
C36B C 0.55099(15) 0.4085(2) 0.8657(3)
C37B C 0.57713(15) 0.4218(3) 0.7971(3)
H24B H 0.5681 0.4564 0.7611
C38B C 0.61598(15) 0.3850(3) 0.7814(3)
H25B H 0.6327 0.3947 0.7349
C39B C 0.63052(14) 0.3331(2) 0.8345(3)
C40B C 0.60523(16) 0.3205(3) 0.9037(3)
H26B H 0.6145 0.2862 0.9399
C41B C 0.56657(17) 0.3580(3) 0.9194(3)
H27B H 0.5505 0.3494 0.9669
C42B C 0.67167(16) 0.2911(3) 0.8156(3)
Co1_2 Co 0.76263(2) 1.27868(3) 1.26047(3)
Co1A Co 0.73737(2) 0.22132(3) 0.76047(3)
Co1B_2 Co 0.23737(2) 1.27868(3) 0.23953(3)
Co1C Co 0.26263(2) 0.22132(3) 0.73953(3)
Co1E Co 0.26263(2) 0.77868(3) 0.23953(3)
Co1G Co 0.73737(2) 0.77868(3) 1.26047(3)
N3E N 0.19372(12) 0.33696(18) 1.3114(2)
N3G N 0.80628(12) 0.33696(18) 0.1886(2)
N5_2 N 0.72148(13) 0.24273(19) 0.1692(3)
N5B_2 N 0.27852(13) 0.24273(19) 1.3308(3)
O5A O 0.19796(11) 0.18968(17) 1.2398(2)
O5C O 0.80204(11) 0.18968(17) 0.2602(2)
O6A O 0.17833(11) 0.26546(18) 1.1482(2)
O6C O 0.82167(11) 0.26546(18) 0.3518(2)
loop_
_geom_bond_atom_site_label_1
_geom_bond_atom_site_label_2
_geom_bond_site_symmetry_1
_geom_bond_site_symmetry_2
Co1 O1 1_555 1_555
Co2 N1 1_555 1_555
N1 C7 1_555 1_555
N2 C2 1_555 1_555
N3 C10 1_555 1_555
N4 C4 1_555 1_555
N5 C13 1_555 1_555
N6 C6 1_555 1_555
O1 C35 1_555 1_555
O2 Co1 1_555 1_555
O3 Co2 1_555 1_555
O4 C16 1_555 1_555
O5 C42 1_555 1_555
O6 C42 1_555 1_555
C1 H1 1_555 1_555
C2 C1 1_555 1_555
C3 C2 1_555 1_555
H2 C3 1_555 1_555
C4 C3 1_555 1_555
C5 C4 1_555 1_555
H3 C5 1_555 1_555
C6 C1 1_555 1_555
C7 N2 1_555 1_555
H4 C7 1_555 1_555
C8 N1 1_555 1_555
H5 C8 1_555 1_555
C9 N2 1_555 1_555
H6 C9 1_555 1_555
C10 N4 1_555 1_555
H7 C10 1_555 1_555
C11 N3 1_555 1_555
H8 C11 1_555 1_555
C12 N4 1_555 1_555
H9 C12 1_555 1_555
C13 N6 1_555 1_555
H10 C13 1_555 1_555
C14 N5 1_555 1_555
H11 C14 1_555 1_555
C15 N6 1_555 1_555
H12 C15 1_555 1_555
C16 O3 1_555 1_555
C17 C16 1_555 1_555
C18 C17 1_555 1_555
H13 C18 1_555 1_555
C19 C18 1_555 1_555
H14 C19 1_555 1_555
C20 C19 1_555 1_555
C21 C20 1_555 1_555
H15 C21 1_555 1_555
C22 C17 1_555 1_555
H16 C22 1_555 1_555
C23 C20 1_555 1_555
C24 C23 1_555 1_555
H17 C24 1_555 1_555
C25 C24 1_555 1_555
C26 C25 1_555 1_555
H18 C26 1_555 1_555
C27 C26 1_555 1_555
C28 C23 1_555 1_555
H19 C28 1_555 1_555
C29 C27 1_555 1_555
C30 C29 1_555 1_555
H20 C30 1_555 1_555
C31 C30 1_555 1_555
H21 C31 1_555 1_555
C32 C31 1_555 1_555
C33 C32 1_555 1_555
H22 C33 1_555 1_555
C34 C29 1_555 1_555
H23 C34 1_555 1_555
C35 O2 1_555 1_555
C36 C25 1_555 1_555
C37 C36 1_555 1_555
H24 C37 1_555 1_555
C38 C37 1_555 1_555
H25 C38 1_555 1_555
C39 C38 1_555 1_555
C40 C39 1_555 1_555
H26 C40 1_555 1_555
C41 C36 1_555 1_555
H27 C41 1_555 1_555
C42 C39 1_555 1_555
Co1B O1B 1_555 1_555
N1B Co2 1_555 1_555
N2B C2B 1_555 1_555
N3B C10B 1_555 1_555
N4B C4B 1_555 1_555
N5B C13B 1_555 1_555
N6B C6B 1_555 1_555
O1B C35B 1_555 1_555
O2B Co1B 1_555 1_555
O3B Co2 1_555 1_555
O4B C16B 1_555 1_555
O5B C42B 1_555 1_555
O6B C42B 1_555 1_555
C1B H1B 1_555 1_555
C2B C1B 1_555 1_555
C3B C2B 1_555 1_555
H2B C3B 1_555 1_555
C4B C3B 1_555 1_555
C5B C4B 1_555 1_555
H3B C5B 1_555 1_555
C6B C1B 1_555 1_555
C7B N1B 1_555 1_555
H4B C7B 1_555 1_555
C8B N1B 1_555 1_555
H5B C8B 1_555 1_555
C9B N2B 1_555 1_555
H6B C9B 1_555 1_555
C10B N4B 1_555 1_555
H7B C10B 1_555 1_555
C11B N3B 1_555 1_555
H8B C11B 1_555 1_555
C12B N4B 1_555 1_555
H9B C12B 1_555 1_555
C13B N6B 1_555 1_555
H10B C13B 1_555 1_555
C14B N5B 1_555 1_555
H11B C14B 1_555 1_555
C15B N6B 1_555 1_555
H12B C15B 1_555 1_555
C16B O3B 1_555 1_555
C17B C16B 1_555 1_555
C18B C17B 1_555 1_555
H13B C18B 1_555 1_555
C19B C18B 1_555 1_555
H14B C19B 1_555 1_555
C20B C19B 1_555 1_555
C21B C20B 1_555 1_555
H15B C21B 1_555 1_555
C22B C17B 1_555 1_555
H16B C22B 1_555 1_555
C23B C20B 1_555 1_555
C24B C23B 1_555 1_555
H17B C24B 1_555 1_555
C25B C24B 1_555 1_555
C26B C25B 1_555 1_555
H18B C26B 1_555 1_555
C27B C26B 1_555 1_555
C28B C23B 1_555 1_555
H19B C28B 1_555 1_555
C29B C27B 1_555 1_555
C30B C29B 1_555 1_555
H20B C30B 1_555 1_555
C31B C30B 1_555 1_555
H21B C31B 1_555 1_555
C32B C31B 1_555 1_555
C33B C32B 1_555 1_555
H22B C33B 1_555 1_555
C34B C29B 1_555 1_555
H23B C34B 1_555 1_555
C35B O2B 1_555 1_555
C36B C25B 1_555 1_555
C37B C36B 1_555 1_555
H24B C37B 1_555 1_555
C38B C37B 1_555 1_555
H25B C38B 1_555 1_555
C39B C38B 1_555 1_555
C40B C39B 1_555 1_555
H26B C40B 1_555 1_555
C41B C36B 1_555 1_555
H27B C41B 1_555 1_555
C42B C39B 1_555 1_555
Co1_2 N5 1_555 1_555
Co1A O5B 1_555 1_555
Co1B_2 N5B 1_555 1_555
Co1C O5 1_555 1_555
Co1E N3B 1_555 1_555
Co1G N3 1_555 1_555
N3E Co1B 1_555 1_555
N3G Co1 1_555 1_555
N5_2 Co1 1_555 1_555
N5B_2 Co1B 1_555 1_555
O5A Co1B 1_555 1_555
O5C Co1 1_555 1_555
O6A Co1B 1_555 1_555
O6C Co1 1_555 1_555
O6 Co1C 1_555 1_555
C5 C6 1_555 1_555
C8 C9 1_555 1_555
C11 C12 1_555 1_555
C14 C15 1_555 1_555
C21 C22 1_555 1_555
C27 C28 1_555 1_555
C32 C35 1_555 1_555
C33 C34 1_555 1_555
C40 C41 1_555 1_555
N2B C7B 1_555 1_555
O6B Co1A 1_555 1_555
C5B C6B 1_555 1_555
C8B C9B 1_555 1_555
C11B C12B 1_555 1_555
C14B C15B 1_555 1_555
C21B C22B 1_555 1_555
C27B C28B 1_555 1_555
C32B C35B 1_555 1_555
C33B C34B 1_555 1_555
C40B C41B 1_555 1_555

#END
