
#######################################################################
#
#                 Cambridge Crystallographic Data Centre
#                                CCDC 
#
#######################################################################
#
# If this CIF has been generated from an entry in the Cambridge 
# Structural Database, then it will include bibliographic, chemical, 
# crystal, experimental, refinement or atomic coordinate data resulting 
# from the CCDC's data processing and validation procedures.
#
#######################################################################

data_EBAWIQ
_chemical_formula_moiety         '(C84 H72 N12 Ni3 O21)n'
_symmetry_cell_setting           monoclinic
_symmetry_space_group_name_H-M   'P 21/c'
_symmetry_Int_Tables_number      14
_space_group_name_Hall           '-P 2ybc'
loop_
_symmetry_equiv_pos_site_id
_symmetry_equiv_pos_as_xyz
1 x,y,z
2 -x,1/2+y,1/2-z
3 -x,-y,-z
4 x,1/2-y,1/2+z
_cell_length_a                   8.3661(6)
_cell_length_b                   29.139(2)
_cell_length_c                   18.8583(13)
_cell_angle_alpha                90
_cell_angle_beta                 94.3070(10)
_cell_angle_gamma                90
_cell_volume                     4584.29
loop_
_atom_site_label
_atom_site_type_symbol
_atom_site_fract_x
_atom_site_fract_y
_atom_site_fract_z
Ni1 Ni 0.0000 0.5000 0.5000
Ni2 Ni 1.02097(5) 0.74354(2) 0.72388(2)
N1 N 0.2104(3) 0.51525(10) 0.45409(14)
N2 N 0.4204(3) 0.55753(10) 0.43398(15)
N3 N 0.8266(4) 0.72767(10) 0.26475(15)
N4 N 0.6858(4) 0.68903(10) 0.33822(15)
N5 N 0.8958(4) 0.69150(9) 0.67550(14)
N6 N 0.7636(4) 0.65361(10) 0.58925(14)
O1 O -0.1276(3) 0.51214(9) 0.40532(12)
O2 O -0.0672(3) 0.58619(8) 0.39258(12)
O3 O -0.8960(3) 0.71040(9) -0.18591(13)
O4 O -0.7548(3) 0.70206(9) -0.27826(13)
O5 O -0.0178(3) 0.28660(8) -0.13558(12)
O6 O -0.1578(3) 0.30613(8) -0.23342(12)
O7 O 0.0246(3) 0.43103(9) 0.46843(12)
H1 H 0.1059 0.4215 0.4486
H2 H -0.0603 0.4185 0.4502
C1 C 0.5983(4) 0.60444(12) 0.51000(19)
H3 H 0.5820 0.5849 0.5478
C2 C 0.5280(4) 0.59538(11) 0.44313(19)
C3 C 0.5535(4) 0.62313(12) 0.38544(19)
H4 H 0.5059 0.6167 0.3404
C4 C 0.6522(4) 0.66066(12) 0.39737(18)
C5 C 0.7213(4) 0.67163(12) 0.46364(18)
H5 H 0.7851 0.6976 0.4703
C6 C 0.6939(4) 0.64308(12) 0.52023(18)
C7 C 0.3112(4) 0.54627(12) 0.48035(19)
H6 H 0.3080 0.5590 0.5254
C8 C 0.2564(5) 0.50606(13) 0.3872(2)
H7 H 0.2060 0.4852 0.3556
C9 C 0.3851(5) 0.53166(14) 0.3740(2)
H8 H 0.4390 0.5318 0.3326
C10 C 0.8319(4) 0.70413(12) 0.32410(18)
H9 H 0.9251 0.6986 0.3529
C11 C 0.5796(5) 0.70424(15) 0.2840(2)
H10 H 0.4696 0.6991 0.2789
C12 C 0.6681(5) 0.72812(16) 0.2398(2)
H11 H 0.6276 0.7428 0.1985
C13 C 0.8501(5) 0.69056(13) 0.60817(19)
H12 H 0.8753 0.7134 0.5764
C14 C 0.8388(8) 0.65228(18) 0.7018(2)
H13 H 0.8528 0.6431 0.7491
C15 C 0.7594(9) 0.62876(19) 0.6501(2)
H14 H 0.7100 0.6004 0.6547
C16 C -0.1732(4) 0.54507(12) 0.29140(17)
C17 C -0.2089(5) 0.50282(12) 0.26063(18)
H15 H -0.2069 0.4766 0.2888
C18 C -0.2477(5) 0.49926(12) 0.18799(19)
H16 H -0.2727 0.4707 0.1682
C19 C -0.2498(4) 0.53769(11) 0.14431(17)
C20 C -0.2204(5) 0.57993(12) 0.17613(18)
H17 H -0.2267 0.6064 0.1484
C21 C -0.1818(5) 0.58347(12) 0.24838(18)
H18 H -0.1612 0.6122 0.2684
C22 C -0.2805(4) 0.53332(11) 0.06593(17)
C23 C -0.2331(4) 0.49371(11) 0.03161(17)
H19 H -0.1834 0.4702 0.0584
C24 C -0.2584(4) 0.48842(11) -0.04174(17)
C25 C -0.3321(5) 0.52417(12) -0.08085(17)
H20 H -0.3484 0.5213 -0.1300
C26 C -0.3817(4) 0.56382(11) -0.04845(17)
C27 C -0.3542(4) 0.56819(12) 0.02506(17)
H21 H -0.3856 0.5949 0.0472
C28 C -0.4745(4) 0.59933(12) -0.09072(17)
C29 C -0.4496(5) 0.60782(14) -0.16170(19)
H22 H -0.3676 0.5926 -0.1828
C30 C -0.5457(5) 0.63865(14) -0.20128(19)
H23 H -0.5278 0.6438 -0.2487
C31 C -0.6681(5) 0.66189(12) -0.17119(18)
C32 C -0.6919(5) 0.65398(14) -0.1005(2)
H24 H -0.7735 0.6693 -0.0794
C33 C -0.5958(5) 0.62361(14) -0.06106(19)
H25 H -0.6124 0.6192 -0.0133
C34 C -0.7777(5) 0.69317(12) -0.21449(19)
C35 C -0.2161(4) 0.44478(11) -0.07567(17)
C36 C -0.3011(5) 0.42945(13) -0.1376(2)
H26 H -0.3824 0.4476 -0.1590
C37 C -0.2664(5) 0.38766(13) -0.1678(2)
H27 H -0.3242 0.3782 -0.2093
C38 C -0.1470(4) 0.35981(12) -0.13709(18)
C39 C -0.0627(4) 0.37438(12) -0.07493(18)
H28 H 0.0162 0.3557 -0.0529
C40 C -0.0953(4) 0.41665(12) -0.04547(18)
H29 H -0.0352 0.4263 -0.0047
C41 C -0.1068(4) 0.31541(11) -0.17024(18)
C42 C -0.1186(4) 0.54836(12) 0.36932(17)
Ni2B Ni -1.02097(5) 0.25646(2) 0.27612(2)
N1B N -0.2104(3) 0.48475(10) 0.54591(14)
N2B N -0.4204(3) 0.44247(10) 0.56602(15)
N3B N -0.8266(4) 0.27233(10) 0.73525(15)
N4B N -0.6858(4) 0.31097(10) 0.66178(15)
N5B N -0.8958(4) 0.30850(9) 0.32450(14)
N6B N -0.7636(4) 0.34639(10) 0.41075(14)
O1B O 0.1276(3) 0.48786(9) 0.59468(12)
O2B O 0.0672(3) 0.41381(8) 0.60742(12)
O3B O 0.8960(3) 0.28960(9) 1.18591(13)
O4B O 0.7548(3) 0.29794(9) 1.27826(13)
O5B O 0.0178(3) 0.71340(8) 1.13558(12)
O6B O 0.1578(3) 0.69387(8) 1.23342(12)
O7B O -0.0246(3) 0.56897(9) 0.53157(12)
H1B H -0.1059 0.5785 0.5514
H2B H 0.0603 0.5815 0.5498
C1B C -0.5983(4) 0.39556(12) 0.49000(19)
H3B H -0.5820 0.4151 0.4522
C2B C -0.5280(4) 0.40462(11) 0.55687(19)
C3B C -0.5535(4) 0.37687(12) 0.61456(19)
H4B H -0.5059 0.3833 0.6596
C4B C -0.6522(4) 0.33934(12) 0.60263(18)
C5B C -0.7213(4) 0.32837(12) 0.53636(18)
H5B H -0.7851 0.3024 0.5297
C6B C -0.6939(4) 0.35692(12) 0.47977(18)
C7B C -0.3112(4) 0.45373(12) 0.51965(19)
H6B H -0.3080 0.4410 0.4746
C8B C -0.2564(5) 0.49394(13) 0.6128(2)
H7B H -0.2060 0.5148 0.6444
C9B C -0.3851(5) 0.46834(14) 0.6260(2)
H8B H -0.4390 0.4682 0.6674
C10B C -0.8319(4) 0.29587(12) 0.67590(18)
H9B H -0.9251 0.3014 0.6471
C11B C -0.5796(5) 0.29576(15) 0.7160(2)
H10B H -0.4696 0.3009 0.7211
C12B C -0.6681(5) 0.27188(16) 0.7602(2)
H11B H -0.6276 0.2572 0.8015
C13B C -0.8501(5) 0.30944(13) 0.39183(19)
H12B H -0.8753 0.2866 0.4236
C14B C -0.8388(8) 0.34772(18) 0.2982(2)
H13B H -0.8528 0.3569 0.2509
C15B C -0.7594(9) 0.37124(19) 0.3499(2)
H14B H -0.7100 0.3996 0.3453
C16B C 0.1732(4) 0.45493(12) 0.70860(17)
C17B C 0.2089(5) 0.49718(12) 0.73937(18)
H15B H 0.2069 0.5234 0.7112
C18B C 0.2477(5) 0.50074(12) 0.81201(19)
H16B H 0.2727 0.5293 0.8318
C19B C 0.2498(4) 0.46231(11) 0.85569(17)
C20B C 0.2204(5) 0.42007(12) 0.82387(18)
H17B H 0.2267 0.3936 0.8516
C21B C 0.1818(5) 0.41653(12) 0.75162(18)
H18B H 0.1612 0.3878 0.7316
C22B C 0.2805(4) 0.46668(11) 0.93407(17)
C23B C 0.2331(4) 0.50629(11) 0.96839(17)
H19B H 0.1834 0.5298 0.9416
C24B C 0.2584(4) 0.51158(11) 1.04174(17)
C25B C 0.3321(5) 0.47583(12) 1.08085(17)
H20B H 0.3484 0.4787 1.1300
C26B C 0.3817(4) 0.43618(11) 1.04845(17)
C27B C 0.3542(4) 0.43181(12) 0.97494(17)
H21B H 0.3856 0.4051 0.9528
C28B C 0.4745(4) 0.40067(12) 1.09072(17)
C29B C 0.4496(5) 0.39218(14) 1.16170(19)
H22B H 0.3676 0.4074 1.1828
C30B C 0.5457(5) 0.36135(14) 1.20128(19)
H23B H 0.5278 0.3562 1.2487
C31B C 0.6681(5) 0.33811(12) 1.17119(18)
C32B C 0.6919(5) 0.34602(14) 1.1005(2)
H24B H 0.7735 0.3307 1.0794
C33B C 0.5958(5) 0.37639(14) 1.06106(19)
H25B H 0.6124 0.3808 1.0133
C34B C 0.7777(5) 0.30683(12) 1.21449(19)
C35B C 0.2161(4) 0.55522(11) 1.07567(17)
C36B C 0.3011(5) 0.57055(13) 1.1376(2)
H26B H 0.3824 0.5524 1.1590
C37B C 0.2664(5) 0.61234(13) 1.1678(2)
H27B H 0.3242 0.6218 1.2093
C38B C 0.1470(4) 0.64019(12) 1.13709(18)
C39B C 0.0627(4) 0.62562(12) 1.07493(18)
H28B H -0.0162 0.6443 1.0529
C40B C 0.0953(4) 0.58335(12) 1.04547(18)
H29B H 0.0352 0.5737 1.0047
C41B C 0.1068(4) 0.68459(11) 1.17024(18)
C42B C 0.1186(4) 0.45164(12) 0.63068(17)
Ni2_2 Ni -0.97903(5) 0.74354(2) -0.27612(2)
Ni2A Ni -1.02097(5) 0.24354(2) 0.77612(2)
Ni2A_2 Ni -0.02097(5) 0.24354(2) -0.22388(2)
Ni2B_2 Ni 0.97903(5) 0.25646(2) 1.27612(2)
Ni2C Ni 0.02097(5) 0.75646(2) 1.22388(2)
Ni2C_2 Ni 1.02097(5) 0.75646(2) 0.22388(2)
N3A N -0.8266(4) 0.22767(10) 0.23525(15)
N3C N 0.8266(4) 0.77233(10) 0.76475(15)
O3_2 O 1.1040(3) 0.71040(9) 0.81409(13)
O3B_2 O -1.1040(3) 0.28960(9) 0.18591(13)
O4_2 O 1.2452(3) 0.70206(9) 0.72174(13)
O4B_2 O -1.2452(3) 0.29794(9) 0.27826(13)
O5A O 1.0178(3) 0.78660(8) 0.63558(12)
O5C O -1.0178(3) 0.21340(8) 0.36442(12)
O6A O 1.1578(3) 0.80613(8) 0.73342(12)
O6C O -1.1578(3) 0.19387(8) 0.26658(12)
O8 O 0.1829(4) 0.64237(12) 0.36104(16)
O9 O 0.7789(5) 0.37300(14) 0.3983(2)
O10 O 0.2385(7) 0.6902(2) 0.4882(2)
O11 O 0.4388(8) 0.7327(3) 0.5973(4)
O12 O 0.9890(10) 0.2612(2) 0.0219(5)
O13 O 0.3114(15) 0.3035(4) 0.9466(7)
O14 O 0.152(2) 0.3159(7) 0.0860(9)
loop_
_geom_bond_atom_site_label_1
_geom_bond_atom_site_label_2
_geom_bond_site_symmetry_1
_geom_bond_site_symmetry_2
Ni1 N1 1_555 1_555
Ni2 N5 1_555 1_555
N1 C7 1_555 1_555
N2 C2 1_555 1_555
N3 C10 1_555 1_555
N4 C4 1_555 1_555
N5 C13 1_555 1_555
N6 C6 1_555 1_555
O1 Ni1 1_555 1_555
O2 C42 1_555 1_555
O3 C34 1_555 1_555
O4 C34 1_555 1_555
O5 C41 1_555 1_555
O6 C41 1_555 1_555
O7 Ni1 1_555 1_555
H1 O7 1_555 1_555
H2 O7 1_555 1_555
C1 H3 1_555 1_555
C2 C1 1_555 1_555
C3 C2 1_555 1_555
H4 C3 1_555 1_555
C4 C3 1_555 1_555
C5 C4 1_555 1_555
H5 C5 1_555 1_555
C6 C1 1_555 1_555
C7 N2 1_555 1_555
H6 C7 1_555 1_555
C8 N1 1_555 1_555
H7 C8 1_555 1_555
C9 N2 1_555 1_555
H8 C9 1_555 1_555
C10 N4 1_555 1_555
H9 C10 1_555 1_555
C11 N4 1_555 1_555
H10 C11 1_555 1_555
C12 N3 1_555 1_555
H11 C12 1_555 1_555
C13 N6 1_555 1_555
H12 C13 1_555 1_555
C14 N5 1_555 1_555
H13 C14 1_555 1_555
C15 N6 1_555 1_555
H14 C15 1_555 1_555
C16 C17 1_555 1_555
C17 H15 1_555 1_555
C18 C17 1_555 1_555
H16 C18 1_555 1_555
C19 C18 1_555 1_555
C20 C19 1_555 1_555
H17 C20 1_555 1_555
C21 C16 1_555 1_555
H18 C21 1_555 1_555
C22 C19 1_555 1_555
C23 C22 1_555 1_555
H19 C23 1_555 1_555
C24 C23 1_555 1_555
C25 C24 1_555 1_555
H20 C25 1_555 1_555
C26 C25 1_555 1_555
C27 C22 1_555 1_555
H21 C27 1_555 1_555
C28 C26 1_555 1_555
C29 C28 1_555 1_555
H22 C29 1_555 1_555
C30 C29 1_555 1_555
H23 C30 1_555 1_555
C31 C30 1_555 1_555
C32 C31 1_555 1_555
H24 C32 1_555 1_555
C33 C28 1_555 1_555
H25 C33 1_555 1_555
C34 C31 1_555 1_555
C35 C24 1_555 1_555
C36 C35 1_555 1_555
H26 C36 1_555 1_555
C37 C36 1_555 1_555
H27 C37 1_555 1_555
C38 C37 1_555 1_555
C39 C38 1_555 1_555
H28 C39 1_555 1_555
C40 C35 1_555 1_555
H29 C40 1_555 1_555
C41 C38 1_555 1_555
C42 O1 1_555 1_555
Ni2B N5B 1_555 1_555
N1B Ni1 1_555 1_555
N2B C2B 1_555 1_555
N3B C10B 1_555 1_555
N4B C4B 1_555 1_555
N5B C13B 1_555 1_555
N6B C6B 1_555 1_555
O1B Ni1 1_555 1_555
O2B C42B 1_555 1_555
O3B C34B 1_555 1_555
O4B C34B 1_555 1_555
O5B C41B 1_555 1_555
O6B C41B 1_555 1_555
O7B Ni1 1_555 1_555
H1B O7B 1_555 1_555
H2B O7B 1_555 1_555
C1B H3B 1_555 1_555
C2B C1B 1_555 1_555
C3B C2B 1_555 1_555
H4B C3B 1_555 1_555
C4B C3B 1_555 1_555
C5B C4B 1_555 1_555
H5B C5B 1_555 1_555
C6B C1B 1_555 1_555
C7B N1B 1_555 1_555
H6B C7B 1_555 1_555
C8B N1B 1_555 1_555
H7B C8B 1_555 1_555
C9B N2B 1_555 1_555
H8B C9B 1_555 1_555
C10B N4B 1_555 1_555
H9B C10B 1_555 1_555
C11B N4B 1_555 1_555
H10B C11B 1_555 1_555
C12B N3B 1_555 1_555
H11B C12B 1_555 1_555
C13B N6B 1_555 1_555
H12B C13B 1_555 1_555
C14B N5B 1_555 1_555
H13B C14B 1_555 1_555
C15B N6B 1_555 1_555
H14B C15B 1_555 1_555
C16B C17B 1_555 1_555
C17B H15B 1_555 1_555
C18B C17B 1_555 1_555
H16B C18B 1_555 1_555
C19B C18B 1_555 1_555
C20B C19B 1_555 1_555
H17B C20B 1_555 1_555
C21B C16B 1_555 1_555
H18B C21B 1_555 1_555
C22B C19B 1_555 1_555
C23B C22B 1_555 1_555
H19B C23B 1_555 1_555
C24B C23B 1_555 1_555
C25B C24B 1_555 1_555
H20B C25B 1_555 1_555
C26B C25B 1_555 1_555
C27B C22B 1_555 1_555
H21B C27B 1_555 1_555
C28B C26B 1_555 1_555
C29B C28B 1_555 1_555
H22B C29B 1_555 1_555
C30B C29B 1_555 1_555
H23B C30B 1_555 1_555
C31B C30B 1_555 1_555
C32B C31B 1_555 1_555
H24B C32B 1_555 1_555
C33B C28B 1_555 1_555
H25B C33B 1_555 1_555
C34B C31B 1_555 1_555
C35B C24B 1_555 1_555
C36B C35B 1_555 1_555
H26B C36B 1_555 1_555
C37B C36B 1_555 1_555
H27B C37B 1_555 1_555
C38B C37B 1_555 1_555
C39B C38B 1_555 1_555
H28B C39B 1_555 1_555
C40B C35B 1_555 1_555
H29B C40B 1_555 1_555
C41B C38B 1_555 1_555
C42B O1B 1_555 1_555
Ni2_2 O3 1_555 1_555
Ni2A N3B 1_555 1_555
Ni2A_2 O5 1_555 1_555
Ni2B_2 O3B 1_555 1_555
Ni2C O5B 1_555 1_555
Ni2C_2 N3 1_555 1_555
N3A Ni2B 1_555 1_555
N3C Ni2 1_555 1_555
O3_2 Ni2 1_555 1_555
O3B_2 Ni2B 1_555 1_555
O4_2 Ni2 1_555 1_555
O4B_2 Ni2B 1_555 1_555
O5A Ni2 1_555 1_555
O5C Ni2B 1_555 1_555
O6A Ni2 1_555 1_555
O6C Ni2B 1_555 1_555
O4 Ni2_2 1_555 1_555
O6 Ni2A_2 1_555 1_555
C5 C6 1_555 1_555
C8 C9 1_555 1_555
C11 C12 1_555 1_555
C14 C15 1_555 1_555
C16 C42 1_555 1_555
C20 C21 1_555 1_555
C26 C27 1_555 1_555
C32 C33 1_555 1_555
C39 C40 1_555 1_555
N2B C7B 1_555 1_555
O4B Ni2B_2 1_555 1_555
O6B Ni2C 1_555 1_555
C5B C6B 1_555 1_555
C8B C9B 1_555 1_555
C11B C12B 1_555 1_555
C14B C15B 1_555 1_555
C16B C42B 1_555 1_555
C20B C21B 1_555 1_555
C26B C27B 1_555 1_555
C32B C33B 1_555 1_555
C39B C40B 1_555 1_555

#END
