
#######################################################################
#
#                 Cambridge Crystallographic Data Centre
#                                CCDC 
#
#######################################################################
#
# If this CIF has been generated from an entry in the Cambridge 
# Structural Database, then it will include bibliographic, chemical, 
# crystal, experimental, refinement or atomic coordinate data resulting 
# from the CCDC's data processing and validation procedures.
#
#######################################################################

data_COQNIF
_chemical_formula_moiety         '(H2 Al6 Mn2 O33 P8)n'
_symmetry_cell_setting           trigonal
_symmetry_space_group_name_H-M   'P -3'
_symmetry_Int_Tables_number      147
_space_group_name_Hall           '-P 3'
loop_
_symmetry_equiv_pos_site_id
_symmetry_equiv_pos_as_xyz
1 x,y,z
2 -y,x-y,z
3 -x+y,-x,z
4 -x,-y,-z
5 y,-x+y,-z
6 x-y,x,-z
_cell_length_a                   12.746(1)
_cell_length_b                   12.746(1)
_cell_length_c                   9.140(1)
_cell_angle_alpha                90
_cell_angle_beta                 90
_cell_angle_gamma                120
_cell_volume                     1285.95
loop_
_atom_site_label
_atom_site_type_symbol
_atom_site_fract_x
_atom_site_fract_y
_atom_site_fract_z
Al1 Al 0.6732(1) 0.5304(1) 0.4172(1)
Mn1 Mn 0.6667 0.3333 0.8217(1)
P1 P 0.4553(1) 0.3217(1) 0.6176(1)
P2 P 0.66670 0.33330 1.2019(2)
O2 O 0.5597(3) 0.4214(4) 0.5302(4)
O3 O 0.3998(3) 0.2078(3) 0.5229(4)
O4 O 0.3603(3) 0.3593(3) 0.6417(4)
O5 O 0.6809(3) 0.4525(3) 1.2600(4)
O6 O 0.5005(3) 0.3051(3) 0.7617(3)
O7 O 0.66670 0.33330 1.0409(6)
O5A O 0.5475(3) 0.2284(4) 1.2600(4)
O5B O 0.7716(4) 0.3191(3) 1.2600(4)
P1A P 0.6783(1) 0.1336(1) 0.6176(1)
O2A O 0.5786(4) 0.1383(5) 0.5302(4)
O3A O 0.7922(3) 0.1920(4) 0.5229(4)
O4A O 0.6407(3) 0.0010(4) 0.6417(4)
O6A O 0.6949(3) 0.1954(4) 0.7617(3)
P1B P 0.8664(1) 0.5447(1) 0.6176(1)
O2B O 0.8617(5) 0.4403(3) 0.5302(4)
O3B O 0.8080(4) 0.6002(3) 0.5229(4)
O4B O 0.9990(4) 0.6397(3) 0.6417(4)
O6B O 0.8046(4) 0.4995(3) 0.7617(3)
Al1A Al 0.4696(1) 0.1428(1) 0.4172(1)
Al1B Al 0.8572(1) 0.3268(1) 0.4172(1)
Al1C Al 0.3268(1) 0.4696(1) 0.5828(1)
Al1D Al 0.5304(1) -0.1428(1) 0.5828(1)
Al1E Al 1.1428(1) 0.6732(1) 0.5828(1)
P1C P 0.5447(1) 0.6783(1) 0.3824(1)
O2C O 0.4403(3) 0.5786(4) 0.4698(4)
O3C O 0.6002(3) 0.7922(3) 0.4771(4)
O4C O 0.6397(3) 0.6407(3) 0.3583(4)
O6C O 0.4995(3) 0.6949(3) 0.2383(3)
P2_2 P 0.66670 0.33330 0.2019(2)
O5_2 O 0.6809(3) 0.4525(3) 0.2600(4)
O7_2 O 0.66670 0.33330 0.0409(6)
O5A_2 O 0.5475(3) 0.2284(4) 0.2600(4)
O5B_2 O 0.7716(4) 0.3191(3) 0.2600(4)
P1D P 0.3217(1) -0.1336(1) 0.3824(1)
O2D O 0.4214(4) -0.1383(5) 0.4698(4)
O3D O 0.2078(3) -0.1920(4) 0.4771(4)
O4D O 0.3593(3) -0.0010(4) 0.3583(4)
O6D O 0.3051(3) -0.1954(4) 0.2383(3)
P1E P 1.1336(1) 0.4553(1) 0.3824(1)
O2E O 1.1383(5) 0.5597(3) 0.4698(4)
O3E O 1.1920(4) 0.3998(3) 0.4771(4)
O4E O 1.0010(4) 0.3603(3) 0.3583(4)
O6E O 1.1954(4) 0.5005(3) 0.2383(3)
Mn1C Mn 0.3333 0.6667 0.1783(1)
Al1_2 Al 0.6732(1) 0.5304(1) 1.4172(1)
Al1A_2 Al 0.4696(1) 0.1428(1) 1.4172(1)
Al1B_2 Al 0.8572(1) 0.3268(1) 1.4172(1)
O3E_2 O 0.1920(4) 0.3998(3) 0.4771(4)
O5C O 0.3191(3) 0.5475(3) 0.7400(4)
O3C_2 O 0.6002(3) -0.2078(3) 0.4771(4)
O5D O 0.4525(3) -0.2284(4) 0.7400(4)
O3D_2 O 1.2078(3) 0.8080(4) 0.4771(4)
O5E O 1.2284(4) 0.6809(3) 0.7400(4)
Al1D_2 Al 0.5304(1) 0.8572(1) 0.5828(1)
Mn1_2 Mn 0.6667 0.3333 -0.1783(1)
Al1E_2 Al 0.1428(1) -0.3268(1) 0.5828(1)
Mn1C_2 Mn 0.3333 -0.3333 0.1783(1)
Al1C_2 Al 1.3268(1) 0.4696(1) 0.5828(1)
Mn1C_3 Mn 1.3333 0.6667 0.1783(1)
O6D_2 O 0.3051(3) 0.8046(4) 0.2383(3)
O6E_2 O 0.1954(4) 0.5005(3) 0.2383(3)
O7C O 0.33330 0.66670 -0.0409(6)
O1 O 0.00000 0.00000 0.50000
loop_
_geom_bond_atom_site_label_1
_geom_bond_atom_site_label_2
_geom_bond_site_symmetry_1
_geom_bond_site_symmetry_2
Al1 O2 1_555 1_555
Mn1 O6 1_555 1_555
P1 O2 1_555 1_555
P2 O5 1_555 1_555
O3 P1 1_555 1_555
O4 P1 1_555 1_555
O5 Al1_2 1_555 1_555
O6 P1 1_555 1_555
O7 Mn1 1_555 1_555
O5A P2 1_555 1_555
O5B P2 1_555 1_555
P1A O2A 1_555 1_555
O2A Al1A 1_555 1_555
O3A P1A 1_555 1_555
O4A P1A 1_555 1_555
O6A Mn1 1_555 1_555
P1B O2B 1_555 1_555
O2B Al1B 1_555 1_555
O3B Al1 1_555 1_555
O4B P1B 1_555 1_555
O6B Mn1 1_555 1_555
Al1A O3 1_555 1_555
Al1B O3A 1_555 1_555
Al1C O4 1_555 1_555
Al1D O4A 1_555 1_555
Al1E O4B 1_555 1_555
P1C O2C 1_555 1_555
O2C Al1C 1_555 1_555
O3C P1C 1_555 1_555
O4C Al1 1_555 1_555
O6C P1C 1_555 1_555
P2_2 O5_2 1_555 1_555
O5_2 Al1 1_555 1_555
O7_2 P2_2 1_555 1_555
O5A_2 Al1A 1_555 1_555
O5B_2 Al1B 1_555 1_555
P1D O2D 1_555 1_555
O2D Al1D 1_555 1_555
O3D P1D 1_555 1_555
O4D Al1A 1_555 1_555
O6D P1D 1_555 1_555
P1E O2E 1_555 1_555
O2E Al1E 1_555 1_555
O3E P1E 1_555 1_555
O4E Al1B 1_555 1_555
O6E P1E 1_555 1_555
Mn1C O6C 1_555 1_555
Al1A_2 O5A 1_555 1_555
Al1B_2 O5B 1_555 1_555
O3E_2 Al1C 1_555 1_555
O5C Al1C 1_555 1_555
O3C_2 Al1D 1_555 1_555
O5D Al1D 1_555 1_555
O3D_2 Al1E 1_555 1_555
O5E Al1E 1_555 1_555
Al1D_2 O3C 1_555 1_555
Mn1_2 O7_2 1_555 1_555
Al1E_2 O3D 1_555 1_555
Mn1C_2 O6D 1_555 1_555
Al1C_2 O3E 1_555 1_555
Mn1C_3 O6E 1_555 1_555
O6D_2 Mn1C 1_555 1_555
O6E_2 Mn1C 1_555 1_555
O7C Mn1C 1_555 1_555
P2 O7 1_555 1_555
P1A O6A 1_555 1_555
P1B O3B 1_555 1_555
P1B O6B 1_555 1_555
P1C O4C 1_555 1_555
P2_2 O5A_2 1_555 1_555
P2_2 O5B_2 1_555 1_555
P1D O4D 1_555 1_555
P1E O4E 1_555 1_555

#END
