
#######################################################################
#
#                 Cambridge Crystallographic Data Centre
#                                CCDC 
#
#######################################################################
#
# If this CIF has been generated from an entry in the Cambridge 
# Structural Database, then it will include bibliographic, chemical, 
# crystal, experimental, refinement or atomic coordinate data resulting 
# from the CCDC's data processing and validation procedures.
#
#######################################################################

data_PAFPAQ
_chemical_formula_moiety         '(C48 H40 N16 O4 Zn4)n'
_symmetry_cell_setting           tetragonal
_symmetry_space_group_name_H-M   'P 43 2 2'
_symmetry_Int_Tables_number      95
_space_group_name_Hall           'P 4cw 2c'
loop_
_symmetry_equiv_pos_site_id
_symmetry_equiv_pos_as_xyz
1 x,y,z
2 -x,-y,1/2+z
3 -y,x,3/4+z
4 y,-x,1/4+z
5 -x,y,-z
6 x,-y,1/2-z
7 y,x,1/4-z
8 -y,-x,3/4-z
_cell_length_a                   11.69630(10)
_cell_length_b                   11.69630(10)
_cell_length_c                   47.2239(7)
_cell_angle_alpha                90
_cell_angle_beta                 90
_cell_angle_gamma                90
_cell_volume                     6460.39
loop_
_atom_site_label
_atom_site_type_symbol
_atom_site_fract_x
_atom_site_fract_y
_atom_site_fract_z
_atom_site_U_iso_or_equiv
_atom_site_thermal_displace_type
Zn1 Zn 0.29504(4) 0.24044(5) 0.004933(10) 0.0415 Uani
Zn2 Zn 0.5000 0.03295(6) 0.0000 0.0382 Uani
Zn3 Zn 0.5000 0.44962(6) 0.0000 0.0427 Uani
N1 N -0.1609(3) 0.2178(3) -0.21264(7) 0.0421 Uani
N2 N 0.1841(3) 0.3039(3) -0.02354(7) 0.0398 Uani
O1 O 0.3752(3) 0.1210(3) -0.01645(6) 0.0532 Uani
N3 N 0.4423(3) -0.0671(3) 0.03167(6) 0.0426 Uani
C1 C 0.5302(3) -0.2859(3) 0.15156(7) 0.0384 Uani
C2 C -0.1412(3) 0.2687(3) -0.18804(7) 0.0384 Uani
H1 H -0.1693 0.3403 -0.1830 0.0460 Uiso
N4 N 0.4374(3) -0.1646(3) 0.07145(7) 0.0421 Uani
N5 N 0.5371(3) -0.4168(3) 0.22009(7) 0.0413 Uani
C3 C 0.4978(4) -0.0890(3) 0.05550(7) 0.0416 Uani
H2 H 0.5678 -0.0573 0.0606 0.0500 Uiso
C4 C 0.3414(4) -0.1288(4) 0.03263(9) 0.0485 Uani
H3 H 0.2851 -0.1291 0.0187 0.0580 Uiso
N6 N 0.0910(3) 0.3192(3) -0.06333(7) 0.0419 Uani
N7 N -0.0751(3) 0.2029(3) -0.17139(7) 0.0417 Uani
N8 N 0.5566(3) -0.3286(3) 0.17902(7) 0.0394 Uani
C5 C -0.0922(5) 0.3045(5) -0.12697(10) 0.0660 Uani
H4 H -0.1600 0.3357 -0.1338 0.0800 Uiso
C6 C -0.0330(4) 0.2326(4) -0.14358(8) 0.0440 Uani
C7 C 0.4892(3) -0.3946(3) 0.19510(7) 0.0375 Uani
H5 H 0.4179 -0.4215 0.1895 0.0450 Uiso
C8 C 0.1282(4) 0.4067(4) -0.02388(9) 0.0520 Uani
H6 H 0.1311 0.4608 -0.0095 0.0620 Uiso
C9 C -0.1060(4) 0.1131(4) -0.21138(10) 0.0533 Uani
H7 H -0.1049 0.0588 -0.2257 0.0640 Uiso
C10 C -0.0551(5) 0.1027(4) -0.18635(10) 0.0603 Uani
H8 H -0.0137 0.0398 -0.1800 0.0720 Uiso
C11 C 0.0676(4) 0.4185(4) -0.04837(9) 0.0517 Uani
H9 H 0.0213 0.4792 -0.0538 0.0620 Uiso
C12 C 0.0469(3) 0.2888(3) -0.09140(8) 0.0422 Uani
C13 C 0.5436(5) -0.1453(4) 0.11533(10) 0.0600 Uani
H10 H 0.5743 -0.0769 0.1087 0.0720 Uiso
C14 C 0.1607(3) 0.2541(4) -0.04824(8) 0.0401 Uani
H11 H 0.1893 0.1837 -0.0541 0.0480 Uiso
C15 C 0.4709(4) -0.2062(3) 0.09844(7) 0.0403 Uani
C16 C 0.4547(5) -0.3484(5) 0.13449(11) 0.0633 Uani
H12 H 0.4238 -0.4167 0.1411 0.0760 Uiso
C17 C 0.4264(5) -0.3088(4) 0.10812(9) 0.0570 Uani
H13 H 0.3772 -0.3508 0.0967 0.0680 Uiso
C18 C 0.1106(4) 0.2191(5) -0.10833(11) 0.0593 Uani
H14 H 0.1811 0.1917 -0.1023 0.0710 Uiso
C19 C 0.3383(4) -0.1878(4) 0.05686(9) 0.0530 Uani
H15 H 0.2796 -0.2359 0.0628 0.0630 Uiso
C20 C -0.0557(5) 0.3337(4) -0.09999(11) 0.0613 Uani
H16 H -0.0986 0.3814 -0.0883 0.0730 Uiso
C21 C 0.6536(4) -0.3065(4) 0.19500(10) 0.0557 Uani
H17 H 0.7156 -0.2616 0.1897 0.0670 Uiso
C22 C 0.0680(5) 0.1896(5) -0.13488(11) 0.0637 Uani
H18 H 0.1091 0.1404 -0.1466 0.0770 Uiso
C23 C 0.6407(4) -0.3621(5) 0.21954(10) 0.0573 Uani
H19 H 0.6942 -0.3636 0.2341 0.0690 Uiso
C24 C 0.5726(5) -0.1844(5) 0.14252(10) 0.0680 Uani
H20 H 0.6201 -0.1412 0.1542 0.0810 Uiso
O2 O 0.3947(4) 0.3531(4) 0.02100(8) 0.0753 Uani
Zn1D Zn 0.70496(4) 0.24044(5) -0.004933(10) 0.0415 Uani
N1D N 1.1609(3) 0.2178(3) 0.21264(7) 0.0421 Uani
N2D N 0.8159(3) 0.3039(3) 0.02354(7) 0.0398 Uani
O1D O 0.6248(3) 0.1210(3) 0.01645(6) 0.0532 Uani
N3D N 0.5577(3) -0.0671(3) -0.03167(6) 0.0426 Uani
C1D C 0.4698(3) -0.2859(3) -0.15156(7) 0.0384 Uani
C2D C 1.1412(3) 0.2687(3) 0.18804(7) 0.0384 Uani
H1D H 1.1693 0.3403 0.1830 0.0460 Uiso
N4D N 0.5626(3) -0.1646(3) -0.07145(7) 0.0421 Uani
N5D N 0.4629(3) -0.4168(3) -0.22009(7) 0.0413 Uani
C3D C 0.5022(4) -0.0890(3) -0.05550(7) 0.0416 Uani
H2D H 0.4322 -0.0573 -0.0606 0.0500 Uiso
C4D C 0.6586(4) -0.1288(4) -0.03263(9) 0.0485 Uani
H3D H 0.7149 -0.1291 -0.0187 0.0580 Uiso
N6D N 0.9090(3) 0.3192(3) 0.06333(7) 0.0419 Uani
N7D N 1.0751(3) 0.2029(3) 0.17139(7) 0.0417 Uani
N8D N 0.4434(3) -0.3286(3) -0.17902(7) 0.0394 Uani
C5D C 1.0922(5) 0.3045(5) 0.12697(10) 0.0660 Uani
H4D H 1.1600 0.3357 0.1338 0.0800 Uiso
C6D C 1.0330(4) 0.2326(4) 0.14358(8) 0.0440 Uani
C7D C 0.5108(3) -0.3946(3) -0.19510(7) 0.0375 Uani
H5D H 0.5821 -0.4215 -0.1895 0.0450 Uiso
C8D C 0.8718(4) 0.4067(4) 0.02388(9) 0.0520 Uani
H6D H 0.8689 0.4608 0.0095 0.0620 Uiso
C9D C 1.1060(4) 0.1131(4) 0.21138(10) 0.0533 Uani
H7D H 1.1049 0.0588 0.2257 0.0640 Uiso
C10D C 1.0551(5) 0.1027(4) 0.18635(10) 0.0603 Uani
H8D H 1.0137 0.0398 0.1800 0.0720 Uiso
C11D C 0.9324(4) 0.4185(4) 0.04837(9) 0.0517 Uani
H9D H 0.9787 0.4792 0.0538 0.0620 Uiso
C12D C 0.9531(3) 0.2888(3) 0.09140(8) 0.0422 Uani
C13D C 0.4564(5) -0.1453(4) -0.11533(10) 0.0600 Uani
H10D H 0.4257 -0.0769 -0.1087 0.0720 Uiso
C14D C 0.8393(3) 0.2541(4) 0.04824(8) 0.0401 Uani
H11D H 0.8107 0.1837 0.0541 0.0480 Uiso
C15D C 0.5291(4) -0.2062(3) -0.09844(7) 0.0403 Uani
C16D C 0.5453(5) -0.3484(5) -0.13449(11) 0.0633 Uani
H12D H 0.5762 -0.4167 -0.1411 0.0760 Uiso
C17D C 0.5736(5) -0.3088(4) -0.10812(9) 0.0570 Uani
H13D H 0.6228 -0.3508 -0.0967 0.0680 Uiso
C18D C 0.8894(4) 0.2191(5) 0.10833(11) 0.0593 Uani
H14D H 0.8189 0.1917 0.1023 0.0710 Uiso
C19D C 0.6617(4) -0.1878(4) -0.05686(9) 0.0530 Uani
H15D H 0.7204 -0.2359 -0.0628 0.0630 Uiso
C20D C 1.0557(5) 0.3337(4) 0.09999(11) 0.0613 Uani
H16D H 1.0986 0.3814 0.0883 0.0730 Uiso
C21D C 0.3464(4) -0.3065(4) -0.19500(10) 0.0557 Uani
H17D H 0.2844 -0.2616 -0.1897 0.0670 Uiso
C22D C 0.9320(5) 0.1896(5) 0.13488(11) 0.0637 Uani
H18D H 0.8909 0.1404 0.1466 0.0770 Uiso
C23D C 0.3593(4) -0.3621(5) -0.21954(10) 0.0573 Uani
H19D H 0.3058 -0.3636 -0.2341 0.0690 Uiso
C24D C 0.4274(5) -0.1844(5) -0.14252(10) 0.0680 Uani
H20D H 0.3799 -0.1412 -0.1542 0.0810 Uiso
O2D O 0.6053(4) 0.3531(4) -0.02100(8) 0.0753 Uani
Zn1B Zn -0.24044(5) 0.29504(4) -0.245067(10) 0.0415 Uani
Zn1F Zn 1.24044(5) 0.29504(4) 0.245067(10) 0.0415 Uani
Zn3B Zn 0.55038(6) -0.5000 -0.2500 0.0427 Uani
Zn3C Zn 0.44962(6) -0.5000 0.2500 0.0427 Uani
N1C N 0.2178(3) 0.1609(3) 0.03736(7) 0.0421 Uani
N1G N 0.7822(3) 0.1609(3) -0.03736(7) 0.0421 Uani
N5B N 0.4168(3) 0.5371(3) -0.02991(7) 0.0413 Uani
N5F N 0.5832(3) 0.5371(3) 0.02991(7) 0.0413 Uani
loop_
_atom_site_aniso_label
_atom_site_aniso_U_11
_atom_site_aniso_U_22
_atom_site_aniso_U_33
_atom_site_aniso_U_23
_atom_site_aniso_U_13
_atom_site_aniso_U_12
Zn1 0.0469(3) 0.0465(3) 0.0310(3) 0.0066(2) -0.01000(19) -0.0054(2)
Zn2 0.0529(4) 0.0346(3) 0.0271(3) 0.000 -0.0060(3) 0.000
Zn3 0.0548(4) 0.0391(4) 0.0341(3) 0.000 -0.0159(3) 0.000
N1 0.0495(18) 0.0446(18) 0.0322(15) -0.0037(13) -0.0045(14) 0.0017(14)
N2 0.0395(16) 0.0510(18) 0.0288(14) 0.0047(13) -0.0047(12) -0.0005(14)
O1 0.0594(18) 0.0632(19) 0.0369(14) 0.0188(13) 0.0048(13) 0.0180(14)
N3 0.059(2) 0.0405(16) 0.0284(14) 0.0049(12) -0.0059(14) 0.0022(15)
C1 0.047(2) 0.0416(19) 0.0266(16) 0.0072(14) 0.0055(15) -0.0040(15)
C2 0.0454(19) 0.0428(19) 0.0269(15) -0.0001(14) -0.0023(14) 0.0013(15)
N4 0.0523(19) 0.0400(16) 0.0340(15) 0.0089(13) -0.0037(14) -0.0054(14)
N5 0.0467(18) 0.0439(17) 0.0332(15) 0.0045(13) 0.0004(13) -0.0043(14)
C3 0.054(2) 0.0439(19) 0.0269(16) 0.0014(14) -0.0030(16) -0.0095(17)
C4 0.065(3) 0.044(2) 0.0365(19) 0.0015(16) -0.0147(19) -0.0065(18)
N6 0.0468(18) 0.0499(18) 0.0289(15) -0.0010(13) -0.0088(13) 0.0008(14)
N7 0.0531(19) 0.0442(17) 0.0277(15) -0.0003(13) -0.0049(13) 0.0036(14)
N8 0.0375(16) 0.0488(17) 0.0320(15) 0.0089(13) 0.0024(13) -0.0055(13)
C5 0.077(3) 0.082(4) 0.039(2) -0.009(2) -0.024(2) 0.032(3)
C6 0.052(2) 0.050(2) 0.0299(16) 0.0060(16) -0.0042(16) 0.0022(17)
C7 0.0437(19) 0.0444(18) 0.0245(15) 0.0084(14) -0.0009(14) -0.0034(15)
C8 0.066(3) 0.056(2) 0.0340(19) -0.0085(18) -0.0094(19) 0.015(2)
C9 0.072(3) 0.041(2) 0.047(2) -0.0117(18) -0.010(2) 0.0020(19)
C10 0.090(4) 0.036(2) 0.055(2) -0.0059(18) -0.017(3) 0.025(2)
C11 0.057(2) 0.061(3) 0.037(2) -0.0059(18) -0.0125(18) 0.017(2)
C12 0.0428(19) 0.051(2) 0.0329(17) 0.0040(15) -0.0041(16) 0.0025(16)
C13 0.077(3) 0.061(3) 0.042(2) 0.020(2) -0.007(2) -0.027(2)
C14 0.0410(18) 0.0436(19) 0.0357(17) 0.0047(16) -0.0050(14) 0.0036(16)
C15 0.053(2) 0.0428(19) 0.0251(15) 0.0028(14) -0.0025(15) -0.0047(15)
C16 0.076(3) 0.062(3) 0.052(3) 0.018(2) -0.010(2) -0.019(2)
C17 0.080(3) 0.054(3) 0.037(2) 0.0101(19) -0.013(2) -0.023(2)
C18 0.057(3) 0.067(3) 0.054(3) 0.002(2) -0.010(2) 0.023(2)
C19 0.065(3) 0.053(2) 0.041(2) 0.0072(18) -0.018(2) -0.013(2)
C20 0.075(3) 0.054(3) 0.055(3) -0.016(2) -0.026(2) 0.023(2)
C21 0.047(2) 0.070(3) 0.050(2) 0.019(2) -0.0051(19) -0.017(2)
C22 0.066(3) 0.081(4) 0.044(2) -0.011(2) -0.008(2) 0.019(3)
C23 0.045(2) 0.082(3) 0.045(2) 0.018(2) -0.0119(19) -0.014(2)
C24 0.083(4) 0.079(3) 0.042(2) 0.018(2) -0.021(2) -0.041(3)
O2 0.095(3) 0.076(2) 0.0549(19) 0.0162(18) -0.0250(19) -0.036(2)
Zn1D 0.0469 0.0465 0.031 -0.0066 -0.01 0.0054
N1D 0.0495 0.0446 0.0322 0.0037 -0.0045 -0.0017
N2D 0.0395 0.051 0.0288 -0.0047 -0.0047 0.0005
O1D 0.0594 0.0632 0.0369 -0.0188 0.0048 -0.018
N3D 0.059 0.0405 0.0284 -0.0049 -0.0059 -0.0022
C1D 0.047 0.0416 0.0266 -0.0072 0.0055 0.004
C2D 0.0454 0.0428 0.0269 0.0001 -0.0023 -0.0013
N4D 0.0523 0.04 0.034 -0.0089 -0.0037 0.0054
N5D 0.0467 0.0439 0.0332 -0.0045 0.0004 0.0043
C3D 0.054 0.0439 0.0269 -0.0014 -0.003 0.0095
C4D 0.065 0.044 0.0365 -0.0015 -0.0147 0.0065
N6D 0.0468 0.0499 0.0289 0.001 -0.0088 -0.0008
N7D 0.0531 0.0442 0.0277 0.0003 -0.0049 -0.0036
N8D 0.0375 0.0488 0.032 -0.0089 0.0024 0.0055
C5D 0.077 0.082 0.039 0.009 -0.024 -0.032
C6D 0.052 0.05 0.0299 -0.006 -0.0042 -0.0022
C7D 0.0437 0.0444 0.0245 -0.0084 -0.0009 0.0034
C8D 0.066 0.056 0.034 0.0085 -0.0094 -0.015
C9D 0.072 0.041 0.047 0.0117 -0.01 -0.002
C10D 0.09 0.036 0.055 0.0059 -0.017 -0.025
C11D 0.057 0.061 0.037 0.0059 -0.0125 -0.017
C12D 0.0428 0.051 0.0329 -0.004 -0.0041 -0.0025
C13D 0.077 0.061 0.042 -0.02 -0.007 0.027
C14D 0.041 0.0436 0.0357 -0.0047 -0.005 -0.0036
C15D 0.053 0.0428 0.0251 -0.0028 -0.0025 0.0047
C16D 0.076 0.062 0.052 -0.018 -0.01 0.019
C17D 0.08 0.054 0.037 -0.0101 -0.013 0.023
C18D 0.057 0.067 0.054 -0.002 -0.01 -0.023
C19D 0.065 0.053 0.041 -0.0072 -0.018 0.013
C20D 0.075 0.054 0.055 0.016 -0.026 -0.023
C21D 0.047 0.07 0.05 -0.019 -0.0051 0.017
C22D 0.066 0.081 0.044 0.011 -0.008 -0.019
C23D 0.045 0.082 0.045 -0.018 -0.0119 0.014
C24D 0.083 0.079 0.042 -0.018 -0.021 0.041
O2D 0.095 0.076 0.0549 -0.0162 -0.025 0.036
Zn1B 0.0465 0.0469 0.031 -0.01 -0.0066 0.0054
Zn1F 0.0465 0.0469 0.031 0.01 -0.0066 -0.0054
Zn3B 0.0391 0.0548 0.0341 -0.0159 0 0
Zn3C 0.0391 0.0548 0.0341 0.0159 0 0
N1C 0.0446 0.0495 0.0322 0.0045 -0.0037 -0.0017
N1G 0.0446 0.0495 0.0322 -0.0045 -0.0037 0.0017
N5B 0.0439 0.0467 0.0332 0.0004 -0.0045 0.0043
N5F 0.0439 0.0467 0.0332 -0.0004 -0.0045 -0.0043
loop_
_geom_bond_atom_site_label_1
_geom_bond_atom_site_label_2
_geom_bond_site_symmetry_1
_geom_bond_site_symmetry_2
Zn1 N2 1_555 1_555
Zn2 O1 1_555 1_555
Zn3 O2 1_555 1_555
N1 C2 1_555 1_555
N2 C8 1_555 1_555
O1 Zn1 1_555 1_555
N3 Zn2 1_555 1_555
C1 N8 1_555 1_555
C2 H1 1_555 1_555
N4 C3 1_555 1_555
N5 C7 1_555 1_555
C3 N3 1_555 1_555
H2 C3 1_555 1_555
C4 N3 1_555 1_555
H3 C4 1_555 1_555
N6 C11 1_555 1_555
N7 C2 1_555 1_555
N8 C7 1_555 1_555
C5 H4 1_555 1_555
C6 N7 1_555 1_555
C7 H5 1_555 1_555
C8 H6 1_555 1_555
C9 N1 1_555 1_555
H7 C9 1_555 1_555
C10 N7 1_555 1_555
H8 C10 1_555 1_555
C11 C8 1_555 1_555
H9 C11 1_555 1_555
C12 N6 1_555 1_555
C13 H10 1_555 1_555
C14 N2 1_555 1_555
H11 C14 1_555 1_555
C15 N4 1_555 1_555
C16 C1 1_555 1_555
H12 C16 1_555 1_555
C17 C15 1_555 1_555
H13 C17 1_555 1_555
C18 C12 1_555 1_555
H14 C18 1_555 1_555
C19 N4 1_555 1_555
H15 C19 1_555 1_555
C20 C5 1_555 1_555
H16 C20 1_555 1_555
C21 N8 1_555 1_555
H17 C21 1_555 1_555
C22 C6 1_555 1_555
H18 C22 1_555 1_555
C23 N5 1_555 1_555
H19 C23 1_555 1_555
C24 C1 1_555 1_555
H20 C24 1_555 1_555
O2 Zn1 1_555 1_555
Zn1D N2D 1_555 1_555
N1D C2D 1_555 1_555
N2D C8D 1_555 1_555
O1D Zn2 1_555 1_555
N3D Zn2 1_555 1_555
C1D N8D 1_555 1_555
C2D H1D 1_555 1_555
N4D C3D 1_555 1_555
N5D C7D 1_555 1_555
C3D N3D 1_555 1_555
H2D C3D 1_555 1_555
C4D N3D 1_555 1_555
H3D C4D 1_555 1_555
N6D C11D 1_555 1_555
N7D C2D 1_555 1_555
N8D C7D 1_555 1_555
C5D H4D 1_555 1_555
C6D N7D 1_555 1_555
C7D H5D 1_555 1_555
C8D H6D 1_555 1_555
C9D N1D 1_555 1_555
H7D C9D 1_555 1_555
C10D N7D 1_555 1_555
H8D C10D 1_555 1_555
C11D C8D 1_555 1_555
H9D C11D 1_555 1_555
C12D N6D 1_555 1_555
C13D H10D 1_555 1_555
C14D N2D 1_555 1_555
H11D C14D 1_555 1_555
C15D N4D 1_555 1_555
C16D C1D 1_555 1_555
H12D C16D 1_555 1_555
C17D C15D 1_555 1_555
H13D C17D 1_555 1_555
C18D C12D 1_555 1_555
H14D C18D 1_555 1_555
C19D N4D 1_555 1_555
H15D C19D 1_555 1_555
C20D C5D 1_555 1_555
H16D C20D 1_555 1_555
C21D N8D 1_555 1_555
H17D C21D 1_555 1_555
C22D C6D 1_555 1_555
H18D C22D 1_555 1_555
C23D N5D 1_555 1_555
H19D C23D 1_555 1_555
C24D C1D 1_555 1_555
H20D C24D 1_555 1_555
O2D Zn3 1_555 1_555
Zn1B N1 1_555 1_555
Zn1F N1D 1_555 1_555
Zn3B N5D 1_555 1_555
Zn3C N5 1_555 1_555
N1C Zn1 1_555 1_555
N1G Zn1D 1_555 1_555
N5B Zn3 1_555 1_555
N5F Zn3 1_555 1_555
C4 C19 1_555 1_555
N6 C14 1_555 1_555
C5 C6 1_555 1_555
C9 C10 1_555 1_555
C12 C20 1_555 1_555
C13 C15 1_555 1_555
C13 C24 1_555 1_555
C16 C17 1_555 1_555
C18 C22 1_555 1_555
C21 C23 1_555 1_555
Zn1D O1D 1_555 1_555
Zn1D O2D 1_555 1_555
C4D C19D 1_555 1_555
N6D C14D 1_555 1_555
C5D C6D 1_555 1_555
C9D C10D 1_555 1_555
C12D C20D 1_555 1_555
C13D C15D 1_555 1_555
C13D C24D 1_555 1_555
C16D C17D 1_555 1_555
C18D C22D 1_555 1_555
C21D C23D 1_555 1_555

#END
