
#######################################################################
#
#                 Cambridge Crystallographic Data Centre
#                                CCDC 
#
#######################################################################
#
# If this CIF has been generated from an entry in the Cambridge 
# Structural Database, then it will include bibliographic, chemical, 
# crystal, experimental, refinement or atomic coordinate data resulting 
# from the CCDC's data processing and validation procedures.
#
#######################################################################

data_GORWUF
_chemical_formula_moiety         'C36 H36 Cu4 F7 N6 O2 Si1'
_symmetry_cell_setting           tetragonal
_symmetry_space_group_name_H-M   'P 4/m m m'
_symmetry_Int_Tables_number      123
_space_group_name_Hall           '-P 4 2'
loop_
_symmetry_equiv_pos_site_id
_symmetry_equiv_pos_as_xyz
1 x,y,z
2 -y,x,z
3 x,-y,-z
4 -x,-y,z
5 y,x,-z
6 y,-x,z
7 -x,y,-z
8 -y,-x,-z
9 -x,-y,-z
10 y,-x,-z
11 -x,y,z
12 x,y,-z
13 -y,-x,z
14 -y,x,-z
15 x,-y,z
16 y,x,z
_cell_length_a                   11.108(1)
_cell_length_b                   11.108(1)
_cell_length_c                   8.1107(9)
_cell_angle_alpha                90
_cell_angle_beta                 90
_cell_angle_gamma                90
_cell_volume                     1000.76
loop_
_atom_site_label
_atom_site_type_symbol
_atom_site_fract_x
_atom_site_fract_y
_atom_site_fract_z
O1 O 1.143(3) 0.5000 0.5000
O2 O 1.2652(7) 1.2652 0.5000
Cu1 Cu 1.0000 0.0000 0.0000
Si1 Si 1.0000 0.0000 0.5000
F1 F 1.0000 0.0000 0.2906(4)
F2 F 1.1029(3) 0.1029 0.5000
N1 N 1.0000 0.1809(3) 0.0000
C1 C 1.0447(4) 0.2436(4) 0.1260(6)
C2 C 1.0469(5) 0.3679(4) 0.1300(6)
C3 C 1.0000 0.4323(3) 0.0000
H1 H 1.0774 0.1989 0.2185
H2 H 1.0805 0.4101 0.2260
F1B F 1.0000 0.0000 0.7094(4)
F2A F 0.8971 0.1029(3) 0.5000
F2B F 1.1029(3) -0.1029 0.5000
F2C F 0.8971(3) -0.1029 0.5000
C1J C 0.9553(4) 0.2436(4) 0.1260(6)
C1F C 0.9553(4) 0.2436(4) -0.1260(6)
C1K C 1.0447(4) 0.2436(4) -0.1260(6)
C2K C 1.0469(5) 0.3679(4) -0.1300(6)
C2F C 0.9531(5) 0.3679(4) -0.1300(6)
H1K H 1.0774 0.1989 -0.2185
C2J C 0.9531(5) 0.3679(4) 0.1300(6)
H2F H 0.9195 0.4101 -0.2260
C3B C 1.0000 0.5677(3) 0.0000
C2B C 1.0469(5) 0.6321(4) -0.1300(6)
C1B C 1.0447(4) 0.7564(4) -0.1260(6)
N1B N 1.0000 0.8191(3) 0.0000
C1C C 0.9553(4) 0.7564(4) 0.1260(6)
C1N C 1.0447(4) 0.7564(4) 0.1260(6)
C2C C 0.9531(5) 0.6321(4) 0.1300(6)
C1H C 0.9553(4) 0.7564(4) -0.1260(6)
C2H C 0.9531(5) 0.6321(4) -0.1300(6)
H1B H 1.0774 0.8011 -0.2185
C2N C 1.0469(5) 0.6321(4) 0.1300(6)
H2C H 0.9195 0.5899 0.2260
H1N H 1.0774 0.8011 0.2185
H1C H 0.9226 0.8011 0.2185
H2N H 1.0805 0.5899 0.2260
H2H H 0.9195 0.5899 -0.2260
H2B H 1.0805 0.5899 -0.2260
H1H H 0.9226 0.8011 -0.2185
H2J H 0.9195 0.4101 0.2260
H1J H 0.9226 0.1989 0.2185
H2K H 1.0805 0.4101 -0.2260
H1F H 0.9226 0.1989 -0.2185
N1A N 0.8191(3) 0.0000 0.0000
C1A C 0.7564(4) 0.0447(4) 0.1260(6)
C2A C 0.6321(4) 0.0469(5) 0.1300(6)
C3A C 0.5677(3) 0.0000 0.0000
H1A H 0.8011 0.0774 0.2185
H2A H 0.5899 0.0805 0.2260
C1L C 0.7564(4) -0.0447(4) 0.1260(6)
C1G C 0.7564(4) -0.0447(4) -0.1260(6)
C1M C 0.7564(4) 0.0447(4) -0.1260(6)
C2M C 0.6321(4) 0.0469(5) -0.1300(6)
C2G C 0.6321(4) -0.0469(5) -0.1300(6)
H1M H 0.8011 0.0774 -0.2185
C2L C 0.6321(4) -0.0469(5) 0.1300(6)
H2G H 0.5899 -0.0805 -0.2260
C3D C 0.4323(3) 0.0000 0.0000
C2D C 0.3679(4) 0.0469(5) -0.1300(6)
C1D C 0.2436(4) 0.0447(4) -0.1260(6)
N1D N 0.1809(3) 0.0000 0.0000
C1E C 0.2436(4) -0.0447(4) 0.1260(6)
C1O C 0.2436(4) 0.0447(4) 0.1260(6)
C2E C 0.3679(4) -0.0469(5) 0.1300(6)
C1I C 0.2436(4) -0.0447(4) -0.1260(6)
C2I C 0.3679(4) -0.0469(5) -0.1300(6)
H1D H 0.1989 0.0774 -0.2185
C2O C 0.3679(4) 0.0469(5) 0.1300(6)
H2E H 0.4101 -0.0805 0.2260
H1O H 0.1989 0.0774 0.2185
H1E H 0.1989 -0.0774 0.2185
H2O H 0.4101 0.0805 0.2260
H2I H 0.4101 -0.0805 -0.2260
H2D H 0.4101 0.0805 -0.2260
H1I H 0.1989 -0.0774 -0.2185
H2L H 0.5899 -0.0805 0.2260
H1L H 0.8011 -0.0774 0.2185
H2M H 0.5899 0.0805 -0.2260
H1G H 0.8011 -0.0774 -0.2185
F1B_2 F 1.0000 -0.0000 -0.2906(4)
N1B_2 N 1.0000 -0.1809(3) 0.0000
N1D_2 N 1.1809(3) 0.0000 0.0000
Cu1_2 Cu 1.0000 0.0000 1.0000
Cu1_3 Cu 1.0000 1.0000 0.0000
Cu1_4 Cu 0.0000 0.0000 0.0000
loop_
_geom_bond_atom_site_label_1
_geom_bond_atom_site_label_2
_geom_bond_site_symmetry_1
_geom_bond_site_symmetry_2
Cu1 F1 1_555 1_555
Si1 F1 1_555 1_555
F2 Si1 1_555 1_555
N1 Cu1 1_555 1_555
C1 N1 1_555 1_555
C2 C1 1_555 1_555
C3 C2 1_555 1_555
H1 C1 1_555 1_555
H2 C2 1_555 1_555
F1B Si1 1_555 1_555
F2A Si1 1_555 1_555
F2B Si1 1_555 1_555
F2C Si1 1_555 1_555
C1J N1 1_555 1_555
C1F N1 1_555 1_555
C1K N1 1_555 1_555
C2K C3 1_555 1_555
C2F C3 1_555 1_555
H1K C1K 1_555 1_555
C2J C1 1_555 1_555
H2F C2F 1_555 1_555
C3B C3 1_555 1_555
C2B C3B 1_555 1_555
C1B C2B 1_555 1_555
N1B C1B 1_555 1_555
C1C N1B 1_555 1_555
C1N N1B 1_555 1_555
C2C C3B 1_555 1_555
C1H C2B 1_555 1_555
C2H C3B 1_555 1_555
H1B C1B 1_555 1_555
C2N C3B 1_555 1_555
H2C C2C 1_555 1_555
H1N C1N 1_555 1_555
H1C C1C 1_555 1_555
H2N C2N 1_555 1_555
H2H C2H 1_555 1_555
H2B C2B 1_555 1_555
H1H C1H 1_555 1_555
H2J C2J 1_555 1_555
H1J C1J 1_555 1_555
H2K C2K 1_555 1_555
H1F C1F 1_555 1_555
N1A Cu1 1_555 1_555
C1A N1A 1_555 1_555
C2A C1A 1_555 1_555
C3A C2A 1_555 1_555
H1A C1A 1_555 1_555
H2A C2A 1_555 1_555
C1L N1A 1_555 1_555
C1G N1A 1_555 1_555
C1M N1A 1_555 1_555
C2M C3A 1_555 1_555
C2G C3A 1_555 1_555
H1M C1M 1_555 1_555
C2L C1A 1_555 1_555
H2G C2G 1_555 1_555
C3D C3A 1_555 1_555
C2D C3D 1_555 1_555
C1D C2D 1_555 1_555
N1D C1D 1_555 1_555
C1E N1D 1_555 1_555
C1O N1D 1_555 1_555
C2E C3D 1_555 1_555
C1I C2D 1_555 1_555
C2I C3D 1_555 1_555
H1D C1D 1_555 1_555
C2O C3D 1_555 1_555
H2E C2E 1_555 1_555
H1O C1O 1_555 1_555
H1E C1E 1_555 1_555
H2O C2O 1_555 1_555
H2I C2I 1_555 1_555
H2D C2D 1_555 1_555
H1I C1I 1_555 1_555
H2L C2L 1_555 1_555
H1L C1L 1_555 1_555
H2M C2M 1_555 1_555
H1G C1G 1_555 1_555
F1B_2 Cu1 1_555 1_555
N1B_2 Cu1 1_555 1_555
N1D_2 Cu1 1_555 1_555
Cu1_2 F1B 1_555 1_555
Cu1_3 N1B 1_555 1_555
Cu1_4 N1D 1_555 1_555
C1 C1J 1_555 1_555
C2 C1J 1_555 1_555
C2 C2J 1_555 1_555
C3 C2J 1_555 1_555
C1J C2J 1_555 1_555
C1F C1K 1_555 1_555
C1F C2F 1_555 1_555
C1F C2K 1_555 1_555
C1K C2K 1_555 1_555
C1K C2F 1_555 1_555
C2K C2F 1_555 1_555
C2B C2H 1_555 1_555
C1B C1H 1_555 1_555
C1B C2H 1_555 1_555
N1B C1H 1_555 1_555
C1C C1N 1_555 1_555
C1C C2C 1_555 1_555
C1C C2N 1_555 1_555
C1N C2C 1_555 1_555
C1N C2N 1_555 1_555
C2C C2N 1_555 1_555
C1H C2H 1_555 1_555
C1A C1L 1_555 1_555
C2A C1L 1_555 1_555
C2A C2L 1_555 1_555
C3A C2L 1_555 1_555
C1L C2L 1_555 1_555
C1G C1M 1_555 1_555
C1G C2G 1_555 1_555
C1G C2M 1_555 1_555
C1M C2M 1_555 1_555
C1M C2G 1_555 1_555
C2M C2G 1_555 1_555
C2D C2I 1_555 1_555
C1D C1I 1_555 1_555
C1D C2I 1_555 1_555
N1D C1I 1_555 1_555
C1E C1O 1_555 1_555
C1E C2E 1_555 1_555
C1E C2O 1_555 1_555
C1O C2O 1_555 1_555
C1O C2E 1_555 1_555
C2E C2O 1_555 1_555
C1I C2I 1_555 1_555

#END
