
#######################################################################
#
#                 Cambridge Crystallographic Data Centre
#                                CCDC 
#
#######################################################################
#
# If this CIF has been generated from an entry in the Cambridge 
# Structural Database, then it will include bibliographic, chemical, 
# crystal, experimental, refinement or atomic coordinate data resulting 
# from the CCDC's data processing and validation procedures.
#
#######################################################################

data_XUZDUS
_chemical_formula_moiety         '(C19 H36 Ag3 N9 O12 S1)n'
_symmetry_cell_setting           orthorhombic
_symmetry_space_group_name_H-M   'P b c a'
_symmetry_Int_Tables_number      61
_space_group_name_Hall           '-P 2ac 2ab'
loop_
_symmetry_equiv_pos_site_id
_symmetry_equiv_pos_as_xyz
1 x,y,z
2 1/2-x,-y,1/2+z
3 1/2+x,1/2-y,-z
4 -x,1/2+y,1/2-z
5 -x,-y,-z
6 1/2+x,y,1/2-z
7 1/2-x,1/2+y,z
8 x,1/2-y,1/2+z
_cell_length_a                   12.3001(10)
_cell_length_b                   11.1003(9)
_cell_length_c                   43.003(4)
_cell_angle_alpha                90
_cell_angle_beta                 90
_cell_angle_gamma                90
_cell_volume                     5871.41
loop_
_atom_site_label
_atom_site_type_symbol
_atom_site_fract_x
_atom_site_fract_y
_atom_site_fract_z
_atom_site_U_iso_or_equiv
_atom_site_thermal_displace_type
Ag1 Ag -0.88468(3) 0.50340(4) 0.018105(9) 0.0362 Uani
Ag2 Ag -0.59666(4) 0.34292(4) 0.132062(9) 0.0390 Uani
Ag3 Ag -0.86923(3) 0.31698(3) -0.254201(9) 0.0254 Uani
S1 S -0.73850(10) 0.38729(11) -0.18313(3) 0.0295 Uani
O1 O -0.8310(3) 0.4469(4) -0.03014(8) 0.0480 Uani
O2 O -0.9659(3) 0.5617(3) -0.04821(8) 0.0437 Uani
O3 O -0.8311(3) 0.4142(3) -0.20282(7) 0.0365 Uani
O4 O -0.7098(3) 0.2605(3) -0.18310(9) 0.0513 Uani
O5 O -0.6458(3) 0.4631(4) -0.18969(10) 0.0497 Uani
O6 O -0.6648(4) -0.0933(4) 0.13488(9) 0.0550 Uani
O7 O -0.6761(4) 0.1009(4) 0.13599(10) 0.0587 Uani
O8 O -0.6064(3) 0.0037(3) 0.17470(10) 0.0440 Uani
O9 O -0.3820(5) 0.3522(7) 0.13310(18) 0.1323 Uani
N1 N -0.7179(3) 0.4003(3) 0.03597(9) 0.0257 Uani
N2 N -0.6069(3) 0.3384(3) 0.08042(9) 0.0250 Uani
N3 N -0.6197(3) 0.2088(4) 0.03422(9) 0.0273 Uani
N4 N -0.5211(3) 0.3998(4) 0.03175(10) 0.0330 Uani
N5 N -0.6053(3) 0.3470(3) 0.18402(9) 0.0187 Uani
N6 N -0.7137(3) 0.2846(3) 0.22907(8) 0.0181 Uani
N7 N -0.5154(3) 0.2894(3) 0.23266(8) 0.0194 Uani
N8 N -0.6187(3) 0.4779(3) 0.22971(9) 0.0166 Uani
N9 N -0.6478(4) 0.0032(4) 0.14806(11) 0.0350 Uani
C1 C -0.8825(4) 0.4972(5) -0.05164(13) 0.0333 Uani
C2 C -0.8450(4) 0.4751(5) -0.08447(12) 0.0360 Uani
C3 C -0.9001(4) 0.5199(5) -0.10965(12) 0.0390 Uani
H1 H -0.9605 0.5687 -0.1064 0.0470 Uiso
C4 C -0.8682(4) 0.4947(5) -0.13958(12) 0.0377 Uani
H2 H -0.9063 0.5265 -0.1564 0.0450 Uiso
C5 C -0.7797(4) 0.4220(5) -0.14447(12) 0.0370 Uani
C6 C -0.7198(6) 0.3784(8) -0.12004(15) 0.0890 Uani
H3 H -0.6581 0.3319 -0.1236 0.1070 Uiso
C7 C -0.7530(6) 0.4049(8) -0.09003(15) 0.0820 Uani
H4 H -0.7133 0.3754 -0.0733 0.0980 Uiso
C8 C -0.7081(4) 0.4000(4) 0.06998(11) 0.0277 Uani
H5 H -0.7706 0.3595 0.0789 0.0330 Uiso
H6 H -0.7079 0.4824 0.0775 0.0330 Uiso
C9 C -0.7192(4) 0.2747(4) 0.02493(11) 0.0287 Uani
H7 H -0.7253 0.2740 0.0024 0.0350 Uiso
H8 H -0.7823 0.2338 0.0334 0.0350 Uiso
C10 C -0.6217(4) 0.4605(5) 0.02244(13) 0.0333 Uani
H9 H -0.6274 0.4601 -0.0001 0.0400 Uiso
H10 H -0.6196 0.5437 0.0293 0.0400 Uiso
C11 C -0.6101(4) 0.2128(4) 0.06845(11) 0.0287 Uani
H11 H -0.5444 0.1712 0.0747 0.0350 Uiso
H12 H -0.6715 0.1710 0.0776 0.0350 Uiso
C12 C -0.5245(4) 0.2756(5) 0.02070(11) 0.0337 Uani
H13 H -0.4577 0.2349 0.0265 0.0400 Uiso
H14 H -0.5298 0.2751 -0.0018 0.0400 Uiso
C13 C -0.5122(4) 0.3992(5) 0.06552(11) 0.0327 Uani
H15 H -0.5076 0.4815 0.0730 0.0390 Uiso
H16 H -0.4459 0.3580 0.0715 0.0390 Uiso
C14 C -0.5080(3) 0.2877(4) 0.19821(10) 0.0190 Uani
H17 H -0.5032 0.2050 0.1910 0.0230 Uiso
H18 H -0.4426 0.3295 0.1917 0.0230 Uiso
C15 C -0.7041(3) 0.2824(4) 0.19502(10) 0.0207 Uani
H19 H -0.7680 0.3195 0.1859 0.0250 Uiso
H20 H -0.7012 0.1994 0.1880 0.0250 Uiso
C16 C -0.6103(3) 0.4734(4) 0.19563(11) 0.0217 Uani
H21 H -0.5454 0.5163 0.1891 0.0260 Uiso
H22 H -0.6727 0.5136 0.1865 0.0260 Uiso
C17 C -0.6156(3) 0.2266(4) 0.24217(11) 0.0200 Uani
H23 H -0.6206 0.2264 0.2647 0.0240 Uiso
H24 H -0.6124 0.1435 0.2352 0.0240 Uiso
C18 C -0.5220(3) 0.4171(4) 0.24310(10) 0.0203 Uani
H25 H -0.5260 0.4198 0.2656 0.0240 Uiso
H26 H -0.4567 0.4596 0.2367 0.0240 Uiso
C19 C -0.7177(3) 0.4124(4) 0.23959(11) 0.0200 Uani
H27 H -0.7814 0.4514 0.2309 0.0240 Uiso
H28 H -0.7238 0.4150 0.2621 0.0240 Uiso
Ag1D Ag -1.11532(3) 0.49660(4) -0.018105(9) 0.0362 Uani
Ag1F Ag -0.61532(3) 0.00340(4) 0.018105(9) 0.0362 Uani
Ag3G Ag -0.86923(3) 0.18302(3) 0.245799(9) 0.0254 Uani
Ag3B Ag -0.36923(3) 0.18302(3) 0.254201(9) 0.0254 Uani
Ag3A Ag -0.63077(3) 0.68302(3) 0.245799(9) 0.0254 Uani
O2D O -1.0341(3) 0.4383(3) 0.04821(8) 0.0437 Uani
N3F N -0.8803(3) 0.7088(4) 0.03422(9) 0.0273 Uani
N6G N -0.7137(3) 0.2154(3) -0.27093(8) 0.0181 Uani
N7B N -1.0154(3) 0.2106(3) -0.23266(8) 0.0194 Uani
N8A N -0.8813(3) 0.5221(3) -0.27029(9) 0.0166 Uani
O10 O -0.5244(3) 0.7541(4) 0.18234(10) 0.0567 Uani
O11 O -0.5933(4) 0.6166(4) 0.12708(11) 0.0697 Uani
O12 O -0.5422(4) 0.7138(4) 0.06645(10) 0.0710 Uani
loop_
_atom_site_aniso_label
_atom_site_aniso_U_11
_atom_site_aniso_U_22
_atom_site_aniso_U_33
_atom_site_aniso_U_23
_atom_site_aniso_U_13
_atom_site_aniso_U_12
Ag1 0.0412(3) 0.0416(3) 0.0258(2) -0.00532(17) 0.00385(18) 0.00595(17)
Ag2 0.0496(3) 0.0511(3) 0.0163(2) -0.00184(18) -0.00177(18) 0.0026(2)
Ag3 0.0211(2) 0.0233(2) 0.0317(2) 0.00163(15) 0.00701(15) 0.00073(13)
S1 0.0270(6) 0.0424(7) 0.0191(6) -0.0019(5) 0.0043(5) -0.0039(5)
O1 0.052(2) 0.075(3) 0.017(2) -0.0033(19) 0.0008(19) 0.014(2)
O2 0.043(2) 0.055(2) 0.033(2) 0.0047(18) 0.0171(18) 0.0089(19)
O3 0.0361(19) 0.053(2) 0.0204(19) -0.0006(16) -0.0040(16) -0.0079(17)
O4 0.073(3) 0.040(2) 0.041(2) 0.0016(18) 0.008(2) 0.011(2)
O5 0.034(2) 0.065(3) 0.050(3) -0.010(2) 0.0090(19) -0.0194(19)
O6 0.077(3) 0.043(2) 0.045(3) -0.011(2) -0.004(2) -0.006(2)
O7 0.087(3) 0.040(2) 0.049(3) 0.012(2) 0.006(2) 0.004(2)
O8 0.042(2) 0.052(3) 0.038(2) -0.0041(19) -0.0059(19) -0.0027(17)
O9 0.087(5) 0.177(8) 0.133(7) 0.025(6) 0.004(4) -0.012(4)
N1 0.029(2) 0.027(2) 0.021(2) 0.0000(16) -0.0015(17) 0.0012(17)
N2 0.029(2) 0.027(2) 0.019(2) -0.0004(17) -0.0021(17) 0.0002(17)
N3 0.034(2) 0.029(2) 0.019(2) 0.0009(17) -0.0005(18) 0.0006(17)
N4 0.032(2) 0.036(2) 0.031(2) 0.0026(19) 0.004(2) -0.0039(19)
N5 0.0162(18) 0.0240(19) 0.016(2) -0.0008(16) 0.0010(15) 0.0002(15)
N6 0.0149(17) 0.0185(18) 0.021(2) 0.0023(15) 0.0010(16) -0.0013(14)
N7 0.0169(18) 0.0224(19) 0.019(2) 0.0012(15) -0.0013(16) -0.0005(15)
N8 0.0149(18) 0.0170(18) 0.018(2) 0.0007(15) -0.0016(15) 0.0008(13)
N9 0.037(2) 0.036(3) 0.032(3) -0.003(2) 0.012(2) -0.003(2)
C1 0.030(3) 0.045(3) 0.025(3) -0.001(2) 0.004(2) -0.003(2)
C2 0.031(3) 0.054(3) 0.023(3) 0.000(2) 0.003(2) 0.003(2)
C3 0.032(3) 0.059(4) 0.026(3) -0.002(3) 0.002(2) 0.018(3)
C4 0.036(3) 0.056(4) 0.021(3) 0.007(2) -0.003(2) 0.013(3)
C5 0.030(3) 0.058(4) 0.023(3) -0.005(2) 0.004(2) 0.009(2)
C6 0.070(5) 0.172(8) 0.025(3) 0.005(4) 0.004(3) 0.083(5)
C7 0.076(5) 0.146(7) 0.024(3) 0.003(4) -0.003(3) 0.067(5)
C8 0.028(3) 0.033(3) 0.022(3) -0.003(2) 0.000(2) 0.002(2)
C9 0.035(3) 0.033(3) 0.018(2) 0.001(2) -0.002(2) -0.003(2)
C10 0.038(3) 0.033(3) 0.029(3) 0.008(2) 0.003(2) 0.000(2)
C11 0.041(3) 0.025(2) 0.020(3) 0.003(2) 0.001(2) 0.002(2)
C12 0.033(3) 0.045(3) 0.023(3) 0.000(2) 0.007(2) 0.004(2)
C13 0.033(3) 0.033(3) 0.032(3) -0.004(2) 0.000(2) -0.002(2)
C14 0.017(2) 0.023(2) 0.017(2) 0.0005(18) 0.0009(18) 0.0020(17)
C15 0.015(2) 0.023(2) 0.024(2) -0.0033(19) -0.0035(19) -0.0032(18)
C16 0.021(2) 0.023(2) 0.021(2) 0.005(2) -0.0009(19) -0.0015(18)
C17 0.014(2) 0.020(2) 0.026(3) 0.0011(19) 0.0012(19) -0.0017(17)
C18 0.016(2) 0.022(2) 0.023(2) 0.0001(19) -0.0064(19) -0.0008(18)
C19 0.013(2) 0.022(2) 0.025(3) -0.0026(19) 0.0060(19) -0.0003(17)
Ag1D 0.0412 0.0416 0.0258 -0.00532 0.00385 0.00595
Ag1F 0.0412 0.0416 0.0258 -0.00532 -0.00385 -0.00595
Ag3G 0.0211 0.0233 0.0317 -0.00163 0.00701 -0.00073
Ag3B 0.0211 0.0233 0.0317 0.00163 -0.00701 -0.00073
Ag3A 0.0211 0.0233 0.0317 -0.00163 -0.00701 0.00073
O2D 0.043 0.055 0.033 0.0047 0.0171 0.0089
N3F 0.034 0.029 0.019 0.0009 0.0005 -0.0006
N6G 0.0149 0.0185 0.021 -0.0023 0.001 0.0013
N7B 0.0169 0.0224 0.019 0.0012 0.0013 0.0005
N8A 0.0149 0.017 0.018 -0.0007 0.0016 0.0008
O10 0.048(2) 0.051(2) 0.071(3) 0.012(2) -0.005(2) 0.003(2)
O11 0.095(4) 0.062(3) 0.052(3) 0.006(2) 0.008(3) -0.005(3)
O12 0.106(4) 0.050(3) 0.057(3) 0.002(2) -0.022(3) -0.017(3)
loop_
_geom_bond_atom_site_label_1
_geom_bond_atom_site_label_2
_geom_bond_site_symmetry_1
_geom_bond_site_symmetry_2
Ag1 O1 1_555 1_555
Ag2 O7 1_555 1_555
Ag3 O3 1_555 1_555
S1 O3 1_555 1_555
O1 C1 1_555 1_555
O2 C1 1_555 1_555
O4 S1 1_555 1_555
O5 S1 1_555 1_555
O6 N9 1_555 1_555
O7 N9 1_555 1_555
O8 N9 1_555 1_555
O9 Ag2 1_555 1_555
N1 Ag1 1_555 1_555
N2 Ag2 1_555 1_555
N3 C9 1_555 1_555
N4 C10 1_555 1_555
N5 Ag2 1_555 1_555
N6 C15 1_555 1_555
N7 C14 1_555 1_555
N8 C16 1_555 1_555
C1 C2 1_555 1_555
C2 C3 1_555 1_555
C3 H1 1_555 1_555
C4 C3 1_555 1_555
H2 C4 1_555 1_555
C5 S1 1_555 1_555
C6 C5 1_555 1_555
H3 C6 1_555 1_555
C7 C2 1_555 1_555
H4 C7 1_555 1_555
C8 N1 1_555 1_555
H5 C8 1_555 1_555
H6 C8 1_555 1_555
C9 N1 1_555 1_555
H7 C9 1_555 1_555
H8 C9 1_555 1_555
C10 N1 1_555 1_555
H9 C10 1_555 1_555
H10 C10 1_555 1_555
C11 N2 1_555 1_555
H11 C11 1_555 1_555
H12 C11 1_555 1_555
C12 N3 1_555 1_555
H13 C12 1_555 1_555
H14 C12 1_555 1_555
C13 N2 1_555 1_555
H15 C13 1_555 1_555
H16 C13 1_555 1_555
C14 N5 1_555 1_555
H17 C14 1_555 1_555
H18 C14 1_555 1_555
C15 N5 1_555 1_555
H19 C15 1_555 1_555
H20 C15 1_555 1_555
C16 N5 1_555 1_555
H21 C16 1_555 1_555
H22 C16 1_555 1_555
C17 N6 1_555 1_555
H23 C17 1_555 1_555
H24 C17 1_555 1_555
C18 N7 1_555 1_555
H25 C18 1_555 1_555
H26 C18 1_555 1_555
C19 N6 1_555 1_555
H27 C19 1_555 1_555
H28 C19 1_555 1_555
Ag1D Ag1 1_555 1_555
Ag1F N3 1_555 1_555
Ag3G N6 1_555 1_555
Ag3B N7 1_555 1_555
Ag3A N8 1_555 1_555
O2D Ag1 1_555 1_555
N3F Ag1 1_555 1_555
N6G Ag3 1_555 1_555
N7B Ag3 1_555 1_555
N8A Ag3 1_555 1_555
O2 Ag1D 1_555 1_555
N2 C8 1_555 1_555
N3 C11 1_555 1_555
N4 C12 1_555 1_555
N4 C13 1_555 1_555
N7 C17 1_555 1_555
N8 C18 1_555 1_555
N8 C19 1_555 1_555
C4 C5 1_555 1_555
C6 C7 1_555 1_555

#END
