
#######################################################################
#
#                 Cambridge Crystallographic Data Centre
#                                CCDC 
#
#######################################################################
#
# If this CIF has been generated from an entry in the Cambridge 
# Structural Database, then it will include bibliographic, chemical, 
# crystal, experimental, refinement or atomic coordinate data resulting 
# from the CCDC's data processing and validation procedures.
#
#######################################################################

data_EXEQAA
_chemical_formula_moiety         '(C48 H26 O31 Sc6)n'
_symmetry_cell_setting           orthorhombic
_symmetry_space_group_name_H-M   'I 21 21 21'
_symmetry_Int_Tables_number      24
_space_group_name_Hall           'I 2b 2c'
loop_
_symmetry_equiv_pos_site_id
_symmetry_equiv_pos_as_xyz
1 x,y,z
2 -x,1/2-y,z
3 x,-y,1/2-z
4 -x,1/2+y,1/2-z
5 1/2+x,1/2+y,1/2+z
6 1/2-x,-y,1/2+z
7 1/2+x,1/2-y,-z
8 1/2-x,y,-z
_cell_length_a                   15.352(2)
_cell_length_b                   12.385(1)
_cell_length_c                   46.027(8)
_cell_angle_alpha                90
_cell_angle_beta                 90
_cell_angle_gamma                90
_cell_volume                     8751.32
loop_
_atom_site_label
_atom_site_type_symbol
_atom_site_fract_x
_atom_site_fract_y
_atom_site_fract_z
O22 O 0.6790(5) 0.5136(9) 0.0831(3)
Sc1 Sc 0.06258(12) 0.62493(14) -0.10427(4)
Sc2 Sc 0.06263(12) 0.37498(14) -0.06243(4)
Sc3 Sc 0.43736(11) 0.62497(14) -0.22909(4)
O1 O 0.1553(4) 0.3672(5) -0.09633(15)
O2 O 0.1436(4) 0.5107(5) -0.12587(15)
O3 O 0.3568(4) 0.5113(5) -0.20759(15)
O4 O 0.3444(4) 0.3671(5) -0.23708(14)
O5 O 0.4609(4) -0.1174(5) -0.19812(14)
O6 O 0.3726(4) -0.2611(5) -0.20220(13)
O7 O 0.1276(4) -0.2612(5) -0.13108(13)
O8 O 0.0388(4) -0.1179(5) -0.13521(15)
O9 O 0.1430(4) 0.4889(5) -0.04084(15)
O10 O 0.1550(4) 0.6326(5) -0.07068(14)
O11 O 0.0385(4) 1.1178(5) -0.03140(15)
O12 O 0.1273(4) 1.2616(5) -0.03560(14)
O13 O 0.0026(4) 0.4999(6) -0.08358(17)
H1 H -0.0491(17) 0.510(3) -0.0790(14)
O14 O 0.0000 0.2500 -0.08249(19)
H2 H 0.0000 0.2500 -0.1006(3)
O15 O -0.0000 0.7500 -0.08420(19)
H3 H -0.0000 0.7500 -0.0661(3)
O16 O 0.5000 0.7500 -0.24910(18)
H4 H 0.5000 0.7500 -0.2672(3)
O17 O 0.4976(6) 0.5000 -0.2500
H5 H 0.5520(9) 0.5000 -0.2500
C1 C 0.1673(7) 0.4157(7) -0.1203(2)
C2 C 0.2125(7) 0.3545(8) -0.1438(2)
C3 C 0.2135(6) 0.2418(8) -0.1436(2)
H6 H 0.1888 0.2035 -0.1278
C4 C 0.2507(8) 0.1858(6) -0.1666(3)
C5 C 0.2507(8) 0.0645(6) -0.1666(3)
C6 C 0.1806(7) 0.0074(8) -0.1546(2)
H7 H 0.1323 0.0455 -0.1467
C7 C 0.1819(7) -0.1057(7) -0.1541(2)
C8 C 0.1111(7) -0.1648(8) -0.1394(2)
C9 C 0.2501(8) -0.1615(6) -0.1667(2)
H8 H 0.2501 -0.2382 -0.1668
C10 C 0.3187(7) -0.1052(7) -0.1792(2)
C11 C 0.3887(7) -0.1646(8) -0.1943(2)
C12 C 0.3198(7) 0.0074(8) -0.1790(2)
H9 H 0.3676 0.0452 -0.1873
C13 C 0.2867(6) 0.2424(8) -0.1898(2)
H10 H 0.3101 0.2043 -0.2059
C14 C 0.2884(7) 0.3553(8) -0.1895(2)
C15 C 0.2498(7) 0.4116(6) -0.1666(3)
H11 H 0.2491 0.4883 -0.1667
C16 C 0.3319(7) 0.4162(7) -0.2130(2)
C17 C 0.1657(6) 0.5855(7) -0.0465(2)
C18 C 0.2126(7) 0.6439(8) -0.0229(2)
C19 C 0.2500 0.5891(11) 0.0000
H12 H 0.2500 0.5124 0.0000
C20 C 0.2145(7) 0.7578(8) -0.0227(2)
H13 H 0.1907 0.7963 -0.0387
C21 C 0.2500 0.8141(11) 0.0000
C22 C 0.2500 0.9363(12) 0.0000
C23 C 0.1818(7) 0.9921(8) -0.0117(3)
H14 H 0.1337 0.9535 -0.0196
C24 C 0.1812(7) 1.1056(7) -0.0124(3)
C25 C 0.2500 1.1619(11) 0.0000
H15 H 0.2500 1.2386 0.0000
C26 C 0.1112(6) 1.1652(8) -0.0276(2)
Sc1_2 Sc 0.06258(12) 1.62493(14) -0.10427(4)
Sc1_3 Sc 0.06258(12) -0.37507(14) -0.10427(4)
Sc1A Sc -0.06258(12) -0.12493(14) -0.10427(4)
Sc1A_2 Sc -0.06258(12) 0.87507(14) -0.10427(4)
Sc1G Sc 0.43742(12) 0.62493(14) 0.10427(4)
Sc2_2 Sc 0.06263(12) 1.37498(14) -0.06243(4)
Sc2A Sc -0.06263(12) 1.12502(14) -0.06243(4)
Sc2A_2 Sc -0.06263(12) 0.12502(14) -0.06243(4)
Sc2G Sc 0.43737(12) 0.37498(14) 0.06243(4)
Sc2F Sc 0.56263(12) 1.12502(14) 0.06243(4)
Sc2G_2 Sc 0.43737(12) 1.37498(14) 0.06243(4)
Sc3_2 Sc 0.43736(11) 1.62497(14) -0.22909(4)
Sc3B Sc 0.43736(11) 0.37503(14) -0.27091(4)
Sc3A Sc 0.56264(11) -0.12497(14) -0.22909(4)
Sc3_3 Sc 0.43736(11) -0.37503(14) -0.22909(4)
Sc3A_2 Sc 0.56264(11) 0.87503(14) -0.22909(4)
Sc3B_2 Sc 0.43736(11) 1.37503(14) -0.27091(4)
O1_2 O 0.1553(4) 1.3672(5) -0.09633(15)
O2_2 O 0.1436(4) 1.5107(5) -0.12587(15)
O3_2 O 0.3568(4) 1.5113(5) -0.20759(15)
O4_2 O 0.3444(4) 1.3671(5) -0.23708(14)
O4B O 0.3444(4) 0.6329(5) -0.26292(14)
O4B_2 O 0.3444(4) 1.6329(5) -0.26292(14)
O5_2 O 0.4609(4) 0.8826(5) -0.19812(14)
O5A O 0.5391(4) 0.6174(5) -0.19812(14)
O5A_2 O 0.5391(4) 1.6174(5) -0.19812(14)
O6_2 O 0.3726(4) 0.7389(5) -0.20220(13)
O6_3 O 0.3726(4) 1.7389(5) -0.20220(13)
O7_2 O 0.1276(4) 0.7388(5) -0.13108(13)
O7_3 O 0.1276(4) 1.7388(5) -0.13108(13)
O8_2 O 0.0388(4) 0.8821(5) -0.13521(15)
O8A O -0.0388(4) 0.6179(5) -0.13521(15)
O8A_2 O -0.0388(4) 1.6179(5) -0.13521(15)
O9G O 0.3570(4) 0.4889(5) 0.04084(15)
O9_2 O 0.1430(4) 1.4889(5) -0.04084(15)
O10G O 0.3450(4) 0.6326(5) 0.07068(14)
O10_2 O 0.1550(4) 1.6326(5) -0.07068(14)
O11G O 0.4615(4) 1.1178(5) 0.03140(15)
O11A O -0.0385(4) 0.3822(5) -0.03140(15)
O11A_2 O -0.0385(4) 1.3822(5) -0.03140(15)
O12G O 0.3727(4) 1.2616(5) 0.03560(14)
O12_2 O 0.1273(4) 0.2616(5) -0.03560(14)
O13_2 O 0.0026(4) 1.4999(6) -0.08358(17)
H1_2 H -0.0491(17) 1.510(3) -0.0790(14)
O14_2 O 0.0000 1.2500 -0.08249(19)
H2_2 H 0.0000 1.2500 -0.1006(3)
O15_2 O -0.0000 1.7500 -0.08420(19)
H3_2 H 0.0000 1.7500 -0.0661(3)
O16_2 O 0.5000 1.7500 -0.24910(18)
H4_2 H 0.5000 1.7500 -0.2672(3)
O17_2 O 0.4976(6) 1.5000 -0.2500
H5_2 H 0.5520(9) 1.5000 -0.2500
C1_2 C 0.1673(7) 1.4157(7) -0.1203(2)
C2_2 C 0.2125(7) 1.3545(8) -0.1438(2)
C3_2 C 0.2135(6) 1.2418(8) -0.1436(2)
H6_2 H 0.1888 1.2035 -0.1278
C4_2 C 0.2507(8) 1.1858(6) -0.1666(3)
C5_2 C 0.2507(8) 1.0645(6) -0.1666(3)
C6_2 C 0.1806(7) 1.0074(8) -0.1546(2)
H7_2 H 0.1323 1.0455 -0.1467
C7_2 C 0.1819(7) 0.8943(7) -0.1541(2)
C8_2 C 0.1111(7) 0.8352(8) -0.1394(2)
C9_2 C 0.2501(8) 0.8385(6) -0.1667(2)
H8_2 H 0.2501 0.7618 -0.1668
C10_2 C 0.3187(7) 0.8948(7) -0.1792(2)
C11_2 C 0.3887(7) 0.8354(8) -0.1943(2)
C12_2 C 0.3198(7) 1.0074(8) -0.1790(2)
H9_2 H 0.3676 1.0452 -0.1873
C13_2 C 0.2867(6) 1.2424(8) -0.1898(2)
H10_2 H 0.3101 1.2043 -0.2059
C14_2 C 0.2884(7) 1.3553(8) -0.1895(2)
C15_2 C 0.2498(7) 1.4116(6) -0.1666(3)
H11_2 H 0.2491 1.4883 -0.1667
C16_2 C 0.3319(7) 1.4162(7) -0.2130(2)
C17G C 0.3343(6) 0.5855(7) 0.0465(2)
C18G C 0.2874(7) 0.6439(8) 0.0229(2)
C20G C 0.2855(7) 0.7578(8) 0.0227(2)
H13G H 0.3093 0.7963 0.0387
C23G C 0.3182(7) 0.9921(8) 0.0117(3)
H14G H 0.3663 0.9535 0.0196
C24G C 0.3188(7) 1.1056(7) 0.0124(3)
C26G C 0.3888(6) 1.1652(8) 0.0276(2)
loop_
_geom_bond_atom_site_label_1
_geom_bond_atom_site_label_2
_geom_bond_site_symmetry_1
_geom_bond_site_symmetry_2
Sc1 O2 1_555 1_555
Sc2 O1 1_555 1_555
Sc3 O3 1_555 1_555
O1 C1 1_555 1_555
O2 C1 1_555 1_555
O3 C16 1_555 1_555
O4 C16 1_555 1_555
O5 C11 1_555 1_555
O6 C11 1_555 1_555
O7 C8 1_555 1_555
O8 C8 1_555 1_555
O9 Sc2 1_555 1_555
O10 Sc1 1_555 1_555
O11 C26 1_555 1_555
O12 C26 1_555 1_555
O13 Sc1 1_555 1_555
H1 O13 1_555 1_555
O14 Sc2 1_555 1_555
H2 O14 1_555 1_555
O15 Sc1 1_555 1_555
H3 O15 1_555 1_555
O16 Sc3 1_555 1_555
H4 O16 1_555 1_555
O17 Sc3 1_555 1_555
H5 O17 1_555 1_555
C1 C2 1_555 1_555
C2 C3 1_555 1_555
C3 H6 1_555 1_555
C4 C3 1_555 1_555
C5 C4 1_555 1_555
C6 C5 1_555 1_555
H7 C6 1_555 1_555
C7 C6 1_555 1_555
C8 C7 1_555 1_555
C9 C7 1_555 1_555
H8 C9 1_555 1_555
C10 C9 1_555 1_555
C11 C10 1_555 1_555
C12 C5 1_555 1_555
H9 C12 1_555 1_555
C13 C4 1_555 1_555
H10 C13 1_555 1_555
C14 C13 1_555 1_555
C15 C2 1_555 1_555
H11 C15 1_555 1_555
C16 C14 1_555 1_555
C17 O9 1_555 1_555
C18 C17 1_555 1_555
C19 C18 1_555 1_555
H12 C19 1_555 1_555
C20 C18 1_555 1_555
H13 C20 1_555 1_555
C21 C20 1_555 1_555
C22 C21 1_555 1_555
C23 C22 1_555 1_555
H14 C23 1_555 1_555
C24 C23 1_555 1_555
C25 C24 1_555 1_555
H15 C25 1_555 1_555
C26 C24 1_555 1_555
Sc1_2 O2_2 1_555 1_555
Sc1_3 O7 1_555 1_555
Sc1A O8 1_555 1_555
Sc1A_2 O15 1_555 1_555
Sc1G O10G 1_555 1_555
Sc2_2 O12 1_555 1_555
Sc2A O11 1_555 1_555
Sc2A_2 O14 1_555 1_555
Sc2G O9G 1_555 1_555
Sc2F O11G 1_555 1_555
Sc2G_2 O12G 1_555 1_555
Sc3_2 O3_2 1_555 1_555
Sc3B O4 1_555 1_555
Sc3A O5 1_555 1_555
Sc3_3 O6 1_555 1_555
Sc3A_2 O16 1_555 1_555
Sc3B_2 O4_2 1_555 1_555
O1_2 Sc2_2 1_555 1_555
O2_2 C1_2 1_555 1_555
O3_2 C16_2 1_555 1_555
O4_2 C16_2 1_555 1_555
O4B Sc3 1_555 1_555
O4B_2 Sc3_2 1_555 1_555
O5_2 Sc3A_2 1_555 1_555
O5A Sc3 1_555 1_555
O5A_2 Sc3_2 1_555 1_555
O6_2 Sc3 1_555 1_555
O6_3 Sc3_2 1_555 1_555
O7_2 Sc1 1_555 1_555
O7_3 Sc1_2 1_555 1_555
O8_2 Sc1A_2 1_555 1_555
O8A Sc1 1_555 1_555
O8A_2 Sc1_2 1_555 1_555
O9G C17G 1_555 1_555
O9_2 Sc2_2 1_555 1_555
O10G C17G 1_555 1_555
O10_2 Sc1_2 1_555 1_555
O11G C26G 1_555 1_555
O11A Sc2 1_555 1_555
O11A_2 Sc2_2 1_555 1_555
O12G C26G 1_555 1_555
O12_2 Sc2 1_555 1_555
O13_2 Sc1_2 1_555 1_555
H1_2 O13_2 1_555 1_555
O14_2 Sc2_2 1_555 1_555
H2_2 O14_2 1_555 1_555
O15_2 Sc1_2 1_555 1_555
H3_2 O15_2 1_555 1_555
O16_2 Sc3_2 1_555 1_555
H4_2 O16_2 1_555 1_555
O17_2 Sc3_2 1_555 1_555
H5_2 O17_2 1_555 1_555
C1_2 O1_2 1_555 1_555
C2_2 C1_2 1_555 1_555
C3_2 C2_2 1_555 1_555
H6_2 C3_2 1_555 1_555
C4_2 C3_2 1_555 1_555
C5_2 C4_2 1_555 1_555
C6_2 C5_2 1_555 1_555
H7_2 C6_2 1_555 1_555
C7_2 C6_2 1_555 1_555
C8_2 O7_2 1_555 1_555
C9_2 C7_2 1_555 1_555
H8_2 C9_2 1_555 1_555
C10_2 C9_2 1_555 1_555
C11_2 O5_2 1_555 1_555
C12_2 C5_2 1_555 1_555
H9_2 C12_2 1_555 1_555
C13_2 C4_2 1_555 1_555
H10_2 C13_2 1_555 1_555
C14_2 C13_2 1_555 1_555
C15_2 C2_2 1_555 1_555
H11_2 C15_2 1_555 1_555
C16_2 C14_2 1_555 1_555
C17G C18G 1_555 1_555
C18G C19 1_555 1_555
C20G C21 1_555 1_555
H13G C20G 1_555 1_555
C23G C22 1_555 1_555
H14G C23G 1_555 1_555
C24G C25 1_555 1_555
C26G C24G 1_555 1_555
Sc2 O13 1_555 1_555
O10 C17 1_555 1_555
O17 Sc3B 1_555 1_555
C10 C12 1_555 1_555
C14 C15 1_555 1_555
Sc2_2 O13_2 1_555 1_555
Sc2A O14_2 1_555 1_555
Sc3B_2 O17_2 1_555 1_555
O6_2 C11_2 1_555 1_555
O8_2 C8_2 1_555 1_555
C7_2 C8_2 1_555 1_555
C10_2 C11_2 1_555 1_555
C10_2 C12_2 1_555 1_555
C14_2 C15_2 1_555 1_555
C18G C20G 1_555 1_555
C23G C24G 1_555 1_555

#END
