
#######################################################################
#
#                 Cambridge Crystallographic Data Centre
#                                CCDC 
#
#######################################################################
#
# If this CIF has been generated from an entry in the Cambridge 
# Structural Database, then it will include bibliographic, chemical, 
# crystal, experimental, refinement or atomic coordinate data resulting 
# from the CCDC's data processing and validation procedures.
#
#######################################################################

data_EXEQEE
_chemical_formula_moiety         '(C6 H3 O5 S1 Sc1)n'
_symmetry_cell_setting           tetragonal
_symmetry_space_group_name_H-M   'I 41/a m d'
_symmetry_Int_Tables_number      141
_space_group_name_Hall           '-I 4bd 2'
loop_
_symmetry_equiv_pos_site_id
_symmetry_equiv_pos_as_xyz
1 x,y,z
2 1/2-x,-y,1/2+z
3 1/4-y,3/4+x,1/4+z
4 1/4+y,1/4-x,3/4+z
5 1/2-x,y,1/2-z
6 x,-y,-z
7 1/4+y,3/4+x,1/4-z
8 1/4-y,1/4-x,3/4-z
9 1/2+x,1/2+y,1/2+z
10 -x,1/2-y,z
11 3/4-y,1/4+x,3/4+z
12 3/4+y,3/4-x,1/4+z
13 -x,1/2+y,-z
14 1/2+x,1/2-y,1/2-z
15 3/4+y,1/4+x,3/4-z
16 3/4-y,3/4-x,1/4-z
17 -x,-y,-z
18 1/2+x,y,1/2-z
19 3/4+y,1/4-x,3/4-z
20 3/4-y,3/4+x,1/4-z
21 1/2+x,-y,1/2+z
22 -x,y,z
23 3/4-y,1/4-x,3/4+z
24 3/4+y,3/4+x,1/4+z
25 1/2-x,1/2-y,1/2-z
26 x,1/2+y,-z
27 1/4+y,3/4-x,1/4-z
28 1/4-y,1/4+x,3/4-z
29 x,1/2-y,z
30 1/2-x,1/2+y,1/2+z
31 1/4-y,3/4-x,1/4+z
32 1/4+y,1/4+x,3/4+z
_cell_length_a                   22.605(4)
_cell_length_b                   22.605(4)
_cell_length_c                   12.474(2)
_cell_angle_alpha                90
_cell_angle_beta                 90
_cell_angle_gamma                90
_cell_volume                     6374.04
loop_
_atom_site_label
_atom_site_type_symbol
_atom_site_fract_x
_atom_site_fract_y
_atom_site_fract_z
_atom_site_U_iso_or_equiv
_atom_site_thermal_displace_type
Sc1 Sc 0.2500 0.55662(2) 0.2500 0.0189 Uani
S1 S 0.5000 0.51647(5) 0.35088(7) 0.0326 Uani
O1 O 0.24834(7) 0.49834(7) 0.3750 0.0240 Uani
H1 H 0.2202 0.4702 0.3750 0.0290 Uiso
O2 O 0.34400(8) 0.55917(9) 0.24778(16) 0.0338 Uani
O3 O 0.37585(9) 0.50577(7) 0.38614(16) 0.0329 Uani
C1 C 0.38382(9) 0.53568(11) 0.3031(2) 0.0272 Uani
C2 C 0.44601(11) 0.54430(16) 0.2720(2) 0.0392 Uani
C3 C 0.4685(3) 0.5609(3) 0.1724(6) 0.0430 Uiso
H2 H 0.4453 0.5707 0.1134 0.0520 Uiso
Sc1K Sc 0.30662(2) 0.5000 0.5000 0.0189 Uani
Sc1Q Sc 0.7500 0.55662(2) 0.2500 0.0189 Uani
Sc1AA Sc 0.69338(2) 0.5000 0.5000 0.0189 Uani
O1D O 0.25166(7) 0.49834(7) 0.1250 0.0240 Uani
H1D H 0.2798 0.4702 0.1250 0.0290 Uiso
O2U O 0.65600(8) 0.55917(9) 0.24778(16) 0.0338 Uani
O2D O 0.15600(8) 0.55917(9) 0.25222(16) 0.0338 Uani
O3U O 0.62415(9) 0.50577(7) 0.38614(16) 0.0329 Uani
O3J O 0.24423(7) 0.62585(9) 0.13614(16) 0.0329 Uani
O3N O 0.25577(7) 0.62585(9) 0.36386(16) 0.0329 Uani
C1U C 0.61618(9) 0.53568(11) 0.3031(2) 0.0272 Uani
C2U C 0.55399(11) 0.54430(16) 0.2720(2) 0.0392 Uani
C3U C 0.5315(3) 0.5609(3) 0.1724(6) 0.0430 Uiso
H2U H 0.5547 0.5707 0.1134 0.0520 Uiso
loop_
_atom_site_aniso_label
_atom_site_aniso_U_11
_atom_site_aniso_U_22
_atom_site_aniso_U_33
_atom_site_aniso_U_23
_atom_site_aniso_U_13
_atom_site_aniso_U_12
Sc1 0.0131(3) 0.0169(3) 0.0268(3) 0.000 -0.00360(18) 0.000
S1 0.0134(3) 0.0513(6) 0.0332(5) 0.0198(4) 0.000 0.000
O1 0.0213(6) 0.0213(6) 0.0294(11) 0.0023(6) -0.0023(6) -0.0066(8)
O2 0.0144(7) 0.0441(10) 0.0429(10) 0.0175(8) -0.0035(7) -0.0010(6)
O3 0.0187 0.0432 0.0367 0.0154 0.0041 0.0009
C1 0.0137(8) 0.0337(11) 0.0341(12) 0.0081(9) 0.0000(8) -0.0010(8)
C2 0.0141(9) 0.0636(19) 0.0399(14) 0.0272(13) -0.0008(9) -0.0004(10)
Sc1K 0.0169 0.0131 0.0268 0.0036 0 0
Sc1Q 0.0131 0.0169 0.0268 0 0.0036 0
Sc1AA 0.0169 0.0131 0.0268 0.0036 0 0
O1D 0.0213 0.0213 0.0294 -0.0023 -0.0023 0.0066
O2U 0.0144 0.0441 0.0429 0.0175 0.0035 0.001
O2D 0.0144 0.0441 0.0429 -0.0175 -0.0035 0.001
O3U 0.0187 0.0432 0.0367 0.0154 -0.0041 -0.0009
O3J 0.0432 0.0187 0.0367 0.0041 -0.0154 -0.0009
O3N 0.0432 0.0187 0.0367 -0.0041 -0.0154 0.0009
C1U 0.0137 0.0337 0.0341 0.0081 0 0.001
C2U 0.0141 0.0636 0.0399 0.0272 0.0008 0.0004
loop_
_geom_bond_atom_site_label_1
_geom_bond_atom_site_label_2
_geom_bond_site_symmetry_1
_geom_bond_site_symmetry_2
Sc1 O1 1_555 1_555
S1 C2 1_555 1_555
O1 H1 1_555 1_555
O2 Sc1 1_555 1_555
O3 C1 1_555 1_555
C1 O2 1_555 1_555
C2 C1 1_555 1_555
C3 C2 1_555 1_555
H2 C3 1_555 1_555
Sc1K O1 1_555 1_555
Sc1Q O2U 1_555 1_555
Sc1AA O3U 1_555 1_555
O1D Sc1 1_555 1_555
H1D O1D 1_555 1_555
O2U C1U 1_555 1_555
O2D Sc1 1_555 1_555
O3U C1U 1_555 1_555
O3J Sc1 1_555 1_555
O3N Sc1 1_555 1_555
C1U C2U 1_555 1_555
C2U S1 1_555 1_555
C3U C3 1_555 1_555
H2U C3U 1_555 1_555
O3 Sc1K 1_555 1_555
C2U C3U 1_555 1_555

#END
