
#######################################################################
#
#                 Cambridge Crystallographic Data Centre
#                                CCDC 
#
#######################################################################
#
# If this CIF has been generated from an entry in the Cambridge 
# Structural Database, then it will include bibliographic, chemical, 
# crystal, experimental, refinement or atomic coordinate data resulting 
# from the CCDC's data processing and validation procedures.
#
#######################################################################

data_ZUWXOG
_chemical_formula_moiety         'C36 H12 In9 O36'
_symmetry_cell_setting           cubic
_symmetry_space_group_name_H-M   'I -4 3 d'
_symmetry_Int_Tables_number      220
_space_group_name_Hall           'I -4bd 2c 3'
loop_
_symmetry_equiv_pos_site_id
_symmetry_equiv_pos_as_xyz
1 x,y,z
2 1/4+y,3/4-x,1/4-z
3 -x,1/2-y,z
4 1/4-y,1/4+x,3/4-z
5 1/4-x,1/4+z,3/4-y
6 x,-y,1/2-z
7 3/4-x,1/4-z,1/4+y
8 3/4-z,1/4-y,1/4+x
9 1/2-x,y,-z
10 1/4+z,3/4-y,1/4-x
11 z,x,y
12 y,z,x
13 -y,1/2-z,x
14 z,-x,1/2-y
15 1/2-y,z,-x
16 -z,1/2-x,y
17 1/2-z,x,-y
18 y,-z,1/2-x
19 3/4-y,1/4-x,1/4+z
20 1/4+y,1/4+x,1/4+z
21 1/4+x,3/4-z,1/4-y
22 1/4+x,1/4+z,1/4+y
23 1/4-z,1/4+y,3/4-x
24 1/4+z,1/4+y,1/4+x
25 1/2+x,1/2+y,1/2+z
26 3/4+y,1/4-x,3/4-z
27 1/2-x,-y,1/2+z
28 3/4-y,3/4+x,1/4-z
29 3/4-x,3/4+z,1/4-y
30 1/2+x,1/2-y,-z
31 1/4-x,3/4-z,3/4+y
32 1/4-z,3/4-y,3/4+x
33 -x,1/2+y,1/2-z
34 3/4+z,1/4-y,3/4-x
35 1/2+z,1/2+x,1/2+y
36 1/2+y,1/2+z,1/2+x
37 1/2-y,-z,1/2+x
38 1/2+z,1/2-x,-y
39 -y,1/2+z,1/2-x
40 1/2-z,-x,1/2+y
41 -z,1/2+x,1/2-y
42 1/2+y,1/2-z,-x
43 1/4-y,3/4-x,3/4+z
44 3/4+y,3/4+x,3/4+z
45 3/4+x,1/4-z,3/4-y
46 3/4+x,3/4+z,3/4+y
47 3/4-z,3/4+y,1/4-x
48 3/4+z,3/4+y,3/4+x
_cell_length_a                   20.44700(10)
_cell_length_b                   20.44700(10)
_cell_length_c                   20.44700(10)
_cell_angle_alpha                90
_cell_angle_beta                 90
_cell_angle_gamma                90
_cell_volume                     8548.48
loop_
_atom_site_label
_atom_site_type_symbol
_atom_site_fract_x
_atom_site_fract_y
_atom_site_fract_z
In1 In 0.7500 0.3750 0.5000
O1 O 0.69486(19) 0.33408(19) 0.4191(2)
O2 O 0.78645(18) 0.27963(19) 0.4375(2)
C1 C 0.7353(2) 0.2881(2) 0.4055(2)
C2 C 0.7190(2) 0.2445(3) 0.3488(2)
C3 C 0.7585(2) 0.1902(2) 0.3350(2)
H1 H 0.7938 0.1803 0.3618
O1NA O 0.5809(2) 0.19486(19) 0.16592(19)
O2NA O 0.5625(2) 0.28645(18) 0.22037(19)
C1NA C 0.5945(2) 0.2353(2) 0.2119(2)
C2NA C 0.6512(2) 0.2190(2) 0.2555(3)
C3NA C 0.6650(2) 0.2585(2) 0.3098(2)
H1NA H 0.6382 0.2938 0.3197
O1OA O 0.83408(19) 0.0809(2) 0.30514(19)
O2OA O 0.77963(19) 0.0625(2) 0.21355(18)
C1OA C 0.7881(2) 0.0945(2) 0.2647(2)
C2OA C 0.7445(3) 0.1512(2) 0.2810(2)
C3OA C 0.6902(2) 0.1650(2) 0.2415(2)
H1OA H 0.6803 0.1382 0.2062
In1C In 0.8750 0.0000 0.2500
O1C O 0.91592(19) -0.05514(19) 0.3309(2)
O2C O 0.97037(19) 0.03645(18) 0.3125(2)
C1C C 0.9619(2) -0.0147(2) 0.3445(2)
C2C C 1.0055(3) -0.0310(2) 0.4012(2)
C3C C 1.0598(2) 0.0085(2) 0.4150(2)
H1C H 1.0697 0.0438 0.3882
O1F O 1.05514(19) -0.1691(2) 0.58408(19)
O2F O 0.96355(18) -0.1875(2) 0.52963(19)
C1F C 1.0147(2) -0.1555(2) 0.5381(2)
C2F C 1.0310(2) -0.0988(2) 0.4945(3)
C3F C 0.9915(2) -0.0850(2) 0.4402(2)
H1F H 0.9562 -0.1118 0.4303
O1UA O 1.1691(2) 0.08408(19) 0.44486(19)
O2UA O 1.1875(2) 0.02963(19) 0.53645(18)
C1UA C 1.1555(2) 0.0381(2) 0.4853(2)
C2UA C 1.0988(2) -0.0055(3) 0.4690(2)
C3UA C 1.0850(2) -0.0598(2) 0.5085(2)
H1UA H 1.1118 -0.0697 0.5438
In1D In 0.5000 0.7500 0.3750
O1D O 0.55514(19) 0.6691(2) 0.41592(19)
O2D O 0.46355(18) 0.6875(2) 0.47037(19)
C1D C 0.5147(2) 0.6555(2) 0.4619(2)
C2D C 0.5310(2) 0.5988(2) 0.5055(3)
C3D C 0.4915(2) 0.5850(2) 0.5598(2)
H1D H 0.4562 0.6118 0.5697
O1I O 0.6691(2) 0.41592(19) 0.55514(19)
O2I O 0.6875(2) 0.47037(19) 0.46355(18)
C1I C 0.6555(2) 0.4619(2) 0.5147(2)
C2I C 0.5988(2) 0.5055(3) 0.5310(2)
C3I C 0.5850(2) 0.5598(2) 0.4915(2)
H1I H 0.6118 0.5697 0.4562
O1R O 0.41592(19) 0.55514(19) 0.6691(2)
O2R O 0.47037(19) 0.46355(18) 0.6875(2)
C1R C 0.4619(2) 0.5147(2) 0.6555(2)
C2R C 0.5055(3) 0.5310(2) 0.5988(2)
C3R C 0.5598(2) 0.4915(2) 0.5850(2)
H1R H 0.5697 0.4562 0.6118
O1E O 0.69486(19) -0.33408(19) 0.0809(2)
O2E O 0.78645(18) -0.27963(19) 0.0625(2)
C1E C 0.7353(2) -0.2881(2) 0.0945(2)
C2E C 0.7190(2) -0.2445(3) 0.1512(2)
C3E C 0.7585(2) -0.1902(2) 0.1650(2)
H1E H 0.7938 -0.1803 0.1382
O1O O 0.5809(2) -0.19486(19) 0.33408(19)
O2O O 0.5625(2) -0.28645(18) 0.27963(19)
C1O C 0.5945(2) -0.2353(2) 0.2881(2)
C2O C 0.6512(2) -0.2190(2) 0.2445(3)
C3O C 0.6650(2) -0.2585(2) 0.1902(2)
H1O H 0.6382 -0.2938 0.1803
O1IA O 0.83408(19) -0.0809(2) 0.19486(19)
O2IA O 0.77963(19) -0.0625(2) 0.28645(18)
C1IA C 0.7881(2) -0.0945(2) 0.2353(2)
C2IA C 0.7445(3) -0.1512(2) 0.2190(2)
C3IA C 0.6902(2) -0.1650(2) 0.2585(2)
H1IA H 0.6803 -0.1382 0.2938
In1B In 1.2500 0.1250 0.5000
In1D_2 In 0.5000 -0.2500 0.3750
In1E In 0.7500 -0.3750 0.0000
In1F In 1.0000 -0.2500 0.6250
In1K In 0.3750 0.5000 0.7500
In1M In 0.5000 0.2500 0.1250
O1H O 0.80514(19) 0.33408(19) 0.5809(2)
O1J O 0.4191(2) 0.69486(19) 0.33408(19)
O1O_2 O 0.5809(2) 0.80514(19) 0.33408(19)
O1EA O 0.8309(2) 0.41592(19) 0.44486(19)
O1PA O 0.91592(19) 0.05514(19) 0.1691(2)
O1RA O 0.44486(19) 0.8309(2) 0.41592(19)
O2H O 0.71355(18) 0.27963(19) 0.5625(2)
O2J O 0.4375(2) 0.78645(18) 0.27963(19)
O2O_2 O 0.5625(2) 0.71355(18) 0.27963(19)
O2EA O 0.8125(2) 0.47037(19) 0.53645(18)
O2PA O 0.97037(19) -0.03645(18) 0.1875(2)
O2RA O 0.53645(18) 0.8125(2) 0.47037(19)
loop_
_geom_bond_atom_site_label_1
_geom_bond_atom_site_label_2
_geom_bond_site_symmetry_1
_geom_bond_site_symmetry_2
In1 O1 1_555 1_555
O1 C1 1_555 1_555
O2 In1 1_555 1_555
C1 O2 1_555 1_555
C2 C1 1_555 1_555
C3 C2 1_555 1_555
H1 C3 1_555 1_555
O1NA C1NA 1_555 1_555
O2NA C1NA 1_555 1_555
C1NA C2NA 1_555 1_555
C2NA C3NA 1_555 1_555
C3NA C2 1_555 1_555
H1NA C3NA 1_555 1_555
O1OA C1OA 1_555 1_555
O2OA C1OA 1_555 1_555
C1OA C2OA 1_555 1_555
C2OA C3 1_555 1_555
C3OA C2NA 1_555 1_555
H1OA C3OA 1_555 1_555
In1C O1OA 1_555 1_555
O1C In1C 1_555 1_555
O2C In1C 1_555 1_555
C1C O1C 1_555 1_555
C2C C1C 1_555 1_555
C3C C2C 1_555 1_555
H1C C3C 1_555 1_555
O1F C1F 1_555 1_555
O2F C1F 1_555 1_555
C1F C2F 1_555 1_555
C2F C3F 1_555 1_555
C3F C2C 1_555 1_555
H1F C3F 1_555 1_555
O1UA C1UA 1_555 1_555
O2UA C1UA 1_555 1_555
C1UA C2UA 1_555 1_555
C2UA C3C 1_555 1_555
C3UA C2F 1_555 1_555
H1UA C3UA 1_555 1_555
In1D O1D 1_555 1_555
O1D C1D 1_555 1_555
O2D In1D 1_555 1_555
C1D O2D 1_555 1_555
C2D C1D 1_555 1_555
C3D C2D 1_555 1_555
H1D C3D 1_555 1_555
O1I In1 1_555 1_555
O2I In1 1_555 1_555
C1I O1I 1_555 1_555
C2I C1I 1_555 1_555
C3I C2D 1_555 1_555
H1I C3I 1_555 1_555
O1R C1R 1_555 1_555
O2R C1R 1_555 1_555
C1R C2R 1_555 1_555
C2R C3D 1_555 1_555
C3R C2I 1_555 1_555
H1R C3R 1_555 1_555
O1E C1E 1_555 1_555
O2E C1E 1_555 1_555
C1E C2E 1_555 1_555
C2E C3E 1_555 1_555
C3E H1E 1_555 1_555
O1O C1O 1_555 1_555
O2O C1O 1_555 1_555
C1O C2O 1_555 1_555
C2O C3O 1_555 1_555
C3O C2E 1_555 1_555
H1O C3O 1_555 1_555
O1IA In1C 1_555 1_555
O2IA In1C 1_555 1_555
C1IA O1IA 1_555 1_555
C2IA C3E 1_555 1_555
C3IA C2O 1_555 1_555
H1IA C3IA 1_555 1_555
In1B O1UA 1_555 1_555
In1D_2 O1O 1_555 1_555
In1E O1E 1_555 1_555
In1F O1F 1_555 1_555
In1K O1R 1_555 1_555
In1M O1NA 1_555 1_555
O1H In1 1_555 1_555
O1J In1D 1_555 1_555
O1O_2 In1D 1_555 1_555
O1EA In1 1_555 1_555
O1PA In1C 1_555 1_555
O1RA In1D 1_555 1_555
O2H In1 1_555 1_555
O2J In1D 1_555 1_555
O2O_2 In1D 1_555 1_555
O2EA In1 1_555 1_555
O2PA In1C 1_555 1_555
O2RA In1D 1_555 1_555
O2NA In1M 1_555 1_555
O2OA In1C 1_555 1_555
C2OA C3OA 1_555 1_555
O2C C1C 1_555 1_555
O2F In1F 1_555 1_555
O2UA In1B 1_555 1_555
C2UA C3UA 1_555 1_555
O2I C1I 1_555 1_555
C2I C3I 1_555 1_555
O2R In1K 1_555 1_555
C2R C3R 1_555 1_555
O2E In1E 1_555 1_555
O2O In1D_2 1_555 1_555
O2IA C1IA 1_555 1_555
C1IA C2IA 1_555 1_555
C2IA C3IA 1_555 1_555

#END
