
#######################################################################
#
#                 Cambridge Crystallographic Data Centre
#                                CCDC 
#
#######################################################################
#
# If this CIF has been generated from an entry in the Cambridge 
# Structural Database, then it will include bibliographic, chemical, 
# crystal, experimental, refinement or atomic coordinate data resulting 
# from the CCDC's data processing and validation procedures.
#
#######################################################################

data_EWUGEK
_chemical_formula_moiety         '(C21 H30 Cd1 N6 O7)n'
_symmetry_cell_setting           monoclinic
_symmetry_space_group_name_H-M   'C 2'
_symmetry_Int_Tables_number      5
_space_group_name_Hall           'C 2y'
loop_
_symmetry_equiv_pos_site_id
_symmetry_equiv_pos_as_xyz
1 x,y,z
2 -x,y,-z
3 1/2+x,1/2+y,z
4 1/2-x,1/2+y,-z
_cell_length_a                   30.353(9)
_cell_length_b                   4.8595(13)
_cell_length_c                   18.323(5)
_cell_angle_alpha                90
_cell_angle_beta                 118.123(4)
_cell_angle_gamma                90
_cell_volume                     2383.57
loop_
_atom_site_label
_atom_site_type_symbol
_atom_site_fract_x
_atom_site_fract_y
_atom_site_fract_z
C1 C -0.1713(5) 1.288(6) 0.0923(7)
C2 C -0.1194(6) 1.151(4) 0.1401(10)
H1 H -0.1238 0.9506 0.1364
C3 C -0.0882(5) 1.232(5) 0.0975(9)
H2 H -0.1038 1.1586 0.0418
H3 H -0.0878 1.4314 0.0936
C4 C -0.0350(7) 1.127(5) 0.1445(11)
H4 H -0.0349 0.9277 0.1401
H5 H -0.0153 1.2013 0.1199
C5 C -0.0399(6) 1.112(5) 0.2731(10)
H6 H -0.0229 1.1680 0.3306
H7 H -0.0417 0.9124 0.2712
C6 C -0.0927(6) 1.233(6) 0.2307(9)
H8 H -0.1113 1.1658 0.2580
H9 H -0.0908 1.4315 0.2353
C7 C 0.0217(7) 1.407(4) 0.2623(11)
C8 C 0.0743(7) 1.675(4) 0.3710(10)
C9 C 0.0754(6) 1.701(4) 0.2500(10)
C10 C 0.1756(7) 1.734(6) 0.7126(11)
C11 C 0.1370(7) 1.826(6) 0.6264(10)
H10 H 0.1230 2.0009 0.6322
C12 C 0.1647(7) 1.879(5) 0.5760(9)
H11 H 0.1824 1.7141 0.5753
H12 H 0.1892 2.0240 0.6025
C13 C 0.1286(8) 1.965(5) 0.4861(11)
H13 H 0.1147 2.1455 0.4858
H14 H 0.1465 1.9758 0.4542
C14 C 0.0603(7) 1.711(5) 0.4917(10)
H15 H 0.0369 1.5624 0.4641
H16 H 0.0412 1.8733 0.4900
C15 C 0.0946(7) 1.631(5) 0.5814(10)
H17 H 0.0750 1.6212 0.6105
H18 H 0.1081 1.4494 0.5825
C16 C 0.2002(6) 1.735(4) 0.1169(8)
C17 C 0.1584(6) 1.858(3) 0.1285(9)
H19 H 0.1496 2.0360 0.0999
C18 C 0.1132(7) 1.684(5) 0.0937(10)
H20 H 0.1230 1.4963 0.1125
H21 H 0.0987 1.6843 0.0339
C19 C 0.0740(6) 1.774(8) 0.1170(10)
H22 H 0.0582 1.9409 0.0872
H23 H 0.0485 1.6326 0.1007
C20 C 0.1356(8) 2.012(5) 0.2400(12)
H24 H 0.1475 2.0222 0.2992
H25 H 0.1248 2.1935 0.2167
C21 C 0.1777(8) 1.910(5) 0.2227(11)
H26 H 0.1916 1.7414 0.2530
H27 H 0.2041 2.0469 0.2421
N1 N -0.0122(5) 1.206(3) 0.2320(8)
N2 N 0.0356(6) 1.493(4) 0.3406(9)
N3 N 0.0964(5) 1.771(6) 0.3307(8)
N4 N 0.0397(5) 1.514(4) 0.2131(9)
N5 N 0.0887(5) 1.766(7) 0.4492(7)
N6 N 0.0949(5) 1.822(5) 0.2035(8)
O1 O -0.1753(5) 1.526(3) 0.1018(8)
O2 O -0.2067(4) 1.128(2) 0.0426(7)
O3 O 0.1881(6) 1.474(3) 0.7123(9)
H28 H 0.2092 1.4638 0.6964
O4 O 0.1900(5) 1.868(3) 0.7734(7)
O5 O 0.2400(4) 1.866(3) 0.1370(5)
O6 O 0.1961(5) 1.495(3) 0.0903(9)
Cd1 Cd -0.24062(4) 1.7800(3) 0.08613(6)
O2_2 O -0.2067(4) 2.128(2) 0.0426(7)
O2C O -0.2933(4) 1.628(2) -0.0426(7)
O4A O -0.1900(5) 1.868(3) 0.2266(7)
O5B O -0.2600(4) 1.366(3) 0.1370(5)
O6B O -0.3039(5) 1.995(3) 0.0903(9)
Cd1_2 Cd -0.24062(4) 0.7800(3) 0.08613(6)
Cd1A Cd 0.24062(4) 1.7800(3) 0.91387(6)
Cd1B Cd 0.25938(4) 1.2800(3) 0.08613(6)
Cd1B_2 Cd 0.25938(4) 2.2800(3) 0.08613(6)
Cd1C Cd -0.25938(4) 1.2800(3) -0.08613(6)
O7 O 0.234(3) 1.71(4) 0.459(4)
loop_
_geom_bond_atom_site_label_1
_geom_bond_atom_site_label_2
_geom_bond_site_symmetry_1
_geom_bond_site_symmetry_2
C1 C2 1_555 1_555
C2 H1 1_555 1_555
C3 C2 1_555 1_555
H2 C3 1_555 1_555
H3 C3 1_555 1_555
C4 C3 1_555 1_555
H4 C4 1_555 1_555
H5 C4 1_555 1_555
C5 H6 1_555 1_555
H7 C5 1_555 1_555
C6 C2 1_555 1_555
H8 C6 1_555 1_555
H9 C6 1_555 1_555
C7 N1 1_555 1_555
C8 N2 1_555 1_555
C9 N3 1_555 1_555
C10 C11 1_555 1_555
C11 H10 1_555 1_555
C12 C11 1_555 1_555
H11 C12 1_555 1_555
H12 C12 1_555 1_555
C13 C12 1_555 1_555
H13 C13 1_555 1_555
H14 C13 1_555 1_555
C14 H15 1_555 1_555
H16 C14 1_555 1_555
C15 C11 1_555 1_555
H17 C15 1_555 1_555
H18 C15 1_555 1_555
C16 C17 1_555 1_555
C17 H19 1_555 1_555
C18 C17 1_555 1_555
H20 C18 1_555 1_555
H21 C18 1_555 1_555
C19 C18 1_555 1_555
H22 C19 1_555 1_555
H23 C19 1_555 1_555
C20 H24 1_555 1_555
H25 C20 1_555 1_555
C21 C17 1_555 1_555
H26 C21 1_555 1_555
H27 C21 1_555 1_555
N1 C4 1_555 1_555
N2 C7 1_555 1_555
N3 C8 1_555 1_555
N4 C7 1_555 1_555
N5 C8 1_555 1_555
N6 C9 1_555 1_555
O1 C1 1_555 1_555
O2 C1 1_555 1_555
O3 C10 1_555 1_555
H28 O3 1_555 1_555
O4 C10 1_555 1_555
O5 C16 1_555 1_555
O6 C16 1_555 1_555
Cd1 O1 1_555 1_555
O2_2 Cd1 1_555 1_555
O2C Cd1 1_555 1_555
O4A Cd1 1_555 1_555
O5B Cd1 1_555 1_555
O6B Cd1 1_555 1_555
Cd1_2 O2 1_555 1_555
Cd1A O4 1_555 1_555
Cd1B O6 1_555 1_555
Cd1B_2 O5 1_555 1_555
Cd1C O2 1_555 1_555
C5 C6 1_555 1_555
C5 N1 1_555 1_555
C9 N4 1_555 1_555
C13 N5 1_555 1_555
C14 C15 1_555 1_555
C14 N5 1_555 1_555
C19 N6 1_555 1_555
C20 C21 1_555 1_555
C20 N6 1_555 1_555
O2C Cd1C 1_555 1_555

#END
