
#######################################################################
#
#                 Cambridge Crystallographic Data Centre
#                                CCDC 
#
#######################################################################
#
# If this CIF has been generated from an entry in the Cambridge 
# Structural Database, then it will include bibliographic, chemical, 
# crystal, experimental, refinement or atomic coordinate data resulting 
# from the CCDC's data processing and validation procedures.
#
#######################################################################

data_AXAFAG
_chemical_formula_moiety         '(C12 H44 F2 N4 O42 P6 U6)n'
_symmetry_cell_setting           monoclinic
_symmetry_space_group_name_H-M   'P 21/n'
_symmetry_Int_Tables_number      14
_space_group_name_Hall           '-P 2yn'
loop_
_symmetry_equiv_pos_site_id
_symmetry_equiv_pos_as_xyz
1 x,y,z
2 1/2+x,1/2-y,1/2+z
3 -x,-y,-z
4 1/2-x,1/2+y,1/2-z
_cell_length_a                   13.4487(2)
_cell_length_b                   17.9210(2)
_cell_length_c                   19.9026(3)
_cell_angle_alpha                90
_cell_angle_beta                 90.9833(7)
_cell_angle_gamma                90
_cell_volume                     4796.1
loop_
_atom_site_label
_atom_site_type_symbol
_atom_site_fract_x
_atom_site_fract_y
_atom_site_fract_z
_atom_site_U_iso_or_equiv
_atom_site_thermal_displace_type
U1 U 0.34904(3) 0.97817(2) 0.22905(2) 0.0223 Uani
U2 U 0.65281(3) 1.00175(2) 0.27448(2) 0.0226 Uani
U3 U 0.37856(3) 0.73814(2) 0.37729(2) 0.0230 Uani
U4 U 0.62354(3) 1.24835(2) 0.12274(2) 0.0227 Uani
U5 U 0.34780(3) 1.00519(2) 0.50941(2) 0.0217 Uani
U6 U 0.34884(3) 1.00755(2) 0.01181(2) 0.0220 Uani
P1 P 0.1430(2) 1.03242(15) 0.11849(14) 0.0233 Uani
P2 P 0.7747(2) 1.07791(15) 0.12828(15) 0.0235 Uani
P3 P 0.8587(2) 0.95831(15) 0.38796(15) 0.0236 Uani
P4 P 0.4938(2) 1.06105(15) 0.12838(15) 0.0240 Uani
P5 P 0.5092(2) 0.92391(15) 0.37924(15) 0.0230 Uani
P6 P 0.2270(2) 0.90482(15) 0.37479(15) 0.0231 Uani
O1 O 0.4810(6) 0.9750(4) 0.4381(4) 0.0257 Uani
F1 F 0.4601(6) 1.2803(4) 0.1408(4) 0.0397 Uani
O2 O 0.9617(6) 0.9999(4) 0.3956(4) 0.0297 Uani
O3 O 0.3781(6) 1.0542(4) 0.1272(4) 0.0227 Uani
O4 O 0.6433(6) 1.2428(5) 0.2109(4) 0.0300 Uani
O5 O 0.6260(6) 0.9324(4) 0.3801(4) 0.0237 Uani
O6 O 0.3628(7) 1.1021(4) -0.0122(4) 0.0300 Uani
O7 O 0.2012(6) 0.9850(4) 0.1685(4) 0.0274 Uani
O8 O 0.5208(7) 1.0191(5) 0.0634(4) 0.0314 Uani
O9 O 0.8003(7) 1.0031(4) 0.3354(4) 0.0310 Uani
O10 O 0.2614(6) 0.9721(4) 0.4154(4) 0.0261 Uani
O11 O 0.3766(6) 0.8931(4) 0.1878(4) 0.0273 Uani
O12 O 0.1951(6) 1.0376(5) 0.0516(4) 0.0326 Uani
O13 O 0.6010(7) 1.2564(5) 0.0348(5) 0.0326 Uani
O14 O 0.5244(7) 1.0167(4) 0.1919(4) 0.0304 Uani
O15 O 0.4794(6) 0.9576(5) 0.3108(4) 0.0291 Uani
O16 O 0.0417(6) 0.9888(4) 0.1058(4) 0.0287 Uani
O17 O 0.6208(6) 1.0877(4) 0.3116(4) 0.0293 Uani
O18 O 0.3380(7) 0.9129(4) 0.0381(4) 0.0300 Uani
O19 O 0.3392(7) 0.9133(4) 0.5437(4) 0.0304 Uani
O20 O 0.2543(6) 0.9150(4) 0.3019(4) 0.0274 Uani
O21 O 0.6821(7) 0.9140(4) 0.2377(4) 0.0324 Uani
O22 O 0.2644(6) 0.8317(4) 0.4027(4) 0.0277 Uani
O23 O 0.8786(7) 0.8795(5) 0.3654(5) 0.0336 Uani
O24 O 0.8080(7) 0.9620(5) 0.4550(4) 0.0347 Uani
O25 O 0.7489(7) 1.0623(5) 0.2011(4) 0.0347 Uani
O26 O 0.7434(6) 1.0116(4) 0.0850(4) 0.0264 Uani
O27 O 0.1191(6) 1.1082(4) 0.1469(4) 0.0290 Uani
O28 O 0.8917(6) 1.0801(4) 0.1239(5) 0.0310 Uani
O29 O 0.3853(7) 0.7173(5) 0.4652(4) 0.0337 Uani
F2 F 0.5430(6) 0.7062(4) 0.3665(5) 0.0470 Uani
O30 O 0.5287(7) 1.1398(5) 0.1289(5) 0.0354 Uani
O31 O 0.3584(7) 1.0965(4) 0.4761(4) 0.0303 Uani
O32 O 0.4769(7) 0.8458(5) 0.3898(5) 0.0327 Uani
O33 O 0.3246(6) 1.0650(4) 0.2706(4) 0.0306 Uani
O34 O 0.7351(7) 1.1518(4) 0.1036(4) 0.0310 Uani
O35 O 0.1098(6) 0.9052(5) 0.3800(5) 0.0327 Uani
O36 O 0.3720(7) 0.7546(4) 0.2892(4) 0.0320 Uani
O37 O 0.2036(7) 0.6941(5) 0.3649(5) 0.0393 Uani
O38 O 0.7945(6) 1.2930(5) 0.1101(6) 0.0403 Uani
H25 H -0.0114 1.0120 0.1059 0.0500 Uiso
H26 H 0.0859 0.8463 0.3750 0.0500 Uiso
H27 H 0.1593 0.6477 0.3602 0.0500 Uiso
H32 H 0.1590 0.7384 0.3641 0.0503 Uiso
H33 H 0.8450 1.2542 0.1183 0.0516 Uiso
H34 H 0.8107 1.3465 0.0987 0.0516 Uiso
H35 H 1.0282 0.9771 0.3869 0.0379 Uiso
H36 H 0.9326 1.1265 0.1192 0.0403 Uiso
O27C O 0.3809(6) 0.6082(4) 0.3531(4) 0.0290 Uani
O23C O 0.6214(7) 1.3795(5) 0.1346(5) 0.0336 Uani
O1B O 0.5190(6) 1.0250(4) 0.5619(4) 0.0257 Uani
O5B O 0.3740(6) 1.0676(4) 0.6199(4) 0.0237 Uani
O24B O 0.1920(7) 1.0380(5) 0.5450(4) 0.0347 Uani
O8B O 0.4792(7) 0.9809(5) -0.0634(4) 0.0314 Uani
O26B O 0.2566(6) 0.9884(4) -0.0850(4) 0.0264 Uani
U5B U 0.65220(3) 0.99481(2) 0.49059(2) 0.0217 Uani
U6B U 0.65116(3) 0.99245(2) -0.01181(2) 0.0220 Uani
U4C U 0.87646(3) 0.74835(2) 0.37726(2) 0.0227 Uani
U3C U 0.12144(3) 1.23814(2) 0.12271(2) 0.0230 Uani
N1 N 0.0418(8) 0.8210(5) 0.1405(5) 0.0327 Uani
N4 N 0.1577(8) 0.7120(5) 0.1240(6) 0.0340 Uani
C2 C 0.0542(11) 0.6838(7) 0.1409(7) 0.0387 Uani
C4 C -0.017(1) 0.7495(6) 0.1360(7) 0.0329 Uani
C7 C 0.1516(11) 0.7578(7) 0.0607(6) 0.0361 Uani
C9 C 0.1000(11) 0.8313(7) 0.0772(7) 0.0388 Uani
C10 C 0.1954(12) 0.7591(9) 0.1802(9) 0.0505 Uani
C11 C 0.1124(11) 0.8146(8) 0.1994(8) 0.0427 Uani
H3 H 0.0546 0.6631 0.1878 0.0477 Uiso
H4 H 0.0322 0.6436 0.1090 0.0477 Uiso
H7 H -0.0646 0.7465 0.1736 0.0421 Uiso
H8 H -0.0527 0.7473 0.0923 0.0421 Uiso
H13 H 0.2196 0.7686 0.0430 0.0510 Uiso
H14 H 0.1121 0.7312 0.0247 0.0510 Uiso
H17 H 0.1508 0.8717 0.0836 0.0523 Uiso
H18 H 0.0538 0.8461 0.0393 0.0523 Uiso
H19 H 0.2577 0.7869 0.1686 0.0643 Uiso
H20 H 0.2130 0.7266 0.2215 0.0643 Uiso
H21 H 0.1424 0.8647 0.2100 0.0564 Uiso
H22 H 0.0771 0.7962 0.2403 0.0564 Uiso
H28 H 0.2040 0.6684 0.1149 0.0484 Uiso
H29 H -0.0046 0.8638 0.1474 0.0434 Uiso
O39 O 0.1683(7) 0.1320(5) 0.9147(4) 0.0327 Uani
H38 H 0.1883 0.0836 0.9362 0.0420 Uiso
H39 H 0.1228 0.1595 0.9456 0.0420 Uiso
O40 O 0.0588(9) 0.0756(5) 0.2790(5) 0.0475 Uani
H40 H 0.0895 0.0588 0.2362 0.0596 Uiso
H41 H 0.1139 0.0879 0.3124 0.0596 Uiso
N2 N 0.3413(8) 0.2202(5) 0.8921(6) 0.0324 Uani
N3 N 0.4532(9) 0.3284(5) 0.8630(6) 0.0355 Uani
C1 C 0.516(1) 0.2563(7) 0.8663(7) 0.0343 Uani
C3 C 0.361(1) 0.2687(7) 0.9545(7) 0.0330 Uani
C5 C 0.3737(11) 0.3195(8) 0.8103(8) 0.0415 Uani
C6 C 0.440(1) 0.1910(7) 0.8678(7) 0.0359 Uani
C8 C 0.4088(12) 0.3412(7) 0.9301(7) 0.0409 Uani
C12 C 0.293(1) 0.2646(9) 0.8384(9) 0.0444 Uani
H1 H 0.5560 0.2557 0.9081 0.0449 Uiso
H2 H 0.5571 0.2517 0.8264 0.0449 Uiso
H5 H 0.4066 0.2422 0.9881 0.0442 Uiso
H6 H 0.2970 0.2800 0.9790 0.0442 Uiso
H9 H 0.3425 0.3692 0.7994 0.0528 Uiso
H10 H 0.4022 0.2987 0.7677 0.0528 Uiso
H11 H 0.4677 0.1505 0.8986 0.0456 Uiso
H12 H 0.4325 0.1692 0.8217 0.0456 Uiso
H15 H 0.4632 0.3569 0.9629 0.0543 Uiso
H16 H 0.3581 0.3815 0.9275 0.0543 Uiso
H23 H 0.2335 0.2933 0.8543 0.0627 Uiso
H24 H 0.2678 0.2302 0.8005 0.0627 Uiso
H30 H 0.4955 0.3717 0.8503 0.0464 Uiso
H31 H 0.2959 0.1785 0.9069 0.0425 Uiso
O41 O 0.9402(9) 0.9214(6) 0.2292(6) 0.0542 Uani
H37 H 0.9290 0.8957 0.2732 0.0682 Uiso
H42 H 0.9990 0.9562 0.2341 0.0679 Uiso
O42 O 0.8257(8) 0.8765(6) 0.6072(8) 0.0699 Uani
H43 H 0.8045 0.9298 0.6024 0.0878 Uiso
H44 H 0.8648 0.8624 0.5659 0.0878 Uiso
loop_
_atom_site_aniso_label
_atom_site_aniso_U_11
_atom_site_aniso_U_22
_atom_site_aniso_U_33
_atom_site_aniso_U_23
_atom_site_aniso_U_13
_atom_site_aniso_U_12
U1 0.0171(2) 0.0250(2) 0.0247(2) 0.00000(15) -0.00131(16) -0.00018(14)
U2 0.0169(2) 0.0263(2) 0.0245(2) -0.00018(15) -0.00108(16) -0.00018(14)
U3 0.0174(2) 0.02269(19) 0.0289(2) 0.00038(14) -0.00139(17) -0.00002(14)
U4 0.0166(2) 0.02278(19) 0.0288(2) 0.00033(15) -0.00123(17) 0.00015(14)
U5 0.0170(2) 0.02389(19) 0.0242(2) -0.00064(14) -0.00130(16) -0.00034(14)
U6 0.0171(2) 0.02431(19) 0.0244(2) 0.00013(14) -0.00099(16) 0.00049(14)
P1 0.0175(14) 0.0237(12) 0.0285(14) 0.000(1) -0.0016(11) 0.000(1)
P2 0.0164(14) 0.0264(13) 0.0277(14) 0.000(1) -0.0032(11) -0.001(1)
P3 0.0164(13) 0.0256(13) 0.0288(14) -0.001(1) -0.0005(11) 0.001(1)
P4 0.0200(14) 0.0265(13) 0.0255(14) 0.000(1) -0.0010(11) 0.000(1)
P5 0.0160(14) 0.0259(13) 0.0272(14) -0.001(1) 0.0006(11) -0.001(1)
P6 0.0168(14) 0.0268(13) 0.0258(14) -0.001(1) -0.0003(11) 0.000(1)
O1 0.018(4) 0.035(4) 0.024(4) -0.003(3) 0.001(3) -0.002(3)
F1 0.021(4) 0.034(4) 0.064(5) 0.000(3) 0.001(4) 0.001(3)
O2 0.018(4) 0.032(4) 0.039(5) -0.005(3) -0.003(4) 0.003(3)
O3 0.020(4) 0.025(4) 0.023(4) 0.001(3) -0.001(3) -0.002(3)
O4 0.018(4) 0.037(4) 0.035(5) 0.002(3) 0.001(3) -0.003(3)
O5 0.017(4) 0.029(4) 0.025(4) -0.001(3) -0.004(3) 0.000(3)
O6 0.029(5) 0.031(4) 0.030(4) 0.002(3) -0.001(4) -0.002(3)
O7 0.020(4) 0.029(4) 0.033(4) 0.000(3) -0.003(3) -0.006(3)
O8 0.023 0.041 0.03 0.001 -0.002 0.001
O9 0.029(5) 0.030(4) 0.034(5) 0.005(3) 0.002(4) 0.000(3)
O10 0.026(4) 0.026(4) 0.026(4) 0.000(3) -0.004(3) -0.003(3)
O11 0.019(4) 0.032(4) 0.031(4) 0.003(3) 0.001(3) 0.003(3)
O12 0.021(4) 0.043(5) 0.034(5) 0.005(4) 0.002(4) 0.006(3)
O13 0.028(5) 0.035(4) 0.035(5) 0.004(3) 0.002(4) 0.003(3)
O14 0.025(5) 0.032(4) 0.034(5) 0.007(3) -0.007(4) -0.003(3)
O15 0.020(4) 0.040(4) 0.027(4) -0.004(3) -0.005(3) -0.003(3)
O16 0.016(4) 0.033(4) 0.037(5) -0.002(3) 0.000(3) 0.004(3)
O17 0.023(4) 0.035(4) 0.030(4) -0.007(3) 0.000(3) 0.007(3)
O18 0.033(5) 0.027(4) 0.030(4) 0.004(3) 0.002(4) -0.001(3)
O19 0.035(5) 0.027(4) 0.029(4) 0.002(3) -0.005(4) -0.004(3)
O20 0.016(4) 0.035(4) 0.031(4) -0.001(3) -0.002(3) -0.005(3)
O21 0.033(5) 0.030(4) 0.034(5) -0.006(3) -0.002(4) 0.006(3)
O22 0.026(5) 0.030(4) 0.027(4) -0.001(3) 0.000(3) 0.000(3)
O23 0.026 0.028 0.047 -0.002 0.004 0
O24 0.026 0.05 0.028 -0.01 -0.001 0.002
O25 0.036(5) 0.038(5) 0.030(4) 0.000(3) 0.001(4) -0.009(4)
O26 0.015 0.027 0.037 0.001 -0.008 -0.001
O27 0.028(5) 0.024(4) 0.035(4) -0.003(3) 0.002(4) 0.000(3)
O28 0.017(4) 0.029(4) 0.047(5) -0.001(3) -0.003(4) 0.000(3)
O29 0.042(6) 0.031(4) 0.028(4) 0.004(3) -0.004(4) 0.008(4)
F2 0.023(4) 0.029(4) 0.089(7) -0.003(4) 0.000(4) -0.001(3)
O30 0.022(4) 0.032(4) 0.052(6) -0.001(4) -0.005(4) 0.002(3)
O31 0.030(5) 0.031(4) 0.030(4) -0.001(3) 0.000(4) 0.003(3)
O32 0.026(5) 0.030(4) 0.042(5) -0.003(3) -0.002(4) 0.003(3)
O33 0.026(5) 0.030(4) 0.036(5) -0.011(3) 0.002(4) -0.001(3)
O34 0.026(5) 0.031(4) 0.036(5) -0.002(3) -0.003(4) 0.002(3)
O35 0.019(5) 0.034(4) 0.045(5) -0.008(4) -0.004(4) 0.000(3)
O36 0.043(6) 0.031(4) 0.022(4) 0.001(3) -0.003(4) -0.001(4)
O37 0.021(5) 0.030(4) 0.067(7) -0.004(4) 0.001(4) 0.002(3)
O38 0.014(4) 0.033(4) 0.074(7) 0.006(4) 0.003(4) 0.008(3)
O27C 0.028 0.024 0.035 0.003 0.002 0
O23C 0.026 0.028 0.047 0.002 0.004 0
O1B 0.018 0.035 0.024 -0.003 0.001 -0.002
O5B 0.017 0.029 0.025 -0.001 -0.004 0
O24B 0.026 0.05 0.028 -0.01 -0.001 0.002
O8B 0.023 0.041 0.03 0.001 -0.002 0.001
O26B 0.015 0.027 0.037 0.001 -0.008 -0.001
U5B 0.017 0.02389 0.0242 -0.00064 -0.0013 -0.00034
U6B 0.0171 0.02431 0.0244 0.00013 -0.00099 0.00049
U4C 0.0166 0.02278 0.0288 -0.00033 -0.00123 -0.00015
U3C 0.0174 0.02269 0.0289 -0.00038 -0.00139 2e-05
N1 0.032(6) 0.029(5) 0.037(6) -0.001(4) 0.002(5) 0.005(4)
N4 0.023(5) 0.023(4) 0.056(7) -0.001(4) 0.004(5) 0.011(4)
C2 0.035(8) 0.036(6) 0.045(8) 0.005(5) 0.001(6) 0.004(5)
C4 0.030(7) 0.028(6) 0.041(7) -0.001(5) 0.008(5) -0.003(5)
C7 0.048(9) 0.033(6) 0.028(6) -0.002(5) 0.023(6) 0.005(5)
C9 0.038(8) 0.035(6) 0.044(8) -0.001(5) 0.019(6) 0.008(5)
C10 0.028(8) 0.054(9) 0.069(11) -0.006(7) -0.016(7) -0.015(6)
C11 0.035(8) 0.045(7) 0.048(8) -0.009(6) -0.004(6) -0.018(6)
O39 0.029(5) 0.034(4) 0.035(5) 0.004(3) -0.002(4) 0.007(3)
O40 0.062(7) 0.037(5) 0.044(6) -0.008(4) 0.018(5) 0.001(5)
N2 0.022(5) 0.022(4) 0.053(7) 0.007(4) -0.002(5) -0.007(4)
N3 0.044(7) 0.026(5) 0.037(6) 0.004(4) 0.012(5) -0.009(4)
C1 0.025(7) 0.029(6) 0.049(8) 0.013(5) 0.005(6) 0.000(5)
C3 0.023(6) 0.038(6) 0.038(7) -0.001(5) 0.004(5) 0.001(5)
C5 0.033(8) 0.044(7) 0.047(8) 0.015(6) -0.010(6) 0.007(5)
C6 0.027(7) 0.035(6) 0.046(8) 0.006(5) 0.011(6) 0.011(5)
C8 0.050(9) 0.032(6) 0.041(7) -0.009(5) 0.012(6) -0.008(6)
C12 0.010(6) 0.063(9) 0.06(1) 0.009(7) -0.008(6) 0.009(5)
O41 0.057(8) 0.054(6) 0.052(6) 0.002(5) 0.011(6) 0.009(5)
O42 0.031(6) 0.039(5) 0.139(12) 0.030(6) -0.020(7) -0.013(4)
loop_
_geom_bond_atom_site_label_1
_geom_bond_atom_site_label_2
_geom_bond_site_symmetry_1
_geom_bond_site_symmetry_2
U1 O3 1_555 1_555
U2 O5 1_555 1_555
U3 O22 1_555 1_555
U4 F1 1_555 1_555
U5 O1 1_555 1_555
U6 O3 1_555 1_555
P1 O7 1_555 1_555
P2 O25 1_555 1_555
P3 O2 1_555 1_555
P4 O3 1_555 1_555
P5 O1 1_555 1_555
P6 O10 1_555 1_555
O1 U5B 1_555 1_555
O2 H35 1_555 1_555
O4 U4 1_555 1_555
O5 P5 1_555 1_555
O6 U6 1_555 1_555
O7 U1 1_555 1_555
O8 U6 1_555 1_555
O9 U2 1_555 1_555
O10 U5 1_555 1_555
O11 U1 1_555 1_555
O12 U6 1_555 1_555
O13 U4 1_555 1_555
O14 U1 1_555 1_555
O15 U1 1_555 1_555
O16 P1 1_555 1_555
O17 U2 1_555 1_555
O18 U6 1_555 1_555
O19 U5 1_555 1_555
O20 U1 1_555 1_555
O21 U2 1_555 1_555
O22 P6 1_555 1_555
O23 P3 1_555 1_555
O24 P3 1_555 1_555
O25 U2 1_555 1_555
O26 P2 1_555 1_555
O27 P1 1_555 1_555
O28 P2 1_555 1_555
O29 U3 1_555 1_555
F2 U3 1_555 1_555
O30 U4 1_555 1_555
O31 U5 1_555 1_555
O32 U3 1_555 1_555
O33 U1 1_555 1_555
O34 U4 1_555 1_555
O35 P6 1_555 1_555
O36 U3 1_555 1_555
O37 U3 1_555 1_555
O38 U4 1_555 1_555
N1 C4 1_555 1_555
O39 H38 1_555 1_555
O40 H40 1_555 1_555
N2 C3 1_555 1_555
N3 C1 1_555 1_555
N4 C2 1_555 1_555
C1 C6 1_555 1_555
C2 C4 1_555 1_555
C3 C8 1_555 1_555
C4 H7 1_555 1_555
C5 N3 1_555 1_555
C6 N2 1_555 1_555
C7 N4 1_555 1_555
C8 N3 1_555 1_555
C9 N1 1_555 1_555
C10 N4 1_555 1_555
C11 N1 1_555 1_555
C12 N2 1_555 1_555
O41 H37 1_555 1_555
O42 H43 1_555 1_555
H1 C1 1_555 1_555
H2 C1 1_555 1_555
H3 C2 1_555 1_555
H4 C2 1_555 1_555
H5 C3 1_555 1_555
H6 C3 1_555 1_555
H8 C4 1_555 1_555
H9 C5 1_555 1_555
H10 C5 1_555 1_555
H11 C6 1_555 1_555
H12 C6 1_555 1_555
H13 C7 1_555 1_555
H14 C7 1_555 1_555
H15 C8 1_555 1_555
H16 C8 1_555 1_555
H17 C9 1_555 1_555
H18 C9 1_555 1_555
H19 C10 1_555 1_555
H20 C10 1_555 1_555
H21 C11 1_555 1_555
H22 C11 1_555 1_555
H23 C12 1_555 1_555
H24 C12 1_555 1_555
H25 O16 1_555 1_555
H26 O35 1_555 1_555
H27 O37 1_555 1_555
H28 N4 1_555 1_555
H29 N1 1_555 1_555
H30 N3 1_555 1_555
H31 N2 1_555 1_555
H32 O37 1_555 1_555
H33 O38 1_555 1_555
H34 O38 1_555 1_555
H36 O28 1_555 1_555
H39 O39 1_555 1_555
H41 O40 1_555 1_555
H42 O41 1_555 1_555
H44 O42 1_555 1_555
O27C U3 1_555 1_555
O23C U4 1_555 1_555
O1B U5 1_555 1_555
O5B U5 1_555 1_555
O24B U5 1_555 1_555
O8B U6 1_555 1_555
O26B U6 1_555 1_555
U5B O5 1_555 1_555
U6B O8 1_555 1_555
U4C O23 1_555 1_555
U3C O27 1_555 1_555
U2 O14 1_555 1_555
U2 O15 1_555 1_555
P1 O12 1_555 1_555
P2 O34 1_555 1_555
P3 O9 1_555 1_555
P4 O8 1_555 1_555
P4 O14 1_555 1_555
P4 O30 1_555 1_555
P5 O15 1_555 1_555
P5 O32 1_555 1_555
P6 O20 1_555 1_555
O24 U5B 1_555 1_555
O26 U6B 1_555 1_555
C5 C12 1_555 1_555
C7 C9 1_555 1_555
C10 C11 1_555 1_555
O1B U5B 1_555 1_555
O8B U6B 1_555 1_555

#END
