
#######################################################################
#
#                 Cambridge Crystallographic Data Centre
#                                CCDC 
#
#######################################################################
#
# If this CIF has been generated from an entry in the Cambridge 
# Structural Database, then it will include bibliographic, chemical, 
# crystal, experimental, refinement or atomic coordinate data resulting 
# from the CCDC's data processing and validation procedures.
#
#######################################################################

data_ICAGAU
_chemical_formula_moiety         '(O20 P5 Zn5 5-)n'
_symmetry_cell_setting           tetragonal
_symmetry_space_group_name_H-M   'P -4 21 c'
_symmetry_Int_Tables_number      114
_space_group_name_Hall           'P -4 2n'
loop_
_symmetry_equiv_pos_site_id
_symmetry_equiv_pos_as_xyz
1 x,y,z
2 y,-x,-z
3 -x,-y,z
4 -y,x,-z
5 1/2-x,1/2+y,1/2-z
6 1/2-y,1/2-x,1/2+z
7 1/2+x,1/2-y,1/2-z
8 1/2+y,1/2+x,1/2+z
_cell_length_a                   9.9015(12)
_cell_length_b                   9.9015(12)
_cell_length_c                   13.4199(16)
_cell_angle_alpha                90
_cell_angle_beta                 90
_cell_angle_gamma                90
_cell_volume                     1315.68
loop_
_atom_site_label
_atom_site_type_symbol
_atom_site_fract_x
_atom_site_fract_y
_atom_site_fract_z
Zn1 Zn 0.0000 0.0000 0.0000
Zn2 Zn 0.14685(11) -0.10025(12) 0.30322(10)
P1 P 0.0000 0.0000 0.5000
P2 P 0.1161(2) 0.1729(3) 0.1840(2)
O1 O 0.1232(10) 0.1110(11) 0.0782(7)
O2 O 0.1867(9) 0.0844(8) 0.2593(6)
O3 O -0.0323(9) 0.1932(11) 0.2101(8)
O4 O 0.1815(8) 0.3100(9) 0.1840(9)
O5 O 0.0723(13) -0.1044(10) 0.4383(7)
O5A O -0.1044(10) -0.0723(13) 0.5617(7)
O5B O -0.0723(13) 0.1044(10) 0.4383(7)
O5C O 0.1044(10) 0.0723(13) 0.5617(7)
P2A P 0.1729(3) -0.1161(2) -0.1840(2)
O1A O 0.1110(11) -0.1232(10) -0.0782(7)
O2A O 0.0844(8) -0.1867(9) -0.2593(6)
O3A O 0.1932(11) 0.0323(9) -0.2101(8)
O4A O 0.3100(9) -0.1815(8) -0.1840(9)
P2B P -0.1161(2) -0.1729(3) 0.1840(2)
O1B O -0.1232(10) -0.1110(11) 0.0782(7)
O2B O -0.1867(9) -0.0844(8) 0.2593(6)
O3B O 0.0323(9) -0.1932(11) 0.2101(8)
O4B O -0.1815(8) -0.3100(9) 0.1840(9)
P2C P -0.1729(3) 0.1161(2) -0.1840(2)
O1C O -0.1110(11) 0.1232(10) -0.0782(7)
O2C O -0.0844(8) 0.1867(9) -0.2593(6)
O3C O -0.1932(11) -0.0323(9) -0.2101(8)
O4C O -0.3100(9) 0.1815(8) -0.1840(9)
Zn2A Zn -0.10025(12) -0.14685(11) -0.30322(10)
Zn2B Zn -0.14685(11) 0.10025(12) 0.30322(10)
Zn2C Zn 0.10025(12) 0.14685(11) -0.30322(10)
O4D O 0.3185(8) -0.1900(9) 0.3160(9)
Zn2D Zn 0.35315(11) 0.39975(12) 0.19678(10)
Zn2A_2 Zn -0.10025(12) -0.14685(11) 0.69678(10)
Zn2C_2 Zn 0.10025(12) 0.14685(11) 0.69678(10)
Zn2G Zn 0.39975(12) -0.35315(11) -0.19678(10)
Zn2F Zn -0.35315(11) -0.39975(12) 0.19678(10)
Zn2E Zn -0.39975(12) 0.35315(11) -0.19678(10)
O4G O -0.1900(9) -0.3185(8) -0.3160(9)
O5A_2 O -0.1044(10) -0.0723(13) -0.4383(7)
O4F O -0.3185(8) 0.1900(9) 0.3160(9)
O4E O 0.1900(9) 0.3185(8) -0.3160(9)
O5C_2 O 0.1044(10) 0.0723(13) -0.4383(7)
loop_
_geom_bond_atom_site_label_1
_geom_bond_atom_site_label_2
_geom_bond_site_symmetry_1
_geom_bond_site_symmetry_2
Zn1 O1 1_555 1_555
Zn2 O2 1_555 1_555
P1 O5 1_555 1_555
P2 O1 1_555 1_555
O2 P2 1_555 1_555
O3 P2 1_555 1_555
O4 P2 1_555 1_555
O5 Zn2 1_555 1_555
O5A P1 1_555 1_555
O5B P1 1_555 1_555
O5C P1 1_555 1_555
P2A O1A 1_555 1_555
O1A Zn1 1_555 1_555
O2A P2A 1_555 1_555
O3A P2A 1_555 1_555
O4A P2A 1_555 1_555
P2B O1B 1_555 1_555
O1B Zn1 1_555 1_555
O2B P2B 1_555 1_555
O3B Zn2 1_555 1_555
O4B P2B 1_555 1_555
P2C O1C 1_555 1_555
O1C Zn1 1_555 1_555
O2C P2C 1_555 1_555
O3C P2C 1_555 1_555
O4C P2C 1_555 1_555
Zn2A O2A 1_555 1_555
Zn2B O3 1_555 1_555
Zn2C O3A 1_555 1_555
O4D Zn2 1_555 1_555
Zn2D O4 1_555 1_555
Zn2A_2 O5A 1_555 1_555
Zn2C_2 O5C 1_555 1_555
Zn2G O4A 1_555 1_555
Zn2F O4B 1_555 1_555
Zn2E O4C 1_555 1_555
O4G Zn2A 1_555 1_555
O5A_2 Zn2A 1_555 1_555
O4F Zn2B 1_555 1_555
O4E Zn2C 1_555 1_555
O5C_2 Zn2C 1_555 1_555
O5B Zn2B 1_555 1_555
P2B O3B 1_555 1_555
O2B Zn2B 1_555 1_555
O2C Zn2C 1_555 1_555
O3C Zn2A 1_555 1_555

#END
