
#######################################################################
#
#                 Cambridge Crystallographic Data Centre
#                                CCDC 
#
#######################################################################
#
# If this CIF has been generated from an entry in the Cambridge 
# Structural Database, then it will include bibliographic, chemical, 
# crystal, experimental, refinement or atomic coordinate data resulting 
# from the CCDC's data processing and validation procedures.
#
#######################################################################

data_RESQAJ
_chemical_formula_moiety         '(C84 H72 Cd4 N18 O25)n'
_symmetry_cell_setting           triclinic
_symmetry_space_group_name_H-M   'P -1'
_symmetry_Int_Tables_number      2
_space_group_name_Hall           '-P 1'
loop_
_symmetry_equiv_pos_site_id
_symmetry_equiv_pos_as_xyz
1 x,y,z
2 -x,-y,-z
_cell_length_a                   12.1380(7)
_cell_length_b                   13.1460(7)
_cell_length_c                   14.3210(8)
_cell_angle_alpha                91.158(5)
_cell_angle_beta                 98.911(5)
_cell_angle_gamma                90.567(4)
_cell_volume                     2256.91
loop_
_atom_site_label
_atom_site_type_symbol
_atom_site_fract_x
_atom_site_fract_y
_atom_site_fract_z
Cd1 Cd 0.69840(4) -0.07406(4) 0.67492(3)
Cd2 Cd 0.56400(4) 0.22558(4) 0.71864(4)
C1 C 0.5888(5) 0.5269(5) 0.0706(5)
C2 C 0.5189(5) 0.4463(5) 0.0834(5)
C3 C 0.4289(5) 0.4179(5) 0.0132(5)
C4 C 0.6828(5) 0.5597(5) 0.1495(5)
H1 H 0.7106 0.6267 0.1372
H2 H 0.6555 0.5624 0.2096
C5 C 0.8733(6) 0.5141(5) 0.2003(5)
C6 C 0.9001(6) 0.6076(6) 0.2433(6)
H3 H 0.8456 0.6564 0.2455
C7 C 1.0099(7) 0.6280(6) 0.2835(6)
H4 H 1.0285 0.6923 0.3099
C8 C 1.0909(6) 0.5572(6) 0.2854(6)
H5 H 1.1642 0.5726 0.3121
C9 C 1.0619(6) 0.4625(5) 0.2471(5)
C10 C 0.9549(5) 0.4394(5) 0.2033(5)
H6 H 0.9373 0.3753 0.1762
C11 C 1.2533(6) 0.3924(6) 0.2470(6)
H7 H 1.2867 0.4524 0.2316
C12 C 1.1335(6) 0.2861(6) 0.2794(5)
H8 H 1.0672 0.2565 0.2912
C13 C 0.5464(5) 0.3827(6) 0.1714(5)
H9 H 0.5880 0.4224 0.2232
H10 H 0.4791 0.3558 0.1911
C14 C 0.6759(6) 0.2504(5) 0.2100(5)
C15 C 0.7726(7) 0.2089(6) 0.1867(6)
H11 H 0.7905 0.2182 0.1266
C16 C 0.8426(7) 0.1543(6) 0.2513(6)
H12 H 0.9083 0.1282 0.2352
C17 C 0.8159(7) 0.1381(6) 0.3393(6)
H13 H 0.8633 0.1021 0.3838
C18 C 0.7178(6) 0.1761(5) 0.3604(5)
C19 C 0.6476(6) 0.2321(5) 0.2974(5)
H14 H 0.5817 0.2573 0.3136
C20 C 0.6670(7) 0.0590(6) 0.4838(6)
H15 H 0.6706 -0.0015 0.4497
C21 C 0.6719(6) 0.2151(6) 0.5220(6)
H16 H 0.6783 0.2856 0.5203
C22 C 0.3530(5) 0.3278(5) 0.0262(6)
H17 H 0.3566 0.2762 -0.0225
H18 H 0.3760 0.2978 0.0874
C23 C 0.1571(6) 0.2957(5) 0.0207(5)
C24 C 0.1730(6) 0.1988(6) 0.0554(5)
H19 H 0.2444 0.1777 0.0797
C25 C 0.0832(6) 0.1332(6) 0.0540(6)
H20 H 0.0939 0.0689 0.0793
C26 C -0.0222(6) 0.1630(6) 0.0150(5)
H21 H -0.0829 0.1189 0.0133
C27 C -0.0363(5) 0.2585(5) -0.0212(5)
C28 C 0.0515(5) 0.3255(5) -0.0185(5)
H22 H 0.0401 0.3903 -0.0428
C29 C -0.2092(6) 0.2329(6) -0.1395(5)
H23 H -0.1917 0.1688 -0.1612
C30 C -0.2013(7) 0.3756(6) -0.0635(6)
H24 H -0.1770 0.4291 -0.0216
C31 C 0.9024(6) 0.0161(5) 0.6895(6)
C32 C 1.0121(5) 0.0722(5) 0.6932(6)
C33 C 1.0531(6) 0.0958(5) 0.6110(5)
H25 H 1.0081 0.0857 0.5527
C34 C 1.1592(5) 0.1339(5) 0.6148(5)
H26 H 1.1859 0.1488 0.5591
C35 C 1.2266(5) 0.1503(5) 0.7001(5)
C36 C 1.1846(6) 0.1300(6) 0.7844(5)
H27 H 1.2293 0.1418 0.8425
C37 C 1.0778(6) 0.0931(6) 0.7808(6)
H28 H 1.0493 0.0819 0.8364
C38 C 1.3464(6) 0.1818(5) 0.7056(5)
C39 C 0.5833(5) -0.0111(6) 0.8214(5)
C40 C 0.5387(5) -0.0038(5) 0.9137(5)
C41 C 0.4994(6) -0.0905(5) 0.9526(5)
H29 H 0.4992 -0.1525 0.9201
C42 C 0.4607(6) -0.0867(6) 1.0380(5)
H30 H 0.4344 -0.1455 1.0625
N1 N 1.1444(5) 0.3837(4) 0.2549(4)
N2 N 1.2273(5) 0.2389(5) 0.2842(4)
N3 N 1.3064(5) 0.3081(5) 0.2633(5)
N4 N 0.6870(5) 0.1509(5) 0.4498(4)
N5 N 0.6430(6) 0.0627(5) 0.5666(4)
N6 N 0.6473(5) 0.1656(5) 0.5936(4)
N7 N -0.1449(4) 0.2880(4) -0.0694(4)
N8 N -0.2981(5) 0.2827(5) -0.1716(5)
N9 N -0.2933(5) 0.3759(5) -0.1231(5)
O1 O 0.7708(4) 0.4862(3) 0.1523(4)
O2 O 0.6128(4) 0.3026(4) 0.1413(3)
O3 O 0.5595(10) 0.4022(9) 0.6548(8)
O4 O 0.2405(4) 0.3662(4) 0.0198(4)
O5 O 0.5978(5) -0.1719(4) 0.5553(4)
O6 O 0.8664(4) -0.0355(5) 0.6164(4)
O7 O 0.8521(4) 0.0214(4) 0.7588(4)
O8 O 1.3952(4) 0.1602(4) 0.6363(4)
O9 O 1.3961(4) 0.2242(4) 0.7787(4)
O10 O 0.5990(4) -0.0985(4) 0.7898(4)
O11 O 0.6088(4) 0.0675(4) 0.7817(4)
C1A C 0.4112(5) 0.4731(5) -0.0706(5)
C2A C 0.4811(5) 0.5537(5) -0.0834(5)
C3A C 0.5711(5) 0.5821(5) -0.0132(5)
C4A C 0.3172(5) 0.4403(5) -0.1495(5)
H1A H 0.2894 0.3733 -0.1372
H2A H 0.3445 0.4376 -0.2096
C5A C 0.1267(6) 0.4859(5) -0.2003(5)
C6A C 0.0999(6) 0.3924(6) -0.2433(6)
H3A H 0.1544 0.3436 -0.2455
C7A C -0.0099(7) 0.3720(6) -0.2835(6)
H4A H -0.0285 0.3077 -0.3099
C8A C -0.0909(6) 0.4428(6) -0.2854(6)
H5A H -0.1642 0.4274 -0.3121
C9A C -0.0619(6) 0.5375(5) -0.2471(5)
C10A C 0.0451(5) 0.5606(5) -0.2033(5)
H6A H 0.0627 0.6247 -0.1762
C11A C -0.2533(6) 0.6076(6) -0.2470(6)
H7A H -0.2867 0.5476 -0.2316
C12A C -0.1335(6) 0.7139(6) -0.2794(5)
H8A H -0.0672 0.7435 -0.2912
C13A C 0.4536(5) 0.6173(6) -0.1714(5)
H9A H 0.4120 0.5776 -0.2232
H10A H 0.5209 0.6442 -0.1911
C14A C 0.3241(6) 0.7496(5) -0.2100(5)
C15A C 0.2274(7) 0.7911(6) -0.1867(6)
H11A H 0.2095 0.7818 -0.1266
C16A C 0.1574(7) 0.8457(6) -0.2513(6)
H12A H 0.0917 0.8718 -0.2352
C17A C 0.1841(7) 0.8619(6) -0.3393(6)
H13A H 0.1367 0.8979 -0.3838
C18A C 0.2822(6) 0.8239(5) -0.3604(5)
C19A C 0.3524(6) 0.7679(5) -0.2974(5)
H14A H 0.4183 0.7427 -0.3136
C20A C 0.3330(7) 0.9410(6) -0.4838(6)
H15A H 0.3294 1.0015 -0.4497
C21A C 0.3281(6) 0.7849(6) -0.5220(6)
H16A H 0.3217 0.7144 -0.5203
C22A C 0.6470(5) 0.6722(5) -0.0262(6)
H17A H 0.6434 0.7238 0.0225
H18A H 0.6240 0.7022 -0.0874
C23A C 0.8429(6) 0.7043(5) -0.0207(5)
C24A C 0.8270(6) 0.8012(6) -0.0554(5)
H19A H 0.7556 0.8223 -0.0797
C25A C 0.9168(6) 0.8668(6) -0.0540(6)
H20A H 0.9061 0.9311 -0.0793
C26A C 1.0222(6) 0.8370(6) -0.0150(5)
H21A H 1.0829 0.8811 -0.0133
C27A C 1.0363(5) 0.7415(5) 0.0212(5)
C28A C 0.9485(5) 0.6745(5) 0.0185(5)
H22A H 0.9599 0.6097 0.0428
C29A C 1.2092(6) 0.7671(6) 0.1395(5)
H23A H 1.1917 0.8312 0.1612
C30A C 1.2013(7) 0.6244(6) 0.0635(6)
H24A H 1.1770 0.5709 0.0216
N1A N -0.1444(5) 0.6163(4) -0.2549(4)
N2A N -0.2273(5) 0.7611(5) -0.2842(4)
N3A N -0.3064(5) 0.6919(5) -0.2633(5)
N4A N 0.3130(5) 0.8491(5) -0.4498(4)
N5A N 0.3570(6) 0.9373(5) -0.5666(4)
N6A N 0.3527(5) 0.8344(5) -0.5936(4)
N7A N 1.1449(4) 0.7120(4) 0.0694(4)
N8A N 1.2981(5) 0.7173(5) 0.1716(5)
N9A N 1.2933(5) 0.6241(5) 0.1231(5)
O1A O 0.2292(4) 0.5138(3) -0.1523(4)
O2A O 0.3872(4) 0.6974(4) -0.1413(3)
O4A O 0.7595(4) 0.6338(4) -0.0198(4)
C39A C 0.4167(5) 0.0111(6) 1.1786(5)
C40A C 0.4613(5) 0.0038(5) 1.0863(5)
C41A C 0.5006(6) 0.0905(5) 1.0474(5)
H29A H 0.5008 0.1525 1.0799
C42A C 0.5393(6) 0.0867(6) 0.9620(5)
H30A H 0.5656 0.1455 0.9375
O10A O 0.4010(4) 0.0985(4) 1.2102(4)
O11A O 0.3912(4) -0.0675(4) 1.2183(4)
Cd1A Cd 0.30160(4) 0.07406(4) 1.32508(3)
Cd2A Cd 0.43600(4) -0.22558(4) 1.28136(4)
C31A C 0.0976(6) -0.0161(5) 1.3105(6)
C32A C -0.0121(5) -0.0722(5) 1.3068(6)
C33A C -0.0531(6) -0.0958(5) 1.3890(5)
H25A H -0.0081 -0.0857 1.4473
C34A C -0.1592(5) -0.1339(5) 1.3852(5)
H26A H -0.1859 -0.1488 1.4409
C35A C -0.2266(5) -0.1503(5) 1.2999(5)
C36A C -0.1846(6) -0.1300(6) 1.2156(5)
H27A H -0.2293 -0.1418 1.1575
C37A C -0.0778(6) -0.0931(6) 1.2192(6)
H28A H -0.0493 -0.0819 1.1636
C38A C -0.3464(6) -0.1818(5) 1.2944(5)
O3A O 0.4405(10) -0.4022(9) 1.3452(8)
O5A O 0.4022(5) 0.1719(4) 1.4447(4)
O6A O 0.1336(4) 0.0355(5) 1.3836(4)
O7A O 0.1479(4) -0.0214(4) 1.2412(4)
O8A O -0.3952(4) -0.1602(4) 1.3637(4)
O9A O -0.3961(4) -0.2242(4) 1.2213(4)
Cd1_2 Cd -0.30160(4) 0.92594(4) -0.32508(3)
Cd1A_2 Cd 0.30160(4) 1.07406(4) -0.67492(3)
Cd1A_3 Cd 1.30160(4) 0.07406(4) 0.32508(3)
Cd2_2 Cd -0.43600(4) 0.22558(4) -0.28136(4)
Cd2_3 Cd 1.56400(4) 0.22558(4) 0.71864(4)
Cd2A_2 Cd -0.56400(4) -0.22558(4) 1.28136(4)
Cd2A_3 Cd 0.43600(4) 0.77442(4) -0.71864(4)
Cd2A_4 Cd 1.43600(4) 0.77442(4) 0.28136(4)
N2_2 N 0.2273(5) 0.2389(5) 1.2842(4)
N2A_2 N 0.7727(5) -0.2389(5) 0.7158(4)
N5A_2 N 0.3570(6) -0.0627(5) 1.4334(4)
N6A_2 N 0.3527(5) -0.1656(5) 1.4064(4)
N8_2 N 0.7019(5) 0.2827(5) 0.8284(5)
N8A_2 N 0.2981(5) -0.2827(5) 1.1716(5)
O8_2 O 0.3952(4) 0.1602(4) 0.6363(4)
O8A_2 O 0.6048(4) -0.1602(4) 1.3637(4)
O9_2 O 0.3961(4) 0.2242(4) 0.7787(4)
O9A_2 O 0.6039(4) -0.2242(4) 1.2213(4)
O12 O 1.021(2) 0.4039(17) 0.4777(16)
O13 O 1.290(3) 0.553(3) 0.511(2)
O14 O 0.526(2) 0.611(2) 0.575(2)
loop_
_geom_bond_atom_site_label_1
_geom_bond_atom_site_label_2
_geom_bond_site_symmetry_1
_geom_bond_site_symmetry_2
Cd1 N5 1_555 1_555
Cd2 N6 1_555 1_555
C1 C2 1_555 1_555
C2 C3 1_555 1_555
C3 C22 1_555 1_555
C4 C1 1_555 1_555
H1 C4 1_555 1_555
H2 C4 1_555 1_555
C5 C6 1_555 1_555
C6 H3 1_555 1_555
C7 C6 1_555 1_555
H4 C7 1_555 1_555
C8 C7 1_555 1_555
H5 C8 1_555 1_555
C9 C8 1_555 1_555
C10 C5 1_555 1_555
H6 C10 1_555 1_555
C11 H7 1_555 1_555
C12 H8 1_555 1_555
C13 C2 1_555 1_555
H9 C13 1_555 1_555
H10 C13 1_555 1_555
C14 C15 1_555 1_555
C15 H11 1_555 1_555
C16 C15 1_555 1_555
H12 C16 1_555 1_555
C17 C16 1_555 1_555
H13 C17 1_555 1_555
C18 C17 1_555 1_555
C19 C14 1_555 1_555
H14 C19 1_555 1_555
C20 H15 1_555 1_555
C21 H16 1_555 1_555
C22 H17 1_555 1_555
H18 C22 1_555 1_555
C23 C24 1_555 1_555
C24 H19 1_555 1_555
C25 C24 1_555 1_555
H20 C25 1_555 1_555
C26 C25 1_555 1_555
H21 C26 1_555 1_555
C27 C26 1_555 1_555
C28 C23 1_555 1_555
H22 C28 1_555 1_555
C29 H23 1_555 1_555
C30 H24 1_555 1_555
C31 C32 1_555 1_555
C32 C33 1_555 1_555
C33 H25 1_555 1_555
C34 C33 1_555 1_555
H26 C34 1_555 1_555
C35 C34 1_555 1_555
C36 C35 1_555 1_555
H27 C36 1_555 1_555
C37 C32 1_555 1_555
H28 C37 1_555 1_555
C38 C35 1_555 1_555
C39 C40 1_555 1_555
C40 C41 1_555 1_555
C41 H29 1_555 1_555
C42 C41 1_555 1_555
H30 C42 1_555 1_555
N1 C9 1_555 1_555
N2 C12 1_555 1_555
N3 C11 1_555 1_555
N4 C18 1_555 1_555
N5 C20 1_555 1_555
N6 C21 1_555 1_555
N7 C27 1_555 1_555
N8 C29 1_555 1_555
N9 C30 1_555 1_555
O1 C4 1_555 1_555
O2 C13 1_555 1_555
O3 Cd2 1_555 1_555
O4 C22 1_555 1_555
O5 Cd1 1_555 1_555
O6 Cd1 1_555 1_555
O7 Cd1 1_555 1_555
O8 C38 1_555 1_555
O9 C38 1_555 1_555
O10 Cd1 1_555 1_555
O11 Cd1 1_555 1_555
C1A C3 1_555 1_555
C2A C1A 1_555 1_555
C3A C1 1_555 1_555
C4A C1A 1_555 1_555
H1A C4A 1_555 1_555
H2A C4A 1_555 1_555
C5A C6A 1_555 1_555
C6A H3A 1_555 1_555
C7A C6A 1_555 1_555
H4A C7A 1_555 1_555
C8A C7A 1_555 1_555
H5A C8A 1_555 1_555
C9A C8A 1_555 1_555
C10A C5A 1_555 1_555
H6A C10A 1_555 1_555
C11A H7A 1_555 1_555
C12A H8A 1_555 1_555
C13A C2A 1_555 1_555
H9A C13A 1_555 1_555
H10A C13A 1_555 1_555
C14A C15A 1_555 1_555
C15A H11A 1_555 1_555
C16A C15A 1_555 1_555
H12A C16A 1_555 1_555
C17A C16A 1_555 1_555
H13A C17A 1_555 1_555
C18A C17A 1_555 1_555
C19A C14A 1_555 1_555
H14A C19A 1_555 1_555
C20A H15A 1_555 1_555
C21A H16A 1_555 1_555
C22A C3A 1_555 1_555
H17A C22A 1_555 1_555
H18A C22A 1_555 1_555
C23A C24A 1_555 1_555
C24A H19A 1_555 1_555
C25A C24A 1_555 1_555
H20A C25A 1_555 1_555
C26A C25A 1_555 1_555
H21A C26A 1_555 1_555
C27A C26A 1_555 1_555
C28A C23A 1_555 1_555
H22A C28A 1_555 1_555
C29A H23A 1_555 1_555
C30A H24A 1_555 1_555
N1A C9A 1_555 1_555
N2A C12A 1_555 1_555
N3A C11A 1_555 1_555
N4A C18A 1_555 1_555
N5A C20A 1_555 1_555
N6A C21A 1_555 1_555
N7A C27A 1_555 1_555
N8A C29A 1_555 1_555
N9A C30A 1_555 1_555
O1A C4A 1_555 1_555
O2A C13A 1_555 1_555
O4A C22A 1_555 1_555
C39A C40A 1_555 1_555
C40A C42 1_555 1_555
C41A C40A 1_555 1_555
H29A C41A 1_555 1_555
C42A C40 1_555 1_555
H30A C42A 1_555 1_555
O10A C39A 1_555 1_555
O11A C39A 1_555 1_555
Cd1A O10A 1_555 1_555
Cd2A O11A 1_555 1_555
C31A C32A 1_555 1_555
C32A C33A 1_555 1_555
C33A H25A 1_555 1_555
C34A C33A 1_555 1_555
H26A C34A 1_555 1_555
C35A C34A 1_555 1_555
C36A C35A 1_555 1_555
H27A C36A 1_555 1_555
C37A C32A 1_555 1_555
H28A C37A 1_555 1_555
C38A C35A 1_555 1_555
O3A Cd2A 1_555 1_555
O5A Cd1A 1_555 1_555
O6A Cd1A 1_555 1_555
O7A Cd1A 1_555 1_555
O8A C38A 1_555 1_555
O9A C38A 1_555 1_555
Cd1_2 N2A 1_555 1_555
Cd1A_2 N5A 1_555 1_555
Cd1A_3 N2 1_555 1_555
Cd2_2 N8 1_555 1_555
Cd2_3 O8 1_555 1_555
Cd2A_2 O8A 1_555 1_555
Cd2A_3 N6A 1_555 1_555
Cd2A_4 N8A 1_555 1_555
N2_2 Cd1A 1_555 1_555
N2A_2 Cd1 1_555 1_555
N5A_2 Cd1A 1_555 1_555
N6A_2 Cd2A 1_555 1_555
N8_2 Cd2 1_555 1_555
N8A_2 Cd2A 1_555 1_555
O8_2 Cd2 1_555 1_555
O8A_2 Cd2A 1_555 1_555
O9_2 Cd2 1_555 1_555
O9A_2 Cd2A 1_555 1_555
Cd2 O11 1_555 1_555
C5 O1 1_555 1_555
C9 C10 1_555 1_555
C11 N1 1_555 1_555
C12 N1 1_555 1_555
C14 O2 1_555 1_555
C18 C19 1_555 1_555
C20 N4 1_555 1_555
C21 N4 1_555 1_555
C23 O4 1_555 1_555
C27 C28 1_555 1_555
C29 N7 1_555 1_555
C30 N7 1_555 1_555
C31 O6 1_555 1_555
C31 O7 1_555 1_555
C36 C37 1_555 1_555
C39 O10 1_555 1_555
C39 O11 1_555 1_555
N2 N3 1_555 1_555
N5 N6 1_555 1_555
N8 N9 1_555 1_555
O9 Cd2_3 1_555 1_555
C2A C3A 1_555 1_555
C5A O1A 1_555 1_555
C9A C10A 1_555 1_555
C11A N1A 1_555 1_555
C12A N1A 1_555 1_555
C14A O2A 1_555 1_555
C18A C19A 1_555 1_555
C20A N4A 1_555 1_555
C21A N4A 1_555 1_555
C23A O4A 1_555 1_555
C27A C28A 1_555 1_555
C29A N7A 1_555 1_555
C30A N7A 1_555 1_555
N2A N3A 1_555 1_555
N5A N6A 1_555 1_555
N8A N9A 1_555 1_555
C41A C42A 1_555 1_555
O11A Cd1A 1_555 1_555
C31A O6A 1_555 1_555
C31A O7A 1_555 1_555
C36A C37A 1_555 1_555
O9A Cd2A_2 1_555 1_555
N5A_2 N6A_2 1_555 1_555

#END
