
#######################################################################
#
#                 Cambridge Crystallographic Data Centre
#                                CCDC 
#
#######################################################################
#
# If this CIF has been generated from an entry in the Cambridge 
# Structural Database, then it will include bibliographic, chemical, 
# crystal, experimental, refinement or atomic coordinate data resulting 
# from the CCDC's data processing and validation procedures.
#
#######################################################################

data_RUYFUO
_chemical_formula_moiety         '(C6 H4 Li1 N1 O3)n'
_symmetry_cell_setting           tetragonal
_symmetry_space_group_name_H-M   'P 41 2 2'
_symmetry_Int_Tables_number      91
_space_group_name_Hall           'P 4w 2c'
loop_
_symmetry_equiv_pos_site_id
_symmetry_equiv_pos_as_xyz
1 x,y,z
2 x,-y,1/2-z
3 -x,-y,1/2+z
4 -x,y,-z
5 y,x,3/4-z
6 y,-x,3/4+z
7 -y,x,1/4+z
8 -y,-x,1/4-z
_cell_length_a                   9.0759(9)
_cell_length_b                   9.0759(9)
_cell_length_c                   12.1289(10)
_cell_angle_alpha                90
_cell_angle_beta                 90
_cell_angle_gamma                90
_cell_volume                     999.081
loop_
_atom_site_label
_atom_site_type_symbol
_atom_site_fract_x
_atom_site_fract_y
_atom_site_fract_z
O1 O -0.4369(3) 0.5000 -0.2500
N1 N -0.2912(3) 0.5000 -0.2500
C1 C 0.1788(5) 0.5000 -0.2500
C2 C 0.0110(5) 0.5000 -0.2500
Li1 Li 0.4365(5) 0.4365(5) -0.1250
C3 C -0.2178(6) 0.4998(7) -0.1544(4)
H1 H -0.2700 0.4986 -0.0865
C4 C -0.0667(7) 0.5013(8) -0.1550(4)
H2 H -0.0153 0.5034 -0.0867
O2 O 0.2408(2) 0.4783(4) -0.16136(19)
C3A C -0.2178(6) 0.5002(7) -0.3456(4)
H1A H -0.2700 0.5014 -0.4135
C4A C -0.0667(7) 0.4987(8) -0.3450(4)
H2A H -0.0153 0.4966 -0.4133
O2A O 0.2408(2) 0.5217(4) -0.33864(19)
O1_2 O 0.5631(3) 0.5000 -0.2500
O1D O 0.5000 0.5631(3) 0.0000
Li1_2 Li -0.5635(5) 0.4365(5) -0.1250
Li1A Li -0.5635(5) 0.5635(5) -0.3750
Li1A_2 Li 0.4365(5) 0.5635(5) -0.3750
O2D O 0.4783(4) 0.2408(2) -0.08864(19)
loop_
_geom_bond_atom_site_label_1
_geom_bond_atom_site_label_2
_geom_bond_site_symmetry_1
_geom_bond_site_symmetry_2
O1 N1 1_555 1_555
N1 C3 1_555 1_555
C1 C2 1_555 1_555
C2 C4 1_555 1_555
Li1 O2 1_555 1_555
C3 H1 1_555 1_555
C4 C3 1_555 1_555
H2 C4 1_555 1_555
O2 C1 1_555 1_555
C3A N1 1_555 1_555
H1A C3A 1_555 1_555
C4A C2 1_555 1_555
H2A C4A 1_555 1_555
O2A C1 1_555 1_555
O1_2 Li1 1_555 1_555
O1D Li1 1_555 1_555
Li1_2 O1 1_555 1_555
Li1A O1 1_555 1_555
Li1A_2 O2A 1_555 1_555
O2D Li1 1_555 1_555
C3A C4A 1_555 1_555
O1_2 Li1A_2 1_555 1_555

#END
