
#######################################################################
#
#                 Cambridge Crystallographic Data Centre
#                                CCDC 
#
#######################################################################
#
# If this CIF has been generated from an entry in the Cambridge 
# Structural Database, then it will include bibliographic, chemical, 
# crystal, experimental, refinement or atomic coordinate data resulting 
# from the CCDC's data processing and validation procedures.
#
#######################################################################

data_RUYGOJ
_chemical_formula_moiety         '(C13 H6 O3 Zn1)n'
_symmetry_cell_setting           tetragonal
_symmetry_space_group_name_H-M   'P 41 2 2'
_symmetry_Int_Tables_number      91
_space_group_name_Hall           'P 4w 2c'
loop_
_symmetry_equiv_pos_site_id
_symmetry_equiv_pos_as_xyz
1 x,y,z
2 -x,-y,1/2+z
3 -y,x,1/4+z
4 y,-x,3/4+z
5 -x,y,-z
6 x,-y,1/2-z
7 y,x,3/4-z
8 -y,-x,1/4-z
_cell_length_a                   13.4564(10)
_cell_length_b                   13.4564(10)
_cell_length_c                   12.5121(14)
_cell_angle_alpha                90
_cell_angle_beta                 90
_cell_angle_gamma                90
_cell_volume                     2265.62
loop_
_atom_site_label
_atom_site_type_symbol
_atom_site_fract_x
_atom_site_fract_y
_atom_site_fract_z
_atom_site_U_iso_or_equiv
_atom_site_thermal_displace_type
C1 C 0.0000 -0.7880(8) 1.0000 0.0630 Uiso
C2 C 0.0000 -0.4701(7) 1.0000 0.0680 Uiso
C3 C 0.0000 -0.6774(8) 1.0000 0.0610 Uiso
C4 C 0.0000 -0.3591(8) 1.0000 0.0730 Uiso
C5 C 0.0369(19) -0.5230(9) 1.0870(14) 0.0830 Uiso
H1 H 0.0733 -0.4899 1.1415 0.0990 Uiso
C6 C 0.0199(17) -0.6255(8) 1.0936(10) 0.0490 Uiso
H2 H 0.0219 -0.6588 1.1605 0.0580 Uiso
O1 O -0.0182(19) -0.8335(15) 1.0862(15) 0.0570 Uiso
Zn1 Zn -0.02588(19) -0.97412(19) 1.1250 0.0472 Uiso
C7 C 0.0000 -0.1519(6) 1.0000 0.0490 Uiso
O2 O 0.0000 -0.0510(6) 1.0000 0.0610 Uiso
C8 C 0.029(2) -0.2039(8) 1.0898(13) 0.0630 Uiso
H3 H 0.0483 -0.1686 1.1523 0.0750 Uiso
C9 C 0.031(2) -0.3068(8) 1.0899(13) 0.0730 Uiso
C5D C -0.0369(19) -0.5230(9) 0.9130(14) 0.0830 Uiso
H1D H -0.0733 -0.4899 0.8585 0.0990 Uiso
C6D C -0.0199(17) -0.6255(8) 0.9064(10) 0.0490 Uiso
H2D H -0.0219 -0.6588 0.8395 0.0580 Uiso
O1D O 0.0182(19) -0.8335(15) 0.9138(15) 0.0570 Uiso
C8D C -0.029(2) -0.2039(8) 0.9102(13) 0.0630 Uiso
H3D H -0.0483 -0.1686 0.8477 0.0750 Uiso
C9D C -0.031(2) -0.3068(8) 0.9101(13) 0.0730 Uiso
O1G O -0.1665(15) -0.9818(19) 1.1638(15) 0.0570 Uiso
Zn1_2 Zn -0.02588(19) 0.02588(19) 1.1250 0.0472 Uiso
Zn1C Zn 0.02588(19) -0.97412(19) 0.8750 0.0472 Uiso
Zn1C_2 Zn 0.02588(19) 0.02588(19) 0.8750 0.0472 Uiso
O2_2 O 0.0000 -1.0510(6) 1.0000 0.0610 Uiso
O2B O 0.0510(6) -1.0000 1.2500 0.0610 Uiso
loop_
_geom_bond_atom_site_label_1
_geom_bond_atom_site_label_2
_geom_bond_site_symmetry_1
_geom_bond_site_symmetry_2
C1 C3 1_555 1_555
C2 C4 1_555 1_555
C3 C6 1_555 1_555
C4 C9 1_555 1_555
C5 C2 1_555 1_555
H1 C5 1_555 1_555
C6 C5 1_555 1_555
H2 C6 1_555 1_555
O1 C1 1_555 1_555
Zn1 O1 1_555 1_555
C7 O2 1_555 1_555
O2 Zn1_2 1_555 1_555
C8 C7 1_555 1_555
H3 C8 1_555 1_555
C9 C8 1_555 1_555
C5D C2 1_555 1_555
H1D C5D 1_555 1_555
C6D C3 1_555 1_555
H2D C6D 1_555 1_555
O1D C1 1_555 1_555
C8D C7 1_555 1_555
H3D C8D 1_555 1_555
C9D C4 1_555 1_555
O1G Zn1 1_555 1_555
Zn1C O1D 1_555 1_555
Zn1C_2 O2 1_555 1_555
O2_2 Zn1 1_555 1_555
O2B Zn1 1_555 1_555
C5D C6D 1_555 1_555
C8D C9D 1_555 1_555
Zn1C O2_2 1_555 1_555

#END
