
#######################################################################
#
#                 Cambridge Crystallographic Data Centre
#                                CCDC 
#
#######################################################################
#
# If this CIF has been generated from an entry in the Cambridge 
# Structural Database, then it will include bibliographic, chemical, 
# crystal, experimental, refinement or atomic coordinate data resulting 
# from the CCDC's data processing and validation procedures.
#
#######################################################################

data_RUYGAV
_chemical_formula_moiety         '(C7 H4 Co1 O3)n'
_symmetry_cell_setting           tetragonal
_symmetry_space_group_name_H-M   'P 41 2 2'
_symmetry_Int_Tables_number      91
_space_group_name_Hall           'P 4w 2c'
loop_
_symmetry_equiv_pos_site_id
_symmetry_equiv_pos_as_xyz
1 x,y,z
2 x,-y,1/2-z
3 -x,-y,1/2+z
4 -x,y,-z
5 y,x,3/4-z
6 y,-x,3/4+z
7 -y,x,1/4+z
8 -y,-x,1/4-z
_cell_length_a                   9.1609(8)
_cell_length_b                   9.1609(8)
_cell_length_c                   12.6943(12)
_cell_angle_alpha                90
_cell_angle_beta                 90
_cell_angle_gamma                90
_cell_volume                     1065.33
loop_
_atom_site_label
_atom_site_type_symbol
_atom_site_fract_x
_atom_site_fract_y
_atom_site_fract_z
_atom_site_U_iso_or_equiv
_atom_site_thermal_displace_type
Co1 Co 0.0294(5) 0.0294(5) 0.8750 0.0430 Uiso
C1 C 0.0000 0.309(3) 1.0000 0.0300 Uiso
C2 C 0.0000 0.7721(16) 1.0000 0.0180 Uiso
O1 O 0.0000 0.9189(16) 1.0000 0.0190 Uiso
O2 O 0.036(4) 0.248(4) 0.914(2) 0.0140 Uiso
C3 C 0.0000 0.468(3) 1.0000 0.0330 Uiso
C4 C 0.030(4) 0.544(2) 1.089(2) 0.0060 Uiso
H1 H 0.0556 0.4918 1.1516 0.0080 Uiso
C5 C 0.025(6) 0.694(2) 1.0923(15) 0.0140 Uiso
H2 H 0.0385 0.7447 1.1571 0.0160 Uiso
O2C O -0.036(4) 0.248(4) 1.086(2) 0.0140 Uiso
C4C C -0.030(4) 0.544(2) 0.911(2) 0.0060 Uiso
H1C H -0.0556 0.4918 0.8484 0.0080 Uiso
C5C C -0.025(6) 0.694(2) 0.9077(15) 0.0140 Uiso
H2C H -0.0385 0.7447 0.8429 0.0160 Uiso
Co1_2 Co 0.0294(5) 1.0294(5) 0.8750 0.0430 Uiso
Co1C Co -0.0294(5) 0.0294(5) 1.1250 0.0430 Uiso
Co1C_2 Co -0.0294(5) 1.0294(5) 1.1250 0.0430 Uiso
O1_2 O 0.0000 -0.0811(16) 1.0000 0.0190 Uiso
O1D O -0.0811(16) 0.0000 0.7500 0.0190 Uiso
O2D O 0.248(4) 0.036(4) 0.836(2) 0.0140 Uiso
loop_
_geom_bond_atom_site_label_1
_geom_bond_atom_site_label_2
_geom_bond_site_symmetry_1
_geom_bond_site_symmetry_2
Co1 O2 1_555 1_555
C1 O2 1_555 1_555
C2 O1 1_555 1_555
O1 Co1_2 1_555 1_555
C3 C1 1_555 1_555
C4 C3 1_555 1_555
H1 C4 1_555 1_555
C5 C2 1_555 1_555
H2 C5 1_555 1_555
O2C C1 1_555 1_555
C4C C3 1_555 1_555
H1C C4C 1_555 1_555
C5C C2 1_555 1_555
H2C C5C 1_555 1_555
Co1C O2C 1_555 1_555
Co1C_2 O1 1_555 1_555
O1_2 Co1 1_555 1_555
O1D Co1 1_555 1_555
O2D Co1 1_555 1_555
C4 C5 1_555 1_555
C4C C5C 1_555 1_555
Co1C O1_2 1_555 1_555

#END
