
#######################################################################
#
#                 Cambridge Crystallographic Data Centre
#                                CCDC 
#
#######################################################################
#
# If this CIF has been generated from an entry in the Cambridge 
# Structural Database, then it will include bibliographic, chemical, 
# crystal, experimental, refinement or atomic coordinate data resulting 
# from the CCDC's data processing and validation procedures.
#
#######################################################################

data_RUYGID
_chemical_formula_moiety         '(C9 H6 O3 Zn1)n'
_symmetry_cell_setting           tetragonal
_symmetry_space_group_name_H-M   'P 41 21 2'
_symmetry_Int_Tables_number      92
_space_group_name_Hall           'P 4abw 2nw'
loop_
_symmetry_equiv_pos_site_id
_symmetry_equiv_pos_as_xyz
1 x,y,z
2 -x,-y,1/2+z
3 1/2-y,1/2+x,1/4+z
4 1/2+y,1/2-x,3/4+z
5 1/2-x,1/2+y,1/4-z
6 1/2+x,1/2-y,3/4-z
7 y,x,-z
8 -y,-x,1/2-z
_cell_length_a                   16.0676(4)
_cell_length_b                   16.0676(4)
_cell_length_c                   12.3809(4)
_cell_angle_alpha                90
_cell_angle_beta                 90
_cell_angle_gamma                90
_cell_volume                     3196.35
loop_
_atom_site_label
_atom_site_type_symbol
_atom_site_fract_x
_atom_site_fract_y
_atom_site_fract_z
_atom_site_U_iso_or_equiv
_atom_site_thermal_displace_type
Zn1 Zn 0.4919(4) -0.0335(4) 0.4301(5) 0.0760 Uiso
O1 O 0.5287(12) 0.0353(10) 0.5529(15) 0.0350 Uiso
O2 O 0.9087(13) 0.3868(14) 0.5318(17) 0.0460 Uiso
O3 O 0.9125(13) 0.3882(13) 0.3535(16) 0.0520 Uiso
C1 C 0.5913(6) 0.0887(6) 0.5400(8) 0.0420 Uiso
C2 C 0.6282(9) 0.1046(9) 0.4407(7) 0.0540 Uiso
H1 H 0.6120 0.0737 0.3788 0.0650 Uiso
C3 C 0.6889(9) 0.1659(10) 0.4318(9) 0.0560 Uiso
H2 H 0.7142 0.1768 0.3639 0.0670 Uiso
C4 C 0.7126(7) 0.2113(7) 0.5223(11) 0.0600 Uiso
C5 C 0.6757(11) 0.1953(10) 0.6217(9) 0.0640 Uiso
H3 H 0.6919 0.2263 0.6836 0.0770 Uiso
C6 C 0.6150(10) 0.1340(10) 0.6306(7) 0.0740 Uiso
H4 H 0.5897 0.1231 0.6985 0.0880 Uiso
C7 C 0.7791(17) 0.2722(17) 0.520(2) 0.0390 Uiso
H5 H 0.7986 0.2908 0.5885 0.0470 Uiso
C8 C 0.8160(18) 0.3050(19) 0.434(2) 0.0450 Uiso
H6 H 0.7955 0.2907 0.3645 0.0540 Uiso
C9 C 0.887(3) 0.362(3) 0.442(4) 0.0870 Uiso
Zn1B Zn 0.5335(4) -0.0081(4) 0.6801(5) 0.0760 Uiso
Zn1F Zn 0.9665(4) 0.4919(4) 0.5699(5) 0.0760 Uiso
O1C O 0.5353(10) -0.0287(12) 0.3029(15) 0.0350 Uiso
O2F O 0.3868(14) -0.0913(13) 0.4682(17) 0.0460 Uiso
loop_
_geom_bond_atom_site_label_1
_geom_bond_atom_site_label_2
_geom_bond_site_symmetry_1
_geom_bond_site_symmetry_2
Zn1 O1 1_555 1_555
O1 C1 1_555 1_555
O2 C9 1_555 1_555
O3 C9 1_555 1_555
C1 C2 1_555 1_555
C2 H1 1_555 1_555
C3 C2 1_555 1_555
H2 C3 1_555 1_555
C4 C3 1_555 1_555
C5 C4 1_555 1_555
H3 C5 1_555 1_555
C6 C1 1_555 1_555
H4 C6 1_555 1_555
C7 C4 1_555 1_555
H5 C7 1_555 1_555
C8 C7 1_555 1_555
H6 C8 1_555 1_555
C9 C8 1_555 1_555
Zn1B O1 1_555 1_555
Zn1F O2 1_555 1_555
O1C Zn1 1_555 1_555
O2F Zn1 1_555 1_555
C5 C6 1_555 1_555

#END
