
#######################################################################
#
#                 Cambridge Crystallographic Data Centre
#                                CCDC 
#
#######################################################################
#
# If this CIF has been generated from an entry in the Cambridge 
# Structural Database, then it will include bibliographic, chemical, 
# crystal, experimental, refinement or atomic coordinate data resulting 
# from the CCDC's data processing and validation procedures.
#
#######################################################################

data_EXUHEM
_chemical_formula_moiety         '(C22 H28 Cd1 N4 O6)n'
_symmetry_cell_setting           monoclinic
_symmetry_space_group_name_H-M   'P n'
_symmetry_Int_Tables_number      7
_space_group_name_Hall           'P -2yac'
loop_
_symmetry_equiv_pos_site_id
_symmetry_equiv_pos_as_xyz
1 x,y,z
2 1/2+x,-y,1/2+z
_cell_length_a                   13.312(3)
_cell_length_b                   7.316(4)
_cell_length_c                   14.870(3)
_cell_angle_alpha                90
_cell_angle_beta                 91.315(3)
_cell_angle_gamma                90
_cell_volume                     1447.82
loop_
_atom_site_label
_atom_site_type_symbol
_atom_site_fract_x
_atom_site_fract_y
_atom_site_fract_z
Cd1 Cd 0.97959(16) 0.18386(3) 0.18541(14)
N1 N 1.1005(11) -0.2044(16) 0.3872(8)
O1 O 0.5290(7) 0.6006(16) 0.5821(7)
C1 C 1.2176(10) -0.6775(12) 0.3972(12)
H1 H 1.2088 -0.7918 0.3708
C2 C 1.3701(11) -0.8534(19) 0.5756(9)
C3 C 1.1662(11) -0.363(2) 0.4083(11)
O2 O 0.9318(8) 0.4107(14) 0.2880(8)
N2 N 1.0241(10) -0.0033(17) 0.2997(7)
O3 O 0.6507(10) 0.758(2) 0.6430(9)
N3 N 1.4304(10) -0.9975(17) 0.5696(7)
C4 C 1.3078(11) -0.4702(16) 0.5031(10)
H2 H 1.3599 -0.4500 0.5447
N4 N 1.3521(13) -0.7867(18) 0.4919(10)
C5 C 0.7218(13) 0.3036(18) 0.4064(13)
H3 H 0.6861 0.2144 0.3695
H4 H 0.7748 0.2403 0.4396
C6 C 0.8372(12) 0.365(2) 0.2847(9)
C7 C 0.6964(11) 0.5503(14) 0.5253(8)
H5 H 0.7552 0.5103 0.5609
C8 C 1.2417(18) -0.341(2) 0.4764(13)
H6 H 1.2458 -0.2275 0.5048
C9 C 1.0448(14) -0.116(3) 0.4347(10)
H7 H 1.0350 -0.1404 0.4953
C10 C 1.1574(13) -0.529(2) 0.3742(11)
H8 H 1.1066 -0.5483 0.3312
C11 C 1.3278(11) -0.7855(18) 0.6503(10)
H9 H 1.2567 -0.8076 0.6477
H10 H 1.3566 -0.8445 0.7025
H11 H 1.3400 -0.6564 0.6539
C12 C 1.2886(13) -0.645(2) 0.4594(11)
C13 C 1.4599(14) -1.023(2) 0.4843(11)
H12 H 1.5066 -1.1092 0.4661
C14 C 1.4093(11) -0.8994(16) 0.4274(9)
H13 H 1.4110 -0.8902 0.3651
C15 C 0.7686(9) 0.4503(16) 0.3452(9)
H14 H 0.7135 0.4997 0.3078
C16 C 0.8126(12) 0.6088(16) 0.3965(10)
H15 H 0.8365 0.7010 0.3553
H16 H 0.8689 0.5684 0.4341
C17 C 1.0002(12) 0.018(2) 0.3897(9)
H17 H 0.9604 0.1097 0.4136
C18 C 1.0877(13) -0.138(2) 0.3018(11)
C19 C 0.6144(13) 0.639(2) 0.5892(11)
C20 C 1.132(2) -0.226(3) 0.2155(13)
H18 H 1.1548 -0.1318 0.1760
H19 H 1.0816 -0.2983 0.1853
H20 H 1.1881 -0.3033 0.2324
C21 C 0.6512(11) 0.387(2) 0.4708(9)
H21 H 0.6300 0.2935 0.5126
H22 H 0.5919 0.4287 0.4377
O4 O 0.8129(9) 0.249(2) 0.2273(7)
C22 C 0.7266(16) 0.6906(14) 0.4569(11)
H23 H 0.7506 0.8000 0.4873
H24 H 0.6689 0.7234 0.4193
Cd1A Cd 0.47959(16) 0.81614(3) 0.68541(14)
Cd1A_2 Cd 1.47959(16) -1.18386(3) 0.68541(14)
O1A O 1.0290(7) 0.3994(16) 0.0821(7)
O3A O 1.1507(10) 0.242(2) 0.1430(9)
N3A N 0.9304(10) -0.0025(17) 0.0696(7)
O5 O 0.471(2) 0.589(3) 0.205(3)
H25 H 0.5084 0.5496 0.2477
H26 H 0.4585 0.5019 0.1681
O6 O 0.8472(9) 0.8400(18) 0.6983(7)
H27 H 0.891(4) 0.761(7) 0.681(3)
H28 H 0.891(3) 0.964(6) 0.673(3)
loop_
_geom_bond_atom_site_label_1
_geom_bond_atom_site_label_2
_geom_bond_site_symmetry_1
_geom_bond_site_symmetry_2
Cd1 O2 1_555 1_555
N1 C3 1_555 1_555
O1 C19 1_555 1_555
C1 H1 1_555 1_555
C2 N3 1_555 1_555
C3 C8 1_555 1_555
O2 C6 1_555 1_555
N2 Cd1 1_555 1_555
O3 C19 1_555 1_555
N3 C13 1_555 1_555
C4 H2 1_555 1_555
N4 C2 1_555 1_555
C5 H3 1_555 1_555
H4 C5 1_555 1_555
C6 C15 1_555 1_555
C7 H5 1_555 1_555
C8 C4 1_555 1_555
H6 C8 1_555 1_555
C9 N1 1_555 1_555
H7 C9 1_555 1_555
C10 C1 1_555 1_555
H8 C10 1_555 1_555
C11 C2 1_555 1_555
H9 C11 1_555 1_555
H10 C11 1_555 1_555
H11 C11 1_555 1_555
C12 C1 1_555 1_555
C13 H12 1_555 1_555
C14 N4 1_555 1_555
H13 C14 1_555 1_555
C15 C5 1_555 1_555
H14 C15 1_555 1_555
C16 C15 1_555 1_555
H15 C16 1_555 1_555
H16 C16 1_555 1_555
C17 N2 1_555 1_555
H17 C17 1_555 1_555
C18 N1 1_555 1_555
C19 C7 1_555 1_555
C20 C18 1_555 1_555
H18 C20 1_555 1_555
H19 C20 1_555 1_555
H20 C20 1_555 1_555
C21 C5 1_555 1_555
H21 C21 1_555 1_555
H22 C21 1_555 1_555
O4 Cd1 1_555 1_555
C22 C7 1_555 1_555
H23 C22 1_555 1_555
H24 C22 1_555 1_555
O5 H25 1_555 1_555
H26 O5 1_555 1_555
O6 H27 1_555 1_555
H28 O6 1_555 1_555
Cd1A O1 1_555 1_555
Cd1A_2 N3 1_555 1_555
O1A Cd1 1_555 1_555
O3A Cd1 1_555 1_555
N3A Cd1 1_555 1_555
C3 C10 1_555 1_555
N2 C18 1_555 1_555
O3 Cd1A 1_555 1_555
C4 C12 1_555 1_555
N4 C12 1_555 1_555
C6 O4 1_555 1_555
C7 C21 1_555 1_555
C9 C17 1_555 1_555
C13 C14 1_555 1_555
C16 C22 1_555 1_555

#END
