
#######################################################################
#
#                 Cambridge Crystallographic Data Centre
#                                CCDC 
#
#######################################################################
#
# If this CIF has been generated from an entry in the Cambridge 
# Structural Database, then it will include bibliographic, chemical, 
# crystal, experimental, refinement or atomic coordinate data resulting 
# from the CCDC's data processing and validation procedures.
#
#######################################################################

data_HOPYEQ01
_chemical_formula_moiety         '(C4 H19 N3 O17 P4 Zn4)n'
_symmetry_cell_setting           monoclinic
_symmetry_space_group_name_H-M   'P 21'
_symmetry_Int_Tables_number      4
_space_group_name_Hall           'P 2yb'
loop_
_symmetry_equiv_pos_site_id
_symmetry_equiv_pos_as_xyz
1 x,y,z
2 -x,1/2+y,-z
_cell_length_a                   10.0049(9)
_cell_length_b                   8.2745(8)
_cell_length_c                   11.8304(11)
_cell_angle_alpha                90.00
_cell_angle_beta                 103.093(2)
_cell_angle_gamma                90.00
_cell_volume                     953.926
loop_
_atom_site_label
_atom_site_type_symbol
_atom_site_fract_x
_atom_site_fract_y
_atom_site_fract_z
Zn1 Zn 0.32276(11) 0.67570(14) 0.02965(9)
Zn2 Zn 0.62163(11) 0.65398(13) -0.07049(9)
Zn3 Zn 0.07314(11) 0.88043(13) 0.33641(9)
Zn4 Zn 0.33633(11) 0.26391(15) -0.28538(9)
P1 P 0.5830(3) 0.4498(3) 0.1255(2)
P2 P 0.3542(3) 0.8613(3) 0.2593(2)
P3 P 0.0735(3) 1.1110(3) 0.5457(2)
P4 P 0.1733(2) 0.3771(3) -0.1026(2)
O1 O 0.5095(7) 0.5845(9) 0.0398(5)
O2 O 0.6890(7) 0.3653(9) 0.0701(5)
O3 O 0.1692(8) 0.5300(9) -0.0314(6)
O4 O 0.2965(8) 0.7173(9) 0.1830(6)
O5 O 0.4765(7) 0.3358(9) 0.1548(5)
O6 O 0.2059(7) 0.2309(8) -0.0231(5)
O7 O 0.3501(9) 1.0147(9) 0.1884(6)
O8 O 0.2688(7) 0.8888(9) 0.3504(5)
O9 O 0.0266(7) 1.0727(9) 0.4171(6)
O10 O 0.0321(8) 0.3499(10) -0.1812(6)
O11 O -0.0464(7) 1.1651(9) 0.5957(6)
O12 O 0.1270(8) 0.9448(9) 0.6058(7)
O13 O 0.1906(7) 1.2318(8) 0.5682(5)
O14 O 0.2854(8) 0.4022(9) -0.1714(6)
O15 O 0.4989(8) 0.8239(10) 0.3288(6)
O16 O 0.6582(8) 0.5329(9) 0.2386(6)
O2A O 0.3110(7) 0.8653(9) -0.0701(5)
O5A O 0.5235(7) 0.8358(9) -0.1548(5)
O6A O 0.7941(7) 0.7309(8) 0.0231(5)
O7A O 0.6499(9) 0.5147(9) -0.1884(6)
O10A O -0.0321(8) 0.8499(10) 0.1812(6)
O11A O 0.0464(7) 0.6651(9) 0.4043(6)
O13_2 O 0.1906(7) 0.2318(8) -0.4318(5)
O15A O 0.5011(8) 0.3239(10) -0.3288(6)
O16A O 0.3418(8) 0.0329(9) -0.2386(6)
Zn1A Zn 0.67724(11) 0.17570(14) -0.02965(9)
Zn2A Zn 0.37837(11) 0.15398(13) 0.07049(9)
Zn2A_2 Zn 0.37837(11) 1.15398(13) 0.07049(9)
Zn3A Zn -0.07314(11) 0.38043(13) -0.33641(9)
Zn3A_2 Zn -0.07314(11) 1.38043(13) 0.66359(9)
Zn4_2 Zn 0.33633(11) 1.26391(15) 0.71462(9)
Zn4A Zn 0.66367(11) 0.76391(15) 0.28538(9)
N1 N 1.0062(11) 0.0052(13) -0.1229(9)
H1 H 1.0946 0.0146 -0.0882
H2 H 0.9556 0.0156 -0.0703
H3 H 0.9834 0.0819 -0.1765
N2 N 0.7994(10) -0.0999(12) -0.3588(8)
H4 H 0.8486 -0.0087 -0.3580
H5 H 0.8252 -0.1693 -0.4084
N3 N 0.4173(10) -0.1641(11) -0.4221(7)
H6 H 0.3661 -0.2522 -0.4233
H7 H 0.3912 -0.1118 -0.4892
H8 H 0.4070 -0.0999 -0.3643
C1 C 0.9813(12) -0.1556(15) -0.1787(10)
H9 H 1.0060 -0.2395 -0.1204
H10 H 1.0381 -0.1684 -0.2345
C2 C 0.8319(12) -0.1727(14) -0.2393(9)
H11 H 0.8080 -0.2865 -0.2450
H12 H 0.7760 -0.1207 -0.1928
C3 C 0.6512(11) -0.0616(14) -0.4017(9)
H13 H 0.6365 -0.0159 -0.4791
H14 H 0.6241 0.0186 -0.3514
C4 C 0.5632(10) -0.2112(13) -0.4048(8)
H15 H 0.5749 -0.2813 -0.4675
H16 H 0.5916 -0.2702 -0.3325
O17 O 0.2613(8) -0.3813(12) -0.3457(7)
loop_
_geom_bond_atom_site_label_1
_geom_bond_atom_site_label_2
_geom_bond_site_symmetry_1
_geom_bond_site_symmetry_2
Zn1 O1 1_555 1_555
Zn2 O1 1_555 1_555
Zn3 O8 1_555 1_555
Zn4 O14 1_555 1_555
P1 O1 1_555 1_555
P2 O4 1_555 1_555
P3 O9 1_555 1_555
P4 O3 1_555 1_555
O2 P1 1_555 1_555
O3 Zn1 1_555 1_555
O4 Zn1 1_555 1_555
O5 P1 1_555 1_555
O6 P4 1_555 1_555
O7 P2 1_555 1_555
O8 P2 1_555 1_555
O9 Zn3 1_555 1_555
O10 P4 1_555 1_555
O11 P3 1_555 1_555
O12 P3 1_555 1_555
O13 P3 1_555 1_555
O14 P4 1_555 1_555
O15 P2 1_555 1_555
O16 P1 1_555 1_555
N1 H1 1_555 1_555
H2 N1 1_555 1_555
H3 N1 1_555 1_555
N2 H4 1_555 1_555
H5 N2 1_555 1_555
N3 H6 1_555 1_555
H7 N3 1_555 1_555
H8 N3 1_555 1_555
C1 N1 1_555 1_555
H9 C1 1_555 1_555
H10 C1 1_555 1_555
C2 N2 1_555 1_555
H11 C2 1_555 1_555
H12 C2 1_555 1_555
C3 N2 1_555 1_555
H13 C3 1_555 1_555
H14 C3 1_555 1_555
C4 N3 1_555 1_555
H15 C4 1_555 1_555
H16 C4 1_555 1_555
O2A Zn1 1_555 1_555
O5A Zn2 1_555 1_555
O6A Zn2 1_555 1_555
O7A Zn2 1_555 1_555
O10A Zn3 1_555 1_555
O11A Zn3 1_555 1_555
O13_2 Zn4 1_555 1_555
O15A Zn4 1_555 1_555
O16A Zn4 1_555 1_555
Zn1A O2 1_555 1_555
Zn2A O5 1_555 1_555
Zn2A_2 O7 1_555 1_555
Zn3A O10 1_555 1_555
Zn3A_2 O11 1_555 1_555
Zn4_2 O13 1_555 1_555
Zn4A O15 1_555 1_555
O6 Zn2A 1_555 1_555
O16 Zn4A 1_555 1_555
C1 C2 1_555 1_555
C3 C4 1_555 1_555

#END
