
#######################################################################
#
#                 Cambridge Crystallographic Data Centre
#                                CCDC 
#
#######################################################################
#
# If this CIF has been generated from an entry in the Cambridge 
# Structural Database, then it will include bibliographic, chemical, 
# crystal, experimental, refinement or atomic coordinate data resulting 
# from the CCDC's data processing and validation procedures.
#
#######################################################################

data_CSCNCA01
_chemical_formula_moiety         '(C30 Cr1 Cs1 N7 2-)n'
_symmetry_cell_setting           cubic
_symmetry_space_group_name_H-M   'F m -3 m'
_symmetry_Int_Tables_number      225
_space_group_name_Hall           '-F 4 2 3'
loop_
_symmetry_equiv_pos_site_id
_symmetry_equiv_pos_as_xyz
1 x,y,z
2 z,x,y
3 y,z,x
4 y,x,-z
5 y,-x,z
6 -y,x,z
7 x,z,-y
8 -x,z,y
9 x,-z,y
10 z,y,-x
11 z,-y,x
12 -z,y,x
13 x,1/2+y,1/2+z
14 z,1/2+x,1/2+y
15 y,1/2+z,1/2+x
16 y,1/2+x,1/2-z
17 y,1/2-x,1/2+z
18 -y,1/2+x,1/2+z
19 x,1/2+z,1/2-y
20 -x,1/2+z,1/2+y
21 x,1/2-z,1/2+y
22 z,1/2+y,1/2-x
23 z,1/2-y,1/2+x
24 -z,1/2+y,1/2+x
25 1/2+x,y,1/2+z
26 1/2+z,x,1/2+y
27 1/2+y,z,1/2+x
28 1/2+y,x,1/2-z
29 1/2+y,-x,1/2+z
30 1/2-y,x,1/2+z
31 1/2+x,z,1/2-y
32 1/2-x,z,1/2+y
33 1/2+x,-z,1/2+y
34 1/2+z,y,1/2-x
35 1/2+z,-y,1/2+x
36 1/2-z,y,1/2+x
37 1/2+x,1/2+y,z
38 1/2+z,1/2+x,y
39 1/2+y,1/2+z,x
40 1/2+y,1/2+x,-z
41 1/2+y,1/2-x,z
42 1/2-y,1/2+x,z
43 1/2+x,1/2+z,-y
44 1/2-x,1/2+z,y
45 1/2+x,1/2-z,y
46 1/2+z,1/2+y,-x
47 1/2+z,1/2-y,x
48 1/2-z,1/2+y,x
49 -x,-y,z
50 -x,y,-z
51 x,-y,-z
52 z,-x,-y
53 -z,-x,y
54 -z,x,-y
55 -y,z,-x
56 y,-z,-x
57 -y,-z,x
58 -y,-x,-z
59 -x,-z,-y
60 -z,-y,-x
61 -x,1/2-y,1/2+z
62 -x,1/2+y,1/2-z
63 x,1/2-y,1/2-z
64 z,1/2-x,1/2-y
65 -z,1/2-x,1/2+y
66 -z,1/2+x,1/2-y
67 -y,1/2+z,1/2-x
68 y,1/2-z,1/2-x
69 -y,1/2-z,1/2+x
70 -y,1/2-x,1/2-z
71 -x,1/2-z,1/2-y
72 -z,1/2-y,1/2-x
73 1/2-x,-y,1/2+z
74 1/2-x,y,1/2-z
75 1/2+x,-y,1/2-z
76 1/2+z,-x,1/2-y
77 1/2-z,-x,1/2+y
78 1/2-z,x,1/2-y
79 1/2-y,z,1/2-x
80 1/2+y,-z,1/2-x
81 1/2-y,-z,1/2+x
82 1/2-y,-x,1/2-z
83 1/2-x,-z,1/2-y
84 1/2-z,-y,1/2-x
85 1/2-x,1/2-y,z
86 1/2-x,1/2+y,-z
87 1/2+x,1/2-y,-z
88 1/2+z,1/2-x,-y
89 1/2-z,1/2-x,y
90 1/2-z,1/2+x,-y
91 1/2-y,1/2+z,-x
92 1/2+y,1/2-z,-x
93 1/2-y,1/2-z,x
94 1/2-y,1/2-x,-z
95 1/2-x,1/2-z,-y
96 1/2-z,1/2-y,-x
97 -x,-y,-z
98 -z,-x,-y
99 -y,-z,-x
100 -y,-x,z
101 -y,x,-z
102 y,-x,-z
103 -x,-z,y
104 x,-z,-y
105 -x,z,-y
106 -z,-y,x
107 -z,y,-x
108 z,-y,-x
109 -x,1/2-y,1/2-z
110 -z,1/2-x,1/2-y
111 -y,1/2-z,1/2-x
112 -y,1/2-x,1/2+z
113 -y,1/2+x,1/2-z
114 y,1/2-x,1/2-z
115 -x,1/2-z,1/2+y
116 x,1/2-z,1/2-y
117 -x,1/2+z,1/2-y
118 -z,1/2-y,1/2+x
119 -z,1/2+y,1/2-x
120 z,1/2-y,1/2-x
121 1/2-x,-y,1/2-z
122 1/2-z,-x,1/2-y
123 1/2-y,-z,1/2-x
124 1/2-y,-x,1/2+z
125 1/2-y,x,1/2-z
126 1/2+y,-x,1/2-z
127 1/2-x,-z,1/2+y
128 1/2+x,-z,1/2-y
129 1/2-x,z,1/2-y
130 1/2-z,-y,1/2+x
131 1/2-z,y,1/2-x
132 1/2+z,-y,1/2-x
133 1/2-x,1/2-y,-z
134 1/2-z,1/2-x,-y
135 1/2-y,1/2-z,-x
136 1/2-y,1/2-x,z
137 1/2-y,1/2+x,-z
138 1/2+y,1/2-x,-z
139 1/2-x,1/2-z,y
140 1/2+x,1/2-z,-y
141 1/2-x,1/2+z,-y
142 1/2-z,1/2-y,x
143 1/2-z,1/2+y,-x
144 1/2+z,1/2-y,-x
145 x,y,-z
146 x,-y,z
147 -x,y,z
148 -z,x,y
149 z,x,-y
150 z,-x,y
151 y,-z,x
152 -y,z,x
153 y,z,-x
154 y,x,z
155 x,z,y
156 z,y,x
157 x,1/2+y,1/2-z
158 x,1/2-y,1/2+z
159 -x,1/2+y,1/2+z
160 -z,1/2+x,1/2+y
161 z,1/2+x,1/2-y
162 z,1/2-x,1/2+y
163 y,1/2-z,1/2+x
164 -y,1/2+z,1/2+x
165 y,1/2+z,1/2-x
166 y,1/2+x,1/2+z
167 x,1/2+z,1/2+y
168 z,1/2+y,1/2+x
169 1/2+x,y,1/2-z
170 1/2+x,-y,1/2+z
171 1/2-x,y,1/2+z
172 1/2-z,x,1/2+y
173 1/2+z,x,1/2-y
174 1/2+z,-x,1/2+y
175 1/2+y,-z,1/2+x
176 1/2-y,z,1/2+x
177 1/2+y,z,1/2-x
178 1/2+y,x,1/2+z
179 1/2+x,z,1/2+y
180 1/2+z,y,1/2+x
181 1/2+x,1/2+y,-z
182 1/2+x,1/2-y,z
183 1/2-x,1/2+y,z
184 1/2-z,1/2+x,y
185 1/2+z,1/2+x,-y
186 1/2+z,1/2-x,y
187 1/2+y,1/2-z,x
188 1/2-y,1/2+z,x
189 1/2+y,1/2+z,-x
190 1/2+y,1/2+x,z
191 1/2+x,1/2+z,y
192 1/2+z,1/2+y,x
_cell_length_a                   12.7890(10)
_cell_length_b                   12.7890(10)
_cell_length_c                   12.7890(10)
_cell_angle_alpha                90
_cell_angle_beta                 90
_cell_angle_gamma                90
_cell_volume                     2091.75
loop_
_atom_site_label
_atom_site_type_symbol
_atom_site_fract_x
_atom_site_fract_y
_atom_site_fract_z
Cs1 Cs 0.5000 0.5000 0.5000
Cr1 Cr 0.0000 0.5000 0.5000
N2 N 0.2508(4) 0.5000 0.5000
C2 C 0.1612(4) 0.5000 0.5000
C2G C -0.1612(4) 0.5000 0.5000
N2G N -0.2508(4) 0.5000 0.5000
Cs1G Cs -0.5000 0.5000 0.5000
C2Z C -0.0000 0.5000 0.6612(4)
C2GA C 0.0000 0.5000 0.3388(4)
C2KA C -0.0000 0.6612(4) 0.5000
C2NA C 0.0000 0.3388(4) 0.5000
N2A N 0.5000 0.2508(4) 0.5000
N2B N 0.5000 0.5000 0.2508(4)
N2D N 0.5000 0.7492(4) 0.5000
N2G_2 N 0.7492(4) 0.5000 0.5000
N2I N 0.5000 0.5000 0.7492(4)
N2Z N -0.0000 0.5000 0.7508(4)
N2GA N -0.0000 0.5000 0.2492(4)
N2KA N 0.0000 0.7508(4) 0.5000
N2NA N -0.0000 0.2492(4) 0.5000
Cs1X Cs 0.0000 0.5000 0.0000
Cs1X_2 Cs 0.0000 0.5000 1.0000
Cs1JA Cs 0.0000 1.0000 0.5000
Cs1JA_2 Cs 0.0000 0.0000 0.5000
N1 N 0.2500 0.2500 0.2500
C1 C 0.184(3) 0.2294(17) 0.341(4)
C1WE C 0.2294(17) 0.184(3) 0.341(4)
C1A C 0.341(4) 0.184(3) 0.2294(17)
C1YE C 0.341(4) 0.2294(17) 0.184(3)
C1B C 0.2294(17) 0.341(4) 0.184(3)
C1XE C 0.184(3) 0.341(4) 0.2294(17)
C1ID C 0.2294(17) 0.316(3) 0.159(4)
C1JB C 0.184(3) 0.2706(17) 0.159(4)
C1KD C 0.184(3) 0.159(4) 0.2706(17)
C1OB C 0.2294(17) 0.159(4) 0.316(3)
C1OD C 0.341(4) 0.2706(17) 0.316(3)
C1KB C 0.341(4) 0.316(3) 0.2706(17)
C1ZB C 0.2706(17) 0.341(4) 0.316(3)
C1TD C 0.2706(17) 0.184(3) 0.159(4)
C1UB C 0.316(3) 0.2294(17) 0.159(4)
C1XD C 0.316(3) 0.341(4) 0.2706(17)
C1FC C 0.316(3) 0.2706(17) 0.341(4)
C1ZD C 0.159(4) 0.2294(17) 0.316(3)
C1YB C 0.159(4) 0.184(3) 0.2706(17)
C1EE C 0.2706(17) 0.316(3) 0.341(4)
C1HE C 0.316(3) 0.159(4) 0.2294(17)
C1NC C 0.2706(17) 0.159(4) 0.184(3)
C1KE C 0.159(4) 0.2706(17) 0.184(3)
C1JC C 0.159(4) 0.316(3) 0.2294(17)
loop_
_geom_bond_atom_site_label_1
_geom_bond_atom_site_label_2
_geom_bond_site_symmetry_1
_geom_bond_site_symmetry_2
N1 C1 1_555 1_555
C1 C1WE 1_555 1_555
Cs1 N2 1_555 1_555
Cr1 C2 1_555 1_555
N2 C2 1_555 1_555
C1WE N1 1_555 1_555
C1A N1 1_555 1_555
C1YE N1 1_555 1_555
C1B N1 1_555 1_555
C1XE N1 1_555 1_555
C1ID N1 1_555 1_555
C1JB N1 1_555 1_555
C1KD N1 1_555 1_555
C1OB N1 1_555 1_555
C1OD N1 1_555 1_555
C1KB N1 1_555 1_555
C1ZB N1 1_555 1_555
C1TD N1 1_555 1_555
C1UB N1 1_555 1_555
C1XD N1 1_555 1_555
C1FC N1 1_555 1_555
C1ZD N1 1_555 1_555
C1YB N1 1_555 1_555
C1EE N1 1_555 1_555
C1HE N1 1_555 1_555
C1NC N1 1_555 1_555
C1KE N1 1_555 1_555
C1JC N1 1_555 1_555
C2G Cr1 1_555 1_555
N2G C2G 1_555 1_555
Cs1G N2G 1_555 1_555
C2Z Cr1 1_555 1_555
C2GA Cr1 1_555 1_555
C2KA Cr1 1_555 1_555
C2NA Cr1 1_555 1_555
N2A Cs1 1_555 1_555
N2B Cs1 1_555 1_555
N2D Cs1 1_555 1_555
N2G_2 Cs1 1_555 1_555
N2I Cs1 1_555 1_555
N2Z C2Z 1_555 1_555
N2GA C2GA 1_555 1_555
N2KA C2KA 1_555 1_555
N2NA C2NA 1_555 1_555
Cs1X N2GA 1_555 1_555
Cs1X_2 N2Z 1_555 1_555
Cs1JA N2KA 1_555 1_555
Cs1JA_2 N2NA 1_555 1_555
C1 C1KD 1_555 1_555
C1 C1OB 1_555 1_555
C1 C1ZD 1_555 1_555
C1 C1YB 1_555 1_555
C1 C1EE 1_555 1_555
C1WE C1KD 1_555 1_555
C1WE C1OB 1_555 1_555
C1WE C1FC 1_555 1_555
C1WE C1ZD 1_555 1_555
C1WE C1YB 1_555 1_555
C1A C1YE 1_555 1_555
C1A C1OD 1_555 1_555
C1A C1TD 1_555 1_555
C1A C1UB 1_555 1_555
C1A C1HE 1_555 1_555
C1A C1NC 1_555 1_555
C1YE C1KB 1_555 1_555
C1YE C1TD 1_555 1_555
C1YE C1UB 1_555 1_555
C1YE C1HE 1_555 1_555
C1YE C1NC 1_555 1_555
C1B C1XE 1_555 1_555
C1B C1ID 1_555 1_555
C1B C1JB 1_555 1_555
C1B C1XD 1_555 1_555
C1B C1KE 1_555 1_555
C1B C1JC 1_555 1_555
C1XE C1ID 1_555 1_555
C1XE C1JB 1_555 1_555
C1XE C1ZB 1_555 1_555
C1XE C1KE 1_555 1_555
C1XE C1JC 1_555 1_555
C1ID C1JB 1_555 1_555
C1ID C1UB 1_555 1_555
C1ID C1KE 1_555 1_555
C1ID C1JC 1_555 1_555
C1JB C1TD 1_555 1_555
C1JB C1KE 1_555 1_555
C1JB C1JC 1_555 1_555
C1KD C1OB 1_555 1_555
C1KD C1ZD 1_555 1_555
C1KD C1YB 1_555 1_555
C1KD C1NC 1_555 1_555
C1OB C1ZD 1_555 1_555
C1OB C1YB 1_555 1_555
C1OB C1HE 1_555 1_555
C1OD C1KB 1_555 1_555
C1OD C1ZB 1_555 1_555
C1OD C1XD 1_555 1_555
C1OD C1FC 1_555 1_555
C1OD C1EE 1_555 1_555
C1KB C1ZB 1_555 1_555
C1KB C1XD 1_555 1_555
C1KB C1FC 1_555 1_555
C1KB C1EE 1_555 1_555
C1ZB C1XD 1_555 1_555
C1ZB C1FC 1_555 1_555
C1ZB C1EE 1_555 1_555
C1TD C1UB 1_555 1_555
C1TD C1HE 1_555 1_555
C1TD C1NC 1_555 1_555
C1UB C1HE 1_555 1_555
C1UB C1NC 1_555 1_555
C1XD C1FC 1_555 1_555
C1XD C1EE 1_555 1_555
C1FC C1EE 1_555 1_555
C1ZD C1YB 1_555 1_555
C1ZD C1JC 1_555 1_555
C1YB C1KE 1_555 1_555
C1HE C1NC 1_555 1_555
C1KE C1JC 1_555 1_555

#END
