
#######################################################################
#
#                 Cambridge Crystallographic Data Centre
#                                CCDC 
#
#######################################################################
#
# If this CIF has been generated from an entry in the Cambridge 
# Structural Database, then it will include bibliographic, chemical, 
# crystal, experimental, refinement or atomic coordinate data resulting 
# from the CCDC's data processing and validation procedures.
#
#######################################################################

data_DOYSIT
_chemical_formula_moiety         '(C10 H12 Cr1 K1 N7 1-)n'
_symmetry_cell_setting           monoclinic
_symmetry_space_group_name_H-M   'C 2/c'
_symmetry_Int_Tables_number      15
_space_group_name_Hall           '-C 2yc'
loop_
_symmetry_equiv_pos_site_id
_symmetry_equiv_pos_as_xyz
1 x,y,z
2 1/2+x,1/2+y,z
3 -x,y,1/2-z
4 1/2-x,1/2+y,1/2-z
5 -x,-y,-z
6 1/2-x,1/2-y,-z
7 x,-y,1/2+z
8 1/2+x,1/2-y,1/2+z
_cell_length_a                   15.2730(10)
_cell_length_b                   8.8810(10)
_cell_length_c                   15.3900(10)
_cell_angle_alpha                90
_cell_angle_beta                 109.920(10)
_cell_angle_gamma                90
_cell_volume                     1962.6
loop_
_atom_site_label
_atom_site_type_symbol
_atom_site_fract_x
_atom_site_fract_y
_atom_site_fract_z
K1 K -0.0000 0.24894(5) 0.2500
Cr1 Cr 0.2500 0.2500 0.0000
C1 C 0.17649(12) 0.23557(16) 0.09250(12)
N1 N 0.13539(12) 0.2272(2) 0.14250(13)
C2 C 0.16837(11) 0.07492(18) -0.07722(11)
N2 N 0.12288(11) -0.02056(19) -0.12004(11)
C3 C 0.34533(10) 0.09249(18) 0.08028(11)
N3 N 0.39591(12) 0.00446(19) 0.12492(12)
N1B N -0.13539(12) 0.2272(2) 0.35750(13)
N2D N -0.12288(11) 0.02056(19) 0.12004(11)
N3C N 0.10409(12) 0.50446(19) 0.37508(12)
C1E C 0.32351(12) 0.26443(16) -0.09250(12)
C2E C 0.33163(11) 0.42508(18) 0.07722(11)
C3E C 0.15467(10) 0.40751(18) -0.08028(11)
N2F N 0.12288(11) 0.02056(19) 0.37996(11)
N3A N -0.10409(12) 0.50446(19) 0.12492(12)
N1E N 0.36461(12) 0.2728(2) -0.14250(13)
N2E N 0.37712(11) 0.52056(19) 0.12004(11)
N3E N 0.10409(12) 0.49554(19) -0.12492(12)
K1F K 0.0000 -0.24894(5) -0.2500
K1A K 0.5000 -0.25106(5) 0.2500
K1G K 0.5000 0.25106(5) -0.2500
K1A_2 K 0.5000 0.74894(5) 0.2500
K1F_2 K 0.0000 0.75106(5) -0.2500
N4 N 0.12642(8) 0.25240(13) 0.62556(8)
C4 C 0.21601(15) 0.1891(3) 0.6238(2)
C5 C 0.0504(2) 0.2320(6) 0.5354(3)
C6 C 0.1038(4) 0.1690(5) 0.6986(3)
C7 C 0.1386(3) 0.4143(3) 0.6504(4)
loop_
_geom_bond_atom_site_label_1
_geom_bond_atom_site_label_2
_geom_bond_site_symmetry_1
_geom_bond_site_symmetry_2
K1 N1 1_555 1_555
Cr1 C1 1_555 1_555
C1 N1 1_555 1_555
C2 Cr1 1_555 1_555
N2 C2 1_555 1_555
C3 Cr1 1_555 1_555
N3 C3 1_555 1_555
N4 C4 1_555 1_555
C5 N4 1_555 1_555
C6 N4 1_555 1_555
C7 N4 1_555 1_555
N1B K1 1_555 1_555
N2D K1 1_555 1_555
N3C K1 1_555 1_555
C1E Cr1 1_555 1_555
C2E Cr1 1_555 1_555
C3E Cr1 1_555 1_555
N2F K1 1_555 1_555
N3A K1 1_555 1_555
N1E C1E 1_555 1_555
N2E C2E 1_555 1_555
N3E C3E 1_555 1_555
K1F N2 1_555 1_555
K1A N3 1_555 1_555
K1G N1E 1_555 1_555
K1A_2 N2E 1_555 1_555
K1F_2 N3E 1_555 1_555

#END
