
#######################################################################
#
#                 Cambridge Crystallographic Data Centre
#                                CCDC 
#
#######################################################################
#
# If this CIF has been generated from an entry in the Cambridge 
# Structural Database, then it will include bibliographic, chemical, 
# crystal, experimental, refinement or atomic coordinate data resulting 
# from the CCDC's data processing and validation procedures.
#
#######################################################################

data_PALTIH
_chemical_formula_moiety         'C124 H104 Cu14 N16 O38'
_symmetry_cell_setting           monoclinic
_symmetry_space_group_name_H-M   'C 2/c'
_symmetry_Int_Tables_number      15
_space_group_name_Hall           '-C 2yc'
loop_
_symmetry_equiv_pos_site_id
_symmetry_equiv_pos_as_xyz
1 x,y,z
2 -x,y,1/2-z
3 1/2+x,1/2+y,z
4 1/2-x,1/2+y,1/2-z
5 -x,-y,-z
6 x,-y,1/2+z
7 1/2-x,1/2-y,-z
8 1/2+x,1/2-y,1/2+z
_cell_length_a                   30.0742(7)
_cell_length_b                   44.9301(9)
_cell_length_c                   18.4571(5)
_cell_angle_alpha                90
_cell_angle_beta                 107.9610(10)
_cell_angle_gamma                90
_cell_volume                     23724.5
loop_
_atom_site_label
_atom_site_type_symbol
_atom_site_fract_x
_atom_site_fract_y
_atom_site_fract_z
Cu1 Cu 0.238603(14) 0.460006(12) 0.18311(3)
Cu2 Cu 0.259044(14) 0.426490(11) 0.30619(3)
Cu3 Cu 0.47050(2) 0.691236(10) 0.78947(4)
O1 O 0.25841(8) 0.49369(6) 0.25246(16)
O2 O 0.27816(9) 0.46515(6) 0.35643(16)
O3 O 0.22042(10) 0.42225(7) 0.13080(18)
O4 O 0.23632(9) 0.39332(6) 0.23634(19)
O5 O 0.30417(8) 0.45331(6) 0.19238(16)
O6 O 0.32097(8) 0.42305(6) 0.29309(17)
O7 O 0.17645(8) 0.46244(7) 0.19503(19)
O8 O 0.19395(8) 0.43432(6) 0.30085(18)
O9 O 0.43531(11) 0.66294(6) 0.7118(2)
O10 O 0.49015(11) 0.65912(6) 0.65387(18)
O11 O 0.01328(12) 0.22013(6) -0.14623(18)
O12 O 0.05991(11) 0.22408(6) -0.2231(2)
O13 O 0.27482(13) 0.40064(9) 0.4096(2)
O14 O 0.22065(10) 0.48480(8) 0.07981(18)
O15 O 0.42210(15) 0.68918(8) 0.8528(3)
C1 C 0.27548(12) 0.48947(9) 0.3227(2)
C2 C 0.29509(14) 0.51557(9) 0.3701(2)
C3 C 0.30214(18) 0.54247(10) 0.3361(3)
H1 H 0.2919 0.5443 0.2822
C4 C 0.3240(2) 0.56645(11) 0.3806(3)
H2 H 0.3282 0.5845 0.3569
C5 C 0.33968(19) 0.56411(11) 0.4597(3)
C6 C 0.3322(2) 0.53779(12) 0.4929(3)
H3 H 0.3414 0.5362 0.5468
C7 C 0.31141(18) 0.51378(10) 0.4488(3)
H4 H 0.3083 0.4956 0.4730
C8 C 0.3659(2) 0.58861(11) 0.5089(3)
C9 C 0.35002(19) 0.60258(11) 0.5614(3)
C10 C 0.37761(18) 0.62367(10) 0.6110(3)
H5 H 0.3661 0.6331 0.6477
C11 C 0.42070(18) 0.63082(9) 0.6071(3)
C12 C 0.4373(2) 0.61764(11) 0.5518(3)
H6 H 0.4668 0.6234 0.5479
C13 C 0.4114(2) 0.59644(11) 0.5030(3)
H7 H 0.4230 0.5872 0.4663
C14 C 0.45118(18) 0.65330(8) 0.6628(3)
C15 C 0.3018(3) 0.59940(18) 0.5633(4)
H8 H 0.2997 0.5809 0.5911
H9 H 0.2949 0.6162 0.5928
N1 N 0.2660(2) 0.5985(2) 0.4905(5)
C16 C 0.2572(4) 0.6261(3) 0.4429(8)
H10 H 0.2733 0.6446 0.4522
N2 N 0.2258(5) 0.6190(4) 0.3916(8)
C17 C 0.2060(4) 0.5836(3) 0.3917(7)
H11 H 0.1820 0.5733 0.3543
C18 C 0.2354(4) 0.5738(3) 0.4634(6)
H12 H 0.2349 0.5552 0.4877
C19 C 0.1989(8) 0.6331(6) 0.3132(12)
H13 H 0.1742 0.6194 0.2848
H14 H 0.2206 0.6367 0.2841
H15 H 0.1848 0.6520 0.3214
C20 C 0.33104(11) 0.43728(9) 0.2422(3)
C21 C 0.38179(11) 0.43635(9) 0.2438(2)
C22 C 0.39813(12) 0.45866(10) 0.2064(3)
H16 H 0.3773 0.4735 0.1785
C23 C 0.44467(14) 0.45933(11) 0.2097(3)
C24 C 0.47457(12) 0.43603(10) 0.2476(3)
C25 C 0.45727(13) 0.41379(9) 0.2823(3)
H17 H 0.4772 0.3980 0.3072
C26 C 0.41099(12) 0.41413(9) 0.2811(3)
H18 H 0.3995 0.3989 0.3063
C27 C 0.4644(3) 0.4887(2) 0.1865(7)
H19 H 0.4387 0.5021 0.1590
H20 H 0.4846 0.4991 0.2320
N3 N 0.4911(4) 0.4793(3) 0.1378(8)
C28 C 0.4671(6) 0.4635(5) 0.0637(13)
H21 H 0.4347 0.4594 0.0413
N4 N 0.4968(7) 0.4578(6) 0.0416(13)
C29 C 0.5481(5) 0.4761(4) 0.0833(9)
H22 H 0.5755 0.4778 0.0685
C30 C 0.5369(5) 0.4881(4) 0.1478(10)
H23 H 0.5565 0.4996 0.1884
C31 C 0.5092(11) 0.4355(5) -0.0130(15)
H24 H 0.5388 0.4412 -0.0206
H25 H 0.4844 0.4355 -0.0621
H26 H 0.5121 0.4155 0.0091
C32 C 0.22089(14) 0.39784(11) 0.1663(3)
C33 C 0.19921(17) 0.37147(12) 0.1155(3)
C34 C 0.19908(19) 0.34344(13) 0.1464(4)
H27 H 0.2150 0.3403 0.1989
C35 C 0.1772(3) 0.32071(14) 0.1040(4)
C36 C 0.1539(2) 0.32427(15) 0.0266(4)
C37 C 0.1519(3) 0.35226(14) -0.0053(4)
H28 H 0.1352 0.3554 -0.0575
C38 C 0.1746(2) 0.37553(13) 0.0402(3)
H29 H 0.1732 0.3948 0.0187
C39 C 0.1255(2) 0.29949(14) -0.0205(4)
C40 C 0.0844(3) 0.29154(18) -0.0080(5)
H30 H 0.0724 0.3013 0.0276
C41 C 0.0610(2) 0.26646(13) -0.0554(4)
H31 H 0.0347 0.2577 -0.0455
C42 C 0.07587(18) 0.25492(10) -0.1150(3)
C43 C 0.1138(2) 0.26644(14) -0.1291(4)
H32 H 0.1239 0.2593 -0.1699
C44 C 0.1378(3) 0.28938(17) -0.0812(5)
H33 H 0.1638 0.2983 -0.0917
C45 C 0.04726(18) 0.23029(10) -0.1635(3)
C46 C 0.1975(6) 0.2906(3) 0.1312(10)
H34 H 0.1825 0.2840 0.1693
H35 H 0.1859 0.2770 0.0871
N5 N 0.2482(7) 0.2839(5) 0.1648(13)
C47 C 0.2819(9) 0.2882(6) 0.1193(13)
H36 H 0.2764 0.2939 0.0677
N6 N 0.3153(8) 0.2826(6) 0.1650(13)
C48 C 0.3125(8) 0.2629(6) 0.2449(13)
H37 H 0.3357 0.2522 0.2827
C49 C 0.2642(8) 0.2681(6) 0.2351(14)
H38 H 0.2467 0.2623 0.2678
C50 C 0.3624(7) 0.2703(6) 0.1558(14)
H39 H 0.3838 0.2648 0.2058
H40 H 0.3770 0.2857 0.1330
H41 H 0.3558 0.2527 0.1227
C51 C 0.16663(12) 0.44937(10) 0.2484(3)
C52 C 0.11708(13) 0.45163(11) 0.2504(3)
C53 C 0.08486(16) 0.46632(16) 0.1968(4)
H42 H 0.0923 0.4735 0.1535
C54 C 0.04074(17) 0.47146(16) 0.2024(4)
C55 C 0.02480(15) 0.45483(14) 0.2503(3)
C56 C 0.05609(17) 0.43655(14) 0.2984(4)
H43 H 0.0464 0.4248 0.3337
C57 C 0.10182(16) 0.43451(14) 0.2974(4)
H44 H 0.1226 0.4208 0.3303
C58 C 0.0025(8) 0.4958(5) 0.1793(13)
H45 H -0.0214 0.4894 0.2027
H46 H 0.0173 0.5137 0.2081
N7 N -0.0239(10) 0.5070(5) 0.1056(15)
C59 C -0.0242(10) 0.5401(5) 0.0888(17)
H47 H -0.0073 0.5555 0.1209
N8 N -0.0497(10) 0.5421(6) 0.0280(15)
C60 C -0.0777(14) 0.5096(7) -0.0076(19)
H48 H -0.1032 0.5067 -0.0526
C61 C -0.0539(15) 0.4886(6) 0.046(2)
H49 H -0.0567 0.4676 0.0434
C62 C -0.0744(11) 0.5681(6) -0.0244(16)
H50 H -0.0974 0.5601 -0.0701
H51 H -0.0511 0.5799 -0.0390
H52 H -0.0903 0.5808 0.0031
Cu1A Cu 0.761397(14) 0.460006(12) 0.31689(3)
Cu1A_2 Cu -0.238603(14) 0.460006(12) 0.31689(3)
Cu1A_3 Cu 0.761397(14) 0.460006(12) 1.31689(3)
Cu1B Cu 0.738603(14) 0.960006(12) 1.18311(3)
Cu2A Cu 0.740956(14) 0.426490(11) 0.19381(3)
Cu2A_2 Cu -0.259044(14) 0.426490(11) 0.19381(3)
Cu2A_3 Cu 0.740956(14) 0.426490(11) 1.19381(3)
Cu2B Cu 0.759044(14) 0.926490(11) 1.30619(3)
Cu3A Cu 0.52950(2) 0.691236(10) 0.71053(4)
Cu3B Cu -0.02950(2) 0.191236(10) -0.21053(4)
Cu3C Cu 0.02950(2) 0.191236(10) -0.28947(4)
O1A O 0.74159(8) 0.49369(6) 1.24754(16)
O1A_2 O 0.74159(8) 0.49369(6) 0.24754(16)
O2A O 0.72184(9) 0.46515(6) 1.14357(16)
O2A_2 O 0.72184(9) 0.46515(6) 0.14357(16)
O3B O 0.72042(10) 0.92225(7) 1.13080(18)
O3A O 0.77958(10) 0.42225(7) 0.36920(18)
O4B O 0.73632(9) 0.89332(6) 1.23634(19)
O4A O 0.76368(9) 0.39332(6) 0.26366(19)
O5A O 0.69583(8) 0.45331(6) 0.30762(16)
O6A O 0.67903(8) 0.42305(6) 0.20691(17)
O7A O -0.17645(8) 0.46244(7) 0.30497(19)
O7A_2 O 0.82355(8) 0.46244(7) 0.30497(19)
O8A O -0.19395(8) 0.43432(6) 0.19915(18)
O8A_2 O 0.80605(8) 0.43432(6) 0.19915(18)
O9A O 0.56469(11) 0.66294(6) 0.7882(2)
O10A O 0.50985(11) 0.65912(6) 0.84613(18)
O11B O 0.51328(12) 0.72013(6) 0.85377(18)
O11C O 0.48672(12) 0.72013(6) 0.64623(18)
O12B O 0.55991(11) 0.72408(6) 0.7769(2)
O12C O 0.44009(11) 0.72408(6) 0.7231(2)
O13A O 0.72518(13) 0.40064(9) 0.0904(2)
O14A O 0.77935(10) 0.48480(8) 0.42019(18)
O15A O 0.57790(15) 0.68918(8) 0.6472(3)
C1A C 0.72452(12) 0.48947(9) 1.1773(2)
C2A C 0.70491(14) 0.51557(9) 1.1299(2)
C3A C 0.69786(18) 0.54247(10) 1.1639(3)
H1A H 0.7081 0.5443 1.2178
C4A C 0.6760(2) 0.56645(11) 1.1194(3)
H2A H 0.6718 0.5845 1.1431
C5A C 0.66032(19) 0.56411(11) 1.0403(3)
C6A C 0.6678(2) 0.53779(12) 1.0071(3)
H3A H 0.6586 0.5362 0.9532
C7A C 0.68859(18) 0.51378(10) 1.0512(3)
H4A H 0.6917 0.4956 1.0270
C8A C 0.6341(2) 0.58861(11) 0.9911(3)
C9A C 0.64998(19) 0.60258(11) 0.9386(3)
C10A C 0.62239(18) 0.62367(10) 0.8890(3)
H5A H 0.6339 0.6331 0.8523
C11A C 0.57930(18) 0.63082(9) 0.8929(3)
C12A C 0.5627(2) 0.61764(11) 0.9482(3)
H6A H 0.5332 0.6234 0.9521
C13A C 0.5886(2) 0.59644(11) 0.9970(3)
H7A H 0.5770 0.5872 1.0337
C14A C 0.54882(18) 0.65330(8) 0.8372(3)
C15A C 0.6982(3) 0.59940(18) 0.9367(4)
H8A H 0.7003 0.5809 0.9089
H9A H 0.7051 0.6162 0.9072
N1A N 0.7340(2) 0.5985(2) 1.0095(5)
C16A C 0.7428(4) 0.6261(3) 1.0571(8)
H10A H 0.7267 0.6446 1.0478
N2A N 0.7742(5) 0.6190(4) 1.1084(8)
C17A C 0.7940(4) 0.5836(3) 1.1083(7)
H11A H 0.8180 0.5733 1.1457
C18A C 0.7646(4) 0.5738(3) 1.0366(6)
H12A H 0.7651 0.5552 1.0123
C19A C 0.8011(8) 0.6331(6) 1.1868(12)
H13A H 0.8258 0.6194 1.2152
H14A H 0.7794 0.6367 1.2159
H15A H 0.8152 0.6520 1.1786
C20A C 0.66896(11) 0.43728(9) 0.2578(3)
C21A C 0.61821(11) 0.43635(9) 0.2562(2)
C22A C 0.60187(12) 0.45866(10) 0.2936(3)
H16A H 0.6227 0.4735 0.3215
C23A C 0.55533(14) 0.45933(11) 0.2903(3)
C24A C 0.52543(12) 0.43603(10) 0.2524(3)
C25A C 0.54273(13) 0.41379(9) 0.2177(3)
H17A H 0.5228 0.3980 0.1928
C26A C 0.58901(12) 0.41413(9) 0.2189(3)
H18A H 0.6005 0.3989 0.1937
C27A C 0.5356(3) 0.4887(2) 0.3135(7)
H19A H 0.5613 0.5021 0.3410
H20A H 0.5154 0.4991 0.2680
N3A N 0.5089(4) 0.4793(3) 0.3622(8)
C28A C 0.5329(6) 0.4635(5) 0.4363(13)
H21A H 0.5653 0.4594 0.4587
N4A N 0.5032(7) 0.4578(6) 0.4584(13)
C29A C 0.4519(5) 0.4761(4) 0.4167(9)
H22A H 0.4245 0.4778 0.4315
C30A C 0.4631(5) 0.4881(4) 0.3522(10)
H23A H 0.4435 0.4996 0.3116
C31A C 0.4908(11) 0.4355(5) 0.5130(15)
H24A H 0.4612 0.4412 0.5206
H25A H 0.5156 0.4355 0.5621
H26A H 0.4879 0.4155 0.4909
C32B C 0.72089(14) 0.89784(11) 1.1663(3)
C33B C 0.69921(17) 0.87147(12) 1.1155(3)
C34B C 0.69908(19) 0.84344(13) 1.1464(4)
H27B H 0.7150 0.8403 1.1989
C35B C 0.6772(3) 0.82071(14) 1.1040(4)
C36B C 0.6539(2) 0.82427(15) 1.0266(4)
C37B C 0.6519(3) 0.85226(14) 0.9947(4)
H28B H 0.6352 0.8554 0.9425
C38B C 0.6746(2) 0.87553(13) 1.0402(3)
H29B H 0.6732 0.8948 1.0187
C39B C 0.6255(2) 0.79949(14) 0.9795(4)
C40B C 0.5844(3) 0.79154(18) 0.9920(5)
H30B H 0.5724 0.8013 1.0276
C41B C 0.5610(2) 0.76646(13) 0.9446(4)
H31B H 0.5347 0.7577 0.9545
C42B C 0.57587(18) 0.75492(10) 0.8850(3)
C43B C 0.6138(2) 0.76644(14) 0.8709(4)
H32B H 0.6239 0.7593 0.8301
C44B C 0.6378(3) 0.78938(17) 0.9188(5)
H33B H 0.6638 0.7983 0.9083
C45B C 0.54726(18) 0.73029(10) 0.8365(3)
C46B C 0.6975(6) 0.7906(3) 1.1312(10)
H34B H 0.6825 0.7840 1.1693
H35B H 0.6859 0.7770 1.0871
N5B N 0.7482(7) 0.7839(5) 1.1648(13)
C47B C 0.7819(9) 0.7882(6) 1.1193(13)
H36B H 0.7764 0.7939 1.0677
N6B N 0.8153(8) 0.7826(6) 1.1650(13)
C48B C 0.8125(8) 0.7629(6) 1.2449(13)
H37B H 0.8357 0.7522 1.2827
C49B C 0.7642(8) 0.7681(6) 1.2351(14)
H38B H 0.7467 0.7623 1.2678
C50B C 0.8624(7) 0.7703(6) 1.1558(14)
H39B H 0.8838 0.7648 1.2058
H40B H 0.8770 0.7857 1.1330
H41B H 0.8558 0.7527 1.1227
C51A C -0.16663(12) 0.44937(10) 0.2516(3)
C52A C -0.11708(13) 0.45163(11) 0.2496(3)
C53A C -0.08486(16) 0.46632(16) 0.3032(4)
H42A H -0.0923 0.4735 0.3465
C54A C -0.04074(17) 0.47146(16) 0.2976(4)
C55A C -0.02480(15) 0.45483(14) 0.2497(3)
C56A C -0.05609(17) 0.43655(14) 0.2016(4)
H43A H -0.0464 0.4248 0.1663
C57A C -0.10182(16) 0.43451(14) 0.2026(4)
H44A H -0.1226 0.4208 0.1697
C58A C -0.0025(8) 0.4958(5) 0.3207(13)
H45A H 0.0214 0.4894 0.2973
H46A H -0.0173 0.5137 0.2919
N7A N 0.0239(10) 0.5070(5) 0.3944(15)
C59A C 0.0242(10) 0.5401(5) 0.4112(17)
H47A H 0.0073 0.5555 0.3791
N8A N 0.0497(10) 0.5421(6) 0.4720(15)
C60A C 0.0777(14) 0.5096(7) 0.5076(19)
H48A H 0.1032 0.5067 0.5526
C61A C 0.0539(15) 0.4886(6) 0.454(2)
H49A H 0.0567 0.4676 0.4566
C62A C 0.0744(11) 0.5681(6) 0.5244(16)
H50A H 0.0974 0.5601 0.5701
H51A H 0.0511 0.5799 0.5390
H52A H 0.0903 0.5808 0.4969
loop_
_geom_bond_atom_site_label_1
_geom_bond_atom_site_label_2
_geom_bond_site_symmetry_1
_geom_bond_site_symmetry_2
Cu1 Cu2 1_555 1_555
Cu2 O2 1_555 1_555
Cu3 O9 1_555 1_555
O1 Cu1 1_555 1_555
O2 C1 1_555 1_555
O3 Cu1 1_555 1_555
O4 Cu2 1_555 1_555
O5 Cu1 1_555 1_555
O6 Cu2 1_555 1_555
O7 Cu1 1_555 1_555
O8 Cu2 1_555 1_555
O9 C14 1_555 1_555
O10 C14 1_555 1_555
O11 C45 1_555 1_555
O12 C45 1_555 1_555
O13 Cu2 1_555 1_555
O14 Cu1 1_555 1_555
O15 Cu3 1_555 1_555
C1 O1 1_555 1_555
C2 C1 1_555 1_555
C3 C2 1_555 1_555
H1 C3 1_555 1_555
C4 C3 1_555 1_555
H2 C4 1_555 1_555
C5 C4 1_555 1_555
C6 C5 1_555 1_555
H3 C6 1_555 1_555
C7 C2 1_555 1_555
H4 C7 1_555 1_555
C8 C5 1_555 1_555
C9 C8 1_555 1_555
C10 C9 1_555 1_555
H5 C10 1_555 1_555
C11 C10 1_555 1_555
C12 C11 1_555 1_555
H6 C12 1_555 1_555
C13 C8 1_555 1_555
H7 C13 1_555 1_555
C14 C11 1_555 1_555
C15 C9 1_555 1_555
H8 C15 1_555 1_555
H9 C15 1_555 1_555
N1 C15 1_555 1_555
C16 N1 1_555 1_555
H10 C16 1_555 1_555
N2 C16 1_555 1_555
C17 N2 1_555 1_555
H11 C17 1_555 1_555
C18 N1 1_555 1_555
H12 C18 1_555 1_555
C19 N2 1_555 1_555
H13 C19 1_555 1_555
H14 C19 1_555 1_555
H15 C19 1_555 1_555
C20 O5 1_555 1_555
C21 C20 1_555 1_555
C22 C21 1_555 1_555
H16 C22 1_555 1_555
C23 C22 1_555 1_555
C24 C23 1_555 1_555
C25 C24 1_555 1_555
H17 C25 1_555 1_555
C26 C21 1_555 1_555
H18 C26 1_555 1_555
C27 C23 1_555 1_555
H19 C27 1_555 1_555
H20 C27 1_555 1_555
N3 C27 1_555 1_555
C28 N3 1_555 1_555
H21 C28 1_555 1_555
N4 C28 1_555 1_555
C29 N4 1_555 1_555
H22 C29 1_555 1_555
C30 N3 1_555 1_555
H23 C30 1_555 1_555
C31 N4 1_555 1_555
H24 C31 1_555 1_555
H25 C31 1_555 1_555
H26 C31 1_555 1_555
C32 O3 1_555 1_555
C33 C32 1_555 1_555
C34 C33 1_555 1_555
H27 C34 1_555 1_555
C35 C34 1_555 1_555
C36 C35 1_555 1_555
C37 C36 1_555 1_555
H28 C37 1_555 1_555
C38 C33 1_555 1_555
H29 C38 1_555 1_555
C39 C36 1_555 1_555
C40 C39 1_555 1_555
H30 C40 1_555 1_555
C41 C40 1_555 1_555
H31 C41 1_555 1_555
C42 C41 1_555 1_555
C43 C42 1_555 1_555
H32 C43 1_555 1_555
C44 C39 1_555 1_555
H33 C44 1_555 1_555
C45 C42 1_555 1_555
C46 C35 1_555 1_555
H34 C46 1_555 1_555
H35 C46 1_555 1_555
N5 C46 1_555 1_555
C47 N5 1_555 1_555
H36 C47 1_555 1_555
N6 C47 1_555 1_555
C48 N6 1_555 1_555
H37 C48 1_555 1_555
C49 N5 1_555 1_555
H38 C49 1_555 1_555
C50 N6 1_555 1_555
H39 C50 1_555 1_555
H40 C50 1_555 1_555
H41 C50 1_555 1_555
C51 O7 1_555 1_555
C52 C51 1_555 1_555
C53 C52 1_555 1_555
H42 C53 1_555 1_555
C54 C53 1_555 1_555
C55 C54 1_555 1_555
C56 C55 1_555 1_555
H43 C56 1_555 1_555
C57 C52 1_555 1_555
H44 C57 1_555 1_555
C58 C54 1_555 1_555
H45 C58 1_555 1_555
H46 C58 1_555 1_555
N7 C58 1_555 1_555
C59 N7 1_555 1_555
H47 C59 1_555 1_555
N8 C59 1_555 1_555
C60 N8 1_555 1_555
H48 C60 1_555 1_555
C61 N7 1_555 1_555
H49 C61 1_555 1_555
C62 N8 1_555 1_555
H50 C62 1_555 1_555
H51 C62 1_555 1_555
H52 C62 1_555 1_555
Cu1A Cu2A 1_555 1_555
Cu1A_2 Cu2A_2 1_555 1_555
Cu1A_3 Cu2A_3 1_555 1_555
Cu1B Cu2B 1_555 1_555
Cu2A O2A_2 1_555 1_555
Cu2A_2 O8A 1_555 1_555
Cu2A_3 O2A 1_555 1_555
Cu2B O4B 1_555 1_555
Cu3A Cu3 1_555 1_555
Cu3B O11 1_555 1_555
Cu3C O12 1_555 1_555
O1A Cu1A_3 1_555 1_555
O1A_2 Cu1A 1_555 1_555
O2A C1A 1_555 1_555
O3B Cu1B 1_555 1_555
O3A Cu1A 1_555 1_555
O4B C32B 1_555 1_555
O4A Cu2A 1_555 1_555
O5A Cu1A 1_555 1_555
O6A Cu2A 1_555 1_555
O7A Cu1A_2 1_555 1_555
O7A_2 Cu1A 1_555 1_555
O8A C51A 1_555 1_555
O8A_2 Cu2A 1_555 1_555
O9A Cu3A 1_555 1_555
O10A Cu3 1_555 1_555
O11B Cu3 1_555 1_555
O11C Cu3A 1_555 1_555
O12B Cu3A 1_555 1_555
O12C Cu3 1_555 1_555
O13A Cu2A 1_555 1_555
O14A Cu1A 1_555 1_555
O15A Cu3A 1_555 1_555
C1A O1A 1_555 1_555
C2A C1A 1_555 1_555
C3A C2A 1_555 1_555
H1A C3A 1_555 1_555
C4A C3A 1_555 1_555
H2A C4A 1_555 1_555
C5A C4A 1_555 1_555
C6A C5A 1_555 1_555
H3A C6A 1_555 1_555
C7A C2A 1_555 1_555
H4A C7A 1_555 1_555
C8A C5A 1_555 1_555
C9A C8A 1_555 1_555
C10A C9A 1_555 1_555
H5A C10A 1_555 1_555
C11A C10A 1_555 1_555
C12A C11A 1_555 1_555
H6A C12A 1_555 1_555
C13A C8A 1_555 1_555
H7A C13A 1_555 1_555
C14A O9A 1_555 1_555
C15A C9A 1_555 1_555
H8A C15A 1_555 1_555
H9A C15A 1_555 1_555
N1A C15A 1_555 1_555
C16A N1A 1_555 1_555
H10A C16A 1_555 1_555
N2A C16A 1_555 1_555
C17A N2A 1_555 1_555
H11A C17A 1_555 1_555
C18A N1A 1_555 1_555
H12A C18A 1_555 1_555
C19A N2A 1_555 1_555
H13A C19A 1_555 1_555
H14A C19A 1_555 1_555
H15A C19A 1_555 1_555
C20A O5A 1_555 1_555
C21A C20A 1_555 1_555
C22A C21A 1_555 1_555
H16A C22A 1_555 1_555
C23A C22A 1_555 1_555
C24A C24 1_555 1_555
C25A C24A 1_555 1_555
H17A C25A 1_555 1_555
C26A C21A 1_555 1_555
H18A C26A 1_555 1_555
C27A C23A 1_555 1_555
H19A C27A 1_555 1_555
H20A C27A 1_555 1_555
N3A C27A 1_555 1_555
C28A N3A 1_555 1_555
H21A C28A 1_555 1_555
N4A C28A 1_555 1_555
C29A N4A 1_555 1_555
H22A C29A 1_555 1_555
C30A N3A 1_555 1_555
H23A C30A 1_555 1_555
C31A N4A 1_555 1_555
H24A C31A 1_555 1_555
H25A C31A 1_555 1_555
H26A C31A 1_555 1_555
C32B O3B 1_555 1_555
C33B C32B 1_555 1_555
C34B C33B 1_555 1_555
H27B C34B 1_555 1_555
C35B C34B 1_555 1_555
C36B C35B 1_555 1_555
C37B C36B 1_555 1_555
H28B C37B 1_555 1_555
C38B C33B 1_555 1_555
H29B C38B 1_555 1_555
C39B C36B 1_555 1_555
C40B C39B 1_555 1_555
H30B C40B 1_555 1_555
C41B C40B 1_555 1_555
H31B C41B 1_555 1_555
C42B C41B 1_555 1_555
C43B C42B 1_555 1_555
H32B C43B 1_555 1_555
C44B C39B 1_555 1_555
H33B C44B 1_555 1_555
C45B O11B 1_555 1_555
C46B C35B 1_555 1_555
H34B C46B 1_555 1_555
H35B C46B 1_555 1_555
N5B C46B 1_555 1_555
C47B N5B 1_555 1_555
H36B C47B 1_555 1_555
N6B C47B 1_555 1_555
C48B N6B 1_555 1_555
H37B C48B 1_555 1_555
C49B N5B 1_555 1_555
H38B C49B 1_555 1_555
C50B N6B 1_555 1_555
H39B C50B 1_555 1_555
H40B C50B 1_555 1_555
H41B C50B 1_555 1_555
C51A O7A 1_555 1_555
C52A C51A 1_555 1_555
C53A C52A 1_555 1_555
H42A C53A 1_555 1_555
C54A C53A 1_555 1_555
C55A C55 1_555 1_555
C56A C55A 1_555 1_555
H43A C56A 1_555 1_555
C57A C52A 1_555 1_555
H44A C57A 1_555 1_555
C58A C54A 1_555 1_555
H45A C58A 1_555 1_555
H46A C58A 1_555 1_555
N7A C58A 1_555 1_555
C59A N7A 1_555 1_555
H47A C59A 1_555 1_555
N8A C59A 1_555 1_555
C60A N8A 1_555 1_555
H48A C60A 1_555 1_555
C61A N7A 1_555 1_555
H49A C61A 1_555 1_555
C62A N8A 1_555 1_555
H50A C62A 1_555 1_555
H51A C62A 1_555 1_555
H52A C62A 1_555 1_555
O4 C32 1_555 1_555
O6 C20 1_555 1_555
O8 C51 1_555 1_555
O10 Cu3A 1_555 1_555
C6 C7 1_555 1_555
C12 C13 1_555 1_555
C17 C18 1_555 1_555
C25 C26 1_555 1_555
C29 C30 1_555 1_555
C37 C38 1_555 1_555
C43 C44 1_555 1_555
C48 C49 1_555 1_555
C56 C57 1_555 1_555
C60 C61 1_555 1_555
Cu3B Cu3C 1_555 1_555
O6A C20A 1_555 1_555
O10A C14A 1_555 1_555
O12B C45B 1_555 1_555
C6A C7A 1_555 1_555
C11A C14A 1_555 1_555
C12A C13A 1_555 1_555
C17A C18A 1_555 1_555
C23A C24A 1_555 1_555
C25A C26A 1_555 1_555
C29A C30A 1_555 1_555
C37B C38B 1_555 1_555
C42B C45B 1_555 1_555
C43B C44B 1_555 1_555
C48B C49B 1_555 1_555
C54A C55A 1_555 1_555
C56A C57A 1_555 1_555
C60A C61A 1_555 1_555

#END
