
#######################################################################
#
#                 Cambridge Crystallographic Data Centre
#                                CCDC 
#
#######################################################################
#
# If this CIF has been generated from an entry in the Cambridge 
# Structural Database, then it will include bibliographic, chemical, 
# crystal, experimental, refinement or atomic coordinate data resulting 
# from the CCDC's data processing and validation procedures.
#
#######################################################################

data_PALTON
_chemical_formula_moiety         '(C24 H24 Cu1 N4 O5)n'
_symmetry_cell_setting           rhombohedral
_symmetry_space_group_name_H-M   'R -3 m'
_symmetry_Int_Tables_number      166
_space_group_name_Hall           '-R 3 2"'
loop_
_symmetry_equiv_pos_site_id
_symmetry_equiv_pos_as_xyz
1 x,y,z
2 -y,x-y,z
3 -x+y,-x,z
4 y,x,-z
5 x-y,-y,-z
6 -x,-x+y,-z
7 2/3+x,1/3+y,1/3+z
8 2/3-y,1/3+x-y,1/3+z
9 2/3-x+y,1/3-x,1/3+z
10 2/3+y,1/3+x,1/3-z
11 2/3+x-y,1/3-y,1/3-z
12 2/3-x,1/3-x+y,1/3-z
13 1/3+x,2/3+y,2/3+z
14 1/3-y,2/3+x-y,2/3+z
15 1/3-x+y,2/3-x,2/3+z
16 1/3+y,2/3+x,2/3-z
17 1/3+x-y,2/3-y,2/3-z
18 1/3-x,2/3-x+y,2/3-z
19 -x,-y,-z
20 y,-x+y,-z
21 x-y,x,-z
22 -y,-x,z
23 -x+y,y,z
24 x,x-y,z
25 1/3-x,2/3-y,2/3-z
26 1/3+y,2/3-x+y,2/3-z
27 1/3+x-y,2/3+x,2/3-z
28 1/3-y,2/3-x,2/3+z
29 1/3-x+y,2/3+y,2/3+z
30 1/3+x,2/3+x-y,2/3+z
31 2/3-x,1/3-y,1/3-z
32 2/3+y,1/3-x+y,1/3-z
33 2/3+x-y,1/3+x,1/3-z
34 2/3-y,1/3-x,1/3+z
35 2/3-x+y,1/3+y,1/3+z
36 2/3+x,1/3+x-y,1/3+z
_cell_length_a                   42.6542(8)
_cell_length_b                   42.6542(8)
_cell_length_c                   12.8454(3)
_cell_angle_alpha                90
_cell_angle_beta                 90
_cell_angle_gamma                120
_cell_volume                     20239.6
loop_
_atom_site_label
_atom_site_type_symbol
_atom_site_fract_x
_atom_site_fract_y
_atom_site_fract_z
_atom_site_U_iso_or_equiv
_atom_site_thermal_displace_type
Cu1 Cu 0.181037(9) 0.362075(18) 0.27216(4) 0.0754 Uani
O1 O 0.22185(7) 0.38020(8) 0.3663(2) 0.1011 Uani
O2 O 0.19714(8) 0.33054(10) 0.4723(3) 0.1068 Uani
O3 O 0.20501(7) 0.41001(14) 0.1745(4) 0.1241 Uani
C1 C 0.22165(11) 0.36127(15) 0.4438(4) 0.0990 Uani
C2 C 0.25557(12) 0.37926(14) 0.5103(4) 0.1180 Uani
C3 C 0.28323(13) 0.41307(16) 0.4879(4) 0.1430 Uani
H1 H 0.2806 0.4258 0.4311 0.1720 Uiso
C4 C 0.31515(15) 0.42960(18) 0.5453(6) 0.1676 Uani
C5 C 0.31710(16) 0.4104(2) 0.6339(5) 0.1587 Uani
C6 C 0.2879(2) 0.3739(2) 0.6631(6) 0.2021 Uani
C7 C 0.25714(16) 0.35964(17) 0.5989(5) 0.1559 Uani
H3 H 0.2370 0.3366 0.6145 0.1880 Uiso
C13 C 0.3642(9) 0.5022(7) 0.2560(18) 0.4078 Uani
C14 C 0.3535(8) 0.5038(7) 0.3531(19) 0.3794 Uani
C15 C 0.3804(6) 0.4550(7) 0.1707(15) 0.3252 Uani
C16 C 0.3438(3) 0.4682(2) 0.5228(11) 0.2222 Uani
C17 C 0.3637(6) 0.4604(6) 0.3437(16) 0.3647 Uani
H11 H 0.3688 0.5193 0.2024 0.4920 Uiso
H12 H 0.3468 0.5207 0.3772 0.4550 Uiso
H13 H 0.3802 0.4640 0.1007 0.4880 Uiso
H14 H 0.3644 0.4286 0.1724 0.4880 Uiso
H15 H 0.4051 0.4610 0.1887 0.4880 Uiso
H17 H 0.3351 0.4844 0.5494 0.2670 Uiso
H18 H 0.3659 0.4737 0.5624 0.2670 Uiso
N3 N 0.3537(4) 0.4771(5) 0.4122(11) 0.3298 Uani
N4 N 0.3675(6) 0.4719(6) 0.2462(14) 0.4073 Uani
Cu1P Cu 0.152295(20) 0.304592(18) 0.39451(4) 0.0754 Uani
Cu1K Cu 0.485630(9) 0.514371(20) 1.06117(4) 0.0754 Uani
Cu1N Cu 0.514371(20) 0.485630(9) 0.93883(4) 0.0754 Uani
O1K O 0.44482(7) 0.49168(11) 0.9670(2) 0.1011 Uani
O1V O 0.15835(11) 0.38020(8) 0.3663(2) 0.1011 Uani
O2K O 0.46953(8) 0.46673(13) 0.8610(3) 0.1068 Uani
O2P O 0.19993(13) 0.33613(10) 0.1944(3) 0.1068 Uani
O2X O 0.13619(8) 0.33613(10) 0.1944(3) 0.1068 Uani
C1K C 0.44502(11) 0.47295(19) 0.8895(4) 0.0990 Uani
C2K C 0.41110(12) 0.45702(18) 0.8230(4) 0.1180 Uani
C3K C 0.38344(13) 0.46317(21) 0.8454(4) 0.1430 Uani
H1K H 0.3861 0.4785 0.9022 0.1720 Uiso
C4K C 0.35152(15) 0.44778(23) 0.7880(6) 0.1676 Uani
C5K C 0.34957(16) 0.42663(26) 0.6994(5) 0.1587 Uani
C6K C 0.3788(2) 0.4193(3) 0.6702(6) 0.2021 Uani
C7K C 0.40953(16) 0.43583(23) 0.7344(5) 0.1559 Uani
H3K H 0.4297 0.4329 0.7188 0.1880 Uiso
C13K C 0.3025(9) 0.4713(11) 1.0773(18) 0.4078 Uani
C14K C 0.3132(8) 0.4836(11) 0.9802(19) 0.3794 Uani
C15K C 0.2863(6) 0.4079(9) 1.1626(15) 0.3252 Uani
C16K C 0.3229(3) 0.4577(4) 0.8105(11) 0.2222 Uani
C17K C 0.3030(6) 0.4300(8) 0.9896(16) 0.3647 Uani
H11K H 0.2979 0.4838 1.1309 0.4920 Uiso
H12K H 0.3199 0.5072 0.9561 0.4550 Uiso
H13K H 0.2865 0.4171 1.2326 0.4880 Uiso
H14K H 0.3023 0.3975 1.1609 0.4880 Uiso
H15K H 0.2616 0.3892 1.1446 0.4880 Uiso
H17K H 0.3316 0.4826 0.7839 0.2670 Uiso
H18K H 0.3008 0.4411 0.7709 0.2670 Uiso
N3K N 0.3130(4) 0.4567(6) 0.9211(11) 0.3298 Uani
N4K N 0.2992(6) 0.4377(8) 1.0871(14) 0.4073 Uani
loop_
_atom_site_aniso_label
_atom_site_aniso_U_11
_atom_site_aniso_U_22
_atom_site_aniso_U_33
_atom_site_aniso_U_23
_atom_site_aniso_U_13
_atom_site_aniso_U_12
Cu1 0.0600(4) 0.1210(6) 0.0655(5) -0.0479(3) -0.02397(16) 0.0605(3)
O1 0.0715(16) 0.139(2) 0.0932(19) -0.0351(16) -0.0376(14) 0.0529(16)
O2 0.0755(18) 0.140(2) 0.098(2) -0.0312(17) -0.0480(16) 0.0487(17)
O3 0.120(2) 0.161(4) 0.105(3) -0.012(3) -0.0061(14) 0.0805(19)
C1 0.070(2) 0.148(4) 0.093(3) -0.054(3) -0.044(2) 0.065(2)
C2 0.089(3) 0.145(4) 0.114(3) -0.042(3) -0.058(3) 0.054(3)
C3 0.080(3) 0.187(5) 0.113(4) -0.013(3) -0.050(3) 0.030(3)
C4 0.086(3) 0.209(6) 0.144(5) -0.029(4) -0.061(3) 0.026(3)
C5 0.121(4) 0.177(5) 0.156(5) -0.047(4) -0.085(4) 0.058(3)
C6 0.144(5) 0.226(7) 0.177(6) -0.005(5) -0.112(5) 0.048(4)
C7 0.110(4) 0.170(5) 0.149(5) -0.019(3) -0.087(4) 0.041(3)
C13 0.44(3) 0.37(3) 0.290(18) 0.101(18) 0.09(2) 0.11(2)
C14 0.45(2) 0.29(2) 0.245(17) 0.075(15) 0.04(2) 0.070(18)
C15 0.24(2) 0.46(3) 0.229(17) 0.13(2) 0.02(2) 0.14(2)
C16 0.164(10) 0.189(9) 0.212(10) -0.011(8) -0.112(9) 0.012(7)
C17 0.33(2) 0.33(2) 0.294(18) 0.077(17) 0.08(2) 0.060(17)
N3 0.323(17) 0.241(15) 0.260(13) 0.038(10) 0.003(13) 0.017(13)
N4 0.41(2) 0.35(2) 0.302(16) 0.081(18) 0.099(19) 0.07(2)
Cu1P 0.06 0.121 0.0655 -0.0479 -0.02393 0.0605
Cu1K 0.06 0.06 0.0655 0.02393 -0.02397 -0.0005
Cu1N 0.06 0.06 0.0655 0.02397 -0.02393 -0.0005
O1K 0.0715 0.1047 0.0932 -0.0025 -0.0376 0.0186
O1V 0.1047 0.139 0.0932 -0.0351 0.0025 0.0861
O2K 0.0755 0.1181 0.098 -0.0168 -0.048 0.0268
O2P 0.1181 0.14 0.098 -0.0312 0.0168 0.0913
O2X 0.0755 0.14 0.098 -0.0312 -0.048 0.0487
C1K 0.07 0.088 0.093 0.01 -0.044 0.005
C2K 0.089 0.126 0.114 -0.016 -0.058 0.035
C3K 0.08 0.207 0.113 -0.037 -0.05 0.05
C4K 0.086 0.243 0.144 -0.032 -0.061 0.06
C5K 0.121 0.182 0.156 -0.038 -0.085 0.063
C6K 0.144 0.274 0.177 -0.107 -0.112 0.096
C7K 0.11 0.198 0.149 -0.068 -0.087 0.069
C13K 0.44 0.59 0.29 -0.011 0.09 0.33
C14K 0.45 0.6 0.245 -0.035 0.04 0.38
C15K 0.24 0.42 0.229 -0.11 0.02 0.1
C16K 0.164 0.329 0.212 -0.101 -0.112 0.152
C17K 0.33 0.54 0.294 0.003 0.08 0.27
N3K 0.323 0.53 0.26 -0.035 0.003 0.306
N4K 0.41 0.62 0.302 0.018 0.099 0.34
loop_
_geom_bond_atom_site_label_1
_geom_bond_atom_site_label_2
_geom_bond_site_symmetry_1
_geom_bond_site_symmetry_2
Cu1 O1 1_555 1_555
O1 C1 1_555 1_555
O2 C1 1_555 1_555
O3 Cu1 1_555 1_555
C1 C2 1_555 1_555
C2 C3 1_555 1_555
C3 H1 1_555 1_555
C4 C3 1_555 1_555
C5 C4 1_555 1_555
C6 C5 1_555 1_555
C7 C2 1_555 1_555
H3 C7 1_555 1_555
C13 C14 1_555 1_555
C14 H12 1_555 1_555
C15 H13 1_555 1_555
C16 C4 1_555 1_555
C17 N3 1_555 1_555
H11 C13 1_555 1_555
H14 C15 1_555 1_555
H15 C15 1_555 1_555
H17 C16 1_555 1_555
H18 C16 1_555 1_555
N3 C14 1_555 1_555
N4 C13 1_555 1_555
Cu1P Cu1 1_555 1_555
Cu1K Cu1N 1_555 1_555
Cu1N O2K 1_555 1_555
O1K Cu1K 1_555 1_555
O1V Cu1 1_555 1_555
O2K C1K 1_555 1_555
O2P Cu1 1_555 1_555
O2X Cu1 1_555 1_555
C1K O1K 1_555 1_555
C2K C1K 1_555 1_555
C3K C2K 1_555 1_555
H1K C3K 1_555 1_555
C4K C3K 1_555 1_555
C5K C5 1_555 1_555
C6K C5K 1_555 1_555
C7K C2K 1_555 1_555
H3K C7K 1_555 1_555
C13K C14K 1_555 1_555
C14K H12K 1_555 1_555
C15K H13K 1_555 1_555
C16K C4K 1_555 1_555
C17K N3K 1_555 1_555
H11K C13K 1_555 1_555
H14K C15K 1_555 1_555
H15K C15K 1_555 1_555
H17K C16K 1_555 1_555
H18K C16K 1_555 1_555
N3K C14K 1_555 1_555
N4K C13K 1_555 1_555
O2 Cu1P 1_555 1_555
C6 C7 1_555 1_555
C15 N4 1_555 1_555
C16 N3 1_555 1_555
C17 N4 1_555 1_555
C4K C5K 1_555 1_555
C6K C7K 1_555 1_555
C15K N4K 1_555 1_555
C16K N3K 1_555 1_555
C17K N4K 1_555 1_555

#END
