
#######################################################################
#
#                 Cambridge Crystallographic Data Centre
#                                CCDC 
#
#######################################################################
#
# If this CIF has been generated from an entry in the Cambridge 
# Structural Database, then it will include bibliographic, chemical, 
# crystal, experimental, refinement or atomic coordinate data resulting 
# from the CCDC's data processing and validation procedures.
#
#######################################################################

data_PALTUT
_chemical_formula_moiety         'C58 H41 N8 O21 Zn10'
_symmetry_cell_setting           monoclinic
_symmetry_space_group_name_H-M   'C 2/m'
_symmetry_Int_Tables_number      12
_space_group_name_Hall           '-C 2y'
loop_
_symmetry_equiv_pos_site_id
_symmetry_equiv_pos_as_xyz
1 x,y,z
2 -x,y,-z
3 1/2+x,1/2+y,z
4 1/2-x,1/2+y,-z
5 -x,-y,-z
6 x,-y,z
7 1/2-x,1/2-y,-z
8 1/2+x,1/2-y,z
_cell_length_a                   24.3627(7)
_cell_length_b                   23.9175(7)
_cell_length_c                   17.0679(5)
_cell_angle_alpha                90
_cell_angle_beta                 91.5200(10)
_cell_angle_gamma                90
_cell_volume                     9941.88
loop_
_atom_site_label
_atom_site_type_symbol
_atom_site_fract_x
_atom_site_fract_y
_atom_site_fract_z
Zn1 Zn 0.71196(5) 0.5000 0.68110(8)
Zn2 Zn 0.58177(4) 0.5000 0.68485(6)
Zn3 Zn 1.14947(3) 0.06528(3) 0.81419(5)
O1 O 0.6869(6) 0.5000 0.5776(6)
O2 O 0.5899(5) 0.5000 0.5719(4)
O3 O 1.0353(2) 0.0645(2) 0.7057(4)
O4 O 1.0834(3) 0.1100(2) 0.7996(4)
O5 O 0.7113(3) 0.3859(3) 0.8044(5)
O6 O 0.7572(3) 0.4384(3) 0.7095(6)
O7 O 0.6476(3) 0.4536(3) -0.0746(3)
O8 O 0.6476(2) 0.5000 0.7487(3)
C1 C 0.6387(8) 0.5000 0.5405(8)
C2 C 0.6401(7) 0.5000 0.4580(8)
C3 C 0.5885(6) 0.5000 0.4099(7)
H1 H 0.5534 0.5000 0.4330
C4 C 0.5944(6) 0.5000 0.3300(6)
H2 H 0.5623 0.5000 0.2972
C5 C 0.6435(6) 0.5000 0.2964(6)
C6 C 0.6917(6) 0.5000 0.3389(9)
C7 C 0.6899(7) 0.5000 0.4186(9)
H3 H 0.7234 0.5000 0.4484
C8 C 0.7431(8) 0.4793(14) 0.3086(13)
H4 H 0.7633 0.4648 0.3555
H5 H 0.7631 0.5135 0.2933
N1 N 0.7549(9) 0.4392(13) 0.2472(14)
C9 C 0.769(2) 0.4435(13) 0.1729(17)
H6 H 0.7714 0.4786 0.1475
N2 N 0.7785(18) 0.3955(17) 0.1359(16)
C10 C 0.768(2) 0.3569(12) 0.193(2)
H7 H 0.7714 0.3176 0.1875
C11 C 0.752(2) 0.3821(14) 0.257(2)
H8 H 0.7403 0.3637 0.3029
C12 C 1.0430(3) 0.1031(3) 0.7537(5)
C13 C 1.0006(3) 0.1480(4) 0.7549(6)
C14 C 0.9572(5) 0.1496(5) 0.7005(10)
H9 H 0.9567 0.1226 0.6597
C15 C 0.9158(6) 0.1871(7) 0.7019(11)
H10 H 0.8853 0.1847 0.6662
C16 C 0.9193(5) 0.2280(5) 0.7558(9)
C17 C 0.9657(7) 0.2325(7) 0.8058(12)
H11 H 0.9709 0.2646 0.8379
C18 C 1.0029(6) 0.1906(5) 0.8076(10)
H12 H 1.0314 0.1910 0.8467
C19 C 0.7518(4) 0.3969(4) 0.7571(8)
C20 C 0.7952(5) 0.3536(5) 0.7577(9)
C21 C 0.7923(6) 0.3051(6) 0.8054(10)
H13 H 0.7635 0.3011 0.8415
C22 C 0.8296(7) 0.2656(6) 0.7991(10)
C23 C 0.8782(6) 0.2758(5) 0.7588(9)
C24 C 0.8813(6) 0.3217(6) 0.7130(12)
H14 H 0.9117 0.3268 0.6799
C25 C 0.8406(6) 0.3607(6) 0.7149(11)
H15 H 0.8441 0.3939 0.6850
C26 C 0.8351(10) 0.2229(11) 0.8596(14)
H16 H 0.7985 0.2050 0.8614
H17 H 0.8598 0.1944 0.8377
N3 N 0.8529(13) 0.2288(13) 0.9413(15)
C27 C 0.888(2) 0.205(2) 0.990(2)
H18 H 0.9112 0.1747 0.9748
N4 N 0.890(2) 0.225(2) 1.063(2)
C28 C 0.851(3) 0.266(3) 1.059(2)
H19 H 0.8394 0.2884 1.1015
C29 C 0.830(2) 0.270(2) 0.987(3)
H20 H 0.8041 0.2967 0.9695
C30 C 0.6473(4) 0.5000 -0.0405(5)
C31 C 0.6462(5) 0.5000 0.0469(6)
C32 C 0.6410(7) 0.4515(7) 0.0864(6)
H21 H 0.6343 0.4175 0.0591
C33 C 0.6454(9) 0.4524(8) 0.1652(6)
H22 H 0.6497 0.4180 0.1923
C34 C 0.6439(6) 0.5000 0.2071(7)
Zn2B Zn 1.08177(4) -0.0000 0.68485(6)
Zn2B_2 Zn 1.08177(4) 1.0000 0.68485(6)
Zn3E Zn 1.14947(3) 0.93472(3) 0.81419(5)
Zn3B Zn 0.64947(3) 0.56528(3) -0.18581(5)
Zn3B_2 Zn 0.64947(3) 0.56528(3) 0.81419(5)
Zn3G Zn 0.64947(3) 0.43472(3) -0.18581(5)
Zn3G_2 Zn 0.64947(3) 0.43472(3) 0.81419(5)
O3E O 1.0353(2) 0.9355(2) 0.7057(4)
O3B O 0.5353(2) 0.5645(2) 0.7057(4)
O3G O 0.5353(2) 0.4355(2) 0.7057(4)
O4E O 1.0834(3) 0.8900(2) 0.7996(4)
O5E O 0.7113(3) 0.6141(3) 0.8044(5)
O5B O 1.2113(3) 0.8859(3) 0.8044(5)
O5G O 1.2113(3) 0.1141(3) 0.8044(5)
O6E O 0.7572(3) 0.5616(3) 0.7095(6)
O7E O 0.6476(3) 0.5464(3) -0.0746(3)
O7B O 1.1476(3) 0.9536(3) 0.9254(3)
O7G O 1.1476(3) 0.0464(3) 0.9254(3)
O8B O 1.1476(2) 0.0000 0.7487(3)
O8B_2 O 1.1476(2) 1.0000 0.7487(3)
C8E C 0.7431(8) 0.5207(14) 0.3086(13)
H4E H 0.7633 0.5352 0.3555
H5E H 0.7631 0.4865 0.2933
N1E N 0.7549(9) 0.5608(13) 0.2472(14)
C9E C 0.769(2) 0.5565(13) 0.1729(17)
H6E H 0.7714 0.5214 0.1475
N2E N 0.7785(18) 0.6045(17) 0.1359(16)
C10E C 0.768(2) 0.6431(12) 0.193(2)
H7E H 0.7714 0.6824 0.1875
C11E C 0.752(2) 0.6179(14) 0.257(2)
H8E H 0.7403 0.6363 0.3029
C12E C 1.0430(3) 0.8969(3) 0.7537(5)
C13E C 1.0006(3) 0.8520(4) 0.7549(6)
C14E C 0.9572(5) 0.8504(5) 0.7005(10)
H9E H 0.9567 0.8774 0.6597
C15E C 0.9158(6) 0.8129(7) 0.7019(11)
H10E H 0.8853 0.8153 0.6662
C16E C 0.9193(5) 0.7720(5) 0.7558(9)
C17E C 0.9657(7) 0.7675(7) 0.8058(12)
H11E H 0.9709 0.7354 0.8379
C18E C 1.0029(6) 0.8094(5) 0.8076(10)
H12E H 1.0314 0.8090 0.8467
C19E C 0.7518(4) 0.6031(4) 0.7571(8)
C20E C 0.7952(5) 0.6464(5) 0.7577(9)
C21E C 0.7923(6) 0.6949(6) 0.8054(10)
H13E H 0.7635 0.6989 0.8415
C22E C 0.8296(7) 0.7344(6) 0.7991(10)
C23E C 0.8782(6) 0.7242(5) 0.7588(9)
C24E C 0.8813(6) 0.6783(6) 0.7130(12)
H14E H 0.9117 0.6732 0.6799
C25E C 0.8406(6) 0.6393(6) 0.7149(11)
H15E H 0.8441 0.6061 0.6850
C26E C 0.8351(10) 0.7771(11) 0.8596(14)
H16E H 0.7985 0.7950 0.8614
H17E H 0.8598 0.8056 0.8377
N3E N 0.8529(13) 0.7712(13) 0.9413(15)
C27E C 0.888(2) 0.795(2) 0.990(2)
H18E H 0.9112 0.8253 0.9748
N4E N 0.890(2) 0.775(2) 1.063(2)
C28E C 0.851(3) 0.734(3) 1.059(2)
H19E H 0.8394 0.7116 1.1015
C29E C 0.830(2) 0.730(2) 0.987(3)
H20E H 0.8041 0.7033 0.9695
C32E C 0.6410(7) 0.5485(7) 0.0864(6)
H21E H 0.6343 0.5825 0.0591
C33E C 0.6454(9) 0.5476(8) 0.1652(6)
H22E H 0.6497 0.5820 0.1923
loop_
_geom_bond_atom_site_label_1
_geom_bond_atom_site_label_2
_geom_bond_site_symmetry_1
_geom_bond_site_symmetry_2
Zn1 O1 1_555 1_555
Zn2 O2 1_555 1_555
Zn3 O4 1_555 1_555
O1 C1 1_555 1_555
O2 C1 1_555 1_555
O3 C12 1_555 1_555
O4 C12 1_555 1_555
O5 C19 1_555 1_555
O6 Zn1 1_555 1_555
O7 C30 1_555 1_555
O8 Zn1 1_555 1_555
C1 C2 1_555 1_555
C2 C3 1_555 1_555
C3 H1 1_555 1_555
C4 C3 1_555 1_555
H2 C4 1_555 1_555
C5 C4 1_555 1_555
C6 C5 1_555 1_555
C7 C2 1_555 1_555
H3 C7 1_555 1_555
C8 C6 1_555 1_555
H4 C8 1_555 1_555
H5 C8 1_555 1_555
N1 C8 1_555 1_555
C9 N1 1_555 1_555
H6 C9 1_555 1_555
N2 C9 1_555 1_555
C10 N2 1_555 1_555
H7 C10 1_555 1_555
C11 N1 1_555 1_555
H8 C11 1_555 1_555
C12 C13 1_555 1_555
C13 C14 1_555 1_555
C14 H9 1_555 1_555
C15 C14 1_555 1_555
H10 C15 1_555 1_555
C16 C15 1_555 1_555
C17 C16 1_555 1_555
H11 C17 1_555 1_555
C18 C13 1_555 1_555
H12 C18 1_555 1_555
C19 O6 1_555 1_555
C20 C19 1_555 1_555
C21 C20 1_555 1_555
H13 C21 1_555 1_555
C22 C21 1_555 1_555
C23 C16 1_555 1_555
C24 C23 1_555 1_555
H14 C24 1_555 1_555
C25 C20 1_555 1_555
H15 C25 1_555 1_555
C26 C22 1_555 1_555
H16 C26 1_555 1_555
H17 C26 1_555 1_555
N3 C26 1_555 1_555
C27 N3 1_555 1_555
H18 C27 1_555 1_555
N4 C27 1_555 1_555
C28 N4 1_555 1_555
H19 C28 1_555 1_555
C29 N3 1_555 1_555
H20 C29 1_555 1_555
C30 C31 1_555 1_555
C31 C32 1_555 1_555
C32 H21 1_555 1_555
C33 C32 1_555 1_555
H22 C33 1_555 1_555
C34 C5 1_555 1_555
Zn2B O3 1_555 1_555
Zn2B_2 O3E 1_555 1_555
Zn3E O4E 1_555 1_555
Zn3B O7E 1_555 1_555
Zn3B_2 O8 1_555 1_555
Zn3G O7 1_555 1_555
Zn3G_2 O5 1_555 1_555
O3E C12E 1_555 1_555
O3B Zn2 1_555 1_555
O3G Zn2 1_555 1_555
O4E C12E 1_555 1_555
O5E Zn3B_2 1_555 1_555
O5B Zn3E 1_555 1_555
O5G Zn3 1_555 1_555
O6E Zn1 1_555 1_555
O7E C30 1_555 1_555
O7B Zn3E 1_555 1_555
O7G Zn3 1_555 1_555
O8B Zn3 1_555 1_555
O8B_2 Zn2B_2 1_555 1_555
C8E C6 1_555 1_555
H4E C8E 1_555 1_555
H5E C8 1_555 1_555
N1E C8E 1_555 1_555
C9E N1E 1_555 1_555
H6E C9E 1_555 1_555
N2E C9E 1_555 1_555
C10E N2E 1_555 1_555
H7E C10E 1_555 1_555
C11E N1E 1_555 1_555
H8E C11E 1_555 1_555
C12E C13E 1_555 1_555
C13E C14E 1_555 1_555
C14E H9E 1_555 1_555
C15E C14E 1_555 1_555
H10E C15E 1_555 1_555
C16E C15E 1_555 1_555
C17E C16E 1_555 1_555
H11E C17E 1_555 1_555
C18E C13E 1_555 1_555
H12E C18E 1_555 1_555
C19E O5E 1_555 1_555
C20E C19E 1_555 1_555
C21E C20E 1_555 1_555
H13E C21E 1_555 1_555
C22E C21E 1_555 1_555
C23E C16E 1_555 1_555
C24E C23E 1_555 1_555
H14E C24E 1_555 1_555
C25E C20E 1_555 1_555
H15E C25E 1_555 1_555
C26E C22E 1_555 1_555
H16E C26E 1_555 1_555
H17E C26E 1_555 1_555
N3E C26E 1_555 1_555
C27E N3E 1_555 1_555
H18E C27E 1_555 1_555
N4E C27E 1_555 1_555
C28E N4E 1_555 1_555
H19E C28E 1_555 1_555
C29E N3E 1_555 1_555
H20E C29E 1_555 1_555
C32E C31 1_555 1_555
H21E C32E 1_555 1_555
C33E C34 1_555 1_555
H22E C33E 1_555 1_555
Zn2 O8 1_555 1_555
O8 Zn3G_2 1_555 1_555
C6 C7 1_555 1_555
C8 C8E 1_555 1_555
H5 C8E 1_555 1_555
C10 C11 1_555 1_555
C17 C18 1_555 1_555
C22 C23 1_555 1_555
C24 C25 1_555 1_555
C28 C29 1_555 1_555
C33 C34 1_555 1_555
Zn2B O8B 1_555 1_555
Zn3E O8B_2 1_555 1_555
O6E C19E 1_555 1_555
C8E H5E 1_555 1_555
C10E C11E 1_555 1_555
C17E C18E 1_555 1_555
C22E C23E 1_555 1_555
C24E C25E 1_555 1_555
C28E C29E 1_555 1_555
C32E C33E 1_555 1_555

#END
