
#######################################################################
#
#                 Cambridge Crystallographic Data Centre
#                                CCDC 
#
#######################################################################
#
# If this CIF has been generated from an entry in the Cambridge 
# Structural Database, then it will include bibliographic, chemical, 
# crystal, experimental, refinement or atomic coordinate data resulting 
# from the CCDC's data processing and validation procedures.
#
#######################################################################

data_QOBZAI
_chemical_formula_moiety         '(Al12 O52 P13 3-)n'
_symmetry_cell_setting           tetragonal
_symmetry_space_group_name_H-M   'P -4 21 c'
_symmetry_Int_Tables_number      114
_space_group_name_Hall           'P -4 2n'
loop_
_symmetry_equiv_pos_site_id
_symmetry_equiv_pos_as_xyz
1 x,y,z
2 y,-x,-z
3 1/2+x,1/2-y,1/2-z
4 -x,-y,z
5 1/2-y,1/2-x,1/2+z
6 -y,x,-z
7 1/2-x,1/2+y,1/2-z
8 1/2+y,1/2+x,1/2+z
_cell_length_a                   13.6099(12)
_cell_length_b                   13.6099(12)
_cell_length_c                   15.547(2)
_cell_angle_alpha                90
_cell_angle_beta                 90
_cell_angle_gamma                90
_cell_volume                     2879.76
loop_
_atom_site_label
_atom_site_type_symbol
_atom_site_fract_x
_atom_site_fract_y
_atom_site_fract_z
P1 P 0.5000 0.5000 0.0000
P2 P 0.6014(1) 0.7548(1) -0.0828(1)
P3 P 0.8628(1) 0.7829(1) 0.0738(1)
P4 P 0.8743(1) 0.9004(1) -0.2562(1)
Al1 Al 0.7672(1) 0.9020(1) -0.0801(1)
Al2 Al 0.6042(1) 0.6256(2) -0.2497(1)
Al3 Al 0.6929(1) 0.6140(1) 0.0639(1)
O1 O 0.6564(4) 0.6877(4) -0.0243(4)
O2 O 0.6136(4) 0.7174(5) -0.1736(3)
O3 O 0.4941(3) 0.7683(3) -0.0593(4)
O4 O 0.6454(3) 0.8585(3) -0.0778(4)
O5 O 0.5810(3) 0.5385(3) 0.0585(3)
O6 O 0.8114(3) 0.6859(3) 0.0681(3)
O7 O 0.8364(4) 0.8502(4) -0.0013(4)
O8 O 0.9722(3) 0.7647(4) 0.0695(3)
O9 O 0.8387(4) 0.8377(4) 0.1571(3)
O10 O 0.8569(3) 1.0078(4) -0.2786(3)
O11 O 0.8453(3) 0.8362(4) -0.3302(3)
O12 O 0.8093(4) 0.8704(4) -0.1801(3)
O13 O 0.9801(4) 0.8841(4) -0.2279(3)
O5A O 0.5385(3) 0.4190(3) -0.0585(3)
O5C O 0.4190(3) 0.4615(3) 0.0585(3)
O5E O 0.4615(3) 0.5810(3) -0.0585(3)
P3A P 0.7829(1) 1.1372(1) -0.0738(1)
O6A O 0.6859(3) 1.1886(3) -0.0681(3)
O7A O 0.8502(4) 1.1636(4) 0.0013(4)
O8A O 0.7647(4) 1.0278(3) -0.0695(3)
O9A O 0.8377(4) 1.1613(4) -0.1571(3)
Al1A Al 0.9020(1) 1.2328(1) 0.0801(1)
Al1E Al 1.0980(1) 0.7672(1) 0.0801(1)
Al2D Al 0.8744(2) 0.8958(1) 0.2503(1)
Al2F Al 0.8958(1) 1.1256(2) -0.2503(1)
Al2B Al 1.1042(1) 0.8744(2) -0.2503(1)
Al3E Al 0.3860(1) 0.6929(1) -0.0639(1)
Al3A Al 0.6140(1) 1.3071(1) -0.0639(1)
Al3D Al 0.8860(1) 0.8071(1) -0.4361(1)
P3D P 0.7171(1) 0.6372(1) -0.4262(1)
O6D O 0.8141(3) 0.6886(3) -0.4319(3)
O7D O 0.6498(4) 0.6636(4) -0.5013(4)
O8D O 0.7353(4) 0.5278(3) -0.4305(3)
O9D O 0.6623(4) 0.6613(4) -0.3429(3)
P4F P 0.6257(1) 0.4004(1) -0.2438(1)
O10F O 0.6431(3) 0.5078(4) -0.2214(3)
O11F O 0.6547(3) 0.3362(4) -0.1698(3)
O12F O 0.6907(4) 0.3704(4) -0.3199(3)
O13F O 0.5199(4) 0.3841(4) -0.2721(3)
P4B P 0.3743(1) 0.5996(1) -0.2438(1)
O10B O 0.3569(3) 0.4922(4) -0.2214(3)
O11B O 0.3453(3) 0.6638(4) -0.1698(3)
O12B O 0.3093(4) 0.6296(4) -0.3199(3)
O13B O 0.4801(4) 0.6159(4) -0.2721(3)
P2A P 0.7548(1) 0.3986(1) 0.0828(1)
O1A O 0.6877(4) 0.3436(4) 0.0243(4)
O2A O 0.7174(5) 0.3864(4) 0.1736(3)
O3A O 0.7683(3) 0.5059(3) 0.0593(4)
O4A O 0.8585(3) 0.3546(3) 0.0778(4)
P4D P 0.5996(1) 0.6257(1) 0.2438(1)
O10D O 0.4922(4) 0.6431(3) 0.2214(3)
O11D O 0.6638(4) 0.6547(3) 0.1698(3)
O12D O 0.6296(4) 0.6907(4) 0.3199(3)
O13D O 0.6159(4) 0.5199(4) 0.2721(3)
P2A_2 P 0.7548(1) 1.3986(1) 0.0828(1)
O1A_2 O 0.6877(4) 1.3436(4) 0.0243(4)
O2A_2 O 0.7174(5) 1.3864(4) 0.1736(3)
O3A_2 O 0.7683(3) 1.5059(3) 0.0593(4)
O4A_2 O 0.8585(3) 1.3546(3) 0.0778(4)
P3C P 1.1372(1) 1.2171(1) 0.0738(1)
O6C O 1.1886(3) 1.3141(3) 0.0681(3)
O7C O 1.1636(4) 1.1498(4) -0.0013(4)
O8C O 1.0278(3) 1.2353(4) 0.0695(3)
O9C O 1.1613(4) 1.1623(4) 0.1571(3)
P2E P 1.2452(1) 0.6014(1) 0.0828(1)
O1E O 1.3123(4) 0.6564(4) 0.0243(4)
O2E O 1.2826(5) 0.6136(4) 0.1736(3)
O3E O 1.2317(3) 0.4941(3) 0.0593(4)
O4E O 1.1415(3) 0.6454(3) 0.0778(4)
Al1A_2 Al 0.9020(1) 0.2328(1) 0.0801(1)
Al3A_2 Al 0.6140(1) 0.3071(1) -0.0639(1)
Al3C Al 0.3071(1) 0.3860(1) 0.0639(1)
O12A O 0.8704(4) 1.1907(4) 0.1801(3)
O7E O 1.1498(4) 0.8364(4) 0.0013(4)
O12E O 1.1296(4) 0.8093(4) 0.1801(3)
O2D O 0.7826(5) 0.8864(4) 0.3264(3)
O10E O 0.9922(4) 0.8569(3) 0.2786(3)
O13A O 0.8841(4) 1.0199(4) 0.2279(3)
O2F O 0.8864(4) 1.2174(5) -0.3264(3)
O13C O 1.0199(4) 1.1159(4) -0.2279(3)
O2B O 1.1136(4) 0.7826(5) -0.3264(3)
O9E O 1.1623(4) 0.8387(4) -0.1571(3)
O10C O 1.1431(3) 0.9922(4) -0.2786(3)
O1E_2 O 0.3123(4) 0.6564(4) 0.0243(4)
O6E O 0.3141(3) 0.8114(3) -0.0681(3)
O3C O 0.5059(3) 1.2317(3) -0.0593(4)
O5A_2 O 0.5385(3) 1.4190(3) -0.0585(3)
O11F_2 O 0.6547(3) 1.3362(4) -0.1698(3)
O1D O 0.8123(4) 0.8436(4) -0.5243(4)
O3B O 0.9941(3) 0.7317(3) -0.4407(4)
O5D O 0.9615(3) 0.9190(3) -0.4415(3)
Al1D Al 0.5980(1) 0.7328(1) -0.5801(1)
Al1F Al 0.7328(1) 0.4020(1) -0.4199(1)
Al2C Al 0.3958(1) 0.3744(2) -0.2497(1)
Al1B Al 0.2672(1) 0.5980(1) -0.4199(1)
Al2A Al 0.6256(2) 0.3958(1) 0.2497(1)
Al2E Al 0.3744(2) 0.6042(1) 0.2497(1)
Al1D_2 Al 0.5980(1) 0.7328(1) 0.4199(1)
Al2A_2 Al 0.6256(2) 1.3958(1) 0.2497(1)
Al3_2 Al 0.6929(1) 1.6140(1) 0.0639(1)
Al3C_2 Al 1.3071(1) 1.3860(1) 0.0639(1)
Al1C Al 1.2328(1) 1.0980(1) -0.0801(1)
Al2G Al 1.1256(2) 1.1042(1) 0.2503(1)
Al3E_2 Al 1.3860(1) 0.6929(1) -0.0639(1)
Al2E_2 Al 1.3744(2) 0.6042(1) 0.2497(1)
Al3C_3 Al 1.3071(1) 0.3860(1) 0.0639(1)
O7A_2 O 0.8502(4) 0.1636(4) 0.0013(4)
O8C_2 O 1.0278(3) 0.2353(4) 0.0695(3)
O12A_2 O 0.8704(4) 0.1907(4) 0.1801(3)
loop_
_geom_bond_atom_site_label_1
_geom_bond_atom_site_label_2
_geom_bond_site_symmetry_1
_geom_bond_site_symmetry_2
P1 O5 1_555 1_555
P2 O1 1_555 1_555
P3 O6 1_555 1_555
P4 O10 1_555 1_555
Al1 O4 1_555 1_555
Al2 O2 1_555 1_555
Al3 O1 1_555 1_555
O2 P2 1_555 1_555
O3 P2 1_555 1_555
O4 P2 1_555 1_555
O5 Al3 1_555 1_555
O6 Al3 1_555 1_555
O7 P3 1_555 1_555
O8 P3 1_555 1_555
O9 P3 1_555 1_555
O10 Al2F 1_555 1_555
O11 P4 1_555 1_555
O12 P4 1_555 1_555
O13 P4 1_555 1_555
O5A P1 1_555 1_555
O5C P1 1_555 1_555
O5E P1 1_555 1_555
P3A O6A 1_555 1_555
O6A Al3A 1_555 1_555
O7A P3A 1_555 1_555
O8A Al1 1_555 1_555
O9A P3A 1_555 1_555
Al1A O7A 1_555 1_555
Al1E O8 1_555 1_555
Al2D O9 1_555 1_555
Al2F O9A 1_555 1_555
Al2B O13 1_555 1_555
Al3E O3 1_555 1_555
Al3A O1A_2 1_555 1_555
Al3D O11 1_555 1_555
P3D O6D 1_555 1_555
O6D Al3D 1_555 1_555
O7D P3D 1_555 1_555
O8D P3D 1_555 1_555
O9D Al2 1_555 1_555
P4F O10F 1_555 1_555
O10F Al2 1_555 1_555
O11F P4F 1_555 1_555
O12F P4F 1_555 1_555
O13F P4F 1_555 1_555
P4B O10B 1_555 1_555
O10B Al2C 1_555 1_555
O11B Al3E 1_555 1_555
O12B P4B 1_555 1_555
O13B Al2 1_555 1_555
P2A O1A 1_555 1_555
O1A Al3A_2 1_555 1_555
O2A P2A 1_555 1_555
O3A Al3 1_555 1_555
O4A P2A 1_555 1_555
P4D O10D 1_555 1_555
O10D Al2E 1_555 1_555
O11D Al3 1_555 1_555
O12D P4D 1_555 1_555
O13D P4D 1_555 1_555
P2A_2 O1A_2 1_555 1_555
O2A_2 P2A_2 1_555 1_555
O3A_2 P2A_2 1_555 1_555
O4A_2 Al1A 1_555 1_555
P3C O6C 1_555 1_555
O6C Al3C_2 1_555 1_555
O7C P3C 1_555 1_555
O8C Al1A 1_555 1_555
O9C P3C 1_555 1_555
P2E O1E 1_555 1_555
O1E Al3E_2 1_555 1_555
O2E P2E 1_555 1_555
O3E P2E 1_555 1_555
O4E Al1E 1_555 1_555
Al1A_2 O4A 1_555 1_555
Al3A_2 O5A 1_555 1_555
Al3C O5C 1_555 1_555
O12A Al1A 1_555 1_555
O7E Al1E 1_555 1_555
O12E Al1E 1_555 1_555
O2D Al2D 1_555 1_555
O10E Al2D 1_555 1_555
O13A Al2D 1_555 1_555
O2F Al2F 1_555 1_555
O13C Al2F 1_555 1_555
O2B Al2B 1_555 1_555
O9E Al2B 1_555 1_555
O10C Al2B 1_555 1_555
O1E_2 Al3E 1_555 1_555
O6E Al3E 1_555 1_555
O3C Al3A 1_555 1_555
O5A_2 Al3A 1_555 1_555
O11F_2 Al3A 1_555 1_555
O1D Al3D 1_555 1_555
O3B Al3D 1_555 1_555
O5D Al3D 1_555 1_555
Al1D O7D 1_555 1_555
Al1F O8D 1_555 1_555
Al2C O13F 1_555 1_555
Al1B O12B 1_555 1_555
Al2A O2A 1_555 1_555
Al1D_2 O12D 1_555 1_555
Al2A_2 O2A_2 1_555 1_555
Al3_2 O3A_2 1_555 1_555
Al1C O7C 1_555 1_555
Al2G O9C 1_555 1_555
Al2E_2 O2E 1_555 1_555
Al3C_3 O3E 1_555 1_555
O7A_2 Al1A_2 1_555 1_555
O8C_2 Al1A_2 1_555 1_555
O12A_2 Al1A_2 1_555 1_555
Al1 O7 1_555 1_555
Al1 O12 1_555 1_555
O5E Al3E 1_555 1_555
P3A O8A 1_555 1_555
P3D O9D 1_555 1_555
O11F Al3A_2 1_555 1_555
O12F Al1F 1_555 1_555
P4B O11B 1_555 1_555
P4B O13B 1_555 1_555
P2A O3A 1_555 1_555
P4D O11D 1_555 1_555
O13D Al2A 1_555 1_555
P2A_2 O4A_2 1_555 1_555
P3C O8C 1_555 1_555
P2E O4E 1_555 1_555

#END
