
#######################################################################
#
#                 Cambridge Crystallographic Data Centre
#                                CCDC 
#
#######################################################################
#
# If this CIF has been generated from an entry in the Cambridge 
# Structural Database, then it will include bibliographic, chemical, 
# crystal, experimental, refinement or atomic coordinate data resulting 
# from the CCDC's data processing and validation procedures.
#
#######################################################################

data_EVUQUI
_chemical_formula_moiety         '(C15 H16 N1 Nd1 O11)n'
_symmetry_cell_setting           triclinic
_symmetry_space_group_name_H-M   'P -1'
_symmetry_Int_Tables_number      2
_space_group_name_Hall           '-P 1'
loop_
_symmetry_equiv_pos_site_id
_symmetry_equiv_pos_as_xyz
1 x,y,z
2 -x,-y,-z
_cell_length_a                   9.5211(4)
_cell_length_b                   9.9835(4)
_cell_length_c                   11.4843(5)
_cell_angle_alpha                96.342(2)
_cell_angle_beta                 97.063(2)
_cell_angle_gamma                111.7635(19)
_cell_volume                     991.599
loop_
_atom_site_label
_atom_site_type_symbol
_atom_site_fract_x
_atom_site_fract_y
_atom_site_fract_z
O10 O 0.5762(6) 0.5188(5) 0.2048(5)
H13 H 0.5656 0.5951 0.1759
H14 H 0.5678 0.5301 0.2880
O12 O 0.3280(14) 0.3434(13) 0.3351(9)
H22 H 0.2939 0.3152 0.4013
H23 H 0.2480 0.3053 0.2685
Nd1 Nd 1.28629(2) 1.04512(2) -0.009210(19)
O1 O 1.4554(4) 1.2391(4) -0.1104(3)
O2 O 1.8804(4) 1.0127(4) -0.7850(3)
O3 O 1.8148(4) 1.7723(3) 0.0123(3)
O4 O 2.0544(4) 1.8412(3) -0.0188(3)
C1 C 1.9224(5) 1.7476(5) -0.0253(4)
C2 C 1.8883(5) 1.5928(5) -0.0817(4)
C3 C 1.7524(5) 1.4816(5) -0.0698(4)
H1 H 1.6809 1.5039 -0.0287
C4 C 1.7218(5) 1.3370(5) -0.1185(4)
C5 C 1.5776(5) 1.2173(5) -0.1012(4)
O5 O 1.5835(3) 1.0977(3) -0.0768(3)
C6 C 1.8238(5) 1.3050(5) -0.1824(4)
H2 H 1.8057 1.2067 -0.2134
C7 C 1.9516(5) 1.4190(5) -0.1999(4)
C8 C 1.9876(5) 1.5618(5) -0.1477(4)
H3 H 2.0796 1.6378 -0.1571
O6 O 2.0533(4) 1.3903(4) -0.2679(3)
C9 C 1.9926(5) 1.3241(5) -0.3855(4)
C10 C 1.8741(6) 1.3470(5) -0.4534(4)
H4 H 1.8288 1.4087 -0.4195
C11 C 1.8235(5) 1.2780(5) -0.5714(4)
H5 H 1.7431 1.2931 -0.6186
C12 C 1.8889(5) 1.1873(5) -0.6211(4)
C13 C 1.8282(5) 1.1058(5) -0.7446(4)
O7 O 1.7226(3) 1.1263(4) -0.8097(3)
C14 C 2.0082(5) 1.1668(6) -0.5522(4)
H6 H 2.0533 1.1051 -0.5862
C15 C 2.0617(5) 1.2358(5) -0.4343(4)
N1 N 2.1883(6) 1.2240(6) -0.3647(4)
H7 H 2.1678 1.1527 -0.3185
H8 H 2.2621 1.3038 -0.3154
O8 O 1.1939(4) 1.0587(4) 0.1889(3)
H9 H 1.2482 1.0867 0.2638
H10 H 1.0976 1.0443 0.1963
O9 O 1.4955(4) 1.2243(3) 0.1480(3)
H11 H 1.5151 1.3212 0.1717
H12 H 1.5717 1.1915 0.1624
Nd1A Nd 1.71371(2) 0.95488(2) -0.990790(19)
Nd1A_2 Nd 1.71371(2) 1.95488(2) 0.009210(19)
Nd1_2 Nd 2.28629(2) 2.04512(2) -0.009210(19)
Nd1A_3 Nd 1.71371(2) 0.95488(2) 0.009210(19)
O2A O 1.1196(4) 0.9873(4) -0.2150(3)
O3A O 1.1852(4) 1.2277(3) -0.0123(3)
O4_2 O 1.0544(4) 0.8412(3) -0.0188(3)
O5A O 1.4165(3) 0.9023(3) 0.0768(3)
O7A O 1.2774(3) 0.8737(4) -0.1903(3)
loop_
_geom_bond_atom_site_label_1
_geom_bond_atom_site_label_2
_geom_bond_site_symmetry_1
_geom_bond_site_symmetry_2
Nd1 O1 1_555 1_555
O1 C5 1_555 1_555
O2 C13 1_555 1_555
O3 C1 1_555 1_555
O4 C1 1_555 1_555
C1 C2 1_555 1_555
C2 C3 1_555 1_555
C3 H1 1_555 1_555
C4 C3 1_555 1_555
C5 C4 1_555 1_555
O5 Nd1 1_555 1_555
C6 C4 1_555 1_555
H2 C6 1_555 1_555
C7 C6 1_555 1_555
C8 C2 1_555 1_555
H3 C8 1_555 1_555
O6 C7 1_555 1_555
C9 O6 1_555 1_555
C10 C9 1_555 1_555
H4 C10 1_555 1_555
C11 C10 1_555 1_555
H5 C11 1_555 1_555
C12 C11 1_555 1_555
C13 C12 1_555 1_555
O7 C13 1_555 1_555
C14 C12 1_555 1_555
H6 C14 1_555 1_555
C15 C9 1_555 1_555
N1 C15 1_555 1_555
H7 N1 1_555 1_555
H8 N1 1_555 1_555
O8 Nd1 1_555 1_555
H9 O8 1_555 1_555
H10 O8 1_555 1_555
O9 Nd1 1_555 1_555
H11 O9 1_555 1_555
H12 O9 1_555 1_555
O10 H13 1_555 1_555
H14 O10 1_555 1_555
O12 H22 1_555 1_555
H23 O12 1_555 1_555
Nd1A O2 1_555 1_555
Nd1A_2 O3 1_555 1_555
Nd1_2 O4 1_555 1_555
Nd1A_3 O5 1_555 1_555
O2A Nd1 1_555 1_555
O3A Nd1 1_555 1_555
O4_2 Nd1 1_555 1_555
O5A Nd1 1_555 1_555
O7A Nd1 1_555 1_555
C5 O5 1_555 1_555
C7 C8 1_555 1_555
O7 Nd1A 1_555 1_555
C14 C15 1_555 1_555
Nd1A_3 O5A 1_555 1_555

#END
