
#######################################################################
#
#                 Cambridge Crystallographic Data Centre
#                                CCDC 
#
#######################################################################
#
# If this CIF has been generated from an entry in the Cambridge 
# Structural Database, then it will include bibliographic, chemical, 
# crystal, experimental, refinement or atomic coordinate data resulting 
# from the CCDC's data processing and validation procedures.
#
#######################################################################

data_GOMGOG
_chemical_formula_moiety         '(C78 H55 Co2 N9 O8)n'
_symmetry_cell_setting           tetragonal
_symmetry_space_group_name_H-M   'I 41/a c d'
_symmetry_Int_Tables_number      142
_space_group_name_Hall           '-I 4bd 2c'
loop_
_symmetry_equiv_pos_site_id
_symmetry_equiv_pos_as_xyz
1 x,y,z
2 1/4-y,3/4+x,1/4+z
3 1/2-x,-y,1/2+z
4 1/4+y,1/4-x,3/4+z
5 x,-y,1/2-z
6 1/4+y,3/4+x,3/4-z
7 1/2-x,y,-z
8 1/4-y,1/4-x,1/4-z
9 1/2+x,1/2+y,1/2+z
10 3/4-y,1/4+x,3/4+z
11 -x,1/2-y,z
12 3/4+y,3/4-x,1/4+z
13 1/2+x,1/2-y,-z
14 3/4+y,1/4+x,1/4-z
15 -x,1/2+y,1/2-z
16 3/4-y,3/4-x,3/4-z
17 -x,-y,-z
18 3/4+y,1/4-x,3/4-z
19 1/2+x,y,1/2-z
20 3/4-y,3/4+x,1/4-z
21 -x,y,1/2+z
22 3/4-y,1/4-x,1/4+z
23 1/2+x,-y,z
24 3/4+y,3/4+x,3/4+z
25 1/2-x,1/2-y,1/2-z
26 1/4+y,3/4-x,1/4-z
27 x,1/2+y,-z
28 1/4-y,1/4+x,3/4-z
29 1/2-x,1/2+y,z
30 1/4-y,3/4-x,3/4+z
31 x,1/2-y,1/2+z
32 1/4+y,1/4+x,1/4+z
_cell_length_a                   24.8128(14)
_cell_length_b                   24.8128(14)
_cell_length_c                   44.811(5)
_cell_angle_alpha                90
_cell_angle_beta                 90
_cell_angle_gamma                90
_cell_volume                     27589
loop_
_atom_site_label
_atom_site_type_symbol
_atom_site_fract_x
_atom_site_fract_y
_atom_site_fract_z
_atom_site_U_iso_or_equiv
_atom_site_thermal_displace_type
C1 C -0.04938(13) 0.36127(12) 0.02834(7) 0.0393 Uani
H1 H -0.0665 0.3569 0.0466 0.0500 Uiso
C2 C -0.00938(12) 0.32515(12) 0.02069(7) 0.0386 Uani
H2 H 0.0002 0.2977 0.0338 0.0390 Uiso
C3 C 0.01659(11) 0.32992(12) -0.00678(6) 0.0353 Uani
C4 C -0.00025(13) 0.37172(13) -0.02514(7) 0.0445 Uani
H3 H 0.0154 0.3764 -0.0438 0.0570 Uiso
C5 C -0.04008(14) 0.40611(14) -0.01572(7) 0.0491 Uani
H4 H -0.0506 0.4337 -0.0285 0.1100 Uiso
C6 C 0.06169(11) 0.29363(11) -0.01526(7) 0.0343 Uani
C7 C 0.09684(12) 0.27400(12) 0.00680(7) 0.0364 Uani
H5 H 0.0927 0.2847 0.0266 0.0460 Uiso
C8 C 0.13734(12) 0.23894(11) -0.00100(7) 0.0346 Uani
C9 C 0.14499(12) 0.22273(12) -0.03016(7) 0.0370 Uani
H6 H 0.1727 0.1990 -0.0349 0.0460 Uiso
C10 C 0.11101(12) 0.24210(12) -0.05240(6) 0.0345 Uani
C11 C 0.06978(12) 0.27754(12) -0.04463(7) 0.0365 Uani
H7 H 0.0471 0.2908 -0.0595 0.0370 Uiso
C12 C 0.11980(12) 0.22571(13) -0.08406(7) 0.0395 Uani
C13 C 0.14223(14) 0.17655(14) -0.09170(8) 0.0497 Uani
H8 H 0.1513 0.1518 -0.0769 0.0550 Uiso
C14 C 0.15109(14) 0.16437(16) -0.12150(8) 0.0560 Uani
H9 H 0.1662 0.1310 -0.1260 0.0570 Uiso
C15 C 0.11861(16) 0.24435(16) -0.13640(8) 0.0571 Uani
H10 H 0.1106 0.2686 -0.1516 0.0700 Uiso
C16 C 0.10803(14) 0.25974(14) -0.10749(7) 0.0466 Uani
H11 H 0.0928 0.2933 -0.1037 0.0650 Uiso
C17 C 0.19189(12) 0.24532(12) 0.04330(6) 0.0348 Uani
C18 C 0.19330(12) 0.22191(12) 0.07099(7) 0.0382 Uani
H12 H 0.1762 0.1890 0.0740 0.0370 Uiso
C19 C 0.21960(12) 0.24628(12) 0.09451(6) 0.0361 Uani
C20 C 0.24572(12) 0.29584(12) 0.08936(6) 0.0366 Uani
H13 H 0.2645 0.3125 0.1048 0.0490 Uiso
C21 C 0.24371(12) 0.32021(11) 0.06128(6) 0.0346 Uani
C22 C 0.21554(11) 0.29520(12) 0.03821(7) 0.0357 Uani
H14 H 0.2126 0.3117 0.0196 0.0400 Uiso
C23 C 0.27208(12) 0.37168(12) 0.05542(6) 0.0343 Uani
C24 C 0.32567(13) 0.37946(13) 0.06378(8) 0.0454 Uani
H15 H 0.3442 0.3523 0.0738 0.0560 Uiso
C25 C 0.35118(13) 0.42720(13) 0.05729(8) 0.0450 Uani
H16 H 0.3871 0.4309 0.0629 0.0450 Uiso
C26 C 0.27617(13) 0.46150(13) 0.03576(7) 0.0413 Uani
H17 H 0.2581 0.4899 0.0266 0.0340 Uiso
C27 C 0.24833(13) 0.41428(13) 0.04068(8) 0.0429 Uani
H18 H 0.2130 0.4111 0.0340 0.0740 Uiso
C28 C 0.21956(11) 0.22035(12) 0.12446(7) 0.0356 Uani
C29 C 0.21054(15) 0.16482(13) 0.12747(7) 0.0512 Uani
H19 H 0.2055 0.1436 0.1106 0.0690 Uiso
C30 C 0.20912(15) 0.14166(14) 0.15527(8) 0.0513 Uani
H20 H 0.2032 0.1047 0.1565 0.0550 Uiso
C31 C 0.22542(14) 0.22158(13) 0.17798(7) 0.0444 Uani
H21 H 0.2307 0.2416 0.1953 0.0440 Uiso
C32 C 0.22808(14) 0.24813(13) 0.15101(7) 0.0448 Uani
H22 H 0.2356 0.2848 0.1506 0.0540 Uiso
C33 C -0.11718(12) 0.51143(13) -0.02005(7) 0.0372 Uani
C34 C -0.11496(12) 0.54234(12) -0.04808(7) 0.0380 Uani
C35 C -0.09044(14) 0.59280(14) -0.04865(7) 0.0494 Uani
H23 H -0.0736 0.6057 -0.0315 0.0620 Uiso
C36 C -0.09061(16) 0.62362(15) -0.07376(8) 0.0573 Uani
H24 H -0.0744 0.6574 -0.0735 0.0510 Uiso
C37 C -0.11478(15) 0.60510(15) -0.09987(7) 0.0533 Uani
C38 C -0.13732(14) 0.55395(14) -0.09991(7) 0.0467 Uani
H25 H -0.1520 0.5401 -0.1174 0.0630 Uiso
C39 C -0.13818(13) 0.52357(13) -0.07436(7) 0.0415 Uani
H26 H -0.1546 0.4899 -0.0746 0.0390 Uiso
Co1 Co -0.121828(16) 0.462992(16) 0.028057(9) 0.0347 Uani
N1 N -0.06490(10) 0.40225(10) 0.01095(6) 0.0406 Uani
N2 N 0.13944(13) 0.19726(14) -0.14402(7) 0.0586 Uani
N3 N 0.32769(10) 0.46859(10) 0.04339(5) 0.0358 Uani
N4 N 0.21577(10) 0.16920(10) 0.18075(5) 0.0363 Uani
N5 N -0.11248(13) 0.63752(13) -0.1250 0.0717 Uani
O1 O 0.16964(9) 0.21475(8) 0.02048(5) 0.0439 Uani
O2 O -0.08499(9) 0.52193(8) 0.00091(5) 0.0432 Uani
O3 O -0.15194(9) 0.47440(9) -0.01678(5) 0.0439 Uani
O4 O -0.17669(10) 0.40465(10) 0.03884(6) 0.0616 Uani
H27 H -0.1735 0.3785 0.0267 0.0920 Uiso
H28 H -0.0865(6) 0.6635(6) -0.1250 0.1100 Uiso
C33E C -0.23857(13) 0.63282(12) -0.22995(7) 0.0372 Uani
C34E C -0.20766(12) 0.63504(12) -0.20192(7) 0.0380 Uani
C35E C -0.15720(14) 0.65956(14) -0.20135(7) 0.0494 Uani
H23E H -0.1443 0.6764 -0.2185 0.0620 Uiso
C36E C -0.12638(15) 0.65939(16) -0.17624(8) 0.0573 Uani
H24E H -0.0926 0.6756 -0.1765 0.0510 Uiso
C37E C -0.14490(15) 0.63522(15) -0.15013(7) 0.0533 Uani
C38E C -0.19605(14) 0.61268(14) -0.15009(7) 0.0467 Uani
H25E H -0.2099 0.5980 -0.1326 0.0630 Uiso
C39E C -0.22643(13) 0.61182(13) -0.17564(7) 0.0415 Uani
H26E H -0.2601 0.5954 -0.1754 0.0390 Uiso
O2E O -0.22807(8) 0.66501(9) -0.25091(5) 0.0432 Uani
O3E O -0.27560(9) 0.59806(9) -0.23322(5) 0.0439 Uani
C1E C -0.38873(12) 0.70062(13) -0.27834(7) 0.0393 Uani
H1E H -0.3931 0.6835 -0.2966 0.0500 Uiso
C2E C -0.42485(12) 0.74062(12) -0.27069(7) 0.0386 Uani
H2E H -0.4523 0.7502 -0.2838 0.0390 Uiso
C3E C -0.42008(12) 0.76659(11) -0.24322(6) 0.0353 Uani
C4E C -0.37828(13) 0.74975(13) -0.22486(7) 0.0445 Uani
H3E H -0.3736 0.7654 -0.2062 0.0570 Uiso
C5E C -0.34389(14) 0.70992(14) -0.23428(7) 0.0491 Uani
H4E H -0.3163 0.6994 -0.2215 0.1100 Uiso
C6E C -0.45637(11) 0.81169(11) -0.23474(7) 0.0343 Uani
C7E C -0.47600(12) 0.84684(12) -0.25680(7) 0.0364 Uani
H5E H -0.4653 0.8427 -0.2766 0.0460 Uiso
C8E C -0.51106(11) 0.88734(12) -0.24900(7) 0.0346 Uani
C9E C -0.52727(12) 0.89499(12) -0.21984(7) 0.0370 Uani
H6E H -0.5510 0.9227 -0.2151 0.0460 Uiso
C10E C -0.50790(12) 0.86101(12) -0.19760(6) 0.0345 Uani
C11E C -0.47246(12) 0.81978(12) -0.20537(7) 0.0365 Uani
H7E H -0.4592 0.7971 -0.1905 0.0370 Uiso
C12E C -0.52429(13) 0.86980(12) -0.16594(7) 0.0395 Uani
C13E C -0.57345(14) 0.89223(14) -0.15830(8) 0.0497 Uani
H8E H -0.5982 0.9013 -0.1731 0.0550 Uiso
C14E C -0.58563(16) 0.90109(14) -0.12850(8) 0.0560 Uani
H9E H -0.6190 0.9162 -0.1240 0.0570 Uiso
C15E C -0.50565(16) 0.86861(16) -0.11360(8) 0.0571 Uani
H10E H -0.4814 0.8606 -0.0984 0.0700 Uiso
C16E C -0.49026(14) 0.85803(14) -0.14251(7) 0.0466 Uani
H11E H -0.4567 0.8428 -0.1463 0.0650 Uiso
C17E C -0.50468(12) 0.94189(12) -0.29330(6) 0.0348 Uani
C18E C -0.52809(12) 0.94330(12) -0.32099(7) 0.0382 Uani
H12E H -0.5610 0.9262 -0.3240 0.0370 Uiso
C19E C -0.50372(12) 0.96960(12) -0.34451(6) 0.0361 Uani
C20E C -0.45416(12) 0.99572(12) -0.33936(6) 0.0366 Uani
H13E H -0.4375 1.0145 -0.3548 0.0490 Uiso
C21E C -0.42979(11) 0.99371(12) -0.31128(6) 0.0346 Uani
C22E C -0.45480(12) 0.96554(11) -0.28821(7) 0.0357 Uani
H14E H -0.4383 0.9626 -0.2696 0.0400 Uiso
C23E C -0.37832(12) 1.02208(12) -0.30542(6) 0.0343 Uani
C24E C -0.37054(13) 1.07567(13) -0.31378(8) 0.0454 Uani
H15E H -0.3977 1.0942 -0.3238 0.0560 Uiso
C25E C -0.32280(13) 1.10118(13) -0.30729(8) 0.0450 Uani
H16E H -0.3191 1.1371 -0.3129 0.0450 Uiso
C26E C -0.28850(13) 1.02617(13) -0.28576(7) 0.0413 Uani
H17E H -0.2601 1.0081 -0.2766 0.0340 Uiso
C27E C -0.33572(13) 0.99833(13) -0.29068(8) 0.0429 Uani
H18E H -0.3389 0.9630 -0.2840 0.0740 Uiso
C28E C -0.52965(12) 0.96956(11) -0.37446(7) 0.0356 Uani
C29E C -0.58518(13) 0.96054(15) -0.37747(7) 0.0512 Uani
H19E H -0.6064 0.9555 -0.3606 0.0690 Uiso
C30E C -0.60834(14) 0.95912(15) -0.40527(8) 0.0513 Uani
H20E H -0.6453 0.9532 -0.4065 0.0550 Uiso
C31E C -0.52842(13) 0.97542(14) -0.42798(7) 0.0444 Uani
H21E H -0.5084 0.9807 -0.4453 0.0440 Uiso
C32E C -0.50187(13) 0.97808(14) -0.40101(7) 0.0448 Uani
H22E H -0.4652 0.9856 -0.4006 0.0540 Uiso
Co1E Co -0.287008(16) 0.628172(16) -0.278057(9) 0.0347 Uani
N1E N -0.34775(10) 0.68510(10) -0.26095(6) 0.0406 Uani
N2E N -0.55274(14) 0.88944(13) -0.10598(7) 0.0586 Uani
N3E N -0.28141(10) 1.07769(10) -0.29339(5) 0.0358 Uani
N4E N -0.58080(10) 0.96577(10) -0.43075(5) 0.0363 Uani
O1E O -0.53525(8) 0.91964(9) -0.27048(5) 0.0439 Uani
O4E O -0.34535(10) 0.57331(10) -0.28884(6) 0.0616 Uani
H27E H -0.3715 0.5765 -0.2767 0.0920 Uiso
Co1H Co -0.621828(16) 0.962992(16) -0.471943(9) 0.0347 Uani
Co1M Co 0.212992(16) 0.128172(16) 0.221943(9) 0.0347 Uani
Co1V Co 0.378172(16) 0.537008(16) 0.028057(9) 0.0347 Uani
Co1AA Co -0.212992(16) 1.128172(16) -0.278057(9) 0.0347 Uani
N3V N -0.17231(10) 0.53141(10) 0.04339(5) 0.0358 Uani
N3AA N -0.21859(10) 0.57769(10) -0.29339(5) 0.0358 Uani
N4H N -0.28423(10) 0.66920(10) -0.31925(5) 0.0363 Uani
N4M N -0.08080(10) 0.46577(10) 0.06925(5) 0.0363 Uani
loop_
_atom_site_aniso_label
_atom_site_aniso_U_11
_atom_site_aniso_U_22
_atom_site_aniso_U_33
_atom_site_aniso_U_23
_atom_site_aniso_U_13
_atom_site_aniso_U_12
C1 0.0465(18) 0.0350(17) 0.0364(17) -0.0024(13) 0.0063(14) -0.0026(14)
C2 0.0445(18) 0.0300(16) 0.0414(17) -0.0019(13) 0.0011(14) -0.0010(13)
C3 0.0363(16) 0.0387(16) 0.0310(16) -0.0083(13) -0.0058(13) -0.0007(13)
C4 0.048(2) 0.051(2) 0.0345(18) -0.0003(15) -0.0008(15) 0.0123(16)
C5 0.055(2) 0.057(2) 0.0353(18) 0.0033(16) -0.0018(16) 0.0143(17)
C6 0.0349(16) 0.0324(15) 0.0357(16) -0.0027(13) -0.0004(13) -0.0020(13)
C7 0.0427(17) 0.0360(16) 0.0306(16) -0.0036(13) -0.0014(13) -0.0012(13)
C8 0.0357(16) 0.0326(16) 0.0356(16) 0.0030(13) -0.0077(13) -0.0041(12)
C9 0.0350(16) 0.0381(17) 0.0378(17) -0.0055(13) 0.0008(13) 0.0033(14)
C10 0.0341(16) 0.0357(16) 0.0338(16) -0.0050(13) -0.0018(13) 0.0004(13)
C11 0.0371(16) 0.0398(17) 0.0327(16) -0.0003(13) -0.0060(13) 0.0021(13)
C12 0.0355(17) 0.0439(18) 0.0391(18) -0.0075(14) -0.0028(13) 0.0015(14)
C13 0.0470(19) 0.051(2) 0.051(2) -0.0073(17) -0.0029(16) 0.0117(16)
C14 0.052(2) 0.058(2) 0.058(2) -0.0241(19) 0.0016(18) 0.0105(18)
C15 0.074(3) 0.062(2) 0.0354(19) -0.0076(18) -0.0048(18) -0.002(2)
C16 0.057(2) 0.0438(19) 0.0391(18) -0.0061(15) -0.0042(16) 0.0024(16)
C17 0.0346(15) 0.0369(16) 0.0328(16) -0.0015(13) -0.0059(13) 0.0025(13)
C18 0.0404(17) 0.0333(16) 0.0408(17) 0.0034(13) -0.0005(14) -0.0012(13)
C19 0.0371(16) 0.0363(16) 0.0350(16) 0.0039(13) 0.0003(13) 0.0013(13)
C20 0.0365(16) 0.0398(17) 0.0334(16) 0.0025(13) -0.0041(13) -0.0039(13)
C21 0.0321(16) 0.0352(16) 0.0365(16) 0.0010(13) -0.0002(13) 0.0012(12)
C22 0.0338(16) 0.0412(17) 0.0321(15) 0.0070(13) -0.0004(12) 0.0030(13)
C23 0.0349(16) 0.0392(17) 0.0289(15) 0.0025(13) -0.0007(12) 0.0000(13)
C24 0.0383(18) 0.0428(19) 0.055(2) 0.0128(16) -0.0139(15) -0.0013(14)
C25 0.0349(18) 0.0432(19) 0.057(2) 0.0098(16) -0.0131(15) -0.0021(14)
C26 0.0400(18) 0.0382(18) 0.0458(18) 0.0082(14) -0.0105(14) 0.0044(14)
C27 0.0345(17) 0.0426(18) 0.0515(19) 0.0051(15) -0.0115(15) -0.0013(14)
C28 0.0359(16) 0.0364(16) 0.0345(16) 0.0025(13) -0.0008(13) -0.0007(12)
C29 0.078(3) 0.0386(19) 0.0369(18) -0.0021(15) -0.0039(17) -0.0031(17)
C30 0.076(3) 0.0329(18) 0.045(2) 0.0053(15) 0.0005(18) -0.0059(16)
C31 0.062(2) 0.0381(18) 0.0331(17) 0.0004(14) -0.0063(15) 0.0007(15)
C32 0.062(2) 0.0337(17) 0.0388(17) 0.0018(14) -0.0061(16) -0.0053(15)
C33 0.0347(16) 0.0389(17) 0.0380(17) -0.0020(14) -0.0023(14) 0.0079(14)
C34 0.0336(16) 0.0433(18) 0.0370(17) 0.0023(14) -0.0044(13) 0.0027(13)
C35 0.055(2) 0.054(2) 0.0393(18) 0.0022(16) -0.0136(16) -0.0117(17)
C36 0.071(3) 0.052(2) 0.049(2) 0.0104(17) -0.0180(19) -0.0213(19)
C37 0.056(2) 0.060(2) 0.044(2) 0.0083(17) -0.0105(17) -0.0144(18)
C38 0.0463(19) 0.056(2) 0.0378(18) -0.0002(16) -0.0126(15) -0.0012(16)
C39 0.0419(18) 0.0385(18) 0.0441(19) 0.0021(14) -0.0077(15) -0.0015(14)
Co1 0.0368(3) 0.0349(3) 0.0324(3) -0.00084(17) -0.00585(17) 0.00244(17)
N1 0.0430(15) 0.0417(15) 0.0371(14) -0.0038(12) -0.0025(12) 0.0062(12)
N2 0.0580(19) 0.074(2) 0.0437(17) -0.0166(16) 0.0023(15) -0.0018(17)
N3 0.0381(14) 0.0357(14) 0.0335(14) 0.0039(11) -0.0070(11) 0.0001(11)
N4 0.0422(15) 0.0345(14) 0.0321(13) 0.0033(11) -0.0020(11) 0.0032(11)
N5 0.081(2) 0.081(2) 0.053(3) 0.028(2) -0.028(2) -0.040(3)
O1 0.0552(14) 0.0359(12) 0.0406(12) -0.0016(10) -0.0193(10) 0.0032(10)
O2 0.0444(13) 0.0478(13) 0.0374(11) 0.0009(10) -0.0093(10) -0.0042(10)
O3 0.0439(13) 0.0457(13) 0.0420(13) 0.0048(10) -0.0094(10) -0.0071(10)
O4 0.0544(15) 0.0419(14) 0.0884(19) 0.0052(13) -0.0011(14) -0.0092(11)
C33E 0.0389 0.0347 0.038 0.0023 0.002 0.0079
C34E 0.0433 0.0336 0.037 0.0044 -0.0023 0.0027
C35E 0.054 0.055 0.0393 0.0136 -0.0022 -0.0117
C36E 0.052 0.071 0.049 0.018 -0.0104 -0.0213
C37E 0.06 0.056 0.044 0.0105 -0.0083 -0.0144
C38E 0.056 0.0463 0.0378 0.0126 0.0002 -0.0012
C39E 0.0385 0.0419 0.0441 0.0077 -0.0021 -0.0015
O2E 0.0478 0.0444 0.0374 0.0093 -0.0009 -0.0042
O3E 0.0457 0.0439 0.042 0.0094 -0.0048 -0.0071
C1E 0.035 0.0465 0.0364 -0.0063 0.0024 -0.0026
C2E 0.03 0.0445 0.0414 -0.0011 0.0019 -0.001
C3E 0.0387 0.0363 0.031 0.0058 0.0083 -0.0007
C4E 0.051 0.048 0.0345 0.0008 0.0003 0.0123
C5E 0.057 0.055 0.0353 0.0018 -0.0033 0.0143
C6E 0.0324 0.0349 0.0357 0.0004 0.0027 -0.002
C7E 0.036 0.0427 0.0306 0.0014 0.0036 -0.0012
C8E 0.0326 0.0357 0.0356 0.0077 -0.003 -0.0041
C9E 0.0381 0.035 0.0378 -0.0008 0.0055 0.0033
C10E 0.0357 0.0341 0.0338 0.0018 0.005 0.0004
C11E 0.0398 0.0371 0.0327 0.006 0.0003 0.0021
C12E 0.0439 0.0355 0.0391 0.0028 0.0075 0.0015
C13E 0.051 0.047 0.051 0.0029 0.0073 0.0117
C14E 0.058 0.052 0.058 -0.0016 0.0241 0.0105
C15E 0.062 0.074 0.0354 0.0048 0.0076 -0.002
C16E 0.0438 0.057 0.0391 0.0042 0.0061 0.0024
C17E 0.0369 0.0346 0.0328 0.0059 0.0015 0.0025
C18E 0.0333 0.0404 0.0408 0.0005 -0.0034 -0.0012
C19E 0.0363 0.0371 0.035 -0.0003 -0.0039 0.0013
C20E 0.0398 0.0365 0.0334 0.0041 -0.0025 -0.0039
C21E 0.0352 0.0321 0.0365 0.0002 -0.001 0.0012
C22E 0.0412 0.0338 0.0321 0.0004 -0.007 0.003
C23E 0.0392 0.0349 0.0289 0.0007 -0.0025 0
C24E 0.0428 0.0383 0.055 0.0139 -0.0128 -0.0013
C25E 0.0432 0.0349 0.057 0.0131 -0.0098 -0.0021
C26E 0.0382 0.04 0.0458 0.0105 -0.0082 0.0044
C27E 0.0426 0.0345 0.0515 0.0115 -0.0051 -0.0013
C28E 0.0364 0.0359 0.0345 0.0008 -0.0025 -0.0007
C29E 0.0386 0.078 0.0369 0.0039 0.0021 -0.0031
C30E 0.0329 0.076 0.045 -0.0005 -0.0053 -0.0059
C31E 0.0381 0.062 0.0331 0.0063 -0.0004 0.0007
C32E 0.0337 0.062 0.0388 0.0061 -0.0018 -0.0053
Co1E 0.0349 0.0368 0.0324 0.00585 0.00084 0.00244
N1E 0.0417 0.043 0.0371 0.0025 0.0038 0.0062
N2E 0.074 0.058 0.0437 -0.0023 0.0166 -0.0018
N3E 0.0357 0.0381 0.0335 0.007 -0.0039 0.0001
N4E 0.0345 0.0422 0.0321 0.002 -0.0033 0.0032
O1E 0.0359 0.0552 0.0406 0.0193 0.0016 0.0032
O4E 0.0419 0.0544 0.0884 0.0011 -0.0052 -0.0092
Co1H 0.0368 0.0349 0.0324 -0.00084 -0.00585 0.00244
Co1M 0.0349 0.0368 0.0324 0.00585 0.00084 0.00244
Co1V 0.0368 0.0349 0.0324 0.00084 -0.00585 -0.00244
Co1AA 0.0349 0.0368 0.0324 0.00585 -0.00084 -0.00244
N3V 0.0381 0.0357 0.0335 -0.0039 -0.007 -0.0001
N3AA 0.0357 0.0381 0.0335 0.007 0.0039 -0.0001
N4H 0.0422 0.0345 0.0321 0.0033 -0.002 0.0032
N4M 0.0345 0.0422 0.0321 0.002 -0.0033 0.0032
loop_
_geom_bond_atom_site_label_1
_geom_bond_atom_site_label_2
_geom_bond_site_symmetry_1
_geom_bond_site_symmetry_2
C1 H1 1_555 1_555
C2 C1 1_555 1_555
H2 C2 1_555 1_555
C3 C2 1_555 1_555
C4 C3 1_555 1_555
H3 C4 1_555 1_555
C5 C4 1_555 1_555
H4 C5 1_555 1_555
C6 C3 1_555 1_555
C7 C6 1_555 1_555
H5 C7 1_555 1_555
C8 C7 1_555 1_555
C9 C8 1_555 1_555
H6 C9 1_555 1_555
C10 C9 1_555 1_555
C11 C6 1_555 1_555
H7 C11 1_555 1_555
C12 C10 1_555 1_555
C13 C12 1_555 1_555
H8 C13 1_555 1_555
C14 C13 1_555 1_555
H9 C14 1_555 1_555
C15 H10 1_555 1_555
C16 C12 1_555 1_555
H11 C16 1_555 1_555
C17 C18 1_555 1_555
C18 H12 1_555 1_555
C19 C18 1_555 1_555
C20 C19 1_555 1_555
H13 C20 1_555 1_555
C21 C20 1_555 1_555
C22 C17 1_555 1_555
H14 C22 1_555 1_555
C23 C21 1_555 1_555
C24 C23 1_555 1_555
H15 C24 1_555 1_555
C25 C24 1_555 1_555
H16 C25 1_555 1_555
C26 H17 1_555 1_555
C27 C23 1_555 1_555
H18 C27 1_555 1_555
C28 C19 1_555 1_555
C29 C28 1_555 1_555
H19 C29 1_555 1_555
C30 C29 1_555 1_555
H20 C30 1_555 1_555
C31 H21 1_555 1_555
C32 C28 1_555 1_555
H22 C32 1_555 1_555
C33 C34 1_555 1_555
C34 C35 1_555 1_555
C35 H23 1_555 1_555
C36 C35 1_555 1_555
H24 C36 1_555 1_555
C37 C36 1_555 1_555
C38 C37 1_555 1_555
H25 C38 1_555 1_555
C39 C34 1_555 1_555
H26 C39 1_555 1_555
Co1 N1 1_555 1_555
N1 C1 1_555 1_555
N2 C14 1_555 1_555
N3 C25 1_555 1_555
N4 C30 1_555 1_555
N5 C37 1_555 1_555
O1 C8 1_555 1_555
O2 C33 1_555 1_555
O3 C33 1_555 1_555
O4 Co1 1_555 1_555
H27 O4 1_555 1_555
H28 N5 1_555 1_555
C33E C34E 1_555 1_555
C34E C35E 1_555 1_555
C35E H23E 1_555 1_555
C36E C35E 1_555 1_555
H24E C36E 1_555 1_555
C37E N5 1_555 1_555
C38E C37E 1_555 1_555
H25E C38E 1_555 1_555
C39E C34E 1_555 1_555
H26E C39E 1_555 1_555
O2E C33E 1_555 1_555
O3E C33E 1_555 1_555
C1E H1E 1_555 1_555
C2E C1E 1_555 1_555
H2E C2E 1_555 1_555
C3E C2E 1_555 1_555
C4E C3E 1_555 1_555
H3E C4E 1_555 1_555
C5E C4E 1_555 1_555
H4E C5E 1_555 1_555
C6E C3E 1_555 1_555
C7E C6E 1_555 1_555
H5E C7E 1_555 1_555
C8E C7E 1_555 1_555
C9E C8E 1_555 1_555
H6E C9E 1_555 1_555
C10E C9E 1_555 1_555
C11E C6E 1_555 1_555
H7E C11E 1_555 1_555
C12E C10E 1_555 1_555
C13E C12E 1_555 1_555
H8E C13E 1_555 1_555
C14E C13E 1_555 1_555
H9E C14E 1_555 1_555
C15E H10E 1_555 1_555
C16E C12E 1_555 1_555
H11E C16E 1_555 1_555
C17E C18E 1_555 1_555
C18E H12E 1_555 1_555
C19E C18E 1_555 1_555
C20E C19E 1_555 1_555
H13E C20E 1_555 1_555
C21E C20E 1_555 1_555
C22E C17E 1_555 1_555
H14E C22E 1_555 1_555
C23E C21E 1_555 1_555
C24E C23E 1_555 1_555
H15E C24E 1_555 1_555
C25E C24E 1_555 1_555
H16E C25E 1_555 1_555
C26E H17E 1_555 1_555
C27E C23E 1_555 1_555
H18E C27E 1_555 1_555
C28E C19E 1_555 1_555
C29E C28E 1_555 1_555
H19E C29E 1_555 1_555
C30E C29E 1_555 1_555
H20E C30E 1_555 1_555
C31E H21E 1_555 1_555
C32E C28E 1_555 1_555
H22E C32E 1_555 1_555
Co1E O2E 1_555 1_555
N1E C1E 1_555 1_555
N2E C14E 1_555 1_555
N3E C25E 1_555 1_555
N4E C30E 1_555 1_555
O1E C8E 1_555 1_555
O4E Co1E 1_555 1_555
H27E O4E 1_555 1_555
Co1H N4E 1_555 1_555
Co1M N4 1_555 1_555
Co1V N3 1_555 1_555
Co1AA N3E 1_555 1_555
N3V Co1 1_555 1_555
N3AA Co1E 1_555 1_555
N4H Co1E 1_555 1_555
N4M Co1 1_555 1_555
C5 N1 1_555 1_555
C10 C11 1_555 1_555
C15 C16 1_555 1_555
C15 N2 1_555 1_555
C17 O1 1_555 1_555
C21 C22 1_555 1_555
C26 C27 1_555 1_555
C26 N3 1_555 1_555
C31 C32 1_555 1_555
C31 N4 1_555 1_555
C38 C39 1_555 1_555
Co1 O2 1_555 1_555
Co1 O3 1_555 1_555
C36E C37E 1_555 1_555
C38E C39E 1_555 1_555
O3E Co1E 1_555 1_555
C5E N1E 1_555 1_555
C10E C11E 1_555 1_555
C15E C16E 1_555 1_555
C15E N2E 1_555 1_555
C17E O1E 1_555 1_555
C21E C22E 1_555 1_555
C26E C27E 1_555 1_555
C26E N3E 1_555 1_555
C31E C32E 1_555 1_555
C31E N4E 1_555 1_555
Co1E N1E 1_555 1_555

#END
