
#######################################################################
#
#                 Cambridge Crystallographic Data Centre
#                                CCDC 
#
#######################################################################
#
# If this CIF has been generated from an entry in the Cambridge 
# Structural Database, then it will include bibliographic, chemical, 
# crystal, experimental, refinement or atomic coordinate data resulting 
# from the CCDC's data processing and validation procedures.
#
#######################################################################

data_ALEHUW
_chemical_formula_moiety         'C60 H42 N12 O27 Zn16'
_symmetry_cell_setting           cubic
_symmetry_space_group_name_H-M   'P a -3'
_symmetry_Int_Tables_number      205
_space_group_name_Hall           '-P 2ac 2ab 3'
loop_
_symmetry_equiv_pos_site_id
_symmetry_equiv_pos_as_xyz
1 x,y,z
2 z,x,y
3 y,z,x
4 1/2-y,-z,1/2+x
5 1/2+z,1/2-x,-y
6 -y,1/2+z,1/2-x
7 1/2-z,-x,1/2+y
8 -z,1/2+x,1/2-y
9 1/2+y,1/2-z,-x
10 1/2-x,-y,1/2+z
11 1/2+x,1/2-y,-z
12 -x,1/2+y,1/2-z
13 -x,-y,-z
14 -z,-x,-y
15 -y,-z,-x
16 1/2+y,z,1/2-x
17 1/2-z,1/2+x,y
18 y,1/2-z,1/2+x
19 1/2+z,x,1/2-y
20 z,1/2-x,1/2+y
21 1/2-y,1/2+z,x
22 1/2+x,y,1/2-z
23 1/2-x,1/2+y,z
24 x,1/2-y,1/2+z
_cell_length_a                   33.9803(5)
_cell_length_b                   33.9803(5)
_cell_length_c                   33.9803(5)
_cell_angle_alpha                90
_cell_angle_beta                 90
_cell_angle_gamma                90
_cell_volume                     39235.7
loop_
_atom_site_label
_atom_site_type_symbol
_atom_site_fract_x
_atom_site_fract_y
_atom_site_fract_z
_atom_site_U_iso_or_equiv
_atom_site_thermal_displace_type
Zn1 Zn 0.46552(8) 0.96552(8) 0.53448(8) 0.1226 Uani
O1 O 0.2625(3) 0.8917(3) 0.3633(3) 0.2573 Uani
O2 O 0.5000 1.0000 0.5000 0.1150 Uani
N1 N 0.2888(3) 0.8564(3) 0.4146(3) 0.2683 Uani
H1 H 0.2832 0.8375 0.4305 0.3220 Uiso
N2 N 0.2364(3) 0.8332(3) 0.3789(3) 0.2657 Uani
H2 H 0.2397 0.8134 0.3943 0.3190 Uiso
C1 C 0.4212(4) 0.9450(4) 0.4674(4) 0.1600 Uani
C2 C 0.3879(3) 0.9206(4) 0.4492(3) 0.2117 Uani
C3 C 0.3624(5) 0.9365(3) 0.4243(4) 0.2663 Uani
H3 H 0.3659 0.9623 0.4159 0.3200 Uiso
C4 C 0.3295(4) 0.9141(5) 0.4104(3) 0.2890 Uani
H4 H 0.3119 0.9257 0.3929 0.3470 Uiso
C5 C 0.3236(3) 0.8781(5) 0.4215(4) 0.2670 Uani
C6 C 0.3492(5) 0.8602(3) 0.4473(4) 0.2890 Uani
H5 H 0.3451 0.8344 0.4556 0.3470 Uiso
C7 C 0.3835(4) 0.8832(5) 0.4615(3) 0.2663 Uani
H6 H 0.4017 0.8720 0.4786 0.3200 Uiso
C8 C 0.2627(3) 0.8638(4) 0.3834(3) 0.2667 Uani
C9 C 0.2047(3) 0.8303(6) 0.3521(4) 0.2653 Uani
C10 C 0.2013(4) 0.8570(3) 0.3219(5) 0.2393 Uani
H7 H 0.2191 0.8776 0.3191 0.2870 Uiso
O3 O 0.4254(4) 0.9409(4) 0.5045(4) 0.1590 Uani
O4 O 0.4341(4) 0.9657(5) 0.4423(4) 0.1537 Uani
Zn2 Zn 0.44670(7) 1.01917(8) 0.49555(8) 0.1319 Uani
O1E O 0.1083(3) 0.8633(3) 0.2375(3) 0.2573 Uani
N1E N 0.1436(3) 0.9146(3) 0.2112(3) 0.2683 Uani
H1E H 0.1625 0.9305 0.2168 0.3220 Uiso
N2E N 0.1668(3) 0.8789(3) 0.2636(3) 0.2657 Uani
H2E H 0.1866 0.8943 0.2603 0.3190 Uiso
C1E C 0.0550(4) 0.9674(4) 0.0788(4) 0.1600 Uani
C2E C 0.0794(4) 0.9492(3) 0.1121(3) 0.2117 Uani
C3E C 0.0635(3) 0.9243(4) 0.1376(5) 0.2663 Uani
H3E H 0.0377 0.9159 0.1341 0.3200 Uiso
C4E C 0.0859(5) 0.9104(3) 0.1705(4) 0.2890 Uani
H4E H 0.0743 0.8929 0.1881 0.3470 Uiso
C5E C 0.1219(5) 0.9215(4) 0.1764(3) 0.2670 Uani
C6E C 0.1398(3) 0.9473(4) 0.1508(5) 0.2890 Uani
H5E H 0.1656 0.9556 0.1549 0.3470 Uiso
C7E C 0.1168(5) 0.9615(3) 0.1165(4) 0.2663 Uani
H6E H 0.1280 0.9786 0.0983 0.3200 Uiso
C8E C 0.1362(4) 0.8834(3) 0.2373(3) 0.2667 Uani
C9E C 0.1697(6) 0.8521(4) 0.2953(3) 0.2653 Uani
C10E C 0.1430(3) 0.8219(5) 0.2987(4) 0.2393 Uani
H7E H 0.1224 0.8191 0.2809 0.2870 Uiso
O3E O 0.0591(4) 1.0045(4) 0.0746(4) 0.1590 Uani
O4E O 0.0343(5) 0.9423(4) 0.0659(4) 0.1537 Uani
O1F O 0.1367(3) 0.7375(3) 0.3917(3) 0.2573 Uani
N1F N 0.0854(3) 0.7112(3) 0.3564(3) 0.2683 Uani
H1F H 0.0695 0.7168 0.3375 0.3220 Uiso
N2F N 0.1211(3) 0.7636(3) 0.3332(3) 0.2657 Uani
H2F H 0.1057 0.7603 0.3134 0.3190 Uiso
C1F C 0.0326(4) 0.5788(4) 0.4450(4) 0.1600 Uani
C2F C 0.0508(3) 0.6121(3) 0.4206(4) 0.2117 Uani
C3F C 0.0757(4) 0.6376(5) 0.4365(3) 0.2663 Uani
H3F H 0.0841 0.6341 0.4623 0.3200 Uiso
C4F C 0.0896(3) 0.6705(4) 0.4141(5) 0.2890 Uani
H4F H 0.1071 0.6881 0.4257 0.3470 Uiso
C5F C 0.0785(4) 0.6764(3) 0.3781(5) 0.2670 Uani
C6F C 0.0527(4) 0.6508(5) 0.3602(3) 0.2890 Uani
H5F H 0.0444 0.6549 0.3344 0.3470 Uiso
C7F C 0.0385(3) 0.6165(4) 0.3832(5) 0.2663 Uani
H6F H 0.0214 0.5983 0.3720 0.3200 Uiso
C8F C 0.1166(3) 0.7373(3) 0.3638(4) 0.2667 Uani
C9F C 0.1479(4) 0.7953(3) 0.3303(6) 0.2653 Uani
C10F C 0.1781(5) 0.7987(4) 0.3570(3) 0.2393 Uani
H7F H 0.1809 0.7809 0.3776 0.2870 Uiso
O3F O -0.0045(4) 0.5746(4) 0.4409(4) 0.1590 Uani
O4F O 0.0577(4) 0.5659(4) 0.4657(5) 0.1537 Uani
Zn1L Zn 0.53448(8) 1.03448(8) 0.46552(8) 0.1226 Uani
O1L O 0.7375(3) 1.1083(3) 0.6367(3) 0.2573 Uani
N1L N 0.7112(3) 1.1436(3) 0.5854(3) 0.2683 Uani
H1L H 0.7168 1.1625 0.5695 0.3220 Uiso
N2L N 0.7636(3) 1.1668(3) 0.6211(3) 0.2657 Uani
H2L H 0.7603 1.1866 0.6057 0.3190 Uiso
C1L C 0.5788(4) 1.0550(4) 0.5326(4) 0.1600 Uani
C2L C 0.6121(3) 1.0794(4) 0.5508(3) 0.2117 Uani
C3L C 0.6376(5) 1.0635(3) 0.5757(4) 0.2663 Uani
H3L H 0.6341 1.0377 0.5841 0.3200 Uiso
C4L C 0.6705(4) 1.0859(5) 0.5896(3) 0.2890 Uani
H4L H 0.6881 1.0743 0.6071 0.3470 Uiso
C5L C 0.6764(3) 1.1219(5) 0.5785(4) 0.2670 Uani
C6L C 0.6508(5) 1.1398(3) 0.5527(4) 0.2890 Uani
H5L H 0.6549 1.1656 0.5444 0.3470 Uiso
C7L C 0.6165(4) 1.1168(5) 0.5385(3) 0.2663 Uani
H6L H 0.5983 1.1280 0.5214 0.3200 Uiso
C8L C 0.7373(3) 1.1362(4) 0.6166(3) 0.2667 Uani
C9L C 0.7953(3) 1.1697(6) 0.6479(4) 0.2653 Uani
C10L C 0.7987(4) 1.1430(3) 0.6781(5) 0.2393 Uani
H7L H 0.7809 1.1224 0.6809 0.2870 Uiso
O3L O 0.5746(4) 1.0591(4) 0.4955(4) 0.1590 Uani
O4L O 0.5659(4) 1.0343(5) 0.5577(4) 0.1537 Uani
Zn2L Zn 0.55330(7) 0.98083(8) 0.50445(8) 0.1319 Uani
O1Q O 0.8917(3) 1.1367(3) 0.7625(3) 0.2573 Uani
N1Q N 0.8564(3) 1.0854(3) 0.7888(3) 0.2683 Uani
H1Q H 0.8375 1.0695 0.7832 0.3220 Uiso
N2Q N 0.8332(3) 1.1211(3) 0.7364(3) 0.2657 Uani
H2Q H 0.8134 1.1057 0.7397 0.3190 Uiso
C1Q C 0.9450(4) 1.0326(4) 0.9212(4) 0.1600 Uani
C2Q C 0.9206(4) 1.0508(3) 0.8879(3) 0.2117 Uani
C3Q C 0.9365(3) 1.0757(4) 0.8624(5) 0.2663 Uani
H3Q H 0.9623 1.0841 0.8659 0.3200 Uiso
C4Q C 0.9141(5) 1.0896(3) 0.8295(4) 0.2890 Uani
H4Q H 0.9257 1.1071 0.8119 0.3470 Uiso
C5Q C 0.8781(5) 1.0785(4) 0.8236(3) 0.2670 Uani
C6Q C 0.8602(3) 1.0527(4) 0.8492(5) 0.2890 Uani
H5Q H 0.8344 1.0444 0.8451 0.3470 Uiso
C7Q C 0.8832(5) 1.0385(3) 0.8835(4) 0.2663 Uani
H6Q H 0.8720 1.0214 0.9017 0.3200 Uiso
C8Q C 0.8638(4) 1.1166(3) 0.7627(3) 0.2667 Uani
C9Q C 0.8303(6) 1.1479(4) 0.7047(3) 0.2653 Uani
C10Q C 0.8570(3) 1.1781(5) 0.7013(4) 0.2393 Uani
H7Q H 0.8776 1.1809 0.7191 0.2870 Uiso
O3Q O 0.9409(4) 0.9955(4) 0.9254(4) 0.1590 Uani
O4Q O 0.9657(5) 1.0577(4) 0.9341(4) 0.1537 Uani
O1R O 0.8633(3) 1.2625(3) 0.6083(3) 0.2573 Uani
N1R N 0.9146(3) 1.2888(3) 0.6436(3) 0.2683 Uani
H1R H 0.9305 1.2832 0.6625 0.3220 Uiso
N2R N 0.8789(3) 1.2364(3) 0.6668(3) 0.2657 Uani
H2R H 0.8943 1.2397 0.6866 0.3190 Uiso
C1R C 0.9674(4) 1.4212(4) 0.5550(4) 0.1600 Uani
C2R C 0.9492(3) 1.3879(3) 0.5794(4) 0.2117 Uani
C3R C 0.9243(4) 1.3624(5) 0.5635(3) 0.2663 Uani
H3R H 0.9159 1.3659 0.5377 0.3200 Uiso
C4R C 0.9104(3) 1.3295(4) 0.5859(5) 0.2890 Uani
H4R H 0.8929 1.3119 0.5743 0.3470 Uiso
C5R C 0.9215(4) 1.3236(3) 0.6219(5) 0.2670 Uani
C6R C 0.9473(4) 1.3492(5) 0.6398(3) 0.2890 Uani
H5R H 0.9556 1.3451 0.6656 0.3470 Uiso
C7R C 0.9615(3) 1.3835(4) 0.6168(5) 0.2663 Uani
H6R H 0.9786 1.4017 0.6280 0.3200 Uiso
C8R C 0.8834(3) 1.2627(3) 0.6362(4) 0.2667 Uani
C9R C 0.8521(4) 1.2047(3) 0.6697(6) 0.2653 Uani
C10R C 0.8219(5) 1.2013(4) 0.6430(3) 0.2393 Uani
H7R H 0.8191 1.2191 0.6224 0.2870 Uiso
O3R O 1.0045(4) 1.4254(4) 0.5591(4) 0.1590 Uani
O4R O 0.9423(4) 1.4341(4) 0.5343(5) 0.1537 Uani
Zn2G Zn 0.50445(8) 0.94670(7) 0.48083(8) 0.1319 Uani
Zn2H Zn 0.51917(8) 1.00445(8) 0.55330(7) 0.1319 Uani
Zn2S Zn 0.49555(8) 1.05330(7) 0.51917(8) 0.1319 Uani
Zn2T Zn 0.48083(8) 0.99555(8) 0.44670(7) 0.1319 Uani
Zn1B Zn -0.03448(8) 0.53448(8) 0.46552(8) 0.1226 Uani
Zn1D Zn 0.03448(8) 1.03448(8) 0.03448(8) 0.1226 Uani
Zn1N Zn 1.03448(8) 1.46552(8) 0.53448(8) 0.1226 Uani
Zn1P Zn 0.96552(8) 0.96552(8) 0.96552(8) 0.1226 Uani
O3G O 0.4955(4) 0.9254(4) 0.5591(4) 0.1590 Uani
O3H O 0.4409(4) 0.9955(4) 0.5746(4) 0.1590 Uani
O3S O 0.5045(4) 1.0746(4) 0.4409(4) 0.1590 Uani
O3T O 0.5591(4) 1.0045(4) 0.4254(4) 0.1590 Uani
O4G O 0.5577(4) 0.9341(4) 0.5343(5) 0.1537 Uani
O4H O 0.4657(5) 1.0577(4) 0.5659(4) 0.1537 Uani
O4S O 0.4423(4) 1.0659(4) 0.4657(5) 0.1537 Uani
O4T O 0.5343(5) 0.9423(4) 0.4341(4) 0.1537 Uani
Zn2D Zn 0.99555(8) 1.05330(7) 0.98083(8) 0.1319 Uani
Zn2J Zn 0.94670(7) 1.48083(8) 0.50445(8) 0.1319 Uani
Zn2P Zn 0.00445(8) 0.94670(7) 0.01917(8) 0.1319 Uani
Zn2V Zn 0.05330(7) 0.51917(8) 0.49555(8) 0.1319 Uani
loop_
_atom_site_aniso_label
_atom_site_aniso_U_11
_atom_site_aniso_U_22
_atom_site_aniso_U_33
_atom_site_aniso_U_23
_atom_site_aniso_U_13
_atom_site_aniso_U_12
Zn1 0.1226(14) 0.1226(14) 0.1226(14) -0.0134(15) -0.0134(15) 0.0134(15)
O1 0.241(7) 0.258(7) 0.273(7) 0.056(6) -0.122(6) -0.088(5)
O2 0.115(4) 0.115(4) 0.115(4) -0.001(3) -0.001(3) 0.001(3)
N1 0.270(6) 0.266(6) 0.269(6) 0.034(4) -0.029(4) -0.021(4)
N2 0.268(6) 0.261(6) 0.268(6) 0.029(4) -0.030(4) -0.026(4)
C1 0.163(5) 0.158(5) 0.159(5) 0.003(4) -0.010(4) 0.001(4)
C2 0.211(5) 0.209(5) 0.215(6) 0.005(4) -0.016(4) -0.015(4)
C3 0.266(5) 0.261(5) 0.272(5) 0.014(3) -0.027(3) -0.014(3)
C4 0.288(5) 0.283(5) 0.296(5) 0.013(3) -0.030(3) -0.016(3)
C5 0.262(6) 0.266(6) 0.273(7) 0.013(4) -0.033(4) -0.014(4)
C6 0.288(5) 0.283(5) 0.296(5) 0.013(3) -0.030(3) -0.016(3)
C7 0.266(5) 0.261(5) 0.272(5) 0.014(3) -0.027(3) -0.014(3)
C8 0.268(7) 0.261(7) 0.271(7) 0.022(4) -0.023(4) -0.023(4)
C9 0.267(7) 0.266(7) 0.263(7) 0.022(4) -0.023(4) -0.014(4)
C10 0.241(7) 0.238(7) 0.239(7) 0.017(4) -0.023(4) -0.019(4)
O3 0.161(8) 0.151(7) 0.165(6) 0.007(5) -0.018(5) -0.027(6)
O4 0.151(9) 0.170(7) 0.140(7) 0.001(5) -0.018(6) 0.011(6)
Zn2 0.1246(19) 0.140(2) 0.131(2) -0.0031(17) -0.0033(17) 0.0082(17)
O1E 0.258 0.273 0.241 0.122 -0.088 -0.056
N1E 0.266 0.269 0.27 0.029 -0.021 -0.034
N2E 0.261 0.268 0.268 0.03 -0.026 -0.029
C1E 0.158 0.159 0.163 0.01 0.001 -0.003
C2E 0.209 0.215 0.211 0.016 -0.015 -0.005
C3E 0.261 0.272 0.266 0.027 -0.014 -0.014
C4E 0.283 0.296 0.288 0.03 -0.016 -0.013
C5E 0.266 0.273 0.262 0.033 -0.014 -0.013
C6E 0.283 0.296 0.288 0.03 -0.016 -0.013
C7E 0.261 0.272 0.266 0.027 -0.014 -0.014
C8E 0.261 0.271 0.268 0.023 -0.023 -0.022
C9E 0.266 0.263 0.267 0.023 -0.014 -0.022
C10E 0.238 0.239 0.241 0.023 -0.019 -0.017
O3E 0.151 0.165 0.161 0.018 -0.027 -0.007
O4E 0.17 0.14 0.151 0.018 0.011 -0.001
O1F 0.273 0.241 0.258 0.088 -0.056 -0.122
N1F 0.269 0.27 0.266 0.021 -0.034 -0.029
N2F 0.268 0.268 0.261 0.026 -0.029 -0.03
C1F 0.159 0.163 0.158 -0.001 -0.003 -0.01
C2F 0.215 0.211 0.209 0.015 -0.005 -0.016
C3F 0.272 0.266 0.261 0.014 -0.014 -0.027
C4F 0.296 0.288 0.283 0.016 -0.013 -0.03
C5F 0.273 0.262 0.266 0.014 -0.013 -0.033
C6F 0.296 0.288 0.283 0.016 -0.013 -0.03
C7F 0.272 0.266 0.261 0.014 -0.014 -0.027
C8F 0.271 0.268 0.261 0.023 -0.022 -0.023
C9F 0.263 0.267 0.266 0.014 -0.022 -0.023
C10F 0.239 0.241 0.238 0.019 -0.017 -0.023
O3F 0.165 0.161 0.151 0.027 -0.007 -0.018
O4F 0.14 0.151 0.17 -0.011 -0.001 -0.018
Zn1L 0.1226 0.1226 0.1226 -0.0134 -0.0134 0.0134
O1L 0.241 0.258 0.273 0.056 -0.122 -0.088
N1L 0.27 0.266 0.269 0.034 -0.029 -0.021
N2L 0.268 0.261 0.268 0.029 -0.03 -0.026
C1L 0.163 0.158 0.159 0.003 -0.01 0.001
C2L 0.211 0.209 0.215 0.005 -0.016 -0.015
C3L 0.266 0.261 0.272 0.014 -0.027 -0.014
C4L 0.288 0.283 0.296 0.013 -0.03 -0.016
C5L 0.262 0.266 0.273 0.013 -0.033 -0.014
C6L 0.288 0.283 0.296 0.013 -0.03 -0.016
C7L 0.266 0.261 0.272 0.014 -0.027 -0.014
C8L 0.268 0.261 0.271 0.022 -0.023 -0.023
C9L 0.267 0.266 0.263 0.022 -0.023 -0.014
C10L 0.241 0.238 0.239 0.017 -0.023 -0.019
O3L 0.161 0.151 0.165 0.007 -0.018 -0.027
O4L 0.151 0.17 0.14 0.001 -0.018 0.011
Zn2L 0.1246 0.14 0.131 -0.0031 -0.0033 0.0082
O1Q 0.258 0.273 0.241 0.122 -0.088 -0.056
N1Q 0.266 0.269 0.27 0.029 -0.021 -0.034
N2Q 0.261 0.268 0.268 0.03 -0.026 -0.029
C1Q 0.158 0.159 0.163 0.01 0.001 -0.003
C2Q 0.209 0.215 0.211 0.016 -0.015 -0.005
C3Q 0.261 0.272 0.266 0.027 -0.014 -0.014
C4Q 0.283 0.296 0.288 0.03 -0.016 -0.013
C5Q 0.266 0.273 0.262 0.033 -0.014 -0.013
C6Q 0.283 0.296 0.288 0.03 -0.016 -0.013
C7Q 0.261 0.272 0.266 0.027 -0.014 -0.014
C8Q 0.261 0.271 0.268 0.023 -0.023 -0.022
C9Q 0.266 0.263 0.267 0.023 -0.014 -0.022
C10Q 0.238 0.239 0.241 0.023 -0.019 -0.017
O3Q 0.151 0.165 0.161 0.018 -0.027 -0.007
O4Q 0.17 0.14 0.151 0.018 0.011 -0.001
O1R 0.273 0.241 0.258 0.088 -0.056 -0.122
N1R 0.269 0.27 0.266 0.021 -0.034 -0.029
N2R 0.268 0.268 0.261 0.026 -0.029 -0.03
C1R 0.159 0.163 0.158 -0.001 -0.003 -0.01
C2R 0.215 0.211 0.209 0.015 -0.005 -0.016
C3R 0.272 0.266 0.261 0.014 -0.014 -0.027
C4R 0.296 0.288 0.283 0.016 -0.013 -0.03
C5R 0.273 0.262 0.266 0.014 -0.013 -0.033
C6R 0.296 0.288 0.283 0.016 -0.013 -0.03
C7R 0.272 0.266 0.261 0.014 -0.014 -0.027
C8R 0.271 0.268 0.261 0.023 -0.022 -0.023
C9R 0.263 0.267 0.266 0.014 -0.022 -0.023
C10R 0.239 0.241 0.238 0.019 -0.017 -0.023
O3R 0.165 0.161 0.151 0.027 -0.007 -0.018
O4R 0.14 0.151 0.17 -0.011 -0.001 -0.018
Zn2G 0.131 0.1246 0.14 -0.0082 -0.0031 0.0033
Zn2H 0.14 0.131 0.1246 -0.0033 -0.0082 0.0031
Zn2S 0.131 0.1246 0.14 -0.0082 -0.0031 0.0033
Zn2T 0.14 0.131 0.1246 -0.0033 -0.0082 0.0031
Zn1B 0.1226 0.1226 0.1226 -0.0134 0.0134 -0.0134
Zn1D 0.1226 0.1226 0.1226 0.0134 0.0134 0.0134
Zn1N 0.1226 0.1226 0.1226 -0.0134 0.0134 -0.0134
Zn1P 0.1226 0.1226 0.1226 0.0134 0.0134 0.0134
O3G 0.165 0.161 0.151 0.027 0.007 0.018
O3H 0.151 0.165 0.161 -0.018 0.027 -0.007
O3S 0.165 0.161 0.151 0.027 0.007 0.018
O3T 0.151 0.165 0.161 -0.018 0.027 -0.007
O4G 0.14 0.151 0.17 -0.011 0.001 0.018
O4H 0.17 0.14 0.151 -0.018 -0.011 -0.001
O4S 0.14 0.151 0.17 -0.011 0.001 0.018
O4T 0.17 0.14 0.151 -0.018 -0.011 -0.001
Zn2D 0.131 0.1246 0.14 0.0082 0.0031 0.0033
Zn2J 0.1246 0.14 0.131 -0.0031 0.0033 -0.0082
Zn2P 0.131 0.1246 0.14 0.0082 0.0031 0.0033
Zn2V 0.1246 0.14 0.131 -0.0031 0.0033 -0.0082
loop_
_geom_bond_atom_site_label_1
_geom_bond_atom_site_label_2
_geom_bond_site_symmetry_1
_geom_bond_site_symmetry_2
Zn1 O2 1_555 1_555
O1 C8 1_555 1_555
O2 Zn2 1_555 1_555
N1 H1 1_555 1_555
N2 H2 1_555 1_555
C1 C2 1_555 1_555
C2 C3 1_555 1_555
C3 H3 1_555 1_555
C4 C3 1_555 1_555
H4 C4 1_555 1_555
C5 N1 1_555 1_555
C6 C5 1_555 1_555
H5 C6 1_555 1_555
C7 C2 1_555 1_555
H6 C7 1_555 1_555
C8 N1 1_555 1_555
C9 N2 1_555 1_555
C10 C9 1_555 1_555
H7 C10 1_555 1_555
O3 Zn1 1_555 1_555
O4 C1 1_555 1_555
Zn2 Zn1 1_555 1_555
O1E C8E 1_555 1_555
N1E H1E 1_555 1_555
N2E H2E 1_555 1_555
C1E C2E 1_555 1_555
C2E C3E 1_555 1_555
C3E H3E 1_555 1_555
C4E C3E 1_555 1_555
H4E C4E 1_555 1_555
C5E N1E 1_555 1_555
C6E C5E 1_555 1_555
H5E C6E 1_555 1_555
C7E C2E 1_555 1_555
H6E C7E 1_555 1_555
C8E N1E 1_555 1_555
C9E C10 1_555 1_555
C10E C9E 1_555 1_555
H7E C10E 1_555 1_555
O3E C1E 1_555 1_555
O4E C1E 1_555 1_555
O1F C8F 1_555 1_555
N1F H1F 1_555 1_555
N2F H2F 1_555 1_555
C1F C2F 1_555 1_555
C2F C3F 1_555 1_555
C3F H3F 1_555 1_555
C4F C3F 1_555 1_555
H4F C4F 1_555 1_555
C5F N1F 1_555 1_555
C6F C5F 1_555 1_555
H5F C6F 1_555 1_555
C7F C2F 1_555 1_555
H6F C7F 1_555 1_555
C8F N1F 1_555 1_555
C9F C10E 1_555 1_555
C10F C9 1_555 1_555
H7F C10F 1_555 1_555
O3F C1F 1_555 1_555
O4F C1F 1_555 1_555
Zn1L O2 1_555 1_555
O1L C8L 1_555 1_555
N1L H1L 1_555 1_555
N2L H2L 1_555 1_555
C1L C2L 1_555 1_555
C2L C3L 1_555 1_555
C3L H3L 1_555 1_555
C4L C3L 1_555 1_555
H4L C4L 1_555 1_555
C5L N1L 1_555 1_555
C6L C5L 1_555 1_555
H5L C6L 1_555 1_555
C7L C2L 1_555 1_555
H6L C7L 1_555 1_555
C8L N1L 1_555 1_555
C9L N2L 1_555 1_555
C10L C9L 1_555 1_555
H7L C10L 1_555 1_555
O3L Zn1L 1_555 1_555
O4L C1L 1_555 1_555
Zn2L O2 1_555 1_555
O1Q C8Q 1_555 1_555
N1Q H1Q 1_555 1_555
N2Q H2Q 1_555 1_555
C1Q C2Q 1_555 1_555
C2Q C3Q 1_555 1_555
C3Q H3Q 1_555 1_555
C4Q C3Q 1_555 1_555
H4Q C4Q 1_555 1_555
C5Q N1Q 1_555 1_555
C6Q C5Q 1_555 1_555
H5Q C6Q 1_555 1_555
C7Q C2Q 1_555 1_555
H6Q C7Q 1_555 1_555
C8Q N1Q 1_555 1_555
C9Q C10L 1_555 1_555
C10Q C9Q 1_555 1_555
H7Q C10Q 1_555 1_555
O3Q C1Q 1_555 1_555
O4Q C1Q 1_555 1_555
O1R C8R 1_555 1_555
N1R H1R 1_555 1_555
N2R H2R 1_555 1_555
C1R C2R 1_555 1_555
C2R C3R 1_555 1_555
C3R H3R 1_555 1_555
C4R C3R 1_555 1_555
H4R C4R 1_555 1_555
C5R N1R 1_555 1_555
C6R C5R 1_555 1_555
H5R C6R 1_555 1_555
C7R C2R 1_555 1_555
H6R C7R 1_555 1_555
C8R N1R 1_555 1_555
C9R C10Q 1_555 1_555
C10R C9L 1_555 1_555
H7R C10R 1_555 1_555
O3R C1R 1_555 1_555
O4R C1R 1_555 1_555
Zn2G Zn1 1_555 1_555
Zn2H Zn1 1_555 1_555
Zn2S O2 1_555 1_555
Zn2T O2 1_555 1_555
Zn1B O3F 1_555 1_555
Zn1D O3E 1_555 1_555
Zn1N O3R 1_555 1_555
Zn1P O3Q 1_555 1_555
O3G Zn1 1_555 1_555
O3H Zn1 1_555 1_555
O3S Zn1L 1_555 1_555
O3T Zn1L 1_555 1_555
O4G Zn2L 1_555 1_555
O4H Zn2S 1_555 1_555
O4S Zn2 1_555 1_555
O4T Zn2G 1_555 1_555
Zn2D O4Q 1_555 1_555
Zn2J O4R 1_555 1_555
Zn2P O4E 1_555 1_555
Zn2V O4F 1_555 1_555
O2 Zn2G 1_555 1_555
O2 Zn2H 1_555 1_555
N2 C8 1_555 1_555
C1 O3 1_555 1_555
C4 C5 1_555 1_555
C6 C7 1_555 1_555
O4 Zn2T 1_555 1_555
Zn2 Zn2S 1_555 1_555
Zn2 Zn2T 1_555 1_555
N2E C8E 1_555 1_555
N2E C9E 1_555 1_555
C4E C5E 1_555 1_555
C6E C7E 1_555 1_555
N2F C8F 1_555 1_555
N2F C9F 1_555 1_555
C4F C5F 1_555 1_555
C6F C7F 1_555 1_555
C9F C10F 1_555 1_555
Zn1L Zn2L 1_555 1_555
Zn1L Zn2S 1_555 1_555
Zn1L Zn2T 1_555 1_555
N2L C8L 1_555 1_555
C1L O3L 1_555 1_555
C4L C5L 1_555 1_555
C6L C7L 1_555 1_555
O4L Zn2H 1_555 1_555
Zn2L Zn2G 1_555 1_555
Zn2L Zn2H 1_555 1_555
N2Q C8Q 1_555 1_555
N2Q C9Q 1_555 1_555
C4Q C5Q 1_555 1_555
C6Q C7Q 1_555 1_555
N2R C8R 1_555 1_555
N2R C9R 1_555 1_555
C4R C5R 1_555 1_555
C6R C7R 1_555 1_555
C9R C10R 1_555 1_555
Zn2G Zn2T 1_555 1_555
Zn2H Zn2S 1_555 1_555

#END
