
#######################################################################
#
#                 Cambridge Crystallographic Data Centre
#                                CCDC 
#
#######################################################################
#
# If this CIF has been generated from an entry in the Cambridge 
# Structural Database, then it will include bibliographic, chemical, 
# crystal, experimental, refinement or atomic coordinate data resulting 
# from the CCDC's data processing and validation procedures.
#
#######################################################################

data_GIYSIR
_chemical_formula_moiety         'C42 H31 Cu8 Mo1 N12 S4'
_symmetry_cell_setting           monoclinic
_symmetry_space_group_name_H-M   'P 2/c'
_symmetry_Int_Tables_number      13
_space_group_name_Hall           '-P 2yc'
loop_
_symmetry_equiv_pos_site_id
_symmetry_equiv_pos_as_xyz
1 x,y,z
2 -x,y,1/2-z
3 -x,-y,-z
4 x,-y,1/2+z
_cell_length_a                   9.6250(19)
_cell_length_b                   11.780(2)
_cell_length_c                   18.714(4)
_cell_angle_alpha                90
_cell_angle_beta                 98.18(3)
_cell_angle_gamma                90
_cell_volume                     2100.25
loop_
_atom_site_label
_atom_site_type_symbol
_atom_site_fract_x
_atom_site_fract_y
_atom_site_fract_z
N5 N 0.5834(10) -0.0093(8) 0.2288(5)
C16 C 0.4996(14) -0.0790(11) 0.2478(8)
C17 C 0.514(2) -0.1935(11) 0.2327(13)
C18 C 0.422(2) -0.2723(11) 0.2552(16)
C19 C 0.3151(13) -0.2366(16) 0.2926(14)
C20 C 0.3005(11) -0.1220(18) 0.3077(11)
C21 C 0.6073(13) -0.0432(14) 0.2147(10)
N5A N 0.4166(10) -0.0093(8) 0.2712(5)
C17A C 0.486(2) -0.1935(11) 0.2673(13)
C18A C 0.578(2) -0.2723(11) 0.2448(16)
C19A C 0.6849(13) -0.2366(16) 0.2074(14)
C20A C 0.6995(11) -0.1220(18) 0.1923(11)
C21A C 0.3927(13) -0.0432(14) 0.2853(10)
C22 C 0.0000 -0.2452(19) 0.2500
C23 C 0.0000 -0.1266(18) 0.2500
N6 N 0.0000 -0.0203(17) 0.2500
Mo1 Mo -1.0000 0.62851(8) -0.2500
Cu1 Cu -0.71963(11) 0.63013(9) -0.21110(6)
Cu2 Cu -1.03612(12) 0.62744(9) -0.10948(5)
S1 S -0.8804(2) 0.73477(19) -0.16362(11)
S2 S -0.8474(2) 0.5216(2) -0.29901(11)
C1 C -1.0017(9) 0.5314(8) -0.0243(4)
N2 N -0.6198(7) 0.5113(6) -0.1374(4)
N3 N -0.1368(8) -0.2328(6) -0.0684(4)
N4 N -0.5542(9) 0.7058(7) -0.2409(5)
C3 C -0.4809(10) 0.5023(10) -0.1250(6)
H1 H -0.4272 0.5529 -0.1497
C4 C -0.4097(11) 0.4243(10) -0.0789(6)
H2 H -0.3101 0.4217 -0.0724
C5 C -0.4843(10) 0.3503(7) -0.0424(5)
C6 C -0.6275(12) 0.3615(10) -0.0535(7)
H3 H -0.6834 0.3143 -0.0278
C7 C -0.6913(11) 0.4413(10) -0.1018(7)
H4 H -0.7909 0.4456 -0.1096
C8 C -0.4093(12) 0.2634(8) 0.0092(5)
H5 H -0.4710 0.2415 0.0449
H6 H -0.3233 0.2980 0.0357
C9 C -0.3695(12) 0.1577(8) -0.0300(6)
H7 H -0.4555 0.1234 -0.0566
H8 H -0.3077 0.1797 -0.0657
C10 C -0.2957(13) 0.0713(9) 0.0206(5)
H9 H -0.3614 0.0466 0.0538
H10 H -0.2157 0.1093 0.0503
C11 C -0.2405(10) -0.0336(8) -0.0122(5)
C12 C -0.2906(13) -0.0731(9) -0.0798(6)
H11 H -0.3637 -0.0332 -0.1089
C13 C -0.2359(12) -0.1702(9) -0.1060(5)
H12 H -0.2713 -0.1936 -0.1537
C14 C -0.0898(11) -0.1956(9) -0.0024(5)
H13 H -0.0225 -0.2409 0.0269
C15 C -0.1328(10) -0.0935(8) 0.0273(5)
H14 H -0.0890 -0.0669 0.0729
Cu1A Cu -1.28037(11) 0.63013(9) -0.28890(6)
Cu1A_2 Cu -0.28037(11) 0.63013(9) -0.28890(6)
Cu1_2 Cu -1.71963(11) 1.63013(9) -0.21110(6)
Cu2A Cu -0.96388(12) 0.62744(9) -0.39052(5)
Cu2_2 Cu -0.03612(12) -0.37256(9) -0.10948(5)
Cu2B Cu -0.96388(12) 0.37256(9) 0.10948(5)
S1A S -1.1196(2) 0.73477(19) -0.33638(11)
S2A S -1.1526(2) 0.5216(2) -0.20099(11)
C1B C -0.9983(9) 0.4686(8) 0.0243(4)
C1A C -0.9983(9) 0.5314(8) -0.4757(4)
N2_2 N -1.6198(7) 1.5113(6) -0.1374(4)
N2A N -1.3802(7) 0.5113(6) -0.3626(4)
N3_2 N -1.1368(8) 0.7672(6) -0.0684(4)
N3A N -0.8632(8) 0.7672(6) -0.4316(4)
N4A N -0.4458(9) 0.7058(7) -0.2591(5)
N4A_2 N -1.4458(9) 0.7058(7) -0.2591(5)
C3_2 C -1.4809(10) 1.5023(10) -0.1250(6)
H1_2 H -1.4272 1.5529 -0.1497
C4_2 C -1.4097(11) 1.4243(10) -0.0789(6)
H2_2 H -1.3101 1.4217 -0.0724
C5_2 C -1.4843(10) 1.3503(7) -0.0424(5)
C6_2 C -1.6275(12) 1.3615(10) -0.0535(7)
H3_2 H -1.6834 1.3143 -0.0278
C7_2 C -1.6913(11) 1.4413(10) -0.1018(7)
H4_2 H -1.7909 1.4456 -0.1096
C8_2 C -1.4093(12) 1.2634(8) 0.0092(5)
H5_2 H -1.4710 1.2415 0.0449
H6_2 H -1.3233 1.2980 0.0357
C9_2 C -1.3695(12) 1.1577(8) -0.0300(6)
H7_2 H -1.4555 1.1234 -0.0566
H8_2 H -1.3077 1.1797 -0.0657
C10_2 C -1.2957(13) 1.0713(9) 0.0206(5)
H9_2 H -1.3614 1.0466 0.0538
H10_2 H -1.2157 1.1093 0.0503
C11_2 C -1.2405(10) 0.9664(8) -0.0122(5)
C12_2 C -1.2906(13) 0.9269(9) -0.0798(6)
H11_2 H -1.3637 0.9668 -0.1089
C13_2 C -1.2359(12) 0.8298(9) -0.1060(5)
H12_2 H -1.2713 0.8064 -0.1537
C14_2 C -1.0898(11) 0.8044(9) -0.0024(5)
H13_2 H -1.0225 0.7591 0.0269
C15_2 C -1.1328(10) 0.9065(8) 0.0273(5)
H14_2 H -1.0890 0.9331 0.0729
loop_
_geom_bond_atom_site_label_1
_geom_bond_atom_site_label_2
_geom_bond_site_symmetry_1
_geom_bond_site_symmetry_2
Mo1 S1 1_555 1_555
Cu1 S1 1_555 1_555
Cu2 S1 1_555 1_555
S2 Mo1 1_555 1_555
C1 Cu2 1_555 1_555
N2 Cu1 1_555 1_555
N3 C13 1_555 1_555
N4 Cu1 1_555 1_555
C3 N2 1_555 1_555
H1 C3 1_555 1_555
C4 C3 1_555 1_555
H2 C4 1_555 1_555
C5 C4 1_555 1_555
C6 C5 1_555 1_555
H3 C6 1_555 1_555
C7 N2 1_555 1_555
H4 C7 1_555 1_555
C8 C5 1_555 1_555
H5 C8 1_555 1_555
H6 C8 1_555 1_555
C9 C8 1_555 1_555
H7 C9 1_555 1_555
H8 C9 1_555 1_555
C10 C9 1_555 1_555
H9 C10 1_555 1_555
H10 C10 1_555 1_555
C11 C10 1_555 1_555
C12 C11 1_555 1_555
H11 C12 1_555 1_555
C13 C12 1_555 1_555
H12 C13 1_555 1_555
C14 N3 1_555 1_555
H13 C14 1_555 1_555
C15 C11 1_555 1_555
H14 C15 1_555 1_555
N5 C16 1_555 1_555
C16 C17 1_555 1_555
C17 C18 1_555 1_555
C18 C19 1_555 1_555
C19 C20 1_555 1_555
C20 C21A 1_555 1_555
C21 N5 1_555 1_555
C22 C23 1_555 1_555
C23 N6 1_555 1_555
Cu1A S1A 1_555 1_555
Cu1A_2 N4A 1_555 1_555
Cu1_2 N2_2 1_555 1_555
Cu2A S2 1_555 1_555
Cu2_2 N3 1_555 1_555
Cu2B C1B 1_555 1_555
S1A Mo1 1_555 1_555
S2A Mo1 1_555 1_555
C1B C1 1_555 1_555
C1A Cu2A 1_555 1_555
N2_2 C3_2 1_555 1_555
N2A Cu1A 1_555 1_555
N3_2 Cu2 1_555 1_555
N3A Cu2A 1_555 1_555
N4A N4 1_555 1_555
N4A_2 Cu1A 1_555 1_555
C3_2 H1_2 1_555 1_555
C4_2 C3_2 1_555 1_555
H2_2 C4_2 1_555 1_555
C5_2 C4_2 1_555 1_555
C6_2 C5_2 1_555 1_555
H3_2 C6_2 1_555 1_555
C7_2 N2_2 1_555 1_555
H4_2 C7_2 1_555 1_555
C8_2 C5_2 1_555 1_555
H5_2 C8_2 1_555 1_555
H6_2 C8_2 1_555 1_555
C9_2 C8_2 1_555 1_555
H7_2 C9_2 1_555 1_555
H8_2 C9_2 1_555 1_555
C10_2 C9_2 1_555 1_555
H9_2 C10_2 1_555 1_555
H10_2 C10_2 1_555 1_555
C11_2 C10_2 1_555 1_555
C12_2 C11_2 1_555 1_555
H11_2 C12_2 1_555 1_555
C13_2 N3_2 1_555 1_555
H12_2 C13_2 1_555 1_555
C14_2 N3_2 1_555 1_555
H13_2 C14_2 1_555 1_555
C15_2 C11_2 1_555 1_555
H14_2 C15_2 1_555 1_555
N5A C16 1_555 1_555
C17A C16 1_555 1_555
C18A C17 1_555 1_555
C19A C18A 1_555 1_555
C20A C21 1_555 1_555
C21A C16 1_555 1_555
Cu1 S2 1_555 1_555
Cu2 S2A 1_555 1_555
C6 C7 1_555 1_555
C14 C15 1_555 1_555
C16 C21 1_555 1_555
C17 C17A 1_555 1_555
C18 C17A 1_555 1_555
C18 C18A 1_555 1_555
Cu1A S2A 1_555 1_555
Cu2A S1A 1_555 1_555
C6_2 C7_2 1_555 1_555
C12_2 C13_2 1_555 1_555
C14_2 C15_2 1_555 1_555
N5A C21A 1_555 1_555
C17A C18A 1_555 1_555
C19A C20A 1_555 1_555

#END
