
#######################################################################
#
#                 Cambridge Crystallographic Data Centre
#                                CCDC 
#
#######################################################################
#
# If this CIF has been generated from an entry in the Cambridge 
# Structural Database, then it will include bibliographic, chemical, 
# crystal, experimental, refinement or atomic coordinate data resulting 
# from the CCDC's data processing and validation procedures.
#
#######################################################################

data_PAFNAO
_chemical_formula_moiety         '(C33 H24 Cd2 N8 O14)n'
_symmetry_cell_setting           monoclinic
_symmetry_space_group_name_H-M   'P 21/a'
_symmetry_Int_Tables_number      14
_space_group_name_Hall           '-P 2yab'
loop_
_symmetry_equiv_pos_site_id
_symmetry_equiv_pos_as_xyz
1 x,y,z
2 1/2-x,1/2+y,-z
3 -x,-y,-z
4 1/2+x,1/2-y,z
_cell_length_a                   15.964(4)
_cell_length_b                   16.319(3)
_cell_length_c                   16.578(4)
_cell_angle_alpha                90
_cell_angle_beta                 118.020(4)
_cell_angle_gamma                90
_cell_volume                     3812.6
loop_
_atom_site_label
_atom_site_type_symbol
_atom_site_fract_x
_atom_site_fract_y
_atom_site_fract_z
Cd1 Cd 0.11495(3) 0.70281(2) 0.28863(3)
Cd2 Cd -0.16094(3) 0.72852(2) 0.17752(3)
O1 O -0.0216(3) 0.6216(2) 0.2094(3)
O2 O -0.1737(3) 0.6068(3) 0.1106(3)
O3 O -0.2718(3) 0.3826(3) -0.1357(3)
O4 O -0.1985(3) 0.2694(3) -0.0642(3)
O5 O 0.1502(19) 0.3358(15) 0.0817(18)
O6 O 0.2034(4) 0.4276(4) 0.1856(5)
O7 O -0.2414(3) 0.6770(3) 0.2531(3)
O8 O -0.2724(4) 0.7037(3) 0.3674(3)
O9 O -0.2058(4) 0.4966(3) 0.6124(3)
O10 O -0.1607(4) 0.3737(3) 0.5869(3)
O11 O -0.0075(5) 0.3493(4) 0.4009(5)
O12 O -0.048(2) 0.4269(17) 0.287(2)
O13 O 0.2123(3) 0.6100(2) 0.2693(3)
H1 H 0.215(5) 0.568(2) 0.305(3)
H2 H 0.235(4) 0.589(3) 0.234(3)
N1 N 0.0298(3) 0.7820(3) 0.1576(3)
N2 N -0.0688(4) 0.7827(3) 0.1122(4)
N3 N -0.0174(3) 0.8487(3) 0.0291(3)
N4 N 0.0357(3) 0.7686(3) -0.6390(3)
N5 N -0.0614(3) 0.7760(3) -0.6804(3)
N6 N -0.0038(3) 0.8295(3) -0.5448(3)
N7 N 0.1392(5) 0.3862(4) 0.1306(6)
N8 N -0.0443(5) 0.4111(4) 0.3576(5)
C1 C -0.0069(5) 1.0288(4) -0.2620(4)
H3 H 0.0493 1.0642 -0.2364
H4 H -0.0630 1.0640 -0.2914
C2 C -0.0109(5) 0.9819(3) -0.1852(4)
C3 C -0.0914(5) 0.9782(4) -0.1764(5)
H5 H -0.1459 1.0059 -0.2190
C4 C -0.0954(5) 0.9346(4) -0.1061(5)
H6 H -0.1514 0.9332 -0.1008
C5 C -0.0158(4) 0.8938(3) -0.0449(4)
C6 C 0.0666(5) 0.8964(5) -0.0519(5)
H7 H 0.1210 0.8686 -0.0092
C7 C 0.0684(5) 0.9401(5) -0.1222(5)
H8 H 0.1246 0.9417 -0.1274
C8 C -0.0029(5) 0.9732(3) -0.3332(4)
C9 C -0.0777(5) 0.9204(4) -0.3842(5)
H9 H -0.1297 0.9180 -0.3723
C10 C -0.0773(5) 0.8719(4) -0.4513(5)
H10 H -0.1286 0.8368 -0.4853
C11 C -0.0002(4) 0.8751(3) -0.4685(4)
C12 C 0.0754(5) 0.9251(4) -0.4173(5)
H11 H 0.1279 0.9270 -0.4285
C13 C 0.0740(5) 0.9727(4) -0.3492(5)
H12 H 0.1268 1.0055 -0.3129
C14 C 0.0588(4) 0.8225(3) 0.1066(4)
H13 H 0.1225 0.8319 0.1216
C15 C -0.0949(4) 0.8217(4) 0.0365(4)
H14 H -0.1583 0.8304 -0.0077
C16 C 0.0694(5) 0.8004(4) -0.5575(4)
H15 H 0.1340 0.8028 -0.5142
C17 C -0.0823(4) 0.8120(3) -0.6221(4)
H16 H -0.1443 0.8242 -0.6330
C18 C -0.0677(4) 0.5092(3) 0.1035(4)
C19 C -0.1416(4) 0.4675(3) 0.0338(4)
H17 H -0.2040 0.4874 0.0096
C20 C -0.1229(4) 0.3953(3) -0.0004(4)
C21 C -0.0319(5) 0.3677(4) 0.0325(5)
H18 H -0.0192 0.3188 0.0104
C22 C 0.0413(4) 0.4128(4) 0.0989(5)
C23 C 0.0245(5) 0.4823(4) 0.1362(5)
H19 H 0.0750 0.5108 0.1831
C24 C -0.0888(5) 0.5848(3) 0.1441(5)
C25 C -0.2037(4) 0.3463(4) -0.0721(4)
C26 C -0.1894(4) 0.5821(3) 0.3764(4)
C27 C -0.1994(4) 0.5558(3) 0.4516(4)
H20 H -0.2314 0.5892 0.4746
C28 C -0.1625(5) 0.4808(4) 0.4931(4)
C29 C -0.1114(5) 0.4341(4) 0.4608(5)
H21 H -0.0846 0.3839 0.4886
C30 C -0.1004(5) 0.4617(4) 0.3891(5)
C31 C -0.1385(5) 0.5344(4) 0.3450(5)
H22 H -0.1303 0.5515 0.2950
C32 C -0.2371(4) 0.6608(3) 0.3282(4)
C33 C -0.1774(5) 0.4492(4) 0.5712(5)
Cd1_2 Cd 0.11495(3) 0.70281(2) -0.71137(3)
Cd1B Cd -0.11495(3) 0.29719(2) 0.71137(3)
Cd1C Cd -0.38505(3) 0.79719(2) 0.28863(3)
Cd2_2 Cd -0.16094(3) 0.72852(2) -0.82248(3)
Cd2A Cd -0.33906(3) 0.22852(2) -0.17752(3)
O3A O -0.2282(3) 0.8826(3) 0.1357(3)
O4A O -0.3015(3) 0.7694(3) 0.0642(3)
O8C O 0.2276(4) 0.7963(3) 0.3674(3)
O10B O 0.1607(4) 0.6263(3) 0.4131(3)
N4_2 N 0.0357(3) 0.7686(3) 0.3610(3)
N5_2 N -0.0614(3) 0.7760(3) 0.3196(3)
O16 O 0.1984(10) 0.3315(6) 0.3744(9)
loop_
_geom_bond_atom_site_label_1
_geom_bond_atom_site_label_2
_geom_bond_site_symmetry_1
_geom_bond_site_symmetry_2
Cd1 O1 1_555 1_555
Cd2 O1 1_555 1_555
O1 C24 1_555 1_555
O2 Cd2 1_555 1_555
O3 C25 1_555 1_555
O4 C25 1_555 1_555
O5 N7 1_555 1_555
O6 N7 1_555 1_555
O7 Cd2 1_555 1_555
O8 C32 1_555 1_555
O9 C33 1_555 1_555
O10 C33 1_555 1_555
O11 N8 1_555 1_555
O12 N8 1_555 1_555
O13 Cd1 1_555 1_555
H1 O13 1_555 1_555
H2 O13 1_555 1_555
N1 Cd1 1_555 1_555
N2 Cd2 1_555 1_555
N3 C5 1_555 1_555
N4 N5 1_555 1_555
N5 C17 1_555 1_555
N6 C11 1_555 1_555
N7 C22 1_555 1_555
N8 C30 1_555 1_555
C1 H3 1_555 1_555
H4 C1 1_555 1_555
C2 C1 1_555 1_555
C3 C2 1_555 1_555
H5 C3 1_555 1_555
C4 C3 1_555 1_555
H6 C4 1_555 1_555
C5 C4 1_555 1_555
C6 C5 1_555 1_555
H7 C6 1_555 1_555
C7 C2 1_555 1_555
H8 C7 1_555 1_555
C8 C1 1_555 1_555
C9 C8 1_555 1_555
H9 C9 1_555 1_555
C10 C9 1_555 1_555
H10 C10 1_555 1_555
C11 C10 1_555 1_555
C12 C11 1_555 1_555
H11 C12 1_555 1_555
C13 C8 1_555 1_555
H12 C13 1_555 1_555
C14 N1 1_555 1_555
H13 C14 1_555 1_555
C15 N2 1_555 1_555
H14 C15 1_555 1_555
C16 N4 1_555 1_555
H15 C16 1_555 1_555
C17 N6 1_555 1_555
H16 C17 1_555 1_555
C18 C19 1_555 1_555
C19 H17 1_555 1_555
C20 C19 1_555 1_555
C21 C20 1_555 1_555
H18 C21 1_555 1_555
C22 C21 1_555 1_555
C23 C18 1_555 1_555
H19 C23 1_555 1_555
C24 O2 1_555 1_555
C25 C20 1_555 1_555
C26 C27 1_555 1_555
C27 H20 1_555 1_555
C28 C27 1_555 1_555
C29 C28 1_555 1_555
H21 C29 1_555 1_555
C30 C29 1_555 1_555
C31 C26 1_555 1_555
H22 C31 1_555 1_555
C32 O7 1_555 1_555
C33 C28 1_555 1_555
Cd1_2 N4 1_555 1_555
Cd1B O10 1_555 1_555
Cd1C O8 1_555 1_555
Cd2_2 N5 1_555 1_555
Cd2A O3 1_555 1_555
O3A Cd2 1_555 1_555
O4A Cd2 1_555 1_555
O8C Cd1 1_555 1_555
O10B Cd1 1_555 1_555
N4_2 Cd1 1_555 1_555
N5_2 Cd2 1_555 1_555
O4 Cd2A 1_555 1_555
N1 N2 1_555 1_555
N3 C14 1_555 1_555
N3 C15 1_555 1_555
N6 C16 1_555 1_555
C6 C7 1_555 1_555
C12 C13 1_555 1_555
C18 C24 1_555 1_555
C22 C23 1_555 1_555
C26 C32 1_555 1_555
C30 C31 1_555 1_555
N4_2 N5_2 1_555 1_555

#END
