
#######################################################################
#
#                 Cambridge Crystallographic Data Centre
#                                CCDC 
#
#######################################################################
#
# If this CIF has been generated from an entry in the Cambridge 
# Structural Database, then it will include bibliographic, chemical, 
# crystal, experimental, refinement or atomic coordinate data resulting 
# from the CCDC's data processing and validation procedures.
#
#######################################################################

data_FALVOF
_chemical_formula_moiety         '(C50 H76 Cu4 O73 Pr4)n'
_symmetry_cell_setting           monoclinic
_symmetry_space_group_name_H-M   'P 21/n'
_symmetry_Int_Tables_number      14
_space_group_name_Hall           '-P 2yn'
loop_
_symmetry_equiv_pos_site_id
_symmetry_equiv_pos_as_xyz
1 x,y,z
2 1/2-x,1/2+y,1/2-z
3 -x,-y,-z
4 1/2+x,1/2-y,1/2+z
_cell_length_a                   10.953(2)
_cell_length_b                   23.056(5)
_cell_length_c                   19.811(4)
_cell_angle_alpha                90
_cell_angle_beta                 99.88(3)
_cell_angle_gamma                90
_cell_volume                     4928.72
loop_
_atom_site_label
_atom_site_type_symbol
_atom_site_fract_x
_atom_site_fract_y
_atom_site_fract_z
Cu1 Cu 0.08994(5) 0.17742(3) 0.89995(3)
Cu2 Cu 0.80261(5) 0.32170(3) 1.15253(3)
Pr1 Pr 0.03935(2) 0.353850(10) 0.900190(12)
Pr2 Pr -0.14892(3) 0.145120(12) 1.147700(14)
O1 O 0.1462(3) 0.28262(18) 0.97913(18)
O2 O 0.1725(4) 0.18757(17) 0.99504(17)
O3 O 0.0055(3) 0.20872(17) 1.09869(17)
O4 O 0.0909(4) 0.14409(18) 1.1739(2)
O5 O 0.4729(4) 0.22899(17) 1.32813(18)
O6 O 0.5057(3) 0.32122(17) 1.30408(17)
O7 O 0.6439(3) 0.29758(16) 1.18006(17)
O8 O 0.5378(4) 0.37889(19) 1.1518(3)
O9 O 0.1700(4) 0.53949(19) 0.9623(2)
O10 O 0.2020(4) 0.48813(19) 1.0589(2)
O11 O 0.2259(3) 0.40980(18) 0.9410(2)
O12 O 0.3948(5) 0.3606(3) 0.9296(6)
O13 O 0.2473(3) 0.19603(17) 0.86812(18)
O14 O 0.3614(4) 0.1207(2) 0.9084(3)
O15 O 0.3856(3) 0.17996(17) 0.74821(17)
O16 O 0.4094(4) 0.27233(19) 0.72333(19)
O17 O 0.7951(4) 0.36132(18) 0.8786(2)
O18 O 0.8813(3) 0.29553(17) 0.95243(17)
O19 O 0.7398(4) 0.21654(18) 1.07177(19)
O20 O 0.7246(3) 0.31244(17) 1.05720(17)
O21 O 0.0235(4) 0.39696(17) 1.01878(19)
O22 O -0.0152(4) 0.46025(18) 0.8888(2)
O23 O 0.0198(5) 0.3905(2) 0.7781(2)
O24 O 0.2198(4) 0.31248(19) 0.8468(2)
O25 O -0.3395(5) 0.1778(2) 1.1968(3)
O26 O -0.1284(9) 0.1085(3) 1.2685(3)
O27 O -0.0811(8) 0.0400(3) 1.1620(3)
O28 O -0.3307(6) 0.0825(3) 1.1021(4)
O29 O -0.1085(6) 0.1048(2) 1.0370(3)
O30 O -0.0725(4) 0.18032(18) 0.93364(19)
O31 O 0.1057(9) 0.0814(3) 0.9093(4)
O32 O 0.7686(4) 0.4171(2) 1.1516(2)
O33 O 0.9706(3) 0.32179(17) 1.12167(19)
C1 C 0.2518(4) 0.2492(2) 1.0865(2)
C2 C 0.2192(4) 0.2198(2) 1.1431(2)
C3 C 0.2923(4) 0.2261(2) 1.2069(2)
H1 H 0.2720 0.2058 1.2440
C4 C 0.3956(4) 0.2623(2) 1.2167(2)
C5 C 0.4274(4) 0.2918(2) 1.1603(2)
C6 C 0.3558(4) 0.2850(2) 1.0957(2)
H2 H 0.3775 0.3044 1.0583
C7 C 0.1831(4) 0.2398(2) 1.0149(2)
C8 C 0.0989(4) 0.1878(2) 1.1376(2)
C9 C 0.4642(4) 0.2711(2) 1.2878(2)
C10 C 0.5449(4) 0.3266(2) 1.1658(2)
C11 C 0.3732(4) 0.5037(2) 1.0015(3)
C12 C 0.4220(5) 0.4535(2) 0.9764(3)
C13 C 0.4508(5) 0.5495(2) 1.0246(3)
H3 H 0.4179 0.5828 1.0410
C14 C 0.2389(4) 0.5098(2) 1.0082(3)
C15 C 0.3416(5) 0.4042(3) 0.9471(4)
C16 C 0.4632(4) 0.2089(2) 0.8915(2)
C17 C 0.4914(4) 0.2403(2) 0.8359(2)
C18 C 0.5917(4) 0.2780(2) 0.8453(2)
H4 H 0.6089 0.2995 0.8084
C19 C 0.6668(4) 0.2841(2) 0.9089(2)
C20 C 0.6389(4) 0.2529(2) 0.9653(2)
C21 C 0.5365(4) 0.2157(2) 0.9556(2)
H5 H 0.5172 0.1952 0.9928
C22 C 0.3495(5) 0.1712(2) 0.8882(2)
C23 C 0.4221(4) 0.2308(2) 0.7642(2)
C24 C 0.7873(4) 0.3170(2) 0.9142(2)
C25 C 0.7083(4) 0.2609(2) 1.0364(2)
Cu1C Cu -0.41006(5) 0.32258(3) 0.39995(3)
Cu1C_2 Cu 0.58994(5) 0.32258(3) 1.39995(3)
Cu2C Cu 0.30261(5) 0.17830(3) 0.65253(3)
Cu2C_2 Cu 1.30261(5) 0.17830(3) 1.65253(3)
Pr1C Pr -0.46065(2) 0.146150(10) 0.400190(12)
Pr1C_2 Pr 0.53935(2) 0.146150(10) 1.400190(12)
Pr1_2 Pr 1.03935(2) 0.353850(10) 0.900190(12)
Pr1B Pr 0.96065(2) 0.646150(10) 1.099810(12)
Pr1C_3 Pr 1.53935(2) 0.146150(10) 1.400190(12)
Pr2C Pr -0.64892(3) 0.354880(12) 0.647700(14)
Pr2C_2 Pr 0.35108(3) 0.354880(12) 0.647700(14)
Pr2_2 Pr 0.85108(3) 0.145120(12) 1.147700(14)
Pr2C_3 Pr 1.35108(3) 0.354880(12) 1.647700(14)
O1C O -0.3538(3) 0.21738(18) 0.47913(18)
O2C O -0.3275(4) 0.31243(17) 0.49504(17)
O3C O -0.4945(3) 0.29128(17) 0.59869(17)
O4C O -0.4091(4) 0.35591(18) 0.6739(2)
O5C O -0.0271(4) 0.27101(17) 0.82813(18)
O5_2 O -0.5271(4) 0.22899(17) 0.32813(18)
O6C O 0.0057(3) 0.17878(17) 0.80408(17)
O6_2 O -0.4943(3) 0.32122(17) 0.30408(17)
O7C O 0.1439(3) 0.20242(16) 0.68006(17)
O8C O 0.0378(4) 0.12111(19) 0.6518(3)
O9B O 0.8300(4) 0.46051(19) 1.0377(2)
O10B O 0.7980(4) 0.51187(19) 0.9411(2)
O11B O 0.7741(3) 0.59020(18) 1.0590(2)
O11C O -0.2741(3) 0.09020(18) 0.4410(2)
O12B O 0.6052(5) 0.6394(3) 1.0704(6)
O13C O 0.7473(3) 0.30397(17) 1.36812(18)
O13C_2 O -0.2527(3) 0.30397(17) 0.36812(18)
O14C O 0.8614(4) 0.3793(2) 1.4084(3)
O15C O 0.8856(3) 0.32004(17) 1.24821(17)
O16C O 0.9094(4) 0.22767(19) 1.22333(19)
O16C_2 O -0.0906(4) 0.22767(19) 1.22333(19)
O16_2 O -0.5906(4) 0.27233(19) 0.72333(19)
O17C O 1.2951(4) 0.13868(18) 1.3786(2)
O17_2 O -0.2049(4) 0.36132(18) 0.8786(2)
O17C_2 O -0.7049(4) 0.13868(18) 0.3786(2)
O18C O 1.3813(3) 0.20447(17) 1.45243(17)
O18_2 O -0.1187(3) 0.29553(17) 0.95243(17)
O18C_2 O -0.6187(3) 0.20447(17) 0.45243(17)
O19C O 1.2398(4) 0.28346(18) 1.57177(19)
O19_2 O -0.2602(4) 0.21654(18) 1.07177(19)
O19C_2 O -0.7602(4) 0.28346(18) 0.57177(19)
O20C O 1.2246(3) 0.18756(17) 1.55720(17)
O20C_2 O 0.2246(3) 0.18756(17) 0.55720(17)
O21C O -0.4765(4) 0.10304(17) 0.51878(19)
O22C O -0.5152(4) 0.03975(18) 0.3888(2)
O23C O -0.4802(5) 0.1095(2) 0.2781(2)
O24C O -0.2802(4) 0.18752(19) 0.3468(2)
O25C O -0.8395(5) 0.3222(2) 0.6968(3)
O26C O -0.6284(9) 0.3915(3) 0.7685(3)
O27C O -0.5811(8) 0.4600(3) 0.6620(3)
O28C O -0.8307(6) 0.4175(3) 0.6021(4)
O29C O -0.6085(6) 0.3952(2) 0.5370(3)
O30C O -0.5725(4) 0.31968(18) 0.43364(19)
O31C O -0.3943(9) 0.4186(3) 0.4093(4)
O32C O 0.2686(4) 0.0829(2) 0.6516(2)
O33C O 0.4706(3) 0.17821(17) 0.62167(19)
C1C C -0.2482(4) 0.2508(2) 0.5865(2)
C2C C -0.2808(4) 0.2802(2) 0.6431(2)
C3C C -0.2077(4) 0.2739(2) 0.7069(2)
H1C H -0.2280 0.2942 0.7440
C4C C -0.1044(4) 0.2377(2) 0.7167(2)
C5C C -0.0726(4) 0.2082(2) 0.6603(2)
C6C C -0.1442(4) 0.2150(2) 0.5957(2)
H2C H -0.1225 0.1956 0.5583
C7C C -0.3169(4) 0.2602(2) 0.5149(2)
C8C C -0.4011(4) 0.3122(2) 0.6376(2)
C9C C -0.0358(4) 0.2289(2) 0.7878(2)
C10C C 0.0449(4) 0.1734(2) 0.6658(2)
C11B C 0.6268(4) 0.4963(2) 0.9985(3)
C12B C 0.5780(5) 0.5465(2) 1.0236(3)
C13B C 0.5492(5) 0.4505(2) 0.9754(3)
H3B H 0.5821 0.4172 0.9590
C14B C 0.7611(4) 0.4902(2) 0.9918(3)
C15B C 0.6584(5) 0.5958(3) 1.0529(4)
C16C C 0.9632(4) 0.2911(2) 1.3915(2)
C17C C 0.9914(4) 0.2597(2) 1.3359(2)
C18C C 1.0917(4) 0.2220(2) 1.3453(2)
H4C H 1.1089 0.2005 1.3084
C19C C 1.1668(4) 0.2159(2) 1.4089(2)
C20C C 1.1389(4) 0.2471(2) 1.4653(2)
C21C C 1.0365(4) 0.2843(2) 1.4556(2)
H5C H 1.0172 0.3048 1.4928
C22C C 0.8495(5) 0.3288(2) 1.3882(2)
C23C C 0.9221(4) 0.2692(2) 1.2642(2)
C24C C 1.2873(4) 0.1830(2) 1.4142(2)
C25C C 1.2083(4) 0.2391(2) 1.5364(2)
O34 O -0.1685(6) 0.0622(3) 0.6680(3)
O35 O -0.2584(7) 0.1263(4) 0.8574(4)
O36 O 0.6456(8) 0.1176(5) 0.7221(4)
O37 O 0.6059(10) 0.4356(4) 0.8073(5)
O38 O -0.7027(11) 0.0751(6) 0.1937(9)
O39 O 0.5849(13) 0.0632(7) 0.9297(14)
O40 O 0.4119(14) 0.1162(8) 1.0810(8)
loop_
_geom_bond_atom_site_label_1
_geom_bond_atom_site_label_2
_geom_bond_site_symmetry_1
_geom_bond_site_symmetry_2
Cu1 O2 1_555 1_555
Cu2 O7 1_555 1_555
Pr1 O1 1_555 1_555
Pr2 O3 1_555 1_555
O1 C7 1_555 1_555
O2 C7 1_555 1_555
O3 C8 1_555 1_555
O4 Pr2 1_555 1_555
O5 C9 1_555 1_555
O6 C9 1_555 1_555
O7 C10 1_555 1_555
O8 C10 1_555 1_555
O9 C14 1_555 1_555
O10 C14 1_555 1_555
O11 Pr1 1_555 1_555
O12 C15 1_555 1_555
O13 Cu1 1_555 1_555
O14 C22 1_555 1_555
O15 C23 1_555 1_555
O16 C23 1_555 1_555
O17 C24 1_555 1_555
O18 C24 1_555 1_555
O19 C25 1_555 1_555
O20 Cu2 1_555 1_555
O21 Pr1 1_555 1_555
O22 Pr1 1_555 1_555
O23 Pr1 1_555 1_555
O24 Pr1 1_555 1_555
O25 Pr2 1_555 1_555
O26 Pr2 1_555 1_555
O27 Pr2 1_555 1_555
O28 Pr2 1_555 1_555
O29 Pr2 1_555 1_555
O30 Cu1 1_555 1_555
O31 Cu1 1_555 1_555
O32 Cu2 1_555 1_555
O33 Cu2 1_555 1_555
C1 C2 1_555 1_555
C2 C3 1_555 1_555
C3 H1 1_555 1_555
C4 C3 1_555 1_555
C5 C4 1_555 1_555
C6 C1 1_555 1_555
H2 C6 1_555 1_555
C7 C1 1_555 1_555
C8 O4 1_555 1_555
C9 C4 1_555 1_555
C10 C5 1_555 1_555
C11 C12 1_555 1_555
C12 C15 1_555 1_555
C13 C11 1_555 1_555
H3 C13 1_555 1_555
C14 C11 1_555 1_555
C15 O11 1_555 1_555
C16 C17 1_555 1_555
C17 C18 1_555 1_555
C18 H4 1_555 1_555
C19 C18 1_555 1_555
C20 C19 1_555 1_555
C21 C16 1_555 1_555
H5 C21 1_555 1_555
C22 O13 1_555 1_555
C23 C17 1_555 1_555
C24 C19 1_555 1_555
C25 O20 1_555 1_555
Cu1C O2C 1_555 1_555
Cu1C_2 O6 1_555 1_555
Cu2C O15 1_555 1_555
Cu2C_2 O20C 1_555 1_555
Pr1C O1C 1_555 1_555
Pr1C_2 O5 1_555 1_555
Pr1_2 O17 1_555 1_555
Pr1B O11B 1_555 1_555
Pr1C_3 O17C 1_555 1_555
Pr2C O3C 1_555 1_555
Pr2C_2 O16 1_555 1_555
Pr2_2 O19 1_555 1_555
Pr2C_3 O19C 1_555 1_555
O1C C7C 1_555 1_555
O2C C7C 1_555 1_555
O3C C8C 1_555 1_555
O4C Pr2C 1_555 1_555
O5C Pr1 1_555 1_555
O5_2 Pr1C 1_555 1_555
O6C Cu1 1_555 1_555
O6_2 Cu1C 1_555 1_555
O7C Cu2C 1_555 1_555
O8C C10C 1_555 1_555
O9B C14B 1_555 1_555
O10B C14B 1_555 1_555
O11B C15B 1_555 1_555
O11C Pr1C 1_555 1_555
O12B C15B 1_555 1_555
O13C Cu1C_2 1_555 1_555
O13C_2 Cu1C 1_555 1_555
O14C C22C 1_555 1_555
O15C Cu2 1_555 1_555
O16C Pr2_2 1_555 1_555
O16C_2 Pr2 1_555 1_555
O16_2 Pr2C 1_555 1_555
O17C C24C 1_555 1_555
O17_2 Pr1 1_555 1_555
O17C_2 Pr1C 1_555 1_555
O18C Pr1C_3 1_555 1_555
O18_2 Pr1 1_555 1_555
O18C_2 Pr1C 1_555 1_555
O19C C25C 1_555 1_555
O19_2 Pr2 1_555 1_555
O19C_2 Pr2C 1_555 1_555
O20C C25C 1_555 1_555
O20C_2 Cu2C 1_555 1_555
O21C Pr1C 1_555 1_555
O22C Pr1C 1_555 1_555
O23C Pr1C 1_555 1_555
O24C Pr1C 1_555 1_555
O25C Pr2C 1_555 1_555
O26C Pr2C 1_555 1_555
O27C Pr2C 1_555 1_555
O28C Pr2C 1_555 1_555
O29C Pr2C 1_555 1_555
O30C Cu1C 1_555 1_555
O31C Cu1C 1_555 1_555
O32C Cu2C 1_555 1_555
O33C Cu2C 1_555 1_555
C1C C2C 1_555 1_555
C2C C3C 1_555 1_555
C3C H1C 1_555 1_555
C4C C3C 1_555 1_555
C5C C4C 1_555 1_555
C6C C1C 1_555 1_555
H2C C6C 1_555 1_555
C7C C1C 1_555 1_555
C8C O4C 1_555 1_555
C9C O5C 1_555 1_555
C10C O7C 1_555 1_555
C11B C12B 1_555 1_555
C12B C13 1_555 1_555
C13B C12 1_555 1_555
H3B C13B 1_555 1_555
C14B C11B 1_555 1_555
C15B C12B 1_555 1_555
C16C C17C 1_555 1_555
C17C C18C 1_555 1_555
C18C H4C 1_555 1_555
C19C C18C 1_555 1_555
C20C C19C 1_555 1_555
C21C C16C 1_555 1_555
H5C C21C 1_555 1_555
C22C O13C 1_555 1_555
C23C O15C 1_555 1_555
C24C O18C 1_555 1_555
C25C C20C 1_555 1_555
O18 Pr1_2 1_555 1_555
C2 C8 1_555 1_555
C5 C6 1_555 1_555
C16 C22 1_555 1_555
C20 C21 1_555 1_555
C20 C25 1_555 1_555
O6C C9C 1_555 1_555
O16C C23C 1_555 1_555
C2C C8C 1_555 1_555
C4C C9C 1_555 1_555
C5C C6C 1_555 1_555
C5C C10C 1_555 1_555
C11B C13B 1_555 1_555
C16C C22C 1_555 1_555
C17C C23C 1_555 1_555
C19C C24C 1_555 1_555
C20C C21C 1_555 1_555

#END
