
#######################################################################
#
#                 Cambridge Crystallographic Data Centre
#                                CCDC 
#
#######################################################################
#
# If this CIF has been generated from an entry in the Cambridge 
# Structural Database, then it will include bibliographic, chemical, 
# crystal, experimental, refinement or atomic coordinate data resulting 
# from the CCDC's data processing and validation procedures.
#
#######################################################################

data_JOCPIB
_chemical_formula_moiety         '(C32 H20 Cu4 F8 N16 O10)n'
_symmetry_cell_setting           tetragonal
_symmetry_space_group_name_H-M   'I 41 m d'
_symmetry_Int_Tables_number      109
_space_group_name_Hall           'I 4bw -2'
loop_
_symmetry_equiv_pos_site_id
_symmetry_equiv_pos_as_xyz
1 x,y,z
2 -x,y,z
3 1/2-x,1/2-y,1/2+z
4 1/2+x,1/2-y,1/2+z
5 -y,1/2-x,1/4+z
6 1/2+y,-x,3/4+z
7 -y,1/2+x,1/4+z
8 1/2+y,x,3/4+z
9 1/2+x,1/2+y,1/2+z
10 1/2-x,1/2+y,1/2+z
11 -x,-y,z
12 x,-y,z
13 1/2-y,-x,3/4+z
14 y,1/2-x,1/4+z
15 1/2-y,x,3/4+z
16 y,1/2+x,1/4+z
_cell_length_a                   20.8241(17)
_cell_length_b                   20.8241(17)
_cell_length_c                   10.0010(8)
_cell_angle_alpha                90
_cell_angle_beta                 90
_cell_angle_gamma                90
_cell_volume                     4336.87
loop_
_atom_site_label
_atom_site_type_symbol
_atom_site_fract_x
_atom_site_fract_y
_atom_site_fract_z
Cu1 Cu 0.368729(18) 0.370142(18) 0.2414(7)
N1 N 0.44319(12) 0.37776(13) 0.3615(7)
C1 C 0.5000 0.3760(2) 0.2926(8)
O1 O 0.5000 0.37109(16) 0.1686(8)
C2 C 0.44365(17) 0.38742(18) 0.4931(8)
H1 H 0.4050 0.3895 0.5394
C3 C 0.5000 0.3943(3) 0.5607(8)
F1 F 0.5000 0.4048(2) 0.6934(7)
N2 N 0.32380(14) 0.44303(12) 0.3305(7)
C4 C 0.3477(3) 0.5000 0.2835(8)
O2 O 0.3911(2) 0.5000 0.1991(8)
C5 C 0.28002(17) 0.44334(17) 0.4253(8)
H2 H 0.2641 0.4046 0.4575
C6 C 0.2575(2) 0.5000 0.4775(8)
F2 F 0.21398(19) 0.5000 0.5765(8)
N3 N 0.38382(13) 0.27768(13) 0.2101(7)
C7 C 0.36949(17) 0.24129(14) 0.3218(8)
O3 O 0.34714(12) 0.26816(13) 0.4217(7)
N4 N 0.38223(13) 0.17733(12) 0.3206(7)
C8 C 0.40416(17) 0.14916(19) 0.2083(8)
H3 H 0.4130 0.1054 0.2076
C9 C 0.41330(19) 0.1845(2) 0.0968(8)
C10 C 0.40480(18) 0.2485(2) 0.1000(8)
H4 H 0.4138 0.2728 0.0242
F3 F 0.43294(14) 0.15540(18) -0.0166(7)
Cu1A Cu 0.631271(18) 0.370142(18) 0.2414(7)
Cu1K Cu 0.368729(18) 0.629858(18) 0.2414(7)
Cu1N Cu 0.129858(18) 0.368729(18) -0.0086(7)
Cu1M Cu 0.370142(18) 0.131271(18) 0.4914(7)
Cu1J Cu 0.631271(18) 0.629858(18) 0.2414(7)
Cu1D Cu 0.629858(18) 0.131271(18) 0.4914(7)
Cu1G Cu 0.870142(18) 0.368729(18) -0.0086(7)
N1A N 0.55681(12) 0.37776(13) 0.3615(7)
N1K N 0.44319(12) 0.62224(13) 0.3615(7)
N1J N 0.55681(12) 0.62224(13) 0.3615(7)
N1N N 0.12224(13) 0.44319(12) 0.1115(7)
C1J C 0.5000 0.6240(2) 0.2926(8)
O1J O 0.5000 0.62891(16) 0.1686(8)
C2A C 0.55635(17) 0.38742(18) 0.4931(8)
C2K C 0.44365(17) 0.61258(18) 0.4931(8)
C2J C 0.55635(17) 0.61258(18) 0.4931(8)
H1A H 0.5950 0.3895 0.5394
H1K H 0.4050 0.6105 0.5394
H1J H 0.5950 0.6105 0.5394
C3J C 0.5000 0.6057(3) 0.5607(8)
F1J F 0.5000 0.5952(2) 0.6934(7)
N2K N 0.32380(14) 0.55697(12) 0.3305(7)
N2A N 0.67620(14) 0.44303(12) 0.3305(7)
N2J N 0.67620(14) 0.55697(12) 0.3305(7)
N2N N 0.05697(12) 0.32380(14) 0.0805(7)
C4A C 0.6523(3) 0.5000 0.2835(8)
O2A O 0.6089(2) 0.5000 0.1991(8)
C5K C 0.28002(17) 0.55666(17) 0.4253(8)
C5A C 0.71998(17) 0.44334(17) 0.4253(8)
C5J C 0.71998(17) 0.55666(17) 0.4253(8)
H2K H 0.2641 0.5954 0.4575
H2A H 0.7359 0.4046 0.4575
H2J H 0.7359 0.5954 0.4575
C6A C 0.7425(2) 0.5000 0.4775(8)
F2A F 0.78602(19) 0.5000 0.5765(8)
N3N N 0.22232(13) 0.38382(13) -0.0399(7)
N3A N 0.61618(13) 0.27768(13) 0.2101(7)
N3G N 0.77768(13) 0.38382(13) -0.0399(7)
N3K N 0.38382(13) 0.72232(13) 0.2101(7)
C7N C 0.25871(14) 0.36949(17) 0.0718(8)
C7A C 0.63051(17) 0.24129(14) 0.3218(8)
C7G C 0.74129(14) 0.36949(17) 0.0718(8)
O3N O 0.23184(13) 0.34714(12) 0.1717(7)
O3A O 0.65286(12) 0.26816(13) 0.4217(7)
O3G O 0.76816(13) 0.34714(12) 0.1717(7)
N4N N 0.32267(12) 0.38223(13) 0.0706(7)
N4A N 0.61777(13) 0.17733(12) 0.3206(7)
N4G N 0.67733(12) 0.38223(13) 0.0706(7)
N4L N 0.32267(12) 0.61777(13) 0.0706(7)
N4B N 0.11777(13) 0.32267(12) -0.1794(7)
C8N C 0.35084(19) 0.40416(17) -0.0417(8)
C8A C 0.59584(17) 0.14916(19) 0.2083(8)
C8G C 0.64916(19) 0.40416(17) -0.0417(8)
H3N H 0.3946 0.4130 -0.0424
H3A H 0.5870 0.1054 0.2076
H3G H 0.6054 0.4130 -0.0424
C9N C 0.3155(2) 0.41330(19) -0.1532(8)
C9A C 0.58670(19) 0.1845(2) 0.0968(8)
C9G C 0.6845(2) 0.41330(19) -0.1532(8)
C10N C 0.2515(2) 0.40480(18) -0.1500(8)
C10A C 0.59520(18) 0.2485(2) 0.1000(8)
C10G C 0.7485(2) 0.40480(18) -0.1500(8)
H4N H 0.2272 0.4138 -0.2258
H4A H 0.5862 0.2728 0.0242
H4G H 0.7728 0.4138 -0.2258
F3N F 0.34460(18) 0.43294(14) -0.2666(7)
F3A F 0.56706(14) 0.15540(18) -0.0166(7)
F3G F 0.65540(18) 0.43294(14) -0.2666(7)
O4 O 0.5000 0.5000 0.0000
O5 O 0.2596(2) 0.3049(2) 0.6050(8)
loop_
_geom_bond_atom_site_label_1
_geom_bond_atom_site_label_2
_geom_bond_site_symmetry_1
_geom_bond_site_symmetry_2
Cu1 N1 1_555 1_555
N1 C1 1_555 1_555
C1 O1 1_555 1_555
C2 N1 1_555 1_555
H1 C2 1_555 1_555
C3 C2 1_555 1_555
F1 C3 1_555 1_555
N2 Cu1 1_555 1_555
C4 N2 1_555 1_555
O2 C4 1_555 1_555
C5 N2 1_555 1_555
H2 C5 1_555 1_555
C6 C5 1_555 1_555
F2 C6 1_555 1_555
N3 Cu1 1_555 1_555
C7 N3 1_555 1_555
O3 C7 1_555 1_555
N4 C7 1_555 1_555
C8 N4 1_555 1_555
H3 C8 1_555 1_555
C9 C8 1_555 1_555
C10 N3 1_555 1_555
H4 C10 1_555 1_555
F3 C9 1_555 1_555
Cu1A N1A 1_555 1_555
Cu1K N1K 1_555 1_555
Cu1N N1N 1_555 1_555
Cu1M N4 1_555 1_555
Cu1J N1J 1_555 1_555
Cu1D N4A 1_555 1_555
Cu1G N3G 1_555 1_555
N1A C1 1_555 1_555
N1K C1J 1_555 1_555
N1J C1J 1_555 1_555
C1J O1J 1_555 1_555
C2A C3 1_555 1_555
C2K N1K 1_555 1_555
C2J N1J 1_555 1_555
H1A C2A 1_555 1_555
H1K C2K 1_555 1_555
H1J C2J 1_555 1_555
C3J C2K 1_555 1_555
F1J C3J 1_555 1_555
N2K C4 1_555 1_555
N2A Cu1A 1_555 1_555
N2J Cu1J 1_555 1_555
N2N Cu1N 1_555 1_555
C4A N2A 1_555 1_555
O2A C4A 1_555 1_555
C5K C6 1_555 1_555
C5A N2A 1_555 1_555
C5J N2J 1_555 1_555
H2K C5K 1_555 1_555
H2A C5A 1_555 1_555
H2J C5J 1_555 1_555
C6A C5A 1_555 1_555
F2A C6A 1_555 1_555
N3N Cu1N 1_555 1_555
N3A Cu1A 1_555 1_555
N3G C7G 1_555 1_555
N3K Cu1K 1_555 1_555
C7N N3N 1_555 1_555
C7A N3A 1_555 1_555
C7G O3G 1_555 1_555
O3N C7N 1_555 1_555
O3A C7A 1_555 1_555
N4N Cu1 1_555 1_555
N4A C7A 1_555 1_555
N4G Cu1A 1_555 1_555
N4L Cu1K 1_555 1_555
N4B Cu1N 1_555 1_555
C8N N4N 1_555 1_555
C8A N4A 1_555 1_555
C8G N4G 1_555 1_555
H3N C8N 1_555 1_555
H3A C8A 1_555 1_555
H3G C8G 1_555 1_555
C9N C8N 1_555 1_555
C9A C8A 1_555 1_555
C9G C8G 1_555 1_555
C10N N3N 1_555 1_555
C10A N3A 1_555 1_555
C10G N3G 1_555 1_555
H4N C10N 1_555 1_555
H4A C10A 1_555 1_555
H4G C10G 1_555 1_555
F3N C9N 1_555 1_555
F3A C9A 1_555 1_555
F3G C9G 1_555 1_555
C9 C10 1_555 1_555
Cu1K N2K 1_555 1_555
N1A C2A 1_555 1_555
C2J C3J 1_555 1_555
N2K C5K 1_555 1_555
N2J C4A 1_555 1_555
C5J C6A 1_555 1_555
C7N N4N 1_555 1_555
C7G N4G 1_555 1_555
C9N C10N 1_555 1_555
C9A C10A 1_555 1_555
C9G C10G 1_555 1_555

#END
