
#######################################################################
#
#                 Cambridge Crystallographic Data Centre
#                                CCDC 
#
#######################################################################
#
# If this CIF has been generated from an entry in the Cambridge 
# Structural Database, then it will include bibliographic, chemical, 
# crystal, experimental, refinement or atomic coordinate data resulting 
# from the CCDC's data processing and validation procedures.
#
#######################################################################

data_HABKOM
_chemical_formula_moiety         '(C4 H6 Ga2 N2 O16 P3 V1 1-)n'
_symmetry_cell_setting           monoclinic
_symmetry_space_group_name_H-M   'P 21/c'
_symmetry_Int_Tables_number      14
_space_group_name_Hall           '-P 2ybc'
loop_
_symmetry_equiv_pos_site_id
_symmetry_equiv_pos_as_xyz
1 x,y,z
2 -x,1/2+y,1/2-z
3 -x,-y,-z
4 x,1/2-y,1/2+z
_cell_length_a                   9.0970(5)
_cell_length_b                   16.9940(9)
_cell_length_c                   9.6441(5)
_cell_angle_alpha                90
_cell_angle_beta                 103.4560(10)
_cell_angle_gamma                90
_cell_volume                     1450
loop_
_atom_site_label
_atom_site_type_symbol
_atom_site_fract_x
_atom_site_fract_y
_atom_site_fract_z
O16 O 0.4231(9) 0.3448(5) 1.1011(7)
N1 N 1.2715(11) -0.0126(9) 1.6130(16)
C1 C 1.1373(16) 0.0001(11) 1.5575(14)
C2 C 1.0030(18) 0.0194(11) 1.4650(16)
N1B N 0.7285(11) 0.0126(9) 1.3870(16)
C1B C 0.8627(16) -0.0001(11) 1.4425(14)
C2B C 0.9970(18) -0.0194(11) 1.5350(16)
Ga1 Ga -0.20259(6) -0.22343(3) 1.07593(6)
Ga2 Ga -0.78406(6) -0.23430(3) 0.96333(6)
V1 V -0.68560(9) 0.00317(5) 1.16534(9)
P1 P -0.50063(14) -0.12966(7) 1.00813(14)
P2 P -0.10729(14) -0.16228(7) 0.81460(13)
P3 P 0.10917(14) -0.15489(7) 1.21401(13)
O1 O -0.5609(5) -0.0828(2) 1.1153(5)
O2 O -0.6269(4) -0.1816(2) 0.9174(4)
O3 O -0.4346(5) -0.0833(2) 0.9056(5)
O4 O -0.3815(4) -0.1862(2) 1.0978(4)
O5 O -0.1755(4) -0.2260(2) 0.8955(4)
O6 O -0.1486(4) -0.0804(2) 0.8493(4)
O7 O -0.1674(4) -0.1789(2) 0.6555(4)
O8 O 0.0649(4) -0.1680(2) 0.8525(4)
O9 O -0.0651(4) -0.1544(2) 1.1802(4)
O10 O 0.1643(5) -0.2224(2) 1.1333(4)
O11 O 0.1682(4) -0.1709(2) 1.3735(4)
O12 O 0.1565(5) -0.0750(2) 1.1760(5)
O13 O -0.8139(5) -0.0071(2) 0.9176(4)
O14 O -0.6049(5) 0.0095(3) 1.3314(4)
O15 O -0.6103(6) -0.3135(3) 1.1083(5)
H1 H -0.9058 -0.0210 0.9106
H2 H -0.8136 0.0376 0.8769
H3 H -0.5451 -0.3296 1.0630
H4 H -0.5630 -0.2873 1.1810
Ga1C Ga -0.20259(6) -0.27657(3) 0.57593(6)
Ga2_2 Ga 0.21594(6) -0.23430(3) 0.96333(6)
Ga2C Ga 0.21594(6) -0.26570(3) 1.46333(6)
V1B V -0.31440(9) -0.00317(5) 0.83466(9)
V1_2 V 0.31440(9) 0.00317(5) 1.16534(9)
O3B O -0.5654(5) 0.0833(2) 1.0944(5)
O6B O -0.8514(4) 0.0804(2) 1.1507(4)
O7C O -0.1674(4) -0.3211(2) 1.1555(4)
O8_2 O -0.9351(4) -0.1680(2) 0.8525(4)
O10_2 O -0.8357(5) -0.2224(2) 1.1333(4)
O11C O -0.8318(4) -0.3291(2) 0.8735(4)
O12_2 O -0.8435(5) -0.0750(2) 1.1760(5)
loop_
_geom_bond_atom_site_label_1
_geom_bond_atom_site_label_2
_geom_bond_site_symmetry_1
_geom_bond_site_symmetry_2
Ga1 O4 1_555 1_555
Ga2 O2 1_555 1_555
V1 O1 1_555 1_555
P1 O1 1_555 1_555
P2 O5 1_555 1_555
P3 O9 1_555 1_555
O2 P1 1_555 1_555
O3 P1 1_555 1_555
O4 P1 1_555 1_555
O5 Ga1 1_555 1_555
O6 P2 1_555 1_555
O7 P2 1_555 1_555
O8 P2 1_555 1_555
O9 Ga1 1_555 1_555
O10 P3 1_555 1_555
O11 P3 1_555 1_555
O12 P3 1_555 1_555
O13 V1 1_555 1_555
O14 V1 1_555 1_555
O15 Ga2 1_555 1_555
N1 C1 1_555 1_555
C1 C2 1_555 1_555
C2 C1B 1_555 1_555
H1 O13 1_555 1_555
H2 O13 1_555 1_555
H3 O15 1_555 1_555
H4 O15 1_555 1_555
Ga1C O7 1_555 1_555
Ga2_2 O8 1_555 1_555
Ga2C O11 1_555 1_555
V1B O3 1_555 1_555
V1_2 O12 1_555 1_555
O3B V1 1_555 1_555
O6B V1 1_555 1_555
O7C Ga1 1_555 1_555
O8_2 Ga2 1_555 1_555
O10_2 Ga2 1_555 1_555
O11C Ga2 1_555 1_555
O12_2 V1 1_555 1_555
N1B C1B 1_555 1_555
C1B C2B 1_555 1_555
C2B C1 1_555 1_555
O6 V1B 1_555 1_555
O10 Ga2_2 1_555 1_555
C2 C2B 1_555 1_555

#END
