
#######################################################################
#
#                 Cambridge Crystallographic Data Centre
#                                CCDC 
#
#######################################################################
#
# If this CIF has been generated from an entry in the Cambridge 
# Structural Database, then it will include bibliographic, chemical, 
# crystal, experimental, refinement or atomic coordinate data resulting 
# from the CCDC's data processing and validation procedures.
#
#######################################################################

data_FIVQIL
_chemical_formula_moiety         '(C6 H22 F2 N2 O20 P4 Sc4)n'
_symmetry_cell_setting           monoclinic
_symmetry_space_group_name_H-M   'P 21/n'
_symmetry_Int_Tables_number      14
_space_group_name_Hall           '-P 2yn'
loop_
_symmetry_equiv_pos_site_id
_symmetry_equiv_pos_as_xyz
1 x,y,z
2 1/2-x,1/2+y,1/2-z
3 -x,-y,-z
4 1/2+x,1/2-y,1/2+z
_cell_length_a                   10.2826(16)
_cell_length_b                   12.6977(19)
_cell_length_c                   17.864(3)
_cell_angle_alpha                90
_cell_angle_beta                 102.761(3)
_cell_angle_gamma                90
_cell_volume                     2274.81
loop_
_atom_site_label
_atom_site_type_symbol
_atom_site_fract_x
_atom_site_fract_y
_atom_site_fract_z
Sc1 Sc 0.43963(6) 0.02145(5) 0.12748(4)
Sc2 Sc 0.24602(6) 0.06920(5) 0.27905(4)
Sc3 Sc -0.03105(6) -0.11361(5) 0.20811(4)
Sc4 Sc 0.86551(6) 0.14671(5) 0.42316(4)
P1 P -0.29949(9) -0.08870(7) 0.05789(5)
P2 P 0.56465(9) 0.11791(7) 0.30734(5)
P3 P 0.22280(9) 0.33851(7) 0.29917(5)
P4 P 0.08021(9) -0.04650(7) 0.39262(5)
F1 F 0.2896(2) 0.08579(16) 0.17319(11)
F2 F 0.0533(2) 0.03385(16) 0.22052(12)
O1 O -0.3201(2) -0.0280(2) -0.01784(14)
O2 O -0.1556(2) -0.0761(2) 0.10414(14)
O3 O -0.3965(2) -0.0491(2) 0.10543(15)
O4 O -0.3261(3) -0.20601(19) 0.03945(14)
O5 O 0.5862(2) 0.23248(19) 0.28453(15)
O6 O 0.5594(2) 0.04618(19) 0.23786(14)
O7 O 0.6838(2) 0.08744(19) 0.37212(14)
O8 O 0.4356(2) 0.10740(19) 0.33670(14)
O9 O 0.3711(2) 0.3431(2) 0.33795(15)
O10 O 0.1373(3) 0.37253(19) 0.35610(14)
O11 O 0.1817(2) 0.22545(19) 0.27346(15)
O12 O 0.1938(2) 0.41297(19) 0.22971(14)
O13 O 0.0541(2) -0.12693(19) 0.32717(14)
O14 O 0.1833(2) 0.03707(19) 0.37974(14)
O15 O -0.0514(2) 0.01014(19) 0.39375(15)
O16 O 0.1333(3) -0.1013(2) 0.46887(14)
O17 O 0.4907(3) 0.1828(2) 0.10455(15)
H1 H 0.491(4) 0.229(2) 0.1349(17)
H2 H 0.444(4) 0.202(3) 0.0652(14)
O18 O -0.2005(3) -0.0638(2) 0.25640(15)
H3 H -0.268(3) -0.033(3) 0.240(2)
H4 H -0.169(4) -0.040(3) 0.2976(14)
O19 O 1.0703(3) 0.2051(2) 0.43466(16)
H5 H 1.079(4) 0.2597(18) 0.414(2)
H6 H 1.108(4) 0.162(2) 0.415(2)
O20 O 0.8567(3) 0.2240(2) 0.30789(17)
H7 H 0.7797(18) 0.233(3) 0.290(3)
H8 H 0.891(4) 0.2802(18) 0.315(3)
Sc1A Sc 0.06037(6) 0.52145(5) 0.37252(4)
Sc1B Sc -0.43963(6) -0.02145(5) -0.12748(4)
Sc1_2 Sc -0.56037(6) 0.02145(5) 0.12748(4)
Sc2A Sc 0.25398(6) 0.56920(5) 0.22095(4)
Sc3A Sc 0.53105(6) 0.38639(5) 0.29189(4)
Sc4_2 Sc -0.13449(6) 0.14671(5) 0.42316(4)
Sc4B Sc 0.13449(6) -0.14671(5) 0.57684(4)
Sc4A Sc -0.36551(6) -0.35329(5) 0.07684(4)
O1B O 0.3201(2) 0.0280(2) 0.01784(14)
O3_2 O 0.6035(2) -0.0491(2) 0.10543(15)
O4A O 0.8261(3) 0.29399(19) 0.46055(14)
O5A O -0.0862(2) -0.26752(19) 0.21547(15)
O9A O 0.1289(2) -0.1569(2) 0.16205(15)
O10A O 0.3627(3) -0.12747(19) 0.14390(14)
O12A O 0.3062(2) -0.08703(19) 0.27029(14)
O15_2 O 0.9486(2) 0.01014(19) 0.39375(15)
O16B O 0.8667(3) 0.1013(2) 0.53113(14)
N1 N 0.0909(10) 0.7116(8) 0.0098(5)
H9 H 0.1296 0.6960 0.0607
N2 N -0.0137(5) 0.7521(4) -0.1254(3)
H10 H -0.0528 0.7675 -0.1763
C1 C -0.0554(6) 0.7132(7) 0.0011(4)
H11 H -0.0812 0.7720 0.0311
H12 H -0.0855 0.6465 0.0205
C2 C -0.1206(8) 0.7266(8) -0.0831(5)
H13 H -0.1670 0.6609 -0.1035
H14 H -0.1869 0.7843 -0.0897
C3 C 0.1315(7) 0.6294(6) -0.0391(4)
H15 H 0.0962 0.5600 -0.0277
H16 H 0.2299 0.6248 -0.0289
C4 C 0.0759(7) 0.6587(6) -0.1225(4)
H17 H 0.1498 0.6757 -0.1478
H18 H 0.0252 0.5987 -0.1499
C5 C 0.1403(13) 0.8171(11) -0.0085(7)
H19 H 0.2375 0.8145 -0.0057
H20 H 0.1230 0.8705 0.0286
C6 C 0.0657(8) 0.8452(5) -0.0893(4)
H21 H 0.0053 0.9054 -0.0875
H22 H 0.1299 0.8661 -0.1205
loop_
_geom_bond_atom_site_label_1
_geom_bond_atom_site_label_2
_geom_bond_site_symmetry_1
_geom_bond_site_symmetry_2
Sc1 F1 1_555 1_555
Sc2 F1 1_555 1_555
Sc3 F2 1_555 1_555
Sc4 O7 1_555 1_555
P1 O1 1_555 1_555
P2 O5 1_555 1_555
P3 O9 1_555 1_555
P4 O13 1_555 1_555
F2 Sc2 1_555 1_555
O1 Sc1B 1_555 1_555
O2 Sc3 1_555 1_555
O3 P1 1_555 1_555
O4 P1 1_555 1_555
O5 Sc3A 1_555 1_555
O6 Sc1 1_555 1_555
O7 P2 1_555 1_555
O8 Sc2 1_555 1_555
O9 Sc3A 1_555 1_555
O10 P3 1_555 1_555
O11 Sc2 1_555 1_555
O12 P3 1_555 1_555
O13 Sc3 1_555 1_555
O14 Sc2 1_555 1_555
O15 P4 1_555 1_555
O16 P4 1_555 1_555
O17 Sc1 1_555 1_555
H1 O17 1_555 1_555
H2 O17 1_555 1_555
O18 Sc3 1_555 1_555
H3 O18 1_555 1_555
H4 O18 1_555 1_555
O19 Sc4 1_555 1_555
H5 O19 1_555 1_555
H6 O19 1_555 1_555
O20 Sc4 1_555 1_555
H7 O20 1_555 1_555
H8 O20 1_555 1_555
N1 H9 1_555 1_555
N2 H10 1_555 1_555
C1 N1 1_555 1_555
H11 C1 1_555 1_555
H12 C1 1_555 1_555
C2 N2 1_555 1_555
H13 C2 1_555 1_555
H14 C2 1_555 1_555
C3 N1 1_555 1_555
H15 C3 1_555 1_555
H16 C3 1_555 1_555
C4 N2 1_555 1_555
H17 C4 1_555 1_555
H18 C4 1_555 1_555
C5 N1 1_555 1_555
H19 C5 1_555 1_555
H20 C5 1_555 1_555
C6 N2 1_555 1_555
H21 C6 1_555 1_555
H22 C6 1_555 1_555
Sc1A O10 1_555 1_555
Sc1_2 O3 1_555 1_555
Sc2A O12 1_555 1_555
Sc4_2 O15 1_555 1_555
Sc4B O16 1_555 1_555
Sc4A O4 1_555 1_555
O1B Sc1 1_555 1_555
O3_2 Sc1 1_555 1_555
O4A Sc4 1_555 1_555
O5A Sc3 1_555 1_555
O9A Sc3 1_555 1_555
O10A Sc1 1_555 1_555
O12A Sc2 1_555 1_555
O15_2 Sc4 1_555 1_555
O16B Sc4 1_555 1_555
P1 O2 1_555 1_555
P2 O6 1_555 1_555
P2 O8 1_555 1_555
P3 O11 1_555 1_555
P4 O14 1_555 1_555
C1 C2 1_555 1_555
C3 C4 1_555 1_555
C5 C6 1_555 1_555

#END
