
#######################################################################
#
#                 Cambridge Crystallographic Data Centre
#                                CCDC 
#
#######################################################################
#
# If this CIF has been generated from an entry in the Cambridge 
# Structural Database, then it will include bibliographic, chemical, 
# crystal, experimental, refinement or atomic coordinate data resulting 
# from the CCDC's data processing and validation procedures.
#
#######################################################################

data_QAJJOB01
_chemical_formula_moiety         '(C6 H22 F2 In4 N2 O20 P4)n'
_symmetry_cell_setting           monoclinic
_symmetry_space_group_name_H-M   'P 21/n'
_symmetry_Int_Tables_number      14
_space_group_name_Hall           '-P 2yn'
loop_
_symmetry_equiv_pos_site_id
_symmetry_equiv_pos_as_xyz
1 x,y,z
2 1/2-x,1/2+y,1/2-z
3 -x,-y,-z
4 1/2+x,1/2-y,1/2+z
_cell_length_a                   10.280(2)
_cell_length_b                   12.700(3)
_cell_length_c                   17.860(4)
_cell_angle_alpha                90
_cell_angle_beta                 102.47(3)
_cell_angle_gamma                90
_cell_volume                     2276.72
loop_
_atom_site_label
_atom_site_type_symbol
_atom_site_fract_x
_atom_site_fract_y
_atom_site_fract_z
In1 In -0.05695(5) -0.02179(3) 0.12591(3)
In2 In -0.25428(5) -0.07260(3) 0.27769(3)
In3 In -0.53124(5) 0.11624(3) 0.20822(3)
In4 In 0.36705(5) -0.14781(3) 0.42227(3)
P1 P -0.79742(18) 0.08959(12) 0.05842(10)
P2 P 0.06511(18) -0.11630(12) 0.30750(10)
P3 P -0.27932(18) -0.34032(12) 0.29941(10)
P4 P -0.41914(18) 0.04613(12) 0.39248(10)
F1 F -0.2124(4) -0.0939(3) 0.1680(2)
F2 F -0.4516(4) -0.0384(3) 0.2181(2)
O1 O -0.8252(5) 0.0213(3) -0.0133(3)
O2 O -0.6506(5) 0.0791(4) 0.1003(3)
O3 O -0.8857(5) 0.0586(4) 0.1134(3)
O4 O -0.8250(5) 0.2056(3) 0.0342(3)
O5 O 0.0928(5) -0.2285(3) 0.2808(3)
O6 O 0.0583(5) -0.0403(3) 0.2397(3)
O7 O 0.1816(5) -0.0837(4) 0.3728(3)
O8 O -0.0623(5) -0.1128(4) 0.3384(3)
O9 O -0.1321(5) -0.3408(4) 0.3388(3)
O10 O -0.3637(5) -0.3712(3) 0.3576(3)
O11 O -0.3259(5) -0.2290(3) 0.2701(3)
O12 O -0.3090(5) -0.4160(3) 0.2312(3)
O13 O -0.4388(5) 0.1278(3) 0.3283(3)
O14 O -0.3207(5) -0.0423(3) 0.3796(3)
O15 O -0.5545(5) -0.0046(4) 0.3932(3)
O16 O -0.3604(5) 0.0988(3) 0.4683(3)
O17 O 0.0017(6) -0.1828(4) 0.1030(3)
O18 O -0.7011(5) 0.0692(4) 0.2584(3)
O19 O 0.5720(5) -0.2059(4) 0.4359(3)
O20 O 0.3586(6) -0.2261(4) 0.3085(3)
H1 H -0.0251 -0.2108 0.0594
H2 H 0.0528 -0.2191 0.1386
H3 H -0.7768 0.0535 0.2287
H4 H -0.6935 0.0669 0.3062
H5 H 0.6295 -0.1950 0.4783
H6 H 0.5958 -0.2393 0.4003
H7 H 0.2863 -0.2261 0.2748
H8 H 0.4276 -0.2556 0.2991
In1A In -0.44305(5) -0.52179(3) 0.37409(3)
In1B In -0.94305(5) 0.02179(3) -0.12591(3)
In1_2 In -1.05695(5) -0.02179(3) 0.12591(3)
In2A In -0.24572(5) -0.57260(3) 0.22231(3)
In3A In 0.03124(5) -0.38376(3) 0.29178(3)
In4_2 In -0.63295(5) -0.14781(3) 0.42227(3)
In4B In -0.36705(5) 0.14781(3) 0.57773(3)
In4A In -0.86705(5) 0.35219(3) 0.07773(3)
O1B O -0.1748(5) -0.0213(3) 0.0133(3)
O3_2 O 0.1143(5) 0.0586(4) 0.1134(3)
O4A O 0.3250(5) -0.2944(3) 0.4658(3)
O5A O -0.5928(5) 0.2715(3) 0.2192(3)
O9A O -0.3679(5) 0.1592(4) 0.1612(3)
O10A O -0.1363(5) 0.1288(3) 0.1424(3)
O12A O -0.1910(5) 0.0840(3) 0.2688(3)
O15_2 O 0.4455(5) -0.0046(4) 0.3932(3)
O16B O 0.3604(5) -0.0988(3) 0.5317(3)
N1 N -0.0971(8) -0.2092(6) 0.4891(5)
H9 H -0.137(10) -0.195(7) 0.440(6)
N2 N 0.0098(9) -0.2466(7) 0.6249(5)
H10 H 0.048(10) -0.263(7) 0.674(6)
C1 C -0.1301(13) -0.1297(8) 0.5395(7)
H11 H -0.2259 -0.1208 0.5300
H12 H -0.0907 -0.0630 0.5300
C2 C -0.0760(13) -0.1637(10) 0.6242(7)
H13 H -0.0298 -0.1053 0.6535
H14 H -0.1492 -0.1846 0.6473
C3 C -0.1345(12) -0.3155(7) 0.5114(6)
H15 H -0.2302 -0.3180 0.5068
H16 H -0.1119 -0.3668 0.4760
C4 C 0.1146(11) -0.2305(10) 0.5819(6)
H17 H 0.1704 -0.2928 0.5862
H18 H 0.1702 -0.1716 0.6036
C5 C 0.0546(12) -0.2093(10) 0.4994(7)
H19 H 0.0816 -0.2632 0.4674
H20 H 0.0846 -0.1416 0.4844
C6 C -0.0708(17) -0.3437(9) 0.5868(7)
H21 H -0.0115 -0.4029 0.5859
H22 H -0.1365 -0.3640 0.6158
loop_
_geom_bond_atom_site_label_1
_geom_bond_atom_site_label_2
_geom_bond_site_symmetry_1
_geom_bond_site_symmetry_2
In1 F1 1_555 1_555
In2 F1 1_555 1_555
In3 F2 1_555 1_555
In4 O7 1_555 1_555
P1 O1 1_555 1_555
P2 O5 1_555 1_555
P3 O9 1_555 1_555
P4 O13 1_555 1_555
F2 In2 1_555 1_555
O1 In1B 1_555 1_555
O2 In3 1_555 1_555
O3 P1 1_555 1_555
O4 P1 1_555 1_555
O5 In3A 1_555 1_555
O6 In1 1_555 1_555
O7 P2 1_555 1_555
O8 In2 1_555 1_555
O9 In3A 1_555 1_555
O10 P3 1_555 1_555
O11 In2 1_555 1_555
O12 P3 1_555 1_555
O13 In3 1_555 1_555
O14 In2 1_555 1_555
O15 P4 1_555 1_555
O16 P4 1_555 1_555
O17 In1 1_555 1_555
O18 In3 1_555 1_555
O19 In4 1_555 1_555
O20 In4 1_555 1_555
H1 O17 1_555 1_555
H2 O17 1_555 1_555
H3 O18 1_555 1_555
H4 O18 1_555 1_555
H5 O19 1_555 1_555
H6 O19 1_555 1_555
H7 O20 1_555 1_555
H8 O20 1_555 1_555
N1 H9 1_555 1_555
N2 H10 1_555 1_555
C1 N1 1_555 1_555
H11 C1 1_555 1_555
H12 C1 1_555 1_555
C2 N2 1_555 1_555
H13 C2 1_555 1_555
H14 C2 1_555 1_555
C3 N1 1_555 1_555
H15 C3 1_555 1_555
H16 C3 1_555 1_555
C4 N2 1_555 1_555
H17 C4 1_555 1_555
H18 C4 1_555 1_555
C5 N1 1_555 1_555
H19 C5 1_555 1_555
H20 C5 1_555 1_555
C6 N2 1_555 1_555
H21 C6 1_555 1_555
H22 C6 1_555 1_555
In1A O10 1_555 1_555
In1_2 O3 1_555 1_555
In2A O12 1_555 1_555
In4_2 O15 1_555 1_555
In4B O16 1_555 1_555
In4A O4 1_555 1_555
O1B In1 1_555 1_555
O3_2 In1 1_555 1_555
O4A In4 1_555 1_555
O5A In3 1_555 1_555
O9A In3 1_555 1_555
O10A In1 1_555 1_555
O12A In2 1_555 1_555
O15_2 In4 1_555 1_555
O16B In4 1_555 1_555
P1 O2 1_555 1_555
P2 O6 1_555 1_555
P2 O8 1_555 1_555
P3 O11 1_555 1_555
P4 O14 1_555 1_555
C1 C2 1_555 1_555
C3 C6 1_555 1_555
C4 C5 1_555 1_555

#END
