
#######################################################################
#
#                 Cambridge Crystallographic Data Centre
#                                CCDC 
#
#######################################################################
#
# If this CIF has been generated from an entry in the Cambridge 
# Structural Database, then it will include bibliographic, chemical, 
# crystal, experimental, refinement or atomic coordinate data resulting 
# from the CCDC's data processing and validation procedures.
#
#######################################################################

data_GAXGIX
_chemical_formula_moiety         '(C62 H40 Mn3 N4 O15)n'
_symmetry_cell_setting           monoclinic
_symmetry_space_group_name_H-M   'C 2/c'
_symmetry_Int_Tables_number      15
_space_group_name_Hall           '-C 2yc'
loop_
_symmetry_equiv_pos_site_id
_symmetry_equiv_pos_as_xyz
1 x,y,z
2 -x,y,1/2-z
3 1/2+x,1/2+y,z
4 1/2-x,1/2+y,1/2-z
5 -x,-y,-z
6 x,-y,1/2+z
7 1/2-x,1/2-y,-z
8 1/2+x,1/2-y,1/2+z
_cell_length_a                   14.271(4)
_cell_length_b                   17.077(4)
_cell_length_c                   25.897(6)
_cell_angle_alpha                90
_cell_angle_beta                 92.986(11)
_cell_angle_gamma                90
_cell_volume                     6302.68
loop_
_atom_site_label
_atom_site_type_symbol
_atom_site_fract_x
_atom_site_fract_y
_atom_site_fract_z
Mn1 Mn 0.00772(3) 0.17698(3) 0.491873(18)
Mn2 Mn 0.2500 0.2500 0.5000
O1 O 0.06953(18) 0.10420(18) 0.54870(10)
O2 O 0.48331(18) 0.22536(18) 0.46027(10)
O3 O 0.21321(18) 0.15741(15) 0.55329(9)
O4 O 0.34091(18) 0.16958(15) 0.46020(9)
O5 O 0.5000 0.0408(2) 0.2500
N1 N -0.0998(3) 0.24288(19) 0.44055(13)
N2 N -0.13337(19) 0.11664(17) 0.49677(11)
C1 C 0.1538(2) 0.1094(2) 0.56676(12)
C2 C 0.1818(2) 0.0500(2) 0.60824(12)
C3 C 0.1215(3) -0.0110(2) 0.61916(13)
H1 H 0.0627 -0.0136 0.6020
C4 C 0.1474(3) -0.0681(2) 0.65523(14)
H2 H 0.1070 -0.1093 0.6618
C5 C 0.2949(3) -0.0020(3) 0.67183(15)
H3 H 0.3526 0.0015 0.6901
C6 C 0.2691(3) 0.0540(2) 0.63484(14)
H4 H 0.3103 0.0943 0.6278
C7 C 0.4181(2) 0.1825(2) 0.44080(12)
C8 C 0.4376(2) 0.1460(2) 0.38932(12)
C9 C 0.4998(2) 0.1823(2) 0.35758(13)
H5 H 0.5290 0.2286 0.3686
C10 C 0.5196(2) 0.1514(2) 0.31006(13)
H6 H 0.5605 0.1770 0.2889
C11 C 0.4772(2) 0.0812(2) 0.29448(11)
C12 C 0.4138(3) 0.0455(2) 0.32490(13)
H7 H 0.3842 -0.0005 0.3137
C13 C 0.3940(3) 0.0777(2) 0.37217(13)
H8 H 0.3509 0.0533 0.3926
C14 C -0.0783(4) 0.3069(3) 0.4138(2)
H9 H -0.0165 0.3244 0.4147
C15 C -0.1466(7) 0.3474(4) 0.3848(3)
H10 H -0.1305 0.3916 0.3662
C16 C -0.2365(7) 0.3229(5) 0.3834(3)
H11 H -0.2822 0.3494 0.3634
C17 C -0.2602(5) 0.2587(4) 0.4117(3)
H12 H -0.3223 0.2424 0.4121
C18 C -0.1899(3) 0.2184(2) 0.43972(15)
C19 C -0.2079(2) 0.1465(2) 0.46907(15)
C20 C -0.2954(3) 0.1094(3) 0.46851(19)
H13 H -0.3470 0.1312 0.4503
C21 C -0.3043(3) 0.0401(4) 0.4953(2)
H14 H -0.3619 0.0146 0.4949
C22 C -0.2284(3) 0.0091(3) 0.52239(19)
H15 H -0.2333 -0.0378 0.5403
C23 C -0.1447(3) 0.0488(2) 0.52260(15)
H16 H -0.0932 0.0280 0.5414
C24 C 0.2341(3) -0.0630(2) 0.68130(13)
O6 O 0.2646(2) -0.12203(19) 0.71584(10)
O7 O 0.13516(16) -0.21836(15) 0.94065(8)
O8 O 0.05323(18) -0.11041(16) 0.92541(9)
C25 C 0.2236(3) -0.1296(2) 0.76275(13)
C26 C 0.1660(3) -0.0718(2) 0.78256(14)
H17 H 0.1512 -0.0268 0.7637
C27 C 0.1314(3) -0.0834(2) 0.83127(14)
H18 H 0.0922 -0.0459 0.8447
C28 C 0.1541(2) -0.1496(2) 0.86019(12)
C29 C 0.2122(3) -0.2059(2) 0.84006(13)
H19 H 0.2282 -0.2504 0.8593
C30 C 0.2466(3) -0.1957(2) 0.79116(13)
H20 H 0.2851 -0.2337 0.7776
C31 C 0.1129(2) -0.1600(2) 0.91184(12)
Mn1F Mn 0.49228(3) 0.32302(3) 0.508127(18)
Mn1E Mn 0.00772(3) -0.17698(3) 0.991873(18)
Mn1G Mn 0.50772(3) 0.32302(3) -0.008127(18)
Mn1C Mn 0.49228(3) 0.67698(3) 0.008127(18)
Mn2C Mn 0.2500 -0.2500 1.0000
Mn2A Mn 0.7500 0.2500 0.0000
Mn2C_2 Mn 0.2500 0.7500 0.0000
O1F O 0.43047(18) 0.39580(18) 0.45130(10)
O2A O 0.51669(18) 0.22536(18) 0.03973(10)
O2F O 0.01669(18) 0.27464(18) 0.53973(10)
O3F O 0.28679(18) 0.34259(15) 0.44671(9)
O4A O 0.65909(18) 0.16958(15) 0.03980(9)
O4F O 0.15909(18) 0.33042(15) 0.53980(9)
N1F N 0.5998(3) 0.25712(19) 0.55945(13)
N2F N 0.63337(19) 0.38336(17) 0.50323(11)
C1F C 0.3462(2) 0.3906(2) 0.43324(12)
C2F C 0.3182(2) 0.4500(2) 0.39176(12)
C3F C 0.3785(3) 0.5110(2) 0.38084(13)
H1F H 0.4373 0.5136 0.3980
C4F C 0.3526(3) 0.5681(2) 0.34477(14)
H2F H 0.3930 0.6093 0.3382
C5F C 0.2051(3) 0.5020(3) 0.32817(15)
H3F H 0.1474 0.4985 0.3099
C6F C 0.2309(3) 0.4460(2) 0.36516(14)
H4F H 0.1897 0.4057 0.3722
C7A C 0.5819(2) 0.1825(2) 0.05920(12)
C8A C 0.5624(2) 0.1460(2) 0.11068(12)
C9A C 0.5002(2) 0.1823(2) 0.14242(13)
H5A H 0.4710 0.2286 0.1314
C10A C 0.4804(2) 0.1514(2) 0.18994(13)
H6A H 0.4395 0.1770 0.2111
C11A C 0.5228(2) 0.0812(2) 0.20552(11)
C12A C 0.5862(3) 0.0455(2) 0.17510(13)
H7A H 0.6158 -0.0005 0.1863
C13A C 0.6060(3) 0.0777(2) 0.12783(13)
H8A H 0.6491 0.0533 0.1074
C14F C 0.5783(4) 0.1931(3) 0.5862(2)
H9F H 0.5165 0.1756 0.5853
C15F C 0.6466(7) 0.1526(4) 0.6152(3)
H10F H 0.6305 0.1084 0.6338
C16F C 0.7365(7) 0.1771(5) 0.6166(3)
H11F H 0.7822 0.1506 0.6366
C17F C 0.7602(5) 0.2413(4) 0.5883(3)
H12F H 0.8223 0.2576 0.5879
C18F C 0.6899(3) 0.2816(2) 0.56028(15)
C19F C 0.7079(2) 0.3535(2) 0.53093(15)
C20F C 0.7954(3) 0.3906(3) 0.53149(19)
H13F H 0.8470 0.3688 0.5497
C21F C 0.8043(3) 0.4599(4) 0.5047(2)
H14F H 0.8619 0.4854 0.5051
C22F C 0.7284(3) 0.4909(3) 0.47761(19)
H15F H 0.7333 0.5378 0.4597
C23F C 0.6447(3) 0.4512(2) 0.47740(15)
H16F H 0.5932 0.4720 0.4586
C24F C 0.2659(3) 0.5630(2) 0.31870(13)
O6F O 0.2354(2) 0.62203(19) 0.28416(10)
O7F O 0.36484(16) 0.71836(15) 0.05935(8)
O7E O 0.13516(16) 0.21836(15) 0.44065(8)
O7C O 0.36484(16) 0.28164(15) 0.55935(8)
O8F O 0.44677(18) 0.61041(16) 0.07459(9)
O8E O 0.05323(18) 0.11041(16) 0.42541(9)
O8C O 0.44677(18) 0.38959(16) 0.57459(9)
C25F C 0.2764(3) 0.6296(2) 0.23725(13)
C26F C 0.3340(3) 0.5718(2) 0.21744(14)
H17F H 0.3488 0.5268 0.2363
C27F C 0.3686(3) 0.5834(2) 0.16873(14)
H18F H 0.4078 0.5459 0.1553
C28F C 0.3459(2) 0.6496(2) 0.13981(12)
C29F C 0.2878(3) 0.7059(2) 0.15994(13)
H19F H 0.2718 0.7504 0.1407
C30F C 0.2534(3) 0.6957(2) 0.20884(13)
H20F H 0.2149 0.7337 0.2224
C31F C 0.3871(2) 0.6600(2) 0.08816(12)
loop_
_geom_bond_atom_site_label_1
_geom_bond_atom_site_label_2
_geom_bond_site_symmetry_1
_geom_bond_site_symmetry_2
Mn1 O1 1_555 1_555
Mn2 O3 1_555 1_555
O1 C1 1_555 1_555
O2 C7 1_555 1_555
O3 C1 1_555 1_555
O4 Mn2 1_555 1_555
O5 C11 1_555 1_555
N1 Mn1 1_555 1_555
N2 Mn1 1_555 1_555
C1 C2 1_555 1_555
C2 C3 1_555 1_555
C3 H1 1_555 1_555
C4 C3 1_555 1_555
H2 C4 1_555 1_555
C5 H3 1_555 1_555
C6 C2 1_555 1_555
H4 C6 1_555 1_555
C7 O4 1_555 1_555
C8 C7 1_555 1_555
C9 C8 1_555 1_555
H5 C9 1_555 1_555
C10 C9 1_555 1_555
H6 C10 1_555 1_555
C11 C10 1_555 1_555
C12 C11 1_555 1_555
H7 C12 1_555 1_555
C13 C8 1_555 1_555
H8 C13 1_555 1_555
C14 N1 1_555 1_555
H9 C14 1_555 1_555
C15 C14 1_555 1_555
H10 C15 1_555 1_555
C16 C15 1_555 1_555
H11 C16 1_555 1_555
C17 C16 1_555 1_555
H12 C17 1_555 1_555
C18 N1 1_555 1_555
C19 N2 1_555 1_555
C20 C19 1_555 1_555
H13 C20 1_555 1_555
C21 C20 1_555 1_555
H14 C21 1_555 1_555
C22 C21 1_555 1_555
H15 C22 1_555 1_555
C23 N2 1_555 1_555
H16 C23 1_555 1_555
C24 C4 1_555 1_555
O6 C24 1_555 1_555
O7 C31 1_555 1_555
O8 C31 1_555 1_555
C25 O6 1_555 1_555
C26 C25 1_555 1_555
H17 C26 1_555 1_555
C27 C26 1_555 1_555
H18 C27 1_555 1_555
C28 C27 1_555 1_555
C29 C28 1_555 1_555
H19 C29 1_555 1_555
C30 C25 1_555 1_555
H20 C30 1_555 1_555
C31 C28 1_555 1_555
Mn1F O2 1_555 1_555
Mn1E O7 1_555 1_555
Mn1G O2A 1_555 1_555
Mn1C O7F 1_555 1_555
Mn2C O7 1_555 1_555
Mn2A O4A 1_555 1_555
Mn2C_2 O7F 1_555 1_555
O1F Mn1F 1_555 1_555
O2A C7A 1_555 1_555
O2F Mn1 1_555 1_555
O3F Mn2 1_555 1_555
O4A C7A 1_555 1_555
O4F Mn2 1_555 1_555
N1F Mn1F 1_555 1_555
N2F Mn1F 1_555 1_555
C1F O1F 1_555 1_555
C2F C1F 1_555 1_555
C3F C2F 1_555 1_555
H1F C3F 1_555 1_555
C4F C3F 1_555 1_555
H2F C4F 1_555 1_555
C5F H3F 1_555 1_555
C6F C2F 1_555 1_555
H4F C6F 1_555 1_555
C7A C8A 1_555 1_555
C8A C9A 1_555 1_555
C9A H5A 1_555 1_555
C10A C9A 1_555 1_555
H6A C10A 1_555 1_555
C11A O5 1_555 1_555
C12A C11A 1_555 1_555
H7A C12A 1_555 1_555
C13A C8A 1_555 1_555
H8A C13A 1_555 1_555
C14F N1F 1_555 1_555
H9F C14F 1_555 1_555
C15F C14F 1_555 1_555
H10F C15F 1_555 1_555
C16F C15F 1_555 1_555
H11F C16F 1_555 1_555
C17F C16F 1_555 1_555
H12F C17F 1_555 1_555
C18F N1F 1_555 1_555
C19F N2F 1_555 1_555
C20F C19F 1_555 1_555
H13F C20F 1_555 1_555
C21F C20F 1_555 1_555
H14F C21F 1_555 1_555
C22F C21F 1_555 1_555
H15F C22F 1_555 1_555
C23F N2F 1_555 1_555
H16F C23F 1_555 1_555
C24F C4F 1_555 1_555
O6F C24F 1_555 1_555
O7F C31F 1_555 1_555
O7E Mn1 1_555 1_555
O7C Mn2 1_555 1_555
O8F Mn1C 1_555 1_555
O8E Mn1 1_555 1_555
O8C Mn1F 1_555 1_555
C25F O6F 1_555 1_555
C26F C25F 1_555 1_555
H17F C26F 1_555 1_555
C27F C26F 1_555 1_555
H18F C27F 1_555 1_555
C28F C27F 1_555 1_555
C29F C28F 1_555 1_555
H19F C29F 1_555 1_555
C30F C25F 1_555 1_555
H20F C30F 1_555 1_555
C31F O8F 1_555 1_555
Mn2 O7E 1_555 1_555
C5 C6 1_555 1_555
C5 C24 1_555 1_555
C12 C13 1_555 1_555
C17 C18 1_555 1_555
C18 C19 1_555 1_555
C22 C23 1_555 1_555
O8 Mn1E 1_555 1_555
C29 C30 1_555 1_555
Mn1F O7C 1_555 1_555
O3F C1F 1_555 1_555
C5F C6F 1_555 1_555
C5F C24F 1_555 1_555
C10A C11A 1_555 1_555
C12A C13A 1_555 1_555
C17F C18F 1_555 1_555
C18F C19F 1_555 1_555
C22F C23F 1_555 1_555
C28F C31F 1_555 1_555
C29F C30F 1_555 1_555

#END
