
#######################################################################
#
#                 Cambridge Crystallographic Data Centre
#                                CCDC 
#
#######################################################################
#
# If this CIF has been generated from an entry in the Cambridge 
# Structural Database, then it will include bibliographic, chemical, 
# crystal, experimental, refinement or atomic coordinate data resulting 
# from the CCDC's data processing and validation procedures.
#
#######################################################################

data_GAXGET
_chemical_formula_moiety         '(C66 H40 Co3 N4 O15)n'
_symmetry_cell_setting           monoclinic
_symmetry_space_group_name_H-M   'C 2/c'
_symmetry_Int_Tables_number      15
_space_group_name_Hall           '-C 2yc'
loop_
_symmetry_equiv_pos_site_id
_symmetry_equiv_pos_as_xyz
1 x,y,z
2 -x,y,1/2-z
3 1/2+x,1/2+y,z
4 1/2-x,1/2+y,1/2-z
5 -x,-y,-z
6 x,-y,1/2+z
7 1/2-x,1/2-y,-z
8 1/2+x,1/2-y,1/2+z
_cell_length_a                   15.138(2)
_cell_length_b                   16.501(2)
_cell_length_c                   25.844(4)
_cell_angle_alpha                90
_cell_angle_beta                 91.021(2)
_cell_angle_gamma                90
_cell_volume                     6454.6
loop_
_atom_site_label
_atom_site_type_symbol
_atom_site_fract_x
_atom_site_fract_y
_atom_site_fract_z
Co1 Co 0.47004(4) 0.17747(3) 0.50601(2)
Co2 Co 0.2500 0.2500 0.5000
N1 N 0.5493(3) 0.2538(2) 0.55529(14)
N2 N 0.5982(2) 0.1276(2) 0.49834(13)
O1 O 0.35406(18) 0.21325(17) 0.55437(9)
O2 O 0.44044(19) 0.11003(17) 0.57425(10)
O3 O 0.4646(2) 0.2667(2) 0.45459(12)
O4 O 0.2401(2) 0.13490(19) 0.78742(11)
O5 O 0.5000 0.4675(2) 0.2500
C1 C 0.3105(3) -0.0428(2) 0.89551(14)
C2 C 0.3703(3) 0.0173(3) 0.88252(15)
H1 H 0.4255 0.0187 0.8989
C3 C 0.3492(3) 0.0754(3) 0.84549(16)
H2 H 0.3899 0.1152 0.8370
C4 C 0.2673(3) 0.0733(3) 0.82153(15)
C5 C 0.2066(3) 0.0136(3) 0.83295(16)
H3 H 0.1519 0.0121 0.8161
C6 C 0.2290(3) -0.0443(3) 0.87009(16)
H4 H 0.1885 -0.0847 0.8780
C7 C 0.2766(3) 0.1374(3) 0.73855(15)
C8 C 0.3309(3) 0.0773(3) 0.71928(16)
H5 H 0.3460 0.0325 0.7394
C9 C 0.3623(3) 0.0850(3) 0.66936(16)
H6 H 0.3989 0.0449 0.6563
C10 C 0.3401(3) 0.1513(2) 0.63845(14)
C11 C 0.2855(3) 0.2105(2) 0.65841(15)
H7 H 0.2697 0.2549 0.6381
C12 C 0.2539(3) 0.2043(3) 0.70822(15)
H8 H 0.2178 0.2447 0.7214
C13 C 0.3784(3) 0.1581(2) 0.58593(15)
C14 C 0.4041(3) 0.3130(3) 0.43690(15)
C15 C 0.4258(3) 0.3534(2) 0.38588(14)
C16 C 0.3816(3) 0.4202(2) 0.36747(15)
H9 H 0.3356 0.4419 0.3865
C17 C 0.4041(3) 0.4561(3) 0.32096(15)
H10 H 0.3731 0.5009 0.3086
C18 C 0.4734(3) 0.4244(3) 0.29329(14)
C19 C 0.5169(3) 0.3560(3) 0.31011(15)
H11 H 0.5620 0.3337 0.2907
C20 C 0.4927(3) 0.3207(3) 0.35640(15)
H12 H 0.5218 0.2742 0.3679
C21 C 0.5226(4) 0.3156(3) 0.5830(2)
H13 H 0.4639 0.3317 0.5797
C22 C 0.5775(5) 0.3582(4) 0.6168(3)
H14 H 0.5555 0.4010 0.6362
C23 C 0.6646(5) 0.3363(4) 0.6214(3)
H15 H 0.7023 0.3641 0.6439
C24 C 0.6967(4) 0.2721(3) 0.59197(19)
C25 C 0.6347(3) 0.2326(3) 0.55909(16)
C26 C 0.6626(3) 0.1645(3) 0.52831(15)
C27 C 0.7504(3) 0.1387(3) 0.52990(18)
C28 C 0.7723(3) 0.0709(3) 0.5009(2)
H16 H 0.8301 0.0517 0.5011
C29 C 0.7078(3) 0.0323(3) 0.47175(19)
H17 H 0.7217 -0.0135 0.4525
C30 C 0.6215(3) 0.0623(3) 0.47127(17)
H18 H 0.5787 0.0357 0.4514
C31 C 0.7862(4) 0.2448(3) 0.5928(2)
H19 H 0.8275 0.2706 0.6141
C32 C 0.8119(3) 0.1820(4) 0.5630(2)
H20 H 0.8709 0.1663 0.5639
O6 O 0.4107(2) -0.09914(19) 0.95683(11)
O7 O 0.27546(19) -0.15532(17) 0.94875(10)
C33 C 0.3338(3) -0.1045(2) 0.93716(14)
O8 O 0.33140(19) 0.32746(17) 0.45705(11)
Co1F Co 0.02996(4) 0.32253(3) 0.49399(2)
Co1E Co 0.47004(4) -0.17747(3) 1.00601(2)
Co1A Co 0.52996(4) 0.17747(3) -0.00601(2)
Co1C Co 0.02996(4) 0.67747(3) -0.00601(2)
Co2C Co 0.2500 -0.2500 1.0000
Co2A Co 0.7500 0.2500 0.0000
Co2C_2 Co 0.2500 0.7500 0.0000
N1F N -0.0493(3) 0.2462(2) 0.44471(14)
N2F N -0.0982(2) 0.3724(2) 0.50166(13)
O1F O 0.14594(18) 0.28675(17) 0.44563(9)
O2F O 0.05956(19) 0.38997(17) 0.42575(10)
O3A O 0.5354(2) 0.2667(2) 0.04541(12)
O3F O 0.0354(2) 0.2333(2) 0.54541(12)
O4F O 0.2599(2) 0.36510(19) 0.21258(11)
C1F C 0.1895(3) 0.5428(2) 0.10449(14)
C2F C 0.1297(3) 0.4827(3) 0.11748(15)
H1F H 0.0745 0.4813 0.1011
C3F C 0.1508(3) 0.4246(3) 0.15451(16)
H2F H 0.1101 0.3848 0.1630
C4F C 0.2327(3) 0.4267(3) 0.17847(15)
C5F C 0.2934(3) 0.4864(3) 0.16705(16)
H3F H 0.3481 0.4879 0.1839
C6F C 0.2710(3) 0.5443(3) 0.12991(16)
H4F H 0.3115 0.5847 0.1220
C7F C 0.2234(3) 0.3626(3) 0.26145(15)
C8F C 0.1691(3) 0.4227(3) 0.28072(16)
H5F H 0.1540 0.4675 0.2606
C9F C 0.1377(3) 0.4150(3) 0.33064(16)
H6F H 0.1011 0.4551 0.3437
C10F C 0.1599(3) 0.3487(2) 0.36155(14)
C11F C 0.2145(3) 0.2895(2) 0.34159(15)
H7F H 0.2303 0.2451 0.3619
C12F C 0.2461(3) 0.2957(3) 0.29178(15)
H8F H 0.2822 0.2553 0.2786
C13F C 0.1216(3) 0.3419(2) 0.41407(15)
C14A C 0.5959(3) 0.3130(3) 0.06310(15)
C15A C 0.5742(3) 0.3534(2) 0.11412(14)
C16A C 0.6184(3) 0.4202(2) 0.13253(15)
H9A H 0.6644 0.4419 0.1135
C17A C 0.5959(3) 0.4561(3) 0.17904(15)
H10A H 0.6269 0.5009 0.1914
C18A C 0.5266(3) 0.4244(3) 0.20671(14)
C19A C 0.4831(3) 0.3560(3) 0.18989(15)
H11A H 0.4380 0.3337 0.2093
C20A C 0.5073(3) 0.3207(3) 0.14360(15)
H12A H 0.4782 0.2742 0.1321
C21F C -0.0226(4) 0.1844(3) 0.4170(2)
H13F H 0.0361 0.1683 0.4203
C22F C -0.0775(5) 0.1418(4) 0.3832(3)
H14F H -0.0555 0.0990 0.3638
C23F C -0.1646(5) 0.1637(4) 0.3786(3)
H15F H -0.2023 0.1359 0.3561
C24F C -0.1967(4) 0.2279(3) 0.40803(19)
C25F C -0.1347(3) 0.2674(3) 0.44091(16)
C26F C -0.1626(3) 0.3355(3) 0.47169(15)
C27F C -0.2504(3) 0.3613(3) 0.47010(18)
C28F C -0.2723(3) 0.4291(3) 0.4991(2)
H16F H -0.3301 0.4483 0.4989
C29F C -0.2078(3) 0.4677(3) 0.52825(19)
H17F H -0.2217 0.5135 0.5475
C30F C -0.1215(3) 0.4377(3) 0.52873(17)
H18F H -0.0787 0.4643 0.5486
C31F C -0.2862(4) 0.2552(3) 0.4072(2)
H19F H -0.3275 0.2294 0.3859
C32F C -0.3119(3) 0.3180(4) 0.4370(2)
H20F H -0.3709 0.3337 0.4361
O6F O 0.0893(2) 0.59914(19) 0.04317(11)
O6E O 0.4107(2) 0.09914(19) 0.45683(11)
O6C O 0.0893(2) 0.40086(19) 0.54317(11)
O7F O 0.22454(19) 0.65532(17) 0.05125(10)
O7C O 0.22454(19) 0.34468(17) 0.55125(10)
O7E O 0.27546(19) 0.15532(17) 0.44875(10)
C33F C 0.1662(3) 0.6045(2) 0.06284(14)
O8A O 0.66860(19) 0.32746(17) 0.04295(11)
O8F O 0.16860(19) 0.17254(17) 0.54295(11)
loop_
_geom_bond_atom_site_label_1
_geom_bond_atom_site_label_2
_geom_bond_site_symmetry_1
_geom_bond_site_symmetry_2
Co1 N1 1_555 1_555
Co2 O1 1_555 1_555
N1 C21 1_555 1_555
N2 Co1 1_555 1_555
O1 Co1 1_555 1_555
O2 Co1 1_555 1_555
O3 Co1 1_555 1_555
O4 C4 1_555 1_555
O5 C18 1_555 1_555
C1 C2 1_555 1_555
C2 H1 1_555 1_555
C3 C2 1_555 1_555
H2 C3 1_555 1_555
C4 C3 1_555 1_555
C5 C4 1_555 1_555
H3 C5 1_555 1_555
C6 C1 1_555 1_555
H4 C6 1_555 1_555
C7 O4 1_555 1_555
C8 C7 1_555 1_555
H5 C8 1_555 1_555
C9 C8 1_555 1_555
H6 C9 1_555 1_555
C10 C9 1_555 1_555
C11 C10 1_555 1_555
H7 C11 1_555 1_555
C12 C7 1_555 1_555
H8 C12 1_555 1_555
C13 O1 1_555 1_555
C14 O3 1_555 1_555
C15 C14 1_555 1_555
C16 C15 1_555 1_555
H9 C16 1_555 1_555
C17 C16 1_555 1_555
H10 C17 1_555 1_555
C18 C17 1_555 1_555
C19 C18 1_555 1_555
H11 C19 1_555 1_555
C20 C15 1_555 1_555
H12 C20 1_555 1_555
C21 H13 1_555 1_555
C22 C21 1_555 1_555
H14 C22 1_555 1_555
C23 C22 1_555 1_555
H15 C23 1_555 1_555
C24 C23 1_555 1_555
C25 N1 1_555 1_555
C26 N2 1_555 1_555
C27 C26 1_555 1_555
C28 C27 1_555 1_555
H16 C28 1_555 1_555
C29 C28 1_555 1_555
H17 C29 1_555 1_555
C30 N2 1_555 1_555
H18 C30 1_555 1_555
C31 C24 1_555 1_555
H19 C31 1_555 1_555
C32 C27 1_555 1_555
H20 C32 1_555 1_555
O6 C33 1_555 1_555
O7 C33 1_555 1_555
C33 C1 1_555 1_555
O8 Co2 1_555 1_555
Co1F N1F 1_555 1_555
Co1E O6 1_555 1_555
Co1A O3A 1_555 1_555
Co1C O6F 1_555 1_555
Co2C O7 1_555 1_555
Co2A O8A 1_555 1_555
Co2C_2 O7F 1_555 1_555
N1F C21F 1_555 1_555
N2F Co1F 1_555 1_555
O1F Co2 1_555 1_555
O2F Co1F 1_555 1_555
O3A C14A 1_555 1_555
O3F Co1F 1_555 1_555
O4F C4F 1_555 1_555
C1F C2F 1_555 1_555
C2F H1F 1_555 1_555
C3F C2F 1_555 1_555
H2F C3F 1_555 1_555
C4F C3F 1_555 1_555
C5F C4F 1_555 1_555
H3F C5F 1_555 1_555
C6F C1F 1_555 1_555
H4F C6F 1_555 1_555
C7F O4F 1_555 1_555
C8F C7F 1_555 1_555
H5F C8F 1_555 1_555
C9F C8F 1_555 1_555
H6F C9F 1_555 1_555
C10F C9F 1_555 1_555
C11F C10F 1_555 1_555
H7F C11F 1_555 1_555
C12F C7F 1_555 1_555
H8F C12F 1_555 1_555
C13F O1F 1_555 1_555
C14A C15A 1_555 1_555
C15A C16A 1_555 1_555
C16A H9A 1_555 1_555
C17A C16A 1_555 1_555
H10A C17A 1_555 1_555
C18A O5 1_555 1_555
C19A C18A 1_555 1_555
H11A C19A 1_555 1_555
C20A C15A 1_555 1_555
H12A C20A 1_555 1_555
C21F H13F 1_555 1_555
C22F C21F 1_555 1_555
H14F C22F 1_555 1_555
C23F C22F 1_555 1_555
H15F C23F 1_555 1_555
C24F C23F 1_555 1_555
C25F N1F 1_555 1_555
C26F N2F 1_555 1_555
C27F C26F 1_555 1_555
C28F C27F 1_555 1_555
H16F C28F 1_555 1_555
C29F C28F 1_555 1_555
H17F C29F 1_555 1_555
C30F N2F 1_555 1_555
H18F C30F 1_555 1_555
C31F C24F 1_555 1_555
H19F C31F 1_555 1_555
C32F C27F 1_555 1_555
H20F C32F 1_555 1_555
O6F C33F 1_555 1_555
O6E Co1 1_555 1_555
O6C Co1F 1_555 1_555
O7F C33F 1_555 1_555
O7C Co2 1_555 1_555
O7E Co2 1_555 1_555
C33F C1F 1_555 1_555
O8A C14A 1_555 1_555
O8F Co2 1_555 1_555
O2 C13 1_555 1_555
C5 C6 1_555 1_555
C10 C13 1_555 1_555
C11 C12 1_555 1_555
C14 O8 1_555 1_555
C19 C20 1_555 1_555
C24 C25 1_555 1_555
C25 C26 1_555 1_555
C29 C30 1_555 1_555
C31 C32 1_555 1_555
Co1F O1F 1_555 1_555
O2F C13F 1_555 1_555
C5F C6F 1_555 1_555
C10F C13F 1_555 1_555
C11F C12F 1_555 1_555
C17A C18A 1_555 1_555
C19A C20A 1_555 1_555
C24F C25F 1_555 1_555
C25F C26F 1_555 1_555
C29F C30F 1_555 1_555
C31F C32F 1_555 1_555

#END
