
#######################################################################
#
#                 Cambridge Crystallographic Data Centre
#                                CCDC 
#
#######################################################################
#
# If this CIF has been generated from an entry in the Cambridge 
# Structural Database, then it will include bibliographic, chemical, 
# crystal, experimental, refinement or atomic coordinate data resulting 
# from the CCDC's data processing and validation procedures.
#
#######################################################################

data_GAXGOD
_chemical_formula_moiety         '(C66 H42 Mn3 N4 O16)n'
_symmetry_cell_setting           monoclinic
_symmetry_space_group_name_H-M   'C 2/c'
_symmetry_Int_Tables_number      15
_space_group_name_Hall           '-C 2yc'
loop_
_symmetry_equiv_pos_site_id
_symmetry_equiv_pos_as_xyz
1 x,y,z
2 -x,y,1/2-z
3 1/2+x,1/2+y,z
4 1/2-x,1/2+y,1/2-z
5 -x,-y,-z
6 x,-y,1/2+z
7 1/2-x,1/2-y,-z
8 1/2+x,1/2-y,1/2+z
_cell_length_a                   15.2012(11)
_cell_length_b                   16.7136(12)
_cell_length_c                   25.8544(19)
_cell_angle_alpha                90
_cell_angle_beta                 90.2600(10)
_cell_angle_gamma                90
_cell_volume                     6568.68
loop_
_atom_site_label
_atom_site_type_symbol
_atom_site_fract_x
_atom_site_fract_y
_atom_site_fract_z
Mn1 Mn 0.02528(2) 0.67864(2) 1.001010(12)
Mn2 Mn 0.2500 0.2500 0.5000
O1 O 0.07571(12) 0.59956(11) 0.94609(7)
O2 O 0.14265(10) 0.27910(10) 0.55639(6)
O3 O 0.06289(12) 0.38630(10) 0.57107(6)
O4 O 0.45812(11) 0.27650(12) 0.54704(7)
O5 O 0.20972(11) 0.65298(10) 0.94707(6)
O6 O 0.32664(11) 0.33436(10) 0.54481(6)
O7 O 0.26145(13) 0.36923(12) 0.78652(6)
O8 O 0.5000 0.47645(14) 0.7500
N1 N -0.11001(12) 0.62134(12) 0.99730(7)
N2 N -0.06479(14) 0.75448(12) 1.04984(8)
C1 C 0.15428(15) 0.60364(13) 0.93145(8)
C2 C 0.18136(14) 0.54295(13) 0.89157(8)
C3 C 0.26238(16) 0.54797(16) 0.86800(9)
H1 H 0.3003 0.5897 0.8764
C4 C 0.28787(17) 0.49094(17) 0.83161(10)
H2 H 0.3421 0.4949 0.8154
C5 C 0.23218(17) 0.42918(16) 0.82012(8)
C6 C 0.15147(17) 0.42237(16) 0.84333(9)
H3 H 0.1146 0.3798 0.8353
C7 C 0.12545(15) 0.47985(15) 0.87906(9)
H4 H 0.0706 0.4761 0.8946
C8 C 0.22376(16) 0.36390(15) 0.73774(8)
C9 C 0.16781(18) 0.42101(17) 0.71766(9)
H5 H 0.1522 0.4654 0.7372
C10 C 0.13517(17) 0.41146(16) 0.66798(9)
H6 H 0.0972 0.4496 0.6543
C11 C 0.15847(14) 0.34563(14) 0.63842(8)
C12 C 0.21545(15) 0.28933(14) 0.65895(8)
H7 H 0.2320 0.2453 0.6392
C13 C 0.24801(16) 0.29824(15) 0.70883(9)
H8 H 0.2860 0.2601 0.7227
C14 C 0.12026(14) 0.33710(14) 0.58559(8)
C15 C 0.39945(15) 0.32080(13) 0.56495(8)
C16 C 0.42226(13) 0.36134(13) 0.61547(7)
C17 C 0.49172(14) 0.33111(15) 0.64449(9)
H9 H 0.5216 0.2860 0.6329
C18 C 0.51721(16) 0.36677(16) 0.69024(9)
H10 H 0.5638 0.3461 0.7095
C19 C 0.47242(16) 0.43355(14) 0.70693(8)
C20 C 0.40051(16) 0.46287(14) 0.67993(8)
H11 H 0.3689 0.5063 0.6925
C21 C 0.37652(15) 0.42634(14) 0.63381(8)
H12 H 0.3289 0.4461 0.6150
C22 C -0.13100(17) 0.55427(15) 0.97308(10)
H13 H -0.0882 0.5292 0.9533
C23 C -0.21417(18) 0.51924(18) 0.97580(11)
H14 H -0.2264 0.4721 0.9581
C24 C -0.27726(18) 0.5556(2) 1.00507(12)
H15 H -0.3329 0.5329 1.0075
C25 C -0.25851(16) 0.62705(18) 1.03150(10)
C26 C -0.17224(15) 0.65737(15) 1.02678(9)
C27 C -0.14817(16) 0.72783(15) 1.05452(9)
C28 C -0.2104(2) 0.76716(19) 1.08630(12)
C29 C -0.32041(19) 0.6694(2) 1.06260(13)
H16 H -0.3779 0.6507 1.0647
C30 C -0.2978(2) 0.7352(2) 1.08881(14)
H17 H -0.3395 0.7608 1.1091
C31 C -0.1825(3) 0.8344(2) 1.11214(15)
H18 H -0.2214 0.8618 1.1335
C32 C -0.0988(3) 0.8612(2) 1.10678(17)
H19 H -0.0802 0.9070 1.1241
C33 C -0.0406(2) 0.81933(18) 1.07486(13)
H20 H 0.0167 0.8379 1.0713
Mn1F Mn 0.47472(2) -0.17864(2) -0.001010(12)
Mn1E Mn 0.02528(2) 0.32136(2) 0.501010(12)
Mn1C Mn 0.47472(2) 0.17864(2) 0.498990(12)
Mn1B Mn 0.52528(2) 0.17864(2) 1.001010(12)
Mn2C Mn 0.2500 0.7500 1.0000
Mn2A Mn 0.7500 0.2500 1.0000
Mn2C_2 Mn 0.2500 -0.2500 0.0000
O1F O 0.42429(12) -0.09956(11) 0.05391(7)
O2F O 0.35735(10) 0.22090(10) 0.44361(6)
O2E O 0.14265(10) 0.72090(10) 1.05639(6)
O2C O 0.35735(10) -0.22090(10) -0.05639(6)
O3F O 0.43711(12) 0.11370(10) 0.42893(6)
O3E O 0.06289(12) 0.61370(10) 1.07107(6)
O3C O 0.43711(12) -0.11370(10) -0.07107(6)
O4A O 0.54188(11) 0.27650(12) 0.95296(7)
O4C O 0.04188(11) 0.77650(12) 0.95296(7)
O4E O 0.45812(11) -0.27650(12) 0.04704(7)
O5F O 0.29028(11) -0.15298(10) 0.05293(6)
O5C O 0.29028(11) 0.15298(10) 0.55293(6)
O5E O 0.20972(11) 0.34702(10) 0.44707(6)
O6A O 0.67336(11) 0.33436(10) 0.95519(6)
O6F O 0.17336(11) 0.16564(10) 0.45519(6)
O7F O 0.23855(13) 0.13077(12) 0.21348(6)
N1F N 0.61001(12) -0.12134(12) 0.00270(7)
N2F N 0.56479(14) -0.25448(12) -0.04984(8)
C1F C 0.34572(15) -0.10364(13) 0.06855(8)
C2F C 0.31864(14) -0.04295(13) 0.10843(8)
C3F C 0.23762(16) -0.04797(16) 0.13200(9)
H1F H 0.1997 -0.0897 0.1236
C4F C 0.21213(17) 0.00906(17) 0.16839(10)
H2F H 0.1579 0.0051 0.1846
C5F C 0.26782(17) 0.07082(16) 0.17988(8)
C6F C 0.34853(17) 0.07763(16) 0.15667(9)
H3F H 0.3854 0.1202 0.1647
C7F C 0.37455(15) 0.02015(15) 0.12094(9)
H4F H 0.4294 0.0239 0.1054
C8F C 0.27624(16) 0.13610(15) 0.26226(8)
C9F C 0.33219(18) 0.07899(17) 0.28234(9)
H5F H 0.3478 0.0346 0.2628
C10F C 0.36483(17) 0.08854(16) 0.33202(9)
H6F H 0.4028 0.0504 0.3457
C11F C 0.34153(14) 0.15437(14) 0.36158(8)
C12F C 0.28455(15) 0.21067(14) 0.34105(8)
H7F H 0.2680 0.2547 0.3608
C13F C 0.25199(16) 0.20176(15) 0.29117(9)
H8F H 0.2140 0.2399 0.2773
C14F C 0.37974(14) 0.16290(14) 0.41441(8)
C15A C 0.60055(15) 0.32080(13) 0.93505(8)
C16A C 0.57774(13) 0.36134(13) 0.88453(7)
C17A C 0.50828(14) 0.33111(15) 0.85551(9)
H9A H 0.4784 0.2860 0.8671
C18A C 0.48279(16) 0.36677(16) 0.80976(9)
H10A H 0.4362 0.3461 0.7905
C19A C 0.52758(16) 0.43355(14) 0.79307(8)
C20A C 0.59949(16) 0.46287(14) 0.82007(8)
H11A H 0.6311 0.5063 0.8075
C21A C 0.62348(15) 0.42634(14) 0.86619(8)
H12A H 0.6711 0.4461 0.8850
C22F C 0.63100(17) -0.05427(15) 0.02692(10)
H13F H 0.5882 -0.0292 0.0467
C23F C 0.71417(18) -0.01924(18) 0.02420(11)
H14F H 0.7264 0.0279 0.0419
C24F C 0.77726(18) -0.0556(2) -0.00507(12)
H15F H 0.8329 -0.0329 -0.0075
C25F C 0.75851(16) -0.12705(18) -0.03150(10)
C26F C 0.67224(15) -0.15737(15) -0.02678(9)
C27F C 0.64817(16) -0.22783(15) -0.05452(9)
C28F C 0.7104(2) -0.26716(19) -0.08630(12)
C29F C 0.82041(19) -0.1694(2) -0.06260(13)
H16F H 0.8779 -0.1507 -0.0647
C30F C 0.7978(2) -0.2352(2) -0.08881(14)
H17F H 0.8395 -0.2608 -0.1091
C31F C 0.6825(3) -0.3344(2) -0.11214(15)
H18F H 0.7214 -0.3618 -0.1335
C32F C 0.5988(3) -0.3612(2) -0.10678(17)
H19F H 0.5802 -0.4070 -0.1241
C33F C 0.5406(2) -0.31933(18) -0.07486(13)
H20F H 0.4833 -0.3379 -0.0713
O9 O 0.9497(5) 0.3819(4) 0.3550(3)
loop_
_geom_bond_atom_site_label_1
_geom_bond_atom_site_label_2
_geom_bond_site_symmetry_1
_geom_bond_site_symmetry_2
Mn1 O1 1_555 1_555
Mn2 O2 1_555 1_555
O1 C1 1_555 1_555
O2 C14 1_555 1_555
O3 C14 1_555 1_555
O4 C15 1_555 1_555
O5 C1 1_555 1_555
O6 Mn2 1_555 1_555
O7 C5 1_555 1_555
O8 C19 1_555 1_555
N1 Mn1 1_555 1_555
N2 Mn1 1_555 1_555
C1 C2 1_555 1_555
C2 C3 1_555 1_555
C3 H1 1_555 1_555
C4 C3 1_555 1_555
H2 C4 1_555 1_555
C5 C4 1_555 1_555
C6 C5 1_555 1_555
H3 C6 1_555 1_555
C7 C2 1_555 1_555
H4 C7 1_555 1_555
C8 O7 1_555 1_555
C9 C8 1_555 1_555
H5 C9 1_555 1_555
C10 C9 1_555 1_555
H6 C10 1_555 1_555
C11 C10 1_555 1_555
C12 C11 1_555 1_555
H7 C12 1_555 1_555
C13 C8 1_555 1_555
H8 C13 1_555 1_555
C14 C11 1_555 1_555
C15 O6 1_555 1_555
C16 C15 1_555 1_555
C17 C16 1_555 1_555
H9 C17 1_555 1_555
C18 C17 1_555 1_555
H10 C18 1_555 1_555
C19 C18 1_555 1_555
C20 C19 1_555 1_555
H11 C20 1_555 1_555
C21 C16 1_555 1_555
H12 C21 1_555 1_555
C22 N1 1_555 1_555
H13 C22 1_555 1_555
C23 C22 1_555 1_555
H14 C23 1_555 1_555
C24 C23 1_555 1_555
H15 C24 1_555 1_555
C25 C24 1_555 1_555
C26 N1 1_555 1_555
C27 N2 1_555 1_555
C28 C27 1_555 1_555
C29 C25 1_555 1_555
H16 C29 1_555 1_555
C30 C28 1_555 1_555
H17 C30 1_555 1_555
C31 C28 1_555 1_555
H18 C31 1_555 1_555
C32 C31 1_555 1_555
H19 C32 1_555 1_555
C33 N2 1_555 1_555
H20 C33 1_555 1_555
Mn1F O1F 1_555 1_555
Mn1E O2 1_555 1_555
Mn1C O4 1_555 1_555
Mn1B O4A 1_555 1_555
Mn2C O5 1_555 1_555
Mn2A O6A 1_555 1_555
Mn2C_2 O2C 1_555 1_555
O1F C1F 1_555 1_555
O2F Mn2 1_555 1_555
O2E Mn1 1_555 1_555
O2C Mn1F 1_555 1_555
O3F Mn1C 1_555 1_555
O3E Mn1 1_555 1_555
O3C Mn1F 1_555 1_555
O4A C15A 1_555 1_555
O4C Mn1 1_555 1_555
O4E Mn1F 1_555 1_555
O5F Mn2C_2 1_555 1_555
O5C Mn2 1_555 1_555
O5E Mn2 1_555 1_555
O6A C15A 1_555 1_555
O6F Mn2 1_555 1_555
O7F C5F 1_555 1_555
N1F Mn1F 1_555 1_555
N2F Mn1F 1_555 1_555
C1F O5F 1_555 1_555
C2F C1F 1_555 1_555
C3F C2F 1_555 1_555
H1F C3F 1_555 1_555
C4F C3F 1_555 1_555
H2F C4F 1_555 1_555
C5F C4F 1_555 1_555
C6F C5F 1_555 1_555
H3F C6F 1_555 1_555
C7F C2F 1_555 1_555
H4F C7F 1_555 1_555
C8F O7F 1_555 1_555
C9F C8F 1_555 1_555
H5F C9F 1_555 1_555
C10F C9F 1_555 1_555
H6F C10F 1_555 1_555
C11F C10F 1_555 1_555
C12F C11F 1_555 1_555
H7F C12F 1_555 1_555
C13F C8F 1_555 1_555
H8F C13F 1_555 1_555
C14F O2F 1_555 1_555
C15A C16A 1_555 1_555
C16A C17A 1_555 1_555
C17A H9A 1_555 1_555
C18A C17A 1_555 1_555
H10A C18A 1_555 1_555
C19A O8 1_555 1_555
C20A C19A 1_555 1_555
H11A C20A 1_555 1_555
C21A C16A 1_555 1_555
H12A C21A 1_555 1_555
C22F N1F 1_555 1_555
H13F C22F 1_555 1_555
C23F C22F 1_555 1_555
H14F C23F 1_555 1_555
C24F C23F 1_555 1_555
H15F C24F 1_555 1_555
C25F C24F 1_555 1_555
C26F N1F 1_555 1_555
C27F N2F 1_555 1_555
C28F C27F 1_555 1_555
C29F C25F 1_555 1_555
H16F C29F 1_555 1_555
C30F C28F 1_555 1_555
H17F C30F 1_555 1_555
C31F C28F 1_555 1_555
H18F C31F 1_555 1_555
C32F C31F 1_555 1_555
H19F C32F 1_555 1_555
C33F N2F 1_555 1_555
H20F C33F 1_555 1_555
O3 Mn1E 1_555 1_555
C6 C7 1_555 1_555
C12 C13 1_555 1_555
C20 C21 1_555 1_555
C25 C26 1_555 1_555
C26 C27 1_555 1_555
C29 C30 1_555 1_555
C32 C33 1_555 1_555
Mn1C O2F 1_555 1_555
Mn2C O2E 1_555 1_555
O3F C14F 1_555 1_555
C6F C7F 1_555 1_555
C11F C14F 1_555 1_555
C12F C13F 1_555 1_555
C18A C19A 1_555 1_555
C20A C21A 1_555 1_555
C25F C26F 1_555 1_555
C26F C27F 1_555 1_555
C29F C30F 1_555 1_555
C32F C33F 1_555 1_555

#END
