
#######################################################################
#
#                 Cambridge Crystallographic Data Centre
#                                CCDC 
#
#######################################################################
#
# If this CIF has been generated from an entry in the Cambridge 
# Structural Database, then it will include bibliographic, chemical, 
# crystal, experimental, refinement or atomic coordinate data resulting 
# from the CCDC's data processing and validation procedures.
#
#######################################################################

data_BIPSUQ
_chemical_formula_moiety         '(C80 H52 Cu7 N4 O30)n'
_symmetry_cell_setting           hexagonal
_symmetry_space_group_name_H-M   'P 63/m m c'
_symmetry_Int_Tables_number      194
_space_group_name_Hall           '-P 6c 2c'
loop_
_symmetry_equiv_pos_site_id
_symmetry_equiv_pos_as_xyz
1 x,y,z
2 -y,x-y,z
3 -x+y,-x,z
4 -x,-y,1/2+z
5 y,-x+y,1/2+z
6 x-y,x,1/2+z
7 y,x,-z
8 x-y,-y,-z
9 -x,-x+y,-z
10 -y,-x,1/2-z
11 -x+y,y,1/2-z
12 x,x-y,1/2-z
13 -x,-y,-z
14 y,-x+y,-z
15 x-y,x,-z
16 x,y,1/2-z
17 -y,x-y,1/2-z
18 -x+y,-x,1/2-z
19 -y,-x,z
20 -x+y,y,z
21 x,x-y,z
22 y,x,1/2+z
23 x-y,-y,1/2+z
24 -x,-x+y,1/2+z
_cell_length_a                   33.7831(10)
_cell_length_b                   33.7831(10)
_cell_length_c                   43.456(3)
_cell_angle_alpha                90
_cell_angle_beta                 90
_cell_angle_gamma                120
_cell_volume                     42951.6
loop_
_atom_site_label
_atom_site_type_symbol
_atom_site_fract_x
_atom_site_fract_y
_atom_site_fract_z
O1 O 0.45037(17) 0.46784(19) 0.53840(11)
O2 O 0.4865(2) 0.4308(2) 0.52048(11)
O3 O 0.4365(3) 0.2773(2) 0.55961(17)
O4 O 0.3870(3) 0.2498(3) 0.59758(18)
C1 C 0.2620(4) 0.3826(3) 0.6951(3)
C2 C 0.2246(4) 0.3840(3) 0.6850(3)
C3 C 0.37911(19) 0.3669(3) 0.60166(12)
C4 C 0.3817(2) 0.3271(2) 0.60067(13)
H1 H 0.3645 0.3032 0.6145
C5 C 0.4098(2) 0.3228(2) 0.57922(16)
C6 C 0.43533(19) 0.3582(3) 0.55877(13)
H2 H 0.4543 0.3552 0.5443
C7 C 0.43271(19) 0.3979(2) 0.55976(13)
C8 C 0.4046(2) 0.4023(2) 0.58121(16)
H3 H 0.4028 0.4291 0.5819
C9 C 0.2114(2) 0.3833(3) 0.65244(19)
H4 H 0.2278 0.3830 0.6350
C10 C 0.3156(3) 0.3828(3) 0.73437(16)
H5 H 0.3375 0.3827 0.7212
C11 C 0.2743(4) 0.3830(3) 0.7259(3)
C12 C 0.4589(3) 0.4355(3) 0.5369(2)
C13 C 0.4109(5) 0.2825(5) 0.5782(3)
C14 C 0.2926(3) 0.3788(4) 0.66932(13)
C15 C 0.3342(4) 0.4164(2) 0.66129(19)
H6 H 0.3438 0.4449 0.6707
C16 C 0.3618(2) 0.4120(2) 0.6394(2)
H7 H 0.3899 0.4375 0.6339
C17 C 0.3476(2) 0.3700(3) 0.62547(13)
C18 C 0.3059(3) 0.3323(2) 0.63351(16)
H8 H 0.2963 0.3039 0.6241
C19 C 0.27839(19) 0.3367(3) 0.65543(17)
H9 H 0.2502 0.3112 0.6609
Cu1 Cu 0.47876(2) 0.52124(2) 0.51088(3)
O5 O 0.44458(10) 0.55542(10) 0.53122(14)
Cu2 Cu 0.38211(13) 0.19106(7) 0.59988(8)
Cu3 Cu 0.44310(10) 0.22155(5) 0.55586(6)
O6 O 0.4374(6) 0.2187(3) 0.6264(3)
O7 O 0.3905(5) 0.1953(2) 0.5273(3)
O8 O 0.4955(4) 0.24773(18) 0.5160(2)
C20 C 0.3509(7) 0.1754(3) 0.5366(5)
H10 H 0.3271 0.1636 0.5220
C21 C 0.4789(7) 0.2395(4) 0.6184(4)
H11 H 0.5023 0.2511 0.6333
O9 O 0.3373(5) 0.1686(2) 0.6385(3)
O10 O 0.3410(5) 0.1705(2) 0.5640(4)
O11 O 0.4879(4) 0.2440(2) 0.5911(3)
N1 N 0.19232(18) 0.3846(4) 0.7040(2)
N2 N 0.2508(4) 0.3853(3) 0.7500
Cu4 Cu 0.19193(4) 0.38385(8) 0.7500
O1O O 0.45037(17) 0.46784(19) 0.96160(11)
O2O O 0.4865(2) 0.4308(2) 0.97952(11)
O3O O 0.4365(3) 0.2773(2) 0.94039(17)
O4O O 0.3870(3) 0.2498(3) 0.90242(18)
C1O C 0.2620(4) 0.3826(3) 0.8049(3)
C2O C 0.2246(4) 0.3840(3) 0.8150(3)
C3O C 0.37911(19) 0.3669(3) 0.89834(12)
C4O C 0.3817(2) 0.3271(2) 0.89933(13)
H1O H 0.3645 0.3032 0.8855
C5O C 0.4098(2) 0.3228(2) 0.92078(16)
C6O C 0.43533(19) 0.3582(3) 0.94123(13)
H2O H 0.4543 0.3552 0.9557
C7O C 0.43271(19) 0.3979(2) 0.94024(13)
C8O C 0.4046(2) 0.4023(2) 0.91879(16)
H3O H 0.4028 0.4291 0.9181
C9O C 0.2114(2) 0.3833(3) 0.84756(19)
H4O H 0.2278 0.3830 0.8650
C10O C 0.3156(3) 0.3828(3) 0.76563(16)
H5O H 0.3375 0.3827 0.7788
C11O C 0.2743(4) 0.3830(3) 0.7741(3)
C12O C 0.4589(3) 0.4355(3) 0.9631(2)
C13O C 0.4109(5) 0.2825(5) 0.9218(3)
C14O C 0.2926(3) 0.3788(4) 0.83068(13)
C15O C 0.3342(4) 0.4164(2) 0.83871(19)
H6O H 0.3438 0.4449 0.8293
C16O C 0.3618(2) 0.4120(2) 0.8606(2)
H7O H 0.3899 0.4375 0.8661
C17O C 0.3476(2) 0.3700(3) 0.87453(13)
C18O C 0.3059(3) 0.3323(2) 0.86649(16)
H8O H 0.2963 0.3039 0.8759
C19O C 0.27839(19) 0.3367(3) 0.84457(17)
H9O H 0.2502 0.3112 0.8391
N1J N 0.19228(44) 0.3846(4) 0.7960(2)
O1S O 0.01747(25) 0.46784(19) 0.53840(11)
O2S O -0.0557(3) 0.4308(2) 0.52048(11)
O3S O -0.1592(4) 0.2773(2) 0.55961(17)
O4S O -0.1372(4) 0.2498(3) 0.59758(18)
C1S C 0.1206(5) 0.3826(3) 0.6951(3)
C2S C 0.1594(5) 0.3840(3) 0.6850(3)
C3S C -0.01221(36) 0.3669(3) 0.60166(12)
C4S C -0.0546(3) 0.3271(2) 0.60067(13)
H1S H -0.0613 0.3032 0.6145
C5S C -0.0870(3) 0.3228(2) 0.57922(16)
C6S C -0.07713(36) 0.3582(3) 0.55877(13)
H2S H -0.0991 0.3552 0.5443
C7S C -0.03481(28) 0.3979(2) 0.55976(13)
C8S C -0.0023(3) 0.4023(2) 0.58121(16)
H3S H 0.0263 0.4291 0.5819
C9S C 0.1719(4) 0.3833(3) 0.65244(19)
H4S H 0.1552 0.3830 0.6350
C10S C 0.0672(4) 0.3828(3) 0.73437(16)
H5S H 0.0452 0.3827 0.7212
C11S C 0.1087(5) 0.3830(3) 0.7259(3)
C12S C -0.0234(4) 0.4355(3) 0.5369(2)
C13S C -0.1284(7) 0.2825(5) 0.5782(3)
C14S C 0.0862(5) 0.3788(4) 0.66932(13)
C15S C 0.0822(4) 0.4164(2) 0.66129(19)
H6S H 0.1011 0.4449 0.6707
C16S C 0.0502(3) 0.4120(2) 0.6394(2)
H7S H 0.0476 0.4375 0.6339
C17S C 0.0224(4) 0.3700(3) 0.62547(13)
C18S C 0.0264(4) 0.3323(2) 0.63351(16)
H8S H 0.0076 0.3039 0.6241
C19S C 0.05831(36) 0.3367(3) 0.65543(17)
H9S H 0.0610 0.3112 0.6609
N2J N 0.1345(5) 0.3853(3) 0.7500
O1J O 0.01747(25) 0.46784(19) 0.96160(11)
O2J O -0.0557(3) 0.4308(2) 0.97952(11)
O3J O -0.1592(4) 0.2773(2) 0.94039(17)
O4J O -0.1372(4) 0.2498(3) 0.90242(18)
C1J C 0.1206(5) 0.3826(3) 0.8049(3)
C2J C 0.1594(5) 0.3840(3) 0.8150(3)
C3J C -0.01221(36) 0.3669(3) 0.89834(12)
C4J C -0.0546(3) 0.3271(2) 0.89933(13)
H1J H -0.0613 0.3032 0.8855
C5J C -0.0870(3) 0.3228(2) 0.92078(16)
C6J C -0.07713(36) 0.3582(3) 0.94123(13)
H2J H -0.0991 0.3552 0.9557
C7J C -0.03481(28) 0.3979(2) 0.94024(13)
C8J C -0.0023(3) 0.4023(2) 0.91879(16)
H3J H 0.0263 0.4291 0.9181
C9J C 0.1719(4) 0.3833(3) 0.84756(19)
H4J H 0.1552 0.3830 0.8650
C10J C 0.0672(4) 0.3828(3) 0.76563(16)
H5J H 0.0452 0.3827 0.7788
C11J C 0.1087(5) 0.3830(3) 0.7741(3)
C12J C -0.0234(4) 0.4355(3) 0.9631(2)
C13J C -0.1284(7) 0.2825(5) 0.9218(3)
C14J C 0.0862(5) 0.3788(4) 0.83068(13)
C15J C 0.0822(4) 0.4164(2) 0.83871(19)
H6J H 0.1011 0.4449 0.8293
C16J C 0.0502(3) 0.4120(2) 0.8606(2)
H7J H 0.0476 0.4375 0.8661
C17J C 0.0224(4) 0.3700(3) 0.87453(13)
C18J C 0.0264(4) 0.3323(2) 0.86649(16)
H8J H 0.0076 0.3039 0.8759
C19J C 0.05831(36) 0.3367(3) 0.84457(17)
H9J H 0.0610 0.3112 0.8391
Cu2A Cu -0.19106(7) 0.19105(15) 0.59988(8)
Cu3A Cu -0.22155(5) 0.22155(11) 0.55586(6)
O6A O -0.2187(3) 0.2187(7) 0.6264(3)
O7A O -0.1953(2) 0.1952(5) 0.5273(3)
O8A O -0.24773(18) 0.24777(44) 0.5160(2)
C20A C -0.1754(3) 0.1755(8) 0.5366(5)
H10A H -0.1636 0.1635 0.5220
C21A C -0.2395(4) 0.2394(8) 0.6184(4)
H11A H -0.2511 0.2512 0.6333
O9A O -0.1686(2) 0.1687(5) 0.6385(3)
O10A O -0.1705(2) 0.1705(5) 0.5640(4)
O11A O -0.2440(2) 0.2439(4) 0.5911(3)
Cu1F Cu 0.52124(2) 0.47876(2) 0.48912(3)
O5F O 0.55542(10) 0.44458(10) 0.46878(14)
O1F O 0.46784(19) 0.45037(17) 0.46160(11)
O1L O 0.54963(17) 0.53216(19) 0.46160(11)
O1R O 0.53216(19) 0.54963(17) 0.53840(11)
O2F O 0.4308(2) 0.4865(2) 0.47952(11)
O2L O 0.5135(2) 0.5692(2) 0.47952(11)
O2R O 0.5692(2) 0.5135(2) 0.52048(11)
O3A O -0.2773(2) 0.1592(4) 0.55961(17)
O3T O 0.4365(3) 0.1592(4) 0.55961(17)
O4A O -0.2498(3) 0.1372(4) 0.59758(18)
O4T O 0.3870(3) 0.1372(4) 0.59758(18)
Cu1B Cu 0.04248(3) 0.52124(2) 0.51088(3)
Cu1C Cu 0.52124(2) 0.47876(2) 1.01088(3)
Cu1E Cu -0.04248(3) 0.47876(2) 1.01088(3)
Cu1G Cu -0.04248(3) 0.47876(2) 0.48912(3)
Cu1I Cu 0.47876(2) 0.52124(2) 0.98912(3)
Cu1J Cu 0.04248(3) 0.52124(2) 0.98912(3)
Cu2J Cu -0.19105(15) 0.19106(7) 0.90012(8)
Cu2K Cu 0.38211(13) 0.19105(15) 0.90012(8)
Cu3J Cu -0.22155(11) 0.22155(5) 0.94414(6)
Cu3K Cu 0.44310(10) 0.22155(11) 0.94414(6)
loop_
_geom_bond_atom_site_label_1
_geom_bond_atom_site_label_2
_geom_bond_site_symmetry_1
_geom_bond_site_symmetry_2
O1 C12 1_555 1_555
O2 C12 1_555 1_555
O3 C13 1_555 1_555
O4 C13 1_555 1_555
C1 C2 1_555 1_555
C2 C9 1_555 1_555
C3 C4 1_555 1_555
C4 H1 1_555 1_555
C5 C4 1_555 1_555
C6 C5 1_555 1_555
H2 C6 1_555 1_555
C7 C6 1_555 1_555
C8 C3 1_555 1_555
H3 C8 1_555 1_555
C9 H4 1_555 1_555
C10 H5 1_555 1_555
C11 C1 1_555 1_555
C12 C7 1_555 1_555
C13 C5 1_555 1_555
C14 C1 1_555 1_555
C15 C14 1_555 1_555
H6 C15 1_555 1_555
C16 C15 1_555 1_555
H7 C16 1_555 1_555
C17 C3 1_555 1_555
C18 C17 1_555 1_555
H8 C18 1_555 1_555
C19 C14 1_555 1_555
H9 C19 1_555 1_555
Cu1 O1 1_555 1_555
O5 Cu1 1_555 1_555
Cu2 O4 1_555 1_555
Cu3 O3 1_555 1_555
O6 Cu2 1_555 1_555
O7 Cu3 1_555 1_555
O8 Cu3 1_555 1_555
C20 O7 1_555 1_555
H10 C20 1_555 1_555
C21 O6 1_555 1_555
H11 C21 1_555 1_555
O9 Cu2 1_555 1_555
O10 Cu2 1_555 1_555
O11 Cu3 1_555 1_555
N1 C2 1_555 1_555
N2 C11 1_555 1_555
Cu4 N1 1_555 1_555
O1O C12O 1_555 1_555
O2O C12O 1_555 1_555
O3O C13O 1_555 1_555
O4O C13O 1_555 1_555
C1O C2O 1_555 1_555
C2O C9O 1_555 1_555
C3O C4O 1_555 1_555
C4O H1O 1_555 1_555
C5O C4O 1_555 1_555
C6O C5O 1_555 1_555
H2O C6O 1_555 1_555
C7O C6O 1_555 1_555
C8O C3O 1_555 1_555
H3O C8O 1_555 1_555
C9O H4O 1_555 1_555
C10O C10 1_555 1_555
H5O C10O 1_555 1_555
C11O N2 1_555 1_555
C12O C7O 1_555 1_555
C13O C5O 1_555 1_555
C14O C1O 1_555 1_555
C15O C14O 1_555 1_555
H6O C15O 1_555 1_555
C16O C15O 1_555 1_555
H7O C16O 1_555 1_555
C17O C3O 1_555 1_555
C18O C17O 1_555 1_555
H8O C18O 1_555 1_555
C19O C14O 1_555 1_555
H9O C19O 1_555 1_555
N1J Cu4 1_555 1_555
O1S C12S 1_555 1_555
O2S C12S 1_555 1_555
O3S C13S 1_555 1_555
O4S C13S 1_555 1_555
C1S C2S 1_555 1_555
C2S N1 1_555 1_555
C3S C4S 1_555 1_555
C4S H1S 1_555 1_555
C5S C4S 1_555 1_555
C6S C5S 1_555 1_555
H2S C6S 1_555 1_555
C7S C6S 1_555 1_555
C8S C3S 1_555 1_555
H3S C8S 1_555 1_555
C9S C9 1_555 1_555
H4S C9S 1_555 1_555
C10S H5S 1_555 1_555
C11S C1S 1_555 1_555
C12S C7S 1_555 1_555
C13S C5S 1_555 1_555
C14S C1S 1_555 1_555
C15S C14S 1_555 1_555
H6S C15S 1_555 1_555
C16S C15S 1_555 1_555
H7S C16S 1_555 1_555
C17S C3S 1_555 1_555
C18S C17S 1_555 1_555
H8S C18S 1_555 1_555
C19S C14S 1_555 1_555
H9S C19S 1_555 1_555
N2J Cu4 1_555 1_555
O1J C12J 1_555 1_555
O2J C12J 1_555 1_555
O3J C13J 1_555 1_555
O4J C13J 1_555 1_555
C1J C2J 1_555 1_555
C2J N1J 1_555 1_555
C3J C4J 1_555 1_555
C4J H1J 1_555 1_555
C5J C4J 1_555 1_555
C6J C5J 1_555 1_555
H2J C6J 1_555 1_555
C7J C6J 1_555 1_555
C8J C3J 1_555 1_555
H3J C8J 1_555 1_555
C9J C9O 1_555 1_555
H4J C9J 1_555 1_555
C10J C10S 1_555 1_555
H5J C10J 1_555 1_555
C11J N2J 1_555 1_555
C12J C7J 1_555 1_555
C13J C5J 1_555 1_555
C14J C1J 1_555 1_555
C15J C14J 1_555 1_555
H6J C15J 1_555 1_555
C16J C15J 1_555 1_555
H7J C16J 1_555 1_555
C17J C3J 1_555 1_555
C18J C17J 1_555 1_555
H8J C18J 1_555 1_555
C19J C14J 1_555 1_555
H9J C19J 1_555 1_555
Cu2A O4S 1_555 1_555
Cu3A O3S 1_555 1_555
O6A Cu2A 1_555 1_555
O7A Cu3A 1_555 1_555
O8A Cu3A 1_555 1_555
C20A O7A 1_555 1_555
H10A C20A 1_555 1_555
C21A O6A 1_555 1_555
H11A C21A 1_555 1_555
O9A Cu2A 1_555 1_555
O10A Cu2A 1_555 1_555
O11A Cu3A 1_555 1_555
Cu1F O2 1_555 1_555
O5F Cu1F 1_555 1_555
O1F Cu1F 1_555 1_555
O1L Cu1F 1_555 1_555
O1R Cu1 1_555 1_555
O2F Cu1 1_555 1_555
O2L Cu1 1_555 1_555
O2R Cu1F 1_555 1_555
O3A Cu3A 1_555 1_555
O3T Cu3 1_555 1_555
O4A Cu2A 1_555 1_555
O4T Cu2 1_555 1_555
Cu1B O1S 1_555 1_555
Cu1C O2O 1_555 1_555
Cu1E O2J 1_555 1_555
Cu1G O2S 1_555 1_555
Cu1I O1O 1_555 1_555
Cu1J O1J 1_555 1_555
Cu2J O4J 1_555 1_555
Cu2K O4O 1_555 1_555
Cu3J O3J 1_555 1_555
Cu3K O3O 1_555 1_555
C7 C8 1_555 1_555
C10 C11 1_555 1_555
C16 C17 1_555 1_555
C18 C19 1_555 1_555
C20 O10 1_555 1_555
C21 O11 1_555 1_555
N2 Cu4 1_555 1_555
C1O C11O 1_555 1_555
C2O N1J 1_555 1_555
C7O C8O 1_555 1_555
C10O C11O 1_555 1_555
C16O C17O 1_555 1_555
C18O C19O 1_555 1_555
C2S C9S 1_555 1_555
C7S C8S 1_555 1_555
C10S C11S 1_555 1_555
C11S N2J 1_555 1_555
C16S C17S 1_555 1_555
C18S C19S 1_555 1_555
C1J C11J 1_555 1_555
C2J C9J 1_555 1_555
C7J C8J 1_555 1_555
C10J C11J 1_555 1_555
C16J C17J 1_555 1_555
C18J C19J 1_555 1_555
C20A O10A 1_555 1_555
C21A O11A 1_555 1_555

#END
