
#######################################################################
#
#                 Cambridge Crystallographic Data Centre
#                                CCDC 
#
#######################################################################
#
# If this CIF has been generated from an entry in the Cambridge 
# Structural Database, then it will include bibliographic, chemical, 
# crystal, experimental, refinement or atomic coordinate data resulting 
# from the CCDC's data processing and validation procedures.
#
#######################################################################

data_OYIXIE
_chemical_formula_moiety         'C36 O20 S24 Zn10'
_symmetry_cell_setting           cubic
_symmetry_space_group_name_H-M   'F m -3 m'
_symmetry_Int_Tables_number      225
_space_group_name_Hall           '-F 4 2 3'
loop_
_symmetry_equiv_pos_site_id
_symmetry_equiv_pos_as_xyz
1 x,y,z
2 -x,-y,z
3 -x,y,-z
4 x,-y,-z
5 z,x,y
6 z,-x,-y
7 -z,-x,y
8 -z,x,-y
9 y,z,x
10 -y,z,-x
11 y,-z,-x
12 -y,-z,x
13 y,x,-z
14 -y,-x,-z
15 y,-x,z
16 -y,x,z
17 x,z,-y
18 -x,z,y
19 -x,-z,-y
20 x,-z,y
21 z,y,-x
22 z,-y,x
23 -z,y,x
24 -z,-y,-x
25 x,1/2+y,1/2+z
26 -x,1/2-y,1/2+z
27 -x,1/2+y,1/2-z
28 x,1/2-y,1/2-z
29 z,1/2+x,1/2+y
30 z,1/2-x,1/2-y
31 -z,1/2-x,1/2+y
32 -z,1/2+x,1/2-y
33 y,1/2+z,1/2+x
34 -y,1/2+z,1/2-x
35 y,1/2-z,1/2-x
36 -y,1/2-z,1/2+x
37 y,1/2+x,1/2-z
38 -y,1/2-x,1/2-z
39 y,1/2-x,1/2+z
40 -y,1/2+x,1/2+z
41 x,1/2+z,1/2-y
42 -x,1/2+z,1/2+y
43 -x,1/2-z,1/2-y
44 x,1/2-z,1/2+y
45 z,1/2+y,1/2-x
46 z,1/2-y,1/2+x
47 -z,1/2+y,1/2+x
48 -z,1/2-y,1/2-x
49 1/2+x,y,1/2+z
50 1/2-x,-y,1/2+z
51 1/2-x,y,1/2-z
52 1/2+x,-y,1/2-z
53 1/2+z,x,1/2+y
54 1/2+z,-x,1/2-y
55 1/2-z,-x,1/2+y
56 1/2-z,x,1/2-y
57 1/2+y,z,1/2+x
58 1/2-y,z,1/2-x
59 1/2+y,-z,1/2-x
60 1/2-y,-z,1/2+x
61 1/2+y,x,1/2-z
62 1/2-y,-x,1/2-z
63 1/2+y,-x,1/2+z
64 1/2-y,x,1/2+z
65 1/2+x,z,1/2-y
66 1/2-x,z,1/2+y
67 1/2-x,-z,1/2-y
68 1/2+x,-z,1/2+y
69 1/2+z,y,1/2-x
70 1/2+z,-y,1/2+x
71 1/2-z,y,1/2+x
72 1/2-z,-y,1/2-x
73 1/2+x,1/2+y,z
74 1/2-x,1/2-y,z
75 1/2-x,1/2+y,-z
76 1/2+x,1/2-y,-z
77 1/2+z,1/2+x,y
78 1/2+z,1/2-x,-y
79 1/2-z,1/2-x,y
80 1/2-z,1/2+x,-y
81 1/2+y,1/2+z,x
82 1/2-y,1/2+z,-x
83 1/2+y,1/2-z,-x
84 1/2-y,1/2-z,x
85 1/2+y,1/2+x,-z
86 1/2-y,1/2-x,-z
87 1/2+y,1/2-x,z
88 1/2-y,1/2+x,z
89 1/2+x,1/2+z,-y
90 1/2-x,1/2+z,y
91 1/2-x,1/2-z,-y
92 1/2+x,1/2-z,y
93 1/2+z,1/2+y,-x
94 1/2+z,1/2-y,x
95 1/2-z,1/2+y,x
96 1/2-z,1/2-y,-x
97 -x,-y,-z
98 x,y,-z
99 x,-y,z
100 -x,y,z
101 -z,-x,-y
102 -z,x,y
103 z,x,-y
104 z,-x,y
105 -y,-z,-x
106 y,-z,x
107 -y,z,x
108 y,z,-x
109 -y,-x,z
110 y,x,z
111 -y,x,-z
112 y,-x,-z
113 -x,-z,y
114 x,-z,-y
115 x,z,y
116 -x,z,-y
117 -z,-y,x
118 -z,y,-x
119 z,-y,-x
120 z,y,x
121 -x,1/2-y,1/2-z
122 x,1/2+y,1/2-z
123 x,1/2-y,1/2+z
124 -x,1/2+y,1/2+z
125 -z,1/2-x,1/2-y
126 -z,1/2+x,1/2+y
127 z,1/2+x,1/2-y
128 z,1/2-x,1/2+y
129 -y,1/2-z,1/2-x
130 y,1/2-z,1/2+x
131 -y,1/2+z,1/2+x
132 y,1/2+z,1/2-x
133 -y,1/2-x,1/2+z
134 y,1/2+x,1/2+z
135 -y,1/2+x,1/2-z
136 y,1/2-x,1/2-z
137 -x,1/2-z,1/2+y
138 x,1/2-z,1/2-y
139 x,1/2+z,1/2+y
140 -x,1/2+z,1/2-y
141 -z,1/2-y,1/2+x
142 -z,1/2+y,1/2-x
143 z,1/2-y,1/2-x
144 z,1/2+y,1/2+x
145 1/2-x,-y,1/2-z
146 1/2+x,y,1/2-z
147 1/2+x,-y,1/2+z
148 1/2-x,y,1/2+z
149 1/2-z,-x,1/2-y
150 1/2-z,x,1/2+y
151 1/2+z,x,1/2-y
152 1/2+z,-x,1/2+y
153 1/2-y,-z,1/2-x
154 1/2+y,-z,1/2+x
155 1/2-y,z,1/2+x
156 1/2+y,z,1/2-x
157 1/2-y,-x,1/2+z
158 1/2+y,x,1/2+z
159 1/2-y,x,1/2-z
160 1/2+y,-x,1/2-z
161 1/2-x,-z,1/2+y
162 1/2+x,-z,1/2-y
163 1/2+x,z,1/2+y
164 1/2-x,z,1/2-y
165 1/2-z,-y,1/2+x
166 1/2-z,y,1/2-x
167 1/2+z,-y,1/2-x
168 1/2+z,y,1/2+x
169 1/2-x,1/2-y,-z
170 1/2+x,1/2+y,-z
171 1/2+x,1/2-y,z
172 1/2-x,1/2+y,z
173 1/2-z,1/2-x,-y
174 1/2-z,1/2+x,y
175 1/2+z,1/2+x,-y
176 1/2+z,1/2-x,y
177 1/2-y,1/2-z,-x
178 1/2+y,1/2-z,x
179 1/2-y,1/2+z,x
180 1/2+y,1/2+z,-x
181 1/2-y,1/2-x,z
182 1/2+y,1/2+x,z
183 1/2-y,1/2+x,-z
184 1/2+y,1/2-x,-z
185 1/2-x,1/2-z,y
186 1/2+x,1/2-z,-y
187 1/2+x,1/2+z,y
188 1/2-x,1/2+z,-y
189 1/2-z,1/2-y,x
190 1/2-z,1/2+y,-x
191 1/2+z,1/2-y,-x
192 1/2+z,1/2+y,x
_cell_length_a                   25.559(6)
_cell_length_b                   25.559(6)
_cell_length_c                   25.559(6)
_cell_angle_alpha                90
_cell_angle_beta                 90
_cell_angle_gamma                90
_cell_volume                     16696.7
loop_
_atom_site_label
_atom_site_type_symbol
_atom_site_fract_x
_atom_site_fract_y
_atom_site_fract_z
_atom_site_U_iso_or_equiv
_atom_site_thermal_displace_type
Zn1 Zn 0.29360(3) 0.29360(3) 0.29360(3) 0.0959 Uani
O1 O 0.2500 0.2500 0.2500 0.0860 Uani
O2 O 0.2807(3) 0.3644(2) 0.2807(2) 0.1910 Uani
C1 C 0.2500(4) 0.4476 0.2500 0.1460 Uani
C2 C 0.2500(4) 0.3863 0.2500 0.1600 Uani
C3 C 0.2962(7) 0.4797(5) 0.2632(16) 0.1527 Uani
S1 S 0.3558(7) 0.4467(7) 0.2665(11) 0.2130 Uani
Zn1XA Zn 0.20640(3) 0.29360(3) 0.20640(3) 0.0959 Uani
Zn1N Zn 0.29360(3) 0.70640(3) 0.29360(3) 0.0959 Uani
Zn1IB Zn 0.20640(3) 0.70640(3) 0.20640(3) 0.0959 Uani
Zn1AA Zn 0.29360(3) 0.20640(3) 0.20640(3) 0.0959 Uani
Zn1UB Zn 0.20640(3) 0.20640(3) 0.29360(3) 0.0959 Uani
Zn1O Zn 0.70640(3) 0.29360(3) 0.29360(3) 0.0959 Uani
Zn1KA Zn 0.70640(3) 0.20640(3) 0.20640(3) 0.0959 Uani
Zn1L Zn 0.29360(3) 0.29360(3) 0.70640(3) 0.0959 Uani
Zn1GC Zn 0.20640(3) 0.20640(3) 0.70640(3) 0.0959 Uani
O1N O 0.2500 0.7500 0.2500 0.0860 Uani
O2XA O 0.2193(3) 0.3644(2) 0.2193(2) 0.1910 Uani
O2U O 0.2807(2) 0.6356(2) 0.2807(3) 0.1910 Uani
O2SB O 0.2193(2) 0.6356(2) 0.2193(3) 0.1910 Uani
O2H O 0.3644(2) 0.2807(2) 0.2807(3) 0.1910 Uani
O2HA O 0.3644(2) 0.2193(2) 0.2193(3) 0.1910 Uani
O2O O 0.6356(2) 0.2807(3) 0.2807(2) 0.1910 Uani
O2KA O 0.6356(2) 0.2193(3) 0.2193(2) 0.1910 Uani
O2D O 0.2807(2) 0.2807(3) 0.3644(2) 0.1910 Uani
O2ZB O 0.2193(2) 0.2193(3) 0.3644(2) 0.1910 Uani
O2P O 0.2807(3) 0.2807(2) 0.6356(2) 0.1910 Uani
O2LC O 0.2193(3) 0.2193(2) 0.6356(2) 0.1910 Uani
O2EB O 0.1356(2) 0.2807(2) 0.2193(3) 0.1910 Uani
O2CB O 0.2193(2) 0.2807(3) 0.1356(2) 0.1910 Uani
O2S O 0.2807(3) 0.7193(2) 0.3644(2) 0.1910 Uani
O2N O 0.3644(2) 0.7193(3) 0.2807(2) 0.1910 Uani
O2NB O 0.2193(3) 0.7193(2) 0.1356(2) 0.1910 Uani
O2IB O 0.1356(2) 0.7193(3) 0.2193(2) 0.1910 Uani
C1U C 0.2500 0.5524 0.2500(4) 0.1460 Uani
C1H C 0.4476 0.2500 0.2500(4) 0.1460 Uani
C1O C 0.5524 0.2500(4) 0.2500 0.1460 Uani
C1D C 0.2500 0.2500(4) 0.4476 0.1460 Uani
C1P C 0.2500(4) 0.2500 0.5524 0.1460 Uani
C2U C 0.2500 0.6137 0.2500(4) 0.1600 Uani
C2H C 0.3863 0.2500 0.2500(4) 0.1600 Uani
C2O C 0.6137 0.2500(4) 0.2500 0.1600 Uani
C2D C 0.2500 0.2500(4) 0.3863 0.1600 Uani
C2P C 0.2500(4) 0.2500 0.6137 0.1600 Uani
C3U C 0.2632(16) 0.5203(5) 0.2962(7) 0.1527 Uani
C3SB C 0.2368(16) 0.5203(5) 0.2038(7) 0.1527 Uani
C3XA C 0.2038(7) 0.4797(5) 0.2368(16) 0.1527 Uani
C3OD C 0.2632(16) 0.4797(5) 0.2962(7) 0.1527 Uani
C3TC C 0.2962(7) 0.5203(5) 0.2632(16) 0.1527 Uani
C3NE C 0.2038(7) 0.5203(5) 0.2368(16) 0.1527 Uani
C3IF C 0.2368(16) 0.4797(5) 0.2038(7) 0.1527 Uani
C3H C 0.4797(5) 0.2632(16) 0.2962(7) 0.1527 Uani
C3O C 0.5203(5) 0.2962(7) 0.2632(16) 0.1527 Uani
C3KA C 0.5203(5) 0.2038(7) 0.2368(16) 0.1527 Uani
C3HA C 0.4797(5) 0.2368(16) 0.2038(7) 0.1527 Uani
C3ED C 0.4797(5) 0.2962(7) 0.2632(16) 0.1527 Uani
C3BD C 0.5203(5) 0.2632(16) 0.2962(7) 0.1527 Uani
C3XD C 0.5203(5) 0.2368(16) 0.2038(7) 0.1527 Uani
C3EE C 0.4797(5) 0.2038(7) 0.2368(16) 0.1527 Uani
C3D C 0.2632(16) 0.2962(7) 0.4797(5) 0.1527 Uani
C3P C 0.2962(7) 0.2632(16) 0.5203(5) 0.1527 Uani
C3LC C 0.2038(7) 0.2368(16) 0.5203(5) 0.1527 Uani
C3ZB C 0.2368(16) 0.2038(7) 0.4797(5) 0.1527 Uani
C3JD C 0.2962(7) 0.2632(16) 0.4797(5) 0.1527 Uani
C3XC C 0.2632(16) 0.2962(7) 0.5203(5) 0.1527 Uani
C3PF C 0.2368(16) 0.2038(7) 0.5203(5) 0.1527 Uani
C3BG C 0.2038(7) 0.2368(16) 0.4797(5) 0.1527 Uani
S1IF S 0.2335(11) 0.4467(7) 0.1442(7) 0.2130 Uani
S1XA S 0.1442(7) 0.4467(7) 0.2335(11) 0.2130 Uani
S1NE S 0.1442(7) 0.5533(7) 0.2335(11) 0.2130 Uani
S1SB S 0.2335(11) 0.5533(7) 0.1442(7) 0.2130 Uani
S1TC S 0.3558(7) 0.5533(7) 0.2665(11) 0.2130 Uani
S1OD S 0.2665(11) 0.4467(7) 0.3558(7) 0.2130 Uani
S1U S 0.2665(11) 0.5533(7) 0.3558(7) 0.2130 Uani
S1H S 0.4467(7) 0.2665(11) 0.3558(7) 0.2130 Uani
S1EE S 0.4467(7) 0.1442(7) 0.2335(11) 0.2130 Uani
S1HA S 0.4467(7) 0.2335(11) 0.1442(7) 0.2130 Uani
S1XD S 0.5533(7) 0.2335(11) 0.1442(7) 0.2130 Uani
S1KA S 0.5533(7) 0.1442(7) 0.2335(11) 0.2130 Uani
S1BD S 0.5533(7) 0.2665(11) 0.3558(7) 0.2130 Uani
S1ED S 0.4467(7) 0.3558(7) 0.2665(11) 0.2130 Uani
S1O S 0.5533(7) 0.3558(7) 0.2665(11) 0.2130 Uani
S1D S 0.2665(11) 0.3558(7) 0.4467(7) 0.2130 Uani
S1BG S 0.1442(7) 0.2335(11) 0.4467(7) 0.2130 Uani
S1ZB S 0.2335(11) 0.1442(7) 0.4467(7) 0.2130 Uani
S1PF S 0.2335(11) 0.1442(7) 0.5533(7) 0.2130 Uani
S1LC S 0.1442(7) 0.2335(11) 0.5533(7) 0.2130 Uani
S1XC S 0.2665(11) 0.3558(7) 0.5533(7) 0.2130 Uani
S1JD S 0.3558(7) 0.2665(11) 0.4467(7) 0.2130 Uani
S1P S 0.3558(7) 0.2665(11) 0.5533(7) 0.2130 Uani
loop_
_atom_site_aniso_label
_atom_site_aniso_U_11
_atom_site_aniso_U_22
_atom_site_aniso_U_33
_atom_site_aniso_U_23
_atom_site_aniso_U_13
_atom_site_aniso_U_12
Zn1 0.0959 0.0959 0.0959 -0.0068 -0.0068 -0.0068
O1 0.086 0.086 0.086 0 0 0
O2 0.236 0.101 0.236 0.01 -0.09 0.01
C1 0.183 0.072 0.183 0 0.005 0
C2 0.205 0.07 0.205 0 0.011 0
C3 0.134 0.074 0.25 0.039 -0.013 0.001
S1 0.2 0.119 0.32 0.01 -0.069 -0.014
Zn1XA 0.0959 0.0959 0.0959 0.0068 -0.0068 0.0068
Zn1N 0.0959(6) 0.0959(6) 0.0959(6) 0.0068(4) -0.0068(4) 0.0068(4)
Zn1IB 0.0959 0.0959 0.0959 -0.0068 -0.0068 -0.0068
Zn1AA 0.0959 0.0959 0.0959 -0.0068 0.0068 0.0068
Zn1UB 0.0959 0.0959 0.0959 0.0068 0.0068 -0.0068
Zn1O 0.0959 0.0959 0.0959 -0.0068 0.0068 0.0068
Zn1KA 0.0959 0.0959 0.0959 -0.0068 -0.0068 -0.0068
Zn1L 0.0959 0.0959 0.0959 0.0068 0.0068 -0.0068
Zn1GC 0.0959 0.0959 0.0959 -0.0068 -0.0068 -0.0068
O1N 0.086(4) 0.086(4) 0.086(4) 0.000 0.000 0.000
O2XA 0.236 0.101 0.236 -0.01 -0.09 -0.01
O2U 0.236 0.101 0.236 -0.01 -0.09 -0.01
O2SB 0.236 0.101 0.236 0.01 -0.09 0.01
O2H 0.101 0.236 0.236 -0.09 0.01 0.01
O2HA 0.101 0.236 0.236 -0.09 -0.01 -0.01
O2O 0.101 0.236 0.236 -0.09 -0.01 -0.01
O2KA 0.101 0.236 0.236 -0.09 0.01 0.01
O2D 0.236 0.236 0.101 0.01 0.01 -0.09
O2ZB 0.236 0.236 0.101 -0.01 -0.01 -0.09
O2P 0.236 0.236 0.101 -0.01 -0.01 -0.09
O2LC 0.236 0.236 0.101 0.01 0.01 -0.09
O2EB 0.101 0.236 0.236 0.09 0.01 -0.01
O2CB 0.236 0.236 0.101 -0.01 0.01 0.09
O2S 0.236(5) 0.236(5) 0.101(5) -0.010(3) 0.010(3) 0.090(6)
O2N 0.101 0.236 0.236 0.09 0.01 -0.01
O2NB 0.236 0.236 0.101 0.01 0.01 -0.09
O2IB 0.101 0.236 0.236 -0.09 0.01 0.01
C1U 0.183 0.072 0.183 0 0.005 0
C1H 0.072 0.183 0.183 0.005 0 0
C1O 0.072 0.183 0.183 0.005 0 0
C1D 0.183 0.183 0.072 0 0 0.005
C1P 0.183 0.183 0.072 0 0 0.005
C2U 0.205 0.07 0.205 0 0.011 0
C2H 0.07 0.205 0.205 0.011 0 0
C2O 0.07 0.205 0.205 0.011 0 0
C2D 0.205 0.205 0.07 0 0 0.011
C2P 0.205 0.205 0.07 0 0 0.011
C3U 0.25 0.074 0.134 -0.001 -0.013 -0.039
C3SB 0.25 0.074 0.134 0.001 -0.013 0.039
C3XA 0.134 0.074 0.25 -0.039 -0.013 -0.001
C3OD 0.25 0.074 0.134 0.001 -0.013 0.039
C3TC 0.134 0.074 0.25 -0.039 -0.013 -0.001
C3NE 0.134 0.074 0.25 0.039 -0.013 0.001
C3IF 0.25 0.074 0.134 -0.001 -0.013 -0.039
C3H 0.074 0.25 0.134 -0.013 0.001 0.039
C3O 0.074 0.134 0.25 -0.013 -0.039 -0.001
C3KA 0.074 0.134 0.25 -0.013 0.039 0.001
C3HA 0.074 0.25 0.134 -0.013 -0.001 -0.039
C3ED 0.074 0.134 0.25 -0.013 0.039 0.001
C3BD 0.074 0.25 0.134 -0.013 -0.001 -0.039
C3XD 0.074 0.25 0.134 -0.013 0.001 0.039
C3EE 0.074 0.134 0.25 -0.013 -0.039 -0.001
C3D 0.25 0.134 0.074 0.001 0.039 -0.013
C3P 0.134 0.25 0.074 -0.039 -0.001 -0.013
C3LC 0.134 0.25 0.074 0.039 0.001 -0.013
C3ZB 0.25 0.134 0.074 -0.001 -0.039 -0.013
C3JD 0.134 0.25 0.074 0.039 0.001 -0.013
C3XC 0.25 0.134 0.074 -0.001 -0.039 -0.013
C3PF 0.25 0.134 0.074 0.001 0.039 -0.013
C3BG 0.134 0.25 0.074 -0.039 -0.001 -0.013
S1IF 0.32 0.119 0.2 0.014 -0.069 -0.01
S1XA 0.2 0.119 0.32 -0.01 -0.069 0.014
S1NE 0.2 0.119 0.32 0.01 -0.069 -0.014
S1SB 0.32 0.119 0.2 -0.014 -0.069 0.01
S1TC 0.2 0.119 0.32 -0.01 -0.069 0.014
S1OD 0.32 0.119 0.2 -0.014 -0.069 0.01
S1U 0.32 0.119 0.2 0.014 -0.069 -0.01
S1H 0.119 0.32 0.2 -0.069 -0.014 0.01
S1EE 0.119 0.2 0.32 -0.069 -0.01 0.014
S1HA 0.119 0.32 0.2 -0.069 0.014 -0.01
S1XD 0.119 0.32 0.2 -0.069 -0.014 0.01
S1KA 0.119 0.2 0.32 -0.069 0.01 -0.014
S1BD 0.119 0.32 0.2 -0.069 0.014 -0.01
S1ED 0.119 0.2 0.32 -0.069 0.01 -0.014
S1O 0.119 0.2 0.32 -0.069 -0.01 0.014
S1D 0.32 0.2 0.119 -0.014 0.01 -0.069
S1BG 0.2 0.32 0.119 -0.01 0.014 -0.069
S1ZB 0.32 0.2 0.119 0.014 -0.01 -0.069
S1PF 0.32 0.2 0.119 -0.014 0.01 -0.069
S1LC 0.2 0.32 0.119 0.01 -0.014 -0.069
S1XC 0.32 0.2 0.119 0.014 -0.01 -0.069
S1JD 0.2 0.32 0.119 0.01 -0.014 -0.069
S1P 0.2 0.32 0.119 -0.01 0.014 -0.069
loop_
_geom_bond_atom_site_label_1
_geom_bond_atom_site_label_2
_geom_bond_site_symmetry_1
_geom_bond_site_symmetry_2
Zn1 O1 1_555 1_555
O1 Zn1XA 1_555 1_555
O2 Zn1 1_555 1_555
C1 C2 1_555 1_555
C2 O2 1_555 1_555
C3 C1 1_555 1_555
S1 C3 1_555 1_555
Zn1XA O2XA 1_555 1_555
Zn1N O1N 1_555 1_555
Zn1IB O1N 1_555 1_555
Zn1AA O1 1_555 1_555
Zn1UB O1 1_555 1_555
Zn1O O2O 1_555 1_555
Zn1KA O2KA 1_555 1_555
Zn1L O2P 1_555 1_555
Zn1GC O2LC 1_555 1_555
O2XA C2 1_555 1_555
O2U Zn1N 1_555 1_555
O2SB Zn1IB 1_555 1_555
O2H Zn1 1_555 1_555
O2HA Zn1AA 1_555 1_555
O2O C2O 1_555 1_555
O2KA C2O 1_555 1_555
O2D Zn1 1_555 1_555
O2ZB Zn1UB 1_555 1_555
O2P C2P 1_555 1_555
O2LC C2P 1_555 1_555
O2EB Zn1XA 1_555 1_555
O2CB Zn1XA 1_555 1_555
O2S Zn1N 1_555 1_555
O2N Zn1N 1_555 1_555
O2NB Zn1IB 1_555 1_555
O2IB Zn1IB 1_555 1_555
C1U C2U 1_555 1_555
C1H C2H 1_555 1_555
C1O C2O 1_555 1_555
C1D C2D 1_555 1_555
C1P C2P 1_555 1_555
C2U O2U 1_555 1_555
C2H O2H 1_555 1_555
C2D O2D 1_555 1_555
C3U C3 1_555 1_555
C3SB C1U 1_555 1_555
C3XA C1 1_555 1_555
C3OD C1 1_555 1_555
C3TC C3 1_555 1_555
C3NE C1U 1_555 1_555
C3IF C1 1_555 1_555
C3H C1H 1_555 1_555
C3O C1O 1_555 1_555
C3KA C1O 1_555 1_555
C3HA C1H 1_555 1_555
C3ED C1H 1_555 1_555
C3BD C1O 1_555 1_555
C3XD C1O 1_555 1_555
C3EE C1H 1_555 1_555
C3D C1D 1_555 1_555
C3P C1P 1_555 1_555
C3LC C1P 1_555 1_555
C3ZB C1D 1_555 1_555
C3JD C1D 1_555 1_555
C3XC C1P 1_555 1_555
C3PF C1P 1_555 1_555
C3BG C1D 1_555 1_555
S1IF C3IF 1_555 1_555
S1XA C3XA 1_555 1_555
S1NE C3NE 1_555 1_555
S1SB C3SB 1_555 1_555
S1TC C3TC 1_555 1_555
S1OD C3OD 1_555 1_555
S1U C3U 1_555 1_555
S1H C3H 1_555 1_555
S1EE C3EE 1_555 1_555
S1HA C3HA 1_555 1_555
S1XD C3XD 1_555 1_555
S1KA C3KA 1_555 1_555
S1BD C3BD 1_555 1_555
S1ED C3ED 1_555 1_555
S1O C3O 1_555 1_555
S1D C3D 1_555 1_555
S1BG C3BG 1_555 1_555
S1ZB C3ZB 1_555 1_555
S1PF C3PF 1_555 1_555
S1LC C3LC 1_555 1_555
S1XC C3XC 1_555 1_555
S1JD C3JD 1_555 1_555
S1P C3P 1_555 1_555
C3 C3OD 1_555 1_555
O2SB C2U 1_555 1_555
O2HA C2H 1_555 1_555
O2ZB C2D 1_555 1_555
C1U C3U 1_555 1_555
C1U C3TC 1_555 1_555
C3U C3OD 1_555 1_555
C3U C3TC 1_555 1_555
C3SB C3XA 1_555 1_555
C3SB C3NE 1_555 1_555
C3SB C3IF 1_555 1_555
C3XA C3NE 1_555 1_555
C3XA C3IF 1_555 1_555
C3OD C3TC 1_555 1_555
C3NE C3IF 1_555 1_555
C3H C3O 1_555 1_555
C3H C3ED 1_555 1_555
C3H C3BD 1_555 1_555
C3O C3ED 1_555 1_555
C3O C3BD 1_555 1_555
C3KA C3HA 1_555 1_555
C3KA C3XD 1_555 1_555
C3KA C3EE 1_555 1_555
C3HA C3XD 1_555 1_555
C3HA C3EE 1_555 1_555
C3ED C3BD 1_555 1_555
C3XD C3EE 1_555 1_555
C3D C3P 1_555 1_555
C3D C3JD 1_555 1_555
C3D C3XC 1_555 1_555
C3P C3JD 1_555 1_555
C3P C3XC 1_555 1_555
C3LC C3ZB 1_555 1_555
C3LC C3PF 1_555 1_555
C3LC C3BG 1_555 1_555
C3ZB C3PF 1_555 1_555
C3ZB C3BG 1_555 1_555
C3JD C3XC 1_555 1_555
C3PF C3BG 1_555 1_555

#END
