
#######################################################################
#
#                 Cambridge Crystallographic Data Centre
#                                CCDC 
#
#######################################################################
#
# If this CIF has been generated from an entry in the Cambridge 
# Structural Database, then it will include bibliographic, chemical, 
# crystal, experimental, refinement or atomic coordinate data resulting 
# from the CCDC's data processing and validation procedures.
#
#######################################################################

data_ITAPAU
_chemical_formula_moiety         '(C9 H16 Cu2 N4)n'
_symmetry_cell_setting           orthorhombic
_symmetry_space_group_name_H-M   'P b c a'
_symmetry_Int_Tables_number      61
_space_group_name_Hall           '-P 2ac 2ab'
loop_
_symmetry_equiv_pos_site_id
_symmetry_equiv_pos_as_xyz
1 x,y,z
2 1/2-x,-y,1/2+z
3 -x,1/2+y,1/2-z
4 1/2+x,1/2-y,-z
5 -x,-y,-z
6 1/2+x,y,1/2-z
7 x,1/2-y,1/2+z
8 1/2-x,1/2+y,z
_cell_length_a                   12.848(6)
_cell_length_b                   13.370(7)
_cell_length_c                   13.967(7)
_cell_angle_alpha                90
_cell_angle_beta                 90
_cell_angle_gamma                90
_cell_volume                     2399.22
loop_
_atom_site_label
_atom_site_type_symbol
_atom_site_fract_x
_atom_site_fract_y
_atom_site_fract_z
_atom_site_U_iso_or_equiv
_atom_site_thermal_displace_type
Cu1 Cu 0.394721(16) 0.186633(15) 0.636278(14) 0.0209 Uani
Cu2 Cu 0.548509(17) 0.050777(16) 0.941696(15) 0.0222 Uani
C1 C 0.46395(13) 0.13169(12) 0.74539(12) 0.0217 Uani
N1 N 0.49498(12) 0.09973(12) 0.81703(11) 0.0267 Uani
C2 C 0.45686(12) 0.39350(14) 0.55453(12) 0.0219 Uani
N2 N 0.42683(13) 0.32222(11) 0.59089(11) 0.0242 Uani
C3 C 0.27699(13) 0.12684(12) 0.57220(11) 0.0196 Uani
N3 N 0.19587(12) 0.09534(11) 0.55300(10) 0.0237 Uani
Cu2D Cu 0.451491(17) -0.050777(16) 1.058304(15) 0.0222 Uani
C2F C 0.45686(12) 0.10650(14) 1.05453(12) 0.0219 Uani
C2B C 0.54314(12) -0.10650(14) 0.94547(12) 0.0219 Uani
N3E N 0.69587(12) 0.09534(11) 0.94700(10) 0.0237 Uani
Cu2F Cu 0.548509(17) 0.449223(16) 0.441696(15) 0.0222 Uani
Cu2B Cu 0.451491(17) 0.550777(16) 0.558304(15) 0.0222 Uani
Cu2E Cu 0.048509(17) 0.050777(16) 0.558304(15) 0.0222 Uani
N4 N 0.68959(11) 0.40936(11) 0.83967(10) 0.0199 Uani
H1 H 0.680(2) 0.472(2) 0.8593(17) 0.0350 Uiso
H2 H 0.757(2) 0.3928(19) 0.8582(15) 0.0310 Uiso
C4 C 0.61424(12) 0.34416(12) 0.89521(12) 0.0199 Uani
H3 H 0.630(2) 0.273(2) 0.8762(17) 0.0300 Uiso
C5 C 0.50381(14) 0.36991(17) 0.86839(14) 0.0293 Uani
H4 H 0.459(2) 0.338(2) 0.913(2) 0.0450 Uiso
H5 H 0.4910(18) 0.3591(18) 0.7965(16) 0.0280 Uiso
H6 H 0.489(3) 0.439(2) 0.877(2) 0.0470 Uiso
C6 C 0.63677(17) 0.35956(17) 1.00038(13) 0.0304 Uani
H7 H 0.704(2) 0.345(2) 1.016(2) 0.0400 Uiso
H8 H 0.600(2) 0.320(2) 1.040(2) 0.0430 Uiso
H9 H 0.619(2) 0.423(2) 1.0201(19) 0.0350 Uiso
C7 C 0.68782(12) 0.40451(13) 0.73158(11) 0.0205 Uani
H10 H 0.6165(18) 0.4269(17) 0.7172(17) 0.0240 Uiso
C8 C 0.76132(16) 0.48423(15) 0.69512(14) 0.0281 Uani
H11 H 0.825(2) 0.476(2) 0.7187(18) 0.0360 Uiso
H12 H 0.734(2) 0.5465(19) 0.713(2) 0.0410 Uiso
H13 H 0.755(2) 0.482(2) 0.6311(19) 0.0420 Uiso
C9 C 0.71681(19) 0.30004(14) 0.69895(14) 0.0307 Uani
H14 H 0.725(3) 0.300(2) 0.632(2) 0.0490 Uiso
H15 H 0.668(2) 0.2556(19) 0.7110(18) 0.0300 Uiso
H16 H 0.778(3) 0.273(2) 0.721(2) 0.0530 Uiso
loop_
_atom_site_aniso_label
_atom_site_aniso_U_11
_atom_site_aniso_U_22
_atom_site_aniso_U_33
_atom_site_aniso_U_23
_atom_site_aniso_U_13
_atom_site_aniso_U_12
Cu1 0.02321(12) 0.01705(12) 0.02245(12) 0.00414(7) -0.00004(7) -0.00288(7)
Cu2 0.02493(13) 0.01887(12) 0.02292(12) 0.00036(7) 0.00235(7) 0.00109(7)
C1 0.0228(7) 0.0177(7) 0.0245(7) 0.0028(6) -0.0023(6) -0.0032(5)
N1 0.0271(7) 0.0227(7) 0.0303(7) 0.0026(6) -0.0004(6) -0.0020(6)
C2 0.0204 0.0195 0.0259 0.0044 -0.0025 -0.0019
N2 0.027 0.0196 0.0261 0.0038 -0.001 -0.003
C3 0.0238(7) 0.0157(7) 0.0193(7) 0.0033(5) -0.0024(5) -0.0020(5)
N3 0.0271 0.0195 0.0244 0.0018 0.0017 0.0019
Cu2D 0.02493 0.01887 0.02292 0.00036 0.00235 0.00109
C2F 0.0204 0.0195 0.0259 -0.0044 -0.0025 0.0019
C2B 0.0204(7) 0.0195(8) 0.0259(8) -0.0044(6) -0.0025(6) 0.0019(6)
N3E 0.0271 0.0195 0.0244 -0.0018 -0.0017 0.0019
Cu2F 0.02493 0.01887 0.02292 -0.00036 0.00235 -0.00109
Cu2B 0.02493 0.01887 0.02292 -0.00036 0.00235 -0.00109
Cu2E 0.02493 0.01887 0.02292 -0.00036 -0.00235 0.00109
N4 0.0210(6) 0.0190(6) 0.0197(6) -0.0039(5) 0.0013(5) -0.0033(5)
C4 0.0217(7) 0.0163(7) 0.0217(7) 0.0001(6) 0.0003(5) -0.0012(5)
C5 0.0188(8) 0.0342(10) 0.0349(9) 0.0037(8) 0.0012(7) -0.0010(7)
C6 0.0344(10) 0.0364(11) 0.0203(8) 0.0039(7) 0.0003(7) -0.0023(8)
C7 0.0217(7) 0.0219(8) 0.0179(6) -0.0002(6) -0.0010(5) 0.0002(6)
C8 0.0323(9) 0.0250(9) 0.0271(8) 0.0004(7) 0.0078(7) -0.0025(7)
C9 0.0450(11) 0.0225(8) 0.0246(8) -0.0057(7) 0.0009(7) -0.0010(8)
loop_
_geom_bond_atom_site_label_1
_geom_bond_atom_site_label_2
_geom_bond_site_symmetry_1
_geom_bond_site_symmetry_2
Cu1 C1 1_555 1_555
Cu2 N1 1_555 1_555
C1 N1 1_555 1_555
C2 N2 1_555 1_555
N2 Cu1 1_555 1_555
C3 Cu1 1_555 1_555
N3 C3 1_555 1_555
N4 H1 1_555 1_555
H2 N4 1_555 1_555
C4 N4 1_555 1_555
H3 C4 1_555 1_555
C5 C4 1_555 1_555
H4 C5 1_555 1_555
H5 C5 1_555 1_555
H6 C5 1_555 1_555
C6 C4 1_555 1_555
H7 C6 1_555 1_555
H8 C6 1_555 1_555
H9 C6 1_555 1_555
C7 N4 1_555 1_555
H10 C7 1_555 1_555
C8 C7 1_555 1_555
H11 C8 1_555 1_555
H12 C8 1_555 1_555
H13 C8 1_555 1_555
C9 C7 1_555 1_555
H14 C9 1_555 1_555
H15 C9 1_555 1_555
H16 C9 1_555 1_555
Cu2D C2F 1_555 1_555
C2F Cu2 1_555 1_555
C2B Cu2 1_555 1_555
N3E Cu2 1_555 1_555
Cu2F C2 1_555 1_555
Cu2B C2 1_555 1_555
Cu2E N3 1_555 1_555
Cu2D C2B 1_555 1_555

#END
