
#######################################################################
#
#                 Cambridge Crystallographic Data Centre
#                                CCDC 
#
#######################################################################
#
# If this CIF has been generated from an entry in the Cambridge 
# Structural Database, then it will include bibliographic, chemical, 
# crystal, experimental, refinement or atomic coordinate data resulting 
# from the CCDC's data processing and validation procedures.
#
#######################################################################

data_ITAPIC
_chemical_formula_moiety         '(C22 H40 Cu4 N8)n'
_symmetry_cell_setting           monoclinic
_symmetry_space_group_name_H-M   'P 21/c'
_symmetry_Int_Tables_number      14
_space_group_name_Hall           '-P 2ybc'
loop_
_symmetry_equiv_pos_site_id
_symmetry_equiv_pos_as_xyz
1 x,y,z
2 -x,1/2+y,1/2-z
3 -x,-y,-z
4 x,1/2-y,1/2+z
_cell_length_a                   16.215(4)
_cell_length_b                   13.977(4)
_cell_length_c                   14.176(4)
_cell_angle_alpha                90
_cell_angle_beta                 114.555(5)
_cell_angle_gamma                90
_cell_volume                     2922.25
loop_
_atom_site_label
_atom_site_type_symbol
_atom_site_fract_x
_atom_site_fract_y
_atom_site_fract_z
Cu1 Cu 0.14683(10) 0.81020(11) -0.13616(12)
Cu2 Cu 0.45512(9) 0.95416(10) 0.03551(11)
Cu3 Cu 0.41563(10) 1.28612(10) 0.12191(11)
Cu4 Cu 0.14815(11) 0.45386(12) -0.13580(14)
C1 C 0.2563(8) 0.8788(8) -0.0787(9)
N1 N 0.3261(8) 0.9174(7) -0.0415(8)
N2 N 0.1497(8) 0.6731(10) -0.1296(10)
C2 C 0.1500(9) 0.5912(11) -0.1338(11)
C3 C 0.4707(8) 1.0993(9) 0.0493(9)
N3 N 0.4519(6) 1.1689(8) 0.0796(7)
C4 C 0.2442(9) 0.3773(9) -0.0454(10)
N4 N 0.3033(8) 0.3337(9) 0.0133(9)
N5 N 0.5011(7) 0.8890(7) 0.1701(9)
C5 C 0.5288(8) 0.8507(8) 0.2520(9)
N6 N -0.0388(10) 0.8941(9) -0.2634(12)
C6 C 0.0307(9) 0.8630(9) -0.2088(13)
Cu2B Cu 0.54488(9) 1.04584(10) -0.03551(11)
C3B C 0.5293(8) 0.9007(9) -0.0493(9)
N4_2 N 0.3033(8) 1.3337(9) 0.0133(9)
C5A C 0.4712(8) 1.3507(8) 0.2480(9)
N6A N 0.0388(10) 0.3941(9) -0.2366(12)
Cu3_2 Cu 0.41563(10) 0.28612(10) 0.12191(11)
Cu3A Cu 0.58437(10) 0.78612(10) 0.37809(11)
Cu4A Cu -0.14815(11) 0.95386(12) -0.36420(14)
N7 N 0.2176(4) 1.1282(5) -0.0884(5)
H1 H 0.2501 1.1781 -0.0513
H2 H 0.2566 1.0793 -0.0777
C7 C 0.1838(4) 1.1543(5) -0.1973(5)
H3 H 0.1488 1.2134 -0.2060
C8 C 0.1213(4) 1.0823(5) -0.2664(5)
H4 H 0.0722 1.0730 -0.2452
H5 H 0.1537 1.0221 -0.2559
C9 C 0.0811(4) 1.1044(5) -0.3793(5)
H6 H 0.0429 1.0524 -0.4169
H7 H 0.1288 1.1131 -0.4020
H8 H 0.0458 1.1619 -0.3919
C10 C 0.2629(4) 1.1783(5) -0.2206(5)
H9 H 0.2982 1.2276 -0.1742
H10 H 0.2418 1.2004 -0.2909
H11 H 0.2997 1.1223 -0.2116
C11 C 0.1519(4) 1.0997(5) -0.0426(5)
H12 H 0.1249 1.0384 -0.0736
C12 C 0.2109(15) 1.0820(17) 0.0719(17)
H13 H 0.2597 1.0381 0.0801
H14 H 0.2369 1.1415 0.1068
C13 C 0.149(3) 1.039(4) 0.116(4)
H15 H 0.1830 1.0267 0.1890
H16 H 0.1237 0.9805 0.0812
H17 H 0.1009 1.0833 0.1074
C14 C 0.0767(14) 1.1702(16) -0.0685(17)
H18 H 0.0424 1.1724 -0.1423
H19 H 0.1015 1.2324 -0.0438
H20 H 0.0378 1.1514 -0.0359
N8 N 0.398(2) 0.670(2) 0.139(2)
H21 H 0.4358 0.6571 0.2049
H22 H 0.4085 0.7315 0.1286
C15 C 0.3212(18) 0.6733(18) 0.142(2)
H23 H 0.2800 0.6780 0.0682
C16 C 0.2854(15) 0.7518(17) 0.1901(18)
H24 H 0.3068 0.7408 0.2641
H25 H 0.3077 0.8136 0.1800
C17 C 0.184(2) 0.752(2) 0.140(2)
H26 H 0.1612 0.7982 0.1736
H27 H 0.1618 0.6893 0.1473
H28 H 0.1626 0.7670 0.0681
C18 C 0.3008(14) 0.5701(14) 0.1701(16)
H29 H 0.3193 0.5237 0.1328
H30 H 0.2370 0.5637 0.1516
H31 H 0.3337 0.5597 0.2433
C19 C 0.4350(16) 0.6175(19) 0.0791(19)
H32 H 0.4184 0.5502 0.0799
C20 C 0.5387(19) 0.622(3) 0.115(3)
H33 H 0.5519 0.6073 0.0557
H34 H 0.5581 0.6870 0.1357
C21 C 0.595(3) 0.558(3) 0.201(4)
H35 H 0.6576 0.5681 0.2179
H36 H 0.5793 0.4922 0.1806
H37 H 0.5828 0.5709 0.2610
C22 C 0.3986(15) 0.6494(17) -0.0371(17)
H38 H 0.3337 0.6531 -0.0662
H39 H 0.4168 0.6036 -0.0753
H40 H 0.4232 0.7110 -0.0411
loop_
_geom_bond_atom_site_label_1
_geom_bond_atom_site_label_2
_geom_bond_site_symmetry_1
_geom_bond_site_symmetry_2
Cu1 C1 1_555 1_555
Cu2 N1 1_555 1_555
Cu3 N3 1_555 1_555
Cu4 C2 1_555 1_555
C1 N1 1_555 1_555
N2 Cu1 1_555 1_555
C2 N2 1_555 1_555
C3 Cu2 1_555 1_555
N3 C3 1_555 1_555
C4 Cu4 1_555 1_555
N4 C4 1_555 1_555
N5 Cu2 1_555 1_555
C5 N5 1_555 1_555
N6 C6 1_555 1_555
C6 Cu1 1_555 1_555
N7 H1 1_555 1_555
H2 N7 1_555 1_555
C7 N7 1_555 1_555
H3 C7 1_555 1_555
C8 C7 1_555 1_555
H4 C8 1_555 1_555
H5 C8 1_555 1_555
C9 C8 1_555 1_555
H6 C9 1_555 1_555
H7 C9 1_555 1_555
H8 C9 1_555 1_555
C10 C7 1_555 1_555
H9 C10 1_555 1_555
H10 C10 1_555 1_555
H11 C10 1_555 1_555
C11 N7 1_555 1_555
H12 C11 1_555 1_555
C12 C11 1_555 1_555
H13 C12 1_555 1_555
H14 C12 1_555 1_555
C13 C12 1_555 1_555
H15 C13 1_555 1_555
H16 C13 1_555 1_555
H17 C13 1_555 1_555
C14 C11 1_555 1_555
H18 C14 1_555 1_555
H19 C14 1_555 1_555
H20 C14 1_555 1_555
N8 H21 1_555 1_555
H22 N8 1_555 1_555
C15 N8 1_555 1_555
H23 C15 1_555 1_555
C16 C15 1_555 1_555
H24 C16 1_555 1_555
H25 C16 1_555 1_555
C17 C16 1_555 1_555
H26 C17 1_555 1_555
H27 C17 1_555 1_555
H28 C17 1_555 1_555
C18 C15 1_555 1_555
H29 C18 1_555 1_555
H30 C18 1_555 1_555
H31 C18 1_555 1_555
C19 N8 1_555 1_555
H32 C19 1_555 1_555
C20 C19 1_555 1_555
H33 C20 1_555 1_555
H34 C20 1_555 1_555
C21 C20 1_555 1_555
H35 C21 1_555 1_555
H36 C21 1_555 1_555
H37 C21 1_555 1_555
C22 C19 1_555 1_555
H38 C22 1_555 1_555
H39 C22 1_555 1_555
H40 C22 1_555 1_555
Cu2B C3 1_555 1_555
C3B Cu2 1_555 1_555
N4_2 Cu3 1_555 1_555
C5A Cu3 1_555 1_555
N6A Cu4 1_555 1_555
Cu3_2 N4 1_555 1_555
Cu3A C5 1_555 1_555
Cu4A N6 1_555 1_555
Cu2B C3B 1_555 1_555

#END
