
#######################################################################
#
#                 Cambridge Crystallographic Data Centre
#                                CCDC 
#
#######################################################################
#
# If this CIF has been generated from an entry in the Cambridge 
# Structural Database, then it will include bibliographic, chemical, 
# crystal, experimental, refinement or atomic coordinate data resulting 
# from the CCDC's data processing and validation procedures.
#
#######################################################################

data_KEHGIP
_chemical_formula_moiety         '(C18 H26 Cl1 Cu1 N12 O7 1+)n'
_symmetry_cell_setting           orthorhombic
_symmetry_space_group_name_H-M   'P n m a'
_symmetry_Int_Tables_number      62
_space_group_name_Hall           '-P 2ac 2n'
loop_
_symmetry_equiv_pos_site_id
_symmetry_equiv_pos_as_xyz
1 x,y,z
2 1/2-x,-y,1/2+z
3 1/2+x,1/2-y,1/2-z
4 -x,1/2+y,-z
5 -x,-y,-z
6 1/2+x,y,1/2-z
7 1/2-x,1/2+y,1/2+z
8 x,1/2-y,z
_cell_length_a                   17.1623(13)
_cell_length_b                   13.1560(8)
_cell_length_c                   12.8631(8)
_cell_angle_alpha                90
_cell_angle_beta                 90
_cell_angle_gamma                90
_cell_volume                     2904.32
loop_
_atom_site_label
_atom_site_type_symbol
_atom_site_fract_x
_atom_site_fract_y
_atom_site_fract_z
Cu1 Cu 0.06616(5) 0.7500 0.83615(6)
O1 O -0.0533(5) 0.7500 0.8985(6)
H1 H -0.0822 0.8023 0.8944
N1 N 0.0752(3) 0.5975(4) 0.8310(3)
N2 N 0.0513(5) 0.5415(5) 0.9129(4)
N3 N 0.0845(3) 0.4385(4) 0.7870(3)
N4 N -0.0438(4) 0.2500 0.3162(4)
N5 N -0.1059(5) 0.2500 0.3835(5)
N6 N 0.0024(4) 0.2500 0.4746(4)
N7 N 0.3774(4) 0.2500 0.4719(4)
N8 N 0.4061(4) 0.2500 0.5722(5)
N9 N 0.2775(4) 0.2500 0.5774(4)
C1 C 0.0932(3) 0.5344(5) 0.7563(3)
H2 H 0.1100 0.5541 0.6898
C2 C 0.0572(6) 0.4458(6) 0.8850(5)
H3 H 0.0442 0.3901 0.9275
C3 C 0.0216(5) 0.2500 0.3718(5)
H4 H 0.0725 0.2500 0.3447
C4 C -0.0768(5) 0.2500 0.4743(6)
H5 H -0.1071 0.2500 0.5352
C5 C 0.3014(5) 0.2500 0.4775(5)
H6 H 0.2679 0.2500 0.4197
C6 C 0.3439(5) 0.2500 0.6328(5)
H7 H 0.3458 0.2500 0.7058
C7 C 0.0989(3) 0.3450(4) 0.7235(3)
C8 C 0.0414(3) 0.3458(4) 0.6310(3)
H8 H -0.0124 0.3458 0.6564
H9 H 0.0493 0.4069 0.5887
C9 C 0.0570(4) 0.2500 0.5658(5)
C10 C 0.1402(4) 0.2500 0.5246(4)
H10 H 0.1491 0.3104 0.4817
C11 C 0.1968(4) 0.2500 0.6182(5)
C12 C 0.1835(3) 0.3462(4) 0.6837(3)
H11 H 0.1926 0.4069 0.6412
H12 H 0.2198 0.3475 0.7425
C13 C 0.0858(4) 0.2500 0.7898(5)
H13 H 0.1220 0.2500 0.8487
H14 H 0.0325 0.2500 0.8173
Cu1C Cu -0.06616(5) 0.2500 0.16385(6)
Cu1A Cu 0.43384(5) 0.2500 0.33615(6)
Cu1_2 Cu 0.06616(5) -0.2500 0.83615(6)
H1G H -0.0822 0.6977 0.8944
N1G N 0.0752(3) -0.0975(4) 0.8310(3)
N1G_2 N 0.0752(3) 0.9025(4) 0.8310(3)
N2G N 0.0513(5) -0.0415(5) 0.9129(4)
N3G N 0.0845(3) 0.0615(4) 0.7870(3)
N4C N 0.0438(4) 0.7500 0.6838(4)
N7A N 0.1226(4) 0.7500 0.9719(4)
C1G C 0.0932(3) -0.0344(5) 0.7563(3)
H2G H 0.1100 -0.0541 0.6898
C2G C 0.0572(6) 0.0542(6) 0.8850(5)
H3G H 0.0442 0.1099 0.9275
C7G C 0.0989(3) 0.1550(4) 0.7235(3)
C8G C 0.0414(3) 0.1542(4) 0.6310(3)
H8G H -0.0124 0.1542 0.6564
H9G H 0.0493 0.0931 0.5887
H10G H 0.1491 0.1896 0.4817
C12G C 0.1835(3) 0.1538(4) 0.6837(3)
H11G H 0.1926 0.0931 0.6412
H12G H 0.2198 0.1525 0.7425
O2 O 0.2541(14) 0.2500 0.2341(16)
O3 O -0.1643(16) 0.904(2) 0.8816(16)
O4 O 0.1365(7) -0.0282(7) 0.4940(6)
Cl1 Cl 0.1648(5) -0.0263(6) 0.3902(6)
O5 O 0.1117(11) 0.0328(13) 0.3320(13)
O6 O 0.1672(8) -0.1255(7) 0.3509(9)
O7 O 0.2390(8) 0.0185(13) 0.3870(14)
loop_
_geom_bond_atom_site_label_1
_geom_bond_atom_site_label_2
_geom_bond_site_symmetry_1
_geom_bond_site_symmetry_2
Cu1 O1 1_555 1_555
O1 H1 1_555 1_555
N1 Cu1 1_555 1_555
N2 N1 1_555 1_555
N3 C1 1_555 1_555
N4 N5 1_555 1_555
N5 C4 1_555 1_555
N6 C3 1_555 1_555
N7 N8 1_555 1_555
N8 C6 1_555 1_555
N9 C5 1_555 1_555
C1 N1 1_555 1_555
H2 C1 1_555 1_555
C2 N2 1_555 1_555
H3 C2 1_555 1_555
C3 N4 1_555 1_555
H4 C3 1_555 1_555
C4 N6 1_555 1_555
H5 C4 1_555 1_555
C5 N7 1_555 1_555
H6 C5 1_555 1_555
C6 N9 1_555 1_555
H7 C6 1_555 1_555
C7 N3 1_555 1_555
C8 C7 1_555 1_555
H8 C8 1_555 1_555
H9 C8 1_555 1_555
C9 N6 1_555 1_555
C10 C9 1_555 1_555
H10 C10 1_555 1_555
C11 N9 1_555 1_555
C12 C7 1_555 1_555
H11 C12 1_555 1_555
H12 C12 1_555 1_555
C13 C7 1_555 1_555
H13 C13 1_555 1_555
H14 C13 1_555 1_555
O4 Cl1 1_555 1_555
Cl1 O5 1_555 1_555
O6 Cl1 1_555 1_555
O7 Cl1 1_555 1_555
Cu1C N4 1_555 1_555
Cu1A N7 1_555 1_555
Cu1_2 N1G 1_555 1_555
H1G O1 1_555 1_555
N1G N2G 1_555 1_555
N1G_2 Cu1 1_555 1_555
N2G C2G 1_555 1_555
N3G C1G 1_555 1_555
N4C Cu1 1_555 1_555
N7A Cu1 1_555 1_555
C1G N1G 1_555 1_555
H2G C1G 1_555 1_555
C2G N3G 1_555 1_555
H3G C2G 1_555 1_555
C7G C13 1_555 1_555
C8G C9 1_555 1_555
H8G C8G 1_555 1_555
H9G C8G 1_555 1_555
H10G C10 1_555 1_555
C12G C11 1_555 1_555
H11G C12G 1_555 1_555
H12G C12G 1_555 1_555
N3 C2 1_555 1_555
C8 C9 1_555 1_555
C10 C11 1_555 1_555
C11 C12 1_555 1_555
N3G C7G 1_555 1_555
C7G C8G 1_555 1_555
C7G C12G 1_555 1_555

#END
