
#######################################################################
#
#                 Cambridge Crystallographic Data Centre
#                                CCDC 
#
#######################################################################
#
# If this CIF has been generated from an entry in the Cambridge 
# Structural Database, then it will include bibliographic, chemical, 
# crystal, experimental, refinement or atomic coordinate data resulting 
# from the CCDC's data processing and validation procedures.
#
#######################################################################

data_FIGFOR
_chemical_formula_moiety         '(C9 H2 B3 N5 O25 P6 Zn3 3-)n'
_symmetry_cell_setting           hexagonal
_symmetry_space_group_name_H-M   'P 65 2 2'
_symmetry_Int_Tables_number      179
_space_group_name_Hall           'P 65 2 (0 0 1)'
loop_
_symmetry_equiv_pos_site_id
_symmetry_equiv_pos_as_xyz
1 x,y,z
2 -x,-y,1/2+z
3 -y,-x,1/6-z
4 y,x,2/3-z
5 x-y,-y,-z
6 -x+y,y,1/2-z
7 x,x-y,5/6-z
8 -x,-x+y,1/3-z
9 -y,x-y,2/3+z
10 y,-x+y,1/6+z
11 x-y,x,5/6+z
12 -x+y,-x,1/3+z
_cell_length_a                   9.6685(4)
_cell_length_b                   9.6685(4)
_cell_length_c                   14.8879(6)
_cell_angle_alpha                90
_cell_angle_beta                 90
_cell_angle_gamma                120
_cell_volume                     1205.26
loop_
_atom_site_label
_atom_site_type_symbol
_atom_site_fract_x
_atom_site_fract_y
_atom_site_fract_z
O1 O 0.076(3) 0.0000 0.0000
Zn1 Zn 0.51002(6) 0.48998(6) 0.0833
P1 P 0.76137(18) 0.60660(19) -0.07356(11)
B1 B 0.6705(10) 0.8353(5) -0.0833
O2 O 0.6142(6) 0.4796(6) -0.0269(3)
O3 O 0.7790(6) 0.7749(6) -0.0604(3)
O4 O 0.9139(5) 0.6214(6) -0.0384(3)
O5 O 0.7442(5) 0.5648(6) -0.1752(4)
Zn1D Zn 1.02004(8) 0.51002(6) -0.0833
Zn1F Zn 0.51002(6) 1.02004(8) -0.2500
Zn1D_2 Zn 1.02004(8) 1.51002(6) -0.0833
Zn1A Zn 0.48998(6) 0.51002(6) -0.4167
Zn1G Zn 0.48998(6) 0.97996(8) 0.2500
Zn1G_2 Zn 0.48998(6) -0.02004(8) 0.2500
Zn1D_3 Zn 0.02004(8) 0.51002(6) -0.0833
P1F P 0.76137(18) 1.15477(26) -0.09311(11)
P1C P 0.60660(19) 0.76137(18) -0.25977(11)
P1I P 0.60660(19) 0.84523(26) 0.09311(11)
P1B P 0.39340(19) 0.23863(18) 0.24023(11)
P1D P 0.15477(26) 0.39340(19) 0.07356(11)
B1C B 0.8353(5) 0.6705(10) -0.2500
B1D B 0.8352(11) 1.1647(5) 0.0833
B1B B 0.1647(5) 0.3295(10) 0.2500
B1A B 0.3295(10) 0.1647(5) 0.4167
B1D_2 B -0.1648(11) 0.1647(5) 0.0833
O2B O 0.5204(6) 0.3858(6) 0.1936(3)
O2D O 1.1346(8) 0.5204(6) 0.0269(3)
O2J O 1.1346(8) 0.6142(6) -0.1936(3)
O2F O 0.6142(6) 1.1346(8) -0.1398(3)
O2C O 0.4796(6) 0.6142(6) -0.3064(3)
O2I O 0.4796(6) 0.8654(8) 0.1398(3)
O2D_2 O 0.1346(8) 0.5204(6) 0.0269(3)
O2G O 0.3858(6) 0.8654(8) 0.3602(3)
O3F O 0.7790(6) 1.0041(8) -0.1063(3)
O3C O 0.7749(6) 0.7790(6) -0.2729(3)
O3J O 1.0041(8) 0.7790(6) -0.2271(3)
O3I O 0.7749(6) 0.9959(8) 0.1063(3)
O3B O 0.2251(6) 0.2210(6) 0.2271(3)
O3D O 0.0041(8) 0.2251(6) 0.0604(3)
O3D_2 O 1.0041(8) 1.2251(6) 0.0604(3)
O4D O 0.2925(8) 0.3786(6) 0.0384(3)
O4I O 0.6214(6) 0.7075(8) 0.1283(3)
O4F O 0.9139(5) 0.2925(8) -0.1283(3)
O4F_2 O 0.9139(5) 1.2925(8) -0.1283(3)
O4C O 0.6214(6) 0.9139(5) -0.2949(3)
O4B O 0.3786(6) 0.0861(5) 0.2051(3)
O4B_2 O 0.3786(6) 1.0861(5) 0.2051(3)
O4K O 0.7075(8) 1.0861(5) 0.2949(3)
O5C O 0.5648(6) 0.7442(5) -0.1581(4)
O5I O 0.5648(6) 0.8206(8) -0.0085(4)
O5E O 0.8206(8) 0.5648(6) -0.3248(4)
O5F O 0.7442(5) 1.1794(8) 0.0085(4)
O5B O 0.4352(6) 0.2558(5) 0.3419(4)
O5D O 0.1794(8) 0.4352(6) 0.1752(4)
O5K O 0.8206(8) 1.2558(5) 0.1581(4)
N1 N 0.3612(14) 0.1806(7) -0.0833
C1 C 0.334(4) 0.069(4) 0.004(2)
N1D N 0.1806(16) -0.1806(7) 0.0833
N1C N 0.1806(7) 0.3612(14) -0.2500
N1B N -0.1806(7) -0.3612(14) 0.2500
N1E N -0.1806(16) 0.1806(7) -0.4167
C1F C 0.334(4) 0.265(6) -0.171(2)
C1D C 0.265(6) -0.069(4) -0.004(2)
C1J C 0.265(6) 0.334(4) -0.163(2)
C1I C 0.069(4) -0.265(6) 0.171(2)
C1C C 0.069(4) 0.334(4) -0.337(2)
C1B C -0.069(4) -0.334(4) 0.163(2)
C1H C -0.069(4) 0.265(6) -0.329(2)
C1K C -0.265(6) -0.334(4) 0.337(2)
loop_
_geom_bond_atom_site_label_1
_geom_bond_atom_site_label_2
_geom_bond_site_symmetry_1
_geom_bond_site_symmetry_2
N1 C1 1_555 1_555
C1 C1D 1_555 1_555
Zn1 O2 1_555 1_555
P1 O2 1_555 1_555
B1 O3 1_555 1_555
O3 P1 1_555 1_555
O4 P1 1_555 1_555
O5 P1 1_555 1_555
N1D C1D 1_555 1_555
N1C C1J 1_555 1_555
N1B C1B 1_555 1_555
N1E C1H 1_555 1_555
C1F N1 1_555 1_555
C1J C1F 1_555 1_555
C1I N1D 1_555 1_555
C1C N1C 1_555 1_555
C1B C1I 1_555 1_555
C1H C1C 1_555 1_555
C1K N1B 1_555 1_555
Zn1D O4 1_555 1_555
Zn1F O2F 1_555 1_555
Zn1D_2 O4F_2 1_555 1_555
Zn1A O2C 1_555 1_555
Zn1G O2I 1_555 1_555
Zn1G_2 O4B 1_555 1_555
Zn1D_3 O2D_2 1_555 1_555
P1F O2F 1_555 1_555
P1C O2C 1_555 1_555
P1I O2I 1_555 1_555
P1B O2B 1_555 1_555
P1D O2D_2 1_555 1_555
B1C O5 1_555 1_555
B1D O3I 1_555 1_555
B1B O3B 1_555 1_555
B1A O5B 1_555 1_555
B1D_2 O3D 1_555 1_555
O2B Zn1 1_555 1_555
O2D Zn1D 1_555 1_555
O2J Zn1D 1_555 1_555
O2G Zn1G 1_555 1_555
O3F B1 1_555 1_555
O3C P1C 1_555 1_555
O3J B1C 1_555 1_555
O3I P1I 1_555 1_555
O3B P1B 1_555 1_555
O3D P1D 1_555 1_555
O3D_2 B1D 1_555 1_555
O4D Zn1 1_555 1_555
O4I Zn1 1_555 1_555
O4F Zn1D 1_555 1_555
O4F_2 P1F 1_555 1_555
O4C Zn1F 1_555 1_555
O4B P1B 1_555 1_555
O4B_2 Zn1G 1_555 1_555
O4K Zn1G 1_555 1_555
O5C B1 1_555 1_555
O5I B1 1_555 1_555
O5E B1C 1_555 1_555
O5F P1F 1_555 1_555
O5B P1B 1_555 1_555
O5D P1D 1_555 1_555
O5K B1D 1_555 1_555
P1F O3F 1_555 1_555
P1C O4C 1_555 1_555
P1C O5C 1_555 1_555
P1I O4I 1_555 1_555
P1I O5I 1_555 1_555
P1D O4D 1_555 1_555
B1C O3C 1_555 1_555
B1D O5F 1_555 1_555
B1B O5D 1_555 1_555

#END
