
#######################################################################
#
#                 Cambridge Crystallographic Data Centre
#                                CCDC 
#
#######################################################################
#
# If this CIF has been generated from an entry in the Cambridge 
# Structural Database, then it will include bibliographic, chemical, 
# crystal, experimental, refinement or atomic coordinate data resulting 
# from the CCDC's data processing and validation procedures.
#
#######################################################################

data_FELVOJ
_chemical_formula_moiety         '(C12 H26 Ca2 Eu1 O22)n'
_symmetry_cell_setting           cubic
_symmetry_space_group_name_H-M   'F d 3 c'
_symmetry_Int_Tables_number      228
_space_group_name_Hall           '-F 4ud 2vw 3'
loop_
_symmetry_equiv_pos_site_id
_symmetry_equiv_pos_as_xyz
1 x,y,z
2 -y,1/4+x,3/4+z
3 1/4-x,1/4-y,z
4 1/4+y,-x,3/4+z
5 1/4+x,-z,3/4+y
6 x,1/4-y,1/4-z
7 1/4+x,3/4+z,-y
8 1/4+z,3/4+y,-x
9 1/4-x,y,1/4-z
10 -z,1/4+y,3/4+x
11 z,x,y
12 y,z,x
13 1/4-y,1/4-z,x
14 z,1/4-x,1/4-y
15 1/4-y,z,1/4-x
16 1/4-z,1/4-x,y
17 1/4-z,x,1/4-y
18 y,1/4-z,1/4-x
19 1/4+y,3/4+x,-z
20 -y,-x,1/2-z
21 -x,1/4+z,3/4+y
22 -x,-z,1/2-y
23 1/4+z,-y,3/4+x
24 -z,-y,1/2-x
25 x,1/2+y,1/2+z
26 -y,3/4+x,1/4+z
27 1/4-x,3/4-y,1/2+z
28 1/4+y,1/2-x,1/4+z
29 1/4+x,1/2-z,1/4+y
30 x,3/4-y,3/4-z
31 1/4+x,1/4+z,1/2-y
32 1/4+z,1/4+y,1/2-x
33 1/4-x,1/2+y,3/4-z
34 -z,3/4+y,1/4+x
35 z,1/2+x,1/2+y
36 y,1/2+z,1/2+x
37 1/4-y,3/4-z,1/2+x
38 z,3/4-x,3/4-y
39 1/4-y,1/2+z,3/4-x
40 1/4-z,3/4-x,1/2+y
41 1/4-z,1/2+x,3/4-y
42 y,3/4-z,3/4-x
43 1/4+y,1/4+x,1/2-z
44 -y,1/2-x,-z
45 -x,3/4+z,1/4+y
46 -x,1/2-z,-y
47 1/4+z,1/2-y,1/4+x
48 -z,1/2-y,-x
49 1/2+x,y,1/2+z
50 1/2-y,1/4+x,1/4+z
51 3/4-x,1/4-y,1/2+z
52 3/4+y,-x,1/4+z
53 3/4+x,-z,1/4+y
54 1/2+x,1/4-y,3/4-z
55 3/4+x,3/4+z,1/2-y
56 3/4+z,3/4+y,1/2-x
57 3/4-x,y,3/4-z
58 1/2-z,1/4+y,1/4+x
59 1/2+z,x,1/2+y
60 1/2+y,z,1/2+x
61 3/4-y,1/4-z,1/2+x
62 1/2+z,1/4-x,3/4-y
63 3/4-y,z,3/4-x
64 3/4-z,1/4-x,1/2+y
65 3/4-z,x,3/4-y
66 1/2+y,1/4-z,3/4-x
67 3/4+y,3/4+x,1/2-z
68 1/2-y,-x,-z
69 1/2-x,1/4+z,1/4+y
70 1/2-x,-z,-y
71 3/4+z,-y,1/4+x
72 1/2-z,-y,-x
73 1/2+x,1/2+y,z
74 1/2-y,3/4+x,3/4+z
75 3/4-x,3/4-y,z
76 3/4+y,1/2-x,3/4+z
77 3/4+x,1/2-z,3/4+y
78 1/2+x,3/4-y,1/4-z
79 3/4+x,1/4+z,-y
80 3/4+z,1/4+y,-x
81 3/4-x,1/2+y,1/4-z
82 1/2-z,3/4+y,3/4+x
83 1/2+z,1/2+x,y
84 1/2+y,1/2+z,x
85 3/4-y,3/4-z,x
86 1/2+z,3/4-x,1/4-y
87 3/4-y,1/2+z,1/4-x
88 3/4-z,3/4-x,y
89 3/4-z,1/2+x,1/4-y
90 1/2+y,3/4-z,1/4-x
91 3/4+y,1/4+x,-z
92 1/2-y,1/2-x,1/2-z
93 1/2-x,3/4+z,3/4+y
94 1/2-x,1/2-z,1/2-y
95 3/4+z,1/2-y,3/4+x
96 1/2-z,1/2-y,1/2-x
97 -x,-y,-z
98 y,3/4-x,1/4-z
99 3/4+x,3/4+y,-z
100 3/4-y,x,1/4-z
101 3/4-x,z,1/4-y
102 -x,3/4+y,3/4+z
103 3/4-x,1/4-z,y
104 3/4-z,1/4-y,x
105 3/4+x,-y,3/4+z
106 z,3/4-y,1/4-x
107 -z,-x,-y
108 -y,-z,-x
109 3/4+y,3/4+z,-x
110 -z,3/4+x,3/4+y
111 3/4+y,-z,3/4+x
112 3/4+z,3/4+x,-y
113 3/4+z,-x,3/4+y
114 -y,3/4+z,3/4+x
115 3/4-y,1/4-x,z
116 y,x,1/2+z
117 x,3/4-z,1/4-y
118 x,z,1/2+y
119 3/4-z,y,1/4-x
120 z,y,1/2+x
121 -x,1/2-y,1/2-z
122 y,1/4-x,3/4-z
123 3/4+x,1/4+y,1/2-z
124 3/4-y,1/2+x,3/4-z
125 3/4-x,1/2+z,3/4-y
126 -x,1/4+y,1/4+z
127 3/4-x,3/4-z,1/2+y
128 3/4-z,3/4-y,1/2+x
129 3/4+x,1/2-y,1/4+z
130 z,1/4-y,3/4-x
131 -z,1/2-x,1/2-y
132 -y,1/2-z,1/2-x
133 3/4+y,1/4+z,1/2-x
134 -z,1/4+x,1/4+y
135 3/4+y,1/2-z,1/4+x
136 3/4+z,1/4+x,1/2-y
137 3/4+z,1/2-x,1/4+y
138 -y,1/4+z,1/4+x
139 3/4-y,3/4-x,1/2+z
140 y,1/2+x,z
141 x,1/4-z,3/4-y
142 x,1/2+z,y
143 3/4-z,1/2+y,3/4-x
144 z,1/2+y,x
145 1/2-x,-y,1/2-z
146 1/2+y,3/4-x,3/4-z
147 1/4+x,3/4+y,1/2-z
148 1/4-y,x,3/4-z
149 1/4-x,z,3/4-y
150 1/2-x,3/4+y,1/4+z
151 1/4-x,1/4-z,1/2+y
152 1/4-z,1/4-y,1/2+x
153 1/4+x,-y,1/4+z
154 1/2+z,3/4-y,3/4-x
155 1/2-z,-x,1/2-y
156 1/2-y,-z,1/2-x
157 1/4+y,3/4+z,1/2-x
158 1/2-z,3/4+x,1/4+y
159 1/4+y,-z,1/4+x
160 1/4+z,3/4+x,1/2-y
161 1/4+z,-x,1/4+y
162 1/2-y,3/4+z,1/4+x
163 1/4-y,1/4-x,1/2+z
164 1/2+y,x,z
165 1/2+x,3/4-z,3/4-y
166 1/2+x,z,y
167 1/4-z,y,3/4-x
168 1/2+z,y,x
169 1/2-x,1/2-y,-z
170 1/2+y,1/4-x,1/4-z
171 1/4+x,1/4+y,-z
172 1/4-y,1/2+x,1/4-z
173 1/4-x,1/2+z,1/4-y
174 1/2-x,1/4+y,3/4+z
175 1/4-x,3/4-z,y
176 1/4-z,3/4-y,x
177 1/4+x,1/2-y,3/4+z
178 1/2+z,1/4-y,1/4-x
179 1/2-z,1/2-x,-y
180 1/2-y,1/2-z,-x
181 1/4+y,1/4+z,-x
182 1/2-z,1/4+x,3/4+y
183 1/4+y,1/2-z,3/4+x
184 1/4+z,1/4+x,-y
185 1/4+z,1/2-x,3/4+y
186 1/2-y,1/4+z,3/4+x
187 1/4-y,3/4-x,z
188 1/2+y,1/2+x,1/2+z
189 1/2+x,1/4-z,1/4-y
190 1/2+x,1/2+z,1/2+y
191 1/4-z,1/2+y,1/4-x
192 1/2+z,1/2+y,1/2+x
_cell_length_a                   26.7069(5)
_cell_length_b                   26.7069(5)
_cell_length_c                   26.7069(5)
_cell_angle_alpha                90
_cell_angle_beta                 90
_cell_angle_gamma                90
_cell_volume                     19048.9
loop_
_atom_site_label
_atom_site_type_symbol
_atom_site_fract_x
_atom_site_fract_y
_atom_site_fract_z
_atom_site_U_iso_or_equiv
_atom_site_thermal_displace_type
Eu1 Eu 0.2500 0.0000 0.0000 0.0243 Uani
Ca1 Ca 0.5000 0.0000 0.0000 0.0244 Uani
O1 O 0.31537(14) 0.06537(14) 0.0000 0.0413 Uani
O2 O 0.33491(14) -0.02899(15) 0.00819(16) 0.0450 Uani
O3 O 0.41637(16) -0.01876(18) 0.01377(17) 0.0513 Uani
C1 C 0.3666(2) 0.0532(3) 0.0046(3) 0.0700 Uani
H1 H 0.3803 0.0695 0.0340 0.0840 Uiso
H2 H 0.3846 0.0654 -0.0245 0.0840 Uiso
C2 C 0.3730(2) -0.0016(2) 0.0090(2) 0.0397 Uani
Ca1W Ca 0.0000 0.0000 0.0000 0.0244 Uani
Ca1V Ca 0.2500 -0.0000 0.2500 0.0244 Uani
Ca1R Ca 0.2500 0.2500 0.0000 0.0244 Uani
Ca1O Ca 0.2500 -0.2500 0.0000 0.0244 Uani
Ca1N Ca 0.2500 0.0000 -0.2500 0.0244 Uani
O1N O 0.18463(14) 0.0000 -0.06537(14) 0.0413 Uani
O1O O 0.2500 -0.06537(14) 0.06537(14) 0.0413 Uani
O2R O 0.22101(15) 0.08491(14) -0.00819(16) 0.0450 Uani
O2N O 0.27899(15) 0.00819(16) -0.08491(14) 0.0450 Uani
O2QB O 0.16509(14) -0.00819(16) 0.02899(15) 0.0450 Uani
O2O O 0.24181(16) -0.08491(14) -0.02899(15) 0.0450 Uani
O2V O 0.25819(16) 0.02899(15) 0.08491(14) 0.0450 Uani
O3R O 0.23124(18) 0.16637(16) -0.01377(17) 0.0513 Uani
O3N O 0.26876(18) 0.01377(17) -0.16637(16) 0.0513 Uani
O3QB O 0.08363(16) -0.01377(17) 0.01876(18) 0.0513 Uani
O3O O 0.23623(17) -0.16637(16) -0.01876(18) 0.0513 Uani
O3V O 0.26377(17) 0.01876(18) 0.16637(16) 0.0513 Uani
O3GB O 0.48124(18) 0.01377(17) -0.08363(16) 0.0513 Uani
O3DC O 0.51377(17) -0.08363(16) -0.01876(18) 0.0513 Uani
O3RC O 0.58363(16) 0.01876(18) -0.01377(17) 0.0513 Uani
O3YE O 0.51876(18) -0.01377(17) 0.08363(16) 0.0513 Uani
O3VF O 0.48623(17) 0.08363(16) 0.01876(18) 0.0513 Uani
C1R C 0.3032(3) 0.1166(2) -0.0046(3) 0.0700 Uani
C1N C 0.1968(3) 0.0046(3) -0.1166(2) 0.0700 Uani
C1QB C 0.1334(2) -0.0046(3) -0.0532(3) 0.0700 Uani
C1O C 0.2454(3) -0.1166(2) 0.0532(3) 0.0700 Uani
C1V C 0.2546(3) -0.0532(3) 0.1166(2) 0.0700 Uani
H1R H 0.3195 0.1303 -0.0340 0.0840 Uiso
H1N H 0.1805 0.0340 -0.1303 0.0840 Uiso
H1QB H 0.1197 -0.0340 -0.0695 0.0840 Uiso
H1O H 0.2160 -0.1303 0.0695 0.0840 Uiso
H1V H 0.2840 -0.0695 0.1303 0.0840 Uiso
H2R H 0.3154 0.1346 0.0245 0.0840 Uiso
H2N H 0.1846 -0.0245 -0.1346 0.0840 Uiso
H2QB H 0.1154 0.0245 -0.0654 0.0840 Uiso
H2O H 0.2745 -0.1346 0.0654 0.0840 Uiso
H2V H 0.2255 -0.0654 0.1346 0.0840 Uiso
C2R C 0.2484(2) 0.1230(2) -0.0090(2) 0.0397 Uani
C2N C 0.2516(2) 0.0090(2) -0.1230(2) 0.0397 Uani
C2QB C 0.1270(2) -0.0090(2) 0.0016(2) 0.0397 Uani
C2O C 0.2410(2) -0.1230(2) -0.0016(2) 0.0397 Uani
C2V C 0.2590(2) 0.0016(2) 0.1230(2) 0.0397 Uani
Ca2 Ca 0.1250 0.1250 0.1250 0.0745 Uani
O4 O 0.1250 0.0379(3) 0.1250 0.1243 Uani
H3 H 0.1189 0.0193 0.0998 0.1860 Uiso
O4B O 0.1250 0.2121(3) 0.1250 0.1243 Uani
O4J O 0.1250 0.1250 0.0379(3) 0.1243 Uani
O4K O 0.0379(3) 0.1250 0.1250 0.1243 Uani
O4L O 0.2121(3) 0.1250 0.1250 0.1243 Uani
O4M O 0.1250 0.1250 0.2121(3) 0.1243 Uani
H3H H 0.1311 0.0193 0.1502 0.1860 Uiso
H3B H 0.1311 0.2307 0.0998 0.1860 Uiso
H3E H 0.1189 0.2307 0.1502 0.1860 Uiso
H3J H 0.0998 0.1189 0.0193 0.1860 Uiso
H3O H 0.1502 0.1311 0.0193 0.1860 Uiso
H3K H 0.0193 0.0998 0.1189 0.1860 Uiso
H3Q H 0.0193 0.1502 0.1311 0.1860 Uiso
H3L H 0.2307 0.1502 0.1189 0.1860 Uiso
H3N H 0.2307 0.0998 0.1311 0.1860 Uiso
H3M H 0.0998 0.1311 0.2307 0.1860 Uiso
H3P H 0.1502 0.1189 0.2307 0.1860 Uiso
O5 O 0.3262(8) 0.1250 0.1250 0.1487 Uani
H4 H 0.3079 0.1284 0.0992 0.2250 Uiso
H4E H 0.3079 0.1216 0.1508 0.2250 Uiso
loop_
_atom_site_aniso_label
_atom_site_aniso_U_11
_atom_site_aniso_U_22
_atom_site_aniso_U_33
_atom_site_aniso_U_23
_atom_site_aniso_U_13
_atom_site_aniso_U_12
Eu1 0.0243(2) 0.0243(2) 0.0243(2) 0.00656(12) -0.00656(12) -0.00656(12)
Ca1 0.0244(5) 0.0244(5) 0.0244(5) -0.0056(4) -0.0056(4) -0.0056(4)
O1 0.0344(18) 0.0344(18) 0.055(4) 0.0097(18) -0.0097(18) -0.005(2)
O2 0.032(2) 0.042(2) 0.061(3) 0.0074(19) -0.0075(18) -0.0044(17)
O3 0.034(2) 0.059(3) 0.061(3) 0.009(2) -0.004(2) -0.002(2)
C1 0.032(3) 0.050(4) 0.128(7) 0.023(4) -0.016(4) -0.012(3)
C2 0.028(3) 0.051(3) 0.040(3) 0.002(2) -0.008(2) -0.003(2)
Ca1W 0.0244 0.0244 0.0244 -0.0056 -0.0056 -0.0056
Ca1V 0.0244 0.0244 0.0244 0.0056 -0.0056 0.0056
Ca1R 0.0244 0.0244 0.0244 0.0056 0.0056 -0.0056
Ca1O 0.0244 0.0244 0.0244 0.0056 0.0056 -0.0056
Ca1N 0.0244 0.0244 0.0244 0.0056 -0.0056 0.0056
O1N 0.0344 0.055 0.0344 0.0097 -0.005 -0.0097
O1O 0.055 0.0344 0.0344 0.005 -0.0097 -0.0097
O2R 0.042 0.032 0.061 0.0075 -0.0074 -0.0044
O2N 0.042 0.061 0.032 0.0075 -0.0044 -0.0074
O2QB 0.032 0.061 0.042 0.0074 -0.0044 -0.0075
O2O 0.061 0.032 0.042 0.0044 -0.0074 -0.0075
O2V 0.061 0.042 0.032 0.0044 -0.0075 -0.0074
O3R 0.059 0.034 0.061 0.004 -0.009 -0.002
O3N 0.059 0.061 0.034 0.004 -0.002 -0.009
O3QB 0.034 0.061 0.059 0.009 -0.002 -0.004
O3O 0.061 0.034 0.059 0.002 -0.009 -0.004
O3V 0.061 0.059 0.034 0.002 -0.004 -0.009
O3GB 0.059 0.061 0.034 -0.004 -0.002 0.009
O3DC 0.061 0.034 0.059 -0.002 0.009 -0.004
O3RC 0.034 0.059 0.061 0.009 -0.004 -0.002
O3YE 0.059 0.061 0.034 -0.004 -0.002 0.009
O3VF 0.061 0.034 0.059 -0.002 0.009 -0.004
C1R 0.05 0.032 0.128 0.016 -0.023 -0.012
C1N 0.05 0.128 0.032 0.016 -0.012 -0.023
C1QB 0.032 0.128 0.05 0.023 -0.012 -0.016
C1O 0.128 0.032 0.05 0.012 -0.023 -0.016
C1V 0.128 0.05 0.032 0.012 -0.016 -0.023
C2R 0.051 0.028 0.04 0.008 -0.002 -0.003
C2N 0.051 0.04 0.028 0.008 -0.003 -0.002
C2QB 0.028 0.04 0.051 0.002 -0.003 -0.008
C2O 0.04 0.028 0.051 0.003 -0.002 -0.008
C2V 0.04 0.051 0.028 0.003 -0.008 -0.002
Ca2 0.0745(16) 0.0745(16) 0.0745(16) 0.000 0.000 0.000
O4 0.229(13) 0.073(6) 0.071(6) 0.000 0.000(7) 0.000
O4B 0.229 0.073 0.071 0 0 0
O4J 0.071 0.229 0.073 0 0 0
O4K 0.073 0.071 0.229 0 0 0
O4L 0.073 0.071 0.229 0 0 0
O4M 0.071 0.229 0.073 0 0 0
O5 0.100(17) 0.096(16) 0.25(3) 0.019(19) 0.000 0.000
loop_
_geom_bond_atom_site_label_1
_geom_bond_atom_site_label_2
_geom_bond_site_symmetry_1
_geom_bond_site_symmetry_2
Eu1 O1 1_555 1_555
Ca1 O3 1_555 1_555
O1 C1 1_555 1_555
O2 Eu1 1_555 1_555
O3 C2 1_555 1_555
C1 H1 1_555 1_555
H2 C1 1_555 1_555
C2 O2 1_555 1_555
Ca2 O4 1_555 1_555
O4 H3 1_555 1_555
O5 H4 1_555 1_555
Ca1W O3QB 1_555 1_555
Ca1V O3V 1_555 1_555
Ca1R O3R 1_555 1_555
Ca1O O3O 1_555 1_555
Ca1N O3N 1_555 1_555
O1N Eu1 1_555 1_555
O1O Eu1 1_555 1_555
O2R Eu1 1_555 1_555
O2N Eu1 1_555 1_555
O2QB Eu1 1_555 1_555
O2O Eu1 1_555 1_555
O2V Eu1 1_555 1_555
O3R C2R 1_555 1_555
O3N C2N 1_555 1_555
O3QB C2QB 1_555 1_555
O3O C2O 1_555 1_555
O3V C2V 1_555 1_555
O3GB Ca1 1_555 1_555
O3DC Ca1 1_555 1_555
O3RC Ca1 1_555 1_555
O3YE Ca1 1_555 1_555
O3VF Ca1 1_555 1_555
C1R O1 1_555 1_555
C1N O1N 1_555 1_555
C1QB O1N 1_555 1_555
C1O O1O 1_555 1_555
C1V O1O 1_555 1_555
H1R C1R 1_555 1_555
H1N C1N 1_555 1_555
H1QB C1QB 1_555 1_555
H1O C1O 1_555 1_555
H1V C1V 1_555 1_555
H2R C1R 1_555 1_555
H2N C1N 1_555 1_555
H2QB C1QB 1_555 1_555
H2O C1O 1_555 1_555
H2V C1V 1_555 1_555
C2R O2R 1_555 1_555
C2N O2N 1_555 1_555
C2QB O2QB 1_555 1_555
C2O O2O 1_555 1_555
C2V O2V 1_555 1_555
O4B Ca2 1_555 1_555
O4J Ca2 1_555 1_555
O4K Ca2 1_555 1_555
O4L Ca2 1_555 1_555
O4M Ca2 1_555 1_555
H3H O4 1_555 1_555
H3B O4B 1_555 1_555
H3E O4B 1_555 1_555
H3J O4J 1_555 1_555
H3O O4J 1_555 1_555
H3K O4K 1_555 1_555
H3Q O4K 1_555 1_555
H3L O4L 1_555 1_555
H3N O4L 1_555 1_555
H3M O4M 1_555 1_555
H3P O4M 1_555 1_555
H4E O5 1_555 1_555
C1 C2 1_555 1_555
C1R C2R 1_555 1_555
C1N C2N 1_555 1_555
C1QB C2QB 1_555 1_555
C1O C2O 1_555 1_555
C1V C2V 1_555 1_555

#END
