
#######################################################################
#
#                 Cambridge Crystallographic Data Centre
#                                CCDC 
#
#######################################################################
#
# If this CIF has been generated from an entry in the Cambridge 
# Structural Database, then it will include bibliographic, chemical, 
# crystal, experimental, refinement or atomic coordinate data resulting 
# from the CCDC's data processing and validation procedures.
#
#######################################################################

data_FELWOK
_chemical_formula_moiety         '(C12 H26 Ca2 O22 Yb1)n'
_symmetry_cell_setting           cubic
_symmetry_space_group_name_H-M   'F d 3 c'
_symmetry_Int_Tables_number      228
_space_group_name_Hall           '-F 4ud 2vw 3'
loop_
_symmetry_equiv_pos_site_id
_symmetry_equiv_pos_as_xyz
1 x,y,z
2 1/4-x,3/4-y,1/2+z
3 3/4-x,1/2+y,1/4-z
4 1/2+x,1/4-y,3/4-z
5 z,x,y
6 1/2+z,1/4-x,3/4-y
7 1/4-z,3/4-x,1/2+y
8 3/4-z,1/2+x,1/4-y
9 y,z,x
10 3/4-y,1/2+z,1/4-x
11 1/2+y,1/4-z,3/4-x
12 1/4-y,3/4-z,1/2+x
13 3/4+y,1/4+x,-z
14 1/2-y,1/2-x,1/2-z
15 1/4+y,-x,3/4+z
16 -y,3/4+x,1/4+z
17 3/4+x,1/4+z,-y
18 -x,3/4+z,1/4+y
19 1/2-x,1/2-z,1/2-y
20 1/4+x,-z,3/4+y
21 3/4+z,1/4+y,-x
22 1/4+z,-y,3/4+x
23 -z,3/4+y,1/4+x
24 1/2-z,1/2-y,1/2-x
25 x,1/2+y,1/2+z
26 1/4-x,1/4-y,z
27 3/4-x,y,3/4-z
28 1/2+x,3/4-y,1/4-z
29 z,1/2+x,1/2+y
30 1/2+z,3/4-x,1/4-y
31 1/4-z,1/4-x,y
32 3/4-z,x,3/4-y
33 y,1/2+z,1/2+x
34 3/4-y,z,3/4-x
35 1/2+y,3/4-z,1/4-x
36 1/4-y,1/4-z,x
37 3/4+y,3/4+x,1/2-z
38 1/2-y,-x,-z
39 1/4+y,1/2-x,1/4+z
40 -y,1/4+x,3/4+z
41 3/4+x,3/4+z,1/2-y
42 -x,1/4+z,3/4+y
43 1/2-x,-z,-y
44 1/4+x,1/2-z,1/4+y
45 3/4+z,3/4+y,1/2-x
46 1/4+z,1/2-y,1/4+x
47 -z,1/4+y,3/4+x
48 1/2-z,-y,-x
49 1/2+x,y,1/2+z
50 3/4-x,3/4-y,z
51 1/4-x,1/2+y,3/4-z
52 x,1/4-y,1/4-z
53 1/2+z,x,1/2+y
54 z,1/4-x,1/4-y
55 3/4-z,3/4-x,y
56 1/4-z,1/2+x,3/4-y
57 1/2+y,z,1/2+x
58 1/4-y,1/2+z,3/4-x
59 y,1/4-z,1/4-x
60 3/4-y,3/4-z,x
61 1/4+y,1/4+x,1/2-z
62 -y,1/2-x,-z
63 3/4+y,-x,1/4+z
64 1/2-y,3/4+x,3/4+z
65 1/4+x,1/4+z,1/2-y
66 1/2-x,3/4+z,3/4+y
67 -x,1/2-z,-y
68 3/4+x,-z,1/4+y
69 1/4+z,1/4+y,1/2-x
70 3/4+z,-y,1/4+x
71 1/2-z,3/4+y,3/4+x
72 -z,1/2-y,-x
73 1/2+x,1/2+y,z
74 3/4-x,1/4-y,1/2+z
75 1/4-x,y,1/4-z
76 x,3/4-y,3/4-z
77 1/2+z,1/2+x,y
78 z,3/4-x,3/4-y
79 3/4-z,1/4-x,1/2+y
80 1/4-z,x,1/4-y
81 1/2+y,1/2+z,x
82 1/4-y,z,1/4-x
83 y,3/4-z,3/4-x
84 3/4-y,1/4-z,1/2+x
85 1/4+y,3/4+x,-z
86 -y,-x,1/2-z
87 3/4+y,1/2-x,3/4+z
88 1/2-y,1/4+x,1/4+z
89 1/4+x,3/4+z,-y
90 1/2-x,1/4+z,1/4+y
91 -x,-z,1/2-y
92 3/4+x,1/2-z,3/4+y
93 1/4+z,3/4+y,-x
94 3/4+z,1/2-y,3/4+x
95 1/2-z,1/4+y,1/4+x
96 -z,-y,1/2-x
97 -x,-y,-z
98 3/4+x,1/4+y,1/2-z
99 1/4+x,1/2-y,3/4+z
100 1/2-x,3/4+y,1/4+z
101 -z,-x,-y
102 1/2-z,3/4+x,1/4+y
103 3/4+z,1/4+x,1/2-y
104 1/4+z,1/2-x,3/4+y
105 -y,-z,-x
106 1/4+y,1/2-z,3/4+x
107 1/2-y,3/4+z,1/4+x
108 3/4+y,1/4+z,1/2-x
109 1/4-y,3/4-x,z
110 1/2+y,1/2+x,1/2+z
111 3/4-y,x,1/4-z
112 y,1/4-x,3/4-z
113 1/4-x,3/4-z,y
114 x,1/4-z,3/4-y
115 1/2+x,1/2+z,1/2+y
116 3/4-x,z,1/4-y
117 1/4-z,3/4-y,x
118 3/4-z,y,1/4-x
119 z,1/4-y,3/4-x
120 1/2+z,1/2+y,1/2+x
121 -x,1/2-y,1/2-z
122 3/4+x,3/4+y,-z
123 1/4+x,-y,1/4+z
124 1/2-x,1/4+y,3/4+z
125 -z,1/2-x,1/2-y
126 1/2-z,1/4+x,3/4+y
127 3/4+z,3/4+x,-y
128 1/4+z,-x,1/4+y
129 -y,1/2-z,1/2-x
130 1/4+y,-z,1/4+x
131 1/2-y,1/4+z,3/4+x
132 3/4+y,3/4+z,-x
133 1/4-y,1/4-x,1/2+z
134 1/2+y,x,z
135 3/4-y,1/2+x,3/4-z
136 y,3/4-x,1/4-z
137 1/4-x,1/4-z,1/2+y
138 x,3/4-z,1/4-y
139 1/2+x,z,y
140 3/4-x,1/2+z,3/4-y
141 1/4-z,1/4-y,1/2+x
142 3/4-z,1/2+y,3/4-x
143 z,3/4-y,1/4-x
144 1/2+z,y,x
145 1/2-x,-y,1/2-z
146 1/4+x,1/4+y,-z
147 3/4+x,1/2-y,1/4+z
148 -x,3/4+y,3/4+z
149 1/2-z,-x,1/2-y
150 -z,3/4+x,3/4+y
151 1/4+z,1/4+x,-y
152 3/4+z,1/2-x,1/4+y
153 1/2-y,-z,1/2-x
154 3/4+y,1/2-z,1/4+x
155 -y,3/4+z,3/4+x
156 1/4+y,1/4+z,-x
157 3/4-y,3/4-x,1/2+z
158 y,1/2+x,z
159 1/4-y,x,3/4-z
160 1/2+y,1/4-x,1/4-z
161 3/4-x,3/4-z,1/2+y
162 1/2+x,1/4-z,1/4-y
163 x,1/2+z,y
164 1/4-x,z,3/4-y
165 3/4-z,3/4-y,1/2+x
166 1/4-z,y,3/4-x
167 1/2+z,1/4-y,1/4-x
168 z,1/2+y,x
169 1/2-x,1/2-y,-z
170 1/4+x,3/4+y,1/2-z
171 3/4+x,-y,3/4+z
172 -x,1/4+y,1/4+z
173 1/2-z,1/2-x,-y
174 -z,1/4+x,1/4+y
175 1/4+z,3/4+x,1/2-y
176 3/4+z,-x,3/4+y
177 1/2-y,1/2-z,-x
178 3/4+y,-z,3/4+x
179 -y,1/4+z,1/4+x
180 1/4+y,3/4+z,1/2-x
181 3/4-y,1/4-x,z
182 y,x,1/2+z
183 1/4-y,1/2+x,1/4-z
184 1/2+y,3/4-x,3/4-z
185 3/4-x,1/4-z,y
186 1/2+x,3/4-z,3/4-y
187 x,z,1/2+y
188 1/4-x,1/2+z,1/4-y
189 3/4-z,1/4-y,x
190 1/4-z,1/2+y,1/4-x
191 1/2+z,3/4-y,3/4-x
192 z,y,1/2+x
_cell_length_a                   26.4280(10)
_cell_length_b                   26.4280(10)
_cell_length_c                   26.4280(10)
_cell_angle_alpha                90
_cell_angle_beta                 90
_cell_angle_gamma                90
_cell_volume                     18458.4
loop_
_atom_site_label
_atom_site_type_symbol
_atom_site_fract_x
_atom_site_fract_y
_atom_site_fract_z
_atom_site_U_iso_or_equiv
_atom_site_thermal_displace_type
Yb1 Yb 0.0000 0.2500 0.0000 0.0242 Uani
Ca1 Ca 0.0000 0.5000 0.0000 0.0253 Uani
O1 O -0.0000 0.31475(13) 0.06475(13) 0.0371 Uani
O2 O 0.00873(13) 0.33263(13) -0.02983(13) 0.0390 Uani
O3 O 0.01477(14) 0.41551(14) -0.02090(14) 0.0440 Uani
C1 C 0.0043(3) 0.3664(2) 0.0527(2) 0.0627 Uani
H1 H 0.0336 0.3807 0.0695 0.0750 Uiso
H2 H -0.0255 0.3844 0.0642 0.0750 Uiso
C2 C 0.0097(3) 0.3719(3) -0.00328(18) 0.0350 Uani
Ca1J Ca 0.0000 0.2500 -0.2500 0.0253 Uani
Ca1V Ca 0.0000 0.2500 0.2500 0.0253 Uani
Ca1KA Ca 0.0000 0.0000 0.0000 0.0253 Uani
Ca1IA Ca -0.2500 0.2500 0.0000 0.0253 Uani
Ca1L Ca 0.2500 0.2500 0.0000 0.0253 Uani
O1L O 0.06475(13) 0.2500 -0.06475(13) 0.0371 Uani
O1IA O -0.06475(13) 0.18525(13) 0.0000 0.0371 Uani
O2OA O -0.00873(13) 0.22017(13) 0.08263(13) 0.0390 Uani
O2L O 0.08263(13) 0.25873(13) 0.02983(13) 0.0390 Uani
O2AB O -0.02983(13) 0.24127(13) -0.08263(13) 0.0390 Uani
O2IA O -0.08263(13) 0.27983(13) 0.00873(13) 0.0390 Uani
O2SB O 0.02983(13) 0.16737(13) -0.00873(13) 0.0390 Uani
O3OA O -0.01477(14) 0.22910(14) 0.16551(14) 0.0440 Uani
O3L O 0.16551(14) 0.26477(14) 0.02090(14) 0.0440 Uani
O3AB O -0.02090(14) 0.23523(14) -0.16551(14) 0.0440 Uani
O3IA O -0.16551(14) 0.27090(14) 0.01477(14) 0.0440 Uani
O3SB O 0.02090(14) 0.08449(14) -0.01477(14) 0.0440 Uani
O3BA O -0.02090(14) 0.51477(14) -0.08449(14) 0.0440 Uani
O3BC O -0.08449(14) 0.47910(14) 0.01477(14) 0.0440 Uani
O3RC O -0.01477(14) 0.58449(14) 0.02090(14) 0.0440 Uani
O3TD O 0.02090(14) 0.48523(14) 0.08449(14) 0.0440 Uani
O3TF O 0.08449(14) 0.52090(14) -0.01477(14) 0.0440 Uani
C1OA C -0.0043(3) 0.3027(2) 0.1164(2) 0.0627 Uani
C1L C 0.1164(2) 0.2543(3) -0.0527(2) 0.0627 Uani
C1AB C 0.0527(2) 0.2457(3) -0.1164(2) 0.0627 Uani
C1IA C -0.1164(2) 0.1973(2) 0.0043(3) 0.0627 Uani
C1SB C -0.0527(2) 0.1336(2) -0.0043(3) 0.0627 Uani
H1OA H -0.0336 0.3195 0.1307 0.0750 Uiso
H1L H 0.1307 0.2836 -0.0695 0.0750 Uiso
H1AB H 0.0695 0.2164 -0.1307 0.0750 Uiso
H1IA H -0.1307 0.1805 0.0336 0.0750 Uiso
H1SB H -0.0695 0.1193 -0.0336 0.0750 Uiso
H2OA H 0.0255 0.3142 0.1344 0.0750 Uiso
H2L H 0.1344 0.2245 -0.0642 0.0750 Uiso
H2AB H 0.0642 0.2755 -0.1344 0.0750 Uiso
H2IA H -0.1344 0.1858 -0.0255 0.0750 Uiso
H2SB H -0.0642 0.1156 0.0255 0.0750 Uiso
C2OA C -0.0097(3) 0.24672(18) 0.1219(3) 0.0350 Uani
C2L C 0.1219(3) 0.2597(3) 0.00328(18) 0.0350 Uani
C2AB C -0.00328(18) 0.2403(3) -0.1219(3) 0.0350 Uani
C2IA C -0.1219(3) 0.25328(18) 0.0097(3) 0.0350 Uani
C2SB C 0.00328(18) 0.1281(3) -0.0097(3) 0.0350 Uani
Ca2 Ca 0.1250 0.1250 0.1250 0.0675 Uani
O4 O 0.0381(3) 0.1250 0.1250 0.1143 Uani
H3 H 0.0196 0.0995 0.1313 0.1710 Uiso
O4D O 0.1250 0.0381(3) 0.1250 0.1143 Uani
O4H O 0.1250 0.1250 0.0381(3) 0.1143 Uani
O4Y O 0.2119(3) 0.1250 0.1250 0.1143 Uani
O4DA O 0.1250 0.2119(3) 0.1250 0.1143 Uani
O4FB O 0.1250 0.1250 0.2119(3) 0.1143 Uani
H3YA H 0.0196 0.1505 0.1187 0.1710 Uiso
H3D H 0.1313 0.0196 0.0995 0.1710 Uiso
H3AC H 0.1187 0.0196 0.1505 0.1710 Uiso
H3H H 0.0995 0.1313 0.0196 0.1710 Uiso
H3IA H 0.1505 0.1187 0.0196 0.1710 Uiso
H3Y H 0.2304 0.1505 0.1313 0.1710 Uiso
H3VB H 0.2304 0.0995 0.1187 0.1710 Uiso
H3DA H 0.1187 0.2304 0.0995 0.1710 Uiso
H3AB H 0.1313 0.2304 0.1505 0.1710 Uiso
H3FB H 0.0995 0.1187 0.2304 0.1710 Uiso
H3CC H 0.1505 0.1313 0.2304 0.1710 Uiso
O5 O 0.1250 0.1250 0.3267(7) 0.1430 Uani
H4 H 0.1261 0.0969 0.3161 0.2140 Uiso
H4Y H 0.1239 0.1531 0.3161 0.2140 Uiso
loop_
_atom_site_aniso_label
_atom_site_aniso_U_11
_atom_site_aniso_U_22
_atom_site_aniso_U_33
_atom_site_aniso_U_23
_atom_site_aniso_U_13
_atom_site_aniso_U_12
Yb1 0.0242(3) 0.0242(3) 0.0242(3) -0.00359(10) 0.00359(10) -0.00359(10)
Ca1 0.0253(9) 0.0253(9) 0.0253(9) -0.0020(4) -0.0020(4) -0.0020(4)
O1 0.052(3) 0.0296(16) 0.0296(16) 0.0010(19) 0.0072(13) -0.0072(13)
O2 0.050(2) 0.033(2) 0.034(2) -0.0064(15) 0.0037(15) -0.0058(14)
O3 0.054(2) 0.031(2) 0.047(2) 0.0014(16) 0.005(2) -0.0019(15)
C1 0.115(5) 0.031(3) 0.042(4) -0.005(2) 0.016(3) -0.013(3)
C2 0.035(3) 0.033(4) 0.037(3) -0.002(2) 0.0001(19) -0.004(2)
Ca1J 0.0253 0.0253 0.0253 -0.002 0.002 0.002
Ca1V 0.0253 0.0253 0.0253 -0.002 0.002 0.002
Ca1KA 0.0253 0.0253 0.0253 -0.002 -0.002 -0.002
Ca1IA 0.0253 0.0253 0.0253 0.002 0.002 -0.002
Ca1L 0.0253 0.0253 0.0253 0.002 0.002 -0.002
O1L 0.0296 0.052 0.0296 -0.0072 -0.001 -0.0072
O1IA 0.0296 0.0296 0.052 -0.0072 0.0072 0.001
O2OA 0.05 0.034 0.033 -0.0064 0.0058 -0.0037
O2L 0.033 0.05 0.034 -0.0037 0.0064 -0.0058
O2AB 0.034 0.05 0.033 -0.0058 0.0064 -0.0037
O2IA 0.033 0.034 0.05 -0.0037 0.0058 -0.0064
O2SB 0.034 0.033 0.05 -0.0058 0.0037 -0.0064
O3OA 0.054 0.047 0.031 0.0014 0.0019 -0.005
O3L 0.031 0.054 0.047 -0.005 -0.0014 -0.0019
O3AB 0.047 0.054 0.031 -0.0019 -0.0014 -0.005
O3IA 0.031 0.047 0.054 -0.005 0.0019 0.0014
O3SB 0.047 0.031 0.054 -0.0019 0.005 0.0014
O3BA 0.047 0.054 0.031 -0.0019 0.0014 0.005
O3BC 0.031 0.047 0.054 0.005 -0.0019 0.0014
O3RC 0.054 0.031 0.047 0.0014 0.005 -0.0019
O3TD 0.047 0.054 0.031 -0.0019 0.0014 0.005
O3TF 0.031 0.047 0.054 0.005 -0.0019 0.0014
C1OA 0.115 0.042 0.031 -0.005 0.013 -0.016
C1L 0.031 0.115 0.042 -0.016 0.005 -0.013
C1AB 0.042 0.115 0.031 -0.013 0.005 -0.016
C1IA 0.031 0.042 0.115 -0.016 0.013 -0.005
C1SB 0.042 0.031 0.115 -0.013 0.016 -0.005
C2OA 0.035 0.037 0.033 -0.002 0.004 -0.0001
C2L 0.033 0.035 0.037 -0.0001 0.002 -0.004
C2AB 0.037 0.035 0.033 -0.004 0.002 -0.0001
C2IA 0.033 0.037 0.035 -0.0001 0.004 -0.002
C2SB 0.037 0.033 0.035 -0.004 0.0001 -0.002
Ca2 0.0675(14) 0.0675(14) 0.0675(14) 0.000 0.000 0.000
O4 0.067(5) 0.055(4) 0.221(11) 0.010(5) 0.000 0.000
O4D 0.221 0.067 0.055 0 0.01 0
O4H 0.055 0.221 0.067 0 0 0.01
O4Y 0.067 0.055 0.221 -0.01 0 0
O4DA 0.221 0.067 0.055 0 -0.01 0
O4FB 0.055 0.221 0.067 0 0 -0.01
O5 0.069(11) 0.27(3) 0.090(14) 0.000 0.000 0.011(13)
loop_
_geom_bond_atom_site_label_1
_geom_bond_atom_site_label_2
_geom_bond_site_symmetry_1
_geom_bond_site_symmetry_2
Yb1 O1 1_555 1_555
Ca1 O3 1_555 1_555
O1 C1 1_555 1_555
O2 Yb1 1_555 1_555
O3 C2 1_555 1_555
C1 H1 1_555 1_555
H2 C1 1_555 1_555
C2 O2 1_555 1_555
Ca2 O4 1_555 1_555
O4 H3 1_555 1_555
O5 H4 1_555 1_555
Ca1J O3AB 1_555 1_555
Ca1V O3OA 1_555 1_555
Ca1KA O3SB 1_555 1_555
Ca1IA O3IA 1_555 1_555
Ca1L O3L 1_555 1_555
O1L Yb1 1_555 1_555
O1IA Yb1 1_555 1_555
O2OA Yb1 1_555 1_555
O2L Yb1 1_555 1_555
O2AB Yb1 1_555 1_555
O2IA Yb1 1_555 1_555
O2SB Yb1 1_555 1_555
O3OA C2OA 1_555 1_555
O3L C2L 1_555 1_555
O3AB C2AB 1_555 1_555
O3IA C2IA 1_555 1_555
O3SB C2SB 1_555 1_555
O3BA Ca1 1_555 1_555
O3BC Ca1 1_555 1_555
O3RC Ca1 1_555 1_555
O3TD Ca1 1_555 1_555
O3TF Ca1 1_555 1_555
C1OA O1 1_555 1_555
C1L O1L 1_555 1_555
C1AB O1L 1_555 1_555
C1IA O1IA 1_555 1_555
C1SB O1IA 1_555 1_555
H1OA C1OA 1_555 1_555
H1L C1L 1_555 1_555
H1AB C1AB 1_555 1_555
H1IA C1IA 1_555 1_555
H1SB C1SB 1_555 1_555
H2OA C1OA 1_555 1_555
H2L C1L 1_555 1_555
H2AB C1AB 1_555 1_555
H2IA C1IA 1_555 1_555
H2SB C1SB 1_555 1_555
C2OA O2OA 1_555 1_555
C2L O2L 1_555 1_555
C2AB O2AB 1_555 1_555
C2IA O2IA 1_555 1_555
C2SB O2SB 1_555 1_555
O4D Ca2 1_555 1_555
O4H Ca2 1_555 1_555
O4Y Ca2 1_555 1_555
O4DA Ca2 1_555 1_555
O4FB Ca2 1_555 1_555
H3YA O4 1_555 1_555
H3D O4D 1_555 1_555
H3AC O4D 1_555 1_555
H3H O4H 1_555 1_555
H3IA O4H 1_555 1_555
H3Y O4Y 1_555 1_555
H3VB O4Y 1_555 1_555
H3DA O4DA 1_555 1_555
H3AB O4DA 1_555 1_555
H3FB O4FB 1_555 1_555
H3CC O4FB 1_555 1_555
H4Y O5 1_555 1_555
C1 C2 1_555 1_555
C1OA C2OA 1_555 1_555
C1L C2L 1_555 1_555
C1AB C2AB 1_555 1_555
C1IA C2IA 1_555 1_555
C1SB C2SB 1_555 1_555

#END
