
#######################################################################
#
#                 Cambridge Crystallographic Data Centre
#                                CCDC 
#
#######################################################################
#
# If this CIF has been generated from an entry in the Cambridge 
# Structural Database, then it will include bibliographic, chemical, 
# crystal, experimental, refinement or atomic coordinate data resulting 
# from the CCDC's data processing and validation procedures.
#
#######################################################################

data_FELWAW
_chemical_formula_moiety         '(C12 H26 Ca2 Lu1 O22)n'
_symmetry_cell_setting           cubic
_symmetry_space_group_name_H-M   'F d 3 c'
_symmetry_Int_Tables_number      228
_space_group_name_Hall           '-F 4ud 2vw 3'
loop_
_symmetry_equiv_pos_site_id
_symmetry_equiv_pos_as_xyz
1 x,y,z
2 1/4-x,3/4-y,1/2+z
3 3/4-x,1/2+y,1/4-z
4 1/2+x,1/4-y,3/4-z
5 z,x,y
6 1/2+z,1/4-x,3/4-y
7 1/4-z,3/4-x,1/2+y
8 3/4-z,1/2+x,1/4-y
9 y,z,x
10 3/4-y,1/2+z,1/4-x
11 1/2+y,1/4-z,3/4-x
12 1/4-y,3/4-z,1/2+x
13 3/4+y,1/4+x,-z
14 1/2-y,1/2-x,1/2-z
15 1/4+y,-x,3/4+z
16 -y,3/4+x,1/4+z
17 3/4+x,1/4+z,-y
18 -x,3/4+z,1/4+y
19 1/2-x,1/2-z,1/2-y
20 1/4+x,-z,3/4+y
21 3/4+z,1/4+y,-x
22 1/4+z,-y,3/4+x
23 -z,3/4+y,1/4+x
24 1/2-z,1/2-y,1/2-x
25 x,1/2+y,1/2+z
26 1/4-x,1/4-y,z
27 3/4-x,y,3/4-z
28 1/2+x,3/4-y,1/4-z
29 z,1/2+x,1/2+y
30 1/2+z,3/4-x,1/4-y
31 1/4-z,1/4-x,y
32 3/4-z,x,3/4-y
33 y,1/2+z,1/2+x
34 3/4-y,z,3/4-x
35 1/2+y,3/4-z,1/4-x
36 1/4-y,1/4-z,x
37 3/4+y,3/4+x,1/2-z
38 1/2-y,-x,-z
39 1/4+y,1/2-x,1/4+z
40 -y,1/4+x,3/4+z
41 3/4+x,3/4+z,1/2-y
42 -x,1/4+z,3/4+y
43 1/2-x,-z,-y
44 1/4+x,1/2-z,1/4+y
45 3/4+z,3/4+y,1/2-x
46 1/4+z,1/2-y,1/4+x
47 -z,1/4+y,3/4+x
48 1/2-z,-y,-x
49 1/2+x,y,1/2+z
50 3/4-x,3/4-y,z
51 1/4-x,1/2+y,3/4-z
52 x,1/4-y,1/4-z
53 1/2+z,x,1/2+y
54 z,1/4-x,1/4-y
55 3/4-z,3/4-x,y
56 1/4-z,1/2+x,3/4-y
57 1/2+y,z,1/2+x
58 1/4-y,1/2+z,3/4-x
59 y,1/4-z,1/4-x
60 3/4-y,3/4-z,x
61 1/4+y,1/4+x,1/2-z
62 -y,1/2-x,-z
63 3/4+y,-x,1/4+z
64 1/2-y,3/4+x,3/4+z
65 1/4+x,1/4+z,1/2-y
66 1/2-x,3/4+z,3/4+y
67 -x,1/2-z,-y
68 3/4+x,-z,1/4+y
69 1/4+z,1/4+y,1/2-x
70 3/4+z,-y,1/4+x
71 1/2-z,3/4+y,3/4+x
72 -z,1/2-y,-x
73 1/2+x,1/2+y,z
74 3/4-x,1/4-y,1/2+z
75 1/4-x,y,1/4-z
76 x,3/4-y,3/4-z
77 1/2+z,1/2+x,y
78 z,3/4-x,3/4-y
79 3/4-z,1/4-x,1/2+y
80 1/4-z,x,1/4-y
81 1/2+y,1/2+z,x
82 1/4-y,z,1/4-x
83 y,3/4-z,3/4-x
84 3/4-y,1/4-z,1/2+x
85 1/4+y,3/4+x,-z
86 -y,-x,1/2-z
87 3/4+y,1/2-x,3/4+z
88 1/2-y,1/4+x,1/4+z
89 1/4+x,3/4+z,-y
90 1/2-x,1/4+z,1/4+y
91 -x,-z,1/2-y
92 3/4+x,1/2-z,3/4+y
93 1/4+z,3/4+y,-x
94 3/4+z,1/2-y,3/4+x
95 1/2-z,1/4+y,1/4+x
96 -z,-y,1/2-x
97 -x,-y,-z
98 3/4+x,1/4+y,1/2-z
99 1/4+x,1/2-y,3/4+z
100 1/2-x,3/4+y,1/4+z
101 -z,-x,-y
102 1/2-z,3/4+x,1/4+y
103 3/4+z,1/4+x,1/2-y
104 1/4+z,1/2-x,3/4+y
105 -y,-z,-x
106 1/4+y,1/2-z,3/4+x
107 1/2-y,3/4+z,1/4+x
108 3/4+y,1/4+z,1/2-x
109 1/4-y,3/4-x,z
110 1/2+y,1/2+x,1/2+z
111 3/4-y,x,1/4-z
112 y,1/4-x,3/4-z
113 1/4-x,3/4-z,y
114 x,1/4-z,3/4-y
115 1/2+x,1/2+z,1/2+y
116 3/4-x,z,1/4-y
117 1/4-z,3/4-y,x
118 3/4-z,y,1/4-x
119 z,1/4-y,3/4-x
120 1/2+z,1/2+y,1/2+x
121 -x,1/2-y,1/2-z
122 3/4+x,3/4+y,-z
123 1/4+x,-y,1/4+z
124 1/2-x,1/4+y,3/4+z
125 -z,1/2-x,1/2-y
126 1/2-z,1/4+x,3/4+y
127 3/4+z,3/4+x,-y
128 1/4+z,-x,1/4+y
129 -y,1/2-z,1/2-x
130 1/4+y,-z,1/4+x
131 1/2-y,1/4+z,3/4+x
132 3/4+y,3/4+z,-x
133 1/4-y,1/4-x,1/2+z
134 1/2+y,x,z
135 3/4-y,1/2+x,3/4-z
136 y,3/4-x,1/4-z
137 1/4-x,1/4-z,1/2+y
138 x,3/4-z,1/4-y
139 1/2+x,z,y
140 3/4-x,1/2+z,3/4-y
141 1/4-z,1/4-y,1/2+x
142 3/4-z,1/2+y,3/4-x
143 z,3/4-y,1/4-x
144 1/2+z,y,x
145 1/2-x,-y,1/2-z
146 1/4+x,1/4+y,-z
147 3/4+x,1/2-y,1/4+z
148 -x,3/4+y,3/4+z
149 1/2-z,-x,1/2-y
150 -z,3/4+x,3/4+y
151 1/4+z,1/4+x,-y
152 3/4+z,1/2-x,1/4+y
153 1/2-y,-z,1/2-x
154 3/4+y,1/2-z,1/4+x
155 -y,3/4+z,3/4+x
156 1/4+y,1/4+z,-x
157 3/4-y,3/4-x,1/2+z
158 y,1/2+x,z
159 1/4-y,x,3/4-z
160 1/2+y,1/4-x,1/4-z
161 3/4-x,3/4-z,1/2+y
162 1/2+x,1/4-z,1/4-y
163 x,1/2+z,y
164 1/4-x,z,3/4-y
165 3/4-z,3/4-y,1/2+x
166 1/4-z,y,3/4-x
167 1/2+z,1/4-y,1/4-x
168 z,1/2+y,x
169 1/2-x,1/2-y,-z
170 1/4+x,3/4+y,1/2-z
171 3/4+x,-y,3/4+z
172 -x,1/4+y,1/4+z
173 1/2-z,1/2-x,-y
174 -z,1/4+x,1/4+y
175 1/4+z,3/4+x,1/2-y
176 3/4+z,-x,3/4+y
177 1/2-y,1/2-z,-x
178 3/4+y,-z,3/4+x
179 -y,1/4+z,1/4+x
180 1/4+y,3/4+z,1/2-x
181 3/4-y,1/4-x,z
182 y,x,1/2+z
183 1/4-y,1/2+x,1/4-z
184 1/2+y,3/4-x,3/4-z
185 3/4-x,1/4-z,y
186 1/2+x,3/4-z,3/4-y
187 x,z,1/2+y
188 1/4-x,1/2+z,1/4-y
189 3/4-z,1/4-y,x
190 1/4-z,1/2+y,1/4-x
191 1/2+z,3/4-y,3/4-x
192 z,y,1/2+x
_cell_length_a                   26.3397(4)
_cell_length_b                   26.3397(4)
_cell_length_c                   26.3397(4)
_cell_angle_alpha                90
_cell_angle_beta                 90
_cell_angle_gamma                90
_cell_volume                     18274
loop_
_atom_site_label
_atom_site_type_symbol
_atom_site_fract_x
_atom_site_fract_y
_atom_site_fract_z
_atom_site_U_iso_or_equiv
_atom_site_thermal_displace_type
Lu1 Lu 0.2500 0.0000 0.0000 0.0260 Uani
Ca1 Ca 0.5000 0.0000 0.0000 0.0264 Uani
O1 O 0.31463(11) 0.06463(11) 0.0000 0.0398 Uani
O2 O 0.33238(11) -0.02993(11) 0.00883(11) 0.0403 Uani
O3 O 0.41547(12) -0.02129(12) 0.01495(12) 0.0465 Uani
C1 C 0.36604(19) 0.05252(19) 0.0044(2) 0.0663 Uani
H1 H 0.3804 0.0695 0.0338 0.0800 Uiso
H2 H 0.3841 0.0640 -0.0255 0.0800 Uiso
C2 C 0.3719(2) -0.00372(16) 0.0099(2) 0.0380 Uani
Ca1K Ca 0.2500 -0.2500 0.0000 0.0264 Uani
Ca1P Ca 0.2500 0.2500 0.0000 0.0264 Uani
Ca1Z Ca 0.2500 0.0000 -0.2500 0.0264 Uani
Ca1U Ca 0.2500 0.0000 0.2500 0.0264 Uani
Ca1PA Ca 0.0000 0.0000 0.0000 0.0264 Uani
O1U O 0.2500 -0.06463(11) 0.06463(11) 0.0398 Uani
O1PA O 0.18537(11) 0.0000 -0.06463(11) 0.0398 Uani
O2FC O 0.22007(11) 0.08238(11) -0.00883(11) 0.0403 Uani
O2U O 0.25883(11) 0.02993(11) 0.08238(11) 0.0403 Uani
O2DA O 0.24117(11) -0.08238(11) -0.02993(11) 0.0403 Uani
O2PA O 0.16762(11) -0.00883(11) 0.02993(11) 0.0403 Uani
O2CC O 0.27993(11) 0.00883(11) -0.08238(11) 0.0403 Uani
O3FC O 0.22871(12) 0.16547(12) -0.01495(12) 0.0465 Uani
O3U O 0.26495(12) 0.02129(12) 0.16547(12) 0.0465 Uani
O3DA O 0.23505(12) -0.16547(12) -0.02129(12) 0.0465 Uani
O3PA O 0.08453(12) -0.01495(12) 0.02129(12) 0.0465 Uani
O3CC O 0.27129(12) 0.01495(12) -0.16547(12) 0.0465 Uani
O3DB O 0.47871(12) 0.01495(12) -0.08453(12) 0.0465 Uani
O3XB O 0.51495(12) -0.08453(12) -0.02129(12) 0.0465 Uani
O3RC O 0.58453(12) 0.02129(12) -0.01495(12) 0.0465 Uani
O3VE O 0.52129(12) -0.01495(12) 0.08453(12) 0.0465 Uani
O3PF O 0.48505(12) 0.08453(12) 0.02129(12) 0.0465 Uani
C1FC C 0.30252(19) 0.11604(19) -0.0044(2) 0.0663 Uani
C1U C 0.2544(2) -0.05252(19) 0.11604(19) 0.0663 Uani
C1DA C 0.2456(2) -0.11604(19) 0.05252(19) 0.0663 Uani
C1PA C 0.13396(19) -0.0044(2) -0.05252(19) 0.0663 Uani
C1CC C 0.19748(19) 0.0044(2) -0.11604(19) 0.0663 Uani
H1FC H 0.3195 0.1304 -0.0338 0.0800 Uiso
H1U H 0.2838 -0.0695 0.1304 0.0800 Uiso
H1DA H 0.2162 -0.1304 0.0695 0.0800 Uiso
H1PA H 0.1196 -0.0338 -0.0695 0.0800 Uiso
H1CC H 0.1805 0.0338 -0.1304 0.0800 Uiso
H2FC H 0.3140 0.1341 0.0255 0.0800 Uiso
H2U H 0.2245 -0.0640 0.1341 0.0800 Uiso
H2DA H 0.2755 -0.1341 0.0640 0.0800 Uiso
H2PA H 0.1159 0.0255 -0.0640 0.0800 Uiso
H2CC H 0.1860 -0.0255 -0.1341 0.0800 Uiso
C2FC C 0.24628(16) 0.1219(2) -0.0099(2) 0.0380 Uani
C2U C 0.2599(2) 0.00372(16) 0.1219(2) 0.0380 Uani
C2DA C 0.2401(2) -0.1219(2) -0.00372(16) 0.0380 Uani
C2PA C 0.1281(2) -0.0099(2) 0.00372(16) 0.0380 Uani
C2CC C 0.25372(16) 0.0099(2) -0.1219(2) 0.0380 Uani
Ca2 Ca 0.1250 0.1250 0.1250 0.0564 Uani
O4 O 0.0374(2) 0.1250 0.1250 0.1017 Uani
H3 H 0.0188 0.0991 0.1296 0.1530 Uiso
O4D O 0.1250 0.0374(2) 0.1250 0.1017 Uani
O4H O 0.1250 0.1250 0.0374(2) 0.1017 Uani
O4Y O 0.2126(2) 0.1250 0.1250 0.1017 Uani
O4DA O 0.1250 0.2126(2) 0.1250 0.1017 Uani
O4FB O 0.1250 0.1250 0.2126(2) 0.1017 Uani
H3YA H 0.0188 0.1509 0.1204 0.1530 Uiso
H3D H 0.1296 0.0188 0.0991 0.1530 Uiso
H3AC H 0.1204 0.0188 0.1509 0.1530 Uiso
H3H H 0.0991 0.1296 0.0188 0.1530 Uiso
H3IA H 0.1509 0.1204 0.0188 0.1530 Uiso
H3Y H 0.2312 0.1509 0.1296 0.1530 Uiso
H3VB H 0.2312 0.0991 0.1204 0.1530 Uiso
H3DA H 0.1204 0.2312 0.0991 0.1530 Uiso
H3AB H 0.1296 0.2312 0.1509 0.1530 Uiso
H3FB H 0.0991 0.1204 0.2312 0.1530 Uiso
H3CC H 0.1509 0.1296 0.2312 0.1530 Uiso
O5 O 0.1250 0.3275(7) 0.1250 0.1773 Uani
H4 H 0.0960 0.3164 0.1269 0.2680 Uiso
H4VB H 0.1540 0.3164 0.1231 0.2680 Uiso
loop_
_atom_site_aniso_label
_atom_site_aniso_U_11
_atom_site_aniso_U_22
_atom_site_aniso_U_33
_atom_site_aniso_U_23
_atom_site_aniso_U_13
_atom_site_aniso_U_12
Lu1 0.0260(3) 0.0260(3) 0.0260(3) 0.00406(9) -0.00406(9) -0.00406(9)
Ca1 0.0264(6) 0.0264(6) 0.0264(6) -0.0038(3) -0.0038(3) -0.0038(3)
O1 0.0327(13) 0.0327(13) 0.054(3) 0.0080(12) -0.0080(12) -0.0016(16)
O2 0.0304(15) 0.0373(16) 0.0532(18) 0.0042(12) -0.0048(12) -0.0031(12)
O3 0.0328(17) 0.0488(18) 0.0579(19) 0.0064(16) -0.0025(14) 0.0001(13)
C1 0.034(3) 0.043(3) 0.122(5) 0.013(3) -0.014(3) -0.006(2)
C2 0.036(3) 0.043(3) 0.035(2) -0.0003(17) -0.0029(18) -0.0036(17)
Ca1K 0.0264 0.0264 0.0264 0.0038 0.0038 -0.0038
Ca1P 0.0264 0.0264 0.0264 0.0038 0.0038 -0.0038
Ca1Z 0.0264 0.0264 0.0264 0.0038 -0.0038 0.0038
Ca1U 0.0264 0.0264 0.0264 0.0038 -0.0038 0.0038
Ca1PA 0.0264 0.0264 0.0264 -0.0038 -0.0038 -0.0038
O1U 0.054 0.0327 0.0327 0.0016 -0.008 -0.008
O1PA 0.0327 0.054 0.0327 0.008 -0.0016 -0.008
O2FC 0.0373 0.0304 0.0532 0.0048 -0.0042 -0.0031
O2U 0.0532 0.0373 0.0304 0.0031 -0.0048 -0.0042
O2DA 0.0532 0.0304 0.0373 0.0031 -0.0042 -0.0048
O2PA 0.0304 0.0532 0.0373 0.0042 -0.0031 -0.0048
O2CC 0.0373 0.0532 0.0304 0.0048 -0.0031 -0.0042
O3FC 0.0488 0.0328 0.0579 0.0025 -0.0064 0.0001
O3U 0.0579 0.0488 0.0328 -0.0001 -0.0025 -0.0064
O3DA 0.0579 0.0328 0.0488 -0.0001 -0.0064 -0.0025
O3PA 0.0328 0.0579 0.0488 0.0064 0.0001 -0.0025
O3CC 0.0488 0.0579 0.0328 0.0025 0.0001 -0.0064
O3DB 0.0488 0.0579 0.0328 -0.0025 0.0001 0.0064
O3XB 0.0579 0.0328 0.0488 0.0001 0.0064 -0.0025
O3RC 0.0328 0.0488 0.0579 0.0064 -0.0025 0.0001
O3VE 0.0488 0.0579 0.0328 -0.0025 0.0001 0.0064
O3PF 0.0579 0.0328 0.0488 0.0001 0.0064 -0.0025
C1FC 0.043 0.034 0.122 0.014 -0.013 -0.006
C1U 0.122 0.043 0.034 0.006 -0.014 -0.013
C1DA 0.122 0.034 0.043 0.006 -0.013 -0.014
C1PA 0.034 0.122 0.043 0.013 -0.006 -0.014
C1CC 0.043 0.122 0.034 0.014 -0.006 -0.013
C2FC 0.043 0.036 0.035 0.0029 0.0003 -0.0036
C2U 0.035 0.043 0.036 0.0036 -0.0029 0.0003
C2DA 0.035 0.036 0.043 0.0036 0.0003 -0.0029
C2PA 0.036 0.035 0.043 -0.0003 -0.0036 -0.0029
C2CC 0.043 0.035 0.036 0.0029 -0.0036 0.0003
Ca2 0.0564(9) 0.0564(9) 0.0564(9) 0.000 0.000 0.000
O4 0.054(4) 0.048(3) 0.203(8) 0.000(4) 0.000 0.000
O4D 0.203 0.054 0.048 0 0 0
O4H 0.048 0.203 0.054 0 0 0
O4Y 0.054 0.048 0.203 0 0 0
O4DA 0.203 0.054 0.048 0 0 0
O4FB 0.048 0.203 0.054 0 0 0
O5 0.34(4) 0.090(13) 0.102(13) 0.000 0.021(17) 0.000
loop_
_geom_bond_atom_site_label_1
_geom_bond_atom_site_label_2
_geom_bond_site_symmetry_1
_geom_bond_site_symmetry_2
Lu1 O1 1_555 1_555
Ca1 O3 1_555 1_555
O1 C1 1_555 1_555
O2 Lu1 1_555 1_555
O3 C2 1_555 1_555
C1 H1 1_555 1_555
H2 C1 1_555 1_555
C2 O2 1_555 1_555
Ca2 O4 1_555 1_555
O4 H3 1_555 1_555
O5 H4 1_555 1_555
Ca1K O3DA 1_555 1_555
Ca1P O3FC 1_555 1_555
Ca1Z O3CC 1_555 1_555
Ca1U O3U 1_555 1_555
Ca1PA O3PA 1_555 1_555
O1U Lu1 1_555 1_555
O1PA Lu1 1_555 1_555
O2FC Lu1 1_555 1_555
O2U Lu1 1_555 1_555
O2DA Lu1 1_555 1_555
O2PA Lu1 1_555 1_555
O2CC Lu1 1_555 1_555
O3FC C2FC 1_555 1_555
O3U C2U 1_555 1_555
O3DA C2DA 1_555 1_555
O3PA C2PA 1_555 1_555
O3CC C2CC 1_555 1_555
O3DB Ca1 1_555 1_555
O3XB Ca1 1_555 1_555
O3RC Ca1 1_555 1_555
O3VE Ca1 1_555 1_555
O3PF Ca1 1_555 1_555
C1FC O1 1_555 1_555
C1U O1U 1_555 1_555
C1DA O1U 1_555 1_555
C1PA O1PA 1_555 1_555
C1CC O1PA 1_555 1_555
H1FC C1FC 1_555 1_555
H1U C1U 1_555 1_555
H1DA C1DA 1_555 1_555
H1PA C1PA 1_555 1_555
H1CC C1CC 1_555 1_555
H2FC C1FC 1_555 1_555
H2U C1U 1_555 1_555
H2DA C1DA 1_555 1_555
H2PA C1PA 1_555 1_555
H2CC C1CC 1_555 1_555
C2FC O2FC 1_555 1_555
C2U O2U 1_555 1_555
C2DA O2DA 1_555 1_555
C2PA O2PA 1_555 1_555
C2CC O2CC 1_555 1_555
O4D Ca2 1_555 1_555
O4H Ca2 1_555 1_555
O4Y Ca2 1_555 1_555
O4DA Ca2 1_555 1_555
O4FB Ca2 1_555 1_555
H3YA O4 1_555 1_555
H3D O4D 1_555 1_555
H3AC O4D 1_555 1_555
H3H O4H 1_555 1_555
H3IA O4H 1_555 1_555
H3Y O4Y 1_555 1_555
H3VB O4Y 1_555 1_555
H3DA O4DA 1_555 1_555
H3AB O4DA 1_555 1_555
H3FB O4FB 1_555 1_555
H3CC O4FB 1_555 1_555
H4VB O5 1_555 1_555
C1 C2 1_555 1_555
C1FC C2FC 1_555 1_555
C1U C2U 1_555 1_555
C1DA C2DA 1_555 1_555
C1PA C2PA 1_555 1_555
C1CC C2CC 1_555 1_555

#END
