
#######################################################################
#
#                 Cambridge Crystallographic Data Centre
#                                CCDC 
#
#######################################################################
#
# If this CIF has been generated from an entry in the Cambridge 
# Structural Database, then it will include bibliographic, chemical, 
# crystal, experimental, refinement or atomic coordinate data resulting 
# from the CCDC's data processing and validation procedures.
#
#######################################################################

data_PURRIE
_chemical_formula_moiety         '(C100 H98 N16 O17 Zn4)n'
_symmetry_cell_setting           orthorhombic
_symmetry_space_group_name_H-M   'P n m a'
_symmetry_Int_Tables_number      62
_space_group_name_Hall           '-P 2ac 2n'
loop_
_symmetry_equiv_pos_site_id
_symmetry_equiv_pos_as_xyz
1 x,y,z
2 1/2-x,-y,1/2+z
3 -x,1/2+y,-z
4 1/2+x,1/2-y,1/2-z
5 -x,-y,-z
6 1/2+x,y,1/2-z
7 x,1/2-y,z
8 1/2-x,1/2+y,1/2+z
_cell_length_a                   18.7077(11)
_cell_length_b                   24.8114(15)
_cell_length_c                   21.5264(13)
_cell_angle_alpha                90
_cell_angle_beta                 90
_cell_angle_gamma                90
_cell_volume                     9991.78
loop_
_atom_site_label
_atom_site_type_symbol
_atom_site_fract_x
_atom_site_fract_y
_atom_site_fract_z
Zn1 Zn 0.72819(3) 0.7500 0.15602(3)
Zn2 Zn 1.22939(3) 0.7500 -0.02945(3)
Zn3 Zn 1.23872(2) 1.03558(2) 0.14411(2)
O1 O 1.1161(2) 0.7500 -0.0978(2)
O2 O 1.1290(2) 0.7500 0.00466(19)
O3 O 0.8977(2) 0.7500 0.13153(19)
O4 O 0.7937(2) 0.7500 0.08114(17)
O5 O 0.2917(2) 0.7500 0.04564(19)
O6 O 0.3966(2) 0.7500 -0.00444(19)
O7 O 0.6273(2) 0.7500 0.12034(19)
O8 O 0.6164(2) 0.7500 0.2221(2)
O9 O 1.30125(15) 1.05619(13) 0.21198(14)
O10 O 1.38322(17) 1.00824(14) 0.16211(15)
O11 O 1.64455(16) 1.06701(13) 0.34196(15)
O12 O 1.63393(17) 1.01533(14) 0.25763(16)
N1 N 0.75070(17) 0.82397(15) 0.18970(17)
N2 N 1.21909(19) 0.95933(15) 0.12088(18)
N3 N 1.25590(18) 0.68292(15) -0.07660(16)
N4 N 1.73053(18) 0.58526(14) -0.07488(17)
C1 C 1.0901(3) 0.7500 -0.0448(3)
C2 C 1.0106(3) 0.7500 -0.0378(3)
C3 C 0.9695(3) 0.7500 -0.0918(3)
C4 C 0.8963(4) 0.7500 -0.0889(4)
C5 C 0.8619(4) 0.7500 -0.0334(3)
C6 C 0.9003(3) 0.7500 0.0218(3)
C7 C 0.9754(3) 0.7500 0.0192(3)
C8 C 0.8624(3) 0.7500 0.0834(3)
C9 C 0.3615(3) 0.7500 0.0441(3)
C10 C 0.3979(3) 0.7500 0.1060(3)
C11 C 0.3605(3) 0.7500 0.1601(3)
C12 C 0.3955(3) 0.7500 0.2169(3)
C13 C 0.4687(3) 0.7500 0.2184(3)
C14 C 0.5093(3) 0.7500 0.1644(3)
C15 C 0.4727(3) 0.7500 0.1079(3)
C16 C 0.5903(3) 0.7500 0.1699(3)
C17 C 0.8650(3) 0.9416(2) 0.1932(3)
H1 H 0.8446 0.9775 0.1903
H2 H 0.8928 0.9398 0.2311
C18 C 0.9129(3) 0.93205(19) 0.1386(3)
C19 C 0.8939(3) 0.9517(2) 0.0804(3)
C20 C 0.9379(3) 0.9414(2) 0.0299(3)
H3 H 0.9258 0.9554 -0.0088
C21 C 0.9994(3) 0.9106(2) 0.0358(3)
C22 C 1.0185(3) 0.88990(19) 0.0941(3)
C23 C 0.9761(3) 0.90171(19) 0.1457(3)
C24 C 1.0845(2) 0.8555(2) 0.1001(3)
H4 H 1.0885 0.8323 0.0640
H5 H 1.0803 0.8328 0.1366
N5 N 0.8064(2) 0.90144(16) 0.19600(18)
C25 C 0.8102(3) 0.8502(2) 0.1784(3)
C26 C 0.7399(3) 0.9088(2) 0.2203(2)
H6 H 0.7214 0.9405 0.2368
C27 C 0.7065(3) 0.8610(2) 0.2155(2)
H7 H 0.6598 0.8543 0.2281
N6 N 1.1499(2) 0.88910(15) 0.1053(2)
C28 C 1.1525(2) 0.9416(2) 0.1176(2)
H8 H 1.1124 0.9632 0.1231
C29 C 1.2198(3) 0.8721(2) 0.1005(3)
H9 H 1.2353 0.8373 0.0918
C30 C 1.2614(3) 0.9153(2) 0.1107(2)
H10 H 1.3111 0.9152 0.1108
N7 N 1.66114(18) 0.63805(15) -0.01970(18)
C31 C 1.6641(2) 0.59905(19) -0.0620(2)
H11 H 1.6242 0.5834 -0.0802
C32 C 1.7295(2) 0.6506(2) -0.0043(2)
H12 H 1.7443 0.6761 0.0247
C33 C 1.7716(2) 0.6187(2) -0.0391(2)
H13 H 1.8213 0.6193 -0.0389
C34 C 1.5953(3) 0.6654(2) 0.0020(3)
H14 H 1.6011 0.6760 0.0451
H15 H 1.5875 0.6977 -0.0224
C35 C 1.5315(2) 0.62854(19) -0.0040(2)
C36 C 1.5124(3) 0.5946(2) 0.0455(2)
C37 C 1.4184(3) 0.5572(2) -0.0157(3)
C38 C 1.4562(3) 0.5598(2) 0.0392(3)
C39 C 1.4369(2) 0.5903(2) -0.0652(2)
C40 C 1.4930(2) 0.62736(19) -0.0594(2)
C41 C 1.2205(3) 0.6545(2) -0.1206(2)
H16 H 1.1735 0.6606 -0.1327
C42 C 1.2633(3) 0.6162(2) -0.1442(3)
N8 N 1.3268(2) 0.62140(17) -0.11419(18)
C43 C 1.3198(3) 0.6616(2) -0.0743(2)
C44 C 1.3921(3) 0.5895(2) -0.1234(3)
H17 H 1.3795 0.5526 -0.1337
H18 H 1.4194 0.6043 -0.1578
C45 C 1.3654(2) 1.04130(19) 0.2011(2)
C46 C 1.4204(2) 1.06966(17) 0.24015(18)
C47 C 1.4047(3) 1.1184(2) 0.2681(2)
C48 C 1.4556(3) 1.1458(2) 0.3030(2)
H19 H 1.4452 1.1792 0.3203
C49 C 1.6113(2) 1.0495(2) 0.2937(2)
C50 C 1.5386(2) 1.07409(18) 0.28402(19)
C51 C 1.4888(2) 1.04850(19) 0.2475(2)
C52 C 1.5222(3) 1.1224(2) 0.3116(2)
C53 C 0.9991(3) 0.8824(2) 0.2092(3)
H20 H 1.0430 0.8626 0.2056
H21 H 1.0062 0.9129 0.2360
H22 H 0.9628 0.8595 0.2263
C54 C 1.0445(3) 0.9007(2) -0.0229(3)
H23 H 1.0850 0.8787 -0.0126
H24 H 1.0160 0.8827 -0.0536
H25 H 1.0608 0.9346 -0.0392
C55 C 0.8261(3) 0.9830(3) 0.0703(3)
H26 H 0.8011 0.9866 0.1090
H27 H 0.8375 1.0182 0.0545
H28 H 0.7965 0.9644 0.0410
C56 C 1.5523(4) 0.5969(3) 0.1074(3)
H29 H 1.5901 0.6230 0.1048
H30 H 1.5197 0.6072 0.1398
H31 H 1.5721 0.5621 0.1166
C57 C 1.5102(3) 0.6658(2) -0.1114(2)
H32 H 1.5501 0.6880 -0.0997
H33 H 1.5221 0.6458 -0.1481
H34 H 1.4695 0.6882 -0.1196
C58 C 1.3556(3) 0.5197(2) -0.0200(4)
H35 H 1.3508 0.5001 0.0182
H36 H 1.3129 0.5401 -0.0275
H37 H 1.3629 0.4948 -0.0535
H38 H 0.312(3) 0.7500 0.158(2)
H39 H 1.362(2) 0.6709(15) -0.0470(17)
H40 H 0.880(3) 0.7500 -0.122(3)
H41 H 0.993(3) 0.7500 -0.132(2)
H42 H 0.813(3) 0.7500 -0.033(3)
H43 H 1.4978(18) 1.0186(15) 0.2279(17)
H44 H 1.005(3) 0.7500 0.057(2)
H45 H 1.360(2) 1.1334(15) 0.2607(18)
H46 H 1.557(2) 1.1451(18) 0.330(2)
H47 H 0.366(3) 0.7500 0.258(3)
H48 H 1.269(3) 0.592(2) -0.173(3)
H49 H 0.494(3) 0.7500 0.073(3)
H50 H 0.492(4) 0.7500 0.264(3)
H51 H 0.847(2) 0.8373(18) 0.161(2)
Zn2_2 Zn 0.22939(3) 0.7500 -0.02945(3)
Zn3F Zn 1.23872(2) 0.46442(2) 0.14411(2)
Zn3E Zn 1.73872(2) 1.03558(2) 0.35589(2)
Zn3B Zn 1.76128(2) 0.53558(2) -0.14411(2)
Zn3D Zn 1.76128(2) 0.96442(2) -0.14411(2)
Zn3E_2 Zn 0.73872(2) 1.03558(2) 0.35589(2)
O5_2 O 1.2917(2) 0.7500 0.04564(19)
O9E O 0.80125(15) 1.05619(13) 0.28802(14)
O9F O 1.30125(15) 0.44381(13) 0.21198(14)
O10E O 0.88322(17) 1.00824(14) 0.33789(15)
O11E O 1.14455(16) 1.06701(13) 0.15804(15)
O11C O 1.14455(16) 0.43299(13) 0.15804(15)
O12E O 1.13393(17) 1.01533(14) 0.24237(16)
N1F N 0.75070(17) 0.67603(15) 0.18970(17)
N2F N 1.21909(19) 0.54067(15) 0.12088(18)
N3F N 1.25590(18) 0.81708(15) -0.07660(16)
N4F N 1.73053(18) 0.91474(14) -0.07488(17)
N4B N 1.26947(18) 1.08526(14) 0.07488(17)
N4D N 1.26947(18) 0.41474(14) 0.07488(17)
C17F C 0.8650(3) 0.5584(2) 0.1932(3)
H1F H 0.8446 0.5225 0.1903
H2F H 0.8928 0.5602 0.2311
C18F C 0.9129(3) 0.56795(19) 0.1386(3)
C19F C 0.8939(3) 0.5483(2) 0.0804(3)
C20F C 0.9379(3) 0.5586(2) 0.0299(3)
H3F H 0.9258 0.5446 -0.0088
C21F C 0.9994(3) 0.5894(2) 0.0358(3)
C22F C 1.0185(3) 0.61010(19) 0.0941(3)
C23F C 0.9761(3) 0.59829(19) 0.1457(3)
C24F C 1.0845(2) 0.6445(2) 0.1001(3)
H4F H 1.0885 0.6677 0.0640
H5F H 1.0803 0.6672 0.1366
N5F N 0.8064(2) 0.59856(16) 0.19600(18)
C25F C 0.8102(3) 0.6498(2) 0.1784(3)
C26F C 0.7399(3) 0.5912(2) 0.2203(2)
H6F H 0.7214 0.5595 0.2368
C27F C 0.7065(3) 0.6390(2) 0.2155(2)
H7F H 0.6598 0.6457 0.2281
N6F N 1.1499(2) 0.61090(15) 0.1053(2)
C28F C 1.1525(2) 0.5584(2) 0.1176(2)
H8F H 1.1124 0.5368 0.1231
C29F C 1.2198(3) 0.6279(2) 0.1005(3)
H9F H 1.2353 0.6627 0.0918
C30F C 1.2614(3) 0.5847(2) 0.1107(2)
H10F H 1.3111 0.5848 0.1108
N7F N 1.66114(18) 0.86195(15) -0.01970(18)
C31F C 1.6641(2) 0.90095(19) -0.0620(2)
H11F H 1.6242 0.9166 -0.0802
C32F C 1.7295(2) 0.8494(2) -0.0043(2)
H12F H 1.7443 0.8239 0.0247
C33F C 1.7716(2) 0.8813(2) -0.0391(2)
H13F H 1.8213 0.8807 -0.0389
C34F C 1.5953(3) 0.8346(2) 0.0020(3)
H14F H 1.6011 0.8240 0.0451
H15F H 1.5875 0.8023 -0.0224
C35F C 1.5315(2) 0.87146(19) -0.0040(2)
C36F C 1.5124(3) 0.9054(2) 0.0455(2)
C37F C 1.4184(3) 0.9428(2) -0.0157(3)
C38F C 1.4562(3) 0.9402(2) 0.0392(3)
C39F C 1.4369(2) 0.9097(2) -0.0652(2)
C40F C 1.4930(2) 0.87264(19) -0.0594(2)
C41F C 1.2205(3) 0.8455(2) -0.1206(2)
H16F H 1.1735 0.8394 -0.1327
C42F C 1.2633(3) 0.8838(2) -0.1442(3)
N8F N 1.3268(2) 0.87860(17) -0.11419(18)
C43F C 1.3198(3) 0.8384(2) -0.0743(2)
C44F C 1.3921(3) 0.9105(2) -0.1234(3)
H17F H 1.3795 0.9474 -0.1337
H18F H 1.4194 0.8957 -0.1578
C45E C 0.8654(2) 1.04130(19) 0.2989(2)
C46E C 0.9204(2) 1.06966(17) 0.25985(18)
C47E C 0.9047(3) 1.1184(2) 0.2319(2)
C48E C 0.9556(3) 1.1458(2) 0.1970(2)
H19E H 0.9452 1.1792 0.1797
C49E C 1.1113(2) 1.0495(2) 0.2063(2)
C50E C 1.0386(2) 1.07409(18) 0.21598(19)
C51E C 0.9888(2) 1.04850(19) 0.2525(2)
C52E C 1.0222(3) 1.1224(2) 0.1884(2)
C53F C 0.9991(3) 0.6176(2) 0.2092(3)
H20F H 1.0430 0.6374 0.2056
H21F H 1.0062 0.5871 0.2360
H22F H 0.9628 0.6405 0.2263
C54F C 1.0445(3) 0.5993(2) -0.0229(3)
H23F H 1.0850 0.6213 -0.0126
H24F H 1.0160 0.6173 -0.0536
H25F H 1.0608 0.5654 -0.0392
C55F C 0.8261(3) 0.5170(3) 0.0703(3)
H26F H 0.8011 0.5134 0.1090
H27F H 0.8375 0.4818 0.0545
H28F H 0.7965 0.5356 0.0410
C56F C 1.5523(4) 0.9031(3) 0.1074(3)
H29F H 1.5901 0.8770 0.1048
H30F H 1.5197 0.8928 0.1398
H31F H 1.5721 0.9379 0.1166
C57F C 1.5102(3) 0.8342(2) -0.1114(2)
H32F H 1.5501 0.8120 -0.0997
H33F H 1.5221 0.8542 -0.1481
H34F H 1.4695 0.8118 -0.1196
C58F C 1.3556(3) 0.9803(2) -0.0200(4)
H35F H 1.3508 0.9999 0.0182
H36F H 1.3129 0.9599 -0.0275
H37F H 1.3629 1.0052 -0.0535
H39F H 1.362(2) 0.8291(15) -0.0470(17)
H43E H 0.9978(18) 1.0186(15) 0.2721(17)
H45E H 0.860(2) 1.1334(15) 0.2393(18)
H46E H 1.057(2) 1.1451(18) 0.170(2)
H48F H 1.269(3) 0.908(2) -0.173(3)
H51F H 0.847(2) 0.6627(18) 0.161(2)
O13 O 0.6817(5) 0.7500 -0.1234(5)
loop_
_geom_bond_atom_site_label_1
_geom_bond_atom_site_label_2
_geom_bond_site_symmetry_1
_geom_bond_site_symmetry_2
Zn1 O4 1_555 1_555
Zn2 O2 1_555 1_555
Zn3 O9 1_555 1_555
O1 C1 1_555 1_555
O2 C1 1_555 1_555
O3 C8 1_555 1_555
O4 C8 1_555 1_555
O5 C9 1_555 1_555
O6 C9 1_555 1_555
O7 Zn1 1_555 1_555
O8 C16 1_555 1_555
O9 C45 1_555 1_555
O10 C45 1_555 1_555
O11 C49 1_555 1_555
O12 C49 1_555 1_555
N1 Zn1 1_555 1_555
N2 Zn3 1_555 1_555
N3 Zn2 1_555 1_555
N4 C31 1_555 1_555
C1 C2 1_555 1_555
C2 C3 1_555 1_555
C3 C4 1_555 1_555
C4 C5 1_555 1_555
C5 C6 1_555 1_555
C6 C7 1_555 1_555
C7 C2 1_555 1_555
C8 C6 1_555 1_555
C9 C10 1_555 1_555
C10 C11 1_555 1_555
C11 C12 1_555 1_555
C12 C13 1_555 1_555
C13 C14 1_555 1_555
C14 C15 1_555 1_555
C15 C10 1_555 1_555
C16 O7 1_555 1_555
C17 H1 1_555 1_555
H2 C17 1_555 1_555
C18 C17 1_555 1_555
C19 C18 1_555 1_555
C20 C19 1_555 1_555
H3 C20 1_555 1_555
C21 C20 1_555 1_555
C22 C21 1_555 1_555
C23 C18 1_555 1_555
C24 C22 1_555 1_555
H4 C24 1_555 1_555
H5 C24 1_555 1_555
N5 C17 1_555 1_555
C25 N1 1_555 1_555
C26 N5 1_555 1_555
H6 C26 1_555 1_555
C27 N1 1_555 1_555
H7 C27 1_555 1_555
N6 C24 1_555 1_555
C28 N2 1_555 1_555
H8 C28 1_555 1_555
C29 N6 1_555 1_555
H9 C29 1_555 1_555
C30 N2 1_555 1_555
H10 C30 1_555 1_555
N7 C31 1_555 1_555
C31 H11 1_555 1_555
C32 N7 1_555 1_555
H12 C32 1_555 1_555
C33 N4 1_555 1_555
H13 C33 1_555 1_555
C34 N7 1_555 1_555
H14 C34 1_555 1_555
H15 C34 1_555 1_555
C35 C34 1_555 1_555
C36 C35 1_555 1_555
C37 C38 1_555 1_555
C38 C36 1_555 1_555
C39 C37 1_555 1_555
C40 C35 1_555 1_555
C41 N3 1_555 1_555
H16 C41 1_555 1_555
C42 C41 1_555 1_555
N8 C42 1_555 1_555
C43 N3 1_555 1_555
C44 C39 1_555 1_555
H17 C44 1_555 1_555
H18 C44 1_555 1_555
C45 C46 1_555 1_555
C46 C47 1_555 1_555
C47 C48 1_555 1_555
C48 H19 1_555 1_555
C49 C50 1_555 1_555
C50 C51 1_555 1_555
C51 C46 1_555 1_555
C52 C48 1_555 1_555
C53 C23 1_555 1_555
H20 C53 1_555 1_555
H21 C53 1_555 1_555
H22 C53 1_555 1_555
C54 C21 1_555 1_555
H23 C54 1_555 1_555
H24 C54 1_555 1_555
H25 C54 1_555 1_555
C55 C19 1_555 1_555
H26 C55 1_555 1_555
H27 C55 1_555 1_555
H28 C55 1_555 1_555
C56 C36 1_555 1_555
H29 C56 1_555 1_555
H30 C56 1_555 1_555
H31 C56 1_555 1_555
C57 C40 1_555 1_555
H32 C57 1_555 1_555
H33 C57 1_555 1_555
H34 C57 1_555 1_555
C58 C37 1_555 1_555
H35 C58 1_555 1_555
H36 C58 1_555 1_555
H37 C58 1_555 1_555
H38 C11 1_555 1_555
H39 C43 1_555 1_555
H40 C4 1_555 1_555
H41 C3 1_555 1_555
H42 C5 1_555 1_555
H43 C51 1_555 1_555
H44 C7 1_555 1_555
H45 C47 1_555 1_555
H46 C52 1_555 1_555
H47 C12 1_555 1_555
H48 C42 1_555 1_555
H49 C15 1_555 1_555
H50 C13 1_555 1_555
H51 C25 1_555 1_555
Zn2_2 O5 1_555 1_555
Zn3F O9F 1_555 1_555
Zn3E O11 1_555 1_555
Zn3B N4 1_555 1_555
Zn3D N4F 1_555 1_555
Zn3E_2 O9E 1_555 1_555
O5_2 Zn2 1_555 1_555
O9E C45E 1_555 1_555
O10E C45E 1_555 1_555
O11E Zn3 1_555 1_555
O11C Zn3F 1_555 1_555
O12E C49E 1_555 1_555
N1F Zn1 1_555 1_555
N2F Zn3F 1_555 1_555
N3F Zn2 1_555 1_555
N4F C31F 1_555 1_555
N4B Zn3 1_555 1_555
N4D Zn3F 1_555 1_555
C17F H1F 1_555 1_555
H2F C17F 1_555 1_555
C18F C17F 1_555 1_555
C19F C18F 1_555 1_555
C20F C19F 1_555 1_555
H3F C20F 1_555 1_555
C21F C20F 1_555 1_555
C22F C21F 1_555 1_555
C23F C18F 1_555 1_555
C24F C22F 1_555 1_555
H4F C24F 1_555 1_555
H5F C24F 1_555 1_555
N5F C17F 1_555 1_555
C25F N1F 1_555 1_555
C26F N5F 1_555 1_555
H6F C26F 1_555 1_555
C27F N1F 1_555 1_555
H7F C27F 1_555 1_555
N6F C24F 1_555 1_555
C28F N2F 1_555 1_555
H8F C28F 1_555 1_555
C29F N6F 1_555 1_555
H9F C29F 1_555 1_555
C30F N2F 1_555 1_555
H10F C30F 1_555 1_555
N7F C31F 1_555 1_555
C31F H11F 1_555 1_555
C32F N7F 1_555 1_555
H12F C32F 1_555 1_555
C33F N4F 1_555 1_555
H13F C33F 1_555 1_555
C34F N7F 1_555 1_555
H14F C34F 1_555 1_555
H15F C34F 1_555 1_555
C35F C34F 1_555 1_555
C36F C35F 1_555 1_555
C37F C38F 1_555 1_555
C38F C36F 1_555 1_555
C39F C37F 1_555 1_555
C40F C35F 1_555 1_555
C41F N3F 1_555 1_555
H16F C41F 1_555 1_555
C42F C41F 1_555 1_555
N8F C42F 1_555 1_555
C43F N3F 1_555 1_555
C44F C39F 1_555 1_555
H17F C44F 1_555 1_555
H18F C44F 1_555 1_555
C45E C46E 1_555 1_555
C46E C47E 1_555 1_555
C47E C48E 1_555 1_555
C48E H19E 1_555 1_555
C49E O11E 1_555 1_555
C50E C49E 1_555 1_555
C51E C46E 1_555 1_555
C52E C48E 1_555 1_555
C53F C23F 1_555 1_555
H20F C53F 1_555 1_555
H21F C53F 1_555 1_555
H22F C53F 1_555 1_555
C54F C21F 1_555 1_555
H23F C54F 1_555 1_555
H24F C54F 1_555 1_555
H25F C54F 1_555 1_555
C55F C19F 1_555 1_555
H26F C55F 1_555 1_555
H27F C55F 1_555 1_555
H28F C55F 1_555 1_555
C56F C36F 1_555 1_555
H29F C56F 1_555 1_555
H30F C56F 1_555 1_555
H31F C56F 1_555 1_555
C57F C40F 1_555 1_555
H32F C57F 1_555 1_555
H33F C57F 1_555 1_555
H34F C57F 1_555 1_555
C58F C37F 1_555 1_555
H35F C58F 1_555 1_555
H36F C58F 1_555 1_555
H37F C58F 1_555 1_555
H39F C43F 1_555 1_555
H43E C51E 1_555 1_555
H45E C47E 1_555 1_555
H46E C52E 1_555 1_555
H48F C42F 1_555 1_555
H51F C25F 1_555 1_555
C14 C16 1_555 1_555
C22 C23 1_555 1_555
N5 C25 1_555 1_555
C26 C27 1_555 1_555
N6 C28 1_555 1_555
C29 C30 1_555 1_555
C32 C33 1_555 1_555
C39 C40 1_555 1_555
N8 C43 1_555 1_555
N8 C44 1_555 1_555
C50 C52 1_555 1_555
C22F C23F 1_555 1_555
N5F C25F 1_555 1_555
C26F C27F 1_555 1_555
N6F C28F 1_555 1_555
C29F C30F 1_555 1_555
C32F C33F 1_555 1_555
C39F C40F 1_555 1_555
N8F C43F 1_555 1_555
N8F C44F 1_555 1_555
C50E C51E 1_555 1_555
C50E C52E 1_555 1_555

#END
