
#######################################################################
#
#                 Cambridge Crystallographic Data Centre
#                                CCDC 
#
#######################################################################
#
# If this CIF has been generated from an entry in the Cambridge 
# Structural Database, then it will include bibliographic, chemical, 
# crystal, experimental, refinement or atomic coordinate data resulting 
# from the CCDC's data processing and validation procedures.
#
#######################################################################

data_DAWWEF
_chemical_formula_moiety         '(C16 H24 Co3 N10 O16)n'
_symmetry_cell_setting           tetragonal
_symmetry_space_group_name_H-M   'P 43 21 2'
_symmetry_Int_Tables_number      96
_space_group_name_Hall           'P 4nw 2abw'
loop_
_symmetry_equiv_pos_site_id
_symmetry_equiv_pos_as_xyz
1 x,y,z
2 -x,-y,1/2+z
3 1/2-y,1/2+x,3/4+z
4 1/2+y,1/2-x,1/4+z
5 1/2-x,1/2+y,3/4-z
6 1/2+x,1/2-y,1/4-z
7 y,x,-z
8 -y,-x,1/2-z
_cell_length_a                   12.5879(18)
_cell_length_b                   12.5879(18)
_cell_length_c                   25.090(5)
_cell_angle_alpha                90
_cell_angle_beta                 90
_cell_angle_gamma                90
_cell_volume                     3975.64
loop_
_atom_site_label
_atom_site_type_symbol
_atom_site_fract_x
_atom_site_fract_y
_atom_site_fract_z
_atom_site_U_iso_or_equiv
_atom_site_thermal_displace_type
Co1 Co 0.32282(6) 1.74949(7) 0.12457(3) 0.0287 Uani
Co2 Co 0.56919(7) 1.43081(7) 0.2500 0.0392 Uani
O1 O 0.3397(3) 1.6046(4) 0.16802(17) 0.0383 Uani
N1 N 0.6613(4) 1.7423(4) 0.13595(18) 0.0310 Uani
O2 O 0.8061(3) 1.6126(4) 0.17447(18) 0.0423 Uani
O3 O 0.4550(4) 1.4872(4) 0.1975(2) 0.0457 Uani
N2 N 0.4853(3) 1.7372(4) 0.13206(17) 0.0270 Uani
N3 N 0.6573(4) 1.8122(4) -0.0544(2) 0.0353 Uani
O4 O 0.6920(4) 1.5183(5) 0.2209(2) 0.0553 Uani
C1 C 0.4342(4) 1.5756(5) 0.1778(2) 0.0313 Uani
N4 N 0.5914(4) 1.8412(4) 0.02518(19) 0.0327 Uani
C2 C 0.5191(4) 1.6507(5) 0.1614(2) 0.0287 Uani
C3 C 0.5722(4) 1.7885(5) 0.1172(2) 0.0280 Uani
C4 C 0.7120(5) 1.5912(5) 0.1891(2) 0.0360 Uani
N5 N 0.5290(6) 1.7644(6) 0.0031(3) 0.0597 Uani
C5 C 0.6273(4) 1.6562(5) 0.1644(2) 0.0287 Uani
C6 C 0.5726(7) 1.7500(7) -0.0444(3) 0.0570 Uani
H1 H 0.5468 1.7009 -0.0688 0.0680 Uiso
C7 C 0.5722(5) 1.8785(5) 0.0789(2) 0.0317 Uani
H2 H 0.5042 1.9147 0.0804 0.0380 Uiso
H3 H 0.6270 1.9290 0.0888 0.0380 Uiso
C8 C 0.6675(5) 1.8689(5) -0.0095(2) 0.0343 Uani
H4 H 0.7196 1.9198 -0.0033 0.0410 Uiso
O5 O 0.3417(4) 1.6600(5) 0.0493(2) 0.0570 Uani
O6 O 0.6171(7) 1.3137(6) 0.1934(3) 0.0833 Uani
Co1G Co 0.25051(7) 1.67718(6) 0.37543(3) 0.0287 Uani
Co1E Co 0.82282(6) 1.75051(7) 0.12543(3) 0.0287 Uani
Co1B Co 0.75051(7) 1.82282(6) -0.12543(3) 0.0287 Uani
Co1C Co 0.24949(7) 1.17718(6) 0.37457(3) 0.0287 Uani
Co1D Co 0.17718(6) 1.24949(7) 0.62543(3) 0.0287 Uani
O1G O 0.3954(4) 1.6603(3) 0.33198(17) 0.0383 Uani
N1G N 0.2577(4) 1.3387(4) 0.36405(18) 0.0310 Uani
N1E N 0.1613(4) 1.7577(4) 0.11405(18) 0.0310 Uani
N1C N 0.2423(4) 1.8387(4) 0.38595(18) 0.0310 Uani
O2G O 0.3874(4) 1.1939(3) 0.32553(18) 0.0423 Uani
O2E O 0.3061(3) 1.8874(4) 0.07553(18) 0.0423 Uani
O2C O 0.1126(4) 1.6939(3) 0.42447(18) 0.0423 Uani
O3G O 0.5128(4) 1.5450(4) 0.3025(2) 0.0457 Uani
N2G N 0.2628(4) 1.5147(3) 0.36794(17) 0.0270 Uani
N3G N 0.1878(4) 1.3427(4) 0.5544(2) 0.0353 Uani
N3C N 0.3122(4) 1.8427(4) 0.1956(2) 0.0353 Uani
N3E N 0.1573(4) 1.6878(4) 0.3044(2) 0.0353 Uani
O4G O 0.4817(5) 1.3080(4) 0.2791(2) 0.0553 Uani
C1G C 0.4244(5) 1.5658(4) 0.3222(2) 0.0313 Uani
N4G N 0.1588(4) 1.4086(4) 0.47482(19) 0.0327 Uani
C2G C 0.3493(5) 1.4809(4) 0.3386(2) 0.0287 Uani
C3G C 0.2115(5) 1.4278(4) 0.3828(2) 0.0280 Uani
C4G C 0.4088(5) 1.2880(5) 0.3109(2) 0.0360 Uani
N5G N 0.2356(6) 1.4710(6) 0.4969(3) 0.0597 Uani
C5G C 0.3438(5) 1.3727(4) 0.3356(2) 0.0287 Uani
C6G C 0.2500(7) 1.4274(7) 0.5444(3) 0.0570 Uani
H1G H 0.2991 1.4532 0.5688 0.0680 Uiso
C7G C 0.1215(5) 1.4278(5) 0.4211(2) 0.0317 Uani
H2G H 0.0853 1.4958 0.4196 0.0380 Uiso
H3G H 0.0710 1.3730 0.4112 0.0380 Uiso
C8G C 0.1311(5) 1.3325(5) 0.5095(2) 0.0343 Uani
H4G H 0.0802 1.2804 0.5033 0.0410 Uiso
O5G O 0.3400(5) 1.6583(4) 0.4507(2) 0.0570 Uani
O6G O 0.6863(6) 1.3829(7) 0.3066(3) 0.0833 Uani
O7 O 0.5945(17) 1.3771(15) 0.0885(6) 0.1083 Uani
O8 O 0.2757(17) 1.3621(16) 0.1771(8) 0.1303 Uani
O9 O 0.177(2) 1.606(2) -0.0181(9) 0.1737 Uani
O10 O 0.404(3) 1.4487(17) 0.0580(10) 0.1617 Uani
loop_
_atom_site_aniso_label
_atom_site_aniso_U_11
_atom_site_aniso_U_22
_atom_site_aniso_U_33
_atom_site_aniso_U_23
_atom_site_aniso_U_13
_atom_site_aniso_U_12
Co1 0.0169(4) 0.0400(4) 0.0291(4) 0.0035(3) 0.0003(3) 0.0019(3)
Co2 0.0362(4) 0.0362(4) 0.0452(7) 0.0138(4) 0.0138(4) 0.0081(5)
O1 0.023(2) 0.047(3) 0.045(2) 0.011(2) 0.0018(17) -0.0042(18)
N1 0.024(2) 0.039(3) 0.030(2) 0.006(2) -0.0021(17) 0.003(2)
O2 0.020(2) 0.059(3) 0.048(2) 0.020(2) 0.0021(18) 0.0031(19)
O3 0.031(2) 0.044(3) 0.062(3) 0.019(2) 0.001(2) 0.0007(19)
N2 0.020(2) 0.033(2) 0.028(2) 0.006(2) 0.0020(17) 0.0031(17)
N3 0.039(3) 0.037(3) 0.030(2) 0.002(2) 0.002(2) -0.007(2)
O4 0.035(3) 0.068(3) 0.063(3) 0.036(3) 0.005(2) 0.006(2)
C1 0.021(2) 0.039(3) 0.034(3) 0.001(2) 0.004(2) -0.002(2)
N4 0.032(3) 0.034(3) 0.032(2) 0.005(2) -0.0008(19) -0.003(2)
C2 0.023(3) 0.037(3) 0.026(3) 0.006(2) 0.003(2) 0.004(2)
C3 0.020(2) 0.036(3) 0.028(2) 0.001(2) 0.001(2) 0.003(2)
C4 0.027(3) 0.044(4) 0.037(3) 0.015(3) 0.002(2) 0.005(2)
N5 0.062(4) 0.075(5) 0.042(3) -0.005(3) 0.010(3) -0.037(4)
C5 0.018(2) 0.036(3) 0.032(3) 0.006(2) 0.004(2) 0.002(2)
C6 0.071(5) 0.062(5) 0.038(3) -0.008(3) 0.009(3) -0.033(4)
C7 0.032(3) 0.030(3) 0.033(3) 0.002(2) 0.003(2) 0.006(2)
C8 0.035(3) 0.037(3) 0.031(3) 0.004(2) 0.000(2) -0.001(2)
O5 0.044(3) 0.083(4) 0.044(2) -0.018(3) 0.005(2) -0.012(3)
O6 0.089(5) 0.079(5) 0.082(4) -0.006(4) 0.037(4) 0.018(4)
Co1G 0.04 0.0169 0.0291 0.0003 0.0035 0.0019
Co1E 0.0169 0.04 0.0291 0.0035 -0.0003 -0.0019
Co1B 0.04 0.0169 0.0291 0.0003 -0.0035 -0.0019
Co1C 0.04 0.0169 0.0291 -0.0003 0.0035 -0.0019
Co1D 0.0169 0.04 0.0291 -0.0035 0.0003 -0.0019
O1G 0.047 0.023 0.045 0.0018 0.011 -0.0042
N1G 0.039 0.024 0.03 -0.0021 0.006 0.003
N1E 0.024 0.039 0.03 0.006 0.0021 -0.003
N1C 0.039 0.024 0.03 0.0021 0.006 -0.003
O2G 0.059 0.02 0.048 0.0021 0.02 0.0031
O2E 0.02 0.059 0.048 0.02 -0.0021 -0.0031
O2C 0.059 0.02 0.048 -0.0021 0.02 -0.0031
O3G 0.044 0.031 0.062 0.001 0.019 0.0007
N2G 0.033 0.02 0.028 0.002 0.006 0.0031
N3G 0.037 0.039 0.03 0.002 0.002 -0.007
N3C 0.037 0.039 0.03 -0.002 0.002 0.007
N3E 0.039 0.037 0.03 0.002 -0.002 0.007
O4G 0.068 0.035 0.063 0.005 0.036 0.006
C1G 0.039 0.021 0.034 0.004 0.001 -0.002
N4G 0.034 0.032 0.032 -0.0008 0.005 -0.003
C2G 0.037 0.023 0.026 0.003 0.006 0.004
C3G 0.036 0.02 0.028 0.001 0.001 0.003
C4G 0.044 0.027 0.037 0.002 0.015 0.005
N5G 0.075 0.062 0.042 0.01 -0.005 -0.037
C5G 0.036 0.018 0.032 0.004 0.006 0.002
C6G 0.062 0.071 0.038 0.009 -0.008 -0.033
C7G 0.03 0.032 0.033 0.003 0.002 0.006
C8G 0.037 0.035 0.031 0 0.004 -0.001
O5G 0.083 0.044 0.044 0.005 -0.018 -0.012
O6G 0.079 0.089 0.082 0.037 -0.006 0.018
O7 0.166(19) 0.097(12) 0.062(8) -0.001(8) 0.028(10) -0.024(13)
O8 0.138(16) 0.117(14) 0.136(15) -0.013(12) -0.020(13) -0.098(13)
O9 0.16(2) 0.22(3) 0.141(16) -0.100(19) -0.104(16) 0.09(2)
O10 0.25(3) 0.081(13) 0.154(19) -0.025(13) -0.04(2) 0.044(17)
loop_
_geom_bond_atom_site_label_1
_geom_bond_atom_site_label_2
_geom_bond_site_symmetry_1
_geom_bond_site_symmetry_2
Co1 O1 1_555 1_555
Co2 O3 1_555 1_555
O1 C1 1_555 1_555
N1 C3 1_555 1_555
O2 C4 1_555 1_555
O3 C1 1_555 1_555
N2 Co1 1_555 1_555
N3 C6 1_555 1_555
O4 Co2 1_555 1_555
C1 C2 1_555 1_555
N4 N5 1_555 1_555
C2 N2 1_555 1_555
C3 N2 1_555 1_555
C4 O4 1_555 1_555
N5 C6 1_555 1_555
C5 N1 1_555 1_555
C6 H1 1_555 1_555
C7 N4 1_555 1_555
H2 C7 1_555 1_555
H3 C7 1_555 1_555
C8 N3 1_555 1_555
H4 C8 1_555 1_555
O5 Co1 1_555 1_555
O6 Co2 1_555 1_555
Co1G O1G 1_555 1_555
Co1E N1 1_555 1_555
Co1B N3 1_555 1_555
Co1C N1G 1_555 1_555
Co1D N3G 1_555 1_555
O1G C1G 1_555 1_555
N1G C3G 1_555 1_555
N1E Co1 1_555 1_555
N1C Co1G 1_555 1_555
O2G Co1C 1_555 1_555
O2E Co1 1_555 1_555
O2C Co1G 1_555 1_555
O3G Co2 1_555 1_555
N2G Co1G 1_555 1_555
N3G C6G 1_555 1_555
N3C Co1 1_555 1_555
N3E Co1G 1_555 1_555
O4G Co2 1_555 1_555
C1G O3G 1_555 1_555
N4G N5G 1_555 1_555
C2G N2G 1_555 1_555
C3G N2G 1_555 1_555
C4G O2G 1_555 1_555
N5G C6G 1_555 1_555
C5G N1G 1_555 1_555
C6G H1G 1_555 1_555
C7G N4G 1_555 1_555
H2G C7G 1_555 1_555
H3G C7G 1_555 1_555
C8G N3G 1_555 1_555
H4G C8G 1_555 1_555
O5G Co1G 1_555 1_555
O6G Co2 1_555 1_555
O2 Co1E 1_555 1_555
N4 C8 1_555 1_555
C2 C5 1_555 1_555
C3 C7 1_555 1_555
C4 C5 1_555 1_555
O4G C4G 1_555 1_555
C1G C2G 1_555 1_555
N4G C8G 1_555 1_555
C2G C5G 1_555 1_555
C3G C7G 1_555 1_555
C4G C5G 1_555 1_555

#END
