
#######################################################################
#
#                 Cambridge Crystallographic Data Centre
#                                CCDC 
#
#######################################################################
#
# If this CIF has been generated from an entry in the Cambridge 
# Structural Database, then it will include bibliographic, chemical, 
# crystal, experimental, refinement or atomic coordinate data resulting 
# from the CCDC's data processing and validation procedures.
#
#######################################################################

data_BINROH
_chemical_formula_moiety         '(C78 H48 Cu3 O15)n'
_symmetry_cell_setting           cubic
_symmetry_space_group_name_H-M   'P n -3 n'
_symmetry_Int_Tables_number      222
_space_group_name_Hall           '-P 4a 2bc 3'
loop_
_symmetry_equiv_pos_site_id
_symmetry_equiv_pos_as_xyz
1 x,y,z
2 1/2-y,x,z
3 1/2-x,1/2-y,z
4 y,1/2-x,z
5 x,1/2-y,1/2-z
6 y,x,1/2-z
7 1/2-x,y,1/2-z
8 1/2-y,1/2-x,1/2-z
9 z,x,y
10 1/2-x,z,y
11 1/2-z,1/2-x,y
12 x,1/2-z,y
13 z,1/2-x,1/2-y
14 x,z,1/2-y
15 1/2-z,x,1/2-y
16 1/2-x,1/2-z,1/2-y
17 y,z,x
18 1/2-z,1/2-y,1/2-x
19 1/2-z,y,x
20 z,y,1/2-x
21 z,1/2-y,x
22 y,1/2-z,1/2-x
23 1/2-y,1/2-z,x
24 1/2-y,z,1/2-x
25 -x,-y,-z
26 1/2+y,-x,-z
27 1/2+x,1/2+y,-z
28 -y,1/2+x,-z
29 -x,1/2+y,1/2+z
30 -y,-x,1/2+z
31 1/2+x,-y,1/2+z
32 1/2+y,1/2+x,1/2+z
33 -z,-x,-y
34 1/2+x,-z,-y
35 1/2+z,1/2+x,-y
36 -x,1/2+z,-y
37 -z,1/2+x,1/2+y
38 -x,-z,1/2+y
39 1/2+z,-x,1/2+y
40 1/2+x,1/2+z,1/2+y
41 -y,-z,-x
42 1/2+z,1/2+y,1/2+x
43 1/2+z,-y,-x
44 -z,-y,1/2+x
45 -z,1/2+y,-x
46 -y,1/2+z,1/2+x
47 1/2+y,1/2+z,-x
48 1/2+y,-z,1/2+x
_cell_length_a                   32.990(2)
_cell_length_b                   32.990(2)
_cell_length_c                   32.990(2)
_cell_angle_alpha                90
_cell_angle_beta                 90
_cell_angle_gamma                90
_cell_volume                     35904.3
loop_
_atom_site_label
_atom_site_type_symbol
_atom_site_fract_x
_atom_site_fract_y
_atom_site_fract_z
_atom_site_U_iso_or_equiv
_atom_site_thermal_displace_type
Cu1 Cu 0.96026(3) -0.7500 -0.2500 0.0873 Uani
O1 O 0.96666(11) -0.69957(8) -0.28179(9) 0.0911 Uani
O2 O 1.03575(11) -0.69990(9) -0.28198(9) 0.0920 Uani
O3 O 0.8945(2) -0.7500 -0.2500 0.1550 Uani
C1 C 1.00197(18) -0.68632(13) -0.28943(13) 0.0783 Uani
C2 C 1.00094(17) -0.64854(14) -0.31706(13) 0.0867 Uani
C3 C 0.96715(17) -0.63237(15) -0.32840(13) 0.0927 Uani
H1 H 0.9429 -0.6438 -0.3196 0.1110 Uiso
C4 C 0.96577(17) -0.59710(15) -0.35440(14) 0.0947 Uani
C5 C 1.00207(17) -0.58134(15) -0.36797(14) 0.0930 Uani
C6 C 1.03819(17) -0.59763(17) -0.35481(15) 0.1073 Uani
H2 H 1.0625 -0.5857 -0.3626 0.1290 Uiso
C7 C 1.03862(18) -0.63214(16) -0.32967(15) 0.1070 Uani
H3 H 1.0630 -0.6438 -0.3216 0.1280 Uiso
C8 C 0.92898(18) -0.57877(17) -0.36693(16) 0.1150 Uani
H4 H 0.9044 -0.5890 -0.3576 0.1380 Uiso
C9 C 0.92928(19) -0.54650(17) -0.39244(17) 0.1203 Uani
H5 H 0.9049 -0.5350 -0.4005 0.1440 Uiso
C10 C 0.9660(2) -0.53022(18) -0.40685(18) 0.1200 Uani
C11 C 1.00073(18) -0.54660(17) -0.39464(16) 0.1100 Uani
H6 H 1.0250 -0.5353 -0.4036 0.1320 Uiso
C12 C 0.96552(16) -0.49694(17) -0.43642(17) 0.1177 Uani
C13 C 0.93606(19) -0.49603(19) -0.46650(18) 0.1337 Uani
H7 H 0.9158 -0.5156 -0.4667 0.1600 Uiso
O1J O 0.78179(9) -0.46666(11) -0.69957(8) 0.0911 Uani
O2J O 0.78198(9) -0.53575(11) -0.69990(9) 0.0920 Uani
C1J C 0.78943(13) -0.50197(18) -0.68632(13) 0.0783 Uani
C2J C 0.81706(13) -0.50094(17) -0.64854(14) 0.0867 Uani
C3J C 0.82840(13) -0.46715(17) -0.63237(15) 0.0927 Uani
H1J H 0.8196 -0.4429 -0.6438 0.1110 Uiso
C4J C 0.85440(14) -0.46577(17) -0.59710(15) 0.0947 Uani
C5J C 0.86797(14) -0.50207(17) -0.58134(15) 0.0930 Uani
C6J C 0.85481(15) -0.53819(17) -0.59763(17) 0.1073 Uani
H2J H 0.8626 -0.5625 -0.5857 0.1290 Uiso
C7J C 0.82967(15) -0.53862(18) -0.63214(16) 0.1070 Uani
H3J H 0.8216 -0.5630 -0.6438 0.1280 Uiso
C8J C 0.86693(16) -0.42898(18) -0.57877(17) 0.1150 Uani
H4J H 0.8576 -0.4044 -0.5890 0.1380 Uiso
C9J C 0.89244(17) -0.42928(19) -0.54650(17) 0.1203 Uani
H5J H 0.9005 -0.4049 -0.5350 0.1440 Uiso
C10J C 0.90685(18) -0.4660(2) -0.53022(18) 0.1200 Uani
C11J C 0.89464(16) -0.50073(18) -0.54660(17) 0.1100 Uani
H6J H 0.9036 -0.5250 -0.5353 0.1320 Uiso
C12J C 0.93642(17) -0.46552(16) -0.49694(17) 0.1177 Uani
C13J C 0.96650(18) -0.43606(19) -0.49603(19) 0.1337 Uani
H7J H 0.9667 -0.4158 -0.5156 0.1600 Uiso
O1W O 1.19957(8) -0.28179(9) -0.46666(11) 0.0911 Uani
O2W O 1.19990(9) -0.28198(9) -0.53575(11) 0.0920 Uani
C1W C 1.18632(13) -0.28943(13) -0.50197(18) 0.0783 Uani
C2W C 1.14854(14) -0.31706(13) -0.50094(17) 0.0867 Uani
C3W C 1.13237(15) -0.32840(13) -0.46715(17) 0.0927 Uani
H1W H 1.1438 -0.3196 -0.4429 0.1110 Uiso
C4W C 1.09710(15) -0.35440(14) -0.46577(17) 0.0947 Uani
C5W C 1.08134(15) -0.36797(14) -0.50207(17) 0.0930 Uani
C6W C 1.09763(17) -0.35481(15) -0.53819(17) 0.1073 Uani
H2W H 1.0857 -0.3626 -0.5625 0.1290 Uiso
C7W C 1.13214(16) -0.32967(15) -0.53862(18) 0.1070 Uani
H3W H 1.1438 -0.3216 -0.5630 0.1280 Uiso
C8W C 1.07877(17) -0.36693(16) -0.42898(18) 0.1150 Uani
H4W H 1.0890 -0.3576 -0.4044 0.1380 Uiso
C9W C 1.04650(17) -0.39244(17) -0.42928(19) 0.1203 Uani
H5W H 1.0350 -0.4005 -0.4049 0.1440 Uiso
C10W C 1.03022(18) -0.40685(18) -0.4660(2) 0.1200 Uani
C11W C 1.04660(17) -0.39464(16) -0.50073(18) 0.1100 Uani
H6W H 1.0353 -0.4036 -0.5250 0.1320 Uiso
C12W C 0.99694(17) -0.43642(17) -0.46552(16) 0.1177 Uani
C13W C 0.99603(19) -0.46650(18) -0.43606(19) 0.1337 Uani
H7W H 1.0156 -0.4667 -0.4158 0.1600 Uiso
O1D O 0.96666(11) -0.80043(8) -0.21821(9) 0.0911 Uani
O2D O 1.03575(11) -0.80010(9) -0.21802(9) 0.0920 Uani
C1D C 1.00197(18) -0.81368(13) -0.21057(13) 0.0783 Uani
C2D C 1.00094(17) -0.85146(14) -0.18294(13) 0.0867 Uani
C3D C 0.96715(17) -0.86763(15) -0.17160(13) 0.0927 Uani
H1D H 0.9429 -0.8562 -0.1804 0.1110 Uiso
C4D C 0.96577(17) -0.90290(15) -0.14560(14) 0.0947 Uani
C5D C 1.00207(17) -0.91866(15) -0.13203(14) 0.0930 Uani
C6D C 1.03819(17) -0.90237(17) -0.14519(15) 0.1073 Uani
H2D H 1.0625 -0.9143 -0.1374 0.1290 Uiso
C7D C 1.03862(18) -0.86786(16) -0.17033(15) 0.1070 Uani
H3D H 1.0630 -0.8562 -0.1784 0.1280 Uiso
C8D C 0.92898(18) -0.92123(17) -0.13307(16) 0.1150 Uani
H4D H 0.9044 -0.9110 -0.1424 0.1380 Uiso
C9D C 0.92928(19) -0.95350(17) -0.10756(17) 0.1203 Uani
H5D H 0.9049 -0.9650 -0.0995 0.1440 Uiso
C10D C 0.9660(2) -0.96978(18) -0.09315(18) 0.1200 Uani
C11D C 1.00073(18) -0.95340(17) -0.10536(16) 0.1100 Uani
H6D H 1.0250 -0.9647 -0.0964 0.1320 Uiso
C12D C 0.96552(16) -1.00306(17) -0.06358(17) 0.1177 Uani
C13D C 0.93606(19) -1.00397(19) -0.03350(18) 0.1337 Uani
H7D H 0.9158 -0.9844 -0.0333 0.1600 Uiso
O1N O 0.78179(9) -1.03334(11) 0.19957(8) 0.0911 Uani
O2N O 0.78198(9) -0.96425(11) 0.19990(9) 0.0920 Uani
C1N C 0.78943(13) -0.99803(18) 0.18632(13) 0.0783 Uani
C2N C 0.81706(13) -0.99906(17) 0.14854(14) 0.0867 Uani
C3N C 0.82840(13) -1.03285(17) 0.13237(15) 0.0927 Uani
H1N H 0.8196 -1.0571 0.1438 0.1110 Uiso
C4N C 0.85440(14) -1.03423(17) 0.09710(15) 0.0947 Uani
C5N C 0.86797(14) -0.99793(17) 0.08134(15) 0.0930 Uani
C6N C 0.85481(15) -0.96181(17) 0.09763(17) 0.1073 Uani
H2N H 0.8626 -0.9375 0.0857 0.1290 Uiso
C7N C 0.82967(15) -0.96138(18) 0.13214(16) 0.1070 Uani
H3N H 0.8216 -0.9370 0.1438 0.1280 Uiso
C8N C 0.86693(16) -1.07102(18) 0.07877(17) 0.1150 Uani
H4N H 0.8576 -1.0956 0.0890 0.1380 Uiso
C9N C 0.89244(17) -1.07072(19) 0.04650(17) 0.1203 Uani
H5N H 0.9005 -1.0951 0.0350 0.1440 Uiso
C10N C 0.90685(18) -1.0340(2) 0.03022(18) 0.1200 Uani
C11N C 0.89464(16) -0.99927(18) 0.04660(17) 0.1100 Uani
H6N H 0.9036 -0.9750 0.0353 0.1320 Uiso
C12N C 0.93642(17) -1.03448(16) -0.00306(17) 0.1177 Uani
C13N C 0.96650(18) -1.06394(19) -0.00397(19) 0.1337 Uani
H7N H 0.9667 -1.0842 0.0156 0.1600 Uiso
O1V O 1.19957(8) -1.21821(9) -0.03334(11) 0.0911 Uani
O2V O 1.19990(9) -1.21802(9) 0.03575(11) 0.0920 Uani
C1V C 1.18632(13) -1.21057(13) 0.00197(18) 0.0783 Uani
C2V C 1.14854(14) -1.18294(13) 0.00094(17) 0.0867 Uani
C3V C 1.13237(15) -1.17160(13) -0.03285(17) 0.0927 Uani
H1V H 1.1438 -1.1804 -0.0571 0.1110 Uiso
C4V C 1.09710(15) -1.14560(14) -0.03423(17) 0.0947 Uani
C5V C 1.08134(15) -1.13203(14) 0.00207(17) 0.0930 Uani
C6V C 1.09763(17) -1.14519(15) 0.03819(17) 0.1073 Uani
H2V H 1.0857 -1.1374 0.0625 0.1290 Uiso
C7V C 1.13214(16) -1.17033(15) 0.03862(18) 0.1070 Uani
H3V H 1.1438 -1.1784 0.0630 0.1280 Uiso
C8V C 1.07877(17) -1.13307(16) -0.07102(18) 0.1150 Uani
H4V H 1.0890 -1.1424 -0.0956 0.1380 Uiso
C9V C 1.04650(17) -1.10756(17) -0.07072(19) 0.1203 Uani
H5V H 1.0350 -1.0995 -0.0951 0.1440 Uiso
C10V C 1.03022(18) -1.09315(18) -0.0340(2) 0.1200 Uani
C11V C 1.04660(17) -1.10536(16) 0.00073(18) 0.1100 Uani
H6V H 1.0353 -1.0964 0.0250 0.1320 Uiso
C12V C 0.99694(17) -1.06358(17) -0.03448(16) 0.1177 Uani
C13V C 0.99603(19) -1.03350(18) -0.06394(19) 0.1337 Uani
H7V H 1.0156 -1.0333 -0.0842 0.1600 Uiso
Cu1IA Cu 1.03974(3) -0.7500 -0.2500 0.0873 Uani
O3IA O 1.1055(2) -0.7500 -0.2500 0.1550 Uani
Cu1J Cu 0.7500 -0.46026(3) -0.7500 0.0873 Uani
O3J O 0.7500 -0.3945(2) -0.7500 0.1550 Uani
Cu1H Cu 0.7500 -1.03974(3) 0.2500 0.0873 Uani
Cu1P Cu 1.2500 -1.2500 -0.03974(3) 0.0873 Uani
Cu1U Cu 1.2500 -0.2500 -0.46026(3) 0.0873 Uani
Cu1Y Cu 0.7500 -0.96026(3) 0.2500 0.0873 Uani
Cu1AA Cu 0.7500 -0.53974(3) -0.7500 0.0873 Uani
Cu1OA Cu 1.2500 -0.2500 -0.53974(3) 0.0873 Uani
Cu1PA Cu 1.2500 -1.2500 0.03974(3) 0.0873 Uani
O1L O 0.71821(9) -0.46666(11) -0.80043(8) 0.0911 Uani
O1IA O 1.03334(11) -0.78179(9) -0.30043(8) 0.0911 Uani
O1KA O 1.03334(11) -0.71821(9) -0.19957(8) 0.0911 Uani
O2AA O 0.69990(9) -0.46425(11) -0.71802(9) 0.0920 Uani
O2EA O 0.80010(9) -0.46425(11) -0.78198(9) 0.0920 Uani
O2IA O 0.96425(11) -0.78198(9) -0.30010(9) 0.0920 Uani
O2KA O 0.96425(11) -0.71802(9) -0.19990(9) 0.0920 Uani
loop_
_atom_site_aniso_label
_atom_site_aniso_U_11
_atom_site_aniso_U_22
_atom_site_aniso_U_33
_atom_site_aniso_U_23
_atom_site_aniso_U_13
_atom_site_aniso_U_12
Cu1 0.1492(9) 0.0554(4) 0.0573(5) 0.0052(4) 0.000 0.000
O1 0.123(3) 0.0712(19) 0.079(2) 0.0121(15) 0.0028(19) -0.0080(18)
O2 0.116(3) 0.075(2) 0.085(2) 0.0044(16) 0.0040(19) 0.0039(19)
O3 0.146(5) 0.139(5) 0.180(6) 0.014(4) 0.000 0.000
C1 0.096(4) 0.068(3) 0.071(3) -0.006(2) 0.003(3) -0.005(3)
C2 0.094(4) 0.085(3) 0.081(3) 0.002(3) -0.007(3) -0.014(3)
C3 0.112(4) 0.095(3) 0.071(3) -0.004(3) 0.002(3) -0.022(3)
C4 0.113(4) 0.098(3) 0.073(3) 0.022(3) -0.018(3) -0.028(3)
C5 0.101(4) 0.096(3) 0.082(3) 0.017(3) -0.017(3) -0.017(3)
C6 0.112(4) 0.111(4) 0.099(4) 0.017(3) -0.008(3) -0.025(3)
C7 0.127(5) 0.109(4) 0.085(3) 0.006(3) -0.013(3) -0.008(3)
C8 0.122(5) 0.114(4) 0.109(4) 0.025(3) -0.020(3) -0.040(4)
C9 0.130(5) 0.112(4) 0.119(4) 0.038(4) -0.035(4) -0.019(4)
C10 0.120(5) 0.122(5) 0.118(4) 0.042(4) -0.036(4) -0.032(4)
C11 0.112(4) 0.122(4) 0.096(4) 0.022(3) -0.013(3) -0.041(3)
C12 0.102(4) 0.127(5) 0.124(5) 0.047(4) -0.050(4) -0.064(4)
C13 0.132(5) 0.138(5) 0.131(5) 0.029(4) -0.036(4) -0.075(4)
O1J 0.079 0.123 0.0712 0.008 -0.0121 0.0028
O2J 0.085 0.116 0.075 -0.0039 -0.0044 0.004
C1J 0.071 0.096 0.068 0.005 0.006 0.003
C2J 0.081 0.094 0.085 0.014 -0.002 -0.007
C3J 0.071 0.112 0.095 0.022 0.004 0.002
C4J 0.073 0.113 0.098 0.028 -0.022 -0.018
C5J 0.082 0.101 0.096 0.017 -0.017 -0.017
C6J 0.099 0.112 0.111 0.025 -0.017 -0.008
C7J 0.085 0.127 0.109 0.008 -0.006 -0.013
C8J 0.109 0.122 0.114 0.04 -0.025 -0.02
C9J 0.119 0.13 0.112 0.019 -0.038 -0.035
C10J 0.118 0.12 0.122 0.032 -0.042 -0.036
C11J 0.096 0.112 0.122 0.041 -0.022 -0.013
C12J 0.124 0.102 0.127 0.064 -0.047 -0.05
C13J 0.131 0.132 0.138 0.075 -0.029 -0.036
O1W 0.0712 0.079 0.123 -0.0028 -0.008 -0.0121
O2W 0.075 0.085 0.116 -0.004 0.0039 -0.0044
C1W 0.068 0.071 0.096 -0.003 -0.005 0.006
C2W 0.085 0.081 0.094 0.007 -0.014 -0.002
C3W 0.095 0.071 0.112 -0.002 -0.022 0.004
C4W 0.098 0.073 0.113 0.018 -0.028 -0.022
C5W 0.096 0.082 0.101 0.017 -0.017 -0.017
C6W 0.111 0.099 0.112 0.008 -0.025 -0.017
C7W 0.109 0.085 0.127 0.013 -0.008 -0.006
C8W 0.114 0.109 0.122 0.02 -0.04 -0.025
C9W 0.112 0.119 0.13 0.035 -0.019 -0.038
C10W 0.122 0.118 0.12 0.036 -0.032 -0.042
C11W 0.122 0.096 0.112 0.013 -0.041 -0.022
C12W 0.127 0.124 0.102 0.05 -0.064 -0.047
C13W 0.138 0.131 0.132 0.036 -0.075 -0.029
O1D 0.123 0.0712 0.079 0.0121 -0.0028 0.008
O2D 0.116 0.075 0.085 0.0044 -0.004 -0.0039
C1D 0.096 0.068 0.071 -0.006 -0.003 0.005
C2D 0.094 0.085 0.081 0.002 0.007 0.014
C3D 0.112 0.095 0.071 -0.004 -0.002 0.022
C4D 0.113 0.098 0.073 0.022 0.018 0.028
C5D 0.101 0.096 0.082 0.017 0.017 0.017
C6D 0.112 0.111 0.099 0.017 0.008 0.025
C7D 0.127 0.109 0.085 0.006 0.013 0.008
C8D 0.122 0.114 0.109 0.025 0.02 0.04
C9D 0.13 0.112 0.119 0.038 0.035 0.019
C10D 0.12 0.122 0.118 0.042 0.036 0.032
C11D 0.112 0.122 0.096 0.022 0.013 0.041
C12D 0.102 0.127 0.124 0.047 0.05 0.064
C13D 0.132 0.138 0.131 0.029 0.036 0.075
O1N 0.079 0.123 0.0712 0.008 0.0121 -0.0028
O2N 0.085 0.116 0.075 -0.0039 0.0044 -0.004
C1N 0.071 0.096 0.068 0.005 -0.006 -0.003
C2N 0.081 0.094 0.085 0.014 0.002 0.007
C3N 0.071 0.112 0.095 0.022 -0.004 -0.002
C4N 0.073 0.113 0.098 0.028 0.022 0.018
C5N 0.082 0.101 0.096 0.017 0.017 0.017
C6N 0.099 0.112 0.111 0.025 0.017 0.008
C7N 0.085 0.127 0.109 0.008 0.006 0.013
C8N 0.109 0.122 0.114 0.04 0.025 0.02
C9N 0.119 0.13 0.112 0.019 0.038 0.035
C10N 0.118 0.12 0.122 0.032 0.042 0.036
C11N 0.096 0.112 0.122 0.041 0.022 0.013
C12N 0.124 0.102 0.127 0.064 0.047 0.05
C13N 0.131 0.132 0.138 0.075 0.029 0.036
O1V 0.0712 0.079 0.123 -0.0028 0.008 0.0121
O2V 0.075 0.085 0.116 -0.004 -0.0039 0.0044
C1V 0.068 0.071 0.096 -0.003 0.005 -0.006
C2V 0.085 0.081 0.094 0.007 0.014 0.002
C3V 0.095 0.071 0.112 -0.002 0.022 -0.004
C4V 0.098 0.073 0.113 0.018 0.028 0.022
C5V 0.096 0.082 0.101 0.017 0.017 0.017
C6V 0.111 0.099 0.112 0.008 0.025 0.017
C7V 0.109 0.085 0.127 0.013 0.008 0.006
C8V 0.114 0.109 0.122 0.02 0.04 0.025
C9V 0.112 0.119 0.13 0.035 0.019 0.038
C10V 0.122 0.118 0.12 0.036 0.032 0.042
C11V 0.122 0.096 0.112 0.013 0.041 0.022
C12V 0.127 0.124 0.102 0.05 0.064 0.047
C13V 0.138 0.131 0.132 0.036 0.075 0.029
Cu1IA 0.1492 0.0573 0.0554 -0.0052 0 0
O3IA 0.146 0.18 0.139 -0.014 0 0
Cu1J 0.0573 0.1492 0.0554 0 -0.0052 0
O3J 0.18 0.146 0.139 0 -0.014 0
Cu1H 0.0573 0.1492 0.0554 0 0.0052 0
Cu1P 0.0554 0.0573 0.1492 0 0 0.0052
Cu1U 0.0554 0.0573 0.1492 0 0 -0.0052
Cu1Y 0.0554 0.1492 0.0573 0 -0.0052 0
Cu1AA 0.0554 0.1492 0.0573 0 0.0052 0
Cu1OA 0.0573 0.0554 0.1492 0 0 0.0052
Cu1PA 0.0573 0.0554 0.1492 0 0 -0.0052
O1L 0.079 0.123 0.0712 -0.008 -0.0121 -0.0028
O1IA 0.123 0.079 0.0712 -0.0121 -0.008 -0.0028
O1KA 0.123 0.079 0.0712 -0.0121 0.008 0.0028
O2AA 0.075 0.116 0.085 -0.004 0.0044 -0.0039
O2EA 0.075 0.116 0.085 0.004 0.0044 0.0039
O2IA 0.116 0.085 0.075 -0.0044 0.0039 -0.004
O2KA 0.116 0.085 0.075 -0.0044 -0.0039 0.004
loop_
_geom_bond_atom_site_label_1
_geom_bond_atom_site_label_2
_geom_bond_site_symmetry_1
_geom_bond_site_symmetry_2
Cu1 O1 1_555 1_555
O1 C1 1_555 1_555
O2 C1 1_555 1_555
O3 Cu1 1_555 1_555
C1 C2 1_555 1_555
C2 C3 1_555 1_555
C3 H1 1_555 1_555
C4 C3 1_555 1_555
C5 C4 1_555 1_555
C6 C5 1_555 1_555
H2 C6 1_555 1_555
C7 C2 1_555 1_555
H3 C7 1_555 1_555
C8 C4 1_555 1_555
H4 C8 1_555 1_555
C9 C8 1_555 1_555
H5 C9 1_555 1_555
C10 C9 1_555 1_555
C11 C5 1_555 1_555
H6 C11 1_555 1_555
C12 C10 1_555 1_555
C13 C12 1_555 1_555
H7 C13 1_555 1_555
O1J C1J 1_555 1_555
O2J C1J 1_555 1_555
C1J C2J 1_555 1_555
C2J C3J 1_555 1_555
C3J H1J 1_555 1_555
C4J C3J 1_555 1_555
C5J C4J 1_555 1_555
C6J C5J 1_555 1_555
H2J C6J 1_555 1_555
C7J C2J 1_555 1_555
H3J C7J 1_555 1_555
C8J C4J 1_555 1_555
H4J C8J 1_555 1_555
C9J C8J 1_555 1_555
H5J C9J 1_555 1_555
C10J C9J 1_555 1_555
C11J C5J 1_555 1_555
H6J C11J 1_555 1_555
C12J C13 1_555 1_555
C13J C12J 1_555 1_555
H7J C13J 1_555 1_555
O1W C1W 1_555 1_555
O2W C1W 1_555 1_555
C1W C2W 1_555 1_555
C2W C3W 1_555 1_555
C3W H1W 1_555 1_555
C4W C3W 1_555 1_555
C5W C4W 1_555 1_555
C6W C5W 1_555 1_555
H2W C6W 1_555 1_555
C7W C2W 1_555 1_555
H3W C7W 1_555 1_555
C8W C4W 1_555 1_555
H4W C8W 1_555 1_555
C9W C8W 1_555 1_555
H5W C9W 1_555 1_555
C10W C9W 1_555 1_555
C11W C5W 1_555 1_555
H6W C11W 1_555 1_555
C12W C13J 1_555 1_555
C13W C12 1_555 1_555
H7W C13W 1_555 1_555
O1D Cu1 1_555 1_555
O2D C1D 1_555 1_555
C1D O1D 1_555 1_555
C2D C1D 1_555 1_555
C3D C2D 1_555 1_555
H1D C3D 1_555 1_555
C4D C3D 1_555 1_555
C5D C4D 1_555 1_555
C6D C5D 1_555 1_555
H2D C6D 1_555 1_555
C7D C2D 1_555 1_555
H3D C7D 1_555 1_555
C8D C4D 1_555 1_555
H4D C8D 1_555 1_555
C9D C8D 1_555 1_555
H5D C9D 1_555 1_555
C10D C9D 1_555 1_555
C11D C5D 1_555 1_555
H6D C11D 1_555 1_555
C12D C10D 1_555 1_555
C13D C12D 1_555 1_555
H7D C13D 1_555 1_555
O1N C1N 1_555 1_555
O2N C1N 1_555 1_555
C1N C2N 1_555 1_555
C2N C3N 1_555 1_555
C3N H1N 1_555 1_555
C4N C3N 1_555 1_555
C5N C4N 1_555 1_555
C6N C5N 1_555 1_555
H2N C6N 1_555 1_555
C7N C2N 1_555 1_555
H3N C7N 1_555 1_555
C8N C4N 1_555 1_555
H4N C8N 1_555 1_555
C9N C8N 1_555 1_555
H5N C9N 1_555 1_555
C10N C9N 1_555 1_555
C11N C5N 1_555 1_555
H6N C11N 1_555 1_555
C12N C13D 1_555 1_555
C13N C12N 1_555 1_555
H7N C13N 1_555 1_555
O1V C1V 1_555 1_555
O2V C1V 1_555 1_555
C1V C2V 1_555 1_555
C2V C3V 1_555 1_555
C3V H1V 1_555 1_555
C4V C3V 1_555 1_555
C5V C4V 1_555 1_555
C6V C5V 1_555 1_555
H2V C6V 1_555 1_555
C7V C2V 1_555 1_555
H3V C7V 1_555 1_555
C8V C4V 1_555 1_555
H4V C8V 1_555 1_555
C9V C8V 1_555 1_555
H5V C9V 1_555 1_555
C10V C9V 1_555 1_555
C11V C5V 1_555 1_555
H6V C11V 1_555 1_555
C12V C13N 1_555 1_555
C13V C12D 1_555 1_555
H7V C13V 1_555 1_555
Cu1IA Cu1 1_555 1_555
O3IA Cu1IA 1_555 1_555
Cu1J O1J 1_555 1_555
O3J Cu1J 1_555 1_555
Cu1H O1N 1_555 1_555
Cu1P O1V 1_555 1_555
Cu1U O1W 1_555 1_555
Cu1Y O2N 1_555 1_555
Cu1AA O2J 1_555 1_555
Cu1OA O2W 1_555 1_555
Cu1PA O2V 1_555 1_555
O1L Cu1J 1_555 1_555
O1IA Cu1IA 1_555 1_555
O1KA Cu1IA 1_555 1_555
O2AA Cu1J 1_555 1_555
O2EA Cu1J 1_555 1_555
O2IA Cu1 1_555 1_555
O2KA Cu1 1_555 1_555
O2 Cu1IA 1_555 1_555
C6 C7 1_555 1_555
C10 C11 1_555 1_555
C6J C7J 1_555 1_555
C10J C11J 1_555 1_555
C10J C12J 1_555 1_555
C6W C7W 1_555 1_555
C10W C11W 1_555 1_555
C10W C12W 1_555 1_555
C12W C13W 1_555 1_555
O2D Cu1IA 1_555 1_555
C6D C7D 1_555 1_555
C10D C11D 1_555 1_555
C6N C7N 1_555 1_555
C10N C11N 1_555 1_555
C10N C12N 1_555 1_555
C6V C7V 1_555 1_555
C10V C11V 1_555 1_555
C10V C12V 1_555 1_555
C12V C13V 1_555 1_555
Cu1J Cu1AA 1_555 1_555
Cu1H Cu1Y 1_555 1_555
Cu1P Cu1PA 1_555 1_555
Cu1U Cu1OA 1_555 1_555

#END
