
#######################################################################
#
#                 Cambridge Crystallographic Data Centre
#                                CCDC 
#
#######################################################################
#
# If this CIF has been generated from an entry in the Cambridge 
# Structural Database, then it will include bibliographic, chemical, 
# crystal, experimental, refinement or atomic coordinate data resulting 
# from the CCDC's data processing and validation procedures.
#
#######################################################################

data_HOPYEQ
_chemical_formula_moiety         '(C4 H19 N3 O17 P4 Zn4)n'
_symmetry_cell_setting           monoclinic
_symmetry_space_group_name_H-M   'P 21'
_symmetry_Int_Tables_number      4
_space_group_name_Hall           'P 2yb'
loop_
_symmetry_equiv_pos_site_id
_symmetry_equiv_pos_as_xyz
1 x,y,z
2 -x,1/2+y,-z
_cell_length_a                   10.021(4)
_cell_length_b                   8.286(3)
_cell_length_c                   11.856(7)
_cell_angle_alpha                90
_cell_angle_beta                 103.13(2)
_cell_angle_gamma                90
_cell_volume                     958.715
loop_
_atom_site_label
_atom_site_type_symbol
_atom_site_fract_x
_atom_site_fract_y
_atom_site_fract_z
Zn1 Zn 1.6773(2) 0.5303(2) 1.4704(1)
Zn2 Zn 1.6219(2) 0.0521(2) 1.4296(1)
Zn3 Zn 1.9268(2) 0.3254(2) 1.1632(1)
Zn4 Zn 1.6637(2) 0.9422(2) 1.7858(1)
P1 P 1.6456(4) 0.3444(5) 1.2404(3)
P2 P 1.5828(4) 0.2565(4) 1.6258(3)
P3 P 1.9270(4) 0.0954(4) 0.9550(3)
P4 P 1.8269(4) 0.8287(5) 1.6029(3)
O1 O 1.7058(11) 0.4897(13) 1.3173(9)
O2 O 1.8298(10) 0.6743(13) 1.5302(9)
O3 O 1.6873(10) 0.3386(12) 1.5691(8)
O4 O 1.5096(9) 0.1237(13) 1.5403(7)
O5 O 1.6500(13) 0.1911(12) 1.3109(9)
O6 O 1.4779(10) 0.3685(13) 1.6553(8)
O7 O 1.7963(10) 0.9778(12) 1.5231(8)
O8 O 1.7302(10) 0.3188(13) 1.1471(7)
O9 O 1.9689(10) 0.8567(14) 1.6820(8)
O10 O 1.9712(10) 0.1336(12) 1.0819(8)
O11 O 2.0482(10) 0.0396(13) 0.9047(8)
O12 O 1.7165(11) 0.8042(13) 1.6726(9)
O13 O 1.5013(10) 0.3833(15) 1.1720(8)
O14 O 1.6589(10) 0.1741(12) 1.7390(8)
O15 O 1.8080(9) -0.0258(12) 0.9311(8)
O16 O 1.8740(11) 0.2601(12) 0.8935(9)
H1 H 1.8098(11) 0.2938(12) 0.9190(9)
O4A O 1.4904(9) 0.6237(13) 1.4597(7)
O6A O 1.5221(10) -0.1315(13) 1.3447(8)
O7_2 O 1.7963(10) -0.0222(12) 1.5231(8)
O9A O 2.0311(10) 0.3567(14) 1.3180(8)
O11A O 1.9518(10) 0.5396(13) 1.0953(8)
O13A O 1.4987(10) 0.8833(15) 1.8280(8)
O14_2 O 1.6589(10) 1.1741(12) 1.7390(8)
O15_2 O 1.8080(9) 0.9742(12) 1.9311(8)
Zn1A Zn 1.3227(2) 0.0303(2) 1.5296(1)
Zn2A Zn 1.3781(2) 0.5521(2) 1.5704(1)
Zn2_2 Zn 1.6219(2) 1.0521(2) 1.4296(1)
Zn3A Zn 2.0732(2) 0.8254(2) 1.8368(1)
Zn3A_2 Zn 2.0732(2) -0.1746(2) 0.8368(1)
Zn4A Zn 1.3363(2) 0.4422(2) 1.2142(1)
Zn4_2 Zn 1.6637(2) -0.0578(2) 1.7858(1)
Zn4_3 Zn 1.6637(2) -0.0578(2) 0.7858(1)
O17 O 1.7378(12) 0.5870(18) 1.8471(12)
N1 N -0.0056(16) 0.2010(18) 0.6230(12)
N2 N 0.2008(12) 0.3055(16) 0.8588(11)
N3 N 0.5825(12) 0.3698(15) 0.9254(9)
C1 C 0.0196(16) 0.3588(22) 0.6788(13)
C2 C 0.1699(15) 0.3800(21) 0.7395(12)
C3 C 0.3491(15) 0.2651(19) 0.9024(13)
C4 C 0.4342(16) 0.4169(19) 0.9057(12)
H2 H -0.0939(16) 0.1921(18) 0.5884(12)
H3 H 0.0170(16) 0.1237(18) 0.6761(12)
H4 H 0.0449(16) 0.1909(18) 0.5705(12)
H5 H 0.1752(12) 0.3746(16) 0.9085(11)
H6 H 0.1508(12) 0.2149(16) 0.8571(11)
H7 H 0.6336(12) 0.4581(15) 0.9275(9)
H8 H 0.5943(12) 0.3062(15) 0.8680(9)
H9 H 0.6075(12) 0.3173(15) 0.9924(9)
H10 H -0.0367(16) 0.3702(22) 0.7349(13)
H11 H -0.0067(16) 0.4427(22) 0.6210(13)
H12 H 0.2271(15) 0.3299(21) 0.6934(12)
H13 H 0.1919(15) 0.4942(21) 0.7459(12)
H14 H 0.3768(15) 0.1860(19) 0.8519(13)
H15 H 0.3637(15) 0.2191(19) 0.9795(13)
H16 H 0.4063(16) 0.4749(19) 0.8331(12)
H17 H 0.4206(16) 0.4870(19) 0.9677(12)
loop_
_geom_bond_atom_site_label_1
_geom_bond_atom_site_label_2
_geom_bond_site_symmetry_1
_geom_bond_site_symmetry_2
Zn1 O1 1_555 1_555
Zn2 O4 1_555 1_555
Zn3 O8 1_555 1_555
Zn4 O12 1_555 1_555
P1 O1 1_555 1_555
P2 O3 1_555 1_555
P3 O10 1_555 1_555
P4 O2 1_555 1_555
O2 Zn1 1_555 1_555
O3 Zn1 1_555 1_555
O4 P2 1_555 1_555
O5 Zn2 1_555 1_555
O6 P2 1_555 1_555
O7 P4 1_555 1_555
O8 P1 1_555 1_555
O9 P4 1_555 1_555
O10 Zn3 1_555 1_555
O11 P3 1_555 1_555
O12 P4 1_555 1_555
O13 P1 1_555 1_555
O14 P2 1_555 1_555
O15 P3 1_555 1_555
O16 P3 1_555 1_555
N1 C1 1_555 1_555
N2 C2 1_555 1_555
N3 C4 1_555 1_555
C1 C2 1_555 1_555
C2 H12 1_555 1_555
C3 N2 1_555 1_555
C4 C3 1_555 1_555
H1 O16 1_555 1_555
H2 N1 1_555 1_555
H3 N1 1_555 1_555
H4 N1 1_555 1_555
H5 N2 1_555 1_555
H6 N2 1_555 1_555
H7 N3 1_555 1_555
H8 N3 1_555 1_555
H9 N3 1_555 1_555
H10 C1 1_555 1_555
H11 C1 1_555 1_555
H13 C2 1_555 1_555
H14 C3 1_555 1_555
H15 C3 1_555 1_555
H16 C4 1_555 1_555
H17 C4 1_555 1_555
O4A Zn1 1_555 1_555
O6A Zn2 1_555 1_555
O7_2 Zn2 1_555 1_555
O9A Zn3 1_555 1_555
O11A Zn3 1_555 1_555
O13A Zn4 1_555 1_555
O14_2 Zn4 1_555 1_555
O15_2 Zn4 1_555 1_555
Zn1A O4 1_555 1_555
Zn2A O6 1_555 1_555
Zn2_2 O7 1_555 1_555
Zn3A O9 1_555 1_555
Zn3A_2 O11 1_555 1_555
Zn4A O13 1_555 1_555
Zn4_2 O14 1_555 1_555
Zn4_3 O15 1_555 1_555
P1 O5 1_555 1_555
O4A Zn2A 1_555 1_555

#END
