
#######################################################################
#
#                 Cambridge Crystallographic Data Centre
#                                CCDC 
#
#######################################################################
#
# If this CIF has been generated from an entry in the Cambridge 
# Structural Database, then it will include bibliographic, chemical, 
# crystal, experimental, refinement or atomic coordinate data resulting 
# from the CCDC's data processing and validation procedures.
#
#######################################################################

data_QURSEC
_chemical_formula_moiety         '(C24 H18 N4 O9 Pd1 Zn1)n'
_symmetry_cell_setting           orthorhombic
_symmetry_space_group_name_H-M   'C c c a'
_symmetry_Int_Tables_number      68
_space_group_name_Hall           '-C 2a 2ac'
loop_
_symmetry_equiv_pos_site_id
_symmetry_equiv_pos_as_xyz
1 x,y,z
2 -x,1/2-y,z
3 1/2+x,-y,1/2-z
4 1/2-x,1/2+y,1/2-z
5 1/2+x,1/2+y,z
6 1/2-x,-y,z
7 x,1/2-y,1/2-z
8 -x,y,1/2-z
9 -x,-y,-z
10 x,1/2+y,-z
11 1/2-x,y,1/2+z
12 1/2+x,1/2-y,1/2+z
13 1/2-x,1/2-y,-z
14 1/2+x,y,-z
15 -x,1/2+y,1/2+z
16 x,-y,1/2+z
_cell_length_a                   16.958(9)
_cell_length_b                   18.523(9)
_cell_length_c                   25.085(12)
_cell_angle_alpha                90
_cell_angle_beta                 90
_cell_angle_gamma                90
_cell_volume                     7879.53
loop_
_atom_site_label
_atom_site_type_symbol
_atom_site_fract_x
_atom_site_fract_y
_atom_site_fract_z
_atom_site_U_iso_or_equiv
_atom_site_thermal_displace_type
Pd1 Pd -0.5000 0.2500 0.08808(3) 0.0169 Uani
Zn1 Zn -0.7500 -0.0000 -0.16248(4) 0.0167 Uani
O1 O -0.3066(3) 0.4299(3) 0.2927(2) 0.0293 Uani
O2 O -0.3782(4) 0.5197(3) 0.2634(3) 0.0533 Uani
O3 O -0.6930(3) 0.0667(2) -0.1152(2) 0.0257 Uani
O4 O -0.6133(3) -0.0213(3) -0.0877(2) 0.0347 Uani
N1 N -0.5435(3) 0.1841(3) 0.0312(2) 0.0213 Uani
N2 N -0.4558(3) 0.3167(3) 0.1458(2) 0.0197 Uani
C1 C -0.4823(4) 0.3846(4) 0.1497(3) 0.0263 Uani
C2 C -0.4501(4) 0.4325(4) 0.1878(3) 0.0310 Uani
C3 C -0.3908(4) 0.4078(4) 0.2209(2) 0.0243 Uani
C4 C -0.3561(5) 0.4578(4) 0.2624(3) 0.0323 Uani
C5 C -0.3645(4) 0.3391(4) 0.2138(3) 0.0287 Uani
C6 C -0.3977(4) 0.2929(4) 0.1768(2) 0.0247 Uani
C7 C -0.4978(4) 0.1314(4) 0.0107(3) 0.0283 Uani
C8 C -0.5283(4) 0.0845(4) -0.0278(3) 0.0307 Uani
C9 C -0.6052(4) 0.0936(4) -0.0464(3) 0.0247 Uani
C10 C -0.6476(5) 0.1485(5) -0.0257(3) 0.0370 Uani
C11 C -0.6172(4) 0.1943(4) 0.0134(3) 0.0333 Uani
C12 C -0.6388(4) 0.0429(4) -0.0859(2) 0.0210 Uani
H1 H -0.3794 0.2446 0.1736 0.0290 Uiso
H2 H -0.3221 0.3222 0.2352 0.0350 Uiso
H3 H -0.4691 0.4805 0.1907 0.0370 Uiso
H4 H -0.5233 0.4004 0.1267 0.0310 Uiso
H5 H -0.6479 0.2331 0.0268 0.0400 Uiso
H6 H -0.7002 0.1555 -0.0377 0.0440 Uiso
H7 H -0.4966 0.0464 -0.0413 0.0360 Uiso
H8 H -0.4448 0.1264 0.0224 0.0340 Uiso
Pd1N Pd -0.5000 -0.2500 -0.41192(3) 0.0169 Uani
Zn1K Zn -0.2500 0.5000 0.33752(4) 0.0167 Uani
Zn1A Zn -0.2500 0.5000 -0.16248(4) 0.0167 Uani
O1K O -0.8066(3) 0.0701(3) -0.2073(2) 0.0293 Uani
O1N O -0.6934(3) -0.0701(3) -0.2073(2) 0.0293 Uani
O2N O -0.6218(4) 0.0197(3) -0.2366(3) 0.0533 Uani
O3A O -0.3070(3) 0.4333(2) -0.1152(2) 0.0257 Uani
O3E O -0.8070(3) -0.0667(2) -0.1152(2) 0.0257 Uani
O4A O -0.3867(3) 0.5213(3) -0.0877(2) 0.0347 Uani
N1A N -0.4565(3) 0.3159(3) 0.0312(2) 0.0213 Uani
N2A N -0.5442(3) 0.1833(3) 0.1458(2) 0.0197 Uani
N2N N -0.5442(3) -0.1833(3) -0.3542(2) 0.0197 Uani
C1N C -0.5177(4) -0.1154(4) -0.3503(3) 0.0263 Uani
C2N C -0.5499(4) -0.0675(4) -0.3122(3) 0.0310 Uani
C3N C -0.6092(4) -0.0922(4) -0.2791(2) 0.0243 Uani
C4N C -0.6439(5) -0.0422(4) -0.2376(3) 0.0323 Uani
C5N C -0.6355(4) -0.1609(4) -0.2862(3) 0.0287 Uani
C6N C -0.6023(4) -0.2071(4) -0.3232(2) 0.0247 Uani
C7A C -0.5022(4) 0.3686(4) 0.0107(3) 0.0283 Uani
C8A C -0.4717(4) 0.4155(4) -0.0278(3) 0.0307 Uani
C9A C -0.3948(4) 0.4064(4) -0.0464(3) 0.0247 Uani
C10A C -0.3524(5) 0.3515(5) -0.0257(3) 0.0370 Uani
C11A C -0.3828(4) 0.3057(4) 0.0134(3) 0.0333 Uani
C12A C -0.3612(4) 0.4571(4) -0.0859(2) 0.0210 Uani
H1N H -0.6206 -0.2554 -0.3264 0.0290 Uiso
H2N H -0.6779 -0.1778 -0.2648 0.0350 Uiso
H3N H -0.5309 -0.0195 -0.3093 0.0370 Uiso
H4N H -0.4767 -0.0996 -0.3733 0.0310 Uiso
H5A H -0.3521 0.2669 0.0268 0.0400 Uiso
H6A H -0.2998 0.3445 -0.0377 0.0440 Uiso
H7A H -0.5034 0.4536 -0.0413 0.0360 Uiso
H8A H -0.5552 0.3736 0.0224 0.0340 Uiso
O5 O -0.2104(6) 0.2187(7) 0.1462(4) 0.1153 Uani
loop_
_atom_site_aniso_label
_atom_site_aniso_U_11
_atom_site_aniso_U_22
_atom_site_aniso_U_33
_atom_site_aniso_U_23
_atom_site_aniso_U_13
_atom_site_aniso_U_12
Pd1 0.0247 0.0151 0.0108 0 0 -0.0041
Zn1 0.0219 0.0159 0.0124 0 0 0.0019
O1 0.039 0.031 0.018 -0.008 -0.007 -0.006
O2 0.077 0.026 0.057 -0.008 -0.033 -0.002
O3 0.03 0.021 0.026 -0.007 -0.009 0.004
O4 0.04 0.015 0.049 -0.012 -0.015 0.007
N1 0.031 0.017 0.016 -0.005 -0.005 -0.005
N2 0.025 0.019 0.015 -0.001 0 -0.002
C1 0.033 0.023 0.023 -0.008 -0.009 0.003
C2 0.034 0.02 0.039 -0.006 -0.006 0.004
C3 0.028 0.026 0.019 -0.008 0 -0.001
C4 0.04 0.027 0.03 -0.012 -0.009 0
C5 0.031 0.031 0.024 -0.001 -0.008 0.006
C6 0.025 0.028 0.021 0.001 -0.002 0.002
C7 0.027 0.031 0.027 -0.004 -0.011 0.009
C8 0.031 0.025 0.036 -0.011 -0.006 0.008
C9 0.029 0.017 0.028 -0.003 -0.004 0.001
C10 0.037 0.031 0.043 -0.016 -0.014 0.013
C11 0.032 0.026 0.042 -0.018 -0.009 0.01
C12 0.029 0.018 0.016 -0.004 0 0
Pd1N 0.0247 0.0151 0.0108 0 0 0.0041
Zn1K 0.0219 0.0159 0.0124 0 0 -0.0019
Zn1A 0.0219 0.0159 0.0124 0 0 0.0019
O1K 0.039 0.031 0.018 0.008 -0.007 0.006
O1N 0.039 0.031 0.018 -0.008 0.007 0.006
O2N 0.077 0.026 0.057 -0.008 0.033 0.002
O3A 0.03 0.021 0.026 0.007 0.009 0.004
O3E 0.03 0.021 0.026 0.007 0.009 0.004
O4A 0.04 0.015 0.049 0.012 0.015 0.007
N1A 0.031 0.017 0.016 0.005 0.005 -0.005
N2A 0.025 0.019 0.015 0.001 0 -0.002
N2N 0.025 0.019 0.015 -0.001 0 0.002
C1N 0.033 0.023 0.023 -0.008 0.009 -0.003
C2N 0.034 0.02 0.039 -0.006 0.006 -0.004
C3N 0.028 0.026 0.019 -0.008 0 0.001
C4N 0.04 0.027 0.03 -0.012 0.009 0
C5N 0.031 0.031 0.024 -0.001 0.008 -0.006
C6N 0.025 0.028 0.021 0.001 0.002 -0.002
C7A 0.027 0.031 0.027 0.004 0.011 0.009
C8A 0.031 0.025 0.036 0.011 0.006 0.008
C9A 0.029 0.017 0.028 0.003 0.004 0.001
C10A 0.037 0.031 0.043 0.016 0.014 0.013
C11A 0.032 0.026 0.042 0.018 0.009 0.01
C12A 0.029 0.018 0.016 0.004 0 0
O5 0.083 0.169 0.094 -0.047 -0.031 0.001
loop_
_geom_bond_atom_site_label_1
_geom_bond_atom_site_label_2
_geom_bond_site_symmetry_1
_geom_bond_site_symmetry_2
Pd1 N1 1_555 1_555
Zn1 O3 1_555 1_555
O1 C4 1_555 1_555
O2 C4 1_555 1_555
O3 C12 1_555 1_555
O4 C12 1_555 1_555
N1 C7 1_555 1_555
N2 Pd1 1_555 1_555
C1 N2 1_555 1_555
C2 C1 1_555 1_555
C3 C2 1_555 1_555
C4 C3 1_555 1_555
C5 C3 1_555 1_555
C6 N2 1_555 1_555
C7 C8 1_555 1_555
C8 C9 1_555 1_555
C9 C10 1_555 1_555
C10 C11 1_555 1_555
C11 N1 1_555 1_555
C12 C9 1_555 1_555
H1 C6 1_555 1_555
H2 C5 1_555 1_555
H3 C2 1_555 1_555
H4 C1 1_555 1_555
H5 C11 1_555 1_555
H6 C10 1_555 1_555
H7 C8 1_555 1_555
H8 C7 1_555 1_555
Pd1N N2N 1_555 1_555
Zn1K O1 1_555 1_555
Zn1A O3A 1_555 1_555
O1K Zn1 1_555 1_555
O1N Zn1 1_555 1_555
O2N C4N 1_555 1_555
O3A C12A 1_555 1_555
O3E Zn1 1_555 1_555
O4A C12A 1_555 1_555
N1A Pd1 1_555 1_555
N2A Pd1 1_555 1_555
N2N C1N 1_555 1_555
C1N C2N 1_555 1_555
C2N C3N 1_555 1_555
C3N C4N 1_555 1_555
C4N O1N 1_555 1_555
C5N C3N 1_555 1_555
C6N N2N 1_555 1_555
C7A N1A 1_555 1_555
C8A C7A 1_555 1_555
C9A C8A 1_555 1_555
C10A C9A 1_555 1_555
C11A N1A 1_555 1_555
C12A C9A 1_555 1_555
H1N C6N 1_555 1_555
H2N C5N 1_555 1_555
H3N C2N 1_555 1_555
H4N C1N 1_555 1_555
H5A C11A 1_555 1_555
H6A C10A 1_555 1_555
H7A C8A 1_555 1_555
H8A C7A 1_555 1_555
C5 C6 1_555 1_555
C5N C6N 1_555 1_555
C10A C11A 1_555 1_555

#END
