
#######################################################################
#
#                 Cambridge Crystallographic Data Centre
#                                CCDC 
#
#######################################################################
#
# If this CIF has been generated from an entry in the Cambridge 
# Structural Database, then it will include bibliographic, chemical, 
# crystal, experimental, refinement or atomic coordinate data resulting 
# from the CCDC's data processing and validation procedures.
#
#######################################################################

data_NOFQOQ
_chemical_formula_moiety         '(C10 H14 Cl1 Cu1 I2 N4)n'
_symmetry_cell_setting           orthorhombic
_symmetry_space_group_name_H-M   'I m a 2'
_symmetry_Int_Tables_number      46
_space_group_name_Hall           'I 2 -2a'
loop_
_symmetry_equiv_pos_site_id
_symmetry_equiv_pos_as_xyz
1 x,y,z
2 -x,-y,z
3 1/2+x,-y,z
4 1/2-x,y,z
5 1/2+x,1/2+y,1/2+z
6 1/2-x,1/2-y,1/2+z
7 x,1/2-y,1/2+z
8 -x,1/2+y,1/2+z
_cell_length_a                   17.100(8)
_cell_length_b                   13.303(6)
_cell_length_c                   7.297(3)
_cell_angle_alpha                90
_cell_angle_beta                 90
_cell_angle_gamma                90
_cell_volume                     1659.93
loop_
_atom_site_label
_atom_site_type_symbol
_atom_site_fract_x
_atom_site_fract_y
_atom_site_fract_z
_atom_site_U_iso_or_equiv
_atom_site_thermal_displace_type
C1 C 0.6115(13) 0.4684(17) 0.767(4) 0.0517 Uani
H1 H 0.5828 0.4897 0.8762 0.0780 Uiso
H2 H 0.6678 0.4685 0.7928 0.0780 Uiso
H3 H 0.5950 0.4005 0.7317 0.0780 Uiso
C2 C 0.5955(9) 0.5368(12) 0.619(2) 0.0267 Uani
C3 C 0.5334(8) 0.5358(13) 0.493(2) 0.0283 Uani
C4 C 0.5457(9) 0.6152(14) 0.374(2) 0.0317 Uani
C5 C 0.5026(15) 0.652(2) 0.215(3) 0.0543 Uani
H4 H 0.5050 0.7252 0.2107 0.0820 Uiso
H5 H 0.4480 0.6301 0.2231 0.0820 Uiso
H6 H 0.5260 0.6241 0.1027 0.0820 Uiso
N1 N 0.6448(7) 0.6136(10) 0.5783(17) 0.0233 Uani
N2 N 0.6122(8) 0.6588(12) 0.4299(17) 0.0263 Uani
H7 H 0.6328 0.7116 0.3757 0.0320 Uiso
Cu1 Cu 0.7500 0.6516(2) 0.6679(4) 0.0251 Uani
I1 I 0.7500 0.84764(11) 0.53478(19) 0.0270 Uani
I2 I 0.7500 1.05271(19) 0.7522(4) 0.0389 Uani
Cl1 Cl 0.7500 1.2206(3) 0.9668(7) 0.0813 Uani
C1A C 0.3885(13) 0.5316(17) 0.767(4) 0.0517 Uani
H1A H 0.4172 0.5103 0.8762 0.0780 Uiso
H2A H 0.3322 0.5315 0.7928 0.0780 Uiso
H3A H 0.4050 0.5995 0.7317 0.0780 Uiso
C2A C 0.4045(9) 0.4632(12) 0.619(2) 0.0267 Uani
C3A C 0.4666(8) 0.4642(13) 0.493(2) 0.0283 Uani
C4A C 0.4543(9) 0.3848(14) 0.374(2) 0.0317 Uani
C5A C 0.4974(15) 0.348(2) 0.215(3) 0.0543 Uani
H4A H 0.4950 0.2748 0.2107 0.0820 Uiso
H5A H 0.5520 0.3699 0.2231 0.0820 Uiso
H6A H 0.4740 0.3759 0.1027 0.0820 Uiso
N1A N 0.3552(7) 0.3864(10) 0.5783(17) 0.0233 Uani
N2A N 0.3878(8) 0.3412(12) 0.4299(17) 0.0263 Uani
H7A H 0.3672 0.2884 0.3757 0.0320 Uiso
N1C N 0.8552(7) 0.6136(10) 0.5783(17) 0.0233 Uani
Cu1A Cu 0.2500 0.3484(2) 0.6679(4) 0.0251 Uani
Cu1E Cu 0.7500 0.8484(2) 0.1679(4) 0.0251 Uani
I1E I 0.7500 0.65236(11) 1.03478(19) 0.0270 Uani
loop_
_atom_site_aniso_label
_atom_site_aniso_U_11
_atom_site_aniso_U_22
_atom_site_aniso_U_33
_atom_site_aniso_U_23
_atom_site_aniso_U_13
_atom_site_aniso_U_12
C1 0.038(11) 0.055(12) 0.062(13) 0.020(12) -0.027(11) -0.017(10)
C2 0.020(6) 0.035(9) 0.025(8) 0.001(7) -0.001(6) -0.008(6)
C3 0.014(6) 0.047(10) 0.024(9) -0.005(6) 0.000(5) -0.010(6)
C4 0.023(7) 0.050(10) 0.022(9) 0.003(7) -0.003(7) -0.012(6)
C5 0.042(12) 0.081(17) 0.040(12) 0.016(9) -0.020(9) -0.027(12)
N1 0.014(5) 0.033(7) 0.023(7) 0.002(5) -0.002(4) -0.005(5)
N2 0.017(6) 0.046(8) 0.016(6) 0.008(6) -0.004(5) -0.016(6)
Cu1 0.0096(13) 0.0323(15) 0.0334(16) 0.0025(14) 0.000 0.000
I1 0.0212(7) 0.0358(8) 0.0240(6) 0.0022(7) 0.000 0.000
I2 0.0467(17) 0.0317(14) 0.0384(14) 0.0026(12) 0.000 0.000
Cl1 0.143(5) 0.044(2) 0.057(3) -0.0172(17) 0.000 0.000
C1A 0.038 0.055 0.062 -0.02 0.027 -0.017
C2A 0.02 0.035 0.025 -0.001 0.001 -0.008
C3A 0.014 0.047 0.024 0.005 0 -0.01
C4A 0.023 0.05 0.022 -0.003 0.003 -0.012
C5A 0.042 0.081 0.04 -0.016 0.02 -0.027
N1A 0.014 0.033 0.023 -0.002 0.002 -0.005
N2A 0.017 0.046 0.016 -0.008 0.004 -0.016
N1C 0.014 0.033 0.023 0.002 0.002 0.005
Cu1A 0.0096 0.0323 0.0334 -0.0025 0 0
Cu1E 0.0096 0.0323 0.0334 -0.0025 0 0
I1E 0.0212 0.0358 0.024 -0.0022 0 0
loop_
_geom_bond_atom_site_label_1
_geom_bond_atom_site_label_2
_geom_bond_site_symmetry_1
_geom_bond_site_symmetry_2
C1 H1 1_555 1_555
H2 C1 1_555 1_555
H3 C1 1_555 1_555
C2 C1 1_555 1_555
C3 C2 1_555 1_555
C4 C3 1_555 1_555
C5 C4 1_555 1_555
H4 C5 1_555 1_555
H5 C5 1_555 1_555
H6 C5 1_555 1_555
N1 C2 1_555 1_555
N2 C4 1_555 1_555
H7 N2 1_555 1_555
Cu1 N1 1_555 1_555
I1 Cu1 1_555 1_555
I2 I1 1_555 1_555
Cl1 I2 1_555 1_555
C1A H1A 1_555 1_555
H2A C1A 1_555 1_555
H3A C1A 1_555 1_555
C2A C1A 1_555 1_555
C3A C3 1_555 1_555
C4A C3A 1_555 1_555
C5A C4A 1_555 1_555
H4A C5A 1_555 1_555
H5A C5A 1_555 1_555
H6A C5A 1_555 1_555
N1A C2A 1_555 1_555
N2A C4A 1_555 1_555
H7A N2A 1_555 1_555
N1C Cu1 1_555 1_555
Cu1A N1A 1_555 1_555
Cu1E I1 1_555 1_555
I1E Cu1 1_555 1_555
N1 N2 1_555 1_555
C2A C3A 1_555 1_555
N1A N2A 1_555 1_555

#END
