
#######################################################################
#
#                 Cambridge Crystallographic Data Centre
#                                CCDC 
#
#######################################################################
#
# If this CIF has been generated from an entry in the Cambridge 
# Structural Database, then it will include bibliographic, chemical, 
# crystal, experimental, refinement or atomic coordinate data resulting 
# from the CCDC's data processing and validation procedures.
#
#######################################################################

data_KOMDAT
_chemical_formula_moiety         '(C54 H41 Cl2 I3 N14 Zn2)n'
_symmetry_cell_setting           orthorhombic
_symmetry_space_group_name_H-M   'P b c n'
_symmetry_Int_Tables_number      60
_space_group_name_Hall           '-P 2n 2ab'
loop_
_symmetry_equiv_pos_site_id
_symmetry_equiv_pos_as_xyz
1 x,y,z
2 1/2-x,1/2-y,1/2+z
3 -x,y,1/2-z
4 1/2+x,1/2-y,-z
5 -x,-y,-z
6 1/2+x,1/2+y,1/2-z
7 x,-y,1/2+z
8 1/2-x,1/2+y,z
_cell_length_a                   8.960(5)
_cell_length_b                   28.437(14)
_cell_length_c                   56.80(3)
_cell_angle_alpha                90
_cell_angle_beta                 90
_cell_angle_gamma                90
_cell_volume                     14472.4
loop_
_atom_site_label
_atom_site_type_symbol
_atom_site_fract_x
_atom_site_fract_y
_atom_site_fract_z
_atom_site_U_iso_or_equiv
_atom_site_thermal_displace_type
I1 I -0.2278(4) -0.42104(11) 0.00620(5) 0.2160 Uani
I2 I 0.0000 -0.5000 0.0000 0.2313 Uani
I1D I 0.2278(4) -0.57896(11) -0.00620(5) 0.2160 Uani
C1 C 0.1760(12) 0.0316(4) 0.1810(2) 0.0570 Uani
H1 H 0.2478 0.0561 0.1809 0.0680 Uiso
N1 N 0.1173(14) 0.0092(4) 0.20137(15) 0.0600 Uani
C2 C 0.0136(14) -0.0255(4) 0.1939(2) 0.0617 Uani
H2 H -0.0424 -0.0458 0.2038 0.0740 Uiso
C3 C 0.0083(13) -0.0245(4) 0.1689(2) 0.0603 Uani
H3 H -0.0518 -0.0440 0.1592 0.0720 Uiso
N2 N 0.1087(14) 0.0107(4) 0.16095(14) 0.0563 Uani
C4 C 0.2774(14) 0.0657(3) 0.2534(2) 0.0620 Uani
H4 H 0.3098 0.0960 0.2582 0.0740 Uiso
C5 C 0.2244(14) 0.0587(4) 0.23065(19) 0.0597 Uani
H5 H 0.2206 0.0842 0.2199 0.0720 Uiso
C6 C 0.1771(14) 0.0143(4) 0.22364(16) 0.0597 Uani
C7 C 0.1827(14) -0.0231(3) 0.2394(2) 0.0603 Uani
H6 H 0.1504 -0.0535 0.2346 0.0720 Uiso
C8 C 0.2357(14) -0.0161(4) 0.26210(19) 0.0593 Uani
H7 H 0.2396 -0.0417 0.2729 0.0710 Uiso
C9 C 0.2831(14) 0.0283(4) 0.26911(16) 0.0580 Uani
C10 C 0.3023(10) 0.2324(4) 0.3509(2) 0.0550 Uani
H8 H 0.4048 0.2367 0.3472 0.0660 Uiso
C11 C 0.2118(13) 0.2640(3) 0.3639(2) 0.0547 Uani
H9 H 0.2430 0.2932 0.3704 0.0660 Uiso
N3 N 0.0663(11) 0.2445(4) 0.36548(19) 0.0523 Uani
C12 C 0.0669(11) 0.2008(3) 0.3534(2) 0.0510 Uani
H10 H -0.0157 0.1801 0.3517 0.0610 Uiso
N4 N 0.2128(13) 0.1933(3) 0.34439(18) 0.0530 Uani
C13 C 0.3838(12) 0.1371(4) 0.33333(19) 0.0533 Uani
H11 H 0.4556 0.1511 0.3435 0.0640 Uiso
C14 C 0.2408(14) 0.1559(3) 0.33190(19) 0.0537 Uani
C15 C 0.1358(11) 0.1355(4) 0.3171(2) 0.0557 Uani
H12 H 0.0381 0.1483 0.3161 0.0670 Uiso
C16 C 0.1738(12) 0.0964(4) 0.30365(18) 0.0563 Uani
H13 H 0.1020 0.0825 0.2935 0.0680 Uiso
C17 C 0.3168(14) 0.0777(3) 0.30508(19) 0.0563 Uani
C18 C 0.4218(11) 0.0980(4) 0.3199(2) 0.0560 Uani
H14 H 0.5196 0.0853 0.3209 0.0670 Uiso
C19 C 0.596(2) -0.1347(6) 0.3539(3) 0.0497 Uani
H15 H 0.5030 -0.1249 0.3601 0.0600 Uiso
C20 C 0.807(2) -0.1689(6) 0.3505(3) 0.0540 Uani
H16 H 0.8930 -0.1873 0.3534 0.0650 Uiso
C21 C 0.793(2) -0.1303(6) 0.3331(3) 0.0513 Uani
H17 H 0.8611 -0.1201 0.3214 0.0610 Uiso
C22 C 0.5902(12) -0.0701(4) 0.30177(19) 0.0493 Uani
H18 H 0.6481 -0.0916 0.2928 0.0590 Uiso
C23 C 0.5200(13) -0.0325(4) 0.29071(14) 0.0500 Uani
H19 H 0.5300 -0.0283 0.2742 0.0600 Uiso
C24 C 0.4352(13) -0.0010(3) 0.30381(19) 0.0500 Uani
C25 C 0.4205(12) -0.0071(4) 0.32798(18) 0.0473 Uani
H20 H 0.3626 0.0144 0.3369 0.0570 Uiso
C26 C 0.4907(13) -0.0447(4) 0.33904(14) 0.0470 Uani
H21 H 0.4806 -0.0489 0.3556 0.0560 Uiso
C27 C 0.5755(13) -0.0762(3) 0.32594(19) 0.0487 Uani
N5 N 0.2126(12) -0.0211(3) 0.11077(17) 0.0477 Uani
C28 C 0.1158(10) -0.0585(4) 0.1044(2) 0.0453 Uani
H22 H 0.0150 -0.0621 0.1093 0.0540 Uiso
C29 C 0.1961(13) -0.0897(3) 0.08955(19) 0.0397 Uani
N6 N 0.3425(11) -0.0715(4) 0.08667(17) 0.0477 Uani
C30 C 0.3527(10) -0.0291(3) 0.09978(19) 0.0490 Uani
H23 H 0.4383 -0.0095 0.1010 0.0590 Uiso
C31 C 0.0235(12) -0.1552(3) 0.09017(13) 0.0353 Uani
H24 H -0.0088 -0.1457 0.1054 0.0420 Uiso
C32 C -0.0408(10) -0.1941(3) 0.07941(17) 0.0350 Uani
H25 H -0.1169 -0.2113 0.0873 0.0420 Uiso
C33 C 0.0064(11) -0.2080(3) 0.05716(17) 0.0337 Uani
C34 C 0.1178(11) -0.1829(3) 0.04566(13) 0.0333 Uani
H26 H 0.1500 -0.1924 0.0304 0.0400 Uiso
C35 C 0.1820(10) -0.1439(3) 0.05641(17) 0.0340 Uani
H27 H 0.2582 -0.1268 0.0486 0.0410 Uiso
C36 C 0.1349(11) -0.1301(3) 0.07867(17) 0.0360 Uani
C37 C -0.2427(18) -0.3571(6) 0.0880(3) 0.0347 Uani
C38 C -0.3055(17) -0.3425(5) 0.0660(3) 0.0337 Uani
H28 H -0.3886 -0.3593 0.0599 0.0400 Uiso
C39 C -0.2496(18) -0.3044(5) 0.0530(3) 0.0317 Uani
H29 H -0.3020 -0.2929 0.0397 0.0380 Uiso
C40 C -0.1233(18) -0.2848(5) 0.0597(3) 0.0317 Uani
C41 C -0.0467(18) -0.2993(5) 0.0797(3) 0.0320 Uani
H30 H 0.0435 -0.2840 0.0839 0.0380 Uiso
C42 C -0.1007(17) -0.3367(5) 0.0939(3) 0.0320 Uani
H31 H -0.0446 -0.3479 0.1069 0.0380 Uiso
C43 C 0.0094(12) -0.3113(3) -0.00935(18) 0.0403 Uani
H32 H 0.0425 -0.3414 -0.0143 0.0480 Uiso
C44 C -0.0028(12) -0.3013(3) 0.01454(16) 0.0393 Uani
H33 H 0.0221 -0.3247 0.0259 0.0470 Uiso
C45 C -0.0513(12) -0.2573(4) 0.02185(13) 0.0370 Uani
C46 C -0.0877(12) -0.2232(3) 0.00529(18) 0.0410 Uani
H34 H -0.1209 -0.1931 0.0103 0.0490 Uiso
C47 C -0.0756(12) -0.2331(3) -0.01859(16) 0.0397 Uani
H35 H -0.1005 -0.2098 -0.0299 0.0480 Uiso
C48 C -0.0271(12) -0.2772(4) -0.02591(13) 0.0427 Uani
C49 C -0.0844(12) -0.2629(3) -0.06770(19) 0.0463 Uani
H36 H -0.1508 -0.2371 -0.0659 0.0560 Uiso
N7 N 0.0002(13) -0.2843(4) -0.04946(14) 0.0470 Uani
C50 C 0.0847(12) -0.3215(4) -0.05953(19) 0.0480 Uani
H37 H 0.1511 -0.3417 -0.0513 0.0580 Uiso
C51 C 0.0523(13) -0.3231(4) -0.08399(17) 0.0477 Uani
H38 H 0.0934 -0.3445 -0.0950 0.0570 Uiso
N8 N -0.0521(12) -0.2869(4) -0.08904(14) 0.0490 Uani
Cl1 Cl 0.3412(5) 0.08133(15) 0.12813(7) 0.0517 Uani
Cl2 Cl -0.2951(6) -0.21359(17) -0.12540(8) 0.0600 Uani
N9 N 0.3525(17) 0.0348(5) 0.2920(2) 0.0540 Uani
N10 N 0.6597(18) -0.1141(5) 0.3384(3) 0.0490 Uani
N11 N 0.6687(17) -0.1731(5) 0.3617(2) 0.0520 Uani
N12 N -0.0646(14) -0.2492(4) 0.0462(2) 0.0340 Uani
N13 N -0.4712(9) -0.4418(3) 0.11741(17) 0.0417 Uani
C52 C -0.3278(11) -0.4626(3) 0.11963(18) 0.0423 Uani
H39 H -0.3062 -0.4918 0.1270 0.0510 Uiso
C53 C -0.2225(8) -0.4322(4) 0.10880(19) 0.0397 Uani
H40 H -0.1180 -0.4375 0.1077 0.0470 Uiso
N14 N -0.3008(11) -0.3926(3) 0.09989(16) 0.0357 Uani
C54 C -0.4545(10) -0.3986(3) 0.10521(17) 0.0370 Uani
H41 H -0.5325 -0.3773 0.1013 0.0440 Uiso
Zn1 Zn 0.1563(2) 0.03105(7) 0.12988(4) 0.0454 Uani
Zn2 Zn -0.1198(2) -0.26979(7) -0.12036(4) 0.0457 Uani
N3F N 0.0663(11) -0.2445(4) -0.13452(19) 0.0523 Uani
N11A N -0.1687(17) -0.3269(5) -0.1383(2) 0.0520 Uani
N13G N -0.0288(9) 0.0582(3) 0.11741(17) 0.0417 Uani
Zn1G Zn -0.6563(2) -0.46895(7) 0.12988(4) 0.0454 Uani
Zn2A Zn 0.6198(2) -0.23021(7) 0.37964(4) 0.0457 Uani
Zn2F Zn -0.1198(2) 0.26979(7) 0.37964(4) 0.0457 Uani
loop_
_atom_site_aniso_label
_atom_site_aniso_U_11
_atom_site_aniso_U_22
_atom_site_aniso_U_33
_atom_site_aniso_U_23
_atom_site_aniso_U_13
_atom_site_aniso_U_12
I1 0.267(4) 0.211(3) 0.170(3) 0.051(2) -0.047(3) -0.094(3)
I2 0.315(6) 0.207(4) 0.172(4) 0.007(3) -0.029(4) -0.128(4)
I1D 0.267 0.211 0.17 0.051 -0.047 -0.094
C1 0.064(6) 0.056(6) 0.051(5) 0.005(5) 0.007(5) 0.008(5)
N1 0.067(5) 0.060(5) 0.053(5) 0.001(4) 0.008(5) 0.010(4)
C2 0.069(6) 0.063(6) 0.053(5) 0.004(5) 0.007(5) 0.006(5)
C3 0.066(6) 0.064(6) 0.051(5) 0.003(5) 0.005(5) 0.008(5)
N2 0.064(6) 0.058(6) 0.047(5) 0.005(5) 0.005(5) 0.008(5)
C4 0.068(5) 0.059(5) 0.059(5) 0.001(5) 0.002(5) 0.012(5)
C5 0.064(5) 0.058(5) 0.057(5) -0.001(5) 0.005(5) 0.014(5)
C6 0.064(5) 0.059(5) 0.056(5) 0.000(4) 0.008(4) 0.012(5)
C7 0.065(5) 0.057(5) 0.059(5) 0.001(5) 0.009(5) 0.012(5)
C8 0.066(5) 0.055(5) 0.057(5) 0.003(5) 0.004(5) 0.011(5)
C9 0.067(5) 0.052(5) 0.055(4) 0.001(4) 0.001(4) 0.011(4)
C10 0.068(6) 0.040(6) 0.057(5) -0.001(5) -0.008(5) 0.009(5)
C11 0.069(6) 0.038(6) 0.057(6) -0.003(5) -0.006(5) 0.007(5)
N3 0.068(6) 0.038(5) 0.051(5) -0.002(4) -0.002(5) 0.009(5)
C12 0.069(6) 0.035(5) 0.049(5) -0.003(5) -0.001(5) 0.008(5)
N4 0.069(5) 0.038(5) 0.052(5) -0.004(4) -0.007(4) 0.010(4)
C13 0.067(5) 0.042(5) 0.051(5) -0.006(4) -0.005(5) 0.004(5)
C14 0.069(5) 0.042(5) 0.050(5) -0.007(4) -0.006(4) 0.008(4)
C15 0.068(5) 0.047(5) 0.052(5) -0.009(4) -0.006(5) 0.011(5)
C16 0.069(5) 0.049(5) 0.051(5) -0.010(4) -0.006(5) 0.011(5)
C17 0.069(5) 0.049(5) 0.051(4) -0.006(4) -0.005(4) 0.010(4)
C18 0.067(5) 0.047(5) 0.054(5) -0.005(4) -0.005(5) 0.006(5)
C19 0.055(6) 0.042(5) 0.052(5) 0.008(5) -0.006(5) 0.004(5)
C20 0.059(6) 0.048(6) 0.055(6) 0.007(5) -0.008(5) 0.002(5)
C21 0.058(6) 0.044(5) 0.052(5) 0.010(5) -0.008(5) -0.002(5)
C22 0.056(5) 0.042(5) 0.050(5) 0.004(4) -0.003(5) 0.006(5)
C23 0.057(5) 0.044(5) 0.049(5) 0.004(4) -0.003(5) 0.006(5)
C24 0.060(5) 0.043(4) 0.047(4) 0.001(4) -0.001(4) 0.005(4)
C25 0.057(5) 0.041(5) 0.044(5) -0.001(4) -0.004(5) 0.002(5)
C26 0.055(5) 0.041(5) 0.045(5) 0.001(4) -0.004(5) 0.001(5)
C27 0.055(5) 0.042(5) 0.049(4) 0.004(4) -0.004(4) 0.001(4)
N5 0.050(5) 0.036(5) 0.057(5) 0.012(5) -0.008(5) -0.001(5)
C28 0.047(5) 0.036(5) 0.053(5) 0.006(5) -0.010(5) -0.002(5)
C29 0.045(5) 0.029(5) 0.045(5) 0.006(4) -0.011(4) 0.000(4)
N6 0.053(5) 0.036(5) 0.054(5) 0.006(4) -0.011(5) 0.001(5)
C30 0.054(5) 0.035(5) 0.058(6) 0.011(5) -0.008(5) 0.001(5)
C31 0.044(5) 0.027(5) 0.035(5) 0.004(4) -0.009(4) 0.000(4)
C32 0.042(5) 0.028(5) 0.035(5) 0.003(4) -0.007(4) -0.002(4)
C33 0.039(4) 0.025(4) 0.037(4) -0.004(4) -0.006(4) -0.001(4)
C34 0.040(5) 0.024(5) 0.036(5) 0.001(4) -0.005(4) 0.001(4)
C35 0.039(5) 0.025(5) 0.038(5) 0.005(4) -0.003(4) 0.003(4)
C36 0.043(4) 0.027(4) 0.038(4) 0.004(4) -0.011(4) 0.003(4)
C37 0.038(4) 0.035(4) 0.031(4) 0.003(4) 0.002(4) -0.007(4)
C38 0.035(5) 0.035(5) 0.031(5) 0.003(4) -0.001(4) -0.007(4)
C39 0.035(5) 0.030(5) 0.030(5) 0.002(4) 0.001(4) -0.004(4)
C40 0.036(4) 0.029(4) 0.030(4) 0.000(4) 0.002(4) -0.005(4)
C41 0.038(5) 0.029(5) 0.029(5) 0.000(4) 0.001(4) -0.008(4)
C42 0.038(5) 0.030(5) 0.028(5) -0.002(4) 0.000(4) -0.007(4)
C43 0.044(5) 0.035(5) 0.042(5) 0.000(4) 0.000(5) -0.001(5)
C44 0.041(5) 0.035(5) 0.042(5) -0.001(4) 0.002(5) -0.001(5)
C45 0.040(4) 0.030(4) 0.041(4) -0.001(4) 0.000(4) -0.005(4)
C46 0.040(5) 0.036(5) 0.047(5) -0.004(4) -0.001(5) -0.004(4)
C47 0.041(5) 0.035(5) 0.043(5) -0.004(4) 0.000(5) -0.002(5)
C48 0.049(4) 0.035(4) 0.044(4) -0.004(4) 0.000(4) -0.002(4)
C49 0.062(6) 0.032(5) 0.045(5) -0.006(4) 0.003(5) -0.007(5)
N7 0.060(5) 0.035(4) 0.046(4) -0.003(4) 0.003(4) -0.005(4)
C50 0.060(6) 0.035(5) 0.049(5) -0.002(5) 0.006(5) -0.008(5)
C51 0.061(6) 0.034(5) 0.048(5) -0.001(5) 0.004(5) -0.008(5)
N8 0.065(6) 0.033(5) 0.049(5) -0.007(4) 0.005(5) -0.007(5)
Cl1 0.065(3) 0.048(3) 0.042(3) 0.013(2) -0.007(3) -0.026(3)
Cl2 0.064(4) 0.064(4) 0.052(3) 0.003(3) 0.008(3) 0.011(3)
N9 0.065(4) 0.047(4) 0.050(4) -0.005(4) -0.002(4) 0.010(4)
N10 0.056(5) 0.042(5) 0.049(5) 0.009(4) -0.006(4) 0.000(4)
N11 0.056(6) 0.044(5) 0.056(6) 0.006(5) -0.008(5) 0.003(5)
N12 0.038(4) 0.027(4) 0.037(4) -0.003(3) -0.001(4) -0.004(3)
N13 0.042(5) 0.044(5) 0.039(5) 0.006(4) 0.003(5) -0.012(5)
C52 0.041(5) 0.045(6) 0.041(5) 0.005(5) 0.001(5) -0.013(5)
C53 0.041(5) 0.041(5) 0.037(5) 0.007(4) 0.002(5) -0.010(5)
N14 0.038(4) 0.036(4) 0.033(4) 0.007(4) 0.003(4) -0.008(4)
C54 0.039(5) 0.037(5) 0.035(5) 0.007(4) 0.003(5) -0.010(5)
Zn1 0.0478(13) 0.0417(14) 0.0466(13) -0.0027(11) -0.0078(11) 0.0050(12)
Zn2 0.0577(14) 0.0377(13) 0.0416(13) -0.0011(10) 0.0007(12) -0.0038(12)
N3F 0.068 0.038 0.051 0.002 -0.002 -0.009
N11A 0.056 0.044 0.056 -0.006 0.008 0.003
N13G 0.042 0.044 0.039 0.006 -0.003 0.012
Zn1G 0.0478 0.0417 0.0466 -0.0027 0.0078 -0.005
Zn2A 0.0577 0.0377 0.0416 0.0011 -0.0007 -0.0038
Zn2F 0.0577 0.0377 0.0416 0.0011 0.0007 0.0038
loop_
_geom_bond_atom_site_label_1
_geom_bond_atom_site_label_2
_geom_bond_site_symmetry_1
_geom_bond_site_symmetry_2
C1 H1 1_555 1_555
N1 C1 1_555 1_555
C2 N1 1_555 1_555
H2 C2 1_555 1_555
C3 C2 1_555 1_555
H3 C3 1_555 1_555
N2 C1 1_555 1_555
C4 H4 1_555 1_555
C5 C4 1_555 1_555
H5 C5 1_555 1_555
C6 N1 1_555 1_555
C7 C6 1_555 1_555
H6 C7 1_555 1_555
C8 C7 1_555 1_555
H7 C8 1_555 1_555
C9 C4 1_555 1_555
C10 H8 1_555 1_555
C11 C10 1_555 1_555
H9 C11 1_555 1_555
N3 C11 1_555 1_555
C12 N3 1_555 1_555
H10 C12 1_555 1_555
N4 C10 1_555 1_555
C13 H11 1_555 1_555
C14 N4 1_555 1_555
C15 C14 1_555 1_555
H12 C15 1_555 1_555
C16 C15 1_555 1_555
H13 C16 1_555 1_555
C17 C16 1_555 1_555
C18 C13 1_555 1_555
H14 C18 1_555 1_555
C19 H15 1_555 1_555
C20 H16 1_555 1_555
C21 C20 1_555 1_555
H17 C21 1_555 1_555
C22 H18 1_555 1_555
C23 C22 1_555 1_555
H19 C23 1_555 1_555
C24 C23 1_555 1_555
C25 C24 1_555 1_555
H20 C25 1_555 1_555
C26 C25 1_555 1_555
H21 C26 1_555 1_555
C27 C22 1_555 1_555
N5 C28 1_555 1_555
C28 H22 1_555 1_555
C29 C28 1_555 1_555
N6 C29 1_555 1_555
C30 N5 1_555 1_555
H23 C30 1_555 1_555
C31 H24 1_555 1_555
C32 C31 1_555 1_555
H25 C32 1_555 1_555
C33 C32 1_555 1_555
C34 C33 1_555 1_555
H26 C34 1_555 1_555
C35 C34 1_555 1_555
H27 C35 1_555 1_555
C36 C29 1_555 1_555
C37 C38 1_555 1_555
C38 H28 1_555 1_555
C39 C38 1_555 1_555
H29 C39 1_555 1_555
C40 C39 1_555 1_555
C41 C40 1_555 1_555
H30 C41 1_555 1_555
C42 C37 1_555 1_555
H31 C42 1_555 1_555
C43 H32 1_555 1_555
C44 C43 1_555 1_555
H33 C44 1_555 1_555
C45 C44 1_555 1_555
C46 C45 1_555 1_555
H34 C46 1_555 1_555
C47 C46 1_555 1_555
H35 C47 1_555 1_555
C48 C43 1_555 1_555
C49 H36 1_555 1_555
N7 C48 1_555 1_555
C50 N7 1_555 1_555
H37 C50 1_555 1_555
C51 C50 1_555 1_555
H38 C51 1_555 1_555
N8 C49 1_555 1_555
Cl1 Zn1 1_555 1_555
Cl2 Zn2 1_555 1_555
N9 C9 1_555 1_555
N10 C19 1_555 1_555
N11 C19 1_555 1_555
N12 C33 1_555 1_555
N13 C52 1_555 1_555
C52 H39 1_555 1_555
C53 C52 1_555 1_555
H40 C53 1_555 1_555
N14 C37 1_555 1_555
C54 N13 1_555 1_555
H41 C54 1_555 1_555
Zn1 N2 1_555 1_555
Zn2 N8 1_555 1_555
I1 I2 1_555 1_555
I2 I1D 1_555 1_555
N3F Zn2 1_555 1_555
N11A Zn2 1_555 1_555
N13G Zn1 1_555 1_555
Zn1G N13 1_555 1_555
Zn2A N11 1_555 1_555
Zn2F N3 1_555 1_555
C3 N2 1_555 1_555
C5 C6 1_555 1_555
C8 C9 1_555 1_555
C12 N4 1_555 1_555
C13 C14 1_555 1_555
C17 C18 1_555 1_555
C17 N9 1_555 1_555
C20 N11 1_555 1_555
C21 N10 1_555 1_555
C24 N9 1_555 1_555
C26 C27 1_555 1_555
C27 N10 1_555 1_555
N5 Zn1 1_555 1_555
N6 C30 1_555 1_555
C31 C36 1_555 1_555
C35 C36 1_555 1_555
C40 N12 1_555 1_555
C41 C42 1_555 1_555
C45 N12 1_555 1_555
C47 C48 1_555 1_555
C49 N7 1_555 1_555
C51 N8 1_555 1_555
C53 N14 1_555 1_555
N14 C54 1_555 1_555

#END
