
#######################################################################
#
#                 Cambridge Crystallographic Data Centre
#                                CCDC 
#
#######################################################################
#
# If this CIF has been generated from an entry in the Cambridge 
# Structural Database, then it will include bibliographic, chemical, 
# crystal, experimental, refinement or atomic coordinate data resulting 
# from the CCDC's data processing and validation procedures.
#
#######################################################################

data_IYAFIX
_chemical_formula_moiety         '(C10 H28 Bi1 N4 Nd1 O22)n'
_symmetry_cell_setting           monoclinic
_symmetry_space_group_name_H-M   'P 21/c'
_symmetry_Int_Tables_number      14
_space_group_name_Hall           '-P 2ybc'
loop_
_symmetry_equiv_pos_site_id
_symmetry_equiv_pos_as_xyz
1 x,y,z
2 x,1/2-y,1/2+z
3 -x,-y,-z
4 -x,1/2+y,1/2-z
_cell_length_a                   12.6590(3)
_cell_length_b                   8.2470(2)
_cell_length_c                   23.7940(5)
_cell_angle_alpha                90.00
_cell_angle_beta                 105.8230(8)
_cell_angle_gamma                90.00
_cell_volume                     2389.94
loop_
_atom_site_label
_atom_site_type_symbol
_atom_site_fract_x
_atom_site_fract_y
_atom_site_fract_z
Bi1 Bi 0.226480(13) 0.67332(2) 0.131265(7)
Nd1 Nd -0.289700(18) 0.49915(3) 0.115150(10)
O1 O 0.0688(3) 0.6022(4) 0.16026(15)
O2 O -0.0939(3) 0.4850(5) 0.12891(18)
O3 O 0.1978(3) 0.5934(4) 0.02762(13)
O4 O 0.2640(3) 0.4074(4) -0.02140(15)
O5 O 0.2436(3) 0.7974(4) 0.22939(14)
O6 O 0.2750(3) 0.7571(4) 0.32517(14)
O7 O 0.4012(3) 0.5720(5) 0.12152(14)
O8 O 0.5764(3) 0.5447(5) 0.17250(15)
O9 O 0.3290(5) 0.9159(6) 0.0678(2)
O10 O 0.4564(4) 1.0755(6) 0.1177(2)
O11 O 0.3731(4) 0.9164(6) 0.16057(19)
O12 O -0.0559(9) 0.9900(13) 0.0421(5)
O13 O 0.0827(5) 0.9373(7) 0.1105(3)
O14 O 0.0293(6) 0.7729(10) 0.0462(3)
O15 O -0.2462(3) 0.2499(5) 0.06282(16)
H1 H -0.2874 0.1600 0.0567
H2 H -0.2208 0.2756 0.0339
O16 O -0.2020(3) 0.5840(4) 0.21847(14)
H3 H -0.2083 0.4959 0.2376
H4 H -0.1350 0.6195 0.2266
O17 O -0.2430(8) 0.7921(10) 0.1213(4)
H5 H -0.3061 0.8222 0.0978
H6 H -0.2042 0.8881 0.1436
O18 O -0.4502(7) 0.6760(11) 0.0556(3)
H7 H -0.4308 0.7755 0.0628
H8 H -0.4987 0.6464 0.0753
O22 O -0.4637(3) 0.3562(6) 0.0641(2)
H15 H -0.4974 0.2631 0.0738
H16 H -0.4903 0.3726 0.0244
N1 N 0.1692(3) 0.3859(4) 0.10917(15)
N2 N 0.3278(3) 0.5018(4) 0.21453(14)
N3 N 0.3872(4) 0.9680(6) 0.1147(2)
N4 N 0.0244(8) 0.8994(9) 0.0677(3)
C1 C 0.2034(4) 0.2850(5) 0.16306(18)
H17 H 0.2002 0.1712 0.1523
H18 H 0.1529 0.3024 0.1866
C2 C 0.3183(4) 0.3264(5) 0.19843(19)
H19 H 0.3374 0.2612 0.2337
H20 H 0.3696 0.3009 0.1760
C3 C 0.0476(4) 0.3928(6) 0.0891(2)
H21 H 0.0179 0.2843 0.0889
H22 H 0.0248 0.4344 0.0495
C4 C 0.0032(4) 0.5004(6) 0.1286(2)
C5 C 0.2151(4) 0.3204(5) 0.06227(19)
H23 H 0.1673 0.2351 0.0415
H24 H 0.2866 0.2731 0.0799
C6 C 0.2263(4) 0.4507(6) 0.01927(19)
C7 C 0.2908(4) 0.5325(5) 0.26742(18)
H25 H 0.3466 0.4950 0.3015
H26 H 0.2242 0.4713 0.2649
C8 C 0.2688(4) 0.7104(6) 0.2746(2)
C9 C 0.4433(4) 0.5544(6) 0.22516(19)
H27 H 0.4907 0.4810 0.2527
H28 H 0.4519 0.6620 0.2423
C10 C 0.4773(4) 0.5569(6) 0.1688(2)
O4B O -0.2640(3) 0.5926(4) 0.02140(15)
O6C O -0.2750(3) 0.2571(4) 0.17483(14)
O8_2 O -0.4236(3) 0.5447(5) 0.17250(15)
Nd1B Nd 0.289700(18) 0.50085(3) -0.115150(10)
Nd1C Nd 0.289700(18) 0.99915(3) 0.384850(10)
Nd1_2 Nd 0.710300(18) 0.49915(3) 0.115150(10)
O19 O 0.3811(9) 1.4746(10) 0.4561(5)
H9 H 0.3244 1.5473 0.4358
H10 H 0.3658 1.4349 0.4858
O20 O -0.0133(5) 0.7674(10) 0.2439(3)
H11 H 0.0392 0.7392 0.2221
H12 H 0.0037 0.7127 0.2814
O21 O 0.0794(7) 0.5526(11) 0.3475(5)
H13 H 0.1408 0.6275 0.3683
H14 H 0.0481 0.5060 0.3714
loop_
_geom_bond_atom_site_label_1
_geom_bond_atom_site_label_2
_geom_bond_site_symmetry_1
_geom_bond_site_symmetry_2
Bi1 O1 1_555 1_555
Nd1 O2 1_555 1_555
O1 C4 1_555 1_555
O2 C4 1_555 1_555
O3 Bi1 1_555 1_555
O4 C6 1_555 1_555
O5 Bi1 1_555 1_555
O6 C8 1_555 1_555
O7 Bi1 1_555 1_555
O8 C10 1_555 1_555
O9 N3 1_555 1_555
O10 N3 1_555 1_555
O11 Bi1 1_555 1_555
O12 N4 1_555 1_555
O13 Bi1 1_555 1_555
O14 Bi1 1_555 1_555
O15 Nd1 1_555 1_555
H1 O15 1_555 1_555
H2 O15 1_555 1_555
O16 Nd1 1_555 1_555
H3 O16 1_555 1_555
H4 O16 1_555 1_555
O17 Nd1 1_555 1_555
H5 O17 1_555 1_555
H6 O17 1_555 1_555
O18 Nd1 1_555 1_555
H7 O18 1_555 1_555
H8 O18 1_555 1_555
O19 H9 1_555 1_555
H10 O19 1_555 1_555
O20 H11 1_555 1_555
H12 O20 1_555 1_555
O21 H13 1_555 1_555
H14 O21 1_555 1_555
O22 Nd1 1_555 1_555
H15 O22 1_555 1_555
H16 O22 1_555 1_555
N1 Bi1 1_555 1_555
N2 Bi1 1_555 1_555
N3 O11 1_555 1_555
N4 O13 1_555 1_555
C1 N1 1_555 1_555
H17 C1 1_555 1_555
H18 C1 1_555 1_555
C2 N2 1_555 1_555
H19 C2 1_555 1_555
H20 C2 1_555 1_555
C3 N1 1_555 1_555
H21 C3 1_555 1_555
H22 C3 1_555 1_555
C4 C3 1_555 1_555
C5 N1 1_555 1_555
H23 C5 1_555 1_555
H24 C5 1_555 1_555
C6 O3 1_555 1_555
C7 N2 1_555 1_555
H25 C7 1_555 1_555
H26 C7 1_555 1_555
C8 O5 1_555 1_555
C9 N2 1_555 1_555
H27 C9 1_555 1_555
H28 C9 1_555 1_555
C10 O7 1_555 1_555
O4B Nd1 1_555 1_555
O6C Nd1 1_555 1_555
O8_2 Nd1 1_555 1_555
Nd1B O4 1_555 1_555
Nd1C O6 1_555 1_555
Nd1_2 O8 1_555 1_555
O14 N4 1_555 1_555
C1 C2 1_555 1_555
C5 C6 1_555 1_555
C7 C8 1_555 1_555
C9 C10 1_555 1_555

#END
