
#######################################################################
#
#                 Cambridge Crystallographic Data Centre
#                                CCDC 
#
#######################################################################
#
# If this CIF has been generated from an entry in the Cambridge 
# Structural Database, then it will include bibliographic, chemical, 
# crystal, experimental, refinement or atomic coordinate data resulting 
# from the CCDC's data processing and validation procedures.
#
#######################################################################

data_DOGMET
_chemical_formula_moiety         '(C24 H66 Cl2 Cu2 Gd2 N8 O33 P8)n'
_symmetry_cell_setting           triclinic
_symmetry_space_group_name_H-M   'P -1'
_symmetry_Int_Tables_number      2
_space_group_name_Hall           '-P 1'
loop_
_symmetry_equiv_pos_site_id
_symmetry_equiv_pos_as_xyz
1 x,y,z
2 -x,-y,-z
_cell_length_a                   13.302(4)
_cell_length_b                   13.352(4)
_cell_length_c                   19.894(4)
_cell_angle_alpha                95.63(7)
_cell_angle_beta                 104.80(6)
_cell_angle_gamma                117.75(6)
_cell_volume                     2924.34
loop_
_atom_site_label
_atom_site_type_symbol
_atom_site_fract_x
_atom_site_fract_y
_atom_site_fract_z
Gd1 Gd 0.66186(3) 0.94605(3) 0.595399(17)
Gd2 Gd 0.81987(3) 1.03774(3) 0.904703(17)
Cu1 Cu 0.77260(9) 1.00226(9) 0.24741(5)
Cu2 Cu 0.74359(9) 0.48346(8) 0.75072(4)
Cl1 Cl 0.93926(19) 0.59707(17) 0.74292(11)
P1 P 0.8694(2) 1.07330(19) 0.49879(11)
P2 P 0.63815(18) 0.19729(16) 0.54283(10)
Cl2 Cl 0.6451(2) 0.80416(19) 0.24565(12)
P3 P 0.87873(18) 0.80311(16) 0.94609(10)
P4 P 0.46318(18) 1.08922(17) 0.25632(10)
P5 P 1.05787(18) 0.88314(18) 0.24193(11)
P6 P 0.6177(2) 0.8705(2) -0.00492(11)
P7 P 0.6104(2) 0.65315(19) 0.57958(12)
P8 P 0.8942(2) 0.34176(18) 0.93390(12)
O1 O 1.0083(5) 0.8669(5) 0.9958(3)
O2 O 0.5142(5) 0.1707(5) 0.5005(3)
O3 O 1.1590(6) 0.9514(5) 0.3128(3)
O4 O 0.6613(6) 0.7791(5) 0.6133(3)
O5 O 0.4316(5) 1.0607(5) 0.32156(11)
O6 O 0.8383(5) 0.8751(5) 0.9057(3)
O7 O 1.0836(6) 0.9196(5) 0.1764(3)
O8 O 0.8234(6) 0.2103(5) 0.9084(3)
O9 O 0.7108(6) 0.9748(5) -0.0211(3)
O10 O 0.54326(10) 1.2242(5) 0.2694(3)
O11 O 0.6013(6) 0.7539(6) -0.0363(4)
O12 O 0.6448(5) 0.1010(5) 0.5742(3)
O13 O 0.7785(6) 0.9814(5) 0.5240(3)
O14 O 1.0127(6) 0.7490(5) 0.2301(3)
O15 O 0.3615(6) 1.04349(12) 0.1866(4)
O16 O 0.7194(5) 0.2343(5) 0.4949(3)
O17 O 0.6498(6) 0.6443(6) 0.5125(4)
O18 O 0.9937(6) 1.0841(6) 0.5250(4)
O19 O 0.7922(5) 0.7406(5) 0.9880(3)
O20 O 0.4754(6) 0.5746(5) 0.5588(3)
O21 O 0.8637(6) 0.3913(5) 0.9926(3)
O22 O 0.4978(7) 0.8678(6) -0.0280(4)
N1 N 0.6424(6) 0.5450(6) 0.6941(3)
O23 O 0.8868(6) 1.1940(5) 0.5185(3)
N2 N 0.6392(6) 0.3344(5) 0.6614(3)
N3 N 0.7447(6) 0.5781(5) 0.8441(3)
N4 N 0.7554(6) 0.3723(5) 0.8116(3)
O24 O 1.0321(6) 0.3858(6) 0.9586(3)
C1 C 0.6748(8) 0.3718(7) 0.8513(4)
H1 H 0.5935 0.3393 0.8177
H2 H 0.6720 0.3229 0.8846
N5 N 0.6808(7) 1.0951(6) 0.2486(4)
C2 C 0.8778(7) 0.4089(7) 0.8586(4)
H3 H 0.9202 0.4929 0.8782
H4 H 0.9193 0.3940 0.8288
C3 C 0.5569(8) 1.0241(8) 0.2467(5)
H5 H 0.5129 0.9649 0.2013
H6 H 0.5596 0.9833 0.2842
C4 C 0.5235(7) 0.4337(7) 0.6648(4)
H7 H 0.4628 0.4476 0.6358
H8 H 0.4985 0.4049 0.7041
N6 N 0.9290(7) 1.0021(7) 0.2454(6)
C5 C 0.9269(7) 0.8909(7) 0.2462(4)
H9 H 0.9132 0.8702 0.2897
H10 H 0.8574 0.8310 0.2060
C6 C 0.8080(8) 1.0153(8) 0.4012(4)
H11 H 0.8093 0.9434 0.3911
H12 H 0.7237 0.9939 0.3855
C7 C 0.8631(7) 0.6886(6) 0.8784(4)
H13 H 0.9221 0.6676 0.9004
H14 H 0.8861 0.7232 0.8402
C8 C 0.5339(8) 0.3428(7) 0.6191(4)
H15 H 0.5453 0.3652 0.5756
H16 H 0.4602 0.2673 0.6056
C9 C 0.7111(7) 0.3283(6) 0.6169(4)
H17 H 0.7355 0.3959 0.5970
H18 H 0.7842 0.3351 0.6484
C10 C 0.5994(8) 0.2359(7) 0.6958(4)
H19 H 0.5327 0.2282 0.7106
H20 H 0.5711 0.1637 0.6614
C11 C 0.7015(7) 0.2554(6) 0.7604(4)
H21 H 0.7634 0.2518 0.7448
H22 H 0.6715 0.1939 0.7848
N7 N 0.7441(8) 1.0050(7) 0.1420(4)
C12 C 0.6411(8) 0.5947(7) 0.8161(4)
H23 H 0.6465 0.6545 0.8511
H24 H 0.5664 0.5224 0.8080
N8 N 0.8648(8) 1.0881(8) 0.3547(4)
C13 C 0.7208(8) 0.4960(7) 0.8927(4)
H25 H 0.6612 0.4963 0.9122
H26 H 0.7948 0.5228 0.9326
C14 C 0.6399(8) 0.6312(7) 0.7455(4)
H27 H 0.5677 0.6352 0.7253
H28 H 0.7098 0.7082 0.7544
C15 C 0.6894(8) 0.5969(7) 0.6381(4)
H29 H 0.6926 0.5378 0.6077
H30 H 0.7721 0.6605 0.6623
C16 C 0.6628(8) 0.8876(7) 0.0920(4)
H31 H 0.5893 0.8520 0.1037
H32 H 0.7008 0.8416 0.1029
C17 C 1.0208(12) 1.1005(12) 0.2984(8)
H33 H 1.0290 1.1701 0.2835
H34 H 1.0967 1.1022 0.3063
C18 C 0.6910(16) 1.1450(15) 0.1877(9)
H35 H 0.7668 1.2190 0.2037
H36 H 0.6265 1.1620 0.1729
C19 C 0.9945(10) 1.0991(17) 0.3621(8)
H37 H 1.0578 1.1704 0.3982
H38 H 0.9956 1.0339 0.3792
C20 C 0.9282(13) 1.0220(11) 0.1648(8)
H39 H 0.8959 0.9470 0.1319
H40 H 1.0109 1.0718 0.1670
C21 C 0.8621(10) 1.0712(14) 0.1381(6)
H41 H 0.8565 1.0717 0.0886
H42 H 0.9011 1.1514 0.1659
C22 C 0.7589(13) 1.1865(11) 0.3246(11)
C23 C 0.687(2) 1.0794(15) 0.1285(6)
H43 H 0.7259 1.1320 0.1011
H44 H 0.6026 1.0281 0.0985
C24 C 0.8627(18) 1.1935(10) 0.3576(7)
H45 H 0.8899 1.2331 0.4078
H46 H 0.9215 1.2431 0.3375
Gd1_2 Gd 0.66186(3) -0.05395(3) 0.595399(17)
Gd1A Gd 0.33814(3) 0.05395(3) 0.404601(17)
Gd1A_2 Gd 0.33814(3) 1.05395(3) 0.404601(17)
Gd1A_3 Gd 1.33814(3) 1.05395(3) 0.404601(17)
Gd2_2 Gd 0.81987(3) 0.03774(3) 0.904703(17)
Gd2_3 Gd 0.81987(3) 1.03774(3) -0.095297(17)
Gd2A Gd 0.18013(3) 0.96226(3) 0.095297(17)
Gd2A_2 Gd 1.18013(3) 0.96226(3) 0.095297(17)
Gd2A_3 Gd 1.18013(3) 0.96226(3) 1.095297(17)
O1A O 0.9917(5) 1.1331(5) 1.0042(3)
O2A O 0.4858(5) 0.8293(5) 0.4995(3)
O3A O 0.8410(6) 1.0486(5) 0.6872(3)
O5A O 0.5684(5) 0.9393(5) 0.67844(11)
O7A O 0.9164(6) 1.0804(5) 0.8236(3)
O8_2 O 0.8234(6) 1.2103(5) 0.9084(3)
O9_2 O 0.7108(6) 0.9748(5) 0.9789(3)
O12_2 O 0.6448(5) 1.1010(5) 0.5742(3)
O15A O 0.6385(6) 0.95651(12) 0.8134(4)
O25 O 0.2997(12) 0.6739(11) 0.9431(7)
O26 O 0.2202(11) 0.3754(10) 0.8968(6)
O27 O 0.1576(13) 0.5434(13) 0.8072(8)
O28 O 0.218(2) 0.488(2) 0.6792(12)
O29 O 0.457(2) 0.523(2) 0.9463(12)
O30 O 0.217(3) 0.286(3) 0.6250(19)
O31 O 0.324(4) 0.409(4) 0.771(3)
O32 O 0.3364(8) 0.6451(7) 0.6008(4)
O33 O 0.9834(8) 1.3280(8) 0.6571(5)
loop_
_geom_bond_atom_site_label_1
_geom_bond_atom_site_label_2
_geom_bond_site_symmetry_1
_geom_bond_site_symmetry_2
Gd1 O4 1_555 1_555
Gd2 O6 1_555 1_555
Cu1 Cl2 1_555 1_555
Cu2 Cl1 1_555 1_555
P1 O13 1_555 1_555
P2 O2 1_555 1_555
P3 O1 1_555 1_555
P4 O5 1_555 1_555
P5 O3 1_555 1_555
P6 O9 1_555 1_555
P7 O4 1_555 1_555
P8 O8 1_555 1_555
O1 Gd2A_3 1_555 1_555
O2 Gd1A 1_555 1_555
O3 Gd1A_3 1_555 1_555
O5 Gd1A_2 1_555 1_555
O6 P3 1_555 1_555
O7 P5 1_555 1_555
O8 Gd2_2 1_555 1_555
O9 Gd2_3 1_555 1_555
O10 P4 1_555 1_555
O11 P6 1_555 1_555
O12 P2 1_555 1_555
O13 Gd1 1_555 1_555
O14 P5 1_555 1_555
O15 P4 1_555 1_555
O16 P2 1_555 1_555
O17 P7 1_555 1_555
O18 P1 1_555 1_555
O19 P3 1_555 1_555
O20 P7 1_555 1_555
O21 P8 1_555 1_555
O22 P6 1_555 1_555
N1 Cu2 1_555 1_555
O23 P1 1_555 1_555
N2 Cu2 1_555 1_555
N3 Cu2 1_555 1_555
N4 Cu2 1_555 1_555
O24 P8 1_555 1_555
C1 N4 1_555 1_555
H1 C1 1_555 1_555
H2 C1 1_555 1_555
N5 Cu1 1_555 1_555
C2 P8 1_555 1_555
H3 C2 1_555 1_555
H4 C2 1_555 1_555
C3 P4 1_555 1_555
H5 C3 1_555 1_555
H6 C3 1_555 1_555
C4 N1 1_555 1_555
H7 C4 1_555 1_555
H8 C4 1_555 1_555
N6 Cu1 1_555 1_555
C5 P5 1_555 1_555
H9 C5 1_555 1_555
H10 C5 1_555 1_555
C6 P1 1_555 1_555
H11 C6 1_555 1_555
H12 C6 1_555 1_555
C7 P3 1_555 1_555
H13 C7 1_555 1_555
H14 C7 1_555 1_555
C8 N2 1_555 1_555
H15 C8 1_555 1_555
H16 C8 1_555 1_555
C9 P2 1_555 1_555
H17 C9 1_555 1_555
H18 C9 1_555 1_555
C10 N2 1_555 1_555
H19 C10 1_555 1_555
H20 C10 1_555 1_555
C11 N4 1_555 1_555
H21 C11 1_555 1_555
H22 C11 1_555 1_555
N7 Cu1 1_555 1_555
C12 N3 1_555 1_555
H23 C12 1_555 1_555
H24 C12 1_555 1_555
N8 Cu1 1_555 1_555
C13 N3 1_555 1_555
H25 C13 1_555 1_555
H26 C13 1_555 1_555
C14 N1 1_555 1_555
H27 C14 1_555 1_555
H28 C14 1_555 1_555
C15 P7 1_555 1_555
H29 C15 1_555 1_555
H30 C15 1_555 1_555
C16 P6 1_555 1_555
H31 C16 1_555 1_555
H32 C16 1_555 1_555
C17 N6 1_555 1_555
H33 C17 1_555 1_555
H34 C17 1_555 1_555
C18 N5 1_555 1_555
H35 C18 1_555 1_555
H36 C18 1_555 1_555
C19 N8 1_555 1_555
H37 C19 1_555 1_555
H38 C19 1_555 1_555
C20 N6 1_555 1_555
H39 C20 1_555 1_555
H40 C20 1_555 1_555
C21 N7 1_555 1_555
H41 C21 1_555 1_555
H42 C21 1_555 1_555
C22 N5 1_555 1_555
C23 N7 1_555 1_555
H43 C23 1_555 1_555
H44 C23 1_555 1_555
C24 N8 1_555 1_555
H45 C24 1_555 1_555
H46 C24 1_555 1_555
Gd1_2 O12 1_555 1_555
Gd2A O15 1_555 1_555
Gd2A_2 O7 1_555 1_555
O1A Gd2 1_555 1_555
O2A Gd1 1_555 1_555
O3A Gd1 1_555 1_555
O5A Gd1 1_555 1_555
O7A Gd2 1_555 1_555
O8_2 Gd2 1_555 1_555
O9_2 Gd2 1_555 1_555
O12_2 Gd1 1_555 1_555
O15A Gd2 1_555 1_555
N1 C15 1_555 1_555
N2 C9 1_555 1_555
N3 C7 1_555 1_555
N4 C2 1_555 1_555
C1 C13 1_555 1_555
N5 C3 1_555 1_555
C4 C8 1_555 1_555
N6 C5 1_555 1_555
C6 N8 1_555 1_555
C10 C11 1_555 1_555
N7 C16 1_555 1_555
C12 C14 1_555 1_555
C17 C19 1_555 1_555
C18 C23 1_555 1_555
C20 C21 1_555 1_555
C22 C24 1_555 1_555

#END
