
#######################################################################
#
#                 Cambridge Crystallographic Data Centre
#                                CCDC 
#
#######################################################################
#
# If this CIF has been generated from an entry in the Cambridge 
# Structural Database, then it will include bibliographic, chemical, 
# crystal, experimental, refinement or atomic coordinate data resulting 
# from the CCDC's data processing and validation procedures.
#
#######################################################################

data_OFEREX
_chemical_formula_moiety         '(C9 H5 Eu1 O7)n'
_symmetry_cell_setting           tetragonal
_symmetry_space_group_name_H-M   'P 43 2 2'
_symmetry_Int_Tables_number      95
_space_group_name_Hall           'P 4cw 2c'
loop_
_symmetry_equiv_pos_site_id
_symmetry_equiv_pos_as_xyz
1 x,y,z
2 -y,x,3/4+z
3 -x,-y,1/2+z
4 y,-x,1/4+z
5 x,-y,1/2-z
6 y,x,1/4-z
7 -x,y,-z
8 -y,-x,3/4-z
_cell_length_a                   10.3175(6)
_cell_length_b                   10.3175(6)
_cell_length_c                   14.290(2)
_cell_angle_alpha                90
_cell_angle_beta                 90
_cell_angle_gamma                90
_cell_volume                     1521.18
loop_
_atom_site_label
_atom_site_type_symbol
_atom_site_fract_x
_atom_site_fract_y
_atom_site_fract_z
Eu1 Eu -0.13960(3) -0.86040(3) -0.1250
O1 O -0.0651(8) -0.6710(5) -0.0606(4)
O2 O 0.0887(9) -0.2551(7) 0.2395(5)
O3 O 0.0963(7) -0.0809(7) 0.1631(5)
C1 C -0.0000 -0.6194(11) 0.0000
C2 C 0.0000 -0.4646(11) 0.0000
C3 C 0.0354(8) -0.4014(7) 0.0790(5)
H1 H 0.0589 -0.4479 0.1339
C4 C 0.0364(8) -0.2659(8) 0.0778(6)
C5 C -0.0000 -0.2073(10) 0.0000
H2 H 0.0000 -0.1152 0.0000
C6 C 0.0756(9) -0.1952(9) 0.1653(6)
O4 O -0.3116(15) -0.6884(15) -0.1250
Eu1C Eu 0.13960(3) -0.86040(3) 0.1250
Eu1B Eu 0.13960(3) -0.13960(3) 0.3750
Eu1C_2 Eu 0.13960(3) 0.13960(3) 0.1250
Eu1A Eu -0.13960(3) -0.13960(3) -0.3750
Eu1_2 Eu -0.13960(3) 0.13960(3) -0.1250
O1F O 0.0651(8) -0.6710(5) 0.0606(4)
O1G O -0.3290(5) -0.9349(8) -0.1894(4)
O2E O -0.2551(7) -0.9113(9) 0.0105(5)
O2B O -0.0887(9) -0.7449(7) -0.2605(5)
O2F O -0.0887(9) -0.2551(7) -0.2395(5)
O3F O -0.0963(7) -1.0809(7) -0.1631(5)
O3A O 0.0809(7) -0.9037(7) -0.0869(5)
O3F_2 O -0.0963(7) -0.0809(7) -0.1631(5)
C3F C -0.0354(8) -0.4014(7) -0.0790(5)
H1F H -0.0589 -0.4479 -0.1339
C4F C -0.0364(8) -0.2659(8) -0.0778(6)
C6F C -0.0756(9) -0.1952(9) -0.1653(6)
loop_
_geom_bond_atom_site_label_1
_geom_bond_atom_site_label_2
_geom_bond_site_symmetry_1
_geom_bond_site_symmetry_2
Eu1 O1 1_555 1_555
O1 C1 1_555 1_555
O2 C6 1_555 1_555
O3 C6 1_555 1_555
C1 C2 1_555 1_555
C2 C3 1_555 1_555
C3 H1 1_555 1_555
C4 C3 1_555 1_555
C5 C4 1_555 1_555
H2 C5 1_555 1_555
C6 C4 1_555 1_555
O4 Eu1 1_555 1_555
Eu1C O1F 1_555 1_555
Eu1B O2 1_555 1_555
Eu1C_2 O3 1_555 1_555
Eu1A O2F 1_555 1_555
Eu1_2 O3F_2 1_555 1_555
O1F C1 1_555 1_555
O1G Eu1 1_555 1_555
O2E Eu1 1_555 1_555
O2B Eu1 1_555 1_555
O2F C6F 1_555 1_555
O3F Eu1 1_555 1_555
O3A Eu1 1_555 1_555
O3F_2 C6F 1_555 1_555
C3F C2 1_555 1_555
H1F C3F 1_555 1_555
C4F C5 1_555 1_555
C6F C4F 1_555 1_555
C3F C4F 1_555 1_555

#END
