
#######################################################################
#
#                 Cambridge Crystallographic Data Centre
#                                CCDC 
#
#######################################################################
#
# If this CIF has been generated from an entry in the Cambridge 
# Structural Database, then it will include bibliographic, chemical, 
# crystal, experimental, refinement or atomic coordinate data resulting 
# from the CCDC's data processing and validation procedures.
#
#######################################################################

data_NAJSUP
_chemical_formula_moiety         '(C19 H13 Eu1 O8)n'
_symmetry_cell_setting           monoclinic
_symmetry_space_group_name_H-M   'C 2/c'
_symmetry_Int_Tables_number      15
_space_group_name_Hall           '-C 2yc'
loop_
_symmetry_equiv_pos_site_id
_symmetry_equiv_pos_as_xyz
1 x,y,z
2 -x,y,1/2-z
3 1/2+x,1/2+y,z
4 1/2-x,1/2+y,1/2-z
5 -x,-y,-z
6 x,-y,1/2+z
7 1/2-x,1/2-y,-z
8 1/2+x,1/2-y,1/2+z
_cell_length_a                   29.2063(9)
_cell_length_b                   13.6607(4)
_cell_length_c                   13.9294(4)
_cell_angle_alpha                90
_cell_angle_beta                 98.2910(10)
_cell_angle_gamma                90
_cell_volume                     5499.45
loop_
_atom_site_label
_atom_site_type_symbol
_atom_site_fract_x
_atom_site_fract_y
_atom_site_fract_z
_atom_site_U_iso_or_equiv
_atom_site_thermal_displace_type
Eu1 Eu 0.317330(5) 0.291655(11) 0.536796(12) 0.0186 Uani
C1 C 0.70769(12) 0.1047(2) 0.2381(3) 0.0238 Uani
C2 C 0.73551(12) 0.0384(2) 0.2928(3) 0.0266 Uani
H1 H 0.7666 0.0319 0.2859 0.0320 Uiso
C3 C 0.71631(12) -0.0179(2) 0.3576(3) 0.0252 Uani
C4 C 0.67007(12) -0.0080(2) 0.3694(3) 0.0255 Uani
H2 H 0.6579 -0.0489 0.4128 0.0300 Uiso
C5 C 0.64184(13) 0.0604(2) 0.3187(3) 0.0276 Uani
C6 C 0.66148(12) 0.1152(2) 0.2519(3) 0.0263 Uani
H3 H 0.6432 0.1609 0.2145 0.0320 Uiso
C7 C 0.72727(13) 0.1645(2) 0.1640(3) 0.0243 Uani
C8 C 0.74668(12) -0.0891(2) 0.4154(3) 0.0233 Uani
C9 C 0.59359(12) 0.0779(3) 0.3389(3) 0.0279 Uani
C10 C 0.56440(13) 0.0054(3) 0.3615(3) 0.0313 Uani
H4 H 0.5746 -0.0591 0.3611 0.0370 Uiso
C11 C 0.52081(13) 0.0227(3) 0.3849(3) 0.0331 Uani
H5 H 0.5025 -0.0303 0.3973 0.0400 Uiso
C12 C 0.50397(13) 0.1137(3) 0.3904(3) 0.0271 Uani
C13 C 0.46123(13) 0.1351(3) 0.4237(3) 0.0301 Uani
H6 H 0.4429 0.0835 0.4394 0.0360 Uiso
C14 C 0.44705(14) 0.2239(3) 0.4329(3) 0.0307 Uani
C15 C 0.47534(16) 0.2968(3) 0.4067(4) 0.0440 Uani
H7 H 0.4659 0.3615 0.4110 0.0530 Uiso
C16 C 0.51716(16) 0.2787(3) 0.3744(4) 0.0439 Uani
H8 H 0.5347 0.3309 0.3570 0.0530 Uiso
C17 C 0.53287(14) 0.1870(3) 0.3678(3) 0.0303 Uani
C18 C 0.57685(13) 0.1663(3) 0.3405(3) 0.0320 Uani
H9 H 0.5945 0.2181 0.3229 0.0380 Uiso
C19 C 0.40306(13) 0.2457(3) 0.4732(3) 0.0305 Uani
O1 O 0.70051(9) 0.22611(17) 0.12270(19) 0.0273 Uani
O2 O 0.35500(13) 0.4277(3) 0.6203(3) 0.0768 Uani
H10 H 0.3358 0.4588 0.6494 0.0920 Uiso
H11 H 0.3773 0.4075 0.6616 0.0920 Uiso
O3 O 0.76824(9) 0.14942(19) 0.14994(19) 0.0336 Uani
O4 O 0.35259(14) 0.2333(3) 0.6999(3) 0.0731 Uani
H12 H 0.3330 0.2389 0.7391 0.0880 Uiso
H13 H 0.3763 0.2679 0.7196 0.0880 Uiso
O5 O 0.78994(9) -0.07595(17) 0.4327(2) 0.0360 Uani
O6 O 0.72807(9) -0.15961(16) 0.44739(18) 0.0279 Uani
O7 O 0.38757(10) 0.32693(19) 0.4660(2) 0.0409 Uani
O8 O 0.38272(10) 0.1840(2) 0.5142(2) 0.0427 Uani
Eu1A Eu 0.682670(5) 0.291655(11) -0.036796(12) 0.0186 Uani
Eu1B Eu 0.817330(5) -0.208345(11) 0.536796(12) 0.0186 Uani
Eu1D Eu 0.682670(5) -0.291655(11) 0.463204(12) 0.0186 Uani
Eu1G Eu 0.817330(5) 0.208345(11) 0.036796(12) 0.0186 Uani
O1A O 0.29949(9) 0.22611(17) 0.37730(19) 0.0273 Uani
O3G O 0.26824(9) 0.35058(19) 0.64994(19) 0.0336 Uani
O5B O 0.28994(9) 0.42405(17) 0.4327(2) 0.0360 Uani
O6B O 0.22807(9) 0.34039(16) 0.44739(18) 0.0279 Uani
O6D O 0.27193(9) 0.15961(16) 0.55261(18) 0.0279 Uani
loop_
_atom_site_aniso_label
_atom_site_aniso_U_11
_atom_site_aniso_U_22
_atom_site_aniso_U_33
_atom_site_aniso_U_23
_atom_site_aniso_U_13
_atom_site_aniso_U_12
Eu1 0.01461(13) 0.01916(12) 0.02342(13) -0.00063(6) 0.00728(8) 0.00250(6)
C1 0.0243(19) 0.0216(16) 0.0276(19) 0.0090(14) 0.0112(16) 0.0021(14)
C2 0.0188(19) 0.0295(18) 0.035(2) 0.0058(16) 0.0156(16) 0.0057(15)
C3 0.022(2) 0.0205(16) 0.035(2) 0.0070(15) 0.0106(16) 0.0055(14)
C4 0.024(2) 0.0219(16) 0.034(2) 0.0104(15) 0.0153(17) 0.0031(14)
C5 0.026(2) 0.0245(17) 0.035(2) 0.0033(15) 0.0137(17) 0.0024(15)
C6 0.0211(19) 0.0246(17) 0.036(2) 0.0104(15) 0.0137(16) 0.0081(14)
C7 0.024(2) 0.0246(17) 0.0273(19) 0.0027(15) 0.0142(16) -0.0012(15)
C8 0.022(2) 0.0210(16) 0.030(2) 0.0068(14) 0.0142(16) 0.0068(14)
C9 0.0204(19) 0.0332(19) 0.032(2) 0.0108(15) 0.0105(16) 0.0085(15)
C10 0.024(2) 0.0261(17) 0.046(2) 0.0080(16) 0.0129(18) 0.0067(15)
C11 0.027(2) 0.0305(19) 0.045(2) 0.0065(17) 0.0156(18) 0.0015(16)
C12 0.0211(19) 0.0334(19) 0.0283(19) 0.0062(15) 0.0091(16) 0.0035(15)
C13 0.020(2) 0.035(2) 0.038(2) 0.0100(17) 0.0135(17) 0.0056(16)
C14 0.021(2) 0.036(2) 0.038(2) 0.0014(17) 0.0143(18) 0.0061(16)
C15 0.035(3) 0.033(2) 0.070(3) 0.0028(19) 0.028(2) 0.0096(17)
C16 0.033(3) 0.032(2) 0.074(3) 0.010(2) 0.033(2) 0.0069(17)
C17 0.024(2) 0.0332(19) 0.037(2) 0.0094(16) 0.0155(18) 0.0066(16)
C18 0.027(2) 0.0269(18) 0.046(2) 0.0137(17) 0.0188(18) 0.0057(16)
C19 0.018(2) 0.040(2) 0.035(2) 0.0020(18) 0.0094(17) 0.0059(17)
O1 0.0304(16) 0.0256(12) 0.0288(14) 0.0106(10) 0.0139(12) 0.0063(11)
O2 0.056(2) 0.106(3) 0.073(2) -0.038(2) 0.025(2) -0.049(2)
O3 0.0218(15) 0.0391(15) 0.0432(16) 0.0154(12) 0.0158(13) 0.0038(11)
O4 0.065(3) 0.100(3) 0.049(2) -0.007(2) -0.010(2) 0.031(2)
O5 0.0249(15) 0.0226(12) 0.0611(19) 0.0125(12) 0.0085(13) 0.0047(11)
O6 0.0309(15) 0.0168(11) 0.0389(14) 0.0093(10) 0.0153(12) 0.0045(10)
O7 0.0287(16) 0.0273(14) 0.073(2) -0.0014(14) 0.0285(15) 0.0029(12)
O8 0.0317(17) 0.0404(15) 0.063(2) 0.0192(14) 0.0303(16) 0.0162(13)
Eu1A 0.01461 0.01916 0.02342 0.00063 0.00728 -0.0025
Eu1B 0.01461 0.01916 0.02342 -0.00063 0.00728 0.0025
Eu1D 0.01461 0.01916 0.02342 -0.00063 0.00728 0.0025
Eu1G 0.01461 0.01916 0.02342 0.00063 0.00728 -0.0025
O1A 0.0304 0.0256 0.0288 -0.0106 0.0139 -0.0063
O3G 0.0218 0.0391 0.0432 -0.0154 0.0158 -0.0038
O5B 0.0249 0.0226 0.0611 0.0125 0.0085 0.0047
O6B 0.0309 0.0168 0.0389 0.0093 0.0153 0.0045
O6D 0.0309 0.0168 0.0389 0.0093 0.0153 0.0045
loop_
_geom_bond_atom_site_label_1
_geom_bond_atom_site_label_2
_geom_bond_site_symmetry_1
_geom_bond_site_symmetry_2
Eu1 O2 1_555 1_555
C1 C2 1_555 1_555
C2 H1 1_555 1_555
C3 C2 1_555 1_555
C4 C3 1_555 1_555
H2 C4 1_555 1_555
C5 C4 1_555 1_555
C6 C1 1_555 1_555
H3 C6 1_555 1_555
C7 C1 1_555 1_555
C8 C3 1_555 1_555
C9 C5 1_555 1_555
C10 C9 1_555 1_555
H4 C10 1_555 1_555
C11 C10 1_555 1_555
H5 C11 1_555 1_555
C12 C11 1_555 1_555
C13 C12 1_555 1_555
H6 C13 1_555 1_555
C14 C13 1_555 1_555
C15 C14 1_555 1_555
H7 C15 1_555 1_555
C16 C15 1_555 1_555
H8 C16 1_555 1_555
C17 C12 1_555 1_555
C18 C9 1_555 1_555
H9 C18 1_555 1_555
C19 C14 1_555 1_555
O1 C7 1_555 1_555
O2 H10 1_555 1_555
H11 O2 1_555 1_555
O3 C7 1_555 1_555
O4 Eu1 1_555 1_555
H12 O4 1_555 1_555
H13 O4 1_555 1_555
O5 C8 1_555 1_555
O6 C8 1_555 1_555
O7 Eu1 1_555 1_555
O8 Eu1 1_555 1_555
Eu1A O1 1_555 1_555
Eu1B O5 1_555 1_555
Eu1D O6 1_555 1_555
Eu1G O3 1_555 1_555
O1A Eu1 1_555 1_555
O3G Eu1 1_555 1_555
O5B Eu1 1_555 1_555
O6B Eu1 1_555 1_555
O6D Eu1 1_555 1_555
C5 C6 1_555 1_555
C16 C17 1_555 1_555
C17 C18 1_555 1_555
C19 O7 1_555 1_555
C19 O8 1_555 1_555
O6 Eu1B 1_555 1_555

#END
