
#######################################################################
#
#                 Cambridge Crystallographic Data Centre
#                                CCDC 
#
#######################################################################
#
# If this CIF has been generated from an entry in the Cambridge 
# Structural Database, then it will include bibliographic, chemical, 
# crystal, experimental, refinement or atomic coordinate data resulting 
# from the CCDC's data processing and validation procedures.
#
#######################################################################

data_NAJTEA
_chemical_formula_moiety         '(C19 H13 Ho1 O8)n'
_symmetry_cell_setting           monoclinic
_symmetry_space_group_name_H-M   'C 2/c'
_symmetry_Int_Tables_number      15
_space_group_name_Hall           '-C 2yc'
loop_
_symmetry_equiv_pos_site_id
_symmetry_equiv_pos_as_xyz
1 x,y,z
2 -x,y,1/2-z
3 1/2+x,1/2+y,z
4 1/2-x,1/2+y,1/2-z
5 -x,-y,-z
6 x,-y,1/2+z
7 1/2-x,1/2-y,-z
8 1/2+x,1/2-y,1/2+z
_cell_length_a                   29.162(3)
_cell_length_b                   13.4545(10)
_cell_length_c                   13.9030(11)
_cell_angle_alpha                90
_cell_angle_beta                 98.219(4)
_cell_angle_gamma                90
_cell_volume                     5398.95
loop_
_atom_site_label
_atom_site_type_symbol
_atom_site_fract_x
_atom_site_fract_y
_atom_site_fract_z
_atom_site_U_iso_or_equiv
_atom_site_thermal_displace_type
Ho1 Ho 0.315409(16) 0.30093(4) 0.54077(4) 0.0185 Uani
C1 C 0.7044(4) 0.1218(8) 0.2420(8) 0.0210 Uani
C2 C 0.7324(4) 0.0537(10) 0.2991(9) 0.0289 Uani
H1 H 0.7636 0.0473 0.2929 0.0340 Uiso
C3 C 0.7129(4) -0.0043(9) 0.3653(8) 0.0234 Uani
C4 C 0.6663(4) 0.0063(10) 0.3749(9) 0.0260 Uani
H2 H 0.6534 -0.0349 0.4175 0.0310 Uiso
C5 C 0.6391(4) 0.0770(9) 0.3223(8) 0.0210 Uani
C6 C 0.6591(4) 0.1354(9) 0.2540(9) 0.0261 Uani
H3 H 0.6413 0.1831 0.2174 0.0310 Uiso
C7 C 0.7250(4) 0.1797(9) 0.1641(9) 0.0247 Uani
C8 C 0.7429(4) -0.0773(9) 0.4274(9) 0.0251 Uani
C9 C 0.5908(4) 0.0953(11) 0.3416(9) 0.0279 Uani
C10 C 0.5632(4) 0.0175(10) 0.3635(10) 0.0295 Uani
H4 H 0.5746 -0.0470 0.3632 0.0350 Uiso
C11 C 0.5195(4) 0.0323(11) 0.3854(10) 0.0310 Uani
H5 H 0.5011 -0.0221 0.3956 0.0370 Uiso
C12 C 0.5019(4) 0.1294(11) 0.3929(9) 0.0291 Uani
C13 C 0.4592(4) 0.1505(11) 0.4246(9) 0.0294 Uani
H6 H 0.4409 0.0982 0.4406 0.0350 Uiso
C14 C 0.4441(4) 0.2450(11) 0.4323(9) 0.0303 Uani
C15 C 0.4706(5) 0.3245(12) 0.4060(14) 0.0473 Uani
H7 H 0.4597 0.3890 0.4102 0.0570 Uiso
C16 C 0.5125(5) 0.3094(12) 0.3740(14) 0.0467 Uani
H8 H 0.5295 0.3631 0.3561 0.0560 Uiso
C17 C 0.5298(4) 0.2108(10) 0.3684(10) 0.0279 Uani
C18 C 0.5737(5) 0.1900(11) 0.3416(10) 0.0332 Uani
H9 H 0.5915 0.2422 0.3234 0.0400 Uiso
C19 C 0.3998(4) 0.2644(11) 0.4738(9) 0.0298 Uani
O1 O 0.7000(3) 0.2478(7) 0.1211(6) 0.0262 Uani
O2 O 0.3508(4) 0.4464(10) 0.6259(10) 0.0615 Uani
H10 H 0.3316 0.4775 0.6549 0.0740 Uiso
H11 H 0.3731 0.4262 0.6671 0.0740 Uiso
O3 O 0.7652(3) 0.1564(7) 0.1516(6) 0.0301 Uani
O4 O 0.3528(4) 0.2382(11) 0.6959(8) 0.0620 Uani
H12 H 0.3333 0.2437 0.7352 0.0750 Uiso
H13 H 0.3765 0.2728 0.7156 0.0750 Uiso
O5 O 0.7850(3) -0.0561(7) 0.4507(7) 0.0322 Uani
O6 O 0.7254(3) -0.1541(6) 0.4546(7) 0.0290 Uani
O7 O 0.3830(3) 0.3513(7) 0.4678(8) 0.0379 Uani
O8 O 0.3806(3) 0.1952(8) 0.5131(8) 0.0446 Uani
Ho1A Ho 0.684591(16) 0.30093(4) -0.04077(4) 0.0185 Uani
Ho1B Ho 0.815409(16) -0.19907(4) 0.54077(4) 0.0185 Uani
Ho1D Ho 0.684591(16) -0.30093(4) 0.45923(4) 0.0185 Uani
Ho1G Ho 0.815409(16) 0.19907(4) 0.04077(4) 0.0185 Uani
O1A O 0.3000(3) 0.2478(7) 0.3789(6) 0.0262 Uani
O3G O 0.2652(3) 0.3436(7) 0.6516(6) 0.0301 Uani
O5B O 0.2850(3) 0.4439(7) 0.4507(7) 0.0322 Uani
O6B O 0.2254(3) 0.3459(6) 0.4546(7) 0.0290 Uani
O6D O 0.2746(3) 0.1541(6) 0.5454(7) 0.0290 Uani
loop_
_atom_site_aniso_label
_atom_site_aniso_U_11
_atom_site_aniso_U_22
_atom_site_aniso_U_33
_atom_site_aniso_U_23
_atom_site_aniso_U_13
_atom_site_aniso_U_12
Ho1 0.0133(3) 0.0221(3) 0.0213(3) -0.0002(2) 0.00676(18) 0.0026(2)
C1 0.022(5) 0.016(6) 0.027(6) 0.015(4) 0.010(4) 0.001(4)
C2 0.017(5) 0.038(7) 0.035(6) 0.006(6) 0.015(5) 0.002(5)
C3 0.019(5) 0.025(6) 0.027(6) 0.009(5) 0.006(4) 0.004(5)
C4 0.023(6) 0.030(7) 0.029(6) 0.003(5) 0.017(5) -0.001(5)
C5 0.014(5) 0.023(6) 0.028(6) 0.012(5) 0.010(4) 0.005(4)
C6 0.024(6) 0.028(6) 0.028(6) 0.015(5) 0.010(5) 0.016(5)
C7 0.016(5) 0.033(7) 0.027(6) 0.008(5) 0.010(4) 0.007(5)
C8 0.025(6) 0.021(6) 0.031(6) 0.001(5) 0.010(5) 0.012(5)
C9 0.014(5) 0.046(8) 0.026(6) 0.003(6) 0.011(4) 0.003(5)
C10 0.024(6) 0.029(7) 0.038(7) 0.004(5) 0.013(5) 0.004(5)
C11 0.022(6) 0.036(7) 0.038(7) 0.014(6) 0.015(5) 0.005(5)
C12 0.016(5) 0.044(8) 0.029(6) 0.010(5) 0.009(5) 0.005(5)
C13 0.015(5) 0.042(8) 0.033(6) 0.004(6) 0.010(5) 0.007(5)
C14 0.016(5) 0.044(8) 0.034(7) -0.002(6) 0.014(5) 0.003(6)
C15 0.039(8) 0.035(8) 0.076(12) 0.009(8) 0.036(8) 0.011(7)
C16 0.033(8) 0.040(9) 0.073(11) 0.006(8) 0.028(8) 0.004(7)
C17 0.020(6) 0.030(7) 0.037(7) 0.008(5) 0.015(5) 0.005(5)
C18 0.024(6) 0.040(8) 0.041(7) 0.015(6) 0.023(5) 0.010(6)
C19 0.019(6) 0.040(8) 0.032(6) -0.008(6) 0.009(5) 0.003(6)
O1 0.027(4) 0.029(5) 0.025(4) 0.009(4) 0.012(3) 0.002(4)
O2 0.049(7) 0.062(8) 0.074(8) -0.042(7) 0.011(6) -0.025(6)
O3 0.018(4) 0.041(5) 0.035(5) 0.024(4) 0.016(3) 0.007(4)
O4 0.049(7) 0.091(10) 0.041(6) 0.001(7) -0.011(5) 0.018(7)
O5 0.023(4) 0.021(4) 0.051(6) 0.015(4) 0.000(4) 0.005(4)
O6 0.030(5) 0.019(4) 0.041(5) 0.010(4) 0.015(4) -0.003(4)
O7 0.024(4) 0.024(5) 0.071(7) -0.011(5) 0.025(5) -0.003(4)
O8 0.026(5) 0.060(7) 0.053(6) 0.023(5) 0.023(5) 0.017(5)
Ho1A 0.0133 0.0221 0.0213 0.0002 0.00676 -0.0026
Ho1B 0.0133 0.0221 0.0213 -0.0002 0.00676 0.0026
Ho1D 0.0133 0.0221 0.0213 -0.0002 0.00676 0.0026
Ho1G 0.0133 0.0221 0.0213 0.0002 0.00676 -0.0026
O1A 0.027 0.029 0.025 -0.009 0.012 -0.002
O3G 0.018 0.041 0.035 -0.024 0.016 -0.007
O5B 0.023 0.021 0.051 0.015 0 0.005
O6B 0.03 0.019 0.041 0.01 0.015 -0.003
O6D 0.03 0.019 0.041 0.01 0.015 -0.003
loop_
_geom_bond_atom_site_label_1
_geom_bond_atom_site_label_2
_geom_bond_site_symmetry_1
_geom_bond_site_symmetry_2
Ho1 O2 1_555 1_555
C1 C2 1_555 1_555
C2 H1 1_555 1_555
C3 C2 1_555 1_555
C4 C3 1_555 1_555
H2 C4 1_555 1_555
C5 C4 1_555 1_555
C6 C1 1_555 1_555
H3 C6 1_555 1_555
C7 C1 1_555 1_555
C8 C3 1_555 1_555
C9 C5 1_555 1_555
C10 C9 1_555 1_555
H4 C10 1_555 1_555
C11 C10 1_555 1_555
H5 C11 1_555 1_555
C12 C11 1_555 1_555
C13 C12 1_555 1_555
H6 C13 1_555 1_555
C14 C13 1_555 1_555
C15 C14 1_555 1_555
H7 C15 1_555 1_555
C16 C15 1_555 1_555
H8 C16 1_555 1_555
C17 C12 1_555 1_555
C18 C9 1_555 1_555
H9 C18 1_555 1_555
C19 C14 1_555 1_555
O1 C7 1_555 1_555
O2 H10 1_555 1_555
H11 O2 1_555 1_555
O3 C7 1_555 1_555
O4 Ho1 1_555 1_555
H12 O4 1_555 1_555
H13 O4 1_555 1_555
O5 C8 1_555 1_555
O6 C8 1_555 1_555
O7 Ho1 1_555 1_555
O8 Ho1 1_555 1_555
Ho1A O1 1_555 1_555
Ho1B O5 1_555 1_555
Ho1D O6 1_555 1_555
Ho1G O3 1_555 1_555
O1A Ho1 1_555 1_555
O3G Ho1 1_555 1_555
O5B Ho1 1_555 1_555
O6B Ho1 1_555 1_555
O6D Ho1 1_555 1_555
C5 C6 1_555 1_555
C16 C17 1_555 1_555
C17 C18 1_555 1_555
C19 O7 1_555 1_555
C19 O8 1_555 1_555
O6 Ho1B 1_555 1_555

#END
