
#######################################################################
#
#                 Cambridge Crystallographic Data Centre
#                                CCDC 
#
#######################################################################
#
# If this CIF has been generated from an entry in the Cambridge 
# Structural Database, then it will include bibliographic, chemical, 
# crystal, experimental, refinement or atomic coordinate data resulting 
# from the CCDC's data processing and validation procedures.
#
#######################################################################

data_NAJTAW
_chemical_formula_moiety         '(C19 H13 O8 Tb1)n'
_symmetry_cell_setting           monoclinic
_symmetry_space_group_name_H-M   'C 2/c'
_symmetry_Int_Tables_number      15
_space_group_name_Hall           '-C 2yc'
loop_
_symmetry_equiv_pos_site_id
_symmetry_equiv_pos_as_xyz
1 x,y,z
2 -x,y,1/2-z
3 1/2+x,1/2+y,z
4 1/2-x,1/2+y,1/2-z
5 -x,-y,-z
6 x,-y,1/2+z
7 1/2-x,1/2-y,-z
8 1/2+x,1/2-y,1/2+z
_cell_length_a                   28.8533(11)
_cell_length_b                   14.4038(5)
_cell_length_c                   13.7414(5)
_cell_angle_alpha                90
_cell_angle_beta                 98.666(2)
_cell_angle_gamma                90
_cell_volume                     5645.69
loop_
_atom_site_label
_atom_site_type_symbol
_atom_site_fract_x
_atom_site_fract_y
_atom_site_fract_z
_atom_site_U_iso_or_equiv
_atom_site_thermal_displace_type
Tb1 Tb 0.317079(8) 0.293288(16) 0.536882(17) 0.0177 Uani
C1 C 0.70690(18) 0.1042(4) 0.2361(4) 0.0245 Uani
C2 C 0.73460(18) 0.0379(4) 0.2904(4) 0.0252 Uani
H1 H 0.7660 0.0315 0.2830 0.0300 Uiso
C3 C 0.71557(18) -0.0187(3) 0.3555(4) 0.0236 Uani
C4 C 0.66891(18) -0.0082(4) 0.3686(4) 0.0251 Uani
H2 H 0.6564 -0.0469 0.4123 0.0300 Uiso
C5 C 0.64053(19) 0.0600(4) 0.3167(4) 0.0260 Uani
C6 C 0.66053(18) 0.1149(4) 0.2495(4) 0.0263 Uani
H3 H 0.6422 0.1596 0.2130 0.0310 Uiso
C7 C 0.72618(18) 0.1638(4) 0.1604(4) 0.0235 Uani
C8 C 0.74579(19) -0.0904(4) 0.4137(4) 0.0249 Uani
C9 C 0.59268(18) 0.0782(4) 0.3381(4) 0.0261 Uani
C10 C 0.56365(19) 0.0053(4) 0.3611(4) 0.0324 Uani
H4 H 0.5742 -0.0556 0.3601 0.0390 Uiso
C11 C 0.5201(2) 0.0233(4) 0.3847(4) 0.0323 Uani
H5 H 0.5011 -0.0261 0.3972 0.0390 Uiso
C12 C 0.50317(18) 0.1151(4) 0.3907(4) 0.0274 Uani
C13 C 0.46053(19) 0.1357(4) 0.4246(4) 0.0312 Uani
H6 H 0.4415 0.0875 0.4404 0.0370 Uiso
C14 C 0.44686(19) 0.2257(4) 0.4345(4) 0.0292 Uani
C15 C 0.4747(2) 0.2988(4) 0.4076(5) 0.0420 Uani
H7 H 0.4648 0.3599 0.4122 0.0500 Uiso
C16 C 0.5164(2) 0.2808(4) 0.3747(6) 0.0439 Uani
H8 H 0.5345 0.3296 0.3571 0.0520 Uiso
C17 C 0.5319(2) 0.1881(4) 0.3672(4) 0.0286 Uani
C18 C 0.57613(19) 0.1672(4) 0.3397(4) 0.0327 Uani
H9 H 0.5945 0.2155 0.3221 0.0390 Uiso
C19 C 0.40250(19) 0.2477(4) 0.4748(4) 0.0289 Uani
O1 O 0.69975(13) 0.2260(3) 0.1203(3) 0.0260 Uani
O2 O 0.35295(19) 0.4306(5) 0.6178(4) 0.0826 Uani
H10 H 0.3338 0.4618 0.6468 0.0990 Uiso
H11 H 0.3752 0.4105 0.6590 0.0990 Uiso
O3 O 0.76719(13) 0.1479(3) 0.1462(3) 0.0332 Uani
O4 O 0.35203(19) 0.2390(5) 0.7000(4) 0.0756 Uani
H12 H 0.3325 0.2446 0.7393 0.0910 Uiso
H13 H 0.3757 0.2737 0.7198 0.0910 Uiso
O5 O 0.78901(13) -0.0774(3) 0.4323(3) 0.0331 Uani
O6 O 0.72680(13) -0.1616(3) 0.4446(3) 0.0292 Uani
O7 O 0.38655(14) 0.3293(3) 0.4659(3) 0.0387 Uani
O8 O 0.38259(15) 0.1859(3) 0.5172(4) 0.0439 Uani
Tb1A Tb 0.682921(8) 0.293288(16) -0.036882(17) 0.0177 Uani
Tb1B Tb 0.817079(8) -0.206712(16) 0.536882(17) 0.0177 Uani
Tb1D Tb 0.682921(8) -0.293288(16) 0.463118(17) 0.0177 Uani
Tb1G Tb 0.817079(8) 0.206712(16) 0.036882(17) 0.0177 Uani
O1A O 0.30025(13) 0.2260(3) 0.3797(3) 0.0260 Uani
O3G O 0.26719(13) 0.3521(3) 0.6462(3) 0.0332 Uani
O5B O 0.28901(13) 0.4226(3) 0.4323(3) 0.0331 Uani
O6B O 0.22680(13) 0.3384(3) 0.4446(3) 0.0292 Uani
O6D O 0.27320(13) 0.1616(3) 0.5554(3) 0.0292 Uani
loop_
_atom_site_aniso_label
_atom_site_aniso_U_11
_atom_site_aniso_U_22
_atom_site_aniso_U_33
_atom_site_aniso_U_23
_atom_site_aniso_U_13
_atom_site_aniso_U_12
Tb1 0.01151(17) 0.02102(17) 0.02186(17) -0.00057(10) 0.00647(11) 0.00250(10)
C1 0.022(3) 0.025(3) 0.029(3) 0.010(2) 0.012(2) 0.004(2)
C2 0.017(3) 0.028(3) 0.033(3) 0.004(2) 0.012(2) 0.004(2)
C3 0.020(3) 0.020(3) 0.032(3) 0.009(2) 0.008(2) 0.003(2)
C4 0.022(3) 0.025(3) 0.031(3) 0.010(2) 0.013(2) 0.005(2)
C5 0.020(3) 0.027(3) 0.034(3) 0.005(2) 0.014(2) 0.001(2)
C6 0.019(3) 0.030(3) 0.032(3) 0.009(2) 0.011(2) 0.010(2)
C7 0.021(3) 0.022(3) 0.031(3) 0.002(2) 0.015(2) -0.005(2)
C8 0.027(3) 0.023(3) 0.027(3) 0.009(2) 0.012(2) 0.007(2)
C9 0.017(3) 0.033(3) 0.030(3) 0.014(2) 0.009(2) 0.009(2)
C10 0.019(3) 0.036(3) 0.045(4) 0.011(3) 0.014(3) 0.012(3)
C11 0.024(3) 0.031(3) 0.045(4) 0.011(3) 0.015(3) 0.001(3)
C12 0.016(3) 0.039(3) 0.029(3) 0.006(2) 0.009(2) 0.005(2)
C13 0.017(3) 0.039(3) 0.040(3) 0.012(3) 0.012(2) 0.005(3)
C14 0.016(3) 0.041(3) 0.033(3) 0.003(3) 0.011(2) 0.004(3)
C15 0.031(4) 0.032(3) 0.068(5) 0.004(3) 0.024(3) 0.011(3)
C16 0.031(4) 0.038(4) 0.069(5) 0.011(3) 0.028(3) 0.005(3)
C17 0.020(3) 0.036(3) 0.032(3) 0.009(2) 0.011(2) 0.006(2)
C18 0.020(3) 0.035(3) 0.047(4) 0.012(3) 0.018(3) 0.002(3)
C19 0.017(3) 0.040(4) 0.030(3) 0.000(3) 0.005(2) 0.006(3)
O1 0.024(2) 0.030(2) 0.027(2) 0.0126(16) 0.0134(17) 0.0080(17)
O2 0.049(3) 0.136(5) 0.068(4) -0.042(4) 0.026(3) -0.056(4)
O3 0.020(2) 0.044(2) 0.039(2) 0.0149(19) 0.0151(18) 0.0058(18)
O4 0.050(4) 0.120(5) 0.052(3) -0.009(3) -0.008(3) 0.032(4)
O5 0.021(2) 0.027(2) 0.052(3) 0.0111(18) 0.0082(18) 0.0045(17)
O6 0.030(2) 0.0220(19) 0.040(2) 0.0107(17) 0.0196(18) 0.0082(17)
O7 0.022(2) 0.032(2) 0.068(3) 0.000(2) 0.026(2) 0.0031(19)
O8 0.026(2) 0.050(3) 0.062(3) 0.023(2) 0.027(2) 0.015(2)
Tb1A 0.01151 0.02102 0.02186 0.00057 0.00647 -0.0025
Tb1B 0.01151 0.02102 0.02186 -0.00057 0.00647 0.0025
Tb1D 0.01151 0.02102 0.02186 -0.00057 0.00647 0.0025
Tb1G 0.01151 0.02102 0.02186 0.00057 0.00647 -0.0025
O1A 0.024 0.03 0.027 -0.0126 0.0134 -0.008
O3G 0.02 0.044 0.039 -0.0149 0.0151 -0.0058
O5B 0.021 0.027 0.052 0.0111 0.0082 0.0045
O6B 0.03 0.022 0.04 0.0107 0.0196 0.0082
O6D 0.03 0.022 0.04 0.0107 0.0196 0.0082
loop_
_geom_bond_atom_site_label_1
_geom_bond_atom_site_label_2
_geom_bond_site_symmetry_1
_geom_bond_site_symmetry_2
Tb1 O2 1_555 1_555
C1 C2 1_555 1_555
C2 H1 1_555 1_555
C3 C2 1_555 1_555
C4 C3 1_555 1_555
H2 C4 1_555 1_555
C5 C4 1_555 1_555
C6 C1 1_555 1_555
H3 C6 1_555 1_555
C7 C1 1_555 1_555
C8 C3 1_555 1_555
C9 C5 1_555 1_555
C10 C9 1_555 1_555
H4 C10 1_555 1_555
C11 C10 1_555 1_555
H5 C11 1_555 1_555
C12 C11 1_555 1_555
C13 C12 1_555 1_555
H6 C13 1_555 1_555
C14 C13 1_555 1_555
C15 C14 1_555 1_555
H7 C15 1_555 1_555
C16 C15 1_555 1_555
H8 C16 1_555 1_555
C17 C12 1_555 1_555
C18 C9 1_555 1_555
H9 C18 1_555 1_555
C19 C14 1_555 1_555
O1 C7 1_555 1_555
O2 H10 1_555 1_555
H11 O2 1_555 1_555
O3 C7 1_555 1_555
O4 Tb1 1_555 1_555
H12 O4 1_555 1_555
H13 O4 1_555 1_555
O5 C8 1_555 1_555
O6 C8 1_555 1_555
O7 Tb1 1_555 1_555
O8 Tb1 1_555 1_555
Tb1A O1 1_555 1_555
Tb1B O5 1_555 1_555
Tb1D O6 1_555 1_555
Tb1G O3 1_555 1_555
O1A Tb1 1_555 1_555
O3G Tb1 1_555 1_555
O5B Tb1 1_555 1_555
O6B Tb1 1_555 1_555
O6D Tb1 1_555 1_555
C5 C6 1_555 1_555
C16 C17 1_555 1_555
C17 C18 1_555 1_555
C19 O7 1_555 1_555
C19 O8 1_555 1_555
O6 Tb1B 1_555 1_555

#END
