
#######################################################################
#
#                 Cambridge Crystallographic Data Centre
#                                CCDC 
#
#######################################################################
#
# If this CIF has been generated from an entry in the Cambridge 
# Structural Database, then it will include bibliographic, chemical, 
# crystal, experimental, refinement or atomic coordinate data resulting 
# from the CCDC's data processing and validation procedures.
#
#######################################################################

data_RUCSEP
_chemical_formula_moiety         '(C46 H32 N2 O28 P4 Zn6)n'
_symmetry_cell_setting           monoclinic
_symmetry_space_group_name_H-M   'C 2/c'
_symmetry_Int_Tables_number      15
_space_group_name_Hall           '-C 2yc'
loop_
_symmetry_equiv_pos_site_id
_symmetry_equiv_pos_as_xyz
1 x,y,z
2 -x,y,1/2-z
3 1/2+x,1/2+y,z
4 1/2-x,1/2+y,1/2-z
5 -x,-y,-z
6 x,-y,1/2+z
7 1/2-x,1/2-y,-z
8 1/2+x,1/2-y,1/2+z
_cell_length_a                   41.255(2)
_cell_length_b                   8.4745(5)
_cell_length_c                   20.7206(13)
_cell_angle_alpha                90
_cell_angle_beta                 96.0520(15)
_cell_angle_gamma                90
_cell_volume                     7203.87
loop_
_atom_site_label
_atom_site_type_symbol
_atom_site_fract_x
_atom_site_fract_y
_atom_site_fract_z
Zn1 Zn 0.18842(2) 0.78735(4) 0.87804(2)
Zn2 Zn 0.10942(2) 0.90416(4) 0.81798(2)
Zn3 Zn 0.11468(2) 0.34106(4) 0.97724(2)
P1 P 0.14925(2) 1.03169(8) 0.94887(3)
P2 P 0.12741(2) 0.56383(8) 0.85938(3)
O1 O 0.11985(5) 1.0127(3) 0.89852(10)
O2 O 0.18126(5) 0.9870(2) 0.92275(10)
O3 O 0.15141(5) 1.1994(2) 0.97597(12)
O4 O 0.26496(5) 0.7571(3) 1.09532(11)
O5 O 0.27919(6) 0.9635(3) 1.15635(14)
H1 H 0.2979 0.9256 1.1517
O6 O 0.13885(6) 1.0657(3) 1.25160(12)
O7 O 0.18892(6) 1.1481(3) 1.28646(11)
O8 O 0.10414(6) 0.6792(3) 0.82220(12)
O9 O 0.15455(5) 0.6467(2) 0.90143(10)
O10 O 0.10745(6) 0.4534(3) 0.89730(10)
O11 O 0.11975(6) 0.5444(3) 0.55851(11)
O12 O 0.07256(8) 0.4235(4) 0.52988(13)
H2 H 0.0747 0.4713 0.4945
O13 O 0.03307(7) 0.0369(3) 0.69259(13)
O14 O 0.06704(5) -0.0236(3) 0.77814(11)
C1 C 0.16750(7) 0.9264(3) 1.07413(14)
C2 C 0.20028(7) 0.8892(3) 1.07318(14)
H3 H 0.2072 0.8412 1.0367
C3 C 0.22292(7) 0.9229(4) 1.12611(15)
C4 C 0.21279(8) 0.9933(4) 1.18123(15)
H4 H 0.2280 1.0203 1.2158
C5 C 0.18007(7) 1.0230(4) 1.18451(14)
C6 C 0.15746(7) 0.9894(4) 1.13099(14)
H5 H 0.1355 1.0094 1.1334
C7 C 0.25828(7) 0.8825(4) 1.12617(14)
C8 C 0.16828(8) 1.0838(4) 1.24600(14)
C9 C 0.14321(7) 0.9005(3) 1.01580(14)
H6 H 0.1214 0.9160 1.0282
H7 H 0.1448 0.7921 1.0014
C10 C 0.12299(7) 0.3815(4) 0.74769(14)
C11 C 0.12071(8) 0.4420(4) 0.68547(15)
H8 H 0.1343 0.5245 0.6762
C12 C 0.09838(8) 0.3817(4) 0.63621(15)
C13 C 0.07775(8) 0.2594(4) 0.64999(15)
H9 H 0.0624 0.2204 0.6179
C14 C 0.08027(7) 0.1953(3) 0.71249(14)
C15 C 0.10279(7) 0.2565(3) 0.76034(14)
H10 H 0.1044 0.2130 0.8018
C16 C 0.09614(9) 0.4523(4) 0.56934(16)
C17 C 0.05867(8) 0.0599(4) 0.72764(14)
C18 C 0.14674(8) 0.4485(4) 0.80080(15)
H11 H 0.1623 0.5144 0.7815
H12 H 0.1587 0.3624 0.8231
C19 C 0.05440(10) 0.1592(5) 0.93253(19)
H13 H 0.0610 0.1793 0.8918
C20 C 0.02514(11) 0.0783(6) 0.9356(2)
H14 H 0.0125 0.0478 0.8979
C21 C 0.01531(9) 0.0441(5) 0.99648(19)
C22 C 0.03595(9) 0.0912(5) 1.05033(18)
H15 H 0.0308 0.0670 1.0919
C23 C 0.06411(9) 0.1740(5) 1.04215(18)
H16 H 0.0773 0.2072 1.0788
N1 N 0.07319(6) 0.2085(3) 0.98346(14)
C19D C -0.05440(10) -0.1592(5) 1.06747(19)
H13D H -0.0610 -0.1793 1.1082
C20D C -0.02514(11) -0.0783(6) 1.0644(2)
H14D H -0.0125 -0.0478 1.1021
C21D C -0.01531(9) -0.0441(5) 1.00352(19)
C22D C -0.03595(9) -0.0912(5) 0.94967(18)
H15D H -0.0308 -0.0670 0.9081
C23D C -0.06411(9) -0.1740(5) 0.95785(18)
H16D H -0.0773 -0.2072 0.9212
N1D N -0.07319(6) -0.2085(3) 1.01654(14)
Zn1D Zn -0.18842(2) -0.78735(4) 1.12196(2)
Zn2D Zn -0.10942(2) -0.90416(4) 1.18202(2)
Zn3D Zn -0.11468(2) -0.34106(4) 1.02276(2)
P1D P -0.14925(2) -1.03169(8) 1.05113(3)
P2D P -0.12741(2) -0.56383(8) 1.14062(3)
O1D O -0.11985(5) -1.0127(3) 1.10148(10)
O2D O -0.18126(5) -0.9870(2) 1.07725(10)
O3D O -0.15141(5) -1.1994(2) 1.02403(12)
O4D O -0.26496(5) -0.7571(3) 0.90468(11)
O5D O -0.27919(6) -0.9635(3) 0.84365(14)
H1D H -0.2979 -0.9256 0.8483
O6D O -0.13885(6) -1.0657(3) 0.74840(12)
O7D O -0.18892(6) -1.1481(3) 0.71354(11)
O8D O -0.10414(6) -0.6792(3) 1.17780(12)
O9D O -0.15455(5) -0.6467(2) 1.09857(10)
O10D O -0.10745(6) -0.4534(3) 1.10270(10)
O11D O -0.11975(6) -0.5444(3) 1.44149(11)
O12D O -0.07256(8) -0.4235(4) 1.47012(13)
H2D H -0.0747 -0.4713 1.5055
O13D O -0.03307(7) -0.0369(3) 1.30741(13)
O14D O -0.06704(5) 0.0236(3) 1.22186(11)
C1D C -0.16750(7) -0.9264(3) 0.92587(14)
C2D C -0.20028(7) -0.8892(3) 0.92682(14)
H3D H -0.2072 -0.8412 0.9633
C3D C -0.22292(7) -0.9229(4) 0.87389(15)
C4D C -0.21279(8) -0.9933(4) 0.81877(15)
H4D H -0.2280 -1.0203 0.7842
C5D C -0.18007(7) -1.0230(4) 0.81549(14)
C6D C -0.15746(7) -0.9894(4) 0.86901(14)
H5D H -0.1355 -1.0094 0.8666
C7D C -0.25828(7) -0.8825(4) 0.87383(14)
C8D C -0.16828(8) -1.0838(4) 0.75400(14)
C9D C -0.14321(7) -0.9005(3) 0.98420(14)
H6D H -0.1214 -0.9160 0.9718
H7D H -0.1448 -0.7921 0.9986
C10D C -0.12299(7) -0.3815(4) 1.25231(14)
C11D C -0.12071(8) -0.4420(4) 1.31453(15)
H8D H -0.1343 -0.5245 1.3238
C12D C -0.09838(8) -0.3817(4) 1.36379(15)
C13D C -0.07775(8) -0.2594(4) 1.35001(15)
H9D H -0.0624 -0.2204 1.3821
C14D C -0.08027(7) -0.1953(3) 1.28751(14)
C15D C -0.10279(7) -0.2565(3) 1.23966(14)
H10D H -0.1044 -0.2130 1.1982
C16D C -0.09614(9) -0.4523(4) 1.43066(16)
C17D C -0.05867(8) -0.0599(4) 1.27236(14)
C18D C -0.14674(8) -0.4485(4) 1.19920(15)
H11D H -0.1623 -0.5144 1.2185
H12D H -0.1587 -0.3624 1.1769
Zn1A Zn -0.18842(2) -1.21265(4) 0.62196(2)
Zn1B Zn -0.31158(2) -0.71265(4) 0.87804(2)
Zn1E Zn 0.18842(2) 1.21265(4) 1.37804(2)
Zn1F Zn 0.31158(2) 0.71265(4) 1.12196(2)
Zn2_2 Zn 0.10942(2) -0.09584(4) 0.81798(2)
Zn2A Zn -0.10942(2) -1.09584(4) 0.68202(2)
Zn2D_2 Zn -0.10942(2) 0.09584(4) 1.18202(2)
Zn2E Zn 0.10942(2) 1.09584(4) 1.31798(2)
Zn3_2 Zn 0.11468(2) 1.34106(4) 0.97724(2)
Zn3A Zn -0.11468(2) -0.65894(4) 1.52276(2)
Zn3D_2 Zn -0.11468(2) -1.34106(4) 1.02276(2)
Zn3E Zn 0.11468(2) 0.65894(4) 0.47724(2)
O3_2 O 0.15141(5) 0.1994(2) 0.97597(12)
O3D_2 O -0.15141(5) -0.1994(2) 1.02403(12)
O4B O -0.23504(5) -0.7429(3) 1.09532(11)
O4F O 0.23504(5) 0.7429(3) 0.90468(11)
O6A O -0.13885(6) -0.9343(3) 1.24840(12)
O6E O 0.13885(6) 0.9343(3) 0.75160(12)
O7A O -0.18892(6) -0.8519(3) 1.21354(11)
O7E O 0.18892(6) 0.8519(3) 0.78646(11)
O11A O -0.11975(6) -0.4556(3) 0.94149(11)
O11E O 0.11975(6) 0.4556(3) 1.05851(11)
O14_2 O 0.06704(5) 0.9764(3) 0.77814(11)
O14D_2 O -0.06704(5) -0.9764(3) 1.22186(11)
loop_
_geom_bond_atom_site_label_1
_geom_bond_atom_site_label_2
_geom_bond_site_symmetry_1
_geom_bond_site_symmetry_2
Zn1 O2 1_555 1_555
Zn2 O1 1_555 1_555
Zn3 O10 1_555 1_555
P1 O1 1_555 1_555
P2 O8 1_555 1_555
O2 P1 1_555 1_555
O3 P1 1_555 1_555
O4 C7 1_555 1_555
O5 H1 1_555 1_555
O6 C8 1_555 1_555
O7 C8 1_555 1_555
O8 Zn2 1_555 1_555
O9 Zn1 1_555 1_555
O10 P2 1_555 1_555
O11 C16 1_555 1_555
O12 H2 1_555 1_555
O13 C17 1_555 1_555
O14 C17 1_555 1_555
C1 C2 1_555 1_555
C2 H3 1_555 1_555
C3 C2 1_555 1_555
C4 C3 1_555 1_555
H4 C4 1_555 1_555
C5 C4 1_555 1_555
C6 C1 1_555 1_555
H5 C6 1_555 1_555
C7 O5 1_555 1_555
C8 C5 1_555 1_555
C9 P1 1_555 1_555
H6 C9 1_555 1_555
H7 C9 1_555 1_555
C10 C11 1_555 1_555
C11 H8 1_555 1_555
C12 C11 1_555 1_555
C13 C12 1_555 1_555
H9 C13 1_555 1_555
C14 C13 1_555 1_555
C15 C10 1_555 1_555
H10 C15 1_555 1_555
C16 O12 1_555 1_555
C17 C14 1_555 1_555
C18 P2 1_555 1_555
H11 C18 1_555 1_555
H12 C18 1_555 1_555
C19 H13 1_555 1_555
C20 C19 1_555 1_555
H14 C20 1_555 1_555
C21 C20 1_555 1_555
C22 C21 1_555 1_555
H15 C22 1_555 1_555
C23 C22 1_555 1_555
H16 C23 1_555 1_555
N1 Zn3 1_555 1_555
C19D H13D 1_555 1_555
C20D C19D 1_555 1_555
H14D C20D 1_555 1_555
C21D C21 1_555 1_555
C22D C21D 1_555 1_555
H15D C22D 1_555 1_555
C23D C22D 1_555 1_555
H16D C23D 1_555 1_555
N1D C19D 1_555 1_555
Zn1D O2D 1_555 1_555
Zn2D O1D 1_555 1_555
Zn3D N1D 1_555 1_555
P1D O1D 1_555 1_555
P2D O8D 1_555 1_555
O2D P1D 1_555 1_555
O3D P1D 1_555 1_555
O4D C7D 1_555 1_555
O5D H1D 1_555 1_555
O6D C8D 1_555 1_555
O7D C8D 1_555 1_555
O8D Zn2D 1_555 1_555
O9D Zn1D 1_555 1_555
O10D Zn3D 1_555 1_555
O11D C16D 1_555 1_555
O12D H2D 1_555 1_555
O13D C17D 1_555 1_555
O14D C17D 1_555 1_555
C1D C2D 1_555 1_555
C2D H3D 1_555 1_555
C3D C2D 1_555 1_555
C4D C3D 1_555 1_555
H4D C4D 1_555 1_555
C5D C4D 1_555 1_555
C6D C1D 1_555 1_555
H5D C6D 1_555 1_555
C7D O5D 1_555 1_555
C8D C5D 1_555 1_555
C9D P1D 1_555 1_555
H6D C9D 1_555 1_555
H7D C9D 1_555 1_555
C10D C11D 1_555 1_555
C11D H8D 1_555 1_555
C12D C11D 1_555 1_555
C13D C12D 1_555 1_555
H9D C13D 1_555 1_555
C14D C13D 1_555 1_555
C15D C10D 1_555 1_555
H10D C15D 1_555 1_555
C16D O12D 1_555 1_555
C17D C14D 1_555 1_555
C18D P2D 1_555 1_555
H11D C18D 1_555 1_555
H12D C18D 1_555 1_555
Zn1A O7D 1_555 1_555
Zn1B O4D 1_555 1_555
Zn1E O7 1_555 1_555
Zn1F O4 1_555 1_555
Zn2_2 O14 1_555 1_555
Zn2A O6D 1_555 1_555
Zn2D_2 O14D 1_555 1_555
Zn2E O6 1_555 1_555
Zn3_2 O3 1_555 1_555
Zn3A O11D 1_555 1_555
Zn3D_2 O3D 1_555 1_555
Zn3E O11 1_555 1_555
O3_2 Zn3 1_555 1_555
O3D_2 Zn3D 1_555 1_555
O4B Zn1D 1_555 1_555
O4F Zn1 1_555 1_555
O6A Zn2D 1_555 1_555
O6E Zn2 1_555 1_555
O7A Zn1D 1_555 1_555
O7E Zn1 1_555 1_555
O11A Zn3D 1_555 1_555
O11E Zn3 1_555 1_555
O14_2 Zn2 1_555 1_555
O14D_2 Zn2D 1_555 1_555
P2 O9 1_555 1_555
C1 C9 1_555 1_555
C3 C7 1_555 1_555
C5 C6 1_555 1_555
C10 C18 1_555 1_555
C12 C16 1_555 1_555
C14 C15 1_555 1_555
C19 N1 1_555 1_555
C23 N1 1_555 1_555
C20D C21D 1_555 1_555
C23D N1D 1_555 1_555
P2D O9D 1_555 1_555
P2D O10D 1_555 1_555
C1D C9D 1_555 1_555
C3D C7D 1_555 1_555
C5D C6D 1_555 1_555
C10D C18D 1_555 1_555
C12D C16D 1_555 1_555
C14D C15D 1_555 1_555

#END
