
#######################################################################
#
#                 Cambridge Crystallographic Data Centre
#                                CCDC 
#
#######################################################################
#
# If this CIF has been generated from an entry in the Cambridge 
# Structural Database, then it will include bibliographic, chemical, 
# crystal, experimental, refinement or atomic coordinate data resulting 
# from the CCDC's data processing and validation procedures.
#
#######################################################################

data_POLBEX
_chemical_formula_moiety         '(C12 H46 F7 Ga16 N4 O69 P16 4-)n'
_symmetry_cell_setting           orthorhombic
_symmetry_space_group_name_H-M   'P 2 21 21'
_symmetry_Int_Tables_number      18
_space_group_name_Hall           'P 2bc 2'
loop_
_symmetry_equiv_pos_site_id
_symmetry_equiv_pos_as_xyz
1 x,y,z
2 x,-y,-z
3 -x,1/2+y,1/2-z
4 -x,1/2-y,1/2+z
_cell_length_a                   10.252(2)
_cell_length_b                   18.409(4)
_cell_length_c                   24.639(7)
_cell_angle_alpha                90
_cell_angle_beta                 90
_cell_angle_gamma                90
_cell_volume                     4650.1
loop_
_atom_site_label
_atom_site_type_symbol
_atom_site_fract_x
_atom_site_fract_y
_atom_site_fract_z
Ga1 Ga 0.1142(2) 0.0860(1) 0.4328(1)
Ga2 Ga -0.0772(5) -0.1493(1) 0.3398(1)
Ga3 Ga 0.3807(2) 0.0669(1) 0.5583(1)
Ga4 Ga -0.3978(2) -0.0795(1) 0.2347(1)
Ga5 Ga 0.5929(2) 0.1745(1) 0.3459(1)
Ga6 Ga -0.1035(2) 0.1095(1) 0.2399(1)
Ga7 Ga -0.0823(2) 0.3000(1) 0.2759(1)
Ga8 Ga 0.4224(2) 0.2307(1) 0.2311(1)
P1 P -0.1023(4) -0.0624(2) 0.2322(2)
P2 P 0.4158(4) 0.0980(2) 0.4383(2)
P3 P 0.0836(5) -0.0841(2) 0.4377(2)
P4 P 0.6056(4) 0.0928(2) 0.2326(2)
P5 P -0.0992(4) 0.1703(2) 0.3601(1)
P6 P 0.5818(5) 0.1410(2) 0.6451(2)
P7 P 0.6224(4) 0.3229(2) 0.2987(2)
P8 P -0.1248(4) -0.2922(2) 0.2915(2)
F1 F -0.1677(9) 0.2140(5) 0.2460(4)
F2 F -0.3321(10) -0.1847(5) 0.2370(4)
F3 F 0.4227(9) 0.1912(5) 0.3067(4)
F4 F 0.2699(13) 0.0000 0.5000
O1 O -0.1310(13) -0.0829(6) 0.2924(5)
O2 O -0.2379(10) -0.0628(6) 0.2044(4)
O3 O -0.0425(10) 0.0133(6) 0.2318(5)
O4 O -0.0177(11) -0.1166(7) 0.2032(5)
O5 O 0.4686(11) 0.0963(6) 0.4969(5)
O6 O 0.4179(14) 0.0228(6) 0.4115(4)
O7 O 0.2785(10) 0.1277(6) 0.4385(4)
O8 O 0.5021(12) 0.1503(6) 0.4077(4)
O9 O -0.0126(12) -0.1319(8) 0.4067(5)
O10 O 0.2244(12) -0.1105(6) 0.4277(5)
O11 O 0.0686(17) -0.0076(7) 0.4156(5)
O12 O 0.0433(12) -0.0935(7) 0.4979(5)
O13 O 0.5183(11) 0.1496(7) 0.2051(5)
O14 O 0.6312(11) 0.1078(6) 0.2933(5)
O15 O 0.5416(10) 0.0186(6) 0.2269(5)
O16 O 0.7405(11) 0.0944(6) 0.2036(4)
O17 O -0.0729(11) 0.2487(6) 0.3445(4)
O18 O -0.0073(13) 0.1522(7) 0.4072(5)
O19 O -0.2363(12) 0.1574(6) 0.3806(5)
O20 O -0.0638(11) 0.1151(6) 0.3129(4)
O21 O 0.5612(10) 0.0870(6) 0.6921(4)
O22 O 0.5777(12) 0.2201(6) 0.6609(4)
O23 O 0.7174(12) 0.1252(7) 0.6171(6)
O24 O 0.4735(14) 0.1296(7) 0.6034(5)
O25 O 0.6100(12) 0.2742(6) 0.3493(4)
O26 O 0.5828(11) 0.2813(6) 0.2474(5)
O27 O 0.5329(10) 0.3904(6) 0.3092(5)
O28 O 0.7578(12) 0.3504(6) 0.2920(5)
O29 O -0.2621(12) -0.3214(7) 0.2824(5)
O30 O -0.1189(12) -0.2444(6) 0.3425(5)
O31 O -0.0368(12) -0.3581(6) 0.3016(5)
O32 O -0.0801(11) -0.2472(6) 0.2431(5)
O33 O 0.0907(14) -0.1630(6) 0.3011(4)
P3A P 0.0836(5) 0.0841(2) 0.5623(2)
O9A O -0.0126(12) 0.1319(8) 0.5933(5)
O10A O 0.2244(12) 0.1105(6) 0.5723(5)
O11A O 0.0686(17) 0.0076(7) 0.5844(5)
O12A O 0.0433(12) 0.0935(7) 0.5021(5)
Ga1A Ga 0.1142(2) -0.0860(1) 0.5672(1)
Ga2A Ga -0.0772(5) 0.1493(1) 0.6602(1)
Ga3A Ga 0.3807(2) -0.0669(1) 0.4417(1)
Ga5_2 Ga -0.4071(2) 0.1745(1) 0.3459(1)
P2A P 0.4158(4) -0.0980(2) 0.5617(2)
O5A O 0.4686(11) -0.0963(6) 0.5031(5)
O6A O 0.4179(14) -0.0228(6) 0.5885(4)
O7A O 0.2785(10) -0.1277(6) 0.5615(4)
O8A O 0.5021(12) -0.1503(6) 0.5923(4)
P5_2 P 0.9008(4) 0.1703(2) 0.3601(1)
O17_2 O 0.9271(11) 0.2487(6) 0.3445(4)
O18_2 O 0.9927(13) 0.1522(7) 0.4072(5)
O19_2 O 0.7637(12) 0.1574(6) 0.3806(5)
O20_2 O 0.9362(11) 0.1151(6) 0.3129(4)
P4_2 P -0.3944(4) 0.0928(2) 0.2326(2)
O13_2 O -0.4817(11) 0.1496(7) 0.2051(5)
O14_2 O -0.3688(11) 0.1078(6) 0.2933(5)
O15_2 O -0.4584(10) 0.0186(6) 0.2269(5)
O16_2 O -0.2595(11) 0.0944(6) 0.2036(4)
P8B P 0.1248(4) 0.2078(2) 0.2085(2)
O29B O 0.2621(12) 0.1786(7) 0.2176(5)
O30B O 0.1189(12) 0.2556(6) 0.1575(5)
O31B O 0.0368(12) 0.1419(6) 0.1984(5)
O32B O 0.0801(11) 0.2528(6) 0.2569(5)
P1B P 0.1023(4) 0.4376(2) 0.2678(2)
O1B O 0.1310(13) 0.4171(6) 0.2076(5)
O2B O 0.2379(10) 0.4372(6) 0.2956(4)
O3B O 0.0425(10) 0.5133(6) 0.2682(5)
O4B O 0.0177(11) 0.3834(7) 0.2968(5)
P7_2 P -0.3776(4) 0.3229(2) 0.2987(2)
O25_2 O -0.3900(12) 0.2742(6) 0.3493(4)
O26_2 O -0.4172(11) 0.2813(6) 0.2474(5)
O27_2 O -0.4671(10) 0.3904(6) 0.3092(5)
O28_2 O -0.2422(12) 0.3504(6) 0.2920(5)
O33B O -0.0907(14) 0.3370(6) 0.1989(4)
P6A P 0.5818(5) -0.1410(2) 0.3549(2)
O21A O 0.5612(10) -0.0870(6) 0.3079(4)
O22A O 0.5777(12) -0.2201(6) 0.3391(4)
O23A O 0.7174(12) -0.1252(7) 0.3829(6)
O24A O 0.4735(14) -0.1296(7) 0.3966(5)
F3_2 F -0.5773(9) 0.1912(5) 0.3067(4)
Ga4B Ga 0.3978(2) 0.4205(1) 0.2653(1)
Ga6B Ga 0.1035(2) 0.6095(1) 0.2601(1)
Ga7B Ga 0.0823(2) -0.2000(1) 0.2241(1)
Ga8_2 Ga -0.5776(2) 0.2307(1) 0.2311(1)
F2B F 0.3321(10) 0.3153(5) 0.2630(4)
F1B F 0.1677(9) 0.7140(5) 0.2540(4)
O21A_2 O -0.4388(10) -0.0870(6) 0.3079(4)
O27B O -0.5329(10) -0.1096(6) 0.1908(5)
O22C O 0.4223(12) 0.2799(6) 0.1609(4)
Ga8B Ga -0.4224(2) -0.2693(1) 0.2689(1)
Ga4_2 Ga 0.6022(2) -0.0795(1) 0.2347(1)
Ga6_2 Ga 0.8965(2) 0.1095(1) 0.2399(1)
Ga4A Ga 0.6022(2) 0.0795(1) 0.7653(1)
Ga8C Ga 0.5776(2) 0.2693(1) 0.7311(1)
Ga7_2 Ga 0.9177(2) 0.3000(1) 0.2759(1)
Ga6B_2 Ga 0.1035(2) -0.3905(1) 0.2601(1)
O18A O -0.0073(13) -0.1522(7) 0.5928(5)
O1A O -0.1310(13) 0.0829(6) 0.7076(5)
O30A O -0.1189(12) 0.2444(6) 0.6575(5)
O33A O 0.0907(14) 0.1630(6) 0.6989(4)
O8_2 O -0.4979(12) 0.1503(6) 0.4077(4)
Ga5A Ga 0.5929(2) -0.1745(1) 0.6541(1)
Ga1_2 Ga 1.1142(2) 0.0860(1) 0.4328(1)
Ga2B Ga 0.0772(5) 0.3507(1) 0.1602(1)
Ga4B_2 Ga -0.6022(2) 0.4205(1) 0.2653(1)
Ga8B_2 Ga 0.5776(2) -0.2693(1) 0.2689(1)
O15B O 0.4584(10) 0.5186(6) 0.2731(5)
O21C O 0.4388(10) 0.4130(6) 0.1921(4)
O16B O 0.2595(11) 0.5944(6) 0.2964(4)
O20B O 0.0638(11) 0.6151(6) 0.1871(4)
O31_2 O -0.0368(12) 0.6419(6) 0.3016(5)
F1B_2 F 0.1677(9) -0.2860(5) 0.2540(4)
O17B O 0.0729(11) -0.2513(6) 0.1555(4)
O28B O 0.2422(12) -0.1496(6) 0.2080(5)
F2B_2 F -0.6679(10) 0.3153(5) 0.2630(4)
O22C_2 O -0.5777(12) 0.2799(6) 0.1609(4)
O29B_2 O -0.7379(12) 0.1786(7) 0.2176(5)
Ga7B_2 Ga 0.0823(2) 0.8000(1) 0.2241(1)
O34 O 0.7204(16) 0.4570(9) 0.1958(6)
O35 O 0.1869(20) 0.0836(11) 0.3413(8)
O36 O 0.2502(32) 0.5067(17) 0.0677(15)
N1 N 0.2561(20) 0.0227(10) 0.1894(7)
N2 N 0.2330(23) 0.3371(11) 0.0017(9)
C1 C 0.2084(26) 0.0050(14) 0.1349(9)
C2 C 0.2988(43) 0.0366(22) 0.0955(17)
C3 C 0.2703(62) 0.1103(26) 0.0764(20)
C4 C 0.2998(47) 0.1370(22) 0.0221(18)
C5 C 0.3286(33) 0.2149(19) 0.0154(16)
C6 C 0.2110(28) 0.2574(12) 0.0094(12)
N3 N 0.7118(17) 0.2490(9) 0.1419(7)
N4 N 0.7847(18) 0.2324(10) -0.1388(8)
C7 C 0.6991(55) 0.1974(32) 0.0929(21)
C8 C 0.8476(55) 0.1885(32) 0.0865(24)
C9 C 0.7747(90) 0.1329(56) 0.0499(27)
C10 C 0.7609(55) 0.1129(30) -0.0105(20)
C11 C 0.8317(66) 0.1681(38) -0.0483(22)
C12 C 0.7383(53) 0.1754(23) -0.0965(16)
loop_
_geom_bond_atom_site_label_1
_geom_bond_atom_site_label_2
_geom_bond_site_symmetry_1
_geom_bond_site_symmetry_2
Ga1 O7 1_555 1_555
Ga2 O1 1_555 1_555
Ga3 F4 1_555 1_555
Ga4 F2 1_555 1_555
Ga5 F3 1_555 1_555
Ga6 F1 1_555 1_555
Ga7 F1 1_555 1_555
Ga8 F3 1_555 1_555
P1 O1 1_555 1_555
P2 O5 1_555 1_555
P3 O9 1_555 1_555
P4 O13 1_555 1_555
P5 O17 1_555 1_555
P6 O21 1_555 1_555
P7 O25 1_555 1_555
P8 O29 1_555 1_555
F2 Ga8B 1_555 1_555
F4 Ga3A 1_555 1_555
O2 Ga4 1_555 1_555
O3 Ga6 1_555 1_555
O4 P1 1_555 1_555
O5 Ga3 1_555 1_555
O6 P2 1_555 1_555
O7 P2 1_555 1_555
O8 Ga5 1_555 1_555
O9 Ga2 1_555 1_555
O10 P3 1_555 1_555
O11 Ga1 1_555 1_555
O12 P3 1_555 1_555
O13 Ga8 1_555 1_555
O14 Ga5 1_555 1_555
O15 P4 1_555 1_555
O16 P4 1_555 1_555
O17 Ga7 1_555 1_555
O18 Ga1 1_555 1_555
O19 P5 1_555 1_555
O20 Ga6 1_555 1_555
O21 Ga4A 1_555 1_555
O22 P6 1_555 1_555
O23 P6 1_555 1_555
O24 Ga3 1_555 1_555
O25 Ga5 1_555 1_555
O26 Ga8 1_555 1_555
O27 P7 1_555 1_555
O28 P7 1_555 1_555
O29 Ga8B 1_555 1_555
O30 Ga2 1_555 1_555
O31 P8 1_555 1_555
O32 P8 1_555 1_555
O33 Ga2 1_555 1_555
N1 C1 1_555 1_555
N2 C6 1_555 1_555
C1 C2 1_555 1_555
C2 C3 1_555 1_555
C3 C4 1_555 1_555
C4 C5 1_555 1_555
C5 C6 1_555 1_555
N3 C7 1_555 1_555
N4 C12 1_555 1_555
C7 C8 1_555 1_555
C8 C9 1_555 1_555
C9 C10 1_555 1_555
C10 C11 1_555 1_555
C11 C12 1_555 1_555
P3A O9A 1_555 1_555
O9A Ga2A 1_555 1_555
O10A Ga3 1_555 1_555
O11A P3A 1_555 1_555
O12A Ga1 1_555 1_555
Ga1A O12 1_555 1_555
Ga2A O1A 1_555 1_555
Ga3A O6 1_555 1_555
Ga5_2 O19 1_555 1_555
P2A O5A 1_555 1_555
O5A Ga3A 1_555 1_555
O6A Ga3 1_555 1_555
O7A Ga1A 1_555 1_555
O8A P2A 1_555 1_555
P5_2 O17_2 1_555 1_555
O17_2 Ga7_2 1_555 1_555
O18_2 P5_2 1_555 1_555
O19_2 Ga5 1_555 1_555
O20_2 P5_2 1_555 1_555
P4_2 O13_2 1_555 1_555
O13_2 Ga8_2 1_555 1_555
O14_2 Ga5_2 1_555 1_555
O15_2 Ga4 1_555 1_555
O16_2 Ga6 1_555 1_555
P8B O29B 1_555 1_555
O29B Ga8 1_555 1_555
O30B P8B 1_555 1_555
O31B Ga6 1_555 1_555
O32B Ga7 1_555 1_555
P1B O1B 1_555 1_555
O1B Ga2B 1_555 1_555
O2B P1B 1_555 1_555
O3B P1B 1_555 1_555
O4B Ga7 1_555 1_555
P7_2 O25_2 1_555 1_555
O25_2 Ga5_2 1_555 1_555
O26_2 P7_2 1_555 1_555
O27_2 P7_2 1_555 1_555
O28_2 Ga7 1_555 1_555
O33B Ga7 1_555 1_555
P6A O21A 1_555 1_555
O21A Ga4_2 1_555 1_555
O22A P6A 1_555 1_555
O23A P6A 1_555 1_555
O24A Ga3A 1_555 1_555
F3_2 Ga5_2 1_555 1_555
Ga4B O27 1_555 1_555
Ga6B O3B 1_555 1_555
Ga7B O4 1_555 1_555
Ga8_2 O26_2 1_555 1_555
F2B Ga8 1_555 1_555
F1B Ga6B 1_555 1_555
O21A_2 Ga4 1_555 1_555
O27B Ga4 1_555 1_555
O22C Ga8 1_555 1_555
Ga4_2 O15 1_555 1_555
Ga6_2 O16 1_555 1_555
Ga8C O22 1_555 1_555
Ga7_2 O28 1_555 1_555
Ga6B_2 O31 1_555 1_555
O18A Ga1A 1_555 1_555
O30A Ga2A 1_555 1_555
O33A Ga2A 1_555 1_555
O8_2 Ga5_2 1_555 1_555
Ga5A O8A 1_555 1_555
Ga1_2 O18_2 1_555 1_555
Ga2B O30B 1_555 1_555
Ga4B_2 O27_2 1_555 1_555
Ga8B_2 O22A 1_555 1_555
O15B Ga4B 1_555 1_555
O21C Ga4B 1_555 1_555
O16B Ga6B 1_555 1_555
O20B Ga6B 1_555 1_555
O31_2 Ga6B 1_555 1_555
F1B_2 Ga7B 1_555 1_555
O17B Ga7B 1_555 1_555
O28B Ga7B 1_555 1_555
F2B_2 Ga8_2 1_555 1_555
O22C_2 Ga8_2 1_555 1_555
O29B_2 Ga8_2 1_555 1_555
Ga7B_2 F1B 1_555 1_555
P1 O2 1_555 1_555
P1 O3 1_555 1_555
P2 O8 1_555 1_555
P3 O11 1_555 1_555
P4 O14 1_555 1_555
P5 O18 1_555 1_555
P5 O20 1_555 1_555
P6 O24 1_555 1_555
P7 O26 1_555 1_555
P8 O30 1_555 1_555
O10 Ga3A 1_555 1_555
O32 Ga7B 1_555 1_555
O33 Ga7B 1_555 1_555
P3A O10A 1_555 1_555
P3A O12A 1_555 1_555
O11A Ga1A 1_555 1_555
P2A O6A 1_555 1_555
P2A O7A 1_555 1_555
P5_2 O19_2 1_555 1_555
O20_2 Ga6_2 1_555 1_555
P4_2 O14_2 1_555 1_555
P4_2 O15_2 1_555 1_555
P4_2 O16_2 1_555 1_555
P8B O31B 1_555 1_555
P8B O32B 1_555 1_555
P1B O4B 1_555 1_555
O2B Ga4B 1_555 1_555
P7_2 O28_2 1_555 1_555
O33B Ga2B 1_555 1_555
P6A O24A 1_555 1_555
F3_2 Ga8_2 1_555 1_555
Ga4B F2B 1_555 1_555
Ga6B_2 F1B_2 1_555 1_555
Ga4B_2 F2B_2 1_555 1_555

#END
