
#######################################################################
#
#                 Cambridge Crystallographic Data Centre
#                                CCDC 
#
#######################################################################
#
# If this CIF has been generated from an entry in the Cambridge 
# Structural Database, then it will include bibliographic, chemical, 
# crystal, experimental, refinement or atomic coordinate data resulting 
# from the CCDC's data processing and validation procedures.
#
#######################################################################

data_COWBEX
_chemical_formula_moiety         '(C29 H24 Cd2 F6 N2 O13)n'
_symmetry_cell_setting           monoclinic
_symmetry_space_group_name_H-M   'P 21/c'
_symmetry_Int_Tables_number      14
_space_group_name_Hall           '-P 2ybc'
loop_
_symmetry_equiv_pos_site_id
_symmetry_equiv_pos_as_xyz
1 x,y,z
2 -x,1/2+y,1/2-z
3 -x,-y,-z
4 x,1/2-y,1/2+z
_cell_length_a                   16.0121(8)
_cell_length_b                   7.5502(4)
_cell_length_c                   27.8153(15)
_cell_angle_alpha                90
_cell_angle_beta                 99.7330(10)
_cell_angle_gamma                90
_cell_volume                     3314.32
loop_
_atom_site_label
_atom_site_type_symbol
_atom_site_fract_x
_atom_site_fract_y
_atom_site_fract_z
O1 O 0.547(3) 0.562(6) 0.2086(15)
O2 O 0.5934(14) 0.867(3) 0.1788(8)
O3 O 0.5190(12) 0.799(3) 0.8395(7)
O4 O 0.3901(12) 0.586(3) 0.2265(7)
Cd1 Cd 0.215607(15) 0.52604(3) 0.080136(8)
Cd2 Cd 0.150996(15) 0.04265(3) 0.046512(9)
O5 O 0.17731(18) 0.2637(3) 0.10964(9)
O6 O 0.30694(19) 0.3182(4) 0.14816(10)
O7 O 0.24574(15) -0.0928(3) 0.10858(8)
O8 O 0.21943(19) -0.3303(3) 0.15094(9)
O9 O -0.09657(16) 0.1990(4) 0.44264(10)
O10 O -0.03763(17) 0.4465(3) 0.42239(10)
O11 O 0.08121(15) 0.2400(3) 0.49984(8)
O12 O 0.17962(18) 0.0306(4) 0.50002(9)
O13 O 0.1117(2) -0.1137(5) -0.02887(12)
N1 N 0.34271(18) 0.6081(4) 0.05865(11)
N2 N 0.72262(18) 0.9055(4) -0.01664(11)
F1 F 0.3236(2) -0.2372(5) 0.32262(10)
F2 F 0.30796(18) -0.0116(5) 0.36690(11)
F3 F 0.2751(2) -0.2709(4) 0.38927(9)
F4 F 0.1155(3) -0.3807(4) 0.35374(10)
F5 F 0.0692(2) -0.3088(4) 0.27943(11)
F6 F 0.1886(3) -0.4423(3) 0.29804(11)
C1 C 0.2387(3) 0.2412(5) 0.14517(13)
C2 C 0.2227(2) 0.1310(5) 0.18848(12)
C3 C 0.2166(2) -0.0527(4) 0.18939(12)
C4 C 0.2030(2) -0.1380(5) 0.23186(12)
H1 H 0.2005 -0.2610 0.2324
C5 C 0.1932(2) -0.0439(5) 0.27338(13)
C6 C 0.2002(3) 0.1394(5) 0.27210(14)
H2 H 0.1952 0.2052 0.2997
C7 C 0.2146(3) 0.2256(5) 0.23041(14)
H3 H 0.2188 0.3484 0.2304
C8 C 0.2283(2) -0.1662(5) 0.14643(12)
C9 C 0.1822(2) -0.1360(5) 0.32154(13)
C10 C 0.1385(4) -0.3177(6) 0.31327(16)
C11 C 0.2728(3) -0.1630(7) 0.35067(15)
C12 C 0.1263(3) -0.0247(5) 0.35052(13)
C13 C 0.0524(3) 0.0515(6) 0.32544(14)
H4 H 0.0384 0.0363 0.2919
C14 C -0.0001(3) 0.1490(6) 0.34964(14)
H5 H -0.0492 0.1986 0.3322
C15 C 0.0193(2) 0.1744(5) 0.39966(12)
C16 C 0.0921(2) 0.0966(5) 0.42539(12)
C17 C 0.1446(2) -0.0028(5) 0.40051(12)
H6 H 0.1930 -0.0553 0.4179
C18 C -0.0414(2) 0.2796(5) 0.42417(12)
C19 C 0.1189(2) 0.1235(5) 0.47959(12)
C20 C 0.3458(3) 0.6583(7) 0.01294(15)
H7 H 0.2963 0.6531 -0.0100
C21 C 0.4187(3) 0.7174(6) -0.00196(15)
H8 H 0.4172 0.7507 -0.0343
C22 C 0.4941(2) 0.7277(5) 0.03049(14)
C23 C 0.4905(3) 0.6769(8) 0.07762(16)
H9 H 0.5389 0.6816 0.1014
C24 C 0.4145(3) 0.6187(8) 0.08959(16)
H10 H 0.4142 0.5848 0.1217
C25 C 0.5732(2) 0.7917(5) 0.01466(14)
C26 C 0.5774(2) 0.8170(6) -0.03429(14)
H11 H 0.5299 0.7956 -0.0578
C27 C 0.6518(2) 0.8738(6) -0.04838(14)
H12 H 0.6525 0.8907 -0.0814
C28 C 0.7184(2) 0.8839(6) 0.03067(14)
H13 H 0.7667 0.9074 0.0534
C29 C 0.6464(2) 0.8287(6) 0.04776(14)
H14 H 0.6470 0.8164 0.0811
H15 H 0.076(3) -0.064(7) -0.0480(19)
H16 H 0.102(3) -0.198(7) -0.0196(18)
Cd1_2 Cd 0.215607(15) -0.47396(3) 0.080136(8)
Cd1A Cd -0.215607(15) 0.02604(3) 0.419864(8)
Cd1C Cd 0.215607(15) -0.02604(3) 0.580136(8)
Cd2A Cd -0.150996(15) 0.54265(3) 0.453488(9)
Cd2B Cd 0.849004(15) 0.95735(3) -0.046512(9)
Cd2C Cd 0.150996(15) 0.45735(3) 0.546512(9)
O8_2 O 0.21943(19) 0.6697(3) 0.15094(9)
O9A O 0.09657(16) -0.3010(4) 0.05736(10)
O9A_2 O 0.09657(16) 0.6990(4) 0.05736(10)
O10A O 0.03763(17) -0.0535(3) 0.07761(10)
O11C O 0.08121(15) 0.2600(3) -0.00016(8)
O12C O 0.17962(18) 0.4694(4) 0.00002(9)
N2B N 0.27738(18) 0.0945(4) 0.01664(11)
loop_
_geom_bond_atom_site_label_1
_geom_bond_atom_site_label_2
_geom_bond_site_symmetry_1
_geom_bond_site_symmetry_2
Cd1 O5 1_555 1_555
Cd2 O5 1_555 1_555
O5 C1 1_555 1_555
O6 Cd1 1_555 1_555
O7 Cd2 1_555 1_555
O8 C8 1_555 1_555
O9 C18 1_555 1_555
O10 C18 1_555 1_555
O11 C19 1_555 1_555
O12 C19 1_555 1_555
O13 Cd2 1_555 1_555
N1 Cd1 1_555 1_555
N2 C27 1_555 1_555
F1 C11 1_555 1_555
F2 C11 1_555 1_555
F3 C11 1_555 1_555
F4 C10 1_555 1_555
F5 C10 1_555 1_555
F6 C10 1_555 1_555
C1 O6 1_555 1_555
C2 C1 1_555 1_555
C3 C2 1_555 1_555
C4 C3 1_555 1_555
H1 C4 1_555 1_555
C5 C4 1_555 1_555
C6 C5 1_555 1_555
H2 C6 1_555 1_555
C7 C2 1_555 1_555
H3 C7 1_555 1_555
C8 O7 1_555 1_555
C9 C5 1_555 1_555
C10 C9 1_555 1_555
C11 C9 1_555 1_555
C12 C9 1_555 1_555
C13 C12 1_555 1_555
H4 C13 1_555 1_555
C14 C13 1_555 1_555
H5 C14 1_555 1_555
C15 C14 1_555 1_555
C16 C15 1_555 1_555
C17 C12 1_555 1_555
H6 C17 1_555 1_555
C18 C15 1_555 1_555
C19 C16 1_555 1_555
C20 N1 1_555 1_555
H7 C20 1_555 1_555
C21 C20 1_555 1_555
H8 C21 1_555 1_555
C22 C21 1_555 1_555
C23 C22 1_555 1_555
H9 C23 1_555 1_555
C24 N1 1_555 1_555
H10 C24 1_555 1_555
C25 C22 1_555 1_555
C26 C25 1_555 1_555
H11 C26 1_555 1_555
C27 C26 1_555 1_555
H12 C27 1_555 1_555
C28 N2 1_555 1_555
H13 C28 1_555 1_555
C29 C25 1_555 1_555
H14 C29 1_555 1_555
H15 O13 1_555 1_555
H16 O13 1_555 1_555
Cd1_2 O8 1_555 1_555
Cd1A O9 1_555 1_555
Cd1C O12 1_555 1_555
Cd2A O9 1_555 1_555
Cd2B N2 1_555 1_555
Cd2C O11 1_555 1_555
O8_2 Cd1 1_555 1_555
O9A Cd2 1_555 1_555
O9A_2 Cd1 1_555 1_555
O10A Cd2 1_555 1_555
O11C Cd2 1_555 1_555
O12C Cd1 1_555 1_555
N2B Cd2 1_555 1_555
O10 Cd2A 1_555 1_555
C3 C8 1_555 1_555
C6 C7 1_555 1_555
C16 C17 1_555 1_555
C23 C24 1_555 1_555
C28 C29 1_555 1_555
Cd1_2 O9A 1_555 1_555

#END
