
#######################################################################
#
#                 Cambridge Crystallographic Data Centre
#                                CCDC 
#
#######################################################################
#
# If this CIF has been generated from an entry in the Cambridge 
# Structural Database, then it will include bibliographic, chemical, 
# crystal, experimental, refinement or atomic coordinate data resulting 
# from the CCDC's data processing and validation procedures.
#
#######################################################################

data_HAVWEI
_chemical_formula_moiety         'C64 H32 N5 O14 Zn7'
_symmetry_cell_setting           monoclinic
_symmetry_space_group_name_H-M   'P 2/c'
_symmetry_Int_Tables_number      13
_space_group_name_Hall           '-P 2yc'
loop_
_symmetry_equiv_pos_site_id
_symmetry_equiv_pos_as_xyz
1 x,y,z
2 -x,y,1/2-z
3 -x,-y,-z
4 x,-y,1/2+z
_cell_length_a                   12.336(3)
_cell_length_b                   6.612(2)
_cell_length_c                   20.0720(16)
_cell_angle_alpha                90
_cell_angle_beta                 127.92(2)
_cell_angle_gamma                90
_cell_volume                     1291.53
loop_
_atom_site_label
_atom_site_type_symbol
_atom_site_fract_x
_atom_site_fract_y
_atom_site_fract_z
Zn1 Zn 0.5000 0.15813(9) 0.2500
O1 O 0.6507(2) 0.3463(3) 0.32717(14)
O2 O 0.7795(2) 0.0940(4) 0.35167(15)
N1 N 0.5079(3) -0.0395(4) 0.32853(17)
C1 C 0.6009(3) -0.0030(5) 0.4150(2)
H1 H 0.6507 0.1171 0.4345
C2 C 0.6199(3) -0.1444(5) 0.4724(2)
H2 H 0.6830 -0.1199 0.5301
C3 C 0.5442(3) -0.3234(5) 0.4433(2)
C4 C 0.4518(3) -0.3593(5) 0.3577(2)
H3 H 0.4017 -0.4791 0.3385
C5 C 0.4324(3) -0.2186(5) 0.2995(2)
H4 H 0.3697 -0.2439 0.2419
C6 C 0.5595(4) -0.4764(5) 0.5014(2)
H5 H 0.6338 -0.4335 0.5584
H6 H 0.5887 -0.6011 0.4912
C7 C 0.7634(3) 0.2673(5) 0.3669(2)
C8 C 0.8832(3) 0.3884(5) 0.4343(2)
C9 C 0.8832(3) 0.5998(5) 0.4347(2)
H7 H 0.8052 0.6677 0.3905
C10 C 1.0056(3) 0.2884(5) 0.5020(2)
C11 C 0.9983(7) 0.0870(10) 0.4995(4)
Zn1B Zn 0.5000 -1.15813(9) 0.7500
Zn1B_2 Zn 1.5000 -0.15813(9) 0.7500
Zn1_2 Zn 0.5000 1.15813(9) 0.2500
Zn1B_3 Zn -0.5000 1.84187(9) -0.2500
Zn1B_4 Zn -0.5000 0.84187(9) -0.2500
Zn1B_5 Zn 0.5000 -1.15813(9) -0.2500
O1A O 0.3493(2) 0.3463(3) 0.17283(14)
O1B O 0.3493(2) -1.3463(3) 0.67283(14)
O1C O 0.6507(2) -1.3463(3) 0.82717(14)
O1B_2 O 1.3493(2) -0.3463(3) 0.67283(14)
O1C_2 O -0.3493(2) 1.6537(3) -0.17283(14)
O1A_2 O 0.3493(2) 1.3463(3) 0.17283(14)
O1C_3 O -0.3493(2) 0.6537(3) -0.17283(14)
O2A O 0.2205(2) 0.0940(4) 0.14833(15)
O2B O 1.2205(2) -0.0940(4) 0.64833(15)
O2C O -0.2205(2) 1.9060(4) -0.14833(15)
O2A_2 O 0.2205(2) 1.0940(4) 0.14833(15)
O2C_2 O -0.2205(2) 0.9060(4) -0.14833(15)
N1A N 0.4921(3) -0.0395(4) 0.17147(17)
N1B N 0.4921(3) -0.9605(4) 0.67147(17)
N1C N 0.5079(3) -0.9605(4) 0.82853(17)
N1C_2 N 0.5079(3) -0.9605(4) -0.17147(17)
C1B C 0.3991(3) -0.9970(5) 0.5850(2)
C1A C 0.3991(3) -0.0030(5) 0.0850(2)
C1C C 0.6009(3) -0.9970(5) -0.0850(2)
H1B H 0.3493 -1.1171 0.5655
H1A H 0.3493 0.1171 0.0655
H1C H 0.6507 -1.1171 -0.0655
C2B C 0.3801(3) -0.8556(5) 0.5276(2)
C2A C 0.3801(3) -0.1444(5) 0.0276(2)
C2C C 0.6199(3) -0.8556(5) -0.0276(2)
H2B H 0.3170 -0.8801 0.4699
H2A H 0.3170 -0.1199 -0.0301
H2C H 0.6830 -0.8801 0.0301
C3B C 0.4558(3) -0.6766(5) 0.5567(2)
C3A C 0.4558(3) -0.3234(5) 0.0567(2)
C3C C 0.5442(3) -0.6766(5) -0.0567(2)
C4B C 0.5482(3) -0.6407(5) 0.6423(2)
C4A C 0.5482(3) -0.3593(5) 0.1423(2)
C4C C 0.4518(3) -0.6407(5) -0.1423(2)
H3B H 0.5983 -0.5209 0.6615
H3A H 0.5983 -0.4791 0.1615
H3C H 0.4017 -0.5209 -0.1615
C5B C 0.5676(3) -0.7814(5) 0.7005(2)
C5A C 0.5676(3) -0.2186(5) 0.2005(2)
C5C C 0.4324(3) -0.7814(5) -0.2005(2)
H4B H 0.6303 -0.7561 0.7581
H4A H 0.6303 -0.2439 0.2581
H4C H 0.3697 -0.7561 -0.2581
C6B C 0.4405(4) -0.5236(5) 0.4986(2)
C6A C 0.4405(4) -0.4764(5) -0.0014(2)
C6C C 0.5595(4) -0.5236(5) 0.0014(2)
H5B H 0.3662 -0.5665 0.4416
H5A H 0.3662 -0.4335 -0.0584
H5C H 0.6338 -0.5665 0.0584
H6B H 0.4113 -0.3989 0.5088
H6A H 0.4113 -0.6011 0.0088
H6C H 0.5887 -0.3989 -0.0088
C7A C 0.2366(3) 0.2673(5) 0.1331(2)
C7B C 1.2366(3) -0.2673(5) 0.6331(2)
C7_2 C 0.7634(3) -0.7327(5) 0.3669(2)
C7A_2 C 0.2366(3) 1.2673(5) 0.1331(2)
C7C C -0.2366(3) 1.7327(5) -0.1331(2)
C7C_2 C -0.2366(3) 0.7327(5) -0.1331(2)
C8A C 0.1168(3) 0.3884(5) 0.0657(2)
C8B C 1.1168(3) 0.6116(5) 0.5657(2)
C8C C -0.1168(3) 0.6116(5) -0.0657(2)
C8B_2 C 1.1168(3) -0.3884(5) 0.5657(2)
C8_2 C 0.8832(3) -0.6116(5) 0.4343(2)
C8A_2 C 0.1168(3) 1.3884(5) 0.0657(2)
C8C_2 C -0.1168(3) 1.6116(5) -0.0657(2)
C9B C 1.1168(3) 0.4002(5) 0.5653(2)
C9A C 0.1168(3) 0.5998(5) 0.0653(2)
C9C C -0.1168(3) 0.4002(5) -0.0653(2)
C9_2 C 0.8832(3) -0.4002(5) 0.4347(2)
C9B_2 C 1.1168(3) -0.5998(5) 0.5653(2)
C9C_2 C -0.1168(3) 1.4002(5) -0.0653(2)
C9A_2 C 0.1168(3) 1.5998(5) 0.0653(2)
H7A H 0.1948 0.6677 0.1095
H7B H 1.1948 0.3323 0.6095
H7C H -0.1948 0.3323 -0.1095
H7_2 H 0.8052 -0.3323 0.3905
H7B_2 H 1.1948 -0.6677 0.6095
H7A_2 H 0.1948 1.6677 0.1095
H7C_2 H -0.1948 1.3323 -0.1095
C10B C 0.9944(3) 0.7116(5) 0.4980(2)
C10A C -0.0056(3) 0.2884(5) -0.0020(2)
C10C C 0.0056(3) 0.7116(5) 0.0020(2)
C10B_2 C 0.9944(3) -0.2884(5) 0.4980(2)
C10C_2 C 0.0056(3) -0.2884(5) 0.0020(2)
C10A_2 C -0.0056(3) 1.2884(5) -0.0020(2)
C10_2 C 1.0056(3) -0.7116(5) 0.5020(2)
C10C_3 C 0.0056(3) 1.7116(5) 0.0020(2)
C11B C 1.0017(7) -0.0870(10) 0.5005(4)
C11A C 0.0017(7) 0.0870(10) 0.0005(4)
C11C C -0.0017(7) -0.0870(10) -0.0005(4)
C11B_2 C 1.0017(7) 0.9130(10) 0.5005(4)
C11C_2 C -0.0017(7) 0.9130(10) -0.0005(4)
C11A_2 C 0.0017(7) 1.0870(10) 0.0005(4)
C11C_3 C -0.0017(7) 1.9130(10) -0.0005(4)
loop_
_geom_bond_atom_site_label_1
_geom_bond_atom_site_label_2
_geom_bond_site_symmetry_1
_geom_bond_site_symmetry_2
Zn1 O1 1_555 1_555
O1 C7 1_555 1_555
O2 C7 1_555 1_555
N1 Zn1 1_555 1_555
C1 N1 1_555 1_555
H1 C1 1_555 1_555
C2 C1 1_555 1_555
H2 C2 1_555 1_555
C3 C2 1_555 1_555
C4 C3 1_555 1_555
H3 C4 1_555 1_555
C5 N1 1_555 1_555
H4 C5 1_555 1_555
C6 C3 1_555 1_555
H5 C6 1_555 1_555
H6 C6 1_555 1_555
C7 C8 1_555 1_555
C8 C9 1_555 1_555
C9 H7 1_555 1_555
C10 C8 1_555 1_555
C11 C10 1_555 1_555
Zn1B O1B 1_555 1_555
Zn1B_2 O1B_2 1_555 1_555
Zn1_2 O1A_2 1_555 1_555
Zn1B_3 O1C_2 1_555 1_555
Zn1B_4 O1C_3 1_555 1_555
Zn1B_5 N1C_2 1_555 1_555
O1A Zn1 1_555 1_555
O1C Zn1B 1_555 1_555
O1B_2 C7B 1_555 1_555
O1C_2 C7C 1_555 1_555
O1A_2 C7A_2 1_555 1_555
O1C_3 C7C_2 1_555 1_555
O2A C7A 1_555 1_555
O2B C7B 1_555 1_555
O2C C7C 1_555 1_555
O2A_2 C7A_2 1_555 1_555
O2C_2 C7C_2 1_555 1_555
N1A Zn1 1_555 1_555
N1B Zn1B 1_555 1_555
N1C Zn1B 1_555 1_555
N1C_2 C1C 1_555 1_555
C1B N1B 1_555 1_555
C1A N1A 1_555 1_555
C1C H1C 1_555 1_555
H1B C1B 1_555 1_555
H1A C1A 1_555 1_555
C2B C1B 1_555 1_555
C2A C1A 1_555 1_555
C2C C1C 1_555 1_555
H2B C2B 1_555 1_555
H2A C2A 1_555 1_555
H2C C2C 1_555 1_555
C3B C2B 1_555 1_555
C3A C2A 1_555 1_555
C3C C2C 1_555 1_555
C4B C3B 1_555 1_555
C4A C3A 1_555 1_555
C4C C3C 1_555 1_555
H3B C4B 1_555 1_555
H3A C4A 1_555 1_555
H3C C4C 1_555 1_555
C5B N1B 1_555 1_555
C5A N1A 1_555 1_555
C5C N1C_2 1_555 1_555
H4B C5B 1_555 1_555
H4A C5A 1_555 1_555
H4C C5C 1_555 1_555
C6B C6 1_555 1_555
C6A C3A 1_555 1_555
C6C C3C 1_555 1_555
H5B C6B 1_555 1_555
H5A C6A 1_555 1_555
H5C C6C 1_555 1_555
H6B C6B 1_555 1_555
H6A C6A 1_555 1_555
H6C C6C 1_555 1_555
C7A O1A 1_555 1_555
C7B C8B_2 1_555 1_555
C7_2 C8_2 1_555 1_555
C7A_2 C8A_2 1_555 1_555
C7C C8C_2 1_555 1_555
C7C_2 C8C 1_555 1_555
C8A C7A 1_555 1_555
C8B C9B 1_555 1_555
C8C C9C 1_555 1_555
C8B_2 C9B_2 1_555 1_555
C8_2 C9_2 1_555 1_555
C8A_2 C9A_2 1_555 1_555
C8C_2 C9C_2 1_555 1_555
C9B C10 1_555 1_555
C9A C8A 1_555 1_555
C9C H7C 1_555 1_555
C9_2 H7_2 1_555 1_555
C9B_2 H7B_2 1_555 1_555
C9C_2 H7C_2 1_555 1_555
C9A_2 H7A_2 1_555 1_555
H7A C9A 1_555 1_555
H7B C9B 1_555 1_555
C10B C9 1_555 1_555
C10A C8A 1_555 1_555
C10C C8C 1_555 1_555
C10B_2 C8B_2 1_555 1_555
C10C_2 C11C 1_555 1_555
C10A_2 C8A_2 1_555 1_555
C10_2 C8_2 1_555 1_555
C10C_3 C8C_2 1_555 1_555
C11B C11 1_555 1_555
C11A C10A 1_555 1_555
C11C C11A 1_555 1_555
C11B_2 C10B 1_555 1_555
C11C_2 C10C 1_555 1_555
C11A_2 C10A_2 1_555 1_555
C11C_3 C10C_3 1_555 1_555
C4 C5 1_555 1_555
C3B C6B 1_555 1_555
C4B C5B 1_555 1_555
C4A C5A 1_555 1_555
C4C C5C 1_555 1_555
C6A C6C 1_555 1_555
C8B C10B 1_555 1_555
C9A C10C 1_555 1_555
C9C C10A 1_555 1_555
C9_2 C10B_2 1_555 1_555
C9B_2 C10_2 1_555 1_555
C9C_2 C10A_2 1_555 1_555
C9A_2 C10C_3 1_555 1_555
C10B_2 C11B 1_555 1_555
C11C_2 C11A_2 1_555 1_555

#END
