
#######################################################################
#
#                 Cambridge Crystallographic Data Centre
#                                CCDC 
#
#######################################################################
#
# If this CIF has been generated from an entry in the Cambridge 
# Structural Database, then it will include bibliographic, chemical, 
# crystal, experimental, refinement or atomic coordinate data resulting 
# from the CCDC's data processing and validation procedures.
#
#######################################################################

data_NUHNUA
_chemical_formula_moiety         '(C32 H50 Co1 N8 O5 2+)n'
_symmetry_cell_setting           orthorhombic
_symmetry_space_group_name_H-M   'F d d d'
_symmetry_Int_Tables_number      70
_space_group_name_Hall           '-F 2uv 2vw'
loop_
_symmetry_equiv_pos_site_id
_symmetry_equiv_pos_as_xyz
1 x,y,z
2 3/4-x,3/4-y,z
3 3/4-x,y,3/4-z
4 x,3/4-y,3/4-z
5 x,1/2+y,1/2+z
6 3/4-x,1/4-y,1/2+z
7 3/4-x,1/2+y,1/4-z
8 x,1/4-y,1/4-z
9 1/2+x,y,1/2+z
10 1/4-x,3/4-y,1/2+z
11 1/4-x,y,1/4-z
12 1/2+x,3/4-y,1/4-z
13 1/2+x,1/2+y,z
14 1/4-x,1/4-y,z
15 1/4-x,1/2+y,3/4-z
16 1/2+x,1/4-y,3/4-z
17 -x,-y,-z
18 1/4+x,1/4+y,-z
19 1/4+x,-y,1/4+z
20 -x,1/4+y,1/4+z
21 -x,1/2-y,1/2-z
22 1/4+x,3/4+y,1/2-z
23 1/4+x,1/2-y,3/4+z
24 -x,3/4+y,3/4+z
25 1/2-x,-y,1/2-z
26 3/4+x,1/4+y,1/2-z
27 3/4+x,-y,3/4+z
28 1/2-x,1/4+y,3/4+z
29 1/2-x,1/2-y,-z
30 3/4+x,3/4+y,-z
31 3/4+x,1/2-y,1/4+z
32 1/2-x,3/4+y,1/4+z
_cell_length_a                   12.3418(13)
_cell_length_b                   21.655(2)
_cell_length_c                   34.182(4)
_cell_angle_alpha                90
_cell_angle_beta                 90
_cell_angle_gamma                90
_cell_volume                     9135.54
loop_
_atom_site_label
_atom_site_type_symbol
_atom_site_fract_x
_atom_site_fract_y
_atom_site_fract_z
_atom_site_U_iso_or_equiv
_atom_site_thermal_displace_type
O4 O 0.3233(7) 0.1340(4) 0.0596(2) 0.0440 Uani
O5 O 0.148(2) 0.1734(12) 0.1548(8) 0.0380 Uiso
O6 O 0.291(4) 0.3124(19) 0.1385(11) 0.1000 Uani
Co1 Co 0.6250 0.1250 0.1250 0.0240 Uani
O1 O 0.4557(6) 0.1250 0.1250 0.0353 Uani
H1 H 0.418(6) 0.134(4) 0.1033(15) 0.0420 Uiso
N1 N 0.6267(5) 0.1937(3) 0.07949(17) 0.0290 Uani
N2 N 0.3585(5) 0.2255(3) 0.00199(17) 0.0283 Uani
C1 C 0.5589(6) 0.1889(3) 0.0494(2) 0.0310 Uani
H2 H 0.5112 0.1544 0.0488 0.0370 Uiso
C2 C 0.5534(6) 0.2307(3) 0.01895(19) 0.0260 Uani
C3 C 0.6254(7) 0.2809(4) 0.0201(2) 0.0370 Uani
H3 H 0.6268 0.3101 -0.0006 0.0440 Uiso
C4 C 0.6934(7) 0.2872(4) 0.0514(2) 0.0367 Uani
H4 H 0.7408 0.3217 0.0531 0.0440 Uiso
C5 C 0.6926(6) 0.2430(3) 0.0805(2) 0.0290 Uani
H5 H 0.7405 0.2477 0.1020 0.0350 Uiso
C6 C 0.4723(6) 0.2214(4) -0.0131(2) 0.0367 Uani
H6 H 0.4838 0.1803 -0.0252 0.0440 Uiso
H7 H 0.4833 0.2531 -0.0336 0.0440 Uiso
C7 C 0.2820(6) 0.2078(4) -0.0293(2) 0.0343 Uani
H8 H 0.2979 0.1652 -0.0381 0.0410 Uiso
H9 H 0.2911 0.2358 -0.0520 0.0410 Uiso
C8 C 0.3338(6) 0.2886(3) 0.0145(2) 0.0297 Uani
H10 H 0.3433 0.3172 -0.0078 0.0350 Uiso
H11 H 0.3844 0.3011 0.0355 0.0350 Uiso
Co1Q Co -0.1250 0.3750 -0.1250 0.0240 Uani
Co1R Co -0.1250 -0.1250 0.3750 0.0240 Uani
O1J O 0.7943(6) 0.1250 0.1250 0.0353 Uani
H1G H 0.418(6) 0.116(4) 0.1467(15) 0.0420 Uiso
H1J H 0.832(6) 0.134(4) 0.1467(15) 0.0420 Uiso
H1M H 0.832(6) 0.116(4) 0.1033(15) 0.0420 Uiso
N1BA N -0.1267(5) 0.3063(3) -0.07949(17) 0.0290 Uani
N1G N 0.6267(5) 0.0563(3) 0.17051(17) 0.0290 Uani
N1EA N -0.1267(5) -0.0563(3) 0.32949(17) 0.0290 Uani
N1J N 0.6233(5) 0.1937(3) 0.17051(17) 0.0290 Uani
N1M N 0.6233(5) 0.0563(3) 0.07949(17) 0.0290 Uani
N2BA N 0.1415(5) 0.2745(3) -0.00199(17) 0.0283 Uani
N2G N 0.3585(5) 0.0245(3) 0.24801(17) 0.0283 Uani
N2EA N 0.1415(5) -0.0245(3) 0.25199(17) 0.0283 Uani
C1BA C -0.0589(6) 0.3111(3) -0.0494(2) 0.0310 Uani
C1G C 0.5589(6) 0.0611(3) 0.2006(2) 0.0310 Uani
C1EA C -0.0589(6) -0.0611(3) 0.2994(2) 0.0310 Uani
H2BA H -0.0112 0.3456 -0.0488 0.0370 Uiso
H2G H 0.5112 0.0956 0.2012 0.0370 Uiso
H2EA H -0.0112 -0.0956 0.2988 0.0370 Uiso
C2BA C -0.0534(6) 0.2693(3) -0.01895(19) 0.0260 Uani
C2G C 0.5534(6) 0.0193(3) 0.23105(19) 0.0260 Uani
C2EA C -0.0534(6) -0.0193(3) 0.26895(19) 0.0260 Uani
C3BA C -0.1254(7) 0.2191(4) -0.0201(2) 0.0370 Uani
C3G C 0.6254(7) -0.0309(4) 0.2299(2) 0.0370 Uani
C3EA C -0.1254(7) 0.0309(4) 0.2701(2) 0.0370 Uani
H3BA H -0.1268 0.1899 0.0006 0.0440 Uiso
H3G H 0.6268 -0.0601 0.2506 0.0440 Uiso
H3EA H -0.1268 0.0601 0.2494 0.0440 Uiso
C4BA C -0.1934(7) 0.2128(4) -0.0514(2) 0.0367 Uani
C4G C 0.6934(7) -0.0372(4) 0.1986(2) 0.0367 Uani
C4EA C -0.1934(7) 0.0372(4) 0.3014(2) 0.0367 Uani
H4BA H -0.2408 0.1783 -0.0531 0.0440 Uiso
H4G H 0.7408 -0.0717 0.1969 0.0440 Uiso
H4EA H -0.2408 0.0717 0.3031 0.0440 Uiso
C5BA C -0.1926(6) 0.2570(3) -0.0805(2) 0.0290 Uani
C5G C 0.6926(6) 0.0070(3) 0.1695(2) 0.0290 Uani
C5EA C -0.1926(6) -0.0070(3) 0.3305(2) 0.0290 Uani
H5BA H -0.2405 0.2523 -0.1020 0.0350 Uiso
H5G H 0.7405 0.0023 0.1480 0.0350 Uiso
H5EA H -0.2405 -0.0023 0.3520 0.0350 Uiso
C6BA C 0.0277(6) 0.2786(4) 0.0131(2) 0.0367 Uani
C6G C 0.4723(6) 0.0286(4) 0.2631(2) 0.0367 Uani
C6EA C 0.0277(6) -0.0286(4) 0.2369(2) 0.0367 Uani
H6BA H 0.0162 0.3197 0.0252 0.0440 Uiso
H6G H 0.4838 0.0697 0.2752 0.0440 Uiso
H6EA H 0.0162 -0.0697 0.2248 0.0440 Uiso
H7BA H 0.0167 0.2469 0.0336 0.0440 Uiso
H7G H 0.4833 -0.0031 0.2836 0.0440 Uiso
H7EA H 0.0167 0.0031 0.2164 0.0440 Uiso
C7BA C 0.2180(6) 0.2922(4) 0.0293(2) 0.0343 Uani
C7G C 0.2820(6) 0.0422(4) 0.2793(2) 0.0343 Uani
C7EA C 0.2180(6) -0.0422(4) 0.2207(2) 0.0343 Uani
H8BA H 0.2021 0.3348 0.0381 0.0410 Uiso
H8G H 0.2979 0.0848 0.2881 0.0410 Uiso
H8EA H 0.2021 -0.0848 0.2119 0.0410 Uiso
H9BA H 0.2089 0.2642 0.0520 0.0410 Uiso
H9G H 0.2911 0.0142 0.3020 0.0410 Uiso
H9EA H 0.2089 -0.0142 0.1980 0.0410 Uiso
C8BA C 0.1662(6) 0.2114(3) -0.0145(2) 0.0297 Uani
C8G C 0.3338(6) -0.0386(3) 0.2355(2) 0.0297 Uani
C8EA C 0.1662(6) 0.0386(3) 0.2645(2) 0.0297 Uani
H10BA H 0.1567 0.1828 0.0078 0.0350 Uiso
H10G H 0.3433 -0.0672 0.2578 0.0350 Uiso
H10EA H 0.1567 0.0672 0.2422 0.0350 Uiso
H11BA H 0.1156 0.1989 -0.0355 0.0350 Uiso
H11G H 0.3844 -0.0511 0.2145 0.0350 Uiso
H11EA H 0.1156 0.0511 0.2855 0.0350 Uiso
loop_
_atom_site_aniso_label
_atom_site_aniso_U_11
_atom_site_aniso_U_22
_atom_site_aniso_U_33
_atom_site_aniso_U_23
_atom_site_aniso_U_13
_atom_site_aniso_U_12
O4 0.059(5) 0.042(5) 0.031(4) -0.003(4) -0.018(4) 0.002(4)
O6 0.15 0.093 0.057 0.023 -0.015 -0.08
Co1 0.0318(10) 0.0177(8) 0.0226(9) 0.000 0.000 0.000
O1 0.030(4) 0.048(4) 0.028(4) -0.004(4) 0.000 0.000
N1 0.034(3) 0.025(3) 0.028(3) 0.002(2) -0.008(3) 0.001(3)
N2 0.027(3) 0.035(3) 0.023(3) 0.000(2) -0.005(2) 0.007(3)
C1 0.035(4) 0.026(3) 0.032(4) -0.007(3) -0.002(3) 0.003(3)
C2 0.023(3) 0.036(4) 0.019(3) -0.001(3) 0.000(3) 0.005(3)
C3 0.041(4) 0.034(4) 0.036(4) 0.013(3) 0.000(4) 0.002(4)
C4 0.039(4) 0.034(4) 0.037(4) 0.011(3) 0.003(3) -0.004(3)
C5 0.032(4) 0.026(3) 0.029(4) 0.001(3) -0.005(3) -0.001(3)
C6 0.035(4) 0.058(5) 0.017(3) -0.008(3) -0.003(3) 0.013(4)
C7 0.032(4) 0.043(4) 0.028(4) -0.010(3) -0.001(3) 0.008(3)
C8 0.033(4) 0.027(3) 0.029(4) -0.002(3) -0.007(3) 0.009(3)
Co1Q 0.0318 0.0177 0.0226 0 0 0
Co1R 0.0318 0.0177 0.0226 0 0 0
O1J 0.03 0.048 0.028 0.004 0 0
N1BA 0.034 0.025 0.028 0.002 -0.008 0.001
N1G 0.034 0.025 0.028 0.002 0.008 -0.001
N1EA 0.034 0.025 0.028 0.002 0.008 -0.001
N1J 0.034 0.025 0.028 -0.002 -0.008 -0.001
N1M 0.034 0.025 0.028 -0.002 0.008 0.001
N2BA 0.027 0.035 0.023 0 -0.005 0.007
N2G 0.027 0.035 0.023 0 0.005 -0.007
N2EA 0.027 0.035 0.023 0 0.005 -0.007
C1BA 0.035 0.026 0.032 -0.007 -0.002 0.003
C1G 0.035 0.026 0.032 -0.007 0.002 -0.003
C1EA 0.035 0.026 0.032 -0.007 0.002 -0.003
C2BA 0.023 0.036 0.019 -0.001 0 0.005
C2G 0.023 0.036 0.019 -0.001 0 -0.005
C2EA 0.023 0.036 0.019 -0.001 0 -0.005
C3BA 0.041 0.034 0.036 0.013 0 0.002
C3G 0.041 0.034 0.036 0.013 0 -0.002
C3EA 0.041 0.034 0.036 0.013 0 -0.002
C4BA 0.039 0.034 0.037 0.011 0.003 -0.004
C4G 0.039 0.034 0.037 0.011 -0.003 0.004
C4EA 0.039 0.034 0.037 0.011 -0.003 0.004
C5BA 0.032 0.026 0.029 0.001 -0.005 -0.001
C5G 0.032 0.026 0.029 0.001 0.005 0.001
C5EA 0.032 0.026 0.029 0.001 0.005 0.001
C6BA 0.035 0.058 0.017 -0.008 -0.003 0.013
C6G 0.035 0.058 0.017 -0.008 0.003 -0.013
C6EA 0.035 0.058 0.017 -0.008 0.003 -0.013
C7BA 0.032 0.043 0.028 -0.01 -0.001 0.008
C7G 0.032 0.043 0.028 -0.01 0.001 -0.008
C7EA 0.032 0.043 0.028 -0.01 0.001 -0.008
C8BA 0.033 0.027 0.029 -0.002 -0.007 0.009
C8G 0.033 0.027 0.029 -0.002 0.007 -0.009
C8EA 0.033 0.027 0.029 -0.002 0.007 -0.009
loop_
_geom_bond_atom_site_label_1
_geom_bond_atom_site_label_2
_geom_bond_site_symmetry_1
_geom_bond_site_symmetry_2
Co1 O1 1_555 1_555
O1 H1 1_555 1_555
N1 Co1 1_555 1_555
N2 C6 1_555 1_555
C1 N1 1_555 1_555
H2 C1 1_555 1_555
C2 C1 1_555 1_555
C3 C2 1_555 1_555
H3 C3 1_555 1_555
C4 C3 1_555 1_555
H4 C4 1_555 1_555
C5 N1 1_555 1_555
H5 C5 1_555 1_555
C6 C2 1_555 1_555
H6 C6 1_555 1_555
H7 C6 1_555 1_555
C7 N2 1_555 1_555
H8 C7 1_555 1_555
H9 C7 1_555 1_555
C8 N2 1_555 1_555
H10 C8 1_555 1_555
H11 C8 1_555 1_555
Co1Q N1BA 1_555 1_555
Co1R N1EA 1_555 1_555
O1J Co1 1_555 1_555
H1G O1 1_555 1_555
H1J O1J 1_555 1_555
H1M O1J 1_555 1_555
N1BA C1BA 1_555 1_555
N1G Co1 1_555 1_555
N1EA C1EA 1_555 1_555
N1J Co1 1_555 1_555
N1M Co1 1_555 1_555
N2BA C6BA 1_555 1_555
N2G C6G 1_555 1_555
N2EA C6EA 1_555 1_555
C1BA H2BA 1_555 1_555
C1G N1G 1_555 1_555
C1EA H2EA 1_555 1_555
H2G C1G 1_555 1_555
C2BA C1BA 1_555 1_555
C2G C1G 1_555 1_555
C2EA C1EA 1_555 1_555
C3BA C2BA 1_555 1_555
C3G C2G 1_555 1_555
C3EA C2EA 1_555 1_555
H3BA C3BA 1_555 1_555
H3G C3G 1_555 1_555
H3EA C3EA 1_555 1_555
C4BA C3BA 1_555 1_555
C4G C3G 1_555 1_555
C4EA C3EA 1_555 1_555
H4BA C4BA 1_555 1_555
H4G C4G 1_555 1_555
H4EA C4EA 1_555 1_555
C5BA N1BA 1_555 1_555
C5G N1G 1_555 1_555
C5EA N1EA 1_555 1_555
H5BA C5BA 1_555 1_555
H5G C5G 1_555 1_555
H5EA C5EA 1_555 1_555
C6BA C2BA 1_555 1_555
C6G C2G 1_555 1_555
C6EA C2EA 1_555 1_555
H6BA C6BA 1_555 1_555
H6G C6G 1_555 1_555
H6EA C6EA 1_555 1_555
H7BA C6BA 1_555 1_555
H7G C6G 1_555 1_555
H7EA C6EA 1_555 1_555
C7BA C8 1_555 1_555
C7G N2G 1_555 1_555
C7EA N2EA 1_555 1_555
H8BA C7BA 1_555 1_555
H8G C7G 1_555 1_555
H8EA C7EA 1_555 1_555
H9BA C7BA 1_555 1_555
H9G C7G 1_555 1_555
H9EA C7EA 1_555 1_555
C8BA C7 1_555 1_555
C8G N2G 1_555 1_555
C8EA N2EA 1_555 1_555
H10BA C8BA 1_555 1_555
H10G C8G 1_555 1_555
H10EA C8EA 1_555 1_555
H11BA C8BA 1_555 1_555
H11G C8G 1_555 1_555
H11EA C8EA 1_555 1_555
C4 C5 1_555 1_555
N2BA C7BA 1_555 1_555
N2BA C8BA 1_555 1_555
C4BA C5BA 1_555 1_555
C4G C5G 1_555 1_555
C4EA C5EA 1_555 1_555
C7G C8EA 1_555 1_555
C7EA C8G 1_555 1_555

#END
