
#######################################################################
#
#                 Cambridge Crystallographic Data Centre
#                                CCDC 
#
#######################################################################
#
# If this CIF has been generated from an entry in the Cambridge 
# Structural Database, then it will include bibliographic, chemical, 
# crystal, experimental, refinement or atomic coordinate data resulting 
# from the CCDC's data processing and validation procedures.
#
#######################################################################

data_NUHPAI
_chemical_formula_moiety         '(C32 H44 N8 O2 Zn1 2+)n'
_symmetry_cell_setting           orthorhombic
_symmetry_space_group_name_H-M   'F d d d'
_symmetry_Int_Tables_number      70
_space_group_name_Hall           '-F 2uv 2vw'
loop_
_symmetry_equiv_pos_site_id
_symmetry_equiv_pos_as_xyz
1 x,y,z
2 3/4-x,3/4-y,z
3 3/4-x,y,3/4-z
4 x,3/4-y,3/4-z
5 x,1/2+y,1/2+z
6 3/4-x,1/4-y,1/2+z
7 3/4-x,1/2+y,1/4-z
8 x,1/4-y,1/4-z
9 1/2+x,y,1/2+z
10 1/4-x,3/4-y,1/2+z
11 1/4-x,y,1/4-z
12 1/2+x,3/4-y,1/4-z
13 1/2+x,1/2+y,z
14 1/4-x,1/4-y,z
15 1/4-x,1/2+y,3/4-z
16 1/2+x,1/4-y,3/4-z
17 -x,-y,-z
18 1/4+x,1/4+y,-z
19 1/4+x,-y,1/4+z
20 -x,1/4+y,1/4+z
21 -x,1/2-y,1/2-z
22 1/4+x,3/4+y,1/2-z
23 1/4+x,1/2-y,3/4+z
24 -x,3/4+y,3/4+z
25 1/2-x,-y,1/2-z
26 3/4+x,1/4+y,1/2-z
27 3/4+x,-y,3/4+z
28 1/2-x,1/4+y,3/4+z
29 1/2-x,1/2-y,-z
30 3/4+x,3/4+y,-z
31 3/4+x,1/2-y,1/4+z
32 1/2-x,3/4+y,1/4+z
_cell_length_a                   12.335(2)
_cell_length_b                   21.737(4)
_cell_length_c                   34.216(6)
_cell_angle_alpha                90
_cell_angle_beta                 90
_cell_angle_gamma                90
_cell_volume                     9174.2
loop_
_atom_site_label
_atom_site_type_symbol
_atom_site_fract_x
_atom_site_fract_y
_atom_site_fract_z
_atom_site_U_iso_or_equiv
_atom_site_thermal_displace_type
Zn1 Zn 0.6250 0.1250 0.1250 0.0246 Uani
O1 O 0.7975(5) 0.1250 0.1250 0.0387 Uani
H1 H 0.839(5) 0.114(3) 0.1049(14) 0.0460 Uiso
N1 N 0.6271(4) 0.1945(2) 0.07983(13) 0.0310 Uani
N2 N 0.3578(3) 0.2257(2) 0.00242(12) 0.0283 Uani
C1 C 0.5594(4) 0.1893(2) 0.04942(15) 0.0300 Uani
H2 H 0.5127 0.1546 0.0485 0.0360 Uiso
C2 C 0.5533(4) 0.2313(3) 0.01941(14) 0.0287 Uani
C3 C 0.6262(5) 0.2810(3) 0.02014(18) 0.0407 Uani
H3 H 0.6283 0.3100 -0.0006 0.0490 Uiso
C4 C 0.6950(5) 0.2866(3) 0.05197(18) 0.0393 Uani
H4 H 0.7432 0.3206 0.0538 0.0470 Uiso
C5 C 0.6931(5) 0.2432(2) 0.08065(16) 0.0317 Uani
H5 H 0.7410 0.2477 0.1022 0.0380 Uiso
C6 C 0.4724(5) 0.2213(3) -0.01271(15) 0.0370 Uani
H6 H 0.4840 0.1803 -0.0245 0.0440 Uiso
H7 H 0.4835 0.2526 -0.0334 0.0440 Uiso
C7 C 0.2816(4) 0.2085(3) -0.02918(17) 0.0353 Uani
H8 H 0.2971 0.1661 -0.0381 0.0420 Uiso
H9 H 0.2912 0.2366 -0.0517 0.0420 Uiso
C8 C 0.3330(5) 0.2876(3) 0.01463(16) 0.0323 Uani
H10 H 0.3428 0.3161 -0.0077 0.0390 Uiso
H11 H 0.3835 0.3002 0.0357 0.0390 Uiso
Zn1P Zn 1.3750 -0.1250 -0.1250 0.0246 Uani
Zn1Q Zn -0.1250 0.3750 -0.1250 0.0246 Uani
O1J O 0.4525(5) 0.1250 0.1250 0.0387 Uani
H1G H 0.839(5) 0.136(3) 0.1451(14) 0.0460 Uiso
H1J H 0.411(5) 0.114(3) 0.1451(14) 0.0460 Uiso
H1M H 0.411(5) 0.136(3) 0.1049(14) 0.0460 Uiso
N1BA N -0.1271(4) 0.3055(2) -0.07983(13) 0.0310 Uani
N1M N 0.6229(4) 0.0555(2) 0.07983(13) 0.0310 Uani
N1CA N 1.3771(4) -0.0555(2) -0.07983(13) 0.0310 Uani
N1J N 0.6229(4) 0.1945(2) 0.17017(13) 0.0310 Uani
N1G N 0.6271(4) 0.0555(2) 0.17017(13) 0.0310 Uani
N2BA N 0.1422(3) 0.2743(2) -0.00242(12) 0.0283 Uani
N2M N 0.8922(3) 0.0243(2) 0.00242(12) 0.0283 Uani
N2CA N 1.1078(3) -0.0243(2) -0.00242(12) 0.0283 Uani
C1BA C -0.0594(4) 0.3107(2) -0.04942(15) 0.0300 Uani
C1M C 0.6906(4) 0.0607(2) 0.04942(15) 0.0300 Uani
C1CA C 1.3094(4) -0.0607(2) -0.04942(15) 0.0300 Uani
H2BA H -0.0127 0.3454 -0.0485 0.0360 Uiso
H2M H 0.7373 0.0954 0.0485 0.0360 Uiso
H2CA H 1.2627 -0.0954 -0.0485 0.0360 Uiso
C2BA C -0.0533(4) 0.2687(3) -0.01941(14) 0.0287 Uani
C2M C 0.6967(4) 0.0187(3) 0.01941(14) 0.0287 Uani
C2CA C 1.3033(4) -0.0187(3) -0.01941(14) 0.0287 Uani
C3BA C -0.1262(5) 0.2190(3) -0.02014(18) 0.0407 Uani
C3M C 0.6238(5) -0.0310(3) 0.02014(18) 0.0407 Uani
C3CA C 1.3762(5) 0.0310(3) -0.02014(18) 0.0407 Uani
H3BA H -0.1283 0.1900 0.0006 0.0490 Uiso
H3M H 0.6217 -0.0600 -0.0006 0.0490 Uiso
H3CA H 1.3783 0.0600 0.0006 0.0490 Uiso
C4BA C -0.1950(5) 0.2134(3) -0.05197(18) 0.0393 Uani
C4M C 0.5550(5) -0.0366(3) 0.05197(18) 0.0393 Uani
C4CA C 1.4450(5) 0.0366(3) -0.05197(18) 0.0393 Uani
H4BA H -0.2432 0.1794 -0.0538 0.0470 Uiso
H4M H 0.5068 -0.0706 0.0538 0.0470 Uiso
H4CA H 1.4932 0.0706 -0.0538 0.0470 Uiso
C5BA C -0.1931(5) 0.2568(2) -0.08065(16) 0.0317 Uani
C5M C 0.5569(5) 0.0068(2) 0.08065(16) 0.0317 Uani
C5CA C 1.4431(5) -0.0068(2) -0.08065(16) 0.0317 Uani
H5BA H -0.2410 0.2523 -0.1022 0.0380 Uiso
H5M H 0.5090 0.0023 0.1022 0.0380 Uiso
H5CA H 1.4910 -0.0023 -0.1022 0.0380 Uiso
C6BA C 0.0276(5) 0.2787(3) 0.01271(15) 0.0370 Uani
C6M C 0.7776(5) 0.0287(3) -0.01271(15) 0.0370 Uani
C6CA C 1.2224(5) -0.0287(3) 0.01271(15) 0.0370 Uani
H6BA H 0.0160 0.3197 0.0245 0.0440 Uiso
H6M H 0.7660 0.0697 -0.0245 0.0440 Uiso
H6CA H 1.2340 -0.0697 0.0245 0.0440 Uiso
H7BA H 0.0165 0.2474 0.0334 0.0440 Uiso
H7M H 0.7665 -0.0026 -0.0334 0.0440 Uiso
H7CA H 1.2335 0.0026 0.0334 0.0440 Uiso
C7BA C 0.2184(4) 0.2915(3) 0.02918(17) 0.0353 Uani
C7M C 0.9684(4) 0.0415(3) -0.02918(17) 0.0353 Uani
C7CA C 1.0316(4) -0.0415(3) 0.02918(17) 0.0353 Uani
H8BA H 0.2029 0.3339 0.0381 0.0420 Uiso
H8M H 0.9529 0.0839 -0.0381 0.0420 Uiso
H8CA H 1.0471 -0.0839 0.0381 0.0420 Uiso
H9BA H 0.2088 0.2634 0.0517 0.0420 Uiso
H9M H 0.9588 0.0134 -0.0517 0.0420 Uiso
H9CA H 1.0412 -0.0134 0.0517 0.0420 Uiso
C8BA C 0.1670(5) 0.2124(3) -0.01463(16) 0.0323 Uani
C8M C 0.9170(5) -0.0376(3) 0.01463(16) 0.0323 Uani
C8CA C 1.0830(5) 0.0376(3) -0.01463(16) 0.0323 Uani
H10BA H 0.1572 0.1839 0.0077 0.0390 Uiso
H10M H 0.9072 -0.0661 -0.0077 0.0390 Uiso
H10CA H 1.0928 0.0661 0.0077 0.0390 Uiso
H11BA H 0.1165 0.1998 -0.0357 0.0390 Uiso
H11M H 0.8665 -0.0502 0.0357 0.0390 Uiso
H11CA H 1.1335 0.0502 -0.0357 0.0390 Uiso
loop_
_atom_site_aniso_label
_atom_site_aniso_U_11
_atom_site_aniso_U_22
_atom_site_aniso_U_33
_atom_site_aniso_U_23
_atom_site_aniso_U_13
_atom_site_aniso_U_12
Zn1 0.0359(7) 0.0183(5) 0.0195(6) 0.000 0.000 0.000
O1 0.030(3) 0.060(4) 0.026(3) 0.007(3) 0.000 0.000
N1 0.035(2) 0.026(2) 0.032(2) 0.0010(17) -0.015(2) 0.0003(18)
N2 0.025(2) 0.033(2) 0.027(2) 0.0053(17) 0.0006(17) 0.0070(17)
C1 0.036(3) 0.027(2) 0.027(2) -0.002(2) -0.006(2) 0.003(2)
C2 0.023(2) 0.041(3) 0.022(2) -0.003(2) 0.0042(18) 0.007(2)
C3 0.044(3) 0.036(3) 0.042(3) 0.013(2) 0.001(3) 0.000(3)
C4 0.043(3) 0.034(3) 0.041(3) 0.006(2) 0.003(3) -0.002(2)
C5 0.038(3) 0.028(3) 0.029(3) -0.003(2) -0.009(2) 0.000(2)
C6 0.037(3) 0.058(4) 0.016(2) -0.003(2) -0.005(2) 0.011(3)
C7 0.029(3) 0.045(3) 0.032(3) -0.011(2) -0.006(2) 0.012(2)
C8 0.035(3) 0.033(3) 0.029(3) 0.001(2) -0.006(2) 0.004(2)
Zn1P 0.0359 0.0183 0.0195 0 0 0
Zn1Q 0.0359 0.0183 0.0195 0 0 0
O1J 0.03 0.06 0.026 -0.007 0 0
N1BA 0.035 0.026 0.032 0.001 -0.015 0.0003
N1M 0.035 0.026 0.032 -0.001 0.015 0.0003
N1CA 0.035 0.026 0.032 -0.001 0.015 0.0003
N1J 0.035 0.026 0.032 -0.001 -0.015 -0.0003
N1G 0.035 0.026 0.032 0.001 0.015 -0.0003
N2BA 0.025 0.033 0.027 0.0053 0.0006 0.007
N2M 0.025 0.033 0.027 -0.0053 -0.0006 0.007
N2CA 0.025 0.033 0.027 -0.0053 -0.0006 0.007
C1BA 0.036 0.027 0.027 -0.002 -0.006 0.003
C1M 0.036 0.027 0.027 0.002 0.006 0.003
C1CA 0.036 0.027 0.027 0.002 0.006 0.003
C2BA 0.023 0.041 0.022 -0.003 0.0042 0.007
C2M 0.023 0.041 0.022 0.003 -0.0042 0.007
C2CA 0.023 0.041 0.022 0.003 -0.0042 0.007
C3BA 0.044 0.036 0.042 0.013 0.001 0
C3M 0.044 0.036 0.042 -0.013 -0.001 0
C3CA 0.044 0.036 0.042 -0.013 -0.001 0
C4BA 0.043 0.034 0.041 0.006 0.003 -0.002
C4M 0.043 0.034 0.041 -0.006 -0.003 -0.002
C4CA 0.043 0.034 0.041 -0.006 -0.003 -0.002
C5BA 0.038 0.028 0.029 -0.003 -0.009 0
C5M 0.038 0.028 0.029 0.003 0.009 0
C5CA 0.038 0.028 0.029 0.003 0.009 0
C6BA 0.037 0.058 0.016 -0.003 -0.005 0.011
C6M 0.037 0.058 0.016 0.003 0.005 0.011
C6CA 0.037 0.058 0.016 0.003 0.005 0.011
C7BA 0.029 0.045 0.032 -0.011 -0.006 0.012
C7M 0.029 0.045 0.032 0.011 0.006 0.012
C7CA 0.029 0.045 0.032 0.011 0.006 0.012
C8BA 0.035 0.033 0.029 0.001 -0.006 0.004
C8M 0.035 0.033 0.029 -0.001 0.006 0.004
C8CA 0.035 0.033 0.029 -0.001 0.006 0.004
loop_
_geom_bond_atom_site_label_1
_geom_bond_atom_site_label_2
_geom_bond_site_symmetry_1
_geom_bond_site_symmetry_2
Zn1 O1 1_555 1_555
O1 H1 1_555 1_555
N1 Zn1 1_555 1_555
N2 C6 1_555 1_555
C1 N1 1_555 1_555
H2 C1 1_555 1_555
C2 C1 1_555 1_555
C3 C2 1_555 1_555
H3 C3 1_555 1_555
C4 C3 1_555 1_555
H4 C4 1_555 1_555
C5 N1 1_555 1_555
H5 C5 1_555 1_555
C6 C2 1_555 1_555
H6 C6 1_555 1_555
H7 C6 1_555 1_555
C7 N2 1_555 1_555
H8 C7 1_555 1_555
H9 C7 1_555 1_555
C8 N2 1_555 1_555
H10 C8 1_555 1_555
H11 C8 1_555 1_555
Zn1P N1CA 1_555 1_555
Zn1Q N1BA 1_555 1_555
O1J Zn1 1_555 1_555
H1G O1 1_555 1_555
H1J O1J 1_555 1_555
H1M O1J 1_555 1_555
N1BA C1BA 1_555 1_555
N1M Zn1 1_555 1_555
N1CA C1CA 1_555 1_555
N1J Zn1 1_555 1_555
N1G Zn1 1_555 1_555
N2BA C6BA 1_555 1_555
N2M C6M 1_555 1_555
N2CA C6CA 1_555 1_555
C1BA H2BA 1_555 1_555
C1M N1M 1_555 1_555
C1CA H2CA 1_555 1_555
H2M C1M 1_555 1_555
C2BA C1BA 1_555 1_555
C2M C1M 1_555 1_555
C2CA C1CA 1_555 1_555
C3BA C2BA 1_555 1_555
C3M C2M 1_555 1_555
C3CA C2CA 1_555 1_555
H3BA C3BA 1_555 1_555
H3M C3M 1_555 1_555
H3CA C3CA 1_555 1_555
C4BA C3BA 1_555 1_555
C4M C3M 1_555 1_555
C4CA C3CA 1_555 1_555
H4BA C4BA 1_555 1_555
H4M C4M 1_555 1_555
H4CA C4CA 1_555 1_555
C5BA N1BA 1_555 1_555
C5M N1M 1_555 1_555
C5CA N1CA 1_555 1_555
H5BA C5BA 1_555 1_555
H5M C5M 1_555 1_555
H5CA C5CA 1_555 1_555
C6BA C2BA 1_555 1_555
C6M C2M 1_555 1_555
C6CA C2CA 1_555 1_555
H6BA C6BA 1_555 1_555
H6M C6M 1_555 1_555
H6CA C6CA 1_555 1_555
H7BA C6BA 1_555 1_555
H7M C6M 1_555 1_555
H7CA C6CA 1_555 1_555
C7BA C8 1_555 1_555
C7M N2M 1_555 1_555
C7CA N2CA 1_555 1_555
H8BA C7BA 1_555 1_555
H8M C7M 1_555 1_555
H8CA C7CA 1_555 1_555
H9BA C7BA 1_555 1_555
H9M C7M 1_555 1_555
H9CA C7CA 1_555 1_555
C8BA C7 1_555 1_555
C8M N2M 1_555 1_555
C8CA N2CA 1_555 1_555
H10BA C8BA 1_555 1_555
H10M C8M 1_555 1_555
H10CA C8CA 1_555 1_555
H11BA C8BA 1_555 1_555
H11M C8M 1_555 1_555
H11CA C8CA 1_555 1_555
C4 C5 1_555 1_555
N2BA C7BA 1_555 1_555
N2BA C8BA 1_555 1_555
C4BA C5BA 1_555 1_555
C4M C5M 1_555 1_555
C4CA C5CA 1_555 1_555
C7M C8CA 1_555 1_555
C7CA C8M 1_555 1_555

#END
