
#######################################################################
#
#                 Cambridge Crystallographic Data Centre
#                                CCDC 
#
#######################################################################
#
# If this CIF has been generated from an entry in the Cambridge 
# Structural Database, then it will include bibliographic, chemical, 
# crystal, experimental, refinement or atomic coordinate data resulting 
# from the CCDC's data processing and validation procedures.
#
#######################################################################

data_FEWWEL
_chemical_formula_moiety         'C44 H27 Cl8 Co5 N19 S3'
_symmetry_cell_setting           monoclinic
_symmetry_space_group_name_H-M   'P 21/n'
_symmetry_Int_Tables_number      14
_space_group_name_Hall           '-P 2yn'
loop_
_symmetry_equiv_pos_site_id
_symmetry_equiv_pos_as_xyz
1 x,y,z
2 1/2-x,1/2+y,1/2-z
3 -x,-y,-z
4 1/2+x,1/2-y,1/2+z
_cell_length_a                   12.8701(17)
_cell_length_b                   46.966(5)
_cell_length_c                   22.725(3)
_cell_angle_alpha                90
_cell_angle_beta                 90.352(5)
_cell_angle_gamma                90
_cell_volume                     13736
loop_
_atom_site_label
_atom_site_type_symbol
_atom_site_fract_x
_atom_site_fract_y
_atom_site_fract_z
Cl1 Cl 0.5978(4) 0.06669(10) 0.0526(2)
Cl2 Cl 0.5899(4) 0.07098(11) -0.0760(2)
Cl3 Cl 0.3347(4) 0.07904(13) -0.0647(2)
Cl4 Cl 0.3484(4) 0.07180(13) 0.0528(2)
C41 C 0.4207(4) 0.07845(11) -0.0042(2)
C42 C 0.5131(4) 0.06152(10) -0.0154(2)
Cl5 Cl 0.7066(4) 0.06368(13) 0.56853(17)
Cl6 Cl 0.7087(3) 0.06060(9) 0.43908(17)
Cl7 Cl 0.4574(4) 0.07730(18) 0.4408(2)
Cl8 Cl 0.4590(4) 0.07593(15) 0.5612(2)
C43 C 0.5215(4) 0.07938(13) 0.51106(19)
C44 C 0.6178(4) 0.05642(9) 0.49899(18)
Co1 Co 0.50257(13) -0.00018(3) 0.24915(6)
Co2 Co 0.84686(17) 0.24522(3) 0.50749(7)
S1 S 1.1360(7) 0.17682(18) 0.5166(5)
N1 N 0.9727(9) 0.2188(2) 0.5076(5)
C1 C 1.0305(17) 0.2038(5) 0.5112(10)
N2 N 0.7169(9) 0.2702(2) 0.5127(5)
S2 S 0.5602(10) 0.3102(3) 0.5236(6)
C2 C 0.6459(17) 0.2832(4) 0.5153(9)
N3 N 0.4069(15) 0.0032(4) 0.1768(8)
C3 C 0.3779(12) 0.0094(3) 0.1296(7)
S3 S 0.3526(9) 0.0244(2) 0.0632(5)
N4 N 0.6004(12) -0.0023(3) 0.1748(6)
C4 C 0.7151 0.0149 0.1832
C5 C 0.6445(14) 0.1744(3) 0.2993(7)
N5 N 0.6017(10) 0.1915(2) 0.2519(5)
C6 C 0.5466(13) 0.1788(3) 0.2128(6)
N6 N 0.5459(9) 0.1495(2) 0.2057(5)
C7 C 0.5765(10) 0.1353(2) 0.2552(5)
N7 N 0.6343(9) 0.1469(2) 0.2974(4)
N8 N 0.7799(10) 0.2181(2) 0.4376(5)
C8 C 0.7110(15) 0.2319(4) 0.4033(8)
H1 H 0.6935 0.2511 0.4112
C9 C 0.6656(14) 0.2175(3) 0.3559(7)
H2 H 0.6194 0.2274 0.3304
C10 C 0.6862(11) 0.1896(3) 0.3457(5)
C11 C 0.7592(11) 0.1755(3) 0.3847(6)
H3 H 0.7813 0.1564 0.3786
C12 C 0.7951(11) 0.1922(3) 0.4325(6)
H4 H 0.8336 0.1829 0.4627
N9 N 0.4238(10) 0.2282(2) 0.0735(5)
C13 C 0.4987(14) 0.2376(3) 0.1129(6)
H5 H 0.5221 0.2567 0.1080
C14 C 0.5410(12) 0.2231(3) 0.1562(6)
H6 H 0.5925 0.2314 0.1810
C15 C 0.5077(11) 0.1953(3) 0.1646(5)
C16 C 0.4338(12) 0.1848(3) 0.1275(6)
H7 H 0.4059 0.1663 0.1341
C17 C 0.3986(12) 0.2008(3) 0.0798(6)
H8 H 0.3556 0.1920 0.0510
N10 N 0.5233(5) 0.04625(15) 0.2529(3)
C18 C 0.5354(9) 0.0612(2) 0.1994(4)
H9 H 0.5362 0.0513 0.1629
C19 C 0.5454(10) 0.0891(2) 0.2012(5)
H10 H 0.5357 0.0994 0.1656
C20 C 0.5696(11) 0.1047(3) 0.2523(5)
C21 C 0.5987(10) 0.0865(2) 0.2994(5)
H11 H 0.6296 0.0944 0.3337
C22 C 0.5841(11) 0.0592(3) 0.2966(6)
H12 H 0.6160 0.0475 0.3256
N11 N 0.6207(9) 0.1473(2) 0.7131(5)
C23 C 0.6324(11) 0.1764(2) 0.7184(5)
N12 N 0.6020(10) 0.1919(3) 0.7628(5)
C24 C 0.5362(11) 0.1775(3) 0.8021(5)
N13 N 0.5109(10) 0.1506(2) 0.7982(4)
C25 C 0.5670(10) 0.1355(2) 0.7572(5)
N14 N 0.7830(10) 0.2209(2) 0.5807(5)
C26 C 0.7374(12) 0.2345(3) 0.6237(6)
H13 H 0.7342 0.2547 0.6234
C27 C 0.6948(13) 0.2197(3) 0.6687(7)
H14 H 0.6690 0.2305 0.7008
C28 C 0.6850(11) 0.1905(3) 0.6725(5)
C29 C 0.7353(11) 0.1774(3) 0.6277(5)
H15 H 0.7327 0.1572 0.6251
C30 C 0.7898(11) 0.1922(2) 0.5859(5)
H16 H 0.8335 0.1820 0.5598
N15 N 0.4036(10) 0.2269(2) 0.9373(5)
C31 C 0.4792(11) 0.2397(3) 0.9020(6)
H17 H 0.5070 0.2580 0.9105
C32 C 0.5113(13) 0.2237(3) 0.8530(6)
H18 H 0.5514 0.2321 0.8226
C33 C 0.4833(12) 0.1958(3) 0.8504(6)
C34 C 0.4243(12) 0.1823(3) 0.8897(6)
H19 H 0.4209 0.1621 0.8920
C35 C 0.3634(12) 0.2016(3) 0.9301(5)
N16 N 0.5228(5) 0.04584(15) 0.7538(3)
C36 C 0.5518(9) 0.0603(2) 0.7054(4)
H20 H 0.5631 0.0502 0.6698
C37 C 0.5655(10) 0.0896(2) 0.7062(5)
H21 H 0.5874 0.0991 0.6714
C38 C 0.5491(11) 0.1041(3) 0.7530(6)
C39 C 0.4911(12) 0.0913(3) 0.8015(6)
H22 H 0.4531 0.1019 0.8298
C40 C 0.4986(11) 0.0618(3) 0.8007(6)
H23 H 0.4855 0.0521 0.8366
Co1B Co 0.49743(13) 0.00018(3) 0.75085(6)
Co2C Co 0.34686(17) 0.25478(3) 0.00749(7)
Co2C_2 Co 0.34686(17) 0.25478(3) 1.00749(7)
N9C N 0.9238(10) 0.2718(2) 0.5735(5)
N15C N 0.9036(10) 0.2731(2) 0.4373(5)
N16B N 0.4772(5) -0.04584(15) 0.2462(3)
loop_
_geom_bond_atom_site_label_1
_geom_bond_atom_site_label_2
_geom_bond_site_symmetry_1
_geom_bond_site_symmetry_2
Co1 N3 1_555 1_555
Co2 N1 1_555 1_555
S1 C1 1_555 1_555
N1 C1 1_555 1_555
N2 Co2 1_555 1_555
S2 C2 1_555 1_555
C2 N2 1_555 1_555
N3 C3 1_555 1_555
C3 S3 1_555 1_555
N4 Co1 1_555 1_555
C4 N4 1_555 1_555
C5 N5 1_555 1_555
N5 C6 1_555 1_555
C6 N6 1_555 1_555
N6 C7 1_555 1_555
C7 N7 1_555 1_555
N7 C5 1_555 1_555
N8 Co2 1_555 1_555
C8 N8 1_555 1_555
H1 C8 1_555 1_555
C9 C8 1_555 1_555
H2 C9 1_555 1_555
C10 C5 1_555 1_555
C11 C10 1_555 1_555
H3 C11 1_555 1_555
C12 N8 1_555 1_555
H4 C12 1_555 1_555
N9 C13 1_555 1_555
C13 H5 1_555 1_555
C14 C13 1_555 1_555
H6 C14 1_555 1_555
C15 C6 1_555 1_555
C16 C15 1_555 1_555
H7 C16 1_555 1_555
C17 N9 1_555 1_555
H8 C17 1_555 1_555
N10 Co1 1_555 1_555
C18 N10 1_555 1_555
H9 C18 1_555 1_555
C19 C18 1_555 1_555
H10 C19 1_555 1_555
C20 C7 1_555 1_555
C21 C20 1_555 1_555
H11 C21 1_555 1_555
C22 N10 1_555 1_555
H12 C22 1_555 1_555
N11 C23 1_555 1_555
C23 N12 1_555 1_555
N12 C24 1_555 1_555
C24 N13 1_555 1_555
N13 C25 1_555 1_555
C25 N11 1_555 1_555
N14 Co2 1_555 1_555
C26 N14 1_555 1_555
H13 C26 1_555 1_555
C27 C26 1_555 1_555
H14 C27 1_555 1_555
C28 C23 1_555 1_555
C29 C28 1_555 1_555
H15 C29 1_555 1_555
C30 N14 1_555 1_555
H16 C30 1_555 1_555
N15 C31 1_555 1_555
C31 H17 1_555 1_555
C32 C31 1_555 1_555
H18 C32 1_555 1_555
C33 C24 1_555 1_555
C34 C33 1_555 1_555
H19 C34 1_555 1_555
C35 N15 1_555 1_555
N16 C36 1_555 1_555
C36 H20 1_555 1_555
C37 C36 1_555 1_555
H21 C37 1_555 1_555
C38 C25 1_555 1_555
C39 C38 1_555 1_555
H22 C39 1_555 1_555
C40 N16 1_555 1_555
H23 C40 1_555 1_555
Cl1 C42 1_555 1_555
Cl2 C42 1_555 1_555
Cl3 C41 1_555 1_555
Cl4 C41 1_555 1_555
C41 C42 1_555 1_555
Cl5 C44 1_555 1_555
Cl6 C44 1_555 1_555
Cl7 C43 1_555 1_555
Cl8 C43 1_555 1_555
C43 C44 1_555 1_555
Co1B N16 1_555 1_555
Co2C N9 1_555 1_555
Co2C_2 N15 1_555 1_555
N9C Co2 1_555 1_555
N15C Co2 1_555 1_555
N16B Co1 1_555 1_555
C9 C10 1_555 1_555
C11 C12 1_555 1_555
C14 C15 1_555 1_555
C16 C17 1_555 1_555
C19 C20 1_555 1_555
C21 C22 1_555 1_555
C27 C28 1_555 1_555
C29 C30 1_555 1_555
C32 C33 1_555 1_555
C34 C35 1_555 1_555
C37 C38 1_555 1_555
C39 C40 1_555 1_555

#END
