
#######################################################################
#
#                 Cambridge Crystallographic Data Centre
#                                CCDC 
#
#######################################################################
#
# If this CIF has been generated from an entry in the Cambridge 
# Structural Database, then it will include bibliographic, chemical, 
# crystal, experimental, refinement or atomic coordinate data resulting 
# from the CCDC's data processing and validation procedures.
#
#######################################################################

data_FEWWIP
_chemical_formula_moiety         'C38 H24 Cl2 Fe5 N17 S2'
_symmetry_cell_setting           monoclinic
_symmetry_space_group_name_H-M   'P 21/n'
_symmetry_Int_Tables_number      14
_space_group_name_Hall           '-P 2yn'
loop_
_symmetry_equiv_pos_site_id
_symmetry_equiv_pos_as_xyz
1 x,y,z
2 1/2-x,1/2+y,1/2-z
3 -x,-y,-z
4 1/2+x,1/2-y,1/2+z
_cell_length_a                   12.611(2)
_cell_length_b                   46.104(8)
_cell_length_c                   22.386(4)
_cell_angle_alpha                90
_cell_angle_beta                 90.333(3)
_cell_angle_gamma                90
_cell_volume                     13015.4
loop_
_atom_site_label
_atom_site_type_symbol
_atom_site_fract_x
_atom_site_fract_y
_atom_site_fract_z
Fe1 Fe 0.50777(10) -0.00058(2) 0.24948(5)
Fe2 Fe 0.85124(11) 0.24497(2) 0.51041(5)
S1 S 1.1429(7) 0.17615(18) 0.5208(4)
N1 N 0.9770(7) 0.21816(16) 0.5088(3)
C1 C 1.0475(9) 0.2000(2) 0.5133(5)
N2 N 0.7192(7) 0.27085(15) 0.5159(3)
S2 S 0.5601(4) 0.31209(12) 0.5299(3)
C2 C 0.6473(10) 0.2861(3) 0.5180(6)
C3 C 0.6544(9) 0.1732(2) 0.2983(5)
N3 N 0.6048(6) 0.19197(14) 0.2555(3)
C4 C 0.5668(9) 0.1785(2) 0.2080(5)
N4 N 0.5486(6) 0.14802(13) 0.2079(3)
C5 C 0.5841(8) 0.13420(19) 0.2504(4)
N5 N 0.6295(6) 0.14741(14) 0.3010(3)
N6 N 0.7790(7) 0.21727(16) 0.4403(3)
C6 C 0.7116(8) 0.2310(2) 0.4049(4)
H1 H 0.6931 0.2506 0.4121
C7 C 0.6733(8) 0.2176(2) 0.3622(5)
H2 H 0.6301 0.2286 0.3358
C8 C 0.6851(7) 0.18897(14) 0.3482(4)
C9 C 0.7476(8) 0.17617(18) 0.3893(4)
H3 H 0.7572 0.1557 0.3879
C10 C 0.7959(6) 0.19122(16) 0.4313(3)
H4 H 0.8462 0.1816 0.4560
N7 N 0.4251(7) 0.22763(15) 0.0739(3)
C11 C 0.5127(10) 0.2391(2) 0.1125(5)
H5 H 0.5424 0.2576 0.1042
C12 C 0.5480(9) 0.2243(2) 0.1563(4)
H6 H 0.5965 0.2329 0.1836
C13 C 0.5151(8) 0.19448(17) 0.1650(4)
C14 C 0.4505(7) 0.18381(17) 0.1237(4)
H7 H 0.4389 0.1635 0.1233
C15 C 0.4013(10) 0.19963(19) 0.0830(5)
H8 H 0.3473 0.1909 0.0593
N8 N 0.5416(5) 0.04623(14) 0.2498(3)
C16 C 0.5308(9) 0.0597(2) 0.2045(5)
H9 H 0.5080 0.0502 0.1690
C17 C 0.5511(8) 0.08885(19) 0.2040(4)
H10 H 0.5419 0.0986 0.1670
C18 C 0.5814(7) 0.10427(16) 0.2485(3)
C19 C 0.5937(8) 0.08653(18) 0.3019(4)
H11 H 0.6130 0.0955 0.3386
C20 C 0.5787(7) 0.05830(15) 0.3003(4)
H12 H 0.5939 0.0467 0.3343
N9 N 0.6272(6) 0.14620(14) 0.7128(3)
C21 C 0.6314(7) 0.17709(15) 0.7169(4)
N10 N 0.5986(6) 0.19165(14) 0.7664(3)
C22 C 0.5462(8) 0.17814(17) 0.8041(4)
N11 N 0.5205(6) 0.15104(13) 0.8032(3)
C23 C 0.5703(7) 0.13486(16) 0.7585(4)
N12 N 0.7980(6) 0.22004(15) 0.5841(3)
C24 C 0.7565(10) 0.2329(2) 0.6252(5)
H13 H 0.7638 0.2534 0.6253
C25 C 0.6939(8) 0.2198(2) 0.6768(4)
H14 H 0.6564 0.2309 0.7054
C26 C 0.6979(7) 0.18992(16) 0.6771(3)
C27 C 0.7495(7) 0.17682(18) 0.6345(4)
H15 H 0.7532 0.1562 0.6342
C28 C 0.7993(8) 0.1926(2) 0.5895(4)
H16 H 0.8375 0.1819 0.5604
N13 N 0.4048(6) 0.22778(16) 0.9397(3)
C29 C 0.4832(8) 0.23791(18) 0.8992(4)
H17 H 0.5112 0.2568 0.9050
C30 C 0.5161(8) 0.22357(19) 0.8576(4)
H18 H 0.5565 0.2335 0.8283
C31 C 0.5004(7) 0.19490(15) 0.8493(3)
C32 C 0.4204(8) 0.1837(2) 0.8892(4)
H19 H 0.3960 0.1643 0.8857
C33 C 0.3814(7) 0.20133(17) 0.9312(4)
H20 H 0.3307 0.1932 0.9574
N14 N 0.5127(6) 0.04510(16) 0.7520(3)
C34 C 0.5608(7) 0.06099(15) 0.7076(3)
H21 H 0.5833 0.0509 0.6729
C35 C 0.5778(7) 0.08916(17) 0.7099(4)
H22 H 0.6101 0.0982 0.6765
C36 C 0.5528(7) 0.10515(15) 0.7551(4)
C37 C 0.4996(9) 0.0928(2) 0.8051(5)
H23 H 0.4759 0.1039 0.8382
C38 C 0.4859(9) 0.0629(2) 0.8006(5)
H24 H 0.4551 0.0535 0.8340
Fe1B Fe 0.49223(10) 0.00058(2) 0.75052(5)
Fe2C Fe 0.35124(11) 0.25503(2) 0.01041(5)
Fe2C_2 Fe 0.35124(11) 0.25503(2) 1.01041(5)
N7C N 0.9251(7) 0.27237(15) 0.5739(3)
N13C N 0.9048(6) 0.27222(16) 0.4397(3)
N14B N 0.4873(6) -0.04510(16) 0.2480(3)
Cl1 Cl 0.5966(5) 0.11466(9) 0.4750(2)
Cl2 Cl 0.4533(5) 0.11604(9) -0.0095(2)
loop_
_geom_bond_atom_site_label_1
_geom_bond_atom_site_label_2
_geom_bond_site_symmetry_1
_geom_bond_site_symmetry_2
Fe1 N8 1_555 1_555
Fe2 N1 1_555 1_555
S1 C1 1_555 1_555
N1 C1 1_555 1_555
N2 Fe2 1_555 1_555
S2 C2 1_555 1_555
C2 N2 1_555 1_555
C3 N3 1_555 1_555
N3 C4 1_555 1_555
C4 N4 1_555 1_555
N4 C5 1_555 1_555
C5 N5 1_555 1_555
N5 C3 1_555 1_555
N6 Fe2 1_555 1_555
C6 N6 1_555 1_555
H1 C6 1_555 1_555
C7 C6 1_555 1_555
H2 C7 1_555 1_555
C8 C3 1_555 1_555
C9 C8 1_555 1_555
H3 C9 1_555 1_555
C10 N6 1_555 1_555
H4 C10 1_555 1_555
N7 C11 1_555 1_555
C11 H5 1_555 1_555
C12 C11 1_555 1_555
H6 C12 1_555 1_555
C13 C4 1_555 1_555
C14 C13 1_555 1_555
H7 C14 1_555 1_555
C15 N7 1_555 1_555
H8 C15 1_555 1_555
N8 C16 1_555 1_555
C16 H9 1_555 1_555
C17 C16 1_555 1_555
H10 C17 1_555 1_555
C18 C5 1_555 1_555
C19 C18 1_555 1_555
H11 C19 1_555 1_555
C20 N8 1_555 1_555
H12 C20 1_555 1_555
N9 C21 1_555 1_555
C21 N10 1_555 1_555
N10 C22 1_555 1_555
C22 N11 1_555 1_555
N11 C23 1_555 1_555
C23 N9 1_555 1_555
N12 Fe2 1_555 1_555
C24 N12 1_555 1_555
H13 C24 1_555 1_555
C25 C24 1_555 1_555
H14 C25 1_555 1_555
C26 C21 1_555 1_555
C27 C26 1_555 1_555
H15 C27 1_555 1_555
C28 N12 1_555 1_555
H16 C28 1_555 1_555
N13 C29 1_555 1_555
C29 H17 1_555 1_555
C30 C29 1_555 1_555
H18 C30 1_555 1_555
C31 C22 1_555 1_555
C32 C31 1_555 1_555
H19 C32 1_555 1_555
C33 N13 1_555 1_555
H20 C33 1_555 1_555
N14 C34 1_555 1_555
C34 H21 1_555 1_555
C35 C34 1_555 1_555
H22 C35 1_555 1_555
C36 C23 1_555 1_555
C37 C36 1_555 1_555
H23 C37 1_555 1_555
C38 N14 1_555 1_555
H24 C38 1_555 1_555
Fe1B N14 1_555 1_555
Fe2C N7 1_555 1_555
Fe2C_2 N13 1_555 1_555
N7C Fe2 1_555 1_555
N13C Fe2 1_555 1_555
N14B Fe1 1_555 1_555
C7 C8 1_555 1_555
C9 C10 1_555 1_555
C12 C13 1_555 1_555
C14 C15 1_555 1_555
C17 C18 1_555 1_555
C19 C20 1_555 1_555
C25 C26 1_555 1_555
C27 C28 1_555 1_555
C30 C31 1_555 1_555
C32 C33 1_555 1_555
C35 C36 1_555 1_555
C37 C38 1_555 1_555

#END
