
#######################################################################
#
#                 Cambridge Crystallographic Data Centre
#                                CCDC 
#
#######################################################################
#
# If this CIF has been generated from an entry in the Cambridge 
# Structural Database, then it will include bibliographic, chemical, 
# crystal, experimental, refinement or atomic coordinate data resulting 
# from the CCDC's data processing and validation procedures.
#
#######################################################################

data_FEWXIQ
_chemical_formula_moiety         'C84 H48 Fe9 N36 S12'
_symmetry_cell_setting           cubic
_symmetry_space_group_name_H-M   'F m -3 m'
_symmetry_Int_Tables_number      225
_space_group_name_Hall           '-F 4 2 3'
loop_
_symmetry_equiv_pos_site_id
_symmetry_equiv_pos_as_xyz
1 x,y,z
2 -y,x,z
3 -x,-y,z
4 y,-x,z
5 x,-y,-z
6 y,x,-z
7 -x,y,-z
8 -y,-x,-z
9 z,x,y
10 -x,z,y
11 -z,-x,y
12 x,-z,y
13 z,-x,-y
14 x,z,-y
15 -z,x,-y
16 -x,-z,-y
17 y,z,x
18 -z,-y,-x
19 -z,y,x
20 z,y,-x
21 z,-y,x
22 y,-z,-x
23 -y,-z,x
24 -y,z,-x
25 x,1/2+y,1/2+z
26 -y,1/2+x,1/2+z
27 -x,1/2-y,1/2+z
28 y,1/2-x,1/2+z
29 x,1/2-y,1/2-z
30 y,1/2+x,1/2-z
31 -x,1/2+y,1/2-z
32 -y,1/2-x,1/2-z
33 z,1/2+x,1/2+y
34 -x,1/2+z,1/2+y
35 -z,1/2-x,1/2+y
36 x,1/2-z,1/2+y
37 z,1/2-x,1/2-y
38 x,1/2+z,1/2-y
39 -z,1/2+x,1/2-y
40 -x,1/2-z,1/2-y
41 y,1/2+z,1/2+x
42 -z,1/2-y,1/2-x
43 -z,1/2+y,1/2+x
44 z,1/2+y,1/2-x
45 z,1/2-y,1/2+x
46 y,1/2-z,1/2-x
47 -y,1/2-z,1/2+x
48 -y,1/2+z,1/2-x
49 1/2+x,y,1/2+z
50 1/2-y,x,1/2+z
51 1/2-x,-y,1/2+z
52 1/2+y,-x,1/2+z
53 1/2+x,-y,1/2-z
54 1/2+y,x,1/2-z
55 1/2-x,y,1/2-z
56 1/2-y,-x,1/2-z
57 1/2+z,x,1/2+y
58 1/2-x,z,1/2+y
59 1/2-z,-x,1/2+y
60 1/2+x,-z,1/2+y
61 1/2+z,-x,1/2-y
62 1/2+x,z,1/2-y
63 1/2-z,x,1/2-y
64 1/2-x,-z,1/2-y
65 1/2+y,z,1/2+x
66 1/2-z,-y,1/2-x
67 1/2-z,y,1/2+x
68 1/2+z,y,1/2-x
69 1/2+z,-y,1/2+x
70 1/2+y,-z,1/2-x
71 1/2-y,-z,1/2+x
72 1/2-y,z,1/2-x
73 1/2+x,1/2+y,z
74 1/2-y,1/2+x,z
75 1/2-x,1/2-y,z
76 1/2+y,1/2-x,z
77 1/2+x,1/2-y,-z
78 1/2+y,1/2+x,-z
79 1/2-x,1/2+y,-z
80 1/2-y,1/2-x,-z
81 1/2+z,1/2+x,y
82 1/2-x,1/2+z,y
83 1/2-z,1/2-x,y
84 1/2+x,1/2-z,y
85 1/2+z,1/2-x,-y
86 1/2+x,1/2+z,-y
87 1/2-z,1/2+x,-y
88 1/2-x,1/2-z,-y
89 1/2+y,1/2+z,x
90 1/2-z,1/2-y,-x
91 1/2-z,1/2+y,x
92 1/2+z,1/2+y,-x
93 1/2+z,1/2-y,x
94 1/2+y,1/2-z,-x
95 1/2-y,1/2-z,x
96 1/2-y,1/2+z,-x
97 -x,-y,-z
98 y,-x,-z
99 x,y,-z
100 -y,x,-z
101 -x,y,z
102 -y,-x,z
103 x,-y,z
104 y,x,z
105 -z,-x,-y
106 x,-z,-y
107 z,x,-y
108 -x,z,-y
109 -z,x,y
110 -x,-z,y
111 z,-x,y
112 x,z,y
113 -y,-z,-x
114 z,y,x
115 z,-y,-x
116 -z,-y,x
117 -z,y,-x
118 -y,z,x
119 y,z,-x
120 y,-z,x
121 -x,1/2-y,1/2-z
122 y,1/2-x,1/2-z
123 x,1/2+y,1/2-z
124 -y,1/2+x,1/2-z
125 -x,1/2+y,1/2+z
126 -y,1/2-x,1/2+z
127 x,1/2-y,1/2+z
128 y,1/2+x,1/2+z
129 -z,1/2-x,1/2-y
130 x,1/2-z,1/2-y
131 z,1/2+x,1/2-y
132 -x,1/2+z,1/2-y
133 -z,1/2+x,1/2+y
134 -x,1/2-z,1/2+y
135 z,1/2-x,1/2+y
136 x,1/2+z,1/2+y
137 -y,1/2-z,1/2-x
138 z,1/2+y,1/2+x
139 z,1/2-y,1/2-x
140 -z,1/2-y,1/2+x
141 -z,1/2+y,1/2-x
142 -y,1/2+z,1/2+x
143 y,1/2+z,1/2-x
144 y,1/2-z,1/2+x
145 1/2-x,-y,1/2-z
146 1/2+y,-x,1/2-z
147 1/2+x,y,1/2-z
148 1/2-y,x,1/2-z
149 1/2-x,y,1/2+z
150 1/2-y,-x,1/2+z
151 1/2+x,-y,1/2+z
152 1/2+y,x,1/2+z
153 1/2-z,-x,1/2-y
154 1/2+x,-z,1/2-y
155 1/2+z,x,1/2-y
156 1/2-x,z,1/2-y
157 1/2-z,x,1/2+y
158 1/2-x,-z,1/2+y
159 1/2+z,-x,1/2+y
160 1/2+x,z,1/2+y
161 1/2-y,-z,1/2-x
162 1/2+z,y,1/2+x
163 1/2+z,-y,1/2-x
164 1/2-z,-y,1/2+x
165 1/2-z,y,1/2-x
166 1/2-y,z,1/2+x
167 1/2+y,z,1/2-x
168 1/2+y,-z,1/2+x
169 1/2-x,1/2-y,-z
170 1/2+y,1/2-x,-z
171 1/2+x,1/2+y,-z
172 1/2-y,1/2+x,-z
173 1/2-x,1/2+y,z
174 1/2-y,1/2-x,z
175 1/2+x,1/2-y,z
176 1/2+y,1/2+x,z
177 1/2-z,1/2-x,-y
178 1/2+x,1/2-z,-y
179 1/2+z,1/2+x,-y
180 1/2-x,1/2+z,-y
181 1/2-z,1/2+x,y
182 1/2-x,1/2-z,y
183 1/2+z,1/2-x,y
184 1/2+x,1/2+z,y
185 1/2-y,1/2-z,-x
186 1/2+z,1/2+y,x
187 1/2+z,1/2-y,-x
188 1/2-z,1/2-y,x
189 1/2-z,1/2+y,-x
190 1/2-y,1/2+z,x
191 1/2+y,1/2+z,-x
192 1/2+y,1/2-z,x
_cell_length_a                   38.222(4)
_cell_length_b                   38.222(4)
_cell_length_c                   38.222(4)
_cell_angle_alpha                90
_cell_angle_beta                 90
_cell_angle_gamma                90
_cell_volume                     55839.3
loop_
_atom_site_label
_atom_site_type_symbol
_atom_site_fract_x
_atom_site_fract_y
_atom_site_fract_z
Fe1 Fe 0.2500 0.2500 0.0000
N1 N 0.2214(9) 0.2214(9) 0.0388(12)
N2 N 0.1430(8) 0.1868(9) 0.1430(8)
C1 C 0.1905(11) 0.2358(14) 0.0541(11)
H1 H 0.1800 0.2556 0.0449
C2 C 0.1775(12) 0.2200(11) 0.0816(14)
H2 H 0.1578 0.2301 0.0916
C3 C 0.1898(11) 0.1898(11) 0.0975(13)
C4 C 0.1696(11) 0.1696(11) 0.1274(14)
N3 N 0.2907(8) 0.2093(8) 0.0000
S1 S 0.3189(9) 0.1442(9) 0.0000
C5 C 0.3024 0.1855 0.0000
N1H N 0.0388(12) 0.2214(9) 0.2214(9)
N2H N 0.1430(8) 0.1430(8) 0.1868(9)
C1H C 0.0541(11) 0.1905(11) 0.2358(14)
H1H H 0.0449 0.1800 0.2556
C2H C 0.0816(14) 0.1775(12) 0.2200(11)
H2H H 0.0916 0.1578 0.2301
C3H C 0.0975(13) 0.1898(11) 0.1898(11)
C4H C 0.1274(14) 0.1696(11) 0.1696(11)
N1P N 0.2214(9) 0.0388(12) 0.2214(9)
N2P N 0.1868(9) 0.1430(8) 0.1430(8)
C1P C 0.2358(14) 0.0541(11) 0.1905(11)
H1P H 0.2556 0.0449 0.1800
C2P C 0.2200(11) 0.0816(14) 0.1775(12)
H2P H 0.2301 0.0916 0.1578
C3P C 0.1898(11) 0.0975(13) 0.1898(11)
C4P C 0.1696(11) 0.1274(14) 0.1696(11)
C1YC C 0.2358(14) 0.1905(11) 0.0541(11)
H1YC H 0.2556 0.1800 0.0449
C2YC C 0.2200(11) 0.1775(12) 0.0816(14)
H2YC H 0.2301 0.1578 0.0916
C1GD C 0.1905(11) 0.0541(11) 0.2358(14)
H1GD H 0.1800 0.0449 0.2556
C2GD C 0.1775(12) 0.0816(14) 0.2200(11)
H2GD H 0.1578 0.0916 0.2301
C1ID C 0.0541(11) 0.2358(14) 0.1905(11)
H1ID H 0.0449 0.2556 0.1800
C2ID C 0.0816(14) 0.2200(11) 0.1775(12)
H2ID H 0.0916 0.2301 0.1578
S1AC S 0.3558(9) 0.1811(9) 0.0000
C5AC C 0.3145 0.1976 0.0000
N1E N 0.2214(9) 0.2214(9) -0.0388(12)
N2E N 0.1868(9) 0.1430(8) -0.1430(8)
C1E C 0.2358(14) 0.1905(11) -0.0541(11)
H1E H 0.2556 0.1800 -0.0449
C2E C 0.2200(11) 0.1775(12) -0.0816(14)
H2E H 0.2301 0.1578 -0.0916
C3E C 0.1898(11) 0.1898(11) -0.0975(13)
C4E C 0.1696(11) 0.1696(11) -0.1274(14)
N3E N 0.2093(8) 0.2907(8) 0.0000
S1E S 0.1442(9) 0.3189(9) 0.0000
C5E C 0.1855 0.3024 0.0000
N1M N 0.2214(9) 0.0388(12) -0.2214(9)
N2M N 0.1430(8) 0.1430(8) -0.1868(9)
C1M C 0.1905(11) 0.0541(11) -0.2358(14)
H1M H 0.1800 0.0449 -0.2556
C2M C 0.1775(12) 0.0816(14) -0.2200(11)
H2M H 0.1578 0.0916 -0.2301
C3M C 0.1898(11) 0.0975(13) -0.1898(11)
C4M C 0.1696(11) 0.1274(14) -0.1696(11)
N1S N 0.0388(12) 0.2214(9) -0.2214(9)
N2S N 0.1430(8) 0.1868(9) -0.1430(8)
C1S C 0.0541(11) 0.2358(14) -0.1905(11)
H1S H 0.0449 0.2556 -0.1800
C2S C 0.0816(14) 0.2200(11) -0.1775(12)
H2S H 0.0916 0.2301 -0.1578
C3S C 0.0975(13) 0.1898(11) -0.1898(11)
C4S C 0.1274(14) 0.1696(11) -0.1696(11)
C1TC C 0.1905(11) 0.2358(14) -0.0541(11)
H1TC H 0.1800 0.2556 -0.0449
C2TC C 0.1775(12) 0.2200(11) -0.0816(14)
H2TC H 0.1578 0.2301 -0.0916
C1BD C 0.0541(11) 0.1905(11) -0.2358(14)
H1BD H 0.0449 0.1800 -0.2556
C2BD C 0.0816(14) 0.1775(12) -0.2200(11)
H2BD H 0.0916 0.1578 -0.2301
C1ND C 0.2358(14) 0.0541(11) -0.1905(11)
H1ND H 0.2556 0.0449 -0.1800
C2ND C 0.2200(11) 0.0816(14) -0.1775(12)
H2ND H 0.2301 0.0916 -0.1578
S1VB S 0.1811(9) 0.3558(9) 0.0000
C5VB C 0.1976 0.3145 0.0000
Fe1H Fe 0.0000 0.2500 0.2500
Fe1I Fe -0.2500 0.0000 0.2500
N1I N -0.2214(9) 0.0388(12) 0.2214(9)
N2I N -0.1430(8) 0.1430(8) 0.1868(9)
C1I C -0.1905(11) 0.0541(11) 0.2358(14)
H1I H -0.1800 0.0449 0.2556
C2I C -0.1775(12) 0.0816(14) 0.2200(11)
H2I H -0.1578 0.0916 0.2301
C3I C -0.1898(11) 0.0975(13) 0.1898(11)
C4I C -0.1696(11) 0.1274(14) 0.1696(11)
N1R N -0.0388(12) 0.2214(9) 0.2214(9)
N2R N -0.1430(8) 0.1868(9) 0.1430(8)
C1R C -0.0541(11) 0.2358(14) 0.1905(11)
H1R H -0.0449 0.2556 0.1800
C2R C -0.0816(14) 0.2200(11) 0.1775(12)
H2R H -0.0916 0.2301 0.1578
C3R C -0.0975(13) 0.1898(11) 0.1898(11)
C4R C -0.1274(14) 0.1696(11) 0.1696(11)
N1A N -0.2214(9) 0.2214(9) 0.0388(12)
N2A N -0.1868(9) 0.1430(8) 0.1430(8)
C1A C -0.2358(14) 0.1905(11) 0.0541(11)
H1A H -0.2556 0.1800 0.0449
C2A C -0.2200(11) 0.1775(12) 0.0816(14)
H2A H -0.2301 0.1578 0.0916
C3A C -0.1898(11) 0.1898(11) 0.0975(13)
C4A C -0.1696(11) 0.1696(11) 0.1274(14)
C1MD C -0.2358(14) 0.0541(11) 0.1905(11)
H1MD H -0.2556 0.0449 0.1800
C2MD C -0.2200(11) 0.0816(14) 0.1775(12)
H2MD H -0.2301 0.0916 0.1578
C1VC C -0.1905(11) 0.2358(14) 0.0541(11)
H1VC H -0.1800 0.2556 0.0449
C2VC C -0.1775(12) 0.2200(11) 0.0816(14)
H2VC H -0.1578 0.2301 0.0916
C1DD C -0.0541(11) 0.1905(11) 0.2358(14)
H1DD H -0.0449 0.1800 0.2556
C2DD C -0.0816(14) 0.1775(12) 0.2200(11)
H2DD H -0.0916 0.1578 0.2301
N3R N -0.0000 0.2093(8) 0.2907(8)
S1R S 0.0000 0.1442(9) 0.3189(9)
C5R C -0.0000 0.1855 0.3024
S1JA S -0.0000 0.1811(9) 0.3558(9)
C5JA C -0.0000 0.1976 0.3145
N1AC N 0.2786(9) 0.2786(9) -0.0388(12)
N2AC N 0.3132(9) 0.3570(8) -0.1430(8)
C1AC C 0.2642(14) 0.3095(11) -0.0541(11)
H1AC H 0.2444 0.3200 -0.0449
C2AC C 0.2800(11) 0.3225(12) -0.0816(14)
H2AC H 0.2699 0.3422 -0.0916
C3AC C 0.3102(11) 0.3102(11) -0.0975(13)
C4AC C 0.3304(11) 0.3304(11) -0.1274(14)
N1IC N 0.2786(9) 0.4612(12) -0.2214(9)
N2IC N 0.3570(8) 0.3570(8) -0.1868(9)
C1IC C 0.3095(11) 0.4459(11) -0.2358(14)
H1IC H 0.3200 0.4551 -0.2556
C2IC C 0.3225(12) 0.4184(14) -0.2200(11)
H2IC H 0.3422 0.4084 -0.2301
C3IC C 0.3102(11) 0.4025(13) -0.1898(11)
C4IC C 0.3304(11) 0.3726(14) -0.1696(11)
N1KC N 0.4612(12) 0.2786(9) -0.2214(9)
N2KC N 0.3570(8) 0.3132(9) -0.1430(8)
C1KC C 0.4459(11) 0.2642(14) -0.1905(11)
H1KC H 0.4551 0.2444 -0.1800
C2KC C 0.4184(14) 0.2800(11) -0.1775(12)
H2KC H 0.4084 0.2699 -0.1578
C3KC C 0.4025(13) 0.3102(11) -0.1898(11)
C4KC C 0.3726(14) 0.3304(11) -0.1696(11)
C1LF C 0.3095(11) 0.2642(14) -0.0541(11)
H1LF H 0.3200 0.2444 -0.0449
C2LF C 0.3225(12) 0.2800(11) -0.0816(14)
H2LF H 0.3422 0.2699 -0.0916
C1TF C 0.4459(11) 0.3095(11) -0.2358(14)
H1TF H 0.4551 0.3200 -0.2556
C2TF C 0.4184(14) 0.3225(12) -0.2200(11)
H2TF H 0.4084 0.3422 -0.2301
C1BG C 0.2642(14) 0.4459(11) -0.1905(11)
H1BG H 0.2444 0.4551 -0.1800
C2BG C 0.2800(11) 0.4184(14) -0.1775(12)
H2BG H 0.2699 0.4084 -0.1578
N3H N -0.0000 0.2907(8) 0.2093(8)
S1H S 0.0000 0.3189(9) 0.1442(9)
C5H C -0.0000 0.3024 0.1855
S1OA S -0.0000 0.3558(9) 0.1811(9)
C5OA C -0.0000 0.3145 0.1976
N3I N -0.2907(8) -0.0000 0.2093(8)
S1I S -0.3189(9) 0.0000 0.1442(9)
C5I C -0.3024 0.0000 0.1855
S1QB S -0.3558(9) 0.0000 0.1811(9)
C5QB C -0.3145 -0.0000 0.1976
N3V N -0.2093(8) 0.0000 0.2907(8)
S1V S -0.1442(9) 0.0000 0.3189(9)
C5V C -0.1855 0.0000 0.3024
S1IB S -0.1811(9) 0.0000 0.3558(9)
C5IB C -0.1976 -0.0000 0.3145
Fe1A Fe -0.2500 0.2500 0.0000
Fe1K Fe 0.2500 0.0000 0.2500
Fe1M Fe 0.2500 0.0000 -0.2500
Fe1N Fe 0.0000 0.2500 -0.2500
Fe1IA Fe 0.2500 0.5000 -0.2500
Fe1DB Fe 0.5000 0.2500 -0.2500
N1V N -0.2214(9) -0.0388(12) 0.2214(9)
N1JA N 0.0388(12) 0.2786(9) 0.2786(9)
N1OA N -0.0388(12) 0.2786(9) 0.2786(9)
N1IB N -0.2786(9) 0.0388(12) 0.2786(9)
N1QB N -0.2786(9) -0.0388(12) 0.2786(9)
N1VB N 0.2786(9) 0.2786(9) 0.0388(12)
loop_
_geom_bond_atom_site_label_1
_geom_bond_atom_site_label_2
_geom_bond_site_symmetry_1
_geom_bond_site_symmetry_2
Fe1 N1 1_555 1_555
N1 C1 1_555 1_555
N2 C4 1_555 1_555
C1 H1 1_555 1_555
C2 C1 1_555 1_555
H2 C2 1_555 1_555
C3 C2 1_555 1_555
C4 C3 1_555 1_555
N3 Fe1 1_555 1_555
S1 C5 1_555 1_555
C5 N3 1_555 1_555
N1H C1H 1_555 1_555
N2H C4H 1_555 1_555
C1H H1H 1_555 1_555
C2H C1H 1_555 1_555
H2H C2H 1_555 1_555
C3H C2H 1_555 1_555
C4H N2 1_555 1_555
N1P C1P 1_555 1_555
N2P C4 1_555 1_555
C1P H1P 1_555 1_555
C2P C1P 1_555 1_555
H2P C2P 1_555 1_555
C3P C2P 1_555 1_555
C4P N2H 1_555 1_555
C1YC N1 1_555 1_555
H1YC C1YC 1_555 1_555
C2YC C3 1_555 1_555
H2YC C2YC 1_555 1_555
C1GD N1P 1_555 1_555
H1GD C1GD 1_555 1_555
C2GD C3P 1_555 1_555
H2GD C2GD 1_555 1_555
C1ID N1H 1_555 1_555
H1ID C1ID 1_555 1_555
C2ID C3H 1_555 1_555
H2ID C2ID 1_555 1_555
S1AC S1 1_555 1_555
C5AC N3 1_555 1_555
N1E Fe1 1_555 1_555
N2E C4E 1_555 1_555
C1E N1E 1_555 1_555
H1E C1E 1_555 1_555
C2E C1E 1_555 1_555
H2E C2E 1_555 1_555
C3E C2E 1_555 1_555
C4E C3E 1_555 1_555
N3E Fe1 1_555 1_555
S1E C5E 1_555 1_555
C5E N3E 1_555 1_555
N1M C1M 1_555 1_555
N2M C4M 1_555 1_555
C1M H1M 1_555 1_555
C2M C1M 1_555 1_555
H2M C2M 1_555 1_555
C3M C2M 1_555 1_555
C4M N2E 1_555 1_555
N1S C1S 1_555 1_555
N2S C4E 1_555 1_555
C1S H1S 1_555 1_555
C2S C1S 1_555 1_555
H2S C2S 1_555 1_555
C3S C2S 1_555 1_555
C4S N2M 1_555 1_555
C1TC N1E 1_555 1_555
H1TC C1TC 1_555 1_555
C2TC C3E 1_555 1_555
H2TC C2TC 1_555 1_555
C1BD N1S 1_555 1_555
H1BD C1BD 1_555 1_555
C2BD C3S 1_555 1_555
H2BD C2BD 1_555 1_555
C1ND N1M 1_555 1_555
H1ND C1ND 1_555 1_555
C2ND C3M 1_555 1_555
H2ND C2ND 1_555 1_555
S1VB S1E 1_555 1_555
C5VB N3E 1_555 1_555
Fe1H N1H 1_555 1_555
Fe1I N1I 1_555 1_555
N1I C1I 1_555 1_555
N2I C4I 1_555 1_555
C1I H1I 1_555 1_555
C2I C1I 1_555 1_555
H2I C2I 1_555 1_555
C3I C2I 1_555 1_555
C4I C3I 1_555 1_555
N1R Fe1H 1_555 1_555
N2R C4R 1_555 1_555
C1R N1R 1_555 1_555
H1R C1R 1_555 1_555
C2R C1R 1_555 1_555
H2R C2R 1_555 1_555
C3R C2R 1_555 1_555
C4R N2I 1_555 1_555
N1A C1A 1_555 1_555
N2A C4I 1_555 1_555
C1A H1A 1_555 1_555
C2A C1A 1_555 1_555
H2A C2A 1_555 1_555
C3A C2A 1_555 1_555
C4A N2R 1_555 1_555
C1MD N1I 1_555 1_555
H1MD C1MD 1_555 1_555
C2MD C3I 1_555 1_555
H2MD C2MD 1_555 1_555
C1VC N1A 1_555 1_555
H1VC C1VC 1_555 1_555
C2VC C3A 1_555 1_555
H2VC C2VC 1_555 1_555
C1DD N1R 1_555 1_555
H1DD C1DD 1_555 1_555
C2DD C3R 1_555 1_555
H2DD C2DD 1_555 1_555
N3R Fe1H 1_555 1_555
S1R C5R 1_555 1_555
C5R N3R 1_555 1_555
S1JA S1R 1_555 1_555
C5JA N3R 1_555 1_555
N1AC Fe1 1_555 1_555
N2AC C4AC 1_555 1_555
C1AC N1AC 1_555 1_555
H1AC C1AC 1_555 1_555
C2AC C1AC 1_555 1_555
H2AC C2AC 1_555 1_555
C3AC C2AC 1_555 1_555
C4AC C3AC 1_555 1_555
N1IC C1IC 1_555 1_555
N2IC C4IC 1_555 1_555
C1IC H1IC 1_555 1_555
C2IC C1IC 1_555 1_555
H2IC C2IC 1_555 1_555
C3IC C2IC 1_555 1_555
C4IC N2AC 1_555 1_555
N1KC C1KC 1_555 1_555
N2KC C4AC 1_555 1_555
C1KC H1KC 1_555 1_555
C2KC C1KC 1_555 1_555
H2KC C2KC 1_555 1_555
C3KC C2KC 1_555 1_555
C4KC N2IC 1_555 1_555
C1LF N1AC 1_555 1_555
H1LF C1LF 1_555 1_555
C2LF C3AC 1_555 1_555
H2LF C2LF 1_555 1_555
C1TF N1KC 1_555 1_555
H1TF C1TF 1_555 1_555
C2TF C3KC 1_555 1_555
H2TF C2TF 1_555 1_555
C1BG N1IC 1_555 1_555
H1BG C1BG 1_555 1_555
C2BG C3IC 1_555 1_555
H2BG C2BG 1_555 1_555
N3H Fe1H 1_555 1_555
S1H C5H 1_555 1_555
C5H N3H 1_555 1_555
S1OA S1H 1_555 1_555
C5OA N3H 1_555 1_555
N3I Fe1I 1_555 1_555
S1I C5I 1_555 1_555
C5I N3I 1_555 1_555
S1QB S1I 1_555 1_555
C5QB N3I 1_555 1_555
N3V Fe1I 1_555 1_555
S1V C5V 1_555 1_555
C5V N3V 1_555 1_555
S1IB S1V 1_555 1_555
C5IB N3V 1_555 1_555
Fe1A N1A 1_555 1_555
Fe1K N1P 1_555 1_555
Fe1M N1M 1_555 1_555
Fe1N N1S 1_555 1_555
Fe1IA N1IC 1_555 1_555
Fe1DB N1KC 1_555 1_555
N1V Fe1I 1_555 1_555
N1JA Fe1H 1_555 1_555
N1OA Fe1H 1_555 1_555
N1IB Fe1I 1_555 1_555
N1QB Fe1I 1_555 1_555
N1VB Fe1 1_555 1_555
S1 C5AC 1_555 1_555
C5 S1AC 1_555 1_555
C5 C5AC 1_555 1_555
C3H C4H 1_555 1_555
N2P C4P 1_555 1_555
C3P C4P 1_555 1_555
C1YC C2YC 1_555 1_555
C1GD C2GD 1_555 1_555
C1ID C2ID 1_555 1_555
S1AC C5AC 1_555 1_555
S1E C5VB 1_555 1_555
C5E S1VB 1_555 1_555
C5E C5VB 1_555 1_555
C3M C4M 1_555 1_555
N2S C4S 1_555 1_555
C3S C4S 1_555 1_555
C1TC C2TC 1_555 1_555
C1BD C2BD 1_555 1_555
C1ND C2ND 1_555 1_555
S1VB C5VB 1_555 1_555
C3R C4R 1_555 1_555
N2A C4A 1_555 1_555
C3A C4A 1_555 1_555
C1MD C2MD 1_555 1_555
C1VC C2VC 1_555 1_555
C1DD C2DD 1_555 1_555
S1R C5JA 1_555 1_555
C5R S1JA 1_555 1_555
C5R C5JA 1_555 1_555
S1JA C5JA 1_555 1_555
C3IC C4IC 1_555 1_555
N2KC C4KC 1_555 1_555
C3KC C4KC 1_555 1_555
C1LF C2LF 1_555 1_555
C1TF C2TF 1_555 1_555
C1BG C2BG 1_555 1_555
S1H C5OA 1_555 1_555
C5H S1OA 1_555 1_555
C5H C5OA 1_555 1_555
S1OA C5OA 1_555 1_555
S1I C5QB 1_555 1_555
C5I S1QB 1_555 1_555
C5I C5QB 1_555 1_555
S1QB C5QB 1_555 1_555
S1V C5IB 1_555 1_555
C5V S1IB 1_555 1_555
C5V C5IB 1_555 1_555
S1IB C5IB 1_555 1_555

#END
