
#######################################################################
#
#                 Cambridge Crystallographic Data Centre
#                                CCDC 
#
#######################################################################
#
# If this CIF has been generated from an entry in the Cambridge 
# Structural Database, then it will include bibliographic, chemical, 
# crystal, experimental, refinement or atomic coordinate data resulting 
# from the CCDC's data processing and validation procedures.
#
#######################################################################

data_CANROA
_chemical_formula_moiety         'C120 H84 Co19 O53 Si4'
_symmetry_cell_setting           triclinic
_symmetry_space_group_name_H-M   'P -1'
_symmetry_Int_Tables_number      2
_space_group_name_Hall           '-P 1'
loop_
_symmetry_equiv_pos_site_id
_symmetry_equiv_pos_as_xyz
1 x,y,z
2 -x,-y,-z
_cell_length_a                   12.72390(17)
_cell_length_b                   14.4992(2)
_cell_length_c                   23.3453(4)
_cell_angle_alpha                99.7335(13)
_cell_angle_beta                 92.6890(12)
_cell_angle_gamma                97.4756(12)
_cell_volume                     4198.33
loop_
_atom_site_label
_atom_site_type_symbol
_atom_site_fract_x
_atom_site_fract_y
_atom_site_fract_z
Co1 Co 0.50453(3) 0.30396(2) 0.392946(14)
Co2 Co 0.5000 0.5000 0.5000
Co3 Co 0.0000 0.5000 1.0000
Co4 Co 0.05762(3) 0.68457(3) 0.925505(15)
Si1 Si 0.02546(6) 0.22043(5) 0.63393(3)
Si2 Si 0.39837(6) 0.24425(5) 0.81270(3)
C1 C 0.1466(2) 0.24071(19) 0.59221(10)
C2 C 0.1717(2) 0.32829(19) 0.57421(11)
H1 H 0.1314 0.3777 0.5869
C3 C 0.2529(2) 0.34427(19) 0.53888(11)
H2 H 0.2691 0.4043 0.5278
C4 C 0.3118(2) 0.27114(18) 0.51933(11)
C5 C 0.2903(2) 0.1852(2) 0.53746(11)
H3 H 0.3314 0.1363 0.5250
C6 C 0.2087(2) 0.1700(2) 0.57386(11)
H4 H 0.1950 0.1108 0.5864
C7 C 0.3916(2) 0.28540(19) 0.47630(11)
O1 O 0.41688(14) 0.36672(12) 0.46276(7)
O2 O 0.43078(16) 0.21665(14) 0.44969(9)
C8 C 0.0427(2) 0.2916(2) 0.70906(10)
C9 C 0.1179(3) 0.3726(2) 0.72222(12)
H5 H 0.1687 0.3855 0.6951
C10 C 0.1191(3) 0.4347(2) 0.77448(12)
H6 H 0.1685 0.4911 0.7818
C11 C 0.0498(2) 0.4157(2) 0.81581(10)
C12 C -0.0203(2) 0.3330(2) 0.80507(12)
H7 H -0.0659 0.3174 0.8341
C13 C -0.0246(2) 0.2722(2) 0.75179(12)
H8 H -0.0747 0.2162 0.7446
C14 C 0.0487(2) 0.4856(2) 0.87150(11)
O3 O 0.08995(18) 0.56899(16) 0.87148(8)
O4 O 0.00424(15) 0.45536(14) 0.91226(7)
C15 C -0.0834(2) 0.26297(19) 0.59218(11)
C16 C -0.1609(2) 0.3102(2) 0.61963(11)
H9 H -0.1619 0.3189 0.6609
C17 C -0.2364(2) 0.3448(2) 0.58774(11)
H10 H -0.2870 0.3787 0.6075
C18 C -0.2395(2) 0.33084(18) 0.52748(11)
C19 C -0.1629(2) 0.2823(2) 0.49965(11)
H11 H -0.1642 0.2711 0.4583
C20 C -0.0862(2) 0.2507(2) 0.53099(11)
H12 H -0.0336 0.2198 0.5111
C21 C -0.3229(2) 0.36579(18) 0.49323(11)
O5 O -0.35705(14) 0.44053(13) 0.51388(8)
O6 O -0.35575(15) 0.31486(13) 0.44388(8)
C22 C -0.0079(3) 0.08974(14) 0.63593(15)
C23 C 0.0240(3) 0.05271(17) 0.68402(13)
H13 H 0.0600 0.0935 0.7173
C24 C 0.0034(4) -0.04398(19) 0.68346(12)
H14 H 0.0252 -0.0693 0.7163
C25 C -0.0492(4) -0.10363(14) 0.63481(13)
C26 C -0.0812(4) -0.0666(2) 0.58672(13)
H15 H -0.1172 -0.1074 0.5535
C27 C -0.0605(4) 0.0301(2) 0.58728(14)
H16 H -0.0824 0.0554 0.5544
C28 C -0.0712(6) -0.2061(3) 0.6352(2)
O7 O -0.0462(6) -0.2373(2) 0.68015(17)
O8 O -0.1160(6) -0.2593(3) 0.58888(17)
C29 C 0.40915(19) 0.32329(18) 0.75685(10)
C30 C 0.4434(3) 0.2926(2) 0.70183(12)
H17 H 0.4577 0.2294 0.6920
C31 C 0.4572(2) 0.3510(2) 0.66151(12)
H18 H 0.4813 0.3279 0.6246
C32 C 0.4362(2) 0.44310(19) 0.67415(11)
C33 C 0.4041(3) 0.4758(2) 0.72889(13)
H19 H 0.3909 0.5394 0.7386
C34 C 0.3913(3) 0.4169(2) 0.76920(13)
H20 H 0.3697 0.4409 0.8066
C35 C 0.4512(2) 0.50678(19) 0.63057(11)
O9 O 0.47374(15) 0.47180(14) 0.58052(8)
O10 O 0.4414(2) 0.59209(15) 0.64733(9)
C36 C 0.2840(2) 0.25896(18) 0.85938(11)
C37 C 0.2835(2) 0.34449(19) 0.89807(12)
H21 H 0.3368 0.3963 0.8966
C38 C 0.2080(2) 0.35507(19) 0.93798(12)
H22 H 0.2081 0.4142 0.9628
C39 C 0.1321(2) 0.27984(19) 0.94195(12)
C40 C 0.1302(3) 0.1945(2) 0.90386(15)
H23 H 0.0775 0.1426 0.9060
C41 C 0.2048(2) 0.1855(2) 0.86319(14)
H24 H 0.2018 0.1273 0.8370
C42 C 0.0568(2) 0.2888(2) 0.98900(13)
O11 O 0.04578(14) 0.37037(13) 1.01632(8)
O12 O 0.0093(2) 0.21771(16) 1.00507(12)
C43 C 0.5209(2) 0.27358(19) 0.86317(11)
C44 C 0.6078(2) 0.3374(3) 0.85377(14)
H25 H 0.6075 0.3630 0.8189
C45 C 0.6935(2) 0.3641(3) 0.89377(15)
H26 H 0.7508 0.4083 0.8863
C46 C 0.6977(2) 0.32779(19) 0.94431(11)
C47 C 0.6132(2) 0.2633(2) 0.95423(13)
H27 H 0.6151 0.2365 0.9886
C48 C 0.5268(2) 0.2379(2) 0.91453(13)
H28 H 0.4691 0.1945 0.9225
C49 C 0.7918(2) 0.3581(2) 0.98771(11)
O13 O 0.84298(14) 0.43752(13) 0.98722(8)
O14 O 0.81062(16) 0.30153(15) 1.02054(9)
C50 C 0.3853(2) 0.12015(18) 0.77170(11)
C51 C 0.3091(2) 0.0913(2) 0.72450(14)
H29 H 0.2595 0.1324 0.7174
C52 C 0.3041(2) 0.0059(2) 0.68834(14)
H30 H 0.2520 -0.0119 0.6565
C53 C 0.3755(2) -0.05394(19) 0.69857(12)
C54 C 0.4483(2) -0.0300(2) 0.74573(13)
H31 H 0.4948 -0.0731 0.7539
C55 C 0.4537(2) 0.0575(2) 0.78142(12)
H32 H 0.5058 0.0745 0.8133
C56 C 0.3796(2) -0.1437(2) 0.65729(12)
O15 O 0.3118(2) -0.15914(17) 0.61192(11)
O16 O 0.44304(16) -0.19677(14) 0.66533(8)
O17 O 0.3622(2) 0.2790(2) 0.34136(11)
C57 C 0.3283(13) 0.2375(13) 0.2857(4)
H33 H 0.2538 0.2472 0.2778
H34 H 0.3305 0.1687 0.2810
C58 C 0.3994(15) 0.2797(15) 0.2405(6)
H35 H 0.3721 0.2497 0.2009
H36 H 0.4727 0.2679 0.2472
H37 H 0.3977 0.3480 0.2453
O18 O -0.0804(3) 0.6840(3) 0.87094(14)
C59 C -0.1018(10) 0.6453(8) 0.8100(4)
H38 H -0.0320 0.6397 0.7937
H39 H -0.1326 0.6937 0.7919
C60 C -0.1765(8) 0.5463(7) 0.7865(5)
H40 H -0.1792 0.5327 0.7438
H41 H -0.2484 0.5503 0.7991
H42 H -0.1474 0.4956 0.8022
O19 O 0.1350(3) 0.7823(2) 0.88020(13)
Co1_2 Co 1.50453(3) 0.30396(2) 0.392946(14)
Co1_3 Co -0.49547(3) 0.30396(2) 0.392946(14)
Co1A Co 0.49547(3) 0.69604(2) 0.607054(14)
Co1A_2 Co 0.49547(3) -0.30396(2) 0.607054(14)
Co1_4 Co 0.50453(3) 1.30396(2) 0.392946(14)
Co2_2 Co -0.5000 0.5000 0.5000
Co2_3 Co 1.5000 0.5000 0.5000
Co3_2 Co 1.0000 0.5000 1.0000
Co3_3 Co 1.0000 0.5000 0.0000
Co3_4 Co 0.0000 0.5000 0.0000
Co4_2 Co 1.05762(3) 0.68457(3) 0.925505(15)
Co4A Co -0.05762(3) 0.31543(3) 1.074495(15)
Co4A_2 Co 0.94238(3) 0.31543(3) 1.074495(15)
Co4_3 Co 1.05762(3) 0.68457(3) -0.074495(15)
Co4_4 Co 0.05762(3) 0.68457(3) -0.074495(15)
Si1_2 Si 1.02546(6) 0.22043(5) 0.63393(3)
Si2A Si 0.60163(6) 0.75575(5) 0.18730(3)
C1_2 C 1.1466(2) 0.24071(19) 0.59221(10)
C2_2 C 1.1717(2) 0.32829(19) 0.57421(11)
H1_2 H 1.1314 0.3777 0.5869
C3_2 C 1.2529(2) 0.34427(19) 0.53888(11)
H2_2 H 1.2691 0.4043 0.5278
C4_2 C 1.3118(2) 0.27114(18) 0.51933(11)
C5_2 C 1.2903(2) 0.1852(2) 0.53746(11)
H3_2 H 1.3314 0.1363 0.5250
C6_2 C 1.2087(2) 0.1700(2) 0.57386(11)
H4_2 H 1.1950 0.1108 0.5864
C7_2 C 1.3916(2) 0.28540(19) 0.47630(11)
O1_2 O 1.41688(14) 0.36672(12) 0.46276(7)
O1A O 0.58312(14) 0.63328(12) 0.53724(7)
O2_2 O 1.43078(16) 0.21665(14) 0.44969(9)
C8_2 C 1.0427(2) 0.2916(2) 0.70906(10)
C9_2 C 1.1179(3) 0.3726(2) 0.72222(12)
H5_2 H 1.1687 0.3855 0.6951
C10_2 C 1.1191(3) 0.4347(2) 0.77448(12)
H6_2 H 1.1685 0.4911 0.7818
C11_2 C 1.0498(2) 0.4157(2) 0.81581(10)
C12_2 C 0.9797(2) 0.3330(2) 0.80507(12)
H7_2 H 0.9341 0.3174 0.8341
C13_2 C 0.9754(2) 0.2722(2) 0.75179(12)
H8_2 H 0.9253 0.2162 0.7446
C14_2 C 1.0487(2) 0.4856(2) 0.87150(11)
O3_2 O 1.08995(18) 0.56899(16) 0.87148(8)
O4_2 O 1.00424(15) 0.45536(14) 0.91226(7)
O4A O -0.00424(15) 0.54464(14) 1.08774(7)
C15_2 C 0.9166(2) 0.26297(19) 0.59218(11)
C16_2 C 0.8391(2) 0.3102(2) 0.61963(11)
H9_2 H 0.8381 0.3189 0.6609
C17_2 C 0.7636(2) 0.3448(2) 0.58774(11)
H10_2 H 0.7130 0.3787 0.6075
C18_2 C 0.7605(2) 0.33084(18) 0.52748(11)
C19_2 C 0.8371(2) 0.2823(2) 0.49965(11)
H11_2 H 0.8358 0.2711 0.4583
C20_2 C 0.9138(2) 0.2507(2) 0.53099(11)
H12_2 H 0.9664 0.2198 0.5111
C21_2 C 0.6771(2) 0.36579(18) 0.49323(11)
O5_2 O 0.64295(14) 0.44053(13) 0.51388(8)
O5A O 0.35705(14) 0.55947(13) 0.48612(8)
O6_2 O 0.64425(15) 0.31486(13) 0.44388(8)
O6_3 O 1.64425(15) 0.31486(13) 0.44388(8)
C22_2 C 0.9921(3) 0.08974(14) 0.63593(15)
C23_2 C 1.0240(3) 0.05271(17) 0.68402(13)
H13_2 H 1.0600 0.0935 0.7173
C24_2 C 1.0034(4) -0.04398(19) 0.68346(12)
H14_2 H 1.0252 -0.0693 0.7163
C25_2 C 0.9508(4) -0.10363(14) 0.63481(13)
C26_2 C 0.9188(4) -0.0666(2) 0.58672(13)
H15_2 H 0.8828 -0.1074 0.5535
C27_2 C 0.9395(4) 0.0301(2) 0.58728(14)
H16_2 H 0.9176 0.0554 0.5544
C28_2 C 0.9288(6) -0.2061(3) 0.6352(2)
O7_2 O 0.9538(6) -0.2373(2) 0.68015(17)
O8_2 O 0.8840(6) -0.2593(3) 0.58888(17)
C29A C 0.59085(19) 0.67671(18) 0.24315(10)
C30A C 0.5566(3) 0.7074(2) 0.29817(12)
H17A H 0.5423 0.7706 0.3080
C31A C 0.5428(2) 0.6490(2) 0.33849(12)
H18A H 0.5187 0.6721 0.3754
C32A C 0.5638(2) 0.55690(19) 0.32585(11)
C33A C 0.5959(3) 0.5242(2) 0.27111(13)
H19A H 0.6091 0.4606 0.2614
C34A C 0.6087(3) 0.5831(2) 0.23080(13)
H20A H 0.6303 0.5591 0.1934
C35A C 0.5488(2) 0.49322(19) 0.36943(11)
O9A O 0.52626(15) 0.52820(14) 0.41948(8)
O10A O 0.5586(2) 0.40791(15) 0.35267(9)
O10A_2 O 1.5586(2) 0.40791(15) 0.35267(9)
C36A C 0.7160(2) 0.74104(18) 0.14062(11)
C37A C 0.7165(2) 0.65551(19) 0.10193(12)
H21A H 0.6632 0.6037 0.1034
C38A C 0.7920(2) 0.64493(19) 0.06202(12)
H22A H 0.7919 0.5858 0.0372
C39A C 0.8679(2) 0.72016(19) 0.05805(12)
C40A C 0.8698(3) 0.8055(2) 0.09614(15)
H23A H 0.9225 0.8574 0.0940
C41A C 0.7952(2) 0.8145(2) 0.13681(14)
H24A H 0.7982 0.8727 0.1630
C42A C 0.9432(2) 0.7112(2) 0.01100(13)
O11A O 0.95422(14) 0.62963(13) -0.01632(8)
O11A_2 O -0.04578(14) 0.62963(13) 0.98368(8)
O11A_3 O 0.95422(14) 0.62963(13) 0.98368(8)
O12A O 0.9907(2) 0.78229(16) -0.00507(12)
O12A_2 O -0.0093(2) 0.78229(16) 0.99493(12)
O12A_3 O 0.9907(2) 0.78229(16) 0.99493(12)
C43A C 0.4791(2) 0.72642(19) 0.13683(11)
C44A C 0.3922(2) 0.6626(3) 0.14623(14)
H25A H 0.3925 0.6370 0.1811
C45A C 0.3065(2) 0.6359(3) 0.10623(15)
H26A H 0.2492 0.5917 0.1137
C46A C 0.3023(2) 0.67221(19) 0.05569(11)
C47A C 0.3868(2) 0.7367(2) 0.04577(13)
H27A H 0.3849 0.7635 0.0114
C48A C 0.4732(2) 0.7621(2) 0.08547(13)
H28A H 0.5309 0.8055 0.0775
C49A C 0.2082(2) 0.6419(2) 0.01229(11)
O13A O 0.15702(14) 0.56248(13) 0.01278(8)
O13_2 O -0.15702(14) 0.43752(13) 0.98722(8)
O13A_2 O 0.15702(14) 0.56248(13) 1.01278(8)
O14A O 0.18938(16) 0.69847(15) -0.02054(9)
O14A_2 O 0.18938(16) 0.69847(15) 0.97946(9)
O14A_3 O 1.18938(16) 0.69847(15) 0.97946(9)
C50A C 0.6147(2) 0.87985(18) 0.22830(11)
C51A C 0.6909(2) 0.9087(2) 0.27550(14)
H29A H 0.7405 0.8676 0.2826
C52A C 0.6959(2) 0.9941(2) 0.31166(14)
H30A H 0.7480 1.0119 0.3435
C53A C 0.6245(2) 1.05394(19) 0.30143(12)
C54A C 0.5517(2) 1.0300(2) 0.25427(13)
H31A H 0.5052 1.0731 0.2461
C55A C 0.5463(2) 0.9425(2) 0.21858(12)
H32A H 0.4942 0.9255 0.1867
C56A C 0.6204(2) 1.1437(2) 0.34271(12)
O15A O 0.6882(2) 1.15914(17) 0.38808(11)
O16A O 0.55696(16) 1.19677(14) 0.33467(8)
O16A_2 O 0.55696(16) 0.19677(14) 0.33467(8)
O16A_3 O 1.55696(16) 0.19677(14) 0.33467(8)
O17_2 O 1.3622(2) 0.2790(2) 0.34136(11)
C57_2 C 1.3283(13) 0.2375(13) 0.2857(4)
H33_2 H 1.2538 0.2472 0.2778
H34_2 H 1.3305 0.1687 0.2810
C58_2 C 1.3994(15) 0.2797(15) 0.2405(6)
H35_2 H 1.3721 0.2497 0.2009
H36_2 H 1.4727 0.2679 0.2472
H37_2 H 1.3977 0.3480 0.2453
O18_2 O 0.9196(3) 0.6840(3) 0.87094(14)
C59_2 C 0.8982(10) 0.6453(8) 0.8100(4)
H38_2 H 0.9680 0.6397 0.7937
H39_2 H 0.8674 0.6937 0.7919
C60_2 C 0.8235(8) 0.5463(7) 0.7865(5)
H40_2 H 0.8208 0.5327 0.7438
H41_2 H 0.7516 0.5503 0.7991
H42_2 H 0.8526 0.4956 0.8022
O19_2 O 1.1350(3) 0.7823(2) 0.88020(13)
loop_
_geom_bond_atom_site_label_1
_geom_bond_atom_site_label_2
_geom_bond_site_symmetry_1
_geom_bond_site_symmetry_2
Co1 O1 1_555 1_555
Co2 O1 1_555 1_555
Co3 O4 1_555 1_555
Co4 O3 1_555 1_555
Si1 C1 1_555 1_555
Si2 C29 1_555 1_555
C1 C2 1_555 1_555
C2 H1 1_555 1_555
C3 C2 1_555 1_555
H2 C3 1_555 1_555
C4 C3 1_555 1_555
C5 C4 1_555 1_555
H3 C5 1_555 1_555
C6 C1 1_555 1_555
H4 C6 1_555 1_555
C7 C4 1_555 1_555
O1 C7 1_555 1_555
O2 Co1 1_555 1_555
C8 Si1 1_555 1_555
C9 C8 1_555 1_555
H5 C9 1_555 1_555
C10 C9 1_555 1_555
H6 C10 1_555 1_555
C11 C10 1_555 1_555
C12 C11 1_555 1_555
H7 C12 1_555 1_555
C13 C8 1_555 1_555
H8 C13 1_555 1_555
C14 C11 1_555 1_555
O3 C14 1_555 1_555
O4 C14 1_555 1_555
C15 Si1 1_555 1_555
C16 C15 1_555 1_555
H9 C16 1_555 1_555
C17 C16 1_555 1_555
H10 C17 1_555 1_555
C18 C17 1_555 1_555
C19 C18 1_555 1_555
H11 C19 1_555 1_555
C20 C15 1_555 1_555
H12 C20 1_555 1_555
C21 C18 1_555 1_555
O5 C21 1_555 1_555
O6 C21 1_555 1_555
C22 Si1 1_555 1_555
C23 C22 1_555 1_555
H13 C23 1_555 1_555
C24 C23 1_555 1_555
H14 C24 1_555 1_555
C25 C24 1_555 1_555
C26 C25 1_555 1_555
H15 C26 1_555 1_555
C27 C22 1_555 1_555
H16 C27 1_555 1_555
C28 C25 1_555 1_555
O7 C28 1_555 1_555
O8 C28 1_555 1_555
C29 C30 1_555 1_555
C30 H17 1_555 1_555
C31 C30 1_555 1_555
H18 C31 1_555 1_555
C32 C31 1_555 1_555
C33 C32 1_555 1_555
H19 C33 1_555 1_555
C34 C29 1_555 1_555
H20 C34 1_555 1_555
C35 C32 1_555 1_555
O9 Co2 1_555 1_555
O10 C35 1_555 1_555
C36 Si2 1_555 1_555
C37 C36 1_555 1_555
H21 C37 1_555 1_555
C38 C37 1_555 1_555
H22 C38 1_555 1_555
C39 C38 1_555 1_555
C40 C39 1_555 1_555
H23 C40 1_555 1_555
C41 C36 1_555 1_555
H24 C41 1_555 1_555
C42 C39 1_555 1_555
O11 Co3 1_555 1_555
O12 C42 1_555 1_555
C43 Si2 1_555 1_555
C44 C43 1_555 1_555
H25 C44 1_555 1_555
C45 C44 1_555 1_555
H26 C45 1_555 1_555
C46 C45 1_555 1_555
C47 C46 1_555 1_555
H27 C47 1_555 1_555
C48 C43 1_555 1_555
H28 C48 1_555 1_555
C49 C46 1_555 1_555
O13 C49 1_555 1_555
O14 C49 1_555 1_555
C50 Si2 1_555 1_555
C51 C50 1_555 1_555
H29 C51 1_555 1_555
C52 C51 1_555 1_555
H30 C52 1_555 1_555
C53 C52 1_555 1_555
C54 C53 1_555 1_555
H31 C54 1_555 1_555
C55 C50 1_555 1_555
H32 C55 1_555 1_555
C56 C53 1_555 1_555
O15 C56 1_555 1_555
O16 C56 1_555 1_555
O17 Co1 1_555 1_555
C57 O17 1_555 1_555
H33 C57 1_555 1_555
H34 C57 1_555 1_555
C58 C57 1_555 1_555
H35 C58 1_555 1_555
H36 C58 1_555 1_555
H37 C58 1_555 1_555
O18 Co4 1_555 1_555
C59 O18 1_555 1_555
H38 C59 1_555 1_555
H39 C59 1_555 1_555
C60 C59 1_555 1_555
H40 C60 1_555 1_555
H41 C60 1_555 1_555
H42 C60 1_555 1_555
O19 Co4 1_555 1_555
Co1_2 O1_2 1_555 1_555
Co1_3 O6 1_555 1_555
Co1A O10 1_555 1_555
Co1A_2 O16 1_555 1_555
Co1_4 O16A 1_555 1_555
Co2_2 O5 1_555 1_555
Co2_3 O1_2 1_555 1_555
Co3_2 O13 1_555 1_555
Co3_3 O11A 1_555 1_555
Co3_4 O13A 1_555 1_555
Co4_2 O3_2 1_555 1_555
Co4A O11 1_555 1_555
Co4A_2 O14 1_555 1_555
Co4_3 O11A 1_555 1_555
Co4_4 O14A 1_555 1_555
Si1_2 C1_2 1_555 1_555
Si2A C29A 1_555 1_555
C1_2 C2_2 1_555 1_555
C2_2 H1_2 1_555 1_555
C3_2 C2_2 1_555 1_555
H2_2 C3_2 1_555 1_555
C4_2 C3_2 1_555 1_555
C5_2 C4_2 1_555 1_555
H3_2 C5_2 1_555 1_555
C6_2 C1_2 1_555 1_555
H4_2 C6_2 1_555 1_555
C7_2 C4_2 1_555 1_555
O1_2 C7_2 1_555 1_555
O1A Co2 1_555 1_555
O2_2 Co1_2 1_555 1_555
C8_2 Si1_2 1_555 1_555
C9_2 C8_2 1_555 1_555
H5_2 C9_2 1_555 1_555
C10_2 C9_2 1_555 1_555
H6_2 C10_2 1_555 1_555
C11_2 C10_2 1_555 1_555
C12_2 C11_2 1_555 1_555
H7_2 C12_2 1_555 1_555
C13_2 C8_2 1_555 1_555
H8_2 C13_2 1_555 1_555
C14_2 C11_2 1_555 1_555
O3_2 C14_2 1_555 1_555
O4_2 Co3_2 1_555 1_555
O4A Co3 1_555 1_555
C15_2 Si1_2 1_555 1_555
C16_2 C15_2 1_555 1_555
H9_2 C16_2 1_555 1_555
C17_2 C16_2 1_555 1_555
H10_2 C17_2 1_555 1_555
C18_2 C17_2 1_555 1_555
C19_2 C18_2 1_555 1_555
H11_2 C19_2 1_555 1_555
C20_2 C15_2 1_555 1_555
H12_2 C20_2 1_555 1_555
C21_2 C18_2 1_555 1_555
O5_2 Co2 1_555 1_555
O5A Co2 1_555 1_555
O6_2 Co1 1_555 1_555
O6_3 Co1_2 1_555 1_555
C22_2 Si1_2 1_555 1_555
C23_2 C22_2 1_555 1_555
H13_2 C23_2 1_555 1_555
C24_2 C23_2 1_555 1_555
H14_2 C24_2 1_555 1_555
C25_2 C24_2 1_555 1_555
C26_2 C25_2 1_555 1_555
H15_2 C26_2 1_555 1_555
C27_2 C22_2 1_555 1_555
H16_2 C27_2 1_555 1_555
C28_2 C25_2 1_555 1_555
O7_2 C28_2 1_555 1_555
O8_2 C28_2 1_555 1_555
C29A C30A 1_555 1_555
C30A H17A 1_555 1_555
C31A C30A 1_555 1_555
H18A C31A 1_555 1_555
C32A C31A 1_555 1_555
C33A C32A 1_555 1_555
H19A C33A 1_555 1_555
C34A C29A 1_555 1_555
H20A C34A 1_555 1_555
C35A C32A 1_555 1_555
O9A Co2 1_555 1_555
O10A Co1 1_555 1_555
O10A_2 Co1_2 1_555 1_555
C36A Si2A 1_555 1_555
C37A C36A 1_555 1_555
H21A C37A 1_555 1_555
C38A C37A 1_555 1_555
H22A C38A 1_555 1_555
C39A C38A 1_555 1_555
C40A C39A 1_555 1_555
H23A C40A 1_555 1_555
C41A C36A 1_555 1_555
H24A C41A 1_555 1_555
C42A C39A 1_555 1_555
O11A C42A 1_555 1_555
O11A_2 Co3 1_555 1_555
O11A_3 Co3_2 1_555 1_555
O12A Co4_3 1_555 1_555
O12A_2 Co4 1_555 1_555
O12A_3 Co4_2 1_555 1_555
C43A Si2A 1_555 1_555
C44A C43A 1_555 1_555
H25A C44A 1_555 1_555
C45A C44A 1_555 1_555
H26A C45A 1_555 1_555
C46A C45A 1_555 1_555
C47A C46A 1_555 1_555
H27A C47A 1_555 1_555
C48A C43A 1_555 1_555
H28A C48A 1_555 1_555
C49A C46A 1_555 1_555
O13A C49A 1_555 1_555
O13_2 Co3 1_555 1_555
O13A_2 Co3 1_555 1_555
O14A C49A 1_555 1_555
O14A_2 Co4 1_555 1_555
O14A_3 Co4_2 1_555 1_555
C50A Si2A 1_555 1_555
C51A C50A 1_555 1_555
H29A C51A 1_555 1_555
C52A C51A 1_555 1_555
H30A C52A 1_555 1_555
C53A C52A 1_555 1_555
C54A C53A 1_555 1_555
H31A C54A 1_555 1_555
C55A C50A 1_555 1_555
H32A C55A 1_555 1_555
C56A C53A 1_555 1_555
O15A C56A 1_555 1_555
O16A C56A 1_555 1_555
O16A_2 Co1 1_555 1_555
O16A_3 Co1_2 1_555 1_555
O17_2 Co1_2 1_555 1_555
C57_2 O17_2 1_555 1_555
H33_2 C57_2 1_555 1_555
H34_2 C57_2 1_555 1_555
C58_2 C57_2 1_555 1_555
H35_2 C58_2 1_555 1_555
H36_2 C58_2 1_555 1_555
H37_2 C58_2 1_555 1_555
O18_2 Co4_2 1_555 1_555
C59_2 O18_2 1_555 1_555
H38_2 C59_2 1_555 1_555
H39_2 C59_2 1_555 1_555
C60_2 C59_2 1_555 1_555
H40_2 C60_2 1_555 1_555
H41_2 C60_2 1_555 1_555
H42_2 C60_2 1_555 1_555
O19_2 Co4_2 1_555 1_555
Co4 O11A_2 1_555 1_555
C5 C6 1_555 1_555
C7 O2 1_555 1_555
C12 C13 1_555 1_555
C19 C20 1_555 1_555
C26 C27 1_555 1_555
C33 C34 1_555 1_555
C35 O9 1_555 1_555
C40 C41 1_555 1_555
C42 O11 1_555 1_555
O12 Co4A 1_555 1_555
C47 C48 1_555 1_555
C54 C55 1_555 1_555
Co1A O1A 1_555 1_555
Co4_2 O11A_3 1_555 1_555
C5_2 C6_2 1_555 1_555
C7_2 O2_2 1_555 1_555
C12_2 C13_2 1_555 1_555
C14_2 O4_2 1_555 1_555
C19_2 C20_2 1_555 1_555
C21_2 O5_2 1_555 1_555
C21_2 O6_2 1_555 1_555
C26_2 C27_2 1_555 1_555
C33A C34A 1_555 1_555
C35A O9A 1_555 1_555
C35A O10A 1_555 1_555
C40A C41A 1_555 1_555
C42A O12A 1_555 1_555
C47A C48A 1_555 1_555
C54A C55A 1_555 1_555

#END
