
#######################################################################
#
#                 Cambridge Crystallographic Data Centre
#                                CCDC 
#
#######################################################################
#
# If this CIF has been generated from an entry in the Cambridge 
# Structural Database, then it will include bibliographic, chemical, 
# crystal, experimental, refinement or atomic coordinate data resulting 
# from the CCDC's data processing and validation procedures.
#
#######################################################################

data_QATVUE
_chemical_formula_moiety         '(C24 H18 Cl2 Cu1 N8 O11)n'
_symmetry_cell_setting           tetragonal
_symmetry_space_group_name_H-M   'I -4 2 d'
_symmetry_Int_Tables_number      122
_space_group_name_Hall           'I -4 2bw'
loop_
_symmetry_equiv_pos_site_id
_symmetry_equiv_pos_as_xyz
1 x,y,z
2 -x,-y,z
3 y,-x,-z
4 -y,x,-z
5 1/2-x,y,3/4-z
6 1/2+x,-y,3/4-z
7 1/2-y,-x,3/4+z
8 1/2+y,x,3/4+z
9 1/2+x,1/2+y,1/2+z
10 1/2-x,1/2-y,1/2+z
11 1/2+y,1/2-x,1/2-z
12 1/2-y,1/2+x,1/2-z
13 -x,1/2+y,1/4-z
14 x,1/2-y,1/4-z
15 -y,1/2-x,1/4+z
16 y,1/2+x,1/4+z
_cell_length_a                   17.540(2)
_cell_length_b                   17.540(2)
_cell_length_c                   21.383(6)
_cell_angle_alpha                90
_cell_angle_beta                 90
_cell_angle_gamma                90
_cell_volume                     6578.51
loop_
_atom_site_label
_atom_site_type_symbol
_atom_site_fract_x
_atom_site_fract_y
_atom_site_fract_z
_atom_site_U_iso_or_equiv
_atom_site_thermal_displace_type
Cu1 Cu 0.27912(6) 0.2500 0.1250 0.0366 Uani
O1 O 0.3616(3) 0.0690(3) 0.0037(2) 0.0420 Uani
N1 N 0.3626(3) 0.2626(3) 0.0588(3) 0.0393 Uani
N2 N 0.2941(3) 0.1223(3) 0.0782(3) 0.0370 Uani
N3 N 0.2689(4) 0.0459(3) 0.0712(3) 0.0450 Uani
C1 C 0.3972(5) 0.3298(5) 0.0498(4) 0.0577 Uani
H1 H 0.3824 0.3716 0.0736 0.0690 Uiso
C2 C 0.4541(6) 0.3381(6) 0.0062(5) 0.0780 Uani
H2 H 0.4760 0.3858 0.0004 0.0940 Uiso
C3 C 0.4791(7) 0.2791(6) -0.0283(5) 0.0867 Uani
H3 H 0.5175 0.2856 -0.0578 0.1040 Uiso
C4 C 0.4448(5) 0.2058(5) -0.0185(4) 0.0617 Uani
H4 H 0.4603 0.1630 -0.0408 0.0740 Uiso
C5 C 0.3882(4) 0.2023(4) 0.0252(3) 0.0403 Uani
C6 C 0.3469(4) 0.1302(4) 0.0377(3) 0.0377 Uani
C7 C 0.3084(4) 0.0180(4) 0.0267(3) 0.0393 Uani
C8 C 0.3037(5) -0.0568(4) -0.0027(4) 0.0470 Uani
C9 C 0.2538(6) -0.1112(5) 0.0195(4) 0.0630 Uani
H5 H 0.2254 -0.1030 0.0556 0.0750 Uiso
C10 C 0.3476(5) -0.0755(4) -0.0558(4) 0.0570 Uani
H6 H 0.3843 -0.0418 -0.0707 0.0680 Uiso
N4 N 0.2827(4) -0.1940(3) -0.0654(3) 0.0430 Uani
C11 C 0.2475(7) -0.1775(5) -0.0136(4) 0.0640 Uani
H7 H 0.2149 -0.2144 0.0025 0.0770 Uiso
C12 C 0.3360(5) -0.1423(4) -0.0844(5) 0.0573 Uani
H8 H 0.3658 -0.1541 -0.1191 0.0690 Uiso
Cu1B Cu 0.2500 -0.27912(6) -0.1250 0.0366 Uani
Cu1K Cu 0.2500 0.77912(6) 0.3750 0.0366 Uani
O1M O 0.3616(3) 0.4310(3) 0.2463(2) 0.0420 Uani
N1M N 0.3626(3) 0.2374(3) 0.1912(3) 0.0393 Uani
N2M N 0.2941(3) 0.3777(3) 0.1718(3) 0.0370 Uani
N3M N 0.2689(4) 0.4541(3) 0.1788(3) 0.0450 Uani
C1M C 0.3972(5) 0.1702(5) 0.2002(4) 0.0577 Uani
H1M H 0.3824 0.1284 0.1764 0.0690 Uiso
C2M C 0.4541(6) 0.1619(6) 0.2438(5) 0.0780 Uani
H2M H 0.4760 0.1142 0.2496 0.0940 Uiso
C3M C 0.4791(7) 0.2209(6) 0.2783(5) 0.0867 Uani
H3M H 0.5175 0.2144 0.3078 0.1040 Uiso
C4M C 0.4448(5) 0.2942(5) 0.2685(4) 0.0617 Uani
H4M H 0.4603 0.3370 0.2908 0.0740 Uiso
C5M C 0.3882(4) 0.2977(4) 0.2248(3) 0.0403 Uani
C6M C 0.3469(4) 0.3698(4) 0.2123(3) 0.0377 Uani
C7M C 0.3084(4) 0.4820(4) 0.2233(3) 0.0393 Uani
C8M C 0.3037(5) 0.5568(4) 0.2527(4) 0.0470 Uani
C9M C 0.2538(6) 0.6112(5) 0.2305(4) 0.0630 Uani
H5M H 0.2254 0.6030 0.1944 0.0750 Uiso
C10M C 0.3476(5) 0.5755(4) 0.3058(4) 0.0570 Uani
H6M H 0.3843 0.5418 0.3207 0.0680 Uiso
N4M N 0.2827(4) 0.6940(3) 0.3154(3) 0.0430 Uani
N4C N 0.1940(3) 0.2827(4) 0.0654(3) 0.0430 Uani
N4N N 0.1940(3) 0.2173(4) 0.1846(3) 0.0430 Uani
C11M C 0.2475(7) 0.6775(5) 0.2636(4) 0.0640 Uani
H7M H 0.2149 0.7144 0.2475 0.0770 Uiso
C12M C 0.3360(5) 0.6423(4) 0.3344(5) 0.0573 Uani
H8M H 0.3658 0.6541 0.3691 0.0690 Uiso
Cl1 Cl 0.1263(2) 0.7500 0.1250 0.0731 Uani
O2 O 0.0828(7) 0.7813(6) 0.0788(5) 0.1410 Uani
O3 O 0.1727(6) 0.6954(5) 0.0982(4) 0.1147 Uani
O2M O 0.0828(7) 0.7187(6) 0.1712(5) 0.1410 Uani
O3M O 0.1727(6) 0.8046(5) 0.1518(4) 0.1147 Uani
Cl2 Cl 0.5000 1.0000 0.10609(19) 0.0753 Uani
O4 O 0.4810(10) 0.9375(10) 0.0703(7) 0.2283 Uani
O5 O 0.4343(6) 1.0157(7) 0.1325(6) 0.1437 Uani
O4A O 0.5190(10) 1.0625(10) 0.0703(7) 0.2283 Uani
O5A O 0.5657(6) 0.9843(7) 0.1325(6) 0.1437 Uani
O6 O 0.381(2) 0.7500 0.1250 0.1900 Uani
loop_
_atom_site_aniso_label
_atom_site_aniso_U_11
_atom_site_aniso_U_22
_atom_site_aniso_U_33
_atom_site_aniso_U_23
_atom_site_aniso_U_13
_atom_site_aniso_U_12
Cu1 0.0289(6) 0.0469(7) 0.0339(6) -0.0025(5) 0.000 0.000
O1 0.047(3) 0.037(3) 0.042(3) -0.009(2) 0.004(2) -0.003(2)
N1 0.035(3) 0.044(4) 0.039(3) -0.009(3) 0.003(2) 0.002(3)
N2 0.040(3) 0.037(3) 0.034(3) -0.008(2) 0.004(3) -0.004(2)
N3 0.049(4) 0.040(3) 0.046(3) -0.003(3) 0.003(3) -0.005(3)
C1 0.073(6) 0.042(5) 0.058(5) -0.004(4) 0.014(5) -0.012(4)
C2 0.091(7) 0.057(6) 0.086(7) -0.009(5) 0.043(6) -0.036(5)
C3 0.097(8) 0.080(7) 0.083(7) -0.026(6) 0.052(6) -0.029(6)
C4 0.070(6) 0.052(5) 0.063(5) -0.019(4) 0.029(5) -0.014(4)
C5 0.039(4) 0.043(4) 0.039(4) -0.012(3) 0.003(3) -0.003(3)
C6 0.048(4) 0.030(4) 0.035(3) -0.003(3) -0.003(3) -0.001(3)
C7 0.043(4) 0.039(4) 0.036(3) -0.009(3) 0.001(3) 0.004(3)
C8 0.048(4) 0.045(4) 0.048(4) -0.005(4) -0.009(4) -0.008(3)
C9 0.089(6) 0.050(4) 0.050(4) -0.006(4) 0.032(5) -0.012(5)
C10 0.056(5) 0.045(5) 0.070(5) -0.022(4) 0.019(4) -0.012(4)
N4 0.054(4) 0.035(3) 0.040(3) -0.006(2) 0.003(3) -0.002(3)
C11 0.090(6) 0.050(5) 0.052(4) -0.007(4) 0.020(5) -0.022(5)
C12 0.064(5) 0.043(4) 0.065(5) -0.013(4) 0.027(4) -0.010(4)
Cu1B 0.0469 0.0289 0.0339 0 0.0025 0
Cu1K 0.0469 0.0289 0.0339 0 -0.0025 0
O1M 0.047 0.037 0.042 -0.009 -0.004 0.003
N1M 0.035 0.044 0.039 -0.009 -0.003 -0.002
N2M 0.04 0.037 0.034 -0.008 -0.004 0.004
N3M 0.049 0.04 0.046 -0.003 -0.003 0.005
C1M 0.073 0.042 0.058 -0.004 -0.014 0.012
C2M 0.091 0.057 0.086 -0.009 -0.043 0.036
C3M 0.097 0.08 0.083 -0.026 -0.052 0.029
C4M 0.07 0.052 0.063 -0.019 -0.029 0.014
C5M 0.039 0.043 0.039 -0.012 -0.003 0.003
C6M 0.048 0.03 0.035 -0.003 0.003 0.001
C7M 0.043 0.039 0.036 -0.009 -0.001 -0.004
C8M 0.048 0.045 0.048 -0.005 0.009 0.008
C9M 0.089 0.05 0.05 -0.006 -0.032 0.012
C10M 0.056 0.045 0.07 -0.022 -0.019 0.012
N4M 0.054 0.035 0.04 -0.006 -0.003 0.002
N4C 0.035 0.054 0.04 -0.003 -0.006 0.002
N4N 0.035 0.054 0.04 -0.003 0.006 -0.002
C11M 0.09 0.05 0.052 -0.007 -0.02 0.022
C12M 0.064 0.043 0.065 -0.013 -0.027 0.01
Cl1 0.080(2) 0.093(2) 0.0463(16) -0.0130(18) 0.000 0.000
O2 0.189(11) 0.103(7) 0.131(8) 0.001(6) -0.065(8) 0.034(7)
O3 0.114(7) 0.127(7) 0.103(7) -0.028(6) 0.000(6) 0.036(6)
O2M 0.189 0.103 0.131 0.001 0.065 -0.034
O3M 0.114 0.127 0.103 -0.028 0 -0.036
Cl2 0.0578(19) 0.077(2) 0.091(3) 0.000 0.000 0.0217(16)
O4 0.201(16) 0.262(17) 0.222(15) -0.163(15) 0.069(13) -0.045(13)
O5 0.102(7) 0.152(9) 0.177(10) -0.016(8) 0.064(8) 0.023(6)
O4A 0.201 0.262 0.222 0.163 -0.069 -0.045
O5A 0.102 0.152 0.177 0.016 -0.064 0.023
O6 0.20(4) 0.17(3) 0.20(4) 0.09(3) 0.000 0.000
loop_
_geom_bond_atom_site_label_1
_geom_bond_atom_site_label_2
_geom_bond_site_symmetry_1
_geom_bond_site_symmetry_2
Cu1 N1 1_555 1_555
Cl1 O2 1_555 1_555
Cl2 O4 1_555 1_555
O1 C6 1_555 1_555
O3 Cl1 1_555 1_555
O5 Cl2 1_555 1_555
N1 C1 1_555 1_555
N2 Cu1 1_555 1_555
N3 N2 1_555 1_555
C1 H1 1_555 1_555
C2 C1 1_555 1_555
H2 C2 1_555 1_555
C3 C2 1_555 1_555
H3 C3 1_555 1_555
C4 C3 1_555 1_555
H4 C4 1_555 1_555
C5 N1 1_555 1_555
C6 N2 1_555 1_555
C7 O1 1_555 1_555
C8 C7 1_555 1_555
C9 C8 1_555 1_555
H5 C9 1_555 1_555
C10 C8 1_555 1_555
H6 C10 1_555 1_555
N4 C11 1_555 1_555
C11 C9 1_555 1_555
H7 C11 1_555 1_555
C12 C10 1_555 1_555
H8 C12 1_555 1_555
Cu1B N4 1_555 1_555
Cu1K N4M 1_555 1_555
O1M C6M 1_555 1_555
O2M Cl1 1_555 1_555
O3M Cl1 1_555 1_555
O4A Cl2 1_555 1_555
O5A Cl2 1_555 1_555
N1M Cu1 1_555 1_555
N2M Cu1 1_555 1_555
N3M N2M 1_555 1_555
C1M N1M 1_555 1_555
H1M C1M 1_555 1_555
C2M C1M 1_555 1_555
H2M C2M 1_555 1_555
C3M C2M 1_555 1_555
H3M C3M 1_555 1_555
C4M C3M 1_555 1_555
H4M C4M 1_555 1_555
C5M N1M 1_555 1_555
C6M N2M 1_555 1_555
C7M O1M 1_555 1_555
C8M C7M 1_555 1_555
C9M C8M 1_555 1_555
H5M C9M 1_555 1_555
C10M C8M 1_555 1_555
H6M C10M 1_555 1_555
N4M C11M 1_555 1_555
N4C Cu1 1_555 1_555
N4N Cu1 1_555 1_555
C11M C9M 1_555 1_555
H7M C11M 1_555 1_555
C12M C10M 1_555 1_555
H8M C12M 1_555 1_555
N3 C7 1_555 1_555
C4 C5 1_555 1_555
C5 C6 1_555 1_555
N4 C12 1_555 1_555
N3M C7M 1_555 1_555
C4M C5M 1_555 1_555
C5M C6M 1_555 1_555
N4M C12M 1_555 1_555

#END
