
#######################################################################
#
#                 Cambridge Crystallographic Data Centre
#                                CCDC 
#
#######################################################################
#
# If this CIF has been generated from an entry in the Cambridge 
# Structural Database, then it will include bibliographic, chemical, 
# crystal, experimental, refinement or atomic coordinate data resulting 
# from the CCDC's data processing and validation procedures.
#
#######################################################################

data_EHUCOA
_chemical_formula_moiety         '(C52 H44 Cr2 Mn3 N20 O6)n'
_symmetry_cell_setting           orthorhombic
_symmetry_space_group_name_H-M   'P b a m'
_symmetry_Int_Tables_number      55
_space_group_name_Hall           '-P 2 2ab'
loop_
_symmetry_equiv_pos_site_id
_symmetry_equiv_pos_as_xyz
1 x,y,z
2 -x,-y,z
3 1/2+x,1/2-y,-z
4 1/2-x,1/2+y,-z
5 -x,-y,-z
6 x,y,-z
7 1/2-x,1/2+y,z
8 1/2+x,1/2-y,z
_cell_length_a                   16.7961(4)
_cell_length_b                   18.1575(4)
_cell_length_c                   11.6335(2)
_cell_angle_alpha                90
_cell_angle_beta                 90
_cell_angle_gamma                90
_cell_volume                     3547.93
loop_
_atom_site_label
_atom_site_type_symbol
_atom_site_fract_x
_atom_site_fract_y
_atom_site_fract_z
C1 C 0.1980(5) 0.0977(4) 0.3211(7)
C2 C 0.1613(6) -0.0104(6) 0.5000
C3 C 0.3129(6) 0.0631(6) 0.5000
C4 C 0.2395(5) 0.2050(5) 0.5000
C5 C 0.0811(6) 0.1355(5) 0.5000
C6 C 0.1439(5) -0.2396(4) 0.2456(6)
H1 H 0.1709 -0.2763 0.2858
C7 C 0.1433(5) -0.2431(5) 0.1260(6)
H2 H 0.1691 -0.2813 0.0878
C8 C 0.1038(5) -0.1891(4) 0.0649(6)
C9 C 0.0673(7) -0.1344(6) 0.1275(8)
H3 H 0.0399 -0.0970 0.0898
C10 C 0.0710(6) -0.1349(5) 0.2468(7)
H4 H 0.0464 -0.0971 0.2874
C11 C 0.4565(8) 0.0454(7) 0.2444(9)
H5 H 0.4244 0.0786 0.2839
C12 C 0.4550(8) 0.0473(7) 0.1244(10)
H6 H 0.4229 0.0813 0.0867
C13 C 0.5000 0.0000 0.0631(10)
N1 N 0.1991(6) 0.0954(5) 0.2215(7)
N2 N 0.1455(5) -0.0696(5) 0.5000
N3 N 0.3801(5) 0.0475(5) 0.5000
N4 N 0.2730(5) 0.2612(4) 0.5000
N5 N 0.0175(5) 0.1570(5) 0.5000
N6 N 0.1084(4) -0.1872(3) 0.3049(5)
N7 N 0.5000 0.0000 0.3047(9)
O1 O 0.0638(5) -0.2989(4) 0.5000
O2 O 0.5631(4) 0.1100(4) 0.5000
H7 H 0.5975 0.1268 0.4435
Cr1 Cr 0.19640(9) 0.09904(8) 0.5000
Mn1 Mn 0.10974(8) -0.18434(8) 0.5000
Mn2 Mn 0.5000 0.0000 0.5000
C1E C 0.1980(5) 0.0977(4) 0.6789(7)
C1A C 0.8020(5) -0.0977(4) 0.3211(7)
C1D C 0.8020(5) -0.0977(4) 0.6789(7)
C2A C 0.8387(6) 0.0104(6) 0.5000
C3A C 0.6871(6) -0.0631(6) 0.5000
C4A C 0.7605(5) -0.2050(5) 0.5000
C5A C 0.9189(6) -0.1355(5) 0.5000
C6E C 0.1439(5) -0.2396(4) -0.2456(6)
C6E_2 C 0.1439(5) -0.2396(4) 0.7544(6)
C6_2 C 0.1439(5) -0.2396(4) 1.2456(6)
H1E H 0.1709 -0.2763 -0.2858
H1E_2 H 0.1709 -0.2763 0.7142
H1_2 H 0.1709 -0.2763 1.2858
C7E C 0.1433(5) -0.2431(5) -0.1260(6)
C7E_2 C 0.1433(5) -0.2431(5) 0.8740(6)
C7_2 C 0.1433(5) -0.2431(5) 1.1260(6)
H2E H 0.1691 -0.2813 -0.0878
H2E_2 H 0.1691 -0.2813 0.9122
H2_2 H 0.1691 -0.2813 1.0878
C8E C 0.1038(5) -0.1891(4) -0.0649(6)
C8E_2 C 0.1038(5) -0.1891(4) 0.9351(6)
C8_2 C 0.1038(5) -0.1891(4) 1.0649(6)
C9E C 0.0673(7) -0.1344(6) -0.1275(8)
C9E_2 C 0.0673(7) -0.1344(6) 0.8725(8)
C9_2 C 0.0673(7) -0.1344(6) 1.1275(8)
H3E H 0.0399 -0.0970 -0.0898
H3E_2 H 0.0399 -0.0970 0.9102
H3_2 H 0.0399 -0.0970 1.0898
C10E C 0.0710(6) -0.1349(5) -0.2468(7)
C10E_2 C 0.0710(6) -0.1349(5) 0.7532(7)
C10_2 C 0.0710(6) -0.1349(5) 1.2468(7)
H4E H 0.0464 -0.0971 -0.2874
H4E_2 H 0.0464 -0.0971 0.7126
H4_2 H 0.0464 -0.0971 1.2874
C11A C 0.5435(8) -0.0454(7) 0.2444(9)
C11D C 0.5435(8) -0.0454(7) -0.2444(9)
C11E C 0.4565(8) 0.0454(7) -0.2444(9)
H5A H 0.5756 -0.0786 0.2839
H5D H 0.5756 -0.0786 -0.2839
H5E H 0.4244 0.0786 -0.2839
C12A C 0.5450(8) -0.0473(7) 0.1244(10)
C12D C 0.5450(8) -0.0473(7) -0.1244(10)
C12E C 0.4550(8) 0.0473(7) -0.1244(10)
H6A H 0.5771 -0.0813 0.0867
H6E H 0.4229 0.0813 -0.0867
H6D H 0.5771 -0.0813 -0.0867
C13D C 0.5000 0.0000 -0.0631(10)
N1E N 0.1991(6) 0.0954(5) 0.7785(7)
N1A N 0.8009(6) -0.0954(5) 0.2215(7)
N1D N 0.8009(6) -0.0954(5) 0.7785(7)
N2A N 0.8545(5) 0.0696(5) 0.5000
N3A N 0.6199(5) -0.0475(5) 0.5000
N4A N 0.7270(5) -0.2612(4) 0.5000
N4C N 0.2270(5) -0.2388(4) 0.5000
N4B N 0.7730(5) 0.2388(4) 0.5000
N5A N 0.9825(5) -0.1570(5) 0.5000
N5A_2 N -0.0175(5) -0.1570(5) 0.5000
N5_2 N 1.0175(5) 0.1570(5) 0.5000
N6E N 0.1084(4) -0.1872(3) -0.3049(5)
N6E_2 N 0.1084(4) -0.1872(3) 0.6951(5)
N6_2 N 0.1084(4) -0.1872(3) 1.3049(5)
N6A N 0.8916(4) 0.1872(3) 0.3049(5)
N6D N 0.8916(4) 0.1872(3) 0.6951(5)
N7D N 0.5000 0.0000 -0.3047(9)
N7D_2 N 0.5000 0.0000 0.6953(9)
O1A O 0.9362(5) 0.2989(4) 0.5000
O2A O 0.4369(4) -0.1100(4) 0.5000
H7E H 0.5975 0.1268 0.5565
H7A H 0.4025 -0.1268 0.4435
H7D H 0.4025 -0.1268 0.5565
Cr1A Cr 0.80360(9) -0.09904(8) 0.5000
Mn1A Mn 0.89026(8) 0.18434(8) 0.5000
Mn1C Mn 0.39026(8) 0.31566(8) 0.5000
Mn1A_2 Mn -0.10974(8) 0.18434(8) 0.5000
Mn1_2 Mn 0.10974(8) -0.18434(8) -0.5000
Mn1B Mn 0.60974(8) -0.31566(8) 0.5000
Mn1_3 Mn 1.10974(8) -0.18434(8) 0.5000
Mn1_4 Mn 0.10974(8) -0.18434(8) 1.5000
Mn2_2 Mn 0.5000 0.0000 -0.5000
C14 C 0.6140(11) 0.1969(6) 0.2440(9)
H8 H 0.5865 0.2334 0.2838
C15 C 0.6207(10) 0.2044(6) 0.1259(8)
H9 H 0.5989 0.2451 0.0890
C16 C 0.6594(4) 0.1515(4) 0.0642(6)
C17 C 0.6949(7) 0.0972(7) 0.1260(10)
H10 H 0.7252 0.0615 0.0890
C18 C 0.6859(6) 0.0952(7) 0.2449(10)
H11 H 0.7117 0.0578 0.2849
N8 N 0.6436(5) 0.1422(4) 0.3040(6)
C14E C 0.6140(11) 0.1969(6) -0.2440(9)
H8E H 0.5865 0.2334 -0.2838
C15E C 0.6207(10) 0.2044(6) -0.1259(8)
H9E H 0.5989 0.2451 -0.0890
C16E C 0.6594(4) 0.1515(4) -0.0642(6)
C17E C 0.6949(7) 0.0972(7) -0.1260(10)
H10E H 0.7252 0.0615 -0.0890
C18E C 0.6859(6) 0.0952(7) -0.2449(10)
H11E H 0.7117 0.0578 -0.2849
N8E N 0.6436(5) 0.1422(4) -0.3040(6)
O3 O 0.2815(5) 0.0995(5) 0.0000
H12 H 0.2443 0.1031 0.0625
H12E H 0.2443 0.1031 -0.0625
O4 O 0.0929(8) 0.0499(10) 0.0000
loop_
_geom_bond_atom_site_label_1
_geom_bond_atom_site_label_2
_geom_bond_site_symmetry_1
_geom_bond_site_symmetry_2
C1 N1 1_555 1_555
C2 N2 1_555 1_555
C3 N3 1_555 1_555
C4 N4 1_555 1_555
C5 N5 1_555 1_555
C6 H1 1_555 1_555
C7 C6 1_555 1_555
H2 C7 1_555 1_555
C8 C7 1_555 1_555
C9 C8 1_555 1_555
H3 C9 1_555 1_555
C10 C9 1_555 1_555
H4 C10 1_555 1_555
C11 H5 1_555 1_555
C12 C11 1_555 1_555
H6 C12 1_555 1_555
C13 C12 1_555 1_555
N2 Mn1 1_555 1_555
N3 Mn2 1_555 1_555
N4 Mn1C 1_555 1_555
N5 Mn1A_2 1_555 1_555
N6 C6 1_555 1_555
N7 C11 1_555 1_555
O1 Mn1 1_555 1_555
O2 H7 1_555 1_555
Cr1 C1 1_555 1_555
Mn1 N6 1_555 1_555
Mn2 N7 1_555 1_555
C14 H8 1_555 1_555
C15 C14 1_555 1_555
H9 C15 1_555 1_555
C16 C15 1_555 1_555
C17 C16 1_555 1_555
H10 C17 1_555 1_555
C18 C17 1_555 1_555
H11 C18 1_555 1_555
N8 C14 1_555 1_555
O3 H12 1_555 1_555
C1E Cr1 1_555 1_555
C1A N1A 1_555 1_555
C1D N1D 1_555 1_555
C2A N2A 1_555 1_555
C3A N3A 1_555 1_555
C4A N4A 1_555 1_555
C5A N5A 1_555 1_555
C6E H1E 1_555 1_555
C6E_2 H1E_2 1_555 1_555
C6_2 H1_2 1_555 1_555
C7E C6E 1_555 1_555
C7E_2 C6E_2 1_555 1_555
C7_2 C6_2 1_555 1_555
H2E C7E 1_555 1_555
H2E_2 C7E_2 1_555 1_555
H2_2 C7_2 1_555 1_555
C8E C8 1_555 1_555
C8E_2 C7E_2 1_555 1_555
C8_2 C7_2 1_555 1_555
C9E C8E 1_555 1_555
C9E_2 C8E_2 1_555 1_555
C9_2 C8_2 1_555 1_555
H3E C9E 1_555 1_555
H3E_2 C9E_2 1_555 1_555
H3_2 C9_2 1_555 1_555
C10E C9E 1_555 1_555
C10E_2 C9E_2 1_555 1_555
C10_2 C9_2 1_555 1_555
H4E C10E 1_555 1_555
H4E_2 C10E_2 1_555 1_555
H4_2 C10_2 1_555 1_555
C11A N7 1_555 1_555
C11D H5D 1_555 1_555
C11E H5E 1_555 1_555
H5A C11A 1_555 1_555
C12A C13 1_555 1_555
C12D C11D 1_555 1_555
C12E C11E 1_555 1_555
H6A C12A 1_555 1_555
H6E C12E 1_555 1_555
H6D C12D 1_555 1_555
C13D C13 1_555 1_555
N1E C1E 1_555 1_555
N2A Mn1A 1_555 1_555
N3A Mn2 1_555 1_555
N4A Mn1B 1_555 1_555
N4C Mn1 1_555 1_555
N4B Mn1A 1_555 1_555
N5A Mn1_3 1_555 1_555
N5A_2 Mn1 1_555 1_555
N5_2 Mn1A 1_555 1_555
N6E C6E 1_555 1_555
N6E_2 Mn1 1_555 1_555
N6_2 C6_2 1_555 1_555
N6A Mn1A 1_555 1_555
N6D Mn1A 1_555 1_555
N7D C11D 1_555 1_555
N7D_2 Mn2 1_555 1_555
O1A Mn1A 1_555 1_555
O2A Mn2 1_555 1_555
H7E O2 1_555 1_555
H7A O2A 1_555 1_555
H7D O2A 1_555 1_555
Cr1A C1A 1_555 1_555
Mn1_2 N6E 1_555 1_555
Mn1_4 N6_2 1_555 1_555
Mn2_2 N7D 1_555 1_555
C14E H8E 1_555 1_555
C15E C14E 1_555 1_555
H9E C15E 1_555 1_555
C16E C16 1_555 1_555
C17E C16E 1_555 1_555
H10E C17E 1_555 1_555
C18E C17E 1_555 1_555
H11E C18E 1_555 1_555
N8E C14E 1_555 1_555
H12E O3 1_555 1_555
C2 Cr1 1_555 1_555
C3 Cr1 1_555 1_555
C4 Cr1 1_555 1_555
C5 Cr1 1_555 1_555
C10 N6 1_555 1_555
O2 Mn2 1_555 1_555
C18 N8 1_555 1_555
C1D Cr1A 1_555 1_555
C2A Cr1A 1_555 1_555
C3A Cr1A 1_555 1_555
C4A Cr1A 1_555 1_555
C5A Cr1A 1_555 1_555
C6E_2 N6E_2 1_555 1_555
C7E C8E 1_555 1_555
C8E_2 C8_2 1_555 1_555
C10E N6E 1_555 1_555
C10E_2 N6E_2 1_555 1_555
C10_2 N6_2 1_555 1_555
C11A C12A 1_555 1_555
C11E N7D 1_555 1_555
C12D C13D 1_555 1_555
C12E C13D 1_555 1_555
C15E C16E 1_555 1_555
C18E N8E 1_555 1_555

#END
