
#######################################################################
#
#                 Cambridge Crystallographic Data Centre
#                                CCDC 
#
#######################################################################
#
# If this CIF has been generated from an entry in the Cambridge 
# Structural Database, then it will include bibliographic, chemical, 
# crystal, experimental, refinement or atomic coordinate data resulting 
# from the CCDC's data processing and validation procedures.
#
#######################################################################

data_LODPUR
_chemical_formula_moiety         '(C45 H37 N13 O6 Zn2)n'
_symmetry_cell_setting           triclinic
_symmetry_space_group_name_H-M   'P -1'
_symmetry_Int_Tables_number      2
_space_group_name_Hall           '-P 1'
loop_
_symmetry_equiv_pos_site_id
_symmetry_equiv_pos_as_xyz
1 x,y,z
2 -x,-y,-z
_cell_length_a                   7.8005(2)
_cell_length_b                   11.2947(3)
_cell_length_c                   13.1552(4)
_cell_angle_alpha                82.719(2)
_cell_angle_beta                 80.499(2)
_cell_angle_gamma                83.194(2)
_cell_volume                     1128.26
loop_
_atom_site_label
_atom_site_type_symbol
_atom_site_fract_x
_atom_site_fract_y
_atom_site_fract_z
Zn1 Zn 0.71638(5) 0.76470(4) 0.73578(3)
O1 O 0.6258(3) 0.8813(2) 0.9253(2)
O2 O 0.8567(3) 0.8490(2) 0.80534(18)
C1 C 0.4759(5) 0.9854(3) 0.7119(3)
H1 H 0.5286 1.0209 0.7572
C2 C 0.4188(4) 0.8610(3) 0.6143(3)
H2 H 0.4256 0.7933 0.5797
C3 C 0.2939(4) 0.9555(3) 0.6091(3)
C4 C 0.1429(4) 0.9782(3) 0.5538(3)
C5 C 0.1478(5) 0.9314(4) 0.4605(3)
H3 H 0.2478 0.8854 0.4335
C6 C -0.0078(5) 1.0481(4) 0.5925(3)
H4 H -0.0134 1.0808 0.6545
C7 C 0.8865(5) 0.6928(3) 0.5287(3)
H5 H 0.7890 0.7224 0.4978
C8 C 1.0589(4) 0.6400(3) 0.6410(3)
H6 H 1.1019 0.6268 0.7037
C9 C 1.1493(4) 0.6112(3) 0.5493(3)
C10 C 1.3285(4) 0.5542(3) 0.5228(3)
C11 C 1.4064(5) 0.4800(4) 0.5977(3)
H7 H 1.3440 0.4652 0.6639
C12 C 1.4231(5) 0.5730(4) 0.4242(3)
H8 H 1.3723 0.6214 0.3723
C13 C 0.6121(4) 0.5183(3) 0.8182(3)
H9 H 0.7178 0.4792 0.7903
C14 C 0.4083(4) 0.6556(3) 0.8627(3)
H10 H 0.3480 0.7306 0.8714
C15 C 0.3419(4) 0.5485(3) 0.8955(3)
C16 C 0.1684(4) 0.5221(3) 0.9489(3)
C17 C 0.0267(4) 0.6095(3) 0.9436(3)
H11 H 0.0439 0.6836 0.9057
C18 C 0.1388(5) 0.4123(3) 1.0062(3)
H12 H 0.2313 0.3528 1.0108
C19 C 0.7805(5) 0.8900(3) 0.8897(3)
C20 C 0.8951(4) 0.9485(3) 0.9452(3)
C21 C 1.0737(5) 0.9431(3) 0.9139(3)
H13 H 1.1237 0.9057 0.8554
C22 C 0.8213(5) 1.0073(3) 1.0314(3)
H14 H 0.7009 1.0132 1.0521
N1 N 0.5336(4) 0.8801(3) 0.6780(2)
N2 N 0.3324(4) 1.0345(3) 0.6728(2)
N3 N 0.8938(4) 0.6916(3) 0.6282(2)
N4 N 1.0377(4) 0.6459(3) 0.4778(2)
H15 H 1.0606 0.6389 0.4124
N5 N 0.5791(4) 0.6357(3) 0.8144(2)
N6 N 0.4751(4) 0.4623(3) 0.8671(2)
H16 H 0.4710 0.3860 0.8786
O1A O 1.3742(3) 1.1187(2) 1.0747(2)
O2A O 1.1433(3) 1.1510(2) 1.19466(18)
C19A C 1.2195(5) 1.1100(3) 1.1103(3)
C20A C 1.1049(4) 1.0515(3) 1.0548(3)
C21A C 0.9263(5) 1.0569(3) 1.0861(3)
H13A H 0.8763 1.0943 1.1446
C22A C 1.1787(5) 0.9927(3) 0.9686(3)
H14A H 1.2991 0.9868 0.9479
C1A C -0.4759(5) 1.0146(3) 0.2881(3)
H1A H -0.5286 0.9791 0.2428
C2A C -0.4188(4) 1.1390(3) 0.3857(3)
H2A H -0.4256 1.2067 0.4203
C3A C -0.2939(4) 1.0445(3) 0.3909(3)
C4A C -0.1429(4) 1.0218(3) 0.4462(3)
C5A C -0.1478(5) 1.0686(4) 0.5395(3)
H3A H -0.2478 1.1146 0.5665
C6A C 0.0078(5) 0.9519(4) 0.4075(3)
H4A H 0.0134 0.9192 0.3455
N1A N -0.5336(4) 1.1199(3) 0.3220(2)
N2A N -0.3324(4) 0.9655(3) 0.3272(2)
C7A C 2.1135(5) 0.3072(3) 0.4713(3)
H5A H 2.2110 0.2776 0.5022
C8A C 1.9411(4) 0.3600(3) 0.3590(3)
H6A H 1.8981 0.3732 0.2963
C9A C 1.8507(4) 0.3888(3) 0.4507(3)
C10A C 1.6715(4) 0.4458(3) 0.4772(3)
C11A C 1.5936(5) 0.5200(4) 0.4023(3)
H7A H 1.6560 0.5348 0.3361
C12A C 1.5769(5) 0.4270(4) 0.5758(3)
H8A H 1.6277 0.3786 0.6277
N3A N 2.1062(4) 0.3084(3) 0.3718(2)
N4A N 1.9623(4) 0.3541(3) 0.5222(2)
H15A H 1.9394 0.3611 0.5876
C13A C -0.6121(4) 0.4817(3) 1.1818(3)
H9A H -0.7178 0.5208 1.2097
C14A C -0.4083(4) 0.3444(3) 1.1373(3)
H10A H -0.3480 0.2694 1.1286
C15A C -0.3419(4) 0.4515(3) 1.1045(3)
C16A C -0.1684(4) 0.4779(3) 1.0511(3)
C17A C -0.0267(4) 0.3905(3) 1.0564(3)
H11A H -0.0439 0.3164 1.0943
C18A C -0.1388(5) 0.5877(3) 0.9938(3)
H12A H -0.2313 0.6472 0.9892
N5A N -0.5791(4) 0.3643(3) 1.1856(2)
N6A N -0.4751(4) 0.5377(3) 1.1329(2)
H16A H -0.4710 0.6140 1.1214
Zn1A Zn -0.71638(5) 0.23530(4) 1.26422(3)
Zn1A_2 Zn -0.71638(5) 1.23530(4) 0.26422(3)
Zn1A_3 Zn 1.28362(5) 1.23530(4) 1.26422(3)
Zn1A_4 Zn 2.28362(5) 0.23530(4) 0.26422(3)
O2A_2 O -0.8567(3) 0.1510(2) 1.19466(18)
N1A_2 N -0.5336(4) 0.1199(3) 1.3220(2)
N3A_2 N -0.8938(4) 0.3084(3) 1.3718(2)
O3 O 0.0830(5) 0.6635(4) 0.2705(2)
N7 N -0.1764(4) 0.7571(3) 0.2562(3)
H17 H -0.2096 0.7546 0.3220
H18 H -0.2460 0.7904 0.2141
C23 C -0.0317(7) 0.7138(5) 0.2226(4)
H19 H -0.0042 0.7197 0.1508
O4 O 0.4515(4) 0.2190(3) 0.8636(2)
loop_
_geom_bond_atom_site_label_1
_geom_bond_atom_site_label_2
_geom_bond_site_symmetry_1
_geom_bond_site_symmetry_2
Zn1 O2 1_555 1_555
O1 C19 1_555 1_555
O2 C19 1_555 1_555
C1 H1 1_555 1_555
C2 H2 1_555 1_555
C3 C2 1_555 1_555
C4 C3 1_555 1_555
C5 C4 1_555 1_555
H3 C5 1_555 1_555
C6 C4 1_555 1_555
H4 C6 1_555 1_555
C7 H5 1_555 1_555
C8 H6 1_555 1_555
C9 C8 1_555 1_555
C10 C9 1_555 1_555
C11 C10 1_555 1_555
H7 C11 1_555 1_555
C12 C10 1_555 1_555
H8 C12 1_555 1_555
C13 H9 1_555 1_555
C14 H10 1_555 1_555
C15 C14 1_555 1_555
C16 C15 1_555 1_555
C17 C16 1_555 1_555
H11 C17 1_555 1_555
C18 C16 1_555 1_555
H12 C18 1_555 1_555
C19 C20 1_555 1_555
C20 C21 1_555 1_555
C21 H13 1_555 1_555
C22 C20 1_555 1_555
H14 C22 1_555 1_555
N1 Zn1 1_555 1_555
N2 C1 1_555 1_555
N3 Zn1 1_555 1_555
N4 C7 1_555 1_555
H15 N4 1_555 1_555
N5 Zn1 1_555 1_555
N6 C13 1_555 1_555
H16 N6 1_555 1_555
O3 C23 1_555 1_555
N7 H17 1_555 1_555
H18 N7 1_555 1_555
C23 N7 1_555 1_555
H19 C23 1_555 1_555
O1A C19A 1_555 1_555
O2A C19A 1_555 1_555
C19A C20A 1_555 1_555
C20A C21A 1_555 1_555
C21A C22 1_555 1_555
H13A C21A 1_555 1_555
C22A C21 1_555 1_555
H14A C22A 1_555 1_555
C1A H1A 1_555 1_555
C2A H2A 1_555 1_555
C3A C2A 1_555 1_555
C4A C3A 1_555 1_555
C5A C6 1_555 1_555
H3A C5A 1_555 1_555
C6A C5 1_555 1_555
H4A C6A 1_555 1_555
N1A C1A 1_555 1_555
N2A C1A 1_555 1_555
C7A H5A 1_555 1_555
C8A H6A 1_555 1_555
C9A C8A 1_555 1_555
C10A C9A 1_555 1_555
C11A C12 1_555 1_555
H7A C11A 1_555 1_555
C12A C11 1_555 1_555
H8A C12A 1_555 1_555
N3A C7A 1_555 1_555
N4A C7A 1_555 1_555
H15A N4A 1_555 1_555
C13A H9A 1_555 1_555
C14A H10A 1_555 1_555
C15A C14A 1_555 1_555
C16A C15A 1_555 1_555
C17A C18 1_555 1_555
H11A C17A 1_555 1_555
C18A C17 1_555 1_555
H12A C18A 1_555 1_555
N5A C13A 1_555 1_555
N6A C13A 1_555 1_555
H16A N6A 1_555 1_555
Zn1A N5A 1_555 1_555
Zn1A_2 N1A 1_555 1_555
Zn1A_3 O2A 1_555 1_555
Zn1A_4 N3A 1_555 1_555
O2A_2 Zn1A 1_555 1_555
N1A_2 Zn1A 1_555 1_555
N3A_2 Zn1A 1_555 1_555
C1 N1 1_555 1_555
C2 N1 1_555 1_555
C3 N2 1_555 1_555
C7 N3 1_555 1_555
C8 N3 1_555 1_555
C9 N4 1_555 1_555
C13 N5 1_555 1_555
C14 N5 1_555 1_555
C15 N6 1_555 1_555
C20A C22A 1_555 1_555
C2A N1A 1_555 1_555
C3A N2A 1_555 1_555
C4A C5A 1_555 1_555
C4A C6A 1_555 1_555
C8A N3A 1_555 1_555
C9A N4A 1_555 1_555
C10A C11A 1_555 1_555
C10A C12A 1_555 1_555
C14A N5A 1_555 1_555
C15A N6A 1_555 1_555
C16A C17A 1_555 1_555
C16A C18A 1_555 1_555

#END
