
#######################################################################
#
#                 Cambridge Crystallographic Data Centre
#                                CCDC 
#
#######################################################################
#
# If this CIF has been generated from an entry in the Cambridge 
# Structural Database, then it will include bibliographic, chemical, 
# crystal, experimental, refinement or atomic coordinate data resulting 
# from the CCDC's data processing and validation procedures.
#
#######################################################################

data_LODPOL
_chemical_formula_moiety         '(C40 H28 N8 O8 Zn2)n'
_symmetry_cell_setting           monoclinic
_symmetry_space_group_name_H-M   'P 21/n'
_symmetry_Int_Tables_number      14
_space_group_name_Hall           '-P 2yn'
loop_
_symmetry_equiv_pos_site_id
_symmetry_equiv_pos_as_xyz
1 x,y,z
2 1/2-x,1/2+y,1/2-z
3 -x,-y,-z
4 1/2+x,1/2-y,1/2+z
_cell_length_a                   11.608(3)
_cell_length_b                   15.781(4)
_cell_length_c                   14.682(4)
_cell_angle_alpha                90
_cell_angle_beta                 90.824(18)
_cell_angle_gamma                90
_cell_volume                     2689.26
loop_
_atom_site_label
_atom_site_type_symbol
_atom_site_fract_x
_atom_site_fract_y
_atom_site_fract_z
Zn1 Zn 0.75287(4) 0.24505(3) 0.33075(3)
N1 N 0.6428(3) 0.2880(2) 0.2340(2)
C1 C 0.5732(5) 0.2418(3) 0.1854(4)
H1 H 0.5577 0.1850 0.1968
N2 N 0.5266(4) 0.2860(2) 0.1168(3)
H2 H 0.4798 0.2666 0.0760
C2 C 0.5660(4) 0.3675(3) 0.1226(3)
C3 C 0.6386(4) 0.3687(3) 0.1950(3)
H3 H 0.6794 0.4158 0.2158
C4 C 0.5297(4) 0.4347(3) 0.0612(3)
C5 C 0.4470(5) 0.4241(3) -0.0049(3)
H4 H 0.4092 0.3723 -0.0091
C6 C 0.5824(5) 0.5131(3) 0.0652(3)
H5 H 0.6388 0.5234 0.1095
O1 O 0.6467(3) 0.0905(2) 0.3039(2)
O2 O 0.6715(3) 0.1798(2) 0.4204(2)
C7 C 0.6312(4) 0.1110(4) 0.3842(4)
C8 C 0.5624(4) 0.0530(3) 0.4450(4)
C9 C 0.5242(5) -0.0224(4) 0.4136(4)
H6 H 0.5398 -0.0383 0.3541
C10 C 0.5366(5) 0.0756(4) 0.5327(4)
H7 H 0.5610 0.1277 0.5554
O3 O 0.8158(3) 0.35484(17) 0.36971(19)
O4 O 0.8939(4) 0.2834(2) 0.4791(3)
C11 C 0.8809(4) 0.3497(3) 0.4379(3)
C12 C 0.9396(4) 0.4278(3) 0.4701(3)
C13 C 0.9635(7) 0.4926(4) 0.4137(4)
H8 H 0.9367 0.4901 0.3537
C14 C 0.9737(7) 0.4373(4) 0.5585(4)
H9 H 0.9545 0.3960 0.6009
N3 N 0.8764(4) 0.1905(2) 0.2596(2)
C15 C 0.8611(5) 0.1248(3) 0.1960(3)
H10 H 0.7935 0.0940 0.1876
C16 C 0.9592(6) 0.1128(4) 0.1488(4)
N4 N 1.0334(5) 0.1728(4) 0.1802(4)
H11 H 1.1025 0.1812 0.1619
C17 C 0.9779(7) 0.2171(4) 0.2462(5)
H12 H 1.0110 0.2622 0.2780
C18 C 0.9844(6) 0.0560(4) 0.0731(4)
C19 C 0.9081(6) -0.0125(4) 0.0555(4)
H13 H 0.8443 -0.0200 0.0923
C20 C 1.0731(6) 0.0679(4) 0.0147(5)
H14 H 1.1217 0.1143 0.0225
N1B N 0.3572(3) 0.7120(2) -0.2340(2)
C1B C 0.4268(5) 0.7582(3) -0.1854(4)
H1B H 0.4423 0.8150 -0.1968
N2B N 0.4734(4) 0.7140(2) -0.1168(3)
H2B H 0.5202 0.7334 -0.0760
C2B C 0.4340(4) 0.6325(3) -0.1226(3)
C3B C 0.3614(4) 0.6313(3) -0.1950(3)
H3B H 0.3206 0.5842 -0.2158
C4B C 0.4703(4) 0.5653(3) -0.0612(3)
C5B C 0.5530(5) 0.5759(3) 0.0049(3)
H4B H 0.5908 0.6277 0.0091
C6B C 0.4176(5) 0.4869(3) -0.0652(3)
H5B H 0.3612 0.4766 -0.1095
O1B O 0.3533(3) -0.0905(2) 0.6961(2)
O2B O 0.3285(3) -0.1798(2) 0.5796(2)
C7B C 0.3688(4) -0.1110(4) 0.6158(4)
C8B C 0.4376(4) -0.0530(3) 0.5550(4)
C9B C 0.4758(5) 0.0224(4) 0.5864(4)
H6B H 0.4602 0.0383 0.6459
C10B C 0.4634(5) -0.0756(4) 0.4673(4)
H7B H 0.4390 -0.1277 0.4446
O3B O 1.1842(3) 0.64516(17) 0.63029(19)
O4B O 1.1061(4) 0.7166(2) 0.5209(3)
C11B C 1.1191(4) 0.6503(3) 0.5621(3)
C12B C 1.0604(4) 0.5722(3) 0.5299(3)
C13B C 1.0365(7) 0.5074(4) 0.5863(4)
H8B H 1.0633 0.5099 0.6463
C14B C 1.0263(7) 0.5627(4) 0.4415(4)
H9B H 1.0455 0.6040 0.3991
N3B N 1.1236(4) -0.1905(2) -0.2596(2)
C15B C 1.1389(5) -0.1248(3) -0.1960(3)
H10B H 1.2065 -0.0940 -0.1876
C16B C 1.0408(6) -0.1128(4) -0.1488(4)
N4B N 0.9666(5) -0.1728(4) -0.1802(4)
H11B H 0.8975 -0.1812 -0.1619
C17B C 1.0221(7) -0.2171(4) -0.2462(5)
H12B H 0.9890 -0.2622 -0.2780
C18B C 1.0156(6) -0.0560(4) -0.0731(4)
C19B C 1.0919(6) 0.0125(4) -0.0555(4)
H13B H 1.1557 0.0200 -0.0923
C20B C 0.9269(6) -0.0679(4) -0.0147(5)
H14B H 0.8783 -0.1143 -0.0225
Zn1B Zn 0.24713(4) -0.24505(3) 0.66925(3)
Zn1B_2 Zn 0.24713(4) 0.75495(3) -0.33075(3)
Zn1B_3 Zn 1.24713(4) -0.24505(3) -0.33075(3)
Zn1B_4 Zn 1.24713(4) 0.75495(3) 0.66925(3)
N1B_2 N 0.3572(3) -0.2880(2) 0.7660(2)
O3B_2 O 0.1842(3) -0.35484(17) 0.63029(19)
N3B_2 N 0.1236(4) -0.1905(2) 0.7404(2)
loop_
_geom_bond_atom_site_label_1
_geom_bond_atom_site_label_2
_geom_bond_site_symmetry_1
_geom_bond_site_symmetry_2
Zn1 N1 1_555 1_555
N1 C1 1_555 1_555
C1 H1 1_555 1_555
N2 C1 1_555 1_555
H2 N2 1_555 1_555
C2 N2 1_555 1_555
C3 N1 1_555 1_555
H3 C3 1_555 1_555
C4 C2 1_555 1_555
C5 C4 1_555 1_555
H4 C5 1_555 1_555
C6 C4 1_555 1_555
H5 C6 1_555 1_555
O1 C7 1_555 1_555
O2 Zn1 1_555 1_555
C7 O2 1_555 1_555
C8 C7 1_555 1_555
C9 C8 1_555 1_555
H6 C9 1_555 1_555
C10 C8 1_555 1_555
H7 C10 1_555 1_555
O3 Zn1 1_555 1_555
O4 C11 1_555 1_555
C11 O3 1_555 1_555
C12 C11 1_555 1_555
C13 C12 1_555 1_555
H8 C13 1_555 1_555
C14 C12 1_555 1_555
H9 C14 1_555 1_555
N3 Zn1 1_555 1_555
C15 N3 1_555 1_555
H10 C15 1_555 1_555
C16 C15 1_555 1_555
N4 C16 1_555 1_555
H11 N4 1_555 1_555
C17 N3 1_555 1_555
H12 C17 1_555 1_555
C18 C16 1_555 1_555
C19 C18 1_555 1_555
H13 C19 1_555 1_555
C20 C18 1_555 1_555
H14 C20 1_555 1_555
N1B C1B 1_555 1_555
C1B H1B 1_555 1_555
N2B C1B 1_555 1_555
H2B N2B 1_555 1_555
C2B N2B 1_555 1_555
C3B N1B 1_555 1_555
H3B C3B 1_555 1_555
C4B C2B 1_555 1_555
C5B C6 1_555 1_555
H4B C5B 1_555 1_555
C6B C5 1_555 1_555
H5B C6B 1_555 1_555
O1B C7B 1_555 1_555
O2B C7B 1_555 1_555
C7B C8B 1_555 1_555
C8B C9B 1_555 1_555
C9B C10 1_555 1_555
H6B C9B 1_555 1_555
C10B C9 1_555 1_555
H7B C10B 1_555 1_555
O3B C11B 1_555 1_555
O4B C11B 1_555 1_555
C11B C12B 1_555 1_555
C12B C13B 1_555 1_555
C13B C14 1_555 1_555
H8B C13B 1_555 1_555
C14B C13 1_555 1_555
H9B C14B 1_555 1_555
N3B C15B 1_555 1_555
C15B H10B 1_555 1_555
C16B C15B 1_555 1_555
N4B C16B 1_555 1_555
H11B N4B 1_555 1_555
C17B N3B 1_555 1_555
H12B C17B 1_555 1_555
C18B C16B 1_555 1_555
C19B C20 1_555 1_555
H13B C19B 1_555 1_555
C20B C19 1_555 1_555
H14B C20B 1_555 1_555
Zn1B O2B 1_555 1_555
Zn1B_2 N1B 1_555 1_555
Zn1B_3 N3B 1_555 1_555
Zn1B_4 O3B 1_555 1_555
N1B_2 Zn1B 1_555 1_555
O3B_2 Zn1B 1_555 1_555
N3B_2 Zn1B 1_555 1_555
C2 C3 1_555 1_555
N4 C17 1_555 1_555
C2B C3B 1_555 1_555
C4B C5B 1_555 1_555
C4B C6B 1_555 1_555
C8B C10B 1_555 1_555
C12B C14B 1_555 1_555
N4B C17B 1_555 1_555
C18B C19B 1_555 1_555
C18B C20B 1_555 1_555

#END
