
#######################################################################
#
#                 Cambridge Crystallographic Data Centre
#                                CCDC 
#
#######################################################################
#
# If this CIF has been generated from an entry in the Cambridge 
# Structural Database, then it will include bibliographic, chemical, 
# crystal, experimental, refinement or atomic coordinate data resulting 
# from the CCDC's data processing and validation procedures.
#
#######################################################################

data_LODQAY
_chemical_formula_moiety         '(C40 H28 N8 O8 Zn2)n'
_symmetry_cell_setting           monoclinic
_symmetry_space_group_name_H-M   'P 21/c'
_symmetry_Int_Tables_number      14
_space_group_name_Hall           '-P 2ybc'
loop_
_symmetry_equiv_pos_site_id
_symmetry_equiv_pos_as_xyz
1 x,y,z
2 -x,1/2+y,1/2-z
3 -x,-y,-z
4 x,1/2-y,1/2+z
_cell_length_a                   11.8037(6)
_cell_length_b                   20.4941(11)
_cell_length_c                   13.6817(7)
_cell_angle_alpha                90
_cell_angle_beta                 96.031(3)
_cell_angle_gamma                90
_cell_volume                     3291.37
loop_
_atom_site_label
_atom_site_type_symbol
_atom_site_fract_x
_atom_site_fract_y
_atom_site_fract_z
Zn1 Zn 0.7833(3) 0.63568(16) 0.2741(4)
N1 N 0.6734(3) 0.69193(15) 0.1855(3)
C1 C 0.7028(3) 0.7401(2) 0.1273(3)
H1 H 0.7756 0.7570 0.1255
N2 N 0.6056(3) 0.76016(15) 0.0705(2)
H2 H 0.6024 0.7905 0.0269
C2 C 0.5159(3) 0.7245(2) 0.0942(3)
C3 C 0.5607(3) 0.68363(19) 0.1673(3)
H3 H 0.5185 0.6540 0.2000
C4 C 0.4024(4) 0.73462(19) 0.0524(3)
C5 C 0.3739(3) 0.7733(2) -0.0324(3)
H4 H 0.4329 0.7923 -0.0624
C6 C 0.2620(4) 0.7846(2) -0.0735(3)
H5 H 0.2473 0.8104 -0.1293
C7 C 0.1730(3) 0.75630(19) -0.0292(3)
C8 C 0.1964(4) 0.7171(2) 0.0518(3)
H6 H 0.1367 0.6973 0.0798
C9 C 0.3062(3) 0.7065(2) 0.0922(3)
H7 H 0.3186 0.6801 0.1475
C10 C 0.0577(3) 0.76952(17) -0.0666(2)
C11 C 0.0111(3) 0.81399(19) -0.1370(3)
H8 H 0.0540 0.8411 -0.1733
N3 N -0.0401(2) 0.74332(14) -0.0340(2)
H9 H -0.0400 0.7144 0.0116
O1 O 0.6863(2) 0.57288(11) 0.33354(18)
O2 O 0.6305(3) 0.65209(12) 0.4250(2)
C12 C 0.6332(3) 0.59418(17) 0.4031(3)
C13 C 0.5632(3) 0.54474(18) 0.4516(2)
C14 C 0.4980(5) 0.5631(2) 0.5265(3)
H10 H 0.4975 0.6066 0.5457
C15 C 0.5648(4) 0.48098(18) 0.4279(3)
H11 H 0.6093 0.4669 0.3798
O3 O 0.8612(2) 0.57414(12) 0.19440(18)
O4 O 0.9281(2) 0.65695(12) 0.11242(18)
C16 C 0.9170(3) 0.59765(19) 0.1269(3)
C17 C 0.9598(3) 0.54748(17) 0.0602(2)
C18 C 1.0087(4) 0.56434(19) -0.0200(3)
H12 H 1.0168 0.6082 -0.0354
C19 C 0.9522(4) 0.4839(2) 0.0812(4)
H13 H 0.9202 0.4714 0.1376
N4 N -0.1077(2) 0.81275(14) -0.1463(2)
C20 C -0.1321(3) 0.76786(18) -0.0809(3)
H14 H -0.2056 0.7556 -0.0701
O1B O 0.3137(2) 0.42712(11) 0.66646(18)
O2B O 0.3695(3) 0.34791(12) 0.5750(2)
C12B C 0.3668(3) 0.40582(17) 0.5969(3)
C13B C 0.4368(3) 0.45526(18) 0.5484(2)
C14B C 0.5020(5) 0.4369(2) 0.4735(3)
H10B H 0.5025 0.3934 0.4543
C15B C 0.4352(4) 0.51902(18) 0.5721(3)
H11B H 0.3907 0.5331 0.6202
O3B O 1.1388(2) 0.42586(12) -0.19440(18)
O4B O 1.0719(2) 0.34305(12) -0.11242(18)
C16B C 1.0830(3) 0.40235(19) -0.1269(3)
C17B C 1.0402(3) 0.45252(17) -0.0602(2)
C18B C 0.9913(4) 0.43566(19) 0.0200(3)
H12B H 0.9832 0.3918 0.0354
C19B C 1.0478(4) 0.5161(2) -0.0812(4)
H13B H 1.0798 0.5286 -0.1376
Zn1B Zn 0.2167(3) 0.36432(16) 0.7259(4)
N1B N 0.3266(3) 0.30807(15) 0.8145(3)
C1B C 0.2972(3) 0.2599(2) 0.8727(3)
H1B H 0.2244 0.2430 0.8745
N2B N 0.3944(3) 0.23984(15) 0.9295(2)
H2B H 0.3976 0.2095 0.9731
C2B C 0.4841(3) 0.2755(2) 0.9058(3)
C3B C 0.4393(3) 0.31637(19) 0.8327(3)
H3B H 0.4815 0.3460 0.8000
C4B C 0.5976(4) 0.26538(19) 0.9476(3)
C5B C 0.6261(3) 0.2267(2) 1.0324(3)
H4B H 0.5671 0.2077 1.0624
C6B C 0.7380(4) 0.2154(2) 1.0735(3)
H5B H 0.7527 0.1896 1.1293
C7B C 0.8270(3) 0.24370(19) 1.0292(3)
C8B C 0.8036(4) 0.2829(2) 0.9482(3)
H6B H 0.8633 0.3027 0.9202
C9B C 0.6938(3) 0.2935(2) 0.9078(3)
H7B H 0.6814 0.3199 0.8525
C10B C 0.9423(3) 0.23048(17) 1.0666(2)
C11B C 0.9889(3) 0.18601(19) 1.1370(3)
H8B H 0.9460 0.1589 1.1733
N3B N 1.0401(2) 0.25668(14) 1.0340(2)
H9B H 1.0400 0.2856 0.9884
N4B N 1.1077(2) 0.18725(14) 1.1463(2)
C20B C 1.1321(3) 0.23214(18) 1.0809(3)
H14B H 1.2056 0.2444 1.0701
Zn1A Zn 1.2167(3) 0.13568(16) 1.2259(4)
Zn1B_2 Zn 1.2167(3) 0.36432(16) -0.2741(4)
Zn1C Zn -0.2167(3) 0.86432(16) -0.2259(4)
O3B_2 O 0.1388(2) 0.42586(12) 0.80560(18)
N4A N 0.1077(2) 0.31275(14) 0.6463(2)
N4C N 0.8923(2) 0.68725(14) 0.3537(2)
loop_
_geom_bond_atom_site_label_1
_geom_bond_atom_site_label_2
_geom_bond_site_symmetry_1
_geom_bond_site_symmetry_2
Zn1 N1 1_555 1_555
N1 C1 1_555 1_555
C1 H1 1_555 1_555
N2 C1 1_555 1_555
H2 N2 1_555 1_555
C2 N2 1_555 1_555
C3 N1 1_555 1_555
H3 C3 1_555 1_555
C4 C2 1_555 1_555
C5 C4 1_555 1_555
H4 C5 1_555 1_555
C6 C5 1_555 1_555
H5 C6 1_555 1_555
C7 C6 1_555 1_555
C8 C7 1_555 1_555
H6 C8 1_555 1_555
C9 C4 1_555 1_555
H7 C9 1_555 1_555
C10 C7 1_555 1_555
C11 C10 1_555 1_555
H8 C11 1_555 1_555
N3 C10 1_555 1_555
H9 N3 1_555 1_555
O1 Zn1 1_555 1_555
O2 C12 1_555 1_555
C12 O1 1_555 1_555
C13 C12 1_555 1_555
C14 C13 1_555 1_555
H10 C14 1_555 1_555
C15 C13 1_555 1_555
H11 C15 1_555 1_555
O3 Zn1 1_555 1_555
O4 C16 1_555 1_555
C16 O3 1_555 1_555
C17 C16 1_555 1_555
C18 C17 1_555 1_555
H12 C18 1_555 1_555
C19 C17 1_555 1_555
H13 C19 1_555 1_555
N4 C11 1_555 1_555
C20 N3 1_555 1_555
H14 C20 1_555 1_555
O1B C12B 1_555 1_555
O2B C12B 1_555 1_555
C12B C13B 1_555 1_555
C13B C14B 1_555 1_555
C14B C15 1_555 1_555
H10B C14B 1_555 1_555
C15B C14 1_555 1_555
H11B C15B 1_555 1_555
O3B C16B 1_555 1_555
O4B C16B 1_555 1_555
C16B C17B 1_555 1_555
C17B C18B 1_555 1_555
C18B C19 1_555 1_555
H12B C18B 1_555 1_555
C19B C18 1_555 1_555
H13B C19B 1_555 1_555
Zn1B O1B 1_555 1_555
N1B Zn1B 1_555 1_555
C1B N1B 1_555 1_555
H1B C1B 1_555 1_555
N2B C1B 1_555 1_555
H2B N2B 1_555 1_555
C2B N2B 1_555 1_555
C3B N1B 1_555 1_555
H3B C3B 1_555 1_555
C4B C2B 1_555 1_555
C5B C4B 1_555 1_555
H4B C5B 1_555 1_555
C6B C5B 1_555 1_555
H5B C6B 1_555 1_555
C7B C6B 1_555 1_555
C8B C7B 1_555 1_555
H6B C8B 1_555 1_555
C9B C4B 1_555 1_555
H7B C9B 1_555 1_555
C10B C7B 1_555 1_555
C11B C10B 1_555 1_555
H8B C11B 1_555 1_555
N3B C10B 1_555 1_555
H9B N3B 1_555 1_555
N4B C11B 1_555 1_555
C20B N3B 1_555 1_555
H14B C20B 1_555 1_555
Zn1A N4B 1_555 1_555
Zn1B_2 O3B 1_555 1_555
Zn1C N4 1_555 1_555
O3B_2 Zn1B 1_555 1_555
N4A Zn1B 1_555 1_555
N4C Zn1 1_555 1_555
C2 C3 1_555 1_555
C8 C9 1_555 1_555
N4 C20 1_555 1_555
C13B C15B 1_555 1_555
C17B C19B 1_555 1_555
C2B C3B 1_555 1_555
C8B C9B 1_555 1_555
N4B C20B 1_555 1_555

#END
