
#######################################################################
#
#                 Cambridge Crystallographic Data Centre
#                                CCDC 
#
#######################################################################
#
# If this CIF has been generated from an entry in the Cambridge 
# Structural Database, then it will include bibliographic, chemical, 
# crystal, experimental, refinement or atomic coordinate data resulting 
# from the CCDC's data processing and validation procedures.
#
#######################################################################

data_ENOWUB
_chemical_formula_moiety         'C54 H24 O31 Zr12'
_symmetry_cell_setting           cubic
_symmetry_space_group_name_H-M   'F m -3 m'
_symmetry_Int_Tables_number      225
_space_group_name_Hall           '-F 4 2 3'
loop_
_symmetry_equiv_pos_site_id
_symmetry_equiv_pos_as_xyz
1 x,y,z
2 -y,x,z
3 -x,-y,z
4 y,-x,z
5 x,-y,-z
6 y,x,-z
7 -x,y,-z
8 -y,-x,-z
9 z,x,y
10 -x,z,y
11 -z,-x,y
12 x,-z,y
13 z,-x,-y
14 x,z,-y
15 -z,x,-y
16 -x,-z,-y
17 y,z,x
18 -z,-y,-x
19 -z,y,x
20 z,y,-x
21 z,-y,x
22 y,-z,-x
23 -y,-z,x
24 -y,z,-x
25 x,1/2+y,1/2+z
26 -y,1/2+x,1/2+z
27 -x,1/2-y,1/2+z
28 y,1/2-x,1/2+z
29 x,1/2-y,1/2-z
30 y,1/2+x,1/2-z
31 -x,1/2+y,1/2-z
32 -y,1/2-x,1/2-z
33 z,1/2+x,1/2+y
34 -x,1/2+z,1/2+y
35 -z,1/2-x,1/2+y
36 x,1/2-z,1/2+y
37 z,1/2-x,1/2-y
38 x,1/2+z,1/2-y
39 -z,1/2+x,1/2-y
40 -x,1/2-z,1/2-y
41 y,1/2+z,1/2+x
42 -z,1/2-y,1/2-x
43 -z,1/2+y,1/2+x
44 z,1/2+y,1/2-x
45 z,1/2-y,1/2+x
46 y,1/2-z,1/2-x
47 -y,1/2-z,1/2+x
48 -y,1/2+z,1/2-x
49 1/2+x,y,1/2+z
50 1/2-y,x,1/2+z
51 1/2-x,-y,1/2+z
52 1/2+y,-x,1/2+z
53 1/2+x,-y,1/2-z
54 1/2+y,x,1/2-z
55 1/2-x,y,1/2-z
56 1/2-y,-x,1/2-z
57 1/2+z,x,1/2+y
58 1/2-x,z,1/2+y
59 1/2-z,-x,1/2+y
60 1/2+x,-z,1/2+y
61 1/2+z,-x,1/2-y
62 1/2+x,z,1/2-y
63 1/2-z,x,1/2-y
64 1/2-x,-z,1/2-y
65 1/2+y,z,1/2+x
66 1/2-z,-y,1/2-x
67 1/2-z,y,1/2+x
68 1/2+z,y,1/2-x
69 1/2+z,-y,1/2+x
70 1/2+y,-z,1/2-x
71 1/2-y,-z,1/2+x
72 1/2-y,z,1/2-x
73 1/2+x,1/2+y,z
74 1/2-y,1/2+x,z
75 1/2-x,1/2-y,z
76 1/2+y,1/2-x,z
77 1/2+x,1/2-y,-z
78 1/2+y,1/2+x,-z
79 1/2-x,1/2+y,-z
80 1/2-y,1/2-x,-z
81 1/2+z,1/2+x,y
82 1/2-x,1/2+z,y
83 1/2-z,1/2-x,y
84 1/2+x,1/2-z,y
85 1/2+z,1/2-x,-y
86 1/2+x,1/2+z,-y
87 1/2-z,1/2+x,-y
88 1/2-x,1/2-z,-y
89 1/2+y,1/2+z,x
90 1/2-z,1/2-y,-x
91 1/2-z,1/2+y,x
92 1/2+z,1/2+y,-x
93 1/2+z,1/2-y,x
94 1/2+y,1/2-z,-x
95 1/2-y,1/2-z,x
96 1/2-y,1/2+z,-x
97 -x,-y,-z
98 y,-x,-z
99 x,y,-z
100 -y,x,-z
101 -x,y,z
102 -y,-x,z
103 x,-y,z
104 y,x,z
105 -z,-x,-y
106 x,-z,-y
107 z,x,-y
108 -x,z,-y
109 -z,x,y
110 -x,-z,y
111 z,-x,y
112 x,z,y
113 -y,-z,-x
114 z,y,x
115 z,-y,-x
116 -z,-y,x
117 -z,y,-x
118 -y,z,x
119 y,z,-x
120 y,-z,x
121 -x,1/2-y,1/2-z
122 y,1/2-x,1/2-z
123 x,1/2+y,1/2-z
124 -y,1/2+x,1/2-z
125 -x,1/2+y,1/2+z
126 -y,1/2-x,1/2+z
127 x,1/2-y,1/2+z
128 y,1/2+x,1/2+z
129 -z,1/2-x,1/2-y
130 x,1/2-z,1/2-y
131 z,1/2+x,1/2-y
132 -x,1/2+z,1/2-y
133 -z,1/2+x,1/2+y
134 -x,1/2-z,1/2+y
135 z,1/2-x,1/2+y
136 x,1/2+z,1/2+y
137 -y,1/2-z,1/2-x
138 z,1/2+y,1/2+x
139 z,1/2-y,1/2-x
140 -z,1/2-y,1/2+x
141 -z,1/2+y,1/2-x
142 -y,1/2+z,1/2+x
143 y,1/2+z,1/2-x
144 y,1/2-z,1/2+x
145 1/2-x,-y,1/2-z
146 1/2+y,-x,1/2-z
147 1/2+x,y,1/2-z
148 1/2-y,x,1/2-z
149 1/2-x,y,1/2+z
150 1/2-y,-x,1/2+z
151 1/2+x,-y,1/2+z
152 1/2+y,x,1/2+z
153 1/2-z,-x,1/2-y
154 1/2+x,-z,1/2-y
155 1/2+z,x,1/2-y
156 1/2-x,z,1/2-y
157 1/2-z,x,1/2+y
158 1/2-x,-z,1/2+y
159 1/2+z,-x,1/2+y
160 1/2+x,z,1/2+y
161 1/2-y,-z,1/2-x
162 1/2+z,y,1/2+x
163 1/2+z,-y,1/2-x
164 1/2-z,-y,1/2+x
165 1/2-z,y,1/2-x
166 1/2-y,z,1/2+x
167 1/2+y,z,1/2-x
168 1/2+y,-z,1/2+x
169 1/2-x,1/2-y,-z
170 1/2+y,1/2-x,-z
171 1/2+x,1/2+y,-z
172 1/2-y,1/2+x,-z
173 1/2-x,1/2+y,z
174 1/2-y,1/2-x,z
175 1/2+x,1/2-y,z
176 1/2+y,1/2+x,z
177 1/2-z,1/2-x,-y
178 1/2+x,1/2-z,-y
179 1/2+z,1/2+x,-y
180 1/2-x,1/2+z,-y
181 1/2-z,1/2+x,y
182 1/2-x,1/2-z,y
183 1/2+z,1/2-x,y
184 1/2+x,1/2+z,y
185 1/2-y,1/2-z,-x
186 1/2+z,1/2+y,x
187 1/2+z,1/2-y,-x
188 1/2-z,1/2-y,x
189 1/2-z,1/2+y,-x
190 1/2-y,1/2+z,x
191 1/2+y,1/2+z,-x
192 1/2+y,1/2-z,x
_cell_length_a                   29.9410(10)
_cell_length_b                   29.9410(10)
_cell_length_c                   29.9410(10)
_cell_angle_alpha                90
_cell_angle_beta                 90
_cell_angle_gamma                90
_cell_volume                     26841
loop_
_atom_site_label
_atom_site_type_symbol
_atom_site_fract_x
_atom_site_fract_y
_atom_site_fract_z
Zr1 Zr 0.082539(13) 0.5000 0.0000
O1 O 0.11922(10) 0.43605(12) 0.0000
O2 O 0.04086(13) 0.45914(13) 0.04086(13)
C1 C 0.10471(12) 0.39529(12) 0.0000
C2 C 0.1395(2) 0.3605(2) 0.0000
C3 C 0.1249(3) 0.3138(3) 0.0000
H1 H 0.0944 0.3063 0.0000
C4 C 0.1583(3) 0.2806(3) 0.0000
H2 H 0.1506 0.2501 0.0000
C5 C 0.2056(2) 0.2944(2) 0.0000
C6 C 0.2305(4) 0.2499(5) 0.0000(18)
O1E O 0.43605(12) 0.11922(10) 0.0000
C1E C 0.39529(12) 0.10471(12) 0.0000
C2E C 0.3605(2) 0.1395(2) 0.0000
C3E C 0.3138(3) 0.1249(3) 0.0000
H1E H 0.3063 0.0944 0.0000
C4E C 0.2806(3) 0.1583(3) 0.0000
H2E H 0.2501 0.1506 0.0000
C5E C 0.2944(2) 0.2056(2) 0.0000
C6E C 0.2499(5) 0.2305(4) 0.0000(18)
O1VB O 0.38078(10) 0.06395(12) 0.0000
C3VB C 0.3751(3) 0.1862(3) 0.0000
H1VB H 0.4056 0.1937 0.0000
C4VB C 0.3417(3) 0.2194(3) 0.0000
H2VB H 0.3494 0.2499 0.0000
C6VB C 0.2695(4) 0.2501(5) 0.0000(18)
O1AC O 0.06395(12) 0.38078(10) 0.0000
C3AC C 0.1862(3) 0.3751(3) 0.0000
H1AC H 0.1937 0.4056 0.0000
C4AC C 0.2194(3) 0.3417(3) 0.0000
H2AC H 0.2499 0.3494 0.0000
C6AC C 0.2501(5) 0.2695(4) 0.0000(18)
Zr1A Zr 0.5000 0.082539(13) 0.0000
O1A O 0.56395(12) 0.11922(10) 0.0000
C1A C 0.60471(12) 0.10471(12) 0.0000
C2A C 0.6395(2) 0.1395(2) 0.0000
C3A C 0.6862(3) 0.1249(3) 0.0000
H1A H 0.6937 0.0944 0.0000
C4A C 0.7194(3) 0.1583(3) 0.0000
H2A H 0.7499 0.1506 0.0000
C5A C 0.7056(2) 0.2056(2) 0.0000
C6A C 0.7501(5) 0.2305(4) 0.0000(18)
O1F O 0.88078(10) 0.43605(12) 0.0000
C1F C 0.89529(12) 0.39529(12) 0.0000
C2F C 0.8605(2) 0.3605(2) 0.0000
C3F C 0.8751(3) 0.3138(3) 0.0000
H1F H 0.9056 0.3063 0.0000
C4F C 0.8417(3) 0.2806(3) 0.0000
H2F H 0.8494 0.2501 0.0000
C5F C 0.7944(2) 0.2944(2) 0.0000
C6F C 0.7695(4) 0.2499(5) 0.0000(18)
O1WB O 0.93605(12) 0.38078(10) 0.0000
C3WB C 0.8138(3) 0.3751(3) 0.0000
H1WB H 0.8063 0.4056 0.0000
C4WB C 0.7806(3) 0.3417(3) 0.0000
H2WB H 0.7501 0.3494 0.0000
C6WB C 0.7499(5) 0.2695(4) 0.0000(18)
O1XB O 0.61922(10) 0.06395(12) 0.0000
C3XB C 0.6249(3) 0.1862(3) 0.0000
H1XB H 0.5944 0.1937 0.0000
C4XB C 0.6583(3) 0.2194(3) 0.0000
H2XB H 0.6506 0.2499 0.0000
C6XB C 0.7305(4) 0.2501(5) 0.0000(18)
Zr1C Zr 0.5000 0.917461(13) 0.0000
O1C O 0.43605(12) 0.88078(10) 0.0000
C1C C 0.39529(12) 0.89529(12) 0.0000
C2C C 0.3605(2) 0.8605(2) 0.0000
C3C C 0.3138(3) 0.8751(3) 0.0000
H1C H 0.3063 0.9056 0.0000
C4C C 0.2806(3) 0.8417(3) 0.0000
H2C H 0.2501 0.8494 0.0000
C5C C 0.2944(2) 0.7944(2) 0.0000
C6C C 0.2499(5) 0.7695(4) 0.0000(18)
O1D O 0.11922(10) 0.56395(12) 0.0000
C1D C 0.10471(12) 0.60471(12) 0.0000
C2D C 0.1395(2) 0.6395(2) 0.0000
C3D C 0.1249(3) 0.6862(3) 0.0000
H1D H 0.0944 0.6937 0.0000
C4D C 0.1583(3) 0.7194(3) 0.0000
H2D H 0.1506 0.7499 0.0000
C5D C 0.2056(2) 0.7056(2) 0.0000
C6D C 0.2305(4) 0.7501(5) 0.0000(18)
O1UB O 0.06395(12) 0.61922(10) 0.0000
C3UB C 0.1862(3) 0.6249(3) 0.0000
H1UB H 0.1937 0.5944 0.0000
C4UB C 0.2194(3) 0.6583(3) 0.0000
H2UB H 0.2499 0.6506 0.0000
C6UB C 0.2501(5) 0.7305(4) 0.0000(18)
O1ZB O 0.38078(10) 0.93605(12) 0.0000
C3ZB C 0.3751(3) 0.8138(3) 0.0000
H1ZB H 0.4056 0.8063 0.0000
C4ZB C 0.3417(3) 0.7806(3) 0.0000
H2ZB H 0.3494 0.7501 0.0000
C6ZB C 0.2695(4) 0.7499(5) 0.0000(18)
O2D O 0.04086(13) 0.54086(13) -0.04086(13)
O2S O 0.04086(13) 0.45914(13) -0.04086(13)
O2T O 0.04086(13) 0.54086(13) 0.04086(13)
Zr1B Zr 0.917461(13) 0.5000 0.0000
Zr1Q Zr -0.0000 0.5000 -0.082539(13)
Zr1R Zr 0.0000 0.5000 0.082539(13)
Zr1FA Zr -0.0000 0.582539(13) 0.0000
Zr1HA Zr -0.0000 0.417461(13) 0.0000
Zr1HA_2 Zr 1.0000 0.417461(13) 0.0000
Zr1EB Zr 0.417461(13) 0.0000 0.0000
Zr1EB_2 Zr 0.417461(13) 1.0000 0.0000
Zr1GB Zr 0.582539(13) 0.0000 0.0000
O1G O 0.56395(12) 0.88078(10) 0.0000
O1IA O 0.11922(10) 0.5000 -0.06395(12)
O1KA O 0.11922(10) 0.5000 0.06395(12)
O1DB O 0.5000 0.11922(10) -0.06395(12)
O1FB O 0.5000 0.88078(10) -0.06395(12)
O1HB O 0.5000 0.88078(10) 0.06395(12)
O1JB O 0.5000 0.11922(10) 0.06395(12)
O2A O 0.54086(13) 0.04086(13) 0.04086(13)
O2C O 0.45914(13) 0.95914(13) 0.04086(13)
O2E O 0.45914(13) 0.04086(13) -0.04086(13)
O2G O 0.54086(13) 0.95914(13) -0.04086(13)
O2P O 0.45914(13) 0.04086(13) 0.04086(13)
O2U O 0.45914(13) 0.95914(13) -0.04086(13)
O2V O 0.54086(13) 0.95914(13) 0.04086(13)
O2W O 0.54086(13) 0.04086(13) -0.04086(13)
loop_
_geom_bond_atom_site_label_1
_geom_bond_atom_site_label_2
_geom_bond_site_symmetry_1
_geom_bond_site_symmetry_2
Zr1 O1 1_555 1_555
O1 C1 1_555 1_555
O2 Zr1 1_555 1_555
C1 C2 1_555 1_555
C2 C3 1_555 1_555
C3 H1 1_555 1_555
C4 C3 1_555 1_555
H2 C4 1_555 1_555
C5 C4 1_555 1_555
C6 C5 1_555 1_555
O1E C1E 1_555 1_555
C1E C2E 1_555 1_555
C2E C3E 1_555 1_555
C3E H1E 1_555 1_555
C4E C3E 1_555 1_555
H2E C4E 1_555 1_555
C5E C4E 1_555 1_555
C6E C6 1_555 1_555
O1VB C1E 1_555 1_555
C3VB C2E 1_555 1_555
H1VB C3VB 1_555 1_555
C4VB C5E 1_555 1_555
H2VB C4VB 1_555 1_555
C6VB C6 1_555 1_555
O1AC C1 1_555 1_555
C3AC C2 1_555 1_555
H1AC C3AC 1_555 1_555
C4AC C5 1_555 1_555
H2AC C4AC 1_555 1_555
C6AC C5 1_555 1_555
Zr1A O1E 1_555 1_555
O1A Zr1A 1_555 1_555
C1A O1A 1_555 1_555
C2A C1A 1_555 1_555
C3A C2A 1_555 1_555
H1A C3A 1_555 1_555
C4A C3A 1_555 1_555
H2A C4A 1_555 1_555
C5A C4A 1_555 1_555
C6A C5A 1_555 1_555
O1F C1F 1_555 1_555
C1F C2F 1_555 1_555
C2F C3F 1_555 1_555
C3F H1F 1_555 1_555
C4F C3F 1_555 1_555
H2F C4F 1_555 1_555
C5F C4F 1_555 1_555
C6F C6A 1_555 1_555
O1WB C1F 1_555 1_555
C3WB C2F 1_555 1_555
H1WB C3WB 1_555 1_555
C4WB C5F 1_555 1_555
H2WB C4WB 1_555 1_555
C6WB C6A 1_555 1_555
O1XB C1A 1_555 1_555
C3XB C2A 1_555 1_555
H1XB C3XB 1_555 1_555
C4XB C5A 1_555 1_555
H2XB C4XB 1_555 1_555
C6XB C5A 1_555 1_555
Zr1C O1C 1_555 1_555
O1C C1C 1_555 1_555
C1C C2C 1_555 1_555
C2C C3C 1_555 1_555
C3C H1C 1_555 1_555
C4C C3C 1_555 1_555
H2C C4C 1_555 1_555
C5C C4C 1_555 1_555
C6C C5C 1_555 1_555
O1D Zr1 1_555 1_555
C1D O1D 1_555 1_555
C2D C1D 1_555 1_555
C3D C2D 1_555 1_555
H1D C3D 1_555 1_555
C4D C3D 1_555 1_555
H2D C4D 1_555 1_555
C5D C4D 1_555 1_555
C6D C6C 1_555 1_555
O1UB C1D 1_555 1_555
C3UB C2D 1_555 1_555
H1UB C3UB 1_555 1_555
C4UB C5D 1_555 1_555
H2UB C4UB 1_555 1_555
C6UB C6C 1_555 1_555
O1ZB C1C 1_555 1_555
C3ZB C2C 1_555 1_555
H1ZB C3ZB 1_555 1_555
C4ZB C5C 1_555 1_555
H2ZB C4ZB 1_555 1_555
C6ZB C5C 1_555 1_555
O2D Zr1 1_555 1_555
O2S Zr1 1_555 1_555
O2T Zr1 1_555 1_555
Zr1B O1F 1_555 1_555
Zr1Q O2D 1_555 1_555
Zr1R O2 1_555 1_555
Zr1FA O1UB 1_555 1_555
Zr1HA O2 1_555 1_555
Zr1HA_2 O1WB 1_555 1_555
Zr1EB O1VB 1_555 1_555
Zr1EB_2 O1ZB 1_555 1_555
Zr1GB O1XB 1_555 1_555
O1G Zr1C 1_555 1_555
O1IA Zr1 1_555 1_555
O1KA Zr1 1_555 1_555
O1DB Zr1A 1_555 1_555
O1FB Zr1C 1_555 1_555
O1HB Zr1C 1_555 1_555
O1JB Zr1A 1_555 1_555
O2A Zr1A 1_555 1_555
O2C Zr1C 1_555 1_555
O2E Zr1A 1_555 1_555
O2G Zr1C 1_555 1_555
O2P Zr1A 1_555 1_555
O2U Zr1C 1_555 1_555
O2V Zr1C 1_555 1_555
O2W Zr1A 1_555 1_555
C6 C6AC 1_555 1_555
C5E C6E 1_555 1_555
C5E C6VB 1_555 1_555
C6E C6VB 1_555 1_555
C6E C6AC 1_555 1_555
C3VB C4VB 1_555 1_555
C6VB C6AC 1_555 1_555
O1AC Zr1HA 1_555 1_555
C3AC C4AC 1_555 1_555
C6A C6XB 1_555 1_555
C5F C6F 1_555 1_555
C5F C6WB 1_555 1_555
C6F C6WB 1_555 1_555
C6F C6XB 1_555 1_555
C3WB C4WB 1_555 1_555
C6WB C6XB 1_555 1_555
C3XB C4XB 1_555 1_555
C6C C6ZB 1_555 1_555
C5D C6D 1_555 1_555
C5D C6UB 1_555 1_555
C6D C6UB 1_555 1_555
C6D C6ZB 1_555 1_555
C3UB C4UB 1_555 1_555
C6UB C6ZB 1_555 1_555
C3ZB C4ZB 1_555 1_555
O2D Zr1FA 1_555 1_555
O2S Zr1Q 1_555 1_555
O2S Zr1HA 1_555 1_555
O2T Zr1R 1_555 1_555
O2T Zr1FA 1_555 1_555
Zr1EB O2E 1_555 1_555
Zr1EB O2P 1_555 1_555
Zr1EB_2 O2C 1_555 1_555
Zr1EB_2 O2U 1_555 1_555
Zr1GB O2A 1_555 1_555
Zr1GB O2W 1_555 1_555

#END
