
#######################################################################
#
#                 Cambridge Crystallographic Data Centre
#                                CCDC 
#
#######################################################################
#
# If this CIF has been generated from an entry in the Cambridge 
# Structural Database, then it will include bibliographic, chemical, 
# crystal, experimental, refinement or atomic coordinate data resulting 
# from the CCDC's data processing and validation procedures.
#
#######################################################################

data_WIBSAD
_chemical_formula_moiety         '(C80 H88 B6 Fe6 N56 O7 Zn5)n'
_symmetry_cell_setting           cubic
_symmetry_space_group_name_H-M   'I -4 3 d'
_symmetry_Int_Tables_number      220
_space_group_name_Hall           'I -4bd 2c 3'
loop_
_symmetry_equiv_pos_site_id
_symmetry_equiv_pos_as_xyz
1 x,y,z
2 1/2-x,-y,1/2+z
3 -x,1/2+y,1/2-z
4 1/2+x,1/2-y,-z
5 z,x,y
6 1/2+z,1/2-x,-y
7 1/2-z,-x,1/2+y
8 -z,1/2+x,1/2-y
9 y,z,x
10 -y,1/2+z,1/2-x
11 1/2+y,1/2-z,-x
12 1/2-y,-z,1/2+x
13 1/4+y,1/4+x,1/4+z
14 1/4-y,3/4-x,3/4+z
15 3/4+y,1/4-x,3/4-z
16 3/4-y,3/4+x,1/4-z
17 1/4+x,1/4+z,1/4+y
18 3/4-x,3/4+z,1/4-y
19 1/4-x,3/4-z,3/4+y
20 3/4+x,1/4-z,3/4-y
21 1/4+z,1/4+y,1/4+x
22 3/4+z,1/4-y,3/4-x
23 3/4-z,3/4+y,1/4-x
24 1/4-z,3/4-y,3/4+x
25 1/2+x,1/2+y,1/2+z
26 -x,1/2-y,z
27 1/2-x,y,-z
28 x,-y,1/2-z
29 1/2+z,1/2+x,1/2+y
30 z,-x,1/2-y
31 -z,1/2-x,y
32 1/2-z,x,-y
33 1/2+y,1/2+z,1/2+x
34 1/2-y,z,-x
35 y,-z,1/2-x
36 -y,1/2-z,x
37 3/4+y,3/4+x,3/4+z
38 3/4-y,1/4-x,1/4+z
39 1/4+y,3/4-x,1/4-z
40 1/4-y,1/4+x,3/4-z
41 3/4+x,3/4+z,3/4+y
42 1/4-x,1/4+z,3/4-y
43 3/4-x,1/4-z,1/4+y
44 1/4+x,3/4-z,1/4-y
45 3/4+z,3/4+y,3/4+x
46 1/4+z,3/4-y,1/4-x
47 1/4-z,1/4+y,3/4-x
48 3/4-z,1/4-y,1/4+x
_cell_length_a                   40.9855(3)
_cell_length_b                   40.9855(3)
_cell_length_c                   40.9855(3)
_cell_angle_alpha                90
_cell_angle_beta                 90
_cell_angle_gamma                90
_cell_volume                     68847.9
loop_
_atom_site_label
_atom_site_type_symbol
_atom_site_fract_x
_atom_site_fract_y
_atom_site_fract_z
Fe1 Fe 0.82104(3) 1.32182(3) 0.29906(3)
Fe2 Fe 0.91127(2) 1.27382(2) 0.44391(2)
Zn1 Zn 0.82426(3) 1.32426(3) 0.17574(3)
Zn2 Zn 0.74011(3) 1.24011(3) 0.25989(3)
Zn3 Zn 0.925559(19) 1.270235(18) 0.32370(2)
O1 O 0.8782(4) 1.3293(4) 0.1688(4)
O2 O 0.71313(14) 1.21313(14) 0.28687(14)
N1 N 0.82890(17) 1.32865(18) 0.2247(2)
N2 N 0.77694(17) 1.26494(17) 0.28128(16)
N3 N 0.95984(15) 1.30133(15) 0.31210(15)
N4 N 0.94078(14) 1.22648(15) 0.31288(13)
N5 N 0.88409(16) 1.28282(17) 0.30172(15)
N6 N 0.91414(14) 1.27187(15) 0.36964(16)
C1 C 0.82673(18) 1.3264(2) 0.2531(2)
C2 C 0.7948(2) 1.2850(2) 0.28913(19)
C3 C 0.98364(19) 1.31544(17) 0.30877(16)
C4 C 0.95374(17) 1.20236(19) 0.30976(17)
C5 C 0.8603(2) 1.29613(19) 0.29980(19)
C6 C 0.91135(15) 1.27333(16) 0.3970(2)
B1 B 0.8553(3) 1.2905(2) 0.4920(3)
H1 H 0.8375 1.2960 0.5073
N7 N 0.84637(16) 1.26073(15) 0.47051(16)
N8 N 0.86938(14) 1.25033(14) 0.44800(14)
N9 N 0.88672(18) 1.28218(15) 0.50997(16)
N10 N 0.91409(16) 1.27487(15) 0.49213(15)
N11 N 0.86263(15) 1.31907(15) 0.46831(15)
N12 N 0.88619(14) 1.31528(13) 0.44552(14)
C7 C 0.8196(2) 1.2427(2) 0.4683(2)
H2 H 0.8006 1.2451 0.4809
C8 C 0.8245(2) 1.2202(2) 0.4446(3)
H3 H 0.8099 1.2038 0.4381
C9 C 0.85557(19) 1.22601(18) 0.4318(2)
H4 H 0.8652 1.2145 0.4145
C10 C 0.8944(3) 1.2805(2) 0.5420(2)
H5 H 0.8797 1.2838 0.5592
C11 C 0.9265(3) 1.2732(3) 0.5454(2)
H6 H 0.9385 1.2711 0.5648
C12 C 0.9374(2) 1.2697(2) 0.5132(2)
H7 H 0.9590 1.2643 0.5075
C13 C 0.8495(2) 1.3486(2) 0.4655(2)
H8 H 0.8329 1.3571 0.4787
C14 C 0.8645(2) 1.3646(2) 0.4401(2)
H9 H 0.8603 1.3859 0.4325
C15 C 0.88707(19) 1.3424(2) 0.4282(2)
H10 H 0.9010 1.3462 0.4104
B2 B 0.8039(3) 1.3742(3) 0.3496(3)
H11 H 0.7982 1.3911 0.3658
N13 N 0.83627(15) 1.38148(17) 0.33404(19)
N14 N 0.84696(16) 1.36088(17) 0.30965(19)
N15 N 0.80629(16) 1.34045(17) 0.36588(19)
N16 N 0.81545(15) 1.31512(17) 0.34655(16)
N17 N 0.77745(14) 1.37212(14) 0.32244(16)
N18 N 0.78220(15) 1.34937(15) 0.29916(16)
C16 C 0.8573(8) 1.4036(11) 0.3465(8)
C17 C 0.8834(10) 1.3962(8) 0.3236(12)
C18 C 0.8761(3) 1.3732(3) 0.3000(3)
H12 H 0.8885 1.3674 0.2815
C19 C 0.8026(3) 1.3292(3) 0.3960(3)
H13 H 0.7961 1.3420 0.4140
C20 C 0.8091(3) 1.2984(3) 0.3973(2)
H14 H 0.8084 1.2849 0.4158
C21 C 0.8174(2) 1.2894(2) 0.3656(2)
H15 H 0.8235 1.2684 0.3590
C22 C 0.7498(2) 1.38837(19) 0.3170(2)
H16 H 0.7413 1.4052 0.3301
C23 C 0.7361(2) 1.3764(2) 0.2893(2)
H17 H 0.7168 1.3835 0.2792
C24 C 0.7560(2) 1.3518(2) 0.2791(2)
H18 H 0.7521 1.3386 0.2608
Fe1G Fe 0.70094(3) 1.32104(3) 0.17818(3)
Fe2G Fe 0.55609(2) 1.41127(2) 0.22618(2)
Zn3G Zn 0.67630(2) 1.425559(19) 0.229765(18)
O1G O 0.8312(4) 1.3782(4) 0.1707(4)
N1G N 0.7753(2) 1.32890(17) 0.17135(18)
N2G N 0.71872(16) 1.27694(17) 0.23506(17)
N3G N 0.68790(15) 1.45984(15) 0.19867(15)
N4G N 0.68712(13) 1.44078(14) 0.27352(15)
N5G N 0.69828(15) 1.38409(16) 0.21718(17)
N6G N 0.63036(16) 1.41414(14) 0.22813(15)
C1G C 0.7469(2) 1.32673(18) 0.1736(2)
C2G C 0.71087(19) 1.2948(2) 0.2150(2)
C3G C 0.69123(16) 1.48364(19) 0.18456(17)
C4G C 0.69024(17) 1.45374(17) 0.29764(19)
C5G C 0.70020(19) 1.3603(2) 0.20387(19)
C6G C 0.6030(2) 1.41135(15) 0.22667(16)
B1G B 0.5080(3) 1.3553(3) 0.2095(2)
H1G H 0.4927 1.3375 0.2040
N7G N 0.52949(16) 1.34637(16) 0.23927(15)
N8G N 0.55200(14) 1.36938(14) 0.24967(14)
N9G N 0.49003(16) 1.38672(18) 0.21782(15)
N10G N 0.50787(15) 1.41409(16) 0.22513(15)
N11G N 0.53169(15) 1.36263(15) 0.18093(15)
N12G N 0.55448(14) 1.38619(14) 0.18472(13)
C7G C 0.5317(2) 1.3196(2) 0.2573(2)
H2G H 0.5191 1.3006 0.2549
C8G C 0.5554(3) 1.3245(2) 0.2798(2)
H3G H 0.5619 1.3099 0.2962
C9G C 0.5682(2) 1.35557(19) 0.27399(18)
H4G H 0.5855 1.3652 0.2855
C10G C 0.4580(2) 1.3944(3) 0.2195(2)
H5G H 0.4408 1.3797 0.2162
C11G C 0.4546(2) 1.4265(3) 0.2268(3)
H6G H 0.4352 1.4385 0.2289
C12G C 0.4868(2) 1.4374(2) 0.2303(2)
H7G H 0.4925 1.4590 0.2357
C13G C 0.5345(2) 1.3495(2) 0.1514(2)
H8G H 0.5213 1.3329 0.1429
C14G C 0.5599(2) 1.3645(2) 0.1354(2)
H9G H 0.5675 1.3603 0.1141
C15G C 0.5718(2) 1.38707(19) 0.1576(2)
H10G H 0.5896 1.4010 0.1538
B2G B 0.6504(3) 1.3039(3) 0.1258(3)
H11G H 0.6342 1.2982 0.1089
N13G N 0.66596(19) 1.33627(15) 0.11852(17)
N14G N 0.69035(19) 1.34696(16) 0.13912(17)
N15G N 0.63412(19) 1.30629(16) 0.15955(17)
N16G N 0.65345(16) 1.31545(15) 0.18488(17)
N17G N 0.67756(16) 1.27745(14) 0.12788(14)
N18G N 0.70084(16) 1.28220(15) 0.15063(15)
C16G C 0.6535(8) 1.3573(8) 0.0964(11)
C17G C 0.6764(12) 1.3834(10) 0.1038(8)
C18G C 0.7000(3) 1.3761(3) 0.1268(3)
H12G H 0.7185 1.3885 0.1326
C19G C 0.6040(3) 1.3026(3) 0.1708(3)
H13G H 0.5860 1.2961 0.1580
C20G C 0.6027(2) 1.3091(3) 0.2016(3)
H14G H 0.5842 1.3084 0.2151
C21G C 0.6344(2) 1.3174(2) 0.2106(2)
H15G H 0.6410 1.3235 0.2316
C22G C 0.6830(2) 1.2498(2) 0.11163(19)
H16G H 0.6699 1.2413 0.0948
C23G C 0.7107(2) 1.2361(2) 0.1236(2)
H17G H 0.7208 1.2168 0.1165
C24G C 0.7209(2) 1.2560(2) 0.1482(2)
H18G H 0.7392 1.2521 0.1614
Fe1J Fe 0.82182(3) 1.20094(3) 0.17896(3)
Fe2J Fe 0.77382(2) 1.05609(2) 0.08873(2)
Zn3J Zn 0.770235(18) 1.17630(2) 0.074441(19)
O1J O 0.8293(4) 1.3312(4) 0.1218(4)
N1J N 0.82865(18) 1.2753(2) 0.17110(17)
N2J N 0.76494(17) 1.21872(16) 0.22306(17)
N3J N 0.80133(15) 1.18790(15) 0.04016(15)
N4J N 0.72648(15) 1.18712(13) 0.05922(14)
N5J N 0.78282(17) 1.19828(15) 0.11591(16)
N6J N 0.77187(15) 1.13036(16) 0.08586(14)
C1J C 0.8264(2) 1.2469(2) 0.17327(18)
C2J C 0.7850(2) 1.21087(19) 0.2052(2)
C3J C 0.81544(17) 1.19123(16) 0.01636(19)
C4J C 0.70236(19) 1.19024(17) 0.04626(17)
C5J C 0.79613(19) 1.20020(19) 0.1397(2)
C6J C 0.77333(16) 1.1030(2) 0.08865(15)
B1J B 0.7905(2) 1.0080(3) 0.1447(3)
H1J H 0.7960 0.9927 0.1625
N7J N 0.76073(15) 1.02949(16) 0.15363(16)
N8J N 0.75033(14) 1.05200(14) 0.13062(14)
N9J N 0.78218(15) 0.99003(16) 0.11328(18)
N10J N 0.77487(15) 1.00787(15) 0.08591(16)
N11J N 0.81907(15) 1.03169(15) 0.13737(15)
N12J N 0.81528(13) 1.05448(14) 0.11381(14)
C7J C 0.7427(2) 1.0317(2) 0.1804(2)
H2J H 0.7451 1.0191 0.1994
C8J C 0.7202(2) 1.0554(3) 0.1755(2)
H3J H 0.7038 1.0619 0.1901
C9J C 0.72601(18) 1.0682(2) 0.14443(19)
H4J H 0.7145 1.0855 0.1348
C10J C 0.7805(2) 0.9580(2) 0.1056(3)
H5J H 0.7838 0.9408 0.1203
C11J C 0.7732(3) 0.9546(2) 0.0735(3)
H6J H 0.7711 0.9352 0.0615
C12J C 0.7697(2) 0.9868(2) 0.0626(2)
H7J H 0.7643 0.9925 0.0410
C13J C 0.8486(2) 1.0345(2) 0.1505(2)
H8J H 0.8571 1.0213 0.1671
C14J C 0.8646(2) 1.0599(2) 0.1355(2)
H9J H 0.8859 1.0675 0.1397
C15J C 0.8424(2) 1.0718(2) 0.11293(19)
H10J H 0.8462 1.0896 0.0990
B2J B 0.8742(3) 1.1504(3) 0.1961(3)
H11J H 0.8911 1.1342 0.2018
N13J N 0.88148(17) 1.16596(19) 0.16373(15)
N14J N 0.86088(17) 1.19035(19) 0.15304(16)
N15J N 0.84045(17) 1.13412(19) 0.19371(16)
N16J N 0.81512(17) 1.15345(16) 0.18455(15)
N17J N 0.87212(14) 1.17756(16) 0.22255(14)
N18J N 0.84937(15) 1.20084(16) 0.21780(15)
C16J C 0.9036(11) 1.1535(8) 0.1427(8)
C17J C 0.8962(8) 1.1764(12) 0.1166(10)
C18J C 0.8732(3) 1.2000(3) 0.1239(3)
H12J H 0.8674 1.2185 0.1115
C19J C 0.8292(3) 1.1040(3) 0.1974(3)
H13J H 0.8420 1.0860 0.2039
C20J C 0.7984(3) 1.1027(2) 0.1909(3)
H14J H 0.7849 1.0842 0.1916
C21J C 0.7894(2) 1.1344(2) 0.1826(2)
H15J H 0.7684 1.1410 0.1765
C22J C 0.88837(19) 1.1830(2) 0.2502(2)
H16J H 0.9052 1.1699 0.2587
C23J C 0.8764(2) 1.2107(2) 0.2639(2)
H17J H 0.8835 1.2208 0.2832
C24J C 0.8518(2) 1.2209(2) 0.2440(2)
H18J H 0.8386 1.2392 0.2479
Fe2N Fe 1.02382(2) 1.33873(2) 0.30609(2)
Fe2Q Fe 0.83873(2) 1.19391(2) -0.02382(2)
Fe2T Fe 0.69391(2) 1.52382(2) 0.16127(2)
Fe2MA Fe 0.97618(2) 1.16127(2) 0.30609(2)
Fe2NA Fe 0.66127(2) 1.19391(2) 0.02382(2)
Fe2SA Fe 0.69391(2) 1.47618(2) 0.33873(2)
C3MA C 0.93456(17) 1.23364(19) 0.44123(16)
C3NA C 0.73364(19) 1.05877(16) 0.06544(17)
C3SA C 0.55877(16) 1.43456(17) 0.26636(19)
C4N C 0.95236(19) 1.29626(17) 0.44024(17)
C4Q C 0.79626(17) 1.05976(17) 0.04764(19)
C4T C 0.55976(17) 1.45236(19) 0.20374(17)
O3 O 0.9268(5) 1.3074(5) 0.2087(5)
C25 C 0.9228(7) 1.2579(6) 0.1852(6)
H19 H 0.9220 1.2352 0.1920
H20 H 0.9418 1.2613 0.1715
H21 H 0.9032 1.2633 0.1732
C26 C 0.9252(7) 1.2788(6) 0.2141(7)
H22 H 0.9061 1.2748 0.2280
H23 H 0.9445 1.2724 0.2266
C27 C 0.9340(6) 1.3655(6) 0.2223(6)
H24 H 0.9348 1.3776 0.2426
H25 H 0.9155 1.3728 0.2095
H26 H 0.9540 1.3691 0.2101
C28 C 0.9303(7) 1.3292(6) 0.2297(7)
H27 H 0.9496 1.3230 0.2424
H28 H 0.9116 1.3272 0.2444
O4 O 0.8951(8) 1.4543(8) 0.4740(8)
N19 N 0.8456(8) 1.2009(10) 0.3601(8)
C29 C 0.8076(7) 1.1725(7) 0.3182(6)
C30 C 0.8220(5) 1.1873(5) 0.3484(5)
N20 N 0.8879(12) 1.5009(14) 0.3361(8)
C31 C 0.8668(10) 1.4795(10) 0.3923(8)
C32 C 0.8842(6) 1.4931(6) 0.3640(7)
O5 O 0.7734(10) 1.2372(10) 0.5557(10)
loop_
_geom_bond_atom_site_label_1
_geom_bond_atom_site_label_2
_geom_bond_site_symmetry_1
_geom_bond_site_symmetry_2
Fe1 C1 1_555 1_555
Fe2 C6 1_555 1_555
Zn1 O1 1_555 1_555
Zn2 O2 1_555 1_555
Zn3 N3 1_555 1_555
N1 Zn1 1_555 1_555
N2 Zn2 1_555 1_555
N3 C3 1_555 1_555
N4 Zn3 1_555 1_555
N5 Zn3 1_555 1_555
N6 Zn3 1_555 1_555
C1 N1 1_555 1_555
C2 Fe1 1_555 1_555
C3 Fe2N 1_555 1_555
C4 N4 1_555 1_555
C5 Fe1 1_555 1_555
C6 N6 1_555 1_555
B1 H1 1_555 1_555
N7 B1 1_555 1_555
N8 Fe2 1_555 1_555
N9 B1 1_555 1_555
N10 Fe2 1_555 1_555
N11 B1 1_555 1_555
N12 Fe2 1_555 1_555
C7 N7 1_555 1_555
H2 C7 1_555 1_555
C8 C7 1_555 1_555
H3 C8 1_555 1_555
C9 N8 1_555 1_555
H4 C9 1_555 1_555
C10 N9 1_555 1_555
H5 C10 1_555 1_555
C11 C10 1_555 1_555
H6 C11 1_555 1_555
C12 N10 1_555 1_555
H7 C12 1_555 1_555
C13 N11 1_555 1_555
H8 C13 1_555 1_555
C14 C13 1_555 1_555
H9 C14 1_555 1_555
C15 N12 1_555 1_555
H10 C15 1_555 1_555
B2 H11 1_555 1_555
N13 B2 1_555 1_555
N14 Fe1 1_555 1_555
N15 B2 1_555 1_555
N16 Fe1 1_555 1_555
N17 B2 1_555 1_555
N18 Fe1 1_555 1_555
C16 N13 1_555 1_555
C17 C16 1_555 1_555
C18 N14 1_555 1_555
H12 C18 1_555 1_555
C19 N15 1_555 1_555
H13 C19 1_555 1_555
C20 C19 1_555 1_555
H14 C20 1_555 1_555
C21 N16 1_555 1_555
H15 C21 1_555 1_555
C22 N17 1_555 1_555
H16 C22 1_555 1_555
C23 C22 1_555 1_555
H17 C23 1_555 1_555
C24 N18 1_555 1_555
H18 C24 1_555 1_555
O3 C26 1_555 1_555
C25 H19 1_555 1_555
H20 C25 1_555 1_555
H21 C25 1_555 1_555
C26 C25 1_555 1_555
H22 C26 1_555 1_555
H23 C26 1_555 1_555
C27 H24 1_555 1_555
H25 C27 1_555 1_555
H26 C27 1_555 1_555
C28 O3 1_555 1_555
H27 C28 1_555 1_555
H28 C28 1_555 1_555
N19 C30 1_555 1_555
C29 C30 1_555 1_555
N20 C32 1_555 1_555
C31 C32 1_555 1_555
Fe1G C1G 1_555 1_555
Fe2G C6G 1_555 1_555
Zn3G N3G 1_555 1_555
O1G Zn1 1_555 1_555
N1G Zn1 1_555 1_555
N2G Zn2 1_555 1_555
N3G C3G 1_555 1_555
N4G Zn3G 1_555 1_555
N5G Zn3G 1_555 1_555
N6G Zn3G 1_555 1_555
C1G N1G 1_555 1_555
C2G Fe1G 1_555 1_555
C3G Fe2T 1_555 1_555
C4G N4G 1_555 1_555
C5G Fe1G 1_555 1_555
C6G N6G 1_555 1_555
B1G H1G 1_555 1_555
N7G B1G 1_555 1_555
N8G Fe2G 1_555 1_555
N9G B1G 1_555 1_555
N10G Fe2G 1_555 1_555
N11G B1G 1_555 1_555
N12G Fe2G 1_555 1_555
C7G N7G 1_555 1_555
H2G C7G 1_555 1_555
C8G C7G 1_555 1_555
H3G C8G 1_555 1_555
C9G N8G 1_555 1_555
H4G C9G 1_555 1_555
C10G N9G 1_555 1_555
H5G C10G 1_555 1_555
C11G C10G 1_555 1_555
H6G C11G 1_555 1_555
C12G N10G 1_555 1_555
H7G C12G 1_555 1_555
C13G N11G 1_555 1_555
H8G C13G 1_555 1_555
C14G C13G 1_555 1_555
H9G C14G 1_555 1_555
C15G N12G 1_555 1_555
H10G C15G 1_555 1_555
B2G H11G 1_555 1_555
N13G B2G 1_555 1_555
N14G Fe1G 1_555 1_555
N15G B2G 1_555 1_555
N16G Fe1G 1_555 1_555
N17G B2G 1_555 1_555
N18G Fe1G 1_555 1_555
C16G N13G 1_555 1_555
C17G C16G 1_555 1_555
C18G N14G 1_555 1_555
H12G C18G 1_555 1_555
C19G N15G 1_555 1_555
H13G C19G 1_555 1_555
C20G C19G 1_555 1_555
H14G C20G 1_555 1_555
C21G N16G 1_555 1_555
H15G C21G 1_555 1_555
C22G N17G 1_555 1_555
H16G C22G 1_555 1_555
C23G C22G 1_555 1_555
H17G C23G 1_555 1_555
C24G N18G 1_555 1_555
H18G C24G 1_555 1_555
Fe1J C1J 1_555 1_555
Fe2J C6J 1_555 1_555
Zn3J N3J 1_555 1_555
O1J Zn1 1_555 1_555
N1J Zn1 1_555 1_555
N2J Zn2 1_555 1_555
N3J C3J 1_555 1_555
N4J Zn3J 1_555 1_555
N5J Zn3J 1_555 1_555
N6J Zn3J 1_555 1_555
C1J N1J 1_555 1_555
C2J Fe1J 1_555 1_555
C3J Fe2Q 1_555 1_555
C4J N4J 1_555 1_555
C5J Fe1J 1_555 1_555
C6J N6J 1_555 1_555
B1J H1J 1_555 1_555
N7J B1J 1_555 1_555
N8J Fe2J 1_555 1_555
N9J B1J 1_555 1_555
N10J Fe2J 1_555 1_555
N11J B1J 1_555 1_555
N12J Fe2J 1_555 1_555
C7J N7J 1_555 1_555
H2J C7J 1_555 1_555
C8J C7J 1_555 1_555
H3J C8J 1_555 1_555
C9J N8J 1_555 1_555
H4J C9J 1_555 1_555
C10J N9J 1_555 1_555
H5J C10J 1_555 1_555
C11J C10J 1_555 1_555
H6J C11J 1_555 1_555
C12J N10J 1_555 1_555
H7J C12J 1_555 1_555
C13J N11J 1_555 1_555
H8J C13J 1_555 1_555
C14J C13J 1_555 1_555
H9J C14J 1_555 1_555
C15J N12J 1_555 1_555
H10J C15J 1_555 1_555
B2J H11J 1_555 1_555
N13J B2J 1_555 1_555
N14J Fe1J 1_555 1_555
N15J B2J 1_555 1_555
N16J Fe1J 1_555 1_555
N17J B2J 1_555 1_555
N18J Fe1J 1_555 1_555
C16J N13J 1_555 1_555
C17J C16J 1_555 1_555
C18J N14J 1_555 1_555
H12J C18J 1_555 1_555
C19J N15J 1_555 1_555
H13J C19J 1_555 1_555
C20J C19J 1_555 1_555
H14J C20J 1_555 1_555
C21J N16J 1_555 1_555
H15J C21J 1_555 1_555
C22J N17J 1_555 1_555
H16J C22J 1_555 1_555
C23J C22J 1_555 1_555
H17J C23J 1_555 1_555
C24J N18J 1_555 1_555
H18J C24J 1_555 1_555
Fe2MA C4 1_555 1_555
Fe2NA C4J 1_555 1_555
Fe2SA C4G 1_555 1_555
C3MA Fe2 1_555 1_555
C3NA Fe2J 1_555 1_555
C3SA Fe2G 1_555 1_555
C4N Fe2 1_555 1_555
C4Q Fe2J 1_555 1_555
C4T Fe2G 1_555 1_555
N2 C2 1_555 1_555
N5 C5 1_555 1_555
N7 N8 1_555 1_555
N9 N10 1_555 1_555
N11 N12 1_555 1_555
C8 C9 1_555 1_555
C11 C12 1_555 1_555
C14 C15 1_555 1_555
N13 N14 1_555 1_555
N15 N16 1_555 1_555
N17 N18 1_555 1_555
C17 C18 1_555 1_555
C20 C21 1_555 1_555
C23 C24 1_555 1_555
C27 C28 1_555 1_555
N2G C2G 1_555 1_555
N5G C5G 1_555 1_555
N7G N8G 1_555 1_555
N9G N10G 1_555 1_555
N11G N12G 1_555 1_555
C8G C9G 1_555 1_555
C11G C12G 1_555 1_555
C14G C15G 1_555 1_555
N13G N14G 1_555 1_555
N15G N16G 1_555 1_555
N17G N18G 1_555 1_555
C17G C18G 1_555 1_555
C20G C21G 1_555 1_555
C23G C24G 1_555 1_555
N2J C2J 1_555 1_555
N5J C5J 1_555 1_555
N7J N8J 1_555 1_555
N9J N10J 1_555 1_555
N11J N12J 1_555 1_555
C8J C9J 1_555 1_555
C11J C12J 1_555 1_555
C14J C15J 1_555 1_555
N13J N14J 1_555 1_555
N15J N16J 1_555 1_555
N17J N18J 1_555 1_555
C17J C18J 1_555 1_555
C20J C21J 1_555 1_555
C23J C24J 1_555 1_555

#END
