
#######################################################################
#
#                 Cambridge Crystallographic Data Centre
#                                CCDC 
#
#######################################################################
#
# If this CIF has been generated from an entry in the Cambridge 
# Structural Database, then it will include bibliographic, chemical, 
# crystal, experimental, refinement or atomic coordinate data resulting 
# from the CCDC's data processing and validation procedures.
#
#######################################################################

data_QEZYUR
_chemical_formula_moiety         '(C4 H13 N2 O29 S7 Sm3 4-)n'
_symmetry_cell_setting           trigonal
_symmetry_space_group_name_H-M   'P 3 1 c'
_symmetry_Int_Tables_number      159
_space_group_name_Hall           'P 3 -2c'
loop_
_symmetry_equiv_pos_site_id
_symmetry_equiv_pos_as_xyz
1 x,y,z
2 -y,x-y,z
3 -x+y,-x,z
4 y,x,1/2+z
5 x-y,-y,1/2+z
6 -x,-x+y,1/2+z
_cell_length_a                   14.3551(8)
_cell_length_b                   14.3551(8)
_cell_length_c                   10.1132(11)
_cell_angle_alpha                90
_cell_angle_beta                 90
_cell_angle_gamma                120
_cell_volume                     1804.81
loop_
_atom_site_label
_atom_site_type_symbol
_atom_site_fract_x
_atom_site_fract_y
_atom_site_fract_z
_atom_site_U_iso_or_equiv
_atom_site_thermal_displace_type
Sm1 Sm 0.856617(14) 0.440234(15) 0.90361(2) 0.0131 Uani
S1 S 0.80665(8) 0.66346(8) 0.94150(10) 0.0155 Uani
S2 S 0.99451(8) 0.51923(8) 1.15421(12) 0.0161 Uani
S3 S 0.6667 0.3333 0.69164(17) 0.0140 Uani
O1 O 0.8314(2) 0.7058(2) 0.8076(3) 0.0236 Uani
O2 O 0.8540(2) 0.5955(2) 0.9717(3) 0.0304 Uani
O3 O 0.8483(2) 0.7527(2) 1.0386(3) 0.0232 Uani
O4 O 0.6890(2) 0.5979(2) 0.9595(3) 0.0266 Uani
O5 O 1.0308(2) 0.5483(2) 1.0151(3) 0.0200 Uani
O6 O 0.87678(19) 0.4506(2) 1.1498(3) 0.0206 Uani
O7 O 1.0284(2) 0.6169(2) 1.2364(3) 0.0208 Uani
O8 O 1.0474(2) 0.4638(2) 1.2163(3) 0.0229 Uani
O9 O 0.72230(19) 0.4441(2) 0.7497(3) 0.0161 Uani
O10 O 0.6667 0.3333 0.5498(5) 0.0220 Uani
O11 O 0.6667 0.3333 0.9902(5) 0.0178 Uani
O9A O 0.5559(2) 0.27820(28) 0.7497(3) 0.0161 Uani
O9B O 0.72180(28) 0.27770(19) 0.7497(3) 0.0161 Uani
Sm1A Sm 0.559766(15) 0.416383(21) 0.90361(2) 0.0131 Uani
S1A S 0.33654(8) 0.14319(11) 0.94150(10) 0.0155 Uani
S2A S 0.48077(8) 0.47528(11) 1.15421(12) 0.0161 Uani
O1A O 0.2942(2) 0.1256(3) 0.8076(3) 0.0236 Uani
O2A O 0.4045(2) 0.2585(3) 0.9717(3) 0.0304 Uani
O3A O 0.2473(2) 0.0956(3) 1.0386(3) 0.0232 Uani
O4A O 0.4021(2) 0.0911(3) 0.9595(3) 0.0266 Uani
O5A O 0.4517(2) 0.4825(3) 1.0151(3) 0.0200 Uani
O6A O 0.5494(2) 0.42618(28) 1.1498(3) 0.0206 Uani
O7A O 0.3831(2) 0.4115(3) 1.2364(3) 0.0208 Uani
O8A O 0.5362(2) 0.5836(3) 1.2163(3) 0.0229 Uani
Sm1B Sm 0.583617(21) 0.143383(14) 0.90361(2) 0.0131 Uani
S1B S 0.85681(11) 0.19335(8) 0.94150(10) 0.0155 Uani
S2B S 0.52472(11) 0.00549(8) 1.15421(12) 0.0161 Uani
O1B O 0.8744(3) 0.1686(2) 0.8076(3) 0.0236 Uani
O2B O 0.7415(3) 0.1460(2) 0.9717(3) 0.0304 Uani
O3B O 0.9044(3) 0.1517(2) 1.0386(3) 0.0232 Uani
O4B O 0.9089(3) 0.3110(2) 0.9595(3) 0.0266 Uani
O5B O 0.5175(3) -0.0308(2) 1.0151(3) 0.0200 Uani
O6B O 0.57382(28) 0.12322(19) 1.1498(3) 0.0206 Uani
O7B O 0.5885(3) -0.0284(2) 1.2364(3) 0.0208 Uani
O8B O 0.4164(3) -0.0474(2) 1.2163(3) 0.0229 Uani
Sm1C Sm 0.440234(15) -0.143383(14) 1.40361(2) 0.0131 Uani
Sm1D Sm 0.416383(21) 0.559766(15) 1.40361(2) 0.0131 Uani
Sm1E Sm 1.143383(14) 0.583617(21) 1.40361(2) 0.0131 Uani
O7C O 0.6169(2) 0.0284(2) 0.7364(3) 0.0208 Uani
O7D O 0.4115(3) 0.3831(2) 0.7364(3) 0.0208 Uani
O7E O 0.9716(2) 0.5885(3) 0.7364(3) 0.0208 Uani
O8C O 0.4638(2) 0.0474(2) 0.7163(3) 0.0229 Uani
O8D O 0.5836(3) 0.5362(2) 0.7163(3) 0.0229 Uani
O8E O 0.9526(2) 0.4164(3) 0.7163(3) 0.0229 Uani
C1 C 0.7677(4) 0.5975(4) 0.3080(5) 0.0307 Uani
H1 H 0.7164 0.6212 0.2903 0.0370 Uiso
H2 H 0.7528 0.5392 0.2474 0.0370 Uiso
C2 C 0.8954(3) 0.7363(4) 0.5182(4) 0.0327 Uani
H3 H 0.9455 0.7108 0.5352 0.0390 Uiso
H4 H 0.9115 0.7945 0.5794 0.0390 Uiso
C3 C 0.7532(4) 0.5570(3) 0.4456(5) 0.0353 Uani
H5 H 0.7979 0.5250 0.4606 0.0420 Uiso
H6 H 0.6788 0.5019 0.4594 0.0420 Uiso
N1 N 0.7831(3) 0.6468(3) 0.5407(3) 0.0298 Uani
H7 H 0.7771 0.6219 0.6238 0.0360 Uiso
H8 H 0.7373 0.6720 0.5318 0.0360 Uiso
C4 C 0.9094(3) 0.7771(3) 0.3793(4) 0.0246 Uani
H9 H 0.8651 0.8097 0.3654 0.0300 Uiso
H10 H 0.9839 0.8319 0.3652 0.0300 Uiso
N2 N 0.8788(3) 0.6885(3) 0.2833(4) 0.0251 Uani
H11 H 0.9257 0.6644 0.2889 0.0300 Uiso
H12 H 0.8825 0.7137 0.2008 0.0300 Uiso
loop_
_atom_site_aniso_label
_atom_site_aniso_U_11
_atom_site_aniso_U_22
_atom_site_aniso_U_33
_atom_site_aniso_U_23
_atom_site_aniso_U_13
_atom_site_aniso_U_12
Sm1 0.01242(8) 0.01396(9) 0.01256(8) 0.00005(9) -0.00035(9) 0.00640(7)
S1 0.0172(4) 0.0159(5) 0.0127(5) -0.0010(4) -0.0005(4) 0.0078(4)
S2 0.0156(4) 0.0168(5) 0.0147(5) -0.0022(4) -0.0031(4) 0.0071(4)
S3 0.0139(6) 0.0139(6) 0.0141(10) 0.000 0.000 0.0069(3)
O1 0.0305(15) 0.0227(14) 0.0116(15) 0.0005(12) 0.0017(13) 0.0088(12)
O2 0.0456(15) 0.0327(14) 0.0296(18) -0.0091(13) -0.0118(15) 0.0321(12)
O3 0.0292(15) 0.0194(14) 0.0183(16) -0.0069(13) -0.0052(14) 0.0101(12)
O4 0.0147(14) 0.0289(16) 0.0281(18) -0.0072(14) 0.0021(14) 0.0049(12)
O5 0.0173(13) 0.0211(14) 0.0154(16) -0.0015(12) 0.0008(13) 0.0049(12)
O6 0.0158(13) 0.0194(13) 0.0228(17) 0.0006(12) -0.0015(13) 0.0059(11)
O7 0.0244(14) 0.0183(14) 0.0190(16) -0.0075(12) -0.0067(13) 0.0101(11)
O8 0.0295(14) 0.0240(14) 0.0196(17) -0.0031(12) -0.0092(13) 0.0167(11)
O9 0.0146(12) 0.0168(13) 0.0175(16) -0.0017(12) -0.0014(12) 0.0082(11)
O10 0.0269(18) 0.0269(18) 0.012(3) 0.000 0.000 0.0134(9)
O11 0.0202(17) 0.0202(17) 0.013(3) 0.000 0.000 0.0101(8)
O9A 0.0168 0.015 0.0175 0.0003 0.0017 0.0086
O9B 0.015 0.0146 0.0175 0.0014 -0.0003 0.0064
Sm1A 0.01396 0.01358 0.01256 -0.0004 -5e-05 0.00756
S1A 0.0159 0.0175 0.0127 0.0005 0.001 0.0081
S2A 0.0168 0.0182 0.0147 -0.0009 0.0022 0.0097
O1A 0.0227 0.0356 0.0116 0.0012 -0.0005 0.0139
O2A 0.0327 0.0141 0.0296 -0.0027 0.0091 0.0006
O3A 0.0194 0.0284 0.0183 0.0017 0.0069 0.0093
O4A 0.0289 0.0338 0.0281 0.0093 0.0072 0.024
O5A 0.0211 0.0286 0.0154 0.0023 0.0015 0.0162
O6A 0.0194 0.0234 0.0228 -0.0021 -0.0006 0.0135
O7A 0.0183 0.0225 0.019 0.0008 0.0075 0.0082
O8A 0.024 0.0201 0.0196 -0.0061 0.0031 0.0073
Sm1B 0.01358 0.01242 0.01256 0.00035 0.0004 0.00602
S1B 0.0175 0.0172 0.0127 0.0005 -0.0005 0.0094
S2B 0.0182 0.0156 0.0147 0.0031 0.0009 0.0085
O1B 0.0356 0.0305 0.0116 -0.0017 -0.0012 0.0217
O2B 0.0141 0.0456 0.0296 0.0118 0.0027 0.0135
O3B 0.0284 0.0292 0.0183 0.0052 -0.0017 0.0191
O4B 0.0338 0.0147 0.0281 -0.0021 -0.0093 0.0098
O5B 0.0286 0.0173 0.0154 -0.0008 -0.0023 0.0124
O6B 0.0234 0.0158 0.0228 0.0015 0.0021 0.0099
O7B 0.0225 0.0244 0.019 0.0067 -0.0008 0.0143
O8B 0.0201 0.0295 0.0196 0.0092 0.0061 0.0128
Sm1C 0.01396 0.01242 0.01256 -0.00035 5e-05 0.0064
Sm1D 0.01358 0.01396 0.01256 -5e-05 -0.0004 0.00756
Sm1E 0.01242 0.01358 0.01256 0.0004 0.00035 0.00602
O7C 0.0183 0.0244 0.019 -0.0067 -0.0075 0.0101
O7D 0.0225 0.0183 0.019 0.0075 0.0008 0.0082
O7E 0.0244 0.0225 0.019 -0.0008 0.0067 0.0143
O8C 0.024 0.0295 0.0196 -0.0092 -0.0031 0.0167
O8D 0.0201 0.024 0.0196 0.0031 -0.0061 0.0073
O8E 0.0295 0.0201 0.0196 0.0061 0.0092 0.0128
C1 0.030(2) 0.034(2) 0.024(3) -0.001(2) 0.004(2) 0.013(2)
C2 0.031(2) 0.053(3) 0.018(3) -0.003(2) -0.006(2) 0.024(2)
C3 0.031(2) 0.028(2) 0.051(4) 0.017(2) 0.006(2) 0.0178(18)
N1 0.0351(19) 0.050(2) 0.012(2) 0.0122(18) 0.0060(17) 0.0270(16)
C4 0.026(2) 0.026(2) 0.025(3) 0.0001(19) 0.004(2) 0.0155(17)
N2 0.0273(17) 0.0412(19) 0.015(2) 0.0041(17) 0.0000(16) 0.0232(15)
loop_
_geom_bond_atom_site_label_1
_geom_bond_atom_site_label_2
_geom_bond_site_symmetry_1
_geom_bond_site_symmetry_2
Sm1 O2 1_555 1_555
S1 O1 1_555 1_555
S2 O5 1_555 1_555
S3 O9 1_555 1_555
O2 S1 1_555 1_555
O3 S1 1_555 1_555
O4 S1 1_555 1_555
O5 Sm1 1_555 1_555
O6 Sm1 1_555 1_555
O7 S2 1_555 1_555
O8 S2 1_555 1_555
O9 Sm1 1_555 1_555
O10 S3 1_555 1_555
O11 Sm1 1_555 1_555
C1 H1 1_555 1_555
H2 C1 1_555 1_555
C2 H3 1_555 1_555
H4 C2 1_555 1_555
C3 C1 1_555 1_555
H5 C3 1_555 1_555
H6 C3 1_555 1_555
N1 C2 1_555 1_555
H7 N1 1_555 1_555
H8 N1 1_555 1_555
C4 C2 1_555 1_555
H9 C4 1_555 1_555
H10 C4 1_555 1_555
N2 C1 1_555 1_555
H11 N2 1_555 1_555
H12 N2 1_555 1_555
O9A S3 1_555 1_555
O9B Sm1 1_555 1_555
Sm1A O4 1_555 1_555
S1A O1A 1_555 1_555
S2A O5A 1_555 1_555
O2A Sm1A 1_555 1_555
O3A S1A 1_555 1_555
O4A S1A 1_555 1_555
O5A Sm1A 1_555 1_555
O6A Sm1A 1_555 1_555
O7A S2A 1_555 1_555
O8A S2A 1_555 1_555
Sm1B O11 1_555 1_555
S1B O1B 1_555 1_555
S2B O5B 1_555 1_555
O2B Sm1B 1_555 1_555
O3B S1B 1_555 1_555
O4B Sm1 1_555 1_555
O5B Sm1B 1_555 1_555
O6B Sm1B 1_555 1_555
O7B S2B 1_555 1_555
O8B S2B 1_555 1_555
Sm1C O7B 1_555 1_555
Sm1D O7A 1_555 1_555
Sm1E O7 1_555 1_555
O7C Sm1B 1_555 1_555
O7D Sm1A 1_555 1_555
O7E Sm1 1_555 1_555
O8C Sm1B 1_555 1_555
O8D Sm1A 1_555 1_555
O8E Sm1 1_555 1_555
S2 O6 1_555 1_555
S3 O9B 1_555 1_555
O8 Sm1E 1_555 1_555
O9 Sm1A 1_555 1_555
O11 Sm1A 1_555 1_555
C3 N1 1_555 1_555
C4 N2 1_555 1_555
O9A Sm1A 1_555 1_555
O9A Sm1B 1_555 1_555
O9B Sm1B 1_555 1_555
S1A O2A 1_555 1_555
S2A O6A 1_555 1_555
O4A Sm1B 1_555 1_555
O8A Sm1D 1_555 1_555
S1B O2B 1_555 1_555
S1B O4B 1_555 1_555
S2B O6B 1_555 1_555
O8B Sm1C 1_555 1_555

#END
