
#######################################################################
#
#                 Cambridge Crystallographic Data Centre
#                                CCDC 
#
#######################################################################
#
# If this CIF has been generated from an entry in the Cambridge 
# Structural Database, then it will include bibliographic, chemical, 
# crystal, experimental, refinement or atomic coordinate data resulting 
# from the CCDC's data processing and validation procedures.
#
#######################################################################

data_QEZZEC
_chemical_formula_moiety         '(C4 H13 N2 O29 S7 Tb3 4-)n'
_symmetry_cell_setting           trigonal
_symmetry_space_group_name_H-M   'P 3 1 c'
_symmetry_Int_Tables_number      159
_space_group_name_Hall           'P 3 -2c'
loop_
_symmetry_equiv_pos_site_id
_symmetry_equiv_pos_as_xyz
1 x,y,z
2 -y,x-y,z
3 -x+y,-x,z
4 y,x,1/2+z
5 x-y,-y,1/2+z
6 -x,-x+y,1/2+z
_cell_length_a                   14.2698(16)
_cell_length_b                   14.2698(16)
_cell_length_c                   10.066(2)
_cell_angle_alpha                90
_cell_angle_beta                 90
_cell_angle_gamma                120
_cell_volume                     1775.1
loop_
_atom_site_label
_atom_site_type_symbol
_atom_site_fract_x
_atom_site_fract_y
_atom_site_fract_z
Tb1 Tb 0.441030(14) -0.143408(15) 1.219529(18)
S1 S 0.66197(8) -0.19377(8) 1.25639(11)
S2 S 0.51994(8) -0.00466(8) 1.46868(12)
S3 S 0.3333 -0.3333 1.00955(18)
O1 O 0.7039(2) -0.1708(2) 1.1210(3)
O2 O 0.5933(2) -0.3116(2) 1.2761(3)
O3 O 0.5965(2) -0.1428(2) 1.2858(3)
O4 O 0.7526(2) -0.1534(2) 1.3508(3)
O5 O 0.5468(2) 0.0303(2) 1.3298(3)
O6 O 0.6187(2) 0.0296(2) 1.5507(3)
O7 O 0.4518(2) -0.1235(2) 1.4657(3)
O8 O 0.4650(2) 0.0478(2) 1.5332(3)
O9 O 0.4450(2) -0.2760(2) 1.0683(3)
O10 O 0.3333 -0.3333 0.8693(5)
O11 O 0.3333 -0.3333 1.3047(5)
O9A O 0.2760(2) -0.2790(3) 1.0683(3)
O9B O 0.2790(3) -0.4450(2) 1.0683(3)
Tb1A Tb 0.143408(15) -0.415562(21) 1.219529(18)
S1A S 0.19377(8) -0.14426(11) 1.25639(11)
S2A S 0.00466(8) -0.47540(11) 1.46868(12)
O1A O 0.1708(2) -0.1253(3) 1.1210(3)
O2A O 0.3116(2) -0.0951(3) 1.2761(3)
O3A O 0.1428(2) -0.2607(3) 1.2858(3)
O4A O 0.1534(2) -0.0940(3) 1.3508(3)
O5A O -0.0303(2) -0.4835(3) 1.3298(3)
O6A O -0.0296(2) -0.4109(3) 1.5507(3)
O7A O 0.1235(2) -0.4247(3) 1.4657(3)
O8A O -0.0478(2) -0.5828(3) 1.5332(3)
Tb1B Tb 0.415562(21) -0.441030(14) 1.219529(18)
S1B S 0.14426(11) -0.66197(8) 1.25639(11)
S2B S 0.47540(11) -0.51994(8) 1.46868(12)
O1B O 0.1253(3) -0.7039(2) 1.1210(3)
O2B O 0.0951(3) -0.5933(2) 1.2761(3)
O3B O 0.2607(3) -0.5965(2) 1.2858(3)
O4B O 0.0940(3) -0.7526(2) 1.3508(3)
O5B O 0.4835(3) -0.5468(2) 1.3298(3)
O6B O 0.4109(3) -0.6187(2) 1.5507(3)
O7B O 0.4247(3) -0.4518(2) 1.4657(3)
O8B O 0.5828(3) -0.4650(2) 1.5332(3)
Tb1C Tb -0.143408(15) -0.558970(14) 1.719529(18)
Tb1D Tb 0.584438(21) 0.143408(15) 1.719529(18)
Tb1E Tb 0.558970(14) -0.584438(21) 1.719529(18)
O6C O 0.0296(2) -0.3813(2) 1.0507(3)
O6D O 0.5891(3) -0.0296(2) 1.0507(3)
O6E O 0.3813(2) -0.5891(3) 1.0507(3)
O8C O 0.0478(2) -0.5350(2) 1.0332(3)
O8D O 0.4172(3) -0.0478(2) 1.0332(3)
O8E O 0.5350(2) -0.4172(3) 1.0332(3)
N1 N 0.8628(3) 0.2167(3) 1.3550(4)
H1 H 0.8438 0.2230 1.4384
H2 H 0.9342 0.2630 1.3460
C1 C 0.8027(4) 0.2464(4) 1.2594(5)
H3 H 0.8212 0.3210 1.2735
H4 H 0.7255 0.2006 1.2733
N2 N 0.8094(3) 0.1202(3) 1.0962(4)
H5 H 0.8308 0.1151 1.0137
H6 H 0.7378 0.0738 1.1023
C2 C 0.8679(3) 0.0895(3) 1.1958(5)
H7 H 0.8482 0.0145 1.1824
H8 H 0.9453 0.1340 1.1823
C3 C 0.8315(4) 0.2326(4) 1.1192(5)
H9 H 0.7896 0.2487 1.0570
H10 H 0.9075 0.2832 1.1034
C4 C 0.8405(4) 0.1041(4) 1.3337(5)
H11 H 0.8828 0.0884 1.3959
H12 H 0.7645 0.0536 1.3505
loop_
_geom_bond_atom_site_label_1
_geom_bond_atom_site_label_2
_geom_bond_site_symmetry_1
_geom_bond_site_symmetry_2
Tb1 O3 1_555 1_555
S1 O1 1_555 1_555
S2 O5 1_555 1_555
S3 O9 1_555 1_555
O2 S1 1_555 1_555
O3 S1 1_555 1_555
O4 S1 1_555 1_555
O5 Tb1 1_555 1_555
O6 S2 1_555 1_555
O7 Tb1 1_555 1_555
O8 S2 1_555 1_555
O9 Tb1 1_555 1_555
O10 S3 1_555 1_555
O11 Tb1 1_555 1_555
N1 H1 1_555 1_555
H2 N1 1_555 1_555
C1 N1 1_555 1_555
H3 C1 1_555 1_555
H4 C1 1_555 1_555
N2 H5 1_555 1_555
H6 N2 1_555 1_555
C2 N2 1_555 1_555
H7 C2 1_555 1_555
H8 C2 1_555 1_555
C3 C1 1_555 1_555
H9 C3 1_555 1_555
H10 C3 1_555 1_555
C4 N1 1_555 1_555
H11 C4 1_555 1_555
H12 C4 1_555 1_555
O9A Tb1 1_555 1_555
O9B S3 1_555 1_555
Tb1A O11 1_555 1_555
S1A O1A 1_555 1_555
S2A O5A 1_555 1_555
O2A Tb1 1_555 1_555
O3A Tb1A 1_555 1_555
O4A S1A 1_555 1_555
O5A Tb1A 1_555 1_555
O6A S2A 1_555 1_555
O7A Tb1A 1_555 1_555
O8A S2A 1_555 1_555
Tb1B O2 1_555 1_555
S1B O1B 1_555 1_555
S2B O5B 1_555 1_555
O2B Tb1A 1_555 1_555
O3B Tb1B 1_555 1_555
O4B S1B 1_555 1_555
O5B Tb1B 1_555 1_555
O6B S2B 1_555 1_555
O7B Tb1B 1_555 1_555
O8B S2B 1_555 1_555
Tb1C O6A 1_555 1_555
Tb1D O6 1_555 1_555
Tb1E O6B 1_555 1_555
O6C Tb1A 1_555 1_555
O6D Tb1 1_555 1_555
O6E Tb1B 1_555 1_555
O8C Tb1A 1_555 1_555
O8D Tb1 1_555 1_555
O8E Tb1B 1_555 1_555
S2 O7 1_555 1_555
S3 O9A 1_555 1_555
O8 Tb1D 1_555 1_555
O9 Tb1B 1_555 1_555
O11 Tb1B 1_555 1_555
N2 C3 1_555 1_555
C2 C4 1_555 1_555
O9A Tb1A 1_555 1_555
O9B Tb1A 1_555 1_555
O9B Tb1B 1_555 1_555
S1A O2A 1_555 1_555
S1A O3A 1_555 1_555
S2A O7A 1_555 1_555
O8A Tb1C 1_555 1_555
S1B O2B 1_555 1_555
S1B O3B 1_555 1_555
S2B O7B 1_555 1_555
O8B Tb1E 1_555 1_555

#END
