
#######################################################################
#
#                 Cambridge Crystallographic Data Centre
#                                CCDC 
#
#######################################################################
#
# If this CIF has been generated from an entry in the Cambridge 
# Structural Database, then it will include bibliographic, chemical, 
# crystal, experimental, refinement or atomic coordinate data resulting 
# from the CCDC's data processing and validation procedures.
#
#######################################################################

data_QEZZAY
_chemical_formula_moiety         '(C4 H13 Eu3 N2 O29 S7 4-)n'
_symmetry_cell_setting           trigonal
_symmetry_space_group_name_H-M   'P 3 1 c'
_symmetry_Int_Tables_number      159
_space_group_name_Hall           'P 3 -2c'
loop_
_symmetry_equiv_pos_site_id
_symmetry_equiv_pos_as_xyz
1 x,y,z
2 -y,x-y,z
3 -x+y,-x,z
4 y,x,1/2+z
5 x-y,-y,1/2+z
6 -x,-x+y,1/2+z
_cell_length_a                   14.3280(9)
_cell_length_b                   14.3280(9)
_cell_length_c                   10.0966(7)
_cell_angle_alpha                90
_cell_angle_beta                 90
_cell_angle_gamma                120
_cell_volume                     1795.05
loop_
_atom_site_label
_atom_site_type_symbol
_atom_site_fract_x
_atom_site_fract_y
_atom_site_fract_z
_atom_site_U_iso_or_equiv
_atom_site_thermal_displace_type
Eu1 Eu 1.584067(11) 0.143469(12) 0.613081(14) 0.0115 Uani
S1 S 1.33717(6) 0.14357(6) 0.57498(9) 0.0142 Uani
S2 S 1.52440(6) 0.00489(6) 0.36328(9) 0.0150 Uani
S3 S 1.6667 0.3333 0.82408(14) 0.0130 Uani
O1 O 1.57412(19) 0.12260(18) 0.3671(3) 0.0207 Uani
O2 O 1.41705(17) -0.04695(19) 0.3003(3) 0.0204 Uani
O3 O 1.51624(18) -0.03111(17) 0.5015(2) 0.0179 Uani
O4 O 1.58764(18) -0.02937(19) 0.2812(3) 0.0217 Uani
O5 O 1.24741(17) 0.09469(19) 0.4792(2) 0.0211 Uani
O6 O 1.4036(2) 0.25905(19) 0.5453(3) 0.0302 Uani
O7 O 1.40363(18) 0.0923(2) 0.5565(3) 0.0255 Uani
O8 O 1.29497(19) 0.1249(2) 0.7096(3) 0.0261 Uani
O9 O 1.72241(17) 0.44457(16) 0.7664(2) 0.0172 Uani
O10 O 1.6667 0.3333 0.9657(4) 0.0232 Uani
O11 O 1.6667 0.3333 0.5284(4) 0.0148 Uani
O9A O 1.55543(16) 0.27784(23) 0.7664(2) 0.0172 Uani
O9B O 1.72216(23) 0.27759(17) 0.7664(2) 0.0172 Uani
Eu1A Eu 1.856531(12) 0.440598(16) 0.613081(14) 0.0115 Uani
S1A S 1.85643(6) 0.19360(8) 0.57498(9) 0.0142 Uani
S2A S 1.99511(6) 0.51951(8) 0.36328(9) 0.0150 Uani
O1A O 1.87740(18) 0.45152(26) 0.3671(3) 0.0207 Uani
O2A O 2.04695(19) 0.46400(25) 0.3003(3) 0.0204 Uani
O3A O 2.03111(17) 0.54735(25) 0.5015(2) 0.0179 Uani
O4A O 2.02937(19) 0.61701(26) 0.2812(3) 0.0217 Uani
O5A O 1.90531(19) 0.15272(25) 0.4792(2) 0.0211 Uani
O6A O 1.74095(19) 0.14455(28) 0.5453(3) 0.0302 Uani
O7A O 1.9077(2) 0.31133(27) 0.5565(3) 0.0255 Uani
O8A O 1.8751(2) 0.17007(28) 0.7096(3) 0.0261 Uani
Eu1B Eu 1.559402(16) 0.415933(11) 0.613081(14) 0.0115 Uani
S1B S 1.80640(8) 0.66283(6) 0.57498(9) 0.0142 Uani
S2B S 1.48049(8) 0.47560(6) 0.36328(9) 0.0150 Uani
O1B O 1.54848(26) 0.42588(19) 0.3671(3) 0.0207 Uani
O2B O 1.53600(25) 0.58295(17) 0.3003(3) 0.0204 Uani
O3B O 1.45265(25) 0.48376(18) 0.5015(2) 0.0179 Uani
O4B O 1.38299(26) 0.41236(18) 0.2812(3) 0.0217 Uani
O5B O 1.84728(25) 0.75259(17) 0.4792(2) 0.0211 Uani
O6B O 1.85545(28) 0.5964(2) 0.5453(3) 0.0302 Uani
O7B O 1.68867(27) 0.59637(18) 0.5565(3) 0.0255 Uani
O8B O 1.82993(28) 0.70503(19) 0.7096(3) 0.0261 Uani
Eu1C Eu 2.143469(12) 0.584067(11) 0.113081(14) 0.0115 Uani
Eu1D Eu 1.440598(16) -0.143469(12) 0.113081(14) 0.0115 Uani
Eu1E Eu 1.415933(11) 0.559402(16) 0.113081(14) 0.0115 Uani
O2C O 1.95305(19) 0.41705(17) 0.8003(3) 0.0204 Uani
O2D O 1.46400(25) 0.04695(19) 0.8003(3) 0.0204 Uani
O2E O 1.58295(17) 0.53600(25) 0.8003(3) 0.0204 Uani
O4C O 1.97063(19) 0.58764(18) 0.7812(3) 0.0217 Uani
O4D O 1.61701(26) 0.02937(19) 0.7812(3) 0.0217 Uani
O4E O 1.41236(18) 0.38299(26) 0.7812(3) 0.0217 Uani
N1 N 1.1373(2) 0.3540(3) 0.4763(3) 0.0310 Uani
H1 H 1.1561 0.3796 0.3933 0.0370 Uiso
H2 H 1.0661 0.3283 0.4853 0.0370 Uiso
N2 N 1.1907(2) 0.3119(3) 0.7362(3) 0.0243 Uani
H3 H 1.1690 0.2859 0.8185 0.0290 Uiso
H4 H 1.2621 0.3371 0.7307 0.0290 Uiso
C1 C 1.1968(3) 0.4433(3) 0.5725(4) 0.0304 Uani
H5 H 1.1783 0.4990 0.5583 0.0360 Uiso
H6 H 1.2738 0.4747 0.5588 0.0360 Uiso
C2 C 1.1684(3) 0.4014(3) 0.7113(4) 0.0328 Uani
H7 H 1.2098 0.4596 0.7730 0.0390 Uiso
H8 H 1.0926 0.3759 0.7267 0.0390 Uiso
C3 C 1.1609(3) 0.2645(3) 0.4972(4) 0.0326 Uani
H9 H 1.2367 0.2904 0.4809 0.0390 Uiso
H10 H 1.1192 0.2065 0.4353 0.0390 Uiso
C4 C 1.1328(3) 0.2231(3) 0.6371(4) 0.0248 Uani
H11 H 1.0557 0.1905 0.6500 0.0300 Uiso
H12 H 1.1521 0.1678 0.6513 0.0300 Uiso
loop_
_atom_site_aniso_label
_atom_site_aniso_U_11
_atom_site_aniso_U_22
_atom_site_aniso_U_33
_atom_site_aniso_U_23
_atom_site_aniso_U_13
_atom_site_aniso_U_12
Eu1 0.01150(6) 0.01116(6) 0.01133(7) -0.00057(6) -0.00031(7) 0.00539(5)
S1 0.0134(3) 0.0169(3) 0.0106(4) 0.0003(3) 0.0009(3) 0.0064(3)
S2 0.0153(3) 0.0147(3) 0.0142(4) -0.0034(3) -0.0013(3) 0.0068(3)
S3 0.0142(4) 0.0142(4) 0.0107(7) 0.000 0.000 0.0071(2)
O1 0.0237(11) 0.0132(10) 0.0193(15) -0.0009(10) -0.0014(10) 0.0049(9)
O2 0.0150(10) 0.0237(11) 0.0208(14) -0.0091(10) -0.0064(10) 0.0084(9)
O3 0.0255(11) 0.0139(10) 0.0133(13) -0.0001(9) -0.0009(10) 0.0091(9)
O4 0.0193(11) 0.0248(12) 0.0200(14) -0.0064(10) -0.0004(10) 0.0103(9)
O5 0.0160(10) 0.0294(12) 0.0140(13) -0.0037(10) -0.0043(10) 0.0085(9)
O6 0.0335(13) 0.0166(12) 0.0279(16) 0.0033(11) -0.0079(12) 0.0031(10)
O7 0.0211(10) 0.0357(12) 0.0281(15) -0.0096(11) -0.0086(11) 0.0206(9)
O8 0.0245(11) 0.0411(14) 0.0087(13) 0.0009(11) 0.0055(11) 0.0134(10)
O9 0.0199(10) 0.0125(10) 0.0183(13) -0.0008(9) 0.0021(10) 0.0075(8)
O10 0.0277(15) 0.0277(15) 0.014(2) 0.000 0.000 0.0138(7)
O11 0.0162(12) 0.0162(12) 0.012(2) 0.000 0.000 0.0081(6)
O9A 0.0125 0.0174 0.0183 0.0029 0.0008 0.005
O9B 0.0174 0.0199 0.0183 -0.0021 -0.0029 0.0124
Eu1A 0.01116 0.01188 0.01133 0.00026 0.00057 0.00577
S1A 0.0169 0.0175 0.0106 0.0006 -0.0003 0.0105
S2A 0.0147 0.0164 0.0142 0.0021 0.0034 0.0079
O1A 0.0132 0.0271 0.0193 -0.0005 0.0009 0.0083
O2A 0.0237 0.0219 0.0208 0.0027 0.0091 0.0153
O3A 0.0139 0.0212 0.0133 -0.0008 0.0001 0.0048
O4A 0.0248 0.0235 0.02 0.006 0.0064 0.0145
O5A 0.0294 0.0284 0.014 -0.0006 0.0037 0.0209
O6A 0.0166 0.0439 0.0279 -0.0112 -0.0033 0.0135
O7A 0.0357 0.0156 0.0281 0.001 0.0096 0.0151
O8A 0.0411 0.0388 0.0087 0.0046 -0.0009 0.0277
Eu1B 0.01188 0.0115 0.01133 0.00031 -0.00026 0.00611
S1B 0.0175 0.0134 0.0106 -0.0009 -0.0006 0.007
S2B 0.0164 0.0153 0.0142 0.0013 -0.0021 0.0085
O1B 0.0271 0.0237 0.0193 0.0014 0.0005 0.0188
O2B 0.0219 0.015 0.0208 0.0064 -0.0027 0.0066
O3B 0.0212 0.0255 0.0133 0.0009 0.0008 0.0164
O4B 0.0235 0.0193 0.02 0.0004 -0.006 0.009
O5B 0.0284 0.016 0.014 0.0043 0.0006 0.0075
O6B 0.0439 0.0335 0.0279 0.0079 0.0112 0.0304
O7B 0.0156 0.0211 0.0281 0.0086 -0.001 0.0005
O8B 0.0388 0.0245 0.0087 -0.0055 -0.0046 0.0111
Eu1C 0.01116 0.0115 0.01133 -0.00031 -0.00057 0.00539
Eu1D 0.01188 0.01116 0.01133 0.00057 0.00026 0.00577
Eu1E 0.0115 0.01188 0.01133 -0.00026 0.00031 0.00611
O2C 0.0237 0.015 0.0208 -0.0064 -0.0091 0.0084
O2D 0.0219 0.0237 0.0208 0.0091 0.0027 0.0153
O2E 0.015 0.0219 0.0208 -0.0027 0.0064 0.0066
O4C 0.0248 0.0193 0.02 -0.0004 -0.0064 0.0103
O4D 0.0235 0.0248 0.02 0.0064 0.006 0.0145
O4E 0.0193 0.0235 0.02 -0.006 0.0004 0.009
N1 0.0315(15) 0.0465(17) 0.0218(19) 0.0116(14) 0.0054(14) 0.0245(13)
N2 0.0201(13) 0.0415(16) 0.0140(17) 0.0034(13) 0.0024(12) 0.0174(12)
C1 0.0239(16) 0.0264(16) 0.043(3) 0.0153(17) 0.0094(17) 0.0141(14)
C2 0.0390(18) 0.0380(19) 0.030(2) -0.0055(17) -0.0032(18) 0.0256(15)
C3 0.0378(19) 0.042(2) 0.023(2) -0.0026(17) -0.0011(17) 0.0238(16)
C4 0.0199(15) 0.0275(17) 0.031(2) 0.0050(16) 0.0031(15) 0.0149(13)
loop_
_geom_bond_atom_site_label_1
_geom_bond_atom_site_label_2
_geom_bond_site_symmetry_1
_geom_bond_site_symmetry_2
Eu1 O1 1_555 1_555
S1 O5 1_555 1_555
S2 O1 1_555 1_555
S3 O9 1_555 1_555
O2 S2 1_555 1_555
O3 Eu1 1_555 1_555
O4 S2 1_555 1_555
O6 S1 1_555 1_555
O7 Eu1 1_555 1_555
O8 S1 1_555 1_555
O9 Eu1A 1_555 1_555
O10 S3 1_555 1_555
O11 Eu1 1_555 1_555
N1 H1 1_555 1_555
H2 N1 1_555 1_555
N2 H3 1_555 1_555
H4 N2 1_555 1_555
C1 N1 1_555 1_555
H5 C1 1_555 1_555
H6 C1 1_555 1_555
C2 N2 1_555 1_555
H7 C2 1_555 1_555
H8 C2 1_555 1_555
C3 N1 1_555 1_555
H9 C3 1_555 1_555
H10 C3 1_555 1_555
C4 N2 1_555 1_555
H11 C4 1_555 1_555
H12 C4 1_555 1_555
O9A Eu1 1_555 1_555
O9B Eu1 1_555 1_555
Eu1A O11 1_555 1_555
S1A O5A 1_555 1_555
S2A O1A 1_555 1_555
O1A Eu1A 1_555 1_555
O2A S2A 1_555 1_555
O3A Eu1A 1_555 1_555
O4A S2A 1_555 1_555
O6A Eu1 1_555 1_555
O7A Eu1A 1_555 1_555
O8A S1A 1_555 1_555
Eu1B O6 1_555 1_555
S1B O5B 1_555 1_555
S2B O1B 1_555 1_555
O1B Eu1B 1_555 1_555
O2B S2B 1_555 1_555
O3B Eu1B 1_555 1_555
O4B S2B 1_555 1_555
O6B Eu1A 1_555 1_555
O7B Eu1B 1_555 1_555
O8B S1B 1_555 1_555
Eu1C O2A 1_555 1_555
Eu1D O2 1_555 1_555
Eu1E O2B 1_555 1_555
O2C Eu1A 1_555 1_555
O2D Eu1 1_555 1_555
O2E Eu1B 1_555 1_555
O4C Eu1A 1_555 1_555
O4D Eu1 1_555 1_555
O4E Eu1B 1_555 1_555
S1 O7 1_555 1_555
S2 O3 1_555 1_555
S3 O9A 1_555 1_555
S3 O9B 1_555 1_555
O4 Eu1D 1_555 1_555
O9 Eu1B 1_555 1_555
O11 Eu1B 1_555 1_555
C1 C2 1_555 1_555
C3 C4 1_555 1_555
O9A Eu1B 1_555 1_555
O9B Eu1A 1_555 1_555
S1A O6A 1_555 1_555
S1A O7A 1_555 1_555
S2A O3A 1_555 1_555
O4A Eu1C 1_555 1_555
S1B O6B 1_555 1_555
S1B O7B 1_555 1_555
S2B O3B 1_555 1_555
O4B Eu1E 1_555 1_555

#END
