
#######################################################################
#
#                 Cambridge Crystallographic Data Centre
#                                CCDC 
#
#######################################################################
#
# If this CIF has been generated from an entry in the Cambridge 
# Structural Database, then it will include bibliographic, chemical, 
# crystal, experimental, refinement or atomic coordinate data resulting 
# from the CCDC's data processing and validation procedures.
#
#######################################################################

data_CABJEX
_chemical_formula_moiety         '(C30 H20 N12 O16 S4 Zn4)n'
_symmetry_cell_setting           orthorhombic
_symmetry_space_group_name_H-M   'P n m a'
_symmetry_Int_Tables_number      62
_space_group_name_Hall           '-P 2ac 2n'
loop_
_symmetry_equiv_pos_site_id
_symmetry_equiv_pos_as_xyz
1 x,y,z
2 1/2-x,-y,1/2+z
3 -x,1/2+y,-z
4 1/2+x,1/2-y,1/2-z
5 -x,-y,-z
6 1/2+x,y,1/2-z
7 x,1/2-y,z
8 1/2-x,1/2+y,1/2+z
_cell_length_a                   20.1368(10)
_cell_length_b                   20.2976(8)
_cell_length_c                   17.4633(12)
_cell_angle_alpha                90
_cell_angle_beta                 90
_cell_angle_gamma                90
_cell_volume                     7137.75
loop_
_atom_site_label
_atom_site_type_symbol
_atom_site_fract_x
_atom_site_fract_y
_atom_site_fract_z
Zn1 Zn 0.23173(4) 0.52176(4) 0.33325(5)
Zn2 Zn 0.27812(4) 0.47912(4) 0.17334(5)
C1 C 0.3539(4) 0.3933(4) 0.0656(5)
C2 C 0.3490(4) 0.3915(4) -0.0624(5)
C3 C 0.2912(5) 0.4691(4) 0.0027(4)
C4 C 0.2448(4) 0.3801(4) 0.2972(5)
C5 C 0.2452(4) 0.3107(4) 0.3185(5)
C6 C 0.2347(4) 0.2852(4) 0.3908(5)
H1 H 0.2283 0.3108 0.4344
C7 C 0.2676(4) 0.6199(4) 0.2060(5)
C8 C 0.2747(4) 0.6895(4) 0.1855(5)
C9 C 0.3017(4) 0.7161(4) 0.1223(5)
H2 H 0.3187 0.6911 0.0823
C10 C 0.1366(5) 0.5021(4) 0.2019(5)
C11 C 0.0673(5) 0.5044(4) 0.1759(5)
C12 C 0.0417(5) 0.5200(3) 0.1062(5)
H3 H 0.0683 0.5286 0.0638
C13 C -0.0290(4) 0.5223(3) 0.1031(5)
H4 H -0.0533 0.5338 0.0598
C14 C -0.0560(5) 0.5060(4) 0.1702(5)
C15 C -0.1260(5) 0.5033(4) 0.1948(5)
O1 O 0.2559(3) 0.3923(2) 0.2278(4)
O2 O 0.2377(3) 0.4237(2) 0.3480(3)
O3 O 0.2904(3) 0.5773(3) 0.1600(3)
O4 O 0.2433(3) 0.6067(2) 0.2704(3)
O5 O 0.1808(3) 0.4949(3) 0.1516(4)
O6 O 0.1460(3) 0.5060(3) 0.2731(3)
O7 O -0.1385(3) 0.4818(3) 0.2593(3)
O8 O -0.1696(3) 0.5245(3) 0.1460(3)
N1 N 0.3131(4) 0.4442(3) 0.0700(4)
N2 N 0.3744(4) 0.3660(4) 0.0017(3)
N3 N 0.3070(4) 0.4435(3) -0.0658(4)
N4 N 0.2442(5) 0.5201(4) 0.0029(4)
H5 H 0.2271 0.5334 -0.0395
H6 H 0.2324 0.5381 0.0454
N5 N 0.3662(4) 0.3620(3) -0.1283(4)
H7 H 0.3923 0.3285 -0.1277
H8 H 0.3510 0.3766 -0.1711
N6 N 0.3790(4) 0.3686(4) 0.1299(4)
H9 H 0.4068 0.3365 0.1280
H10 H 0.3673 0.3846 0.1735
S1 S 0.00367(10) 0.49259(11) 0.23968(15)
S2 S 0.25048(17) 0.7500 0.24756(19)
S3 S 0.25340(18) 0.2500 0.25218(19)
C4F C 0.2448(4) 0.1199(4) 0.2972(5)
C5F C 0.2452(4) 0.1893(4) 0.3185(5)
C6F C 0.2347(4) 0.2148(4) 0.3908(5)
H1F H 0.2283 0.1892 0.4344
O1F O 0.2559(3) 0.1077(2) 0.2278(4)
O2F O 0.2377(3) 0.0763(2) 0.3480(3)
C7F C 0.2676(4) 0.8801(4) 0.2060(5)
C8F C 0.2747(4) 0.8105(4) 0.1855(5)
C9F C 0.3017(4) 0.7839(4) 0.1223(5)
H2F H 0.3187 0.8089 0.0823
O3F O 0.2904(3) 0.9227(3) 0.1600(3)
O4F O 0.2433(3) 0.8933(2) 0.2704(3)
Zn1F Zn 0.23173(4) -0.02176(4) 0.33325(5)
Zn2F Zn 0.27812(4) 0.02088(4) 0.17334(5)
C1F C 0.3539(4) 0.1067(4) 0.0656(5)
C2F C 0.3490(4) 0.1085(4) -0.0624(5)
C3F C 0.2912(5) 0.0309(4) 0.0027(4)
C10F C 0.1366(5) -0.0021(4) 0.2019(5)
C11F C 0.0673(5) -0.0044(4) 0.1759(5)
C12F C 0.0417(5) -0.0200(3) 0.1062(5)
H3F H 0.0683 -0.0286 0.0638
C13F C -0.0290(4) -0.0223(3) 0.1031(5)
H4F H -0.0533 -0.0338 0.0598
C14F C -0.0560(5) -0.0060(4) 0.1702(5)
C15F C -0.1260(5) -0.0033(4) 0.1948(5)
O5F O 0.1808(3) 0.0051(3) 0.1516(4)
O6F O 0.1460(3) -0.0060(3) 0.2731(3)
O7F O -0.1385(3) 0.0182(3) 0.2593(3)
O8F O -0.1696(3) -0.0245(3) 0.1460(3)
N1F N 0.3131(4) 0.0558(3) 0.0700(4)
N2F N 0.3744(4) 0.1340(4) 0.0017(3)
N3F N 0.3070(4) 0.0565(3) -0.0658(4)
N4F N 0.2442(5) -0.0201(4) 0.0029(4)
H5F H 0.2271 -0.0334 -0.0395
H6F H 0.2324 -0.0381 0.0454
N5F N 0.3662(4) 0.1380(3) -0.1283(4)
H7F H 0.3923 0.1715 -0.1277
H8F H 0.3510 0.1234 -0.1711
N6F N 0.3790(4) 0.1314(4) 0.1299(4)
H9F H 0.4068 0.1635 0.1280
H10F H 0.3673 0.1154 0.1735
S1F S 0.00367(10) 0.00741(11) 0.23968(15)
Zn1A Zn 0.26827(4) 0.47824(4) -0.16675(5)
Zn1C Zn -0.26827(4) -0.02176(4) 0.16675(5)
Zn1E Zn -0.26827(4) 0.52176(4) 0.16675(5)
Zn1F_2 Zn 0.23173(4) 0.97824(4) 0.33325(5)
Zn1G Zn 0.26827(4) 0.02176(4) -0.16675(5)
Zn2C Zn -0.22188(4) 0.02088(4) 0.32666(5)
Zn2E Zn -0.22188(4) 0.47912(4) 0.32666(5)
Zn2F_2 Zn 0.27812(4) 1.02088(4) 0.17334(5)
O3F_2 O 0.2904(3) -0.0773(3) 0.1600(3)
O4F_2 O 0.2433(3) -0.1067(2) 0.2704(3)
O7C O 0.3615(3) 0.0182(3) 0.2407(3)
O7E O 0.3615(3) 0.4818(3) 0.2407(3)
O8C O 0.3304(3) -0.0245(3) 0.3540(3)
O8E O 0.3304(3) 0.5245(3) 0.3540(3)
N3A N 0.1930(4) 0.5565(3) 0.4342(4)
N3G N 0.1930(4) -0.0565(3) 0.4342(4)
loop_
_geom_bond_atom_site_label_1
_geom_bond_atom_site_label_2
_geom_bond_site_symmetry_1
_geom_bond_site_symmetry_2
Zn1 O2 1_555 1_555
Zn2 O1 1_555 1_555
C1 N1 1_555 1_555
C2 N2 1_555 1_555
C3 N1 1_555 1_555
C4 C5 1_555 1_555
C5 C6 1_555 1_555
C6 H1 1_555 1_555
C7 C8 1_555 1_555
C8 C9 1_555 1_555
C9 H2 1_555 1_555
C10 C11 1_555 1_555
C11 C12 1_555 1_555
C12 H3 1_555 1_555
C13 C12 1_555 1_555
H4 C13 1_555 1_555
C14 C13 1_555 1_555
C15 C14 1_555 1_555
O1 C4 1_555 1_555
O2 C4 1_555 1_555
O3 Zn2 1_555 1_555
O4 Zn1 1_555 1_555
O5 Zn2 1_555 1_555
O6 Zn1 1_555 1_555
O7 C15 1_555 1_555
O8 C15 1_555 1_555
N1 Zn2 1_555 1_555
N2 C1 1_555 1_555
N3 C2 1_555 1_555
N4 C3 1_555 1_555
H5 N4 1_555 1_555
H6 N4 1_555 1_555
N5 C2 1_555 1_555
H7 N5 1_555 1_555
H8 N5 1_555 1_555
N6 C1 1_555 1_555
H9 N6 1_555 1_555
H10 N6 1_555 1_555
S1 C11 1_555 1_555
S2 C8 1_555 1_555
S3 C5 1_555 1_555
C4F C5F 1_555 1_555
C5F S3 1_555 1_555
C6F C6 1_555 1_555
H1F C6F 1_555 1_555
O1F C4F 1_555 1_555
O2F C4F 1_555 1_555
C7F C8F 1_555 1_555
C8F S2 1_555 1_555
C9F C9 1_555 1_555
H2F C9F 1_555 1_555
O3F C7F 1_555 1_555
O4F C7F 1_555 1_555
Zn1F O2F 1_555 1_555
Zn2F O1F 1_555 1_555
C1F N1F 1_555 1_555
C2F N2F 1_555 1_555
C3F N1F 1_555 1_555
C10F C11F 1_555 1_555
C11F C12F 1_555 1_555
C12F H3F 1_555 1_555
C13F C12F 1_555 1_555
H4F C13F 1_555 1_555
C14F C13F 1_555 1_555
C15F C14F 1_555 1_555
O5F Zn2F 1_555 1_555
O6F Zn1F 1_555 1_555
O7F C15F 1_555 1_555
O8F C15F 1_555 1_555
N1F Zn2F 1_555 1_555
N2F C1F 1_555 1_555
N3F C2F 1_555 1_555
N4F C3F 1_555 1_555
H5F N4F 1_555 1_555
H6F N4F 1_555 1_555
N5F C2F 1_555 1_555
H7F N5F 1_555 1_555
H8F N5F 1_555 1_555
N6F C1F 1_555 1_555
H9F N6F 1_555 1_555
H10F N6F 1_555 1_555
S1F C11F 1_555 1_555
Zn1A N3 1_555 1_555
Zn1C O8F 1_555 1_555
Zn1E O8 1_555 1_555
Zn1F_2 O4F 1_555 1_555
Zn1G N3F 1_555 1_555
Zn2C O7F 1_555 1_555
Zn2E O7 1_555 1_555
Zn2F_2 O3F 1_555 1_555
O3F_2 Zn2F 1_555 1_555
O4F_2 Zn1F 1_555 1_555
O7C Zn2F 1_555 1_555
O7E Zn2 1_555 1_555
O8C Zn1F 1_555 1_555
O8E Zn1 1_555 1_555
N3A Zn1 1_555 1_555
N3G Zn1F 1_555 1_555
C3 N3 1_555 1_555
C7 O3 1_555 1_555
C7 O4 1_555 1_555
C10 O5 1_555 1_555
C10 O6 1_555 1_555
C14 S1 1_555 1_555
C5F C6F 1_555 1_555
C8F C9F 1_555 1_555
C3F N3F 1_555 1_555
C10F O5F 1_555 1_555
C10F O6F 1_555 1_555
C14F S1F 1_555 1_555

#END
