
#######################################################################
#
#                 Cambridge Crystallographic Data Centre
#                                CCDC 
#
#######################################################################
#
# If this CIF has been generated from an entry in the Cambridge 
# Structural Database, then it will include bibliographic, chemical, 
# crystal, experimental, refinement or atomic coordinate data resulting 
# from the CCDC's data processing and validation procedures.
#
#######################################################################

data_LELRUR
_chemical_formula_moiety         '(C74 H106 La2 O38 P8)n'
_symmetry_cell_setting           monoclinic
_symmetry_space_group_name_H-M   'C 2/c'
_symmetry_Int_Tables_number      15
_space_group_name_Hall           '-C 2yc'
loop_
_symmetry_equiv_pos_site_id
_symmetry_equiv_pos_as_xyz
1 x,y,z
2 -x,y,1/2-z
3 1/2+x,1/2+y,z
4 1/2-x,1/2+y,1/2-z
5 -x,-y,-z
6 x,-y,1/2+z
7 1/2-x,1/2-y,-z
8 1/2+x,1/2-y,1/2+z
_cell_length_a                   22.6358(7)
_cell_length_b                   19.0353(5)
_cell_length_c                   27.9879(11)
_cell_angle_alpha                90
_cell_angle_beta                 110.636(2)
_cell_angle_gamma                90
_cell_volume                     11285.7
loop_
_atom_site_label
_atom_site_type_symbol
_atom_site_fract_x
_atom_site_fract_y
_atom_site_fract_z
_atom_site_U_iso_or_equiv
_atom_site_thermal_displace_type
La1 La 0.13435(4) 0.73956(4) 0.00324(3) 0.0631 Uani
P1 P 0.0958(2) 0.63357(18) 0.10123(15) 0.0873 Uani
P2 P 0.51896(19) 0.91331(19) 0.44398(17) 0.0814 Uani
P3 P -0.0387(2) 0.89945(16) 0.47772(19) 0.0838 Uani
P4 P 0.27191(16) 0.37682(14) 0.54188(12) 0.0567 Uani
O1 O 0.0984(5) 0.6955(4) 0.0711(3) 0.0789 Uani
O2 O 0.0276(6) 0.5978(6) 0.0870(4) 0.1198 Uani
O3 O 0.1434(7) 0.5771(5) 0.0962(4) 0.1206 Uani
O4 O 0.5694(4) 0.8657(5) 0.4663(4) 0.0844 Uani
O5 O 0.5237(7) 0.9811(8) 0.4717(8) 0.1996 Uani
O6 O 0.5178(5) 0.9355(8) 0.3894(5) 0.1455 Uani
O7 O -0.0827(5) 0.8429(4) 0.4783(4) 0.0891 Uani
O8 O -0.0717(5) 0.9631(5) 0.4464(5) 0.0997 Uani
O9 O -0.0013(6) 0.9285(6) 0.5330(5) 0.1107 Uani
O10 O 0.3014(5) 0.3263(4) 0.5182(4) 0.0928 Uani
O11 O 0.3211(5) 0.3978(5) 0.5959(4) 0.0834 Uani
O12 O 0.2138(4) 0.3517(4) 0.5506(3) 0.0778 Uani
O13 O 0.0507(7) 0.7811(8) -0.0822(5) 0.1508 Uani
O14 O 0.1698(5) 0.6873(5) -0.0684(4) 0.0965 Uani
O15 O 0.2159(5) 0.7884(5) 0.0891(4) 0.0867 Uani
C2 C 0.1169(7) 0.6547(5) 0.1671(5) 0.0739 Uani
C3 C 0.1325(10) 0.7221(8) 0.1866(7) 0.0472 Uani
H1 H 0.1320 0.7589 0.1636 0.0570 Uiso
C4 C 0.1484(12) 0.7380(9) 0.2371(7) 0.0618 Uani
H2 H 0.1525 0.7856 0.2478 0.0740 Uiso
C5 C 0.1523(14) 0.6150(8) 0.2554(8) 0.0822 Uani
H3 H 0.1605 0.5775 0.2793 0.0980 Uiso
C6 C 0.1340(16) 0.6009(9) 0.2032(8) 0.1065 Uani
C11 C 0.1584(6) 0.6852(5) 0.2725(5) 0.0588 Uani
C12 C 0.1812(6) 0.7023(6) 0.3293(4) 0.0547 Uani
C13 C 0.2441(5) 0.7424(5) 0.3450(4) 0.0503 Uani
H9 H 0.2760 0.7132 0.3374 0.0610 Uiso
H10 H 0.2383 0.7861 0.3247 0.0610 Uiso
C14 C 0.2682(5) 0.7606(5) 0.4019(4) 0.0473 Uani
C15 C 0.2774(5) 0.6914(5) 0.4320(4) 0.0470 Uani
H11 H 0.2936 0.7018 0.4690 0.0570 Uiso
H12 H 0.3092 0.6622 0.4243 0.0570 Uiso
C16 C 0.2151(5) 0.6500(5) 0.4183(4) 0.0461 Uani
C17 C 0.1910(6) 0.6345(5) 0.3607(5) 0.0569 Uani
H13 H 0.2220 0.6043 0.3527 0.0680 Uiso
H14 H 0.1506 0.6086 0.3511 0.0680 Uiso
C18 C 0.2183(5) 0.8038(5) 0.4135(4) 0.0493 Uani
H15 H 0.2117 0.8486 0.3943 0.0590 Uiso
H16 H 0.2334 0.8152 0.4504 0.0590 Uiso
C19 C 0.1661(5) 0.6955(5) 0.4288(4) 0.0492 Uani
H17 H 0.1801 0.7057 0.4658 0.0590 Uiso
H18 H 0.1257 0.6695 0.4191 0.0590 Uiso
C20 C 0.1336(6) 0.7483(5) 0.3423(5) 0.0533 Uani
H19 H 0.1277 0.7928 0.3229 0.0640 Uiso
H20 H 0.0924 0.7239 0.3319 0.0640 Uiso
C21 C 0.1556(5) 0.7646(5) 0.3992(4) 0.0472 Uani
C22 C 0.3313(5) 0.7997(5) 0.4162(4) 0.0428 Uani
C23 C 0.3341(6) 0.8631(6) 0.3919(5) 0.0658 Uani
H21 H 0.2964 0.8825 0.3683 0.0790 Uiso
C24 C 0.3897(6) 0.8976(6) 0.4013(5) 0.0706 Uani
H22 H 0.3901 0.9404 0.3841 0.0850 Uiso
C25 C 0.4452(6) 0.8718(5) 0.4353(5) 0.0538 Uani
C26 C 0.4411(6) 0.8125(6) 0.4624(5) 0.0620 Uani
H23 H 0.4781 0.7952 0.4882 0.0750 Uiso
C27 C 0.3854(6) 0.7782(6) 0.4530(5) 0.0622 Uani
H24 H 0.3844 0.7379 0.4728 0.0740 Uiso
C28 C 0.2267(5) 0.5815(5) 0.4482(4) 0.0503 Uani
C29 C 0.2724(6) 0.5346(5) 0.4452(5) 0.0615 Uani
H25 H 0.2948 0.5451 0.4231 0.0740 Uiso
C30 C 0.2862(5) 0.4734(5) 0.4734(4) 0.0537 Uani
H26 H 0.3178 0.4427 0.4703 0.0640 Uiso
C31 C 0.2549(5) 0.4562(6) 0.5059(4) 0.0527 Uani
C32 C 0.2059(5) 0.5021(6) 0.5074(5) 0.0561 Uani
H27 H 0.1815 0.4907 0.5278 0.0670 Uiso
C33 C 0.1941(5) 0.5624(6) 0.4793(4) 0.0559 Uani
H28 H 0.1616 0.5927 0.4812 0.0670 Uiso
C34 C 0.1051(5) 0.8067(5) 0.4128(4) 0.0486 Uani
C35 C 0.1179(5) 0.8682(5) 0.4411(5) 0.0538 Uani
H29 H 0.1575 0.8906 0.4477 0.0640 Uiso
C36 C 0.0744(6) 0.8987(5) 0.4603(5) 0.0616 Uani
H30 H 0.0847 0.9409 0.4797 0.0730 Uiso
C37 C 0.0175(6) 0.8675(5) 0.4510(5) 0.0579 Uani
C38 C 0.0034(6) 0.8076(7) 0.4212(5) 0.0706 Uani
H31 H -0.0371 0.7868 0.4134 0.0850 Uiso
C39 C 0.0454(6) 0.7774(6) 0.4026(5) 0.0666 Uani
H32 H 0.0339 0.7360 0.3825 0.0800 Uiso
La1A La -0.13435(4) 0.73956(4) 0.49676(3) 0.0631 Uani
La1B La -0.36565(4) 0.23956(4) 0.00324(3) 0.0631 Uani
La1C La 0.36565(4) 0.23956(4) 0.49676(3) 0.0631 Uani
La1D La -0.13435(4) 0.26044(4) -0.00324(3) 0.0631 Uani
La1E La 0.13435(4) 0.26044(4) 0.50324(3) 0.0631 Uani
La1F La -0.63435(4) 0.76044(4) -0.00324(3) 0.0631 Uani
La1G La 0.63435(4) 0.76044(4) 0.50324(3) 0.0631 Uani
P1A P -0.0958(2) 0.63357(18) 0.39877(15) 0.0873 Uani
P2A P -0.51896(19) 0.91331(19) 0.05602(17) 0.0814 Uani
P3A P 0.0387(2) 0.89945(16) 0.02228(19) 0.0838 Uani
P4A P -0.27191(16) 0.37682(14) -0.04188(12) 0.0567 Uani
O1A O -0.0984(5) 0.6955(4) 0.4289(3) 0.0789 Uani
O2A O -0.0276(6) 0.5978(6) 0.4130(4) 0.1198 Uani
O3A O -0.1434(7) 0.5771(5) 0.4038(4) 0.1206 Uani
O4A O -0.5694(4) 0.8657(5) 0.0337(4) 0.0844 Uani
O4F O -0.0694(4) 0.6343(5) 0.5337(4) 0.0844 Uani
O4G O 0.0694(4) 0.6343(5) -0.0337(4) 0.0844 Uani
O5A O -0.5237(7) 0.9811(8) 0.0283(8) 0.1996 Uani
O6A O -0.5178(5) 0.9355(8) 0.1106(5) 0.1455 Uani
O7A O 0.0827(5) 0.8429(4) 0.0217(4) 0.0891 Uani
O8A O 0.0717(5) 0.9631(5) 0.0536(5) 0.0997 Uani
O9A O 0.0013(6) 0.9285(6) -0.0330(5) 0.1107 Uani
O10A O -0.3014(5) 0.3263(4) -0.0182(4) 0.0928 Uani
O10B O -0.1986(5) 0.8263(4) 0.5182(4) 0.0928 Uani
O10C O 0.1986(5) 0.8263(4) -0.0182(4) 0.0928 Uani
O11A O -0.3211(5) 0.3978(5) -0.0959(4) 0.0834 Uani
O12A O -0.2138(4) 0.3517(4) -0.0506(3) 0.0778 Uani
O12D O -0.2138(4) 0.6483(4) 0.4494(3) 0.0778 Uani
O12E O 0.2138(4) 0.6483(4) 0.0506(3) 0.0778 Uani
O13A O -0.0507(7) 0.7811(8) 0.5822(5) 0.1508 Uani
O14A O -0.1698(5) 0.6873(5) 0.5684(4) 0.0965 Uani
O15A O -0.2159(5) 0.7884(5) 0.4109(4) 0.0867 Uani
C2A C -0.1169(7) 0.6547(5) 0.3329(5) 0.0739 Uani
C3A C -0.1325(10) 0.7221(8) 0.3134(7) 0.0472 Uani
H1A H -0.1320 0.7589 0.3364 0.0570 Uiso
C4A C -0.1484(12) 0.7380(9) 0.2629(7) 0.0618 Uani
H2A H -0.1525 0.7856 0.2522 0.0740 Uiso
C5A C -0.1523(14) 0.6150(8) 0.2446(8) 0.0822 Uani
H3A H -0.1605 0.5775 0.2207 0.0980 Uiso
C6A C -0.1340(16) 0.6009(9) 0.2968(8) 0.1065 Uani
C11A C -0.1584(6) 0.6852(5) 0.2275(5) 0.0588 Uani
C12A C -0.1812(6) 0.7023(6) 0.1707(4) 0.0547 Uani
C13A C -0.2441(5) 0.7424(5) 0.1550(4) 0.0503 Uani
H9A H -0.2760 0.7132 0.1626 0.0610 Uiso
H10A H -0.2383 0.7861 0.1753 0.0610 Uiso
C14A C -0.2682(5) 0.7606(5) 0.0981(4) 0.0473 Uani
C15A C -0.2774(5) 0.6914(5) 0.0680(4) 0.0470 Uani
H11A H -0.2936 0.7018 0.0310 0.0570 Uiso
H12A H -0.3092 0.6622 0.0757 0.0570 Uiso
C16A C -0.2151(5) 0.6500(5) 0.0817(4) 0.0461 Uani
C17A C -0.1910(6) 0.6345(5) 0.1393(5) 0.0569 Uani
H13A H -0.2220 0.6043 0.1473 0.0680 Uiso
H14A H -0.1506 0.6086 0.1489 0.0680 Uiso
C18A C -0.2183(5) 0.8038(5) 0.0865(4) 0.0493 Uani
H15A H -0.2117 0.8486 0.1057 0.0590 Uiso
H16A H -0.2334 0.8152 0.0496 0.0590 Uiso
C19A C -0.1661(5) 0.6955(5) 0.0712(4) 0.0492 Uani
H17A H -0.1801 0.7057 0.0342 0.0590 Uiso
H18A H -0.1257 0.6695 0.0809 0.0590 Uiso
C20A C -0.1336(6) 0.7483(5) 0.1577(5) 0.0533 Uani
H19A H -0.1277 0.7928 0.1771 0.0640 Uiso
H20A H -0.0924 0.7239 0.1681 0.0640 Uiso
C21A C -0.1556(5) 0.7646(5) 0.1008(4) 0.0472 Uani
C22A C -0.3313(5) 0.7997(5) 0.0838(4) 0.0428 Uani
C23A C -0.3341(6) 0.8631(6) 0.1081(5) 0.0658 Uani
H21A H -0.2964 0.8825 0.1317 0.0790 Uiso
C24A C -0.3897(6) 0.8976(6) 0.0987(5) 0.0706 Uani
H22A H -0.3901 0.9404 0.1159 0.0850 Uiso
C25A C -0.4452(6) 0.8718(5) 0.0647(5) 0.0538 Uani
C26A C -0.4411(6) 0.8125(6) 0.0376(5) 0.0620 Uani
H23A H -0.4781 0.7952 0.0118 0.0750 Uiso
C27A C -0.3854(6) 0.7782(6) 0.0470(5) 0.0622 Uani
H24A H -0.3844 0.7379 0.0272 0.0740 Uiso
C28A C -0.2267(5) 0.5815(5) 0.0518(4) 0.0503 Uani
C29A C -0.2724(6) 0.5346(5) 0.0548(5) 0.0615 Uani
H25A H -0.2948 0.5451 0.0769 0.0740 Uiso
C30A C -0.2862(5) 0.4734(5) 0.0266(4) 0.0537 Uani
H26A H -0.3178 0.4427 0.0297 0.0640 Uiso
C31A C -0.2549(5) 0.4562(6) -0.0059(4) 0.0527 Uani
C32A C -0.2059(5) 0.5021(6) -0.0074(5) 0.0561 Uani
H27A H -0.1815 0.4907 -0.0278 0.0670 Uiso
C33A C -0.1941(5) 0.5624(6) 0.0207(4) 0.0559 Uani
H28A H -0.1616 0.5927 0.0188 0.0670 Uiso
C34A C -0.1051(5) 0.8067(5) 0.0872(4) 0.0486 Uani
C35A C -0.1179(5) 0.8682(5) 0.0589(5) 0.0538 Uani
H29A H -0.1575 0.8906 0.0523 0.0640 Uiso
C36A C -0.0744(6) 0.8987(5) 0.0397(5) 0.0616 Uani
H30A H -0.0847 0.9409 0.0203 0.0730 Uiso
C37A C -0.0175(6) 0.8675(5) 0.0490(5) 0.0579 Uani
C38A C -0.0034(6) 0.8076(7) 0.0788(5) 0.0706 Uani
H31A H 0.0371 0.7868 0.0866 0.0850 Uiso
C39A C -0.0454(6) 0.7774(6) 0.0974(5) 0.0666 Uani
H32A H -0.0339 0.7360 0.1175 0.0800 Uiso
O16 O 0.5609(9) 0.5737(11) 0.3978(7) 0.0870 Uiso
C44 C 0.539(4) 0.524(4) 0.361(3) 0.3300 Uiso
O17 O 0.1979(11) 0.2024(12) 0.3347(9) 0.1050 Uiso
C43 C 0.201(4) 0.171(4) 0.2926(19) 0.2600 Uiso
O18 O 0.3187(12) 0.4267(13) 0.2060(9) 0.0760 Uiso
C1 C 0.313(2) 0.4798(18) 0.1723(14) 0.0840 Uiso
O19 O 0.3281(15) 0.3962(12) 0.3670(10) 0.1344 Uani
O20 O 0.0561(16) 0.9307(18) 0.2383(11) 0.0755 Uani
C40 C 0.035(2) 0.893(3) 0.1952(16) 0.1707 Uani
O21 O 0.358(2) 0.944(3) 0.144(2) 0.1500 Uiso
C41 C 0.3992(18) 0.891(2) 0.1500(15) 0.0430 Uiso
O22 O 0.241(3) 0.950(2) 0.2302(17) 0.1004 Uani
O23 O 0.126(2) 0.078(3) 0.154(2) 0.1310 Uiso
C42 C 0.151(3) 0.017(3) 0.144(2) 0.0790 Uiso
loop_
_atom_site_aniso_label
_atom_site_aniso_U_11
_atom_site_aniso_U_22
_atom_site_aniso_U_33
_atom_site_aniso_U_23
_atom_site_aniso_U_13
_atom_site_aniso_U_12
La1 0.0753(5) 0.0450(4) 0.0800(6) -0.0026(4) 0.0412(4) 0.0136(3)
P1 0.162(4) 0.0455(19) 0.069(3) -0.0067(17) 0.059(3) 0.016(2)
P2 0.076(3) 0.055(2) 0.118(3) 0.014(2) 0.040(2) -0.0159(18)
P3 0.099(3) 0.0391(17) 0.158(4) -0.001(2) 0.101(3) -0.0042(17)
P4 0.078(2) 0.0327(14) 0.064(2) 0.0000(14) 0.0309(18) -0.0142(14)
O1 0.131(8) 0.052(5) 0.061(6) 0.000(4) 0.043(5) 0.011(5)
O2 0.169(12) 0.082(7) 0.112(9) -0.034(6) 0.054(8) -0.055(8)
O3 0.251(15) 0.047(5) 0.098(8) 0.012(5) 0.104(9) 0.051(7)
O4 0.069(6) 0.086(6) 0.095(7) 0.036(5) 0.025(5) -0.016(5)
O5 0.162(13) 0.143(12) 0.34(2) -0.138(14) 0.146(15) -0.112(11)
O6 0.100(9) 0.181(13) 0.161(11) 0.119(10) 0.053(8) 0.005(8)
O7 0.115(8) 0.046(5) 0.145(9) -0.027(5) 0.094(7) -0.027(5)
O8 0.083(7) 0.078(7) 0.167(10) 0.023(6) 0.080(7) 0.022(5)
O9 0.143(10) 0.092(7) 0.142(10) -0.060(7) 0.106(8) -0.036(7)
O10 0.147(10) 0.045(5) 0.097(7) 0.010(5) 0.056(7) 0.002(5)
O11 0.095(7) 0.065(6) 0.082(7) 0.004(5) 0.021(6) -0.007(5)
O12 0.099(7) 0.053(5) 0.085(6) 0.004(4) 0.037(5) -0.033(5)
O13 0.139(12) 0.147(11) 0.132(11) 0.062(9) 0.005(9) -0.031(9)
O14 0.111(8) 0.088(7) 0.107(8) -0.025(6) 0.059(7) -0.006(6)
O15 0.101(7) 0.063(5) 0.097(7) -0.026(5) 0.036(6) 0.007(5)
C2 0.128(12) 0.045(6) 0.060(7) -0.010(5) 0.047(8) 0.004(6)
C3 0.050(12) 0.036(7) 0.058(8) 0.005(7) 0.022(10) 0.001(8)
C4 0.088(18) 0.035(8) 0.062(9) -0.010(6) 0.026(13) 0.005(10)
C5 0.15(3) 0.038(7) 0.065(9) 0.004(8) 0.046(15) -0.007(12)
C6 0.24(4) 0.030(8) 0.077(11) -0.008(7) 0.09(2) -0.001(14)
C11 0.080(8) 0.050(6) 0.063(7) -0.008(5) 0.046(6) -0.010(6)
C12 0.068(8) 0.048(6) 0.059(8) -0.008(5) 0.036(6) -0.004(5)
C13 0.072(8) 0.032(5) 0.059(8) 0.008(5) 0.038(6) -0.004(5)
C14 0.064(7) 0.026(5) 0.063(8) 0.004(5) 0.036(6) -0.003(5)
C15 0.060(7) 0.026(5) 0.064(7) 0.006(5) 0.033(6) -0.003(4)
C16 0.071(7) 0.029(5) 0.053(7) -0.003(5) 0.040(6) 0.001(5)
C17 0.070(8) 0.035(6) 0.087(10) 0.008(6) 0.054(7) 0.001(5)
C18 0.067(7) 0.028(5) 0.064(8) 0.002(5) 0.037(6) 0.001(5)
C19 0.057(7) 0.045(6) 0.059(7) 0.007(5) 0.037(6) 0.008(5)
C20 0.066(7) 0.037(6) 0.072(8) -0.002(5) 0.043(6) 0.000(5)
C21 0.061(7) 0.036(5) 0.054(7) -0.003(5) 0.032(6) 0.003(5)
C22 0.055(7) 0.034(5) 0.048(7) 0.007(5) 0.029(6) 0.001(5)
C23 0.072(9) 0.043(6) 0.083(9) 0.011(6) 0.028(7) -0.007(6)
C24 0.069(9) 0.051(7) 0.098(11) 0.028(7) 0.037(8) -0.002(6)
C25 0.066(8) 0.037(6) 0.064(8) 0.003(5) 0.030(7) -0.010(5)
C26 0.072(8) 0.044(6) 0.070(9) 0.016(6) 0.025(7) 0.004(6)
C27 0.065(8) 0.049(7) 0.085(10) 0.021(6) 0.042(7) -0.001(6)
C28 0.062(7) 0.032(5) 0.078(8) 0.001(5) 0.051(7) -0.005(5)
C29 0.077(8) 0.039(6) 0.092(10) 0.006(6) 0.059(8) -0.004(5)
C30 0.065(7) 0.035(6) 0.073(8) 0.001(5) 0.039(7) -0.006(5)
C31 0.064(8) 0.039(6) 0.060(8) -0.001(5) 0.028(6) -0.015(5)
C32 0.050(7) 0.046(6) 0.086(9) 0.002(6) 0.041(6) -0.006(5)
C33 0.056(7) 0.047(6) 0.075(9) 0.008(6) 0.036(6) 0.004(5)
C34 0.056(7) 0.050(6) 0.042(7) 0.007(5) 0.020(6) 0.004(5)
C35 0.056(7) 0.033(5) 0.086(9) 0.007(5) 0.042(6) -0.003(5)
C36 0.086(9) 0.030(5) 0.094(10) 0.008(6) 0.063(8) 0.004(5)
C37 0.079(9) 0.020(5) 0.093(9) 0.003(5) 0.053(7) 0.002(5)
C38 0.061(8) 0.067(8) 0.096(10) -0.001(7) 0.043(8) -0.006(6)
C39 0.073(9) 0.042(6) 0.099(11) -0.009(6) 0.048(8) -0.006(6)
La1A 0.0753 0.045 0.08 0.0026 0.0412 -0.0136
La1B 0.0753 0.045 0.08 -0.0026 0.0412 0.0136
La1C 0.0753 0.045 0.08 0.0026 0.0412 -0.0136
La1D 0.0753 0.045 0.08 -0.0026 0.0412 0.0136
La1E 0.0753 0.045 0.08 0.0026 0.0412 -0.0136
La1F 0.0753 0.045 0.08 -0.0026 0.0412 0.0136
La1G 0.0753 0.045 0.08 0.0026 0.0412 -0.0136
P1A 0.162 0.0455 0.069 0.0067 0.059 -0.016
P2A 0.076 0.055 0.118 -0.014 0.04 0.0159
P3A 0.099 0.0391 0.158 0.001 0.101 0.0042
P4A 0.078 0.0327 0.064 0 0.0309 0.0142
O1A 0.131 0.052 0.061 0 0.043 -0.011
O2A 0.169 0.082 0.112 0.034 0.054 0.055
O3A 0.251 0.047 0.098 -0.012 0.104 -0.051
O4A 0.069 0.086 0.095 -0.036 0.025 0.016
O4F 0.069 0.086 0.095 0.036 0.025 -0.016
O4G 0.069 0.086 0.095 -0.036 0.025 0.016
O5A 0.162 0.143 0.34 0.138 0.146 0.112
O6A 0.1 0.181 0.161 -0.119 0.053 -0.005
O7A 0.115 0.046 0.145 0.027 0.094 0.027
O8A 0.083 0.078 0.167 -0.023 0.08 -0.022
O9A 0.143 0.092 0.142 0.06 0.106 0.036
O10A 0.147 0.045 0.097 -0.01 0.056 -0.002
O10B 0.147 0.045 0.097 0.01 0.056 0.002
O10C 0.147 0.045 0.097 -0.01 0.056 -0.002
O11A 0.095 0.065 0.082 -0.004 0.021 0.007
O12A 0.099 0.053 0.085 -0.004 0.037 0.033
O12D 0.099 0.053 0.085 0.004 0.037 -0.033
O12E 0.099 0.053 0.085 -0.004 0.037 0.033
O13A 0.139 0.147 0.132 -0.062 0.005 0.031
O14A 0.111 0.088 0.107 0.025 0.059 0.006
O15A 0.101 0.063 0.097 0.026 0.036 -0.007
C2A 0.128 0.045 0.06 0.01 0.047 -0.004
C3A 0.05 0.036 0.058 -0.005 0.022 -0.001
C4A 0.088 0.035 0.062 0.01 0.026 -0.005
C5A 0.15 0.038 0.065 -0.004 0.046 0.007
C6A 0.24 0.03 0.077 0.008 0.09 0.001
C11A 0.08 0.05 0.063 0.008 0.046 0.01
C12A 0.068 0.048 0.059 0.008 0.036 0.004
C13A 0.072 0.032 0.059 -0.008 0.038 0.004
C14A 0.064 0.026 0.063 -0.004 0.036 0.003
C15A 0.06 0.026 0.064 -0.006 0.033 0.003
C16A 0.071 0.029 0.053 0.003 0.04 -0.001
C17A 0.07 0.035 0.087 -0.008 0.054 -0.001
C18A 0.067 0.028 0.064 -0.002 0.037 -0.001
C19A 0.057 0.045 0.059 -0.007 0.037 -0.008
C20A 0.066 0.037 0.072 0.002 0.043 0
C21A 0.061 0.036 0.054 0.003 0.032 -0.003
C22A 0.055 0.034 0.048 -0.007 0.029 -0.001
C23A 0.072 0.043 0.083 -0.011 0.028 0.007
C24A 0.069 0.051 0.098 -0.028 0.037 0.002
C25A 0.066 0.037 0.064 -0.003 0.03 0.01
C26A 0.072 0.044 0.07 -0.016 0.025 -0.004
C27A 0.065 0.049 0.085 -0.021 0.042 0.001
C28A 0.062 0.032 0.078 -0.001 0.051 0.005
C29A 0.077 0.039 0.092 -0.006 0.059 0.004
C30A 0.065 0.035 0.073 -0.001 0.039 0.006
C31A 0.064 0.039 0.06 0.001 0.028 0.015
C32A 0.05 0.046 0.086 -0.002 0.041 0.006
C33A 0.056 0.047 0.075 -0.008 0.036 -0.004
C34A 0.056 0.05 0.042 -0.007 0.02 -0.004
C35A 0.056 0.033 0.086 -0.007 0.042 0.003
C36A 0.086 0.03 0.094 -0.008 0.063 -0.004
C37A 0.079 0.02 0.093 -0.003 0.053 -0.002
C38A 0.061 0.067 0.096 0.001 0.043 0.006
C39A 0.073 0.042 0.099 0.009 0.048 0.006
O19 0.20(3) 0.084(16) 0.15(2) 0.008(15) 0.10(2) -0.019(16)
O20 0.075(19) 0.10(2) 0.045(17) -0.041(16) 0.013(15) -0.021(16)
C40 0.11(3) 0.22(6) 0.16(4) -0.08(4) 0.02(3) -0.01(3)
O22 0.17(5) 0.08(3) 0.08(3) -0.04(3) 0.08(3) -0.07(3)
loop_
_geom_bond_atom_site_label_1
_geom_bond_atom_site_label_2
_geom_bond_site_symmetry_1
_geom_bond_site_symmetry_2
La1 O1 1_555 1_555
P1 O1 1_555 1_555
P2 O4 1_555 1_555
P3 O7 1_555 1_555
P4 O10 1_555 1_555
O2 P1 1_555 1_555
O3 P1 1_555 1_555
O4 La1G 1_555 1_555
O5 P2 1_555 1_555
O6 P2 1_555 1_555
O7 La1A 1_555 1_555
O8 P3 1_555 1_555
O9 P3 1_555 1_555
O10 La1C 1_555 1_555
O11 P4 1_555 1_555
O12 P4 1_555 1_555
O13 La1 1_555 1_555
O14 La1 1_555 1_555
O15 La1 1_555 1_555
O16 C44 1_555 1_555
O17 C43 1_555 1_555
O18 C1 1_555 1_555
O20 C40 1_555 1_555
O21 C41 1_555 1_555
C2 P1 1_555 1_555
C3 C2 1_555 1_555
H1 C3 1_555 1_555
C4 C3 1_555 1_555
H2 C4 1_555 1_555
C5 H3 1_555 1_555
C6 C2 1_555 1_555
C11 C4 1_555 1_555
C12 C11 1_555 1_555
C13 C12 1_555 1_555
H9 C13 1_555 1_555
H10 C13 1_555 1_555
C14 C13 1_555 1_555
C15 C14 1_555 1_555
H11 C15 1_555 1_555
H12 C15 1_555 1_555
C16 C15 1_555 1_555
C17 C12 1_555 1_555
H13 C17 1_555 1_555
H14 C17 1_555 1_555
C18 C14 1_555 1_555
H15 C18 1_555 1_555
H16 C18 1_555 1_555
C19 C16 1_555 1_555
H17 C19 1_555 1_555
H18 C19 1_555 1_555
C20 C12 1_555 1_555
H19 C20 1_555 1_555
H20 C20 1_555 1_555
C21 C18 1_555 1_555
C22 C14 1_555 1_555
C23 C22 1_555 1_555
H21 C23 1_555 1_555
C24 C23 1_555 1_555
H22 C24 1_555 1_555
C25 P2 1_555 1_555
C26 C25 1_555 1_555
H23 C26 1_555 1_555
C27 C22 1_555 1_555
H24 C27 1_555 1_555
C28 C16 1_555 1_555
C29 C28 1_555 1_555
H25 C29 1_555 1_555
C30 C29 1_555 1_555
H26 C30 1_555 1_555
C31 P4 1_555 1_555
C32 C31 1_555 1_555
H27 C32 1_555 1_555
C33 C28 1_555 1_555
H28 C33 1_555 1_555
C34 C21 1_555 1_555
C35 C34 1_555 1_555
H29 C35 1_555 1_555
C36 C35 1_555 1_555
H30 C36 1_555 1_555
C37 P3 1_555 1_555
C38 C37 1_555 1_555
H31 C38 1_555 1_555
C39 C34 1_555 1_555
H32 C39 1_555 1_555
O23 C42 1_555 1_555
La1A O1A 1_555 1_555
La1B O10A 1_555 1_555
La1D O12A 1_555 1_555
La1E O12 1_555 1_555
La1F O4A 1_555 1_555
P1A O1A 1_555 1_555
P2A O4A 1_555 1_555
P3A O7A 1_555 1_555
P4A O10A 1_555 1_555
O2A P1A 1_555 1_555
O3A P1A 1_555 1_555
O4F La1A 1_555 1_555
O4G La1 1_555 1_555
O5A P2A 1_555 1_555
O6A P2A 1_555 1_555
O7A La1 1_555 1_555
O8A P3A 1_555 1_555
O9A P3A 1_555 1_555
O10B La1A 1_555 1_555
O10C La1 1_555 1_555
O11A P4A 1_555 1_555
O12A P4A 1_555 1_555
O12D La1A 1_555 1_555
O12E La1 1_555 1_555
O13A La1A 1_555 1_555
O14A La1A 1_555 1_555
O15A La1A 1_555 1_555
C2A P1A 1_555 1_555
C3A C2A 1_555 1_555
H1A C3A 1_555 1_555
C4A C3A 1_555 1_555
H2A C4A 1_555 1_555
C5A H3A 1_555 1_555
C6A C2A 1_555 1_555
C11A C4A 1_555 1_555
C12A C11A 1_555 1_555
C13A C12A 1_555 1_555
H9A C13A 1_555 1_555
H10A C13A 1_555 1_555
C14A C13A 1_555 1_555
C15A C14A 1_555 1_555
H11A C15A 1_555 1_555
H12A C15A 1_555 1_555
C16A C15A 1_555 1_555
C17A C12A 1_555 1_555
H13A C17A 1_555 1_555
H14A C17A 1_555 1_555
C18A C14A 1_555 1_555
H15A C18A 1_555 1_555
H16A C18A 1_555 1_555
C19A C16A 1_555 1_555
H17A C19A 1_555 1_555
H18A C19A 1_555 1_555
C20A C12A 1_555 1_555
H19A C20A 1_555 1_555
H20A C20A 1_555 1_555
C21A C18A 1_555 1_555
C22A C14A 1_555 1_555
C23A C22A 1_555 1_555
H21A C23A 1_555 1_555
C24A C23A 1_555 1_555
H22A C24A 1_555 1_555
C25A P2A 1_555 1_555
C26A C25A 1_555 1_555
H23A C26A 1_555 1_555
C27A C22A 1_555 1_555
H24A C27A 1_555 1_555
C28A C16A 1_555 1_555
C29A C28A 1_555 1_555
H25A C29A 1_555 1_555
C30A C29A 1_555 1_555
H26A C30A 1_555 1_555
C31A P4A 1_555 1_555
C32A C31A 1_555 1_555
H27A C32A 1_555 1_555
C33A C28A 1_555 1_555
H28A C33A 1_555 1_555
C34A C21A 1_555 1_555
C35A C34A 1_555 1_555
H29A C35A 1_555 1_555
C36A C35A 1_555 1_555
H30A C36A 1_555 1_555
C37A P3A 1_555 1_555
C38A C37A 1_555 1_555
H31A C38A 1_555 1_555
C39A C34A 1_555 1_555
H32A C39A 1_555 1_555
C5 C6 1_555 1_555
C5 C11 1_555 1_555
C16 C17 1_555 1_555
C19 C21 1_555 1_555
C20 C21 1_555 1_555
C24 C25 1_555 1_555
C26 C27 1_555 1_555
C30 C31 1_555 1_555
C32 C33 1_555 1_555
C36 C37 1_555 1_555
C38 C39 1_555 1_555
C5A C6A 1_555 1_555
C5A C11A 1_555 1_555
C16A C17A 1_555 1_555
C19A C21A 1_555 1_555
C20A C21A 1_555 1_555
C24A C25A 1_555 1_555
C26A C27A 1_555 1_555
C30A C31A 1_555 1_555
C32A C33A 1_555 1_555
C36A C37A 1_555 1_555
C38A C39A 1_555 1_555

#END
