
#######################################################################
#
#                 Cambridge Crystallographic Data Centre
#                                CCDC 
#
#######################################################################
#
# If this CIF has been generated from an entry in the Cambridge 
# Structural Database, then it will include bibliographic, chemical, 
# crystal, experimental, refinement or atomic coordinate data resulting 
# from the CCDC's data processing and validation procedures.
#
#######################################################################

data_LELROL
_chemical_formula_moiety         'C119 H123 Cl2 Mn17 N55 O15'
_symmetry_cell_setting           monoclinic
_symmetry_space_group_name_H-M   'P 21/c'
_symmetry_Int_Tables_number      14
_space_group_name_Hall           '-P 2ybc'
loop_
_symmetry_equiv_pos_site_id
_symmetry_equiv_pos_as_xyz
1 x,y,z
2 -x,1/2+y,1/2-z
3 -x,-y,-z
4 x,1/2-y,1/2+z
_cell_length_a                   17.4047(13)
_cell_length_b                   26.943(2)
_cell_length_c                   17.9892(15)
_cell_angle_alpha                90
_cell_angle_beta                 106.941(4)
_cell_angle_gamma                90
_cell_volume                     8069.7
loop_
_atom_site_label
_atom_site_type_symbol
_atom_site_fract_x
_atom_site_fract_y
_atom_site_fract_z
C45 C 0.6539(12) 0.3037(8) 0.1886(12)
H43 H 0.7013 0.3167 0.2239
C46 C 0.5173(15) 0.3106(10) 0.1019(15)
H44 H 0.4796 0.3382 0.0851
H45 H 0.4938 0.2856 0.1283
H46 H 0.5286 0.2956 0.0566
C47 C 0.6149(17) 0.3838(10) 0.1746(18)
H47 H 0.5675 0.4040 0.1499
H48 H 0.6592 0.3933 0.1541
H49 H 0.6308 0.3893 0.2309
N20 N 0.5953(9) 0.3299(6) 0.1577(10)
O4 O 0.6468(11) 0.2592(7) 0.1705(12)
C48 C 0.1898(14) 0.4630(11) 0.3355(14)
H50 H 0.1619 0.4628 0.3737
C49 C 0.1926(14) 0.4607(11) 0.1990(14)
H51 H 0.1564 0.4520 0.1479
H52 H 0.2401 0.4393 0.2109
H53 H 0.2091 0.4955 0.1987
C50 C 0.0658(13) 0.4529(10) 0.2307(15)
H54 H 0.0493 0.4453 0.1750
H55 H 0.0444 0.4854 0.2392
H56 H 0.0450 0.4274 0.2585
N21 N 0.1505(8) 0.4538(5) 0.2587(9)
O6 O 0.2820(17) 0.4737(11) 0.3579(17)
C51 C 0.7573(13) 0.5236(8) 0.2563(12)
H57 H 0.7000 0.5152 0.2398
H58 H 0.7660 0.5524 0.2911
H59 H 0.7882 0.4953 0.2838
C52 C 0.8620(11) 0.5463(8) 0.2175(13)
H60 H 0.8794 0.5544 0.1718
H61 H 0.8929 0.5179 0.2446
H62 H 0.8710 0.5749 0.2526
C53 C 0.7296(16) 0.5257(9) 0.1156(16)
H63 H 0.7480 0.5283 0.0709
N22 N 0.7812(8) 0.5344(6) 0.1942(9)
O7 O 0.6607(17) 0.5147(10) 0.1123(16)
C54 C 0.709(3) 0.8505(17) 0.205(4)
O1 O 0.6625(17) 0.8855(11) 0.1846(17)
N1 N 0.692(3) 0.8231(18) 0.258(3)
C55 C 0.704(4) 0.789(3) 0.310(3)
C56 C 0.626(2) 0.8053(13) 0.212(2)
O8 O 0.2730(6) 0.5317(4) 0.0740(7)
O9 O -0.0000 0.5000 0.0000
N24 N 0.3746(7) 0.6074(4) 0.4313(7)
O12 O 0.4736(10) 0.5614(7) 0.5084(10)
C65 C 0.4053(8) 0.5602(5) 0.4649(8)
C66 C 0.4240(12) 0.6466(8) 0.4418(14)
H64 H 0.4785 0.6363 0.4708
H65 H 0.4054 0.6723 0.4711
H66 H 0.4242 0.6599 0.3911
C67 C 0.2980(9) 0.6184(7) 0.3913(11)
H67 H 0.2649 0.5884 0.3860
H68 H 0.2963 0.6308 0.3396
H69 H 0.2773 0.6438 0.4193
C1 C -0.2528(3) 0.2360(2) -0.0725(4)
C2 C -0.3411(3) 0.2515(2) -0.1060(3)
H1 H -0.3628 0.2379 -0.1591
H2 H -0.3730 0.2376 -0.0734
C3 C -0.3494(3) 0.3085(2) -0.1088(3)
C4 C -0.2986(4) 0.3307(2) -0.1584(3)
H3 H -0.3036 0.3673 -0.1592
H4 H -0.3196 0.3186 -0.2125
C5 C -0.2091(4) 0.3163(2) -0.1260(3)
C6 C -0.1787(4) 0.3352(2) -0.0416(4)
H5 H -0.1813 0.3719 -0.0414
H6 H -0.1218 0.3254 -0.0191
C7 C -0.2282(4) 0.3144(2) 0.0093(3)
C8 C -0.2213(4) 0.2576(2) 0.0098(3)
H7 H -0.2524 0.2435 0.0429
H8 H -0.1644 0.2480 0.0325
C9 C -0.3169(4) 0.3288(2) -0.0259(3)
H9 H -0.3221 0.3654 -0.0267
H10 H -0.3489 0.3153 0.0068
C10 C -0.2038(4) 0.2589(2) -0.1235(4)
H11 H -0.2243 0.2457 -0.1770
H12 H -0.1469 0.2489 -0.1027
C11 C -0.2428(3) 0.1799(2) -0.0697(4)
C12 C -0.1670(3) 0.1591(2) -0.0371(4)
H13 H -0.1220 0.1805 -0.0193
C13 C -0.1553(3) 0.1089(2) -0.0302(3)
H14 H -0.1030 0.0962 -0.0064
C14 C -0.2199(3) 0.0758(2) -0.0577(4)
C15 C -0.2959(3) 0.0965(2) -0.0904(4)
H15 H -0.3409 0.0751 -0.1085
C16 C -0.3070(3) 0.1469(2) -0.0969(4)
H16 H -0.3593 0.1596 -0.1203
C17 C -0.2116(3) 0.0219(2) -0.0483(3)
C18 C -0.4365(4) 0.3218(2) -0.1483(4)
C19 C -0.4847(4) 0.3478(3) -0.1144(4)
H17 H -0.4629 0.3597 -0.0628
C20 C -0.5654(5) 0.3575(4) -0.1538(5)
H18 H -0.5971 0.3759 -0.1287
C21 C -0.5991(4) 0.3408(3) -0.2280(5)
C22 C -0.5512(4) 0.3140(3) -0.2650(4)
H19 H -0.5733 0.3026 -0.3168
C23 C -0.4723(4) 0.3044(3) -0.2255(4)
H20 H -0.4407 0.2857 -0.2503
C24 C -0.6846(4) 0.3460(3) -0.2695(5)
C25 C -0.1631(4) 0.3382(2) -0.1771(4)
C26 C -0.1295(6) 0.3094(3) -0.2224(6)
H21 H -0.1312 0.2743 -0.2181
C27 C -0.0933(7) 0.3300(3) -0.2743(6)
H22 H -0.0747 0.3089 -0.3078
C28 C -0.0839(4) 0.3804(3) -0.2779(4)
C29 C -0.1178(5) 0.4097(3) -0.2329(5)
H23 H -0.1141 0.4447 -0.2359
C30 C -0.1569(5) 0.3893(3) -0.1836(4)
H24 H -0.1798 0.4106 -0.1537
C31 C -0.0415(4) 0.3995(2) -0.3320(4)
C32 C -0.1927(4) 0.3355(2) 0.0919(4)
C33 C -0.1578(4) 0.3055(3) 0.1548(4)
H25 H -0.1603 0.2705 0.1479
C34 C -0.1192(5) 0.3246(3) 0.2278(4)
H26 H -0.0960 0.3029 0.2700
C35 C -0.1146(4) 0.3763(2) 0.2388(4)
C36 C -0.1538(5) 0.4064(3) 0.1767(4)
H27 H -0.1536 0.4413 0.1839
C37 C -0.1930(4) 0.3869(3) 0.1046(4)
H28 H -0.2202 0.4084 0.0635
C38 C -0.0675(4) 0.3945(3) 0.3147(4)
C39 C -0.3561(15) -0.2241(10) -0.0246(15)
H29 H -0.3120 -0.2296 -0.0447
C40 C -0.317(3) -0.3103(16) 0.033(3)
H30 H -0.3344 -0.3337 0.0662
H31 H -0.3228 -0.3259 -0.0180
H32 H -0.2609 -0.3013 0.0566
C41 C -0.398(3) -0.2520(15) 0.093(3)
H33 H -0.4031 -0.2830 0.1199
H34 H -0.3581 -0.2305 0.1289
H35 H -0.4497 -0.2350 0.0768
C42 C -0.4552(4) -0.0449(3) -0.1377(5)
H36 H -0.4258 -0.0217 -0.1005
C43 C -0.5437(7) 0.0240(4) -0.1972(7)
H37 H -0.5371 0.0382 -0.2451
H38 H -0.6003 0.0260 -0.1984
H39 H -0.5108 0.0426 -0.1523
C44 C -0.5733(8) -0.0624(5) -0.2440(7)
H40 H -0.5487 -0.0954 -0.2397
H41 H -0.6238 -0.0644 -0.2305
H42 H -0.5841 -0.0503 -0.2975
C57 C -0.0854(17) -0.2751(11) -0.2305(18)
C58 C -0.101(3) -0.2492(17) -0.300(3)
C59 C -0.090(4) -0.210(3) -0.363(4)
C60 C -0.093(4) -0.163(3) -0.381(4)
C61 C -0.060(2) -0.2525(14) -0.157(2)
N2 N -0.1437(3) -0.00574(17) -0.0324(3)
N3 N -0.1695(3) -0.05261(19) -0.0326(3)
N4 N -0.2482(3) -0.05300(18) -0.0489(3)
N5 N -0.2765(3) -0.00726(19) -0.0597(3)
N6 N -0.7159(3) 0.3534(2) -0.3450(4)
N7 N -0.7961(4) 0.3531(3) -0.3588(4)
N8 N -0.8114(4) 0.3475(4) -0.2903(5)
N9 N -0.7426(4) 0.3417(4) -0.2356(5)
N10 N 0.0051(3) 0.3707(2) -0.3603(3)
N11 N 0.0326(3) 0.4007(2) -0.4057(3)
N12 N 0.0036(3) 0.4448(2) -0.4048(3)
N13 N -0.0448(3) 0.4465(2) -0.3586(3)
N14 N -0.0702(3) 0.4407(2) 0.3417(3)
N15 N -0.0137(3) 0.4401(2) 0.4112(3)
N16 N 0.0203(3) 0.3958(2) 0.4234(3)
N17 N -0.0120(3) 0.3664(2) 0.3638(3)
N18 N -0.3693(17) -0.2638(10) 0.0213(17)
N19 N -0.5183(4) -0.0280(3) -0.1907(5)
Cl1 Cl -0.20506(17) -0.15654(14) 0.0430(2)
Mn1 Mn -0.32638(6) -0.12117(4) -0.05275(6)
Mn2 Mn -0.11245(5) -0.12949(3) -0.02908(7)
Mn3 Mn 0.0000 0.0000 0.0000
O2 O -0.3838(4) -0.1907(2) -0.0409(4)
O3 O -0.4302(3) -0.08772(19) -0.1312(3)
O5 O -0.3692(4) -0.0904(3) 0.0418(4)
C62 C -0.0631(14) -0.2268(9) -0.0853(13)
C63 C -0.064(2) -0.3032(13) 0.000(2)
N23 N -0.0524(11) -0.2784(7) -0.0742(10)
O10 O -0.0666(7) -0.2042(5) -0.0319(10)
C64 C -0.061(3) -0.3140(14) -0.143(2)
C1B C 0.2528(3) -0.2360(2) 0.0725(4)
C2B C 0.3411(3) -0.2515(2) 0.1060(3)
H1B H 0.3628 -0.2379 0.1591
H2B H 0.3730 -0.2376 0.0734
C3B C 0.3494(3) -0.3085(2) 0.1088(3)
C4B C 0.2986(4) -0.3307(2) 0.1584(3)
H3B H 0.3036 -0.3673 0.1592
H4B H 0.3196 -0.3186 0.2125
C5B C 0.2091(4) -0.3163(2) 0.1260(3)
C6B C 0.1787(4) -0.3352(2) 0.0416(4)
H5B H 0.1813 -0.3719 0.0414
H6B H 0.1218 -0.3254 0.0191
C7B C 0.2282(4) -0.3144(2) -0.0093(3)
C8B C 0.2213(4) -0.2576(2) -0.0098(3)
H7B H 0.2524 -0.2435 -0.0429
H8B H 0.1644 -0.2480 -0.0325
C9B C 0.3169(4) -0.3288(2) 0.0259(3)
H9B H 0.3221 -0.3654 0.0267
H10B H 0.3489 -0.3153 -0.0068
C10B C 0.2038(4) -0.2589(2) 0.1235(4)
H11B H 0.2243 -0.2457 0.1770
H12B H 0.1469 -0.2489 0.1027
C11B C 0.2428(3) -0.1799(2) 0.0697(4)
C12B C 0.1670(3) -0.1591(2) 0.0371(4)
H13B H 0.1220 -0.1805 0.0193
C13B C 0.1553(3) -0.1089(2) 0.0302(3)
H14B H 0.1030 -0.0962 0.0064
C14B C 0.2199(3) -0.0758(2) 0.0577(4)
C15B C 0.2959(3) -0.0965(2) 0.0904(4)
H15B H 0.3409 -0.0751 0.1085
C16B C 0.3070(3) -0.1469(2) 0.0969(4)
H16B H 0.3593 -0.1596 0.1203
C17B C 0.2116(3) -0.0219(2) 0.0483(3)
C18B C 0.4365(4) -0.3218(2) 0.1483(4)
C19B C 0.4847(4) -0.3478(3) 0.1144(4)
H17B H 0.4629 -0.3597 0.0628
C20B C 0.5654(5) -0.3575(4) 0.1538(5)
H18B H 0.5971 -0.3759 0.1287
C21B C 0.5991(4) -0.3408(3) 0.2280(5)
C22B C 0.5512(4) -0.3140(3) 0.2650(4)
H19B H 0.5733 -0.3026 0.3168
C23B C 0.4723(4) -0.3044(3) 0.2255(4)
H20B H 0.4407 -0.2857 0.2503
C24B C 0.6846(4) -0.3460(3) 0.2695(5)
C25B C 0.1631(4) -0.3382(2) 0.1771(4)
C26B C 0.1295(6) -0.3094(3) 0.2224(6)
H21B H 0.1312 -0.2743 0.2181
C27B C 0.0933(7) -0.3300(3) 0.2743(6)
H22B H 0.0747 -0.3089 0.3078
C28B C 0.0839(4) -0.3804(3) 0.2779(4)
C29B C 0.1178(5) -0.4097(3) 0.2329(5)
H23B H 0.1141 -0.4447 0.2359
C30B C 0.1569(5) -0.3893(3) 0.1836(4)
H24B H 0.1798 -0.4106 0.1537
C31B C 0.0415(4) -0.3995(2) 0.3320(4)
C32B C 0.1927(4) -0.3355(2) -0.0919(4)
C33B C 0.1578(4) -0.3055(3) -0.1548(4)
H25B H 0.1603 -0.2705 -0.1479
C34B C 0.1192(5) -0.3246(3) -0.2278(4)
H26B H 0.0960 -0.3029 -0.2700
C35B C 0.1146(4) -0.3763(2) -0.2388(4)
C36B C 0.1538(5) -0.4064(3) -0.1767(4)
H27B H 0.1536 -0.4413 -0.1839
C37B C 0.1930(4) -0.3869(3) -0.1046(4)
H28B H 0.2202 -0.4084 -0.0635
C38B C 0.0675(4) -0.3945(3) -0.3147(4)
C39B C 0.3561(15) 0.2241(10) 0.0246(15)
H29B H 0.3120 0.2296 0.0447
C40B C 0.317(3) 0.3103(16) -0.033(3)
H30B H 0.3344 0.3337 -0.0662
H31B H 0.3228 0.3259 0.0180
H32B H 0.2609 0.3013 -0.0566
C41B C 0.398(3) 0.2520(15) -0.093(3)
H33B H 0.4031 0.2830 -0.1199
H34B H 0.3581 0.2305 -0.1289
H35B H 0.4497 0.2350 -0.0768
C42B C 0.4552(4) 0.0449(3) 0.1377(5)
H36B H 0.4258 0.0217 0.1005
C43B C 0.5437(7) -0.0240(4) 0.1972(7)
H37B H 0.5371 -0.0382 0.2451
H38B H 0.6003 -0.0260 0.1984
H39B H 0.5108 -0.0426 0.1523
C44B C 0.5733(8) 0.0624(5) 0.2440(7)
H40B H 0.5487 0.0954 0.2397
H41B H 0.6238 0.0644 0.2305
H42B H 0.5841 0.0503 0.2975
C57B C 0.0854(17) 0.2751(11) 0.2305(18)
C58B C 0.101(3) 0.2492(17) 0.300(3)
C59B C 0.090(4) 0.210(3) 0.363(4)
C60B C 0.093(4) 0.163(3) 0.381(4)
C61B C 0.060(2) 0.2525(14) 0.157(2)
N2B N 0.1437(3) 0.00574(17) 0.0324(3)
N3B N 0.1695(3) 0.05261(19) 0.0326(3)
N4B N 0.2482(3) 0.05300(18) 0.0489(3)
N5B N 0.2765(3) 0.00726(19) 0.0597(3)
N6B N 0.7159(3) -0.3534(2) 0.3450(4)
N6A N -0.2841(3) -0.1466(2) -0.1550(4)
N6C N 0.2841(3) 0.1466(2) 0.1550(4)
N7B N 0.7961(4) -0.3531(3) 0.3588(4)
N7A N -0.2039(4) -0.1469(3) -0.1412(4)
N7C N 0.2039(4) 0.1469(3) 0.1412(4)
N8B N 0.8114(4) -0.3475(4) 0.2903(5)
N9B N 0.7426(4) -0.3417(4) 0.2356(5)
N10B N -0.0051(3) -0.3707(2) 0.3603(3)
N11B N -0.0326(3) -0.4007(2) 0.4057(3)
N11A N -0.0326(3) -0.0993(2) -0.0943(3)
N11C N 0.0326(3) 0.0993(2) 0.0943(3)
N12B N -0.0036(3) -0.4448(2) 0.4048(3)
N12A N -0.0036(3) -0.0552(2) -0.0952(3)
N12C N 0.0036(3) 0.0552(2) 0.0952(3)
N13B N 0.0448(3) -0.4465(2) 0.3586(3)
N14B N 0.0702(3) -0.4407(2) -0.3417(3)
N15B N 0.0137(3) -0.4401(2) -0.4112(3)
N15A N 0.0137(3) -0.0599(2) 0.0888(3)
N15C N -0.0137(3) 0.0599(2) -0.0888(3)
N16B N -0.0203(3) -0.3958(2) -0.4234(3)
N16A N -0.0203(3) -0.1042(2) 0.0766(3)
N16C N 0.0203(3) 0.1042(2) -0.0766(3)
N17B N 0.0120(3) -0.3664(2) -0.3638(3)
N18B N 0.3693(17) 0.2638(10) -0.0213(17)
N19B N 0.5183(4) 0.0280(3) 0.1907(5)
Cl1B Cl 0.20506(17) 0.15654(14) -0.0430(2)
Mn1B Mn 0.32638(6) 0.12117(4) 0.05275(6)
Mn1A Mn -0.67362(6) 0.37883(4) -0.44725(6)
Mn1C Mn 0.67362(6) -0.37883(4) 0.44725(6)
Mn2B Mn 0.11245(5) 0.12949(3) 0.02908(7)
Mn2A Mn -0.88755(5) 0.37051(3) -0.47092(7)
Mn2A_2 Mn 0.11245(5) 0.37051(3) -0.47092(7)
Mn2A_3 Mn 0.11245(5) 0.37051(3) 0.52908(7)
Mn2C Mn 0.88755(5) -0.37051(3) 0.47092(7)
Mn2C_2 Mn -0.11245(5) -0.37051(3) 0.47092(7)
Mn2C_3 Mn -0.11245(5) -0.37051(3) -0.52908(7)
Mn3A Mn 0.0000 0.5000 -0.5000
Mn3A_2 Mn -0.0000 0.5000 0.5000
Mn3A_3 Mn -0.0000 -0.5000 0.5000
Mn3A_4 Mn 0.0000 -0.5000 -0.5000
O2B O 0.3838(4) 0.1907(2) 0.0409(4)
O3B O 0.4302(3) 0.08772(19) 0.1312(3)
O5B O 0.3692(4) 0.0904(3) -0.0418(4)
C62B C 0.0631(14) 0.2268(9) 0.0853(13)
C63B C 0.064(2) 0.3032(13) 0.000(2)
N23B N 0.0524(11) 0.2784(7) 0.0742(10)
O10B O 0.0666(7) 0.2042(5) 0.0319(10)
C64B C 0.061(3) 0.3140(14) 0.143(2)
loop_
_geom_bond_atom_site_label_1
_geom_bond_atom_site_label_2
_geom_bond_site_symmetry_1
_geom_bond_site_symmetry_2
C1 C2 1_555 1_555
C2 H1 1_555 1_555
H2 C2 1_555 1_555
C3 C2 1_555 1_555
C4 C3 1_555 1_555
H3 C4 1_555 1_555
H4 C4 1_555 1_555
C5 C4 1_555 1_555
C6 C5 1_555 1_555
H5 C6 1_555 1_555
H6 C6 1_555 1_555
C7 C6 1_555 1_555
C8 C1 1_555 1_555
H7 C8 1_555 1_555
H8 C8 1_555 1_555
C9 C3 1_555 1_555
H9 C9 1_555 1_555
H10 C9 1_555 1_555
C10 C1 1_555 1_555
H11 C10 1_555 1_555
H12 C10 1_555 1_555
C11 C1 1_555 1_555
C12 C11 1_555 1_555
H13 C12 1_555 1_555
C13 C12 1_555 1_555
H14 C13 1_555 1_555
C14 C13 1_555 1_555
C15 C14 1_555 1_555
H15 C15 1_555 1_555
C16 C11 1_555 1_555
H16 C16 1_555 1_555
C17 C14 1_555 1_555
C18 C3 1_555 1_555
C19 C18 1_555 1_555
H17 C19 1_555 1_555
C20 C19 1_555 1_555
H18 C20 1_555 1_555
C21 C20 1_555 1_555
C22 C21 1_555 1_555
H19 C22 1_555 1_555
C23 C18 1_555 1_555
H20 C23 1_555 1_555
C24 C21 1_555 1_555
C25 C5 1_555 1_555
C26 C25 1_555 1_555
H21 C26 1_555 1_555
C27 C26 1_555 1_555
H22 C27 1_555 1_555
C28 C27 1_555 1_555
C29 C28 1_555 1_555
H23 C29 1_555 1_555
C30 C25 1_555 1_555
H24 C30 1_555 1_555
C31 C28 1_555 1_555
C32 C7 1_555 1_555
C33 C32 1_555 1_555
H25 C33 1_555 1_555
C34 C33 1_555 1_555
H26 C34 1_555 1_555
C35 C34 1_555 1_555
C36 C35 1_555 1_555
H27 C36 1_555 1_555
C37 C32 1_555 1_555
H28 C37 1_555 1_555
C38 C35 1_555 1_555
C39 H29 1_555 1_555
C40 H30 1_555 1_555
H31 C40 1_555 1_555
H32 C40 1_555 1_555
C41 H33 1_555 1_555
H34 C41 1_555 1_555
H35 C41 1_555 1_555
C42 H36 1_555 1_555
C43 H37 1_555 1_555
H38 C43 1_555 1_555
H39 C43 1_555 1_555
C44 H40 1_555 1_555
H41 C44 1_555 1_555
H42 C44 1_555 1_555
C45 H43 1_555 1_555
C46 H44 1_555 1_555
H45 C46 1_555 1_555
H46 C46 1_555 1_555
C47 H47 1_555 1_555
H48 C47 1_555 1_555
H49 C47 1_555 1_555
C48 H50 1_555 1_555
C49 H51 1_555 1_555
H52 C49 1_555 1_555
H53 C49 1_555 1_555
C50 H54 1_555 1_555
H55 C50 1_555 1_555
H56 C50 1_555 1_555
C51 H57 1_555 1_555
H58 C51 1_555 1_555
H59 C51 1_555 1_555
C52 H60 1_555 1_555
H61 C52 1_555 1_555
H62 C52 1_555 1_555
C53 H63 1_555 1_555
C54 O1 1_555 1_555
N1 C54 1_555 1_555
C55 N1 1_555 1_555
C56 N1 1_555 1_555
C57 C58 1_555 1_555
C58 C59 1_555 1_555
C59 C60 1_555 1_555
C61 C57 1_555 1_555
N2 C17 1_555 1_555
N3 N2 1_555 1_555
N4 N3 1_555 1_555
N5 C17 1_555 1_555
N6 C24 1_555 1_555
N7 N6 1_555 1_555
N8 N7 1_555 1_555
N9 C24 1_555 1_555
N10 C31 1_555 1_555
N11 N10 1_555 1_555
N12 N11 1_555 1_555
N13 C31 1_555 1_555
N14 C38 1_555 1_555
N15 N14 1_555 1_555
N16 N15 1_555 1_555
N17 C38 1_555 1_555
N18 C39 1_555 1_555
N19 C42 1_555 1_555
N20 C45 1_555 1_555
N21 C48 1_555 1_555
N22 C51 1_555 1_555
Cl1 Mn1 1_555 1_555
Mn1 N4 1_555 1_555
Mn2 N3 1_555 1_555
Mn3 N2 1_555 1_555
O2 C39 1_555 1_555
O3 C42 1_555 1_555
O4 C45 1_555 1_555
O5 Mn1 1_555 1_555
O6 C48 1_555 1_555
O7 C53 1_555 1_555
C62 C61 1_555 1_555
C63 N23 1_555 1_555
N23 C61 1_555 1_555
O10 Mn2 1_555 1_555
C64 C61 1_555 1_555
N24 C65 1_555 1_555
O12 C65 1_555 1_555
C66 N24 1_555 1_555
H64 C66 1_555 1_555
H65 C66 1_555 1_555
H66 C66 1_555 1_555
C67 N24 1_555 1_555
H67 C67 1_555 1_555
H68 C67 1_555 1_555
H69 C67 1_555 1_555
C1B C2B 1_555 1_555
C2B H1B 1_555 1_555
H2B C2B 1_555 1_555
C3B C2B 1_555 1_555
C4B C3B 1_555 1_555
H3B C4B 1_555 1_555
H4B C4B 1_555 1_555
C5B C4B 1_555 1_555
C6B C5B 1_555 1_555
H5B C6B 1_555 1_555
H6B C6B 1_555 1_555
C7B C6B 1_555 1_555
C8B C1B 1_555 1_555
H7B C8B 1_555 1_555
H8B C8B 1_555 1_555
C9B C3B 1_555 1_555
H9B C9B 1_555 1_555
H10B C9B 1_555 1_555
C10B C1B 1_555 1_555
H11B C10B 1_555 1_555
H12B C10B 1_555 1_555
C11B C1B 1_555 1_555
C12B C11B 1_555 1_555
H13B C12B 1_555 1_555
C13B C12B 1_555 1_555
H14B C13B 1_555 1_555
C14B C13B 1_555 1_555
C15B C14B 1_555 1_555
H15B C15B 1_555 1_555
C16B C11B 1_555 1_555
H16B C16B 1_555 1_555
C17B C14B 1_555 1_555
C18B C3B 1_555 1_555
C19B C18B 1_555 1_555
H17B C19B 1_555 1_555
C20B C19B 1_555 1_555
H18B C20B 1_555 1_555
C21B C20B 1_555 1_555
C22B C21B 1_555 1_555
H19B C22B 1_555 1_555
C23B C18B 1_555 1_555
H20B C23B 1_555 1_555
C24B C21B 1_555 1_555
C25B C5B 1_555 1_555
C26B C25B 1_555 1_555
H21B C26B 1_555 1_555
C27B C26B 1_555 1_555
H22B C27B 1_555 1_555
C28B C27B 1_555 1_555
C29B C28B 1_555 1_555
H23B C29B 1_555 1_555
C30B C25B 1_555 1_555
H24B C30B 1_555 1_555
C31B C28B 1_555 1_555
C32B C7B 1_555 1_555
C33B C32B 1_555 1_555
H25B C33B 1_555 1_555
C34B C33B 1_555 1_555
H26B C34B 1_555 1_555
C35B C34B 1_555 1_555
C36B C35B 1_555 1_555
H27B C36B 1_555 1_555
C37B C32B 1_555 1_555
H28B C37B 1_555 1_555
C38B C35B 1_555 1_555
C39B H29B 1_555 1_555
C40B H30B 1_555 1_555
H31B C40B 1_555 1_555
H32B C40B 1_555 1_555
C41B H33B 1_555 1_555
H34B C41B 1_555 1_555
H35B C41B 1_555 1_555
C42B H36B 1_555 1_555
C43B H37B 1_555 1_555
H38B C43B 1_555 1_555
H39B C43B 1_555 1_555
C44B H40B 1_555 1_555
H41B C44B 1_555 1_555
H42B C44B 1_555 1_555
C57B C58B 1_555 1_555
C58B C59B 1_555 1_555
C59B C60B 1_555 1_555
C61B C57B 1_555 1_555
N2B Mn3 1_555 1_555
N3B N2B 1_555 1_555
N4B N3B 1_555 1_555
N5B C17B 1_555 1_555
N6B C24B 1_555 1_555
N6A Mn1 1_555 1_555
N6C N7C 1_555 1_555
N7B N6B 1_555 1_555
N7A Mn2 1_555 1_555
N7C Mn2B 1_555 1_555
N8B N7B 1_555 1_555
N9B C24B 1_555 1_555
N10B C31B 1_555 1_555
N11B N10B 1_555 1_555
N11A Mn2 1_555 1_555
N11C N12C 1_555 1_555
N12B N11B 1_555 1_555
N12A Mn3 1_555 1_555
N12C Mn3 1_555 1_555
N13B C31B 1_555 1_555
N14B C38B 1_555 1_555
N15B N14B 1_555 1_555
N15A Mn3 1_555 1_555
N15C Mn3 1_555 1_555
N16B N15B 1_555 1_555
N16A Mn2 1_555 1_555
N16C N15C 1_555 1_555
N17B C38B 1_555 1_555
N18B C39B 1_555 1_555
N19B C42B 1_555 1_555
Cl1B Mn1B 1_555 1_555
Mn1B N4B 1_555 1_555
Mn1A N6 1_555 1_555
Mn1C N6B 1_555 1_555
Mn2B N3B 1_555 1_555
Mn2A N7 1_555 1_555
Mn2A_2 N11 1_555 1_555
Mn2A_3 N16 1_555 1_555
Mn2C N7B 1_555 1_555
Mn2C_2 N11B 1_555 1_555
Mn2C_3 N16B 1_555 1_555
Mn3A N12 1_555 1_555
Mn3A_2 N15 1_555 1_555
Mn3A_3 N12B 1_555 1_555
Mn3A_4 N15B 1_555 1_555
O2B C39B 1_555 1_555
O3B C42B 1_555 1_555
O5B Mn1B 1_555 1_555
C62B C61B 1_555 1_555
C63B N23B 1_555 1_555
N23B C61B 1_555 1_555
O10B Mn2B 1_555 1_555
C64B C61B 1_555 1_555
C5 C10 1_555 1_555
C7 C8 1_555 1_555
C7 C9 1_555 1_555
C15 C16 1_555 1_555
C22 C23 1_555 1_555
C29 C30 1_555 1_555
C36 C37 1_555 1_555
C40 N18 1_555 1_555
C41 N18 1_555 1_555
C43 N19 1_555 1_555
C44 N19 1_555 1_555
C46 N20 1_555 1_555
C47 N20 1_555 1_555
C49 N21 1_555 1_555
C50 N21 1_555 1_555
C52 N22 1_555 1_555
C53 N22 1_555 1_555
N4 N5 1_555 1_555
N8 N9 1_555 1_555
N12 N13 1_555 1_555
N16 N17 1_555 1_555
Cl1 Mn2 1_555 1_555
Mn1 O2 1_555 1_555
Mn1 O3 1_555 1_555
C62 N23 1_555 1_555
C62 O10 1_555 1_555
N23 C64 1_555 1_555
C5B C10B 1_555 1_555
C7B C8B 1_555 1_555
C7B C9B 1_555 1_555
C15B C16B 1_555 1_555
C17B N2B 1_555 1_555
C22B C23B 1_555 1_555
C29B C30B 1_555 1_555
C36B C37B 1_555 1_555
C40B N18B 1_555 1_555
C41B N18B 1_555 1_555
C43B N19B 1_555 1_555
C44B N19B 1_555 1_555
N4B N5B 1_555 1_555
N6A N7A 1_555 1_555
N6C Mn1B 1_555 1_555
N8B N9B 1_555 1_555
N11A N12A 1_555 1_555
N11C Mn2B 1_555 1_555
N12B N13B 1_555 1_555
N15A N16A 1_555 1_555
N16B N17B 1_555 1_555
N16C Mn2B 1_555 1_555
Cl1B Mn2B 1_555 1_555
Mn1B O2B 1_555 1_555
Mn1B O3B 1_555 1_555
C62B N23B 1_555 1_555
C62B O10B 1_555 1_555
N23B C64B 1_555 1_555

#END
