
#######################################################################
#
#                 Cambridge Crystallographic Data Centre
#                                CCDC 
#
#######################################################################
#
# If this CIF has been generated from an entry in the Cambridge 
# Structural Database, then it will include bibliographic, chemical, 
# crystal, experimental, refinement or atomic coordinate data resulting 
# from the CCDC's data processing and validation procedures.
#
#######################################################################

data_HUZXUX
_chemical_formula_moiety         '(C70 H72 N2 O12 Zn2)n'
_symmetry_cell_setting           monoclinic
_symmetry_space_group_name_H-M   'C 2/c'
_symmetry_Int_Tables_number      15
_space_group_name_Hall           '-C 2yc'
loop_
_symmetry_equiv_pos_site_id
_symmetry_equiv_pos_as_xyz
1 x,y,z
2 -x,y,1/2-z
3 1/2+x,1/2+y,z
4 1/2-x,1/2+y,1/2-z
5 -x,-y,-z
6 x,-y,1/2+z
7 1/2-x,1/2-y,-z
8 1/2+x,1/2-y,1/2+z
_cell_length_a                   39.0490(7)
_cell_length_b                   27.5730(6)
_cell_length_c                   27.2180(6)
_cell_angle_alpha                90
_cell_angle_beta                 133.8830(10)
_cell_angle_gamma                90
_cell_volume                     21122.2
loop_
_atom_site_label
_atom_site_type_symbol
_atom_site_fract_x
_atom_site_fract_y
_atom_site_fract_z
C1 C 0.09870(16) 0.19864(15) 0.3722(2)
C2 C 0.09674(17) 0.16619(16) 0.3263(3)
C3 C 0.05349(18) 0.15604(18) 0.2602(3)
H1 H 0.0258 0.1705 0.2442
C4 C 0.0515(2) 0.12513(19) 0.2190(3)
H2 H 0.0226 0.1202 0.1744
C5 C 0.0925(2) 0.1004(2) 0.2429(4)
C6 C 0.1359(2) 0.1128(2) 0.3083(4)
H3 H 0.1639 0.0996 0.3240
C7 C 0.1377(2) 0.1443(2) 0.3499(3)
H4 H 0.1666 0.1507 0.3939
C8 C 0.0910 0.0655 0.1993
C9 C 0.0545 0.0293 0.1684
H5 H 0.0333 0.0302 0.1736
C10 C 0.0518 -0.0080 0.1296
C11 C 0.0902 -0.0088 0.1309
C12 C 0.1080 0.0316 0.1397
H6 H 0.1189 0.0382 0.1189
C13 C 0.1123 0.0692 0.1823
C14 C 0.1325(2) -0.1113(2) 0.0909(4)
H7 H 0.1613 -0.1260 0.1121
C15 C 0.1321(3) -0.0725(3) 0.1235(4)
H8 H 0.1601 -0.0631 0.1669
C16 C 0.0911(3) -0.0483(3) 0.0921(4)
C17 C 0.0492(3) -0.0652(3) 0.0296(4)
H9 H 0.0203 -0.0504 0.0082
C18 C 0.0511(2) -0.1051(2) -0.0009(3)
H10 H 0.0232 -0.1159 -0.0433
C19 C 0.09245(19) -0.12838(18) 0.0297(3)
C20 C 0.09321(18) -0.17158(17) -0.0036(3)
C21 C 0.1878 0.1025 0.2117
H11 H 0.2077 0.0743 0.2369
H12 H 0.1762 0.1023 0.1666
C22 C 0.2133 0.1483 0.2488
H13 H 0.1901 0.1681 0.2429
H14 H 0.2368 0.1393 0.2966
C23 C 0.2359 0.1789 0.2413
H15 H 0.2682 0.1668 0.2737
H16 H 0.2369 0.2087 0.2613
C24 C 0.2298 0.1972 0.1821
H17 H 0.1990 0.1867 0.1396
H18 H 0.2537 0.1818 0.1856
C25 C 0.2335 0.2528 0.1786
H19 H 0.2292 0.2605 0.1403
H20 H 0.2642 0.2637 0.2198
H21 H 0.2093 0.2686 0.1736
C26 C -0.0251 -0.0406 0.0881
H22 H -0.0409 -0.0098 0.0666
H23 H -0.0166 -0.0426 0.1310
C27 C -0.0563 -0.0810 0.0435
H24 H -0.0871 -0.0652 0.0114
H25 H -0.0571 -0.0997 0.0729
C28 C -0.0620 -0.1233 -0.0036
H26 H -0.0931 -0.1201 -0.0495
H27 H -0.0386 -0.1176 -0.0059
C29 C -0.0568 -0.1723 0.0185
H28 H -0.0855 -0.1903 -0.0176
H29 H -0.0528 -0.1722 0.0579
C30 C -0.0096 -0.2004 0.0391
H30 H -0.0073 -0.2330 0.0536
H31 H 0.0190 -0.1830 0.0754
H32 H -0.0137 -0.2011 0.0000
C31 C 0.10565(18) 0.30085(17) 0.5375(3)
C32 C 0.10595(18) 0.33299(19) 0.5821(3)
C33 C 0.1487(2) 0.3520(3) 0.6427(4)
H33 H 0.1774 0.3433 0.6568
C34 C 0.1482(2) 0.3832(3) 0.6811(4)
H34 H 0.1772 0.3935 0.7226
C35 C 0.1082(2) 0.3999(2) 0.6624(4)
C36 C 0.0669(3) 0.3824(3) 0.6037(4)
H35 H 0.0385 0.3927 0.5892
C37 C 0.0660(2) 0.3485(3) 0.5634(4)
H36 H 0.0369 0.3370 0.5232
C38 C 0.1077 0.4376 0.7011
C39 C 0.1335 0.4786 0.7199
H37 H 0.1499 0.4824 0.7068
C40 C 0.1366 0.5158 0.7584
C41 C 0.1110 0.5092 0.7777
C42 C 0.0856 0.4682 0.7575
H38 H 0.0684 0.4643 0.7693
C43 C 0.0831 0.4326 0.7217
C44 C 0.06496(19) 0.60189(18) 0.8235(3)
H39 H 0.0362 0.6111 0.8090
C45 C 0.0663(2) 0.5639(2) 0.7915(3)
H40 H 0.0382 0.5483 0.7550
C46 C 0.1080(2) 0.54905(19) 0.8126(3)
C47 C 0.1486(2) 0.5726(2) 0.8654(4)
H41 H 0.1772 0.5634 0.8797
C48 C 0.14790(19) 0.61073(18) 0.8987(3)
H42 H 0.1762 0.6256 0.9361
C49 C 0.10599(17) 0.62600(16) 0.8766(2)
C50 C 0.10429(18) 0.67124(15) 0.9066(3)
C51 C 0.0603 0.3689 0.7608
H43 H 0.0302 0.3575 0.7438
H44 H 0.0738 0.3924 0.7968
C52 C 0.1000 0.3200 0.7900
H45 H 0.1145 0.3281 0.7731
H46 H 0.0789 0.2930 0.7621
C53 C 0.1910 0.5606 0.7595
H47 H 0.1775 0.5429 0.7186
H48 H 0.1950 0.5941 0.7534
C54 C 0.2317 0.5426 0.8104
H49 H 0.2505 0.5369 0.7997
H50 H 0.2287 0.5126 0.8258
C55 C 0.2565 0.5899 0.8718
H51 H 0.2794 0.6076 0.8749
H52 H 0.2313 0.6123 0.8555
C56 C 0.2729 0.5786 0.9198
H53 H 0.2496 0.5839 0.9223
H54 H 0.2978 0.6023 0.9502
C57 C 0.2995 0.5215 0.9610
H55 H 0.3118 0.5226 1.0061
H56 H 0.3249 0.5150 0.9637
H57 H 0.2760 0.4963 0.9353
C58 C 0.2483(3) 0.2569(5) 0.6340(5)
H58 H 0.2324 0.2692 0.6454
C59 C 0.2984(3) 0.2555(5) 0.6862(5)
H59 H 0.3129 0.2656 0.7296
C60 C 0.32388(18) 0.24207(19) 0.6781(3)
C61 C 0.2991(3) 0.2277(5) 0.6157(5)
H60 H 0.3145 0.2158 0.6032
C62 C 0.2503(2) 0.2302(4) 0.5684(4)
H61 H 0.2345 0.2205 0.5243
C63 C 0.45141(16) 0.2187(2) 0.7722(3)
H62 H 0.4683 0.2029 0.7644
C64 C 0.40287(16) 0.2167(2) 0.7226(3)
H63 H 0.3874 0.1991 0.6828
C65 C 0.37711(17) 0.24103(18) 0.7324(3)
C66 C 0.40178(18) 0.2649(2) 0.7926(3)
H64 H 0.3856 0.2812 0.8013
C67 C 0.45050(17) 0.2647(2) 0.8402(3)
H65 H 0.4665 0.2813 0.8809
N1 N 0.22494(13) 0.24394(13) 0.5778(2)
N2 N 0.47598(13) 0.24239(13) 0.8316(2)
O1 O 0.13874(11) 0.20796(12) 0.42967(18)
O2 O 0.06052(11) 0.21577(12) 0.35016(17)
O3 O 0.13356(12) -0.18920(12) 0.02718(19)
O4 O 0.05561(11) -0.18815(12) -0.05408(18)
O5 O 0.1467 0.1054 0.2084
O6 O 0.0170 -0.0449 0.0993
O7 O 0.14444(12) 0.28908(13) 0.55769(19)
O8 O 0.06575(12) 0.28742(13) 0.48310(19)
O9 O 0.14268(11) 0.69190(12) 0.95328(19)
O10 O 0.06403(12) 0.68473(11) 0.88081(19)
O11 O 0.0541 0.3911 0.7024
O12 O 0.1571 0.5585 0.7687
Zn1 Zn 0.152498(16) 0.247170(15) 0.50501(2)
Zn2 Zn 0.048127(16) 0.252653(15) 0.40171(2)
C68 C 0.1489 0.2916 0.8730
H66 H 0.1755 0.2961 0.8773
H67 H 0.1542 0.3149 0.9044
C69 C 0.1602 0.2498 0.9062
H68 H 0.1696 0.2281 0.8892
H69 H 0.1306 0.2371 0.8895
C70 C 0.1947 0.2425 0.9790
H70 H 0.1955 0.2088 0.9886
H71 H 0.1860 0.2615 0.9986
H72 H 0.2255 0.2523 0.9982
N2G N -0.02402(13) 0.25761(13) 0.3316(2)
O3E O 0.13356(12) 0.18920(12) 0.52718(19)
O4E O 0.05561(11) 0.18815(12) 0.44592(18)
O9E O 0.14268(11) 0.30810(12) 0.45328(19)
O10E O 0.06403(12) 0.31527(11) 0.38081(19)
Zn1E Zn 0.152498(16) -0.247170(15) 0.00501(2)
Zn1E_2 Zn 0.152498(16) 0.752830(15) 1.00501(2)
Zn2E Zn 0.048127(16) -0.252653(15) -0.09829(2)
Zn2E_2 Zn 0.048127(16) 0.747347(15) 0.90171(2)
Zn2G Zn 0.548127(16) 0.247347(15) 0.90171(2)
loop_
_geom_bond_atom_site_label_1
_geom_bond_atom_site_label_2
_geom_bond_site_symmetry_1
_geom_bond_site_symmetry_2
C1 C2 1_555 1_555
C2 C3 1_555 1_555
C3 H1 1_555 1_555
C4 C3 1_555 1_555
H2 C4 1_555 1_555
C5 C4 1_555 1_555
C6 C5 1_555 1_555
H3 C6 1_555 1_555
C7 C2 1_555 1_555
H4 C7 1_555 1_555
C8 C5 1_555 1_555
C9 C8 1_555 1_555
H5 C9 1_555 1_555
C10 C9 1_555 1_555
C11 C10 1_555 1_555
C12 C11 1_555 1_555
H6 C12 1_555 1_555
C13 C8 1_555 1_555
C14 H7 1_555 1_555
C15 C14 1_555 1_555
H8 C15 1_555 1_555
C16 C11 1_555 1_555
C17 C16 1_555 1_555
H9 C17 1_555 1_555
C18 C17 1_555 1_555
H10 C18 1_555 1_555
C19 C14 1_555 1_555
C20 C19 1_555 1_555
C21 H11 1_555 1_555
H12 C21 1_555 1_555
C22 C21 1_555 1_555
H13 C22 1_555 1_555
H14 C22 1_555 1_555
C23 C22 1_555 1_555
H15 C23 1_555 1_555
H16 C23 1_555 1_555
C24 C23 1_555 1_555
H17 C24 1_555 1_555
H18 C24 1_555 1_555
C25 C24 1_555 1_555
H19 C25 1_555 1_555
H20 C25 1_555 1_555
H21 C25 1_555 1_555
C26 H22 1_555 1_555
H23 C26 1_555 1_555
C27 C26 1_555 1_555
H24 C27 1_555 1_555
H25 C27 1_555 1_555
C28 C27 1_555 1_555
H26 C28 1_555 1_555
H27 C28 1_555 1_555
C29 C28 1_555 1_555
H28 C29 1_555 1_555
H29 C29 1_555 1_555
C30 C29 1_555 1_555
H30 C30 1_555 1_555
H31 C30 1_555 1_555
H32 C30 1_555 1_555
C31 C32 1_555 1_555
C32 C33 1_555 1_555
C33 H33 1_555 1_555
C34 C33 1_555 1_555
H34 C34 1_555 1_555
C35 C34 1_555 1_555
C36 C35 1_555 1_555
H35 C36 1_555 1_555
C37 C32 1_555 1_555
H36 C37 1_555 1_555
C38 C35 1_555 1_555
C39 C38 1_555 1_555
H37 C39 1_555 1_555
C40 C39 1_555 1_555
C41 C40 1_555 1_555
C42 C41 1_555 1_555
H38 C42 1_555 1_555
C43 C38 1_555 1_555
C44 H39 1_555 1_555
C45 C44 1_555 1_555
H40 C45 1_555 1_555
C46 C41 1_555 1_555
C47 C46 1_555 1_555
H41 C47 1_555 1_555
C48 C47 1_555 1_555
H42 C48 1_555 1_555
C49 C44 1_555 1_555
C50 C49 1_555 1_555
C51 H43 1_555 1_555
H44 C51 1_555 1_555
C52 C51 1_555 1_555
H45 C52 1_555 1_555
H46 C52 1_555 1_555
C53 H47 1_555 1_555
H48 C53 1_555 1_555
C54 C53 1_555 1_555
H49 C54 1_555 1_555
H50 C54 1_555 1_555
C55 C54 1_555 1_555
H51 C55 1_555 1_555
H52 C55 1_555 1_555
C56 C55 1_555 1_555
H53 C56 1_555 1_555
H54 C56 1_555 1_555
C57 C56 1_555 1_555
H55 C57 1_555 1_555
H56 C57 1_555 1_555
H57 C57 1_555 1_555
C58 H58 1_555 1_555
C59 C58 1_555 1_555
H59 C59 1_555 1_555
C60 C59 1_555 1_555
C61 C60 1_555 1_555
H60 C61 1_555 1_555
C62 C61 1_555 1_555
H61 C62 1_555 1_555
C63 H62 1_555 1_555
C64 C63 1_555 1_555
H63 C64 1_555 1_555
C65 C60 1_555 1_555
C66 C65 1_555 1_555
H64 C66 1_555 1_555
C67 C66 1_555 1_555
H65 C67 1_555 1_555
N1 C58 1_555 1_555
N2 C63 1_555 1_555
O1 C1 1_555 1_555
O2 C1 1_555 1_555
O3 C20 1_555 1_555
O4 C20 1_555 1_555
O5 C13 1_555 1_555
O6 C10 1_555 1_555
O7 C31 1_555 1_555
O8 C31 1_555 1_555
O9 C50 1_555 1_555
O10 C50 1_555 1_555
O11 C43 1_555 1_555
O12 C40 1_555 1_555
Zn1 N1 1_555 1_555
Zn2 O2 1_555 1_555
C68 C52 1_555 1_555
H66 C68 1_555 1_555
H67 C68 1_555 1_555
C69 C68 1_555 1_555
H68 C69 1_555 1_555
H69 C69 1_555 1_555
C70 C69 1_555 1_555
H70 C70 1_555 1_555
H71 C70 1_555 1_555
H72 C70 1_555 1_555
N2G Zn2 1_555 1_555
O3E Zn1 1_555 1_555
O4E Zn2 1_555 1_555
O9E Zn1 1_555 1_555
O10E Zn2 1_555 1_555
Zn1E O3 1_555 1_555
Zn1E_2 O9 1_555 1_555
Zn2E O4 1_555 1_555
Zn2E_2 O10 1_555 1_555
Zn2G N2 1_555 1_555
C6 C7 1_555 1_555
C12 C13 1_555 1_555
C15 C16 1_555 1_555
C18 C19 1_555 1_555
C21 O5 1_555 1_555
C26 O6 1_555 1_555
C36 C37 1_555 1_555
C42 C43 1_555 1_555
C45 C46 1_555 1_555
C48 C49 1_555 1_555
C51 O11 1_555 1_555
C53 O12 1_555 1_555
C62 N1 1_555 1_555
C64 C65 1_555 1_555
C67 N2 1_555 1_555
O1 Zn1 1_555 1_555
O7 Zn1 1_555 1_555
O8 Zn2 1_555 1_555

#END
