
#######################################################################
#
#                 Cambridge Crystallographic Data Centre
#                                CCDC 
#
#######################################################################
#
# If this CIF has been generated from an entry in the Cambridge 
# Structural Database, then it will include bibliographic, chemical, 
# crystal, experimental, refinement or atomic coordinate data resulting 
# from the CCDC's data processing and validation procedures.
#
#######################################################################

data_HUZXEH
_chemical_formula_moiety         '(C58 H48 N2 O12 Zn2)n'
_symmetry_cell_setting           monoclinic
_symmetry_space_group_name_H-M   'C 2/c'
_symmetry_Int_Tables_number      15
_space_group_name_Hall           '-C 2yc'
loop_
_symmetry_equiv_pos_site_id
_symmetry_equiv_pos_as_xyz
1 x,y,z
2 -x,y,1/2-z
3 1/2+x,1/2+y,z
4 1/2-x,1/2+y,1/2-z
5 -x,-y,-z
6 x,-y,1/2+z
7 1/2-x,1/2-y,-z
8 1/2+x,1/2-y,1/2+z
_cell_length_a                   39.005
_cell_length_b                   27.431
_cell_length_c                   27.362
_cell_angle_alpha                90
_cell_angle_beta                 133.84
_cell_angle_gamma                90
_cell_volume                     21116
loop_
_atom_site_label
_atom_site_type_symbol
_atom_site_fract_x
_atom_site_fract_y
_atom_site_fract_z
C1 C 0.5974(5) 0.3007(5) 0.8228(7)
C2 C 0.5968(5) 0.3344(5) 0.8667(8)
C3 C 0.6372(6) 0.3567(6) 0.9235(9)
H1 H 0.6663 0.3507 0.9373
C4 C 0.6343(7) 0.3879(6) 0.9598(10)
H2 H 0.6619 0.4023 0.9989
C5 C 0.5913(7) 0.3985(6) 0.9394(10)
C6 C 0.5507(6) 0.3759(5) 0.8821(9)
H3 H 0.5215 0.3827 0.8679
C7 C 0.5528(5) 0.3441(5) 0.8466(8)
H4 H 0.5253 0.3285 0.8089
C8 C 0.5887 0.4346 0.9776
C9 C 0.6108 0.4305 1.0383
C10 C 0.6131 0.4679 1.0818
H5 H 0.6304 0.4627 1.1273
C11 C 0.5882 0.5091 1.0493
C12 C 0.5524 0.5067 0.9782
C13 C 0.5511 0.4739 0.9384
H6 H 0.5290 0.4760 0.8914
C14 C 0.6326(7) 0.6097(7) 1.1740(10)
H7 H 0.6619 0.6234 1.2108
C15 C 0.6307(7) 0.5710(8) 1.1394(11)
H8 H 0.6587 0.5597 1.1529
C16 C 0.5887(8) 0.5490(7) 1.0862(12)
C17 C 0.5483(7) 0.5672(7) 1.0677(11)
H9 H 0.5192 0.5536 1.0306
C18 C 0.5494(6) 0.6048(6) 1.1020(9)
H10 H 0.5216 0.6146 1.0901
C19 C 0.5923(6) 0.6281(5) 1.1548(8)
C20 C 0.5934(5) 0.6716(5) 1.1892(8)
C21 C 0.4742 0.5393 0.8581
H11 H 0.4834 0.5417 0.8331
H12 H 0.4563 0.5095 0.8454
C22 C 0.4458 0.5843 0.8465
H13 H 0.4172 0.5867 0.7993
H14 H 0.4647 0.6131 0.8604
H15 H 0.4378 0.5812 0.8726
C23 C 0.6872 0.3941 1.1688
H16 H 0.7174 0.4105 1.1942
H17 H 0.6713 0.4077 1.1814
C24 C 0.6937 0.3390 1.1803
H18 H 0.7230 0.3324 1.2259
H19 H 0.6945 0.3244 1.1492
H20 H 0.6677 0.3256 1.1730
C25 C 0.6063(6) 0.1993(5) 0.6737(8)
C26 C 0.6076(6) 0.1656(6) 0.6314(8)
C27 C 0.5665(6) 0.1514(7) 0.5691(9)
H21 H 0.5375 0.1635 0.5512
C28 C 0.5686(7) 0.1194(8) 0.5331(11)
H22 H 0.5402 0.1094 0.4908
C29 C 0.6109(8) 0.1007(7) 0.5564(11)
C30 C 0.6523(7) 0.1175(8) 0.6185(11)
H23 H 0.6815 0.1070 0.6354
C31 C 0.6510(6) 0.1494(7) 0.6556(10)
H24 H 0.6793 0.1604 0.6973
C32 C 0.6097 0.0628 0.5175
C33 C 0.5848 0.0686 0.4490
C34 C 0.5856 0.0329 0.4151
H25 H 0.5674 0.0383 0.3693
C35 C 0.6097 -0.0090 0.4408
C36 C 0.6343 -0.0188 0.5102
C37 C 0.6356 0.0219 0.5508
H26 H 0.6538 0.0183 0.5969
C38 C 0.5652(6) -0.1011(5) 0.3064(8)
H27 H 0.5366 -0.1099 0.2636
C39 C 0.5657(6) -0.0634(6) 0.3408(10)
H28 H 0.5375 -0.0480 0.3219
C40 C 0.6091(7) -0.0490(6) 0.4046(10)
C41 C 0.6494(6) -0.0719(6) 0.4301(9)
H29 H 0.6784 -0.0622 0.4718
C42 C 0.6484(6) -0.1098(6) 0.3952(9)
H30 H 0.6767 -0.1243 0.4134
C43 C 0.6067(5) -0.1257(5) 0.3351(7)
C44 C 0.6046(6) -0.1701(5) 0.3018(8)
C45 C 0.5417 0.1327 0.3501
H31 H 0.5689 0.1343 0.3553
H32 H 0.5165 0.1144 0.3095
C46 C 0.5291 0.1710 0.3489
H33 H 0.5196 0.1888 0.3110
H34 H 0.5546 0.1879 0.3901
H35 H 0.5026 0.1682 0.3447
C47 C 0.6916 -0.0665 0.6318
H36 H 0.7189 -0.0452 0.6619
H37 H 0.6705 -0.0623 0.6387
C48 C 0.7056 -0.1193 0.6379
H38 H 0.7229 -0.1308 0.6829
H39 H 0.7253 -0.1219 0.6288
H40 H 0.6775 -0.1387 0.6058
C49 C 0.4519(5) 0.2626(7) 0.5628(8)
H41 H 0.4684 0.2786 0.5545
C50 C 0.4027(5) 0.2626(7) 0.5123(8)
H42 H 0.3871 0.2775 0.4709
C51 C 0.3777(5) 0.2409(5) 0.5232(8)
C52 C 0.4029(5) 0.2167(6) 0.5834(8)
H43 H 0.3869 0.1995 0.5918
C53 C 0.4509(5) 0.2178(5) 0.6304(7)
H44 H 0.4674 0.2013 0.6711
C54 C 0.2507(7) 0.2489(13) 0.3580(13)
H45 H 0.2353 0.2548 0.3133
C55 C 0.2989(7) 0.2471(12) 0.4057(13)
H46 H 0.3149 0.2501 0.3918
C56 C 0.3239(5) 0.2415(5) 0.4699(7)
C57 C 0.2982(7) 0.2304(13) 0.4800(11)
H47 H 0.3125 0.2211 0.5233
C58 C 0.2494(6) 0.2315(12) 0.4288(12)
H48 H 0.2331 0.2222 0.4408
N1 N 0.4759(4) 0.2419(4) 0.6205(6)
N2 N 0.2254(4) 0.2428(4) 0.3714(6)
O1 O 0.5600(3) 0.2840(3) 0.7699(5)
O2 O 0.6388(3) 0.2931(3) 0.8467(5)
O3 O 0.5556(3) 0.6888(3) 1.1652(5)
O4 O 0.6339(4) 0.6882(3) 1.2391(5)
O5 O 0.5200 0.5419 0.9391
O6 O 0.6508 0.3986 1.0791
O7 O 0.5671(3) 0.2123(4) 0.6503(5)
O8 O 0.6454(4) 0.2109(4) 0.7316(5)
O9 O 0.5640(4) -0.1838(3) 0.2472(5)
O10 O 0.6429(3) -0.1913(3) 0.3308(5)
O11 O 0.5547 0.1110 0.4112
O12 O 0.6628 -0.0594 0.5483
Zn1 Zn 0.54856(5) 0.24694(5) 0.69537(7)
Zn2 Zn 0.65287(5) 0.25316(5) 0.79921(7)
N2G N 0.7254(4) 0.2572(4) 0.8714(6)
O3E O 0.5556(3) 0.3112(3) 0.6652(5)
O4E O 0.6339(4) 0.3118(3) 0.7391(5)
O9E O 0.5640(4) 0.1838(3) 0.7472(5)
O10E O 0.6429(3) 0.1913(3) 0.8308(5)
Zn1E Zn 0.54856(5) -0.24694(5) 0.19537(7)
Zn1E_2 Zn 0.54856(5) 0.75306(5) 1.19537(7)
Zn2E Zn 0.65287(5) -0.25316(5) 0.29921(7)
Zn2E_2 Zn 0.65287(5) 0.74684(5) 1.29921(7)
Zn2G Zn 0.15287(5) 0.24684(5) 0.29921(7)
loop_
_geom_bond_atom_site_label_1
_geom_bond_atom_site_label_2
_geom_bond_site_symmetry_1
_geom_bond_site_symmetry_2
C1 C2 1_555 1_555
C2 C3 1_555 1_555
C3 H1 1_555 1_555
C4 C3 1_555 1_555
H2 C4 1_555 1_555
C5 C4 1_555 1_555
C6 C5 1_555 1_555
H3 C6 1_555 1_555
C7 C2 1_555 1_555
H4 C7 1_555 1_555
C8 C5 1_555 1_555
C9 C8 1_555 1_555
C10 C9 1_555 1_555
H5 C10 1_555 1_555
C11 C10 1_555 1_555
C12 C11 1_555 1_555
C13 C8 1_555 1_555
H6 C13 1_555 1_555
C14 H7 1_555 1_555
C15 C14 1_555 1_555
H8 C15 1_555 1_555
C16 C11 1_555 1_555
C17 C16 1_555 1_555
H9 C17 1_555 1_555
C18 C17 1_555 1_555
H10 C18 1_555 1_555
C19 C14 1_555 1_555
C20 C19 1_555 1_555
C21 H11 1_555 1_555
H12 C21 1_555 1_555
C22 C21 1_555 1_555
H13 C22 1_555 1_555
H14 C22 1_555 1_555
H15 C22 1_555 1_555
C23 H16 1_555 1_555
H17 C23 1_555 1_555
C24 C23 1_555 1_555
H18 C24 1_555 1_555
H19 C24 1_555 1_555
H20 C24 1_555 1_555
C25 C26 1_555 1_555
C26 C27 1_555 1_555
C27 H21 1_555 1_555
C28 C27 1_555 1_555
H22 C28 1_555 1_555
C29 C28 1_555 1_555
C30 C29 1_555 1_555
H23 C30 1_555 1_555
C31 C26 1_555 1_555
H24 C31 1_555 1_555
C32 C29 1_555 1_555
C33 C32 1_555 1_555
C34 C33 1_555 1_555
H25 C34 1_555 1_555
C35 C34 1_555 1_555
C36 C35 1_555 1_555
C37 C32 1_555 1_555
H26 C37 1_555 1_555
C38 H27 1_555 1_555
C39 C38 1_555 1_555
H28 C39 1_555 1_555
C40 C35 1_555 1_555
C41 C40 1_555 1_555
H29 C41 1_555 1_555
C42 C41 1_555 1_555
H30 C42 1_555 1_555
C43 C38 1_555 1_555
C44 C43 1_555 1_555
C45 H31 1_555 1_555
H32 C45 1_555 1_555
C46 C45 1_555 1_555
H33 C46 1_555 1_555
H34 C46 1_555 1_555
H35 C46 1_555 1_555
C47 H36 1_555 1_555
H37 C47 1_555 1_555
C48 C47 1_555 1_555
H38 C48 1_555 1_555
H39 C48 1_555 1_555
H40 C48 1_555 1_555
C49 H41 1_555 1_555
C50 C49 1_555 1_555
H42 C50 1_555 1_555
C51 C50 1_555 1_555
C52 C51 1_555 1_555
H43 C52 1_555 1_555
C53 C52 1_555 1_555
H44 C53 1_555 1_555
C54 H45 1_555 1_555
C55 C54 1_555 1_555
H46 C55 1_555 1_555
C56 C51 1_555 1_555
C57 C56 1_555 1_555
H47 C57 1_555 1_555
C58 C57 1_555 1_555
H48 C58 1_555 1_555
N1 C49 1_555 1_555
N2 C54 1_555 1_555
O1 C1 1_555 1_555
O2 C1 1_555 1_555
O3 C20 1_555 1_555
O4 C20 1_555 1_555
O5 C12 1_555 1_555
O6 C9 1_555 1_555
O7 C25 1_555 1_555
O8 C25 1_555 1_555
O9 C44 1_555 1_555
O10 C44 1_555 1_555
O11 C33 1_555 1_555
O12 C36 1_555 1_555
Zn1 N1 1_555 1_555
Zn2 O2 1_555 1_555
N2G Zn2 1_555 1_555
O3E Zn1 1_555 1_555
O4E Zn2 1_555 1_555
O9E Zn1 1_555 1_555
O10E Zn2 1_555 1_555
Zn1E O9 1_555 1_555
Zn1E_2 O3 1_555 1_555
Zn2E O10 1_555 1_555
Zn2E_2 O4 1_555 1_555
Zn2G N2 1_555 1_555
C6 C7 1_555 1_555
C12 C13 1_555 1_555
C15 C16 1_555 1_555
C18 C19 1_555 1_555
C21 O5 1_555 1_555
C23 O6 1_555 1_555
C30 C31 1_555 1_555
C36 C37 1_555 1_555
C39 C40 1_555 1_555
C42 C43 1_555 1_555
C45 O11 1_555 1_555
C47 O12 1_555 1_555
C53 N1 1_555 1_555
C55 C56 1_555 1_555
C58 N2 1_555 1_555
O1 Zn1 1_555 1_555
O7 Zn1 1_555 1_555
O8 Zn2 1_555 1_555

#END
