
#######################################################################
#
#                 Cambridge Crystallographic Data Centre
#                                CCDC 
#
#######################################################################
#
# If this CIF has been generated from an entry in the Cambridge 
# Structural Database, then it will include bibliographic, chemical, 
# crystal, experimental, refinement or atomic coordinate data resulting 
# from the CCDC's data processing and validation procedures.
#
#######################################################################

data_HUZXIL
_chemical_formula_moiety         '(C62 H56 N2 O12 Zn2)n'
_symmetry_cell_setting           monoclinic
_symmetry_space_group_name_H-M   'C 2/c'
_symmetry_Int_Tables_number      15
_space_group_name_Hall           '-C 2yc'
loop_
_symmetry_equiv_pos_site_id
_symmetry_equiv_pos_as_xyz
1 x,y,z
2 -x,y,1/2-z
3 1/2+x,1/2+y,z
4 1/2-x,1/2+y,1/2-z
5 -x,-y,-z
6 x,-y,1/2+z
7 1/2-x,1/2-y,-z
8 1/2+x,1/2-y,1/2+z
_cell_length_a                   38.8298(9)
_cell_length_b                   27.7339(5)
_cell_length_c                   27.0455(6)
_cell_angle_alpha                90
_cell_angle_beta                 133.5450(10)
_cell_angle_gamma                90
_cell_volume                     21111
loop_
_atom_site_label
_atom_site_type_symbol
_atom_site_fract_x
_atom_site_fract_y
_atom_site_fract_z
C1 C 0.10443(18) -0.17152(14) -0.1999(2)
C2 C 0.10644(15) -0.12705(14) -0.1648(2)
C3 C 0.06502(18) -0.10215(16) -0.1945(3)
H1 H 0.0363 -0.1110 -0.2372
C4 C 0.0671(2) -0.06383(18) -0.1595(3)
H2 H 0.0394 -0.0471 -0.1793
C5 C 0.1088(2) -0.05006(19) -0.0967(3)
C6 C 0.1498(2) -0.0741(2) -0.0691(3)
H3 H 0.1786 -0.0649 -0.0266
C7 C 0.14853(17) -0.11137(16) -0.1034(3)
H4 H 0.1767 -0.1263 -0.0848
C8 C 0.0815 0.0679 -0.0566
C9 C 0.0831 0.0300 -0.0901
H5 H 0.0660 0.0331 -0.1363
C10 C 0.1077 -0.0089 -0.0582
C11 C 0.1333 -0.0165 0.0117
C12 C 0.1378 0.0196 0.0507
H6 H 0.1573 0.0152 0.0974
C13 C 0.1119 0.0650 0.0187
C14 C 0.0670(2) 0.1526(2) 0.0660(3)
H7 H 0.0382 0.1649 0.0484
C15 C 0.0678(2) 0.1215(2) 0.0274(3)
H8 H 0.0398 0.1141 -0.0169
C16 C 0.1099(2) 0.1012(2) 0.0539(3)
C17 C 0.1513(2) 0.1171(2) 0.1163(3)
H9 H 0.1807 0.1070 0.1338
C18 C 0.1480(2) 0.1478(2) 0.1516(3)
H10 H 0.1761 0.1573 0.1947
C19 C 0.10719(17) 0.16551(16) 0.1287(2)
C20 C 0.10655(18) 0.19976(16) 0.1718(2)
C21 C 0.0292 0.1158 -0.1701
H11 H 0.0094 0.0886 -0.1990
H12 H 0.0498 0.1249 -0.1769
C22 C -0.0011 0.1607 -0.1783
H13 H 0.0042 0.1630 -0.1377
H14 H -0.0347 0.1548 -0.2168
C23 C 0.0145 0.2151 -0.1906
H15 H -0.0042 0.2407 -0.1952
H16 H 0.0476 0.2214 -0.1521
C24 C 0.2101 -0.0540 0.1387
H17 H 0.1976 -0.0536 0.1598
H18 H 0.2304 -0.0821 0.1554
C25 C 0.2437 -0.0011 0.1612
H19 H 0.2268 0.0281 0.1535
H20 H 0.2746 -0.0019 0.2077
C26 C 0.2459 -0.0067 0.1212
H21 H 0.2636 0.0192 0.1242
H22 H 0.2144 -0.0073 0.0764
H23 H 0.2615 -0.0367 0.1298
C27 C 0.09325(16) 0.67273(14) 0.6867(2)
C28 C 0.09052(17) 0.62939(16) 0.6505(2)
C29 C 0.04714(18) 0.60700(16) 0.5970(3)
H24 H 0.0194 0.6174 0.5851
C30 C 0.0456(2) 0.56912(18) 0.5619(3)
H25 H 0.0162 0.5563 0.5242
C31 C 0.0854(2) 0.55023(19) 0.5808(3)
C32 C 0.1296(2) 0.5720(2) 0.6368(3)
H26 H 0.1576 0.5594 0.6516
C33 C 0.13136(19) 0.6116(2) 0.6696(3)
H27 H 0.1604 0.6264 0.7048
C34 C 0.0857 0.5109 0.5473
C35 C 0.0519 0.5078 0.4756
C36 C 0.1191 0.4355 0.5456
C37 C 0.08721(18) 0.43411(17) 0.4762(3)
C38 C 0.0530 0.4704 0.4388
H28 H 0.0314 0.4707 0.3915
C39 C 0.1182 0.4715 0.5831
H29 H 0.1386 0.4690 0.6302
C40 C 0.13607(17) 0.35708(17) 0.4212(3)
H30 H 0.1651 0.3516 0.4343
C41 C 0.1329(2) 0.38943(18) 0.4583(3)
H31 H 0.1603 0.4047 0.4965
C42 C 0.0903(2) 0.39886(17) 0.4391(3)
C43 C 0.04999(17) 0.37512(16) 0.3816(3)
H32 H 0.0209 0.3811 0.3680
C44 C 0.05159(16) 0.34293(15) 0.3439(2)
C45 C 0.09579(16) 0.33375(14) 0.3654(2)
C46 C 0.09794(15) 0.30081(13) 0.3229(2)
C47 C -0.0284 0.5299 0.3578
H33 H -0.0455 0.5005 0.3485
H34 H -0.0203 0.5315 0.3310
C48 C 0.1751 0.3916 0.6600
H35 H 0.1987 0.4164 0.6896
H36 H 0.1504 0.3944 0.6605
C49 C 0.1996 0.3393 0.6882
H37 H 0.1797 0.3164 0.6510
H38 H 0.2298 0.3406 0.7008
C50 C 0.2075 0.3220 0.7416
H39 H 0.2221 0.2908 0.7538
H40 H 0.1779 0.3193 0.7296
H41 H 0.2282 0.3435 0.7796
C51 C 0.2516 0.2574 0.4367
H42 H 0.2356 0.2557 0.4509
C52 C 0.2960 0.2598 0.4825
H43 H 0.3103 0.2648 0.5272
C53 C 0.3246 0.2554 0.4701
C54 C 0.2989 0.2534 0.4000
H44 H 0.3147 0.2511 0.3855
C55 C 0.2488 0.2549 0.3522
H45 H 0.2320 0.2543 0.3060
C56 C 0.45064(14) 0.28150(17) 0.6297(2)
H46 H 0.4670 0.2980 0.6705
C57 C 0.40207(16) 0.28184(17) 0.5826(2)
H47 H 0.3861 0.2978 0.5921
C58 C 0.37705(14) 0.25881(15) 0.5217(2)
C59 C 0.40299(15) 0.2371(2) 0.5106(2)
H48 H 0.3875 0.2222 0.4690
C60 C 0.45070(15) 0.2372(2) 0.5598(2)
H49 H 0.4673 0.2214 0.5513
N1 N 0.22502(11) 0.25706(11) 0.36983(17)
N2 N 0.47541(12) 0.25852(11) 0.61961(18)
O1 O 0.14216(11) -0.19299(10) -0.17041(16)
O2 O 0.06400(11) -0.18462(10) -0.25387(16)
O3 O 0.0576 0.1070 -0.0911
O4 O 0.1620 -0.0578 0.0479
O5 O 0.14482(11) 0.21150(11) 0.22938(16)
O6 O 0.06634(11) 0.21246(11) 0.14734(15)
O7 O 0.13321(10) 0.68893(10) 0.73586(16)
O8 O 0.05439(10) 0.68991(10) 0.66212(16)
O9 O 0.0147 0.5401 0.4360
O10 O 0.1523 0.3996 0.5833
O11 O 0.13839(10) 0.29315(10) 0.34518(15)
O12 O 0.06003(10) 0.28353(10) 0.26935(15)
Zn1 Zn 0.152336(14) 0.253263(14) 0.29736(2)
Zn2 Zn 0.048003(14) 0.246697(14) 0.19342(2)
C61 C -0.0583 0.5872 0.3530
H50 H -0.0904 0.5784 0.3311
H51 H -0.0416 0.5964 0.3994
C62 C -0.0611 0.6209 0.3258
H52 H -0.0770 0.6460 0.3281
H53 H -0.0789 0.6133 0.2789
H54 H -0.0298 0.6314 0.3477
N2G N -0.02459(12) 0.24148(11) 0.11961(18)
O1E O 0.14216(11) 0.19299(10) 0.32959(16)
O2E O 0.06400(11) 0.18462(10) 0.24613(16)
O7E O 0.13321(10) 0.31107(10) 0.23586(16)
O8E O 0.05439(10) 0.31009(10) 0.16212(16)
Zn1E Zn 0.152336(14) -0.253263(14) -0.20264(2)
Zn1E_2 Zn 0.152336(14) 0.746737(14) 0.79736(2)
Zn2E Zn 0.048003(14) -0.246697(14) -0.30658(2)
Zn2E_2 Zn 0.048003(14) 0.753303(14) 0.69342(2)
Zn2G Zn 0.548003(14) 0.253303(14) 0.69342(2)
loop_
_geom_bond_atom_site_label_1
_geom_bond_atom_site_label_2
_geom_bond_site_symmetry_1
_geom_bond_site_symmetry_2
C1 C2 1_555 1_555
C2 C3 1_555 1_555
C3 H1 1_555 1_555
C4 C3 1_555 1_555
H2 C4 1_555 1_555
C5 C4 1_555 1_555
C6 C5 1_555 1_555
H3 C6 1_555 1_555
C7 C2 1_555 1_555
H4 C7 1_555 1_555
C8 C9 1_555 1_555
C9 H5 1_555 1_555
C10 C5 1_555 1_555
C11 C10 1_555 1_555
C12 C11 1_555 1_555
H6 C12 1_555 1_555
C13 C8 1_555 1_555
C14 H7 1_555 1_555
C15 C14 1_555 1_555
H8 C15 1_555 1_555
C16 C13 1_555 1_555
C17 C16 1_555 1_555
H9 C17 1_555 1_555
C18 C17 1_555 1_555
H10 C18 1_555 1_555
C19 C14 1_555 1_555
C20 C19 1_555 1_555
C21 H11 1_555 1_555
H12 C21 1_555 1_555
C22 C21 1_555 1_555
H13 C22 1_555 1_555
H14 C22 1_555 1_555
C23 C22 1_555 1_555
H15 C23 1_555 1_555
H16 C23 1_555 1_555
C24 H17 1_555 1_555
H18 C24 1_555 1_555
C25 C24 1_555 1_555
H19 C25 1_555 1_555
H20 C25 1_555 1_555
C26 C25 1_555 1_555
H21 C26 1_555 1_555
H22 C26 1_555 1_555
H23 C26 1_555 1_555
C27 C28 1_555 1_555
C28 C29 1_555 1_555
C29 H24 1_555 1_555
C30 C29 1_555 1_555
H25 C30 1_555 1_555
C31 C30 1_555 1_555
C32 C31 1_555 1_555
H26 C32 1_555 1_555
C33 C28 1_555 1_555
H27 C33 1_555 1_555
C34 C31 1_555 1_555
C35 C34 1_555 1_555
C36 C37 1_555 1_555
C37 C38 1_555 1_555
C38 C35 1_555 1_555
H28 C38 1_555 1_555
C39 C34 1_555 1_555
H29 C39 1_555 1_555
C40 H30 1_555 1_555
C41 C40 1_555 1_555
H31 C41 1_555 1_555
C42 C37 1_555 1_555
C43 C42 1_555 1_555
H32 C43 1_555 1_555
C44 C43 1_555 1_555
C45 C40 1_555 1_555
C46 C45 1_555 1_555
C47 H33 1_555 1_555
H34 C47 1_555 1_555
C48 H35 1_555 1_555
H36 C48 1_555 1_555
C49 C48 1_555 1_555
H37 C49 1_555 1_555
H38 C49 1_555 1_555
C50 C49 1_555 1_555
H39 C50 1_555 1_555
H40 C50 1_555 1_555
H41 C50 1_555 1_555
C51 H42 1_555 1_555
C52 C51 1_555 1_555
H43 C52 1_555 1_555
C53 C52 1_555 1_555
C54 C53 1_555 1_555
H44 C54 1_555 1_555
C55 C54 1_555 1_555
H45 C55 1_555 1_555
C56 H46 1_555 1_555
C57 C56 1_555 1_555
H47 C57 1_555 1_555
C58 C53 1_555 1_555
C59 C58 1_555 1_555
H48 C59 1_555 1_555
C60 C59 1_555 1_555
H49 C60 1_555 1_555
N1 C51 1_555 1_555
N2 C56 1_555 1_555
O1 C1 1_555 1_555
O2 C1 1_555 1_555
O3 C8 1_555 1_555
O4 C11 1_555 1_555
O5 C20 1_555 1_555
O6 C20 1_555 1_555
O7 C27 1_555 1_555
O8 C27 1_555 1_555
O9 C35 1_555 1_555
O10 C36 1_555 1_555
O11 C46 1_555 1_555
O12 C46 1_555 1_555
Zn1 N1 1_555 1_555
Zn2 O6 1_555 1_555
C61 C47 1_555 1_555
H50 C61 1_555 1_555
H51 C61 1_555 1_555
C62 C61 1_555 1_555
H52 C62 1_555 1_555
H53 C62 1_555 1_555
H54 C62 1_555 1_555
N2G Zn2 1_555 1_555
O1E Zn1 1_555 1_555
O2E Zn2 1_555 1_555
O7E Zn1 1_555 1_555
O8E Zn2 1_555 1_555
Zn1E O1 1_555 1_555
Zn1E_2 O7 1_555 1_555
Zn2E O2 1_555 1_555
Zn2E_2 O8 1_555 1_555
Zn2G N2 1_555 1_555
C6 C7 1_555 1_555
C9 C10 1_555 1_555
C12 C13 1_555 1_555
C15 C16 1_555 1_555
C18 C19 1_555 1_555
C21 O3 1_555 1_555
C24 O4 1_555 1_555
C32 C33 1_555 1_555
C36 C39 1_555 1_555
C41 C42 1_555 1_555
C44 C45 1_555 1_555
C47 O9 1_555 1_555
C48 O10 1_555 1_555
C55 N1 1_555 1_555
C57 C58 1_555 1_555
C60 N2 1_555 1_555
O5 Zn1 1_555 1_555
O11 Zn1 1_555 1_555
O12 Zn2 1_555 1_555

#END
