
#######################################################################
#
#                 Cambridge Crystallographic Data Centre
#                                CCDC 
#
#######################################################################
#
# If this CIF has been generated from an entry in the Cambridge 
# Structural Database, then it will include bibliographic, chemical, 
# crystal, experimental, refinement or atomic coordinate data resulting 
# from the CCDC's data processing and validation procedures.
#
#######################################################################

data_HUZXOR
_chemical_formula_moiety         '(C66 H64 N2 O12 Zn2)n'
_symmetry_cell_setting           monoclinic
_symmetry_space_group_name_H-M   'C 2/c'
_symmetry_Int_Tables_number      15
_space_group_name_Hall           '-C 2yc'
loop_
_symmetry_equiv_pos_site_id
_symmetry_equiv_pos_as_xyz
1 x,y,z
2 -x,y,1/2-z
3 1/2+x,1/2+y,z
4 1/2-x,1/2+y,1/2-z
5 -x,-y,-z
6 x,-y,1/2+z
7 1/2-x,1/2-y,-z
8 1/2+x,1/2-y,1/2+z
_cell_length_a                   38.9780(9)
_cell_length_b                   27.4330(7)
_cell_length_c                   27.3770(6)
_cell_angle_alpha                90
_cell_angle_beta                 133.8060(9)
_cell_angle_gamma                90
_cell_volume                     21126.5
loop_
_atom_site_label
_atom_site_type_symbol
_atom_site_fract_x
_atom_site_fract_y
_atom_site_fract_z
Zn1 Zn 0.048556(18) 0.253135(19) 0.69540(3)
N1 N -0.02329(15) 0.25864(16) 0.6214(2)
O1 O 0.06415(13) 0.31613(13) 0.74764(19)
O2 O 0.05517(13) 0.18872(14) 0.6652(2)
O3 O 0.06745(13) 0.28775(15) 0.65098(18)
O4 O 0.06005(13) 0.21599(14) 0.77010(17)
C1 C -0.04879(18) 0.2821(2) 0.6313(3)
C2 C -0.0487(2) 0.2372(3) 0.5617(3)
C3 C 0.1040(2) 0.32947(18) 0.8006(3)
C4 C 0.0935(2) 0.17146(19) 0.6884(3)
H1 H -0.0324 0.2977 0.6725
C5 C -0.09741(19) 0.2838(2) 0.5835(3)
C6 C -0.0974(2) 0.2376(3) 0.5119(3)
H2 H -0.0324 0.2209 0.5530
C7 C 0.10590(19) 0.3744(2) 0.8342(3)
O5 O 0.14289(13) 0.30846(14) 0.8303(2)
C8 C 0.0921(2) 0.1281(2) 0.6546(3)
O6 O 0.13448(13) 0.18847(14) 0.7392(2)
O7 O 0.14566(14) 0.28901(15) 0.7315(2)
O8 O 0.13898(12) 0.20734(14) 0.84734(18)
H3 H -0.1135 0.3009 0.5919
C9 C -0.12236(19) 0.2600(2) 0.5226(3)
H4 H -0.1131 0.2225 0.4707
C10 C 0.0655(2) 0.3988(2) 0.8070(3)
C11 C 0.1485(2) 0.3904(2) 0.8961(3)
Zn2 Zn 0.152910(18) 0.246801(19) 0.79923(3)
C12 C 0.0487(2) 0.1047(2) 0.6017(3)
C13 C 0.1332(2) 0.1103(3) 0.6747(4)
C14 C -0.1754(2) 0.2590(2) 0.4708(3)
H5 H 0.0367 0.3899 0.7646
C15 C 0.0667(2) 0.4370(3) 0.8418(4)
C16 C 0.1501(2) 0.4280(3) 0.9320(4)
H6 H 0.1767 0.3757 0.9141
N2 N 0.22547(15) 0.24242(16) 0.8718(2)
H7 H 0.0210 0.1147 0.5899
C17 C 0.0474(3) 0.0671(3) 0.5675(4)
C18 C 0.1311(3) 0.0703(3) 0.6397(4)
H8 H 0.1624 0.1245 0.7110
C19 C -0.2007(3) 0.2699(6) 0.4828(5)
C20 C -0.2011(3) 0.2502(6) 0.4052(6)
H9 H 0.0387 0.4530 0.8223
C21 C 0.1090(3) 0.4513(2) 0.9049(4)
H10 H 0.1789 0.4372 0.9741
H11 H 0.0182 0.0533 0.5307
C22 C 0.0894(3) 0.0486(3) 0.5870(4)
H12 H 0.1591 0.0588 0.6532
C23 C -0.2505(3) 0.2688(5) 0.4315(5)
H13 H -0.1859 0.2787 0.5264
H14 H -0.1854 0.2430 0.3917
C24 C -0.2502(3) 0.2515(5) 0.3570(5)
C25 C 0.1110 0.4922 0.9424
C26 C 0.0860 0.0092 0.5484
H15 H -0.2669 0.2774 0.4436
H16 H -0.2662 0.2477 0.3117
C27 C 0.1312 0.4814 1.0077
C28 C 0.0792 0.5289 0.9045
C29 C 0.1141 -0.0292 0.5818
C30 C 0.0496 0.0049 0.4775
C31 C 0.1400 0.5200 1.0455
O9 O 0.1699 0.4504 1.0413
C32 C 0.0851 0.5659 0.9540
H17 H 0.0578 0.5317 0.8576
C33 C 0.1046 -0.0713 0.5315
H18 H 0.1368 -0.0318 0.6288
C34 C 0.0529 -0.0265 0.4425
O10 O 0.0152 0.0385 0.4382
H19 H 0.1662 0.5182 1.0919
C35 C 0.1116 0.5636 1.0192
C36 C 0.2083 0.4490 1.1200
O11 O 0.0482 0.6095 0.9030
C37 C 0.0891 -0.0644 0.4765
O12 O 0.1374 -0.0920 0.5731
H20 H 0.0314 -0.0237 0.3957
C38 C -0.0200 0.0400 0.3527
C39 C 0.1098(3) 0.6011(3) 1.0553(4)
H21 H 0.2000 0.4694 1.1394
H22 H 0.2147 0.4161 1.1374
C40 C 0.2492 0.4700 1.1309
C41 C 0.0133 0.6116 0.8303
C42 C 0.0920(3) -0.1014(2) 0.4412(4)
C43 C 0.1832 -0.1100 0.6618
H23 H -0.0021 0.0611 0.3486
H24 H -0.0157 0.0075 0.3436
C44 C -0.0700 0.0512 0.2896
C45 C 0.0680(3) 0.6189(4) 1.0313(4)
C46 C 0.1517(3) 0.6184(3) 1.1165(4)
H25 H 0.2723 0.4767 1.1791
H26 H 0.2367 0.5018 1.1097
C47 C 0.2819 0.4586 1.1189
H27 H 0.0249 0.5996 0.8106
H28 H -0.0165 0.5961 0.8095
C48 C 0.0114 0.6698 0.8315
C49 C 0.0509(2) -0.1243(2) 0.3818(3)
C50 C 0.1345(3) -0.1128(3) 0.4610(4)
H29 H 0.1945 -0.1431 0.6686
H30 H 0.1747 -0.1040 0.6872
C51 C 0.2107 -0.0776 0.6706
H31 H -0.0817 0.0302 0.2522
H32 H -0.0915 0.0503 0.2961
C52 C -0.0610 0.0988 0.2823
C53 C 0.0661(2) 0.6503(3) 1.0700(3)
H33 H 0.0399 0.6101 0.9880
H34 H 0.1807 0.6091 1.1318
C54 C 0.1506(2) 0.6501(3) 1.1557(3)
H35 H 0.2749 0.4828 1.0872
H36 H 0.3143 0.4645 1.1615
C55 C 0.2818 0.4204 1.0992
H37 H -0.0151 0.6771 0.7839
H38 H -0.0010 0.6747 0.8519
C56 C 0.0457 0.7200 0.8581
C57 C 0.0519(2) -0.1567(2) 0.3446(3)
H39 H 0.0217 -0.1171 0.3673
H40 H 0.1626 -0.0994 0.5005
C58 C 0.1361(2) -0.1443(2) 0.4227(3)
H41 H 0.1929 -0.0637 0.6261
H42 H 0.2126 -0.0522 0.6971
C59 C 0.2558 -0.0827 0.6980
H43 H -0.0881 0.1194 0.2627
H44 H -0.0561 0.0988 0.2521
C60 C -0.0183 0.1180 0.3492
H45 H 0.0369 0.6604 1.0536
C61 C 0.1079(2) 0.6661(2) 1.1326(3)
H46 H 0.1789 0.6604 1.1977
H47 H 0.3044 0.4207 1.0951
H48 H 0.2506 0.4139 1.0558
H49 H 0.2903 0.3955 1.1306
H50 H 0.0268 0.7488 0.8460
H51 H 0.0566 0.7217 0.8353
C62 C 0.0861 0.7195 0.9300
C63 C 0.09649(19) -0.16576(19) 0.3664(3)
H52 H 0.0244 -0.1720 0.3066
H53 H 0.1651 -0.1506 0.4363
H54 H 0.2699 -0.0507 0.7073
H55 H 0.2747 -0.1001 0.7406
C64 C 0.2567 -0.1126 0.6466
H56 H -0.0122 0.1506 0.3442
H57 H 0.0085 0.0977 0.3682
H58 H -0.0235 0.1183 0.3787
C65 C 0.1069(2) 0.6987(2) 1.1746(3)
H59 H 0.1046 0.7484 0.9432
H60 H 0.0754 0.7185 0.9528
H61 H 0.1052 0.6913 0.9421
C66 C 0.09864(19) -0.19898(18) 0.3242(3)
H62 H 0.2889 -0.1157 0.6672
H63 H 0.2433 -0.1445 0.6379
H64 H 0.2384 -0.0951 0.6047
N2G N -0.27453(15) 0.25758(16) 0.3718(2)
Zn2G Zn -0.347090(18) 0.253199(19) 0.29923(3)
O3E O 0.06745(13) 0.71225(15) 1.15098(18)
O7E O 0.14566(14) 0.71099(15) 1.2315(2)
O4E O 0.06005(13) -0.21599(14) 0.27010(17)
O8E O 0.13898(12) -0.20734(14) 0.34734(18)
Zn1E Zn 0.048556(18) 0.746865(19) 1.19540(3)
Zn2E Zn 0.152910(18) 0.753199(19) 1.29923(3)
Zn1E_2 Zn 0.048556(18) -0.253135(19) 0.19540(3)
Zn2E_2 Zn 0.152910(18) -0.246801(19) 0.29923(3)
loop_
_geom_bond_atom_site_label_1
_geom_bond_atom_site_label_2
_geom_bond_site_symmetry_1
_geom_bond_site_symmetry_2
Zn1 N1 1_555 1_555
N1 C1 1_555 1_555
O1 Zn1 1_555 1_555
O2 Zn1 1_555 1_555
O3 Zn1 1_555 1_555
O4 Zn1 1_555 1_555
C1 H1 1_555 1_555
C2 N1 1_555 1_555
C3 O1 1_555 1_555
C4 O2 1_555 1_555
C5 C1 1_555 1_555
C6 C2 1_555 1_555
H2 C2 1_555 1_555
C7 C3 1_555 1_555
O5 C3 1_555 1_555
C8 C4 1_555 1_555
O6 C4 1_555 1_555
O7 Zn2 1_555 1_555
O8 Zn2 1_555 1_555
H3 C5 1_555 1_555
C9 C5 1_555 1_555
H4 C6 1_555 1_555
C10 C7 1_555 1_555
C11 C7 1_555 1_555
Zn2 O5 1_555 1_555
C12 C8 1_555 1_555
C13 C8 1_555 1_555
C14 C9 1_555 1_555
H5 C10 1_555 1_555
C15 C10 1_555 1_555
C16 C11 1_555 1_555
H6 C11 1_555 1_555
N2 Zn2 1_555 1_555
H7 C12 1_555 1_555
C17 C12 1_555 1_555
C18 C13 1_555 1_555
H8 C13 1_555 1_555
C19 C14 1_555 1_555
C20 C14 1_555 1_555
H9 C15 1_555 1_555
C21 C15 1_555 1_555
H10 C16 1_555 1_555
H11 C17 1_555 1_555
C22 C17 1_555 1_555
H12 C18 1_555 1_555
C23 C19 1_555 1_555
H13 C19 1_555 1_555
H14 C20 1_555 1_555
C24 C20 1_555 1_555
C25 C21 1_555 1_555
C26 C22 1_555 1_555
H15 C23 1_555 1_555
H16 C24 1_555 1_555
C27 C25 1_555 1_555
C28 C25 1_555 1_555
C29 C26 1_555 1_555
C30 C26 1_555 1_555
C31 C27 1_555 1_555
O9 C27 1_555 1_555
C32 C28 1_555 1_555
H17 C28 1_555 1_555
C33 C29 1_555 1_555
H18 C29 1_555 1_555
C34 C30 1_555 1_555
O10 C30 1_555 1_555
H19 C31 1_555 1_555
C35 C31 1_555 1_555
C36 O9 1_555 1_555
O11 C32 1_555 1_555
C37 C33 1_555 1_555
O12 C33 1_555 1_555
H20 C34 1_555 1_555
C38 O10 1_555 1_555
C39 C35 1_555 1_555
H21 C36 1_555 1_555
H22 C36 1_555 1_555
C40 C36 1_555 1_555
C41 O11 1_555 1_555
C42 C37 1_555 1_555
C43 O12 1_555 1_555
H23 C38 1_555 1_555
H24 C38 1_555 1_555
C44 C38 1_555 1_555
C45 C39 1_555 1_555
C46 C39 1_555 1_555
H25 C40 1_555 1_555
H26 C40 1_555 1_555
C47 C40 1_555 1_555
H27 C41 1_555 1_555
H28 C41 1_555 1_555
C48 C41 1_555 1_555
C49 C42 1_555 1_555
C50 C42 1_555 1_555
H29 C43 1_555 1_555
H30 C43 1_555 1_555
C51 C43 1_555 1_555
H31 C44 1_555 1_555
H32 C44 1_555 1_555
C52 C44 1_555 1_555
C53 C45 1_555 1_555
H33 C45 1_555 1_555
H34 C46 1_555 1_555
C54 C46 1_555 1_555
H35 C47 1_555 1_555
H36 C47 1_555 1_555
C55 C47 1_555 1_555
H37 C48 1_555 1_555
H38 C48 1_555 1_555
C56 C48 1_555 1_555
C57 C49 1_555 1_555
H39 C49 1_555 1_555
H40 C50 1_555 1_555
C58 C50 1_555 1_555
H41 C51 1_555 1_555
H42 C51 1_555 1_555
C59 C51 1_555 1_555
H43 C52 1_555 1_555
H44 C52 1_555 1_555
C60 C52 1_555 1_555
H45 C53 1_555 1_555
C61 C53 1_555 1_555
H46 C54 1_555 1_555
H47 C55 1_555 1_555
H48 C55 1_555 1_555
H49 C55 1_555 1_555
H50 C56 1_555 1_555
H51 C56 1_555 1_555
C62 C56 1_555 1_555
C63 C57 1_555 1_555
H52 C57 1_555 1_555
H53 C58 1_555 1_555
H54 C59 1_555 1_555
H55 C59 1_555 1_555
C64 C59 1_555 1_555
H56 C60 1_555 1_555
H57 C60 1_555 1_555
H58 C60 1_555 1_555
C65 C61 1_555 1_555
H59 C62 1_555 1_555
H60 C62 1_555 1_555
H61 C62 1_555 1_555
C66 C63 1_555 1_555
H62 C64 1_555 1_555
H63 C64 1_555 1_555
H64 C64 1_555 1_555
N2G C23 1_555 1_555
Zn2G N2G 1_555 1_555
O3E C65 1_555 1_555
O7E C65 1_555 1_555
O4E C66 1_555 1_555
O8E C66 1_555 1_555
Zn1E O3E 1_555 1_555
Zn2E O7E 1_555 1_555
Zn1E_2 O4E 1_555 1_555
Zn2E_2 O8E 1_555 1_555
C6 C9 1_555 1_555
O6 Zn2 1_555 1_555
C16 C21 1_555 1_555
C18 C22 1_555 1_555
C24 N2G 1_555 1_555
C32 C35 1_555 1_555
C34 C37 1_555 1_555
C54 C61 1_555 1_555
C58 C63 1_555 1_555

#END
