
#######################################################################
#
#                 Cambridge Crystallographic Data Centre
#                                CCDC 
#
#######################################################################
#
# If this CIF has been generated from an entry in the Cambridge 
# Structural Database, then it will include bibliographic, chemical, 
# crystal, experimental, refinement or atomic coordinate data resulting 
# from the CCDC's data processing and validation procedures.
#
#######################################################################

data_HUZXAD
_chemical_formula_moiety         '(C54 H40 N2 O12 Zn2)n'
_symmetry_cell_setting           monoclinic
_symmetry_space_group_name_H-M   'C 2/c'
_symmetry_Int_Tables_number      15
_space_group_name_Hall           '-C 2yc'
loop_
_symmetry_equiv_pos_site_id
_symmetry_equiv_pos_as_xyz
1 x,y,z
2 -x,y,1/2-z
3 1/2+x,1/2+y,z
4 1/2-x,1/2+y,1/2-z
5 -x,-y,-z
6 x,-y,1/2+z
7 1/2-x,1/2-y,-z
8 1/2+x,1/2-y,1/2+z
_cell_length_a                   28.0682(7)
_cell_length_b                   27.1147(6)
_cell_length_c                   28.0603(5)
_cell_angle_alpha                90
_cell_angle_beta                 98.5580(10)
_cell_angle_gamma                90
_cell_volume                     21117.8
loop_
_atom_site_label
_atom_site_type_symbol
_atom_site_fract_x
_atom_site_fract_y
_atom_site_fract_z
C1 C 0.0465(2) 0.42039(19) 0.1364(2)
C2 C 0.0079(2) 0.38063(19) 0.13873(18)
C3 C -0.0167(2) 0.3618(2) 0.09686(18)
H1 H -0.0088 0.3718 0.0673
C4 C -0.0528(3) 0.3283(2) 0.0989(2)
H2 H -0.0708 0.3172 0.0704
C5 C -0.0631(3) 0.3105(2) 0.1431(2)
C6 C -0.0379(2) 0.3289(2) 0.1850(2)
H3 H -0.0454 0.3182 0.2145
C7 C -0.0017(2) 0.3628(2) 0.18385(18)
H4 H 0.0162 0.3739 0.2123
C8 C -0.1015(3) 0.2744(2) 0.1441(2)
C9 C -0.1066(3) 0.2352(3) 0.1135(3)
H5 H -0.0854 0.2322 0.0912
C10 C -0.1412(4) 0.2005(3) 0.1138(3)
C11 C -0.1758(3) 0.2024(3) 0.1429(2)
C12 C -0.1725(3) 0.2432(3) 0.1735(3)
H6 H -0.1958 0.2473 0.1936
C13 C -0.1364(3) 0.2776(3) 0.1754(3)
C14 C -0.2789(3) 0.1144(2) 0.1024(2)
H7 H -0.2977 0.1047 0.0738
C15 C -0.2425(3) 0.1479(2) 0.1017(2)
H8 H -0.2361 0.1598 0.0723
C16 C -0.2151(3) 0.1643(2) 0.1433(2)
C17 C -0.2244(3) 0.1438(2) 0.1861(2)
H9 H -0.2061 0.1538 0.2148
C18 C -0.2585(2) 0.1107(2) 0.1874(2)
H10 H -0.2634 0.0973 0.2169
C19 C -0.2873(2) 0.0954(2) 0.1453(2)
C20 C -0.3262(2) 0.05794(18) 0.14775(19)
C21 C -0.1102(6) 0.1579(4) 0.0422(5)
H11 H -0.1157 0.1277 0.0242
H12 H -0.0771 0.1595 0.0567
H13 H -0.1176 0.1854 0.0209
C22 C -0.1683(4) 0.3209(4) 0.2368(4)
H14 H -0.1638 0.3498 0.2566
H15 H -0.1650 0.2920 0.2569
H16 H -0.1999 0.3214 0.2182
C23 C 0.0425(2) 0.55533(19) 0.1348(2)
C24 C 0.0047(3) 0.5921(2) 0.1357(2)
C25 C -0.0037(2) 0.6123(2) 0.17899(19)
H17 H 0.0154 0.6023 0.2073
C26 C -0.0400(3) 0.6473(2) 0.1820(2)
H18 H -0.0463 0.6581 0.2118
C27 C -0.0667(3) 0.6661(2) 0.1393(3)
C28 C -0.0569(3) 0.6458(2) 0.0954(2)
H19 H -0.0749 0.6562 0.0666
C29 C -0.0214(3) 0.6113(2) 0.0942(2)
H20 H -0.0146 0.6004 0.0645
C30 C -0.1021(3) 0.7062(3) 0.1407(3)
C31 C -0.1079(5) 0.7410(5) 0.1124(3)
H21 H -0.0867 0.7437 0.0900
C32 C -0.1437(6) 0.7767(5) 0.1114(4)
C33 C -0.1722(3) 0.7822(3) 0.1419(2)
C34 C -0.1686(5) 0.7460(5) 0.1722(4)
H22 H -0.1893 0.7465 0.1952
C35 C -0.1358(4) 0.7049(4) 0.1741(3)
C36 C -0.2556(3) 0.8725(2) 0.1857(2)
H23 H -0.2620 0.8848 0.2150
C37 C -0.2198(3) 0.8388(2) 0.1847(2)
H24 H -0.2016 0.8293 0.2137
C38 C -0.2095(3) 0.8179(2) 0.1424(2)
C39 C -0.2341(3) 0.8357(2) 0.1012(2)
H25 H -0.2260 0.8252 0.0718
C40 C -0.2709(3) 0.8691(2) 0.1014(2)
H26 H -0.2887 0.8789 0.0723
C41 C -0.2820(2) 0.8882(2) 0.1436(2)
C42 C -0.3226(2) 0.9247(2) 0.1437(2)
C43 C -0.1694(7) 0.6679(6) 0.2424(6)
H27 H -0.1670 0.6395 0.2630
H28 H -0.2016 0.6705 0.2254
H29 H -0.1618 0.6970 0.2615
C44 C 0.1334(3) 0.5309(3) 0.49532(19)
H30 H 0.1558 0.5500 0.5149
C45 C 0.1364(3) 0.5286(3) 0.4478(2)
H31 H 0.1609 0.5460 0.4363
C46 C 0.1057(2) 0.50229(17) 0.4163(2)
C47 C 0.0712(3) 0.4819(3) 0.4372(2)
H32 H 0.0472 0.4642 0.4180
C48 C 0.0688(2) 0.4857(2) 0.48681(18)
H33 H 0.0430 0.4716 0.4991
C49 C 0.1007(3) 0.4558(2) 0.2910(2)
H34 H 0.0927 0.4261 0.2752
C50 C 0.0980(4) 0.4593(3) 0.34012(19)
H35 H 0.0892 0.4315 0.3562
C51 C 0.10715(18) 0.49853(16) 0.36341(18)
C52 C 0.1222(3) 0.5364(3) 0.33905(18)
H36 H 0.1330 0.5659 0.3539
C53 C 0.1205(4) 0.5288(3) 0.2915(2)
H37 H 0.1255 0.5573 0.2746
N1 N 0.10110(14) 0.50798(14) 0.51491(13)
N2 N 0.11400(15) 0.49306(15) 0.26639(14)
O1 O 0.05305(14) 0.43641(12) 0.09746(12)
O2 O 0.06792(14) 0.43481(12) 0.17780(12)
O3 O -0.34692(14) 0.04315(12) 0.10785(12)
O4 O -0.33366(14) 0.04469(12) 0.18807(13)
O5 O -0.1433(3) 0.1593(3) 0.0825(3)
O6 O -0.1330(3) 0.3198(2) 0.2053(2)
O7 O 0.06386(14) 0.53973(13) 0.17411(12)
O8 O 0.05055(14) 0.54085(12) 0.09394(12)
O9 O -0.33005(13) 0.94010(12) 0.18502(13)
O10 O -0.34407(14) 0.93912(13) 0.10451(13)
O11 O -0.1316(4) 0.8249(3) 0.0799(4)
O12 O -0.1368(4) 0.6632(3) 0.2091(3)
Zn1 Zn 0.10206(2) 0.48991(2) 0.088166(15)
Zn2 Zn 0.11733(2) 0.48979(2) 0.194455(15)
C54 C -0.1245(11) 0.8081(10) 0.0184(10)
H38 H -0.1279 0.8370 -0.0016
H39 H -0.1487 0.7844 0.0062
H40 H -0.0931 0.7940 0.0182
N1E N 0.10110(14) 0.49202(14) 0.01491(13)
O3B O 0.15308(14) 0.54315(12) 0.10785(12)
O4B O 0.16634(14) 0.54469(12) 0.18807(13)
O9B O 0.16995(13) 0.44010(12) 0.18502(13)
O10B O 0.15593(14) 0.43912(13) 0.10451(13)
Zn1B Zn -0.39794(2) -0.01009(2) 0.088166(15)
Zn1B_2 Zn -0.39794(2) 0.98991(2) 0.088166(15)
Zn1E Zn 0.10206(2) 0.51009(2) 0.588166(15)
Zn2B Zn -0.38267(2) -0.01021(2) 0.194455(15)
Zn2B_2 Zn -0.38267(2) 0.98979(2) 0.194455(15)
loop_
_geom_bond_atom_site_label_1
_geom_bond_atom_site_label_2
_geom_bond_site_symmetry_1
_geom_bond_site_symmetry_2
C1 C2 1_555 1_555
C2 C3 1_555 1_555
C3 H1 1_555 1_555
C4 C3 1_555 1_555
H2 C4 1_555 1_555
C5 C4 1_555 1_555
C6 C5 1_555 1_555
H3 C6 1_555 1_555
C7 C2 1_555 1_555
H4 C7 1_555 1_555
C8 C5 1_555 1_555
C9 C8 1_555 1_555
H5 C9 1_555 1_555
C10 C9 1_555 1_555
C11 C10 1_555 1_555
C12 C11 1_555 1_555
H6 C12 1_555 1_555
C13 C8 1_555 1_555
C14 H7 1_555 1_555
C15 C14 1_555 1_555
H8 C15 1_555 1_555
C16 C11 1_555 1_555
C17 C16 1_555 1_555
H9 C17 1_555 1_555
C18 C17 1_555 1_555
H10 C18 1_555 1_555
C19 C14 1_555 1_555
C20 C19 1_555 1_555
C21 H11 1_555 1_555
H12 C21 1_555 1_555
H13 C21 1_555 1_555
C22 H14 1_555 1_555
H15 C22 1_555 1_555
H16 C22 1_555 1_555
C23 C24 1_555 1_555
C24 C25 1_555 1_555
C25 H17 1_555 1_555
C26 C25 1_555 1_555
H18 C26 1_555 1_555
C27 C26 1_555 1_555
C28 C27 1_555 1_555
H19 C28 1_555 1_555
C29 C24 1_555 1_555
H20 C29 1_555 1_555
C30 C27 1_555 1_555
C31 C30 1_555 1_555
H21 C31 1_555 1_555
C32 C31 1_555 1_555
C33 C32 1_555 1_555
C34 C33 1_555 1_555
H22 C34 1_555 1_555
C35 C30 1_555 1_555
C36 H23 1_555 1_555
C37 C36 1_555 1_555
H24 C37 1_555 1_555
C38 C33 1_555 1_555
C39 C38 1_555 1_555
H25 C39 1_555 1_555
C40 C39 1_555 1_555
H26 C40 1_555 1_555
C41 C36 1_555 1_555
C42 C41 1_555 1_555
C43 H27 1_555 1_555
H28 C43 1_555 1_555
H29 C43 1_555 1_555
C44 H30 1_555 1_555
C45 C44 1_555 1_555
H31 C45 1_555 1_555
C46 C45 1_555 1_555
C47 C46 1_555 1_555
H32 C47 1_555 1_555
C48 C47 1_555 1_555
H33 C48 1_555 1_555
C49 H34 1_555 1_555
C50 C49 1_555 1_555
H35 C50 1_555 1_555
C51 C46 1_555 1_555
C52 C51 1_555 1_555
H36 C52 1_555 1_555
C53 C52 1_555 1_555
H37 C53 1_555 1_555
N1 C44 1_555 1_555
N2 C49 1_555 1_555
O1 C1 1_555 1_555
O2 C1 1_555 1_555
O3 C20 1_555 1_555
O4 C20 1_555 1_555
O5 C10 1_555 1_555
O6 C13 1_555 1_555
O7 C23 1_555 1_555
O8 C23 1_555 1_555
O9 C42 1_555 1_555
O10 C42 1_555 1_555
O11 C32 1_555 1_555
O12 C35 1_555 1_555
Zn1 O1 1_555 1_555
Zn2 N2 1_555 1_555
C54 O11 1_555 1_555
H38 C54 1_555 1_555
H39 C54 1_555 1_555
H40 C54 1_555 1_555
N1E Zn1 1_555 1_555
O3B Zn1 1_555 1_555
O4B Zn2 1_555 1_555
O9B Zn2 1_555 1_555
O10B Zn1 1_555 1_555
Zn1B O3 1_555 1_555
Zn1B_2 O10 1_555 1_555
Zn1E N1 1_555 1_555
Zn2B O4 1_555 1_555
Zn2B_2 O9 1_555 1_555
C6 C7 1_555 1_555
C12 C13 1_555 1_555
C15 C16 1_555 1_555
C18 C19 1_555 1_555
C21 O5 1_555 1_555
C22 O6 1_555 1_555
C28 C29 1_555 1_555
C34 C35 1_555 1_555
C37 C38 1_555 1_555
C40 C41 1_555 1_555
C43 O12 1_555 1_555
C48 N1 1_555 1_555
C50 C51 1_555 1_555
C53 N2 1_555 1_555
O2 Zn2 1_555 1_555
O7 Zn2 1_555 1_555
O8 Zn1 1_555 1_555

#END
