
#######################################################################
#
#                 Cambridge Crystallographic Data Centre
#                                CCDC 
#
#######################################################################
#
# If this CIF has been generated from an entry in the Cambridge 
# Structural Database, then it will include bibliographic, chemical, 
# crystal, experimental, refinement or atomic coordinate data resulting 
# from the CCDC's data processing and validation procedures.
#
#######################################################################

data_HUZYAE
_chemical_formula_moiety         '(C74 H80 N2 O12 Zn2)n'
_symmetry_cell_setting           monoclinic
_symmetry_space_group_name_H-M   'C 2/c'
_symmetry_Int_Tables_number      15
_space_group_name_Hall           '-C 2yc'
loop_
_symmetry_equiv_pos_site_id
_symmetry_equiv_pos_as_xyz
1 x,y,z
2 -x,y,1/2-z
3 1/2+x,1/2+y,z
4 1/2-x,1/2+y,1/2-z
5 -x,-y,-z
6 x,-y,1/2+z
7 1/2-x,1/2-y,-z
8 1/2+x,1/2-y,1/2+z
_cell_length_a                   39.1332(8)
_cell_length_b                   27.4503(6)
_cell_length_c                   27.3497(6)
_cell_angle_alpha                90
_cell_angle_beta                 134.0220(10)
_cell_angle_gamma                90
_cell_volume                     21126
loop_
_atom_site_label
_atom_site_type_symbol
_atom_site_fract_x
_atom_site_fract_y
_atom_site_fract_z
C1 C 0.10420(18) 0.82981(16) 0.9056(2)
C2 C 0.10493(17) 0.87344(16) 0.8747(2)
C3 C 0.06535(18) 0.89770(19) 0.8228(3)
H1 H 0.0368 0.8883 0.8088
C4 C 0.0646(2) 0.9365(2) 0.7885(3)
H2 H 0.0363 0.9522 0.7527
C5 C 0.1076(2) 0.95094(19) 0.8098(3)
C6 C 0.1484(2) 0.9275(2) 0.8636(3)
H3 H 0.1769 0.9373 0.8779
C7 C 0.14918(18) 0.88963(19) 0.8979(3)
H4 H 0.1777 0.8750 0.9352
C8 C 0.1093 0.9910 0.7746
C9 C 0.0804 1.0310 0.7525
H5 H 0.0598 1.0334 0.7585
C10 C 0.0837 1.0679 0.7205
C11 C 0.1103 1.0626 0.7025
C12 C 0.1337 1.0199 0.7184
H6 H 0.1517 1.0153 0.7082
C13 C 0.1305 0.9819 0.7511
C14 C 0.1071(3) 1.0989(2) 0.6594(3)
C15 C 0.0650(2) 1.1185(3) 0.6006(4)
H7 H 0.0365 1.1097 0.5870
C16 C 0.0647(2) 1.1516(2) 0.5611(3)
H8 H 0.0360 1.1641 0.5215
C17 C 0.10534(19) 1.16540(19) 0.5795(3)
C18 C 0.1487(2) 1.1490(2) 0.6424(3)
H9 H 0.1771 1.1615 0.6587
C19 C 0.1498(2) 1.1150(3) 0.6800(4)
H10 H 0.1787 1.1024 0.7193
C20 C 0.10553(18) 1.19911(17) 0.5365(2)
C21 C 0.1847 0.9329 0.7498
H11 H 0.1645 0.9371 0.7013
H12 H 0.2112 0.9554 0.7738
C22 C 0.2018 0.8828 0.7698
H13 H 0.1760 0.8613 0.7533
H14 H 0.2265 0.8803 0.8190
C23 C 0.2219 0.8677 0.7389
H15 H 0.1958 0.8644 0.6900
H16 H 0.2427 0.8933 0.7476
C24 C 0.2495 0.8199 0.7683
H17 H 0.2362 0.8002 0.7812
H18 H 0.2821 0.8272 0.8095
C25 C 0.2500 0.7888 0.7213
H19 H 0.2579 0.8098 0.7019
H20 H 0.2749 0.7645 0.7488
C26 C 0.2150 0.7696 0.6782
H21 H 0.2181 0.7512 0.6516
H22 H 0.1903 0.7934 0.6499
H23 H 0.2072 0.7480 0.6969
C27 C 0.0201 1.1194 0.7089
H24 H 0.0322 1.1089 0.7524
H25 H 0.0085 1.1526 0.6989
C28 C -0.0079 1.0911 0.6629
H26 H -0.0270 1.0762 0.6693
H27 H 0.0092 1.0655 0.6629
C29 C -0.0424 1.1202 0.5900
H28 H -0.0498 1.1504 0.5995
H29 H -0.0210 1.1294 0.5850
C30 C -0.0807 1.1098 0.5300
H30 H -0.1065 1.1303 0.5159
H31 H -0.0892 1.0760 0.5271
C31 C -0.0700 1.1200 0.4800
H32 H -0.0976 1.1295 0.4336
H33 H -0.0427 1.1405 0.5003
C32 C -0.0606 1.0700 0.4900
H34 H -0.0519 1.0594 0.4665
H35 H -0.0885 1.0528 0.4727
H36 H -0.0350 1.0635 0.5377
C33 C 0.09906(17) 0.69774(16) 0.8722(2)
C34 C 0.09793(17) 0.66507(16) 0.8279(2)
C35 C 0.05464(19) 0.65506(18) 0.7620(3)
H37 H 0.0270 0.6703 0.7452
C36 C 0.0528(2) 0.6221(2) 0.7211(3)
H38 H 0.0237 0.6156 0.6774
C37 C 0.0924(3) 0.5996(2) 0.7439(4)
C38 C 0.1375(3) 0.6122(3) 0.8104(4)
H39 H 0.1655 0.5992 0.8258
C39 C 0.1386(2) 0.6443(2) 0.8518(3)
H40 H 0.1673 0.6513 0.8957
C40 C 0.0919(2) 0.5634(3) 0.7036(4)
C41 C 0.0818 0.5721 0.6473
H41 H 0.0741 0.6040 0.6314
C42 C 0.0816 0.5374 0.6085
C43 C 0.0937(2) 0.4921(3) 0.6319(4)
C44 C 0.1246 0.4804 0.7080
H42 H 0.1416 0.4517 0.7293
C45 C 0.1234 0.5206 0.7421
C46 C 0.0529(2) 0.3961(2) 0.4994(3)
H43 H 0.0246 0.3856 0.4573
C47 C 0.0529(3) 0.4365(2) 0.5311(4)
H44 H 0.0245 0.4529 0.5086
C48 C 0.0921(3) 0.4521(2) 0.5919(4)
C49 C 0.1348(3) 0.4272(3) 0.6242(4)
H45 H 0.1628 0.4377 0.6666
C50 C 0.1361(2) 0.3871(2) 0.5940(3)
H46 H 0.1645 0.3708 0.6161
C51 C 0.09416(19) 0.37244(18) 0.5304(3)
C52 C 0.09436(19) 0.32851(17) 0.4978(3)
C53 C 0.0531 0.6016 0.5212
H47 H 0.0234 0.6059 0.5091
H48 H 0.0744 0.6279 0.5513
C54 C 0.0460 0.6016 0.4692
H49 H 0.0184 0.6214 0.4341
H50 H 0.0402 0.5687 0.4521
C55 C 0.0891 0.6221 0.4882
H51 H 0.1054 0.5988 0.4836
H52 H 0.1112 0.6368 0.5330
C56 C 0.0599 0.6600 0.4300
H53 H 0.0849 0.6838 0.4496
H54 H 0.0418 0.6734 0.4389
C57 C 0.0232 0.6772 0.3469
H55 H -0.0102 0.6789 0.3223
H56 H 0.0335 0.7059 0.3394
C58 C 0.0394 0.6269 0.3395
H57 H 0.0241 0.6227 0.2932
H58 H 0.0306 0.6006 0.3521
H59 H 0.0732 0.6270 0.3687
C59 C 0.1554 0.4464 0.8270
H60 H 0.1308 0.4247 0.8147
H61 H 0.1727 0.4323 0.8170
C60 C 0.1830 0.4672 0.8895
H62 H 0.2036 0.4434 0.9253
H63 H 0.2023 0.4933 0.8953
C61 C 0.1506 0.4844 0.8889
H64 H 0.1550 0.5194 0.8919
H65 H 0.1628 0.4746 0.9327
C62 C 0.0871 0.4773 0.8320
H66 H 0.0695 0.4980 0.7922
H67 H 0.0770 0.4437 0.8183
C63 C 0.0847 0.4907 0.8700
H68 H 0.1142 0.4779 0.9124
H69 H 0.0605 0.4689 0.8585
C64 C 0.0765 0.5411 0.8999
H70 H 0.0779 0.5309 0.9348
H71 H 0.0460 0.5555 0.8631
H72 H 0.1010 0.5646 0.9182
C65 C -0.04945(18) 0.7338(2) 0.8386(3)
H73 H -0.0333 0.7165 0.8787
C66 C -0.09785(19) 0.7336(2) 0.7922(3)
H74 H -0.1138 0.7170 0.8010
C67 C -0.12243(15) 0.75808(18) 0.7325(3)
C68 C -0.09655(17) 0.7821(2) 0.7230(3)
H75 H -0.1122 0.7995 0.6830
C69 C -0.04780(16) 0.7807(2) 0.7719(3)
H76 H -0.0309 0.7966 0.7642
C70 C -0.2509(2) 0.7424(5) 0.6374(5)
H77 H -0.2669 0.7300 0.6484
C71 C -0.2012(2) 0.7451(5) 0.6886(4)
H78 H -0.1862 0.7379 0.7330
C72 C -0.17577(17) 0.75660(18) 0.6782(3)
C73 C -0.2011(2) 0.7762(5) 0.6169(5)
H79 H -0.1855 0.7902 0.6060
C74 C -0.2501(2) 0.7761(5) 0.5692(4)
N1 N -0.02386(13) 0.75673(13) 0.8312(2)
N2 N -0.27489(13) 0.75578(12) 0.5770(2)
O1 O 0.14242(11) 0.80817(12) 0.95135(17)
O2 O 0.06369(12) 0.81551(11) 0.88030(18)
O3 O 0.14412(12) 1.20932(13) 0.55569(17)
O4 O 0.06580(12) 1.21261(13) 0.48213(17)
O5 O 0.1568 0.9416 0.7686
O6 O 0.0552 1.1102 0.7008
O7 O 0.06082(11) 0.71564(12) 0.84999(16)
O8 O 0.13942(12) 0.70647(12) 0.93061(18)
O9 O 0.05563(12) 0.31213(12) 0.44580(17)
O10 O 0.13479(12) 0.31047(12) 0.52865(18)
O11 O 0.0775 0.5478 0.5596
O12 O 0.1381 0.5054 0.8017
Zn1 Zn 0.048522(16) 0.752298(16) 0.90135(2)
Zn2 Zn 0.152757(16) 0.747521(16) 1.00449(2)
N2G N 0.22511(13) 0.74422(12) 1.0770(2)
O3E O 0.14412(12) 0.79068(13) 1.05569(17)
O4E O 0.06580(12) 0.78739(13) 0.98213(17)
O9E O 0.05563(12) 0.68787(12) 0.94580(17)
O10E O 0.13479(12) 0.68953(12) 1.02865(18)
Zn1E Zn 0.048522(16) 0.247702(16) 0.40135(2)
Zn1E_2 Zn 0.048522(16) 1.247702(16) 0.40135(2)
Zn2E Zn 0.152757(16) 0.252479(16) 0.50449(2)
Zn2E_2 Zn 0.152757(16) 1.252479(16) 0.50449(2)
Zn2G Zn -0.347243(16) 0.752479(16) 0.50449(2)
loop_
_geom_bond_atom_site_label_1
_geom_bond_atom_site_label_2
_geom_bond_site_symmetry_1
_geom_bond_site_symmetry_2
C1 C2 1_555 1_555
C2 C3 1_555 1_555
C3 H1 1_555 1_555
C4 C3 1_555 1_555
H2 C4 1_555 1_555
C5 C4 1_555 1_555
C6 C5 1_555 1_555
H3 C6 1_555 1_555
C7 C2 1_555 1_555
H4 C7 1_555 1_555
C8 C5 1_555 1_555
C9 C8 1_555 1_555
H5 C9 1_555 1_555
C10 C9 1_555 1_555
C11 C10 1_555 1_555
C12 C11 1_555 1_555
H6 C12 1_555 1_555
C13 C8 1_555 1_555
C14 C11 1_555 1_555
C15 C14 1_555 1_555
H7 C15 1_555 1_555
C16 C15 1_555 1_555
H8 C16 1_555 1_555
C17 C16 1_555 1_555
C18 C17 1_555 1_555
H9 C18 1_555 1_555
C19 C14 1_555 1_555
H10 C19 1_555 1_555
C20 C17 1_555 1_555
C21 H11 1_555 1_555
H12 C21 1_555 1_555
C22 C21 1_555 1_555
H13 C22 1_555 1_555
H14 C22 1_555 1_555
C23 C22 1_555 1_555
H15 C23 1_555 1_555
H16 C23 1_555 1_555
C24 C23 1_555 1_555
H17 C24 1_555 1_555
H18 C24 1_555 1_555
C25 C24 1_555 1_555
H19 C25 1_555 1_555
H20 C25 1_555 1_555
C26 C25 1_555 1_555
H21 C26 1_555 1_555
H22 C26 1_555 1_555
H23 C26 1_555 1_555
C27 H24 1_555 1_555
H25 C27 1_555 1_555
C28 C27 1_555 1_555
H26 C28 1_555 1_555
H27 C28 1_555 1_555
C29 C28 1_555 1_555
H28 C29 1_555 1_555
H29 C29 1_555 1_555
C30 C29 1_555 1_555
H30 C30 1_555 1_555
H31 C30 1_555 1_555
C31 C30 1_555 1_555
H32 C31 1_555 1_555
H33 C31 1_555 1_555
C32 C31 1_555 1_555
H34 C32 1_555 1_555
H35 C32 1_555 1_555
H36 C32 1_555 1_555
C33 C34 1_555 1_555
C34 C35 1_555 1_555
C35 H37 1_555 1_555
C36 C35 1_555 1_555
H38 C36 1_555 1_555
C37 C36 1_555 1_555
C38 C37 1_555 1_555
H39 C38 1_555 1_555
C39 C34 1_555 1_555
H40 C39 1_555 1_555
C40 C37 1_555 1_555
C41 C40 1_555 1_555
H41 C41 1_555 1_555
C42 C41 1_555 1_555
C43 C42 1_555 1_555
C44 C43 1_555 1_555
H42 C44 1_555 1_555
C45 C40 1_555 1_555
C46 H43 1_555 1_555
C47 C46 1_555 1_555
H44 C47 1_555 1_555
C48 C43 1_555 1_555
C49 C48 1_555 1_555
H45 C49 1_555 1_555
C50 C49 1_555 1_555
H46 C50 1_555 1_555
C51 C46 1_555 1_555
C52 C51 1_555 1_555
C53 H47 1_555 1_555
H48 C53 1_555 1_555
C54 C53 1_555 1_555
H49 C54 1_555 1_555
H50 C54 1_555 1_555
C55 C54 1_555 1_555
H51 C55 1_555 1_555
H52 C55 1_555 1_555
C56 C55 1_555 1_555
H53 C56 1_555 1_555
H54 C56 1_555 1_555
C57 C56 1_555 1_555
H55 C57 1_555 1_555
H56 C57 1_555 1_555
C58 C57 1_555 1_555
H57 C58 1_555 1_555
H58 C58 1_555 1_555
H59 C58 1_555 1_555
C59 H60 1_555 1_555
H61 C59 1_555 1_555
C60 C59 1_555 1_555
H62 C60 1_555 1_555
H63 C60 1_555 1_555
C61 C60 1_555 1_555
H64 C61 1_555 1_555
H65 C61 1_555 1_555
C62 C61 1_555 1_555
H66 C62 1_555 1_555
H67 C62 1_555 1_555
C63 C62 1_555 1_555
H68 C63 1_555 1_555
H69 C63 1_555 1_555
C64 C63 1_555 1_555
H70 C64 1_555 1_555
H71 C64 1_555 1_555
H72 C64 1_555 1_555
C65 H73 1_555 1_555
C66 C65 1_555 1_555
H74 C66 1_555 1_555
C67 C66 1_555 1_555
C68 C67 1_555 1_555
H75 C68 1_555 1_555
C69 C68 1_555 1_555
H76 C69 1_555 1_555
C70 H77 1_555 1_555
C71 C70 1_555 1_555
H78 C71 1_555 1_555
C72 C67 1_555 1_555
C73 C72 1_555 1_555
H79 C73 1_555 1_555
C74 C73 1_555 1_555
N1 C65 1_555 1_555
N2 C70 1_555 1_555
O1 C1 1_555 1_555
O2 C1 1_555 1_555
O3 C20 1_555 1_555
O4 C20 1_555 1_555
O5 C13 1_555 1_555
O6 C10 1_555 1_555
O7 C33 1_555 1_555
O8 C33 1_555 1_555
O9 C52 1_555 1_555
O10 C52 1_555 1_555
O11 C42 1_555 1_555
O12 C45 1_555 1_555
Zn1 N1 1_555 1_555
Zn2 O1 1_555 1_555
N2G Zn2 1_555 1_555
O3E Zn2 1_555 1_555
O4E Zn1 1_555 1_555
O9E Zn1 1_555 1_555
O10E Zn2 1_555 1_555
Zn1E O9 1_555 1_555
Zn1E_2 O4 1_555 1_555
Zn2E O10 1_555 1_555
Zn2E_2 O3 1_555 1_555
Zn2G N2 1_555 1_555
C6 C7 1_555 1_555
C12 C13 1_555 1_555
C18 C19 1_555 1_555
C21 O5 1_555 1_555
C27 O6 1_555 1_555
C38 C39 1_555 1_555
C44 C45 1_555 1_555
C47 C48 1_555 1_555
C50 C51 1_555 1_555
C53 O11 1_555 1_555
C59 O12 1_555 1_555
C69 N1 1_555 1_555
C71 C72 1_555 1_555
C74 N2 1_555 1_555
O2 Zn1 1_555 1_555
O7 Zn1 1_555 1_555
O8 Zn2 1_555 1_555

#END
