
#######################################################################
#
#                 Cambridge Crystallographic Data Centre
#                                CCDC 
#
#######################################################################
#
# If this CIF has been generated from an entry in the Cambridge 
# Structural Database, then it will include bibliographic, chemical, 
# crystal, experimental, refinement or atomic coordinate data resulting 
# from the CCDC's data processing and validation procedures.
#
#######################################################################

data_HUZYIM
_chemical_formula_moiety         '(C82 H96 N2 O12 Zn2)n'
_symmetry_cell_setting           monoclinic
_symmetry_space_group_name_H-M   'C 2/c'
_symmetry_Int_Tables_number      15
_space_group_name_Hall           '-C 2yc'
loop_
_symmetry_equiv_pos_site_id
_symmetry_equiv_pos_as_xyz
1 x,y,z
2 -x,y,1/2-z
3 1/2+x,1/2+y,z
4 1/2-x,1/2+y,1/2-z
5 -x,-y,-z
6 x,-y,1/2+z
7 1/2-x,1/2-y,-z
8 1/2+x,1/2-y,1/2+z
_cell_length_a                   39.0207(8)
_cell_length_b                   26.9906(6)
_cell_length_c                   27.3897(6)
_cell_angle_alpha                90
_cell_angle_beta                 134.5650(10)
_cell_angle_gamma                90
_cell_volume                     20551.9
loop_
_atom_site_label
_atom_site_type_symbol
_atom_site_fract_x
_atom_site_fract_y
_atom_site_fract_z
C1 C 0.6068(3) 0.8341(3) 0.4128(4)
C2 C 0.6072(2) 0.8780(3) 0.3826(3)
C3 C 0.6501(3) 0.8969(3) 0.4061(4)
H1 H 0.6797 0.8831 0.4464
C4 C 0.6513(3) 0.9344(3) 0.3734(4)
H2 H 0.6811 0.9443 0.3894
C5 C 0.6102(3) 0.9573(3) 0.3188(4)
C6 C 0.5665(3) 0.9427(3) 0.2952(4)
H3 H 0.5374 0.9588 0.2571
C7 C 0.5662(3) 0.9038(3) 0.3289(4)
H4 H 0.5366 0.8949 0.3142
C8 C 0.6113 0.9982 0.2843
C9 C 0.6367 0.9921 0.2654
C10 C 0.5822 1.0414 0.2616
H5 H 0.5638 1.0479 0.2716
C11 C 0.5839 1.0727 0.2235
C12 C 0.6048 1.0709 0.2025
C13 C 0.6366 1.0278 0.2264
H6 H 0.6556 1.0240 0.2168
C14 C 0.6055(4) 1.1080(4) 0.1642(5)
C15 C 0.5660(3) 1.1253(4) 0.1081(5)
H7 H 0.5365 1.1145 0.0926
C16 C 0.5648(3) 1.1616(4) 0.0668(4)
H8 H 0.5356 1.1774 0.0286
C17 C 0.6055(3) 1.1718(3) 0.0841(4)
C18 C 0.6472(3) 1.1532(4) 0.1438(4)
H9 H 0.6763 1.1610 0.1567
C19 C 0.6493(3) 1.1238(3) 0.1866(4)
H10 H 0.6793 1.1142 0.2302
C20 C 0.6039(3) 1.2041(3) 0.0365(4)
C21 C 0.6866 0.9463 0.2598
H11 H 0.7143 0.9692 0.2890
H12 H 0.6666 0.9543 0.2110
C22 C 0.7041 0.8872 0.2771
H13 H 0.6763 0.8649 0.2548
H14 H 0.7283 0.8812 0.3272
C23 C 0.7285 0.8774 0.2449
H15 H 0.7596 0.8952 0.2738
H16 H 0.7352 0.8416 0.2476
C24 C 0.5959(3) 0.6668(3) 0.4935(4)
C25 C 0.5942(3) 0.6220(3) 0.5222(4)
C26 C 0.5505(3) 0.5991(3) 0.4919(4)
H17 H 0.5211 0.6128 0.4510
C27 C 0.5492(5) 0.5566(4) 0.5205(5)
H18 H 0.5203 0.5390 0.4982
C28 C 0.5964(4) 0.5416(4) 0.5882(5)
C29 C 0.6382(4) 0.5651(4) 0.6182(6)
H19 H 0.6677 0.5547 0.6619
C30 C 0.6371(3) 0.6046(3) 0.5843(5)
H20 H 0.6665 0.6199 0.6042
C31 C 0.6010(5) 0.4940(5) 0.6292(5)
C32 C 0.6314 0.5080 0.7081
H21 H 0.6479 0.5385 0.7292
C33 C 0.5932 0.4524 0.6170
C34 C 0.5807 0.4179 0.6410
H22 H 0.5599 0.3906 0.6146
C35 C 0.5996 0.4268 0.7000
C36 C 0.6304 0.4713 0.7399
C37 C 0.5984(3) 0.3930(3) 0.7445(4)
C38 C 0.5539(3) 0.3728(3) 0.7185(4)
H23 H 0.5242 0.3813 0.6739
C39 C 0.5550(3) 0.3420(3) 0.7575(4)
H24 H 0.5259 0.3283 0.7403
C40 C 0.5999(2) 0.3291(2) 0.8254(3)
C41 C 0.6411(2) 0.3477(3) 0.8481(4)
H25 H 0.6709 0.3389 0.8925
C42 C 0.6413(3) 0.3789(3) 0.8090(4)
H26 H 0.6709 0.3909 0.8261
C43 C 0.6008(2) 0.2972(2) 0.8706(3)
C44 C 0.5487 0.3882 0.5171
H27 H 0.5186 0.3901 0.4678
H28 H 0.5734 0.3747 0.5194
C45 C 0.5419 0.3568 0.5390
H29 H 0.5070 0.3501 0.5071
H30 H 0.5543 0.3670 0.5837
C46 C 0.5679 0.3109 0.5475
H31 H 0.5987 0.3199 0.5624
H32 H 0.5748 0.2885 0.5821
C47 C 0.5362 0.2873 0.4813
H33 H 0.5483 0.2959 0.4604
H34 H 0.5408 0.2511 0.4898
C48 C 0.4868 0.2956 0.4313
H35 H 0.4807 0.3161 0.3959
H36 H 0.4802 0.3173 0.4532
C49 C 0.4492 0.2589 0.3943
H37 H 0.4647 0.2259 0.4114
H38 H 0.4306 0.2633 0.4062
C50 C 0.4157 0.2582 0.3209
H39 H 0.4041 0.2235 0.3073
H40 H 0.4353 0.2637 0.3108
C51 C 0.3736 0.2886 0.2727
H41 H 0.3576 0.2799 0.2259
H42 H 0.3831 0.3236 0.2813
H43 H 0.3515 0.2830 0.2779
C52 C 0.6846 0.5287 0.8372
H44 H 0.7085 0.5269 0.8344
H45 H 0.6652 0.5593 0.8142
C53 C 0.7086 0.5261 0.9111
H46 H 0.6832 0.5180 0.9097
H47 H 0.7310 0.4976 0.9328
C54 C 0.7374 0.5715 0.9608
H48 H 0.7152 0.6002 0.9393
H49 H 0.7631 0.5795 0.9628
C55 C 0.7600 0.5680 1.0320
H50 H 0.7860 0.5430 1.0562
H51 H 0.7356 0.5555 1.0309
C56 C 0.7795 0.6117 1.0709
H52 H 0.8151 0.6100 1.1050
H53 H 0.7690 0.6403 1.0404
C57 C 0.7622 0.6198 1.1112
H54 H 0.7425 0.6503 1.0923
H55 H 0.7916 0.6268 1.1598
C58 C 0.7333 0.5791 1.1113
H56 H 0.6984 0.5830 1.0704
H57 H 0.7391 0.5828 1.1526
C59 C 0.7498 0.5280 1.1109
H58 H 0.7320 0.5024 1.1110
H59 H 0.7437 0.5245 1.0697
H60 H 0.7843 0.5243 1.1518
C60 C 0.7487(3) 0.7528(6) 0.6392(6)
H61 H 0.7309 0.7603 0.6501
C61 C 0.7995(3) 0.7529(7) 0.6916(5)
H62 H 0.8156 0.7658 0.7355
C62 C 0.8245(2) 0.7354(3) 0.6805(3)
C63 C 0.7991(3) 0.7169(6) 0.6176(5)
H63 H 0.8143 0.7051 0.6040
C64 C 0.7500(4) 0.7161(7) 0.5738(6)
H64 H 0.7318 0.6938 0.5361
C65 C 0.9541(3) 0.7144(3) 0.7747(4)
H65 H 0.9715 0.6988 0.7664
C66 C 0.9034(3) 0.7112(3) 0.7236(4)
H66 H 0.8869 0.6937 0.6821
C67 C 0.8784(2) 0.7343(3) 0.7360(4)
C68 C 0.9035(3) 0.7585(3) 0.7962(4)
H67 H 0.8870 0.7744 0.8057
C69 C 0.9521(2) 0.7600(3) 0.8427(3)
H68 H 0.9689 0.7773 0.8844
O1 O 0.56496(18) 0.81800(17) 0.3844(3)
O2 O 0.64392(17) 0.8124(2) 0.4593(3)
O3 O 0.56652(17) 1.2171(2) -0.0152(3)
O4 O 0.64575(17) 1.2155(2) 0.0597(2)
O5 O 0.6569 0.9476 0.2777
O6 O 0.5545 1.1163 0.1973
O7 O 0.55491(17) 0.68511(17) 0.4391(2)
O8 O 0.63448(16) 0.6855(2) 0.5230(3)
O9 O 0.56093(16) 0.28234(18) 0.8474(2)
O10 O 0.64117(15) 0.2874(2) 0.9290(2)
O11 O 0.5632 0.4410 0.5400
O12 O 0.6546 0.4852 0.8085
Zn1 Zn 0.65280(2) 0.74784(3) 0.50455(3)
Zn2 Zn 0.54927(2) 0.75237(3) 0.40091(4)
C70 C 0.6875 0.8538 0.1464
H69 H 0.6598 0.8377 0.1349
H70 H 0.7144 0.8300 0.1701
C71 C 0.6997 0.8926 0.1791
H71 H 0.6713 0.9106 0.1634
H72 H 0.7174 0.9145 0.1741
C72 C 0.6724 0.8801 0.0776
H73 H 0.6812 0.9156 0.0873
H74 H 0.6912 0.8643 0.0699
C73 C 0.6251 0.8760 0.0200
H75 H 0.6210 0.8441 -0.0015
H76 H 0.6176 0.9024 -0.0114
C74 C 0.5822 0.8782 0.0195
H77 H 0.5507 0.8745 -0.0276
H78 H 0.5836 0.9101 0.0379
H79 H 0.5871 0.8513 0.0479
N1 N 0.7279(2) 0.7434(2) 0.5815(3)
N2 N 0.97841(16) 0.7379(2) 0.8329(3)
C75 C 0.5465 1.1387 0.2513
H80 H 0.5753 1.1311 0.3000
H81 H 0.5182 1.1228 0.2383
C76 C 0.5390 1.1961 0.2396
H82 H 0.5201 1.2056 0.2500
H83 H 0.5174 1.2010 0.1897
C77 C 0.5653 1.2226 0.2626
H84 H 0.5746 1.2220 0.2370
H85 H 0.5486 1.2546 0.2510
C78 C 0.6081 1.2270 0.3306
H86 H 0.6154 1.1946 0.3531
H87 H 0.6340 1.2339 0.3325
C79 C 0.6106 1.2737 0.3799
H88 H 0.6454 1.2811 0.4124
H89 H 0.6083 1.2513 0.4062
C80 C 0.5952 1.3214 0.3901
H90 H 0.5876 1.3444 0.3555
H91 H 0.6252 1.3342 0.4349
C81 C 0.5599 1.3312 0.3898
H92 H 0.5504 1.3011 0.3986
H93 H 0.5697 1.3576 0.4226
C82 C 0.5199 1.3488 0.3138
H94 H 0.5313 1.3777 0.3070
O3E O 0.56652(17) 0.7829(2) 0.4848(3)
O4E O 0.64575(17) 0.7845(2) 0.5597(2)
O9E O 0.56093(16) 0.71766(18) 0.3474(2)
O10E O 0.64117(15) 0.7126(2) 0.4290(2)
Zn1E Zn 0.65280(2) 0.25216(3) 1.00455(3)
Zn1E_2 Zn 0.65280(2) 1.25216(3) 0.00455(3)
Zn2E Zn 0.54927(2) 0.24763(3) 0.90091(4)
Zn2E_2 Zn 0.54927(2) 1.24763(3) -0.09909(4)
Zn2G Zn 1.04927(2) 0.74763(3) 0.90091(4)
N2G N 0.47841(16) 0.7621(2) 0.3329(3)
loop_
_geom_bond_atom_site_label_1
_geom_bond_atom_site_label_2
_geom_bond_site_symmetry_1
_geom_bond_site_symmetry_2
C1 C2 1_555 1_555
C2 C3 1_555 1_555
C3 H1 1_555 1_555
C4 C3 1_555 1_555
H2 C4 1_555 1_555
C5 C4 1_555 1_555
C6 C5 1_555 1_555
H3 C6 1_555 1_555
C7 C2 1_555 1_555
H4 C7 1_555 1_555
C8 C5 1_555 1_555
C9 C8 1_555 1_555
C10 C8 1_555 1_555
H5 C10 1_555 1_555
C11 C10 1_555 1_555
C12 C11 1_555 1_555
C13 C9 1_555 1_555
H6 C13 1_555 1_555
C14 C12 1_555 1_555
C15 C14 1_555 1_555
H7 C15 1_555 1_555
C16 C15 1_555 1_555
H8 C16 1_555 1_555
C17 C16 1_555 1_555
C18 C17 1_555 1_555
H9 C18 1_555 1_555
C19 C14 1_555 1_555
H10 C19 1_555 1_555
C20 C17 1_555 1_555
C21 H11 1_555 1_555
H12 C21 1_555 1_555
C22 C21 1_555 1_555
H13 C22 1_555 1_555
H14 C22 1_555 1_555
C23 C22 1_555 1_555
H15 C23 1_555 1_555
H16 C23 1_555 1_555
C24 C25 1_555 1_555
C25 C26 1_555 1_555
C26 H17 1_555 1_555
C27 C26 1_555 1_555
H18 C27 1_555 1_555
C28 C27 1_555 1_555
C29 C28 1_555 1_555
H19 C29 1_555 1_555
C30 C25 1_555 1_555
H20 C30 1_555 1_555
C31 C28 1_555 1_555
C32 C31 1_555 1_555
H21 C32 1_555 1_555
C33 C31 1_555 1_555
C34 C33 1_555 1_555
H22 C34 1_555 1_555
C35 C34 1_555 1_555
C36 C32 1_555 1_555
C37 C35 1_555 1_555
C38 C37 1_555 1_555
H23 C38 1_555 1_555
C39 C38 1_555 1_555
H24 C39 1_555 1_555
C40 C39 1_555 1_555
C41 C40 1_555 1_555
H25 C41 1_555 1_555
C42 C37 1_555 1_555
H26 C42 1_555 1_555
C43 C40 1_555 1_555
C44 H27 1_555 1_555
H28 C44 1_555 1_555
C45 C44 1_555 1_555
H29 C45 1_555 1_555
H30 C45 1_555 1_555
C46 C45 1_555 1_555
H31 C46 1_555 1_555
H32 C46 1_555 1_555
C47 C46 1_555 1_555
H33 C47 1_555 1_555
H34 C47 1_555 1_555
C48 C47 1_555 1_555
H35 C48 1_555 1_555
H36 C48 1_555 1_555
C49 C48 1_555 1_555
H37 C49 1_555 1_555
H38 C49 1_555 1_555
C50 C49 1_555 1_555
H39 C50 1_555 1_555
H40 C50 1_555 1_555
C51 C50 1_555 1_555
H41 C51 1_555 1_555
H42 C51 1_555 1_555
H43 C51 1_555 1_555
C52 H44 1_555 1_555
H45 C52 1_555 1_555
C53 C52 1_555 1_555
H46 C53 1_555 1_555
H47 C53 1_555 1_555
C54 C53 1_555 1_555
H48 C54 1_555 1_555
H49 C54 1_555 1_555
C55 C54 1_555 1_555
H50 C55 1_555 1_555
H51 C55 1_555 1_555
C56 C55 1_555 1_555
H52 C56 1_555 1_555
H53 C56 1_555 1_555
C57 C56 1_555 1_555
H54 C57 1_555 1_555
H55 C57 1_555 1_555
C58 C57 1_555 1_555
H56 C58 1_555 1_555
H57 C58 1_555 1_555
C59 C58 1_555 1_555
H58 C59 1_555 1_555
H59 C59 1_555 1_555
H60 C59 1_555 1_555
C60 H61 1_555 1_555
C61 C60 1_555 1_555
H62 C61 1_555 1_555
C62 C61 1_555 1_555
C63 C62 1_555 1_555
H63 C63 1_555 1_555
C64 C63 1_555 1_555
H64 C64 1_555 1_555
C65 H65 1_555 1_555
C66 C65 1_555 1_555
H66 C66 1_555 1_555
C67 C62 1_555 1_555
C68 C67 1_555 1_555
H67 C68 1_555 1_555
C69 C68 1_555 1_555
H68 C69 1_555 1_555
O1 C1 1_555 1_555
O2 C1 1_555 1_555
O3 C20 1_555 1_555
O4 C20 1_555 1_555
O5 C9 1_555 1_555
O6 C11 1_555 1_555
O7 C24 1_555 1_555
O8 C24 1_555 1_555
O9 C43 1_555 1_555
O10 C43 1_555 1_555
O11 C33 1_555 1_555
O12 C36 1_555 1_555
Zn1 O2 1_555 1_555
Zn2 O1 1_555 1_555
C70 H69 1_555 1_555
H70 C70 1_555 1_555
C71 C23 1_555 1_555
H71 C71 1_555 1_555
H72 C71 1_555 1_555
C72 C70 1_555 1_555
H73 C72 1_555 1_555
H74 C72 1_555 1_555
C73 C72 1_555 1_555
H75 C73 1_555 1_555
H76 C73 1_555 1_555
C74 C73 1_555 1_555
H77 C74 1_555 1_555
H78 C74 1_555 1_555
H79 C74 1_555 1_555
N1 C60 1_555 1_555
N2 C65 1_555 1_555
C75 O6 1_555 1_555
H80 C75 1_555 1_555
H81 C75 1_555 1_555
C76 C75 1_555 1_555
H82 C76 1_555 1_555
H83 C76 1_555 1_555
C77 C76 1_555 1_555
H84 C77 1_555 1_555
H85 C77 1_555 1_555
C78 C77 1_555 1_555
H86 C78 1_555 1_555
H87 C78 1_555 1_555
C79 C78 1_555 1_555
H88 C79 1_555 1_555
H89 C79 1_555 1_555
C80 C79 1_555 1_555
H90 C80 1_555 1_555
H91 C80 1_555 1_555
C81 C80 1_555 1_555
H92 C81 1_555 1_555
H93 C81 1_555 1_555
C82 C81 1_555 1_555
H94 C82 1_555 1_555
O3E Zn2 1_555 1_555
O4E Zn1 1_555 1_555
O9E Zn2 1_555 1_555
O10E Zn1 1_555 1_555
Zn1E O10 1_555 1_555
Zn1E_2 O4 1_555 1_555
Zn2E O9 1_555 1_555
Zn2E_2 O3 1_555 1_555
Zn2G N2 1_555 1_555
N2G Zn2 1_555 1_555
C6 C7 1_555 1_555
C12 C13 1_555 1_555
C18 C19 1_555 1_555
C21 O5 1_555 1_555
C29 C30 1_555 1_555
C35 C36 1_555 1_555
C41 C42 1_555 1_555
C44 O11 1_555 1_555
C52 O12 1_555 1_555
C64 N1 1_555 1_555
C66 C67 1_555 1_555
C69 N2 1_555 1_555
O7 Zn2 1_555 1_555
O8 Zn1 1_555 1_555
Zn1 N1 1_555 1_555
C70 C71 1_555 1_555

#END
