
#######################################################################
#
#                 Cambridge Crystallographic Data Centre
#                                CCDC 
#
#######################################################################
#
# If this CIF has been generated from an entry in the Cambridge 
# Structural Database, then it will include bibliographic, chemical, 
# crystal, experimental, refinement or atomic coordinate data resulting 
# from the CCDC's data processing and validation procedures.
#
#######################################################################

data_HUZYEI
_chemical_formula_moiety         '(C78 H88 N2 O12 Zn2)n'
_symmetry_cell_setting           monoclinic
_symmetry_space_group_name_H-M   'C 2/c'
_symmetry_Int_Tables_number      15
_space_group_name_Hall           '-C 2yc'
loop_
_symmetry_equiv_pos_site_id
_symmetry_equiv_pos_as_xyz
1 x,y,z
2 -x,y,1/2-z
3 1/2+x,1/2+y,z
4 1/2-x,1/2+y,1/2-z
5 -x,-y,-z
6 x,-y,1/2+z
7 1/2-x,1/2-y,-z
8 1/2+x,1/2-y,1/2+z
_cell_length_a                   39.2730(9)
_cell_length_b                   27.4978(7)
_cell_length_c                   27.3722(7)
_cell_angle_alpha                90
_cell_angle_beta                 134.2780(10)
_cell_angle_gamma                90
_cell_volume                     21163.7
loop_
_atom_site_label
_atom_site_type_symbol
_atom_site_fract_x
_atom_site_fract_y
_atom_site_fract_z
_atom_site_U_iso_or_equiv
_atom_site_thermal_displace_type
C1 C 0.0997(3) 0.6978(3) 1.0311(4) 0.0645 Uani
C2 C 0.0993(3) 0.6643(3) 1.0722(5) 0.0768 Uani
C3 C 0.1403(6) 0.6440(6) 1.1307(7) 0.1864 Uani
H1 H 0.1686 0.6485 1.1421 0.2240 Uiso
C4 C 0.1403(4) 0.6177(5) 1.1717(6) 0.1273 Uani
H2 H 0.1700 0.6100 1.2143 0.1520 Uiso
C5 C 0.1041(5) 0.6020(5) 1.1589(6) 0.1156 Uani
C6 C 0.0554(7) 0.6153(6) 1.0886(11) 0.2130 Uani
H3 H 0.0271 0.6024 1.0722 0.2540 Uiso
C7 C 0.0568(5) 0.6504(4) 1.0488(7) 0.1369 Uani
H4 H 0.0286 0.6629 1.0079 0.1650 Uiso
C8 C 0.0998(4) 0.3289(3) 1.4016(4) 0.0703 Uani
C9 C 0.0953(5) 0.3755(4) 1.3651(6) 0.1009 Uani
C10 C 0.1421(5) 0.3912(6) 1.3959(7) 0.1888 Uani
H5 H 0.1703 0.3793 1.4372 0.2270 Uiso
C11 C 0.1403(7) 0.4278(5) 1.3549(8) 0.1844 Uani
H6 H 0.1682 0.4373 1.3673 0.2220 Uiso
C12 C 0.0995(5) 0.4471(4) 1.3009(8) 0.1278 Uani
C13 C 0.0567(5) 0.4296(5) 1.2791(6) 0.1405 Uani
H7 H 0.0280 0.4443 1.2421 0.1690 Uiso
C14 C 0.0568(4) 0.3945(3) 1.3086(6) 0.1011 Uani
H8 H 0.0277 0.3814 1.2889 0.1220 Uiso
C15 C 0.0949 0.4907 1.2620 0.1230 Uiso
C16 C 0.1142 0.5311 1.2907 0.2950 Uiso
H9 H 0.1266 0.5380 1.3338 0.3540 Uiso
C17 C 0.1163 0.5701 1.2488 0.2230 Uiso
C18 C 0.0981 0.5599 1.1911 0.1130 Uiso
C19 C 0.0638 0.5178 1.1486 1.1300 Uiso
H10 H 0.0469 0.5154 1.1026 1.3540 Uiso
C20 C 0.0576 0.4805 1.1813 1.4700 Uiso
C21 C 0.1569 0.6336 1.3423 1.0100 Uiso
H11 H 0.1607 0.6091 1.3713 1.2170 Uiso
H12 H 0.1349 0.6576 1.3329 1.2170 Uiso
C22 C 0.2092 0.6611 1.3883 0.8200 Uiso
H13 H 0.2348 0.6436 1.4299 0.9900 Uiso
H14 H 0.2086 0.6946 1.3990 0.9900 Uiso
C23 C 0.2118 0.6569 1.3290 2.0000 Uiso
H15 H 0.2335 0.6320 1.3391 2.4000 Uiso
H16 H 0.1809 0.6538 1.2826 2.4000 Uiso
C24 C 0.2332 0.7104 1.3482 0.4500 Uiso
H17 H 0.2528 0.7147 1.3967 0.5410 Uiso
H18 H 0.2544 0.7117 1.3415 0.5410 Uiso
C25 C 0.2004 0.7542 1.3120 0.3560 Uiso
H19 H 0.1793 0.7550 1.3189 0.4280 Uiso
H20 H 0.1811 0.7521 1.2634 0.4280 Uiso
C26 C 0.2313 0.8014 1.3416 2.0000 Uiso
H21 H 0.2458 0.8083 1.3248 2.4000 Uiso
H22 H 0.2539 0.8044 1.3908 2.4000 Uiso
C27 C 0.1803 0.8286 1.2999 1.4100 Uiso
H23 H 0.1852 0.8631 1.3064 2.1080 Uiso
H24 H 0.1669 0.8174 1.3167 2.1080 Uiso
H25 H 0.1590 0.8212 1.2522 2.1080 Uiso
C28 C -0.0032 0.4473 1.0813 0.4800 Uiso
H26 H -0.0043 0.4813 1.0710 0.5720 Uiso
H27 H -0.0015 0.4283 1.0532 0.5720 Uiso
C29 C -0.0460 0.4358 1.0624 2.0000 Uiso
H28 H -0.0574 0.4061 1.0359 2.4000 Uiso
H29 H -0.0373 0.4274 1.1043 2.4000 Uiso
C30 C -0.0835 0.4648 1.0284 0.6800 Uiso
H30 H -0.1037 0.4526 1.0342 0.8110 Uiso
H31 H -0.1015 0.4625 0.9803 0.8110 Uiso
C31 C -0.0734 0.5200 1.0488 1.7000 Uiso
H32 H -0.0702 0.5265 1.0867 1.9850 Uiso
H33 H -0.0451 0.5312 1.0602 1.9850 Uiso
C32 C -0.1116 0.5393 0.9927 2.0000 Uiso
H34 H -0.1264 0.5601 1.0022 2.4000 Uiso
H35 H -0.1341 0.5140 0.9615 2.4000 Uiso
C33 C -0.0996 0.5672 0.9623 1.4000 Uiso
H36 H -0.1031 0.6004 0.9700 1.6780 Uiso
H37 H -0.0656 0.5622 0.9935 1.6780 Uiso
C34 C -0.1147 0.5700 0.8973 2.0000 Uiso
H38 H -0.0967 0.5946 0.8987 3.0000 Uiso
H39 H -0.1479 0.5781 0.8628 3.0000 Uiso
H40 H -0.1096 0.5392 0.8868 3.0000 Uiso
C35 C -0.3965(4) 0.6711(3) 0.5060(4) 0.0697 Uani
C36 C -0.3998(4) 0.6250(3) 0.5357(6) 0.0928 Uani
C37 C -0.3553(4) 0.6124(6) 0.5993(7) 0.1940 Uani
H41 H -0.3276 0.6228 0.6116 0.2320 Uiso
C38 C -0.3527(6) 0.5831(8) 0.6456(12) 0.3262 Uani
H42 H -0.3290 0.5847 0.6929 0.3940 Uiso
C39 C -0.3942(5) 0.5501(5) 0.6045(6) 0.1346 Uani
C40 C -0.4437(7) 0.5678(5) 0.5401(9) 0.1866 Uani
H43 H -0.4723 0.5550 0.5225 0.2260 Uiso
C41 C -0.4385(5) 0.6066(5) 0.5121(7) 0.1544 Uani
H44 H -0.4665 0.6202 0.4721 0.1860 Uiso
C42 C -0.4008(3) 0.3017(3) 0.8738(4) 0.0654 Uani
C43 C -0.3989(3) 0.3379(3) 0.8302(4) 0.0752 Uani
C44 C -0.4429(3) 0.3507(4) 0.7674(4) 0.0927 Uani
H45 H -0.4712 0.3370 0.7498 0.1120 Uiso
C45 C -0.4409(6) 0.3866(4) 0.7322(6) 0.1497 Uani
H46 H -0.4689 0.4010 0.6932 0.1790 Uiso
C46 C -0.3981(4) 0.4004(4) 0.7548(6) 0.1078 Uani
C47 C -0.3574(4) 0.3805(4) 0.8168(6) 0.1103 Uani
H47 H -0.3280 0.3895 0.8336 0.1330 Uiso
C48 C -0.3581(4) 0.3519(3) 0.8505(4) 0.0920 Uani
H48 H -0.3295 0.3397 0.8911 0.1100 Uiso
C49 C -0.3935 0.4404 0.7156 0.1190 Uiso
C50 C -0.4235 0.4354 0.6499 0.6100 Uiso
H49 H -0.4475 0.4122 0.6254 0.7290 Uiso
C51 C -0.4152 0.4713 0.6176 0.3230 Uiso
C52 C -0.3994 0.5088 0.6389 0.1590 Uiso
C53 C -0.3571 0.5104 0.7207 0.2560 Uiso
H50 H -0.3351 0.5354 0.7388 0.3070 Uiso
C54 C -0.3488 0.4781 0.7696 2.0000 Uiso
C55 C -0.4464 0.4177 0.5326 1.1000 Uiso
H51 H -0.4366 0.3998 0.5712 1.3190 Uiso
H52 H -0.4808 0.4188 0.4996 1.3190 Uiso
C56 C -0.4357 0.3799 0.4983 2.0000 Uiso
H53 H -0.4103 0.3923 0.5032 2.3890 Uiso
H54 H -0.4261 0.3485 0.5206 2.3890 Uiso
C57 C -0.2813 0.5315 0.8876 2.0000 Uiso
H55 H -0.2812 0.5514 0.8585 2.4000 Uiso
H56 H -0.2879 0.5507 0.9099 2.4000 Uiso
C58 C -0.2370 0.4963 0.9370 1.0100 Uiso
H57 H -0.2387 0.4695 0.9123 1.2090 Uiso
H58 H -0.2339 0.4836 0.9730 1.2090 Uiso
C59 C -0.2025 0.5262 0.9608 0.9200 Uiso
H59 H -0.1915 0.5379 1.0033 1.1040 Uiso
H60 H -0.1773 0.5053 0.9739 1.1040 Uiso
C60 C -0.2002 0.5692 0.9314 2.0000 Uiso
H61 H -0.1671 0.5790 0.9629 2.4000 Uiso
H62 H -0.2091 0.5588 0.8899 2.4000 Uiso
C61 C -0.0512 0.7603 0.8400 0.1214 Uani
H63 H -0.0351 0.7671 0.8850 0.1440 Uiso
C62 C -0.1011 0.7619 0.7895 0.0880 Uani
H64 H -0.1172 0.7704 0.8018 0.1050 Uiso
C63 C -0.1234 0.7527 0.7313 0.0630 Uiso
C64 C -0.0990 0.7213 0.7191 0.0982 Uani
H65 H -0.1157 0.7022 0.6802 0.1180 Uiso
C65 C -0.0508 0.7226 0.7687 0.1205 Uani
H66 H -0.0332 0.7048 0.7637 0.1440 Uiso
C66 C -0.2530 0.7469 0.6421 0.1680 Uiso
H67 H -0.2689 0.7407 0.6553 0.2020 Uiso
C67 C -0.2037 0.7500 0.6898 0.1700 Uiso
H68 H -0.1888 0.7548 0.7347 0.2040 Uiso
C68 C -0.1736 0.7470 0.6799 0.0493 Uiso
C69 C -0.2542 0.7500 0.5611 0.5600 Uiso
H69 H -0.2698 0.7474 0.5156 0.6760 Uiso
C70 C -0.2049 0.7500 0.6116 0.6000 Uiso
H70 H -0.1908 0.7526 0.5951 0.7220 Uiso
N1 N -0.0280 0.7501 0.8261 0.0515 Uiso
O1 O 0.1367(3) 0.7096(2) 1.0488(3) 0.0962 Uani
O2 O 0.0595(2) 0.7155(3) 0.9748(3) 0.0894 Uani
O3 O 0.1383(3) 0.3072(3) 1.4466(4) 0.1320 Uani
O4 O 0.0580(2) 0.3119(2) 1.3723(4) 0.0938 Uani
O5 O 0.1346 0.6111 1.2806 2.0000 Uiso
O6 O 0.0393 0.4391 1.1512 0.5280 Uiso
O7 O -0.3580(2) 0.6931(3) 0.5398(4) 0.1163 Uani
O8 O -0.4401(2) 0.68519(19) 0.4496(3) 0.0802 Uani
O9 O -0.3579(2) 0.2932(2) 0.9359(3) 0.0958 Uani
O10 O -0.43989(19) 0.2895(2) 0.8504(3) 0.0908 Uani
O11 O -0.3072 0.4904 0.8580 0.9000 Uiso
O12 O -0.4369 0.4511 0.5493 2.0000 Uiso
Zn1 Zn 0.04693(3) 0.75113(3) 0.89921(5) 0.0566 Uani
Zn2 Zn 0.150845(19) 0.747621(19) 1.00314(3) 0.0213 Uani
N2 N -0.2772 0.7533 0.5750 0.0090 Uiso
C71 C -0.4901 0.3741 0.4088 1.0900 Uiso
H71 H -0.5147 0.3976 0.3920 1.3100 Uiso
H72 H -0.5025 0.3413 0.3936 1.3100 Uiso
C72 C -0.4535 0.3904 0.4022 0.5900 Uiso
H73 H -0.4219 0.3771 0.4387 0.7100 Uiso
H74 H -0.4652 0.3814 0.3584 0.7100 Uiso
C73 C -0.4550 0.4501 0.4096 0.7700 Uiso
H75 H -0.4214 0.4582 0.4434 0.9300 Uiso
H76 H -0.4646 0.4521 0.4339 0.9300 Uiso
C74 C -0.4740 0.4904 0.3722 0.8600 Uiso
H77 H -0.4509 0.5097 0.3775 1.0370 Uiso
H78 H -0.5012 0.4836 0.3243 1.0370 Uiso
C75 C -0.4900 0.5169 0.4100 2.0000 Uiso
H79 H -0.5049 0.5477 0.3886 3.0000 Uiso
H80 H -0.5119 0.4961 0.4051 3.0000 Uiso
H81 H -0.4622 0.5219 0.4576 3.0000 Uiso
C76 C -0.2348 0.6239 0.9103 0.4800 Uiso
H82 H -0.2690 0.6195 0.8780 0.5800 Uiso
H83 H -0.2224 0.6444 0.9486 0.5800 Uiso
C77 C -0.2090 0.6363 0.8701 2.0000 Uiso
H84 H -0.2228 0.6096 0.8379 2.4000 Uiso
H85 H -0.1760 0.6271 0.9075 2.4000 Uiso
C78 C -0.2041 0.6809 0.8295 1.0800 Uiso
H86 H -0.1869 0.6679 0.8193 1.6200 Uiso
H87 H -0.2353 0.6907 0.7879 1.6200 Uiso
H88 H -0.1874 0.7085 0.8590 1.6200 Uiso
O3E O 0.1383(3) 0.6928(3) 0.9466(4) 0.1320 Uani
O4E O 0.0580(2) 0.6881(2) 0.8723(4) 0.0938 Uani
O7G O 0.1420(2) 0.8069(3) 1.0398(4) 0.1163 Uani
O8G O 0.0599(2) 0.81481(19) 0.9496(3) 0.0802 Uani
O9B O 0.1421(2) 0.7932(2) 0.9359(3) 0.0958 Uani
O10B O 0.06011(19) 0.7895(2) 0.8504(3) 0.0908 Uani
Zn1B Zn -0.45307(3) 0.25113(3) 0.89921(5) 0.0566 Uani
Zn1E Zn 0.04693(3) 0.24887(3) 1.39921(5) 0.0566 Uani
Zn1G Zn -0.45307(3) 0.74887(3) 0.39921(5) 0.0566 Uani
Zn2B Zn -0.349155(19) 0.247621(19) 1.00314(3) 0.0213 Uani
Zn2E Zn 0.150845(19) 0.252379(19) 1.50314(3) 0.0213 Uani
Zn2G Zn -0.349155(19) 0.752379(19) 0.50314(3) 0.0213 Uani
N2G N 0.2228 0.7467 1.0750 0.0090 Uiso
loop_
_atom_site_aniso_label
_atom_site_aniso_U_11
_atom_site_aniso_U_22
_atom_site_aniso_U_33
_atom_site_aniso_U_23
_atom_site_aniso_U_13
_atom_site_aniso_U_12
C1 0.066(6) 0.076(5) 0.064(6) 0.008(4) 0.050(5) -0.015(5)
C2 0.087(7) 0.095(6) 0.069(6) 0.020(5) 0.062(6) -0.002(5)
C3 0.238(18) 0.206(15) 0.119(11) 0.038(10) 0.126(13) -0.053(13)
C4 0.091(8) 0.166(11) 0.095(9) 0.070(8) 0.054(8) 0.031(8)
C5 0.119(10) 0.166(11) 0.091(8) 0.059(8) 0.084(8) 0.025(9)
C6 0.244(18) 0.204(15) 0.37(3) 0.037(17) 0.28(2) -0.030(14)
C7 0.187(12) 0.143(10) 0.182(12) 0.075(9) 0.166(11) 0.047(9)
C8 0.099(7) 0.047(4) 0.052(5) 0.004(4) 0.048(6) -0.006(5)
C9 0.176(11) 0.074(6) 0.127(9) -0.017(6) 0.133(10) -0.031(7)
C10 0.128(10) 0.253(16) 0.150(12) 0.108(11) 0.084(10) -0.031(11)
C11 0.228(17) 0.166(13) 0.173(14) 0.029(11) 0.145(14) -0.087(13)
C12 0.113(10) 0.126(9) 0.160(12) 0.073(9) 0.101(10) 0.008(8)
C13 0.143(11) 0.179(13) 0.100(9) 0.012(9) 0.085(9) -0.028(10)
C14 0.133(10) 0.063(6) 0.113(9) 0.045(6) 0.088(9) 0.031(6)
C35 0.091 0.088 0.066 0.043 0.068 0.046
C36 0.085 0.068 0.136 0.016 0.081 -0.002
C37 0.09 0.254 0.187 0.168 0.078 0.035
C38 0.124 0.37 0.41 0.34 0.159 0.085
C39 0.167 0.141 0.113 0.096 0.104 0.081
C40 0.3 0.148 0.27 0.108 0.257 0.087
C41 0.12 0.193 0.147 0.148 0.092 0.107
C42 0.082 0.083 0.05 0.001 0.053 0
C43 0.047 0.111 0.041 0.022 0.021 0.009
C44 0.066 0.125 0.067 0.047 0.039 0.006
C45 0.189 0.121 0.13 0.063 0.108 0.01
C46 0.122 0.118 0.088 0.042 0.075 -0.009
C47 0.153 0.116 0.101 -0.008 0.103 -0.049
C48 0.111 0.082 0.061 -0.006 0.052 -0.041
C61 0.045(5) 0.255(14) 0.057(6) 0.009(7) 0.033(5) 0.006(6)
C62 0.026(4) 0.185(9) 0.055(5) -0.012(5) 0.029(4) 0.015(5)
C64 0.094(7) 0.106(7) 0.060(6) -0.014(5) 0.041(6) -0.006(6)
C65 0.042(5) 0.252(13) 0.035(5) 0.008(7) 0.015(5) 0.030(7)
O1 0.111(5) 0.104(5) 0.073(4) 0.024(4) 0.064(4) -0.005(4)
O2 0.089(5) 0.137(6) 0.062(4) 0.023(4) 0.060(4) 0.010(4)
O3 0.130(6) 0.116(5) 0.121(6) 0.075(5) 0.077(5) -0.010(5)
O4 0.112(5) 0.080(4) 0.142(6) 0.004(4) 0.108(5) -0.013(4)
O7 0.056 0.139 0.134 0.099 0.059 0.021
O8 0.096 0.072 0.091 0.028 0.072 0.021
O9 0.057 0.141 0.106 0.076 0.063 0.031
O10 0.052 0.139 0.089 0.073 0.052 0.03
Zn1 0.0498(6) 0.0647(6) 0.0543(6) -0.0042(4) 0.0360(5) -0.0050(4)
Zn2 0.0116(3) 0.0282(3) 0.0186(4) -0.0014(3) 0.0085(3) 0.0015(3)
O3E 0.13 0.116 0.121 -0.075 0.077 0.01
O4E 0.112 0.08 0.142 -0.004 0.108 0.013
O7G 0.056 0.139 0.134 -0.099 0.059 -0.021
O8G 0.096 0.072 0.091 -0.028 0.072 -0.021
O9B 0.057 0.141 0.106 0.076 0.063 0.031
O10B 0.052 0.139 0.089 0.073 0.052 0.03
Zn1B 0.0498 0.0647 0.0543 -0.0042 0.036 -0.005
Zn1E 0.0498 0.0647 0.0543 0.0042 0.036 0.005
Zn1G 0.0498 0.0647 0.0543 0.0042 0.036 0.005
Zn2B 0.0116 0.0282 0.0186 -0.0014 0.0085 0.0015
Zn2E 0.0116 0.0282 0.0186 0.0014 0.0085 -0.0015
Zn2G 0.0116 0.0282 0.0186 0.0014 0.0085 -0.0015
loop_
_geom_bond_atom_site_label_1
_geom_bond_atom_site_label_2
_geom_bond_site_symmetry_1
_geom_bond_site_symmetry_2
C1 C2 1_555 1_555
C2 C3 1_555 1_555
C3 H1 1_555 1_555
C4 C3 1_555 1_555
H2 C4 1_555 1_555
C5 C4 1_555 1_555
C6 C5 1_555 1_555
H3 C6 1_555 1_555
C7 C2 1_555 1_555
H4 C7 1_555 1_555
C8 C9 1_555 1_555
C9 C10 1_555 1_555
C10 H5 1_555 1_555
C11 C10 1_555 1_555
H6 C11 1_555 1_555
C12 C11 1_555 1_555
C13 C12 1_555 1_555
H7 C13 1_555 1_555
C14 C9 1_555 1_555
H8 C14 1_555 1_555
C15 C12 1_555 1_555
C16 C15 1_555 1_555
H9 C16 1_555 1_555
C17 C16 1_555 1_555
C18 C5 1_555 1_555
C19 C18 1_555 1_555
H10 C19 1_555 1_555
C20 C15 1_555 1_555
C21 H11 1_555 1_555
H12 C21 1_555 1_555
C22 C21 1_555 1_555
H13 C22 1_555 1_555
H14 C22 1_555 1_555
C23 C22 1_555 1_555
H15 C23 1_555 1_555
H16 C23 1_555 1_555
C24 C23 1_555 1_555
H17 C24 1_555 1_555
H18 C24 1_555 1_555
C25 C24 1_555 1_555
H19 C25 1_555 1_555
H20 C25 1_555 1_555
C26 C25 1_555 1_555
H21 C26 1_555 1_555
H22 C26 1_555 1_555
C27 C26 1_555 1_555
H23 C27 1_555 1_555
H24 C27 1_555 1_555
H25 C27 1_555 1_555
C28 H26 1_555 1_555
H27 C28 1_555 1_555
C29 C28 1_555 1_555
H28 C29 1_555 1_555
H29 C29 1_555 1_555
C30 C29 1_555 1_555
H30 C30 1_555 1_555
H31 C30 1_555 1_555
C31 C30 1_555 1_555
H32 C31 1_555 1_555
H33 C31 1_555 1_555
C32 C31 1_555 1_555
H34 C32 1_555 1_555
H35 C32 1_555 1_555
C33 C32 1_555 1_555
H36 C33 1_555 1_555
H37 C33 1_555 1_555
C34 C33 1_555 1_555
H38 C34 1_555 1_555
H39 C34 1_555 1_555
H40 C34 1_555 1_555
C35 C36 1_555 1_555
C36 C37 1_555 1_555
C37 H41 1_555 1_555
C38 C37 1_555 1_555
H42 C38 1_555 1_555
C39 C38 1_555 1_555
C40 C39 1_555 1_555
H43 C40 1_555 1_555
C41 C36 1_555 1_555
H44 C41 1_555 1_555
C42 C43 1_555 1_555
C43 C44 1_555 1_555
C44 H45 1_555 1_555
C45 C44 1_555 1_555
H46 C45 1_555 1_555
C46 C45 1_555 1_555
C47 C46 1_555 1_555
H47 C47 1_555 1_555
C48 C43 1_555 1_555
H48 C48 1_555 1_555
C49 C46 1_555 1_555
C50 C49 1_555 1_555
H49 C50 1_555 1_555
C51 C50 1_555 1_555
C52 C39 1_555 1_555
C53 C52 1_555 1_555
H50 C53 1_555 1_555
C54 C49 1_555 1_555
C55 H51 1_555 1_555
H52 C55 1_555 1_555
C56 C55 1_555 1_555
H53 C56 1_555 1_555
H54 C56 1_555 1_555
C57 H55 1_555 1_555
H56 C57 1_555 1_555
C58 C57 1_555 1_555
H57 C58 1_555 1_555
H58 C58 1_555 1_555
C59 C58 1_555 1_555
H59 C59 1_555 1_555
H60 C59 1_555 1_555
C60 C59 1_555 1_555
H61 C60 1_555 1_555
H62 C60 1_555 1_555
C61 H63 1_555 1_555
C62 C61 1_555 1_555
H64 C62 1_555 1_555
C63 C62 1_555 1_555
C64 C63 1_555 1_555
H65 C64 1_555 1_555
C65 C64 1_555 1_555
H66 C65 1_555 1_555
C66 H67 1_555 1_555
C67 C66 1_555 1_555
H68 C67 1_555 1_555
C68 C63 1_555 1_555
C69 H69 1_555 1_555
C70 C68 1_555 1_555
H70 C70 1_555 1_555
N1 C61 1_555 1_555
O1 C1 1_555 1_555
O2 C1 1_555 1_555
O3 C8 1_555 1_555
O4 C8 1_555 1_555
O5 C17 1_555 1_555
O6 C20 1_555 1_555
O7 C35 1_555 1_555
O8 C35 1_555 1_555
O9 C42 1_555 1_555
O10 C42 1_555 1_555
O11 C54 1_555 1_555
O12 C51 1_555 1_555
Zn1 N1 1_555 1_555
Zn2 O1 1_555 1_555
N2 C66 1_555 1_555
C71 C56 1_555 1_555
H71 C71 1_555 1_555
H72 C71 1_555 1_555
C72 C71 1_555 1_555
H73 C72 1_555 1_555
H74 C72 1_555 1_555
C73 C72 1_555 1_555
H75 C73 1_555 1_555
H76 C73 1_555 1_555
C74 C73 1_555 1_555
H77 C74 1_555 1_555
H78 C74 1_555 1_555
C75 C74 1_555 1_555
H79 C75 1_555 1_555
H80 C75 1_555 1_555
H81 C75 1_555 1_555
C76 C60 1_555 1_555
H82 C76 1_555 1_555
H83 C76 1_555 1_555
C77 C76 1_555 1_555
H84 C77 1_555 1_555
H85 C77 1_555 1_555
C78 C77 1_555 1_555
H86 C78 1_555 1_555
H87 C78 1_555 1_555
H88 C78 1_555 1_555
O3E Zn2 1_555 1_555
O4E Zn1 1_555 1_555
O7G Zn2 1_555 1_555
O8G Zn1 1_555 1_555
O9B Zn2 1_555 1_555
O10B Zn1 1_555 1_555
Zn1B O10 1_555 1_555
Zn1E O4 1_555 1_555
Zn1G O8 1_555 1_555
Zn2B O9 1_555 1_555
Zn2E O3 1_555 1_555
Zn2G O7 1_555 1_555
N2G Zn2 1_555 1_555
C6 C7 1_555 1_555
C13 C14 1_555 1_555
C17 C18 1_555 1_555
C19 C20 1_555 1_555
C21 O5 1_555 1_555
C28 O6 1_555 1_555
C40 C41 1_555 1_555
C47 C48 1_555 1_555
C51 C52 1_555 1_555
C53 C54 1_555 1_555
C55 O12 1_555 1_555
C57 O11 1_555 1_555
C65 N1 1_555 1_555
C67 C68 1_555 1_555
C69 C70 1_555 1_555
C69 N2 1_555 1_555
O2 Zn1 1_555 1_555
N2 Zn2G 1_555 1_555

#END
