
#######################################################################
#
#                 Cambridge Crystallographic Data Centre
#                                CCDC 
#
#######################################################################
#
# If this CIF has been generated from an entry in the Cambridge 
# Structural Database, then it will include bibliographic, chemical, 
# crystal, experimental, refinement or atomic coordinate data resulting 
# from the CCDC's data processing and validation procedures.
#
#######################################################################

data_OZASUF
_chemical_formula_moiety         '(C76 H84 N2 O12 Zn2)n'
_symmetry_cell_setting           monoclinic
_symmetry_space_group_name_H-M   'C 2/m'
_symmetry_Int_Tables_number      12
_space_group_name_Hall           '-C 2y'
loop_
_symmetry_equiv_pos_site_id
_symmetry_equiv_pos_as_xyz
1 x,y,z
2 -x,y,-z
3 1/2+x,1/2+y,z
4 1/2-x,1/2+y,-z
5 -x,-y,-z
6 x,-y,z
7 1/2-x,1/2-y,-z
8 1/2+x,1/2-y,z
_cell_length_a                   27.3406(7)
_cell_length_b                   27.9137(8)
_cell_length_c                   16.2646(4)
_cell_angle_alpha                90
_cell_angle_beta                 99.4410(10)
_cell_angle_gamma                90
_cell_volume                     12244.6
loop_
_atom_site_label
_atom_site_type_symbol
_atom_site_fract_x
_atom_site_fract_y
_atom_site_fract_z
C1 C 0.04044(15) 0.06650(13) 0.2951(3)
C2 C 0.00346(16) 0.10540(15) 0.2981(3)
C3 C -0.00749(19) 0.1229(2) 0.3728(3)
H1 H 0.0101 0.1108 0.4222
C4 C -0.0421(2) 0.1565(2) 0.3776(4)
H2 H -0.0491 0.1662 0.4291
C5 C -0.0678(2) 0.1767(2) 0.3036(4)
C6 C -0.0565(2) 0.1603(2) 0.2277(4)
H3 H -0.0727 0.1736 0.1782
C7 C -0.0221(2) 0.1252(2) 0.2251(3)
H4 H -0.0156 0.1143 0.1739
C8 C -0.2594(2) 0.3801(2) 0.3793(3)
H5 H -0.2642 0.3928 0.4302
C9 C -0.2251(2) 0.3448(2) 0.3771(4)
H6 H -0.2087 0.3323 0.4271
C10 C -0.2139(2) 0.3269(2) 0.3032(4)
C11 C -0.2387(2) 0.3461(2) 0.2305(4)
H7 H -0.2298 0.3371 0.1799
C12 C -0.2771(2) 0.3788(2) 0.2311(3)
H8 H -0.2961 0.3883 0.1811
C13 C -0.28709(17) 0.39725(16) 0.3062(3)
C14 C -0.32507(14) 0.43496(14) 0.3080(3)
C15 C -0.1315 0.2912 0.3577
H9 H -0.1237 0.3181 0.3911
C16 C -0.0979 0.2528 0.3590
C17 C -0.1049(2) 0.2148(2) 0.3049(4)
C18 C -0.1529 0.2112 0.2492
H10 H -0.1595 0.1845 0.2150
C19 C -0.1873 0.2456 0.2467
C20 C -0.1781(2) 0.2874(2) 0.3032(4)
C21 C -0.2509 0.2315 0.1100
H11 H -0.2349 0.2536 0.0769
H12 H -0.2357 0.2007 0.1031
C22 C -0.3019 0.2261 0.0596
H13 H -0.2960 0.2192 0.0036
H14 H -0.3144 0.1965 0.0796
C23 C -0.3500 0.2624 0.0462
H15 H -0.3785 0.2477 0.0123
H16 H -0.3424 0.2924 0.0208
C24 C -0.3580 0.2694 0.1300
H17 H -0.3296 0.2872 0.1581
H18 H -0.3864 0.2905 0.1271
C25 C -0.3665 0.2283 0.1881
H19 H -0.3985 0.2158 0.1627
H20 H -0.3726 0.2448 0.2380
C26 C -0.3387 0.1838 0.2224
H21 H -0.3576 0.1671 0.2580
H22 H -0.3336 0.1633 0.1771
H23 H -0.3072 0.1928 0.2538
C27 C -0.0433 0.2951 0.4772
H24 H -0.0082 0.3006 0.4951
H25 H -0.0571 0.2838 0.5250
C28 C -0.0678 0.3415 0.4472
H26 H -0.0484 0.3530 0.4064
H27 H -0.0994 0.3318 0.4154
C29 C -0.0794 0.3845 0.4900
H28 H -0.0938 0.4062 0.4460
H29 H -0.0474 0.3981 0.5131
C30 C -0.1099 0.3906 0.5558
H30 H -0.0875 0.3857 0.6079
H31 H -0.1188 0.4243 0.5545
C31 C -0.1493 0.3681 0.5636
H32 H -0.1445 0.3338 0.5594
H33 H -0.1765 0.3778 0.5208
C32 C -0.1600 0.3814 0.6500
H34 H -0.1896 0.3654 0.6598
H35 H -0.1645 0.4154 0.6531
H36 H -0.1326 0.3717 0.6915
C33 C 0.0569 0.0000 1.0303
H37 H 0.0272 0.0000 1.0512
C34 C 0.0506 0.0000 0.9453
H38 H 0.0187 0.0000 0.9149
C35 C 0.0858 0.0000 0.9087
C36 C 0.1406 0.0000 0.9694
H39 H 0.1705 0.0000 0.9493
C37 C 0.1373 0.0000 1.0517
H40 H 0.1668 0.0000 1.0894
C38 C 0.1200 0.0412 0.5640
H41 H 0.1212 0.0700 0.5358
C39 C 0.1216 0.0424 0.6483
H42 H 0.1231 0.0716 0.6762
C40 C 0.1210(3) 0.0000 0.6918(6)
C41 C 0.1309 0.0000 0.7868
H43 H 0.1497 0.0282 0.8074
C42 C 0.0797 0.0000 0.8163
H44 H 0.0611 0.0281 0.7946
N1 N 0.09333(16) 0.0000 1.0843(3)
N2 N 0.11680(17) 0.0000 0.5197(3)
O1 O 0.04667(10) 0.05060(10) 0.22600(17)
O2 O 0.06265(11) 0.05113(11) 0.36504(18)
O3 O -0.34811(11) 0.44927(11) 0.23903(19)
O4 O -0.33300(11) 0.44977(11) 0.37790(19)
O5 O -0.2304 0.2443 0.1928
O6 O -0.0498 0.2599 0.4154
Zn1 Zn 0.097932(19) 0.0000 0.20997(3)
Zn2 Zn 0.115867(19) 0.0000 0.39390(3)
H43E H 0.1497 -0.0282 0.8074
H44E H 0.0611 -0.0281 0.7946
C38E C 0.1200 -0.0412 0.5640
H41E H 0.1212 -0.0700 0.5358
C39E C 0.1216 -0.0424 0.6483
H42E H 0.1231 -0.0716 0.6762
C1E C 0.04044(15) -0.06650(13) 0.2951(3)
C2E C 0.00346(16) -0.10540(15) 0.2981(3)
C3E C -0.00749(19) -0.1229(2) 0.3728(3)
H1E H 0.0101 -0.1108 0.4222
C4E C -0.0421(2) -0.1565(2) 0.3776(4)
H2E H -0.0491 -0.1662 0.4291
C5E C -0.0678(2) -0.1767(2) 0.3036(4)
C6E C -0.0565(2) -0.1603(2) 0.2277(4)
H3E H -0.0727 -0.1736 0.1782
C7E C -0.0221(2) -0.1252(2) 0.2251(3)
H4E H -0.0156 -0.1143 0.1739
C8E C -0.2594(2) -0.3801(2) 0.3793(3)
H5E H -0.2642 -0.3928 0.4302
C9E C -0.2251(2) -0.3448(2) 0.3771(4)
H6E H -0.2087 -0.3323 0.4271
C10E C -0.2139(2) -0.3269(2) 0.3032(4)
C11E C -0.2387(2) -0.3461(2) 0.2305(4)
H7E H -0.2298 -0.3371 0.1799
C12E C -0.2771(2) -0.3788(2) 0.2311(3)
H8E H -0.2961 -0.3883 0.1811
C13E C -0.28709(17) -0.39725(16) 0.3062(3)
C14E C -0.32507(14) -0.43496(14) 0.3080(3)
C15E C -0.1315 -0.2912 0.3577
H9E H -0.1237 -0.3181 0.3911
C16E C -0.0979 -0.2528 0.3590
C17E C -0.1049(2) -0.2148(2) 0.3049(4)
C18E C -0.1529 -0.2112 0.2492
H10E H -0.1595 -0.1845 0.2150
C19E C -0.1873 -0.2456 0.2467
C20E C -0.1781(2) -0.2874(2) 0.3032(4)
C21E C -0.2509 -0.2315 0.1100
H11E H -0.2349 -0.2536 0.0769
H12E H -0.2357 -0.2007 0.1031
C22E C -0.3019 -0.2261 0.0596
H13E H -0.2960 -0.2192 0.0036
H14E H -0.3144 -0.1965 0.0796
C23E C -0.3500 -0.2624 0.0462
H15E H -0.3785 -0.2477 0.0123
H16E H -0.3424 -0.2924 0.0208
C24E C -0.3580 -0.2694 0.1300
H17E H -0.3296 -0.2872 0.1581
H18E H -0.3864 -0.2905 0.1271
C25E C -0.3665 -0.2283 0.1881
H19E H -0.3985 -0.2158 0.1627
H20E H -0.3726 -0.2448 0.2380
C26E C -0.3387 -0.1838 0.2224
H21E H -0.3576 -0.1671 0.2580
H22E H -0.3336 -0.1633 0.1771
H23E H -0.3072 -0.1928 0.2538
C27E C -0.0433 -0.2951 0.4772
H24E H -0.0082 -0.3006 0.4951
H25E H -0.0571 -0.2838 0.5250
C28E C -0.0678 -0.3415 0.4472
H26E H -0.0484 -0.3530 0.4064
H27E H -0.0994 -0.3318 0.4154
C29E C -0.0794 -0.3845 0.4900
H28E H -0.0938 -0.4062 0.4460
H29E H -0.0474 -0.3981 0.5131
C30E C -0.1099 -0.3906 0.5558
H30E H -0.0875 -0.3857 0.6079
H31E H -0.1188 -0.4243 0.5545
C31E C -0.1493 -0.3681 0.5636
H32E H -0.1445 -0.3338 0.5594
H33E H -0.1765 -0.3778 0.5208
C32E C -0.1600 -0.3814 0.6500
H34E H -0.1896 -0.3654 0.6598
H35E H -0.1645 -0.4154 0.6531
H36E H -0.1326 -0.3717 0.6915
O1E O 0.04667(10) -0.05060(10) 0.22600(17)
O2E O 0.06265(11) -0.05113(11) 0.36504(18)
O3E O -0.34811(11) -0.44927(11) 0.23903(19)
O4E O -0.33300(11) -0.44977(11) 0.37790(19)
O5E O -0.2304 -0.2443 0.1928
O6E O -0.0498 -0.2599 0.4154
N1_2 N 0.09333(16) 0.0000 0.0843(3)
O3B O 0.15189(11) -0.05073(11) 0.23903(19)
O3G O 0.15189(11) 0.05073(11) 0.23903(19)
O4B O 0.16700(11) -0.05023(11) 0.37790(19)
O4G O 0.16700(11) 0.05023(11) 0.37790(19)
Zn1_2 Zn 0.097932(19) 0.0000 1.20997(3)
Zn1B Zn -0.402068(19) -0.5000 0.20997(3)
Zn1B_2 Zn -0.402068(19) 0.5000 0.20997(3)
Zn2B Zn -0.384133(19) -0.5000 0.39390(3)
Zn2B_2 Zn -0.384133(19) 0.5000 0.39390(3)
loop_
_geom_bond_atom_site_label_1
_geom_bond_atom_site_label_2
_geom_bond_site_symmetry_1
_geom_bond_site_symmetry_2
C1 C2 1_555 1_555
C2 C3 1_555 1_555
C3 H1 1_555 1_555
C4 C3 1_555 1_555
H2 C4 1_555 1_555
C5 C4 1_555 1_555
C6 C5 1_555 1_555
H3 C6 1_555 1_555
C7 C2 1_555 1_555
H4 C7 1_555 1_555
C8 H5 1_555 1_555
C9 C8 1_555 1_555
H6 C9 1_555 1_555
C10 C9 1_555 1_555
C11 C10 1_555 1_555
H7 C11 1_555 1_555
C12 C11 1_555 1_555
H8 C12 1_555 1_555
C13 C8 1_555 1_555
C14 C13 1_555 1_555
C15 H9 1_555 1_555
C16 C15 1_555 1_555
C17 C5 1_555 1_555
C18 C17 1_555 1_555
H10 C18 1_555 1_555
C19 C18 1_555 1_555
C20 C10 1_555 1_555
C21 H11 1_555 1_555
H12 C21 1_555 1_555
C22 C21 1_555 1_555
H13 C22 1_555 1_555
H14 C22 1_555 1_555
C23 C22 1_555 1_555
H15 C23 1_555 1_555
H16 C23 1_555 1_555
C24 C23 1_555 1_555
H17 C24 1_555 1_555
H18 C24 1_555 1_555
C25 C24 1_555 1_555
H19 C25 1_555 1_555
H20 C25 1_555 1_555
C26 C25 1_555 1_555
H21 C26 1_555 1_555
H22 C26 1_555 1_555
H23 C26 1_555 1_555
C27 H24 1_555 1_555
H25 C27 1_555 1_555
C28 C27 1_555 1_555
H26 C28 1_555 1_555
H27 C28 1_555 1_555
C29 C28 1_555 1_555
H28 C29 1_555 1_555
H29 C29 1_555 1_555
C30 C29 1_555 1_555
H30 C30 1_555 1_555
H31 C30 1_555 1_555
C31 C30 1_555 1_555
H32 C31 1_555 1_555
H33 C31 1_555 1_555
C32 C31 1_555 1_555
H34 C32 1_555 1_555
H35 C32 1_555 1_555
H36 C32 1_555 1_555
C33 H37 1_555 1_555
C34 C33 1_555 1_555
H38 C34 1_555 1_555
C35 C34 1_555 1_555
C36 C35 1_555 1_555
H39 C36 1_555 1_555
C37 C36 1_555 1_555
H40 C37 1_555 1_555
C38 H41 1_555 1_555
C39 C38 1_555 1_555
H42 C39 1_555 1_555
C40 C39 1_555 1_555
C41 C40 1_555 1_555
H43 C41 1_555 1_555
C42 C35 1_555 1_555
H44 C42 1_555 1_555
N1 C33 1_555 1_555
N2 C38 1_555 1_555
O1 C1 1_555 1_555
O2 C1 1_555 1_555
O3 C14 1_555 1_555
O4 C14 1_555 1_555
O5 C19 1_555 1_555
O6 C16 1_555 1_555
Zn1 O1 1_555 1_555
Zn2 N2 1_555 1_555
H43E C41 1_555 1_555
H44E C42 1_555 1_555
C38E N2 1_555 1_555
H41E C38E 1_555 1_555
C39E C40 1_555 1_555
H42E C39E 1_555 1_555
C1E C2E 1_555 1_555
C2E C3E 1_555 1_555
C3E H1E 1_555 1_555
C4E C3E 1_555 1_555
H2E C4E 1_555 1_555
C5E C4E 1_555 1_555
C6E C5E 1_555 1_555
H3E C6E 1_555 1_555
C7E C2E 1_555 1_555
H4E C7E 1_555 1_555
C8E H5E 1_555 1_555
C9E C8E 1_555 1_555
H6E C9E 1_555 1_555
C10E C9E 1_555 1_555
C11E C10E 1_555 1_555
H7E C11E 1_555 1_555
C12E C11E 1_555 1_555
H8E C12E 1_555 1_555
C13E C8E 1_555 1_555
C14E C13E 1_555 1_555
C15E H9E 1_555 1_555
C16E C15E 1_555 1_555
C17E C5E 1_555 1_555
C18E C17E 1_555 1_555
H10E C18E 1_555 1_555
C19E C18E 1_555 1_555
C20E C10E 1_555 1_555
C21E H11E 1_555 1_555
H12E C21E 1_555 1_555
C22E C21E 1_555 1_555
H13E C22E 1_555 1_555
H14E C22E 1_555 1_555
C23E C22E 1_555 1_555
H15E C23E 1_555 1_555
H16E C23E 1_555 1_555
C24E C23E 1_555 1_555
H17E C24E 1_555 1_555
H18E C24E 1_555 1_555
C25E C24E 1_555 1_555
H19E C25E 1_555 1_555
H20E C25E 1_555 1_555
C26E C25E 1_555 1_555
H21E C26E 1_555 1_555
H22E C26E 1_555 1_555
H23E C26E 1_555 1_555
C27E H24E 1_555 1_555
H25E C27E 1_555 1_555
C28E C27E 1_555 1_555
H26E C28E 1_555 1_555
H27E C28E 1_555 1_555
C29E C28E 1_555 1_555
H28E C29E 1_555 1_555
H29E C29E 1_555 1_555
C30E C29E 1_555 1_555
H30E C30E 1_555 1_555
H31E C30E 1_555 1_555
C31E C30E 1_555 1_555
H32E C31E 1_555 1_555
H33E C31E 1_555 1_555
C32E C31E 1_555 1_555
H34E C32E 1_555 1_555
H35E C32E 1_555 1_555
H36E C32E 1_555 1_555
O1E Zn1 1_555 1_555
O2E Zn2 1_555 1_555
O3E C14E 1_555 1_555
O4E C14E 1_555 1_555
O5E C19E 1_555 1_555
O6E C16E 1_555 1_555
N1_2 Zn1 1_555 1_555
O3B Zn1 1_555 1_555
O3G Zn1 1_555 1_555
O4B Zn2 1_555 1_555
O4G Zn2 1_555 1_555
Zn1_2 N1 1_555 1_555
Zn1B O3E 1_555 1_555
Zn1B_2 O3 1_555 1_555
Zn2B O4E 1_555 1_555
Zn2B_2 O4 1_555 1_555
C6 C7 1_555 1_555
C12 C13 1_555 1_555
C15 C20 1_555 1_555
C16 C17 1_555 1_555
C19 C20 1_555 1_555
C21 O5 1_555 1_555
C27 O6 1_555 1_555
C37 N1 1_555 1_555
C41 C42 1_555 1_555
O2 Zn2 1_555 1_555
C38E C39E 1_555 1_555
C1E O1E 1_555 1_555
C1E O2E 1_555 1_555
C6E C7E 1_555 1_555
C12E C13E 1_555 1_555
C15E C20E 1_555 1_555
C16E C17E 1_555 1_555
C19E C20E 1_555 1_555
C21E O5E 1_555 1_555
C27E O6E 1_555 1_555

#END
