
#######################################################################
#
#                 Cambridge Crystallographic Data Centre
#                                CCDC 
#
#######################################################################
#
# If this CIF has been generated from an entry in the Cambridge 
# Structural Database, then it will include bibliographic, chemical, 
# crystal, experimental, refinement or atomic coordinate data resulting 
# from the CCDC's data processing and validation procedures.
#
#######################################################################

data_OZASOZ
_chemical_formula_moiety         '(C76 H82 N2 O12 Zn2)n'
_symmetry_cell_setting           monoclinic
_symmetry_space_group_name_H-M   'C 2/m'
_symmetry_Int_Tables_number      12
_space_group_name_Hall           '-C 2y'
loop_
_symmetry_equiv_pos_site_id
_symmetry_equiv_pos_as_xyz
1 x,y,z
2 -x,y,-z
3 1/2+x,1/2+y,z
4 1/2-x,1/2+y,-z
5 -x,-y,-z
6 x,-y,z
7 1/2-x,1/2-y,-z
8 1/2+x,1/2-y,z
_cell_length_a                   27.2925(11)
_cell_length_b                   27.8988(12)
_cell_length_c                   16.2886(4)
_cell_angle_alpha                90
_cell_angle_beta                 100.100(2)
_cell_angle_gamma                90
_cell_volume                     12210.4
loop_
_atom_site_label
_atom_site_type_symbol
_atom_site_fract_x
_atom_site_fract_y
_atom_site_fract_z
C1 C 0.1727(3) 0.4357(3) 0.3071(5)
C2 C 0.2107(4) 0.3991(4) 0.3056(6)
C3 C 0.2383(5) 0.3801(5) 0.3793(6)
H1 H 0.2327 0.3922 0.4301
C4 C 0.2722(5) 0.3457(5) 0.3798(8)
H2 H 0.2888 0.3338 0.4305
C5 C 0.2837(5) 0.3265(5) 0.3036(9)
C6 C 0.2551(5) 0.3464(5) 0.2262(8)
H3 H 0.2592 0.3344 0.1745
C7 C 0.2232(4) 0.3817(5) 0.2313(6)
H4 H 0.2080 0.3960 0.1818
C8 C 0.4909(4) 0.1231(4) 0.3721(6)
H5 H 0.5076 0.1099 0.4217
C9 C 0.4577(5) 0.1600(5) 0.3756(7)
H6 H 0.4539 0.1729 0.4267
C10 C 0.4301(4) 0.1776(5) 0.3022(7)
C11 C 0.4391(5) 0.1596(5) 0.2291(8)
H7 H 0.4223 0.1725 0.1795
C12 C 0.4721(5) 0.1232(4) 0.2256(6)
H8 H 0.4757 0.1104 0.1743
C13 C 0.5003(3) 0.1052(3) 0.2986(6)
C14 C 0.5373(3) 0.0667(3) 0.2945(5)
C15 C 0.3206(5) 0.2877(5) 0.3009(7)
C16 C 0.3657 0.2932 0.3569
C17 C 0.4033 0.2550 0.3516
C18 C 0.3928 0.2161 0.3036
C19 C 0.3432 0.2111 0.2495
C20 C 0.2991 0.2492 0.2344
C21 C 0.2507 0.1995 0.1411
H9 H 0.2376 0.1734 0.1701
H10 H 0.2795 0.1888 0.1186
C22 C 0.2076 0.2249 0.0694
H11 H 0.2212 0.2530 0.0463
H12 H 0.1964 0.2025 0.0244
C23 C 0.1635 0.2394 0.1128
H13 H 0.1454 0.2095 0.1135
H14 H 0.1796 0.2444 0.1701
C24 C 0.1302 0.2695 0.1035
H15 H 0.1035 0.2541 0.0655
H16 H 0.1426 0.2944 0.0710
C25 C 0.1004 0.3002 0.1684
H17 H 0.1103 0.3336 0.1729
H18 H 0.0645 0.2979 0.1527
C26 C 0.1215 0.2701 0.2531
H19 H 0.1079 0.2831 0.2988
H20 H 0.1571 0.2724 0.2651
H21 H 0.1119 0.2371 0.2452
C27 C 0.4478 0.2894 0.4865
H22 H 0.4222 0.3127 0.4663
H23 H 0.4319 0.2674 0.5197
C28 C 0.4714 0.3108 0.5374
H24 H 0.4694 0.2933 0.5882
C29 C 0.4686 0.3647 0.5618
H25 H 0.4670 0.3650 0.6208
H26 H 0.5007 0.3784 0.5568
C30 C 0.4300 0.4007 0.5217
H27 H 0.4041 0.4061 0.5546
H28 H 0.4152 0.3919 0.4652
C31 C 0.4676 0.4452 0.5251
H29 H 0.5027 0.4374 0.5387
H30 H 0.4590 0.4733 0.5546
C32 C 0.4410 0.4424 0.4179
H31 H 0.4549 0.4673 0.3883
H32 H 0.4057 0.4466 0.4114
H33 H 0.4481 0.4117 0.3959
C33 C 0.1313 0.5000 0.0561
H34 H 0.1617 0.5000 0.0923
C34 C 0.1297 0.5000 -0.0515
H35 H 0.1583 0.5000 -0.0752
C35 C 0.0898 0.5000 -0.0912
C36 C 0.0492 0.5000 -0.0533
H36 H 0.0186 0.5000 -0.0889
C37 C 0.0472 0.5000 0.0303
H37 H 0.0167 0.5000 0.0483
C38 C 0.1601 0.5000 -0.4242
H38 H 0.1900 0.5000 -0.4442
C39 C 0.1601 0.5000 -0.3445
H39 H 0.1905 0.5000 -0.3081
C40 C 0.1114 0.5000 -0.3076
C41 C 0.0740 0.5000 -0.3549
H40 H 0.0439 0.5000 -0.3357
C42 C 0.0746 0.5000 -0.4546
H41 H 0.0443 0.5000 -0.4912
C43 C 0.0849 0.5000 -0.1828
H42 H 0.0527 0.5000 -0.2136
C44 C 0.1144 0.5000 -0.2166
H43 H 0.1463 0.5000 -0.1849
N1 N 0.1121(3) 0.5000 -0.4831(5)
N2 N 0.0899(3) 0.5000 0.0860(5)
O1 O 0.1652(2) 0.4498(2) 0.3780(4)
O2 O 0.1488(2) 0.4499(2) 0.2386(4)
O3 O 0.5601(2) 0.0512(2) 0.3626(3)
O4 O 0.5437(2) 0.0509(2) 0.2256(3)
O5 O 0.4471 0.2611 0.4123
O6 O 0.2603 0.2405 0.1901
Zn1 Zn 0.11386(4) 0.5000 0.39395(6)
Zn2 Zn 0.09458(4) 0.5000 0.20999(6)
C1E C 0.1727(3) 0.5643(3) 0.3071(5)
C2E C 0.2107(4) 0.6009(4) 0.3056(6)
C3E C 0.2383(5) 0.6199(5) 0.3793(6)
H1E H 0.2327 0.6078 0.4301
C4E C 0.2722(5) 0.6543(5) 0.3798(8)
H2E H 0.2888 0.6662 0.4305
C5E C 0.2837(5) 0.6735(5) 0.3036(9)
C6E C 0.2551(5) 0.6536(5) 0.2262(8)
H3E H 0.2592 0.6656 0.1745
C7E C 0.2232(4) 0.6183(5) 0.2313(6)
H4E H 0.2080 0.6040 0.1818
C8E C 0.4909(4) 0.8769(4) 0.3721(6)
H5E H 0.5076 0.8901 0.4217
C9E C 0.4577(5) 0.8400(5) 0.3756(7)
H6E H 0.4539 0.8271 0.4267
C10E C 0.4301(4) 0.8224(5) 0.3022(7)
C11E C 0.4391(5) 0.8404(5) 0.2291(8)
H7E H 0.4223 0.8275 0.1795
C12E C 0.4721(5) 0.8768(4) 0.2256(6)
H8E H 0.4757 0.8896 0.1743
C13E C 0.5003(3) 0.8948(3) 0.2986(6)
C14E C 0.5373(3) 0.9333(3) 0.2945(5)
C15E C 0.3206(5) 0.7123(5) 0.3009(7)
C16E C 0.3657 0.7068 0.3569
C17E C 0.4033 0.7450 0.3516
C18E C 0.3928 0.7839 0.3036
C19E C 0.3432 0.7889 0.2495
C20E C 0.2991 0.7508 0.2344
C21E C 0.2507 0.8005 0.1411
H9E H 0.2376 0.8266 0.1701
H10E H 0.2795 0.8112 0.1186
C22E C 0.2076 0.7751 0.0694
H11E H 0.2212 0.7470 0.0463
H12E H 0.1964 0.7975 0.0244
C23E C 0.1635 0.7606 0.1128
H13E H 0.1454 0.7905 0.1135
H14E H 0.1796 0.7556 0.1701
C24E C 0.1302 0.7305 0.1035
H15E H 0.1035 0.7459 0.0655
H16E H 0.1426 0.7056 0.0710
C25E C 0.1004 0.6998 0.1684
H17E H 0.1103 0.6664 0.1729
H18E H 0.0645 0.7021 0.1527
C26E C 0.1215 0.7299 0.2531
H19E H 0.1079 0.7169 0.2988
H20E H 0.1571 0.7276 0.2651
H21E H 0.1119 0.7629 0.2452
C27E C 0.4478 0.7106 0.4865
H22E H 0.4222 0.6873 0.4663
H23E H 0.4319 0.7326 0.5197
C28E C 0.4714 0.6892 0.5374
H24E H 0.4694 0.7067 0.5882
C29E C 0.4686 0.6353 0.5618
H25E H 0.4670 0.6350 0.6208
H26E H 0.5007 0.6216 0.5568
C30E C 0.4300 0.5993 0.5217
H27E H 0.4041 0.5939 0.5546
H28E H 0.4152 0.6081 0.4652
C31E C 0.4676 0.5548 0.5251
H29E H 0.5027 0.5626 0.5387
H30E H 0.4590 0.5267 0.5546
C32E C 0.4410 0.5576 0.4179
H31E H 0.4549 0.5327 0.3883
H32E H 0.4057 0.5534 0.4114
H33E H 0.4481 0.5883 0.3959
O1E O 0.1652(2) 0.5502(2) 0.3780(4)
O2E O 0.1488(2) 0.5501(2) 0.2386(4)
O3E O 0.5601(2) 0.9488(2) 0.3626(3)
O4E O 0.5437(2) 0.9491(2) 0.2256(3)
O5E O 0.4471 0.7389 0.4123
O6E O 0.2603 0.7595 0.1901
N1_2 N 0.1121(3) 0.5000 0.5169(5)
O3B O 0.0601(2) 0.5512(2) 0.3626(3)
O3G O 0.0601(2) 0.4488(2) 0.3626(3)
O4B O 0.0437(2) 0.5509(2) 0.2256(3)
O4G O 0.0437(2) 0.4491(2) 0.2256(3)
Zn1_2 Zn 0.11386(4) 0.5000 -0.60605(6)
Zn1B Zn 0.61386(4) 0.0000 0.39395(6)
Zn1B_2 Zn 0.61386(4) 1.0000 0.39395(6)
Zn2B Zn 0.59458(4) 0.0000 0.20999(6)
Zn2B_2 Zn 0.59458(4) 1.0000 0.20999(6)
loop_
_geom_bond_atom_site_label_1
_geom_bond_atom_site_label_2
_geom_bond_site_symmetry_1
_geom_bond_site_symmetry_2
C1 C2 1_555 1_555
C2 C3 1_555 1_555
C3 H1 1_555 1_555
C4 C3 1_555 1_555
H2 C4 1_555 1_555
C5 C4 1_555 1_555
C6 C5 1_555 1_555
H3 C6 1_555 1_555
C7 C2 1_555 1_555
H4 C7 1_555 1_555
C8 H5 1_555 1_555
C9 C8 1_555 1_555
H6 C9 1_555 1_555
C10 C9 1_555 1_555
C11 C10 1_555 1_555
H7 C11 1_555 1_555
C12 C11 1_555 1_555
H8 C12 1_555 1_555
C13 C8 1_555 1_555
C14 C13 1_555 1_555
C15 C5 1_555 1_555
C16 C15 1_555 1_555
C17 C16 1_555 1_555
C18 C10 1_555 1_555
C19 C18 1_555 1_555
C20 C15 1_555 1_555
C21 H9 1_555 1_555
H10 C21 1_555 1_555
C22 C21 1_555 1_555
H11 C22 1_555 1_555
H12 C22 1_555 1_555
C23 C22 1_555 1_555
H13 C23 1_555 1_555
H14 C23 1_555 1_555
C24 C23 1_555 1_555
H15 C24 1_555 1_555
H16 C24 1_555 1_555
C25 C24 1_555 1_555
H17 C25 1_555 1_555
H18 C25 1_555 1_555
C26 C25 1_555 1_555
H19 C26 1_555 1_555
H20 C26 1_555 1_555
H21 C26 1_555 1_555
C27 H22 1_555 1_555
H23 C27 1_555 1_555
C28 C27 1_555 1_555
H24 C28 1_555 1_555
C29 C28 1_555 1_555
H25 C29 1_555 1_555
H26 C29 1_555 1_555
C30 C29 1_555 1_555
H27 C30 1_555 1_555
H28 C30 1_555 1_555
C31 C30 1_555 1_555
H29 C31 1_555 1_555
H30 C31 1_555 1_555
C32 C31 1_555 1_555
H31 C32 1_555 1_555
H32 C32 1_555 1_555
H33 C32 1_555 1_555
C33 H34 1_555 1_555
C34 C33 1_555 1_555
H35 C34 1_555 1_555
C35 C34 1_555 1_555
C36 C35 1_555 1_555
H36 C36 1_555 1_555
C37 C36 1_555 1_555
H37 C37 1_555 1_555
C38 H38 1_555 1_555
C39 C38 1_555 1_555
H39 C39 1_555 1_555
C40 C39 1_555 1_555
C41 C40 1_555 1_555
H40 C41 1_555 1_555
C42 C41 1_555 1_555
H41 C42 1_555 1_555
C43 C35 1_555 1_555
H42 C43 1_555 1_555
C44 C40 1_555 1_555
H43 C44 1_555 1_555
N1 C38 1_555 1_555
N2 C33 1_555 1_555
O1 C1 1_555 1_555
O2 C1 1_555 1_555
O3 C14 1_555 1_555
O4 C14 1_555 1_555
O5 C17 1_555 1_555
O6 C20 1_555 1_555
Zn1 O1 1_555 1_555
Zn2 N2 1_555 1_555
C1E C2E 1_555 1_555
C2E C3E 1_555 1_555
C3E H1E 1_555 1_555
C4E C3E 1_555 1_555
H2E C4E 1_555 1_555
C5E C4E 1_555 1_555
C6E C5E 1_555 1_555
H3E C6E 1_555 1_555
C7E C2E 1_555 1_555
H4E C7E 1_555 1_555
C8E H5E 1_555 1_555
C9E C8E 1_555 1_555
H6E C9E 1_555 1_555
C10E C9E 1_555 1_555
C11E C10E 1_555 1_555
H7E C11E 1_555 1_555
C12E C11E 1_555 1_555
H8E C12E 1_555 1_555
C13E C8E 1_555 1_555
C14E C13E 1_555 1_555
C15E C5E 1_555 1_555
C16E C15E 1_555 1_555
C17E C16E 1_555 1_555
C18E C10E 1_555 1_555
C19E C18E 1_555 1_555
C20E C15E 1_555 1_555
C21E H9E 1_555 1_555
H10E C21E 1_555 1_555
C22E C21E 1_555 1_555
H11E C22E 1_555 1_555
H12E C22E 1_555 1_555
C23E C22E 1_555 1_555
H13E C23E 1_555 1_555
H14E C23E 1_555 1_555
C24E C23E 1_555 1_555
H15E C24E 1_555 1_555
H16E C24E 1_555 1_555
C25E C24E 1_555 1_555
H17E C25E 1_555 1_555
H18E C25E 1_555 1_555
C26E C25E 1_555 1_555
H19E C26E 1_555 1_555
H20E C26E 1_555 1_555
H21E C26E 1_555 1_555
C27E H22E 1_555 1_555
H23E C27E 1_555 1_555
C28E C27E 1_555 1_555
H24E C28E 1_555 1_555
C29E C28E 1_555 1_555
H25E C29E 1_555 1_555
H26E C29E 1_555 1_555
C30E C29E 1_555 1_555
H27E C30E 1_555 1_555
H28E C30E 1_555 1_555
C31E C30E 1_555 1_555
H29E C31E 1_555 1_555
H30E C31E 1_555 1_555
C32E C31E 1_555 1_555
H31E C32E 1_555 1_555
H32E C32E 1_555 1_555
H33E C32E 1_555 1_555
O1E Zn1 1_555 1_555
O2E Zn2 1_555 1_555
O3E C14E 1_555 1_555
O4E C14E 1_555 1_555
O5E C17E 1_555 1_555
O6E C20E 1_555 1_555
N1_2 Zn1 1_555 1_555
O3B Zn1 1_555 1_555
O3G Zn1 1_555 1_555
O4B Zn2 1_555 1_555
O4G Zn2 1_555 1_555
Zn1_2 N1 1_555 1_555
Zn1B O3 1_555 1_555
Zn1B_2 O3E 1_555 1_555
Zn2B O4 1_555 1_555
Zn2B_2 O4E 1_555 1_555
C6 C7 1_555 1_555
C12 C13 1_555 1_555
C17 C18 1_555 1_555
C19 C20 1_555 1_555
C21 O6 1_555 1_555
C27 O5 1_555 1_555
C37 N2 1_555 1_555
C42 N1 1_555 1_555
C43 C44 1_555 1_555
O2 Zn2 1_555 1_555
C1E O1E 1_555 1_555
C1E O2E 1_555 1_555
C6E C7E 1_555 1_555
C12E C13E 1_555 1_555
C17E C18E 1_555 1_555
C19E C20E 1_555 1_555
C21E O6E 1_555 1_555
C27E O5E 1_555 1_555

#END
