
#######################################################################
#
#                 Cambridge Crystallographic Data Centre
#                                CCDC 
#
#######################################################################
#
# If this CIF has been generated from an entry in the Cambridge 
# Structural Database, then it will include bibliographic, chemical, 
# crystal, experimental, refinement or atomic coordinate data resulting 
# from the CCDC's data processing and validation procedures.
#
#######################################################################

data_IMAGAG
_chemical_formula_moiety         '(C24 H32 N4 O10 S2 Zn1)n'
_symmetry_cell_setting           monoclinic
_symmetry_space_group_name_H-M   'C c'
_symmetry_Int_Tables_number      9
_space_group_name_Hall           'C -2yc'
loop_
_symmetry_equiv_pos_site_id
_symmetry_equiv_pos_as_xyz
1 x,y,z
2 x,-y,1/2+z
3 1/2+x,1/2+y,z
4 1/2+x,1/2-y,1/2+z
_cell_length_a                   9.434(7)
_cell_length_b                   16.599(12)
_cell_length_c                   18.562(13)
_cell_angle_alpha                90
_cell_angle_beta                 97.731(13)
_cell_angle_gamma                90
_cell_volume                     2880.3
loop_
_atom_site_label
_atom_site_type_symbol
_atom_site_fract_x
_atom_site_fract_y
_atom_site_fract_z
_atom_site_U_iso_or_equiv
_atom_site_thermal_displace_type
Zn1 Zn 0.33820(3) 0.03687(2) -0.01679(2) 0.0248 Uani
C1 C 0.4596(5) 0.1064(3) 0.1249(2) 0.0410 Uani
H1 H 0.5532 0.0818 0.1262 0.0490 Uiso
H2 H 0.4487 0.1239 0.1737 0.0490 Uiso
C2 C 0.4474(5) 0.1778(2) 0.0741(2) 0.0403 Uani
H3 H 0.3554 0.2036 0.0748 0.0480 Uiso
H4 H 0.5214 0.2166 0.0908 0.0480 Uiso
C3 C 0.4236(5) 0.2201(2) -0.0530(2) 0.0384 Uani
H5 H 0.3256 0.2362 -0.0505 0.0460 Uiso
H6 H 0.4286 0.2003 -0.1018 0.0460 Uiso
C4 C 0.5203(4) 0.2940(2) -0.0394(2) 0.0331 Uani
C5 C 0.4798(5) 0.3629(3) -0.0095(3) 0.0456 Uani
H7 H 0.3901 0.3662 0.0058 0.0540 Uiso
C6 C 0.5709(5) 0.4293(3) -0.0014(3) 0.0419 Uani
H8 H 0.5388 0.4763 0.0185 0.0500 Uiso
C7 C 0.6559(6) 0.2934(3) -0.0606(4) 0.0667 Uani
H9 H 0.6897 0.2476 -0.0816 0.0800 Uiso
C8 C 0.7396(6) 0.3612(3) -0.0502(4) 0.0666 Uani
H10 H 0.8300 0.3594 -0.0649 0.0800 Uiso
C9 C 0.3688(6) -0.0305(2) 0.1386(2) 0.0357 Uani
H11 H 0.4613 -0.0519 0.1309 0.0430 Uiso
H12 H 0.2965 -0.0682 0.1174 0.0430 Uiso
C10 C 0.3632(5) -0.0265(2) 0.2195(2) 0.0294 Uani
C11 C 0.4769(5) -0.0522(3) 0.2679(2) 0.0400 Uani
H13 H 0.5602 -0.0700 0.2513 0.0480 Uiso
C12 C 0.4668(5) -0.0514(3) 0.3411(2) 0.0398 Uani
H14 H 0.5461 -0.0678 0.3730 0.0480 Uiso
C13 C 0.2448(5) -0.0017(4) 0.2479(2) 0.0536 Uani
H15 H 0.1659 0.0174 0.2171 0.0640 Uiso
C14 C 0.2408(5) -0.0046(3) 0.3218(2) 0.0473 Uani
H16 H 0.1572 0.0110 0.3394 0.0570 Uiso
N1 N 0.3468(4) 0.0466(2) 0.09931(19) 0.0269 Uani
H17 H 0.2617 0.0671 0.1086 0.0320 Uiso
N2 N 0.4617(3) 0.15344(18) -0.00059(16) 0.0275 Uani
H18 H 0.5555 0.1415 -0.0018 0.0330 Uiso
N3 N 0.3505(4) -0.0286(2) 0.3688(2) 0.0292 Uani
N4 N 0.7011(4) 0.4287(2) -0.02074(19) 0.0311 Uani
O1 O 0.5411(3) -0.03045(18) -0.00315(17) 0.0411 Uani
H19 H 0.5484 -0.0600 0.0346 0.0490 Uiso
H20 H 0.6126 0.0012 -0.0002 0.0490 Uiso
O2 O 0.1509(3) 0.11143(17) -0.03601(15) 0.0349 Uani
H21 H 0.1041 0.1084 0.0000 0.0420 Uiso
H22 H 0.0974 0.0951 -0.0737 0.0420 Uiso
Zn1A Zn 0.33820(3) -0.03687(2) 0.48321(2) 0.0248 Uani
Zn1B Zn 0.83820(3) 0.53687(2) -0.01679(2) 0.0248 Uani
N3A N 0.3505(4) 0.0286(2) -0.1312(2) 0.0292 Uani
N4B N 0.2011(4) -0.0713(2) -0.02074(19) 0.0311 Uani
S1 S 1.00883(16) 0.17916(9) 0.12242(9) 0.0612 Uani
S2 S 0.37188(12) 0.37475(7) 0.30010(6) 0.0406 Uani
C15 C 0.7903(5) 0.2386(3) 0.1884(2) 0.0387 Uani
H23 H 0.7884 0.2808 0.1553 0.0460 Uiso
C16 C 0.8853(5) 0.1768(3) 0.1868(3) 0.0426 Uani
C17 C 0.8876(6) 0.1116(3) 0.2358(3) 0.0566 Uani
H24 H 0.9494 0.0686 0.2322 0.0680 Uiso
C18 C 0.8004(6) 0.1116(3) 0.2878(3) 0.0527 Uani
H25 H 0.8066 0.0698 0.3215 0.0630 Uiso
C19 C 0.6998(5) 0.1740(2) 0.2922(2) 0.0363 Uani
C20 C 0.6062(5) 0.1744(3) 0.3457(3) 0.0475 Uani
H26 H 0.6116 0.1333 0.3800 0.0570 Uiso
C21 C 0.5082(5) 0.2346(3) 0.3473(3) 0.0469 Uani
H27 H 0.4473 0.2347 0.3828 0.0560 Uiso
C22 C 0.4999(4) 0.2963(3) 0.2951(2) 0.0350 Uani
C23 C 0.5884(4) 0.2986(2) 0.2443(2) 0.0356 Uani
H28 H 0.5810 0.3403 0.2105 0.0430 Uiso
C24 C 0.6932(4) 0.2377(2) 0.2418(2) 0.0329 Uani
O3 O 0.9916(5) 0.1039(3) 0.0835(3) 0.0838 Uani
O4 O 0.9748(7) 0.2462(4) 0.0770(3) 0.1153 Uani
O5 O 1.1491(5) 0.1824(4) 0.1616(3) 0.1080 Uani
O6 O 0.3536(4) 0.4142(2) 0.23062(19) 0.0582 Uani
O7 O 0.4343(4) 0.4269(3) 0.3583(2) 0.0688 Uani
O8 O 0.2438(4) 0.3370(3) 0.3190(3) 0.0772 Uani
O9 O 0.7515(4) 0.0759(3) -0.0228(2) 0.0692 Uiso
H29 H 0.8150 0.0843 0.0134 0.0830 Uiso
H30 H 0.7927 0.0737 -0.0608 0.0830 Uiso
O10 O 0.6910(5) -0.1282(3) 0.0963(2) 0.0740 Uiso
H31 H 0.6307 -0.1661 0.0972 0.0890 Uiso
H32 H 0.7333 -0.1208 0.1392 0.0890 Uiso
loop_
_atom_site_aniso_label
_atom_site_aniso_U_11
_atom_site_aniso_U_22
_atom_site_aniso_U_33
_atom_site_aniso_U_23
_atom_site_aniso_U_13
_atom_site_aniso_U_12
Zn1 0.0299(2) 0.02712(18) 0.01847(16) -0.00122(18) 0.00705(13) -0.00559(19)
C1 0.046(2) 0.052(3) 0.0235(19) -0.0032(18) -0.0005(18) -0.020(2)
C2 0.059(3) 0.034(2) 0.029(2) -0.0100(16) 0.010(2) -0.018(2)
C3 0.044(2) 0.032(2) 0.038(2) 0.0040(17) 0.0010(19) -0.0123(18)
C4 0.039(2) 0.0242(19) 0.036(2) 0.0020(16) 0.0043(18) -0.0101(16)
C5 0.036(2) 0.034(2) 0.070(3) -0.004(2) 0.019(2) -0.0045(18)
C6 0.040(2) 0.034(2) 0.056(3) -0.009(2) 0.022(2) -0.0043(18)
C7 0.063(3) 0.032(2) 0.116(5) -0.028(3) 0.052(4) -0.017(2)
C8 0.050(3) 0.034(2) 0.128(5) -0.027(3) 0.057(3) -0.015(2)
C9 0.057(3) 0.032(2) 0.0191(18) 0.0034(15) 0.0083(19) 0.0018(18)
C10 0.033(2) 0.034(2) 0.0220(18) 0.0052(14) 0.0062(16) 0.0025(16)
C11 0.031(2) 0.061(3) 0.030(2) 0.0061(19) 0.0112(17) 0.0207(19)
C12 0.030(2) 0.064(3) 0.0252(19) 0.0057(18) 0.0035(17) 0.0200(19)
C13 0.039(3) 0.099(4) 0.023(2) 0.014(2) 0.0051(19) 0.035(3)
C14 0.037(2) 0.079(4) 0.028(2) 0.009(2) 0.0122(19) 0.026(2)
N1 0.0312(18) 0.0322(17) 0.0176(17) 0.0017(13) 0.0045(14) -0.0035(13)
N2 0.0292(16) 0.0270(16) 0.0268(16) 0.0028(12) 0.0053(13) -0.0084(13)
N3 0.0299(18) 0.0358(19) 0.0241(19) 0.0088(13) 0.0118(16) 0.0091(14)
N4 0.0347(18) 0.0259(16) 0.0355(18) -0.0033(13) 0.0147(15) -0.0076(14)
O1 0.0374(17) 0.0515(19) 0.0376(17) 0.0082(14) 0.0162(14) 0.0064(14)
O2 0.0319(15) 0.0417(16) 0.0312(14) -0.0011(12) 0.0050(12) -0.0030(12)
Zn1A 0.0299 0.02712 0.01847 0.00122 0.00705 0.00559
Zn1B 0.0299 0.02712 0.01847 -0.00122 0.00705 -0.00559
N3A 0.0299 0.0358 0.0241 -0.0088 0.0118 -0.0091
N4B 0.0347 0.0259 0.0355 -0.0033 0.0147 -0.0076
S1 0.0554(8) 0.0642(8) 0.0706(9) -0.0160(7) 0.0325(7) 0.0021(7)
S2 0.0359(5) 0.0447(6) 0.0415(6) 0.0028(5) 0.0064(4) 0.0181(5)
C15 0.041(2) 0.033(2) 0.046(2) -0.0046(18) 0.020(2) 0.0006(18)
C16 0.038(2) 0.044(2) 0.049(3) -0.010(2) 0.018(2) 0.004(2)
C17 0.050(3) 0.049(3) 0.075(4) -0.001(3) 0.024(3) 0.023(2)
C18 0.060(3) 0.039(3) 0.063(3) 0.012(2) 0.023(3) 0.021(2)
C19 0.038(2) 0.030(2) 0.042(2) 0.0001(17) 0.0089(19) 0.0051(17)
C20 0.051(3) 0.040(2) 0.056(3) 0.016(2) 0.024(2) 0.014(2)
C21 0.048(3) 0.044(2) 0.054(3) 0.015(2) 0.026(2) 0.016(2)
C22 0.033(2) 0.035(2) 0.038(2) 0.0011(17) 0.0082(18) 0.0075(17)
C23 0.038(2) 0.033(2) 0.036(2) 0.0017(17) 0.0056(18) 0.0047(17)
C24 0.0327(19) 0.0272(19) 0.039(2) -0.0046(16) 0.0056(17) 0.0038(16)
O3 0.090(3) 0.078(3) 0.093(3) -0.037(3) 0.047(3) -0.008(2)
O4 0.129(5) 0.115(4) 0.121(4) 0.050(4) 0.086(4) 0.041(4)
O5 0.052(3) 0.165(5) 0.113(4) -0.043(4) 0.033(3) -0.025(3)
O6 0.074(2) 0.057(2) 0.0441(19) 0.0125(16) 0.0101(18) 0.0304(19)
O7 0.065(2) 0.073(3) 0.062(2) -0.022(2) -0.0153(19) 0.041(2)
O8 0.0403(19) 0.079(3) 0.118(4) 0.034(3) 0.031(2) 0.022(2)
loop_
_geom_bond_atom_site_label_1
_geom_bond_atom_site_label_2
_geom_bond_site_symmetry_1
_geom_bond_site_symmetry_2
Zn1 N1 1_555 1_555
C1 H1 1_555 1_555
H2 C1 1_555 1_555
C2 C1 1_555 1_555
H3 C2 1_555 1_555
H4 C2 1_555 1_555
C3 H5 1_555 1_555
H6 C3 1_555 1_555
C4 C3 1_555 1_555
C5 C4 1_555 1_555
H7 C5 1_555 1_555
C6 C5 1_555 1_555
H8 C6 1_555 1_555
C7 C4 1_555 1_555
H9 C7 1_555 1_555
C8 C7 1_555 1_555
H10 C8 1_555 1_555
C9 H11 1_555 1_555
H12 C9 1_555 1_555
C10 C9 1_555 1_555
C11 C10 1_555 1_555
H13 C11 1_555 1_555
C12 C11 1_555 1_555
H14 C12 1_555 1_555
C13 C10 1_555 1_555
H15 C13 1_555 1_555
C14 C13 1_555 1_555
H16 C14 1_555 1_555
N1 C1 1_555 1_555
H17 N1 1_555 1_555
N2 Zn1 1_555 1_555
H18 N2 1_555 1_555
N3 C12 1_555 1_555
N4 C6 1_555 1_555
O1 Zn1 1_555 1_555
H19 O1 1_555 1_555
H20 O1 1_555 1_555
O2 Zn1 1_555 1_555
H21 O2 1_555 1_555
H22 O2 1_555 1_555
S1 C16 1_555 1_555
S2 C22 1_555 1_555
C15 H23 1_555 1_555
C16 C15 1_555 1_555
C17 C16 1_555 1_555
H24 C17 1_555 1_555
C18 C17 1_555 1_555
H25 C18 1_555 1_555
C19 C18 1_555 1_555
C20 C19 1_555 1_555
H26 C20 1_555 1_555
C21 C20 1_555 1_555
H27 C21 1_555 1_555
C22 C21 1_555 1_555
C23 C22 1_555 1_555
H28 C23 1_555 1_555
C24 C15 1_555 1_555
O3 S1 1_555 1_555
O4 S1 1_555 1_555
O5 S1 1_555 1_555
O6 S2 1_555 1_555
O7 S2 1_555 1_555
O8 S2 1_555 1_555
O9 H29 1_555 1_555
H30 O9 1_555 1_555
O10 H31 1_555 1_555
H32 O10 1_555 1_555
Zn1A N3 1_555 1_555
Zn1B N4 1_555 1_555
N3A Zn1 1_555 1_555
N4B Zn1 1_555 1_555
C2 N2 1_555 1_555
C3 N2 1_555 1_555
C8 N4 1_555 1_555
C9 N1 1_555 1_555
C14 N3 1_555 1_555
C19 C24 1_555 1_555
C23 C24 1_555 1_555

#END
