
#######################################################################
#
#                 Cambridge Crystallographic Data Centre
#                                CCDC 
#
#######################################################################
#
# If this CIF has been generated from an entry in the Cambridge 
# Structural Database, then it will include bibliographic, chemical, 
# crystal, experimental, refinement or atomic coordinate data resulting 
# from the CCDC's data processing and validation procedures.
#
#######################################################################

data_NIXKIQ
_chemical_formula_moiety         'C58 H31 O30 Zn9'
_symmetry_cell_setting           orthorhombic
_symmetry_space_group_name_H-M   'P n m a'
_symmetry_Int_Tables_number      62
_space_group_name_Hall           '-P 2ac 2n'
loop_
_symmetry_equiv_pos_site_id
_symmetry_equiv_pos_as_xyz
1 x,y,z
2 1/2-x,-y,1/2+z
3 1/2+x,1/2-y,1/2-z
4 -x,1/2+y,-z
5 -x,-y,-z
6 1/2+x,y,1/2-z
7 1/2-x,1/2+y,1/2+z
8 x,1/2-y,z
_cell_length_a                   17.2270(5)
_cell_length_b                   23.5944(8)
_cell_length_c                   23.7271(6)
_cell_angle_alpha                90
_cell_angle_beta                 90
_cell_angle_gamma                90
_cell_volume                     9644.13
loop_
_atom_site_label
_atom_site_type_symbol
_atom_site_fract_x
_atom_site_fract_y
_atom_site_fract_z
Zn1 Zn 0.88824(5) 0.7500 0.18756(4)
Zn2 Zn 0.50037(3) 0.32867(3) 0.61003(3)
C1 C 0.6588(3) 0.3333(3) 0.5911(2)
C2 C 0.7294(3) 0.3553(3) 0.5614(2)
C3 C 0.8004(3) 0.3586(3) 0.5896(3)
H1 H 0.8040 0.3462 0.6271
C4 C 0.8648(3) 0.3799(3) 0.5632(3)
H2 H 0.9115 0.3826 0.5835
C5 C 0.8635(3) 0.3974(3) 0.5083(2)
C6 C 0.7922(3) 0.3951(3) 0.4803(3)
H3 H 0.7890 0.4071 0.4426
C7 C 0.7254(3) 0.3751(3) 0.5075(3)
H4 H 0.6776 0.3753 0.4885
C8 C 0.9342(3) 0.4189(3) 0.4789(2)
C9 C 1.0074(3) 0.4008(3) 0.4968(2)
H5 H 1.0113 0.3741 0.5260
C10 C 1.0750(3) 0.4219(3) 0.4716(2)
C11 C 1.0681(3) 0.4587(3) 0.4261(2)
H6 H 1.1131 0.4712 0.4075
C12 C 0.9952(3) 0.4776(3) 0.4075(2)
C13 C 0.9296(3) 0.4571(3) 0.4348(2)
H7 H 0.8805 0.4695 0.4229
C14 C 0.9888(3) 0.5187(3) 0.3610(2)
C15 C 0.9339(3) 0.5610(3) 0.3623(2)
H8 H 0.8997 0.5628 0.3931
C16 C 0.9272(3) 0.6013(3) 0.3200(2)
H9 H 0.8899 0.6303 0.3225
C17 C 0.9769(3) 0.5979(3) 0.2734(2)
C18 C 1.0309(3) 0.5547(4) 0.2714(3)
H10 H 1.0633 0.5512 0.2397
C19 C 1.0380(3) 0.5168(4) 0.3146(3)
H11 H 1.0769 0.4890 0.3130
C20 C 0.9686(3) 0.6416(4) 0.2269(2)
C21 C 1.1564(10) 0.4141(8) 0.4936(12)
C22 C 1.2165(11) 0.4530(8) 0.4915(13)
H12 H 1.2075 0.4885 0.4747
C23 C 1.2895(10) 0.4414(6) 0.5132(10)
H13 H 1.3286 0.4691 0.5122
C24 C 1.3045(10) 0.3889(6) 0.5363(8)
C25 C 1.2471(8) 0.3486(7) 0.5333(7)
H14 H 1.2581 0.3118 0.5460
C26 C 1.1730(8) 0.3601(8) 0.5123(9)
H15 H 1.1352 0.3314 0.5108
C27 C 1.3853(15) 0.3759(10) 0.5594(7)
O1 O 0.6672(2) 0.3109(2) 0.63782(17)
O2 O 0.5946(2) 0.3394(2) 0.56577(16)
O3 O 0.9333(2) 0.6864(2) 0.23765(15)
O4 O 1.0001(2) 0.6273(2) 0.18013(17)
O5 O 1.4326(6) 0.4141(5) 0.5661(5)
O6 O 1.3980(9) 0.3251(5) 0.5720(5)
O7 O 0.7951(3) 0.7500 0.2438(2)
O8 O 0.5070(2) 0.2500 0.63990(18)
H16 H 0.4728 0.2500 0.6652
C28 C 0.7492(10) 0.8311(6) 0.3005(6)
C29 C 0.7460(10) 0.8023(6) 0.2512(6)
O9 O 0.719(2) 0.8626(15) 0.2698(14)
O10 O 0.7197(17) 0.8196(12) 0.3060(11)
O11 O 0.681(3) 0.835(2) 0.253(2)
C28G C 0.7492(10) 0.6689(6) 0.3005(6)
C29G C 0.7460(10) 0.6977(6) 0.2512(6)
O9G O 0.719(2) 0.6374(15) 0.2698(14)
O10G O 0.7197(17) 0.6804(12) 0.3060(11)
O11G O 0.681(3) 0.665(2) 0.253(2)
Zn2G Zn 0.50037(3) 0.17133(3) 0.61003(3)
C1G C 0.6588(3) 0.1667(3) 0.5911(2)
C2G C 0.7294(3) 0.1447(3) 0.5614(2)
C3G C 0.8004(3) 0.1414(3) 0.5896(3)
H1G H 0.8040 0.1538 0.6271
C4G C 0.8648(3) 0.1201(3) 0.5632(3)
H2G H 0.9115 0.1174 0.5835
C5G C 0.8635(3) 0.1026(3) 0.5083(2)
C6G C 0.7922(3) 0.1049(3) 0.4803(3)
H3G H 0.7890 0.0929 0.4426
C7G C 0.7254(3) 0.1249(3) 0.5075(3)
H4G H 0.6776 0.1247 0.4885
C8G C 0.9342(3) 0.0811(3) 0.4789(2)
C9G C 1.0074(3) 0.0992(3) 0.4968(2)
H5G H 1.0113 0.1259 0.5260
C10G C 1.0750(3) 0.0781(3) 0.4716(2)
C11G C 1.0681(3) 0.0413(3) 0.4261(2)
H6G H 1.1131 0.0288 0.4075
C12G C 0.9952(3) 0.0224(3) 0.4075(2)
C13G C 0.9296(3) 0.0429(3) 0.4348(2)
H7G H 0.8805 0.0305 0.4229
C14G C 0.9888(3) -0.0187(3) 0.3610(2)
C15G C 0.9339(3) -0.0610(3) 0.3623(2)
H8G H 0.8997 -0.0628 0.3931
C16G C 0.9272(3) -0.1013(3) 0.3200(2)
H9G H 0.8899 -0.1303 0.3225
C17G C 0.9769(3) -0.0979(3) 0.2734(2)
C18G C 1.0309(3) -0.0547(4) 0.2714(3)
H10G H 1.0633 -0.0512 0.2397
C19G C 1.0380(3) -0.0168(4) 0.3146(3)
H11G H 1.0769 0.0110 0.3130
C20G C 0.9686(3) -0.1416(4) 0.2269(2)
C21G C 1.1564(10) 0.0859(8) 0.4936(12)
C22G C 1.2165(11) 0.0470(8) 0.4915(13)
H12G H 1.2075 0.0115 0.4747
C23G C 1.2895(10) 0.0586(6) 0.5132(10)
H13G H 1.3286 0.0309 0.5122
C24G C 1.3045(10) 0.1111(6) 0.5363(8)
C25G C 1.2471(8) 0.1514(7) 0.5333(7)
H14G H 1.2581 0.1882 0.5460
C26G C 1.1730(8) 0.1399(8) 0.5123(9)
H15G H 1.1352 0.1686 0.5108
C27G C 1.3853(15) 0.1241(10) 0.5594(7)
O1G O 0.6672(2) 0.1891(2) 0.63782(17)
O2G O 0.5946(2) 0.1606(2) 0.56577(16)
O3G O 0.9333(2) -0.1864(2) 0.23765(15)
O4G O 1.0001(2) -0.1273(2) 0.18013(17)
O5G O 1.4326(6) 0.0859(5) 0.5661(5)
O6G O 1.3980(9) 0.1749(5) 0.5720(5)
Zn1_2 Zn 0.88824(5) -0.2500 0.18756(4)
Zn1A Zn 0.61176(5) 0.2500 0.68756(4)
Zn2_2 Zn 1.50037(3) 0.32867(3) 0.61003(3)
Zn2A Zn 0.99963(3) 0.67133(3) 0.11003(3)
Zn2F Zn 0.99963(3) -0.17133(3) 0.11003(3)
Zn2G_2 Zn 1.50037(3) 0.17133(3) 0.61003(3)
O1A O 0.8328(2) 0.6891(2) 0.13782(17)
O1F O 0.8328(2) 0.8109(2) 0.13782(17)
O3G_2 O 0.9333(2) 0.8136(2) 0.23765(15)
O4A O 0.4999(2) 0.3727(2) 0.68013(17)
O4F O 0.4999(2) 0.1273(2) 0.68013(17)
O5_2 O 0.4326(6) 0.4141(5) 0.5661(5)
O5G_2 O 0.4326(6) 0.0859(5) 0.5661(5)
O6_2 O 0.3980(9) 0.3251(5) 0.5720(5)
O6G_2 O 0.3980(9) 0.1749(5) 0.5720(5)
O8A O 0.9930(2) 0.7500 0.13990(18)
loop_
_geom_bond_atom_site_label_1
_geom_bond_atom_site_label_2
_geom_bond_site_symmetry_1
_geom_bond_site_symmetry_2
Zn1 O3 1_555 1_555
Zn2 O2 1_555 1_555
C1 C2 1_555 1_555
C2 C3 1_555 1_555
C3 H1 1_555 1_555
C4 C3 1_555 1_555
H2 C4 1_555 1_555
C5 C4 1_555 1_555
C6 C5 1_555 1_555
H3 C6 1_555 1_555
C7 C2 1_555 1_555
H4 C7 1_555 1_555
C8 C5 1_555 1_555
C9 C8 1_555 1_555
H5 C9 1_555 1_555
C10 C9 1_555 1_555
C11 C10 1_555 1_555
H6 C11 1_555 1_555
C12 C11 1_555 1_555
C13 C8 1_555 1_555
H7 C13 1_555 1_555
C14 C12 1_555 1_555
C15 C14 1_555 1_555
H8 C15 1_555 1_555
C16 C15 1_555 1_555
H9 C16 1_555 1_555
C17 C16 1_555 1_555
C18 C17 1_555 1_555
H10 C18 1_555 1_555
C19 C14 1_555 1_555
H11 C19 1_555 1_555
C20 C17 1_555 1_555
C21 C10 1_555 1_555
C22 C21 1_555 1_555
H12 C22 1_555 1_555
C23 C22 1_555 1_555
H13 C23 1_555 1_555
C24 C23 1_555 1_555
C25 C24 1_555 1_555
H14 C25 1_555 1_555
C26 C21 1_555 1_555
H15 C26 1_555 1_555
C27 C24 1_555 1_555
O1 C1 1_555 1_555
O2 C1 1_555 1_555
O3 C20 1_555 1_555
O4 C20 1_555 1_555
O5 C27 1_555 1_555
O6 C27 1_555 1_555
O7 Zn1 1_555 1_555
O8 Zn2 1_555 1_555
H16 O8 1_555 1_555
C28 C29 1_555 1_555
C29 O7 1_555 1_555
O9 C28 1_555 1_555
O10 C28 1_555 1_555
O11 C28 1_555 1_555
C28G C29G 1_555 1_555
C29G O7 1_555 1_555
O9G C28G 1_555 1_555
O10G C28G 1_555 1_555
O11G C28G 1_555 1_555
Zn2G O8 1_555 1_555
C1G C2G 1_555 1_555
C2G C3G 1_555 1_555
C3G H1G 1_555 1_555
C4G C3G 1_555 1_555
H2G C4G 1_555 1_555
C5G C4G 1_555 1_555
C6G C5G 1_555 1_555
H3G C6G 1_555 1_555
C7G C2G 1_555 1_555
H4G C7G 1_555 1_555
C8G C5G 1_555 1_555
C9G C8G 1_555 1_555
H5G C9G 1_555 1_555
C10G C9G 1_555 1_555
C11G C10G 1_555 1_555
H6G C11G 1_555 1_555
C12G C11G 1_555 1_555
C13G C8G 1_555 1_555
H7G C13G 1_555 1_555
C14G C12G 1_555 1_555
C15G C14G 1_555 1_555
H8G C15G 1_555 1_555
C16G C15G 1_555 1_555
H9G C16G 1_555 1_555
C17G C16G 1_555 1_555
C18G C17G 1_555 1_555
H10G C18G 1_555 1_555
C19G C14G 1_555 1_555
H11G C19G 1_555 1_555
C20G C17G 1_555 1_555
C21G C10G 1_555 1_555
C22G C21G 1_555 1_555
H12G C22G 1_555 1_555
C23G C22G 1_555 1_555
H13G C23G 1_555 1_555
C24G C23G 1_555 1_555
C25G C24G 1_555 1_555
H14G C25G 1_555 1_555
C26G C21G 1_555 1_555
H15G C26G 1_555 1_555
C27G C24G 1_555 1_555
O1G C1G 1_555 1_555
O2G Zn2G 1_555 1_555
O3G C20G 1_555 1_555
O4G C20G 1_555 1_555
O5G C27G 1_555 1_555
O6G C27G 1_555 1_555
Zn1_2 O3G 1_555 1_555
Zn1A O1 1_555 1_555
Zn2_2 O5 1_555 1_555
Zn2A O4 1_555 1_555
Zn2F O4G 1_555 1_555
Zn2G_2 O5G 1_555 1_555
O1A Zn1 1_555 1_555
O1F Zn1 1_555 1_555
O3G_2 Zn1 1_555 1_555
O4A Zn2 1_555 1_555
O4F Zn2G 1_555 1_555
O5_2 Zn2 1_555 1_555
O5G_2 Zn2G 1_555 1_555
O6_2 Zn2 1_555 1_555
O6G_2 Zn2G 1_555 1_555
O8A Zn1 1_555 1_555
C6 C7 1_555 1_555
C12 C13 1_555 1_555
C18 C19 1_555 1_555
C25 C26 1_555 1_555
O6 Zn2_2 1_555 1_555
O8 Zn1A 1_555 1_555
C29 O9 1_555 1_555
C29 O10 1_555 1_555
C29 O11 1_555 1_555
O9 O10 1_555 1_555
O9 O11 1_555 1_555
O10 O11 1_555 1_555
C29G O9G 1_555 1_555
C29G O10G 1_555 1_555
C29G O11G 1_555 1_555
O9G O10G 1_555 1_555
O9G O11G 1_555 1_555
O10G O11G 1_555 1_555
C1G O2G 1_555 1_555
C6G C7G 1_555 1_555
C12G C13G 1_555 1_555
C18G C19G 1_555 1_555
C25G C26G 1_555 1_555
O1G Zn1A 1_555 1_555
O6G Zn2G_2 1_555 1_555
Zn2A O8A 1_555 1_555

#END
