
#######################################################################
#
#                 Cambridge Crystallographic Data Centre
#                                CCDC 
#
#######################################################################
#
# If this CIF has been generated from an entry in the Cambridge 
# Structural Database, then it will include bibliographic, chemical, 
# crystal, experimental, refinement or atomic coordinate data resulting 
# from the CCDC's data processing and validation procedures.
#
#######################################################################

data_NINHOH
_chemical_formula_moiety         '(C8 H12 Cd2 N4 O4)n'
_symmetry_cell_setting           monoclinic
_symmetry_space_group_name_H-M   'C 2/c'
_symmetry_Int_Tables_number      15
_space_group_name_Hall           '-C 2yc'
loop_
_symmetry_equiv_pos_site_id
_symmetry_equiv_pos_as_xyz
1 x,y,z
2 -x,y,1/2-z
3 1/2+x,1/2+y,z
4 1/2-x,1/2+y,1/2-z
5 -x,-y,-z
6 x,-y,1/2+z
7 1/2-x,1/2-y,-z
8 1/2+x,1/2-y,1/2+z
_cell_length_a                   12.054(5)
_cell_length_b                   11.334(5)
_cell_length_c                   15.249(2)
_cell_angle_alpha                90
_cell_angle_beta                 91.62(2)
_cell_angle_gamma                90
_cell_volume                     2082.49
loop_
_atom_site_label
_atom_site_type_symbol
_atom_site_fract_x
_atom_site_fract_y
_atom_site_fract_z
Cd1 Cd -1.25000 0.25000 0.50000
Cd2 Cd -1.00000 0.48895(5) 0.25000
N1 N -1.1439(5) 0.3318(6) 0.3920(4)
N2 N -0.8501(5) 0.6502(6) 0.3926(4)
O1 O -1.3719(4) 0.4117(4) 0.4864(4)
C1 C -1.0991(6) 0.3809(6) 0.3390(4)
C2 C -0.8970(5) 0.5978(6) 0.3412(4)
N1F N -1.3561(5) 0.1682(6) 0.6080(4)
N2D N -1.1499(5) 0.3498(6) 0.6074(4)
O1F O -1.1281(4) 0.0883(4) 0.5136(4)
N1A N -0.8561(5) 0.3318(6) 0.1080(4)
C1A C -0.9009(6) 0.3809(6) 0.1610(4)
N2B N -1.3501(5) 0.1502(6) 0.3926(4)
N2A N -1.1499(5) 0.6502(6) 0.1074(4)
C2A C -1.1030(5) 0.5978(6) 0.1588(4)
Cd1A Cd -0.75000 0.25000 0.00000
Cd1B Cd -0.75000 0.75000 0.50000
Cd1C Cd -1.25000 0.75000 0.00000
O2 O 0.2126(8) 0.1374(6) -0.5003(8)
C3 C 0.3295(12) 0.1630(13) -0.5118(13)
C4 C 0.1426(12) 0.2343(11) -0.5248(18)
C4F C 0.3574(12) 0.2657(11) -0.4752(18)
O2F O 0.2874(8) 0.3626(6) -0.4997(8)
C3F C 0.1705(12) 0.3370(13) -0.4882(13)
loop_
_geom_bond_atom_site_label_1
_geom_bond_atom_site_label_2
_geom_bond_site_symmetry_1
_geom_bond_site_symmetry_2
Cd1 N1 1_555 1_555
Cd2 C1 1_555 1_555
N1 C1 1_555 1_555
N2 C2 1_555 1_555
O1 Cd1 1_555 1_555
C2 Cd2 1_555 1_555
O2 C3 1_555 1_555
C3 C4F 1_555 1_555
C4 O2 1_555 1_555
C4F O2F 1_555 1_555
O2F C3F 1_555 1_555
C3F C4 1_555 1_555
N1F Cd1 1_555 1_555
N2D Cd1 1_555 1_555
O1F Cd1 1_555 1_555
N1A C1A 1_555 1_555
C1A Cd2 1_555 1_555
N2B Cd1 1_555 1_555
N2A C2A 1_555 1_555
C2A Cd2 1_555 1_555
Cd1A N1A 1_555 1_555
Cd1B N2 1_555 1_555
Cd1C N2A 1_555 1_555

#END
