
#######################################################################
#
#                 Cambridge Crystallographic Data Centre
#                                CCDC 
#
#######################################################################
#
# If this CIF has been generated from an entry in the Cambridge 
# Structural Database, then it will include bibliographic, chemical, 
# crystal, experimental, refinement or atomic coordinate data resulting 
# from the CCDC's data processing and validation procedures.
#
#######################################################################

data_LAWHOJ
_chemical_formula_moiety         '(C48 H16 Cd6 N12 O26 S7)n'
_symmetry_cell_setting           rhombohedral
_symmetry_space_group_name_H-M   'R -3'
_symmetry_Int_Tables_number      148
_space_group_name_Hall           '-R 3'
loop_
_symmetry_equiv_pos_site_id
_symmetry_equiv_pos_as_xyz
1 x,y,z
2 -y,x-y,z
3 -x+y,-x,z
4 2/3+x,1/3+y,1/3+z
5 2/3-y,1/3+x-y,1/3+z
6 2/3-x+y,1/3-x,1/3+z
7 1/3+x,2/3+y,2/3+z
8 1/3-y,2/3+x-y,2/3+z
9 1/3-x+y,2/3-x,2/3+z
10 -x,-y,-z
11 y,-x+y,-z
12 x-y,x,-z
13 1/3-x,2/3-y,2/3-z
14 1/3+y,2/3-x+y,2/3-z
15 1/3+x-y,2/3+x,2/3-z
16 2/3-x,1/3-y,1/3-z
17 2/3+y,1/3-x+y,1/3-z
18 2/3+x-y,1/3+x,1/3-z
_cell_length_a                   19.676(3)
_cell_length_b                   19.676(3)
_cell_length_c                   19.300(4)
_cell_angle_alpha                90
_cell_angle_beta                 90
_cell_angle_gamma                120
_cell_volume                     6470.85
loop_
_atom_site_label
_atom_site_type_symbol
_atom_site_fract_x
_atom_site_fract_y
_atom_site_fract_z
_atom_site_U_iso_or_equiv
_atom_site_thermal_displace_type
Cd1 Cd 0.11008(2) 0.12701(2) 0.58647(2) 0.0254 Uani
N1 N 0.20281(19) 0.17458(18) 0.67679(17) 0.0369 Uani
N2 N 0.3116(2) 0.26615(19) 0.75247(18) 0.0428 Uani
O1 O 0.10011(14) 0.01430(14) 0.63600(13) 0.0321 Uani
O2 O 0.13961(18) -0.06918(16) 0.65998(17) 0.0504 Uani
O3 O 0.40030(16) 0.26078(16) 0.88080(14) 0.0382 Uani
O4 O 0.47875(14) 0.22720(14) 0.82871(13) 0.0320 Uani
S1 S 0.24743(8) 0.26554(6) 0.70089(7) 0.0540 Uani
S2 S 0.0000 0.0000 0.5000 0.0203 Uani
C1 C 0.1482(2) -0.0026(2) 0.66480(19) 0.0317 Uani
C2 C 0.2160(2) 0.0589(2) 0.70618(18) 0.0292 Uani
C3 C 0.2601(2) 0.0365(2) 0.7445(2) 0.0391 Uani
H1 H 0.2472 -0.0158 0.7436 0.0470 Uiso
C4 C 0.3248(2) 0.0900(2) 0.7858(2) 0.0390 Uani
H2 H 0.3539 0.0721 0.8097 0.0470 Uiso
C5 C 0.3452(2) 0.1669(2) 0.79102(18) 0.0288 Uani
C6 C 0.3003(2) 0.1927(2) 0.75348(18) 0.0289 Uani
C7 C 0.23661(19) 0.13901(19) 0.71028(17) 0.0265 Uani
C8 C 0.41227(19) 0.22252(19) 0.83619(18) 0.0282 Uani
Cd1A Cd -0.12701(2) -0.01693(3) 0.58647(2) 0.0254 Uani
N1A N -0.17458(18) 0.02823(26) 0.67679(17) 0.0369 Uani
N2A N -0.26615(19) 0.04545(28) 0.75247(18) 0.0428 Uani
O1A O -0.01430(14) 0.08581(20) 0.63600(13) 0.0321 Uani
O2A O 0.06918(16) 0.20879(24) 0.65998(17) 0.0504 Uani
O3A O -0.26078(16) 0.13952(23) 0.88080(14) 0.0382 Uani
O4A O -0.22720(14) 0.25155(20) 0.82871(13) 0.0320 Uani
S1A S -0.26554(6) -0.01811(10) 0.70089(7) 0.0540 Uani
C1A C 0.0026(2) 0.1508(3) 0.66480(19) 0.0317 Uani
C2A C -0.0589(2) 0.1571(3) 0.70618(18) 0.0292 Uani
C3A C -0.0365(2) 0.2236(3) 0.7445(2) 0.0391 Uani
H1A H 0.0158 0.2630 0.7436 0.0470 Uiso
C4A C -0.0900(2) 0.2348(3) 0.7858(2) 0.0390 Uani
H2A H -0.0721 0.2818 0.8097 0.0470 Uiso
C5A C -0.1669(2) 0.1783(3) 0.79102(18) 0.0288 Uani
C6A C -0.1927(2) 0.1076(3) 0.75348(18) 0.0289 Uani
C7A C -0.13901(19) 0.09760(27) 0.71028(17) 0.0265 Uani
C8A C -0.22252(19) 0.18975(27) 0.83619(18) 0.0282 Uani
Cd1B Cd 0.01693(3) -0.11008(2) 0.58647(2) 0.0254 Uani
N1B N -0.02823(26) -0.20281(19) 0.67679(17) 0.0369 Uani
N2B N -0.04545(28) -0.3116(2) 0.75247(18) 0.0428 Uani
O1B O -0.08581(20) -0.10011(14) 0.63600(13) 0.0321 Uani
O2B O -0.20879(24) -0.13961(18) 0.65998(17) 0.0504 Uani
O3B O -0.13952(23) -0.40030(16) 0.88080(14) 0.0382 Uani
O4B O -0.25155(20) -0.47875(14) 0.82871(13) 0.0320 Uani
S1B S 0.01811(10) -0.24743(8) 0.70089(7) 0.0540 Uani
C1B C -0.1508(3) -0.1482(2) 0.66480(19) 0.0317 Uani
C2B C -0.1571(3) -0.2160(2) 0.70618(18) 0.0292 Uani
C3B C -0.2236(3) -0.2601(2) 0.7445(2) 0.0391 Uani
H1B H -0.2630 -0.2472 0.7436 0.0470 Uiso
C4B C -0.2348(3) -0.3248(2) 0.7858(2) 0.0390 Uani
H2B H -0.2818 -0.3539 0.8097 0.0470 Uiso
C5B C -0.1783(3) -0.3452(2) 0.79102(18) 0.0288 Uani
C6B C -0.1076(3) -0.3003(2) 0.75348(18) 0.0289 Uani
C7B C -0.09760(27) -0.23661(19) 0.71028(17) 0.0265 Uani
C8B C -0.18975(27) -0.41227(19) 0.83619(18) 0.0282 Uani
Cd1I Cd -0.11008(2) -0.12701(2) 0.41353(2) 0.0254 Uani
N1I N -0.20281(19) -0.17458(18) 0.32321(17) 0.0369 Uani
N2I N -0.3116(2) -0.26615(19) 0.24753(18) 0.0428 Uani
O1I O -0.10011(14) -0.01430(14) 0.36400(13) 0.0321 Uani
O2I O -0.13961(18) 0.06918(16) 0.34002(17) 0.0504 Uani
O3I O -0.40030(16) -0.26078(16) 0.11920(14) 0.0382 Uani
O4I O -0.47875(14) -0.22720(14) 0.17129(13) 0.0320 Uani
S1I S -0.24743(8) -0.26554(6) 0.29911(7) 0.0540 Uani
C1I C -0.1482(2) 0.0026(2) 0.33520(19) 0.0317 Uani
C2I C -0.2160(2) -0.0589(2) 0.29382(18) 0.0292 Uani
C3I C -0.2601(2) -0.0365(2) 0.2555(2) 0.0391 Uani
H1I H -0.2472 0.0158 0.2564 0.0470 Uiso
C4I C -0.3248(2) -0.0900(2) 0.2142(2) 0.0390 Uani
H2I H -0.3539 -0.0721 0.1903 0.0470 Uiso
C5I C -0.3452(2) -0.1669(2) 0.20898(18) 0.0288 Uani
C6I C -0.3003(2) -0.1927(2) 0.24652(18) 0.0289 Uani
C7I C -0.23661(19) -0.13901(19) 0.28972(17) 0.0265 Uani
C8I C -0.41227(19) -0.22252(19) 0.16381(18) 0.0282 Uani
Cd1J Cd 0.12701(2) 0.01693(3) 0.41353(2) 0.0254 Uani
N1J N 0.17458(18) -0.02823(26) 0.32321(17) 0.0369 Uani
N2J N 0.26615(19) -0.04545(28) 0.24753(18) 0.0428 Uani
O1J O 0.01430(14) -0.08581(20) 0.36400(13) 0.0321 Uani
O2J O -0.06918(16) -0.20879(24) 0.34002(17) 0.0504 Uani
O3J O 0.26078(16) -0.13952(23) 0.11920(14) 0.0382 Uani
O4J O 0.22720(14) -0.25155(20) 0.17129(13) 0.0320 Uani
S1J S 0.26554(6) 0.01811(10) 0.29911(7) 0.0540 Uani
C1J C -0.0026(2) -0.1508(3) 0.33520(19) 0.0317 Uani
C2J C 0.0589(2) -0.1571(3) 0.29382(18) 0.0292 Uani
C3J C 0.0365(2) -0.2236(3) 0.2555(2) 0.0391 Uani
H1J H -0.0158 -0.2630 0.2564 0.0470 Uiso
C4J C 0.0900(2) -0.2348(3) 0.2142(2) 0.0390 Uani
H2J H 0.0721 -0.2818 0.1903 0.0470 Uiso
C5J C 0.1669(2) -0.1783(3) 0.20898(18) 0.0288 Uani
C6J C 0.1927(2) -0.1076(3) 0.24652(18) 0.0289 Uani
C7J C 0.13901(19) -0.09760(27) 0.28972(17) 0.0265 Uani
C8J C 0.22252(19) -0.18975(27) 0.16381(18) 0.0282 Uani
Cd1K Cd -0.01693(3) 0.11008(2) 0.41353(2) 0.0254 Uani
N1K N 0.02823(26) 0.20281(19) 0.32321(17) 0.0369 Uani
N2K N 0.04545(28) 0.3116(2) 0.24753(18) 0.0428 Uani
O1K O 0.08581(20) 0.10011(14) 0.36400(13) 0.0321 Uani
O2K O 0.20879(24) 0.13961(18) 0.34002(17) 0.0504 Uani
O3K O 0.13952(23) 0.40030(16) 0.11920(14) 0.0382 Uani
O4K O 0.25155(20) 0.47875(14) 0.17129(13) 0.0320 Uani
S1K S -0.01811(10) 0.24743(8) 0.29911(7) 0.0540 Uani
C1K C 0.1508(3) 0.1482(2) 0.33520(19) 0.0317 Uani
C2K C 0.1571(3) 0.2160(2) 0.29382(18) 0.0292 Uani
C3K C 0.2236(3) 0.2601(2) 0.2555(2) 0.0391 Uani
H1K H 0.2630 0.2472 0.2564 0.0470 Uiso
C4K C 0.2348(3) 0.3248(2) 0.2142(2) 0.0390 Uani
H2K H 0.2818 0.3539 0.1903 0.0470 Uiso
C5K C 0.1783(3) 0.3452(2) 0.20898(18) 0.0288 Uani
C6K C 0.1076(3) 0.3003(2) 0.24652(18) 0.0289 Uani
C7K C 0.09760(27) 0.23661(19) 0.28972(17) 0.0265 Uani
C8K C 0.18975(27) 0.41227(19) 0.16381(18) 0.0282 Uani
Cd1C Cd -0.22325(2) -0.53966(2) 0.91980(2) 0.0254 Uani
Cd1D Cd 0.53966(2) 0.31640(3) 0.91980(2) 0.0254 Uani
Cd1E Cd -0.31640(3) 0.22325(2) 0.91980(2) 0.0254 Uani
Cd1F Cd -0.55659(2) -0.20632(2) 0.25314(2) 0.0254 Uani
Cd1G Cd 0.20632(2) -0.35026(3) 0.25314(2) 0.0254 Uani
Cd1H Cd 0.35026(3) 0.55659(2) 0.25314(2) 0.0254 Uani
Cd1O Cd 0.55659(2) 0.20632(2) 0.74686(2) 0.0254 Uani
Cd1P Cd -0.20632(2) 0.35026(3) 0.74686(2) 0.0254 Uani
Cd1Q Cd -0.35026(3) -0.55659(2) 0.74686(2) 0.0254 Uani
Cd1L Cd 0.22325(2) 0.53966(2) 0.08020(2) 0.0254 Uani
Cd1M Cd -0.53966(2) -0.31640(3) 0.08020(2) 0.0254 Uani
Cd1N Cd 0.31640(3) -0.22325(2) 0.08020(2) 0.0254 Uani
O3F O -0.26637(16) -0.07255(16) 0.54747(14) 0.0382 Uani
O3G O 0.07255(16) -0.19381(23) 0.54747(14) 0.0382 Uani
O3H O 0.19381(23) 0.26637(16) 0.54747(14) 0.0382 Uani
O3O O 0.26637(16) 0.07255(16) 0.45253(14) 0.0382 Uani
O3P O -0.07255(16) 0.19381(23) 0.45253(14) 0.0382 Uani
O3Q O -0.19381(23) -0.26637(16) 0.45253(14) 0.0382 Uani
O4F O -0.18792(14) -0.10613(14) 0.49538(13) 0.0320 Uani
O4G O 0.10613(14) -0.08178(20) 0.49538(13) 0.0320 Uani
O4H O 0.08178(20) 0.18792(14) 0.49538(13) 0.0320 Uani
O4O O 0.18792(14) 0.10613(14) 0.50462(13) 0.0320 Uani
O4P O -0.10613(14) 0.08178(20) 0.50462(13) 0.0320 Uani
O4Q O -0.08178(20) -0.18792(14) 0.50462(13) 0.0320 Uani
O5 O 0.2418(6) -0.1388(6) 0.6477(6) 0.2556 Uani
H3 H 0.2116 -0.1198 0.6516 0.3060 Uiso
H4 H 0.2768 -0.1266 0.6787 0.3060 Uiso
O6 O 0.2400(6) 0.2099(9) 0.9173(6) 0.1607 Uani
loop_
_atom_site_aniso_label
_atom_site_aniso_U_11
_atom_site_aniso_U_22
_atom_site_aniso_U_33
_atom_site_aniso_U_23
_atom_site_aniso_U_13
_atom_site_aniso_U_12
Cd1 0.02389(14) 0.02677(14) 0.02736(16) 0.00206(9) 0.00006(9) 0.01395(10)
N1 0.0431(18) 0.0319(16) 0.0392(17) -0.0041(13) -0.0144(14) 0.0214(14)
N2 0.047(2) 0.0321(16) 0.050(2) -0.0084(15) -0.0145(16) 0.0202(15)
O1 0.0278(12) 0.0281(12) 0.0364(14) -0.0006(10) -0.0098(10) 0.0109(10)
O2 0.0464(17) 0.0280(14) 0.072(2) -0.0107(14) -0.0244(15) 0.0151(13)
O3 0.0367(14) 0.0396(14) 0.0427(15) -0.0133(12) -0.0081(12) 0.0223(12)
O4 0.0231(11) 0.0347(13) 0.0347(13) -0.0045(10) -0.0040(10) 0.0118(10)
S1 0.0702(8) 0.0352(5) 0.0642(7) -0.0118(5) -0.0319(6) 0.0320(5)
S2 0.0188(5) 0.0188(5) 0.0234(9) 0.000 0.000 0.0094(2)
C1 0.0272(17) 0.0298(17) 0.0314(18) 0.0003(14) -0.0051(14) 0.0093(14)
C2 0.0284(16) 0.0301(17) 0.0312(18) -0.0022(14) -0.0065(14) 0.0161(14)
C3 0.0356(19) 0.0279(18) 0.055(2) -0.0080(17) -0.0166(18) 0.0168(16)
C4 0.0341(19) 0.036(2) 0.050(2) -0.0048(17) -0.0162(17) 0.0199(16)
C5 0.0263(16) 0.0304(17) 0.0313(18) -0.0081(14) -0.0075(14) 0.0154(14)
C6 0.0267(16) 0.0260(16) 0.0337(18) -0.0030(14) -0.0033(14) 0.0129(14)
C7 0.0223(15) 0.0270(16) 0.0288(17) -0.0008(13) -0.0018(13) 0.0112(13)
C8 0.0252(16) 0.0224(15) 0.0339(18) -0.0031(13) -0.0036(14) 0.0096(13)
Cd1A 0.02677 0.02276 0.02736 -0.002 -0.00206 0.01282
N1A 0.0319 0.0322 0.0392 -0.0103 0.0041 0.0105
N2A 0.0321 0.0387 0.05 -0.0061 0.0084 0.0119
O1A 0.0281 0.0341 0.0364 -0.0092 0.0006 0.0172
O2A 0.028 0.0442 0.072 -0.0137 0.0107 0.0129
O3A 0.0396 0.0317 0.0427 0.0052 0.0133 0.0173
O4A 0.0347 0.0342 0.0347 0.0005 0.0045 0.0229
S1A 0.0352 0.0414 0.0642 -0.0201 0.0118 0.0032
C1A 0.0298 0.0384 0.0314 -0.0054 -0.0003 0.0205
C2A 0.0301 0.0263 0.0312 -0.0043 0.0022 0.014
C3A 0.0279 0.0299 0.055 -0.0086 0.008 0.0111
C4A 0.036 0.0303 0.05 -0.0114 0.0048 0.0161
C5A 0.0304 0.0259 0.0313 0.0006 0.0081 0.015
C6A 0.026 0.0269 0.0337 -0.0003 0.003 0.0131
C7A 0.027 0.0269 0.0288 -0.001 0.0008 0.0158
C8A 0.0224 0.0284 0.0339 -0.0005 0.0031 0.0128
Cd1B 0.02276 0.02389 0.02736 -6e-05 0.002 0.00994
N1B 0.0322 0.0431 0.0392 0.0144 0.0103 0.0217
N2B 0.0387 0.047 0.05 0.0145 0.0061 0.0268
O1B 0.0341 0.0278 0.0364 0.0098 0.0092 0.0169
O2B 0.0442 0.0464 0.072 0.0244 0.0137 0.0313
O3B 0.0317 0.0367 0.0427 0.0081 -0.0052 0.0144
O4B 0.0342 0.0231 0.0347 0.004 -0.0005 0.0113
S1B 0.0414 0.0702 0.0642 0.0319 0.0201 0.0382
C1B 0.0384 0.0272 0.0314 0.0051 0.0054 0.0179
C2B 0.0263 0.0284 0.0312 0.0065 0.0043 0.0123
C3B 0.0299 0.0356 0.055 0.0166 0.0086 0.0188
C4B 0.0303 0.0341 0.05 0.0162 0.0114 0.0142
C5B 0.0259 0.0263 0.0313 0.0075 -0.0006 0.0109
C6B 0.0269 0.0267 0.0337 0.0033 0.0003 0.0138
C7B 0.0269 0.0223 0.0288 0.0018 0.001 0.0111
C8B 0.0284 0.0252 0.0339 0.0036 0.0005 0.0156
Cd1I 0.02389 0.02677 0.02736 0.00206 6e-05 0.01395
N1I 0.0431 0.0319 0.0392 -0.0041 -0.0144 0.0214
N2I 0.047 0.0321 0.05 -0.0084 -0.0145 0.0202
O1I 0.0278 0.0281 0.0364 -0.0006 -0.0098 0.0109
O2I 0.0464 0.028 0.072 -0.0107 -0.0244 0.0151
O3I 0.0367 0.0396 0.0427 -0.0133 -0.0081 0.0223
O4I 0.0231 0.0347 0.0347 -0.0045 -0.004 0.0118
S1I 0.0702 0.0352 0.0642 -0.0118 -0.0319 0.032
C1I 0.0272 0.0298 0.0314 0.0003 -0.0051 0.0093
C2I 0.0284 0.0301 0.0312 -0.0022 -0.0065 0.0161
C3I 0.0356 0.0279 0.055 -0.008 -0.0166 0.0168
C4I 0.0341 0.036 0.05 -0.0048 -0.0162 0.0199
C5I 0.0263 0.0304 0.0313 -0.0081 -0.0075 0.0154
C6I 0.0267 0.026 0.0337 -0.003 -0.0033 0.0129
C7I 0.0223 0.027 0.0288 -0.0008 -0.0018 0.0112
C8I 0.0252 0.0224 0.0339 -0.0031 -0.0036 0.0096
Cd1J 0.02677 0.02276 0.02736 -0.002 -0.00206 0.01282
N1J 0.0319 0.0322 0.0392 -0.0103 0.0041 0.0105
N2J 0.0321 0.0387 0.05 -0.0061 0.0084 0.0119
O1J 0.0281 0.0341 0.0364 -0.0092 0.0006 0.0172
O2J 0.028 0.0442 0.072 -0.0137 0.0107 0.0129
O3J 0.0396 0.0317 0.0427 0.0052 0.0133 0.0173
O4J 0.0347 0.0342 0.0347 0.0005 0.0045 0.0229
S1J 0.0352 0.0414 0.0642 -0.0201 0.0118 0.0032
C1J 0.0298 0.0384 0.0314 -0.0054 -0.0003 0.0205
C2J 0.0301 0.0263 0.0312 -0.0043 0.0022 0.014
C3J 0.0279 0.0299 0.055 -0.0086 0.008 0.0111
C4J 0.036 0.0303 0.05 -0.0114 0.0048 0.0161
C5J 0.0304 0.0259 0.0313 0.0006 0.0081 0.015
C6J 0.026 0.0269 0.0337 -0.0003 0.003 0.0131
C7J 0.027 0.0269 0.0288 -0.001 0.0008 0.0158
C8J 0.0224 0.0284 0.0339 -0.0005 0.0031 0.0128
Cd1K 0.02276 0.02389 0.02736 -6e-05 0.002 0.00994
N1K 0.0322 0.0431 0.0392 0.0144 0.0103 0.0217
N2K 0.0387 0.047 0.05 0.0145 0.0061 0.0268
O1K 0.0341 0.0278 0.0364 0.0098 0.0092 0.0169
O2K 0.0442 0.0464 0.072 0.0244 0.0137 0.0313
O3K 0.0317 0.0367 0.0427 0.0081 -0.0052 0.0144
O4K 0.0342 0.0231 0.0347 0.004 -0.0005 0.0113
S1K 0.0414 0.0702 0.0642 0.0319 0.0201 0.0382
C1K 0.0384 0.0272 0.0314 0.0051 0.0054 0.0179
C2K 0.0263 0.0284 0.0312 0.0065 0.0043 0.0123
C3K 0.0299 0.0356 0.055 0.0166 0.0086 0.0188
C4K 0.0303 0.0341 0.05 0.0162 0.0114 0.0142
C5K 0.0259 0.0263 0.0313 0.0075 -0.0006 0.0109
C6K 0.0269 0.0267 0.0337 0.0033 0.0003 0.0138
C7K 0.0269 0.0223 0.0288 0.0018 0.001 0.0111
C8K 0.0284 0.0252 0.0339 0.0036 0.0005 0.0156
Cd1C 0.02389 0.02677 0.02736 0.00206 6e-05 0.01395
Cd1D 0.02677 0.02276 0.02736 -0.002 -0.00206 0.01282
Cd1E 0.02276 0.02389 0.02736 -6e-05 0.002 0.00994
Cd1F 0.02389 0.02677 0.02736 0.00206 6e-05 0.01395
Cd1G 0.02677 0.02276 0.02736 -0.002 -0.00206 0.01282
Cd1H 0.02276 0.02389 0.02736 -6e-05 0.002 0.00994
Cd1O 0.02389 0.02677 0.02736 0.00206 6e-05 0.01395
Cd1P 0.02677 0.02276 0.02736 -0.002 -0.00206 0.01282
Cd1Q 0.02276 0.02389 0.02736 -6e-05 0.002 0.00994
Cd1L 0.02389 0.02677 0.02736 0.00206 6e-05 0.01395
Cd1M 0.02677 0.02276 0.02736 -0.002 -0.00206 0.01282
Cd1N 0.02276 0.02389 0.02736 -6e-05 0.002 0.00994
O3F 0.0367 0.0396 0.0427 -0.0133 -0.0081 0.0223
O3G 0.0396 0.0317 0.0427 0.0052 0.0133 0.0173
O3H 0.0317 0.0367 0.0427 0.0081 -0.0052 0.0144
O3O 0.0367 0.0396 0.0427 -0.0133 -0.0081 0.0223
O3P 0.0396 0.0317 0.0427 0.0052 0.0133 0.0173
O3Q 0.0317 0.0367 0.0427 0.0081 -0.0052 0.0144
O4F 0.0231 0.0347 0.0347 -0.0045 -0.004 0.0118
O4G 0.0347 0.0342 0.0347 0.0005 0.0045 0.0229
O4H 0.0342 0.0231 0.0347 0.004 -0.0005 0.0113
O4O 0.0231 0.0347 0.0347 -0.0045 -0.004 0.0118
O4P 0.0347 0.0342 0.0347 0.0005 0.0045 0.0229
O4Q 0.0342 0.0231 0.0347 0.004 -0.0005 0.0113
O5 0.253(10) 0.285(13) 0.312(12) -0.098(10) -0.118(9) 0.197(10)
O6 0.071(7) 0.238(16) 0.138(10) -0.082(10) 0.003(6) 0.051(9)
loop_
_geom_bond_atom_site_label_1
_geom_bond_atom_site_label_2
_geom_bond_site_symmetry_1
_geom_bond_site_symmetry_2
Cd1 N1 1_555 1_555
N1 S1 1_555 1_555
N2 S1 1_555 1_555
O1 Cd1 1_555 1_555
O2 C1 1_555 1_555
O3 C8 1_555 1_555
O4 C8 1_555 1_555
S2 Cd1 1_555 1_555
C1 O1 1_555 1_555
C2 C1 1_555 1_555
C3 C2 1_555 1_555
H1 C3 1_555 1_555
C4 C3 1_555 1_555
H2 C4 1_555 1_555
C5 C4 1_555 1_555
C6 N2 1_555 1_555
C7 N1 1_555 1_555
C8 C5 1_555 1_555
O5 H3 1_555 1_555
H4 O5 1_555 1_555
Cd1A S2 1_555 1_555
N1A Cd1A 1_555 1_555
N2A S1A 1_555 1_555
O1A Cd1 1_555 1_555
O2A Cd1 1_555 1_555
O3A C8A 1_555 1_555
O4A C8A 1_555 1_555
S1A N1A 1_555 1_555
C1A O1A 1_555 1_555
C2A C1A 1_555 1_555
C3A C2A 1_555 1_555
H1A C3A 1_555 1_555
C4A C3A 1_555 1_555
H2A C4A 1_555 1_555
C5A C4A 1_555 1_555
C6A N2A 1_555 1_555
C7A N1A 1_555 1_555
C8A C5A 1_555 1_555
Cd1B O1 1_555 1_555
N1B Cd1B 1_555 1_555
N2B S1B 1_555 1_555
O1B Cd1A 1_555 1_555
O2B Cd1A 1_555 1_555
O3B C8B 1_555 1_555
O4B C8B 1_555 1_555
S1B N1B 1_555 1_555
C1B O1B 1_555 1_555
C2B C1B 1_555 1_555
C3B C2B 1_555 1_555
H1B C3B 1_555 1_555
C4B C3B 1_555 1_555
H2B C4B 1_555 1_555
C5B C4B 1_555 1_555
C6B N2B 1_555 1_555
C7B N1B 1_555 1_555
C8B C5B 1_555 1_555
Cd1I S2 1_555 1_555
N1I Cd1I 1_555 1_555
N2I S1I 1_555 1_555
O1I Cd1I 1_555 1_555
O2I C1I 1_555 1_555
O3I C8I 1_555 1_555
O4I C8I 1_555 1_555
S1I N1I 1_555 1_555
C1I O1I 1_555 1_555
C2I C1I 1_555 1_555
C3I C2I 1_555 1_555
H1I C3I 1_555 1_555
C4I C3I 1_555 1_555
H2I C4I 1_555 1_555
C5I C4I 1_555 1_555
C6I N2I 1_555 1_555
C7I N1I 1_555 1_555
C8I C5I 1_555 1_555
Cd1J S2 1_555 1_555
N1J Cd1J 1_555 1_555
N2J S1J 1_555 1_555
O1J Cd1I 1_555 1_555
O2J Cd1I 1_555 1_555
O3J C8J 1_555 1_555
O4J C8J 1_555 1_555
S1J N1J 1_555 1_555
C1J O1J 1_555 1_555
C2J C1J 1_555 1_555
C3J C2J 1_555 1_555
H1J C3J 1_555 1_555
C4J C3J 1_555 1_555
H2J C4J 1_555 1_555
C5J C4J 1_555 1_555
C6J N2J 1_555 1_555
C7J N1J 1_555 1_555
C8J C5J 1_555 1_555
Cd1K S2 1_555 1_555
N1K Cd1K 1_555 1_555
N2K S1K 1_555 1_555
O1K Cd1J 1_555 1_555
O2K Cd1J 1_555 1_555
O3K C8K 1_555 1_555
O4K C8K 1_555 1_555
S1K N1K 1_555 1_555
C1K O1K 1_555 1_555
C2K C1K 1_555 1_555
C3K C2K 1_555 1_555
H1K C3K 1_555 1_555
C4K C3K 1_555 1_555
H2K C4K 1_555 1_555
C5K C4K 1_555 1_555
C6K N2K 1_555 1_555
C7K N1K 1_555 1_555
C8K C5K 1_555 1_555
Cd1C O3B 1_555 1_555
Cd1D O3 1_555 1_555
Cd1E O3A 1_555 1_555
Cd1F O4I 1_555 1_555
Cd1G O4J 1_555 1_555
Cd1H O4K 1_555 1_555
Cd1O O4 1_555 1_555
Cd1P O4A 1_555 1_555
Cd1Q O4B 1_555 1_555
Cd1L O3K 1_555 1_555
Cd1M O3I 1_555 1_555
Cd1N O3J 1_555 1_555
O3F Cd1A 1_555 1_555
O3G Cd1B 1_555 1_555
O3H Cd1 1_555 1_555
O3O Cd1J 1_555 1_555
O3P Cd1K 1_555 1_555
O3Q Cd1I 1_555 1_555
O4F Cd1A 1_555 1_555
O4G Cd1B 1_555 1_555
O4H Cd1 1_555 1_555
O4O Cd1 1_555 1_555
O4P Cd1A 1_555 1_555
O4Q Cd1B 1_555 1_555
O2 Cd1B 1_555 1_555
O4 Cd1D 1_555 1_555
S2 Cd1B 1_555 1_555
C2 C7 1_555 1_555
C5 C6 1_555 1_555
C6 C7 1_555 1_555
Cd1A O1A 1_555 1_555
O2A C1A 1_555 1_555
O4A Cd1E 1_555 1_555
C2A C7A 1_555 1_555
C5A C6A 1_555 1_555
C6A C7A 1_555 1_555
Cd1B O1B 1_555 1_555
O2B C1B 1_555 1_555
O4B Cd1C 1_555 1_555
C2B C7B 1_555 1_555
C5B C6B 1_555 1_555
C6B C7B 1_555 1_555
Cd1I O4F 1_555 1_555
Cd1I O4Q 1_555 1_555
O1I Cd1K 1_555 1_555
O2I Cd1K 1_555 1_555
O4I Cd1M 1_555 1_555
C2I C7I 1_555 1_555
C5I C6I 1_555 1_555
C6I C7I 1_555 1_555
Cd1J O1J 1_555 1_555
Cd1J O4G 1_555 1_555
Cd1J O4O 1_555 1_555
O2J C1J 1_555 1_555
O4J Cd1N 1_555 1_555
C2J C7J 1_555 1_555
C5J C6J 1_555 1_555
C6J C7J 1_555 1_555
Cd1K O1K 1_555 1_555
Cd1K O4H 1_555 1_555
Cd1K O4P 1_555 1_555
O2K C1K 1_555 1_555
O4K Cd1L 1_555 1_555
C2K C7K 1_555 1_555
C5K C6K 1_555 1_555
C6K C7K 1_555 1_555

#END
