
#######################################################################
#
#                 Cambridge Crystallographic Data Centre
#                                CCDC 
#
#######################################################################
#
# If this CIF has been generated from an entry in the Cambridge 
# Structural Database, then it will include bibliographic, chemical, 
# crystal, experimental, refinement or atomic coordinate data resulting 
# from the CCDC's data processing and validation procedures.
#
#######################################################################

data_LAWHUP
_chemical_formula_moiety         '(C48 H22 Cd6 N12 O26 S7)n'
_symmetry_cell_setting           rhombohedral
_symmetry_space_group_name_H-M   'R -3'
_symmetry_Int_Tables_number      148
_space_group_name_Hall           '-R 3'
loop_
_symmetry_equiv_pos_site_id
_symmetry_equiv_pos_as_xyz
1 x,y,z
2 -y,x-y,z
3 -x+y,-x,z
4 2/3+x,1/3+y,1/3+z
5 2/3-y,1/3+x-y,1/3+z
6 2/3-x+y,1/3-x,1/3+z
7 1/3+x,2/3+y,2/3+z
8 1/3-y,2/3+x-y,2/3+z
9 1/3-x+y,2/3-x,2/3+z
10 -x,-y,-z
11 y,-x+y,-z
12 x-y,x,-z
13 1/3-x,2/3-y,2/3-z
14 1/3+y,2/3-x+y,2/3-z
15 1/3+x-y,2/3+x,2/3-z
16 2/3-x,1/3-y,1/3-z
17 2/3+y,1/3-x+y,1/3-z
18 2/3+x-y,1/3+x,1/3-z
_cell_length_a                   19.377(3)
_cell_length_b                   19.377(3)
_cell_length_c                   19.810(4)
_cell_angle_alpha                90
_cell_angle_beta                 90
_cell_angle_gamma                120
_cell_volume                     6441.52
loop_
_atom_site_label
_atom_site_type_symbol
_atom_site_fract_x
_atom_site_fract_y
_atom_site_fract_z
Cd1 Cd 0.31704(2) 0.77862(2) 0.58215(2)
O1 O 0.54586(19) 0.80854(19) 0.51133(17)
O2 O 0.41979(17) 0.76686(16) 0.53327(15)
O3 O 0.58311(16) 1.14375(15) 0.33767(13)
O4 O 0.47008(17) 1.06300(17) 0.28659(15)
N1 N 0.3611(2) 0.8704(2) 0.49305(17)
N2 N 0.3765(2) 0.9771(2) 0.41589(18)
S1 S 0.31385(7) 0.91515(8) 0.46851(7)
S2 S 0.3333 0.6667 0.6667
C1 C 0.4860(2) 0.8160(2) 0.5049(2)
C2 C 0.4910(2) 0.8815(2) 0.46246(19)
C3 C 0.5573(2) 0.9248(2) 0.4231(2)
H1 H 0.5977 0.9123 0.4245
C4 C 0.5670(2) 0.9881(2) 0.3801(2)
H2 H 0.6133 1.0155 0.3546
C5 C 0.5100(2) 1.0092(2) 0.3756(2)
C6 C 0.4395(2) 0.9653(2) 0.41446(19)
C7 C 0.4303(2) 0.9028(2) 0.45853(18)
C8 C 0.5211(2) 1.0759(2) 0.33045(19)
Cd1A Cd 0.22138(2) 0.53842(3) 0.58215(2)
O1A O 0.19146(19) 0.73732(27) 0.51133(17)
O2A O 0.23314(16) 0.65293(23) 0.53327(15)
O3A O -0.14375(15) 0.43936(22) 0.33767(13)
O4A O -0.06300(17) 0.40708(24) 0.28659(15)
N1A N 0.1296(2) 0.4907(3) 0.49305(17)
N2A N 0.0229(2) 0.3994(3) 0.41589(18)
S1A S 0.08485(8) 0.39870(11) 0.46851(7)
C1A C 0.1840(2) 0.6700(3) 0.5049(2)
C2A C 0.1185(2) 0.6095(3) 0.46246(19)
C3A C 0.0752(2) 0.6325(3) 0.4231(2)
H1A H 0.0877 0.6854 0.4245
C4A C 0.0119(2) 0.5789(3) 0.3801(2)
H2A H -0.0155 0.5978 0.3546
C5A C -0.0092(2) 0.5008(3) 0.3756(2)
C6A C 0.0347(2) 0.4742(3) 0.41446(19)
C7A C 0.0972(2) 0.5275(3) 0.45853(18)
C8A C -0.0759(2) 0.4452(3) 0.33045(19)
Cd1B Cd 0.46158(3) 0.68296(2) 0.58215(2)
O1B O 0.26268(27) 0.45414(19) 0.51133(17)
O2B O 0.34707(23) 0.58021(17) 0.53327(15)
O3B O 0.56064(22) 0.41689(16) 0.33767(13)
O4B O 0.59292(24) 0.52992(17) 0.28659(15)
N1B N 0.5093(3) 0.6389(2) 0.49305(17)
N2B N 0.6006(3) 0.6235(2) 0.41589(18)
S1B S 0.60130(11) 0.68615(7) 0.46851(7)
C1B C 0.3300(3) 0.5140(2) 0.5049(2)
C2B C 0.3905(3) 0.5090(2) 0.46246(19)
C3B C 0.3675(3) 0.4427(2) 0.4231(2)
H1B H 0.3146 0.4023 0.4245
C4B C 0.4211(3) 0.4330(2) 0.3801(2)
H2B H 0.4022 0.3867 0.3546
C5B C 0.4992(3) 0.4900(2) 0.3756(2)
C6B C 0.5258(3) 0.5605(2) 0.41446(19)
C7B C 0.4725(3) 0.5697(2) 0.45853(18)
C8B C 0.5548(3) 0.4789(2) 0.33045(19)
Cd1I Cd 0.68296(2) 1.22138(2) 0.41785(2)
O1I O 0.45414(19) 1.19146(19) 0.48867(17)
O2I O 0.58021(17) 1.23314(16) 0.46673(15)
O3I O 0.41689(16) 0.85625(15) 0.66233(13)
O4I O 0.52992(17) 0.93700(17) 0.71341(15)
N1I N 0.6389(2) 1.1296(2) 0.50695(17)
N2I N 0.6235(2) 1.0229(2) 0.58411(18)
S1I S 0.68615(7) 1.08485(8) 0.53149(7)
C1I C 0.5140(2) 1.1840(2) 0.4951(2)
C2I C 0.5090(2) 1.1185(2) 0.53754(19)
C3I C 0.4427(2) 1.0752(2) 0.5769(2)
H1I H 0.4023 1.0877 0.5755
C4I C 0.4330(2) 1.0119(2) 0.6199(2)
H2I H 0.3867 0.9845 0.6454
C5I C 0.4900(2) 0.9908(2) 0.6244(2)
C6I C 0.5605(2) 1.0347(2) 0.58554(19)
C7I C 0.5697(2) 1.0972(2) 0.54147(18)
C8I C 0.4789(2) 0.9241(2) 0.66955(19)
Cd1J Cd -0.22138(2) 0.46158(3) 0.41785(2)
O1J O -0.19146(19) 0.26268(27) 0.48867(17)
O2J O -0.23314(16) 0.34707(23) 0.46673(15)
O3J O 0.14375(15) 0.56064(22) 0.66233(13)
O4J O 0.06300(17) 0.59292(24) 0.71341(15)
N1J N -0.1296(2) 0.5093(3) 0.50695(17)
N2J N -0.0229(2) 0.6006(3) 0.58411(18)
S1J S -0.08485(8) 0.60130(11) 0.53149(7)
C1J C -0.1840(2) 0.3300(3) 0.4951(2)
C2J C -0.1185(2) 0.3905(3) 0.53754(19)
C3J C -0.0752(2) 0.3675(3) 0.5769(2)
H1J H -0.0877 0.3146 0.5755
C4J C -0.0119(2) 0.4211(3) 0.6199(2)
H2J H 0.0155 0.4022 0.6454
C5J C 0.0092(2) 0.4992(3) 0.6244(2)
C6J C -0.0347(2) 0.5258(3) 0.58554(19)
C7J C -0.0972(2) 0.4725(3) 0.54147(18)
C8J C 0.0759(2) 0.5548(3) 0.66955(19)
Cd1K Cd 0.53842(3) 0.31704(2) 0.41785(2)
O1K O 0.73732(27) 0.54586(19) 0.48867(17)
O2K O 0.65293(23) 0.41979(17) 0.46673(15)
O3K O 0.43936(22) 0.58311(16) 0.66233(13)
O4K O 0.40708(24) 0.47008(17) 0.71341(15)
N1K N 0.4907(3) 0.3611(2) 0.50695(17)
N2K N 0.3994(3) 0.3765(2) 0.58411(18)
S1K S 0.39870(11) 0.31385(7) 0.53149(7)
C1K C 0.6700(3) 0.4860(2) 0.4951(2)
C2K C 0.6095(3) 0.4910(2) 0.53754(19)
C3K C 0.6325(3) 0.5573(2) 0.5769(2)
H1K H 0.6854 0.5977 0.5755
C4K C 0.5789(3) 0.5670(2) 0.6199(2)
H2K H 0.5978 0.6133 0.6454
C5K C 0.5008(3) 0.5100(2) 0.6244(2)
C6K C 0.4742(3) 0.4395(2) 0.58554(19)
C7K C 0.5275(3) 0.4303(2) 0.54147(18)
C8K C 0.4452(3) 0.5211(2) 0.66955(19)
Cd1F Cd 0.65037(2) 0.44529(2) 0.24882(2)
Cd1G Cd 0.55471(2) 1.20509(3) 0.24882(2)
Cd1H Cd -0.20509(3) 0.34963(2) 0.24882(2)
Cd1I_2 Cd -0.31704(2) 0.22138(2) 0.41785(2)
Cd1J_2 Cd 0.77862(2) 0.46158(3) 0.41785(2)
Cd1K_2 Cd 0.53842(3) 1.31704(2) 0.41785(2)
Cd1O Cd 0.34963(2) 0.55471(2) 0.75118(2)
Cd1P Cd 0.44529(2) 0.79491(3) 0.75118(2)
Cd1Q Cd 0.20509(3) 0.65037(2) 0.75118(2)
O1I_2 O 0.45414(19) 0.19146(19) 0.48867(17)
O1J_2 O 0.80854(19) 1.26268(27) 0.48867(17)
O1K_2 O -0.26268(27) 0.54586(19) 0.48867(17)
O2I_2 O 0.58021(17) 0.23314(16) 0.46673(15)
O2J_2 O 0.76686(16) 1.34707(23) 0.46673(15)
O2K_2 O -0.34707(23) 0.41979(17) 0.46673(15)
O3C O 0.24978(16) 0.47708(15) 0.67100(13)
O3D O 0.52292(15) 0.77269(22) 0.67100(13)
O3E O 0.22731(22) 0.75022(16) 0.67100(13)
O3L O -0.24978(16) 0.52292(15) 0.32900(13)
O3M O 0.47708(15) 0.22731(22) 0.32900(13)
O3N O 0.77269(22) 1.24978(16) 0.32900(13)
O4C O 0.13675(17) 0.39633(17) 0.61992(15)
O4D O 0.60367(17) 0.74041(24) 0.61992(15)
O4E O 0.25959(24) 0.86325(17) 0.61992(15)
O4L O -0.13675(17) 0.60367(17) 0.38008(15)
O4M O 0.39633(17) 0.25959(24) 0.38008(15)
O4N O 0.74041(24) 1.13675(17) 0.38008(15)
S2F S -0.3334 0.3334 0.3334
S2F_2 S 0.6666 0.3334 0.3334
S2F_3 S 0.6666 1.3334 0.3334
O5 O 0.7170(4) 0.9121(5) 0.5192(5)
O6 O 0.7916(8) 1.0269(7) 0.4133(5)
H3 H 0.7635 0.9962 0.4451
H4 H 0.7776 1.0609 0.4038
loop_
_geom_bond_atom_site_label_1
_geom_bond_atom_site_label_2
_geom_bond_site_symmetry_1
_geom_bond_site_symmetry_2
Cd1 O2 1_555 1_555
O1 C1 1_555 1_555
O2 C1 1_555 1_555
O3 C8 1_555 1_555
O4 C8 1_555 1_555
N1 Cd1 1_555 1_555
N2 S1 1_555 1_555
S1 N1 1_555 1_555
S2 Cd1 1_555 1_555
C1 C2 1_555 1_555
C2 C3 1_555 1_555
C3 H1 1_555 1_555
C4 C3 1_555 1_555
H2 C4 1_555 1_555
C5 C4 1_555 1_555
C6 N2 1_555 1_555
C7 N1 1_555 1_555
C8 C5 1_555 1_555
O6 H3 1_555 1_555
H4 O6 1_555 1_555
Cd1A S2 1_555 1_555
O1A Cd1 1_555 1_555
O2A Cd1 1_555 1_555
O3A C8A 1_555 1_555
O4A C8A 1_555 1_555
N1A Cd1A 1_555 1_555
N2A S1A 1_555 1_555
S1A N1A 1_555 1_555
C1A O1A 1_555 1_555
C2A C1A 1_555 1_555
C3A C2A 1_555 1_555
H1A C3A 1_555 1_555
C4A C3A 1_555 1_555
H2A C4A 1_555 1_555
C5A C4A 1_555 1_555
C6A N2A 1_555 1_555
C7A N1A 1_555 1_555
C8A C5A 1_555 1_555
Cd1B O1 1_555 1_555
O1B Cd1A 1_555 1_555
O2B Cd1A 1_555 1_555
O3B C8B 1_555 1_555
O4B C8B 1_555 1_555
N1B Cd1B 1_555 1_555
N2B S1B 1_555 1_555
S1B N1B 1_555 1_555
C1B O1B 1_555 1_555
C2B C1B 1_555 1_555
C3B C2B 1_555 1_555
H1B C3B 1_555 1_555
C4B C3B 1_555 1_555
H2B C4B 1_555 1_555
C5B C4B 1_555 1_555
C6B N2B 1_555 1_555
C7B N1B 1_555 1_555
C8B C5B 1_555 1_555
Cd1I O3 1_555 1_555
O1I C1I 1_555 1_555
O2I Cd1I 1_555 1_555
O3I Cd1 1_555 1_555
O4I C8I 1_555 1_555
N1I Cd1I 1_555 1_555
N2I S1I 1_555 1_555
S1I N1I 1_555 1_555
C1I O2I 1_555 1_555
C2I C1I 1_555 1_555
C3I C2I 1_555 1_555
H1I C3I 1_555 1_555
C4I C3I 1_555 1_555
H2I C4I 1_555 1_555
C5I C4I 1_555 1_555
C6I N2I 1_555 1_555
C7I N1I 1_555 1_555
C8I O3I 1_555 1_555
Cd1J O3A 1_555 1_555
O1J C1J 1_555 1_555
O2J Cd1J 1_555 1_555
O3J Cd1A 1_555 1_555
O4J C8J 1_555 1_555
N1J Cd1J 1_555 1_555
N2J S1J 1_555 1_555
S1J N1J 1_555 1_555
C1J O2J 1_555 1_555
C2J C1J 1_555 1_555
C3J C2J 1_555 1_555
H1J C3J 1_555 1_555
C4J C3J 1_555 1_555
H2J C4J 1_555 1_555
C5J C4J 1_555 1_555
C6J N2J 1_555 1_555
C7J N1J 1_555 1_555
C8J O3J 1_555 1_555
Cd1K O3B 1_555 1_555
O1K C1K 1_555 1_555
O2K Cd1K 1_555 1_555
O3K Cd1B 1_555 1_555
O4K C8K 1_555 1_555
N1K Cd1K 1_555 1_555
N2K S1K 1_555 1_555
S1K N1K 1_555 1_555
C1K O2K 1_555 1_555
C2K C1K 1_555 1_555
C3K C2K 1_555 1_555
H1K C3K 1_555 1_555
C4K C3K 1_555 1_555
H2K C4K 1_555 1_555
C5K C4K 1_555 1_555
C6K N2K 1_555 1_555
C7K N1K 1_555 1_555
C8K O3K 1_555 1_555
Cd1F O3B 1_555 1_555
Cd1G O3 1_555 1_555
Cd1H O3A 1_555 1_555
Cd1I_2 O1J 1_555 1_555
Cd1J_2 O1K 1_555 1_555
Cd1K_2 O1I 1_555 1_555
Cd1O S2 1_555 1_555
Cd1P S2 1_555 1_555
Cd1Q S2 1_555 1_555
O1I_2 Cd1K 1_555 1_555
O1J_2 Cd1I 1_555 1_555
O1K_2 Cd1J 1_555 1_555
O2I_2 Cd1K 1_555 1_555
O2J_2 Cd1I 1_555 1_555
O2K_2 Cd1J 1_555 1_555
O3C Cd1A 1_555 1_555
O3D Cd1B 1_555 1_555
O3E Cd1 1_555 1_555
O3L Cd1J 1_555 1_555
O3M Cd1K 1_555 1_555
O3N Cd1I 1_555 1_555
O4C Cd1A 1_555 1_555
O4D Cd1B 1_555 1_555
O4E Cd1 1_555 1_555
O4L Cd1J 1_555 1_555
O4M Cd1K 1_555 1_555
O4N Cd1I 1_555 1_555
S2F Cd1J 1_555 1_555
S2F_2 Cd1K 1_555 1_555
S2F_3 Cd1I 1_555 1_555
O2 Cd1B 1_555 1_555
O4 Cd1G 1_555 1_555
S2 Cd1B 1_555 1_555
C2 C7 1_555 1_555
C5 C6 1_555 1_555
C6 C7 1_555 1_555
Cd1A O2A 1_555 1_555
O2A C1A 1_555 1_555
O4A Cd1H 1_555 1_555
C2A C7A 1_555 1_555
C5A C6A 1_555 1_555
C6A C7A 1_555 1_555
Cd1B O2B 1_555 1_555
O2B C1B 1_555 1_555
O4B Cd1F 1_555 1_555
C2B C7B 1_555 1_555
C5B C6B 1_555 1_555
C6B C7B 1_555 1_555
O2I Cd1K_2 1_555 1_555
O3I Cd1P 1_555 1_555
O4I Cd1P 1_555 1_555
C2I C7I 1_555 1_555
C5I C6I 1_555 1_555
C5I C8I 1_555 1_555
C6I C7I 1_555 1_555
O2J Cd1I_2 1_555 1_555
O3J Cd1Q 1_555 1_555
O4J Cd1Q 1_555 1_555
C2J C7J 1_555 1_555
C5J C6J 1_555 1_555
C5J C8J 1_555 1_555
C6J C7J 1_555 1_555
O2K Cd1J_2 1_555 1_555
O3K Cd1O 1_555 1_555
O4K Cd1O 1_555 1_555
C2K C7K 1_555 1_555
C5K C6K 1_555 1_555
C5K C8K 1_555 1_555
C6K C7K 1_555 1_555
Cd1F S2F_2 1_555 1_555
Cd1G S2F_3 1_555 1_555
Cd1H S2F 1_555 1_555
Cd1I_2 S2F 1_555 1_555
Cd1J_2 S2F_2 1_555 1_555
Cd1K_2 S2F_3 1_555 1_555
Cd1O O3C 1_555 1_555
Cd1P O3D 1_555 1_555
Cd1Q O3E 1_555 1_555

#END
