
#######################################################################
#
#                 Cambridge Crystallographic Data Centre
#                                CCDC 
#
#######################################################################
#
# If this CIF has been generated from an entry in the Cambridge 
# Structural Database, then it will include bibliographic, chemical, 
# crystal, experimental, refinement or atomic coordinate data resulting 
# from the CCDC's data processing and validation procedures.
#
#######################################################################

data_FATQID
_chemical_formula_moiety         'C38 H22 Cu14 N2 O33 S3'
_symmetry_cell_setting           tetragonal
_symmetry_space_group_name_H-M   'P 42/m b c'
_symmetry_Int_Tables_number      135
_space_group_name_Hall           '-P 4c 2ab'
loop_
_symmetry_equiv_pos_site_id
_symmetry_equiv_pos_as_xyz
1 x,y,z
2 -y,x,1/2+z
3 -x,-y,z
4 y,-x,1/2+z
5 1/2+x,1/2-y,-z
6 1/2+y,1/2+x,1/2-z
7 1/2-x,1/2+y,-z
8 1/2-y,1/2-x,1/2-z
9 -x,-y,-z
10 y,-x,1/2-z
11 x,y,-z
12 -y,x,1/2-z
13 1/2-x,1/2+y,z
14 1/2-y,1/2-x,1/2+z
15 1/2+x,1/2-y,z
16 1/2+y,1/2+x,1/2+z
_cell_length_a                   31.236(4)
_cell_length_b                   31.236(4)
_cell_length_c                   28.194(5)
_cell_angle_alpha                90
_cell_angle_beta                 90
_cell_angle_gamma                90
_cell_volume                     27508.5
loop_
_atom_site_label
_atom_site_type_symbol
_atom_site_fract_x
_atom_site_fract_y
_atom_site_fract_z
C1 C 0.9023(2) 0.2003(2) 0.4356(2)
C2 C 0.9261(2) 0.22082(19) 0.3960(2)
C3 C 0.9129(2) 0.2599(2) 0.3781(2)
H1 H 0.8892 0.2733 0.3913
C4 C 0.9343(2) 0.2794(2) 0.3409(2)
H2 H 0.9250 0.3057 0.3293
C5 C 0.9834(2) 0.2217(2) 0.3389(3)
H3 H 1.0073 0.2082 0.3262
C6 C 0.9613(2) 0.2026(2) 0.3769(3)
H4 H 0.9711 0.1768 0.3891
C7 C 0.9702(2) 0.2593(2) 0.3207(2)
C8 C 0.9963(2) 0.3242(2) 0.2779(2)
H5 H 0.9836 0.3407 0.3016
C9 C 0.9927(2) 0.27969(19) 0.2804(2)
C10 C 1.0122(2) 0.2556(2) 0.2446(2)
H6 H 1.0107 0.2259 0.2455
C11 C 1.0342(2) 0.2760(2) 0.2074(2)
C12 C 1.0350(2) 0.32044(19) 0.2083(2)
H7 H 1.0487 0.3347 0.1837
C13 C 1.0567(2) 0.25171(19) 0.1702(2)
C14 C 1.0407(3) 0.2138(2) 0.1553(3)
H8 H 1.0159 0.2032 0.1692
C15 C 1.0610(3) 0.1898(2) 0.1189(3)
H9 H 1.0492 0.1642 0.1084
C16 C 1.0990(2) 0.2052(2) 0.0993(2)
C17 C 1.1140(2) 0.2432(2) 0.1150(3)
H10 H 1.1389 0.2544 0.1017
C18 C 1.0933(2) 0.2659(2) 0.1505(3)
H11 H 1.1050 0.2915 0.1611
C19 C 1.1218(2) 0.1802(2) 0.0632(2)
O1 O 1.15695(16) 0.19510(14) 0.04884(15)
O2 O 1.10478(14) 0.14601(15) 0.04909(15)
Cu1 Cu 0.83302(3) 0.19247(3) 0.5000
Cu2 Cu 0.89026(3) 0.13060(3) 0.5000
Cu3 Cu 1.02158(2) 0.40859(2) 0.24561(2)
Cu4 Cu 1.0000 0.5000 0.29964(3)
N1 N 1.01703(17) 0.34408(15) 0.24286(17)
O3 O 0.86918(14) 0.21796(13) 0.45075(14)
O4 O 0.91733(14) 0.16539(15) 0.45027(15)
O5 O 0.7829(3) 0.2396(2) 0.5000
O6 O 0.9366(3) 0.0802(3) 0.5000
O7 O 1.02991(11) 0.47009(11) 0.2500
O8 O 1.03438(19) 0.40016(15) 0.31434(17)
O9 O 1.02586(15) 0.46813(15) 0.35192(15)
O10 O 1.09350(15) 0.4476(2) 0.31931(18)
O11 O 1.06743(17) 0.41386(16) 0.38886(16)
O12 O 0.95894(16) 0.41900(17) 0.2208(2)
O13 O 0.9186(2) 0.38253(19) 0.2818(3)
S1 S 1.05600(5) 0.43211(6) 0.34416(5)
S2 S 0.91945(6) 0.41945(6) 0.2500
O12E O 0.91900(17) 0.45894(16) 0.2792(2)
O13E O 0.88253(19) 0.4186(2) 0.2182(3)
C1B C 1.0977(2) 0.7997(2) 0.4356(2)
C2B C 1.0739(2) 0.77918(19) 0.3960(2)
C3B C 1.0871(2) 0.7401(2) 0.3781(2)
H1B H 1.1108 0.7267 0.3913
C4B C 1.0657(2) 0.7206(2) 0.3409(2)
H2B H 1.0750 0.6943 0.3293
C5B C 1.0166(2) 0.7783(2) 0.3389(3)
H3B H 0.9927 0.7918 0.3262
C6B C 1.0387(2) 0.7974(2) 0.3769(3)
H4B H 1.0289 0.8232 0.3891
C7B C 1.0298(2) 0.7407(2) 0.3207(2)
C8B C 1.0037(2) 0.6758(2) 0.2779(2)
H5B H 1.0164 0.6593 0.3016
C9B C 1.0073(2) 0.72031(19) 0.2804(2)
C10B C 0.9878(2) 0.7444(2) 0.2446(2)
H6B H 0.9893 0.7741 0.2455
C11B C 0.9658(2) 0.7240(2) 0.2074(2)
C12B C 0.9650(2) 0.67956(19) 0.2083(2)
H7B H 0.9513 0.6653 0.1837
C13B C 0.9433(2) 0.74829(19) 0.1702(2)
C14B C 0.9593(3) 0.7862(2) 0.1553(3)
H8B H 0.9841 0.7968 0.1692
C15B C 0.9390(3) 0.8102(2) 0.1189(3)
H9B H 0.9508 0.8358 0.1084
C16B C 0.9010(2) 0.7948(2) 0.0993(2)
C17B C 0.8860(2) 0.7568(2) 0.1150(3)
H10B H 0.8611 0.7456 0.1017
C18B C 0.9067(2) 0.7341(2) 0.1505(3)
H11B H 0.8950 0.7085 0.1611
C19B C 0.8782(2) 0.8198(2) 0.0632(2)
O1B O 0.84305(16) 0.80490(14) 0.04884(15)
O2B O 0.89522(14) 0.85399(15) 0.04909(15)
Cu3B Cu 0.97842(2) 0.59141(2) 0.24561(2)
N1B N 0.98297(17) 0.65592(15) 0.24286(17)
O3B O 1.13082(14) 0.78204(13) 0.45075(14)
O4B O 1.08267(14) 0.83461(15) 0.45027(15)
O8B O 0.96562(19) 0.59984(15) 0.31434(17)
O9B O 0.97414(15) 0.53187(15) 0.35192(15)
O10B O 0.90650(15) 0.5524(2) 0.31931(18)
O11B O 0.93257(17) 0.58614(16) 0.38886(16)
S1B S 0.94400(5) 0.56789(6) 0.34416(5)
O1A O 0.80490(14) 0.15695(16) 0.54884(15)
O1K O 0.80490(14) 0.15695(16) 0.45116(15)
O2A O 0.85399(15) 0.10478(14) 0.54909(15)
O2K O 0.85399(15) 0.10478(14) 0.45091(15)
Cu1A Cu 0.80753(3) 0.83302(3) 0.0000
Cu1B Cu 1.16698(3) 0.80753(3) 0.5000
Cu1C Cu 1.19247(3) 0.16698(3) 0.0000
Cu2A Cu 0.86940(3) 0.89026(3) 0.0000
Cu2B Cu 1.10974(3) 0.86940(3) 0.5000
Cu2C Cu 1.13060(3) 0.10974(3) 0.0000
Cu3E Cu 0.90859(2) 0.52158(2) 0.25439(2)
Cu3G Cu 1.09141(2) 0.47842(2) 0.25439(2)
Cu4E Cu 1.0000 0.5000 0.20036(3)
O3J O 0.86918(14) 0.21796(13) 0.54925(14)
O4J O 0.91733(14) 0.16539(15) 0.54973(15)
O7B O 0.97009(11) 0.52991(11) 0.2500
O10E O 0.9476(2) 0.59350(15) 0.18069(18)
O10G O 1.0524(2) 0.40650(15) 0.18069(18)
O12B O 1.04106(16) 0.58100(17) 0.2208(2)
loop_
_geom_bond_atom_site_label_1
_geom_bond_atom_site_label_2
_geom_bond_site_symmetry_1
_geom_bond_site_symmetry_2
C1 C2 1_555 1_555
C2 C3 1_555 1_555
C3 H1 1_555 1_555
C4 C3 1_555 1_555
H2 C4 1_555 1_555
C5 H3 1_555 1_555
C6 C2 1_555 1_555
H4 C6 1_555 1_555
C7 C4 1_555 1_555
C8 H5 1_555 1_555
C9 C7 1_555 1_555
C10 C9 1_555 1_555
H6 C10 1_555 1_555
C11 C10 1_555 1_555
C12 C11 1_555 1_555
H7 C12 1_555 1_555
C13 C11 1_555 1_555
C14 C13 1_555 1_555
H8 C14 1_555 1_555
C15 C14 1_555 1_555
H9 C15 1_555 1_555
C16 C15 1_555 1_555
C17 C16 1_555 1_555
H10 C17 1_555 1_555
C18 C13 1_555 1_555
H11 C18 1_555 1_555
C19 C16 1_555 1_555
O1 C19 1_555 1_555
O2 C19 1_555 1_555
Cu1 O3 1_555 1_555
Cu2 O4 1_555 1_555
Cu3 N1 1_555 1_555
Cu4 O7 1_555 1_555
N1 C8 1_555 1_555
O3 C1 1_555 1_555
O4 C1 1_555 1_555
O5 Cu1 1_555 1_555
O6 Cu2 1_555 1_555
O7 Cu3 1_555 1_555
O8 Cu3 1_555 1_555
O9 Cu4 1_555 1_555
O10 S1 1_555 1_555
O11 S1 1_555 1_555
O12 Cu3 1_555 1_555
O13 S2 1_555 1_555
S1 O8 1_555 1_555
S2 O12 1_555 1_555
O12E S2 1_555 1_555
O13E S2 1_555 1_555
C1B C2B 1_555 1_555
C2B C3B 1_555 1_555
C3B H1B 1_555 1_555
C4B C3B 1_555 1_555
H2B C4B 1_555 1_555
C5B H3B 1_555 1_555
C6B C2B 1_555 1_555
H4B C6B 1_555 1_555
C7B C4B 1_555 1_555
C8B H5B 1_555 1_555
C9B C7B 1_555 1_555
C10B C9B 1_555 1_555
H6B C10B 1_555 1_555
C11B C10B 1_555 1_555
C12B C11B 1_555 1_555
H7B C12B 1_555 1_555
C13B C11B 1_555 1_555
C14B C13B 1_555 1_555
H8B C14B 1_555 1_555
C15B C14B 1_555 1_555
H9B C15B 1_555 1_555
C16B C15B 1_555 1_555
C17B C16B 1_555 1_555
H10B C17B 1_555 1_555
C18B C13B 1_555 1_555
H11B C18B 1_555 1_555
C19B C16B 1_555 1_555
O1B C19B 1_555 1_555
O2B C19B 1_555 1_555
Cu3B N1B 1_555 1_555
N1B C8B 1_555 1_555
O3B C1B 1_555 1_555
O4B C1B 1_555 1_555
O8B Cu3B 1_555 1_555
O9B Cu4 1_555 1_555
O10B S1B 1_555 1_555
O11B S1B 1_555 1_555
S1B O8B 1_555 1_555
O1A Cu1 1_555 1_555
O1K Cu1 1_555 1_555
O2A Cu2 1_555 1_555
O2K Cu2 1_555 1_555
Cu1A O1B 1_555 1_555
Cu1B O3B 1_555 1_555
Cu1C O1 1_555 1_555
Cu2A O2B 1_555 1_555
Cu2B O4B 1_555 1_555
Cu2C O2 1_555 1_555
Cu3E O12E 1_555 1_555
Cu3G O7 1_555 1_555
Cu4E O7 1_555 1_555
O3J Cu1 1_555 1_555
O4J Cu2 1_555 1_555
O7B Cu4 1_555 1_555
O10E Cu3B 1_555 1_555
O10G Cu3 1_555 1_555
O12B Cu3B 1_555 1_555
C5 C6 1_555 1_555
C5 C7 1_555 1_555
C8 C9 1_555 1_555
C12 N1 1_555 1_555
C17 C18 1_555 1_555
O9 S1 1_555 1_555
O10 Cu3G 1_555 1_555
C5B C6B 1_555 1_555
C5B C7B 1_555 1_555
C8B C9B 1_555 1_555
C12B N1B 1_555 1_555
C17B C18B 1_555 1_555
Cu3B O7B 1_555 1_555
O9B S1B 1_555 1_555
O10B Cu3E 1_555 1_555
Cu3E O7B 1_555 1_555
Cu4E O7B 1_555 1_555

#END
