
#######################################################################
#
#                 Cambridge Crystallographic Data Centre
#                                CCDC 
#
#######################################################################
#
# If this CIF has been generated from an entry in the Cambridge 
# Structural Database, then it will include bibliographic, chemical, 
# crystal, experimental, refinement or atomic coordinate data resulting 
# from the CCDC's data processing and validation procedures.
#
#######################################################################

data_CUPHUS
_chemical_formula_moiety         '(C50 H62 Cl4 Cu2 N8 O21 S5)n'
_symmetry_cell_setting           orthorhombic
_symmetry_space_group_name_H-M   'P b c a'
_symmetry_Int_Tables_number      61
_space_group_name_Hall           '-P 2ac 2ab'
loop_
_symmetry_equiv_pos_site_id
_symmetry_equiv_pos_as_xyz
1 x,y,z
2 1/2-x,-y,1/2+z
3 1/2+x,1/2-y,-z
4 -x,1/2+y,1/2-z
5 -x,-y,-z
6 1/2+x,y,1/2-z
7 1/2-x,1/2+y,z
8 x,1/2-y,1/2+z
_cell_length_a                   18.0973(2)
_cell_length_b                   28.4369(4)
_cell_length_c                   28.5016(3)
_cell_angle_alpha                90
_cell_angle_beta                 90
_cell_angle_gamma                90
_cell_volume                     14667.8
loop_
_atom_site_label
_atom_site_type_symbol
_atom_site_fract_x
_atom_site_fract_y
_atom_site_fract_z
_atom_site_U_iso_or_equiv
_atom_site_thermal_displace_type
Cu1 Cu 0.98439(5) 0.24352(3) 0.76392(2) 0.0388 Uani
Cu2 Cu 0.74176(4) 0.48614(2) 0.50309(2) 0.0354 Uani
Cl1 Cl 1.17048(18) 0.30716(13) 0.78321(12) 0.1038 Uani
N1 N 0.5325(3) 0.29336(16) 0.28897(15) 0.0348 Uani
N2 N 0.9399(3) 0.28653(17) 0.71588(15) 0.0388 Uani
S1 S 0.56884(18) 0.49795(14) 0.58542(14) 0.1049 Uani
N3 N 0.7866(3) 0.43611(16) 0.54502(17) 0.0360 Uani
N4 N 0.9649(3) 0.70338(18) 0.68782(16) 0.0377 Uani
N5 N 0.6888(3) 0.43612(16) 0.46496(17) 0.0380 Uani
N6 N 0.9388(3) 0.28440(18) 0.81493(16) 0.0400 Uani
S2 S 0.9143(3) 0.4627(2) 0.42716(17) 0.0857 Uani
N7 N 0.8017(3) 0.46264(17) 0.96243(16) 0.0383 Uani
N8 N 0.7929(3) 0.53639(17) 0.54142(16) 0.0370 Uani
C1 C 0.8812(4) 0.3503(2) 0.8767(2) 0.0390 Uani
C2 C 0.8971(4) 0.6405(2) 0.6261(2) 0.0417 Uani
C3 C 0.8787(4) 0.3448(2) 0.6481(2) 0.0400 Uani
C4 C 0.6016(4) 0.2976(2) 0.3603(2) 0.0460 Uani
H1 H 0.6286 0.2819 0.3833 0.0550 Uiso
C5 C 0.9808(4) 0.3028(3) 0.8490(2) 0.0463 Uani
H2 H 1.0299 0.2935 0.8515 0.0560 Uiso
C6 C 0.6234(4) 0.3747(2) 0.4007(2) 0.0380 Uani
C7 C 0.8464(4) 0.3764(2) 0.6119(2) 0.0417 Uani
C8 C 0.8367(4) 0.3302(3) 0.8418(2) 0.0487 Uani
H3 H 0.7874 0.3389 0.8387 0.0580 Uiso
C9 C 0.7721(4) 0.3737(2) 0.6001(2) 0.0423 Uani
H4 H 0.7415 0.3517 0.6144 0.0510 Uiso
C10 C 0.8942(4) 0.2695(2) 0.6836(2) 0.0463 Uani
H5 H 0.8845 0.2374 0.6835 0.0560 Uiso
C11 C 0.6183(4) 0.4399(2) 0.4538(2) 0.0453 Uani
H6 H 0.5903 0.4634 0.4679 0.0540 Uiso
C12 C 0.8185(4) 0.5698(2) 0.6166(2) 0.0487 Uani
H7 H 0.8117 0.5692 0.6490 0.0580 Uiso
C13 C 0.8533(4) 0.3896(2) 0.9069(2) 0.0410 Uani
C14 C 0.7267(4) 0.4003(2) 0.4466(2) 0.0430 Uani
H8 H 0.7755 0.3961 0.4558 0.0520 Uiso
C15 C 0.5707(4) 0.2730(2) 0.3233(2) 0.0437 Uani
H9 H 0.5770 0.2406 0.3224 0.0520 Uiso
C16 C 0.8604(4) 0.2976(2) 0.6500(2) 0.0460 Uani
H10 H 0.8261 0.2850 0.6293 0.0550 Uiso
C17 C 1.0019(4) 0.6848(2) 0.6516(2) 0.0387 Uani
H11 H 1.0512 0.6932 0.6475 0.0470 Uiso
C18 C 0.8903(4) 0.4080(3) 0.5884(2) 0.0503 Uani
H12 H 0.9407 0.4097 0.5947 0.0600 Uiso
C19 C 0.5840(4) 0.4102(2) 0.4219(2) 0.0480 Uani
H13 H 0.5343 0.4143 0.4147 0.0580 Uiso
C20 C 0.9702(4) 0.6538(2) 0.6200(2) 0.0430 Uani
H14 H 0.9976 0.6421 0.5949 0.0510 Uiso
C21 C 0.8592(4) 0.6602(3) 0.6625(2) 0.0493 Uani
H15 H 0.8097 0.6529 0.6673 0.0590 Uiso
C22 C 0.8612(4) 0.6040(2) 0.5962(2) 0.0407 Uani
C23 C 0.7440(4) 0.4044(2) 0.5665(2) 0.0400 Uani
H16 H 0.6941 0.4027 0.5589 0.0480 Uiso
C24 C 0.8681(5) 0.3911(2) 0.9547(2) 0.0483 Uani
H17 H 0.8964 0.3677 0.9687 0.0580 Uiso
C25 C 0.9271(4) 0.3630(2) 0.6820(2) 0.0497 Uani
H18 H 0.9391 0.3948 0.6822 0.0590 Uiso
C26 C 0.8585(4) 0.4373(2) 0.5555(2) 0.0463 Uani
H19 H 0.8885 0.4587 0.5399 0.0550 Uiso
C27 C 0.6969(4) 0.3694(2) 0.4146(2) 0.0467 Uani
H20 H 0.7255 0.3452 0.4023 0.0560 Uiso
C28 C 0.8950(4) 0.6913(3) 0.6922(2) 0.0470 Uani
H21 H 0.8681 0.7044 0.7167 0.0560 Uiso
C29 C 0.5511(4) 0.3673(2) 0.3272(2) 0.0450 Uani
H22 H 0.5427 0.3996 0.3281 0.0540 Uiso
C30 C 0.5233(4) 0.3406(2) 0.2909(2) 0.0420 Uani
H23 H 0.4974 0.3556 0.2669 0.0500 Uiso
C31 C 0.8702(5) 0.6037(2) 0.5477(2) 0.0483 Uani
H24 H 0.8998 0.6260 0.5329 0.0580 Uiso
C32 C 0.9564(4) 0.3332(2) 0.7150(2) 0.0447 Uani
H25 H 0.9886 0.3452 0.7374 0.0540 Uiso
C33 C 0.5919(4) 0.3457(2) 0.3627(2) 0.0387 Uani
C34 C 0.8671(4) 0.2976(2) 0.8122(2) 0.0437 Uani
H26 H 0.8374 0.2840 0.7893 0.0520 Uiso
C35 C 0.9531(4) 0.3351(2) 0.8805(2) 0.0437 Uani
H27 H 0.9832 0.3467 0.9043 0.0530 Uiso
C36 C 0.8342(4) 0.5695(2) 0.5222(2) 0.0453 Uani
H28 H 0.8391 0.5698 0.4897 0.0540 Uiso
C37 C 0.8121(5) 0.4258(3) 0.8881(2) 0.0527 Uani
H29 H 0.8000 0.4257 0.8564 0.0630 Uiso
C38 C 0.7858(4) 0.5362(2) 0.5883(2) 0.0463 Uani
H30 H 0.7578 0.5127 0.6023 0.0560 Uiso
S3 S 0.8109(2) 0.16828(15) 0.75037(14) 0.0627 Uani
O1 O 0.8825(3) 0.1923(2) 0.76458(19) 0.0607 Uani
O2 O 0.6358(3) 0.4890(2) 0.5577(2) 0.0627 Uani
O3 O 0.8494(3) 0.4795(2) 0.4540(2) 0.0637 Uani
O4 O 1.1024(3) 0.2981(2) 0.7640(2) 0.0770 Uani
C39 C 0.8406(5) 0.4275(2) 0.9807(2) 0.0497 Uani
H31 H 0.8495 0.4277 1.0129 0.0590 Uiso
C40 C 0.7891(5) 0.4618(2) 0.9161(2) 0.0523 Uani
H32 H 0.7637 0.4867 0.9026 0.0630 Uiso
O5 O 1.1724(7) 0.2914(5) 0.8298(3) 0.0990 Uani
C41 C 0.8306(13) 0.1098(5) 0.7387(8) 0.1023 Uani
H33 H 0.8745 0.1078 0.7199 0.1540 Uiso
H34 H 0.7900 0.0959 0.7220 0.1540 Uiso
H35 H 0.8381 0.0933 0.7677 0.1540 Uiso
O6 O 1.2180(7) 0.2713(6) 0.7591(5) 0.1430 Uani
C42 C 0.5919(10) 0.5249(6) 0.6393(5) 0.1307 Uani
H36 H 0.6223 0.5040 0.6574 0.1960 Uiso
H37 H 0.5475 0.5318 0.6564 0.1960 Uiso
H38 H 0.6184 0.5535 0.6334 0.1960 Uiso
C43 C 0.8813(8) 0.4388(5) 0.3746(5) 0.1197 Uani
H39 H 0.9222 0.4275 0.3563 0.1790 Uiso
H40 H 0.8484 0.4133 0.3813 0.1790 Uiso
H41 H 0.8554 0.4626 0.3573 0.1790 Uiso
C44 C 0.5391(12) 0.4441(7) 0.6054(8) 0.1840 Uani
H42 H 0.5334 0.4230 0.5793 0.2760 Uiso
H43 H 0.4925 0.4477 0.6211 0.2760 Uiso
H44 H 0.5748 0.4315 0.6269 0.2760 Uiso
O7 O 1.2012(9) 0.3473(4) 0.7759(6) 0.1587 Uani
C45 C 0.7572(16) 0.1650(10) 0.8005(9) 0.1383 Uani
H45 H 0.7844 0.1494 0.8248 0.2070 Uiso
H46 H 0.7129 0.1477 0.7939 0.2070 Uiso
H47 H 0.7445 0.1962 0.8106 0.2070 Uiso
C46 C 0.9804(11) 0.4922(15) 0.4268(12) 0.1450 Uani
H48 H 0.9938 0.5242 0.4332 0.2190 Uiso
H49 H 1.0100 0.4804 0.4014 0.2190 Uiso
H50 H 0.9888 0.4733 0.4542 0.2190 Uiso
Cu1B Cu 0.48439(5) 0.25648(3) 0.23608(2) 0.0388 Uani
Cu1C Cu 1.01561(5) 0.74352(3) 0.73608(2) 0.0388 Uani
Cu2A Cu 0.75824(4) 0.51386(2) 1.00309(2) 0.0354 Uani
N1B N 1.0325(3) 0.20664(16) 0.71103(15) 0.0348 Uani
N4C N 1.0351(3) 0.20338(18) 0.81218(16) 0.0377 Uani
N7A N 0.6983(3) 0.53736(17) 0.46243(16) 0.0383 Uani
S6 S 0.6205(2) 0.30349(12) 0.52100(13) 0.1027 Uani
O11 O 0.5974(5) 0.3418(4) 0.5517(4) 0.1297 Uani
C50 C 0.5443(10) 0.2868(6) 0.4894(6) 0.1433 Uani
H63 H 0.5046 0.2794 0.5105 0.2150 Uiso
H64 H 0.5561 0.2596 0.4709 0.2150 Uiso
H65 H 0.5295 0.3120 0.4691 0.2150 Uiso
C51 C 0.6297(10) 0.2558(6) 0.5565(5) 0.1303 Uani
H66 H 0.6298 0.2658 0.5887 0.1950 Uiso
H67 H 0.6753 0.2400 0.5496 0.1950 Uiso
H68 H 0.5891 0.2347 0.5514 0.1950 Uiso
Cl2 Cl 0.64031(16) 0.66250(9) 0.59038(8) 0.0759 Uani
O12 O 0.5990(9) 0.6278(6) 0.5741(6) 0.2020 Uani
O13 O 0.6559(11) 0.6615(6) 0.6363(5) 0.2140 Uani
O14 O 0.6967(9) 0.6545(7) 0.5634(6) 0.2167 Uani
O15 O 0.6066(12) 0.7037(6) 0.5847(7) 0.2433 Uani
Cl3 Cl 0.1090(2) 0.34093(11) 0.58428(11) 0.0989 Uani
O16 O 0.0575(7) 0.3680(5) 0.5612(5) 0.2570 Uani
O17 O 0.1757(6) 0.3647(5) 0.5795(6) 0.2580 Uani
O18 O 0.1167(10) 0.2990(4) 0.5606(6) 0.2823 Uani
O19 O 0.0921(10) 0.3344(6) 0.6296(3) 0.2827 Uani
S7 S 0.62672(19) 0.77743(15) 0.45192(12) 0.1080 Uani
O20 O 0.6423(5) 0.8200(5) 0.4219(4) 0.1443 Uani
C52 C 0.6241(12) 0.8012(6) 0.5085(6) 0.1473 Uani
H69 H 0.6440 0.8324 0.5079 0.2210 Uiso
H70 H 0.6530 0.7819 0.5292 0.2210 Uiso
H71 H 0.5739 0.8022 0.5193 0.2210 Uiso
C53 C 0.7101(10) 0.7437(7) 0.4566(6) 0.1450 Uani
H72 H 0.7188 0.7273 0.4277 0.2180 Uiso
H73 H 0.7054 0.7214 0.4818 0.2180 Uiso
H74 H 0.7509 0.7644 0.4630 0.2180 Uiso
Cl4 Cl 0.5535(3) 0.46952(19) 0.22577(18) 0.1473 Uani
O21 O 0.6234(7) 0.4495(6) 0.2339(4) 0.1870 Uani
O22 O 0.5541(9) 0.5063(5) 0.1959(5) 0.2120 Uani
O23 O 0.5080(9) 0.4346(5) 0.2097(8) 0.2607 Uani
O24 O 0.5214(10) 0.4793(7) 0.2668(5) 0.2573 Uani
loop_
_atom_site_aniso_label
_atom_site_aniso_U_11
_atom_site_aniso_U_22
_atom_site_aniso_U_33
_atom_site_aniso_U_23
_atom_site_aniso_U_13
_atom_site_aniso_U_12
Cu1 0.0596(5) 0.0396(4) 0.0173(3) -0.0030(2) -0.0055(3) 0.0331(3)
Cu2 0.0537(5) 0.0192(3) 0.0334(4) -0.0007(2) -0.0268(3) 0.0023(3)
Cl1 0.0833(19) 0.123(2) 0.105(2) 0.0156(18) -0.0269(16) -0.0270(17)
N1 0.055 0.028 0.0213 -0.0019 0.0014 -0.0186
N2 0.057(3) 0.037(2) 0.0223(19) -0.0031(16) -0.0094(19) 0.019(2)
S1 0.0737(19) 0.119(3) 0.122(2) -0.012(2) 0.0009(17) 0.0141(17)
N3 0.044(3) 0.029(2) 0.035(2) 0.0040(17) -0.0187(19) 0.0013(18)
N4 0.05 0.038 0.025 -0.005 0.0005 -0.023
N5 0.047(3) 0.028(2) 0.039(2) -0.0058(17) -0.024(2) 0.0067(19)
N6 0.053(3) 0.041(3) 0.026(2) -0.0075(18) -0.0048(18) 0.021(2)
S2 0.070(3) 0.101(4) 0.086(3) -0.005(2) 0.004(2) 0.013(2)
N7 0.055 0.029 0.031 0.0004 0.023 0.007
N8 0.051(3) 0.029(2) 0.031(2) 0.0006(16) -0.0195(19) -0.008(2)
C1 0.048(3) 0.036(3) 0.033(3) -0.010(2) 0.001(2) 0.011(2)
C2 0.051(3) 0.042(3) 0.032(3) -0.007(2) -0.005(2) -0.017(3)
C3 0.048(3) 0.034(3) 0.038(3) 0.005(2) -0.015(2) 0.009(2)
C4 0.071(5) 0.033(3) 0.034(3) -0.003(2) -0.016(3) -0.004(3)
C5 0.050(4) 0.060(4) 0.029(3) -0.012(2) -0.007(2) 0.024(3)
C6 0.047(3) 0.032(3) 0.035(3) -0.007(2) -0.016(2) 0.001(2)
C7 0.048(3) 0.036(3) 0.041(3) 0.003(2) -0.018(2) 0.009(2)
C8 0.046(3) 0.055(4) 0.045(3) -0.017(3) -0.004(3) 0.022(3)
C9 0.046(3) 0.036(3) 0.045(3) 0.013(2) -0.018(2) 0.000(2)
C10 0.075(4) 0.030(3) 0.034(3) 0.001(2) -0.017(3) 0.015(3)
C11 0.049(3) 0.037(3) 0.050(3) -0.018(3) -0.020(3) 0.012(2)
C12 0.061(4) 0.053(3) 0.032(3) -0.007(2) -0.009(3) -0.024(3)
C13 0.050(4) 0.039(3) 0.034(3) -0.010(2) 0.007(2) 0.012(2)
C14 0.047(3) 0.034(3) 0.048(3) -0.009(2) -0.023(3) 0.008(2)
C15 0.071 0.03 0.03 -0.002 -0.008 -0.008
C16 0.062(4) 0.038(3) 0.038(3) 0.004(2) -0.020(3) 0.008(3)
C17 0.041 0.044 0.031 -0.005 0.001 -0.02
C18 0.046(3) 0.051(3) 0.054(3) 0.017(3) -0.025(3) -0.002(3)
C19 0.048(4) 0.043(3) 0.053(3) -0.017(3) -0.025(3) 0.006(3)
C20 0.050(3) 0.047(3) 0.032(3) -0.012(2) -0.002(2) -0.017(3)
C21 0.046(4) 0.055(4) 0.047(3) -0.016(3) 0.001(3) -0.024(3)
C22 0.050(4) 0.037(3) 0.035(3) -0.006(2) -0.008(2) -0.014(3)
C23 0.043(3) 0.031(3) 0.046(3) 0.006(2) -0.020(2) 0.002(2)
C24 0.078(5) 0.032(3) 0.035(3) -0.006(2) 0.006(3) 0.018(3)
C25 0.061(4) 0.038(3) 0.050(3) 0.005(2) -0.025(3) 0.005(3)
C26 0.045(3) 0.045(3) 0.049(3) 0.014(3) -0.021(3) -0.001(3)
C27 0.056(4) 0.038(3) 0.046(3) -0.015(3) -0.022(3) 0.011(3)
C28 0.05 0.058 0.033 -0.011 0.005 -0.025
C29 0.059(4) 0.028(3) 0.048(3) -0.007(2) -0.021(3) -0.003(3)
C30 0.057 0.037 0.032 0.002 -0.016 -0.013
C31 0.076(5) 0.036(3) 0.033(3) -0.002(2) -0.009(3) -0.020(3)
C32 0.054(4) 0.038(3) 0.042(3) -0.002(2) -0.020(3) 0.012(2)
C33 0.046(3) 0.034(3) 0.036(3) -0.012(2) -0.012(2) -0.004(2)
C34 0.051(3) 0.045(3) 0.035(3) -0.014(2) -0.008(2) 0.022(3)
C35 0.045(3) 0.049(3) 0.037(3) -0.018(3) -0.005(2) 0.012(3)
C36 0.069(4) 0.035(3) 0.032(3) 0.001(2) -0.009(3) -0.012(3)
C37 0.069(5) 0.053(3) 0.036(3) -0.005(2) 0.005(3) 0.023(3)
C38 0.063(4) 0.044(3) 0.032(3) -0.002(2) -0.009(2) -0.025(3)
S3 0.055(2) 0.079(3) 0.054(2) 0.0064(18) -0.0046(16) 0.0016(18)
O1 0.063(3) 0.064(3) 0.055(3) -0.004(2) 0.002(2) 0.004(2)
O2 0.066(3) 0.056(3) 0.066(3) 0.001(2) -0.004(2) 0.000(2)
O3 0.061(3) 0.071(3) 0.059(3) -0.002(2) -0.008(2) 0.001(3)
O4 0.072(3) 0.088(4) 0.071(4) 0.003(3) -0.013(3) -0.003(3)
C39 0.085(5) 0.032(3) 0.032(3) -0.004(2) 0.011(3) 0.014(3)
C40 0.076(5) 0.044(3) 0.037(3) -0.001(2) 0.008(3) 0.024(3)
O5 0.088(9) 0.126(10) 0.083(6) 0.000(5) -0.021(5) -0.004(7)
C41 0.099(13) 0.090(7) 0.118(15) -0.018(8) -0.017(10) -0.005(7)
O6 0.130(10) 0.156(11) 0.143(11) 0.009(8) 0.016(8) 0.017(8)
C42 0.151(13) 0.130(10) 0.111(8) -0.016(7) 0.025(7) 0.001(9)
C43 0.107(9) 0.149(9) 0.103(7) -0.021(7) 0.014(6) 0.001(7)
C44 0.181(17) 0.154(10) 0.217(17) -0.008(10) 0.081(14) -0.042(10)
O7 0.159(14) 0.140(8) 0.177(15) 0.022(8) -0.005(11) -0.043(8)
C45 0.124(13) 0.177(18) 0.114(13) -0.008(11) 0.048(11) -0.016(12)
C46 0.097(9) 0.19(3) 0.148(19) -0.017(18) 0.002(9) -0.012(10)
Cu1B 0.0596 0.0396 0.0173 -0.003 0.0055 -0.0331
Cu1C 0.0596 0.0396 0.0173 0.003 -0.0055 -0.0331
Cu2A 0.0537 0.0192 0.0334 0.0007 0.0268 0.0023
N1B 0.055 0.028 0.0213 -0.0019 -0.0014 0.0186
N4C 0.05 0.038 0.025 0.005 0.0005 0.023
N7A 0.055 0.029 0.031 -0.0004 -0.023 0.007
S6 0.094(2) 0.100(2) 0.114(2) 0.0021(17) 0.0453(18) -0.0164(17)
O11 0.093(6) 0.121(6) 0.175(8) -0.037(6) 0.043(6) -0.027(5)
C50 0.143(10) 0.134(12) 0.153(11) -0.013(9) 0.010(8) -0.022(9)
C51 0.142(12) 0.132(8) 0.117(9) 0.009(7) 0.046(8) -0.018(7)
Cl2 0.0897(17) 0.0736(14) 0.0644(12) -0.0132(10) 0.0017(11) 0.0030(12)
O12 0.210(10) 0.192(9) 0.204(11) -0.089(9) 0.036(8) -0.054(8)
O13 0.299(16) 0.223(13) 0.120(6) -0.032(6) -0.031(7) 0.021(11)
O14 0.177(9) 0.276(15) 0.197(10) -0.074(10) 0.039(8) -0.013(8)
O15 0.298(16) 0.172(8) 0.260(15) -0.040(8) -0.061(12) 0.070(9)
Cl3 0.126(3) 0.0816(17) 0.0890(18) 0.0142(14) 0.0231(17) -0.0073(17)
O16 0.238(12) 0.287(15) 0.246(14) 0.083(12) 0.037(10) 0.063(11)
O17 0.229(10) 0.246(14) 0.299(18) 0.059(13) 0.008(10) -0.053(10)
O18 0.32(2) 0.213(10) 0.314(17) -0.072(11) 0.007(14) 0.013(10)
O19 0.42(2) 0.248(17) 0.180(8) 0.038(8) 0.076(9) -0.007(15)
S7 0.088(2) 0.144(3) 0.092(2) 0.0151(19) -0.0186(16) -0.048(2)
O20 0.094(6) 0.198(8) 0.141(7) 0.073(7) -0.035(5) -0.049(6)
C52 0.189(16) 0.124(11) 0.129(8) 0.006(7) -0.019(8) -0.019(10)
C53 0.136(10) 0.176(12) 0.123(11) 0.014(9) -0.025(8) -0.011(9)
Cl4 0.129(4) 0.168(4) 0.145(4) 0.043(3) -0.020(3) -0.025(3)
O21 0.182(8) 0.239(13) 0.140(9) -0.007(9) -0.035(7) 0.028(8)
O22 0.189(13) 0.221(10) 0.226(12) 0.090(10) -0.014(10) -0.009(9)
O23 0.227(13) 0.242(12) 0.313(16) 0.040(10) -0.086(12) -0.060(10)
O24 0.291(16) 0.267(16) 0.214(10) 0.041(9) 0.060(10) 0.023(12)
loop_
_geom_bond_atom_site_label_1
_geom_bond_atom_site_label_2
_geom_bond_site_symmetry_1
_geom_bond_site_symmetry_2
Cu1 N2 1_555 1_555
Cu2 N3 1_555 1_555
Cl1 O4 1_555 1_555
N1 C15 1_555 1_555
N2 C10 1_555 1_555
S1 O2 1_555 1_555
N3 C23 1_555 1_555
N4 C17 1_555 1_555
N5 Cu2 1_555 1_555
N6 Cu1 1_555 1_555
S2 O3 1_555 1_555
N7 C39 1_555 1_555
N8 Cu2 1_555 1_555
C1 C8 1_555 1_555
C2 C20 1_555 1_555
C3 C7 1_555 1_555
C4 H1 1_555 1_555
C5 N6 1_555 1_555
H2 C5 1_555 1_555
C6 C19 1_555 1_555
C7 C9 1_555 1_555
C8 H3 1_555 1_555
C9 H4 1_555 1_555
C10 H5 1_555 1_555
C11 N5 1_555 1_555
H6 C11 1_555 1_555
C12 H7 1_555 1_555
C13 C1 1_555 1_555
C14 N5 1_555 1_555
H8 C14 1_555 1_555
C15 C4 1_555 1_555
H9 C15 1_555 1_555
C16 C3 1_555 1_555
H10 C16 1_555 1_555
C17 H11 1_555 1_555
C18 C7 1_555 1_555
H12 C18 1_555 1_555
C19 C11 1_555 1_555
H13 C19 1_555 1_555
C20 C17 1_555 1_555
H14 C20 1_555 1_555
C21 C2 1_555 1_555
H15 C21 1_555 1_555
C22 C2 1_555 1_555
C23 C9 1_555 1_555
H16 C23 1_555 1_555
C24 C13 1_555 1_555
H17 C24 1_555 1_555
C25 C3 1_555 1_555
H18 C25 1_555 1_555
C26 N3 1_555 1_555
H19 C26 1_555 1_555
C27 C6 1_555 1_555
H20 C27 1_555 1_555
C28 N4 1_555 1_555
H21 C28 1_555 1_555
C29 H22 1_555 1_555
C30 N1 1_555 1_555
H23 C30 1_555 1_555
C31 C22 1_555 1_555
H24 C31 1_555 1_555
C32 N2 1_555 1_555
H25 C32 1_555 1_555
C33 C4 1_555 1_555
C34 N6 1_555 1_555
H26 C34 1_555 1_555
C35 C1 1_555 1_555
H27 C35 1_555 1_555
C36 N8 1_555 1_555
H28 C36 1_555 1_555
C37 C13 1_555 1_555
H29 C37 1_555 1_555
C38 N8 1_555 1_555
H30 C38 1_555 1_555
S3 O1 1_555 1_555
O1 Cu1 1_555 1_555
O2 Cu2 1_555 1_555
O3 Cu2 1_555 1_555
O4 Cu1 1_555 1_555
C39 C24 1_555 1_555
H31 C39 1_555 1_555
C40 N7 1_555 1_555
H32 C40 1_555 1_555
O5 Cl1 1_555 1_555
C41 S3 1_555 1_555
H33 C41 1_555 1_555
H34 C41 1_555 1_555
H35 C41 1_555 1_555
O6 Cl1 1_555 1_555
C42 S1 1_555 1_555
H36 C42 1_555 1_555
H37 C42 1_555 1_555
H38 C42 1_555 1_555
C43 S2 1_555 1_555
H39 C43 1_555 1_555
H40 C43 1_555 1_555
H41 C43 1_555 1_555
C44 S1 1_555 1_555
H42 C44 1_555 1_555
H43 C44 1_555 1_555
H44 C44 1_555 1_555
O7 Cl1 1_555 1_555
C45 S3 1_555 1_555
H45 C45 1_555 1_555
H46 C45 1_555 1_555
H47 C45 1_555 1_555
C46 S2 1_555 1_555
H48 C46 1_555 1_555
H49 C46 1_555 1_555
H50 C46 1_555 1_555
S6 O11 1_555 1_555
C50 S6 1_555 1_555
H63 C50 1_555 1_555
H64 C50 1_555 1_555
H65 C50 1_555 1_555
C51 S6 1_555 1_555
H66 C51 1_555 1_555
H67 C51 1_555 1_555
H68 C51 1_555 1_555
Cl2 O12 1_555 1_555
O13 Cl2 1_555 1_555
O14 Cl2 1_555 1_555
O15 Cl2 1_555 1_555
Cl3 O16 1_555 1_555
O17 Cl3 1_555 1_555
O18 Cl3 1_555 1_555
O19 Cl3 1_555 1_555
S7 O20 1_555 1_555
C52 S7 1_555 1_555
H69 C52 1_555 1_555
H70 C52 1_555 1_555
H71 C52 1_555 1_555
C53 S7 1_555 1_555
H72 C53 1_555 1_555
H73 C53 1_555 1_555
H74 C53 1_555 1_555
Cl4 O21 1_555 1_555
O22 Cl4 1_555 1_555
O23 Cl4 1_555 1_555
O24 Cl4 1_555 1_555
Cu1B N1 1_555 1_555
Cu1C N4 1_555 1_555
Cu2A N7 1_555 1_555
N1B Cu1 1_555 1_555
N4C Cu1 1_555 1_555
N7A Cu2 1_555 1_555
C5 C35 1_555 1_555
C6 C33 1_555 1_555
C8 C34 1_555 1_555
C10 C16 1_555 1_555
C12 C22 1_555 1_555
C12 C38 1_555 1_555
C14 C27 1_555 1_555
C18 C26 1_555 1_555
C21 C28 1_555 1_555
C25 C32 1_555 1_555
C29 C30 1_555 1_555
C29 C33 1_555 1_555
C31 C36 1_555 1_555
C37 C40 1_555 1_555

#END
