
#######################################################################
#
#                 Cambridge Crystallographic Data Centre
#                                CCDC 
#
#######################################################################
#
# If this CIF has been generated from an entry in the Cambridge 
# Structural Database, then it will include bibliographic, chemical, 
# crystal, experimental, refinement or atomic coordinate data resulting 
# from the CCDC's data processing and validation procedures.
#
#######################################################################

data_IZULUL
_chemical_formula_moiety         'C96 H48 N24 O16 Sn5 Zn4'
_symmetry_cell_setting           tetragonal
_symmetry_space_group_name_H-M   'P 4/m b m'
_symmetry_Int_Tables_number      127
_space_group_name_Hall           '-P 4 2ab'
loop_
_symmetry_equiv_pos_site_id
_symmetry_equiv_pos_as_xyz
1 x,y,z
2 -x,-y,z
3 -y,x,z
4 y,-x,z
5 1/2-x,1/2+y,-z
6 1/2+x,1/2-y,-z
7 1/2+y,1/2+x,-z
8 1/2-y,1/2-x,-z
9 -x,-y,-z
10 x,y,-z
11 y,-x,-z
12 -y,x,-z
13 1/2+x,1/2-y,z
14 1/2-x,1/2+y,z
15 1/2-y,1/2-x,z
16 1/2+y,1/2+x,z
_cell_length_a                   22.8951(3)
_cell_length_b                   22.8951(3)
_cell_length_c                   9.3454(5)
_cell_angle_alpha                90
_cell_angle_beta                 90
_cell_angle_gamma                90
_cell_volume                     4898.72
loop_
_atom_site_label
_atom_site_type_symbol
_atom_site_fract_x
_atom_site_fract_y
_atom_site_fract_z
Sn1 Sn 0.0000 0.0000 0.11757(18)
Zn1 Zn -0.08532(5) -0.41468(5) 0.0000
O1 O -0.0509(3) -0.4491(3) -0.1790(14)
O2 O 0.0000 0.0000 0.344(2)
O3 O -0.0384(12) 0.0448(18) 0.5000
N1 N -0.0768(4) -0.0497(5) 0.1163(12)
C1 C -0.1420(6) -0.1232(6) 0.1060(17)
H1 H -0.1574 -0.1630 0.0999
C2 C -0.0816(6) -0.1075(5) 0.1135(16)
C3 C -0.0341(6) -0.1470(6) 0.1026(16)
C4 C -0.1332(5) -0.0251(6) 0.1167(17)
C5 C -0.1737(6) -0.0724(6) 0.1090(17)
H2 H -0.2162 -0.0687 0.1079
N2 N -0.0734(3) -0.3271(4) 0.0472(10)
C6 C -0.0616(4) -0.3061(8) 0.1837(9)
H3 H -0.0845 -0.3284 0.2525
C7 C -0.0490(5) -0.2473(8) 0.2038(11)
H4 H -0.0327 -0.2384 0.2968
C8 C -0.0482(3) -0.2095(5) 0.0875(16)
C9 C -0.0600(5) -0.2305(8) -0.0490(13)
H5 H -0.0545 -0.2052 0.1287
C10 C -0.0726(5) -0.2893(8) 0.0692(9)
H6 H -0.0800 -0.3042 0.1622
C11 C -0.022(2) 0.0487(11) 0.477(4)
Sn1H Sn 0.0000 0.0000 0.88243(18)
Sn1H_2 Sn -0.0000 -0.0000 -0.11757(18)
Sn1_2 Sn 0.0000 0.0000 1.11757(18)
Sn1_3 Sn -0.0000 -0.0000 -0.88243(18)
Zn1B Zn 0.41468(5) -0.08532(5) 0.0000
Zn1A Zn 0.08532(5) 0.41468(5) 0.0000
Zn1C Zn -0.41468(5) 0.08532(5) 0.0000
O1G O -0.0509(3) -0.4491(3) 0.1790(14)
O1E O 0.4491(3) -0.0509(3) 0.1790(14)
O1B O 0.4491(3) -0.0509(3) -0.1790(14)
O2H O 0.0000 0.0000 0.656(2)
O2H_2 O -0.0000 -0.0000 -0.344(2)
O2_2 O 0.0000 0.0000 -0.656(2)
O3A O 0.0384(12) -0.0448(18) 0.5000
O3C O 0.0448(18) 0.0384(12) 0.5000
O3B O -0.0448(18) -0.0384(12) 0.5000
O3A_2 O 0.0384(12) -0.0448(18) -0.5000
O3B_2 O -0.0448(18) -0.0384(12) -0.5000
O3C_2 O 0.0448(18) 0.0384(12) -0.5000
O3_2 O -0.0384(12) 0.0448(18) -0.5000
N1C N -0.0497(5) 0.0768(4) 0.1163(12)
N1A N 0.0768(4) 0.0497(5) 0.1163(12)
N1B N 0.0497(5) -0.0768(4) 0.1163(12)
N1I N -0.0768(4) -0.0497(5) -0.1163(12)
N1J N -0.0497(5) 0.0768(4) -0.1163(12)
N1H N 0.0768(4) 0.0497(5) -0.1163(12)
N1K N 0.0497(5) -0.0768(4) -0.1163(12)
N1I_2 N -0.0768(4) -0.0497(5) 0.8837(12)
N1H_2 N 0.0768(4) 0.0497(5) 0.8837(12)
N1K_2 N 0.0497(5) -0.0768(4) 0.8837(12)
N1J_2 N -0.0497(5) 0.0768(4) 0.8837(12)
C1K C 0.1232(6) -0.1420(6) -0.1060(17)
C1H C 0.1420(6) 0.1232(6) -0.1060(17)
C1J C -0.1232(6) 0.1420(6) -0.1060(17)
C1I C -0.1420(6) -0.1232(6) -0.1060(17)
C1B C 0.1232(6) -0.1420(6) 0.1060(17)
C1A C 0.1420(6) 0.1232(6) 0.1060(17)
C1C C -0.1232(6) 0.1420(6) 0.1060(17)
H1K H 0.1630 -0.1574 -0.0999
H1H H 0.1574 0.1630 -0.0999
H1J H -0.1630 0.1574 -0.0999
H1I H -0.1574 -0.1630 -0.0999
H1B H 0.1630 -0.1574 0.0999
H1A H 0.1574 0.1630 0.0999
H1C H -0.1630 0.1574 0.0999
C2C C -0.1075(5) 0.0816(6) 0.1135(16)
C2A C 0.0816(6) 0.1075(5) 0.1135(16)
C2B C 0.1075(5) -0.0816(6) 0.1135(16)
C2I C -0.0816(6) -0.1075(5) -0.1135(16)
C2J C -0.1075(5) 0.0816(6) -0.1135(16)
C2H C 0.0816(6) 0.1075(5) -0.1135(16)
C2K C 0.1075(5) -0.0816(6) -0.1135(16)
C3C C -0.1470(6) 0.0341(6) 0.1026(16)
C3A C 0.0341(6) 0.1470(6) 0.1026(16)
C3B C 0.1470(6) -0.0341(6) 0.1026(16)
C3I C -0.0341(6) -0.1470(6) -0.1026(16)
C3J C -0.1470(6) 0.0341(6) -0.1026(16)
C3H C 0.0341(6) 0.1470(6) -0.1026(16)
C3K C 0.1470(6) -0.0341(6) -0.1026(16)
C4C C -0.0251(6) 0.1332(5) 0.1167(17)
C4A C 0.1332(5) 0.0251(6) 0.1167(17)
C4B C 0.0251(6) -0.1332(5) 0.1167(17)
C4I C -0.1332(5) -0.0251(6) -0.1167(17)
C4J C -0.0251(6) 0.1332(5) -0.1167(17)
C4H C 0.1332(5) 0.0251(6) -0.1167(17)
C4K C 0.0251(6) -0.1332(5) -0.1167(17)
C5K C 0.0724(6) -0.1737(6) -0.1090(17)
C5H C 0.1737(6) 0.0724(6) -0.1090(17)
C5J C -0.0724(6) 0.1737(6) -0.1090(17)
C5I C -0.1737(6) -0.0724(6) -0.1090(17)
C5B C 0.0724(6) -0.1737(6) 0.1090(17)
C5A C 0.1737(6) 0.0724(6) 0.1090(17)
C5C C -0.0724(6) 0.1737(6) 0.1090(17)
H2K H 0.0687 -0.2162 -0.1079
H2H H 0.2162 0.0687 -0.1079
H2J H -0.0687 0.2162 -0.1079
H2I H -0.2162 -0.0687 -0.1079
H2B H 0.0687 -0.2162 0.1079
H2A H 0.2162 0.0687 0.1079
H2C H -0.0687 0.2162 0.1079
N2I N -0.0734(3) -0.3271(4) -0.0472(10)
N2K N 0.3271(4) -0.0734(3) -0.0472(10)
N2B N 0.3271(4) -0.0734(3) 0.0472(10)
N2H N 0.0734(3) 0.3271(4) -0.0472(10)
N2A N 0.0734(3) 0.3271(4) 0.0472(10)
N2J N -0.3271(4) 0.0734(3) -0.0472(10)
N2C N -0.3271(4) 0.0734(3) 0.0472(10)
N2G N -0.1729(4) -0.4266(3) -0.0472(10)
N2N N -0.1729(4) -0.4266(3) 0.0472(10)
N2L N 0.4266(3) -0.1729(4) 0.0472(10)
N2E N 0.4266(3) -0.1729(4) -0.0472(10)
C6I C -0.0616(4) -0.3061(8) -0.1837(9)
C6K C 0.3061(8) -0.0616(4) -0.1837(9)
C6B C 0.3061(8) -0.0616(4) 0.1837(9)
C6H C 0.0616(4) 0.3061(8) -0.1837(9)
C6A C 0.0616(4) 0.3061(8) 0.1837(9)
C6J C -0.3061(8) 0.0616(4) -0.1837(9)
C6C C -0.3061(8) 0.0616(4) 0.1837(9)
H3K H 0.3284 -0.0845 -0.2525
H3B H 0.3284 -0.0845 0.2525
H3A H 0.0845 0.3284 0.2525
H3H H 0.0845 0.3284 -0.2525
H3C H -0.3284 0.0845 0.2525
H3J H -0.3284 0.0845 -0.2525
H3I H -0.0845 -0.3284 -0.2525
C7I C -0.0490(5) -0.2473(8) -0.2038(11)
C7K C 0.2473(8) -0.0490(5) -0.2038(11)
C7B C 0.2473(8) -0.0490(5) 0.2038(11)
C7H C 0.0490(5) 0.2473(8) -0.2038(11)
C7A C 0.0490(5) 0.2473(8) 0.2038(11)
C7J C -0.2473(8) 0.0490(5) -0.2038(11)
C7C C -0.2473(8) 0.0490(5) 0.2038(11)
H4K H 0.2384 -0.0327 -0.2968
H4B H 0.2384 -0.0327 0.2968
H4H H 0.0327 0.2384 -0.2968
H4A H 0.0327 0.2384 0.2968
H4J H -0.2384 0.0327 -0.2968
H4C H -0.2384 0.0327 0.2968
H4I H -0.0327 -0.2384 -0.2968
C8I C -0.0482(3) -0.2095(5) -0.0875(16)
C8K C 0.2095(5) -0.0482(3) -0.0875(16)
C8B C 0.2095(5) -0.0482(3) 0.0875(16)
C8H C 0.0482(3) 0.2095(5) -0.0875(16)
C8A C 0.0482(3) 0.2095(5) 0.0875(16)
C8J C -0.2095(5) 0.0482(3) -0.0875(16)
C8C C -0.2095(5) 0.0482(3) 0.0875(16)
C9B C 0.2305(8) -0.0600(5) -0.0490(13)
C9K C 0.2305(8) -0.0600(5) 0.0490(13)
C9A C 0.0600(5) 0.2305(8) -0.0490(13)
C9H C 0.0600(5) 0.2305(8) 0.0490(13)
C9C C -0.2305(8) 0.0600(5) -0.0490(13)
C9J C -0.2305(8) 0.0600(5) 0.0490(13)
C9I C -0.0600(5) -0.2305(8) 0.0490(13)
H5K H 0.2052 -0.0545 -0.1287
H5B H 0.2052 -0.0545 0.1287
H5H H 0.0545 0.2052 -0.1287
H5A H 0.0545 0.2052 0.1287
H5J H -0.2052 0.0545 -0.1287
H5C H -0.2052 0.0545 0.1287
H5I H -0.0545 -0.2052 -0.1287
C10K C 0.2893(8) -0.0726(5) -0.0692(9)
C10B C 0.2893(8) -0.0726(5) 0.0692(9)
C10H C 0.0726(5) 0.2893(8) -0.0692(9)
C10A C 0.0726(5) 0.2893(8) 0.0692(9)
C10J C -0.2893(8) 0.0726(5) -0.0692(9)
C10C C -0.2893(8) 0.0726(5) 0.0692(9)
C10I C -0.0726(5) -0.2893(8) -0.0692(9)
H6K H 0.3042 -0.0800 -0.1622
H6B H 0.3042 -0.0800 0.1622
H6A H 0.0800 0.3042 0.1622
H6H H 0.0800 0.3042 -0.1622
H6C H -0.3042 0.0800 0.1622
H6J H -0.3042 0.0800 -0.1622
H6I H -0.0800 -0.3042 -0.1622
C11B C -0.0487(11) -0.022(2) 0.477(4)
C11A C 0.022(2) -0.0487(11) 0.477(4)
C11C C 0.0487(11) 0.022(2) 0.477(4)
C11I C -0.022(2) 0.0487(11) 0.523(4)
C11H C 0.022(2) -0.0487(11) 0.523(4)
C11J C 0.0487(11) 0.022(2) 0.523(4)
C11K C -0.0487(11) -0.022(2) 0.523(4)
C11H_2 C 0.022(2) -0.0487(11) -0.477(4)
C11J_2 C 0.0487(11) 0.022(2) -0.477(4)
C11I_2 C -0.022(2) 0.0487(11) -0.477(4)
C11K_2 C -0.0487(11) -0.022(2) -0.477(4)
C11A_2 C 0.022(2) -0.0487(11) -0.523(4)
C11C_2 C 0.0487(11) 0.022(2) -0.523(4)
C11_2 C -0.022(2) 0.0487(11) -0.523(4)
C11B_2 C -0.0487(11) -0.022(2) -0.523(4)
loop_
_geom_bond_atom_site_label_1
_geom_bond_atom_site_label_2
_geom_bond_site_symmetry_1
_geom_bond_site_symmetry_2
Sn1 O2 1_555 1_555
Zn1 O1 1_555 1_555
O2 C11 1_555 1_555
O3 C11 1_555 1_555
N1 Sn1 1_555 1_555
C1 H1 1_555 1_555
C2 N1 1_555 1_555
C3 C2 1_555 1_555
C4 N1 1_555 1_555
C5 C1 1_555 1_555
H2 C5 1_555 1_555
N2 Zn1 1_555 1_555
C6 N2 1_555 1_555
H3 C6 1_555 1_555
C7 C6 1_555 1_555
H4 C7 1_555 1_555
C8 C3 1_555 1_555
C9 C8 1_555 1_555
H5 C7 1_555 1_555
C10 N2 1_555 1_555
H6 N2 1_555 1_555
C11 O3C 1_555 1_555
Sn1H Sn1_2 1_555 1_555
Sn1H_2 Sn1 1_555 1_555
Sn1_3 O2_2 1_555 1_555
Zn1B O1E 1_555 1_555
Zn1A N2H 1_555 1_555
Zn1C N2J 1_555 1_555
O1G Zn1 1_555 1_555
O1B Zn1B 1_555 1_555
O2H Sn1H 1_555 1_555
O2H_2 Sn1H_2 1_555 1_555
O2_2 C11A_2 1_555 1_555
O3A C11A 1_555 1_555
O3C C11C 1_555 1_555
O3B C11B 1_555 1_555
O3A_2 C11H_2 1_555 1_555
O3B_2 C11H_2 1_555 1_555
O3C_2 C11J_2 1_555 1_555
O3_2 C11I_2 1_555 1_555
N1C Sn1 1_555 1_555
N1A Sn1 1_555 1_555
N1B Sn1 1_555 1_555
N1I Sn1H_2 1_555 1_555
N1J Sn1H_2 1_555 1_555
N1H Sn1H_2 1_555 1_555
N1K Sn1H_2 1_555 1_555
N1I_2 Sn1H 1_555 1_555
N1H_2 Sn1H 1_555 1_555
N1K_2 Sn1H 1_555 1_555
N1J_2 Sn1H 1_555 1_555
C1K H1K 1_555 1_555
C1H H1H 1_555 1_555
C1J H1J 1_555 1_555
C1I H1I 1_555 1_555
C1B H1B 1_555 1_555
C1A H1A 1_555 1_555
C1C H1C 1_555 1_555
C2C N1C 1_555 1_555
C2A N1A 1_555 1_555
C2B N1B 1_555 1_555
C2I N1I 1_555 1_555
C2J N1J 1_555 1_555
C2H N1H 1_555 1_555
C2K N1K 1_555 1_555
C3C C4 1_555 1_555
C3A C2A 1_555 1_555
C3B C2B 1_555 1_555
C3I C2I 1_555 1_555
C3J C2J 1_555 1_555
C3H C2H 1_555 1_555
C3K C2K 1_555 1_555
C4C N1C 1_555 1_555
C4A N1A 1_555 1_555
C4B C3 1_555 1_555
C4I N1I 1_555 1_555
C4J N1J 1_555 1_555
C4H N1H 1_555 1_555
C4K N1K 1_555 1_555
C5K C1K 1_555 1_555
C5H C1H 1_555 1_555
C5J C1J 1_555 1_555
C5I C1I 1_555 1_555
C5B C1B 1_555 1_555
C5A C1A 1_555 1_555
C5C C1C 1_555 1_555
H2K C5K 1_555 1_555
H2H C5H 1_555 1_555
H2J C5J 1_555 1_555
H2I C5I 1_555 1_555
H2B C5B 1_555 1_555
H2A C5A 1_555 1_555
H2C C5C 1_555 1_555
N2I Zn1 1_555 1_555
N2K Zn1B 1_555 1_555
N2B Zn1B 1_555 1_555
N2H N2A 1_555 1_555
N2A Zn1A 1_555 1_555
N2J N2C 1_555 1_555
N2C Zn1C 1_555 1_555
N2G Zn1 1_555 1_555
N2N Zn1 1_555 1_555
N2L Zn1B 1_555 1_555
N2E Zn1B 1_555 1_555
C6I N2I 1_555 1_555
C6K N2K 1_555 1_555
C6B N2B 1_555 1_555
C6H N2H 1_555 1_555
C6A N2A 1_555 1_555
C6J N2J 1_555 1_555
C6C N2C 1_555 1_555
H3K C6K 1_555 1_555
H3B C6B 1_555 1_555
H3A C6A 1_555 1_555
H3H C6H 1_555 1_555
H3C C6C 1_555 1_555
H3J C6J 1_555 1_555
H3I C6I 1_555 1_555
C7I C9 1_555 1_555
C7K C6K 1_555 1_555
C7B C6B 1_555 1_555
C7H C6H 1_555 1_555
C7A C6A 1_555 1_555
C7J C6J 1_555 1_555
C7C C6C 1_555 1_555
H4K C7K 1_555 1_555
H4B C7B 1_555 1_555
H4H C7H 1_555 1_555
H4A C7A 1_555 1_555
H4J C7J 1_555 1_555
H4C C7C 1_555 1_555
H4I C7I 1_555 1_555
C8I C8 1_555 1_555
C8K C3K 1_555 1_555
C8B C3B 1_555 1_555
C8H C3H 1_555 1_555
C8A C3A 1_555 1_555
C8J C3J 1_555 1_555
C8C C3C 1_555 1_555
C9B C7K 1_555 1_555
C9K C7B 1_555 1_555
C9A C7H 1_555 1_555
C9H C7A 1_555 1_555
C9C C7J 1_555 1_555
C9J C7C 1_555 1_555
C9I C7 1_555 1_555
H5K C7K 1_555 1_555
H5B C7B 1_555 1_555
H5H C7H 1_555 1_555
H5A C7A 1_555 1_555
H5J C7J 1_555 1_555
H5C C7C 1_555 1_555
H5I C9 1_555 1_555
C10K N2K 1_555 1_555
C10B N2K 1_555 1_555
C10H N2H 1_555 1_555
C10A N2H 1_555 1_555
C10J N2J 1_555 1_555
C10C N2J 1_555 1_555
C10I N2 1_555 1_555
H6K N2K 1_555 1_555
H6B N2B 1_555 1_555
H6A N2A 1_555 1_555
H6H N2H 1_555 1_555
H6C N2C 1_555 1_555
H6J N2J 1_555 1_555
H6I N2I 1_555 1_555
C11B O2 1_555 1_555
C11A O2 1_555 1_555
C11C O2 1_555 1_555
C11I O3 1_555 1_555
C11H O2H 1_555 1_555
C11J O2H 1_555 1_555
C11K O3 1_555 1_555
C11H_2 O2H_2 1_555 1_555
C11J_2 O2H_2 1_555 1_555
C11I_2 O2H_2 1_555 1_555
C11K_2 O2H_2 1_555 1_555
C11A_2 O3A_2 1_555 1_555
C11C_2 O2_2 1_555 1_555
C11_2 O2_2 1_555 1_555
C11B_2 O2_2 1_555 1_555
O3 C11B 1_555 1_555
C1 C2 1_555 1_555
C4 C5 1_555 1_555
N2 N2I 1_555 1_555
C6 C10 1_555 1_555
C6 H6 1_555 1_555
C7 C8 1_555 1_555
C7 C10 1_555 1_555
C8 H5 1_555 1_555
C8 C9I 1_555 1_555
C9 C8I 1_555 1_555
C9 C9I 1_555 1_555
C9 C10I 1_555 1_555
H5 C9I 1_555 1_555
C10 H6 1_555 1_555
C10 N2I 1_555 1_555
C10 C9I 1_555 1_555
C10 C10I 1_555 1_555
C11 C11B 1_555 1_555
C11 C11C 1_555 1_555
C11 C11I 1_555 1_555
O2H C11I 1_555 1_555
O2H C11K 1_555 1_555
O3A C11C 1_555 1_555
O3A C11H 1_555 1_555
O3A C11J 1_555 1_555
O3C C11I 1_555 1_555
O3C C11J 1_555 1_555
O3B C11A 1_555 1_555
O3B C11H 1_555 1_555
O3B C11K 1_555 1_555
O3A_2 C11J_2 1_555 1_555
O3A_2 C11C_2 1_555 1_555
O3B_2 C11K_2 1_555 1_555
O3B_2 C11A_2 1_555 1_555
O3B_2 C11B_2 1_555 1_555
O3C_2 C11I_2 1_555 1_555
O3C_2 C11C_2 1_555 1_555
O3C_2 C11_2 1_555 1_555
O3_2 C11K_2 1_555 1_555
O3_2 C11_2 1_555 1_555
O3_2 C11B_2 1_555 1_555
N1B C4B 1_555 1_555
C1K C2K 1_555 1_555
C1H C2H 1_555 1_555
C1J C2J 1_555 1_555
C1I C2I 1_555 1_555
C1B C2B 1_555 1_555
C1A C2A 1_555 1_555
C1C C2C 1_555 1_555
C2C C3C 1_555 1_555
C3A C4C 1_555 1_555
C3B C4A 1_555 1_555
C3I C4K 1_555 1_555
C3I C8I 1_555 1_555
C3J C4I 1_555 1_555
C3H C4J 1_555 1_555
C3K C4H 1_555 1_555
C4C C5C 1_555 1_555
C4A C5A 1_555 1_555
C4B C5B 1_555 1_555
C4I C5I 1_555 1_555
C4J C5J 1_555 1_555
C4H C5H 1_555 1_555
C4K C5K 1_555 1_555
N2I C10I 1_555 1_555
N2K N2B 1_555 1_555
N2B C10K 1_555 1_555
N2B C10B 1_555 1_555
N2A C10H 1_555 1_555
N2A C10A 1_555 1_555
N2C C10J 1_555 1_555
N2C C10C 1_555 1_555
N2G N2N 1_555 1_555
N2L N2E 1_555 1_555
C6I C7I 1_555 1_555
C6I C10I 1_555 1_555
C6I H6I 1_555 1_555
C6K C10K 1_555 1_555
C6K H6K 1_555 1_555
C6B C10B 1_555 1_555
C6B H6B 1_555 1_555
C6H C10H 1_555 1_555
C6H H6H 1_555 1_555
C6A C10A 1_555 1_555
C6A H6A 1_555 1_555
C6J C10J 1_555 1_555
C6J H6J 1_555 1_555
C6C C10C 1_555 1_555
C6C H6C 1_555 1_555
C7I C8I 1_555 1_555
C7I H5I 1_555 1_555
C7I C10I 1_555 1_555
C7K C8K 1_555 1_555
C7K C10K 1_555 1_555
C7B C8B 1_555 1_555
C7B C10B 1_555 1_555
C7H C8H 1_555 1_555
C7H C10H 1_555 1_555
C7A C8A 1_555 1_555
C7A C10A 1_555 1_555
C7J C8J 1_555 1_555
C7J C10J 1_555 1_555
C7C C8C 1_555 1_555
C7C C10C 1_555 1_555
C8I C9I 1_555 1_555
C8I H5I 1_555 1_555
C8K C8B 1_555 1_555
C8K C9B 1_555 1_555
C8K C9K 1_555 1_555
C8K H5K 1_555 1_555
C8B C9B 1_555 1_555
C8B C9K 1_555 1_555
C8B H5B 1_555 1_555
C8H C8A 1_555 1_555
C8H C9A 1_555 1_555
C8H C9H 1_555 1_555
C8H H5H 1_555 1_555
C8A C9A 1_555 1_555
C8A C9H 1_555 1_555
C8A H5A 1_555 1_555
C8J C8C 1_555 1_555
C8J C9C 1_555 1_555
C8J C9J 1_555 1_555
C8J H5J 1_555 1_555
C8C C9C 1_555 1_555
C8C C9J 1_555 1_555
C8C H5C 1_555 1_555
C9B C9K 1_555 1_555
C9B H5K 1_555 1_555
C9B C10K 1_555 1_555
C9K H5B 1_555 1_555
C9K C10B 1_555 1_555
C9A C9H 1_555 1_555
C9A H5H 1_555 1_555
C9A C10H 1_555 1_555
C9H H5A 1_555 1_555
C9H C10A 1_555 1_555
C9C C9J 1_555 1_555
C9C H5J 1_555 1_555
C9C C10J 1_555 1_555
C9J H5C 1_555 1_555
C9J C10C 1_555 1_555
C10K C10B 1_555 1_555
C10K H6K 1_555 1_555
C10B H6B 1_555 1_555
C10H C10A 1_555 1_555
C10H H6H 1_555 1_555
C10A H6A 1_555 1_555
C10J C10C 1_555 1_555
C10J H6J 1_555 1_555
C10C H6C 1_555 1_555
C10I H6I 1_555 1_555
C11B C11A 1_555 1_555
C11B C11K 1_555 1_555
C11A C11C 1_555 1_555
C11A C11H 1_555 1_555
C11C C11J 1_555 1_555
C11I C11J 1_555 1_555
C11I C11K 1_555 1_555
C11H C11J 1_555 1_555
C11H C11K 1_555 1_555
C11H_2 C11J_2 1_555 1_555
C11H_2 C11K_2 1_555 1_555
C11H_2 C11A_2 1_555 1_555
C11J_2 C11I_2 1_555 1_555
C11J_2 C11C_2 1_555 1_555
C11I_2 C11K_2 1_555 1_555
C11I_2 C11_2 1_555 1_555
C11K_2 C11B_2 1_555 1_555
C11A_2 C11C_2 1_555 1_555
C11A_2 C11B_2 1_555 1_555
C11C_2 C11_2 1_555 1_555
C11_2 C11B_2 1_555 1_555

#END
