
#######################################################################
#
#                 Cambridge Crystallographic Data Centre
#                                CCDC 
#
#######################################################################
#
# If this CIF has been generated from an entry in the Cambridge 
# Structural Database, then it will include bibliographic, chemical, 
# crystal, experimental, refinement or atomic coordinate data resulting 
# from the CCDC's data processing and validation procedures.
#
#######################################################################

data_TOVHUJ
_chemical_formula_moiety         '(C32 H19 Fe3 O16)n'
_symmetry_cell_setting           orthorhombic
_symmetry_space_group_name_H-M   'P m n 21'
_symmetry_Int_Tables_number      31
_space_group_name_Hall           'P 2ac -2'
loop_
_symmetry_equiv_pos_site_id
_symmetry_equiv_pos_as_xyz
1 x,y,z
2 1/2-x,-y,1/2+z
3 -x,y,z
4 1/2+x,-y,1/2+z
_cell_length_a                   23.570(3)
_cell_length_b                   9.8918(11)
_cell_length_c                   15.3668(18)
_cell_angle_alpha                90
_cell_angle_beta                 90
_cell_angle_gamma                90
_cell_volume                     3582.77
loop_
_atom_site_label
_atom_site_type_symbol
_atom_site_fract_x
_atom_site_fract_y
_atom_site_fract_z
Fe1 Fe 0.0000 0.49071(5) 0.22577(10)
Fe2 Fe 0.069279(14) 1.29528(3) 0.36319(10)
O1 O 0.43936(8) 0.59382(19) 0.65254(16)
O2 O 0.39560(9) 0.7288(2) 0.74803(18)
O3 O 0.11034(8) 0.46875(17) 0.3763(2)
O4 O 0.05885(8) 0.60175(18) 0.28901(16)
O5 O 0.14125(8) 1.18039(17) 0.40757(17)
O6 O 0.06284(8) 1.08852(16) 0.3618(2)
O7 O 0.04640(12) 1.3084(2) 0.48761(19)
O8 O 0.0000 0.6468(3) 0.1395(2)
O9 O 0.0000 1.3540(2) 0.3172(2)
C1 C 0.35713(8) 0.71365(19) 0.60838(8)
C2 C 0.34874(8) 0.63780(18) 0.53334(6)
H1 H 0.3745 0.5676 0.5187
C3 C 0.30259(9) 0.66473(19) 0.47966(7)
H2 H 0.2969 0.6129 0.4284
C4 C 0.26483(8) 0.76748(19) 0.50100(14)
C5 C 0.27328(8) 0.8434(2) 0.57610(16)
H3 H 0.2475 0.9136 0.5907
C6 C 0.31937(9) 0.8165(2) 0.62973(12)
H4 H 0.3251 0.8683 0.6810
C7 C 0.21220(8) 0.79057(17) 0.44822(19)
C8 C 0.18277(8) 0.68056(14) 0.41464(18)
H5 H 0.1980 0.5921 0.4202
C9 C 0.13105(8) 0.69985(14) 0.3730(2)
C10 C 0.10872(8) 0.82937(16) 0.3650(2)
H6 H 0.0733 0.8426 0.3367
C11 C 0.13819(9) 0.93947(14) 0.3984(2)
C12 C 0.18995(9) 0.92016(15) 0.4399(2)
H7 H 0.2101 0.9955 0.4625
C13 C 0.40061(12) 0.6741(3) 0.6735(2)
C14 C 0.09761(11) 0.5797(3) 0.3429(2)
C15 C 0.11325(12) 1.0764(3) 0.3880(2)
C16 C 0.0000 1.3135(5) 0.5268(4)
C17 C 0.0000 1.3277(7) 0.6202(4)
O7B O -0.04640(12) 1.3084(2) 0.48761(19)
Fe2B Fe -0.069279(14) 1.29528(3) 0.36319(10)
O1B O -0.43936(8) 0.59382(19) 0.65254(16)
O2B O -0.39560(9) 0.7288(2) 0.74803(18)
O3B O -0.11034(8) 0.46875(17) 0.3763(2)
O4B O -0.05885(8) 0.60175(18) 0.28901(16)
O5B O -0.14125(8) 1.18039(17) 0.40757(17)
O6B O -0.06284(8) 1.08852(16) 0.3618(2)
C1B C -0.35713(8) 0.71365(19) 0.60838(8)
C2B C -0.34874(8) 0.63780(18) 0.53334(6)
H1B H -0.3745 0.5676 0.5187
C3B C -0.30259(9) 0.66473(19) 0.47966(7)
H2B H -0.2969 0.6129 0.4284
C4B C -0.26483(8) 0.76748(19) 0.50100(14)
C5B C -0.27328(8) 0.8434(2) 0.57610(16)
H3B H -0.2475 0.9136 0.5907
C6B C -0.31937(9) 0.8165(2) 0.62973(12)
H4B H -0.3251 0.8683 0.6810
C7B C -0.21220(8) 0.79057(17) 0.44822(19)
C8B C -0.18277(8) 0.68056(14) 0.41464(18)
H5B H -0.1980 0.5921 0.4202
C9B C -0.13105(8) 0.69985(14) 0.3730(2)
C10B C -0.10872(8) 0.82937(16) 0.3650(2)
H6B H -0.0733 0.8426 0.3367
C11B C -0.13819(9) 0.93947(14) 0.3984(2)
C12B C -0.18995(9) 0.92016(15) 0.4399(2)
H7B H -0.2101 0.9955 0.4625
C13B C -0.40061(12) 0.6741(3) 0.6735(2)
C14B C -0.09761(11) 0.5797(3) 0.3429(2)
C15B C -0.11325(12) 1.0764(3) 0.3880(2)
Fe1_2 Fe 0.0000 1.49071(5) 0.22577(10)
Fe1A Fe -0.5000 0.50929(5) 0.72577(10)
Fe1A_2 Fe 0.5000 0.50929(5) 0.72577(10)
Fe2_2 Fe 0.069279(14) 0.29528(3) 0.36319(10)
Fe2A Fe 0.430721(14) 0.70472(3) 0.86319(10)
Fe2B_2 Fe -0.069279(14) 0.29528(3) 0.36319(10)
Fe2C Fe -0.430721(14) 0.70472(3) 0.86319(10)
O1A O 0.06064(8) 0.40618(19) 0.15254(16)
O1C O -0.06064(8) 0.40618(19) 0.15254(16)
O2A O 0.10440(9) 1.2712(2) 0.24803(18)
O2C O -0.10440(9) 1.2712(2) 0.24803(18)
O3_2 O 0.11034(8) 1.46875(17) 0.3763(2)
O3B_2 O -0.11034(8) 1.46875(17) 0.3763(2)
O9_2 O -0.0000 0.3540(2) 0.3172(2)
loop_
_geom_bond_atom_site_label_1
_geom_bond_atom_site_label_2
_geom_bond_site_symmetry_1
_geom_bond_site_symmetry_2
Fe1 O4 1_555 1_555
Fe2 O5 1_555 1_555
O1 C13 1_555 1_555
O2 C13 1_555 1_555
O3 C14 1_555 1_555
O4 C14 1_555 1_555
O5 C15 1_555 1_555
O6 Fe2 1_555 1_555
O7 Fe2 1_555 1_555
O8 Fe1 1_555 1_555
O9 Fe2 1_555 1_555
C1 C2 1_555 1_555
C2 H1 1_555 1_555
C3 C2 1_555 1_555
H2 C3 1_555 1_555
C4 C3 1_555 1_555
C5 C4 1_555 1_555
H3 C5 1_555 1_555
C6 C1 1_555 1_555
H4 C6 1_555 1_555
C7 C4 1_555 1_555
C8 C7 1_555 1_555
H5 C8 1_555 1_555
C9 C8 1_555 1_555
C10 C9 1_555 1_555
H6 C10 1_555 1_555
C11 C10 1_555 1_555
C12 C7 1_555 1_555
H7 C12 1_555 1_555
C13 C1 1_555 1_555
C14 C9 1_555 1_555
C15 O6 1_555 1_555
C16 O7 1_555 1_555
C17 C16 1_555 1_555
O7B C16 1_555 1_555
Fe2B O9 1_555 1_555
O1B C13B 1_555 1_555
O2B C13B 1_555 1_555
O3B C14B 1_555 1_555
O4B Fe1 1_555 1_555
O5B Fe2B 1_555 1_555
O6B Fe2B 1_555 1_555
C1B C2B 1_555 1_555
C2B H1B 1_555 1_555
C3B C2B 1_555 1_555
H2B C3B 1_555 1_555
C4B C3B 1_555 1_555
C5B C4B 1_555 1_555
H3B C5B 1_555 1_555
C6B C1B 1_555 1_555
H4B C6B 1_555 1_555
C7B C4B 1_555 1_555
C8B C7B 1_555 1_555
H5B C8B 1_555 1_555
C9B C8B 1_555 1_555
C10B C9B 1_555 1_555
H6B C10B 1_555 1_555
C11B C10B 1_555 1_555
C12B C7B 1_555 1_555
H7B C12B 1_555 1_555
C13B C1B 1_555 1_555
C14B O4B 1_555 1_555
C15B O5B 1_555 1_555
Fe1_2 O9 1_555 1_555
Fe1A O1B 1_555 1_555
Fe1A_2 O1 1_555 1_555
Fe2_2 O3 1_555 1_555
Fe2A O2 1_555 1_555
Fe2B_2 O3B 1_555 1_555
Fe2C O2B 1_555 1_555
O1A Fe1 1_555 1_555
O1C Fe1 1_555 1_555
O2A Fe2 1_555 1_555
O2C Fe2B 1_555 1_555
O3_2 Fe2 1_555 1_555
O3B_2 Fe2B 1_555 1_555
O9_2 Fe1 1_555 1_555
C5 C6 1_555 1_555
C11 C12 1_555 1_555
C11 C15 1_555 1_555
O7B Fe2B 1_555 1_555
O6B C15B 1_555 1_555
C5B C6B 1_555 1_555
C9B C14B 1_555 1_555
C11B C12B 1_555 1_555
C11B C15B 1_555 1_555
Fe2_2 O9_2 1_555 1_555
Fe2B_2 O9_2 1_555 1_555

#END
