
#######################################################################
#
#                 Cambridge Crystallographic Data Centre
#                                CCDC 
#
#######################################################################
#
# If this CIF has been generated from an entry in the Cambridge 
# Structural Database, then it will include bibliographic, chemical, 
# crystal, experimental, refinement or atomic coordinate data resulting 
# from the CCDC's data processing and validation procedures.
#
#######################################################################

data_TOVJUL
_chemical_formula_moiety         '(C64 H56 Fe6 O32 Si2)n'
_symmetry_cell_setting           monoclinic
_symmetry_space_group_name_H-M   'P 21/c'
_symmetry_Int_Tables_number      14
_space_group_name_Hall           '-P 2ybc'
loop_
_symmetry_equiv_pos_site_id
_symmetry_equiv_pos_as_xyz
1 x,y,z
2 -x,1/2+y,1/2-z
3 -x,-y,-z
4 x,1/2-y,1/2+z
_cell_length_a                   24.24(2)
_cell_length_b                   23.09(2)
_cell_length_c                   23.97(2)
_cell_angle_alpha                90
_cell_angle_beta                 104.274(8)
_cell_angle_gamma                90
_cell_volume                     13001.9
loop_
_atom_site_label
_atom_site_type_symbol
_atom_site_fract_x
_atom_site_fract_y
_atom_site_fract_z
Fe1 Fe 0.53142(10) -0.07683(17) 0.25331(13)
Fe2 Fe 0.46810(11) -0.20515(18) 0.23867(16)
Fe3 Fe 0.60794(11) -0.19699(17) 0.27230(16)
Fe4 Fe 0.02523(10) 0.2634(2) 0.19842(15)
Fe5 Fe 0.14517(12) 0.2893(2) 0.1577(2)
Fe6 Fe 0.02439(10) 0.2670(2) 0.06047(15)
Si1 Si 0.2504(3) 0.0074(4) 0.4054(3)
Si2 Si 0.2390(3) -0.0010(4) -0.0329(3)
O1 O 0.4080(6) 0.0672(7) 0.6724(5)
O2 O 0.3617(5) 0.1447(7) 0.6592(6)
O3 O 0.0380(4) -0.1748(7) 0.4295(6)
O4 O 0.0375(5) -0.1824(8) 0.3389(6)
O5 O 0.4297(5) -0.1567(7) 0.2905(6)
O6 O 0.4711(6) -0.0740(8) 0.2968(6)
O7 O 0.1517(6) 0.2199(9) 0.2013(6)
O8 O 0.0856(5) 0.2082(9) 0.2484(7)
O9 O 0.1562(5) 0.2322(9) 0.0924(7)
O10 O 0.0735(6) 0.2057(9) 0.0359(6)
O11 O 0.4279(5) -0.1573(6) 0.1677(6)
O12 O 0.4710(5) -0.0752(7) 0.1768(5)
O13 O 0.0330(4) -0.2014(7) -0.0677(5)
O14 O 0.0298(5) -0.1946(9) -0.1609(6)
O15 O 0.4077(5) 0.0642(6) -0.2065(5)
O16 O 0.3586(5) 0.1443(6) -0.2190(6)
O17 O 0.5347(4) -0.1529(10) 0.2554(6)
O18 O 0.0654(4) 0.2702(8) 0.1378(6)
O19 O 0.5308(5) 0.0147(7) 0.2505(6)
H1 H 0.5541 0.0277 0.2797
O20 O 0.3917(5) -0.2533(6) 0.2230(7)
H2 H 0.3682 -0.2396 0.1942
O21 O 0.6862(5) -0.2419(6) 0.2961(7)
O22 O -0.0186(6) 0.2568(9) 0.2632(6)
H3 H -0.0409 0.2284 0.2564
O23 O -0.0200(5) 0.2681(9) -0.0274(6)
H4 H -0.0441 0.2412 -0.0339
O24 O 0.4944(6) -0.2589(7) 0.1863(8)
O25 O 0.5873(6) -0.2546(7) 0.2076(8)
O26 O 0.5016(5) -0.2587(7) 0.3082(8)
O27 O 0.5908(5) -0.2701(9) 0.3175(8)
O28 O 0.1401(7) 0.3571(12) 0.2221(9)
O29 O 0.0650(7) 0.3357(11) 0.2453(8)
O30 O 0.1448(6) 0.3572(10) 0.0937(9)
O31 O 0.0664(7) 0.3396(10) 0.0323(9)
C1 C 0.3417(5) 0.0723(6) 0.5849(4)
C2 C 0.3012(5) 0.1071(5) 0.5491(5)
H5 H 0.2937 0.1448 0.5613
C3 C 0.2716(4) 0.0868(6) 0.4954(5)
H6 H 0.2440 0.1106 0.4710
C4 C 0.2826(5) 0.0316(6) 0.4776(4)
C5 C 0.3231(5) -0.0032(5) 0.5134(5)
H7 H 0.3305 -0.0409 0.5012
C6 C 0.3526(4) 0.0171(6) 0.5670(5)
H8 H 0.3803 -0.0067 0.5915
C7 C 0.1936(4) -0.0437(5) 0.4099(6)
C8 C 0.1657(5) -0.0638(6) 0.3557(5)
H9 H 0.1780 -0.0518 0.3228
C9 C 0.1198(5) -0.1014(6) 0.3495(5)
H10 H 0.1008 -0.1152 0.3124
C10 C 0.1019(4) -0.1190(5) 0.3977(6)
C11 C 0.1298(5) -0.0988(6) 0.4520(5)
H11 H 0.1176 -0.1108 0.4849
C12 C 0.1757(5) -0.0612(6) 0.4581(5)
H12 H 0.1948 -0.0474 0.4952
C13 C 0.3075(5) -0.0274(7) 0.3793(5)
C14 C 0.3553(6) 0.0039(6) 0.3749(6)
H13 H 0.3599 0.0429 0.3880
C15 C 0.3963(4) -0.0218(7) 0.3514(6)
H14 H 0.4289 -0.0004 0.3485
C16 C 0.3895(5) -0.0788(7) 0.3323(5)
C17 C 0.3417(6) -0.1101(6) 0.3367(6)
H15 H 0.3371 -0.1491 0.3236
C18 C 0.3008(4) -0.0844(7) 0.3601(6)
H16 H 0.2681 -0.1058 0.3631
C19 C 0.2129(6) 0.0658(7) 0.3574(7)
C20 C 0.2442(4) 0.0981(8) 0.3271(8)
H17 H 0.2832 0.0892 0.3304
C21 C 0.2186(6) 0.1434(7) 0.2919(7)
H18 H 0.2400 0.1654 0.2712
C22 C 0.1616(6) 0.1563(7) 0.2871(7)
C23 C 0.1303(4) 0.1240(8) 0.3174(7)
H19 H 0.0913 0.1329 0.3141
C24 C 0.1560(6) 0.0787(7) 0.3526(7)
H20 H 0.1346 0.0567 0.3733
C25 C 0.2048(6) 0.0571(6) -0.0068(7)
C26 C 0.2351(4) 0.0900(7) 0.0391(6)
H21 H 0.2736 0.0806 0.0569
C27 C 0.2092(6) 0.1367(7) 0.0591(6)
H22 H 0.2299 0.1592 0.0905
C28 C 0.1529(6) 0.1504(6) 0.0331(7)
C29 C 0.1225(4) 0.1175(7) -0.0129(6)
H23 H 0.0841 0.1269 -0.0306
C30 C 0.1485(6) 0.0709(7) -0.0328(6)
H24 H 0.1277 0.0484 -0.0642
C31 C 0.2979(4) -0.0301(6) 0.0212(4)
C32 C 0.2919(4) -0.0866(6) 0.0388(5)
H25 H 0.2583 -0.1078 0.0221
C33 C 0.3350(5) -0.1120(5) 0.0808(5)
H26 H 0.3309 -0.1507 0.0929
C34 C 0.3841(4) -0.0810(6) 0.1052(4)
C35 C 0.3902(4) -0.0245(6) 0.0876(5)
H27 H 0.4237 -0.0032 0.1043
C36 C 0.3470(5) 0.0010(5) 0.0456(5)
H28 H 0.3512 0.0396 0.0336
C37 C 0.1786(4) -0.0528(5) -0.0637(6)
C38 C 0.1632(5) -0.0726(6) -0.1202(5)
H29 H 0.1821 -0.0582 -0.1476
C39 C 0.1201(5) -0.1134(6) -0.1365(4)
H30 H 0.1096 -0.1269 -0.1752
C40 C 0.0924(5) -0.1345(5) -0.0964(6)
C41 C 0.1078(5) -0.1147(6) -0.0399(5)
H31 H 0.0889 -0.1291 -0.0125
C42 C 0.1509(5) -0.0739(6) -0.0235(4)
H32 H 0.1614 -0.0604 0.0151
C43 C 0.2690(5) 0.0209(7) -0.0915(5)
C44 C 0.2598(5) 0.0777(6) -0.1107(5)
H33 H 0.2316 0.1005 -0.0997
C45 C 0.2918(6) 0.1012(5) -0.1459(6)
H34 H 0.2855 0.1400 -0.1590
C46 C 0.3331(5) 0.0679(7) -0.1620(5)
C47 C 0.3423(5) 0.0110(6) -0.1428(5)
H35 H 0.3705 -0.0118 -0.1538
C48 C 0.3103(6) -0.0125(5) -0.1076(5)
H36 H 0.3167 -0.0513 -0.0945
C49 C 0.3693(8) 0.0959(7) 0.6410(8)
C50 C 0.0547(8) -0.1596(9) 0.3869(6)
C51 C 0.4331(7) -0.1055(7) 0.3066(10)
C52 C 0.1348(6) 0.2013(11) 0.2430(9)
C53 C 0.1248(6) 0.1985(8) 0.0586(9)
C54 C 0.4293(6) -0.1056(7) 0.1543(7)
C55 C 0.0454(6) -0.1789(7) -0.1100(6)
C56 C 0.3676(8) 0.0944(7) -0.1998(9)
C57 C 0.5414(6) -0.2756(6) 0.1806(6)
C58 C 0.5457(9) -0.3237(10) 0.1394(10)
H37 H 0.5858 -0.3305 0.1401
H38 H 0.5248 -0.3129 0.1003
H39 H 0.5292 -0.3592 0.1509
C59 C 0.5475(5) -0.2802(6) 0.3349(6)
C60 C 0.1087(7) 0.3659(9) 0.2549(8)
C61 C 0.1101(7) 0.3693(9) 0.0479(8)
C62 C 0.1306(10) 0.4236(14) 0.0174(12)
H40 H 0.1023 0.4321 -0.0186
H41 H 0.1673 0.4148 0.0090
H42 H 0.1348 0.4573 0.0430
C63 C 0.1284(10) 0.4114(13) 0.3007(12)
H43 H 0.1643 0.4283 0.2966
H44 H 0.1342 0.3936 0.3388
H45 H 0.0995 0.4419 0.2964
C64 C 0.5504(7) -0.3178(12) 0.3871(9)
H46 H 0.5123 -0.3216 0.3937
H47 H 0.5759 -0.2999 0.4208
H48 H 0.5649 -0.3562 0.3806
O32 O 0.2464(8) 0.2927(9) 0.1857(7)
H49 H 0.2282 0.2818 0.1529
Fe1B Fe 0.46858(10) 0.07683(17) -0.25331(13)
Fe1B_2 Fe 0.46858(10) 0.07683(17) 0.74669(13)
Fe3B Fe 0.39206(11) 0.19699(17) -0.27230(16)
Fe3B_2 Fe 0.39206(11) 0.19699(17) 0.72770(16)
Fe4A Fe -0.02523(10) -0.2366(2) 0.30158(15)
Fe4B Fe -0.02523(10) -0.2634(2) -0.19842(15)
Fe6A Fe -0.02439(10) -0.2330(2) 0.43953(15)
Fe6B Fe -0.02439(10) -0.2670(2) -0.06047(15)
O1B O 0.5920(6) -0.0672(7) 0.3276(5)
O2B O 0.6383(5) -0.1447(7) 0.3408(6)
O3A O -0.0380(4) 0.3252(7) 0.0705(6)
O4A O -0.0375(5) 0.3176(8) 0.1611(6)
O13B O -0.0330(4) 0.2014(7) 0.0677(5)
O14B O -0.0298(5) 0.1946(9) 0.1609(6)
O15B O 0.5923(5) -0.0642(6) 0.2065(5)
O16B O 0.6414(5) -0.1443(6) 0.2190(6)
loop_
_geom_bond_atom_site_label_1
_geom_bond_atom_site_label_2
_geom_bond_site_symmetry_1
_geom_bond_site_symmetry_2
Fe1 O6 1_555 1_555
Fe2 O5 1_555 1_555
Fe3 O17 1_555 1_555
Fe4 O8 1_555 1_555
Fe5 O7 1_555 1_555
Fe6 O10 1_555 1_555
Si1 C4 1_555 1_555
Si2 C25 1_555 1_555
O1 C49 1_555 1_555
O2 C49 1_555 1_555
O3 C50 1_555 1_555
O4 C50 1_555 1_555
O5 C51 1_555 1_555
O6 C51 1_555 1_555
O7 C52 1_555 1_555
O8 C52 1_555 1_555
O9 Fe5 1_555 1_555
O10 C53 1_555 1_555
O11 Fe2 1_555 1_555
O12 Fe1 1_555 1_555
O13 C55 1_555 1_555
O14 C55 1_555 1_555
O15 C56 1_555 1_555
O16 C56 1_555 1_555
O17 Fe1 1_555 1_555
O18 Fe4 1_555 1_555
O19 Fe1 1_555 1_555
H1 O19 1_555 1_555
O20 Fe2 1_555 1_555
H2 O20 1_555 1_555
O21 Fe3 1_555 1_555
O22 Fe4 1_555 1_555
H3 O22 1_555 1_555
O23 Fe6 1_555 1_555
H4 O23 1_555 1_555
O24 Fe2 1_555 1_555
O25 Fe3 1_555 1_555
O26 Fe2 1_555 1_555
O27 Fe3 1_555 1_555
O28 Fe5 1_555 1_555
O29 Fe4 1_555 1_555
O30 Fe5 1_555 1_555
O31 Fe6 1_555 1_555
C1 C2 1_555 1_555
C2 H5 1_555 1_555
C3 C2 1_555 1_555
H6 C3 1_555 1_555
C4 C3 1_555 1_555
C5 C4 1_555 1_555
H7 C5 1_555 1_555
C6 C1 1_555 1_555
H8 C6 1_555 1_555
C7 Si1 1_555 1_555
C8 C7 1_555 1_555
H9 C8 1_555 1_555
C9 C8 1_555 1_555
H10 C9 1_555 1_555
C10 C9 1_555 1_555
C11 C10 1_555 1_555
H11 C11 1_555 1_555
C12 C7 1_555 1_555
H12 C12 1_555 1_555
C13 Si1 1_555 1_555
C14 C13 1_555 1_555
H13 C14 1_555 1_555
C15 C14 1_555 1_555
H14 C15 1_555 1_555
C16 C15 1_555 1_555
C17 C16 1_555 1_555
H15 C17 1_555 1_555
C18 C13 1_555 1_555
H16 C18 1_555 1_555
C19 Si1 1_555 1_555
C20 C19 1_555 1_555
H17 C20 1_555 1_555
C21 C20 1_555 1_555
H18 C21 1_555 1_555
C22 C21 1_555 1_555
C23 C22 1_555 1_555
H19 C23 1_555 1_555
C24 C19 1_555 1_555
H20 C24 1_555 1_555
C25 C26 1_555 1_555
C26 H21 1_555 1_555
C27 C26 1_555 1_555
H22 C27 1_555 1_555
C28 C27 1_555 1_555
C29 C28 1_555 1_555
H23 C29 1_555 1_555
C30 C25 1_555 1_555
H24 C30 1_555 1_555
C31 Si2 1_555 1_555
C32 C31 1_555 1_555
H25 C32 1_555 1_555
C33 C32 1_555 1_555
H26 C33 1_555 1_555
C34 C33 1_555 1_555
C35 C34 1_555 1_555
H27 C35 1_555 1_555
C36 C31 1_555 1_555
H28 C36 1_555 1_555
C37 Si2 1_555 1_555
C38 C37 1_555 1_555
H29 C38 1_555 1_555
C39 C38 1_555 1_555
H30 C39 1_555 1_555
C40 C39 1_555 1_555
C41 C40 1_555 1_555
H31 C41 1_555 1_555
C42 C37 1_555 1_555
H32 C42 1_555 1_555
C43 Si2 1_555 1_555
C44 C43 1_555 1_555
H33 C44 1_555 1_555
C45 C44 1_555 1_555
H34 C45 1_555 1_555
C46 C45 1_555 1_555
C47 C46 1_555 1_555
H35 C47 1_555 1_555
C48 C43 1_555 1_555
H36 C48 1_555 1_555
C49 C1 1_555 1_555
C50 C10 1_555 1_555
C51 C16 1_555 1_555
C52 C22 1_555 1_555
C53 O9 1_555 1_555
C54 O11 1_555 1_555
C55 C40 1_555 1_555
C56 C46 1_555 1_555
C57 O24 1_555 1_555
C58 C57 1_555 1_555
H37 C58 1_555 1_555
H38 C58 1_555 1_555
H39 C58 1_555 1_555
C59 O26 1_555 1_555
C60 O28 1_555 1_555
C61 O30 1_555 1_555
C62 C61 1_555 1_555
H40 C62 1_555 1_555
H41 C62 1_555 1_555
H42 C62 1_555 1_555
C63 C60 1_555 1_555
H43 C63 1_555 1_555
H44 C63 1_555 1_555
H45 C63 1_555 1_555
C64 C59 1_555 1_555
H46 C64 1_555 1_555
H47 C64 1_555 1_555
H48 C64 1_555 1_555
O32 Fe5 1_555 1_555
H49 O32 1_555 1_555
Fe1B O15 1_555 1_555
Fe1B_2 O1 1_555 1_555
Fe3B O16 1_555 1_555
Fe3B_2 O2 1_555 1_555
Fe4A O4 1_555 1_555
Fe4B O14 1_555 1_555
Fe6A O3 1_555 1_555
Fe6B O13 1_555 1_555
O1B Fe1 1_555 1_555
O2B Fe3 1_555 1_555
O3A Fe6 1_555 1_555
O4A Fe4 1_555 1_555
O13B Fe6 1_555 1_555
O14B Fe4 1_555 1_555
O15B Fe1 1_555 1_555
O16B Fe3 1_555 1_555
Fe2 O17 1_555 1_555
Fe5 O18 1_555 1_555
Fe6 O18 1_555 1_555
O12 C54 1_555 1_555
O25 C57 1_555 1_555
O27 C59 1_555 1_555
O29 C60 1_555 1_555
O31 C61 1_555 1_555
C5 C6 1_555 1_555
C11 C12 1_555 1_555
C17 C18 1_555 1_555
C23 C24 1_555 1_555
C28 C53 1_555 1_555
C29 C30 1_555 1_555
C34 C54 1_555 1_555
C35 C36 1_555 1_555
C41 C42 1_555 1_555
C47 C48 1_555 1_555

#END
