
#######################################################################
#
#                 Cambridge Crystallographic Data Centre
#                                CCDC 
#
#######################################################################
#
# If this CIF has been generated from an entry in the Cambridge 
# Structural Database, then it will include bibliographic, chemical, 
# crystal, experimental, refinement or atomic coordinate data resulting 
# from the CCDC's data processing and validation procedures.
#
#######################################################################

data_TOVKOG
_chemical_formula_moiety         '(C150 H102 Fe9 N6 O48)n'
_symmetry_cell_setting           rhombohedral
_symmetry_space_group_name_H-M   'R 3'
_symmetry_Int_Tables_number      146
_space_group_name_Hall           'R 3'
loop_
_symmetry_equiv_pos_site_id
_symmetry_equiv_pos_as_xyz
1 x,y,z
2 -y,x-y,z
3 -x+y,-x,z
4 2/3+x,1/3+y,1/3+z
5 2/3-y,1/3+x-y,1/3+z
6 2/3-x+y,1/3-x,1/3+z
7 1/3+x,2/3+y,2/3+z
8 1/3-y,2/3+x-y,2/3+z
9 1/3-x+y,2/3-x,2/3+z
_cell_length_a                   34.663(15)
_cell_length_b                   34.663(15)
_cell_length_c                   44.712(19)
_cell_angle_alpha                90
_cell_angle_beta                 90
_cell_angle_gamma                120
_cell_volume                     46525.1
loop_
_atom_site_label
_atom_site_type_symbol
_atom_site_fract_x
_atom_site_fract_y
_atom_site_fract_z
Fe1 Fe 0.22379(3) 0.35259(3) 0.02994(7)
Fe2 Fe 0.16085(3) 0.32179(3) -0.03087(7)
Fe3 Fe 0.12898(3) 0.35265(3) 0.02976(7)
O1 O 0.17155(12) 0.34311(11) 0.00769(9)
O2 O 0.0737(2) 0.2975(2) 0.01527(15)
O3 O 0.27954(16) 0.36078(19) 0.05191(12)
O4 O 0.0975(2) 0.2727(2) -0.02119(15)
O5 O 0.08242(15) 0.36101(17) 0.05109(11)
O6 O -0.2728(2) -0.0982(2) -0.02212(15)
O7 O -0.2955(2) -0.0743(2) 0.01522(15)
O8 O 0.14834(18) 0.29860(15) -0.07268(12)
O9 O 0.26231(17) 0.3840(2) -0.00333(14)
O10 O 0.2224(2) 0.36712(15) -0.04636(12)
O11 O 0.4688(3) 0.4802(3) -0.26279(17)
O12 O 0.52631(17) 0.53846(17) -0.26451(12)
O13 O 0.63355(15) 0.77627(19) -0.04701(11)
O14 O 0.6146(2) 0.73619(16) -0.00313(14)
O15 O 0.17413(18) 0.40951(16) 0.05011(16)
O16 O 0.23553(16) 0.41058(16) 0.05036(16)
N1 N -0.10065(15) 0.12218(18) -0.00215(17)
N2 N -0.10463(14) 0.08577(16) -0.00298(16)
C1 C 0.0711(3) 0.2683(3) -0.0040(3)
C2 C 0.03032(15) 0.22660(17) -0.00451(15)
C3 C -0.0014(2) 0.22605(17) 0.01437(14)
H1 H 0.0063 0.2503 0.0276
C4 C -0.04429(18) 0.19032(19) 0.01411(14)
H2 H -0.0662 0.1901 0.0270
C5 C -0.05539(14) 0.15495(16) -0.00491(15)
C6 C -0.0237(2) 0.15565(17) -0.02393(15)
H3 H -0.0315 0.1316 -0.0373
C7 C 0.01920(18) 0.1913(2) -0.02356(16)
H4 H 0.0411 0.1915 -0.0364
C8 C -0.2692(3) -0.0683(3) -0.0040(3)
C9 C -0.22869(15) -0.02657(17) -0.00661(15)
C10 C -0.1976(2) -0.01939(16) -0.02835(14)
H5 H -0.2047 -0.0403 -0.0441
C11 C -0.15583(17) 0.01842(16) -0.02708(13)
H6 H -0.1341 0.0237 -0.0419
C12 C -0.14635(12) 0.04806(13) -0.00419(11)
C13 C -0.17686(16) 0.04138(17) 0.01757(12)
H7 H -0.1695 0.0624 0.0333
C14 C -0.21860(16) 0.0036(2) 0.01636(14)
H8 H -0.2402 -0.0016 0.0313
C15 C 0.2589(3) 0.3915(3) -0.02883(19)
C16 C 0.29314(14) 0.42481(15) -0.04810(12)
C17 C 0.33385(17) 0.45072(19) -0.03389(10)
H9 H 0.3369 0.4464 -0.0132
C18 C 0.37003(13) 0.48288(16) -0.04996(12)
H10 H 0.3979 0.5005 -0.0403
C19 C 0.36545(14) 0.48931(16) -0.08014(12)
C20 C 0.32477(17) 0.4634(2) -0.09435(10)
H11 H 0.3216 0.4677 -0.1150
C21 C 0.28868(14) 0.43096(19) -0.07834(13)
H12 H 0.2609 0.4130 -0.0881
C22 C 0.40595(15) 0.52428(14) -0.09422(11)
C23 C 0.43628(15) 0.56318(14) -0.07962(10)
H13 H 0.4315 0.5678 -0.0593
C24 C 0.47361(13) 0.59540(12) -0.09472(9)
C25 C 0.48050(15) 0.58882(14) -0.12447(10)
H14 H 0.5058 0.6111 -0.1349
C26 C 0.45041(14) 0.54970(13) -0.13898(10)
C27 C 0.41281(16) 0.51774(15) -0.12397(11)
H15 H 0.3918 0.4914 -0.1341
C28 C 0.4580(2) 0.54239(19) -0.17104(14)
C29 C 0.4287(2) 0.5028(2) -0.18534(15)
H16 H 0.4007 0.4831 -0.1765
C30 C 0.4402(2) 0.4921(2) -0.21262(15)
H17 H 0.4213 0.4638 -0.2215
C31 C 0.4793(2) 0.5228(2) -0.22690(14)
C32 C 0.50988(19) 0.5611(2) -0.21179(15)
H18 H 0.5385 0.5800 -0.2202
C33 C 0.4985(2) 0.5717(2) -0.18441(15)
H19 H 0.5184 0.5990 -0.1748
C34 C 0.4998(3) 0.5155(4) -0.2530(2)
C35 C 0.50606(15) 0.63681(16) -0.07907(11)
C36 C 0.5166(2) 0.63031(15) -0.05020(13)
H20 H 0.5006 0.6017 -0.0412
C37 C 0.5505(2) 0.66567(19) -0.03454(11)
H21 H 0.5545 0.6628 -0.0138
C38 C 0.5786(2) 0.70528(17) -0.04941(13)
C39 C 0.5719(2) 0.70942(16) -0.07963(13)
H22 H 0.5918 0.7359 -0.0901
C40 C 0.5362(2) 0.67486(19) -0.09455(11)
H23 H 0.5323 0.6772 -0.1154
C41 C 0.6097(3) 0.7406(2) -0.02972(16)
C42 C 0.2134(3) 0.42921(11) 0.0535(2)
C43 C 0.23922(15) 0.47925(11) 0.05630(10)
C44 C 0.21898(13) 0.50413(15) 0.04962(6)
H24 H 0.1898 0.4899 0.0414
C45 C 0.24138(15) 0.54975(14) 0.05493(10)
H25 H 0.2275 0.5667 0.0503
C46 C 0.28409(15) 0.57054(11) 0.06694(14)
C47 C 0.30435(13) 0.54565(15) 0.07363(15)
H26 H 0.3335 0.5598 0.0818
C48 C 0.28191(16) 0.50003(14) 0.06831(13)
H27 H 0.2958 0.4830 0.0729
C49 C 0.31065(18) 0.620366(19) 0.0645(2)
C50 C 0.287032(19) 0.64304(18) 0.0654(2)
H28 H 0.2554 0.6269 0.0666
O15A O 0.59049(16) 0.76462(24) 0.05011(16)
O16A O 0.58942(16) 0.82495(23) 0.05036(16)
C42A C 0.57079(11) 0.78419(32) 0.0535(2)
C43A C 0.52075(11) 0.75997(19) 0.05630(10)
C44A C 0.49587(15) 0.71485(20) 0.04962(6)
H24A H 0.5101 0.6999 0.0414
C45A C 0.45025(14) 0.69163(21) 0.05493(10)
H25A H 0.4333 0.6608 0.0503
C46A C 0.42946(11) 0.71355(19) 0.06694(14)
C47A C 0.45435(15) 0.75870(20) 0.07363(15)
H26A H 0.4402 0.7737 0.0818
C48A C 0.49997(14) 0.78188(21) 0.06831(13)
H27A H 0.5170 0.8128 0.0729
C49A C 0.379634(19) 0.69028(18) 0.0645(2)
C50A C 0.35696(18) 0.64399(18) 0.0654(2)
H28A H 0.3731 0.6285 0.0666
O15B O 0.23538(24) 0.82587(18) 0.05011(16)
O16B O 0.17505(23) 0.76447(16) 0.05036(16)
C42B C 0.21581(32) 0.7866(3) 0.0535(2)
C43B C 0.24003(19) 0.76078(15) 0.05630(10)
C44B C 0.28515(20) 0.78102(13) 0.04962(6)
H24B H 0.3001 0.8102 0.0414
C45B C 0.30837(21) 0.75862(15) 0.05493(10)
H25B H 0.3392 0.7725 0.0503
C46B C 0.28645(19) 0.71591(15) 0.06694(14)
C47B C 0.24130(20) 0.69565(13) 0.07363(15)
H26B H 0.2263 0.6665 0.0818
C48B C 0.21812(21) 0.71809(16) 0.06831(13)
H27B H 0.1872 0.7042 0.0729
C49B C 0.30972(18) 0.68935(18) 0.0645(2)
C50B C 0.35601(18) 0.712968(19) 0.0654(2)
H28B H 0.3715 0.7446 0.0666
Fe1A Fe -0.35259(3) -0.12880(4) 0.02994(7)
Fe2A Fe -0.32179(3) -0.16094(4) -0.03087(7)
Fe3A Fe -0.35265(3) -0.22367(4) 0.02976(7)
O1A O -0.34311(11) -0.17156(16) 0.00769(9)
O2A O -0.2975(2) -0.2238(3) 0.01527(15)
O3A O -0.36078(19) -0.08124(25) 0.05191(12)
O4A O -0.2727(2) -0.1752(3) -0.02119(15)
O5A O -0.36101(17) -0.27859(23) 0.05109(11)
O6A O 0.0982(2) -0.1746(3) -0.02212(15)
O7A O 0.0743(2) -0.2212(3) 0.01522(15)
O8A O -0.29860(15) -0.15026(23) -0.07268(12)
O9A O -0.3840(2) -0.12169(26) -0.00333(14)
O10A O -0.36712(15) -0.14472(25) -0.04636(12)
O11A O -0.4802(3) -0.0114(4) -0.26279(17)
O12A O -0.53846(17) -0.01215(24) -0.26451(12)
O13A O -0.77627(19) -0.14272(24) -0.04701(11)
O14A O -0.73619(16) -0.12159(26) -0.00313(14)
N1A N -0.12218(18) -0.22283(23) -0.00215(17)
N2A N -0.08577(16) -0.19040(21) -0.00298(16)
C1A C -0.2683(3) -0.1972(4) -0.0040(3)
C2A C -0.22660(17) -0.19628(23) -0.00451(15)
C3A C -0.22605(17) -0.22745(26) 0.01437(14)
H1A H -0.2503 -0.2440 0.0276
C4A C -0.19032(19) -0.23461(26) 0.01411(14)
H2A H -0.1901 -0.2563 0.0270
C5A C -0.15495(16) -0.21034(21) -0.00491(15)
C6A C -0.15565(17) -0.17935(26) -0.02393(15)
H3A H -0.1316 -0.1631 -0.0373
C7A C -0.1913(2) -0.17210(27) -0.02356(16)
H4A H -0.1915 -0.1504 -0.0364
C8A C 0.0683(3) -0.2009(4) -0.0040(3)
C9A C 0.02657(17) -0.20212(23) -0.00661(15)
C10A C 0.01939(16) -0.17821(26) -0.02835(14)
H5A H 0.0403 -0.1644 -0.0441
C11A C -0.01842(16) -0.17425(23) -0.02708(13)
H6A H -0.0237 -0.1578 -0.0419
C12A C -0.04806(13) -0.19441(18) -0.00419(11)
C13A C -0.04138(17) -0.21824(23) 0.01757(12)
H7A H -0.0624 -0.2319 0.0333
C14A C -0.0036(2) -0.22220(26) 0.01636(14)
H8A H 0.0016 -0.2386 0.0313
C15A C -0.3915(3) -0.1326(4) -0.02883(19)
C16A C -0.42481(15) -0.13167(21) -0.04810(12)
C17A C -0.45072(19) -0.11687(25) -0.03389(10)
H9A H -0.4464 -0.1095 -0.0132
C18A C -0.48288(16) -0.11285(21) -0.04996(12)
H10A H -0.5005 -0.1026 -0.0403
C19A C -0.48931(16) -0.12386(21) -0.08014(12)
C20A C -0.4634(2) -0.13863(26) -0.09435(10)
H11A H -0.4677 -0.1461 -0.1150
C21A C -0.43096(19) -0.14228(24) -0.07834(13)
H12A H -0.4130 -0.1521 -0.0881
C22A C -0.52428(14) -0.11833(21) -0.09422(11)
C23A C -0.56318(14) -0.12690(21) -0.07962(10)
H13A H -0.5678 -0.1363 -0.0593
C24A C -0.59540(12) -0.12179(18) -0.09472(9)
C25A C -0.58882(14) -0.10832(21) -0.12447(10)
H14A H -0.6111 -0.1053 -0.1349
C26A C -0.54970(13) -0.09929(19) -0.13898(10)
C27A C -0.51774(15) -0.10493(22) -0.12397(11)
H15A H -0.4914 -0.0996 -0.1341
C28A C -0.54239(19) -0.08439(28) -0.17104(14)
C29A C -0.5028(2) -0.0741(3) -0.18534(15)
H16A H -0.4831 -0.0824 -0.1765
C30A C -0.4921(2) -0.0519(3) -0.21262(15)
H17A H -0.4638 -0.0425 -0.2215
C31A C -0.5228(2) -0.0435(3) -0.22690(14)
C32A C -0.5611(2) -0.05122(28) -0.21179(15)
H18A H -0.5800 -0.0415 -0.2202
C33A C -0.5717(2) -0.0732(3) -0.18441(15)
H19A H -0.5990 -0.0806 -0.1748
C34A C -0.5155(4) -0.0157(5) -0.2530(2)
C35A C -0.63681(16) -0.13075(22) -0.07907(11)
C36A C -0.63031(15) -0.11371(25) -0.05020(13)
H20A H -0.6017 -0.1011 -0.0412
C37A C -0.66567(19) -0.11517(28) -0.03454(11)
H21A H -0.6628 -0.1083 -0.0138
C38A C -0.70528(17) -0.12668(26) -0.04941(13)
C39A C -0.70942(16) -0.13752(26) -0.07963(13)
H22A H -0.7359 -0.1441 -0.0901
C40A C -0.67486(19) -0.13866(28) -0.09455(11)
H23A H -0.6772 -0.1449 -0.1154
C41A C -0.7406(2) -0.1309(4) -0.02972(16)
Fe1B Fe 0.12880(4) -0.22379(3) 0.02994(7)
Fe2B Fe 0.16094(4) -0.16085(3) -0.03087(7)
Fe3B Fe 0.22367(4) -0.12898(3) 0.02976(7)
O1B O 0.17156(16) -0.17155(12) 0.00769(9)
O2B O 0.2238(3) -0.0737(2) 0.01527(15)
O3B O 0.08124(25) -0.27954(16) 0.05191(12)
O4B O 0.1752(3) -0.0975(2) -0.02119(15)
O5B O 0.27859(23) -0.08242(15) 0.05109(11)
O6B O 0.1746(3) 0.2728(2) -0.02212(15)
O7B O 0.2212(3) 0.2955(2) 0.01522(15)
O8B O 0.15026(23) -0.14834(18) -0.07268(12)
O9B O 0.12169(26) -0.26231(17) -0.00333(14)
O10B O 0.14472(25) -0.2224(2) -0.04636(12)
O11B O 0.0114(4) -0.4688(3) -0.26279(17)
O12B O 0.01215(24) -0.52631(17) -0.26451(12)
O13B O 0.14272(24) -0.63355(15) -0.04701(11)
O14B O 0.12159(26) -0.6146(2) -0.00313(14)
N1B N 0.22283(23) 0.10065(15) -0.00215(17)
N2B N 0.19040(21) 0.10463(14) -0.00298(16)
C1B C 0.1972(4) -0.0711(3) -0.0040(3)
C2B C 0.19628(23) -0.03032(15) -0.00451(15)
C3B C 0.22745(26) 0.0014(2) 0.01437(14)
H1B H 0.2440 -0.0063 0.0276
C4B C 0.23461(26) 0.04429(18) 0.01411(14)
H2B H 0.2563 0.0662 0.0270
C5B C 0.21034(21) 0.05539(14) -0.00491(15)
C6B C 0.17935(26) 0.0237(2) -0.02393(15)
H3B H 0.1631 0.0315 -0.0373
C7B C 0.17210(27) -0.01920(18) -0.02356(16)
H4B H 0.1504 -0.0411 -0.0364
C8B C 0.2009(4) 0.2692(3) -0.0040(3)
C9B C 0.20212(23) 0.22869(15) -0.00661(15)
C10B C 0.17821(26) 0.1976(2) -0.02835(14)
H5B H 0.1644 0.2047 -0.0441
C11B C 0.17425(23) 0.15583(17) -0.02708(13)
H6B H 0.1578 0.1341 -0.0419
C12B C 0.19441(18) 0.14635(12) -0.00419(11)
C13B C 0.21824(23) 0.17686(16) 0.01757(12)
H7B H 0.2319 0.1695 0.0333
C14B C 0.22220(26) 0.21860(16) 0.01636(14)
H8B H 0.2386 0.2402 0.0313
C15B C 0.1326(4) -0.2589(3) -0.02883(19)
C16B C 0.13167(21) -0.29314(14) -0.04810(12)
C17B C 0.11687(25) -0.33385(17) -0.03389(10)
H9B H 0.1095 -0.3369 -0.0132
C18B C 0.11285(21) -0.37003(13) -0.04996(12)
H10B H 0.1026 -0.3979 -0.0403
C19B C 0.12386(21) -0.36545(14) -0.08014(12)
C20B C 0.13863(26) -0.32477(17) -0.09435(10)
H11B H 0.1461 -0.3216 -0.1150
C21B C 0.14228(24) -0.28868(14) -0.07834(13)
H12B H 0.1521 -0.2609 -0.0881
C22B C 0.11833(21) -0.40595(15) -0.09422(11)
C23B C 0.12690(21) -0.43628(15) -0.07962(10)
H13B H 0.1363 -0.4315 -0.0593
C24B C 0.12179(18) -0.47361(13) -0.09472(9)
C25B C 0.10832(21) -0.48050(15) -0.12447(10)
H14B H 0.1053 -0.5058 -0.1349
C26B C 0.09929(19) -0.45041(14) -0.13898(10)
C27B C 0.10493(22) -0.41281(16) -0.12397(11)
H15B H 0.0996 -0.3918 -0.1341
C28B C 0.08439(28) -0.4580(2) -0.17104(14)
C29B C 0.0741(3) -0.4287(2) -0.18534(15)
H16B H 0.0824 -0.4007 -0.1765
C30B C 0.0519(3) -0.4402(2) -0.21262(15)
H17B H 0.0425 -0.4213 -0.2215
C31B C 0.0435(3) -0.4793(2) -0.22690(14)
C32B C 0.05122(28) -0.50988(19) -0.21179(15)
H18B H 0.0415 -0.5385 -0.2202
C33B C 0.0732(3) -0.4985(2) -0.18441(15)
H19B H 0.0806 -0.5184 -0.1748
C34B C 0.0157(5) -0.4998(3) -0.2530(2)
C35B C 0.13075(22) -0.50606(15) -0.07907(11)
C36B C 0.11371(25) -0.5166(2) -0.05020(13)
H20B H 0.1011 -0.5006 -0.0412
C37B C 0.11517(28) -0.5505(2) -0.03454(11)
H21B H 0.1083 -0.5545 -0.0138
C38B C 0.12668(26) -0.5786(2) -0.04941(13)
C39B C 0.13752(26) -0.5719(2) -0.07963(13)
H22B H 0.1441 -0.5918 -0.0901
C40B C 0.13866(28) -0.5362(2) -0.09455(11)
H23B H 0.1449 -0.5323 -0.1154
C41B C 0.1309(4) -0.6097(3) -0.02972(16)
Fe1A_2 Fe 0.64741(3) 0.87120(4) 0.02994(7)
Fe1B_2 Fe 0.12880(4) 0.77621(3) 0.02994(7)
Fe1F Fe -0.44288(3) 0.01926(3) -0.30339(7)
Fe1G Fe -0.01926(3) -0.46213(4) -0.30339(7)
Fe1H Fe 0.46213(4) 0.44288(3) -0.30339(7)
Fe2_2 Fe 0.16085(3) -0.67821(3) -0.03087(7)
Fe2A_2 Fe 0.67821(3) 0.83906(4) -0.03087(7)
Fe2B_2 Fe -0.83906(4) -0.16085(3) -0.03087(7)
Fe3_2 Fe 0.12898(3) -0.64735(3) 0.02976(7)
Fe3A_2 Fe 0.64735(3) 0.77633(4) 0.02976(7)
Fe3B_2 Fe -0.77633(4) -0.12898(3) 0.02976(7)
Fe3B_3 Fe 0.22367(4) 0.87102(3) 0.02976(7)
Fe3F Fe -0.53769(3) 0.01932(3) -0.30357(7)
Fe3G Fe -0.01932(3) -0.55700(4) -0.30357(7)
Fe3H Fe 0.55700(4) 0.53769(3) -0.30357(7)
O11C O 0.1355(3) -0.1865(3) 0.07054(17)
O11D O 0.1865(3) 0.3219(4) 0.07054(17)
O11E O -0.3219(4) -0.1355(3) 0.07054(17)
O12C O 0.19298(17) -0.12821(17) 0.06882(12)
O12D O 0.12821(17) 0.32118(24) 0.06882(12)
O12E O -0.32118(24) -0.19298(17) 0.06882(12)
O13_2 O -0.36645(15) -0.22373(19) -0.04701(11)
O13A_2 O 0.22373(19) -0.14272(24) -0.04701(11)
O13B_2 O 0.14272(24) 0.36645(15) -0.04701(11)
O14_2 O -0.3854(2) -0.26381(16) -0.00313(14)
O14A_2 O 0.26381(16) -0.12159(26) -0.00313(14)
O14B_2 O 0.12159(26) 0.3854(2) -0.00313(14)
O15A_2 O -0.40951(16) -0.23538(24) 0.05011(16)
O15B_2 O 0.23538(24) -0.17413(18) 0.05011(16)
O16A_2 O -0.41058(16) -0.17505(23) 0.05036(16)
O16B_2 O 0.17505(23) -0.23553(16) 0.05036(16)
loop_
_geom_bond_atom_site_label_1
_geom_bond_atom_site_label_2
_geom_bond_site_symmetry_1
_geom_bond_site_symmetry_2
Fe1 O1 1_555 1_555
Fe2 O1 1_555 1_555
Fe3 O1 1_555 1_555
O2 Fe3 1_555 1_555
O3 Fe1 1_555 1_555
O4 Fe2 1_555 1_555
O5 Fe3 1_555 1_555
O6 C8 1_555 1_555
O7 C8 1_555 1_555
O8 Fe2 1_555 1_555
O9 Fe1 1_555 1_555
O10 Fe2 1_555 1_555
O11 C34 1_555 1_555
O12 C34 1_555 1_555
O13 C41 1_555 1_555
O14 C41 1_555 1_555
O15 Fe3 1_555 1_555
O16 Fe1 1_555 1_555
N1 N2 1_555 1_555
N2 C12 1_555 1_555
C1 O2 1_555 1_555
C2 C1 1_555 1_555
C3 C2 1_555 1_555
H1 C3 1_555 1_555
C4 C3 1_555 1_555
H2 C4 1_555 1_555
C5 N1 1_555 1_555
C6 C5 1_555 1_555
H3 C6 1_555 1_555
C7 C2 1_555 1_555
H4 C7 1_555 1_555
C8 C9 1_555 1_555
C9 C10 1_555 1_555
C10 H5 1_555 1_555
C11 C10 1_555 1_555
H6 C11 1_555 1_555
C12 C11 1_555 1_555
C13 C12 1_555 1_555
H7 C13 1_555 1_555
C14 C9 1_555 1_555
H8 C14 1_555 1_555
C15 O9 1_555 1_555
C16 C15 1_555 1_555
C17 C16 1_555 1_555
H9 C17 1_555 1_555
C18 C17 1_555 1_555
H10 C18 1_555 1_555
C19 C18 1_555 1_555
C20 C19 1_555 1_555
H11 C20 1_555 1_555
C21 C16 1_555 1_555
H12 C21 1_555 1_555
C22 C19 1_555 1_555
C23 C22 1_555 1_555
H13 C23 1_555 1_555
C24 C23 1_555 1_555
C25 C24 1_555 1_555
H14 C25 1_555 1_555
C26 C25 1_555 1_555
C27 C22 1_555 1_555
H15 C27 1_555 1_555
C28 C26 1_555 1_555
C29 C28 1_555 1_555
H16 C29 1_555 1_555
C30 C29 1_555 1_555
H17 C30 1_555 1_555
C31 C30 1_555 1_555
C32 C31 1_555 1_555
H18 C32 1_555 1_555
C33 C28 1_555 1_555
H19 C33 1_555 1_555
C34 C31 1_555 1_555
C35 C24 1_555 1_555
C36 C35 1_555 1_555
H20 C36 1_555 1_555
C37 C36 1_555 1_555
H21 C37 1_555 1_555
C38 C37 1_555 1_555
C39 C38 1_555 1_555
H22 C39 1_555 1_555
C40 C35 1_555 1_555
H23 C40 1_555 1_555
C41 C38 1_555 1_555
C42 O15 1_555 1_555
C43 C42 1_555 1_555
C44 C43 1_555 1_555
H24 C44 1_555 1_555
C45 C44 1_555 1_555
H25 C45 1_555 1_555
C46 C45 1_555 1_555
C47 C46 1_555 1_555
H26 C47 1_555 1_555
C48 C43 1_555 1_555
H27 C48 1_555 1_555
C49 C46 1_555 1_555
C50 C49 1_555 1_555
H28 C50 1_555 1_555
O15A C42A 1_555 1_555
O16A C42A 1_555 1_555
C42A C43A 1_555 1_555
C43A C44A 1_555 1_555
C44A H24A 1_555 1_555
C45A C44A 1_555 1_555
H25A C45A 1_555 1_555
C46A C45A 1_555 1_555
C47A C46A 1_555 1_555
H26A C47A 1_555 1_555
C48A C43A 1_555 1_555
H27A C48A 1_555 1_555
C49A C46A 1_555 1_555
C50A C49 1_555 1_555
H28A C50A 1_555 1_555
O15B C42B 1_555 1_555
O16B C42B 1_555 1_555
C42B C43B 1_555 1_555
C43B C44B 1_555 1_555
C44B H24B 1_555 1_555
C45B C44B 1_555 1_555
H25B C45B 1_555 1_555
C46B C45B 1_555 1_555
C47B C46B 1_555 1_555
H26B C47B 1_555 1_555
C48B C43B 1_555 1_555
H27B C48B 1_555 1_555
C49B C50 1_555 1_555
C50B C49A 1_555 1_555
H28B C50B 1_555 1_555
Fe1A O7 1_555 1_555
Fe2A O6 1_555 1_555
Fe3A O1A 1_555 1_555
O1A Fe1A 1_555 1_555
O2A Fe3A 1_555 1_555
O3A Fe1A 1_555 1_555
O4A Fe2A 1_555 1_555
O5A Fe3A 1_555 1_555
O6A C8A 1_555 1_555
O7A C8A 1_555 1_555
O8A Fe2A 1_555 1_555
O9A Fe1A 1_555 1_555
O10A Fe2A 1_555 1_555
O11A C34A 1_555 1_555
O12A C34A 1_555 1_555
O13A C41A 1_555 1_555
O14A C41A 1_555 1_555
N1A N2A 1_555 1_555
N2A C12A 1_555 1_555
C1A O2A 1_555 1_555
C2A C1A 1_555 1_555
C3A C2A 1_555 1_555
H1A C3A 1_555 1_555
C4A C3A 1_555 1_555
H2A C4A 1_555 1_555
C5A N1A 1_555 1_555
C6A C5A 1_555 1_555
H3A C6A 1_555 1_555
C7A C2A 1_555 1_555
H4A C7A 1_555 1_555
C8A C9A 1_555 1_555
C9A C10A 1_555 1_555
C10A H5A 1_555 1_555
C11A C10A 1_555 1_555
H6A C11A 1_555 1_555
C12A C11A 1_555 1_555
C13A C12A 1_555 1_555
H7A C13A 1_555 1_555
C14A C9A 1_555 1_555
H8A C14A 1_555 1_555
C15A O9A 1_555 1_555
C16A C15A 1_555 1_555
C17A C16A 1_555 1_555
H9A C17A 1_555 1_555
C18A C17A 1_555 1_555
H10A C18A 1_555 1_555
C19A C18A 1_555 1_555
C20A C19A 1_555 1_555
H11A C20A 1_555 1_555
C21A C16A 1_555 1_555
H12A C21A 1_555 1_555
C22A C19A 1_555 1_555
C23A C22A 1_555 1_555
H13A C23A 1_555 1_555
C24A C23A 1_555 1_555
C25A C24A 1_555 1_555
H14A C25A 1_555 1_555
C26A C25A 1_555 1_555
C27A C22A 1_555 1_555
H15A C27A 1_555 1_555
C28A C26A 1_555 1_555
C29A C28A 1_555 1_555
H16A C29A 1_555 1_555
C30A C29A 1_555 1_555
H17A C30A 1_555 1_555
C31A C30A 1_555 1_555
C32A C31A 1_555 1_555
H18A C32A 1_555 1_555
C33A C28A 1_555 1_555
H19A C33A 1_555 1_555
C34A C31A 1_555 1_555
C35A C24A 1_555 1_555
C36A C35A 1_555 1_555
H20A C36A 1_555 1_555
C37A C36A 1_555 1_555
H21A C37A 1_555 1_555
C38A C37A 1_555 1_555
C39A C38A 1_555 1_555
H22A C39A 1_555 1_555
C40A C35A 1_555 1_555
H23A C40A 1_555 1_555
C41A C38A 1_555 1_555
Fe1B O7A 1_555 1_555
Fe2B O6A 1_555 1_555
Fe3B O1B 1_555 1_555
O1B Fe1B 1_555 1_555
O2B Fe3B 1_555 1_555
O3B Fe1B 1_555 1_555
O4B Fe2B 1_555 1_555
O5B Fe3B 1_555 1_555
O6B Fe2 1_555 1_555
O7B Fe1 1_555 1_555
O8B Fe2B 1_555 1_555
O9B Fe1B 1_555 1_555
O10B Fe2B 1_555 1_555
O11B C34B 1_555 1_555
O12B C34B 1_555 1_555
O13B C41B 1_555 1_555
O14B C41B 1_555 1_555
N1B N2B 1_555 1_555
N2B C12B 1_555 1_555
C1B O2B 1_555 1_555
C2B C1B 1_555 1_555
C3B C2B 1_555 1_555
H1B C3B 1_555 1_555
C4B C3B 1_555 1_555
H2B C4B 1_555 1_555
C5B N1B 1_555 1_555
C6B C5B 1_555 1_555
H3B C6B 1_555 1_555
C7B C2B 1_555 1_555
H4B C7B 1_555 1_555
C8B O6B 1_555 1_555
C9B C8B 1_555 1_555
C10B C9B 1_555 1_555
H5B C10B 1_555 1_555
C11B C10B 1_555 1_555
H6B C11B 1_555 1_555
C12B C11B 1_555 1_555
C13B C12B 1_555 1_555
H7B C13B 1_555 1_555
C14B C9B 1_555 1_555
H8B C14B 1_555 1_555
C15B O9B 1_555 1_555
C16B C15B 1_555 1_555
C17B C16B 1_555 1_555
H9B C17B 1_555 1_555
C18B C17B 1_555 1_555
H10B C18B 1_555 1_555
C19B C18B 1_555 1_555
C20B C19B 1_555 1_555
H11B C20B 1_555 1_555
C21B C16B 1_555 1_555
H12B C21B 1_555 1_555
C22B C19B 1_555 1_555
C23B C22B 1_555 1_555
H13B C23B 1_555 1_555
C24B C23B 1_555 1_555
C25B C24B 1_555 1_555
H14B C25B 1_555 1_555
C26B C25B 1_555 1_555
C27B C22B 1_555 1_555
H15B C27B 1_555 1_555
C28B C26B 1_555 1_555
C29B C28B 1_555 1_555
H16B C29B 1_555 1_555
C30B C29B 1_555 1_555
H17B C30B 1_555 1_555
C31B C30B 1_555 1_555
C32B C31B 1_555 1_555
H18B C32B 1_555 1_555
C33B C28B 1_555 1_555
H19B C33B 1_555 1_555
C34B C31B 1_555 1_555
C35B C24B 1_555 1_555
C36B C35B 1_555 1_555
H20B C36B 1_555 1_555
C37B C36B 1_555 1_555
H21B C37B 1_555 1_555
C38B C37B 1_555 1_555
C39B C38B 1_555 1_555
H22B C39B 1_555 1_555
C40B C35B 1_555 1_555
H23B C40B 1_555 1_555
C41B C38B 1_555 1_555
Fe1A_2 O16A 1_555 1_555
Fe1B_2 O16B 1_555 1_555
Fe1F O11A 1_555 1_555
Fe1G O11B 1_555 1_555
Fe1H O11 1_555 1_555
Fe2_2 O13B 1_555 1_555
Fe2A_2 O13 1_555 1_555
Fe2B_2 O13A 1_555 1_555
Fe3_2 O14B 1_555 1_555
Fe3A_2 O14 1_555 1_555
Fe3B_2 O14A 1_555 1_555
Fe3B_3 O15B 1_555 1_555
Fe3F O12A 1_555 1_555
Fe3G O12B 1_555 1_555
Fe3H O12 1_555 1_555
O11C Fe1B 1_555 1_555
O11D Fe1 1_555 1_555
O11E Fe1A 1_555 1_555
O12C Fe3B 1_555 1_555
O12D Fe3 1_555 1_555
O12E Fe3A 1_555 1_555
O13_2 Fe2A 1_555 1_555
O13A_2 Fe2B 1_555 1_555
O13B_2 Fe2 1_555 1_555
O14_2 Fe3A 1_555 1_555
O14A_2 Fe3B 1_555 1_555
O14B_2 Fe3 1_555 1_555
O15A_2 Fe3A 1_555 1_555
O15B_2 Fe3B 1_555 1_555
O16A_2 Fe1A 1_555 1_555
O16B_2 Fe1B 1_555 1_555
O4 C1 1_555 1_555
O10 C15 1_555 1_555
O16 C42 1_555 1_555
C4 C5 1_555 1_555
C6 C7 1_555 1_555
C13 C14 1_555 1_555
C20 C21 1_555 1_555
C26 C27 1_555 1_555
C32 C33 1_555 1_555
C39 C40 1_555 1_555
C47 C48 1_555 1_555
O15A Fe3A_2 1_555 1_555
C47A C48A 1_555 1_555
C49A C50A 1_555 1_555
C46B C49B 1_555 1_555
C47B C48B 1_555 1_555
C49B C50B 1_555 1_555
Fe2A O1A 1_555 1_555
O4A C1A 1_555 1_555
O10A C15A 1_555 1_555
C4A C5A 1_555 1_555
C6A C7A 1_555 1_555
C13A C14A 1_555 1_555
C20A C21A 1_555 1_555
C26A C27A 1_555 1_555
C32A C33A 1_555 1_555
C39A C40A 1_555 1_555
Fe2B O1B 1_555 1_555
O4B C1B 1_555 1_555
O7B C8B 1_555 1_555
O10B C15B 1_555 1_555
C4B C5B 1_555 1_555
C6B C7B 1_555 1_555
C13B C14B 1_555 1_555
C20B C21B 1_555 1_555
C26B C27B 1_555 1_555
C32B C33B 1_555 1_555
C39B C40B 1_555 1_555

#END
