
#######################################################################
#
#                 Cambridge Crystallographic Data Centre
#                                CCDC 
#
#######################################################################
#
# If this CIF has been generated from an entry in the Cambridge 
# Structural Database, then it will include bibliographic, chemical, 
# crystal, experimental, refinement or atomic coordinate data resulting 
# from the CCDC's data processing and validation procedures.
#
#######################################################################

data_TOWPAY
_chemical_formula_moiety         '(C48 H30 Fe6 N6 O32)n'
_symmetry_cell_setting           cubic
_symmetry_space_group_name_H-M   'P -4 3 n'
_symmetry_Int_Tables_number      218
_space_group_name_Hall           'P -4n 2 3'
loop_
_symmetry_equiv_pos_site_id
_symmetry_equiv_pos_as_xyz
1 x,y,z
2 1/2+y,1/2-x,1/2-z
3 -x,-y,z
4 1/2-y,1/2+x,1/2-z
5 1/2-x,1/2+z,1/2-y
6 x,-y,-z
7 1/2-x,1/2-z,1/2+y
8 1/2-z,1/2-y,1/2+x
9 -x,y,-z
10 1/2+z,1/2-y,1/2-x
11 z,x,y
12 y,z,x
13 -y,-z,x
14 z,-x,-y
15 -y,z,-x
16 -z,-x,y
17 -z,x,-y
18 y,-z,-x
19 1/2-y,1/2-x,1/2+z
20 1/2+y,1/2+x,1/2+z
21 1/2+x,1/2-z,1/2-y
22 1/2+x,1/2+z,1/2+y
23 1/2-z,1/2+y,1/2-x
24 1/2+z,1/2+y,1/2+x
_cell_length_a                   21.966(3)
_cell_length_b                   21.966(3)
_cell_length_c                   21.966(3)
_cell_angle_alpha                90
_cell_angle_beta                 90
_cell_angle_gamma                90
_cell_volume                     10598.7
loop_
_atom_site_label
_atom_site_type_symbol
_atom_site_fract_x
_atom_site_fract_y
_atom_site_fract_z
Fe1 Fe 0.760592(16) 0.303669(16) 0.179832(16)
O1 O 0.81339(10) 0.32902(8) 0.31954(9)
O2 O 0.77346(10) 0.37442(8) 0.23786(9)
O3 O 0.75462(9) 0.60716(8) 0.25045(9)
O4 O 0.79620(10) 0.64875(8) 0.33319(9)
O5 O 0.75950(8) 0.24050(8) 0.24050(8)
O6 O 0.76326(11) 0.37056(10) 0.11505(9)
N1 N 0.8088(2) 0.47674(12) 0.48460(12)
C1 C 0.79330(14) 0.37471(12) 0.29093(13)
C2 C 0.79354(15) 0.43306(12) 0.32461(13)
C3 C 0.78364(13) 0.48957(12) 0.29673(13)
H1 H 0.7751 0.4913 0.2544
C4 C 0.78620(14) 0.54253(12) 0.32999(13)
C5 C 0.7969(2) 0.54105(13) 0.39265(14)
H2 H 0.8003 0.5776 0.4155
C6 C 0.8026(3) 0.48396(14) 0.42077(14)
C7 C 0.8050(2) 0.43108(14) 0.38747(14)
H3 H 0.8144 0.3935 0.4068
C8 C 0.77770(12) 0.60414(11) 0.30166(13)
H4 H 0.777(2) 0.379(2) 0.0744(8)
O1E O 0.81339(10) 0.67098(8) 0.68046(9)
O2E O 0.77346(10) 0.62558(8) 0.76214(9)
O3E O 0.75462(9) 0.39284(8) 0.74955(9)
O4E O 0.79620(10) 0.35125(8) 0.66681(9)
N1E N 0.8088(2) 0.52326(12) 0.51540(12)
C1E C 0.79330(14) 0.62529(12) 0.70907(13)
C2E C 0.79354(15) 0.56694(12) 0.67539(13)
C3E C 0.78364(13) 0.51043(12) 0.70327(13)
H1E H 0.7751 0.5087 0.7456
C4E C 0.78620(14) 0.45747(12) 0.67001(13)
C5E C 0.7969(2) 0.45895(13) 0.60735(14)
H2E H 0.8003 0.4224 0.5845
C6E C 0.8026(3) 0.51604(14) 0.57923(14)
C7E C 0.8050(2) 0.56892(14) 0.61253(14)
H3E H 0.8144 0.6065 0.5932
C8E C 0.77770(12) 0.39586(11) 0.69834(13)
Fe1A Fe 0.803669(16) 0.739408(16) 0.320168(16)
O6A O 0.87056(10) 0.73674(11) 0.38495(9)
H4A H 0.879(2) 0.723(2) 0.4256(8)
Fe1D Fe 0.739408(16) -0.320168(16) 0.196331(16)
O1D O 0.68661(10) -0.18046(9) 0.17098(8)
O2D O 0.72654(10) -0.26214(9) 0.12558(8)
O3D O 0.74538(9) -0.24955(9) -0.10716(8)
O4D O 0.70380(10) -0.16681(9) -0.14875(8)
O6D O 0.73674(11) -0.38495(9) 0.12944(10)
N1D N 0.6912(2) -0.01540(12) 0.02326(12)
C1D C 0.70670(14) -0.20907(13) 0.12529(12)
C2D C 0.70646(15) -0.17539(13) 0.06694(12)
C3D C 0.71636(13) -0.20327(13) 0.01043(12)
H1D H 0.7249 -0.2456 0.0087
C4D C 0.71380(14) -0.17001(13) -0.04253(12)
C5D C 0.7031(2) -0.10735(14) -0.04105(13)
H2D H 0.6997 -0.0845 -0.0776
C6D C 0.6974(3) -0.07923(14) 0.01604(14)
C7D C 0.6950(2) -0.11253(14) 0.06892(14)
H3D H 0.6856 -0.0932 0.1065
C8D C 0.72230(12) -0.19834(13) -0.10414(11)
H4D H 0.723(2) -0.4256(8) 0.121(2)
O1F O 0.68661(10) 0.18046(9) -0.17098(8)
O2F O 0.72654(10) 0.26214(9) -0.12558(8)
O3F O 0.74538(9) 0.24955(9) 0.10716(8)
O4F O 0.70380(10) 0.16681(9) 0.14875(8)
N1F N 0.6912(2) 0.01540(12) -0.02326(12)
C1F C 0.70670(14) 0.20907(13) -0.12529(12)
C2F C 0.70646(15) 0.17539(13) -0.06694(12)
C3F C 0.71636(13) 0.20327(13) -0.01043(12)
H1F H 0.7249 0.2456 -0.0087
C4F C 0.71380(14) 0.17001(13) 0.04253(12)
C5F C 0.7031(2) 0.10735(14) 0.04105(13)
H2F H 0.6997 0.0845 0.0776
C6F C 0.6974(3) 0.07923(14) -0.01604(14)
C7F C 0.6950(2) 0.11253(14) -0.06892(14)
H3F H 0.6856 0.0932 -0.1065
C8F C 0.72230(12) 0.19834(13) 0.10414(11)
Fe1D_2 Fe 0.739408(16) 0.679832(16) 0.196331(16)
O1D_2 O 0.68661(10) 0.81954(9) 0.17098(8)
O2D_2 O 0.72654(10) 0.73786(9) 0.12558(8)
O3D_2 O 0.74538(9) 0.75045(9) -0.10716(8)
O4D_2 O 0.70380(10) 0.83319(9) -0.14875(8)
O6D_2 O 0.73674(11) 0.61505(9) 0.12944(10)
N1D_2 N 0.6912(2) 0.98460(12) 0.02326(12)
C1D_2 C 0.70670(14) 0.79093(13) 0.12529(12)
C2D_2 C 0.70646(15) 0.82461(13) 0.06694(12)
C3D_2 C 0.71636(13) 0.79673(13) 0.01043(12)
H1D_2 H 0.7249 0.7544 0.0087
C4D_2 C 0.71380(14) 0.82999(13) -0.04253(12)
C5D_2 C 0.7031(2) 0.89265(14) -0.04105(13)
H2D_2 H 0.6997 0.9155 -0.0776
C6D_2 C 0.6974(3) 0.92077(14) 0.01604(14)
C7D_2 C 0.6950(2) 0.88747(14) 0.06892(14)
H3D_2 H 0.6856 0.9068 0.1065
C8D_2 C 0.72230(12) 0.80166(13) -0.10414(11)
H4D_2 H 0.723(2) 0.5744(8) 0.121(2)
O1F_2 O 0.68661(10) 1.18046(9) -0.17098(8)
O2F_2 O 0.72654(10) 1.26214(9) -0.12558(8)
O3F_2 O 0.74538(9) 1.24955(9) 0.10716(8)
O4F_2 O 0.70380(10) 1.16681(9) 0.14875(8)
N1F_2 N 0.6912(2) 1.01540(12) -0.02326(12)
C1F_2 C 0.70670(14) 1.20907(13) -0.12529(12)
C2F_2 C 0.70646(15) 1.17539(13) -0.06694(12)
C3F_2 C 0.71636(13) 1.20327(13) -0.01043(12)
H1F_2 H 0.7249 1.2456 -0.0087
C4F_2 C 0.71380(14) 1.17001(13) 0.04253(12)
C5F_2 C 0.7031(2) 1.10735(14) 0.04105(13)
H2F_2 H 0.6997 1.0845 0.0776
C6F_2 C 0.6974(3) 1.07923(14) -0.01604(14)
C7F_2 C 0.6950(2) 1.11253(14) -0.06892(14)
H3F_2 H 0.6856 1.0932 -0.1065
C8F_2 C 0.72230(12) 1.19834(13) 0.10414(11)
Fe1E Fe 0.760592(16) 0.696331(16) 0.820168(16)
O5E O 0.75950(8) 0.75950(8) 0.75950(8)
O6E O 0.76326(11) 0.62944(10) 0.88495(9)
H4E H 0.777(2) 0.621(2) 0.9256(8)
Fe1O Fe 0.820168(16) 0.239408(16) 0.303669(16)
O6O O 0.88495(9) 0.23674(11) 0.37056(10)
H4O H 0.9256(8) 0.223(2) 0.379(2)
Fe1_2 Fe 0.760592(16) 1.303669(16) 0.179832(16)
Fe1E_2 Fe 0.760592(16) -0.303669(16) -0.179832(16)
Fe1E_3 Fe 0.760592(16) 0.696331(16) -0.179832(16)
Fe1F Fe 0.739408(16) 0.320168(16) -0.196331(16)
Fe1F_2 Fe 0.739408(16) 0.320168(16) 0.803669(16)
Fe1F_3 Fe 0.739408(16) 1.320168(16) -0.196331(16)
Fe1I Fe 0.679832(16) 0.196331(16) -0.260592(16)
Fe1I_2 Fe 0.679832(16) 1.196331(16) -0.260592(16)
Fe1L Fe 0.696331(16) -0.179832(16) -0.239408(16)
Fe1L_2 Fe 0.696331(16) 0.820168(16) -0.239408(16)
Fe1L_3 Fe 0.696331(16) 0.820168(16) 0.760592(16)
Fe1N Fe 0.696331(16) 0.179832(16) 0.239408(16)
Fe1N_2 Fe 0.696331(16) 1.179832(16) 0.239408(16)
Fe1P Fe 0.820168(16) 0.760592(16) 0.696331(16)
Fe1S Fe 0.803669(16) 0.260592(16) 0.679832(16)
Fe1W Fe 0.679832(16) -0.196331(16) 0.260592(16)
Fe1W_2 Fe 0.679832(16) 0.803669(16) 0.260592(16)
O1A O 0.82902(8) -0.31339(10) 0.18046(9)
O1A_2 O 0.82902(8) 0.68661(10) 0.18046(9)
O1L O 0.67098(8) 0.68046(9) 0.81339(10)
O1N O 0.67098(8) 0.31954(9) 0.18661(10)
O1W O 0.81954(9) 0.82902(8) 0.31339(10)
O2A O 0.87442(8) 0.72654(10) 0.26214(9)
O2O O 0.76214(9) 0.22654(10) 0.37442(8)
O3_2 O 0.75462(9) -0.39284(8) 0.25045(9)
O3C O 0.89284(8) 0.25462(9) 0.24955(9)
O3D_3 O 0.74538(9) 0.75045(9) 0.89284(8)
O3P O 0.74955(9) 0.75462(9) 0.39284(8)
O4C O 0.85125(8) 0.29620(10) 0.16681(9)
O4Q O 0.64875(8) -0.33319(9) 0.20380(10)
O4Q_2 O 0.64875(8) 0.66681(9) 0.20380(10)
O4R O 0.85125(8) 0.70380(10) 0.83319(9)
O4W O 0.83319(9) 0.14875(8) 0.29620(10)
O5A O 0.74050(8) -0.25950(8) 0.25950(8)
O5A_2 O 0.74050(8) 0.74050(8) 0.25950(8)
loop_
_geom_bond_atom_site_label_1
_geom_bond_atom_site_label_2
_geom_bond_site_symmetry_1
_geom_bond_site_symmetry_2
Fe1 O2 1_555 1_555
O1 C1 1_555 1_555
O2 C1 1_555 1_555
O3 C8 1_555 1_555
O4 C8 1_555 1_555
O5 Fe1 1_555 1_555
O6 Fe1 1_555 1_555
N1 C6 1_555 1_555
C1 C2 1_555 1_555
C2 C3 1_555 1_555
C3 H1 1_555 1_555
C4 C3 1_555 1_555
C5 C4 1_555 1_555
H2 C5 1_555 1_555
C6 C5 1_555 1_555
C7 C2 1_555 1_555
H3 C7 1_555 1_555
C8 C4 1_555 1_555
H4 O6 1_555 1_555
O1E C1E 1_555 1_555
O2E C1E 1_555 1_555
O3E C8E 1_555 1_555
O4E C8E 1_555 1_555
N1E N1 1_555 1_555
C1E C2E 1_555 1_555
C2E C3E 1_555 1_555
C3E H1E 1_555 1_555
C4E C3E 1_555 1_555
C5E C4E 1_555 1_555
H2E C5E 1_555 1_555
C6E N1E 1_555 1_555
C7E C2E 1_555 1_555
H3E C7E 1_555 1_555
C8E C4E 1_555 1_555
Fe1A O4 1_555 1_555
O6A Fe1A 1_555 1_555
H4A O6A 1_555 1_555
Fe1D O2D 1_555 1_555
O1D C1D 1_555 1_555
O2D C1D 1_555 1_555
O3D C8D 1_555 1_555
O4D C8D 1_555 1_555
O6D Fe1D 1_555 1_555
N1D C6D 1_555 1_555
C1D C2D 1_555 1_555
C2D C3D 1_555 1_555
C3D H1D 1_555 1_555
C4D C3D 1_555 1_555
C5D C4D 1_555 1_555
H2D C5D 1_555 1_555
C6D C5D 1_555 1_555
C7D C2D 1_555 1_555
H3D C7D 1_555 1_555
C8D C4D 1_555 1_555
H4D O6D 1_555 1_555
O1F C1F 1_555 1_555
O2F C1F 1_555 1_555
O3F Fe1 1_555 1_555
O4F C8F 1_555 1_555
N1F N1D 1_555 1_555
C1F C2F 1_555 1_555
C2F C3F 1_555 1_555
C3F H1F 1_555 1_555
C4F C3F 1_555 1_555
C5F C4F 1_555 1_555
H2F C5F 1_555 1_555
C6F N1F 1_555 1_555
C7F C2F 1_555 1_555
H3F C7F 1_555 1_555
C8F O3F 1_555 1_555
Fe1D_2 O3 1_555 1_555
O1D_2 C1D_2 1_555 1_555
O2D_2 Fe1D_2 1_555 1_555
O3D_2 C8D_2 1_555 1_555
O4D_2 C8D_2 1_555 1_555
O6D_2 Fe1D_2 1_555 1_555
N1D_2 C6D_2 1_555 1_555
C1D_2 O2D_2 1_555 1_555
C2D_2 C1D_2 1_555 1_555
C3D_2 C2D_2 1_555 1_555
H1D_2 C3D_2 1_555 1_555
C4D_2 C3D_2 1_555 1_555
C5D_2 C4D_2 1_555 1_555
H2D_2 C5D_2 1_555 1_555
C6D_2 C5D_2 1_555 1_555
C7D_2 C2D_2 1_555 1_555
H3D_2 C7D_2 1_555 1_555
C8D_2 C4D_2 1_555 1_555
H4D_2 O6D_2 1_555 1_555
O1F_2 C1F_2 1_555 1_555
O2F_2 C1F_2 1_555 1_555
O3F_2 C8F_2 1_555 1_555
O4F_2 C8F_2 1_555 1_555
N1F_2 N1D_2 1_555 1_555
C1F_2 C2F_2 1_555 1_555
C2F_2 C3F_2 1_555 1_555
C3F_2 H1F_2 1_555 1_555
C4F_2 C3F_2 1_555 1_555
C5F_2 C4F_2 1_555 1_555
H2F_2 C5F_2 1_555 1_555
C6F_2 N1F_2 1_555 1_555
C7F_2 C2F_2 1_555 1_555
H3F_2 C7F_2 1_555 1_555
C8F_2 C4F_2 1_555 1_555
Fe1E O2E 1_555 1_555
O5E Fe1E 1_555 1_555
O6E Fe1E 1_555 1_555
H4E O6E 1_555 1_555
Fe1O O1 1_555 1_555
O6O Fe1O 1_555 1_555
H4O O6O 1_555 1_555
Fe1_2 O3F_2 1_555 1_555
Fe1E_2 O3D 1_555 1_555
Fe1E_3 O3D_2 1_555 1_555
Fe1F O2F 1_555 1_555
Fe1F_2 O3E 1_555 1_555
Fe1F_3 O2F_2 1_555 1_555
Fe1I O1F 1_555 1_555
Fe1I_2 O1F_2 1_555 1_555
Fe1L O4D 1_555 1_555
Fe1L_2 O4D_2 1_555 1_555
Fe1L_3 O5E 1_555 1_555
Fe1N O5 1_555 1_555
Fe1N_2 O4F_2 1_555 1_555
Fe1P O1E 1_555 1_555
Fe1S O4E 1_555 1_555
Fe1W O1D 1_555 1_555
Fe1W_2 O1D_2 1_555 1_555
O1A Fe1D 1_555 1_555
O1A_2 Fe1D_2 1_555 1_555
O1L Fe1E 1_555 1_555
O1N Fe1 1_555 1_555
O1W Fe1A 1_555 1_555
O2A Fe1A 1_555 1_555
O2O Fe1O 1_555 1_555
O3_2 Fe1D 1_555 1_555
O3C Fe1O 1_555 1_555
O3D_3 Fe1E 1_555 1_555
O3P Fe1A 1_555 1_555
O4C Fe1 1_555 1_555
O4Q Fe1D 1_555 1_555
O4Q_2 Fe1D_2 1_555 1_555
O4R Fe1E 1_555 1_555
O4W Fe1O 1_555 1_555
O5A Fe1D 1_555 1_555
O5A_2 Fe1A 1_555 1_555
O5 Fe1O 1_555 1_555
C6 C7 1_555 1_555
C5E C6E 1_555 1_555
C6E C7E 1_555 1_555
C6D C7D 1_555 1_555
O4F Fe1N 1_555 1_555
C4F C8F 1_555 1_555
C5F C6F 1_555 1_555
C6F C7F 1_555 1_555
Fe1D_2 O5A_2 1_555 1_555
C6D_2 C7D_2 1_555 1_555
C5F_2 C6F_2 1_555 1_555
C6F_2 C7F_2 1_555 1_555
O5E Fe1P 1_555 1_555
Fe1W O5A 1_555 1_555
Fe1W_2 O5A_2 1_555 1_555

#END
