
#######################################################################
#
#                 Cambridge Crystallographic Data Centre
#                                CCDC 
#
#######################################################################
#
# If this CIF has been generated from an entry in the Cambridge 
# Structural Database, then it will include bibliographic, chemical, 
# crystal, experimental, refinement or atomic coordinate data resulting 
# from the CCDC's data processing and validation procedures.
#
#######################################################################

data_JEJKIT
_chemical_formula_moiety         '(C18 H18 N2 Ni2 O11)n'
_symmetry_cell_setting           orthorhombic
_symmetry_space_group_name_H-M   'P b c n'
_symmetry_Int_Tables_number      60
_space_group_name_Hall           '-P 2n 2ab'
loop_
_symmetry_equiv_pos_site_id
_symmetry_equiv_pos_as_xyz
1 x,y,z
2 1/2-x,1/2-y,1/2+z
3 -x,y,1/2-z
4 1/2+x,1/2-y,-z
5 -x,-y,-z
6 1/2+x,1/2+y,1/2-z
7 x,-y,1/2+z
8 1/2-x,1/2+y,z
_cell_length_a                   9.3525(19)
_cell_length_b                   10.917(2)
_cell_length_c                   24.175(5)
_cell_angle_alpha                90
_cell_angle_beta                 90
_cell_angle_gamma                90
_cell_volume                     2468.3
loop_
_atom_site_label
_atom_site_type_symbol
_atom_site_fract_x
_atom_site_fract_y
_atom_site_fract_z
Ni1 Ni 0.24004(4) 0.23011(4) 0.037745(16)
O1 O 0.3314(2) 0.3970(2) 0.05210(8)
O2 O 0.3204(2) 0.26828(19) -0.04203(9)
O3 O 0.0592(2) 0.3231(2) 0.00815(9)
N1 N 0.1510(3) 0.2273(3) 0.11580(11)
C1 C 0.3329(3) 0.4615(3) 0.00987(13)
C2 C 0.3098(3) 0.3997(3) -0.04661(11)
H1 H 0.3826 0.4291 -0.0725
C3 C 0.1620(3) 0.4297(3) -0.06959(12)
H2 H 0.1591 0.4054 -0.1082
H3 H 0.1486 0.5178 -0.0682
C4 C 0.0377(3) 0.3686(3) -0.03947(13)
C5 C 0.0977(4) 0.3309(3) 0.13743(13)
H4 H 0.1019 0.4025 0.1166
C6 C 0.0366(4) 0.3355(3) 0.18957(14)
H5 H -0.0010 0.4085 0.2030
C7 C 0.0320(4) 0.2297(3) 0.22162(14)
C8 C 0.0870(5) 0.1231(4) 0.19863(15)
H6 H 0.0856 0.0503 0.2186
C9 C 0.1440(5) 0.1259(4) 0.14554(14)
H7 H 0.1787 0.0535 0.1303
O4 O 0.3535(2) 0.5755(2) 0.00830(11)
O5 O -0.0807(2) 0.3697(2) -0.06314(9)
Ni1G Ni 0.25996(4) -0.26989(4) 0.037745(16)
Ni1G_2 Ni 0.25996(4) 0.73011(4) 0.037745(16)
Ni1C Ni -0.25996(4) 0.26989(4) -0.037745(16)
Ni1B Ni -0.24004(4) 0.23011(4) 0.462255(16)
Ni1D Ni 0.75996(4) -0.23011(4) -0.037745(16)
O1G O 0.1686(2) -0.1030(2) 0.05210(8)
O2G O 0.1796(2) -0.23172(19) -0.04203(9)
O3G O 0.4408(2) -0.1769(2) 0.00815(9)
N1B N -0.1510(3) 0.2273(3) 0.38420(11)
N1G N 0.3490(3) -0.2727(3) 0.11580(11)
C1G C 0.1671(3) -0.0385(3) 0.00987(13)
C2G C 0.1902(3) -0.1003(3) -0.04661(11)
H1G H 0.1174 -0.0709 -0.0725
C3G C 0.3380(3) -0.0703(3) -0.06959(12)
H2G H 0.3409 -0.0946 -0.1082
H3G H 0.3514 0.0178 -0.0682
C4G C 0.4623(3) -0.1314(3) -0.03947(13)
C5B C -0.0977(4) 0.3309(3) 0.36257(13)
H4B H -0.1019 0.4025 0.3834
C6B C -0.0366(4) 0.3355(3) 0.31043(14)
H5B H 0.0010 0.4085 0.2970
C7B C -0.0320(4) 0.2297(3) 0.27838(14)
C8B C -0.0870(5) 0.1231(4) 0.30137(15)
H6B H -0.0856 0.0503 0.2814
C9B C -0.1440(5) 0.1259(4) 0.35446(14)
H7B H -0.1787 0.0535 0.3697
O4G O 0.1465(2) 0.0755(2) 0.00830(11)
O4_2 O 0.3535(2) -0.4245(2) 0.00830(11)
O5G O 0.5807(2) -0.1303(2) -0.06314(9)
O5C O 0.4193(2) 0.1303(2) 0.06314(9)
O5D O 0.0807(2) -0.3697(2) 0.06314(9)
O6 O 0.5919(9) 0.3540(6) 0.1226(3)
loop_
_geom_bond_atom_site_label_1
_geom_bond_atom_site_label_2
_geom_bond_site_symmetry_1
_geom_bond_site_symmetry_2
Ni1 O1 1_555 1_555
O1 C1 1_555 1_555
O2 Ni1 1_555 1_555
O3 Ni1 1_555 1_555
N1 Ni1 1_555 1_555
C1 C2 1_555 1_555
C2 O2 1_555 1_555
H1 C2 1_555 1_555
C3 C2 1_555 1_555
H2 C3 1_555 1_555
H3 C3 1_555 1_555
C4 O3 1_555 1_555
C5 N1 1_555 1_555
H4 C5 1_555 1_555
C6 C5 1_555 1_555
H5 C6 1_555 1_555
C7 C6 1_555 1_555
C8 C7 1_555 1_555
H6 C8 1_555 1_555
C9 N1 1_555 1_555
H7 C9 1_555 1_555
O4 C1 1_555 1_555
O5 C4 1_555 1_555
Ni1G O1G 1_555 1_555
Ni1G_2 O4 1_555 1_555
Ni1C O5 1_555 1_555
Ni1B N1B 1_555 1_555
Ni1D O5G 1_555 1_555
O1G C1G 1_555 1_555
O2G Ni1G 1_555 1_555
O3G Ni1G 1_555 1_555
N1B C5B 1_555 1_555
N1G Ni1G 1_555 1_555
C1G C2G 1_555 1_555
C2G O2G 1_555 1_555
H1G C2G 1_555 1_555
C3G C2G 1_555 1_555
H2G C3G 1_555 1_555
H3G C3G 1_555 1_555
C4G O3G 1_555 1_555
C5B H4B 1_555 1_555
C6B C5B 1_555 1_555
H5B C6B 1_555 1_555
C7B C7 1_555 1_555
C8B C7B 1_555 1_555
H6B C8B 1_555 1_555
C9B N1B 1_555 1_555
H7B C9B 1_555 1_555
O4G Ni1 1_555 1_555
O4_2 Ni1G 1_555 1_555
O5G C4G 1_555 1_555
O5C Ni1 1_555 1_555
O5D Ni1G 1_555 1_555
C3 C4 1_555 1_555
C8 C9 1_555 1_555
C1G O4G 1_555 1_555
C3G C4G 1_555 1_555
C6B C7B 1_555 1_555
C8B C9B 1_555 1_555

#END
