
#######################################################################
#
#                 Cambridge Crystallographic Data Centre
#                                CCDC 
#
#######################################################################
#
# If this CIF has been generated from an entry in the Cambridge 
# Structural Database, then it will include bibliographic, chemical, 
# crystal, experimental, refinement or atomic coordinate data resulting 
# from the CCDC's data processing and validation procedures.
#
#######################################################################

data_PEHTON
_chemical_formula_moiety         '(C43 H41 Cu3 N7 O9)n'
_symmetry_cell_setting           orthorhombic
_symmetry_space_group_name_H-M   'P n m a'
_symmetry_Int_Tables_number      62
_space_group_name_Hall           '-P 2ac 2n'
loop_
_symmetry_equiv_pos_site_id
_symmetry_equiv_pos_as_xyz
1 x,y,z
2 1/2-x,-y,1/2+z
3 1/2+x,1/2-y,1/2-z
4 -x,1/2+y,-z
5 -x,-y,-z
6 1/2+x,y,1/2-z
7 1/2-x,1/2+y,1/2+z
8 x,1/2-y,z
_cell_length_a                   9.2091(7)
_cell_length_b                   22.7532(16)
_cell_length_c                   23.0902(12)
_cell_angle_alpha                90
_cell_angle_beta                 90
_cell_angle_gamma                90
_cell_volume                     4838.24
loop_
_atom_site_label
_atom_site_type_symbol
_atom_site_fract_x
_atom_site_fract_y
_atom_site_fract_z
_atom_site_U_iso_or_equiv
_atom_site_thermal_displace_type
Cu1 Cu 0.38884(11) 0.03282(5) 0.53264(4) 0.0658 Uani
Cu2 Cu 0.26482(18) 0.2500 0.52734(5) 0.0623 Uani
O1 O 0.3482(15) 0.2500 0.6991(3) 0.1273 Uani
O2 O 0.3832(11) 0.2500 0.6038(3) 0.0820 Uani
O3 O 0.0842(11) 0.2500 0.4738(3) 0.0863 Uani
O4 O -0.1568(15) 0.2500 0.4760(5) 0.1543 Uani
O5 O 0.4626(7) 0.0972(3) 0.4627(2) 0.0750 Uani
O6 O 0.3073(7) 0.1513(2) 0.5119(2) 0.0660 Uani
N1 N 0.1075(15) 0.2500 0.5833(4) 0.0723 Uani
N2 N 0.4172(10) 0.2500 0.4672(3) 0.0500 Uani
N3 N 0.4913(7) 0.0518(3) 0.6027(2) 0.0543 Uani
N4 N 0.2599(6) 0.0057(3) 0.9878(2) 0.0530 Uani
C1 C 0.1394(19) 0.2500 0.6402(6) 0.0760 Uani
C2 C 0.024(2) 0.2500 0.6812(6) 0.0930 Uani
H1 H 0.0419 0.2500 0.7209 0.1120 Uiso
C3 C -0.112(2) 0.2500 0.6597(7) 0.1107 Uani
H2 H -0.1887 0.2500 0.6860 0.1330 Uiso
C4 C -0.145(2) 0.2500 0.6040(7) 0.1013 Uani
H3 H -0.2411 0.2500 0.5914 0.1210 Uiso
C5 C -0.027(2) 0.2500 0.5641(7) 0.0910 Uani
C6 C 0.294(2) 0.2500 0.6495(5) 0.0840 Uani
C7 C -0.042(2) 0.2500 0.4997(6) 0.0940 Uani
C8 C 0.4640(8) 0.1978(3) 0.4460(3) 0.0517 Uani
C9 C 0.5577(10) 0.1961(4) 0.4012(4) 0.0750 Uani
H4 H 0.5904 0.1606 0.3861 0.0900 Uiso
C10 C 0.6039(15) 0.2500 0.3781(6) 0.1013 Uani
H5 H 0.6671 0.2500 0.3467 0.1220 Uiso
C11 C 0.4055(10) 0.1442(3) 0.4766(4) 0.0563 Uani
C12 C 0.5506(10) 0.0101(4) 0.6356(3) 0.0660 Uani
H6 H 0.5509 -0.0284 0.6222 0.0790 Uiso
C13 C 0.6118(9) 0.0222(4) 0.6889(3) 0.0627 Uani
H7 H 0.6523 -0.0084 0.7102 0.0750 Uiso
C14 C 0.6143(8) 0.0766(4) 0.7108(3) 0.0497 Uani
C15 C 0.5572(8) 0.1198(4) 0.6759(3) 0.0587 Uani
H8 H 0.5596 0.1587 0.6882 0.0700 Uiso
C16 C 0.4965(8) 0.1061(4) 0.6232(3) 0.0570 Uani
H9 H 0.4574 0.1364 0.6009 0.0680 Uiso
C17 C 0.6638(9) 0.0887(4) 0.7713(3) 0.0657 Uani
H10 H 0.6896 0.1298 0.7750 0.0790 Uiso
H11 H 0.7494 0.0654 0.7797 0.0790 Uiso
C18 C 0.5441(9) 0.0737(4) 0.8142(3) 0.0637 Uani
H12 H 0.4615 0.0991 0.8068 0.0760 Uiso
H13 H 0.5131 0.0335 0.8075 0.0760 Uiso
C19 C 0.5870(9) 0.0799(5) 0.8768(3) 0.0707 Uani
H14 H 0.6015 0.1212 0.8857 0.0850 Uiso
H15 H 0.6781 0.0596 0.8833 0.0850 Uiso
C20 C 0.2783(9) 0.0630(4) 0.9835(3) 0.0650 Uani
H16 H 0.2179 0.0873 1.0051 0.0780 Uiso
C21 C 0.3808(9) 0.0886(4) 0.9491(3) 0.0640 Uani
H17 H 0.3887 0.1293 0.9479 0.0770 Uiso
C22 C 0.4717(9) 0.0548(4) 0.9165(3) 0.0603 Uani
C23 C 0.4527(9) -0.0057(4) 0.9208(3) 0.0613 Uani
H18 H 0.5116 -0.0308 0.8994 0.0740 Uiso
C24 C 0.3493(9) -0.0282(4) 0.9559(3) 0.0580 Uani
H19 H 0.3395 -0.0689 0.9582 0.0700 Uiso
Cu1G Cu 0.38884(11) 0.46718(5) 0.53264(4) 0.0658 Uani
Cu1A Cu 0.11116(11) -0.03282(5) 1.03264(4) 0.0658 Uani
Cu1F Cu 0.11116(11) 0.53282(5) 1.03264(4) 0.0658 Uani
O5G O 0.4626(7) 0.4028(3) 0.4627(2) 0.0750 Uani
O6G O 0.3073(7) 0.3487(2) 0.5119(2) 0.0660 Uani
N3G N 0.4913(7) 0.4482(3) 0.6027(2) 0.0543 Uani
N4G N 0.2599(6) 0.4943(3) 0.9878(2) 0.0530 Uani
N4A N 0.2401(6) -0.0057(3) 0.4878(2) 0.0530 Uani
N4F N 0.2401(6) 0.5057(3) 0.4878(2) 0.0530 Uani
C8G C 0.4640(8) 0.3022(3) 0.4460(3) 0.0517 Uani
C9G C 0.5577(10) 0.3039(4) 0.4012(4) 0.0750 Uani
H4G H 0.5904 0.3394 0.3861 0.0900 Uiso
C11G C 0.4055(10) 0.3558(3) 0.4766(4) 0.0563 Uani
C12G C 0.5506(10) 0.4899(4) 0.6356(3) 0.0660 Uani
H6G H 0.5509 0.5284 0.6222 0.0790 Uiso
C13G C 0.6118(9) 0.4778(4) 0.6889(3) 0.0627 Uani
H7G H 0.6523 0.5084 0.7102 0.0750 Uiso
C14G C 0.6143(8) 0.4234(4) 0.7108(3) 0.0497 Uani
C15G C 0.5572(8) 0.3802(4) 0.6759(3) 0.0587 Uani
H8G H 0.5596 0.3413 0.6882 0.0700 Uiso
C16G C 0.4965(8) 0.3939(4) 0.6232(3) 0.0570 Uani
H9G H 0.4574 0.3636 0.6009 0.0680 Uiso
C17G C 0.6638(9) 0.4113(4) 0.7713(3) 0.0657 Uani
H10G H 0.6896 0.3702 0.7750 0.0790 Uiso
H11G H 0.7494 0.4346 0.7797 0.0790 Uiso
C18G C 0.5441(9) 0.4263(4) 0.8142(3) 0.0637 Uani
H12G H 0.4615 0.4009 0.8068 0.0760 Uiso
H13G H 0.5131 0.4665 0.8075 0.0760 Uiso
C19G C 0.5870(9) 0.4201(5) 0.8768(3) 0.0707 Uani
H14G H 0.6015 0.3788 0.8857 0.0850 Uiso
H15G H 0.6781 0.4404 0.8833 0.0850 Uiso
C20G C 0.2783(9) 0.4370(4) 0.9835(3) 0.0650 Uani
H16G H 0.2179 0.4127 1.0051 0.0780 Uiso
C21G C 0.3808(9) 0.4114(4) 0.9491(3) 0.0640 Uani
H17G H 0.3887 0.3707 0.9479 0.0770 Uiso
C22G C 0.4717(9) 0.4452(4) 0.9165(3) 0.0603 Uani
C23G C 0.4527(9) 0.5057(4) 0.9208(3) 0.0613 Uani
H18G H 0.5116 0.5308 0.8994 0.0740 Uiso
C24G C 0.3493(9) 0.5282(4) 0.9559(3) 0.0580 Uani
H19G H 0.3395 0.5689 0.9582 0.0700 Uiso
O7 O 0.332(2) 0.1288(11) 0.1639(11) 0.5500 Uiso
N5 N 0.5555(17) 0.1445(6) 0.1801(6) 0.1950 Uiso
C25 C 0.438(2) 0.1541(10) 0.1383(9) 0.1380 Uiso
H20 H 0.4396 0.1733 0.1028 0.1660 Uiso
C26 C 0.581(2) 0.1113(9) 0.2337(8) 0.1180 Uiso
H21 H 0.6778 0.1190 0.2475 0.1770 Uiso
H22 H 0.5708 0.0700 0.2261 0.1770 Uiso
H23 H 0.5121 0.1231 0.2626 0.1770 Uiso
C27 C 0.688(2) 0.1660(10) 0.1531(9) 0.1230 Uiso
H24 H 0.7684 0.1604 0.1791 0.1850 Uiso
H25 H 0.6781 0.2071 0.1445 0.1850 Uiso
H26 H 0.7057 0.1447 0.1179 0.1850 Uiso
loop_
_atom_site_aniso_label
_atom_site_aniso_U_11
_atom_site_aniso_U_22
_atom_site_aniso_U_33
_atom_site_aniso_U_23
_atom_site_aniso_U_13
_atom_site_aniso_U_12
Cu1 0.0603(7) 0.0826(9) 0.0546(7) -0.0176(5) -0.0057(5) -0.0020(6)
Cu2 0.1030(13) 0.0468(9) 0.0372(7) 0.000 -0.0063(7) 0.000
O1 0.239(14) 0.102(8) 0.041(5) 0.000 -0.034(6) 0.000
O2 0.134(8) 0.059(6) 0.053(5) 0.000 -0.025(5) 0.000
O3 0.084(7) 0.126(9) 0.049(5) 0.000 -0.006(5) 0.000
O4 0.100(10) 0.255(19) 0.108(9) 0.000 -0.018(7) 0.000
O5 0.085(4) 0.046(4) 0.094(4) -0.013(3) -0.023(3) 0.011(3)
O6 0.107(5) 0.039(3) 0.052(3) 0.000(2) 0.000(3) -0.007(3)
N1 0.138(11) 0.046(6) 0.033(5) 0.000 0.010(6) 0.000
N2 0.069(6) 0.037(5) 0.044(5) 0.000 -0.013(4) 0.000
N3 0.052(4) 0.064(5) 0.047(3) -0.004(3) -0.003(3) 0.004(4)
N4 0.043(4) 0.070(5) 0.046(3) 0.008(3) 0.002(3) -0.001(4)
C1 0.130(13) 0.033(7) 0.065(9) 0.000 -0.009(9) 0.000
C2 0.180(17) 0.057(9) 0.042(7) 0.000 0.034(10) 0.000
C3 0.161(19) 0.089(13) 0.082(12) 0.000 0.020(12) 0.000
C4 0.127(14) 0.086(12) 0.091(11) 0.000 0.035(11) 0.000
C5 0.119(14) 0.061(9) 0.093(11) 0.000 0.005(11) 0.000
C6 0.185(17) 0.035(7) 0.032(6) 0.000 -0.007(9) 0.000
C7 0.118(14) 0.102(12) 0.062(9) 0.000 -0.004(11) 0.000
C8 0.059(5) 0.043(5) 0.053(4) -0.010(4) -0.011(4) 0.003(4)
C9 0.079(7) 0.065(6) 0.081(6) -0.004(5) 0.009(5) 0.004(5)
C10 0.070(10) 0.148(17) 0.086(10) 0.000 0.033(8) 0.000
C11 0.069(6) 0.036(5) 0.064(5) -0.007(4) -0.023(5) 0.002(4)
C12 0.077(6) 0.051(5) 0.070(5) -0.013(4) 0.003(5) -0.001(5)
C13 0.083(6) 0.056(6) 0.049(4) 0.004(4) -0.004(4) 0.006(5)
C14 0.045(4) 0.064(5) 0.040(4) -0.003(4) 0.002(3) -0.011(4)
C15 0.067(5) 0.054(5) 0.055(5) -0.004(4) 0.000(4) -0.014(4)
C16 0.065(6) 0.050(5) 0.056(5) -0.001(4) -0.005(4) 0.000(4)
C17 0.063(5) 0.082(6) 0.052(4) -0.016(4) 0.001(4) -0.014(5)
C18 0.061(5) 0.083(6) 0.047(4) 0.006(4) -0.001(4) -0.011(5)
C19 0.066(6) 0.102(8) 0.044(4) 0.010(4) 0.000(4) -0.016(5)
C20 0.057(5) 0.068(6) 0.070(5) 0.003(5) 0.000(4) 0.006(5)
C21 0.074(6) 0.049(5) 0.069(5) 0.011(4) 0.005(5) -0.004(5)
C22 0.066(6) 0.072(6) 0.043(4) 0.008(4) 0.000(4) -0.010(5)
C23 0.062(5) 0.075(6) 0.047(4) -0.009(4) 0.002(4) -0.003(5)
C24 0.062(5) 0.054(5) 0.058(5) 0.014(4) -0.002(4) -0.011(4)
Cu1G 0.0603 0.0826 0.0546 0.0176 -0.0057 0.002
Cu1A 0.0603 0.0826 0.0546 0.0176 0.0057 -0.002
Cu1F 0.0603 0.0826 0.0546 -0.0176 0.0057 0.002
O5G 0.085 0.046 0.094 0.013 -0.023 -0.011
O6G 0.107 0.039 0.052 0 0 0.007
N3G 0.052 0.064 0.047 0.004 -0.003 -0.004
N4G 0.043 0.07 0.046 -0.008 0.002 0.001
N4A 0.043 0.07 0.046 -0.008 -0.002 -0.001
N4F 0.043 0.07 0.046 0.008 -0.002 0.001
C8G 0.059 0.043 0.053 0.01 -0.011 -0.003
C9G 0.079 0.065 0.081 0.004 0.009 -0.004
C11G 0.069 0.036 0.064 0.007 -0.023 -0.002
C12G 0.077 0.051 0.07 0.013 0.003 0.001
C13G 0.083 0.056 0.049 -0.004 -0.004 -0.006
C14G 0.045 0.064 0.04 0.003 0.002 0.011
C15G 0.067 0.054 0.055 0.004 0 0.014
C16G 0.065 0.05 0.056 0.001 -0.005 0
C17G 0.063 0.082 0.052 0.016 0.001 0.014
C18G 0.061 0.083 0.047 -0.006 -0.001 0.011
C19G 0.066 0.102 0.044 -0.01 0 0.016
C20G 0.057 0.068 0.07 -0.003 0 -0.006
C21G 0.074 0.049 0.069 -0.011 0.005 0.004
C22G 0.066 0.072 0.043 -0.008 0 0.01
C23G 0.062 0.075 0.047 0.009 0.002 0.003
C24G 0.062 0.054 0.058 -0.014 -0.002 0.011
loop_
_geom_bond_atom_site_label_1
_geom_bond_atom_site_label_2
_geom_bond_site_symmetry_1
_geom_bond_site_symmetry_2
Cu1 O5 1_555 1_555
Cu2 O2 1_555 1_555
O1 C6 1_555 1_555
O2 C6 1_555 1_555
O3 Cu2 1_555 1_555
O4 C7 1_555 1_555
O5 C11 1_555 1_555
O6 Cu2 1_555 1_555
O7 C25 1_555 1_555
N1 Cu2 1_555 1_555
N2 Cu2 1_555 1_555
N3 Cu1 1_555 1_555
N4 C20 1_555 1_555
N5 C25 1_555 1_555
C1 N1 1_555 1_555
C2 C1 1_555 1_555
H1 C2 1_555 1_555
C3 C2 1_555 1_555
H2 C3 1_555 1_555
C4 C3 1_555 1_555
H3 C4 1_555 1_555
C5 N1 1_555 1_555
C6 C1 1_555 1_555
C7 O3 1_555 1_555
C8 N2 1_555 1_555
C9 C8 1_555 1_555
H4 C9 1_555 1_555
C10 C9 1_555 1_555
H5 C10 1_555 1_555
C11 O6 1_555 1_555
C12 N3 1_555 1_555
H6 C12 1_555 1_555
C13 C12 1_555 1_555
H7 C13 1_555 1_555
C14 C13 1_555 1_555
C15 C14 1_555 1_555
H8 C15 1_555 1_555
C16 N3 1_555 1_555
H9 C16 1_555 1_555
C17 C14 1_555 1_555
H10 C17 1_555 1_555
H11 C17 1_555 1_555
C18 C17 1_555 1_555
H12 C18 1_555 1_555
H13 C18 1_555 1_555
C19 C18 1_555 1_555
H14 C19 1_555 1_555
H15 C19 1_555 1_555
C20 H16 1_555 1_555
C21 C20 1_555 1_555
H17 C21 1_555 1_555
C22 C19 1_555 1_555
C23 C22 1_555 1_555
H18 C23 1_555 1_555
C24 N4 1_555 1_555
H19 C24 1_555 1_555
C25 H20 1_555 1_555
C26 N5 1_555 1_555
H21 C26 1_555 1_555
H22 C26 1_555 1_555
H23 C26 1_555 1_555
C27 N5 1_555 1_555
H24 C27 1_555 1_555
H25 C27 1_555 1_555
H26 C27 1_555 1_555
Cu1G O5G 1_555 1_555
Cu1A N4 1_555 1_555
Cu1F N4G 1_555 1_555
O5G C11G 1_555 1_555
O6G Cu2 1_555 1_555
N3G Cu1G 1_555 1_555
N4G C20G 1_555 1_555
N4A Cu1 1_555 1_555
N4F Cu1G 1_555 1_555
C8G N2 1_555 1_555
C9G C10 1_555 1_555
H4G C9G 1_555 1_555
C11G O6G 1_555 1_555
C12G N3G 1_555 1_555
H6G C12G 1_555 1_555
C13G C12G 1_555 1_555
H7G C13G 1_555 1_555
C14G C13G 1_555 1_555
C15G C14G 1_555 1_555
H8G C15G 1_555 1_555
C16G N3G 1_555 1_555
H9G C16G 1_555 1_555
C17G C14G 1_555 1_555
H10G C17G 1_555 1_555
H11G C17G 1_555 1_555
C18G C17G 1_555 1_555
H12G C18G 1_555 1_555
H13G C18G 1_555 1_555
C19G C18G 1_555 1_555
H14G C19G 1_555 1_555
H15G C19G 1_555 1_555
C20G H16G 1_555 1_555
C21G C20G 1_555 1_555
H17G C21G 1_555 1_555
C22G C19G 1_555 1_555
C23G C22G 1_555 1_555
H18G C23G 1_555 1_555
C24G N4G 1_555 1_555
H19G C24G 1_555 1_555
C4 C5 1_555 1_555
C5 C7 1_555 1_555
C8 C11 1_555 1_555
C15 C16 1_555 1_555
C21 C22 1_555 1_555
C23 C24 1_555 1_555
C8G C9G 1_555 1_555
C8G C11G 1_555 1_555
C15G C16G 1_555 1_555
C21G C22G 1_555 1_555
C23G C24G 1_555 1_555

#END
