
#######################################################################
#
#                 Cambridge Crystallographic Data Centre
#                                CCDC 
#
#######################################################################
#
# If this CIF has been generated from an entry in the Cambridge 
# Structural Database, then it will include bibliographic, chemical, 
# crystal, experimental, refinement or atomic coordinate data resulting 
# from the CCDC's data processing and validation procedures.
#
#######################################################################

data_CIQYUX
_chemical_formula_moiety         '(C16 H28 Co5 O19)n'
_symmetry_cell_setting           tetragonal
_symmetry_space_group_name_H-M   'I 41/a'
_symmetry_Int_Tables_number      88
_space_group_name_Hall           '-I 4ad'
loop_
_symmetry_equiv_pos_site_id
_symmetry_equiv_pos_as_xyz
1 x,y,z
2 3/4-y,1/4+x,1/4+z
3 1/2+x,1/2+y,1/2+z
4 1/4-y,3/4+x,3/4+z
5 1/4+y,1/4-x,1/4+z
6 1/2-x,-y,1/2+z
7 3/4+y,3/4-x,3/4+z
8 -x,1/2-y,z
9 -x,-y,-z
10 1/4+y,3/4-x,3/4-z
11 1/2-x,1/2-y,1/2-z
12 3/4+y,1/4-x,1/4-z
13 3/4-y,3/4+x,3/4-z
14 1/2+x,y,1/2-z
15 1/4-y,1/4+x,1/4-z
16 x,1/2+y,-z
_cell_length_a                   23.705(3)
_cell_length_b                   23.705(3)
_cell_length_c                   11.409(2)
_cell_angle_alpha                90
_cell_angle_beta                 90
_cell_angle_gamma                90
_cell_volume                     6411.03
loop_
_atom_site_label
_atom_site_type_symbol
_atom_site_fract_x
_atom_site_fract_y
_atom_site_fract_z
_atom_site_U_iso_or_equiv
_atom_site_thermal_displace_type
Co1 Co 0.77774(4) 0.44691(4) 0.01999(9) 0.0274 Uani
Co2 Co 0.78893(4) 0.37755(4) 0.24415(9) 0.0292 Uani
Co3 Co 1.0000 0.5000 0.0000 0.0372 Uani
O1 O 0.79593(19) 0.52921(18) 0.0910(4) 0.0287 Uani
O2 O 0.7127(2) 0.5447(2) 0.1732(5) 0.0360 Uani
O3 O 0.84810(19) 0.42230(18) 0.1335(4) 0.0293 Uani
O4 O 0.92059(19) 0.4739(2) 0.0776(5) 0.0360 Uani
O5 O 0.94059(19) 0.5323(2) -0.1253(5) 0.0393 Uani
O6 O 0.8881(2) 0.5303(2) -0.2882(5) 0.0407 Uani
O7 O 0.9071(2) 0.5984(2) 0.0963(5) 0.0453 Uani
O8 O 0.9978(2) 0.5727(3) 0.0927(6) 0.0507 Uani
O9 O 0.83145(18) 0.47801(18) -0.0982(4) 0.0277 Uani
H1 H 0.8575 0.4490 -0.1269 0.0330 Uiso
C1 C 0.7604(3) 0.5615(3) 0.1415(7) 0.0333 Uani
C2 C 0.7753(5) 0.6219(4) 0.1618(10) 0.0663 Uani
H2 H 0.7696 0.6311 0.2428 0.1000 Uiso
H3 H 0.7518 0.6455 0.1139 0.1000 Uiso
H4 H 0.8142 0.6279 0.1416 0.1000 Uiso
C3 C 0.8999(3) 0.4285(3) 0.1173(7) 0.0337 Uani
C4 C 0.9392(3) 0.3796(4) 0.1456(9) 0.0520 Uani
H5 H 0.9305 0.3651 0.2221 0.0780 Uiso
H6 H 0.9776 0.3925 0.1440 0.0780 Uiso
H7 H 0.9342 0.3502 0.0885 0.0780 Uiso
C5 C 0.9340(3) 0.5261(3) -0.2382(7) 0.0380 Uani
C6 C 0.9855(4) 0.5135(5) -0.3097(9) 0.0620 Uani
H8 H 0.9878 0.5397 -0.3739 0.0930 Uiso
H9 H 0.9831 0.4758 -0.3397 0.0930 Uiso
H10 H 1.0185 0.5171 -0.2615 0.0930 Uiso
C7 C 0.9584(4) 0.6051(4) 0.1223(9) 0.0540 Uani
C8 C 0.9732(6) 0.6555(7) 0.1962(19) 0.1517 Uani
H11 H 1.0132 0.6565 0.2088 0.2250 Uiso
H12 H 0.9541 0.6529 0.2703 0.2250 Uiso
H13 H 0.9616 0.6893 0.1566 0.2250 Uiso
Co1H Co 1.22226(4) 0.55309(4) -0.01999(9) 0.0274 Uani
Co1D Co 0.69691(4) 0.47226(4) 0.26999(9) 0.0274 Uani
Co1C Co 0.80309(4) 0.52774(4) -0.23001(9) 0.0274 Uani
Co1K Co 1.19691(4) 0.47226(4) 0.23001(9) 0.0274 Uani
Co2H Co 1.21107(4) 0.62245(4) -0.24415(9) 0.0292 Uani
Co2C Co 0.87245(4) 0.53893(4) -0.00585(9) 0.0292 Uani
Co2K Co 1.12755(4) 0.46107(4) 0.00585(9) 0.0292 Uani
Co2E Co 0.71107(4) 0.62245(4) -0.25585(9) 0.0292 Uani
O1C O 0.72079(18) 0.54593(19) -0.1590(4) 0.0287 Uani
O1D O 0.77921(18) 0.45407(19) 0.3410(4) 0.0287 Uani
O1H O 1.20407(19) 0.47079(18) -0.0910(4) 0.0287 Uani
O1L O 1.22079(18) 0.54593(19) -0.3410(4) 0.0287 Uani
O2C O 0.7053(2) 0.4627(2) -0.0768(5) 0.0360 Uani
O2K O 1.2947(2) 0.5373(2) 0.0768(5) 0.0360 Uani
O3H O 1.15190(19) 0.57770(18) -0.1335(4) 0.0293 Uani
O4H O 1.07941(19) 0.5261(2) -0.0776(5) 0.0360 Uani
O4D O 0.7239(2) 0.32941(19) 0.3276(5) 0.0360 Uani
O4L O 1.2761(2) 0.67059(19) -0.3276(5) 0.0360 Uani
O5H O 1.05941(19) 0.4677(2) 0.1253(5) 0.0393 Uani
O5D O 0.7823(2) 0.30941(19) 0.1247(5) 0.0393 Uani
O5L O 1.2177(2) 0.69059(19) -0.1247(5) 0.0393 Uani
O6H O 1.1119(2) 0.4697(2) 0.2882(5) 0.0407 Uani
O6D O 0.7803(2) 0.3619(2) -0.0382(5) 0.0407 Uani
O6L O 1.2197(2) 0.6381(2) 0.0382(5) 0.0407 Uani
O7H O 1.0929(2) 0.4016(2) -0.0963(5) 0.0453 Uani
O7D O 0.8484(2) 0.3429(2) 0.3463(5) 0.0453 Uani
O7L O 1.1516(2) 0.6571(2) -0.3463(5) 0.0453 Uani
O8H O 1.0022(2) 0.4273(3) -0.0927(6) 0.0507 Uani
O9D O 0.72801(18) 0.41855(18) 0.1518(4) 0.0277 Uani
O9H O 1.16855(18) 0.52199(18) 0.0982(4) 0.0277 Uani
O9L O 1.27199(18) 0.58145(18) -0.1518(4) 0.0277 Uani
H1D H 0.6990 0.3925 0.1231 0.0330 Uiso
H1H H 1.1425 0.5510 0.1269 0.0330 Uiso
H1L H 1.3010 0.6075 -0.1231 0.0330 Uiso
C1C C 0.6885(3) 0.5104(3) -0.1085(7) 0.0333 Uani
C2C C 0.6281(4) 0.5253(5) -0.0882(10) 0.0663 Uani
H2C H 0.6189 0.5196 -0.0072 0.1000 Uiso
H3C H 0.6045 0.5018 -0.1361 0.1000 Uiso
H4C H 0.6221 0.5642 -0.1084 0.1000 Uiso
C3H C 1.1001(3) 0.5715(3) -0.1173(7) 0.0337 Uani
C4H C 1.0608(3) 0.6204(4) -0.1456(9) 0.0520 Uani
H5H H 1.0695 0.6349 -0.2221 0.0780 Uiso
H6H H 1.0224 0.6075 -0.1440 0.0780 Uiso
H7H H 1.0658 0.6498 -0.0885 0.0780 Uiso
C5H C 1.0660(3) 0.4739(3) 0.2382(7) 0.0380 Uani
C6H C 1.0145(4) 0.4865(5) 0.3097(9) 0.0620 Uani
H8H H 1.0122 0.4603 0.3739 0.0930 Uiso
H9H H 1.0169 0.5242 0.3397 0.0930 Uiso
H10H H 0.9815 0.4829 0.2615 0.0930 Uiso
C7H C 1.0416(4) 0.3949(4) -0.1223(9) 0.0540 Uani
C8H C 1.0268(6) 0.3445(7) -0.1962(19) 0.1517 Uani
H11H H 0.9868 0.3435 -0.2088 0.2250 Uiso
H12H H 1.0459 0.3471 -0.2703 0.2250 Uiso
H13H H 1.0384 0.3107 -0.1566 0.2250 Uiso
O10 O 1.1317(6) 0.6189(6) 0.2288(14) 0.0620 Uani
loop_
_atom_site_aniso_label
_atom_site_aniso_U_11
_atom_site_aniso_U_22
_atom_site_aniso_U_33
_atom_site_aniso_U_23
_atom_site_aniso_U_13
_atom_site_aniso_U_12
Co1 0.0242(5) 0.0224(5) 0.0357(6) 0.0007(4) 0.0009(4) -0.0006(3)
Co2 0.0286 0.0213 0.0376 0.0017 0.0025 0.0015
Co3 0.0197(7) 0.0484(9) 0.0434(10) 0.0113(7) -0.0032(6) -0.0031(6)
O1 0.029(3) 0.023(2) 0.034(3) 0.000(2) -0.002(2) 0.0023(18)
O2 0.036(3) 0.027(3) 0.045(3) 0.002(2) 0.011(2) 0.012(2)
O3 0.027(3) 0.024(2) 0.037(3) 0.004(2) -0.001(2) 0.0010(18)
O4 0.021(2) 0.045(3) 0.042(3) 0.012(2) -0.002(2) -0.004(2)
O5 0.022(3) 0.059(3) 0.037(3) 0.007(3) 0.005(2) 0.001(2)
O6 0.023(3) 0.059(3) 0.040(3) 0.004(3) 0.001(2) -0.001(2)
O7 0.039(3) 0.042(3) 0.055(4) -0.003(3) -0.006(3) -0.004(2)
O8 0.031(3) 0.057(4) 0.064(4) 0.003(3) -0.006(3) -0.012(3)
O9 0.026(2) 0.021(2) 0.036(3) 0.000(2) 0.000(2) 0.0017(18)
C1 0.034(4) 0.028(4) 0.038(4) 0.003(3) 0.002(3) 0.006(3)
C2 0.092(8) 0.031(5) 0.076(7) -0.011(4) 0.046(6) -0.010(4)
C3 0.028(4) 0.036(4) 0.037(4) 0.003(3) 0.003(3) 0.001(3)
C4 0.034(4) 0.052(5) 0.070(6) 0.022(5) 0.007(4) 0.017(4)
C5 0.026(4) 0.052(5) 0.036(5) 0.006(3) 0.003(3) -0.005(3)
C6 0.035(5) 0.102(8) 0.049(6) 0.003(5) -0.002(4) 0.010(5)
C7 0.044(6) 0.051(5) 0.067(6) -0.002(5) -0.020(4) -0.013(4)
C8 0.081(10) 0.144(14) 0.23(2) -0.121(15) -0.055(12) 0.003(9)
Co1H 0.0242 0.0224 0.0357 0.0007 0.0009 -0.0006
Co1D 0.0224 0.0242 0.0357 -0.0009 0.0007 0.0006
Co1C 0.0224 0.0242 0.0357 0.0009 -0.0007 0.0006
Co1K 0.0224 0.0242 0.0357 0.0009 -0.0007 0.0006
Co2H 0.0286 0.0213 0.0376 0.0017 0.0025 0.0015
Co2C 0.0213(5) 0.0286(6) 0.0376(6) 0.0025(4) -0.0017(4) -0.0015(4)
Co2K 0.0213 0.0286 0.0376 0.0025 -0.0017 -0.0015
Co2E 0.0286 0.0213 0.0376 -0.0017 -0.0025 0.0015
O1C 0.023 0.029 0.034 -0.002 0 -0.0023
O1D 0.023 0.029 0.034 0.002 0 -0.0023
O1H 0.029 0.023 0.034 0 -0.002 0.0023
O1L 0.023 0.029 0.034 0.002 0 -0.0023
O2C 0.027 0.036 0.045 0.011 -0.002 -0.012
O2K 0.027 0.036 0.045 0.011 -0.002 -0.012
O3H 0.027 0.024 0.037 0.004 -0.001 0.001
O4H 0.021 0.045 0.042 0.012 -0.002 -0.004
O4D 0.045 0.021 0.042 0.002 0.012 0.004
O4L 0.045 0.021 0.042 0.002 0.012 0.004
O5H 0.022 0.059 0.037 0.007 0.005 0.001
O5D 0.059 0.022 0.037 -0.005 0.007 -0.001
O5L 0.059 0.022 0.037 -0.005 0.007 -0.001
O6H 0.023 0.059 0.04 0.004 0.001 -0.001
O6D 0.059 0.023 0.04 -0.001 0.004 0.001
O6L 0.059 0.023 0.04 -0.001 0.004 0.001
O7H 0.039 0.042 0.055 -0.003 -0.006 -0.004
O7D 0.042 0.039 0.055 0.006 -0.003 0.004
O7L 0.042 0.039 0.055 0.006 -0.003 0.004
O8H 0.031 0.057 0.064 0.003 -0.006 -0.012
O9D 0.021 0.026 0.036 0 0 -0.0017
O9H 0.026 0.021 0.036 0 0 0.0017
O9L 0.021 0.026 0.036 0 0 -0.0017
C1C 0.028 0.034 0.038 0.002 -0.003 -0.006
C2C 0.031 0.092 0.076 0.046 0.011 0.01
C3H 0.028 0.036 0.037 0.003 0.003 0.001
C4H 0.034 0.052 0.07 0.022 0.007 0.017
C5H 0.026 0.052 0.036 0.006 0.003 -0.005
C6H 0.035 0.102 0.049 0.003 -0.002 0.01
C7H 0.044 0.051 0.067 -0.002 -0.02 -0.013
C8H 0.081 0.144 0.23 -0.121 -0.055 0.003
O10 0.058(9) 0.062(9) 0.066(10) -0.014(7) -0.003(7) 0.012(7)
loop_
_geom_bond_atom_site_label_1
_geom_bond_atom_site_label_2
_geom_bond_site_symmetry_1
_geom_bond_site_symmetry_2
Co1 O1 1_555 1_555
Co2 O3 1_555 1_555
Co3 O4 1_555 1_555
O1 C1 1_555 1_555
O2 C1 1_555 1_555
O3 Co1 1_555 1_555
O4 C3 1_555 1_555
O5 Co3 1_555 1_555
O6 C5 1_555 1_555
O7 C7 1_555 1_555
O8 Co3 1_555 1_555
O9 Co1 1_555 1_555
H1 O9 1_555 1_555
C1 C2 1_555 1_555
C2 H2 1_555 1_555
H3 C2 1_555 1_555
H4 C2 1_555 1_555
C3 O3 1_555 1_555
C4 C3 1_555 1_555
H5 C4 1_555 1_555
H6 C4 1_555 1_555
H7 C4 1_555 1_555
C5 O5 1_555 1_555
C6 C5 1_555 1_555
H8 C6 1_555 1_555
H9 C6 1_555 1_555
H10 C6 1_555 1_555
C7 O8 1_555 1_555
C8 C7 1_555 1_555
H11 C8 1_555 1_555
H12 C8 1_555 1_555
H13 C8 1_555 1_555
Co1H O1H 1_555 1_555
Co1D O2 1_555 1_555
Co1C O6 1_555 1_555
Co1K O6H 1_555 1_555
Co2H O1L 1_555 1_555
Co2C O1 1_555 1_555
Co2K O1H 1_555 1_555
Co2E O1C 1_555 1_555
O1C Co1C 1_555 1_555
O1D Co2 1_555 1_555
O2C Co1 1_555 1_555
O2K Co1H 1_555 1_555
O3H Co1H 1_555 1_555
O4H Co3 1_555 1_555
O4D Co2 1_555 1_555
O4L Co2H 1_555 1_555
O5H Co3 1_555 1_555
O5D Co2 1_555 1_555
O5L Co2H 1_555 1_555
O6H C5H 1_555 1_555
O6D Co1 1_555 1_555
O6L Co1H 1_555 1_555
O7H Co2K 1_555 1_555
O7D Co2 1_555 1_555
O7L Co2H 1_555 1_555
O8H Co3 1_555 1_555
O9D Co1 1_555 1_555
O9H Co1H 1_555 1_555
O9L Co1H 1_555 1_555
H1D O9D 1_555 1_555
H1H O9H 1_555 1_555
H1L O9L 1_555 1_555
C1C O1C 1_555 1_555
C2C C1C 1_555 1_555
H2C C2C 1_555 1_555
H3C C2C 1_555 1_555
H4C C2C 1_555 1_555
C3H O3H 1_555 1_555
C4H C3H 1_555 1_555
H5H C4H 1_555 1_555
H6H C4H 1_555 1_555
H7H C4H 1_555 1_555
C5H O5H 1_555 1_555
C6H C5H 1_555 1_555
H8H C6H 1_555 1_555
H9H C6H 1_555 1_555
H10H C6H 1_555 1_555
C7H O7H 1_555 1_555
C8H C7H 1_555 1_555
H11H C8H 1_555 1_555
H12H C8H 1_555 1_555
H13H C8H 1_555 1_555
Co2 O9D 1_555 1_555
O4 Co2C 1_555 1_555
O5 Co2C 1_555 1_555
O7 Co2C 1_555 1_555
O9 Co1C 1_555 1_555
O9 Co2C 1_555 1_555
Co1D O1D 1_555 1_555
Co1D O9D 1_555 1_555
Co1K O9H 1_555 1_555
Co2H O3H 1_555 1_555
Co2H O9L 1_555 1_555
Co2K O4H 1_555 1_555
Co2K O5H 1_555 1_555
Co2K O9H 1_555 1_555
O2C C1C 1_555 1_555
O4H C3H 1_555 1_555
O8H C7H 1_555 1_555

#END
