
#######################################################################
#
#                 Cambridge Crystallographic Data Centre
#                                CCDC 
#
#######################################################################
#
# If this CIF has been generated from an entry in the Cambridge 
# Structural Database, then it will include bibliographic, chemical, 
# crystal, experimental, refinement or atomic coordinate data resulting 
# from the CCDC's data processing and validation procedures.
#
#######################################################################

data_POFSIN04
_chemical_formula_moiety         'C7 Cd3 Cl12'
_symmetry_cell_setting           cubic
_symmetry_space_group_name_H-M   'F d -3 m'
_symmetry_Int_Tables_number      227
_space_group_name_Hall           '-F 4vw 2vw 3'
loop_
_symmetry_equiv_pos_site_id
_symmetry_equiv_pos_as_xyz
1 x,y,z
2 z,x,y
3 y,z,x
4 3/4+y,1/4+x,1/2-z
5 1/4+y,1/2-x,3/4+z
6 1/2-y,3/4+x,1/4+z
7 3/4+x,1/4+z,1/2-y
8 1/2-x,3/4+z,1/4+y
9 1/4+x,1/2-z,3/4+y
10 3/4+z,1/4+y,1/2-x
11 1/4+z,1/2-y,3/4+x
12 1/2-z,3/4+y,1/4+x
13 x,1/2+y,1/2+z
14 1/4-x,y,1/4-z
15 z,1/2+x,1/2+y
16 1/4-z,x,1/4-y
17 y,1/2+z,1/2+x
18 1/4-y,z,1/4-x
19 1/4+y,-x,1/4+z
20 1/2-y,1/4+x,3/4+z
21 1/2-x,1/4+z,3/4+y
22 1/4+x,-z,1/4+y
23 1/4+z,-y,1/4+x
24 1/2-z,1/4+y,3/4+x
25 1/2+x,y,1/2+z
26 1/4-x,1/4-y,z
27 1/2+z,x,1/2+y
28 1/4-z,1/4-x,y
29 1/2+y,z,1/2+x
30 1/4-y,1/4-z,x
31 1/4+y,1/4+x,-z
32 3/4+y,1/2-x,1/4+z
33 1/4+x,1/4+z,-y
34 3/4+x,1/2-z,1/4+y
35 1/4+z,1/4+y,-x
36 3/4+z,1/2-y,1/4+x
37 1/2+x,1/2+y,z
38 x,1/4-y,1/4-z
39 1/2+z,1/2+x,y
40 z,1/4-x,1/4-y
41 1/2+y,1/2+z,x
42 y,1/4-z,1/4-x
43 1/4+y,3/4+x,1/2-z
44 -y,1/4+x,1/4+z
45 1/4+x,3/4+z,1/2-y
46 -x,1/4+z,1/4+y
47 1/4+z,3/4+y,1/2-x
48 -z,1/4+y,1/4+x
49 3/4-x,1/4-y,1/2+z
50 1/4-x,1/2+y,3/4-z
51 1/2+x,3/4-y,1/4-z
52 1/2+z,3/4-x,1/4-y
53 3/4-z,1/4-x,1/2+y
54 1/4-z,1/2+x,3/4-y
55 1/4-y,1/2+z,3/4-x
56 1/2+y,3/4-z,1/4-x
57 3/4-y,1/4-z,1/2+x
58 -y,-x,-z
59 -x,-z,-y
60 -z,-y,-x
61 3/4-x,3/4-y,z
62 1/2+x,1/4-y,3/4-z
63 1/2+z,1/4-x,3/4-y
64 3/4-z,3/4-x,y
65 1/2+y,1/4-z,3/4-x
66 3/4-y,3/4-z,x
67 3/4+y,3/4+x,-z
68 -y,1/2-x,1/2-z
69 3/4+x,3/4+z,-y
70 -x,1/2-z,1/2-y
71 3/4+z,3/4+y,-x
72 -z,1/2-y,1/2-x
73 3/4-x,1/2+y,1/4-z
74 x,3/4-y,3/4-z
75 z,3/4-x,3/4-y
76 3/4-z,1/2+x,1/4-y
77 3/4-y,1/2+z,1/4-x
78 y,3/4-z,3/4-x
79 1/2-y,-x,1/2-z
80 -y,3/4+x,3/4+z
81 -x,3/4+z,3/4+y
82 1/2-x,-z,1/2-y
83 -z,3/4+y,3/4+x
84 1/2-z,-y,1/2-x
85 1/4-x,3/4-y,1/2+z
86 3/4-x,y,3/4-z
87 1/4-z,3/4-x,1/2+y
88 3/4-z,x,3/4-y
89 3/4-y,z,3/4-x
90 1/4-y,3/4-z,1/2+x
91 1/2-y,1/2-x,-z
92 3/4+y,-x,3/4+z
93 1/2-x,1/2-z,-y
94 3/4+x,-z,3/4+y
95 3/4+z,-y,3/4+x
96 1/2-z,1/2-y,-x
97 -x,-y,-z
98 -z,-x,-y
99 -y,-z,-x
100 1/4-y,3/4-x,1/2+z
101 3/4-y,1/2+x,1/4-z
102 1/2+y,1/4-x,3/4-z
103 1/4-x,3/4-z,1/2+y
104 1/2+x,1/4-z,3/4-y
105 3/4-x,1/2+z,1/4-y
106 1/4-z,3/4-y,1/2+x
107 3/4-z,1/2+y,1/4-x
108 1/2+z,1/4-y,3/4-x
109 -x,1/2-y,1/2-z
110 3/4+x,-y,3/4+z
111 -z,1/2-x,1/2-y
112 3/4+z,-x,3/4+y
113 -y,1/2-z,1/2-x
114 3/4+y,-z,3/4+x
115 3/4-y,x,3/4-z
116 1/2+y,3/4-x,1/4-z
117 1/2+x,3/4-z,1/4-y
118 3/4-x,z,3/4-y
119 3/4-z,y,3/4-x
120 1/2+z,3/4-y,1/4-x
121 1/2-x,-y,1/2-z
122 3/4+x,3/4+y,-z
123 1/2-z,-x,1/2-y
124 3/4+z,3/4+x,-y
125 1/2-y,-z,1/2-x
126 3/4+y,3/4+z,-x
127 3/4-y,3/4-x,z
128 1/4-y,1/2+x,3/4-z
129 3/4-x,3/4-z,y
130 1/4-x,1/2+z,3/4-y
131 3/4-z,3/4-y,x
132 1/4-z,1/2+y,3/4-x
133 1/2-x,1/2-y,-z
134 -x,3/4+y,3/4+z
135 1/2-z,1/2-x,-y
136 -z,3/4+x,3/4+y
137 1/2-y,1/2-z,-x
138 -y,3/4+z,3/4+x
139 3/4-y,1/4-x,1/2+z
140 y,3/4-x,3/4-z
141 3/4-x,1/4-z,1/2+y
142 x,3/4-z,3/4-y
143 3/4-z,1/4-y,1/2+x
144 z,3/4-y,3/4-x
145 1/4+x,3/4+y,1/2-z
146 3/4+x,1/2-y,1/4+z
147 1/2-x,1/4+y,3/4+z
148 1/2-z,1/4+x,3/4+y
149 1/4+z,3/4+x,1/2-y
150 3/4+z,1/2-x,1/4+y
151 3/4+y,1/2-z,1/4+x
152 1/2-y,1/4+z,3/4+x
153 1/4+y,3/4+z,1/2-x
154 y,x,z
155 x,z,y
156 z,y,x
157 1/4+x,1/4+y,-z
158 1/2-x,3/4+y,1/4+z
159 1/2-z,3/4+x,1/4+y
160 1/4+z,1/4+x,-y
161 1/2-y,3/4+z,1/4+x
162 1/4+y,1/4+z,-x
163 1/4-y,1/4-x,z
164 y,1/2+x,1/2+z
165 1/4-x,1/4-z,y
166 x,1/2+z,1/2+y
167 1/4-z,1/4-y,x
168 z,1/2+y,1/2+x
169 1/4+x,1/2-y,3/4+z
170 -x,1/4+y,1/4+z
171 -z,1/4+x,1/4+y
172 1/4+z,1/2-x,3/4+y
173 1/4+y,1/2-z,3/4+x
174 -y,1/4+z,1/4+x
175 1/2+y,x,1/2+z
176 y,1/4-x,1/4-z
177 x,1/4-z,1/4-y
178 1/2+x,z,1/2+y
179 z,1/4-y,1/4-x
180 1/2+z,y,1/2+x
181 3/4+x,1/4+y,1/2-z
182 1/4+x,-y,1/4+z
183 3/4+z,1/4+x,1/2-y
184 1/4+z,-x,1/4+y
185 1/4+y,-z,1/4+x
186 3/4+y,1/4+z,1/2-x
187 1/2+y,1/2+x,z
188 1/4-y,x,1/4-z
189 1/2+x,1/2+z,y
190 1/4-x,z,1/4-y
191 1/4-z,y,1/4-x
192 1/2+z,1/2+y,x
_cell_length_a                   12.6741(14)
_cell_length_b                   12.6741(14)
_cell_length_c                   12.6741(14)
_cell_angle_alpha                90
_cell_angle_beta                 90
_cell_angle_gamma                90
_cell_volume                     2035.88
loop_
_atom_site_label
_atom_site_type_symbol
_atom_site_fract_x
_atom_site_fract_y
_atom_site_fract_z
Cd1 Cd 0.6250 0.1250 0.1250
C1 C 0.7249(4) 0.2249(4) 0.0251(4)
Cd1H Cd 0.8750 0.3750 -0.1250
Cd1E Cd 0.3750 0.3750 0.3750
C1T C 0.7751(4) 0.2751(4) -0.0251(4)
C1M C 0.5251(4) 0.2249(4) 0.2249(4)
C1F C 0.4749(4) 0.2751(4) 0.2751(4)
C1Y C 0.5251(4) 0.0251(4) 0.0251(4)
C1BA C 0.7249(4) 0.0251(4) 0.2249(4)
C2 C 0.8750 0.3750 0.3750
Cl1 Cl 0.914(2) 0.5040(9) 0.3365(9)
Cl1WF Cl 0.8365(9) 0.5040(9) 0.414(2)
Cl1Q Cl 0.7460(9) 0.3365(9) 0.336(2)
Cl1WD Cl 0.7460(9) 0.414(2) 0.4135(9)
Cl1BA Cl 1.0040(9) 0.3365(9) 0.414(2)
Cl1DG Cl 1.0040(9) 0.414(2) 0.3365(9)
Cl1AA Cl 0.9135(9) 0.336(2) 0.5040(9)
Cl1XD Cl 0.836(2) 0.4135(9) 0.5040(9)
Cl1AD Cl 0.9135(9) 0.2460(9) 0.414(2)
Cl1HB Cl 0.836(2) 0.2460(9) 0.3365(9)
Cl1MD Cl 0.836(2) 0.3365(9) 0.2460(9)
Cl1AB Cl 0.9135(9) 0.414(2) 0.2460(9)
loop_
_geom_bond_atom_site_label_1
_geom_bond_atom_site_label_2
_geom_bond_site_symmetry_1
_geom_bond_site_symmetry_2
Cd1 C1 1_555 1_555
C1 C1T 1_555 1_555
C2 Cl1 1_555 1_555
Cl1 Cl1WF 1_555 1_555
Cd1H C1T 1_555 1_555
Cd1E C1F 1_555 1_555
C1M Cd1 1_555 1_555
C1F C1M 1_555 1_555
C1Y Cd1 1_555 1_555
C1BA Cd1 1_555 1_555
Cl1WF C2 1_555 1_555
Cl1Q C2 1_555 1_555
Cl1WD C2 1_555 1_555
Cl1BA C2 1_555 1_555
Cl1DG C2 1_555 1_555
Cl1AA C2 1_555 1_555
Cl1XD C2 1_555 1_555
Cl1AD C2 1_555 1_555
Cl1HB C2 1_555 1_555
Cl1MD C2 1_555 1_555
Cl1AB C2 1_555 1_555
Cl1 Cl1DG 1_555 1_555
Cl1 Cl1AB 1_555 1_555
Cl1WF Cl1WD 1_555 1_555
Cl1WF Cl1XD 1_555 1_555
Cl1Q Cl1WD 1_555 1_555
Cl1Q Cl1HB 1_555 1_555
Cl1Q Cl1MD 1_555 1_555
Cl1WD Cl1XD 1_555 1_555
Cl1BA Cl1DG 1_555 1_555
Cl1BA Cl1AA 1_555 1_555
Cl1BA Cl1AD 1_555 1_555
Cl1DG Cl1AB 1_555 1_555
Cl1AA Cl1XD 1_555 1_555
Cl1AA Cl1AD 1_555 1_555
Cl1AD Cl1HB 1_555 1_555
Cl1HB Cl1MD 1_555 1_555
Cl1MD Cl1AB 1_555 1_555

#END
