
#######################################################################
#
#                 Cambridge Crystallographic Data Centre
#                                CCDC 
#
#######################################################################
#
# If this CIF has been generated from an entry in the Cambridge 
# Structural Database, then it will include bibliographic, chemical, 
# crystal, experimental, refinement or atomic coordinate data resulting 
# from the CCDC's data processing and validation procedures.
#
#######################################################################

data_AKAYIV
_chemical_formula_moiety         '(C48 H30 Br2 Cu2 N6 O12)n'
_symmetry_cell_setting           monoclinic
_symmetry_space_group_name_H-M   'P 2/n'
_symmetry_Int_Tables_number      13
_space_group_name_Hall           '-P 2yac'
loop_
_symmetry_equiv_pos_site_id
_symmetry_equiv_pos_as_xyz
1 x,y,z
2 1/2-x,y,1/2-z
3 -x,-y,-z
4 1/2+x,-y,1/2+z
_cell_length_a                   30.267(3)
_cell_length_b                   7.7321(8)
_cell_length_c                   32.107(3)
_cell_angle_alpha                90
_cell_angle_beta                 115.235(2)
_cell_angle_gamma                90
_cell_volume                     6796.84
loop_
_atom_site_label
_atom_site_type_symbol
_atom_site_fract_x
_atom_site_fract_y
_atom_site_fract_z
Cu1 Cu 0.880801(16) 0.78467(6) 0.743597(16)
Cu2 Cu 0.876238(16) 1.25980(6) 1.239907(16)
Br1 Br 0.890787(19) 0.47880(5) 0.762606(16)
Br2 Br 0.88580(3) 0.95491(6) 1.25806(2)
C1 C 0.73407(14) 0.8063(6) 0.45810(14)
C2 C 0.75880(14) 0.7310(5) 0.43527(14)
H1 H 0.7909 0.6870 0.4517
C3 C 0.73541(13) 0.7212(5) 0.38743(13)
C4 C 0.68919(13) 0.7867(4) 0.36252(14)
H2 H 0.6737 0.7803 0.3299
C5 C 0.66639(13) 0.8622(5) 0.38734(14)
C6 C 0.68741(14) 0.8721(5) 0.43433(14)
H3 H 0.6705 0.9227 0.4503
C7 C 0.74194(15) 0.7435(5) 0.53231(14)
C8 C 0.7771(2) 0.7084(7) 0.3403(3)
C9 C 0.58233(17) 0.8346(6) 0.3448(2)
C10 C 0.77535(13) 0.7661(4) 0.58204(13)
C11 C 0.76316(13) 0.6879(5) 0.61471(13)
H4 H 0.7335 0.6251 0.6056
C12 C 0.79428(14) 0.7028(5) 0.65968(13)
H5 H 0.7858 0.6478 0.6817
C13 C 0.84812(13) 0.8685(5) 0.64323(13)
H6 H 0.8777 0.9321 0.6532
C14 C 0.81837(13) 0.8580(5) 0.59688(13)
H7 H 0.8274 0.9137 0.5753
C15 C 0.79953(17) 0.5899(6) 0.31530(19)
C16 C 0.8109(2) 0.6677(8) 0.2852(2)
H8 H 0.8075 0.7883 0.2791
C17 C 0.8285(2) 0.5517(7) 0.2637(2)
H9 H 0.8341 0.5965 0.2388
N1 N 0.83896(12) 0.3832(5) 0.27312(12)
C18 C 0.8283(2) 0.3204(8) 0.3048(2)
H10 H 0.8336 0.2009 0.3121
C19 C 0.80757(18) 0.4321(7) 0.3307(2)
H11 H 0.8011 0.3916 0.3555
C20 C 0.53588(15) 0.9348(5) 0.31928(19)
C21 C 0.49454(18) 0.8458(7) 0.2942(3)
H12 H 0.4951 0.7230 0.2939
C22 C 0.45097(18) 0.9340(7) 0.2687(3)
H13 H 0.4233 0.8702 0.2486
N2 N 0.44704(12) 1.1039(4) 0.27183(14)
C23 C 0.48836(14) 1.1893(5) 0.29503(14)
H14 H 0.4871 1.3121 0.2948
C24 C 0.53325(14) 1.1113(5) 0.31952(15)
H15 H 0.5616 1.1788 0.3361
C25 C 0.72803(12) 1.2260(5) 0.88393(13)
C26 C 0.68233(12) 1.2963(4) 0.85950(12)
H16 H 0.6668 1.2940 0.8268
C27 C 0.66012(13) 1.3706(5) 0.88490(13)
C28 C 0.68116(13) 1.3769(5) 0.93184(13)
H17 H 0.6647 1.4274 0.9483
C29 C 0.72747(13) 1.3067(5) 0.95462(13)
C30 C 0.75165(13) 1.2302(5) 0.93124(13)
H18 H 0.7834 1.1825 0.9473
C31 C 0.77298(14) 1.2245(5) 0.83927(15)
C32 C 0.57604(16) 1.3523(6) 0.8389(2)
C33 C 0.73372(13) 1.2426(5) 1.02922(13)
C34 C 0.79613(13) 1.1098(5) 0.81669(13)
C35 C 0.81061(17) 1.1804(6) 0.78542(16)
H19 H 0.8055 1.3000 0.7782
C36 C 0.83278(16) 1.0780(5) 0.76425(16)
H20 H 0.8430 1.1290 0.7429
C37 C 0.82433(14) 0.8399(5) 0.80193(13)
H21 H 0.8284 0.7190 0.8075
C38 C 0.80208(14) 0.9348(5) 0.82422(14)
H22 H 0.7911 0.8795 0.8445
C39 C 0.53040(15) 1.4560(5) 0.81506(18)
C40 C 0.4878(2) 1.3692(7) 0.7892(3)
H23 H 0.4876 1.2464 0.7880
C41 C 0.44556(19) 1.4610(7) 0.7649(2)
H24 H 0.4171 1.3995 0.7454
C42 C 0.48346(13) 1.7099(5) 0.79206(15)
H25 H 0.4825 1.8324 0.7938
C43 C 0.52792(15) 1.6271(5) 0.81554(15)
H26 H 0.5566 1.6931 0.8320
C44 C 0.76814(13) 1.2598(4) 1.07868(13)
C45 C 0.75633(13) 1.1825(5) 1.11166(13)
H27 H 0.7260 1.1241 1.1028
C46 C 0.78807(13) 1.1910(5) 1.15615(13)
H28 H 0.7797 1.1340 1.1780
C47 C 0.84166(14) 1.3531(5) 1.14051(14)
H29 H 0.8715 1.4151 1.1508
C48 C 0.81202(13) 1.3499(4) 1.09390(13)
H30 H 0.8213 1.4077 1.0727
N3 N 0.83679(10) 0.7919(4) 0.67507(10)
N4 N 0.84010(11) 0.9089(4) 0.77342(11)
N5 N 0.44293(11) 1.6274(4) 0.76769(11)
N6 N 0.83102(11) 1.2752(4) 1.17178(10)
O1 O 0.75982(10) 0.8218(4) 0.50520(9)
O2 O 0.75812(10) 0.6336(4) 0.36405(9)
O3 O 0.62037(9) 0.9398(3) 0.36397(11)
O4 O 0.70445(11) 0.6625(4) 0.51819(11)
O5 O 0.77455(17) 0.8665(7) 0.33679(18)
O6 O 0.58472(12) 0.6828(4) 0.34543(17)
O7 O 0.75089(8) 1.1340(3) 0.86068(9)
O8 O 0.61451(9) 1.4511(3) 0.86178(9)
O9 O 0.75282(9) 1.3165(4) 1.00212(8)
O10 O 0.77278(13) 1.3785(4) 0.83737(14)
O11 O 0.57866(13) 1.1996(5) 0.83927(19)
O12 O 0.69601(10) 1.1718(4) 1.01510(10)
Cu1C Cu 0.380801(16) 1.21533(6) 0.243597(16)
Cu2_2 Cu 0.876238(16) 0.25980(6) 0.239907(16)
Cu2C Cu 0.376238(16) 1.74020(6) 0.739907(16)
N1_2 N 0.83896(12) 1.3832(5) 1.27312(12)
N2C N 0.94704(12) 0.8961(4) 0.77183(14)
N5C N 0.94293(11) 1.3726(4) 1.26769(11)
loop_
_geom_bond_atom_site_label_1
_geom_bond_atom_site_label_2
_geom_bond_site_symmetry_1
_geom_bond_site_symmetry_2
Cu1 Br1 1_555 1_555
Cu2 Br2 1_555 1_555
C1 C2 1_555 1_555
C2 H1 1_555 1_555
C3 C2 1_555 1_555
C4 C3 1_555 1_555
H2 C4 1_555 1_555
C5 C4 1_555 1_555
C6 C1 1_555 1_555
H3 C6 1_555 1_555
C7 C10 1_555 1_555
C8 C15 1_555 1_555
C9 C20 1_555 1_555
C10 C11 1_555 1_555
C11 H4 1_555 1_555
C12 C11 1_555 1_555
H5 C12 1_555 1_555
C13 H6 1_555 1_555
C14 C10 1_555 1_555
H7 C14 1_555 1_555
C15 C16 1_555 1_555
C16 H8 1_555 1_555
C17 C16 1_555 1_555
H9 C17 1_555 1_555
N1 C17 1_555 1_555
C18 N1 1_555 1_555
H10 C18 1_555 1_555
C19 C15 1_555 1_555
H11 C19 1_555 1_555
C20 C21 1_555 1_555
C21 H12 1_555 1_555
C22 C21 1_555 1_555
H13 C22 1_555 1_555
N2 C22 1_555 1_555
C23 N2 1_555 1_555
H14 C23 1_555 1_555
C24 C20 1_555 1_555
H15 C24 1_555 1_555
C25 C26 1_555 1_555
C26 H16 1_555 1_555
C27 C26 1_555 1_555
C28 C27 1_555 1_555
H17 C28 1_555 1_555
C29 C28 1_555 1_555
C30 C25 1_555 1_555
H18 C30 1_555 1_555
C31 C34 1_555 1_555
C32 C39 1_555 1_555
C33 C44 1_555 1_555
C34 C35 1_555 1_555
C35 H19 1_555 1_555
C36 C35 1_555 1_555
H20 C36 1_555 1_555
C37 H21 1_555 1_555
C38 C34 1_555 1_555
H22 C38 1_555 1_555
C39 C40 1_555 1_555
C40 H23 1_555 1_555
C41 C40 1_555 1_555
H24 C41 1_555 1_555
C42 H25 1_555 1_555
C43 C39 1_555 1_555
H26 C43 1_555 1_555
C44 C45 1_555 1_555
C45 H27 1_555 1_555
C46 C45 1_555 1_555
H28 C46 1_555 1_555
C47 H29 1_555 1_555
C48 C44 1_555 1_555
H30 C48 1_555 1_555
N3 Cu1 1_555 1_555
N4 Cu1 1_555 1_555
N5 C41 1_555 1_555
N6 Cu2 1_555 1_555
O1 C1 1_555 1_555
O2 C3 1_555 1_555
O3 C5 1_555 1_555
O4 C7 1_555 1_555
O5 C8 1_555 1_555
O6 C9 1_555 1_555
O7 C25 1_555 1_555
O8 C27 1_555 1_555
O9 C29 1_555 1_555
O10 C31 1_555 1_555
O11 C32 1_555 1_555
O12 C33 1_555 1_555
Cu1C N2 1_555 1_555
Cu2_2 N1 1_555 1_555
Cu2C N5 1_555 1_555
N1_2 Cu2 1_555 1_555
N2C Cu1 1_555 1_555
N5C Cu2 1_555 1_555
C5 C6 1_555 1_555
C7 O1 1_555 1_555
C8 O2 1_555 1_555
C9 O3 1_555 1_555
C12 N3 1_555 1_555
C13 C14 1_555 1_555
C13 N3 1_555 1_555
C18 C19 1_555 1_555
C23 C24 1_555 1_555
C29 C30 1_555 1_555
C31 O7 1_555 1_555
C32 O8 1_555 1_555
C33 O9 1_555 1_555
C36 N4 1_555 1_555
C37 C38 1_555 1_555
C37 N4 1_555 1_555
C42 C43 1_555 1_555
C42 N5 1_555 1_555
C46 N6 1_555 1_555
C47 C48 1_555 1_555
C47 N6 1_555 1_555

#END
