
#######################################################################
#
#                 Cambridge Crystallographic Data Centre
#                                CCDC 
#
#######################################################################
#
# If this CIF has been generated from an entry in the Cambridge 
# Structural Database, then it will include bibliographic, chemical, 
# crystal, experimental, refinement or atomic coordinate data resulting 
# from the CCDC's data processing and validation procedures.
#
#######################################################################

data_PELGIY
_chemical_formula_moiety         '(C34 H24 N4 O10 S2 Zn2)n'
_symmetry_cell_setting           orthorhombic
_symmetry_space_group_name_H-M   'F d d d'
_symmetry_Int_Tables_number      70
_space_group_name_Hall           '-F 2uv 2vw'
loop_
_symmetry_equiv_pos_site_id
_symmetry_equiv_pos_as_xyz
1 x,y,z
2 1/4-x,1/4-y,z
3 x,1/4-y,1/4-z
4 1/4-x,y,1/4-z
5 x,1/2+y,1/2+z
6 1/4-x,3/4-y,1/2+z
7 x,3/4-y,3/4-z
8 1/4-x,1/2+y,3/4-z
9 1/2+x,y,1/2+z
10 3/4-x,1/4-y,1/2+z
11 1/2+x,1/4-y,3/4-z
12 3/4-x,y,3/4-z
13 1/2+x,1/2+y,z
14 3/4-x,3/4-y,z
15 1/2+x,3/4-y,1/4-z
16 3/4-x,1/2+y,1/4-z
17 -x,-y,-z
18 3/4+x,3/4+y,-z
19 -x,3/4+y,3/4+z
20 3/4+x,-y,3/4+z
21 -x,1/2-y,1/2-z
22 3/4+x,1/4+y,1/2-z
23 -x,1/4+y,1/4+z
24 3/4+x,1/2-y,1/4+z
25 1/2-x,-y,1/2-z
26 1/4+x,3/4+y,1/2-z
27 1/2-x,3/4+y,1/4+z
28 1/4+x,-y,1/4+z
29 1/2-x,1/2-y,-z
30 1/4+x,1/4+y,-z
31 1/2-x,1/4+y,3/4+z
32 1/4+x,1/2-y,3/4+z
_cell_length_a                   19.2774(8)
_cell_length_b                   20.9886(7)
_cell_length_c                   43.2840(16)
_cell_angle_alpha                90
_cell_angle_beta                 90
_cell_angle_gamma                90
_cell_volume                     17513
loop_
_atom_site_label
_atom_site_type_symbol
_atom_site_fract_x
_atom_site_fract_y
_atom_site_fract_z
_atom_site_U_iso_or_equiv
_atom_site_thermal_displace_type
Zn1 Zn 0.5000 0.5000 0.0000 0.0355 Uani
O1 O 0.46558(10) 0.42364(8) 0.02863(4) 0.0432 Uani
N1 N 0.47898(11) 0.56229(10) 0.03657(4) 0.0376 Uani
C1 C 0.48739(14) 0.37102(12) 0.03661(6) 0.0399 Uani
Zn2 Zn 0.3750 0.3750 0.075006(9) 0.0425 Uani
O2 O 0.45719(11) 0.33668(9) 0.05679(4) 0.0504 Uani
N2 N 0.40259(14) 0.80392(11) 0.14503(5) 0.0487 Uani
C2 C 0.55003(14) 0.34066(12) 0.02172(6) 0.0414 Uani
S1 S 0.63347(3) 0.44303(3) 0.038432(15) 0.0426 Uani
O3 O 0.59804(13) 0.44389(12) 0.06787(5) 0.0620 Uani
C3 C 0.61631(14) 0.36783(12) 0.02094(6) 0.0428 Uani
O4 O 0.60523(10) 0.49015(9) 0.01659(5) 0.0453 Uani
C4 C 0.67048(16) 0.33643(15) 0.00615(7) 0.0546 Uani
H1 H 0.7147 0.3541 0.0062 0.0660 Uiso
O5 O 0.70798(11) 0.44794(10) 0.04083(5) 0.0585 Uani
C5 C 0.65875(19) 0.27910(17) -0.00853(9) 0.0651 Uani
H2 H 0.6949 0.2587 -0.0187 0.0780 Uiso
C6 C 0.5944(2) 0.25228(16) -0.00813(9) 0.0655 Uani
H3 H 0.5868 0.2139 -0.0183 0.0790 Uiso
C7 C 0.53978(17) 0.28178(15) 0.00738(8) 0.0576 Uani
H4 H 0.4965 0.2623 0.0082 0.0690 Uiso
C8 C 0.41692(14) 0.56662(13) 0.04981(6) 0.0438 Uani
H5 H 0.3829 0.5374 0.0442 0.0530 Uiso
C9 C 0.40070(15) 0.61268(14) 0.07149(6) 0.0479 Uani
H6 H 0.3566 0.6141 0.0802 0.0580 Uiso
C10 C 0.45052(14) 0.65680(12) 0.08025(5) 0.0412 Uani
C11 C 0.51581(15) 0.65117(13) 0.06702(6) 0.0470 Uani
H7 H 0.5512 0.6789 0.0726 0.0560 Uiso
C12 C 0.52758(15) 0.60407(13) 0.04554(6) 0.0461 Uani
H8 H 0.5715 0.6011 0.0368 0.0550 Uiso
C13 C 0.43432(15) 0.70850(13) 0.10270(6) 0.0455 Uani
C14 C 0.36759(19) 0.73063(19) 0.10604(8) 0.0672 Uani
H9 H 0.3320 0.7137 0.0941 0.0810 Uiso
C15 C 0.3537(2) 0.77811(19) 0.12728(8) 0.0684 Uani
H10 H 0.3083 0.7926 0.1293 0.0820 Uiso
C16 C 0.46709(17) 0.78259(16) 0.14197(7) 0.0575 Uani
H11 H 0.5016 0.7999 0.1544 0.0690 Uiso
C17 C 0.48474(18) 0.73576(16) 0.12102(7) 0.0580 Uani
H12 H 0.5306 0.7226 0.1193 0.0700 Uiso
Zn1B Zn 0.5000 0.7500 0.2500 0.0355 Uani
O1P O 0.53442(10) 0.57636(8) -0.02863(4) 0.0432 Uani
N1B N 0.47898(11) 0.68771(10) 0.21343(4) 0.0376 Uani
N1P N 0.52102(11) 0.43771(10) -0.03657(4) 0.0376 Uani
C1P C 0.51261(14) 0.62898(12) -0.03661(6) 0.0399 Uani
Zn2B Zn 0.3750 0.8750 0.174994(9) 0.0425 Uani
Zn2P Zn 0.6250 0.6250 -0.075006(9) 0.0425 Uani
O2P O 0.54281(11) 0.66332(9) -0.05679(4) 0.0504 Uani
O2M O 0.29281(11) 0.41332(9) 0.05679(4) 0.0504 Uani
N2B N 0.40259(14) 0.44608(11) 0.10497(5) 0.0487 Uani
N2O N 0.34741(14) 0.30392(11) 0.10497(5) 0.0487 Uani
C2P C 0.44997(14) 0.65934(12) -0.02172(6) 0.0414 Uani
S1P S 0.36653(3) 0.55697(3) -0.038432(15) 0.0426 Uani
O3P O 0.40196(13) 0.55611(12) -0.06787(5) 0.0620 Uani
C3P C 0.38369(14) 0.63217(12) -0.02094(6) 0.0428 Uani
O4P O 0.39477(10) 0.50985(9) -0.01659(5) 0.0453 Uani
C4P C 0.32952(16) 0.66357(15) -0.00615(7) 0.0546 Uani
H1P H 0.2853 0.6459 -0.0062 0.0660 Uiso
O5P O 0.29202(11) 0.55206(10) -0.04083(5) 0.0585 Uani
C5P C 0.34125(19) 0.72090(17) 0.00853(9) 0.0651 Uani
H2P H 0.3051 0.7413 0.0187 0.0780 Uiso
C6P C 0.4056(2) 0.74772(16) 0.00813(9) 0.0655 Uani
H3P H 0.4132 0.7861 0.0183 0.0790 Uiso
C7P C 0.46022(17) 0.71822(15) -0.00738(8) 0.0576 Uani
H4P H 0.5035 0.7377 -0.0082 0.0690 Uiso
C8B C 0.41692(14) 0.68338(13) 0.20019(6) 0.0438 Uani
H5B H 0.3829 0.7126 0.2058 0.0530 Uiso
C9B C 0.40070(15) 0.63732(14) 0.17851(6) 0.0479 Uani
H6B H 0.3566 0.6359 0.1698 0.0580 Uiso
C10B C 0.45052(14) 0.59320(12) 0.16975(5) 0.0412 Uani
C11B C 0.51581(15) 0.59883(13) 0.18298(6) 0.0470 Uani
H7B H 0.5512 0.5711 0.1774 0.0560 Uiso
C12B C 0.52758(15) 0.64593(13) 0.20446(6) 0.0461 Uani
H8B H 0.5715 0.6489 0.2132 0.0550 Uiso
C13B C 0.43432(15) 0.54150(13) 0.14730(6) 0.0455 Uani
C14B C 0.36759(19) 0.51937(19) 0.14396(8) 0.0672 Uani
H9B H 0.3320 0.5363 0.1559 0.0810 Uiso
C15B C 0.3537(2) 0.47189(19) 0.12272(8) 0.0684 Uani
H10B H 0.3083 0.4574 0.1207 0.0820 Uiso
C16B C 0.46709(17) 0.46741(16) 0.10803(7) 0.0575 Uani
H11B H 0.5016 0.4501 0.0956 0.0690 Uiso
C17B C 0.48474(18) 0.51424(16) 0.12898(7) 0.0580 Uani
H12B H 0.5306 0.5274 0.1307 0.0700 Uiso
loop_
_atom_site_aniso_label
_atom_site_aniso_U_11
_atom_site_aniso_U_22
_atom_site_aniso_U_33
_atom_site_aniso_U_23
_atom_site_aniso_U_13
_atom_site_aniso_U_12
Zn1 0.0403(2) 0.0312(2) 0.0349(2) -0.00405(13) 0.00410(14) -0.00068(14)
O1 0.0471(10) 0.0360(9) 0.0466(10) 0.0025(7) 0.0093(7) -0.0012(7)
N1 0.0405(11) 0.0370(10) 0.0353(9) -0.0068(7) 0.0025(8) -0.0010(8)
C1 0.0422(13) 0.0382(12) 0.0393(11) -0.0025(9) -0.0040(10) -0.0096(10)
Zn2 0.0576(3) 0.0355(2) 0.0344(2) 0.000 0.000 -0.01190(17)
O2 0.0564(12) 0.0468(10) 0.0480(10) 0.0097(8) 0.0050(8) -0.0104(9)
N2 0.0638(15) 0.0453(12) 0.0370(10) -0.0068(9) -0.0029(10) 0.0160(11)
C2 0.0453(14) 0.0356(12) 0.0433(12) -0.0009(9) -0.0036(10) -0.0007(10)
S1 0.0399(3) 0.0440(3) 0.0439(3) -0.0003(2) -0.0024(2) -0.0049(2)
O3 0.0694(14) 0.0741(15) 0.0425(10) -0.0064(9) 0.0047(9) -0.0154(12)
C3 0.0427(14) 0.0385(12) 0.0472(13) 0.0014(10) -0.0033(10) 0.0016(10)
O4 0.0426(10) 0.0376(9) 0.0556(11) -0.0016(7) -0.0020(8) 0.0004(7)
C4 0.0456(16) 0.0543(17) 0.0639(17) -0.0011(13) -0.0026(12) 0.0051(13)
O5 0.0422(11) 0.0573(12) 0.0759(14) 0.0058(10) -0.0100(9) -0.0074(9)
C5 0.058(2) 0.0624(19) 0.075(2) -0.0146(16) -0.0064(16) 0.0190(16)
C6 0.064(2) 0.0515(17) 0.081(2) -0.0227(15) -0.0098(17) 0.0097(15)
C7 0.0535(17) 0.0484(16) 0.0710(19) -0.0096(14) -0.0042(14) -0.0046(13)
C8 0.0436(14) 0.0440(13) 0.0439(13) -0.0062(10) 0.0034(10) -0.0027(11)
C9 0.0432(14) 0.0569(16) 0.0436(13) -0.0089(11) 0.0069(10) 0.0021(12)
C10 0.0490(14) 0.0412(12) 0.0335(11) -0.0049(9) -0.0001(9) 0.0078(10)
C11 0.0512(15) 0.0416(13) 0.0483(14) -0.0125(11) 0.0034(11) -0.0033(11)
C12 0.0459(15) 0.0455(14) 0.0469(14) -0.0139(11) 0.0101(11) -0.0079(11)
C13 0.0567(16) 0.0440(13) 0.0358(11) -0.0039(10) -0.0012(10) 0.0115(12)
C14 0.0599(19) 0.078(2) 0.0636(19) -0.0308(17) -0.0161(14) 0.0215(17)
C15 0.065(2) 0.075(2) 0.0653(19) -0.0291(17) -0.0148(16) 0.0278(18)
C16 0.0572(18) 0.0626(18) 0.0526(15) -0.0233(13) -0.0024(13) 0.0107(14)
C17 0.0516(17) 0.0645(19) 0.0578(17) -0.0218(14) -0.0008(13) 0.0123(14)
Zn1B 0.0403 0.0312 0.0349 -0.00405 -0.0041 0.00068
O1P 0.0471 0.036 0.0466 0.0025 0.0093 -0.0012
N1B 0.0405 0.037 0.0353 -0.0068 -0.0025 0.001
N1P 0.0405 0.037 0.0353 -0.0068 0.0025 -0.001
C1P 0.0422 0.0382 0.0393 -0.0025 -0.004 -0.0096
Zn2B 0.0576 0.0355 0.0344 0 0 0.0119
Zn2P 0.0576 0.0355 0.0344 0 0 -0.0119
O2P 0.0564 0.0468 0.048 0.0097 0.005 -0.0104
O2M 0.0564 0.0468 0.048 -0.0097 -0.005 -0.0104
N2B 0.0638 0.0453 0.037 -0.0068 0.0029 -0.016
N2O 0.0638 0.0453 0.037 0.0068 -0.0029 -0.016
C2P 0.0453 0.0356 0.0433 -0.0009 -0.0036 -0.0007
S1P 0.0399 0.044 0.0439 -0.0003 -0.0024 -0.0049
O3P 0.0694 0.0741 0.0425 -0.0064 0.0047 -0.0154
C3P 0.0427 0.0385 0.0472 0.0014 -0.0033 0.0016
O4P 0.0426 0.0376 0.0556 -0.0016 -0.002 0.0004
C4P 0.0456 0.0543 0.0639 -0.0011 -0.0026 0.0051
O5P 0.0422 0.0573 0.0759 0.0058 -0.01 -0.0074
C5P 0.058 0.0624 0.075 -0.0146 -0.0064 0.019
C6P 0.064 0.0515 0.081 -0.0227 -0.0098 0.0097
C7P 0.0535 0.0484 0.071 -0.0096 -0.0042 -0.0046
C8B 0.0436 0.044 0.0439 -0.0062 -0.0034 0.0027
C9B 0.0432 0.0569 0.0436 -0.0089 -0.0069 -0.0021
C10B 0.049 0.0412 0.0335 -0.0049 0.0001 -0.0078
C11B 0.0512 0.0416 0.0483 -0.0125 -0.0034 0.0033
C12B 0.0459 0.0455 0.0469 -0.0139 -0.0101 0.0079
C13B 0.0567 0.044 0.0358 -0.0039 0.0012 -0.0115
C14B 0.0599 0.078 0.0636 -0.0308 0.0161 -0.0215
C15B 0.065 0.075 0.0653 -0.0291 0.0148 -0.0278
C16B 0.0572 0.0626 0.0526 -0.0233 0.0024 -0.0107
C17B 0.0516 0.0645 0.0578 -0.0218 0.0008 -0.0123
loop_
_geom_bond_atom_site_label_1
_geom_bond_atom_site_label_2
_geom_bond_site_symmetry_1
_geom_bond_site_symmetry_2
Zn1 O1 1_555 1_555
O1 C1 1_555 1_555
N1 Zn1 1_555 1_555
C1 O2 1_555 1_555
Zn2 O2 1_555 1_555
N2 C15 1_555 1_555
C2 C1 1_555 1_555
S1 O3 1_555 1_555
C3 C2 1_555 1_555
O4 Zn1 1_555 1_555
C4 C3 1_555 1_555
H1 C4 1_555 1_555
O5 S1 1_555 1_555
C5 C4 1_555 1_555
H2 C5 1_555 1_555
C6 C5 1_555 1_555
H3 C6 1_555 1_555
C7 C2 1_555 1_555
H4 C7 1_555 1_555
C8 N1 1_555 1_555
H5 C8 1_555 1_555
C9 C8 1_555 1_555
H6 C9 1_555 1_555
C10 C9 1_555 1_555
C11 C10 1_555 1_555
H7 C11 1_555 1_555
C12 N1 1_555 1_555
H8 C12 1_555 1_555
C13 C10 1_555 1_555
C14 C13 1_555 1_555
H9 C14 1_555 1_555
C15 C14 1_555 1_555
H10 C15 1_555 1_555
C16 N2 1_555 1_555
H11 C16 1_555 1_555
C17 C13 1_555 1_555
H12 C17 1_555 1_555
Zn1B N1B 1_555 1_555
O1P Zn1 1_555 1_555
N1B C8B 1_555 1_555
N1P Zn1 1_555 1_555
C1P O1P 1_555 1_555
Zn2B N2 1_555 1_555
Zn2P O2P 1_555 1_555
O2P C1P 1_555 1_555
O2M Zn2 1_555 1_555
N2B Zn2 1_555 1_555
N2O Zn2 1_555 1_555
C2P C1P 1_555 1_555
S1P O3P 1_555 1_555
C3P C2P 1_555 1_555
O4P Zn1 1_555 1_555
C4P C3P 1_555 1_555
H1P C4P 1_555 1_555
O5P S1P 1_555 1_555
C5P C4P 1_555 1_555
H2P C5P 1_555 1_555
C6P C5P 1_555 1_555
H3P C6P 1_555 1_555
C7P C2P 1_555 1_555
H4P C7P 1_555 1_555
C8B H5B 1_555 1_555
C9B C8B 1_555 1_555
H6B C9B 1_555 1_555
C10B C9B 1_555 1_555
C11B C10B 1_555 1_555
H7B C11B 1_555 1_555
C12B N1B 1_555 1_555
H8B C12B 1_555 1_555
C13B C10B 1_555 1_555
C14B C13B 1_555 1_555
H9B C14B 1_555 1_555
C15B N2B 1_555 1_555
H10B C15B 1_555 1_555
C16B N2B 1_555 1_555
H11B C16B 1_555 1_555
C17B C13B 1_555 1_555
H12B C17B 1_555 1_555
S1 C3 1_555 1_555
S1 O4 1_555 1_555
C6 C7 1_555 1_555
C11 C12 1_555 1_555
C16 C17 1_555 1_555
S1P C3P 1_555 1_555
S1P O4P 1_555 1_555
C6P C7P 1_555 1_555
C11B C12B 1_555 1_555
C14B C15B 1_555 1_555
C16B C17B 1_555 1_555

#END
