
#######################################################################
#
#                 Cambridge Crystallographic Data Centre
#                                CCDC 
#
#######################################################################
#
# If this CIF has been generated from an entry in the Cambridge 
# Structural Database, then it will include bibliographic, chemical, 
# crystal, experimental, refinement or atomic coordinate data resulting 
# from the CCDC's data processing and validation procedures.
#
#######################################################################

data_QITHEG
_chemical_formula_moiety         'C19 H14 N2 Ni2 O6'
_symmetry_cell_setting           cubic
_symmetry_space_group_name_H-M   'I 41 3 2'
_symmetry_Int_Tables_number      214
_space_group_name_Hall           'I 4bd 2c 3'
loop_
_symmetry_equiv_pos_site_id
_symmetry_equiv_pos_as_xyz
1 x,y,z
2 1/4-y,3/4+x,1/4+z
3 1/2+x,1/2-y,-z
4 z,x,y
5 1/2-x,-y,1/2+z
6 3/4+y,1/4+x,1/4-z
7 1/4-x,3/4+z,1/4+y
8 1/4+y,1/4-x,3/4+z
9 -x,1/2+y,1/2-z
10 1/2-z,-x,1/2+y
11 3/4-y,3/4-x,3/4-z
12 1/4+x,1/4-z,3/4+y
13 1/2+z,1/2-x,-y
14 3/4-x,3/4-z,3/4-y
15 -z,1/2+x,1/2-y
16 3/4+x,1/4+z,1/4-y
17 y,z,x
18 1/4-z,3/4+y,1/4+x
19 3/4+z,1/4+y,1/4-x
20 1/2+y,1/2-z,-x
21 3/4-z,3/4-y,3/4-x
22 -y,1/2+z,1/2-x
23 1/2-y,-z,1/2+x
24 1/4+z,1/4-y,3/4+x
25 1/2+x,1/2+y,1/2+z
26 3/4-y,1/4+x,3/4+z
27 x,-y,1/2-z
28 1/2+z,1/2+x,1/2+y
29 -x,1/2-y,z
30 1/4+y,3/4+x,3/4-z
31 3/4-x,1/4+z,3/4+y
32 3/4+y,3/4-x,1/4+z
33 1/2-x,y,-z
34 -z,1/2-x,y
35 1/4-y,1/4-x,1/4-z
36 3/4+x,3/4-z,1/4+y
37 z,-x,1/2-y
38 1/4-x,1/4-z,1/4-y
39 1/2-z,x,-y
40 1/4+x,3/4+z,3/4-y
41 1/2+y,1/2+z,1/2+x
42 3/4-z,1/4+y,3/4+x
43 1/4+z,3/4+y,3/4-x
44 y,-z,1/2-x
45 1/4-z,1/4-y,1/4-x
46 1/2-y,z,-x
47 -y,1/2-z,x
48 3/4+z,3/4-y,1/4+x
_cell_length_a                   28.457(1)
_cell_length_b                   28.457(1)
_cell_length_c                   28.457(1)
_cell_angle_alpha                90
_cell_angle_beta                 90
_cell_angle_gamma                90
_cell_volume                     23044.5
loop_
_atom_site_label
_atom_site_type_symbol
_atom_site_fract_x
_atom_site_fract_y
_atom_site_fract_z
Ni1 Ni 0.3494(2) 0.6196(3) 0.8992(2)
O1 O 0.3945(7) 0.5844(7) 0.9398(7)
O3 O 0.4542(9) 0.6312(9) 0.9525(8)
C1 C 0.4311(6) 0.5957(6) 0.9631(5)
C2 C 0.4453(6) 0.5690(5) 1.0034(6)
C3 C 0.4826(5) 0.5809(6) 1.0303(5)
O5 O 0.3678(7) 0.5794(8) 0.8412(8)
C4 C 0.4132(9) 0.5910(11) 0.8254(8)
C5 C 0.4205(9) 0.6062(10) 0.8312(9)
C6 C 0.4162(18) 0.5744(17) 0.7744(14)
C7 C 0.4310(14) 0.5904(17) 0.7810(18)
N1 N 0.3345(10) 0.6681(7) 0.9558(6)
C8 C 0.3283(10) 0.6557(8) 0.9995(8)
C9 C 0.3160(12) 0.6853(10) 1.0335(8)
C10 C 0.3091(11) 0.7307(8) 1.0259(8)
C11 C 0.3160(14) 0.7434(8) 0.9817(9)
C12 C 0.3280(18) 0.7130(9) 0.9483(9)
H1 H 0.500(1) 0.609(1) 1.022(1)
H2 H 0.436(1) 0.575(1) 0.844(1)
H3 H 0.442(1) 0.591(1) 0.852(1)
H4 H 0.412(2) 0.541(2) 0.773(1)
H5 H 0.446(2) 0.583(2) 0.762(1)
H6 H 0.392(2) 0.589(2) 0.756(1)
H7 H 0.428(1) 0.557(2) 0.779(2)
H8 H 0.462(1) 0.600(2) 0.773(2)
H9 H 0.409(1) 0.605(2) 0.760(2)
H10 H 0.333(1) 0.623(1) 1.008(1)
H11 H 0.312(1) 0.673(1) 1.065(1)
H12 H 0.300(1) 0.752(1) 1.050(1)
H13 H 0.312(1) 0.776(1) 0.973(1)
H14 H 0.332(2) 0.725(1) 0.917(1)
Ni1RA Ni 0.3508(2) 0.6304(3) 0.9006(2)
O1RA O 0.3102(7) 0.6656(7) 0.8555(7)
O5RA O 0.4088(8) 0.6706(8) 0.8822(7)
N1RA N 0.2942(6) 0.5819(7) 0.9155(10)
C3U C 0.4191(6) 0.5303(5) 1.0174(5)
C2I C 0.4966(6) 0.5547(6) 1.0690(5)
C5RA C 0.4188(9) 0.6438(10) 0.8295(9)
C4RA C 0.4246(8) 0.6590(11) 0.8368(9)
O7 O 0.5584(9) 0.6207(9) 0.9376(9)
C18 C 0.5828(18) 0.5765(13) 0.9369(25)
C19 C 0.6321(20) 0.5854(21) 0.9528(21)
C20 C 0.5474(24) 0.5463(26) 0.9127(25)
loop_
_geom_bond_atom_site_label_1
_geom_bond_atom_site_label_2
_geom_bond_site_symmetry_1
_geom_bond_site_symmetry_2
Ni1 O1 1_555 1_555
O1 C1 1_555 1_555
O3 C1 1_555 1_555
C1 C2 1_555 1_555
C2 C3 1_555 1_555
C3 H1 1_555 1_555
O5 Ni1 1_555 1_555
C4 O5 1_555 1_555
C5 O5 1_555 1_555
C6 C4 1_555 1_555
C7 C4 1_555 1_555
N1 Ni1 1_555 1_555
C8 N1 1_555 1_555
C9 C8 1_555 1_555
C10 C9 1_555 1_555
C11 C10 1_555 1_555
C12 N1 1_555 1_555
O7 C18 1_555 1_555
C18 C19 1_555 1_555
C20 C18 1_555 1_555
H2 C4 1_555 1_555
H3 C4 1_555 1_555
H4 C6 1_555 1_555
H5 C6 1_555 1_555
H6 C6 1_555 1_555
H7 C6 1_555 1_555
H8 C7 1_555 1_555
H9 C6 1_555 1_555
H10 C8 1_555 1_555
H11 C9 1_555 1_555
H12 C10 1_555 1_555
H13 C11 1_555 1_555
H14 C12 1_555 1_555
Ni1RA Ni1 1_555 1_555
O1RA Ni1 1_555 1_555
O5RA Ni1 1_555 1_555
N1RA Ni1 1_555 1_555
C3U C2 1_555 1_555
C2I C3 1_555 1_555
C5RA C4 1_555 1_555
C4RA C5 1_555 1_555
O1 Ni1RA 1_555 1_555
O5 Ni1RA 1_555 1_555
C4 C5 1_555 1_555
C5 C5RA 1_555 1_555
C5 C7 1_555 1_555
C5 H2 1_555 1_555
C5 H3 1_555 1_555
C6 C7 1_555 1_555
C7 H5 1_555 1_555
C7 H7 1_555 1_555
C7 H9 1_555 1_555
N1 Ni1RA 1_555 1_555
C11 C12 1_555 1_555
H2 H3 1_555 1_555
H4 H7 1_555 1_555
H5 H8 1_555 1_555
H6 H9 1_555 1_555
Ni1RA O1RA 1_555 1_555
Ni1RA O5RA 1_555 1_555
Ni1RA N1RA 1_555 1_555
O5RA C4RA 1_555 1_555
O5RA C5RA 1_555 1_555
C5RA C4RA 1_555 1_555

#END
