
#######################################################################
#
#                 Cambridge Crystallographic Data Centre
#                                CCDC 
#
#######################################################################
#
# If this CIF has been generated from an entry in the Cambridge 
# Structural Database, then it will include bibliographic, chemical, 
# crystal, experimental, refinement or atomic coordinate data resulting 
# from the CCDC's data processing and validation procedures.
#
#######################################################################

data_QITHAC
_chemical_formula_moiety         'C18 H23 N2 Ni2 O9'
_symmetry_cell_setting           cubic
_symmetry_space_group_name_H-M   'I 41 3 2'
_symmetry_Int_Tables_number      214
_space_group_name_Hall           'I 4bd 2c 3'
loop_
_symmetry_equiv_pos_site_id
_symmetry_equiv_pos_as_xyz
1 x,y,z
2 1/4-y,3/4+x,1/4+z
3 1/2+x,1/2-y,-z
4 z,x,y
5 1/2-x,-y,1/2+z
6 3/4+y,1/4+x,1/4-z
7 1/4-x,3/4+z,1/4+y
8 1/4+y,1/4-x,3/4+z
9 -x,1/2+y,1/2-z
10 1/2-z,-x,1/2+y
11 3/4-y,3/4-x,3/4-z
12 1/4+x,1/4-z,3/4+y
13 1/2+z,1/2-x,-y
14 3/4-x,3/4-z,3/4-y
15 -z,1/2+x,1/2-y
16 3/4+x,1/4+z,1/4-y
17 y,z,x
18 1/4-z,3/4+y,1/4+x
19 3/4+z,1/4+y,1/4-x
20 1/2+y,1/2-z,-x
21 3/4-z,3/4-y,3/4-x
22 -y,1/2+z,1/2-x
23 1/2-y,-z,1/2+x
24 1/4+z,1/4-y,3/4+x
25 1/2+x,1/2+y,1/2+z
26 3/4-y,1/4+x,3/4+z
27 x,-y,1/2-z
28 1/2+z,1/2+x,1/2+y
29 -x,1/2-y,z
30 1/4+y,3/4+x,3/4-z
31 3/4-x,1/4+z,3/4+y
32 3/4+y,3/4-x,1/4+z
33 1/2-x,y,-z
34 -z,1/2-x,y
35 1/4-y,1/4-x,1/4-z
36 3/4+x,3/4-z,1/4+y
37 z,-x,1/2-y
38 1/4-x,1/4-z,1/4-y
39 1/2-z,x,-y
40 1/4+x,3/4+z,3/4-y
41 1/2+y,1/2+z,1/2+x
42 3/4-z,1/4+y,3/4+x
43 1/4+z,3/4+y,3/4-x
44 y,-z,1/2-x
45 1/4-z,1/4-y,1/4-x
46 1/2-y,z,-x
47 -y,1/2-z,x
48 3/4+z,3/4-y,1/4+x
_cell_length_a                   28.471(1)
_cell_length_b                   28.471(1)
_cell_length_c                   28.471(1)
_cell_angle_alpha                90
_cell_angle_beta                 90
_cell_angle_gamma                90
_cell_volume                     23078.5
loop_
_atom_site_label
_atom_site_type_symbol
_atom_site_fract_x
_atom_site_fract_y
_atom_site_fract_z
O5 O 0.5568(5) 0.6241(5) 0.9354(5)
C20 C 0.5652(10) 0.5754(7) 0.9241(9)
C21 C 0.6009(12) 0.5508(10) 0.9526(14)
O6 O 0.6405(13) 0.5810(12) 0.9603(12)
C22 C 0.5630(18) 0.5646(14) 0.8732(11)
H24 H 0.537(1) 0.561(1) 0.935(1)
H25 H 0.588(1) 0.542(1) 0.982(1)
H26 H 0.611(1) 0.523(1) 0.937(1)
H27 H 0.538(2) 0.583(1) 0.859(1)
H28 H 0.556(2) 0.532(1) 0.869(1)
H29 H 0.592(2) 0.572(1) 0.859(1)
Ni1 Ni 0.3473(1) 0.6189(1) 0.8990(1)
O1 O 0.3907(1) 0.5884(2) 0.9453(1)
O2 O 0.4570(1) 0.6296(2) 0.9473(1)
C1 C 0.4298(2) 0.5980(2) 0.9627(2)
C2 C 0.4442(2) 0.5694(2) 1.0035(2)
C3 C 0.4837(2) 0.5816(2) 1.0301(2)
O3 O 0.3648(3) 0.5773(3) 0.8418(3)
O4 O 0.4038(3) 0.6586(3) 0.8740(3)
C4 C 0.4102(4) 0.5879(5) 0.8256(5)
C5 C 0.4206(5) 0.6417(4) 0.8303(5)
C6 C 0.4207(12) 0.5652(20) 0.7827(10)
N1 N 0.3331(3) 0.6652(3) 0.9544(3)
C10 C 0.3296(5) 0.6518(5) 0.9983(5)
C11 C 0.3177(5) 0.6857(5) 1.0343(5)
C12 C 0.3099(5) 0.7320(8) 1.0257(5)
C13 C 0.3142(5) 0.7444(5) 0.9857(6)
C14 C 0.3251(6) 0.7180(6) 0.9490(6)
H1 H 0.498(2) 0.610(2) 1.020(1)
H2 H 0.431(1) 0.573(1) 0.848(1)
H3 H 0.422(1) 0.603(1) 0.796(1)
H4 H 0.445(1) 0.592(1) 0.844(1)
H5 H 0.412(1) 0.533(2) 0.785(1)
H6 H 0.454(1) 0.568(2) 0.776(1)
H7 H 0.403(1) 0.580(2) 0.758(1)
H14 H 0.335(1) 0.620(1) 1.007(1)
H15 H 0.315(1) 0.675(1) 1.066(1)
H16 H 0.301(1) 0.754(1) 1.050(1)
H17 H 0.309(1) 0.777(1) 0.980(1)
H18 H 0.328(1) 0.732(1) 0.919(1)
Ni1RA Ni 0.3510(1) 0.6311(1) 0.9027(1)
O1RA O 0.3047(1) 0.6616(2) 0.8593(1)
O3RA O 0.4082(3) 0.6727(3) 0.8852(3)
O4RA O 0.3760(3) 0.5914(3) 0.8462(3)
N1RA N 0.2956(3) 0.5848(3) 0.9169(3)
C3U C 0.4184(2) 0.5301(2) 1.0163(2)
C2I C 0.4965(2) 0.5558(2) 1.0694(2)
C4RA C 0.4244(5) 0.6621(5) 0.8398(4)
C5RA C 0.4197(5) 0.6083(4) 0.8294(5)
H2RA H 0.402(1) 0.677(1) 0.819(1)
H3RA H 0.454(1) 0.647(1) 0.828(1)
H4RA H 0.406(1) 0.658(1) 0.805(1)
loop_
_geom_bond_atom_site_label_1
_geom_bond_atom_site_label_2
_geom_bond_site_symmetry_1
_geom_bond_site_symmetry_2
Ni1 O1 1_555 1_555
O1 C1 1_555 1_555
O2 C1 1_555 1_555
C1 C2 1_555 1_555
C2 C3 1_555 1_555
C3 H1 1_555 1_555
O3 Ni1 1_555 1_555
O4 Ni1 1_555 1_555
C4 O3 1_555 1_555
C5 O4 1_555 1_555
C6 C4 1_555 1_555
N1 Ni1 1_555 1_555
C10 N1 1_555 1_555
C11 C10 1_555 1_555
C12 C11 1_555 1_555
C13 C12 1_555 1_555
C14 N1 1_555 1_555
O5 C20 1_555 1_555
C20 C21 1_555 1_555
C21 O6 1_555 1_555
C22 C20 1_555 1_555
H2 C4 1_555 1_555
H3 C4 1_555 1_555
H4 C4 1_555 1_555
H5 C6 1_555 1_555
H6 C6 1_555 1_555
H7 C6 1_555 1_555
H14 C10 1_555 1_555
H15 C11 1_555 1_555
H16 C12 1_555 1_555
H17 C13 1_555 1_555
H18 C14 1_555 1_555
H24 C20 1_555 1_555
H25 C21 1_555 1_555
H26 C21 1_555 1_555
H27 C22 1_555 1_555
H28 C22 1_555 1_555
H29 C22 1_555 1_555
Ni1RA Ni1 1_555 1_555
O1RA Ni1 1_555 1_555
O3RA Ni1 1_555 1_555
O4RA Ni1 1_555 1_555
N1RA Ni1 1_555 1_555
C3U C2 1_555 1_555
C2I C3 1_555 1_555
C4RA O4 1_555 1_555
C5RA C4 1_555 1_555
H2RA C5 1_555 1_555
H3RA C5 1_555 1_555
H4RA C5 1_555 1_555
O1 Ni1RA 1_555 1_555
O3 O4RA 1_555 1_555
O3 Ni1RA 1_555 1_555
O4 Ni1RA 1_555 1_555
O4 O3RA 1_555 1_555
C4 C5 1_555 1_555
C4 O4RA 1_555 1_555
C5 C5RA 1_555 1_555
C5 C4RA 1_555 1_555
C6 H3 1_555 1_555
N1 Ni1RA 1_555 1_555
C13 C14 1_555 1_555
H2 H4 1_555 1_555
H2 C5RA 1_555 1_555
H3 C5RA 1_555 1_555
H4 C5RA 1_555 1_555
Ni1RA O1RA 1_555 1_555
Ni1RA O3RA 1_555 1_555
Ni1RA O4RA 1_555 1_555
Ni1RA N1RA 1_555 1_555
O3RA C4RA 1_555 1_555
O4RA C5RA 1_555 1_555
C4RA C5RA 1_555 1_555
C4RA H2RA 1_555 1_555
C4RA H3RA 1_555 1_555
C4RA H4RA 1_555 1_555
H2RA H4RA 1_555 1_555

#END
