
#######################################################################
#
#                 Cambridge Crystallographic Data Centre
#                                CCDC 
#
#######################################################################
#
# If this CIF has been generated from an entry in the Cambridge 
# Structural Database, then it will include bibliographic, chemical, 
# crystal, experimental, refinement or atomic coordinate data resulting 
# from the CCDC's data processing and validation procedures.
#
#######################################################################

data_XUNJIA
_chemical_formula_moiety         '(C16 H18 Mn3 O12)n'
_symmetry_cell_setting           trigonal
_symmetry_space_group_name_H-M   'P 32 2 1'
_symmetry_Int_Tables_number      154
_space_group_name_Hall           'P 32 2"'
loop_
_symmetry_equiv_pos_site_id
_symmetry_equiv_pos_as_xyz
1 x,y,z
2 -y,x-y,2/3+z
3 -x+y,-x,1/3+z
4 y,x,-z
5 x-y,-y,1/3-z
6 -x,-x+y,2/3-z
_cell_length_a                   15.1841(9)
_cell_length_b                   15.1841(9)
_cell_length_c                   7.8474(9)
_cell_angle_alpha                90
_cell_angle_beta                 90
_cell_angle_gamma                120
_cell_volume                     1566.88
loop_
_atom_site_label
_atom_site_type_symbol
_atom_site_fract_x
_atom_site_fract_y
_atom_site_fract_z
Mn1 Mn 0.57885(7) 0.32286(7) 0.11929(10)
Mn2 Mn 0.48672(11) 0.48672(11) 0.0000
O1 O 0.4057(9) 0.3727(8) 0.1738(14)
O2 O 0.4315(4) 0.2467(5) 0.2162(7)
O3 O 0.4119(4) 0.5739(4) 0.0959(5)
O4 O 0.3750(3) 0.6456(3) 0.3124(5)
O5 O 0.4590(3) 0.6530(4) -0.2800(5)
O6 O 0.5689(4) 0.6086(5) -0.1804(6)
C1 C 0.3840(8) 0.2914(8) 0.2413(11)
C2 C 0.2973(9) 0.2488(8) 0.3580(13)
C3 C 0.3343(12) 0.3343(12) 0.5000
C4 C 0.2074(18) 0.2624(18) 0.274(3)
C5 C 0.102(2) 0.205(2) 0.394(4)
C6 C 0.130(2) 0.130(2) 0.5000
C7 C 0.281(2) 0.152(2) 0.437(3)
C8 C 0.4248(5) 0.6087(5) 0.2441(7)
H1 H 0.4780 0.6078 0.3216
C9 C 0.5442(6) 0.6577(6) -0.2724(9)
H2 H 0.5912 0.7026 -0.3765
Mn1C Mn 0.32286(7) 0.57885(7) 0.88071(10)
Mn1C_2 Mn 0.32286(7) 0.57885(7) -0.11929(10)
Mn1D Mn 0.25599(10) 0.67714(7) 0.21404(10)
Mn1E Mn 0.42115(7) 0.74401(10) 0.54738(10)
Mn1E_2 Mn 0.42115(7) 0.74401(10) -0.45262(10)
Mn1B Mn 0.74401(10) 0.42115(7) 0.45262(10)
Mn1A Mn 0.67714(7) 0.25599(10) -0.21404(10)
Mn1B_2 Mn 0.74401(10) 0.42115(7) -0.54738(10)
Mn2_2 Mn 0.48672(11) 0.48672(11) 1.0000
O1C O 0.3727(8) 0.4057(9) 0.8262(14)
O1C_2 O 0.3727(8) 0.4057(9) -0.1738(14)
O2C O 0.2467(5) 0.4315(4) 0.7838(7)
O3C O 0.5739(4) 0.4119(4) -0.0959(5)
O3_2 O 0.4119(4) 0.5739(4) 1.0959(5)
O4C O 0.6456(3) 0.3750(3) -0.3124(5)
O4D O 0.7294(4) 0.3544(3) 0.0209(5)
O4E O 0.6250(3) 0.2706(4) 0.3543(5)
O4A O 0.3544(3) 0.7294(4) 0.9791(5)
O4B O 0.2706(4) 0.6250(3) 0.6457(5)
O5C O 0.6530(4) 0.4590(3) 0.2800(5)
O5E O 0.5410(3) 0.1940(5) -0.0533(5)
O5_2 O 0.4590(3) 0.6530(4) 0.7200(5)
O5B O 0.1940(5) 0.5410(3) 1.0533(5)
O6C O 0.6086(5) 0.5689(4) 0.1804(6)
C1C C 0.2914(8) 0.3840(8) 0.7587(11)
C2C C 0.2488(8) 0.2973(9) 0.6420(13)
C4C C 0.2624(18) 0.2074(18) 0.726(3)
C5C C 0.205(2) 0.102(2) 0.606(4)
C7C C 0.152(2) 0.281(2) 0.563(3)
C8C C 0.6087(5) 0.4248(5) -0.2441(7)
H1C H 0.6078 0.4780 -0.3216
C9C C 0.6577(6) 0.5442(6) 0.2724(9)
H2C H 0.7026 0.5912 0.3765
loop_
_geom_bond_atom_site_label_1
_geom_bond_atom_site_label_2
_geom_bond_site_symmetry_1
_geom_bond_site_symmetry_2
Mn1 O2 1_555 1_555
Mn2 O1 1_555 1_555
O1 C1 1_555 1_555
O2 C1 1_555 1_555
O3 Mn2 1_555 1_555
O4 C8 1_555 1_555
O5 C9 1_555 1_555
O6 Mn2 1_555 1_555
C1 C2 1_555 1_555
C2 C3 1_555 1_555
C3 C2C 1_555 1_555
C4 C2 1_555 1_555
C5 C4 1_555 1_555
C6 C5 1_555 1_555
C7 C2 1_555 1_555
C8 O3 1_555 1_555
H1 C8 1_555 1_555
C9 O6 1_555 1_555
H2 C9 1_555 1_555
Mn1C O2C 1_555 1_555
Mn1C_2 O3 1_555 1_555
Mn1D O4 1_555 1_555
Mn1E O4 1_555 1_555
Mn1E_2 O5 1_555 1_555
Mn1B O4E 1_555 1_555
Mn1A O4C 1_555 1_555
Mn1B_2 O4C 1_555 1_555
Mn2_2 O1C 1_555 1_555
O1C C1C 1_555 1_555
O1C_2 Mn2 1_555 1_555
O2C C1C 1_555 1_555
O3C Mn1 1_555 1_555
O3_2 Mn1C 1_555 1_555
O4C C8C 1_555 1_555
O4D Mn1 1_555 1_555
O4E Mn1 1_555 1_555
O4A Mn1C 1_555 1_555
O4B Mn1C 1_555 1_555
O5C Mn1 1_555 1_555
O5E Mn1 1_555 1_555
O5_2 Mn1C 1_555 1_555
O5B Mn1C 1_555 1_555
O6C Mn2 1_555 1_555
C1C C2C 1_555 1_555
C2C C4C 1_555 1_555
C4C C5C 1_555 1_555
C5C C6 1_555 1_555
C7C C5 1_555 1_555
C8C O3C 1_555 1_555
H1C C8C 1_555 1_555
C9C O5C 1_555 1_555
H2C C9C 1_555 1_555
Mn2 O3C 1_555 1_555
O5 Mn1C_2 1_555 1_555
C7 C5C 1_555 1_555
Mn1E O4B 1_555 1_555
Mn1E O5_2 1_555 1_555
Mn1B O5C 1_555 1_555
Mn1A O4D 1_555 1_555
Mn1A O5E 1_555 1_555
Mn2_2 O3_2 1_555 1_555
O6C C9C 1_555 1_555
C2C C7C 1_555 1_555

#END
