
#######################################################################
#
#                 Cambridge Crystallographic Data Centre
#                                CCDC 
#
#######################################################################
#
# If this CIF has been generated from an entry in the Cambridge 
# Structural Database, then it will include bibliographic, chemical, 
# crystal, experimental, refinement or atomic coordinate data resulting 
# from the CCDC's data processing and validation procedures.
#
#######################################################################

data_LASRAB
_chemical_formula_moiety         '(C57 H47 Br1 Cu3 Mn1 O20 P2)n'
_symmetry_cell_setting           orthorhombic
_symmetry_space_group_name_H-M   'P 21 21 21'
_symmetry_Int_Tables_number      19
_space_group_name_Hall           'P 2ac 2ab'
loop_
_symmetry_equiv_pos_site_id
_symmetry_equiv_pos_as_xyz
1 x,y,z
2 1/2-x,-y,1/2+z
3 -x,1/2+y,1/2-z
4 1/2+x,1/2-y,-z
_cell_length_a                   16.21700(10)
_cell_length_b                   17.98310(10)
_cell_length_c                   19.64020(10)
_cell_angle_alpha                90
_cell_angle_beta                 90
_cell_angle_gamma                90
_cell_volume                     5727.71
loop_
_atom_site_label
_atom_site_type_symbol
_atom_site_fract_x
_atom_site_fract_y
_atom_site_fract_z
_atom_site_U_iso_or_equiv
_atom_site_thermal_displace_type
P1 P 0.59820(5) -0.01859(5) 0.83031(4) 0.0434 Uani
C1 C 0.60662(16) -0.06721(13) 0.90949(10) 0.0453 Uani
C2 C 0.64130(18) -0.13789(13) 0.90921(10) 0.0567 Uani
H1 H 0.6620 -0.1577 0.8689 0.0680 Uiso
C3 C 0.6451(2) -0.17891(12) 0.96911(14) 0.0660 Uani
H2 H 0.6683 -0.2262 0.9689 0.0790 Uiso
C4 C 0.6143(2) -0.14926(16) 1.02929(11) 0.0687 Uani
H3 H 0.6168 -0.1767 1.0694 0.0830 Uiso
C5 C 0.5796(2) -0.07857(18) 1.02957(10) 0.0727 Uani
H4 H 0.5589 -0.0587 1.0698 0.0870 Uiso
C6 C 0.57575(18) -0.03755(13) 0.96967(13) 0.0600 Uani
H5 H 0.5525 0.0097 0.9699 0.0720 Uiso
C7 C 0.69173(13) -0.03418(17) 0.78320(13) 0.0509 Uani
C8 C 0.68930(14) -0.07275(17) 0.72190(13) 0.0589 Uani
H6 H 0.6393 -0.0901 0.7051 0.0710 Uiso
C9 C 0.7616(2) -0.08533(18) 0.68574(12) 0.0710 Uani
H7 H 0.7600 -0.1111 0.6447 0.0850 Uiso
C10 C 0.83641(15) -0.0594(2) 0.71087(18) 0.0840 Uani
H8 H 0.8848 -0.0678 0.6867 0.1010 Uiso
C11 C 0.83884(13) -0.0208(2) 0.77217(19) 0.0887 Uani
H9 H 0.8889 -0.0034 0.7890 0.1070 Uiso
C12 C 0.76650(17) -0.00820(18) 0.80834(14) 0.0717 Uani
H10 H 0.7681 0.0176 0.8493 0.0860 Uiso
C13 C 0.51268(16) -0.05542(15) 0.78361(14) 0.0469 Uani
C14 C 0.4847(2) -0.01670(15) 0.72688(17) 0.0733 Uani
H11 H 0.5107 0.0271 0.7137 0.0880 Uiso
C15 C 0.4179(2) -0.04343(18) 0.68990(16) 0.0723 Uani
H12 H 0.3992 -0.0175 0.6519 0.0870 Uiso
C16 C 0.3791(2) -0.10887(19) 0.70966(19) 0.0710 Uani
H13 H 0.3344 -0.1268 0.6849 0.0850 Uiso
C17 C 0.4070(2) -0.14759(19) 0.7664(2) 0.1127 Uani
H14 H 0.3811 -0.1914 0.7796 0.1350 Uiso
C18 C 0.4739(2) -0.12086(19) 0.80337(17) 0.0923 Uani
H15 H 0.4926 -0.1468 0.8413 0.1110 Uiso
C19 C 0.57826(17) 0.07759(12) 0.84685(16) 0.0537 Uani
C20 C 0.49851(16) 0.09817(17) 0.86469(19) 0.0713 Uani
H16 H 0.4564 0.0631 0.8642 0.0860 Uiso
C21 C 0.4817(2) 0.1712(2) 0.8833(2) 0.0850 Uani
H17 H 0.4284 0.1850 0.8952 0.1020 Uiso
C22 C 0.5447(3) 0.22365(14) 0.8840(2) 0.0990 Uani
H18 H 0.5334 0.2725 0.8965 0.1190 Uiso
C23 C 0.6244(2) 0.20307(16) 0.8662(2) 0.0983 Uani
H19 H 0.6665 0.2382 0.8667 0.1180 Uiso
C24 C 0.64121(16) 0.13005(17) 0.8476(2) 0.0763 Uani
H20 H 0.6946 0.1163 0.8357 0.0920 Uiso
P2 P 0.89362(6) -0.13807(5) 1.05401(4) 0.0456 Uani
C25 C 0.8957(2) -0.18345(17) 0.97207(11) 0.0542 Uani
C26 C 0.8563(2) -0.15217(16) 0.91612(14) 0.0740 Uani
H21 H 0.8349 -0.1043 0.9189 0.0890 Uiso
C27 C 0.8488(3) -0.1925(2) 0.85606(12) 0.0873 Uani
H22 H 0.8225 -0.1716 0.8186 0.1050 Uiso
C28 C 0.8807(3) -0.2641(2) 0.85193(15) 0.0990 Uani
H23 H 0.8757 -0.2910 0.8117 0.1190 Uiso
C29 C 0.9201(3) -0.29535(19) 0.90788(19) 0.1110 Uani
H24 H 0.9415 -0.3433 0.9051 0.1330 Uiso
C30 C 0.9276(3) -0.25504(19) 0.96795(14) 0.0877 Uani
H25 H 0.9540 -0.2760 1.0054 0.1050 Uiso
C31 C 0.86961(16) -0.04074(11) 1.04481(14) 0.0504 Uani
C32 C 0.92950(14) 0.01368(16) 1.05376(18) 0.0697 Uani
H26 H 0.9827 0.0003 1.0663 0.0830 Uiso
C33 C 0.9098(2) 0.08813(14) 1.0439(2) 0.0890 Uani
H27 H 0.9499 0.1245 1.0499 0.1070 Uiso
C34 C 0.8302(2) 0.10815(11) 1.0251(2) 0.0837 Uani
H28 H 0.8170 0.1580 1.0185 0.1000 Uiso
C35 C 0.77032(17) 0.05373(16) 1.01613(17) 0.0683 Uani
H29 H 0.7171 0.0671 1.0035 0.0820 Uiso
C36 C 0.79002(15) -0.02072(14) 1.02600(16) 0.0603 Uani
H30 H 0.7500 -0.0571 1.0200 0.0720 Uiso
C37 C 0.81421(19) -0.18178(16) 1.10417(15) 0.0573 Uani
C38 C 0.7766(2) -0.14261(16) 1.15668(16) 0.0693 Uani
H31 H 0.7915 -0.0935 1.1652 0.0830 Uiso
C39 C 0.7167(3) -0.1768(2) 1.19649(17) 0.0880 Uani
H32 H 0.6915 -0.1506 1.2316 0.1060 Uiso
C40 C 0.6944(3) -0.2501(2) 1.1838(2) 0.1020 Uani
H33 H 0.6544 -0.2730 1.2104 0.1230 Uiso
C41 C 0.7320(3) -0.28929(17) 1.1313(3) 0.1130 Uani
H34 H 0.7172 -0.3384 1.1228 0.1350 Uiso
C42 C 0.7919(3) -0.25512(16) 1.09146(19) 0.0820 Uani
H35 H 0.8171 -0.2813 1.0563 0.0990 Uiso
C43 C 0.99208(13) -0.14949(16) 1.09386(12) 0.0505 Uani
C44 C 1.06251(17) -0.12859(17) 1.05835(11) 0.0623 Uani
H36 H 1.0582 -0.1115 1.0138 0.0750 Uiso
C45 C 1.13934(14) -0.13323(19) 1.08943(16) 0.0703 Uani
H37 H 1.1865 -0.1192 1.0657 0.0840 Uiso
C46 C 1.14575(16) -0.1588(2) 1.15602(16) 0.0797 Uani
H38 H 1.1972 -0.1619 1.1768 0.0950 Uiso
C47 C 1.0753(2) -0.1797(2) 1.19153(11) 0.0823 Uani
H39 H 1.0796 -0.1968 1.2361 0.0990 Uiso
C48 C 0.99849(17) -0.17503(18) 1.16045(12) 0.0663 Uani
H40 H 0.9514 -0.1890 1.1842 0.0800 Uiso
Mn1 Mn 0.89764(3) 0.42820(2) 0.89729(2) 0.0303 Uani
Cu1 Cu 1.21909(3) 0.06905(3) 0.84918(2) 0.0394 Uani
Cu2 Cu 1.02992(3) 0.14915(2) 0.80037(2) 0.0380 Uani
Cu3 Cu 1.15529(3) 0.21203(2) 0.93119(2) 0.0369 Uani
Br1 Br 1.25342(3) 0.21412(3) 0.81867(2) 0.0617 Uani
C49 C 1.19044(18) 0.00419(18) 0.72530(16) 0.0373 Uani
C50 C 1.3072(2) 0.04132(17) 0.96584(16) 0.0370 Uani
C51 C 1.04316(19) 0.32496(16) 0.93090(14) 0.0347 Uani
C52 C 1.10361(17) 0.01833(15) 0.75560(13) 0.0313 Uani
C53 C 1.23289(17) 0.08820(16) 0.99120(14) 0.0328 Uani
C54 C 0.99982(18) 0.26012(15) 0.89265(13) 0.0308 Uani
C55 C 1.04059(17) 0.04489(15) 0.70240(14) 0.0305 Uani
C56 C 1.26523(18) 0.16124(16) 1.02328(14) 0.0337 Uani
C57 C 0.96466(17) 0.28523(16) 0.82296(13) 0.0322 Uani
O1 O 1.25021(15) 0.02169(18) 0.76334(13) 0.0530 Uani
O2 O 1.31097(15) 0.02859(16) 0.90225(12) 0.0481 Uani
O3 O 1.11758(16) 0.31326(13) 0.94798(14) 0.0475 Uani
O4 O 0.9224(3) 0.0899(2) 0.8705(2) 0.0840 Uani
O5 O 1.19786(14) -0.02498(15) 0.66752(12) 0.0441 Uani
O6 O 1.35823(16) 0.01820(15) 1.00834(12) 0.0486 Uani
O7 O 1.00468(16) 0.38227(13) 0.94433(12) 0.0428 Uani
O8 O 1.10919(12) 0.06984(12) 0.80730(10) 0.0350 Uani
O9 O 1.17896(12) 0.10389(11) 0.93875(10) 0.0337 Uani
O10 O 1.05352(13) 0.20206(11) 0.88267(10) 0.0346 Uani
O11 O 1.07532(16) -0.04924(12) 0.78531(11) 0.0422 Uani
H41 H 1.0702 -0.0809 0.7556 0.0630 Uiso
O12 O 1.18996(15) 0.04772(15) 1.04208(12) 0.0461 Uani
H42 H 1.2214 0.0382 1.0736 0.0690 Uiso
O13 O 0.93322(15) 0.23390(12) 0.93303(12) 0.0431 Uani
H43 H 0.8996 0.2675 0.9384 0.0650 Uiso
O14 O 1.02861(14) 0.00813(12) 0.64980(11) 0.0391 Uani
O15 O 1.31553(15) 0.15754(13) 1.07128(12) 0.0444 Uani
O16 O 0.92983(15) 0.34618(12) 0.81659(10) 0.0388 Uani
O17 O 0.99971(17) 0.10187(14) 0.71568(12) 0.0465 Uani
O18 O 1.23934(16) 0.22142(13) 1.00068(13) 0.0481 Uani
O19 O 0.9711(2) 0.23926(15) 0.77542(13) 0.0573 Uani
Mn1B Mn 1.10236(3) -0.07180(2) 0.60271(2) 0.0303 Uani
Mn1C Mn 1.39764(3) 0.07180(2) 1.10271(2) 0.0303 Uani
O5B O 0.80214(14) 0.47502(15) 0.83248(12) 0.0441 Uani
O6C O 0.85823(16) 0.48180(15) 0.99166(12) 0.0486 Uani
O14B O 0.97139(14) 0.50813(12) 0.85020(11) 0.0391 Uani
O15C O 0.81553(15) 0.34246(13) 0.92872(12) 0.0444 Uani
O20 O 1.0426(3) -0.0157(3) 0.92720(19) 0.0947 Uani
loop_
_atom_site_aniso_label
_atom_site_aniso_U_11
_atom_site_aniso_U_22
_atom_site_aniso_U_33
_atom_site_aniso_U_23
_atom_site_aniso_U_13
_atom_site_aniso_U_12
P1 0.0398(4) 0.0471(4) 0.0434(4) -0.0010(3) 0.0037(3) -0.0018(3)
C1 0.0426(15) 0.0511(17) 0.0422(15) -0.0025(14) 0.0016(13) -0.0030(14)
C2 0.068(2) 0.052(2) 0.0500(19) -0.0045(15) -0.0011(17) 0.0008(17)
C3 0.083(3) 0.054(2) 0.061(2) 0.0050(18) -0.010(2) -0.003(2)
C4 0.071(3) 0.078(3) 0.057(2) 0.011(2) 0.000(2) -0.011(2)
C5 0.063(2) 0.108(4) 0.047(2) 0.003(2) 0.0156(18) 0.006(3)
C6 0.056(2) 0.071(3) 0.053(2) -0.0030(18) 0.0111(17) 0.0098(18)
C7 0.0460(17) 0.0519(19) 0.0548(19) 0.0016(15) 0.0090(15) -0.0009(15)
C8 0.062(2) 0.067(2) 0.0476(18) -0.0027(18) 0.0047(16) 0.006(2)
C9 0.082(3) 0.080(3) 0.051(2) 0.0021(19) 0.019(2) 0.014(2)
C10 0.075(3) 0.080(3) 0.097(4) 0.001(3) 0.040(3) 0.002(3)
C11 0.047(2) 0.084(3) 0.135(5) -0.011(4) 0.014(3) -0.011(2)
C12 0.056(2) 0.072(3) 0.087(3) -0.022(2) 0.012(2) -0.011(2)
C13 0.0420(16) 0.0473(17) 0.0513(17) 0.0040(14) -0.0004(13) 0.0004(13)
C14 0.067(3) 0.071(3) 0.082(3) 0.028(2) -0.023(2) -0.016(2)
C15 0.065(3) 0.074(3) 0.078(3) 0.015(2) -0.027(2) 0.001(2)
C16 0.059(2) 0.068(3) 0.086(3) -0.001(2) -0.024(2) -0.001(2)
C17 0.112(5) 0.092(4) 0.134(6) 0.043(4) -0.058(5) -0.055(4)
C18 0.100(4) 0.083(3) 0.094(4) 0.038(3) -0.042(3) -0.043(3)
C19 0.057(2) 0.0510(19) 0.0531(19) -0.0027(16) 0.0022(16) 0.0039(16)
C20 0.064(3) 0.064(3) 0.086(3) -0.003(2) 0.007(2) 0.008(2)
C21 0.099(4) 0.076(3) 0.080(3) -0.007(3) 0.008(3) 0.034(3)
C22 0.152(7) 0.060(3) 0.085(4) -0.020(3) -0.004(4) 0.022(4)
C23 0.116(5) 0.058(3) 0.121(5) -0.026(3) -0.008(4) -0.004(3)
C24 0.078(3) 0.055(2) 0.096(4) -0.011(2) 0.001(3) -0.008(2)
P2 0.0500(4) 0.0465(4) 0.0404(4) 0.0001(3) -0.0018(3) 0.0074(3)
C25 0.0458(18) 0.069(2) 0.0479(18) -0.0095(16) -0.0079(15) 0.0108(16)
C26 0.087(3) 0.091(3) 0.044(2) 0.001(2) -0.006(2) 0.025(3)
C27 0.092(4) 0.125(5) 0.045(2) -0.011(3) -0.015(2) 0.028(4)
C28 0.085(4) 0.149(6) 0.063(3) -0.046(3) -0.020(3) 0.053(4)
C29 0.123(6) 0.119(5) 0.091(4) -0.053(4) -0.042(4) 0.066(5)
C30 0.097(4) 0.101(4) 0.065(3) -0.023(3) -0.025(3) 0.045(3)
C31 0.060(2) 0.0493(18) 0.0418(16) 0.0054(13) 0.0028(14) 0.0097(15)
C32 0.069(3) 0.056(2) 0.084(3) 0.007(2) 0.004(2) 0.002(2)
C33 0.098(4) 0.055(3) 0.114(5) 0.015(3) 0.013(4) -0.007(3)
C34 0.109(4) 0.055(2) 0.087(3) 0.022(2) 0.021(3) 0.020(3)
C35 0.078(3) 0.062(3) 0.065(2) 0.0073(19) 0.000(2) 0.023(2)
C36 0.063(2) 0.057(2) 0.061(2) -0.0043(18) -0.0037(19) 0.0061(18)
C37 0.061(2) 0.056(2) 0.055(2) 0.0070(17) 0.0046(18) 0.0059(17)
C38 0.075(3) 0.083(3) 0.050(2) -0.003(2) 0.006(2) 0.001(2)
C39 0.083(4) 0.119(5) 0.062(3) 0.003(3) 0.022(3) -0.007(3)
C40 0.098(5) 0.109(5) 0.099(4) 0.031(4) 0.038(4) -0.006(4)
C41 0.123(6) 0.072(4) 0.144(7) 0.023(4) 0.038(5) -0.009(4)
C42 0.090(4) 0.056(2) 0.100(4) 0.001(2) 0.019(3) 0.004(2)
C43 0.063(2) 0.0431(16) 0.0453(16) -0.0022(14) -0.0126(15) 0.0082(15)
C44 0.062(2) 0.061(2) 0.064(2) 0.0080(19) -0.0078(19) 0.0085(18)
C45 0.060(2) 0.064(3) 0.087(3) -0.007(2) -0.013(2) 0.002(2)
C46 0.081(3) 0.078(3) 0.080(3) -0.018(3) -0.039(3) 0.018(3)
C47 0.097(4) 0.098(4) 0.052(2) 0.003(2) -0.023(3) 0.031(3)
C48 0.086(3) 0.067(2) 0.0458(19) 0.0068(17) -0.008(2) 0.018(2)
Mn1 0.0325(2) 0.03002(19) 0.02833(18) 0.00470(15) 0.00641(15) 0.00081(16)
Cu1 0.03180(19) 0.0551(3) 0.03116(19) -0.01126(18) -0.00672(15) 0.00653(18)
Cu2 0.0479(2) 0.0350(2) 0.03124(19) -0.00849(16) -0.00660(17) 0.01102(18)
Cu3 0.0364(2) 0.0335(2) 0.0409(2) -0.00340(17) -0.01299(17) 0.00322(16)
Br1 0.0728(3) 0.0568(2) 0.0555(2) 0.00825(17) 0.02274(19) 0.00186(19)
C49 0.0287(12) 0.0455(15) 0.0376(14) -0.0090(12) -0.0001(11) 0.0026(11)
C50 0.0371(14) 0.0382(14) 0.0358(14) -0.0031(11) -0.0090(11) 0.0017(11)
C51 0.0398(14) 0.0329(13) 0.0314(12) -0.0022(10) -0.0002(11) 0.0021(11)
C52 0.0342(12) 0.0321(12) 0.0275(11) -0.0046(10) -0.0016(10) 0.0019(10)
C53 0.0321(13) 0.0376(14) 0.0288(12) 0.0006(10) -0.0048(10) -0.0040(10)
C54 0.0349(12) 0.0286(12) 0.0289(12) 0.0006(9) 0.0013(10) 0.0024(10)
C55 0.0293(12) 0.0320(12) 0.0301(12) -0.0012(10) -0.0001(10) 0.0005(9)
C56 0.0341(13) 0.0354(13) 0.0316(12) -0.0021(10) -0.0036(10) 0.0000(10)
C57 0.0344(12) 0.0331(12) 0.0290(11) -0.0005(10) 0.0027(10) 0.0031(10)
O1 0.0336(10) 0.0803(18) 0.0450(12) -0.0249(12) -0.0057(10) 0.0057(11)
O2 0.0410(11) 0.0681(15) 0.0353(10) -0.0101(10) -0.0107(9) 0.0169(11)
O3 0.0458(12) 0.0380(11) 0.0588(14) -0.0094(10) -0.0174(11) 0.0038(9)
O4 0.087(2) 0.088(3) 0.077(2) -0.0247(19) 0.0169(19) -0.026(2)
O5 0.0326 0.0612 0.0385 -0.0193 0.003 -0.0006
O6 0.0532(13) 0.0514(13) 0.0413(11) -0.0111(10) -0.0206(10) 0.0152(11)
O7 0.0516(12) 0.0346(10) 0.0423(11) -0.0090(9) -0.0056(10) 0.0084(9)
O8 0.0306(9) 0.0403(10) 0.0340(9) -0.0126(8) -0.0063(7) 0.0056(8)
O9 0.0324(9) 0.0375(10) 0.0313(9) -0.0032(8) -0.0074(8) 0.0026(7)
O10 0.0335(9) 0.0343(10) 0.0361(9) -0.0086(7) -0.0065(7) 0.0080(8)
O11 0.0594(13) 0.0372(11) 0.0301(9) 0.0007(8) 0.0041(9) -0.0024(9)
O12 0.0422(11) 0.0564(13) 0.0397(11) 0.0123(10) -0.0011(9) -0.0119(10)
O13 0.0485(12) 0.0348(10) 0.0460(11) 0.0039(9) 0.0178(10) 0.0000(9)
O14 0.0415(10) 0.0438(11) 0.0319(9) -0.0130(8) -0.0088(8) 0.0096(9)
O15 0.0496(12) 0.0400(11) 0.0437(11) -0.0048(9) -0.0208(10) 0.0030(9)
O16 0.0500(12) 0.0342(10) 0.0322(9) 0.0023(8) 0.0020(8) 0.0096(9)
O17 0.0559(13) 0.0456(12) 0.0379(11) -0.0124(9) -0.0121(10) 0.0180(10)
O18 0.0529(13) 0.0382(11) 0.0533(12) -0.0045(10) -0.0236(11) 0.0012(10)
O19 0.087(2) 0.0491(13) 0.0359(11) -0.0093(10) -0.0181(12) 0.0290(14)
Mn1B 0.0325 0.03002 0.02833 -0.0047 0.00641 -0.00081
Mn1C 0.0325 0.03002 0.02833 0.0047 -0.00641 -0.00081
O5B 0.0326 0.0612 0.0385 0.0193 0.003 0.0006
O6C 0.0532 0.0514 0.0413 -0.0111 0.0206 -0.0152
O14B 0.0415 0.0438 0.0319 0.013 -0.0088 -0.0096
O15C 0.0496 0.04 0.0437 -0.0048 0.0208 -0.003
O20 0.119(3) 0.109(3) 0.0560(18) 0.0075(19) 0.017(2) -0.035(3)
loop_
_geom_bond_atom_site_label_1
_geom_bond_atom_site_label_2
_geom_bond_site_symmetry_1
_geom_bond_site_symmetry_2
P1 C1 1_555 1_555
C1 C2 1_555 1_555
C2 H1 1_555 1_555
C3 C2 1_555 1_555
H2 C3 1_555 1_555
C4 C3 1_555 1_555
H3 C4 1_555 1_555
C5 C4 1_555 1_555
H4 C5 1_555 1_555
C6 C1 1_555 1_555
H5 C6 1_555 1_555
C7 P1 1_555 1_555
C8 C7 1_555 1_555
H6 C8 1_555 1_555
C9 C8 1_555 1_555
H7 C9 1_555 1_555
C10 C9 1_555 1_555
H8 C10 1_555 1_555
C11 C10 1_555 1_555
H9 C11 1_555 1_555
C12 C7 1_555 1_555
H10 C12 1_555 1_555
C13 P1 1_555 1_555
C14 C13 1_555 1_555
H11 C14 1_555 1_555
C15 C14 1_555 1_555
H12 C15 1_555 1_555
C16 C15 1_555 1_555
H13 C16 1_555 1_555
C17 C16 1_555 1_555
H14 C17 1_555 1_555
C18 C13 1_555 1_555
H15 C18 1_555 1_555
C19 P1 1_555 1_555
C20 C19 1_555 1_555
H16 C20 1_555 1_555
C21 C20 1_555 1_555
H17 C21 1_555 1_555
C22 C21 1_555 1_555
H18 C22 1_555 1_555
C23 C22 1_555 1_555
H19 C23 1_555 1_555
C24 C19 1_555 1_555
H20 C24 1_555 1_555
P2 C25 1_555 1_555
C25 C26 1_555 1_555
C26 H21 1_555 1_555
C27 C26 1_555 1_555
H22 C27 1_555 1_555
C28 C27 1_555 1_555
H23 C28 1_555 1_555
C29 C28 1_555 1_555
H24 C29 1_555 1_555
C30 C25 1_555 1_555
H25 C30 1_555 1_555
C31 P2 1_555 1_555
C32 C31 1_555 1_555
H26 C32 1_555 1_555
C33 C32 1_555 1_555
H27 C33 1_555 1_555
C34 C33 1_555 1_555
H28 C34 1_555 1_555
C35 C34 1_555 1_555
H29 C35 1_555 1_555
C36 C31 1_555 1_555
H30 C36 1_555 1_555
C37 P2 1_555 1_555
C38 C37 1_555 1_555
H31 C38 1_555 1_555
C39 C38 1_555 1_555
H32 C39 1_555 1_555
C40 C39 1_555 1_555
H33 C40 1_555 1_555
C41 C40 1_555 1_555
H34 C41 1_555 1_555
C42 C37 1_555 1_555
H35 C42 1_555 1_555
C43 P2 1_555 1_555
C44 C43 1_555 1_555
H36 C44 1_555 1_555
C45 C44 1_555 1_555
H37 C45 1_555 1_555
C46 C45 1_555 1_555
H38 C46 1_555 1_555
C47 C46 1_555 1_555
H39 C47 1_555 1_555
C48 C43 1_555 1_555
H40 C48 1_555 1_555
Mn1 O7 1_555 1_555
Cu1 Br1 1_555 1_555
Cu2 O4 1_555 1_555
Cu3 Br1 1_555 1_555
C49 C52 1_555 1_555
C50 C53 1_555 1_555
C51 C54 1_555 1_555
C52 C55 1_555 1_555
C53 C56 1_555 1_555
C54 C57 1_555 1_555
C55 O14 1_555 1_555
C56 O15 1_555 1_555
C57 O16 1_555 1_555
O1 Cu1 1_555 1_555
O2 Cu1 1_555 1_555
O3 Cu3 1_555 1_555
O5 C49 1_555 1_555
O6 C50 1_555 1_555
O7 C51 1_555 1_555
O8 Cu1 1_555 1_555
O9 Cu1 1_555 1_555
O10 Cu2 1_555 1_555
O11 C52 1_555 1_555
H41 O11 1_555 1_555
O12 C53 1_555 1_555
H42 O12 1_555 1_555
O13 C54 1_555 1_555
H43 O13 1_555 1_555
O14 Mn1B 1_555 1_555
O15 Mn1C 1_555 1_555
O16 Mn1 1_555 1_555
O17 Cu2 1_555 1_555
O18 Cu3 1_555 1_555
O19 Cu2 1_555 1_555
Mn1B O5 1_555 1_555
Mn1C O6 1_555 1_555
O5B Mn1 1_555 1_555
O6C Mn1 1_555 1_555
O14B Mn1 1_555 1_555
O15C Mn1 1_555 1_555
C5 C6 1_555 1_555
C11 C12 1_555 1_555
C17 C18 1_555 1_555
C23 C24 1_555 1_555
C29 C30 1_555 1_555
C35 C36 1_555 1_555
C41 C42 1_555 1_555
C47 C48 1_555 1_555
Cu2 O8 1_555 1_555
Cu3 O9 1_555 1_555
Cu3 O10 1_555 1_555
C49 O1 1_555 1_555
C50 O2 1_555 1_555
C51 O3 1_555 1_555
C52 O8 1_555 1_555
C53 O9 1_555 1_555
C54 O10 1_555 1_555
C55 O17 1_555 1_555
C56 O18 1_555 1_555
C57 O19 1_555 1_555

#END
