
#######################################################################
#
#                 Cambridge Crystallographic Data Centre
#                                CCDC 
#
#######################################################################
#
# If this CIF has been generated from an entry in the Cambridge 
# Structural Database, then it will include bibliographic, chemical, 
# crystal, experimental, refinement or atomic coordinate data resulting 
# from the CCDC's data processing and validation procedures.
#
#######################################################################

data_COCMAJ
_chemical_formula_moiety         '(C68 H100 Cl4 N4 O30 Pd2 Zn4)n'
_symmetry_cell_setting           orthorhombic
_symmetry_space_group_name_H-M   'P 21 21 21'
_symmetry_Int_Tables_number      19
_space_group_name_Hall           'P 2ac 2ab'
loop_
_symmetry_equiv_pos_site_id
_symmetry_equiv_pos_as_xyz
1 x,y,z
2 1/2-x,-y,1/2+z
3 1/2+x,1/2-y,-z
4 -x,1/2+y,1/2-z
_cell_length_a                   13.5100(1)
_cell_length_b                   27.3700(2)
_cell_length_c                   27.9910(3)
_cell_angle_alpha                90
_cell_angle_beta                 90
_cell_angle_gamma                90
_cell_volume                     10350.2
loop_
_atom_site_label
_atom_site_type_symbol
_atom_site_fract_x
_atom_site_fract_y
_atom_site_fract_z
Pd1 Pd 0.06508(4) 0.36275(2) 1.00432(2)
Pd2 Pd -0.79978(4) 0.71132(2) 0.88543(2)
Zn1 Zn -0.38402(6) 0.49630(3) 0.95858(3)
Zn2 Zn 0.40809(6) 0.53620(3) 1.02705(3)
Zn3 Zn -0.26001(6) 0.31300(3) 1.25520(3)
Zn4 Zn -0.06382(6) 0.23522(3) 1.21517(3)
Cl1 Cl 0.15236(19) 0.36782(14) 1.07548(9)
Cl2 Cl -0.02173(19) 0.35961(14) 0.93409(9)
Cl3 Cl -0.88307(17) 0.63890(9) 0.89416(12)
Cl4 Cl -0.7181(2) 0.78374(11) 0.87548(14)
O1 O -0.0878(4) 0.2929(2) 1.1690(2)
O2 O -0.2252(4) 0.3352(2) 1.18889(19)
O3 O -0.2938(5) 0.4502(2) 0.9957(2)
O4 O -0.3543(5) 0.4570(3) 1.0691(2)
O5 O -0.4510(4) 0.5491(2) 0.91934(19)
O6 O -0.5969(4) 0.5579(2) 0.95716(19)
O7 O -0.3686(4) 0.6673(2) 0.7889(2)
O8 O -0.4849(4) 0.7231(2) 0.7703(2)
O9 O 0.3939(4) 0.3122(2) 0.8379(2)
O10 O 0.2336(5) 0.2918(3) 0.8410(3)
O11 O 0.5021(4) 0.4462(2) 0.9530(2)
O12 O 0.3945(5) 0.4643(2) 1.01117(19)
O13 O 0.3268(4) 0.7890(2) 1.1832(2)
O14 O 0.2693(5) 0.7126(3) 1.1775(2)
O15 O 0.5783(5) 0.6206(3) 1.0346(3)
O16 O 0.4184(4) 0.6062(2) 1.0506(2)
O17 O -0.3286(5) 0.4667(3) 0.8931(2)
O18 O -0.2576(5) 0.5478(3) 0.9599(3)
O19 O 0.4013(6) 0.5152(3) 1.1016(2)
O20 O 0.2508(4) 0.5423(3) 1.0304(2)
O21 O -0.3124(6) 0.3850(3) 1.2711(2)
O22 O -0.4041(5) 0.2974(3) 1.2243(3)
O23 O -0.0535(5) 0.1717(3) 1.2615(3)
O24 O 0.0805(4) 0.2248(3) 1.1951(2)
O27 O -0.4364(4) 0.52780(19) 1.02443(18)
O28 O -0.2118(4) 0.2410(2) 1.2396(2)
N1 N -0.0617(5) 0.3655(3) 1.0424(2)
N2 N 0.1942(5) 0.3650(3) 0.9679(2)
N3 N -0.6709(5) 0.6744(3) 0.8740(2)
N4 N 0.5725(5) 0.7503(3) 1.1056(2)
C1 C -0.0726(6) 0.3418(3) 1.0839(3)
H1 H -0.0230 0.3190 1.0930
C2 C -0.1523(6) 0.3488(3) 1.1141(3)
C3 C -0.2260(6) 0.3817(3) 1.1005(3)
H2 H -0.2804 0.3883 1.1210
C4 C -0.2181(6) 0.4045(3) 1.0565(3)
C5 C -0.1360(6) 0.3957(3) 1.0277(3)
H3 H -0.1316 0.4110 0.9974
C6 C -0.1566(6) 0.3227(3) 1.1615(3)
C7 C -0.2963(6) 0.4406(3) 1.0387(3)
C8 C -0.6467(6) 0.6365(3) 0.9006(3)
H4 H -0.6911 0.6257 0.9246
C9 C -0.5564(5) 0.6120(3) 0.8941(3)
C10 C -0.4944(6) 0.6271(3) 0.8596(3)
H5 H -0.4337 0.6103 0.8545
C11 C -0.5185(5) 0.6671(3) 0.8315(3)
C12 C -0.6092(6) 0.6901(3) 0.8395(3)
H6 H -0.6276 0.7172 0.8204
C13 C -0.5312(6) 0.5694(3) 0.9265(3)
C14 C -0.4523(6) 0.6876(3) 0.7931(3)
C15 C 0.2650(6) 0.3964(3) 0.9818(3)
H7 H 0.2541 0.4153 1.0098
C16 C 0.3527(6) 0.4022(3) 0.9574(3)
C17 C 0.3704(6) 0.3748(3) 0.9170(3)
H8 H 0.4308 0.3779 0.8999
C18 C 0.2972(6) 0.3421(3) 0.9019(3)
C19 C 0.2100(7) 0.3380(3) 0.9269(3)
H9 H 0.1600 0.3164 0.9158
C20 C 0.3093(7) 0.3130(4) 0.8563(3)
C21 C 0.4243(6) 0.4407(3) 0.9754(2)
C22 C 0.4931(6) 0.7635(3) 1.1313(3)
H10 H 0.4944 0.7932 1.1489
C23 C 0.4081(6) 0.7340(3) 1.1324(3)
C24 C 0.4076(6) 0.6912(3) 1.1065(3)
H11 H 0.3516 0.6702 1.1073
C25 C 0.4890(6) 0.6791(3) 1.0792(3)
C26 C 0.5712(6) 0.7098(3) 1.0803(3)
H12 H 0.6281 0.7013 1.0622
C27 C 0.3255(6) 0.7467(3) 1.1670(3)
C28 C 0.4952(6) 0.6314(3) 1.0526(3)
C29 C -0.2683(17) 0.4244(8) 0.8911(7)
H13 H -0.2941 0.3990 0.9130
H14 H -0.1997 0.4324 0.9007
C30 C -0.271(2) 0.4054(10) 0.8373(9)
H15 H -0.2148 0.4186 0.8186
H16 H -0.2696 0.3692 0.8359
C31 C -0.3654(19) 0.4246(9) 0.8201(8)
H17 H -0.4174 0.3993 0.8221
H18 H -0.3593 0.4353 0.7864
C32 C -0.3903(11) 0.4664(6) 0.8511(4)
H19 H -0.3808 0.4973 0.8332
H20 H -0.4607 0.4643 0.8606
C33 C -0.153(2) 0.5383(9) 0.9673(11)
H21 H -0.1194 0.5303 0.9369
H22 H -0.1429 0.5112 0.9902
C34 C -0.116(2) 0.5865(10) 0.988(2)
H23 H -0.1316 0.5893 1.0222
H24 H -0.0444 0.5905 0.9828
C35 C -0.1740(16) 0.6228(6) 0.9591(10)
H25 H -0.1916 0.6515 0.9790
H26 H -0.1349 0.6341 0.9313
C36 C -0.2631(12) 0.5971(6) 0.9433(6)
H27 H -0.3228 0.6133 0.9564
H28 H -0.2675 0.5977 0.9080
C37 C 0.3999(19) 0.5476(7) 1.1414(5)
H29 H 0.3494 0.5733 1.1365
H30 H 0.4652 0.5635 1.1451
C38 C 0.376(2) 0.5191(9) 1.1847(8)
H31 H 0.3048 0.5114 1.1873
H32 H 0.3997 0.5350 1.2143
C39 C 0.437(3) 0.4759(10) 1.1713(8)
H33 H 0.4169 0.4471 1.1905
H34 H 0.5077 0.4825 1.1770
C40 C 0.4181(17) 0.4668(6) 1.1190(6)
H35 H 0.4762 0.4516 1.1034
H36 H 0.3593 0.4457 1.1140
C41 C 0.1837(15) 0.5299(10) 0.9925(7)
H37 H 0.2129 0.5033 0.9729
H38 H 0.1741 0.5586 0.9715
C42 C 0.0869(18) 0.5138(13) 1.0112(9)
H39 H 0.0314 0.5253 0.9909
H40 H 0.0834 0.4779 1.0147
C43 C 0.0888(17) 0.5386(11) 1.0573(9)
H41 H 0.0418 0.5239 1.0803
H42 H 0.0756 0.5740 1.0543
C44 C 0.1924(19) 0.5284 1.0700(9)
H43 H 0.2117 0.5474 1.0987
H44 H 0.2014 0.4932 1.0769
C45 C -0.304(2) 0.4060(8) 1.3162(6)
H45 H -0.2335 0.4123 1.3235
H46 H -0.3305 0.3834 1.3406
C46 C -0.360(2) 0.4523(10) 1.3174(8)
H47 H -0.3162 0.4796 1.3274
H48 H -0.4159 0.4500 1.3399
C47 C -0.396(3) 0.4600(12) 1.2682(9)
H49 H -0.3769 0.4929 1.2566
H50 H -0.4685 0.4567 1.2667
C48 C -0.347(2) 0.4214(8) 1.2392(7)
H51 H -0.3944 0.4072 1.2163
H52 H -0.2906 0.4354 1.2211
C49 C -0.1136(11) 0.1282(4) 1.2586(5)
H53 H -0.0808 0.1034 1.2383
H54 H -0.1790 0.1359 1.2446
C50 C -0.1250(15) 0.1100(6) 1.3068(6)
H55 H -0.1820 0.1256 1.3230
H56 H -0.1339 0.0741 1.3071
C51 C -0.032(2) 0.1239(8) 1.3288(8)
H57 H -0.0405 0.1276 1.3638
H58 H 0.0192 0.0991 1.3225
C52 C -0.0065(19) 0.1699(6) 1.3071(6)
H59 H -0.0294 0.1974 1.3273
H60 H 0.0662 0.1724 1.3034
Pd2B Pd 0.70022(4) 0.78868(2) 1.11457(2)
Zn1_2 Zn 0.61598(6) 0.49630(3) 0.95858(3)
Zn2_2 Zn -0.59191(6) 0.53620(3) 1.02705(3)
Zn3A Zn -0.23999(6) 0.68700(3) 0.75520(3)
Zn3C Zn 0.26001(6) 0.81300(3) 1.24480(3)
Zn4A Zn -0.43618(6) 0.76478(3) 0.71517(3)
Zn4B Zn 0.43618(6) 0.26478(3) 0.78483(3)
O6_2 O 0.4031(4) 0.5579(2) 0.95716(19)
O7A O -0.1314(4) 0.3327(2) 1.2889(2)
O8A O -0.0151(4) 0.2769(2) 1.2703(2)
O9B O -0.1061(4) 0.1878(2) 1.1621(2)
O11_2 O -0.4979(4) 0.4462(2) 0.9530(2)
O13C O -0.3268(4) 0.2890(2) 1.3168(2)
O27_2 O 0.5636(4) 0.52780(19) 1.02443(18)
N4B N -0.9275(5) 0.7497(3) 0.8944(2)
O25 O 0.3488(11) 0.7898(9) 0.6055(5)
C53 C 0.395(2) 0.7909(13) 0.5596(8)
H61 H 0.4377 0.7620 0.5545
H62 H 0.4340 0.8211 0.5550
C54 C 0.3080(19) 0.7898(12) 0.5284(11)
H63 H 0.2864 0.8237 0.5217
H64 H 0.3260 0.7743 0.4976
C55 C 0.228(2) 0.7633(11) 0.5499(8)
H65 H 0.1628 0.7776 0.5417
H66 H 0.2288 0.7283 0.5408
C56 C 0.2511(17) 0.7699(10) 0.5996(9)
H67 H 0.2468 0.7381 0.6163
H68 H 0.2021 0.7922 0.6142
O26 O 0.2846(15) 0.7068(8) 0.7207(10)
C57 C 0.288(3) 0.6552(11) 0.718(2)
H69 H 0.3581 0.6452 0.7232
H70 H 0.2696 0.6453 0.6856
C58 C 0.227(3) 0.6268(11) 0.7520(15)
H71 H 0.2103 0.5940 0.7393
H72 H 0.2585 0.6235 0.7837
C59 C 0.141(3) 0.6590(11) 0.7533(15)
H73 H 0.0916 0.6505 0.7284
H74 H 0.1080 0.6587 0.7850
C60 C 0.1891(15) 0.7054(8) 0.7436(8)
H75 H 0.1433 0.7249 0.7236
H76 H 0.1957 0.7227 0.7744
O29 O 0.3879(19) 0.5229(9) 0.7168(9)
C61 C 0.432(3) 0.5251(13) 0.6782(12)
H77 H 0.3868 0.5336 0.6516
H78 H 0.4674 0.4944 0.6707
C62 C 0.508(3) 0.5699(12) 0.6916(11)
H79 H 0.5710 0.5686 0.6737
H80 H 0.4772 0.6027 0.6888
C63 C 0.518(3) 0.5512(16) 0.7460(15)
H81 H 0.5838 0.5366 0.7508
H82 H 0.5115 0.5795 0.7679
C64 C 0.465(3) 0.5261(15) 0.7543(14)
H83 H 0.4336 0.5352 0.7851
H84 H 0.4965 0.4938 0.7584
O30 O 0.971(2) 0.6885(8) 0.6375(6)
C65 C 1.014(2) 0.6483(10) 0.6203(9)
H85 H 0.9650 0.6214 0.6201
H86 H 1.0685 0.6387 0.6421
C66 C 1.054(2) 0.6541(11) 0.5728(8)
H87 H 1.1203 0.6690 0.5729
H88 H 1.0554 0.6228 0.5550
C67 C 0.980(3) 0.6865(14) 0.5547(6)
H89 H 0.9236 0.6680 0.5413
H90 H 1.0080 0.7077 0.5295
C68 C 0.949(3) 0.7154(15) 0.5960(13)
H91 H 0.9848 0.7470 0.5965
H92 H 0.8771 0.7222 0.5943
loop_
_geom_bond_atom_site_label_1
_geom_bond_atom_site_label_2
_geom_bond_site_symmetry_1
_geom_bond_site_symmetry_2
Pd1 Cl1 1_555 1_555
Pd2 Cl3 1_555 1_555
Zn1 O3 1_555 1_555
Zn2 O12 1_555 1_555
Zn3 O2 1_555 1_555
Zn4 O1 1_555 1_555
Cl2 Pd1 1_555 1_555
Cl4 Pd2 1_555 1_555
O1 C6 1_555 1_555
O2 C6 1_555 1_555
O3 C7 1_555 1_555
O4 C7 1_555 1_555
O5 Zn1 1_555 1_555
O6 C13 1_555 1_555
O7 C14 1_555 1_555
O8 C14 1_555 1_555
O9 C20 1_555 1_555
O10 C20 1_555 1_555
O11 C21 1_555 1_555
O12 C21 1_555 1_555
O13 C27 1_555 1_555
O14 C27 1_555 1_555
O15 C28 1_555 1_555
O16 Zn2 1_555 1_555
O17 Zn1 1_555 1_555
O18 Zn1 1_555 1_555
O19 Zn2 1_555 1_555
O20 Zn2 1_555 1_555
O21 Zn3 1_555 1_555
O22 Zn3 1_555 1_555
O23 Zn4 1_555 1_555
O24 Zn4 1_555 1_555
O25 C53 1_555 1_555
O26 C57 1_555 1_555
O27 Zn1 1_555 1_555
O28 Zn3 1_555 1_555
O29 C61 1_555 1_555
O30 C65 1_555 1_555
N1 Pd1 1_555 1_555
N2 Pd1 1_555 1_555
N3 Pd2 1_555 1_555
N4 C22 1_555 1_555
C1 N1 1_555 1_555
H1 C1 1_555 1_555
C2 C1 1_555 1_555
C3 C2 1_555 1_555
H2 C3 1_555 1_555
C4 C3 1_555 1_555
C5 N1 1_555 1_555
H3 C5 1_555 1_555
C6 C2 1_555 1_555
C7 C4 1_555 1_555
C8 N3 1_555 1_555
H4 C8 1_555 1_555
C9 C8 1_555 1_555
C10 C9 1_555 1_555
H5 C10 1_555 1_555
C11 C10 1_555 1_555
C12 N3 1_555 1_555
H6 C12 1_555 1_555
C13 O5 1_555 1_555
C14 C11 1_555 1_555
C15 N2 1_555 1_555
H7 C15 1_555 1_555
C16 C15 1_555 1_555
C17 C16 1_555 1_555
H8 C17 1_555 1_555
C18 C17 1_555 1_555
C19 N2 1_555 1_555
H9 C19 1_555 1_555
C20 C18 1_555 1_555
C21 C16 1_555 1_555
C22 H10 1_555 1_555
C23 C22 1_555 1_555
C24 C23 1_555 1_555
H11 C24 1_555 1_555
C25 C24 1_555 1_555
C26 N4 1_555 1_555
H12 C26 1_555 1_555
C27 C23 1_555 1_555
C28 O16 1_555 1_555
C29 O17 1_555 1_555
H13 C29 1_555 1_555
H14 C29 1_555 1_555
C30 C29 1_555 1_555
H15 C30 1_555 1_555
H16 C30 1_555 1_555
C31 C30 1_555 1_555
H17 C31 1_555 1_555
H18 C31 1_555 1_555
C32 O17 1_555 1_555
H19 C32 1_555 1_555
H20 C32 1_555 1_555
C33 O18 1_555 1_555
H21 C33 1_555 1_555
H22 C33 1_555 1_555
C34 C33 1_555 1_555
H23 C34 1_555 1_555
H24 C34 1_555 1_555
C35 C34 1_555 1_555
H25 C35 1_555 1_555
H26 C35 1_555 1_555
C36 O18 1_555 1_555
H27 C36 1_555 1_555
H28 C36 1_555 1_555
C37 O19 1_555 1_555
H29 C37 1_555 1_555
H30 C37 1_555 1_555
C38 C37 1_555 1_555
H31 C38 1_555 1_555
H32 C38 1_555 1_555
C39 C38 1_555 1_555
H33 C39 1_555 1_555
H34 C39 1_555 1_555
C40 O19 1_555 1_555
H35 C40 1_555 1_555
H36 C40 1_555 1_555
C41 O20 1_555 1_555
H37 C41 1_555 1_555
H38 C41 1_555 1_555
C42 C41 1_555 1_555
H39 C42 1_555 1_555
H40 C42 1_555 1_555
C43 C42 1_555 1_555
H41 C43 1_555 1_555
H42 C43 1_555 1_555
C44 O20 1_555 1_555
H43 C44 1_555 1_555
H44 C44 1_555 1_555
C45 O21 1_555 1_555
H45 C45 1_555 1_555
H46 C45 1_555 1_555
C46 C45 1_555 1_555
H47 C46 1_555 1_555
H48 C46 1_555 1_555
C47 C46 1_555 1_555
H49 C47 1_555 1_555
H50 C47 1_555 1_555
C48 O21 1_555 1_555
H51 C48 1_555 1_555
H52 C48 1_555 1_555
C49 O23 1_555 1_555
H53 C49 1_555 1_555
H54 C49 1_555 1_555
C50 C49 1_555 1_555
H55 C50 1_555 1_555
H56 C50 1_555 1_555
C51 C50 1_555 1_555
H57 C51 1_555 1_555
H58 C51 1_555 1_555
C52 O23 1_555 1_555
H59 C52 1_555 1_555
H60 C52 1_555 1_555
C53 H61 1_555 1_555
H62 C53 1_555 1_555
C54 C53 1_555 1_555
H63 C54 1_555 1_555
H64 C54 1_555 1_555
C55 C54 1_555 1_555
H65 C55 1_555 1_555
H66 C55 1_555 1_555
C56 O25 1_555 1_555
H67 C56 1_555 1_555
H68 C56 1_555 1_555
C57 H69 1_555 1_555
H70 C57 1_555 1_555
C58 C57 1_555 1_555
H71 C58 1_555 1_555
H72 C58 1_555 1_555
C59 C58 1_555 1_555
H73 C59 1_555 1_555
H74 C59 1_555 1_555
C60 O26 1_555 1_555
H75 C60 1_555 1_555
H76 C60 1_555 1_555
C61 H77 1_555 1_555
H78 C61 1_555 1_555
C62 C61 1_555 1_555
H79 C62 1_555 1_555
H80 C62 1_555 1_555
C63 C62 1_555 1_555
H81 C63 1_555 1_555
H82 C63 1_555 1_555
C64 O29 1_555 1_555
H83 C64 1_555 1_555
H84 C64 1_555 1_555
C65 H85 1_555 1_555
H86 C65 1_555 1_555
C66 C65 1_555 1_555
H87 C66 1_555 1_555
H88 C66 1_555 1_555
C67 C66 1_555 1_555
H89 C67 1_555 1_555
H90 C67 1_555 1_555
C68 O30 1_555 1_555
H91 C68 1_555 1_555
H92 C68 1_555 1_555
Pd2B N4 1_555 1_555
Zn1_2 O11 1_555 1_555
Zn2_2 O6 1_555 1_555
Zn3A O7 1_555 1_555
Zn3C O13 1_555 1_555
Zn4A O8 1_555 1_555
Zn4B O9 1_555 1_555
O6_2 Zn2 1_555 1_555
O7A Zn3 1_555 1_555
O8A Zn4 1_555 1_555
O9B Zn4 1_555 1_555
O11_2 Zn1 1_555 1_555
O13C Zn3 1_555 1_555
O27_2 Zn2 1_555 1_555
N4B Pd2 1_555 1_555
Zn4 O28 1_555 1_555
O27 Zn2_2 1_555 1_555
C4 C5 1_555 1_555
C9 C13 1_555 1_555
C11 C12 1_555 1_555
C18 C19 1_555 1_555
C25 C26 1_555 1_555
C25 C28 1_555 1_555
C31 C32 1_555 1_555
C35 C36 1_555 1_555
C39 C40 1_555 1_555
C43 C44 1_555 1_555
C47 C48 1_555 1_555
C51 C52 1_555 1_555
C55 C56 1_555 1_555
C59 C60 1_555 1_555
C63 C64 1_555 1_555
C67 C68 1_555 1_555
Zn1_2 O27_2 1_555 1_555

#END
