
#######################################################################
#
#                 Cambridge Crystallographic Data Centre
#                                CCDC 
#
#######################################################################
#
# If this CIF has been generated from an entry in the Cambridge 
# Structural Database, then it will include bibliographic, chemical, 
# crystal, experimental, refinement or atomic coordinate data resulting 
# from the CCDC's data processing and validation procedures.
#
#######################################################################

data_KESGAS
_chemical_formula_moiety         '(C19 H23 Mn1 N3 O10 S1)n'
_symmetry_cell_setting           monoclinic
_symmetry_space_group_name_H-M   'P 21/c'
_symmetry_Int_Tables_number      14
_space_group_name_Hall           '-P 2ybc'
loop_
_symmetry_equiv_pos_site_id
_symmetry_equiv_pos_as_xyz
1 x,y,z
2 -x,1/2+y,1/2-z
3 -x,-y,-z
4 x,1/2-y,1/2+z
_cell_length_a                   11.678(3)
_cell_length_b                   28.005(7)
_cell_length_c                   8.707(2)
_cell_angle_alpha                90
_cell_angle_beta                 104.200(3)
_cell_angle_gamma                90
_cell_volume                     2760.55
loop_
_atom_site_label
_atom_site_type_symbol
_atom_site_fract_x
_atom_site_fract_y
_atom_site_fract_z
Mn1 Mn 0.63432(7) 0.80095(3) 0.80806(9)
S1 S 0.3409(2) 0.88786(6) 0.3989(2)
O1 O 0.5934(4) 0.78673(14) 0.5567(4)
O2 O 0.6298(4) 0.77686(13) 0.3213(4)
O3 O 0.2921(7) 0.8919(2) 0.5326(8)
O4 O 0.2870(8) 0.8584(2) 0.2683(8)
O5 O 0.3697(4) 1.12139(14) 0.2265(5)
O6 O 0.3546(6) 1.08986(17) -0.0121(6)
O7 O 0.6814(4) 0.81759(14) 1.0593(4)
H1 H 0.6395 0.8022 1.1043
H2 H 0.6650 0.8463 1.0641
N1 N 0.4728(8) 0.8698(2) 0.4664(7)
H3 H 0.5034 0.8722 0.5666
N2 N 0.4367(4) 0.80175(16) 0.8002(6)
N3 N -0.1704(5) 0.79957(18) 0.8103(7)
C1 C 0.5937(5) 0.80081(18) 0.4221(6)
C2 C 0.5441(10) 0.8493(3) 0.3684(9)
H4 H 0.6091 0.8708 0.3677
H5 H 0.4964 0.8468 0.2606
C3 C 0.3507(7) 0.9462(2) 0.3220(8)
C4 C 0.3350(9) 0.9852(2) 0.4118(10)
H6 H 0.3205 0.9811 0.5114
C5 C 0.3413(9) 1.0308(2) 0.3496(9)
H7 H 0.3335 1.0574 0.4104
C6 C 0.3587(6) 1.0373(2) 0.2014(7)
C7 C 0.3743(8) 0.9972(2) 0.1131(9)
H8 H 0.3882 1.0010 0.0132
C8 C 0.3689(9) 0.9517(2) 0.1747(9)
H9 H 0.3778 0.9250 0.1152
C9 C 0.3605(6) 1.0864(2) 0.1323(7)
C10 C 0.3926(5) 0.8328(2) 0.8840(8)
H10 H 0.4430 0.8555 0.9427
C11 C 0.2760(6) 0.8332(2) 0.8890(8)
H11 H 0.2495 0.8560 0.9501
C12 C 0.1974(5) 0.8000(2) 0.8040(7)
C13 C 0.2444(6) 0.7683(3) 0.7161(11)
H12 H 0.1961 0.7452 0.6559
C14 C 0.3632(6) 0.7702(3) 0.7162(10)
H13 H 0.3922 0.7484 0.6546
C15 C -0.0914(7) 0.8295(3) 0.8955(12)
H14 H -0.1185 0.8516 0.9581
C16 C 0.0265(6) 0.8304(3) 0.8989(13)
H15 H 0.0761 0.8520 0.9648
C17 C 0.0713(5) 0.8002(2) 0.8069(8)
C18 C -0.0072(7) 0.7691(4) 0.7197(15)
H16 H 0.0174 0.7476 0.6528
C19 C -0.1240(7) 0.7690(4) 0.7293(15)
H17 H -0.1731 0.7454 0.6738
Mn1C Mn 0.63432(7) 0.69905(3) 0.30806(9)
Mn1B Mn 0.36568(7) 1.19905(3) 0.19194(9)
Mn1_2 Mn -0.36568(7) 0.80095(3) 0.80806(9)
O2C O 0.6298(4) 0.72314(13) 0.8213(4)
O5B O 0.6303(4) 0.87861(14) 0.7735(5)
N3_2 N 0.8296(5) 0.79957(18) 0.8103(7)
O8 O 0.170(4) 0.9444(17) 0.749(6)
H18 H 0.2033 0.9285 0.6889
H19 H 0.1879 0.9734 0.7367
O9 O 0.084(6) 0.101(2) 0.557(7)
H20 H 0.0722 0.0795 0.6098
H21 H 0.0667 0.1279 0.5898
O10 O 0.236(3) 0.0408(9) 0.700(3)
H22 H 0.1805 0.0582 0.6536
H23 H 0.2717 0.0558 0.7830
loop_
_geom_bond_atom_site_label_1
_geom_bond_atom_site_label_2
_geom_bond_site_symmetry_1
_geom_bond_site_symmetry_2
Mn1 O1 1_555 1_555
S1 O3 1_555 1_555
O1 C1 1_555 1_555
O2 C1 1_555 1_555
O4 S1 1_555 1_555
O5 C9 1_555 1_555
O6 C9 1_555 1_555
O7 Mn1 1_555 1_555
H1 O7 1_555 1_555
H2 O7 1_555 1_555
N1 S1 1_555 1_555
H3 N1 1_555 1_555
N2 Mn1 1_555 1_555
N3 C15 1_555 1_555
C1 C2 1_555 1_555
C2 N1 1_555 1_555
H4 C2 1_555 1_555
H5 C2 1_555 1_555
C3 S1 1_555 1_555
C4 C3 1_555 1_555
H6 C4 1_555 1_555
C5 C4 1_555 1_555
H7 C5 1_555 1_555
C6 C5 1_555 1_555
C7 C6 1_555 1_555
H8 C7 1_555 1_555
C8 C3 1_555 1_555
H9 C8 1_555 1_555
C9 C6 1_555 1_555
C10 N2 1_555 1_555
H10 C10 1_555 1_555
C11 C10 1_555 1_555
H11 C11 1_555 1_555
C12 C11 1_555 1_555
C13 C12 1_555 1_555
H12 C13 1_555 1_555
C14 N2 1_555 1_555
H13 C14 1_555 1_555
C15 H14 1_555 1_555
C16 C15 1_555 1_555
H15 C16 1_555 1_555
C17 C12 1_555 1_555
C18 C17 1_555 1_555
H16 C18 1_555 1_555
C19 N3 1_555 1_555
H17 C19 1_555 1_555
O8 H18 1_555 1_555
H19 O8 1_555 1_555
O9 H20 1_555 1_555
H21 O9 1_555 1_555
O10 H22 1_555 1_555
H23 O10 1_555 1_555
Mn1C O2 1_555 1_555
Mn1B O5 1_555 1_555
Mn1_2 N3 1_555 1_555
O2C Mn1 1_555 1_555
O5B Mn1 1_555 1_555
N3_2 Mn1 1_555 1_555
C7 C8 1_555 1_555
C13 C14 1_555 1_555
C16 C17 1_555 1_555
C18 C19 1_555 1_555

#END
