
#######################################################################
#
#                 Cambridge Crystallographic Data Centre
#                                CCDC 
#
#######################################################################
#
# If this CIF has been generated from an entry in the Cambridge 
# Structural Database, then it will include bibliographic, chemical, 
# crystal, experimental, refinement or atomic coordinate data resulting 
# from the CCDC's data processing and validation procedures.
#
#######################################################################

data_HOKGUJ
_chemical_formula_moiety         '(C9 H15 Co2 N5 O11)n'
_symmetry_cell_setting           tetragonal
_symmetry_space_group_name_H-M   'I 4/m'
_symmetry_Int_Tables_number      87
_space_group_name_Hall           '-I 4'
loop_
_symmetry_equiv_pos_site_id
_symmetry_equiv_pos_as_xyz
1 x,y,z
2 -y,x,z
3 y,-x,z
4 x,y,-z
5 1/2+x,1/2+y,1/2+z
6 1/2-y,1/2+x,1/2+z
7 1/2+y,1/2-x,1/2+z
8 1/2+x,1/2+y,1/2-z
9 -x,-y,-z
10 y,-x,-z
11 -y,x,-z
12 -x,-y,z
13 1/2-x,1/2-y,1/2-z
14 1/2+y,1/2-x,1/2-z
15 1/2-y,1/2+x,1/2-z
16 1/2-x,1/2-y,1/2+z
_cell_length_a                   16.444(3)
_cell_length_b                   16.444(3)
_cell_length_c                   14.178(5)
_cell_angle_alpha                90
_cell_angle_beta                 90
_cell_angle_gamma                90
_cell_volume                     3833.8
loop_
_atom_site_label
_atom_site_type_symbol
_atom_site_fract_x
_atom_site_fract_y
_atom_site_fract_z
Co1 Co -0.3305(1) 0.3463(1) 0.6073(1)
O1 O -0.2534(9) 0.3166(8) 0.5000
O2 O -0.4215(7) 0.3746(6) 0.2955(6)
O3 O -0.3227(8) 0.5843(7) 0.5000
C1 C -0.323(1) 0.505(1) 0.5000
O4 O -0.3235(7) 0.4684(5) 0.4212(6)
N1 N -0.3263(6) 0.2227(6) 0.3332(7)
C2 C -0.3710(8) 0.1577(9) 0.359(1)
C3 C -0.364(1) 0.087(1) 0.308(1)
C4 C -0.3060(9) 0.081(1) 0.242(1)
N2 N -0.2603(6) 0.1450(6) 0.2173(6)
C5 C -0.2266(7) 0.2859(8) 0.2353(8)
H1 H -0.4649(7) 0.3375(6) 0.3178(6)
H2 H -0.103(1) 0.458(1) 0.175(1)
H3 H -0.2381(9) 0.2675(8) 0.5000
H4 H -0.2020(9) 0.470(1) 0.291(1)
H5 H -0.4270(7) 0.3632(6) 0.2252(6)
H6 H -0.0897(8) 0.3369(9) 0.091(1)
Co1J Co -0.3463(1) 0.6695(1) 0.3927(1)
O3B O -0.4157(7) 0.3227(8) 0.5000
Co1A Co -0.3463(1) 0.6695(1) 0.6073(1)
Co1C Co -0.3305(1) 0.3463(1) 0.3927(1)
O4C O -0.3235(7) 0.4684(5) 0.5788(6)
O2C O -0.4215(7) 0.3746(6) 0.7045(6)
H1C H -0.4649(7) 0.3375(6) 0.6822(6)
H5C H -0.4270(7) 0.3632(6) 0.7748(6)
N1C N -0.3263(6) 0.2227(6) 0.6668(7)
N2O N -0.2397(6) 0.3550(6) 0.7173(6)
Co1O Co -0.1695(1) 0.1537(1) 0.1073(1)
N1L N -0.1737(6) 0.2773(6) 0.1668(7)
C2L C -0.1290(8) 0.3423(9) 0.141(1)
C3L C -0.136(1) 0.413(1) 0.192(1)
C4L C -0.1940(9) 0.419(1) 0.258(1)
N2L N -0.2397(6) 0.3550(6) 0.2827(6)
C5L C -0.2734(7) 0.2141(8) 0.2647(8)
H4L H -0.2980(9) 0.030(1) 0.209(1)
H2L H -0.397(1) 0.042(1) 0.325(1)
H6L H -0.4103(8) 0.1631(9) 0.409(1)
O5 O -0.162(2) 0.803(2) 0.5000
O6 O -0.241(3) 0.941(3) 0.388(4)
N3 N -0.453(3) 0.899(3) 0.5000
O7 O -0.480(2) 0.828(2) 0.5000
O8 O -0.503(2) 0.959(2) 0.5000
O9 O -0.372(2) 0.920(2) 0.5000
loop_
_geom_bond_atom_site_label_1
_geom_bond_atom_site_label_2
_geom_bond_site_symmetry_1
_geom_bond_site_symmetry_2
Co1 O1 1_555 1_555
O1 H3 1_555 1_555
O2 H1 1_555 1_555
O3 C1 1_555 1_555
C1 O4 1_555 1_555
O4 Co1C 1_555 1_555
N1 C2 1_555 1_555
C2 C3 1_555 1_555
C3 C4 1_555 1_555
C4 N2 1_555 1_555
N2 Co1O 1_555 1_555
C5 N1L 1_555 1_555
N3 O7 1_555 1_555
O8 N3 1_555 1_555
O9 N3 1_555 1_555
H2 C3L 1_555 1_555
H4 C4L 1_555 1_555
H5 O2 1_555 1_555
H6 C2L 1_555 1_555
Co1J O3 1_555 1_555
O3B Co1 1_555 1_555
Co1A O3 1_555 1_555
Co1C O1 1_555 1_555
O4C Co1 1_555 1_555
O2C Co1 1_555 1_555
H1C O2C 1_555 1_555
H5C O2C 1_555 1_555
N1C Co1 1_555 1_555
N2O Co1 1_555 1_555
Co1O N1L 1_555 1_555
N1L C2L 1_555 1_555
C2L C3L 1_555 1_555
C3L C4L 1_555 1_555
C4L N2L 1_555 1_555
N2L C5 1_555 1_555
C5L N1 1_555 1_555
H4L C4 1_555 1_555
H2L C3 1_555 1_555
H6L C2 1_555 1_555
O2 Co1C 1_555 1_555
C1 O4C 1_555 1_555
N1 Co1C 1_555 1_555
N2 C5L 1_555 1_555
C5 C5L 1_555 1_555
O3B Co1C 1_555 1_555
Co1C N2L 1_555 1_555

#END
