
#######################################################################
#
#                 Cambridge Crystallographic Data Centre
#                                CCDC 
#
#######################################################################
#
# If this CIF has been generated from an entry in the Cambridge 
# Structural Database, then it will include bibliographic, chemical, 
# crystal, experimental, refinement or atomic coordinate data resulting 
# from the CCDC's data processing and validation procedures.
#
#######################################################################

data_XAKRAE
_chemical_formula_moiety         '(C25 H24 N4 O5 Zn1)n'
_symmetry_cell_setting           hexagonal
_symmetry_space_group_name_H-M   'P 61 2 2'
_symmetry_Int_Tables_number      178
_space_group_name_Hall           'P 61 2 (0 0 5)'
loop_
_symmetry_equiv_pos_site_id
_symmetry_equiv_pos_as_xyz
1 x,y,z
2 -y,x-y,1/3+z
3 -x+y,-x,2/3+z
4 -x,-y,1/2+z
5 y,-x+y,5/6+z
6 x-y,x,1/6+z
7 y,x,1/3-z
8 x-y,-y,-z
9 -x,-x+y,2/3-z
10 -y,-x,5/6-z
11 -x+y,y,1/2-z
12 x,x-y,1/6-z
_cell_length_a                   9.6491(2)
_cell_length_b                   9.6491(2)
_cell_length_c                   48.258(2)
_cell_angle_alpha                90
_cell_angle_beta                 90
_cell_angle_gamma                120
_cell_volume                     3891.11
loop_
_atom_site_label
_atom_site_type_symbol
_atom_site_fract_x
_atom_site_fract_y
_atom_site_fract_z
Zn1 Zn 0.69881(6) 0.30119(6) 0.9167
N1 N 0.5891(6) 0.0752(5) 0.92854(10)
C1 C 0.5710(7) -0.0590(7) 0.91648(13)
O1 O 0.7077(5) 0.4494(5) 0.94467(9)
N2 N 0.4595(6) 0.0261(6) 0.94557(9)
H1 H 0.4418 0.0891 0.9557
C2 C 0.4319(6) -0.1899(6) 0.92622(11)
O2 O 0.4699(5) 0.3013(6) 0.96508(9)
C3 C 0.3637(7) -0.1331(7) 0.94449(12)
O3 O 0.6348(6) 1.0000 1.0000
C4 C 0.3614(5) -0.3614(5) 0.9167
H2 H 0.3657 -0.4254 0.9318
C5 C 0.6888(8) -0.0514(8) 0.89599(14)
H3 H 0.7602 0.0581 0.8910
H4 H 0.6337 -0.1112 0.8798
H5 H 0.7490 -0.0962 0.9039
C6 C 0.2133(8) -0.2138(9) 0.96170(14)
H6 H 0.1982 -0.1341 0.9709
H7 H 0.2227 -0.2814 0.9753
H8 H 0.1233 -0.2773 0.9499
C7 C 0.6097(7) 0.5822(7) 0.97199(11)
C8 C 0.7438(8) 0.7274(8) 0.96603(13)
H9 H 0.8261 0.7301 0.9556
C9 C 0.7568(7) 0.8703(8) 0.97556(13)
H10 H 0.8453 0.9683 0.9709
C10 C 0.6367(7) 0.8635(8) 0.99187(13)
C11 C 0.5049(7) 0.7201(8) 0.99875(13)
H11 H 0.4252 0.7174 1.0099
C12 C 0.4921(7) 0.5795(7) 0.98882(12)
H12 H 0.4033 0.4820 0.9935
C13 C 0.5907(8) 0.4301(8) 0.95998(11)
Zn1_2 Zn -0.30119(6) -0.69881(6) 0.9167
Zn1E Zn 1.39762(8) 1.69881(6) 1.0834
N1I N -0.0752(5) -0.5891(6) 0.90479(10)
N1I_2 N 0.9248(5) 0.4109(6) 0.90479(10)
C1I C 0.0590(7) -0.5710(7) 0.91685(13)
O1G O 1.2583(7) 1.5506(5) 1.05533(9)
O1I O 0.5506(5) 0.2923(5) 0.88866(9)
N2I N -0.0261(6) -0.4595(6) 0.88776(9)
H1I H -0.0891 -0.4418 0.8776
C2I C 0.1899(6) -0.4319(6) 0.90711(11)
O2G O 1.1686(8) 1.6987(6) 1.03492(9)
C3I C 0.1331(7) -0.3637(7) 0.88884(12)
H2I H 0.4254 -0.3657 0.9015
C5I C 0.0514(8) -0.6888(8) 0.93734(14)
H3I H -0.0581 -0.7602 0.9423
H4I H 0.1112 -0.6337 0.9535
H5I H 0.0962 -0.7490 0.9294
C6I C 0.2138(9) -0.2133(8) 0.87163(14)
H6I H 0.1341 -0.1982 0.8624
H7I H 0.2814 -0.2227 0.8580
H8I H 0.2773 -0.1233 0.8834
C7G C 1.0275(10) 1.4178(7) 1.02801(11)
C8G C 1.0164(11) 1.2726(8) 1.03397(13)
H9G H 1.0960 1.2699 1.0444
C9G C 0.8865(11) 1.1297(8) 1.02444(13)
H10G H 0.8770 1.0317 1.0291
C10G C 0.7732(11) 1.1365(8) 1.00813(13)
C11G C 0.7848(11) 1.2799(8) 1.00125(13)
H11G H 0.7078 1.2826 0.9901
C12G C 0.9126(10) 1.4205(7) 1.01118(12)
H12G H 0.9213 1.5180 1.0065
C13G C 1.1606(11) 1.5699(8) 1.04002(11)
loop_
_geom_bond_atom_site_label_1
_geom_bond_atom_site_label_2
_geom_bond_site_symmetry_1
_geom_bond_site_symmetry_2
Zn1 N1 1_555 1_555
N1 C1 1_555 1_555
C1 C2 1_555 1_555
O1 Zn1 1_555 1_555
N2 N1 1_555 1_555
H1 N2 1_555 1_555
C2 C3 1_555 1_555
O2 C13 1_555 1_555
C3 N2 1_555 1_555
O3 C10 1_555 1_555
C4 C2 1_555 1_555
H2 C4 1_555 1_555
C5 C1 1_555 1_555
H3 C5 1_555 1_555
H4 C5 1_555 1_555
H5 C5 1_555 1_555
C6 C3 1_555 1_555
H6 C6 1_555 1_555
H7 C6 1_555 1_555
H8 C6 1_555 1_555
C7 C8 1_555 1_555
C8 H9 1_555 1_555
C9 C8 1_555 1_555
H10 C9 1_555 1_555
C10 C9 1_555 1_555
C11 C10 1_555 1_555
H11 C11 1_555 1_555
C12 C7 1_555 1_555
H12 C12 1_555 1_555
C13 O1 1_555 1_555
Zn1_2 N1I 1_555 1_555
Zn1E O1G 1_555 1_555
N1I C1I 1_555 1_555
N1I_2 Zn1 1_555 1_555
C1I C2I 1_555 1_555
O1G C13G 1_555 1_555
O1I Zn1 1_555 1_555
N2I N1I 1_555 1_555
H1I N2I 1_555 1_555
C2I C4 1_555 1_555
O2G C13G 1_555 1_555
C3I N2I 1_555 1_555
H2I C4 1_555 1_555
C5I C1I 1_555 1_555
H3I C5I 1_555 1_555
H4I C5I 1_555 1_555
H5I C5I 1_555 1_555
C6I C3I 1_555 1_555
H6I C6I 1_555 1_555
H7I C6I 1_555 1_555
H8I C6I 1_555 1_555
C7G C8G 1_555 1_555
C8G H9G 1_555 1_555
C9G C8G 1_555 1_555
H10G C9G 1_555 1_555
C10G O3 1_555 1_555
C11G C10G 1_555 1_555
H11G C11G 1_555 1_555
C12G C7G 1_555 1_555
H12G C12G 1_555 1_555
C13G C7G 1_555 1_555
C7 C13 1_555 1_555
C11 C12 1_555 1_555
C2I C3I 1_555 1_555
C9G C10G 1_555 1_555
C11G C12G 1_555 1_555

#END
