
#######################################################################
#
#                 Cambridge Crystallographic Data Centre
#                                CCDC 
#
#######################################################################
#
# If this CIF has been generated from an entry in the Cambridge 
# Structural Database, then it will include bibliographic, chemical, 
# crystal, experimental, refinement or atomic coordinate data resulting 
# from the CCDC's data processing and validation procedures.
#
#######################################################################

data_QUSBIP
_chemical_formula_moiety         '(C76 H124 N8 O43 Zn4)n'
_symmetry_cell_setting           orthorhombic
_symmetry_space_group_name_H-M   'P 21 21 21'
_symmetry_Int_Tables_number      19
_space_group_name_Hall           'P 2ac 2ab'
loop_
_symmetry_equiv_pos_site_id
_symmetry_equiv_pos_as_xyz
1 x,y,z
2 1/2-x,-y,1/2+z
3 -x,1/2+y,1/2-z
4 1/2+x,1/2-y,-z
_cell_length_a                   20.3300(9)
_cell_length_b                   23.1692(11)
_cell_length_c                   32.0081(15)
_cell_angle_alpha                90
_cell_angle_beta                 90
_cell_angle_gamma                90
_cell_volume                     15076.8
loop_
_atom_site_label
_atom_site_type_symbol
_atom_site_fract_x
_atom_site_fract_y
_atom_site_fract_z
Zn1 Zn -0.17290(4) -0.47411(5) -0.50151(3)
Zn2 Zn -0.29186(4) -0.51553(5) -0.44970(3)
Zn3 Zn -0.25374(5) -0.58836(5) -0.53285(3)
Zn4 Zn -0.31378(4) -0.45782(5) -0.53514(3)
O1 O -0.2576(2) -0.5102(2) -0.50559(15)
O2 O -0.1057(3) -0.4998(3) -0.53889(19)
O3 O -0.1733(3) -0.5627(4) -0.5716(2)
O4 O 0.1782(4) -0.8747(3) -0.50914(19)
O5 O 0.1972(3) -0.9085(3) -0.5727(2)
O6 O 0.6746(3) -0.4740(3) -0.59383(16)
O7 O 0.6715(3) -0.5678(3) -0.57790(18)
O8 O 0.7341(3) -0.5277(3) -0.91094(16)
O9 O 0.6380(3) -0.5232(3) -0.94500(16)
O10 O 0.2818(3) -0.8772(3) -0.9648(2)
O11 O 0.1792(3) -0.8904(3) -0.98693(19)
O12 O -0.0983(3) -0.5467(3) -1.00989(18)
O13 O -0.1212(3) -0.5210(3) -0.94398(18)
N1 N 0.2612(3) -0.5780(4) -0.7601(2)
N2 N 0.1157(4) -0.6535(4) -0.6205(3)
N3 N 0.5381(4) -0.5643(6) -0.7591(2)
N4 N 0.1600(4) -0.6339(4) -0.9194(2)
C1 C 0.2256(4) -0.5936(5) -0.7235(3)
C2 C 0.1589(5) -0.5869(5) -0.7231(3)
H1 H 0.1374 -0.5693 -0.7462
C3 C 0.1222(4) -0.6057(5) -0.6888(3)
H2 H 0.0758 -0.6009 -0.6890
C4 C 0.1514(5) -0.6309(4) -0.6551(3)
C5 C 0.2211(5) -0.6357(5) -0.6563(3)
H3 H 0.2437 -0.6509 -0.6328
C6 C 0.2551(4) -0.6193(5) -0.6896(3)
H4 H 0.3013 -0.6254 -0.6900
C7 C 0.0553(5) -0.6247(5) -0.6092(3)
C8 C 0.0575(5) -0.5659(5) -0.5982(3)
H5 H 0.0972 -0.5445 -0.6005
C9 C 0.0009(5) -0.5403(5) -0.5842(3)
H6 H 0.0022 -0.5008 -0.5763
C10 C -0.0573(5) -0.5693(6) -0.5812(3)
C11 C -0.0606(5) -0.6277(5) -0.5926(3)
H7 H -0.1008 -0.6486 -0.5915
C12 C -0.0019(6) -0.6539(5) -0.6059(4)
H8 H -0.0024 -0.6938 -0.6127
C13 C 0.1290(5) -0.7063(5) -0.6042(3)
C14 C 0.1190(5) -0.7165(5) -0.5609(3)
H9 H 0.1013 -0.6868 -0.5438
C15 C 0.1346(5) -0.7681(5) -0.5438(3)
H10 H 0.1270 -0.7739 -0.5148
C16 C 0.1617(5) -0.8135(5) -0.5675(3)
C17 C 0.1719(6) -0.8036(6) -0.6099(3)
H11 H 0.1910 -0.8332 -0.6265
C18 C 0.1551(6) -0.7523(5) -0.6284(3)
H12 H 0.1610 -0.7474 -0.6577
C19 C 0.3307(4) -0.5752(5) -0.7590(2)
C20 C 0.3625(5) -0.5349(5) -0.7340(3)
H13 H 0.3376 -0.5092 -0.7171
C21 C 0.4296(5) -0.5324(6) -0.7336(3)
H14 H 0.4509 -0.5053 -0.7158
C22 C 0.4670(5) -0.5680(6) -0.7582(3)
C23 C 0.4368(5) -0.6069(7) -0.7831(3)
H15 H 0.4625 -0.6315 -0.8003
C24 C 0.3687(5) -0.6117(6) -0.7840(3)
H16 H 0.3481 -0.6395 -0.8014
C25 C 0.5708(4) -0.5560(6) -0.7200(3)
C26 C 0.6035(6) -0.5043(7) -0.7128(3)
H17 H 0.6046 -0.4751 -0.7336
C27 C 0.6347(5) -0.4959(6) -0.6743(3)
H18 H 0.6575 -0.4609 -0.6689
C28 C 0.6325(4) -0.5382(5) -0.6445(2)
C29 C 0.5999(6) -0.5879(5) -0.6531(3)
H19 H 0.5991 -0.6174 -0.6325
C30 C 0.5681(5) -0.5974(6) -0.6903(3)
H20 H 0.5448 -0.6323 -0.6951
C31 C 0.5698(5) -0.5539(6) -0.7974(3)
C32 C 0.6384(5) -0.5637(6) -0.8002(3)
H21 H 0.6622 -0.5765 -0.7764
C33 C 0.6695(4) -0.5547(5) -0.8366(3)
H22 H 0.7159 -0.5595 -0.8374
C34 C 0.6378(4) -0.5391(5) -0.8725(2)
C35 C 0.5692(4) -0.5312(5) -0.8700(2)
H23 H 0.5453 -0.5211 -0.8944
C36 C 0.5365(4) -0.5381(6) -0.8328(3)
H24 H 0.4904 -0.5317 -0.8316
C37 C 0.2329(4) -0.5901(5) -0.8002(2)
C38 C 0.2041(5) -0.6445(5) -0.8071(3)
H25 H 0.2015 -0.6718 -0.7850
C39 C 0.1791(5) -0.6584(5) -0.8470(3)
H26 H 0.1585 -0.6946 -0.8520
C40 C 0.1852(4) -0.6188(4) -0.8781(2)
C41 C 0.2152(5) -0.5666(4) -0.8715(3)
H27 H 0.2205 -0.5404 -0.8941
C42 C 0.2378(5) -0.5518(5) -0.8321(3)
H28 H 0.2567 -0.5149 -0.8274
C43 C 0.1750(5) -0.6877(4) -0.9348(3)
C44 C 0.1266(5) -0.7255(5) -0.9494(3)
H29 H 0.0820 -0.7134 -0.9507
C45 C 0.1437(5) -0.7803(5) -0.9618(3)
H30 H 0.1105 -0.8056 -0.9718
C46 C 0.2083(4) -0.7996(4) -0.9601(3)
C47 C 0.2558(5) -0.7628(5) -0.9469(3)
H31 H 0.3002 -0.7756 -0.9461
C48 C 0.2411(5) -0.7071(4) -0.9346(3)
H32 H 0.2753 -0.6817 -0.9261
C49 C 0.1010(4) -0.6065(5) -0.9320(3)
C50 C 0.0855(4) -0.6052(4) -0.9748(3)
H33 H 0.1160 -0.6192 -0.9949
C51 C 0.0261(5) -0.5837(5) -0.9873(3)
H34 H 0.0147 -0.5848 -1.0160
C52 C -0.0190(4) -0.5597(4) -0.9582(3)
C53 C 0.0006(5) -0.5562(5) -0.9173(3)
H35 H -0.0275 -0.5382 -0.8975
C54 C 0.0610(4) -0.5786(5) -0.9040(3)
H36 H 0.0743 -0.5744 -0.8757
C55 C -0.1165(5) -0.5420(5) -0.5624(3)
C56 C 0.1801(5) -0.8689(5) -0.5482(3)
C57 C 0.6626(4) -0.5276(5) -0.6022(3)
C58 C 0.6727(4) -0.5290(4) -0.9117(2)
C59 C 0.2243(4) -0.8620(4) -0.9713(3)
C60 C -0.0843(4) -0.5415(4) -0.9715(3)
O14 O -0.1739(4) -0.6142(4) -0.4911(2)
N5 N -0.0769(6) -0.6593(5) -0.4737(4)
C61 C -0.1452(7) -0.6577(7) -0.4833(6)
C62 C -0.1772(9) -0.7177(7) -0.4912(7)
C63 C -0.0431(6) -0.6011(8) -0.4705(5)
C64 C -0.0367(10) -0.7069(8) -0.4678(10)
O18 O -0.2516(6) -0.6654(4) -0.5648(3)
N9 N -0.320(2) -0.706(3) -0.6007(16)
C77 C -0.257(2) -0.6740(17) -0.6020(6)
C78 C -0.2240(16) -0.6568(18) -0.6446(9)
C79 C -0.314(3) -0.726(2) -0.6441(17)
C80 C -0.373(2) -0.7201(14) -0.5717(8)
O9A O -0.1380(3) -0.4768(3) -0.44500(16)
O11B O -0.1792(3) -0.3904(3) -0.51307(19)
O5C O -0.3028(3) -0.5915(3) -0.4273(2)
O8A O -0.2341(3) -0.4723(3) -0.41094(16)
O13A O -0.3788(3) -0.4790(3) -0.44398(18)
O4C O -0.3218(4) -0.6253(3) -0.49086(19)
O7_2 O -0.3285(3) -0.5678(3) -0.57790(18)
O6_2 O -0.3254(3) -0.4740(3) -0.59383(16)
O10B O -0.2818(3) -0.3772(3) -0.5352(2)
O12A O -0.4017(3) -0.4533(3) -0.50989(18)
Zn3C Zn 0.24626(5) -0.91164(5) -0.46715(3)
Zn2C Zn 0.20814(4) -0.98447(5) -0.55030(3)
Zn4_2 Zn 0.68622(4) -0.45782(5) -0.53514(3)
Zn3_2 Zn 0.74626(5) -0.58836(5) -0.53285(3)
Zn2A Zn 0.79186(4) -0.48447(5) -0.94970(3)
Zn1A Zn 0.67290(4) -0.52589(5) -1.00151(3)
Zn4B Zn 0.31378(4) -0.95782(5) -0.96486(3)
Zn1B Zn 0.17290(4) -0.97411(5) -0.99849(3)
Zn4A Zn -0.18622(4) -0.54218(5) -1.03514(3)
Zn2A_2 Zn -0.20814(4) -0.48447(5) -0.94970(3)
O15 O 0.0238(11) -0.898(3) -0.4711(7)
N6 N -0.0409(13) -0.9211(17) -0.4147(10)
C65 C -0.0149(19) -0.864(3) -0.4335(13)
C66 C -0.038(3) -0.825(2) -0.417(3)
C67 C -0.0919(10) -0.9138(14) -0.3766(6)
C68 C -0.0174(16) -0.9891(17) -0.4171(16)
O16 O 0.4554(11) -0.5193(11) -0.9703(8)
N7 N 0.4467(17) -0.613(2) -0.9620(13)
C69 C 0.4266(15) -0.5764(18) -0.9466(15)
C70 C 0.3856(10) -0.5763(12) -0.9095(7)
C71 C 0.4151(10) -0.6783(13) -0.9442(8)
C72 C 0.4869(13) -0.6218(10) -1.0024(9)
O20 O 0.271(3) -0.546(3) -1.150(2)
O21 O -0.095(3) -0.709(2) -0.9614(17)
O22 O 0.621(3) -0.726(2) -0.8144(16)
O23 O 0.712(2) -0.7116(17) -0.8539(14)
O24 O 0.273(2) -0.5802(18) -1.0131(13)
O27 O 0.834(2) -0.495(2) -0.7900(16)
O30 O 0.872(3) -0.557(3) -0.820(2)
O31 O 0.311(2) -0.904(2) -0.6740(15)
O33 O 0.343(3) -0.554(3) -1.059(2)
O35 O -0.261(3) -0.684(2) -0.9189(17)
O36 O -0.015(3) -0.754(2) -0.7095(17)
O37 O 0.023(2) -0.510(2) -0.7977(18)
O38 O 0.339(2) -0.764(2) -0.6508(15)
O39 O -0.033(2) -0.5055(19) -0.7171(15)
O42 O -0.093(3) -0.708(3) -1.146(2)
O43 O 0.411(4) -0.355(4) -0.895(3)
O48 O 0.301(4) -0.768(4) -0.734(3)
O49 O 0.788(4) -0.472(3) -0.742(3)
O50 O 0.058(5) -0.598(5) -1.144(3)
O51 O 0.164(4) -0.581(3) -1.165(2)
O52 O -0.040(4) -0.719(3) -0.890(3)
O53 O 0.844(3) -0.405(2) -0.7782(19)
O55 O -0.169(2) -0.663(2) -0.9383(15)
O56 O 0.252(5) -0.692(5) -1.058(3)
O57 O 0.075(3) -0.756(2) -0.7395(17)
O58 O -0.070(3) -0.591(3) -0.7084(19)
loop_
_geom_bond_atom_site_label_1
_geom_bond_atom_site_label_2
_geom_bond_site_symmetry_1
_geom_bond_site_symmetry_2
Zn1 O1 1_555 1_555
Zn2 O1 1_555 1_555
Zn3 O1 1_555 1_555
Zn4 O1 1_555 1_555
O2 Zn1 1_555 1_555
O3 Zn3 1_555 1_555
O4 C56 1_555 1_555
O5 C56 1_555 1_555
O6 C57 1_555 1_555
O7 C57 1_555 1_555
O8 C58 1_555 1_555
O9 C58 1_555 1_555
O10 C59 1_555 1_555
O11 C59 1_555 1_555
O12 C60 1_555 1_555
O13 C60 1_555 1_555
N1 C1 1_555 1_555
N2 C4 1_555 1_555
N3 C22 1_555 1_555
N4 C40 1_555 1_555
C1 C2 1_555 1_555
C2 H1 1_555 1_555
C3 C2 1_555 1_555
H2 C3 1_555 1_555
C4 C3 1_555 1_555
C5 C4 1_555 1_555
H3 C5 1_555 1_555
C6 C1 1_555 1_555
H4 C6 1_555 1_555
C7 N2 1_555 1_555
C8 C7 1_555 1_555
H5 C8 1_555 1_555
C9 C8 1_555 1_555
H6 C9 1_555 1_555
C10 C9 1_555 1_555
C11 C10 1_555 1_555
H7 C11 1_555 1_555
C12 C7 1_555 1_555
H8 C12 1_555 1_555
C13 N2 1_555 1_555
C14 C13 1_555 1_555
H9 C14 1_555 1_555
C15 C14 1_555 1_555
H10 C15 1_555 1_555
C16 C15 1_555 1_555
C17 C16 1_555 1_555
H11 C17 1_555 1_555
C18 C13 1_555 1_555
H12 C18 1_555 1_555
C19 N1 1_555 1_555
C20 C19 1_555 1_555
H13 C20 1_555 1_555
C21 C20 1_555 1_555
H14 C21 1_555 1_555
C22 C21 1_555 1_555
C23 C22 1_555 1_555
H15 C23 1_555 1_555
C24 C19 1_555 1_555
H16 C24 1_555 1_555
C25 N3 1_555 1_555
C26 C25 1_555 1_555
H17 C26 1_555 1_555
C27 C26 1_555 1_555
H18 C27 1_555 1_555
C28 C27 1_555 1_555
C29 C28 1_555 1_555
H19 C29 1_555 1_555
C30 C25 1_555 1_555
H20 C30 1_555 1_555
C31 N3 1_555 1_555
C32 C31 1_555 1_555
H21 C32 1_555 1_555
C33 C32 1_555 1_555
H22 C33 1_555 1_555
C34 C33 1_555 1_555
C35 C34 1_555 1_555
H23 C35 1_555 1_555
C36 C31 1_555 1_555
H24 C36 1_555 1_555
C37 N1 1_555 1_555
C38 C37 1_555 1_555
H25 C38 1_555 1_555
C39 C38 1_555 1_555
H26 C39 1_555 1_555
C40 C39 1_555 1_555
C41 C40 1_555 1_555
H27 C41 1_555 1_555
C42 C37 1_555 1_555
H28 C42 1_555 1_555
C43 N4 1_555 1_555
C44 C43 1_555 1_555
H29 C44 1_555 1_555
C45 C44 1_555 1_555
H30 C45 1_555 1_555
C46 C45 1_555 1_555
C47 C46 1_555 1_555
H31 C47 1_555 1_555
C48 C43 1_555 1_555
H32 C48 1_555 1_555
C49 N4 1_555 1_555
C50 C49 1_555 1_555
H33 C50 1_555 1_555
C51 C50 1_555 1_555
H34 C51 1_555 1_555
C52 C51 1_555 1_555
C53 C52 1_555 1_555
H35 C53 1_555 1_555
C54 C49 1_555 1_555
H36 C54 1_555 1_555
C55 O2 1_555 1_555
C56 C16 1_555 1_555
C57 C28 1_555 1_555
C58 C34 1_555 1_555
C59 C46 1_555 1_555
C60 C52 1_555 1_555
O14 Zn3 1_555 1_555
N5 C61 1_555 1_555
C61 O14 1_555 1_555
C62 C61 1_555 1_555
C63 N5 1_555 1_555
C64 N5 1_555 1_555
O15 C65 1_555 1_555
N6 C65 1_555 1_555
C65 C66 1_555 1_555
C67 N6 1_555 1_555
C68 N6 1_555 1_555
O16 C69 1_555 1_555
N7 C69 1_555 1_555
C69 C70 1_555 1_555
C71 N7 1_555 1_555
C72 N7 1_555 1_555
O18 Zn3 1_555 1_555
N9 C77 1_555 1_555
C77 O18 1_555 1_555
C78 C77 1_555 1_555
C79 N9 1_555 1_555
C80 N9 1_555 1_555
O9A Zn1 1_555 1_555
O11B Zn1 1_555 1_555
O5C Zn2 1_555 1_555
O8A Zn2 1_555 1_555
O13A Zn2 1_555 1_555
O4C Zn3 1_555 1_555
O7_2 Zn3 1_555 1_555
O6_2 Zn4 1_555 1_555
O10B Zn4 1_555 1_555
O12A Zn4 1_555 1_555
Zn3C O4 1_555 1_555
Zn2C O5 1_555 1_555
Zn4_2 O6 1_555 1_555
Zn3_2 O7 1_555 1_555
Zn2A O8 1_555 1_555
Zn1A O9 1_555 1_555
Zn4B O10 1_555 1_555
Zn1B O11 1_555 1_555
Zn4A O12 1_555 1_555
Zn2A_2 O13 1_555 1_555
O3 C55 1_555 1_555
C5 C6 1_555 1_555
C10 C55 1_555 1_555
C11 C12 1_555 1_555
C17 C18 1_555 1_555
C23 C24 1_555 1_555
C29 C30 1_555 1_555
C35 C36 1_555 1_555
C41 C42 1_555 1_555
C47 C48 1_555 1_555
C53 C54 1_555 1_555

#END
