
#######################################################################
#
#                 Cambridge Crystallographic Data Centre
#                                CCDC 
#
#######################################################################
#
# If this CIF has been generated from an entry in the Cambridge 
# Structural Database, then it will include bibliographic, chemical, 
# crystal, experimental, refinement or atomic coordinate data resulting 
# from the CCDC's data processing and validation procedures.
#
#######################################################################

data_NAWDUN
_chemical_formula_moiety         '(C81 H81 Cu4 N1 O20)n'
_symmetry_cell_setting           orthorhombic
_symmetry_space_group_name_H-M   'P 21 21 21'
_symmetry_Int_Tables_number      19
_space_group_name_Hall           'P 2ac 2ab'
loop_
_symmetry_equiv_pos_site_id
_symmetry_equiv_pos_as_xyz
1 x,y,z
2 1/2-x,-y,1/2+z
3 1/2+x,1/2-y,-z
4 -x,1/2+y,1/2-z
_cell_length_a                   18.4059(7)
_cell_length_b                   18.7645(9)
_cell_length_c                   34.5211(14)
_cell_angle_alpha                90
_cell_angle_beta                 90
_cell_angle_gamma                90
_cell_volume                     11922.8
loop_
_atom_site_label
_atom_site_type_symbol
_atom_site_fract_x
_atom_site_fract_y
_atom_site_fract_z
Cu1 Cu 0.88221(6) 0.27105(6) -0.03137(3)
Cu2 Cu 0.61843(6) 0.22853(6) 0.53168(3)
Cu3 Cu 0.54518(6) 0.28958(6) 0.47455(3)
Cu4 Cu 0.95555(6) 0.21061(6) 0.02575(3)
O1 O 0.8571(4) 0.1885(4) 0.0479(2)
O2 O 0.5580(4) -0.1230(4) 0.4935(2)
O3 O 0.3742(4) -0.1733(4) 0.94536(19)
O4 O 0.1357(3) 0.1896(4) 0.55020(19)
O5 O 0.4522(4) 0.1949(4) 0.9507(2)
O6 O 0.2045(4) 0.2457(4) 0.50195(18)
O7 O 0.4469(4) -0.1277(3) 0.99283(18)
O8 O 0.5516(4) 0.1968(3) 0.44766(19)
O9 O 0.6819(4) 0.1805(4) 0.57635(19)
O10 O 0.4777(3) 0.2139(4) 0.05517(19)
O11 O 0.4631(4) 0.2570(4) 0.50574(18)
O12 O 0.4013(4) 0.1407(3) 1.00095(17)
O13 O 0.8053(4) 0.2508(4) 0.00361(19)
O14 O 0.6203(4) -0.1762(4) 0.4469(2)
O15 O 0.6031(5) 0.1429(4) 0.5009(2)
O16 O 1.0266(4) 0.1626(5) 0.0705(2)
O17 O 0.8225(4) 0.3199(4) -0.0778(2)
O18 O 0.5245(4) 0.2186(4) 0.55738(18)
O19 O 0.5397(4) 0.2588(4) 0.00455(19)
O20 O 0.4889(4) 0.3508(5) 0.43249(19)
C1 C 0.4677(5) 0.2259(5) 0.5377(3)
C2 C 0.7130(5) 0.0655(6) 0.1579(3)
H1 H 0.7409 0.0465 0.1379
C3 C 0.6198(5) 0.1128(6) 0.2154(3)
C4 C 0.7357(5) 0.2000(6) 0.0542(3)
C5 C 0.4117(6) 0.0745(6) 0.9443(3)
C6 C 0.4250(5) 0.1310(5) 0.7497(3)
C7 C 0.3955(5) 0.1782(6) 0.5952(3)
H2 H 0.4387 0.1739 0.6090
C8 C 0.3956(5) 0.2124(6) 0.5559(3)
C9 C 0.6712(5) 0.2215(5) 0.0376(3)
H3 H 0.6707 0.2439 0.0136
C10 C 0.6714(6) 0.1593(5) 0.1118(3)
C11 C 0.5894(5) -0.0510(6) 0.4420(3)
C12 C 0.6690(6) 0.0579(6) 0.2242(3)
C13 C 0.6069(6) 0.0185(6) 0.3839(3)
C14 C 0.6700(5) 0.1278(5) 0.1500(3)
C15 C 0.4126(6) -0.1251(5) 0.9615(3)
C16 C 0.5794(5) 0.0695(6) 0.3161(3)
H4 H 0.5414 0.0970 0.3257
C17 C 0.7151(5) 0.0307(7) 0.1954(3)
H5 H 0.7456 -0.0078 0.2001
C18 C 0.4101(5) 0.0091(5) 0.9631(3)
H6 H 0.4145 0.0075 0.9899
C19 C 0.3972(5) 0.0786(5) 0.7789(3)
C20 C 0.3389(5) 0.0337(5) 0.7632(3)
C21 C 0.6134(7) 0.0179(7) 0.3388(3)
C22 C 0.8062(5) 0.2149(5) 0.0351(3)
C23 C 0.2677(5) 0.2015(6) 0.5556(3)
C24 C 0.5759(5) 0.0089(5) 0.4624(3)
H7 H 0.5654 0.0060 0.4887
C25 C 0.3364(5) 0.0544(5) 0.7205(3)
C26 C 0.3342(5) 0.1541(6) 0.6103(3)
C27 C 0.6040(6) 0.0777(6) 0.2798(3)
C28 C 0.6915(6) -0.0176(6) 0.2842(3)
H8 H 0.7265 -0.0468 0.2731
C29 C 0.4020(6) -0.0549(5) 0.9422(3)
C30 C 0.3790(5) 0.1443(5) 0.6793(3)
H9 H 0.4082 0.1838 0.6744
C31 C 0.6214(5) 0.1480(6) 0.1780(3)
H10 H 0.5889 0.1848 0.1729
C32 C 0.3972(6) 0.0114(6) 0.8818(3)
C33 C 0.6042(5) -0.0482(6) 0.4015(3)
H11 H 0.6118 -0.0897 0.3872
C34 C 0.5962(5) 0.0788(6) 0.4038(3)
H12 H 0.6008 0.1226 0.3914
C35 C 0.3336(5) 0.2242(5) 0.5383(3)
H13 H 0.3329 0.2475 0.5145
C36 C 0.2657(5) 0.1692(6) 0.5907(3)
H14 H 0.2216 0.1570 0.6020
C37 C 0.1956(5) 0.2118(5) 0.5327(3)
C38 C 0.2872(6) 0.0307(6) 0.6918(3)
H15 H 0.2558 -0.0068 0.6972
C39 C 0.3335(5) 0.1159(6) 0.6493(3)
C40 C 0.5796(5) 0.2102(6) 0.2633(3)
H16 H 0.5579 0.2409 0.2439
H17 H 0.5513 0.2157 0.2869
C41 C 0.4155(6) 0.2099(5) 0.7615(3)
H18 H 0.4466 0.2182 0.7837
H19 H 0.4346 0.2386 0.7404
C42 C 0.4250(5) 0.1411(5) 0.9665(3)
C43 C 0.6026(5) 0.2081(6) 0.0589(3)
C44 C 0.6046(5) 0.1787(5) 0.0925(3)
H20 H 0.5609 0.1694 0.1050
C45 C 0.6737(6) -0.0205(6) 0.3243(3)
H21 H 0.7018 -0.0479 0.3411
C46 C 0.4116(6) 0.0777(6) 0.9043(3)
H22 H 0.4203 0.1205 0.8916
C47 C 0.6498(5) 0.0356(6) 0.2616(3)
C48 C 0.2853(6) 0.0618(6) 0.6569(3)
H23 H 0.2521 0.0471 0.6382
C49 C 0.3271(6) -0.0278(6) 0.8226(3)
H24 H 0.3074 -0.0659 0.8363
C50 C 0.3901(5) -0.0508(5) 0.9029(3)
H25 H 0.3765 -0.0921 0.8898
C51 C 0.4103(5) 0.0717(6) 0.8190(3)
H26 H 0.4429 0.1030 0.8306
C52 C 0.5709(5) 0.1322(6) 0.2494(3)
C53 C 0.3772(5) 0.0211(6) 0.8416(3)
C54 C 0.5780(6) 0.1437(6) 0.4661(3)
C55 C 0.4901(5) 0.1230(6) 0.2414(3)
H27 H 0.4625 0.1384 0.2638
H28 H 0.4763 0.1528 0.2196
C56 C 0.5058(5) 0.1161(6) 0.7422(3)
H29 H 0.5310 0.1270 0.7662
H30 H 0.5216 0.1512 0.7234
C57 C 0.3796(5) 0.1150(5) 0.7133(3)
C58 C 0.5356(5) 0.2327(5) 0.0388(2)
C59 C 0.5775(5) 0.0760(6) 0.4441(3)
C60 C 0.3093(6) -0.0175(7) 0.7848(3)
H31 H 0.2750 -0.0474 0.7736
C61 C 0.4716(7) 0.0459(6) 0.2323(3)
H32 H 0.5141 0.0191 0.2414
C62 C 0.5357(5) 0.0442(6) 0.7283(3)
H33 H 0.5040 0.0030 0.7329
C63 C 0.5928(5) -0.1225(5) 0.4626(3)
C64 C 0.6134(5) 0.0376(7) 0.7448(3)
H34 H 0.6368 0.0839 0.7453
H35 H 0.6423 0.0059 0.7288
C65 C 0.4778(7) 0.3372(7) 0.3987(4)
C66 C 0.5624(6) 0.0529(7) 0.6868(3)
H36 H 0.5814 0.0083 0.6777
H37 H 0.5228 0.0676 0.6706
H38 H 0.6000 0.0884 0.6861
C67 C 0.4089(6) 0.0127(7) 0.2536(3)
H39 H 0.4125 0.0236 0.2807
H40 H 0.3641 0.0314 0.2436
H41 H 0.4099 -0.0380 0.2501
C68 C 0.4690(7) 0.0307(7) 0.1895(3)
H42 H 0.5160 0.0090 0.1847
H43 H 0.4345 -0.0083 0.1879
C69 C 0.3016(7) 0.2022(6) 0.8042(3)
H44 H 0.2543 0.2250 0.8039
H45 H 0.3256 0.2206 0.8271
C70 C 0.3082(8) 0.2404(8) 0.7310(4)
C71 C 0.6561(6) 0.2381(6) 0.2715(3)
H46 H 0.6887 0.2177 0.2520
C72 C 0.6885(6) 0.2222(7) 0.3113(3)
H47 H 0.6958 0.1713 0.3142
H48 H 0.7353 0.2455 0.3138
C73 C 0.6576(6) 0.3202(5) 0.2668(3)
H49 H 0.6377 0.3328 0.2420
H50 H 0.6293 0.3418 0.2869
H51 H 0.7069 0.3368 0.2684
C74 C 0.6384(6) 0.2485(7) 0.3419(3)
H52 H 0.6587 0.2385 0.3669
H53 H 0.6317 0.2989 0.3391
H54 H 0.5923 0.2249 0.3395
C75 C 0.6067(6) 0.0073(6) 0.7865(3)
H55 H 0.6542 0.0025 0.7977
H56 H 0.5781 0.0392 0.8021
H57 H 0.5835 -0.0386 0.7856
C76 C 0.4552(7) 0.0704(6) 0.1528(3)
H58 H 0.4592 0.0384 0.1312
H59 H 0.4072 0.0904 0.1535
H60 H 0.4902 0.1080 0.1502
C77 C 0.2834(5) 0.1246(6) 0.8157(4)
H61 H 0.2562 0.1245 0.8394
H62 H 0.2552 0.1028 0.7955
H63 H 0.3277 0.0983 0.8192
C78 C 0.3417(6) 0.2392(7) 0.7713(3)
H64 H 0.3487 0.2889 0.7792
C79 C 0.7338(5) 0.1654(5) 0.0920(3)
H65 H 0.7765 0.1474 0.1026
N1 N 0.4348(5) 0.3531(5) 0.3671(3)
C80 C 0.3538(7) 0.3524(7) 0.3802(4)
C81 C 0.4223(7) 0.3001(6) 0.3322(3)
Cu1A Cu 0.61779(6) -0.27105(6) 0.46863(3)
Cu1B Cu 0.38221(6) 0.22895(6) 0.03137(3)
Cu1B_2 Cu 0.38221(6) 0.22895(6) 1.03137(3)
Cu2B Cu 0.11843(6) 0.27147(6) 0.46832(3)
Cu2C Cu 0.38157(6) -0.27147(6) 0.96832(3)
Cu3B Cu 0.04518(6) 0.21042(6) 0.52545(3)
Cu3C Cu 0.45482(6) -0.21042(6) 1.02545(3)
Cu4A Cu 0.54445(6) -0.21061(6) 0.52575(3)
Cu4B Cu 0.45555(6) 0.28939(6) -0.02575(3)
Cu4B_2 Cu 0.45555(6) 0.28939(6) 0.97425(3)
O2A O 0.9420(4) 0.1230(4) -0.0065(2)
O3C O 0.6258(4) 0.3267(4) 0.55464(19)
O4B O 0.6357(3) 0.3104(4) 0.44980(19)
O5B O 0.9522(4) 0.3051(4) 0.0493(2)
O6B O 0.7045(4) 0.2543(4) 0.49805(18)
O7C O 0.5531(4) 0.3723(3) 0.50717(18)
O10B O 0.9777(3) 0.2861(4) -0.05517(19)
O12B O 0.9013(4) 0.3593(3) -0.00095(17)
O14A O 0.8797(4) 0.1762(4) -0.0531(2)
O19B O 1.0397(4) 0.2412(4) -0.00455(19)
loop_
_geom_bond_atom_site_label_1
_geom_bond_atom_site_label_2
_geom_bond_site_symmetry_1
_geom_bond_site_symmetry_2
Cu1 Cu4 1_555 1_555
Cu2 Cu3 1_555 1_555
Cu3 O8 1_555 1_555
Cu4 O1 1_555 1_555
O1 C22 1_555 1_555
O2 C63 1_555 1_555
O3 C15 1_555 1_555
O4 C37 1_555 1_555
O5 C42 1_555 1_555
O6 C37 1_555 1_555
O7 C15 1_555 1_555
O8 C54 1_555 1_555
O9 Cu2 1_555 1_555
O10 C58 1_555 1_555
O11 Cu3 1_555 1_555
O12 C42 1_555 1_555
O13 Cu1 1_555 1_555
O14 C63 1_555 1_555
O15 Cu2 1_555 1_555
O16 Cu4 1_555 1_555
O17 Cu1 1_555 1_555
O18 Cu2 1_555 1_555
O19 C58 1_555 1_555
O20 Cu3 1_555 1_555
C1 O11 1_555 1_555
C2 H1 1_555 1_555
C3 C12 1_555 1_555
C4 C9 1_555 1_555
C5 C18 1_555 1_555
C6 C19 1_555 1_555
C7 H2 1_555 1_555
C8 C1 1_555 1_555
C9 H3 1_555 1_555
C10 C14 1_555 1_555
C11 C24 1_555 1_555
C12 C17 1_555 1_555
C13 C21 1_555 1_555
C14 C2 1_555 1_555
C15 C29 1_555 1_555
C16 H4 1_555 1_555
C17 C2 1_555 1_555
H5 C17 1_555 1_555
C18 H6 1_555 1_555
C19 C20 1_555 1_555
C20 C25 1_555 1_555
C21 C16 1_555 1_555
C22 O13 1_555 1_555
C23 C35 1_555 1_555
C24 H7 1_555 1_555
C25 C38 1_555 1_555
C26 C7 1_555 1_555
C27 C16 1_555 1_555
C28 H8 1_555 1_555
C29 C18 1_555 1_555
C30 H9 1_555 1_555
C31 C3 1_555 1_555
H10 C31 1_555 1_555
C32 C46 1_555 1_555
C33 C11 1_555 1_555
H11 C33 1_555 1_555
C34 C13 1_555 1_555
H12 C34 1_555 1_555
C35 C8 1_555 1_555
H13 C35 1_555 1_555
C36 C23 1_555 1_555
H14 C36 1_555 1_555
C37 C23 1_555 1_555
C38 H15 1_555 1_555
C39 C26 1_555 1_555
C40 H16 1_555 1_555
H17 C40 1_555 1_555
C41 C6 1_555 1_555
H18 C41 1_555 1_555
H19 C41 1_555 1_555
C42 C5 1_555 1_555
C43 C9 1_555 1_555
C44 C10 1_555 1_555
H20 C44 1_555 1_555
C45 C21 1_555 1_555
H21 C45 1_555 1_555
C46 C5 1_555 1_555
H22 C46 1_555 1_555
C47 C12 1_555 1_555
C48 C38 1_555 1_555
H23 C48 1_555 1_555
C49 H24 1_555 1_555
C50 C29 1_555 1_555
H25 C50 1_555 1_555
C51 C19 1_555 1_555
H26 C51 1_555 1_555
C52 C3 1_555 1_555
C53 C32 1_555 1_555
C54 O15 1_555 1_555
C55 C52 1_555 1_555
H27 C55 1_555 1_555
H28 C55 1_555 1_555
C56 C6 1_555 1_555
H29 C56 1_555 1_555
H30 C56 1_555 1_555
C57 C6 1_555 1_555
C58 C43 1_555 1_555
C59 C24 1_555 1_555
C60 C20 1_555 1_555
H31 C60 1_555 1_555
C61 C55 1_555 1_555
H32 C61 1_555 1_555
C62 C56 1_555 1_555
H33 C62 1_555 1_555
C63 C11 1_555 1_555
C64 C62 1_555 1_555
H34 C64 1_555 1_555
H35 C64 1_555 1_555
C65 O20 1_555 1_555
C66 C62 1_555 1_555
H36 C66 1_555 1_555
H37 C66 1_555 1_555
H38 C66 1_555 1_555
C67 C61 1_555 1_555
H39 C67 1_555 1_555
H40 C67 1_555 1_555
H41 C67 1_555 1_555
C68 C61 1_555 1_555
H42 C68 1_555 1_555
H43 C68 1_555 1_555
C69 H44 1_555 1_555
H45 C69 1_555 1_555
C70 C78 1_555 1_555
C71 C40 1_555 1_555
H46 C71 1_555 1_555
C72 C71 1_555 1_555
H47 C72 1_555 1_555
H48 C72 1_555 1_555
C73 C71 1_555 1_555
H49 C73 1_555 1_555
H50 C73 1_555 1_555
H51 C73 1_555 1_555
C74 C72 1_555 1_555
H52 C74 1_555 1_555
H53 C74 1_555 1_555
H54 C74 1_555 1_555
C75 C64 1_555 1_555
H55 C75 1_555 1_555
H56 C75 1_555 1_555
H57 C75 1_555 1_555
C76 C68 1_555 1_555
H58 C76 1_555 1_555
H59 C76 1_555 1_555
H60 C76 1_555 1_555
C77 C69 1_555 1_555
H61 C77 1_555 1_555
H62 C77 1_555 1_555
H63 C77 1_555 1_555
C78 C41 1_555 1_555
H64 C78 1_555 1_555
C79 C4 1_555 1_555
H65 C79 1_555 1_555
N1 C65 1_555 1_555
C80 N1 1_555 1_555
C81 N1 1_555 1_555
Cu1A O14 1_555 1_555
Cu1B O10 1_555 1_555
Cu1B_2 O12 1_555 1_555
Cu2B O6 1_555 1_555
Cu2C O3 1_555 1_555
Cu3B O4 1_555 1_555
Cu3C O7 1_555 1_555
Cu4A O2 1_555 1_555
Cu4B O19 1_555 1_555
Cu4B_2 O5 1_555 1_555
O2A Cu4 1_555 1_555
O3C Cu2 1_555 1_555
O4B Cu3 1_555 1_555
O5B Cu4 1_555 1_555
O6B Cu2 1_555 1_555
O7C Cu3 1_555 1_555
O10B Cu1 1_555 1_555
O12B Cu1 1_555 1_555
O14A Cu1 1_555 1_555
O19B Cu4 1_555 1_555
O18 C1 1_555 1_555
C4 C22 1_555 1_555
C7 C8 1_555 1_555
C10 C79 1_555 1_555
C13 C33 1_555 1_555
C14 C31 1_555 1_555
C25 C57 1_555 1_555
C26 C36 1_555 1_555
C27 C47 1_555 1_555
C27 C52 1_555 1_555
C28 C45 1_555 1_555
C28 C47 1_555 1_555
C30 C39 1_555 1_555
C30 C57 1_555 1_555
C32 C50 1_555 1_555
C34 C59 1_555 1_555
C39 C48 1_555 1_555
C40 C52 1_555 1_555
C43 C44 1_555 1_555
C49 C53 1_555 1_555
C49 C60 1_555 1_555
C51 C53 1_555 1_555
C54 C59 1_555 1_555
C69 C78 1_555 1_555
Cu1A Cu4A 1_555 1_555
Cu1B Cu4B 1_555 1_555
Cu1B_2 Cu4B_2 1_555 1_555
Cu2B Cu3B 1_555 1_555
Cu2C Cu3C 1_555 1_555

#END
