
#######################################################################
#
#                 Cambridge Crystallographic Data Centre
#                                CCDC 
#
#######################################################################
#
# If this CIF has been generated from an entry in the Cambridge 
# Structural Database, then it will include bibliographic, chemical, 
# crystal, experimental, refinement or atomic coordinate data resulting 
# from the CCDC's data processing and validation procedures.
#
#######################################################################

data_YOYTOX01
_chemical_formula_moiety         '(C52 H29 Ag6 Fe3 N25)n'
_symmetry_cell_setting           rhombohedral
_symmetry_space_group_name_H-M   'R -3 m'
_symmetry_Int_Tables_number      166
_space_group_name_Hall           '-R 3 2"'
loop_
_symmetry_equiv_pos_site_id
_symmetry_equiv_pos_as_xyz
1 x,y,z
2 -y,x-y,z
3 -x+y,-x,z
4 x-y,-y,-z
5 -x,-x+y,-z
6 y,x,-z
7 2/3+x,1/3+y,1/3+z
8 2/3-y,1/3+x-y,1/3+z
9 2/3-x+y,1/3-x,1/3+z
10 2/3+x-y,1/3-y,1/3-z
11 2/3-x,1/3-x+y,1/3-z
12 2/3+y,1/3+x,1/3-z
13 1/3+x,2/3+y,2/3+z
14 1/3-y,2/3+x-y,2/3+z
15 1/3-x+y,2/3-x,2/3+z
16 1/3+x-y,2/3-y,2/3-z
17 1/3-x,2/3-x+y,2/3-z
18 1/3+y,2/3+x,2/3-z
19 -x,-y,-z
20 y,-x+y,-z
21 x-y,x,-z
22 -x+y,y,z
23 x,x-y,z
24 -y,-x,z
25 1/3-x,2/3-y,2/3-z
26 1/3+y,2/3-x+y,2/3-z
27 1/3+x-y,2/3+x,2/3-z
28 1/3-x+y,2/3+y,2/3+z
29 1/3+x,2/3+x-y,2/3+z
30 1/3-y,2/3-x,2/3+z
31 2/3-x,1/3-y,1/3-z
32 2/3+y,1/3-x+y,1/3-z
33 2/3+x-y,1/3+x,1/3-z
34 2/3-x+y,1/3+y,1/3+z
35 2/3+x,1/3+x-y,1/3+z
36 2/3-y,1/3-x,1/3+z
_cell_length_a                   26.2525(9)
_cell_length_b                   26.2525(9)
_cell_length_c                   9.6515(4)
_cell_angle_alpha                90
_cell_angle_beta                 90
_cell_angle_gamma                120
_cell_volume                     5760.59
loop_
_atom_site_label
_atom_site_type_symbol
_atom_site_fract_x
_atom_site_fract_y
_atom_site_fract_z
Ag1 Ag 0.6667 0.036585(18) 0.8333
C1 C 0.59278(17) 0.00844(18) 0.7115(4)
N1 N 0.55502(12) 0.00252(13) 0.6388(3)
Fe1 Fe 0.5000 0.0000 0.5000
N2 N 0.87725(9) 0.12274(17) 1.1601(4)
C2 C 0.84859(21) 0.06352(14) 1.1598(4)
C3 C 0.87734(20) 0.03144(14) 1.1616(4)
H1 H 0.8076 0.0433 1.1583
C4 C 0.93858(10) 0.0614(2) 1.1637(5)
H2 H 0.8561 -0.0094 1.1614
C5 C 0.97138(9) 0.02861(19) 1.1659(4)
N3 N 0.93949(18) -0.03025(9) 1.1657(4)
C1P C 0.74055(17) 0.08233(25) 0.9552(4)
N1P N 0.77831(12) 0.11417(18) 1.0279(3)
Fe1N Fe 0.8333 0.1667 1.1667
N1Z N 0.88583(18) 0.22169(12) 1.0279(3)
N1N N 0.78083(18) 0.11165(12) 1.3055(3)
N1BA N 0.88835(12) 0.21917(18) 1.3055(3)
N2K N 0.78941(17) 0.21058(9) 1.1732(4)
C1U C 0.41566(25) 0.00844(18) 0.7115(4)
C1Z C 0.91767(25) 0.25945(17) 0.9552(4)
C1N C 0.74899(25) 0.07389(17) 1.3782(4)
C1BA C 0.92611(17) 0.25101(25) 1.3782(4)
C2W C 0.93648(14) 0.15141(21) 1.1598(4)
C2K C 0.73019(14) 0.18192(21) 1.1735(4)
C2DA C 0.81808(21) 0.26981(14) 1.1735(4)
Ag1U Ag 0.369885(18) 0.036585(18) 0.8333
Ag1W Ag 0.963415(18) 0.3333 0.8333
Ag1K Ag 0.703252(18) 0.0000 1.5000
Ag1DA Ag 1.0000 0.296748(18) 1.5000
C3W C 0.96856(14) 0.12266(20) 1.1616(4)
H1W H 0.9567 0.1924 1.1583
C3K C 0.69811(14) 0.21067(20) 1.1717(4)
H1K H 0.7100 0.1409 1.1750
C3DA C 0.78933(20) 0.30189(14) 1.1717(4)
H1DA H 0.8591 0.2900 1.1750
C1Y C 0.34177(18) 0.08233(25) 0.9552(4)
C1W C 0.99156(18) 0.40722(17) 0.7115(4)
C1K C 0.67511(18) -0.07389(17) 1.6218(4)
H2W H 1.0094 0.1439 1.1614
H2K H 0.6573 0.1894 1.1719
C4K C 0.7281(2) 0.27191(10) 1.1696(5)
H2DA H 0.8106 0.3427 1.1719
N1Y N 0.33585(13) 0.11417(18) 1.0279(3)
C5K C 0.69528(19) 0.30471(9) 1.1674(4)
Fe1M Fe 0.3333 0.1667 1.1667
N3B N 1.03026(20) 0.06051(18) 1.1657(4)
N3J N 0.72718(18) 0.36359(20) 1.1676(4)
N3K N 0.63642(9) 0.27282(18) 1.1676(4)
N1Q N 0.33585(13) 0.22169(12) 1.0279(3)
N2I N 0.42118(19) 0.21059(17) 1.1732(4)
N1M N 0.33081(13) 0.21917(18) 1.3055(3)
N1CA N 0.33081(13) 0.11165(12) 1.3055(3)
N2B N 0.24549(19) 0.12275(9) 1.1601(4)
C5A C 0.97139(19) -0.05723(21) 1.1659(4)
C5B C 1.05723(21) 0.02862(9) 1.1659(4)
C5J C 0.69529(9) 0.39056(21) 1.1674(4)
C5I C 0.60944(21) 0.30472(19) 1.1674(4)
C1Q C 0.34177(18) 0.25945(17) 0.9552(4)
C2I C 0.45174(25) 0.26981(14) 1.1735(4)
C2FA C 0.45174(25) 0.18192(21) 1.1735(4)
C1M C 0.32489(18) 0.25101(25) 1.3782(4)
C1CA C 0.32489(18) 0.07389(17) 1.3782(4)
C1A C 0.99156(18) 0.58434(25) 0.7115(4)
C4A C 0.9386(2) -0.12282(22) 1.1637(5)
N3A N 1.03025(9) -0.03026(20) 1.1657(4)
C4B C 1.12282(22) 0.06142(10) 1.1637(5)
N3I N 0.63641(20) 0.36358(9) 1.1676(4)
C4J C 0.72809(10) 0.45615(22) 1.1696(5)
C4I C 0.54385(22) 0.2719(2) 1.1696(5)
Ag1B Ag 0.369885(18) 0.3333 0.8333
H1I H 0.4310 0.2900 1.1750
C3I C 0.51257(24) 0.30189(14) 1.1717(4)
C3FA C 0.51257(24) 0.21067(20) 1.1717(4)
H1FA H 0.4310 0.1409 1.1750
Ag1I Ag 0.296782(18) 0.296748(18) 1.5000
Ag1FA Ag 0.296782(18) 0.0000 1.5000
Ag1A Ag 0.963415(18) 0.630115(18) 0.8333
C3V C 0.87734(20) -0.15410(24) 1.1616(4)
C3A C 0.96856(14) -0.15410(24) 1.1616(4)
C3B C 1.15410(24) 0.12266(20) 1.1616(4)
C3U C 1.15410(24) 0.03144(14) 1.1616(4)
C3EA C 0.69811(14) 0.48743(24) 1.1717(4)
C3J C 0.78933(20) 0.48743(24) 1.1717(4)
C1B C 0.41566(25) 0.40722(17) 0.7115(4)
H2I H 0.5322 0.3427 1.1719
H2FA H 0.5322 0.1894 1.1719
C1O C 0.91767(25) 0.65823(18) 0.9552(4)
C2V C 0.84859(21) -0.21493(25) 1.1598(4)
H2V H 0.8561 -0.1345 1.1614
C2A C 0.93648(14) -0.21493(25) 1.1598(4)
H2A H 1.0094 -0.1345 1.1614
H2B H 1.1345 0.1439 1.1614
C2B C 1.21493(25) 0.15141(21) 1.1598(4)
C2U C 1.21493(25) 0.06352(14) 1.1598(4)
H2U H 1.1345 -0.0094 1.1614
C2EA C 0.73019(14) 0.54826(25) 1.1735(4)
H2EA H 0.6573 0.4678 1.1719
C2J C 0.81808(21) 0.54826(25) 1.1735(4)
H2J H 0.8106 0.4678 1.1719
N1O N 0.88583(18) 0.66415(13) 1.0279(3)
N2A N 0.87726(17) -0.24549(19) 1.1601(4)
H1V H 0.8076 -0.2357 1.1583
H1A H 0.9567 -0.2357 1.1583
N2B_2 N 1.24549(19) 0.12275(9) 1.1601(4)
H1B H 1.2357 0.1924 1.1583
H1U H 1.2357 0.0433 1.1583
H1EA H 0.7100 0.5690 1.1750
N2J N 0.78942(9) 0.57882(19) 1.1732(4)
H1J H 0.8591 0.5690 1.1750
Fe1L Fe 0.8333 0.6667 1.1667
Fe1L_2 Fe 0.8333 -0.3333 1.1667
Fe1M_2 Fe 1.3333 0.1667 1.1667
N1X N 0.77831(12) 0.66415(13) 1.0279(3)
N1L N 0.88835(12) 0.66919(13) 1.3055(3)
N1AA N 0.78083(18) 0.66919(13) 1.3055(3)
N2A_2 N 0.87726(17) 0.75451(19) 1.1601(4)
C1X C 0.74055(17) 0.65823(18) 0.9552(4)
C1L C 0.92611(17) 0.67511(18) 1.3782(4)
Ag1V Ag 0.6667 0.630115(18) 0.8333
Ag1J Ag 1.0000 0.703218(18) 1.5000
N4 N 0.46806(19) -0.0639(4) 0.9080(8)
C6 C 0.4993(5) -0.0820(4) 0.9713(10)
H3 H 0.5365 -0.0745 0.9452
C7 C 0.4668(4) -0.1153(4) 1.0880(12)
H4 H 0.4786 -0.1336 1.1523
C6U C 0.4187(6) -0.0820(4) 0.9713(10)
H3U H 0.3890 -0.0745 0.9452
C7U C 0.4179(6) -0.1153(4) 1.0880(12)
H4U H 0.3878 -0.1336 1.1523
loop_
_geom_bond_atom_site_label_1
_geom_bond_atom_site_label_2
_geom_bond_site_symmetry_1
_geom_bond_site_symmetry_2
Ag1 C1 1_555 1_555
C1 N1 1_555 1_555
N1 Fe1 1_555 1_555
N2 C2 1_555 1_555
C2 C3 1_555 1_555
C3 C4 1_555 1_555
H1 C2 1_555 1_555
C4 C5 1_555 1_555
H2 C3 1_555 1_555
C5 N3 1_555 1_555
N3 C5A 1_555 1_555
N4 C6 1_555 1_555
C6 H3 1_555 1_555
C7 C6 1_555 1_555
H4 C7 1_555 1_555
C1P Ag1 1_555 1_555
N1P C1P 1_555 1_555
Fe1N N2 1_555 1_555
N1Z Fe1N 1_555 1_555
N1N Fe1N 1_555 1_555
N1BA Fe1N 1_555 1_555
N2K Fe1N 1_555 1_555
C1U Ag1U 1_555 1_555
C1Z N1Z 1_555 1_555
C1N N1N 1_555 1_555
C1BA N1BA 1_555 1_555
C2W N2 1_555 1_555
C2K N2K 1_555 1_555
C2DA N2K 1_555 1_555
Ag1U C1Y 1_555 1_555
Ag1W C1Z 1_555 1_555
Ag1K C1N 1_555 1_555
Ag1DA C1BA 1_555 1_555
C3W C4 1_555 1_555
H1W C2W 1_555 1_555
C3K C2K 1_555 1_555
H1K C2K 1_555 1_555
C3DA C2DA 1_555 1_555
H1DA C2DA 1_555 1_555
C1Y N1Y 1_555 1_555
C1W Ag1W 1_555 1_555
C1K Ag1K 1_555 1_555
H2W C3W 1_555 1_555
H2K C3K 1_555 1_555
C4K C3K 1_555 1_555
H2DA C3DA 1_555 1_555
N1Y Fe1M 1_555 1_555
C5K C4K 1_555 1_555
Fe1M N1Q 1_555 1_555
N3B C5 1_555 1_555
N3J C5K 1_555 1_555
N3K C5K 1_555 1_555
N1Q C1Q 1_555 1_555
N2I Fe1M 1_555 1_555
N1M Fe1M 1_555 1_555
N1CA Fe1M 1_555 1_555
N2B Fe1M 1_555 1_555
C5A C4A 1_555 1_555
C5B N3B 1_555 1_555
C5J N3J 1_555 1_555
C5I N3K 1_555 1_555
C1Q Ag1B 1_555 1_555
C2I N2I 1_555 1_555
C2FA N2I 1_555 1_555
C1M N1M 1_555 1_555
C1CA N1CA 1_555 1_555
C1A Ag1A 1_555 1_555
C4A C3V 1_555 1_555
N3A C5A 1_555 1_555
C4B C5B 1_555 1_555
N3I C5J 1_555 1_555
C4J C5J 1_555 1_555
C4I C5I 1_555 1_555
Ag1B C1B 1_555 1_555
H1I C2I 1_555 1_555
C3I C2I 1_555 1_555
C3FA C2FA 1_555 1_555
H1FA C2FA 1_555 1_555
Ag1I C1M 1_555 1_555
Ag1FA C1CA 1_555 1_555
Ag1A C1O 1_555 1_555
C3V C2V 1_555 1_555
C3A C4A 1_555 1_555
C3B C4B 1_555 1_555
C3U C4B 1_555 1_555
C3EA C4J 1_555 1_555
C3J C4J 1_555 1_555
H2I C3I 1_555 1_555
H2FA C3FA 1_555 1_555
C1O N1O 1_555 1_555
C2V N2A 1_555 1_555
H2V C3V 1_555 1_555
C2A C3A 1_555 1_555
H2A C3A 1_555 1_555
H2B C3B 1_555 1_555
C2B C3B 1_555 1_555
C2U C3U 1_555 1_555
H2U C3U 1_555 1_555
C2EA C3EA 1_555 1_555
H2EA C3EA 1_555 1_555
C2J C3J 1_555 1_555
H2J C3J 1_555 1_555
N1O Fe1L 1_555 1_555
N2A C2A 1_555 1_555
H1V C2V 1_555 1_555
H1A C2A 1_555 1_555
N2B_2 C2B 1_555 1_555
H1B C2B 1_555 1_555
H1U C2U 1_555 1_555
H1EA C2EA 1_555 1_555
N2J C2EA 1_555 1_555
H1J C2J 1_555 1_555
Fe1L N2J 1_555 1_555
Fe1L_2 N2A 1_555 1_555
Fe1M_2 N2B_2 1_555 1_555
N1X Fe1L 1_555 1_555
N1L Fe1L 1_555 1_555
N1AA Fe1L 1_555 1_555
N2A_2 Fe1L 1_555 1_555
C1X N1X 1_555 1_555
C1L N1L 1_555 1_555
Ag1V C1X 1_555 1_555
Ag1J C1L 1_555 1_555
C6U N4 1_555 1_555
H3U C6U 1_555 1_555
C7U C7 1_555 1_555
H4U C7U 1_555 1_555
N1P Fe1N 1_555 1_555
C2W C3W 1_555 1_555
C3DA C4K 1_555 1_555
C5B N3A 1_555 1_555
C5I N3I 1_555 1_555
C4I C3I 1_555 1_555
C4I C3FA 1_555 1_555
C2U N2B_2 1_555 1_555
C2J N2J 1_555 1_555
C6U C7U 1_555 1_555

#END
