
#######################################################################
#
#                 Cambridge Crystallographic Data Centre
#                                CCDC 
#
#######################################################################
#
# If this CIF has been generated from an entry in the Cambridge 
# Structural Database, then it will include bibliographic, chemical, 
# crystal, experimental, refinement or atomic coordinate data resulting 
# from the CCDC's data processing and validation procedures.
#
#######################################################################

data_LODPUQ
_chemical_formula_moiety         '(C84 H56 N34 Ni5 O8)n'
_symmetry_cell_setting           tetragonal
_symmetry_space_group_name_H-M   'I 41/a c d'
_symmetry_Int_Tables_number      142
_space_group_name_Hall           '-I 4bd 2c'
loop_
_symmetry_equiv_pos_site_id
_symmetry_equiv_pos_as_xyz
1 x,y,z
2 1/4-y,3/4+x,1/4+z
3 1/4+y,1/4-x,3/4+z
4 1/4+y,3/4+x,3/4-z
5 1/4-y,1/4-x,1/4-z
6 1/2+x,1/2+y,1/2+z
7 3/4-y,1/4+x,3/4+z
8 3/4+y,3/4-x,1/4+z
9 3/4+y,1/4+x,1/4-z
10 1/2-x,-y,1/2+z
11 1/2-x,y,-z
12 x,-y,1/2-z
13 -x,1/2-y,z
14 -x,1/2+y,1/2-z
15 1/2+x,1/2-y,-z
16 3/4-y,3/4-x,3/4-z
17 -x,-y,-z
18 3/4+y,1/4-x,3/4-z
19 3/4-y,3/4+x,1/4-z
20 3/4-y,1/4-x,1/4+z
21 3/4+y,3/4+x,3/4+z
22 1/2-x,1/2-y,1/2-z
23 1/4+y,3/4-x,1/4-z
24 1/4-y,1/4+x,3/4-z
25 1/4-y,3/4-x,3/4+z
26 1/2+x,y,1/2-z
27 1/2+x,-y,z
28 -x,y,1/2+z
29 x,1/2+y,-z
30 x,1/2-y,1/2+z
31 1/2-x,1/2+y,z
32 1/4+y,1/4+x,1/4+z
_cell_length_a                   23.08070(10)
_cell_length_b                   23.08070(10)
_cell_length_c                   42.2528(4)
_cell_angle_alpha                90
_cell_angle_beta                 90
_cell_angle_gamma                90
_cell_volume                     22508.9
loop_
_atom_site_label
_atom_site_type_symbol
_atom_site_fract_x
_atom_site_fract_y
_atom_site_fract_z
Ni1 Ni 0.13095(3) 0.76435(3) 0.075291(15)
Ni2 Ni 0.0000 0.7500 0.1250
O1 O 0.21492(13) 0.77394(13) 0.09338(7)
N1 N 0.07186(13) 0.69298(14) 0.12515(7)
N2 N 0.11878(14) 0.70025(14) 0.10762(8)
N3 N 0.07620(14) 0.64631(14) 0.14326(8)
N4 N 0.04755(14) 0.75465(13) 0.05676(8)
N5 N 0.0000 0.7500 0.07450(11)
N6 N 0.16473(16) 0.70444(14) 0.04263(9)
N7 N 0.1703(2) 0.6860(2) -0.05879(11)
N8 N 0.2025(2) 0.3382(2) 0.05689(11)
N9 N 0.15148(16) 0.32684(14) -0.04138(9)
C1 C 0.15592(17) 0.65611(17) 0.11490(10)
C2 C 0.21271(18) 0.64346(19) 0.10401(10)
H1 H 0.2314 0.6668 0.0893
C3 C 0.23820(19) 0.5956(2) 0.11625(11)
H2 H 0.2756 0.5862 0.1098
C4 C 0.2099(2) 0.5595(2) 0.13848(11)
H3 H 0.2289 0.5267 0.1458
C5 C 0.15562(19) 0.5714(2) 0.14944(11)
H4 H 0.1373 0.5476 0.1642
C6 C 0.12856(17) 0.62171(18) 0.13726(10)
C7 C 0.02991(19) 0.75310(17) 0.02593(10)
C8 C 0.0617(2) 0.7560(2) -0.00269(11)
H5 H 0.1018 0.7599 -0.0027
C9 C 0.0307(2) 0.7529(2) -0.03026(12)
H6 H 0.0503 0.7546 -0.0495
C10 C 0.17235(19) 0.67344(17) 0.02195(11)
C11 C 0.1729(2) 0.6641(2) -0.03463(12)
C12 C 0.1775(2) 0.63656(19) -0.00481(10)
C13 C 0.17778(19) 0.57552(19) -0.00178(11)
C14 C 0.1661(2) 0.53949(19) -0.02844(11)
H7 H 0.1586 0.5564 -0.0480
C15 C 0.1658(2) 0.48081(19) -0.02579(11)
H8 H 0.1572 0.4584 -0.0435
C16 C 0.17815(19) 0.45324(18) 0.00325(11)
C17 C 0.1888(2) 0.48844(19) 0.02977(11)
H9 H 0.1964 0.4714 0.0493
C18 C 0.1883(2) 0.54784(19) 0.02723(11)
H10 H 0.1950 0.5702 0.0452
C19 C 0.17903(19) 0.39165(18) 0.00559(10)
C20 C 0.1918(2) 0.36240(19) 0.03364(12)
C21 C 0.16429(18) 0.35640(17) -0.02050(11)
Ni1R Ni -0.01435(3) 0.88095(3) 0.174709(15)
Ni1V Ni 0.01435(3) 0.61905(3) 0.174709(15)
Ni1L Ni -0.13095(3) 0.73565(3) 0.075291(15)
Ni1BA Ni 0.13095(3) 0.26435(3) -0.075291(15)
Ni1BA_2 Ni 0.13095(3) 1.26435(3) -0.075291(15)
Ni1A Ni 0.48565(3) 0.88095(3) 0.325291(15)
Ni1A_2 Ni -0.51435(3) 0.88095(3) 0.325291(15)
O1R O -0.02394(13) 0.96492(13) 0.15662(7)
O1V O 0.02394(13) 0.53508(13) 0.15662(7)
O1L O -0.21492(13) 0.72606(13) 0.09338(7)
N1R N 0.05702(14) 0.82186(13) 0.12485(7)
N1V N -0.05702(14) 0.67814(13) 0.12485(7)
N1L N -0.07186(13) 0.80702(14) 0.12515(7)
N2R N 0.04975(14) 0.86878(14) 0.14238(8)
N2V N -0.04975(14) 0.63122(14) 0.14238(8)
N2L N -0.11878(14) 0.79975(14) 0.10762(8)
N3R N 0.10369(14) 0.82620(14) 0.10674(8)
N3V N -0.10369(14) 0.67380(14) 0.10674(8)
N3L N -0.07620(14) 0.85369(14) 0.14326(8)
N4L N -0.04755(14) 0.74535(13) 0.05676(8)
N4R N -0.00465(13) 0.79755(14) 0.19324(8)
N4V N 0.00465(13) 0.70245(14) 0.19324(8)
N5R N 0.0000 0.7500 0.17550(11)
N6BA N 0.16473(16) 1.20444(14) -0.04263(9)
N6R N 0.04556(14) 0.91473(16) 0.20737(9)
N6A N -0.45444(14) 0.91473(16) 0.29263(9)
N6V N -0.04556(14) 0.58527(16) 0.20737(9)
N6L N -0.16473(16) 0.79556(14) 0.04263(9)
N7BA N 0.1703(2) 1.1860(2) 0.05879(11)
N7R N 0.0640(2) 0.9203(2) 0.30879(11)
N7A N -0.4360(2) 0.9203(2) 0.19121(11)
N8BA N 0.2025(2) 0.8382(2) -0.05689(11)
N8R N 0.4118(2) 0.9525(2) 0.19311(11)
N8A N -0.0882(2) 0.9525(2) 0.30689(11)
N9BA N 0.15148(16) 0.82684(14) 0.04138(9)
N9R N 0.42316(14) 0.90148(16) 0.29138(9)
N9A N -0.07684(14) 0.90148(16) 0.20862(9)
N9G N 0.07684(14) 0.59852(16) 0.20862(9)
N9P N -0.15148(16) 0.67316(14) 0.04138(9)
C1R C 0.09389(17) 0.90592(17) 0.13510(10)
C1V C -0.09389(17) 0.59408(17) 0.13510(10)
C1L C -0.15592(17) 0.84389(17) 0.11490(10)
C2R C 0.10654(19) 0.96271(18) 0.14599(10)
C2V C -0.10654(19) 0.53729(18) 0.14599(10)
C2L C -0.21271(18) 0.85654(19) 0.10401(10)
H1R H 0.0832 0.9814 0.1607
H1V H -0.0832 0.5186 0.1607
H1L H -0.2314 0.8332 0.0893
C3R C 0.1544(2) 0.98820(19) 0.13375(11)
C3V C -0.1544(2) 0.51180(19) 0.13375(11)
C3L C -0.23820(19) 0.9044(2) 0.11625(11)
H2R H 0.1638 1.0256 0.1402
H2V H -0.1638 0.4744 0.1402
H2L H -0.2756 0.9138 0.1098
C4R C 0.1905(2) 0.9599(2) 0.11152(11)
C4V C -0.1905(2) 0.5401(2) 0.11152(11)
C4L C -0.2099(2) 0.9405(2) 0.13848(11)
H3R H 0.2233 0.9789 0.1042
H3V H -0.2233 0.5211 0.1042
H3L H -0.2289 0.9733 0.1458
C5R C 0.1786(2) 0.90562(19) 0.10056(11)
C5V C -0.1786(2) 0.59438(19) 0.10056(11)
C5L C -0.15562(19) 0.9286(2) 0.14944(11)
H4R H 0.2024 0.8873 0.0858
H4V H -0.2024 0.6127 0.0858
H4L H -0.1373 0.9524 0.1642
C6R C 0.12829(18) 0.87856(17) 0.11274(10)
C6V C -0.12829(18) 0.62144(17) 0.11274(10)
C6L C -0.12856(17) 0.87829(18) 0.13726(10)
C7L C -0.02991(19) 0.74690(17) 0.02593(10)
C7R C -0.00310(17) 0.77991(19) 0.22407(10)
C7V C 0.00310(17) 0.72009(19) 0.22407(10)
C8L C -0.0617(2) 0.7440(2) -0.00269(11)
C8R C -0.0060(2) 0.8117(2) 0.25269(11)
C8V C 0.0060(2) 0.6883(2) 0.25269(11)
H5L H -0.1018 0.7401 -0.0027
H5R H -0.0099 0.8518 0.2527
H5V H 0.0099 0.6482 0.2527
C9L C -0.0307(2) 0.7471(2) -0.03026(12)
C9R C -0.0029(2) 0.7807(2) 0.28026(12)
C9V C 0.0029(2) 0.7193(2) 0.28026(12)
H6L H -0.0503 0.7454 -0.0495
H6R H -0.0046 0.8003 0.2995
H6V H 0.0046 0.6997 0.2995
C10BA C 0.17235(19) 1.17344(17) -0.02195(11)
C10R C 0.07656(17) 0.92235(19) 0.22805(11)
C10A C -0.42344(17) 0.92235(19) 0.27195(11)
C11BA C 0.1729(2) 1.1641(2) 0.03463(12)
C11R C 0.0859(2) 0.9229(2) 0.28463(12)
C11A C -0.4141(2) 0.9229(2) 0.21537(12)
C12BA C 0.1775(2) 1.13656(19) 0.00481(10)
C12R C 0.11344(19) 0.9275(2) 0.25481(10)
C12A C -0.38656(19) 0.9275(2) 0.24519(10)
C13BA C 0.17778(19) 1.07552(19) 0.00178(11)
C13R C 0.17448(19) 0.92778(19) 0.25178(11)
C13A C -0.32552(19) 0.92778(19) 0.24822(11)
C14BA C 0.1661(2) 1.03949(19) 0.02844(11)
C14R C 0.21051(19) 0.9161(2) 0.27844(11)
C14A C -0.28949(19) 0.9161(2) 0.22156(11)
H7BA H 0.1586 1.0564 0.0480
H7R H 0.1936 0.9086 0.2980
H7A H -0.3064 0.9086 0.2020
C15BA C 0.1658(2) 0.98081(19) 0.02579(11)
C15R C 0.26919(19) 0.9158(2) 0.27579(11)
C15A C -0.23081(19) 0.9158(2) 0.22421(11)
H8BA H 0.1572 0.9584 0.0435
H8R H 0.2916 0.9072 0.2935
H8A H -0.2084 0.9072 0.2065
C16BA C 0.17815(19) 0.95324(18) -0.00325(11)
C16R C 0.29676(18) 0.92815(19) 0.24675(11)
C16A C -0.20324(18) 0.92815(19) 0.25325(11)
C17BA C 0.1888(2) 0.98844(19) -0.02977(11)
C17R C 0.26156(19) 0.9388(2) 0.22023(11)
C17A C -0.23844(19) 0.9388(2) 0.27977(11)
H9BA H 0.1964 0.9714 -0.0493
H9R H 0.2786 0.9464 0.2007
H9A H -0.2214 0.9464 0.2993
C18BA C 0.1883(2) 1.04784(19) -0.02723(11)
C18R C 0.20216(19) 0.9383(2) 0.22277(11)
C18A C -0.29784(19) 0.9383(2) 0.27723(11)
H10BA H 0.1950 1.0702 -0.0452
H10R H 0.1798 0.9450 0.2048
H10A H -0.3202 0.9450 0.2952
C19BA C 0.17903(19) 0.89165(18) -0.00559(10)
C19R C 0.35835(18) 0.92903(19) 0.24441(10)
C19A C -0.14165(18) 0.92903(19) 0.25559(10)
C20BA C 0.1918(2) 0.86240(19) -0.03364(12)
C20R C 0.38760(19) 0.9418(2) 0.21636(12)
C20A C -0.11240(19) 0.9418(2) 0.28364(12)
C21BA C 0.16429(18) 0.85640(17) 0.02050(11)
C21R C 0.39360(17) 0.91429(18) 0.27050(11)
C21A C -0.10640(17) 0.91429(18) 0.22950(11)
O2 O 0.1187(4) 0.7172(4) -0.11888(16)
O3 O 0.2335(6) 0.7814(5) 0.15635(19)
O4 O 0.0800(6) 0.8300(6) -0.1250
O5 O 0.3137(6) 0.7120(6) 0.1740(3)
loop_
_geom_bond_atom_site_label_1
_geom_bond_atom_site_label_2
_geom_bond_site_symmetry_1
_geom_bond_site_symmetry_2
Ni1 O1 1_555 1_555
Ni2 N1 1_555 1_555
N1 N2 1_555 1_555
N2 Ni1 1_555 1_555
N3 N1 1_555 1_555
N4 Ni1 1_555 1_555
N5 Ni2 1_555 1_555
N6 Ni1 1_555 1_555
N7 C11 1_555 1_555
N8 C20 1_555 1_555
N9 C21 1_555 1_555
C1 N2 1_555 1_555
C2 C1 1_555 1_555
H1 C2 1_555 1_555
C3 C2 1_555 1_555
H2 C3 1_555 1_555
C4 C3 1_555 1_555
H3 C4 1_555 1_555
C5 C4 1_555 1_555
H4 C5 1_555 1_555
C6 N3 1_555 1_555
C7 N4 1_555 1_555
C8 C7 1_555 1_555
H5 C8 1_555 1_555
C9 C8 1_555 1_555
H6 C9 1_555 1_555
C10 N6 1_555 1_555
C11 C12 1_555 1_555
C12 C10 1_555 1_555
C13 C12 1_555 1_555
C14 C13 1_555 1_555
H7 C14 1_555 1_555
C15 C14 1_555 1_555
H8 C15 1_555 1_555
C16 C15 1_555 1_555
C17 C16 1_555 1_555
H9 C17 1_555 1_555
C18 C13 1_555 1_555
H10 C18 1_555 1_555
C19 C16 1_555 1_555
C20 C19 1_555 1_555
C21 C19 1_555 1_555
Ni1R O1R 1_555 1_555
Ni1V N3 1_555 1_555
Ni1L O1L 1_555 1_555
Ni1BA N9 1_555 1_555
Ni1BA_2 N6BA 1_555 1_555
Ni1A N9R 1_555 1_555
Ni1A_2 N6A 1_555 1_555
O1V Ni1V 1_555 1_555
N1R Ni2 1_555 1_555
N1V Ni2 1_555 1_555
N1L Ni2 1_555 1_555
N2R Ni1R 1_555 1_555
N2V Ni1V 1_555 1_555
N2L Ni1L 1_555 1_555
N3R Ni1 1_555 1_555
N3V Ni1L 1_555 1_555
N3L Ni1R 1_555 1_555
N4L N5 1_555 1_555
N4R Ni1R 1_555 1_555
N4V Ni1V 1_555 1_555
N5R Ni2 1_555 1_555
N6BA C10BA 1_555 1_555
N6R Ni1R 1_555 1_555
N6A C10A 1_555 1_555
N6V Ni1V 1_555 1_555
N6L Ni1L 1_555 1_555
N7BA C11BA 1_555 1_555
N7R C11R 1_555 1_555
N7A C11A 1_555 1_555
N8BA C20BA 1_555 1_555
N8R C20R 1_555 1_555
N8A C20A 1_555 1_555
N9BA Ni1 1_555 1_555
N9R C21R 1_555 1_555
N9A Ni1R 1_555 1_555
N9G Ni1V 1_555 1_555
N9P Ni1L 1_555 1_555
C1R N2R 1_555 1_555
C1V N2V 1_555 1_555
C1L N2L 1_555 1_555
C2R C1R 1_555 1_555
C2V C1V 1_555 1_555
C2L C1L 1_555 1_555
H1R C2R 1_555 1_555
H1V C2V 1_555 1_555
H1L C2L 1_555 1_555
C3R C2R 1_555 1_555
C3V C2V 1_555 1_555
C3L C2L 1_555 1_555
H2R C3R 1_555 1_555
H2V C3V 1_555 1_555
H2L C3L 1_555 1_555
C4R C3R 1_555 1_555
C4V C3V 1_555 1_555
C4L C3L 1_555 1_555
H3R C4R 1_555 1_555
H3V C4V 1_555 1_555
H3L C4L 1_555 1_555
C5R C4R 1_555 1_555
C5V C4V 1_555 1_555
C5L C4L 1_555 1_555
H4R C5R 1_555 1_555
H4V C5V 1_555 1_555
H4L C5L 1_555 1_555
C6R N3R 1_555 1_555
C6V N3V 1_555 1_555
C6L N3L 1_555 1_555
C7L C7 1_555 1_555
C7R N4R 1_555 1_555
C7V N4V 1_555 1_555
C8L C7L 1_555 1_555
C8R C7R 1_555 1_555
C8V C7V 1_555 1_555
H5L C8L 1_555 1_555
H5R C8R 1_555 1_555
H5V C8V 1_555 1_555
C9L C9 1_555 1_555
C9R C8R 1_555 1_555
C9V C8V 1_555 1_555
H6L C9L 1_555 1_555
H6R C9R 1_555 1_555
H6V C9V 1_555 1_555
C10BA C12BA 1_555 1_555
C10R N6R 1_555 1_555
C10A C12A 1_555 1_555
C11BA C12BA 1_555 1_555
C11R C12R 1_555 1_555
C11A C12A 1_555 1_555
C12BA C13BA 1_555 1_555
C12R C10R 1_555 1_555
C12A C13A 1_555 1_555
C13BA C14BA 1_555 1_555
C13R C12R 1_555 1_555
C13A C14A 1_555 1_555
C14BA H7BA 1_555 1_555
C14R C13R 1_555 1_555
C14A H7A 1_555 1_555
H7R C14R 1_555 1_555
C15BA C14BA 1_555 1_555
C15R C14R 1_555 1_555
C15A C14A 1_555 1_555
H8BA C15BA 1_555 1_555
H8R C15R 1_555 1_555
H8A C15A 1_555 1_555
C16BA C15BA 1_555 1_555
C16R C15R 1_555 1_555
C16A C15A 1_555 1_555
C17BA C16BA 1_555 1_555
C17R C16R 1_555 1_555
C17A C16A 1_555 1_555
H9BA C17BA 1_555 1_555
H9R C17R 1_555 1_555
H9A C17A 1_555 1_555
C18BA C13BA 1_555 1_555
C18R C13R 1_555 1_555
C18A C13A 1_555 1_555
H10BA C18BA 1_555 1_555
H10R C18R 1_555 1_555
H10A C18A 1_555 1_555
C19BA C16BA 1_555 1_555
C19R C16R 1_555 1_555
C19A C16A 1_555 1_555
C20BA C19BA 1_555 1_555
C20R C19R 1_555 1_555
C20A C19A 1_555 1_555
C21BA N9BA 1_555 1_555
C21R C19R 1_555 1_555
C21A N9A 1_555 1_555
N4 N5 1_555 1_555
C1 C6 1_555 1_555
C5 C6 1_555 1_555
C17 C18 1_555 1_555
Ni1L N4L 1_555 1_555
N1R N2R 1_555 1_555
N1R N3R 1_555 1_555
N1V N2V 1_555 1_555
N1V N3V 1_555 1_555
N1L N2L 1_555 1_555
N1L N3L 1_555 1_555
N4L C7L 1_555 1_555
N4R N5R 1_555 1_555
N4V N5R 1_555 1_555
C1R C6R 1_555 1_555
C1V C6V 1_555 1_555
C1L C6L 1_555 1_555
C5R C6R 1_555 1_555
C5V C6V 1_555 1_555
C5L C6L 1_555 1_555
C7R C7V 1_555 1_555
C8L C9L 1_555 1_555
C9R C9V 1_555 1_555
C17BA C18BA 1_555 1_555
C17R C18R 1_555 1_555
C17A C18A 1_555 1_555
C19BA C21BA 1_555 1_555
C19A C21A 1_555 1_555

#END
