
#######################################################################
#
#                 Cambridge Crystallographic Data Centre
#                                CCDC 
#
#######################################################################
#
# If this CIF has been generated from an entry in the Cambridge 
# Structural Database, then it will include bibliographic, chemical, 
# crystal, experimental, refinement or atomic coordinate data resulting 
# from the CCDC's data processing and validation procedures.
#
#######################################################################

data_RUTPAY
_chemical_formula_moiety         '(C84 H63 I6 N9 O13 Pd3 Zn4)n'
_symmetry_cell_setting           rhombohedral
_symmetry_space_group_name_H-M   'R -3 c'
_symmetry_Int_Tables_number      167
_space_group_name_Hall           '-R 3 2"c'
loop_
_symmetry_equiv_pos_site_id
_symmetry_equiv_pos_as_xyz
1 x,y,z
2 -y,x-y,z
3 -x+y,-x,z
4 y,x,1/2-z
5 x-y,-y,1/2-z
6 -x,-x+y,1/2-z
7 2/3+x,1/3+y,1/3+z
8 2/3-y,1/3+x-y,1/3+z
9 2/3-x+y,1/3-x,1/3+z
10 2/3+y,1/3+x,5/6-z
11 2/3+x-y,1/3-y,5/6-z
12 2/3-x,1/3-x+y,5/6-z
13 1/3+x,2/3+y,2/3+z
14 1/3-y,2/3+x-y,2/3+z
15 1/3-x+y,2/3-x,2/3+z
16 1/3+y,2/3+x,1/6-z
17 1/3+x-y,2/3-y,1/6-z
18 1/3-x,2/3-x+y,1/6-z
19 -x,-y,-z
20 y,-x+y,-z
21 x-y,x,-z
22 -y,-x,1/2+z
23 -x+y,y,1/2+z
24 x,x-y,1/2+z
25 1/3-x,2/3-y,2/3-z
26 1/3+y,2/3-x+y,2/3-z
27 1/3+x-y,2/3+x,2/3-z
28 1/3-y,2/3-x,1/6+z
29 1/3-x+y,2/3+y,1/6+z
30 1/3+x,2/3+x-y,1/6+z
31 2/3-x,1/3-y,1/3-z
32 2/3+y,1/3-x+y,1/3-z
33 2/3+x-y,1/3+x,1/3-z
34 2/3-y,1/3-x,5/6+z
35 2/3-x+y,1/3+y,5/6+z
36 2/3+x,1/3+x-y,5/6+z
_cell_length_a                   31.0845(4)
_cell_length_b                   31.0845(4)
_cell_length_c                   71.018(2)
_cell_angle_alpha                90
_cell_angle_beta                 90
_cell_angle_gamma                120
_cell_volume                     59427.4
loop_
_atom_site_label
_atom_site_type_symbol
_atom_site_fract_x
_atom_site_fract_y
_atom_site_fract_z
C1 C -0.6134(11) -0.3846(10) 0.1188(5)
C2 C -0.5939(10) -0.4069(10) 0.1504(6)
H1 H -0.6150 -0.3969 0.1555
C3 C -0.5692(13) -0.4227(12) 0.1626(4)
H2 H -0.5727 -0.4219 0.1756
C4 C -0.5395(12) -0.4397(10) 0.1549(5)
C5 C -0.5351(10) -0.4407(10) 0.1366(4)
H3 H -0.5149 -0.4519 0.1315
C6 C -0.5603(11) -0.4249(11) 0.1245(5)
H4 H -0.5578 -0.4275 0.1116
C7 C -0.5887(11) -0.4055(10) 0.1315(5)
C8 C -0.5141(14) -0.4576(14) 0.1674(5)
C9 C -0.5087(13) -0.5308(13) 0.1763(5)
H5 H -0.5212 -0.5648 0.1750
C10 C -0.5271(12) -0.5069(14) 0.1647(4)
H6 H -0.5485 -0.5246 0.1548
C11 C -0.461(2) -0.4542(18) 0.1941(6)
C12 C -0.3863(19) -0.6097(18) 0.2291(6)
C13 C -0.4706(12) -0.5029(18) 0.1902(4)
C14 C -0.4250(14) -0.3742(15) 0.2023(7)
C15 C -0.4792(15) -0.431(2) 0.1809(6)
C16 C -0.4614(12) -0.3403(12) 0.1795(5)
H7 H -0.4617 -0.3425 0.1660
H8 H -0.4334 -0.3094 0.1834
H9 H -0.4915 -0.3419 0.1837
C17 C -0.4016(15) -0.4263(14) 0.2230(5)
H10 H -0.3794 -0.4372 0.2186
H11 H -0.4257 -0.4509 0.2313
H12 H -0.3830 -0.3955 0.2297
C18 C -0.4501(12) -0.5326(14) 0.2005(5)
C19 C -0.4549(17) -0.5969(14) 0.2191(5)
H13 H -0.4741 -0.6270 0.2252
C20 C -0.4010(14) -0.5136(12) 0.2001(4)
H14 H -0.3824 -0.4853 0.1929
C21 C -0.3744(15) -0.5335(15) 0.2102(5)
H15 H -0.3400 -0.5180 0.2106
C22 C -0.4055(17) -0.5779(14) 0.2192(4)
C23 C -0.4795(15) -0.5757(14) 0.2106(5)
H16 H -0.5137 -0.5894 0.2116
I1 I -0.46226(11) -0.33971(11) 0.23858(4)
I2 I -0.31489(12) -0.29699(14) 0.19405(6)
N1 N -0.4280(10) -0.4188(16) 0.2063(5)
N2 N -0.4576(13) -0.3826(17) 0.1878(4)
N3 N -0.3438(12) -0.2577(12) 0.2335(6)
C24 C -0.3279(17) -0.2608(12) 0.2515(6)
H17 H -0.3389 -0.2917 0.2570
C25 C -0.2957(17) -0.2177(18) 0.2612(4)
H18 H -0.2851 -0.2198 0.2732
C26 C -0.2793(16) -0.1716(13) 0.2529(6)
H19 H -0.2577 -0.1427 0.2594
C27 C -0.2951(18) -0.1685(11) 0.2349(6)
H20 H -0.2842 -0.1376 0.2294
C28 C -0.3274(15) -0.2115(17) 0.2252(4)
H21 H -0.3380 -0.2095 0.2132
O1 O -0.6667 -0.3333 0.0890(3)
O2 O -0.6400(7) -0.3722(6) 0.1276(2)
O3 O -0.6057(6) -0.3854(6) 0.1022(3)
O4 O -0.4148(7) -0.6505(12) 0.2355(3)
O5 O -0.3404(11) -0.5801(8) 0.2330(3)
Pd1 Pd -0.38604(11) -0.31585(11) 0.21750(4)
Zn1 Zn -0.6667 -0.3333 0.11634(7)
Zn2 Zn -0.62899(11) -0.36373(11) 0.07988(4)
C1B C -0.7712(15) -0.3866(11) 0.1188(5)
C1A C -0.6154(10) -0.2288(15) 0.1188(5)
C2B C -0.8130(14) -0.4061(10) 0.1504(6)
C2A C -0.5931(10) -0.1870(14) 0.1504(6)
H1B H -0.7819 -0.3850 0.1555
H1A H -0.6031 -0.2181 0.1555
C3B C -0.8535(18) -0.4308(13) 0.1626(4)
C3A C -0.5773(12) -0.1465(18) 0.1626(4)
H2B H -0.8492 -0.4273 0.1756
H2A H -0.5781 -0.1508 0.1756
C4B C -0.9002(16) -0.4605(12) 0.1549(5)
C4A C -0.5603(10) -0.0998(16) 0.1549(5)
C5B C -0.9056(14) -0.4649(10) 0.1366(4)
C5A C -0.5593(10) -0.0944(14) 0.1366(4)
H3B H -0.9370 -0.4851 0.1315
H3A H -0.5481 -0.0630 0.1315
C6B C -0.8646(16) -0.4397(11) 0.1245(5)
C6A C -0.5751(11) -0.1354(16) 0.1245(5)
H4B H -0.8697 -0.4422 0.1116
H4A H -0.5725 -0.1303 0.1116
C7B C -0.8168(15) -0.4113(11) 0.1315(5)
C7A C -0.5945(10) -0.1832(15) 0.1315(5)
C8B C -0.9435(20) -0.4859(14) 0.1674(5)
C8A C -0.5424(14) -0.0565(20) 0.1674(5)
C9B C -1.0221(18) -0.4913(13) 0.1763(5)
C9A C -0.4692(13) 0.0221(18) 0.1763(5)
H5B H -1.0436 -0.4788 0.1750
H5A H -0.4352 0.0436 0.1750
C10B C -0.9798(18) -0.4729(12) 0.1647(4)
C10A C -0.4931(14) -0.0202(18) 0.1647(4)
H6B H -0.9761 -0.4515 0.1548
H6A H -0.4754 -0.0239 0.1548
C11B C -0.9932(27) -0.539(2) 0.1941(6)
C11A C -0.5458(18) -0.0068(27) 0.1941(6)
C12B C -1.2234(26) -0.6137(19) 0.2291(6)
C12A C -0.3903(18) 0.2234(26) 0.2291(6)
C13B C -1.0323(22) -0.5294(12) 0.1902(4)
C13A C -0.4971(18) 0.0323(22) 0.1902(4)
C14B C -0.9492(21) -0.5750(14) 0.2023(7)
C14A C -0.6258(15) -0.0508(21) 0.2023(7)
C15B C -0.9518(25) -0.5208(15) 0.1809(6)
C15A C -0.569(2) -0.0482(25) 0.1809(6)
C16B C -0.8789(17) -0.5386(12) 0.1795(5)
C16A C -0.6597(12) -0.1211(17) 0.1795(5)
H7B H -0.8808 -0.5383 0.1660
H7A H -0.6575 -0.1192 0.1660
H8B H -0.8760 -0.5666 0.1834
H8A H -0.6906 -0.1240 0.1834
H9B H -0.8504 -0.5085 0.1837
H9A H -0.6581 -0.1496 0.1837
C17B C -1.0247(21) -0.5984(15) 0.2230(5)
C17A C -0.5737(14) 0.0247(21) 0.2230(5)
H10B H -1.0578 -0.6206 0.2186
H10A H -0.5628 0.0578 0.2186
H11B H -1.0252 -0.5743 0.2313
H11A H -0.5491 0.0252 0.2313
H12B H -1.0125 -0.6170 0.2297
H12A H -0.6045 0.0125 0.2297
C18B C -1.0825(18) -0.5499(12) 0.2005(5)
C18A C -0.4674(14) 0.0825(18) 0.2005(5)
C19B C -1.1420(22) -0.5451(17) 0.2191(5)
C19A C -0.4031(14) 0.1420(22) 0.2191(5)
H13B H -1.1529 -0.5259 0.2252
H13A H -0.3730 0.1529 0.2252
C20B C -1.1126(18) -0.5990(14) 0.2001(4)
C20A C -0.4864(12) 0.1126(18) 0.2001(4)
H14B H -1.1029 -0.6176 0.1929
H14A H -0.5147 0.1029 0.1929
C21B C -1.1591(21) -0.6256(15) 0.2102(5)
C21A C -0.4665(15) 0.1591(21) 0.2102(5)
H15B H -1.1780 -0.6600 0.2106
H15A H -0.4820 0.1780 0.2106
C22B C -1.1724(22) -0.5945(17) 0.2192(4)
C22A C -0.4221(14) 0.1724(22) 0.2192(4)
C23B C -1.0962(21) -0.5205(15) 0.2106(5)
C23A C -0.4243(14) 0.0962(21) 0.2106(5)
H16B H -1.0757 -0.4863 0.2116
H16A H -0.4106 0.0757 0.2116
I1B I -0.87745(16) -0.53774(11) 0.23858(4)
I1A I -0.66029(11) -0.12255(16) 0.23858(4)
I2B I -0.98210(18) -0.68511(12) 0.19405(6)
I2A I -0.70301(14) -0.01790(18) 0.19405(6)
N1B N -0.9908(19) -0.5720(10) 0.2063(5)
N1A N -0.5812(16) -0.0092(19) 0.2063(5)
N2B N -0.9250(21) -0.5424(13) 0.1878(4)
N2A N -0.6174(17) -0.0750(21) 0.1878(4)
N3B N -0.9139(17) -0.6562(12) 0.2335(6)
N3A N -0.7423(12) -0.0861(17) 0.2335(6)
C24B C -0.9329(21) -0.6721(17) 0.2515(6)
C24A C -0.7392(12) -0.0671(21) 0.2515(6)
H17B H -0.9528 -0.6611 0.2570
H17A H -0.7083 -0.0472 0.2570
C25B C -0.9220(25) -0.7043(17) 0.2612(4)
C25A C -0.7823(18) -0.0780(25) 0.2612(4)
H18B H -0.9347 -0.7149 0.2732
H18A H -0.7802 -0.0653 0.2732
C26B C -0.8923(21) -0.7207(16) 0.2529(6)
C26A C -0.8284(13) -0.1077(21) 0.2529(6)
H19B H -0.8850 -0.7423 0.2594
H19A H -0.8573 -0.1150 0.2594
C27B C -0.8734(21) -0.7049(18) 0.2349(6)
C27A C -0.8315(11) -0.1266(21) 0.2349(6)
H20B H -0.8534 -0.7158 0.2294
H20A H -0.8624 -0.1466 0.2294
C28B C -0.8841(23) -0.6726(15) 0.2252(4)
C28A C -0.7885(17) -0.1159(23) 0.2252(4)
H21B H -0.8715 -0.6620 0.2132
H21A H -0.7905 -0.1285 0.2132
O2B O -0.7322(9) -0.3600(7) 0.1276(2)
O2A O -0.6278(6) -0.2678(9) 0.1276(2)
O3A O -0.6146(6) -0.2203(8) 0.1022(3)
O3B O -0.7797(8) -0.3943(6) 0.1022(3)
O4HA O -0.5690(14) -0.3172(12) 0.0688(3)
O4GA O -0.6828(12) -0.2519(7) 0.0688(3)
O4IA O -0.7481(7) -0.4310(14) 0.0688(3)
O4B O -1.2357(14) -0.5852(7) 0.2355(3)
O4A O -0.3495(12) 0.2357(14) 0.2355(3)
O5IA O -0.6737(11) -0.4270(14) 0.0663(3)
O5HA O -0.5730(14) -0.2468(8) 0.0663(3)
O5GA O -0.7532(8) -0.3263(11) 0.0663(3)
O5B O -1.2397(14) -0.6596(11) 0.2330(3)
O5A O -0.4199(8) 0.2397(14) 0.2330(3)
Pd1B Pd -0.92981(16) -0.61396(11) 0.21750(4)
Pd1A Pd -0.68415(11) -0.07019(16) 0.21750(4)
Zn2BA Zn -0.40141(16) -0.69706(11) 0.24655(4)
Zn2A Zn -0.63627(11) -0.26526(16) 0.07988(4)
Zn2B Zn -0.73474(16) -0.37101(11) 0.07988(4)
Zn2CA Zn -0.29566(11) -0.59859(16) 0.24655(4)
Zn2CA_2 Zn -1.29566(11) -0.59859(16) 0.24655(4)
Zn2AA Zn -1.30294(11) -0.70434(11) 0.24655(4)
Zn2AA_2 Zn -0.30294(11) 0.29566(11) 0.24655(4)
Zn2BA_2 Zn -0.40141(16) 0.30294(11) 0.24655(4)
loop_
_geom_bond_atom_site_label_1
_geom_bond_atom_site_label_2
_geom_bond_site_symmetry_1
_geom_bond_site_symmetry_2
C1 C7 1_555 1_555
C2 H1 1_555 1_555
C3 C2 1_555 1_555
H2 C3 1_555 1_555
C4 C3 1_555 1_555
C5 C4 1_555 1_555
H3 C5 1_555 1_555
C6 C5 1_555 1_555
H4 C6 1_555 1_555
C7 C2 1_555 1_555
C8 C4 1_555 1_555
C9 H5 1_555 1_555
C10 C8 1_555 1_555
H6 C10 1_555 1_555
C11 C13 1_555 1_555
C12 C22 1_555 1_555
C13 C9 1_555 1_555
C14 N1 1_555 1_555
C15 C8 1_555 1_555
C16 H7 1_555 1_555
H8 C16 1_555 1_555
H9 C16 1_555 1_555
C17 H10 1_555 1_555
H11 C17 1_555 1_555
H12 C17 1_555 1_555
C18 C13 1_555 1_555
C19 H13 1_555 1_555
C20 C18 1_555 1_555
H14 C20 1_555 1_555
C21 C20 1_555 1_555
H15 C21 1_555 1_555
C22 C19 1_555 1_555
C23 C18 1_555 1_555
H16 C23 1_555 1_555
I1 Pd1 1_555 1_555
I2 Pd1 1_555 1_555
N1 C11 1_555 1_555
N2 C14 1_555 1_555
N3 C24 1_555 1_555
C24 H17 1_555 1_555
C25 C24 1_555 1_555
H18 C25 1_555 1_555
C26 C25 1_555 1_555
H19 C26 1_555 1_555
C27 C26 1_555 1_555
H20 C27 1_555 1_555
C28 N3 1_555 1_555
H21 C28 1_555 1_555
O1 Zn1 1_555 1_555
O2 C1 1_555 1_555
O3 C1 1_555 1_555
O4 C12 1_555 1_555
O5 C12 1_555 1_555
Pd1 C14 1_555 1_555
Zn1 O2 1_555 1_555
Zn2 O1 1_555 1_555
C1B C7B 1_555 1_555
C1A C7A 1_555 1_555
C2B H1B 1_555 1_555
C2A H1A 1_555 1_555
C3B C2B 1_555 1_555
C3A C2A 1_555 1_555
H2B C3B 1_555 1_555
H2A C3A 1_555 1_555
C4B C3B 1_555 1_555
C4A C3A 1_555 1_555
C5B C4B 1_555 1_555
C5A C4A 1_555 1_555
H3B C5B 1_555 1_555
H3A C5A 1_555 1_555
C6B C5B 1_555 1_555
C6A C5A 1_555 1_555
H4B C6B 1_555 1_555
H4A C6A 1_555 1_555
C7B C2B 1_555 1_555
C7A C2A 1_555 1_555
C8B C4B 1_555 1_555
C8A C4A 1_555 1_555
C9B H5B 1_555 1_555
C9A H5A 1_555 1_555
C10B C8B 1_555 1_555
C10A C8A 1_555 1_555
H6B C10B 1_555 1_555
H6A C10A 1_555 1_555
C11B C13B 1_555 1_555
C11A C13A 1_555 1_555
C12B C22B 1_555 1_555
C12A C22A 1_555 1_555
C13B C9B 1_555 1_555
C13A C9A 1_555 1_555
C14B N1B 1_555 1_555
C14A N1A 1_555 1_555
C15B C8B 1_555 1_555
C15A C8A 1_555 1_555
C16B H7B 1_555 1_555
C16A H7A 1_555 1_555
H8B C16B 1_555 1_555
H8A C16A 1_555 1_555
H9B C16B 1_555 1_555
H9A C16A 1_555 1_555
C17B H10B 1_555 1_555
C17A H10A 1_555 1_555
H11B C17B 1_555 1_555
H11A C17A 1_555 1_555
H12B C17B 1_555 1_555
H12A C17A 1_555 1_555
C18B C13B 1_555 1_555
C18A C13A 1_555 1_555
C19B H13B 1_555 1_555
C19A H13A 1_555 1_555
C20B C18B 1_555 1_555
C20A C18A 1_555 1_555
H14B C20B 1_555 1_555
H14A C20A 1_555 1_555
C21B C20B 1_555 1_555
C21A C20A 1_555 1_555
H15B C21B 1_555 1_555
H15A C21A 1_555 1_555
C22B C19B 1_555 1_555
C22A C19A 1_555 1_555
C23B C18B 1_555 1_555
C23A C18A 1_555 1_555
H16B C23B 1_555 1_555
H16A C23A 1_555 1_555
I1B Pd1B 1_555 1_555
I1A Pd1A 1_555 1_555
I2B Pd1B 1_555 1_555
I2A Pd1A 1_555 1_555
N1B C11B 1_555 1_555
N1A C11A 1_555 1_555
N2B C14B 1_555 1_555
N2A C14A 1_555 1_555
N3B C24B 1_555 1_555
N3A C24A 1_555 1_555
C24B H17B 1_555 1_555
C24A H17A 1_555 1_555
C25B C24B 1_555 1_555
C25A C24A 1_555 1_555
H18B C25B 1_555 1_555
H18A C25A 1_555 1_555
C26B C25B 1_555 1_555
C26A C25A 1_555 1_555
H19B C26B 1_555 1_555
H19A C26A 1_555 1_555
C27B C26B 1_555 1_555
C27A C26A 1_555 1_555
H20B C27B 1_555 1_555
H20A C27A 1_555 1_555
C28B N3B 1_555 1_555
C28A N3A 1_555 1_555
H21B C28B 1_555 1_555
H21A C28A 1_555 1_555
O2B Zn1 1_555 1_555
O2A Zn1 1_555 1_555
O3A C1A 1_555 1_555
O3B C1B 1_555 1_555
O4HA Zn2 1_555 1_555
O4GA Zn2A 1_555 1_555
O4IA Zn2B 1_555 1_555
O4B C12B 1_555 1_555
O4A C12A 1_555 1_555
O5IA Zn2 1_555 1_555
O5HA Zn2A 1_555 1_555
O5GA Zn2B 1_555 1_555
O5B C12B 1_555 1_555
O5A C12A 1_555 1_555
Pd1B C14B 1_555 1_555
Pd1A C14A 1_555 1_555
Zn2BA O4 1_555 1_555
Zn2A O1 1_555 1_555
Zn2B O1 1_555 1_555
Zn2CA O5 1_555 1_555
Zn2CA_2 O4B 1_555 1_555
Zn2AA O5B 1_555 1_555
Zn2AA_2 O4A 1_555 1_555
Zn2BA_2 O5A 1_555 1_555
C6 C7 1_555 1_555
C9 C10 1_555 1_555
C11 C15 1_555 1_555
C15 N2 1_555 1_555
C16 N2 1_555 1_555
C17 N1 1_555 1_555
C19 C23 1_555 1_555
C21 C22 1_555 1_555
N3 Pd1 1_555 1_555
C27 C28 1_555 1_555
O3 Zn2 1_555 1_555
C1B O2B 1_555 1_555
C1A O2A 1_555 1_555
C6B C7B 1_555 1_555
C6A C7A 1_555 1_555
C9B C10B 1_555 1_555
C9A C10A 1_555 1_555
C11B C15B 1_555 1_555
C11A C15A 1_555 1_555
C15B N2B 1_555 1_555
C15A N2A 1_555 1_555
C16B N2B 1_555 1_555
C16A N2A 1_555 1_555
C17B N1B 1_555 1_555
C17A N1A 1_555 1_555
C19B C23B 1_555 1_555
C19A C23A 1_555 1_555
C21B C22B 1_555 1_555
C21A C22A 1_555 1_555
N3B Pd1B 1_555 1_555
N3A Pd1A 1_555 1_555
C27B C28B 1_555 1_555
C27A C28A 1_555 1_555
O3A Zn2A 1_555 1_555
O3B Zn2B 1_555 1_555

#END
