
#######################################################################
#
#                 Cambridge Crystallographic Data Centre
#                                CCDC 
#
#######################################################################
#
# If this CIF has been generated from an entry in the Cambridge 
# Structural Database, then it will include bibliographic, chemical, 
# crystal, experimental, refinement or atomic coordinate data resulting 
# from the CCDC's data processing and validation procedures.
#
#######################################################################

data_BAXFUD
_chemical_formula_moiety         '(C12 H12 B1 F4 Fe1 N24 1+)n'
_symmetry_cell_setting           monoclinic
_symmetry_space_group_name_H-M   'P 21/n'
_symmetry_Int_Tables_number      14
_space_group_name_Hall           '-P 2yn'
loop_
_symmetry_equiv_pos_site_id
_symmetry_equiv_pos_as_xyz
1 x,y,z
2 1/2-x,1/2+y,1/2-z
3 -x,-y,-z
4 1/2+x,1/2-y,1/2+z
_cell_length_a                   8.1446(4)
_cell_length_b                   20.2603(8)
_cell_length_c                   8.8515(4)
_cell_angle_alpha                90
_cell_angle_beta                 90.061(3)
_cell_angle_gamma                90
_cell_volume                     1460.6
loop_
_atom_site_label
_atom_site_type_symbol
_atom_site_fract_x
_atom_site_fract_y
_atom_site_fract_z
Fe1 Fe 1.0000 1.0000 1.0000
N1 N 0.8570(4) 0.91870(12) 0.9045(4)
N2 N 0.6880(4) 0.91400(15) 0.9123(4)
N3 N 0.7910(5) 0.82140(15) 0.8310(4)
N4 N 0.8217(5) 0.75661(17) 0.7745(4)
N5 N 0.6920(5) 0.72924(18) 0.7761(4)
N6 N 0.7232(4) 0.66446(14) 0.7164(4)
N7 N 0.6490(4) 0.57345(13) 0.6143(3)
N8 N 0.8191(4) 0.57841(15) 0.6019(4)
N9 N 1.1625(3) 0.99635(14) 0.8042(3)
N10 N 1.0853(4) 0.99584(18) 0.6640(3)
N11 N 1.3490(3) 0.99880(15) 0.6310(3)
N12 N 1.5037(3) 1.00117(16) 0.5698(3)
C1 C 0.9134(6) 0.8631(2) 0.8543(5)
C2 C 0.6526(7) 0.8542(2) 0.8676(6)
C3 C 0.8583(6) 0.6343(2) 0.6627(5)
C4 C 0.5967(6) 0.6252(2) 0.6836(5)
C5 C 1.3195(4) 0.99851(18) 0.7815(4)
C6 C 1.1996(5) 0.9980(3) 0.5632(5)
H1 H 1.026(6) 0.852(2) 0.834(6)
H2 H 0.561(5) 0.8396(19) 0.850(4)
H3 H 0.969(5) 0.6468(18) 0.673(4)
H4 H 0.497(5) 0.632(2) 0.705(5)
H5 H 1.397(5) 0.9993(17) 0.855(4)
H6 H 1.182(6) 0.997(2) 0.467(6)
Fe1_2 Fe 2.0000 1.0000 0.0000
Fe1A Fe 0.5000 0.5000 0.5000
Fe1A_2 Fe 1.5000 1.5000 1.5000
N1B N 1.1430(4) 1.08130(12) 1.0955(4)
N2B N 1.3120(4) 1.08600(15) 1.0877(4)
N3B N 1.2090(5) 1.17860(15) 1.1690(4)
N4B N 1.1783(5) 1.24339(17) 1.2255(4)
N5B N 1.3080(5) 1.27076(18) 1.2239(4)
N6B N 1.2768(4) 1.33554(14) 1.2836(4)
N7B N 1.3510(4) 1.42655(13) 1.3857(3)
N7A N 0.8510(4) 1.07345(13) 0.8857(3)
N7C N 1.1490(4) 0.92655(13) 1.1143(3)
N8B N 1.1809(4) 1.42159(15) 1.3981(4)
N9B N 1.8375(3) 1.00365(14) 0.1958(3)
N9B_2 N 0.8375(3) 1.00365(14) 1.1958(3)
N10B N 1.9147(4) 1.00416(18) 0.3360(3)
N11B N 1.6510(3) 1.00120(15) 0.3690(3)
N12B N 1.4963(3) 0.99883(16) 0.4302(3)
C1B C 1.0866(6) 1.1369(2) 1.1457(5)
C2B C 1.3474(7) 1.1458(2) 1.1324(6)
C3B C 1.1417(6) 1.3657(2) 1.3373(5)
C4B C 1.4033(6) 1.3748(2) 1.3164(5)
C5B C 1.6805(4) 1.00149(18) 0.2185(4)
C6B C 1.8004(5) 1.0020(3) 0.4368(5)
H1B H 0.974(6) 1.148(2) 1.166(6)
H2B H 1.439(5) 1.1604(19) 1.150(4)
H3B H 1.031(5) 1.3532(18) 1.327(4)
H4B H 1.503(5) 1.368(2) 1.295(5)
H5B H 1.603(5) 1.0007(17) 0.145(4)
H6B H 1.818(6) 1.003(2) 0.533(6)
F1 F 0.2278(4) 0.67377(18) 0.7591(4)
F2 F 0.2217(7) 0.7587(2) 0.9166(5)
F3 F 0.3671(5) 0.6726(2) 0.9724(5)
F4 F 0.0952(6) 0.6703(3) 0.9736(6)
B1 B 0.2296(9) 0.6941(4) 0.9034(9)
loop_
_geom_bond_atom_site_label_1
_geom_bond_atom_site_label_2
_geom_bond_site_symmetry_1
_geom_bond_site_symmetry_2
Fe1 N1 1_555 1_555
F1 B1 1_555 1_555
F2 B1 1_555 1_555
F3 B1 1_555 1_555
F4 B1 1_555 1_555
N1 N2 1_555 1_555
N2 C2 1_555 1_555
N3 N4 1_555 1_555
N4 N5 1_555 1_555
N5 N6 1_555 1_555
N6 C3 1_555 1_555
N7 N8 1_555 1_555
N8 C3 1_555 1_555
N9 Fe1 1_555 1_555
N10 N9 1_555 1_555
N11 N12 1_555 1_555
N12 N12B 1_555 1_555
C1 N1 1_555 1_555
C2 N3 1_555 1_555
C3 H3 1_555 1_555
C4 N6 1_555 1_555
C5 N9 1_555 1_555
C6 N10 1_555 1_555
H1 C1 1_555 1_555
H2 C2 1_555 1_555
H4 C4 1_555 1_555
H5 C5 1_555 1_555
H6 C6 1_555 1_555
Fe1_2 N9B 1_555 1_555
Fe1A N7 1_555 1_555
Fe1A_2 N7B 1_555 1_555
N1B Fe1 1_555 1_555
N2B N1B 1_555 1_555
N3B N4B 1_555 1_555
N4B N5B 1_555 1_555
N5B N6B 1_555 1_555
N6B C3B 1_555 1_555
N7B N8B 1_555 1_555
N7A Fe1 1_555 1_555
N7C Fe1 1_555 1_555
N8B C3B 1_555 1_555
N9B N10B 1_555 1_555
N9B_2 Fe1 1_555 1_555
N10B C6B 1_555 1_555
N11B N12B 1_555 1_555
C1B N1B 1_555 1_555
C2B N2B 1_555 1_555
C3B H3B 1_555 1_555
C4B N6B 1_555 1_555
C5B N9B 1_555 1_555
C6B N11B 1_555 1_555
H1B C1B 1_555 1_555
H2B C2B 1_555 1_555
H4B C4B 1_555 1_555
H5B C5B 1_555 1_555
H6B C6B 1_555 1_555
N3 C1 1_555 1_555
N7 C4 1_555 1_555
N11 C5 1_555 1_555
N11 C6 1_555 1_555
N3B C1B 1_555 1_555
N3B C2B 1_555 1_555
N7B C4B 1_555 1_555
N11B C5B 1_555 1_555

#END
