
#######################################################################
#
#                 Cambridge Crystallographic Data Centre
#                                CCDC 
#
#######################################################################
#
# If this CIF has been generated from an entry in the Cambridge 
# Structural Database, then it will include bibliographic, chemical, 
# crystal, experimental, refinement or atomic coordinate data resulting 
# from the CCDC's data processing and validation procedures.
#
#######################################################################

data_BAXFIR
_chemical_formula_moiety         '(C12 H14 Cl1 Fe1 N24 O5 1+)n'
_symmetry_cell_setting           monoclinic
_symmetry_space_group_name_H-M   'P 21/n'
_symmetry_Int_Tables_number      14
_space_group_name_Hall           '-P 2yn'
loop_
_symmetry_equiv_pos_site_id
_symmetry_equiv_pos_as_xyz
1 x,y,z
2 1/2-x,1/2+y,1/2-z
3 -x,-y,-z
4 1/2+x,1/2-y,1/2+z
_cell_length_a                   8.1901(3)
_cell_length_b                   20.1869(7)
_cell_length_c                   8.9629(3)
_cell_angle_alpha                90
_cell_angle_beta                 90.8456(16)
_cell_angle_gamma                90
_cell_volume                     1481.7
loop_
_atom_site_label
_atom_site_type_symbol
_atom_site_fract_x
_atom_site_fract_y
_atom_site_fract_z
Fe1 Fe 0.0000 0.0000 0.0000
N1 N -0.1402(8) 0.0823(3) 0.0919(7)
N2 N -0.3063(8) 0.0888(4) 0.0765(9)
N3 N -0.2027(9) 0.1799(3) 0.1666(8)
N4 N -0.1739(10) 0.2439(4) 0.2248(9)
N5 N -0.3020(9) 0.2730(4) 0.2243(8)
N6 N -0.2733(8) 0.3367(3) 0.2834(8)
N7 N -0.3478(7) 0.4278(3) 0.3879(7)
N8 N -0.1792(8) 0.4237(3) 0.4000(8)
N9 N 0.1596(7) 0.0034(3) 0.1972(6)
N10 N 0.0844(8) 0.0029(3) 0.3332(7)
N11 N 0.3468(7) 0.0012(3) 0.3699(7)
N12 N 0.5032(7) 0.0000(3) 0.4307(7)
C1 C -0.0808(11) 0.1364(4) 0.1491(10)
H1 H 0.0283 0.1437 0.1739
C2 C -0.3397(12) 0.1479(5) 0.1227(12)
H2 H -0.4441 0.1659 0.1253
C3 C -0.4014(10) 0.3752(4) 0.3206(9)
H3 H -0.5106 0.3655 0.3010
C4 C -0.1393(10) 0.3685(4) 0.3373(10)
H4 H -0.0329 0.3528 0.3300
C5 C 0.3170(9) 0.0022(4) 0.2207(8)
H5 H 0.3959 0.0019 0.1471
C6 C 0.1988(9) 0.0016(4) 0.4373(9)
H6 H 0.1816 0.0010 0.5396
Fe1_2 Fe 1.0000 0.0000 1.0000
Fe1A Fe -0.5000 0.5000 0.5000
Fe1A_2 Fe 0.5000 -0.5000 -0.5000
N1B N 0.1402(8) -0.0823(3) -0.0919(7)
N2B N 0.3063(8) -0.0888(4) -0.0765(9)
N3B N 0.2027(9) -0.1799(3) -0.1666(8)
N4B N 0.1739(10) -0.2439(4) -0.2248(9)
N5B N 0.3020(9) -0.2730(4) -0.2243(8)
N6B N 0.2733(8) -0.3367(3) -0.2834(8)
N7B N 0.3478(7) -0.4278(3) -0.3879(7)
N7A N -0.1522(7) -0.0722(3) 0.1121(7)
N7C N 0.1522(7) 0.0722(3) -0.1121(7)
N8B N 0.1792(8) -0.4237(3) -0.4000(8)
N9B N 0.8404(7) -0.0034(3) 0.8028(6)
N9B_2 N -0.1596(7) -0.0034(3) -0.1972(6)
N10B N 0.9156(8) -0.0029(3) 0.6668(7)
N11B N 0.6532(7) -0.0012(3) 0.6301(7)
N12B N 0.4968(7) 0.0000(3) 0.5693(7)
C1B C 0.0808(11) -0.1364(4) -0.1491(10)
H1B H -0.0283 -0.1437 -0.1739
C2B C 0.3397(12) -0.1479(5) -0.1227(12)
H2B H 0.4441 -0.1659 -0.1253
C3B C 0.4014(10) -0.3752(4) -0.3206(9)
H3B H 0.5106 -0.3655 -0.3010
C4B C 0.1393(10) -0.3685(4) -0.3373(10)
H4B H 0.0329 -0.3528 -0.3300
C5B C 0.6830(9) -0.0022(4) 0.7793(8)
H5B H 0.6041 -0.0019 0.8529
C6B C 0.8012(9) -0.0016(4) 0.5627(9)
H6B H 0.8184 -0.0010 0.4604
Cl1 Cl -0.7706(4) 0.30658(16) 0.0921(3)
O1 O -0.7691(10) 0.3215(5) 0.2468(10)
O2 O -0.6306(13) 0.3296(6) 0.0286(12)
O3 O -0.9099(17) 0.3350(10) 0.0290(17)
O4 O -0.779(2) 0.2388(5) 0.0709(13)
O5 O -0.716(3) 0.1650(9) 0.367(3)
H7 H -0.7182 0.1956 0.2735
H8 H -0.6349 0.1319 0.3879
loop_
_geom_bond_atom_site_label_1
_geom_bond_atom_site_label_2
_geom_bond_site_symmetry_1
_geom_bond_site_symmetry_2
Fe1 N1 1_555 1_555
Cl1 O1 1_555 1_555
O2 Cl1 1_555 1_555
O3 Cl1 1_555 1_555
O4 Cl1 1_555 1_555
N1 N2 1_555 1_555
N2 C2 1_555 1_555
N3 N4 1_555 1_555
N4 N5 1_555 1_555
N5 N6 1_555 1_555
N6 C3 1_555 1_555
N7 N8 1_555 1_555
N8 C4 1_555 1_555
N9 Fe1 1_555 1_555
N10 N9 1_555 1_555
N11 N12 1_555 1_555
N12 N12B 1_555 1_555
C1 N1 1_555 1_555
H1 C1 1_555 1_555
C2 N3 1_555 1_555
H2 C2 1_555 1_555
C3 N7 1_555 1_555
H3 C3 1_555 1_555
C4 N6 1_555 1_555
H4 C4 1_555 1_555
C5 N9 1_555 1_555
H5 C5 1_555 1_555
C6 N10 1_555 1_555
H6 C6 1_555 1_555
O5 H7 1_555 1_555
H8 O5 1_555 1_555
Fe1_2 N9B 1_555 1_555
Fe1A N7 1_555 1_555
Fe1A_2 N7B 1_555 1_555
N1B Fe1 1_555 1_555
N2B N1B 1_555 1_555
N3B N4B 1_555 1_555
N4B N5B 1_555 1_555
N5B N6B 1_555 1_555
N6B C3B 1_555 1_555
N7B N8B 1_555 1_555
N7A Fe1 1_555 1_555
N7C Fe1 1_555 1_555
N8B C4B 1_555 1_555
N9B N10B 1_555 1_555
N9B_2 Fe1 1_555 1_555
N10B C6B 1_555 1_555
N11B N12B 1_555 1_555
C1B N1B 1_555 1_555
H1B C1B 1_555 1_555
C2B N2B 1_555 1_555
H2B C2B 1_555 1_555
C3B N7B 1_555 1_555
H3B C3B 1_555 1_555
C4B N6B 1_555 1_555
H4B C4B 1_555 1_555
C5B N9B 1_555 1_555
H5B C5B 1_555 1_555
C6B N11B 1_555 1_555
H6B C6B 1_555 1_555
N3 C1 1_555 1_555
N11 C5 1_555 1_555
N11 C6 1_555 1_555
N3B C1B 1_555 1_555
N3B C2B 1_555 1_555
N11B C5B 1_555 1_555

#END
