
#######################################################################
#
#                 Cambridge Crystallographic Data Centre
#                                CCDC 
#
#######################################################################
#
# If this CIF has been generated from an entry in the Cambridge 
# Structural Database, then it will include bibliographic, chemical, 
# crystal, experimental, refinement or atomic coordinate data resulting 
# from the CCDC's data processing and validation procedures.
#
#######################################################################

data_BAXFIR01
_chemical_formula_moiety         '(C12 H14 Cl1 Fe1 N24 O5 1+)n'
_symmetry_cell_setting           monoclinic
_symmetry_space_group_name_H-M   'P 21/n'
_symmetry_Int_Tables_number      14
_space_group_name_Hall           '-P 2yn'
loop_
_symmetry_equiv_pos_site_id
_symmetry_equiv_pos_as_xyz
1 x,y,z
2 1/2-x,1/2+y,1/2-z
3 -x,-y,-z
4 1/2+x,1/2-y,1/2+z
_cell_length_a                   8.0267(4)
_cell_length_b                   19.4307(9)
_cell_length_c                   8.9609(4)
_cell_angle_alpha                90
_cell_angle_beta                 93.286(4)
_cell_angle_gamma                90
_cell_volume                     1395.28
loop_
_atom_site_label
_atom_site_type_symbol
_atom_site_fract_x
_atom_site_fract_y
_atom_site_fract_z
Fe1 Fe 0.0000 0.0000 0.0000
N1 N -0.1328(5) 0.0764(2) 0.0806(4)
N2 N -0.3066(5) 0.0808(2) 0.0709(5)
N3 N -0.2018(5) 0.1748(2) 0.1708(5)
N4 N -0.1776(6) 0.2402(2) 0.2325(5)
N5 N -0.3115(6) 0.2723(2) 0.2258(5)
N6 N -0.2871(5) 0.3370(2) 0.2896(4)
N7 N -0.3635(5) 0.4289(2) 0.4045(4)
N8 N -0.1893(6) 0.4240(2) 0.4226(5)
N9 N 0.1472(5) 0.0033(2) 0.1876(4)
N10 N 0.0711(5) 0.0068(2) 0.3250(5)
N11 N 0.3422(5) 0.0037(2) 0.3658(5)
N12 N 0.5029(5) 0.0008(2) 0.4309(5)
C1 C -0.0733(7) 0.1325(3) 0.1431(6)
H1 H 0.0415 0.1421 0.1656
C2 C -0.3447(7) 0.1401(3) 0.1256(6)
H2 H -0.4550 0.1570 0.1331
C3 C -0.4182(7) 0.3764(3) 0.3254(6)
H3 H -0.5320 0.3673 0.2974
C4 C -0.1485(7) 0.3681(3) 0.3552(6)
H4 H -0.0379 0.3511 0.3517
C5 C 0.3093(6) 0.0016(2) 0.2136(5)
H5 H 0.3899 -0.0008 0.1402
C6 C 0.1902(7) 0.0068(3) 0.4293(6)
H6 H 0.1748 0.0087 0.5336
Fe1_2 Fe 1.0000 -0.0000 1.0000
Fe1A Fe -0.5000 0.5000 0.5000
Fe1A_2 Fe 0.5000 -0.5000 -0.5000
N1B N 0.1328(5) -0.0764(2) -0.0806(4)
N2B N 0.3066(5) -0.0808(2) -0.0709(5)
N3B N 0.2018(5) -0.1748(2) -0.1708(5)
N4B N 0.1776(6) -0.2402(2) -0.2325(5)
N5B N 0.3115(6) -0.2723(2) -0.2258(5)
N6B N 0.2871(5) -0.3370(2) -0.2896(4)
N7B N 0.3635(5) -0.4289(2) -0.4045(4)
N7A N -0.1365(5) -0.0711(2) 0.0955(4)
N7C N 0.1365(5) 0.0711(2) -0.0955(4)
N8B N 0.1893(6) -0.4240(2) -0.4226(5)
N9B N 0.8528(5) -0.0033(2) 0.8124(4)
N9B_2 N -0.1472(5) -0.0033(2) -0.1876(4)
N10B N 0.9289(5) -0.0068(2) 0.6750(5)
N11B N 0.6578(5) -0.0037(2) 0.6342(5)
N12B N 0.4971(5) -0.0008(2) 0.5691(5)
C1B C 0.0733(7) -0.1325(3) -0.1431(6)
H1B H -0.0415 -0.1421 -0.1656
C2B C 0.3447(7) -0.1401(3) -0.1256(6)
H2B H 0.4550 -0.1570 -0.1331
C3B C 0.4182(7) -0.3764(3) -0.3254(6)
H3B H 0.5320 -0.3673 -0.2974
C4B C 0.1485(7) -0.3681(3) -0.3552(6)
H4B H 0.0379 -0.3511 -0.3517
C5B C 0.6907(6) -0.0016(2) 0.7864(5)
H5B H 0.6101 0.0008 0.8598
C6B C 0.8098(7) -0.0068(3) 0.5707(6)
H6B H 0.8252 -0.0087 0.4664
Cl1 Cl -0.3253(3) 0.18283(9) 0.58883(19)
O1 O -0.2858(5) 0.1793(2) 0.7471(5)
O2 O -0.1979(8) 0.1488(3) 0.5145(6)
O3 O -0.4886(8) 0.1481(3) 0.5610(7)
O4 O -0.3434(8) 0.2513(3) 0.5443(6)
O5 O -0.6952(7) 0.1666(3) 0.2988(7)
H7 H -0.7098 0.1705 0.4088
H8 H -0.7154 0.2158 0.2692
loop_
_geom_bond_atom_site_label_1
_geom_bond_atom_site_label_2
_geom_bond_site_symmetry_1
_geom_bond_site_symmetry_2
Fe1 N1 1_555 1_555
Cl1 O1 1_555 1_555
O2 Cl1 1_555 1_555
O3 Cl1 1_555 1_555
O4 Cl1 1_555 1_555
N1 N2 1_555 1_555
N2 C2 1_555 1_555
N3 N4 1_555 1_555
N4 N5 1_555 1_555
N5 N6 1_555 1_555
N6 C3 1_555 1_555
N7 N8 1_555 1_555
N8 C4 1_555 1_555
N9 Fe1 1_555 1_555
N10 N9 1_555 1_555
N11 N12 1_555 1_555
N12 N12B 1_555 1_555
C1 N1 1_555 1_555
H1 C1 1_555 1_555
C2 N3 1_555 1_555
H2 C2 1_555 1_555
C3 N7 1_555 1_555
H3 C3 1_555 1_555
C4 N6 1_555 1_555
H4 C4 1_555 1_555
C5 N9 1_555 1_555
H5 C5 1_555 1_555
C6 N10 1_555 1_555
H6 C6 1_555 1_555
O5 H7 1_555 1_555
H8 O5 1_555 1_555
Fe1_2 N9B 1_555 1_555
Fe1A N7 1_555 1_555
Fe1A_2 N7B 1_555 1_555
N1B Fe1 1_555 1_555
N2B N1B 1_555 1_555
N3B N4B 1_555 1_555
N4B N5B 1_555 1_555
N5B N6B 1_555 1_555
N6B C3B 1_555 1_555
N7B N8B 1_555 1_555
N7A Fe1 1_555 1_555
N7C Fe1 1_555 1_555
N8B C4B 1_555 1_555
N9B N10B 1_555 1_555
N9B_2 Fe1 1_555 1_555
N10B C6B 1_555 1_555
N11B N12B 1_555 1_555
C1B N1B 1_555 1_555
H1B C1B 1_555 1_555
C2B N2B 1_555 1_555
H2B C2B 1_555 1_555
C3B N7B 1_555 1_555
H3B C3B 1_555 1_555
C4B N6B 1_555 1_555
H4B C4B 1_555 1_555
C5B N9B 1_555 1_555
H5B C5B 1_555 1_555
C6B N11B 1_555 1_555
H6B C6B 1_555 1_555
N3 C1 1_555 1_555
N11 C5 1_555 1_555
N11 C6 1_555 1_555
N3B C1B 1_555 1_555
N3B C2B 1_555 1_555
N11B C5B 1_555 1_555

#END
