
#######################################################################
#
#                 Cambridge Crystallographic Data Centre
#                                CCDC 
#
#######################################################################
#
# If this CIF has been generated from an entry in the Cambridge 
# Structural Database, then it will include bibliographic, chemical, 
# crystal, experimental, refinement or atomic coordinate data resulting 
# from the CCDC's data processing and validation procedures.
#
#######################################################################

data_BAXGAK
_chemical_formula_moiety         '(C12 H14 B1 F4 Fe1 N24 O1 1+)n'
_symmetry_cell_setting           monoclinic
_symmetry_space_group_name_H-M   'P 21/n'
_symmetry_Int_Tables_number      14
_space_group_name_Hall           '-P 2yn'
loop_
_symmetry_equiv_pos_site_id
_symmetry_equiv_pos_as_xyz
1 x,y,z
2 1/2-x,1/2+y,1/2-z
3 -x,-y,-z
4 1/2+x,1/2-y,1/2+z
_cell_length_a                   8.0112(2)
_cell_length_b                   19.4392(8)
_cell_length_c                   8.9648(3)
_cell_angle_alpha                90
_cell_angle_beta                 93.382(2)
_cell_angle_gamma                90
_cell_volume                     1393.67
loop_
_atom_site_label
_atom_site_type_symbol
_atom_site_fract_x
_atom_site_fract_y
_atom_site_fract_z
Fe1 Fe 0.0000 0.0000 1.0000
C1 C -0.3092(3) -0.00086(12) 0.7855(3)
C2 C -0.1907(3) -0.00449(13) 0.5714(3)
C3 C 0.4237(3) 0.36960(12) 0.6487(3)
C4 C 0.1514(3) 0.36417(13) 0.6380(3)
C5 C 0.0776(3) 0.12564(13) 0.8308(3)
C6 C 0.3475(3) 0.13674(13) 0.8654(3)
N1 N -0.1473(2) -0.00197(10) 0.8128(2)
N2 N -0.0716(2) -0.00444(10) 0.6756(2)
N3 N -0.3424(2) -0.00226(10) 0.6345(2)
N4 N -0.5024(2) -0.00049(10) 0.5690(2)
N5 N 0.1334(2) 0.07309(10) 0.9088(2)
N6 N 0.3070(2) 0.07955(10) 0.9294(2)
N7 N 0.2078(2) 0.16702(10) 0.8004(2)
N8 N 0.1834(3) 0.23147(10) 0.7358(2)
N9 N 0.3654(2) 0.42559(10) 0.5853(2)
N10 N 0.1906(2) 0.42259(10) 0.5796(2)
N11 N 0.2939(2) 0.32858(10) 0.6814(2)
N12 N 0.3168(3) 0.26386(10) 0.7442(2)
H1 H -0.388(3) 0.0010(11) 0.856(3)
H2 H -0.170(3) -0.0058(12) 0.472(4)
H3 H 0.534(3) 0.3580(13) 0.668(3)
H4 H 0.043(3) 0.3468(14) 0.650(3)
H5 H -0.027(3) 0.1364(14) 0.802(3)
H6 H 0.460(3) 0.1542(14) 0.860(3)
Fe1_2 Fe -1.0000 0.0000 0.0000
Fe1A Fe -0.5000 -0.5000 1.5000
Fe1A_2 Fe 0.5000 0.5000 0.5000
C1B C -0.6908(3) 0.00086(12) 0.2145(3)
C2B C -0.8093(3) 0.00449(13) 0.4286(3)
C3B C -0.4237(3) -0.36960(12) 1.3513(3)
C4B C -0.1514(3) -0.36417(13) 1.3620(3)
C5B C -0.0776(3) -0.12564(13) 1.1692(3)
C6B C -0.3475(3) -0.13674(13) 1.1346(3)
N1B N -0.8527(2) 0.00197(10) 0.1872(2)
N1B_2 N 0.1473(2) 0.00197(10) 1.1872(2)
N2B N -0.9284(2) 0.00444(10) 0.3244(2)
N3B N -0.6576(2) 0.00226(10) 0.3655(2)
N4B N -0.4976(2) 0.00049(10) 0.4310(2)
N5B N -0.1334(2) -0.07309(10) 1.0912(2)
N6B N -0.3070(2) -0.07955(10) 1.0706(2)
N7B N -0.2078(2) -0.16702(10) 1.1996(2)
N8B N -0.1834(3) -0.23147(10) 1.2642(2)
N9B N -0.3654(2) -0.42559(10) 1.4147(2)
N9A N 0.1346(2) -0.07441(10) 0.9147(2)
N9C N -0.1346(2) 0.07441(10) 1.0853(2)
N10B N -0.1906(2) -0.42259(10) 1.4204(2)
N11B N -0.2939(2) -0.32858(10) 1.3186(2)
N12B N -0.3168(3) -0.26386(10) 1.2558(2)
H1B H -0.612(3) -0.0010(11) 0.144(3)
H2B H -0.830(3) 0.0058(12) 0.528(4)
H3B H -0.534(3) -0.3580(13) 1.332(3)
H4B H -0.043(3) -0.3468(14) 1.350(3)
H5B H 0.027(3) -0.1364(14) 1.198(3)
H6B H -0.460(3) -0.1542(14) 1.140(3)
F1 F 0.7696(3) 0.14643(10) 0.5140(2)
F2 F 0.6467(3) 0.24912(8) 0.5519(2)
F3 F 0.70410(19) 0.17761(9) 0.74684(19)
F4 F 0.4984(3) 0.15104(10) 0.5719(2)
B1 B 0.6563(5) 0.18127(18) 0.5946(4)
O1 O 0.8020(3) 0.33189(13) 0.7992(3)
H7 H 0.865(5) 0.3342(19) 0.897(4)
H8 H 0.770(6) 0.2904(13) 0.788(6)
loop_
_geom_bond_atom_site_label_1
_geom_bond_atom_site_label_2
_geom_bond_site_symmetry_1
_geom_bond_site_symmetry_2
Fe1 N1 1_555 1_555
F1 B1 1_555 1_555
F2 B1 1_555 1_555
F3 B1 1_555 1_555
F4 B1 1_555 1_555
C1 N1 1_555 1_555
C2 N2 1_555 1_555
C3 N9 1_555 1_555
C4 N10 1_555 1_555
C5 N5 1_555 1_555
C6 N6 1_555 1_555
N1 N2 1_555 1_555
N3 C1 1_555 1_555
N4 N3 1_555 1_555
N5 Fe1 1_555 1_555
N6 N5 1_555 1_555
N7 C5 1_555 1_555
N8 N7 1_555 1_555
N9 N10 1_555 1_555
N11 C3 1_555 1_555
N12 N8 1_555 1_555
O1 H7 1_555 1_555
H1 C1 1_555 1_555
H2 C2 1_555 1_555
H3 C3 1_555 1_555
H4 C4 1_555 1_555
H5 C5 1_555 1_555
H6 C6 1_555 1_555
H8 O1 1_555 1_555
Fe1_2 N1B 1_555 1_555
Fe1A N9B 1_555 1_555
Fe1A_2 N9 1_555 1_555
C1B N1B 1_555 1_555
C2B N2B 1_555 1_555
C3B N9B 1_555 1_555
C4B N10B 1_555 1_555
C5B N5B 1_555 1_555
C6B N6B 1_555 1_555
N1B N2B 1_555 1_555
N1B_2 Fe1 1_555 1_555
N3B C1B 1_555 1_555
N4B N4 1_555 1_555
N5B Fe1 1_555 1_555
N6B N5B 1_555 1_555
N7B C5B 1_555 1_555
N8B N7B 1_555 1_555
N9B N10B 1_555 1_555
N9A Fe1 1_555 1_555
N9C Fe1 1_555 1_555
N11B C3B 1_555 1_555
N12B N8B 1_555 1_555
H1B C1B 1_555 1_555
H2B C2B 1_555 1_555
H3B C3B 1_555 1_555
H4B C4B 1_555 1_555
H5B C5B 1_555 1_555
H6B C6B 1_555 1_555
C2 N3 1_555 1_555
C4 N11 1_555 1_555
C6 N7 1_555 1_555
N11 N12 1_555 1_555
C2B N3B 1_555 1_555
C4B N11B 1_555 1_555
C6B N7B 1_555 1_555
N3B N4B 1_555 1_555
N11B N12B 1_555 1_555

#END
