
#######################################################################
#
#                 Cambridge Crystallographic Data Centre
#                                CCDC 
#
#######################################################################
#
# If this CIF has been generated from an entry in the Cambridge 
# Structural Database, then it will include bibliographic, chemical, 
# crystal, experimental, refinement or atomic coordinate data resulting 
# from the CCDC's data processing and validation procedures.
#
#######################################################################

data_DEMLAJ
_chemical_formula_moiety         'C16 H13 Cu6 N40 O2'
_symmetry_cell_setting           monoclinic
_symmetry_space_group_name_H-M   'C 2/m'
_symmetry_Int_Tables_number      12
_space_group_name_Hall           '-C 2y'
loop_
_symmetry_equiv_pos_site_id
_symmetry_equiv_pos_as_xyz
1 x,y,z
2 1/2+x,1/2+y,z
3 -x,y,-z
4 1/2-x,1/2+y,-z
5 -x,-y,-z
6 1/2-x,1/2-y,-z
7 x,-y,z
8 1/2+x,1/2-y,z
_cell_length_a                   21.5327(12)
_cell_length_b                   16.4443(9)
_cell_length_c                   14.8195(8)
_cell_angle_alpha                90
_cell_angle_beta                 92.5190(10)
_cell_angle_gamma                90
_cell_volume                     5242.37
loop_
_atom_site_label
_atom_site_type_symbol
_atom_site_fract_x
_atom_site_fract_y
_atom_site_fract_z
O1 O 0.1754(5) 0.0000 0.6978(7)
O2 O -0.0000 0.1897(18) 0.5000
Cu1 Cu 0.23728(3) 0.18740(4) 0.89460(4)
Cu2 Cu 0.18402(3) 0.18052(3) 0.49445(4)
Cu3 Cu 0.16364(3) 0.38983(3) 0.56412(4)
Cu4 Cu 0.09650(4) 0.5000 0.36915(5)
Cu5 Cu 0.11841(3) 0.38922(3) 0.17168(4)
Cu6 Cu 0.0000 0.33885(5) 0.0000
N1 N 0.21831(19) 0.2247(2) 0.7647(3)
N2 N 0.21381(19) 0.1758(2) 0.6926(3)
N3 N 0.19644(19) 0.2192(2) 0.6216(3)
N4 N 0.18833(19) 0.2973(2) 0.6468(3)
N5 N 0.20152(18) 0.0665(2) 0.4669(3)
N6 N 0.24125(17) 0.4604(2) 0.5495(3)
N7 N 0.15127(18) 0.2658(2) 0.4121(3)
N8 N 0.14595(18) 0.3441(2) 0.4381(3)
N9 N 0.12942(17) 0.3882(2) 0.3675(2)
N10 N 0.12389(17) 0.3401(2) 0.2940(2)
N11 N 0.0026(3) 0.5000 0.3768(4)
C1 C -0.0340(2) 0.4351(3) 0.3870(4)
N13 N 0.09153(18) 0.4590(2) 0.5984(3)
N14 N 0.19500(16) 0.4602(2) 0.1483(3)
N15 N 0.25349(17) 0.0667(2) 0.8896(3)
N16 N 0.04447(17) 0.4603(2) 0.1399(3)
N17 N -0.01125(17) 0.4331(2) 0.1077(3)
N18 N 0.08157(16) 0.2865(2) 0.0088(3)
N19 N 0.12683(16) 0.3057(2) 0.0705(3)
N20 N 0.32106(16) 0.2277(2) 0.9531(2)
N21 N 0.16870(17) 0.2310(2) 0.9700(3)
C2 C 0.2022(2) 0.2987(3) 0.7347(3)
C3 C 0.2003(4) 0.3726(4) 0.7915(4)
H1 H 0.2164 0.4179 0.7591
H2 H 0.2252 0.3642 0.8461
H3 H 0.1582 0.3835 0.8062
C4 C 0.1670(3) 0.0000 0.4763(5)
C5 C 0.0998(4) 0.0000 0.4918(9)
C6 C 0.1370(2) 0.2650(3) 0.3233(3)
C7 C 0.1342(3) 0.1910(3) 0.2665(4)
H7 H 0.0916 0.1759 0.2546
H8 H 0.1557 0.1475 0.2977
H9 H 0.1535 0.2016 0.2105
C9 C 0.2231(3) 0.0000 0.9115(5)
C10 C 0.1626(4) 0.0000 0.9575(8)
C11 C -0.0446(3) 0.5000 0.0905(4)
C12 C -0.1111(3) 0.5000 0.0566(5)
C13 C 0.1084(2) 0.2405(3) -0.0519(3)
C14 C 0.0756(3) 0.2065(5) -0.1334(5)
H19 H 0.0327 0.1980 -0.1214
H20 H 0.0943 0.1556 -0.1488
H21 H 0.0787 0.2439 -0.1827
N5E N 0.29848(18) 0.4335(2) 0.5331(3)
N5F N 0.20152(18) -0.0665(2) 0.4669(3)
N6E N 0.25875(17) 0.0396(2) 0.4505(3)
N6F N 0.24125(17) 0.5396(2) 0.5495(3)
N9F N 0.12942(17) 0.6118(2) 0.3675(2)
C1F C -0.0340(2) 0.5649(3) 0.3870(4)
C1B C 0.0340(2) 0.4351(3) 0.6130(4)
N13B N -0.09153(18) 0.4590(2) 0.4016(3)
N13F N 0.09153(18) 0.5410(2) 0.5984(3)
N14F N 0.19500(16) 0.5398(2) 0.1483(3)
N14E N 0.30500(16) 0.0398(2) 0.8517(3)
N15E N 0.24651(17) 0.4333(2) 0.1104(3)
N15F N 0.25349(17) -0.0667(2) 0.8896(3)
N16F N 0.04447(17) 0.5397(2) 0.1399(3)
N17B N 0.01125(17) 0.4331(2) -0.1077(3)
N17F N -0.01125(17) 0.5669(2) 0.1077(3)
N18B N -0.08157(16) 0.2865(2) -0.0088(3)
N19E N 0.37317(16) 0.1943(2) 0.9295(3)
N20E N 0.17894(16) 0.2723(2) 0.0469(2)
N20E_2 N 0.17894(16) 0.2723(2) 1.0469(2)
N21E N 0.33130(17) 0.2690(2) 1.0300(3)
N21_2 N 0.16870(17) 0.2310(2) -0.0300(3)
C13_2 C 0.1084(2) 0.2405(3) 0.9481(3)
loop_
_geom_bond_atom_site_label_1
_geom_bond_atom_site_label_2
_geom_bond_site_symmetry_1
_geom_bond_site_symmetry_2
Cu1 N1 1_555 1_555
Cu2 N3 1_555 1_555
Cu3 N4 1_555 1_555
Cu4 N9 1_555 1_555
Cu5 N10 1_555 1_555
Cu6 N17 1_555 1_555
N1 N2 1_555 1_555
N2 N3 1_555 1_555
N3 N4 1_555 1_555
N4 C2 1_555 1_555
N5 Cu2 1_555 1_555
N6 Cu3 1_555 1_555
N7 Cu2 1_555 1_555
N8 Cu3 1_555 1_555
N9 N8 1_555 1_555
N10 N9 1_555 1_555
N11 Cu4 1_555 1_555
C1 N11 1_555 1_555
N13 Cu3 1_555 1_555
N14 Cu5 1_555 1_555
N15 Cu1 1_555 1_555
N16 Cu5 1_555 1_555
N17 N16 1_555 1_555
N18 Cu6 1_555 1_555
N19 Cu5 1_555 1_555
N20 Cu1 1_555 1_555
N21 Cu1 1_555 1_555
C2 N1 1_555 1_555
C3 C2 1_555 1_555
H1 C3 1_555 1_555
H2 C3 1_555 1_555
H3 C3 1_555 1_555
C4 N5 1_555 1_555
C5 C4 1_555 1_555
C6 N7 1_555 1_555
C7 C6 1_555 1_555
H7 C7 1_555 1_555
H8 C7 1_555 1_555
H9 C7 1_555 1_555
C9 N15 1_555 1_555
C10 C9 1_555 1_555
C11 N17 1_555 1_555
C12 C11 1_555 1_555
C13 N18 1_555 1_555
C14 C13 1_555 1_555
H19 C14 1_555 1_555
H20 C14 1_555 1_555
H21 C14 1_555 1_555
N5E N6 1_555 1_555
N5F C4 1_555 1_555
N6E N5 1_555 1_555
N6F N6 1_555 1_555
N9F Cu4 1_555 1_555
C1F N11 1_555 1_555
C1B N13 1_555 1_555
N13B C1 1_555 1_555
N13F N13 1_555 1_555
N14F N14 1_555 1_555
N14E N15 1_555 1_555
N15E N14 1_555 1_555
N15F C9 1_555 1_555
N16F N16 1_555 1_555
N17B Cu6 1_555 1_555
N17F C11 1_555 1_555
N18B Cu6 1_555 1_555
N19E N20 1_555 1_555
N20E N19 1_555 1_555
N20E_2 N21 1_555 1_555
N21E N20 1_555 1_555
N21_2 C13 1_555 1_555
C13_2 N21 1_555 1_555
N7 N8 1_555 1_555
N10 C6 1_555 1_555
N18 N19 1_555 1_555
N16F N17F 1_555 1_555
N20E N21_2 1_555 1_555

#END
