
#######################################################################
#
#                 Cambridge Crystallographic Data Centre
#                                CCDC 
#
#######################################################################
#
# If this CIF has been generated from an entry in the Cambridge 
# Structural Database, then it will include bibliographic, chemical, 
# crystal, experimental, refinement or atomic coordinate data resulting 
# from the CCDC's data processing and validation procedures.
#
#######################################################################

data_HIWLUW
_chemical_formula_moiety         '(C9 H26 N2 O12 P4 Zn3)n'
_symmetry_cell_setting           monoclinic
_symmetry_space_group_name_H-M   'P 21'
_symmetry_Int_Tables_number      4
_space_group_name_Hall           'P 2yb'
loop_
_symmetry_equiv_pos_site_id
_symmetry_equiv_pos_as_xyz
1 x,y,z
2 -x,1/2+y,-z
_cell_length_a                   8.5595(4)
_cell_length_b                   13.5759(7)
_cell_length_c                   9.3231(5)
_cell_angle_alpha                90
_cell_angle_beta                 96.0240(10)
_cell_angle_gamma                90
_cell_volume                     1077.39
loop_
_atom_site_label
_atom_site_type_symbol
_atom_site_fract_x
_atom_site_fract_y
_atom_site_fract_z
Zn1 Zn 0.35885(6) 1.01862(4) 0.29844(5)
Zn2 Zn 0.59558(6) 1.13969(4) -0.09218(6)
Zn3 Zn 0.85052(6) 0.75917(4) 0.22691(6)
P1 P 0.64116(15) 0.95541(9) 0.12928(14)
P2 P 0.29432(15) 1.20248(9) 0.07469(13)
P3 P 1.21491(15) 0.79988(9) 0.25689(13)
P4 P 0.38997(15) 1.12217(9) 0.59978(13)
O1 O 0.6933(4) 1.0355(3) 0.0296(4)
O2 O 0.5705(4) 0.9952(3) 0.2590(4)
O3 O 0.7804(4) 0.8899(3) 0.1700(4)
O4 O 0.2730(4) 1.1317(3) 0.1976(4)
O5 O 0.1594(4) 1.1884(3) -0.0443(4)
O6 O 0.4528(4) 1.2032(3) 0.0200(4)
O7 O 1.0638(4) 0.7750(2) 0.3240(3)
O8 O 1.2422(4) 0.7345(3) 0.1303(4)
O9 O 1.2220(4) 0.9097(3) 0.2216(4)
O10 O 0.3332(4) 1.0357(2) 0.5027(3)
O11 O 0.5003(5) 1.0881(3) 0.7265(4)
O12 O 0.2544(5) 1.1814(3) 0.6411(4)
H1 H 0.5351 0.9077 0.0647
H2 H 0.2723 1.2885 0.1234
H3 H 1.3448 0.7835 0.3414
H4 H 0.4719 1.1807 0.5279
Zn1_2 Zn 1.35885(6) 1.01862(4) 0.29844(5)
Zn2_2 Zn 0.59558(6) 1.13969(4) 0.90782(6)
Zn2A Zn 1.40442(6) 0.63969(4) 0.09218(6)
Zn3A Zn 0.14948(6) 1.25917(4) -0.22691(6)
Zn3A_2 Zn 0.14948(6) 1.25917(4) 0.77309(6)
O5A O 0.8406(4) 0.6884(3) 0.0443(4)
O8A O 0.7578(4) 1.2345(3) -0.1303(4)
O9_2 O 0.2220(4) 0.9097(3) 0.2216(4)
O11_2 O 0.5003(5) 1.0881(3) -0.2735(4)
O12A O 0.7456(5) 0.6814(3) 0.3589(4)
N1 N 0.9872(5) 0.5099(3) -0.0050(4)
N2 N 0.9028(5) 0.4012(3) 0.4079(4)
C1 C 0.9890(6) 0.4472(3) 0.1279(5)
C2 C 1.0534(6) 0.5098(4) 0.2584(5)
C3 C 1.0606(6) 0.4536(4) 0.3993(5)
C4 C 0.8244(6) 0.3462(4) 0.2792(6)
C5 C 0.8241(6) 0.4115(4) 0.1471(5)
C6 C 1.1962(7) 0.3807(4) 0.4198(6)
C7 C 1.0760(6) 0.5263(4) 0.5238(5)
C8 C 0.9109(9) 0.2465(4) 0.2596(7)
C9 C 0.6537(7) 0.3280(5) 0.3106(7)
H5 H 0.9507 0.5633 0.0091
H6 H 1.0843 0.5215 -0.0213
H7 H 0.9245 0.4841 -0.0822
H8 H 0.9196 0.3610 0.4821
H9 H 0.8374 0.4361 0.4268
loop_
_geom_bond_atom_site_label_1
_geom_bond_atom_site_label_2
_geom_bond_site_symmetry_1
_geom_bond_site_symmetry_2
Zn1 O2 1_555 1_555
Zn2 O1 1_555 1_555
Zn3 O3 1_555 1_555
P1 O1 1_555 1_555
P2 O4 1_555 1_555
P3 O7 1_555 1_555
P4 O10 1_555 1_555
O2 P1 1_555 1_555
O3 P1 1_555 1_555
O4 Zn1 1_555 1_555
O5 P2 1_555 1_555
O6 Zn2 1_555 1_555
O7 Zn3 1_555 1_555
O8 P3 1_555 1_555
O9 P3 1_555 1_555
O10 Zn1 1_555 1_555
O11 P4 1_555 1_555
O12 P4 1_555 1_555
H1 P1 1_555 1_555
H2 P2 1_555 1_555
H3 P3 1_555 1_555
H4 P4 1_555 1_555
N1 C1 1_555 1_555
N2 C3 1_555 1_555
C1 C2 1_555 1_555
C2 C3 1_555 1_555
C3 C6 1_555 1_555
C4 N2 1_555 1_555
C5 C1 1_555 1_555
C7 C3 1_555 1_555
C8 C4 1_555 1_555
C9 C4 1_555 1_555
H5 N1 1_555 1_555
H6 N1 1_555 1_555
H7 N1 1_555 1_555
H8 N2 1_555 1_555
H9 N2 1_555 1_555
Zn1_2 O9 1_555 1_555
Zn2_2 O11 1_555 1_555
Zn2A O8 1_555 1_555
Zn3A O5 1_555 1_555
Zn3A_2 O12 1_555 1_555
O5A Zn3 1_555 1_555
O8A Zn2 1_555 1_555
O9_2 Zn1 1_555 1_555
O11_2 Zn2 1_555 1_555
O12A Zn3 1_555 1_555
P2 O6 1_555 1_555
C4 C5 1_555 1_555

#END
