
#######################################################################
#
#                 Cambridge Crystallographic Data Centre
#                                CCDC 
#
#######################################################################
#
# If this CIF has been generated from an entry in the Cambridge 
# Structural Database, then it will include bibliographic, chemical, 
# crystal, experimental, refinement or atomic coordinate data resulting 
# from the CCDC's data processing and validation procedures.
#
#######################################################################

data_HIWLEG
_chemical_formula_moiety         '(C6 H19 N2 O9 P3 Zn2)n'
_symmetry_cell_setting           orthorhombic
_symmetry_space_group_name_H-M   'P n a 21'
_symmetry_Int_Tables_number      33
_space_group_name_Hall           'P 2c -2n'
loop_
_symmetry_equiv_pos_site_id
_symmetry_equiv_pos_as_xyz
1 x,y,z
2 -x,-y,1/2+z
3 1/2+x,1/2-y,z
4 1/2-x,1/2+y,1/2+z
_cell_length_a                   10.68970(10)
_cell_length_b                   8.48570(10)
_cell_length_c                   17.2965(2)
_cell_angle_alpha                90
_cell_angle_beta                 90
_cell_angle_gamma                90
_cell_volume                     1568.96
loop_
_atom_site_label
_atom_site_type_symbol
_atom_site_fract_x
_atom_site_fract_y
_atom_site_fract_z
_atom_site_U_iso_or_equiv
_atom_site_thermal_displace_type
Zn1 Zn 0.86911(5) 0.62885(7) 0.30064(4) 0.0270 Uani
Zn2 Zn 1.08628(5) 0.35019(7) 0.13499(4) 0.0251 Uani
P1 P 1.14628(11) 0.65367(15) 0.23569(8) 0.0254 Uani
P2 P 0.97320(11) 0.53420(14) 0.46465(8) 0.0267 Uani
P3 P 0.80705(10) 0.39957(15) 0.16187(8) 0.0255 Uani
O1 O 1.0247(3) 0.7183(5) 0.2660(3) 0.0404 Uani
O2 O 1.2557(3) 0.6903(4) 0.2884(3) 0.0352 Uani
O3 O 1.1435(4) 0.4789(5) 0.2210(2) 0.0347 Uani
O4 O 0.9171(4) 0.5193(6) 0.5447(3) 0.0497 Uani
O5 O 0.8750(4) 0.5773(9) 0.4082(3) 0.0693 Uani
O6 O 1.0431(4) 0.3897(5) 0.4428(3) 0.0493 Uani
O7 O 0.9131(3) 0.2814(4) 0.1562(2) 0.0322 Uani
O8 O 0.7962(4) 0.4575(6) 0.2444(3) 0.0533 Uani
O9 O 0.6845(3) 0.3389(5) 0.1322(3) 0.0397 Uani
H1 H 1.1616 0.7167 0.1599 0.0500 Uiso
H2 H 1.0516 0.6210 0.4651 0.0500 Uiso
H3 H 0.8238 0.5029 0.1216 0.0500 Uiso
Zn1B Zn 1.36911(5) 0.87115(7) 0.30064(4) 0.0270 Uani
Zn2A Zn 0.91372(5) 0.64981(7) 0.63499(4) 0.0251 Uani
Zn2B Zn 0.58628(5) 0.14981(7) 0.13499(4) 0.0251 Uani
O2B O 0.7557(3) 0.8097(4) 0.2884(3) 0.0352 Uani
O4A O 1.0829(4) 0.4807(6) 0.0447(3) 0.0497 Uani
O9B O 1.1845(3) 0.1611(5) 0.1322(3) 0.0397 Uani
N1 N 0.8884(4) 0.0894(6) 0.3008(3) 0.0393 Uani
H4 H 0.8681 -0.0123 0.2928 0.0470 Uiso
H5 H 0.8652 0.1447 0.2588 0.0470 Uiso
N2 N 0.9990(6) 0.0907(6) 0.4515(3) 0.0423 Uani
H6 H 1.0142 0.1962 0.4525 0.0510 Uiso
C1 C 0.8606(7) 0.0687(10) 0.4407(5) 0.0613 Uani
H7 H 0.8416 -0.0428 0.4370 0.0740 Uiso
H8 H 0.8163 0.1111 0.4851 0.0740 Uiso
C2 C 0.8189(6) 0.1496(8) 0.3701(6) 0.0603 Uani
H9 H 0.8329 0.2620 0.3753 0.0720 Uiso
H10 H 0.7299 0.1326 0.3629 0.0720 Uiso
C3 C 1.0250(5) 0.1027(7) 0.3110(4) 0.0393 Uani
H11 H 1.0490 0.2129 0.3120 0.0470 Uiso
H12 H 1.0674 0.0526 0.2679 0.0470 Uiso
C4 C 1.0629(6) 0.0261(7) 0.3841(4) 0.0417 Uani
H13 H 1.0453 -0.0858 0.3807 0.0500 Uiso
H14 H 1.1525 0.0385 0.3908 0.0500 Uiso
C5 C 1.0725(12) 0.0142(16) 0.5215(7) 0.0970 Uiso
C6 C 1.0745(15) 0.1143(17) 0.5887(9) 0.1070 Uiso
loop_
_atom_site_aniso_label
_atom_site_aniso_U_11
_atom_site_aniso_U_22
_atom_site_aniso_U_33
_atom_site_aniso_U_23
_atom_site_aniso_U_13
_atom_site_aniso_U_12
Zn1 0.0195(3) 0.0288(3) 0.0327(3) -0.0008(2) -0.0016(2) 0.00219(19)
Zn2 0.0194(3) 0.0315(3) 0.0245(3) -0.0008(2) -0.0031(2) 0.0012(2)
P1 0.0171(5) 0.0293(6) 0.0297(7) -0.0009(5) -0.0023(5) -0.0028(4)
P2 0.0317(6) 0.0228(6) 0.0257(6) -0.0019(5) -0.0002(5) -0.0011(4)
P3 0.0175(5) 0.0217(6) 0.0374(7) 0.0019(5) 0.0008(5) -0.0023(4)
O1 0.0211(16) 0.039(2) 0.061(3) -0.001(2) 0.0058(16) -0.0038(15)
O2 0.0226 0.033 0.05 -0.0039 -0.0094 -0.0065
O3 0.041(2) 0.033(2) 0.0302(19) -0.0076(16) -0.0097(15) 0.0000(16)
O4 0.059 0.056 0.034 -0.01 0.01 -0.006
O5 0.042(3) 0.122(5) 0.044(3) 0.030(3) -0.005(2) 0.018(3)
O6 0.042(3) 0.029(2) 0.077(4) -0.005(2) 0.014(2) -0.0007(18)
O7 0.0194(15) 0.0273(19) 0.050(2) -0.0027(16) -0.0018(14) 0.0005(13)
O8 0.041(2) 0.059(3) 0.060(3) -0.027(2) 0.012(2) -0.018(2)
O9 0.0252 0.037 0.057 0.0052 -0.012 -0.0072
Zn1B 0.0195 0.0288 0.0327 0.0008 -0.0016 -0.00219
Zn2A 0.0194 0.0315 0.0245 0.0008 0.0031 0.0012
Zn2B 0.0194 0.0315 0.0245 0.0008 -0.0031 -0.0012
O2B 0.0226 0.033 0.05 0.0039 -0.0094 0.0065
O4A 0.059 0.056 0.034 0.01 -0.01 -0.006
O9B 0.0252 0.037 0.057 -0.0052 -0.012 0.0072
N1 0.043(2) 0.030(2) 0.045(3) 0.008(2) -0.019(2) -0.0052(18)
N2 0.069(3) 0.025(2) 0.033(3) 0.0025(18) -0.006(2) -0.006(2)
C1 0.056(4) 0.056(4) 0.072(5) -0.013(4) 0.038(4) -0.022(3)
C2 0.019(3) 0.038(3) 0.124(8) -0.012(4) 0.002(3) -0.001(2)
C3 0.037(3) 0.045(3) 0.036(3) -0.003(3) 0.008(2) -0.010(2)
C4 0.039(3) 0.035(3) 0.051(3) -0.004(3) -0.017(3) 0.004(2)
loop_
_geom_bond_atom_site_label_1
_geom_bond_atom_site_label_2
_geom_bond_site_symmetry_1
_geom_bond_site_symmetry_2
Zn1 O1 1_555 1_555
Zn2 O3 1_555 1_555
P1 O1 1_555 1_555
P2 O4 1_555 1_555
P3 O7 1_555 1_555
O2 P1 1_555 1_555
O3 P1 1_555 1_555
O4 Zn2A 1_555 1_555
O5 Zn1 1_555 1_555
O6 P2 1_555 1_555
O7 Zn2 1_555 1_555
O8 Zn1 1_555 1_555
O9 P3 1_555 1_555
H1 P1 1_555 1_555
H2 P2 1_555 1_555
H3 P3 1_555 1_555
N1 H4 1_555 1_555
H5 N1 1_555 1_555
N2 H6 1_555 1_555
C1 N2 1_555 1_555
H7 C1 1_555 1_555
H8 C1 1_555 1_555
C2 N1 1_555 1_555
H9 C2 1_555 1_555
H10 C2 1_555 1_555
C3 N1 1_555 1_555
H11 C3 1_555 1_555
H12 C3 1_555 1_555
C4 N2 1_555 1_555
H13 C4 1_555 1_555
H14 C4 1_555 1_555
C5 N2 1_555 1_555
C6 C5 1_555 1_555
Zn1B O2 1_555 1_555
Zn2B O9 1_555 1_555
O2B Zn1 1_555 1_555
O4A Zn2 1_555 1_555
O9B Zn2 1_555 1_555
P2 O5 1_555 1_555
P3 O8 1_555 1_555
C1 C2 1_555 1_555
C3 C4 1_555 1_555

#END
