
#######################################################################
#
#                 Cambridge Crystallographic Data Centre
#                                CCDC 
#
#######################################################################
#
# If this CIF has been generated from an entry in the Cambridge 
# Structural Database, then it will include bibliographic, chemical, 
# crystal, experimental, refinement or atomic coordinate data resulting 
# from the CCDC's data processing and validation procedures.
#
#######################################################################

data_HIWLIK
_chemical_formula_moiety         '(C6 H22 N2 O13 P4 Zn3)n'
_symmetry_cell_setting           orthorhombic
_symmetry_space_group_name_H-M   'P c a 21'
_symmetry_Int_Tables_number      29
_space_group_name_Hall           'P 2c -2ac'
loop_
_symmetry_equiv_pos_site_id
_symmetry_equiv_pos_as_xyz
1 x,y,z
2 -x,-y,1/2+z
3 1/2+x,-y,z
4 1/2-x,y,1/2+z
_cell_length_a                   10.3753(2)
_cell_length_b                   12.4036(3)
_cell_length_c                   15.7640(3)
_cell_angle_alpha                90
_cell_angle_beta                 90
_cell_angle_gamma                90
_cell_volume                     2028.69
loop_
_atom_site_label
_atom_site_type_symbol
_atom_site_fract_x
_atom_site_fract_y
_atom_site_fract_z
_atom_site_U_iso_or_equiv
_atom_site_thermal_displace_type
Zn1 Zn 0.05568(3) 0.73625(3) 0.40018(3) 0.0281 Uani
Zn2 Zn -0.24674(3) 0.08277(2) 0.08860(2) 0.0237 Uani
Zn3 Zn -0.24068(3) 0.40015(3) 0.21151(2) 0.0259 Uani
P1 P -0.46080(6) -0.06181(6) 0.00697(5) 0.0228 Uani
P2 P -0.28980(8) 0.32692(6) 0.01973(5) 0.0265 Uani
P3 P -0.23544(7) 0.16754(6) 0.27920(6) 0.0259 Uani
P4 P -0.02048(6) 0.53337(5) 0.29660(5) 0.0229 Uani
O1 O -0.3643(2) -0.04260(16) 0.07844(16) 0.0315 Uani
O2 O -0.5960(2) -0.02977(19) 0.03112(18) 0.0373 Uani
O3 O -0.4487(2) -0.1757(2) -0.02668(18) 0.0429 Uani
O4 O -0.2960(3) 0.3996(2) 0.0959(2) 0.0556 Uani
O5 O -0.3171(2) 0.21040(18) 0.0390(2) 0.0422 Uani
O6 O -0.1753(3) 0.3483(2) -0.0339(3) 0.0721 Uani
O7 O -0.1670(2) 0.27198(18) 0.25820(19) 0.0396 Uani
O8 O -0.2217(3) 0.08467(18) 0.2096(2) 0.0424 Uani
O9 O -0.3740(2) 0.18343(19) 0.30620(16) 0.0379 Uani
O10 O -0.10720(19) 0.51441(16) 0.22022(15) 0.0287 Uani
O11 O 0.1203(2) 0.53551(18) 0.27621(19) 0.0367 Uani
O12 O -0.0633(2) 0.63234(18) 0.34652(16) 0.0355 Uani
H1 H -0.4407 0.0142 -0.0444 0.0500 Uiso
H2 H -0.3746 0.3613 -0.0247 0.0500 Uiso
H3 H -0.1679 0.1268 0.3487 0.0500 Uiso
H4 H -0.0425 0.4510 0.3537 0.0500 Uiso
Zn1A Zn -0.05568(3) 0.26375(3) -0.09982(3) 0.0281 Uani
Zn1B Zn -0.44432(3) 0.26375(3) 0.40018(3) 0.0281 Uani
Zn1C Zn -0.55568(3) -0.26375(3) -0.09982(3) 0.0281 Uani
Zn2B Zn -0.74674(3) -0.08277(2) 0.08860(2) 0.0237 Uani
Zn3B Zn 0.25932(3) 0.59985(3) 0.21151(2) 0.0259 Uani
O2B O -0.0960(2) 0.02977(19) 0.03112(18) 0.0373 Uani
O3C O -0.0513(2) 0.8243(2) 0.47332(18) 0.0429 Uani
O6A O 0.1753(3) 0.6517(2) 0.4661(3) 0.0721 Uani
O9B O 0.1260(2) 0.81657(19) 0.30620(16) 0.0379 Uani
O11B O -0.3797(2) 0.46449(18) 0.27621(19) 0.0367 Uani
O13 O -0.2920(3) 0.5882(2) 0.4326(2) 0.0553 Uani
H5 H -0.2088 0.6027 0.4033 0.0500 Uiso
H6 H -0.3311 0.5341 0.4201 0.0500 Uiso
N1 N -0.1995(3) 0.6523(2) 0.0937(2) 0.0390 Uani
N2 N -0.2698(3) 0.8210(2) 0.2101(2) 0.0355 Uani
C1 C -0.3402(3) 0.7154(3) 0.2088(3) 0.0366 Uani
C2 C -0.3360(3) 0.6642(3) 0.1218(2) 0.0355 Uani
C3 C -0.1395(4) 0.7590(3) 0.0889(3) 0.0459 Uani
C4 C -0.1363(3) 0.8092(3) 0.1730(3) 0.0446 Uani
C5 C -0.2536(4) 0.8617(3) 0.3004(3) 0.0470 Uani
C6 C -0.3773(5) 0.8899(4) 0.3384(4) 0.0703 Uani
H7 H -0.4308 0.7367 0.2308 0.0500 Uiso
H8 H -0.3090 0.6701 0.2561 0.0500 Uiso
H9 H -0.3735 0.5989 0.1276 0.0500 Uiso
H10 H -0.3760 0.7077 0.0838 0.0500 Uiso
H11 H -0.0650 0.7561 0.0726 0.0500 Uiso
H12 H -0.1826 0.8154 0.0564 0.0500 Uiso
H13 H -0.0903 0.7725 0.2116 0.0500 Uiso
H14 H -0.1003 0.8815 0.1719 0.0500 Uiso
H15 H -0.1865 0.8114 0.3321 0.0500 Uiso
H16 H -0.1848 0.9207 0.2960 0.0500 Uiso
H17 H -0.4180 0.8139 0.3539 0.0500 Uiso
H18 H -0.4324 0.9376 0.2990 0.0500 Uiso
H19 H -0.3515 0.9394 0.3993 0.0500 Uiso
loop_
_atom_site_aniso_label
_atom_site_aniso_U_11
_atom_site_aniso_U_22
_atom_site_aniso_U_33
_atom_site_aniso_U_23
_atom_site_aniso_U_13
_atom_site_aniso_U_12
Zn1 0.03044(15) 0.02758(15) 0.02625(16) -0.00336(15) -0.00153(17) -0.00225(13)
Zn2 0.02346(14) 0.02005(13) 0.02748(19) -0.00096(13) 0.00083(13) -0.00141(11)
Zn3 0.02687(15) 0.02216(14) 0.0286(2) -0.00195(13) 0.00041(15) -0.00415(12)
P1 0.0212(3) 0.0250(3) 0.0223(4) 0.0023(3) 0.0003(3) -0.0007(2)
P2 0.0339(3) 0.0230(3) 0.0227(4) 0.0003(3) -0.0003(3) 0.0043(3)
P3 0.0320(3) 0.0226(3) 0.0230(4) -0.0004(3) -0.0013(3) 0.0032(3)
P4 0.0208(3) 0.0215(3) 0.0263(4) 0.0007(3) -0.0010(3) -0.0018(2)
O1 0.0302(10) 0.0273(9) 0.0370(14) 0.0030(9) -0.0098(9) -0.0070(8)
O2 0.0249 0.0391 0.0479 0.0057 0.0058 0.0022
O3 0.0516 0.0383 0.0389 -0.0139 -0.0153 0.0099
O4 0.089(2) 0.0457(15) 0.0321(17) -0.0086(13) -0.0086(18) 0.0155(14)
O5 0.0399(12) 0.0253(11) 0.0614(19) 0.0088(12) -0.0052(12) 0.0019(9)
O6 0.08 0.0463 0.09 -0.0059 0.058 -0.0056
O7 0.0303(11) 0.0266(11) 0.062(2) 0.0075(10) -0.0006(11) 0.0017(9)
O8 0.0699(16) 0.0316(11) 0.0258(14) -0.0059(11) 0.0030(14) 0.0088(11)
O9 0.0326 0.0408 0.0403 -0.0087 0.0053 -0.0025
O10 0.0302(10) 0.0259(9) 0.0299(13) -0.0002(9) -0.0065(9) -0.0069(8)
O11 0.0222 0.0371 0.0509 -0.0006 0.0023 -0.0016
O12 0.0301(10) 0.0345(11) 0.0420(15) -0.0141(11) 0.0027(10) -0.0021(8)
Zn1A 0.03044 0.02758 0.02625 0.00336 0.00153 -0.00225
Zn1B 0.03044 0.02758 0.02625 0.00336 -0.00153 0.00225
Zn1C 0.03044 0.02758 0.02625 -0.00336 0.00153 0.00225
Zn2B 0.02346 0.02005 0.02748 0.00096 0.00083 0.00141
Zn3B 0.02687 0.02216 0.0286 0.00195 0.00041 0.00415
O2B 0.0249 0.0391 0.0479 -0.0057 0.0058 -0.0022
O3C 0.0516 0.0383 0.0389 -0.0139 0.0153 -0.0099
O6A 0.08 0.0463 0.09 0.0059 -0.058 -0.0056
O9B 0.0326 0.0408 0.0403 0.0087 0.0053 0.0025
O11B 0.0222 0.0371 0.0509 0.0006 0.0023 0.0016
O13 0.0533(16) 0.0655(19) 0.0470(19) -0.0242(14) -0.0043(14) -0.0044(14)
N1 0.0479(15) 0.0331(13) 0.0361(17) 0.0015(13) 0.0050(15) 0.0099(12)
N2 0.0506(15) 0.0272(12) 0.0288(15) 0.0020(12) 0.0035(13) -0.0014(11)
C1 0.0405(16) 0.0292(14) 0.040(2) 0.0049(14) 0.0068(16) -0.0025(12)
C2 0.0401(16) 0.0316(15) 0.0348(19) 0.0017(14) -0.0083(14) -0.0027(13)
C3 0.0368(17) 0.0448(19) 0.056(3) 0.0108(19) 0.0138(19) 0.0065(14)
C4 0.0369(17) 0.0350(17) 0.062(3) 0.0118(17) -0.0178(17) -0.0052(14)
C5 0.059(2) 0.0380(19) 0.044(2) -0.0101(16) 0.0013(18) 0.0004(15)
C6 0.066(3) 0.063(3) 0.082(4) -0.015(3) 0.012(3) 0.009(2)
loop_
_geom_bond_atom_site_label_1
_geom_bond_atom_site_label_2
_geom_bond_site_symmetry_1
_geom_bond_site_symmetry_2
Zn1 O12 1_555 1_555
Zn2 O1 1_555 1_555
Zn3 O4 1_555 1_555
P1 O1 1_555 1_555
P2 O4 1_555 1_555
P3 O7 1_555 1_555
P4 O10 1_555 1_555
O2 P1 1_555 1_555
O3 P1 1_555 1_555
O5 Zn2 1_555 1_555
O6 P2 1_555 1_555
O7 Zn3 1_555 1_555
O8 Zn2 1_555 1_555
O9 P3 1_555 1_555
O10 Zn3 1_555 1_555
O11 P4 1_555 1_555
O12 P4 1_555 1_555
H1 P1 1_555 1_555
H2 P2 1_555 1_555
H3 P3 1_555 1_555
H4 P4 1_555 1_555
O13 H5 1_555 1_555
H6 O13 1_555 1_555
N1 C2 1_555 1_555
N2 C1 1_555 1_555
C1 C2 1_555 1_555
C2 H9 1_555 1_555
C3 N1 1_555 1_555
C4 N2 1_555 1_555
C5 N2 1_555 1_555
C6 C5 1_555 1_555
H7 C1 1_555 1_555
H8 C1 1_555 1_555
H10 C2 1_555 1_555
H11 C3 1_555 1_555
H12 C3 1_555 1_555
H13 C4 1_555 1_555
H14 C4 1_555 1_555
H15 C5 1_555 1_555
H16 C5 1_555 1_555
H17 C6 1_555 1_555
H18 C6 1_555 1_555
H19 C6 1_555 1_555
Zn1A O6 1_555 1_555
Zn1B O9 1_555 1_555
Zn1C O3 1_555 1_555
Zn2B O2 1_555 1_555
Zn3B O11 1_555 1_555
O2B Zn2 1_555 1_555
O3C Zn1 1_555 1_555
O6A Zn1 1_555 1_555
O9B Zn1 1_555 1_555
O11B Zn3 1_555 1_555
P2 O5 1_555 1_555
P3 O8 1_555 1_555
C3 C4 1_555 1_555

#END
