
#######################################################################
#
#                 Cambridge Crystallographic Data Centre
#                                CCDC 
#
#######################################################################
#
# If this CIF has been generated from an entry in the Cambridge 
# Structural Database, then it will include bibliographic, chemical, 
# crystal, experimental, refinement or atomic coordinate data resulting 
# from the CCDC's data processing and validation procedures.
#
#######################################################################

data_HIWLOQ
_chemical_formula_moiety         '(C12 H50 N4 O27 P8 Zn6)n'
_symmetry_cell_setting           monoclinic
_symmetry_space_group_name_H-M   'P 21'
_symmetry_Int_Tables_number      4
_space_group_name_Hall           'P 2yb'
loop_
_symmetry_equiv_pos_site_id
_symmetry_equiv_pos_as_xyz
1 x,y,z
2 -x,1/2+y,-z
_cell_length_a                   9.9462(3)
_cell_length_b                   20.9853(5)
_cell_length_c                   10.6098(3)
_cell_angle_alpha                90
_cell_angle_beta                 101.3310(10)
_cell_angle_gamma                90
_cell_volume                     2171.36
loop_
_atom_site_label
_atom_site_type_symbol
_atom_site_fract_x
_atom_site_fract_y
_atom_site_fract_z
Zn1 Zn 0.81809(5) 0.75986(2) 0.33598(4)
Zn2 Zn 1.27085(5) 0.60929(2) 0.19467(4)
Zn3 Zn 0.88066(5) 0.86401(2) -0.14441(4)
Zn4 Zn 1.66567(5) 0.51413(2) 0.29017(4)
Zn5 Zn 0.98936(6) 0.64154(2) -0.37849(5)
Zn6 Zn 1.06487(6) 0.98259(2) 0.14127(5)
P1 P 1.56896(12) 0.66079(5) 0.31877(11)
P2 P 1.84371(12) 0.44386(5) 0.11811(11)
P3 P 1.10040(11) 0.68252(5) 0.37366(10)
P4 P 1.36453(12) 0.46403(6) 0.16349(12)
P5 P 1.13130(13) 0.60181(5) -0.09747(10)
P6 P 0.92373(13) 0.85523(6) 0.15390(10)
P7 P 0.82114(12) 0.76569(6) -0.37878(10)
P8 P 1.19954(15) 1.02234(6) 0.42115(11)
O1 O 1.4229(4) 0.66359(19) 0.2476(5)
O2 O 1.6362(3) 0.72401(15) 0.3027(3)
O3 O 1.6488(4) 0.60556(17) 0.2830(4)
O4 O 1.8010(4) 0.50281(16) 0.1816(4)
O5 O 1.8252(4) 0.4506(2) -0.0253(3)
O6 O 1.9871(4) 0.4260(2) 0.1825(3)
O7 O 0.9582(4) 0.70146(17) 0.3039(3)
O8 O 1.1443(3) 0.62328(16) 0.3102(3)
O9 O 1.1122(4) 0.67583(19) 0.5163(3)
O10 O 1.2893(4) 0.51908(17) 0.2086(4)
O11 O 1.5141(4) 0.4609(2) 0.2217(6)
O12 O 1.2990(4) 0.40059(17) 0.1806(4)
O13 O 1.1872(4) 0.63934(16) 0.0239(3)
O14 O 1.1154(4) 0.64582(18) -0.2136(3)
O15 O 0.9995(4) 0.56738(16) -0.0882(3)
O16 O 0.8080(4) 0.82604(17) 0.2069(3)
O17 O 0.9376(4) 0.82682(16) 0.0258(3)
O18 O 0.9112(4) 0.92728(17) 0.1487(4)
O19 O 0.8303(4) 0.69430(16) -0.3845(3)
O20 O 0.8994(5) 0.79276(18) -0.2550(3)
O21 O 0.8658(4) 0.79773(16) -0.4941(3)
O22 O 1.2486(5) 0.98301(19) 0.5394(3)
O23 O 1.0650(4) 1.05467(17) 0.4285(4)
O24 O 1.1930(5) 0.9826(2) 0.3038(3)
H1 H 1.5834 0.6552 0.4485
H2 H 1.7386 0.3971 0.1230
H3 H 1.2203 0.7342 0.3516
H4 H 1.3640 0.4593 0.0350
H5 H 1.2153 0.5569 -0.1129
H6 H 1.0085 0.8451 0.2150
H7 H 0.6675 0.7805 -0.3903
H8 H 1.2773 1.0646 0.4308
Zn1_2 Zn 0.81809(5) 0.75986(2) -0.66402(4)
Zn1_3 Zn 1.81809(5) 0.75986(2) 0.33598(4)
Zn3A Zn 1.11934(5) 0.36401(2) 0.14441(4)
Zn3A_2 Zn 2.11934(5) 0.36401(2) 0.14441(4)
Zn4A Zn 1.33433(5) 1.01413(2) 0.70983(4)
Zn5_2 Zn 0.98936(6) 0.64154(2) 0.62151(5)
Zn5A Zn 1.01064(6) 1.14154(2) 0.37849(5)
Zn6A Zn 0.93513(6) 0.48259(2) -0.14127(5)
Zn6A_2 Zn 1.93513(6) 0.48259(2) -0.14127(5)
O2_2 O 0.6362(3) 0.72401(15) 0.3027(3)
O5A O 1.1748(4) 0.9506(2) 0.0253(3)
O6A O 1.0129(4) 0.9260(2) -0.1825(3)
O9_2 O 1.1122(4) 0.67583(19) -0.4837(3)
O12A O 0.7010(4) 0.90059(17) -0.1806(4)
O15A O 1.0005(4) 1.06738(16) 0.0882(3)
O21_2 O 0.8658(4) 0.79773(16) 0.5059(3)
O22A O 1.7514(5) 0.48301(19) 0.4606(3)
O23A O 0.9350(4) 0.55467(17) -0.4285(4)
C1 C 1.7544(7) 0.6743(3) 0.0072(6)
C2 C 1.6563(10) 0.6479(5) -0.0933(11)
C3 C 1.5847(10) 0.5870(5) -0.0752(9)
C4 C 1.5734(13) 0.6997(6) -0.1802(13)
C5 C 1.4391(12) 0.7095(7) -0.1690(13)
C6 C 1.3746(10) 0.7612(5) -0.2728(13)
N1 N 1.8480(4) 0.6279(2) 0.0854(4)
N2 N 1.2388(7) 0.7678(3) -0.2536(6)
H9 H 1.9075 0.6488 0.1449
H10 H 1.8934 0.6063 0.0348
H11 H 1.7996 0.6010 0.1235
H12 H 1.1939 0.7961 -0.3093
H13 H 1.2393 0.7813 -0.1738
H14 H 1.1956 0.7304 -0.2656
C7 C 1.2026(7) 0.4540(3) 0.4975(7)
C8 C 1.3184(11) 0.4845(5) 0.5750(12)
C9 C 1.3753(14) 0.5394(4) 0.5652(13)
C10 C 1.4122(15) 0.4382(7) 0.6600(14)
C11 C 1.4814(15) 0.3949(7) 0.622(2)
C12 C 1.6120(13) 0.3568(5) 0.6915(15)
N3 N 1.1030(4) 0.4972(2) 0.4094(4)
N4 N 1.5721(8) 0.3199(3) 0.7935(7)
H15 H 1.0358 0.4741 0.3640
H16 H 1.1472 0.5178 0.3563
H17 H 1.0679 0.5256 0.4567
H18 H 1.6434 0.2969 0.8334
H19 H 1.5030 0.2940 0.7619
H20 H 1.5463 0.3465 0.8499
O25 O 1.1941(4) 0.77168(19) 0.0208(4)
O26 O 1.1344(6) 0.8508(2) 0.5490(6)
O27 O 1.4364(14) 0.3403(6) 0.9886(12)
loop_
_geom_bond_atom_site_label_1
_geom_bond_atom_site_label_2
_geom_bond_site_symmetry_1
_geom_bond_site_symmetry_2
Zn1 O7 1_555 1_555
Zn2 O1 1_555 1_555
Zn3 O17 1_555 1_555
Zn4 O3 1_555 1_555
Zn5 O14 1_555 1_555
Zn6 O18 1_555 1_555
P1 O1 1_555 1_555
P2 O4 1_555 1_555
P3 O7 1_555 1_555
P4 O10 1_555 1_555
P5 O13 1_555 1_555
P6 O16 1_555 1_555
P7 O19 1_555 1_555
P8 O22 1_555 1_555
O2 P1 1_555 1_555
O3 P1 1_555 1_555
O4 Zn4 1_555 1_555
O5 P2 1_555 1_555
O6 P2 1_555 1_555
O8 Zn2 1_555 1_555
O9 P3 1_555 1_555
O10 Zn2 1_555 1_555
O11 Zn4 1_555 1_555
O12 P4 1_555 1_555
O13 Zn2 1_555 1_555
O14 P5 1_555 1_555
O15 P5 1_555 1_555
O16 Zn1 1_555 1_555
O17 P6 1_555 1_555
O18 P6 1_555 1_555
O19 Zn5 1_555 1_555
O20 Zn3 1_555 1_555
O21 P7 1_555 1_555
O22 Zn4A 1_555 1_555
O23 P8 1_555 1_555
O24 Zn6 1_555 1_555
H1 P1 1_555 1_555
H2 P2 1_555 1_555
H3 P3 1_555 1_555
H4 P4 1_555 1_555
H5 P5 1_555 1_555
H6 P6 1_555 1_555
H7 P7 1_555 1_555
H8 P8 1_555 1_555
C1 C2 1_555 1_555
C2 C3 1_555 1_555
C4 C2 1_555 1_555
C5 C4 1_555 1_555
C6 C5 1_555 1_555
N1 C1 1_555 1_555
N2 C6 1_555 1_555
H9 N1 1_555 1_555
H10 N1 1_555 1_555
H11 N1 1_555 1_555
H12 N2 1_555 1_555
H13 N2 1_555 1_555
H14 N2 1_555 1_555
C7 C8 1_555 1_555
C8 C9 1_555 1_555
C10 C8 1_555 1_555
C11 C10 1_555 1_555
C12 C11 1_555 1_555
N3 C7 1_555 1_555
N4 C12 1_555 1_555
H15 N3 1_555 1_555
H16 N3 1_555 1_555
H17 N3 1_555 1_555
H18 N4 1_555 1_555
H19 N4 1_555 1_555
H20 N4 1_555 1_555
Zn1_2 O21 1_555 1_555
Zn1_3 O2 1_555 1_555
Zn3A O12 1_555 1_555
Zn3A_2 O6 1_555 1_555
Zn5_2 O9 1_555 1_555
Zn5A O23 1_555 1_555
Zn6A O15 1_555 1_555
Zn6A_2 O5 1_555 1_555
O2_2 Zn1 1_555 1_555
O5A Zn6 1_555 1_555
O6A Zn3 1_555 1_555
O9_2 Zn5 1_555 1_555
O12A Zn3 1_555 1_555
O15A Zn6 1_555 1_555
O21_2 Zn1 1_555 1_555
O22A Zn4 1_555 1_555
O23A Zn5 1_555 1_555
P3 O8 1_555 1_555
P4 O11 1_555 1_555
P7 O20 1_555 1_555
P8 O24 1_555 1_555

#END
