
#######################################################################
#
#                 Cambridge Crystallographic Data Centre
#                                CCDC 
#
#######################################################################
#
# If this CIF has been generated from an entry in the Cambridge 
# Structural Database, then it will include bibliographic, chemical, 
# crystal, experimental, refinement or atomic coordinate data resulting 
# from the CCDC's data processing and validation procedures.
#
#######################################################################

data_HIWMAD
_chemical_formula_moiety         '(C12 H37 N2 O15 P5 Zn3)n'
_symmetry_cell_setting           monoclinic
_symmetry_space_group_name_H-M   'C c'
_symmetry_Int_Tables_number      9
_space_group_name_Hall           'C -2yc'
loop_
_symmetry_equiv_pos_site_id
_symmetry_equiv_pos_as_xyz
1 x,y,z
2 x,-y,1/2+z
3 1/2+x,1/2+y,z
4 1/2+x,1/2-y,1/2+z
_cell_length_a                   14.3263(4)
_cell_length_b                   25.7839(7)
_cell_length_c                   8.1185(2)
_cell_angle_alpha                90
_cell_angle_beta                 101.5980(10)
_cell_angle_gamma                90
_cell_volume                     2937.65
loop_
_atom_site_label
_atom_site_type_symbol
_atom_site_fract_x
_atom_site_fract_y
_atom_site_fract_z
Zn1 Zn 0.52545(6) 0.515174(13) 0.95410(8)
Zn2 Zn 0.66635(4) 0.68944(2) 0.74038(7)
Zn3 Zn 0.38592(4) 0.68630(2) 1.20223(7)
P1 P 0.69762(13) 0.77067(6) 0.4590(2)
P2 P 0.63855(10) 0.56812(5) 0.69149(16)
P3 P 0.40920(11) 0.56301(5) 1.21261(16)
O1 O 0.6475(3) 0.74203(17) 0.5717(7)
O2 O 0.7689(4) 0.80933(19) 0.5332(8)
O3 O 0.734(5) 0.7278(11) 0.354(6)
O4 O 0.5612(3) 0.56321(13) 0.7926(5)
O5 O 0.6290(3) 0.52979(15) 0.5471(5)
O6 O 0.6408(4) 0.62309(13) 0.6247(5)
O7 O 0.4921(3) 0.56097(14) 1.1223(5)
O8 O 0.4133(3) 0.52239(15) 1.3454(6)
O9 O 0.3999(4) 0.61583(15) 1.2855(5)
H1 H 0.6361 0.8019 0.3424
H2 H 0.7307 0.5592 0.8408
H3 H 0.3327 0.5649 1.1198
P4 P 0.8814(3) 0.71567(18) 0.9144(8)
O10 O 0.9053(8) 0.6996(3) 1.0989(10)
O11 O 0.8729(4) 0.77677(14) 0.9023(6)
O12 O 0.7944(5) 0.68933(19) 0.8588(10)
H4 H 0.9608 0.7083 0.8684
P5 P 0.5215(2) 0.72796(5) 0.9680(3)
O13 O 0.4988(4) 0.7062(2) 1.1238(6)
O14 O 0.563(3) 0.6946(9) 0.854(9)
H5 H 0.5650 0.7786 0.9980
O15 O 0.4211(5) 0.7349(3) 0.8322(9)
Zn1A Zn 0.52545(6) 0.484826(13) 0.45410(8)
Zn1A_2 Zn 0.52545(6) 0.484826(13) 1.45410(8)
Zn3C Zn 0.88592(4) 0.81370(2) 0.70223(7)
O2C O 0.2689(4) 0.69067(19) 1.0332(8)
O5A O 0.6290(3) 0.47021(15) 1.0471(5)
O8A O 0.4133(3) 0.47761(15) 0.8454(6)
O11C O 0.3729(4) 0.72323(14) 1.4023(6)
N1 N 0.4045(4) 0.6291(2) 0.6414(7)
H6 H 0.4579 0.6192 0.7108
H7 H 0.4026 0.6635 0.6352
H8 H 0.4033 0.6159 0.5396
N2 N -0.3491(4) 0.62773(18) -0.7287(8)
H9 H -0.3876 0.6456 -0.8086
H10 H -0.3264 0.6486 -0.6427
H11 H -0.3815 0.6019 -0.6936
C1 C 0.3214(7) 0.6101(4) 0.7054(13)
H12 H 0.3275 0.5728 0.7188
H13 H 0.3245 0.6247 0.8163
C2 C 0.2286(8) 0.6210(5) 0.6060(19)
H14 H 0.2278 0.6563 0.5645
H15 H 0.1820 0.6187 0.6774
C3 C 0.1998(15) 0.5852(8) 0.460(3)
C4 C 0.1225(15) 0.6096(8) 0.324(3)
C5 C 0.1072(14) 0.5651(7) 0.187(2)
C6 C 0.0416(14) 0.5900(7) 0.050(3)
C7 C 0.0257(13) 0.5650(6) -0.1151(18)
H16 H 0.0860 0.5636 -0.1520
H17 H 0.0053 0.5296 -0.1031
C8 C -0.0421(11) 0.5894(6) -0.2421(18)
H18 H -0.0143 0.6225 -0.2628
H19 H -0.0960 0.5974 -0.1908
C9 C -0.0841(10) 0.5675(6) -0.413(2)
H20 H -0.0319 0.5564 -0.4645
H21 H -0.1205 0.5369 -0.3974
C10 C -0.1455(7) 0.6016(4) -0.5321(14)
H22 H -0.1063 0.6289 -0.5644
H23 H -0.1908 0.6178 -0.4740
C11 C -0.1997(8) 0.5771(4) -0.6878(16)
H24 H -0.1538 0.5651 -0.7523
H25 H -0.2310 0.5466 -0.6547
C12 C -0.2692(7) 0.6063(4) -0.7971(13)
H26 H -0.2958 0.5844 -0.8923
H27 H -0.2371 0.6349 -0.8398
loop_
_geom_bond_atom_site_label_1
_geom_bond_atom_site_label_2
_geom_bond_site_symmetry_1
_geom_bond_site_symmetry_2
Zn1 O4 1_555 1_555
Zn2 O1 1_555 1_555
Zn3 O9 1_555 1_555
P1 O1 1_555 1_555
P2 O4 1_555 1_555
P3 O7 1_555 1_555
O2 P1 1_555 1_555
O3 P1 1_555 1_555
O5 P2 1_555 1_555
O6 Zn2 1_555 1_555
O7 Zn1 1_555 1_555
O8 P3 1_555 1_555
O9 P3 1_555 1_555
H1 P1 1_555 1_555
H2 P2 1_555 1_555
H3 P3 1_555 1_555
P4 O10 1_555 1_555
O11 P4 1_555 1_555
O12 Zn2 1_555 1_555
H4 P4 1_555 1_555
P5 O13 1_555 1_555
O13 Zn3 1_555 1_555
O14 Zn2 1_555 1_555
H5 P5 1_555 1_555
O15 P5 1_555 1_555
N1 H6 1_555 1_555
H7 N1 1_555 1_555
H8 N1 1_555 1_555
N2 H9 1_555 1_555
H10 N2 1_555 1_555
H11 N2 1_555 1_555
C1 N1 1_555 1_555
H12 C1 1_555 1_555
H13 C1 1_555 1_555
C2 C1 1_555 1_555
H14 C2 1_555 1_555
H15 C2 1_555 1_555
C3 C2 1_555 1_555
C4 C3 1_555 1_555
C5 C4 1_555 1_555
C6 C5 1_555 1_555
C7 C6 1_555 1_555
H16 C7 1_555 1_555
H17 C7 1_555 1_555
C8 C7 1_555 1_555
H18 C8 1_555 1_555
H19 C8 1_555 1_555
C9 C8 1_555 1_555
H20 C9 1_555 1_555
H21 C9 1_555 1_555
C10 C9 1_555 1_555
H22 C10 1_555 1_555
H23 C10 1_555 1_555
C11 C10 1_555 1_555
H24 C11 1_555 1_555
H25 C11 1_555 1_555
C12 N2 1_555 1_555
H26 C12 1_555 1_555
H27 C12 1_555 1_555
Zn1A O5 1_555 1_555
Zn1A_2 O8 1_555 1_555
Zn3C O2 1_555 1_555
O2C Zn3 1_555 1_555
O5A Zn1 1_555 1_555
O8A Zn1 1_555 1_555
O11C Zn3 1_555 1_555
P2 O6 1_555 1_555
P4 O12 1_555 1_555
O11 Zn3C 1_555 1_555
P5 O14 1_555 1_555
C11 C12 1_555 1_555

#END
