
#######################################################################
#
#                 Cambridge Crystallographic Data Centre
#                                CCDC 
#
#######################################################################
#
# If this CIF has been generated from an entry in the Cambridge 
# Structural Database, then it will include bibliographic, chemical, 
# crystal, experimental, refinement or atomic coordinate data resulting 
# from the CCDC's data processing and validation procedures.
#
#######################################################################

data_WAYKAK
_chemical_formula_moiety         '(C54 H52 N4 Nd2 O16)n'
_symmetry_cell_setting           monoclinic
_symmetry_space_group_name_H-M   'C 2'
_symmetry_Int_Tables_number      5
_space_group_name_Hall           'C 2y'
loop_
_symmetry_equiv_pos_site_id
_symmetry_equiv_pos_as_xyz
1 x,y,z
2 -x,y,-z
3 1/2+x,1/2+y,z
4 1/2-x,1/2+y,-z
_cell_length_a                   27.7799(7)
_cell_length_b                   8.66310(10)
_cell_length_c                   14.2422(3)
_cell_angle_alpha                90
_cell_angle_beta                 114.702(3)
_cell_angle_gamma                90
_cell_volume                     3113.89
loop_
_atom_site_label
_atom_site_type_symbol
_atom_site_fract_x
_atom_site_fract_y
_atom_site_fract_z
Nd1 Nd 0.726420(7) 0.84191(4) 0.994984(12)
C1 C 0.78606(19) 0.6636(5) 0.8615(4)
O1 O 0.77525(15) 0.7891(4) 0.8919(3)
O2 O 0.79105(15) 0.5366(4) 0.9068(3)
C2 C 0.79318(19) 0.6630(5) 0.7626(3)
C3 C 0.7730(2) 0.7834(6) 0.6918(4)
H1 H 0.7565 0.8668 0.7072
C4 C 0.7777(2) 0.7788(6) 0.5982(4)
H2 H 0.7634 0.8585 0.5509
C5 C 0.80337(19) 0.6565(5) 0.5742(3)
C6 C 0.82490(19) 0.5406(5) 0.6478(3)
H3 H 0.8433 0.4602 0.6345
C7 C 0.81958(19) 0.5419(5) 0.7407(3)
H4 H 0.8336 0.4619 0.7879
C8 C 0.8066(2) 0.6468(5) 0.4726(4)
C9 C 0.7663(2) 0.7107(6) 0.3841(4)
H5 H 0.7393 0.7670 0.3904
C10 C 0.7662(2) 0.6911(5) 0.2876(4)
H6 H 0.7392 0.7345 0.2298
C11 C 0.80592(19) 0.6075(5) 0.2764(3)
C12 C 0.84751(19) 0.5504(5) 0.3645(3)
H7 H 0.8752 0.4981 0.3580
C13 C 0.8482(2) 0.5702(6) 0.4621(4)
H8 H 0.8765 0.5324 0.5202
C14 C 0.80212(18) 0.5631(5) 0.1718(3)
O3 O 0.76046(13) 0.6023(4) 0.0909(2)
O4 O 0.83645(14) 0.4774(4) 0.1647(3)
C15 C 0.83735(19) 1.0157(5) 1.1612(4)
O5 O 0.81532(13) 0.8895(3) 1.1221(2)
O6 O 0.82107(15) 1.1458(4) 1.1224(3)
C16 C 0.8855(2) 1.0119(6) 1.2615(4)
C17 C 0.9048(3) 1.1477(7) 1.3140(5)
H9 H 0.8878 1.2404 1.2871
C18 C 0.9498(3) 1.1463(7) 1.4077(5)
H10 H 0.9621 1.2387 1.4428
C19 C 0.9767(2) 1.0104(7) 1.4495(5)
C20 C 0.9553(2) 0.8750(6) 1.3970(5)
H11 H 0.9713 0.7814 1.4247
C21 C 0.9104(2) 0.8759(6) 1.3034(4)
H12 H 0.8973 0.7834 1.2691
O7 O 0.65599(15) 0.7512(4) 1.0446(3)
N1 N 0.6109(5) 0.5897(13) 1.1036(9)
C22 C 0.6443(3) 0.6127(8) 1.0540(6)
H13 H 0.6572 0.5307 1.0292
C23 C 0.5983(7) 0.4345(17) 1.1218(14)
H14 H 0.6049 0.3649 1.0760
H15 H 0.5616 0.4290 1.1092
H16 H 0.6199 0.4061 1.1921
C24 C 0.6007(19) 0.681(4) 1.183(3)
H17 H 0.5798 0.6207 1.2085
H18 H 0.5819 0.7740 1.1519
H19 H 0.6338 0.7072 1.2390
Nd1A Nd 1.273580(7) 0.84191(4) 2.005016(12)
Nd1_2 Nd 0.726420(7) 0.84191(4) -0.005016(12)
Nd1A_2 Nd 1.273580(7) 0.84191(4) 3.005016(12)
Nd1B Nd 1.226420(7) 0.34191(4) 1.994984(12)
Nd1B_2 Nd 1.226420(7) 0.34191(4) 2.994984(12)
Nd1B_3 Nd 1.226420(7) 1.34191(4) 1.994984(12)
Nd1C Nd 0.773580(7) 0.34191(4) 0.005016(12)
Nd1C_2 Nd 0.773580(7) 0.34191(4) 1.005016(12)
Nd1C_3 Nd 0.773580(7) 1.34191(4) 1.005016(12)
C1A C 1.21394(19) 0.6636(5) 2.1385(4)
O1A O 1.22475(15) 0.7891(4) 2.1081(3)
O2A O 1.20895(15) 0.5366(4) 2.0932(3)
O2B O 1.29105(15) 1.0366(4) 1.9068(3)
O2C O 0.70895(15) 1.0366(4) 1.0932(3)
C2A C 1.20682(19) 0.6630(5) 2.2374(3)
C3A C 1.2270(2) 0.7834(6) 2.3082(4)
H1A H 1.2435 0.8668 2.2928
C4A C 1.2223(2) 0.7788(6) 2.4018(4)
H2A H 1.2366 0.8585 2.4491
C5A C 1.19663(19) 0.6565(5) 2.4258(3)
C6A C 1.17510(19) 0.5406(5) 2.3522(3)
H3A H 1.1567 0.4602 2.3655
C7A C 1.18042(19) 0.5419(5) 2.2593(3)
H4A H 1.1664 0.4619 2.2121
C8A C 1.1934(2) 0.6468(5) 2.5274(4)
C9A C 1.2337(2) 0.7107(6) 2.6159(4)
H5A H 1.2607 0.7670 2.6096
C10A C 1.2338(2) 0.6911(5) 2.7124(4)
H6A H 1.2608 0.7345 2.7702
C11A C 1.19408(19) 0.6075(5) 2.7236(3)
C12A C 1.15249(19) 0.5504(5) 2.6355(3)
H7A H 1.1248 0.4981 2.6420
C13A C 1.1518(2) 0.5702(6) 2.5379(4)
H8A H 1.1235 0.5324 2.4798
C14A C 1.19788(18) 0.5631(5) 2.8282(3)
C14B C 1.30212(18) 1.0631(5) 2.1718(3)
C14C C 0.69788(18) 1.0631(5) 0.8282(3)
O3A O 1.23954(13) 0.6023(4) 2.9091(2)
O3_2 O 0.76046(13) 0.6023(4) 1.0909(2)
O3A_2 O 1.23954(13) 0.6023(4) 1.9091(2)
O3B O 1.26046(13) 1.1023(4) 2.0909(2)
O3C O 0.73954(13) 1.1023(4) 0.9091(2)
O4A O 1.16355(14) 0.4774(4) 2.8353(3)
O4B O 1.33645(14) 0.9774(4) 2.1647(3)
O4C O 0.66355(14) 0.9774(4) 0.8353(3)
C15A C 1.16265(19) 1.0157(5) 1.8388(4)
O5A O 1.18468(13) 0.8895(3) 1.8779(2)
O6A O 1.17893(15) 1.1458(4) 1.8776(3)
O6B O 1.32107(15) 0.6458(4) 2.1224(3)
O6C O 0.67893(15) 0.6458(4) 0.8776(3)
C16A C 1.1145(2) 1.0119(6) 1.7385(4)
C17A C 1.0952(3) 1.1477(7) 1.6860(5)
H9A H 1.1122 1.2404 1.7129
C18A C 1.0502(3) 1.1463(7) 1.5923(5)
H10A H 1.0379 1.2387 1.5572
C19A C 1.0233(2) 1.0104(7) 1.5505(5)
C20A C 1.0447(2) 0.8750(6) 1.6030(5)
H11A H 1.0287 0.7814 1.5753
C21A C 1.0896(2) 0.8759(6) 1.6966(4)
H12A H 1.1027 0.7834 1.7309
O7A O 1.34401(15) 0.7512(4) 1.9554(3)
N1A N 1.3891(5) 0.5897(13) 1.8964(9)
C22A C 1.3557(3) 0.6127(8) 1.9460(6)
H13A H 1.3428 0.5307 1.9708
C23A C 1.4017(7) 0.4345(17) 1.8782(14)
H14A H 1.3951 0.3649 1.9240
H15A H 1.4384 0.4290 1.8908
H16A H 1.3801 0.4061 1.8079
C24A C 1.3993(19) 0.681(4) 1.817(3)
H17A H 1.4202 0.6207 1.7915
H18A H 1.4181 0.7740 1.8481
H19A H 1.3662 0.7072 1.7610
O8 O 0.9260(4) 0.3011(12) 0.6255(10)
N2 N 0.9029(4) 0.0563(12) 0.5937(9)
C25 C 0.9351(5) 0.1665(15) 0.6380(13)
H20 H 0.9690 0.1386 0.6847
C26 C 0.9219(6) -0.1035(16) 0.6297(16)
H21 H 0.8945 -0.1763 0.5920
H22 H 0.9304 -0.1120 0.7021
H23 H 0.9528 -0.1248 0.6181
C27 C 0.8562(7) 0.083(2) 0.5202(17)
H24 H 0.8378 -0.0127 0.4963
H25 H 0.8600 0.1347 0.4641
H26 H 0.8364 0.1475 0.5462
O9 O 0.4923(12) 0.022(4) 0.6337(17)
N3 N 0.5243(5) 0.0438(16) 0.8296(11)
C28 C 0.5223(8) 0.022(3) 0.7321(14)
H27 H 0.5563 -0.0036 0.7403
C29 C 0.4782(7) 0.089(2) 0.8456(15)
H28 H 0.4875 0.0978 0.9184
H29 H 0.4509 0.0124 0.8164
H30 H 0.4654 0.1867 0.8129
C30 C 0.5713(10) 0.086(4) 0.9268(18)
H31 H 0.5606 0.0941 0.9826
H32 H 0.5853 0.1833 0.9175
H33 H 0.5980 0.0078 0.9426
loop_
_geom_bond_atom_site_label_1
_geom_bond_atom_site_label_2
_geom_bond_site_symmetry_1
_geom_bond_site_symmetry_2
Nd1 O1 1_555 1_555
C1 O1 1_555 1_555
O2 C1 1_555 1_555
C2 C1 1_555 1_555
C3 C2 1_555 1_555
H1 C3 1_555 1_555
C4 C3 1_555 1_555
H2 C4 1_555 1_555
C5 C4 1_555 1_555
C6 C5 1_555 1_555
H3 C6 1_555 1_555
C7 C2 1_555 1_555
H4 C7 1_555 1_555
C8 C5 1_555 1_555
C9 C8 1_555 1_555
H5 C9 1_555 1_555
C10 C9 1_555 1_555
H6 C10 1_555 1_555
C11 C10 1_555 1_555
C12 C11 1_555 1_555
H7 C12 1_555 1_555
C13 C8 1_555 1_555
H8 C13 1_555 1_555
C14 C11 1_555 1_555
O3 C14 1_555 1_555
O4 C14 1_555 1_555
C15 O5 1_555 1_555
O5 Nd1 1_555 1_555
O6 C15 1_555 1_555
C16 C15 1_555 1_555
C17 C16 1_555 1_555
H9 C17 1_555 1_555
C18 C17 1_555 1_555
H10 C18 1_555 1_555
C19 C18 1_555 1_555
C20 C19 1_555 1_555
H11 C20 1_555 1_555
C21 C16 1_555 1_555
H12 C21 1_555 1_555
O7 Nd1 1_555 1_555
N1 C22 1_555 1_555
C22 O7 1_555 1_555
H13 C22 1_555 1_555
C23 N1 1_555 1_555
H14 C23 1_555 1_555
H15 C23 1_555 1_555
H16 C23 1_555 1_555
C24 N1 1_555 1_555
H17 C24 1_555 1_555
H18 C24 1_555 1_555
H19 C24 1_555 1_555
O8 C25 1_555 1_555
N2 C25 1_555 1_555
C25 H20 1_555 1_555
C26 N2 1_555 1_555
H21 C26 1_555 1_555
H22 C26 1_555 1_555
H23 C26 1_555 1_555
C27 N2 1_555 1_555
H24 C27 1_555 1_555
H25 C27 1_555 1_555
H26 C27 1_555 1_555
O9 C28 1_555 1_555
N3 C28 1_555 1_555
C28 H27 1_555 1_555
C29 N3 1_555 1_555
H28 C29 1_555 1_555
H29 C29 1_555 1_555
H30 C29 1_555 1_555
C30 N3 1_555 1_555
H31 C30 1_555 1_555
H32 C30 1_555 1_555
H33 C30 1_555 1_555
Nd1A O1A 1_555 1_555
Nd1_2 O3 1_555 1_555
Nd1A_2 O3A 1_555 1_555
Nd1B O2A 1_555 1_555
Nd1B_2 O3A 1_555 1_555
Nd1B_3 O3B 1_555 1_555
Nd1C O3 1_555 1_555
Nd1C_2 O2 1_555 1_555
Nd1C_3 O6 1_555 1_555
C1A O1A 1_555 1_555
O2A C1A 1_555 1_555
O2B Nd1A 1_555 1_555
O2C Nd1 1_555 1_555
C2A C1A 1_555 1_555
C3A C2A 1_555 1_555
H1A C3A 1_555 1_555
C4A C3A 1_555 1_555
H2A C4A 1_555 1_555
C5A C4A 1_555 1_555
C6A C5A 1_555 1_555
H3A C6A 1_555 1_555
C7A C2A 1_555 1_555
H4A C7A 1_555 1_555
C8A C5A 1_555 1_555
C9A C8A 1_555 1_555
H5A C9A 1_555 1_555
C10A C9A 1_555 1_555
H6A C10A 1_555 1_555
C11A C10A 1_555 1_555
C12A C11A 1_555 1_555
H7A C12A 1_555 1_555
C13A C8A 1_555 1_555
H8A C13A 1_555 1_555
C14A C11A 1_555 1_555
C14B O3B 1_555 1_555
C14C O3C 1_555 1_555
O3A C14A 1_555 1_555
O3_2 Nd1 1_555 1_555
O3A_2 Nd1A 1_555 1_555
O3B Nd1A 1_555 1_555
O3C Nd1 1_555 1_555
O4A Nd1B_2 1_555 1_555
O4B Nd1A 1_555 1_555
O4C Nd1 1_555 1_555
C15A O5A 1_555 1_555
O5A Nd1A 1_555 1_555
O6A Nd1B_3 1_555 1_555
O6B Nd1A 1_555 1_555
O6C Nd1 1_555 1_555
C16A C15A 1_555 1_555
C17A C16A 1_555 1_555
H9A C17A 1_555 1_555
C18A C17A 1_555 1_555
H10A C18A 1_555 1_555
C19A C19 1_555 1_555
C20A C19A 1_555 1_555
H11A C20A 1_555 1_555
C21A C16A 1_555 1_555
H12A C21A 1_555 1_555
O7A Nd1A 1_555 1_555
N1A C22A 1_555 1_555
C22A O7A 1_555 1_555
H13A C22A 1_555 1_555
C23A N1A 1_555 1_555
H14A C23A 1_555 1_555
H15A C23A 1_555 1_555
H16A C23A 1_555 1_555
C24A N1A 1_555 1_555
H17A C24A 1_555 1_555
H18A C24A 1_555 1_555
H19A C24A 1_555 1_555
C6 C7 1_555 1_555
C12 C13 1_555 1_555
O4 Nd1C 1_555 1_555
C20 C21 1_555 1_555
Nd1B O3A_2 1_555 1_555
Nd1C_2 O3_2 1_555 1_555
Nd1C_3 O3C 1_555 1_555
C6A C7A 1_555 1_555
C12A C13A 1_555 1_555
C14A O4A 1_555 1_555
C14B O4B 1_555 1_555
C14C O4C 1_555 1_555
C15A O6A 1_555 1_555
C18A C19A 1_555 1_555
C20A C21A 1_555 1_555

#END
