
#######################################################################
#
#                 Cambridge Crystallographic Data Centre
#                                CCDC 
#
#######################################################################
#
# If this CIF has been generated from an entry in the Cambridge 
# Structural Database, then it will include bibliographic, chemical, 
# crystal, experimental, refinement or atomic coordinate data resulting 
# from the CCDC's data processing and validation procedures.
#
#######################################################################

data_ROLCEC18
_chemical_formula_moiety         '(C3 H7 Cu1 N1 O6)n'
_symmetry_cell_setting           hexagonal
_symmetry_space_group_name_H-M   'P 61 2 2'
_symmetry_Int_Tables_number      178
_space_group_name_Hall           'P 61 2 (0 0 5)'
loop_
_symmetry_equiv_pos_site_id
_symmetry_equiv_pos_as_xyz
1 x,y,z
2 -y,x-y,1/3+z
3 -x+y,-x,2/3+z
4 -x,-y,1/2+z
5 y,-x+y,5/6+z
6 x-y,x,1/6+z
7 y,x,1/3-z
8 x-y,-y,-z
9 -x,-x+y,2/3-z
10 -y,-x,5/6-z
11 -x+y,y,1/2-z
12 x,x-y,1/6-z
_cell_length_a                   7.32630(10)
_cell_length_b                   7.32630(10)
_cell_length_c                   24.3653(4)
_cell_angle_alpha                90
_cell_angle_beta                 90
_cell_angle_gamma                120
_cell_volume                     1132.59
loop_
_atom_site_label
_atom_site_type_symbol
_atom_site_fract_x
_atom_site_fract_y
_atom_site_fract_z
Cu1 Cu 0.36459(10) 0.68229(5) 0.0833
O1 O 0.3383(5) 0.4511(5) 0.13220(13)
O2 O -0.0790(7) 0.2981(7) -0.0353(2)
O3 O 0.1417(7) 0.4189(8) 0.03421(19)
C1 C 0.4736(11) 0.4736(11) 0.1667
H1 H 0.6005 0.6005 0.1667
C2 C 0.0330(11) 0.4321(10) -0.0014(3)
H2 H 0.0348 0.5597 -0.0034
O1F O 0.4511(5) 0.3383(5) 0.20113(13)
O2G O 0.6229(10) 0.7019(7) 0.0353(2)
O3G O 0.7228(11) 0.5811(8) -0.03421(19)
C2G C 0.6009(15) 0.5679(10) 0.0014(3)
H2G H 0.4751 0.4403 0.0034
Cu1D Cu -0.31771(5) 0.31770(11) -0.0834
Cu1D_2 Cu 0.68229(5) 0.31770(11) -0.0834
Cu1E Cu 0.68230(11) 0.36459(10) 0.2500
O1K O 0.3383(5) 0.8872(7) 0.03447(13)
O2E O 0.6229(10) 0.9210(7) 0.1314(2)
O3K O 0.1417(7) 0.7228(11) 0.13246(19)
N1 N 0.0249(15) 0.0125(8) 0.0833
H3 H -0.1153(17) -0.0576(8) 0.0833
H4 H 0.072(2) 0.03(3) 0.0489(4)
H4K H 0.072(2) 0.042(30) 0.1178(4)
loop_
_geom_bond_atom_site_label_1
_geom_bond_atom_site_label_2
_geom_bond_site_symmetry_1
_geom_bond_site_symmetry_2
Cu1 O1 1_555 1_555
O1 C1 1_555 1_555
O2 C2 1_555 1_555
O3 Cu1 1_555 1_555
C1 H1 1_555 1_555
C2 O3 1_555 1_555
H2 C2 1_555 1_555
N1 H3 1_555 1_555
H4 N1 1_555 1_555
O1F C1 1_555 1_555
O2G Cu1 1_555 1_555
O3G C2G 1_555 1_555
C2G O2G 1_555 1_555
H2G C2G 1_555 1_555
Cu1D O2 1_555 1_555
Cu1D_2 O3G 1_555 1_555
Cu1E O1F 1_555 1_555
O1K Cu1 1_555 1_555
O2E Cu1 1_555 1_555
O3K Cu1 1_555 1_555
H4K N1 1_555 1_555

#END
