
#######################################################################
#
#                 Cambridge Crystallographic Data Centre
#                                CCDC 
#
#######################################################################
#
# If this CIF has been generated from an entry in the Cambridge 
# Structural Database, then it will include bibliographic, chemical, 
# crystal, experimental, refinement or atomic coordinate data resulting 
# from the CCDC's data processing and validation procedures.
#
#######################################################################

data_ETIXAI
_chemical_formula_moiety         '(C115 H91 N9 O21 Zn4)n'
_symmetry_cell_setting           triclinic
_symmetry_space_group_name_H-M   'P -1'
_symmetry_Int_Tables_number      2
_space_group_name_Hall           '-P 1'
loop_
_symmetry_equiv_pos_site_id
_symmetry_equiv_pos_as_xyz
1 x,y,z
2 -x,-y,-z
_cell_length_a                   13.798(2)
_cell_length_b                   16.605(3)
_cell_length_c                   24.133(4)
_cell_angle_alpha                106.906(2)
_cell_angle_beta                 99.469(2)
_cell_angle_gamma                90.184(2)
_cell_volume                     5210.57
loop_
_atom_site_label
_atom_site_type_symbol
_atom_site_fract_x
_atom_site_fract_y
_atom_site_fract_z
O1 O 0.0329(12) 0.3126(8) 0.2634(5)
N1 N 0.0443(6) 0.3460(5) 0.3595(4)
C1 C -0.0021(13) 0.3534(12) 0.3073(5)
H1 H -0.0571 0.3870 0.3042
C2 C 0.1184(10) 0.2904(9) 0.3647(7)
H2 H 0.1410 0.2959 0.4064
H3 H 0.0925 0.2325 0.3441
H4 H 0.1735 0.3038 0.3475
C3 C 0.0090(8) 0.3953(7) 0.4123(5)
H5 H 0.0482 0.3846 0.4470
H6 H 0.0155 0.4554 0.4157
H7 H -0.0602 0.3789 0.4098
O2 O 0.3137(9) 0.0015(6) 0.0252(4)
N2 N 0.4477(7) 0.0323(5) 0.1022(4)
C4 C 0.3593(9) -0.0030(7) 0.0734(5)
H8 H 0.3269 -0.0357 0.0920
C5 C 0.4787(7) 0.0247(5) 0.1577(3)
H9 H 0.5440 0.0531 0.1738
H10 H 0.4321 0.0508 0.1834
H11 H 0.4819 -0.0350 0.1555
C6 C 0.5047(8) 0.0785(7) 0.0754(5)
H12 H 0.5671 0.1002 0.1019
H13 H 0.5182 0.0411 0.0381
H14 H 0.4678 0.1258 0.0680
O3 O 0.8931(6) 1.0989(6) 0.8942(4)
N3 N 0.9416(5) 0.9677(4) 0.8589(3)
C7 C 0.8930(8) 1.0329(6) 0.8517(4)
H15 H 0.8573 1.0304 0.8140
C8 C 0.9885(8) 0.9678(7) 0.9172(4)
H16 H 1.0213 0.9150 0.9149
H17 H 1.0372 1.0154 0.9336
H18 H 0.9388 0.9732 0.9426
C9 C 0.9427(8) 0.8949(7) 0.8058(4)
H19 H 0.9811 0.8507 0.8169
H20 H 0.8752 0.8727 0.7884
H21 H 0.9727 0.9133 0.7771
O4 O 0.7864(6) 0.1527(4) 0.1491(3)
N4 N 0.8570(6) 0.2063(5) 0.0874(3)
C10 C 0.7976(7) 0.1511(5) 0.0991(5)
H22 H 0.7621 0.1082 0.0668
C11 C 0.8639(9) 0.2057(8) 0.0279(4)
H23 H 0.9111 0.2508 0.0293
H24 H 0.8862 0.1512 0.0067
H25 H 0.7992 0.2148 0.0077
C12 C 0.9138(7) 0.2703(6) 0.1359(4)
H26 H 0.9532 0.3055 0.1207
H27 H 0.8692 0.3054 0.1592
H28 H 0.9575 0.2434 0.1607
O5 O 0.4823(5) 0.0140(6) 0.4480(4)
N5 N 0.5603(3) 0.0552(2) 0.38508(18)
C13 C 0.4896(4) 0.0071(3) 0.3914(3)
H29 H 0.4469 -0.0297 0.3589
C14 C 0.6250(4) 0.1134(4) 0.4291(3)
H30 H 0.6164 0.1698 0.4244
H31 H 0.6929 0.0979 0.4261
H32 H 0.6114 0.1134 0.4677
C15 C 0.5810(6) 0.0460(4) 0.3246(3)
H33 H 0.5769 0.1007 0.3168
H34 H 0.5325 0.0055 0.2955
H35 H 0.6472 0.0257 0.3217
Zn1 Zn 0.66300(2) 0.44539(2) 0.43435(2)
Zn2 Zn 0.63571(2) 0.40278(2) 0.30556(2)
Zn3 Zn 0.16525(2) 0.95509(2) 0.43131(2)
Zn4 Zn 0.13232(2) 0.88977(2) 0.30129(2)
O6 O 0.74287(16) 0.34211(14) 0.40893(9)
O7 O 0.72299(19) 0.30756(16) 0.31092(10)
O8 O 0.54268(15) 0.36385(14) 0.41584(9)
O9 O 0.52318(17) 0.33383(15) 0.31831(10)
O10 O 0.56067(17) 0.50769(14) 0.33146(9)
O11 O 0.57230(16) 0.53995(13) 0.42898(9)
O12 O 0.77031(16) 0.51685(14) 0.41944(10)
O13 O 0.75694(18) 0.48025(16) 0.32161(10)
O14 O 0.27308(15) 0.87387(13) 0.41859(8)
O15 O 0.25567(15) 0.83098(14) 0.32006(9)
O16 O 1.03949(14) 0.01028(13) 0.40986(8)
O17 O 1.02070(15) -0.02963(13) 0.31120(8)
O18 O 0.22886(16) 0.02681(14) 0.38843(9)
O19 O 0.21315(15) -0.01372(13) 0.29055(9)
O20 O 1.08036(15) 0.86196(13) 0.44360(9)
O21 O 1.06538(16) 0.82092(13) 0.34562(9)
N6 N 0.21188(17) 1.03491(15) 0.51285(10)
N7 N 0.59348(18) 1.37308(16) 1.21739(10)
N8 N 0.07530(19) 0.81208(17) 0.21996(10)
N9 N -0.29813(17) 0.46668(15) -0.47731(10)
C16 C 0.7568(2) 0.29693(19) 0.35978(13)
C17 C 0.8186(2) 0.22255(19) 0.35914(13)
C18 C 0.8517(2) 0.20342(19) 0.41107(12)
H36 H 0.8342 0.2371 0.4468
C19 C 0.9099(2) 0.13568(19) 0.41124(12)
H37 H 0.9322 0.1229 0.4469
C20 C 0.9355(2) 0.08638(18) 0.35884(12)
C21 C 0.9013(2) 0.1045(2) 0.30659(13)
H38 H 0.9180 0.0704 0.2708
C22 C 0.8428(3) 0.1723(2) 0.30649(13)
H39 H 0.8194 0.1845 0.2707
C23 C 1.0036(2) 0.01661(17) 0.35996(12)
C24 C 0.5043(2) 0.32247(18) 0.36440(13)
C25 C 0.4296(2) 0.25256(19) 0.35761(13)
C26 C 0.3946(3) 0.1968(2) 0.30240(14)
H40 H 0.4134 0.2062 0.2685
C27 C 0.3326(3) 0.1279(2) 0.29622(14)
H41 H 0.3094 0.0900 0.2583
C28 C 0.3045(2) 0.11439(19) 0.34552(13)
C29 C 0.3356(2) 0.1724(2) 0.40043(13)
H42 H 0.3137 0.1649 0.4341
C30 C 0.3979(2) 0.2405(2) 0.40631(13)
H43 H 0.4192 0.2795 0.4440
C31 C 0.2442(2) 0.03674(19) 0.34100(13)
C32 C 0.5444(2) 0.55289(18) 0.38015(13)
C33 C 0.4844(2) 0.62800(18) 0.37925(12)
C34 C 0.4456(2) 0.67175(19) 0.42840(12)
H44 H 0.4606 0.6566 0.4638
C35 C 0.3852(2) 0.73715(19) 0.42579(12)
H45 H 0.3583 0.7666 0.4593
C36 C 0.3634(2) 0.76029(18) 0.37407(12)
C37 C 0.4039(2) 0.71761(19) 0.32531(12)
H46 H 0.3901 0.7335 0.2902
C38 C 0.4642(2) 0.65196(19) 0.32794(13)
H47 H 0.4920 0.6231 0.2946
C39 C 0.7909(2) 0.5259(2) 0.37273(14)
C40 C 0.8611(2) 0.59821(19) 0.37853(14)
C41 C 0.8919(3) 0.6088(2) 0.32956(14)
H48 H 0.8708 0.5689 0.2922
C42 C 0.9537(3) 0.6775(2) 0.33455(14)
H49 H 0.9750 0.6842 0.3006
C43 C 0.9845(2) 0.73642(19) 0.38871(13)
C44 C 0.9547(3) 0.7251(2) 0.43788(14)
H50 H 0.9763 0.7646 0.4753
C45 C 0.8932(3) 0.6561(2) 0.43283(14)
H51 H 0.8730 0.6486 0.4669
C46 C 1.0485(2) 0.81195(18) 0.39297(13)
C47 C 0.2923(2) 0.82774(18) 0.37082(12)
C48 C 0.1108(3) 0.7416(2) 0.19368(16)
H52 H 0.1688 0.7248 0.2136
C49 C 0.0702(3) 0.6894(2) 0.13896(17)
H53 H 0.1010 0.6393 0.1219
C50 C -0.0138(3) 0.7099(2) 0.10961(13)
C51 C -0.0671(4) 0.7686(5) 0.1420(3)
H54 H -0.1341 0.7750 0.1278
C52 C -0.0199(4) 0.8188(5) 0.1966(3)
H55 H -0.0565 0.8605 0.2191
C53 C -0.0573(2) 0.6632(2) 0.05045(13)
C54 C -0.0918(2) 0.6318(2) 0.00004(13)
C55 C -0.1248(2) 0.6020(2) -0.06371(12)
C56 C -0.0408(3) 0.5687(3) -0.09669(14)
C57 C -0.0688(3) 0.5428(3) -0.15768(14)
C58 C -0.1778(2) 0.5521(2) -0.17816(12)
C59 C -0.1976(2) 0.6445(2) -0.14988(13)
C60 C -0.2412(4) 0.6995(3) -0.17880(16)
H56 H -0.2594 0.6822 -0.2204
C61 C -0.2578(5) 0.7802(3) -0.14598(19)
H57 H -0.2872 0.8185 -0.1654
C62 C -0.2321(5) 0.8059(3) -0.08518(19)
H58 H -0.2456 0.8610 -0.0633
C63 C -0.1868(4) 0.7514(2) -0.05627(16)
H59 H -0.1676 0.7693 -0.0147
C64 C -0.1701(3) 0.6710(2) -0.08866(13)
C65 C -0.2042(3) 0.5298(2) -0.08532(13)
C66 C -0.2321(2) 0.5029(2) -0.14656(13)
C67 C -0.3038(3) 0.4386(2) -0.17309(15)
H60 H -0.3226 0.4202 -0.2147
C68 C -0.3478(4) 0.4016(3) -0.13840(18)
H61 H -0.3966 0.3570 -0.1563
C69 C -0.3213(4) 0.4288(3) -0.07792(18)
H62 H -0.3528 0.4034 -0.0546
C70 C -0.2488(3) 0.4931(2) -0.05080(15)
H63 H -0.2304 0.5114 -0.0092
C71 C -0.2064(2) 0.5255(2) -0.24214(13)
C72 C -0.2254(2) 0.5078(2) -0.29416(13)
C73 C -0.2493(2) 0.4928(2) -0.35669(12)
C74 C -0.3265(2) 0.5329(2) -0.37993(12)
H64 H -0.3637 0.5701 -0.3547
C75 C -0.3490(2) 0.51830(19) -0.44020(12)
H65 H -0.4023 0.5459 -0.4557
C76 C -0.2229(2) 0.4276(2) -0.45491(13)
H66 H -0.1867 0.3909 -0.4811
C77 C -0.1964(2) 0.4389(2) -0.39526(13)
H67 H -0.1429 0.4104 -0.3808
C78 C 0.3047(2) 1.0692(2) 0.52913(13)
H68 H 0.3463 1.0596 0.5004
C79 C 0.3418(2) 1.1176(2) 0.58593(13)
H69 H 0.4071 1.1421 0.5958
C80 C 0.2814(2) 1.1299(2) 0.62839(12)
C81 C 0.1844(2) 1.0984(2) 0.61082(13)
H70 H 0.1403 1.1086 0.6382
C82 C 0.1529(2) 1.05187(19) 0.55288(12)
H71 H 0.0862 1.0311 0.5410
C83 C 0.3195(3) 1.1687(2) 0.68973(13)
C84 C 0.3501(3) 1.1909(2) 0.74111(14)
C85 C 0.3848(3) 1.2147(2) 0.80480(13)
C86 C 0.4929(2) 1.1981(2) 0.82140(13)
C87 C 0.5575(3) 1.1643(2) 0.78354(14)
H72 H 0.5360 1.1493 0.7422
C88 C 0.6540(3) 1.1526(3) 0.80625(16)
H73 H 0.6981 1.1288 0.7803
C89 C 0.6862(3) 1.1753(3) 0.86668(17)
H74 H 0.7523 1.1676 0.8819
C90 C 0.6216(3) 1.2094(2) 0.90497(14)
H75 H 0.6436 1.2250 0.9463
C91 C 0.5257(2) 1.2206(2) 0.88271(13)
C92 C 0.4450(2) 1.2562(2) 0.91823(12)
C93 C 0.3615(2) 1.1872(2) 0.89638(13)
C94 C 0.3294(2) 1.1646(2) 0.83552(13)
C95 C 0.2584(3) 1.0996(2) 0.80887(15)
H76 H 0.2361 1.0840 0.7676
C96 C 0.2201(3) 1.0575(3) 0.84302(17)
H77 H 0.1718 1.0126 0.8248
C97 C 0.2514(3) 1.0800(3) 0.90327(17)
H78 H 0.2242 1.0510 0.9262
C98 C 0.3225(3) 1.1451(2) 0.93020(15)
H79 H 0.3443 1.1607 0.9715
C99 C 0.4082(2) 1.3304(2) 0.89659(13)
C100 C 0.3766(2) 1.3087(2) 0.83585(14)
C101 C 0.3464(3) 1.3694(2) 0.80911(15)
H80 H 0.3251 1.3544 0.7678
C102 C 0.3475(3) 1.4528(2) 0.84348(16)
H81 H 0.3276 1.4953 0.8255
C103 C 0.3777(3) 1.4742(2) 0.90411(16)
H82 H 0.3775 1.5312 0.9273
C104 C 0.4079(3) 1.4132(2) 0.93095(14)
H83 H 0.4281 1.4279 0.9724
C105 C 0.4770(3) 1.2797(2) 0.98189(13)
C106 C 0.5018(3) 1.2998(2) 1.03376(14)
C107 C 0.5324(2) 1.3247(2) 1.09657(13)
C108 C 0.6249(3) 1.3059(2) 1.12074(14)
H84 H 0.6684 1.2762 1.0962
C109 C 0.6524(3) 1.3310(2) 1.18112(14)
H85 H 0.7155 1.3180 1.1976
C110 C 0.5046(2) 1.3912(2) 1.19382(13)
H86 H 0.4626 1.4211 1.2193
C111 C 0.4715(2) 1.3681(2) 1.13395(14)
H87 H 0.4079 1.3817 1.1186
C112 C 0.0497(4) 0.5466(5) -0.0713(2)
H88 H 0.0663 0.5588 -0.0299
C113 C 0.1157(4) 0.5065(5) -0.1072(2)
H89 H 0.1797 0.4963 -0.0900
C114 C 0.0877(5) 0.4815(5) -0.1682(2)
H90 H 0.1332 0.4549 -0.1925
C115 C -0.0063(5) 0.4951(5) -0.1937(3)
H91 H -0.025(5) 0.477(4) -0.240(3)
Zn1_2 Zn -0.33700(2) 0.44539(2) -0.56565(2)
Zn2_2 Zn 0.63571(2) 1.40278(2) 1.30556(2)
Zn3_2 Zn 0.16525(2) -0.04491(2) 0.43131(2)
Zn3_3 Zn 1.16525(2) -0.04491(2) 0.43131(2)
Zn3_4 Zn 1.16525(2) 0.95509(2) 0.43131(2)
Zn4_2 Zn 0.13232(2) -0.11023(2) 0.30129(2)
Zn4_3 Zn 1.13232(2) -0.11023(2) 0.30129(2)
Zn4_4 Zn 1.13232(2) 0.88977(2) 0.30129(2)
O16_2 O 0.03949(14) 1.01028(13) 0.40986(8)
O17_2 O 0.02070(15) 0.97037(13) 0.31120(8)
O18_2 O 0.22886(16) 1.02681(14) 0.38843(9)
O19_2 O 0.21315(15) 0.98628(13) 0.29055(9)
O20_2 O 0.08036(15) 0.86196(13) 0.44360(9)
O21_2 O 0.06538(16) 0.82092(13) 0.34562(9)
N7_2 N 0.59348(18) 0.37308(16) 0.21739(10)
N9_2 N 0.70187(17) 0.46668(15) 0.52269(10)
loop_
_geom_bond_atom_site_label_1
_geom_bond_atom_site_label_2
_geom_bond_site_symmetry_1
_geom_bond_site_symmetry_2
O1 C1 1_555 1_555
N1 C1 1_555 1_555
C1 H1 1_555 1_555
C2 N1 1_555 1_555
H2 C2 1_555 1_555
H3 C2 1_555 1_555
H4 C2 1_555 1_555
C3 N1 1_555 1_555
H5 C3 1_555 1_555
H6 C3 1_555 1_555
H7 C3 1_555 1_555
O2 C4 1_555 1_555
N2 C4 1_555 1_555
C4 H8 1_555 1_555
C5 N2 1_555 1_555
H9 C5 1_555 1_555
H10 C5 1_555 1_555
H11 C5 1_555 1_555
C6 N2 1_555 1_555
H12 C6 1_555 1_555
H13 C6 1_555 1_555
H14 C6 1_555 1_555
O3 C7 1_555 1_555
N3 C7 1_555 1_555
C7 H15 1_555 1_555
C8 N3 1_555 1_555
H16 C8 1_555 1_555
H17 C8 1_555 1_555
H18 C8 1_555 1_555
C9 N3 1_555 1_555
H19 C9 1_555 1_555
H20 C9 1_555 1_555
H21 C9 1_555 1_555
O4 C10 1_555 1_555
N4 C10 1_555 1_555
C10 H22 1_555 1_555
C11 N4 1_555 1_555
H23 C11 1_555 1_555
H24 C11 1_555 1_555
H25 C11 1_555 1_555
C12 N4 1_555 1_555
H26 C12 1_555 1_555
H27 C12 1_555 1_555
H28 C12 1_555 1_555
O5 C13 1_555 1_555
N5 C13 1_555 1_555
C13 H29 1_555 1_555
C14 N5 1_555 1_555
H30 C14 1_555 1_555
H31 C14 1_555 1_555
H32 C14 1_555 1_555
C15 N5 1_555 1_555
H33 C15 1_555 1_555
H34 C15 1_555 1_555
H35 C15 1_555 1_555
Zn1 O6 1_555 1_555
Zn2 O7 1_555 1_555
Zn3 O14 1_555 1_555
Zn4 O15 1_555 1_555
O6 C16 1_555 1_555
O7 C16 1_555 1_555
O8 Zn1 1_555 1_555
O9 Zn2 1_555 1_555
O10 Zn2 1_555 1_555
O11 Zn1 1_555 1_555
O12 Zn1 1_555 1_555
O13 Zn2 1_555 1_555
O14 C47 1_555 1_555
O15 C47 1_555 1_555
O16 C23 1_555 1_555
O17 C23 1_555 1_555
O18 C31 1_555 1_555
O19 C31 1_555 1_555
O20 C46 1_555 1_555
O21 C46 1_555 1_555
N6 Zn3 1_555 1_555
N7 C109 1_555 1_555
N8 Zn4 1_555 1_555
N9 C75 1_555 1_555
C16 C17 1_555 1_555
C17 C18 1_555 1_555
C18 H36 1_555 1_555
C19 C18 1_555 1_555
H37 C19 1_555 1_555
C20 C19 1_555 1_555
C21 C20 1_555 1_555
H38 C21 1_555 1_555
C22 C17 1_555 1_555
H39 C22 1_555 1_555
C23 C20 1_555 1_555
C24 O8 1_555 1_555
C25 C24 1_555 1_555
C26 C25 1_555 1_555
H40 C26 1_555 1_555
C27 C26 1_555 1_555
H41 C27 1_555 1_555
C28 C27 1_555 1_555
C29 C28 1_555 1_555
H42 C29 1_555 1_555
C30 C25 1_555 1_555
H43 C30 1_555 1_555
C31 C28 1_555 1_555
C32 O10 1_555 1_555
C33 C32 1_555 1_555
C34 C33 1_555 1_555
H44 C34 1_555 1_555
C35 C34 1_555 1_555
H45 C35 1_555 1_555
C36 C35 1_555 1_555
C37 C36 1_555 1_555
H46 C37 1_555 1_555
C38 C33 1_555 1_555
H47 C38 1_555 1_555
C39 O12 1_555 1_555
C40 C39 1_555 1_555
C41 C40 1_555 1_555
H48 C41 1_555 1_555
C42 C41 1_555 1_555
H49 C42 1_555 1_555
C43 C42 1_555 1_555
C44 C43 1_555 1_555
H50 C44 1_555 1_555
C45 C40 1_555 1_555
H51 C45 1_555 1_555
C46 C43 1_555 1_555
C47 C36 1_555 1_555
C48 N8 1_555 1_555
H52 C48 1_555 1_555
C49 C48 1_555 1_555
H53 C49 1_555 1_555
C50 C49 1_555 1_555
C51 C50 1_555 1_555
H54 C51 1_555 1_555
C52 N8 1_555 1_555
H55 C52 1_555 1_555
C53 C50 1_555 1_555
C54 C53 1_555 1_555
C55 C54 1_555 1_555
C56 C55 1_555 1_555
C57 C56 1_555 1_555
C58 C57 1_555 1_555
C59 C58 1_555 1_555
C60 C59 1_555 1_555
H56 C60 1_555 1_555
C61 C60 1_555 1_555
H57 C61 1_555 1_555
C62 C61 1_555 1_555
H58 C62 1_555 1_555
C63 C62 1_555 1_555
H59 C63 1_555 1_555
C64 C55 1_555 1_555
C65 C55 1_555 1_555
C66 C58 1_555 1_555
C67 C66 1_555 1_555
H60 C67 1_555 1_555
C68 C67 1_555 1_555
H61 C68 1_555 1_555
C69 C68 1_555 1_555
H62 C69 1_555 1_555
C70 C65 1_555 1_555
H63 C70 1_555 1_555
C71 C58 1_555 1_555
C72 C71 1_555 1_555
C73 C72 1_555 1_555
C74 C73 1_555 1_555
H64 C74 1_555 1_555
C75 C74 1_555 1_555
H65 C75 1_555 1_555
C76 N9 1_555 1_555
H66 C76 1_555 1_555
C77 C73 1_555 1_555
H67 C77 1_555 1_555
C78 N6 1_555 1_555
H68 C78 1_555 1_555
C79 C78 1_555 1_555
H69 C79 1_555 1_555
C80 C79 1_555 1_555
C81 C80 1_555 1_555
H70 C81 1_555 1_555
C82 N6 1_555 1_555
H71 C82 1_555 1_555
C83 C80 1_555 1_555
C84 C83 1_555 1_555
C85 C84 1_555 1_555
C86 C85 1_555 1_555
C87 C86 1_555 1_555
H72 C87 1_555 1_555
C88 C87 1_555 1_555
H73 C88 1_555 1_555
C89 C88 1_555 1_555
H74 C89 1_555 1_555
C90 C89 1_555 1_555
H75 C90 1_555 1_555
C91 C86 1_555 1_555
C92 C91 1_555 1_555
C93 C92 1_555 1_555
C94 C85 1_555 1_555
C95 C94 1_555 1_555
H76 C95 1_555 1_555
C96 C95 1_555 1_555
H77 C96 1_555 1_555
C97 C96 1_555 1_555
H78 C97 1_555 1_555
C98 C93 1_555 1_555
H79 C98 1_555 1_555
C99 C92 1_555 1_555
C100 C85 1_555 1_555
C101 C100 1_555 1_555
H80 C101 1_555 1_555
C102 C101 1_555 1_555
H81 C102 1_555 1_555
C103 C102 1_555 1_555
H82 C103 1_555 1_555
C104 C99 1_555 1_555
H83 C104 1_555 1_555
C105 C92 1_555 1_555
C106 C105 1_555 1_555
C107 C106 1_555 1_555
C108 C107 1_555 1_555
H84 C108 1_555 1_555
C109 C108 1_555 1_555
H85 C109 1_555 1_555
C110 N7 1_555 1_555
H86 C110 1_555 1_555
C111 C107 1_555 1_555
H87 C111 1_555 1_555
C112 C56 1_555 1_555
H88 C112 1_555 1_555
C113 C112 1_555 1_555
H89 C113 1_555 1_555
C114 C113 1_555 1_555
H90 C114 1_555 1_555
C115 C57 1_555 1_555
H91 C115 1_555 1_555
Zn1_2 N9 1_555 1_555
Zn2_2 N7 1_555 1_555
Zn3_2 O18 1_555 1_555
Zn3_3 O16 1_555 1_555
Zn3_4 O20 1_555 1_555
Zn4_2 O19 1_555 1_555
Zn4_3 O17 1_555 1_555
Zn4_4 O21 1_555 1_555
O16_2 Zn3 1_555 1_555
O17_2 Zn4 1_555 1_555
O18_2 Zn3 1_555 1_555
O19_2 Zn4 1_555 1_555
O20_2 Zn3 1_555 1_555
O21_2 Zn4 1_555 1_555
N7_2 Zn2 1_555 1_555
N9_2 Zn1 1_555 1_555
O9 C24 1_555 1_555
O11 C32 1_555 1_555
O13 C39 1_555 1_555
C21 C22 1_555 1_555
C29 C30 1_555 1_555
C37 C38 1_555 1_555
C44 C45 1_555 1_555
C51 C52 1_555 1_555
C59 C64 1_555 1_555
C63 C64 1_555 1_555
C65 C66 1_555 1_555
C69 C70 1_555 1_555
C76 C77 1_555 1_555
C81 C82 1_555 1_555
C90 C91 1_555 1_555
C93 C94 1_555 1_555
C97 C98 1_555 1_555
C99 C100 1_555 1_555
C103 C104 1_555 1_555
C110 C111 1_555 1_555
C114 C115 1_555 1_555

#END
