
#######################################################################
#
#                 Cambridge Crystallographic Data Centre
#                                CCDC 
#
#######################################################################
#
# If this CIF has been generated from an entry in the Cambridge 
# Structural Database, then it will include bibliographic, chemical, 
# crystal, experimental, refinement or atomic coordinate data resulting 
# from the CCDC's data processing and validation procedures.
#
#######################################################################

data_ETIXEM
_chemical_formula_moiety         '(C68 H50 N4 O10 Zn2)n'
_symmetry_cell_setting           monoclinic
_symmetry_space_group_name_H-M   'P 21/c'
_symmetry_Int_Tables_number      14
_space_group_name_Hall           '-P 2ybc'
loop_
_symmetry_equiv_pos_site_id
_symmetry_equiv_pos_as_xyz
1 x,y,z
2 -x,1/2+y,1/2-z
3 -x,-y,-z
4 x,1/2-y,1/2+z
_cell_length_a                   15.6390(19)
_cell_length_b                   21.426(3)
_cell_length_c                   15.9981(19)
_cell_angle_alpha                90
_cell_angle_beta                 94.5887(16)
_cell_angle_gamma                90
_cell_volume                     5343.48
loop_
_atom_site_label
_atom_site_type_symbol
_atom_site_fract_x
_atom_site_fract_y
_atom_site_fract_z
Zn1 Zn 0.80710(2) 0.76332(2) 0.94616(2)
Zn2 Zn 0.32564(2) 0.25657(2) 0.43224(2)
O1 O 0.72282(11) 0.71338(9) 0.87196(11)
O2 O 0.63603(11) 0.69417(9) 0.97352(11)
O3 O 0.38087(12) 0.32679(9) 0.50054(12)
O4 O 0.26803(12) 0.34162(9) 0.57603(12)
O5 O 0.24294(12) 0.19222(9) 0.38202(12)
O6 O 0.16137(12) 0.18214(9) 0.49029(12)
O7 O -0.13129(11) -0.18951(9) 0.04220(12)
O8 O -0.24123(12) -0.17487(10) 0.12102(12)
N1 N 0.89871(13) 0.77527(11) 0.86520(13)
N2 N 1.58213(13) 0.74895(11) 0.15004(14)
C1 C 0.97260(18) 0.80366(15) 0.88832(19)
H1 H 0.9810 0.8197 0.9437
C2 C 1.03746(18) 0.81092(16) 0.83565(19)
H2 H 1.0893 0.8315 0.8543
C3 C 1.02520(18) 0.78759(15) 0.75503(19)
C4 C 0.94791(19) 0.75929(16) 0.73036(19)
H3 H 0.9371 0.7439 0.6748
C5 C 0.88666(19) 0.75361(15) 0.78728(18)
H4 H 0.8340 0.7335 0.7702
C6 C 1.09119(19) 0.78875(16) 0.69789(19)
C7 C 1.14207(19) 0.78514(16) 0.64656(19)
C8 C 1.20058(18) 0.77962(15) 0.58075(19)
C9 C 1.23224(18) 0.71287(16) 0.5690(2)
C10 C 1.2138(2) 0.66175(17) 0.6169(2)
H5 H 1.1747 0.6654 0.6591
C11 C 1.2528(2) 0.6050(2) 0.6028(3)
H6 H 1.2413 0.5699 0.6364
C12 C 1.3086(3) 0.59910(19) 0.5400(3)
H7 H 1.3353 0.5601 0.5309
C13 C 1.3255(2) 0.65034(18) 0.4903(3)
H8 H 1.3625 0.6462 0.4464
C14 C 1.28789(19) 0.70719(16) 0.5053(2)
C15 C 1.30429(18) 0.76906(16) 0.46101(19)
C16 C 1.21546(18) 0.79546(15) 0.43130(19)
C17 C 1.16039(18) 0.80074(15) 0.49495(19)
C18 C 1.07887(19) 0.82435(16) 0.4791(2)
H9 H 1.0409 0.8266 0.5225
C19 C 1.0530(2) 0.84496(17) 0.3986(2)
H10 H 0.9976 0.8627 0.3870
C20 C 1.1076(2) 0.83970(17) 0.3355(2)
H11 H 1.0892 0.8533 0.2805
C21 C 1.1895(2) 0.81477(16) 0.3513(2)
H12 H 1.2268 0.8112 0.3075
C22 C 1.28331(18) 0.81843(16) 0.59652(19)
C23 C 1.3052(2) 0.85541(17) 0.6655(2)
H13 H 1.2672 0.8597 0.7085
C24 C 1.3830(2) 0.88607(18) 0.6711(2)
H14 H 1.3983 0.9122 0.7179
C25 C 1.4386(2) 0.87914(18) 0.6093(2)
H15 H 1.4923 0.9001 0.6141
C26 C 1.4168(2) 0.84158(17) 0.5396(2)
H16 H 1.4556 0.8363 0.4975
C27 C 1.33864(19) 0.81242(15) 0.53285(19)
C28 C 1.36135(19) 0.76342(16) 0.3937(2)
C29 C 1.40623(19) 0.75932(16) 0.3371(2)
C30 C 1.46401(18) 0.75493(14) 0.27143(19)
C31 C 1.53841(19) 0.72021(15) 0.28428(18)
H17 H 1.5502 0.6974 0.3348
C32 C 1.59550(17) 0.71908(14) 0.22265(18)
H18 H 1.6469 0.6957 0.2327
C33 C 1.50836(17) 0.78147(14) 0.13749(18)
H19 H 1.4973 0.8028 0.0857
C34 C 1.44775(18) 0.78556(15) 0.19605(19)
H20 H 1.3965 0.8088 0.1845
C35 C 0.66146(15) 0.68536(12) 0.90192(16)
C36 C 0.61507(16) 0.63752(12) 0.84668(16)
C37 C 0.63563(16) 0.62890(12) 0.76463(16)
H21 H 0.6805 0.6527 0.7438
C38 C 0.59137(17) 0.58593(13) 0.71285(17)
H22 H 0.6065 0.5805 0.6570
C39 C 0.52501(17) 0.55055(13) 0.74168(17)
C40 C 0.50583(18) 0.55901(14) 0.82458(18)
H23 H 0.4613 0.5350 0.8458
C41 C 0.55003(18) 0.60147(14) 0.87632(18)
H24 H 0.5360 0.6061 0.9327
C42 C 0.47574(17) 0.50444(13) 0.68797(17)
C43 C 0.51168(18) 0.47446(13) 0.62176(18)
H25 H 0.5674 0.4860 0.6077
C44 C 0.46723(17) 0.42824(13) 0.57641(18)
H26 H 0.4927 0.4084 0.5315
C45 C 0.38541(16) 0.41046(12) 0.59586(17)
C46 C 0.34792(17) 0.44210(13) 0.65887(18)
H27 H 0.2913 0.4317 0.6713
C47 C 0.39185(17) 0.48874(14) 0.70401(18)
H28 H 0.3647 0.5104 0.7464
C48 C 0.34071(16) 0.35569(12) 0.55361(17)
C49 C 0.18368(16) 0.16713(13) 0.41947(17)
C50 C 0.13534(17) 0.11526(13) 0.37442(18)
C51 C 0.07437(18) 0.08177(14) 0.41342(19)
H29 H 0.0651 0.0903 0.4703
C52 C 0.02658(19) 0.03587(15) 0.3703(2)
H30 H -0.0143 0.0127 0.3983
C53 C 0.03778(18) 0.02334(15) 0.2865(2)
C54 C 0.09994(18) 0.05671(14) 0.24768(19)
H31 H 0.1090 0.0485 0.1907
C55 C 0.14868(17) 0.10173(14) 0.29129(18)
H32 H 0.1916 0.1236 0.2643
C56 C -0.01519(18) -0.02413(16) 0.2389(2)
C57 C -0.0987(2) -0.0370(2) 0.2574(3)
H33 H -0.1226 -0.0145 0.3011
C58 C -0.1478(2) -0.0817(2) 0.2136(3)
H34 H -0.2047 -0.0897 0.2277
C59 C -0.11499(18) -0.11489(16) 0.14966(19)
C60 C -0.03157(18) -0.10245(15) 0.13018(19)
H35 H -0.0079 -0.1249 0.0863
C61 C 0.01715(18) -0.05776(15) 0.17423(19)
H36 H 0.0740 -0.0499 0.1600
C62 C -0.16732(17) -0.16321(14) 0.10066(17)
Zn1_2 Zn -0.19290(2) -0.23668(2) -0.05384(2)
Zn1A Zn 0.19290(2) 0.26332(2) 0.55384(2)
Zn2A Zn -0.32564(2) -0.24343(2) 0.06776(2)
Zn2A_2 Zn 0.67436(2) 0.75657(2) 1.06776(2)
Zn2A_3 Zn 1.67436(2) 0.75657(2) 0.06776(2)
O2A O 0.36397(11) 0.19417(9) 0.52648(11)
O4A O 0.73197(12) 0.84162(9) 0.92397(12)
O6A O 0.83863(12) 0.68214(9) 1.00971(12)
O7_2 O 0.86871(11) 0.81049(9) 1.04220(12)
O8A O 0.24123(12) 0.32513(10) 0.37898(12)
N2A N 0.41787(13) 0.24895(11) 0.34996(14)
N3 N 0.2718(2) 0.00336(16) 0.4625(2)
O9 O 0.2601(3) -0.04450(19) 0.3294(3)
C63 C 0.2393(3) -0.0397(2) 0.4066(3)
H37 H 0.1985 -0.0685 0.4248
C64 C 0.2396(3) 0.0080(2) 0.5436(3)
H38 H 0.1902 -0.0198 0.5463
H39 H 0.2220 0.0511 0.5533
H40 H 0.2847 -0.0041 0.5867
C65 C 0.3397(3) 0.04416(19) 0.4376(3)
H41 H 0.3950 0.0297 0.4635
H42 H 0.3290 0.0869 0.4560
H43 H 0.3407 0.0434 0.3764
N4 N 0.1704(15) 0.5116(12) 0.4518(15)
O10 O 0.2277(13) 0.5507(10) 0.3567(13)
C66 C 0.2456(16) 0.5006(13) 0.4168(17)
H44 H 0.2913 0.4717 0.4274
C67 C 0.1057(16) 0.5590(12) 0.4363(17)
H45 H 0.0495 0.5419 0.4471
H46 H 0.1046 0.5727 0.3778
H47 H 0.1189 0.5946 0.4735
C68 C 0.1496(17) 0.4691(12) 0.5221(16)
H48 H 0.0882 0.4718 0.5298
H49 H 0.1827 0.4819 0.5739
H50 H 0.1644 0.4261 0.5084
loop_
_geom_bond_atom_site_label_1
_geom_bond_atom_site_label_2
_geom_bond_site_symmetry_1
_geom_bond_site_symmetry_2
Zn1 O1 1_555 1_555
Zn2 O3 1_555 1_555
O1 C35 1_555 1_555
O2 C35 1_555 1_555
O3 C48 1_555 1_555
O4 C48 1_555 1_555
O5 Zn2 1_555 1_555
O6 C49 1_555 1_555
O7 C62 1_555 1_555
O8 C62 1_555 1_555
N1 Zn1 1_555 1_555
N2 C32 1_555 1_555
C1 N1 1_555 1_555
H1 C1 1_555 1_555
C2 C1 1_555 1_555
H2 C2 1_555 1_555
C3 C2 1_555 1_555
C4 C3 1_555 1_555
H3 C4 1_555 1_555
C5 N1 1_555 1_555
H4 C5 1_555 1_555
C6 C3 1_555 1_555
C7 C6 1_555 1_555
C8 C7 1_555 1_555
C9 C8 1_555 1_555
C10 C9 1_555 1_555
H5 C10 1_555 1_555
C11 C10 1_555 1_555
H6 C11 1_555 1_555
C12 C11 1_555 1_555
H7 C12 1_555 1_555
C13 C12 1_555 1_555
H8 C13 1_555 1_555
C14 C9 1_555 1_555
C15 C14 1_555 1_555
C16 C15 1_555 1_555
C17 C8 1_555 1_555
C18 C17 1_555 1_555
H9 C18 1_555 1_555
C19 C18 1_555 1_555
H10 C19 1_555 1_555
C20 C19 1_555 1_555
H11 C20 1_555 1_555
C21 C16 1_555 1_555
H12 C21 1_555 1_555
C22 C8 1_555 1_555
C23 C22 1_555 1_555
H13 C23 1_555 1_555
C24 C23 1_555 1_555
H14 C24 1_555 1_555
C25 C24 1_555 1_555
H15 C25 1_555 1_555
C26 C25 1_555 1_555
H16 C26 1_555 1_555
C27 C15 1_555 1_555
C28 C15 1_555 1_555
C29 C28 1_555 1_555
C30 C29 1_555 1_555
C31 C30 1_555 1_555
H17 C31 1_555 1_555
C32 C31 1_555 1_555
H18 C32 1_555 1_555
C33 N2 1_555 1_555
H19 C33 1_555 1_555
C34 C30 1_555 1_555
H20 C34 1_555 1_555
C35 C36 1_555 1_555
C36 C37 1_555 1_555
C37 H21 1_555 1_555
C38 C37 1_555 1_555
H22 C38 1_555 1_555
C39 C38 1_555 1_555
C40 C39 1_555 1_555
H23 C40 1_555 1_555
C41 C36 1_555 1_555
H24 C41 1_555 1_555
C42 C39 1_555 1_555
C43 C42 1_555 1_555
H25 C43 1_555 1_555
C44 C43 1_555 1_555
H26 C44 1_555 1_555
C45 C44 1_555 1_555
C46 C45 1_555 1_555
H27 C46 1_555 1_555
C47 C42 1_555 1_555
H28 C47 1_555 1_555
C48 C45 1_555 1_555
C49 O5 1_555 1_555
C50 C49 1_555 1_555
C51 C50 1_555 1_555
H29 C51 1_555 1_555
C52 C51 1_555 1_555
H30 C52 1_555 1_555
C53 C52 1_555 1_555
C54 C53 1_555 1_555
H31 C54 1_555 1_555
C55 C50 1_555 1_555
H32 C55 1_555 1_555
C56 C53 1_555 1_555
C57 C56 1_555 1_555
H33 C57 1_555 1_555
C58 C57 1_555 1_555
H34 C58 1_555 1_555
C59 C58 1_555 1_555
C60 C59 1_555 1_555
H35 C60 1_555 1_555
C61 C56 1_555 1_555
H36 C61 1_555 1_555
C62 C59 1_555 1_555
N3 C63 1_555 1_555
O9 C63 1_555 1_555
C63 H37 1_555 1_555
C64 N3 1_555 1_555
H38 C64 1_555 1_555
H39 C64 1_555 1_555
H40 C64 1_555 1_555
C65 N3 1_555 1_555
H41 C65 1_555 1_555
H42 C65 1_555 1_555
H43 C65 1_555 1_555
N4 C66 1_555 1_555
O10 C66 1_555 1_555
C66 H44 1_555 1_555
C67 N4 1_555 1_555
H45 C67 1_555 1_555
H46 C67 1_555 1_555
H47 C67 1_555 1_555
C68 N4 1_555 1_555
H48 C68 1_555 1_555
H49 C68 1_555 1_555
H50 C68 1_555 1_555
Zn1_2 O7 1_555 1_555
Zn1A O4 1_555 1_555
Zn2A O8 1_555 1_555
Zn2A_2 O2 1_555 1_555
Zn2A_3 N2 1_555 1_555
O2A Zn2 1_555 1_555
O4A Zn1 1_555 1_555
O6A Zn1 1_555 1_555
O7_2 Zn1 1_555 1_555
O8A Zn2 1_555 1_555
N2A Zn2 1_555 1_555
O6 Zn1A 1_555 1_555
C4 C5 1_555 1_555
C13 C14 1_555 1_555
C16 C17 1_555 1_555
C20 C21 1_555 1_555
C22 C27 1_555 1_555
C26 C27 1_555 1_555
C33 C34 1_555 1_555
C40 C41 1_555 1_555
C46 C47 1_555 1_555
C54 C55 1_555 1_555
C60 C61 1_555 1_555

#END
