
#######################################################################
#
#                 Cambridge Crystallographic Data Centre
#                                CCDC 
#
#######################################################################
#
# If this CIF has been generated from an entry in the Cambridge 
# Structural Database, then it will include bibliographic, chemical, 
# crystal, experimental, refinement or atomic coordinate data resulting 
# from the CCDC's data processing and validation procedures.
#
#######################################################################

data_RINSEM
_chemical_formula_moiety         '(C1 H8 N3 O6 P2 Zn1 1-)n'
_symmetry_cell_setting           orthorhombic
_symmetry_space_group_name_H-M   'F d d 2'
_symmetry_Int_Tables_number      43
_space_group_name_Hall           'F 2 -2d'
loop_
_symmetry_equiv_pos_site_id
_symmetry_equiv_pos_as_xyz
1 x,y,z
2 x,1/2+y,1/2+z
3 1/2+x,y,1/2+z
4 1/2+x,1/2+y,z
5 1/4-x,1/4+y,1/4+z
6 1/4-x,3/4+y,3/4+z
7 3/4-x,1/4+y,3/4+z
8 3/4-x,3/4+y,1/4+z
9 1/4+x,1/4-y,1/4+z
10 1/4+x,3/4-y,3/4+z
11 3/4+x,1/4-y,3/4+z
12 3/4+x,3/4-y,1/4+z
13 1/2-x,-y,1/2+z
14 1/2-x,1/2-y,z
15 -x,-y,z
16 -x,1/2-y,1/2+z
_cell_length_a                   15.2109(6)
_cell_length_b                   11.7281(5)
_cell_length_c                   14.1821(6)
_cell_angle_alpha                90
_cell_angle_beta                 90
_cell_angle_gamma                90
_cell_volume                     2530.02
loop_
_atom_site_label
_atom_site_type_symbol
_atom_site_fract_x
_atom_site_fract_y
_atom_site_fract_z
_atom_site_U_iso_or_equiv
_atom_site_thermal_displace_type
Zn1 Zn 0.0000 0.0000 0.66938(3) 0.0188 Uani
P1 P 0.168110(19) -0.12220(3) 0.59101(4) 0.0204 Uani
O1 O 0.08797(8) -0.04633(12) 0.57837(9) 0.0374 Uani
O2 O 0.22222(8) -0.11961(8) 0.49960(8) 0.0262 Uani
O3 O 0.2218(1) -0.09656(13) 0.67659(9) 0.0394 Uani
H1 H 0.1350(17) -0.226(2) 0.597(2) 0.0329 Uiso
P1N P -0.168110(19) 0.12220(3) 0.59101(4) 0.0204 Uani
O1N O -0.08797(8) 0.04633(12) 0.57837(9) 0.0374 Uani
O2N O -0.22222(8) 0.11961(8) 0.49960(8) 0.0262 Uani
O3N O -0.2218(1) 0.09656(13) 0.67659(9) 0.0394 Uani
H1N H -0.1350(17) 0.226(2) 0.597(2) 0.0329 Uiso
O2D O 0.02778(8) 0.13039(8) 0.74960(8) 0.0262 Uani
O2K O -0.02778(8) -0.13039(8) 0.74960(8) 0.0262 Uani
Zn1E Zn 0.2500 -0.2500 0.41938(3) 0.0188 Uani
Zn1F Zn -0.2500 0.2500 0.41938(3) 0.0188 Uani
C1 C 0.13458(13) 0.13507(15) 0.36399(12) 0.0360 Uani
N1 N 0.07277(14) 0.12854(17) 0.42840(14) 0.0537 Uani
N2 N 0.20087(14) 0.06256(18) 0.36256(12) 0.0507 Uani
N3 N 0.13132(13) 0.2154(2) 0.29818(15) 0.0554 Uani
H2 H 0.07573 0.06803 0.47798 0.0770 Uiso
H3 H 0.02318 0.18452 0.42839 0.0770 Uiso
H4 H 0.20420 0.00044 0.41072 0.0770 Uiso
H5 H 0.24760 0.06945 0.31329 0.0770 Uiso
H6 H 0.17816 0.2194 0.24882 0.0770 Uiso
H7 H 0.08265 0.2727 0.29861 0.0770 Uiso
loop_
_atom_site_aniso_label
_atom_site_aniso_U_11
_atom_site_aniso_U_22
_atom_site_aniso_U_33
_atom_site_aniso_U_23
_atom_site_aniso_U_13
_atom_site_aniso_U_12
Zn1 0.01984(8) 0.02054(8) 0.01609(8) 0.0000 0.0000 0.00016(7)
P1 0.02135(12) 0.02131(12) 0.01852(13) 0.0014(1) 0.0020(1) 0.00163(9)
O1 0.0335(5) 0.0499(7) 0.0288(5) 0.0115(5) 0.0111(4) 0.0204(5)
O2 0.0317(4) 0.0224(4) 0.0244(4) -0.0011(3) 0.0108(4) 0.0037(4)
O3 0.0414(6) 0.0499(7) 0.0269(6) -0.0042(5) -0.0085(5) -0.0039(5)
P1N 0.02135 0.02131 0.01852 -0.0014 -0.002 0.00163
O1N 0.0335 0.0499 0.0288 -0.0115 -0.0111 0.0204
O2N 0.0317 0.0224 0.0244 0.0011 -0.0108 0.0037
O3N 0.0414 0.0499 0.0269 0.0042 0.0085 -0.0039
O2D 0.0317 0.0224 0.0244 -0.0011 -0.0108 -0.0037
O2K 0.0317 0.0224 0.0244 0.0011 0.0108 -0.0037
Zn1E 0.01984 0.02054 0.01609 0 0 -0.00016
Zn1F 0.01984 0.02054 0.01609 0 0 -0.00016
C1 0.0405(7) 0.0384(7) 0.0292(7) 0.0124(6) 0.0071(6) 0.0074(6)
N1 0.0600(11) 0.057(1) 0.0440(9) 0.0206(8) 0.0248(8) 0.0211(8)
N2 0.057(1) 0.058(1) 0.0371(8) 0.0157(7) 0.0121(7) 0.0257(9)
N3 0.0439(8) 0.0664(12) 0.0560(11) 0.039(1) 0.0124(8) 0.0156(8)
loop_
_geom_bond_atom_site_label_1
_geom_bond_atom_site_label_2
_geom_bond_site_symmetry_1
_geom_bond_site_symmetry_2
Zn1 O1 1_555 1_555
P1 O1 1_555 1_555
O2 P1 1_555 1_555
O3 P1 1_555 1_555
H1 P1 1_555 1_555
C1 N1 1_555 1_555
N1 H2 1_555 1_555
N2 C1 1_555 1_555
N3 C1 1_555 1_555
H3 N1 1_555 1_555
H4 N2 1_555 1_555
H5 N2 1_555 1_555
H6 N3 1_555 1_555
H7 N3 1_555 1_555
P1N O1N 1_555 1_555
O1N Zn1 1_555 1_555
O2N P1N 1_555 1_555
O3N P1N 1_555 1_555
H1N P1N 1_555 1_555
O2D Zn1 1_555 1_555
O2K Zn1 1_555 1_555
Zn1E O2 1_555 1_555
Zn1F O2N 1_555 1_555

#END
