
#######################################################################
#
#                 Cambridge Crystallographic Data Centre
#                                CCDC 
#
#######################################################################
#
# If this CIF has been generated from an entry in the Cambridge 
# Structural Database, then it will include bibliographic, chemical, 
# crystal, experimental, refinement or atomic coordinate data resulting 
# from the CCDC's data processing and validation procedures.
#
#######################################################################

data_RUNXUV
_chemical_formula_moiety         '(C37 H35 N3 O9 Zn2)n'
_symmetry_cell_setting           triclinic
_symmetry_space_group_name_H-M   'P -1'
_symmetry_Int_Tables_number      2
_space_group_name_Hall           '-P 1'
loop_
_symmetry_equiv_pos_site_id
_symmetry_equiv_pos_as_xyz
1 x,y,z
2 -x,-y,-z
_cell_length_a                   5.9540(12)
_cell_length_b                   13.521(3)
_cell_length_c                   13.942(3)
_cell_angle_alpha                95.02(3)
_cell_angle_beta                 94.33(3)
_cell_angle_gamma                99.72(3)
_cell_volume                     1097.36
loop_
_atom_site_label
_atom_site_type_symbol
_atom_site_fract_x
_atom_site_fract_y
_atom_site_fract_z
O5 O 0.5639(17) 0.8657(10) 0.0498(9)
C18 C 0.7146(15) 0.9313(8) 0.0983(7)
H15 H 0.6757 0.9862 0.1370
N2 N 0.9368(10) 0.9197(4) 0.0925(4)
C19 C 1.1175(14) 0.9915(6) 0.1458(6)
H16 H 1.2652 0.9723 0.1337
H17 H 1.1132 1.0586 0.1250
H18 H 1.0979 0.9927 0.2150
C20 C 0.9910(15) 0.8353(6) 0.0413(6)
H19 H 1.1576 0.8402 0.0453
H20 H 0.9227 0.7744 0.0692
H21 H 0.9309 0.8317 -0.0265
Zn1 Zn 1.27390(10) 1.05515(4) 0.50156(4)
O1 O 1.2438(6) 0.9493(3) 0.3939(3)
C1 C 1.2941(9) 0.8625(4) 0.3977(4)
O2 O 1.4608(6) 0.8443(3) 0.4520(3)
C2 C 1.1498(9) 0.7754(4) 0.3364(4)
C3 C 0.9394(10) 0.7847(5) 0.2925(4)
H1 H 0.8883 0.8476 0.2992
C4 C 0.8025(9) 0.7022(5) 0.2387(4)
H2 H 0.6564 0.7087 0.2103
C5 C 0.8758(9) 0.6106(4) 0.2260(4)
C6 C 1.0901(11) 0.6024(5) 0.2673(5)
H3 H 1.1447 0.5406 0.2573
C7 C 1.2260(10) 0.6841(5) 0.3233(5)
H4 H 1.3712 0.6774 0.3526
C8 C 0.7226(10) 0.5180(5) 0.1720(5)
H5 H 0.6584 0.4730 0.2193
H6 H 0.5935 0.5392 0.1350
N1 N 0.8449(8) 0.4629(3) 0.1065(3)
C9 C 0.7215(11) 0.3577(4) 0.0828(4)
H7 H 0.7717 0.3288 0.0220
H8 H 0.5553 0.3578 0.0722
C10 C 0.7645(9) 0.2927(4) 0.1620(4)
C11 C 0.9841(10) 0.3034(5) 0.2110(4)
H9 H 1.1053 0.3517 0.1934
C12 C 1.0251(9) 0.2458(4) 0.2829(4)
H10 H 1.1731 0.2562 0.3167
C13 C 0.8521(9) 0.1705(4) 0.3083(4)
C14 C 0.6357(9) 0.1597(4) 0.2610(4)
H11 H 0.5161 0.1099 0.2775
C15 C 0.5921(9) 0.2204(4) 0.1901(4)
H12 H 0.4413 0.2129 0.1595
C16 C 0.9009(9) 0.1068(4) 0.3849(4)
O3 O 1.0771(7) 0.1375(3) 0.4436(3)
O4 O 0.7681(6) 0.0218(3) 0.3868(3)
C17 C 0.8959(10) 0.5152(4) 0.0218(4)
H13 H 0.9251 0.5889 0.0403
H14 H 0.7622 0.4989 -0.0271
O1A O 0.7562(6) 0.0507(3) -0.3939(3)
C1A C 0.7059(9) 0.1375(4) -0.3977(4)
O2A O 0.5392(6) 0.1557(3) -0.4520(3)
C2A C 0.8502(9) 0.2246(4) -0.3364(4)
C3A C 1.0606(10) 0.2153(5) -0.2925(4)
H1A H 1.1117 0.1524 -0.2992
C4A C 1.1975(9) 0.2978(5) -0.2387(4)
H2A H 1.3436 0.2913 -0.2103
C5A C 1.1242(9) 0.3894(4) -0.2260(4)
C6A C 0.9099(11) 0.3976(5) -0.2673(5)
H3A H 0.8553 0.4594 -0.2573
C7A C 0.7740(10) 0.3159(5) -0.3233(5)
H4A H 0.6288 0.3226 -0.3526
C8A C 1.2774(10) 0.4820(5) -0.1720(5)
H5A H 1.3416 0.5270 -0.2193
H6A H 1.4065 0.4608 -0.1350
N1A N 1.1551(8) 0.5371(3) -0.1065(3)
C9A C 1.2785(11) 0.6423(4) -0.0828(4)
H7A H 1.2283 0.6712 -0.0220
H8A H 1.4447 0.6422 -0.0722
C10A C 1.2355(9) 0.7073(4) -0.1620(4)
C11A C 1.0159(10) 0.6966(5) -0.2110(4)
H9A H 0.8947 0.6483 -0.1934
C12A C 0.9749(9) 0.7542(4) -0.2829(4)
H10A H 0.8269 0.7438 -0.3167
C13A C 1.1479(9) 0.8295(4) -0.3083(4)
C14A C 1.3643(9) 0.8403(4) -0.2610(4)
H11A H 1.4839 0.8901 -0.2775
C15A C 1.4079(9) 0.7796(4) -0.1901(4)
H12A H 1.5587 0.7871 -0.1595
C16A C 1.0991(9) 0.8932(4) -0.3849(4)
O3A O 0.9229(7) 0.8625(3) -0.4436(3)
O4A O 1.2319(6) 0.9782(3) -0.3868(3)
C17A C 1.1041(10) 0.4848(4) -0.0218(4)
H13A H 1.0749 0.4111 -0.0403
H14A H 1.2378 0.5011 0.0271
Zn1A Zn 0.72610(10) -0.05515(4) -0.50156(4)
Zn1_2 Zn 0.27390(10) 0.05515(4) -0.49844(4)
Zn1_3 Zn 1.27390(10) 0.05515(4) 0.50156(4)
Zn1_4 Zn 1.27390(10) 1.05515(4) -0.49844(4)
Zn1A_2 Zn 0.72610(10) -0.05515(4) 0.49844(4)
Zn1A_3 Zn 0.72610(10) 0.94485(4) -0.50156(4)
Zn1A_4 Zn 1.72610(10) 0.94485(4) 0.49844(4)
O2_2 O 0.4608(6) -0.1557(3) -0.5480(3)
O2A_2 O 1.5392(6) 1.1557(3) 0.5480(3)
O3_2 O 1.0771(7) 1.1375(3) 0.4436(3)
O3A_2 O 0.9229(7) -0.1375(3) -0.4436(3)
O4_2 O 0.7681(6) 0.0218(3) -0.6132(3)
O4A_2 O 1.2319(6) 0.9782(3) 0.6132(3)
loop_
_geom_bond_atom_site_label_1
_geom_bond_atom_site_label_2
_geom_bond_site_symmetry_1
_geom_bond_site_symmetry_2
Zn1 O1 1_555 1_555
O1 C1 1_555 1_555
C1 O2 1_555 1_555
O2 Zn1A_4 1_555 1_555
C2 C1 1_555 1_555
C3 C2 1_555 1_555
H1 C3 1_555 1_555
C4 C3 1_555 1_555
H2 C4 1_555 1_555
C5 C4 1_555 1_555
C6 C5 1_555 1_555
H3 C6 1_555 1_555
C7 C2 1_555 1_555
H4 C7 1_555 1_555
C8 C5 1_555 1_555
H5 C8 1_555 1_555
H6 C8 1_555 1_555
N1 C8 1_555 1_555
C9 N1 1_555 1_555
H7 C9 1_555 1_555
H8 C9 1_555 1_555
C10 C9 1_555 1_555
C11 C10 1_555 1_555
H9 C11 1_555 1_555
C12 C11 1_555 1_555
H10 C12 1_555 1_555
C13 C12 1_555 1_555
C14 C13 1_555 1_555
H11 C14 1_555 1_555
C15 C10 1_555 1_555
H12 C15 1_555 1_555
C16 C13 1_555 1_555
O3 C16 1_555 1_555
O4 C16 1_555 1_555
C17 N1 1_555 1_555
H13 C17 1_555 1_555
H14 C17 1_555 1_555
O5 C18 1_555 1_555
C18 H15 1_555 1_555
N2 C18 1_555 1_555
C19 N2 1_555 1_555
H16 C19 1_555 1_555
H17 C19 1_555 1_555
H18 C19 1_555 1_555
C20 N2 1_555 1_555
H19 C20 1_555 1_555
H20 C20 1_555 1_555
H21 C20 1_555 1_555
O1A C1A 1_555 1_555
C1A O2A 1_555 1_555
O2A Zn1_2 1_555 1_555
C2A C1A 1_555 1_555
C3A C2A 1_555 1_555
H1A C3A 1_555 1_555
C4A C3A 1_555 1_555
H2A C4A 1_555 1_555
C5A C4A 1_555 1_555
C6A C5A 1_555 1_555
H3A C6A 1_555 1_555
C7A C2A 1_555 1_555
H4A C7A 1_555 1_555
C8A C5A 1_555 1_555
H5A C8A 1_555 1_555
H6A C8A 1_555 1_555
N1A C8A 1_555 1_555
C9A N1A 1_555 1_555
H7A C9A 1_555 1_555
H8A C9A 1_555 1_555
C10A C9A 1_555 1_555
C11A C10A 1_555 1_555
H9A C11A 1_555 1_555
C12A C11A 1_555 1_555
H10A C12A 1_555 1_555
C13A C12A 1_555 1_555
C14A C13A 1_555 1_555
H11A C14A 1_555 1_555
C15A C10A 1_555 1_555
H12A C15A 1_555 1_555
C16A C13A 1_555 1_555
O3A C16A 1_555 1_555
O4A C16A 1_555 1_555
C17A C17 1_555 1_555
H13A C17A 1_555 1_555
H14A C17A 1_555 1_555
Zn1A O1A 1_555 1_555
Zn1_3 O3 1_555 1_555
Zn1_4 O4A 1_555 1_555
Zn1A_2 O4 1_555 1_555
Zn1A_3 O3A 1_555 1_555
O2_2 Zn1A 1_555 1_555
O2A_2 Zn1 1_555 1_555
O3_2 Zn1 1_555 1_555
O3A_2 Zn1A 1_555 1_555
O4_2 Zn1A 1_555 1_555
O4A_2 Zn1 1_555 1_555
C6 C7 1_555 1_555
C14 C15 1_555 1_555
C6A C7A 1_555 1_555
N1A C17A 1_555 1_555
C14A C15A 1_555 1_555

#END
