
#######################################################################
#
#                 Cambridge Crystallographic Data Centre
#                                CCDC 
#
#######################################################################
#
# If this CIF has been generated from an entry in the Cambridge 
# Structural Database, then it will include bibliographic, chemical, 
# crystal, experimental, refinement or atomic coordinate data resulting 
# from the CCDC's data processing and validation procedures.
#
#######################################################################

data_JIVQOU
_chemical_formula_moiety         '(C12 H44 Fe6 N6 O35 P8 2+)n'
_symmetry_cell_setting           triclinic
_symmetry_space_group_name_H-M   'P -1'
_symmetry_Int_Tables_number      2
_space_group_name_Hall           '-P 1'
loop_
_symmetry_equiv_pos_site_id
_symmetry_equiv_pos_as_xyz
1 x,y,z
2 -x,-y,-z
_cell_length_a                   9.1768(1)
_cell_length_b                   12.7229(1)
_cell_length_c                   16.4830(2)
_cell_angle_alpha                68.530(1)
_cell_angle_beta                 83.285(1)
_cell_angle_gamma                73.259(1)
_cell_volume                     1714.89
loop_
_atom_site_label
_atom_site_type_symbol
_atom_site_fract_x
_atom_site_fract_y
_atom_site_fract_z
Fe1 Fe -0.05486(9) 0.55459(7) 0.12999(5)
Fe2 Fe -0.02870(9) 0.06611(7) 0.12269(5)
Fe3 Fe 0.31144(9) 0.19092(7) 0.24756(5)
Fe4 Fe -0.68907(9) 0.68775(7) 0.25197(5)
Fe5 Fe -0.03718(9) 0.44117(7) 0.38236(5)
Fe6 Fe -0.03699(9) -0.05862(7) 0.38258(5)
P1 P 0.0934(2) 0.3087(14) 0.0795(1)
P2 P -0.3407(2) 0.5223(1) 0.2629(1)
P3 P 0.1257(2) -0.1224(1) 0.0797(1)
P4 P 0.2275(2) -0.0609(1) 0.2801(1)
P5 P 0.2194(2) 0.4377(1) 0.27545(9)
P6 P -0.9473(2) 0.6591(1) 0.4009(1)
P7 P 0.0471(2) 0.1637(1) 0.4029(1)
P8 P -0.3292(2) 0.0440(2) 0.2528(1)
O1 O 0.0037(5) 0.2176(4) 0.1064(3)
O2 O 0.2419(5) 0.2617(4) 0.1305(3)
O3 O -0.0054(5) 0.4189(3) 0.0950(3)
O4 O 0.1409(5) 0.3379(3) -0.0176(3)
O5 O -0.2544(4) 0.5293(4) 0.1765(3)
O6 O -0.4753(4) 0.6287(4) 0.2516(3)
O7 O -0.2431(4) 0.5083(4) 0.3354(3)
O8 O -0.4031(5) 0.4108(4) 0.2895(3)
O9 O 0.1695(4) -0.0091(3) 0.0690(2)
O10 O 0.1257(5) -0.1425(4) -0.0061(2)
O11 O -0.0323(5) -0.1031(4) 0.1231(3)
O12 O 0.2402(5) -0.2325(3) 0.1355(3)
O13 O 0.3140(5) 0.0328(3) 0.2495(3)
O14 O 0.3270(4) -0.1627(3) 0.2552(3)
O15 O 0.1925(4) -0.0981(3) 0.3794(2)
O16 O 0.0642(4) -0.0145(3) 0.2430(2)
O17 O 0.0534(4) 0.4661(3) 0.2436(2)
O18 O 0.3288(4) 0.3425(3) 0.2468(3)
O19 O 0.2744(4) 0.5485(3) 0.2350(3)
O20 O 0.1948(4) 0.4000(3) 0.3751(2)
O21 O -0.7868(5) 0.6571(4) 0.3618(3)
O22 O -1.0340(4) 0.6070(3) 0.3574(2)
O23 O -1.0399(5) 0.7851(3) 0.3866(3)
O24 O -0.9257(5) 0.5871(4) 0.4975(3)
O25 O 0.1944(5) 0.1723(4) 0.3501(3)
O26 O -0.0555(4) 0.2861(3) 0.3942(3)
O27 O -0.0446(5) 0.1053(3) 0.3699(3)
O28 O 0.0941(5) 0.0933(4) 0.4972(3)
O29 O -0.2338(4) 0.0872(4) 0.1721(3)
O30 O -0.4718(4) 0.1396(4) 0.2539(3)
O31 O -0.2436(4) -0.0018(3) 0.3369(3)
O32 O -0.3850(9) -0.0568(6) 0.2440(6)
O33 O -0.1126(5) 0.6965(3) 0.1795(3)
O34 O 0.1496(4) 0.6097(3) 0.0771(3)
O4A O -0.1409(5) 0.6621(3) 0.0176(3)
O10A O -0.1257(5) 0.1425(4) 0.0061(2)
O12_2 O -0.7598(5) 0.7675(3) 0.1355(3)
O14_2 O -0.6730(4) 0.8373(3) 0.2552(3)
O19_2 O -0.7256(4) 0.5485(3) 0.2350(3)
O22_2 O -0.0340(4) 0.6070(3) 0.3574(2)
O23_2 O -0.0399(5) -0.2149(3) 0.3866(3)
O24A O -0.0743(5) 0.4129(4) 0.5025(3)
O28A O -0.0941(5) -0.0933(4) 0.5028(3)
O30_2 O 0.5282(4) 0.1396(4) 0.2539(3)
Fe1A Fe 0.05486(9) 0.44541(7) -0.12999(5)
Fe2A Fe 0.02870(9) -0.06611(7) -0.12269(5)
Fe4_2 Fe 0.31093(9) -0.31225(7) 0.25197(5)
Fe4_3 Fe 0.31093(9) 0.68775(7) 0.25197(5)
Fe5_2 Fe -1.03718(9) 0.44117(7) 0.38236(5)
Fe6_2 Fe -1.03699(9) 0.94138(7) 0.38258(5)
Fe5A Fe -0.96282(9) 0.55883(7) 0.61764(5)
Fe6A Fe 0.03699(9) 0.05862(7) 0.61742(5)
Fe3_2 Fe -0.68856(9) 0.19092(7) 0.24756(5)
O35 O -0.216(1) 0.262(1) 0.2390(8)
N1 N -0.3333(6) 0.7588(5) 0.4705(3)
N2 N -0.6435(6) 0.7479(5) 0.5197(3)
C1 C -0.4497(7) 0.8609(6) 0.4860(4)
C2 C -0.5692(7) 0.8173(6) 0.5515(4)
C3 C -0.5274(8) 0.6474(6) 0.5018(4)
C4 C -0.4087(8) 0.6937(6) 0.4358(5)
N3 N -0.3623(6) 0.4906(5) 0.0406(4)
C5 C -0.4763(8) 0.6077(6) 0.0031(5)
C6 C -0.4348(8) 0.3919(6) 0.0707(5)
C6A C -0.5652(8) 0.6081(6) -0.0707(5)
C5A C -0.5237(8) 0.3923(6) -0.0031(5)
N3A N -0.6377(6) 0.5094(5) -0.0406(4)
N4 N -0.6226(7) 0.0399(5) -0.0622(4)
C7 C -0.5102(9) -0.0795(7) -0.0419(5)
C8 C -0.5497(8) 0.1244(6) -0.0520(5)
C8A C -0.4503(8) -0.1244(6) 0.0520(5)
C7A C -0.4898(9) 0.0795(7) 0.0419(5)
N4A N -0.3774(7) -0.0399(5) 0.0622(4)
loop_
_geom_bond_atom_site_label_1
_geom_bond_atom_site_label_2
_geom_bond_site_symmetry_1
_geom_bond_site_symmetry_2
Fe1 O3 1_555 1_555
Fe2 O1 1_555 1_555
Fe3 O2 1_555 1_555
Fe4 O6 1_555 1_555
Fe5 O7 1_555 1_555
Fe6 O15 1_555 1_555
P1 O1 1_555 1_555
P2 O5 1_555 1_555
P3 O9 1_555 1_555
P4 O13 1_555 1_555
P5 O17 1_555 1_555
P6 O21 1_555 1_555
P7 O25 1_555 1_555
P8 O29 1_555 1_555
O2 P1 1_555 1_555
O3 P1 1_555 1_555
O4 P1 1_555 1_555
O5 Fe1 1_555 1_555
O6 P2 1_555 1_555
O7 P2 1_555 1_555
O8 P2 1_555 1_555
O9 Fe2 1_555 1_555
O10 P3 1_555 1_555
O11 Fe2 1_555 1_555
O12 P3 1_555 1_555
O13 Fe3 1_555 1_555
O14 P4 1_555 1_555
O15 P4 1_555 1_555
O16 Fe2 1_555 1_555
O17 Fe1 1_555 1_555
O18 Fe3 1_555 1_555
O19 P5 1_555 1_555
O20 Fe5 1_555 1_555
O21 Fe4 1_555 1_555
O22 P6 1_555 1_555
O23 P6 1_555 1_555
O24 P6 1_555 1_555
O25 Fe3 1_555 1_555
O26 Fe5 1_555 1_555
O27 Fe6 1_555 1_555
O28 P7 1_555 1_555
O29 Fe2 1_555 1_555
O30 P8 1_555 1_555
O31 Fe6 1_555 1_555
O32 P8 1_555 1_555
O33 Fe1 1_555 1_555
O34 Fe1 1_555 1_555
N1 C1 1_555 1_555
N2 C2 1_555 1_555
C1 C2 1_555 1_555
C3 N2 1_555 1_555
C4 N1 1_555 1_555
N3 C5 1_555 1_555
C5 C6A 1_555 1_555
C6 N3 1_555 1_555
N4 C7 1_555 1_555
C7 C8A 1_555 1_555
C8 N4 1_555 1_555
O4A Fe1 1_555 1_555
O10A Fe2 1_555 1_555
O12_2 Fe4 1_555 1_555
O14_2 Fe4 1_555 1_555
O19_2 Fe4 1_555 1_555
O22_2 Fe5 1_555 1_555
O23_2 Fe6 1_555 1_555
O24A Fe5 1_555 1_555
O28A Fe6 1_555 1_555
O30_2 Fe3 1_555 1_555
Fe1A O4 1_555 1_555
Fe2A O10 1_555 1_555
Fe4_2 O12 1_555 1_555
Fe4_3 O19 1_555 1_555
Fe5_2 O22 1_555 1_555
Fe6_2 O23 1_555 1_555
Fe5A O24 1_555 1_555
Fe6A O28 1_555 1_555
Fe3_2 O30 1_555 1_555
C6A N3A 1_555 1_555
C5A C6 1_555 1_555
N3A C5A 1_555 1_555
C8A N4A 1_555 1_555
C7A C8 1_555 1_555
N4A C7A 1_555 1_555
Fe5 O17 1_555 1_555
Fe6 O16 1_555 1_555
P3 O11 1_555 1_555
P4 O16 1_555 1_555
P5 O18 1_555 1_555
P5 O20 1_555 1_555
P7 O26 1_555 1_555
P7 O27 1_555 1_555
P8 O31 1_555 1_555
O14 Fe4_2 1_555 1_555
C3 C4 1_555 1_555

#END
