
#######################################################################
#
#                 Cambridge Crystallographic Data Centre
#                                CCDC 
#
#######################################################################
#
# If this CIF has been generated from an entry in the Cambridge 
# Structural Database, then it will include bibliographic, chemical, 
# crystal, experimental, refinement or atomic coordinate data resulting 
# from the CCDC's data processing and validation procedures.
#
#######################################################################

data_PAPVAF
_chemical_formula_moiety         '(C27 H34 O18 Pr2)n'
_symmetry_cell_setting           hexagonal
_symmetry_space_group_name_H-M   'P 63/m'
_symmetry_Int_Tables_number      176
_space_group_name_Hall           '-P 6c'
loop_
_symmetry_equiv_pos_site_id
_symmetry_equiv_pos_as_xyz
1 x,y,z
2 -y,x-y,z
3 -x+y,-x,z
4 -x,-y,1/2+z
5 y,-x+y,1/2+z
6 x-y,x,1/2+z
7 -x,-y,-z
8 y,-x+y,-z
9 x-y,x,-z
10 x,y,1/2-z
11 -y,x-y,1/2-z
12 -x+y,-x,1/2-z
_cell_length_a                   19.869(3)
_cell_length_b                   19.869(3)
_cell_length_c                   27.470(7)
_cell_angle_alpha                90
_cell_angle_beta                 90
_cell_angle_gamma                120
_cell_volume                     9391.64
loop_
_atom_site_label
_atom_site_type_symbol
_atom_site_fract_x
_atom_site_fract_y
_atom_site_fract_z
_atom_site_U_iso_or_equiv
_atom_site_thermal_displace_type
Pr1 Pr 0.484943(28) 0.52753(2) 0.929784(16) 0.0953 Uani
C1 C 0.1075(7) 0.4616(5) 1.0305(3) 0.1069 Uani
O1 O 0.5488(6) 0.4968(5) 0.8601(3) 0.1966 Uani
C2 C 0.1639(6) 0.4376(4) 1.0454(3) 0.1088 Uani
O2 O 0.3912(10) 0.4663(8) 0.8599(3) 0.2770 Uani
C3 C 0.2292(6) 0.4582(4) 1.0183(3) 0.1086 Uani
H1 H 0.2368 0.4861 0.9896 0.1300 Uiso
O3 O 0.4459(10) 0.6091(9) 0.8839(4) 0.4277 Uani
O4 O 0.3557(5) 0.4873(4) 0.9629(2) 0.1274 Uani
C4 C 0.2832(6) 0.4393(4) 1.0320(3) 0.1102 Uani
C5 C 0.3546(7) 0.4633(5) 1.0053(3) 0.1089 Uani
O5 O 0.5941(8) 0.6639(5) 0.8976(3) 0.2312 Uani
O6 O 0.4113(4) 0.4608(3) 1.0223(2) 0.1217 Uani
C6 C 0.2729(7) 0.3984(5) 1.0748(3) 0.1250 Uani
H2 H 0.3100 0.3864 1.0854 0.1500 Uiso
O7 O 0.0546(3) 0.4503(3) 1.0595(2) 0.1347 Uani
C7 C 0.2071(8) 0.3764(5) 1.1006(4) 0.1548 Uani
O8 O 0.1165(3) 0.4906(3) 0.9910(2) 0.1224 Uani
C8 C 0.1532(7) 0.3972(5) 1.0873(3) 0.1306 Uani
H3 H 0.1100 0.3838 1.1067 0.1560 Uiso
O9 O 0.1850(8) 0.3314(5) 1.1441(3) 0.2006 Uani
C9 C 0.2359(12) 0.3034(8) 1.1593(5) 0.2338 Uani
H4 H 0.2876 0.3464 1.1658 0.2810 Uiso
H5 H 0.2394 0.2707 1.1344 0.2810 Uiso
C10 C 0.1488(15) 0.1791(11) 1.2059(5) 0.2459 Uani
C11 C 0.1272(15) 0.1447(10) 1.2500 0.1922 Uani
C12 C 0.1285(18) 0.1453(13) 1.1561(5) 0.3561 Uani
H6 H 0.1528 0.1860 1.1324 0.5380 Uiso
H7 H 0.0731 0.1191 1.1519 0.5380 Uiso
H8 H 0.1464 0.1088 1.1519 0.5380 Uiso
C13 C 0.1989(12) 0.2559(8) 1.2063(6) 0.2040 Uiso
C14 C 0.2239(23) 0.3025(16) 1.2500 0.2980 Uiso
C15 C 0.3009(20) 0.4009(14) 1.2500 0.2970 Uiso
Pr1I Pr 0.484943(28) 0.52753(2) 1.570216(16) 0.0953 Uani
Pr1F Pr 0.515057(28) 0.47247(2) 1.070216(16) 0.0953 Uani
Pr1H Pr -0.042587(34) 0.484943(28) 1.070216(16) 0.0953 Uani
Pr1B Pr 0.042587(34) 0.515057(28) 0.929784(16) 0.0953 Uani
Pr1E Pr -0.042587(34) 0.484943(28) 1.429784(16) 0.0953 Uani
Pr1K Pr 0.042587(34) 0.515057(28) 1.570216(16) 0.0953 Uani
Pr1C Pr 0.515057(28) 0.47247(2) 1.429784(16) 0.0953 Uani
C1I C 0.1075(7) 0.4616(5) 1.4695(3) 0.1069 Uani
O1I O 0.5488(6) 0.4968(5) 1.6399(3) 0.1966 Uani
C2I C 0.1639(6) 0.4376(4) 1.4546(3) 0.1088 Uani
O2I O 0.3912(10) 0.4663(8) 1.6401(3) 0.2770 Uani
C3I C 0.2292(6) 0.4582(4) 1.4817(3) 0.1086 Uani
H1I H 0.2368 0.4861 1.5104 0.1300 Uiso
O3I O 0.4459(10) 0.6091(9) 1.6161(4) 0.4277 Uani
O4I O 0.3557(5) 0.4873(4) 1.5371(2) 0.1274 Uani
C4I C 0.2832(6) 0.4393(4) 1.4680(3) 0.1102 Uani
C5I C 0.3546(7) 0.4633(5) 1.4947(3) 0.1089 Uani
O5I O 0.5941(8) 0.6639(5) 1.6024(3) 0.2312 Uani
O6I O 0.4113(4) 0.4608(3) 1.4777(2) 0.1217 Uani
O6F O 0.5887(4) 0.5392(3) 0.9777(2) 0.1217 Uani
O6C O 0.5887(4) 0.5392(3) 1.5223(2) 0.1217 Uani
C6I C 0.2729(7) 0.3984(5) 1.4252(3) 0.1250 Uani
H2I H 0.3100 0.3864 1.4146 0.1500 Uiso
O7I O 0.0546(3) 0.4503(3) 1.4405(2) 0.1347 Uani
O7G O 0.4503(3) 0.3957(4) 0.9405(2) 0.1347 Uani
O7D O 0.4503(3) 0.3957(4) 1.5595(2) 0.1347 Uani
C7I C 0.2071(8) 0.3764(5) 1.3994(4) 0.1548 Uani
O8I O 0.1165(3) 0.4906(3) 1.5090(2) 0.1224 Uani
O8A O 0.5094(3) 0.6259(4) 0.9910(2) 0.1224 Uani
O8J O 0.5094(3) 0.6259(4) 1.5090(2) 0.1224 Uani
C8I C 0.1532(7) 0.3972(5) 1.4127(3) 0.1306 Uani
H3I H 0.1100 0.3838 1.3933 0.1560 Uiso
O9I O 0.1850(8) 0.3314(5) 1.3559(3) 0.2006 Uani
C9I C 0.2359(12) 0.3034(8) 1.3407(5) 0.2338 Uani
H4I H 0.2876 0.3464 1.3342 0.2810 Uiso
H5I H 0.2394 0.2707 1.3656 0.2810 Uiso
C10I C 0.1488(15) 0.1791(11) 1.2941(5) 0.2459 Uani
C12I C 0.1285(18) 0.1453(13) 1.3439(5) 0.3561 Uani
H6I H 0.1528 0.1860 1.3676 0.5380 Uiso
H7I H 0.0731 0.1191 1.3481 0.5380 Uiso
H8I H 0.1464 0.1088 1.3481 0.5380 Uiso
C13I C 0.1989(12) 0.2559(8) 1.2937(6) 0.2040 Uiso
loop_
_atom_site_aniso_label
_atom_site_aniso_U_11
_atom_site_aniso_U_22
_atom_site_aniso_U_33
_atom_site_aniso_U_23
_atom_site_aniso_U_13
_atom_site_aniso_U_12
Pr1 0.10414 0.1022 0.1163 0.0153 0.0115 0.07922
C1 0.093 0.136 0.094 0.013 0.012 0.059
O1 0.215 0.217 0.207 0.016 0.032 0.145
C2 0.08 0.146 0.133 -0.005 0.002 0.081
O2 0.251 0.458 0.179 -0.04 -0.027 0.22
C3 0.078 0.126 0.143 -0.021 -0.023 0.067
O3 0.778 0.54 0.303 0.134 0.038 0.583
O4 0.082 0.167 0.161 0.007 0.022 0.083
C4 0.083 0.152 0.124 -0.002 0.001 0.08
C5 0.094 0.116 0.128 -0.02 -0.001 0.061
O5 0.198 0.244 0.215 0.065 0.114 0.083
O6 0.091 0.136 0.165 0.005 -0.01 0.077
C6 0.099 0.165 0.127 -0.01 0.013 0.078
O7 0.091 0.189 0.152 0.018 0.035 0.091
C7 0.144 0.24 0.135 0.038 0.022 0.137
O8 0.066 0.152 0.162 -0.004 -0.002 0.064
C8 0.096 0.194 0.133 0.023 0.021 0.096
O9 0.245 0.314 0.139 0.028 0.009 0.212
C9 0.302 0.285 0.192 0.04 0.074 0.205
C10 0.289 0.183 0.163 0.009 0 0.041
C11 0.215 0.195 0.21 0 0 0.135
C12 0.51 0.31 0.175 -0.129 -0.074 0.15
Pr1I 0.10414 0.1022 0.1163 -0.0153 -0.0115 0.07922
Pr1F 0.10414 0.1022 0.1163 0.0153 0.0115 0.07922
Pr1H 0.0479 0.10414 0.1163 -0.0115 0.0038 0.02492
Pr1B 0.0479 0.10414 0.1163 -0.0115 0.0038 0.02492
Pr1E 0.0479 0.10414 0.1163 0.0115 -0.0038 0.02492
Pr1K 0.0479 0.10414 0.1163 0.0115 -0.0038 0.02492
Pr1C 0.10414 0.1022 0.1163 -0.0153 -0.0115 0.07922
C1I 0.093 0.136 0.094 -0.013 -0.012 0.059
O1I 0.215 0.217 0.207 -0.016 -0.032 0.145
C2I 0.08 0.146 0.133 0.005 -0.002 0.081
O2I 0.251 0.458 0.179 0.04 0.027 0.22
C3I 0.078 0.126 0.143 0.021 0.023 0.067
O3I 0.778 0.54 0.303 -0.134 -0.038 0.583
O4I 0.082 0.167 0.161 -0.007 -0.022 0.083
C4I 0.083 0.152 0.124 0.002 -0.001 0.08
C5I 0.094 0.116 0.128 0.02 0.001 0.061
O5I 0.198 0.244 0.215 -0.065 -0.114 0.083
O6I 0.091 0.136 0.165 -0.005 0.01 0.077
O6F 0.091 0.136 0.165 0.005 -0.01 0.077
O6C 0.091 0.136 0.165 -0.005 0.01 0.077
C6I 0.099 0.165 0.127 0.01 -0.013 0.078
O7I 0.091 0.189 0.152 -0.018 -0.035 0.091
O7G 0.189 0.098 0.152 0.017 -0.018 0.098
O7D 0.189 0.098 0.152 -0.017 0.018 0.098
C7I 0.144 0.24 0.135 -0.038 -0.022 0.137
O8I 0.066 0.152 0.162 0.004 0.002 0.064
O8A 0.152 0.09 0.162 0.002 0.004 0.088
O8J 0.152 0.09 0.162 -0.002 -0.004 0.088
C8I 0.096 0.194 0.133 -0.023 -0.021 0.096
O9I 0.245 0.314 0.139 -0.028 -0.009 0.212
C9I 0.302 0.285 0.192 -0.04 -0.074 0.205
C10I 0.289 0.183 0.163 -0.009 0 0.041
C12I 0.51 0.31 0.175 0.129 0.074 0.15
loop_
_geom_bond_atom_site_label_1
_geom_bond_atom_site_label_2
_geom_bond_site_symmetry_1
_geom_bond_site_symmetry_2
Pr1 O1 1_555 1_555
C1 C2 1_555 1_555
C2 C3 1_555 1_555
O2 Pr1 1_555 1_555
C3 H1 1_555 1_555
O3 Pr1 1_555 1_555
O4 Pr1 1_555 1_555
C4 C3 1_555 1_555
C5 O4 1_555 1_555
O5 Pr1 1_555 1_555
O6 C5 1_555 1_555
C6 C4 1_555 1_555
H2 C6 1_555 1_555
O7 C1 1_555 1_555
C7 C6 1_555 1_555
O8 C1 1_555 1_555
C8 C2 1_555 1_555
H3 C8 1_555 1_555
O9 C7 1_555 1_555
C9 O9 1_555 1_555
H4 C9 1_555 1_555
H5 C9 1_555 1_555
C10 C11 1_555 1_555
C11 C10I 1_555 1_555
C12 C10 1_555 1_555
H6 C12 1_555 1_555
H7 C12 1_555 1_555
H8 C12 1_555 1_555
C13 C9 1_555 1_555
C14 C13 1_555 1_555
C15 C14 1_555 1_555
Pr1I O1I 1_555 1_555
Pr1F O6 1_555 1_555
Pr1H O7 1_555 1_555
Pr1B O8 1_555 1_555
Pr1E O7I 1_555 1_555
Pr1K O8I 1_555 1_555
Pr1C O6I 1_555 1_555
C1I C2I 1_555 1_555
C2I C3I 1_555 1_555
O2I Pr1I 1_555 1_555
C3I H1I 1_555 1_555
O3I Pr1I 1_555 1_555
O4I Pr1I 1_555 1_555
C4I C3I 1_555 1_555
C5I O4I 1_555 1_555
O5I Pr1I 1_555 1_555
O6I C5I 1_555 1_555
O6F Pr1 1_555 1_555
O6C Pr1I 1_555 1_555
C6I C4I 1_555 1_555
H2I C6I 1_555 1_555
O7I C1I 1_555 1_555
O7G Pr1 1_555 1_555
O7D Pr1I 1_555 1_555
C7I C6I 1_555 1_555
O8I C1I 1_555 1_555
O8A Pr1 1_555 1_555
O8J Pr1I 1_555 1_555
C8I C2I 1_555 1_555
H3I C8I 1_555 1_555
O9I C7I 1_555 1_555
C9I O9I 1_555 1_555
H4I C9I 1_555 1_555
H5I C9I 1_555 1_555
C10I C12I 1_555 1_555
C12I H6I 1_555 1_555
H7I C12I 1_555 1_555
H8I C12I 1_555 1_555
C13I C14 1_555 1_555
C4 C5 1_555 1_555
C7 C8 1_555 1_555
C10 C13 1_555 1_555
C4I C5I 1_555 1_555
C7I C8I 1_555 1_555
C9I C13I 1_555 1_555
C10I C13I 1_555 1_555

#END
