
#######################################################################
#
#                 Cambridge Crystallographic Data Centre
#                                CCDC 
#
#######################################################################
#
# If this CIF has been generated from an entry in the Cambridge 
# Structural Database, then it will include bibliographic, chemical, 
# crystal, experimental, refinement or atomic coordinate data resulting 
# from the CCDC's data processing and validation procedures.
#
#######################################################################

data_PEKVUY
_chemical_formula_moiety         '(C12 H28 Ba1 O28 P4 U3)n'
_symmetry_cell_setting           triclinic
_symmetry_space_group_name_H-M   'P -1'
_symmetry_Int_Tables_number      2
_space_group_name_Hall           '-P 1'
loop_
_symmetry_equiv_pos_site_id
_symmetry_equiv_pos_as_xyz
1 x,y,z
2 -x,-y,-z
_cell_length_a                   9.5213(9)
_cell_length_b                   10.5817(10)
_cell_length_c                   18.3319(18)
_cell_angle_alpha                95.9270(10)
_cell_angle_beta                 99.6810(10)
_cell_angle_gamma                114.1940(10)
_cell_volume                     1630.01
loop_
_atom_site_label
_atom_site_type_symbol
_atom_site_fract_x
_atom_site_fract_y
_atom_site_fract_z
U1 U 0.29407(2) 0.81252(2) 0.257436(11)
U2 U 0.64642(2) 0.69363(2) 0.247190(11)
U3 U 1.00028(2) 1.24162(2) 0.247510(11)
Ba1 Ba 0.56914(4) 1.31604(4) 0.27747(2)
P1 P 0.64802(16) 1.03902(15) 0.32640(8)
P2 P 0.94670(16) 1.03636(15) 0.66519(8)
P3 P 0.30371(16) 0.48399(15) 0.15877(8)
P4 P 0.11606(16) 0.48527(15) -0.19303(8)
O1 O 0.2875(4) 0.8649(4) 0.1685(2)
O2 O 0.3041(4) 0.7630(4) 0.3471(2)
O3 O 0.6831(5) 0.7531(4) 0.1621(2)
O4 O 0.6039(5) 0.6260(4) 0.3303(2)
O5 O 0.8918(5) 1.0995(4) 0.1704(2)
O6 O 1.1086(5) 1.3832(4) 0.3258(2)
O7 O 0.5897(4) 0.8873(4) 0.2825(2)
O8 O 0.4941(4) 1.0566(4) 0.3192(2)
O9 O 0.7699(4) 1.1530(4) 0.2967(2)
O10 O 1.1174(5) 1.1465(4) 0.6846(2)
O11 O 0.8519(5) 1.0677(4) 0.7184(2)
O12 O 0.9317(5) 0.8875(4) 0.6671(2)
O13 O 0.3620(4) 0.6369(4) 0.2028(2)
O14 O 0.4504(5) 0.4564(4) 0.1797(2)
O15 O 0.1543(4) 0.3783(4) 0.1749(2)
O16 O 0.1413(4) 0.6338(4) -0.2039(2)
O17 O 0.2239(5) 0.4463(4) -0.2350(2)
O18 O -0.0553(4) 0.3751(4) -0.2181(2)
O19 O 0.2261(5) 1.1701(5) 0.2201(3)
O20 O 0.7997(9) 1.4384(7) 0.4072(4)
O21 O 0.4055(6) 1.3399(6) 0.3897(3)
O22 O 0.5058(6) 1.1406(5) 0.1431(3)
C1 C 0.7328(7) 1.0467(6) 0.4232(3)
C2 C 0.6408(9) 0.9550(8) 0.4644(4)
H1 H 0.5355 0.8939 0.4422
C3 C 0.7047(8) 0.9544(8) 0.5374(4)
H2 H 0.6417 0.8942 0.5645
C4 C 0.8618(7) 1.0427(6) 0.5709(3)
C5 C 0.9521(8) 1.1378(7) 0.5321(3)
H3 H 1.0565 1.2004 0.5551
C6 C 0.8866(8) 1.1402(7) 0.4581(3)
H4 H 0.9474 1.2054 0.4324
C7 C 0.2593(7) 0.4853(6) 0.0597(3)
C8 C 0.3758(15) 0.5369(13) 0.0186(7)
H5 H 0.4819 0.5706 0.0427
C9 C 0.3356(14) 0.5384(13) -0.0562(6)
H6 H 0.4147 0.5735 -0.0824
C10 C 0.1782(7) 0.4882(6) -0.0937(3)
C11 C 0.1114(15) 0.3631(13) -0.0672(7)
H7 H 0.0806 0.2709 -0.0911
C12 C 0.1008(14) 0.4254(13) 0.0229(6)
H8 H 0.0133 0.4199 0.0411
U1A U 0.70593(2) 1.18748(2) 0.742564(11)
U1A_2 U -0.29407(2) 0.18748(2) -0.257436(11)
U2A U 1.35358(2) 1.30637(2) 0.752810(11)
U2A_2 U 0.35358(2) 0.30637(2) -0.247190(11)
U3A U 0.99972(2) 0.75838(2) 0.752490(11)
U3_2 U 0.00028(2) 0.24162(2) 0.247510(11)
U3A_2 U -0.00028(2) 0.75838(2) -0.247510(11)
Ba1_2 Ba 0.56914(4) 0.31604(4) 0.27747(2)
Ba1A Ba 0.43086(4) 0.68396(4) -0.27747(2)
O10A O 0.8826(5) 0.8535(4) 0.3154(2)
O11A O 0.1481(5) 0.9323(4) 0.2816(2)
O12A O 1.0683(5) 1.1125(4) 0.3329(2)
O14_2 O 0.4504(5) 1.4564(4) 0.1797(2)
O15_2 O 1.1543(4) 1.3783(4) 0.1749(2)
O16A O 0.8587(4) 1.3662(4) 0.2039(2)
O17A O 0.7761(5) 0.5537(4) 0.2350(2)
O17A_2 O 0.7761(5) 1.5537(4) 0.2350(2)
O18A O 0.0553(4) 0.6249(4) 0.2181(2)
O23 O 0.8885(13) 0.8667(11) 0.0635(6)
O24 O 0.6834(15) 0.1576(14) 0.0281(7)
O25 O 0.1243(12) 0.5852(9) 0.4451(5)
O26 O 0.1750(9) 0.0645(7) 0.0696(4)
O27 O 0.6422(15) 0.8911(11) 0.0354(6)
O28 O 0.4029(13) 0.5915(8) 0.4566(4)
loop_
_geom_bond_atom_site_label_1
_geom_bond_atom_site_label_2
_geom_bond_site_symmetry_1
_geom_bond_site_symmetry_2
U1 O1 1_555 1_555
U2 O3 1_555 1_555
U3 O5 1_555 1_555
Ba1 O8 1_555 1_555
P1 O7 1_555 1_555
P2 O10 1_555 1_555
P3 O13 1_555 1_555
P4 O16 1_555 1_555
O2 U1 1_555 1_555
O4 U2 1_555 1_555
O6 U3 1_555 1_555
O7 U1 1_555 1_555
O8 U1 1_555 1_555
O9 U3 1_555 1_555
O10 U2A 1_555 1_555
O11 P2 1_555 1_555
O12 P2 1_555 1_555
O13 U1 1_555 1_555
O14 U2 1_555 1_555
O15 P3 1_555 1_555
O16 U3A_2 1_555 1_555
O17 P4 1_555 1_555
O18 P4 1_555 1_555
O19 Ba1 1_555 1_555
O20 Ba1 1_555 1_555
O21 Ba1 1_555 1_555
O22 Ba1 1_555 1_555
C1 P1 1_555 1_555
C2 C1 1_555 1_555
H1 C2 1_555 1_555
C3 C2 1_555 1_555
H2 C3 1_555 1_555
C4 P2 1_555 1_555
C5 C4 1_555 1_555
H3 C5 1_555 1_555
C6 C1 1_555 1_555
H4 C6 1_555 1_555
C7 P3 1_555 1_555
C8 C7 1_555 1_555
H5 C8 1_555 1_555
C9 C8 1_555 1_555
H6 C9 1_555 1_555
C10 P4 1_555 1_555
C11 C10 1_555 1_555
H7 C11 1_555 1_555
C12 C7 1_555 1_555
H8 C12 1_555 1_555
U1A O11 1_555 1_555
U1A_2 O18 1_555 1_555
U2A_2 O17 1_555 1_555
U3A O12 1_555 1_555
U3_2 O15 1_555 1_555
Ba1_2 O14 1_555 1_555
Ba1A O17 1_555 1_555
O10A U2 1_555 1_555
O11A U1 1_555 1_555
O12A U3 1_555 1_555
O14_2 Ba1 1_555 1_555
O15_2 U3 1_555 1_555
O16A U3 1_555 1_555
O17A U2 1_555 1_555
O17A_2 Ba1 1_555 1_555
O18A U1 1_555 1_555
U2 O7 1_555 1_555
U2 O13 1_555 1_555
Ba1 O9 1_555 1_555
P1 O8 1_555 1_555
P1 O9 1_555 1_555
P3 O14 1_555 1_555
C3 C4 1_555 1_555
C5 C6 1_555 1_555
C9 C10 1_555 1_555
C11 C12 1_555 1_555
Ba1_2 O17A 1_555 1_555

#END
