
#######################################################################
#
#                 Cambridge Crystallographic Data Centre
#                                CCDC 
#
#######################################################################
#
# If this CIF has been generated from an entry in the Cambridge 
# Structural Database, then it will include bibliographic, chemical, 
# crystal, experimental, refinement or atomic coordinate data resulting 
# from the CCDC's data processing and validation procedures.
#
#######################################################################

data_QUSSAA
_chemical_formula_moiety         '(C124 H86 N8 O44 Zn10)n'
_symmetry_cell_setting           triclinic
_symmetry_space_group_name_H-M   'P -1'
_symmetry_Int_Tables_number      2
_space_group_name_Hall           '-P 1'
loop_
_symmetry_equiv_pos_site_id
_symmetry_equiv_pos_as_xyz
1 x,y,z
2 -x,-y,-z
_cell_length_a                   11.478(1)
_cell_length_b                   12.3775(8)
_cell_length_c                   25.794(3)
_cell_angle_alpha                80.250(9)
_cell_angle_beta                 88.094(9)
_cell_angle_gamma                65.252(9)
_cell_volume                     3277
loop_
_atom_site_label
_atom_site_type_symbol
_atom_site_fract_x
_atom_site_fract_y
_atom_site_fract_z
C1 C 0.5071(5) 0.2144(5) 0.3609(2)
H1 H 0.4676 0.2945 0.3657
C2 C 0.4378(6) 0.1474(6) 0.3695(3)
H2 H 0.3534 0.1812 0.3798
C3 C 0.4959(5) 0.0254(5) 0.3624(3)
C4 C 0.6225(6) -0.0194(6) 0.3497(3)
H3 H 0.6666 -0.1003 0.3466
C5 C 0.6837(6) 0.0566(5) 0.3416(3)
H4 H 0.7691 0.0256 0.3325
C6 C 0.4203(6) -0.0475(5) 0.3661(3)
C7 C 0.3170(7) -0.0277(7) 0.3980(3)
H5 H 0.2946 0.0302 0.4197
C8 C 0.2482(7) -0.0946(7) 0.3971(4)
H6 H 0.178 -0.0802 0.4184
C9 C 0.4539(5) -0.1389(5) 0.3362(3)
H7 H 0.5262 -0.1568 0.316
C10 C 0.3807(5) -0.2028(5) 0.3364(3)
H8 H 0.4018 -0.262 0.3154
C11 C 0.1983(5) -0.2455(5) 0.3648(2)
C12 C 0.0728(6) -0.1810(5) 0.3470(3)
H9 H 0.0368 -0.0972 0.3389
C13 C 0.0013(5) -0.2463(5) 0.3415(3)
H10 H -0.0847 -0.2056 0.3303
C14 C 0.0568(5) -0.3698(5) 0.3526(2)
C15 C 0.1811(6) -0.4296(5) 0.3708(3)
H11 H 0.2178 -0.5134 0.379
C16 C 0.2525(6) -0.3684(6) 0.3771(3)
H12 H 0.3374 -0.4098 0.3896
C17 C -0.0176(5) -0.4411(5) 0.3419(2)
C18 C 0.0110(14) -0.0008(13) 0.0649(6)
H13 H 0.0295 -0.0539 0.0411
C19 C 0.0775(15) 0.0727(14) 0.0603(6)
H14 H 0.1311 0.0727 0.0325
C20 C 0.0634(6) 0.1408(5) 0.0953(2)
C21 C -0.0189(9) 0.1366(9) 0.1382(4)
H15 H -0.0298 0.1829 0.1643
C22 C -0.0799(9) 0.0636(8) 0.1395(4)
H16 H -0.1285 0.0562 0.1683
C23 C 0.1401(6) 0.2128(5) 0.0959(2)
C24 C 0.2578(6) 0.1775(6) 0.0718(3)
H17 H 0.2845 0.1133 0.0534
C25 C 0.3340(6) 0.2365(5) 0.0749(3)
H18 H 0.412 0.2128 0.0584
C26 C 0.1783(6) 0.3714(5) 0.1220(2)
H19 H 0.1497 0.44 0.1376
C27 C 0.1019(6) 0.3135(5) 0.1195(2)
H20 H 0.0216 0.3424 0.1341
C28 C 0.3910(6) 0.3762(5) 0.1128(2)
C29 C 0.3524(6) 0.4986(5) 0.1110(2)
H21 H 0.2683 0.5538 0.1014
C30 C 0.4452(6) 0.5359(5) 0.1242(2)
H22 H 0.4231 0.6177 0.1229
C31 C 0.5709(6) 0.4519(6) 0.1395(2)
C32 C 0.6039(6) 0.3331(5) 0.1392(3)
H23 H 0.6876 0.2776 0.1492
C33 C 0.5183(6) 0.2926(6) 0.1246(3)
H24 H 0.5438 0.2116 0.1226
C34 C 0.6677(6) 0.4933(6) 0.1575(2)
C35 C -0.3943(5) -0.0611(5) 0.1532(2)
C36 C -0.5109(5) -0.0121(4) 0.1842(2)
C37 C -0.5302(5) 0.0816(5) 0.2116(2)
H25 H -0.4667 0.1093 0.2129
C38 C -0.6437(5) 0.1336(5) 0.2370(2)
H26 H -0.6568 0.198 0.254
C39 C -0.7385(5) 0.0906(4) 0.2372(2)
C40 C -0.7168(5) -0.0067(4) 0.2121(2)
H27 H -0.7779 -0.0379 0.2128
C41 C -0.6032(5) -0.0576(5) 0.1856(2)
H28 H -0.5894 -0.1225 0.1689
C42 C -0.8585(5) 0.1478(5) 0.2643(2)
C43 C -0.0325(5) -0.3165(6) 0.1860(2)
C44 C 0.1036(5) -0.3640(5) 0.2079(2)
C45 C 0.1615(5) -0.2848(5) 0.2070(2)
H29 H 0.1158 -0.2033 0.1933
C46 C 0.2858(5) -0.3263(5) 0.2262(2)
H30 H 0.3234 -0.2725 0.2253
C47 C 0.3569(5) -0.4489(4) 0.2471(2)
C48 C 0.2983(5) -0.5277(5) 0.2487(2)
H31 H 0.3438 -0.609 0.2628
C49 C 0.1738(5) -0.4867(5) 0.2295(2)
H32 H 0.1358 -0.5403 0.2309
C50 C 0.4929(5) -0.4933(5) 0.2677(2)
C51 C -0.0349(7) -0.2972(6) 0.0521(3)
C52 C -0.0176(6) -0.4029(5) 0.0251(2)
C53 C 0.0970(6) -0.4610(6) 0.0009(2)
H33 H 0.1623 -0.4354 0.0016
C54 C -0.1141(6) -0.4429(6) 0.0244(2)
H34 H -0.1903 -0.4054 0.041
C55 C -0.0560(5) -0.8334(4) 0.4007(2)
C56 C -0.0286(5) -0.9188(4) 0.4531(2)
C57 C 0.0547(5) -0.9171(5) 0.4908(2)
H35 H 0.0914 -0.8621 0.4844
C58 C 0.0827(5) -0.9981(5) 0.5382(2)
H36 H 0.1371 -0.9968 0.5637
C59 C -0.3680(5) -0.5280(5) 0.4018(2)
C60 C -0.4346(5) -0.5142(5) 0.4531(2)
C61 C -0.4713(5) -0.4080(5) 0.4732(2)
H37 H -0.4522 -0.3458 0.4554
C62 C -0.4634(5) -0.6059(5) 0.4803(2)
H38 H -0.4387 -0.6775 0.4672
N1 N 0.2767(4) -0.1793(4) 0.3674(2)
N2 N 0.6252(4) 0.1734(4) 0.34638(18)
N3 N -0.0723(5) -0.0019(5) 0.0986(2)
N4 N 0.2961(5) 0.3293(4) 0.1019(2)
O1 O 0.0477(4) -0.5521(3) 0.34306(16)
O2 O -0.1366(4) -0.3868(3) 0.33304(17)
O3 O 0.7689(4) 0.4156(4) 0.18233(16)
O4 O 0.6395(4) 0.6046(4) 0.14744(19)
O5 O -0.3295(4) -0.0009(4) 0.14245(19)
O6 O -0.3658(4) -0.1579(3) 0.13591(16)
O7 O -0.8743(4) 0.2432(3) 0.28162(17)
O8 O -0.9373(4) 0.1018(4) 0.26800(19)
O9 O -0.0948(4) -0.2053(4) 0.17387(18)
O10 O -0.0747(4) -0.3952(4) 0.18191(18)
O11 O 0.5302(3) -0.4157(3) 0.27699(16)
O12 O 0.5587(3) -0.6057(3) 0.27505(15)
O13 O -0.1449(5) -0.2330(4) 0.0627(2)
O14 O 0.0621(5) -0.2817(5) 0.0612(2)
O15 O -0.1230(3) -0.8442(3) 0.36676(14)
O16 O -0.0034(4) -0.7610(3) 0.39540(14)
O17 O -0.3432(4) -0.6244(3) 0.38468(14)
O18 O -0.3473(4) -0.4399(3) 0.37818(14)
O19 O -0.1822(3) -0.5973(3) 0.29203(13)
H39 H -0.1584 -0.5789 0.2574
O20 O -0.3098(4) -0.2958(3) 0.24971(15)
H40 H -0.2806 -0.2374 0.2505
O21 O -0.1970(3) -0.8047(3) 0.25621(14)
H41 H -0.2158 -0.7294 0.251
H42 H -0.1218 -0.8414 0.2704
O22 O -0.2837(7) 0.0205(7) 0.0305(3)
H43 H -0.3597 0.0114 0.0311
Zn1 Zn -0.01044(5) -0.66851(5) 0.32507(2)
Zn2 Zn -0.29266(5) -0.43025(5) 0.30506(2)
Zn3 Zn -0.27996(5) -0.70974(5) 0.32037(2)
Zn4 Zn -0.18144(6) -0.09936(6) 0.10000(3)
Zn5 Zn -0.26592(6) -0.32216(5) 0.17784(3)
C51A C 0.0349(7) -0.7028(6) -0.0521(3)
C52A C 0.0176(6) -0.5971(5) -0.0251(2)
C53A C -0.0970(6) -0.5390(6) -0.0009(2)
H33A H -0.1623 -0.5646 -0.0016
C54A C 0.1141(6) -0.5571(6) -0.0244(2)
H34A H 0.1903 -0.5946 -0.041
O13A O 0.1449(5) -0.7670(4) -0.0627(2)
O14A O -0.0621(5) -0.7183(5) -0.0612(2)
C55A C 0.0560(5) -1.1666(4) 0.5993(2)
C56A C 0.0286(5) -1.0812(4) 0.5469(2)
C57A C -0.0547(5) -1.0829(5) 0.5092(2)
H35A H -0.0914 -1.1379 0.5156
C58A C -0.0827(5) -1.0019(5) 0.4618(2)
H36A H -0.1371 -1.0032 0.4363
O15A O 0.1230(3) -1.1558(3) 0.63324(14)
O16A O 0.0034(4) -1.2390(3) 0.60460(14)
C59A C -0.6320(5) -0.4720(5) 0.5982(2)
C60A C -0.5654(5) -0.4858(5) 0.5469(2)
C61A C -0.5287(5) -0.5920(5) 0.5268(2)
H37A H -0.5478 -0.6542 0.5446
C62A C -0.5366(5) -0.3941(5) 0.5197(2)
H38A H -0.5613 -0.3225 0.5328
O17A O -0.6568(4) -0.3756(3) 0.61532(14)
O18A O -0.6527(4) -0.5601(3) 0.62182(14)
C1A C -1.5071(5) -1.2144(5) 0.6391(2)
H1A H -1.4676 -1.2945 0.6343
C2A C -1.4378(6) -1.1474(6) 0.6305(3)
H2A H -1.3534 -1.1812 0.6202
C3A C -1.4959(5) -1.0254(5) 0.6376(3)
C4A C -1.6225(6) -0.9806(6) 0.6503(3)
H3A H -1.6666 -0.8997 0.6534
C5A C -1.6837(6) -1.0566(5) 0.6584(3)
H4A H -1.7691 -1.0256 0.6675
C6A C -1.4203(6) -0.9525(5) 0.6339(3)
C7A C -1.3170(7) -0.9723(7) 0.6020(3)
H5A H -1.2946 -1.0302 0.5803
C8A C -1.2482(7) -0.9054(7) 0.6029(4)
H6A H -1.178 -0.9198 0.5816
C9A C -1.4539(5) -0.8611(5) 0.6638(3)
H7A H -1.5262 -0.8432 0.684
C10A C -1.3807(5) -0.7972(5) 0.6636(3)
H8A H -1.4018 -0.738 0.6846
C11A C -1.1983(5) -0.7545(5) 0.6352(2)
C12A C -1.0728(6) -0.8190(5) 0.6530(3)
H9A H -1.0368 -0.9028 0.6611
C13A C -1.0013(5) -0.7537(5) 0.6585(3)
H10A H -0.9153 -0.7944 0.6697
C14A C -1.0568(5) -0.6302(5) 0.6474(2)
C15A C -1.1811(6) -0.5704(5) 0.6292(3)
H11A H -1.2178 -0.4866 0.621
C16A C -1.2525(6) -0.6316(6) 0.6229(3)
H12A H -1.3374 -0.5902 0.6104
C17A C -0.9824(5) -0.5589(5) 0.6581(2)
C18A C -1.0110(14) -0.9992(13) 0.9351(6)
H13A H -1.0295 -0.9461 0.9589
C19A C -1.0775(15) -1.0727(14) 0.9397(6)
H14A H -1.1311 -1.0727 0.9675
C20A C -1.0634(6) -1.1408(5) 0.9047(2)
C21A C -0.9811(9) -1.1366(9) 0.8618(4)
H15A H -0.9702 -1.1829 0.8357
C22A C -0.9201(9) -1.0636(8) 0.8605(4)
H16A H -0.8715 -1.0562 0.8317
C23A C -1.1401(6) -1.2128(5) 0.9041(2)
C24A C -1.2578(6) -1.1775(6) 0.9282(3)
H17A H -1.2845 -1.1133 0.9466
C25A C -1.3340(6) -1.2365(5) 0.9251(3)
H18A H -1.412 -1.2128 0.9416
C26A C -1.1783(6) -1.3714(5) 0.8780(2)
H19A H -1.1497 -1.44 0.8624
C27A C -1.1019(6) -1.3135(5) 0.8805(2)
H20A H -1.0216 -1.3424 0.8659
C28A C -1.3910(6) -1.3762(5) 0.8872(2)
C29A C -1.3524(6) -1.4986(5) 0.8890(2)
H21A H -1.2683 -1.5538 0.8986
C30A C -1.4452(6) -1.5359(5) 0.8758(2)
H22A H -1.4231 -1.6177 0.8771
C31A C -1.5709(6) -1.4519(6) 0.8605(2)
C32A C -1.6039(6) -1.3331(5) 0.8608(3)
H23A H -1.6876 -1.2776 0.8508
C33A C -1.5183(6) -1.2926(6) 0.8754(3)
H24A H -1.5438 -1.2116 0.8774
C34A C -1.6677(6) -1.4933(6) 0.8425(2)
C35A C -0.6057(5) -0.9389(5) 0.8468(2)
C36A C -0.4891(5) -0.9879(4) 0.8158(2)
C37A C -0.4698(5) -1.0816(5) 0.7884(2)
H25A H -0.5333 -1.1093 0.7871
C38A C -0.3563(5) -1.1336(5) 0.7630(2)
H26A H -0.3432 -1.198 0.746
C39A C -0.2615(5) -1.0906(4) 0.7628(2)
C40A C -0.2832(5) -0.9933(4) 0.7879(2)
H27A H -0.2221 -0.9621 0.7872
C41A C -0.3968(5) -0.9424(5) 0.8144(2)
H28A H -0.4106 -0.8775 0.8311
C42A C -0.1415(5) -1.1478(5) 0.7357(2)
C43A C -0.9675(5) -0.6835(6) 0.8140(2)
C44A C -1.1036(5) -0.6360(5) 0.7921(2)
C45A C -1.1615(5) -0.7152(5) 0.7930(2)
H29A H -1.1158 -0.7967 0.8067
C46A C -1.2858(5) -0.6737(5) 0.7738(2)
H30A H -1.3234 -0.7275 0.7747
C47A C -1.3569(5) -0.5511(4) 0.7529(2)
C48A C -1.2983(5) -0.4723(5) 0.7513(2)
H31A H -1.3438 -0.391 0.7372
C49A C -1.1738(5) -0.5133(5) 0.7705(2)
H32A H -1.1358 -0.4597 0.7691
C50A C -1.4929(5) -0.5067(5) 0.7323(2)
N1A N -1.2767(4) -0.8207(4) 0.6326(2)
N2A N -1.6252(4) -1.1734(4) 0.65362(18)
N3A N -0.9277(5) -0.9981(5) 0.9014(2)
N4A N -1.2961(5) -1.3293(4) 0.8981(2)
O1A O -1.0477(4) -0.4479(3) 0.65694(16)
O2A O -0.8634(4) -0.6132(3) 0.66696(17)
O3A O -1.7689(4) -1.4156(4) 0.81767(16)
O4A O -1.6395(4) -1.6046(4) 0.85256(19)
O5A O -0.6705(4) -0.9991(4) 0.85755(19)
O6A O -0.6342(4) -0.8421(3) 0.86409(16)
O7A O -0.1257(4) -1.2432(3) 0.71838(17)
O8A O -0.0627(4) -1.1018(4) 0.73200(19)
O9A O -0.9052(4) -0.7947(4) 0.82613(18)
O10A O -0.9253(4) -0.6048(4) 0.81809(18)
O11A O -1.5302(3) -0.5843(3) 0.72301(16)
O12A O -1.5587(3) -0.3943(3) 0.72495(15)
O19A O -0.8178(3) -0.4027(3) 0.70797(13)
H39A H -0.8416 -0.4211 0.7426
O20A O -0.6902(4) -0.7042(3) 0.75029(15)
H40A H -0.7194 -0.7626 0.7495
O21A O -0.8030(3) -0.1953(3) 0.74379(14)
H41A H -0.7842 -0.2706 0.749
H42A H -0.8782 -0.1586 0.7296
O22A O -0.7163(7) -1.0205(7) 0.9695(3)
H43A H -0.6403 -1.0114 0.9689
Zn1A Zn -0.98956(5) -0.33149(5) 0.67493(2)
Zn2A Zn -0.70734(5) -0.56975(5) 0.69494(2)
Zn3A Zn -0.72004(5) -0.29026(5) 0.67963(2)
Zn4A Zn -0.81856(6) -0.90064(6) 0.90000(3)
Zn5A Zn -0.73408(6) -0.67784(5) 0.82216(3)
N2_2 N -0.3748(4) -0.8266(4) 0.34638(18)
N2A_2 N -0.6252(4) -0.1734(4) 0.65362(18)
O4_2 O -0.3605(4) -0.3954(4) 0.14744(19)
O4A_2 O -0.6395(4) -0.6046(4) 0.85256(19)
O7_2 O 0.1257(4) -0.7568(3) 0.28162(17)
O7A_2 O -1.1257(4) -0.2432(3) 0.71838(17)
O11_2 O -0.4698(3) -0.4157(3) 0.27699(16)
O11A_2 O -0.5302(3) -0.5843(3) 0.72301(16)
O12_2 O -0.4413(3) -0.6057(3) 0.27505(15)
O12A_2 O -0.5587(3) -0.3943(3) 0.72495(15)
O13A_2 O -0.8551(5) -0.7670(4) 0.9373(2)
O15A_2 O -0.8770(3) -0.1558(3) 0.63324(14)
O16A_2 O -0.9966(4) -0.2390(3) 0.60460(14)
Zn1_2 Zn -1.01044(5) 0.33149(5) 0.32507(2)
Zn1A_2 Zn 0.01044(5) -1.33149(5) 0.67493(2)
Zn2_2 Zn 0.70734(5) -0.43025(5) 0.30506(2)
Zn2A_2 Zn -1.70734(5) -0.56975(5) 0.69494(2)
Zn3_2 Zn 0.72004(5) -0.70974(5) 0.32037(2)
Zn3_3 Zn 0.72004(5) 0.29026(5) 0.32037(2)
Zn3A_2 Zn -1.72004(5) -1.29026(5) 0.67963(2)
Zn3A_3 Zn -1.72004(5) -0.29026(5) 0.67963(2)
Zn3A_4 Zn 0.27996(5) -1.29026(5) 0.67963(2)
Zn4A_2 Zn 0.18144(6) -0.90064(6) -0.10000(3)
Zn5_2 Zn 0.73408(6) 0.67784(5) 0.17784(3)
Zn5A_2 Zn -1.73408(6) -1.67784(5) 0.82216(3)
loop_
_geom_bond_atom_site_label_1
_geom_bond_atom_site_label_2
_geom_bond_site_symmetry_1
_geom_bond_site_symmetry_2
C1 H1 1_555 1_555
C2 C1 1_555 1_555
H2 C2 1_555 1_555
C3 C2 1_555 1_555
C4 C3 1_555 1_555
H3 C4 1_555 1_555
C5 C4 1_555 1_555
H4 C5 1_555 1_555
C6 C3 1_555 1_555
C7 C6 1_555 1_555
H5 C7 1_555 1_555
C8 C7 1_555 1_555
H6 C8 1_555 1_555
C9 C6 1_555 1_555
H7 C9 1_555 1_555
C10 C9 1_555 1_555
H8 C10 1_555 1_555
C11 C12 1_555 1_555
C12 H9 1_555 1_555
C13 C12 1_555 1_555
H10 C13 1_555 1_555
C14 C13 1_555 1_555
C15 C14 1_555 1_555
H11 C15 1_555 1_555
C16 C11 1_555 1_555
H12 C16 1_555 1_555
C17 C14 1_555 1_555
C18 H13 1_555 1_555
C19 C18 1_555 1_555
H14 C19 1_555 1_555
C20 C19 1_555 1_555
C21 C20 1_555 1_555
H15 C21 1_555 1_555
C22 C21 1_555 1_555
H16 C22 1_555 1_555
C23 C20 1_555 1_555
C24 C23 1_555 1_555
H17 C24 1_555 1_555
C25 C24 1_555 1_555
H18 C25 1_555 1_555
C26 H19 1_555 1_555
C27 C23 1_555 1_555
H20 C27 1_555 1_555
C28 C29 1_555 1_555
C29 H21 1_555 1_555
C30 C29 1_555 1_555
H22 C30 1_555 1_555
C31 C30 1_555 1_555
C32 C31 1_555 1_555
H23 C32 1_555 1_555
C33 C28 1_555 1_555
H24 C33 1_555 1_555
C34 C31 1_555 1_555
C35 C36 1_555 1_555
C36 C37 1_555 1_555
C37 H25 1_555 1_555
C38 C37 1_555 1_555
H26 C38 1_555 1_555
C39 C38 1_555 1_555
C40 C39 1_555 1_555
H27 C40 1_555 1_555
C41 C36 1_555 1_555
H28 C41 1_555 1_555
C42 C39 1_555 1_555
C43 C44 1_555 1_555
C44 C45 1_555 1_555
C45 H29 1_555 1_555
C46 C45 1_555 1_555
H30 C46 1_555 1_555
C47 C46 1_555 1_555
C48 C47 1_555 1_555
H31 C48 1_555 1_555
C49 C44 1_555 1_555
H32 C49 1_555 1_555
C50 C47 1_555 1_555
C51 C52 1_555 1_555
C52 C53 1_555 1_555
C53 H33 1_555 1_555
C54 C52 1_555 1_555
H34 C54 1_555 1_555
C55 C56 1_555 1_555
C56 C57 1_555 1_555
C57 H35 1_555 1_555
C58 C57 1_555 1_555
H36 C58 1_555 1_555
C59 C60 1_555 1_555
C60 C61 1_555 1_555
C61 H37 1_555 1_555
C62 C60 1_555 1_555
H38 C62 1_555 1_555
N1 C8 1_555 1_555
N2 C1 1_555 1_555
N3 C18 1_555 1_555
N4 C25 1_555 1_555
O1 C17 1_555 1_555
O2 C17 1_555 1_555
O3 C34 1_555 1_555
O4 C34 1_555 1_555
O5 C35 1_555 1_555
O6 C35 1_555 1_555
O7 C42 1_555 1_555
O8 C42 1_555 1_555
O9 C43 1_555 1_555
O10 C43 1_555 1_555
O11 C50 1_555 1_555
O12 C50 1_555 1_555
O13 C51 1_555 1_555
O14 C51 1_555 1_555
O15 C55 1_555 1_555
O16 C55 1_555 1_555
O17 C59 1_555 1_555
O18 C59 1_555 1_555
O19 H39 1_555 1_555
O20 H40 1_555 1_555
O21 H41 1_555 1_555
H42 O21 1_555 1_555
O22 H43 1_555 1_555
Zn1 O1 1_555 1_555
Zn2 O2 1_555 1_555
Zn3 O15 1_555 1_555
Zn4 N3 1_555 1_555
Zn5 O6 1_555 1_555
C51A C52A 1_555 1_555
C52A C53A 1_555 1_555
C53A C54 1_555 1_555
H33A C53A 1_555 1_555
C54A C53 1_555 1_555
H34A C54A 1_555 1_555
O13A C51A 1_555 1_555
O14A C51A 1_555 1_555
C55A C56A 1_555 1_555
C56A C58 1_555 1_555
C57A C56A 1_555 1_555
H35A C57A 1_555 1_555
C58A C56 1_555 1_555
H36A C58A 1_555 1_555
O15A C55A 1_555 1_555
O16A C55A 1_555 1_555
C59A C60A 1_555 1_555
C60A C61A 1_555 1_555
C61A C62 1_555 1_555
H37A C61A 1_555 1_555
C62A C61 1_555 1_555
H38A C62A 1_555 1_555
O17A C59A 1_555 1_555
O18A C59A 1_555 1_555
C1A H1A 1_555 1_555
C2A C1A 1_555 1_555
H2A C2A 1_555 1_555
C3A C2A 1_555 1_555
C4A C3A 1_555 1_555
H3A C4A 1_555 1_555
C5A C4A 1_555 1_555
H4A C5A 1_555 1_555
C6A C3A 1_555 1_555
C7A C6A 1_555 1_555
H5A C7A 1_555 1_555
C8A C7A 1_555 1_555
H6A C8A 1_555 1_555
C9A C6A 1_555 1_555
H7A C9A 1_555 1_555
C10A C9A 1_555 1_555
H8A C10A 1_555 1_555
C11A C12A 1_555 1_555
C12A H9A 1_555 1_555
C13A C12A 1_555 1_555
H10A C13A 1_555 1_555
C14A C13A 1_555 1_555
C15A C14A 1_555 1_555
H11A C15A 1_555 1_555
C16A C11A 1_555 1_555
H12A C16A 1_555 1_555
C17A C14A 1_555 1_555
C18A H13A 1_555 1_555
C19A C18A 1_555 1_555
H14A C19A 1_555 1_555
C20A C19A 1_555 1_555
C21A C20A 1_555 1_555
H15A C21A 1_555 1_555
C22A C21A 1_555 1_555
H16A C22A 1_555 1_555
C23A C20A 1_555 1_555
C24A C23A 1_555 1_555
H17A C24A 1_555 1_555
C25A C24A 1_555 1_555
H18A C25A 1_555 1_555
C26A H19A 1_555 1_555
C27A C23A 1_555 1_555
H20A C27A 1_555 1_555
C28A C29A 1_555 1_555
C29A H21A 1_555 1_555
C30A C29A 1_555 1_555
H22A C30A 1_555 1_555
C31A C30A 1_555 1_555
C32A C31A 1_555 1_555
H23A C32A 1_555 1_555
C33A C28A 1_555 1_555
H24A C33A 1_555 1_555
C34A C31A 1_555 1_555
C35A C36A 1_555 1_555
C36A C37A 1_555 1_555
C37A H25A 1_555 1_555
C38A C37A 1_555 1_555
H26A C38A 1_555 1_555
C39A C38A 1_555 1_555
C40A C39A 1_555 1_555
H27A C40A 1_555 1_555
C41A C36A 1_555 1_555
H28A C41A 1_555 1_555
C42A C39A 1_555 1_555
C43A C44A 1_555 1_555
C44A C45A 1_555 1_555
C45A H29A 1_555 1_555
C46A C45A 1_555 1_555
H30A C46A 1_555 1_555
C47A C46A 1_555 1_555
C48A C47A 1_555 1_555
H31A C48A 1_555 1_555
C49A C44A 1_555 1_555
H32A C49A 1_555 1_555
C50A C47A 1_555 1_555
N1A C8A 1_555 1_555
N2A C1A 1_555 1_555
N3A C18A 1_555 1_555
N4A C25A 1_555 1_555
O1A C17A 1_555 1_555
O2A C17A 1_555 1_555
O3A C34A 1_555 1_555
O4A C34A 1_555 1_555
O5A C35A 1_555 1_555
O6A C35A 1_555 1_555
O7A C42A 1_555 1_555
O8A C42A 1_555 1_555
O9A C43A 1_555 1_555
O10A C43A 1_555 1_555
O11A C50A 1_555 1_555
O12A C50A 1_555 1_555
O19A H39A 1_555 1_555
O20A H40A 1_555 1_555
O21A H41A 1_555 1_555
H42A O21A 1_555 1_555
O22A H43A 1_555 1_555
Zn1A O1A 1_555 1_555
Zn2A O18A 1_555 1_555
Zn3A O17A 1_555 1_555
Zn4A N3A 1_555 1_555
Zn5A O6A 1_555 1_555
N2_2 Zn3 1_555 1_555
N2A_2 Zn3A 1_555 1_555
O4_2 Zn5 1_555 1_555
O4A_2 Zn5A 1_555 1_555
O7_2 Zn1 1_555 1_555
O7A_2 Zn1A 1_555 1_555
O11_2 Zn2 1_555 1_555
O11A_2 Zn2A 1_555 1_555
O12_2 Zn3 1_555 1_555
O12A_2 Zn3A 1_555 1_555
O13A_2 Zn4A 1_555 1_555
O15A_2 Zn3A 1_555 1_555
O16A_2 Zn1A 1_555 1_555
Zn1_2 O7 1_555 1_555
Zn1A_2 O16A 1_555 1_555
Zn2_2 O11 1_555 1_555
Zn2A_2 O11A 1_555 1_555
Zn3_2 O12 1_555 1_555
Zn3_3 N2 1_555 1_555
Zn3A_2 N2A 1_555 1_555
Zn3A_3 O12A 1_555 1_555
Zn3A_4 O15A 1_555 1_555
Zn4A_2 O13A 1_555 1_555
Zn5_2 O4 1_555 1_555
Zn5A_2 O4A 1_555 1_555
C5 N2 1_555 1_555
C10 N1 1_555 1_555
C11 N1 1_555 1_555
C15 C16 1_555 1_555
C22 N3 1_555 1_555
C26 C27 1_555 1_555
C26 N4 1_555 1_555
C28 N4 1_555 1_555
C32 C33 1_555 1_555
C40 C41 1_555 1_555
C48 C49 1_555 1_555
O5 Zn4 1_555 1_555
O9 Zn4 1_555 1_555
O10 Zn5 1_555 1_555
O13 Zn4 1_555 1_555
O16 Zn1 1_555 1_555
O17 Zn3 1_555 1_555
O18 Zn2 1_555 1_555
O19 Zn1 1_555 1_555
O19 Zn2 1_555 1_555
O19 Zn3 1_555 1_555
O20 Zn2 1_555 1_555
O20 Zn5 1_555 1_555
O21 Zn3 1_555 1_555
O22 Zn4 1_555 1_555
C52A C54A 1_555 1_555
C57A C58A 1_555 1_555
C60A C62A 1_555 1_555
C5A N2A 1_555 1_555
C10A N1A 1_555 1_555
C11A N1A 1_555 1_555
C15A C16A 1_555 1_555
C22A N3A 1_555 1_555
C26A C27A 1_555 1_555
C26A N4A 1_555 1_555
C28A N4A 1_555 1_555
C32A C33A 1_555 1_555
C40A C41A 1_555 1_555
C48A C49A 1_555 1_555
O2A Zn2A 1_555 1_555
O5A Zn4A 1_555 1_555
O7A Zn1A_2 1_555 1_555
O9A Zn4A 1_555 1_555
O10A Zn5A 1_555 1_555
O19A Zn1A 1_555 1_555
O19A Zn2A 1_555 1_555
O19A Zn3A 1_555 1_555
O20A Zn2A 1_555 1_555
O20A Zn5A 1_555 1_555
O21A Zn3A 1_555 1_555
O22A Zn4A 1_555 1_555

#END
