
#######################################################################
#
#                 Cambridge Crystallographic Data Centre
#                                CCDC 
#
#######################################################################
#
# If this CIF has been generated from an entry in the Cambridge 
# Structural Database, then it will include bibliographic, chemical, 
# crystal, experimental, refinement or atomic coordinate data resulting 
# from the CCDC's data processing and validation procedures.
#
#######################################################################

data_KEXKEF
_chemical_formula_moiety         '(C21 H25 N3 O10 Zn2)n'
_symmetry_cell_setting           orthorhombic
_symmetry_space_group_name_H-M   'A b a 2'
_symmetry_Int_Tables_number      41
_space_group_name_Hall           'A 2 -2ab'
loop_
_symmetry_equiv_pos_site_id
_symmetry_equiv_pos_as_xyz
1 x,y,z
2 -x,-y,z
3 1/2+x,1/2-y,z
4 1/2-x,1/2+y,z
5 x,1/2+y,1/2+z
6 -x,1/2-y,1/2+z
7 1/2+x,-y,1/2+z
8 1/2-x,y,1/2+z
_cell_length_a                   26.931(5)
_cell_length_b                   10.336(2)
_cell_length_c                   10.248(2)
_cell_angle_alpha                90
_cell_angle_beta                 90
_cell_angle_gamma                90
_cell_volume                     2852.62
loop_
_atom_site_label
_atom_site_type_symbol
_atom_site_fract_x
_atom_site_fract_y
_atom_site_fract_z
_atom_site_U_iso_or_equiv
_atom_site_thermal_displace_type
Zn1 Zn 0.279054(11) 0.82407(3) 0.13622(6) 0.0192 Uani
O1 O 0.24093(9) 0.8429(2) -0.0416(2) 0.0239 Uani
O2 O 0.18335(8) 0.7842(2) -0.1872(2) 0.0231 Uani
O3 O 0.24167(8) 0.64603(18) 0.1550(2) 0.0240 Uani
O4 O 0.18469(8) 0.5012(2) 0.09545(19) 0.0237 Uani
O5 O 0.22010(9) 0.9210(2) 0.23303(19) 0.0236 Uani
H1 H 0.2248(12) 1.0014(10) 0.215(4) 0.0350 Uiso
H2 H 0.2257(13) 0.907(4) 0.3145(9) 0.0350 Uiso
N1 N 0.33911(10) 0.7333(3) 0.0370(3) 0.0226 Uani
C1 C 0.20013(13) 0.7872(3) -0.0736(3) 0.0198 Uani
C2 C 0.17099(12) 0.7201(3) 0.0334(3) 0.0224 Uani
H3 H 0.1405 0.6818 -0.0044 0.0270 Uiso
H4 H 0.1608 0.7849 0.0994 0.0270 Uiso
C3 C 0.20120(13) 0.6141(3) 0.0998(3) 0.0197 Uani
C4 C 0.36993(12) 0.5792(4) -0.1172(3) 0.0292 Uani
H5 H 0.3628 0.5102 -0.1755 0.0350 Uiso
C5 C 0.33252(13) 0.6360(3) -0.0466(3) 0.0271 Uani
H6 H 0.2998 0.6039 -0.0581 0.0330 Uiso
C6 C 0.38624(14) 0.7748(3) 0.0521(3) 0.0317 Uani
H7 H 0.3923 0.8433 0.1118 0.0380 Uiso
C7 C 0.42594(13) 0.7233(4) -0.0144(3) 0.0328 Uani
H8 H 0.4585 0.7560 0.0001 0.0390 Uiso
C8 C 0.41835(14) 0.6237(4) -0.1025(3) 0.0277 Uani
C9 C 0.46075(14) 0.5660(4) -0.1805(3) 0.0353 Uani
H9 H 0.4768 0.6356 -0.2318 0.0420 Uiso
H10 H 0.4471 0.5021 -0.2428 0.0420 Uiso
C10 C 0.5000 0.5000 -0.0962(5) 0.0347 Uani
H11 H 0.5161 0.5651 -0.0395 0.0420 Uiso
N1A N 0.66089(10) 0.2667(3) 0.0370(3) 0.0226 Uani
C4A C 0.63007(12) 0.4208(4) -0.1172(3) 0.0292 Uani
H5A H 0.6372 0.4898 -0.1755 0.0350 Uiso
C5A C 0.66748(13) 0.3640(3) -0.0466(3) 0.0271 Uani
H6A H 0.7002 0.3961 -0.0581 0.0330 Uiso
C6A C 0.61376(14) 0.2252(3) 0.0521(3) 0.0317 Uani
H7A H 0.6077 0.1567 0.1118 0.0380 Uiso
C7A C 0.57406(13) 0.2767(4) -0.0144(3) 0.0328 Uani
H8A H 0.5415 0.2440 0.0001 0.0390 Uiso
C8A C 0.58165(14) 0.3763(4) -0.1025(3) 0.0277 Uani
C9A C 0.53925(14) 0.4340(4) -0.1805(3) 0.0353 Uani
H9A H 0.5232 0.3644 -0.2318 0.0420 Uiso
H10A H 0.5529 0.4979 -0.2428 0.0420 Uiso
H11A H 0.4839 0.4349 -0.0395 0.0420 Uiso
Zn1A Zn 0.720946(11) 0.17593(3) 0.13622(6) 0.0192 Uani
O1A O 0.75907(9) 0.1571(2) -0.0416(2) 0.0239 Uani
O2A O 0.81665(8) 0.2158(2) -0.1872(2) 0.0231 Uani
O3A O 0.75833(8) 0.35397(18) 0.1550(2) 0.0240 Uani
O4A O 0.81531(8) 0.4988(2) 0.09545(19) 0.0237 Uani
O5A O 0.77990(9) 0.0790(2) 0.23303(19) 0.0236 Uani
H1A H 0.7752(12) -0.0014(10) 0.215(4) 0.0350 Uiso
H2A H 0.7743(13) 0.093(4) 0.3145(9) 0.0350 Uiso
C1A C 0.79987(13) 0.2128(3) -0.0736(3) 0.0198 Uani
C2A C 0.82901(12) 0.2799(3) 0.0334(3) 0.0224 Uani
H3A H 0.8595 0.3182 -0.0044 0.0270 Uiso
H4A H 0.8392 0.2151 0.0994 0.0270 Uiso
C3A C 0.79880(13) 0.3859(3) 0.0998(3) 0.0197 Uani
Zn1B Zn 0.779054(11) 0.67593(3) 0.13622(6) 0.0192 Uani
Zn1C Zn 0.220946(11) 0.32407(3) 0.13622(6) 0.0192 Uani
Zn1F Zn 0.779054(11) 0.17593(3) -0.36378(6) 0.0192 Uani
Zn1G Zn 0.220946(11) 0.82407(3) -0.36378(6) 0.0192 Uani
O2F O 0.68335(8) 0.2158(2) 0.3128(2) 0.0231 Uani
O2G O 0.31665(8) 0.7842(2) 0.3128(2) 0.0231 Uani
O4B O 0.68469(8) -0.0012(2) 0.09545(19) 0.0237 Uani
O4C O 0.31531(8) 1.0012(2) 0.09545(19) 0.0237 Uani
N2 N 0.0381(3) 0.1550(8) 0.3694(10) 0.1770 Uani
C11 C 0.0638(2) 0.0858(6) 0.3234(7) 0.0827 Uani
C12 C 0.0975(2) -0.0018(6) 0.2640(6) 0.0833 Uani
H12 H 0.1145 0.0413 0.1914 0.1250 Uiso
H13 H 0.0793 -0.0771 0.2311 0.1250 Uiso
H14 H 0.1221 -0.0301 0.3285 0.1250 Uiso
loop_
_atom_site_aniso_label
_atom_site_aniso_U_11
_atom_site_aniso_U_22
_atom_site_aniso_U_33
_atom_site_aniso_U_23
_atom_site_aniso_U_13
_atom_site_aniso_U_12
Zn1 0.02158(17) 0.01718(16) 0.01875(15) 0.0012(2) 0.0005(2) 0.00042(13)
O1 0.0234(12) 0.0279(14) 0.0205(11) 0.0052(10) -0.0026(10) -0.0045(10)
O2 0.0216(13) 0.0287(12) 0.0190(11) 0.0024(9) -0.0023(10) -0.0006(10)
O3 0.0243(11) 0.0198(11) 0.0278(15) 0.0054(11) -0.0053(12) -0.0015(9)
O4 0.0232(12) 0.0164(10) 0.0314(13) 0.0014(8) 0.0002(9) -0.0030(9)
O5 0.0293(14) 0.0210(11) 0.0204(11) 0.0018(10) -0.0028(11) 0.0016(11)
N1 0.0252(15) 0.0194(14) 0.0233(14) -0.0001(11) -0.0006(12) 0.0027(12)
C1 0.0211(17) 0.0159(16) 0.0223(17) -0.0011(13) 0.0008(14) 0.0057(14)
C2 0.0208(19) 0.0217(16) 0.0248(16) 0.0028(13) -0.0002(14) 0.0004(14)
C3 0.0250(18) 0.0196(16) 0.0144(17) 0.0019(11) 0.0041(13) 0.0012(14)
C4 0.030(2) 0.0300(19) 0.0275(18) -0.0065(13) -0.0034(17) 0.0063(17)
C5 0.0232(18) 0.0286(17) 0.0295(17) -0.0047(14) -0.0017(16) -0.0004(15)
C6 0.033(2) 0.0260(18) 0.036(2) -0.0072(15) -0.0009(17) -0.0017(16)
C7 0.0203(19) 0.036(2) 0.042(2) -0.0039(16) 0.0007(18) 0.0003(16)
C8 0.025(2) 0.033(2) 0.0251(18) 0.0027(15) 0.0003(15) 0.0072(15)
C9 0.028(2) 0.046(2) 0.032(2) -0.0038(17) -0.0013(17) 0.0153(18)
C10 0.027(3) 0.042(3) 0.035(3) 0.000 0.000 0.012(2)
N1A 0.0252 0.0194 0.0233 0.0001 0.0006 0.0027
C4A 0.03 0.03 0.0275 0.0065 0.0034 0.0063
C5A 0.0232 0.0286 0.0295 0.0047 0.0017 -0.0004
C6A 0.033 0.026 0.036 0.0072 0.0009 -0.0017
C7A 0.0203 0.036 0.042 0.0039 -0.0007 0.0003
C8A 0.025 0.033 0.0251 -0.0027 -0.0003 0.0072
C9A 0.028 0.046 0.032 0.0038 0.0013 0.0153
Zn1A 0.02158 0.01718 0.01875 -0.0012 -0.0005 0.00042
O1A 0.0234 0.0279 0.0205 -0.0052 0.0026 -0.0045
O2A 0.0216 0.0287 0.019 -0.0024 0.0023 -0.0006
O3A 0.0243 0.0198 0.0278 -0.0054 0.0053 -0.0015
O4A 0.0232 0.0164 0.0314 -0.0014 -0.0002 -0.003
O5A 0.0293 0.021 0.0204 -0.0018 0.0028 0.0016
C1A 0.0211 0.0159 0.0223 0.0011 -0.0008 0.0057
C2A 0.0208 0.0217 0.0248 -0.0028 0.0002 0.0004
C3A 0.025 0.0196 0.0144 -0.0019 -0.0041 0.0012
Zn1B 0.02158 0.01718 0.01875 -0.0012 0.0005 -0.00042
Zn1C 0.02158 0.01718 0.01875 0.0012 -0.0005 -0.00042
Zn1F 0.02158 0.01718 0.01875 -0.0012 0.0005 -0.00042
Zn1G 0.02158 0.01718 0.01875 0.0012 -0.0005 -0.00042
O2F 0.0216 0.0287 0.019 -0.0024 -0.0023 0.0006
O2G 0.0216 0.0287 0.019 0.0024 0.0023 0.0006
O4B 0.0232 0.0164 0.0314 -0.0014 0.0002 0.003
O4C 0.0232 0.0164 0.0314 0.0014 -0.0002 0.003
N2 0.079(5) 0.179(8) 0.273(11) -0.056(7) 0.068(6) 0.032(4)
C11 0.040(3) 0.088(4) 0.120(5) -0.001(4) 0.010(3) 0.007(3)
C12 0.084(4) 0.078(4) 0.088(4) 0.030(3) 0.033(4) 0.023(3)
loop_
_geom_bond_atom_site_label_1
_geom_bond_atom_site_label_2
_geom_bond_site_symmetry_1
_geom_bond_site_symmetry_2
Zn1 O1 1_555 1_555
O1 C1 1_555 1_555
O2 C1 1_555 1_555
O3 Zn1 1_555 1_555
O4 C3 1_555 1_555
O5 Zn1 1_555 1_555
H1 O5 1_555 1_555
H2 O5 1_555 1_555
N1 Zn1 1_555 1_555
C1 C2 1_555 1_555
C2 H3 1_555 1_555
H4 C2 1_555 1_555
C3 O3 1_555 1_555
C4 H5 1_555 1_555
C5 N1 1_555 1_555
H6 C5 1_555 1_555
C6 N1 1_555 1_555
H7 C6 1_555 1_555
C7 C6 1_555 1_555
H8 C7 1_555 1_555
C8 C4 1_555 1_555
C9 C8 1_555 1_555
H9 C9 1_555 1_555
H10 C9 1_555 1_555
C10 C9 1_555 1_555
H11 C10 1_555 1_555
N2 C11 1_555 1_555
C11 C12 1_555 1_555
C12 H12 1_555 1_555
H13 C12 1_555 1_555
H14 C12 1_555 1_555
N1A C5A 1_555 1_555
C4A H5A 1_555 1_555
C5A C4A 1_555 1_555
H6A C5A 1_555 1_555
C6A N1A 1_555 1_555
H7A C6A 1_555 1_555
C7A C6A 1_555 1_555
H8A C7A 1_555 1_555
C8A C4A 1_555 1_555
C9A C10 1_555 1_555
H9A C9A 1_555 1_555
H10A C9A 1_555 1_555
H11A C10 1_555 1_555
Zn1A N1A 1_555 1_555
O1A Zn1A 1_555 1_555
O2A C1A 1_555 1_555
O3A Zn1A 1_555 1_555
O4A C3A 1_555 1_555
O5A Zn1A 1_555 1_555
H1A O5A 1_555 1_555
H2A O5A 1_555 1_555
C1A O1A 1_555 1_555
C2A C1A 1_555 1_555
H3A C2A 1_555 1_555
H4A C2A 1_555 1_555
C3A O3A 1_555 1_555
Zn1B O4A 1_555 1_555
Zn1C O4 1_555 1_555
Zn1F O2A 1_555 1_555
Zn1G O2 1_555 1_555
O2F Zn1A 1_555 1_555
O2G Zn1 1_555 1_555
O4B Zn1A 1_555 1_555
O4C Zn1 1_555 1_555
C2 C3 1_555 1_555
C4 C5 1_555 1_555
C7 C8 1_555 1_555
C7A C8A 1_555 1_555
C8A C9A 1_555 1_555
C2A C3A 1_555 1_555

#END
