
#######################################################################
#
#                 Cambridge Crystallographic Data Centre
#                                CCDC 
#
#######################################################################
#
# If this CIF has been generated from an entry in the Cambridge 
# Structural Database, then it will include bibliographic, chemical, 
# crystal, experimental, refinement or atomic coordinate data resulting 
# from the CCDC's data processing and validation procedures.
#
#######################################################################

data_KEXPIO
_chemical_formula_moiety         '(C20 H21 N3 O10 Zn2)n'
_symmetry_cell_setting           orthorhombic
_symmetry_space_group_name_H-M   'P n n 2'
_symmetry_Int_Tables_number      34
_space_group_name_Hall           'P 2 -2n'
loop_
_symmetry_equiv_pos_site_id
_symmetry_equiv_pos_as_xyz
1 x,y,z
2 -x,-y,z
3 1/2+x,1/2-y,1/2+z
4 1/2-x,1/2+y,1/2+z
_cell_length_a                   7.3070(15)
_cell_length_b                   24.960(5)
_cell_length_c                   7.2700(15)
_cell_angle_alpha                90
_cell_angle_beta                 90
_cell_angle_gamma                90
_cell_volume                     1325.92
loop_
_atom_site_label
_atom_site_type_symbol
_atom_site_fract_x
_atom_site_fract_y
_atom_site_fract_z
Zn1 Zn -0.05367(5) 0.780313(16) 0.8738(5)
O1 O 0.1047(11) 0.7410(3) 1.0706(10)
O2 O 0.3084(10) 0.6796(3) 1.1612(10)
O3 O 0.1080(10) 0.7395(3) 0.6779(10)
O4 O 0.3145(9) 0.6796(3) 0.5915(9)
O5 O -0.2462(4) 0.71590(12) 0.8835(13)
H1 H -0.294(8) 0.727(3) 0.981(6)
H2 H -0.331(6) 0.721(3) 0.808(7)
C1 C 0.1974(14) 0.6979(4) 1.0498(11)
C2 C 0.1605(5) 0.66512(15) 0.8724(10)
H3 H 0.2406 0.6331 0.8715
H4 H 0.0319 0.6527 0.8727
C3 C 0.1943(14) 0.6969(3) 0.7038(10)
C4 C 0.4446(3) 0.87905(12) 0.8695(14)
C5 C 0.3213(3) 0.83709(9) 0.8908(11)
H5 H 0.3638 0.8027 0.9268
N1 N 0.1359(3) 0.84547(12) 0.8593(12)
C6 C 0.0737(5) 0.89581(16) 0.8066(15)
C7 C 0.1970(8) 0.93777(15) 0.7853(15)
C8 C 0.3824(6) 0.92939(13) 0.8168(16)
C9 C 0.518(2) 0.9745(6) 0.800(2)
C4A C 0.5554(3) 1.12095(12) 0.8695(14)
C5A C 0.6787(3) 1.16291(9) 0.8908(11)
H5A H 0.6362 1.1973 0.9268
N1A N 0.8641(3) 1.15453(12) 0.8593(12)
C6A C 0.9263(5) 1.10419(16) 0.8066(15)
C7A C 0.8030(8) 1.06223(15) 0.7853(15)
C8A C 0.6176(6) 1.07061(13) 0.8168(16)
C9A C 0.482(2) 1.0255(6) 0.800(2)
Zn1A Zn 1.05367(5) 1.219687(16) 0.8738(5)
O1A O 0.8953(11) 1.2590(3) 1.0706(10)
O2A O 0.6916(10) 1.3204(3) 1.1612(10)
O3A O 0.8920(10) 1.2605(3) 0.6779(10)
O4A O 0.6855(9) 1.3204(3) 0.5915(9)
O5A O 1.2462(4) 1.28410(12) 0.8835(13)
H1A H 1.294(8) 1.273(3) 0.981(6)
H2A H 1.331(6) 1.279(3) 0.808(7)
C1A C 0.8026(14) 1.3021(4) 1.0498(11)
C2A C 0.8395(5) 1.33488(15) 0.8724(10)
H3A H 0.7594 1.3669 0.8715
H4A H 0.9681 1.3473 0.8727
C3A C 0.8057(14) 1.3031(3) 0.7038(10)
Zn1B Zn 0.44633(5) 0.719687(16) 0.3738(5)
Zn1B_2 Zn 0.44633(5) 0.719687(16) 1.3738(5)
Zn1C Zn 0.55367(5) 1.280313(16) 0.3738(5)
Zn1C_2 Zn 0.55367(5) 1.280313(16) 1.3738(5)
O2B O -0.1916(10) 0.8204(3) 0.6612(10)
O2C O 1.1916(10) 1.1796(3) 0.6612(10)
O4B O -0.1855(9) 0.8204(3) 1.0915(9)
O4C O 1.1855(9) 1.1796(3) 1.0915(9)
N2 N 0.2011(16) 1.0221(3) 0.5283(18)
C10 C 0.1969(15) 0.9778(3) 0.4846(17)
C11 C 0.1771(17) 0.9198(3) 0.4490(19)
H6 H 0.2931 0.9016 0.4758
H7 H 0.1446 0.9141 0.3198
H8 H 0.0807 0.9051 0.5281
loop_
_geom_bond_atom_site_label_1
_geom_bond_atom_site_label_2
_geom_bond_site_symmetry_1
_geom_bond_site_symmetry_2
Zn1 O1 1_555 1_555
O1 C1 1_555 1_555
O2 C1 1_555 1_555
O3 Zn1 1_555 1_555
O4 C3 1_555 1_555
O5 Zn1 1_555 1_555
H1 O5 1_555 1_555
H2 O5 1_555 1_555
C1 C2 1_555 1_555
C2 H3 1_555 1_555
H4 C2 1_555 1_555
C3 O3 1_555 1_555
C4 C5 1_555 1_555
C5 H5 1_555 1_555
N1 Zn1 1_555 1_555
C6 N1 1_555 1_555
C7 C6 1_555 1_555
C8 C4 1_555 1_555
C9 C8 1_555 1_555
N2 C10 1_555 1_555
C10 C11 1_555 1_555
C11 H6 1_555 1_555
H7 C11 1_555 1_555
H8 C11 1_555 1_555
C4A C5A 1_555 1_555
C5A H5A 1_555 1_555
N1A C5A 1_555 1_555
C6A N1A 1_555 1_555
C7A C6A 1_555 1_555
C8A C4A 1_555 1_555
C9A C9 1_555 1_555
Zn1A N1A 1_555 1_555
O1A Zn1A 1_555 1_555
O2A C1A 1_555 1_555
O3A Zn1A 1_555 1_555
O4A C3A 1_555 1_555
O5A Zn1A 1_555 1_555
H1A O5A 1_555 1_555
H2A O5A 1_555 1_555
C1A O1A 1_555 1_555
C2A C1A 1_555 1_555
H3A C2A 1_555 1_555
H4A C2A 1_555 1_555
C3A O3A 1_555 1_555
Zn1B O4 1_555 1_555
Zn1B_2 O2 1_555 1_555
Zn1C O4A 1_555 1_555
Zn1C_2 O2A 1_555 1_555
O2B Zn1 1_555 1_555
O2C Zn1A 1_555 1_555
O4B Zn1 1_555 1_555
O4C Zn1A 1_555 1_555
C2 C3 1_555 1_555
C5 N1 1_555 1_555
C7 C8 1_555 1_555
C7A C8A 1_555 1_555
C8A C9A 1_555 1_555
C2A C3A 1_555 1_555

#END
