
#######################################################################
#
#                 Cambridge Crystallographic Data Centre
#                                CCDC 
#
#######################################################################
#
# If this CIF has been generated from an entry in the Cambridge 
# Structural Database, then it will include bibliographic, chemical, 
# crystal, experimental, refinement or atomic coordinate data resulting 
# from the CCDC's data processing and validation procedures.
#
#######################################################################

data_YIZCAN
_chemical_formula_moiety         '(C24 H14 Co2 N4 O8)n'
_symmetry_cell_setting           orthorhombic
_symmetry_space_group_name_H-M   'P b a m'
_symmetry_Int_Tables_number      55
_space_group_name_Hall           '-P 2 2ab'
loop_
_symmetry_equiv_pos_site_id
_symmetry_equiv_pos_as_xyz
1 x,y,z
2 -x,-y,z
3 1/2+x,1/2-y,-z
4 1/2-x,1/2+y,-z
5 -x,-y,-z
6 x,y,-z
7 1/2-x,1/2+y,z
8 1/2+x,1/2-y,z
_cell_length_a                   13.2606(15)
_cell_length_b                   17.5002(17)
_cell_length_c                   7.1051(11)
_cell_angle_alpha                90
_cell_angle_beta                 90
_cell_angle_gamma                90
_cell_volume                     1648.83
loop_
_atom_site_label
_atom_site_type_symbol
_atom_site_fract_x
_atom_site_fract_y
_atom_site_fract_z
Co1 Co 0.04063(8) -0.11448(5) 0.5000
O1 O 0.1568(4) -0.0402(3) 0.5000
O2 O 0.1022(4) 0.0783(3) 0.5000
O3 O 0.3502(4) 0.2911(3) 0.5000
O4 O 0.5120(4) 0.2666(3) 0.5000
N1 N 0.0401(3) -0.1133(2) 0.1968(10)
C1 C 0.1694(5) 0.0290(4) 0.5000
C2 C 0.2785(5) 0.0584(4) 0.5000
C3 C 0.2983(5) 0.1367(4) 0.5000
H1 H 0.2462 0.1723 0.5000
C4 C 0.3986(5) 0.1597(4) 0.5000
C5 C 0.4763(6) 0.1063(4) 0.5000
H2 H 0.5425 0.1237 0.5000
C6 C 0.4589(5) 0.0294(4) 0.5000
C7 C 0.3550(5) 0.0049(4) 0.5000
H3 H 0.3396 -0.0470 0.5000
C8 C 0.4212(6) 0.2439(4) 0.5000
C9 C -0.0422(4) -0.1255(5) 0.0957(14)
H4 H -0.1027 -0.1346 0.1583
C10 C 0.1247(5) -0.1005(4) 0.0966(12)
H5 H 0.1848 -0.0914 0.1602
O1A O 0.8432(4) 0.0402(3) 0.5000
O2A O 0.8978(4) -0.0783(3) 0.5000
O3A O 0.6498(4) -0.2911(3) 0.5000
O4A O 0.4880(4) -0.2666(3) 0.5000
C1A C 0.8306(5) -0.0290(4) 0.5000
C2A C 0.7215(5) -0.0584(4) 0.5000
C3A C 0.7017(5) -0.1367(4) 0.5000
H1A H 0.7538 -0.1723 0.5000
C4A C 0.6014(5) -0.1597(4) 0.5000
C5A C 0.5237(6) -0.1063(4) 0.5000
H2A H 0.4575 -0.1237 0.5000
C6A C 0.5411(5) -0.0294(4) 0.5000
C7A C 0.6450(5) -0.0049(4) 0.5000
H3A H 0.6604 0.0470 0.5000
C8A C 0.5788(6) -0.2439(4) 0.5000
N1E N 0.0401(3) -0.1133(2) -0.1968(10)
C9E C -0.0422(4) -0.1255(5) -0.0957(14)
H4E H -0.1027 -0.1346 -0.1583
C10E C 0.1247(5) -0.1005(4) -0.0966(12)
H5E H 0.1848 -0.0914 -0.1602
Co1A Co -0.04063(8) 0.11448(5) 0.5000
N1A N -0.0401(3) 0.1133(2) 0.1968(10)
C9A C 0.0422(4) 0.1255(5) 0.0957(14)
H4A H 0.1027 0.1346 0.1583
C10A C -0.1247(5) 0.1005(4) 0.0966(12)
H5A H -0.1848 0.0914 0.1602
N1D N -0.0401(3) 0.1133(2) -0.1968(10)
C9D C 0.0422(4) 0.1255(5) -0.0957(14)
H4D H 0.1027 0.1346 -0.1583
C10D C -0.1247(5) 0.1005(4) -0.0966(12)
H5D H -0.1848 0.0914 -0.1602
Co1_2 Co 0.04063(8) -0.11448(5) -0.5000
Co1_3 Co 1.04063(8) -0.11448(5) 0.5000
Co1A_2 Co -0.04063(8) 0.11448(5) -0.5000
Co1A_3 Co 0.95937(8) 0.11448(5) 0.5000
Co1B Co 0.54063(8) -0.38552(5) 0.5000
Co1C Co 0.45937(8) 0.38552(5) 0.5000
O1A_2 O -0.1568(4) 0.0402(3) 0.5000
O2A_2 O -0.1022(4) -0.0783(3) 0.5000
O3B O -0.1498(4) 0.2089(3) 0.5000
O3C O 0.1498(4) -0.2089(3) 0.5000
O4B O 0.0120(4) 0.2334(3) 0.5000
O4C O -0.0120(4) -0.2334(3) 0.5000
N1D_2 N -0.0401(3) 0.1133(2) 0.8032(10)
N1E_2 N 0.0401(3) -0.1133(2) 0.8032(10)
loop_
_geom_bond_atom_site_label_1
_geom_bond_atom_site_label_2
_geom_bond_site_symmetry_1
_geom_bond_site_symmetry_2
Co1 O1 1_555 1_555
O1 C1 1_555 1_555
O2 C1 1_555 1_555
O3 C8 1_555 1_555
O4 C8 1_555 1_555
N1 Co1 1_555 1_555
C1 C2 1_555 1_555
C2 C3 1_555 1_555
C3 H1 1_555 1_555
C4 C3 1_555 1_555
C5 C4 1_555 1_555
H2 C5 1_555 1_555
C6 C5 1_555 1_555
C7 C2 1_555 1_555
H3 C7 1_555 1_555
C8 C4 1_555 1_555
C9 N1 1_555 1_555
H4 C9 1_555 1_555
C10 N1 1_555 1_555
H5 C10 1_555 1_555
O1A C1A 1_555 1_555
O2A C1A 1_555 1_555
O3A C8A 1_555 1_555
O4A C8A 1_555 1_555
C1A C2A 1_555 1_555
C2A C3A 1_555 1_555
C3A H1A 1_555 1_555
C4A C3A 1_555 1_555
C5A C4A 1_555 1_555
H2A C5A 1_555 1_555
C6A C6 1_555 1_555
C7A C2A 1_555 1_555
H3A C7A 1_555 1_555
C8A C4A 1_555 1_555
N1E C9E 1_555 1_555
C9E C9 1_555 1_555
H4E C9E 1_555 1_555
C10E C10 1_555 1_555
H5E C10E 1_555 1_555
Co1A O2 1_555 1_555
N1A Co1A 1_555 1_555
C9A N1A 1_555 1_555
H4A C9A 1_555 1_555
C10A N1A 1_555 1_555
H5A C10A 1_555 1_555
N1D C9D 1_555 1_555
C9D C9A 1_555 1_555
H4D C9D 1_555 1_555
C10D C10A 1_555 1_555
H5D C10D 1_555 1_555
Co1_2 N1E 1_555 1_555
Co1_3 O2A 1_555 1_555
Co1A_2 N1D 1_555 1_555
Co1A_3 O1A 1_555 1_555
Co1B O3A 1_555 1_555
Co1C O3 1_555 1_555
O1A_2 Co1A 1_555 1_555
O2A_2 Co1 1_555 1_555
O3B Co1A 1_555 1_555
O3C Co1 1_555 1_555
O4B Co1A 1_555 1_555
O4C Co1 1_555 1_555
N1D_2 Co1A 1_555 1_555
N1E_2 Co1 1_555 1_555
O4 Co1C 1_555 1_555
C6 C7 1_555 1_555
O4A Co1B 1_555 1_555
C5A C6A 1_555 1_555
C6A C7A 1_555 1_555
N1E C10E 1_555 1_555
N1D C10D 1_555 1_555

#END
