
#######################################################################
#
#                 Cambridge Crystallographic Data Centre
#                                CCDC 
#
#######################################################################
#
# If this CIF has been generated from an entry in the Cambridge 
# Structural Database, then it will include bibliographic, chemical, 
# crystal, experimental, refinement or atomic coordinate data resulting 
# from the CCDC's data processing and validation procedures.
#
#######################################################################

data_CUYVOI
_chemical_formula_moiety         '(C54 H56 N16 O22 Zn4)n'
_symmetry_cell_setting           monoclinic
_symmetry_space_group_name_H-M   'C 2/c'
_symmetry_Int_Tables_number      15
_space_group_name_Hall           '-C 2yc'
loop_
_symmetry_equiv_pos_site_id
_symmetry_equiv_pos_as_xyz
1 x,y,z
2 -x,y,1/2-z
3 1/2+x,1/2+y,z
4 1/2-x,1/2+y,1/2-z
5 -x,-y,-z
6 x,-y,1/2+z
7 1/2-x,1/2-y,-z
8 1/2+x,1/2-y,1/2+z
_cell_length_a                   38.967(5)
_cell_length_b                   8.985(5)
_cell_length_c                   19.114(5)
_cell_angle_alpha                90
_cell_angle_beta                 92.438(5)
_cell_angle_gamma                90
_cell_volume                     6686.11
loop_
_atom_site_label
_atom_site_type_symbol
_atom_site_fract_x
_atom_site_fract_y
_atom_site_fract_z
Zn1 Zn 0.773503(18) 0.17762(8) 0.59897(4)
Zn2 Zn 0.970930(16) -0.07405(8) 0.08878(3)
C1 C 0.80322(17) -0.3468(7) 0.2239(3)
H1 H 0.7990 -0.4378 0.2019
C2 C 0.81976(16) -0.3288(7) 0.2870(3)
H2 H 0.8287 -0.4030 0.3164
C3 C 0.80399(15) -0.1105(7) 0.2439(3)
H3 H 0.8003 -0.0086 0.2396
C4 C 0.83410(13) -0.0983(7) 0.3611(3)
H4 H 0.8222 -0.0038 0.3639
H5 H 0.8283 -0.1561 0.4018
C5 C 0.87320(13) -0.0671(6) 0.3660(3)
C6 C 0.87782(14) 0.0444(7) 0.4281(3)
H6 H 0.8750 0.1445 0.4098
H7 H 0.9012 0.0361 0.4473
C7 C 0.82695(14) 0.1113(6) 0.4974(3)
H8 H 0.8203 0.1932 0.4703
C8 C 0.82835(17) -0.0572(8) 0.5762(3)
H9 H 0.8225 -0.1144 0.6145
C9 C 0.85553(18) -0.0826(8) 0.5361(3)
H10 H 0.8718 -0.1579 0.5419
C10 C 0.88535(15) 0.0214(6) 0.3023(3)
H11 H 0.9026 0.0919 0.3194
H12 H 0.8660 0.0790 0.2838
C11 C 0.88537(16) -0.1698(8) 0.2008(3)
H13 H 0.8646 -0.2180 0.2067
C12 C 0.90724(16) -0.1940(8) 0.1494(3)
H14 H 0.9042 -0.2633 0.1135
C13 C 0.92935(14) -0.0211(7) 0.2151(3)
H15 H 0.9441 0.0519 0.2334
C14 C 0.89225(14) -0.2131(6) 0.3797(3)
H16 H 0.8816 -0.2888 0.3498
H17 H 0.8888 -0.2423 0.4278
C15 C 0.94593(16) -0.3225(7) 0.3319(3)
H18 H 0.9356 -0.4011 0.3074
C16 C 0.97972(15) -0.2932(7) 0.3382(3)
H19 H 0.9969 -0.3491 0.3184
C17 C 0.95418(13) -0.1232(6) 0.3960(3)
H20 H 0.9501 -0.0403 0.4236
C18 C 0.96737(14) 0.2300(6) 0.0509(3)
C19 C 0.98507(13) 0.3708(6) 0.0262(3)
C20 C 1.02070(13) 0.3761(6) 0.0192(3)
C21 C 0.96492(13) 0.4933(6) 0.0061(3)
H21 H 0.9412 0.4877 0.0097
C22 C 1.04503(13) 0.2537(6) 0.0408(3)
C23 C 0.71304(14) -0.0081(7) 0.5660(3)
C24 C 0.73352(13) -0.1285(6) 0.5311(3)
C25 C 0.73794(13) -0.2618(6) 0.5656(3)
H22 H 0.7296 -0.2704 0.6103
C26 C 0.74589(13) -0.1156(6) 0.4626(3)
C27 C 0.74443(13) 0.0277(7) 0.4229(3)
O1 O 0.93602(11) 0.2277(5) 0.0547(3)
O2 O 0.98729(10) 0.1219(4) 0.0649(2)
O3 O 1.05874(11) 0.2575(5) 0.0996(2)
O4 O 1.05253(9) 0.1577(4) -0.00554(19)
O5 O 0.72922(11) 0.0836(5) 0.6058(2)
O6 O 0.68162(10) -0.0149(6) 0.5594(3)
O7 O 0.72851(12) 0.1349(5) 0.4514(2)
O8 O 0.75827(13) 0.0380(6) 0.3669(2)
N1 N 0.79363(13) -0.2108(6) 0.1972(2)
N2 N 0.82055(11) -0.1766(6) 0.2986(2)
N3 N 0.81091(12) 0.0656(5) 0.5519(2)
N4 N 0.85436(11) 0.0248(6) 0.4853(2)
N5 N 0.89973(11) -0.0601(5) 0.2433(2)
N6 N 0.93494(12) -0.0989(5) 0.1585(2)
N7 N 0.98489(11) -0.1679(5) 0.3783(2)
N8 N 0.92963(11) -0.2145(5) 0.3687(2)
Zn1F Zn 0.726497(18) -0.67762(8) 0.40103(4)
Zn1F_2 Zn 0.726497(18) 0.32238(8) 0.40103(4)
Zn1E Zn 0.773503(18) -0.17762(8) 0.09897(4)
Zn1_2 Zn 0.773503(18) -0.82238(8) 0.59897(4)
Zn1E_2 Zn 0.773503(18) -0.17762(8) 1.09897(4)
Zn2E Zn 0.970930(16) 0.07405(8) 0.58878(3)
Zn2D Zn 1.029070(16) 0.07405(8) -0.08878(3)
Zn2A Zn 1.029070(16) -0.07405(8) 0.41122(3)
Zn2D_2 Zn 1.029070(16) 1.07405(8) -0.08878(3)
Zn2_2 Zn 0.970930(16) 0.92595(8) 0.08878(3)
Zn2D_3 Zn 1.029070(16) 0.07405(8) 0.91122(3)
C1E C 0.80322(17) 0.3468(7) 0.7239(3)
H1E H 0.7990 0.4378 0.7019
C2E C 0.81976(16) 0.3288(7) 0.7870(3)
H2E H 0.8287 0.4030 0.8164
C3E C 0.80399(15) 0.1105(7) 0.7439(3)
H3E H 0.8003 0.0086 0.7396
C4E C 0.83410(13) 0.0983(7) 0.8611(3)
H4E H 0.8222 0.0038 0.8639
H5E H 0.8283 0.1561 0.9018
C5E C 0.87320(13) 0.0671(6) 0.8660(3)
C6E C 0.87782(14) -0.0444(7) 0.9281(3)
H6E H 0.8750 -0.1445 0.9098
H7E H 0.9012 -0.0361 0.9473
C7E C 0.82695(14) -0.1113(6) 0.9974(3)
H8E H 0.8203 -0.1932 0.9703
C8E C 0.82835(17) 0.0572(8) 1.0762(3)
H9E H 0.8225 0.1144 1.1145
C9E C 0.85553(18) 0.0826(8) 1.0361(3)
H10E H 0.8718 0.1579 1.0419
C10E C 0.88535(15) -0.0214(6) 0.8023(3)
H11E H 0.9026 -0.0919 0.8194
H12E H 0.8660 -0.0790 0.7838
C11E C 0.88537(16) 0.1698(8) 0.7008(3)
H13E H 0.8646 0.2180 0.7067
C12E C 0.90724(16) 0.1940(8) 0.6494(3)
H14E H 0.9042 0.2633 0.6135
C13E C 0.92935(14) 0.0211(7) 0.7151(3)
H15E H 0.9441 -0.0519 0.7334
C14E C 0.89225(14) 0.2131(6) 0.8797(3)
H16E H 0.8816 0.2888 0.8498
H17E H 0.8888 0.2423 0.9278
C15E C 0.94593(16) 0.3225(7) 0.8319(3)
H18E H 0.9356 0.4011 0.8074
C16E C 0.97972(15) 0.2932(7) 0.8382(3)
H19E H 0.9969 0.3491 0.8184
C17E C 0.95418(13) 0.1232(6) 0.8960(3)
H20E H 0.9501 0.0403 0.9236
C18D C 1.03263(14) 0.7700(6) -0.0509(3)
C19D C 1.01493(13) 0.6292(6) -0.0262(3)
C20D C 0.97930(13) 0.6239(6) -0.0192(3)
C21D C 1.03508(13) 0.5067(6) -0.0061(3)
H21D H 1.0588 0.5123 -0.0097
C22D C 0.95497(13) 0.7463(6) -0.0408(3)
C23F C 0.78696(14) -0.4919(7) 0.4340(3)
C24F C 0.76648(13) -0.3715(6) 0.4689(3)
C25F C 0.76206(13) -0.2382(6) 0.4344(3)
H22F H 0.7704 -0.2296 0.3897
C26F C 0.75411(13) -0.3844(6) 0.5374(3)
C27F C 0.75557(13) -0.5277(7) 0.5771(3)
O1D O 1.06398(11) 0.7723(5) -0.0547(3)
O2D O 1.01271(10) 0.8781(4) -0.0649(2)
O2E O 0.98729(10) -0.1219(4) 0.5649(2)
O3D O 0.94126(11) 0.7425(5) -0.0996(2)
O4D O 0.94747(9) 0.8423(4) 0.00554(19)
O4D_2 O 0.94747(9) -0.1577(4) 0.00554(19)
O4A O 0.94747(9) 0.1577(4) 0.50554(19)
O5F O 0.77078(11) -0.5836(5) 0.3942(2)
O6F O 0.81838(10) -0.4851(6) 0.4406(3)
O7F O 0.77149(12) -0.6349(5) 0.5486(2)
O7F_2 O 0.77149(12) 0.3651(5) 0.5486(2)
O7_2 O 0.72851(12) -0.8651(5) 0.4514(2)
O8F O 0.74173(13) -0.5380(6) 0.6331(2)
N1E N 0.79363(13) 0.2108(6) 0.6972(2)
N1C N 0.70637(13) -0.7108(6) 0.3028(2)
N2E N 0.82055(11) 0.1766(6) 0.7986(2)
N3E N 0.81091(12) -0.0656(5) 1.0519(2)
N3F N 0.68909(12) -0.5656(5) 0.4481(2)
N4E N 0.85436(11) -0.0248(6) 0.9853(2)
N5E N 0.89973(11) 0.0601(5) 0.7433(2)
N6E N 0.93494(12) 0.0989(5) 0.6585(2)
N7E N 0.98489(11) 0.1679(5) 0.8783(2)
N7A N 1.01511(11) -0.1679(5) 0.1217(2)
N7D N 1.01511(11) 0.1679(5) 0.6217(2)
N8E N 0.92963(11) 0.2145(5) 0.8687(2)
O9 O 0.6769(3) 0.2268(14) 0.6824(7)
O10 O 1.0350(4) -0.3097(18) 0.7330(5)
O12 O 0.9103(12) -0.403(4) 0.6655(17)
O13 O 0.7885(6) -0.255(2) 0.7092(15)
O14 O 0.6497(8) -0.024(4) 0.4060(17)
O15 O 0.6226(4) 0.0790(16) 0.6317(9)
H23 H 0.622(7) 0.08(5) 0.6763(17)
H24 H 0.642(3) 0.09(3) 0.614(12)
loop_
_geom_bond_atom_site_label_1
_geom_bond_atom_site_label_2
_geom_bond_site_symmetry_1
_geom_bond_site_symmetry_2
Zn1 O5 1_555 1_555
Zn2 O2 1_555 1_555
C1 H1 1_555 1_555
C2 C1 1_555 1_555
H2 C2 1_555 1_555
C3 H3 1_555 1_555
C4 H4 1_555 1_555
H5 C4 1_555 1_555
C5 C4 1_555 1_555
C6 C5 1_555 1_555
H6 C6 1_555 1_555
H7 C6 1_555 1_555
C7 H8 1_555 1_555
C8 H9 1_555 1_555
C9 C8 1_555 1_555
H10 C9 1_555 1_555
C10 C5 1_555 1_555
H11 C10 1_555 1_555
H12 C10 1_555 1_555
C11 H13 1_555 1_555
C12 C11 1_555 1_555
H14 C12 1_555 1_555
C13 H15 1_555 1_555
C14 C5 1_555 1_555
H16 C14 1_555 1_555
H17 C14 1_555 1_555
C15 H18 1_555 1_555
C16 C15 1_555 1_555
H19 C16 1_555 1_555
C17 H20 1_555 1_555
C18 C19 1_555 1_555
C19 C20 1_555 1_555
C20 C22 1_555 1_555
C21 C19 1_555 1_555
H21 C21 1_555 1_555
C22 O3 1_555 1_555
C23 C24 1_555 1_555
C24 C25 1_555 1_555
C25 H22 1_555 1_555
C26 C24 1_555 1_555
C27 C26 1_555 1_555
O1 C18 1_555 1_555
O2 C18 1_555 1_555
O4 C22 1_555 1_555
O5 C23 1_555 1_555
O6 C23 1_555 1_555
O7 C27 1_555 1_555
O8 C27 1_555 1_555
N1 C1 1_555 1_555
N2 C2 1_555 1_555
N3 Zn1 1_555 1_555
N4 C6 1_555 1_555
N5 C10 1_555 1_555
N6 Zn2 1_555 1_555
N7 C16 1_555 1_555
N8 C14 1_555 1_555
O15 H23 1_555 1_555
H24 O15 1_555 1_555
Zn1F O5F 1_555 1_555
Zn1F_2 O7 1_555 1_555
Zn1E N1 1_555 1_555
Zn1_2 O7F 1_555 1_555
Zn1E_2 N3E 1_555 1_555
Zn2E O2E 1_555 1_555
Zn2D O4 1_555 1_555
Zn2A N7 1_555 1_555
Zn2D_2 O2D 1_555 1_555
Zn2_2 O4D 1_555 1_555
Zn2D_3 N7E 1_555 1_555
C1E H1E 1_555 1_555
C2E C1E 1_555 1_555
H2E C2E 1_555 1_555
C3E H3E 1_555 1_555
C4E H4E 1_555 1_555
H5E C4E 1_555 1_555
C5E C4E 1_555 1_555
C6E C5E 1_555 1_555
H6E C6E 1_555 1_555
H7E C6E 1_555 1_555
C7E H8E 1_555 1_555
C8E H9E 1_555 1_555
C9E C8E 1_555 1_555
H10E C9E 1_555 1_555
C10E C5E 1_555 1_555
H11E C10E 1_555 1_555
H12E C10E 1_555 1_555
C11E H13E 1_555 1_555
C12E C11E 1_555 1_555
H14E C12E 1_555 1_555
C13E H15E 1_555 1_555
C14E C5E 1_555 1_555
H16E C14E 1_555 1_555
H17E C14E 1_555 1_555
C15E H18E 1_555 1_555
C16E C15E 1_555 1_555
H19E C16E 1_555 1_555
C17E H20E 1_555 1_555
C18D C19D 1_555 1_555
C19D C20D 1_555 1_555
C20D C21 1_555 1_555
C21D C20 1_555 1_555
H21D C21D 1_555 1_555
C22D C20D 1_555 1_555
C23F C24F 1_555 1_555
C24F C25F 1_555 1_555
C25F C26 1_555 1_555
H22F C25F 1_555 1_555
C26F C25 1_555 1_555
C27F C26F 1_555 1_555
O1D C18D 1_555 1_555
O2D C18D 1_555 1_555
O3D C22D 1_555 1_555
O4D C22D 1_555 1_555
O4D_2 Zn2 1_555 1_555
O4A Zn2E 1_555 1_555
O5F C23F 1_555 1_555
O6F C23F 1_555 1_555
O7F C27F 1_555 1_555
O7F_2 Zn1 1_555 1_555
O7_2 Zn1F 1_555 1_555
O8F C27F 1_555 1_555
N1E Zn1 1_555 1_555
N1C Zn1F 1_555 1_555
N2E C2E 1_555 1_555
N3E C7E 1_555 1_555
N3F Zn1F 1_555 1_555
N4E C6E 1_555 1_555
N5E C10E 1_555 1_555
N6E Zn2E 1_555 1_555
N7E C16E 1_555 1_555
N7A Zn2 1_555 1_555
N7D Zn2E 1_555 1_555
N8E C14E 1_555 1_555
C3 N1 1_555 1_555
C3 N2 1_555 1_555
C4 N2 1_555 1_555
C7 N3 1_555 1_555
C7 N4 1_555 1_555
C8 N3 1_555 1_555
C9 N4 1_555 1_555
C11 N5 1_555 1_555
C12 N6 1_555 1_555
C13 N5 1_555 1_555
C13 N6 1_555 1_555
C15 N8 1_555 1_555
C17 N7 1_555 1_555
C17 N8 1_555 1_555
C1E N1E 1_555 1_555
C3E N1E 1_555 1_555
C3E N2E 1_555 1_555
C4E N2E 1_555 1_555
C7E N4E 1_555 1_555
C8E N3E 1_555 1_555
C9E N4E 1_555 1_555
C11E N5E 1_555 1_555
C12E N6E 1_555 1_555
C13E N5E 1_555 1_555
C13E N6E 1_555 1_555
C15E N8E 1_555 1_555
C17E N7E 1_555 1_555
C17E N8E 1_555 1_555
C19D C21D 1_555 1_555
C24F C26F 1_555 1_555

#END
