
#######################################################################
#
#                 Cambridge Crystallographic Data Centre
#                                CCDC 
#
#######################################################################
#
# If this CIF has been generated from an entry in the Cambridge 
# Structural Database, then it will include bibliographic, chemical, 
# crystal, experimental, refinement or atomic coordinate data resulting 
# from the CCDC's data processing and validation procedures.
#
#######################################################################

data_OQOJUB
_chemical_formula_moiety         '(C33 H59 Li1 O11)n'
_symmetry_cell_setting           orthorhombic
_symmetry_space_group_name_H-M   'P 21 21 21'
_symmetry_Int_Tables_number      19
_space_group_name_Hall           'P 2ac 2ab'
loop_
_symmetry_equiv_pos_site_id
_symmetry_equiv_pos_as_xyz
1 x,y,z
2 1/2-x,-y,1/2+z
3 -x,1/2+y,1/2-z
4 1/2+x,1/2-y,-z
_cell_length_a                   8.3104(2)
_cell_length_b                   12.4546(3)
_cell_length_c                   33.5852(8)
_cell_angle_alpha                90
_cell_angle_beta                 90
_cell_angle_gamma                90
_cell_volume                     3476.16
loop_
_atom_site_label
_atom_site_type_symbol
_atom_site_fract_x
_atom_site_fract_y
_atom_site_fract_z
C1 C 0.3706(3) 0.57172(17) 0.18486(7)
H1 H 0.3157 0.5207 0.2034
C2 C 0.4888(3) 0.50387(19) 0.15928(7)
H2 H 0.445 0.4309 0.155
H3 H 0.5057 0.5382 0.133
C3 C 0.6491(3) 0.49798(19) 0.18251(7)
H4 H 0.6822 0.4225 0.1869
H5 H 0.7359 0.5362 0.1681
C4 C 0.6104(3) 0.55351(17) 0.22202(7)
H6 H 0.5505 0.4996 0.2383
C5 C 0.7497(3) 0.59120(17) 0.24768(7)
H7 H 0.8109 0.6475 0.2328
C6 C 0.8637(3) 0.49803(18) 0.25728(7)
H8 H 0.8004 0.4378 0.2684
H9 H 0.9144 0.4728 0.2323
C7 C 0.9955(3) 0.52864(18) 0.28682(7)
H10 H 1.0711 0.5791 0.2738
H11 H 1.0566 0.4634 0.2942
C8 C 0.9283(3) 0.58106(18) 0.32468(7)
H12 H 1.0222 0.6094 0.34
C9 C 0.8440(3) 0.49860(18) 0.35126(7)
H13 H 0.756 0.4644 0.336
H14 H 0.922 0.4418 0.3585
C10 C 0.7748(3) 0.54705(18) 0.38911(7)
H15 H 0.8651 0.5753 0.4058
C11 C 0.6609(3) 0.63873(18) 0.37943(7)
H16 H 0.6215 0.6721 0.4043
H17 H 0.567 0.6113 0.3644
C12 C 0.7509(3) 0.72167(18) 0.35454(7)
H18 H 0.8413 0.7504 0.3705
H19 H 0.6772 0.7821 0.3487
C13 C 0.8181(3) 0.67825(17) 0.31491(7)
C14 C 0.4197(3) 0.68613(19) 0.24983(7)
H20 H 0.3582 0.6293 0.2637
H21 H 0.3449 0.7459 0.2439
C15 C 0.5544(3) 0.72685(18) 0.27730(7)
H22 H 0.6072 0.7894 0.2646
H23 H 0.5062 0.7515 0.3027
C16 C 0.6821(3) 0.64123(17) 0.28635(7)
H24 H 0.6244 0.5819 0.3005
C17 C 0.4863(3) 0.64130(17) 0.21077(7)
C18 C 0.2383(3) 0.62348(18) 0.15934(7)
H25 H 0.2911 0.6642 0.1373
C19 C 0.1367(3) 0.53284(19) 0.14079(7)
H26 H 0.2098 0.4843 0.126
H27 H 0.0878 0.4907 0.1627
C20 C 0.0025(3) 0.56820(19) 0.11257(7)
H28 H -0.0588 0.504 0.1041
H29 H -0.0724 0.6157 0.1273
C21 C 0.0617(3) 0.62693(18) 0.07582(7)
O1 O -0.01325(19) 0.71048(13) 0.06578(5)
O2 O 0.17957(19) 0.58872(13) 0.05707(5)
C22 C 0.1313(3) 0.7010(2) 0.18253(8)
H30 H 0.0445 0.7268 0.1652
H31 H 0.1957 0.7622 0.1917
H32 H 0.085 0.664 0.2056
C23 C 0.9187(3) 0.76931(19) 0.29625(8)
H33 H 0.9597 0.7461 0.2703
H34 H 1.0092 0.7866 0.3138
H35 H 0.851 0.8331 0.2928
C24 C 0.5600(3) 0.73139(19) 0.18535(7)
H36 H 0.5964 0.7018 0.1599
H37 H 0.6518 0.7629 0.1995
H38 H 0.4788 0.7869 0.1805
O3 O 0.70074(19) 0.45826(12) 0.40955(5)
C25 C 0.6096(3) 0.48272(18) 0.44352(7)
H39 H 0.6517 0.5501 0.4559
C26 C 0.6260(3) 0.39065(18) 0.47276(7)
H40 H 0.5561 0.4051 0.4964
C27 C 0.5705(3) 0.28689(18) 0.45282(7)
H41 H 0.6357 0.2742 0.4282
C28 C 0.3949(3) 0.30308(17) 0.44141(7)
H42 H 0.3287 0.3118 0.4661
C29 C 0.3769(3) 0.40309(18) 0.41523(7)
H43 H 0.4334 0.3903 0.3894
O4 O 0.44446(18) 0.49645(13) 0.43384(5)
O5 O 0.78769(18) 0.38071(13) 0.48566(5)
H44 H 0.8023 0.4194 0.5058
O6 O 0.58729(18) 0.19728(12) 0.47900(5)
H45 H 0.6685 0.1613 0.4724
O7 O 0.33769(19) 0.21276(13) 0.41928(5)
H46 H 0.2391 0.204 0.4237
C30 C 0.2023(3) 0.4295(2) 0.40690(7)
H47 H 0.1968 0.4958 0.3907
H48 H 0.1537 0.3705 0.3912
O8 O 0.11176(19) 0.44461(13) 0.44245(5)
H49 H 0.1447 0.4998 0.4543
Li1 Li 0.0098(5) 0.8287(3) 0.03130(12)
O5B O 0.21231(18) 0.88071(13) 0.01434(5)
O6A O -0.08729(18) 0.80272(12) -0.02100(5)
O8B O -0.11176(19) 0.94461(13) 0.05755(5)
Li1A Li 0.4902(5) 0.1713(3) 0.53130(12)
Li1B Li -0.0098(5) 0.3287(3) 0.46870(12)
Li1B_2 Li 0.9902(5) 0.3287(3) 0.46870(12)
O9 O 0.8382(2) 0.49395(15) 0.55294(6)
H50 H 0.932(3) 0.528(2) 0.5529(9)
H51 H 0.866(4) 0.4324(19) 0.5643(8)
O10 O 1.1320(3) 0.59684(16) 0.55532(7)
H52 H 1.139(4) 0.605(3) 0.5271(7)
H53 H 1.200(4) 0.541(2) 0.5564(10)
O11 O 0.1408(3) 0.65500(16) 0.47216(7)
C31 C 0.1328(3) 0.7381(2) 0.45290(9)
C32 C 0.2212(4) 0.7495(2) 0.41490(9)
H54 H 0.1443 0.7591 0.3931
H55 H 0.2854 0.6847 0.4101
H56 H 0.2925 0.812 0.4163
C33 C 0.0335(4) 0.8298(2) 0.46684(11)
H57 H -0.0574 0.8402 0.4487
H58 H 0.0994 0.8951 0.4674
H59 H -0.007 0.8147 0.4937
loop_
_geom_bond_atom_site_label_1
_geom_bond_atom_site_label_2
_geom_bond_site_symmetry_1
_geom_bond_site_symmetry_2
C1 H1 1_555 1_555
C2 C1 1_555 1_555
H2 C2 1_555 1_555
H3 C2 1_555 1_555
C3 C2 1_555 1_555
H4 C3 1_555 1_555
H5 C3 1_555 1_555
C4 C3 1_555 1_555
H6 C4 1_555 1_555
C5 C4 1_555 1_555
H7 C5 1_555 1_555
C6 C5 1_555 1_555
H8 C6 1_555 1_555
H9 C6 1_555 1_555
C7 C6 1_555 1_555
H10 C7 1_555 1_555
H11 C7 1_555 1_555
C8 C7 1_555 1_555
H12 C8 1_555 1_555
C9 C8 1_555 1_555
H13 C9 1_555 1_555
H14 C9 1_555 1_555
C10 C9 1_555 1_555
H15 C10 1_555 1_555
C11 C10 1_555 1_555
H16 C11 1_555 1_555
H17 C11 1_555 1_555
C12 C11 1_555 1_555
H18 C12 1_555 1_555
H19 C12 1_555 1_555
C13 C8 1_555 1_555
C14 H20 1_555 1_555
H21 C14 1_555 1_555
C15 C14 1_555 1_555
H22 C15 1_555 1_555
H23 C15 1_555 1_555
C16 C5 1_555 1_555
H24 C16 1_555 1_555
C17 C1 1_555 1_555
C18 C1 1_555 1_555
H25 C18 1_555 1_555
C19 C18 1_555 1_555
H26 C19 1_555 1_555
H27 C19 1_555 1_555
C20 C19 1_555 1_555
H28 C20 1_555 1_555
H29 C20 1_555 1_555
C21 C20 1_555 1_555
O1 C21 1_555 1_555
O2 C21 1_555 1_555
C22 C18 1_555 1_555
H30 C22 1_555 1_555
H31 C22 1_555 1_555
H32 C22 1_555 1_555
C23 C13 1_555 1_555
H33 C23 1_555 1_555
H34 C23 1_555 1_555
H35 C23 1_555 1_555
C24 C17 1_555 1_555
H36 C24 1_555 1_555
H37 C24 1_555 1_555
H38 C24 1_555 1_555
O3 C10 1_555 1_555
C25 O3 1_555 1_555
H39 C25 1_555 1_555
C26 C25 1_555 1_555
H40 C26 1_555 1_555
C27 C26 1_555 1_555
H41 C27 1_555 1_555
C28 C27 1_555 1_555
H42 C28 1_555 1_555
C29 C28 1_555 1_555
H43 C29 1_555 1_555
O4 C25 1_555 1_555
O5 C26 1_555 1_555
H44 O5 1_555 1_555
O6 C27 1_555 1_555
H45 O6 1_555 1_555
O7 C28 1_555 1_555
H46 O7 1_555 1_555
C30 C29 1_555 1_555
H47 C30 1_555 1_555
H48 C30 1_555 1_555
O8 C30 1_555 1_555
H49 O8 1_555 1_555
Li1 O1 1_555 1_555
O9 H50 1_555 1_555
H51 O9 1_555 1_555
O10 H52 1_555 1_555
H53 O10 1_555 1_555
O11 C31 1_555 1_555
C31 C32 1_555 1_555
C32 H54 1_555 1_555
H55 C32 1_555 1_555
H56 C32 1_555 1_555
C33 C31 1_555 1_555
H57 C33 1_555 1_555
H58 C33 1_555 1_555
H59 C33 1_555 1_555
O5B Li1 1_555 1_555
O6A Li1 1_555 1_555
O8B Li1 1_555 1_555
Li1A O6 1_555 1_555
Li1B O8 1_555 1_555
Li1B_2 O5 1_555 1_555
C4 C17 1_555 1_555
C12 C13 1_555 1_555
C13 C16 1_555 1_555
C14 C17 1_555 1_555
C15 C16 1_555 1_555
C29 O4 1_555 1_555

#END
