
#######################################################################
#
#                 Cambridge Crystallographic Data Centre
#                                CCDC 
#
#######################################################################
#
# If this CIF has been generated from an entry in the Cambridge 
# Structural Database, then it will include bibliographic, chemical, 
# crystal, experimental, refinement or atomic coordinate data resulting 
# from the CCDC's data processing and validation procedures.
#
#######################################################################

data_OPOCEC
_chemical_formula_moiety         '(C100 H116 Mn8 O38)n'
_symmetry_cell_setting           monoclinic
_symmetry_space_group_name_H-M   'C 2/c'
_symmetry_Int_Tables_number      15
_space_group_name_Hall           '-C 2yc'
loop_
_symmetry_equiv_pos_site_id
_symmetry_equiv_pos_as_xyz
1 x,y,z
2 -x,y,1/2-z
3 1/2+x,1/2+y,z
4 1/2-x,1/2+y,1/2-z
5 -x,-y,-z
6 x,-y,1/2+z
7 1/2-x,1/2-y,-z
8 1/2+x,1/2-y,1/2+z
_cell_length_a                   11.6608(6)
_cell_length_b                   39.3981(19)
_cell_length_c                   24.4617(12)
_cell_angle_alpha                90
_cell_angle_beta                 101.297(3)
_cell_angle_gamma                90
_cell_volume                     11020.3
loop_
_atom_site_label
_atom_site_type_symbol
_atom_site_fract_x
_atom_site_fract_y
_atom_site_fract_z
Mn1 Mn 0.5000 0.209126(16) 0.2500
Mn2 Mn 0.69405(4) 0.380320(11) 0.619510(18)
Mn3 Mn 0.88221(5) 0.041689(12) 0.367143(19)
Mn4 Mn 1.0000 0.031295(17) 0.2500
Mn5 Mn 0.72126(5) 0.198828(12) 0.37166(2)
O1 O 0.6033(3) 0.23530(8) 0.38061(13)
O2 O 0.4728(3) 0.24986(6) 0.30544(10)
O3 O 0.6949(3) 0.30458(7) 0.54476(12)
O4 O 0.6061(3) 0.35382(8) 0.54961(11)
O5 O 0.5730(3) 0.46191(8) 0.54371(11)
O6 O 0.7097(3) 0.42376(7) 0.56804(11)
O7 O 0.4852(3) 0.50269(7) 0.34502(13)
O8 O 0.6120(3) 0.49065(7) 0.29322(10)
O9 O 0.7251(2) 0.08861(7) 0.31203(10)
O10 O 0.8122(2) 0.04608(6) 0.27750(10)
O11 O 0.4891(3) 0.17008(6) 0.18741(11)
O12 O 0.3602(2) 0.14776(6) 0.11880(10)
O13 O 1.0328(2) 0.09313(6) 0.13117(10)
O14 O 0.9403(2) 0.07162(6) 0.19403(11)
O15 O 0.6978(2) 0.20151(6) 0.27462(10)
O16 O 0.8164(2) 0.16264(6) 0.31899(10)
O17 O 0.8464(5) 0.24019(12) 0.3639(2)
H1 H 0.8725 0.2414 0.3304
O18 O 0.7401(4) 0.00511(11) 0.36331(17)
H2 H 0.6992 0.0006 0.3275
C1 C 0.5292(3) 0.25542(8) 0.35356(14)
C2 C 0.6260(3) 0.32756(9) 0.52427(13)
C3 C 0.6433(4) 0.44136(9) 0.53116(14)
C4 C 0.5704(3) 0.48577(8) 0.33633(13)
C5 C 0.7402(3) 0.07051(8) 0.27158(13)
C6 C 0.4553(3) 0.14625(8) 0.15482(13)
C7 C 0.9613(3) 0.09543(8) 0.16444(12)
C8 C 0.7685(3) 0.17714(8) 0.27402(13)
C9 C 0.5105(3) 0.28764(8) 0.38368(13)
C10 C 0.4332(3) 0.31254(9) 0.35849(14)
H3 H 0.3907 0.3090 0.3226
C11 C 0.4184(4) 0.34283(10) 0.38620(15)
C12 C 0.4826(3) 0.34712(9) 0.43977(15)
H4 H 0.4741 0.3671 0.4588
C13 C 0.5591(3) 0.32244(8) 0.46569(13)
C14 C 0.5730(3) 0.29266(8) 0.43752(13)
H5 H 0.6242 0.2760 0.4547
C15 C 0.3339(5) 0.37021(12) 0.3569(2)
C16 C 0.3043(11) 0.3959(3) 0.3977(3)
H6 H 0.2652 0.3847 0.4238
H7 H 0.3749 0.4062 0.4174
H8 H 0.2540 0.4130 0.3779
C17 C 0.3968(8) 0.3883(2) 0.3141(4)
H9 H 0.3469 0.4057 0.2949
H10 H 0.4684 0.3983 0.3334
H11 H 0.4136 0.3720 0.2876
C18 C 0.2223(6) 0.3550(2) 0.3243(4)
H12 H 0.1810 0.3438 0.3494
H13 H 0.1742 0.3726 0.3048
H14 H 0.2409 0.3388 0.2980
C19 C 0.6581(3) 0.43804(8) 0.47152(13)
C20 C 0.7276(3) 0.41240(9) 0.45603(14)
H15 H 0.7625 0.3968 0.4826
C21 C 0.7459(3) 0.40966(8) 0.40170(15)
C22 C 0.6931(3) 0.43400(9) 0.36338(14)
H16 H 0.7048 0.4330 0.3269
C23 C 0.6235(3) 0.45960(8) 0.37834(13)
C24 C 0.6036(3) 0.46134(8) 0.43232(13)
H17 H 0.5544 0.4779 0.4421
C25 C 0.8191(4) 0.38126(11) 0.38317(19)
C26 C 0.9097(7) 0.39616(18) 0.3541(4)
H18 H 0.8718 0.4093 0.3227
H19 H 0.9539 0.3782 0.3416
H20 H 0.9613 0.4105 0.3796
C27 C 0.7368(6) 0.35753(15) 0.3442(3)
H21 H 0.6970 0.3701 0.3125
H22 H 0.6805 0.3481 0.3637
H23 H 0.7813 0.3396 0.3319
C28 C 0.8824(6) 0.36014(14) 0.4330(3)
H24 H 0.9351 0.3745 0.4580
H25 H 0.9257 0.3422 0.4199
H26 H 0.8259 0.3506 0.4524
C29 C 0.6689(3) 0.07849(8) 0.21540(12)
C30 C 0.6766(3) 0.05923(8) 0.16823(14)
H27 H 0.7252 0.0403 0.1719
C31 C 0.6127(3) 0.06797(9) 0.11572(14)
C32 C 0.5369(3) 0.09551(8) 0.11198(14)
H28 H 0.4897 0.1008 0.0778
C33 C 0.5302(3) 0.11546(8) 0.15849(13)
C34 C 0.5982(3) 0.10718(8) 0.21002(13)
H29 H 0.5964 0.1208 0.2409
C35 C 0.6344(4) 0.04838(11) 0.06416(16)
C36 C 0.6132(6) 0.01051(13) 0.0714(2)
H30 H 0.6268 -0.0016 0.0392
H31 H 0.5339 0.0070 0.0756
H32 H 0.6657 0.0023 0.1040
C37 C 0.5551(6) 0.06052(17) 0.0111(2)
H33 H 0.5683 0.0843 0.0059
H34 H 0.4750 0.0570 0.0138
H35 H 0.5719 0.0480 -0.0201
C38 C 0.7616(5) 0.05281(17) 0.0594(2)
H36 H 0.7772 0.0764 0.0545
H37 H 0.7764 0.0402 0.0280
H38 H 0.8114 0.0447 0.0928
C39 C 0.8958(3) 0.12792(8) 0.16718(13)
C40 C 0.8609(3) 0.14794(9) 0.11992(14)
H39 H 0.8849 0.1422 0.0870
C41 C 0.7903(4) 0.17648(9) 0.12118(15)
C42 C 0.7605(3) 0.18544(9) 0.17181(15)
H40 H 0.7138 0.2044 0.1734
C43 C 0.7997(3) 0.16645(8) 0.22028(13)
C44 C 0.8641(3) 0.13718(8) 0.21741(13)
H41 H 0.8863 0.1237 0.2489
C45 C 0.7431(6) 0.19689(14) 0.06777(19)
C46 C 0.754(3) 0.2355(3) 0.0831(8)
H42 H 0.6873 0.2424 0.0980
H43 H 0.7569 0.2485 0.0502
H44 H 0.8240 0.2392 0.1104
C48 C 0.6084(15) 0.1902(7) 0.0532(6)
H48 H 0.5856 0.1771 0.0823
H49 H 0.5895 0.1780 0.0186
H50 H 0.5675 0.2115 0.0495
C50 C 0.800(4) 0.1899(8) 0.0221(9)
H54 H 0.7557 0.1731 -0.0017
H55 H 0.8772 0.1815 0.0360
H56 H 0.8040 0.2103 0.0012
C51 C 0.8905(12) 0.2648(3) 0.4045(6)
H57 H 0.9429 0.2797 0.3903
H58 H 0.9317 0.2537 0.4375
H59 H 0.8268 0.2777 0.4134
C52 C 0.7041(15) -0.0108(4) 0.4010(6)
H60 H 0.6388 -0.0248 0.3847
H61 H 0.6801 0.0050 0.4265
H62 H 0.7657 -0.0249 0.4207
Mn2A Mn 0.30595(4) 0.380320(11) -0.119510(18)
Mn2F Mn 0.80595(4) 0.119680(11) 0.380490(18)
Mn2G Mn 0.19405(4) 0.119680(11) 0.119510(18)
Mn2G_2 Mn 1.19405(4) 0.119680(11) 0.119510(18)
Mn2F_2 Mn -0.19405(4) 0.119680(11) 0.380490(18)
Mn3A Mn 0.11779(5) 0.041689(12) 0.132857(19)
Mn3F Mn 0.61779(5) 0.458311(12) 0.632857(19)
Mn3B Mn 0.38221(5) 0.541689(12) 0.367143(19)
Mn3A_2 Mn 1.11779(5) 0.041689(12) 0.132857(19)
Mn3_2 Mn -0.11779(5) 0.041689(12) 0.367143(19)
Mn3D Mn 1.11779(5) -0.041689(12) 0.632857(19)
Mn4B Mn 0.5000 0.531295(17) 0.2500
Mn4_2 Mn -0.0000 0.031295(17) 0.2500
Mn4D Mn 1.0000 -0.031295(17) 0.7500
Mn5A Mn 0.27874(5) 0.198828(12) 0.12834(2)
Mn5F Mn 0.77874(5) 0.301172(12) 0.62834(2)
Mn5G Mn 0.22126(5) 0.301172(12) -0.12834(2)
O1A O 0.3967(3) 0.23530(8) 0.11939(13)
O2A O 0.5272(3) 0.24986(6) 0.19456(10)
O3A O 0.3051(3) 0.30458(7) -0.04476(12)
O3F O 0.8051(3) 0.19542(7) 0.45524(12)
O3G O 0.1949(3) 0.19542(7) 0.04476(12)
O4A O 0.3939(3) 0.35382(8) -0.04961(11)
O5F O 0.9270(3) 0.03809(8) 0.45629(11)
O5G O 0.0730(3) 0.03809(8) 0.04371(11)
O6F O 0.7903(3) 0.07624(7) 0.43196(11)
O6A O 0.2903(3) 0.42376(7) -0.06804(11)
O6G O 0.2097(3) 0.07624(7) 0.06804(11)
O7F O 1.0148(3) -0.00269(7) 0.65498(13)
O7B O 0.9852(3) 0.00269(7) 0.34502(13)
O7C O 0.0148(3) 0.00269(7) 0.15498(13)
O8F O 0.8880(3) 0.00935(7) 0.70678(10)
O8B O 1.1120(3) -0.00935(7) 0.29322(10)
O8C O 0.8880(3) -0.00935(7) 0.20678(10)
O9A O 0.2749(2) 0.08861(7) 0.18797(10)
O9F O 0.7749(2) 0.41139(7) 0.68797(10)
O9G O 0.2251(2) 0.41139(7) -0.18797(10)
O10A O 0.1878(2) 0.04608(6) 0.22250(10)
O10A_2 O 1.1878(2) 0.04608(6) 0.22250(10)
O11A O 0.5109(3) 0.17008(6) 0.31259(11)
O12A O 0.6398(2) 0.14776(6) 0.38120(10)
O12G O 0.8602(2) 0.35224(6) 0.61880(10)
O12F O 0.1398(2) 0.35224(6) -0.11880(10)
O13A O -0.0328(2) 0.09313(6) 0.36883(10)
O13G O 0.5328(2) 0.40687(6) 0.63117(10)
O13A_2 O 0.9672(2) 0.09313(6) 0.36883(10)
O13F O 0.4672(2) 0.40687(6) -0.13117(10)
O13_2 O 0.0328(2) 0.09313(6) 0.13117(10)
O14A O 0.0597(2) 0.07162(6) 0.30597(11)
O14A_2 O 1.0597(2) 0.07162(6) 0.30597(11)
O15A O 0.3022(2) 0.20151(6) 0.22538(10)
O16A O 0.1836(2) 0.16264(6) 0.18101(10)
O16F O 0.6836(2) 0.33736(6) 0.68101(10)
O16G O 0.3164(2) 0.33736(6) -0.18101(10)
O17A O 0.1536(5) 0.24019(12) 0.1361(2)
H1A H 0.1275 0.2414 0.1696
O18A O 0.2599(4) 0.00511(11) 0.13669(17)
H2A H 0.3008 0.0006 0.1725
C1A C 0.4708(3) 0.25542(8) 0.14644(14)
C2A C 0.3740(3) 0.32756(9) -0.02427(13)
C3F C 0.8567(4) 0.05864(9) 0.46884(14)
C4F C 0.9296(3) 0.01423(8) 0.66367(13)
C5A C 0.2598(3) 0.07051(8) 0.22842(13)
C6A C 0.5447(3) 0.14625(8) 0.34518(13)
C7A C 0.0387(3) 0.09543(8) 0.33556(12)
C8A C 0.2315(3) 0.17714(8) 0.22598(13)
C9A C 0.4895(3) 0.28764(8) 0.11632(13)
C10A C 0.5668(3) 0.31254(9) 0.14151(14)
H3A H 0.6093 0.3090 0.1774
C11A C 0.5816(4) 0.34283(10) 0.11380(15)
C12A C 0.5174(3) 0.34712(9) 0.06023(15)
H4A H 0.5259 0.3671 0.0412
C13A C 0.4409(3) 0.32244(8) 0.03431(13)
C14A C 0.4270(3) 0.29266(8) 0.06248(13)
H5A H 0.3758 0.2760 0.0453
C15A C 0.6661(5) 0.37021(12) 0.1431(2)
C16A C 0.6957(11) 0.3959(3) 0.1023(3)
H6A H 0.7348 0.3847 0.0762
H7A H 0.6251 0.4062 0.0826
H8A H 0.7460 0.4130 0.1221
C17A C 0.6032(8) 0.3883(2) 0.1859(4)
H9A H 0.6531 0.4057 0.2051
H10A H 0.5316 0.3983 0.1666
H11A H 0.5864 0.3720 0.2124
C18A C 0.7777(6) 0.3550(2) 0.1757(4)
H12A H 0.8190 0.3438 0.1506
H13A H 0.8258 0.3726 0.1952
H14A H 0.7591 0.3388 0.2020
C19F C 0.8419(3) 0.06196(8) 0.52848(13)
C20F C 0.7724(3) 0.08760(9) 0.54397(14)
H15F H 0.7375 0.1032 0.5174
C21F C 0.7541(3) 0.09034(8) 0.59830(15)
C22F C 0.8069(3) 0.06600(9) 0.63662(14)
H16F H 0.7952 0.0670 0.6731
C23F C 0.8765(3) 0.04040(8) 0.62166(13)
C24F C 0.8964(3) 0.03866(8) 0.56768(13)
H17F H 0.9456 0.0221 0.5579
C25F C 0.6809(4) 0.11874(11) 0.61683(19)
C26F C 0.5903(7) 0.10384(18) 0.6459(4)
H18F H 0.6282 0.0907 0.6773
H19F H 0.5461 0.1218 0.6584
H20F H 0.5387 0.0895 0.6204
C27F C 0.7632(6) 0.14247(15) 0.6558(3)
H21F H 0.8030 0.1299 0.6875
H22F H 0.8195 0.1519 0.6363
H23F H 0.7187 0.1604 0.6681
C28F C 0.6176(6) 0.13986(14) 0.5670(3)
H24F H 0.5649 0.1255 0.5420
H25F H 0.5743 0.1578 0.5801
H26F H 0.6741 0.1494 0.5476
C29A C 0.3311(3) 0.07849(8) 0.28460(12)
C30A C 0.3234(3) 0.05923(8) 0.33177(14)
H27A H 0.2748 0.0403 0.3281
C31A C 0.3873(3) 0.06797(9) 0.38428(14)
C32A C 0.4631(3) 0.09551(8) 0.38802(14)
H28A H 0.5103 0.1008 0.4222
C33A C 0.4698(3) 0.11546(8) 0.34151(13)
C34A C 0.4018(3) 0.10718(8) 0.28998(13)
H29A H 0.4036 0.1208 0.2591
C35A C 0.3656(4) 0.04838(11) 0.43584(16)
C36A C 0.3868(6) 0.01051(13) 0.4286(2)
H30A H 0.3732 -0.0016 0.4608
H31A H 0.4661 0.0070 0.4244
H32A H 0.3343 0.0023 0.3960
C37A C 0.4449(6) 0.06052(17) 0.4889(2)
H33A H 0.4317 0.0843 0.4941
H34A H 0.5250 0.0570 0.4862
H35A H 0.4281 0.0480 0.5201
C38A C 0.2384(5) 0.05281(17) 0.4406(2)
H36A H 0.2228 0.0764 0.4455
H37A H 0.2236 0.0402 0.4720
H38A H 0.1886 0.0447 0.4072
C39A C 0.1042(3) 0.12792(8) 0.33282(13)
C40A C 0.1391(3) 0.14794(9) 0.38008(14)
H39A H 0.1151 0.1422 0.4130
C41A C 0.2097(4) 0.17648(9) 0.37882(15)
C42A C 0.2395(3) 0.18544(9) 0.32819(15)
H40A H 0.2862 0.2044 0.3266
C43A C 0.2003(3) 0.16645(8) 0.27972(13)
C44A C 0.1359(3) 0.13718(8) 0.28259(13)
H41A H 0.1137 0.1237 0.2511
C45A C 0.2569(6) 0.19689(14) 0.43223(19)
C46A C 0.246(3) 0.2355(3) 0.4169(8)
H42A H 0.3127 0.2424 0.4020
H43A H 0.2431 0.2485 0.4498
H44A H 0.1760 0.2392 0.3896
C48A C 0.3916(15) 0.1902(7) 0.4468(6)
H48A H 0.4144 0.1771 0.4177
H49A H 0.4105 0.1780 0.4814
H50A H 0.4325 0.2115 0.4505
C50A C 0.200(4) 0.1899(8) 0.4779(9)
H54A H 0.2443 0.1731 0.5017
H55A H 0.1228 0.1815 0.4640
H56A H 0.1960 0.2103 0.4988
C51A C 0.1095(12) 0.2648(3) 0.0955(6)
H57A H 0.0571 0.2797 0.1097
H58A H 0.0683 0.2537 0.0625
H59A H 0.1732 0.2777 0.0866
C52A C 0.2959(15) -0.0108(4) 0.0990(6)
H60A H 0.3612 -0.0248 0.1153
H61A H 0.3199 0.0050 0.0735
H62A H 0.2343 -0.0249 0.0793
O19 O 0.2526(15) 0.2774(3) 0.2367(5)
O20 O 0.7067(6) -0.02938(15) 0.2623(3)
loop_
_geom_bond_atom_site_label_1
_geom_bond_atom_site_label_2
_geom_bond_site_symmetry_1
_geom_bond_site_symmetry_2
Mn1 O2 1_555 1_555
Mn2 O4 1_555 1_555
Mn3 O10 1_555 1_555
Mn4 O10 1_555 1_555
Mn5 O1 1_555 1_555
O1 C1 1_555 1_555
O2 C1 1_555 1_555
O3 C2 1_555 1_555
O4 C2 1_555 1_555
O5 C3 1_555 1_555
O6 Mn2 1_555 1_555
O7 C4 1_555 1_555
O8 C4 1_555 1_555
O9 C5 1_555 1_555
O10 C5 1_555 1_555
O11 Mn1 1_555 1_555
O12 C6 1_555 1_555
O13 C7 1_555 1_555
O14 Mn4 1_555 1_555
O15 Mn1 1_555 1_555
O16 Mn5 1_555 1_555
O17 Mn5 1_555 1_555
H1 O17 1_555 1_555
O18 Mn3 1_555 1_555
H2 O18 1_555 1_555
C1 C9 1_555 1_555
C2 C13 1_555 1_555
C3 O6 1_555 1_555
C4 C23 1_555 1_555
C5 C29 1_555 1_555
C6 O11 1_555 1_555
C7 O14 1_555 1_555
C8 O15 1_555 1_555
C9 C10 1_555 1_555
C10 H3 1_555 1_555
C11 C10 1_555 1_555
C12 C11 1_555 1_555
H4 C12 1_555 1_555
C13 C12 1_555 1_555
C14 C9 1_555 1_555
H5 C14 1_555 1_555
C15 C11 1_555 1_555
C16 C15 1_555 1_555
H6 C16 1_555 1_555
H7 C16 1_555 1_555
H8 C16 1_555 1_555
C17 C15 1_555 1_555
H9 C17 1_555 1_555
H10 C17 1_555 1_555
H11 C17 1_555 1_555
C18 C15 1_555 1_555
H12 C18 1_555 1_555
H13 C18 1_555 1_555
H14 C18 1_555 1_555
C19 C3 1_555 1_555
C20 C19 1_555 1_555
H15 C20 1_555 1_555
C21 C20 1_555 1_555
C22 C21 1_555 1_555
H16 C22 1_555 1_555
C23 C22 1_555 1_555
C24 C19 1_555 1_555
H17 C24 1_555 1_555
C25 C21 1_555 1_555
C26 C25 1_555 1_555
H18 C26 1_555 1_555
H19 C26 1_555 1_555
H20 C26 1_555 1_555
C27 C25 1_555 1_555
H21 C27 1_555 1_555
H22 C27 1_555 1_555
H23 C27 1_555 1_555
C28 C25 1_555 1_555
H24 C28 1_555 1_555
H25 C28 1_555 1_555
H26 C28 1_555 1_555
C29 C30 1_555 1_555
C30 H27 1_555 1_555
C31 C30 1_555 1_555
C32 C31 1_555 1_555
H28 C32 1_555 1_555
C33 C6 1_555 1_555
C34 C29 1_555 1_555
H29 C34 1_555 1_555
C35 C31 1_555 1_555
C36 C35 1_555 1_555
H30 C36 1_555 1_555
H31 C36 1_555 1_555
H32 C36 1_555 1_555
C37 C35 1_555 1_555
H33 C37 1_555 1_555
H34 C37 1_555 1_555
H35 C37 1_555 1_555
C38 C35 1_555 1_555
H36 C38 1_555 1_555
H37 C38 1_555 1_555
H38 C38 1_555 1_555
C39 C7 1_555 1_555
C40 C39 1_555 1_555
H39 C40 1_555 1_555
C41 C40 1_555 1_555
C42 C41 1_555 1_555
H40 C42 1_555 1_555
C43 C8 1_555 1_555
C44 C39 1_555 1_555
H41 C44 1_555 1_555
C45 C41 1_555 1_555
C46 C45 1_555 1_555
H42 C46 1_555 1_555
H43 C46 1_555 1_555
H44 C46 1_555 1_555
C48 C45 1_555 1_555
H48 C48 1_555 1_555
H49 C48 1_555 1_555
H50 C48 1_555 1_555
C50 C45 1_555 1_555
H54 C50 1_555 1_555
H55 C50 1_555 1_555
H56 C50 1_555 1_555
C51 O17 1_555 1_555
H57 C51 1_555 1_555
H58 C51 1_555 1_555
H59 C51 1_555 1_555
C52 O18 1_555 1_555
H60 C52 1_555 1_555
H61 C52 1_555 1_555
H62 C52 1_555 1_555
Mn2A O4A 1_555 1_555
Mn2F O9 1_555 1_555
Mn2G O12 1_555 1_555
Mn2G_2 O13 1_555 1_555
Mn2F_2 O13A 1_555 1_555
Mn3A O5G 1_555 1_555
Mn3F O5 1_555 1_555
Mn3B O7 1_555 1_555
Mn3A_2 O13 1_555 1_555
Mn3_2 O13A 1_555 1_555
Mn3D O7F 1_555 1_555
Mn4B O8 1_555 1_555
Mn4_2 O10A 1_555 1_555
Mn4D O8F 1_555 1_555
Mn5A O12 1_555 1_555
Mn5F O3 1_555 1_555
Mn5G O3A 1_555 1_555
O1A Mn5A 1_555 1_555
O2A Mn1 1_555 1_555
O3A C2A 1_555 1_555
O3F Mn5 1_555 1_555
O3G Mn5A 1_555 1_555
O4A C2A 1_555 1_555
O5F Mn3 1_555 1_555
O6F Mn3 1_555 1_555
O6A Mn2A 1_555 1_555
O6G Mn2G 1_555 1_555
O7F C4F 1_555 1_555
O7B Mn3 1_555 1_555
O7C Mn3A 1_555 1_555
O8F C4F 1_555 1_555
O8B Mn4 1_555 1_555
O8C Mn4 1_555 1_555
O9A Mn2G 1_555 1_555
O9F Mn2 1_555 1_555
O9G Mn2A 1_555 1_555
O10A Mn3A 1_555 1_555
O10A_2 Mn4 1_555 1_555
O11A Mn1 1_555 1_555
O12A Mn5 1_555 1_555
O12G Mn2 1_555 1_555
O12F Mn2A 1_555 1_555
O13A C7A 1_555 1_555
O13G Mn2 1_555 1_555
O13A_2 Mn3 1_555 1_555
O13F Mn2A 1_555 1_555
O13_2 Mn2G 1_555 1_555
O14A Mn4_2 1_555 1_555
O14A_2 Mn4 1_555 1_555
O15A Mn1 1_555 1_555
O16A Mn2G 1_555 1_555
O16F Mn2 1_555 1_555
O16G Mn2A 1_555 1_555
O17A Mn5A 1_555 1_555
H1A O17A 1_555 1_555
O18A Mn3A 1_555 1_555
H2A O18A 1_555 1_555
C1A O1A 1_555 1_555
C2A C13A 1_555 1_555
C3F O5F 1_555 1_555
C4F C23F 1_555 1_555
C5A O9A 1_555 1_555
C6A O11A 1_555 1_555
C7A O14A 1_555 1_555
C8A O15A 1_555 1_555
C9A C1A 1_555 1_555
C10A C9A 1_555 1_555
H3A C10A 1_555 1_555
C11A C10A 1_555 1_555
C12A C11A 1_555 1_555
H4A C12A 1_555 1_555
C13A C12A 1_555 1_555
C14A C9A 1_555 1_555
H5A C14A 1_555 1_555
C15A C11A 1_555 1_555
C16A C15A 1_555 1_555
H6A C16A 1_555 1_555
H7A C16A 1_555 1_555
H8A C16A 1_555 1_555
C17A C15A 1_555 1_555
H9A C17A 1_555 1_555
H10A C17A 1_555 1_555
H11A C17A 1_555 1_555
C18A C15A 1_555 1_555
H12A C18A 1_555 1_555
H13A C18A 1_555 1_555
H14A C18A 1_555 1_555
C19F C3F 1_555 1_555
C20F C19F 1_555 1_555
H15F C20F 1_555 1_555
C21F C20F 1_555 1_555
C22F C21F 1_555 1_555
H16F C22F 1_555 1_555
C23F C22F 1_555 1_555
C24F C19F 1_555 1_555
H17F C24F 1_555 1_555
C25F C21F 1_555 1_555
C26F C25F 1_555 1_555
H18F C26F 1_555 1_555
H19F C26F 1_555 1_555
H20F C26F 1_555 1_555
C27F C25F 1_555 1_555
H21F C27F 1_555 1_555
H22F C27F 1_555 1_555
H23F C27F 1_555 1_555
C28F C25F 1_555 1_555
H24F C28F 1_555 1_555
H25F C28F 1_555 1_555
H26F C28F 1_555 1_555
C29A C5A 1_555 1_555
C30A C29A 1_555 1_555
H27A C30A 1_555 1_555
C31A C30A 1_555 1_555
C32A C31A 1_555 1_555
H28A C32A 1_555 1_555
C33A C6A 1_555 1_555
C34A C29A 1_555 1_555
H29A C34A 1_555 1_555
C35A C31A 1_555 1_555
C36A C35A 1_555 1_555
H30A C36A 1_555 1_555
H31A C36A 1_555 1_555
H32A C36A 1_555 1_555
C37A C35A 1_555 1_555
H33A C37A 1_555 1_555
H34A C37A 1_555 1_555
H35A C37A 1_555 1_555
C38A C35A 1_555 1_555
H36A C38A 1_555 1_555
H37A C38A 1_555 1_555
H38A C38A 1_555 1_555
C39A C7A 1_555 1_555
C40A C39A 1_555 1_555
H39A C40A 1_555 1_555
C41A C40A 1_555 1_555
C42A C41A 1_555 1_555
H40A C42A 1_555 1_555
C43A C8A 1_555 1_555
C44A C39A 1_555 1_555
H41A C44A 1_555 1_555
C45A C41A 1_555 1_555
C46A C45A 1_555 1_555
H42A C46A 1_555 1_555
H43A C46A 1_555 1_555
H44A C46A 1_555 1_555
C48A C45A 1_555 1_555
H48A C48A 1_555 1_555
H49A C48A 1_555 1_555
H50A C48A 1_555 1_555
C50A C45A 1_555 1_555
H54A C50A 1_555 1_555
H55A C50A 1_555 1_555
H56A C50A 1_555 1_555
C51A O17A 1_555 1_555
H57A C51A 1_555 1_555
H58A C51A 1_555 1_555
H59A C51A 1_555 1_555
C52A O18A 1_555 1_555
H60A C52A 1_555 1_555
H61A C52A 1_555 1_555
H62A C52A 1_555 1_555
Mn5 O15 1_555 1_555
O6 Mn3F 1_555 1_555
O16 C8 1_555 1_555
O16 Mn2F 1_555 1_555
C13 C14 1_555 1_555
C23 C24 1_555 1_555
C32 C33 1_555 1_555
C33 C34 1_555 1_555
C42 C43 1_555 1_555
C43 C44 1_555 1_555
Mn2F O6F 1_555 1_555
Mn2F O12A 1_555 1_555
Mn2F O13A_2 1_555 1_555
Mn3A O6G 1_555 1_555
Mn3A O13_2 1_555 1_555
Mn3F O13G 1_555 1_555
Mn3A_2 O10A_2 1_555 1_555
Mn5A O15A 1_555 1_555
Mn5A O16A 1_555 1_555
Mn5F O12G 1_555 1_555
Mn5F O16F 1_555 1_555
Mn5G O12F 1_555 1_555
Mn5G O16G 1_555 1_555
O2A C1A 1_555 1_555
O6F C3F 1_555 1_555
O10A C5A 1_555 1_555
O12A C6A 1_555 1_555
O16A C8A 1_555 1_555
C13A C14A 1_555 1_555
C23F C24F 1_555 1_555
C32A C33A 1_555 1_555
C33A C34A 1_555 1_555
C42A C43A 1_555 1_555
C43A C44A 1_555 1_555

#END
