
#######################################################################
#
#                 Cambridge Crystallographic Data Centre
#                                CCDC 
#
#######################################################################
#
# If this CIF has been generated from an entry in the Cambridge 
# Structural Database, then it will include bibliographic, chemical, 
# crystal, experimental, refinement or atomic coordinate data resulting 
# from the CCDC's data processing and validation procedures.
#
#######################################################################

data_SIKYER
_chemical_formula_moiety         '(C31 H40 Eu2 O19)n'
_symmetry_cell_setting           monoclinic
_symmetry_space_group_name_H-M   'P 21/n'
_symmetry_Int_Tables_number      14
_space_group_name_Hall           '-P 2yn'
loop_
_symmetry_equiv_pos_site_id
_symmetry_equiv_pos_as_xyz
1 x,y,z
2 1/2-x,1/2+y,1/2-z
3 -x,-y,-z
4 1/2+x,1/2-y,1/2+z
_cell_length_a                   11.716(2)
_cell_length_b                   13.693(3)
_cell_length_c                   13.800(3)
_cell_angle_alpha                90
_cell_angle_beta                 99.44(3)
_cell_angle_gamma                90
_cell_volume                     2183.91
loop_
_atom_site_label
_atom_site_type_symbol
_atom_site_fract_x
_atom_site_fract_y
_atom_site_fract_z
Eu1 Eu 0.386479(12) 0.959839(10) 0.086584(9)
O1 O 0.27793(18) 1.10144(16) 0.02019(15)
O2 O 0.43638(17) 1.09368(15) -0.04572(14)
O3 O 0.02876(19) 1.42840(17) -0.33863(15)
O4 O 0.17499(18) 1.40527(16) -0.42245(14)
O5 O 0.44027(19) 0.89779(16) 0.25165(14)
O6 O 0.33337(19) 1.02971(16) 0.24880(15)
C1 C 0.3352(3) 1.1280(2) -0.0439(2)
C2 C 0.2842(3) 1.2001(2) -0.1210(2)
C3 C 0.1798(3) 1.2457(3) -0.1136(2)
H1 H 0.1445 1.2345 -0.0590
C4 C 0.1286(3) 1.3073(3) -0.1871(2)
H2 H 0.0582 1.3367 -0.1822
C5 C 0.1811(3) 1.3258(2) -0.2686(2)
C6 C 0.2860(3) 1.2815(3) -0.2747(2)
H3 H 0.3220 1.2941 -0.3287
C7 C 0.3383(3) 1.2188(3) -0.2018(2)
H4 H 0.4087 1.1895 -0.2068
C8 C 0.1238(3) 1.3922(2) -0.3498(2)
C9 C 0.4041(3) 0.9700(2) 0.2949(2)
C10 C 0.4521(3) 0.9853(2) 0.4019(2)
C11 C 0.5418(3) 0.9262(3) 0.4469(2)
H5 H 0.5701 0.8766 0.4114
C12 C 0.4111(3) 1.0591(3) 0.4559(2)
H6 H 0.3512 1.0990 0.4263
O7 O 0.1867(2) 0.92111(19) 0.10522(17)
H7 H 0.1686 0.9785 0.1106
C13 C 0.1004(4) 0.8735(4) 0.0376(4)
H8 H 0.0303 0.8693 0.0649
H9 H 0.1262 0.8090 0.0247
H10 H 0.0863 0.9100 -0.0226
O8 O 0.3694(2) 0.77889(17) 0.08905(15)
H11 H 0.3506 0.7534 0.1379
C14 C 0.3961(4) 0.7057(3) 0.0246(3)
H12 H 0.3779 0.6428 0.0487
H13 H 0.4771 0.7084 0.0205
H14 H 0.3516 0.7160 -0.0395
Eu1B Eu 0.613521(12) 1.040161(10) -0.086584(9)
Eu1C Eu -0.113521(12) 1.540161(10) -0.413416(9)
Eu1A Eu 0.113521(12) 1.459839(10) -0.586584(9)
Eu1B_2 Eu 0.613521(12) 1.040161(10) 0.913416(9)
Eu1A_2 Eu 1.113521(12) 0.459839(10) 0.413416(9)
Eu1C_2 Eu 0.886479(12) 0.540161(10) 0.586584(9)
O1B O 0.72207(18) 0.89856(16) -0.02019(15)
O2B O 0.56362(17) 0.90632(15) 0.04572(14)
O3B O 0.97124(19) 0.57160(17) 0.33863(15)
O3C O 0.52876(19) 1.07160(17) 0.16137(15)
O3A O 0.47124(19) 0.92840(17) -0.16137(15)
O4B O 0.82501(18) 0.59473(16) 0.42245(14)
O4A O 0.32501(18) 0.90527(16) -0.07755(14)
O4C O 0.67499(18) 1.09473(16) 0.07755(14)
O5B O 0.55973(19) 1.10221(16) 0.74835(14)
O5B_2 O 0.55973(19) 1.10221(16) -0.25165(14)
O6B O 0.66663(19) 0.97029(16) 0.75120(15)
O6B_2 O 0.66663(19) 0.97029(16) -0.24880(15)
C1B C 0.6648(3) 0.8720(2) 0.0439(2)
C2B C 0.7158(3) 0.7999(2) 0.1210(2)
C3B C 0.8202(3) 0.7543(3) 0.1136(2)
H1B H 0.8555 0.7655 0.0590
C4B C 0.8714(3) 0.6927(3) 0.1871(2)
H2B H 0.9418 0.6633 0.1822
C5B C 0.8189(3) 0.6742(2) 0.2686(2)
C6B C 0.7140(3) 0.7185(3) 0.2747(2)
H3B H 0.6780 0.7059 0.3287
C7B C 0.6617(3) 0.7812(3) 0.2018(2)
H4B H 0.5913 0.8105 0.2068
C8B C 0.8762(3) 0.6078(2) 0.3498(2)
C9B C 0.5959(3) 1.0300(2) 0.7051(2)
C10B C 0.5479(3) 1.0147(2) 0.5981(2)
C11B C 0.4582(3) 1.0738(3) 0.5531(2)
H5B H 0.4299 1.1234 0.5886
C12B C 0.5889(3) 0.9409(3) 0.5441(2)
H6B H 0.6488 0.9010 0.5737
O7B O 0.8133(2) 1.07889(19) -0.10522(17)
H7B H 0.8314 1.0215 -0.1106
C13B C 0.8996(4) 1.1265(4) -0.0376(4)
H8B H 0.9697 1.1307 -0.0649
H9B H 0.8738 1.1910 -0.0247
H10B H 0.9137 1.0900 0.0226
O8B O 0.6306(2) 1.22111(17) -0.08905(15)
H11B H 0.6494 1.2466 -0.1379
C14B C 0.6039(4) 1.2943(3) -0.0246(3)
H12B H 0.6221 1.3572 -0.0487
H13B H 0.5229 1.2916 -0.0205
H14B H 0.6484 1.2840 0.0395
O9 O 0.6891(2) 1.3233(2) -0.24037(17)
H15 H 0.7227 1.3749 -0.2246
C15 C 0.5929(3) 1.3412(4) -0.3189(2)
H16 H 0.5725 1.4091 -0.3196
H17 H 0.5277 1.3025 -0.3083
H18 H 0.6148 1.3238 -0.3807
O10 O 0.1409(6) 0.8527(5) 0.26703(15)
H19 H 0.2016 0.8701 0.2501
C16 C 0.1588(11) 0.8393(8) 0.37216(18)
H20 H 0.2290 0.8034 0.3923
H21 H 0.0948 0.8037 0.3901
H22 H 0.1644 0.9018 0.4040
O11 O 0.3404(2) 1.5294(6) -0.1882(5)
H23 H 0.2922 1.4940 -0.1690
C17 C 0.4545(3) 1.5048(8) -0.1364(7)
H24 H 0.5042 1.5608 -0.1347
H25 H 0.4859 1.4522 -0.1698
H26 H 0.4492 1.4852 -0.0706
loop_
_geom_bond_atom_site_label_1
_geom_bond_atom_site_label_2
_geom_bond_site_symmetry_1
_geom_bond_site_symmetry_2
Eu1 O1 1_555 1_555
O1 C1 1_555 1_555
O2 Eu1 1_555 1_555
O3 C8 1_555 1_555
O4 C8 1_555 1_555
O5 Eu1 1_555 1_555
O6 Eu1 1_555 1_555
C1 O2 1_555 1_555
C2 C1 1_555 1_555
C3 C2 1_555 1_555
H1 C3 1_555 1_555
C4 C3 1_555 1_555
H2 C4 1_555 1_555
C5 C4 1_555 1_555
C6 C5 1_555 1_555
H3 C6 1_555 1_555
C7 C2 1_555 1_555
H4 C7 1_555 1_555
C8 C5 1_555 1_555
C9 O5 1_555 1_555
C10 C9 1_555 1_555
C11 C10 1_555 1_555
H5 C11 1_555 1_555
C12 C10 1_555 1_555
H6 C12 1_555 1_555
O7 Eu1 1_555 1_555
H7 O7 1_555 1_555
C13 O7 1_555 1_555
H8 C13 1_555 1_555
H9 C13 1_555 1_555
H10 C13 1_555 1_555
O8 Eu1 1_555 1_555
H11 O8 1_555 1_555
C14 O8 1_555 1_555
H12 C14 1_555 1_555
H13 C14 1_555 1_555
H14 C14 1_555 1_555
O9 H15 1_555 1_555
C15 O9 1_555 1_555
H16 C15 1_555 1_555
H17 C15 1_555 1_555
H18 C15 1_555 1_555
O10 H19 1_555 1_555
C16 O10 1_555 1_555
H20 C16 1_555 1_555
H21 C16 1_555 1_555
H22 C16 1_555 1_555
O11 H23 1_555 1_555
C17 O11 1_555 1_555
H24 C17 1_555 1_555
H25 C17 1_555 1_555
H26 C17 1_555 1_555
Eu1B O2 1_555 1_555
Eu1C O3 1_555 1_555
Eu1A O4 1_555 1_555
Eu1B_2 O5B 1_555 1_555
Eu1A_2 O3B 1_555 1_555
Eu1C_2 O4B 1_555 1_555
O1B Eu1B 1_555 1_555
O2B Eu1 1_555 1_555
O3B C8B 1_555 1_555
O3C Eu1 1_555 1_555
O3A Eu1B 1_555 1_555
O4B C8B 1_555 1_555
O4A Eu1 1_555 1_555
O4C Eu1B 1_555 1_555
O5B C9B 1_555 1_555
O5B_2 Eu1B 1_555 1_555
O6B Eu1B_2 1_555 1_555
O6B_2 Eu1B 1_555 1_555
C1B O1B 1_555 1_555
C2B C1B 1_555 1_555
C3B C2B 1_555 1_555
H1B C3B 1_555 1_555
C4B C3B 1_555 1_555
H2B C4B 1_555 1_555
C5B C4B 1_555 1_555
C6B C5B 1_555 1_555
H3B C6B 1_555 1_555
C7B C2B 1_555 1_555
H4B C7B 1_555 1_555
C8B C5B 1_555 1_555
C9B O6B 1_555 1_555
C10B C9B 1_555 1_555
C11B C12 1_555 1_555
H5B C11B 1_555 1_555
C12B C11 1_555 1_555
H6B C12B 1_555 1_555
O7B Eu1B 1_555 1_555
H7B O7B 1_555 1_555
C13B O7B 1_555 1_555
H8B C13B 1_555 1_555
H9B C13B 1_555 1_555
H10B C13B 1_555 1_555
O8B Eu1B 1_555 1_555
H11B O8B 1_555 1_555
C14B O8B 1_555 1_555
H12B C14B 1_555 1_555
H13B C14B 1_555 1_555
H14B C14B 1_555 1_555
O6 C9 1_555 1_555
C6 C7 1_555 1_555
Eu1B O2B 1_555 1_555
O2B C1B 1_555 1_555
C6B C7B 1_555 1_555
C10B C11B 1_555 1_555
C10B C12B 1_555 1_555

#END
