
#######################################################################
#
#                 Cambridge Crystallographic Data Centre
#                                CCDC 
#
#######################################################################
#
# If this CIF has been generated from an entry in the Cambridge 
# Structural Database, then it will include bibliographic, chemical, 
# crystal, experimental, refinement or atomic coordinate data resulting 
# from the CCDC's data processing and validation procedures.
#
#######################################################################

data_LOFVUY
_chemical_formula_moiety         '(C47 H49 N7 O28 Tb1 V6)n'
_symmetry_cell_setting           monoclinic
_symmetry_space_group_name_H-M   'P 21/c'
_symmetry_Int_Tables_number      14
_space_group_name_Hall           '-P 2ybc'
loop_
_symmetry_equiv_pos_site_id
_symmetry_equiv_pos_as_xyz
1 x,y,z
2 -x,1/2+y,1/2-z
3 -x,-y,-z
4 x,1/2-y,1/2+z
_cell_length_a                   13.102(4)
_cell_length_b                   26.279(9)
_cell_length_c                   26.104(6)
_cell_angle_alpha                90
_cell_angle_beta                 93.923(5)
_cell_angle_gamma                90
_cell_volume                     8966.74
loop_
_atom_site_label
_atom_site_type_symbol
_atom_site_fract_x
_atom_site_fract_y
_atom_site_fract_z
C1 C -0.0288(12) -0.3653(5) 0.3213(6)
H1 H 0.0236 -0.3922 0.3271
H2 H -0.0691 -0.3726 0.2887
C2 C -0.1862(10) -0.3263(6) 0.3561(6)
H3 H -0.2246 -0.3352 0.3233
H4 H -0.2340 -0.3280 0.3838
C3 C -0.1006(12) -0.3641(6) 0.3669(6)
C4 C -0.0437(10) -0.3583(5) 0.4186(6)
H5 H -0.0910 -0.3621 0.4464
H6 H 0.0107 -0.3843 0.4233
C5 C -0.197(2) -0.4354(8) 0.3274(10)
H7 H -0.1494 -0.4399 0.3001
H8 H -0.2477 -0.4089 0.3160
C6 C 0.0811(12) -0.0835(6) 0.4031(7)
H9 H 0.1173 -0.0757 0.4367
H10 H 0.0282 -0.0571 0.3957
C7 C 0.0994(11) -0.0938(4) 0.3063(6)
H11 H 0.0479 -0.0668 0.2986
H12 H 0.1497 -0.0925 0.2798
C8 C 0.1565(11) -0.0833(6) 0.3614(7)
C9 C 0.2408(10) -0.1224(5) 0.3705(6)
H13 H 0.2899 -0.1187 0.3435
H14 H 0.2782 -0.1156 0.4040
C10 C 0.277(3) -0.0122(14) 0.3312(15)
H15 H 0.2503 -0.0122 0.2948
H16 H 0.3388 -0.0336 0.3350
C11 C 0.300(2) 0.0430(15) 0.3501(17)
C12 C 0.2742(18) 0.0754(13) 0.3077(12)
H17 H 0.2420 0.0646 0.2758
C13 C 0.3051(15) 0.1296(11) 0.3207(11)
H18 H 0.2912 0.1551 0.2954
C14 C 0.3485(12) 0.1427(7) 0.3635(8)
C15 C 0.376(2) 0.118(2) 0.4061(18)
H19 H 0.4081 0.1322 0.4366
C16 C 0.349(3) 0.062(2) 0.3975(19)
H20 H 0.3647 0.0391 0.4247
C17 C 0.3825(9) 0.1947(4) 0.3702(6)
C18 C -0.4135(9) -0.6207(5) 0.3761(4)
C19 C -0.3579(12) -0.5731(7) 0.3639(6)
C20 C -0.3960(12) -0.5259(7) 0.3736(6)
H21 H -0.4585 -0.5229 0.3898
C21 C -0.3428(19) -0.4813(9) 0.3597(8)
H22 H -0.3702 -0.4488 0.3668
C22 C -0.2521(18) -0.4846(9) 0.3362(8)
C23 C -0.2137(14) -0.5334(8) 0.3265(7)
H23 H -0.1511 -0.5363 0.3104
C24 C -0.2658(12) -0.5788(6) 0.3401(6)
H24 H -0.2391 -0.6115 0.3332
C25 C 0.5291(9) 0.3099(5) 0.2430(5)
H25 H 0.5851 0.3202 0.2656
C26 C 0.5460(8) 0.2946(5) 0.1950(5)
H26 H 0.6137 0.2953 0.1841
C27 C 0.4695(8) 0.2787(4) 0.1625(4)
C28 C 0.3683(9) 0.2798(5) 0.1791(5)
H27 H 0.3115 0.2695 0.1569
C29 C 0.3556(9) 0.2957(5) 0.2266(4)
H28 H 0.2885 0.2966 0.2383
C30 C 0.4851(8) 0.2624(5) 0.1079(5)
C31 C 0.4229(8) 0.2366(6) 0.0223(5)
H29 H 0.3670 0.2323 -0.0025
C32 C 0.4063(9) 0.2563(6) 0.0721(5)
H30 H 0.3390 0.2652 0.0802
C33 C 0.5826(9) 0.2484(6) 0.0943(5)
H31 H 0.6389 0.2510 0.1191
C34 C 0.5982(9) 0.2315(6) 0.0475(6)
H32 H 0.6663 0.2243 0.0393
C35 C -0.2491(9) 0.2558(6) 0.3379(5)
H33 H -0.2858 0.2616 0.3058
C36 C -0.1465(8) 0.2648(5) 0.3436(5)
H34 H -0.1116 0.2741 0.3143
C37 C -0.0923(8) 0.2607(5) 0.3898(5)
C38 C -0.1461(10) 0.2469(7) 0.4323(6)
H35 H -0.1127 0.2449 0.4657
C39 C -0.2495(9) 0.2362(6) 0.4240(6)
H36 H -0.2869 0.2267 0.4524
C40 C 0.1799(8) 0.2822(6) 0.3600(5)
H37 H 0.2207 0.2782 0.3316
C41 C 0.0806(8) 0.2677(5) 0.3562(5)
H38 H 0.0520 0.2532 0.3251
C42 C 0.0209(9) 0.2739(5) 0.3971(5)
C43 C 0.0648(10) 0.2928(7) 0.4407(6)
H39 H 0.0260 0.2950 0.4701
C44 C 0.1631(10) 0.3090(7) 0.4442(5)
H40 H 0.1914 0.3250 0.4746
N1 N -0.1455(12) -0.4204(7) 0.3714(6)
H48 H -0.1374 -0.4394 0.3991
N2 N 0.2004(13) -0.0302(5) 0.3635(7)
H49 H 0.1777 -0.0089 0.3861
N3 N 0.2201(7) 0.3020(4) 0.4037(4)
N4 N 0.4353(7) 0.3106(3) 0.2589(4)
N5 N -0.2976(7) 0.2389(4) 0.3781(5)
N6 N 0.5198(7) 0.2240(4) 0.0104(4)
O1 O 0.1784(7) -0.3467(4) 0.3869(4)
O2 O 0.0199(6) -0.3157(4) 0.3188(3)
O3 O 0.0015(6) -0.3062(3) 0.4195(3)
O4 O -0.1353(7) -0.2850(4) 0.2498(4)
O5 O -0.1475(6) -0.2765(3) 0.3529(3)
O6 O -0.1702(6) -0.2669(4) 0.4541(3)
O7 O 0.1987(5) -0.2639(3) 0.3282(3)
O8 O 0.0458(5) -0.2345(3) 0.2614(3)
O9 O 0.1763(6) -0.2547(4) 0.4294(3)
O10 O 0.0259(5) -0.2245(3) 0.3625(3)
O11 O -0.1245(6) -0.1935(3) 0.2956(4)
O12 O 0.0071(7) -0.2141(4) 0.4619(4)
O13 O -0.1434(6) -0.1855(4) 0.3950(4)
O14 O 0.2229(5) -0.1817(3) 0.2681(3)
O15 O 0.2029(5) -0.1735(3) 0.3700(3)
O16 O 0.0497(6) -0.1424(3) 0.3045(3)
O17 O 0.1857(8) -0.1633(5) 0.4738(4)
O18 O 0.0335(7) -0.1328(3) 0.4052(4)
O19 O -0.1180(8) -0.0998(4) 0.3402(5)
O20 O 0.3882(6) 0.2256(3) 0.3339(4)
O21 O 0.4039(8) 0.2124(4) 0.4163(4)
O22 O -0.3766(5) -0.6631(3) 0.3643(3)
O23 O -0.4999(6) -0.6183(3) 0.3957(3)
O24 O 0.3172(6) 0.3178(3) 0.4085(3)
O25 O 0.4172(5) 0.3293(3) 0.3045(3)
O26 O -0.3994(6) 0.2302(3) 0.3719(3)
O27 O 0.5399(7) 0.2033(4) -0.0332(3)
Tb1 Tb 0.47276(4) 0.29012(2) 0.38343(2)
V1 V 0.13884(14) -0.20389(8) 0.30448(9)
V2 V 0.12083(18) -0.19337(10) 0.42886(10)
V3 V -0.06815(17) -0.15410(10) 0.34844(12)
V4 V -0.08573(16) -0.24461(10) 0.41840(9)
V5 V -0.06751(16) -0.25571(10) 0.29457(9)
V6 V 0.12121(16) -0.29497(9) 0.37497(11)
O22_2 O 0.6234(5) 0.3369(3) 0.3643(3)
O23_2 O 0.5001(6) 0.3817(3) 0.3957(3)
O26_2 O 0.6006(6) 0.2302(3) 0.3719(3)
O27C O 0.5399(7) 0.2967(4) 0.4668(3)
Tb1_2 Tb -0.52724(4) 0.29012(2) 0.38343(2)
Tb1C Tb 0.47276(4) 0.20988(2) -0.11657(2)
Tb1_3 Tb -0.52724(4) -0.70988(2) 0.38343(2)
C45 C 0.471(2) 0.1562(18) 0.2186(19)
H41 H 0.4443 0.1713 0.2478
C46 C 0.590(4) 0.119(2) 0.1654(15)
H42 H 0.5297 0.1216 0.1412
H43 H 0.6037 0.0835 0.1740
H44 H 0.6493 0.1338 0.1498
C47 C 0.631(3) 0.1528(18) 0.2550(14)
H45 H 0.7029 0.1456 0.2488
H46 H 0.6086 0.1296 0.2812
H47 H 0.6255 0.1880 0.2668
N7 N 0.5721(18) 0.1464(9) 0.2106(9)
O28 O 0.419(3) 0.1389(12) 0.1744(13)
loop_
_geom_bond_atom_site_label_1
_geom_bond_atom_site_label_2
_geom_bond_site_symmetry_1
_geom_bond_site_symmetry_2
C1 H1 1_555 1_555
H2 C1 1_555 1_555
C2 H3 1_555 1_555
H4 C2 1_555 1_555
C3 C1 1_555 1_555
C4 C3 1_555 1_555
H5 C4 1_555 1_555
H6 C4 1_555 1_555
C5 H7 1_555 1_555
H8 C5 1_555 1_555
C6 H9 1_555 1_555
H10 C6 1_555 1_555
C7 H11 1_555 1_555
H12 C7 1_555 1_555
C8 C6 1_555 1_555
C9 C8 1_555 1_555
H13 C9 1_555 1_555
H14 C9 1_555 1_555
C10 H15 1_555 1_555
H16 C10 1_555 1_555
C11 C10 1_555 1_555
C12 C11 1_555 1_555
H17 C12 1_555 1_555
C13 C12 1_555 1_555
H18 C13 1_555 1_555
C14 C13 1_555 1_555
C15 C14 1_555 1_555
H19 C15 1_555 1_555
C16 C11 1_555 1_555
H20 C16 1_555 1_555
C17 C14 1_555 1_555
C18 C19 1_555 1_555
C19 C20 1_555 1_555
C20 H21 1_555 1_555
C21 C20 1_555 1_555
H22 C21 1_555 1_555
C22 C5 1_555 1_555
C23 C22 1_555 1_555
H23 C23 1_555 1_555
C24 C19 1_555 1_555
H24 C24 1_555 1_555
C25 H25 1_555 1_555
C26 C25 1_555 1_555
H26 C26 1_555 1_555
C27 C26 1_555 1_555
C28 C27 1_555 1_555
H27 C28 1_555 1_555
C29 C28 1_555 1_555
H28 C29 1_555 1_555
C30 C27 1_555 1_555
C31 H29 1_555 1_555
C32 C30 1_555 1_555
H30 C32 1_555 1_555
C33 C30 1_555 1_555
H31 C33 1_555 1_555
C34 C33 1_555 1_555
H32 C34 1_555 1_555
C35 H33 1_555 1_555
C36 C35 1_555 1_555
H34 C36 1_555 1_555
C37 C36 1_555 1_555
C38 C37 1_555 1_555
H35 C38 1_555 1_555
C39 C38 1_555 1_555
H36 C39 1_555 1_555
C40 H37 1_555 1_555
C41 C40 1_555 1_555
H38 C41 1_555 1_555
C42 C37 1_555 1_555
C43 C42 1_555 1_555
H39 C43 1_555 1_555
C44 C43 1_555 1_555
H40 C44 1_555 1_555
C45 H41 1_555 1_555
C46 H42 1_555 1_555
H43 C46 1_555 1_555
H44 C46 1_555 1_555
C47 H45 1_555 1_555
H46 C47 1_555 1_555
H47 C47 1_555 1_555
N1 C3 1_555 1_555
H48 N1 1_555 1_555
N2 C8 1_555 1_555
H49 N2 1_555 1_555
N3 C40 1_555 1_555
N4 C25 1_555 1_555
N5 C35 1_555 1_555
N6 C31 1_555 1_555
N7 C45 1_555 1_555
O1 V6 1_555 1_555
O2 C1 1_555 1_555
O3 C4 1_555 1_555
O4 V5 1_555 1_555
O5 C2 1_555 1_555
O6 V4 1_555 1_555
O7 V1 1_555 1_555
O8 V1 1_555 1_555
O9 V2 1_555 1_555
O10 V1 1_555 1_555
O11 V3 1_555 1_555
O12 V2 1_555 1_555
O13 V3 1_555 1_555
O14 V1 1_555 1_555
O15 C9 1_555 1_555
O16 C7 1_555 1_555
O17 V2 1_555 1_555
O18 C6 1_555 1_555
O19 V3 1_555 1_555
O20 C17 1_555 1_555
O21 C17 1_555 1_555
O22 C18 1_555 1_555
O23 C18 1_555 1_555
O24 N3 1_555 1_555
O25 N4 1_555 1_555
O26 N5 1_555 1_555
O27 N6 1_555 1_555
O28 C45 1_555 1_555
Tb1 O20 1_555 1_555
V1 O15 1_555 1_555
V2 O10 1_555 1_555
V3 O10 1_555 1_555
V4 O3 1_555 1_555
V5 O2 1_555 1_555
V6 O2 1_555 1_555
O22_2 Tb1 1_555 1_555
O23_2 Tb1 1_555 1_555
O26_2 Tb1 1_555 1_555
O27C Tb1 1_555 1_555
Tb1_2 O26 1_555 1_555
Tb1C O27 1_555 1_555
Tb1_3 O22 1_555 1_555
C2 C3 1_555 1_555
C5 N1 1_555 1_555
C7 C8 1_555 1_555
C10 N2 1_555 1_555
C15 C16 1_555 1_555
C21 C22 1_555 1_555
C23 C24 1_555 1_555
C29 N4 1_555 1_555
C31 C32 1_555 1_555
C34 N6 1_555 1_555
C39 N5 1_555 1_555
C41 C42 1_555 1_555
C44 N3 1_555 1_555
C46 N7 1_555 1_555
C47 N7 1_555 1_555
O3 V6 1_555 1_555
O5 V4 1_555 1_555
O5 V5 1_555 1_555
O7 V6 1_555 1_555
O8 V5 1_555 1_555
O9 V6 1_555 1_555
O10 V4 1_555 1_555
O10 V5 1_555 1_555
O10 V6 1_555 1_555
O11 V5 1_555 1_555
O12 V4 1_555 1_555
O13 V4 1_555 1_555
O15 V2 1_555 1_555
O16 V1 1_555 1_555
O16 V3 1_555 1_555
O18 V2 1_555 1_555
O18 V3 1_555 1_555
O21 Tb1 1_555 1_555
O23 Tb1_3 1_555 1_555
O24 Tb1 1_555 1_555
O25 Tb1 1_555 1_555

#END
