
#######################################################################
#
#                 Cambridge Crystallographic Data Centre
#                                CCDC 
#
#######################################################################
#
# If this CIF has been generated from an entry in the Cambridge 
# Structural Database, then it will include bibliographic, chemical, 
# crystal, experimental, refinement or atomic coordinate data resulting 
# from the CCDC's data processing and validation procedures.
#
#######################################################################

data_IXEJIG
_chemical_formula_moiety         '(C32 H32 O16 Zr3)n'
_symmetry_cell_setting           tetragonal
_symmetry_space_group_name_H-M   'P 42/n c m'
_symmetry_Int_Tables_number      138
_space_group_name_Hall           '-P 4ac 2ac'
loop_
_symmetry_equiv_pos_site_id
_symmetry_equiv_pos_as_xyz
1 x,y,z
2 1/2-y,x,1/2+z
3 1/2-x,1/2-y,z
4 y,1/2-x,1/2+z
5 1/2+x,-y,1/2-z
6 -x,1/2+y,1/2-z
7 1/2+y,1/2+x,-z
8 -y,-x,-z
9 -x,-y,-z
10 1/2+y,-x,1/2-z
11 1/2+x,1/2+y,-z
12 -y,1/2+x,1/2-z
13 1/2-x,y,1/2+z
14 x,1/2-y,1/2+z
15 1/2-y,1/2-x,z
16 y,x,z
_cell_length_a                   35.126(8)
_cell_length_b                   35.126
_cell_length_c                   11.239(3)
_cell_angle_alpha                90
_cell_angle_beta                 90
_cell_angle_gamma                90
_cell_volume                     13867.1
loop_
_atom_site_label
_atom_site_type_symbol
_atom_site_fract_x
_atom_site_fract_y
_atom_site_fract_z
_atom_site_U_iso_or_equiv
_atom_site_thermal_displace_type
Zr1 Zr 0.450575(19) 0.549425(19) 0.5000 0.0399 Uani
Zr2 Zr 0.54369(2) 0.54369(2) 0.61240(12) 0.0416 Uani
Zr3 Zr 0.52536(2) 0.52536(2) 0.30905(12) 0.0419 Uani
O1 O 0.55258(18) 0.55258(18) 0.8027(10) 0.0740 Uani
O2 O 0.60433(14) 0.45993(15) 0.5844(6) 0.0590 Uani
O3 O 0.46695(16) 0.51497(15) 0.3475(7) 0.0803 Uani
O4 O 0.60216(15) 0.51960(17) 0.6553(6) 0.0657 Uani
O5 O 0.90931(15) 0.44784(15) 0.8535(6) 0.0553 Uani
O6 O 0.51103(16) 0.5578(2) 0.4618(6) 0.0870 Uani
O7 O 0.58626(16) 0.58626(16) 0.5490(10) 0.0827 Uani
C1 C 0.79456(11) 0.46079(11) 0.8048(4) 0.0680 Uani
H1 H 0.7768 0.4508 0.8605 0.0820 Uiso
O8 O 0.92279(16) 0.49622(17) 0.7308(6) 0.0643 Uani
O9 O 0.51400(19) 0.51400(19) 0.1248(9) 0.0727 Uani
O10 O 0.57021(17) 0.57021(17) 0.2758(9) 0.0747 Uani
C2 C 0.80752(11) 0.49421(16) 0.6221(4) 0.0730 Uani
C3 C 0.83338(11) 0.45653(14) 0.8242(4) 0.0663 Uani
H2 H 0.8422 0.4437 0.8932 0.0790 Uiso
C4 C 0.85932(11) 0.47112(14) 0.7425(4) 0.0547 Uani
C5 C 0.71932(13) 0.45138(13) 0.6546(5) 0.0753 Uani
H3 H 0.7322 0.4277 0.6489 0.0900 Uiso
C6 C 0.68032(12) 0.45324(12) 0.6345(5) 0.0743 Uani
H4 H 0.6666 0.4308 0.6150 0.0890 Uiso
C7 C 0.66149(11) 0.48793(12) 0.6429(3) 0.0583 Uani
C8 C 0.72065(13) 0.51888(13) 0.6915(5) 0.0707 Uani
C9 C 0.68164(13) 0.52074(11) 0.6714(6) 0.0700 Uani
H5 H 0.6688 0.5444 0.6771 0.0840 Uiso
C10 C 0.7979(3) 0.5123(4) 0.4993(13) 0.1277 Uani
H6 H 0.7838 0.5360 0.5114 0.1910 Uiso
H7 H 0.7824 0.4945 0.4528 0.1910 Uiso
H8 H 0.8216 0.5177 0.4563 0.1910 Uiso
C11 C 0.84641(11) 0.48994(18) 0.6416(4) 0.0673 Uani
H9 H 0.8641 0.4999 0.5858 0.0810 Uiso
C12 C 0.78166(11) 0.47965(10) 0.7036(3) 0.0710 Uani
C13 C 0.9006(2) 0.4709(2) 0.7711(6) 0.0557 Uani
C14 C 0.73950(10) 0.48419(15) 0.6830(3) 0.0733 Uani
C15 C 0.6201(2) 0.48993(19) 0.6215(4) 0.0637 Uani
C16 C 0.7420(4) 0.5570(4) 0.7234(14) 0.1393 Uani
H10 H 0.7234 0.5775 0.7335 0.2090 Uiso
H11 H 0.7596 0.5636 0.6590 0.2090 Uiso
H12 H 0.7563 0.5535 0.7975 0.2090 Uiso
O3G O 0.48503(15) 0.53305(16) 0.6525(7) 0.0803 Uani
O6G O 0.4422(2) 0.48897(16) 0.5382(6) 0.0870 Uani
O2O O 0.45993(15) 0.60433(14) 0.5844(6) 0.0590 Uani
O4O O 0.51960(17) 0.60216(15) 0.6553(6) 0.0657 Uani
O5O O 0.44784(15) 0.90931(15) 0.8535(6) 0.0553 Uani
C1O C 0.46079(11) 0.79456(11) 0.8048(4) 0.0680 Uani
H1O H 0.4508 0.7768 0.8605 0.0820 Uiso
O8O O 0.49622(17) 0.92279(16) 0.7308(6) 0.0643 Uani
C2O C 0.49421(16) 0.80752(11) 0.6221(4) 0.0730 Uani
C3O C 0.45653(14) 0.83338(11) 0.8242(4) 0.0663 Uani
H2O H 0.4437 0.8422 0.8932 0.0790 Uiso
C4O C 0.47112(14) 0.85932(11) 0.7425(4) 0.0547 Uani
C5O C 0.45138(13) 0.71932(13) 0.6546(5) 0.0753 Uani
H3O H 0.4277 0.7322 0.6489 0.0900 Uiso
C6O C 0.45324(12) 0.68032(12) 0.6345(5) 0.0743 Uani
H4O H 0.4308 0.6666 0.6150 0.0890 Uiso
C7O C 0.48793(12) 0.66149(11) 0.6429(3) 0.0583 Uani
C8O C 0.51888(13) 0.72065(13) 0.6915(5) 0.0707 Uani
C9O C 0.52074(11) 0.68164(13) 0.6714(6) 0.0700 Uani
H5O H 0.5444 0.6688 0.6771 0.0840 Uiso
C10O C 0.5123(4) 0.7979(3) 0.4993(13) 0.1277 Uani
H6O H 0.5360 0.7838 0.5114 0.1910 Uiso
H7O H 0.4945 0.7824 0.4528 0.1910 Uiso
H8O H 0.5177 0.8216 0.4563 0.1910 Uiso
C11O C 0.48994(18) 0.84641(11) 0.6416(4) 0.0673 Uani
H9O H 0.4999 0.8641 0.5858 0.0810 Uiso
C12O C 0.47965(10) 0.78166(11) 0.7036(3) 0.0710 Uani
C13O C 0.4709(2) 0.9006(2) 0.7711(6) 0.0557 Uani
C14O C 0.48419(15) 0.73950(10) 0.6830(3) 0.0733 Uani
C15O C 0.48993(19) 0.6201(2) 0.6215(4) 0.0637 Uani
C16O C 0.5570(4) 0.7420(4) 0.7234(14) 0.1393 Uani
H10O H 0.5775 0.7234 0.7335 0.2090 Uiso
H11O H 0.5636 0.7596 0.6590 0.2090 Uiso
H12O H 0.5535 0.7563 0.7975 0.2090 Uiso
Zr1A Zr 0.950575(19) 0.450575(19) 1.0000 0.0399 Uani
Zr1H Zr 0.549425(19) 0.450575(19) 0.5000 0.0399 Uani
Zr1K Zr 0.450575(19) 0.950575(19) 1.0000 0.0399 Uani
Zr2G Zr 0.45631(2) 0.45631(2) 0.38760(12) 0.0416 Uani
Zr3A Zr 0.97464(2) 0.52536(2) 0.80905(12) 0.0419 Uani
Zr3C Zr 0.52536(2) 0.97464(2) 0.80905(12) 0.0419 Uani
Zr3G Zr 0.47464(2) 0.47464(2) 0.69095(12) 0.0419 Uani
O2H O 0.39567(14) 0.54007(15) 0.4156(6) 0.0590 Uani
O3H O 0.53305(16) 0.48503(15) 0.6525(7) 0.0803 Uani
O3O O 0.51497(15) 0.46695(16) 0.3475(7) 0.0803 Uani
O5C O 0.44784(15) 0.59069(15) 0.3535(6) 0.0553 Uani
O5D O 0.40931(15) 0.55216(15) 0.6465(6) 0.0553 Uani
O6O O 0.5578(2) 0.51103(16) 0.4618(6) 0.0870 Uani
O8C O 0.49622(17) 0.57721(16) 0.2308(6) 0.0643 Uani
O8L O 0.57721(16) 0.49622(17) 0.2308(6) 0.0643 Uani
loop_
_atom_site_aniso_label
_atom_site_aniso_U_11
_atom_site_aniso_U_22
_atom_site_aniso_U_33
_atom_site_aniso_U_23
_atom_site_aniso_U_13
_atom_site_aniso_U_12
Zr1 0.0209(3) 0.0209(3) 0.0778(9) 0.0032(4) 0.0032(4) 0.0001(4)
Zr2 0.0258(3) 0.0258(3) 0.0731(9) -0.0018(4) -0.0018(4) -0.0042(5)
Zr3 0.0283(4) 0.0283(4) 0.0690(9) 0.0072(4) 0.0072(4) 0.0004(5)
O1 0.050(3) 0.050(3) 0.122(9) 0.007(4) 0.007(4) 0.015(4)
O2 0.022(3) 0.034(3) 0.121(6) 0.011(4) -0.011(3) 0.004(2)
O3 0.044(4) 0.028(3) 0.169(8) 0.001(4) 0.039(4) 0.004(3)
O4 0.035(3) 0.048(4) 0.114(6) -0.032(4) -0.011(4) -0.004(3)
O5 0.032(3) 0.035(3) 0.099(5) 0.009(3) -0.013(3) -0.005(2)
O6 0.025(3) 0.158(7) 0.078(5) -0.014(5) 0.010(3) 0.001(4)
O7 0.056(4) 0.056(4) 0.136(10) 0.000(4) 0.000(4) -0.032(5)
C1 0.045(6) 0.084(8) 0.075(8) 0.028(7) -0.019(5) -0.002(5)
O8 0.039(3) 0.065(4) 0.089(5) 0.004(4) -0.004(4) -0.026(3)
O9 0.057(4) 0.057(4) 0.104(8) 0.008(4) 0.008(4) 0.027(5)
O10 0.062(4) 0.062(4) 0.100(8) 0.017(4) 0.017(4) -0.016(5)
C2 0.066(7) 0.092(8) 0.061(7) 0.007(6) -0.037(6) 0.004(6)
C3 0.028(5) 0.074(7) 0.097(9) 0.012(6) -0.013(5) -0.011(5)
C4 0.034(5) 0.065(6) 0.065(7) 0.006(5) -0.013(5) -0.002(4)
C5 0.031(5) 0.074(7) 0.121(10) 0.010(7) -0.025(6) 0.007(5)
C6 0.028(5) 0.056(6) 0.139(11) 0.008(7) -0.015(6) -0.008(4)
C7 0.029(4) 0.048(5) 0.098(8) -0.011(5) -0.004(5) -0.005(4)
C8 0.035(5) 0.075(7) 0.102(9) -0.005(7) -0.023(6) -0.005(5)
C9 0.028(5) 0.063(6) 0.119(10) -0.028(7) -0.016(6) 0.001(4)
C10 0.047(7) 0.196(15) 0.140(12) 0.019(12) -0.022(8) -0.044(8)
C11 0.037(5) 0.078(7) 0.087(8) 0.020(6) -0.006(5) -0.013(5)
C12 0.022(4) 0.087(8) 0.104(9) 0.004(7) 0.015(6) -0.020(5)
C13 0.034(5) 0.063(6) 0.070(7) 0.020(6) -0.014(5) 0.002(5)
C14 0.025(5) 0.074(7) 0.121(10) 0.008(7) -0.011(6) 0.000(4)
C15 0.021(4) 0.054(6) 0.116(9) -0.012(6) 0.000(5) 0.002(4)
C16 0.092(11) 0.130(12) 0.196(17) -0.008(12) -0.022(11) -0.036(9)
O3G 0.028 0.044 0.169 0.039 0.001 0.004
O6G 0.158 0.025 0.078 0.01 -0.014 0.001
O2O 0.034 0.022 0.121 -0.011 0.011 0.004
O4O 0.048 0.035 0.114 -0.011 -0.032 -0.004
O5O 0.035 0.032 0.099 -0.013 0.009 -0.005
C1O 0.084 0.045 0.075 -0.019 0.028 -0.002
O8O 0.065 0.039 0.089 -0.004 0.004 -0.026
C2O 0.092 0.066 0.061 -0.037 0.007 0.004
C3O 0.074 0.028 0.097 -0.013 0.012 -0.011
C4O 0.065 0.034 0.065 -0.013 0.006 -0.002
C5O 0.074 0.031 0.121 -0.025 0.01 0.007
C6O 0.056 0.028 0.139 -0.015 0.008 -0.008
C7O 0.048 0.029 0.098 -0.004 -0.011 -0.005
C8O 0.075 0.035 0.102 -0.023 -0.005 -0.005
C9O 0.063 0.028 0.119 -0.016 -0.028 0.001
C10O 0.196 0.047 0.14 -0.022 0.019 -0.044
C11O 0.078 0.037 0.087 -0.006 0.02 -0.013
C12O 0.087 0.022 0.104 0.015 0.004 -0.02
C13O 0.063 0.034 0.07 -0.014 0.02 0.002
C14O 0.074 0.025 0.121 -0.011 0.008 0
C15O 0.054 0.021 0.116 0 -0.012 0.002
C16O 0.13 0.092 0.196 -0.022 -0.008 -0.036
Zr1A 0.0209 0.0209 0.0778 0.0032 -0.0032 -0.0001
Zr1H 0.0209 0.0209 0.0778 0.0032 0.0032 0.0001
Zr1K 0.0209 0.0209 0.0778 -0.0032 0.0032 -0.0001
Zr2G 0.0258 0.0258 0.0731 -0.0018 -0.0018 -0.0042
Zr3A 0.0283 0.0283 0.069 0.0072 -0.0072 -0.0004
Zr3C 0.0283 0.0283 0.069 -0.0072 0.0072 -0.0004
Zr3G 0.0283 0.0283 0.069 0.0072 0.0072 0.0004
O2H 0.022 0.034 0.121 0.011 -0.011 0.004
O3H 0.044 0.028 0.169 0.001 0.039 0.004
O3O 0.028 0.044 0.169 0.039 0.001 0.004
O5C 0.035 0.032 0.099 0.013 0.009 0.005
O5D 0.032 0.035 0.099 0.009 0.013 0.005
O6O 0.158 0.025 0.078 0.01 -0.014 0.001
O8C 0.065 0.039 0.089 0.004 0.004 0.026
O8L 0.039 0.065 0.089 0.004 0.004 0.026
loop_
_geom_bond_atom_site_label_1
_geom_bond_atom_site_label_2
_geom_bond_site_symmetry_1
_geom_bond_site_symmetry_2
Zr1 O3 1_555 1_555
Zr2 O1 1_555 1_555
Zr3 O3 1_555 1_555
O2 C15 1_555 1_555
O3 Zr2G 1_555 1_555
O4 Zr2 1_555 1_555
O5 C13 1_555 1_555
O6 Zr1 1_555 1_555
O7 Zr2 1_555 1_555
C1 H1 1_555 1_555
O8 C13 1_555 1_555
O9 Zr3 1_555 1_555
O10 Zr3 1_555 1_555
C2 C10 1_555 1_555
C3 C1 1_555 1_555
H2 C3 1_555 1_555
C4 C3 1_555 1_555
C5 H3 1_555 1_555
C6 C5 1_555 1_555
H4 C6 1_555 1_555
C7 C6 1_555 1_555
C8 C9 1_555 1_555
C9 C7 1_555 1_555
H5 C9 1_555 1_555
C10 H6 1_555 1_555
H7 C10 1_555 1_555
H8 C10 1_555 1_555
C11 C2 1_555 1_555
H9 C11 1_555 1_555
C12 C1 1_555 1_555
C13 C4 1_555 1_555
C14 C5 1_555 1_555
C15 O4 1_555 1_555
C16 C8 1_555 1_555
H10 C16 1_555 1_555
H11 C16 1_555 1_555
H12 C16 1_555 1_555
O3G Zr1 1_555 1_555
O6G Zr1 1_555 1_555
O2O Zr1 1_555 1_555
O4O Zr2 1_555 1_555
O5O C13O 1_555 1_555
C1O H1O 1_555 1_555
O8O C13O 1_555 1_555
C2O C10O 1_555 1_555
C3O C1O 1_555 1_555
H2O C3O 1_555 1_555
C4O C3O 1_555 1_555
C5O H3O 1_555 1_555
C6O C5O 1_555 1_555
H4O C6O 1_555 1_555
C7O C6O 1_555 1_555
C8O C9O 1_555 1_555
C9O C7O 1_555 1_555
H5O C9O 1_555 1_555
C10O H6O 1_555 1_555
H7O C10O 1_555 1_555
H8O C10O 1_555 1_555
C11O C2O 1_555 1_555
H9O C11O 1_555 1_555
C12O C1O 1_555 1_555
C13O C4O 1_555 1_555
C14O C5O 1_555 1_555
C15O O2O 1_555 1_555
C16O C8O 1_555 1_555
H10O C16O 1_555 1_555
H11O C16O 1_555 1_555
H12O C16O 1_555 1_555
Zr1A O5 1_555 1_555
Zr1H O2 1_555 1_555
Zr1K O5O 1_555 1_555
Zr2G O6G 1_555 1_555
Zr3A O8 1_555 1_555
Zr3C O8O 1_555 1_555
Zr3G O3G 1_555 1_555
O2H Zr1 1_555 1_555
O3H Zr2 1_555 1_555
O3O Zr3 1_555 1_555
O5C Zr1 1_555 1_555
O5D Zr1 1_555 1_555
O6O Zr2 1_555 1_555
O8C Zr3 1_555 1_555
O8L Zr3 1_555 1_555
Zr2 O6 1_555 1_555
Zr2 O3G 1_555 1_555
Zr3 O6 1_555 1_555
Zr3 O6O 1_555 1_555
C2 C12 1_555 1_555
C4 C11 1_555 1_555
C7 C15 1_555 1_555
C8 C14 1_555 1_555
C12 C14 1_555 1_555
O6G Zr3G 1_555 1_555
O4O C15O 1_555 1_555
C2O C12O 1_555 1_555
C4O C11O 1_555 1_555
C7O C15O 1_555 1_555
C8O C14O 1_555 1_555
C12O C14O 1_555 1_555
Zr1H O3H 1_555 1_555
Zr1H O3O 1_555 1_555
Zr1H O6O 1_555 1_555
Zr2G O3O 1_555 1_555
Zr3G O3H 1_555 1_555

#END
