
#######################################################################
#
#                 Cambridge Crystallographic Data Centre
#                                CCDC 
#
#######################################################################
#
# If this CIF has been generated from an entry in the Cambridge 
# Structural Database, then it will include bibliographic, chemical, 
# crystal, experimental, refinement or atomic coordinate data resulting 
# from the CCDC's data processing and validation procedures.
#
#######################################################################

data_BUXTOF
_chemical_formula_moiety         '(C54 H48 Ag4 F12 N24 P2 2+)n'
_symmetry_cell_setting           monoclinic
_symmetry_space_group_name_H-M   'C 2/c'
_symmetry_Int_Tables_number      15
_space_group_name_Hall           '-C 2yc'
loop_
_symmetry_equiv_pos_site_id
_symmetry_equiv_pos_as_xyz
1 x,y,z
2 -x,y,1/2-z
3 1/2+x,1/2+y,z
4 1/2-x,1/2+y,1/2-z
5 -x,-y,-z
6 x,-y,1/2+z
7 1/2-x,1/2-y,-z
8 1/2+x,1/2-y,1/2+z
_cell_length_a                   22.771(2)
_cell_length_b                   21.3119(12)
_cell_length_c                   19.0100(18)
_cell_angle_alpha                90
_cell_angle_beta                 118.499(13)
_cell_angle_gamma                90
_cell_volume                     8107.54
loop_
_atom_site_label
_atom_site_type_symbol
_atom_site_fract_x
_atom_site_fract_y
_atom_site_fract_z
Ag1 Ag 0.22722(2) 0.378080(18) 0.19342(2)
Ag2 Ag 0.0000 0.37960(3) -0.2500
Ag3 Ag 0.5000 0.63436(3) 0.2500
N1 N 0.0705(2) 0.3749(2) -0.1118(2)
N2 N 0.4325(2) 0.6265(2) 0.1141(3)
N3 N 0.1642(3) 0.3794(2) 0.0497(3)
N4 N 0.0888(2) 0.2894(2) -0.2428(3)
N5 N 0.1948(2) 0.2065(2) -0.2073(3)
N6 N 0.3094(3) 0.4582(2) 0.2154(3)
N7 N 0.4112(2) 0.5430(2) 0.2456(3)
N8 N 0.1727(2) 0.4536(2) 0.2414(3)
C1 C 0.3846(3) 0.5075(3) 0.1792(4)
N9 N 0.1697(3) 0.3036(2) 0.2349(3)
N10 N 0.0692(3) 0.5257(3) 0.2356(4)
N11 N 0.0702(3) 0.2258(3) 0.2338(4)
C2 C 0.3345(3) 0.4938(3) 0.2798(3)
H1 H 0.3172 0.4909 0.3163
N12 N 0.3372(3) 0.6298(3) -0.0479(4)
C3 C 0.1162(3) 0.2557(2) -0.1749(3)
C4 C 0.1390(3) 0.3181(3) 0.2779(3)
C5 C 0.1290(3) 0.4297(3) 0.0103(3)
H2 H 0.1355 0.4679 0.0388
C6 C 0.1501(3) 0.3265(3) 0.0071(3)
H3 H 0.1734 0.2893 0.0330
C7 C 0.0835(3) 0.4285(3) -0.0702(3)
H4 H 0.0611 0.4660 -0.0964
C8 C 0.1684(3) 0.2145(3) -0.1584(3)
H5 H 0.1861 0.1908 -0.1102
C9 C 0.0874(3) 0.2624(2) -0.1182(3)
H6 H 0.0383 0.2576 -0.1491
H7 H 0.1047 0.2277 -0.0789
C10 C 0.1679(3) 0.2417(3) -0.2746(3)
H8 H 0.1857 0.2386 -0.3106
C11 C 0.1029(3) 0.3234(2) -0.0734(3)
C12 C 0.3988(3) 0.5744(3) 0.0770(3)
C13 C 0.1615(3) 0.3765(2) 0.3285(3)
H9 H 0.1435 0.3759 0.3667
H10 H 0.2109 0.3763 0.3601
C14 C 0.1396(3) 0.4359(3) 0.2803(3)
C15 C 0.4209(3) 0.6790(3) 0.0712(4)
H11 H 0.4454 0.7160 0.0955
C16 C 0.3726(4) 0.6794(3) -0.0092(4)
H12 H 0.3648 0.7177 -0.0380
C17 C 0.1154(3) 0.2819(3) -0.2921(3)
H13 H 0.0973 0.3052 -0.3406
C18 C 0.4145(3) 0.5138(3) 0.1237(4)
H14 H 0.3984 0.4784 0.0853
H15 H 0.4636 0.5097 0.1558
C19 C 0.1011(4) 0.2129(3) 0.1908(4)
H16 H 0.0887 0.1763 0.1584
C20 C 0.3865(3) 0.5358(3) 0.2952(4)
H17 H 0.4045 0.5600 0.3429
C21 C 0.1502(3) 0.2512(3) 0.1921(4)
H18 H 0.1710 0.2397 0.1610
C22 C 0.3349(3) 0.4651(3) 0.1653(4)
H19 H 0.3179 0.4399 0.1185
C23 C 0.0892(3) 0.2788(3) 0.2768(4)
H20 H 0.0682 0.2902 0.3077
C24 C 0.0888(3) 0.4739(3) 0.2773(4)
H21 H 0.0671 0.4615 0.3071
C25 C 0.1536(3) 0.5062(3) 0.2001(4)
H22 H 0.1761 0.5200 0.1718
C26 C 0.3494(4) 0.5777(4) -0.0040(4)
H23 H 0.3237 0.5413 -0.0284
C27 C 0.1015(4) 0.5419(3) 0.1970(4)
H24 H 0.0889 0.5792 0.1658
Ag1A Ag -0.22722(2) 0.378080(18) -0.69342(2)
N1A N -0.0705(2) 0.3749(2) -0.3882(2)
N2A N -0.4325(2) 0.6265(2) -0.6141(3)
N3A N -0.1642(3) 0.3794(2) -0.5497(3)
N4A N -0.0888(2) 0.2894(2) -0.2572(3)
N5A N -0.1948(2) 0.2065(2) -0.2927(3)
N6A N -0.3094(3) 0.4582(2) -0.7154(3)
N7A N -0.4112(2) 0.5430(2) -0.7456(3)
N8A N -0.1727(2) 0.4536(2) -0.7414(3)
C1A C -0.3846(3) 0.5075(3) -0.6792(4)
N9A N -0.1697(3) 0.3036(2) -0.7349(3)
N10A N -0.0692(3) 0.5257(3) -0.7356(4)
N11A N -0.0702(3) 0.2258(3) -0.7338(4)
C2A C -0.3345(3) 0.4938(3) -0.7798(3)
H1A H -0.3172 0.4909 -0.8163
N12A N -0.3372(3) 0.6298(3) -0.4521(4)
C3A C -0.1162(3) 0.2557(2) -0.3251(3)
C4A C -0.1390(3) 0.3181(3) -0.7779(3)
C5A C -0.1290(3) 0.4297(3) -0.5103(3)
H2A H -0.1355 0.4679 -0.5388
C6A C -0.1501(3) 0.3265(3) -0.5071(3)
H3A H -0.1734 0.2893 -0.5330
C7A C -0.0835(3) 0.4285(3) -0.4298(3)
H4A H -0.0611 0.4660 -0.4036
C8A C -0.1684(3) 0.2145(3) -0.3416(3)
H5A H -0.1861 0.1908 -0.3898
C9A C -0.0874(3) 0.2624(2) -0.3818(3)
H6A H -0.0383 0.2576 -0.3509
H7A H -0.1047 0.2277 -0.4211
C10A C -0.1679(3) 0.2417(3) -0.2254(3)
H8A H -0.1857 0.2386 -0.1894
C11A C -0.1029(3) 0.3234(2) -0.4266(3)
C12A C -0.3988(3) 0.5744(3) -0.5770(3)
C13A C -0.1615(3) 0.3765(2) -0.8285(3)
H9A H -0.1435 0.3759 -0.8667
H10A H -0.2109 0.3763 -0.8601
C14A C -0.1396(3) 0.4359(3) -0.7803(3)
C15A C -0.4209(3) 0.6790(3) -0.5712(4)
H11A H -0.4454 0.7160 -0.5955
C16A C -0.3726(4) 0.6794(3) -0.4908(4)
H12A H -0.3648 0.7177 -0.4620
C17A C -0.1154(3) 0.2819(3) -0.2079(3)
H13A H -0.0973 0.3052 -0.1594
C18A C -0.4145(3) 0.5138(3) -0.6237(4)
H14A H -0.3984 0.4784 -0.5853
H15A H -0.4636 0.5097 -0.6558
C19A C -0.1011(4) 0.2129(3) -0.6908(4)
H16A H -0.0887 0.1763 -0.6584
C20A C -0.3865(3) 0.5358(3) -0.7952(4)
H17A H -0.4045 0.5600 -0.8429
C21A C -0.1502(3) 0.2512(3) -0.6921(4)
H18A H -0.1710 0.2397 -0.6610
C22A C -0.3349(3) 0.4651(3) -0.6653(4)
H19A H -0.3179 0.4399 -0.6185
C23A C -0.0892(3) 0.2788(3) -0.7768(4)
H20A H -0.0682 0.2902 -0.8077
C24A C -0.0888(3) 0.4739(3) -0.7773(4)
H21A H -0.0671 0.4615 -0.8071
C25A C -0.1536(3) 0.5062(3) -0.7001(4)
H22A H -0.1761 0.5200 -0.6718
C26A C -0.3494(4) 0.5777(4) -0.4960(4)
H23A H -0.3237 0.5413 -0.4716
C27A C -0.1015(4) 0.5419(3) -0.6970(4)
H24A H -0.0889 0.5792 -0.6658
Ag1F Ag 0.27278(2) 0.121920(18) -0.19342(2)
Ag1G Ag -0.27278(2) 0.121920(18) -0.30658(2)
Ag2D Ag 0.0000 0.62040(3) -0.7500
Ag2D_2 Ag 0.0000 0.62040(3) 0.2500
Ag3_2 Ag -0.5000 0.63436(3) -0.7500
Ag3B Ag 0.0000 0.13436(3) -0.7500
Ag3B_2 Ag -0.0000 0.13436(3) 0.2500
N2A_2 N 0.5675(2) 0.6265(2) 0.3859(3)
N5F N 0.3052(2) 0.2935(2) 0.2073(3)
N5G N -0.3052(2) 0.2935(2) -0.7073(3)
N10D N -0.0692(3) 0.4743(3) -0.2356(4)
N10E N 0.0692(3) 0.4743(3) -0.2644(4)
N11B N 0.5702(3) 0.7258(3) 0.2338(4)
N11C N 0.4298(3) 0.7258(3) 0.2662(4)
P1 P 0.28750(10) 0.38074(8) -0.07627(12)
F1 F 0.3270(4) 0.3883(3) 0.0188(4)
F2 F 0.3485(4) 0.3373(4) -0.0684(4)
F3 F 0.2667(4) 0.3153(3) -0.0575(6)
F4 F 0.3252(7) 0.4376(3) -0.0816(6)
F5 F 0.2546(4) 0.3722(3) -0.1677(4)
F6 F 0.2331(5) 0.4195(6) -0.0800(7)
P2 P 0.46902(10) 0.86985(10) 0.04401(12)
F7 F 0.4913(10) 0.8618(13) 0.1320(10)
F8 F 0.5129(5) 0.8156(6) 0.0397(9)
F9 F 0.4225(6) 0.9217(3) 0.0427(9)
F10 F 0.4148(5) 0.8235(3) 0.0305(11)
F11 F 0.5238(7) 0.9188(7) 0.0772(8)
F12 F 0.4436(12) 0.8761(7) -0.0383(5)
loop_
_geom_bond_atom_site_label_1
_geom_bond_atom_site_label_2
_geom_bond_site_symmetry_1
_geom_bond_site_symmetry_2
Ag1 N3 1_555 1_555
Ag2 N1 1_555 1_555
Ag3 N2 1_555 1_555
N1 C7 1_555 1_555
N2 C12 1_555 1_555
N3 C5 1_555 1_555
N4 C3 1_555 1_555
N5 C8 1_555 1_555
N6 Ag1 1_555 1_555
N7 C1 1_555 1_555
N8 Ag1 1_555 1_555
C1 C18 1_555 1_555
N9 Ag1 1_555 1_555
N10 C24 1_555 1_555
N11 C19 1_555 1_555
C2 N6 1_555 1_555
H1 C2 1_555 1_555
N12 C16 1_555 1_555
C3 C8 1_555 1_555
C4 N9 1_555 1_555
C5 H2 1_555 1_555
C6 N3 1_555 1_555
H3 C6 1_555 1_555
C7 C5 1_555 1_555
H4 C7 1_555 1_555
C8 H5 1_555 1_555
C9 C3 1_555 1_555
H6 C9 1_555 1_555
H7 C9 1_555 1_555
C10 N5 1_555 1_555
H8 C10 1_555 1_555
C11 N1 1_555 1_555
C12 C18 1_555 1_555
C13 C4 1_555 1_555
H9 C13 1_555 1_555
H10 C13 1_555 1_555
C14 N8 1_555 1_555
C15 N2 1_555 1_555
H11 C15 1_555 1_555
C16 C15 1_555 1_555
H12 C16 1_555 1_555
C17 N4 1_555 1_555
H13 C17 1_555 1_555
C18 H14 1_555 1_555
H15 C18 1_555 1_555
C19 H16 1_555 1_555
C20 N7 1_555 1_555
H17 C20 1_555 1_555
C21 N9 1_555 1_555
H18 C21 1_555 1_555
C22 N6 1_555 1_555
H19 C22 1_555 1_555
C23 N11 1_555 1_555
H20 C23 1_555 1_555
C24 C14 1_555 1_555
H21 C24 1_555 1_555
C25 N8 1_555 1_555
H22 C25 1_555 1_555
C26 N12 1_555 1_555
H23 C26 1_555 1_555
C27 N10 1_555 1_555
H24 C27 1_555 1_555
P1 F1 1_555 1_555
F2 P1 1_555 1_555
F3 P1 1_555 1_555
F4 P1 1_555 1_555
F5 P1 1_555 1_555
F6 P1 1_555 1_555
P2 F7 1_555 1_555
F8 P2 1_555 1_555
F9 P2 1_555 1_555
F10 P2 1_555 1_555
F11 P2 1_555 1_555
F12 P2 1_555 1_555
Ag1A N3A 1_555 1_555
N1A Ag2 1_555 1_555
N2A C12A 1_555 1_555
N3A C5A 1_555 1_555
N4A C3A 1_555 1_555
N5A C8A 1_555 1_555
N6A Ag1A 1_555 1_555
N7A C1A 1_555 1_555
N8A Ag1A 1_555 1_555
C1A C18A 1_555 1_555
N9A Ag1A 1_555 1_555
N10A C24A 1_555 1_555
N11A C19A 1_555 1_555
C2A N6A 1_555 1_555
H1A C2A 1_555 1_555
N12A C16A 1_555 1_555
C3A C8A 1_555 1_555
C4A N9A 1_555 1_555
C5A H2A 1_555 1_555
C6A N3A 1_555 1_555
H3A C6A 1_555 1_555
C7A N1A 1_555 1_555
H4A C7A 1_555 1_555
C8A H5A 1_555 1_555
C9A C3A 1_555 1_555
H6A C9A 1_555 1_555
H7A C9A 1_555 1_555
C10A N5A 1_555 1_555
H8A C10A 1_555 1_555
C11A N1A 1_555 1_555
C12A C18A 1_555 1_555
C13A C4A 1_555 1_555
H9A C13A 1_555 1_555
H10A C13A 1_555 1_555
C14A N8A 1_555 1_555
C15A N2A 1_555 1_555
H11A C15A 1_555 1_555
C16A C15A 1_555 1_555
H12A C16A 1_555 1_555
C17A N4A 1_555 1_555
H13A C17A 1_555 1_555
C18A H14A 1_555 1_555
H15A C18A 1_555 1_555
C19A H16A 1_555 1_555
C20A N7A 1_555 1_555
H17A C20A 1_555 1_555
C21A N9A 1_555 1_555
H18A C21A 1_555 1_555
C22A N6A 1_555 1_555
H19A C22A 1_555 1_555
C23A N11A 1_555 1_555
H20A C23A 1_555 1_555
C24A C14A 1_555 1_555
H21A C24A 1_555 1_555
C25A N8A 1_555 1_555
H22A C25A 1_555 1_555
C26A N12A 1_555 1_555
H23A C26A 1_555 1_555
C27A N10A 1_555 1_555
H24A C27A 1_555 1_555
Ag1F N5 1_555 1_555
Ag1G N5A 1_555 1_555
Ag2D N10A 1_555 1_555
Ag2D_2 N10 1_555 1_555
Ag3_2 N2A 1_555 1_555
Ag3B N11A 1_555 1_555
Ag3B_2 N11 1_555 1_555
N2A_2 Ag3 1_555 1_555
N5F Ag1 1_555 1_555
N5G Ag1A 1_555 1_555
N10D Ag2 1_555 1_555
N10E Ag2 1_555 1_555
N11B Ag3 1_555 1_555
N11C Ag3 1_555 1_555
C1 C22 1_555 1_555
C2 C20 1_555 1_555
C4 C23 1_555 1_555
C6 C11 1_555 1_555
C9 C11 1_555 1_555
C10 C17 1_555 1_555
C12 C26 1_555 1_555
C13 C14 1_555 1_555
C19 C21 1_555 1_555
C25 C27 1_555 1_555
C1A C22A 1_555 1_555
C2A C20A 1_555 1_555
C4A C23A 1_555 1_555
C5A C7A 1_555 1_555
C6A C11A 1_555 1_555
C9A C11A 1_555 1_555
C10A C17A 1_555 1_555
C12A C26A 1_555 1_555
C13A C14A 1_555 1_555
C19A C21A 1_555 1_555
C25A C27A 1_555 1_555

#END
