
#######################################################################
#
#                 Cambridge Crystallographic Data Centre
#                                CCDC 
#
#######################################################################
#
# If this CIF has been generated from an entry in the Cambridge 
# Structural Database, then it will include bibliographic, chemical, 
# crystal, experimental, refinement or atomic coordinate data resulting 
# from the CCDC's data processing and validation procedures.
#
#######################################################################

data_BUXTUL
_chemical_formula_moiety         '(C50 H50 Ag4 B4 Cl10 F16 N20)n'
_symmetry_cell_setting           monoclinic
_symmetry_space_group_name_H-M   'P 21/c'
_symmetry_Int_Tables_number      14
_space_group_name_Hall           '-P 2ybc'
loop_
_symmetry_equiv_pos_site_id
_symmetry_equiv_pos_as_xyz
1 x,y,z
2 -x,1/2+y,1/2-z
3 -x,-y,-z
4 x,1/2-y,1/2+z
_cell_length_a                   24.4586(5)
_cell_length_b                   12.1823(2)
_cell_length_c                   25.8229(6)
_cell_angle_alpha                90
_cell_angle_beta                 103.108(2)
_cell_angle_gamma                90
_cell_volume                     7493.76
loop_
_atom_site_label
_atom_site_type_symbol
_atom_site_fract_x
_atom_site_fract_y
_atom_site_fract_z
Ag1 Ag 0.331278(14) 0.67716(3) 0.412064(14)
Ag2 Ag 0.164224(15) 0.32384(3) 0.549999(13)
Ag3 Ag 0.065152(15) 0.67668(3) 0.193037(13)
Ag4 Ag 0.53170(15) 0.8249(3) 0.67618(14)
N1 N 0.4895(3) 1.1676(4) 0.7738(2)
N2 N 0.10918(18) 0.8420(3) 0.15142(15)
C1 C 0.19462(18) 0.6716(3) 0.35629(17)
N3 N 0.27723(16) 0.5797(3) 0.46142(15)
C2 C 0.19207(19) 0.6731(4) 0.41439(17)
H1 H 0.2088 0.7429 0.4302
H2 H 0.1521 0.6733 0.4163
N4 N 0.14648(16) 0.6795(3) 0.26486(15)
N5 N 0.10992(17) 0.5104(3) 0.14304(15)
N6 N -0.00888(16) 0.7168(3) 0.11344(14)
C3 C 0.00360(18) 0.7558(3) 0.06927(16)
N7 N -0.0126(2) 0.3216(3) 0.26048(17)
N8 N -0.09272(17) 0.7904(3) 0.02927(15)
N9 N 0.14928(17) 0.3231(3) 0.10072(15)
N10 N 0.01794(17) 0.5166(3) 0.21777(15)
N11 N 0.24429(17) 0.6809(3) 0.34441(16)
N12 N 0.58566(19) 0.9726(3) 0.64362(18)
C4 C 0.14595(19) 0.6698(4) 0.31605(18)
H3 H 0.1109 0.6613 0.3255
N13 N 0.13354(17) 1.0336(3) 0.10070(15)
N14 N 0.21615(17) 0.4197(3) 0.50053(16)
N15 N 0.5980(3) 0.6811(5) 0.6499(2)
C5 C 0.49114(19) 0.7353(3) 0.55388(17)
N16 N 0.5083(3) 0.9744(3) 0.72290(18)
N17 N 0.47146(18) 0.7697(3) 0.59516(15)
C6 C 0.1968(2) 0.6906(4) 0.25370(19)
H4 H 0.1993 0.6988 0.2177
C7 C 0.00945(19) 0.4242(3) 0.18909(17)
C8 C 0.09495(18) 0.8539(4) 0.09821(16)
C9 C 0.22099(18) 0.5801(4) 0.44788(16)
C10 C 0.01613(19) 0.4281(4) 0.13251(16)
H5 H -0.0048 0.3660 0.1125
H6 H -0.0007 0.4970 0.1157
C11 C 0.19073(19) 0.4990(4) 0.46773(17)
H7 H 0.1509 0.5001 0.4576
C12 C 0.6228(4) 0.6046(8) 0.6838(3)
H8 H 0.6337 0.6228 0.7205
C13 C 0.2722(2) 0.4194(4) 0.51260(19)
H9 H 0.2917 0.3632 0.5348
C14 C 0.0764(2) 0.4223(3) 0.12829(16)
C15 C 0.5535(2) 0.7344(4) 0.55912(18)
H10 H 0.5616 0.7184 0.5240
H11 H 0.5688 0.8080 0.5703
C16 C -0.1046(2) 0.7496(4) 0.07328(19)
H12 H -0.1427 0.7450 0.0759
C17 C 0.5821(2) 1.1603(4) 0.6200(2)
H13 H 0.5605 1.2256 0.6125
N18 N 0.39916(18) 0.7006(4) 0.50190(17)
C18 C 0.4965(2) 1.0666(4) 0.63787(18)
H14 H 0.4769 1.1323 0.6201
H15 H 0.4767 1.0006 0.6208
C19 C 0.2451(2) 0.6905(5) 0.2930(2)
H16 H 0.2802 0.6974 0.2835
C20 C 0.4868(3) 1.1636(4) 0.7213(2)
H17 H 0.4781 1.2289 0.7010
C21 C 0.5566(2) 1.0658(4) 0.63232(18)
C22 C 0.5934(2) 0.5456(4) 0.58347(19)
H18 H 0.5823 0.5266 0.5469
C23 C 0.06449(19) 0.7595(3) 0.06635(17)
H19 H 0.0669 0.7671 0.0288
H20 H 0.0829 0.6897 0.0801
C24 C 0.4961(2) 1.0680(4) 0.6956(2)
C25 C 0.4536(2) 0.6998(4) 0.50766(18)
H21 H 0.4684 0.6738 0.4790
C26 C 0.4156(2) 0.7709(5) 0.5894(2)
H22 H 0.4004 0.7966 0.6179
N19 N 0.6190(2) 0.4694(4) 0.61780(18)
C27 C 0.3798(2) 0.7361(5) 0.5436(2)
H23 H 0.3405 0.7372 0.5413
C28 C 0.3024(2) 0.4999(4) 0.4932(2)
H24 H 0.3422 0.4980 0.5030
C29 C -0.03885(19) 0.7938(4) 0.02761(17)
H25 H -0.0289 0.8232 -0.0031
C30 C 0.0971(2) 0.3288(3) 0.10801(18)
H26 H 0.0731 0.2670 0.0991
C31 C -0.0625(2) 0.7136(4) 0.11559(18)
H27 H -0.0724 0.6861 0.1467
C32 C 0.1468(2) 1.0229(4) 0.15341(19)
H28 H 0.1650 1.0821 0.1744
C33 C 0.10668(19) 0.9487(4) 0.07340(17)
H29 H 0.0953 0.9537 0.0358
C34 C 0.1619(2) 0.5026(4) 0.13659(19)
H30 H 0.1867 0.5629 0.1470
C35 C -0.0060(2) 0.3284(4) 0.2108(2)
H31 H -0.0123 0.2644 0.1892
C36 C -0.0040(2) 0.4150(4) 0.28843(18)
H32 H -0.0083 0.4151 0.3241
C37 C 0.0107(2) 0.5104(4) 0.26705(19)
H33 H 0.0159 0.5748 0.2884
C38 C 0.1821(2) 0.4102(4) 0.11523(19)
H34 H 0.2196 0.4093 0.1109
C39 C 0.6400(2) 0.9759(4) 0.6420(2)
H35 H 0.6618 0.9108 0.6493
C40 C 0.1350(2) 0.9286(4) 0.17867(18)
H36 H 0.1455 0.9250 0.2164
C41 C 0.5825(2) 0.6508(4) 0.59859(19)
C42 C 0.6654(2) 1.0712(4) 0.6299(2)
H37 H 0.7043 1.0708 0.6301
C43 C 0.5037(4) 1.0740(5) 0.8004(2)
H38 H 0.5079 1.0734 0.8379
C44 C 0.5125(4) 0.9790(5) 0.7753(3)
H39 H 0.5219 0.9142 0.7958
C45 C 0.6332(4) 0.5008(7) 0.6683(3)
H40 H 0.6512 0.4497 0.6945
N20 N 0.63616(18) 1.1627(3) 0.61817(19)
Ag1B Ag 0.668722(14) 0.32284(3) 0.587936(14)
Ag1B_2 Ag 0.668722(14) 1.32284(3) 0.587936(14)
Ag2A Ag -0.164224(15) 0.82384(3) -0.049999(13)
Ag2C Ag 0.164224(15) 0.17616(3) 0.049999(13)
Ag2C_2 Ag 0.164224(15) 1.17616(3) 0.049999(13)
Ag3A Ag -0.065152(15) 0.17668(3) 0.306963(13)
Ag4A Ag 0.46830(15) 1.3249(3) 0.82382(14)
N1A N 0.5105(3) 0.6676(4) 0.7262(2)
N7A N 0.0126(2) 0.8216(3) 0.23952(17)
N8A N 0.09272(17) 0.2904(3) 0.47073(15)
N9C N 0.14928(17) 0.1769(3) 0.60072(15)
N13C N 0.13354(17) 0.4664(3) 0.60070(15)
N19B N 0.3810(2) 0.5306(4) 0.38220(18)
N20B N 0.36384(18) 0.8373(3) 0.38183(19)
Cl1 Cl 0.72968(9) 0.8192(2) 0.85911(9)
Cl2 Cl 0.63526(12) 0.8392(2) 0.77091(10)
C46 C 0.6622(3) 0.7785(8) 0.8323(4)
H41 H 0.6382 0.7979 0.8570
H42 H 0.6613 0.6977 0.8281
Cl3 Cl 0.28989(11) 0.90496(18) 0.21858(9)
Cl4 Cl 0.25252(9) 0.85652(19) 0.10605(9)
C47 C 0.3115(3) 0.8713(6) 0.1597(3)
H43 H 0.3331 0.8018 0.1650
H44 H 0.3363 0.9298 0.1515
F1 F 0.06932(12) 0.5402(3) 0.38867(12)
F2 F 0.05668(15) 0.7005(3) 0.43009(15)
F3 F 0.02019(16) 0.5427(3) 0.45288(13)
B1 B 0.0324(2) 0.5999(4) 0.41116(19)
F4 F -0.01656(13) 0.6199(3) 0.37297(12)
Cl5 Cl 0.07962(7) 0.99592(11) 0.49496(5)
Cl6 Cl 0.18377(8) 0.86859(16) 0.51998(6)
C48 C 0.1326(3) 0.9324(6) 0.4699(2)
H45 H 0.1511 0.9881 0.4517
H46 H 0.1155 0.8767 0.4432
F5 F 0.47792(18) 1.3458(3) 0.61876(14)
F6 F 0.40448(16) 1.4627(3) 0.60839(15)
F7 F 0.40053(19) 1.3183(4) 0.5537(2)
F8 F 0.45742(19) 1.4566(3) 0.54819(16)
B2 B 0.4351(3) 1.3958(5) 0.5832(2)
Cl7 Cl 0.2964(2) 0.0989(6) 0.4804(2)
Cl8 Cl 0.41252(18) 0.0084(2) 0.50511(10)
C49 C 0.3559(6) 0.0647(12) 0.5303(5)
H47 H 0.3448 0.0107 0.5547
H48 H 0.3694 0.1314 0.5512
F9 F 0.3076(3) 0.5838(5) 0.1284(2)
B3 B 0.3348(3) 0.5482(6) 0.1761(3)
F10 F 0.3665(3) 0.6292(5) 0.2046(3)
F11 F 0.3018(3) 0.4982(9) 0.2017(2)
F12 F 0.3730(3) 0.4751(7) 0.1689(4)
Cl11 Cl 0.2501(2) 0.3436(4) 0.36703(18)
Cl12 Cl 0.1657(4) 0.3750(6) 0.2750(4)
C51 C 0.2129(6) 0.2907(10) 0.3059(5)
H51 H 0.2396 0.2745 0.2833
H52 H 0.1947 0.2210 0.3122
F13 F 0.1743(3) 0.0834(4) 0.3703(2)
F14 F 0.2033(3) -0.0080(9) 0.3063(2)
F15 F 0.2033(3) -0.0754(6) 0.3800(4)
F16 F 0.1239(3) -0.0600(10) 0.3345(5)
B4 B 0.1733(5) -0.0094(11) 0.3428(5)
loop_
_geom_bond_atom_site_label_1
_geom_bond_atom_site_label_2
_geom_bond_site_symmetry_1
_geom_bond_site_symmetry_2
Ag1 N3 1_555 1_555
Ag2 N14 1_555 1_555
Ag3 N2 1_555 1_555
Ag4 N12 1_555 1_555
N1 C20 1_555 1_555
N2 C8 1_555 1_555
C1 C2 1_555 1_555
N3 C9 1_555 1_555
C2 H1 1_555 1_555
H2 C2 1_555 1_555
N4 Ag3 1_555 1_555
N5 C14 1_555 1_555
N6 Ag3 1_555 1_555
C3 N6 1_555 1_555
N7 C35 1_555 1_555
N8 C16 1_555 1_555
N9 C30 1_555 1_555
N10 Ag3 1_555 1_555
N11 Ag1 1_555 1_555
N12 C21 1_555 1_555
C4 C1 1_555 1_555
H3 C4 1_555 1_555
N13 C32 1_555 1_555
N14 C11 1_555 1_555
N15 Ag4 1_555 1_555
C5 N17 1_555 1_555
N16 Ag4 1_555 1_555
N17 Ag4 1_555 1_555
C6 N4 1_555 1_555
H4 C6 1_555 1_555
C7 N10 1_555 1_555
C8 C23 1_555 1_555
C9 C2 1_555 1_555
C10 C7 1_555 1_555
H5 C10 1_555 1_555
H6 C10 1_555 1_555
C11 C9 1_555 1_555
H7 C11 1_555 1_555
C12 N15 1_555 1_555
H8 C12 1_555 1_555
C13 N14 1_555 1_555
H9 C13 1_555 1_555
C14 C10 1_555 1_555
C15 C5 1_555 1_555
H10 C15 1_555 1_555
H11 C15 1_555 1_555
C16 H12 1_555 1_555
C17 H13 1_555 1_555
N18 Ag1 1_555 1_555
C18 H14 1_555 1_555
H15 C18 1_555 1_555
C19 N11 1_555 1_555
H16 C19 1_555 1_555
C20 H17 1_555 1_555
C21 C17 1_555 1_555
C22 H18 1_555 1_555
C23 C3 1_555 1_555
H19 C23 1_555 1_555
H20 C23 1_555 1_555
C24 N16 1_555 1_555
C25 C5 1_555 1_555
H21 C25 1_555 1_555
C26 N17 1_555 1_555
H22 C26 1_555 1_555
N19 C22 1_555 1_555
C27 N18 1_555 1_555
H23 C27 1_555 1_555
C28 N3 1_555 1_555
H24 C28 1_555 1_555
C29 C3 1_555 1_555
H25 C29 1_555 1_555
C30 C14 1_555 1_555
H26 C30 1_555 1_555
C31 N6 1_555 1_555
H27 C31 1_555 1_555
C32 H28 1_555 1_555
C33 N13 1_555 1_555
H29 C33 1_555 1_555
C34 N5 1_555 1_555
H30 C34 1_555 1_555
C35 C7 1_555 1_555
H31 C35 1_555 1_555
C36 N7 1_555 1_555
H32 C36 1_555 1_555
C37 N10 1_555 1_555
H33 C37 1_555 1_555
C38 N9 1_555 1_555
H34 C38 1_555 1_555
C39 N12 1_555 1_555
H35 C39 1_555 1_555
C40 N2 1_555 1_555
H36 C40 1_555 1_555
C41 N15 1_555 1_555
C42 C39 1_555 1_555
H37 C42 1_555 1_555
C43 N1 1_555 1_555
H38 C43 1_555 1_555
C44 N16 1_555 1_555
H39 C44 1_555 1_555
C45 C12 1_555 1_555
H40 C45 1_555 1_555
N20 C17 1_555 1_555
Cl1 C46 1_555 1_555
Cl2 C46 1_555 1_555
C46 H41 1_555 1_555
H42 C46 1_555 1_555
Cl3 C47 1_555 1_555
Cl4 C47 1_555 1_555
C47 H43 1_555 1_555
H44 C47 1_555 1_555
F1 B1 1_555 1_555
F2 B1 1_555 1_555
F3 B1 1_555 1_555
B1 F4 1_555 1_555
Cl5 C48 1_555 1_555
Cl6 C48 1_555 1_555
C48 H45 1_555 1_555
H46 C48 1_555 1_555
F5 B2 1_555 1_555
F6 B2 1_555 1_555
F7 B2 1_555 1_555
F8 B2 1_555 1_555
Cl7 C49 1_555 1_555
Cl8 C49 1_555 1_555
C49 H47 1_555 1_555
H48 C49 1_555 1_555
F9 B3 1_555 1_555
B3 F10 1_555 1_555
F11 B3 1_555 1_555
F12 B3 1_555 1_555
Cl11 C51 1_555 1_555
Cl12 C51 1_555 1_555
C51 H51 1_555 1_555
H52 C51 1_555 1_555
F13 B4 1_555 1_555
F14 B4 1_555 1_555
F15 B4 1_555 1_555
F16 B4 1_555 1_555
Ag1B N19 1_555 1_555
Ag1B_2 N20 1_555 1_555
Ag2A N8 1_555 1_555
Ag2C N9 1_555 1_555
Ag2C_2 N13 1_555 1_555
Ag3A N7 1_555 1_555
Ag4A N1 1_555 1_555
N1A Ag4 1_555 1_555
N7A Ag3 1_555 1_555
N8A Ag2 1_555 1_555
N9C Ag2 1_555 1_555
N13C Ag2 1_555 1_555
N19B Ag1 1_555 1_555
N20B Ag1 1_555 1_555
C1 N11 1_555 1_555
N4 C4 1_555 1_555
N8 C29 1_555 1_555
C6 C19 1_555 1_555
C8 C33 1_555 1_555
C13 C28 1_555 1_555
C15 C41 1_555 1_555
C16 C31 1_555 1_555
N18 C25 1_555 1_555
C18 C21 1_555 1_555
C18 C24 1_555 1_555
C20 C24 1_555 1_555
C22 C41 1_555 1_555
C26 C27 1_555 1_555
N19 C45 1_555 1_555
C32 C40 1_555 1_555
C34 C38 1_555 1_555
C36 C37 1_555 1_555
C42 N20 1_555 1_555
C43 C44 1_555 1_555

#END
