
#######################################################################
#
#                 Cambridge Crystallographic Data Centre
#                                CCDC 
#
#######################################################################
#
# If this CIF has been generated from an entry in the Cambridge 
# Structural Database, then it will include bibliographic, chemical, 
# crystal, experimental, refinement or atomic coordinate data resulting 
# from the CCDC's data processing and validation procedures.
#
#######################################################################

data_OVOKOB
_chemical_formula_moiety         '(C48 H26 N2 O10 Zn3)n'
_symmetry_cell_setting           rhombohedral
_symmetry_space_group_name_H-M   'R -3 c'
_symmetry_Int_Tables_number      167
_space_group_name_Hall           '-R 3 2"c'
loop_
_symmetry_equiv_pos_site_id
_symmetry_equiv_pos_as_xyz
1 x,y,z
2 -y,x-y,z
3 -x+y,-x,z
4 y,x,1/2-z
5 x-y,-y,1/2-z
6 -x,-x+y,1/2-z
7 2/3+x,1/3+y,1/3+z
8 2/3-y,1/3+x-y,1/3+z
9 2/3-x+y,1/3-x,1/3+z
10 2/3+y,1/3+x,5/6-z
11 2/3+x-y,1/3-y,5/6-z
12 2/3-x,1/3-x+y,5/6-z
13 1/3+x,2/3+y,2/3+z
14 1/3-y,2/3+x-y,2/3+z
15 1/3-x+y,2/3-x,2/3+z
16 1/3+y,2/3+x,1/6-z
17 1/3+x-y,2/3-y,1/6-z
18 1/3-x,2/3-x+y,1/6-z
19 -x,-y,-z
20 y,-x+y,-z
21 x-y,x,-z
22 -y,-x,1/2+z
23 -x+y,y,1/2+z
24 x,x-y,1/2+z
25 1/3-x,2/3-y,2/3-z
26 1/3+y,2/3-x+y,2/3-z
27 1/3+x-y,2/3+x,2/3-z
28 1/3-y,2/3-x,1/6+z
29 1/3-x+y,2/3+y,1/6+z
30 1/3+x,2/3+x-y,1/6+z
31 2/3-x,1/3-y,1/3-z
32 2/3+y,1/3-x+y,1/3-z
33 2/3+x-y,1/3+x,1/3-z
34 2/3-y,1/3-x,5/6+z
35 2/3-x+y,1/3+y,5/6+z
36 2/3+x,1/3+x-y,5/6+z
_cell_length_a                   47.239(2)
_cell_length_b                   47.239(2)
_cell_length_c                   27.1216(12)
_cell_angle_alpha                90
_cell_angle_beta                 90
_cell_angle_gamma                120
_cell_volume                     52414
loop_
_atom_site_label
_atom_site_type_symbol
_atom_site_fract_x
_atom_site_fract_y
_atom_site_fract_z
_atom_site_U_iso_or_equiv
_atom_site_thermal_displace_type
Zn1 Zn 0.3333 0.29749(4) 0.4167 0.1221 Uani
O1 O 0.36828(13) 0.35645(14) 0.55433(18) 0.0823 Uani
O2 O 0.31868(16) 0.38338(16) 0.1278(2) 0.1024 Uani
O3 O 0.35169(18) 0.32729(17) 0.46856(19) 0.1059 Uani
N1 N 0.33312(17) 0.37688(18) 0.2060(2) 0.0796 Uani
C1 C 0.3769(2) 0.3762(3) 0.5144(3) 0.0748 Uani
C2 C 0.3672(2) 0.3601(3) 0.4688(4) 0.0900 Uani
C3 C 0.3771(2) 0.3788(3) 0.4267(3) 0.0879 Uani
H1 H 0.3721 0.3684 0.3962 0.1050 Uiso
C4 C 0.3522(2) 0.3913(3) 0.2440(3) 0.0830 Uani
H2 H 0.3490 0.3782 0.2714 0.0990 Uiso
C5 C 0.3945(2) 0.4131(3) 0.4284(3) 0.0909 Uani
C6 C 0.3373(2) 0.3970(3) 0.1666(3) 0.0896 Uani
C7 C 0.4464(2) 0.4762(2) 0.3324(3) 0.0944 Uani
C8 C 0.4048(2) 0.4306(2) 0.3805(3) 0.0869 Uani
C9 C 0.3757(3) 0.4229(3) 0.2477(3) 0.1038 Uani
C10 C 0.3959(2) 0.4354(2) 0.2930(3) 0.0869 Uani
C11 C 0.4272(2) 0.4642(2) 0.2915(3) 0.0973 Uani
H3 H 0.4347 0.4753 0.2617 0.1170 Uiso
C12 C 0.4345(2) 0.4590(2) 0.3767(3) 0.0926 Uani
H4 H 0.4473 0.4672 0.4049 0.1110 Uiso
C13 C 0.3856(2) 0.4204(2) 0.3394(3) 0.1012 Uani
H5 H 0.3646 0.4025 0.3422 0.1210 Uiso
C14 C 0.3928(3) 0.4086(3) 0.5166(3) 0.1079 Uani
H6 H 0.3978 0.4190 0.5471 0.1300 Uiso
C15 C 0.4020(2) 0.4272(2) 0.4735(3) 0.1061 Uani
H7 H 0.4137 0.4499 0.4758 0.1270 Uiso
C16 C 0.3610(3) 0.4289(3) 0.1674(4) 0.1400 Uani
H8 H 0.3640 0.4420 0.1401 0.1680 Uiso
C17 C 0.3805(3) 0.4420(3) 0.2074(3) 0.1328 Uani
H9 H 0.3969 0.4638 0.2073 0.1590 Uiso
Zn2 Zn 0.36540(3) 0.35974(3) 0.62833(4) 0.0831 Uani
O4 O 0.5887(5) 0.6061(5) 0.3595(7) 0.1070 Uiso
C18 C 0.4784(3) 0.5353(3) 0.3097(4) 0.0949 Uiso
H10 H 0.4606 0.5331 0.2919 0.1140 Uiso
C19 C 0.4760(3) 0.5088(2) 0.3355(5) 0.0949 Uiso
C20 C 0.5026(3) 0.5120(3) 0.3621(4) 0.0949 Uiso
H11 H 0.5009 0.4942 0.3793 0.1140 Uiso
C21 C 0.5074(3) 0.5651(3) 0.3105(4) 0.0949 Uiso
H12 H 0.5091 0.5829 0.2932 0.1140 Uiso
C22 C 0.5316(3) 0.5418(3) 0.3629(4) 0.0949 Uiso
H13 H 0.5494 0.5440 0.3807 0.1140 Uiso
C23 C 0.5340(2) 0.5683(3) 0.3371(5) 0.0949 Uiso
C24 C 0.5661(4) 0.5993(4) 0.3426(7) 0.0949 Uiso
O5 O 0.5666(3) 0.6212(3) 0.3127(5) 0.1070 Uiso
O1C O 0.35645(14) 0.36828(13) -0.05433(18) 0.0823 Uani
O2C O 0.38338(16) 0.31868(16) 0.3722(2) 0.1024 Uani
O3C O 0.32729(17) 0.35169(18) 0.03144(19) 0.1059 Uani
N1C N 0.37688(18) 0.33312(17) 0.2940(2) 0.0796 Uani
C1C C 0.3762(3) 0.3769(2) -0.0144(3) 0.0748 Uani
C2C C 0.3601(3) 0.3672(2) 0.0312(4) 0.0900 Uani
C3C C 0.3788(3) 0.3771(2) 0.0733(3) 0.0879 Uani
H1C H 0.3684 0.3721 0.1038 0.1050 Uiso
C4C C 0.3913(3) 0.3522(2) 0.2560(3) 0.0830 Uani
H2C H 0.3782 0.3490 0.2286 0.0990 Uiso
C5C C 0.4131(3) 0.3945(2) 0.0716(3) 0.0909 Uani
C6C C 0.3970(3) 0.3373(2) 0.3334(3) 0.0896 Uani
C7C C 0.4762(2) 0.4464(2) 0.1676(3) 0.0944 Uani
C8C C 0.4306(2) 0.4048(2) 0.1195(3) 0.0869 Uani
C9C C 0.4229(3) 0.3757(3) 0.2523(3) 0.1038 Uani
C10C C 0.4354(2) 0.3959(2) 0.2070(3) 0.0869 Uani
C11C C 0.4642(2) 0.4272(2) 0.2085(3) 0.0973 Uani
H3C H 0.4753 0.4347 0.2383 0.1170 Uiso
C12C C 0.4590(2) 0.4345(2) 0.1233(3) 0.0926 Uani
H4C H 0.4672 0.4473 0.0951 0.1110 Uiso
C13C C 0.4204(2) 0.3856(2) 0.1606(3) 0.1012 Uani
H5C H 0.4025 0.3646 0.1578 0.1210 Uiso
C14C C 0.4086(3) 0.3928(3) -0.0166(3) 0.1079 Uani
H6C H 0.4190 0.3978 -0.0471 0.1300 Uiso
C15C C 0.4272(2) 0.4020(2) 0.0265(3) 0.1061 Uani
H7C H 0.4499 0.4137 0.0242 0.1270 Uiso
C16C C 0.4289(3) 0.3610(3) 0.3326(4) 0.1400 Uani
H8C H 0.4420 0.3640 0.3599 0.1680 Uiso
C17C C 0.4420(3) 0.3805(3) 0.2926(3) 0.1328 Uani
H9C H 0.4638 0.3969 0.2927 0.1590 Uiso
Zn2C Zn 0.35974(3) 0.36540(3) -0.12833(4) 0.0831 Uani
O4C O 0.6061(5) 0.5887(5) 0.1405(7) 0.1070 Uiso
C18C C 0.5353(3) 0.4784(3) 0.1903(4) 0.0949 Uiso
H10C H 0.5331 0.4606 0.2081 0.1140 Uiso
C19C C 0.5088(2) 0.4760(3) 0.1645(5) 0.0949 Uiso
C20C C 0.5120(3) 0.5026(3) 0.1379(4) 0.0949 Uiso
H11C H 0.4942 0.5009 0.1207 0.1140 Uiso
C21C C 0.5651(3) 0.5074(3) 0.1895(4) 0.0949 Uiso
H12C H 0.5829 0.5091 0.2068 0.1140 Uiso
C22C C 0.5418(3) 0.5316(3) 0.1371(4) 0.0949 Uiso
H13C H 0.5440 0.5494 0.1193 0.1140 Uiso
C23C C 0.5683(3) 0.5340(2) 0.1629(5) 0.0949 Uiso
C24C C 0.5993(4) 0.5661(4) 0.1574(7) 0.0949 Uiso
O5C O 0.6212(3) 0.5666(3) 0.1873(5) 0.1070 Uiso
Zn1C Zn 0.29749(4) 0.3333 0.0833 0.1221 Uani
O1G O 0.31022(14) 0.34516(19) -0.11234(18) 0.0823 Uani
O1P O 0.34516(19) 0.31022(14) 0.61234(18) 0.0823 Uani
O2G O 0.28329(16) 0.26863(23) 0.4611(2) 0.1024 Uani
O3G O 0.33938(17) 0.35773(25) -0.19811(19) 0.1059 Uani
O3K O 0.31498(18) 0.30893(25) 0.36477(19) 0.1059 Uani
O3P O 0.35773(25) 0.33938(17) 0.69811(19) 0.1059 Uani
N1K N 0.33355(17) 0.37709(25) 0.6273(2) 0.0796 Uani
N1N N 0.37709(25) 0.33355(17) -0.1273(2) 0.0796 Uani
Zn2G Zn 0.30693(3) 0.33899(4) -0.03834(4) 0.0831 Uani
Zn2K Zn 0.30127(3) 0.32767(4) 0.20500(4) 0.0831 Uani
Zn2N Zn 0.32767(4) 0.30127(3) 0.29500(4) 0.0831 Uani
Zn2P Zn 0.33899(4) 0.30693(3) 0.53834(4) 0.0831 Uani
Zn2R Zn 0.63460(3) 0.64026(3) 0.37167(4) 0.0831 Uani
Zn2U Zn 0.64026(3) 0.63460(3) 0.12833(4) 0.0831 Uani
O4R O 0.4113(5) 0.3939(5) 0.6405(7) 0.1070 Uiso
O4U O 0.3939(5) 0.4113(5) -0.1405(7) 0.1070 Uiso
loop_
_atom_site_aniso_label
_atom_site_aniso_U_11
_atom_site_aniso_U_22
_atom_site_aniso_U_33
_atom_site_aniso_U_23
_atom_site_aniso_U_13
_atom_site_aniso_U_12
Zn1 0.236(2) 0.1356(12) 0.0281(13) -0.0149(5) -0.0299(11) 0.1180(12)
O1 0.113(5) 0.112(5) 0.007(4) 0.000(3) -0.006(3) 0.045(4)
O2 0.142(5) 0.135(5) 0.030(4) 0.002(3) -0.027(3) 0.069(4)
O3 0.183(6) 0.100(5) 0.015(3) 0.000(3) -0.004(3) 0.056(5)
N1 0.101(5) 0.127(6) 0.012(4) 0.001(4) -0.011(3) 0.058(5)
C1 0.083(6) 0.104(6) 0.023(5) 0.001(4) -0.001(4) 0.036(5)
C2 0.129(8) 0.099(6) 0.022(5) 0.000(4) -0.017(4) 0.042(5)
C3 0.123(7) 0.110(6) 0.029(5) 0.010(4) -0.009(5) 0.057(5)
C4 0.111(7) 0.125(7) 0.017(5) -0.005(4) -0.007(4) 0.062(5)
C5 0.122(7) 0.108(6) 0.030(4) 0.012(4) -0.009(4) 0.048(5)
C6 0.114(7) 0.131(7) 0.018(5) 0.000(5) -0.023(4) 0.057(6)
C7 0.115(7) 0.117(7) 0.042(5) 0.009(5) -0.010(4) 0.051(6)
C8 0.113(7) 0.099(6) 0.030(4) 0.009(4) -0.004(4) 0.039(5)
C9 0.141(8) 0.118(7) 0.034(5) 0.004(5) -0.028(5) 0.051(6)
C10 0.121(6) 0.098(6) 0.034(4) 0.007(4) -0.004(4) 0.049(5)
C11 0.121(7) 0.100(7) 0.048(5) 0.005(5) -0.008(5) 0.038(5)
C12 0.112(7) 0.103(7) 0.047(5) -0.002(4) -0.011(5) 0.042(5)
C13 0.123(7) 0.112(7) 0.041(5) 0.006(4) -0.013(4) 0.038(6)
C14 0.168(9) 0.094(6) 0.017(5) 0.003(4) -0.004(5) 0.032(6)
C15 0.148(9) 0.098(6) 0.029(5) 0.007(4) 0.005(5) 0.029(6)
C16 0.182(10) 0.131(7) 0.048(6) 0.018(5) -0.051(6) 0.034(6)
C17 0.176(9) 0.131(7) 0.045(5) 0.019(5) -0.036(6) 0.042(7)
Zn2 0.1126 0.1062 0.0149 0.0035 -0.0026 0.0431
O1C 0.112 0.113 0.007 0.006 0 0.045
O2C 0.135 0.142 0.03 0.027 -0.002 0.069
O3C 0.1 0.183 0.015 0.004 0 0.056
N1C 0.127 0.101 0.012 0.011 -0.001 0.058
C1C 0.104 0.083 0.023 0.001 -0.001 0.036
C2C 0.099 0.129 0.022 0.017 0 0.042
C3C 0.11 0.123 0.029 0.009 -0.01 0.057
C4C 0.125 0.111 0.017 0.007 0.005 0.062
C5C 0.108 0.122 0.03 0.009 -0.012 0.048
C6C 0.131 0.114 0.018 0.023 0 0.057
C7C 0.117 0.115 0.042 0.01 -0.009 0.051
C8C 0.099 0.113 0.03 0.004 -0.009 0.039
C9C 0.118 0.141 0.034 0.028 -0.004 0.051
C10C 0.098 0.121 0.034 0.004 -0.007 0.049
C11C 0.1 0.121 0.048 0.008 -0.005 0.038
C12C 0.103 0.112 0.047 0.011 0.002 0.042
C13C 0.112 0.123 0.041 0.013 -0.006 0.038
C14C 0.094 0.168 0.017 0.004 -0.003 0.032
C15C 0.098 0.148 0.029 -0.005 -0.007 0.029
C16C 0.131 0.182 0.048 0.051 -0.018 0.034
C17C 0.131 0.176 0.045 0.036 -0.019 0.042
Zn2C 0.1062 0.1126 0.0149 0.0026 -0.0035 0.0431
Zn1C 0.1356 0.236 0.0281 0.0299 0.0149 0.118
O1G 0.112 0.135 0.007 -0.006 0 0.067
O1P 0.135 0.112 0.007 0 0.006 0.067
O2G 0.135 0.139 0.03 -0.029 -0.002 0.066
O3G 0.1 0.171 0.015 -0.004 0 0.044
O3K 0.183 0.171 0.015 -0.004 -0.004 0.127
O3P 0.171 0.1 0.015 0 0.004 0.044
N1K 0.101 0.112 0.012 -0.012 -0.011 0.043
N1N 0.112 0.101 0.012 0.011 0.012 0.043
Zn2G 0.1062 0.1326 0.0149 -0.0061 -0.0035 0.0631
Zn2K 0.1126 0.1326 0.0149 -0.0061 -0.0026 0.0695
Zn2N 0.1326 0.1126 0.0149 0.0026 0.0061 0.0695
Zn2P 0.1326 0.1062 0.0149 0.0035 0.0061 0.0631
Zn2R 0.1126 0.1062 0.0149 0.0035 -0.0026 0.0431
Zn2U 0.1062 0.1126 0.0149 0.0026 -0.0035 0.0431
loop_
_geom_bond_atom_site_label_1
_geom_bond_atom_site_label_2
_geom_bond_site_symmetry_1
_geom_bond_site_symmetry_2
Zn1 O3 1_555 1_555
O1 C1 1_555 1_555
O2 C6 1_555 1_555
O3 C2 1_555 1_555
N1 C4 1_555 1_555
C1 C2 1_555 1_555
C2 C3 1_555 1_555
C3 H1 1_555 1_555
C4 H2 1_555 1_555
C5 C3 1_555 1_555
C6 N1 1_555 1_555
C7 C11 1_555 1_555
C8 C5 1_555 1_555
C9 C4 1_555 1_555
C10 C9 1_555 1_555
C11 C10 1_555 1_555
H3 C11 1_555 1_555
C12 C7 1_555 1_555
H4 C12 1_555 1_555
C13 C8 1_555 1_555
H5 C13 1_555 1_555
C14 C1 1_555 1_555
H6 C14 1_555 1_555
C15 C5 1_555 1_555
H7 C15 1_555 1_555
C16 C6 1_555 1_555
H8 C16 1_555 1_555
C17 C9 1_555 1_555
H9 C17 1_555 1_555
Zn2 O1 1_555 1_555
O4 C24 1_555 1_555
C18 H10 1_555 1_555
C19 C7 1_555 1_555
C20 C19 1_555 1_555
H11 C20 1_555 1_555
C21 C18 1_555 1_555
H12 C21 1_555 1_555
C22 C20 1_555 1_555
H13 C22 1_555 1_555
C23 C21 1_555 1_555
C24 C23 1_555 1_555
O5 C24 1_555 1_555
O1C C1C 1_555 1_555
O2C Zn1 1_555 1_555
O3C C2C 1_555 1_555
N1C C4C 1_555 1_555
C1C C2C 1_555 1_555
C2C C3C 1_555 1_555
C3C H1C 1_555 1_555
C4C H2C 1_555 1_555
C5C C3C 1_555 1_555
C6C O2C 1_555 1_555
C7C C11C 1_555 1_555
C8C C5C 1_555 1_555
C9C C4C 1_555 1_555
C10C C9C 1_555 1_555
C11C C10C 1_555 1_555
H3C C11C 1_555 1_555
C12C C7C 1_555 1_555
H4C C12C 1_555 1_555
C13C C8C 1_555 1_555
H5C C13C 1_555 1_555
C14C C1C 1_555 1_555
H6C C14C 1_555 1_555
C15C C5C 1_555 1_555
H7C C15C 1_555 1_555
C16C C6C 1_555 1_555
H8C C16C 1_555 1_555
C17C C9C 1_555 1_555
H9C C17C 1_555 1_555
Zn2C O1C 1_555 1_555
O4C C24C 1_555 1_555
C18C H10C 1_555 1_555
C19C C7C 1_555 1_555
C20C C19C 1_555 1_555
H11C C20C 1_555 1_555
C21C C18C 1_555 1_555
H12C C21C 1_555 1_555
C22C C20C 1_555 1_555
H13C C22C 1_555 1_555
C23C C21C 1_555 1_555
C24C C23C 1_555 1_555
O5C C24C 1_555 1_555
Zn1C O2 1_555 1_555
O1G Zn2C 1_555 1_555
O1P Zn2 1_555 1_555
O2G Zn1 1_555 1_555
O3G Zn2C 1_555 1_555
O3K Zn1 1_555 1_555
O3P Zn2 1_555 1_555
N1K Zn2 1_555 1_555
N1N Zn2C 1_555 1_555
Zn2G O1C 1_555 1_555
Zn2K N1 1_555 1_555
Zn2N N1C 1_555 1_555
Zn2P O1 1_555 1_555
Zn2R O4 1_555 1_555
Zn2U O4C 1_555 1_555
O4R Zn2 1_555 1_555
O4U Zn2C 1_555 1_555
O3 Zn2P 1_555 1_555
C8 C12 1_555 1_555
C10 C13 1_555 1_555
C14 C15 1_555 1_555
C16 C17 1_555 1_555
C18 C19 1_555 1_555
C22 C23 1_555 1_555
O3C Zn1C 1_555 1_555
O3C Zn2G 1_555 1_555
N1C C6C 1_555 1_555
C8C C12C 1_555 1_555
C10C C13C 1_555 1_555
C14C C15C 1_555 1_555
C16C C17C 1_555 1_555
C18C C19C 1_555 1_555
C22C C23C 1_555 1_555
O1G Zn2G 1_555 1_555
O1P Zn2P 1_555 1_555
O3K Zn2N 1_555 1_555

#END
