
#######################################################################
#
#                 Cambridge Crystallographic Data Centre
#                                CCDC 
#
#######################################################################
#
# If this CIF has been generated from an entry in the Cambridge 
# Structural Database, then it will include bibliographic, chemical, 
# crystal, experimental, refinement or atomic coordinate data resulting 
# from the CCDC's data processing and validation procedures.
#
#######################################################################

data_LEDLEN
_chemical_formula_moiety         '(C34 H32 Cu2 N2 O13)n'
_symmetry_cell_setting           monoclinic
_symmetry_space_group_name_H-M   'C 2/c'
_symmetry_Int_Tables_number      15
_space_group_name_Hall           '-C 2yc'
loop_
_symmetry_equiv_pos_site_id
_symmetry_equiv_pos_as_xyz
1 x,y,z
2 -x,y,1/2-z
3 1/2+x,1/2+y,z
4 1/2-x,1/2+y,1/2-z
5 -x,-y,-z
6 x,-y,1/2+z
7 1/2-x,1/2-y,-z
8 1/2+x,1/2-y,1/2+z
_cell_length_a                   27.400(3)
_cell_length_b                   16.0130(17)
_cell_length_c                   21.280(2)
_cell_angle_alpha                90
_cell_angle_beta                 95.479(1)
_cell_angle_gamma                90
_cell_volume                     9294.07
loop_
_atom_site_label
_atom_site_type_symbol
_atom_site_fract_x
_atom_site_fract_y
_atom_site_fract_z
_atom_site_U_iso_or_equiv
_atom_site_thermal_displace_type
Cu1 Cu 0.50659(5) 0.99665(7) 0.31307(6) 0.0361 Uani
Cu2 Cu 0.29844(5) 0.24012(8) 0.00587(6) 0.0419 Uani
N2 N 0.4533(17) 0.229(3) -0.004(2) 0.0806 Uani
O1 O 0.4504(3) 0.9156(5) 0.3064(4) 0.0501 Uani
O2 O 0.4485(3) 0.9041(5) 0.2003(4) 0.0592 Uani
O3 O 0.2953(3) 0.3256(4) 0.0717(4) 0.0501 Uani
O4 O 0.2127(3) 0.3432(5) 0.0626(4) 0.0513 Uani
O5 O 0.2804(3) 0.6484(5) 0.2478(4) 0.0648 Uani
O6 O 0.7863(3) 1.6502(5) 0.0671(4) 0.0525 Uani
O7 O 0.7038(3) 1.6671(5) 0.0565(3) 0.0474 Uani
O8 O 0.5602(3) 1.0776(5) 0.2896(4) 0.0568 Uani
O9 O 0.5393(3) 1.0888(5) 0.1860(4) 0.0535 Uani
O10 O 0.7253(3) 1.3304(5) 0.2201(4) 0.0649 Uani
O12 O 0.380(7) 0.228(12) 0.024(5) 0.0537 Uani
O14 O 0.4997(5) 0.9999(7) 0.4376(6) 0.0355 Uani
H1 H 0.5276 0.9952 0.4584 0.0420 Uiso
H2 H 0.4780 1.0044 0.4633 0.0420 Uiso
C1 C 0.4339(4) 0.8842(7) 0.2549(6) 0.0506 Uani
C2 C 0.3941(4) 0.8212(7) 0.2520(6) 0.0495 Uani
C3 C 0.3783(4) 0.7801(8) 0.1959(6) 0.0539 Uani
H3 H 0.3928 0.7937 0.1595 0.0650 Uiso
C4 C 0.3421(5) 0.7202(8) 0.1922(6) 0.0638 Uani
H4 H 0.3333 0.6922 0.1545 0.0760 Uiso
C5 C 0.3186(4) 0.7020(8) 0.2470(6) 0.0556 Uani
C6 C 0.3317(5) 0.7424(7) 0.3022(6) 0.0557 Uani
H5 H 0.3158 0.7300 0.3377 0.0670 Uiso
C7 C 0.3688(4) 0.8022(7) 0.3063(6) 0.0528 Uani
H6 H 0.3772 0.8298 0.3442 0.0630 Uiso
C8 C 0.2561(5) 0.3628(7) 0.0855(6) 0.0491 Uani
C9 C 0.2616(5) 0.4349(7) 0.1296(6) 0.0559 Uani
C10 C 0.3093(5) 0.4612(8) 0.1551(6) 0.0593 Uani
H7 H 0.3364 0.4297 0.1463 0.0710 Uiso
C11 C 0.3167(5) 0.5327(8) 0.1928(6) 0.0601 Uani
H8 H 0.3481 0.5502 0.2076 0.0720 Uiso
C12 C 0.2758(5) 0.5763(8) 0.2074(6) 0.0591 Uani
C13 C 0.2281(5) 0.5524(8) 0.1861(6) 0.0566 Uani
H9 H 0.2011 0.5826 0.1969 0.0680 Uiso
C14 C 0.2224(5) 0.4799(7) 0.1470(6) 0.0568 Uani
H10 H 0.1909 0.4625 0.1327 0.0680 Uiso
C15 C 0.7422(5) 1.6289(7) 0.0764(5) 0.0492 Uani
C16 C 0.7363(5) 1.5507(8) 0.1163(6) 0.0554 Uani
C17 C 0.7784(5) 1.5059(7) 0.1410(6) 0.0587 Uani
H11 H 0.8095 1.5260 0.1349 0.0710 Uiso
C18 C 0.7737(5) 1.4323(8) 0.1741(6) 0.0631 Uani
H12 H 0.8014 1.4031 0.1903 0.0760 Uiso
C19 C 0.7269(5) 1.4025(8) 0.1830(6) 0.0608 Uani
C20 C 0.6852(5) 1.4471(9) 0.1593(6) 0.0672 Uani
H13 H 0.6541 1.4278 0.1658 0.0800 Uiso
C21 C 0.6910(5) 1.5218(8) 0.1254(6) 0.0610 Uani
H14 H 0.6634 1.5515 0.1093 0.0730 Uiso
C22 C 0.5658(4) 1.1071(7) 0.2330(7) 0.0506 Uani
C23 C 0.6077(4) 1.1682(7) 0.2288(6) 0.0528 Uani
C24 C 0.6164(4) 1.2044(8) 0.1710(6) 0.0550 Uani
H15 H 0.5956 1.1918 0.1352 0.0660 Uiso
C25 C 0.6546(5) 1.2579(8) 0.1660(7) 0.0629 Uani
H16 H 0.6609 1.2791 0.1269 0.0750 Uiso
C26 C 0.6843(5) 1.2803(8) 0.2206(6) 0.0575 Uani
C27 C 0.6773(5) 1.2468(7) 0.2784(6) 0.0581 Uani
H17 H 0.6980 1.2609 0.3140 0.0700 Uiso
C28 C 0.6381(4) 1.1907(7) 0.2828(6) 0.0545 Uani
H18 H 0.6325 1.1685 0.3219 0.0650 Uiso
C32 C 0.405(2) 0.236(3) -0.018(3) 0.0772 Uani
H26 H 0.3917 0.2473 -0.0589 0.0930 Uiso
C33 C 0.478(3) 0.212(4) 0.058(3) 0.0906 Uani
H27 H 0.4665 0.2506 0.0882 0.1090 Uiso
H28 H 0.5125 0.2173 0.0575 0.1090 Uiso
H29 H 0.4700 0.1559 0.0705 0.1090 Uiso
C34 C 0.485(2) 0.242(3) -0.056(3) 0.1007 Uani
H30 H 0.4850 0.1928 -0.0813 0.1180 Uiso
H31 H 0.5181 0.2535 -0.0380 0.1180 Uiso
H32 H 0.4732 0.2886 -0.0813 0.1180 Uiso
Cu1A Cu 0.49341(5) 0.99665(7) 0.18693(6) 0.0361 Uani
Cu2F Cu 0.20156(5) 0.25988(8) -0.00587(6) 0.0419 Uani
Cu2B Cu 0.79844(5) 1.74012(8) 0.00587(6) 0.0419 Uani
Cu2D Cu 0.70156(5) 1.75988(8) -0.00587(6) 0.0419 Uani
O2A O 0.5515(3) 0.9041(5) 0.2997(4) 0.0592 Uani
O4F O 0.2873(3) 0.1568(5) -0.0626(4) 0.0513 Uani
O6B O 0.2863(3) 0.1502(5) 0.0671(4) 0.0525 Uani
O7D O 0.2962(3) 0.3329(5) -0.0565(3) 0.0474 Uani
O9A O 0.4607(3) 1.0888(5) 0.3140(4) 0.0535 Uani
N5 N 0.338(2) 0.317(5) 0.514(2) 0.1784 Uani
O16 O 0.2747(17) 0.389(3) 0.5158(18) 0.1704 Uani
C41 C 0.320(3) 0.394(5) 0.519(3) 0.1784 Uani
H47 H 0.3380 0.4425 0.5240 0.2130 Uiso
C42 C 0.305(2) 0.245(4) 0.506(3) 0.1704 Uani
H48 H 0.3236 0.1948 0.5125 0.2060 Uiso
H49 H 0.2883 0.2455 0.4643 0.2060 Uiso
H50 H 0.2812 0.2484 0.5366 0.2060 Uiso
C43 C 0.390(2) 0.298(4) 0.515(3) 0.1710 Uani
H51 H 0.4050 0.3045 0.5573 0.2040 Uiso
H52 H 0.4047 0.3363 0.4876 0.2040 Uiso
H53 H 0.3940 0.2422 0.5009 0.2040 Uiso
loop_
_atom_site_aniso_label
_atom_site_aniso_U_11
_atom_site_aniso_U_22
_atom_site_aniso_U_33
_atom_site_aniso_U_23
_atom_site_aniso_U_13
_atom_site_aniso_U_12
Cu1 0.0509(8) 0.0240(7) 0.0335(7) 0.0000(5) 0.0042(5) 0.0002(5)
Cu2 0.0551 0.0262 0.0451 0.0008 0.0083 -0.0059
N2 0.08 0.06 0.1 -0.01 0 0
O1 0.056 0.037 0.056 -0.005 -0.001 -0.005
O2 0.057 0.042 0.079 -0.003 0.008 -0.015
O3 0.069 0.026 0.055 -0.006 0.005 -0.01
O4 0.068 0.032 0.055 -0.006 0.011 -0.01
O5 0.068 0.048 0.081 -0.018 0.021 -0.02
O6 0.067 0.033 0.058 0.009 0.008 -0.007
O7 0.065 0.029 0.05 0.004 0.015 -0.008
O8 0.055 0.042 0.072 0.001 -0.001 -0.01
O9 0.056 0.035 0.069 0.005 0.004 -0.011
O10 0.066 0.045 0.08 0.031 -0.013 -0.023
O12 0.06 0.04 0.06 0 0 0
O14 0.055(7) 0.029(6) 0.023(6) 0.009(5) 0.006(5) 0.004(6)
C1 0.049 0.036 0.069 0.002 0.017 -0.002
C2 0.05 0.036 0.062 -0.006 0.003 -0.01
C3 0.057 0.05 0.058 -0.007 0.022 -0.02
C4 0.078 0.051 0.063 -0.022 0.01 -0.015
C5 0.061 0.042 0.067 -0.022 0.022 -0.019
C6 0.066 0.043 0.06 -0.014 0.016 -0.016
C7 0.06 0.043 0.057 -0.009 0.014 -0.011
C8 0.065 0.029 0.054 0.005 0.01 -0.007
C9 0.073 0.037 0.058 -0.01 0.008 -0.014
C10 0.069 0.041 0.07 -0.01 0.018 -0.006
C11 0.053 0.054 0.074 -0.022 0.009 -0.015
C12 0.065 0.04 0.074 -0.019 0.016 -0.012
C13 0.066 0.041 0.064 -0.02 0.012 -0.016
C14 0.067 0.04 0.064 -0.009 0.01 -0.011
C15 0.073 0.025 0.051 -0.003 0.013 -0.009
C16 0.071 0.037 0.058 0.009 0.005 -0.013
C17 0.067 0.042 0.067 0.013 0.006 -0.013
C18 0.068 0.044 0.076 0.022 0 -0.009
C19 0.07 0.044 0.067 0.023 -0.001 -0.011
C20 0.067 0.057 0.076 0.02 -0.002 -0.016
C21 0.074 0.042 0.066 0.018 0.002 -0.012
C22 0.037 0.035 0.079 0.008 0.002 -0.005
C23 0.063 0.032 0.063 0.006 0.004 -0.004
C24 0.056 0.045 0.063 0.011 0 -0.012
C25 0.071 0.049 0.067 0.022 -0.002 -0.017
C26 0.062 0.043 0.066 0.02 -0.002 -0.007
C27 0.071 0.039 0.063 0.019 -0.001 -0.019
C28 0.063 0.033 0.066 0.011 -0.001 -0.01
C32 0.08 0.06 0.09 -0.01 0 0
C33 0.1 0.07 0.1 0 0 0
C34 0.11 0.08 0.11 0 0 0
Cu1A 0.0509 0.024 0.0335 0 0.0042 -0.0002
Cu2F 0.0551 0.0262 0.0451 0.0008 0.0083 -0.0059
Cu2B 0.0551 0.0262 0.0451 0.0008 0.0083 -0.0059
Cu2D 0.0551 0.0262 0.0451 0.0008 0.0083 -0.0059
O2A 0.057(5) 0.042(5) 0.079(6) 0.003(4) 0.008(4) 0.015(4)
O4F 0.068 0.032 0.055 -0.006 0.011 -0.01
O6B 0.067 0.033 0.058 0.009 0.008 -0.007
O7D 0.065 0.029 0.05 0.004 0.015 -0.008
O9A 0.056(5) 0.035(4) 0.069(6) -0.005(4) 0.004(4) 0.011(4)
N5 0.18(4) 0.19(5) 0.16(3) 0.01(3) -0.01(3) -0.01(3)
O16 0.17(3) 0.18(3) 0.16(2) 0.01(2) 0.01(2) 0.00(3)
C41 0.18(5) 0.19(6) 0.16(4) 0.01(4) -0.01(4) -0.01(5)
C42 0.17(4) 0.18(5) 0.16(4) 0.01(3) 0.01(3) 0.00(3)
C43 0.17(4) 0.18(5) 0.16(4) 0.000 0.00(3) 0.000
loop_
_geom_bond_atom_site_label_1
_geom_bond_atom_site_label_2
_geom_bond_site_symmetry_1
_geom_bond_site_symmetry_2
Cu1 O1 1_555 1_555
Cu2 O3 1_555 1_555
N2 C32 1_555 1_555
N5 C41 1_555 1_555
O1 C1 1_555 1_555
O2 C1 1_555 1_555
O3 C8 1_555 1_555
O4 C8 1_555 1_555
O5 C5 1_555 1_555
O6 C15 1_555 1_555
O7 C15 1_555 1_555
O8 Cu1 1_555 1_555
O9 C22 1_555 1_555
O10 C19 1_555 1_555
O12 Cu2 1_555 1_555
O14 Cu1 1_555 1_555
H1 O14 1_555 1_555
H2 O14 1_555 1_555
O16 C41 1_555 1_555
C1 C2 1_555 1_555
C2 C3 1_555 1_555
C3 H3 1_555 1_555
C4 C3 1_555 1_555
H4 C4 1_555 1_555
C5 C4 1_555 1_555
C6 C5 1_555 1_555
H5 C6 1_555 1_555
C7 C2 1_555 1_555
H6 C7 1_555 1_555
C8 C9 1_555 1_555
C9 C10 1_555 1_555
C10 H7 1_555 1_555
C11 C10 1_555 1_555
H8 C11 1_555 1_555
C12 O5 1_555 1_555
C13 C12 1_555 1_555
H9 C13 1_555 1_555
C14 C9 1_555 1_555
H10 C14 1_555 1_555
C15 C16 1_555 1_555
C16 C17 1_555 1_555
C17 H11 1_555 1_555
C18 C17 1_555 1_555
H12 C18 1_555 1_555
C19 C18 1_555 1_555
C20 C19 1_555 1_555
H13 C20 1_555 1_555
C21 C16 1_555 1_555
H14 C21 1_555 1_555
C22 O8 1_555 1_555
C23 C22 1_555 1_555
C24 C23 1_555 1_555
H15 C24 1_555 1_555
C25 C24 1_555 1_555
H16 C25 1_555 1_555
C26 O10 1_555 1_555
C27 C26 1_555 1_555
H17 C27 1_555 1_555
C28 C23 1_555 1_555
H18 C28 1_555 1_555
C32 O12 1_555 1_555
H26 C32 1_555 1_555
C33 N2 1_555 1_555
H27 C33 1_555 1_555
H28 C33 1_555 1_555
H29 C33 1_555 1_555
C34 N2 1_555 1_555
H30 C34 1_555 1_555
H31 C34 1_555 1_555
H32 C34 1_555 1_555
C41 H47 1_555 1_555
C42 N5 1_555 1_555
H48 C42 1_555 1_555
H49 C42 1_555 1_555
H50 C42 1_555 1_555
C43 N5 1_555 1_555
H51 C43 1_555 1_555
H52 C43 1_555 1_555
H53 C43 1_555 1_555
Cu1A O2 1_555 1_555
Cu2F O4 1_555 1_555
Cu2B O6 1_555 1_555
Cu2D O7 1_555 1_555
O2A Cu1 1_555 1_555
O4F Cu2 1_555 1_555
O6B Cu2 1_555 1_555
O7D Cu2 1_555 1_555
O9A Cu1 1_555 1_555
O9 Cu1A 1_555 1_555
C6 C7 1_555 1_555
C11 C12 1_555 1_555
C13 C14 1_555 1_555
C20 C21 1_555 1_555
C25 C26 1_555 1_555
C27 C28 1_555 1_555

#END
