
#######################################################################
#
#                 Cambridge Crystallographic Data Centre
#                                CCDC 
#
#######################################################################
#
# If this CIF has been generated from an entry in the Cambridge 
# Structural Database, then it will include bibliographic, chemical, 
# crystal, experimental, refinement or atomic coordinate data resulting 
# from the CCDC's data processing and validation procedures.
#
#######################################################################

data_HAZSIL
_chemical_formula_moiety         '(C14 H40 Cu4 N4 O23 P4)n'
_symmetry_cell_setting           orthorhombic
_symmetry_space_group_name_H-M   'F d d 2'
_symmetry_Int_Tables_number      43
_space_group_name_Hall           'F 2 -2d'
loop_
_symmetry_equiv_pos_site_id
_symmetry_equiv_pos_as_xyz
1 x,y,z
2 -x,-y,z
3 1/4+x,1/4-y,1/4+z
4 1/4-x,1/4+y,1/4+z
5 x,1/2+y,1/2+z
6 -x,1/2-y,1/2+z
7 1/4+x,3/4-y,3/4+z
8 1/4-x,3/4+y,3/4+z
9 1/2+x,y,1/2+z
10 1/2-x,-y,1/2+z
11 3/4+x,1/4-y,3/4+z
12 3/4-x,1/4+y,3/4+z
13 1/2+x,1/2+y,z
14 1/2-x,1/2-y,z
15 3/4+x,3/4-y,1/4+z
16 3/4-x,3/4+y,1/4+z
_cell_length_a                   15.4398(8)
_cell_length_b                   52.022(3)
_cell_length_c                   11.2107(7)
_cell_angle_alpha                90
_cell_angle_beta                 90
_cell_angle_gamma                90
_cell_volume                     9004.54
loop_
_atom_site_label
_atom_site_type_symbol
_atom_site_fract_x
_atom_site_fract_y
_atom_site_fract_z
Cu1 Cu -0.53164(8) -0.10597(2) -0.00444(13)
Cu2 Cu -0.33015(7) -0.11637(2) -0.74923(12)
P1 P -0.50783(17) -0.13471(5) -0.2358(3)
P2 P -0.27945(16) -0.11735(5) -0.0211(3)
N1 N -0.5052(4) -0.14409(13) 0.0012(9)
H1 H -0.4467 -0.1458 0.0084
N2 N -0.2730(5) -0.18234(14) -0.2554(11)
C1 C -0.5316(8) -0.1567(3) -0.1143(10)
H2 H -0.3430 -0.0894 -0.3629
H3 H -0.2499 -0.0774 -0.3751
C2 C -0.2948(7) -0.0947(2) -0.1416(9)
H4 H -0.2673 -0.0784 -0.1225
H5 H -0.3560 -0.0916 -0.1547
C3 C -0.3378(8) -0.1976(2) -0.2871(12)
H6 H -0.3906 -0.1903 -0.3080
C4 C -0.3297(8) -0.2241(2) -0.2900(12)
H7 H -0.3751 -0.2342 -0.3179
C5 C -0.2547(7) -0.23544(18) -0.2518(15)
C6 C -0.3112(8) -0.2803(2) -0.2160(12)
H8 H -0.3631 -0.2732 -0.1898
C7 C -0.3015(7) -0.3064(2) -0.2186(11)
H9 H -0.3473 -0.3167 -0.1943
O1 O -0.4224(5) -0.14131(15) -0.2922(6)
O2 O -0.2589(5) -0.14185(15) -0.4261(7)
O3 O -0.3316(5) -0.11177(16) -0.5750(7)
O4 O -0.1857(5) -0.11461(15) 0.0222(7)
O5 O -0.3441(5) -0.11163(16) 0.0785(7)
O6 O -0.2963(5) -0.14339(14) -0.0789(7)
O7 O -0.4988(5) -0.09598(15) -0.5148(9)
O8 O -0.4700(4) -0.15389(12) -0.5064(9)
Cu1F Cu -0.28164(8) -0.14403(2) -0.25444(13)
Cu1H Cu -0.03164(8) -0.10597(2) -0.50444(13)
Cu1G Cu -0.21836(8) -0.35597(2) -0.25444(13)
Cu2N Cu -0.58015(7) -0.13363(2) -0.49923(12)
Cu2F Cu -0.08015(7) -0.13363(2) 0.00077(12)
Cu2_2 Cu -0.33015(7) -0.11637(2) 0.25077(12)
Cu2N_2 Cu -0.58015(7) -0.13363(2) 0.50077(12)
P1F P -0.25783(17) -0.11529(5) -0.4858(3)
P2N P -0.52945(16) -0.13265(5) 0.2289(3)
N1F N -0.2552(4) -0.10591(13) -0.2488(9)
H1F H -0.1967 -0.1042 -0.2416
N2N N -0.5230(5) -0.06766(14) -0.0054(11)
N2M N -0.2270(5) -0.31766(14) -0.2554(11)
C1F C -0.2816(8) -0.0933(3) -0.3643(10)
H2N H -0.5930 -0.1606 -0.1129
H3N H -0.4999 -0.1726 -0.1251
C2N C -0.5448(7) -0.1553(2) 0.1084(9)
H4N H -0.5173 -0.1716 0.1275
H5N H -0.6060 -0.1584 0.0953
C3M C -0.1622(8) -0.3024(2) -0.2871(12)
H6M H -0.1094 -0.3097 -0.3080
C4M C -0.1703(8) -0.2759(2) -0.2900(12)
H7M H -0.1249 -0.2658 -0.3179
C5M C -0.2453(7) -0.26456(18) -0.2518(15)
C6M C -0.1888(8) -0.2197(2) -0.2160(12)
H8M H -0.1369 -0.2268 -0.1898
C7M C -0.1985(7) -0.1936(2) -0.2186(11)
H9M H -0.1527 -0.1833 -0.1943
O1F O -0.1724(5) -0.10869(15) -0.5422(6)
O1N O -0.6724(5) -0.10869(15) -0.0422(6)
O2N O -0.5089(5) -0.10815(15) -0.1761(7)
O3N O -0.5816(5) -0.13823(16) -0.3250(7)
O4N O -0.4357(5) -0.13539(15) -0.7278(7)
O4H O -0.6857(5) -0.11461(15) -0.4778(7)
O4N_2 O -0.4357(5) -0.13539(15) 0.2722(7)
O5_2 O -0.3441(5) -0.11163(16) -0.9215(7)
O5N O -0.5941(5) -0.13837(16) -0.6715(7)
O5N_2 O -0.5941(5) -0.13837(16) 0.3285(7)
O6N O -0.5463(5) -0.10661(14) 0.1711(7)
O7F O -0.2488(5) -0.15402(15) -0.7648(9)
O8F O -0.2200(4) -0.09611(12) -0.7564(9)
O9 O 0.0696(13) 0.0633(3) -0.1941(12)
O10 O 0.0136(11) 0.0646(2) 0.1841(10)
O11 O -0.129(2) 0.0266(6) 0.202(3)
O12 O 0.271(3) 0.0440(9) 0.227(5)
O13 O 0.157(4) 0.0300(11) 0.145(5)
O14 O -0.038(3) 0.0195(10) -0.137(4)
O15 O 0.217(5) 0.0252(16) -0.162(7)
loop_
_geom_bond_atom_site_label_1
_geom_bond_atom_site_label_2
_geom_bond_site_symmetry_1
_geom_bond_site_symmetry_2
Cu1 N1 1_555 1_555
Cu2 O3 1_555 1_555
P1 C1 1_555 1_555
P2 C2 1_555 1_555
N1 H1 1_555 1_555
N2 C3 1_555 1_555
C1 N1 1_555 1_555
H2 C1F 1_555 1_555
H3 C1F 1_555 1_555
C2 H4 1_555 1_555
H5 C2 1_555 1_555
C3 H6 1_555 1_555
C4 C3 1_555 1_555
H7 C4 1_555 1_555
C5 C4 1_555 1_555
C6 H8 1_555 1_555
C7 C6 1_555 1_555
H9 C7 1_555 1_555
O1 P1 1_555 1_555
O2 Cu1F 1_555 1_555
O3 P1F 1_555 1_555
O4 P2 1_555 1_555
O5 P2 1_555 1_555
O6 P2 1_555 1_555
O7 Cu2N 1_555 1_555
O8 Cu2N 1_555 1_555
Cu1F N2 1_555 1_555
Cu1H O1F 1_555 1_555
Cu1G N2M 1_555 1_555
Cu2N O3N 1_555 1_555
Cu2F O4 1_555 1_555
Cu2_2 O5 1_555 1_555
Cu2N_2 O5N_2 1_555 1_555
P1F O2 1_555 1_555
P2N C2N 1_555 1_555
N1F C2 1_555 1_555
H1F N1F 1_555 1_555
N2N Cu1 1_555 1_555
N2M C7 1_555 1_555
C1F P1F 1_555 1_555
H2N C1 1_555 1_555
H3N C1 1_555 1_555
C2N N1 1_555 1_555
H4N C2N 1_555 1_555
H5N C2N 1_555 1_555
C3M N2M 1_555 1_555
H6M C3M 1_555 1_555
C4M C3M 1_555 1_555
H7M C4M 1_555 1_555
C5M C5 1_555 1_555
C6M C5 1_555 1_555
H8M C6M 1_555 1_555
C7M N2 1_555 1_555
H9M C7M 1_555 1_555
O1F P1F 1_555 1_555
O1N Cu1 1_555 1_555
O2N Cu1 1_555 1_555
O3N P1 1_555 1_555
O4N Cu2 1_555 1_555
O4H Cu2N 1_555 1_555
O4N_2 Cu2_2 1_555 1_555
O5_2 Cu2 1_555 1_555
O5N Cu2N 1_555 1_555
O5N_2 P2N 1_555 1_555
O6N Cu1 1_555 1_555
O7F Cu2 1_555 1_555
O8F Cu2 1_555 1_555
P1 O2N 1_555 1_555
C6 C5M 1_555 1_555
O1 Cu1F 1_555 1_555
O6 Cu1F 1_555 1_555
Cu1F N1F 1_555 1_555
P2N O4N_2 1_555 1_555
P2N O6N 1_555 1_555
N1F C1F 1_555 1_555
C4M C5M 1_555 1_555
C6M C7M 1_555 1_555

#END
