
#######################################################################
#
#                 Cambridge Crystallographic Data Centre
#                                CCDC 
#
#######################################################################
#
# If this CIF has been generated from an entry in the Cambridge 
# Structural Database, then it will include bibliographic, chemical, 
# crystal, experimental, refinement or atomic coordinate data resulting 
# from the CCDC's data processing and validation procedures.
#
#######################################################################

data_HAZGOF16
_chemical_formula_moiety         '(C24 H12 O12 Sc2)n'
_symmetry_cell_setting           orthorhombic
_symmetry_space_group_name_H-M   'F d d d'
_symmetry_Int_Tables_number      70
_space_group_name_Hall           '-F 2uv 2vw'
loop_
_symmetry_equiv_pos_site_id
_symmetry_equiv_pos_as_xyz
1 x,y,z
2 x,1/2+y,1/2+z
3 1/2+x,y,1/2+z
4 1/2+x,1/2+y,z
5 x,1/4-y,1/4-z
6 x,3/4-y,3/4-z
7 1/2+x,1/4-y,3/4-z
8 1/2+x,3/4-y,1/4-z
9 1/4-x,y,1/4-z
10 1/4-x,1/2+y,3/4-z
11 3/4-x,y,3/4-z
12 3/4-x,1/2+y,1/4-z
13 1/4-x,3/4-y,1/2+z
14 1/4-x,1/4-y,z
15 3/4-x,3/4-y,z
16 3/4-x,1/4-y,1/2+z
17 -x,-y,-z
18 -x,1/2-y,1/2-z
19 1/2-x,-y,1/2-z
20 1/2-x,1/2-y,-z
21 -x,3/4+y,3/4+z
22 -x,1/4+y,1/4+z
23 1/2-x,3/4+y,1/4+z
24 1/2-x,1/4+y,3/4+z
25 3/4+x,-y,3/4+z
26 3/4+x,1/2-y,1/4+z
27 1/4+x,-y,1/4+z
28 1/4+x,1/2-y,3/4+z
29 3/4+x,1/4+y,1/2-z
30 3/4+x,3/4+y,-z
31 1/4+x,1/4+y,-z
32 1/4+x,3/4+y,1/2-z
_cell_length_a                   8.798(2)
_cell_length_b                   20.865(4)
_cell_length_c                   34.551(6)
_cell_angle_alpha                90
_cell_angle_beta                 90
_cell_angle_gamma                90
_cell_volume                     6342.54
loop_
_atom_site_label
_atom_site_type_symbol
_atom_site_fract_x
_atom_site_fract_y
_atom_site_fract_z
Sc1 Sc 0.3750 0.3750 0.63563(4)
O1 O 0.2413(5) 0.3335(2) 0.67950(10)
C1 C 0.1052(8) 0.3198(3) 0.68212(15)
O2 O 0.0051(5) 0.3344(2) 0.65761(11)
C2 C 0.0496(7) 0.2834(3) 0.71732(15)
C3 C 0.1532(8) 0.2641(4) 0.74503(17)
C4 C 0.1024(8) 0.2307(3) 0.77787(16)
O3 O 0.2453(5) 0.45802(19) 0.63514(12)
C5 C 0.1250 0.4859(4) 0.6250
C6 C 0.1250 0.5571(4) 0.6250
C7 C 0.2604(9) 0.5922(3) 0.6253(2)
H1 H 0.2575 0.2733 0.7420
H2 H 0.1738 0.2176 0.7969
H3 H 0.3538 0.5693 0.6260
O1Q O -0.2413(5) 0.1665(2) 0.82050(10)
C1Q C -0.1052(8) 0.1802(3) 0.81788(15)
O2Q O -0.0051(5) 0.1656(2) 0.84239(11)
C2Q C -0.0496(7) 0.2166(3) 0.78268(15)
C3Q C -0.1532(8) 0.2359(4) 0.75497(17)
C4Q C -0.1024(8) 0.2693(3) 0.72213(16)
H1Q H -0.2575 0.2267 0.7580
H2Q H -0.1738 0.2824 0.7031
O3D O 0.2453(5) 0.79198(19) 0.61486(12)
C5D C 0.1250 0.7641(4) 0.6250
C6D C 0.1250 0.6929(4) 0.6250
C7D C 0.2604(9) 0.6578(3) 0.6247(2)
H3D H 0.3538 0.6807 0.6240
O3H O 0.0047(5) 0.45802(19) 0.61486(12)
C7H C -0.0104(9) 0.5922(3) 0.6247(2)
H3H H -0.1038 0.5693 0.6240
O3M O 0.0047(5) 0.79198(19) 0.63514(12)
C7M C -0.0104(9) 0.6578(3) 0.6253(2)
H3M H -0.1038 0.6807 0.6260
Sc1Q Sc -0.3750 0.1250 0.86437(4)
O1N O 0.5087(5) 0.4165(2) 0.67950(10)
C1N C 0.6448(8) 0.4302(3) 0.68212(15)
O2N O 0.7449(5) 0.4156(2) 0.65761(11)
C2N C 0.7004(7) 0.4666(3) 0.71732(15)
C3N C 0.5968(8) 0.4859(4) 0.74503(17)
C4N C 0.6476(8) 0.5193(3) 0.77787(16)
H1N H 0.4925 0.4767 0.7420
H2N H 0.5762 0.5324 0.7969
O1BA O 0.9913(5) 0.5835(2) 0.82050(10)
C1BA C 0.8552(8) 0.5698(3) 0.81788(15)
O2BA O 0.7551(5) 0.5844(2) 0.84239(11)
C2BA C 0.7996(7) 0.5334(3) 0.78268(15)
C3BA C 0.9032(8) 0.5141(4) 0.75497(17)
C4BA C 0.8524(8) 0.4807(3) 0.72213(16)
H1BA H 1.0075 0.5233 0.7580
H2BA H 0.9238 0.4676 0.7031
Sc1R Sc 1.1250 0.6250 0.86437(4)
Sc1C Sc -0.1250 0.8750 0.63563(4)
Sc1U Sc 0.6250 0.6250 0.88563(4)
Sc1D Sc 0.3750 0.8750 0.61437(4)
Sc1V Sc 0.1250 0.1250 0.88563(4)
Sc1G Sc -0.1250 0.3750 0.61437(4)
Sc1G_2 Sc 0.8750 0.3750 0.61437(4)
O1EA O -0.5087(5) 0.0835(2) 0.82050(10)
O2V O -0.5051(5) 0.0844(2) 0.90761(11)
O2G O 0.5051(5) 0.4156(2) 0.59239(11)
O2H O 0.2449(5) 0.3344(2) 0.59239(11)
O2Y O -0.2449(5) 0.1656(2) 0.90761(11)
O3Q O -0.2453(5) 0.04198(19) 0.86486(12)
O3EA O -0.5047(5) 0.20802(19) 0.86486(12)
O3N O 0.5047(5) 0.29198(19) 0.63514(12)
loop_
_geom_bond_atom_site_label_1
_geom_bond_atom_site_label_2
_geom_bond_site_symmetry_1
_geom_bond_site_symmetry_2
Sc1 O1 1_555 1_555
O1 C1 1_555 1_555
C1 O2 1_555 1_555
O2 Sc1G 1_555 1_555
C2 C1 1_555 1_555
C3 C2 1_555 1_555
C4 C3 1_555 1_555
O3 Sc1 1_555 1_555
C5 O3 1_555 1_555
C6 C5 1_555 1_555
C7 C6 1_555 1_555
H1 C3 1_555 1_555
H2 C4 1_555 1_555
H3 C7 1_555 1_555
O1Q C1Q 1_555 1_555
C1Q O2Q 1_555 1_555
O2Q Sc1V 1_555 1_555
C2Q C4 1_555 1_555
C3Q C2Q 1_555 1_555
C4Q C2 1_555 1_555
H1Q C3Q 1_555 1_555
H2Q C4Q 1_555 1_555
O3D C5D 1_555 1_555
C5D C6D 1_555 1_555
C6D C7D 1_555 1_555
C7D C7 1_555 1_555
H3D C7D 1_555 1_555
O3H C5 1_555 1_555
C7H C6 1_555 1_555
H3H C7H 1_555 1_555
O3M C5D 1_555 1_555
C7M C6D 1_555 1_555
H3M C7M 1_555 1_555
Sc1Q O1Q 1_555 1_555
O1N Sc1 1_555 1_555
C1N O1N 1_555 1_555
O2N C1N 1_555 1_555
C2N C1N 1_555 1_555
C3N C2N 1_555 1_555
C4N C3N 1_555 1_555
H1N C3N 1_555 1_555
H2N C4N 1_555 1_555
O1BA C1BA 1_555 1_555
C1BA O2BA 1_555 1_555
O2BA Sc1U 1_555 1_555
C2BA C4N 1_555 1_555
C3BA C2BA 1_555 1_555
C4BA C2N 1_555 1_555
H1BA C3BA 1_555 1_555
H2BA C4BA 1_555 1_555
Sc1R O1BA 1_555 1_555
Sc1C O3M 1_555 1_555
Sc1D O3D 1_555 1_555
Sc1G O3H 1_555 1_555
Sc1G_2 O2N 1_555 1_555
O1EA Sc1Q 1_555 1_555
O2V Sc1Q 1_555 1_555
O2G Sc1 1_555 1_555
O2H Sc1 1_555 1_555
O2Y Sc1Q 1_555 1_555
O3Q Sc1Q 1_555 1_555
O3EA Sc1Q 1_555 1_555
O3N Sc1 1_555 1_555
C1Q C2Q 1_555 1_555
C3Q C4Q 1_555 1_555
C7H C7M 1_555 1_555
C1BA C2BA 1_555 1_555
C3BA C4BA 1_555 1_555

#END
