
#######################################################################
#
#                 Cambridge Crystallographic Data Centre
#                                CCDC 
#
#######################################################################
#
# If this CIF has been generated from an entry in the Cambridge 
# Structural Database, then it will include bibliographic, chemical, 
# crystal, experimental, refinement or atomic coordinate data resulting 
# from the CCDC's data processing and validation procedures.
#
#######################################################################

data_HAZGOF15
_chemical_formula_moiety         '(C24 H12 O12 Sc2)n'
_symmetry_cell_setting           orthorhombic
_symmetry_space_group_name_H-M   'F d d d'
_symmetry_Int_Tables_number      70
_space_group_name_Hall           '-F 2uv 2vw'
loop_
_symmetry_equiv_pos_site_id
_symmetry_equiv_pos_as_xyz
1 x,y,z
2 x,1/2+y,1/2+z
3 1/2+x,y,1/2+z
4 1/2+x,1/2+y,z
5 3/4-x,y,3/4-z
6 3/4-x,1/2+y,1/4-z
7 1/4-x,y,1/4-z
8 1/4-x,1/2+y,3/4-z
9 1/4-x,1/4-y,z
10 1/4-x,3/4-y,1/2+z
11 3/4-x,1/4-y,1/2+z
12 3/4-x,3/4-y,z
13 x,1/4-y,1/4-z
14 x,3/4-y,3/4-z
15 1/2+x,1/4-y,3/4-z
16 1/2+x,3/4-y,1/4-z
17 -x,-y,-z
18 -x,1/2-y,1/2-z
19 1/2-x,-y,1/2-z
20 1/2-x,1/2-y,-z
21 1/4+x,-y,1/4+z
22 1/4+x,1/2-y,3/4+z
23 3/4+x,-y,3/4+z
24 3/4+x,1/2-y,1/4+z
25 3/4+x,3/4+y,-z
26 3/4+x,1/4+y,1/2-z
27 1/4+x,3/4+y,1/2-z
28 1/4+x,1/4+y,-z
29 -x,3/4+y,3/4+z
30 -x,1/4+y,1/4+z
31 1/2-x,3/4+y,1/4+z
32 1/2-x,1/4+y,3/4+z
_cell_length_a                   8.785(6)
_cell_length_b                   20.810(14)
_cell_length_c                   34.48(2)
_cell_angle_alpha                90
_cell_angle_beta                 90
_cell_angle_gamma                90
_cell_volume                     6303.49
loop_
_atom_site_label
_atom_site_type_symbol
_atom_site_fract_x
_atom_site_fract_y
_atom_site_fract_z
Sc1 Sc 0.3750 0.3750 0.63579(2)
O1 O 0.2413(3) 0.33339(12) 0.67955(6)
O2 O 0.2452(3) 0.45827(10) 0.63537(7)
O3 O 0.0045(3) 0.33425(13) 0.65734(6)
C1 C 0.1025(4) 0.31979(16) 0.68231(9)
C2 C 0.1250 0.4862(2) 0.6250
C3 C 0.0494(4) 0.28366(17) 0.71756(9)
C4 C 0.1250 0.5586(2) 0.6250
C5 C 0.1520(4) 0.26415(19) 0.74520(10)
C6 C -0.1029(4) 0.2690(2) 0.72234(10)
C7 C 0.2600(4) 0.59161(15) 0.62533(14)
H1 H 0.2570 0.2734 0.7421
H2 H -0.1743 0.2821 0.7033
H3 H 0.3539 0.5691 0.6266
O1Q O -0.2413(3) 0.16661(12) 0.82045(6)
C1Q C -0.1025(4) 0.18021(16) 0.81769(9)
C3Q C -0.0494(4) 0.21634(17) 0.78244(9)
C5Q C -0.1520(4) 0.23585(19) 0.75480(10)
C6Q C 0.1029(4) 0.2310(2) 0.77766(10)
H1Q H -0.2570 0.2266 0.7579
H2Q H 0.1743 0.2179 0.7967
O3Q O -0.0045(3) 0.16575(13) 0.84266(6)
O2F O 0.0048(3) 0.45827(10) 0.61463(7)
C7F C -0.0100(4) 0.59161(15) 0.62467(14)
H3F H -0.1039 0.5691 0.6234
O2H O 0.0048(3) 0.79173(10) 0.63537(7)
C2H C 0.1250 0.7638(2) 0.6250
C4H C 0.1250 0.6914(2) 0.6250
C7H C -0.0100(4) 0.65839(15) 0.62533(14)
H3H H -0.1039 0.6809 0.6266
O2L O 0.2452(3) 0.79173(10) 0.61463(7)
C7L C 0.2600(4) 0.65839(15) 0.62467(14)
H3L H 0.3539 0.6809 0.6234
Sc1Q Sc -0.3750 0.1250 0.86421(2)
O1K O 0.5087(3) 0.41661(12) 0.67955(6)
O3K O 0.7455(3) 0.41575(13) 0.65734(6)
C1K C 0.6475(4) 0.43021(16) 0.68231(9)
C3K C 0.7006(4) 0.46634(17) 0.71756(9)
C5K C 0.5980(4) 0.48585(19) 0.74520(10)
C6K C 0.8529(4) 0.4810(2) 0.72234(10)
H1K H 0.4930 0.4766 0.7421
H2K H 0.9243 0.4679 0.7033
O1Y O 0.9913(3) 0.58339(12) 0.82045(6)
C1Y C 0.8525(4) 0.56979(16) 0.81769(9)
C3Y C 0.7994(4) 0.53366(17) 0.78244(9)
C5Y C 0.9020(4) 0.51415(19) 0.75480(10)
C6Y C 0.6471(4) 0.5190(2) 0.77766(10)
H1Y H 1.0070 0.5234 0.7579
H2Y H 0.5757 0.5321 0.7967
O3Y O 0.7545(3) 0.58425(13) 0.84266(6)
Sc1R Sc 1.1250 0.6250 0.86421(2)
Sc1C Sc -0.1250 0.8750 0.63579(2)
Sc1W Sc 0.1250 0.1250 0.88579(2)
Sc1E Sc 0.3750 0.8750 0.61421(2)
Sc1T Sc 0.6250 0.6250 0.88579(2)
Sc1F Sc -0.1250 0.3750 0.61421(2)
Sc1F_2 Sc 0.8750 0.3750 0.61421(2)
O1Z O -0.5087(3) 0.08339(12) 0.82045(6)
O2Q O -0.2452(3) 0.04173(10) 0.86463(7)
O2Z O -0.5048(3) 0.20827(10) 0.86463(7)
O2K O 0.5048(3) 0.29173(10) 0.63537(7)
O3W O -0.2455(3) 0.16575(13) 0.90734(6)
O3F O 0.2455(3) 0.33425(13) 0.59266(6)
O3O O 0.5045(3) 0.41575(13) 0.59266(6)
O3DA O -0.5045(3) 0.08425(13) 0.90734(6)
loop_
_geom_bond_atom_site_label_1
_geom_bond_atom_site_label_2
_geom_bond_site_symmetry_1
_geom_bond_site_symmetry_2
Sc1 O1 1_555 1_555
O1 C1 1_555 1_555
O2 Sc1 1_555 1_555
O3 C1 1_555 1_555
C1 C3 1_555 1_555
C2 O2 1_555 1_555
C3 C5 1_555 1_555
C4 C2 1_555 1_555
C5 H1 1_555 1_555
C6 C3 1_555 1_555
C7 C4 1_555 1_555
H2 C6 1_555 1_555
H3 C7 1_555 1_555
O1Q C1Q 1_555 1_555
C1Q C3Q 1_555 1_555
C3Q C5Q 1_555 1_555
C5Q C6 1_555 1_555
C6Q C5 1_555 1_555
H1Q C5Q 1_555 1_555
H2Q C6Q 1_555 1_555
O3Q C1Q 1_555 1_555
O2F C2 1_555 1_555
C7F C4 1_555 1_555
H3F C7F 1_555 1_555
O2H C2H 1_555 1_555
C2H C4H 1_555 1_555
C4H C7H 1_555 1_555
C7H C7F 1_555 1_555
H3H C7H 1_555 1_555
O2L C2H 1_555 1_555
C7L C7 1_555 1_555
H3L C7L 1_555 1_555
Sc1Q O1Q 1_555 1_555
O1K Sc1 1_555 1_555
O3K C1K 1_555 1_555
C1K O1K 1_555 1_555
C3K C1K 1_555 1_555
C5K C3K 1_555 1_555
C6K C3K 1_555 1_555
H1K C5K 1_555 1_555
H2K C6K 1_555 1_555
O1Y C1Y 1_555 1_555
C1Y C3Y 1_555 1_555
C3Y C5Y 1_555 1_555
C5Y C6K 1_555 1_555
C6Y C5K 1_555 1_555
H1Y C5Y 1_555 1_555
H2Y C6Y 1_555 1_555
O3Y C1Y 1_555 1_555
Sc1R O1Y 1_555 1_555
Sc1C O2H 1_555 1_555
Sc1W O3Q 1_555 1_555
Sc1E O2L 1_555 1_555
Sc1T O3Y 1_555 1_555
Sc1F O3 1_555 1_555
Sc1F_2 O3K 1_555 1_555
O1Z Sc1Q 1_555 1_555
O2Q Sc1Q 1_555 1_555
O2Z Sc1Q 1_555 1_555
O2K Sc1 1_555 1_555
O3W Sc1Q 1_555 1_555
O3F Sc1 1_555 1_555
O3O Sc1 1_555 1_555
O3DA Sc1Q 1_555 1_555
C3Q C6Q 1_555 1_555
O2F Sc1F 1_555 1_555
C4H C7L 1_555 1_555
C3Y C6Y 1_555 1_555

#END
