
#######################################################################
#
#                 Cambridge Crystallographic Data Centre
#                                CCDC 
#
#######################################################################
#
# If this CIF has been generated from an entry in the Cambridge 
# Structural Database, then it will include bibliographic, chemical, 
# crystal, experimental, refinement or atomic coordinate data resulting 
# from the CCDC's data processing and validation procedures.
#
#######################################################################

data_RONSOE
_chemical_formula_moiety         'C25 H18 Cu8 N3 O9'
_symmetry_cell_setting           monoclinic
_symmetry_space_group_name_H-M   'C 2/c'
_symmetry_Int_Tables_number      15
_space_group_name_Hall           '-C 2yc'
loop_
_symmetry_equiv_pos_site_id
_symmetry_equiv_pos_as_xyz
1 x,y,z
2 1/2+x,1/2+y,z
3 -x,y,1/2-z
4 1/2-x,1/2+y,1/2-z
5 -x,-y,-z
6 1/2-x,1/2-y,-z
7 x,-y,1/2+z
8 1/2+x,1/2-y,1/2+z
_cell_length_a                   13.7352(16)
_cell_length_b                   17.888(2)
_cell_length_c                   11.0251(14)
_cell_angle_alpha                90
_cell_angle_beta                 100.460(2)
_cell_angle_gamma                90
_cell_volume                     2663.8
loop_
_atom_site_label
_atom_site_type_symbol
_atom_site_fract_x
_atom_site_fract_y
_atom_site_fract_z
Cu1 Cu 0.49891(18) 0.49882(14) 0.47005(9)
O1 O 0.61200(19) 0.43428(14) 0.5508(3)
O2 O 0.6681(3) 0.4248(2) 0.3727(4)
O3 O 0.5086(15) 0.4919(2) 0.2643(19)
C1 C 0.6735(3) 0.4122(2) 0.4842(5)
C2 C 0.76075(17) 0.36768(14) 0.5542(2)
C3 C 0.8226(2) 0.32950(18) 0.48877(19)
H1 H 0.8123 0.3329 0.4032
C4 C 0.8998(2) 0.28622(17) 0.5512(3)
H2 H 0.9412 0.2607 0.5074
C5 C 0.91517(17) 0.28113(14) 0.6790(3)
C6 C 0.8533(2) 0.31932(16) 0.7445(2)
H3 H 0.8636 0.3159 0.8300
C7 C 0.77611(18) 0.36260(15) 0.6821(2)
H4 H 0.7347 0.3881 0.7259
N1 N 0.4078(2) 0.40958(15) 0.4981(3)
C8 C 1.0000 0.2319(3) 0.7500
H5 H 1.0259 0.2000 0.6921
C9 C 0.3230(3) 0.4024(2) 0.4173(4)
H6 H 0.3051 0.4403 0.3599
C10 C 0.2599(3) 0.3411(2) 0.4146(4)
H7 H 0.2025 0.3387 0.3553
C11 C 0.2822(2) 0.28323(17) 0.5003(3)
C12 C 0.3705(3) 0.2917(2) 0.5855(3)
H8 H 0.3895 0.2553 0.6455
C13 C 0.4300(3) 0.3543(2) 0.5807(4)
H9 H 0.4885 0.3580 0.6381
O1B O 1.38800(19) 0.43428(14) 0.9492(3)
O2B O 1.3319(3) 0.4248(2) 1.1273(4)
C1B C 1.3265(3) 0.4122(2) 1.0158(5)
C2B C 1.23925(17) 0.36768(14) 0.9458(2)
C3B C 1.1774(2) 0.32950(18) 1.01123(19)
H1B H 1.1877 0.3329 1.0968
C4B C 1.1002(2) 0.28622(17) 0.9488(3)
H2B H 1.0588 0.2607 0.9926
C5B C 1.08483(17) 0.28113(14) 0.8210(3)
C6B C 1.1467(2) 0.31932(16) 0.7555(2)
H3B H 1.1364 0.3159 0.6700
C7B C 1.22389(18) 0.36260(15) 0.8179(2)
H4B H 1.2653 0.3881 0.7741
H5B H 0.9741 0.2000 0.8079
N1E N 0.0922(2) 0.09042(15) 0.5019(3)
C9E C 0.1770(3) 0.0976(2) 0.5827(4)
H6E H 0.1949 0.0597 0.6401
C10E C 0.2401(3) 0.1589(2) 0.5854(4)
H7E H 0.2975 0.1613 0.6447
C11E C 0.2178(2) 0.21677(17) 0.4997(3)
C12E C 0.1295(3) 0.2083(2) 0.4145(3)
H8E H 0.1105 0.2447 0.3545
C13E C 0.0700(3) 0.1457(2) 0.4193(4)
H9E H 0.0115 0.1420 0.3619
Cu1D Cu 0.50109(18) 0.50118(14) 0.52995(9)
O3D O 0.4914(15) 0.5081(2) 0.7357(19)
Cu1F Cu 0.49891(18) 0.50118(14) 0.97005(9)
Cu1F_2 Cu 1.49891(18) 0.50118(14) 0.97005(9)
Cu1A Cu -0.00109(18) -0.00118(14) 0.47005(9)
Cu1B Cu 0.50109(18) 0.49882(14) 0.02995(9)
Cu1B_2 Cu 1.50109(18) 0.49882(14) 1.02995(9)
Cu1E Cu 0.00109(18) 0.00118(14) 0.52995(9)
O1D O 0.38800(19) 0.56572(14) 0.4492(3)
O3F O 0.5086(15) 0.5081(2) 0.7643(19)
O3B O 0.4914(15) 0.4919(2) 0.2357(19)
N1D N 0.5922(2) 0.59042(15) 0.5019(3)
loop_
_geom_bond_atom_site_label_1
_geom_bond_atom_site_label_2
_geom_bond_site_symmetry_1
_geom_bond_site_symmetry_2
Cu1 O1 1_555 1_555
O1 C1 1_555 1_555
O2 C1 1_555 1_555
O3 Cu1 1_555 1_555
C1 C2 1_555 1_555
C2 C3 1_555 1_555
C3 H1 1_555 1_555
C4 C3 1_555 1_555
H2 C4 1_555 1_555
C5 C4 1_555 1_555
C6 C5 1_555 1_555
H3 C6 1_555 1_555
C7 C2 1_555 1_555
H4 C7 1_555 1_555
N1 Cu1 1_555 1_555
C8 C5 1_555 1_555
H5 C8 1_555 1_555
C9 N1 1_555 1_555
H6 C9 1_555 1_555
C10 C9 1_555 1_555
H7 C10 1_555 1_555
C11 C10 1_555 1_555
C12 C11 1_555 1_555
H8 C12 1_555 1_555
C13 N1 1_555 1_555
H9 C13 1_555 1_555
O1B C1B 1_555 1_555
O2B C1B 1_555 1_555
C1B C2B 1_555 1_555
C2B C3B 1_555 1_555
C3B H1B 1_555 1_555
C4B C3B 1_555 1_555
H2B C4B 1_555 1_555
C5B C8 1_555 1_555
C6B C5B 1_555 1_555
H3B C6B 1_555 1_555
C7B C2B 1_555 1_555
H4B C7B 1_555 1_555
H5B C8 1_555 1_555
N1E C9E 1_555 1_555
C9E H6E 1_555 1_555
C10E C9E 1_555 1_555
H7E C10E 1_555 1_555
C11E C11 1_555 1_555
C12E C11E 1_555 1_555
H8E C12E 1_555 1_555
C13E N1E 1_555 1_555
H9E C13E 1_555 1_555
Cu1D O1 1_555 1_555
O3D Cu1D 1_555 1_555
Cu1F O3D 1_555 1_555
Cu1F_2 O1B 1_555 1_555
Cu1A N1E 1_555 1_555
Cu1B O3 1_555 1_555
Cu1B_2 O1B 1_555 1_555
Cu1E N1E 1_555 1_555
O1D Cu1 1_555 1_555
O3F Cu1D 1_555 1_555
O3B Cu1 1_555 1_555
N1D Cu1 1_555 1_555
C6 C7 1_555 1_555
N1 Cu1D 1_555 1_555
C12 C13 1_555 1_555
C4B C5B 1_555 1_555
C6B C7B 1_555 1_555
C10E C11E 1_555 1_555
C12E C13E 1_555 1_555
Cu1D O1D 1_555 1_555
Cu1D N1D 1_555 1_555
Cu1F O3F 1_555 1_555
Cu1B O3B 1_555 1_555

#END
