
#######################################################################
#
#                 Cambridge Crystallographic Data Centre
#                                CCDC 
#
#######################################################################
#
# If this CIF has been generated from an entry in the Cambridge 
# Structural Database, then it will include bibliographic, chemical, 
# crystal, experimental, refinement or atomic coordinate data resulting 
# from the CCDC's data processing and validation procedures.
#
#######################################################################

data_GOBTAT
_chemical_formula_moiety         'C69 H66 Co10 N3 O18'
_symmetry_cell_setting           monoclinic
_symmetry_space_group_name_H-M   'C 2/c'
_symmetry_Int_Tables_number      15
_space_group_name_Hall           '-C 2yc'
loop_
_symmetry_equiv_pos_site_id
_symmetry_equiv_pos_as_xyz
1 x,y,z
2 1/2+x,1/2+y,z
3 -x,y,1/2-z
4 1/2-x,1/2+y,1/2-z
5 -x,-y,-z
6 1/2-x,1/2-y,-z
7 x,-y,1/2+z
8 1/2+x,1/2-y,1/2+z
_cell_length_a                   20.136(4)
_cell_length_b                   21.190(4)
_cell_length_c                   17.292(4)
_cell_angle_alpha                90
_cell_angle_beta                 93.78(3)
_cell_angle_gamma                90
_cell_volume                     7362.13
loop_
_atom_site_label
_atom_site_type_symbol
_atom_site_fract_x
_atom_site_fract_y
_atom_site_fract_z
C25 C -0.24014(19) 0.1958(3) 0.1814(2)
H22 H -0.2605 0.1726 0.2204
C26 C -0.2038(2) 0.1646(2) 0.1277(2)
H23 H -0.1995 0.1199 0.1294
C27 C -0.17377(19) 0.1991(2) 0.0714(2)
H24 H -0.1490 0.1776 0.0345
C28 C -0.17935(19) 0.2644(2) 0.0680(2)
C29 C -0.21626(19) 0.2941(2) 0.1220(2)
H25 H -0.2209 0.3387 0.1206
C30 C -0.2466(2) 0.2597(2) 0.1780(3)
H26 H -0.2720 0.2809 0.2144
C31 C -0.1471(2) 0.3011(3) 0.0073(3)
H27 H -0.1235 0.2722 -0.0256
H28 H -0.1153 0.3311 0.0321
H29 H -0.1811 0.3242 -0.0244
C32 C 0.3883(3) 0.3967(3) 0.3961(3)
H30 H 0.3643 0.3849 0.3491
C33 C 0.4492(4) 0.3708(3) 0.4143(4)
H31 H 0.4679 0.3418 0.3799
C34 C 0.4838(3) 0.3872(3) 0.4840(4)
H32 H 0.5259 0.3685 0.4974
C35 C 0.4573(2) 0.4310(3) 0.5343(3)
C36 C 0.3951(2) 0.4565(2) 0.5120(2)
H33 H 0.3760 0.4865 0.5447
C37 C 0.3610(3) 0.4396(2) 0.4446(3)
H34 H 0.3184 0.4574 0.4311
C38 C 0.49504(18) 0.4512(2) 0.6086(2)
H35 H 0.5374 0.4283 0.6144
H36 H 0.4685 0.4417 0.6526
H37 H 0.5038 0.4966 0.6069
C39 C -0.00282(18) 0.4754(2) 0.1116(2)
H38 H -0.0467 0.4660 0.1251
C40 C 0.02906(18) 0.5295(2) 0.1403(2)
H39 H 0.0069 0.5572 0.1733
C41 C 0.09332(18) 0.5432(2) 0.1206(2)
H40 H 0.1151 0.5802 0.1402
C42 C 0.12570(18) 0.5027(2) 0.0722(2)
C43 C 0.09382(18) 0.4486(2) 0.0436(2)
H41 H 0.1160 0.4209 0.0105
C44 C 0.02957(18) 0.4349(2) 0.0633(2)
H42 H 0.0078 0.3979 0.0437
C45 C 0.19582(18) 0.5131(2) 0.0521(2)
H43 H 0.2090 0.4793 0.0175
H44 H 0.2253 0.5128 0.0995
H45 H 0.1992 0.5539 0.0260
Co1 Co 0.10654(2) 0.25704(2) 0.10590(2)
Co2 Co 0.2500 0.2500 0.0000
O1 O 0.16659(13) 0.32191(11) 0.14923(13)
O2 O 0.26020(12) 0.31655(11) 0.08566(13)
O3 O 0.14607(11) 0.26593(11) -0.01430(12)
O4 O 0.04235(11) 0.27641(12) 0.01377(12)
O5 O 0.26172(12) 0.67932(11) 0.42101(13)
O6 O 0.36383(11) 0.66916(11) 0.37763(13)
N1 N 0.04106(15) 0.25807(12) 0.19512(15)
C1 C 0.22442(16) 0.34018(15) 0.13376(17)
C2 C 0.25140(17) 0.39589(16) 0.17954(17)
C3 C 0.21218(17) 0.42697(16) 0.22855(19)
H1 H 0.1685 0.4119 0.2351
C4 C 0.23530(17) 0.48117(16) 0.26985(19)
C5 C 0.1951(2) 0.5145(2) 0.3199(2)
H2 H 0.1516 0.4995 0.3278
C6 C 0.21769(19) 0.56810(19) 0.3571(2)
H3 H 0.1897 0.5904 0.3898
C7 C 0.28278(16) 0.59011(15) 0.34694(18)
C8 C 0.32344(15) 0.55855(15) 0.29992(18)
H4 H 0.3672 0.5737 0.2941
C9 C 0.30081(15) 0.50323(15) 0.25953(17)
C10 C 0.34125(17) 0.46936(17) 0.2098(2)
H5 H 0.3855 0.4831 0.2035
C11 C 0.31734(17) 0.41709(17) 0.1707(2)
H6 H 0.3450 0.3949 0.1375
C12 C 0.08602(15) 0.27505(15) -0.03621(16)
C13 C 0.30456(16) 0.65065(15) 0.38570(16)
C14 C 0.06504(16) 0.28223(15) -0.12029(16)
C15 C 0.11252(17) 0.2828(2) -0.17589(19)
H7 H 0.1586 0.2808 -0.1601
C16 C 0.09242(18) 0.2862(2) -0.25350(18)
H8 H 0.1249 0.2877 -0.2909
C17 C -0.00151(16) 0.28609(17) -0.14239(17)
H9 H -0.0330 0.2878 -0.1039
C18 C 0.02393(16) 0.28759(16) -0.27825(17)
C19 C -0.0240(3) 0.2504(4) 0.1651(4)
H10 H -0.0271 0.2126 0.1316
H11 H -0.0375 0.2875 0.1330
C20 C 0.0616(3) 0.2058(4) 0.2541(4)
H12 H 0.0552 0.1638 0.2297
H13 H 0.1092 0.2105 0.2715
C21 C 0.0518(3) 0.3183(3) 0.2421(4)
H14 H 0.0495 0.3555 0.2074
H15 H 0.0960 0.3176 0.2707
C22 C -0.0185(4) 0.2117(5) 0.1765(4)
H16 H -0.0460 0.2274 0.1310
H17 H -0.0010 0.1696 0.1635
C23 C 0.0707(4) 0.2432(5) 0.2698(4)
H18 H 0.1097 0.2710 0.2807
H19 H 0.0869 0.1991 0.2694
C24 C 0.0040(4) 0.3215(3) 0.2003(4)
H20 H -0.0157 0.3331 0.1483
H21 H 0.0362 0.3549 0.2173
Co1E Co 0.39346(2) 0.24296(2) -0.10590(2)
Co1C Co 0.39346(2) 0.75704(2) 0.39410(2)
Co1B Co -0.10654(2) 0.25704(2) -0.60590(2)
Co1B_2 Co -0.10654(2) 0.25704(2) 0.39410(2)
Co1F Co 0.10654(2) -0.25704(2) -0.39410(2)
Co2F Co 0.2500 0.7500 0.5000
Co2G Co -0.2500 0.2500 -0.5000
Co2F_2 Co 0.2500 -0.2500 -0.5000
O1E O 0.33341(13) 0.17809(11) -0.14923(13)
O2E O 0.23980(12) 0.18345(11) -0.08566(13)
O3B O -0.14607(11) 0.26593(11) -0.48570(12)
O3E O 0.35393(11) 0.23407(11) 0.01430(12)
O4B O -0.04235(11) 0.27641(12) -0.51377(12)
O4E O 0.45765(11) 0.22359(12) -0.01377(12)
O5E O 0.23828(12) -0.17932(11) -0.42101(13)
O5F O 0.26172(12) 0.32068(11) -0.07899(13)
O5C O 0.23828(12) 0.17932(11) 0.07899(13)
O6E O 0.13617(11) -0.16916(11) -0.37763(13)
O6C O 0.13617(11) 0.16916(11) 0.12237(13)
O6F O 0.36383(11) 0.33084(11) -0.12237(13)
N1B N -0.04106(15) 0.25807(12) 0.30488(15)
N1E N 0.45894(15) 0.24193(12) -0.19512(15)
C1E C 0.27558(16) 0.15982(15) -0.13376(17)
C2E C 0.24860(17) 0.10411(16) -0.17954(17)
C3E C 0.28782(17) 0.07303(16) -0.22855(19)
H1E H 0.3315 0.0881 -0.2351
C4E C 0.26470(17) 0.01883(16) -0.26985(19)
C5E C 0.3049(2) -0.0145(2) -0.3199(2)
H2E H 0.3484 0.0005 -0.3278
C6E C 0.28231(19) -0.06810(19) -0.3571(2)
H3E H 0.3103 -0.0904 -0.3898
C7E C 0.21722(16) -0.09011(15) -0.34694(18)
C8E C 0.17656(15) -0.05855(15) -0.29992(18)
H4E H 0.1328 -0.0737 -0.2941
C9E C 0.19919(15) -0.00323(15) -0.25953(17)
C10E C 0.15875(17) 0.03064(17) -0.2098(2)
H5E H 0.1145 0.0169 -0.2035
C11E C 0.18266(17) 0.08291(17) -0.1707(2)
H6E H 0.1550 0.1051 -0.1375
C12B C -0.08602(15) 0.27505(15) -0.46379(16)
C13E C 0.19544(16) -0.15065(15) -0.38570(16)
C14B C -0.06504(16) 0.28223(15) -0.37971(16)
C15B C -0.11252(17) 0.2828(2) -0.32411(19)
H7B H -0.1586 0.2808 -0.3399
C16B C -0.09242(18) 0.2862(2) -0.24650(18)
H8B H -0.1249 0.2877 -0.2091
C17B C 0.00151(16) 0.28609(17) -0.35761(17)
H9B H 0.0330 0.2878 -0.3961
C18B C -0.02393(16) 0.28759(16) -0.22175(17)
C19B C 0.0240(3) 0.2504(4) 0.3349(4)
H10B H 0.0271 0.2126 0.3684
H11B H 0.0375 0.2875 0.3670
C20B C -0.0616(3) 0.2058(4) 0.2459(4)
H12B H -0.0552 0.1638 0.2703
H13B H -0.1092 0.2105 0.2285
C21B C -0.0518(3) 0.3183(3) 0.2579(4)
H14B H -0.0495 0.3555 0.2926
H15B H -0.0960 0.3176 0.2293
C22B C 0.0185(4) 0.2117(5) 0.3235(4)
H16B H 0.0460 0.2274 0.3690
H17B H 0.0010 0.1696 0.3365
C23B C -0.0707(4) 0.2432(5) 0.2302(4)
H18B H -0.1097 0.2710 0.2193
H19B H -0.0869 0.1991 0.2306
C24B C -0.0040(4) 0.3215(3) 0.2997(4)
H20B H 0.0157 0.3331 0.3517
H21B H -0.0362 0.3549 0.2827
loop_
_geom_bond_atom_site_label_1
_geom_bond_atom_site_label_2
_geom_bond_site_symmetry_1
_geom_bond_site_symmetry_2
Co1 O1 1_555 1_555
Co2 O2 1_555 1_555
O1 C1 1_555 1_555
O2 C1 1_555 1_555
O3 Co1 1_555 1_555
O4 Co1 1_555 1_555
O5 C13 1_555 1_555
O6 C13 1_555 1_555
N1 Co1 1_555 1_555
C1 C2 1_555 1_555
C2 C3 1_555 1_555
C3 H1 1_555 1_555
C4 C3 1_555 1_555
C5 C4 1_555 1_555
H2 C5 1_555 1_555
C6 C5 1_555 1_555
H3 C6 1_555 1_555
C7 C6 1_555 1_555
C8 C7 1_555 1_555
H4 C8 1_555 1_555
C9 C4 1_555 1_555
C10 C9 1_555 1_555
H5 C10 1_555 1_555
C11 C2 1_555 1_555
H6 C11 1_555 1_555
C12 O3 1_555 1_555
C13 C7 1_555 1_555
C14 C12 1_555 1_555
C15 C14 1_555 1_555
H7 C15 1_555 1_555
C16 C15 1_555 1_555
H8 C16 1_555 1_555
C17 C14 1_555 1_555
H9 C17 1_555 1_555
C18 C16 1_555 1_555
C19 N1 1_555 1_555
H10 C19 1_555 1_555
H11 C19 1_555 1_555
C20 N1 1_555 1_555
H12 C20 1_555 1_555
H13 C20 1_555 1_555
C21 N1 1_555 1_555
H14 C21 1_555 1_555
H15 C21 1_555 1_555
C22 N1 1_555 1_555
H16 C19 1_555 1_555
H17 C22 1_555 1_555
C23 N1 1_555 1_555
H18 C23 1_555 1_555
H19 C20 1_555 1_555
C24 N1 1_555 1_555
H20 C24 1_555 1_555
H21 C21 1_555 1_555
C25 H22 1_555 1_555
C26 C25 1_555 1_555
H23 C26 1_555 1_555
C27 C26 1_555 1_555
H24 C27 1_555 1_555
C28 C27 1_555 1_555
C29 C28 1_555 1_555
H25 C29 1_555 1_555
C30 C25 1_555 1_555
H26 C30 1_555 1_555
C31 C28 1_555 1_555
H27 C31 1_555 1_555
H28 C31 1_555 1_555
H29 C31 1_555 1_555
C32 H30 1_555 1_555
C33 C32 1_555 1_555
H31 C33 1_555 1_555
C34 C33 1_555 1_555
H32 C34 1_555 1_555
C35 C34 1_555 1_555
C36 C35 1_555 1_555
H33 C36 1_555 1_555
C37 C32 1_555 1_555
H34 C37 1_555 1_555
C38 C35 1_555 1_555
H35 C38 1_555 1_555
H36 C38 1_555 1_555
H37 C38 1_555 1_555
C39 H38 1_555 1_555
C40 C39 1_555 1_555
H39 C40 1_555 1_555
C41 C40 1_555 1_555
H40 C41 1_555 1_555
C42 C41 1_555 1_555
C43 C42 1_555 1_555
H41 C43 1_555 1_555
C44 C39 1_555 1_555
H42 C44 1_555 1_555
C45 C42 1_555 1_555
H43 C45 1_555 1_555
H44 C45 1_555 1_555
H45 C45 1_555 1_555
Co1E O1E 1_555 1_555
Co1C O6 1_555 1_555
Co1B O3B 1_555 1_555
Co1B_2 N1B 1_555 1_555
Co1F O6E 1_555 1_555
Co2F O5 1_555 1_555
Co2G O3B 1_555 1_555
Co2F_2 O5E 1_555 1_555
O1E C1E 1_555 1_555
O2E Co2 1_555 1_555
O3B C12B 1_555 1_555
O3E Co2 1_555 1_555
O4B Co1B 1_555 1_555
O4E Co1E 1_555 1_555
O5E C13E 1_555 1_555
O5F Co2 1_555 1_555
O5C Co2 1_555 1_555
O6E C13E 1_555 1_555
O6C Co1 1_555 1_555
O6F Co1E 1_555 1_555
N1B C19B 1_555 1_555
N1E Co1E 1_555 1_555
C1E O2E 1_555 1_555
C2E C1E 1_555 1_555
C3E C2E 1_555 1_555
H1E C3E 1_555 1_555
C4E C3E 1_555 1_555
C5E C4E 1_555 1_555
H2E C5E 1_555 1_555
C6E C5E 1_555 1_555
H3E C6E 1_555 1_555
C7E C6E 1_555 1_555
C8E C7E 1_555 1_555
H4E C8E 1_555 1_555
C9E C4E 1_555 1_555
C10E C9E 1_555 1_555
H5E C10E 1_555 1_555
C11E C2E 1_555 1_555
H6E C11E 1_555 1_555
C12B O4B 1_555 1_555
C13E C7E 1_555 1_555
C14B C12B 1_555 1_555
C15B C14B 1_555 1_555
H7B C15B 1_555 1_555
C16B C15B 1_555 1_555
H8B C16B 1_555 1_555
C17B C18 1_555 1_555
H9B C17B 1_555 1_555
C18B C17 1_555 1_555
C19B C23 1_555 1_555
H10B C19B 1_555 1_555
H11B C19B 1_555 1_555
C20B C22 1_555 1_555
H12B C20B 1_555 1_555
H13B C20B 1_555 1_555
C21B C24 1_555 1_555
H14B C21B 1_555 1_555
H15B C21B 1_555 1_555
C22B C20 1_555 1_555
H16B C19B 1_555 1_555
H17B C22B 1_555 1_555
C23B C19 1_555 1_555
H18B C23B 1_555 1_555
H19B C20B 1_555 1_555
C24B C21 1_555 1_555
H20B C24B 1_555 1_555
H21B C21B 1_555 1_555
Co2 O3 1_555 1_555
O4 C12 1_555 1_555
C8 C9 1_555 1_555
C10 C11 1_555 1_555
C18 C18B 1_555 1_555
C19 C22 1_555 1_555
C19 C24 1_555 1_555
H10 C22 1_555 1_555
H10 H16 1_555 1_555
C20 C23 1_555 1_555
H13 C23 1_555 1_555
H13 H19 1_555 1_555
C21 C23 1_555 1_555
C21 C24 1_555 1_555
H14 C24 1_555 1_555
H14 H21 1_555 1_555
C22 H16 1_555 1_555
C22 C23B 1_555 1_555
C23 H19 1_555 1_555
C23 C22B 1_555 1_555
C24 H21 1_555 1_555
C24 C24B 1_555 1_555
C29 C30 1_555 1_555
C36 C37 1_555 1_555
C43 C44 1_555 1_555
Co1E O3E 1_555 1_555
N1B C20B 1_555 1_555
N1B C21B 1_555 1_555
N1B C22B 1_555 1_555
N1B C23B 1_555 1_555
N1B C24B 1_555 1_555
C8E C9E 1_555 1_555
C10E C11E 1_555 1_555
C14B C17B 1_555 1_555
C16B C18B 1_555 1_555
C19B C22B 1_555 1_555
C19B C24B 1_555 1_555
H10B C22B 1_555 1_555
H10B H16B 1_555 1_555
C20B C23B 1_555 1_555
H13B C23B 1_555 1_555
H13B H19B 1_555 1_555
C21B C23B 1_555 1_555
C21B C24B 1_555 1_555
H14B C24B 1_555 1_555
H14B H21B 1_555 1_555
C22B H16B 1_555 1_555
C23B H19B 1_555 1_555
C24B H21B 1_555 1_555

#END
