
#######################################################################
#
#                 Cambridge Crystallographic Data Centre
#                                CCDC 
#
#######################################################################
#
# If this CIF has been generated from an entry in the Cambridge 
# Structural Database, then it will include bibliographic, chemical, 
# crystal, experimental, refinement or atomic coordinate data resulting 
# from the CCDC's data processing and validation procedures.
#
#######################################################################

data_CIVTEH
_chemical_formula_moiety         '(C29 H24 Cu1 N6 O8)n'
_symmetry_cell_setting           monoclinic
_symmetry_space_group_name_H-M   'C 2/c'
_symmetry_Int_Tables_number      15
_space_group_name_Hall           '-C 2yc'
loop_
_symmetry_equiv_pos_site_id
_symmetry_equiv_pos_as_xyz
1 x,y,z
2 1/2+x,1/2+y,z
3 -x,y,1/2-z
4 1/2-x,1/2+y,1/2-z
5 -x,-y,-z
6 1/2-x,1/2-y,-z
7 x,-y,1/2+z
8 1/2+x,1/2-y,1/2+z
_cell_length_a                   12.2342(11)
_cell_length_b                   25.093(2)
_cell_length_c                   19.6064(18)
_cell_angle_alpha                90
_cell_angle_beta                 104.225(2)
_cell_angle_gamma                90
_cell_volume                     5834.47
loop_
_atom_site_label
_atom_site_type_symbol
_atom_site_fract_x
_atom_site_fract_y
_atom_site_fract_z
_atom_site_U_iso_or_equiv
_atom_site_thermal_displace_type
Cu1 Cu 0.58123(5) 0.72198(2) 0.96223(3) 0.0279 Uani
O1 O 0.5877(3) 0.79103(12) 0.91576(17) 0.0336 Uani
O2 O 0.7740(3) 0.79649(13) 0.94915(17) 0.0344 Uani
C1 C 0.6807(4) 0.81517(18) 0.9218(2) 0.0271 Uani
C2 C 0.6724(4) 0.87153(19) 0.8934(2) 0.0293 Uani
C3 C 0.5676(5) 0.8969(2) 0.8710(3) 0.0457 Uani
H1 H 0.5003 0.8783 0.8719 0.0550 Uiso
C4 C 0.5629(5) 0.9489(2) 0.8476(3) 0.0494 Uani
H2 H 0.4917 0.9658 0.8316 0.0590 Uiso
C5 C 0.6602(4) 0.97683(19) 0.8470(3) 0.0339 Uani
C6 C 0.7641(4) 0.9516(2) 0.8682(2) 0.0371 Uani
H3 H 0.8313 0.9699 0.8664 0.0440 Uiso
C7 C 0.7690(4) 0.8990(2) 0.8924(3) 0.0337 Uani
H4 H 0.8401 0.8821 0.9083 0.0410 Uiso
N1 N 0.6573(3) 1.14311(15) 0.79298(19) 0.0285 Uani
C8 C 0.6567(4) 1.0342(2) 0.8261(3) 0.0343 Uani
C9 C 0.7043(4) 1.05300(18) 0.7734(2) 0.0402 Uani
C10 C 0.7034(4) 1.1074(2) 0.7585(2) 0.0325 Uani
C11 C 0.6140(4) 1.12614(19) 0.8454(2) 0.0294 Uani
C12 C 0.6084(4) 1.0719(2) 0.8610(2) 0.0383 Uani
C13 C 0.5354(6) 1.0551(3) 0.9049(4) 0.0390 Uiso
N2 N 0.4836(6) 1.0459(4) 0.9443(4) 0.0640 Uiso
C15 C 0.7343(6) 1.0126(3) 0.7280(4) 0.0218 Uiso
N4 N 0.7618(7) 0.9817(3) 0.6933(4) 0.0510 Uiso
N6 N 0.8535(3) 1.18281(15) 0.60773(19) 0.0293 Uani
C17 C 0.7571(4) 1.13162(19) 0.7043(2) 0.0325 Uani
C18 C 0.8196(4) 1.1775(2) 0.7229(3) 0.0365 Uani
H5 H 0.8306 1.1917 0.7690 0.0440 Uiso
C19 C 0.8667(5) 1.2029(2) 0.6736(3) 0.0387 Uani
H6 H 0.9086 1.2348 0.6863 0.0460 Uiso
C20 C 0.7950(4) 1.13767(19) 0.5915(3) 0.0342 Uani
H7 H 0.7857 1.1233 0.5456 0.0410 Uiso
C21 C 0.7479(5) 1.11112(19) 0.6384(3) 0.0391 Uani
H8 H 0.7089 1.0785 0.6251 0.0470 Uiso
N7 N 0.4906(3) 1.23824(16) 0.9715(2) 0.0318 Uani
C22 C 0.5734(4) 1.1677(2) 0.8873(2) 0.0327 Uani
C23 C 0.4925(4) 1.2043(2) 0.8579(3) 0.0347 Uani
H9 H 0.4630 1.2060 0.8084 0.0420 Uiso
C24 C 0.4548(4) 1.2389(2) 0.9028(2) 0.0347 Uani
H10 H 0.3995 1.2646 0.8823 0.0420 Uiso
C25 C 0.5727(5) 1.2039(3) 0.9994(3) 0.0556 Uani
H11 H 0.6024 1.2042 1.0489 0.0670 Uiso
C26 C 0.6164(5) 1.1683(3) 0.9601(3) 0.0558 Uani
H12 H 0.6750 1.1446 0.9820 0.0670 Uiso
O3 O 0.5111(3) 0.65241(13) 0.98411(17) 0.0344 Uani
O4 O 0.3552(4) 0.60978(18) 0.9384(3) 0.0720 Uani
O5 O 0.3870(3) 0.68789(16) 0.8982(2) 0.0511 Uani
N8 N 0.4147(4) 0.64998(18) 0.9390(2) 0.0425 Uani
Cu1E Cu 0.91877(5) 0.77802(2) 1.03777(3) 0.0279 Uani
Cu1C Cu 0.91877(5) 1.22198(2) 0.53777(3) 0.0279 Uani
Cu1D Cu 0.41877(5) 1.27802(2) 1.03777(3) 0.0279 Uani
O2E O 0.7260(3) 0.70351(13) 1.05085(17) 0.0344 Uani
N6C N 0.6465(3) 0.68281(15) 0.89227(19) 0.0293 Uani
N7D N 0.5094(3) 0.76176(16) 1.0285(2) 0.0318 Uani
O6 O 1.2787(7) 0.8554(4) 0.8635(6) 0.1000 Uiso
O7 O 1.0911(7) 0.8093(4) 0.7661(6) 0.1000 Uiso
C28 C 1.2847(12) 0.8056(5) 0.8261(6) 0.1000 Uiso
H17 H 1.2665 0.7753 0.8537 0.1200 Uiso
H18 H 1.3622 0.8005 0.8204 0.1200 Uiso
C29 C 1.2026(7) 0.8069(7) 0.7547(4) 0.0840 Uiso
H19 H 1.2167 0.8385 0.7279 0.1000 Uiso
H20 H 1.2110 0.7745 0.7276 0.1000 Uiso
C30 C 1.0754(12) 0.8589(5) 0.8014(6) 0.1000 Uiso
H22 H 1.0870 0.8900 0.7729 0.1200 Uiso
C31 C 1.1649(8) 0.8583(9) 0.8731(7) 0.1160 Uiso
H23 H 1.1570 0.8911 0.8997 0.1390 Uiso
H24 H 1.1511 0.8273 0.9010 0.1390 Uiso
C27 C 0.4681(8) 0.4653(7) 0.5396(6) 0.0930 Uiso
H13 H 0.4250 0.4459 0.4983 0.1390 Uiso
H14 H 0.4905 0.4406 0.5794 0.1390 Uiso
H15 H 0.5356 0.4808 0.5291 0.1390 Uiso
O8 O 0.3992(11) 0.5071(5) 0.5573(7) 0.1030 Uiso
H16 H 0.3309 0.4984 0.5439 0.1540 Uiso
loop_
_atom_site_aniso_label
_atom_site_aniso_U_11
_atom_site_aniso_U_22
_atom_site_aniso_U_33
_atom_site_aniso_U_23
_atom_site_aniso_U_13
_atom_site_aniso_U_12
Cu1 0.0410(3) 0.0225(3) 0.0244(3) 0.0000(2) 0.0162(2) 0.0038(3)
O1 0.0463 0.0217 0.0372 0.0036 0.0186 0.0033
O2 0.0431 0.0284 0.033 0.01 0.0121 0.011
C1 0.044 0.023 0.019 -0.0017 0.0169 0.003
C2 0.043 0.026 0.022 0.0024 0.014 0.004
C3 0.039 0.03 0.069 0.016 0.015 0
C4 0.038 0.038 0.073 0.018 0.015 0.012
C5 0.046 0.025 0.034 0.007 0.016 0.008
C6 0.04 0.035 0.043 0.014 0.023 0.006
C7 0.034 0.033 0.037 0.012 0.014 0.011
N1 0.037 0.026 0.0268 -0.0001 0.016 0.0073
C8 0.039 0.032 0.035 0.007 0.015 0.007
C9 0.068 0.025 0.036 0.006 0.029 0.011
C10 0.041 0.033 0.028 0.005 0.017 0.004
C11 0.034 0.029 0.029 0.003 0.015 0.003
C12 0.049 0.029 0.047 0.009 0.031 0.009
N6 0.044 0.024 0.0254 0.0047 0.0189 0.0038
C17 0.046 0.027 0.03 0.009 0.02 0.011
C18 0.055 0.036 0.022 0.001 0.016 -0.001
C19 0.056 0.032 0.031 -0.003 0.016 -0.004
C20 0.057 0.02 0.031 -0.003 0.021 -0.001
C21 0.07 0.017 0.041 -0.002 0.034 -0.002
N7 0.04 0.029 0.03 -0.0021 0.0155 0.0078
C22 0.043 0.031 0.031 0.005 0.022 0.006
C23 0.05 0.03 0.029 -0.002 0.019 0.004
C24 0.049 0.028 0.03 0.002 0.015 0.014
C25 0.067 0.074 0.026 0.004 0.012 0.031
C26 0.068 0.063 0.043 0.007 0.026 0.037
O3 0.0392(19) 0.0339(19) 0.0308(17) 0.0079(15) 0.0102(15) -0.0015(15)
O4 0.056(3) 0.052(3) 0.103(4) 0.001(3) 0.010(3) -0.017(2)
O5 0.057(2) 0.050(2) 0.039(2) 0.0014(19) -0.0020(19) 0.003(2)
N8 0.049(3) 0.037(3) 0.044(3) -0.002(2) 0.016(2) -0.001(2)
Cu1E 0.041 0.0225 0.0244 0 0.0162 0.0038
Cu1C 0.041 0.0225 0.0244 0 0.0162 -0.0038
Cu1D 0.041 0.0225 0.0244 0 0.0162 0.0038
O2E 0.0431 0.0284 0.033 0.01 0.0121 0.011
N6C 0.044(2) 0.024(2) 0.0254(19) -0.0047(16) 0.0189(17) -0.0038(18)
N7D 0.04 0.029 0.03 -0.0021 0.0155 0.0078
loop_
_geom_bond_atom_site_label_1
_geom_bond_atom_site_label_2
_geom_bond_site_symmetry_1
_geom_bond_site_symmetry_2
Cu1 O1 1_555 1_555
O1 C1 1_555 1_555
O2 C1 1_555 1_555
C1 C2 1_555 1_555
C2 C3 1_555 1_555
C3 H1 1_555 1_555
C4 C3 1_555 1_555
H2 C4 1_555 1_555
C5 C4 1_555 1_555
C6 C5 1_555 1_555
H3 C6 1_555 1_555
C7 C2 1_555 1_555
H4 C7 1_555 1_555
N1 C10 1_555 1_555
C8 C5 1_555 1_555
C9 C8 1_555 1_555
C10 C9 1_555 1_555
C11 N1 1_555 1_555
C12 C8 1_555 1_555
C13 C12 1_555 1_555
N2 C13 1_555 1_555
C15 C9 1_555 1_555
N4 C15 1_555 1_555
N6 C19 1_555 1_555
C17 C10 1_555 1_555
C18 C17 1_555 1_555
H5 C18 1_555 1_555
C19 C18 1_555 1_555
H6 C19 1_555 1_555
C20 N6 1_555 1_555
H7 C20 1_555 1_555
C21 C17 1_555 1_555
H8 C21 1_555 1_555
N7 C24 1_555 1_555
C22 C11 1_555 1_555
C23 C22 1_555 1_555
H9 C23 1_555 1_555
C24 C23 1_555 1_555
H10 C24 1_555 1_555
C25 N7 1_555 1_555
H11 C25 1_555 1_555
C26 C22 1_555 1_555
H12 C26 1_555 1_555
O3 Cu1 1_555 1_555
O4 N8 1_555 1_555
O5 Cu1 1_555 1_555
N8 O3 1_555 1_555
O6 C28 1_555 1_555
O7 C29 1_555 1_555
C27 H13 1_555 1_555
H14 C27 1_555 1_555
H15 C27 1_555 1_555
O8 C27 1_555 1_555
H16 O8 1_555 1_555
C28 H17 1_555 1_555
H18 C28 1_555 1_555
C29 C28 1_555 1_555
H19 C29 1_555 1_555
H20 C29 1_555 1_555
C30 O7 1_555 1_555
H22 C30 1_555 1_555
C31 O6 1_555 1_555
H23 C31 1_555 1_555
H24 C31 1_555 1_555
Cu1E O2 1_555 1_555
Cu1C N6 1_555 1_555
Cu1D N7 1_555 1_555
O2E Cu1 1_555 1_555
N6C Cu1 1_555 1_555
N7D Cu1 1_555 1_555
C6 C7 1_555 1_555
C11 C12 1_555 1_555
C20 C21 1_555 1_555
C25 C26 1_555 1_555
O5 N8 1_555 1_555
C30 C31 1_555 1_555

#END
