
#######################################################################
#
#                 Cambridge Crystallographic Data Centre
#                                CCDC 
#
#######################################################################
#
# If this CIF has been generated from an entry in the Cambridge 
# Structural Database, then it will include bibliographic, chemical, 
# crystal, experimental, refinement or atomic coordinate data resulting 
# from the CCDC's data processing and validation procedures.
#
#######################################################################

data_FITGEW
_chemical_formula_moiety         '(C36 H58 N4 Ni2 O23)n'
_symmetry_cell_setting           rhombohedral
_symmetry_space_group_name_H-M   'R -3'
_symmetry_Int_Tables_number      148
_space_group_name_Hall           '-R 3'
loop_
_symmetry_equiv_pos_site_id
_symmetry_equiv_pos_as_xyz
1 x,y,z
2 -y,x-y,z
3 -x+y,-x,z
4 2/3+x,1/3+y,1/3+z
5 2/3-y,1/3+x-y,1/3+z
6 2/3-x+y,1/3-x,1/3+z
7 1/3+x,2/3+y,2/3+z
8 1/3-y,2/3+x-y,2/3+z
9 1/3-x+y,2/3-x,2/3+z
10 -x,-y,-z
11 y,-x+y,-z
12 x-y,x,-z
13 1/3-x,2/3-y,2/3-z
14 1/3+y,2/3-x+y,2/3-z
15 1/3+x-y,2/3+x,2/3-z
16 2/3-x,1/3-y,1/3-z
17 2/3+y,1/3-x+y,1/3-z
18 2/3+x-y,1/3+x,1/3-z
_cell_length_a                   37.4822(8)
_cell_length_b                   37.4822(8)
_cell_length_c                   17.2024(6)
_cell_angle_alpha                90
_cell_angle_beta                 90
_cell_angle_gamma                120
_cell_volume                     20930
loop_
_atom_site_label
_atom_site_type_symbol
_atom_site_fract_x
_atom_site_fract_y
_atom_site_fract_z
_atom_site_U_iso_or_equiv
_atom_site_thermal_displace_type
Ni1 Ni 0.50708(2) 0.30913(2) 1.81054(4) 0.0190 Uani
Ni2 Ni 0.43149(2) 0.43934(2) 1.51966(4) 0.0214 Uani
O1 O 0.52342(9) 0.34607(9) 1.71266(17) 0.0219 Uani
O2 O 0.53769(13) 0.31242(10) 1.6227(2) 0.0375 Uani
O3 O 0.61591(10) 0.39328(9) 1.72227(18) 0.0251 Uani
O4 O 0.61005(9) 0.44807(9) 1.75486(17) 0.0223 Uani
O5 O 0.59982(10) 0.52678(9) 1.46543(18) 0.0254 Uani
O6 O 0.54657(9) 0.50484(9) 1.54239(17) 0.0229 Uani
O7 O 0.51327(10) 0.44710(10) 1.39996(18) 0.0271 Uani
O8 O 0.47090(10) 0.41776(10) 1.50098(18) 0.0264 Uani
O9 O 0.51597(10) 0.26669(9) 1.74957(18) 0.0245 Uani
H1 H 0.5325 0.2593 1.7672 0.0290 Uiso
H2 H 0.5265 0.2812 1.7090 0.0290 Uiso
O10 O 0.56953(9) 0.34262(9) 1.84129(18) 0.0240 Uani
H3 H 0.5884 0.3539 1.8073 0.0290 Uiso
H4 H 0.5727 0.3247 1.8658 0.0290 Uiso
O11 O 0.47171(10) 0.47509(10) 1.61162(17) 0.0250 Uani
H5 H 0.4718 0.4978 1.6124 0.0300 Uiso
H6 H 0.4941 0.4793 1.5908 0.0300 Uiso
N1 N 0.44548(12) 0.27355(11) 1.7769(2) 0.0244 Uani
N2 N 0.19003(11) 0.16971(12) 1.5344(2) 0.0237 Uani
N3 N 0.39483(12) 0.40882(12) 1.4255(2) 0.0254 Uani
N4 N 0.27118(12) 0.33844(12) 0.9362(2) 0.0238 Uani
C1 C 0.55461(14) 0.38144(13) 1.5940(2) 0.0210 Uani
H7 H 0.5641 0.3741 1.5453 0.0250 Uiso
C2 C 0.59163(14) 0.42211(13) 1.6259(2) 0.0206 Uani
H8 H 0.6155 0.4287 1.5909 0.0250 Uiso
C3 C 0.51947(14) 0.39022(14) 1.5708(3) 0.0231 Uani
H9 H 0.4939 0.3641 1.5565 0.0280 Uiso
C4 C 0.53571(14) 0.41984(13) 1.5007(2) 0.0218 Uani
H10 H 0.5442 0.4065 1.4600 0.0260 Uiso
C5 C 0.57549(14) 0.46051(14) 1.5265(2) 0.0227 Uani
H11 H 0.5996 0.4624 1.4979 0.0270 Uiso
C6 C 0.58207(14) 0.45739(14) 1.6155(3) 0.0229 Uani
H12 H 0.6054 0.4839 1.6353 0.0270 Uiso
C7 C 0.51109(14) 0.41153(14) 1.6364(2) 0.0226 Uani
H13 H 0.4847 0.4006 1.6599 0.0270 Uiso
C8 C 0.54311(14) 0.44648(14) 1.6588(2) 0.0224 Uani
H14 H 0.5417 0.4633 1.6986 0.0270 Uiso
C9 C 0.53800(14) 0.34404(13) 1.6484(3) 0.0222 Uani
C10 C 0.60600(13) 0.42039(13) 1.7082(3) 0.0212 Uani
C11 C 0.50394(14) 0.42897(13) 1.4640(3) 0.0230 Uani
C12 C 0.57360(14) 0.49921(14) 1.5106(2) 0.0220 Uani
C13 C 0.43618(14) 0.26351(15) 1.7017(3) 0.0290 Uani
H15 H 0.4581 0.2729 1.6652 0.0350 Uiso
C14 C 0.39634(14) 0.24016(15) 1.6751(3) 0.0308 Uani
H16 H 0.3913 0.2342 1.6212 0.0370 Uiso
C15 C 0.36326(14) 0.22515(14) 1.7269(3) 0.0291 Uani
C16 C 0.37286(15) 0.23328(15) 1.8058(3) 0.0300 Uani
H17 H 0.3516 0.2222 1.8438 0.0360 Uiso
C17 C 0.41373(15) 0.25774(15) 1.8284(3) 0.0273 Uani
H18 H 0.4197 0.2637 1.8821 0.0330 Uiso
C18 C 0.31994(15) 0.20474(15) 1.7019(3) 0.0311 Uani
H19 H 0.2993 0.1945 1.7411 0.0380 Uiso
C19 C 0.30750(16) 0.19953(16) 1.6279(3) 0.0337 Uani
H20 H 0.3280 0.2053 1.5897 0.0400 Uiso
C20 C 0.26575(15) 0.18586(14) 1.5986(3) 0.0286 Uani
C21 C 0.26062(16) 0.18874(18) 1.5189(3) 0.0370 Uani
H21 H 0.2831 0.1961 1.4845 0.0440 Uiso
C22 C 0.22317(15) 0.18102(17) 1.4899(3) 0.0337 Uani
H22 H 0.2208 0.1839 1.4356 0.0410 Uiso
C23 C 0.19402(15) 0.16515(15) 1.6106(3) 0.0266 Uani
H23 H 0.1705 0.1563 1.6429 0.0320 Uiso
C24 C 0.23072(16) 0.17271(15) 1.6447(3) 0.0317 Uani
H24 H 0.2320 0.1689 1.6990 0.0380 Uiso
C25 C 0.35525(15) 0.39819(15) 1.4227(3) 0.0269 Uani
H25 H 0.3426 0.4008 1.4685 0.0330 Uiso
C26 C 0.33172(15) 0.38346(15) 1.3558(3) 0.0293 Uani
H26 H 0.3035 0.3761 1.3563 0.0350 Uiso
C27 C 0.34956(15) 0.37940(14) 1.2878(3) 0.0277 Uani
C28 C 0.39117(16) 0.39021(16) 1.2916(3) 0.0303 Uani
H27 H 0.4046 0.3875 1.2470 0.0370 Uiso
C29 C 0.41252(16) 0.40486(16) 1.3609(3) 0.0320 Uani
H28 H 0.4408 0.4124 1.3627 0.0390 Uiso
C30 C 0.32581(16) 0.36499(15) 1.2162(3) 0.0297 Uani
H29 H 0.2970 0.3469 1.2205 0.0350 Uiso
C31 C 0.34177(16) 0.37546(14) 1.1446(3) 0.0291 Uani
H30 H 0.3707 0.3929 1.1401 0.0350 Uiso
C32 C 0.31758(15) 0.36179(15) 1.0729(3) 0.0262 Uani
C33 C 0.33033(15) 0.38713(15) 1.0064(3) 0.0276 Uani
H31 H 0.3554 0.4127 1.0071 0.0330 Uiso
C34 C 0.30631(14) 0.37459(15) 0.9404(3) 0.0247 Uani
H32 H 0.3150 0.3922 0.8963 0.0300 Uiso
C35 C 0.25981(15) 0.31323(15) 0.9986(3) 0.0259 Uani
H33 H 0.2356 0.2870 0.9950 0.0310 Uiso
C36 C 0.28176(14) 0.32387(15) 1.0671(3) 0.0272 Uani
H34 H 0.2725 0.3054 1.1100 0.0320 Uiso
Ni1H Ni 0.13538(3) 0.15959(2) 1.47721(4) 0.0190 Uani
Ni1M Ni 0.64246(2) 0.46872(3) 1.85613(4) 0.0190 Uani
Ni2D Ni 0.22733(2) 0.32548(3) 0.85299(4) 0.0214 Uani
Ni2I Ni 0.56851(2) 0.56066(2) 1.48034(4) 0.0214 Uani
O4N O 0.49531(13) 0.27672(9) 1.91181(17) 0.0223 Uani
O5I O 0.40018(10) 0.47322(9) 1.53457(18) 0.0254 Uani
O6I O 0.45343(9) 0.49516(9) 1.45761(17) 0.0229 Uani
N2D N 0.49696(12) 0.35365(16) 1.8677(2) 0.0237 Uani
N4H N 0.40059(17) 0.39549(12) 1.6029(2) 0.0238 Uani
O12 O -0.12503(17) 0.17990(16) 0.8843(3) 0.0653 Uani
H35 H -0.1266 0.1865 0.9309 0.0990 Uiso
H36 H -0.1404 0.1540 0.8800 0.0990 Uiso
O13 O 0.20625(19) 0.2468(2) 1.1630(4) 0.0871 Uani
H37 H 0.1988 0.2640 1.1500 0.1310 Uiso
H38 H 0.1977 0.2279 1.1286 0.1310 Uiso
O14 O -0.0882(2) 0.1147(2) 0.9792(3) 0.0971 Uani
H39 H -0.1082 0.1161 0.9589 0.1450 Uiso
H40 H -0.0805 0.1026 0.9473 0.1450 Uiso
O15 O 0.4888(3) 0.4277(3) 1.2226(6) 0.1406 Uani
H41 H 0.4914 0.4281 1.2718 0.2110 Uiso
H42 H 0.4723 0.4031 1.2083 0.2110 Uiso
O16 O 0.2118(3) 0.1985(3) 0.8922(6) 0.1404 Uani
H43 H 0.1865 0.1815 0.8844 0.2110 Uiso
H44 H 0.2132 0.2210 0.9055 0.2110 Uiso
O17 O -0.0881(3) 0.1064(4) 0.8128(6) 0.1506 Uani
H45 H -0.0782 0.1319 0.8226 0.2250 Uiso
H46 H -0.0711 0.1038 0.7841 0.2250 Uiso
O18 O 0.1763(4) 0.1846(3) 1.0454(6) 0.1638 Uani
H47 H 0.1662 0.1937 1.0119 0.2460 Uiso
H48 H 0.1982 0.1872 1.0248 0.2460 Uiso
O19 O -0.2012(4) 0.3113(4) 0.5347(7) 0.1864 Uani
H49 H -0.2070 0.2863 0.5319 0.2790 Uiso
H50 H -0.2236 0.3117 0.5314 0.2790 Uiso
O20 O 0.0187(4) -0.0321(5) 0.7208(7) 0.1963 Uani
H51 H -0.0072 -0.0481 0.7183 0.2950 Uiso
H52 H 0.0305 -0.0379 0.6849 0.2950 Uiso
O21 O -0.0681(5) -0.0805(5) 0.8384(9) 0.1074 Uani
O23 O -0.0257(7) -0.1220(7) 1.0406(12) 0.1537 Uani
O24 O -0.1187(8) 0.0346(8) 0.9112(14) 0.1668 Uani
loop_
_atom_site_aniso_label
_atom_site_aniso_U_11
_atom_site_aniso_U_22
_atom_site_aniso_U_33
_atom_site_aniso_U_23
_atom_site_aniso_U_13
_atom_site_aniso_U_12
Ni1 0.0185(4) 0.0162(4) 0.0226(4) 0.0000(3) -0.0013(3) 0.0088(3)
Ni2 0.0232(4) 0.0192(4) 0.0196(4) 0.0015(3) -0.0028(3) 0.0090(3)
O1 0.0257(16) 0.0191(15) 0.0225(15) -0.0001(12) 0.0007(13) 0.0124(13)
O2 0.059(2) 0.0229(18) 0.0370(19) 0.0036(15) 0.0118(17) 0.0252(18)
O3 0.0253(16) 0.0219(16) 0.0320(17) 0.0004(13) -0.0042(13) 0.0147(14)
O4 0.0238(16) 0.0214(16) 0.0234(15) -0.0025(13) -0.0031(12) 0.0126(13)
O5 0.0274(17) 0.0212(16) 0.0247(16) 0.0058(13) 0.0019(13) 0.0100(14)
O6 0.0242(16) 0.0195(16) 0.0238(15) 0.0036(12) -0.0008(13) 0.0100(13)
O7 0.0330(18) 0.0254(17) 0.0221(16) 0.0022(13) -0.0052(13) 0.0140(14)
O8 0.0252(17) 0.0246(17) 0.0292(16) -0.0006(13) -0.0045(14) 0.0124(14)
O9 0.0272(17) 0.0223(16) 0.0274(16) 0.0005(13) -0.0023(13) 0.0150(14)
O10 0.0221(16) 0.0190(15) 0.0274(16) 0.0027(12) 0.0001(12) 0.0076(13)
O11 0.0269(17) 0.0218(16) 0.0251(16) 0.0020(13) -0.0012(13) 0.0113(14)
N1 0.0213(19) 0.0201(19) 0.033(2) 0.0020(16) -0.0040(16) 0.0112(16)
N2 0.0192(19) 0.0214(19) 0.030(2) -0.0041(15) -0.0009(15) 0.0097(16)
N3 0.029(2) 0.021(2) 0.0239(19) 0.0024(15) -0.0024(16) 0.0108(17)
N4 0.022(2) 0.029(2) 0.0217(19) -0.0032(15) -0.0010(15) 0.0138(17)
C1 0.023(2) 0.019(2) 0.021(2) -0.0010(17) -0.0012(17) 0.0106(19)
C2 0.022(2) 0.018(2) 0.021(2) 0.0011(17) 0.0004(17) 0.0095(19)
C3 0.023(2) 0.020(2) 0.024(2) -0.0004(18) -0.0051(17) 0.0091(19)
C4 0.027(2) 0.021(2) 0.020(2) -0.0008(17) -0.0017(18) 0.014(2)
C5 0.025(2) 0.022(2) 0.020(2) -0.0002(17) -0.0024(17) 0.011(2)
C6 0.024(2) 0.019(2) 0.023(2) 0.0021(17) -0.0002(18) 0.0088(19)
C7 0.024(2) 0.027(2) 0.021(2) 0.0049(18) 0.0006(18) 0.016(2)
C8 0.029(2) 0.026(2) 0.018(2) 0.0003(17) -0.0025(18) 0.018(2)
C9 0.021(2) 0.018(2) 0.027(2) -0.0026(18) -0.0045(18) 0.0093(19)
C10 0.016(2) 0.019(2) 0.025(2) 0.0011(18) 0.0019(17) 0.0061(18)
C11 0.028(3) 0.017(2) 0.023(2) -0.0063(18) -0.0114(19) 0.0105(19)
C12 0.022(2) 0.021(2) 0.021(2) 0.0008(18) -0.0047(18) 0.0092(19)
C13 0.024(2) 0.027(2) 0.035(3) -0.001(2) -0.004(2) 0.012(2)
C14 0.029(3) 0.027(3) 0.039(3) -0.005(2) -0.009(2) 0.016(2)
C15 0.025(2) 0.021(2) 0.046(3) -0.003(2) -0.008(2) 0.015(2)
C16 0.022(2) 0.025(2) 0.042(3) 0.004(2) -0.001(2) 0.011(2)
C17 0.024(2) 0.026(2) 0.034(3) 0.003(2) -0.001(2) 0.014(2)
C18 0.023(2) 0.024(2) 0.048(3) -0.001(2) -0.004(2) 0.013(2)
C19 0.027(3) 0.028(3) 0.049(3) -0.010(2) -0.010(2) 0.016(2)
C20 0.023(2) 0.022(2) 0.043(3) -0.011(2) -0.009(2) 0.013(2)
C21 0.024(3) 0.044(3) 0.043(3) -0.012(2) -0.002(2) 0.017(2)
C22 0.024(3) 0.047(3) 0.029(3) -0.009(2) -0.003(2) 0.017(2)
C23 0.024(2) 0.027(2) 0.029(2) -0.0004(19) -0.0007(19) 0.013(2)
C24 0.030(3) 0.029(3) 0.035(3) -0.002(2) -0.012(2) 0.014(2)
C25 0.027(3) 0.027(2) 0.026(2) -0.0012(19) -0.0038(19) 0.013(2)
C26 0.026(2) 0.030(3) 0.032(2) -0.002(2) -0.005(2) 0.014(2)
C27 0.033(3) 0.022(2) 0.027(2) 0.0003(18) -0.009(2) 0.013(2)
C28 0.032(3) 0.039(3) 0.023(2) -0.004(2) -0.005(2) 0.020(2)
C29 0.026(3) 0.039(3) 0.032(3) -0.005(2) -0.006(2) 0.017(2)
C30 0.029(3) 0.027(3) 0.033(3) -0.006(2) -0.010(2) 0.014(2)
C31 0.028(3) 0.023(2) 0.034(3) -0.006(2) -0.012(2) 0.011(2)
C32 0.024(2) 0.028(2) 0.028(2) -0.0042(19) -0.0054(19) 0.014(2)
C33 0.022(2) 0.024(2) 0.032(2) -0.0014(19) -0.0045(19) 0.008(2)
C34 0.022(2) 0.026(2) 0.026(2) -0.0009(18) -0.0013(18) 0.012(2)
C35 0.023(2) 0.024(2) 0.027(2) -0.0049(19) -0.0039(19) 0.009(2)
C36 0.025(2) 0.027(2) 0.027(2) -0.0008(19) -0.0039(19) 0.011(2)
Ni1H 0.0171 0.0185 0.0226 0.0013 0.0013 0.0097
Ni1M 0.0162 0.0171 0.0226 -0.0013 0 0.0074
Ni2D 0.0192 0.0244 0.0196 -0.0043 -0.0015 0.0102
Ni2I 0.0232 0.0192 0.0196 0.0015 -0.0028 0.009
O4N 0.02 0.0238 0.0234 0.0031 0.0006 0.0112
O5I 0.0274 0.0212 0.0247 0.0058 0.0019 0.01
O6I 0.0242 0.0195 0.0238 0.0036 -0.0008 0.01
N2D 0.0214 0.0212 0.03 0.0032 0.0041 0.0117
N4H 0.0234 0.022 0.0217 0.001 -0.0022 0.0082
O12 0.076(3) 0.063(3) 0.044(2) 0.001(2) -0.010(2) 0.025(3)
O13 0.075(4) 0.091(4) 0.084(4) 0.025(3) 0.005(3) 0.033(3)
O14 0.104(5) 0.138(6) 0.070(4) -0.014(4) 0.007(3) 0.076(5)
O15 0.121(6) 0.110(5) 0.199(7) 0.020(5) -0.036(5) 0.064(5)
O16 0.145(6) 0.116(5) 0.208(7) 0.028(5) -0.006(5) 0.101(5)
O17 0.145(7) 0.169(7) 0.137(6) -0.007(6) 0.013(5) 0.078(6)
O18 0.204(8) 0.164(7) 0.154(7) 0.010(6) -0.019(6) 0.115(6)
O19 0.176(8) 0.183(8) 0.174(8) -0.055(6) 0.007(6) 0.070(6)
O20 0.172(8) 0.230(9) 0.217(9) -0.058(7) 0.004(6) 0.123(7)
O21 0.131(8) 0.109(8) 0.121(8) -0.036(6) -0.061(7) 0.089(7)
O23 0.164(11) 0.169(11) 0.157(11) 0.050(8) 0.011(8) 0.105(8)
O24 0.161(11) 0.168(11) 0.175(12) 0.005(9) 0.004(8) 0.085(9)
loop_
_geom_bond_atom_site_label_1
_geom_bond_atom_site_label_2
_geom_bond_site_symmetry_1
_geom_bond_site_symmetry_2
Ni1 O1 1_555 1_555
Ni2 O8 1_555 1_555
O1 C9 1_555 1_555
O2 C9 1_555 1_555
O3 C10 1_555 1_555
O4 C10 1_555 1_555
O5 C12 1_555 1_555
O6 C12 1_555 1_555
O7 C11 1_555 1_555
O8 C11 1_555 1_555
O9 Ni1 1_555 1_555
H1 O9 1_555 1_555
H2 O9 1_555 1_555
O10 Ni1 1_555 1_555
H3 O10 1_555 1_555
H4 O10 1_555 1_555
O11 Ni2 1_555 1_555
H5 O11 1_555 1_555
H6 O11 1_555 1_555
N1 Ni1 1_555 1_555
N2 C22 1_555 1_555
N3 Ni2 1_555 1_555
N4 C34 1_555 1_555
C1 H7 1_555 1_555
C2 C1 1_555 1_555
H8 C2 1_555 1_555
C3 C1 1_555 1_555
H9 C3 1_555 1_555
C4 C3 1_555 1_555
H10 C4 1_555 1_555
C5 C4 1_555 1_555
H11 C5 1_555 1_555
C6 C2 1_555 1_555
H12 C6 1_555 1_555
C7 C3 1_555 1_555
H13 C7 1_555 1_555
C8 C6 1_555 1_555
H14 C8 1_555 1_555
C9 C1 1_555 1_555
C10 C2 1_555 1_555
C11 C4 1_555 1_555
C12 C5 1_555 1_555
C13 N1 1_555 1_555
H15 C13 1_555 1_555
C14 C13 1_555 1_555
H16 C14 1_555 1_555
C15 C14 1_555 1_555
C16 C15 1_555 1_555
H17 C16 1_555 1_555
C17 N1 1_555 1_555
H18 C17 1_555 1_555
C18 C15 1_555 1_555
H19 C18 1_555 1_555
C19 C18 1_555 1_555
H20 C19 1_555 1_555
C20 C19 1_555 1_555
C21 C20 1_555 1_555
H21 C21 1_555 1_555
C22 C21 1_555 1_555
H22 C22 1_555 1_555
C23 N2 1_555 1_555
H23 C23 1_555 1_555
C24 C20 1_555 1_555
H24 C24 1_555 1_555
C25 N3 1_555 1_555
H25 C25 1_555 1_555
C26 C25 1_555 1_555
H26 C26 1_555 1_555
C27 C26 1_555 1_555
C28 C27 1_555 1_555
H27 C28 1_555 1_555
C29 N3 1_555 1_555
H28 C29 1_555 1_555
C30 C27 1_555 1_555
H29 C30 1_555 1_555
C31 C30 1_555 1_555
H30 C31 1_555 1_555
C32 C31 1_555 1_555
C33 C32 1_555 1_555
H31 C33 1_555 1_555
C34 C33 1_555 1_555
H32 C34 1_555 1_555
C35 N4 1_555 1_555
H33 C35 1_555 1_555
C36 C32 1_555 1_555
H34 C36 1_555 1_555
O12 H35 1_555 1_555
H36 O12 1_555 1_555
O13 H37 1_555 1_555
H38 O13 1_555 1_555
O14 H39 1_555 1_555
H40 O14 1_555 1_555
O15 H41 1_555 1_555
H42 O15 1_555 1_555
O16 H43 1_555 1_555
H44 O16 1_555 1_555
O17 H45 1_555 1_555
H46 O17 1_555 1_555
O18 H47 1_555 1_555
H48 O18 1_555 1_555
O19 H49 1_555 1_555
H50 O19 1_555 1_555
O20 H51 1_555 1_555
H52 O20 1_555 1_555
Ni1H N2 1_555 1_555
Ni1M O4 1_555 1_555
Ni2D N4 1_555 1_555
Ni2I O5 1_555 1_555
O4N Ni1 1_555 1_555
O5I Ni2 1_555 1_555
O6I Ni2 1_555 1_555
N2D Ni1 1_555 1_555
N4H Ni2 1_555 1_555
O6 Ni2I 1_555 1_555
C5 C6 1_555 1_555
C7 C8 1_555 1_555
C16 C17 1_555 1_555
C23 C24 1_555 1_555
C28 C29 1_555 1_555
C35 C36 1_555 1_555

#END
