
#######################################################################
#
#                 Cambridge Crystallographic Data Centre
#                                CCDC 
#
#######################################################################
#
# If this CIF has been generated from an entry in the Cambridge 
# Structural Database, then it will include bibliographic, chemical, 
# crystal, experimental, refinement or atomic coordinate data resulting 
# from the CCDC's data processing and validation procedures.
#
#######################################################################

data_SERJUV
_chemical_formula_moiety         '(C27 H23 N5 O14 Y2)n'
_symmetry_cell_setting           orthorhombic
_symmetry_space_group_name_H-M   'P n m a'
_symmetry_Int_Tables_number      62
_space_group_name_Hall           '-P 2ac 2n'
loop_
_symmetry_equiv_pos_site_id
_symmetry_equiv_pos_as_xyz
1 x,y,z
2 1/2-x,-y,1/2+z
3 -x,1/2+y,-z
4 1/2+x,1/2-y,1/2-z
5 -x,-y,-z
6 1/2+x,y,1/2-z
7 x,1/2-y,z
8 1/2-x,1/2+y,1/2+z
_cell_length_a                   8.5083(14)
_cell_length_b                   28.452(5)
_cell_length_c                   15.704(3)
_cell_angle_alpha                90
_cell_angle_beta                 90
_cell_angle_gamma                90
_cell_volume                     3801.6
loop_
_atom_site_label
_atom_site_type_symbol
_atom_site_fract_x
_atom_site_fract_y
_atom_site_fract_z
Y1 Y 0.02622(5) 0.415145(15) 0.19858(3)
O1 O -0.0609(4) 0.33865(12) 0.2103(2)
O2 O 0.0847(4) 0.39216(13) 0.0577(2)
O3 O -0.2292(4) 0.37570(11) 0.2923(2)
O4 O -0.0930(5) 0.47928(12) 0.2593(2)
O5 O -0.3086(4) 0.47420(12) 0.3412(2)
O6 O -0.0813(4) 0.59174(13) 0.6592(2)
O7 O -0.3161(4) 0.56847(13) 0.6113(2)
C1 C 0.0486(6) 0.58184(18) 0.4962(4)
H1 H 0.1013 0.6016 0.5357
C2 C -0.0992(5) 0.56522(17) 0.5178(3)
C3 C -0.1757(5) 0.53567(16) 0.4609(3)
H2 H -0.2773 0.5237 0.4736
C4 C -0.1021(5) 0.52405(16) 0.3860(3)
C5 C 0.0469(6) 0.54327(19) 0.3702(3)
H3 H 0.0976 0.5353 0.3182
C6 C -0.1727(6) 0.48942(18) 0.3236(3)
C7 C -0.1708(6) 0.57604(17) 0.6020(3)
C8 C -0.2952(5) 0.29036(18) 0.3795(3)
H4 H -0.3263 0.3193 0.4045
C9 C -0.2105(5) 0.29204(16) 0.3045(3)
C10 C -0.1650(8) 0.2500 0.2674(5)
H5 H -0.1032 0.2500 0.2171
C11 C -0.1665(6) 0.33799(17) 0.2667(3)
N1 N 0.1211(5) 0.57175(16) 0.4232(3)
N2 N 0.0199(7) 0.38686(17) -0.0802(3)
N3 N -0.3368(7) 0.2500 0.4199(4)
C12 C 0.0558(6) 0.4106(2) -0.0120(4)
C13 C 0.0032(9) 0.4109(3) -0.1638(4)
H6 H 0.0034 0.4450 -0.1552
H7 H -0.0960 0.4014 -0.1905
H8 H 0.0911 0.4021 -0.2008
C14 C 0.0711(19) 0.3356(3) -0.0853(8)
Y1F Y 0.02622(5) 0.084855(15) 0.19858(3)
Y1E Y -0.47378(5) 0.415145(15) 0.30142(3)
Y1D Y -0.02622(5) 0.584855(15) 0.80142(3)
Y1A Y -0.52622(5) 0.584855(15) 0.69858(3)
Y1C Y -0.47378(5) 0.084855(15) 0.30142(3)
Y1E_2 Y 0.52622(5) 0.415145(15) 0.30142(3)
Y1A_2 Y 0.47378(5) 0.584855(15) -0.30142(3)
Y1D_2 Y -0.02622(5) 0.584855(15) -0.19858(3)
O1F O -0.0609(4) 0.16135(12) 0.2103(2)
O1E O 0.4391(4) 0.33865(12) 0.2897(2)
O2E O 0.5847(4) 0.39216(13) 0.4423(2)
O3F O -0.2292(4) 0.12430(11) 0.2923(2)
O3E O 0.2708(4) 0.37570(11) 0.2077(2)
O3_2 O 0.7708(4) 0.37570(11) 0.2923(2)
O4E O 0.4070(5) 0.47928(12) 0.2407(2)
O5E O 0.1914(4) 0.47420(12) 0.1588(2)
O5_2 O 0.6914(4) 0.47420(12) 0.3412(2)
O6E O 0.4187(4) 0.59174(13) -0.1592(2)
O6D O 0.0813(4) 0.40826(13) 0.3408(2)
O6A O 0.5813(4) 0.40826(13) 0.1592(2)
O7E O 0.1839(4) 0.56847(13) -0.1113(2)
O7A O -0.1839(4) 0.43153(13) 0.1113(2)
O7D O 0.3161(4) 0.43153(13) 0.3887(2)
C1E C 0.5486(6) 0.58184(18) 0.0038(4)
H1E H 0.6013 0.6016 -0.0357
C2E C 0.4008(5) 0.56522(17) -0.0178(3)
C3E C 0.3243(5) 0.53567(16) 0.0391(3)
H2E H 0.2227 0.5237 0.0264
C4E C 0.3979(5) 0.52405(16) 0.1140(3)
C5E C 0.5469(6) 0.54327(19) 0.1298(3)
H3E H 0.5976 0.5353 0.1818
C6E C 0.3273(6) 0.48942(18) 0.1764(3)
C7E C 0.3292(6) 0.57604(17) -0.1020(3)
C8F C -0.2952(5) 0.20964(18) 0.3795(3)
H4F H -0.3263 0.1807 0.4045
C9F C -0.2105(5) 0.20796(16) 0.3045(3)
C11F C -0.1665(6) 0.16201(17) 0.2667(3)
N1E N 0.6211(5) 0.57175(16) 0.0768(3)
N2E N 0.5199(7) 0.38686(17) 0.5802(3)
C12E C 0.5558(6) 0.4106(2) 0.5120(4)
C13E C 0.5032(9) 0.4109(3) 0.6638(4)
H6E H 0.5034 0.4450 0.6552
H7E H 0.4040 0.4014 0.6905
H8E H 0.5911 0.4021 0.7008
C14E C 0.5711(19) 0.3356(3) 0.5853(8)
loop_
_geom_bond_atom_site_label_1
_geom_bond_atom_site_label_2
_geom_bond_site_symmetry_1
_geom_bond_site_symmetry_2
Y1 O1 1_555 1_555
O1 C11 1_555 1_555
O2 Y1 1_555 1_555
O3 Y1 1_555 1_555
O4 Y1 1_555 1_555
O5 C6 1_555 1_555
O6 C7 1_555 1_555
O7 C7 1_555 1_555
C1 H1 1_555 1_555
C2 C1 1_555 1_555
C3 C2 1_555 1_555
H2 C3 1_555 1_555
C4 C3 1_555 1_555
C5 C4 1_555 1_555
H3 C5 1_555 1_555
C6 O4 1_555 1_555
C7 C2 1_555 1_555
C8 H4 1_555 1_555
C9 C8 1_555 1_555
C10 C9 1_555 1_555
H5 C10 1_555 1_555
C11 O3 1_555 1_555
N1 C1 1_555 1_555
N2 C12 1_555 1_555
N3 C8 1_555 1_555
C12 O2 1_555 1_555
C13 N2 1_555 1_555
H6 C13 1_555 1_555
H7 C13 1_555 1_555
H8 C13 1_555 1_555
C14 N2 1_555 1_555
Y1F O1F 1_555 1_555
Y1E O3 1_555 1_555
Y1D O6 1_555 1_555
Y1A O7 1_555 1_555
Y1C O3F 1_555 1_555
Y1E_2 O1E 1_555 1_555
Y1A_2 O6E 1_555 1_555
Y1D_2 O7E 1_555 1_555
O1F C11F 1_555 1_555
O2E Y1E_2 1_555 1_555
O3F Y1F 1_555 1_555
O3E Y1 1_555 1_555
O3_2 Y1E_2 1_555 1_555
O4E Y1E_2 1_555 1_555
O5E Y1 1_555 1_555
O5_2 Y1E_2 1_555 1_555
O6E C7E 1_555 1_555
O6D Y1 1_555 1_555
O6A Y1E_2 1_555 1_555
O7E C7E 1_555 1_555
O7A Y1 1_555 1_555
O7D Y1E_2 1_555 1_555
C1E H1E 1_555 1_555
C2E C1E 1_555 1_555
C3E C2E 1_555 1_555
H2E C3E 1_555 1_555
C4E C3E 1_555 1_555
C5E C4E 1_555 1_555
H3E C5E 1_555 1_555
C6E O4E 1_555 1_555
C7E C2E 1_555 1_555
C8F N3 1_555 1_555
H4F C8F 1_555 1_555
C9F C10 1_555 1_555
C11F O3F 1_555 1_555
N1E C1E 1_555 1_555
N2E C12E 1_555 1_555
C12E O2E 1_555 1_555
C13E N2E 1_555 1_555
H6E C13E 1_555 1_555
H7E C13E 1_555 1_555
H8E C13E 1_555 1_555
C14E N2E 1_555 1_555
O5 Y1E 1_555 1_555
C4 C6 1_555 1_555
C5 N1 1_555 1_555
C9 C11 1_555 1_555
Y1E_2 O3E 1_555 1_555
O5E C6E 1_555 1_555
C4E C6E 1_555 1_555
C5E N1E 1_555 1_555
C8F C9F 1_555 1_555
C9F C11F 1_555 1_555

#END
