
#######################################################################
#
#                 Cambridge Crystallographic Data Centre
#                                CCDC 
#
#######################################################################
#
# If this CIF has been generated from an entry in the Cambridge 
# Structural Database, then it will include bibliographic, chemical, 
# crystal, experimental, refinement or atomic coordinate data resulting 
# from the CCDC's data processing and validation procedures.
#
#######################################################################

data_SERJOP
_chemical_formula_moiety         '(C27 H23 Er2 N5 O14)n'
_symmetry_cell_setting           orthorhombic
_symmetry_space_group_name_H-M   'P n m a'
_symmetry_Int_Tables_number      62
_space_group_name_Hall           '-P 2ac 2n'
loop_
_symmetry_equiv_pos_site_id
_symmetry_equiv_pos_as_xyz
1 x,y,z
2 1/2-x,-y,1/2+z
3 1/2+x,1/2-y,1/2-z
4 -x,1/2+y,-z
5 -x,-y,-z
6 1/2+x,y,1/2-z
7 1/2-x,1/2+y,1/2+z
8 x,1/2-y,z
_cell_length_a                   8.438(3)
_cell_length_b                   27.795(10)
_cell_length_c                   15.934(6)
_cell_angle_alpha                90
_cell_angle_beta                 90
_cell_angle_gamma                90
_cell_volume                     3737.07
loop_
_atom_site_label
_atom_site_type_symbol
_atom_site_fract_x
_atom_site_fract_y
_atom_site_fract_z
Er1 Er 0.47688(4) 0.081321(12) 0.301108(19)
O1 O 0.4215(7) 0.1045(2) 0.4393(3)
O2 O 0.5920(7) 0.0154(2) 0.2404(4)
O3 O 0.8076(6) 0.0218(2) 0.1612(4)
O4 O 0.5762(7) -0.0900(2) -0.1620(3)
O5 O 0.8101(6) -0.0638(2) -0.1153(3)
O6 O 0.5649(6) 0.1591(2) 0.2915(3)
O7 O 0.7325(6) 0.12155(19) 0.2079(3)
C1 C 0.4543(10) -0.0497(3) 0.1304(5)
H1 H 0.4048 -0.0440 0.1830
C2 C 0.608(4) 0.1615(9) 0.5381(18)
H2 H 0.6168 0.1606 0.4769
H3 H 0.7138 0.1614 0.5631
H4 H 0.5514 0.1908 0.5550
C4 C 0.6000(9) -0.0276(3) 0.1138(5)
C5 C 0.5278(18) 0.0975(6) 0.6567(7)
H8 H 0.4539 0.1148 0.6933
H9 H 0.6366 0.1028 0.6761
H10 H 0.5038 0.0630 0.6583
C6 C 0.6728(8) -0.0366(3) 0.0376(4)
H11 H 0.7733 -0.0230 0.0252
C7 C 0.4494(10) 0.0897(4) 0.5112(5)
C8 C 0.5970(9) -0.0660(3) -0.0206(4)
C9 C 0.4520(10) -0.0859(3) 0.0015(5)
H12 H 0.3997 -0.1058 -0.0383
C10 C 0.6721(10) 0.0052(3) 0.1758(5)
C11 C 0.6669(9) -0.0741(3) -0.1059(5)
C12 C 0.7884(9) 0.2088(3) 0.1198(5)
H13 H 0.8160 0.1792 0.0937
C13 C 0.7104(8) 0.2072(3) 0.1968(5)
C14 C 0.6689(12) 0.2500 0.2332(7)
H14 H 0.6108 0.2500 0.2843
C15 C 0.6690(9) 0.1602(3) 0.2342(5)
N1 N 0.3820(9) -0.0785(3) 0.0753(4)
N2 N 0.5115(12) 0.1153(3) 0.5699(5)
N3 N 0.8270(12) 0.2500 0.0802(6)
Er1E Er -0.02312(4) 0.081321(12) 0.198892(19)
Er1E_2 Er 0.97688(4) 0.081321(12) 0.198892(19)
Er1D Er 0.52312(4) -0.081321(12) -0.301108(19)
Er1A Er 1.02312(4) -0.081321(12) -0.198892(19)
Er1G Er 0.47688(4) 0.418679(12) 0.301108(19)
Er1B Er 0.97688(4) 0.418679(12) 0.198892(19)
Er1A_2 Er 0.02312(4) -0.081321(12) 0.801108(19)
Er1D_2 Er 0.52312(4) -0.081321(12) 0.698892(19)
O1E O -0.0785(7) 0.1045(2) 0.0607(3)
O2E O 0.0920(7) 0.0154(2) 0.2596(4)
O3E O 0.3076(6) 0.0218(2) 0.3388(4)
O3_2 O -0.1924(6) 0.0218(2) 0.1612(4)
O4E O 0.0762(7) -0.0900(2) 0.6620(3)
O4D O 0.4238(7) 0.0900(2) 0.1620(3)
O4A O -0.0762(7) 0.0900(2) 0.3380(3)
O5E O 0.3101(6) -0.0638(2) 0.6153(3)
O5A O 0.6899(6) 0.0638(2) 0.3847(3)
O5D O 0.1899(6) 0.0638(2) 0.1153(3)
O6G O 0.5649(6) 0.3409(2) 0.2915(3)
O6E O 0.0649(6) 0.1591(2) 0.2085(3)
O7G O 0.7325(6) 0.37845(19) 0.2079(3)
O7E O 0.2325(6) 0.12155(19) 0.2921(3)
O7_2 O -0.2675(6) 0.12155(19) 0.2079(3)
C1E C -0.0457(10) -0.0497(3) 0.3696(5)
H1E H -0.0952 -0.0440 0.3170
C2E C 0.108(4) 0.1615(9) -0.0381(18)
H2E H 0.1168 0.1606 0.0231
H3E H 0.2138 0.1614 -0.0631
H4E H 0.0514 0.1908 -0.0550
C4E C 0.1000(9) -0.0276(3) 0.3862(5)
C5E C 0.0278(18) 0.0975(6) -0.1567(7)
H8E H -0.0461 0.1148 -0.1933
H9E H 0.1366 0.1028 -0.1761
H10E H 0.0038 0.0630 -0.1583
C6E C 0.1728(8) -0.0366(3) 0.4624(4)
H11E H 0.2733 -0.0230 0.4748
C7E C -0.0506(10) 0.0897(4) -0.0112(5)
C8E C 0.0970(9) -0.0660(3) 0.5206(4)
C9E C -0.0480(10) -0.0859(3) 0.4985(5)
H12E H -0.1003 -0.1058 0.5383
C10E C 0.1721(10) 0.0052(3) 0.3242(5)
C11E C 0.1669(9) -0.0741(3) 0.6059(5)
C12G C 0.7884(9) 0.2912(3) 0.1198(5)
H13G H 0.8160 0.3208 0.0937
C13G C 0.7104(8) 0.2928(3) 0.1968(5)
C15G C 0.6690(9) 0.3398(3) 0.2342(5)
N1E N -0.1180(9) -0.0785(3) 0.4247(4)
N2E N 0.0115(12) 0.1153(3) -0.0699(5)
loop_
_geom_bond_atom_site_label_1
_geom_bond_atom_site_label_2
_geom_bond_site_symmetry_1
_geom_bond_site_symmetry_2
Er1 O1 1_555 1_555
O1 C7 1_555 1_555
O2 Er1 1_555 1_555
O3 C10 1_555 1_555
O4 C11 1_555 1_555
O5 C11 1_555 1_555
O6 Er1 1_555 1_555
O7 Er1 1_555 1_555
C1 H1 1_555 1_555
C2 H2 1_555 1_555
H3 C2 1_555 1_555
H4 C2 1_555 1_555
C4 C1 1_555 1_555
C5 H8 1_555 1_555
H9 C5 1_555 1_555
H10 C5 1_555 1_555
C6 C4 1_555 1_555
H11 C6 1_555 1_555
C7 N2 1_555 1_555
C8 C6 1_555 1_555
C9 C8 1_555 1_555
H12 C9 1_555 1_555
C10 O2 1_555 1_555
C11 C8 1_555 1_555
C12 H13 1_555 1_555
C13 C12 1_555 1_555
C14 C13 1_555 1_555
H14 C14 1_555 1_555
C15 O6 1_555 1_555
N1 C1 1_555 1_555
N2 C2 1_555 1_555
N3 C12 1_555 1_555
Er1E O1E 1_555 1_555
Er1E_2 O3 1_555 1_555
Er1D O4 1_555 1_555
Er1A O5 1_555 1_555
Er1G O6G 1_555 1_555
Er1B O7G 1_555 1_555
Er1A_2 O4E 1_555 1_555
Er1D_2 O5E 1_555 1_555
O1E C7E 1_555 1_555
O2E Er1E 1_555 1_555
O3E Er1 1_555 1_555
O3_2 Er1E 1_555 1_555
O4E C11E 1_555 1_555
O4D Er1 1_555 1_555
O4A Er1E 1_555 1_555
O5E C11E 1_555 1_555
O5A Er1 1_555 1_555
O5D Er1E 1_555 1_555
O6G C15G 1_555 1_555
O6E Er1E 1_555 1_555
O7G Er1G 1_555 1_555
O7E Er1 1_555 1_555
O7_2 Er1E 1_555 1_555
C1E H1E 1_555 1_555
C2E H2E 1_555 1_555
H3E C2E 1_555 1_555
H4E C2E 1_555 1_555
C4E C1E 1_555 1_555
C5E H8E 1_555 1_555
H9E C5E 1_555 1_555
H10E C5E 1_555 1_555
C6E C4E 1_555 1_555
H11E C6E 1_555 1_555
C7E N2E 1_555 1_555
C8E C6E 1_555 1_555
C9E C8E 1_555 1_555
H12E C9E 1_555 1_555
C10E O2E 1_555 1_555
C11E C8E 1_555 1_555
C12G N3 1_555 1_555
H13G C12G 1_555 1_555
C13G C14 1_555 1_555
C15G O7G 1_555 1_555
N1E C1E 1_555 1_555
N2E C2E 1_555 1_555
O7 C15 1_555 1_555
O7 Er1E_2 1_555 1_555
C4 C10 1_555 1_555
C5 N2 1_555 1_555
C9 N1 1_555 1_555
C13 C15 1_555 1_555
Er1E O7E 1_555 1_555
O3E C10E 1_555 1_555
C4E C10E 1_555 1_555
C5E N2E 1_555 1_555
C9E N1E 1_555 1_555
C12G C13G 1_555 1_555
C13G C15G 1_555 1_555

#END
