
#######################################################################
#
#                 Cambridge Crystallographic Data Centre
#                                CCDC 
#
#######################################################################
#
# If this CIF has been generated from an entry in the Cambridge 
# Structural Database, then it will include bibliographic, chemical, 
# crystal, experimental, refinement or atomic coordinate data resulting 
# from the CCDC's data processing and validation procedures.
#
#######################################################################

data_SERKAC
_chemical_formula_moiety         '(C21 H9 Er2 N3 O12)n'
_symmetry_cell_setting           hexagonal
_symmetry_space_group_name_H-M   'P 63 c m'
_symmetry_Int_Tables_number      185
_space_group_name_Hall           'P 6c -2'
loop_
_symmetry_equiv_pos_site_id
_symmetry_equiv_pos_as_xyz
1 x,y,z
2 -x,-y,1/2+z
3 -y,x-y,z
4 -x+y,-x,z
5 x-y,x,1/2+z
6 y,-x+y,1/2+z
7 -x+y,y,1/2+z
8 x,x-y,1/2+z
9 -y,-x,1/2+z
10 y,x,z
11 -x,-x+y,z
12 x-y,-y,z
_cell_length_a                   16.224(5)
_cell_length_b                   16.224(5)
_cell_length_c                   7.412(2)
_cell_angle_alpha                90
_cell_angle_beta                 90
_cell_angle_gamma                120
_cell_volume                     1689.59
loop_
_atom_site_label
_atom_site_type_symbol
_atom_site_fract_x
_atom_site_fract_y
_atom_site_fract_z
Er1 Er 0.3333 0.6667 -0.130(3)
O1 O 0.2560(6) 0.7025(6) 0.0947(18)
O2 O 0.1742(9) 0.6257(9) -0.0905(18)
N1 N 0.0000 0.6471(10) 0.396(2)
C1 C 0.0821(8) 0.6680(8) 0.3150(9)
H1 H 0.1404 0.7075 0.3758
C2 C 0.0844(7) 0.6338(6) 0.1460(9)
C3 C 0.0000 0.5762(11) 0.056(2)
H2 H 0.0000 0.5557 -0.0636
C4 C 0.1737(11) 0.6561(10) 0.0574(18)
Er1J Er -0.3333 0.3334 -0.130(3)
Er1F Er 0.3334 0.6667 0.370(3)
Er1A Er -0.3333 0.3333 0.370(3)
Er1A_2 Er 0.6667 0.3333 0.370(3)
Er1I Er 0.6667 0.3333 -0.130(3)
Er1A_3 Er 0.6667 1.3333 0.370(3)
Er1I_2 Er 0.6667 1.3333 -0.130(3)
O1J O -0.2560(6) 0.4465(8) 0.0947(18)
O1B O 0.2975(6) 0.5535(8) 0.0947(18)
O1K O 0.5535(8) 0.2975(6) 0.0947(18)
O1C O 0.4465(8) 0.7440(6) 0.0947(18)
O1I O 0.7025(6) 1.2560(6) 0.0947(18)
O1F O 0.4465(8) 0.7025(6) -0.4053(18)
O1G O 0.2560(6) 0.5535(8) -0.4053(18)
O1H O 0.2975(6) 0.7440(6) -0.4053(18)
O1A O -0.2560(6) 0.2975(6) -0.4053(18)
O1D O -0.4465(8) 0.2560(6) -0.4053(18)
O1E O -0.2975(6) 0.4465(8) -0.4053(18)
O1I_2 O -0.2975(6) 0.2560(6) 0.0947(18)
O1K_2 O -0.4465(8) 0.2975(6) 0.0947(18)
O2J O -0.1742(9) 0.4515(13) -0.0905(18)
O2B O 0.3743(9) 0.5485(13) -0.0905(18)
O2K O 0.5485(13) 0.3743(9) -0.0905(18)
O2C O 0.4515(13) 0.8258(9) -0.0905(18)
O2I O 0.6257(9) 1.1742(9) -0.0905(18)
O2I_2 O -0.3743(9) 0.1742(9) -0.0905(18)
O2K_2 O -0.4515(13) 0.3743(9) -0.0905(18)
N1B N 0.3529(10) 0.3529(10) 0.396(2)
N1C N 0.6471(10) 1.0000 0.396(2)
C1J C -0.0821(8) 0.5859(11) 0.3150(9)
C1B C 0.3320(8) 0.4141(11) 0.3150(9)
C1K C 0.4141(11) 0.3320(8) 0.3150(9)
C1C C 0.5859(11) 0.9179(8) 0.3150(9)
C1I C 0.6680(8) 1.0821(8) 0.3150(9)
H1J H -0.1404 0.5671 0.3758
H1B H 0.2925 0.4329 0.3758
H1K H 0.4329 0.2925 0.3758
H1C H 0.5671 0.8596 0.3758
H1I H 0.7075 1.1404 0.3758
C2J C -0.0844(7) 0.5494(9) 0.1460(9)
C2B C 0.3662(6) 0.4506(9) 0.1460(9)
C2K C 0.4506(9) 0.3662(6) 0.1460(9)
C2C C 0.5494(9) 0.9156(7) 0.1460(9)
C2I C 0.6338(6) 1.0844(7) 0.1460(9)
C3B C 0.4238(11) 0.4238(11) 0.056(2)
C3C C 0.5762(11) 1.0000 0.056(2)
H2B H 0.4443 0.4443 -0.0636
H2C H 0.5557 1.0000 -0.0636
C4J C -0.1737(11) 0.4824(15) 0.0574(18)
C4B C 0.3439(10) 0.5176(15) 0.0574(18)
C4K C 0.5176(15) 0.3439(10) 0.0574(18)
C4C C 0.4824(15) 0.8263(11) 0.0574(18)
C4I C 0.6561(10) 1.1737(11) 0.0574(18)
loop_
_geom_bond_atom_site_label_1
_geom_bond_atom_site_label_2
_geom_bond_site_symmetry_1
_geom_bond_site_symmetry_2
Er1 O1 1_555 1_555
O1 C4 1_555 1_555
O2 Er1 1_555 1_555
N1 C1 1_555 1_555
C1 H1 1_555 1_555
C2 C1 1_555 1_555
C3 C2 1_555 1_555
H2 C3 1_555 1_555
C4 O2 1_555 1_555
Er1J O1J 1_555 1_555
Er1F O1 1_555 1_555
Er1A O1J 1_555 1_555
Er1A_2 O1K 1_555 1_555
Er1I O1K 1_555 1_555
Er1A_3 O1I 1_555 1_555
Er1I_2 O1I 1_555 1_555
O1J C4J 1_555 1_555
O1B Er1 1_555 1_555
O1K C4K 1_555 1_555
O1C Er1 1_555 1_555
O1I C4I 1_555 1_555
O1F Er1 1_555 1_555
O1G Er1 1_555 1_555
O1H Er1 1_555 1_555
O1A Er1J 1_555 1_555
O1D Er1J 1_555 1_555
O1E Er1J 1_555 1_555
O1I_2 Er1J 1_555 1_555
O1K_2 Er1J 1_555 1_555
O2J Er1J 1_555 1_555
O2B Er1 1_555 1_555
O2K Er1I 1_555 1_555
O2C Er1 1_555 1_555
O2I Er1I_2 1_555 1_555
O2I_2 Er1J 1_555 1_555
O2K_2 Er1J 1_555 1_555
N1B C1B 1_555 1_555
N1C C1C 1_555 1_555
C1J N1 1_555 1_555
C1B H1B 1_555 1_555
C1K N1B 1_555 1_555
C1C H1C 1_555 1_555
C1I N1C 1_555 1_555
H1J C1J 1_555 1_555
H1K C1K 1_555 1_555
H1I C1I 1_555 1_555
C2J C3 1_555 1_555
C2B C1B 1_555 1_555
C2K C1K 1_555 1_555
C2C C1C 1_555 1_555
C2I C1I 1_555 1_555
C3B C2B 1_555 1_555
C3C C2C 1_555 1_555
H2B C3B 1_555 1_555
H2C C3C 1_555 1_555
C4J O2J 1_555 1_555
C4B O1B 1_555 1_555
C4K O2K 1_555 1_555
C4C O1C 1_555 1_555
C4I O2I 1_555 1_555
C2 C4 1_555 1_555
Er1F O1B 1_555 1_555
Er1F O1C 1_555 1_555
Er1A O1I_2 1_555 1_555
Er1A O1K_2 1_555 1_555
O2B C4B 1_555 1_555
O2C C4C 1_555 1_555
C1J C2J 1_555 1_555
C2J C4J 1_555 1_555
C2B C4B 1_555 1_555
C2K C3B 1_555 1_555
C2K C4K 1_555 1_555
C2C C4C 1_555 1_555
C2I C3C 1_555 1_555
C2I C4I 1_555 1_555

#END
