
#######################################################################
#
#                 Cambridge Crystallographic Data Centre
#                                CCDC 
#
#######################################################################
#
# If this CIF has been generated from an entry in the Cambridge 
# Structural Database, then it will include bibliographic, chemical, 
# crystal, experimental, refinement or atomic coordinate data resulting 
# from the CCDC's data processing and validation procedures.
#
#######################################################################

data_SERKEG
_chemical_formula_moiety         '(C21 H9 N3 O12 Y2)n'
_symmetry_cell_setting           hexagonal
_symmetry_space_group_name_H-M   'P 63 c m'
_symmetry_Int_Tables_number      185
_space_group_name_Hall           'P 6c -2'
loop_
_symmetry_equiv_pos_site_id
_symmetry_equiv_pos_as_xyz
1 x,y,z
2 -x,-y,1/2+z
3 -y,x-y,z
4 -x+y,-x,z
5 x-y,x,1/2+z
6 y,-x+y,1/2+z
7 -x+y,y,1/2+z
8 x,x-y,1/2+z
9 -y,-x,1/2+z
10 y,x,z
11 -x,-x+y,z
12 x-y,-y,z
_cell_length_a                   16.239(11)
_cell_length_b                   16.239(11)
_cell_length_c                   7.458(5)
_cell_angle_alpha                90
_cell_angle_beta                 90
_cell_angle_gamma                120
_cell_volume                     1703.22
loop_
_atom_site_label
_atom_site_type_symbol
_atom_site_fract_x
_atom_site_fract_y
_atom_site_fract_z
Y1 Y 0.3333 0.6667 -0.1255(10)
O1 O 0.2554(5) 0.7016(5) 0.1056(17)
O2 O 0.1748(7) 0.6275(8) -0.0875(11)
N1 N -0.0000 0.6428(8) 0.394(2)
C1 C 0.0820(7) 0.6662(7) 0.3142(9)
H1 H 0.1400 0.7063 0.3748
C2 C 0.0845(6) 0.6331(5) 0.1444(10)
C3 C -0.0000 0.5755(11) 0.0619(17)
H2 H 0.0000 0.5536 -0.0563
C4 C 0.1730(8) 0.6583(7) 0.0614(13)
Y1J Y -0.3333 0.3334 -0.1255(10)
Y1F Y 0.3334 0.6667 0.3745(10)
Y1A Y -0.3333 0.3333 0.3745(10)
Y1A_2 Y 0.6667 0.3333 0.3745(10)
Y1I Y 0.6667 0.3333 -0.1255(10)
Y1A_3 Y 0.6667 1.3333 0.3745(10)
Y1I_2 Y 0.6667 1.3333 -0.1255(10)
O1J O -0.2554(5) 0.4462(7) 0.1056(17)
O1B O 0.2984(5) 0.5538(7) 0.1056(17)
O1K O 0.5538(7) 0.2984(5) 0.1056(17)
O1C O 0.4462(7) 0.7446(5) 0.1056(17)
O1I O 0.7016(5) 1.2554(5) 0.1056(17)
O1F O 0.4462(7) 0.7016(5) -0.3944(17)
O1G O 0.2554(5) 0.5538(7) -0.3944(17)
O1H O 0.2984(5) 0.7446(5) -0.3944(17)
O1A O -0.2554(5) 0.2984(5) -0.3944(17)
O1D O -0.4462(7) 0.2554(5) -0.3944(17)
O1E O -0.2984(5) 0.4462(7) -0.3944(17)
O1I_2 O -0.2984(5) 0.2554(5) 0.1056(17)
O1K_2 O -0.4462(7) 0.2984(5) 0.1056(17)
O2J O -0.1748(7) 0.4527(11) -0.0875(11)
O2B O 0.3725(8) 0.5473(11) -0.0875(11)
O2K O 0.5473(11) 0.3725(8) -0.0875(11)
O2C O 0.4527(11) 0.8252(7) -0.0875(11)
O2I O 0.6275(8) 1.1748(7) -0.0875(11)
O2I_2 O -0.3725(8) 0.1748(7) -0.0875(11)
O2K_2 O -0.4527(11) 0.3725(8) -0.0875(11)
N1B N 0.3572(8) 0.3572(8) 0.394(2)
N1C N 0.6428(8) 1.0000 0.394(2)
C1J C -0.0820(7) 0.5842(10) 0.3142(9)
C1B C 0.3338(7) 0.4158(10) 0.3142(9)
C1K C 0.4158(10) 0.3338(7) 0.3142(9)
C1C C 0.5842(10) 0.9180(7) 0.3142(9)
C1I C 0.6662(7) 1.0820(7) 0.3142(9)
H1J H -0.1400 0.5663 0.3748
H1B H 0.2937 0.4337 0.3748
H1K H 0.4337 0.2937 0.3748
H1C H 0.5663 0.8600 0.3748
H1I H 0.7063 1.1400 0.3748
C2J C -0.0845(6) 0.5486(8) 0.1444(10)
C2B C 0.3669(5) 0.4514(8) 0.1444(10)
C2K C 0.4514(8) 0.3669(5) 0.1444(10)
C2C C 0.5486(8) 0.9155(6) 0.1444(10)
C2I C 0.6331(5) 1.0845(6) 0.1444(10)
C3B C 0.4245(11) 0.4245(11) 0.0619(17)
C3C C 0.5755(11) 1.0000 0.0619(17)
H2B H 0.4464 0.4464 -0.0563
H2C H 0.5536 1.0000 -0.0563
C4J C -0.1730(8) 0.4853(11) 0.0614(13)
C4B C 0.3417(7) 0.5147(11) 0.0614(13)
C4K C 0.5147(11) 0.3417(7) 0.0614(13)
C4C C 0.4853(11) 0.8270(8) 0.0614(13)
C4I C 0.6583(7) 1.1730(8) 0.0614(13)
loop_
_geom_bond_atom_site_label_1
_geom_bond_atom_site_label_2
_geom_bond_site_symmetry_1
_geom_bond_site_symmetry_2
Y1 O1 1_555 1_555
O1 C4 1_555 1_555
O2 Y1 1_555 1_555
N1 C1 1_555 1_555
C1 H1 1_555 1_555
C2 C1 1_555 1_555
C3 C2 1_555 1_555
H2 C3 1_555 1_555
C4 O2 1_555 1_555
Y1J O1J 1_555 1_555
Y1F O1 1_555 1_555
Y1A O1J 1_555 1_555
Y1A_2 O1K 1_555 1_555
Y1I O1K 1_555 1_555
Y1A_3 O1I 1_555 1_555
Y1I_2 O1I 1_555 1_555
O1J C4J 1_555 1_555
O1B Y1 1_555 1_555
O1K C4K 1_555 1_555
O1C Y1 1_555 1_555
O1I C4I 1_555 1_555
O1F Y1 1_555 1_555
O1G Y1 1_555 1_555
O1H Y1 1_555 1_555
O1A Y1J 1_555 1_555
O1D Y1J 1_555 1_555
O1E Y1J 1_555 1_555
O1I_2 Y1J 1_555 1_555
O1K_2 Y1J 1_555 1_555
O2J Y1J 1_555 1_555
O2B Y1 1_555 1_555
O2K Y1I 1_555 1_555
O2C Y1 1_555 1_555
O2I Y1I_2 1_555 1_555
O2I_2 Y1J 1_555 1_555
O2K_2 Y1J 1_555 1_555
N1B C1B 1_555 1_555
N1C C1C 1_555 1_555
C1J N1 1_555 1_555
C1B H1B 1_555 1_555
C1K N1B 1_555 1_555
C1C H1C 1_555 1_555
C1I N1C 1_555 1_555
H1J C1J 1_555 1_555
H1K C1K 1_555 1_555
H1I C1I 1_555 1_555
C2J C3 1_555 1_555
C2B C1B 1_555 1_555
C2K C1K 1_555 1_555
C2C C1C 1_555 1_555
C2I C1I 1_555 1_555
C3B C2B 1_555 1_555
C3C C2C 1_555 1_555
H2B C3B 1_555 1_555
H2C C3C 1_555 1_555
C4J O2J 1_555 1_555
C4B O1B 1_555 1_555
C4K O2K 1_555 1_555
C4C O1C 1_555 1_555
C4I O2I 1_555 1_555
C2 C4 1_555 1_555
Y1F O1B 1_555 1_555
Y1F O1C 1_555 1_555
Y1A O1I_2 1_555 1_555
Y1A O1K_2 1_555 1_555
O2B C4B 1_555 1_555
O2C C4C 1_555 1_555
C1J C2J 1_555 1_555
C2J C4J 1_555 1_555
C2B C4B 1_555 1_555
C2K C3B 1_555 1_555
C2K C4K 1_555 1_555
C2C C4C 1_555 1_555
C2I C3C 1_555 1_555
C2I C4I 1_555 1_555

#END
