
#######################################################################
#
#                 Cambridge Crystallographic Data Centre
#                                CCDC 
#
#######################################################################
#
# If this CIF has been generated from an entry in the Cambridge 
# Structural Database, then it will include bibliographic, chemical, 
# crystal, experimental, refinement or atomic coordinate data resulting 
# from the CCDC's data processing and validation procedures.
#
#######################################################################

data_HIZSEQ
_chemical_formula_moiety         'C48 H56 N6 O28 Zn10'
_symmetry_cell_setting           monoclinic
_symmetry_space_group_name_H-M   'P 21/c'
_symmetry_Int_Tables_number      14
_space_group_name_Hall           '-P 2ybc'
loop_
_symmetry_equiv_pos_site_id
_symmetry_equiv_pos_as_xyz
1 x,y,z
2 -x,1/2+y,1/2-z
3 -x,-y,-z
4 x,1/2-y,1/2+z
_cell_length_a                   15.4488(6)
_cell_length_b                   18.1141(7)
_cell_length_c                   17.5541(7)
_cell_angle_alpha                90
_cell_angle_beta                 103.171(3)
_cell_angle_gamma                90
_cell_volume                     4783.14
loop_
_atom_site_label
_atom_site_type_symbol
_atom_site_fract_x
_atom_site_fract_y
_atom_site_fract_z
C1 C 0.9618(2) 0.9346(2) 0.6686(2)
C2 C 0.9729(2) 0.8626(2) 0.7120(2)
C3 C 1.0606(3) 0.8388(3) 0.7412(3)
H1 H 1.1086 0.8677 0.7324
C4 C 1.0774(3) 0.7740(2) 0.7825(3)
H2 H 1.1370 0.7583 0.8021
C5 C 1.0081(3) 0.7316(2) 0.7956(3)
C6 C 0.9200(3) 0.7538(2) 0.7649(3)
H3 H 0.8726 0.7233 0.7723
C7 C 0.9014(3) 0.8187(2) 0.7245(3)
C8 C 0.7340(4) 0.8079(4) 0.6962(5)
C9 C 0.6528(3) 0.8490(4) 0.6610(4)
H4 H 0.6567 0.8652 0.6080
H5 H 0.6507 0.8940 0.6926
C10 C 0.5667(5) 0.8071(5) 0.6544(6)
H6 H 0.5171 0.8369 0.6255
H7 H 0.5579 0.7966 0.7068
H8 H 0.5695 0.7606 0.6265
C11 C 1.0240(3) 0.6602(2) 0.8406(2)
C12 C 0.6913(2) 0.9960(2) 0.5236(3)
C13 C 0.5924(12) 0.9956(9) 0.5192(9)
C14 C 0.5487(13) 1.0567(9) 0.5404(9)
C15 C 0.4568(13) 1.0558(9) 0.5301(9)
H9 H 0.4270 1.0976 0.5446
C16 C 0.4086(12) 0.9938(9) 0.4988(9)
C17 C 0.4522(12) 0.9327(9) 0.4776(9)
H10 H 0.4193 0.8903 0.4562
C18 C 0.5441(12) 0.9336(9) 0.4879(9)
H11 H 0.5740 0.8918 0.4735
C19 C 0.5676(7) 1.1957(7) 0.5945(7)
C20 C 0.6455(6) 1.2475(5) 0.6254(7)
H12 H 0.6943 1.2200 0.6602
H13 H 0.6681 1.2676 0.5812
C21 C 0.6169(13) 1.3066(10) 0.6677(11)
H14 H 0.6665 1.3407 0.6861
H15 H 0.5969 1.2866 0.7127
H16 H 0.5678 1.3330 0.6333
C22 C 1.2432(4) 1.0676(4) 0.6650(4)
H17 H 1.2251 1.1179 0.6601
C23 C 1.3631(5) 0.9803(5) 0.7057(5)
H18 H 1.4257 0.9800 0.7336
H19 H 1.3577 0.9607 0.6527
H20 H 1.3285 0.9494 0.7338
C24 C 1.3891(5) 1.1115(5) 0.7317(6)
H21 H 1.4469 1.0906 0.7576
H22 H 1.3650 1.1399 0.7697
H23 H 1.3966 1.1441 0.6891
N1 N 0.8110(3) 0.8400(3) 0.6930(3)
H24 H 0.8051 0.8818 0.6669
N2 N 0.5952(5) 1.1278(4) 0.5682(5)
H25 H 0.6521 1.1271 0.5680
N3 N 1.3300(3) 1.0539(3) 0.7010(3)
O1 O 1.02718(17) 0.96178(15) 0.64968(16)
O2 O 0.88355(17) 0.96327(14) 0.65241(17)
O3 O 0.7290(3) 0.7470(3) 0.7264(4)
O4 O 0.95937(17) 0.62947(16) 0.85842(17)
O5 O 1.10329(16) 0.63753(15) 0.85696(17)
O6 O 0.72708(17) 0.93789(17) 0.5121(2)
O7 O 0.73328(16) 1.05633(15) 0.54670(19)
O8 O 0.4967(6) 1.2066(5) 0.6009(6)
O9 O 1.11153(18) 1.11531(16) 0.50349(19)
O10 O 1.19009(19) 1.0240(2) 0.63995(18)
O11 O 0.93030(15) 1.04500(13) 0.50296(16)
Zn1 Zn 1.06087(2) 1.04038(2) 0.57324(3)
Zn2 Zn 0.86111(2) 1.04729(2) 0.58156(3)
H26 H 1.1610(16) 1.104(2) 0.500(2)
H27 H 1.110(3) 1.155(2) 0.522(3)
H28 H 0.922(3) 1.085(2) 0.483(2)
C12B C 0.3087(2) 1.0040(2) 0.4764(3)
C13B C 0.4076(12) 1.0044(9) 0.4808(9)
C14B C 0.4513(13) 0.9433(9) 0.4596(9)
C15B C 0.5432(13) 0.9442(9) 0.4699(9)
H9B H 0.5730 0.9024 0.4554
C16B C 0.5914(12) 1.0062(9) 0.5012(9)
C17B C 0.5478(12) 1.0673(9) 0.5224(9)
H10B H 0.5807 1.1097 0.5438
C18B C 0.4559(12) 1.0664(9) 0.5121(9)
H11B H 0.4260 1.1082 0.5265
C19B C 0.4324(7) 0.8043(7) 0.4055(7)
C20B C 0.3545(6) 0.7525(5) 0.3746(7)
H12B H 0.3057 0.7800 0.3398
H13B H 0.3319 0.7324 0.4188
C21B C 0.3831(13) 0.6934(10) 0.3323(11)
H14B H 0.3335 0.6593 0.3139
H15B H 0.4031 0.7134 0.2873
H16B H 0.4322 0.6670 0.3667
N2B N 0.4048(5) 0.8722(4) 0.4318(5)
H25B H 0.3479 0.8729 0.4320
O6B O 0.27292(17) 1.06211(17) 0.4879(2)
O7B O 0.26672(16) 0.94367(15) 0.45330(19)
O8B O 0.5033(6) 0.7934(5) 0.3991(6)
C1B C 0.0382(2) 1.0654(2) 0.3314(2)
C2B C 0.0271(2) 1.1374(2) 0.2880(2)
C3B C -0.0606(3) 1.1612(3) 0.2588(3)
H1B H -0.1086 1.1323 0.2676
C4B C -0.0774(3) 1.2260(2) 0.2175(3)
H2B H -0.1370 1.2417 0.1979
C5B C -0.0081(3) 1.2684(2) 0.2044(3)
C6B C 0.0800(3) 1.2462(2) 0.2351(3)
H3B H 0.1274 1.2767 0.2277
C7B C 0.0986(3) 1.1813(2) 0.2755(3)
C8B C 0.2660(4) 1.1921(4) 0.3038(5)
C9B C 0.3472(3) 1.1510(4) 0.3390(4)
H4B H 0.3433 1.1348 0.3920
H5B H 0.3493 1.1060 0.3074
C10B C 0.4333(5) 1.1929(5) 0.3456(6)
H6B H 0.4829 1.1631 0.3745
H7B H 0.4421 1.2034 0.2932
H8B H 0.4305 1.2394 0.3735
C11B C -0.0240(3) 1.3398(2) 0.1594(2)
C22B C -0.2432(4) 0.9324(4) 0.3350(4)
H17B H -0.2251 0.8821 0.3399
C23B C -0.3631(5) 1.0197(5) 0.2943(5)
H18B H -0.4257 1.0200 0.2664
H19B H -0.3577 1.0393 0.3473
H20B H -0.3285 1.0506 0.2662
C24B C -0.3891(5) 0.8885(5) 0.2683(6)
H21B H -0.4469 0.9094 0.2424
H22B H -0.3650 0.8601 0.2303
H23B H -0.3966 0.8559 0.3109
N1B N 0.1890(3) 1.1600(3) 0.3070(3)
H24B H 0.1949 1.1182 0.3331
N3B N -0.3300(3) 0.9461(3) 0.2990(3)
O1B O -0.02718(17) 1.03822(15) 0.35032(16)
O2B O 0.11645(17) 1.03673(14) 0.34759(17)
O3B O 0.2710(3) 1.2530(3) 0.2736(4)
O4B O 0.04063(17) 1.37053(16) 0.14158(17)
O5B O -0.10329(16) 1.36247(15) 0.14304(17)
O9B O -0.11153(18) 0.88469(16) 0.49651(19)
O10B O -0.19009(19) 0.9760(2) 0.36005(18)
O11B O 0.06970(15) 0.95500(13) 0.49704(16)
Zn1B Zn -0.06087(2) 0.95962(2) 0.42676(3)
Zn2B Zn 0.13889(2) 0.95271(2) 0.41844(3)
H26B H -0.1610(16) 0.896(2) 0.500(2)
H27B H -0.110(3) 0.845(2) 0.478(3)
H28B H 0.078(3) 0.915(2) 0.517(2)
O4A O 1.04063(17) 1.12947(16) 0.64158(17)
O4C O -0.04063(17) 0.87053(16) 0.35842(17)
O5A O 0.89671(16) 1.13753(15) 0.64304(17)
O5C O 0.10329(16) 0.86247(15) 0.35696(17)
O11_2 O -0.06970(15) 1.04500(13) 0.50296(16)
O11B_2 O 1.06970(15) 0.95500(13) 0.49704(16)
Zn1_2 Zn 0.06087(2) 1.04038(2) 0.57324(3)
Zn1A Zn 0.93913(2) 0.54038(2) 0.92676(3)
Zn1B_2 Zn 0.93913(2) 0.95962(2) 0.42676(3)
Zn1C Zn 0.06087(2) 1.45962(2) 0.07324(3)
Zn2A Zn 1.13889(2) 0.54729(2) 0.91844(3)
Zn2C Zn -0.13889(2) 1.45271(2) 0.08156(3)
loop_
_geom_bond_atom_site_label_1
_geom_bond_atom_site_label_2
_geom_bond_site_symmetry_1
_geom_bond_site_symmetry_2
C1 C2 1_555 1_555
C2 C3 1_555 1_555
C3 H1 1_555 1_555
C4 C3 1_555 1_555
H2 C4 1_555 1_555
C5 C4 1_555 1_555
C6 C5 1_555 1_555
H3 C6 1_555 1_555
C7 C2 1_555 1_555
C8 C9 1_555 1_555
C9 H4 1_555 1_555
H5 C9 1_555 1_555
C10 C9 1_555 1_555
H6 C10 1_555 1_555
H7 C10 1_555 1_555
H8 C10 1_555 1_555
C11 C5 1_555 1_555
C12 C13 1_555 1_555
C13 C14 1_555 1_555
C14 C15 1_555 1_555
C15 H9 1_555 1_555
H9 C18B 1_555 1_555
C16 C15 1_555 1_555
C17 C16 1_555 1_555
H10 C17 1_555 1_555
C18 C13 1_555 1_555
H11 C18 1_555 1_555
C19 C20 1_555 1_555
C20 H12 1_555 1_555
H13 C20 1_555 1_555
C21 C20 1_555 1_555
H14 C21 1_555 1_555
H15 C21 1_555 1_555
H16 C21 1_555 1_555
C22 H17 1_555 1_555
C23 H18 1_555 1_555
H19 C23 1_555 1_555
H20 C23 1_555 1_555
C24 H21 1_555 1_555
H22 C24 1_555 1_555
H23 C24 1_555 1_555
N1 C7 1_555 1_555
H24 N1 1_555 1_555
N2 C14 1_555 1_555
H25 N2 1_555 1_555
N3 C22 1_555 1_555
O1 C1 1_555 1_555
O2 C1 1_555 1_555
O3 C8 1_555 1_555
O4 C11 1_555 1_555
O5 C11 1_555 1_555
O6 C12 1_555 1_555
O7 C12 1_555 1_555
O8 C19 1_555 1_555
O9 Zn1 1_555 1_555
O10 C22 1_555 1_555
O11 Zn1 1_555 1_555
Zn1 O1 1_555 1_555
Zn2 O2 1_555 1_555
H26 O9 1_555 1_555
H27 O9 1_555 1_555
H28 O11 1_555 1_555
C12B C16 1_555 1_555
C13B C15 1_555 1_555
C14B C16 1_555 1_555
C15B C13 1_555 1_555
H9B C18 1_555 1_555
C16B C12 1_555 1_555
C17B C13 1_555 1_555
H10B C14 1_555 1_555
C18B C14 1_555 1_555
H11B C15 1_555 1_555
C19B C20B 1_555 1_555
C20B H12B 1_555 1_555
H13B C20B 1_555 1_555
C21B C20B 1_555 1_555
H14B C21B 1_555 1_555
H15B C21B 1_555 1_555
H16B C21B 1_555 1_555
N2B C17 1_555 1_555
H25B N2B 1_555 1_555
O6B C12B 1_555 1_555
O7B C12B 1_555 1_555
O8B C19B 1_555 1_555
C1B C2B 1_555 1_555
C2B C3B 1_555 1_555
C3B H1B 1_555 1_555
C4B C3B 1_555 1_555
H2B C4B 1_555 1_555
C5B C4B 1_555 1_555
C6B C5B 1_555 1_555
H3B C6B 1_555 1_555
C7B C2B 1_555 1_555
C8B C9B 1_555 1_555
C9B H4B 1_555 1_555
H5B C9B 1_555 1_555
C10B C9B 1_555 1_555
H6B C10B 1_555 1_555
H7B C10B 1_555 1_555
H8B C10B 1_555 1_555
C11B C5B 1_555 1_555
C22B H17B 1_555 1_555
C23B H18B 1_555 1_555
H19B C23B 1_555 1_555
H20B C23B 1_555 1_555
C24B H21B 1_555 1_555
H22B C24B 1_555 1_555
H23B C24B 1_555 1_555
N1B C7B 1_555 1_555
H24B N1B 1_555 1_555
N3B C22B 1_555 1_555
O1B C1B 1_555 1_555
O2B C1B 1_555 1_555
O3B C8B 1_555 1_555
O4B C11B 1_555 1_555
O5B C11B 1_555 1_555
O9B Zn1B 1_555 1_555
O10B C22B 1_555 1_555
O11B Zn1B 1_555 1_555
Zn1B O1B 1_555 1_555
Zn2B O7B 1_555 1_555
H26B O9B 1_555 1_555
H27B O9B 1_555 1_555
H28B O11B 1_555 1_555
O4A Zn1 1_555 1_555
O4C Zn1B 1_555 1_555
O5A Zn2 1_555 1_555
O5C Zn2B 1_555 1_555
O11_2 Zn1B 1_555 1_555
O11B_2 Zn1 1_555 1_555
Zn1_2 O11B 1_555 1_555
Zn1A O4 1_555 1_555
Zn1B_2 O11 1_555 1_555
Zn1C O4B 1_555 1_555
Zn2A O5 1_555 1_555
Zn2C O5B 1_555 1_555
C6 C7 1_555 1_555
C8 N1 1_555 1_555
C14 C16B 1_555 1_555
C15 C17B 1_555 1_555
C16 C18B 1_555 1_555
C17 C18 1_555 1_555
C17 C13B 1_555 1_555
C17 C15B 1_555 1_555
H10 C14B 1_555 1_555
C18 C14B 1_555 1_555
C18 C16B 1_555 1_555
H11 C15B 1_555 1_555
C19 N2 1_555 1_555
C23 N3 1_555 1_555
C24 N3 1_555 1_555
N2 C17B 1_555 1_555
O7 Zn2 1_555 1_555
O10 Zn1 1_555 1_555
O11 Zn2 1_555 1_555
C12B C13B 1_555 1_555
C13B C14B 1_555 1_555
C13B C18B 1_555 1_555
C14B C15B 1_555 1_555
C14B N2B 1_555 1_555
C15B H9B 1_555 1_555
C15B C16B 1_555 1_555
C16B C17B 1_555 1_555
C17B H10B 1_555 1_555
C17B C18B 1_555 1_555
C18B H11B 1_555 1_555
C19B N2B 1_555 1_555
C6B C7B 1_555 1_555
C8B N1B 1_555 1_555
C23B N3B 1_555 1_555
C24B N3B 1_555 1_555
O2B Zn2B 1_555 1_555
O10B Zn1B 1_555 1_555
O11B Zn2B 1_555 1_555
O11_2 Zn1_2 1_555 1_555
O11B_2 Zn1B_2 1_555 1_555

#END
