
#######################################################################
#
#                 Cambridge Crystallographic Data Centre
#                                CCDC 
#
#######################################################################
#
# If this CIF has been generated from an entry in the Cambridge 
# Structural Database, then it will include bibliographic, chemical, 
# crystal, experimental, refinement or atomic coordinate data resulting 
# from the CCDC's data processing and validation procedures.
#
#######################################################################

data_WAMRIN01
_chemical_formula_moiety         '(C32 H30 Mg3 N4 O20)n'
_symmetry_cell_setting           orthorhombic
_symmetry_space_group_name_H-M   'P b c a'
_symmetry_Int_Tables_number      61
_space_group_name_Hall           '-P 2ac 2ab'
loop_
_symmetry_equiv_pos_site_id
_symmetry_equiv_pos_as_xyz
1 x,y,z
2 1/2-x,-y,1/2+z
3 1/2+x,1/2-y,-z
4 -x,1/2+y,1/2-z
5 -x,-y,-z
6 1/2+x,y,1/2-z
7 1/2-x,1/2+y,z
8 x,1/2-y,1/2+z
_cell_length_a                   19.706(4)
_cell_length_b                   14.974(3)
_cell_length_c                   19.760(3)
_cell_angle_alpha                90
_cell_angle_beta                 90
_cell_angle_gamma                90
_cell_volume                     5830.73
loop_
_atom_site_label
_atom_site_type_symbol
_atom_site_fract_x
_atom_site_fract_y
_atom_site_fract_z
_atom_site_U_iso_or_equiv
_atom_site_thermal_displace_type
Mg1 Mg 0.5000 0.5000 0.0000 0.0204 Uani
Mg2 Mg 0.47417(10) 0.26455(12) 0.02532(10) 0.0229 Uani
O1 O 0.4024(2) 0.4683(3) -0.0140(3) 0.0613 Uani
O2 O 0.4232(3) 0.1620(4) 0.0747(4) 0.0573 Uani
O3 O 0.3833(2) 0.3258(3) 0.0092(3) 0.0497 Uani
O4 O 0.4930(4) 0.4689(3) 0.0995(2) 0.0673 Uani
O5 O 0.4870(3) 0.3232(3) 0.1174(2) 0.0490 Uani
O6 O 0.0647(2) 0.3041(3) -0.0378(3) 0.0430 Uani
O7 O 0.1450(3) 0.2132(3) 0.0015(4) 0.0850 Uani
O8 O 0.5096(4) 0.2157(3) 0.3560(3) 0.0743 Uani
H1 H 0.5089 0.1792 0.3868 0.1110 Uiso
O9 O 0.4633(3) 0.3037(3) 0.4352(2) 0.0407 Uani
N1 N 0.1733(5) 0.6095(6) -0.0387(5) 0.0900 Uiso
H2 H 0.2016 0.6532 -0.0399 0.1070 Uiso
H3 H 0.1306 0.6195 -0.0433 0.1070 Uiso
N2 N 0.4686(7) 0.6100(4) 0.3281(4) 0.1273 Uani
H4 H 0.4676 0.6541 0.3002 0.1530 Uiso
H5 H 0.4659 0.6197 0.3709 0.1530 Uiso
C1 C 0.4850(5) 0.4190(4) 0.2119(3) 0.0540 Uani
C2 C 0.2888(3) 0.4177(4) -0.0125(5) 0.0597 Uani
C3 C 0.1969(4) 0.5217(5) -0.0292(6) 0.0757 Uani
C4 C 0.2645(4) 0.5058(5) -0.0220(6) 0.0787 Uani
H6 H 0.2950 0.5532 -0.0232 0.0950 Uiso
C5 C 0.4821(5) 0.3646(4) 0.3265(3) 0.0480 Uani
C6 C 0.4848(4) 0.2891(4) 0.3765(4) 0.0450 Uani
C7 C 0.1738(4) 0.3637(5) -0.0176(5) 0.0537 Uani
C8 C 0.4746(6) 0.5223(5) 0.3037(4) 0.0747 Uani
C9 C 0.3630(3) 0.4031(4) -0.0061(4) 0.0457 Uani
C10 C 0.2430(4) 0.3476(4) -0.0129(5) 0.0643 Uani
H7 H 0.2587 0.2892 -0.0098 0.0770 Uiso
C11 C 0.1514(4) 0.4513(5) -0.0278(6) 0.0800 Uani
H8 H 0.1053 0.4624 -0.0337 0.0960 Uiso
C12 C 0.4756(5) 0.4507(5) 0.3503(4) 0.0630 Uani
H9 H 0.4719 0.4616 0.3965 0.0750 Uiso
C13 C 0.4868(5) 0.3484(4) 0.2574(4) 0.0550 Uani
H10 H 0.4912 0.2902 0.2416 0.0660 Uiso
C14 C 0.4790(6) 0.5051(5) 0.2356(4) 0.0760 Uani
H11 H 0.4779 0.5523 0.2051 0.0910 Uiso
C15 C 0.4890(4) 0.4023(4) 0.1365(3) 0.0440 Uani
C16 C 0.1243(4) 0.2881(4) -0.0188(5) 0.0520 Uani
O10 O 0.5296(2) 0.3686(3) -0.0259(2) 0.0270 Uani
H12 H 0.515(4) 0.342(5) -0.060(3) 0.0700 Uiso
H13 H 0.556(10) 0.337(9) -0.003(8) 0.3600 Uiso
H14 H 0.436(4) 0.139(5) 0.111(2) 0.0700 Uiso
H15 H 0.431(11) 0.132(9) 0.042(3) 0.2900 Uiso
Mg2D Mg 0.52583(10) 0.73545(12) -0.02532(10) 0.0229 Uani
Mg2B Mg -0.02583(10) 0.23545(12) -0.02532(10) 0.0229 Uani
Mg2G Mg 0.47417(10) 0.23545(12) 0.52532(10) 0.0229 Uani
Mg2F Mg 1.02583(10) 0.76455(12) 0.02532(10) 0.0229 Uani
Mg2C Mg 0.52583(10) 0.76455(12) -0.52532(10) 0.0229 Uani
O1D O 0.5976(2) 0.5317(3) 0.0140(3) 0.0613 Uani
O2D O 0.5768(3) 0.8380(4) -0.0747(4) 0.0573 Uani
O3D O 0.6167(2) 0.6742(3) -0.0092(3) 0.0497 Uani
O4D O 0.5070(4) 0.5311(3) -0.0995(2) 0.0673 Uani
O5D O 0.5130(3) 0.6768(3) -0.1174(2) 0.0490 Uani
O6D O 0.9353(2) 0.6959(3) 0.0378(3) 0.0430 Uani
O6B O 0.5647(2) 0.1959(3) 0.0378(3) 0.0430 Uani
O6F O 0.4353(2) 0.8041(3) -0.0378(3) 0.0430 Uani
O7D O 0.8550(3) 0.7868(3) -0.0015(4) 0.0850 Uani
O8D O 0.4904(4) 0.7843(3) -0.3560(3) 0.0743 Uani
H1D H 0.4911 0.8208 -0.3868 0.1110 Uiso
O9D O 0.5367(3) 0.6963(3) -0.4352(2) 0.0407 Uani
O9G O 0.4633(3) 0.1963(3) -0.0648(2) 0.0407 Uani
O9C O 0.5367(3) 0.8037(3) 0.0648(2) 0.0407 Uani
N1D N 0.8267(5) 0.3905(6) 0.0387(5) 0.0900 Uiso
H2D H 0.7984 0.3468 0.0399 0.1070 Uiso
H3D H 0.8694 0.3805 0.0433 0.1070 Uiso
N2D N 0.5314(7) 0.3900(4) -0.3281(4) 0.1273 Uani
H4D H 0.5324 0.3459 -0.3002 0.1530 Uiso
H5D H 0.5341 0.3803 -0.3709 0.1530 Uiso
C1D C 0.5150(5) 0.5810(4) -0.2119(3) 0.0540 Uani
C2D C 0.7112(3) 0.5823(4) 0.0125(5) 0.0597 Uani
C3D C 0.8031(4) 0.4783(5) 0.0292(6) 0.0757 Uani
C4D C 0.7355(4) 0.4942(5) 0.0220(6) 0.0787 Uani
H6D H 0.7050 0.4468 0.0232 0.0950 Uiso
C5D C 0.5179(5) 0.6354(4) -0.3265(3) 0.0480 Uani
C6D C 0.5152(4) 0.7109(4) -0.3765(4) 0.0450 Uani
C7D C 0.8262(4) 0.6363(5) 0.0176(5) 0.0537 Uani
C8D C 0.5254(6) 0.4777(5) -0.3037(4) 0.0747 Uani
C9D C 0.6370(3) 0.5969(4) 0.0061(4) 0.0457 Uani
C10D C 0.7570(4) 0.6524(4) 0.0129(5) 0.0643 Uani
H7D H 0.7413 0.7108 0.0098 0.0770 Uiso
C11D C 0.8486(4) 0.5487(5) 0.0278(6) 0.0800 Uani
H8D H 0.8947 0.5376 0.0337 0.0960 Uiso
C12D C 0.5244(5) 0.5493(5) -0.3503(4) 0.0630 Uani
H9D H 0.5281 0.5384 -0.3965 0.0750 Uiso
C13D C 0.5132(5) 0.6516(4) -0.2574(4) 0.0550 Uani
H10D H 0.5088 0.7098 -0.2416 0.0660 Uiso
C14D C 0.5210(6) 0.4949(5) -0.2356(4) 0.0760 Uani
H11D H 0.5221 0.4477 -0.2051 0.0910 Uiso
C15D C 0.5110(4) 0.5977(4) -0.1365(3) 0.0440 Uani
C16D C 0.8757(4) 0.7119(4) 0.0188(5) 0.0520 Uani
O10D O 0.4704(2) 0.6314(3) 0.0259(2) 0.0270 Uani
H12D H 0.485(4) 0.658(5) 0.060(3) 0.0700 Uiso
H13D H 0.444(10) 0.663(9) 0.003(8) 0.3600 Uiso
H14D H 0.564(4) 0.861(5) -0.111(2) 0.0700 Uiso
H15D H 0.569(11) 0.868(9) -0.042(3) 0.2900 Uiso
loop_
_atom_site_aniso_label
_atom_site_aniso_U_11
_atom_site_aniso_U_22
_atom_site_aniso_U_33
_atom_site_aniso_U_23
_atom_site_aniso_U_13
_atom_site_aniso_U_12
Mg1 0.0213(13) 0.0176(12) 0.0223(14) 0.0023(11) 0.0030(12) -0.0012(11)
Mg2 0.0290(10) 0.0165(9) 0.0231(10) -0.0009(8) 0.0032(9) -0.0011(8)
O1 0.031(3) 0.029(3) 0.124(5) -0.001(3) -0.007(3) -0.008(2)
O2 0.067(4) 0.041(3) 0.064(4) 0.012(3) 0.020(4) -0.015(3)
O3 0.031(3) 0.035(3) 0.083(4) -0.001(3) -0.003(3) 0.004(2)
O4 0.152(6) 0.026(2) 0.024(3) 0.004(2) 0.002(3) -0.009(3)
O5 0.095(4) 0.026(2) 0.026(3) -0.0026(19) -0.002(3) 0.003(3)
O6 0.030(3) 0.036(3) 0.063(3) 0.007(2) -0.005(2) -0.007(2)
O7 0.038(3) 0.033(3) 0.184(8) 0.026(4) -0.001(4) -0.005(2)
O8 0.149(6) 0.033(3) 0.041(3) 0.014(2) 0.023(4) 0.025(3)
O9 0.052(3) 0.040(3) 0.030(3) 0.009(2) 0.004(2) 0.017(2)
N2 0.323(16) 0.022(3) 0.037(4) -0.005(3) -0.017(7) -0.011(6)
C1 0.116(8) 0.022(3) 0.024(4) 0.003(3) -0.002(4) -0.001(4)
C2 0.021(3) 0.021(3) 0.137(9) -0.008(4) 0.000(4) 0.004(3)
C3 0.032(4) 0.019(4) 0.176(11) -0.011(5) 0.004(5) 0.009(3)
C4 0.035(5) 0.021(4) 0.180(11) 0.001(5) -0.004(5) 0.004(3)
C5 0.094(6) 0.029(3) 0.021(4) 0.001(3) 0.002(4) -0.001(4)
C6 0.073(6) 0.030(4) 0.032(4) 0.003(3) 0.005(4) 0.001(4)
C7 0.022(3) 0.031(4) 0.108(7) 0.008(4) -0.003(4) -0.003(3)
C8 0.159(10) 0.031(4) 0.034(4) 0.001(3) -0.009(5) 0.004(5)
C9 0.033(4) 0.023(3) 0.081(6) 0.000(4) 0.002(4) 0.000(3)
C10 0.043(4) 0.015(3) 0.135(9) -0.007(4) 0.002(5) -0.002(3)
C11 0.038(5) 0.024(4) 0.178(11) -0.002(5) 0.011(6) 0.003(3)
C12 0.128(8) 0.036(4) 0.025(4) 0.001(3) -0.012(5) 0.001(5)
C13 0.118(8) 0.022(3) 0.025(4) -0.004(3) 0.003(4) 0.006(4)
C14 0.176(11) 0.024(4) 0.028(4) 0.002(3) -0.001(5) 0.006(5)
C15 0.078(6) 0.030(4) 0.024(4) 0.000(3) 0.004(4) -0.005(4)
C16 0.038(4) 0.021(3) 0.097(7) 0.000(4) 0.014(4) 0.000(3)
O10 0.028(2) 0.020(2) 0.033(3) -0.0029(19) 0.006(2) -0.0004(18)
Mg2D 0.029 0.0165 0.0231 -0.0009 0.0032 -0.0011
Mg2B 0.029 0.0165 0.0231 -0.0009 -0.0032 0.0011
Mg2G 0.029 0.0165 0.0231 0.0009 0.0032 0.0011
Mg2F 0.029 0.0165 0.0231 -0.0009 -0.0032 0.0011
Mg2C 0.029 0.0165 0.0231 0.0009 0.0032 0.0011
O1D 0.031 0.029 0.124 -0.001 -0.007 -0.008
O2D 0.067 0.041 0.064 0.012 0.02 -0.015
O3D 0.031 0.035 0.083 -0.001 -0.003 0.004
O4D 0.152 0.026 0.024 0.004 0.002 -0.009
O5D 0.095 0.026 0.026 -0.0026 -0.002 0.003
O6D 0.03 0.036 0.063 0.007 -0.005 -0.007
O6B 0.03 0.036 0.063 0.007 0.005 0.007
O6F 0.03 0.036 0.063 0.007 0.005 0.007
O7D 0.038 0.033 0.184 0.026 -0.001 -0.005
O8D 0.149 0.033 0.041 0.014 0.023 0.025
O9D 0.052 0.04 0.03 0.009 0.004 0.017
O9G 0.052 0.04 0.03 -0.009 0.004 -0.017
O9C 0.052 0.04 0.03 -0.009 0.004 -0.017
N2D 0.323 0.022 0.037 -0.005 -0.017 -0.011
C1D 0.116 0.022 0.024 0.003 -0.002 -0.001
C2D 0.021 0.021 0.137 -0.008 0 0.004
C3D 0.032 0.019 0.176 -0.011 0.004 0.009
C4D 0.035 0.021 0.18 0.001 -0.004 0.004
C5D 0.094 0.029 0.021 0.001 0.002 -0.001
C6D 0.073 0.03 0.032 0.003 0.005 0.001
C7D 0.022 0.031 0.108 0.008 -0.003 -0.003
C8D 0.159 0.031 0.034 0.001 -0.009 0.004
C9D 0.033 0.023 0.081 0 0.002 0
C10D 0.043 0.015 0.135 -0.007 0.002 -0.002
C11D 0.038 0.024 0.178 -0.002 0.011 0.003
C12D 0.128 0.036 0.025 0.001 -0.012 0.001
C13D 0.118 0.022 0.025 -0.004 0.003 0.006
C14D 0.176 0.024 0.028 0.002 -0.001 0.006
C15D 0.078 0.03 0.024 0 0.004 -0.005
C16D 0.038 0.021 0.097 0 0.014 0
O10D 0.028 0.02 0.033 -0.0029 0.006 -0.0004
loop_
_geom_bond_atom_site_label_1
_geom_bond_atom_site_label_2
_geom_bond_site_symmetry_1
_geom_bond_site_symmetry_2
Mg1 O1 1_555 1_555
Mg2 O2 1_555 1_555
O1 C9 1_555 1_555
O2 H14 1_555 1_555
O3 Mg2 1_555 1_555
O4 Mg1 1_555 1_555
O5 Mg2 1_555 1_555
O6 C16 1_555 1_555
O7 C16 1_555 1_555
O8 H1 1_555 1_555
O9 C6 1_555 1_555
N1 H2 1_555 1_555
H3 N1 1_555 1_555
N2 H4 1_555 1_555
H5 N2 1_555 1_555
C1 C13 1_555 1_555
C2 C4 1_555 1_555
C3 N1 1_555 1_555
C4 C3 1_555 1_555
H6 C4 1_555 1_555
C5 C6 1_555 1_555
C6 O8 1_555 1_555
C7 C10 1_555 1_555
C8 N2 1_555 1_555
C9 O3 1_555 1_555
C10 C2 1_555 1_555
H7 C10 1_555 1_555
C11 C3 1_555 1_555
H8 C11 1_555 1_555
C12 C5 1_555 1_555
H9 C12 1_555 1_555
C13 C5 1_555 1_555
H10 C13 1_555 1_555
C14 C1 1_555 1_555
H11 C14 1_555 1_555
C15 O4 1_555 1_555
C16 C7 1_555 1_555
O10 Mg1 1_555 1_555
H12 O10 1_555 1_555
H13 O10 1_555 1_555
H15 O2 1_555 1_555
Mg2D O2D 1_555 1_555
Mg2B O6 1_555 1_555
Mg2G O9 1_555 1_555
Mg2F O6D 1_555 1_555
Mg2C O9D 1_555 1_555
O1D Mg1 1_555 1_555
O2D H14D 1_555 1_555
O3D Mg2D 1_555 1_555
O4D Mg1 1_555 1_555
O5D Mg2D 1_555 1_555
O6D C16D 1_555 1_555
O6B Mg2 1_555 1_555
O6F Mg2D 1_555 1_555
O7D C16D 1_555 1_555
O8D H1D 1_555 1_555
O9D C6D 1_555 1_555
O9G Mg2 1_555 1_555
O9C Mg2D 1_555 1_555
N1D H2D 1_555 1_555
H3D N1D 1_555 1_555
N2D H4D 1_555 1_555
H5D N2D 1_555 1_555
C1D C13D 1_555 1_555
C2D C4D 1_555 1_555
C3D N1D 1_555 1_555
C4D C3D 1_555 1_555
H6D C4D 1_555 1_555
C5D C6D 1_555 1_555
C6D O8D 1_555 1_555
C7D C10D 1_555 1_555
C8D N2D 1_555 1_555
C9D O1D 1_555 1_555
C10D C2D 1_555 1_555
H7D C10D 1_555 1_555
C11D C3D 1_555 1_555
H8D C11D 1_555 1_555
C12D C5D 1_555 1_555
H9D C12D 1_555 1_555
C13D C5D 1_555 1_555
H10D C13D 1_555 1_555
C14D C1D 1_555 1_555
H11D C14D 1_555 1_555
C15D O4D 1_555 1_555
C16D C7D 1_555 1_555
O10D Mg1 1_555 1_555
H12D O10D 1_555 1_555
H13D O10D 1_555 1_555
H15D O2D 1_555 1_555
Mg2 O10 1_555 1_555
O5 C15 1_555 1_555
C1 C15 1_555 1_555
C2 C9 1_555 1_555
C7 C11 1_555 1_555
C8 C12 1_555 1_555
C8 C14 1_555 1_555
Mg2D O10D 1_555 1_555
O3D C9D 1_555 1_555
O5D C15D 1_555 1_555
C1D C15D 1_555 1_555
C2D C9D 1_555 1_555
C7D C11D 1_555 1_555
C8D C12D 1_555 1_555
C8D C14D 1_555 1_555

#END
