
#######################################################################
#
#                 Cambridge Crystallographic Data Centre
#                                CCDC 
#
#######################################################################
#
# If this CIF has been generated from an entry in the Cambridge 
# Structural Database, then it will include bibliographic, chemical, 
# crystal, experimental, refinement or atomic coordinate data resulting 
# from the CCDC's data processing and validation procedures.
#
#######################################################################

data_AFOYAW
_chemical_formula_moiety         '(C53 H56 Cu4 F9 N30 O18 S3 3+)n'
_symmetry_cell_setting           triclinic
_symmetry_space_group_name_H-M   'P -1'
_symmetry_Int_Tables_number      2
_space_group_name_Hall           '-P 1'
loop_
_symmetry_equiv_pos_site_id
_symmetry_equiv_pos_as_xyz
1 x,y,z
2 -x,-y,-z
_cell_length_a                   13.3427(11)
_cell_length_b                   13.4047(12)
_cell_length_c                   13.5620(12)
_cell_angle_alpha                102.339(2)
_cell_angle_beta                 104.3690(10)
_cell_angle_gamma                90.4770(10)
_cell_volume                     2290.64
loop_
_atom_site_label
_atom_site_type_symbol
_atom_site_fract_x
_atom_site_fract_y
_atom_site_fract_z
Cu1 Cu -0.5000 0.5000 0.5000
Cu2 Cu -0.25871(4) 0.57282(5) 0.52392(5)
Cu3 Cu 0.0000 0.5000 0.5000
O1 O -0.3546(3) 0.4775(3) 0.5456(3)
H1 H -0.3373 0.4641 0.6065
O2 O -0.1558(3) 0.4234(3) 0.3818(4)
H2 H -0.1835 0.3824 0.4096
H3 H -0.1419 0.3867 0.3275
N1 N -0.4621(3) 0.5258(4) 0.3733(3)
N2 N -0.3611(3) 0.5596(3) 0.3824(3)
N3 N -0.4463(3) 0.5308(4) 0.2186(3)
N4 N -0.4356(4) 0.6836(5) 0.5884(4)
N5 N -0.3295(3) 0.7025(4) 0.6094(4)
N6 N -0.3887(4) 0.8244(4) 0.7102(4)
N7 N -0.5006(4) 1.2758(4) 1.1190(4)
N8 N -0.4017(5) 1.2689(5) 1.1763(5)
N9 N -0.4280(4) 1.1574(4) 1.0261(4)
N10 N -0.1554(3) 0.6632(3) 0.4903(3)
N11 N -0.0562(3) 0.6362(3) 0.4904(3)
N12 N -0.0645(3) 0.7980(3) 0.4882(3)
N13 N -0.0552(3) 0.4988(3) 0.6269(3)
N14 N -0.1457(3) 0.5421(3) 0.6417(3)
N15 N -0.0601(3) 0.5105(3) 0.7888(3)
C1 C -0.5105(4) 0.5083(5) 0.2737(4)
H4 H -0.5801 0.4835 0.2453
C2 C -0.3539(4) 0.5618(5) 0.2888(4)
H5 H -0.2935 0.5819 0.2723
C3 C -0.5689(4) 0.5437(5) 0.0564(4)
H6 H -0.6147 0.5733 0.0952
C4 C -0.4724(4) 0.5168(5) 0.1066(4)
C5 C -0.4031(4) 0.4737(5) 0.0514(4)
H7 H -0.3379 0.4564 0.0867
C6 C -0.4683(5) 0.7565(7) 0.6491(6)
H8 H -0.5380 0.7622 0.6510
C7 C -0.3034(4) 0.7863(4) 0.6826(5)
H9 H -0.2354 0.8156 0.7118
C8 C -0.5134(5) 1.2110(5) 1.0310(5)
H10 H -0.5744 1.2019 0.9767
C9 C -0.3607(6) 1.1981(7) 1.1195(6)
H11 H -0.2929 1.1778 1.1406
C10 C -0.3955(5) 0.9132(5) 0.7883(5)
C11 C -0.3195(4) 0.9371(5) 0.8815(5)
H12 H -0.2613 0.8978 0.8920
C12 C -0.3294(5) 1.0189(5) 0.9587(5)
H13 H -0.2772 1.0363 1.0215
C13 C -0.4158(5) 1.0752(5) 0.9443(5)
C14 C -0.4910(6) 1.0508(7) 0.8520(6)
H14 H -0.5499 1.0891 0.8421
C15 C -0.4805(7) 0.9701(7) 0.7733(6)
H15 H -0.5317 0.9543 0.7096
C16 C -0.1591(4) 0.7596(4) 0.4890(4)
H16 H -0.2182 0.7973 0.4886
C17 C -0.0027(4) 0.7178(4) 0.4895(4)
H17 H 0.0677 0.7207 0.4896
C18 C -0.0737(4) 0.9801(4) 0.5517(5)
H18 H -0.1232 0.9662 0.5865
C19 C -0.0323(4) 0.9014(4) 0.4935(4)
C20 C 0.0405(4) 0.9194(4) 0.4424(5)
H19 H 0.0678 0.8644 0.4038
C21 C -0.0058(4) 0.4795(4) 0.7162(4)
H20 H 0.0579 0.4487 0.7285
C22 C -0.1465(4) 0.5491(4) 0.7387(4)
H21 H -0.1991 0.5766 0.7692
C23 C 0.0705(4) 0.5342(5) 0.9533(5)
H22 H 0.1184 0.5576 0.9215
C24 C -0.0289(4) 0.5052(4) 0.8980(4)
C25 C -0.1004(5) 0.4713(5) 0.9421(4)
H23 H -0.1689 0.4519 0.9023
Cu1_2 Cu -0.5000 0.5000 -0.5000
Cu2A Cu -0.74129(4) 0.42718(5) 0.47608(5)
Cu2A_2 Cu -0.74129(4) 0.42718(5) -0.52392(5)
Cu2A_3 Cu 0.25871(4) 1.42718(5) 0.47608(5)
Cu2A_4 Cu 0.25871(4) 0.42718(5) 1.47608(5)
Cu3_2 Cu 0.0000 1.5000 0.5000
Cu3_3 Cu 0.0000 0.5000 1.5000
O1A O -0.6454(3) 0.5225(3) 0.4544(3)
H1A H -0.6627 0.5359 0.3935
O2A O 0.1558(3) 0.5766(3) 0.6182(4)
H2A H 0.1835 0.6176 0.5904
H3A H 0.1419 0.6133 0.6725
N1A N -0.5379(3) 0.4742(4) -0.3733(3)
N1A_2 N -0.5379(3) 0.4742(4) 0.6267(3)
N2A N -0.6389(3) 0.4404(3) -0.3824(3)
N2A_2 N -0.6389(3) 0.4404(3) 0.6176(3)
N3A N -0.5537(3) 0.4692(4) -0.2186(3)
N4A N -0.5644(4) 0.3164(5) 0.4116(4)
N5A N -0.6705(3) 0.2975(4) 0.3906(4)
N6A N -0.6113(4) 0.1756(4) 0.2898(4)
N7A N -0.4994(4) -0.2758(4) -0.1190(4)
N8A N -0.5983(5) -0.2689(5) -0.1763(5)
N9A N -0.5720(4) -0.1574(4) -0.0261(4)
N10A N 0.1554(3) 1.3368(3) 0.5097(3)
N10A_2 N -0.8446(3) 0.3368(3) 0.5097(3)
N11A N 0.0562(3) 1.3638(3) 0.5096(3)
N11A_2 N 0.0562(3) 0.3638(3) 0.5096(3)
N12A N 0.0645(3) 1.2020(3) 0.5118(3)
N13A N 0.0552(3) 0.5012(3) 1.3731(3)
N13A_2 N 0.0552(3) 0.5012(3) 0.3731(3)
N14A N 0.1457(3) 0.4579(3) 1.3583(3)
N14A_2 N -0.8543(3) 0.4579(3) 0.3583(3)
N15A N 0.0601(3) 0.4895(3) 1.2112(3)
C1A C -0.4895(4) 0.4917(5) -0.2737(4)
H4A H -0.4199 0.5165 -0.2453
C2A C -0.6461(4) 0.4382(5) -0.2888(4)
H5A H -0.7065 0.4181 -0.2723
C3A C -0.4311(4) 0.4563(5) -0.0564(4)
H6A H -0.3853 0.4267 -0.0952
C4A C -0.5276(4) 0.4832(5) -0.1066(4)
C5A C -0.5969(4) 0.5263(5) -0.0514(4)
H7A H -0.6621 0.5436 -0.0867
C6A C -0.5317(5) 0.2435(7) 0.3509(6)
H8A H -0.4620 0.2378 0.3490
C7A C -0.6966(4) 0.2137(4) 0.3174(5)
H9A H -0.7646 0.1844 0.2882
C8A C -0.4866(5) -0.2110(5) -0.0310(5)
H10A H -0.4256 -0.2019 0.0233
C9A C -0.6393(6) -0.1981(7) -0.1195(6)
H11A H -0.7071 -0.1778 -0.1406
C10A C -0.6045(5) 0.0868(5) 0.2117(5)
C11A C -0.6805(4) 0.0629(5) 0.1185(5)
H12A H -0.7387 0.1022 0.1080
C12A C -0.6706(5) -0.0189(5) 0.0413(5)
H13A H -0.7228 -0.0363 -0.0215
C13A C -0.5842(5) -0.0752(5) 0.0557(5)
C14A C -0.5090(6) -0.0508(7) 0.1480(6)
H14A H -0.4501 -0.0891 0.1579
C15A C -0.5195(7) 0.0299(7) 0.2267(6)
H15A H -0.4683 0.0457 0.2904
C16A C 0.1591(4) 1.2404(4) 0.5110(4)
H16A H 0.2182 1.2027 0.5114
C17A C 0.0027(4) 1.2822(4) 0.5105(4)
H17A H -0.0677 1.2793 0.5104
C18A C 0.0737(4) 1.0199(4) 0.4483(5)
H18A H 0.1232 1.0338 0.4135
C19A C 0.0323(4) 1.0986(4) 0.5065(4)
C20A C -0.0405(4) 1.0806(4) 0.5576(5)
H19A H -0.0678 1.1356 0.5962
C21A C 0.0058(4) 0.5205(4) 1.2838(4)
H20A H -0.0579 0.5513 1.2715
C22A C 0.1465(4) 0.4509(4) 1.2613(4)
H21A H 0.1991 0.4234 1.2308
C23A C -0.0705(4) 0.4658(5) 1.0467(5)
H22A H -0.1184 0.4424 1.0785
C24A C 0.0289(4) 0.4948(4) 1.1020(4)
C25A C 0.1004(5) 0.5287(5) 1.0579(4)
H23A H 0.1689 0.5481 1.0977
S1 S -0.21536(12) 0.72414(13) 0.16743(13)
O3 O -0.3097(4) 0.7679(5) 0.1785(5)
O4 O -0.2252(6) 0.6529(5) 0.0686(5)
O5 O -0.1585(4) 0.6867(4) 0.2556(4)
C26 C -0.1330(7) 0.8283(8) 0.1586(7)
F1 F -0.1749(5) 0.8661(4) 0.0774(4)
F2 F -0.0417(4) 0.8039(7) 0.1566(6)
F3 F -0.1250(6) 0.9033(5) 0.2437(5)
S2 S -0.04491(13) 1.20302(13) 1.21574(13)
O6 O 0.0503(4) 1.2069(5) 1.2918(4)
O7 O -0.0869(5) 1.3017(4) 1.2106(5)
O8 O -0.1225(4) 1.1258(5) 1.2089(5)
C27 C -0.0069(7) 1.1668(7) 1.0923(6)
F4 F 0.0418(6) 1.0842(5) 1.0906(5)
F5 F 0.0587(6) 1.2375(6) 1.0871(5)
F6 F -0.0871(5) 1.1519(6) 1.0130(4)
S3 S -0.7377(2) 0.7262(2) 0.3290(3)
O9 O -0.7019(4) 0.6269(4) 0.2773(4)
O10 O -0.6510(6) 0.7735(6) 0.4162(5)
O12 O -0.8432(9) 0.7145(8) 0.3378(11)
C28 C -0.7481(8) 0.8035(9) 0.2395(11)
F7 F -0.6530(11) 0.8239(12) 0.2224(12)
F9 F -0.807(3) 0.759(3) 0.146(3)
F11 F -0.779(2) 0.8963(19) 0.265(2)
O13 O 0.3024(3) 0.3495(4) 0.1419(3)
H24 H 0.3628 0.3279 0.1424
H25 H 0.2727 0.3512 0.0788
O14 O -0.3128(5) 0.8988(5) 0.3799(5)
O15 O -0.7480(6) 0.9154(6) 0.6597(7)
O16 O -0.6983(7) 0.6898(8) 0.6065(8)
O18 O -0.4634(8) 0.9053(8) 0.4847(8)
loop_
_geom_bond_atom_site_label_1
_geom_bond_atom_site_label_2
_geom_bond_site_symmetry_1
_geom_bond_site_symmetry_2
Cu1 O1 1_555 1_555
Cu2 O1 1_555 1_555
Cu3 O2 1_555 1_555
O1 H1 1_555 1_555
O2 H2 1_555 1_555
H3 O2 1_555 1_555
N1 Cu1 1_555 1_555
N2 Cu2 1_555 1_555
N3 C1 1_555 1_555
N4 Cu1 1_555 1_555
N5 Cu2 1_555 1_555
N6 C6 1_555 1_555
N7 N8 1_555 1_555
N8 C9 1_555 1_555
N9 C8 1_555 1_555
N10 Cu2 1_555 1_555
N11 Cu3 1_555 1_555
N12 C16 1_555 1_555
N13 Cu3 1_555 1_555
N14 Cu2 1_555 1_555
N15 C21 1_555 1_555
C1 N1 1_555 1_555
H4 C1 1_555 1_555
C2 N2 1_555 1_555
H5 C2 1_555 1_555
C3 H6 1_555 1_555
C4 N3 1_555 1_555
C5 C4 1_555 1_555
H7 C5 1_555 1_555
C6 N4 1_555 1_555
H8 C6 1_555 1_555
C7 N5 1_555 1_555
H9 C7 1_555 1_555
C8 N7 1_555 1_555
H10 C8 1_555 1_555
C9 N9 1_555 1_555
H11 C9 1_555 1_555
C10 N6 1_555 1_555
C11 C10 1_555 1_555
H12 C11 1_555 1_555
C12 C11 1_555 1_555
H13 C12 1_555 1_555
C13 N9 1_555 1_555
C14 C13 1_555 1_555
H14 C14 1_555 1_555
C15 C10 1_555 1_555
H15 C15 1_555 1_555
C16 N10 1_555 1_555
H16 C16 1_555 1_555
C17 N11 1_555 1_555
H17 C17 1_555 1_555
C18 H18 1_555 1_555
C19 N12 1_555 1_555
C20 C19 1_555 1_555
H19 C20 1_555 1_555
C21 N13 1_555 1_555
H20 C21 1_555 1_555
C22 N14 1_555 1_555
H21 C22 1_555 1_555
C23 H22 1_555 1_555
C24 N15 1_555 1_555
C25 C24 1_555 1_555
H23 C25 1_555 1_555
S1 O3 1_555 1_555
O4 S1 1_555 1_555
O5 S1 1_555 1_555
C26 S1 1_555 1_555
F1 C26 1_555 1_555
F2 C26 1_555 1_555
F3 C26 1_555 1_555
S2 O6 1_555 1_555
O7 S2 1_555 1_555
O8 S2 1_555 1_555
C27 S2 1_555 1_555
F4 C27 1_555 1_555
F5 C27 1_555 1_555
F6 C27 1_555 1_555
S3 O9 1_555 1_555
O10 S3 1_555 1_555
O12 S3 1_555 1_555
C28 S3 1_555 1_555
F7 C28 1_555 1_555
F9 C28 1_555 1_555
F11 C28 1_555 1_555
O13 H24 1_555 1_555
H25 O13 1_555 1_555
Cu1_2 N1A 1_555 1_555
Cu2A O1A 1_555 1_555
Cu2A_2 N2A 1_555 1_555
Cu2A_3 N10A 1_555 1_555
Cu2A_4 N14A 1_555 1_555
Cu3_2 N11A 1_555 1_555
Cu3_3 N13A 1_555 1_555
O1A Cu1 1_555 1_555
H1A O1A 1_555 1_555
O2A Cu3 1_555 1_555
H2A O2A 1_555 1_555
H3A O2A 1_555 1_555
N1A N2A 1_555 1_555
N1A_2 Cu1 1_555 1_555
N2A C2A 1_555 1_555
N2A_2 Cu2A 1_555 1_555
N3A C1A 1_555 1_555
N4A Cu1 1_555 1_555
N5A Cu2A 1_555 1_555
N6A C6A 1_555 1_555
N7A N8A 1_555 1_555
N8A C9A 1_555 1_555
N9A C8A 1_555 1_555
N10A N11A 1_555 1_555
N10A_2 Cu2A 1_555 1_555
N11A C17A 1_555 1_555
N11A_2 Cu3 1_555 1_555
N12A C16A 1_555 1_555
N13A N14A 1_555 1_555
N13A_2 Cu3 1_555 1_555
N14A C22A 1_555 1_555
N14A_2 Cu2A 1_555 1_555
N15A C21A 1_555 1_555
C1A N1A 1_555 1_555
H4A C1A 1_555 1_555
C2A N3A 1_555 1_555
H5A C2A 1_555 1_555
C3A C5 1_555 1_555
H6A C3A 1_555 1_555
C4A N3A 1_555 1_555
C5A C3 1_555 1_555
H7A C5A 1_555 1_555
C6A N4A 1_555 1_555
H8A C6A 1_555 1_555
C7A N5A 1_555 1_555
H9A C7A 1_555 1_555
C8A N7A 1_555 1_555
H10A C8A 1_555 1_555
C9A N9A 1_555 1_555
H11A C9A 1_555 1_555
C10A N6A 1_555 1_555
C11A C10A 1_555 1_555
H12A C11A 1_555 1_555
C12A C11A 1_555 1_555
H13A C12A 1_555 1_555
C13A N9A 1_555 1_555
C14A C13A 1_555 1_555
H14A C14A 1_555 1_555
C15A C10A 1_555 1_555
H15A C15A 1_555 1_555
C16A N10A 1_555 1_555
H16A C16A 1_555 1_555
C17A N12A 1_555 1_555
H17A C17A 1_555 1_555
C18A C20 1_555 1_555
H18A C18A 1_555 1_555
C19A N12A 1_555 1_555
C20A C18 1_555 1_555
H19A C20A 1_555 1_555
C21A N13A 1_555 1_555
H20A C21A 1_555 1_555
C22A N15A 1_555 1_555
H21A C22A 1_555 1_555
C23A C25 1_555 1_555
H22A C23A 1_555 1_555
C24A N15A 1_555 1_555
C25A C23 1_555 1_555
H23A C25A 1_555 1_555
N1 N2 1_555 1_555
N3 C2 1_555 1_555
N4 N5 1_555 1_555
N6 C7 1_555 1_555
N10 N11 1_555 1_555
N12 C17 1_555 1_555
N13 N14 1_555 1_555
N15 C22 1_555 1_555
C3 C4 1_555 1_555
C12 C13 1_555 1_555
C14 C15 1_555 1_555
C18 C19 1_555 1_555
C23 C24 1_555 1_555
N1A_2 N2A_2 1_555 1_555
N4A N5A 1_555 1_555
N6A C7A 1_555 1_555
C3A C4A 1_555 1_555
C4A C5A 1_555 1_555
C12A C13A 1_555 1_555
C14A C15A 1_555 1_555
C18A C19A 1_555 1_555
C19A C20A 1_555 1_555
C23A C24A 1_555 1_555
C24A C25A 1_555 1_555

#END
