
#######################################################################
#
#                 Cambridge Crystallographic Data Centre
#                                CCDC 
#
#######################################################################
#
# If this CIF has been generated from an entry in the Cambridge 
# Structural Database, then it will include bibliographic, chemical, 
# crystal, experimental, refinement or atomic coordinate data resulting 
# from the CCDC's data processing and validation procedures.
#
#######################################################################

data_AFOYOK
_chemical_formula_moiety         'C36 H14 Cu9 N24 O1'
_symmetry_cell_setting           orthorhombic
_symmetry_space_group_name_H-M   'C m c m'
_symmetry_Int_Tables_number      63
_space_group_name_Hall           '-C 2c 2'
loop_
_symmetry_equiv_pos_site_id
_symmetry_equiv_pos_as_xyz
1 x,y,z
2 1/2+x,1/2+y,z
3 -x,-y,1/2+z
4 -x,y,1/2-z
5 x,-y,-z
6 1/2-x,1/2-y,1/2+z
7 1/2-x,1/2+y,1/2-z
8 1/2+x,1/2-y,-z
9 -x,-y,-z
10 1/2-x,1/2-y,-z
11 x,y,1/2-z
12 x,-y,1/2+z
13 -x,y,z
14 1/2+x,1/2+y,1/2-z
15 1/2+x,1/2-y,1/2+z
16 1/2-x,1/2+y,z
_cell_length_a                   25.822(2)
_cell_length_b                   7.7119(7)
_cell_length_c                   25.1892(19)
_cell_angle_alpha                90
_cell_angle_beta                 90
_cell_angle_gamma                90
_cell_volume                     5016.09
loop_
_atom_site_label
_atom_site_type_symbol
_atom_site_fract_x
_atom_site_fract_y
_atom_site_fract_z
O1 O 0.17462(18) 0.5327(4) 0.36519(17)
Cu1 Cu 0.2500 0.2500 0.5000
N1 N 0.21661(7) 0.1149(3) 0.43981(7)
N2 N 0.21024(8) -0.0584(3) 0.43969(8)
N3 N 0.31190(7) 0.0879(3) 0.50002(7)
C1 C 0.20484(9) 0.1787(3) 0.39265(8)
C2 C 0.19113(9) 0.0441(3) 0.36215(9)
C3 C 0.19461(9) -0.1021(3) 0.39170(9)
C4 C 0.18401(10) 0.0503(4) 0.30484(10)
C5 C 0.16616(18) -0.0892(5) 0.27782(12)
H3 H 0.1536 -0.1874 0.2966
C6 C 0.19884(18) 0.1952(5) 0.27743(12)
H4 H 0.2092 0.2962 0.2962
C7 C 0.36020(9) 0.1423(3) 0.50001(10)
C8 C 0.39084(13) 0.0000 0.5000
C9 C 0.44708(15) 0.0000 0.5000
C10 C 0.47318(16) 0.1124(7) 0.5329(2)
H6 H 0.4547 0.1904 0.5556
Cu1J Cu 0.2500 0.2500 0.0000
Cu1O Cu 0.2500 -0.2500 0.5000
Cu1K Cu 0.2500 -0.2500 0.0000
Cu1L Cu 0.7500 0.2500 0.5000
Cu1A Cu 0.7500 -0.2500 0.5000
Cu1O_2 Cu 0.2500 0.7500 0.5000
Cu1J_2 Cu 0.2500 0.2500 1.0000
Cu1K_2 Cu 0.2500 0.7500 1.0000
N1J N 0.21661(7) 0.1149(3) 0.06019(7)
N1I N 0.28339(7) 0.3851(3) 0.56019(7)
N1E N 0.28339(7) 0.3851(3) 0.93981(7)
N1E_2 N 0.28339(7) 0.3851(3) -0.06019(7)
N1O N 0.28339(7) -0.3851(3) 0.43981(7)
N1D N 0.21661(7) -0.1149(3) 0.56019(7)
N2J N 0.21024(8) -0.0584(3) 0.06031(8)
N2I N 0.28976(8) 0.5584(3) 0.56031(8)
N2E N 0.28976(8) 0.5584(3) 0.93969(8)
N2O N 0.28976(8) 0.4416(3) 0.43969(8)
N2D N 0.21024(8) 0.0584(3) 0.56031(8)
N2K N 0.21024(8) 0.0584(3) -0.06031(8)
N2F N 0.28976(8) 0.4416(3) 0.06031(8)
N2I_2 N 0.28976(8) -0.4416(3) 0.56031(8)
N3D N 0.31190(7) -0.0879(3) 0.49998(7)
N3L N 0.68810(7) 0.0879(3) 0.50002(7)
N3H N 0.68810(7) -0.0879(3) 0.49998(7)
N3I N 0.18810(7) 0.4121(3) 0.49998(7)
N3J N 0.31190(7) 0.0879(3) -0.00002(7)
N3E N 0.18810(7) 0.4121(3) 0.00002(7)
N3O N 0.18810(7) -0.4121(3) 0.50002(7)
C1J C 0.20484(9) 0.1787(3) 0.10735(8)
C1I C 0.29516(9) 0.3213(3) 0.60735(8)
C1E C 0.29516(9) 0.3213(3) 0.89265(8)
C2J C 0.19113(9) 0.0441(3) 0.13785(9)
C2I C 0.30887(9) 0.4559(3) 0.63785(9)
C2E C 0.30887(9) 0.4559(3) 0.86215(9)
C3J C 0.19461(9) -0.1021(3) 0.10830(9)
C3I C 0.30539(9) 0.6021(3) 0.60830(9)
C3E C 0.30539(9) 0.6021(3) 0.89170(9)
C4J C 0.18401(10) 0.0503(4) 0.19516(10)
C4I C 0.31599(10) 0.4497(4) 0.69516(10)
C4E C 0.31599(10) 0.4497(4) 0.80484(10)
C5J C 0.16616(18) -0.0892(5) 0.22218(12)
C5I C 0.33384(18) 0.5892(5) 0.72218(12)
C5E C 0.33384(18) 0.5892(5) 0.77782(12)
H3J H 0.1536 -0.1874 0.2034
H3I H 0.3464 0.6874 0.7034
H3E H 0.3464 0.6874 0.7966
C6J C 0.19884(18) 0.1952(5) 0.22257(12)
C6I C 0.30116(18) 0.3048(5) 0.72257(12)
C6E C 0.30116(18) 0.3048(5) 0.77743(12)
H4J H 0.2092 0.2962 0.2038
H4I H 0.2908 0.2038 0.7038
H4E H 0.2908 0.2038 0.7962
C7D C 0.36020(9) -0.1423(3) 0.49999(10)
C7L C 0.63980(9) 0.1423(3) 0.50001(10)
C7H C 0.63980(9) -0.1423(3) 0.49999(10)
C8L C 0.60916(13) 0.0000 0.5000
C9L C 0.55292(15) 0.0000 0.5000
C10L C 0.52682(16) 0.1124(7) 0.5329(2)
C10H C 0.52682(16) -0.1124(7) 0.4671(2)
C10D C 0.47318(16) -0.1124(7) 0.4671(2)
H6D H 0.4547 -0.1904 0.4444
H6H H 0.5453 -0.1904 0.4444
H6L H 0.5453 0.1904 0.5556
loop_
_geom_bond_atom_site_label_1
_geom_bond_atom_site_label_2
_geom_bond_site_symmetry_1
_geom_bond_site_symmetry_2
Cu1 N1 1_555 1_555
N1 N2 1_555 1_555
N2 C3 1_555 1_555
N3 Cu1 1_555 1_555
C1 N1 1_555 1_555
C2 C1 1_555 1_555
C3 C2 1_555 1_555
C4 C2 1_555 1_555
C5 C4 1_555 1_555
H3 C5 1_555 1_555
C6 C4 1_555 1_555
H4 C6 1_555 1_555
C7 N3 1_555 1_555
C8 C7 1_555 1_555
C9 C8 1_555 1_555
C10 C9 1_555 1_555
H6 C10 1_555 1_555
Cu1J N1J 1_555 1_555
Cu1O N2 1_555 1_555
Cu1K N2J 1_555 1_555
Cu1L N3L 1_555 1_555
Cu1A N3H 1_555 1_555
Cu1O_2 N2I 1_555 1_555
Cu1J_2 N1E 1_555 1_555
Cu1K_2 N2E 1_555 1_555
N1J N2J 1_555 1_555
N1I Cu1 1_555 1_555
N1E N2E 1_555 1_555
N1E_2 Cu1J 1_555 1_555
N1O Cu1O 1_555 1_555
N1D Cu1O 1_555 1_555
N2J C3J 1_555 1_555
N2I N1I 1_555 1_555
N2E C3E 1_555 1_555
N2O Cu1 1_555 1_555
N2D Cu1 1_555 1_555
N2K Cu1J 1_555 1_555
N2F Cu1J 1_555 1_555
N2I_2 Cu1O 1_555 1_555
N3D N3 1_555 1_555
N3L N3H 1_555 1_555
N3H C7H 1_555 1_555
N3I Cu1 1_555 1_555
N3J Cu1J 1_555 1_555
N3E Cu1J 1_555 1_555
N3O Cu1O 1_555 1_555
C1J N1J 1_555 1_555
C1I N1I 1_555 1_555
C1E N1E 1_555 1_555
C2J C1J 1_555 1_555
C2I C1I 1_555 1_555
C2E C1E 1_555 1_555
C3J C2J 1_555 1_555
C3I N2I 1_555 1_555
C3E C2E 1_555 1_555
C4J C2J 1_555 1_555
C4I C2I 1_555 1_555
C4E C2E 1_555 1_555
C5J C5 1_555 1_555
C5I C4I 1_555 1_555
C5E C4E 1_555 1_555
H3J C5J 1_555 1_555
H3I C5I 1_555 1_555
H3E C5E 1_555 1_555
C6J C6 1_555 1_555
C6I C4I 1_555 1_555
C6E C4E 1_555 1_555
H4J C6J 1_555 1_555
H4I C6I 1_555 1_555
H4E C6E 1_555 1_555
C7D C8 1_555 1_555
C7L N3L 1_555 1_555
C7H C8L 1_555 1_555
C8L C7L 1_555 1_555
C9L C8L 1_555 1_555
C10L C10 1_555 1_555
C10H C9L 1_555 1_555
C10D C9 1_555 1_555
H6D C10D 1_555 1_555
H6H C10H 1_555 1_555
H6L C10L 1_555 1_555
Cu1O N3D 1_555 1_555
N3D C7D 1_555 1_555
C2I C3I 1_555 1_555
C4J C5J 1_555 1_555
C4J C6J 1_555 1_555
C5I C5E 1_555 1_555
C6I C6E 1_555 1_555
C9L C10L 1_555 1_555
C10H C10D 1_555 1_555

#END
