
#######################################################################
#
#                 Cambridge Crystallographic Data Centre
#                                CCDC 
#
#######################################################################
#
# If this CIF has been generated from an entry in the Cambridge 
# Structural Database, then it will include bibliographic, chemical, 
# crystal, experimental, refinement or atomic coordinate data resulting 
# from the CCDC's data processing and validation procedures.
#
#######################################################################

data_LUSQOH
_chemical_formula_moiety         '(C60 H112 Cu3 N6 O23)n'
_symmetry_cell_setting           hexagonal
_symmetry_space_group_name_H-M   'P 64 2 2'
_symmetry_Int_Tables_number      181
_space_group_name_Hall           'P 64 2 (0 0 2)'
loop_
_symmetry_equiv_pos_site_id
_symmetry_equiv_pos_as_xyz
1 x,y,z
2 x-y,x,2/3+z
3 -y,x-y,1/3+z
4 -x,-y,z
5 -x+y,-x,2/3+z
6 y,-x+y,1/3+z
7 x-y,-y,-z
8 -x,-x+y,2/3-z
9 y,x,1/3-z
10 -y,-x,1/3-z
11 -x+y,y,-z
12 x,x-y,2/3-z
_cell_length_a                   27.0118(2)
_cell_length_b                   27.0118(2)
_cell_length_c                   25.0254(3)
_cell_angle_alpha                90
_cell_angle_beta                 90
_cell_angle_gamma                120
_cell_volume                     15813.2
loop_
_atom_site_label
_atom_site_type_symbol
_atom_site_fract_x
_atom_site_fract_y
_atom_site_fract_z
C1 C 0.62380(19) -0.1163(2) -0.24421(18)
C2 C 0.6274(2) -0.0842(2) -0.19240(18)
H1 H 0.6560 -0.0437 -0.1968
C3 C 0.5686(3) -0.0900(3) -0.1815(2)
H2 H 0.5419 -0.1292 -0.1715
H3 H 0.5547 -0.0819 -0.2142
C4 C 0.5697(4) -0.0494(4) -0.1367(2)
H4 H 0.5870 -0.0558 -0.1050
C5 C 0.5106(5) -0.0649(5) -0.1225(4)
H5 H 0.4892 -0.1047 -0.1133
H6 H 0.4928 -0.0576 -0.1524
H7 H 0.5113 -0.0423 -0.0925
C6 C 0.6060(5) 0.0135(4) -0.1519(3)
H8 H 0.6438 0.0216 -0.1615
H9 H 0.6083 0.0369 -0.1221
H10 H 0.5889 0.0217 -0.1818
C7 C 0.7064(2) -0.0797(2) -0.1391(2)
H11 H 0.7240 -0.0846 -0.1709
H12 H 0.7140 -0.0985 -0.1098
C8 C 0.7342(2) -0.01627(19) -0.12669(19)
C9 C 0.7226(3) 0.0018(2) -0.0790(2)
H13 H 0.6991 -0.0253 -0.0540
C10 C 0.7706(3) 0.0243(2) -0.1628(2)
H14 H 0.7794 0.0127 -0.1947
C11 C 0.7451(3) 0.0598(2) -0.0674(2)
H15 H 0.7363 0.0710 -0.0354
C12 C 0.7946(3) 0.0831(2) -0.1520(2)
H16 H 0.8192 0.1101 -0.1765
C13 C 0.7811(2) 0.1007(2) -0.10452(19)
C14 C 0.8049(2) 0.1632(2) -0.0925(2)
H17 H 0.8246 0.1852 -0.1240
H18 H 0.7734 0.1698 -0.0853
C15 C 0.9450(3) 0.2449(3) -0.0755(3)
C16 C 0.8995(2) 0.1853(2) -0.0568(2)
H19 H 0.8934 0.1575 -0.0849
C17 C 0.9227(3) 0.1711(3) -0.0071(3)
H20 H 0.9623 0.1822 -0.0133
H21 H 0.9217 0.1938 0.0225
C18 C 0.7683(3) 0.2770(2) -0.0145(2)
C19 C 0.8137(3) 0.3386(2) -0.0296(2)
H22 H 0.7970 0.3549 -0.0538
C20 C 0.8338(3) 0.3737(2) 0.0216(3)
H23 H 0.8006 0.3646 0.0435
H24 H 0.8575 0.3626 0.0414
C21 C 0.8673(3) 0.4381(3) 0.0125(4)
H25 H 0.8993 0.4464 -0.0114
C22 C 0.8918(6) 0.4687(4) 0.0642(5)
H26 H 0.9131 0.5091 0.0579
H27 H 0.9167 0.4564 0.0790
H28 H 0.8614 0.4601 0.0889
C23 C 0.8318(6) 0.4608(4) -0.0136(7)
H29 H 0.8162 0.4409 -0.0466
H30 H 0.8555 0.5009 -0.0206
H31 H 0.8012 0.4549 0.0099
C24 C 0.8540(3) 0.3302(2) -0.1166(2)
H32 H 0.8844 0.3254 -0.1319
H33 H 0.8180 0.2959 -0.1241
C25 C 0.8542(2) 0.3799(2) -0.14278(19)
C26 C 0.9052(2) 0.4292(2) -0.15468(18)
H34 H 0.9398 0.4311 -0.1466
C27 C 0.8032(2) 0.3788(3) -0.1560(3)
H35 H 0.7685 0.3456 -0.1500
O1 O 0.62777(15) -0.16134(14) -0.23986(12)
O2 O 0.61839(16) -0.09668(15) -0.28666(12)
O3 O 0.93483(17) 0.28587(15) -0.06799(15)
O4 O 0.9887(3) 0.2501(3) -0.0963(3)
O5 O 0.78523(15) 0.24053(13) -0.01097(14)
O6 O 0.71940(18) 0.26720(18) -0.0036(2)
O7 O 0.5283(2) -0.23583(12) -0.1667
Cu1 Cu 0.62195(4) -0.18902(2) -0.1667
Cu2 Cu 0.86294(3) 0.26566(3) -0.03297(3)
N1 N 0.64454(18) -0.10812(16) -0.14741(15)
H36 H 0.6267 -0.1075 -0.1168
N2 N 0.84512(18) 0.18456(16) -0.04649(15)
H37 H 0.8278 0.1627 -0.0172
N3 N 0.8622(2) 0.33693(17) -0.05689(16)
H38 H 0.8960 0.3687 -0.0488
C28 C 0.9149(5) 0.0993(4) 0.0614(3)
H39 H 0.8938 0.0597 0.0714
H40 H 0.9121 0.1222 0.0892
H41 H 0.9544 0.1104 0.0561
C29 C 0.8901(5) 0.1083(3) 0.0089(3)
H42 H 0.8485 0.0915 0.0091
C30 C 0.9139(8) 0.0803(8) -0.0358(7)
H43 H 0.8958 0.0397 -0.0302
H44 H 0.9545 0.0971 -0.0321
H45 H 0.9051 0.0877 -0.0710
C18K C 0.7683(3) 0.4913(4) -0.3188(2)
C19K C 0.8137(3) 0.4751(4) -0.3037(2)
H22K H 0.7970 0.4421 -0.2795
C20K C 0.8338(3) 0.4601(4) -0.3549(3)
H23K H 0.8006 0.4360 -0.3768
H24K H 0.8575 0.4949 -0.3747
C21K C 0.8673(3) 0.4292(4) -0.3458(4)
H25K H 0.8993 0.4529 -0.3219
C22K C 0.8918(6) 0.4231(7) -0.3975(5)
H26K H 0.9131 0.4040 -0.3912
H27K H 0.9167 0.4603 -0.4123
H28K H 0.8614 0.4013 -0.4222
C23K C 0.8318(6) 0.3710(7) -0.3197(7)
H29K H 0.8162 0.3753 -0.2867
H30K H 0.8555 0.3546 -0.3127
H31K H 0.8012 0.3463 -0.3432
C24K C 0.8540(3) 0.5238(4) -0.2167(2)
H32K H 0.8844 0.5590 -0.2014
H33K H 0.8180 0.5221 -0.2092
C25K C 0.8542(2) 0.4743(3) -0.19055(19)
C26K C 0.9052(2) 0.4760(3) -0.17865(18)
H34K H 0.9398 0.5087 -0.1867
C27K C 0.8032(2) 0.4244(4) -0.1773(3)
H35K H 0.7685 0.4229 -0.1833
O5K O 0.78523(15) 0.54470(20) -0.32236(14)
O6K O 0.71940(18) 0.45220(25) -0.3297(2)
N3K N 0.8622(2) 0.52527(26) -0.27644(16)
H38K H 0.8960 0.5273 -0.2845
C1K C 0.62380(19) -0.25990(28) -0.08912(18)
C2K C 0.6274(2) -0.2884(3) -0.14093(18)
H1K H 0.6560 -0.3003 -0.1365
C3K C 0.5686(3) -0.3414(4) -0.1518(2)
H2K H 0.5419 -0.3289 -0.1618
H3K H 0.5547 -0.3634 -0.1191
C4K C 0.5697(4) -0.3809(6) -0.1966(2)
H4K H 0.5870 -0.3572 -0.2283
C5K C 0.5106(5) -0.4245(7) -0.2108(4)
H5K H 0.4892 -0.4061 -0.2200
H6K H 0.4928 -0.4496 -0.1809
H7K H 0.5113 -0.4464 -0.2408
C6K C 0.6060(5) -0.4075(6) -0.1814(3)
H8K H 0.6438 -0.3778 -0.1718
H9K H 0.6083 -0.4286 -0.2112
H10K H 0.5889 -0.4328 -0.1515
C7K C 0.7064(2) -0.2139(3) -0.1942(2)
H11K H 0.7240 -0.1914 -0.1624
H12K H 0.7140 -0.1875 -0.2235
C8K C 0.7342(2) -0.24953(28) -0.20664(19)
C9K C 0.7226(3) -0.2792(4) -0.2543(2)
H13K H 0.6991 -0.2756 -0.2793
C10K C 0.7706(3) -0.2537(4) -0.1705(2)
H14K H 0.7794 -0.2333 -0.1386
C11K C 0.7451(3) -0.3147(4) -0.2659(2)
H15K H 0.7363 -0.3347 -0.2979
C12K C 0.7946(3) -0.2885(4) -0.1813(2)
H16K H 0.8192 -0.2909 -0.1568
C13K C 0.7811(2) -0.3196(3) -0.22881(19)
C14K C 0.8049(2) -0.3583(3) -0.2408(2)
H17K H 0.8246 -0.3606 -0.2093
H18K H 0.7734 -0.3964 -0.2480
C15K C 0.9450(3) -0.2999(4) -0.2578(3)
C16K C 0.8995(2) -0.2858(3) -0.2765(2)
H19K H 0.8934 -0.2641 -0.2484
C17K C 0.9227(3) -0.2484(4) -0.3262(3)
H20K H 0.9623 -0.2199 -0.3200
H21K H 0.9217 -0.2721 -0.3558
O1K O 0.62777(15) -0.21089(21) -0.09347(12)
O2K O 0.61839(16) -0.28493(22) -0.04667(12)
O3K O 0.93483(17) -0.35104(23) -0.26534(15)
O4K O 0.9887(3) -0.2614(4) -0.2370(3)
Cu2K Cu 0.86294(3) -0.40272(4) -0.30036(3)
N1K N 0.64454(18) -0.24734(24) -0.18592(15)
H36K H 0.6267 -0.2658 -0.2165
N2K N 0.84512(18) -0.33944(24) -0.28684(15)
H37K H 0.8278 -0.3349 -0.3161
C28K C 0.9149(5) -0.1844(6) -0.3947(3)
H39K H 0.8938 -0.1659 -0.4047
H40K H 0.9121 -0.2101 -0.4225
H41K H 0.9544 -0.1560 -0.3894
C29K C 0.8901(5) -0.2182(6) -0.3422(3)
H42K H 0.8485 -0.2430 -0.3424
C30K C 0.9139(8) -0.1664(11) -0.2975(7)
H43K H 0.8958 -0.1439 -0.3031
H44K H 0.9545 -0.1426 -0.3012
H45K H 0.9051 -0.1826 -0.2623
O2E O 0.90332(15) 0.28493(22) 0.04667(12)
O2H O 0.90332(15) -0.38161(16) -0.38001(12)
O5K_2 O 0.78523(15) -0.45530(20) -0.32236(14)
Cu2A Cu 0.59728(4) -0.13706(3) -0.36630(3)
Cu2F Cu 0.59728(4) -0.26566(3) 0.03297(3)
Cu2K_2 Cu 0.86294(3) 0.59728(4) -0.30036(3)
N3K_2 N 0.8622(2) -0.47473(26) -0.27644(16)
O8 O 0.4624(4) -0.3208(4) -0.2342(4)
O9 O 0.6242(3) 0.0098(2) -0.2958(2)
O10 O 0.72864(17) 0.12899(15) 0.03744(15)
O11 O 0.66698(18) 0.3340(4) 0.0000
O12 O 0.7104(6) 0.3927(7) 0.0963(6)
O13 O 0.9878(2) 0.44247(17) -0.04230(17)
O14 O 1.0200(2) 0.38733(19) -0.11537(18)
O15 O 1.1293(4) 0.4104(5) -0.0807(5)
O16 O 0.7306(8) 0.1085(6) -0.3041(4)
O17 O 0.8965(5) 0.2123(9) -0.2105(6)
loop_
_geom_bond_atom_site_label_1
_geom_bond_atom_site_label_2
_geom_bond_site_symmetry_1
_geom_bond_site_symmetry_2
C1 C2 1_555 1_555
C2 H1 1_555 1_555
C3 C2 1_555 1_555
H2 C3 1_555 1_555
H3 C3 1_555 1_555
C4 C3 1_555 1_555
H4 C4 1_555 1_555
C5 C4 1_555 1_555
H5 C5 1_555 1_555
H6 C5 1_555 1_555
H7 C5 1_555 1_555
C6 C4 1_555 1_555
H8 C6 1_555 1_555
H9 C6 1_555 1_555
H10 C6 1_555 1_555
C7 H11 1_555 1_555
H12 C7 1_555 1_555
C8 C7 1_555 1_555
C9 C8 1_555 1_555
H13 C9 1_555 1_555
C10 C8 1_555 1_555
H14 C10 1_555 1_555
C11 C9 1_555 1_555
H15 C11 1_555 1_555
C12 C10 1_555 1_555
H16 C12 1_555 1_555
C13 C11 1_555 1_555
C14 C13 1_555 1_555
H17 C14 1_555 1_555
H18 C14 1_555 1_555
C15 C16 1_555 1_555
C16 H19 1_555 1_555
C17 C16 1_555 1_555
H20 C17 1_555 1_555
H21 C17 1_555 1_555
C18 C19 1_555 1_555
C19 H22 1_555 1_555
C20 C19 1_555 1_555
H23 C20 1_555 1_555
H24 C20 1_555 1_555
C21 C20 1_555 1_555
H25 C21 1_555 1_555
C22 C21 1_555 1_555
H26 C22 1_555 1_555
H27 C22 1_555 1_555
H28 C22 1_555 1_555
C23 C21 1_555 1_555
H29 C23 1_555 1_555
H30 C23 1_555 1_555
H31 C23 1_555 1_555
C24 H32 1_555 1_555
H33 C24 1_555 1_555
C25 C24 1_555 1_555
C26 C25 1_555 1_555
H34 C26 1_555 1_555
C27 C25 1_555 1_555
H35 C27 1_555 1_555
O1 C1 1_555 1_555
O2 C1 1_555 1_555
O3 C15 1_555 1_555
O4 C15 1_555 1_555
O5 C18 1_555 1_555
O6 C18 1_555 1_555
O7 Cu1 1_555 1_555
Cu1 O1 1_555 1_555
Cu2 O3 1_555 1_555
N1 C2 1_555 1_555
H36 N1 1_555 1_555
N2 C14 1_555 1_555
H37 N2 1_555 1_555
N3 C19 1_555 1_555
H38 N3 1_555 1_555
C28 H39 1_555 1_555
H40 C28 1_555 1_555
H41 C28 1_555 1_555
C29 C17 1_555 1_555
H42 C29 1_555 1_555
C30 C29 1_555 1_555
H43 C30 1_555 1_555
H44 C30 1_555 1_555
H45 C30 1_555 1_555
C18K C19K 1_555 1_555
C19K H22K 1_555 1_555
C20K C19K 1_555 1_555
H23K C20K 1_555 1_555
H24K C20K 1_555 1_555
C21K C20K 1_555 1_555
H25K C21K 1_555 1_555
C22K C21K 1_555 1_555
H26K C22K 1_555 1_555
H27K C22K 1_555 1_555
H28K C22K 1_555 1_555
C23K C21K 1_555 1_555
H29K C23K 1_555 1_555
H30K C23K 1_555 1_555
H31K C23K 1_555 1_555
C24K H32K 1_555 1_555
H33K C24K 1_555 1_555
C25K C24K 1_555 1_555
C26K C26 1_555 1_555
H34K C26K 1_555 1_555
C27K C27 1_555 1_555
H35K C27K 1_555 1_555
O5K C18K 1_555 1_555
O6K C18K 1_555 1_555
N3K C19K 1_555 1_555
H38K N3K 1_555 1_555
C1K C2K 1_555 1_555
C2K H1K 1_555 1_555
C3K C2K 1_555 1_555
H2K C3K 1_555 1_555
H3K C3K 1_555 1_555
C4K C3K 1_555 1_555
H4K C4K 1_555 1_555
C5K C4K 1_555 1_555
H5K C5K 1_555 1_555
H6K C5K 1_555 1_555
H7K C5K 1_555 1_555
C6K C4K 1_555 1_555
H8K C6K 1_555 1_555
H9K C6K 1_555 1_555
H10K C6K 1_555 1_555
C7K H11K 1_555 1_555
H12K C7K 1_555 1_555
C8K C7K 1_555 1_555
C9K C8K 1_555 1_555
H13K C9K 1_555 1_555
C10K C8K 1_555 1_555
H14K C10K 1_555 1_555
C11K C9K 1_555 1_555
H15K C11K 1_555 1_555
C12K C10K 1_555 1_555
H16K C12K 1_555 1_555
C13K C11K 1_555 1_555
C14K C13K 1_555 1_555
H17K C14K 1_555 1_555
H18K C14K 1_555 1_555
C15K C16K 1_555 1_555
C16K H19K 1_555 1_555
C17K C16K 1_555 1_555
H20K C17K 1_555 1_555
H21K C17K 1_555 1_555
O1K Cu1 1_555 1_555
O2K C1K 1_555 1_555
O3K C15K 1_555 1_555
O4K C15K 1_555 1_555
Cu2K O3K 1_555 1_555
N1K Cu1 1_555 1_555
H36K N1K 1_555 1_555
N2K C14K 1_555 1_555
H37K N2K 1_555 1_555
C28K H39K 1_555 1_555
H40K C28K 1_555 1_555
H41K C28K 1_555 1_555
C29K C17K 1_555 1_555
H42K C29K 1_555 1_555
C30K C29K 1_555 1_555
H43K C30K 1_555 1_555
H44K C30K 1_555 1_555
H45K C30K 1_555 1_555
O2E Cu2 1_555 1_555
O2H Cu2K 1_555 1_555
O5K_2 Cu2K 1_555 1_555
Cu2A O2 1_555 1_555
Cu2F O2K 1_555 1_555
Cu2K_2 O5K 1_555 1_555
N3K_2 Cu2K 1_555 1_555
C7 N1 1_555 1_555
C12 C13 1_555 1_555
C16 N2 1_555 1_555
C24 N3 1_555 1_555
O5 Cu2 1_555 1_555
Cu1 N1 1_555 1_555
Cu2 N2 1_555 1_555
Cu2 N3 1_555 1_555
C28 C29 1_555 1_555
C24K N3K 1_555 1_555
C25K C26K 1_555 1_555
C25K C27K 1_555 1_555
N3K Cu2K_2 1_555 1_555
C1K O1K 1_555 1_555
C2K N1K 1_555 1_555
C7K N1K 1_555 1_555
C12K C13K 1_555 1_555
C16K N2K 1_555 1_555
Cu2K N2K 1_555 1_555
C28K C29K 1_555 1_555

#END
