
#######################################################################
#
#                 Cambridge Crystallographic Data Centre
#                                CCDC 
#
#######################################################################
#
# If this CIF has been generated from an entry in the Cambridge 
# Structural Database, then it will include bibliographic, chemical, 
# crystal, experimental, refinement or atomic coordinate data resulting 
# from the CCDC's data processing and validation procedures.
#
#######################################################################

data_IKOPIJ
_chemical_formula_moiety         'C32 H20 Cu9 O26'
_symmetry_cell_setting           monoclinic
_symmetry_space_group_name_H-M   'C 2/c'
_symmetry_Int_Tables_number      15
_space_group_name_Hall           '-C 2yc'
loop_
_symmetry_equiv_pos_site_id
_symmetry_equiv_pos_as_xyz
1 x,y,z
2 -x,y,1/2-z
3 1/2+x,1/2+y,z
4 1/2-x,1/2+y,1/2-z
5 -x,-y,-z
6 x,-y,1/2+z
7 1/2-x,1/2-y,-z
8 1/2+x,1/2-y,1/2+z
_cell_length_a                   27.314(14)
_cell_length_b                   13.126(7)
_cell_length_c                   14.000(8)
_cell_angle_alpha                90
_cell_angle_beta                 96.143(10)
_cell_angle_gamma                90
_cell_volume                     4990.51
loop_
_atom_site_label
_atom_site_type_symbol
_atom_site_fract_x
_atom_site_fract_y
_atom_site_fract_z
_atom_site_U_iso_or_equiv
_atom_site_thermal_displace_type
Cu1 Cu 0.21095(3) -0.30960(5) 0.49679(6) 0.0179 Uani
Cu2 Cu 0.0000 0.32316(13) 0.7500 0.0635 Uani
O1 O 0.18906(19) -0.2044(4) 0.5839(4) 0.0359 Uani
O2 O 0.25507(19) -0.1014(4) 0.5902(4) 0.0396 Uani
O3 O 0.25147(17) 0.1232(4) 0.8930(4) 0.0325 Uani
O4 O 0.18609(18) 0.2254(4) 0.8868(4) 0.0337 Uani
O5 O 0.0948(3) 0.2441(6) 0.5636(6) 0.0751 Uani
O6 O 0.0572(3) 0.3120(6) 0.6782(8) 0.0882 Uani
O7 O -0.0395(3) 0.3230(6) 0.6325(7) 0.0817 Uani
O8 O -0.0713(4) 0.2551(8) 0.4899(7) 0.0998 Uani
O9 O 0.1446(2) -0.3960(5) 0.4935(6) 0.0565 Uani
H1 H 0.1193 -0.3541 0.5154 0.0680 Uiso
H2 H 0.1499 -0.4544 0.5346 0.0680 Uiso
O10 O -0.0138(15) 0.4936(17) 0.689(3) 0.0834 Uani
H3 H -0.0324 0.4919 0.6365 0.1000 Uiso
H4 H -0.0275 0.5288 0.7300 0.1000 Uiso
C1 C 0.2119(2) -0.1219(5) 0.6054(5) 0.0270 Uani
C2 C 0.1860(3) -0.0446(6) 0.6593(6) 0.0333 Uani
C3 C 0.2108(3) 0.0170(6) 0.7286(5) 0.0323 Uani
H5 H 0.2445 0.0095 0.7444 0.0380 Uiso
C4 C 0.1843(3) 0.0922(5) 0.7757(5) 0.0294 Uani
C5 C 0.1341(3) 0.1041(6) 0.7470(5) 0.0300 Uani
H6 H 0.1170 0.1553 0.7753 0.0360 Uiso
C6 C 0.1084(3) 0.0419(6) 0.6772(5) 0.0301 Uani
C7 C 0.1345(3) -0.0335(6) 0.6371(5) 0.0307 Uani
H7 H 0.1177 -0.0787 0.5941 0.0370 Uiso
C8 C 0.2102(3) 0.1497(6) 0.8569(5) 0.0291 Uani
C9 C 0.0547(3) 0.0535(6) 0.6481(6) 0.0364 Uani
C10 C 0.0256(3) -0.0339(7) 0.6412(6) 0.0406 Uani
H8 H 0.0401 -0.0974 0.6532 0.0490 Uiso
C11 C -0.0251(4) -0.0274(9) 0.6165(7) 0.0600 Uani
H9 H -0.0444 -0.0854 0.6188 0.0720 Uiso
C12 C -0.0458(4) 0.0603(9) 0.5899(7) 0.0577 Uani
H10 H -0.0788 0.0619 0.5650 0.0690 Uiso
C13 C -0.0187(3) 0.1510(8) 0.5990(6) 0.0472 Uani
C14 C 0.0322(3) 0.1455(7) 0.6259(6) 0.0411 Uani
C15 C 0.0626(4) 0.2379(8) 0.6184(8) 0.0543 Uani
C16 C -0.0460(4) 0.2460(9) 0.5690(9) 0.0703 Uani
Cu1A Cu -0.21095(3) -0.30960(5) 1.00321(6) 0.0179 Uani
O1A O -0.18906(19) -0.2044(4) 0.9161(4) 0.0359 Uani
O2A O -0.25507(19) -0.1014(4) 0.9098(4) 0.0396 Uani
O3A O -0.25147(17) 0.1232(4) 0.6070(4) 0.0325 Uani
O4A O -0.18609(18) 0.2254(4) 0.6132(4) 0.0337 Uani
O5A O -0.0948(3) 0.2441(6) 0.9364(6) 0.0751 Uani
O6A O -0.0572(3) 0.3120(6) 0.8218(8) 0.0882 Uani
O7A O 0.0395(3) 0.3230(6) 0.8675(7) 0.0817 Uani
O8A O 0.0713(4) 0.2551(8) 1.0101(7) 0.0998 Uani
O9A O -0.1446(2) -0.3960(5) 1.0065(6) 0.0565 Uani
H1A H -0.1193 -0.3541 0.9846 0.0680 Uiso
H2A H -0.1499 -0.4544 0.9654 0.0680 Uiso
O10A O 0.0138(15) 0.4936(17) 0.811(3) 0.0834 Uani
H3A H 0.0324 0.4919 0.8635 0.1000 Uiso
H4A H 0.0275 0.5288 0.7700 0.1000 Uiso
C1A C -0.2119(2) -0.1219(5) 0.8946(5) 0.0270 Uani
C2A C -0.1860(3) -0.0446(6) 0.8407(6) 0.0333 Uani
C3A C -0.2108(3) 0.0170(6) 0.7714(5) 0.0323 Uani
H5A H -0.2445 0.0095 0.7556 0.0380 Uiso
C4A C -0.1843(3) 0.0922(5) 0.7243(5) 0.0294 Uani
C5A C -0.1341(3) 0.1041(6) 0.7530(5) 0.0300 Uani
H6A H -0.1170 0.1553 0.7247 0.0360 Uiso
C6A C -0.1084(3) 0.0419(6) 0.8228(5) 0.0301 Uani
C7A C -0.1345(3) -0.0335(6) 0.8629(5) 0.0307 Uani
H7A H -0.1177 -0.0787 0.9059 0.0370 Uiso
C8A C -0.2102(3) 0.1497(6) 0.6431(5) 0.0291 Uani
C9A C -0.0547(3) 0.0535(6) 0.8519(6) 0.0364 Uani
C10A C -0.0256(3) -0.0339(7) 0.8588(6) 0.0406 Uani
H8A H -0.0401 -0.0974 0.8468 0.0490 Uiso
C11A C 0.0251(4) -0.0274(9) 0.8835(7) 0.0600 Uani
H9A H 0.0444 -0.0854 0.8812 0.0720 Uiso
C12A C 0.0458(4) 0.0603(9) 0.9101(7) 0.0577 Uani
H10A H 0.0788 0.0619 0.9350 0.0690 Uiso
C13A C 0.0187(3) 0.1510(8) 0.9010(6) 0.0472 Uani
C14A C -0.0322(3) 0.1455(7) 0.8741(6) 0.0411 Uani
C15A C -0.0626(4) 0.2379(8) 0.8816(8) 0.0543 Uani
C16A C 0.0460(4) 0.2460(9) 0.9310(9) 0.0703 Uani
Cu1B Cu -0.28905(3) 0.19040(5) 0.49679(6) 0.0179 Uani
Cu1C Cu 0.28905(3) 0.19040(5) 1.00321(6) 0.0179 Uani
Cu1D Cu -0.21095(3) 0.30960(5) 0.50321(6) 0.0179 Uani
Cu1E Cu 0.21095(3) 0.30960(5) 0.99679(6) 0.0179 Uani
Cu1F Cu 0.28905(3) -0.19040(5) 0.50321(6) 0.0179 Uani
Cu1G Cu -0.28905(3) -0.19040(5) 0.99679(6) 0.0179 Uani
O2F O 0.24493(19) -0.3986(4) 0.4098(4) 0.0396 Uani
O2G O -0.24493(19) -0.3986(4) 1.0902(4) 0.0396 Uani
O3B O -0.24853(17) -0.3768(4) 0.8930(4) 0.0325 Uani
O3C O 0.24853(17) -0.3768(4) 0.6070(4) 0.0325 Uani
O4D O -0.18609(18) -0.2254(4) 1.1132(4) 0.0337 Uani
O4E O 0.18609(18) -0.2254(4) 0.3868(4) 0.0337 Uani
loop_
_atom_site_aniso_label
_atom_site_aniso_U_11
_atom_site_aniso_U_22
_atom_site_aniso_U_33
_atom_site_aniso_U_23
_atom_site_aniso_U_13
_atom_site_aniso_U_12
Cu1 0.0133(5) 0.0168(5) 0.0227(5) 0.0003(3) -0.0023(3) 0.0004(3)
Cu2 0.0619(12) 0.0426(10) 0.0846(15) 0.000 0.0018(10) 0.000
O1 0.026(3) 0.033(3) 0.049(3) -0.014(2) 0.005(2) 0.001(2)
O2 0.029(3) 0.036(3) 0.053(3) -0.020(3) 0.001(2) -0.002(2)
O3 0.020(2) 0.037(3) 0.038(3) -0.018(2) -0.008(2) 0.000(2)
O4 0.025(3) 0.035(3) 0.039(3) -0.019(2) -0.006(2) 0.004(2)
O5 0.063(4) 0.075(5) 0.091(5) 0.015(4) 0.025(4) -0.005(4)
O6 0.073(5) 0.072(5) 0.125(7) -0.005(5) 0.035(5) -0.016(4)
O7 0.077(5) 0.073(5) 0.090(6) -0.001(4) -0.014(4) 0.032(4)
O8 0.081(5) 0.121(7) 0.091(6) 0.008(5) -0.020(5) 0.029(5)
O9 0.028(3) 0.046(3) 0.094(5) 0.008(3) 0.000(3) -0.010(3)
O10 0.086(9) 0.080(9) 0.083(10) 0.002(6) 0.004(6) -0.001(6)
C1 0.020(3) 0.028(3) 0.030(4) -0.006(3) -0.011(3) 0.002(3)
C2 0.032(4) 0.034(4) 0.033(4) -0.009(3) -0.001(3) 0.007(3)
C3 0.026(3) 0.037(4) 0.033(4) -0.009(3) -0.001(3) 0.006(3)
C4 0.031(4) 0.026(3) 0.032(4) -0.009(3) 0.007(3) -0.001(3)
C5 0.034(4) 0.028(3) 0.025(3) -0.004(3) -0.011(3) 0.004(3)
C6 0.032(4) 0.038(4) 0.019(3) -0.006(3) -0.003(3) 0.007(3)
C7 0.033(4) 0.035(4) 0.021(3) -0.009(3) -0.012(3) -0.001(3)
C8 0.028(4) 0.028(3) 0.032(4) -0.003(3) 0.007(3) -0.004(3)
C9 0.031(4) 0.045(4) 0.033(4) -0.017(3) 0.003(3) -0.003(3)
C10 0.042(4) 0.041(4) 0.038(4) -0.008(3) 0.001(4) -0.001(3)
C11 0.051(5) 0.068(6) 0.060(6) -0.014(5) 0.002(4) -0.014(5)
C12 0.040(5) 0.082(6) 0.048(5) -0.010(5) -0.010(4) -0.003(5)
C13 0.039(4) 0.064(5) 0.037(5) -0.007(4) -0.004(4) 0.012(4)
C14 0.032(4) 0.057(5) 0.033(4) -0.005(4) -0.002(3) 0.003(4)
C15 0.047(5) 0.060(5) 0.054(5) 0.008(5) -0.003(4) 0.005(4)
C16 0.061(6) 0.068(6) 0.079(7) 0.013(6) -0.006(5) 0.018(5)
Cu1A 0.0133 0.0168 0.0227 -0.0003 -0.0023 -0.0004
O1A 0.026 0.033 0.049 0.014 0.005 -0.001
O2A 0.029 0.036 0.053 0.02 0.001 0.002
O3A 0.02 0.037 0.038 0.018 -0.008 0
O4A 0.025 0.035 0.039 0.019 -0.006 -0.004
O5A 0.063 0.075 0.091 -0.015 0.025 0.005
O6A 0.073 0.072 0.125 0.005 0.035 0.016
O7A 0.077 0.073 0.09 0.001 -0.014 -0.032
O8A 0.081 0.121 0.091 -0.008 -0.02 -0.029
O9A 0.028 0.046 0.094 -0.008 0 0.01
O10A 0.086 0.08 0.083 -0.002 0.004 0.001
C1A 0.02 0.028 0.03 0.006 -0.011 -0.002
C2A 0.032 0.034 0.033 0.009 -0.001 -0.007
C3A 0.026 0.037 0.033 0.009 -0.001 -0.006
C4A 0.031 0.026 0.032 0.009 0.007 0.001
C5A 0.034 0.028 0.025 0.004 -0.011 -0.004
C6A 0.032 0.038 0.019 0.006 -0.003 -0.007
C7A 0.033 0.035 0.021 0.009 -0.012 0.001
C8A 0.028 0.028 0.032 0.003 0.007 0.004
C9A 0.031 0.045 0.033 0.017 0.003 0.003
C10A 0.042 0.041 0.038 0.008 0.001 0.001
C11A 0.051 0.068 0.06 0.014 0.002 0.014
C12A 0.04 0.082 0.048 0.01 -0.01 0.003
C13A 0.039 0.064 0.037 0.007 -0.004 -0.012
C14A 0.032 0.057 0.033 0.005 -0.002 -0.003
C15A 0.047 0.06 0.054 -0.008 -0.003 -0.005
C16A 0.061 0.068 0.079 -0.013 -0.006 -0.018
Cu1B 0.0133 0.0168 0.0227 0.0003 -0.0023 0.0004
Cu1C 0.0133 0.0168 0.0227 -0.0003 -0.0023 -0.0004
Cu1D 0.0133 0.0168 0.0227 0.0003 -0.0023 0.0004
Cu1E 0.0133 0.0168 0.0227 -0.0003 -0.0023 -0.0004
Cu1F 0.0133 0.0168 0.0227 0.0003 -0.0023 0.0004
Cu1G 0.0133 0.0168 0.0227 -0.0003 -0.0023 -0.0004
O2F 0.029 0.036 0.053 -0.02 0.001 -0.002
O2G 0.029 0.036 0.053 0.02 0.001 0.002
O3B 0.02 0.037 0.038 -0.018 -0.008 0
O3C 0.02 0.037 0.038 0.018 -0.008 0
O4D 0.025 0.035 0.039 -0.019 -0.006 0.004
O4E 0.025 0.035 0.039 0.019 -0.006 -0.004
loop_
_geom_bond_atom_site_label_1
_geom_bond_atom_site_label_2
_geom_bond_site_symmetry_1
_geom_bond_site_symmetry_2
Cu1 O1 1_555 1_555
Cu2 O6 1_555 1_555
O1 C1 1_555 1_555
O2 C1 1_555 1_555
O3 C8 1_555 1_555
O4 C8 1_555 1_555
O5 C15 1_555 1_555
O6 C15 1_555 1_555
O7 Cu2 1_555 1_555
O8 C16 1_555 1_555
O9 Cu1 1_555 1_555
H1 O9 1_555 1_555
H2 O9 1_555 1_555
O10 Cu2 1_555 1_555
H3 O10 1_555 1_555
H4 O10 1_555 1_555
C1 C2 1_555 1_555
C2 C3 1_555 1_555
C3 H5 1_555 1_555
C4 C3 1_555 1_555
C5 C4 1_555 1_555
H6 C5 1_555 1_555
C6 C5 1_555 1_555
C7 C2 1_555 1_555
H7 C7 1_555 1_555
C8 C4 1_555 1_555
C9 C6 1_555 1_555
C10 C9 1_555 1_555
H8 C10 1_555 1_555
C11 C10 1_555 1_555
H9 C11 1_555 1_555
C12 C11 1_555 1_555
H10 C12 1_555 1_555
C13 C12 1_555 1_555
C14 C9 1_555 1_555
C15 C14 1_555 1_555
C16 O7 1_555 1_555
Cu1A O1A 1_555 1_555
O1A C1A 1_555 1_555
O2A C1A 1_555 1_555
O3A C8A 1_555 1_555
O4A C8A 1_555 1_555
O5A C15A 1_555 1_555
O6A Cu2 1_555 1_555
O7A Cu2 1_555 1_555
O8A C16A 1_555 1_555
O9A Cu1A 1_555 1_555
H1A O9A 1_555 1_555
H2A O9A 1_555 1_555
O10A Cu2 1_555 1_555
H3A O10A 1_555 1_555
H4A O10A 1_555 1_555
C1A C2A 1_555 1_555
C2A C3A 1_555 1_555
C3A H5A 1_555 1_555
C4A C3A 1_555 1_555
C5A C4A 1_555 1_555
H6A C5A 1_555 1_555
C6A C5A 1_555 1_555
C7A C2A 1_555 1_555
H7A C7A 1_555 1_555
C8A C4A 1_555 1_555
C9A C6A 1_555 1_555
C10A C9A 1_555 1_555
H8A C10A 1_555 1_555
C11A C10A 1_555 1_555
H9A C11A 1_555 1_555
C12A C11A 1_555 1_555
H10A C12A 1_555 1_555
C13A C12A 1_555 1_555
C14A C9A 1_555 1_555
C15A O6A 1_555 1_555
C16A O7A 1_555 1_555
Cu1B O3A 1_555 1_555
Cu1C O3 1_555 1_555
Cu1D O4A 1_555 1_555
Cu1E O4 1_555 1_555
Cu1F Cu1 1_555 1_555
Cu1G Cu1A 1_555 1_555
O2F Cu1 1_555 1_555
O2G Cu1A 1_555 1_555
O3B Cu1A 1_555 1_555
O3C Cu1 1_555 1_555
O4D Cu1A 1_555 1_555
O4E Cu1 1_555 1_555
O2 Cu1F 1_555 1_555
C6 C7 1_555 1_555
C13 C14 1_555 1_555
C13 C16 1_555 1_555
O2A Cu1G 1_555 1_555
C6A C7A 1_555 1_555
C13A C14A 1_555 1_555
C13A C16A 1_555 1_555
C14A C15A 1_555 1_555
Cu1B Cu1D 1_555 1_555
Cu1C Cu1E 1_555 1_555

#END
