
#######################################################################
#
#                 Cambridge Crystallographic Data Centre
#                                CCDC 
#
#######################################################################
#
# If this CIF has been generated from an entry in the Cambridge 
# Structural Database, then it will include bibliographic, chemical, 
# crystal, experimental, refinement or atomic coordinate data resulting 
# from the CCDC's data processing and validation procedures.
#
#######################################################################

data_HUZSUR
_chemical_formula_moiety         '(C73 H77 K3 N6 O22 Zn2)n'
_symmetry_cell_setting           triclinic
_symmetry_space_group_name_H-M   'P -1'
_symmetry_Int_Tables_number      2
_space_group_name_Hall           '-P 1'
loop_
_symmetry_equiv_pos_site_id
_symmetry_equiv_pos_as_xyz
1 x,y,z
2 -x,-y,-z
_cell_length_a                   16.3656(18)
_cell_length_b                   17.979(2)
_cell_length_c                   19.232(2)
_cell_angle_alpha                65.452(2)
_cell_angle_beta                 66.275(2)
_cell_angle_gamma                69.154(2)
_cell_volume                     4589.7
loop_
_atom_site_label
_atom_site_type_symbol
_atom_site_fract_x
_atom_site_fract_y
_atom_site_fract_z
Zn1 Zn 1.61534(5) 0.20141(6) -0.03469(5)
Zn2 Zn 0.64495(5) 0.96427(5) 0.22754(5)
K1 K 0.82123(10) 1.05261(10) 0.03302(10)
K2 K 1.60370(11) 0.19414(11) 0.16970(10)
K3 K 1.0021(9) 1.0634(7) 0.0456(7)
C1 C 1.0506(4) 0.3950(4) 0.1047(4)
C2 C 1.0120(4) 0.4673(5) 0.1263(4)
H1 H 1.0469 0.4876 0.1394
C3 C 0.9220(4) 0.5102(4) 0.1288(4)
C4 C 0.8699(4) 0.4778(4) 0.1096(4)
H2 H 0.8094 0.5056 0.1116
C5 C 0.9072(4) 0.4049(4) 0.0878(4)
C6 C 0.9981(4) 0.3632(4) 0.0860(4)
H3 H 1.0237 0.3141 0.0723
C7 C 1.1502(4) 0.3557(5) 0.0940(5)
C8 C 1.1935(5) 0.3509(5) 0.1457(5)
H4 H 1.1594 0.3681 0.1907
C9 C 1.2890(5) 0.3199(6) 0.1297(5)
H5 H 1.3172 0.3145 0.1655
C10 C 1.3410(4) 0.2976(5) 0.0620(4)
C11 C 1.2976(4) 0.3011(4) 0.0102(4)
H6 H 1.3324 0.2846 -0.0350
C12 C 1.2036(4) 0.3290(4) 0.0263(4)
H7 H 1.1753 0.3302 -0.0077
C13 C 0.8819(4) 0.5923(4) 0.1434(4)
C14 C 0.7903(4) 0.6150(5) 0.1855(5)
H8 H 0.7533 0.5768 0.2081
C15 C 0.7533(4) 0.6946(5) 0.1943(5)
H9 H 0.6918 0.7088 0.2225
C16 C 0.8064(5) 0.7526(5) 0.1619(4)
C17 C 0.8984(5) 0.7301(5) 0.1196(5)
H10 H 0.9347 0.7691 0.0959
C18 C 0.9364(4) 0.6503(5) 0.1125(5)
H11 H 0.9987 0.6352 0.0869
C19 C 0.8537(4) 0.3751(4) 0.0620(4)
C20 C 0.8625(5) 0.2897(5) 0.0791(5)
H12 H 0.9019 0.2503 0.1081
C21 C 0.8136(4) 0.2632(5) 0.0537(5)
H13 H 0.8182 0.2061 0.0676
C22 C 0.7565(4) 0.3219(5) 0.0066(4)
C23 C 0.7490(5) 0.4062(5) -0.0116(5)
H14 H 0.7123 0.4456 -0.0432
C24 C 0.7956(4) 0.4327(4) 0.0167(5)
H15 H 0.7882 0.4899 0.0053
C25 C 0.7659(5) 0.8390(5) 0.1688(5)
C26 C 1.4434(5) 0.2691(5) 0.0429(5)
C27 C 0.7037(5) 0.2942(5) -0.0231(5)
C28 C 2.0757(5) 0.1068(6) -0.5844(5)
C29 C 2.0266(5) 0.0954(6) -0.6217(5)
H16 H 2.0576 0.0825 -0.6692
C30 C 1.9325(5) 0.1026(6) -0.5906(5)
C31 C 1.8869(5) 0.1221(6) -0.5188(5)
H17 H 1.8237 0.1286 -0.4978
C32 C 1.9349(5) 0.1321(6) -0.4783(5)
C33 C 2.0298(5) 0.1258(6) -0.5130(5)
H18 H 2.0624 0.1343 -0.4881
C34 C 2.1773(5) 0.0923(6) -0.6164(5)
C35 C 2.2274(5) 0.0263(6) -0.6476(5)
H19 H 2.1964 -0.0057 -0.6514
C36 C 2.3225(5) 0.0073(5) -0.6733(4)
H20 H 2.3546 -0.0380 -0.6924
C37 C 2.3698(5) 0.0563(5) -0.6703(5)
C38 C 2.3202(5) 0.1248(6) -0.6419(6)
H21 H 2.3511 0.1591 -0.6415
C39 C 2.2247(5) 0.1419(7) -0.6143(6)
H22 H 2.1924 0.1866 -0.5943
C40 C 1.8825(5) 0.0856(6) -0.6295(5)
C41 C 1.9090(5) 0.1057(6) -0.7134(5)
H23 H 1.9558 0.1342 -0.7454
C42 C 1.8669(5) 0.0838(5) -0.7483(5)
H24 H 1.8855 0.0973 -0.8037
C43 C 1.7969(5) 0.0417(5) -0.7019(5)
C44 C 1.7698(5) 0.0200(6) -0.6180(5)
H25 H 1.7234 -0.0091 -0.5866
C45 C 1.8120(5) 0.0421(6) -0.5825(5)
H26 H 1.7936 0.0281 -0.5270
C46 C 1.8869(5) 0.1414(6) -0.3974(5)
C47 C 1.7979(5) 0.1896(6) -0.3773(5)
H27 H 1.7686 0.2198 -0.4167
C48 C 1.7531(5) 0.1936(6) -0.3018(5)
H28 H 1.6950 0.2283 -0.2908
C49 C 1.7940(5) 0.1457(6) -0.2401(5)
C50 C 1.8825(5) 0.0973(6) -0.2588(5)
H29 H 1.9109 0.0652 -0.2189
C51 C 1.9284(5) 0.0968(6) -0.3366(5)
H30 H 1.9885 0.0658 -0.3487
C52 C 2.4721(5) 0.0394(5) -0.7003(5)
C53 C 1.7500(5) 0.0211(6) -0.7418(6)
C54 C 1.7459(5) 0.1469(6) -0.1558(5)
C55 C 1.5793(5) 0.0467(5) 0.0895(6)
H31 H 1.5435 0.0071 0.1190
C59 C 1.1514(9) 1.1174(8) 0.0641(8)
C60 C 1.2021(9) 1.1214(9) 0.1601(8)
C61 C 1.3153(11) 1.0786(10) 0.0429(15)
C62 C 1.580(3) 0.3892(11) 0.172(2)
C63 C 1.493(3) 0.430(2) 0.090(3)
C64 C 1.5403(16) 0.5365(9) 0.1166(14)
C65 C 1.0034(12) 1.1231(9) -0.1416(10)
C66 C 0.9203(13) 1.2737(10) -0.2048(11)
C67 C 1.0568(14) 1.1957(15) -0.2777(12)
N2 N 1.2277(6) 1.1086(5) 0.0888(5)
N3 N 1.5336(19) 0.4617(15) 0.125(2)
N4 N 0.9899(10) 1.1986(8) -0.2047(8)
O1 O 1.4785(3) 0.2474(4) 0.0969(4)
O2 O 1.4887(3) 0.2667(4) -0.0281(3)
O3 O 0.8107(4) 0.8938(3) 0.1295(4)
O4 O 0.6853(3) 0.8514(3) 0.2168(3)
O5 O 0.6970(3) 0.2163(3) 0.0090(3)
O6 O 0.6671(4) 0.3455(4) -0.0745(4)
O7 O 2.5126(3) -0.0304(4) -0.7171(4)
O8 O 2.5130(3) 0.0896(4) -0.7083(4)
O9 O 1.7531(4) 0.0621(4) -0.8132(4)
O10 O 1.7070(4) -0.0378(4) -0.7005(4)
O11 O 1.7773(4) 0.0962(4) -0.1005(3)
O12 O 1.6708(3) 0.2049(4) -0.1471(3)
O13 O 1.6334(3) 0.0481(3) 0.1198(3)
O14 O 1.5697(4) 0.0943(4) 0.0228(4)
O16 O 1.0730(5) 1.1381(5) 0.1032(5)
O17 O 1.586(2) 0.3164(8) 0.2118(9)
O18 O 0.9536(13) 1.1309(10) -0.0690(11)
Zn1_2 Zn 0.61534(5) 0.20141(6) -0.03469(5)
Zn2_2 Zn 1.64495(5) -0.03573(5) 0.22754(5)
Zn2_3 Zn 2.64495(5) -0.03573(5) -0.77246(5)
Zn2_4 Zn 1.64495(5) -0.03573(5) -0.77246(5)
K1_2 K 1.82123(10) 0.05261(10) 0.03302(10)
K1A K 1.17877(10) 0.94739(10) -0.03302(10)
K1_3 K 0.82123(10) 0.05261(10) 0.03302(10)
K1_4 K 1.82123(10) 0.05261(10) -0.96698(10)
K2_2 K 0.60370(11) 1.19414(11) 0.16970(10)
K2_3 K 0.60370(11) 0.19414(11) 0.16970(10)
K2_4 K 2.60370(11) 0.19414(11) -0.83030(10)
K2_5 K 1.60370(11) 0.19414(11) -0.83030(10)
K3A K 0.9979(9) 0.9366(7) -0.0456(7)
O5_2 O 1.6970(3) 0.2163(3) 0.0090(3)
O5_3 O 0.6970(3) 1.2163(3) 0.0090(3)
O7_2 O 0.5126(3) 0.9696(4) 0.2829(4)
O8_2 O 1.5130(3) 0.0896(4) 0.2917(4)
O9_2 O 0.7531(4) 1.0621(4) 0.1868(4)
O9_3 O 1.7531(4) 0.0621(4) 0.1868(4)
O10_2 O 0.7070(4) 0.9622(4) 0.2995(4)
O11_2 O 0.7773(4) 1.0962(4) -0.1005(3)
O13_2 O 0.6334(3) 1.0481(3) 0.1198(3)
C56 C 0.4900(9) 0.3114(9) 0.7782(8)
C57 C 0.5107(7) 0.2351(9) 0.6880(7)
C58 C 0.4980(8) 0.1648(7) 0.8326(8)
N1 N 0.4993(5) 0.2391(5) 0.7673(5)
O15 O 0.4906(14) 0.3779(9) 0.7230(10)
C68 C 1.038(2) 0.328(3) 0.346(3)
C69 C 0.911(3) 0.442(2) 0.355(4)
C70 C 0.903(2) 0.329(2) 0.328(2)
N5 N 0.943(2) 0.3567(16) 0.3616(15)
O19 O 1.054(3) 0.371(2) 0.371(2)
C71 C 0.567(2) 0.1654(19) 0.5105(16)
C72 C 0.545(2) 0.194(2) 0.3849(14)
C73 C 0.508(2) 0.0737(15) 0.4919(17)
N6 N 0.5260(15) 0.1523(13) 0.4668(14)
O20 O 0.601(4) 0.220(3) 0.501(4)
O21 O 0.6851(16) 0.3746(15) 0.7543(14)
O22 O 0.6965(19) 0.7254(18) 0.3904(17)
loop_
_geom_bond_atom_site_label_1
_geom_bond_atom_site_label_2
_geom_bond_site_symmetry_1
_geom_bond_site_symmetry_2
Zn1 O2 1_555 1_555
Zn2 O4 1_555 1_555
K1 K3 1_555 1_555
K2 O1 1_555 1_555
K3 O16 1_555 1_555
C1 C2 1_555 1_555
C2 H1 1_555 1_555
C3 C2 1_555 1_555
C4 C3 1_555 1_555
H2 C4 1_555 1_555
C5 C4 1_555 1_555
C6 C1 1_555 1_555
H3 C6 1_555 1_555
C7 C1 1_555 1_555
C8 C7 1_555 1_555
H4 C8 1_555 1_555
C9 C8 1_555 1_555
H5 C9 1_555 1_555
C10 C9 1_555 1_555
C11 C10 1_555 1_555
H6 C11 1_555 1_555
C12 C7 1_555 1_555
H7 C12 1_555 1_555
C13 C3 1_555 1_555
C14 C13 1_555 1_555
H8 C14 1_555 1_555
C15 C14 1_555 1_555
H9 C15 1_555 1_555
C16 C15 1_555 1_555
C17 C16 1_555 1_555
H10 C17 1_555 1_555
C18 C13 1_555 1_555
H11 C18 1_555 1_555
C19 C5 1_555 1_555
C20 C19 1_555 1_555
H12 C20 1_555 1_555
C21 C20 1_555 1_555
H13 C21 1_555 1_555
C22 C21 1_555 1_555
C23 C22 1_555 1_555
H14 C23 1_555 1_555
C24 C19 1_555 1_555
H15 C24 1_555 1_555
C25 C16 1_555 1_555
C26 C10 1_555 1_555
C27 C22 1_555 1_555
C28 C29 1_555 1_555
C29 H16 1_555 1_555
C30 C29 1_555 1_555
C31 C30 1_555 1_555
H17 C31 1_555 1_555
C32 C31 1_555 1_555
C33 C28 1_555 1_555
H18 C33 1_555 1_555
C34 C28 1_555 1_555
C35 C34 1_555 1_555
H19 C35 1_555 1_555
C36 C35 1_555 1_555
H20 C36 1_555 1_555
C37 C36 1_555 1_555
C38 C37 1_555 1_555
H21 C38 1_555 1_555
C39 C34 1_555 1_555
H22 C39 1_555 1_555
C40 C30 1_555 1_555
C41 C40 1_555 1_555
H23 C41 1_555 1_555
C42 C41 1_555 1_555
H24 C42 1_555 1_555
C43 C42 1_555 1_555
C44 C43 1_555 1_555
H25 C44 1_555 1_555
C45 C40 1_555 1_555
H26 C45 1_555 1_555
C46 C32 1_555 1_555
C47 C46 1_555 1_555
H27 C47 1_555 1_555
C48 C47 1_555 1_555
H28 C48 1_555 1_555
C49 C48 1_555 1_555
C50 C49 1_555 1_555
H29 C50 1_555 1_555
C51 C46 1_555 1_555
H30 C51 1_555 1_555
C52 C37 1_555 1_555
C53 C43 1_555 1_555
C54 C49 1_555 1_555
C55 H31 1_555 1_555
C56 N1 1_555 1_555
C57 N1 1_555 1_555
C58 N1 1_555 1_555
C59 N2 1_555 1_555
C60 N2 1_555 1_555
C61 N2 1_555 1_555
C62 N3 1_555 1_555
C63 N3 1_555 1_555
C64 N3 1_555 1_555
C65 N4 1_555 1_555
C66 N4 1_555 1_555
C67 N4 1_555 1_555
C68 N5 1_555 1_555
C69 N5 1_555 1_555
C70 N5 1_555 1_555
C71 N6 1_555 1_555
C72 N6 1_555 1_555
C73 N6 1_555 1_555
O1 C26 1_555 1_555
O2 C26 1_555 1_555
O3 K1 1_555 1_555
O4 C25 1_555 1_555
O5 C27 1_555 1_555
O6 C27 1_555 1_555
O7 C52 1_555 1_555
O8 C52 1_555 1_555
O9 C53 1_555 1_555
O10 C53 1_555 1_555
O11 C54 1_555 1_555
O12 Zn1 1_555 1_555
O13 K2 1_555 1_555
O14 Zn1 1_555 1_555
O15 C56 1_555 1_555
O16 C59 1_555 1_555
O17 K2 1_555 1_555
O18 K1 1_555 1_555
O19 C68 1_555 1_555
O20 C71 1_555 1_555
Zn1_2 O5 1_555 1_555
Zn2_2 K2 1_555 1_555
Zn2_3 O7 1_555 1_555
Zn2_4 O9 1_555 1_555
K1_2 K2 1_555 1_555
K1A K3 1_555 1_555
K1_3 O5 1_555 1_555
K1_4 O9 1_555 1_555
K2_2 Zn2 1_555 1_555
K2_3 O5 1_555 1_555
K2_4 O8 1_555 1_555
K2_5 O9 1_555 1_555
K3A K1 1_555 1_555
O5_2 Zn1 1_555 1_555
O5_3 K1 1_555 1_555
O7_2 Zn2 1_555 1_555
O8_2 K2 1_555 1_555
O9_2 Zn2 1_555 1_555
O9_3 K2 1_555 1_555
O10_2 Zn2 1_555 1_555
O11_2 K1 1_555 1_555
O13_2 Zn2 1_555 1_555
K1 K2_2 1_555 1_555
K1 O9_2 1_555 1_555
K1 O13_2 1_555 1_555
K2 O5_2 1_555 1_555
K3 O18 1_555 1_555
K3 K3A 1_555 1_555
C5 C6 1_555 1_555
C11 C12 1_555 1_555
C17 C18 1_555 1_555
C23 C24 1_555 1_555
C25 O3 1_555 1_555
C32 C33 1_555 1_555
C38 C39 1_555 1_555
C44 C45 1_555 1_555
C50 C51 1_555 1_555
C54 O12 1_555 1_555
C55 O13 1_555 1_555
C55 O14 1_555 1_555
C62 O17 1_555 1_555
C65 O18 1_555 1_555
O10 Zn2_4 1_555 1_555
O11 K1_2 1_555 1_555
O13 Zn2_2 1_555 1_555
O13 K1_2 1_555 1_555
Zn2_2 O9_3 1_555 1_555
Zn2_3 K2_4 1_555 1_555
Zn2_4 K2_5 1_555 1_555
K1_2 O5_2 1_555 1_555
K1_2 O9_3 1_555 1_555
K1A K3A 1_555 1_555
K1_3 K2_3 1_555 1_555
K1_4 K2_5 1_555 1_555
K2_2 O5_3 1_555 1_555
K2_2 O9_2 1_555 1_555
K2_2 O13_2 1_555 1_555

#END
