
#######################################################################
#
#                 Cambridge Crystallographic Data Centre
#                                CCDC 
#
#######################################################################
#
# If this CIF has been generated from an entry in the Cambridge 
# Structural Database, then it will include bibliographic, chemical, 
# crystal, experimental, refinement or atomic coordinate data resulting 
# from the CCDC's data processing and validation procedures.
#
#######################################################################

data_PAPPED
_chemical_formula_moiety         '(C34 H42 Cl2 Cu1 N8 O5)n'
_symmetry_cell_setting           trigonal
_symmetry_space_group_name_H-M   'P 32 2 1'
_symmetry_Int_Tables_number      154
_space_group_name_Hall           'P 32 2"'
loop_
_symmetry_equiv_pos_site_id
_symmetry_equiv_pos_as_xyz
1 x,y,z
2 -y,x-y,2/3+z
3 -x+y,-x,1/3+z
4 y,x,-z
5 x-y,-y,1/3-z
6 -x,-x+y,2/3-z
_cell_length_a                   12.9292(6)
_cell_length_b                   12.9292(6)
_cell_length_c                   20.1039(11)
_cell_angle_alpha                90
_cell_angle_beta                 90
_cell_angle_gamma                120
_cell_volume                     2910.41
loop_
_atom_site_label
_atom_site_type_symbol
_atom_site_fract_x
_atom_site_fract_y
_atom_site_fract_z
_atom_site_U_iso_or_equiv
_atom_site_thermal_displace_type
Cu1 Cu 0.37953(4) 0.37953(4) 0.0000 0.0280 Uani
Cl1 Cl 0.50065(8) 0.25684(7) -0.02904(4) 0.0391 Uani
N1 N 0.2896(2) 0.2556(2) 0.07201(11) 0.0259 Uani
C1 C 0.1742(3) 0.2158(3) 0.08456(14) 0.0323 Uani
H1 H 0.1286 0.2287 0.0535 0.0390 Uiso
C2 C 0.1213(3) 0.1558(3) 0.14296(15) 0.0391 Uani
H2 H 0.0409 0.1289 0.1507 0.0470 Uiso
C3 C 0.1876(3) 0.1358(3) 0.18971(14) 0.0385 Uani
H3 H 0.1534 0.0985 0.2298 0.0460 Uiso
C4 C 0.3051(3) 0.1718(3) 0.17588(13) 0.0301 Uani
C5 C 0.3526(3) 0.2304(3) 0.11586(13) 0.0282 Uani
H4 H 0.4313 0.2530 0.1056 0.0340 Uiso
N2 N 0.3832(2) 0.1563(2) 0.21772(11) 0.0393 Uani
H5 H 0.4577 0.1952 0.2073 0.0470 Uiso
C6 C 0.3540(3) 0.0864(3) 0.27297(13) 0.0349 Uani
O1 O 0.2538(2) 0.0279(2) 0.29422(11) 0.0522 Uani
C7 C 0.4612(3) 0.0856(3) 0.30499(13) 0.0353 Uani
H6 H 0.5275 0.1680 0.3084 0.0420 Uiso
C8 C 0.5012(3) 0.0134(3) 0.26375(15) 0.0459 Uani
H7 H 0.5215 0.0476 0.2195 0.0550 Uiso
H8 H 0.4345 -0.0674 0.2595 0.0550 Uiso
C9 C 0.6084(4) 0.0075(4) 0.29212(17) 0.0628 Uani
H9 H 0.5937 -0.0119 0.3395 0.0760 Uiso
C10 C 0.7211(4) 0.1249(4) 0.2857(3) 0.0964 Uani
H10 H 0.7870 0.1176 0.3018 0.1450 Uiso
H11 H 0.7145 0.1840 0.3113 0.1450 Uiso
H12 H 0.7341 0.1485 0.2398 0.1450 Uiso
C11 C 0.6206(4) -0.0906(4) 0.2584(2) 0.0957 Uani
H13 H 0.6241 -0.0793 0.2111 0.1440 Uiso
H14 H 0.5530 -0.1667 0.2694 0.1440 Uiso
H15 H 0.6924 -0.0879 0.2734 0.1440 Uiso
N3 N 0.4272(2) 0.0357(2) 0.37176(11) 0.0385 Uani
H16 H 0.3616 -0.0309 0.3766 0.0460 Uiso
C12 C 0.4930(3) 0.0884(3) 0.42575(14) 0.0328 Uani
O2 O 0.5851(2) 0.1854(2) 0.42465(9) 0.0459 Uani
C13 C 0.4463(3) 0.0190(3) 0.48919(13) 0.0279 Uani
C14 C 0.3279(3) -0.0642(3) 0.50017(13) 0.0392 Uani
H19 H 0.2711 -0.0792 0.4675 0.0470 Uiso
C15 C 0.2943(3) -0.1250(3) 0.55987(15) 0.0415 Uani
H20 H 0.2145 -0.1798 0.5684 0.0500 Uiso
C16 C 0.3803(3) -0.1033(3) 0.60625(14) 0.0337 Uani
H21 H 0.3578 -0.1463 0.6458 0.0410 Uiso
N4 N 0.4958(2) -0.0224(2) 0.59685(10) 0.0276 Uani
C17 C 0.5268(3) 0.0380(3) 0.53949(13) 0.0282 Uani
H22 H 0.6064 0.0956 0.5331 0.0340 Uiso
Cu1A Cu 0.62047(4) 0.00000(6) 0.6667 0.0280 Uani
Cu1B Cu -0.00000(6) 0.62047(4) -0.6667 0.0280 Uani
Cl1C Cl 0.25684(7) 0.50065(8) 0.02904(4) 0.0391 Uani
N1C N 0.2556(2) 0.2896(2) -0.07201(11) 0.0259 Uani
C1C C 0.2158(3) 0.1742(3) -0.08456(14) 0.0323 Uani
H1C H 0.2287 0.1286 -0.0535 0.0390 Uiso
C2C C 0.1558(3) 0.1213(3) -0.14296(15) 0.0391 Uani
H2C H 0.1289 0.0409 -0.1507 0.0470 Uiso
C3C C 0.1358(3) 0.1876(3) -0.18971(14) 0.0385 Uani
H3C H 0.0985 0.1534 -0.2298 0.0460 Uiso
C4C C 0.1718(3) 0.3051(3) -0.17588(13) 0.0301 Uani
C5C C 0.2304(3) 0.3526(3) -0.11586(13) 0.0282 Uani
H4C H 0.2530 0.4313 -0.1056 0.0340 Uiso
N2C N 0.1563(2) 0.3832(2) -0.21772(11) 0.0393 Uani
H5C H 0.1952 0.4577 -0.2073 0.0470 Uiso
C6C C 0.0864(3) 0.3540(3) -0.27297(13) 0.0349 Uani
O1C O 0.0279(2) 0.2538(2) -0.29422(11) 0.0522 Uani
C7C C 0.0856(3) 0.4612(3) -0.30499(13) 0.0353 Uani
H6C H 0.1680 0.5275 -0.3084 0.0420 Uiso
C8C C 0.0134(3) 0.5012(3) -0.26375(15) 0.0459 Uani
H7C H 0.0476 0.5215 -0.2195 0.0550 Uiso
H8C H -0.0674 0.4345 -0.2595 0.0550 Uiso
C9C C 0.0075(4) 0.6084(4) -0.29212(17) 0.0628 Uani
H9C H -0.0119 0.5937 -0.3395 0.0760 Uiso
C10C C 0.1249(4) 0.7211(4) -0.2857(3) 0.0964 Uani
H10C H 0.1176 0.7870 -0.3018 0.1450 Uiso
H11C H 0.1840 0.7145 -0.3113 0.1450 Uiso
H12C H 0.1485 0.7341 -0.2398 0.1450 Uiso
C11C C -0.0906(4) 0.6206(4) -0.2584(2) 0.0957 Uani
H13C H -0.0793 0.6241 -0.2111 0.1440 Uiso
H14C H -0.1667 0.5530 -0.2694 0.1440 Uiso
H15C H -0.0879 0.6924 -0.2734 0.1440 Uiso
N3C N 0.0357(2) 0.4272(2) -0.37176(11) 0.0385 Uani
H16C H -0.0309 0.3616 -0.3766 0.0460 Uiso
C12C C 0.0884(3) 0.4930(3) -0.42575(14) 0.0328 Uani
O2C O 0.1854(2) 0.5851(2) -0.42465(9) 0.0459 Uani
C13C C 0.0190(3) 0.4463(3) -0.48919(13) 0.0279 Uani
C14C C -0.0642(3) 0.3279(3) -0.50017(13) 0.0392 Uani
H19C H -0.0792 0.2711 -0.4675 0.0470 Uiso
C15C C -0.1250(3) 0.2943(3) -0.55987(15) 0.0415 Uani
H20C H -0.1798 0.2145 -0.5684 0.0500 Uiso
C16C C -0.1033(3) 0.3803(3) -0.60625(14) 0.0337 Uani
H21C H -0.1463 0.3578 -0.6458 0.0410 Uiso
N4C N -0.0224(2) 0.4958(2) -0.59685(10) 0.0276 Uani
N4B N 0.4818(3) 0.5042(2) -0.06982(10) 0.0276 Uani
N4E N 0.5042(2) 0.4818(3) 0.06982(10) 0.0276 Uani
C17C C 0.0380(3) 0.5268(3) -0.53949(13) 0.0282 Uani
H22C H 0.0956 0.6064 -0.5331 0.0340 Uiso
O3 O 0.6256(2) 0.3089(3) 0.18827(16) 0.0614 Uani
H17 H 0.660(3) 0.354(3) 0.2181(18) 0.0500 Uiso
H18 H 0.667(3) 0.325(3) 0.1536(17) 0.0460 Uiso
loop_
_atom_site_aniso_label
_atom_site_aniso_U_11
_atom_site_aniso_U_22
_atom_site_aniso_U_33
_atom_site_aniso_U_23
_atom_site_aniso_U_13
_atom_site_aniso_U_12
Cu1 0.0323(2) 0.0323(2) 0.0134(3) 0.00174(12) -0.00174(12) 0.0116(3)
Cl1 0.0507(5) 0.0380(5) 0.0319(4) 0.0023(4) 0.0040(4) 0.0246(4)
N1 0.0285(15) 0.0301(14) 0.0201(13) 0.0012(11) -0.0018(10) 0.0154(12)
C1 0.035(2) 0.0357(19) 0.0284(17) 0.0017(16) -0.0032(15) 0.0193(17)
C2 0.0345(19) 0.047(2) 0.0345(19) 0.0067(16) 0.0076(15) 0.0195(17)
C3 0.044(2) 0.043(2) 0.0247(17) 0.0118(15) 0.0097(16) 0.0189(19)
C4 0.037(2) 0.0275(17) 0.0205(16) 0.0005(14) -0.0021(14) 0.0122(16)
C5 0.0328(18) 0.0326(18) 0.0189(15) 0.0024(14) -0.0007(14) 0.0161(15)
N2 0.0406(16) 0.0441(17) 0.0269(15) 0.0121(13) -0.0028(13) 0.0165(14)
C6 0.046(2) 0.0290(19) 0.0193(17) 0.0010(15) -0.0041(16) 0.0109(18)
O1 0.0484(16) 0.0525(16) 0.0369(13) 0.0220(12) 0.0015(12) 0.0111(13)
C7 0.043(2) 0.0319(18) 0.0197(16) 0.0047(14) -0.0071(14) 0.0102(17)
C8 0.066(2) 0.044(2) 0.0257(18) -0.0030(16) -0.0109(17) 0.0260(19)
C9 0.088(3) 0.082(3) 0.039(2) -0.004(2) -0.008(2) 0.058(3)
C10 0.076(3) 0.109(4) 0.112(4) -0.058(3) -0.036(3) 0.052(3)
C11 0.128(4) 0.087(3) 0.099(4) -0.007(3) -0.013(3) 0.074(3)
N3 0.0503(18) 0.0330(15) 0.0202(13) 0.0034(12) -0.0097(13) 0.0118(14)
C12 0.043(2) 0.034(2) 0.0231(18) -0.0003(14) -0.0065(15) 0.0205(19)
O2 0.0517(15) 0.0358(15) 0.0273(13) 0.0034(11) -0.0067(11) 0.0047(13)
C13 0.0346(19) 0.0298(18) 0.0162(15) 0.0014(13) -0.0009(14) 0.0138(16)
C14 0.040(2) 0.055(2) 0.0234(18) -0.0011(17) -0.0099(15) 0.0243(19)
C15 0.0303(19) 0.053(2) 0.0306(18) 0.0053(16) 0.0018(16) 0.0129(16)
C16 0.0358(19) 0.041(2) 0.0212(16) 0.0032(14) 0.0044(15) 0.0169(18)
N4 0.0323(16) 0.0359(15) 0.0151(13) 0.0004(11) 0.0013(11) 0.0174(14)
C17 0.0316(18) 0.0303(18) 0.0189(15) -0.0033(13) -0.0019(14) 0.0126(15)
Cu1A 0.0323 0.0414 0.0134 -0.00348 -0.00174 0.0207
Cu1B 0.0414 0.0323 0.0134 0.00174 0.00348 0.0207
Cl1C 0.038 0.0507 0.0319 -0.004 -0.0023 0.0246
N1C 0.0301 0.0285 0.0201 0.0018 -0.0012 0.0154
C1C 0.0357 0.035 0.0284 0.0032 -0.0017 0.0193
C2C 0.047 0.0345 0.0345 -0.0076 -0.0067 0.0195
C3C 0.043 0.044 0.0247 -0.0097 -0.0118 0.0189
C4C 0.0275 0.037 0.0205 0.0021 -0.0005 0.0122
C5C 0.0326 0.0328 0.0189 0.0007 -0.0024 0.0161
N2C 0.0441 0.0406 0.0269 0.0028 -0.0121 0.0165
C6C 0.029 0.046 0.0193 0.0041 -0.001 0.0109
O1C 0.0525 0.0484 0.0369 -0.0015 -0.022 0.0111
C7C 0.0319 0.043 0.0197 0.0071 -0.0047 0.0102
C8C 0.044 0.066 0.0257 0.0109 0.003 0.026
C9C 0.082 0.088 0.039 0.008 0.004 0.058
C10C 0.109 0.076 0.112 0.036 0.058 0.052
C11C 0.087 0.128 0.099 0.013 0.007 0.074
N3C 0.033 0.0503 0.0202 0.0097 -0.0034 0.0118
C12C 0.034 0.043 0.0231 0.0065 0.0003 0.0205
O2C 0.0358 0.0517 0.0273 0.0067 -0.0034 0.0047
C13C 0.0298 0.0346 0.0162 0.0009 -0.0014 0.0138
C14C 0.055 0.04 0.0234 0.0099 0.0011 0.0243
C15C 0.053 0.0303 0.0306 -0.0018 -0.0053 0.0129
C16C 0.041 0.0358 0.0212 -0.0044 -0.0032 0.0169
N4C 0.0359 0.0323 0.0151 -0.0013 -0.0004 0.0174
N4B 0.0334 0.0323 0.0151 -0.0013 -0.0009 0.0149
N4E 0.0323 0.0334 0.0151 0.0009 0.0013 0.0149
C17C 0.0303 0.0316 0.0189 0.0019 0.0033 0.0126
O3 0.0478(18) 0.062(2) 0.0446(19) -0.0081(16) 0.0105(15) 0.0052(15)
loop_
_geom_bond_atom_site_label_1
_geom_bond_atom_site_label_2
_geom_bond_site_symmetry_1
_geom_bond_site_symmetry_2
Cu1 Cl1 1_555 1_555
N1 Cu1 1_555 1_555
C1 N1 1_555 1_555
H1 C1 1_555 1_555
C2 C1 1_555 1_555
H2 C2 1_555 1_555
C3 C2 1_555 1_555
H3 C3 1_555 1_555
C4 C3 1_555 1_555
C5 N1 1_555 1_555
H4 C5 1_555 1_555
N2 C4 1_555 1_555
H5 N2 1_555 1_555
C6 N2 1_555 1_555
O1 C6 1_555 1_555
C7 C6 1_555 1_555
H6 C7 1_555 1_555
C8 C7 1_555 1_555
H7 C8 1_555 1_555
H8 C8 1_555 1_555
C9 C8 1_555 1_555
H9 C9 1_555 1_555
C10 C9 1_555 1_555
H10 C10 1_555 1_555
H11 C10 1_555 1_555
H12 C10 1_555 1_555
C11 C9 1_555 1_555
H13 C11 1_555 1_555
H14 C11 1_555 1_555
H15 C11 1_555 1_555
N3 C7 1_555 1_555
H16 N3 1_555 1_555
C12 N3 1_555 1_555
O2 C12 1_555 1_555
O3 H17 1_555 1_555
H18 O3 1_555 1_555
C13 C12 1_555 1_555
C14 C13 1_555 1_555
H19 C14 1_555 1_555
C15 C14 1_555 1_555
H20 C15 1_555 1_555
C16 C15 1_555 1_555
H21 C16 1_555 1_555
N4 C16 1_555 1_555
C17 C13 1_555 1_555
H22 C17 1_555 1_555
Cu1A N4 1_555 1_555
Cu1B N4C 1_555 1_555
Cl1C Cu1 1_555 1_555
N1C Cu1 1_555 1_555
C1C N1C 1_555 1_555
H1C C1C 1_555 1_555
C2C C1C 1_555 1_555
H2C C2C 1_555 1_555
C3C C2C 1_555 1_555
H3C C3C 1_555 1_555
C4C C3C 1_555 1_555
C5C N1C 1_555 1_555
H4C C5C 1_555 1_555
N2C C4C 1_555 1_555
H5C N2C 1_555 1_555
C6C N2C 1_555 1_555
O1C C6C 1_555 1_555
C7C C6C 1_555 1_555
H6C C7C 1_555 1_555
C8C C7C 1_555 1_555
H7C C8C 1_555 1_555
H8C C8C 1_555 1_555
C9C C8C 1_555 1_555
H9C C9C 1_555 1_555
C10C C9C 1_555 1_555
H10C C10C 1_555 1_555
H11C C10C 1_555 1_555
H12C C10C 1_555 1_555
C11C C9C 1_555 1_555
H13C C11C 1_555 1_555
H14C C11C 1_555 1_555
H15C C11C 1_555 1_555
N3C C7C 1_555 1_555
H16C N3C 1_555 1_555
C12C N3C 1_555 1_555
O2C C12C 1_555 1_555
C13C C12C 1_555 1_555
C14C C13C 1_555 1_555
H19C C14C 1_555 1_555
C15C C14C 1_555 1_555
H20C C15C 1_555 1_555
C16C C15C 1_555 1_555
H21C C16C 1_555 1_555
N4C C16C 1_555 1_555
N4B Cu1 1_555 1_555
N4E Cu1 1_555 1_555
C17C C13C 1_555 1_555
H22C C17C 1_555 1_555
C4 C5 1_555 1_555
N4 C17 1_555 1_555
C4C C5C 1_555 1_555
N4C C17C 1_555 1_555

#END
