
#######################################################################
#
#                 Cambridge Crystallographic Data Centre
#                                CCDC 
#
#######################################################################
#
# If this CIF has been generated from an entry in the Cambridge 
# Structural Database, then it will include bibliographic, chemical, 
# crystal, experimental, refinement or atomic coordinate data resulting 
# from the CCDC's data processing and validation procedures.
#
#######################################################################

data_PAPPIH
_chemical_formula_moiety         '(C34 H42 Br2 Cu1 N8 O5)n'
_symmetry_cell_setting           trigonal
_symmetry_space_group_name_H-M   'P 32 2 1'
_symmetry_Int_Tables_number      154
_space_group_name_Hall           'P 32 2"'
loop_
_symmetry_equiv_pos_site_id
_symmetry_equiv_pos_as_xyz
1 x,y,z
2 -y,x-y,2/3+z
3 -x+y,-x,1/3+z
4 y,x,-z
5 x-y,-y,1/3-z
6 -x,-x+y,2/3-z
_cell_length_a                   13.0785(10)
_cell_length_b                   13.0785(10)
_cell_length_c                   20.083(3)
_cell_angle_alpha                90
_cell_angle_beta                 90
_cell_angle_gamma                120
_cell_volume                     2974.92
loop_
_atom_site_label
_atom_site_type_symbol
_atom_site_fract_x
_atom_site_fract_y
_atom_site_fract_z
_atom_site_U_iso_or_equiv
_atom_site_thermal_displace_type
Cu1 Cu 0.61537(3) 0.61537(3) 0.0000 0.0260 Uani
Br1 Br 0.48710(3) 0.74136(3) -0.027190(13) 0.0401 Uani
N1 N 0.70593(18) 0.73723(19) 0.07237(9) 0.0260 Uani
C1 C 0.6446(2) 0.7627(2) 0.11597(11) 0.0293 Uani
H1 H 0.5659 0.7378 0.1067 0.0350 Uiso
C2 C 0.6936(2) 0.8252(2) 0.17507(12) 0.0302 Uani
C3 C 0.8112(3) 0.8638(3) 0.18724(14) 0.0395 Uani
H2 H 0.8466 0.9034 0.2265 0.0470 Uiso
C4 C 0.8753(3) 0.8426(3) 0.14033(14) 0.0392 Uani
H3 H 0.9554 0.8713 0.1470 0.0470 Uiso
C5 C 0.8208(2) 0.7788(2) 0.08318(13) 0.0316 Uani
H4 H 0.8650 0.7648 0.0520 0.0380 Uiso
N2 N 0.6171(2) 0.8414(2) 0.21659(10) 0.0385 Uani
H5 H 0.5437 0.8037 0.2058 0.0460 Uiso
C6 C 0.6455(3) 0.9100(2) 0.27229(12) 0.0344 Uani
O1 O 0.74466(19) 0.9676(2) 0.29332(10) 0.0500 Uani
C7 C 0.5391(3) 0.9091(2) 0.30481(12) 0.0355 Uani
H6 H 0.4737 0.8275 0.3079 0.0430 Uiso
C8 C 0.5002(3) 0.9815(3) 0.26332(13) 0.0437 Uani
H7 H 0.5665 1.0610 0.2588 0.0520 Uiso
H8 H 0.4793 0.9474 0.2191 0.0520 Uiso
C9 C 0.3962(3) 0.9883(3) 0.29195(16) 0.0592 Uani
H9 H 0.4112 1.0060 0.3396 0.0710 Uiso
C10 C 0.3846(5) 1.0867(4) 0.2601(2) 0.0911 Uani
H10 H 0.3722 1.0726 0.2131 0.1360 Uiso
H11 H 0.4556 1.1606 0.2676 0.1360 Uiso
H12 H 0.3188 1.0893 0.2794 0.1360 Uiso
C11 C 0.2826(4) 0.8714(5) 0.2852(3) 0.1016 Uani
H13 H 0.2197 0.8765 0.3067 0.1520 Uiso
H14 H 0.2918 0.8103 0.3058 0.1520 Uiso
H15 H 0.2642 0.8534 0.2389 0.1520 Uiso
N3 N 0.5731(2) 0.9579(2) 0.37141(10) 0.0363 Uani
H16 H 0.6390 1.0225 0.3764 0.0440 Uiso
C12 C 0.5070(3) 0.9073(2) 0.42528(12) 0.0324 Uani
O2 O 0.4142(2) 0.81322(18) 0.42422(9) 0.0471 Uani
C13 C 0.5544(2) 0.9769(2) 0.48873(11) 0.0282 Uani
C14 C 0.4744(2) 0.9599(2) 0.53845(11) 0.0272 Uani
H17 H 0.3952 0.9047 0.5318 0.0330 Uiso
N4 N 0.5066(2) 1.02004(19) 0.59603(9) 0.0269 Uani
C15 C 0.6212(2) 1.0982(2) 0.60538(12) 0.0335 Uani
H18 H 0.6442 1.1405 0.6450 0.0400 Uiso
C16 C 0.7062(3) 1.1183(3) 0.55849(13) 0.0404 Uani
H19 H 0.7853 1.1720 0.5668 0.0490 Uiso
C17 C 0.6720(3) 1.0574(3) 0.49925(13) 0.0387 Uani
H20 H 0.7276 1.0705 0.4666 0.0460 Uiso
Cu1A Cu 0.38463(3) 1.00000(4) 0.6667 0.0260 Uani
Cu1B Cu 1.00000(4) 0.38463(3) -0.6667 0.0260 Uani
Br1C Br 0.74136(3) 0.48710(3) 0.027190(13) 0.0401 Uani
N1C N 0.73723(19) 0.70593(18) -0.07237(9) 0.0260 Uani
C1C C 0.7627(2) 0.6446(2) -0.11597(11) 0.0293 Uani
H1C H 0.7378 0.5659 -0.1067 0.0350 Uiso
C2C C 0.8252(2) 0.6936(2) -0.17507(12) 0.0302 Uani
C3C C 0.8638(3) 0.8112(3) -0.18724(14) 0.0395 Uani
H2C H 0.9034 0.8466 -0.2265 0.0470 Uiso
C4C C 0.8426(3) 0.8753(3) -0.14033(14) 0.0392 Uani
H3C H 0.8713 0.9554 -0.1470 0.0470 Uiso
C5C C 0.7788(2) 0.8208(2) -0.08318(13) 0.0316 Uani
H4C H 0.7648 0.8650 -0.0520 0.0380 Uiso
N2C N 0.8414(2) 0.6171(2) -0.21659(10) 0.0385 Uani
H5C H 0.8037 0.5437 -0.2058 0.0460 Uiso
C6C C 0.9100(2) 0.6455(3) -0.27229(12) 0.0344 Uani
O1C O 0.9676(2) 0.74466(19) -0.29332(10) 0.0500 Uani
C7C C 0.9091(2) 0.5391(3) -0.30481(12) 0.0355 Uani
H6C H 0.8275 0.4737 -0.3079 0.0430 Uiso
C8C C 0.9815(3) 0.5002(3) -0.26332(13) 0.0437 Uani
H7C H 1.0610 0.5665 -0.2588 0.0520 Uiso
H8C H 0.9474 0.4793 -0.2191 0.0520 Uiso
C9C C 0.9883(3) 0.3962(3) -0.29195(16) 0.0592 Uani
H9C H 1.0060 0.4112 -0.3396 0.0710 Uiso
C10C C 1.0867(4) 0.3846(5) -0.2601(2) 0.0911 Uani
H10C H 1.0726 0.3722 -0.2131 0.1360 Uiso
H11C H 1.1606 0.4556 -0.2676 0.1360 Uiso
H12C H 1.0893 0.3188 -0.2794 0.1360 Uiso
C11C C 0.8714(5) 0.2826(4) -0.2852(3) 0.1016 Uani
H13C H 0.8765 0.2197 -0.3067 0.1520 Uiso
H14C H 0.8103 0.2918 -0.3058 0.1520 Uiso
H15C H 0.8534 0.2642 -0.2389 0.1520 Uiso
N3C N 0.9579(2) 0.5731(2) -0.37141(10) 0.0363 Uani
H16C H 1.0225 0.6390 -0.3764 0.0440 Uiso
C12C C 0.9073(2) 0.5070(3) -0.42528(12) 0.0324 Uani
O2C O 0.81322(18) 0.4142(2) -0.42422(9) 0.0471 Uani
C13C C 0.9769(2) 0.5544(2) -0.48873(11) 0.0282 Uani
C14C C 0.9599(2) 0.4744(2) -0.53845(11) 0.0272 Uani
H17C H 0.9047 0.3952 -0.5318 0.0330 Uiso
N4C N 1.02004(19) 0.5066(2) -0.59603(9) 0.0269 Uani
N4B N 0.51344(28) 0.4934(2) -0.07064(9) 0.0269 Uani
N4E N 0.4934(2) 0.51344(28) 0.07064(9) 0.0269 Uani
C15C C 1.0982(2) 0.6212(2) -0.60538(12) 0.0335 Uani
H18C H 1.1405 0.6442 -0.6450 0.0400 Uiso
C16C C 1.1183(3) 0.7062(3) -0.55849(13) 0.0404 Uani
H19C H 1.1720 0.7853 -0.5668 0.0490 Uiso
C17C C 1.0574(3) 0.6720(3) -0.49925(13) 0.0387 Uani
H20C H 1.0705 0.7276 -0.4666 0.0460 Uiso
O3 O 0.6864(3) 0.3053(3) 0.15352(19) 0.0661 Uani
H21 H 0.654(3) 0.315(3) 0.1800(18) 0.0510 Uiso
H22 H 0.680(5) 0.333(5) 0.132(3) 0.0900 Uiso
loop_
_atom_site_aniso_label
_atom_site_aniso_U_11
_atom_site_aniso_U_22
_atom_site_aniso_U_33
_atom_site_aniso_U_23
_atom_site_aniso_U_13
_atom_site_aniso_U_12
Cu1 0.03026(16) 0.03026(16) 0.01074(18) -0.00191(8) 0.00191(8) 0.01006(18)
Br1 0.05193(19) 0.03809(16) 0.03379(15) -0.00222(13) -0.00413(13) 0.02503(14)
N1 0.0314(11) 0.0285(11) 0.0176(9) -0.0009(9) 0.0017(8) 0.0145(10)
C1 0.0352(14) 0.0338(14) 0.0178(12) -0.0039(11) -0.0001(11) 0.0164(12)
C2 0.0376(15) 0.0295(14) 0.0214(12) -0.0033(10) 0.0014(11) 0.0151(12)
C3 0.0461(17) 0.0415(15) 0.0287(14) -0.0129(12) -0.0086(13) 0.0202(15)
C4 0.0325(15) 0.0441(18) 0.0395(16) -0.0127(13) -0.0079(12) 0.0180(14)
C5 0.0334(14) 0.0334(15) 0.0283(13) -0.0023(11) 0.0013(11) 0.0169(12)
N2 0.0398(13) 0.0459(14) 0.0223(11) -0.0128(10) 0.0027(10) 0.0159(11)
C6 0.0478(18) 0.0301(14) 0.0175(12) -0.0032(11) 0.0059(12) 0.0137(14)
O1 0.0461(13) 0.0517(13) 0.0354(11) -0.0219(10) -0.0007(10) 0.0118(11)
C7 0.0508(17) 0.0320(14) 0.0157(12) -0.0060(10) 0.0067(11) 0.0148(13)
C8 0.063(2) 0.0400(16) 0.0231(13) 0.0004(12) 0.0084(13) 0.0221(16)
C9 0.082(3) 0.074(2) 0.0364(16) 0.0096(16) 0.0149(17) 0.050(2)
C10 0.125(4) 0.086(3) 0.092(3) 0.003(3) 0.013(3) 0.075(3)
C11 0.084(3) 0.112(4) 0.122(4) 0.061(3) 0.044(3) 0.059(3)
N3 0.0456(14) 0.0335(12) 0.0172(10) -0.0031(9) 0.0083(10) 0.0103(11)
C12 0.0459(18) 0.0331(16) 0.0186(12) -0.0018(11) 0.0051(11) 0.0201(15)
O2 0.0560(14) 0.0368(12) 0.0265(10) -0.0003(9) 0.0093(10) 0.0066(11)
C13 0.0348(15) 0.0349(14) 0.0162(12) -0.0013(10) 0.0027(11) 0.0184(12)
C14 0.0301(14) 0.0303(13) 0.0166(11) 0.0008(10) 0.0006(10) 0.0117(12)
N4 0.0311(12) 0.0352(12) 0.0138(9) 0.0003(8) -0.0003(9) 0.0162(10)
C15 0.0338(15) 0.0422(16) 0.0198(12) -0.0059(11) -0.0024(11) 0.0155(13)
C16 0.0285(15) 0.0518(19) 0.0295(14) -0.0023(13) 0.0007(12) 0.0115(14)
C17 0.0376(16) 0.0582(19) 0.0215(14) 0.0020(13) 0.0107(12) 0.0249(15)
Cu1A 0.03026 0.0404 0.01074 0.00382 0.00191 0.0202
Cu1B 0.0404 0.03026 0.01074 -0.00191 -0.00382 0.0202
Br1C 0.03809 0.05193 0.03379 0.00413 0.00222 0.02503
N1C 0.0285 0.0314 0.0176 -0.0017 0.0009 0.0145
C1C 0.0338 0.0352 0.0178 0.0001 0.0039 0.0164
C2C 0.0295 0.0376 0.0214 -0.0014 0.0033 0.0151
C3C 0.0415 0.0461 0.0287 0.0086 0.0129 0.0202
C4C 0.0441 0.0325 0.0395 0.0079 0.0127 0.018
C5C 0.0334 0.0334 0.0283 -0.0013 0.0023 0.0169
N2C 0.0459 0.0398 0.0223 -0.0027 0.0128 0.0159
C6C 0.0301 0.0478 0.0175 -0.0059 0.0032 0.0137
O1C 0.0517 0.0461 0.0354 0.0007 0.0219 0.0118
C7C 0.032 0.0508 0.0157 -0.0067 0.006 0.0148
C8C 0.04 0.063 0.0231 -0.0084 -0.0004 0.0221
C9C 0.074 0.082 0.0364 -0.0149 -0.0096 0.05
C10C 0.086 0.125 0.092 -0.013 -0.003 0.075
C11C 0.112 0.084 0.122 -0.044 -0.061 0.059
N3C 0.0335 0.0456 0.0172 -0.0083 0.0031 0.0103
C12C 0.0331 0.0459 0.0186 -0.0051 0.0018 0.0201
O2C 0.0368 0.056 0.0265 -0.0093 0.0003 0.0066
C13C 0.0349 0.0348 0.0162 -0.0027 0.0013 0.0184
C14C 0.0303 0.0301 0.0166 -0.0006 -0.0008 0.0117
N4C 0.0352 0.0311 0.0138 0.0003 -0.0003 0.0162
N4B 0.0339 0.0311 0.0138 0.0003 0.0006 0.0149
N4E 0.0311 0.0339 0.0138 -0.0006 -0.0003 0.0149
C15C 0.0422 0.0338 0.0198 0.0024 0.0059 0.0155
C16C 0.0518 0.0285 0.0295 -0.0007 0.0023 0.0115
C17C 0.0582 0.0376 0.0215 -0.0107 -0.002 0.0249
O3 0.108(3) 0.0699(19) 0.0510(17) 0.0063(16) 0.0193(17) 0.0675(19)
loop_
_geom_bond_atom_site_label_1
_geom_bond_atom_site_label_2
_geom_bond_site_symmetry_1
_geom_bond_site_symmetry_2
Cu1 Br1 1_555 1_555
N1 Cu1 1_555 1_555
C1 N1 1_555 1_555
H1 C1 1_555 1_555
C2 C1 1_555 1_555
C3 C2 1_555 1_555
H2 C3 1_555 1_555
C4 C3 1_555 1_555
H3 C4 1_555 1_555
C5 N1 1_555 1_555
H4 C5 1_555 1_555
N2 C2 1_555 1_555
H5 N2 1_555 1_555
C6 N2 1_555 1_555
O1 C6 1_555 1_555
C7 C6 1_555 1_555
H6 C7 1_555 1_555
C8 C7 1_555 1_555
H7 C8 1_555 1_555
H8 C8 1_555 1_555
C9 C8 1_555 1_555
H9 C9 1_555 1_555
C10 C9 1_555 1_555
H10 C10 1_555 1_555
H11 C10 1_555 1_555
H12 C10 1_555 1_555
C11 C9 1_555 1_555
H13 C11 1_555 1_555
H14 C11 1_555 1_555
H15 C11 1_555 1_555
N3 C7 1_555 1_555
H16 N3 1_555 1_555
C12 N3 1_555 1_555
O2 C12 1_555 1_555
C13 C12 1_555 1_555
C14 C13 1_555 1_555
H17 C14 1_555 1_555
N4 C14 1_555 1_555
C15 N4 1_555 1_555
H18 C15 1_555 1_555
C16 C15 1_555 1_555
H19 C16 1_555 1_555
C17 C13 1_555 1_555
H20 C17 1_555 1_555
O3 H21 1_555 1_555
H22 O3 1_555 1_555
Cu1A N4 1_555 1_555
Cu1B N4C 1_555 1_555
Br1C Cu1 1_555 1_555
N1C Cu1 1_555 1_555
C1C N1C 1_555 1_555
H1C C1C 1_555 1_555
C2C C1C 1_555 1_555
C3C C2C 1_555 1_555
H2C C3C 1_555 1_555
C4C C3C 1_555 1_555
H3C C4C 1_555 1_555
C5C N1C 1_555 1_555
H4C C5C 1_555 1_555
N2C C2C 1_555 1_555
H5C N2C 1_555 1_555
C6C N2C 1_555 1_555
O1C C6C 1_555 1_555
C7C C6C 1_555 1_555
H6C C7C 1_555 1_555
C8C C7C 1_555 1_555
H7C C8C 1_555 1_555
H8C C8C 1_555 1_555
C9C C8C 1_555 1_555
H9C C9C 1_555 1_555
C10C C9C 1_555 1_555
H10C C10C 1_555 1_555
H11C C10C 1_555 1_555
H12C C10C 1_555 1_555
C11C C9C 1_555 1_555
H13C C11C 1_555 1_555
H14C C11C 1_555 1_555
H15C C11C 1_555 1_555
N3C C7C 1_555 1_555
H16C N3C 1_555 1_555
C12C N3C 1_555 1_555
O2C C12C 1_555 1_555
C13C C12C 1_555 1_555
C14C C13C 1_555 1_555
H17C C14C 1_555 1_555
N4C C14C 1_555 1_555
N4B Cu1 1_555 1_555
N4E Cu1 1_555 1_555
C15C N4C 1_555 1_555
H18C C15C 1_555 1_555
C16C C15C 1_555 1_555
H19C C16C 1_555 1_555
C17C C13C 1_555 1_555
H20C C17C 1_555 1_555
C4 C5 1_555 1_555
C16 C17 1_555 1_555
C4C C5C 1_555 1_555
C16C C17C 1_555 1_555

#END
