
#######################################################################
#
#                 Cambridge Crystallographic Data Centre
#                                CCDC 
#
#######################################################################
#
# If this CIF has been generated from an entry in the Cambridge 
# Structural Database, then it will include bibliographic, chemical, 
# crystal, experimental, refinement or atomic coordinate data resulting 
# from the CCDC's data processing and validation procedures.
#
#######################################################################

data_PUWDOA
_chemical_formula_moiety         '(C57 H47 N1 O18 Zn3)n'
_symmetry_cell_setting           orthorhombic
_symmetry_space_group_name_H-M   'P n m a'
_symmetry_Int_Tables_number      62
_space_group_name_Hall           '-P 2ac 2n'
loop_
_symmetry_equiv_pos_site_id
_symmetry_equiv_pos_as_xyz
1 x,y,z
2 1/2-x,-y,1/2+z
3 1/2+x,1/2-y,1/2-z
4 -x,1/2+y,-z
5 -x,-y,-z
6 1/2+x,y,1/2-z
7 1/2-x,1/2+y,1/2+z
8 x,1/2-y,z
_cell_length_a                   17.158(6)
_cell_length_b                   21.591(7)
_cell_length_c                   25.308(8)
_cell_angle_alpha                90
_cell_angle_beta                 90
_cell_angle_gamma                90
_cell_volume                     9375.56
loop_
_atom_site_label
_atom_site_type_symbol
_atom_site_fract_x
_atom_site_fract_y
_atom_site_fract_z
Zn1 Zn 0.5050(1) 0.3350(1) 0.3869(1)
Zn2 Zn 0.6168(1) 0.2500 0.3171(1)
O1 O 0.5724(2) 0.3188(2) 0.2700(1)
O2 O 0.5057(2) 0.3854(2) 0.3219(2)
O3 O 0.9029(2) 0.6525(2) -0.0691(2)
O4 O 0.8291(2) 0.6824(2) -0.1364(2)
O5 O 0.0932(3) 0.6556(3) -0.0782(2)
O6 O 0.0611(5) 0.5639(4) -0.0610(4)
O7 O 0.7138(3) 0.2500 0.2690(2)
O8 O 0.5132(2) 0.2500 0.3585(2)
C1 C 0.5372(3) 0.3684(3) 0.2782(2)
C2 C 0.5272(3) 0.4128(3) 0.2319(2)
C3 C 0.5727(3) 0.4042(3) 0.1886(2)
C4 C 0.5653(3) 0.4433(3) 0.1458(2)
C5 C 0.5118(3) 0.4895(3) 0.1445(2)
C6 C 0.4651(4) 0.4992(4) 0.1906(3)
C7 C 0.4742(4) 0.4611(4) 0.2335(3)
C8 C 0.5011(3) 0.5299(4) 0.0968(3)
C9 C 0.5673(3) 0.5509(4) 0.0691(3)
C10 C 0.5606(3) 0.5861(4) 0.0232(2)
C11 C 0.4854(3) 0.6008(3) 0.0055(3)
C12 C 0.4194(3) 0.5798(4) 0.0315(3)
C13 C 0.4284(3) 0.5468(3) 0.0788(2)
C14 C 0.6327(4) 0.6070(4) -0.0061(3)
C15 C 0.7009(4) 0.6140(4) 0.0181(3)
C16 C 0.7681(4) 0.6316(4) -0.0080(3)
C17 C 0.7666(3) 0.6415(3) -0.0610(2)
C18 C 0.6955(4) 0.6320(3) -0.0883(3)
C19 C 0.6293(4) 0.6136(4) -0.0612(3)
C20 C 0.8379(3) 0.6617(3) -0.0916(3)
C21 C 0.3384(4) 0.5923(4) 0.0111(3)
C22 C 0.3204(5) 0.6417(5) -0.0170(4)
C23 C 0.2398(4) 0.6485(4) -0.0413(3)
C24 C 0.1892(5) 0.6021(5) -0.0345(3)
C25 C 0.2099(5) 0.5499(5) -0.0100(3)
C26 C 0.2826(4) 0.5439(6) 0.0123(3)
C27 C 0.1062(5) 0.6062(6) -0.0612(4)
H1 H 0.0342 0.5651 -0.0333
H3 H 0.6095 0.3714 0.1878
H4 H 0.5987 0.4377 0.1163
H5 H 0.4280 0.5319 0.1915
H6 H 0.4440 0.4678 0.2645
H7 H 0.6176 0.5408 0.0821
H8 H 0.4795 0.6259 -0.0251
H9 H 0.3836 0.5360 0.0989
H10 H 0.7036 0.6066 0.0551
H11 H 0.8154 0.6368 0.0111
H12 H 0.6932 0.6382 -0.1254
H13 H 0.5823 0.6055 -0.0797
H14 H 0.3581 0.6733 -0.0221
H15 H 0.2259 0.6845 -0.0607
H16 H 0.1740 0.5165 -0.0080
H17 H 0.2958 0.5060 0.0292
O1G O 0.5724(2) 0.1812(2) 0.2700(1)
O2G O 0.5057(2) 0.1146(2) 0.3219(2)
O3G O 0.9029(2) -0.1525(2) -0.0691(2)
O4G O 0.8291(2) -0.1824(2) -0.1364(2)
O5G O 0.0932(3) -0.1556(3) -0.0782(2)
O6G O 0.0611(5) -0.0639(4) -0.0610(4)
C1G C 0.5372(3) 0.1316(3) 0.2782(2)
C2G C 0.5272(3) 0.0872(3) 0.2319(2)
C3G C 0.5727(3) 0.0958(3) 0.1886(2)
C4G C 0.5653(3) 0.0567(3) 0.1458(2)
C5G C 0.5118(3) 0.0105(3) 0.1445(2)
C6G C 0.4651(4) 0.0008(4) 0.1906(3)
C7G C 0.4742(4) 0.0389(4) 0.2335(3)
C8G C 0.5011(3) -0.0299(4) 0.0968(3)
C9G C 0.5673(3) -0.0509(4) 0.0691(3)
C10G C 0.5606(3) -0.0861(4) 0.0232(2)
C11G C 0.4854(3) -0.1008(3) 0.0055(3)
C12G C 0.4194(3) -0.0798(4) 0.0315(3)
C13G C 0.4284(3) -0.0468(3) 0.0788(2)
C14G C 0.6327(4) -0.1070(4) -0.0061(3)
C15G C 0.7009(4) -0.1140(4) 0.0181(3)
C16G C 0.7681(4) -0.1316(4) -0.0080(3)
C17G C 0.7666(3) -0.1415(3) -0.0610(2)
C18G C 0.6955(4) -0.1320(3) -0.0883(3)
C19G C 0.6293(4) -0.1136(4) -0.0612(3)
C20G C 0.8379(3) -0.1617(3) -0.0916(3)
C21G C 0.3384(4) -0.0923(4) 0.0111(3)
C22G C 0.3204(5) -0.1417(5) -0.0170(4)
C23G C 0.2398(4) -0.1485(4) -0.0413(3)
C24G C 0.1892(5) -0.1021(5) -0.0345(3)
C25G C 0.2099(5) -0.0499(5) -0.0100(3)
C26G C 0.2826(4) -0.0439(6) 0.0123(3)
C27G C 0.1062(5) -0.1062(6) -0.0612(4)
H1G H 0.0342 -0.0651 -0.0333
H3G H 0.6095 0.1286 0.1878
H4G H 0.5987 0.0623 0.1163
H5G H 0.4280 -0.0319 0.1915
H6G H 0.4440 0.0322 0.2645
H7G H 0.6176 -0.0408 0.0821
H8G H 0.4795 -0.1259 -0.0251
H9G H 0.3836 -0.0360 0.0989
H10G H 0.7036 -0.1066 0.0551
H11G H 0.8154 -0.1368 0.0111
H12G H 0.6932 -0.1382 -0.1254
H13G H 0.5823 -0.1055 -0.0797
H14G H 0.3581 -0.1733 -0.0221
H15G H 0.2259 -0.1845 -0.0607
H16G H 0.1740 -0.0165 -0.0080
H17G H 0.2958 -0.0060 0.0292
Zn1G Zn 0.5050(1) 0.1650(1) 0.3869(1)
O3A O 0.5971(2) 0.3475(2) 0.4309(2)
O5A O 0.4068(3) 0.3444(3) 0.4218(2)
O4A O 0.6709(2) 0.3176(2) 0.3636(2)
O4F O 0.6709(2) 0.1824(2) 0.3636(2)
Zn1A Zn 0.9950(1) 0.6650(1) -0.1131(1)
Zn2A Zn 0.8832(1) 0.7500 -0.1829(1)
Zn1A_2 Zn -0.0050(1) 0.6650(1) -0.1131(1)
Zn1F Zn 0.9950(1) -0.1650(1) -0.1131(1)
Zn2A_2 Zn 0.8832(1) -0.2500 -0.1829(1)
Zn1F_2 Zn -0.0050(1) -0.1650(1) -0.1131(1)
O3F O 0.5971(2) 0.1525(2) 0.4309(2)
O5F O 0.4068(3) 0.1556(3) 0.4218(2)
O9 O 0.5314(8) 0.2500 0.0333(4)
C28 C 0.4808(12) 0.2500 0.0711(6)
N1 N 0.5138(8) 0.2500 0.1245(5)
C29 C 0.5918(12) 0.2500 0.1356(8)
C30 C 0.4516(13) 0.2500 0.1617(7)
H18 H 0.4262 0.2500 0.0647
O10 O 0.3945(5) 0.2500 0.2899(4)
O11 O 0.2738(6) 0.4460(6) 0.2814(5)
H25 H 0.2440(20) 0.4529(16) 0.2447(13)
H26 H 0.3080(20) 0.3884(18) 0.2886(15)
O12 O 1.0085(14) 0.7500 0.0644(8)
H27 H 0.9520(30) 0.7500 0.0400(20)
H28 H 1.0060(40) 0.7500 0.1100(30)
loop_
_geom_bond_atom_site_label_1
_geom_bond_atom_site_label_2
_geom_bond_site_symmetry_1
_geom_bond_site_symmetry_2
Zn1 O2 1_555 1_555
Zn2 O1 1_555 1_555
O1 C1 1_555 1_555
O2 C1 1_555 1_555
O3 C20 1_555 1_555
O4 C20 1_555 1_555
O5 C27 1_555 1_555
O6 C27 1_555 1_555
O7 Zn2 1_555 1_555
O8 Zn1 1_555 1_555
C1 C2 1_555 1_555
C2 C3 1_555 1_555
C3 C4 1_555 1_555
C4 C5 1_555 1_555
C5 C6 1_555 1_555
C6 C7 1_555 1_555
C7 C2 1_555 1_555
C8 C5 1_555 1_555
C9 C8 1_555 1_555
C10 C9 1_555 1_555
C11 C10 1_555 1_555
C12 C11 1_555 1_555
C13 C8 1_555 1_555
C14 C10 1_555 1_555
C15 C14 1_555 1_555
C16 C15 1_555 1_555
C17 C16 1_555 1_555
C18 C17 1_555 1_555
C19 C14 1_555 1_555
C20 C17 1_555 1_555
C21 C12 1_555 1_555
C22 C21 1_555 1_555
C23 C22 1_555 1_555
C24 C23 1_555 1_555
C25 C24 1_555 1_555
C26 C21 1_555 1_555
C27 C24 1_555 1_555
O9 C28 1_555 1_555
C28 N1 1_555 1_555
N1 C29 1_555 1_555
C30 N1 1_555 1_555
O11 H25 1_555 1_555
O12 H27 1_555 1_555
H1 O6 1_555 1_555
H3 C3 1_555 1_555
H4 C4 1_555 1_555
H5 C6 1_555 1_555
H6 C7 1_555 1_555
H7 C9 1_555 1_555
H8 C11 1_555 1_555
H9 C13 1_555 1_555
H10 C15 1_555 1_555
H11 C16 1_555 1_555
H12 C18 1_555 1_555
H13 C19 1_555 1_555
H14 C22 1_555 1_555
H15 C23 1_555 1_555
H16 C25 1_555 1_555
H17 C26 1_555 1_555
H18 C28 1_555 1_555
H26 O11 1_555 1_555
H28 O12 1_555 1_555
O1G Zn2 1_555 1_555
O2G C1G 1_555 1_555
O3G C20G 1_555 1_555
O4G C20G 1_555 1_555
O5G C27G 1_555 1_555
O6G C27G 1_555 1_555
C1G O1G 1_555 1_555
C2G C1G 1_555 1_555
C3G C2G 1_555 1_555
C4G C3G 1_555 1_555
C5G C4G 1_555 1_555
C6G C5G 1_555 1_555
C7G C2G 1_555 1_555
C8G C5G 1_555 1_555
C9G C8G 1_555 1_555
C10G C9G 1_555 1_555
C11G C10G 1_555 1_555
C12G C11G 1_555 1_555
C13G C8G 1_555 1_555
C14G C10G 1_555 1_555
C15G C14G 1_555 1_555
C16G C15G 1_555 1_555
C17G C16G 1_555 1_555
C18G C17G 1_555 1_555
C19G C14G 1_555 1_555
C20G C17G 1_555 1_555
C21G C12G 1_555 1_555
C22G C21G 1_555 1_555
C23G C22G 1_555 1_555
C24G C23G 1_555 1_555
C25G C24G 1_555 1_555
C26G C21G 1_555 1_555
C27G C24G 1_555 1_555
H1G O6G 1_555 1_555
H3G C3G 1_555 1_555
H4G C4G 1_555 1_555
H5G C6G 1_555 1_555
H6G C7G 1_555 1_555
H7G C9G 1_555 1_555
H8G C11G 1_555 1_555
H9G C13G 1_555 1_555
H10G C15G 1_555 1_555
H11G C16G 1_555 1_555
H12G C18G 1_555 1_555
H13G C19G 1_555 1_555
H14G C22G 1_555 1_555
H15G C23G 1_555 1_555
H16G C25G 1_555 1_555
H17G C26G 1_555 1_555
Zn1G O8 1_555 1_555
O3A Zn1 1_555 1_555
O5A Zn1 1_555 1_555
O4A Zn2 1_555 1_555
O4F Zn2 1_555 1_555
Zn1A O3 1_555 1_555
Zn2A O4 1_555 1_555
Zn1A_2 O5 1_555 1_555
Zn1F O3G 1_555 1_555
Zn2A_2 O4G 1_555 1_555
Zn1F_2 O5G 1_555 1_555
O3F Zn1G 1_555 1_555
O5F Zn1G 1_555 1_555
Zn2 O8 1_555 1_555
C12 C13 1_555 1_555
C18 C19 1_555 1_555
C25 C26 1_555 1_555
O2G Zn1G 1_555 1_555
C6G C7G 1_555 1_555
C12G C13G 1_555 1_555
C18G C19G 1_555 1_555
C25G C26G 1_555 1_555

#END
