
#######################################################################
#
#                 Cambridge Crystallographic Data Centre
#                                CCDC 
#
#######################################################################
#
# If this CIF has been generated from an entry in the Cambridge 
# Structural Database, then it will include bibliographic, chemical, 
# crystal, experimental, refinement or atomic coordinate data resulting 
# from the CCDC's data processing and validation procedures.
#
#######################################################################

data_PUWDAM
_chemical_formula_moiety         '(C29 H20 O10 Zn2)n'
_symmetry_cell_setting           tetragonal
_symmetry_space_group_name_H-M   'P 42/m m c'
_symmetry_Int_Tables_number      131
_space_group_name_Hall           '-P 4c 2'
loop_
_symmetry_equiv_pos_site_id
_symmetry_equiv_pos_as_xyz
1 x,y,z
2 -y,x,1/2+z
3 x,-y,-z
4 -x,-y,z
5 y,x,1/2-z
6 y,-x,1/2+z
7 -x,y,-z
8 -y,-x,1/2-z
9 -x,-y,-z
10 y,-x,1/2-z
11 -x,y,z
12 x,y,-z
13 -y,-x,1/2+z
14 -y,x,1/2-z
15 x,-y,z
16 y,x,1/2+z
_cell_length_a                   11.722(5)
_cell_length_b                   11.722(5)
_cell_length_c                   23.740(14)
_cell_angle_alpha                90
_cell_angle_beta                 90
_cell_angle_gamma                90
_cell_volume                     3262
loop_
_atom_site_label
_atom_site_type_symbol
_atom_site_fract_x
_atom_site_fract_y
_atom_site_fract_z
Zn1 Zn 0.3743(2) 0.0000 0.0000
O1 O 0.4065(9) 0.1193(8) 0.0597(3)
O2 O 0.214(2) 0.0000 0.0000
C1 C 0.5000 0.5000 0.2500
C2 C 0.5000 0.3964(14) 0.2097(5)
C3 C 0.3986(11) 0.3588(11) 0.1884(4)
C4 C 0.3991(11) 0.2735(11) 0.1439(4)
C5 C 0.5000 0.2392(14) 0.1241(7)
C6 C 0.5000 0.1502(17) 0.0774(7)
H1 H 0.1431 0.0533 0.0000
H2 H 0.3286 0.3879 0.2025
H3 H 0.3299 0.2432 0.1294
O1J O 0.5935(9) 0.1193(8) 0.0597(3)
C2C C 0.5000 0.6036(14) 0.2097(5)
C3C C 0.6014(11) 0.6412(11) 0.1884(4)
C4C C 0.6009(11) 0.7265(11) 0.1439(4)
C5C C 0.5000 0.7608(14) 0.1241(7)
C4N C 0.3991(11) 0.7265(11) 0.1439(4)
C3N C 0.3986(11) 0.6412(11) 0.1884(4)
H2N H 0.3286 0.6121 0.2025
H3N H 0.3299 0.7568 0.1294
C6C C 0.5000 0.8498(17) 0.0774(7)
O1C O 0.5935(9) 0.8807(8) 0.0597(3)
O1N O 0.4065(9) 0.8807(8) 0.0597(3)
H3C H 0.6701 0.7568 0.1294
H2C H 0.6714 0.6121 0.2025
C2D C 0.3964(14) 0.5000 0.2903(5)
C3D C 0.3588(11) 0.3986(11) 0.3116(4)
C4D C 0.2735(11) 0.3991(11) 0.3561(4)
C5D C 0.2392(14) 0.5000 0.3759(7)
C4I C 0.2735(11) 0.6009(11) 0.3561(4)
C3I C 0.3588(11) 0.6014(11) 0.3116(4)
H2I H 0.3879 0.6714 0.2975
H3I H 0.2432 0.6701 0.3706
C6D C 0.1502(17) 0.5000 0.4226(7)
O1D O 0.1193(8) 0.4065(9) 0.4403(3)
O1I O 0.1193(8) 0.5935(9) 0.4403(3)
H3D H 0.2432 0.3299 0.3706
H2D H 0.3879 0.3286 0.2975
C2G C 0.6036(14) 0.5000 0.2903(5)
C3G C 0.6412(11) 0.6014(11) 0.3116(4)
C4G C 0.7265(11) 0.6009(11) 0.3561(4)
C5G C 0.7608(14) 0.5000 0.3759(7)
C4M C 0.7265(11) 0.3991(11) 0.3561(4)
C3M C 0.6412(11) 0.3986(11) 0.3116(4)
H2M H 0.6121 0.3286 0.2975
H3M H 0.7568 0.3299 0.3706
C6G C 0.8498(17) 0.5000 0.4226(7)
O1G O 0.8807(8) 0.5935(9) 0.4403(3)
O1M O 0.8807(8) 0.4065(9) 0.4403(3)
H3G H 0.7568 0.6701 0.3706
H2G H 0.6121 0.6714 0.2975
C3J C 0.6014(11) 0.3588(11) 0.1884(4)
C4J C 0.6009(11) 0.2735(11) 0.1439(4)
H3J H 0.6701 0.2432 0.1294
H2J H 0.6714 0.3879 0.2025
H1B H 0.1431 -0.0533 0.0000
Zn1J Zn 0.6257(2) 0.0000 0.0000
O2J O 0.786(2) 0.0000 0.0000
H1J H 0.8569 0.0533 0.0000
H1H H 0.8569 -0.0533 0.0000
O1B O 0.4065(9) -0.1193(8) -0.0597(3)
O1K O 0.4065(9) 0.1193(8) -0.0597(3)
O1N_2 O 0.4065(9) -0.1193(8) 0.0597(3)
Zn1C Zn 0.6257(2) 1.0000 0.0000
Zn1_2 Zn 0.3743(2) 1.0000 0.0000
Zn1A Zn -0.0000 0.3743(2) 0.5000
Zn1E Zn -0.0000 0.6257(2) 0.5000
Zn1E_2 Zn 1.0000 0.6257(2) 0.5000
Zn1A_2 Zn 1.0000 0.3743(2) 0.5000
O1C_2 O 0.5935(9) -0.1193(8) 0.0597(3)
O1F O 0.5935(9) 0.1193(8) -0.0597(3)
O1H O 0.5935(9) -0.1193(8) -0.0597(3)
loop_
_geom_bond_atom_site_label_1
_geom_bond_atom_site_label_2
_geom_bond_site_symmetry_1
_geom_bond_site_symmetry_2
Zn1 O1 1_555 1_555
O1 C6 1_555 1_555
O2 Zn1 1_555 1_555
C1 C2 1_555 1_555
C2 C3 1_555 1_555
C3 C4 1_555 1_555
C4 C5 1_555 1_555
C5 C6 1_555 1_555
C6 O1J 1_555 1_555
H1 O2 1_555 1_555
H2 C3 1_555 1_555
H3 C4 1_555 1_555
O1J Zn1J 1_555 1_555
C2C C1 1_555 1_555
C3C C2C 1_555 1_555
C4C C3C 1_555 1_555
C5C C4C 1_555 1_555
C4N C5C 1_555 1_555
C3N C2C 1_555 1_555
H2N C3N 1_555 1_555
H3N C4N 1_555 1_555
C6C C5C 1_555 1_555
O1C C6C 1_555 1_555
O1N C6C 1_555 1_555
H3C C4C 1_555 1_555
H2C C3C 1_555 1_555
C2D C1 1_555 1_555
C3D C2D 1_555 1_555
C4D C3D 1_555 1_555
C5D C4D 1_555 1_555
C4I C5D 1_555 1_555
C3I C2D 1_555 1_555
H2I C3I 1_555 1_555
H3I C4I 1_555 1_555
C6D C5D 1_555 1_555
O1D C6D 1_555 1_555
O1I C6D 1_555 1_555
H3D C4D 1_555 1_555
H2D C3D 1_555 1_555
C2G C1 1_555 1_555
C3G C2G 1_555 1_555
C4G C3G 1_555 1_555
C5G C4G 1_555 1_555
C4M C5G 1_555 1_555
C3M C2G 1_555 1_555
H2M C3M 1_555 1_555
H3M C4M 1_555 1_555
C6G C5G 1_555 1_555
O1G C6G 1_555 1_555
O1M C6G 1_555 1_555
H3G C4G 1_555 1_555
H2G C3G 1_555 1_555
C3J C2 1_555 1_555
C4J C5 1_555 1_555
H3J C4J 1_555 1_555
H2J C3J 1_555 1_555
H1B O2 1_555 1_555
Zn1J O2J 1_555 1_555
O2J H1J 1_555 1_555
H1H O2J 1_555 1_555
O1B Zn1 1_555 1_555
O1K Zn1 1_555 1_555
O1N_2 Zn1 1_555 1_555
Zn1C O1C 1_555 1_555
Zn1_2 O1N 1_555 1_555
Zn1A O1D 1_555 1_555
Zn1E O1I 1_555 1_555
Zn1E_2 O1G 1_555 1_555
Zn1A_2 O1M 1_555 1_555
O1C_2 Zn1J 1_555 1_555
O1F Zn1J 1_555 1_555
O1H Zn1J 1_555 1_555
C4N C3N 1_555 1_555
C4I C3I 1_555 1_555
C4M C3M 1_555 1_555
C3J C4J 1_555 1_555

#END
