
#######################################################################
#
#                 Cambridge Crystallographic Data Centre
#                                CCDC 
#
#######################################################################
#
# If this CIF has been generated from an entry in the Cambridge 
# Structural Database, then it will include bibliographic, chemical, 
# crystal, experimental, refinement or atomic coordinate data resulting 
# from the CCDC's data processing and validation procedures.
#
#######################################################################

data_PUWDIU
_chemical_formula_moiety         'C46 H18 N4 O40 Zn16'
_symmetry_cell_setting           tetragonal
_symmetry_space_group_name_H-M   'I 4 c m'
_symmetry_Int_Tables_number      108
_space_group_name_Hall           'I 4 -2c'
loop_
_symmetry_equiv_pos_site_id
_symmetry_equiv_pos_as_xyz
1 x,y,z
2 -y,x,z
3 1/2-x,1/2+y,z
4 -x,-y,z
5 1/2-y,1/2-x,z
6 y,-x,z
7 1/2+x,1/2-y,z
8 1/2+y,1/2+x,z
9 1/2+x,1/2+y,1/2+z
10 1/2-y,1/2+x,1/2+z
11 -x,y,1/2+z
12 1/2-x,1/2-y,1/2+z
13 -y,-x,1/2+z
14 1/2+y,1/2-x,1/2+z
15 x,-y,1/2+z
16 y,x,1/2+z
_cell_length_a                   20.6571(7)
_cell_length_b                   20.6571(7)
_cell_length_c                   17.8400(6)
_cell_angle_alpha                90
_cell_angle_beta                 90
_cell_angle_gamma                90
_cell_volume                     7612.61
loop_
_atom_site_label
_atom_site_type_symbol
_atom_site_fract_x
_atom_site_fract_y
_atom_site_fract_z
O10 O 0.0739(3) 0.4261 -0.0357(5)
O11 O 0.5000 0.5000 0.2282(6)
Zn1 Zn 0.24525(4) 0.37745(4) 0.0000
Zn2 Zn 0.15972(4) 0.3403 0.14506(8)
O1 O 0.2604(2) 0.3364(3) 0.1607(3)
O2 O 0.3113(2) 0.3238(3) 0.0514(3)
O3 O 0.5590(2) 0.1671(2) 0.1369(3)
O4 O 0.5393(3) 0.2463(3) 0.0529(3)
O5 O 0.4478(3) 0.1890(3) 0.3836(3)
O6 O 0.3713(3) 0.2648(3) 0.3935(3)
O7 O 0.1461(3) 0.3539 0.2564(4)
O8 O 0.1623(2) 0.3377 0.0270(4)
N1 N 0.1757(7) 0.3503 0.3765(8)
C1 C 0.3625(3) 0.2836(4) 0.1586(4)
C2 C 0.4162(4) 0.2646(4) 0.1189(4)
C3 C 0.4668(3) 0.2323(3) 0.1536(4)
C4 C 0.4636(4) 0.2188(4) 0.2307(4)
C5 C 0.4105(4) 0.2402(4) 0.2717(4)
C6 C 0.3602(4) 0.2723(4) 0.2376(4)
C7 C 0.3061(4) 0.3164(4) 0.1216(4)
C8 C 0.5271(4) 0.2118(4) 0.1123(4)
C9 C 0.4111(4) 0.2285(4) 0.3560(4)
C10 C 0.1704(5) 0.3296 0.3035(9)
C11 C 0.1272(8) 0.3970 0.4065(10)
C12 C 0.2160(13) 0.3166 0.4350(13)
H1 H 0.4184 0.2744 0.0668
H2 H 0.4965 0.1933 0.2545
H3 H 0.3239 0.2870 0.2661
H4 H 0.2011 0.2989 0.2948
N1D N 0.1497 0.3243(7) 0.3765(8)
C11D C 0.1030 0.3728(8) 0.4065(10)
C12D C 0.1834 0.2840(13) 0.4350(13)
O1D O 0.1636(3) 0.2396(2) 0.1607(3)
O2D O 0.1762(3) 0.1887(2) 0.0514(3)
O3D O 0.3329(2) -0.0590(2) 0.1369(3)
O4D O 0.2537(3) -0.0393(3) 0.0529(3)
O5D O 0.3110(3) 0.0522(3) 0.3836(3)
O6D O 0.2352(3) 0.1287(3) 0.3935(3)
C1D C 0.2164(4) 0.1375(3) 0.1586(4)
C2D C 0.2354(4) 0.0838(4) 0.1189(4)
C3D C 0.2677(3) 0.0332(3) 0.1536(4)
C4D C 0.2812(4) 0.0364(4) 0.2307(4)
C5D C 0.2598(4) 0.0895(4) 0.2717(4)
C6D C 0.2277(4) 0.1398(4) 0.2376(4)
C7D C 0.1836(4) 0.1939(4) 0.1216(4)
C8D C 0.2882(4) -0.0271(4) 0.1123(4)
C9D C 0.2715(4) 0.0889(4) 0.3560(4)
H1D H 0.2256 0.0816 0.0668
H2D H 0.3067 0.0035 0.2545
H3D H 0.2130 0.1761 0.2661
O1E O 0.3364(3) 0.7396(2) 0.1607(3)
O2E O 0.3238(3) 0.6887(2) 0.0514(3)
O3E O 0.1671(2) 0.4410(2) 0.1369(3)
O4E O 0.2463(3) 0.4607(3) 0.0529(3)
O5E O 0.1890(3) 0.5522(3) 0.3836(3)
O6E O 0.2648(3) 0.6287(3) 0.3935(3)
C1E C 0.2836(4) 0.6375(3) 0.1586(4)
C2E C 0.2646(4) 0.5838(4) 0.1189(4)
C3E C 0.2323(3) 0.5332(3) 0.1536(4)
C4E C 0.2188(4) 0.5364(4) 0.2307(4)
C5E C 0.2402(4) 0.5895(4) 0.2717(4)
C6E C 0.2723(4) 0.6398(4) 0.2376(4)
C7E C 0.3164(4) 0.6939(4) 0.1216(4)
C8E C 0.2118(4) 0.4729(4) 0.1123(4)
C9E C 0.2285(4) 0.5889(4) 0.3560(4)
H1E H 0.2744 0.5816 0.0668
H2E H 0.1933 0.5035 0.2545
H3E H 0.2870 0.6761 0.2661
O1F O -0.2396(2) 0.1636(3) 0.1607(3)
O2F O -0.1887(2) 0.1762(3) 0.0514(3)
O3F O 0.0590(2) 0.3329(2) 0.1369(3)
O4F O 0.0393(3) 0.2537(3) 0.0529(3)
O5F O -0.0522(3) 0.3110(3) 0.3836(3)
O6F O -0.1287(3) 0.2352(3) 0.3935(3)
C1F C -0.1375(3) 0.2164(4) 0.1586(4)
C2F C -0.0838(4) 0.2354(4) 0.1189(4)
C3F C -0.0332(3) 0.2677(3) 0.1536(4)
C4F C -0.0364(4) 0.2812(4) 0.2307(4)
C5F C -0.0895(4) 0.2598(4) 0.2717(4)
C6F C -0.1398(4) 0.2277(4) 0.2376(4)
C7F C -0.1939(4) 0.1836(4) 0.1216(4)
C8F C 0.0271(4) 0.2882(4) 0.1123(4)
C9F C -0.0889(4) 0.2715(4) 0.3560(4)
H1F H -0.0816 0.2256 0.0668
H2F H -0.0035 0.3067 0.2545
H3F H -0.1761 0.2130 0.2661
Zn2E Zn 0.3403 0.84028(4) 0.14506(8)
Zn1D Zn 0.12255(4) 0.25475(4) 0.0000
Zn1E Zn 0.37745(4) 0.75475(4) 0.0000
Zn1F Zn -0.25475(4) 0.12255(4) 0.0000
O7E O 0.3539 0.8539(3) 0.2564(4)
N1E N 0.3503 0.8243(7) 0.3765(8)
C10E C 0.3296 0.8296(5) 0.3035(9)
C11E C 0.3970 0.8728(8) 0.4065(10)
C12E C 0.3166 0.7840(13) 0.4350(13)
H4E H 0.2989 0.7989 0.2948
N1B N 0.3243(7) 0.8503 0.3765(8)
C11B C 0.3728(8) 0.8970 0.4065(10)
C12B C 0.2840(13) 0.8166 0.4350(13)
O8E O 0.3377 0.8377(2) 0.0270(4)
O6O O 0.2648(3) 0.3713(3) -0.1065(3)
Zn2A Zn 0.6597 0.15972(4) 0.14506(8)
Zn1A Zn 0.62255(4) 0.24525(4) 0.0000
Zn1O Zn 0.37745(4) 0.24525(4) 0.5000
Zn2B Zn 0.34028(4) -0.1597 0.14506(8)
Zn1B Zn 0.25475(4) -0.12255(4) 0.0000
Zn1K Zn 0.25475(4) 0.12255(4) 0.5000
Zn1N Zn 0.24525(4) 0.62255(4) 0.5000
Zn2A_2 Zn -0.3403 0.15972(4) 0.14506(8)
Zn1M Zn -0.12255(4) 0.25475(4) 0.5000
O1B O 0.2396(2) 0.8364(3) 0.1607(3)
O3C O 0.4410(2) 0.8329(2) 0.1369(3)
O3D_2 O 0.3329(2) 0.9410(2) 0.1369(3)
O6K O 0.1287(3) 0.2352(3) -0.1065(3)
O4C O 0.4607(3) 0.7537(3) 0.0529(3)
O6N O 0.3713(3) 0.7352(3) -0.1065(3)
O4G O -0.2537(3) 0.0393(3) 0.0529(3)
O6M O -0.2352(3) 0.1287(3) -0.1065(3)
O8A O -0.3377 0.1623(2) 0.0270(4)
Zn1B_2 Zn 0.25475(4) 0.87745(4) 0.0000
loop_
_geom_bond_atom_site_label_1
_geom_bond_atom_site_label_2
_geom_bond_site_symmetry_1
_geom_bond_site_symmetry_2
Zn1 O2 1_555 1_555
Zn2 O1 1_555 1_555
O1 C7 1_555 1_555
O2 C7 1_555 1_555
O3 C8 1_555 1_555
O4 C8 1_555 1_555
O5 C9 1_555 1_555
O6 C9 1_555 1_555
O7 Zn2 1_555 1_555
O8 Zn1 1_555 1_555
N1 C10 1_555 1_555
C1 C2 1_555 1_555
C2 C3 1_555 1_555
C3 C4 1_555 1_555
C4 C5 1_555 1_555
C5 C6 1_555 1_555
C6 C1 1_555 1_555
C7 C1 1_555 1_555
C8 C3 1_555 1_555
C9 C5 1_555 1_555
C10 O7 1_555 1_555
C11 N1 1_555 1_555
C12 N1 1_555 1_555
H1 C2 1_555 1_555
H2 C4 1_555 1_555
H3 C6 1_555 1_555
H4 C10 1_555 1_555
N1D N1 1_555 1_555
C11D N1 1_555 1_555
C12D N1 1_555 1_555
O1D Zn2 1_555 1_555
O2D C7D 1_555 1_555
O3D C8D 1_555 1_555
O4D C8D 1_555 1_555
O5D C9D 1_555 1_555
O6D C9D 1_555 1_555
C1D C2D 1_555 1_555
C2D C3D 1_555 1_555
C3D C4D 1_555 1_555
C4D C5D 1_555 1_555
C5D C6D 1_555 1_555
C6D C1D 1_555 1_555
C7D O1D 1_555 1_555
C8D C3D 1_555 1_555
C9D C5D 1_555 1_555
H1D C2D 1_555 1_555
H2D C4D 1_555 1_555
H3D C6D 1_555 1_555
O1E C7E 1_555 1_555
O2E C7E 1_555 1_555
O3E Zn2 1_555 1_555
O4E Zn1 1_555 1_555
O5E C9E 1_555 1_555
O6E C9E 1_555 1_555
C1E C2E 1_555 1_555
C2E C3E 1_555 1_555
C3E C4E 1_555 1_555
C4E C5E 1_555 1_555
C5E C6E 1_555 1_555
C6E C1E 1_555 1_555
C7E C1E 1_555 1_555
C8E O3E 1_555 1_555
C9E C5E 1_555 1_555
H1E C2E 1_555 1_555
H2E C4E 1_555 1_555
H3E C6E 1_555 1_555
O1F C7F 1_555 1_555
O2F C7F 1_555 1_555
O3F Zn2 1_555 1_555
O4F C8F 1_555 1_555
O5F C9F 1_555 1_555
O6F C9F 1_555 1_555
C1F C2F 1_555 1_555
C2F C3F 1_555 1_555
C3F C4F 1_555 1_555
C4F C5F 1_555 1_555
C5F C6F 1_555 1_555
C6F C1F 1_555 1_555
C7F C1F 1_555 1_555
C8F O3F 1_555 1_555
C9F C5F 1_555 1_555
H1F C2F 1_555 1_555
H2F C4F 1_555 1_555
H3F C6F 1_555 1_555
Zn2E O1E 1_555 1_555
Zn1D O8 1_555 1_555
Zn1E O2E 1_555 1_555
Zn1F O2F 1_555 1_555
O7E Zn2E 1_555 1_555
N1E C10E 1_555 1_555
C10E O7E 1_555 1_555
C11E N1E 1_555 1_555
C12E N1E 1_555 1_555
H4E C10E 1_555 1_555
N1B N1E 1_555 1_555
C11B N1E 1_555 1_555
C12B N1E 1_555 1_555
O8E Zn2E 1_555 1_555
O6O Zn1 1_555 1_555
Zn2A O3 1_555 1_555
Zn1A O4 1_555 1_555
Zn1O O6 1_555 1_555
Zn2B O3D 1_555 1_555
Zn1B O4D 1_555 1_555
Zn1K O6D 1_555 1_555
Zn1N O6E 1_555 1_555
Zn2A_2 O1F 1_555 1_555
Zn1M O6F 1_555 1_555
O1B Zn2E 1_555 1_555
O3C Zn2E 1_555 1_555
O3D_2 Zn2E 1_555 1_555
O6K Zn1D 1_555 1_555
O4C Zn1E 1_555 1_555
O6N Zn1E 1_555 1_555
O4G Zn1F 1_555 1_555
O6M Zn1F 1_555 1_555
O8A Zn1F 1_555 1_555
Zn1B_2 O8E 1_555 1_555
Zn2 O8 1_555 1_555
C10 N1D 1_555 1_555
C11 N1D 1_555 1_555
C11 C11D 1_555 1_555
C12 N1D 1_555 1_555
C12 C12D 1_555 1_555
N1D C11D 1_555 1_555
N1D C12D 1_555 1_555
O2D Zn1D 1_555 1_555
C1D C7D 1_555 1_555
O4E C8E 1_555 1_555
C3E C8E 1_555 1_555
O4F Zn1D 1_555 1_555
C3F C8F 1_555 1_555
Zn1E O8E 1_555 1_555
C10E N1B 1_555 1_555
C11E N1B 1_555 1_555
C11E C11B 1_555 1_555
C12E N1B 1_555 1_555
C12E C12B 1_555 1_555
N1B C11B 1_555 1_555
N1B C12B 1_555 1_555
Zn2A_2 O8A 1_555 1_555

#END
