
#######################################################################
#
#                 Cambridge Crystallographic Data Centre
#                                CCDC 
#
#######################################################################
#
# If this CIF has been generated from an entry in the Cambridge 
# Structural Database, then it will include bibliographic, chemical, 
# crystal, experimental, refinement or atomic coordinate data resulting 
# from the CCDC's data processing and validation procedures.
#
#######################################################################

data_ILUHUT
_chemical_formula_moiety         '(C42 H34 Co3 N6 O32 Pr2)n'
_symmetry_cell_setting           hexagonal
_symmetry_space_group_name_H-M   'P 6/m c c'
_symmetry_Int_Tables_number      192
_space_group_name_Hall           '-P 6 2c'
loop_
_symmetry_equiv_pos_site_id
_symmetry_equiv_pos_as_xyz
1 x,y,z
2 -y,x-y,z
3 -x+y,-x,z
4 -x,-y,z
5 y,-x+y,z
6 x-y,x,z
7 y,x,1/2-z
8 x-y,-y,1/2-z
9 -x,-x+y,1/2-z
10 -y,-x,1/2-z
11 -x+y,y,1/2-z
12 x,x-y,1/2-z
13 -x,-y,-z
14 y,-x+y,-z
15 x-y,x,-z
16 x,y,-z
17 -y,x-y,-z
18 -x+y,-x,-z
19 -y,-x,1/2+z
20 -x+y,y,1/2+z
21 x,x-y,1/2+z
22 y,x,1/2+z
23 x-y,-y,1/2+z
24 -x,-x+y,1/2+z
_cell_length_a                   15.4997(9)
_cell_length_b                   15.4997(9)
_cell_length_c                   15.2348(17)
_cell_angle_alpha                90
_cell_angle_beta                 90
_cell_angle_gamma                120
_cell_volume                     3169.67
loop_
_atom_site_label
_atom_site_type_symbol
_atom_site_fract_x
_atom_site_fract_y
_atom_site_fract_z
Pr1 Pr 0.6667 0.3333 -0.2500
Co1 Co 1.0000 0.5000 -0.5000
O1 O 0.80470(19) 0.41871(34) -0.35917(17)
O2 O 0.9424(2) 0.5550(4) -0.40580(19)
O3 O 1.1329(3) 0.6437(4) -0.5000
N1 N 0.7629(3) 0.52580(34) -0.2500
C1 C 0.8655(5) 0.5123(3) -0.3612(2)
C2 C 0.8408(5) 0.5764(3) -0.3037(2)
C3 C 0.8933(5) 0.6790(3) -0.3059(3)
H1 H 0.9465 0.7130 -0.3443
C4 C 0.8650(4) 0.7299(4) -0.2500
H2 H 0.8996 0.7992 -0.2500
Pr1C Pr 1.3333 0.6667 -0.2500
Pr1O Pr 0.6667 0.3333 -0.7500
Co1G Co 0.5000 0.5000 0.0000
Co1A Co 0.5000 0.5000 -0.5000
Co1F Co 0.5000 0.0000 0.0000
Co1B Co 0.5000 0.0000 -0.5000
Co1H Co 1.0000 0.5000 0.0000
Co1G_2 Co 1.5000 0.5000 0.0000
Co1G_3 Co 0.5000 0.5000 -1.0000
Co1F_2 Co 0.5000 0.0000 -1.0000
O1J O 0.61401(39) 0.41871(34) -0.14083(17)
O1A O 0.58129(34) 0.38599(39) -0.35917(17)
O1I O 0.58129(34) 0.19530(19) -0.14083(17)
O1B O 0.61401(39) 0.19530(19) -0.35917(17)
O1K O 0.80470(19) 0.38599(39) -0.14083(17)
O1C O 1.19530(19) 0.58129(34) -0.35917(17)
O1G O 1.38599(39) 0.58129(34) -0.14083(17)
O1O O 0.80470(19) 0.41871(34) -0.64083(17)
O1S O 0.61401(39) 0.41871(34) -0.85917(17)
O1P O 0.58129(34) 0.38599(39) -0.64083(17)
O1R O 0.58129(34) 0.19530(19) -0.85917(17)
O1Q O 0.61401(39) 0.19530(19) -0.64083(17)
O1T O 0.80470(19) 0.38599(39) -0.85917(17)
O2J O 0.6126(4) 0.5550(4) -0.09420(19)
O2A O 0.4450(4) 0.3874(4) -0.40580(19)
O2I O 0.4450(4) 0.0576(2) -0.09420(19)
O2B O 0.6126(4) 0.0576(2) -0.40580(19)
O2K O 0.9424(2) 0.3874(4) -0.09420(19)
O2C O 1.0576(2) 0.4450(4) -0.40580(19)
O2G O 1.3874(4) 0.4450(4) -0.09420(19)
O2L O 1.0576(2) 0.4450(4) -0.59420(19)
O2O O 0.9424(2) 0.5550(4) -0.59420(19)
O2S O 0.6126(4) 0.5550(4) -0.90580(19)
O2D O 0.5550(4) 0.6126(4) -0.40580(19)
O2M O 0.5550(4) 0.6126(4) -0.59420(19)
O2P O 0.4450(4) 0.3874(4) -0.59420(19)
O2R O 0.4450(4) 0.0576(2) -0.90580(19)
O2E O 0.3874(4) -0.0576(2) -0.40580(19)
O2N O 0.3874(4) -0.0576(2) -0.59420(19)
O2Q O 0.6126(4) 0.0576(2) -0.59420(19)
O3C O 0.8671(3) 0.3563(4) -0.5000
O3A O 0.3563(4) 0.4892(5) -0.5000
O3D O 0.6437(4) 0.5108(5) -0.5000
O3B O 0.5108(5) -0.1329(3) -0.5000
O3E O 0.4892(5) 0.1329(3) -0.5000
N1A N 0.47420(34) 0.23710(45) -0.2500
N1B N 0.76290(45) 0.2371(3) -0.2500
N1C N 1.2371(3) 0.47420(34) -0.2500
N1O N 0.7629(3) 0.52580(34) -0.7500
N1P N 0.47420(34) 0.23710(45) -0.7500
N1Q N 0.76290(45) 0.2371(3) -0.7500
C1J C 0.6468(6) 0.5123(3) -0.1388(2)
C1A C 0.4877(3) 0.3532(6) -0.3612(2)
C1I C 0.4877(3) 0.1345(5) -0.1388(2)
C1B C 0.6468(6) 0.1345(5) -0.3612(2)
C1K C 0.8655(5) 0.3532(6) -0.1388(2)
C1C C 1.1345(5) 0.4877(3) -0.3612(2)
C1G C 1.3532(6) 0.4877(3) -0.1388(2)
C1O C 0.8655(5) 0.5123(3) -0.6388(2)
C1S C 0.6468(6) 0.5123(3) -0.8612(2)
C1P C 0.4877(3) 0.3532(6) -0.6388(2)
C1R C 0.4877(3) 0.1345(5) -0.8612(2)
C2J C 0.7356(6) 0.5764(3) -0.1963(2)
C2A C 0.4236(3) 0.2644(6) -0.3037(2)
C2I C 0.4236(3) 0.1592(5) -0.1963(2)
C2B C 0.7356(6) 0.1592(5) -0.3037(2)
C2K C 0.8408(5) 0.2644(6) -0.1963(2)
C2C C 1.1592(5) 0.4236(3) -0.3037(2)
C2G C 1.2644(6) 0.4236(3) -0.1963(2)
C2O C 0.8408(5) 0.5764(3) -0.6963(2)
C2S C 0.7356(6) 0.5764(3) -0.8037(2)
C2P C 0.4236(3) 0.2644(6) -0.6963(2)
C2R C 0.4236(3) 0.1592(5) -0.8037(2)
C3J C 0.7857(6) 0.6790(3) -0.1941(3)
C3A C 0.3210(3) 0.2143(6) -0.3059(3)
C3I C 0.3210(3) 0.1067(5) -0.1941(3)
C3B C 0.7857(6) 0.1067(5) -0.3059(3)
C3K C 0.8933(5) 0.2143(6) -0.1941(3)
C3C C 1.1067(5) 0.3210(3) -0.3059(3)
C3G C 1.2143(6) 0.3210(3) -0.1941(3)
C3O C 0.8933(5) 0.6790(3) -0.6941(3)
C3S C 0.7857(6) 0.6790(3) -0.8059(3)
C3P C 0.3210(3) 0.2143(6) -0.6941(3)
C3R C 0.3210(3) 0.1067(5) -0.8059(3)
H1J H 0.7665 0.7130 -0.1557
H1A H 0.2870 0.2335 -0.3443
H1I H 0.2870 0.0535 -0.1557
H1B H 0.7665 0.0535 -0.3443
H1K H 0.9465 0.2335 -0.1557
H1C H 1.0535 0.2870 -0.3443
H1G H 1.2335 0.2870 -0.1557
H1O H 0.9465 0.7130 -0.6557
H1S H 0.7665 0.7130 -0.8443
H1P H 0.2870 0.2335 -0.6557
H1R H 0.2870 0.0535 -0.8443
C4A C 0.2701(4) 0.1351(6) -0.2500
C4B C 0.8649(6) 0.1350(4) -0.2500
C4C C 1.1350(4) 0.2701(4) -0.2500
C4O C 0.8650(4) 0.7299(4) -0.7500
C4P C 0.2701(4) 0.1351(6) -0.7500
H2A H 0.2008 0.1004 -0.2500
H2B H 0.8996 0.1004 -0.2500
H2C H 1.1004 0.2008 -0.2500
H2O H 0.8996 0.7992 -0.7500
H2P H 0.2008 0.1004 -0.7500
O4 O 0.7842(9) 0.0564(12) 0.0000
O5 O 1.0000 0.0000 0.184(4)
loop_
_geom_bond_atom_site_label_1
_geom_bond_atom_site_label_2
_geom_bond_site_symmetry_1
_geom_bond_site_symmetry_2
Pr1 O1 1_555 1_555
Co1 O2 1_555 1_555
O1 C1 1_555 1_555
O2 C1 1_555 1_555
O3 Co1 1_555 1_555
N1 Pr1 1_555 1_555
C1 C2 1_555 1_555
C2 N1 1_555 1_555
C3 C2 1_555 1_555
H1 C3 1_555 1_555
C4 C3 1_555 1_555
H2 C4 1_555 1_555
Pr1C O1C 1_555 1_555
Pr1O O1O 1_555 1_555
Co1G O2J 1_555 1_555
Co1A O2A 1_555 1_555
Co1F O2I 1_555 1_555
Co1B O2B 1_555 1_555
Co1H O2K 1_555 1_555
Co1G_2 O2G 1_555 1_555
Co1G_3 O2S 1_555 1_555
Co1F_2 O2R 1_555 1_555
O1J Pr1 1_555 1_555
O1A Pr1 1_555 1_555
O1I Pr1 1_555 1_555
O1B Pr1 1_555 1_555
O1K Pr1 1_555 1_555
O1C C1C 1_555 1_555
O1G Pr1C 1_555 1_555
O1O C1O 1_555 1_555
O1S Pr1O 1_555 1_555
O1P Pr1O 1_555 1_555
O1R Pr1O 1_555 1_555
O1Q Pr1O 1_555 1_555
O1T Pr1O 1_555 1_555
O2J C1J 1_555 1_555
O2A C1A 1_555 1_555
O2I C1I 1_555 1_555
O2B C1B 1_555 1_555
O2K C1K 1_555 1_555
O2C Co1 1_555 1_555
O2G C1G 1_555 1_555
O2L Co1 1_555 1_555
O2O Co1 1_555 1_555
O2S C1S 1_555 1_555
O2D Co1A 1_555 1_555
O2M Co1A 1_555 1_555
O2P Co1A 1_555 1_555
O2R C1R 1_555 1_555
O2E Co1B 1_555 1_555
O2N Co1B 1_555 1_555
O2Q Co1B 1_555 1_555
O3C Co1 1_555 1_555
O3A Co1A 1_555 1_555
O3D Co1A 1_555 1_555
O3B Co1B 1_555 1_555
O3E Co1B 1_555 1_555
N1A Pr1 1_555 1_555
N1B Pr1 1_555 1_555
N1C Pr1C 1_555 1_555
N1O Pr1O 1_555 1_555
N1P Pr1O 1_555 1_555
N1Q Pr1O 1_555 1_555
C1J O1J 1_555 1_555
C1A O1A 1_555 1_555
C1I O1I 1_555 1_555
C1B O1B 1_555 1_555
C1K O1K 1_555 1_555
C1C O2C 1_555 1_555
C1G O1G 1_555 1_555
C1O O2O 1_555 1_555
C1S O1S 1_555 1_555
C1P O1P 1_555 1_555
C1R O1R 1_555 1_555
C2J N1 1_555 1_555
C2A N1A 1_555 1_555
C2I N1A 1_555 1_555
C2B N1B 1_555 1_555
C2K N1B 1_555 1_555
C2C N1C 1_555 1_555
C2G N1C 1_555 1_555
C2O N1O 1_555 1_555
C2S N1O 1_555 1_555
C2P N1P 1_555 1_555
C2R N1P 1_555 1_555
C3J C4 1_555 1_555
C3A C2A 1_555 1_555
C3I C2I 1_555 1_555
C3B C2B 1_555 1_555
C3K C2K 1_555 1_555
C3C C2C 1_555 1_555
C3G C2G 1_555 1_555
C3O C2O 1_555 1_555
C3S C2S 1_555 1_555
C3P C2P 1_555 1_555
C3R C2R 1_555 1_555
H1J C3J 1_555 1_555
H1A C3A 1_555 1_555
H1I C3I 1_555 1_555
H1B C3B 1_555 1_555
H1K C3K 1_555 1_555
H1C C3C 1_555 1_555
H1G C3G 1_555 1_555
H1O C3O 1_555 1_555
H1S C3S 1_555 1_555
H1P C3P 1_555 1_555
H1R C3R 1_555 1_555
C4A C3A 1_555 1_555
C4B C3B 1_555 1_555
C4C C3C 1_555 1_555
C4O C3O 1_555 1_555
C4P C3P 1_555 1_555
H2A C4A 1_555 1_555
H2B C4B 1_555 1_555
H2C C4C 1_555 1_555
H2O C4O 1_555 1_555
H2P C4P 1_555 1_555
O2P C1P 1_555 1_555
C1J C2J 1_555 1_555
C1A C2A 1_555 1_555
C1I C2I 1_555 1_555
C1B C2B 1_555 1_555
C1K C2K 1_555 1_555
C1C C2C 1_555 1_555
C1G C2G 1_555 1_555
C1O C2O 1_555 1_555
C1S C2S 1_555 1_555
C1P C2P 1_555 1_555
C1R C2R 1_555 1_555
C2J C3J 1_555 1_555
C3I C4A 1_555 1_555
C3K C4B 1_555 1_555
C3G C4C 1_555 1_555
C3S C4O 1_555 1_555
C3R C4P 1_555 1_555

#END
