
#######################################################################
#
#                 Cambridge Crystallographic Data Centre
#                                CCDC 
#
#######################################################################
#
# If this CIF has been generated from an entry in the Cambridge 
# Structural Database, then it will include bibliographic, chemical, 
# crystal, experimental, refinement or atomic coordinate data resulting 
# from the CCDC's data processing and validation procedures.
#
#######################################################################

data_QISRIV
_chemical_formula_moiety         '(C24 H56 Mo1 N8 O16 Rh4)n'
_symmetry_cell_setting           triclinic
_symmetry_space_group_name_H-M   'P -1'
_symmetry_Int_Tables_number      2
_space_group_name_Hall           '-P 1'
loop_
_symmetry_equiv_pos_site_id
_symmetry_equiv_pos_as_xyz
1 x,y,z
2 -x,-y,-z
_cell_length_a                   12.952(4)
_cell_length_b                   13.849(5)
_cell_length_c                   14.679(5)
_cell_angle_alpha                112.460(2)
_cell_angle_beta                 99.574(2)
_cell_angle_gamma                108.472(3)
_cell_volume                     2180.36
loop_
_atom_site_label
_atom_site_type_symbol
_atom_site_fract_x
_atom_site_fract_y
_atom_site_fract_z
_atom_site_U_iso_or_equiv
_atom_site_thermal_displace_type
Rh1 Rh 0.96536(2) 0.03178(3) 0.44022(2) 0.0203 Uani
Rh2 Rh 0.93213(2) 0.40664(2) 0.48075(2) 0.0208 Uani
Rh3 Rh 0.57970(2) 0.04872(3) 0.07975(2) 0.0205 Uani
Rh4 Rh 0.55655(2) -0.00010(2) 0.44237(2) 0.0181 Uani
N1 N 0.8188(3) -0.1028(3) 0.3925(3) 0.0260 Uani
H1 H 0.7611 -0.1126 0.3448 0.0310 Uiso
O1 O 0.8775(2) -0.1655(2) 0.5049(2) 0.0284 Uani
N2 N 0.9303(3) 0.1340(3) 0.5567(2) 0.0248 Uani
H2 H 0.8995 0.1776 0.5457 0.0300 Uiso
O2 O 0.9859(2) 0.0700(3) 0.6692(2) 0.0292 Uani
N3 N 0.8766(3) 0.3867(3) 0.3379(3) 0.0275 Uani
H3 H 0.8172 0.3235 0.2928 0.0330 Uiso
O3 O 1.0050(2) 0.5602(2) 0.3692(2) 0.0290 Uani
N4 N 1.0517(3) 0.3537(3) 0.4450(3) 0.0275 Uani
H4 H 1.0382 0.2826 0.4292 0.0330 Uiso
O4 O 1.1814(2) 0.5266(2) 0.4753(2) 0.0304 Uani
N5 N 0.5087(3) 0.1573(3) 0.1341(3) 0.0303 Uani
H5 H 0.5429 0.2133 0.1974 0.0360 Uiso
O5 O 0.3553(3) 0.0656(3) -0.0139(2) 0.0368 Uani
N6 N 0.4856(3) -0.0595(3) 0.1213(2) 0.0278 Uani
H6 H 0.5140 -0.0524 0.1827 0.0330 Uiso
O6 O 0.3326(2) -0.1535(3) -0.0264(2) 0.0324 Uani
N7 N 0.6541(3) -0.0370(3) 0.5314(3) 0.0240 Uani
H7 H 0.7145 -0.0437 0.5164 0.0290 Uiso
O7 O 0.5501(2) -0.0394(2) 0.6407(2) 0.0274 Uani
N8 N 0.6433(3) 0.1648(3) 0.5391(2) 0.0228 Uani
H8 H 0.6987 0.2040 0.5239 0.0270 Uiso
O8 O 0.5434(2) 0.1708(2) 0.6529(2) 0.0264 Uani
Mo1 Mo 0.76942(2) 0.11035(3) 0.33011(2) 0.0159 Uani
O9 O 0.8928(2) 0.0823(2) 0.3257(2) 0.0268 Uani
O10 O 0.8080(2) 0.2355(2) 0.4486(2) 0.0226 Uani
O11 O 0.7270(2) 0.1361(2) 0.2252(2) 0.0239 Uani
O12 O 0.6568(2) -0.0043(2) 0.3284(2) 0.0215 Uani
C1 C 0.8021(3) -0.1784(4) 0.4275(3) 0.0267 Uani
C2 C 0.6908(4) -0.2856(4) 0.3772(4) 0.0418 Uani
H9 H 0.6612 -0.2963 0.4315 0.0510 Uiso
H10 H 0.6335 -0.2765 0.3324 0.0510 Uiso
C3 C 0.7077(6) -0.3900(6) 0.3133(6) 0.0839 Uani
H11 H 0.7675 -0.3969 0.3566 0.1260 Uiso
H12 H 0.7305 -0.3826 0.2557 0.1260 Uiso
H13 H 0.6362 -0.4580 0.2862 0.1260 Uiso
C4 C 0.9512(3) 0.1391(3) 0.6491(3) 0.0260 Uani
C5 C 0.9325(4) 0.2274(4) 0.7360(4) 0.0410 Uani
H14 H 0.8548 0.1923 0.7381 0.0490 Uiso
H15 H 0.9367 0.2911 0.7205 0.0490 Uiso
C6 C 1.0187(6) 0.2749(5) 0.8422(4) 0.0645 Uani
H16 H 1.0961 0.3085 0.8406 0.0970 Uiso
H17 H 1.0114 0.2133 0.8605 0.0970 Uiso
H18 H 1.0041 0.3334 0.8937 0.0970 Uiso
C7 C 0.9226(3) 0.4611(3) 0.3067(3) 0.0273 Uani
C8 C 0.8835(4) 0.4327(4) 0.1936(3) 0.0434 Uani
H19 H 0.8135 0.3608 0.1561 0.0520 Uiso
H20 H 0.8644 0.4937 0.1880 0.0520 Uiso
C9 C 0.9726(6) 0.4202(7) 0.1435(5) 0.0922 Uani
H21 H 0.9844 0.3534 0.1404 0.1380 Uiso
H22 H 1.0444 0.4884 0.1840 0.1380 Uiso
H23 H 0.9471 0.4106 0.0734 0.1380 Uiso
C10 C 1.1490(3) 0.4171(4) 0.4432(3) 0.0301 Uani
C11 C 1.2278(4) 0.3663(4) 0.4005(5) 0.0476 Uani
H24 H 1.2090 0.2930 0.4025 0.0570 Uiso
H25 H 1.2106 0.3492 0.3270 0.0570 Uiso
C12 C 1.3546(7) 0.4375(7) 0.4541(8) 0.0557 Uani
H26 H 1.3742 0.5129 0.4580 0.0840 Uiso
H27 H 1.3963 0.4001 0.4151 0.0840 Uiso
H28 H 1.3755 0.4455 0.5241 0.0840 Uiso
C13 C 0.4130(4) 0.1480(4) 0.0786(3) 0.0361 Uani
C14 C 0.3707(11) 0.2417(11) 0.1198(8) 0.0626 Uani
H29 H 0.2901 0.2063 0.1152 0.0750 Uiso
H30 H 0.4160 0.2936 0.1935 0.0750 Uiso
C15 C 0.3792(19) 0.3085(12) 0.0627(11) 0.1440 Uani
H31 H 0.3483 0.2568 -0.0117 0.2160 Uiso
H32 H 0.4594 0.3588 0.0811 0.2160 Uiso
H33 H 0.3356 0.3543 0.0808 0.2160 Uiso
C16 C 0.3832(4) -0.1410(4) 0.0623(3) 0.0324 Uani
C17 C 0.3223(4) -0.2285(5) 0.0946(4) 0.0542 Uani
H34 H 0.3462 -0.1932 0.1709 0.0650 Uiso
H35 H 0.2390 -0.2526 0.0682 0.0650 Uiso
C18 C 0.3484(7) -0.3315(6) 0.0540(6) 0.0839 Uani
H36 H 0.4291 -0.3097 0.0875 0.1260 Uiso
H37 H 0.3321 -0.3621 -0.0208 0.1260 Uiso
H38 H 0.3010 -0.3897 0.0689 0.1260 Uiso
C19 C 0.6352(3) -0.0519(3) 0.6104(3) 0.0267 Uani
C20 C 0.7079(5) -0.0899(8) 0.6683(7) 0.0379 Uani
H39 H 0.6635 -0.1709 0.6487 0.0450 Uiso
H40 H 0.7759 -0.0846 0.6460 0.0450 Uiso
C21 C 0.7474(5) -0.0209(6) 0.7854(4) 0.0569 Uani
H41 H 0.6808 -0.0270 0.8086 0.0860 Uiso
H42 H 0.7936 0.0591 0.8060 0.0860 Uiso
H43 H 0.7932 -0.0504 0.8171 0.0860 Uiso
C22 C 0.6242(3) 0.2204(3) 0.6245(3) 0.0245 Uani
C23 C 0.6999(4) 0.3472(3) 0.6949(3) 0.0341 Uani
H44 H 0.7507 0.3563 0.7579 0.0410 Uiso
H45 H 0.7486 0.3767 0.6588 0.0410 Uiso
C24 C 0.6327(6) 0.4177(5) 0.7263(11) 0.0504 Uani
H46 H 0.5882 0.3925 0.7664 0.0760 Uiso
H47 H 0.5810 0.4080 0.6644 0.0760 Uiso
H48 H 0.6853 0.4981 0.7686 0.0760 Uiso
Rh1A Rh 1.03464(2) -0.03178(3) 0.55978(2) 0.0203 Uani
Rh2A Rh 1.06787(2) 0.59336(2) 0.51925(2) 0.0208 Uani
Rh3A Rh 0.42030(2) -0.04872(3) -0.07975(2) 0.0205 Uani
Rh4A Rh 0.44345(2) 0.00010(2) 0.55763(2) 0.0181 Uani
O1A O 1.1225(2) 0.1655(2) 0.4951(2) 0.0284 Uani
O2A O 1.0141(2) -0.0700(3) 0.3308(2) 0.0292 Uani
O3A O 0.9950(2) 0.4398(2) 0.6308(2) 0.0290 Uani
O4A O 0.8186(2) 0.4734(2) 0.5247(2) 0.0304 Uani
O5A O 0.6447(3) -0.0656(3) 0.0139(2) 0.0368 Uani
O6A O 0.6674(2) 0.1535(3) 0.0264(2) 0.0324 Uani
O7A O 0.4499(2) 0.0394(2) 0.3593(2) 0.0274 Uani
O8A O 0.4566(2) -0.1708(2) 0.3471(2) 0.0264 Uani
O13 O 0.5799(3) 0.2864(4) 0.3722(3) 0.0671 Uani
O14 O 0.8897(8) -0.0055(14) 0.1111(6) 0.2207 Uani
O15 O 1.0649(16) 0.153(2) 0.0531(18) 0.2525 Uani
O16 O 0.897(2) 0.149(3) 0.092(3) 0.1320 Uani
loop_
_atom_site_aniso_label
_atom_site_aniso_U_11
_atom_site_aniso_U_22
_atom_site_aniso_U_33
_atom_site_aniso_U_23
_atom_site_aniso_U_13
_atom_site_aniso_U_12
Rh1 0.01803(14) 0.02761(16) 0.02194(15) 0.01530(13) 0.00773(11) 0.01231(12)
Rh2 0.01839(14) 0.01624(14) 0.02128(15) 0.00951(12) 0.00243(11) 0.00054(11)
Rh3 0.01777(14) 0.02307(15) 0.01422(14) 0.00807(12) -0.00010(11) 0.00418(12)
Rh4 0.01614(13) 0.01826(14) 0.01854(14) 0.00843(12) 0.00782(11) 0.00455(11)
N1 0.0195(15) 0.0321(18) 0.0287(18) 0.0166(16) 0.0059(13) 0.0115(14)
O1 0.0220(13) 0.0330(16) 0.0354(16) 0.0216(14) 0.0081(12) 0.0114(12)
N2 0.0244(16) 0.0343(19) 0.0255(17) 0.0179(15) 0.0096(14) 0.0183(15)
O2 0.0354(15) 0.0385(17) 0.0274(15) 0.0198(14) 0.0163(13) 0.0230(14)
N3 0.0231(16) 0.0190(16) 0.0258(18) 0.0098(14) -0.0020(14) -0.0029(13)
O3 0.0305(15) 0.0205(14) 0.0218(14) 0.0106(12) -0.0002(12) -0.0026(12)
N4 0.0241(16) 0.0191(16) 0.038(2) 0.0163(16) 0.0084(15) 0.0045(14)
O4 0.0246(14) 0.0264(15) 0.0401(17) 0.0167(14) 0.0129(13) 0.0078(12)
N5 0.0321(18) 0.0299(19) 0.0199(17) 0.0051(15) 0.0034(14) 0.0128(16)
O5 0.0337(16) 0.0414(18) 0.0312(17) 0.0131(15) 0.0048(13) 0.0185(15)
N6 0.0274(17) 0.0303(18) 0.0173(16) 0.0132(15) 0.0000(13) 0.0030(15)
O6 0.0250(14) 0.0372(17) 0.0208(14) 0.0153(13) -0.0030(11) -0.0009(13)
N7 0.0205(15) 0.0303(18) 0.0276(17) 0.0161(15) 0.0124(13) 0.0126(14)
O7 0.0247(14) 0.0382(16) 0.0260(15) 0.0190(13) 0.0116(12) 0.0142(13)
N8 0.0224(15) 0.0210(16) 0.0224(16) 0.0103(14) 0.0104(13) 0.0042(13)
O8 0.0264(14) 0.0224(14) 0.0235(14) 0.0073(12) 0.0123(11) 0.0041(11)
Mo1 0.01268(13) 0.01782(15) 0.01501(15) 0.00905(12) 0.00231(11) 0.00316(12)
O9 0.0208(13) 0.0411(17) 0.0304(15) 0.0245(14) 0.0117(12) 0.0157(13)
O10 0.0191(12) 0.0193(13) 0.0201(13) 0.0090(11) 0.0030(10) -0.0010(10)
O11 0.0183(12) 0.0244(14) 0.0212(13) 0.0120(12) -0.0012(10) 0.0019(11)
O12 0.0201(12) 0.0190(13) 0.0210(13) 0.0086(11) 0.0062(10) 0.0039(11)
C1 0.0207(18) 0.032(2) 0.032(2) 0.0162(19) 0.0099(16) 0.0141(17)
C2 0.031(2) 0.038(3) 0.052(3) 0.025(2) 0.006(2) 0.008(2)
C3 0.074(5) 0.051(4) 0.087(5) 0.015(4) 0.007(4) 0.010(4)
C4 0.0206(18) 0.031(2) 0.032(2) 0.0171(18) 0.0112(16) 0.0132(17)
C5 0.051(3) 0.047(3) 0.034(3) 0.018(2) 0.020(2) 0.029(2)
C6 0.096(5) 0.059(4) 0.029(3) 0.009(3) 0.013(3) 0.039(4)
C7 0.027(2) 0.025(2) 0.024(2) 0.0133(17) 0.0031(16) 0.0043(17)
C8 0.046(3) 0.037(3) 0.023(2) 0.015(2) -0.002(2) -0.006(2)
C9 0.066(4) 0.121(7) 0.032(3) 0.011(4) 0.016(3) 0.001(4)
C10 0.028(2) 0.029(2) 0.036(2) 0.019(2) 0.0114(18) 0.0097(18)
C11 0.043(3) 0.038(3) 0.075(4) 0.030(3) 0.033(3) 0.021(2)
C12 0.040(4) 0.047(5) 0.109(8) 0.050(6) 0.041(5) 0.027(4)
C13 0.042(2) 0.037(2) 0.029(2) 0.012(2) 0.008(2) 0.022(2)
C14 0.080(7) 0.073(7) 0.047(5) 0.018(4) 0.020(4) 0.059(7)
C15 0.268(19) 0.116(10) 0.157(11) 0.089(8) 0.121(12) 0.152(12)
C16 0.031(2) 0.037(2) 0.021(2) 0.0164(19) 0.0026(17) 0.0038(19)
C17 0.045(3) 0.053(3) 0.035(3) 0.029(3) -0.009(2) -0.014(2)
C18 0.106(6) 0.059(4) 0.078(5) 0.049(4) 0.006(4) 0.015(4)
C19 0.0238(19) 0.030(2) 0.032(2) 0.0158(18) 0.0123(17) 0.0147(17)
C20 0.034(3) 0.059(5) 0.051(3) 0.042(3) 0.026(3) 0.029(3)
C21 0.055(4) 0.096(5) 0.048(3) 0.050(4) 0.020(3) 0.043(4)
C22 0.0276(19) 0.0234(19) 0.026(2) 0.0142(17) 0.0106(16) 0.0104(16)
C23 0.033(2) 0.023(2) 0.032(2) 0.0064(19) 0.0123(19) 0.0017(18)
C24 0.057(4) 0.021(3) 0.063(6) 0.011(3) 0.027(3) 0.011(2)
Rh1A 0.01803 0.02761 0.02194 0.0153 0.00773 0.01231
Rh2A 0.01839 0.01624 0.02128 0.00951 0.00243 0.00054
Rh3A 0.01777 0.02307 0.01422 0.00807 -0.0001 0.00418
Rh4A 0.01614 0.01826 0.01854 0.00843 0.00782 0.00455
O1A 0.022 0.033 0.0354 0.0216 0.0081 0.0114
O2A 0.0354 0.0385 0.0274 0.0198 0.0163 0.023
O3A 0.0305 0.0205 0.0218 0.0106 -0.0002 -0.0026
O4A 0.0246 0.0264 0.0401 0.0167 0.0129 0.0078
O5A 0.0337 0.0414 0.0312 0.0131 0.0048 0.0185
O6A 0.025 0.0372 0.0208 0.0153 -0.003 -0.0009
O7A 0.0247 0.0382 0.026 0.019 0.0116 0.0142
O8A 0.0264 0.0224 0.0235 0.0073 0.0123 0.0041
O13 0.054(2) 0.081(3) 0.055(3) 0.024(2) 0.010(2) 0.028(2)
O14 0.112(8) 0.45(3) 0.060(6) 0.040(9) 0.032(5) 0.165(12)
O15 0.147(18) 0.39(4) 0.24(3) 0.17(3) 0.115(17) 0.08(2)
O16 0.058(18) 0.12(3) 0.25(5) 0.10(3) 0.09(2) 0.038(18)
loop_
_geom_bond_atom_site_label_1
_geom_bond_atom_site_label_2
_geom_bond_site_symmetry_1
_geom_bond_site_symmetry_2
Rh1 N1 1_555 1_555
Rh2 N3 1_555 1_555
Rh3 N5 1_555 1_555
Rh4 N7 1_555 1_555
N1 H1 1_555 1_555
O1 C1 1_555 1_555
N2 Rh1 1_555 1_555
H2 N2 1_555 1_555
O2 C4 1_555 1_555
N3 H3 1_555 1_555
O3 C7 1_555 1_555
N4 Rh2 1_555 1_555
H4 N4 1_555 1_555
O4 C10 1_555 1_555
N5 H5 1_555 1_555
O5 C13 1_555 1_555
N6 Rh3 1_555 1_555
H6 N6 1_555 1_555
O6 C16 1_555 1_555
N7 H7 1_555 1_555
O7 C19 1_555 1_555
N8 Rh4 1_555 1_555
H8 N8 1_555 1_555
O8 C22 1_555 1_555
Mo1 O9 1_555 1_555
O9 Rh1 1_555 1_555
O10 Rh2 1_555 1_555
O11 Rh3 1_555 1_555
O12 Rh4 1_555 1_555
C1 N1 1_555 1_555
C2 C1 1_555 1_555
H9 C2 1_555 1_555
H10 C2 1_555 1_555
C3 C2 1_555 1_555
H11 C3 1_555 1_555
H12 C3 1_555 1_555
H13 C3 1_555 1_555
C4 N2 1_555 1_555
C5 C4 1_555 1_555
H14 C5 1_555 1_555
H15 C5 1_555 1_555
C6 C5 1_555 1_555
H16 C6 1_555 1_555
H17 C6 1_555 1_555
H18 C6 1_555 1_555
C7 N3 1_555 1_555
C8 C7 1_555 1_555
H19 C8 1_555 1_555
H20 C8 1_555 1_555
C9 C8 1_555 1_555
H21 C9 1_555 1_555
H22 C9 1_555 1_555
H23 C9 1_555 1_555
C10 N4 1_555 1_555
C11 C10 1_555 1_555
H24 C11 1_555 1_555
H25 C11 1_555 1_555
C12 C11 1_555 1_555
H26 C12 1_555 1_555
H27 C12 1_555 1_555
H28 C12 1_555 1_555
C13 N5 1_555 1_555
C14 C13 1_555 1_555
H29 C14 1_555 1_555
H30 C14 1_555 1_555
C15 C14 1_555 1_555
H31 C15 1_555 1_555
H32 C15 1_555 1_555
H33 C15 1_555 1_555
C16 N6 1_555 1_555
C17 C16 1_555 1_555
H34 C17 1_555 1_555
H35 C17 1_555 1_555
C18 C17 1_555 1_555
H36 C18 1_555 1_555
H37 C18 1_555 1_555
H38 C18 1_555 1_555
C19 N7 1_555 1_555
C20 C19 1_555 1_555
H39 C20 1_555 1_555
H40 C20 1_555 1_555
C21 C20 1_555 1_555
H41 C21 1_555 1_555
H42 C21 1_555 1_555
H43 C21 1_555 1_555
C22 N8 1_555 1_555
C23 C22 1_555 1_555
H44 C23 1_555 1_555
H45 C23 1_555 1_555
C24 C23 1_555 1_555
H46 C24 1_555 1_555
H47 C24 1_555 1_555
H48 C24 1_555 1_555
Rh1A Rh1 1_555 1_555
Rh2A Rh2 1_555 1_555
Rh3A Rh3 1_555 1_555
Rh4A Rh4 1_555 1_555
O1A Rh1 1_555 1_555
O2A Rh1 1_555 1_555
O3A Rh2 1_555 1_555
O4A Rh2 1_555 1_555
O5A Rh3 1_555 1_555
O6A Rh3 1_555 1_555
O7A Rh4 1_555 1_555
O8A Rh4 1_555 1_555
O1 Rh1A 1_555 1_555
O2 Rh1A 1_555 1_555
O3 Rh2A 1_555 1_555
O4 Rh2A 1_555 1_555
O5 Rh3A 1_555 1_555
O6 Rh3A 1_555 1_555
O7 Rh4A 1_555 1_555
O8 Rh4A 1_555 1_555
Mo1 O10 1_555 1_555
Mo1 O11 1_555 1_555
Mo1 O12 1_555 1_555

#END
