
#######################################################################
#
#                 Cambridge Crystallographic Data Centre
#                                CCDC 
#
#######################################################################
#
# If this CIF has been generated from an entry in the Cambridge 
# Structural Database, then it will include bibliographic, chemical, 
# crystal, experimental, refinement or atomic coordinate data resulting 
# from the CCDC's data processing and validation procedures.
#
#######################################################################

data_ASEXED
_chemical_formula_moiety         '(C64 H36 F4 N2 O8 Zn2)n'
_symmetry_cell_setting           triclinic
_symmetry_space_group_name_H-M   'P -1'
_symmetry_Int_Tables_number      2
_space_group_name_Hall           '-P 1'
loop_
_symmetry_equiv_pos_site_id
_symmetry_equiv_pos_as_xyz
1 x,y,z
2 -x,-y,-z
_cell_length_a                   13.967(5)
_cell_length_b                   15.480(5)
_cell_length_c                   20.893(5)
_cell_angle_alpha                89.948(5)
_cell_angle_beta                 83.096(5)
_cell_angle_gamma                89.209(5)
_cell_volume                     4484.07
loop_
_atom_site_label
_atom_site_type_symbol
_atom_site_fract_x
_atom_site_fract_y
_atom_site_fract_z
C1 C 0.7917(11) 0.2391(10) 0.5268(6)
C2 C 0.8565(9) 0.1694(7) 0.5328(5)
H1 H 0.9004 0.1520 0.4967
C3 C 0.8565(9) 0.1267(8) 0.5903(5)
H2 H 0.9042 0.0833 0.5943
C4 C 0.7886(11) 0.1450(10) 0.6430(6)
C5 C 0.7198(9) 0.2100(7) 0.6395(5)
H3 H 0.6728 0.2231 0.6750
C6 C 0.7225(9) 0.2563(8) 0.5801(5)
H4 H 0.6757 0.3005 0.5765
C7 C 0.7910(5) 0.0889(5) 0.7046(3)
C8 C 0.8489(5) 0.0172(5) 0.7062(3)
H5 H 0.8879 -0.0015 0.6683
C9 C 0.8507(5) -0.0277(5) 0.7626(3)
H6 H 0.8909 -0.0775 0.7637
C10 C 0.7945(6) -0.0008(5) 0.8173(3)
C11 C 0.7366(6) 0.0710(5) 0.8157(3)
C12 C 0.7348(6) 0.1158(5) 0.7593(3)
H7 H 0.6945 0.1657 0.7582
C13 C 0.7997(6) 0.2293(5) 0.4061(3)
C14 C 0.8694(6) 0.2403(4) 0.3542(3)
H8 H 0.9185 0.2817 0.3563
C15 C 0.8679(6) 0.1911(4) 0.2994(3)
H9 H 0.9159 0.1987 0.2636
C16 C 0.7967(6) 0.1309(5) 0.2964(3)
C17 C 0.7269(6) 0.1199(5) 0.3483(3)
H10 H 0.6779 0.0785 0.3462
C18 C 0.7285(6) 0.1692(4) 0.4031(3)
H11 H 0.6804 0.1616 0.4388
C19 C 0.7886(5) 0.0779(3) 0.2359(2)
C20 C 0.8739(5) 0.0507(4) 0.2005(3)
H12 H 0.9341 0.0641 0.2147
C21 C 0.8709(4) 0.0043(4) 0.1451(3)
H13 H 0.9301 -0.0120 0.1206
C22 C 0.7860(4) -0.0200(3) 0.1233(2)
C23 C 0.7021(4) 0.0083(4) 0.1591(2)
C24 C 0.7014(5) 0.0576(4) 0.2151(3)
H14 H 0.6423 0.0766 0.2385
C25 C 0.7906(5) 0.4235(5) 0.4022(3)
C26 C 0.8567(5) 0.4876(4) 0.3870(3)
H15 H 0.9012 0.5017 0.4163
C27 C 0.8585(5) 0.5312(5) 0.3296(3)
H16 H 0.9042 0.5754 0.3191
C28 C 0.7942(5) 0.5107(5) 0.2873(3)
C29 C 0.7281(5) 0.4467(5) 0.3024(3)
H17 H 0.6836 0.4325 0.2731
C30 C 0.7263(5) 0.4031(5) 0.3598(3)
H18 H 0.6806 0.3588 0.3703
C31 C 0.7977(4) 0.5576(3) 0.2240(2)
C32 C 0.8859(5) 0.5775(5) 0.1878(3)
H19 H 0.9448 0.5597 0.2024
C33 C 0.8868(4) 0.6229(4) 0.1313(3)
C34 C 0.8011(3) 0.6489(3) 0.1072(2)
C35 C 0.7178(4) 0.6254(4) 0.1414(3)
H20 H 0.6589 0.6404 0.1254
C36 C 0.7138(4) 0.5804(5) 0.1989(3)
H21 H 0.6531 0.5652 0.2213
C37 C 0.8121(5) 0.4291(5) 0.5218(3)
C38 C 0.7466(6) 0.4946(5) 0.5362(3)
H22 H 0.6993 0.5068 0.5082
C39 C 0.7493(5) 0.5427(5) 0.5907(3)
H23 H 0.7037 0.5883 0.6007
C40 C 0.8173(6) 0.5252(5) 0.6308(3)
C41 C 0.8827(6) 0.4596(5) 0.6165(3)
H24 H 0.9300 0.4474 0.6444
C42 C 0.8801(6) 0.4116(5) 0.5620(3)
H25 H 0.9256 0.3659 0.5520
C43 C 0.8169(4) 0.5753(4) 0.6923(3)
C44 C 0.7327(4) 0.6005(5) 0.7309(3)
H26 H 0.6719 0.5840 0.7191
C45 C 0.7365(4) 0.6490(5) 0.7859(3)
H27 H 0.6778 0.6663 0.8105
C46 C 0.8222(3) 0.6733(3) 0.8064(2)
C47 C 0.9064(4) 0.6445(4) 0.7707(3)
C48 C 0.9047(4) 0.5968(4) 0.7152(3)
H28 H 0.9639 0.5781 0.6918
C49 C 0.7916(5) 0.2864(3) 0.4668(2)
C50 C 0.7962(4) 0.3724(3) 0.4637(2)
C51 C 0.7972(4) -0.0513(3) 0.8812(2)
C52 C 0.7894(3) -0.0713(3) 0.0623(2)
C53 C 0.8012(4) 0.7067(3) 0.0489(2)
C54 C 0.8201(4) 0.7257(3) 0.8664(2)
C55 C 1.1103(3) 0.7909(3) 0.9126(2)
H29 H 1.0831 0.7639 0.8783
C56 C 1.2097(3) 0.7838(3) 0.9142(2)
H30 H 1.2486 0.7497 0.8832
C57 C 1.2509(3) 0.8278(3) 0.9622(2)
C58 C 1.1886(3) 0.8739(3) 1.0070(2)
H31 H 1.2131 0.9035 1.0412
C59 C 1.0910(3) 0.8765(3) 1.0018(2)
H32 H 1.0497 0.9104 1.0316
C60 C 1.5096(4) 0.7549(4) 0.9442(3)
H33 H 1.5474 0.7074 0.9263
C61 C 1.4130(4) 0.7566(4) 0.9406(3)
H34 H 1.3845 0.7097 0.9209
C62 C 1.3561(3) 0.8246(3) 0.9650(2)
C63 C 1.3999(4) 0.8892(4) 0.9962(3)
H35 H 1.3633 0.9372 1.0144
C64 C 1.4984(3) 0.8829(3) 1.0007(2)
H36 H 1.5274 0.9254 1.0246
F1 F 0.6153(3) -0.0062(3) 0.13965(19)
F2 F 0.9750(14) 0.6538(8) 0.1049(8)
F3 F 0.9926(3) 0.6596(3) 0.7881(2)
N1 N 1.0528(3) 0.8332(2) 0.95639(18)
N2 N 1.5529(3) 0.8199(2) 0.97278(18)
O1 O 0.8787(3) -0.0756(3) 0.89249(18)
O2 O 0.7196(3) -0.0704(3) 0.91147(18)
O3 O 0.8689(3) -0.0840(3) 0.03133(17)
O4 O 0.7100(3) -0.0987(3) 0.04735(17)
O5 O 0.8810(3) 0.7364(2) 0.02385(18)
O6 O 0.7218(3) 0.7217(2) 0.03062(18)
O7 O 0.8983(3) 0.7450(3) 0.88614(18)
O8 O 0.7392(3) 0.7495(3) 0.89322(18)
Zn1 Zn 0.90769(3) 0.83162(3) 0.95736(2)
Zn2 Zn 0.69778(3) 0.82237(3) 0.97173(2)
F4 F 0.6223(10) 0.0390(9) 0.8472(5)
N2_2 N 0.5529(3) 0.8199(2) 0.97278(18)
O1_2 O 0.8787(3) 0.9244(3) 0.89249(18)
O2_2 O 0.7196(3) 0.9296(3) 0.91147(18)
O3_2 O 0.8689(3) 0.9160(3) 1.03133(17)
O4_2 O 0.7100(3) 0.9013(3) 1.04735(17)
O5_2 O 0.8810(3) 0.7364(2) 1.02385(18)
O6_2 O 0.7218(3) 0.7217(2) 1.03062(18)
Zn1_2 Zn 0.90769(3) -0.16838(3) -0.04264(2)
Zn1_3 Zn 0.90769(3) -0.16838(3) 0.95736(2)
Zn1_4 Zn 0.90769(3) 0.83162(3) -0.04264(2)
Zn2_2 Zn 0.69778(3) -0.17763(3) -0.02827(2)
Zn2_3 Zn 0.69778(3) -0.17763(3) 0.97173(2)
Zn2_4 Zn 0.69778(3) 0.82237(3) -0.02827(2)
Zn2_5 Zn 1.69778(3) 0.82237(3) 0.97173(2)
loop_
_geom_bond_atom_site_label_1
_geom_bond_atom_site_label_2
_geom_bond_site_symmetry_1
_geom_bond_site_symmetry_2
C1 C2 1_555 1_555
C2 H1 1_555 1_555
C3 C2 1_555 1_555
H2 C3 1_555 1_555
C4 C3 1_555 1_555
C5 C4 1_555 1_555
H3 C5 1_555 1_555
C6 C1 1_555 1_555
H4 C6 1_555 1_555
C7 C4 1_555 1_555
C8 C7 1_555 1_555
H5 C8 1_555 1_555
C9 C8 1_555 1_555
H6 C9 1_555 1_555
C10 C9 1_555 1_555
C11 C10 1_555 1_555
C12 C7 1_555 1_555
H7 C12 1_555 1_555
C13 C14 1_555 1_555
C14 H8 1_555 1_555
C15 C14 1_555 1_555
H9 C15 1_555 1_555
C16 C15 1_555 1_555
C17 C16 1_555 1_555
H10 C17 1_555 1_555
C18 C13 1_555 1_555
H11 C18 1_555 1_555
C19 C16 1_555 1_555
C20 C19 1_555 1_555
H12 C20 1_555 1_555
C21 C20 1_555 1_555
H13 C21 1_555 1_555
C22 C21 1_555 1_555
C23 C22 1_555 1_555
C24 C19 1_555 1_555
H14 C24 1_555 1_555
C25 C26 1_555 1_555
C26 H15 1_555 1_555
C27 C26 1_555 1_555
H16 C27 1_555 1_555
C28 C27 1_555 1_555
C29 C28 1_555 1_555
H17 C29 1_555 1_555
C30 C25 1_555 1_555
H18 C30 1_555 1_555
C31 C28 1_555 1_555
C32 C31 1_555 1_555
H19 C32 1_555 1_555
C33 C32 1_555 1_555
C34 C33 1_555 1_555
C35 C34 1_555 1_555
H20 C35 1_555 1_555
C36 C31 1_555 1_555
H21 C36 1_555 1_555
C37 C38 1_555 1_555
C38 H22 1_555 1_555
C39 C38 1_555 1_555
H23 C39 1_555 1_555
C40 C39 1_555 1_555
C41 C40 1_555 1_555
H24 C41 1_555 1_555
C42 C37 1_555 1_555
H25 C42 1_555 1_555
C43 C40 1_555 1_555
C44 C43 1_555 1_555
H26 C44 1_555 1_555
C45 C44 1_555 1_555
H27 C45 1_555 1_555
C46 C45 1_555 1_555
C47 C46 1_555 1_555
C48 C43 1_555 1_555
H28 C48 1_555 1_555
C49 C1 1_555 1_555
C50 C25 1_555 1_555
C51 C10 1_555 1_555
C52 C22 1_555 1_555
C53 C34 1_555 1_555
C54 C46 1_555 1_555
C55 H29 1_555 1_555
C56 C55 1_555 1_555
H30 C56 1_555 1_555
C57 C56 1_555 1_555
C58 C57 1_555 1_555
H31 C58 1_555 1_555
C59 C58 1_555 1_555
H32 C59 1_555 1_555
C60 H33 1_555 1_555
C61 C60 1_555 1_555
H34 C61 1_555 1_555
C62 C57 1_555 1_555
C63 C62 1_555 1_555
H35 C63 1_555 1_555
C64 C63 1_555 1_555
H36 C64 1_555 1_555
F1 C23 1_555 1_555
F2 C33 1_555 1_555
F3 C47 1_555 1_555
N1 C55 1_555 1_555
N2 C60 1_555 1_555
O1 C51 1_555 1_555
O2 C51 1_555 1_555
O3 C52 1_555 1_555
O4 C52 1_555 1_555
O5 C53 1_555 1_555
O6 C53 1_555 1_555
O7 C54 1_555 1_555
O8 C54 1_555 1_555
Zn1 N1 1_555 1_555
Zn2 O8 1_555 1_555
F4 C11 1_555 1_555
N2_2 Zn2 1_555 1_555
O1_2 Zn1 1_555 1_555
O2_2 Zn2 1_555 1_555
O3_2 Zn1 1_555 1_555
O4_2 Zn2 1_555 1_555
O5_2 Zn1 1_555 1_555
O6_2 Zn2 1_555 1_555
Zn1_2 O3 1_555 1_555
Zn1_3 O1 1_555 1_555
Zn1_4 O5 1_555 1_555
Zn2_2 O4 1_555 1_555
Zn2_3 O2 1_555 1_555
Zn2_4 O6 1_555 1_555
Zn2_5 N2 1_555 1_555
C5 C6 1_555 1_555
C11 C12 1_555 1_555
C13 C49 1_555 1_555
C17 C18 1_555 1_555
C23 C24 1_555 1_555
C29 C30 1_555 1_555
C35 C36 1_555 1_555
C37 C50 1_555 1_555
C41 C42 1_555 1_555
C47 C48 1_555 1_555
C49 C50 1_555 1_555
C59 N1 1_555 1_555
C61 C62 1_555 1_555
C64 N2 1_555 1_555
O7 Zn1 1_555 1_555

#END
