
#######################################################################
#
#                 Cambridge Crystallographic Data Centre
#                                CCDC 
#
#######################################################################
#
# If this CIF has been generated from an entry in the Cambridge 
# Structural Database, then it will include bibliographic, chemical, 
# crystal, experimental, refinement or atomic coordinate data resulting 
# from the CCDC's data processing and validation procedures.
#
#######################################################################

data_ASEYII
_chemical_formula_moiety         '(C66 H38 F4 N2 O8 Zn2)n'
_symmetry_cell_setting           triclinic
_symmetry_space_group_name_H-M   'P -1'
_symmetry_Int_Tables_number      2
_space_group_name_Hall           '-P 1'
loop_
_symmetry_equiv_pos_site_id
_symmetry_equiv_pos_as_xyz
1 x,y,z
2 -x,-y,-z
_cell_length_a                   16.3170(6)
_cell_length_b                   16.8197(7)
_cell_length_c                   20.0452(8)
_cell_angle_alpha                89.982(2)
_cell_angle_beta                 85.952(2)
_cell_angle_gamma                85.919(2)
_cell_volume                     5473.65
loop_
_atom_site_label
_atom_site_type_symbol
_atom_site_fract_x
_atom_site_fract_y
_atom_site_fract_z
Zn1 Zn 0.41546(2) 0.84177(2) -0.03533(2)
Zn2 Zn 0.23398(2) 0.84827(2) -0.02804(2)
F1 F 0.4679(3) 0.6362(4) 0.0944(3)
C1 C 0.3270(2) 0.38571(18) 0.46641(14)
C2 C 0.3232(3) 0.30623(19) 0.46923(14)
C3 C 0.2680(4) 0.4657(4) 0.2972(3)
H1 H 0.2290 0.4577 0.2667
C4 C 0.2684(4) 0.4210(3) 0.3559(2)
H2 H 0.2294 0.3837 0.3639
C5 C 0.3254(2) 0.43126(18) 0.40227(14)
C6 C 0.3826(3) 0.4866(3) 0.3869(2)
H3 H 0.4222 0.4948 0.4168
C7 C 0.3826(3) 0.5299(3) 0.3284(2)
H4 H 0.4230 0.5656 0.3192
C8 C 0.3245(2) 0.5213(2) 0.28390(17)
C9 C 0.3243(2) 0.5711(2) 0.22248(18)
C10 C 0.3955(3) 0.5833(3) 0.1854(2)
H5 H 0.4450 0.5581 0.1971
C11 C 0.3947(3) 0.6332(3) 0.1303(2)
C12 C 0.3231(2) 0.6725(2) 0.10957(16)
C13 C 0.2540(3) 0.6528(5) 0.1446(3)
H6 H 0.2037 0.6732 0.1303
C14 C 0.2526(3) 0.6048(5) 0.1999(3)
H7 H 0.2024 0.5949 0.2223
C15 C 0.3229(2) 0.73105(18) 0.05358(14)
O1 O 0.39102(15) 0.75305(14) 0.03112(12)
O2 O 0.25516(15) 0.75545(16) 0.03458(13)
C16 C 0.2765(4) 0.5499(3) 0.5933(3)
H8 H 0.2372 0.5925 0.5996
C17 C 0.2764(4) 0.5015(3) 0.5375(2)
H9 H 0.2383 0.5137 0.5060
C18 C 0.3306(2) 0.43618(18) 0.52741(14)
C19 C 0.3915(4) 0.4240(3) 0.5727(2)
H10 H 0.4319 0.3823 0.5658
C20 C 0.3922(3) 0.4730(3) 0.6275(2)
H11 H 0.4332 0.4635 0.6571
C21 C 0.3343(2) 0.5356(2) 0.63986(15)
C22 C 0.3351(2) 0.5885(2) 0.69914(16)
C23 C 0.2635(2) 0.6231(3) 0.7297(2)
H12 H 0.2133 0.6123 0.7137
C24 C 0.2645(2) 0.6738(3) 0.78394(19)
H13 H 0.2147 0.6964 0.8032
C25 C 0.33625(19) 0.69191(19) 0.81044(15)
F2 F 0.48286(16) 0.6696(2) 0.79986(16)
C26 C 0.4079(2) 0.6567(2) 0.77847(17)
C27 C 0.4082(2) 0.6061(2) 0.72497(18)
H14 H 0.4580 0.5834 0.7058
C28 C 0.33416(18) 0.74853(17) 0.86908(13)
O3 O 0.40121(13) 0.76544(14) 0.88909(11)
O4 O 0.26501(14) 0.77450(15) 0.89269(11)
C29 C 0.3827(4) 0.1530(3) 0.5979(2)
H15 H 0.4243 0.1130 0.6026
C30 C 0.3821(4) 0.1966(3) 0.5406(2)
H16 H 0.4217 0.1844 0.5058
C31 C 0.3222(3) 0.26014(18) 0.53350(14)
C32 C 0.2669(4) 0.2760(3) 0.5853(2)
H17 H 0.2279 0.3187 0.5823
C33 C 0.2658(4) 0.2316(4) 0.6428(3)
H18 H 0.2266 0.2452 0.6776
C34 C 0.3213(2) 0.1675(2) 0.64999(15)
C35 C 0.3210(2) 0.1169(2) 0.71097(16)
C36 C 0.3879(3) 0.0702(4) 0.7266(3)
H19 H 0.4358 0.0702 0.6986
F3 F 0.1844(2) 0.0699(3) 0.85134(18)
C37 C 0.3873(3) 0.0225(4) 0.7831(2)
H20 H 0.4357 -0.0066 0.7925
C38 C 0.32026(19) 0.01641(19) 0.82467(14)
C39 C 0.2540(3) 0.0672(3) 0.81063(18)
C40 C 0.2531(3) 0.1169(3) 0.75578(19)
H21 H 0.2065 0.1503 0.7491
C41 C 0.32110(19) -0.04161(16) 0.88213(13)
O5 O 0.38960(14) -0.06757(14) 0.89867(11)
O6 O 0.25404(15) -0.05916(15) 0.90828(12)
C42 C 0.2653(4) 0.1516(3) 0.3496(2)
H22 H 0.2244 0.1158 0.3497
C43 C 0.2690(4) 0.1998(3) 0.4048(2)
H23 H 0.2325 0.1929 0.4417
C44 C 0.3216(3) 0.25512(18) 0.40788(14)
C45 C 0.3835(4) 0.2594(3) 0.3528(2)
H24 H 0.4242 0.2952 0.3544
C46 C 0.3817(3) 0.2099(3) 0.2980(2)
H25 H 0.4212 0.2123 0.2624
C47 C 0.3186(2) 0.1548(2) 0.29614(15)
C48 C 0.3175(2) 0.1006(2) 0.23763(15)
C49 C 0.2435(2) 0.0769(2) 0.21682(17)
H26 H 0.1939 0.0954 0.2392
C50 C 0.2438(2) 0.0256(2) 0.16252(16)
C51 C 0.31650(18) -0.00372(18) 0.12739(13)
F4 F 0.16999(13) 0.00515(18) 0.14525(13)
C52 C 0.3890(2) 0.02184(19) 0.14840(15)
H27 H 0.4386 0.0042 0.1256
C53 C 0.3902(2) 0.0726(2) 0.20195(16)
H28 H 0.4403 0.0886 0.2146
C54 C 0.31849(17) -0.05846(16) 0.06770(12)
O7 O 0.38816(13) -0.07999(13) 0.04138(10)
O8 O 0.25158(13) -0.07854(16) 0.04870(11)
N1 N 0.53916(12) 0.83526(13) -0.03677(11)
N2 N 1.10975(13) 0.85327(15) -0.02325(12)
C55 C 0.58530(18) 0.7845(2) -0.07831(18)
H29 H 0.5585 0.7522 -0.1061
C56 C 0.6705(2) 0.7778(2) -0.0818(2)
H30 H 0.6999 0.7420 -0.1114
C57 C 0.71176(17) 0.82587(19) -0.04013(18)
C58 C 0.66377(17) 0.87936(19) 0.00210(16)
H31 H 0.6887 0.9129 0.0301
C59 C 0.57925(17) 0.88215(18) 0.00203(14)
H32 H 0.5483 0.9184 0.0303
C60 C 0.80246(19) 0.8202(2) -0.0446(2)
H33 H 0.8300 0.7811 -0.0722
C61 C 0.84622(18) 0.8665(2) -0.0125(2)
H34 H 0.8187 0.9056 0.0152
C62 C 1.0685(2) 0.8146(4) -0.0642(3)
H35 H 1.0984 0.7822 -0.0963
C63 C 0.9851(2) 0.8179(4) -0.0637(3)
H36 H 0.9604 0.7900 -0.0959
C64 C 0.93742(18) 0.8609(2) -0.01706(18)
C65 C 0.9793(2) 0.9017(4) 0.0253(3)
H37 H 0.9508 0.9350 0.0574
C66 C 1.0648(2) 0.8945(3) 0.0215(2)
H38 H 1.0913 0.9212 0.0533
Zn1_2 Zn 0.41546(2) -0.15823(2) -0.03533(2)
Zn1_3 Zn 0.41546(2) -0.15823(2) 0.96467(2)
Zn1_4 Zn 0.41546(2) 0.84177(2) 0.96467(2)
Zn2_2 Zn 0.23398(2) -0.15173(2) -0.02804(2)
Zn2_3 Zn 0.23398(2) -0.15173(2) 0.97196(2)
Zn2_4 Zn 0.23398(2) 0.84827(2) 0.97196(2)
Zn2_5 Zn 1.23398(2) 0.84827(2) -0.02804(2)
O3_2 O 0.40121(13) 0.76544(14) -0.11091(11)
O4_2 O 0.26501(14) 0.77450(15) -0.10731(11)
O5_2 O 0.38960(14) 0.93243(14) -0.10133(11)
O6_2 O 0.25404(15) 0.94084(15) -0.09172(12)
O7_2 O 0.38816(13) 0.92001(13) 0.04138(10)
O8_2 O 0.25158(13) 0.92146(16) 0.04870(11)
N2_2 N 0.10975(13) 0.85327(15) -0.02325(12)
loop_
_geom_bond_atom_site_label_1
_geom_bond_atom_site_label_2
_geom_bond_site_symmetry_1
_geom_bond_site_symmetry_2
Zn1 O1 1_555 1_555
Zn2 O2 1_555 1_555
F1 C11 1_555 1_555
C1 C2 1_555 1_555
C2 C31 1_555 1_555
C3 H1 1_555 1_555
C4 C3 1_555 1_555
H2 C4 1_555 1_555
C5 C1 1_555 1_555
C6 C5 1_555 1_555
H3 C6 1_555 1_555
C7 C6 1_555 1_555
H4 C7 1_555 1_555
C8 C3 1_555 1_555
C9 C8 1_555 1_555
C10 C9 1_555 1_555
H5 C10 1_555 1_555
C11 C10 1_555 1_555
C12 C11 1_555 1_555
C13 C12 1_555 1_555
H6 C13 1_555 1_555
C14 C9 1_555 1_555
H7 C14 1_555 1_555
C15 C12 1_555 1_555
O1 C15 1_555 1_555
O2 C15 1_555 1_555
C16 H8 1_555 1_555
C17 C16 1_555 1_555
H9 C17 1_555 1_555
C18 C1 1_555 1_555
C19 C18 1_555 1_555
H10 C19 1_555 1_555
C20 C19 1_555 1_555
H11 C20 1_555 1_555
C21 C16 1_555 1_555
C22 C21 1_555 1_555
C23 C22 1_555 1_555
H12 C23 1_555 1_555
C24 C23 1_555 1_555
H13 C24 1_555 1_555
C25 C24 1_555 1_555
F2 C26 1_555 1_555
C26 C25 1_555 1_555
C27 C22 1_555 1_555
H14 C27 1_555 1_555
C28 C25 1_555 1_555
O3 C28 1_555 1_555
O4 C28 1_555 1_555
C29 H15 1_555 1_555
C30 C29 1_555 1_555
H16 C30 1_555 1_555
C31 C30 1_555 1_555
C32 C31 1_555 1_555
H17 C32 1_555 1_555
C33 C32 1_555 1_555
H18 C33 1_555 1_555
C34 C29 1_555 1_555
C35 C34 1_555 1_555
C36 C35 1_555 1_555
H19 C36 1_555 1_555
F3 C39 1_555 1_555
C37 C36 1_555 1_555
H20 C37 1_555 1_555
C38 C37 1_555 1_555
C39 C38 1_555 1_555
C40 C35 1_555 1_555
H21 C40 1_555 1_555
C41 C38 1_555 1_555
O5 C41 1_555 1_555
O6 C41 1_555 1_555
C42 H22 1_555 1_555
C43 C42 1_555 1_555
H23 C43 1_555 1_555
C44 C2 1_555 1_555
C45 C44 1_555 1_555
H24 C45 1_555 1_555
C46 C45 1_555 1_555
H25 C46 1_555 1_555
C47 C42 1_555 1_555
C48 C47 1_555 1_555
C49 C48 1_555 1_555
H26 C49 1_555 1_555
C50 C49 1_555 1_555
C51 C50 1_555 1_555
F4 C50 1_555 1_555
C52 C51 1_555 1_555
H27 C52 1_555 1_555
C53 C48 1_555 1_555
H28 C53 1_555 1_555
C54 C51 1_555 1_555
O7 C54 1_555 1_555
O8 C54 1_555 1_555
N1 Zn1 1_555 1_555
N2 C62 1_555 1_555
C55 N1 1_555 1_555
H29 C55 1_555 1_555
C56 C55 1_555 1_555
H30 C56 1_555 1_555
C57 C56 1_555 1_555
C58 C57 1_555 1_555
H31 C58 1_555 1_555
C59 N1 1_555 1_555
H32 C59 1_555 1_555
C60 C57 1_555 1_555
H33 C60 1_555 1_555
C61 C60 1_555 1_555
H34 C61 1_555 1_555
C62 H35 1_555 1_555
C63 C62 1_555 1_555
H36 C63 1_555 1_555
C64 C61 1_555 1_555
C65 C64 1_555 1_555
H37 C65 1_555 1_555
C66 N2 1_555 1_555
H38 C66 1_555 1_555
Zn1_2 O7 1_555 1_555
Zn1_3 O5 1_555 1_555
Zn1_4 O3 1_555 1_555
Zn2_2 O8 1_555 1_555
Zn2_3 O6 1_555 1_555
Zn2_4 O4 1_555 1_555
Zn2_5 N2 1_555 1_555
O3_2 Zn1 1_555 1_555
O4_2 Zn2 1_555 1_555
O5_2 Zn1 1_555 1_555
O6_2 Zn2 1_555 1_555
O7_2 Zn1 1_555 1_555
O8_2 Zn2 1_555 1_555
N2_2 Zn2 1_555 1_555
C4 C5 1_555 1_555
C7 C8 1_555 1_555
C13 C14 1_555 1_555
C17 C18 1_555 1_555
C20 C21 1_555 1_555
C26 C27 1_555 1_555
C33 C34 1_555 1_555
C39 C40 1_555 1_555
C43 C44 1_555 1_555
C46 C47 1_555 1_555
C52 C53 1_555 1_555
C58 C59 1_555 1_555
C63 C64 1_555 1_555
C65 C66 1_555 1_555

#END
