
#######################################################################
#
#                 Cambridge Crystallographic Data Centre
#                                CCDC 
#
#######################################################################
#
# If this CIF has been generated from an entry in the Cambridge 
# Structural Database, then it will include bibliographic, chemical, 
# crystal, experimental, refinement or atomic coordinate data resulting 
# from the CCDC's data processing and validation procedures.
#
#######################################################################

data_ERUFUS
_chemical_formula_moiety         '(C15 H12 Cd1 N6 O1 S3)n'
_symmetry_cell_setting           monoclinic
_symmetry_space_group_name_H-M   'C 2/c'
_symmetry_Int_Tables_number      15
_space_group_name_Hall           '-C 2yc'
loop_
_symmetry_equiv_pos_site_id
_symmetry_equiv_pos_as_xyz
1 x,y,z
2 1/2+x,1/2+y,z
3 x,-y,1/2+z
4 1/2+x,1/2-y,1/2+z
5 -x,-y,-z
6 1/2-x,1/2-y,-z
7 -x,y,1/2-z
8 1/2-x,1/2+y,1/2-z
_cell_length_a                   28.408(10)
_cell_length_b                   9.997(5)
_cell_length_c                   7.358(4)
_cell_angle_alpha                90
_cell_angle_beta                 99.013(8)
_cell_angle_gamma                90
_cell_volume                     2063.83
loop_
_atom_site_label
_atom_site_type_symbol
_atom_site_fract_x
_atom_site_fract_y
_atom_site_fract_z
Cd1 Cd 0.2500 0.7500 0.0000
S1 S 0.0000 0.78587(15) 0.2500
N1 N 0.17835(10) 0.8158(3) 0.1013(4)
N2 N 0.02315(12) 1.0300(3) 0.2329(5)
C1 C 0.15041(17) 0.7234(4) 0.1610(8)
H1 H 0.1618 0.6362 0.1762
C2 C 0.10566(18) 0.7503(4) 0.2014(9)
H2 H 0.0873 0.6822 0.2403
C3 C 0.08829(13) 0.8801(4) 0.1833(5)
C4 C 0.11772(14) 0.9773(4) 0.1318(5)
H3 H 0.1080 1.0662 0.1238
C5 C 0.16208(14) 0.9415(4) 0.0916(6)
H4 H 0.1815 1.0084 0.0562
C6 C 0.03975(13) 0.9101(4) 0.2201(5)
S2 S 0.30158(5) 0.78537(11) 0.34087(17)
C7 C 0.27843(13) 0.9285(3) 0.3935(5)
N3 N 0.26241(12) 1.0289(3) 0.4296(5)
N2F N -0.02315(12) 1.0300(3) 0.2671(5)
C6F C -0.03975(13) 0.9101(4) 0.2799(5)
C3F C -0.08829(13) 0.8801(4) 0.3167(5)
C2F C -0.10566(18) 0.7503(4) 0.2986(9)
C1F C -0.15041(17) 0.7234(4) 0.3390(8)
N1F N -0.17835(10) 0.8158(3) 0.3987(4)
C5F C -0.16208(14) 0.9415(4) 0.4084(6)
C4F C -0.11772(14) 0.9773(4) 0.3682(5)
H3F H -0.1080 1.0662 0.3762
H4F H -0.1815 1.0084 0.4438
H1F H -0.1618 0.6362 0.3238
H2F H -0.0873 0.6822 0.2597
S2E S 0.19842(5) 0.71463(11) -0.34087(17)
C7E C 0.22157(13) 0.5715(3) -0.3935(5)
N3E N 0.23759(12) 0.4711(3) -0.4296(5)
N1E N 0.32165(10) 0.6842(3) -0.1013(4)
N3B N 0.26241(12) 0.9711(3) -0.0704(5)
N3G N 0.23759(12) 0.5289(3) 0.0704(5)
Cd1B Cd 0.2500 1.2500 0.5000
Cd1C Cd -0.2500 0.7500 0.5000
Cd1B_2 Cd 0.2500 0.2500 -0.5000
C8 C 0.0455(6) 0.4668(16) 0.302(3)
H5 H 0.0615 0.4909 0.4224
H6 H 0.0163 0.4212 0.3132
H7 H 0.0385 0.5461 0.2294
O1 O 0.0756(5) 0.3800(14) 0.215(2)
H8 H 0.0803 0.4132 0.1172
loop_
_geom_bond_atom_site_label_1
_geom_bond_atom_site_label_2
_geom_bond_site_symmetry_1
_geom_bond_site_symmetry_2
Cd1 N1 1_555 1_555
S1 C6 1_555 1_555
N1 C1 1_555 1_555
N2 C6 1_555 1_555
C1 H1 1_555 1_555
C2 C1 1_555 1_555
H2 C2 1_555 1_555
C3 C2 1_555 1_555
C4 C3 1_555 1_555
H3 C4 1_555 1_555
C5 N1 1_555 1_555
H4 C5 1_555 1_555
C6 C3 1_555 1_555
S2 Cd1 1_555 1_555
C7 S2 1_555 1_555
N3 C7 1_555 1_555
C8 H5 1_555 1_555
H6 C8 1_555 1_555
H7 C8 1_555 1_555
O1 C8 1_555 1_555
H8 O1 1_555 1_555
N2F N2 1_555 1_555
C6F S1 1_555 1_555
C3F C6F 1_555 1_555
C2F C3F 1_555 1_555
C1F C2F 1_555 1_555
N1F C1F 1_555 1_555
C5F N1F 1_555 1_555
C4F C3F 1_555 1_555
H3F C4F 1_555 1_555
H4F C5F 1_555 1_555
H1F C1F 1_555 1_555
H2F C2F 1_555 1_555
S2E Cd1 1_555 1_555
C7E S2E 1_555 1_555
N3E C7E 1_555 1_555
N1E Cd1 1_555 1_555
N3B Cd1 1_555 1_555
N3G Cd1 1_555 1_555
Cd1B N3 1_555 1_555
Cd1C N1F 1_555 1_555
Cd1B_2 N3E 1_555 1_555
C4 C5 1_555 1_555
N2F C6F 1_555 1_555
C5F C4F 1_555 1_555

#END
