
#######################################################################
#
#                 Cambridge Crystallographic Data Centre
#                                CCDC 
#
#######################################################################
#
# If this CIF has been generated from an entry in the Cambridge 
# Structural Database, then it will include bibliographic, chemical, 
# crystal, experimental, refinement or atomic coordinate data resulting 
# from the CCDC's data processing and validation procedures.
#
#######################################################################

data_LACBID
_chemical_formula_moiety         '(C54 H42 Co7 N6 O35)n'
_symmetry_cell_setting           orthorhombic
_symmetry_space_group_name_H-M   'C m c a'
_symmetry_Int_Tables_number      64
_space_group_name_Hall           '-C 2ac 2'
loop_
_symmetry_equiv_pos_site_id
_symmetry_equiv_pos_as_xyz
1 x,y,z
2 -x,1/2-y,1/2+z
3 -x,1/2+y,1/2-z
4 x,-y,-z
5 1/2+x,1/2+y,z
6 1/2-x,-y,1/2+z
7 1/2-x,y,1/2-z
8 1/2+x,1/2-y,-z
9 -x,-y,-z
10 x,1/2+y,1/2-z
11 x,1/2-y,1/2+z
12 -x,y,z
13 1/2-x,1/2-y,-z
14 1/2+x,y,1/2-z
15 1/2+x,-y,1/2+z
16 1/2-x,1/2+y,z
_cell_length_a                   24.6165(9)
_cell_length_b                   35.8569(15)
_cell_length_c                   30.2783(12)
_cell_angle_alpha                90
_cell_angle_beta                 90
_cell_angle_gamma                90
_cell_volume                     26725.8
loop_
_atom_site_label
_atom_site_type_symbol
_atom_site_fract_x
_atom_site_fract_y
_atom_site_fract_z
_atom_site_U_iso_or_equiv
_atom_site_thermal_displace_type
O18 O 0.5000 0.0700(8) 0.6862(7) 0.5500 Uani
H21 H 0.4828 0.0560 0.7040 0.8260 Uiso
H21K H 0.5172 0.0560 0.7040 0.8260 Uiso
C1 C 0.21083(14) 0.92792(8) 0.89910(10) 0.0544 Uani
C2 C 0.23253(13) 0.96192(8) 0.87570(11) 0.0556 Uani
C3 C 0.19741(14) 0.98545(9) 0.85339(13) 0.0680 Uani
H1 H 0.1602 0.9808 0.8536 0.0820 Uiso
C4 C 0.21785(13) 1.01585(9) 0.83082(12) 0.0641 Uani
H2 H 0.1944 1.0312 0.8150 0.0770 Uiso
C5 C 0.27234(12) 1.02359(8) 0.83150(11) 0.0513 Uani
C6 C 0.30754(14) 1.00034(9) 0.85309(14) 0.0733 Uani
H3 H 0.3447 1.0050 0.8526 0.0880 Uiso
C7 C 0.28671(14) 0.96913(9) 0.87615(14) 0.0754 Uani
H4 H 0.3101 0.9535 0.8916 0.0900 Uiso
C8 C 0.29329(12) 1.05773(8) 0.80827(9) 0.0444 Uani
C9 C 0.32250(18) 1.31677(10) 0.89235(12) 0.0735 Uani
C10 C 0.32273(15) 1.27890(9) 0.87027(11) 0.0599 Uani
C11 C 0.37035(16) 1.25939(10) 0.86462(16) 0.0826 Uani
H5 H 0.4031 1.2697 0.8738 0.0990 Uiso
C12 C 0.16159(16) 0.88379(9) 1.05903(10) 0.0584 Uani
C13 C 0.19514(16) 0.86454(10) 1.08750(11) 0.0631 Uani
H6 H 0.2220 0.8489 1.0764 0.0760 Uiso
C14 C 0.18863(14) 0.86865(10) 1.13282(10) 0.0588 Uani
H7 H 0.2108 0.8554 1.1521 0.0710 Uiso
C15 C 0.14927(13) 0.89242(9) 1.14936(10) 0.0505 Uani
C16 C 0.11766(17) 0.91251(13) 1.12094(13) 0.0857 Uani
H8 H 0.0924 0.9295 1.1317 0.1030 Uiso
C17 C 0.12388(18) 0.90720(14) 1.07524(12) 0.0845 Uani
H9 H 0.1015 0.9201 1.0558 0.1010 Uiso
C18 C 0.16717(18) 0.87739(10) 1.00973(11) 0.0657 Uani
C19 C 0.31847(12) 1.17093(8) 0.81172(9) 0.0417 Uani
C20 C 0.32107(13) 1.20879(8) 0.83348(10) 0.0499 Uani
C21 C 0.36970(15) 1.22390(10) 0.84504(15) 0.0807 Uani
H10 H 0.4019 1.2110 0.8401 0.0970 Uiso
C22 C 0.27360(14) 1.22821(10) 0.84079(13) 0.0709 Uani
H11 H 0.2405 1.2172 0.8339 0.0850 Uiso
C23 C 0.27452(17) 1.26374(10) 0.85824(13) 0.0758 Uani
H12 H 0.2424 1.2771 0.8617 0.0910 Uiso
C24 C 0.14083(12) 0.89539(9) 1.19739(10) 0.0507 Uani
C25 C 0.47223(12) 1.06283(10) 0.82721(11) 0.0618 Uani
H13 H 0.4502 1.0457 0.8417 0.0740 Uiso
C26 C 0.5000 1.10732(10) 0.78864(15) 0.0428 Uani
C27 C 0.02805(14) 0.92539(9) 0.88312(13) 0.0701 Uani
H14 H 0.0500 0.9423 0.8681 0.0840 Uiso
C28 C -0.0000 0.88067(10) 0.92311(12) 0.0377 Uani
Co1 Co 0.2500 1.122496(13) 0.7500 0.0326 Uani
Co2 Co 0.380010(14) 1.106335(10) 0.779352(13) 0.0384 Uani
Co3 Co 0.122319(16) 0.880419(10) 0.923830(13) 0.0407 Uani
Co4 Co 0.26359(2) 0.859725(13) 0.946962(17) 0.0655 Uani
N1 N 0.04588(11) 0.89675(7) 0.90857(9) 0.0521 Uani
N2 N 0.45447(9) 1.09193(7) 0.80265(8) 0.0475 Uani
N3 N 0.5000 1.13821(11) 0.76133(14) 0.0623 Uani
N4 N 0.0000 0.84985(12) 0.95049(12) 0.0620 Uani
O1 O 0.24237(11) 0.91107(7) 0.92435(9) 0.0772 Uani
O2 O 0.16229(10) 0.91935(6) 0.89201(8) 0.0624 Uani
O3 O 0.25931(9) 1.08057(6) 0.79489(8) 0.0589 Uani
O4 O 0.34384(8) 1.06144(6) 0.80565(8) 0.0573 Uani
O5 O 0.36993(13) 1.33212(7) 0.89735(10) 0.0886 Uani
O6 O 0.27897(13) 1.33132(8) 0.90129(9) 0.0851 Uani
O7 O 0.32788(17) 0.85918(11) 0.90025(12) 0.1214 Uani
H15 H 0.3449 0.8732 0.9186 0.1460 Uiso
H16 H 0.2997 0.8537 0.8854 0.1460 Uiso
O8 O 0.31575(19) 0.88597(12) 0.99642(15) 0.1393 Uani
H17 H 0.3150 0.9109 0.9840 0.1670 Uiso
H18 H 0.2891 0.8871 1.0200 0.1670 Uiso
O9 O 0.29456(16) 0.80704(11) 0.97160(13) 0.1300 Uani
H19 H 0.2801 0.7998 0.9490 0.1950 Uiso
H20 H 0.2794 0.8106 0.9900 0.1950 Uiso
O10 O 0.20610(14) 0.85820(8) 0.99622(9) 0.0870 Uani
O11 O 0.13073(13) 0.89185(8) 0.98606(7) 0.0790 Uani
O12 O 0.27545(8) 1.16236(6) 0.79276(7) 0.0481 Uani
O13 O 0.36144(9) 1.15121(6) 0.81385(8) 0.0586 Uani
O14 O 0.16759(8) 0.87570(6) 1.22457(6) 0.0470 Uani
O15 O 0.10471(11) 0.91662(9) 1.21196(8) 0.0839 Uani
O16 O 0.54485(11) 1.15166(7) 0.75012(10) 0.0822 Uani
O17 O 0.04459(11) 0.83717(7) 0.96200(9) 0.0827 Uani
C25K C 0.52777(12) 1.06283(10) 0.82721(11) 0.0618 Uani
H13K H 0.5498 1.0457 0.8417 0.0740 Uiso
N2K N 0.54553(9) 1.09193(7) 0.80265(8) 0.0475 Uani
O16K O 0.45515(11) 1.15166(7) 0.75012(10) 0.0822 Uani
C27K C -0.02805(14) 0.92539(9) 0.88312(13) 0.0701 Uani
H14K H -0.0500 0.9423 0.8681 0.0840 Uiso
N1K N -0.04588(11) 0.89675(7) 0.90857(9) 0.0521 Uani
O17K O -0.04459(11) 0.83717(7) 0.96200(9) 0.0827 Uani
C1C C 0.21083(14) 1.07208(8) 1.10090(10) 0.0544 Uani
C2C C 0.23253(13) 1.03808(8) 1.12430(11) 0.0556 Uani
C3C C 0.19741(14) 1.01455(9) 1.14661(13) 0.0680 Uani
H1C H 0.1602 1.0192 1.1464 0.0820 Uiso
C4C C 0.21785(13) 0.98415(9) 1.16918(12) 0.0641 Uani
H2C H 0.1944 0.9688 1.1850 0.0770 Uiso
C5C C 0.27234(12) 0.97641(8) 1.16850(11) 0.0513 Uani
C6C C 0.30754(14) 0.99966(9) 1.14691(14) 0.0733 Uani
H3C H 0.3447 0.9950 1.1474 0.0880 Uiso
C7C C 0.28671(14) 1.03087(9) 1.12385(14) 0.0754 Uani
H4C H 0.3101 1.0465 1.1084 0.0900 Uiso
C8C C 0.29329(12) 0.94227(8) 1.19173(9) 0.0444 Uani
C9C C 0.32250(18) 0.68323(10) 1.10765(12) 0.0735 Uani
C10C C 0.32273(15) 0.72110(9) 1.12973(11) 0.0599 Uani
C11C C 0.37035(16) 0.74061(10) 1.13538(16) 0.0826 Uani
H5C H 0.4031 0.7303 1.1262 0.0990 Uiso
C12C C 0.16159(16) 1.11621(9) 0.94097(10) 0.0584 Uani
C13C C 0.19514(16) 1.13546(10) 0.91250(11) 0.0631 Uani
H6C H 0.2220 1.1511 0.9236 0.0760 Uiso
C14C C 0.18863(14) 1.13135(10) 0.86718(10) 0.0588 Uani
H7C H 0.2108 1.1446 0.8479 0.0710 Uiso
C15C C 0.14927(13) 1.10758(9) 0.85064(10) 0.0505 Uani
C16C C 0.11766(17) 1.08749(13) 0.87906(13) 0.0857 Uani
H8C H 0.0924 1.0705 0.8683 0.1030 Uiso
C17C C 0.12388(18) 1.09280(14) 0.92476(12) 0.0845 Uani
H9C H 0.1015 1.0799 0.9442 0.1010 Uiso
C18C C 0.16717(18) 1.12261(10) 0.99027(11) 0.0657 Uani
C19C C 0.31847(12) 0.82907(8) 1.18828(9) 0.0417 Uani
C20C C 0.32107(13) 0.79121(8) 1.16652(10) 0.0499 Uani
C21C C 0.36970(15) 0.77610(10) 1.15496(15) 0.0807 Uani
H10C H 0.4019 0.7890 1.1599 0.0970 Uiso
C22C C 0.27360(14) 0.77179(10) 1.15921(13) 0.0709 Uani
H11C H 0.2405 0.7828 1.1661 0.0850 Uiso
C23C C 0.27452(17) 0.73626(10) 1.14176(13) 0.0758 Uani
H12C H 0.2424 0.7229 1.1383 0.0910 Uiso
C24C C 0.14083(12) 1.10461(9) 0.80261(10) 0.0507 Uani
Co2C Co 0.380010(14) 0.893665(10) 1.220648(13) 0.0384 Uani
Co3C Co 0.122319(16) 1.119581(10) 1.076170(13) 0.0407 Uani
Co4C Co 0.26359(2) 1.140275(13) 1.053038(17) 0.0655 Uani
O1C O 0.24237(11) 1.08893(7) 1.07565(9) 0.0772 Uani
O2C O 0.16229(10) 1.08065(6) 1.10799(8) 0.0624 Uani
O3C O 0.25931(9) 0.91943(6) 1.20511(8) 0.0589 Uani
O4C O 0.34384(8) 0.93856(6) 1.19435(8) 0.0573 Uani
O5C O 0.36993(13) 0.66788(7) 1.10265(10) 0.0886 Uani
O6C O 0.27897(13) 0.66868(8) 1.09871(9) 0.0851 Uani
O7C O 0.32788(17) 1.14082(11) 1.09975(12) 0.1214 Uani
H15C H 0.3449 1.1268 1.0814 0.1460 Uiso
H16C H 0.2997 1.1463 1.1146 0.1460 Uiso
O8C O 0.31575(19) 1.11403(12) 1.00358(15) 0.1393 Uani
H17C H 0.3150 1.0891 1.0160 0.1670 Uiso
H18C H 0.2891 1.1129 0.9800 0.1670 Uiso
O9C O 0.29456(16) 1.19296(11) 1.02840(13) 0.1300 Uani
H19C H 0.2801 1.2002 1.0510 0.1950 Uiso
H20C H 0.2794 1.1894 1.0100 0.1950 Uiso
O10C O 0.20610(14) 1.14180(8) 1.00378(9) 0.0870 Uani
O11C O 0.13073(13) 1.10815(8) 1.01394(7) 0.0790 Uani
O12C O 0.27545(8) 0.83764(6) 1.20724(7) 0.0481 Uani
O13C O 0.36144(9) 0.84879(6) 1.18615(8) 0.0586 Uani
O14C O 0.16759(8) 1.12430(6) 0.77543(6) 0.0470 Uani
O15C O 0.10471(11) 1.08338(9) 0.78804(8) 0.0839 Uani
Co1C Co 0.2500 0.877504(13) 1.2500 0.0326 Uani
Co2E Co 0.119990(14) 0.893665(10) 1.279352(13) 0.0384 Uani
Co2F Co 0.119990(14) 1.106335(10) 0.720648(13) 0.0384 Uani
Co2K Co 0.619990(14) 1.106335(10) 0.779352(13) 0.0384 Uani
Co3K Co -0.122319(16) 0.880419(10) 0.923830(13) 0.0407 Uani
Co3L Co 0.377681(16) 0.619581(10) 1.076170(13) 0.0407 Uani
Co3O Co 0.377681(16) 1.380419(10) 0.923830(13) 0.0407 Uani
Co4L Co 0.23641(2) 0.640275(13) 1.053038(17) 0.0655 Uani
Co4O Co 0.23641(2) 1.359725(13) 0.946962(17) 0.0655 Uani
N1C N 0.04588(11) 1.10325(7) 1.09143(9) 0.0521 Uani
N2C N 0.45447(9) 0.90807(7) 1.19735(8) 0.0475 Uani
O3F O 0.24069(9) 1.08057(6) 0.70511(8) 0.0589 Uani
O5L O 0.13007(13) 1.16788(7) 1.10265(10) 0.0886 Uani
O5O O 0.13007(13) 0.83212(7) 0.89735(10) 0.0886 Uani
O6L O 0.22103(13) 1.16868(8) 1.09871(9) 0.0851 Uani
O6O O 0.22103(13) 0.83132(8) 0.90129(9) 0.0851 Uani
O12F O 0.22455(8) 1.16236(6) 0.70724(7) 0.0481 Uani
O14E O 0.33241(8) 1.12430(6) 0.72457(6) 0.0470 Uani
O14F O 0.33241(8) 0.87570(6) 1.27543(6) 0.0470 Uani
O15E O 0.39529(11) 1.08338(9) 0.71196(8) 0.0839 Uani
O15F O 0.39529(11) 0.91662(9) 1.28804(8) 0.0839 Uani
loop_
_atom_site_aniso_label
_atom_site_aniso_U_11
_atom_site_aniso_U_22
_atom_site_aniso_U_33
_atom_site_aniso_U_23
_atom_site_aniso_U_13
_atom_site_aniso_U_12
O18 0.35(2) 0.48(3) 0.82(5) 0.00(3) 0.000 0.000
C1 0.0536(16) 0.0410(13) 0.0686(18) 0.0106(12) 0.0063(12) -0.0085(12)
C2 0.0452(17) 0.0476(14) 0.0741(19) 0.0167(15) -0.0027(16) -0.0086(13)
C3 0.0374(16) 0.0547(16) 0.112(3) 0.0273(18) 0.0049(18) -0.0089(14)
C4 0.0344(15) 0.0570(16) 0.101(2) 0.0346(16) -0.0050(17) -0.0003(13)
C5 0.0368(15) 0.0439(14) 0.0731(18) 0.0152(14) -0.0010(14) -0.0011(12)
C6 0.0356(16) 0.0574(16) 0.127(3) 0.0344(19) -0.0040(19) -0.0062(15)
C7 0.0426(18) 0.0605(16) 0.123(3) 0.0493(17) -0.0082(19) -0.0016(15)
C8 0.0389(14) 0.0461(13) 0.0482(15) 0.0057(12) 0.0049(13) -0.0045(12)
C9 0.087 0.0586 0.075 -0.0064 -0.0273 0.0105
C10 0.061 0.0488 0.07 -0.0145 -0.0119 0.0047
C11 0.056 0.0619 0.13 -0.031 -0.023 -0.0007
C12 0.072(2) 0.0618(18) 0.0413(15) 0.0019(14) -0.0028(16) -0.0038(17)
C13 0.065(2) 0.073(2) 0.0512(17) -0.0060(16) -0.0001(17) 0.0165(18)
C14 0.0573(19) 0.0739(19) 0.0451(15) -0.0013(15) -0.0130(15) 0.0183(16)
C15 0.0428(17) 0.0652(17) 0.0434(15) 0.0019(14) -0.0075(13) 0.0027(14)
C16 0.081(2) 0.120(3) 0.056(2) 0.001(2) -0.0091(19) 0.049(2)
C17 0.101(3) 0.108(3) 0.0445(18) 0.0043(19) -0.0161(19) 0.036(2)
C18 0.096(3) 0.0574(17) 0.0437(16) 0.0095(14) -0.0018(18) -0.0092(18)
C19 0.0375(14) 0.0423(13) 0.0454(14) -0.0044(12) -0.0013(12) -0.0036(12)
C20 0.0458(16) 0.0436(14) 0.0602(17) -0.0046(13) -0.0005(14) -0.0070(13)
C21 0.054(2) 0.0580(18) 0.130(3) -0.031(2) -0.033(2) 0.0055(16)
C22 0.0438(18) 0.0649(18) 0.104(3) -0.0282(19) -0.0089(19) 0.0004(16)
C23 0.067(2) 0.0655(19) 0.095(2) -0.0298(19) -0.009(2) 0.0148(18)
C24 0.0304 0.0685 0.0533 -0.0073 -0.0065 -0.0039
C25 0.0307(15) 0.0716(19) 0.083(2) 0.0272(17) 0.0022(15) 0.0007(14)
C26 0.0256(18) 0.0389(18) 0.064(2) 0.0088(18) 0.000 0.000
C27 0.0529(19) 0.0614(17) 0.096(2) 0.0373(17) 0.0004(18) -0.0053(15)
C28 0.044(2) 0.0346(16) 0.0345(17) 0.0022(15) 0.000 0.000
Co1 0.0263(2) 0.0312(2) 0.0404(2) 0.000 -0.0010(2) 0.000
Co2 0.02638(17) 0.03821(17) 0.0505(2) 0.00547(15) -0.00350(16) 0.00096(14)
Co3 0.0402(2) 0.03554(16) 0.0464(2) 0.00339(15) 0.00071(17) -0.00066(15)
Co4 0.0589(3) 0.0567(2) 0.0808(3) 0.0164(2) -0.0086(2) 0.0077(2)
N1 0.0461(14) 0.0492(13) 0.0610(14) 0.0077(12) -0.0001(13) 0.0009(12)
N2 0.0271(11) 0.0482(12) 0.0671(15) 0.0093(12) 0.0037(11) 0.0009(10)
N3 0.0339(18) 0.069(2) 0.084(2) 0.033(2) 0.000 0.000
N4 0.068(3) 0.061(2) 0.057(2) 0.0111(18) 0.000 0.000
O1 0.0797(12) 0.0590(10) 0.0930(12) 0.0223(10) -0.0098(10) -0.0069(10)
O2 0.0571(13) 0.0521(11) 0.0780(14) 0.0191(11) -0.0001(11) -0.0118(10)
O3 0.0400(11) 0.0566(11) 0.0800(13) 0.0283(10) 0.0016(11) 0.0022(9)
O4 0.0291(10) 0.0500(10) 0.0928(15) 0.0174(11) 0.0037(10) -0.0041(9)
O5 0.099 0.0468 0.12 -0.0138 -0.0313 -0.0029
O6 0.0889 0.0719 0.0944 -0.0087 -0.0026 0.0078
O7 0.0988(19) 0.1215(19) 0.144(2) 0.0166(18) 0.0137(17) 0.0084(17)
O8 0.129(2) 0.134(2) 0.155(2) 0.0190(19) -0.018(2) 0.0026(19)
O9 0.124(2) 0.129(2) 0.1371(19) 0.0329(19) 0.0049(19) 0.0027(19)
O10 0.0980(13) 0.0767(12) 0.0864(12) 0.0132(11) 0.0078(12) 0.0096(12)
O11 0.0906(19) 0.1049(19) 0.0416(12) 0.0050(13) -0.0098(13) -0.0179(15)
O12 0.0348(10) 0.0532(10) 0.0563(11) -0.0145(9) 0.0006(9) -0.0037(9)
O13 0.0497(12) 0.0510(11) 0.0752(13) -0.0141(11) -0.0148(11) 0.0035(10)
O14 0.0405 0.057 0.0434 0.0027 -0.0097 -0.0105
O15 0.0633 0.132 0.0563 -0.0157 -0.0001 0.0415
O16 0.0600(14) 0.0719(14) 0.1147(19) 0.0339(14) 0.0074(15) -0.0196(12)
O17 0.0658(15) 0.0724(14) 0.1099(18) 0.0387(14) -0.0076(15) 0.0158(13)
C25K 0.0307 0.0716 0.083 0.0272 -0.0022 -0.0007
N2K 0.0271 0.0482 0.0671 0.0093 -0.0037 -0.0009
O16K 0.06 0.0719 0.1147 0.0339 -0.0074 0.0196
C27K 0.0529 0.0614 0.096 0.0373 -0.0004 0.0053
N1K 0.0461 0.0492 0.061 0.0077 0.0001 -0.0009
O17K 0.0658 0.0724 0.1099 0.0387 0.0076 -0.0158
C1C 0.0536 0.041 0.0686 0.0106 -0.0063 0.0085
C2C 0.0452 0.0476 0.0741 0.0167 0.0027 0.0086
C3C 0.0374 0.0547 0.112 0.0273 -0.0049 0.0089
C4C 0.0344 0.057 0.101 0.0346 0.005 0.0003
C5C 0.0368 0.0439 0.0731 0.0152 0.001 0.0011
C6C 0.0356 0.0574 0.127 0.0344 0.004 0.0062
C7C 0.0426 0.0605 0.123 0.0493 0.0082 0.0016
C8C 0.0389 0.0461 0.0482 0.0057 -0.0049 0.0045
C9C 0.087 0.0586 0.075 -0.0064 0.0273 -0.0105
C10C 0.061 0.0488 0.07 -0.0145 0.0119 -0.0047
C11C 0.056 0.0619 0.13 -0.031 0.023 0.0007
C12C 0.072 0.0618 0.0413 0.0019 0.0028 0.0038
C13C 0.065 0.073 0.0512 -0.006 0.0001 -0.0165
C14C 0.0573 0.0739 0.0451 -0.0013 0.013 -0.0183
C15C 0.0428 0.0652 0.0434 0.0019 0.0075 -0.0027
C16C 0.081 0.12 0.056 0.001 0.0091 -0.049
C17C 0.101 0.108 0.0445 0.0043 0.0161 -0.036
C18C 0.096 0.0574 0.0437 0.0095 0.0018 0.0092
C19C 0.0375 0.0423 0.0454 -0.0044 0.0013 0.0036
C20C 0.0458 0.0436 0.0602 -0.0046 0.0005 0.007
C21C 0.054 0.058 0.13 -0.031 0.033 -0.0055
C22C 0.0438 0.0649 0.104 -0.0282 0.0089 -0.0004
C23C 0.067 0.0655 0.095 -0.0298 0.009 -0.0148
C24C 0.0304 0.0685 0.0533 -0.0073 0.0065 0.0039
Co2C 0.02638 0.03821 0.0505 0.00547 0.0035 -0.00096
Co3C 0.0402 0.03554 0.0464 0.00339 -0.00071 0.00066
Co4C 0.0589 0.0567 0.0808 0.0164 0.0086 -0.0077
O1C 0.0797 0.059 0.093 0.0223 0.0098 0.0069
O2C 0.0571 0.0521 0.078 0.0191 0.0001 0.0118
O3C 0.04 0.0566 0.08 0.0283 -0.0016 -0.0022
O4C 0.0291 0.05 0.0928 0.0174 -0.0037 0.0041
O5C 0.099 0.0468 0.12 -0.0138 0.0313 0.0029
O6C 0.0889 0.0719 0.0944 -0.0087 0.0026 -0.0078
O7C 0.0988 0.1215 0.144 0.0166 -0.0137 -0.0084
O8C 0.129 0.134 0.155 0.019 0.018 -0.0026
O9C 0.124 0.129 0.1371 0.0329 -0.0049 -0.0027
O10C 0.098 0.0767 0.0864 0.0132 -0.0078 -0.0096
O11C 0.0906 0.1049 0.0416 0.005 0.0098 0.0179
O12C 0.0348 0.0532 0.0563 -0.0145 -0.0006 0.0037
O13C 0.0497 0.051 0.0752 -0.0141 0.0148 -0.0035
O14C 0.0405 0.057 0.0434 0.0027 0.0097 0.0105
O15C 0.0633 0.132 0.0563 -0.0157 0.0001 -0.0415
Co1C 0.0263 0.0312 0.0404 0 0.001 0
Co2E 0.02638 0.03821 0.0505 -0.00547 0.0035 0.00096
Co2F 0.02638 0.03821 0.0505 -0.00547 -0.0035 -0.00096
Co2K 0.02638 0.03821 0.0505 0.00547 0.0035 -0.00096
Co3K 0.0402 0.03554 0.0464 0.00339 -0.00071 0.00066
Co3L 0.0402 0.03554 0.0464 0.00339 0.00071 -0.00066
Co3O 0.0402 0.03554 0.0464 0.00339 -0.00071 0.00066
Co4L 0.0589 0.0567 0.0808 0.0164 -0.0086 0.0077
Co4O 0.0589 0.0567 0.0808 0.0164 0.0086 -0.0077
N1C 0.0461 0.0492 0.061 0.0077 0.0001 -0.0009
N2C 0.0271 0.0482 0.0671 0.0093 -0.0037 -0.0009
O3F 0.04 0.0566 0.08 -0.0283 0.0016 -0.0022
O5L 0.099 0.0468 0.12 -0.0138 -0.0313 -0.0029
O5O 0.099 0.0468 0.12 -0.0138 0.0313 0.0029
O6L 0.0889 0.0719 0.0944 -0.0087 -0.0026 0.0078
O6O 0.0889 0.0719 0.0944 -0.0087 0.0026 -0.0078
O12F 0.0348 0.0532 0.0563 0.0145 0.0006 0.0037
O14E 0.0405 0.057 0.0434 -0.0027 0.0097 -0.0105
O14F 0.0405 0.057 0.0434 -0.0027 -0.0097 0.0105
O15E 0.0633 0.132 0.0563 0.0157 0.0001 0.0415
O15F 0.0633 0.132 0.0563 0.0157 -0.0001 -0.0415
loop_
_geom_bond_atom_site_label_1
_geom_bond_atom_site_label_2
_geom_bond_site_symmetry_1
_geom_bond_site_symmetry_2
C1 C2 1_555 1_555
C2 C3 1_555 1_555
C3 H1 1_555 1_555
C4 C3 1_555 1_555
H2 C4 1_555 1_555
C5 C4 1_555 1_555
C6 C5 1_555 1_555
H3 C6 1_555 1_555
C7 C2 1_555 1_555
H4 C7 1_555 1_555
C8 C5 1_555 1_555
C9 C10 1_555 1_555
C10 C11 1_555 1_555
C11 H5 1_555 1_555
C12 C13 1_555 1_555
C13 H6 1_555 1_555
C14 C13 1_555 1_555
H7 C14 1_555 1_555
C15 C14 1_555 1_555
C16 C15 1_555 1_555
H8 C16 1_555 1_555
C17 C12 1_555 1_555
H9 C17 1_555 1_555
C18 C12 1_555 1_555
C19 C20 1_555 1_555
C20 C21 1_555 1_555
C21 C11 1_555 1_555
H10 C21 1_555 1_555
C22 C20 1_555 1_555
H11 C22 1_555 1_555
C23 C10 1_555 1_555
H12 C23 1_555 1_555
C24 C15 1_555 1_555
C25 H13 1_555 1_555
C26 N2 1_555 1_555
C27 H14 1_555 1_555
C28 N1 1_555 1_555
Co1 O3 1_555 1_555
Co2 N2 1_555 1_555
Co3 N1 1_555 1_555
Co4 O1 1_555 1_555
N1 C27 1_555 1_555
N2 C25 1_555 1_555
N3 C26 1_555 1_555
N4 C28 1_555 1_555
O1 C1 1_555 1_555
O2 C1 1_555 1_555
O3 C8 1_555 1_555
O4 C8 1_555 1_555
O5 C9 1_555 1_555
O6 C9 1_555 1_555
O7 Co4 1_555 1_555
H15 O7 1_555 1_555
H16 O7 1_555 1_555
O8 Co4 1_555 1_555
H17 O8 1_555 1_555
H18 O8 1_555 1_555
O9 Co4 1_555 1_555
H19 O9 1_555 1_555
H20 O9 1_555 1_555
O10 C18 1_555 1_555
O11 C18 1_555 1_555
O12 C19 1_555 1_555
O13 C19 1_555 1_555
O14 C24 1_555 1_555
O15 C24 1_555 1_555
O16 N3 1_555 1_555
O17 N4 1_555 1_555
O18 H21 1_555 1_555
C25K C25 1_555 1_555
H13K C25K 1_555 1_555
N2K C26 1_555 1_555
O16K N3 1_555 1_555
C27K C27 1_555 1_555
H14K C27K 1_555 1_555
N1K C28 1_555 1_555
O17K N4 1_555 1_555
C1C C2C 1_555 1_555
C2C C3C 1_555 1_555
C3C H1C 1_555 1_555
C4C C3C 1_555 1_555
H2C C4C 1_555 1_555
C5C C4C 1_555 1_555
C6C C5C 1_555 1_555
H3C C6C 1_555 1_555
C7C C2C 1_555 1_555
H4C C7C 1_555 1_555
C8C C5C 1_555 1_555
C9C C10C 1_555 1_555
C10C C11C 1_555 1_555
C11C H5C 1_555 1_555
C12C C13C 1_555 1_555
C13C H6C 1_555 1_555
C14C C13C 1_555 1_555
H7C C14C 1_555 1_555
C15C C14C 1_555 1_555
C16C C15C 1_555 1_555
H8C C16C 1_555 1_555
C17C C12C 1_555 1_555
H9C C17C 1_555 1_555
C18C C12C 1_555 1_555
C19C C20C 1_555 1_555
C20C C21C 1_555 1_555
C21C C11C 1_555 1_555
H10C C21C 1_555 1_555
C22C C20C 1_555 1_555
H11C C22C 1_555 1_555
C23C C10C 1_555 1_555
H12C C23C 1_555 1_555
C24C C15C 1_555 1_555
Co2C O4C 1_555 1_555
Co3C O2C 1_555 1_555
Co4C O1C 1_555 1_555
O1C C1C 1_555 1_555
O2C C1C 1_555 1_555
O3C C8C 1_555 1_555
O4C C8C 1_555 1_555
O5C C9C 1_555 1_555
O6C C9C 1_555 1_555
O7C Co4C 1_555 1_555
H15C O7C 1_555 1_555
H16C O7C 1_555 1_555
O8C Co4C 1_555 1_555
H17C O8C 1_555 1_555
H18C O8C 1_555 1_555
O9C Co4C 1_555 1_555
H19C O9C 1_555 1_555
H20C O9C 1_555 1_555
O10C C18C 1_555 1_555
O11C C18C 1_555 1_555
O12C C19C 1_555 1_555
O13C C19C 1_555 1_555
O14C Co1 1_555 1_555
O15C C24C 1_555 1_555
Co1C O14 1_555 1_555
Co2E O14 1_555 1_555
Co2F O14C 1_555 1_555
Co2K N2K 1_555 1_555
Co3K N1K 1_555 1_555
Co3L O5C 1_555 1_555
Co3O O5 1_555 1_555
Co4L O6C 1_555 1_555
Co4O O6 1_555 1_555
N1C Co3C 1_555 1_555
N2C Co2C 1_555 1_555
O3F Co1 1_555 1_555
O5L Co3C 1_555 1_555
O5O Co3 1_555 1_555
O6L Co4C 1_555 1_555
O6O Co4 1_555 1_555
O12F Co1 1_555 1_555
O14E Co1 1_555 1_555
O14F Co2C 1_555 1_555
O15E Co2 1_555 1_555
O15F Co2C 1_555 1_555
H21K O18 1_555 1_555
C6 C7 1_555 1_555
C16 C17 1_555 1_555
C22 C23 1_555 1_555
Co1 O12 1_555 1_555
Co2 O4 1_555 1_555
Co2 O13 1_555 1_555
Co2 O14E 1_555 1_555
Co3 O2 1_555 1_555
Co3 O11 1_555 1_555
Co4 O10 1_555 1_555
O15 Co2E 1_555 1_555
C25K N2K 1_555 1_555
C27K N1K 1_555 1_555
C6C C7C 1_555 1_555
C16C C17C 1_555 1_555
C22C C23C 1_555 1_555
C24C O14C 1_555 1_555
Co2C O13C 1_555 1_555
Co3C O11C 1_555 1_555
Co4C O10C 1_555 1_555
O3C Co1C 1_555 1_555
O12C Co1C 1_555 1_555
O15C Co2F 1_555 1_555
Co1C O14F 1_555 1_555

#END
