
#######################################################################
#
#                 Cambridge Crystallographic Data Centre
#                                CCDC 
#
#######################################################################
#
# If this CIF has been generated from an entry in the Cambridge 
# Structural Database, then it will include bibliographic, chemical, 
# crystal, experimental, refinement or atomic coordinate data resulting 
# from the CCDC's data processing and validation procedures.
#
#######################################################################

data_VEGXIQ01
_chemical_formula_moiety         '(C68 H40 F24 Mn6 O22)n'
_symmetry_cell_setting           monoclinic
_symmetry_space_group_name_H-M   'P 21/c'
_symmetry_Int_Tables_number      14
_space_group_name_Hall           '-P 2ybc'
loop_
_symmetry_equiv_pos_site_id
_symmetry_equiv_pos_as_xyz
1 x,y,z
2 -x,1/2+y,1/2-z
3 -x,-y,-z
4 x,1/2-y,1/2+z
_cell_length_a                   7.2770(15)
_cell_length_b                   31.837(6)
_cell_length_c                   16.434(3)
_cell_angle_alpha                90
_cell_angle_beta                 99.98(3)
_cell_angle_gamma                90
_cell_volume                     3749.78
loop_
_atom_site_label
_atom_site_type_symbol
_atom_site_fract_x
_atom_site_fract_y
_atom_site_fract_z
Mn1 Mn 0.25236(8) -0.070680(18) 0.39853(4)
Mn2 Mn 0.27354(8) 0.073648(18) 0.62514(4)
Mn3 Mn -0.0000 -0.0000 0.5000
Mn4 Mn 0.5000 -0.0000 0.5000
O1 O 0.2005(4) 0.00760(8) 0.61656(17)
O2 O 0.4396(4) -0.03535(9) 0.61138(17)
O3 O 0.3024(4) -0.04534(10) 1.28464(18)
O4 O 0.5762(4) -0.06543(9) 1.25271(18)
O5 O -0.0524(4) -0.06866(8) 0.49725(17)
O6 O 0.2004(4) -0.10888(9) 0.50357(19)
O7 O -0.0263(4) -0.40313(8) 0.83087(18)
O8 O 0.2295(4) -0.36616(9) 0.8322(2)
O9 O 0.2192(4) -0.00767(9) 0.43441(17)
O10 O 0.5328(4) -0.06413(9) 0.45348(18)
O11 O 0.3753(5) 0.14141(10) 0.6238(2)
C1 C 0.3063(6) -0.02384(12) 0.6433(2)
C2 C 0.2490(6) -0.04730(12) 0.7136(2)
C3 C 0.1658(7) -0.02597(14) 0.7716(3)
H1 H 0.1503 0.0030 0.7678
H2 H 0.1218 -0.2891 0.8010
C4 C 0.1064(7) -0.04790(13) 0.8346(3)
H3 H 0.0581 -0.0333 0.8751
C5 C 0.1175(6) -0.09171(13) 0.8387(2)
C6 C 0.1981(6) -0.11274(13) 0.7800(2)
H4 H 0.2056 -0.1419 0.7815
C7 C 0.2680(6) -0.09071(13) 0.7187(2)
H5 H 0.3272 -0.1050 0.6812
C8 C 0.0342(6) -0.11321(13) 0.9080(2)
C9 C 0.0710(7) -0.16116(14) 0.9133(3)
C10 C -0.1809(6) -0.10688(15) 0.8882(3)
C11 C 0.1220(6) -0.09518(13) 0.9933(2)
C12 C 0.0233(6) -0.08777(15) 1.0565(3)
H6 H -0.1052 -0.0919 1.0474
C13 C 0.1135(6) -0.07429(14) 1.1334(3)
H7 H 0.0450 -0.0686 1.1749
C14 C 0.3068(6) -0.06918(12) 1.1486(2)
C15 C 0.4056(6) -0.07598(14) 1.0853(3)
C16 C 0.3151(6) -0.08861(14) 1.0079(3)
H8 H 0.3829 -0.0927 0.9655
C17 C 0.4015(6) -0.05874(12) 1.2354(2)
C18 C 0.0397(5) -0.10265(12) 0.5175(2)
C19 C -0.0616(5) -0.13645(12) 0.5543(2)
C20 C -0.2018(6) -0.12677(12) 0.5992(2)
H9 H -0.2260 -0.0989 0.6103
C21 C -0.3052(6) -0.15847(12) 0.6274(3)
H10 H -0.3980 -0.1518 0.6576
C22 C -0.2708(6) -0.20034(12) 0.6106(2)
C23 C -0.1283(6) -0.20998(13) 0.5666(3)
H11 H -0.1041 -0.2379 0.5552
H12 H -0.2603 -0.3745 0.7028
C24 C -0.0230(6) -0.17833(12) 0.5398(3)
H13 H 0.0740 -0.1851 0.5119
C25 C -0.3912(5) -0.23679(12) 0.6341(3)
C26 C -0.5111(6) -0.22390(13) 0.6992(3)
C27 C -0.5244(6) -0.25010(13) 0.5538(3)
C28 C -0.2691(6) -0.27358(12) 0.6731(3)
C29 C -0.3258(6) -0.31530(13) 0.6648(3)
H14 H -0.4360 -0.3222 0.6296
C30 C -0.2201(6) -0.34676(12) 0.7085(3)
C31 C -0.0535(6) -0.33702(13) 0.7608(3)
C32 C 0.0084(6) -0.29567(13) 0.7680(3)
C33 C -0.1013(6) -0.26404(13) 0.7254(3)
H15 H -0.0623 -0.2362 0.7318
C34 C 0.0565(6) -0.37060(12) 0.8106(2)
F1 F -0.2464(4) -0.11516(10) 0.80833(16)
F2 F -0.2291(4) -0.06743(9) 0.90163(17)
F3 F -0.2749(4) -0.13155(10) 0.93238(18)
F4 F 0.0168(4) -0.17819(9) 0.97878(17)
F5 F -0.0178(4) -0.18152(9) 0.84614(17)
F6 F 0.2537(4) -0.16933(8) 0.91898(16)
F7 F -0.5973(4) -0.21648(8) 0.51114(17)
F8 F -0.4317(4) -0.27166(8) 0.50430(16)
F9 F -0.6666(4) -0.27355(8) 0.56798(18)
F10 F -0.4083(4) -0.20534(8) 0.76395(16)
F11 F -0.6495(4) -0.19708(8) 0.66866(18)
F12 F -0.5936(4) -0.25698(8) 0.72792(18)
H16 H 0.541(11) -0.074(2) 1.096(5)
H17 H 0.210(8) 0.0027(18) 0.387(4)
H18 H 0.561(7) -0.0774(15) 0.496(3)
H19 H 0.513(13) 0.147(3) 0.633(5)
H20 H 0.340(8) 0.1567(19) 0.659(4)
Mn1B Mn -0.25236(8) 0.070680(18) 0.60147(4)
Mn1_2 Mn 0.25236(8) -0.070680(18) 1.39853(4)
Mn1C Mn 0.25236(8) -0.429320(18) 0.89853(4)
Mn1B_2 Mn -0.25236(8) 0.070680(18) -0.39853(4)
Mn1A Mn -0.25236(8) 0.429320(18) 0.10147(4)
Mn1B_3 Mn 0.74764(8) 0.070680(18) 0.60147(4)
Mn2B Mn -0.27354(8) -0.073648(18) 0.37486(4)
Mn2B_2 Mn 0.72646(8) -0.073648(18) 1.37486(4)
Mn2A Mn -0.27354(8) -0.426352(18) 0.87486(4)
Mn2B_3 Mn 0.72646(8) -0.073648(18) 0.37486(4)
Mn2_2 Mn -0.72646(8) 0.073648(18) -0.37486(4)
Mn2C Mn 0.27354(8) 0.426352(18) 0.12514(4)
Mn4_2 Mn -0.5000 -0.0000 0.5000
O1B O -0.2005(4) -0.00760(8) 0.38344(17)
O2B O -0.4396(4) 0.03535(9) 0.38862(17)
O2B_2 O 0.5604(4) 0.03535(9) 0.38862(17)
O3B O -0.3024(4) 0.04534(10) -0.28464(18)
O3_2 O 0.3024(4) -0.04534(10) 0.28464(18)
O3B_2 O -0.3024(4) 0.04534(10) 0.71536(18)
O4B O -0.5762(4) 0.06543(9) -0.25271(18)
O4B_2 O 0.4238(4) 0.06543(9) 0.74729(18)
O4_2 O -0.4238(4) -0.06543(9) 0.25271(18)
O5B O 0.0524(4) 0.06866(8) 0.50275(17)
O6B O -0.2004(4) 0.10888(9) 0.49643(19)
O7B O 0.0263(4) 0.40313(8) 0.16913(18)
O7C O -0.0263(4) -0.09687(8) 0.33087(18)
O7A O 0.0263(4) 0.09687(8) 0.66913(18)
O8B O -0.2295(4) 0.36616(9) 0.1678(2)
O8C O 0.2295(4) -0.13384(9) 0.3322(2)
O8A O -0.2295(4) 0.13384(9) 0.6678(2)
O9B O -0.2192(4) 0.00767(9) 0.56559(17)
O9B_2 O 0.7808(4) 0.00767(9) 0.56559(17)
O10B O 0.4672(4) 0.06413(9) 0.54652(18)
O10B_2 O -0.5328(4) 0.06413(9) 0.54652(18)
O10_2 O -0.4672(4) -0.06413(9) 0.45348(18)
O11B O -0.3753(5) -0.14141(10) 0.3762(2)
C1B C -0.3063(6) 0.02384(12) 0.3567(2)
C2B C -0.2490(6) 0.04730(12) 0.2864(2)
C3B C -0.1658(7) 0.02597(14) 0.2284(3)
H1B H -0.1503 -0.0030 0.2322
H2B H -0.1218 0.2891 0.1990
C4B C -0.1064(7) 0.04790(13) 0.1654(3)
H3B H -0.0581 0.0333 0.1249
C5B C -0.1175(6) 0.09171(13) 0.1613(2)
C6B C -0.1981(6) 0.11274(13) 0.2200(2)
H4B H -0.2056 0.1419 0.2185
C7B C -0.2680(6) 0.09071(13) 0.2813(2)
H5B H -0.3272 0.1050 0.3188
C8B C -0.0342(6) 0.11321(13) 0.0920(2)
C9B C -0.0710(7) 0.16116(14) 0.0867(3)
C10B C 0.1809(6) 0.10688(15) 0.1118(3)
C11B C -0.1220(6) 0.09518(13) 0.0067(2)
C12B C -0.0233(6) 0.08777(15) -0.0565(3)
H6B H 0.1052 0.0919 -0.0474
C13B C -0.1135(6) 0.07429(14) -0.1334(3)
H7B H -0.0450 0.0686 -0.1749
C14B C -0.3068(6) 0.06918(12) -0.1486(2)
C15B C -0.4056(6) 0.07598(14) -0.0853(3)
C16B C -0.3151(6) 0.08861(14) -0.0079(3)
H8B H -0.3829 0.0927 0.0345
C17B C -0.4015(6) 0.05874(12) -0.2354(2)
C18B C -0.0397(5) 0.10265(12) 0.4825(2)
C19B C 0.0616(5) 0.13645(12) 0.4457(2)
C20B C 0.2018(6) 0.12677(12) 0.4008(2)
H9B H 0.2260 0.0989 0.3897
C21B C 0.3052(6) 0.15847(12) 0.3726(3)
H10B H 0.3980 0.1518 0.3424
C22B C 0.2708(6) 0.20034(12) 0.3894(2)
C23B C 0.1283(6) 0.20998(13) 0.4334(3)
H11B H 0.1041 0.2379 0.4448
H12B H 0.2603 0.3745 0.2972
C24B C 0.0230(6) 0.17833(12) 0.4602(3)
H13B H -0.0740 0.1851 0.4881
C25B C 0.3912(5) 0.23679(12) 0.3659(3)
C26B C 0.5111(6) 0.22390(13) 0.3008(3)
C27B C 0.5244(6) 0.25010(13) 0.4462(3)
C28B C 0.2691(6) 0.27358(12) 0.3269(3)
C29B C 0.3258(6) 0.31530(13) 0.3352(3)
H14B H 0.4360 0.3222 0.3704
C30B C 0.2201(6) 0.34676(12) 0.2915(3)
C31B C 0.0535(6) 0.33702(13) 0.2392(3)
C32B C -0.0084(6) 0.29567(13) 0.2320(3)
C33B C 0.1013(6) 0.26404(13) 0.2746(3)
H15B H 0.0623 0.2362 0.2682
C34B C -0.0565(6) 0.37060(12) 0.1894(2)
F1B F 0.2464(4) 0.11516(10) 0.19167(16)
F2B F 0.2291(4) 0.06743(9) 0.09837(17)
F3B F 0.2749(4) 0.13155(10) 0.06762(18)
F4B F -0.0168(4) 0.17819(9) 0.02122(17)
F5B F 0.0178(4) 0.18152(9) 0.15386(17)
F6B F -0.2537(4) 0.16933(8) 0.08102(16)
F7B F 0.5973(4) 0.21648(8) 0.48886(17)
F8B F 0.4317(4) 0.27166(8) 0.49570(16)
F9B F 0.6666(4) 0.27355(8) 0.43202(18)
F10B F 0.4083(4) 0.20534(8) 0.23605(16)
F11B F 0.6495(4) 0.19708(8) 0.33134(18)
F12B F 0.5936(4) 0.25698(8) 0.27208(18)
H16B H -0.541(11) 0.074(2) -0.096(5)
H17B H -0.210(8) -0.0027(18) 0.613(4)
H17B_2 H 0.790(8) -0.0027(18) 0.613(4)
H18B H 0.439(7) 0.0774(15) 0.504(3)
H18B_2 H -0.561(7) 0.0774(15) 0.504(3)
H18_2 H -0.439(7) -0.0774(15) 0.496(3)
H19B H -0.513(13) -0.147(3) 0.367(5)
H20B H -0.340(8) -0.1567(19) 0.341(4)
loop_
_geom_bond_atom_site_label_1
_geom_bond_atom_site_label_2
_geom_bond_site_symmetry_1
_geom_bond_site_symmetry_2
Mn1 O6 1_555 1_555
Mn2 O1 1_555 1_555
Mn3 O1 1_555 1_555
Mn4 O2 1_555 1_555
O1 C1 1_555 1_555
O2 C1 1_555 1_555
O3 C17 1_555 1_555
O4 C17 1_555 1_555
O5 Mn3 1_555 1_555
O6 C18 1_555 1_555
O7 C34 1_555 1_555
O8 C34 1_555 1_555
O9 Mn1 1_555 1_555
O10 Mn1 1_555 1_555
O11 Mn2 1_555 1_555
C1 C2 1_555 1_555
C2 C3 1_555 1_555
C3 H1 1_555 1_555
H2 C32 1_555 1_555
C4 C3 1_555 1_555
H3 C4 1_555 1_555
C5 C4 1_555 1_555
C6 C5 1_555 1_555
H4 C6 1_555 1_555
C7 C2 1_555 1_555
H5 C7 1_555 1_555
C8 C5 1_555 1_555
C9 C8 1_555 1_555
C10 C8 1_555 1_555
C11 C8 1_555 1_555
C12 C11 1_555 1_555
H6 C12 1_555 1_555
C13 C12 1_555 1_555
H7 C13 1_555 1_555
C14 C13 1_555 1_555
C15 C14 1_555 1_555
C16 C11 1_555 1_555
H8 C16 1_555 1_555
C17 C14 1_555 1_555
C18 O5 1_555 1_555
C19 C18 1_555 1_555
C20 C19 1_555 1_555
H9 C20 1_555 1_555
C21 C20 1_555 1_555
H10 C21 1_555 1_555
C22 C21 1_555 1_555
C23 C22 1_555 1_555
H11 C23 1_555 1_555
H12 C30 1_555 1_555
C24 C19 1_555 1_555
H13 C24 1_555 1_555
C25 C22 1_555 1_555
C26 C25 1_555 1_555
C27 C25 1_555 1_555
C28 C25 1_555 1_555
C29 C28 1_555 1_555
H14 C29 1_555 1_555
C30 C29 1_555 1_555
C31 C30 1_555 1_555
C32 C31 1_555 1_555
C33 C28 1_555 1_555
H15 C33 1_555 1_555
C34 C31 1_555 1_555
F1 C10 1_555 1_555
F2 C10 1_555 1_555
F3 C10 1_555 1_555
F4 C9 1_555 1_555
F5 C9 1_555 1_555
F6 C9 1_555 1_555
F7 C27 1_555 1_555
F8 C27 1_555 1_555
F9 C27 1_555 1_555
F10 C26 1_555 1_555
F11 C26 1_555 1_555
F12 C26 1_555 1_555
H16 C15 1_555 1_555
H17 O9 1_555 1_555
H18 O10 1_555 1_555
H19 O11 1_555 1_555
H20 O11 1_555 1_555
Mn1B O3B_2 1_555 1_555
Mn1_2 O3 1_555 1_555
Mn1C O7 1_555 1_555
Mn1B_2 O3B 1_555 1_555
Mn1A O7B 1_555 1_555
Mn1B_3 O9B_2 1_555 1_555
Mn2B O5 1_555 1_555
Mn2B_2 O4 1_555 1_555
Mn2A O7 1_555 1_555
Mn2B_3 O10 1_555 1_555
Mn2_2 O4B 1_555 1_555
Mn2C O7B 1_555 1_555
Mn4_2 O2B 1_555 1_555
O1B Mn3 1_555 1_555
O2B C1B 1_555 1_555
O2B_2 Mn4 1_555 1_555
O3B C17B 1_555 1_555
O3_2 Mn1 1_555 1_555
O4B C17B 1_555 1_555
O4B_2 Mn2 1_555 1_555
O4_2 Mn2B 1_555 1_555
O5B Mn2 1_555 1_555
O6B Mn1B 1_555 1_555
O7B C34B 1_555 1_555
O7C Mn1 1_555 1_555
O7A Mn2 1_555 1_555
O8B Mn1A 1_555 1_555
O8C Mn1 1_555 1_555
O8A Mn1B 1_555 1_555
O9B Mn3 1_555 1_555
O9B_2 Mn4 1_555 1_555
O10B Mn2 1_555 1_555
O10B_2 Mn1B 1_555 1_555
O10_2 Mn2B 1_555 1_555
O11B Mn2B 1_555 1_555
C1B O1B 1_555 1_555
C2B C1B 1_555 1_555
C3B C2B 1_555 1_555
H1B C3B 1_555 1_555
H2B C32B 1_555 1_555
C4B C3B 1_555 1_555
H3B C4B 1_555 1_555
C5B C4B 1_555 1_555
C6B C5B 1_555 1_555
H4B C6B 1_555 1_555
C7B C2B 1_555 1_555
H5B C7B 1_555 1_555
C8B C5B 1_555 1_555
C9B C8B 1_555 1_555
C10B C8B 1_555 1_555
C11B C8B 1_555 1_555
C12B C11B 1_555 1_555
H6B C12B 1_555 1_555
C13B C12B 1_555 1_555
H7B C13B 1_555 1_555
C14B C13B 1_555 1_555
C15B C14B 1_555 1_555
C16B C11B 1_555 1_555
H8B C16B 1_555 1_555
C17B C14B 1_555 1_555
C18B O5B 1_555 1_555
C19B C18B 1_555 1_555
C20B C19B 1_555 1_555
H9B C20B 1_555 1_555
C21B C20B 1_555 1_555
H10B C21B 1_555 1_555
C22B C21B 1_555 1_555
C23B C22B 1_555 1_555
H11B C23B 1_555 1_555
H12B C30B 1_555 1_555
C24B C19B 1_555 1_555
H13B C24B 1_555 1_555
C25B C22B 1_555 1_555
C26B C25B 1_555 1_555
C27B C25B 1_555 1_555
C28B C25B 1_555 1_555
C29B C28B 1_555 1_555
H14B C29B 1_555 1_555
C30B C29B 1_555 1_555
C31B C30B 1_555 1_555
C32B C31B 1_555 1_555
C33B C28B 1_555 1_555
H15B C33B 1_555 1_555
C34B O8B 1_555 1_555
F1B C10B 1_555 1_555
F2B C10B 1_555 1_555
F3B C10B 1_555 1_555
F4B C9B 1_555 1_555
F5B C9B 1_555 1_555
F6B C9B 1_555 1_555
F7B C27B 1_555 1_555
F8B C27B 1_555 1_555
F9B C27B 1_555 1_555
F10B C26B 1_555 1_555
F11B C26B 1_555 1_555
F12B C26B 1_555 1_555
H16B C15B 1_555 1_555
H17B O9B 1_555 1_555
H17B_2 O9B_2 1_555 1_555
H18B O10B 1_555 1_555
H18B_2 O10B_2 1_555 1_555
H18_2 O10_2 1_555 1_555
H19B O11B 1_555 1_555
H20B O11B 1_555 1_555
Mn3 O9 1_555 1_555
Mn3 O5B 1_555 1_555
Mn4 O9 1_555 1_555
Mn4 O10 1_555 1_555
Mn4 O10B 1_555 1_555
O8 Mn1C 1_555 1_555
C6 C7 1_555 1_555
C15 C16 1_555 1_555
C23 C24 1_555 1_555
C32 C33 1_555 1_555
Mn1B O7A 1_555 1_555
Mn1B O9B 1_555 1_555
Mn1B_3 O10B 1_555 1_555
Mn2B O1B 1_555 1_555
Mn2B O7C 1_555 1_555
Mn4_2 O9B 1_555 1_555
Mn4_2 O10B_2 1_555 1_555
Mn4_2 O10_2 1_555 1_555
O6B C18B 1_555 1_555
C6B C7B 1_555 1_555
C15B C16B 1_555 1_555
C23B C24B 1_555 1_555
C31B C34B 1_555 1_555
C32B C33B 1_555 1_555

#END
