
#######################################################################
#
#                 Cambridge Crystallographic Data Centre
#                                CCDC 
#
#######################################################################
#
# If this CIF has been generated from an entry in the Cambridge 
# Structural Database, then it will include bibliographic, chemical, 
# crystal, experimental, refinement or atomic coordinate data resulting 
# from the CCDC's data processing and validation procedures.
#
#######################################################################

data_VEGXOW
_chemical_formula_moiety         '(C68 H40 Co6 F24 O22)n'
_symmetry_cell_setting           monoclinic
_symmetry_space_group_name_H-M   'P 21/c'
_symmetry_Int_Tables_number      14
_space_group_name_Hall           '-P 2ybc'
loop_
_symmetry_equiv_pos_site_id
_symmetry_equiv_pos_as_xyz
1 x,y,z
2 -x,1/2+y,1/2-z
3 -x,-y,-z
4 x,1/2-y,1/2+z
_cell_length_a                   7.127(1)
_cell_length_b                   31.803(4)
_cell_length_c                   16.424(2)
_cell_angle_alpha                90
_cell_angle_beta                 99.89(2)
_cell_angle_gamma                90
_cell_volume                     3667.34
loop_
_atom_site_label
_atom_site_type_symbol
_atom_site_fract_x
_atom_site_fract_y
_atom_site_fract_z
_atom_site_U_iso_or_equiv
_atom_site_thermal_displace_type
C1 C 0.30630 -0.02384 0.64320 0.0500 Uiso
C2 C 0.24900 -0.04730 0.71360 0.0500 Uiso
C3 C 0.16570 -0.02596 0.77160 0.0500 Uiso
C4 C 0.10640 -0.04790 0.83460 0.0500 Uiso
C5 C 0.11750 -0.09170 0.83870 0.0500 Uiso
C6 C 0.19810 -0.11274 0.78000 0.0500 Uiso
C7 C 0.26800 -0.09071 0.71870 0.0500 Uiso
C8 C 0.03420 -0.11321 0.90800 0.0500 Uiso
C9 C 0.07100 -0.16117 0.91330 0.0500 Uiso
C10 C -0.18080 -0.10688 0.88820 0.0500 Uiso
C11 C 0.12200 -0.09518 0.99330 0.0500 Uiso
C12 C 0.31510 -0.08861 1.00790 0.0500 Uiso
C13 C 0.40560 -0.07600 1.08530 0.0500 Uiso
C14 C 0.30680 -0.06918 1.14860 0.0500 Uiso
C15 C 0.11350 -0.07429 1.13340 0.0500 Uiso
C16 C 0.02330 -0.08775 1.05650 0.0500 Uiso
C17 C 0.40150 -0.05874 1.23540 0.0500 Uiso
C18 C -0.03970 0.10266 0.48250 0.0500 Uiso
C19 C 0.06160 0.13645 0.44570 0.0500 Uiso
C20 C 0.20180 0.12677 0.40080 0.0500 Uiso
C21 C 0.30520 0.15847 0.37260 0.0500 Uiso
C22 C 0.27090 0.20034 0.38940 0.0500 Uiso
C23 C 0.12830 0.20998 0.43340 0.0500 Uiso
C24 C 0.02300 0.17833 0.46030 0.0500 Uiso
C25 C 0.39120 0.23679 0.36590 0.0500 Uiso
C26 C 0.51110 0.22390 0.30080 0.0500 Uiso
C27 C 0.52440 0.25010 0.44620 0.0500 Uiso
C28 C 0.26910 0.27358 0.32690 0.0500 Uiso
C29 C 0.10130 0.26404 0.27460 0.0500 Uiso
C30 C -0.00830 0.29565 0.23200 0.0500 Uiso
C31 C 0.05350 0.33702 0.23920 0.0500 Uiso
C32 C 0.22000 0.34677 0.29150 0.0500 Uiso
C33 C 0.32580 0.31530 0.33520 0.0500 Uiso
C34 C -0.05650 0.37060 0.18940 0.0500 Uiso
Co1 Co 0.25237 -0.07068 1.39854 0.0500 Uiso
Co2 Co 0.72646 -0.07365 1.37486 0.0500 Uiso
Co3 Co 0.00000 0.00000 0.50000 0.0500 Uiso
Co4 Co 0.50000 0.00000 0.50000 0.0500 Uiso
F1 F -0.01780 -0.18152 0.84614 0.0500 Uiso
F2 F 0.25370 -0.16933 0.91898 0.0500 Uiso
F3 F 0.01680 -0.17819 0.97878 0.0500 Uiso
F4 F -0.24640 -0.11516 0.80833 0.0500 Uiso
F5 F -0.27490 -0.13156 0.93238 0.0500 Uiso
F6 F -0.22910 -0.06743 0.90163 0.0500 Uiso
F7 F 0.40830 0.20534 0.23605 0.0500 Uiso
F8 F 0.64950 0.19708 0.33134 0.0500 Uiso
F9 F 0.59360 0.25698 0.27209 0.0500 Uiso
F10 F 0.66660 0.27355 0.43203 0.0500 Uiso
F11 F 0.43170 0.27166 0.49570 0.0500 Uiso
F12 F 0.59720 0.21648 0.48886 0.0500 Uiso
H1 H 0.15010 0.00300 0.76790 0.0500 Uiso
H2 H 0.05810 -0.03330 0.87510 0.0500 Uiso
H3 H 0.20560 -0.14190 0.78150 0.0500 Uiso
H4 H 0.32720 -0.10500 0.68120 0.0500 Uiso
H5 H 0.56100 -0.07750 1.49600 0.0500 Uiso
H6 H 0.21000 0.00280 0.38600 0.0500 Uiso
H7 H 0.38290 -0.09270 0.96550 0.0500 Uiso
H8 H 0.53420 -0.07210 1.09470 0.0500 Uiso
H9 H 0.04500 -0.06870 1.17490 0.0500 Uiso
H10 H -0.10520 -0.09180 1.04730 0.0500 Uiso
H11 H 0.22600 0.09890 0.38970 0.0500 Uiso
H12 H 0.39800 0.15180 0.34240 0.0500 Uiso
H13 H 0.10410 0.23790 0.44480 0.0500 Uiso
H14 H -0.07390 0.18510 0.48810 0.0500 Uiso
H15 H 0.06230 0.23620 0.26820 0.0500 Uiso
H16 H -0.12190 0.28910 0.19900 0.0500 Uiso
H17 H 0.26030 0.37450 0.29720 0.0500 Uiso
H18 H 0.43600 0.32210 0.37040 0.0500 Uiso
H19 H 0.48600 -0.14700 1.36600 0.0500 Uiso
H20 H 0.65900 -0.15670 1.34100 0.0500 Uiso
O1 O 0.43960 -0.03535 0.61139 0.0500 Uiso
O2 O 0.20050 0.00760 0.61656 0.0500 Uiso
O3 O 0.30240 -0.04534 1.28464 0.0500 Uiso
O4 O 0.57630 -0.06543 1.25272 0.0500 Uiso
O5 O 0.05240 0.06866 0.50276 0.0500 Uiso
O6 O -0.20040 0.10888 0.49643 0.0500 Uiso
O7 O -0.22950 0.36616 0.16780 0.0500 Uiso
O8 O 0.02630 0.40313 0.16913 0.0500 Uiso
O9 O 0.62470 -0.14141 1.37610 0.0500 Uiso
O10 O 0.53280 -0.06413 1.45348 0.0500 Uiso
O11 O 0.21920 -0.00767 0.43440 0.0500 Uiso
C1B C -0.30630 0.02384 0.35680 0.0500 Uiso
C2B C -0.24900 0.04730 0.28640 0.0500 Uiso
C3B C -0.16570 0.02596 0.22840 0.0500 Uiso
C4B C -0.10640 0.04790 0.16540 0.0500 Uiso
C5B C -0.11750 0.09170 0.16130 0.0500 Uiso
C6B C -0.19810 0.11274 0.22000 0.0500 Uiso
C7B C -0.26800 0.09071 0.28130 0.0500 Uiso
C8B C -0.03420 0.11321 0.09200 0.0500 Uiso
C9B C -0.07100 0.16117 0.08670 0.0500 Uiso
C10B C 0.18080 0.10688 0.11180 0.0500 Uiso
C11B C -0.12200 0.09518 0.00670 0.0500 Uiso
C12B C -0.31510 0.08861 -0.00790 0.0500 Uiso
C13B C -0.40560 0.07600 -0.08530 0.0500 Uiso
C14B C -0.30680 0.06918 -0.14860 0.0500 Uiso
C15B C -0.11350 0.07429 -0.13340 0.0500 Uiso
C16B C -0.02330 0.08775 -0.05650 0.0500 Uiso
C17B C -0.40150 0.05874 -0.23540 0.0500 Uiso
C18B C 0.03970 -0.10266 0.51750 0.0500 Uiso
C19B C -0.06160 -0.13645 0.55430 0.0500 Uiso
C20B C -0.20180 -0.12677 0.59920 0.0500 Uiso
C21B C -0.30520 -0.15847 0.62740 0.0500 Uiso
C22B C -0.27090 -0.20034 0.61060 0.0500 Uiso
C23B C -0.12830 -0.20998 0.56660 0.0500 Uiso
C24B C -0.02300 -0.17833 0.53970 0.0500 Uiso
C25B C -0.39120 -0.23679 0.63410 0.0500 Uiso
C26B C -0.51110 -0.22390 0.69920 0.0500 Uiso
C27B C -0.52440 -0.25010 0.55380 0.0500 Uiso
C28B C -0.26910 -0.27358 0.67310 0.0500 Uiso
C29B C -0.10130 -0.26404 0.72540 0.0500 Uiso
C30B C 0.00830 -0.29565 0.76800 0.0500 Uiso
C31B C -0.05350 -0.33702 0.76080 0.0500 Uiso
C32B C -0.22000 -0.34677 0.70850 0.0500 Uiso
C33B C -0.32580 -0.31530 0.66480 0.0500 Uiso
C34B C 0.05650 -0.37060 0.81060 0.0500 Uiso
Co1B Co -0.25237 0.07068 -0.39854 0.0500 Uiso
Co1B_2 Co -0.25237 0.07068 0.60146 0.0500 Uiso
Co1A Co -0.25237 0.42932 0.10146 0.0500 Uiso
Co1_2 Co 0.25237 -0.07068 0.39854 0.0500 Uiso
Co1C Co 0.25237 -0.42932 0.89854 0.0500 Uiso
Co1B_3 Co 0.74763 0.07068 0.60146 0.0500 Uiso
Co2B Co -0.72646 0.07365 -0.37486 0.0500 Uiso
Co2B_2 Co 0.27354 0.07365 0.62514 0.0500 Uiso
Co2A Co 0.27354 0.42635 0.12514 0.0500 Uiso
Co2_2 Co -0.27354 -0.07365 0.37486 0.0500 Uiso
Co2C Co -0.27354 -0.42635 0.87486 0.0500 Uiso
Co4_2 Co 0.50000 0.00000 1.50000 0.0500 Uiso
Co4_3 Co -0.50000 0.00000 0.50000 0.0500 Uiso
F1B F 0.01780 0.18152 0.15386 0.0500 Uiso
F2B F -0.25370 0.16933 0.08102 0.0500 Uiso
F3B F -0.01680 0.17819 0.02122 0.0500 Uiso
F4B F 0.24640 0.11516 0.19167 0.0500 Uiso
F5B F 0.27490 0.13156 0.06762 0.0500 Uiso
F6B F 0.22910 0.06743 0.09837 0.0500 Uiso
F7B F -0.40830 -0.20534 0.76395 0.0500 Uiso
F8B F -0.64950 -0.19708 0.66866 0.0500 Uiso
F9B F -0.59360 -0.25698 0.72791 0.0500 Uiso
F10B F -0.66660 -0.27355 0.56797 0.0500 Uiso
F11B F -0.43170 -0.27166 0.50430 0.0500 Uiso
F12B F -0.59720 -0.21648 0.51114 0.0500 Uiso
H1B H -0.15010 -0.00300 0.23210 0.0500 Uiso
H2B H -0.05810 0.03330 0.12490 0.0500 Uiso
H3B H -0.20560 0.14190 0.21850 0.0500 Uiso
H4B H -0.32720 0.10500 0.31880 0.0500 Uiso
H5B H 0.43900 0.07750 0.50400 0.0500 Uiso
H5_2 H 0.56100 -0.07750 0.49600 0.0500 Uiso
H5B_2 H -0.56100 0.07750 -0.49600 0.0500 Uiso
H6B H -0.21000 -0.00280 0.61400 0.0500 Uiso
H6_2 H 0.21000 0.00280 1.38600 0.0500 Uiso
H6B_2 H 0.79000 -0.00280 0.61400 0.0500 Uiso
H6B_3 H -0.21000 -0.00280 -0.38600 0.0500 Uiso
H7B H -0.38290 0.09270 0.03450 0.0500 Uiso
H8B H -0.53420 0.07210 -0.09470 0.0500 Uiso
H9B H -0.04500 0.06870 -0.17490 0.0500 Uiso
H10B H 0.10520 0.09180 -0.04730 0.0500 Uiso
H11B H -0.22600 -0.09890 0.61030 0.0500 Uiso
H12B H -0.39800 -0.15180 0.65760 0.0500 Uiso
H13B H -0.10410 -0.23790 0.55520 0.0500 Uiso
H14B H 0.07390 -0.18510 0.51190 0.0500 Uiso
H15B H -0.06230 -0.23620 0.73180 0.0500 Uiso
H16B H 0.12190 -0.28910 0.80100 0.0500 Uiso
H17B H -0.26030 -0.37450 0.70280 0.0500 Uiso
H18B H -0.43600 -0.32210 0.62960 0.0500 Uiso
H19B H -0.48600 0.14700 -0.36600 0.0500 Uiso
H20B H -0.65900 0.15670 -0.34100 0.0500 Uiso
O1B O -0.43960 0.03535 0.38861 0.0500 Uiso
O1B_2 O 0.56040 0.03535 0.38861 0.0500 Uiso
O2B O -0.20050 -0.00760 0.38344 0.0500 Uiso
O2B_2 O 0.79950 -0.00760 1.38344 0.0500 Uiso
O2_2 O -0.79950 0.00760 -0.38344 0.0500 Uiso
O3B O -0.30240 0.04534 -0.28464 0.0500 Uiso
O4B O -0.57630 0.06543 -0.25272 0.0500 Uiso
O5B O -0.05240 -0.06866 0.49724 0.0500 Uiso
O5B_2 O 0.94760 -0.06866 1.49724 0.0500 Uiso
O5_2 O -0.94760 0.06866 -0.49724 0.0500 Uiso
O6B O 0.20040 -0.10888 0.50357 0.0500 Uiso
O6B_2 O 0.20040 -0.10888 1.50357 0.0500 Uiso
O6_2 O -0.20040 0.10888 -0.50357 0.0500 Uiso
O7B O 0.22950 -0.36616 0.83220 0.0500 Uiso
O7A O 0.22950 -0.13384 1.33220 0.0500 Uiso
O7C O -0.22950 0.13384 -0.33220 0.0500 Uiso
O8B O -0.02630 -0.40313 0.83087 0.0500 Uiso
O8A O -0.02630 -0.09687 1.33087 0.0500 Uiso
O8A_2 O 0.97370 -0.09687 1.33087 0.0500 Uiso
O8C O 0.02630 0.09687 -0.33087 0.0500 Uiso
O8C_2 O -0.97370 0.09687 -0.33087 0.0500 Uiso
O9B O -0.62470 0.14141 -0.37610 0.0500 Uiso
O10B O 0.46720 0.06413 0.54652 0.0500 Uiso
O10_2 O 0.53280 -0.06413 0.45348 0.0500 Uiso
O10B_2 O -0.53280 0.06413 -0.45348 0.0500 Uiso
O11B O -0.21920 0.00767 0.56560 0.0500 Uiso
O11_2 O 0.21920 -0.00767 1.43440 0.0500 Uiso
O11B_2 O 0.78080 0.00767 0.56560 0.0500 Uiso
O11B_3 O -0.21920 0.00767 -0.43440 0.0500 Uiso
loop_
_geom_bond_atom_site_label_1
_geom_bond_atom_site_label_2
_geom_bond_site_symmetry_1
_geom_bond_site_symmetry_2
C1 C2 1_555 1_555
C2 C3 1_555 1_555
C3 C4 1_555 1_555
C4 C5 1_555 1_555
C5 C6 1_555 1_555
C6 C7 1_555 1_555
C7 C2 1_555 1_555
C8 C5 1_555 1_555
C9 C8 1_555 1_555
C10 C8 1_555 1_555
C11 C8 1_555 1_555
C12 C11 1_555 1_555
C13 C12 1_555 1_555
C14 C13 1_555 1_555
C15 C14 1_555 1_555
C16 C11 1_555 1_555
C17 C14 1_555 1_555
C18 C19 1_555 1_555
C19 C20 1_555 1_555
C20 C21 1_555 1_555
C21 C22 1_555 1_555
C22 C23 1_555 1_555
C23 C24 1_555 1_555
C24 C19 1_555 1_555
C25 C22 1_555 1_555
C26 C25 1_555 1_555
C27 C25 1_555 1_555
C28 C25 1_555 1_555
C29 C28 1_555 1_555
C30 C29 1_555 1_555
C31 C30 1_555 1_555
C32 C31 1_555 1_555
C33 C28 1_555 1_555
C34 C31 1_555 1_555
Co1 O3 1_555 1_555
Co2 O4 1_555 1_555
Co3 O2 1_555 1_555
Co4 O1 1_555 1_555
F1 C9 1_555 1_555
F2 C9 1_555 1_555
F3 C9 1_555 1_555
F4 C10 1_555 1_555
F5 C10 1_555 1_555
F6 C10 1_555 1_555
F7 C26 1_555 1_555
F8 C26 1_555 1_555
F9 C26 1_555 1_555
F10 C27 1_555 1_555
F11 C27 1_555 1_555
F12 C27 1_555 1_555
H1 C3 1_555 1_555
H2 C4 1_555 1_555
H3 C6 1_555 1_555
H4 C7 1_555 1_555
H5 O10 1_555 1_555
H6 O11 1_555 1_555
H7 C12 1_555 1_555
H8 C13 1_555 1_555
H9 C15 1_555 1_555
H10 C16 1_555 1_555
H11 C20 1_555 1_555
H12 C21 1_555 1_555
H13 C23 1_555 1_555
H14 C24 1_555 1_555
H15 C29 1_555 1_555
H16 C30 1_555 1_555
H17 C32 1_555 1_555
H18 C33 1_555 1_555
H19 O9 1_555 1_555
H20 O9 1_555 1_555
O1 C1 1_555 1_555
O2 C1 1_555 1_555
O3 C17 1_555 1_555
O4 C17 1_555 1_555
O5 C18 1_555 1_555
O6 C18 1_555 1_555
O7 C34 1_555 1_555
O8 C34 1_555 1_555
O9 Co2 1_555 1_555
O10 Co1 1_555 1_555
O11 Co3 1_555 1_555
C1B C2B 1_555 1_555
C2B C3B 1_555 1_555
C3B C4B 1_555 1_555
C4B C5B 1_555 1_555
C5B C6B 1_555 1_555
C6B C7B 1_555 1_555
C7B C2B 1_555 1_555
C8B C5B 1_555 1_555
C9B C8B 1_555 1_555
C10B C8B 1_555 1_555
C11B C8B 1_555 1_555
C12B C11B 1_555 1_555
C13B C12B 1_555 1_555
C14B C13B 1_555 1_555
C15B C14B 1_555 1_555
C16B C11B 1_555 1_555
C17B C14B 1_555 1_555
C18B C19B 1_555 1_555
C19B C20B 1_555 1_555
C20B C21B 1_555 1_555
C21B C22B 1_555 1_555
C22B C23B 1_555 1_555
C23B C24B 1_555 1_555
C24B C19B 1_555 1_555
C25B C22B 1_555 1_555
C26B C25B 1_555 1_555
C27B C25B 1_555 1_555
C28B C25B 1_555 1_555
C29B C28B 1_555 1_555
C30B C29B 1_555 1_555
C31B C30B 1_555 1_555
C32B C31B 1_555 1_555
C33B C28B 1_555 1_555
C34B C31B 1_555 1_555
Co1B O3B 1_555 1_555
Co1B_2 O6 1_555 1_555
Co1A O7 1_555 1_555
Co1_2 O11 1_555 1_555
Co1C O7B 1_555 1_555
Co1B_3 O10B 1_555 1_555
Co2B O2_2 1_555 1_555
Co2B_2 O2 1_555 1_555
Co2A O8 1_555 1_555
Co2_2 O2B 1_555 1_555
Co2C O8B 1_555 1_555
Co4_2 O10 1_555 1_555
Co4_3 O1B 1_555 1_555
F1B C9B 1_555 1_555
F2B C9B 1_555 1_555
F3B C9B 1_555 1_555
F4B C10B 1_555 1_555
F5B C10B 1_555 1_555
F6B C10B 1_555 1_555
F7B C26B 1_555 1_555
F8B C26B 1_555 1_555
F9B C26B 1_555 1_555
F10B C27B 1_555 1_555
F11B C27B 1_555 1_555
F12B C27B 1_555 1_555
H1B C3B 1_555 1_555
H2B C4B 1_555 1_555
H3B C6B 1_555 1_555
H4B C7B 1_555 1_555
H5B O10B 1_555 1_555
H5_2 O10_2 1_555 1_555
H5B_2 O10B_2 1_555 1_555
H6B O11B 1_555 1_555
H6_2 O11_2 1_555 1_555
H6B_2 O11B_2 1_555 1_555
H6B_3 O11B_3 1_555 1_555
H7B C12B 1_555 1_555
H8B C13B 1_555 1_555
H9B C15B 1_555 1_555
H10B C16B 1_555 1_555
H11B C20B 1_555 1_555
H12B C21B 1_555 1_555
H13B C23B 1_555 1_555
H14B C24B 1_555 1_555
H15B C29B 1_555 1_555
H16B C30B 1_555 1_555
H17B C32B 1_555 1_555
H18B C33B 1_555 1_555
H19B O9B 1_555 1_555
H20B O9B 1_555 1_555
O1B C1B 1_555 1_555
O1B_2 Co4 1_555 1_555
O2B Co3 1_555 1_555
O2B_2 Co2 1_555 1_555
O3B C17B 1_555 1_555
O4B C17B 1_555 1_555
O5B Co3 1_555 1_555
O5B_2 Co2 1_555 1_555
O5_2 Co2B 1_555 1_555
O6B C18B 1_555 1_555
O6B_2 Co1 1_555 1_555
O6_2 Co1B 1_555 1_555
O7B C34B 1_555 1_555
O7A Co1 1_555 1_555
O7C Co1B 1_555 1_555
O8B C34B 1_555 1_555
O8A Co1 1_555 1_555
O8A_2 Co2 1_555 1_555
O8C Co1B 1_555 1_555
O8C_2 Co2B 1_555 1_555
O9B Co2B 1_555 1_555
O10B Co4 1_555 1_555
O10_2 Co4 1_555 1_555
O10B_2 Co1B 1_555 1_555
O11B Co3 1_555 1_555
O11_2 Co1 1_555 1_555
O11B_2 Co4 1_555 1_555
O11B_3 Co1B 1_555 1_555
C15 C16 1_555 1_555
C32 C33 1_555 1_555
Co2 O10 1_555 1_555
Co3 O5 1_555 1_555
Co4 O11 1_555 1_555
O5 Co2B_2 1_555 1_555
O8 Co1A 1_555 1_555
C1B O2B 1_555 1_555
C15B C16B 1_555 1_555
C18B O5B 1_555 1_555
C32B C33B 1_555 1_555
Co1B_2 O11B 1_555 1_555
Co1_2 O6B 1_555 1_555
Co1_2 O10_2 1_555 1_555
Co1C O8B 1_555 1_555
Co1B_3 O11B_2 1_555 1_555
Co2B O4B 1_555 1_555
Co2B O10B_2 1_555 1_555
Co2B_2 O10B 1_555 1_555
Co2_2 O5B 1_555 1_555
Co4_2 O11_2 1_555 1_555
Co4_3 O11B 1_555 1_555

#END
