
#######################################################################
#
#                 Cambridge Crystallographic Data Centre
#                                CCDC 
#
#######################################################################
#
# If this CIF has been generated from an entry in the Cambridge 
# Structural Database, then it will include bibliographic, chemical, 
# crystal, experimental, refinement or atomic coordinate data resulting 
# from the CCDC's data processing and validation procedures.
#
#######################################################################

data_WOLRIZ
_chemical_formula_moiety         'C58 H36 Cl2 Cu32 N51 O14'
_symmetry_cell_setting           tetragonal
_symmetry_space_group_name_H-M   'I 4/m m m'
_symmetry_Int_Tables_number      139
_space_group_name_Hall           '-I 4 2'
loop_
_symmetry_equiv_pos_site_id
_symmetry_equiv_pos_as_xyz
1 x,y,z
2 -y,x,z
3 y,-x,z
4 y,x,-z
5 1/2+x,1/2+y,1/2+z
6 1/2-y,1/2+x,1/2+z
7 1/2+y,1/2-x,1/2+z
8 1/2+y,1/2+x,1/2-z
9 -x,-y,z
10 -x,y,-z
11 x,-y,-z
12 -y,-x,-z
13 1/2-x,1/2-y,1/2+z
14 1/2-x,1/2+y,1/2-z
15 1/2+x,1/2-y,1/2-z
16 1/2-y,1/2-x,1/2-z
17 -x,-y,-z
18 y,-x,-z
19 -y,x,-z
20 -y,-x,z
21 1/2-x,1/2-y,1/2-z
22 1/2+y,1/2-x,1/2-z
23 1/2-y,1/2+x,1/2-z
24 1/2-y,1/2-x,1/2+z
25 x,y,-z
26 x,-y,z
27 -x,y,z
28 y,x,z
29 1/2+x,1/2+y,1/2-z
30 1/2+x,1/2-y,1/2+z
31 1/2-x,1/2+y,1/2+z
32 1/2+y,1/2+x,1/2+z
_cell_length_a                   15.5006(10)
_cell_length_b                   15.5006(10)
_cell_length_c                   29.401(4)
_cell_angle_alpha                90
_cell_angle_beta                 90
_cell_angle_gamma                90
_cell_volume                     7064.14
loop_
_atom_site_label
_atom_site_type_symbol
_atom_site_fract_x
_atom_site_fract_y
_atom_site_fract_z
O6 O 0.302(3) 0.5000 0.195(2)
O9 O 0.5000 0.5000 0.0000
Cu1 Cu 0.11582(4) 0.11582(4) 0.0000
Cl1 Cl 0.0000 0.0000 0.0000
N1 N 0.17656(18) 0.04271(18) -0.04784(9)
N2 N 0.22193(19) 0.07193(19) -0.08301(9)
C1 C 0.2492 0.0000(3) -0.10392(16)
C2 C 0.3055 0.0000(3) -0.14427(15)
C3 C 0.3341(3) 0.0764(4) -0.16303(15)
H1 H 0.3143 0.1286 -0.1515
C4 C 0.3917(3) 0.0761(3) -0.19874(15)
H2 H 0.4099 0.1284 -0.2109
C5 C 0.4230 0.0000(3) -0.21686(14)
C6 C 0.5000 0.0000 -0.2500
O1 O 0.214(2) 0.214(2) 0.0000
O5 O 0.181(2) 0.181(2) -0.1549(12)
Cu2 Cu 0.2116(3) 0.2116(3) -0.09476(18)
Cu1A Cu -0.11582(4) 0.11582(4) 0.0000
Cu1B Cu 0.11582(4) -0.11582(4) 0.0000
Cu1D Cu 0.61582(4) -0.38418(4) -0.5000
Cu1P Cu -0.11582(4) -0.11582(4) 0.0000
Cu1E Cu 0.38418(4) -0.38418(4) -0.5000
Cu1A_2 Cu 0.88418(4) 0.11582(4) 0.0000
Cu1P_2 Cu 0.88418(4) -0.11582(4) 0.0000
Cu1F Cu 0.61582(4) 0.38418(4) -0.5000
Cu1T Cu 0.38418(4) 0.38418(4) -0.5000
Cu1D_2 Cu -0.38418(4) 0.61582(4) 0.5000
Cu1F_2 Cu -0.38418(4) 0.38418(4) 0.5000
Cu1B_2 Cu 0.11582(4) 0.88418(4) 0.0000
Cu1P_3 Cu -0.11582(4) 0.88418(4) 0.0000
Cu1E_2 Cu 0.38418(4) 0.61582(4) 0.5000
Cu1T_2 Cu 0.38418(4) 0.38418(4) 0.5000
Cl1D Cl 0.5000 -0.5000 -0.5000
N1Y N 0.17656(18) -0.04271(18) -0.04784(9)
N1G N 0.54271(18) -0.32344(18) -0.45216(9)
N1V N 0.45729(18) -0.32344(18) -0.45216(9)
N1Z N 0.82344(18) 0.04271(18) -0.04784(9)
N1H N 0.82344(18) -0.04271(18) -0.04784(9)
N1U N 0.54271(18) 0.32344(18) -0.45216(9)
N1O N 0.45729(18) 0.32344(18) -0.45216(9)
N1C N 0.04271(18) 0.17656(18) 0.04784(9)
N1R N -0.04271(18) 0.17656(18) 0.04784(9)
N1D N -0.32344(18) 0.54271(18) 0.45216(9)
N1CA N -0.32344(18) 0.45729(18) 0.45216(9)
N1Q N 0.04271(18) 0.82344(18) 0.04784(9)
N1K N -0.04271(18) 0.82344(18) 0.04784(9)
N1DA N 0.32344(18) 0.54271(18) 0.45216(9)
N1L N 0.32344(18) 0.45729(18) 0.45216(9)
N1AA N 0.04271(18) 0.17656(18) -0.04784(9)
N1X N 0.17656(18) 0.04271(18) 0.04784(9)
N1Z_2 N -0.17656(18) 0.04271(18) -0.04784(9)
N1A N -0.04271(18) 0.17656(18) -0.04784(9)
N1I N -0.17656(18) 0.04271(18) 0.04784(9)
N1Q_2 N 0.04271(18) -0.17656(18) 0.04784(9)
N1B N 0.04271(18) -0.17656(18) -0.04784(9)
N1J N 0.17656(18) -0.04271(18) 0.04784(9)
N1D_2 N 0.67656(18) -0.45729(18) -0.54784(9)
N1BA N 0.67656(18) -0.45729(18) -0.45216(9)
N1EA N 0.54271(18) -0.32344(18) -0.54784(9)
N2Y N 0.22193(19) -0.07193(19) -0.08301(9)
N2G N 0.57193(19) -0.27807(19) -0.41699(9)
N2V N 0.42807(19) -0.27807(19) -0.41699(9)
N2Z N 0.77807(19) 0.07193(19) -0.08301(9)
N2H N 0.77807(19) -0.07193(19) -0.08301(9)
N2U N 0.57193(19) 0.27807(19) -0.41699(9)
N2O N 0.42807(19) 0.27807(19) -0.41699(9)
N2C N 0.07193(19) 0.22193(19) 0.08301(9)
N2R N -0.07193(19) 0.22193(19) 0.08301(9)
N2D N -0.27807(19) 0.57193(19) 0.41699(9)
N2CA N -0.27807(19) 0.42807(19) 0.41699(9)
N2Q N 0.07193(19) 0.77807(19) 0.08301(9)
N2K N -0.07193(19) 0.77807(19) 0.08301(9)
N2DA N 0.27807(19) 0.57193(19) 0.41699(9)
N2L N 0.27807(19) 0.42807(19) 0.41699(9)
N2AA N 0.07193(19) 0.22193(19) -0.08301(9)
N2B N 0.07193(19) -0.22193(19) -0.08301(9)
N2BA N 0.72193(19) -0.42807(19) -0.41699(9)
N2M N 0.27807(19) -0.42807(19) -0.41699(9)
N2A N 0.92807(19) 0.22193(19) -0.08301(9)
N2S N 0.92807(19) -0.22193(19) -0.08301(9)
N2N N 0.72193(19) 0.42807(19) -0.41699(9)
N2T N 0.27807(19) 0.42807(19) -0.41699(9)
C1G C 0.5000(3) -0.2508 -0.39608(16)
C1Z C 0.7508 0.0000(3) -0.10392(16)
C1U C 0.5000(3) 0.2508 -0.39608(16)
C1C C -0.0000(3) 0.2492 0.10392(16)
C1D C -0.2508 0.5000(3) 0.39608(16)
C1Q C 0.0000(3) 0.7508 0.10392(16)
C1DA C 0.2508 0.5000(3) 0.39608(16)
C2G C 0.5000(3) -0.1945 -0.35573(15)
C2Z C 0.6945 0.0000(3) -0.14427(15)
C2U C 0.5000(3) 0.1945 -0.35573(15)
C2C C -0.0000(3) 0.3055 0.14427(15)
C2D C -0.1945 0.5000(3) 0.35573(15)
C2Q C -0.0000(3) 0.6945 0.14427(15)
C2DA C 0.1945 0.5000(3) 0.35573(15)
C3Y C 0.3341(3) -0.0764(4) -0.16303(15)
C3G C 0.5764(4) -0.1659(3) -0.33697(15)
C3V C 0.4236(4) -0.1659(3) -0.33697(15)
C3Z C 0.6659(3) 0.0764(4) -0.16303(15)
C3H C 0.6659(3) -0.0764(4) -0.16303(15)
C3U C 0.5764(4) 0.1659(3) -0.33697(15)
C3O C 0.4236(4) 0.1659(3) -0.33697(15)
C3C C 0.0764(4) 0.3341(3) 0.16303(15)
C3R C -0.0764(4) 0.3341(3) 0.16303(15)
C3D C -0.1659(3) 0.5764(4) 0.33697(15)
C3CA C -0.1659(3) 0.4236(4) 0.33697(15)
C3Q C 0.0764(4) 0.6659(3) 0.16303(15)
C3K C -0.0764(4) 0.6659(3) 0.16303(15)
C3DA C 0.1659(3) 0.5764(4) 0.33697(15)
C3L C 0.1659(3) 0.4236(4) 0.33697(15)
H1Y H 0.3143 -0.1286 -0.1515
H1V H 0.3714 -0.1857 -0.3485
H1G H 0.6286 -0.1857 -0.3485
H1H H 0.6857 -0.1286 -0.1515
H1Z H 0.6857 0.1286 -0.1515
H1O H 0.3714 0.1857 -0.3485
H1U H 0.6286 0.1857 -0.3485
H1C H 0.1286 0.3143 0.1515
H1R H -0.1286 0.3143 0.1515
H1CA H -0.1857 0.3714 0.3485
H1D H -0.1857 0.6286 0.3485
H1K H -0.1286 0.6857 0.1515
H1Q H 0.1286 0.6857 0.1515
H1L H 0.1857 0.3714 0.3485
H1DA H 0.1857 0.6286 0.3485
C4Y C 0.3917(3) -0.0761(3) -0.19874(15)
C4G C 0.5761(3) -0.1083(3) -0.30126(15)
C4V C 0.4239(3) -0.1083(3) -0.30126(15)
C4Z C 0.6083(3) 0.0761(3) -0.19874(15)
C4H C 0.6083(3) -0.0761(3) -0.19874(15)
C4U C 0.5761(3) 0.1083(3) -0.30126(15)
C4O C 0.4239(3) 0.1083(3) -0.30126(15)
C4C C 0.0761(3) 0.3917(3) 0.19874(15)
C4R C -0.0761(3) 0.3917(3) 0.19874(15)
C4D C -0.1083(3) 0.5761(3) 0.30126(15)
C4CA C -0.1083(3) 0.4239(3) 0.30126(15)
C4Q C 0.0761(3) 0.6083(3) 0.19874(15)
C4K C -0.0761(3) 0.6083(3) 0.19874(15)
C4DA C 0.1083(3) 0.5761(3) 0.30126(15)
C4L C 0.1083(3) 0.4239(3) 0.30126(15)
H2Y H 0.4099 -0.1284 -0.2109
H2V H 0.3716 -0.0901 -0.2891
H2G H 0.6284 -0.0901 -0.2891
H2H H 0.5901 -0.1284 -0.2109
H2Z H 0.5901 0.1284 -0.2109
H2O H 0.3716 0.0901 -0.2891
H2U H 0.6284 0.0901 -0.2891
H2C H 0.1284 0.4099 0.2109
H2R H -0.1284 0.4099 0.2109
H2CA H -0.0901 0.3716 0.2891
H2D H -0.0901 0.6284 0.2891
H2K H -0.1284 0.5901 0.2109
H2Q H 0.1284 0.5901 0.2109
H2L H 0.0901 0.3716 0.2891
H2DA H 0.0901 0.6284 0.2891
C5G C 0.5000(3) -0.0770 -0.28314(14)
C5Z C 0.5770 0.0000(3) -0.21686(14)
C5U C 0.5000(3) 0.0770 -0.28314(14)
C5C C 0.0000(3) 0.4230 0.21686(14)
C5D C -0.0770 0.5000(3) 0.28314(14)
C5Q C 0.0000(3) 0.5770 0.21686(14)
C5DA C 0.0770 0.5000(3) 0.28314(14)
C6C C 0.0000 0.5000 0.2500
O1A O -0.214(2) 0.214(2) 0.0000
O1B O 0.214(2) -0.214(2) 0.0000
O1D O 0.714(2) -0.286(2) -0.5000
O5B O 0.181(2) -0.181(2) -0.1549(12)
O5G O 0.681(2) -0.319(2) -0.3451(12)
O5V O 0.319(2) -0.319(2) -0.3451(12)
O5A O 0.819(2) 0.181(2) -0.1549(12)
O5S O 0.819(2) -0.181(2) -0.1549(12)
O5U O 0.681(2) 0.319(2) -0.3451(12)
O5T O 0.319(2) 0.319(2) -0.3451(12)
Cu2B Cu 0.2116(3) -0.2116(3) -0.09476(18)
Cu2G Cu 0.7116(3) -0.2884(3) -0.40524(18)
Cu2V Cu 0.2884(3) -0.2884(3) -0.40524(18)
Cu2A Cu 0.7884(3) 0.2116(3) -0.09476(18)
Cu2S Cu 0.7884(3) -0.2116(3) -0.09476(18)
Cu2U Cu 0.7116(3) 0.2884(3) -0.40524(18)
Cu2T Cu 0.2884(3) 0.2884(3) -0.40524(18)
Cu2C Cu 0.2116(3) 0.2116(3) 0.09476(18)
Cu2R Cu -0.2116(3) 0.2116(3) 0.09476(18)
Cu2D Cu -0.2884(3) 0.7116(3) 0.40524(18)
Cu2F Cu -0.2884(3) 0.2884(3) 0.40524(18)
Cu2Q Cu 0.2116(3) 0.7884(3) 0.09476(18)
Cu2P Cu -0.2116(3) 0.7884(3) 0.09476(18)
Cu2E Cu 0.2884(3) 0.7116(3) 0.40524(18)
Cu2W Cu 0.2884(3) 0.2884(3) 0.40524(18)
loop_
_geom_bond_atom_site_label_1
_geom_bond_atom_site_label_2
_geom_bond_site_symmetry_1
_geom_bond_site_symmetry_2
Cu1 Cl1 1_555 1_555
Cl1 Cu1A 1_555 1_555
N1 Cu1 1_555 1_555
N2 N1 1_555 1_555
C1 N2 1_555 1_555
C2 C1 1_555 1_555
C3 C2 1_555 1_555
H1 C3 1_555 1_555
C4 C3 1_555 1_555
H2 C4 1_555 1_555
C5 C4 1_555 1_555
C6 C5 1_555 1_555
O1 Cu1 1_555 1_555
O5 Cu2 1_555 1_555
Cu2 N2 1_555 1_555
Cu1A N1R 1_555 1_555
Cu1B Cl1 1_555 1_555
Cu1D Cl1D 1_555 1_555
Cu1P Cl1 1_555 1_555
Cu1E Cl1D 1_555 1_555
Cu1A_2 N1Z 1_555 1_555
Cu1P_2 N1H 1_555 1_555
Cu1F N1U 1_555 1_555
Cu1T N1O 1_555 1_555
Cu1D_2 N1D 1_555 1_555
Cu1F_2 N1CA 1_555 1_555
Cu1B_2 N1Q 1_555 1_555
Cu1P_3 N1K 1_555 1_555
Cu1E_2 N1DA 1_555 1_555
Cu1T_2 N1L 1_555 1_555
N1Y N1 1_555 1_555
N1G Cu1D 1_555 1_555
N1V Cu1E 1_555 1_555
N1Z N1H 1_555 1_555
N1H N2H 1_555 1_555
N1U N1O 1_555 1_555
N1O N2O 1_555 1_555
N1C Cu1 1_555 1_555
N1R N1C 1_555 1_555
N1D N1CA 1_555 1_555
N1CA N2CA 1_555 1_555
N1Q N1K 1_555 1_555
N1K N2K 1_555 1_555
N1DA N1L 1_555 1_555
N1L N2L 1_555 1_555
N1AA Cu1 1_555 1_555
N1X Cu1 1_555 1_555
N1Z_2 Cu1A 1_555 1_555
N1A Cu1A 1_555 1_555
N1I Cu1A 1_555 1_555
N1Q_2 Cu1B 1_555 1_555
N1B Cu1B 1_555 1_555
N1J Cu1B 1_555 1_555
N1D_2 Cu1D 1_555 1_555
N1BA Cu1D 1_555 1_555
N1EA Cu1D 1_555 1_555
N2Y C1 1_555 1_555
N2G N1G 1_555 1_555
N2V N1V 1_555 1_555
N2Z N1Z 1_555 1_555
N2H C1Z 1_555 1_555
N2U N1U 1_555 1_555
N2O C1U 1_555 1_555
N2C N1C 1_555 1_555
N2R N1R 1_555 1_555
N2D N1D 1_555 1_555
N2CA C1D 1_555 1_555
N2Q N1Q 1_555 1_555
N2K C1Q 1_555 1_555
N2DA N1DA 1_555 1_555
N2L C1DA 1_555 1_555
N2AA Cu2 1_555 1_555
N2B N1B 1_555 1_555
N2BA N1BA 1_555 1_555
N2M Cu2V 1_555 1_555
N2A Cu2A 1_555 1_555
N2S Cu2S 1_555 1_555
N2N Cu2U 1_555 1_555
N2T Cu2T 1_555 1_555
C1G N2G 1_555 1_555
C1Z N2Z 1_555 1_555
C1U N2U 1_555 1_555
C1C N2C 1_555 1_555
C1D N2D 1_555 1_555
C1Q N2Q 1_555 1_555
C1DA N2DA 1_555 1_555
C2G C1G 1_555 1_555
C2Z C1Z 1_555 1_555
C2U C1U 1_555 1_555
C2C C1C 1_555 1_555
C2D C1D 1_555 1_555
C2Q C1Q 1_555 1_555
C2DA C1DA 1_555 1_555
C3Y C2 1_555 1_555
C3G C2G 1_555 1_555
C3V C2G 1_555 1_555
C3Z C2Z 1_555 1_555
C3H C2Z 1_555 1_555
C3U C2U 1_555 1_555
C3O C2U 1_555 1_555
C3C C2C 1_555 1_555
C3R C2C 1_555 1_555
C3D C2D 1_555 1_555
C3CA C2D 1_555 1_555
C3Q C2Q 1_555 1_555
C3K C2Q 1_555 1_555
C3DA C2DA 1_555 1_555
C3L C2DA 1_555 1_555
H1Y C3Y 1_555 1_555
H1V C3V 1_555 1_555
H1G C3G 1_555 1_555
H1H C3H 1_555 1_555
H1Z C3Z 1_555 1_555
H1O C3O 1_555 1_555
H1U C3U 1_555 1_555
H1C C3C 1_555 1_555
H1R C3R 1_555 1_555
H1CA C3CA 1_555 1_555
H1D C3D 1_555 1_555
H1K C3K 1_555 1_555
H1Q C3Q 1_555 1_555
H1L C3L 1_555 1_555
H1DA C3DA 1_555 1_555
C4Y C5 1_555 1_555
C4G C3G 1_555 1_555
C4V C3V 1_555 1_555
C4Z C3Z 1_555 1_555
C4H C3H 1_555 1_555
C4U C3U 1_555 1_555
C4O C3O 1_555 1_555
C4C C3C 1_555 1_555
C4R C3R 1_555 1_555
C4D C3D 1_555 1_555
C4CA C3CA 1_555 1_555
C4Q C3Q 1_555 1_555
C4K C3K 1_555 1_555
C4DA C3DA 1_555 1_555
C4L C3L 1_555 1_555
H2Y C4Y 1_555 1_555
H2V C4V 1_555 1_555
H2G C4G 1_555 1_555
H2H C4H 1_555 1_555
H2Z C4Z 1_555 1_555
H2O C4O 1_555 1_555
H2U C4U 1_555 1_555
H2C C4C 1_555 1_555
H2R C4R 1_555 1_555
H2CA C4CA 1_555 1_555
H2D C4D 1_555 1_555
H2K C4K 1_555 1_555
H2Q C4Q 1_555 1_555
H2L C4L 1_555 1_555
H2DA C4DA 1_555 1_555
C5G C6 1_555 1_555
C5Z C6 1_555 1_555
C5U C6 1_555 1_555
C5C C4C 1_555 1_555
C5D C4D 1_555 1_555
C5Q C4Q 1_555 1_555
C5DA C4DA 1_555 1_555
C6C C5C 1_555 1_555
O1A Cu1A 1_555 1_555
O1B Cu1B 1_555 1_555
O1D Cu1D 1_555 1_555
O5B Cu2B 1_555 1_555
O5G Cu2G 1_555 1_555
O5V Cu2V 1_555 1_555
O5A Cu2A 1_555 1_555
O5S Cu2S 1_555 1_555
O5U Cu2U 1_555 1_555
O5T Cu2T 1_555 1_555
Cu2B N2Y 1_555 1_555
Cu2G N2G 1_555 1_555
Cu2V N2V 1_555 1_555
Cu2A N2Z 1_555 1_555
Cu2S N2H 1_555 1_555
Cu2U N2U 1_555 1_555
Cu2T N2O 1_555 1_555
Cu2C N2C 1_555 1_555
Cu2R N2R 1_555 1_555
Cu2D N2D 1_555 1_555
Cu2F N2CA 1_555 1_555
Cu2Q N2Q 1_555 1_555
Cu2P N2K 1_555 1_555
Cu2E N2DA 1_555 1_555
Cu2W N2L 1_555 1_555
Cu1B N1Y 1_555 1_555
N1Y N2Y 1_555 1_555
N1G N1V 1_555 1_555
N1AA N1A 1_555 1_555
N1AA N2AA 1_555 1_555
N1X N1J 1_555 1_555
N2V C1G 1_555 1_555
N2R C1C 1_555 1_555
N2B Cu2B 1_555 1_555
N2BA Cu2G 1_555 1_555
C3Y C4Y 1_555 1_555
C4G C5G 1_555 1_555
C4V C5G 1_555 1_555
C4Z C5Z 1_555 1_555
C4H C5Z 1_555 1_555
C4U C5U 1_555 1_555
C4O C5U 1_555 1_555
C4R C5C 1_555 1_555
C4CA C5D 1_555 1_555
C4K C5Q 1_555 1_555
C4L C5DA 1_555 1_555
C5D C6C 1_555 1_555
C5Q C6C 1_555 1_555
C5DA C6C 1_555 1_555

#END
