
#######################################################################
#
#                 Cambridge Crystallographic Data Centre
#                                CCDC 
#
#######################################################################
#
# If this CIF has been generated from an entry in the Cambridge 
# Structural Database, then it will include bibliographic, chemical, 
# crystal, experimental, refinement or atomic coordinate data resulting 
# from the CCDC's data processing and validation procedures.
#
#######################################################################

data_TIKXER
_chemical_formula_moiety         '(C28 H18 Cu2 Eu2 N4 O17)n'
_symmetry_cell_setting           monoclinic
_symmetry_space_group_name_H-M   'C 2/c'
_symmetry_Int_Tables_number      15
_space_group_name_Hall           '-C 2yc'
loop_
_symmetry_equiv_pos_site_id
_symmetry_equiv_pos_as_xyz
1 x,y,z
2 1/2+x,1/2+y,z
3 -x,y,1/2-z
4 1/2-x,1/2+y,1/2-z
5 -x,-y,-z
6 1/2-x,1/2-y,-z
7 x,-y,1/2+z
8 1/2+x,1/2-y,1/2+z
_cell_length_a                   21.296(5)
_cell_length_b                   9.203(2)
_cell_length_c                   17.063(4)
_cell_angle_alpha                90
_cell_angle_beta                 105.939(3)
_cell_angle_gamma                90
_cell_volume                     3215.56
loop_
_atom_site_label
_atom_site_type_symbol
_atom_site_fract_x
_atom_site_fract_y
_atom_site_fract_z
Eu1 Eu -0.013074(7) 0.814833(15) -0.573166(8)
O1 O -0.06353(11) 0.5738(2) -0.57714(13)
O2 O 0.05781(11) 0.7355(3) -0.65675(13)
O3 O -0.03668(12) 0.7780(3) -0.44378(14)
O4 O -0.07323(11) 1.0527(3) -0.52466(14)
O5 O -0.06097(11) 0.3719(3) -0.50409(14)
O6 O -0.01531(12) 0.9747(2) -0.36318(14)
O7 O 0.07064(11) 0.7730(3) -0.78148(13)
C1 C -0.07379(16) 0.7814(3) -0.32614(19)
C2 C 0.03717(15) 0.7561(3) -0.73196(18)
O8 O -0.13033(11) 0.8764(3) -0.59778(14)
C3 C -0.12502(15) 0.9801(4) -0.54920(18)
C4 C -0.1310(2) 0.7987(5) -0.2249(2)
H1 H -0.1502 0.8568 -0.1932
N1 N -0.13386(16) 0.6558(4) -0.2176(2)
C5 C -0.1093(2) 0.5747(5) -0.2671(3)
H2 H -0.1123 0.4742 -0.2640
C6 C -0.18203(15) 1.0113(4) -0.5145(2)
C7 C -0.0798(2) 0.6328(4) -0.3224(3)
H3 H -0.0643 0.5727 -0.3567
Cu1 Cu -0.16252(3) 0.42805(9) -0.63067(4)
C8 C -0.03585(15) 0.4838(3) -0.52318(18)
C9 C -0.03854(15) 0.8499(3) -0.38226(18)
C10 C -0.10078(19) 0.8658(4) -0.2775(2)
H4 H -0.0988 0.9666 -0.2799
C11 C -0.2246(2) 1.1277(6) -0.4164(3)
H5 H -0.2197 1.1979 -0.3760
C12 C -0.2851(2) 0.9520(6) -0.4943(3)
H6 H -0.3233 0.8973 -0.5095
C13 C -0.17612(19) 1.1138(5) -0.4550(3)
H7 H -0.1396 1.1738 -0.4408
C14 C -0.2384(2) 0.9314(6) -0.5359(3)
H8 H -0.2452 0.8639 -0.5779
N2 N -0.27780(15) 1.0462(4) -0.4338(2)
Eu1D Eu 0.013074(7) 0.185167(15) -0.426834(8)
Eu1D_2 Eu 0.013074(7) 1.185167(15) -0.426834(8)
Eu1B Eu 0.013074(7) 0.814833(15) -0.926834(8)
O1D O 0.06353(11) 0.4262(2) -0.42286(13)
O2B O -0.05781(11) 0.7355(3) -0.84325(13)
O2D O -0.05781(11) 0.2645(3) -0.34325(13)
O3D O 0.03668(12) 1.2220(3) -0.55622(14)
O3D_2 O 0.03668(12) 0.2220(3) -0.55622(14)
O4D O 0.07323(11) 0.9473(3) -0.47534(14)
O4_2 O -0.07323(11) 0.0527(3) -0.52466(14)
O4D_2 O 0.07323(11) -0.0527(3) -0.47534(14)
O5D O 0.06097(11) 0.6281(3) -0.49591(14)
O6D O 0.01531(12) 1.0253(2) -0.63682(14)
O6_2 O -0.01531(12) -0.0253(2) -0.36318(14)
O7B O -0.07064(11) 0.7730(3) -0.71852(13)
O7F O 0.07064(11) 0.2270(3) -0.28148(13)
C1D C 0.07379(16) 1.2186(3) -0.67386(19)
C2B C -0.03717(15) 0.7561(3) -0.76804(18)
O8D O 0.13033(11) 1.1236(3) -0.40222(14)
O8D_2 O 0.13033(11) 0.1236(3) -0.40222(14)
C3D C 0.12502(15) 1.0199(4) -0.45080(18)
C4D C 0.1310(2) 1.2013(5) -0.7751(2)
H1D H 0.1502 1.1432 -0.8068
N1D N 0.13386(16) 1.3442(4) -0.7824(2)
N1F N -0.13386(16) 0.3442(4) -0.7176(2)
N1B N 0.13386(16) 0.6558(4) -0.2824(2)
C5D C 0.1093(2) 1.4253(5) -0.7329(3)
H2D H 0.1123 1.5258 -0.7360
C6D C 0.18203(15) 0.9887(4) -0.4855(2)
C7D C 0.0798(2) 1.3672(4) -0.6776(3)
H3D H 0.0643 1.4273 -0.6433
Cu1D Cu 0.16252(3) 0.57195(9) -0.36933(4)
Cu1F Cu -0.16252(3) 0.57195(9) -0.13067(4)
Cu1E Cu -0.33748(3) 1.07195(9) -0.36933(4)
Cu1A Cu 0.33748(3) 0.92805(9) -0.63067(4)
Cu1B Cu 0.16252(3) 1.42805(9) -0.86933(4)
C8D C 0.03585(15) 0.5162(3) -0.47682(18)
C9D C 0.03854(15) 1.1501(3) -0.61774(18)
C10D C 0.10078(19) 1.1342(4) -0.7225(2)
H4D H 0.0988 1.0334 -0.7201
C11D C 0.2246(2) 0.8723(6) -0.5836(3)
H5D H 0.2197 0.8021 -0.6240
C12D C 0.2851(2) 1.0480(6) -0.5057(3)
H6D H 0.3233 1.1027 -0.4905
C13D C 0.17612(19) 0.8862(5) -0.5450(3)
H7D H 0.1396 0.8262 -0.5592
C14D C 0.2384(2) 1.0686(6) -0.4641(3)
H8D H 0.2452 1.1361 -0.4221
N2D N 0.27780(15) 0.9538(4) -0.5662(2)
N2E N -0.22220(15) 0.4538(4) -0.5662(2)
N2A N 0.22220(15) 0.5462(4) -0.4338(2)
O9 O -0.2043(3) 0.3071(6) -0.2310(4)
loop_
_geom_bond_atom_site_label_1
_geom_bond_atom_site_label_2
_geom_bond_site_symmetry_1
_geom_bond_site_symmetry_2
Eu1 O1 1_555 1_555
O1 Cu1 1_555 1_555
O2 Eu1 1_555 1_555
O3 Eu1 1_555 1_555
O4 Eu1 1_555 1_555
O5 Cu1 1_555 1_555
O6 C9 1_555 1_555
O7 C2 1_555 1_555
C1 C7 1_555 1_555
C2 O2 1_555 1_555
O8 Eu1 1_555 1_555
C3 O4 1_555 1_555
C4 H1 1_555 1_555
N1 C4 1_555 1_555
C5 N1 1_555 1_555
H2 C5 1_555 1_555
C6 C3 1_555 1_555
C7 C5 1_555 1_555
H3 C7 1_555 1_555
Cu1 N1F 1_555 1_555
C8 O1 1_555 1_555
C9 O3 1_555 1_555
C10 C1 1_555 1_555
H4 C10 1_555 1_555
C11 H5 1_555 1_555
C12 H6 1_555 1_555
C13 C6 1_555 1_555
H7 C13 1_555 1_555
C14 C6 1_555 1_555
H8 C14 1_555 1_555
N2 C11 1_555 1_555
Eu1D O5 1_555 1_555
Eu1D_2 O4 1_555 1_555
Eu1B O7 1_555 1_555
O1D Eu1D 1_555 1_555
O2B Eu1B 1_555 1_555
O2D Eu1D 1_555 1_555
O3D Eu1D_2 1_555 1_555
O3D_2 Eu1D 1_555 1_555
O4D Eu1 1_555 1_555
O4_2 Eu1D 1_555 1_555
O4D_2 Eu1D 1_555 1_555
O5D Eu1 1_555 1_555
O6D Eu1 1_555 1_555
O6_2 Eu1D 1_555 1_555
O7B Eu1 1_555 1_555
O7F Eu1D 1_555 1_555
C1D C7D 1_555 1_555
C2B C2 1_555 1_555
O8D Eu1D_2 1_555 1_555
O8D_2 Eu1D 1_555 1_555
C3D O4D 1_555 1_555
C4D H1D 1_555 1_555
N1D C4D 1_555 1_555
N1B Cu1D 1_555 1_555
C5D N1D 1_555 1_555
H2D C5D 1_555 1_555
C6D C3D 1_555 1_555
C7D C5D 1_555 1_555
H3D C7D 1_555 1_555
Cu1D O1D 1_555 1_555
Cu1F N1 1_555 1_555
Cu1E N2 1_555 1_555
Cu1A N2D 1_555 1_555
Cu1B N1D 1_555 1_555
C8D C8 1_555 1_555
C9D O3D 1_555 1_555
C10D C1D 1_555 1_555
H4D C10D 1_555 1_555
C11D H5D 1_555 1_555
C12D H6D 1_555 1_555
C13D C6D 1_555 1_555
H7D C13D 1_555 1_555
C14D C6D 1_555 1_555
H8D C14D 1_555 1_555
N2D C11D 1_555 1_555
N2E Cu1 1_555 1_555
N2A Cu1D 1_555 1_555
O5 C8 1_555 1_555
O6 Eu1D_2 1_555 1_555
C1 C9 1_555 1_555
O8 C3 1_555 1_555
C4 C10 1_555 1_555
C11 C13 1_555 1_555
C12 C14 1_555 1_555
C12 N2 1_555 1_555
Eu1D_2 O4D 1_555 1_555
O1D C8D 1_555 1_555
O2B C2B 1_555 1_555
O5D Cu1D 1_555 1_555
O5D C8D 1_555 1_555
O6D C9D 1_555 1_555
O7B C2B 1_555 1_555
C1D C9D 1_555 1_555
O8D C3D 1_555 1_555
C4D C10D 1_555 1_555
C11D C13D 1_555 1_555
C12D C14D 1_555 1_555
C12D N2D 1_555 1_555

#END
