
#######################################################################
#
#                 Cambridge Crystallographic Data Centre
#                                CCDC 
#
#######################################################################
#
# If this CIF has been generated from an entry in the Cambridge 
# Structural Database, then it will include bibliographic, chemical, 
# crystal, experimental, refinement or atomic coordinate data resulting 
# from the CCDC's data processing and validation procedures.
#
#######################################################################

data_EDAGAT
_chemical_formula_moiety         '(C14 H15 Co6 N1 O24)n'
_symmetry_cell_setting           monoclinic
_symmetry_space_group_name_H-M   'P 21/n'
_symmetry_Int_Tables_number      14
_space_group_name_Hall           '-P 2yn'
loop_
_symmetry_equiv_pos_site_id
_symmetry_equiv_pos_as_xyz
1 x,y,z
2 1/2-x,1/2+y,1/2-z
3 -x,-y,-z
4 1/2+x,1/2-y,1/2+z
_cell_length_a                   11.255(2)
_cell_length_b                   9.826(2)
_cell_length_c                   14.547(2)
_cell_angle_alpha                90
_cell_angle_beta                 91.346(14)
_cell_angle_gamma                90
_cell_volume                     1608.33
loop_
_atom_site_label
_atom_site_type_symbol
_atom_site_fract_x
_atom_site_fract_y
_atom_site_fract_z
Co1 Co 0.24401(5) 0.08038(6) 0.86731(4)
Co2 Co 0.25977(5) -0.10881(6) 0.68937(4)
Co3 Co 0.5000 -0.0000 1.0000
Co4 Co 0.0000 -0.0000 1.0000
O1 O 0.1891(3) 0.2009(3) 0.75490(19)
O2 O 0.1837(3) 0.0615(3) 0.6330(2)
O3 O 0.1497(2) -0.0827(3) 0.80502(19)
O4 O -0.0219(3) -0.1076(4) 0.8772(2)
O5 O 0.3884(3) -0.1204(3) 0.5925(2)
O6 O 0.3977(3) -0.3442(3) 0.56035(19)
O7 O 0.3469(3) 0.2583(3) 0.89138(19)
O8 O 0.4781(3) 0.2084(3) 1.0043(2)
O9 O 0.3152(3) -0.0298(3) 0.97585(19)
O10 O 0.1493(3) -0.1146(3) 1.0345(2)
O11 O 0.6285(2) 0.0026(3) 1.21896(19)
O12 O 0.4564(3) -0.0081(4) 1.1400(2)
C1 C 0.1690(4) 0.1729(5) 0.6711(3)
H1 H 0.1401 0.2433 0.6342
C2 C 0.0460(4) -0.1299(5) 0.8147(3)
H2 H 0.0183 -0.1884 0.7687
C3 C 0.4299(4) -0.2197(5) 0.5522(3)
H3 H 0.4908 -0.2023 0.5117
C4 C 0.4228(4) 0.2895(5) 0.9538(3)
H4 H 0.4384 0.3816 0.9625
C5 C 0.2582(4) -0.1107(5) 1.0270(3)
H5 H 0.3027 -0.1725 1.0618
C6 C 0.5158(4) 0.0085(5) 1.2118(3)
H6 H 0.4745 0.0269 1.2650
Co1B Co -0.24401(5) -0.08038(6) 1.13269(4)
Co1A Co 0.25599(5) -0.41962(6) 0.63269(4)
Co1B_2 Co 0.75599(5) -0.08038(6) 1.13269(4)
Co1C Co -0.25599(5) 0.41962(6) 1.36731(4)
Co2B Co -0.25977(5) 0.10881(6) 1.31063(4)
Co2A Co 0.24023(5) 0.39119(6) 0.81063(4)
Co2B_2 Co 0.74023(5) 0.10881(6) 1.31063(4)
Co2C Co -0.24023(5) -0.39119(6) 1.18937(4)
Co3_2 Co -0.5000 -0.0000 1.0000
Co4A Co -0.5000 0.5000 1.5000
Co4A_2 Co 0.5000 -0.5000 0.5000
O1B O -0.1891(3) -0.2009(3) 1.24510(19)
O1A O 0.3109(3) -0.2991(3) 0.74510(19)
O1C O -0.3109(3) 0.2991(3) 1.25490(19)
O2B O -0.1837(3) -0.0615(3) 1.3670(2)
O3B O -0.1497(2) 0.0827(3) 1.19498(19)
O4B O 0.0219(3) 0.1076(4) 1.1228(2)
O5B O -0.3884(3) 0.1204(3) 1.4075(2)
O6B O -0.3977(3) 0.3442(3) 1.43965(19)
O6A O 0.1023(3) 0.1558(3) 0.93965(19)
O6C O -0.1023(3) -0.1558(3) 1.06035(19)
O7B O -0.3469(3) -0.2583(3) 1.10862(19)
O7A O 0.1531(3) -0.2417(3) 0.60862(19)
O7C O -0.1531(3) 0.2417(3) 1.39138(19)
O8B O -0.4781(3) -0.2084(3) 0.9957(2)
O8B_2 O 0.5219(3) -0.2084(3) 0.9957(2)
O9B O -0.3152(3) 0.0298(3) 1.02415(19)
O9B_2 O 0.6848(3) 0.0298(3) 1.02415(19)
O10B O -0.1493(3) 0.1146(3) 0.9655(2)
O11B O 0.3715(2) -0.0026(3) 0.78104(19)
O11_2 O -0.3715(2) 0.0026(3) 1.21896(19)
O12B O 0.5436(3) 0.0081(4) 0.8600(2)
C1B C -0.1690(4) -0.1729(5) 1.3289(3)
H1B H -0.1401 -0.2433 1.3658
C2B C -0.0460(4) 0.1299(5) 1.1853(3)
H2B H -0.0183 0.1884 1.2313
C3B C -0.4299(4) 0.2197(5) 1.4478(3)
H3B H -0.4908 0.2023 1.4883
C4B C -0.4228(4) -0.2895(5) 1.0462(3)
H4B H -0.4384 -0.3816 1.0375
C5B C -0.2582(4) 0.1107(5) 0.9730(3)
H5B H -0.3027 0.1725 0.9382
C6B C 0.4842(4) -0.0085(5) 0.7882(3)
H6B H 0.5255 -0.0269 0.7350
N1 N 0.1773(12) 0.0619(15) 1.3534(8)
C7 C 0.1903(12) -0.0476(15) 1.3297(9)
C8 C 0.2052(13) -0.1858(14) 1.2992(9)
H7 H 0.1497 -0.2046 1.2498
H8 H 0.1913 -0.2469 1.3493
H9 H 0.2848 -0.1981 1.2782
loop_
_geom_bond_atom_site_label_1
_geom_bond_atom_site_label_2
_geom_bond_site_symmetry_1
_geom_bond_site_symmetry_2
Co1 O1 1_555 1_555
Co2 O2 1_555 1_555
Co3 O8 1_555 1_555
Co4 O4 1_555 1_555
O1 C1 1_555 1_555
O2 C1 1_555 1_555
O3 Co1 1_555 1_555
O4 C2 1_555 1_555
O5 Co2 1_555 1_555
O6 C3 1_555 1_555
O7 Co1 1_555 1_555
O8 C4 1_555 1_555
O9 Co1 1_555 1_555
O10 Co4 1_555 1_555
O11 C6 1_555 1_555
O12 Co3 1_555 1_555
C1 H1 1_555 1_555
C2 O3 1_555 1_555
H2 C2 1_555 1_555
C3 O5 1_555 1_555
H3 C3 1_555 1_555
C4 O7 1_555 1_555
H4 C4 1_555 1_555
C5 O9 1_555 1_555
H5 C5 1_555 1_555
C6 O12 1_555 1_555
H6 C6 1_555 1_555
N1 C7 1_555 1_555
C7 C8 1_555 1_555
C8 H7 1_555 1_555
H8 C8 1_555 1_555
H9 C8 1_555 1_555
Co1B O1B 1_555 1_555
Co1A O6 1_555 1_555
Co1B_2 O11 1_555 1_555
Co1C O1C 1_555 1_555
Co2B O1C 1_555 1_555
Co2A O1 1_555 1_555
Co2B_2 O11 1_555 1_555
Co2C O1B 1_555 1_555
Co3_2 O8B 1_555 1_555
Co4A O6B 1_555 1_555
Co4A_2 O6 1_555 1_555
O1B C1B 1_555 1_555
O1A Co2 1_555 1_555
O2B Co2B 1_555 1_555
O3B Co1B 1_555 1_555
O4B Co4 1_555 1_555
O5B Co2B 1_555 1_555
O6B Co1C 1_555 1_555
O6A Co1 1_555 1_555
O6C Co4 1_555 1_555
O7B Co1B 1_555 1_555
O7A Co2 1_555 1_555
O7C Co1C 1_555 1_555
O8B C4B 1_555 1_555
O8B_2 Co3 1_555 1_555
O9B Co1B 1_555 1_555
O9B_2 Co3 1_555 1_555
O10B Co4 1_555 1_555
O11B Co1 1_555 1_555
O11_2 Co1B 1_555 1_555
O12B Co3 1_555 1_555
C1B O2B 1_555 1_555
H1B C1B 1_555 1_555
C2B O3B 1_555 1_555
H2B C2B 1_555 1_555
C3B O5B 1_555 1_555
H3B C3B 1_555 1_555
C4B O7B 1_555 1_555
H4B C4B 1_555 1_555
C5B O9B 1_555 1_555
H5B C5B 1_555 1_555
C6B O11B 1_555 1_555
H6B C6B 1_555 1_555
Co2 O3 1_555 1_555
Co2 O11B 1_555 1_555
Co3 O9 1_555 1_555
Co4 O6A 1_555 1_555
O7 Co2A 1_555 1_555
O10 C5 1_555 1_555
Co1B O6C 1_555 1_555
Co1A O1A 1_555 1_555
Co1A O7A 1_555 1_555
Co1B_2 O9B_2 1_555 1_555
Co2B O3B 1_555 1_555
Co2B O7C 1_555 1_555
Co2B O11_2 1_555 1_555
Co2C O7B 1_555 1_555
Co3_2 O9B 1_555 1_555
O4B C2B 1_555 1_555
O6B C3B 1_555 1_555
O10B C5B 1_555 1_555
O12B C6B 1_555 1_555

#END
