
#######################################################################
#
#                 Cambridge Crystallographic Data Centre
#                                CCDC 
#
#######################################################################
#
# If this CIF has been generated from an entry in the Cambridge 
# Structural Database, then it will include bibliographic, chemical, 
# crystal, experimental, refinement or atomic coordinate data resulting 
# from the CCDC's data processing and validation procedures.
#
#######################################################################

data_RAVVOA02
_chemical_formula_moiety         '(C12 H12 Co6 O24)n'
_symmetry_cell_setting           monoclinic
_symmetry_space_group_name_H-M   'P 21/n'
_symmetry_Int_Tables_number      14
_space_group_name_Hall           '-P 2yn'
loop_
_symmetry_equiv_pos_site_id
_symmetry_equiv_pos_as_xyz
1 x,y,z
2 1/2-x,1/2+y,1/2-z
3 -x,-y,-z
4 1/2+x,1/2-y,1/2+z
_cell_length_a                   11.33230(10)
_cell_length_b                   9.9051(3)
_cell_length_c                   14.5033(4)
_cell_angle_alpha                90
_cell_angle_beta                 91.3170(10)
_cell_angle_gamma                90
_cell_volume                     1627.53
loop_
_atom_site_label
_atom_site_type_symbol
_atom_site_fract_x
_atom_site_fract_y
_atom_site_fract_z
Co1 Co 0.24450(3) 0.07871(4) 0.36694(3)
O1 O 0.31483(18) -0.0265(2) 0.47730(14)
O2 O 0.34679(18) 0.2559(2) 0.39034(14)
O3 O 0.14986(18) -0.0841(2) 0.30527(14)
O4 O 0.10298(18) 0.1544(2) 0.43962(14)
O5 O 0.19156(19) 0.1982(2) 0.25399(14)
O6 O 0.37051(18) -0.0066(2) 0.28134(14)
Co2 Co 0.5000 0.0000 0.5000
C1 C 0.2570(3) -0.1036(3) 0.5306(2)
Co3 Co 0.24033(3) 0.38802(4) 0.31007(3)
C2 C 0.4257(3) 0.2871(3) 0.4501(2)
C3 C 0.0463(3) -0.1300(4) 0.3140(2)
Co4 Co 0.0000 0.0000 0.5000
C4 C 0.0722(3) 0.2773(3) 0.4481(2)
C5 C 0.1699(3) 0.1691(3) 0.1696(2)
C6 C 0.4813(3) -0.0162(3) 0.2894(2)
O7 O 0.4829(2) 0.2080(2) 0.49916(16)
O8 O 0.5411(2) -0.0000(3) 0.36005(16)
O9 O 0.1495(2) -0.1122(2) 0.53455(17)
O10 O 0.1136(2) 0.3754(2) 0.40760(16)
O11 O -0.0217(2) -0.1055(3) 0.37679(17)
O12 O 0.1846(2) 0.0589(2) 0.13290(15)
Co3A Co 0.25967(3) -0.11198(4) 0.18993(3)
O1B O 0.68517(18) 0.0265(2) 0.52270(14)
O7B O 0.5171(2) -0.2080(2) 0.50084(16)
O8B O 0.4589(2) 0.0000(3) 0.63995(16)
O2A O 0.15321(18) -0.2441(2) 0.10966(14)
O10A O 0.3864(2) -0.1246(2) 0.09240(16)
O5A O 0.30844(19) -0.3018(2) 0.24601(14)
O4B O -0.10298(18) -0.1544(2) 0.56038(14)
O9B O -0.1495(2) 0.1122(2) 0.46545(17)
O11B O 0.0217(2) 0.1055(3) 0.62321(17)
Co1B Co -0.24450(3) -0.07871(4) 0.63306(3)
C4B C -0.0722(3) -0.2773(3) 0.5519(2)
C1B C -0.2570(3) 0.1036(3) 0.4694(2)
C3B C -0.0463(3) 0.1300(4) 0.6860(2)
O1B_2 O -0.31483(18) 0.0265(2) 0.52270(14)
O2B O -0.34679(18) -0.2559(2) 0.60966(14)
O3B O -0.14986(18) 0.0841(2) 0.69473(14)
O5B O -0.19156(19) -0.1982(2) 0.74601(14)
O6B O -0.37051(18) 0.0066(2) 0.71866(14)
O10B O -0.1136(2) -0.3754(2) 0.59240(16)
Co2_2 Co -0.5000 0.0000 0.5000
Co3B Co -0.24033(3) -0.38802(4) 0.68993(3)
C2B C -0.4257(3) -0.2871(3) 0.5499(2)
Co3C Co -0.25967(3) 0.11198(4) 0.81007(3)
C5B C -0.1699(3) -0.1691(3) 0.8304(2)
C6B C -0.4813(3) 0.0162(3) 0.7106(2)
O7B_2 O -0.4829(2) -0.2080(2) 0.50084(16)
O8B_2 O -0.5411(2) 0.0000(3) 0.63995(16)
O2C O -0.15321(18) 0.2441(2) 0.89034(14)
O10C O -0.3864(2) 0.1246(2) 0.90760(16)
O5C O -0.30844(19) 0.3018(2) 0.75399(14)
O12B O -0.1846(2) -0.0589(2) 0.86710(15)
loop_
_geom_bond_atom_site_label_1
_geom_bond_atom_site_label_2
_geom_bond_site_symmetry_1
_geom_bond_site_symmetry_2
Co1 O1 1_555 1_555
O1 Co2 1_555 1_555
O2 Co1 1_555 1_555
O3 Co1 1_555 1_555
O4 Co1 1_555 1_555
O5 Co1 1_555 1_555
O6 Co1 1_555 1_555
Co2 O7 1_555 1_555
C1 O1 1_555 1_555
Co3 O2 1_555 1_555
C2 O2 1_555 1_555
C3 O3 1_555 1_555
Co4 O4 1_555 1_555
C4 O4 1_555 1_555
C5 O5 1_555 1_555
C6 O6 1_555 1_555
O7 C2 1_555 1_555
O8 Co2 1_555 1_555
O9 C1 1_555 1_555
O10 Co3 1_555 1_555
O11 C3 1_555 1_555
O12 C5 1_555 1_555
Co3A O3 1_555 1_555
O1B Co2 1_555 1_555
O7B Co2 1_555 1_555
O8B Co2 1_555 1_555
O2A Co3A 1_555 1_555
O10A Co3A 1_555 1_555
O5A Co3A 1_555 1_555
O4B Co4 1_555 1_555
O9B Co4 1_555 1_555
O11B Co4 1_555 1_555
Co1B O4B 1_555 1_555
C4B O4B 1_555 1_555
C1B O9B 1_555 1_555
C3B O11B 1_555 1_555
O1B_2 Co1B 1_555 1_555
O2B Co1B 1_555 1_555
O3B Co1B 1_555 1_555
O5B Co1B 1_555 1_555
O6B Co1B 1_555 1_555
O10B C4B 1_555 1_555
Co2_2 O1B_2 1_555 1_555
Co3B O2B 1_555 1_555
C2B O2B 1_555 1_555
Co3C O3B 1_555 1_555
C5B O5B 1_555 1_555
C6B O6B 1_555 1_555
O7B_2 Co2_2 1_555 1_555
O8B_2 Co2_2 1_555 1_555
O2C Co3C 1_555 1_555
O10C Co3C 1_555 1_555
O5C Co3C 1_555 1_555
O12B Co3C 1_555 1_555
O5 Co3 1_555 1_555
O6 Co3A 1_555 1_555
Co4 O9 1_555 1_555
Co4 O11 1_555 1_555
C4 O10 1_555 1_555
C6 O8 1_555 1_555
O12 Co3A 1_555 1_555
C1B O1B_2 1_555 1_555
C3B O3B 1_555 1_555
O5B Co3B 1_555 1_555
O6B Co3C 1_555 1_555
O10B Co3B 1_555 1_555
C2B O7B_2 1_555 1_555
C5B O12B 1_555 1_555
C6B O8B_2 1_555 1_555

#END
