
#######################################################################
#
#                 Cambridge Crystallographic Data Centre
#                                CCDC 
#
#######################################################################
#
# If this CIF has been generated from an entry in the Cambridge 
# Structural Database, then it will include bibliographic, chemical, 
# crystal, experimental, refinement or atomic coordinate data resulting 
# from the CCDC's data processing and validation procedures.
#
#######################################################################

data_RAXCOK
_chemical_formula_moiety         '(C30 H14 N4 O8 S1 Zn1)n'
_symmetry_cell_setting           monoclinic
_symmetry_space_group_name_H-M   'P 21/a'
_symmetry_Int_Tables_number      14
_space_group_name_Hall           '-P 2yab'
loop_
_symmetry_equiv_pos_site_id
_symmetry_equiv_pos_as_xyz
1 x,y,z
2 1/2-x,1/2+y,-z
3 -x,-y,-z
4 1/2+x,1/2-y,z
_cell_length_a                   17.615(5)
_cell_length_b                   16.644(5)
_cell_length_c                   19.660(5)
_cell_angle_alpha                90
_cell_angle_beta                 91.890(5)
_cell_angle_gamma                90
_cell_volume                     5760.86
loop_
_atom_site_label
_atom_site_type_symbol
_atom_site_fract_x
_atom_site_fract_y
_atom_site_fract_z
Zn1 Zn 0.060721(19) 0.10596(2) 0.489980(15)
S1 S 0.19453(5) -0.21574(5) 0.51341(4)
O1 O 0.10250(13) -0.00675(14) 0.48907(11)
O2 O 0.05201(11) -0.12495(13) 0.51374(10)
O3 O 0.30656(18) -0.34727(19) 0.51180(13)
C1 C 0.18325(17) -0.11567(18) 0.50340(14)
O4 O 0.08395(18) -0.03403(17) 1.16839(12)
O5 O 0.11211(18) -0.03178(18) 0.81332(12)
O6 O 0.40868(16) -0.27384(17) 0.50819(12)
N1 N 0.06878(16) 0.09881(16) 0.59876(13)
N2 N 0.07558(19) 0.10078(18) 1.16828(13)
N3 N 0.06355(15) 0.10083(16) 1.38133(12)
N4 N 0.08769(19) 0.10062(19) 0.81231(13)
O7 O 0.0711(2) 0.23510(19) 1.16847(13)
C2 C 0.0923(2) 0.0291(2) 1.06121(15)
C3 C 0.3388(2) -0.2814(3) 0.50908(15)
C4 C 0.1324(2) 0.0764(3) 1.28106(16)
H1 H 0.1775 0.0595 1.2612
C5 C 0.0854(2) 0.0276(2) 1.13607(16)
C6 C 0.1443(2) 0.0860(3) 0.70090(18)
H2 H 0.1923 0.078 0.7221
C7 C 0.0822(2) 0.0984(2) 0.73809(15)
C8 C 0.3120(2) -0.1314(2) 0.49754(18)
H3 H 0.3627 -0.1155 0.4929
C9 C 0.0713(2) 0.1008(2) 1.24154(15)
O8 O 0.0734(2) 0.23326(18) 0.81112(13)
C10 C 0.0996(2) 0.0294(2) 0.92047(15)
C11 C 0.1261(2) 0.0770(2) 1.35054(15)
H4 H 0.1679 0.0598 1.3777
C12 C 0.0749(3) 0.1745(3) 1.13589(18)
C13 C 0.0070(2) 0.1265(3) 1.27122(16)
H5 H -0.0347 0.145 1.2446
C14 C 0.25086(19) -0.0781(2) 0.49552(17)
H6 H 0.2559 -0.0224 0.4894
C15 C 0.0828(3) 0.1737(3) 0.91921(17)
C16 C 0.0872(2) 0.1009(2) 1.02647(15)
C17 C 0.1012(2) 0.0279(3) 0.84528(15)
C18 C 0.0136(2) 0.1083(3) 0.70748(17)
H7 H -0.03 0.1145 0.7333
C19 C 0.1062(2) -0.0403(3) 0.95564(16)
H8 H 0.1149 -0.0886 0.9323
C20 C 0.0811(3) 0.1739(3) 0.84414(17)
C21 C 0.0045(2) 0.1247(2) 1.34159(15)
H9 H -0.0404 0.1409 1.3623
C22 C 0.2905(2) -0.2086(2) 0.50683(16)
C23 C 0.0898(2) 0.1012(2) 0.95457(15)
C24 C 0.1351(2) 0.0853(3) 0.63138(17)
H10 H 0.1778 0.0748 0.6054
C25 C 0.0790(3) 0.1732(3) 1.06032(16)
C26 C 0.1002(2) -0.0412(3) 1.02664(16)
H11 H 0.1016 -0.0903 1.0503
C27 C 0.0756(3) 0.2429(3) 0.95404(18)
H12 H 0.0717 0.2917 0.9301
C28 C 0.0737(3) 0.2435(3) 1.02573(19)
H13 H 0.0689 0.2922 1.0493
C29 C 0.0085(2) 0.1090(3) 0.63736(16)
H14 H -0.0394 0.117 0.6158
C30 C 0.10688(17) -0.0789(2) 0.50291(13)
Zn1B Zn -0.060721(19) -0.10596(2) 0.510020(15)
Zn1A Zn 0.439279(19) -0.39404(2) 0.510020(15)
Zn1_2 Zn 0.060721(19) 0.10596(2) 1.489980(15)
O2B O -0.05201(11) 0.12495(13) 0.48626(10)
O3A O 0.19344(18) 0.15273(19) 0.48820(13)
O6A O 0.09132(16) 0.22616(17) 0.49181(12)
N3_2 N 0.06355(15) 0.10083(16) 0.38133(12)
loop_
_geom_bond_atom_site_label_1
_geom_bond_atom_site_label_2
_geom_bond_site_symmetry_1
_geom_bond_site_symmetry_2
Zn1 O1 1_555 1_555
S1 C1 1_555 1_555
O1 C30 1_555 1_555
O2 C30 1_555 1_555
O3 C3 1_555 1_555
C1 C14 1_555 1_555
O4 C5 1_555 1_555
O5 C17 1_555 1_555
O6 C3 1_555 1_555
N1 Zn1 1_555 1_555
N2 C5 1_555 1_555
N3 C11 1_555 1_555
N4 C7 1_555 1_555
O7 C12 1_555 1_555
C2 C5 1_555 1_555
C3 C22 1_555 1_555
C4 H1 1_555 1_555
C6 H2 1_555 1_555
C7 C6 1_555 1_555
C8 H3 1_555 1_555
C9 N2 1_555 1_555
O8 C20 1_555 1_555
C10 C17 1_555 1_555
C11 C4 1_555 1_555
H4 C11 1_555 1_555
C12 N2 1_555 1_555
C13 C9 1_555 1_555
H5 C13 1_555 1_555
C14 C8 1_555 1_555
H6 C14 1_555 1_555
C15 C20 1_555 1_555
C16 C2 1_555 1_555
C17 N4 1_555 1_555
C18 C7 1_555 1_555
H7 C18 1_555 1_555
C19 C10 1_555 1_555
H8 C19 1_555 1_555
C20 N4 1_555 1_555
C21 N3 1_555 1_555
H9 C21 1_555 1_555
C22 S1 1_555 1_555
C23 C10 1_555 1_555
C24 N1 1_555 1_555
H10 C24 1_555 1_555
C25 C12 1_555 1_555
C26 C2 1_555 1_555
H11 C26 1_555 1_555
C27 C15 1_555 1_555
H12 C27 1_555 1_555
C28 C25 1_555 1_555
H13 C28 1_555 1_555
C29 N1 1_555 1_555
H14 C29 1_555 1_555
C30 C1 1_555 1_555
Zn1B O2 1_555 1_555
Zn1A O3 1_555 1_555
Zn1_2 N3 1_555 1_555
O2B Zn1 1_555 1_555
O3A Zn1 1_555 1_555
O6A Zn1 1_555 1_555
N3_2 Zn1 1_555 1_555
O6 Zn1A 1_555 1_555
C4 C9 1_555 1_555
C6 C24 1_555 1_555
C8 C22 1_555 1_555
C13 C21 1_555 1_555
C15 C23 1_555 1_555
C16 C23 1_555 1_555
C16 C25 1_555 1_555
C18 C29 1_555 1_555
C19 C26 1_555 1_555
C27 C28 1_555 1_555

#END
