
#######################################################################
#
#                 Cambridge Crystallographic Data Centre
#                                CCDC 
#
#######################################################################
#
# If this CIF has been generated from an entry in the Cambridge 
# Structural Database, then it will include bibliographic, chemical, 
# crystal, experimental, refinement or atomic coordinate data resulting 
# from the CCDC's data processing and validation procedures.
#
#######################################################################

data_NAGBUU
_chemical_formula_moiety         '(C14 H14 Co2 N6 O10)n'
_symmetry_cell_setting           orthorhombic
_symmetry_space_group_name_H-M   'P b c a'
_symmetry_Int_Tables_number      61
_space_group_name_Hall           '-P 2ac 2ab'
loop_
_symmetry_equiv_pos_site_id
_symmetry_equiv_pos_as_xyz
1 x,y,z
2 1/2-x,-y,1/2+z
3 -x,1/2+y,1/2-z
4 1/2+x,1/2-y,-z
5 -x,-y,-z
6 1/2+x,y,1/2-z
7 x,1/2-y,1/2+z
8 1/2-x,1/2+y,z
_cell_length_a                   20.6271(6)
_cell_length_b                   6.9247(2)
_cell_length_c                   26.0974(8)
_cell_angle_alpha                90
_cell_angle_beta                 90
_cell_angle_gamma                90
_cell_volume                     3727.66
loop_
_atom_site_label
_atom_site_type_symbol
_atom_site_fract_x
_atom_site_fract_y
_atom_site_fract_z
Co1 Co 0.021889(16) 0.23714(5) 0.364993(12)
Co2 Co -0.492630(15) 0.00295(5) 0.249800(13)
O1 O -0.32770(10) 0.1018(4) 0.22318(8)
O2 O -0.39888(9) 0.0109(3) 0.28282(7)
O3 O -0.08745(8) 0.0374(3) 0.28085(7)
O4 O -0.07403(8) 0.1847(3) 0.35723(7)
O5 O -0.23631(12) 0.0654(7) 0.48318(10)
O6 O -0.33538(11) 0.0770(4) 0.46361(9)
O7 O 0.03029(8) 0.2590(2) 0.28680(6)
H1 H 0.0713 0.2692 0.2858
O8 O 0.12243(10) 0.2406(4) 0.37154(8)
H2 H 0.1391(18) 0.203(5) 0.3454(14)
H3 H 0.1398(18) 0.334(6) 0.3817(14)
N1 N 0.02855(10) -0.0958(3) 0.36436(7)
N2 N 0.02931(10) -0.1622(3) 0.31615(7)
N3 N 0.02337(10) -0.3503(3) 0.31614(7)
N4 N 0.01913(10) -0.4145(3) 0.36446(7)
N5 N -0.01038(10) -0.2457(3) 0.55448(7)
N6 N -0.27914(12) 0.0758(4) 0.45181(9)
C1 C 0.02187(12) -0.2544(4) 0.39302(9)
C2 C 0.01241(12) -0.2509(3) 0.44929(9)
C3 C 0.05903(13) -0.3170(4) 0.48337(10)
H4 H 0.0985 -0.3643 0.4716
C4 C 0.04556(13) -0.3112(4) 0.53514(9)
H5 H 0.0770 -0.3552 0.5578
C5 C -0.05532(13) -0.1828(4) 0.52146(10)
H6 H -0.0946 -0.1377 0.5343
C6 C -0.04556(13) -0.1823(4) 0.46896(10)
H7 H -0.0776 -0.1363 0.4471
C7 C -0.29113(13) 0.0660(4) 0.30900(10)
C8 C -0.22567(12) 0.0721(4) 0.29635(10)
H8 H -0.2133 0.0656 0.2621
C9 C -0.17821(12) 0.0878(4) 0.33430(10)
C10 C -0.19659(12) 0.0907(4) 0.38532(10)
H9 H -0.1657 0.1013 0.4111
C11 C -0.26176(13) 0.0775(4) 0.39717(10)
C12 C -0.30972(12) 0.0662(4) 0.36024(10)
H10 H -0.3532 0.0590 0.3694
C13 C -0.34369(13) 0.0575(4) 0.26770(11)
C14 C -0.10697(12) 0.1040(4) 0.32244(9)
Co1_2 Co 0.021889(16) -0.76286(5) 0.364993(12)
Co1D Co -0.021889(16) -0.23714(5) 0.635007(12)
Co2E Co 0.007370(15) 0.00295(5) 0.250200(13)
Co2G Co -0.007370(15) 0.50295(5) 0.249800(13)
Co2G_2 Co -0.007370(15) -0.49705(5) 0.249800(13)
O3E O -0.58745(8) 0.0374(3) 0.21915(7)
O7E O -0.46971(8) 0.2590(2) 0.21320(6)
O7G O -0.53029(8) -0.2410(2) 0.28680(6)
H1E H -0.4287 0.2692 0.2142
H1G H -0.5713 -0.2308 0.2858
N2E N -0.47069(10) -0.1622(3) 0.18385(7)
N3G N -0.52337(10) 0.1497(3) 0.31614(7)
N4_2 N 0.01913(10) 0.5855(3) 0.36446(7)
N5D N 0.01038(10) 0.2457(3) 0.44552(7)
O9 O 0.18765(16) 0.5433(5) 0.41217(12)
H11 H 0.2109 0.4421 0.4104
H12 H 0.1857 0.6135 0.3855
O10 O 0.2245(2) 0.7716(6) 0.33100(14)
H13 H 0.1834 0.7661 0.3292
H14 H 0.2456 0.7372 0.3046
loop_
_geom_bond_atom_site_label_1
_geom_bond_atom_site_label_2
_geom_bond_site_symmetry_1
_geom_bond_site_symmetry_2
Co1 O4 1_555 1_555
Co2 O2 1_555 1_555
O1 C13 1_555 1_555
O2 C13 1_555 1_555
O3 C14 1_555 1_555
O4 C14 1_555 1_555
O5 N6 1_555 1_555
O6 N6 1_555 1_555
O7 Co1 1_555 1_555
H1 O7 1_555 1_555
O8 Co1 1_555 1_555
H2 O8 1_555 1_555
H3 O8 1_555 1_555
N1 Co1 1_555 1_555
N2 N1 1_555 1_555
N3 N2 1_555 1_555
N4 N3 1_555 1_555
N5 C4 1_555 1_555
N6 C11 1_555 1_555
C1 N1 1_555 1_555
C2 C1 1_555 1_555
C3 C2 1_555 1_555
H4 C3 1_555 1_555
C4 C3 1_555 1_555
H5 C4 1_555 1_555
C5 N5 1_555 1_555
H6 C5 1_555 1_555
C6 C2 1_555 1_555
H7 C6 1_555 1_555
C7 C8 1_555 1_555
C8 H8 1_555 1_555
C9 C8 1_555 1_555
C10 C9 1_555 1_555
H9 C10 1_555 1_555
C11 C10 1_555 1_555
C12 C7 1_555 1_555
H10 C12 1_555 1_555
C13 C7 1_555 1_555
C14 C9 1_555 1_555
O9 H11 1_555 1_555
H12 O9 1_555 1_555
O10 H13 1_555 1_555
H14 O10 1_555 1_555
Co1_2 N4 1_555 1_555
Co1D N5 1_555 1_555
Co2E O3 1_555 1_555
Co2G O7 1_555 1_555
Co2G_2 N3 1_555 1_555
O3E Co2 1_555 1_555
O7E Co2 1_555 1_555
O7G Co2 1_555 1_555
H1E O7E 1_555 1_555
H1G O7G 1_555 1_555
N2E Co2 1_555 1_555
N3G Co2 1_555 1_555
N4_2 Co1 1_555 1_555
N5D Co1 1_555 1_555
O7 Co2E 1_555 1_555
N2 Co2E 1_555 1_555
N4 C1 1_555 1_555
C5 C6 1_555 1_555
C11 C12 1_555 1_555

#END
