
#######################################################################
#
#                 Cambridge Crystallographic Data Centre
#                                CCDC 
#
#######################################################################
#
# If this CIF has been generated from an entry in the Cambridge 
# Structural Database, then it will include bibliographic, chemical, 
# crystal, experimental, refinement or atomic coordinate data resulting 
# from the CCDC's data processing and validation procedures.
#
#######################################################################

data_DUXSUM
_chemical_formula_moiety         '(C56 H42 N8 O8 Zn2)n'
_symmetry_cell_setting           monoclinic
_symmetry_space_group_name_H-M   'P 21/n'
_symmetry_Int_Tables_number      14
_space_group_name_Hall           '-P 2yn'
loop_
_symmetry_equiv_pos_site_id
_symmetry_equiv_pos_as_xyz
1 x,y,z
2 1/2-x,1/2+y,1/2-z
3 -x,-y,-z
4 1/2+x,1/2-y,1/2+z
_cell_length_a                   9.3753(4)
_cell_length_b                   16.5379(8)
_cell_length_c                   18.0472(9)
_cell_angle_alpha                90
_cell_angle_beta                 101.0940(10)
_cell_angle_gamma                90
_cell_volume                     2745.89
loop_
_atom_site_label
_atom_site_type_symbol
_atom_site_fract_x
_atom_site_fract_y
_atom_site_fract_z
C1 C 0.6794(3) 0.21630(16) 0.33235(15)
C2 C 0.6503(3) 0.18376(16) 0.40583(13)
C3 C 0.7552(3) 0.19364(15) 0.47089(14)
H1 H 0.8436 0.2178 0.4681
C4 C 0.7288(3) 0.16780(15) 0.53989(13)
C5 C 0.5968(3) 0.13219(15) 0.54348(14)
H2 H 0.5798 0.1151 0.5901
C6 C 0.4889(3) 0.12097(14) 0.48003(14)
C7 C 0.5189(3) 0.14697(15) 0.41066(14)
H3 H 0.4494 0.1395 0.3669
C8 C 0.3455(3) 0.08500(15) 0.48536(15)
C9 C 0.3168(3) 0.0552(2) 0.55186(17)
H4 H 0.3899 0.0568 0.5947
C10 C 0.1831(3) 0.0229(2) 0.55758(18)
H5 H 0.1691 0.0039 0.6042
C11 C 0.0717(3) 0.01809(16) 0.49718(18)
C12 C 0.1004(4) 0.0455(4) 0.4306(3)
H6 H 0.0280 0.0425 0.3875
C13 C 0.2353(4) 0.0780(3) 0.4249(2)
H7 H 0.2500 0.0955 0.3780
C14 C 0.8413(3) 0.17898(17) 0.61063(14)
C15 C 0.7950(4) 0.42321(19) 0.26015(16)
H8 H 0.8768 0.3986 0.2481
C16 C 0.5768(5) 0.4474(3) 0.2695(2)
H9 H 0.4765 0.4431 0.2644
C17 C 0.6600(6) 0.5061(3) 0.3078(3)
H10 H 0.6281 0.5488 0.3340
C18 C 0.9290(6) 0.5336(2) 0.3389(2)
H11 H 0.9152 0.5913 0.3314
H12 H 1.0107 0.5174 0.3165
C19 C 0.9630(3) 0.51556(17) 0.42227(18)
C20 C 0.9466(3) 0.43865(17) 0.45106(19)
H13 H 0.9109 0.3969 0.4181
C21 C 0.9821(3) 0.42347(16) 0.52712(18)
H14 H 0.9694 0.3718 0.5451
C22 C 0.7628(3) 0.22660(14) 0.07295(15)
H15 H 0.6790 0.2323 0.0363
C23 C 0.9141(3) 0.22742(17) 0.17871(17)
H16 H 0.9539 0.2340 0.2297
C24 C 0.9844(3) 0.19952(17) 0.12628(19)
H17 H 1.0812 0.1836 0.1341
C25 C 0.9183(4) 0.16927(17) -0.01245(17)
H18 H 0.9960 0.2009 -0.0266
H19 H 0.8321 0.1762 -0.0513
C26 C 0.9608(3) 0.08157(16) -0.00752(15)
C27 C 0.8605(3) 0.0229(2) -0.0168(3)
H20 H 0.7626 0.0367 -0.0274
C28 C 1.1008(4) 0.0571(2) 0.0108(3)
H21 H 1.1736 0.0961 0.0198
N1 N 0.6629(3) 0.39592(14) 0.23950(12)
N2 N 0.7982(4) 0.49109(16) 0.30095(16)
N3 N 0.7730(2) 0.24489(13) 0.14497(12)
N4 N 0.8892(2) 0.19877(12) 0.06006(13)
O1 O 0.7997(2) 0.24399(16) 0.32902(11)
O2 O 0.5724(2) 0.21601(11) 0.27576(10)
O3 O 0.9565(2) 0.21601(11) 0.60393(10)
O4 O 0.8190(2) 0.15203(15) 0.67133(11)
Zn1 Zn 0.61159(3) 0.287259(17) 0.193783(15)
C1B C -0.6794(3) -0.21630(16) 0.66765(15)
C2B C -0.6503(3) -0.18376(16) 0.59417(13)
C3B C -0.7552(3) -0.19364(15) 0.52911(14)
H1B H -0.8436 -0.2178 0.5319
C4B C -0.7288(3) -0.16780(15) 0.46011(13)
C5B C -0.5968(3) -0.13219(15) 0.45652(14)
H2B H -0.5798 -0.1151 0.4099
C6B C -0.4889(3) -0.12097(14) 0.51997(14)
C7B C -0.5189(3) -0.14697(15) 0.58934(14)
H3B H -0.4494 -0.1395 0.6331
C8B C -0.3455(3) -0.08500(15) 0.51464(15)
C9B C -0.3168(3) -0.0552(2) 0.44814(17)
H4B H -0.3899 -0.0568 0.4053
C10B C -0.1831(3) -0.0229(2) 0.44242(18)
H5B H -0.1691 -0.0039 0.3958
C11B C -0.0717(3) -0.01809(16) 0.50282(18)
C12B C -0.1004(4) -0.0455(4) 0.5694(3)
H6B H -0.0280 -0.0425 0.6125
C13B C -0.2353(4) -0.0780(3) 0.5751(2)
H7B H -0.2500 -0.0955 0.6220
C14B C -0.8413(3) -0.17898(17) 0.38937(14)
O1B O -0.7997(2) -0.24399(16) 0.67098(11)
O2B O -0.5724(2) -0.21601(11) 0.72424(10)
O3B O -0.9565(2) -0.21601(11) 0.39607(10)
O4B O -0.8190(2) -0.15203(15) 0.32867(11)
C15B C 1.2050(4) 0.57679(19) 0.73985(16)
H8B H 1.1232 0.6014 0.7519
C16B C 1.4232(5) 0.5526(3) 0.7305(2)
H9B H 1.5235 0.5569 0.7356
C17B C 1.3400(6) 0.4939(3) 0.6922(3)
H10B H 1.3719 0.4512 0.6660
C18B C 1.0710(6) 0.4664(2) 0.6611(2)
H11B H 1.0848 0.4087 0.6686
H12B H 0.9893 0.4826 0.6835
C19B C 1.0370(3) 0.48444(17) 0.57773(18)
C20B C 1.0534(3) 0.56135(17) 0.54894(19)
H13B H 1.0891 0.6031 0.5819
C21B C 1.0179(3) 0.57653(16) 0.47288(18)
H14B H 1.0306 0.6282 0.4549
N1B N 1.3371(3) 0.60408(14) 0.76050(12)
N2B N 1.2018(4) 0.50891(16) 0.69905(16)
C22B C 1.2372(3) -0.22660(14) -0.07295(15)
H15B H 1.3210 -0.2323 -0.0363
C23B C 1.0859(3) -0.22742(17) -0.17871(17)
H16B H 1.0461 -0.2340 -0.2297
C24B C 1.0156(3) -0.19952(17) -0.12628(19)
H17B H 0.9188 -0.1836 -0.1341
C25B C 1.0817(4) -0.16927(17) 0.01245(17)
H18B H 1.0040 -0.2009 0.0266
H19B H 1.1679 -0.1762 0.0513
C26B C 1.0392(3) -0.08157(16) 0.00752(15)
C27B C 1.1395(3) -0.0229(2) 0.0168(3)
H20B H 1.2374 -0.0367 0.0274
C28B C 0.8992(4) -0.0571(2) -0.0108(3)
H21B H 0.8264 -0.0961 -0.0198
N3B N 1.2270(2) -0.24489(13) -0.14497(12)
N4B N 1.1108(2) -0.19877(12) -0.06006(13)
Zn1B Zn -0.61159(3) -0.287259(17) 0.806217(15)
N1B_2 N -0.6629(3) -0.39592(14) 0.76050(12)
N3B_2 N -0.7730(2) -0.24489(13) 0.85503(12)
O3A O -0.4565(2) -0.28399(11) 0.89607(10)
O3C O 0.4565(2) 0.28399(11) 0.10393(10)
Zn1A Zn -1.11159(3) -0.212741(17) 0.306217(15)
Zn1B_2 Zn 1.38841(3) -0.287259(17) -0.193783(15)
Zn1B_3 Zn 1.38841(3) 0.712741(17) 0.806217(15)
Zn1C Zn 1.11159(3) 0.212741(17) 0.693783(15)
loop_
_geom_bond_atom_site_label_1
_geom_bond_atom_site_label_2
_geom_bond_site_symmetry_1
_geom_bond_site_symmetry_2
C1 C2 1_555 1_555
C2 C3 1_555 1_555
C3 H1 1_555 1_555
C4 C3 1_555 1_555
C5 C4 1_555 1_555
H2 C5 1_555 1_555
C6 C5 1_555 1_555
C7 C2 1_555 1_555
H3 C7 1_555 1_555
C8 C6 1_555 1_555
C9 C8 1_555 1_555
H4 C9 1_555 1_555
C10 C9 1_555 1_555
H5 C10 1_555 1_555
C11 C10 1_555 1_555
C12 C11 1_555 1_555
H6 C12 1_555 1_555
C13 C8 1_555 1_555
H7 C13 1_555 1_555
C14 C4 1_555 1_555
C15 H8 1_555 1_555
C16 H9 1_555 1_555
C17 C16 1_555 1_555
H10 C17 1_555 1_555
C18 H11 1_555 1_555
H12 C18 1_555 1_555
C19 C18 1_555 1_555
C20 C19 1_555 1_555
H13 C20 1_555 1_555
C21 C20 1_555 1_555
H14 C21 1_555 1_555
C22 H15 1_555 1_555
C23 H16 1_555 1_555
C24 C23 1_555 1_555
H17 C24 1_555 1_555
C25 H18 1_555 1_555
H19 C25 1_555 1_555
C26 C25 1_555 1_555
C27 C26 1_555 1_555
H20 C27 1_555 1_555
C28 C26 1_555 1_555
H21 C28 1_555 1_555
N1 C15 1_555 1_555
N2 C15 1_555 1_555
N3 C22 1_555 1_555
N4 C22 1_555 1_555
O1 C1 1_555 1_555
O2 C1 1_555 1_555
O3 C14 1_555 1_555
O4 C14 1_555 1_555
Zn1 N1 1_555 1_555
C1B C2B 1_555 1_555
C2B C3B 1_555 1_555
C3B H1B 1_555 1_555
C4B C3B 1_555 1_555
C5B C4B 1_555 1_555
H2B C5B 1_555 1_555
C6B C5B 1_555 1_555
C7B C2B 1_555 1_555
H3B C7B 1_555 1_555
C8B C6B 1_555 1_555
C9B C8B 1_555 1_555
H4B C9B 1_555 1_555
C10B C9B 1_555 1_555
H5B C10B 1_555 1_555
C11B C11 1_555 1_555
C12B C11B 1_555 1_555
H6B C12B 1_555 1_555
C13B C8B 1_555 1_555
H7B C13B 1_555 1_555
C14B C4B 1_555 1_555
O1B C1B 1_555 1_555
O2B C1B 1_555 1_555
O3B C14B 1_555 1_555
O4B C14B 1_555 1_555
C15B H8B 1_555 1_555
C16B H9B 1_555 1_555
C17B C16B 1_555 1_555
H10B C17B 1_555 1_555
C18B H11B 1_555 1_555
H12B C18B 1_555 1_555
C19B C21 1_555 1_555
C20B C19B 1_555 1_555
H13B C20B 1_555 1_555
C21B C19 1_555 1_555
H14B C21B 1_555 1_555
N1B C15B 1_555 1_555
N2B C15B 1_555 1_555
C22B H15B 1_555 1_555
C23B H16B 1_555 1_555
C24B C23B 1_555 1_555
H17B C24B 1_555 1_555
C25B H18B 1_555 1_555
H19B C25B 1_555 1_555
C26B C25B 1_555 1_555
C27B C28 1_555 1_555
H20B C27B 1_555 1_555
C28B C27 1_555 1_555
H21B C28B 1_555 1_555
N3B C22B 1_555 1_555
N4B C22B 1_555 1_555
Zn1B O2B 1_555 1_555
N1B_2 Zn1B 1_555 1_555
N3B_2 Zn1B 1_555 1_555
O3A Zn1B 1_555 1_555
O3C Zn1 1_555 1_555
Zn1A O3B 1_555 1_555
Zn1B_2 N3B 1_555 1_555
Zn1B_3 N1B 1_555 1_555
Zn1C O3 1_555 1_555
C6 C7 1_555 1_555
C12 C13 1_555 1_555
C16 N1 1_555 1_555
C17 N2 1_555 1_555
C18 N2 1_555 1_555
C23 N3 1_555 1_555
C24 N4 1_555 1_555
C25 N4 1_555 1_555
N3 Zn1 1_555 1_555
O2 Zn1 1_555 1_555
C6B C7B 1_555 1_555
C10B C11B 1_555 1_555
C12B C13B 1_555 1_555
C16B N1B 1_555 1_555
C17B N2B 1_555 1_555
C18B C19B 1_555 1_555
C18B N2B 1_555 1_555
C20B C21B 1_555 1_555
C23B N3B 1_555 1_555
C24B N4B 1_555 1_555
C25B N4B 1_555 1_555
C26B C27B 1_555 1_555
C26B C28B 1_555 1_555

#END
