
#######################################################################
#
#                 Cambridge Crystallographic Data Centre
#                                CCDC 
#
#######################################################################
#
# If this CIF has been generated from an entry in the Cambridge 
# Structural Database, then it will include bibliographic, chemical, 
# crystal, experimental, refinement or atomic coordinate data resulting 
# from the CCDC's data processing and validation procedures.
#
#######################################################################

data_ACOLOV
_chemical_formula_moiety         '(C64 H72 Cd3 N4 O25)n'
_symmetry_cell_setting           monoclinic
_symmetry_space_group_name_H-M   'P 21/c'
_symmetry_Int_Tables_number      14
_space_group_name_Hall           '-P 2ybc'
loop_
_symmetry_equiv_pos_site_id
_symmetry_equiv_pos_as_xyz
1 x,y,z
2 -x,1/2+y,1/2-z
3 -x,-y,-z
4 x,1/2-y,1/2+z
_cell_length_a                   24.373(6)
_cell_length_b                   11.367(3)
_cell_length_c                   36.596(10)
_cell_angle_alpha                90
_cell_angle_beta                 97.685(4)
_cell_angle_gamma                90
_cell_volume                     10047.8
loop_
_atom_site_label
_atom_site_type_symbol
_atom_site_fract_x
_atom_site_fract_y
_atom_site_fract_z
Cd1 Cd 0.327551(19) 0.64314(4) 1.157921(13)
Cd2 Cd 0.28370(2) 0.36729(4) 1.118633(13)
Cd3 Cd 0.70106(3) 0.91791(5) 0.908580(16)
N1 N 0.4968(3) 0.7790(8) 1.1547(3)
N2 N 0.8244(6) 1.2075(14) 0.9491(5)
O1 O 0.21010(19) 0.4741(5) 0.85189(16)
O2 O 0.6493(4) 1.0578(7) 0.9295(3)
O3 O 0.3264(2) 0.8281(5) 1.18143(17)
O4 O 0.2987(3) 0.5763(5) 0.92644(14)
O5 O 0.40532(19) 0.5341(5) 0.87620(16)
O6 O 0.3199(2) 0.4158(4) 0.80996(13)
O7 O 0.1182(3) 0.3962(6) 0.90041(15)
O8 O 0.0184(2) 0.3774(5) 0.82430(18)
O9 O 0.1196(3) 0.4360(6) 0.77091(16)
O10 O 0.3231(3) 0.7297(5) 1.09430(14)
O11 O 0.3239(2) 0.5405(4) 1.10207(12)
O12 O 0.6471(2) 0.7476(6) 0.90124(16)
O13 O 0.6030(3) 0.8930(7) 0.8693(2)
O14 O 0.3337(2) -0.0358(5) 0.70987(14)
O15 O 0.3446(2) 0.1062(5) 0.66968(13)
O16 O 0.2330(3) 0.3466(6) 1.06427(15)
O17 O 0.2561(4) 0.1740(7) 1.04263(19)
O18 O -0.2197(2) 0.5459(5) 0.85295(17)
O19 O -0.2347(2) 0.3526(5) 0.84563(17)
O20 O 0.2477(3) 0.3111(5) 0.63578(16)
O21 O 0.2675(3) 0.4970(5) 0.64273(15)
O22 O 0.4220(2) 0.6686(6) 1.16325(18)
O23 O 0.7699(6) 1.0538(12) 0.9382(3)
C1 C 0.2527(3) 0.5569(6) 0.8513(2)
H1 H 0.2455 0.6253 0.8658
H2 H 0.2546 0.5823 0.8262
C2 C 0.3073(3) 0.5000(6) 0.86739(18)
C3 C 0.3074(3) 0.4695(6) 0.90796(18)
H3 H 0.2782 0.4138 0.9108
H4 H 0.3426 0.4348 0.9180
C4 C 0.3539(3) 0.5864(6) 0.8628(2)
H5 H 0.3530 0.6066 0.8370
H6 H 0.3489 0.6579 0.8765
C5 C 0.3155(3) 0.3852(6) 0.84720(19)
H7 H 0.3490 0.3458 0.8583
H8 H 0.2843 0.3329 0.8483
C6 C 0.1565(3) 0.5214(8) 0.8429(2)
H9 H 0.1551 0.5712 0.8213
H10 H 0.1469 0.5686 0.8632
C7 C 0.1159(3) 0.4191(7) 0.8353(2)
C8 C 0.1237(3) 0.3317(8) 0.8675(2)
H11 H 0.0960 0.2701 0.8638
H12 H 0.1601 0.2957 0.8694
C9 C 0.0573(3) 0.4712(8) 0.8311(2)
H13 H 0.0515 0.5127 0.8534
H14 H 0.0525 0.5265 0.8107
C10 C 0.1256(3) 0.3531(7) 0.8005(2)
H15 H 0.1624 0.3193 0.8035
H16 H 0.0988 0.2900 0.7955
C11 C 0.3053(3) 0.5802(7) 0.96410(19)
C12 C 0.2944(5) 0.6877(8) 0.9788(2)
H17 H 0.2828 0.7502 0.9632
C13 C 0.3006(5) 0.7033(7) 1.0167(2)
H18 H 0.2942 0.7771 1.0263
C14 C 0.3161(3) 0.6112(6) 1.04055(19)
C15 C 0.3251(3) 0.5020(6) 1.02511(19)
H19 H 0.3350 0.4383 1.0406
C16 C 0.3199(3) 0.4862(7) 0.9875(2)
H20 H 0.3261 0.4125 0.9778
C17 C 0.3214(3) 0.6289(6) 1.08100(19)
C18 C 0.4512(3) 0.6012(7) 0.8757(2)
C19 C 0.4515(3) 0.7158(7) 0.8637(2)
H21 H 0.4185 0.7523 0.8543
C20 C 0.5012(3) 0.7769(8) 0.8658(3)
H22 H 0.5008 0.8554 0.8585
C21 C 0.5517(3) 0.7232(7) 0.8785(2)
C22 C 0.5511(3) 0.6054(8) 0.8889(3)
H23 H 0.5842 0.5672 0.8970
C23 C 0.5018(3) 0.5450(7) 0.8875(3)
H24 H 0.5021 0.4663 0.8945
C24 C 0.6036(3) 0.7903(9) 0.8820(3)
C25 C 0.3243(3) 0.3267(6) 0.78498(19)
C26 C 0.3188(4) 0.2085(7) 0.79268(19)
H25 H 0.3123 0.1843 0.8160
C27 C 0.3231(4) 0.1266(7) 0.7653(2)
H26 H 0.3180 0.0473 0.7700
C28 C 0.3348(3) 0.1607(7) 0.73100(19)
C29 C 0.3415(3) 0.2789(7) 0.72422(18)
H27 H 0.3499 0.3027 0.7013
C30 C 0.3360(3) 0.3618(7) 0.75064(19)
H28 H 0.3401 0.4412 0.7455
C31 C 0.3373(3) 0.0708(7) 0.70137(19)
C32 C 0.1463(4) 0.3599(9) 0.9328(2)
C33 C 0.1526(5) 0.4418(9) 0.9612(3)
H29 H 0.1377 0.5168 0.9572
C34 C 0.1808(5) 0.4129(9) 0.9950(2)
H30 H 0.1858 0.4700 1.0134
C35 C 0.2020(4) 0.3020(9) 1.0026(2)
C36 C 0.1956(5) 0.2198(9) 0.9746(3)
H31 H 0.2099 0.1445 0.9789
C37 C 0.1669(5) 0.2495(10) 0.9387(3)
H32 H 0.1625 0.1939 0.9199
C38 C 0.2331(4) 0.2727(8) 1.0396(2)
C39 C -0.0364(3) 0.4008(8) 0.8283(2)
C40 C -0.0700(3) 0.3048(8) 0.8278(3)
H33 H -0.0560 0.2304 0.8237
C41 C -0.1239(3) 0.3174(8) 0.8333(3)
H34 H -0.1462 0.2510 0.8331
C42 C -0.1462(3) 0.4272(7) 0.8390(2)
C43 C -0.1113(3) 0.5233(8) 0.8385(3)
H35 H -0.1249 0.5980 0.8424
C44 C -0.0574(3) 0.5115(8) 0.8324(3)
H36 H -0.0352 0.5776 0.8311
C45 C -0.2048(3) 0.4438(7) 0.8463(2)
C46 C 0.1509(3) 0.4206(8) 0.7426(2)
C47 C 0.1653(4) 0.5253(8) 0.7259(2)
H37 H 0.1541 0.5979 0.7340
C48 C 0.1966(4) 0.5177(7) 0.6971(2)
H38 H 0.2073 0.5863 0.6861
C49 C 0.2122(3) 0.4109(7) 0.68442(19)
C50 C 0.1968(3) 0.3072(7) 0.7005(2)
H39 H 0.2065 0.2346 0.6916
C51 C 0.1662(3) 0.3140(8) 0.7303(2)
H40 H 0.1564 0.2455 0.7417
C52 C 0.2456(3) 0.4047(7) 0.65228(19)
C53 C 0.4431(4) 0.7500(10) 1.1492(3)
H41 H 0.4199 0.7969 1.1331
C54 C 0.5352(5) 0.7068(15) 1.1814(5)
H42 H 0.5148 0.6442 1.1910
H43 H 0.5513 0.7559 1.2014
H44 H 0.5640 0.6743 1.1690
C55 C 0.5158(7) 0.8804(15) 1.1360(5)
H45 H 0.4852 0.9151 1.1205
H46 H 0.5435 0.8563 1.1212
H47 H 0.5314 0.9371 1.1539
C56 C 0.7908(8) 1.1432(15) 0.9271(6)
H48 H 0.7825 1.1649 0.9025
C57 C 0.8391(12) 1.185(3) 0.9888(7)
H49 H 0.8285 1.1067 0.9944
H50 H 0.8783 1.1944 0.9954
H51 H 0.8200 1.2404 1.0025
C58 C 0.8366(10) 1.316(2) 0.9367(7)
H52 H 0.8241 1.3209 0.9108
H53 H 0.8185 1.3746 0.9495
H54 H 0.8759 1.3277 0.9411
Cd1C Cd 0.327551(19) -0.14314(4) 0.657921(13)
Cd1B Cd -0.327551(19) 0.35686(4) 0.842079(13)
Cd2B Cd 0.71630(2) 0.63271(4) 0.881367(13)
Cd2C Cd 0.28370(2) 0.13271(4) 0.618633(13)
Cd2B_2 Cd -0.28370(2) 0.63271(4) 0.881367(13)
Cd3B Cd 0.29894(3) 0.08209(5) 1.091420(16)
Cd3A Cd 0.29894(3) 0.41791(5) 0.591420(16)
O12B O 0.3529(2) 0.2524(6) 1.09876(16)
O14C O 0.3337(2) 0.5358(5) 1.20987(14)
O15C O 0.3446(2) 0.3938(5) 1.16968(13)
O17B O 0.7439(4) 0.8260(7) 0.95737(19)
O18B O 0.2197(2) 0.4541(5) 1.14705(17)
O19B O 0.2347(2) 0.6474(5) 1.15437(17)
O20C O 0.2477(3) 0.1889(5) 1.13578(16)
O20A O 0.7523(3) 0.8111(5) 0.86422(16)
O21A O 0.7325(3) 0.9970(5) 0.85727(15)
N3 N 0.5018(4) 0.4906(9) 0.2556(3)
O24 O 0.5830(3) 0.3968(8) 0.2728(3)
C59 C 0.5495(5) 0.4748(12) 0.2783(3)
C60 C 0.4596(6) 0.5779(15) 0.2644(5)
C61 C 0.4848(5) 0.4153(13) 0.2231(4)
N4 N 0.2760(8) 0.8194(16) 0.7826(5)
O25 O 0.3255(9) 0.8724(17) 0.8312(6)
C62 C 0.2657(14) 0.882(3) 0.8146(9)
C63 C 0.3191(15) 0.765(3) 0.7719(9)
C64 C 0.2275(15) 0.850(3) 0.7569(10)
loop_
_geom_bond_atom_site_label_1
_geom_bond_atom_site_label_2
_geom_bond_site_symmetry_1
_geom_bond_site_symmetry_2
Cd1 O3 1_555 1_555
Cd2 O11 1_555 1_555
Cd3 O2 1_555 1_555
N1 C53 1_555 1_555
N2 C56 1_555 1_555
N3 C59 1_555 1_555
N4 C62 1_555 1_555
O1 C1 1_555 1_555
O4 C3 1_555 1_555
O5 C4 1_555 1_555
O6 C5 1_555 1_555
O7 C8 1_555 1_555
O8 C9 1_555 1_555
O9 C10 1_555 1_555
O10 Cd1 1_555 1_555
O11 Cd1 1_555 1_555
O12 Cd3 1_555 1_555
O13 Cd3 1_555 1_555
O14 C31 1_555 1_555
O15 C31 1_555 1_555
O16 Cd2 1_555 1_555
O17 C38 1_555 1_555
O18 C45 1_555 1_555
O19 C45 1_555 1_555
O20 C52 1_555 1_555
O21 C52 1_555 1_555
O22 Cd1 1_555 1_555
O23 Cd3 1_555 1_555
O24 C59 1_555 1_555
O25 C62 1_555 1_555
C1 H1 1_555 1_555
H2 C1 1_555 1_555
C2 C1 1_555 1_555
C3 C2 1_555 1_555
H3 C3 1_555 1_555
H4 C3 1_555 1_555
C4 C2 1_555 1_555
H5 C4 1_555 1_555
H6 C4 1_555 1_555
C5 C2 1_555 1_555
H7 C5 1_555 1_555
H8 C5 1_555 1_555
C6 O1 1_555 1_555
H9 C6 1_555 1_555
H10 C6 1_555 1_555
C7 C6 1_555 1_555
C8 C7 1_555 1_555
H11 C8 1_555 1_555
H12 C8 1_555 1_555
C9 C7 1_555 1_555
H13 C9 1_555 1_555
H14 C9 1_555 1_555
C10 C7 1_555 1_555
H15 C10 1_555 1_555
H16 C10 1_555 1_555
C11 O4 1_555 1_555
C12 C11 1_555 1_555
H17 C12 1_555 1_555
C13 C12 1_555 1_555
H18 C13 1_555 1_555
C14 C13 1_555 1_555
C15 C14 1_555 1_555
H19 C15 1_555 1_555
C16 C11 1_555 1_555
H20 C16 1_555 1_555
C17 O10 1_555 1_555
C18 O5 1_555 1_555
C19 C18 1_555 1_555
H21 C19 1_555 1_555
C20 C19 1_555 1_555
H22 C20 1_555 1_555
C21 C20 1_555 1_555
C22 C21 1_555 1_555
H23 C22 1_555 1_555
C23 C18 1_555 1_555
H24 C23 1_555 1_555
C24 O12 1_555 1_555
C25 O6 1_555 1_555
C26 C25 1_555 1_555
H25 C26 1_555 1_555
C27 C26 1_555 1_555
H26 C27 1_555 1_555
C28 C27 1_555 1_555
C29 C28 1_555 1_555
H27 C29 1_555 1_555
C30 C25 1_555 1_555
H28 C30 1_555 1_555
C31 C28 1_555 1_555
C32 O7 1_555 1_555
C33 C32 1_555 1_555
H29 C33 1_555 1_555
C34 C33 1_555 1_555
H30 C34 1_555 1_555
C35 C34 1_555 1_555
C36 C35 1_555 1_555
H31 C36 1_555 1_555
C37 C32 1_555 1_555
H32 C37 1_555 1_555
C38 O16 1_555 1_555
C39 O8 1_555 1_555
C40 C39 1_555 1_555
H33 C40 1_555 1_555
C41 C40 1_555 1_555
H34 C41 1_555 1_555
C42 C41 1_555 1_555
C43 C42 1_555 1_555
H35 C43 1_555 1_555
C44 C39 1_555 1_555
H36 C44 1_555 1_555
C45 C42 1_555 1_555
C46 O9 1_555 1_555
C47 C46 1_555 1_555
H37 C47 1_555 1_555
C48 C47 1_555 1_555
H38 C48 1_555 1_555
C49 C48 1_555 1_555
C50 C49 1_555 1_555
H39 C50 1_555 1_555
C51 C46 1_555 1_555
H40 C51 1_555 1_555
C52 C49 1_555 1_555
C53 O22 1_555 1_555
H41 C53 1_555 1_555
C54 N1 1_555 1_555
H42 C54 1_555 1_555
H43 C54 1_555 1_555
H44 C54 1_555 1_555
C55 N1 1_555 1_555
H45 C55 1_555 1_555
H46 C55 1_555 1_555
H47 C55 1_555 1_555
C56 O23 1_555 1_555
H48 C56 1_555 1_555
C57 N2 1_555 1_555
H49 C57 1_555 1_555
H50 C57 1_555 1_555
H51 C57 1_555 1_555
C58 N2 1_555 1_555
H52 C58 1_555 1_555
H53 C58 1_555 1_555
H54 C58 1_555 1_555
C60 N3 1_555 1_555
C61 N3 1_555 1_555
C63 N4 1_555 1_555
C64 N4 1_555 1_555
Cd1C O14 1_555 1_555
Cd1B O19 1_555 1_555
Cd2B O12 1_555 1_555
Cd2C O15 1_555 1_555
Cd2B_2 O18 1_555 1_555
Cd3B O17 1_555 1_555
Cd3A O20 1_555 1_555
O12B Cd2 1_555 1_555
O14C Cd1 1_555 1_555
O15C Cd2 1_555 1_555
O17B Cd3 1_555 1_555
O18B Cd2 1_555 1_555
O19B Cd1 1_555 1_555
O20C Cd2 1_555 1_555
O20A Cd3 1_555 1_555
O21A Cd3 1_555 1_555
O11 C17 1_555 1_555
O13 C24 1_555 1_555
O20 Cd2C 1_555 1_555
O21 Cd3A 1_555 1_555
C14 C17 1_555 1_555
C15 C16 1_555 1_555
C21 C24 1_555 1_555
C22 C23 1_555 1_555
C29 C30 1_555 1_555
C35 C38 1_555 1_555
C36 C37 1_555 1_555
C43 C44 1_555 1_555
C50 C51 1_555 1_555
Cd2B O20A 1_555 1_555
Cd3B O12B 1_555 1_555
Cd3B O20C 1_555 1_555

#END
