
#######################################################################
#
#                 Cambridge Crystallographic Data Centre
#                                CCDC 
#
#######################################################################
#
# If this CIF has been generated from an entry in the Cambridge 
# Structural Database, then it will include bibliographic, chemical, 
# crystal, experimental, refinement or atomic coordinate data resulting 
# from the CCDC's data processing and validation procedures.
#
#######################################################################

data_NAPNEA
_chemical_formula_moiety         '(C14 H23 Cl1 N2 O6 Si2 Zn1)n'
_symmetry_cell_setting           cubic
_symmetry_space_group_name_H-M   'I a -3 d'
_symmetry_Int_Tables_number      230
_space_group_name_Hall           '-I 4bd 2c 3'
loop_
_symmetry_equiv_pos_site_id
_symmetry_equiv_pos_as_xyz
1 x,y,z
2 1/4-y,3/4+x,1/4+z
3 1/2-x,-y,1/2+z
4 1/4+y,1/4-x,3/4+z
5 x,-y,1/2-z
6 1/4+y,3/4+x,3/4-z
7 1/2-x,y,-z
8 1/4-y,1/4-x,1/4-z
9 z,x,y
10 1/4-x,3/4+z,1/4+y
11 1/2-z,-x,1/2+y
12 1/4+x,1/4-z,3/4+y
13 z,-x,1/2-y
14 1/4+x,3/4+z,3/4-y
15 1/2-z,x,-y
16 1/4-x,1/4-z,1/4-y
17 y,z,x
18 1/4-z,1/4-y,1/4-x
19 3/4-z,1/4+y,3/4+x
20 3/4+z,1/4+y,1/4-x
21 1/4+z,1/4-y,3/4+x
22 y,-z,1/2-x
23 -y,1/2-z,x
24 -y,1/2+z,1/2-x
25 1/2+x,1/2+y,1/2+z
26 3/4-y,1/4+x,3/4+z
27 -x,1/2-y,z
28 3/4+y,3/4-x,1/4+z
29 1/2+x,1/2-y,-z
30 3/4+y,1/4+x,1/4-z
31 -x,1/2+y,1/2-z
32 3/4-y,3/4-x,3/4-z
33 1/2+z,1/2+x,1/2+y
34 3/4-x,1/4+z,3/4+y
35 -z,1/2-x,y
36 3/4+x,3/4-z,1/4+y
37 1/2+z,1/2-x,-y
38 3/4+x,1/4+z,1/4-y
39 -z,1/2+x,1/2-y
40 3/4-x,3/4-z,3/4-y
41 1/2+y,1/2+z,1/2+x
42 3/4-z,3/4-y,3/4-x
43 1/4-z,3/4+y,1/4+x
44 1/4+z,3/4+y,3/4-x
45 3/4+z,3/4-y,1/4+x
46 1/2+y,1/2-z,-x
47 1/2-y,-z,1/2+x
48 1/2-y,z,-x
49 -x,-y,-z
50 3/4+y,1/4-x,3/4-z
51 1/2+x,y,1/2-z
52 3/4-y,3/4+x,1/4-z
53 -x,y,1/2+z
54 3/4-y,1/4-x,1/4+z
55 1/2+x,-y,z
56 3/4+y,3/4+x,3/4+z
57 -z,-x,-y
58 3/4+x,1/4-z,3/4-y
59 1/2+z,x,1/2-y
60 3/4-x,3/4+z,1/4-y
61 -z,x,1/2+y
62 3/4-x,1/4-z,1/4+y
63 1/2+z,-x,y
64 3/4+x,3/4+z,3/4+y
65 -y,-z,-x
66 3/4+z,3/4+y,3/4+x
67 1/4+z,3/4-y,1/4-x
68 1/4-z,3/4-y,3/4+x
69 3/4-z,3/4+y,1/4-x
70 -y,z,1/2+x
71 y,1/2+z,-x
72 y,1/2-z,1/2+x
73 1/2-x,1/2-y,1/2-z
74 1/4+y,3/4-x,1/4-z
75 x,1/2+y,-z
76 1/4-y,1/4+x,3/4-z
77 1/2-x,1/2+y,z
78 1/4-y,3/4-x,3/4+z
79 x,1/2-y,1/2+z
80 1/4+y,1/4+x,1/4+z
81 1/2-z,1/2-x,1/2-y
82 1/4+x,3/4-z,1/4-y
83 z,1/2+x,-y
84 1/4-x,1/4+z,3/4-y
85 1/2-z,1/2+x,y
86 1/4-x,3/4-z,3/4+y
87 z,1/2-x,1/2+y
88 1/4+x,1/4+z,1/4+y
89 1/2-y,1/2-z,1/2-x
90 1/4+z,1/4+y,1/4+x
91 3/4+z,1/4-y,3/4-x
92 3/4-z,1/4-y,1/4+x
93 1/4-z,1/4+y,3/4-x
94 1/2-y,1/2+z,x
95 1/2+y,z,1/2-x
96 1/2+y,-z,x
_cell_length_a                   30.7561(2)
_cell_length_b                   30.7561(2)
_cell_length_c                   30.7561(2)
_cell_angle_alpha                90
_cell_angle_beta                 90
_cell_angle_gamma                90
_cell_volume                     29093.4
loop_
_atom_site_label
_atom_site_type_symbol
_atom_site_fract_x
_atom_site_fract_y
_atom_site_fract_z
Zn1 Zn 0.17146(3) 0.1250 0.07854(3)
O1 O 0.16664(18) 0.08336(18) 0.1250
H1 H 0.1885 0.0615 0.1250
N1 N 0.2279(2) 0.1588(2) 0.0822(2)
C1 C 0.2308(3) 0.1984(3) 0.0636(4)
H2 H 0.2068 0.2091 0.0473
C2 C 0.2669(4) 0.2232(4) 0.0676(5)
H3 H 0.2680 0.2509 0.0540
C3 C 0.3022(3) 0.2084(3) 0.0915(3)
H4 H 0.3275 0.2259 0.0943
C4 C 0.3006(3) 0.1678(3) 0.1112(3)
C5 C 0.2619(3) 0.1446(2) 0.1051(3)
H5 H 0.2597 0.1168 0.1182
C6 C 0.3246(5) 0.1079(5) 0.1857(4)
H6 H 0.3086 0.0841 0.1719
H7 H 0.3485 0.0959 0.2031
H8 H 0.3050 0.1244 0.2045
C7 C 0.3778(5) 0.1897(4) 0.1687(5)
H9 H 0.3895 0.2087 0.1460
H10 H 0.3582 0.2064 0.1875
H11 H 0.4017 0.1779 0.1861
Si1 Si 0.34709(9) 0.14424(8) 0.14314(8)
N1T N 0.3322(2) 0.0912(2) -0.0221(2)
C1T C 0.3136(4) 0.0516(3) -0.0192(3)
H2T H 0.2973 0.0409 -0.0432
C2T C 0.3176(5) 0.0268(4) 0.0169(4)
H3T H 0.3040 -0.0009 0.0180
C3T C 0.3415(3) 0.0416(3) 0.0522(3)
H4T H 0.3443 0.0241 0.0775
C4T C 0.3612(3) 0.0822(3) 0.0506(3)
C5T C 0.3551(3) 0.1054(2) 0.0119(3)
H5T H 0.3682 0.1332 0.0097
C6T C 0.4357(4) 0.1421(5) 0.0746(5)
H6T H 0.4219 0.1659 0.0586
H7T H 0.4531 0.1541 0.0985
H8T H 0.4545 0.1256 0.0550
C7T C 0.4187(5) 0.0603(4) 0.1278(5)
H9T H 0.3960 0.0413 0.1395
H10T H 0.4375 0.0436 0.1082
H11T H 0.4361 0.0721 0.1517
Si1T Si 0.39314(8) 0.10576(8) 0.09709(9)
Zn1F Zn 0.32854(3) 0.1250 -0.07854(3)
Zn1G Zn 0.1250 0.07854(3) 0.17146(3)
O1H O 0.1250 0.16664(18) 0.08336(18)
N1Q N 0.1678(2) 0.0912(2) 0.0221(2)
Cl1 Cl -0.00285(8) 0.1250 0.25285(8)
O2 O 0.0394(3) 0.1091(3) 0.2571(4)
O3 O -0.0314(5) 0.0944(9) 0.2591(7)
O2Q O -0.0071(4) 0.1409(3) 0.2106(3)
O3Q O -0.0091(7) 0.1556(9) 0.2814(5)
O4 O 0.233(2) 0.1935(16) 0.218(2)
loop_
_geom_bond_atom_site_label_1
_geom_bond_atom_site_label_2
_geom_bond_site_symmetry_1
_geom_bond_site_symmetry_2
Zn1 O1 1_555 1_555
O1 H1 1_555 1_555
N1 Zn1 1_555 1_555
C1 N1 1_555 1_555
H2 C1 1_555 1_555
C2 C1 1_555 1_555
H3 C2 1_555 1_555
C3 C2 1_555 1_555
H4 C3 1_555 1_555
C4 C3 1_555 1_555
C5 N1 1_555 1_555
H5 C5 1_555 1_555
C6 H6 1_555 1_555
H7 C6 1_555 1_555
H8 C6 1_555 1_555
C7 H9 1_555 1_555
H10 C7 1_555 1_555
H11 C7 1_555 1_555
Si1 C4 1_555 1_555
Cl1 O2 1_555 1_555
O3 Cl1 1_555 1_555
N1T C1T 1_555 1_555
C1T H2T 1_555 1_555
C2T C1T 1_555 1_555
H3T C2T 1_555 1_555
C3T C2T 1_555 1_555
H4T C3T 1_555 1_555
C4T C3T 1_555 1_555
C5T N1T 1_555 1_555
H5T C5T 1_555 1_555
C6T H6T 1_555 1_555
H7T C6T 1_555 1_555
H8T C6T 1_555 1_555
C7T H9T 1_555 1_555
H10T C7T 1_555 1_555
H11T C7T 1_555 1_555
Si1T Si1 1_555 1_555
Zn1F N1T 1_555 1_555
Zn1G O1 1_555 1_555
O1H Zn1 1_555 1_555
N1Q Zn1 1_555 1_555
O2Q Cl1 1_555 1_555
O3Q Cl1 1_555 1_555
C4 C5 1_555 1_555
C6 Si1 1_555 1_555
C7 Si1 1_555 1_555
C4T C5T 1_555 1_555
C4T Si1T 1_555 1_555
C6T Si1T 1_555 1_555
C7T Si1T 1_555 1_555

#END
