
#######################################################################
#
#                 Cambridge Crystallographic Data Centre
#                                CCDC 
#
#######################################################################
#
# If this CIF has been generated from an entry in the Cambridge 
# Structural Database, then it will include bibliographic, chemical, 
# crystal, experimental, refinement or atomic coordinate data resulting 
# from the CCDC's data processing and validation procedures.
#
#######################################################################

data_FAPXIG
_chemical_formula_moiety         '(C19 H8 O16 V2)n'
_symmetry_cell_setting           tetragonal
_symmetry_space_group_name_H-M   'P 41 2 2'
_symmetry_Int_Tables_number      91
_space_group_name_Hall           'P 4w 2c'
loop_
_symmetry_equiv_pos_site_id
_symmetry_equiv_pos_as_xyz
1 x,y,z
2 -x,y,-z
3 -y,-x,1/4-z
4 -y,x,1/4+z
5 y,-x,3/4+z
6 y,x,3/4-z
7 x,-y,1/2-z
8 -x,-y,1/2+z
_cell_length_a                   15.04185(12)
_cell_length_b                   15.04185(12)
_cell_length_c                   11.96113(19)
_cell_angle_alpha                90
_cell_angle_beta                 90
_cell_angle_gamma                90
_cell_volume                     2706.29
loop_
_atom_site_label
_atom_site_type_symbol
_atom_site_fract_x
_atom_site_fract_y
_atom_site_fract_z
_atom_site_U_iso_or_equiv
_atom_site_thermal_displace_type
V1 V 0.936(9) 0.064(9) 0.125 0.0158 Uiso
O1 O 0.9766(6) -0.000 0.250 0.0158 Uiso
O2 O 0.8761(9) 0.1336(9) 0.2361(5) 0.0158 Uiso
O3 O 0.8439(15) 0.0395(7) 0.3729(6) 0.0158 Uiso
C1 C 0.8388(9) 0.1188(7) 0.3318(4) 0.0158 Uiso
C2 C 0.7937(6) 0.1876(5) 0.3899(2) 0.0158 Uiso
C3 C 0.7495(7) 0.2533(5) 0.3308(2) 0.0158 Uiso
C4 C 0.7938(6) 0.1890(5) 0.5056(2) 0.0158 Uiso
C5 C 0.7055(9) 0.3204(6) 0.3875(2) 0.0158 Uiso
H1 H 0.7494(8) 0.2523(6) 0.2531(2) 0.0158 Uiso
C6 C 0.7497(5) 0.2561(4) 0.56226(14) 0.0158 Uiso
H2 H 0.8234(9) 0.1449(6) 0.5453(3) 0.0158 Uiso
C7 C 0.7056(7) 0.3218(5) 0.5032(2) 0.0158 Uiso
C8 C 0.6602(14) 0.3877(10) 0.3269(4) 0.0158 Uiso
H3 H 0.6760(10) 0.3668(7) 0.5413(3) 0.0158 Uiso
O4 O 0.6427(19) 0.4638(11) 0.3723(6) 0.0158 Uiso
O5 O 0.6352(16) 0.3749(13) 0.2247(5) 0.0158 Uiso
V2 V 0.556(8) 0.556(8) 0.375 0.0158 Uiso
O6 O 0.4878(6) 0.500 0.250 0.0158 Uiso
O2B O 0.8664(9) 0.1239(9) 1.0139(5) 0.0158 Uiso
C1B C 0.8812(7) 0.1612(9) 0.9182(4) 0.0158 Uiso
C2B C 0.8124(5) 0.2063(6) 0.8601(2) 0.0158 Uiso
C3B C 0.7467(5) 0.2505(7) 0.9192(2) 0.0158 Uiso
C4B C 0.8110(5) 0.2062(6) 0.7444(2) 0.0158 Uiso
C5B C 0.6796(6) 0.2945(9) 0.8625(2) 0.0158 Uiso
H1B H 0.7477(6) 0.2506(8) 0.9969(2) 0.0158 Uiso
C6B C 0.7439(4) 0.2503(5) 0.68774(14) 0.0158 Uiso
H2B H 0.8551(6) 0.1766(9) 0.7047(3) 0.0158 Uiso
C7B C 0.6782(5) 0.2944(7) 0.7468(2) 0.0158 Uiso
C8B C 0.6123(10) 0.3398(14) 0.9231(4) 0.0158 Uiso
H3B H 0.6332(7) 0.3240(10) 0.7087(3) 0.0158 Uiso
O4B O 0.5362(11) 0.3573(19) 0.8777(6) 0.0158 Uiso
O5B O 0.6251(13) 0.3648(16) 1.0253(5) 0.0158 Uiso
O3B O 0.9605(7) 0.1561(15) 0.8771(6) 0.0158 Uiso
V1_2 V 0.936(9) 0.064(9) 1.125 0.0158 Uiso
V1A V 1.064(9) 0.064(9) 0.875 0.0158 Uiso
V1C V 0.936(9) -0.064(9) 0.375 0.0158 Uiso
O1B O 1.000 0.0234(6) 0.000 0.0158 Uiso
O2B_2 O 0.8664(9) 0.1239(9) 0.0139(5) 0.0158 Uiso
O3D O 1.0395(7) 0.1561(15) 0.1229(6) 0.0158 Uiso
O3F O 0.8439(15) -0.0395(7) 0.1271(6) 0.0158 Uiso
O4E O 0.4638(11) 0.6427(19) 0.3777(6) 0.0158 Uiso
O5C O 0.6251(13) 0.6352(16) 0.4747(5) 0.0158 Uiso
O5F O 0.6352(16) 0.6251(13) 0.2753(5) 0.0158 Uiso
V2B V 0.444(8) 0.444(8) 0.875 0.0158 Uiso
V2D V 0.556(8) 0.444(8) 0.125 0.0158 Uiso
V2D_2 V 0.556(8) 0.444(8) 1.125 0.0158 Uiso
O6C O 0.500 0.4878(6) 0.500 0.0158 Uiso
C9 C 0.8358(8) 0.500 0.750 0.0887 Uiso
O7 O 0.8354(8) 0.5758(2) 0.7678(14) 0.0887 Uiso
O7F O 0.8354(8) 0.4242(2) 0.7322(14) 0.0887 Uiso
C10 C 0.9906(6) 0.3243(10) 0.2122(10) 0.0887 Uiso
O8 O 1.0043(7) 0.2582(11) 0.2591(14) 0.0887 Uiso
O9 O 0.9770(7) 0.3904(11) 0.1654(14) 0.0887 Uiso
C11 C 0.5517(4) 0.8096(6) 0.2777(13) 0.0887 Uiso
O10 O 0.5481(5) 0.8334(11) 0.3699(13) 0.0887 Uiso
O11 O 0.5553(5) 0.7858(11) 0.1856(13) 0.0887 Uiso
loop_
_geom_bond_atom_site_label_1
_geom_bond_atom_site_label_2
_geom_bond_site_symmetry_1
_geom_bond_site_symmetry_2
V1 O1 1_555 1_555
O1 V1C 1_555 1_555
O2 V1 1_555 1_555
O3 C1 1_555 1_555
C1 O2 1_555 1_555
C2 C1 1_555 1_555
C3 C2 1_555 1_555
C4 C2 1_555 1_555
C5 C3 1_555 1_555
H1 C3 1_555 1_555
C6 C4 1_555 1_555
H2 C4 1_555 1_555
C7 C5 1_555 1_555
C8 C5 1_555 1_555
H3 C7 1_555 1_555
O4 C8 1_555 1_555
O5 C8 1_555 1_555
V2 O4 1_555 1_555
O6 V2 1_555 1_555
C9 O7 1_555 1_555
C10 O8 1_555 1_555
O9 C10 1_555 1_555
C11 O10 1_555 1_555
O11 C11 1_555 1_555
O2B C1B 1_555 1_555
C1B C2B 1_555 1_555
C2B C3B 1_555 1_555
C3B C5B 1_555 1_555
C4B C2B 1_555 1_555
C5B C7B 1_555 1_555
H1B C3B 1_555 1_555
C6B C6 1_555 1_555
H2B C4B 1_555 1_555
C7B C6B 1_555 1_555
C8B C5B 1_555 1_555
H3B C7B 1_555 1_555
O4B C8B 1_555 1_555
O5B C8B 1_555 1_555
O3B C1B 1_555 1_555
V1_2 O2B 1_555 1_555
V1A O3B 1_555 1_555
V1C O3 1_555 1_555
O1B V1 1_555 1_555
O2B_2 V1 1_555 1_555
O3D V1 1_555 1_555
O3F V1 1_555 1_555
O4E V2 1_555 1_555
O5C V2 1_555 1_555
O5F V2 1_555 1_555
V2B O4B 1_555 1_555
V2D O5 1_555 1_555
V2D_2 O5B 1_555 1_555
O6C V2 1_555 1_555
O7F C9 1_555 1_555
C6 C7 1_555 1_555
O6 V2D 1_555 1_555
C4B C6B 1_555 1_555

#END
