
#######################################################################
#
#                 Cambridge Crystallographic Data Centre
#                                CCDC 
#
#######################################################################
#
# If this CIF has been generated from an entry in the Cambridge 
# Structural Database, then it will include bibliographic, chemical, 
# crystal, experimental, refinement or atomic coordinate data resulting 
# from the CCDC's data processing and validation procedures.
#
#######################################################################

data_FAPXEC
_chemical_formula_moiety         '(C17 H8 O12 V2)n'
_symmetry_cell_setting           tetragonal
_symmetry_space_group_name_H-M   'I 41 2 2'
_symmetry_Int_Tables_number      98
_space_group_name_Hall           'I 4bw 2bw'
loop_
_symmetry_equiv_pos_site_id
_symmetry_equiv_pos_as_xyz
1 x,y,z
2 -y,1/2+x,1/4+z
3 1/2-x,1/2-y,1/2+z
4 1/2+y,-x,3/4+z
5 x,1/2-y,1/4-z
6 1/2+y,1/2+x,1/2-z
7 1/2-x,y,3/4-z
8 -y,-x,-z
9 1/2+x,1/2+y,1/2+z
10 1/2-y,x,3/4+z
11 -x,-y,z
12 y,1/2-x,1/4+z
13 1/2+x,-y,3/4-z
14 y,x,-z
15 -x,1/2+y,1/4-z
16 1/2-y,1/2-x,1/2-z
_cell_length_a                   15.16059(14)
_cell_length_b                   15.16059(14)
_cell_length_c                   12.0474(2)
_cell_angle_alpha                90
_cell_angle_beta                 90
_cell_angle_gamma                90
_cell_volume                     2769.02
loop_
_atom_site_label
_atom_site_type_symbol
_atom_site_fract_x
_atom_site_fract_y
_atom_site_fract_z
_atom_site_U_iso_or_equiv
_atom_site_thermal_displace_type
V1 V 0.68671 0.31329 0.50000 0.0100 Uiso
O1 O 0.7514(3) 0.25000 0.62500 0.0162 Uiso
O2 O 0.6190(5) 0.3813(6) 0.6078(4) 0.0162 Uiso
O3 O 0.5968(6) 0.2883(4) 0.7470(5) 0.0162 Uiso
C1 C 0.5882(4) 0.3632(3) 0.7024(3) 0.0122 Uiso
C2 C 0.54092(14) 0.43124(11) 0.7625(3) 0.0122 Uiso
C3 C 0.50000 0.50000 0.7044(3) 0.0122 Uiso
C4 C 0.54092(14) 0.43124(11) 0.8788(2) 0.0122 Uiso
C5 C 0.50000 0.50000 0.9369(2) 0.0122 Uiso
H1 H 0.8226(8) 0.25000 0.62500 0.0162 Uiso
H2 H 0.50000 0.50000 0.6181(5) 0.0122 Uiso
H3 H 0.5713(3) 0.3802(3) 0.9219(3) 0.0122 Uiso
O2G O 0.6187(6) 0.3810(5) 1.3922(4) 0.0162 Uiso
O3G O 0.7117(4) 0.4032(6) 1.2530(5) 0.0162 Uiso
C1G C 0.6368(3) 0.4118(4) 1.2976(3) 0.0122 Uiso
C2G C 0.56876(11) 0.45908(14) 1.2375(3) 0.0122 Uiso
C3G C 0.50000 0.50000 1.2956(3) 0.0122 Uiso
C4G C 0.56876(11) 0.45908(14) 1.1212(2) 0.0122 Uiso
C5G C 0.50000 0.50000 1.0631(2) 0.0122 Uiso
H2G H 0.50000 0.50000 1.3819(5) 0.0122 Uiso
H3G H 0.6198(3) 0.4287(3) 1.0781(3) 0.0122 Uiso
O2J O 0.3810(5) 0.6187(6) 0.6078(4) 0.0162 Uiso
O3J O 0.4032(6) 0.7117(4) 0.7470(5) 0.0162 Uiso
C1J C 0.4118(4) 0.6368(3) 0.7024(3) 0.0122 Uiso
C2J C 0.45908(14) 0.56876(11) 0.7625(3) 0.0122 Uiso
C4J C 0.45908(14) 0.56876(11) 0.8788(2) 0.0122 Uiso
H3J H 0.4287(3) 0.6198(3) 0.9219(3) 0.0122 Uiso
O2M O 0.3813(6) 0.6190(5) 1.3922(4) 0.0162 Uiso
O3M O 0.2883(4) 0.5968(6) 1.2530(5) 0.0162 Uiso
C1M C 0.3632(3) 0.5882(4) 1.2976(3) 0.0122 Uiso
C2M C 0.43124(11) 0.54092(14) 1.2375(3) 0.0122 Uiso
C4M C 0.43124(11) 0.54092(14) 1.1212(2) 0.0122 Uiso
H3M H 0.3802(3) 0.5713(3) 1.0781(3) 0.0122 Uiso
V1J V 0.31329 0.68671 0.50000 0.0100 Uiso
O1C O 0.75000 0.2486(3) 0.37500 0.0162 Uiso
H1C H 0.75000 0.1774(8) 0.37500 0.0162 Uiso
V1_2 V 0.68671 0.31329 1.50000 0.0100 Uiso
V1A V 0.68671 0.18671 0.75000 0.0100 Uiso
V1C V 0.81329 0.31329 0.25000 0.0100 Uiso
V1C_2 V 0.81329 0.31329 1.25000 0.0100 Uiso
V1I V 0.18671 0.68671 1.25000 0.0100 Uiso
V1J_2 V 0.31329 0.68671 1.50000 0.0100 Uiso
V1K V 0.31329 0.81329 0.75000 0.0100 Uiso
O1I O 0.25000 0.7514(3) 0.37500 0.0162 Uiso
O1J O 0.2486(3) 0.75000 0.62500 0.0162 Uiso
O2G_2 O 0.6187(6) 0.3810(5) 0.3922(4) 0.0162 Uiso
O2M_2 O 0.3813(6) 0.6190(5) 0.3922(4) 0.0162 Uiso
O3C O 0.7883(4) 0.4032(6) 0.4970(5) 0.0162 Uiso
O3D O 0.5968(6) 0.2117(4) 0.5030(5) 0.0162 Uiso
O3I O 0.2117(4) 0.5968(6) 0.4970(5) 0.0162 Uiso
O3N O 0.4032(6) 0.7883(4) 0.5030(5) 0.0162 Uiso
O4 O 0.7290(5) 0.5819(6) 0.6163(6) 0.0800 Uiso
O5 O 0.6848(5) 0.5754(6) 0.4687(6) 0.0800 Uiso
C6 C 0.7069(2) 0.5787(3) 0.5425(6) 0.0800 Uiso
loop_
_geom_bond_atom_site_label_1
_geom_bond_atom_site_label_2
_geom_bond_site_symmetry_1
_geom_bond_site_symmetry_2
V1 O1 1_555 1_555
O1 H1 1_555 1_555
O2 V1 1_555 1_555
O3 C1 1_555 1_555
C1 O2 1_555 1_555
C2 C1 1_555 1_555
C3 C2 1_555 1_555
C4 C2 1_555 1_555
C5 C4 1_555 1_555
H2 C3 1_555 1_555
H3 C4 1_555 1_555
O4 C6 1_555 1_555
O5 C6 1_555 1_555
O2G C1G 1_555 1_555
O3G C1G 1_555 1_555
C1G C2G 1_555 1_555
C2G C3G 1_555 1_555
C3G H2G 1_555 1_555
C4G C2G 1_555 1_555
C5G C5 1_555 1_555
H3G C4G 1_555 1_555
O2J C1J 1_555 1_555
O3J C1J 1_555 1_555
C1J C2J 1_555 1_555
C2J C3 1_555 1_555
C4J C5 1_555 1_555
H3J C4J 1_555 1_555
O2M C1M 1_555 1_555
O3M C1M 1_555 1_555
C1M C2M 1_555 1_555
C2M C3G 1_555 1_555
C4M C5G 1_555 1_555
H3M C4M 1_555 1_555
V1J O2J 1_555 1_555
O1C V1 1_555 1_555
H1C O1C 1_555 1_555
V1_2 O2G 1_555 1_555
V1A O1 1_555 1_555
V1C O1C 1_555 1_555
V1C_2 O3G 1_555 1_555
V1I O3M 1_555 1_555
V1J_2 O2M 1_555 1_555
V1K O3J 1_555 1_555
O1I V1J 1_555 1_555
O1J V1J 1_555 1_555
O2G_2 V1 1_555 1_555
O2M_2 V1J 1_555 1_555
O3C V1 1_555 1_555
O3D V1 1_555 1_555
O3I V1J 1_555 1_555
O3N V1J 1_555 1_555
O3 V1A 1_555 1_555
C4G C5G 1_555 1_555
C2J C4J 1_555 1_555
C2M C4M 1_555 1_555
V1K O1J 1_555 1_555

#END
