
#######################################################################
#
#                 Cambridge Crystallographic Data Centre
#                                CCDC 
#
#######################################################################
#
# If this CIF has been generated from an entry in the Cambridge 
# Structural Database, then it will include bibliographic, chemical, 
# crystal, experimental, refinement or atomic coordinate data resulting 
# from the CCDC's data processing and validation procedures.
#
#######################################################################

data_FAPXOM
_chemical_formula_moiety         '(C18 H8 O14 V2)n'
_symmetry_cell_setting           tetragonal
_symmetry_space_group_name_H-M   'P 41 2 2'
_symmetry_Int_Tables_number      91
_space_group_name_Hall           'P 4w 2c'
loop_
_symmetry_equiv_pos_site_id
_symmetry_equiv_pos_as_xyz
1 x,y,z
2 -x,y,-z
3 -y,-x,1/4-z
4 -y,x,1/4+z
5 y,-x,3/4+z
6 y,x,3/4-z
7 x,-y,1/2-z
8 -x,-y,1/2+z
_cell_length_a                   15.03934(12)
_cell_length_b                   15.03934(12)
_cell_length_c                   11.9587(2)
_cell_angle_alpha                90
_cell_angle_beta                 90
_cell_angle_gamma                90
_cell_volume                     2704.84
loop_
_atom_site_label
_atom_site_type_symbol
_atom_site_fract_x
_atom_site_fract_y
_atom_site_fract_z
V1 V 0.937(10) 0.063(10) 0.125
O1 O 0.9818(6) 0.000 0.250
C1 C 0.7511(4) 0.2551(4) 0.56201(15)
C2 C 0.7079(7) 0.3213(6) 0.5033(2)
C3 C 0.7093(9) 0.3212(7) 0.3878(3)
C4 C 0.7539(7) 0.2548(6) 0.3310(2)
C5 C 0.7971(6) 0.1885(5) 0.3897(3)
C6 C 0.7957(6) 0.1887(5) 0.5052(2)
H1 H 0.6778(10) 0.3660(7) 0.5415(3)
H2 H 0.7548(8) 0.2547(7) 0.2532(2)
H3 H 0.8248(9) 0.1440(7) 0.5448(3)
C7 C 0.6654(15) 0.3884(10) 0.3282(4)
O2 O 0.650(2) 0.4662(11) 0.3716(6)
O3 O 0.6379(17) 0.3770(14) 0.2261(5)
C8 C 0.8423(9) 0.1211(7) 0.3321(4)
O4 O 0.8770(9) 0.1340(9) 0.2338(5)
O5 O 0.8523(15) 0.0418(8) 0.3736(7)
V2 V 0.557(9) 0.557(9) 0.375
O6 O 0.4901(6) 0.500 0.250
C1B C 0.7449(4) 0.2489(4) 0.68799(15)
C2B C 0.6787(6) 0.2921(7) 0.7467(2)
C3B C 0.6788(7) 0.2907(9) 0.8622(3)
C4B C 0.7452(6) 0.2461(7) 0.9190(2)
C5B C 0.8115(5) 0.2029(6) 0.8603(3)
C6B C 0.8113(5) 0.2043(6) 0.7448(2)
H1B H 0.6340(7) 0.3222(10) 0.7085(3)
H2B H 0.7453(7) 0.2452(8) 0.9968(2)
H3B H 0.8560(7) 0.1752(9) 0.7052(3)
C7B C 0.6116(10) 0.3346(15) 0.9218(4)
O2B O 0.5338(11) 0.350(2) 0.8784(6)
O3B O 0.6230(14) 0.3621(17) 1.0239(5)
C8B C 0.8789(7) 0.1577(9) 0.9179(4)
O4B O 0.8660(9) 0.1230(9) 1.0162(5)
O5B O 0.9582(8) 0.1477(15) 0.8764(7)
V1_2 V 0.937(10) 0.063(10) 1.125
V1A V 1.063(10) 0.063(10) 0.875
V1C V 0.937(10) -0.063(10) 0.375
O1B O 1.000 0.0182(6) 0.000
O2E O 0.4662(11) 0.650(2) 0.3784(6)
O3C O 0.6230(14) 0.6379(17) 0.4761(5)
O3F O 0.6379(17) 0.6230(14) 0.2739(5)
O4B_2 O 0.8660(9) 0.1230(9) 0.0162(5)
O5D O 1.0418(8) 0.1477(15) 0.1236(7)
O5F O 0.8523(15) -0.0418(8) 0.1264(7)
V2B V 0.443(9) 0.443(9) 0.875
V2D V 0.557(9) 0.443(9) 0.125
V2D_2 V 0.557(9) 0.443(9) 1.125
O6C O 0.500 0.4901(6) 0.500
C9 C 0.9905(5) 0.3100(9) 0.2147(9)
O7 O 0.9996(6) 0.2458(10) 0.2673(13)
O8 O 0.9814(6) 0.3742(10) 0.1621(13)
C10 C 0.5542(4) 0.8142(6) 0.2761(11)
O9 O 0.5502(4) 0.8413(10) 0.3668(12)
O10 O 0.5582(4) 0.7871(10) 0.1854(12)
loop_
_geom_bond_atom_site_label_1
_geom_bond_atom_site_label_2
_geom_bond_site_symmetry_1
_geom_bond_site_symmetry_2
V1 O1 1_555 1_555
O1 V1C 1_555 1_555
C1 C2 1_555 1_555
C2 C3 1_555 1_555
C3 C4 1_555 1_555
C4 C5 1_555 1_555
C5 C6 1_555 1_555
C6 C1 1_555 1_555
H1 C2 1_555 1_555
H2 C4 1_555 1_555
H3 C6 1_555 1_555
C7 C3 1_555 1_555
O2 C7 1_555 1_555
O3 C7 1_555 1_555
C8 C5 1_555 1_555
O4 V1 1_555 1_555
O5 C8 1_555 1_555
V2 O2 1_555 1_555
O6 V2 1_555 1_555
C9 O7 1_555 1_555
O8 C9 1_555 1_555
C10 O9 1_555 1_555
O10 C10 1_555 1_555
C1B C1 1_555 1_555
C2B C1B 1_555 1_555
C3B C2B 1_555 1_555
C4B C3B 1_555 1_555
C5B C4B 1_555 1_555
C6B C1B 1_555 1_555
H1B C2B 1_555 1_555
H2B C4B 1_555 1_555
H3B C6B 1_555 1_555
C7B C3B 1_555 1_555
O2B C7B 1_555 1_555
O3B C7B 1_555 1_555
C8B C5B 1_555 1_555
O4B C8B 1_555 1_555
O5B C8B 1_555 1_555
V1_2 O4B 1_555 1_555
V1A O5B 1_555 1_555
V1C O5 1_555 1_555
O1B V1 1_555 1_555
O2E V2 1_555 1_555
O3C V2 1_555 1_555
O3F V2 1_555 1_555
O4B_2 V1 1_555 1_555
O5D V1 1_555 1_555
O5F V1 1_555 1_555
V2B O2B 1_555 1_555
V2D O3 1_555 1_555
V2D_2 O3B 1_555 1_555
O6C V2 1_555 1_555
C8 O4 1_555 1_555
O6 V2D 1_555 1_555
C5B C6B 1_555 1_555

#END
