
#######################################################################
#
#                 Cambridge Crystallographic Data Centre
#                                CCDC 
#
#######################################################################
#
# If this CIF has been generated from an entry in the Cambridge 
# Structural Database, then it will include bibliographic, chemical, 
# crystal, experimental, refinement or atomic coordinate data resulting 
# from the CCDC's data processing and validation procedures.
#
#######################################################################

data_FAQLER
_chemical_formula_moiety         '(C16 H8 O10 V2)n'
_symmetry_cell_setting           tetragonal
_symmetry_space_group_name_H-M   'I 41 2 2'
_symmetry_Int_Tables_number      98
_space_group_name_Hall           'I 4bw 2bw'
loop_
_symmetry_equiv_pos_site_id
_symmetry_equiv_pos_as_xyz
1 x,y,z
2 1/2-x,1/2-y,1/2+z
3 -y,1/2+x,1/4+z
4 1/2+y,-x,3/4+z
5 1/2-x,y,3/4-z
6 x,1/2-y,1/4-z
7 1/2+y,1/2+x,1/2-z
8 -y,-x,-z
9 1/2+x,1/2+y,1/2+z
10 -x,-y,z
11 1/2-y,x,3/4+z
12 y,1/2-x,1/4+z
13 -x,1/2+y,1/4-z
14 1/2+x,-y,3/4-z
15 y,x,-z
16 1/2-y,1/2-x,1/2-z
_cell_length_a                   15.1171(12)
_cell_length_b                   15.1171(12)
_cell_length_c                   12.0833(10)
_cell_angle_alpha                90
_cell_angle_beta                 90
_cell_angle_gamma                90
_cell_volume                     2761.36
loop_
_atom_site_label
_atom_site_type_symbol
_atom_site_fract_x
_atom_site_fract_y
_atom_site_fract_z
V1 V 0.69028(2) 0.30972(2) 0.0000
O1 O 0.74974(13) 0.2500 0.1250
H1 H 0.7996(14) 0.2500 0.1250
O2 O 0.60174(9) 0.21095(8) -0.00648(13)
O3 O 0.61643(11) 0.12237(10) 0.14102(11)
C1 C 0.5000 0.0000 0.04391(19)
H2 H 0.5000 -0.0000 0.1209
C2 C 0.5000 0.0000 -0.1886(2)
C3 C 0.54062(13) 0.06814(12) -0.01426(16)
C4 C 0.58938(13) 0.13989(13) 0.04527(15)
C5 C 0.53810(14) 0.06907(14) -0.12916(17)
H3 H 0.5623 0.1168 -0.1671
O2F O 0.71095(8) 0.10174(9) -0.49352(13)
C1F C 0.5000 0.0000 -0.54391(19)
H2F H 0.5000 0.0000 -0.6209
C2F C 0.5000 0.0000 -0.3114(2)
C3F C 0.56814(12) 0.04062(13) -0.48574(16)
C4F C 0.63989(13) 0.08938(13) -0.54527(15)
C5F C 0.56907(14) 0.03810(14) -0.37084(17)
H3F H 0.6168 0.0623 -0.3329
O3F O 0.62237(10) 0.11643(11) -0.64102(11)
O2I O 0.39826(9) -0.21095(8) -0.00648(13)
C3I C 0.45938(13) -0.06814(12) -0.01426(16)
C4I C 0.41062(13) -0.13989(13) 0.04527(15)
C5I C 0.46190(14) -0.06907(14) -0.12916(17)
H3I H 0.4377 -0.1168 -0.1671
O3I O 0.38357(11) -0.12237(10) 0.14102(11)
O2O O 0.28905(8) -0.10174(9) -0.49352(13)
C3O C 0.43186(12) -0.04062(13) -0.48574(16)
C4O C 0.36011(13) -0.08938(13) -0.54527(15)
C5O C 0.43093(14) -0.03810(14) -0.37084(17)
H3O H 0.3832 -0.0623 -0.3329
O3O O 0.37763(10) -0.11643(11) -0.64102(11)
V1B V 0.69028(2) 0.19028(2) -0.7500
O1_2 O 0.74974(13) 0.2500 -0.8750
H1_2 H 0.7996(14) 0.2500 -0.8750
V1_2 V 0.69028(2) 0.30972(2) -1.0000
V1A V 0.80972(2) 0.19028(2) -0.5000
V1B_2 V 0.69028(2) 0.19028(2) 0.2500
V1H V 0.19028(2) -0.19028(2) -0.5000
V1I V 0.30972(2) -0.30972(2) 0.0000
V1K V 0.30972(2) -0.19028(2) -0.7500
V1K_2 V 0.30972(2) -0.19028(2) 0.2500
O1B O 0.7500 0.24974(13) -0.6250
O1C O 0.7500 0.25026(13) -0.1250
O2B O 0.78905(8) 0.10174(9) -0.75648(13)
O2E O 0.60174(9) 0.28905(8) -0.74352(13)
O2G O 0.78905(8) 0.39826(9) 0.00648(13)
O3_2 O 0.61643(11) 0.12237(10) -0.85898(11)
O3C O 0.62237(10) 0.38357(11) -0.10898(11)
O3E O 0.61643(11) 0.37763(10) 0.10898(11)
loop_
_geom_bond_atom_site_label_1
_geom_bond_atom_site_label_2
_geom_bond_site_symmetry_1
_geom_bond_site_symmetry_2
V1 O1 1_555 1_555
O1 H1 1_555 1_555
O2 V1 1_555 1_555
O3 C4 1_555 1_555
C1 H2 1_555 1_555
C2 C5 1_555 1_555
C3 C1 1_555 1_555
C4 O2 1_555 1_555
C5 C3 1_555 1_555
H3 C5 1_555 1_555
O2F C4F 1_555 1_555
C1F H2F 1_555 1_555
C2F C2 1_555 1_555
C3F C1F 1_555 1_555
C4F C3F 1_555 1_555
C5F C2F 1_555 1_555
H3F C5F 1_555 1_555
O3F C4F 1_555 1_555
O2I C4I 1_555 1_555
C3I C1 1_555 1_555
C4I C3I 1_555 1_555
C5I C2 1_555 1_555
H3I C5I 1_555 1_555
O3I C4I 1_555 1_555
O2O C4O 1_555 1_555
C3O C1F 1_555 1_555
C4O C3O 1_555 1_555
C5O C2F 1_555 1_555
H3O C5O 1_555 1_555
O3O C4O 1_555 1_555
V1B O3F 1_555 1_555
O1_2 V1B 1_555 1_555
H1_2 O1_2 1_555 1_555
V1_2 O1_2 1_555 1_555
V1A O2F 1_555 1_555
V1B_2 O1 1_555 1_555
V1H O2O 1_555 1_555
V1I O2I 1_555 1_555
V1K O3O 1_555 1_555
V1K_2 O3I 1_555 1_555
O1B V1B 1_555 1_555
O1C V1 1_555 1_555
O2B V1B 1_555 1_555
O2E V1B 1_555 1_555
O2G V1 1_555 1_555
O3_2 V1B 1_555 1_555
O3C V1 1_555 1_555
O3E V1 1_555 1_555
O3 V1B_2 1_555 1_555
C3 C4 1_555 1_555
C3F C5F 1_555 1_555
C3I C5I 1_555 1_555
C3O C5O 1_555 1_555
V1A O1B 1_555 1_555

#END
