
#######################################################################
#
#                 Cambridge Crystallographic Data Centre
#                                CCDC 
#
#######################################################################
#
# If this CIF has been generated from an entry in the Cambridge 
# Structural Database, then it will include bibliographic, chemical, 
# crystal, experimental, refinement or atomic coordinate data resulting 
# from the CCDC's data processing and validation procedures.
#
#######################################################################

data_FAQLIV
_chemical_formula_moiety         '(C16 H6 O10 V2)n'
_symmetry_cell_setting           tetragonal
_symmetry_space_group_name_H-M   'I 41 2 2'
_symmetry_Int_Tables_number      98
_space_group_name_Hall           'I 4bw 2bw'
loop_
_symmetry_equiv_pos_site_id
_symmetry_equiv_pos_as_xyz
1 x,y,z
2 1/2-x,1/2-y,1/2+z
3 -y,1/2+x,1/4+z
4 1/2+y,-x,3/4+z
5 1/2-x,y,3/4-z
6 x,1/2-y,1/4-z
7 1/2+y,1/2+x,1/2-z
8 -y,-x,-z
9 1/2+x,1/2+y,1/2+z
10 -x,-y,z
11 1/2-y,x,3/4+z
12 y,1/2-x,1/4+z
13 -x,1/2+y,1/4-z
14 1/2+x,-y,3/4-z
15 y,x,-z
16 1/2-y,1/2-x,1/2-z
_cell_length_a                   15.0241(10)
_cell_length_b                   15.0241(10)
_cell_length_c                   11.9360(11)
_cell_angle_alpha                90
_cell_angle_beta                 90
_cell_angle_gamma                90
_cell_volume                     2694.24
loop_
_atom_site_label
_atom_site_type_symbol
_atom_site_fract_x
_atom_site_fract_y
_atom_site_fract_z
V1 V 0.19635(4) 0.19635(4) 1.0000
O1 O 0.10244(15) 0.28789(15) 0.99411(19)
O2 O 0.2434(2) 0.2500 1.1250
O3 O 0.12136(17) 0.37751(17) 1.14330(16)
C1 C 0.0000 0.5000 1.0474(3)
H1 H 0.0000 0.5000 1.1253
C2 C 0.0916(2) 0.3598(2) 1.0467(2)
C3 C 0.0000 0.5000 0.8125(3)
C4 C 0.0414(2) 0.4320(2) 0.9884(3)
C5 C 0.0392(3) 0.4309(3) 0.8717(3)
H2 H 0.0642 0.3833 0.8331
O1F O -0.21211(15) 0.60244(15) 0.50589(19)
C1F C -0.0000 0.5000 0.4526(3)
H1F H -0.0000 0.5000 0.3747
C2F C -0.1402(2) 0.5916(2) 0.4533(2)
C3F C 0.0000 0.5000 0.6875(3)
C4F C -0.0680(2) 0.5414(2) 0.5116(3)
C5F C -0.0691(3) 0.5392(3) 0.6283(3)
H2F H -0.1167 0.5642 0.6669
O3F O -0.12249(17) 0.62136(17) 0.35670(16)
O1I O -0.10244(15) 0.71211(15) 0.99411(19)
C2I C -0.0916(2) 0.6402(2) 1.0467(2)
C4I C -0.0414(2) 0.5680(2) 0.9884(3)
C5I C -0.0392(3) 0.5691(3) 0.8717(3)
H2I H -0.0642 0.6167 0.8331
O3I O -0.12136(17) 0.62249(17) 1.14330(16)
O1O O 0.21211(15) 0.39756(15) 0.50589(19)
C2O C 0.1402(2) 0.4084(2) 0.4533(2)
C4O C 0.0680(2) 0.4586(2) 0.5116(3)
C5O C 0.0691(3) 0.4608(3) 0.6283(3)
H2O H 0.1167 0.4358 0.6669
O3O O 0.12249(17) 0.37864(17) 0.35670(16)
V1E V 0.19635(4) 0.30365(4) 0.2500
O2_2 O 0.2434(2) 0.2500 0.1250
V1_2 V 0.19635(4) 0.19635(4) 0.0000
V1A V 0.30365(4) 0.30365(4) 0.5000
V1B V -0.19635(4) 0.69635(4) 0.2500
V1B_2 V -0.19635(4) 0.69635(4) 1.2500
V1E_2 V 0.19635(4) 0.30365(4) 1.2500
V1F V -0.30365(4) 0.69635(4) 0.5000
V1G V -0.19635(4) 0.80365(4) 1.0000
O1E O 0.10244(15) 0.21211(15) 0.25589(19)
O1K O 0.28789(15) 0.39756(15) 0.24411(19)
O1N O 0.28789(15) 0.10244(15) 1.00589(19)
O2J O 0.2500 0.2434(2) 0.8750
O2K O 0.2500 0.2566(2) 0.3750
O3_2 O 0.12136(17) 0.37751(17) 0.14330(16)
O3E O 0.12136(17) 0.12249(17) 1.10670(16)
O3J O 0.12249(17) 0.12136(17) 0.89330(16)
loop_
_geom_bond_atom_site_label_1
_geom_bond_atom_site_label_2
_geom_bond_site_symmetry_1
_geom_bond_site_symmetry_2
V1 O1 1_555 1_555
O1 C2 1_555 1_555
O2 V1 1_555 1_555
O3 C2 1_555 1_555
C1 H1 1_555 1_555
C2 C4 1_555 1_555
C3 C5 1_555 1_555
C4 C1 1_555 1_555
C5 C4 1_555 1_555
H2 C5 1_555 1_555
O1F C2F 1_555 1_555
C1F H1F 1_555 1_555
C2F C4F 1_555 1_555
C3F C3 1_555 1_555
C4F C1F 1_555 1_555
C5F C3F 1_555 1_555
H2F C5F 1_555 1_555
O3F C2F 1_555 1_555
O1I C2I 1_555 1_555
C2I C4I 1_555 1_555
C4I C1 1_555 1_555
C5I C3 1_555 1_555
H2I C5I 1_555 1_555
O3I C2I 1_555 1_555
O1O C2O 1_555 1_555
C2O C4O 1_555 1_555
C4O C1F 1_555 1_555
C5O C3F 1_555 1_555
H2O C5O 1_555 1_555
O3O C2O 1_555 1_555
V1E O3O 1_555 1_555
O2_2 V1E 1_555 1_555
V1_2 O2_2 1_555 1_555
V1A O1O 1_555 1_555
V1B O3F 1_555 1_555
V1B_2 O3I 1_555 1_555
V1E_2 O2 1_555 1_555
V1F O1F 1_555 1_555
V1G O1I 1_555 1_555
O1E V1E 1_555 1_555
O1K V1E 1_555 1_555
O1N V1 1_555 1_555
O2J V1 1_555 1_555
O2K V1E 1_555 1_555
O3_2 V1E 1_555 1_555
O3E V1 1_555 1_555
O3J V1 1_555 1_555
O3 V1E_2 1_555 1_555
C4F C5F 1_555 1_555
C4I C5I 1_555 1_555
C4O C5O 1_555 1_555
V1A O2K 1_555 1_555

#END
