
#######################################################################
#
#                 Cambridge Crystallographic Data Centre
#                                CCDC 
#
#######################################################################
#
# If this CIF has been generated from an entry in the Cambridge 
# Structural Database, then it will include bibliographic, chemical, 
# crystal, experimental, refinement or atomic coordinate data resulting 
# from the CCDC's data processing and validation procedures.
#
#######################################################################

data_SOXDEQ
_chemical_formula_moiety         '(C30 H40 Co3 N12 O32 Tb2)n'
_symmetry_cell_setting           monoclinic
_symmetry_space_group_name_H-M   'C 2/m'
_symmetry_Int_Tables_number      12
_space_group_name_Hall           '-C 2y'
loop_
_symmetry_equiv_pos_site_id
_symmetry_equiv_pos_as_xyz
1 x,y,z
2 -x,y,-z
3 1/2+x,1/2+y,z
4 1/2-x,1/2+y,-z
5 -x,-y,-z
6 x,-y,z
7 1/2-x,1/2-y,-z
8 1/2+x,1/2-y,z
_cell_length_a                   17.3855(15)
_cell_length_b                   17.8778(17)
_cell_length_c                   10.7117(8)
_cell_angle_alpha                90
_cell_angle_beta                 125.437(6)
_cell_angle_gamma                90
_cell_volume                     2712.6
loop_
_atom_site_label
_atom_site_type_symbol
_atom_site_fract_x
_atom_site_fract_y
_atom_site_fract_z
Tb1 Tb 0.5000 0.29118(4) 0.0000
Co1 Co 0.2500 0.2500 0.0000
Co2 Co 0.5000 0.5000 0.0000
O1 O 0.4547(4) 0.4080(3) 0.0615(7)
O2 O 0.5236(4) 0.7388(4) 0.2419(7)
O3 O 0.7489(4) 0.6959(4) 0.8308(7)
O4 O 0.3472(4) 0.3272(4) 0.0127(6)
O5 O 0.6266(6) 0.5000 0.2084(10)
O6 O 0.6364(4) 0.6708(4) 0.2689(7)
O7 O 0.9029(4) 0.6896(4) 0.9264(7)
O8 O 0.3628(4) 0.1863(4) 0.1744(7)
H1 H 0.3585 0.1794 0.2514
H2 H 0.4170 0.2086 0.2105
N1 N 0.6989(6) 0.5000 0.5788(10)
N2 N 0.5545(4) 0.5670(4) 0.4064(7)
N3 N 0.6937(5) 0.6284(4) 0.5656(8)
N4 N 0.4203(6) 0.5000 0.2377(11)
C1 C 0.5987(6) 0.7015(5) 0.3251(10)
C2 C 0.6484(5) 0.5624(5) 0.5167(9)
C3 C 0.5121(8) 0.5000 0.3509(13)
C4 C 0.3917(6) 0.3865(5) 0.0759(10)
C5 C 0.3688(6) 0.4305(5) 0.1743(10)
H3 H 0.3017 0.4415 0.1120
H4 H 0.3820 0.3987 0.2581
C6 C 0.8158(7) 0.6765(5) 0.8250(11)
C7 C 0.7929(6) 0.6343(5) 0.6859(10)
H5 H 0.8238 0.6590 0.6454
H6 H 0.8190 0.5843 0.7170
C8 C 0.6404(6) 0.6964(5) 0.4927(10)
H7 H 0.5897 0.6996 0.5058
H8 H 0.6816 0.7391 0.5444
O1E O 0.4547(4) 0.5920(3) 0.0615(7)
O2E O 0.5236(4) 0.2612(4) 0.2419(7)
O3E O 0.7489(4) 0.3041(4) 0.8308(7)
O4E O 0.3472(4) 0.6728(4) 0.0127(6)
O6E O 0.6364(4) 0.3292(4) 0.2689(7)
O7E O 0.9029(4) 0.3104(4) 0.9264(7)
N2E N 0.5545(4) 0.4330(4) 0.4064(7)
N3E N 0.6937(5) 0.3716(4) 0.5656(8)
C1E C 0.5987(6) 0.2985(5) 0.3251(10)
C2E C 0.6484(5) 0.4376(5) 0.5167(9)
C4E C 0.3917(6) 0.6135(5) 0.0759(10)
C5E C 0.3688(6) 0.5695(5) 0.1743(10)
H3E H 0.3017 0.5585 0.1120
H4E H 0.3820 0.6013 0.2581
C6E C 0.8158(7) 0.3235(5) 0.8250(11)
C7E C 0.7929(6) 0.3657(5) 0.6859(10)
H5E H 0.8238 0.3410 0.6454
H6E H 0.8190 0.4157 0.7170
C8E C 0.6404(6) 0.3036(5) 0.4927(10)
H7E H 0.5897 0.3004 0.5058
H8E H 0.6816 0.2609 0.5444
Co1A Co 0.7500 0.2500 0.0000
O1A O 0.5453(4) 0.4080(3) -0.0615(7)
O2A O 0.4764(4) 0.7388(4) -0.2419(7)
O3A O 0.2511(4) 0.6959(4) -0.8308(7)
O4A O 0.6528(4) 0.3272(4) -0.0127(6)
O5A O 0.3734(6) 0.5000 -0.2084(10)
O6A O 0.3636(4) 0.6708(4) -0.2689(7)
O7A O 0.0971(4) 0.6896(4) -0.9264(7)
O8A O 0.6372(4) 0.1863(4) -0.1744(7)
H1A H 0.6415 0.1794 -0.2514
H2A H 0.5830 0.2086 -0.2105
N1A N 0.3011(6) 0.5000 -0.5788(10)
N2A N 0.4455(4) 0.5670(4) -0.4064(7)
N3A N 0.3063(5) 0.6284(4) -0.5656(8)
N4A N 0.5797(6) 0.5000 -0.2377(11)
C1A C 0.4013(6) 0.7015(5) -0.3251(10)
C2A C 0.3516(5) 0.5624(5) -0.5167(9)
C3A C 0.4879(8) 0.5000 -0.3509(13)
C4A C 0.6083(6) 0.3865(5) -0.0759(10)
C5A C 0.6312(6) 0.4305(5) -0.1743(10)
H3A H 0.6983 0.4415 -0.1120
H4A H 0.6180 0.3987 -0.2581
C6A C 0.1842(7) 0.6765(5) -0.8250(11)
C7A C 0.2071(6) 0.6343(5) -0.6859(10)
H5A H 0.1762 0.6590 -0.6454
H6A H 0.1810 0.5843 -0.7170
C8A C 0.3596(6) 0.6964(5) -0.4927(10)
H7A H 0.4103 0.6996 -0.5058
H8A H 0.3184 0.7391 -0.5444
O1D O 0.5453(4) 0.5920(3) -0.0615(7)
O2D O 0.4764(4) 0.2612(4) -0.2419(7)
O3D O 0.2511(4) 0.3041(4) -0.8308(7)
O4D O 0.6528(4) 0.6728(4) -0.0127(6)
O6D O 0.3636(4) 0.3292(4) -0.2689(7)
O7D O 0.0971(4) 0.3104(4) -0.9264(7)
N2D N 0.4455(4) 0.4330(4) -0.4064(7)
N3D N 0.3063(5) 0.3716(4) -0.5656(8)
C1D C 0.4013(6) 0.2985(5) -0.3251(10)
C2D C 0.3516(5) 0.4376(5) -0.5167(9)
C4D C 0.6083(6) 0.6135(5) -0.0759(10)
C5D C 0.6312(6) 0.5695(5) -0.1743(10)
H3D H 0.6983 0.5585 -0.1120
H4D H 0.6180 0.6013 -0.2581
C6D C 0.1842(7) 0.3235(5) -0.8250(11)
C7D C 0.2071(6) 0.3657(5) -0.6859(10)
H5D H 0.1762 0.3410 -0.6454
H6D H 0.1810 0.4157 -0.7170
C8D C 0.3596(6) 0.3036(5) -0.4927(10)
H7D H 0.4103 0.3004 -0.5058
H8D H 0.3184 0.2609 -0.5444
Tb1D Tb 0.5000 0.70882(4) 0.0000
O8F O 0.1372(4) 0.3137(4) -0.1744(7)
H1F H 0.1415 0.3206 -0.2514
H2F H 0.0830 0.2914 -0.2105
O8G O 0.8628(4) 0.3137(4) 0.1744(7)
H1G H 0.8585 0.3206 0.2514
H2G H 0.9170 0.2914 0.2105
Tb1B Tb -0.0000 0.79118(4) -1.0000
Tb1B_2 Tb 1.0000 0.79118(4) 1.0000
Tb1F Tb 0.0000 0.20882(4) -1.0000
Tb1F_2 Tb 1.0000 0.20882(4) 1.0000
Co1_2 Co 0.2500 0.2500 -1.0000
Co1A_2 Co 0.7500 0.2500 1.0000
Co1B Co 0.7500 0.7500 0.0000
Co1B_2 Co 0.7500 0.7500 1.0000
Co1C Co 0.2500 0.7500 -1.0000
Co1C_2 Co 0.2500 0.7500 0.0000
O3B O 0.2489(4) 0.1959(4) -0.1692(7)
O3C O 0.7511(4) 0.1959(4) 0.1692(7)
O3D_2 O 0.2511(4) 0.3041(4) 0.1692(7)
O3E_2 O 0.7489(4) 0.3041(4) -0.1692(7)
O4F O 0.1528(4) 0.1728(4) -0.0127(6)
O4G O 0.8472(4) 0.1728(4) 0.0127(6)
O7B O 0.4029(4) 0.1896(4) -0.0736(7)
O7C O 0.5971(4) 0.1896(4) 0.0736(7)
O7F O 0.5971(4) 0.8104(4) 0.0736(7)
O7G O 0.4029(4) 0.8104(4) -0.0736(7)
O9 O 0.1847(8) 0.3790(7) -0.3608(13)
O10 O 0.900(2) 0.5000 0.568(3)
loop_
_geom_bond_atom_site_label_1
_geom_bond_atom_site_label_2
_geom_bond_site_symmetry_1
_geom_bond_site_symmetry_2
Tb1 O1 1_555 1_555
Co1 O4 1_555 1_555
Co2 O1 1_555 1_555
O1 C4 1_555 1_555
O2 C1 1_555 1_555
O3 C6 1_555 1_555
O4 Tb1 1_555 1_555
O5 Co2 1_555 1_555
O6 C1 1_555 1_555
O7 C6 1_555 1_555
O8 Co1 1_555 1_555
H1 O8 1_555 1_555
H2 O8 1_555 1_555
N1 C2 1_555 1_555
N2 C2 1_555 1_555
N3 C2 1_555 1_555
N4 C3 1_555 1_555
C1 C8 1_555 1_555
C3 N2 1_555 1_555
C4 O4 1_555 1_555
C5 N4 1_555 1_555
H3 C5 1_555 1_555
H4 C5 1_555 1_555
C6 C7 1_555 1_555
C7 N3 1_555 1_555
H5 C7 1_555 1_555
H6 C7 1_555 1_555
C8 N3 1_555 1_555
H7 C8 1_555 1_555
H8 C8 1_555 1_555
O1E Co2 1_555 1_555
O2E Tb1 1_555 1_555
O3E C6E 1_555 1_555
O4E C4E 1_555 1_555
O6E Tb1 1_555 1_555
O7E C6E 1_555 1_555
N2E C3 1_555 1_555
N3E C2E 1_555 1_555
C1E O2E 1_555 1_555
C2E N1 1_555 1_555
C4E O1E 1_555 1_555
C5E N4 1_555 1_555
H3E C5E 1_555 1_555
H4E C5E 1_555 1_555
C6E C7E 1_555 1_555
C7E N3E 1_555 1_555
H5E C7E 1_555 1_555
H6E C7E 1_555 1_555
C8E N3E 1_555 1_555
H7E C8E 1_555 1_555
H8E C8E 1_555 1_555
Co1A O4A 1_555 1_555
O1A Tb1 1_555 1_555
O2A C1A 1_555 1_555
O3A C6A 1_555 1_555
O4A Tb1 1_555 1_555
O5A Co2 1_555 1_555
O6A C1A 1_555 1_555
O7A C6A 1_555 1_555
O8A Co1A 1_555 1_555
H1A O8A 1_555 1_555
H2A O8A 1_555 1_555
N1A C2A 1_555 1_555
N2A C2A 1_555 1_555
N3A C2A 1_555 1_555
N4A C3A 1_555 1_555
C1A C8A 1_555 1_555
C3A N2A 1_555 1_555
C4A O1A 1_555 1_555
C5A N4A 1_555 1_555
H3A C5A 1_555 1_555
H4A C5A 1_555 1_555
C6A C7A 1_555 1_555
C7A N3A 1_555 1_555
H5A C7A 1_555 1_555
H6A C7A 1_555 1_555
C8A N3A 1_555 1_555
H7A C8A 1_555 1_555
H8A C8A 1_555 1_555
O1D Co2 1_555 1_555
O2D Tb1 1_555 1_555
O3D C6D 1_555 1_555
O4D C4D 1_555 1_555
O6D Tb1 1_555 1_555
O7D C6D 1_555 1_555
N2D C3A 1_555 1_555
N3D C2D 1_555 1_555
C1D O2D 1_555 1_555
C2D N1A 1_555 1_555
C4D O1D 1_555 1_555
C5D N4A 1_555 1_555
H3D C5D 1_555 1_555
H4D C5D 1_555 1_555
C6D C7D 1_555 1_555
C7D N3D 1_555 1_555
H5D C7D 1_555 1_555
H6D C7D 1_555 1_555
C8D N3D 1_555 1_555
H7D C8D 1_555 1_555
H8D C8D 1_555 1_555
Tb1D O2 1_555 1_555
O8F Co1 1_555 1_555
H1F O8F 1_555 1_555
H2F O8F 1_555 1_555
O8G Co1A 1_555 1_555
H1G O8G 1_555 1_555
H2G O8G 1_555 1_555
Tb1B O7A 1_555 1_555
Tb1B_2 O7 1_555 1_555
Tb1F O7D 1_555 1_555
Tb1F_2 O7E 1_555 1_555
Co1_2 O3D 1_555 1_555
Co1A_2 O3E 1_555 1_555
Co1B O4D 1_555 1_555
Co1B_2 O3 1_555 1_555
Co1C O3A 1_555 1_555
Co1C_2 O4E 1_555 1_555
O3B Co1 1_555 1_555
O3C Co1A 1_555 1_555
O3D_2 Co1 1_555 1_555
O3E_2 Co1A 1_555 1_555
O4F Co1 1_555 1_555
O4G Co1A 1_555 1_555
O7B Tb1 1_555 1_555
O7C Tb1 1_555 1_555
O7F Tb1D 1_555 1_555
O7G Tb1D 1_555 1_555
Co2 O1A 1_555 1_555
O6 Tb1D 1_555 1_555
C4 C5 1_555 1_555
O1E Tb1D 1_555 1_555
O4E Tb1D 1_555 1_555
O6E C1E 1_555 1_555
N2E C2E 1_555 1_555
C1E C8E 1_555 1_555
C4E C5E 1_555 1_555
O2A Tb1D 1_555 1_555
O4A C4A 1_555 1_555
O6A Tb1D 1_555 1_555
C4A C5A 1_555 1_555
O1D Tb1D 1_555 1_555
O4D Tb1D 1_555 1_555
O6D C1D 1_555 1_555
N2D C2D 1_555 1_555
C1D C8D 1_555 1_555
C4D C5D 1_555 1_555

#END
