
#######################################################################
#
#                 Cambridge Crystallographic Data Centre
#                                CCDC 
#
#######################################################################
#
# If this CIF has been generated from an entry in the Cambridge 
# Structural Database, then it will include bibliographic, chemical, 
# crystal, experimental, refinement or atomic coordinate data resulting 
# from the CCDC's data processing and validation procedures.
#
#######################################################################

data_SOXDAM
_chemical_formula_moiety         '(C30 H40 N12 O32 Tb2 Zn3)n'
_symmetry_cell_setting           monoclinic
_symmetry_space_group_name_H-M   'C 2/m'
_symmetry_Int_Tables_number      12
_space_group_name_Hall           '-C 2y'
loop_
_symmetry_equiv_pos_site_id
_symmetry_equiv_pos_as_xyz
1 x,y,z
2 -x,y,-z
3 1/2+x,1/2+y,z
4 1/2-x,1/2+y,-z
5 -x,-y,-z
6 x,-y,z
7 1/2-x,1/2-y,-z
8 1/2+x,1/2-y,z
_cell_length_a                   17.3863(12)
_cell_length_b                   17.9923(11)
_cell_length_c                   10.7535(7)
_cell_angle_alpha                90
_cell_angle_beta                 125.455(5)
_cell_angle_gamma                90
_cell_volume                     2740.14
loop_
_atom_site_label
_atom_site_type_symbol
_atom_site_fract_x
_atom_site_fract_y
_atom_site_fract_z
Tb1 Tb 0.5000 0.290923(13) 0.5000
Zn1 Zn 0.5000 0.5000 0.5000
O1 O 0.2528(2) 0.30283(16) -0.3301(3)
O2 O 0.09990(19) 0.30931(15) -0.4221(3)
O3 O 0.36549(19) 0.33040(16) 0.2328(3)
O4 O 0.4767(2) 0.25993(17) 0.2587(3)
O5 O 0.54728(18) 0.59099(14) 0.4413(3)
O6 O 0.6520(2) 0.67311(15) 0.4863(3)
O7 O 0.3705(3) 0.5000 0.2908(5)
H1 H 0.3563 0.4558 0.2550
N1 N 0.3085(2) 0.37168(17) -0.0647(3)
N2 N 0.5818(3) 0.5000 0.2676(5)
N3 N 0.4473(2) 0.43354(17) 0.0969(3)
N4 N 0.3040(3) 0.5000 -0.0766(5)
C1 C 0.3547(3) 0.4373(2) -0.0148(4)
C2 C 0.4040(3) 0.2989(2) 0.1767(5)
C3 C 0.4897(4) 0.5000 0.1492(6)
C4 C 0.1861(3) 0.3223(2) -0.3237(4)
C5 C 0.6323(3) 0.5699(2) 0.3292(4)
H2 H 0.6177 0.6013 0.2447
H3 H 0.6995 0.5597 0.3900
C6 C 0.3620(3) 0.3039(2) 0.0076(4)
H4 H 0.4127 0.3010 -0.0053
H5 H 0.3209 0.2615 -0.0441
C7 C 0.2092(3) 0.3664(2) -0.1850(4)
H6 H 0.1838 0.4162 -0.2176
H7 H 0.1777 0.3432 -0.1444
C8 C 0.6109(3) 0.6128(2) 0.4263(4)
Zn2 Zn 0.2500 0.2500 -0.5000
O8 O 0.1359(2) 0.31627(19) -0.6742(4)
H8 H 0.1480 0.3311 -0.7373
H9 H 0.1284 0.3546 -0.6343
O1E O 0.2528(2) 0.69717(16) -0.3301(3)
O2E O 0.09990(19) 0.69069(15) -0.4221(3)
O3E O 0.36549(19) 0.66960(16) 0.2328(3)
O4E O 0.4767(2) 0.74007(17) 0.2587(3)
O5E O 0.54728(18) 0.40901(14) 0.4413(3)
O6E O 0.6520(2) 0.32689(15) 0.4863(3)
N1E N 0.3085(2) 0.62832(17) -0.0647(3)
N3E N 0.4473(2) 0.56646(17) 0.0969(3)
C1E C 0.3547(3) 0.5627(2) -0.0148(4)
C2E C 0.4040(3) 0.7011(2) 0.1767(5)
C4E C 0.1861(3) 0.6777(2) -0.3237(4)
C5E C 0.6323(3) 0.4301(2) 0.3292(4)
H2E H 0.6177 0.3987 0.2447
H3E H 0.6995 0.4403 0.3900
C6E C 0.3620(3) 0.6961(2) 0.0076(4)
H4E H 0.4127 0.6990 -0.0053
H5E H 0.3209 0.7385 -0.0441
C7E C 0.2092(3) 0.6336(2) -0.1850(4)
H6E H 0.1838 0.5838 -0.2176
H7E H 0.1777 0.6568 -0.1444
C8E C 0.6109(3) 0.3872(2) 0.4263(4)
H1E H 0.3563 0.5442 0.2550
O1A O 0.7472(2) 0.30283(16) 0.3301(3)
O2A O 0.90010(19) 0.30931(15) 0.4221(3)
O3A O 0.63451(19) 0.33040(16) -0.2328(3)
O4A O 0.5233(2) 0.25993(17) -0.2587(3)
O5A O 0.45272(18) 0.59099(14) -0.4413(3)
O6A O 0.3480(2) 0.67311(15) -0.4863(3)
N1A N 0.6915(2) 0.37168(17) 0.0647(3)
N2A N 0.4182(3) 0.5000 -0.2676(5)
N3A N 0.5527(2) 0.43354(17) -0.0969(3)
N4A N 0.6960(3) 0.5000 0.0766(5)
C1A C 0.6453(3) 0.4373(2) 0.0148(4)
C2A C 0.5960(3) 0.2989(2) -0.1767(5)
C3A C 0.5103(4) 0.5000 -0.1492(6)
C4A C 0.8139(3) 0.3223(2) 0.3237(4)
C5A C 0.3677(3) 0.5699(2) -0.3292(4)
H2A H 0.3823 0.6013 -0.2447
H3A H 0.3005 0.5597 -0.3900
C6A C 0.6380(3) 0.3039(2) -0.0076(4)
H4A H 0.5873 0.3010 0.0053
H5A H 0.6791 0.2615 0.0441
C7A C 0.7908(3) 0.3664(2) 0.1850(4)
H6A H 0.8162 0.4162 0.2176
H7A H 0.8223 0.3432 0.1444
C8A C 0.3891(3) 0.6128(2) -0.4263(4)
Zn2A Zn 0.7500 0.2500 0.5000
O8A O 0.8641(2) 0.31627(19) 0.6742(4)
H8A H 0.8520 0.3311 0.7373
H9A H 0.8716 0.3546 0.6343
O1D O 0.7472(2) 0.69717(16) 0.3301(3)
O2D O 0.90010(19) 0.69069(15) 0.4221(3)
O3D O 0.63451(19) 0.66960(16) -0.2328(3)
O4D O 0.5233(2) 0.74007(17) -0.2587(3)
O5D O 0.45272(18) 0.40901(14) -0.4413(3)
O6D O 0.3480(2) 0.32689(15) -0.4863(3)
N1D N 0.6915(2) 0.62832(17) 0.0647(3)
N3D N 0.5527(2) 0.56646(17) -0.0969(3)
C1D C 0.6453(3) 0.5627(2) 0.0148(4)
C2D C 0.5960(3) 0.7011(2) -0.1767(5)
C4D C 0.8139(3) 0.6777(2) 0.3237(4)
C5D C 0.3677(3) 0.4301(2) -0.3292(4)
H2D H 0.3823 0.3987 -0.2447
H3D H 0.3005 0.4403 -0.3900
C6D C 0.6380(3) 0.6961(2) -0.0076(4)
H4D H 0.5873 0.6990 0.0053
H5D H 0.6791 0.7385 0.0441
C7D C 0.7908(3) 0.6336(2) 0.1850(4)
H6D H 0.8162 0.5838 0.2176
H7D H 0.8223 0.6568 0.1444
C8D C 0.3891(3) 0.3872(2) -0.4263(4)
Tb1D Tb 0.5000 0.709077(13) 0.5000
O7A O 0.6295(3) 0.5000 0.7092(5)
H1A H 0.6437 0.4558 0.7450
H1D H 0.6437 0.5442 0.7450
O8F O 0.3641(2) 0.18373(19) -0.3258(4)
H8F H 0.3520 0.1689 -0.2627
H9F H 0.3716 0.1454 -0.3657
O8G O 0.6359(2) 0.18373(19) 0.3258(4)
H8G H 0.6480 0.1689 0.2627
H9G H 0.6284 0.1454 0.3657
Tb1_2 Tb 0.5000 0.290923(13) -0.5000
Tb1B Tb 0.0000 0.790923(13) -0.5000
Tb1B_2 Tb 1.0000 0.790923(13) 0.5000
Tb1D_2 Tb 0.5000 0.709077(13) -0.5000
Tb1F Tb 0.0000 0.209077(13) -0.5000
Tb1F_2 Tb 1.0000 0.209077(13) 0.5000
Zn1_2 Zn 0.5000 0.5000 -0.5000
O1F O 0.2472(2) 0.19717(16) -0.6699(3)
O1G O 0.7528(2) 0.19717(16) 0.6699(3)
O2B O 0.59990(19) 0.80931(15) 0.5779(3)
O2C O 0.40010(19) 0.80931(15) 0.4221(3)
O2F O 0.40010(19) 0.19069(15) 0.4221(3)
O2G O 0.59990(19) 0.19069(15) 0.5779(3)
O3A_2 O 0.63451(19) 0.33040(16) 0.7672(3)
O3D_2 O 0.63451(19) 0.66960(16) 0.7672(3)
O4A_2 O 0.5233(2) 0.25993(17) 0.7413(3)
O4D_2 O 0.5233(2) 0.74007(17) 0.7413(3)
O5A_2 O 0.45272(18) 0.59099(14) 0.5587(3)
O5D_2 O 0.45272(18) 0.40901(14) 0.5587(3)
O6A_2 O 0.3480(2) 0.67311(15) 0.5137(3)
O6B O 0.1520(2) 0.17311(15) -0.5137(3)
O6C O 0.8480(2) 0.17311(15) 0.5137(3)
O6D_2 O 0.3480(2) 0.32689(15) 0.5137(3)
Zn2B Zn 0.7500 0.7500 0.5000
Zn2C Zn 0.2500 0.7500 -0.5000
O9 O 0.1844(4) 0.3808(3) 0.1391(7)
O10 O 0.0816(11) 0.5000 -0.0516(14)
loop_
_geom_bond_atom_site_label_1
_geom_bond_atom_site_label_2
_geom_bond_site_symmetry_1
_geom_bond_site_symmetry_2
Tb1 O3 1_555 1_555
Zn1 O5 1_555 1_555
O1 C4 1_555 1_555
O2 C4 1_555 1_555
O3 C2 1_555 1_555
O4 Tb1 1_555 1_555
O5 C8 1_555 1_555
O6 C8 1_555 1_555
O7 Zn1 1_555 1_555
H1 O7 1_555 1_555
N1 C1 1_555 1_555
N2 C3 1_555 1_555
N3 C1 1_555 1_555
N4 C1 1_555 1_555
C2 O4 1_555 1_555
C3 N3 1_555 1_555
C4 C7 1_555 1_555
C5 N2 1_555 1_555
H2 C5 1_555 1_555
H3 C5 1_555 1_555
C6 N1 1_555 1_555
H4 C6 1_555 1_555
H5 C6 1_555 1_555
C7 N1 1_555 1_555
H6 C7 1_555 1_555
H7 C7 1_555 1_555
C8 C5 1_555 1_555
Zn2 O1 1_555 1_555
O8 Zn2 1_555 1_555
H8 O8 1_555 1_555
H9 O8 1_555 1_555
O1E C4E 1_555 1_555
O2E C4E 1_555 1_555
O3E C2E 1_555 1_555
O4E C2E 1_555 1_555
O5E Tb1 1_555 1_555
O6E Tb1 1_555 1_555
N1E C1E 1_555 1_555
N3E C3 1_555 1_555
C1E N4 1_555 1_555
C2E C6E 1_555 1_555
C4E C7E 1_555 1_555
C5E N2 1_555 1_555
H2E C5E 1_555 1_555
H3E C5E 1_555 1_555
C6E N1E 1_555 1_555
H4E C6E 1_555 1_555
H5E C6E 1_555 1_555
C7E N1E 1_555 1_555
H6E C7E 1_555 1_555
H7E C7E 1_555 1_555
C8E O5E 1_555 1_555
H1E O7 1_555 1_555
O1A C4A 1_555 1_555
O2A C4A 1_555 1_555
O3A C2A 1_555 1_555
O4A C2A 1_555 1_555
O5A C8A 1_555 1_555
O6A C8A 1_555 1_555
N1A C1A 1_555 1_555
N2A C3A 1_555 1_555
N3A C1A 1_555 1_555
N4A C1A 1_555 1_555
C2A C6A 1_555 1_555
C3A N3A 1_555 1_555
C4A C7A 1_555 1_555
C5A N2A 1_555 1_555
H2A C5A 1_555 1_555
H3A C5A 1_555 1_555
C6A N1A 1_555 1_555
H4A C6A 1_555 1_555
H5A C6A 1_555 1_555
C7A N1A 1_555 1_555
H6A C7A 1_555 1_555
H7A C7A 1_555 1_555
C8A C5A 1_555 1_555
Zn2A O6E 1_555 1_555
O8A Zn2A 1_555 1_555
H8A O8A 1_555 1_555
H9A O8A 1_555 1_555
O1D C4D 1_555 1_555
O2D C4D 1_555 1_555
O3D C2D 1_555 1_555
O4D C2D 1_555 1_555
O5D C8D 1_555 1_555
O6D Zn2 1_555 1_555
N1D C1D 1_555 1_555
N3D C3A 1_555 1_555
C1D N4A 1_555 1_555
C2D C6D 1_555 1_555
C4D C7D 1_555 1_555
C5D N2A 1_555 1_555
H2D C5D 1_555 1_555
H3D C5D 1_555 1_555
C6D N1D 1_555 1_555
H4D C6D 1_555 1_555
H5D C6D 1_555 1_555
C7D N1D 1_555 1_555
H6D C7D 1_555 1_555
H7D C7D 1_555 1_555
C8D O6D 1_555 1_555
Tb1D O5 1_555 1_555
O7A Zn1 1_555 1_555
H1A O7A 1_555 1_555
H1D O7A 1_555 1_555
O8F Zn2 1_555 1_555
H8F O8F 1_555 1_555
H9F O8F 1_555 1_555
O8G Zn2A 1_555 1_555
H8G O8G 1_555 1_555
H9G O8G 1_555 1_555
Tb1_2 O3A 1_555 1_555
Tb1B O2E 1_555 1_555
Tb1B_2 O2D 1_555 1_555
Tb1D_2 O5A 1_555 1_555
Tb1F O2 1_555 1_555
Tb1F_2 O2A 1_555 1_555
Zn1_2 O5A 1_555 1_555
O1F Zn2 1_555 1_555
O1G Zn2A 1_555 1_555
O2B Tb1D 1_555 1_555
O2C Tb1D 1_555 1_555
O2F Tb1 1_555 1_555
O2G Tb1 1_555 1_555
O3A_2 Tb1 1_555 1_555
O3D_2 Tb1D 1_555 1_555
O4A_2 Tb1 1_555 1_555
O4D_2 Tb1D 1_555 1_555
O5A_2 Zn1 1_555 1_555
O5D_2 Tb1 1_555 1_555
O6A_2 Tb1D 1_555 1_555
O6B Zn2 1_555 1_555
O6C Zn2A 1_555 1_555
O6D_2 Tb1 1_555 1_555
Zn2B O6 1_555 1_555
Zn2C O1E 1_555 1_555
Zn1 O5E 1_555 1_555
Zn1 O5D_2 1_555 1_555
O6 Tb1D 1_555 1_555
C2 C6 1_555 1_555
O3E Tb1D 1_555 1_555
O4E Tb1D 1_555 1_555
O6E C8E 1_555 1_555
N3E C1E 1_555 1_555
C5E C8E 1_555 1_555
O1A Zn2A 1_555 1_555
O4A Tb1_2 1_555 1_555
O6A Tb1D_2 1_555 1_555
O6A Zn2C 1_555 1_555
O1D Zn2B 1_555 1_555
O3D Tb1D_2 1_555 1_555
O4D Tb1D_2 1_555 1_555
O5D Tb1_2 1_555 1_555
O5D Zn1_2 1_555 1_555
O6D Tb1_2 1_555 1_555
N3D C1D 1_555 1_555
C5D C8D 1_555 1_555
Tb1D O5A_2 1_555 1_555
Tb1F O6B 1_555 1_555
Tb1F_2 O6C 1_555 1_555

#END
