
#######################################################################
#
#                 Cambridge Crystallographic Data Centre
#                                CCDC 
#
#######################################################################
#
# If this CIF has been generated from an entry in the Cambridge 
# Structural Database, then it will include bibliographic, chemical, 
# crystal, experimental, refinement or atomic coordinate data resulting 
# from the CCDC's data processing and validation procedures.
#
#######################################################################

data_PEPKOL
_chemical_formula_moiety         '(C22 H28 N4 Ni2 O10)n'
_symmetry_cell_setting           monoclinic
_symmetry_space_group_name_H-M   'P 21/n'
_symmetry_Int_Tables_number      14
_space_group_name_Hall           '-P 2yn'
loop_
_symmetry_equiv_pos_site_id
_symmetry_equiv_pos_as_xyz
1 x,y,z
2 1/2-x,1/2+y,1/2-z
3 -x,-y,-z
4 1/2+x,1/2-y,1/2+z
_cell_length_a                   6.5697(4)
_cell_length_b                   22.6167(13)
_cell_length_c                   7.8511(5)
_cell_angle_alpha                90
_cell_angle_beta                 90.1540(10)
_cell_angle_gamma                90
_cell_volume                     1166.55
loop_
_atom_site_label
_atom_site_type_symbol
_atom_site_fract_x
_atom_site_fract_y
_atom_site_fract_z
O5 O 0.5521(5) -0.05007(10) 0.1729(3)
H10 H 0.5604 -0.0858 0.1559
C10 C 0.4393(6) -0.02365(16) 0.0407(6)
H12 H 0.3583 0.0025 0.1136
C12 C 0.284(2) -0.0556(7) -0.0178(18)
H16 H 0.2240 -0.0774 0.0744
H17 H 0.3314 -0.0826 -0.1031
H18 H 0.1833 -0.0298 -0.0667
O5B O 0.4479(5) 0.05007(10) -0.1729(3)
H10B H 0.4396 0.0858 -0.1559
C10B C 0.5607(6) 0.02365(16) -0.0407(6)
H12B H 0.6417 -0.0025 -0.1136
C12B C 0.716(2) 0.0556(7) 0.0178(18)
H16B H 0.7760 0.0774 -0.0744
H17B H 0.6686 0.0826 0.1031
H18B H 0.8167 0.0298 0.0667
Ni1 Ni 0.54677(4) 0.209820(11) 0.60598(3)
O1 O 0.3424(2) 0.18020(7) 0.42758(19)
O2 O 0.3782(3) 0.16868(6) -0.19959(19)
N1 N -0.0781(3) 0.20830(8) 0.1429(3)
H1 H -0.1278 0.1937 0.0446
H2 H -0.1793 0.2099 0.2198
O3 O 0.2380(3) 0.26308(7) 0.2988(2)
C1 C 0.2363(3) 0.20823(9) 0.3211(3)
N2 N 0.7154(3) 0.13234(8) 0.5645(2)
O4 O 0.2362(3) 0.24599(7) -0.0688(2)
C2 C 0.9061(3) 0.12695(9) 0.6215(3)
H3 H 0.9640 0.1588 0.6786
C3 C 1.0228(4) 0.07627(10) 0.6000(3)
H4 H 1.1545 0.0746 0.6434
C4 C 0.9414(3) 0.02794(9) 0.5130(3)
C5 C 0.0925(4) 0.17153(9) 0.2067(3)
H5 H 0.0374 0.1385 0.2731
C6 C 0.2791(4) 0.19184(10) -0.0796(3)
C7 C 0.7445(4) 0.03446(11) 0.4503(4)
H6 H 0.6843 0.0039 0.3888
C8 C 0.6383(4) 0.08610(11) 0.4790(4)
H7 H 0.5063 0.0890 0.4368
C9 C 0.2117(4) 0.14706(10) 0.0568(3)
H8 H 0.1290 0.1171 0.0016
H9 H 0.3324 0.1276 0.1008
Ni1_2 Ni 0.54677(4) 0.209820(11) 1.60598(3)
Ni1_3 Ni 0.54677(4) 0.209820(11) -0.39402(3)
Ni1C Ni 0.04677(4) 0.290180(11) 0.10598(3)
Ni1B Ni 1.45323(4) -0.209820(11) 0.39402(3)
Ni1C_2 Ni 0.04677(4) 0.290180(11) 1.10598(3)
O1_2 O 0.3424(2) 0.18020(7) 1.42758(19)
O2_2 O 0.3782(3) 0.16868(6) 0.80041(19)
O2_3 O 0.3782(3) 0.16868(6) 1.80041(19)
N1_2 N -0.0781(3) 0.20830(8) 1.1429(3)
N1C N 0.4219(3) 0.29170(8) 0.6429(3)
N1C_2 N 0.4219(3) 0.29170(8) 1.6429(3)
H1_2 H -0.1278 0.1937 1.0446
H1C H 0.3722 0.3063 0.5446
H1C_2 H 0.3722 0.3063 1.5446
H2_2 H -0.1793 0.2099 1.2198
H2C H 0.3207 0.2901 0.7198
H2C_2 H 0.3207 0.2901 1.7198
O3_2 O 0.2380(3) 0.26308(7) 1.2988(2)
O3C O 0.7380(3) 0.23692(7) 0.7988(2)
O3C_2 O 0.7380(3) 0.23692(7) 1.7988(2)
C1_2 C 0.2363(3) 0.20823(9) 1.3211(3)
N2B N 1.2846(3) -0.13234(8) 0.4355(2)
N2_2 N 0.7154(3) 0.13234(8) 1.5645(2)
O4_2 O 0.2362(3) 0.24599(7) 0.9312(2)
O4C O 0.7362(3) 0.25401(7) 0.4312(2)
O4C_2 O 0.7362(3) 0.25401(7) 1.4312(2)
C2B C 1.0939(3) -0.12695(9) 0.3785(3)
H3B H 1.0360 -0.1588 0.3214
C3B C 0.9772(4) -0.07627(10) 0.4000(3)
H4B H 0.8455 -0.0746 0.3566
C4B C 1.0586(3) -0.02794(9) 0.4870(3)
C5_2 C 0.0925(4) 0.17153(9) 1.2067(3)
H5_2 H 0.0374 0.1385 1.2731
C6_2 C 0.2791(4) 0.19184(10) 0.9204(3)
C7B C 1.2555(4) -0.03446(11) 0.5497(4)
H6B H 1.3157 -0.0039 0.6112
C8B C 1.3617(4) -0.08610(11) 0.5210(4)
H7B H 1.4937 -0.0890 0.5632
C9_2 C 0.2117(4) 0.14706(10) 1.0568(3)
H8_2 H 0.1290 0.1171 1.0016
H9_2 H 0.3324 0.1276 1.1008
loop_
_geom_bond_atom_site_label_1
_geom_bond_atom_site_label_2
_geom_bond_site_symmetry_1
_geom_bond_site_symmetry_2
Ni1 O1 1_555 1_555
O1 C1 1_555 1_555
O2 C6 1_555 1_555
N1 H1 1_555 1_555
H2 N1 1_555 1_555
O3 C1 1_555 1_555
C1 C5 1_555 1_555
N2 Ni1 1_555 1_555
O4 C6 1_555 1_555
C2 N2 1_555 1_555
H3 C2 1_555 1_555
C3 C2 1_555 1_555
H4 C3 1_555 1_555
C4 C3 1_555 1_555
C5 N1 1_555 1_555
H5 C5 1_555 1_555
C6 C9 1_555 1_555
C7 C4 1_555 1_555
H6 C7 1_555 1_555
C8 N2 1_555 1_555
H7 C8 1_555 1_555
C9 C5 1_555 1_555
H8 C9 1_555 1_555
H9 C9 1_555 1_555
O5 H10 1_555 1_555
C10 O5 1_555 1_555
H12 C10 1_555 1_555
C12 C10 1_555 1_555
H16 C12 1_555 1_555
H17 C12 1_555 1_555
H18 C12 1_555 1_555
Ni1_2 O1_2 1_555 1_555
Ni1_3 O2 1_555 1_555
Ni1C N1 1_555 1_555
Ni1B N2B 1_555 1_555
Ni1C_2 N1_2 1_555 1_555
O1_2 C1_2 1_555 1_555
O2_2 Ni1 1_555 1_555
O2_3 Ni1_2 1_555 1_555
N1_2 H1_2 1_555 1_555
N1C Ni1 1_555 1_555
N1C_2 Ni1_2 1_555 1_555
H1C N1C 1_555 1_555
H1C_2 N1C_2 1_555 1_555
H2_2 N1_2 1_555 1_555
H2C N1C 1_555 1_555
H2C_2 N1C_2 1_555 1_555
O3_2 Ni1C_2 1_555 1_555
O3C Ni1 1_555 1_555
O3C_2 Ni1_2 1_555 1_555
C1_2 O3_2 1_555 1_555
N2B C2B 1_555 1_555
N2_2 Ni1_2 1_555 1_555
O4_2 Ni1C_2 1_555 1_555
O4C Ni1 1_555 1_555
O4C_2 Ni1_2 1_555 1_555
C2B H3B 1_555 1_555
C3B C2B 1_555 1_555
H4B C3B 1_555 1_555
C4B C4 1_555 1_555
C5_2 N1_2 1_555 1_555
H5_2 C5_2 1_555 1_555
C6_2 O2_2 1_555 1_555
C7B C4B 1_555 1_555
H6B C7B 1_555 1_555
C8B N2B 1_555 1_555
H7B C8B 1_555 1_555
C9_2 C5_2 1_555 1_555
H8_2 C9_2 1_555 1_555
H9_2 C9_2 1_555 1_555
O5B H10B 1_555 1_555
C10B C10 1_555 1_555
H12B C10B 1_555 1_555
C12B C10B 1_555 1_555
H16B C12B 1_555 1_555
H17B C12B 1_555 1_555
H18B C12B 1_555 1_555
O3 Ni1C 1_555 1_555
O4 Ni1C 1_555 1_555
C7 C8 1_555 1_555
C1_2 C5_2 1_555 1_555
O4_2 C6_2 1_555 1_555
C3B C4B 1_555 1_555
C6_2 C9_2 1_555 1_555
C7B C8B 1_555 1_555
O5B C10B 1_555 1_555

#END
