
#######################################################################
#
#                 Cambridge Crystallographic Data Centre
#                                CCDC 
#
#######################################################################
#
# If this CIF has been generated from an entry in the Cambridge 
# Structural Database, then it will include bibliographic, chemical, 
# crystal, experimental, refinement or atomic coordinate data resulting 
# from the CCDC's data processing and validation procedures.
#
#######################################################################

data_PEPKUR
_chemical_formula_moiety         '(C19 H24 N4 Ni2 O10)n'
_symmetry_cell_setting           orthorhombic
_symmetry_space_group_name_H-M   'P 21 21 2'
_symmetry_Int_Tables_number      18
_space_group_name_Hall           'P 2 2ab'
loop_
_symmetry_equiv_pos_site_id
_symmetry_equiv_pos_as_xyz
1 x,y,z
2 -x,-y,z
3 1/2+x,1/2-y,-z
4 1/2-x,1/2+y,-z
_cell_length_a                   22.2721(13)
_cell_length_b                   6.8371(4)
_cell_length_c                   7.7308(5)
_cell_angle_alpha                90
_cell_angle_beta                 90
_cell_angle_gamma                90
_cell_volume                     1177.22
loop_
_atom_site_label
_atom_site_type_symbol
_atom_site_fract_x
_atom_site_fract_y
_atom_site_fract_z
O1 O 0.25024(13) 0.2637(5) 0.0828(4)
O2 O 0.32505(15) 0.4000(6) -0.0676(4)
O3 O 0.32701(14) 0.3514(5) 0.5616(4)
O4 O 0.24295(14) 0.2143(5) 0.4613(4)
N1 N 0.29845(13) -0.0527(5) 0.2732(4)
H1 H 0.3003 -0.1554 0.3499
H2 H 0.3114 -0.0950 0.1666
N2 N 0.13412(14) 0.2206(5) 0.2609(7)
C1 C 0.30418(19) 0.3041(6) 0.0580(5)
C2 C 0.35439(18) 0.2369(7) 0.1818(5)
H3 H 0.3842 0.1619 0.1139
H4 H 0.3750 0.3548 0.2269
C3 C 0.33527(17) 0.1130(6) 0.3344(5)
H5 H 0.3719 0.0610 0.3936
C4 C 0.29902(19) 0.2373(6) 0.4634(5)
C5 C 0.13422(15) 0.4120(5) 0.2444(6)
H6 H 0.1719 0.4759 0.2343
C6 C 0.08309(16) 0.5262(5) 0.2410(6)
H7 H 0.0853 0.6617 0.2674
C10 C 0.0283(2) 0.4428(8) 0.2844(7)
C11 C 0.0293(2) 0.2458(8) 0.3221(7)
H12 H -0.0074 0.1809 0.3471
C12 C 0.0816(3) 0.1409(14) 0.3247(11)
H13 H 0.0819 0.0121 0.3709
Ni1 Ni 0.212590(18) 0.05608(6) 0.25828(6)
O1C O 0.24976(13) -0.2363(5) -0.0828(4)
O2C O 0.17495(15) -0.1000(6) 0.0676(4)
O2_2 O 0.32505(15) -0.6000(6) -0.0676(4)
O3C O 0.17299(14) -0.1486(5) -0.5616(4)
O3C_2 O 0.17299(14) -0.1486(5) 0.4384(4)
O3_2 O 0.32701(14) -0.6486(5) -0.4384(4)
O4C O 0.25705(14) -0.2857(5) -0.4613(4)
N1C N 0.20155(13) -0.5527(5) -0.2732(4)
H1C H 0.1997 -0.6554 -0.3499
H2C H 0.1886 -0.5950 -0.1666
N2A N -0.13412(14) 0.7794(5) 0.2609(7)
N2C N 0.36588(14) -0.2794(5) -0.2609(7)
C1C C 0.19582(19) -0.1959(6) -0.0580(5)
C2C C 0.14561(18) -0.2631(7) -0.1818(5)
H3C H 0.1158 -0.3381 -0.1139
H4C H 0.1250 -0.1452 -0.2269
C3C C 0.16473(17) -0.3870(6) -0.3344(5)
H5C H 0.1281 -0.4390 -0.3936
C4C C 0.20098(19) -0.2627(6) -0.4634(5)
C5A C -0.13422(15) 0.5880(5) 0.2444(6)
H6A H -0.1719 0.5241 0.2343
C6A C -0.08309(16) 0.4738(5) 0.2410(6)
H7A H -0.0853 0.3383 0.2674
C10A C -0.0283(2) 0.5572(8) 0.2844(7)
C11A C -0.0293(2) 0.7542(8) 0.3221(7)
H12A H 0.0074 0.8191 0.3471
C12A C -0.0816(3) 0.8591(14) 0.3247(11)
H13A H -0.0819 0.9879 0.3709
Ni1C Ni 0.287410(18) -0.44392(6) -0.25828(6)
Ni1C_2 Ni 0.287410(18) 0.55608(6) -0.25828(6)
Ni1C_3 Ni 0.287410(18) 0.55608(6) 0.74172(6)
Ni1A Ni -0.212590(18) 0.94392(6) 0.25828(6)
Ni1_2 Ni 0.212590(18) 0.05608(6) -0.74172(6)
O5 O 0.0595(2) -0.0132(8) 0.5747(7)
H10 H 0.0932 -0.0596 0.5221
H11 H 0.0387 -0.1063 0.6460
C13 C 0.0563(7) 0.210(3) 0.835(2)
H14 H 0.0754 0.3034 0.9148
H15 H 0.0841 0.1788 0.7414
H16 H 0.0459 0.0908 0.8984
O6 O 0.0051(10) 0.292(4) 0.768(3)
H17 H -0.0080 0.3779 0.8364
loop_
_geom_bond_atom_site_label_1
_geom_bond_atom_site_label_2
_geom_bond_site_symmetry_1
_geom_bond_site_symmetry_2
O1 C1 1_555 1_555
O2 C1 1_555 1_555
O3 C4 1_555 1_555
O4 C4 1_555 1_555
N1 H1 1_555 1_555
H2 N1 1_555 1_555
N2 C5 1_555 1_555
C1 C2 1_555 1_555
C2 H3 1_555 1_555
H4 C2 1_555 1_555
C3 N1 1_555 1_555
H5 C3 1_555 1_555
C4 C3 1_555 1_555
C5 H6 1_555 1_555
C6 C5 1_555 1_555
H7 C6 1_555 1_555
O5 H10 1_555 1_555
H11 O5 1_555 1_555
C10 C6 1_555 1_555
C11 C10 1_555 1_555
H12 C11 1_555 1_555
C12 N2 1_555 1_555
H13 C12 1_555 1_555
C13 H14 1_555 1_555
H15 C13 1_555 1_555
H16 C13 1_555 1_555
O6 C13 1_555 1_555
H17 O6 1_555 1_555
Ni1 O1 1_555 1_555
O1C C1C 1_555 1_555
O2C Ni1 1_555 1_555
O2_2 Ni1C 1_555 1_555
O3C C4C 1_555 1_555
O3C_2 Ni1 1_555 1_555
O3_2 Ni1C 1_555 1_555
O4C C4C 1_555 1_555
N1C H1C 1_555 1_555
H2C N1C 1_555 1_555
N2A C5A 1_555 1_555
N2C Ni1C 1_555 1_555
C1C O2C 1_555 1_555
C2C C1C 1_555 1_555
H3C C2C 1_555 1_555
H4C C2C 1_555 1_555
C3C N1C 1_555 1_555
H5C C3C 1_555 1_555
C4C C3C 1_555 1_555
C5A H6A 1_555 1_555
C6A C5A 1_555 1_555
H7A C6A 1_555 1_555
C10A C10 1_555 1_555
C11A C10A 1_555 1_555
H12A C11A 1_555 1_555
C12A N2A 1_555 1_555
H13A C12A 1_555 1_555
Ni1C O1C 1_555 1_555
Ni1C_2 O2 1_555 1_555
Ni1C_3 O3 1_555 1_555
Ni1A N2A 1_555 1_555
Ni1_2 O3C 1_555 1_555
O4 Ni1 1_555 1_555
N1 Ni1 1_555 1_555
N2 Ni1 1_555 1_555
C2 C3 1_555 1_555
C11 C12 1_555 1_555
O4C Ni1C 1_555 1_555
N1C Ni1C 1_555 1_555
C2C C3C 1_555 1_555
C6A C10A 1_555 1_555
C11A C12A 1_555 1_555

#END
