
#######################################################################
#
#                 Cambridge Crystallographic Data Centre
#                                CCDC 
#
#######################################################################
#
# If this CIF has been generated from an entry in the Cambridge 
# Structural Database, then it will include bibliographic, chemical, 
# crystal, experimental, refinement or atomic coordinate data resulting 
# from the CCDC's data processing and validation procedures.
#
#######################################################################

data_PESTUD
_chemical_formula_moiety         '(C18 H18 N4 Ni2 O8)n'
_symmetry_cell_setting           orthorhombic
_symmetry_space_group_name_H-M   'P 21 21 2'
_symmetry_Int_Tables_number      18
_space_group_name_Hall           'P 2 2ab'
loop_
_symmetry_equiv_pos_site_id
_symmetry_equiv_pos_as_xyz
1 x,y,z
2 -x,-y,z
3 1/2+x,1/2-y,-z
4 1/2-x,1/2+y,-z
_cell_length_a                   22.245(2)
_cell_length_b                   6.7907(7)
_cell_length_c                   7.7387(8)
_cell_angle_alpha                90
_cell_angle_beta                 90
_cell_angle_gamma                90
_cell_volume                     1169
loop_
_atom_site_label
_atom_site_type_symbol
_atom_site_fract_x
_atom_site_fract_y
_atom_site_fract_z
Ni1 Ni 0.212771(16) 0.05035(6) 0.25845(6)
O1 O 0.24311(13) 0.2051(4) 0.4638(3)
O2 O 0.32699(12) 0.3413(4) 0.5660(3)
O3 O 0.25061(12) 0.2642(4) 0.0873(3)
O4 O 0.32532(13) 0.4004(5) -0.0645(3)
N1 N 0.29902(11) -0.0580(4) 0.2710(4)
H1 H 0.3010 -0.1614 0.3434
H2 H 0.3118 -0.0962 0.1658
N2 N 0.13382(12) 0.2181(4) 0.2670(6)
C1 C 0.30489(17) 0.3044(6) 0.0611(5)
C2 C 0.35434(16) 0.2381(6) 0.1866(4)
H3 H 0.3847 0.1683 0.1205
H4 H 0.3733 0.3550 0.2336
C3 C 0.33580(15) 0.1082(5) 0.3364(5)
H5 H 0.3718 0.0563 0.3934
C4 C 0.29905(17) 0.2292(5) 0.4667(4)
C5 C 0.13381(14) 0.4090(5) 0.2421(6)
H6 H 0.1706 0.4708 0.2241
C6 C 0.08309(14) 0.5232(5) 0.2408(6)
H7 H 0.0860 0.6573 0.2177
C7 C 0.02846(15) 0.4411(6) 0.2733(9)
C8 C 0.0301(4) 0.2461(12) 0.342(2)
H8 H -0.0045 0.1893 0.3876
C9 C 0.0824(3) 0.1448(15) 0.3400(19)
H9 H 0.0835 0.0204 0.3902
Ni1C Ni 0.287229(16) -0.44965(6) 0.74155(6)
Ni1C_2 Ni 0.287229(16) 0.55035(6) 0.74155(6)
Ni1C_3 Ni 0.287229(16) 0.55035(6) -0.25845(6)
Ni1A Ni -0.212771(16) 0.94965(6) 0.25845(6)
Ni1_2 Ni 0.212771(16) 0.05035(6) 1.25845(6)
O1C O 0.25689(13) -0.2949(4) 0.5362(3)
O2C O 0.17301(12) -0.1587(4) 0.4340(3)
O2_2 O 0.32699(12) -0.6587(4) 0.5660(3)
O3C O 0.24939(12) -0.2358(4) 0.9127(3)
O4C O 0.17468(13) -0.0996(5) 1.0645(3)
O4C_2 O 0.17468(13) -0.0996(5) 0.0645(3)
O4_2 O 0.32532(13) -0.5996(5) 0.9355(3)
N1C N 0.20098(11) -0.5580(4) 0.7290(4)
H1C H 0.1990 -0.6614 0.6566
H2C H 0.1882 -0.5962 0.8342
N2A N -0.13382(12) 0.7819(4) 0.2670(6)
N2C N 0.36618(12) -0.2819(4) 0.7330(6)
C1C C 0.19511(17) -0.1956(6) 0.9389(5)
C2C C 0.14566(16) -0.2619(6) 0.8134(4)
H3C H 0.1153 -0.3317 0.8795
H4C H 0.1267 -0.1450 0.7664
C3C C 0.16420(15) -0.3918(5) 0.6636(5)
H5C H 0.1282 -0.4437 0.6066
C4C C 0.20095(17) -0.2708(5) 0.5333(4)
C5A C -0.13381(14) 0.5910(5) 0.2421(6)
H6A H -0.1706 0.5292 0.2241
C6A C -0.08309(14) 0.4768(5) 0.2408(6)
H7A H -0.0860 0.3427 0.2177
C7A C -0.02846(15) 0.5589(6) 0.2733(9)
C8A C -0.0301(4) 0.7539(12) 0.342(2)
H8A H 0.0045 0.8107 0.3876
C9A C -0.0824(3) 0.8552(15) 0.3400(19)
H9A H -0.0835 0.9796 0.3902
loop_
_geom_bond_atom_site_label_1
_geom_bond_atom_site_label_2
_geom_bond_site_symmetry_1
_geom_bond_site_symmetry_2
Ni1 O1 1_555 1_555
O1 C4 1_555 1_555
O2 C4 1_555 1_555
O3 Ni1 1_555 1_555
O4 C1 1_555 1_555
N1 Ni1 1_555 1_555
H1 N1 1_555 1_555
H2 N1 1_555 1_555
N2 Ni1 1_555 1_555
C1 O3 1_555 1_555
C2 C1 1_555 1_555
H3 C2 1_555 1_555
H4 C2 1_555 1_555
C3 N1 1_555 1_555
H5 C3 1_555 1_555
C4 C3 1_555 1_555
C5 N2 1_555 1_555
H6 C5 1_555 1_555
C6 C5 1_555 1_555
H7 C6 1_555 1_555
C7 C6 1_555 1_555
C8 C7 1_555 1_555
H8 C8 1_555 1_555
C9 N2 1_555 1_555
H9 C9 1_555 1_555
Ni1C O1C 1_555 1_555
Ni1C_2 O2 1_555 1_555
Ni1C_3 O4 1_555 1_555
Ni1A N2A 1_555 1_555
Ni1_2 O4C 1_555 1_555
O1C C4C 1_555 1_555
O2C Ni1 1_555 1_555
O2_2 Ni1C 1_555 1_555
O3C Ni1C 1_555 1_555
O4C C1C 1_555 1_555
O4C_2 Ni1 1_555 1_555
O4_2 Ni1C 1_555 1_555
N1C Ni1C 1_555 1_555
H1C N1C 1_555 1_555
H2C N1C 1_555 1_555
N2A C5A 1_555 1_555
N2C Ni1C 1_555 1_555
C1C O3C 1_555 1_555
C2C C1C 1_555 1_555
H3C C2C 1_555 1_555
H4C C2C 1_555 1_555
C3C N1C 1_555 1_555
H5C C3C 1_555 1_555
C4C O2C 1_555 1_555
C5A H6A 1_555 1_555
C6A C5A 1_555 1_555
H7A C6A 1_555 1_555
C7A C7 1_555 1_555
C8A C7A 1_555 1_555
H8A C8A 1_555 1_555
C9A N2A 1_555 1_555
H9A C9A 1_555 1_555
C2 C3 1_555 1_555
C8 C9 1_555 1_555
C2C C3C 1_555 1_555
C3C C4C 1_555 1_555
C6A C7A 1_555 1_555
C8A C9A 1_555 1_555

#END
