
#######################################################################
#
#                 Cambridge Crystallographic Data Centre
#                                CCDC 
#
#######################################################################
#
# If this CIF has been generated from an entry in the Cambridge 
# Structural Database, then it will include bibliographic, chemical, 
# crystal, experimental, refinement or atomic coordinate data resulting 
# from the CCDC's data processing and validation procedures.
#
#######################################################################

data_EVEGER
_chemical_formula_moiety         '(C42 H32 Mn3 N6 O31 Yb2)n'
_symmetry_cell_setting           hexagonal
_symmetry_space_group_name_H-M   'P 6/m c c'
_symmetry_Int_Tables_number      192
_space_group_name_Hall           '-P 6 2c'
loop_
_symmetry_equiv_pos_site_id
_symmetry_equiv_pos_as_xyz
1 x,y,z
2 -y,x-y,z
3 -x+y,-x,z
4 y,-x+y,z
5 x-y,x,z
6 y,x,1/2-z
7 -x+y,y,1/2-z
8 x,x-y,1/2-z
9 -x,-y,z
10 x-y,-y,1/2-z
11 -x,-x+y,1/2-z
12 -y,-x,1/2-z
13 -x,-y,-z
14 y,-x+y,-z
15 x-y,x,-z
16 -y,x-y,-z
17 -x+y,-x,-z
18 -y,-x,1/2+z
19 x-y,-y,1/2+z
20 -x,-x+y,1/2+z
21 x,y,-z
22 -x+y,y,1/2+z
23 x,x-y,1/2+z
24 y,x,1/2+z
_cell_length_a                   15.440(5)
_cell_length_b                   15.440(5)
_cell_length_c                   16.254(12)
_cell_angle_alpha                90
_cell_angle_beta                 90
_cell_angle_gamma                120
_cell_volume                     3355.72
loop_
_atom_site_label
_atom_site_type_symbol
_atom_site_fract_x
_atom_site_fract_y
_atom_site_fract_z
O1 O 0.790(3) 0.742(2) 1.0000
Yb1 Yb 0.3333 0.6667 0.2500
Mn1 Mn 0.5000 0.5000 0.0000
O2 O 0.4087(6) 0.6104(5) 0.1459(3)
O3 O 0.5490(6) 0.6165(6) 0.0927(4)
O4 O 0.6548(7) 0.5116(8) 0.0000
H1 H 0.7009 0.5533 0.0314
N1 N 0.5190(8) 0.7595(4) 0.2500
C1 C 0.7277(10) 0.8638(5) 0.2500
H2 H 0.7972 0.8986 0.2500
C2 C 0.6748(8) 0.7854(9) 0.1943(7)
H3 H 0.7085 0.7680 0.1563
C3 C 0.5713(7) 0.7344(7) 0.1972(5)
C4 C 0.5042(8) 0.6468(8) 0.1396(5)
O2G O 0.4087(6) 0.7983(8) 0.3541(3)
O3G O 0.5490(6) 0.9325(8) 0.4073(4)
C2G C 0.6748(8) 0.8894(12) 0.3057(7)
H3G H 0.7085 0.9405 0.3437
C3G C 0.5713(7) 0.8369(10) 0.3028(5)
C4G C 0.5042(8) 0.8574(11) 0.3604(5)
H1T H 0.7009 0.5533 -0.0314
Mn1A Mn 0.5000 1.0000 0.0000
O2A O 0.3896(5) 0.7983(8) 0.1459(3)
O3A O 0.3835(6) 0.9325(8) 0.0927(4)
O4A O 0.4884(8) 1.1432(11) 0.0000
H1A H 0.4467 1.1476 0.0314
N1A N 0.2405(4) 0.7595(9) 0.2500
C1A C 0.1362(5) 0.8639(11) 0.2500
H2A H 0.1014 0.8986 0.2500
C2A C 0.2146(9) 0.8894(12) 0.1943(7)
H3A H 0.2320 0.9405 0.1563
C3A C 0.2656(7) 0.8369(10) 0.1972(5)
C4A C 0.3532(8) 0.8574(11) 0.1396(5)
O2F O 0.2017(8) 0.6104(5) 0.3541(3)
O3F O 0.0675(8) 0.6165(6) 0.4073(4)
C2F C 0.1106(12) 0.7854(9) 0.3057(7)
H3F H 0.0595 0.7680 0.3437
C3F C 0.1631(10) 0.7344(7) 0.3028(5)
C4F C 0.1426(11) 0.6468(8) 0.3604(5)
H1O H 0.4467 1.1476 -0.0314
Mn1B Mn 0.0000 0.5000 0.0000
O2B O 0.2017(8) 0.5913(6) 0.1459(3)
O3B O 0.0675(8) 0.4510(6) 0.0927(4)
O4B O -0.1432(11) 0.3452(7) 0.0000
H1B H -0.1476 0.2991 0.0314
N1B N 0.2405(9) 0.4810(8) 0.2500
C1B C 0.1361(11) 0.2723(10) 0.2500
H2B H 0.1014 0.2028 0.2500
C2B C 0.1106(12) 0.3252(8) 0.1943(7)
H3B H 0.0595 0.2915 0.1563
C3B C 0.1631(10) 0.4287(7) 0.1972(5)
C4B C 0.1426(11) 0.4958(8) 0.1396(5)
O2K O 0.3896(5) 0.5913(6) 0.3541(3)
O3K O 0.3835(6) 0.4510(6) 0.4073(4)
C2K C 0.2146(9) 0.3252(8) 0.3057(7)
H3K H 0.2320 0.2915 0.3437
C3K C 0.2656(7) 0.4287(7) 0.3028(5)
C4K C 0.3532(8) 0.4958(8) 0.3604(5)
H1P H -0.1476 0.2991 -0.0314
Yb1C Yb 0.6667 1.3334 0.2500
O2C O 0.6104(5) 1.2017(8) 0.1459(3)
O3C O 0.6165(6) 1.0675(8) 0.0927(4)
O4C O 0.5116(8) 0.8568(11) 0.0000
H1C H 0.5533 0.8524 0.0314
N1C N 0.7595(4) 1.2405(9) 0.2500
C1C C 0.8638(5) 1.1361(11) 0.2500
H2C H 0.8986 1.1014 0.2500
C2C C 0.7854(9) 1.1106(12) 0.1943(7)
H3C H 0.7680 1.0595 0.1563
C3C C 0.7344(7) 1.1631(10) 0.1972(5)
C4C C 0.6468(8) 1.1426(11) 0.1396(5)
O2I O 0.7983(8) 1.3896(5) 0.3541(3)
O3I O 0.9325(8) 1.3835(6) 0.4073(4)
C2I C 0.8894(12) 1.2146(9) 0.3057(7)
H3I H 0.9405 1.2320 0.3437
C3I C 0.8369(10) 1.2656(7) 0.3028(5)
C4I C 0.8574(11) 1.3532(8) 0.3604(5)
H1M H 0.5533 0.8524 -0.0314
O2D O -0.2017(8) 0.4087(6) 0.1459(3)
O3D O -0.0675(8) 0.5490(6) 0.0927(4)
O4D O 0.1432(11) 0.6548(7) 0.0000
H1D H 0.1476 0.7009 0.0314
N1D N -0.2405(9) 0.5190(8) 0.2500
C1D C -0.1361(11) 0.7277(10) 0.2500
H2D H -0.1014 0.7972 0.2500
C2D C -0.1106(12) 0.6748(8) 0.1943(7)
H3D H -0.0595 0.7085 0.1563
C3D C -0.1631(10) 0.5713(7) 0.1972(5)
C4D C -0.1426(11) 0.5042(8) 0.1396(5)
O2E O -0.3896(5) 0.4087(6) 0.3541(3)
O3E O -0.3835(6) 0.5490(6) 0.4073(4)
C2E C -0.2146(9) 0.6748(8) 0.3057(7)
H3E H -0.2320 0.7085 0.3437
C3E C -0.2656(7) 0.5713(7) 0.3028(5)
C4E C -0.3532(8) 0.5042(8) 0.3604(5)
H1N H 0.1476 0.7009 -0.0314
O4L O 0.3452(7) 0.4884(8) 0.0000
H1L H 0.2991 0.4467 -0.0314
H1H H 0.2991 0.4467 0.0314
O2M O 0.6104(5) 1.2017(8) -0.1459(3)
O3M O 0.6165(6) 1.0675(8) -0.0927(4)
N1M N 0.7595(4) 1.2405(9) -0.2500
C1M C 0.8638(5) 1.1361(11) -0.2500
H2M H 0.8986 1.1014 -0.2500
C2M C 0.7854(9) 1.1106(12) -0.1943(7)
H3M H 0.7680 1.0595 -0.1563
C3M C 0.7344(7) 1.1631(10) -0.1972(5)
C4M C 0.6468(8) 1.1426(11) -0.1396(5)
O2R O 0.7983(8) 1.3896(5) -0.3541(3)
O3R O 0.9325(8) 1.3835(6) -0.4073(4)
C2R C 0.8894(12) 1.2146(9) -0.3057(7)
H3R H 0.9405 1.2320 -0.3437
C3R C 0.8369(10) 1.2656(7) -0.3028(5)
C4R C 0.8574(11) 1.3532(8) -0.3604(5)
Yb1C_2 Yb -0.3333 0.3334 0.2500
Yb1W Yb 0.6667 1.3333 -0.2500
Mn1E Mn -0.5000 0.5000 0.5000
Mn1E_2 Mn 0.5000 0.5000 0.5000
Mn1F Mn -0.0000 0.5000 0.5000
Mn1F_2 Mn 1.0000 1.5000 -0.5000
Mn1F_3 Mn 1.0000 1.5000 0.5000
Mn1G Mn 0.5000 1.0000 0.5000
O2D_2 O 0.7983(8) 1.4087(6) 0.1459(3)
O2E_2 O 0.6104(5) 1.4087(6) 0.3541(3)
O2H O 0.5913(6) 1.3896(5) 0.1459(3)
O2J O 0.5913(6) 1.2017(8) 0.3541(3)
O3T O 0.5490(6) 0.6165(6) -0.0927(4)
O3L O 0.4510(6) 0.3835(6) -0.0927(4)
O3N O -0.0675(8) 0.5490(6) -0.0927(4)
O3O O 0.3835(6) 0.9325(8) -0.0927(4)
O3P O 0.0675(8) 0.4510(6) -0.0927(4)
O3H O 0.4510(6) 0.3835(6) 0.0927(4)
N1D_2 N 0.7595(9) 1.5190(8) 0.2500
N1H N 0.4810(8) 1.2405(4) 0.2500
loop_
_geom_bond_atom_site_label_1
_geom_bond_atom_site_label_2
_geom_bond_site_symmetry_1
_geom_bond_site_symmetry_2
Yb1 O2 1_555 1_555
Mn1 O3 1_555 1_555
O2 C4 1_555 1_555
O3 C4 1_555 1_555
O4 Mn1 1_555 1_555
H1 O4 1_555 1_555
N1 Yb1 1_555 1_555
C1 H2 1_555 1_555
C2 C1 1_555 1_555
H3 C2 1_555 1_555
C3 N1 1_555 1_555
C4 C3 1_555 1_555
O2G Yb1 1_555 1_555
O3G C4G 1_555 1_555
C2G C1 1_555 1_555
H3G C2G 1_555 1_555
C3G N1 1_555 1_555
C4G O2G 1_555 1_555
H1T O4 1_555 1_555
Mn1A O3A 1_555 1_555
O2A Yb1 1_555 1_555
O3A C4A 1_555 1_555
O4A Mn1A 1_555 1_555
H1A O4A 1_555 1_555
N1A Yb1 1_555 1_555
C1A H2A 1_555 1_555
C2A C1A 1_555 1_555
H3A C2A 1_555 1_555
C3A N1A 1_555 1_555
C4A O2A 1_555 1_555
O2F Yb1 1_555 1_555
O3F C4F 1_555 1_555
C2F C1A 1_555 1_555
H3F C2F 1_555 1_555
C3F N1A 1_555 1_555
C4F O2F 1_555 1_555
H1O O4A 1_555 1_555
Mn1B O3B 1_555 1_555
O2B Yb1 1_555 1_555
O3B C4B 1_555 1_555
O4B Mn1B 1_555 1_555
H1B O4B 1_555 1_555
N1B Yb1 1_555 1_555
C1B H2B 1_555 1_555
C2B C1B 1_555 1_555
H3B C2B 1_555 1_555
C3B N1B 1_555 1_555
C4B O2B 1_555 1_555
O2K Yb1 1_555 1_555
O3K C4K 1_555 1_555
C2K C1B 1_555 1_555
H3K C2K 1_555 1_555
C3K N1B 1_555 1_555
C4K O2K 1_555 1_555
H1P O4B 1_555 1_555
Yb1C O2C 1_555 1_555
O2C C4C 1_555 1_555
O3C Mn1A 1_555 1_555
O4C Mn1A 1_555 1_555
H1C O4C 1_555 1_555
N1C Yb1C 1_555 1_555
C1C H2C 1_555 1_555
C2C C1C 1_555 1_555
H3C C2C 1_555 1_555
C3C N1C 1_555 1_555
C4C O3C 1_555 1_555
O2I Yb1C 1_555 1_555
O3I C4I 1_555 1_555
C2I C1C 1_555 1_555
H3I C2I 1_555 1_555
C3I N1C 1_555 1_555
C4I O2I 1_555 1_555
H1M O4C 1_555 1_555
O2D C4D 1_555 1_555
O3D Mn1B 1_555 1_555
O4D Mn1B 1_555 1_555
H1D O4D 1_555 1_555
N1D C3D 1_555 1_555
C1D H2D 1_555 1_555
C2D C1D 1_555 1_555
H3D C2D 1_555 1_555
C3D C2D 1_555 1_555
C4D O3D 1_555 1_555
O2E C4E 1_555 1_555
O3E C4E 1_555 1_555
C2E C1D 1_555 1_555
H3E C2E 1_555 1_555
C3E N1D 1_555 1_555
C4E C3E 1_555 1_555
H1N O4D 1_555 1_555
O4L Mn1 1_555 1_555
H1L O4L 1_555 1_555
H1H O4L 1_555 1_555
O2M C4M 1_555 1_555
O3M Mn1A 1_555 1_555
N1M C3M 1_555 1_555
C1M H2M 1_555 1_555
C2M C1M 1_555 1_555
H3M C2M 1_555 1_555
C3M C2M 1_555 1_555
C4M O3M 1_555 1_555
O2R C4R 1_555 1_555
O3R C4R 1_555 1_555
C2R C1M 1_555 1_555
H3R C2R 1_555 1_555
C3R N1M 1_555 1_555
C4R C3R 1_555 1_555
Yb1C_2 O2D 1_555 1_555
Yb1W O2M 1_555 1_555
Mn1E O3E 1_555 1_555
Mn1E_2 O3K 1_555 1_555
Mn1F O3F 1_555 1_555
Mn1F_2 O3R 1_555 1_555
Mn1F_3 O3I 1_555 1_555
Mn1G O3G 1_555 1_555
O2D_2 Yb1C 1_555 1_555
O2E_2 Yb1C 1_555 1_555
O2H Yb1C 1_555 1_555
O2J Yb1C 1_555 1_555
O3T Mn1 1_555 1_555
O3L Mn1 1_555 1_555
O3N Mn1B 1_555 1_555
O3O Mn1A 1_555 1_555
O3P Mn1B 1_555 1_555
O3H Mn1 1_555 1_555
N1D_2 Yb1C 1_555 1_555
N1H Yb1C 1_555 1_555
C2 C3 1_555 1_555
C2G C3G 1_555 1_555
C3G C4G 1_555 1_555
C2A C3A 1_555 1_555
C3A C4A 1_555 1_555
C2F C3F 1_555 1_555
C3F C4F 1_555 1_555
C2B C3B 1_555 1_555
C3B C4B 1_555 1_555
C2K C3K 1_555 1_555
C3K C4K 1_555 1_555
C2C C3C 1_555 1_555
C3C C4C 1_555 1_555
C2I C3I 1_555 1_555
C3I C4I 1_555 1_555
N1D Yb1C_2 1_555 1_555
C3D C4D 1_555 1_555
O2E Yb1C_2 1_555 1_555
C2E C3E 1_555 1_555
N1M Yb1W 1_555 1_555
C3M C4M 1_555 1_555
O2R Yb1W 1_555 1_555
C2R C3R 1_555 1_555

#END
