
#######################################################################
#
#                 Cambridge Crystallographic Data Centre
#                                CCDC 
#
#######################################################################
#
# If this CIF has been generated from an entry in the Cambridge 
# Structural Database, then it will include bibliographic, chemical, 
# crystal, experimental, refinement or atomic coordinate data resulting 
# from the CCDC's data processing and validation procedures.
#
#######################################################################

data_UQEFAZ
_chemical_formula_moiety         '(C14 H8 Ca1 Kr1 O6 S1)n'
_symmetry_cell_setting           monoclinic
_symmetry_space_group_name_H-M   'P 21/n'
_symmetry_Int_Tables_number      14
_space_group_name_Hall           '-P 2yn'
loop_
_symmetry_equiv_pos_site_id
_symmetry_equiv_pos_as_xyz
1 x,y,z
2 1/2-x,1/2+y,1/2-z
3 -x,-y,-z
4 1/2+x,1/2-y,1/2+z
_cell_length_a                   11.8819(3)
_cell_length_b                   5.55550(10)
_cell_length_c                   22.6411(5)
_cell_angle_alpha                90
_cell_angle_beta                 101.302(2)
_cell_angle_gamma                90
_cell_volume                     1465.55
loop_
_atom_site_label
_atom_site_type_symbol
_atom_site_fract_x
_atom_site_fract_y
_atom_site_fract_z
Kr1 Kr 0.7034(3) -0.0975(8) 0.23453(14)
Ca1 Ca 0.10216(3) 0.73476(6) 0.042089(14)
S1 S 0.39234(3) 0.52469(7) 0.104576(17)
O1 O 0.90738(10) 0.5927(2) 0.02680(5)
O2 O 0.38235(11) 0.9616(2) 0.38006(6)
O3 O 0.37900(11) 0.2674(2) 0.09805(6)
O4 O 0.86789(11) 0.9838(2) 0.02963(5)
O5 O 0.30944(10) 0.6829(2) 0.06774(5)
O6 O 0.39372(11) 0.5661(2) 0.39920(6)
C1 C 0.39875(14) 0.6964(3) 0.30054(7)
C2 C 0.39781(14) 0.5978(3) 0.18083(7)
C3 C 0.52786(14) 0.6015(3) 0.08913(7)
C4 C 0.73430(14) 0.7087(3) 0.05665(7)
C5 C 0.44349(15) 0.4792(3) 0.28465(7)
H1 H 0.4733 0.3648 0.3149
C6 C 0.84398(13) 0.7668(3) 0.03573(7)
C7 C 0.71987(14) 0.4872(3) 0.08301(8)
H2 H 0.7806 0.3731 0.0894
C8 C 0.35538(14) 0.8650(3) 0.25628(7)
H3 H 0.3269 1.0144 0.2676
C9 C 0.39155(14) 0.7457(3) 0.36557(7)
C10 C 0.61600(14) 0.4334(3) 0.09995(8)
H4 H 0.6057 0.2840 0.1186
C11 C 0.44452(15) 0.4302(3) 0.22446(8)
H5 H 0.4766 0.2844 0.2133
C12 C 0.54223(14) 0.8261(3) 0.06440(8)
H6 H 0.4820 0.9414 0.0586
C13 C 0.35342(14) 0.8167(3) 0.19571(7)
H7 H 0.3227 0.9300 0.1654
C14 C 0.64667(14) 0.8779(3) 0.04840(8)
H8 H 0.6582 1.0306 0.0316
Ca1_2 Ca 1.10216(3) 0.73476(6) 0.042089(14)
Ca1A Ca 0.39784(3) 0.23476(6) 0.457911(14)
Ca1A_2 Ca 0.39784(3) 1.23476(6) 0.457911(14)
Ca1B Ca 0.89784(3) 0.26524(6) -0.042089(14)
Ca1B_2 Ca 0.89784(3) 1.26524(6) -0.042089(14)
O1_2 O -0.09262(10) 0.5927(2) 0.02680(5)
O1B O 0.09262(10) 0.4073(2) -0.02680(5)
O2A O 0.11765(11) 0.4616(2) 0.11994(6)
O4B O 0.13211(11) 1.0162(2) -0.02963(5)
O6A O 0.10628(11) 1.0661(2) 0.10080(6)
loop_
_geom_bond_atom_site_label_1
_geom_bond_atom_site_label_2
_geom_bond_site_symmetry_1
_geom_bond_site_symmetry_2
Ca1 O5 1_555 1_555
S1 O3 1_555 1_555
O1 C6 1_555 1_555
O2 C9 1_555 1_555
O4 C6 1_555 1_555
O5 S1 1_555 1_555
O6 C9 1_555 1_555
C1 C5 1_555 1_555
C2 S1 1_555 1_555
C3 S1 1_555 1_555
C4 C6 1_555 1_555
C5 H1 1_555 1_555
C7 C4 1_555 1_555
H2 C7 1_555 1_555
C8 C1 1_555 1_555
H3 C8 1_555 1_555
C9 C1 1_555 1_555
C10 C3 1_555 1_555
H4 C10 1_555 1_555
C11 C2 1_555 1_555
H5 C11 1_555 1_555
C12 C3 1_555 1_555
H6 C12 1_555 1_555
C13 C2 1_555 1_555
H7 C13 1_555 1_555
C14 C4 1_555 1_555
H8 C14 1_555 1_555
Ca1_2 O1 1_555 1_555
Ca1A O6 1_555 1_555
Ca1A_2 O2 1_555 1_555
Ca1B O1 1_555 1_555
Ca1B_2 O4 1_555 1_555
O1_2 Ca1 1_555 1_555
O1B Ca1 1_555 1_555
O2A Ca1 1_555 1_555
O4B Ca1 1_555 1_555
O6A Ca1 1_555 1_555
C5 C11 1_555 1_555
C7 C10 1_555 1_555
C8 C13 1_555 1_555
C12 C14 1_555 1_555

#END
