
#######################################################################
#
#                 Cambridge Crystallographic Data Centre
#                                CCDC 
#
#######################################################################
#
# If this CIF has been generated from an entry in the Cambridge 
# Structural Database, then it will include bibliographic, chemical, 
# crystal, experimental, refinement or atomic coordinate data resulting 
# from the CCDC's data processing and validation procedures.
#
#######################################################################

data_NEYVEU
_chemical_formula_moiety         'C138 H106 N20 O43 Zn20'
_symmetry_cell_setting           cubic
_symmetry_space_group_name_H-M   'P -4 3 n'
_symmetry_Int_Tables_number      218
_space_group_name_Hall           'P -4n 2 3'
loop_
_symmetry_equiv_pos_site_id
_symmetry_equiv_pos_as_xyz
1 x,y,z
2 -x,-y,z
3 -x,y,-z
4 x,-y,-z
5 z,x,y
6 z,-x,-y
7 -z,-x,y
8 -z,x,-y
9 y,z,x
10 -y,z,-x
11 y,-z,-x
12 -y,-z,x
13 1/2+y,1/2+x,1/2+z
14 1/2-y,1/2-x,1/2+z
15 1/2+y,1/2-x,1/2-z
16 1/2-y,1/2+x,1/2-z
17 1/2+x,1/2+z,1/2+y
18 1/2-x,1/2+z,1/2-y
19 1/2-x,1/2-z,1/2+y
20 1/2+x,1/2-z,1/2-y
21 1/2+z,1/2+y,1/2+x
22 1/2+z,1/2-y,1/2-x
23 1/2-z,1/2+y,1/2-x
24 1/2-z,1/2-y,1/2+x
_cell_length_a                   27.6571(16)
_cell_length_b                   27.6571(16)
_cell_length_c                   27.6571(16)
_cell_angle_alpha                90
_cell_angle_beta                 90
_cell_angle_gamma                90
_cell_volume                     21155.3
loop_
_atom_site_label
_atom_site_type_symbol
_atom_site_fract_x
_atom_site_fract_y
_atom_site_fract_z
O3 O -0.1061(8) 0.6448(8) 0.9898(14)
O4 O 0.0777(9) 0.5766(9) 0.8613(8)
O5 O 0.2062(8) 0.8259(8) 1.1498(8)
O6 O 0.3054(11) 0.7165(11) 1.0411(11)
O7 O 0.2286(7) 0.6876(8) 1.005(2)
Zn1 Zn -0.0000 0.69817(2) 0.5000
N1 N -0.0000 0.62740(15) 0.5000
O1 O 0.05260(13) 0.79009(15) 0.55225(13)
O2 O 0.04982(19) 0.70795(11) 0.54853(19)
C1 C 0.0652(2) 0.74209(19) 0.5643(2)
C2 C 0.10373(8) 0.74582(17) 0.60859(10)
C3 C 0.12444(13) 0.70439(16) 0.62809(14)
H1 H 0.1145 0.6741 0.6175
C4 C 0.15994(16) 0.70829(19) 0.66345(17)
H2 H 0.1738 0.6806 0.6765
C5 C 0.17474(18) 0.7536(2) 0.67931(18)
C6 C 0.15404(17) 0.79506(18) 0.65980(16)
H3 H 0.1639 0.8254 0.6704
C7 C 0.11853(13) 0.79116(16) 0.62445(12)
H4 H 0.1047 0.8189 0.6114
C8 C 0.21875(19) 0.7469(3) 0.7120(2)
C9 C 0.2154(2) 0.7141(3) 0.7485(3)
H5 H 0.1887 0.6939 0.7514
C10 C -0.0000 0.52672(15) 0.5000
C11 C 0.0367(2) 0.6042(2) 0.52017(16)
H6 H 0.0621 0.6216 0.5337
C12 C 0.0377(2) 0.5528(3) 0.5214(2)
N2 N 0.0756(5) 0.5233(7) 0.5416(4)
H7 H 0.0737 0.4923 0.5399
H8 H 0.1001 0.5367 0.5554
N1A N -0.0000 0.37260(15) 0.5000
C10A C -0.0000 0.47328(15) 0.5000
C11A C -0.0367(2) 0.3958(2) 0.52017(16)
H6A H -0.0621 0.3784 0.5337
C12A C -0.0377(2) 0.4472(3) 0.5214(2)
N2A N -0.0756(5) 0.4767(7) 0.5416(4)
H7A H -0.0737 0.5077 0.5399
H8A H -0.1001 0.4633 0.5554
C11B C -0.0367(2) 0.6042(2) 0.47983(16)
H6B H -0.0621 0.6216 0.4663
C12B C -0.0377(2) 0.5528(3) 0.4786(2)
N2B N -0.0756(5) 0.5233(7) 0.4584(4)
H7B H -0.0737 0.4923 0.4601
H8B H -0.1001 0.5367 0.4446
C11C C 0.0367(2) 0.3958(2) 0.47983(16)
H6C H 0.0621 0.3784 0.4663
C12C C 0.0377(2) 0.4472(3) 0.4786(2)
N2C N 0.0756(5) 0.4767(7) 0.4584(4)
H7C H 0.0737 0.5077 0.4601
H8C H 0.1001 0.4633 0.4446
O1F O 0.44775(13) 0.94740(13) 0.79009(15)
O2F O 0.45147(19) 0.95018(19) 0.70795(11)
C1F C 0.4357(2) 0.9348(2) 0.74209(19)
C2F C 0.39141(10) 0.89627(8) 0.74582(17)
C3F C 0.37191(14) 0.87556(13) 0.70439(16)
H1F H 0.3825 0.8855 0.6741
C4F C 0.33655(17) 0.84006(16) 0.70829(19)
H2F H 0.3235 0.8262 0.6806
C5F C 0.32069(18) 0.82526(18) 0.7536(2)
C6F C 0.34020(16) 0.84596(17) 0.79506(18)
H3F H 0.3296 0.8361 0.8254
C7F C 0.37555(12) 0.88147(13) 0.79116(16)
H4F H 0.3886 0.8953 0.8189
C8F C 0.2880(2) 0.78125(19) 0.7469(3)
C9F C 0.2515(3) 0.7846(2) 0.7141(3)
H5F H 0.2486 0.8113 0.6939
O1I O 0.20991(15) 0.55225(13) 0.94740(13)
O2I O 0.29205(11) 0.54853(19) 0.95018(19)
C1I C 0.25791(19) 0.5643(2) 0.9348(2)
C2I C 0.25418(17) 0.60859(10) 0.89627(8)
C3I C 0.29561(16) 0.62809(14) 0.87556(13)
H1I H 0.3259 0.6175 0.8855
C4I C 0.29171(19) 0.66345(17) 0.84006(16)
H2I H 0.3194 0.6765 0.8262
C5I C 0.2464(2) 0.67931(18) 0.82526(18)
C6I C 0.20494(18) 0.65980(16) 0.84596(17)
H3I H 0.1746 0.6704 0.8361
C7I C 0.20884(16) 0.62445(12) 0.88147(13)
H4I H 0.1811 0.6114 0.8953
C8I C 0.2531(3) 0.7120(2) 0.78125(19)
C9I C 0.2859(3) 0.7485(3) 0.7846(2)
H5I H 0.3061 0.7514 0.8113
Zn1A Zn -0.0000 0.30183(2) 0.5000
O1C O 0.05260(13) 0.20991(15) 0.44775(13)
O2C O 0.04982(19) 0.29205(11) 0.45147(19)
C1C C 0.0652(2) 0.25791(19) 0.4357(2)
C2C C 0.10373(8) 0.25418(17) 0.39141(10)
C3C C 0.12444(13) 0.29561(16) 0.37191(14)
H1C H 0.1145 0.3259 0.3825
C4C C 0.15994(16) 0.29171(19) 0.33655(17)
H2C H 0.1738 0.3194 0.3235
C5C C 0.17474(18) 0.2464(2) 0.32069(18)
C6C C 0.15404(17) 0.20494(18) 0.34020(16)
H3C H 0.1639 0.1746 0.3296
C7C C 0.11853(13) 0.20884(16) 0.37555(12)
H4C H 0.1047 0.1811 0.3886
C8C C 0.21875(19) 0.2531(3) 0.2880(2)
C9C C 0.2154(2) 0.2859(3) 0.2515(3)
H5C H 0.1887 0.3061 0.2486
O1G O 0.44775(13) 0.05260(13) 0.20991(15)
O2G O 0.45147(19) 0.04982(19) 0.29205(11)
C1G C 0.4357(2) 0.0652(2) 0.25791(19)
C2G C 0.39141(10) 0.10373(8) 0.25418(17)
C3G C 0.37191(14) 0.12444(13) 0.29561(16)
H1G H 0.3825 0.1145 0.3259
C4G C 0.33655(17) 0.15994(16) 0.29171(19)
H2G H 0.3235 0.1738 0.3194
C5G C 0.32069(18) 0.17474(18) 0.2464(2)
C6G C 0.34020(16) 0.15404(17) 0.20494(18)
H3G H 0.3296 0.1639 0.1746
C7G C 0.37555(12) 0.11853(13) 0.20884(16)
H4G H 0.3886 0.1047 0.1811
C8G C 0.2880(2) 0.21875(19) 0.2531(3)
C9G C 0.2515(3) 0.2154(2) 0.2859(3)
H5G H 0.2486 0.1887 0.3061
O1K O 0.20991(15) 0.44775(13) 0.05260(13)
O2K O 0.29205(11) 0.45147(19) 0.04982(19)
C1K C 0.25791(19) 0.4357(2) 0.0652(2)
C2K C 0.25418(17) 0.39141(10) 0.10373(8)
C3K C 0.29561(16) 0.37191(14) 0.12444(13)
H1K H 0.3259 0.3825 0.1145
C4K C 0.29171(19) 0.33655(17) 0.15994(16)
H2K H 0.3194 0.3235 0.1738
C5K C 0.2464(2) 0.32069(18) 0.17474(18)
C6K C 0.20494(18) 0.34020(16) 0.15404(17)
H3K H 0.1746 0.3296 0.1639
C7K C 0.20884(16) 0.37555(12) 0.11853(13)
H4K H 0.1811 0.3886 0.1047
C8K C 0.2531(3) 0.2880(2) 0.21875(19)
C9K C 0.2859(3) 0.2515(3) 0.2154(2)
H5K H 0.3061 0.2486 0.1887
Zn1U Zn -0.0000 0.80183(2) 0.5000
Zn1Q Zn -0.5000 1.0000 0.80183(2)
O1S O -0.44740(13) 0.94775(13) 0.70991(15)
O2S O -0.45018(19) 0.95147(19) 0.79205(11)
C1S C -0.4348(2) 0.9357(2) 0.75791(19)
C2S C -0.39627(8) 0.89141(10) 0.75418(17)
C3S C -0.37556(13) 0.87191(14) 0.79561(16)
H1S H -0.3855 0.8825 0.8259
C4S C -0.34006(16) 0.83655(17) 0.79171(19)
H2S H -0.3262 0.8235 0.8194
C5S C -0.32526(18) 0.82069(18) 0.7464(2)
C6S C -0.34596(17) 0.84020(16) 0.70494(18)
H3S H -0.3361 0.8296 0.6746
C7S C -0.38147(13) 0.87555(12) 0.70884(16)
H4S H -0.3953 0.8886 0.6811
C8S C -0.28125(19) 0.7880(2) 0.7531(3)
C9S C -0.2846(2) 0.7515(3) 0.7859(3)
H5S H -0.3113 0.7486 0.8061
O1W O -0.05225(13) 0.70991(15) 0.55260(13)
O2W O -0.04853(19) 0.79205(11) 0.54982(19)
C1W C -0.0643(2) 0.75791(19) 0.5652(2)
C2W C -0.10859(10) 0.75418(17) 0.60373(8)
C3W C -0.12809(14) 0.79561(16) 0.62444(13)
H1W H -0.1175 0.8259 0.6145
C4W C -0.16345(17) 0.79171(19) 0.65994(16)
H2W H -0.1765 0.8194 0.6738
C5W C -0.17931(18) 0.7464(2) 0.67474(18)
C6W C -0.15980(16) 0.70494(18) 0.65404(17)
H3W H -0.1704 0.6746 0.6639
C7W C -0.12445(12) 0.70884(16) 0.61853(13)
H4W H -0.1114 0.6811 0.6047
C8W C -0.2120(2) 0.7531(3) 0.71875(19)
C9W C -0.2485(3) 0.7859(3) 0.7154(2)
H5W H -0.2514 0.8061 0.6887
O1O O -0.29009(15) 0.55260(13) 0.94775(13)
O2O O -0.20795(11) 0.54982(19) 0.95147(19)
C1O C -0.24209(19) 0.5652(2) 0.9357(2)
C2O C -0.24582(17) 0.60373(8) 0.89141(10)
C3O C -0.20439(16) 0.62444(13) 0.87191(14)
H1O H -0.1741 0.6145 0.8825
C4O C -0.20829(19) 0.65994(16) 0.83655(17)
H2O H -0.1806 0.6738 0.8235
C5O C -0.2536(2) 0.67474(18) 0.82069(18)
C6O C -0.29506(18) 0.65404(17) 0.84020(16)
H3O H -0.3254 0.6639 0.8296
C7O C -0.29116(16) 0.61853(13) 0.87555(12)
H4O H -0.3189 0.6047 0.8886
C8O C -0.2469(3) 0.71875(19) 0.7880(2)
C9O C -0.2141(3) 0.7154(2) 0.7515(3)
H5O H -0.1939 0.6887 0.7486
O1U O 0.05225(13) 0.70991(15) 0.44740(13)
O2U O 0.04853(19) 0.79205(11) 0.45018(19)
C1U C 0.0643(2) 0.75791(19) 0.4348(2)
C2U C 0.10859(10) 0.75418(17) 0.39627(8)
C3U C 0.12809(14) 0.79561(16) 0.37556(13)
H1U H 0.1175 0.8259 0.3855
C4U C 0.16345(17) 0.79171(19) 0.34006(16)
H2U H 0.1765 0.8194 0.3262
C5U C 0.17931(18) 0.7464(2) 0.32526(18)
C6U C 0.15980(16) 0.70494(18) 0.34596(17)
H3U H 0.1704 0.6746 0.3361
C7U C 0.12445(12) 0.70884(16) 0.38147(13)
H4U H 0.1114 0.6811 0.3953
C8U C 0.2120(2) 0.7531(3) 0.28125(19)
C9U C 0.2485(3) 0.7859(3) 0.2846(2)
H5U H 0.2514 0.8061 0.3113
O1L O 0.29009(15) 0.55260(13) 0.05225(13)
O2L O 0.20795(11) 0.54982(19) 0.04853(19)
C1L C 0.24209(19) 0.5652(2) 0.0643(2)
C2L C 0.24582(17) 0.60373(8) 0.10859(10)
C3L C 0.20439(16) 0.62444(13) 0.12809(14)
H1L H 0.1741 0.6145 0.1175
C4L C 0.20829(19) 0.65994(16) 0.16345(17)
H2L H 0.1806 0.6738 0.1765
C5L C 0.2536(2) 0.67474(18) 0.17931(18)
C6L C 0.29506(18) 0.65404(17) 0.15980(16)
H3L H 0.3254 0.6639 0.1704
C7L C 0.29116(16) 0.61853(13) 0.12445(12)
H4L H 0.3189 0.6047 0.1114
C8L C 0.2469(3) 0.71875(19) 0.2120(2)
C9L C 0.2141(3) 0.7154(2) 0.2485(3)
H5L H 0.1939 0.6887 0.2514
O1R O 0.44740(13) 0.94775(13) 0.29009(15)
O2R O 0.45018(19) 0.95147(19) 0.20795(11)
C1R C 0.4348(2) 0.9357(2) 0.24209(19)
C2R C 0.39627(8) 0.89141(10) 0.24582(17)
C3R C 0.37556(13) 0.87191(14) 0.20439(16)
H1R H 0.3855 0.8825 0.1741
C4R C 0.34006(16) 0.83655(17) 0.20829(19)
H2R H 0.3262 0.8235 0.1806
C5R C 0.32526(18) 0.82069(18) 0.2536(2)
C6R C 0.34596(17) 0.84020(16) 0.29506(18)
H3R H 0.3361 0.8296 0.3254
C7R C 0.38147(13) 0.87555(12) 0.29116(16)
H4R H 0.3953 0.8886 0.3189
C8R C 0.28125(19) 0.7880(2) 0.2469(3)
C9R C 0.2846(2) 0.7515(3) 0.2141(3)
H5R H 0.3113 0.7486 0.1939
N1U N -0.0000 0.87260(15) 0.5000
C10U C -0.0000 0.97328(15) 0.5000
C11U C 0.02017(16) 0.8958(2) 0.4633(2)
H6U H 0.0337 0.8784 0.4379
C12U C 0.0214(2) 0.9472(3) 0.4623(2)
N2U N 0.0416(4) 0.9767(7) 0.4244(5)
H7U H 0.0399 1.0077 0.4263
H8U H 0.0554 0.9633 0.3999
N1T N -0.0000 1.12740(15) 0.5000
C10T C -0.0000 1.02672(15) 0.5000
C11T C 0.02017(16) 1.1042(2) 0.5367(2)
H6T H 0.0337 1.1216 0.5621
C12T C 0.0214(2) 1.0528(3) 0.5377(2)
N2T N 0.0416(4) 1.0233(7) 0.5756(5)
H7T H 0.0399 0.9923 0.5737
H8T H 0.0554 1.0367 0.6001
C11W C -0.02017(16) 0.8958(2) 0.5367(2)
H6W H -0.0337 0.8784 0.5621
C12W C -0.0214(2) 0.9472(3) 0.5377(2)
N2W N -0.0416(4) 0.9767(7) 0.5756(5)
H7W H -0.0399 1.0077 0.5737
H8W H -0.0554 0.9633 0.6001
C11V C -0.02017(16) 1.1042(2) 0.4633(2)
H6V H -0.0337 1.1216 0.4379
C12V C -0.0214(2) 1.0528(3) 0.4623(2)
N2V N -0.0416(4) 1.0233(7) 0.4244(5)
H7V H -0.0399 0.9923 0.4263
H8V H -0.0554 1.0367 0.3999
Zn1Q_2 Zn 0.5000 1.0000 0.80183(2)
Zn1D Zn 0.5000 1.0000 0.69817(2)
N1Q N -0.5000 1.0000 0.87260(15)
C10Q C -0.5000 1.0000 0.97328(15)
C11S C -0.4633(2) 0.97983(16) 0.8958(2)
H6S H -0.4379 0.9663 0.8784
C12S C -0.4623(2) 0.9786(2) 0.9472(3)
N2S N -0.4244(5) 0.9584(4) 0.9767(7)
H7S H -0.4263 0.9601 1.0077
H8S H -0.3999 0.9446 0.9633
N1P N -0.5000 1.0000 1.12740(15)
C10P C -0.5000 1.0000 1.02672(15)
C11R C -0.5367(2) 0.97983(16) 1.1042(2)
H6R H -0.5621 0.9663 1.1216
C12R C -0.5377(2) 0.9786(2) 1.0528(3)
N2R N -0.5756(5) 0.9584(4) 1.0233(7)
H7R H -0.5737 0.9601 0.9923
H8R H -0.6001 0.9446 1.0367
C11Q C -0.5367(2) 1.02017(16) 0.8958(2)
H6Q H -0.5621 1.0337 0.8784
C12Q C -0.5377(2) 1.0214(2) 0.9472(3)
N2Q N -0.5756(5) 1.0416(4) 0.9767(7)
H7Q H -0.5737 1.0399 1.0077
H8Q H -0.6001 1.0554 0.9633
C11P C -0.4633(2) 1.02017(16) 1.1042(2)
H6P H -0.4379 1.0337 1.1216
C12P C -0.4623(2) 1.0214(2) 1.0528(3)
N2P N -0.4244(5) 1.0416(4) 1.0233(7)
H7P H -0.4263 1.0399 0.9923
H8P H -0.3999 1.0554 1.0367
Zn1D_2 Zn -0.5000 1.0000 0.69817(2)
Zn1E Zn 0.5000 -0.0000 0.30183(2)
Zn1E_2 Zn 0.5000 1.0000 0.30183(2)
Zn1H Zn -0.30183(2) 0.5000 1.0000
Zn1I Zn 0.30183(2) 0.5000 0.0000
Zn1I_2 Zn 0.30183(2) 0.5000 1.0000
Zn1L Zn 0.19817(2) 0.5000 0.0000
Zn1L_2 Zn 0.19817(2) 0.5000 1.0000
Zn1M Zn -0.19817(2) 0.5000 1.0000
Zn1P Zn -0.5000 1.0000 1.19817(2)
Zn1P_2 Zn 0.5000 -0.0000 0.19817(2)
Zn1P_3 Zn 0.5000 1.0000 0.19817(2)
Zn1T Zn -0.0000 0.19817(2) 0.5000
Zn1T_2 Zn -0.0000 1.19817(2) 0.5000
N1D N 0.5000 1.0000 0.62740(15)
N1Q_2 N 0.5000 1.0000 0.87260(15)
O1B O -0.05260(13) 0.79009(15) 0.44775(13)
O1D O -0.44775(13) 1.05260(13) 0.79009(15)
O1D_2 O 0.55225(13) 1.05260(13) 0.79009(15)
O1F_2 O -0.55225(13) 0.94740(13) 0.79009(15)
O1Q O 0.44740(13) 1.05225(13) 0.70991(15)
O1S_2 O 0.55260(13) 0.94775(13) 0.70991(15)
O1T O 0.05225(13) 0.29009(15) 0.55260(13)
O1V O -0.05225(13) 0.29009(15) 0.44740(13)
O2A O -0.04982(19) 0.29205(11) 0.54853(19)
O2B O -0.04982(19) 0.70795(11) 0.45147(19)
O2D O 0.54853(19) 1.04982(19) 0.70795(11)
O2Q O -0.54982(19) 1.04853(19) 0.79205(11)
O2Q_2 O 0.45018(19) 1.04853(19) 0.79205(11)
O2S_2 O 0.54982(19) 0.95147(19) 0.79205(11)
loop_
_geom_bond_atom_site_label_1
_geom_bond_atom_site_label_2
_geom_bond_site_symmetry_1
_geom_bond_site_symmetry_2
Zn1 N1 1_555 1_555
N1 C11 1_555 1_555
O1 C1 1_555 1_555
O2 Zn1 1_555 1_555
C1 O2 1_555 1_555
C2 C1 1_555 1_555
C3 C2 1_555 1_555
H1 C3 1_555 1_555
C4 C3 1_555 1_555
H2 C4 1_555 1_555
C5 C4 1_555 1_555
C6 C5 1_555 1_555
H3 C6 1_555 1_555
C7 C2 1_555 1_555
H4 C7 1_555 1_555
C8 C5 1_555 1_555
C9 C8 1_555 1_555
H5 C9 1_555 1_555
C10 C12 1_555 1_555
C11 H6 1_555 1_555
C12 C11 1_555 1_555
N2 C12 1_555 1_555
H7 N2 1_555 1_555
H8 N2 1_555 1_555
N1A C11A 1_555 1_555
C10A C10 1_555 1_555
C11A H6A 1_555 1_555
C12A C10A 1_555 1_555
N2A C12A 1_555 1_555
H7A N2A 1_555 1_555
H8A N2A 1_555 1_555
C11B N1 1_555 1_555
H6B C11B 1_555 1_555
C12B C10 1_555 1_555
N2B C12B 1_555 1_555
H7B N2B 1_555 1_555
H8B N2B 1_555 1_555
C11C N1A 1_555 1_555
H6C C11C 1_555 1_555
C12C C10A 1_555 1_555
N2C C12C 1_555 1_555
H7C N2C 1_555 1_555
H8C N2C 1_555 1_555
O1F C1F 1_555 1_555
O2F C1F 1_555 1_555
C1F C2F 1_555 1_555
C2F C3F 1_555 1_555
C3F H1F 1_555 1_555
C4F C3F 1_555 1_555
H2F C4F 1_555 1_555
C5F C4F 1_555 1_555
C6F C5F 1_555 1_555
H3F C6F 1_555 1_555
C7F C2F 1_555 1_555
H4F C7F 1_555 1_555
C8F C5F 1_555 1_555
C9F C8 1_555 1_555
H5F C9F 1_555 1_555
O1I C1I 1_555 1_555
O2I C1I 1_555 1_555
C1I C2I 1_555 1_555
C2I C3I 1_555 1_555
C3I H1I 1_555 1_555
C4I C3I 1_555 1_555
H2I C4I 1_555 1_555
C5I C4I 1_555 1_555
C6I C5I 1_555 1_555
H3I C6I 1_555 1_555
C7I C2I 1_555 1_555
H4I C7I 1_555 1_555
C8I C9 1_555 1_555
C9I C8F 1_555 1_555
H5I C9I 1_555 1_555
Zn1A N1A 1_555 1_555
O1C C1C 1_555 1_555
O2C Zn1A 1_555 1_555
C1C O2C 1_555 1_555
C2C C1C 1_555 1_555
C3C C2C 1_555 1_555
H1C C3C 1_555 1_555
C4C C3C 1_555 1_555
H2C C4C 1_555 1_555
C5C C4C 1_555 1_555
C6C C5C 1_555 1_555
H3C C6C 1_555 1_555
C7C C2C 1_555 1_555
H4C C7C 1_555 1_555
C8C C5C 1_555 1_555
C9C C8C 1_555 1_555
H5C C9C 1_555 1_555
O1G C1G 1_555 1_555
O2G C1G 1_555 1_555
C1G C2G 1_555 1_555
C2G C3G 1_555 1_555
C3G H1G 1_555 1_555
C4G C3G 1_555 1_555
H2G C4G 1_555 1_555
C5G C4G 1_555 1_555
C6G C5G 1_555 1_555
H3G C6G 1_555 1_555
C7G C2G 1_555 1_555
H4G C7G 1_555 1_555
C8G C5G 1_555 1_555
C9G C8C 1_555 1_555
H5G C9G 1_555 1_555
O1K C1K 1_555 1_555
O2K C1K 1_555 1_555
C1K C2K 1_555 1_555
C2K C3K 1_555 1_555
C3K H1K 1_555 1_555
C4K C3K 1_555 1_555
H2K C4K 1_555 1_555
C5K C4K 1_555 1_555
C6K C5K 1_555 1_555
H3K C6K 1_555 1_555
C7K C2K 1_555 1_555
H4K C7K 1_555 1_555
C8K C9C 1_555 1_555
C9K C8G 1_555 1_555
H5K C9K 1_555 1_555
Zn1U O1 1_555 1_555
Zn1Q O2S 1_555 1_555
O1S C1S 1_555 1_555
O2S C1S 1_555 1_555
C1S C2S 1_555 1_555
C2S C3S 1_555 1_555
C3S H1S 1_555 1_555
C4S C3S 1_555 1_555
H2S C4S 1_555 1_555
C5S C4S 1_555 1_555
C6S C5S 1_555 1_555
H3S C6S 1_555 1_555
C7S C2S 1_555 1_555
H4S C7S 1_555 1_555
C8S C5S 1_555 1_555
C9S C8S 1_555 1_555
H5S C9S 1_555 1_555
O1W Zn1 1_555 1_555
O2W Zn1U 1_555 1_555
C1W O1W 1_555 1_555
C2W C1W 1_555 1_555
C3W C2W 1_555 1_555
H1W C3W 1_555 1_555
C4W C3W 1_555 1_555
H2W C4W 1_555 1_555
C5W C4W 1_555 1_555
C6W C5W 1_555 1_555
H3W C6W 1_555 1_555
C7W C2W 1_555 1_555
H4W C7W 1_555 1_555
C8W C5W 1_555 1_555
C9W C8S 1_555 1_555
H5W C9W 1_555 1_555
O1O C1O 1_555 1_555
O2O C1O 1_555 1_555
C1O C2O 1_555 1_555
C2O C3O 1_555 1_555
C3O H1O 1_555 1_555
C4O C3O 1_555 1_555
H2O C4O 1_555 1_555
C5O C4O 1_555 1_555
C6O C5O 1_555 1_555
H3O C6O 1_555 1_555
C7O C2O 1_555 1_555
H4O C7O 1_555 1_555
C8O C9S 1_555 1_555
C9O C8W 1_555 1_555
H5O C9O 1_555 1_555
O1U Zn1 1_555 1_555
O2U Zn1U 1_555 1_555
C1U O1U 1_555 1_555
C2U C1U 1_555 1_555
C3U C2U 1_555 1_555
H1U C3U 1_555 1_555
C4U C3U 1_555 1_555
H2U C4U 1_555 1_555
C5U C4U 1_555 1_555
C6U C5U 1_555 1_555
H3U C6U 1_555 1_555
C7U C2U 1_555 1_555
H4U C7U 1_555 1_555
C8U C5U 1_555 1_555
C9U C8U 1_555 1_555
H5U C9U 1_555 1_555
O1L C1L 1_555 1_555
O2L C1L 1_555 1_555
C1L C2L 1_555 1_555
C2L C3L 1_555 1_555
C3L H1L 1_555 1_555
C4L C3L 1_555 1_555
H2L C4L 1_555 1_555
C5L C4L 1_555 1_555
C6L C5L 1_555 1_555
H3L C6L 1_555 1_555
C7L C2L 1_555 1_555
H4L C7L 1_555 1_555
C8L C5L 1_555 1_555
C9L C8U 1_555 1_555
H5L C9L 1_555 1_555
O1R C1R 1_555 1_555
O2R C1R 1_555 1_555
C1R C2R 1_555 1_555
C2R C3R 1_555 1_555
C3R H1R 1_555 1_555
C4R C3R 1_555 1_555
H2R C4R 1_555 1_555
C5R C4R 1_555 1_555
C6R C5R 1_555 1_555
H3R C6R 1_555 1_555
C7R C2R 1_555 1_555
H4R C7R 1_555 1_555
C8R C9U 1_555 1_555
C9R C8L 1_555 1_555
H5R C9R 1_555 1_555
N1U Zn1U 1_555 1_555
C10U C12U 1_555 1_555
C11U N1U 1_555 1_555
H6U C11U 1_555 1_555
C12U C11U 1_555 1_555
N2U C12U 1_555 1_555
H7U N2U 1_555 1_555
H8U N2U 1_555 1_555
N1T C11T 1_555 1_555
C10T C10U 1_555 1_555
C11T H6T 1_555 1_555
C12T C10T 1_555 1_555
N2T C12T 1_555 1_555
H7T N2T 1_555 1_555
H8T N2T 1_555 1_555
C11W N1U 1_555 1_555
H6W C11W 1_555 1_555
C12W C10U 1_555 1_555
N2W C12W 1_555 1_555
H7W N2W 1_555 1_555
H8W N2W 1_555 1_555
C11V N1T 1_555 1_555
H6V C11V 1_555 1_555
C12V C10T 1_555 1_555
N2V C12V 1_555 1_555
H7V N2V 1_555 1_555
H8V N2V 1_555 1_555
Zn1Q_2 O1F 1_555 1_555
Zn1D O2F 1_555 1_555
N1Q Zn1Q 1_555 1_555
C10Q C12S 1_555 1_555
C11S N1Q 1_555 1_555
H6S C11S 1_555 1_555
C12S C11S 1_555 1_555
N2S C12S 1_555 1_555
H7S N2S 1_555 1_555
H8S N2S 1_555 1_555
N1P C11R 1_555 1_555
C10P C10Q 1_555 1_555
C11R H6R 1_555 1_555
C12R C10P 1_555 1_555
N2R C12R 1_555 1_555
H7R N2R 1_555 1_555
H8R N2R 1_555 1_555
C11Q N1Q 1_555 1_555
H6Q C11Q 1_555 1_555
C12Q C10Q 1_555 1_555
N2Q C12Q 1_555 1_555
H7Q N2Q 1_555 1_555
H8Q N2Q 1_555 1_555
C11P N1P 1_555 1_555
H6P C11P 1_555 1_555
C12P C10P 1_555 1_555
N2P C12P 1_555 1_555
H7P N2P 1_555 1_555
H8P N2P 1_555 1_555
Zn1D_2 O1S 1_555 1_555
Zn1E O2G 1_555 1_555
Zn1E_2 O1R 1_555 1_555
Zn1H O1O 1_555 1_555
Zn1I O2K 1_555 1_555
Zn1I_2 O2I 1_555 1_555
Zn1L O1K 1_555 1_555
Zn1L_2 O1I 1_555 1_555
Zn1M O2O 1_555 1_555
Zn1P N1P 1_555 1_555
Zn1P_2 O1G 1_555 1_555
Zn1P_3 O2R 1_555 1_555
Zn1T O1C 1_555 1_555
Zn1T_2 N1T 1_555 1_555
N1D Zn1D 1_555 1_555
N1Q_2 Zn1Q_2 1_555 1_555
O1B Zn1U 1_555 1_555
O1D Zn1Q 1_555 1_555
O1D_2 Zn1Q_2 1_555 1_555
O1F_2 Zn1Q 1_555 1_555
O1Q Zn1D 1_555 1_555
O1S_2 Zn1D 1_555 1_555
O1T Zn1A 1_555 1_555
O1V Zn1A 1_555 1_555
O2A Zn1A 1_555 1_555
O2B Zn1 1_555 1_555
O2D Zn1D 1_555 1_555
O2Q Zn1Q 1_555 1_555
O2Q_2 Zn1Q_2 1_555 1_555
O2S_2 Zn1Q_2 1_555 1_555
C6 C7 1_555 1_555
C11A C12A 1_555 1_555
C11B C12B 1_555 1_555
C11C C12C 1_555 1_555
C6F C7F 1_555 1_555
C8F C9F 1_555 1_555
C5I C8I 1_555 1_555
C6I C7I 1_555 1_555
C8I C9I 1_555 1_555
C6C C7C 1_555 1_555
C6G C7G 1_555 1_555
C8G C9G 1_555 1_555
C5K C8K 1_555 1_555
C6K C7K 1_555 1_555
C8K C9K 1_555 1_555
C6S C7S 1_555 1_555
O2W C1W 1_555 1_555
C6W C7W 1_555 1_555
C8W C9W 1_555 1_555
C5O C8O 1_555 1_555
C6O C7O 1_555 1_555
C8O C9O 1_555 1_555
O2U C1U 1_555 1_555
C6U C7U 1_555 1_555
O1L Zn1I 1_555 1_555
O2L Zn1L 1_555 1_555
C6L C7L 1_555 1_555
C8L C9L 1_555 1_555
C5R C8R 1_555 1_555
C6R C7R 1_555 1_555
C8R C9R 1_555 1_555
C11T C12T 1_555 1_555
C11W C12W 1_555 1_555
C11V C12V 1_555 1_555
C11R C12R 1_555 1_555
C11Q C12Q 1_555 1_555
C11P C12P 1_555 1_555

#END
