
#######################################################################
#
#                 Cambridge Crystallographic Data Centre
#                                CCDC 
#
#######################################################################
#
# If this CIF has been generated from an entry in the Cambridge 
# Structural Database, then it will include bibliographic, chemical, 
# crystal, experimental, refinement or atomic coordinate data resulting 
# from the CCDC's data processing and validation procedures.
#
#######################################################################

data_QOVXAC
_chemical_formula_moiety         '(C42 H30 N12 Zn3)n'
_symmetry_cell_setting           triclinic
_symmetry_space_group_name_H-M   'P -1'
_symmetry_Int_Tables_number      2
_space_group_name_Hall           '-P 1'
loop_
_symmetry_equiv_pos_site_id
_symmetry_equiv_pos_as_xyz
1 x,y,z
2 -x,-y,-z
_cell_length_a                   14.29698
_cell_length_b                   14.17061
_cell_length_c                   14.32013
_cell_angle_alpha                107.4945
_cell_angle_beta                 108.1296
_cell_angle_gamma                106.599
_cell_volume                     2388.45
loop_
_atom_site_label
_atom_site_type_symbol
_atom_site_fract_x
_atom_site_fract_y
_atom_site_fract_z
N1 N 0.736060 1.10992 1.413012
C1 C 0.804051 1.117335 1.505743
H1 H 0.810696 1.056524 1.513797
N2 N 0.862563 1.218049 1.587098
C2 C 0.748117 1.216943 1.43538
C3 C 0.699694 1.260008 1.370667
H2 H 0.647610 1.216132 1.299439
C4 C 0.731293 1.370455 1.416093
H3 H 0.699457 1.4019 1.374703
C5 C 0.811598 1.438312 1.524468
H4 H 0.830842 1.513009 1.552585
C6 C 0.827806 1.284177 1.543003
C7 C 0.861038 1.395944 1.588317
H5 H 0.914677 1.440206 1.658994
N3 N 0.826701 0.930428 1.284916
C8 C 0.820891 0.830969 1.237999
H6 H 0.754988 0.770264 1.194831
N4 N 0.916048 0.82353 1.256771
C9 C 0.993247 0.930358 1.325159
C10 C 1.105232 0.972950 1.369566
H7 H 1.141441 0.929108 1.355822
C11 C 0.937893 0.996604 1.343971
C12 C 0.993360 1.107012 1.407838
H8 H 0.957255 1.151165 1.419944
C13 C 1.160157 1.082327 1.434359
H9 H 1.235591 1.113715 1.466777
C14 C 1.104265 1.148926 1.453273
H10 H 1.144053 1.223115 1.497516
Zn1 Zn 0.70761 0.98928 1.27112
N5 N 1.095435 1.425635 1.749853
C15 C 1.096102 1.523881 1.789326
H11 H 1.033882 1.535682 1.765969
N6 N 1.192161 1.605065 1.865014
C16 C 1.203382 1.443229 1.802690
C17 C 1.251949 1.372037 1.795842
H12 H 1.212862 1.29855 1.748617
C18 C 1.360679 1.414416 1.861385
H13 H 1.395998 1.36854 1.858026
C19 C 1.420866 1.526346 1.934606
H14 H 1.494673 1.552201 1.977738
C20 C 1.26302 1.554381 1.875287
C21 C 1.372454 1.596857 1.942797
H15 H 1.411242 1.670063 1.991604
N7 N 0.954163 1.265792 1.845127
C22 C 0.855078 1.219583 1.837203
H16 H 0.794273 1.180403 1.770526
N8 N 0.848170 1.232956 1.931412
C23 C 0.955012 1.296591 2.01039
C24 C 0.997984 1.334406 2.122297
H17 H 0.954449 1.318685 2.15712
C25 C 1.020737 1.318361 1.957023
C26 C 1.130998 1.378661 2.014455
H18 H 1.17479 1.392669 1.979628
C27 C 1.10726 1.395724 2.17927
H19 H 1.13893 1.423737 2.25479
C28 C 1.173335 1.417626 2.125381
H20 H 1.247461 1.459356 2.16652
Zn2 Zn 0.99736 1.27892 1.72652
N9 N 0.38985 0.762364 1.096712
C29 C 0.478678 0.849098 1.12524
H21 H 0.481582 0.888300 1.08372
N10 N 0.563983 0.876639 1.217715
C30 C 0.419612 0.725944 1.177282
C31 C 0.361412 0.640159 1.191698
H22 H 0.290203 0.59289 1.142278
C32 C 0.413301 0.627177 1.28192
H23 H 0.376407 0.569471 1.293492
C33 C 0.521698 0.699614 1.358475
H24 H 0.554318 0.688073 1.418726
C34 C 0.527247 0.797897 1.253165
C35 C 0.579079 0.785875 1.345233
H25 H 0.649731 0.834394 1.395847
Zn3 Zn 0.23844 0.73234 0.98644
N11 N 0.738693 1.154587 1.070469
C36 C 0.754475 1.160852 1.169238
H26 H 0.765873 1.223583 1.225053
N12 N 0.752945 1.071015 1.183475
C37 C 0.732303 0.99671 1.081759
C38 C 0.723831 0.891033 1.047900
H27 H 0.73211 0.857949 1.095245
C39 C 0.721894 1.047978 1.011058
C40 C 0.702569 0.994583 0.904751
C41 C 0.702925 0.837591 0.941835
H28 H 0.695332 0.765915 0.915715
C42 C 0.692401 0.889341 0.870712
H29 H 0.67849 0.850809 0.799096
N4A N 1.083952 1.17647 1.743229
N6_2 N 0.192161 0.605065 0.865014
N8A N 0.151830 0.767044 1.068588
Zn2A Zn 1.00264 0.72108 1.27348
Zn3A Zn 0.76156 1.26766 1.01356
Zn3A_2 Zn 0.76156 1.26766 2.01356
Zn3_2 Zn 1.23844 1.73234 1.98644
N11A N 0.261307 0.845413 0.929531
loop_
_geom_bond_atom_site_label_1
_geom_bond_atom_site_label_2
_geom_bond_site_symmetry_1
_geom_bond_site_symmetry_2
N1 C1 1_555 1_555
C1 H1 1_555 1_555
N2 C1 1_555 1_555
C2 N1 1_555 1_555
C3 C2 1_555 1_555
H2 C3 1_555 1_555
C4 C3 1_555 1_555
H3 C4 1_555 1_555
C5 C4 1_555 1_555
H4 C5 1_555 1_555
C6 N2 1_555 1_555
C7 C5 1_555 1_555
H5 C7 1_555 1_555
N3 C8 1_555 1_555
C8 H6 1_555 1_555
N4 C8 1_555 1_555
C9 N4 1_555 1_555
C10 C9 1_555 1_555
H7 C10 1_555 1_555
C11 N3 1_555 1_555
C12 C11 1_555 1_555
H8 C12 1_555 1_555
C13 C10 1_555 1_555
H9 C13 1_555 1_555
C14 C12 1_555 1_555
H10 C14 1_555 1_555
Zn1 N1 1_555 1_555
N5 C15 1_555 1_555
C15 H11 1_555 1_555
N6 C15 1_555 1_555
C16 N5 1_555 1_555
C17 C16 1_555 1_555
H12 C17 1_555 1_555
C18 C17 1_555 1_555
H13 C18 1_555 1_555
C19 C18 1_555 1_555
H14 C19 1_555 1_555
C20 N6 1_555 1_555
C21 C19 1_555 1_555
H15 C21 1_555 1_555
N7 C22 1_555 1_555
C22 H16 1_555 1_555
N8 C22 1_555 1_555
C23 N8 1_555 1_555
C24 C23 1_555 1_555
H17 C24 1_555 1_555
C25 N7 1_555 1_555
C26 C25 1_555 1_555
H18 C26 1_555 1_555
C27 C24 1_555 1_555
H19 C27 1_555 1_555
C28 C26 1_555 1_555
H20 C28 1_555 1_555
Zn2 N2 1_555 1_555
N9 C29 1_555 1_555
C29 H21 1_555 1_555
N10 Zn1 1_555 1_555
C30 N9 1_555 1_555
C31 C30 1_555 1_555
H22 C31 1_555 1_555
C32 C31 1_555 1_555
H23 C32 1_555 1_555
C33 C32 1_555 1_555
H24 C33 1_555 1_555
C34 N10 1_555 1_555
C35 C33 1_555 1_555
H25 C35 1_555 1_555
Zn3 N9 1_555 1_555
N11 C36 1_555 1_555
C36 H26 1_555 1_555
N12 Zn1 1_555 1_555
C37 N12 1_555 1_555
C38 C37 1_555 1_555
H27 C38 1_555 1_555
C39 N11 1_555 1_555
C40 C39 1_555 1_555
C41 C38 1_555 1_555
H28 C41 1_555 1_555
C42 C40 1_555 1_555
H29 C42 1_555 1_555
N4A Zn2 1_555 1_555
N6_2 Zn3 1_555 1_555
N8A Zn3 1_555 1_555
Zn2A N4 1_555 1_555
Zn3A N11 1_555 1_555
Zn3A_2 N8 1_555 1_555
Zn3_2 N6 1_555 1_555
N11A Zn3 1_555 1_555
C2 C6 1_555 1_555
C6 C7 1_555 1_555
N3 Zn1 1_555 1_555
C9 C11 1_555 1_555
C13 C14 1_555 1_555
N5 Zn2 1_555 1_555
C16 C20 1_555 1_555
C20 C21 1_555 1_555
N7 Zn2 1_555 1_555
C23 C25 1_555 1_555
C27 C28 1_555 1_555
C29 N10 1_555 1_555
C30 C34 1_555 1_555
C34 C35 1_555 1_555
C36 N12 1_555 1_555
C37 C39 1_555 1_555
C41 C42 1_555 1_555

#END
