
#######################################################################
#
#                 Cambridge Crystallographic Data Centre
#                                CCDC 
#
#######################################################################
#
# If this CIF has been generated from an entry in the Cambridge 
# Structural Database, then it will include bibliographic, chemical, 
# crystal, experimental, refinement or atomic coordinate data resulting 
# from the CCDC's data processing and validation procedures.
#
#######################################################################

data_YIWBEN
_chemical_formula_moiety         '(C55 H43 Cd2 N5 O9)n'
_symmetry_cell_setting           monoclinic
_symmetry_space_group_name_H-M   'C 2/c'
_symmetry_Int_Tables_number      15
_space_group_name_Hall           '-C 2yc'
loop_
_symmetry_equiv_pos_site_id
_symmetry_equiv_pos_as_xyz
1 x,y,z
2 -x,y,1/2-z
3 1/2+x,1/2+y,z
4 1/2-x,1/2+y,1/2-z
5 -x,-y,-z
6 x,-y,1/2+z
7 1/2-x,1/2-y,-z
8 1/2+x,1/2-y,1/2+z
_cell_length_a                   29.525(6)
_cell_length_b                   14.050(3)
_cell_length_c                   16.602(3)
_cell_angle_alpha                90
_cell_angle_beta                 107.64(3)
_cell_angle_gamma                90
_cell_volume                     6563.12
loop_
_atom_site_label
_atom_site_type_symbol
_atom_site_fract_x
_atom_site_fract_y
_atom_site_fract_z
Cd1 Cd 0.220806(15) 0.26675(3) 0.08866(4)
N1 N 0.2212(2) 0.4335(4) 0.0712(5)
N2 N 0.2186(2) 1.1018(4) 0.0909(5)
O1 O 0.18870(19) 0.2708(4) 0.2133(5)
O2 O 0.1419(2) 0.2821(4) 0.0791(6)
O3 O 0.29686(17) 0.2776(3) 0.1907(5)
O4 O 0.29886(18) 0.2502(3) 0.0603(5)
C1 C 0.1473(3) 0.2783(5) 0.1551(9)
C2 C 0.1041(3) 0.2856(5) 0.1865(7)
C3 C 0.0598(3) 0.2999(7) 0.1281(7)
H1 H 0.0570 0.3065 0.0711
C4 C 0.0193(3) 0.3042(8) 0.1552(7)
H2 H -0.0101 0.3182 0.1165
C5 C 0.0224(3) 0.2887(6) 0.2355(7)
C6 C 0.0671(3) 0.2748(7) 0.2951(9)
H3 H 0.0700 0.2693 0.3523
C7 C 0.1073(3) 0.2694(6) 0.2674(8)
H4 H 0.1366 0.2545 0.3058
C8 C 0.3197(2) 0.2646(4) 0.1382(6)
C9 C 0.3731(2) 0.2698(5) 0.1698(6)
C10 C 0.3968(3) 0.2905(6) 0.2555(7)
H5 H 0.3787 0.2999 0.2920
C11 C 0.4458(3) 0.2973(6) 0.2876(7)
H6 H 0.4603 0.3146 0.3436
C12 C 0.4733(2) 0.2774(5) 0.2335(6)
C13 C 0.4492(3) 0.2591(6) 0.1502(7)
H7 H 0.4663 0.2492 0.1123
C14 C 0.4011(3) 0.2550(5) 0.1219(7)
H8 H 0.3868 0.2409 0.0652
C15 C 0.2502(3) 0.4891(6) 0.1333(7)
H9 H 0.2721 0.4617 0.1801
C16 C 0.2462(4) 0.5880(6) 0.1247(8)
H10 H 0.2680 0.6258 0.1639
C17 C 0.2119(4) 0.6311(6) 0.0618(8)
C18 C 0.1823(4) 0.5729(6) -0.0021(8)
H11 H 0.1597 0.5988 -0.0488
C19 C 0.1885(3) 0.4753(5) 0.0082(7)
H12 H 0.1682 0.4363 -0.0321
C20 C 0.2055(5) 0.7356(7) 0.0547(10)
H13 H 0.1833 0.7564 0.0052
C21 C 0.2243(4) 0.7978(7) 0.1031(10)
H14 H 0.2452 0.7756 0.1535
C22 C 0.2209(3) 0.9020(5) 0.0977(7)
C23 C 0.2501(4) 0.9568(5) 0.1549(9)
H15 H 0.2724 0.9272 0.1997
C24 C 0.2498(3) 1.0531(5) 0.1527(8)
H16 H 0.2718 1.0865 0.1954
C25 C 0.1890(4) 1.0506(5) 0.0318(9)
H17 H 0.1672 1.0819 -0.0128
C26 C 0.1889(4) 0.9496(6) 0.0330(10)
H18 H 0.1673 0.9159 -0.0100
O1A O -0.18870(19) 0.2708(4) 0.2867(5)
O2A O -0.1419(2) 0.2821(4) 0.4209(6)
C1A C -0.1473(3) 0.2783(5) 0.3449(9)
C2A C -0.1041(3) 0.2856(5) 0.3135(7)
C3A C -0.0598(3) 0.2999(7) 0.3719(7)
H1A H -0.0570 0.3065 0.4289
C4A C -0.0193(3) 0.3042(8) 0.3448(7)
H2A H 0.0101 0.3182 0.3835
C5A C -0.0224(3) 0.2887(6) 0.2645(7)
C6A C -0.0671(3) 0.2748(7) 0.2049(9)
H3A H -0.0700 0.2693 0.1477
C7A C -0.1073(3) 0.2694(6) 0.2326(8)
H4A H -0.1366 0.2545 0.1942
O3A O 0.70314(17) 0.2776(3) 0.3093(5)
O4A O 0.70114(18) 0.2502(3) 0.4397(5)
C8A C 0.6803(2) 0.2646(4) 0.3618(6)
C9A C 0.6269(2) 0.2698(5) 0.3302(6)
C10A C 0.6032(3) 0.2905(6) 0.2445(7)
H5A H 0.6213 0.2999 0.2080
C11A C 0.5542(3) 0.2973(6) 0.2124(7)
H6A H 0.5397 0.3146 0.1564
C12A C 0.5267(2) 0.2774(5) 0.2665(6)
C13A C 0.5508(3) 0.2591(6) 0.3498(7)
H7A H 0.5337 0.2492 0.3877
C14A C 0.5989(3) 0.2550(5) 0.3781(7)
H8A H 0.6132 0.2409 0.4348
Cd1A Cd -0.220806(15) 0.26675(3) 0.41134(4)
N1A N -0.2212(2) 0.4335(4) 0.4288(5)
N2A N -0.2186(2) 1.1018(4) 0.4091(5)
C15A C -0.2502(3) 0.4891(6) 0.3667(7)
H9A H -0.2721 0.4617 0.3199
C16A C -0.2462(4) 0.5880(6) 0.3753(8)
H10A H -0.2680 0.6258 0.3361
C17A C -0.2119(4) 0.6311(6) 0.4382(8)
C18A C -0.1823(4) 0.5729(6) 0.5021(8)
H11A H -0.1597 0.5988 0.5488
C19A C -0.1885(3) 0.4753(5) 0.4918(7)
H12A H -0.1682 0.4363 0.5321
C20A C -0.2055(5) 0.7356(7) 0.4453(10)
H13A H -0.1833 0.7564 0.4948
C21A C -0.2243(4) 0.7978(7) 0.3969(10)
H14A H -0.2452 0.7756 0.3465
C22A C -0.2209(3) 0.9020(5) 0.4023(7)
C23A C -0.2501(4) 0.9568(5) 0.3451(9)
H15A H -0.2724 0.9272 0.3003
C24A C -0.2498(3) 1.0531(5) 0.3473(8)
H16A H -0.2718 1.0865 0.3046
C25A C -0.1890(4) 1.0506(5) 0.4682(9)
H17A H -0.1672 1.0819 0.5128
C26A C -0.1889(4) 0.9496(6) 0.4670(10)
H18A H -0.1673 0.9159 0.5100
Cd1_2 Cd 0.220806(15) 1.26675(3) 0.08866(4)
Cd1A_2 Cd -0.220806(15) 1.26675(3) 0.41134(4)
Cd1A_3 Cd 0.779194(15) 0.26675(3) 0.41134(4)
Cd1F Cd 0.279194(15) 0.23325(3) -0.08866(4)
Cd1G Cd 0.720806(15) 0.23325(3) 0.58866(4)
N2_2 N 0.2186(2) 0.1018(4) 0.0909(5)
N2A_2 N -0.2186(2) 0.1018(4) 0.4091(5)
O3A_2 O -0.29686(17) 0.2776(3) 0.3093(5)
O4A_2 O -0.29886(18) 0.2502(3) 0.4397(5)
O4F O 0.20114(18) 0.2498(3) -0.0603(5)
O4G O -0.20114(18) 0.2498(3) 0.5603(5)
N3 N 0.0768(8) 0.5574(11) 0.1624(18)
O5 O 0.1075(13) 0.525(3) 0.283(3)
C27 C 0.0623(13) 0.532(2) 0.239(2)
H19 H 0.0336 0.5238 0.2502
C28 C 0.1312(7) 0.5575(15) 0.174(2)
H20 H 0.1483 0.5455 0.2321
H21 H 0.1403 0.6184 0.1576
H22 H 0.1384 0.5088 0.1391
C29 C 0.0578(14) 0.607(3) 0.076(2)
H23 H 0.0252 0.5894 0.0501
H24 H 0.0764 0.5884 0.0404
H25 H 0.0598 0.6749 0.0840
loop_
_geom_bond_atom_site_label_1
_geom_bond_atom_site_label_2
_geom_bond_site_symmetry_1
_geom_bond_site_symmetry_2
Cd1 N1 1_555 1_555
N1 C15 1_555 1_555
N2 C24 1_555 1_555
O1 Cd1 1_555 1_555
O2 Cd1 1_555 1_555
O3 Cd1 1_555 1_555
O4 Cd1 1_555 1_555
C1 O1 1_555 1_555
C2 C1 1_555 1_555
C3 C2 1_555 1_555
H1 C3 1_555 1_555
C4 C3 1_555 1_555
H2 C4 1_555 1_555
C5 C4 1_555 1_555
C6 C5 1_555 1_555
H3 C6 1_555 1_555
C7 C2 1_555 1_555
H4 C7 1_555 1_555
C8 O3 1_555 1_555
C9 C8 1_555 1_555
C10 C9 1_555 1_555
H5 C10 1_555 1_555
C11 C10 1_555 1_555
H6 C11 1_555 1_555
C12 C11 1_555 1_555
C13 C12 1_555 1_555
H7 C13 1_555 1_555
C14 C9 1_555 1_555
H8 C14 1_555 1_555
C15 H9 1_555 1_555
C16 C15 1_555 1_555
H10 C16 1_555 1_555
C17 C16 1_555 1_555
C18 C17 1_555 1_555
H11 C18 1_555 1_555
C19 N1 1_555 1_555
H12 C19 1_555 1_555
C20 C17 1_555 1_555
H13 C20 1_555 1_555
C21 C20 1_555 1_555
H14 C21 1_555 1_555
C22 C21 1_555 1_555
C23 C22 1_555 1_555
H15 C23 1_555 1_555
C24 C23 1_555 1_555
H16 C24 1_555 1_555
C25 N2 1_555 1_555
H17 C25 1_555 1_555
C26 C22 1_555 1_555
H18 C26 1_555 1_555
N3 C27 1_555 1_555
O5 C27 1_555 1_555
C27 H19 1_555 1_555
C28 N3 1_555 1_555
H20 C28 1_555 1_555
H21 C28 1_555 1_555
H22 C28 1_555 1_555
C29 N3 1_555 1_555
H23 C29 1_555 1_555
H24 C29 1_555 1_555
H25 C29 1_555 1_555
O1A C1A 1_555 1_555
O2A C1A 1_555 1_555
C1A C2A 1_555 1_555
C2A C3A 1_555 1_555
C3A H1A 1_555 1_555
C4A C3A 1_555 1_555
H2A C4A 1_555 1_555
C5A C5 1_555 1_555
C6A C5A 1_555 1_555
H3A C6A 1_555 1_555
C7A C2A 1_555 1_555
H4A C7A 1_555 1_555
O3A C8A 1_555 1_555
O4A C8A 1_555 1_555
C8A C9A 1_555 1_555
C9A C10A 1_555 1_555
C10A H5A 1_555 1_555
C11A C10A 1_555 1_555
H6A C11A 1_555 1_555
C12A C12 1_555 1_555
C13A C12A 1_555 1_555
H7A C13A 1_555 1_555
C14A C9A 1_555 1_555
H8A C14A 1_555 1_555
Cd1A O1A 1_555 1_555
N1A Cd1A 1_555 1_555
N2A C24A 1_555 1_555
C15A N1A 1_555 1_555
H9A C15A 1_555 1_555
C16A C15A 1_555 1_555
H10A C16A 1_555 1_555
C17A C16A 1_555 1_555
C18A C17A 1_555 1_555
H11A C18A 1_555 1_555
C19A N1A 1_555 1_555
H12A C19A 1_555 1_555
C20A C17A 1_555 1_555
H13A C20A 1_555 1_555
C21A C20A 1_555 1_555
H14A C21A 1_555 1_555
C22A C21A 1_555 1_555
C23A C22A 1_555 1_555
H15A C23A 1_555 1_555
C24A C23A 1_555 1_555
H16A C24A 1_555 1_555
C25A N2A 1_555 1_555
H17A C25A 1_555 1_555
C26A C22A 1_555 1_555
H18A C26A 1_555 1_555
Cd1_2 N2 1_555 1_555
Cd1A_2 N2A 1_555 1_555
Cd1A_3 O3A 1_555 1_555
Cd1F O4 1_555 1_555
Cd1G O4A 1_555 1_555
N2_2 Cd1 1_555 1_555
N2A_2 Cd1A 1_555 1_555
O3A_2 Cd1A 1_555 1_555
O4A_2 Cd1A 1_555 1_555
O4F Cd1 1_555 1_555
O4G Cd1A 1_555 1_555
O2 C1 1_555 1_555
O4 C8 1_555 1_555
C6 C7 1_555 1_555
C13 C14 1_555 1_555
C18 C19 1_555 1_555
C25 C26 1_555 1_555
O2A Cd1A 1_555 1_555
C4A C5A 1_555 1_555
C6A C7A 1_555 1_555
O4A Cd1A_3 1_555 1_555
C11A C12A 1_555 1_555
C13A C14A 1_555 1_555
C18A C19A 1_555 1_555
C25A C26A 1_555 1_555
Cd1F O4F 1_555 1_555

#END
