
#######################################################################
#
#                 Cambridge Crystallographic Data Centre
#                                CCDC 
#
#######################################################################
#
# If this CIF has been generated from an entry in the Cambridge 
# Structural Database, then it will include bibliographic, chemical, 
# crystal, experimental, refinement or atomic coordinate data resulting 
# from the CCDC's data processing and validation procedures.
#
#######################################################################

data_TOHZAS
_chemical_formula_moiety         '(C30 H40 Cd3 N6 O20)n'
_symmetry_cell_setting           triclinic
_symmetry_space_group_name_H-M   'P -1'
_symmetry_Int_Tables_number      2
_space_group_name_Hall           '-P 1'
loop_
_symmetry_equiv_pos_site_id
_symmetry_equiv_pos_as_xyz
1 x,y,z
2 -x,-y,-z
_cell_length_a                   9.550(2)
_cell_length_b                   13.300(5)
_cell_length_c                   13.377(4)
_cell_angle_alpha                61.820(5)
_cell_angle_beta                 69.880(7)
_cell_angle_gamma                76.100(5)
_cell_volume                     1400.06
loop_
_atom_site_label
_atom_site_type_symbol
_atom_site_fract_x
_atom_site_fract_y
_atom_site_fract_z
Cd1 Cd 0.0000 1.0000 -1.0000
Cd2 Cd -0.37310(7) 0.10733(5) -1.09513(6)
O1 O -0.2092(12) 0.5178(7) -0.9928(7)
O2 O -0.3836(13) 0.2206(7) -0.6450(8)
O3 O -0.2411(13) 0.5209(8) -0.6487(8)
O4 O -0.4084(9) 0.2254(9) -1.0019(9)
O5 O -0.4066(11) 0.2104(11) -0.2767(7)
O6 O -0.1849(11) 0.1293(11) -0.2732(8)
O7 O -0.3760(7) 0.9211(5) -0.9804(6)
O8 O -0.1376(7) 0.8687(5) -0.9847(7)
O9 O 0.0757(8) 1.0527(8) -1.1997(6)
N1 N -0.2153(9) 0.5205(6) -0.8235(7)
N2 N -0.3001(10) 0.3691(7) -0.8212(7)
N3 N -0.3079(10) 0.3666(7) -0.6440(7)
C1 C -0.2386(11) 0.4727(8) -0.8884(8)
C2 C -0.3325(12) 0.3121(8) -0.7010(9)
C3 C -0.2541(12) 0.4737(8) -0.7022(9)
C4 C -0.3485(11) 0.3233(9) -0.8844(10)
H1 H -0.3787 0.3867 -0.9511
H2 H -0.4350 0.2811 -0.8321
C5 C -0.2275(11) 0.2460(10) -0.9271(10)
H3 H -0.1949 0.1838 -0.8608
H4 H -0.1422 0.2888 -0.9816
C6 C -0.2809(10) 0.1971(8) -0.9876(8)
C7 C -0.3547(13) 0.3147(10) -0.5140(9)
H5 H -0.4365 0.2685 -0.4862
H6 H -0.3917 0.3752 -0.4878
C8 C -0.2318(15) 0.2419(13) -0.4607(10)
H7 H -0.1954 0.1814 -0.4868
H8 H -0.1498 0.2882 -0.4893
C9 C -0.2759(13) 0.1897(11) -0.3306(9)
C10 C -0.1646(10) 0.6376(7) -0.8883(10)
H9 H -0.0997 0.6483 -0.9659
H10 H -0.1083 0.6477 -0.8461
C11 C -0.2981(10) 0.7234(7) -0.8995(9)
H11 H -0.3645 0.7084 -0.8215
H12 H -0.3516 0.7131 -0.9435
C12 C -0.2618(10) 0.8475(7) -0.9602(8)
C13 C 0.2080(19) 1.1042(14) -1.2857(14)
H13 H 0.2814 1.0805 -1.2406
C14 C 0.192(4) 1.226(2) -1.333(3)
H14 H 0.1427 1.2493 -1.2701
H15 H 0.1323 1.2568 -1.3879
H16 H 0.2885 1.2545 -1.3722
C15 C 0.276(5) 1.073(3) -1.372(3)
H17 H 0.2910 0.9904 -1.3398
H18 H 0.3714 1.1035 -1.4126
H19 H 0.2156 1.1006 -1.4257
O10 O -0.1958(8) 0.1290(6) -1.0253(7)
Cd1_2 Cd 0.0000 0.0000 -1.0000
Cd1_3 Cd 0.0000 2.0000 -1.0000
Cd2_2 Cd -0.37310(7) 1.10733(5) -1.09513(6)
Cd2_3 Cd -0.37310(7) 0.10733(5) -0.09513(6)
Cd2A Cd -0.62690(7) 0.89267(5) -0.90487(6)
Cd2_4 Cd -0.37310(7) 1.10733(5) -0.09513(6)
Cd2_5 Cd -0.37310(7) 2.10733(5) -1.09513(6)
Cd2A_2 Cd -0.62690(7) 1.89267(5) -0.90487(6)
O1_2 O -0.2092(12) 1.5178(7) -0.9928(7)
O2_2 O -0.3836(13) 1.2206(7) -0.6450(8)
O3_2 O -0.2411(13) 1.5209(8) -0.6487(8)
O4_2 O -0.4084(9) 1.2254(9) -1.0019(9)
O5_2 O -0.4066(11) 1.2104(11) -0.2767(7)
O5_3 O -0.4066(11) 0.2104(11) -1.2767(7)
O5_4 O -0.4066(11) 1.2104(11) -1.2767(7)
O6_2 O -0.1849(11) 1.1293(11) -0.2732(8)
O6_3 O -0.1849(11) 0.1293(11) -1.2732(8)
O6_4 O -0.1849(11) 1.1293(11) -1.2732(8)
O7_2 O -0.3760(7) 1.9211(5) -0.9804(6)
O7_3 O -0.3760(7) -0.0789(5) -0.9804(6)
O7A O -0.6240(7) 0.0789(5) -1.0196(6)
O7A_2 O -0.6240(7) 1.0789(5) -1.0196(6)
O8_2 O -0.1376(7) 1.8687(5) -0.9847(7)
O8A O 0.1376(7) 1.1313(5) -1.0153(7)
O9A O -0.0757(8) 0.9473(8) -0.8003(6)
N1_2 N -0.2153(9) 1.5205(6) -0.8235(7)
N2_2 N -0.3001(10) 1.3691(7) -0.8212(7)
N3_2 N -0.3079(10) 1.3666(7) -0.6440(7)
C1_2 C -0.2386(11) 1.4727(8) -0.8884(8)
C2_2 C -0.3325(12) 1.3121(8) -0.7010(9)
C3_2 C -0.2541(12) 1.4737(8) -0.7022(9)
C4_2 C -0.3485(11) 1.3233(9) -0.8844(10)
H1_2 H -0.3787 1.3867 -0.9511
H2_2 H -0.4350 1.2811 -0.8321
C5_2 C -0.2275(11) 1.2460(10) -0.9271(10)
H3_2 H -0.1949 1.1838 -0.8608
H4_2 H -0.1422 1.2888 -0.9816
C6_2 C -0.2809(10) 1.1971(8) -0.9876(8)
C7_2 C -0.3547(13) 1.3147(10) -0.5140(9)
H5_2 H -0.4365 1.2685 -0.4862
H6_2 H -0.3917 1.3752 -0.4878
C8_2 C -0.2318(15) 1.2419(13) -0.4607(10)
H7_2 H -0.1954 1.1814 -0.4868
H8_2 H -0.1498 1.2882 -0.4893
C9_2 C -0.2759(13) 1.1897(11) -0.3306(9)
C10_2 C -0.1646(10) 1.6376(7) -0.8883(10)
H9_2 H -0.0997 1.6483 -0.9659
H10_2 H -0.1083 1.6477 -0.8461
C11_2 C -0.2981(10) 1.7234(7) -0.8995(9)
H11_2 H -0.3645 1.7084 -0.8215
H12_2 H -0.3516 1.7131 -0.9435
C12_2 C -0.2618(10) 1.8475(7) -0.9602(8)
C13A C -0.2080(19) 0.8958(14) -0.7143(14)
H13A H -0.2814 0.9195 -0.7594
C14A C -0.192(4) 0.774(2) -0.667(3)
H14A H -0.1427 0.7507 -0.7299
H15A H -0.1323 0.7432 -0.6121
H16A H -0.2885 0.7455 -0.6278
C15A C -0.276(5) 0.927(3) -0.628(3)
H17A H -0.2910 1.0096 -0.6602
H18A H -0.3714 0.8965 -0.5874
H19A H -0.2156 0.8994 -0.5743
O10_2 O -0.1958(8) 1.1290(6) -1.0253(7)
O10A O 0.1958(8) 0.8710(6) -0.9747(7)
loop_
_geom_bond_atom_site_label_1
_geom_bond_atom_site_label_2
_geom_bond_site_symmetry_1
_geom_bond_site_symmetry_2
Cd1 O8 1_555 1_555
Cd2 O4 1_555 1_555
O1 C1 1_555 1_555
O2 C2 1_555 1_555
O3 C3 1_555 1_555
O4 C6 1_555 1_555
O5 C9 1_555 1_555
O6 C9 1_555 1_555
O7 C12 1_555 1_555
O8 C12 1_555 1_555
O9 Cd1 1_555 1_555
N1 C1 1_555 1_555
N2 C1 1_555 1_555
N3 C2 1_555 1_555
C2 N2 1_555 1_555
C3 N1 1_555 1_555
C4 N2 1_555 1_555
H1 C4 1_555 1_555
H2 C4 1_555 1_555
C5 C4 1_555 1_555
H3 C5 1_555 1_555
H4 C5 1_555 1_555
C6 C5 1_555 1_555
C7 N3 1_555 1_555
H5 C7 1_555 1_555
H6 C7 1_555 1_555
C8 C7 1_555 1_555
H7 C8 1_555 1_555
H8 C8 1_555 1_555
C9 C8 1_555 1_555
C10 N1 1_555 1_555
H9 C10 1_555 1_555
H10 C10 1_555 1_555
C11 C10 1_555 1_555
H11 C11 1_555 1_555
H12 C11 1_555 1_555
C12 C11 1_555 1_555
C13 O9 1_555 1_555
H13 C13 1_555 1_555
C14 C13 1_555 1_555
H14 C14 1_555 1_555
H15 C14 1_555 1_555
H16 C14 1_555 1_555
C15 C13 1_555 1_555
H17 C15 1_555 1_555
H18 C15 1_555 1_555
H19 C15 1_555 1_555
O10 Cd2 1_555 1_555
Cd1_2 O10 1_555 1_555
Cd1_3 O8_2 1_555 1_555
Cd2_2 O7 1_555 1_555
Cd2_3 O5 1_555 1_555
Cd2A O7 1_555 1_555
Cd2_4 O5_2 1_555 1_555
Cd2_5 O7_2 1_555 1_555
Cd2A_2 O7_2 1_555 1_555
O1_2 C1_2 1_555 1_555
O2_2 C2_2 1_555 1_555
O3_2 C3_2 1_555 1_555
O4_2 Cd2_2 1_555 1_555
O5_2 C9_2 1_555 1_555
O5_3 Cd2 1_555 1_555
O5_4 Cd2_2 1_555 1_555
O6_2 Cd2_4 1_555 1_555
O6_3 Cd2 1_555 1_555
O6_4 Cd2_2 1_555 1_555
O7_2 C12_2 1_555 1_555
O7_3 Cd2 1_555 1_555
O7A Cd2 1_555 1_555
O7A_2 Cd2_2 1_555 1_555
O8_2 C12_2 1_555 1_555
O8A Cd1 1_555 1_555
O9A Cd1 1_555 1_555
N1_2 C1_2 1_555 1_555
N2_2 C1_2 1_555 1_555
N3_2 C2_2 1_555 1_555
C2_2 N2_2 1_555 1_555
C3_2 N1_2 1_555 1_555
C4_2 N2_2 1_555 1_555
H1_2 C4_2 1_555 1_555
H2_2 C4_2 1_555 1_555
C5_2 C4_2 1_555 1_555
H3_2 C5_2 1_555 1_555
H4_2 C5_2 1_555 1_555
C6_2 O4_2 1_555 1_555
C7_2 N3_2 1_555 1_555
H5_2 C7_2 1_555 1_555
H6_2 C7_2 1_555 1_555
C8_2 C7_2 1_555 1_555
H7_2 C8_2 1_555 1_555
H8_2 C8_2 1_555 1_555
C9_2 O6_2 1_555 1_555
C10_2 N1_2 1_555 1_555
H9_2 C10_2 1_555 1_555
H10_2 C10_2 1_555 1_555
C11_2 C10_2 1_555 1_555
H11_2 C11_2 1_555 1_555
H12_2 C11_2 1_555 1_555
C12_2 C11_2 1_555 1_555
C13A O9A 1_555 1_555
H13A C13A 1_555 1_555
C14A C13A 1_555 1_555
H14A C14A 1_555 1_555
H15A C14A 1_555 1_555
H16A C14A 1_555 1_555
C15A C13A 1_555 1_555
H17A C15A 1_555 1_555
H18A C15A 1_555 1_555
H19A C15A 1_555 1_555
O10_2 Cd1 1_555 1_555
O10A Cd1 1_555 1_555
O6 Cd2_3 1_555 1_555
N3 C3 1_555 1_555
C6 O10 1_555 1_555
Cd2_2 O10_2 1_555 1_555
Cd2A O7A_2 1_555 1_555
N3_2 C3_2 1_555 1_555
C5_2 C6_2 1_555 1_555
C6_2 O10_2 1_555 1_555
C8_2 C9_2 1_555 1_555

#END
