
#######################################################################
#
#                 Cambridge Crystallographic Data Centre
#                                CCDC 
#
#######################################################################
#
# If this CIF has been generated from an entry in the Cambridge 
# Structural Database, then it will include bibliographic, chemical, 
# crystal, experimental, refinement or atomic coordinate data resulting 
# from the CCDC's data processing and validation procedures.
#
#######################################################################

data_HOWJEK
_chemical_formula_moiety         '(C4 H20 Mn4 N4 O16 P4)n'
_symmetry_cell_setting           tetragonal
_symmetry_space_group_name_H-M   'P 42'
_symmetry_Int_Tables_number      77
_space_group_name_Hall           'P 4c'
loop_
_symmetry_equiv_pos_site_id
_symmetry_equiv_pos_as_xyz
1 x,y,z
2 -y,x,1/2+z
3 -x,-y,z
4 y,-x,1/2+z
_cell_length_a                   14.9580(18)
_cell_length_b                   14.9580(18)
_cell_length_c                   9.050(2)
_cell_angle_alpha                90
_cell_angle_beta                 90
_cell_angle_gamma                90
_cell_volume                     2024.86
loop_
_atom_site_label
_atom_site_type_symbol
_atom_site_fract_x
_atom_site_fract_y
_atom_site_fract_z
Mn1 Mn 0.50589(5) 0.36823(5) 0.57369(7)
Mn2 Mn 0.62836(6) 0.00618(6) 0.37762(8)
Mn3 Mn 0.98546(5) 0.12389(6) 0.55507(8)
Mn4 Mn 0.12751(6) 0.51370(6) 0.38196(9)
P1 P 0.34618(10) 0.48575(9) 0.43652(17)
P2 P 0.49504(10) 0.15023(10) 0.51818(17)
P3 P 0.84789(10) -0.00207(10) 0.41957(17)
P4 P 0.65514(10) 0.01171(10) 0.01161(18)
O1 O 0.3805(2) 0.4141(2) 0.5448(5)
O2 O 0.4007(3) 0.5706(2) 0.4512(6)
O3 O 0.3526(3) 0.4471(3) 0.2821(6)
O4 O 0.2494(2) 0.5062(2) 0.4775(5)
O5 O 0.5096(2) 0.2469(2) 0.4667(6)
O6 O 0.5858(3) 0.1037(3) 0.5188(5)
O7 O 0.4510(3) 0.1474(3) 0.6698(4)
O8 O 0.4338(4) 0.1106(3) 0.4007(6)
O9 O 0.7507(2) -0.0096(3) 0.4714(6)
O10 O 0.8744(3) 0.0968(2) 0.4191(6)
O11 O 0.8588(3) -0.0473(3) 0.2700(6)
O12 O 0.9043(2) -0.0483(3) 0.5374(5)
O13 O 0.6424(3) 0.0480(3) 0.1673(4)
O14 O 0.6058(3) 0.0698(4) -0.0984(6)
O15 O 0.7537(2) 0.0188(3) -0.0356(6)
O16 O 0.6246(3) -0.0852(3) -0.0026(6)
Mn1B Mn 0.49411(5) 0.63177(5) 0.57369(7)
Mn1C Mn 0.36823(5) 0.49411(5) 0.07369(7)
Mn2B Mn 0.37164(6) -0.00618(6) 0.37762(8)
Mn3A Mn 0.87611(6) -0.01454(5) 0.05507(8)
Mn3B Mn 1.01454(5) -0.12389(6) 0.55507(8)
Mn4A Mn 0.48630(6) 0.12751(6) -0.11804(9)
Mn4A_2 Mn 0.48630(6) 0.12751(6) 0.88196(9)
Mn4C Mn 0.51370(6) -0.12751(6) -0.11804(9)
O2B O 0.5993(3) 0.4294(2) 0.4512(6)
O3A O 0.5529(3) 0.3526(3) 0.7821(6)
O7C O 0.1474(3) 0.5490(3) 0.1698(4)
O8B O 0.5662(4) -0.1106(3) 0.4007(6)
O11C O 0.9527(3) 0.1412(3) 0.7700(6)
O12B O 1.0957(2) 0.0483(3) 0.5374(5)
O14C O 0.0698(4) 0.3942(3) 0.4016(6)
O15C O 1.0188(3) 0.2463(2) 0.4644(6)
O16A O 0.0852(3) 0.6246(3) 0.4974(6)
N1 N 0.3776(3) 0.2576(3) 0.2221(6)
N2 N 0.1268(3) 0.2509(3) 0.2123(6)
C1 C 0.2871(5) 0.2557(5) 0.1571(9)
C2 C 0.2182(5) 0.2545(5) 0.2760(9)
N3 N 0.8772(3) 0.2469(3) 0.2197(7)
H1 H 0.8844 0.2973 0.2707
H2 H 0.9164 0.2452 0.1458
H3 H 0.8860 0.2003 0.2790
N4 N 0.6277(3) 0.2398(3) 0.2319(7)
H4 H 0.6176 0.2805 0.1621
H5 H 0.5889 0.2474 0.3055
H6 H 0.6211 0.1853 0.1939
C5 C 0.7863(3) 0.2435(3) 0.1600(6)
H7 H 0.7774 0.1879 0.1068
H8 H 0.7772 0.2926 0.0917
C6 C 0.7192(3) 0.2501(3) 0.2885(6)
H9 H 0.7317 0.2038 0.3606
H10 H 0.7253 0.3076 0.3369
loop_
_geom_bond_atom_site_label_1
_geom_bond_atom_site_label_2
_geom_bond_site_symmetry_1
_geom_bond_site_symmetry_2
Mn1 O1 1_555 1_555
Mn2 O6 1_555 1_555
Mn3 O10 1_555 1_555
Mn4 O4 1_555 1_555
P1 O1 1_555 1_555
P2 O5 1_555 1_555
P3 O9 1_555 1_555
P4 O13 1_555 1_555
O2 P1 1_555 1_555
O3 P1 1_555 1_555
O4 P1 1_555 1_555
O5 Mn1 1_555 1_555
O6 P2 1_555 1_555
O7 P2 1_555 1_555
O8 P2 1_555 1_555
O9 Mn2 1_555 1_555
O10 P3 1_555 1_555
O11 P3 1_555 1_555
O12 P3 1_555 1_555
O13 Mn2 1_555 1_555
O14 P4 1_555 1_555
O15 P4 1_555 1_555
O16 P4 1_555 1_555
N1 C1 1_555 1_555
N2 C2 1_555 1_555
C1 C2 1_555 1_555
N3 H1 1_555 1_555
H2 N3 1_555 1_555
H3 N3 1_555 1_555
N4 H4 1_555 1_555
H5 N4 1_555 1_555
H6 N4 1_555 1_555
C5 N3 1_555 1_555
H7 C5 1_555 1_555
H8 C5 1_555 1_555
C6 N4 1_555 1_555
H9 C6 1_555 1_555
H10 C6 1_555 1_555
Mn1B O2 1_555 1_555
Mn1C O3 1_555 1_555
Mn2B O8 1_555 1_555
Mn3A O11 1_555 1_555
Mn3B O12 1_555 1_555
Mn4A O14 1_555 1_555
Mn4A_2 O7 1_555 1_555
Mn4C O16 1_555 1_555
O2B Mn1 1_555 1_555
O3A Mn1 1_555 1_555
O7C Mn4 1_555 1_555
O8B Mn2 1_555 1_555
O11C Mn3 1_555 1_555
O12B Mn3 1_555 1_555
O14C Mn4 1_555 1_555
O15C Mn3 1_555 1_555
O16A Mn4 1_555 1_555
O15 Mn3A 1_555 1_555
C5 C6 1_555 1_555

#END
