
#######################################################################
#
#                 Cambridge Crystallographic Data Centre
#                                CCDC 
#
#######################################################################
#
# If this CIF has been generated from an entry in the Cambridge 
# Structural Database, then it will include bibliographic, chemical, 
# crystal, experimental, refinement or atomic coordinate data resulting 
# from the CCDC's data processing and validation procedures.
#
#######################################################################

data_FUNQEM
_chemical_formula_moiety         'C72 H48 Eu9 N13 O41'
_symmetry_cell_setting           monoclinic
_symmetry_space_group_name_H-M   'C 2/c'
_symmetry_Int_Tables_number      15
_space_group_name_Hall           '-C 2yc'
loop_
_symmetry_equiv_pos_site_id
_symmetry_equiv_pos_as_xyz
1 x,y,z
2 -x,y,1/2-z
3 1/2+x,1/2+y,z
4 1/2-x,1/2+y,1/2-z
5 -x,-y,-z
6 x,-y,1/2+z
7 1/2-x,1/2-y,-z
8 1/2+x,1/2-y,1/2+z
_cell_length_a                   23.068(5)
_cell_length_b                   19.934(4)
_cell_length_c                   22.714(5)
_cell_angle_alpha                90
_cell_angle_beta                 115.85(3)
_cell_angle_gamma                90
_cell_volume                     9399.63
loop_
_atom_site_label
_atom_site_type_symbol
_atom_site_fract_x
_atom_site_fract_y
_atom_site_fract_z
Eu1 Eu -0.209000(17) 1.09130(2) 0.250767(17)
O1 O -0.2039(2) 0.9949(3) 0.1891(2)
O2 O -0.1487(2) 1.1397(3) 0.1982(3)
O3 O -0.2265(3) 0.9966(3) 0.3221(3)
O4 O -0.2146(3) 1.0960(3) 0.3632(2)
O5 O -0.3281(4) 1.0215(4) 0.1861(3)
O6 O -0.3245(3) 1.1077(5) 0.2426(3)
O7 O -0.2900(3) 1.1287(5) 0.1297(3)
O8 O -0.2628(4) 1.2099(4) 0.1987(4)
O9 O -0.1557(4) 1.1959(3) 0.3154(3)
O10 O -0.1063(2) 1.0517(2) 0.3353(2)
C1 C -0.1684(3) 0.9640(4) 0.1691(3)
C2 C -0.1014(4) 1.1370(4) 0.1882(4)
N1 N -0.2220(4) 1.0340(5) 0.3679(3)
N2 N -0.3540(4) 1.0637(5) 0.2071(4)
N3 N -0.2912(4) 1.1918(6) 0.1403(5)
C3 C -0.2017(3) 0.9293(3) 0.1034(3)
O11 O -0.1097(2) 0.9569(3) 0.1996(2)
C4 C -0.0844(3) 1.1946(3) 0.1551(4)
O12 O -0.0518(12) 1.0983(8) 0.2221(15)
O13 O -0.2226(6) 1.0113(5) 0.4181(4)
O14 O -0.4149(4) 1.0620(6) 0.1874(5)
O15 O -0.3190(4) 1.2305(6) 0.0939(4)
O16 O -0.0139(2) 1.0056(3) 0.3488(2)
C5 C -0.1638(3) 0.9006(4) 0.0765(4)
C6 C -0.2674(3) 0.9245(4) 0.0719(3)
Eu2 Eu 0.0000 0.99227(2) 0.2500
C7 C -0.1288(4) 1.2452(4) 0.1280(5)
C8 C -0.0264(4) 1.1979(4) 0.1519(4)
H1 H -0.1192 0.9032 0.0986
C9 C -0.1925(3) 0.8683(4) 0.0171(3)
C10 C -0.2973(3) 0.8891(4) 0.0130(3)
H2 H -0.2924 0.9450 0.0897
O17 O -0.0001(2) 0.8728(2) 0.2979(2)
H3 H -0.1682 1.2433 0.1300
C11 C -0.1142(4) 1.3003(4) 0.0972(6)
C12 C -0.0116(4) 1.2512(4) 0.1211(4)
H4 H 0.0037 1.1639 0.1707
H5 H -0.1675 0.8509 -0.0022
C13 C -0.2591(3) 0.8619(3) -0.0136(3)
H6 H -0.3418 0.8841 -0.0076
N4 N 0.0000 0.8411(4) 0.2500
H7 H -0.1437 1.3347 0.0784
C14 C -0.0558(4) 1.3014(4) 0.0960(4)
H8 H 0.0272 1.2525 0.1179
N5 N -0.2881(3) 0.8251(3) -0.0754(3)
O18 O 0.0000 0.7776(3) 0.2500
N6 N -0.0397(3) 1.3594(3) 0.0676(3)
C15 C -0.2560(4) 0.7745(4) -0.0864(3)
C16 C -0.3466(4) 0.8426(4) -0.1216(3)
C17 C -0.0791(5) 1.3813(5) 0.0063(5)
C18 C 0.0173(4) 1.3895(4) 0.0992(4)
H9 H -0.2167 0.7611 -0.0532
C19 C -0.2797(4) 0.7419(4) -0.1456(3)
C20 C -0.3735(4) 0.8098(4) -0.1806(3)
H10 H -0.3691 0.8772 -0.1134
H11 H -0.1172 1.3582 -0.0181
C21 C -0.0649(5) 1.4351(5) -0.0200(5)
C22 C 0.0348(4) 1.4440(4) 0.0743(4)
H12 H 0.0461 1.3728 0.1397
H13 H -0.2559 0.7079 -0.1528
C23 C -0.3389(3) 0.7597(4) -0.1943(3)
H14 H -0.4147 0.8210 -0.2115
H15 H -0.0932 1.4488 -0.0619
C24 C -0.0093(4) 1.4705(4) 0.0139(4)
H16 H 0.0753 1.4632 0.0968
C25 C -0.3665(3) 0.7256(4) -0.2603(3)
C26 C -0.3470(3) 0.6621(4) -0.2668(3)
C27 C -0.4130(4) 0.7566(4) -0.3145(3)
H17 H -0.3144 0.6409 -0.2313
C28 C -0.3763(3) 0.6298(4) -0.3266(3)
C29 C -0.4392(3) 0.7241(3) -0.3733(3)
H18 H -0.4265 0.7998 -0.3110
H19 H -0.3644 0.5861 -0.3307
N7 N -0.4214(3) 0.6605(3) -0.3782(2)
H20 H -0.4694 0.7457 -0.4102
C30 C -0.4535(3) 0.6268(3) -0.4418(3)
C31 C -0.4168(3) 0.5928(4) -0.4665(3)
C32 C -0.5191(3) 0.6294(3) -0.4741(3)
H21 H -0.3724 0.5896 -0.4426
C33 C -0.4481(3) 0.5635(4) -0.5283(3)
C34 C -0.5493(3) 0.6006(3) -0.5354(3)
H22 H -0.5430 0.6501 -0.4553
H23 H -0.4242 0.5407 -0.5460
C35 C -0.5143(3) 0.5681(3) -0.5635(3)
H24 H -0.5939 0.6030 -0.5583
C36 C -0.5474(3) 0.5399(3) -0.6315(3)
O17A O 0.0001(2) 0.8728(2) 0.2021(2)
O11A O 0.1097(2) 0.9569(3) 0.3004(2)
O16A O 0.0139(2) 1.0056(3) 0.1512(2)
O12A O 0.0518(12) 1.0983(8) 0.2779(15)
C1A C 0.1684(3) 0.9640(4) 0.3309(3)
O1A O 0.2039(2) 0.9949(3) 0.3109(2)
C3A C 0.2017(3) 0.9293(3) 0.3966(3)
O10A O 0.1063(2) 1.0517(2) 0.1647(2)
O2A O 0.1487(2) 1.1397(3) 0.3018(3)
Eu1A Eu 0.209000(17) 1.09130(2) 0.249233(17)
C5A C 0.1638(3) 0.9006(4) 0.4235(4)
C6A C 0.2674(3) 0.9245(4) 0.4281(3)
O3A O 0.2265(3) 0.9966(3) 0.1779(3)
O4A O 0.2146(3) 1.0960(3) 0.1368(2)
O5A O 0.3281(4) 1.0215(4) 0.3139(3)
O6A O 0.3245(3) 1.1077(5) 0.2574(3)
O7A O 0.2900(3) 1.1287(5) 0.3703(3)
O8A O 0.2628(4) 1.2099(4) 0.3013(4)
O9A O 0.1557(4) 1.1959(3) 0.1846(3)
H1A H 0.1192 0.9032 0.4014
C9A C 0.1925(3) 0.8683(4) 0.4829(3)
C10A C 0.2973(3) 0.8891(4) 0.4870(3)
H2A H 0.2924 0.9450 0.4103
N1A N 0.2220(4) 1.0340(5) 0.1321(3)
N2A N 0.3540(4) 1.0637(5) 0.2929(4)
N3A N 0.2912(4) 1.1918(6) 0.3597(5)
H5A H 0.1675 0.8509 0.5022
C13A C 0.2591(3) 0.8619(3) 0.5136(3)
H6A H 0.3418 0.8841 0.5076
O13A O 0.2226(6) 1.0113(5) 0.0819(4)
O14A O 0.4149(4) 1.0620(6) 0.3126(5)
O15A O 0.3190(4) 1.2305(6) 0.4061(4)
N5A N 0.2881(3) 0.8251(3) 0.5754(3)
C24D C 0.0093(4) 1.5295(4) -0.0139(4)
C15A C 0.2560(4) 0.7745(4) 0.5864(3)
C16A C 0.3466(4) 0.8426(4) 0.6216(3)
C21D C 0.0649(5) 1.5649(5) 0.0200(5)
C22D C -0.0348(4) 1.5560(4) -0.0743(4)
H9A H 0.2167 0.7611 0.5532
C19A C 0.2797(4) 0.7419(4) 0.6456(3)
C20A C 0.3735(4) 0.8098(4) 0.6806(3)
H10A H 0.3691 0.8772 0.6134
C17D C 0.0791(5) 1.6187(5) -0.0063(5)
H15D H 0.0932 1.5512 0.0619
C18D C -0.0173(4) 1.6105(4) -0.0992(4)
H16D H -0.0753 1.5368 -0.0968
H13A H 0.2559 0.7079 0.6528
C23A C 0.3389(3) 0.7597(4) 0.6943(3)
H14A H 0.4147 0.8210 0.7115
N6D N 0.0397(3) 1.6406(3) -0.0676(3)
H11D H 0.1172 1.6418 0.0181
H12D H -0.0461 1.6272 -0.1397
C25A C 0.3665(3) 0.7256(4) 0.7603(3)
C14D C 0.0558(4) 1.6986(4) -0.0960(4)
C26A C 0.3470(3) 0.6621(4) 0.7668(3)
C27A C 0.4130(4) 0.7566(4) 0.8145(3)
C11D C 0.1142(4) 1.6997(4) -0.0972(6)
C12D C 0.0116(4) 1.7488(4) -0.1211(4)
H17A H 0.3144 0.6409 0.7313
C28A C 0.3763(3) 0.6298(4) 0.8266(3)
C29A C 0.4392(3) 0.7241(3) 0.8733(3)
H18A H 0.4265 0.7998 0.8110
C7D C 0.1288(4) 1.7548(4) -0.1280(5)
H7D H 0.1437 1.6653 -0.0784
C8D C 0.0264(4) 1.8021(4) -0.1519(4)
H8D H -0.0272 1.7475 -0.1179
H19A H 0.3644 0.5861 0.8307
N7A N 0.4214(3) 0.6605(3) 0.8782(2)
H20A H 0.4694 0.7457 0.9102
C4D C 0.0844(3) 1.8054(3) -0.1551(4)
H3D H 0.1682 1.7567 -0.1300
H4D H -0.0037 1.8361 -0.1707
C30A C 0.4535(3) 0.6268(3) 0.9418(3)
C2D C 0.1014(4) 1.8630(4) -0.1882(4)
O10B O -0.6063(2) 0.5517(2) -0.6647(2)
O16B O -0.5139(2) 0.5056(3) -0.6512(2)
C31A C 0.4168(3) 0.5928(4) 0.9665(3)
C32A C 0.5191(3) 0.6294(3) 0.9741(3)
O2D O 0.1487(2) 1.8603(3) -0.1982(3)
O12D O 0.0518(12) 1.9017(8) -0.2221(15)
Eu1B Eu -0.709000(17) 0.59130(2) -0.749233(17)
Eu2B Eu -0.5000 0.49227(2) -0.7500
H21A H 0.3724 0.5896 0.9426
C33A C 0.4481(3) 0.5635(4) 1.0283(3)
C34A C 0.5493(3) 0.6006(3) 1.0354(3)
H22A H 0.5430 0.6501 0.9553
Eu1D Eu 0.209000(17) 1.90870(2) -0.250767(17)
Eu2D Eu 0.0000 2.00773(2) -0.2500
H23A H 0.4242 0.5407 1.0460
C35A C 0.5143(3) 0.5681(3) 1.0635(3)
H24A H 0.5939 0.6030 1.0583
C36A C 0.5474(3) 0.5399(3) 1.1315(3)
O10C O 0.6063(2) 0.5517(2) 1.1647(2)
O16C O 0.5139(2) 0.5056(3) 1.1512(2)
Eu1C Eu 0.709000(17) 0.59130(2) 1.249233(17)
Eu2B_2 Eu 0.5000 0.49227(2) 1.2500
loop_
_geom_bond_atom_site_label_1
_geom_bond_atom_site_label_2
_geom_bond_site_symmetry_1
_geom_bond_site_symmetry_2
Eu1 O1 1_555 1_555
O1 C1 1_555 1_555
O2 Eu1 1_555 1_555
O3 Eu1 1_555 1_555
O4 Eu1 1_555 1_555
O5 Eu1 1_555 1_555
O6 Eu1 1_555 1_555
O7 Eu1 1_555 1_555
O8 Eu1 1_555 1_555
O9 Eu1 1_555 1_555
O10 Eu1 1_555 1_555
C1 C3 1_555 1_555
C2 O2 1_555 1_555
N1 O3 1_555 1_555
N2 O5 1_555 1_555
N3 O7 1_555 1_555
C3 C5 1_555 1_555
O11 C1 1_555 1_555
C4 C2 1_555 1_555
O12 C2 1_555 1_555
O13 N1 1_555 1_555
O14 N2 1_555 1_555
O15 N3 1_555 1_555
O16 Eu2 1_555 1_555
C5 H1 1_555 1_555
C6 C3 1_555 1_555
Eu2 O11 1_555 1_555
C7 C4 1_555 1_555
C8 C4 1_555 1_555
C9 C5 1_555 1_555
C10 C6 1_555 1_555
H2 C6 1_555 1_555
O17 Eu2 1_555 1_555
H3 C7 1_555 1_555
C11 C7 1_555 1_555
C12 C8 1_555 1_555
H4 C8 1_555 1_555
H5 C9 1_555 1_555
C13 C9 1_555 1_555
H6 C10 1_555 1_555
N4 O17 1_555 1_555
H7 C11 1_555 1_555
C14 C11 1_555 1_555
H8 C12 1_555 1_555
N5 C13 1_555 1_555
O18 N4 1_555 1_555
N6 C14 1_555 1_555
C15 N5 1_555 1_555
C16 N5 1_555 1_555
C17 N6 1_555 1_555
C18 N6 1_555 1_555
H9 C15 1_555 1_555
C19 C15 1_555 1_555
C20 C16 1_555 1_555
H10 C16 1_555 1_555
H11 C17 1_555 1_555
C21 C17 1_555 1_555
C22 C18 1_555 1_555
H12 C18 1_555 1_555
H13 C19 1_555 1_555
C23 C19 1_555 1_555
H14 C20 1_555 1_555
H15 C21 1_555 1_555
C24 C21 1_555 1_555
H16 C22 1_555 1_555
C25 C23 1_555 1_555
C26 C25 1_555 1_555
C27 C25 1_555 1_555
H17 C26 1_555 1_555
C28 C26 1_555 1_555
C29 C27 1_555 1_555
H18 C27 1_555 1_555
H19 C28 1_555 1_555
N7 C28 1_555 1_555
H20 C29 1_555 1_555
C30 N7 1_555 1_555
C31 C30 1_555 1_555
C32 C30 1_555 1_555
H21 C31 1_555 1_555
C33 C31 1_555 1_555
C34 C32 1_555 1_555
H22 C32 1_555 1_555
H23 C33 1_555 1_555
C35 C33 1_555 1_555
H24 C34 1_555 1_555
C36 C35 1_555 1_555
O17A Eu2 1_555 1_555
O11A Eu2 1_555 1_555
O16A Eu2 1_555 1_555
O12A Eu2 1_555 1_555
C1A O11A 1_555 1_555
O1A C1A 1_555 1_555
C3A C1A 1_555 1_555
O10A Eu1A 1_555 1_555
O2A Eu1A 1_555 1_555
Eu1A O1A 1_555 1_555
C5A C3A 1_555 1_555
C6A C3A 1_555 1_555
O3A Eu1A 1_555 1_555
O4A Eu1A 1_555 1_555
O5A Eu1A 1_555 1_555
O6A Eu1A 1_555 1_555
O7A Eu1A 1_555 1_555
O8A Eu1A 1_555 1_555
O9A Eu1A 1_555 1_555
H1A C5A 1_555 1_555
C9A C5A 1_555 1_555
C10A C6A 1_555 1_555
H2A C6A 1_555 1_555
N1A O3A 1_555 1_555
N2A O5A 1_555 1_555
N3A O7A 1_555 1_555
H5A C9A 1_555 1_555
C13A C9A 1_555 1_555
H6A C10A 1_555 1_555
O13A N1A 1_555 1_555
O14A N2A 1_555 1_555
O15A N3A 1_555 1_555
N5A C13A 1_555 1_555
C24D C24 1_555 1_555
C15A N5A 1_555 1_555
C16A N5A 1_555 1_555
C21D C24D 1_555 1_555
C22D C24D 1_555 1_555
H9A C15A 1_555 1_555
C19A C15A 1_555 1_555
C20A C16A 1_555 1_555
H10A C16A 1_555 1_555
C17D C21D 1_555 1_555
H15D C21D 1_555 1_555
C18D C22D 1_555 1_555
H16D C22D 1_555 1_555
H13A C19A 1_555 1_555
C23A C19A 1_555 1_555
H14A C20A 1_555 1_555
N6D C17D 1_555 1_555
H11D C17D 1_555 1_555
H12D C18D 1_555 1_555
C25A C23A 1_555 1_555
C14D N6D 1_555 1_555
C26A C25A 1_555 1_555
C27A C25A 1_555 1_555
C11D C14D 1_555 1_555
C12D C14D 1_555 1_555
H17A C26A 1_555 1_555
C28A C26A 1_555 1_555
C29A C27A 1_555 1_555
H18A C27A 1_555 1_555
C7D C11D 1_555 1_555
H7D C11D 1_555 1_555
C8D C12D 1_555 1_555
H8D C12D 1_555 1_555
H19A C28A 1_555 1_555
N7A C28A 1_555 1_555
H20A C29A 1_555 1_555
C4D C7D 1_555 1_555
H3D C7D 1_555 1_555
H4D C8D 1_555 1_555
C30A N7A 1_555 1_555
C2D C4D 1_555 1_555
O10B C36 1_555 1_555
O16B C36 1_555 1_555
C31A C30A 1_555 1_555
C32A C30A 1_555 1_555
O2D C2D 1_555 1_555
O12D C2D 1_555 1_555
Eu1B O10B 1_555 1_555
Eu2B O16B 1_555 1_555
H21A C31A 1_555 1_555
C33A C31A 1_555 1_555
C34A C32A 1_555 1_555
H22A C32A 1_555 1_555
Eu1D O2D 1_555 1_555
Eu2D O12D 1_555 1_555
H23A C33A 1_555 1_555
C35A C33A 1_555 1_555
H24A C34A 1_555 1_555
C36A C35A 1_555 1_555
O10C C36A 1_555 1_555
O16C C36A 1_555 1_555
Eu1C O10C 1_555 1_555
Eu2B_2 O16C 1_555 1_555
O4 N1 1_555 1_555
O6 N2 1_555 1_555
O8 N3 1_555 1_555
O12 Eu2 1_555 1_555
C10 C13 1_555 1_555
C12 C14 1_555 1_555
N4 O17A 1_555 1_555
C20 C23 1_555 1_555
C22 C24 1_555 1_555
C29 N7 1_555 1_555
C34 C35 1_555 1_555
O4A N1A 1_555 1_555
O6A N2A 1_555 1_555
O8A N3A 1_555 1_555
C10A C13A 1_555 1_555
C20A C23A 1_555 1_555
C18D N6D 1_555 1_555
C29A N7A 1_555 1_555
C8D C4D 1_555 1_555
C34A C35A 1_555 1_555

#END
