
#######################################################################
#
#                 Cambridge Crystallographic Data Centre
#                                CCDC 
#
#######################################################################
#
# If this CIF has been generated from an entry in the Cambridge 
# Structural Database, then it will include bibliographic, chemical, 
# crystal, experimental, refinement or atomic coordinate data resulting 
# from the CCDC's data processing and validation procedures.
#
#######################################################################

data_KARLIA
_chemical_formula_moiety         '(C84 H56 N6 Ni6 O26)n'
_symmetry_cell_setting           cubic
_symmetry_space_group_name_H-M   'P -4 3 n'
_symmetry_Int_Tables_number      218
_space_group_name_Hall           'P -4n 2 3'
loop_
_symmetry_equiv_pos_site_id
_symmetry_equiv_pos_as_xyz
1 x,y,z
2 -x,-y,z
3 -x,y,-z
4 x,-y,-z
5 z,x,y
6 z,-x,-y
7 -z,-x,y
8 -z,x,-y
9 y,z,x
10 -y,z,-x
11 y,-z,-x
12 -y,-z,x
13 1/2+y,1/2+x,1/2+z
14 1/2-y,1/2-x,1/2+z
15 1/2+y,1/2-x,1/2-z
16 1/2-y,1/2+x,1/2-z
17 1/2+x,1/2+z,1/2+y
18 1/2-x,1/2+z,1/2-y
19 1/2-x,1/2-z,1/2+y
20 1/2+x,1/2-z,1/2-y
21 1/2+z,1/2+y,1/2+x
22 1/2+z,1/2-y,1/2-x
23 1/2-z,1/2+y,1/2-x
24 1/2-z,1/2-y,1/2+x
_cell_length_a                   25.8186(6)
_cell_length_b                   25.8186(6)
_cell_length_c                   25.8186(6)
_cell_angle_alpha                90
_cell_angle_beta                 90
_cell_angle_gamma                90
_cell_volume                     17210.7
loop_
_atom_site_label
_atom_site_type_symbol
_atom_site_fract_x
_atom_site_fract_y
_atom_site_fract_z
Ni1 Ni 0.869654(10) 0.770325(10) 0.781066(10)
O1 O 0.80324(7) 0.80324(7) 0.80324(7)
O2 O 0.84344(7) 0.76869(6) 0.70539(6)
O3 O 0.79117(6) 0.83830(6) 0.69705(7)
O4 O 0.90827(7) 0.83819(10) 0.76681(7)
O5 O 0.85291(6) 0.90228(9) 0.76699(6)
N1 N 0.74539(6) 0.76560(4) 0.43753(6)
C1 C 0.78765(6) 0.74418(6) 0.46312(6)
H1 H 0.8080 0.7183 0.4466
C2 C 0.80017(7) 0.76061(6) 0.51283(6)
H2 H 0.8290 0.7460 0.5303
C3 C 0.77043(7) 0.79846(5) 0.53696(7)
C4 C 0.72818(6) 0.81987(6) 0.51138(7)
H3 H 0.7079 0.8457 0.5279
C5 C 0.71566(6) 0.80344(6) 0.46166(6)
H4 H 0.6868 0.8181 0.4442
C6 C 0.78124(9) 0.81306(9) 0.59213(10)
H5 H 0.7653 0.8437 0.6048
C7 C 0.80980(10) 0.78803(9) 0.62326(10)
H6 H 0.8291 0.7596 0.6100
C8 C 0.81500(8) 0.80072(8) 0.68053(8)
C9 C 0.89667(9) 0.88378(10) 0.76526(9)
C10 C 0.94175(11) 0.92154(11) 0.75642(11)
C11 C 0.93354(10) 0.97369(10) 0.75634(11)
H7 H 0.8990 0.9864 0.7564
C12 C 0.97496(11) 1.00908(10) 0.75622(10)
C13 C 0.96637(11) 1.06274(13) 0.75558(11)
H8 H 0.9319 1.0757 0.7549
C14 C 0.99221(11) 0.90297(13) 0.75595(10)
H9 H 0.9984 0.8667 0.7559
Ni1H Ni 0.770325(10) 0.781066(10) 0.869654(10)
Ni1U Ni 1.281066(10) 0.729675(10) 0.630346(10)
Ni1D Ni 0.781066(10) 0.869654(10) 0.770325(10)
Ni1N Ni 1.270325(10) 0.630346(10) 0.718934(10)
Ni1A Ni 1.130346(10) 1.229675(10) 0.781066(10)
Ni1W Ni 0.718934(10) 0.729675(10) 0.369654(10)
Ni1F Ni 1.218934(10) 1.130346(10) 0.770325(10)
Ni1O Ni 0.729675(10) 0.369654(10) 0.718934(10)
Ni1I Ni 1.229675(10) 0.781066(10) 1.130346(10)
Ni1B Ni 1.130346(10) 0.770325(10) 1.218934(10)
Ni1S Ni 0.369654(10) 0.718934(10) 0.729675(10)
Ni1E Ni 0.781066(10) 1.130346(10) 1.229675(10)
Ni1J Ni 0.770325(10) 1.218934(10) 1.130346(10)
Ni1M Ni 0.729675(10) 0.630346(10) 1.281066(10)
Ni1R Ni 0.630346(10) 0.718934(10) 1.270325(10)
Ni1S_2 Ni 1.369654(10) 0.718934(10) 0.729675(10)
O1N O 1.30324(7) 0.69676(7) 0.69676(7)
O1A O 1.19676(7) 1.19676(7) 0.80324(7)
O2H O 0.76869(6) 0.70539(6) 0.84344(7)
O2U O 1.20539(6) 0.73131(6) 0.65656(7)
O2D O 0.70539(6) 0.84344(7) 0.76869(6)
O2M O 0.73131(6) 0.65656(7) 1.20539(6)
O2S O 1.34344(7) 0.79461(6) 0.73131(6)
O2N O 1.26869(6) 0.65656(7) 0.79461(6)
O2A O 1.15656(7) 1.23131(6) 0.70539(6)
O3H O 0.83830(6) 0.69705(7) 0.79117(6)
O3U O 1.19705(7) 0.66170(6) 0.70883(6)
O3D O 0.69705(7) 0.79117(6) 0.83830(6)
O3M O 0.66170(6) 0.70883(6) 1.19705(7)
O3S O 1.29117(6) 0.80295(7) 0.66170(6)
O3K O 1.16170(6) 1.30295(7) 0.79117(6)
O4A O 1.09173(7) 1.16181(10) 0.76681(7)
O4H O 0.83819(10) 0.76681(7) 0.90827(7)
O4I O 1.16181(10) 0.76681(7) 1.09173(7)
O4D O 0.76681(7) 0.90827(7) 0.83819(10)
O4E O 0.76681(7) 1.09173(7) 1.16181(10)
O4U O 1.26681(7) 0.66181(10) 0.59173(7)
O4N O 1.33819(10) 0.59173(7) 0.73319(7)
O5A O 1.14709(6) 1.09772(9) 0.76699(6)
O5H O 0.90228(9) 0.76699(6) 0.85291(6)
O5I O 1.09772(9) 0.76699(6) 1.14709(6)
O5D O 0.76699(6) 0.85291(6) 0.90228(9)
O5E O 0.76699(6) 1.14709(6) 1.09772(9)
O5S O 1.35291(6) 0.73301(6) 0.59772(9)
O5U O 1.26699(6) 0.59772(9) 0.64709(6)
O5K O 1.09772(9) 1.23301(6) 0.85291(6)
N1H N 0.76560(4) 0.43753(6) 0.74539(6)
N1U N 0.93753(6) 0.73440(4) 0.75461(6)
N1D N 0.43753(6) 0.74539(6) 0.76560(4)
N1M N 0.73440(4) 0.75461(6) 0.93753(6)
N1S N 1.24539(6) 1.06247(6) 0.73440(4)
N1B N 1.25461(6) 0.76560(4) 0.56247(6)
N1Q N 0.75461(6) 0.93753(6) 0.73440(4)
N1K N 1.23440(4) 0.56247(6) 0.74539(6)
N1V N 1.06247(6) 1.26560(4) 0.75461(6)
C1H C 0.74418(6) 0.46312(6) 0.78765(6)
C1U C 0.96312(6) 0.75582(6) 0.71235(6)
C1D C 0.46312(6) 0.78765(6) 0.74418(6)
C1M C 0.75582(6) 0.71235(6) 0.96312(6)
C1S C 1.28765(6) 1.03688(6) 0.75582(6)
H1H H 0.7183 0.4466 0.8080
H1U H 0.9466 0.7817 0.6920
H1D H 0.4466 0.8080 0.7183
H1M H 0.7817 0.6920 0.9466
H1S H 1.3080 1.0534 0.7817
C2H C 0.76061(6) 0.51283(6) 0.80017(7)
C2U C 1.01283(6) 0.73939(6) 0.69983(7)
C2D C 0.51283(6) 0.80017(7) 0.76061(6)
C2M C 0.73939(6) 0.69983(7) 1.01283(6)
C2S C 1.30017(7) 0.98717(6) 0.73939(6)
H2H H 0.7460 0.5303 0.8290
H2U H 1.0303 0.7540 0.6710
H2D H 0.5303 0.8290 0.7460
H2M H 0.7540 0.6710 1.0303
H2S H 1.3290 0.9697 0.7540
C3H C 0.79846(5) 0.53696(7) 0.77043(7)
C3U C 1.03696(7) 0.70154(5) 0.72957(7)
C3D C 0.53696(7) 0.77043(7) 0.79846(5)
C3M C 0.70154(5) 0.72957(7) 1.03696(7)
C3S C 1.27043(7) 0.96304(7) 0.70154(5)
C4H C 0.81987(6) 0.51138(7) 0.72818(6)
C4U C 1.01138(7) 0.68013(6) 0.77182(6)
C4D C 0.51138(7) 0.72818(6) 0.81987(6)
C4M C 0.68013(6) 0.77182(6) 1.01138(7)
C4S C 1.22818(6) 0.98862(7) 0.68013(6)
H3H H 0.8457 0.5279 0.7079
H3U H 1.0279 0.6543 0.7921
H3D H 0.5279 0.7079 0.8457
H3M H 0.6543 0.7921 1.0279
H3S H 1.2079 0.9721 0.6543
C5H C 0.80344(6) 0.46166(6) 0.71566(6)
C5U C 0.96166(6) 0.69656(6) 0.78434(6)
C5D C 0.46166(6) 0.71566(6) 0.80344(6)
C5M C 0.69656(6) 0.78434(6) 0.96166(6)
C5S C 1.21566(6) 1.03834(6) 0.69656(6)
H4H H 0.8181 0.4442 0.6868
H4U H 0.9442 0.6819 0.8132
H4D H 0.4442 0.6868 0.8181
H4M H 0.6819 0.8132 0.9442
H4S H 1.1868 1.0558 0.6819
C6H C 0.81306(9) 0.59213(10) 0.78124(9)
C6U C 1.09213(10) 0.68694(9) 0.71876(9)
C6D C 0.59213(10) 0.78124(9) 0.81306(9)
C6M C 0.68694(9) 0.71876(9) 1.09213(10)
C6S C 1.28124(9) 0.90787(10) 0.68694(9)
H5H H 0.8437 0.6048 0.7653
H5U H 1.1048 0.6563 0.7347
H5D H 0.6048 0.7653 0.8437
H5M H 0.6563 0.7347 1.1048
H5S H 1.2653 0.8952 0.6563
C7H C 0.78803(9) 0.62326(10) 0.80980(10)
C7U C 1.12326(10) 0.71197(9) 0.69020(10)
C7D C 0.62326(10) 0.80980(10) 0.78803(9)
C7M C 0.71197(9) 0.69020(10) 1.12326(10)
C7S C 1.30980(10) 0.87674(10) 0.71197(9)
H6H H 0.7596 0.6100 0.8291
H6U H 1.1100 0.7404 0.6709
H6D H 0.6100 0.8291 0.7596
H6M H 0.7404 0.6709 1.1100
H6S H 1.3291 0.8900 0.7404
C8H C 0.80072(8) 0.68053(8) 0.81500(8)
C8U C 1.18053(8) 0.69928(8) 0.68500(8)
C8D C 0.68053(8) 0.81500(8) 0.80072(8)
C8M C 0.69928(8) 0.68500(8) 1.18053(8)
C8S C 1.31500(8) 0.81947(8) 0.69928(8)
C9A C 1.10333(9) 1.11622(10) 0.76526(9)
C9H C 0.88378(10) 0.76526(9) 0.89667(9)
C9I C 1.11622(10) 0.76526(9) 1.10333(9)
C9D C 0.76526(9) 0.89667(9) 0.88378(10)
C9E C 0.76526(9) 1.10333(9) 1.11622(10)
C10A C 1.05825(11) 1.07846(11) 0.75642(11)
C10H C 0.92154(11) 0.75642(11) 0.94175(11)
C10I C 1.07846(11) 0.75642(11) 1.05825(11)
C10D C 0.75642(11) 0.94175(11) 0.92154(11)
C10E C 0.75642(11) 1.05825(11) 1.07846(11)
C11A C 1.06646(10) 1.02631(10) 0.75634(11)
C11H C 0.97369(10) 0.75634(11) 0.93354(10)
C11I C 1.02631(10) 0.75634(11) 1.06646(10)
C11D C 0.75634(11) 0.93354(10) 0.97369(10)
C11E C 0.75634(11) 1.06646(10) 1.02631(10)
H7A H 1.1010 1.0136 0.7564
H7H H 0.9864 0.7564 0.8990
H7I H 1.0136 0.7564 1.1010
H7D H 0.7564 0.8990 0.9864
H7E H 0.7564 1.1010 1.0136
C12A C 1.02504(11) 0.99092(10) 0.75622(10)
C12H C 1.00908(10) 0.75622(10) 0.97496(11)
C12I C 0.99092(10) 0.75622(10) 1.02504(11)
C12D C 0.75622(10) 0.97496(11) 1.00908(10)
C12E C 0.75622(10) 1.02504(11) 0.99092(10)
C13A C 1.03363(11) 0.93726(13) 0.75558(11)
C13H C 1.06274(13) 0.75558(11) 0.96637(11)
C13I C 0.93726(13) 0.75558(11) 1.03363(11)
C13D C 0.75558(11) 0.96637(11) 1.06274(13)
C13E C 0.75558(11) 1.03363(11) 0.93726(13)
H8A H 1.0681 0.9243 0.7549
H8H H 1.0757 0.7549 0.9319
H8I H 0.9243 0.7549 1.0681
H8D H 0.7549 0.9319 1.0757
H8E H 0.7549 1.0681 0.9243
C14A C 1.00779(11) 1.09703(13) 0.75595(10)
C14H C 0.90297(13) 0.75595(10) 0.99221(11)
C14I C 1.09703(13) 0.75595(10) 1.00779(11)
C14D C 0.75595(10) 0.99221(11) 0.90297(13)
C14E C 0.75595(10) 1.00779(11) 1.09703(13)
H9A H 1.0016 1.1333 0.7559
H9H H 0.8667 0.7559 0.9984
H9I H 1.1333 0.7559 1.0016
H9D H 0.7559 0.9984 0.8667
H9E H 0.7559 1.0016 1.1333
loop_
_geom_bond_atom_site_label_1
_geom_bond_atom_site_label_2
_geom_bond_site_symmetry_1
_geom_bond_site_symmetry_2
Ni1 O1 1_555 1_555
O1 Ni1H 1_555 1_555
O2 Ni1 1_555 1_555
O3 C8 1_555 1_555
O4 Ni1 1_555 1_555
O5 C9 1_555 1_555
N1 C1 1_555 1_555
C1 H1 1_555 1_555
C2 C1 1_555 1_555
H2 C2 1_555 1_555
C3 C2 1_555 1_555
C4 C3 1_555 1_555
H3 C4 1_555 1_555
C5 N1 1_555 1_555
H4 C5 1_555 1_555
C6 C3 1_555 1_555
H5 C6 1_555 1_555
C7 C6 1_555 1_555
H6 C7 1_555 1_555
C8 O2 1_555 1_555
C9 O4 1_555 1_555
C10 C9 1_555 1_555
C11 C10 1_555 1_555
H7 C11 1_555 1_555
C12 C11 1_555 1_555
C13 C12 1_555 1_555
H8 C13 1_555 1_555
C14 C10 1_555 1_555
H9 C14 1_555 1_555
Ni1H O2H 1_555 1_555
Ni1U O1N 1_555 1_555
Ni1D O1 1_555 1_555
Ni1N O1N 1_555 1_555
Ni1A O1A 1_555 1_555
Ni1W N1 1_555 1_555
Ni1F O1A 1_555 1_555
Ni1O N1H 1_555 1_555
Ni1I O4I 1_555 1_555
Ni1B O5I 1_555 1_555
Ni1S N1D 1_555 1_555
Ni1E O4E 1_555 1_555
Ni1J O5E 1_555 1_555
Ni1M O2M 1_555 1_555
Ni1R O3M 1_555 1_555
Ni1S_2 O1N 1_555 1_555
O2H C8H 1_555 1_555
O2U Ni1U 1_555 1_555
O2D Ni1D 1_555 1_555
O2M C8M 1_555 1_555
O2S Ni1S_2 1_555 1_555
O2N Ni1N 1_555 1_555
O2A Ni1A 1_555 1_555
O3H Ni1 1_555 1_555
O3U Ni1N 1_555 1_555
O3D Ni1H 1_555 1_555
O3M C8M 1_555 1_555
O3S Ni1U 1_555 1_555
O3K Ni1A 1_555 1_555
O4A Ni1A 1_555 1_555
O4H Ni1H 1_555 1_555
O4I C9I 1_555 1_555
O4D Ni1D 1_555 1_555
O4E C9E 1_555 1_555
O4U Ni1U 1_555 1_555
O4N Ni1N 1_555 1_555
O5A Ni1F 1_555 1_555
O5H Ni1 1_555 1_555
O5I C9I 1_555 1_555
O5D Ni1H 1_555 1_555
O5E C9E 1_555 1_555
O5S Ni1U 1_555 1_555
O5U Ni1N 1_555 1_555
O5K Ni1A 1_555 1_555
N1H C1H 1_555 1_555
N1U Ni1 1_555 1_555
N1D C1D 1_555 1_555
N1M Ni1H 1_555 1_555
N1S Ni1F 1_555 1_555
N1B Ni1U 1_555 1_555
N1Q Ni1D 1_555 1_555
N1K Ni1N 1_555 1_555
N1V Ni1A 1_555 1_555
C1H H1H 1_555 1_555
C1U N1U 1_555 1_555
C1D H1D 1_555 1_555
C1M N1M 1_555 1_555
C1S N1S 1_555 1_555
H1U C1U 1_555 1_555
H1M C1M 1_555 1_555
H1S C1S 1_555 1_555
C2H C1H 1_555 1_555
C2U C1U 1_555 1_555
C2D C1D 1_555 1_555
C2M C1M 1_555 1_555
C2S C1S 1_555 1_555
H2H C2H 1_555 1_555
H2U C2U 1_555 1_555
H2D C2D 1_555 1_555
H2M C2M 1_555 1_555
H2S C2S 1_555 1_555
C3H C2H 1_555 1_555
C3U C2U 1_555 1_555
C3D C2D 1_555 1_555
C3M C2M 1_555 1_555
C3S C2S 1_555 1_555
C4H C3H 1_555 1_555
C4U C3U 1_555 1_555
C4D C3D 1_555 1_555
C4M C3M 1_555 1_555
C4S C3S 1_555 1_555
H3H C4H 1_555 1_555
H3U C4U 1_555 1_555
H3D C4D 1_555 1_555
H3M C4M 1_555 1_555
H3S C4S 1_555 1_555
C5H N1H 1_555 1_555
C5U N1U 1_555 1_555
C5D N1D 1_555 1_555
C5M N1M 1_555 1_555
C5S N1S 1_555 1_555
H4H C5H 1_555 1_555
H4U C5U 1_555 1_555
H4D C5D 1_555 1_555
H4M C5M 1_555 1_555
H4S C5S 1_555 1_555
C6H C3H 1_555 1_555
C6U C3U 1_555 1_555
C6D C3D 1_555 1_555
C6M C3M 1_555 1_555
C6S C3S 1_555 1_555
H5H C6H 1_555 1_555
H5U C6U 1_555 1_555
H5D C6D 1_555 1_555
H5M C6M 1_555 1_555
H5S C6S 1_555 1_555
C7H C6H 1_555 1_555
C7U C6U 1_555 1_555
C7D C6D 1_555 1_555
C7M C6M 1_555 1_555
C7S C6S 1_555 1_555
H6H C7H 1_555 1_555
H6U C7U 1_555 1_555
H6D C7D 1_555 1_555
H6M C7M 1_555 1_555
H6S C7S 1_555 1_555
C8H O3H 1_555 1_555
C8U O2U 1_555 1_555
C8D O2D 1_555 1_555
C8M C7M 1_555 1_555
C8S O2S 1_555 1_555
C9A O4A 1_555 1_555
C9H O4H 1_555 1_555
C9I C10I 1_555 1_555
C9D O4D 1_555 1_555
C9E C10E 1_555 1_555
C10A C9A 1_555 1_555
C10H C9H 1_555 1_555
C10I C11I 1_555 1_555
C10D C9D 1_555 1_555
C10E C11E 1_555 1_555
C11A C10A 1_555 1_555
C11H C10H 1_555 1_555
C11I H7I 1_555 1_555
C11D C10D 1_555 1_555
C11E H7E 1_555 1_555
H7A C11A 1_555 1_555
H7H C11H 1_555 1_555
H7D C11D 1_555 1_555
C12A C12 1_555 1_555
C12H C11H 1_555 1_555
C12I C11I 1_555 1_555
C12D C11D 1_555 1_555
C12E C11E 1_555 1_555
C13A C14 1_555 1_555
C13H C12H 1_555 1_555
C13I C12I 1_555 1_555
C13D C12D 1_555 1_555
C13E C12E 1_555 1_555
H8A C13A 1_555 1_555
H8H C13H 1_555 1_555
H8I C13I 1_555 1_555
H8D C13D 1_555 1_555
H8E C13E 1_555 1_555
C14A C13 1_555 1_555
C14H C10H 1_555 1_555
C14I C10I 1_555 1_555
C14D C10D 1_555 1_555
C14E C10E 1_555 1_555
H9A C14A 1_555 1_555
H9H C14H 1_555 1_555
H9I C14I 1_555 1_555
H9D C14D 1_555 1_555
H9E C14E 1_555 1_555
O3 Ni1D 1_555 1_555
O5 Ni1D 1_555 1_555
C4 C5 1_555 1_555
C7 C8 1_555 1_555
O3U C8U 1_555 1_555
O3D C8D 1_555 1_555
O3S C8S 1_555 1_555
O5A C9A 1_555 1_555
O5H C9H 1_555 1_555
O5D C9D 1_555 1_555
C4H C5H 1_555 1_555
C4U C5U 1_555 1_555
C4D C5D 1_555 1_555
C4M C5M 1_555 1_555
C4S C5S 1_555 1_555
C7H C8H 1_555 1_555
C7U C8U 1_555 1_555
C7D C8D 1_555 1_555
C7S C8S 1_555 1_555
C10A C14A 1_555 1_555
C11A C12A 1_555 1_555
C12A C13A 1_555 1_555
C12H C12I 1_555 1_555
C12D C12E 1_555 1_555
C13H C14I 1_555 1_555
C13I C14H 1_555 1_555
C13D C14E 1_555 1_555
C13E C14D 1_555 1_555

#END
