
#######################################################################
#
#                 Cambridge Crystallographic Data Centre
#                                CCDC 
#
#######################################################################
#
# If this CIF has been generated from an entry in the Cambridge 
# Structural Database, then it will include bibliographic, chemical, 
# crystal, experimental, refinement or atomic coordinate data resulting 
# from the CCDC's data processing and validation procedures.
#
#######################################################################

data_KARMUN
_chemical_formula_moiety         'C24 H7 N1 Ni3 O8'
_symmetry_cell_setting           cubic
_symmetry_space_group_name_H-M   'I -4 3 m'
_symmetry_Int_Tables_number      217
_space_group_name_Hall           'I -4 2 3'
loop_
_symmetry_equiv_pos_site_id
_symmetry_equiv_pos_as_xyz
1 x,y,z
2 -x,-y,z
3 -x,y,-z
4 x,-y,-z
5 z,x,y
6 z,-x,-y
7 -z,-x,y
8 -z,x,-y
9 y,z,x
10 -y,z,-x
11 y,-z,-x
12 -y,-z,x
13 y,x,z
14 -y,-x,z
15 y,-x,-z
16 -y,x,-z
17 x,z,y
18 -x,z,-y
19 -x,-z,y
20 x,-z,-y
21 z,y,x
22 z,-y,-x
23 -z,y,-x
24 -z,-y,x
25 1/2+x,1/2+y,1/2+z
26 1/2-x,1/2-y,1/2+z
27 1/2-x,1/2+y,1/2-z
28 1/2+x,1/2-y,1/2-z
29 1/2+z,1/2+x,1/2+y
30 1/2+z,1/2-x,1/2-y
31 1/2-z,1/2-x,1/2+y
32 1/2-z,1/2+x,1/2-y
33 1/2+y,1/2+z,1/2+x
34 1/2-y,1/2+z,1/2-x
35 1/2+y,1/2-z,1/2-x
36 1/2-y,1/2-z,1/2+x
37 1/2+y,1/2+x,1/2+z
38 1/2-y,1/2-x,1/2+z
39 1/2+y,1/2-x,1/2-z
40 1/2-y,1/2+x,1/2-z
41 1/2+x,1/2+z,1/2+y
42 1/2-x,1/2+z,1/2-y
43 1/2-x,1/2-z,1/2+y
44 1/2+x,1/2-z,1/2-y
45 1/2+z,1/2+y,1/2+x
46 1/2+z,1/2-y,1/2-x
47 1/2-z,1/2+y,1/2-x
48 1/2-z,1/2-y,1/2+x
_cell_length_a                   32.1597(2)
_cell_length_b                   32.1597(2)
_cell_length_c                   32.1597(2)
_cell_angle_alpha                90
_cell_angle_beta                 90
_cell_angle_gamma                90
_cell_volume                     33261.1
loop_
_atom_site_label
_atom_site_type_symbol
_atom_site_fract_x
_atom_site_fract_y
_atom_site_fract_z
Ni1 Ni -0.15507(6) 0.08146(6) -0.15507(7)
O1 O -0.1242(3) 0.1242(3) -0.1242(3)
O2 O -0.1639(3) 0.0509(3) -0.0997(4)
N1 N -0.1836(3) 0.0330(4) -0.1836(3)
C1 C -0.1696(5) 0.0412(6) 0.0101(4)
H1 H -0.1704 0.0696 0.0182
C2 C -0.1685(4) 0.0316(7) -0.0316(4)
C3 C -0.3352(4) -0.24140(17) -0.33521(17)
C4 C -0.3152(5) -0.2123(4) -0.3604(6)
H2 H -0.3161 -0.2142 -0.3898
C5 C -0.2950(6) -0.1785(8) -0.3425(7)
H3 H -0.2719 -0.1637 -0.3603
C6 C -0.2980(6) -0.1738(9) -0.2995(7)
C9 C -0.3576(6) -0.2777(5) -0.3576(5)
C11 C -0.2235(7) -0.0308(5) -0.2235(5)
C12 C -0.2440(7) -0.0674(7) -0.2444(10)
C13 C -0.2589(8) -0.0995(6) -0.2195(11)
H7 H -0.2566 -0.0977 -0.1901
C14 C -0.2770(7) -0.1342(7) -0.2377(9)
H8 H -0.2872 -0.1562 -0.2207
C15 C -0.2803(6) -0.1369(8) -0.2807(7)
C19 C -0.1669(4) 0.0634(7) -0.0634(4)
C20 C -0.1869(7) -0.0145(7) -0.2401(6)
H12 H -0.1757 -0.0255 -0.2651
C23 C -0.1672(6) 0.0177(6) -0.2198(8)
H15 H -0.1423 0.0292 -0.2309
O3 O -0.2170(11) 0.1032(8) -0.1465(8)
Ni1K Ni -0.08146(6) 0.15507(7) -0.15507(6)
Ni1E Ni -0.15507(7) 0.15507(6) -0.08146(6)
O2T O -0.0997(4) 0.0509(3) -0.1639(3)
O2S O -0.1639(3) 0.0997(4) -0.0509(3)
C1P C -0.1696(5) 0.0101(4) 0.0412(6)
C1S C -0.1696(5) -0.0101(4) -0.0412(6)
C4T C -0.3604(6) -0.2123(4) -0.3152(5)
C5T C -0.3425(7) -0.1785(8) -0.2950(6)
C9GA C -0.2223(5) 0.1424(5) -0.1424(6)
C13T C -0.2195(11) -0.0995(6) -0.2589(8)
C14T C -0.2377(9) -0.1342(7) -0.2770(7)
C20T C -0.2401(6) -0.0145(7) -0.1869(7)
C23T C -0.2198(8) 0.0177(6) -0.1672(6)
O3T O -0.1465(8) 0.1032(8) -0.2170(11)
O3DA O -0.3535(8) -0.2830(11) -0.3968(8)
O3LA O -0.3968(8) -0.2830(11) -0.3535(8)
loop_
_geom_bond_atom_site_label_1
_geom_bond_atom_site_label_2
_geom_bond_site_symmetry_1
_geom_bond_site_symmetry_2
Ni1 O1 1_555 1_555
O1 Ni1K 1_555 1_555
O2 Ni1 1_555 1_555
N1 Ni1 1_555 1_555
C1 H1 1_555 1_555
C2 C1 1_555 1_555
C3 C4 1_555 1_555
C4 H2 1_555 1_555
C5 C4 1_555 1_555
H3 C5 1_555 1_555
C6 C5 1_555 1_555
C9 C3 1_555 1_555
C11 C12 1_555 1_555
C12 C13 1_555 1_555
C13 H7 1_555 1_555
C14 C13 1_555 1_555
H8 C14 1_555 1_555
C15 C6 1_555 1_555
C19 O2 1_555 1_555
C20 C11 1_555 1_555
H12 C20 1_555 1_555
C23 N1 1_555 1_555
H15 C23 1_555 1_555
O3 Ni1 1_555 1_555
Ni1E O1 1_555 1_555
O2T Ni1 1_555 1_555
O2S C19 1_555 1_555
C1P C1 1_555 1_555
C1S C2 1_555 1_555
C4T C3 1_555 1_555
C5T C6 1_555 1_555
C9GA O3 1_555 1_555
C13T C12 1_555 1_555
C14T C15 1_555 1_555
C20T C11 1_555 1_555
C23T N1 1_555 1_555
O3T Ni1 1_555 1_555
O3DA C9 1_555 1_555
O3LA C9 1_555 1_555
C2 C19 1_555 1_555
C14 C15 1_555 1_555
C20 C23 1_555 1_555
Ni1E O2S 1_555 1_555
C4T C5T 1_555 1_555
C13T C14T 1_555 1_555
C20T C23T 1_555 1_555

#END
