
#######################################################################
#
#                 Cambridge Crystallographic Data Centre
#                                CCDC 
#
#######################################################################
#
# If this CIF has been generated from an entry in the Cambridge 
# Structural Database, then it will include bibliographic, chemical, 
# crystal, experimental, refinement or atomic coordinate data resulting 
# from the CCDC's data processing and validation procedures.
#
#######################################################################

data_KARNAU
_chemical_formula_moiety         '(C144 H92 N6 Ni6 O26)n'
_symmetry_cell_setting           cubic
_symmetry_space_group_name_H-M   'I 2 3'
_symmetry_Int_Tables_number      197
_space_group_name_Hall           'I 2 2 3'
loop_
_symmetry_equiv_pos_site_id
_symmetry_equiv_pos_as_xyz
1 x,y,z
2 -x,-y,z
3 -x,y,-z
4 x,-y,-z
5 z,x,y
6 z,-x,-y
7 -z,-x,y
8 -z,x,-y
9 y,z,x
10 -y,z,-x
11 y,-z,-x
12 -y,-z,x
13 1/2+x,1/2+y,1/2+z
14 1/2-x,1/2-y,1/2+z
15 1/2-x,1/2+y,1/2-z
16 1/2+x,1/2-y,1/2-z
17 1/2+z,1/2+x,1/2+y
18 1/2+z,1/2-x,1/2-y
19 1/2-z,1/2-x,1/2+y
20 1/2-z,1/2+x,1/2-y
21 1/2+y,1/2+z,1/2+x
22 1/2-y,1/2+z,1/2-x
23 1/2+y,1/2-z,1/2-x
24 1/2-y,1/2-z,1/2+x
_cell_length_a                   33.7978(15)
_cell_length_b                   33.7978(15)
_cell_length_c                   33.7978(15)
_cell_angle_alpha                90
_cell_angle_beta                 90
_cell_angle_gamma                90
_cell_volume                     38606.9
loop_
_atom_site_label
_atom_site_type_symbol
_atom_site_fract_x
_atom_site_fract_y
_atom_site_fract_z
Ni1 Ni 0.175343(11) 0.167199(10) 0.099882(10)
O1 O 0.14412(5) 0.14412(5) 0.14412(5)
O2 O 0.17609(8) 0.22285(7) 0.12181(7)
O3 O 0.12537(7) 0.23083(6) 0.16064(8)
O4 O 0.12357(7) 0.17730(7) 0.06877(6)
O5 O 0.07405(6) 0.17856(7) 0.11217(7)
N1 N 0.31130(7) 0.55168(5) 0.29250(7)
C1 C 0.28207(8) 0.55834(6) 0.26435(8)
H1 H 0.2739 0.5846 0.2585
C2 C 0.26478(8) 0.52658(9) 0.24476(8)
H2 H 0.2448 0.5311 0.2255
C3 C 0.27671(10) 0.48817(8) 0.25332(10)
C4 C 0.30594(10) 0.48151(5) 0.28148(11)
H3 H 0.3141 0.4553 0.2873
C5 C 0.32323(8) 0.51327(7) 0.30107(8)
H4 H 0.3432 0.5087 0.3203
C6 C 0.25717(13) 0.45517(10) 0.23233(13)
C7 C 0.22658(16) 0.46050(8) 0.20536(17)
H5 H 0.2178 0.4864 0.1990
C8 C 0.20882(14) 0.42787(13) 0.18770(15)
H6 H 0.1879 0.4315 0.1693
C9 C 0.22165(13) 0.38992(10) 0.19702(13)
C10 C 0.25223(16) 0.38460(8) 0.22399(17)
H7 H 0.2610 0.3587 0.2304
C11 C 0.26999(14) 0.41722(13) 0.24165(15)
H8 H 0.2909 0.4136 0.2601
C12 C 0.20202(11) 0.35393(7) 0.18167(10)
C13 C 0.16594(10) 0.34077(8) 0.19637(9)
H9 H 0.1525 0.3557 0.2160
C14 C 0.14956(8) 0.30574(8) 0.18236(9)
H10 H 0.1249 0.2968 0.1924
C15 C 0.16928(9) 0.28386(6) 0.15366(9)
C16 C 0.20537(9) 0.29702(8) 0.13896(8)
H11 H 0.2188 0.2821 0.1193
C17 C 0.22174(8) 0.33205(9) 0.15297(10)
H12 H 0.2464 0.3410 0.1429
C18 C 0.15698(11) 0.24272(7) 0.14561(11)
C19 C 0.08922(12) 0.18020(10) 0.07779(10)
C20 C 0.06120(9) 0.18533(9) 0.04471(9)
C21 C 0.02004(10) 0.18676(6) 0.05213(10)
H13 H 0.0104 0.1869 0.0785
C22 C -0.00684(9) 0.18800(9) 0.01954(8)
C23 C -0.04811(11) 0.18688(10) 0.02680(11)
H14 H -0.0574 0.1871 0.0533
C24 C 0.07534(11) 0.18553(10) 0.00418(11)
H15 H 0.1029 0.1847 -0.0012
Ni1H Ni 0.167199(10) 0.099882(10) 0.175343(11)
Ni1R Ni 0.400118(10) 0.324657(11) -0.332801(10)
Ni1D Ni 0.099882(10) 0.175343(11) 0.167199(10)
Ni1W Ni 0.332801(10) 0.400118(10) -0.324657(11)
Ni1B Ni -0.175343(11) 0.167199(10) -0.099882(10)
Ni1U Ni 0.332801(10) 0.599882(10) 0.324657(11)
Ni1G Ni -0.099882(10) 0.175343(11) -0.167199(10)
Ni1Q Ni 0.599882(10) 0.324657(11) 0.332801(10)
Ni1J Ni 0.167199(10) -0.099882(10) -0.175343(11)
Ni1C Ni 0.175343(11) -0.167199(10) -0.099882(10)
Ni1M Ni 0.324657(11) 0.332801(10) 0.599882(10)
Ni1F Ni -0.099882(10) -0.175343(11) 0.167199(10)
Ni1K Ni -0.167199(10) -0.099882(10) 0.175343(11)
Ni1N Ni 0.324657(11) -0.332801(10) 0.400118(10)
Ni1S Ni 0.400118(10) -0.324657(11) 0.332801(10)
Ni1M_2 Ni 0.324657(11) 0.332801(10) -0.400118(10)
O1M O 0.35588(5) 0.35588(5) -0.35588(5)
O1B O -0.14412(5) 0.14412(5) -0.14412(5)
O2H O 0.22285(7) 0.12181(7) 0.17609(8)
O2R O 0.37819(7) 0.32391(8) -0.27715(7)
O2D O 0.12181(7) 0.17609(8) 0.22285(7)
O2N O 0.32391(8) -0.27715(7) 0.37819(7)
O2M O 0.32391(8) 0.27715(7) -0.37819(7)
O2W O 0.27715(7) 0.37819(7) -0.32391(8)
O2B O -0.17609(8) 0.22285(7) -0.12181(7)
O3H O 0.23083(6) 0.16064(8) 0.12537(7)
O3R O 0.33936(8) 0.37463(7) -0.26917(6)
O3D O 0.16064(8) 0.12537(7) 0.23083(6)
O3N O 0.37463(7) -0.26917(6) 0.33936(8)
O3M O 0.37463(7) 0.26917(6) -0.33936(8)
O3I O -0.23083(6) 0.16064(8) -0.12537(7)
O4B O -0.12357(7) 0.17730(7) -0.06877(6)
O4H O 0.17730(7) 0.06877(6) 0.12357(7)
O4J O 0.17730(7) -0.06877(6) -0.12357(7)
O4D O 0.06877(6) 0.12357(7) 0.17730(7)
O4F O -0.06877(6) -0.12357(7) 0.17730(7)
O4R O 0.43123(6) 0.37643(7) -0.32270(7)
O4W O 0.32270(7) 0.43123(6) -0.37643(7)
O5B O -0.07405(6) 0.17856(7) -0.11217(7)
O5H O 0.17856(7) 0.11217(7) 0.07405(6)
O5J O 0.17856(7) -0.11217(7) -0.07405(6)
O5D O 0.11217(7) 0.07405(6) 0.17856(7)
O5F O -0.11217(7) -0.07405(6) 0.17856(7)
O5M O 0.42595(6) 0.32144(7) -0.38783(7)
O5R O 0.38783(7) 0.42595(6) -0.32144(7)
O5I O -0.17856(7) 0.11217(7) -0.07405(6)
N1H N 0.55168(5) 0.29250(7) 0.31130(7)
N1R N 0.20750(7) 0.18870(7) 0.05168(5)
N1D N 0.29250(7) 0.31130(7) 0.55168(5)
N1N N 0.18870(7) 0.05168(5) 0.20750(7)
N1M N 0.18870(7) -0.05168(5) -0.20750(7)
N1I N 0.44832(5) 0.29250(7) -0.31130(7)
N1V N 0.05168(5) 0.20750(7) 0.18870(7)
N1C N 0.31130(7) 0.44832(5) -0.29250(7)
N1Q N -0.20750(7) 0.18870(7) -0.05168(5)
C1H C 0.55834(6) 0.26435(8) 0.28207(8)
C1R C 0.23565(8) 0.21793(8) 0.05834(6)
C1D C 0.26435(8) 0.28207(8) 0.55834(6)
C1N C 0.21793(8) 0.05834(6) 0.23565(8)
C1M C 0.21793(8) -0.05834(6) -0.23565(8)
H1H H 0.5846 0.2585 0.2739
H1R H 0.2415 0.2261 0.0846
H1D H 0.2585 0.2739 0.5846
H1N H 0.2261 0.0846 0.2415
H1M H 0.2261 -0.0846 -0.2415
C2H C 0.52658(9) 0.24476(8) 0.26478(8)
C2R C 0.25524(8) 0.23522(8) 0.02658(9)
C2D C 0.24476(8) 0.26478(8) 0.52658(9)
C2N C 0.23522(8) 0.02658(9) 0.25524(8)
C2M C 0.23522(8) -0.02658(9) -0.25524(8)
H2H H 0.5311 0.2255 0.2448
H2R H 0.2745 0.2552 0.0311
H2D H 0.2255 0.2448 0.5311
H2N H 0.2552 0.0311 0.2745
H2M H 0.2552 -0.0311 -0.2745
C3H C 0.48817(8) 0.25332(10) 0.27671(10)
C3R C 0.24668(10) 0.22329(10) -0.01183(8)
C3D C 0.25332(10) 0.27671(10) 0.48817(8)
C3N C 0.22329(10) -0.01183(8) 0.24668(10)
C3M C 0.22329(10) 0.01183(8) -0.24668(10)
C4H C 0.48151(5) 0.28148(11) 0.30594(10)
C4R C 0.21852(11) 0.19406(10) -0.01849(5)
C4D C 0.28148(11) 0.30594(10) 0.48151(5)
C4N C 0.19406(10) -0.01849(5) 0.21852(11)
C4M C 0.19406(10) 0.01849(5) -0.21852(11)
H3H H 0.4553 0.2873 0.3141
H3R H 0.2127 0.1859 -0.0447
H3D H 0.2873 0.3141 0.4553
H3N H 0.1859 -0.0447 0.2127
H3M H 0.1859 0.0447 -0.2127
C5H C 0.51327(7) 0.30107(8) 0.32323(8)
C5R C 0.19893(8) 0.17677(8) 0.01327(7)
C5D C 0.30107(8) 0.32323(8) 0.51327(7)
C5N C 0.17677(8) 0.01327(7) 0.19893(8)
C5M C 0.17677(8) -0.01327(7) -0.19893(8)
H4H H 0.5087 0.3203 0.3432
H4R H 0.1797 0.1568 0.0087
H4D H 0.3203 0.3432 0.5087
H4N H 0.1568 0.0087 0.1797
H4M H 0.1568 -0.0087 -0.1797
C6H C 0.45517(10) 0.23233(13) 0.25717(13)
C6R C 0.26767(13) 0.24283(13) -0.04483(10)
C6D C 0.23233(13) 0.25717(13) 0.45517(10)
C6N C 0.24283(13) -0.04483(10) 0.26767(13)
C6M C 0.24283(13) 0.04483(10) -0.26767(13)
C7H C 0.46050(8) 0.20536(17) 0.22658(16)
C7R C 0.29464(17) 0.27342(16) -0.03950(8)
C7D C 0.20536(17) 0.22658(16) 0.46050(8)
C7N C 0.27342(16) -0.03950(8) 0.29464(17)
C7M C 0.27342(16) 0.03950(8) -0.29464(17)
H5H H 0.4864 0.1990 0.2178
H5R H 0.3010 0.2822 -0.0136
H5D H 0.1990 0.2178 0.4864
H5N H 0.2822 -0.0136 0.3010
H5M H 0.2822 0.0136 -0.3010
C8H C 0.42787(13) 0.18770(15) 0.20882(14)
C8R C 0.31230(15) 0.29118(14) -0.07213(13)
C8D C 0.18770(15) 0.20882(14) 0.42787(13)
C8N C 0.29118(14) -0.07213(13) 0.31230(15)
C8M C 0.29118(14) 0.07213(13) -0.31230(15)
H6H H 0.4315 0.1693 0.1879
H6R H 0.3307 0.3121 -0.0685
H6D H 0.1693 0.1879 0.4315
H6N H 0.3121 -0.0685 0.3307
H6M H 0.3121 0.0685 -0.3307
C9H C 0.38992(10) 0.19702(13) 0.22165(13)
C9R C 0.30298(13) 0.27835(13) -0.11008(10)
C9D C 0.19702(13) 0.22165(13) 0.38992(10)
C9N C 0.27835(13) -0.11008(10) 0.30298(13)
C9M C 0.27835(13) 0.11008(10) -0.30298(13)
C10H C 0.38460(8) 0.22399(17) 0.25223(16)
C10R C 0.27601(17) 0.24777(16) -0.11540(8)
C10D C 0.22399(17) 0.25223(16) 0.38460(8)
C10N C 0.24777(16) -0.11540(8) 0.27601(17)
C10M C 0.24777(16) 0.11540(8) -0.27601(17)
H7H H 0.3587 0.2304 0.2610
H7R H 0.2696 0.2390 -0.1413
H7D H 0.2304 0.2610 0.3587
H7N H 0.2390 -0.1413 0.2696
H7M H 0.2390 0.1413 -0.2696
C11H C 0.41722(13) 0.24165(15) 0.26999(14)
C11R C 0.25835(15) 0.23001(14) -0.08278(13)
C11D C 0.24165(15) 0.26999(14) 0.41722(13)
C11N C 0.23001(14) -0.08278(13) 0.25835(15)
C11M C 0.23001(14) 0.08278(13) -0.25835(15)
H8H H 0.4136 0.2601 0.2909
H8R H 0.2399 0.2091 -0.0864
H8D H 0.2601 0.2909 0.4136
H8N H 0.2091 -0.0864 0.2399
H8M H 0.2091 0.0864 -0.2399
C12H C 0.35393(7) 0.18167(10) 0.20202(11)
C12R C 0.31833(10) 0.29798(11) -0.14607(7)
C12D C 0.18167(10) 0.20202(11) 0.35393(7)
C12N C 0.29798(11) -0.14607(7) 0.31833(10)
C12M C 0.29798(11) 0.14607(7) -0.31833(10)
C13H C 0.34077(8) 0.19637(9) 0.16594(10)
C13R C 0.30363(9) 0.33406(10) -0.15923(8)
C13D C 0.19637(9) 0.16594(10) 0.34077(8)
C13N C 0.33406(10) -0.15923(8) 0.30363(9)
C13M C 0.33406(10) 0.15923(8) -0.30363(9)
H9H H 0.3557 0.2160 0.1525
H9R H 0.2840 0.3475 -0.1443
H9D H 0.2160 0.1525 0.3557
H9N H 0.3475 -0.1443 0.2840
H9M H 0.3475 0.1443 -0.2840
C14H C 0.30574(8) 0.18236(9) 0.14956(8)
C14R C 0.31764(9) 0.35044(8) -0.19426(8)
C14D C 0.18236(9) 0.14956(8) 0.30574(8)
C14N C 0.35044(8) -0.19426(8) 0.31764(9)
C14M C 0.35044(8) 0.19426(8) -0.31764(9)
H10H H 0.2968 0.1924 0.1249
H10R H 0.3076 0.3751 -0.2032
H10D H 0.1924 0.1249 0.2968
H10N H 0.3751 -0.2032 0.3076
H10M H 0.3751 0.2032 -0.3076
C15H C 0.28386(6) 0.15366(9) 0.16928(9)
C15R C 0.34634(9) 0.33072(9) -0.21614(6)
C15D C 0.15366(9) 0.16928(9) 0.28386(6)
C15N C 0.33072(9) -0.21614(6) 0.34634(9)
C15M C 0.33072(9) 0.21614(6) -0.34634(9)
C16H C 0.29702(8) 0.13896(8) 0.20537(9)
C16R C 0.36104(8) 0.29463(9) -0.20298(8)
C16D C 0.13896(8) 0.20537(9) 0.29702(8)
C16N C 0.29463(9) -0.20298(8) 0.36104(8)
C16M C 0.29463(9) 0.20298(8) -0.36104(8)
H11H H 0.2821 0.1193 0.2188
H11R H 0.3807 0.2812 -0.2179
H11D H 0.1193 0.2188 0.2821
H11N H 0.2812 -0.2179 0.3807
H11M H 0.2812 0.2179 -0.3807
C17H C 0.33205(9) 0.15297(10) 0.22174(8)
C17R C 0.34703(10) 0.27826(8) -0.16795(9)
C17D C 0.15297(10) 0.22174(8) 0.33205(9)
C17N C 0.27826(8) -0.16795(9) 0.34703(10)
C17M C 0.27826(8) 0.16795(9) -0.34703(10)
H12H H 0.3410 0.1429 0.2464
H12R H 0.3571 0.2536 -0.1590
H12D H 0.1429 0.2464 0.3410
H12N H 0.2536 -0.1590 0.3571
H12M H 0.2536 0.1590 -0.3571
C18H C 0.24272(7) 0.14561(11) 0.15698(11)
C18R C 0.35439(11) 0.34302(11) -0.25728(7)
C18D C 0.14561(11) 0.15698(11) 0.24272(7)
C18N C 0.34302(11) -0.25728(7) 0.35439(11)
C18M C 0.34302(11) 0.25728(7) -0.35439(11)
C19B C -0.08922(12) 0.18020(10) -0.07779(10)
C19H C 0.18020(10) 0.07779(10) 0.08922(12)
C19J C 0.18020(10) -0.07779(10) -0.08922(12)
C19D C 0.07779(10) 0.08922(12) 0.18020(10)
C19F C -0.07779(10) -0.08922(12) 0.18020(10)
C20B C -0.06120(9) 0.18533(9) -0.04471(9)
C20H C 0.18533(9) 0.04471(9) 0.06120(9)
C20J C 0.18533(9) -0.04471(9) -0.06120(9)
C20D C 0.04471(9) 0.06120(9) 0.18533(9)
C20F C -0.04471(9) -0.06120(9) 0.18533(9)
C21B C -0.02004(10) 0.18676(6) -0.05213(10)
C21H C 0.18676(6) 0.05213(10) 0.02004(10)
C21J C 0.18676(6) -0.05213(10) -0.02004(10)
C21D C 0.05213(10) 0.02004(10) 0.18676(6)
C21F C -0.05213(10) -0.02004(10) 0.18676(6)
H13B H -0.0104 0.1869 -0.0785
H13H H 0.1869 0.0785 0.0104
H13J H 0.1869 -0.0785 -0.0104
H13D H 0.0785 0.0104 0.1869
H13F H -0.0785 -0.0104 0.1869
C22B C 0.00684(9) 0.18800(9) -0.01954(8)
C22H C 0.18800(9) 0.01954(8) -0.00684(9)
C22J C 0.18800(9) -0.01954(8) 0.00684(9)
C22D C 0.01954(8) -0.00684(9) 0.18800(9)
C22F C -0.01954(8) 0.00684(9) 0.18800(9)
C23B C 0.04811(11) 0.18688(10) -0.02680(11)
C23H C 0.18688(10) 0.02680(11) -0.04811(11)
C23J C 0.18688(10) -0.02680(11) 0.04811(11)
C23D C 0.02680(11) -0.04811(11) 0.18688(10)
C23F C -0.02680(11) 0.04811(11) 0.18688(10)
H14B H 0.0574 0.1871 -0.0533
H14H H 0.1871 0.0533 -0.0574
H14J H 0.1871 -0.0533 0.0574
H14D H 0.0533 -0.0574 0.1871
H14F H -0.0533 0.0574 0.1871
C24B C -0.07534(11) 0.18553(10) -0.00418(11)
C24H C 0.18553(10) 0.00418(11) 0.07534(11)
C24J C 0.18553(10) -0.00418(11) -0.07534(11)
C24D C 0.00418(11) 0.07534(11) 0.18553(10)
C24F C -0.00418(11) -0.07534(11) 0.18553(10)
H15B H -0.1029 0.1847 0.0012
H15H H 0.1847 -0.0012 0.1029
H15J H 0.1847 0.0012 -0.1029
H15D H -0.0012 0.1029 0.1847
H15F H 0.0012 -0.1029 0.1847
loop_
_geom_bond_atom_site_label_1
_geom_bond_atom_site_label_2
_geom_bond_site_symmetry_1
_geom_bond_site_symmetry_2
Ni1 O1 1_555 1_555
O1 Ni1H 1_555 1_555
O2 Ni1 1_555 1_555
O3 C18 1_555 1_555
O4 Ni1 1_555 1_555
O5 C19 1_555 1_555
N1 C1 1_555 1_555
C1 H1 1_555 1_555
C2 C1 1_555 1_555
H2 C2 1_555 1_555
C3 C2 1_555 1_555
C4 C3 1_555 1_555
H3 C4 1_555 1_555
C5 N1 1_555 1_555
H4 C5 1_555 1_555
C6 C3 1_555 1_555
C7 C6 1_555 1_555
H5 C7 1_555 1_555
C8 C7 1_555 1_555
H6 C8 1_555 1_555
C9 C8 1_555 1_555
C10 C9 1_555 1_555
H7 C10 1_555 1_555
C11 C6 1_555 1_555
H8 C11 1_555 1_555
C12 C9 1_555 1_555
C13 C12 1_555 1_555
H9 C13 1_555 1_555
C14 C13 1_555 1_555
H10 C14 1_555 1_555
C15 C14 1_555 1_555
C16 C15 1_555 1_555
H11 C16 1_555 1_555
C17 C12 1_555 1_555
H12 C17 1_555 1_555
C18 O2 1_555 1_555
C19 O4 1_555 1_555
C20 C19 1_555 1_555
C21 C20 1_555 1_555
H13 C21 1_555 1_555
C22 C21 1_555 1_555
C23 C22 1_555 1_555
H14 C23 1_555 1_555
C24 C20 1_555 1_555
H15 C24 1_555 1_555
Ni1H O2H 1_555 1_555
Ni1R O1M 1_555 1_555
Ni1D O1 1_555 1_555
Ni1W O1M 1_555 1_555
Ni1B O1B 1_555 1_555
Ni1U N1 1_555 1_555
Ni1G O1B 1_555 1_555
Ni1Q N1H 1_555 1_555
Ni1J O4J 1_555 1_555
Ni1C O5J 1_555 1_555
Ni1M N1D 1_555 1_555
Ni1F O4F 1_555 1_555
Ni1K O5F 1_555 1_555
Ni1N O2N 1_555 1_555
Ni1S O3N 1_555 1_555
Ni1M_2 O1M 1_555 1_555
O2H C18H 1_555 1_555
O2R Ni1R 1_555 1_555
O2D Ni1D 1_555 1_555
O2N C18N 1_555 1_555
O2M Ni1M_2 1_555 1_555
O2W Ni1W 1_555 1_555
O2B Ni1B 1_555 1_555
O3H Ni1 1_555 1_555
O3R Ni1W 1_555 1_555
O3D Ni1H 1_555 1_555
O3N C18N 1_555 1_555
O3M Ni1R 1_555 1_555
O3I Ni1B 1_555 1_555
O4B Ni1B 1_555 1_555
O4H Ni1H 1_555 1_555
O4J C19J 1_555 1_555
O4D Ni1D 1_555 1_555
O4F C19F 1_555 1_555
O4R Ni1R 1_555 1_555
O4W Ni1W 1_555 1_555
O5B Ni1G 1_555 1_555
O5H Ni1 1_555 1_555
O5J C19J 1_555 1_555
O5D Ni1H 1_555 1_555
O5F C19F 1_555 1_555
O5M Ni1R 1_555 1_555
O5R Ni1W 1_555 1_555
O5I Ni1B 1_555 1_555
N1H C1H 1_555 1_555
N1R Ni1 1_555 1_555
N1D C1D 1_555 1_555
N1N Ni1H 1_555 1_555
N1M Ni1J 1_555 1_555
N1I Ni1R 1_555 1_555
N1V Ni1D 1_555 1_555
N1C Ni1W 1_555 1_555
N1Q Ni1B 1_555 1_555
C1H H1H 1_555 1_555
C1R N1R 1_555 1_555
C1D H1D 1_555 1_555
C1N N1N 1_555 1_555
C1M N1M 1_555 1_555
H1R C1R 1_555 1_555
H1N C1N 1_555 1_555
H1M C1M 1_555 1_555
C2H C1H 1_555 1_555
C2R C1R 1_555 1_555
C2D C1D 1_555 1_555
C2N C1N 1_555 1_555
C2M C1M 1_555 1_555
H2H C2H 1_555 1_555
H2R C2R 1_555 1_555
H2D C2D 1_555 1_555
H2N C2N 1_555 1_555
H2M C2M 1_555 1_555
C3H C2H 1_555 1_555
C3R C2R 1_555 1_555
C3D C2D 1_555 1_555
C3N C2N 1_555 1_555
C3M C2M 1_555 1_555
C4H C3H 1_555 1_555
C4R C3R 1_555 1_555
C4D C3D 1_555 1_555
C4N C3N 1_555 1_555
C4M C3M 1_555 1_555
H3H C4H 1_555 1_555
H3R C4R 1_555 1_555
H3D C4D 1_555 1_555
H3N C4N 1_555 1_555
H3M C4M 1_555 1_555
C5H N1H 1_555 1_555
C5R N1R 1_555 1_555
C5D N1D 1_555 1_555
C5N N1N 1_555 1_555
C5M N1M 1_555 1_555
H4H C5H 1_555 1_555
H4R C5R 1_555 1_555
H4D C5D 1_555 1_555
H4N C5N 1_555 1_555
H4M C5M 1_555 1_555
C6H C3H 1_555 1_555
C6R C3R 1_555 1_555
C6D C3D 1_555 1_555
C6N C3N 1_555 1_555
C6M C3M 1_555 1_555
C7H C6H 1_555 1_555
C7R C6R 1_555 1_555
C7D C6D 1_555 1_555
C7N C6N 1_555 1_555
C7M C6M 1_555 1_555
H5H C7H 1_555 1_555
H5R C7R 1_555 1_555
H5D C7D 1_555 1_555
H5N C7N 1_555 1_555
H5M C7M 1_555 1_555
C8H C7H 1_555 1_555
C8R C7R 1_555 1_555
C8D C7D 1_555 1_555
C8N C7N 1_555 1_555
C8M C7M 1_555 1_555
H6H C8H 1_555 1_555
H6R C8R 1_555 1_555
H6D C8D 1_555 1_555
H6N C8N 1_555 1_555
H6M C8M 1_555 1_555
C9H C8H 1_555 1_555
C9R C8R 1_555 1_555
C9D C8D 1_555 1_555
C9N C8N 1_555 1_555
C9M C8M 1_555 1_555
C10H C9H 1_555 1_555
C10R C9R 1_555 1_555
C10D C9D 1_555 1_555
C10N C9N 1_555 1_555
C10M C9M 1_555 1_555
H7H C10H 1_555 1_555
H7R C10R 1_555 1_555
H7D C10D 1_555 1_555
H7N C10N 1_555 1_555
H7M C10M 1_555 1_555
C11H C6H 1_555 1_555
C11R C6R 1_555 1_555
C11D C6D 1_555 1_555
C11N C6N 1_555 1_555
C11M C6M 1_555 1_555
H8H C11H 1_555 1_555
H8R C11R 1_555 1_555
H8D C11D 1_555 1_555
H8N C11N 1_555 1_555
H8M C11M 1_555 1_555
C12H C9H 1_555 1_555
C12R C9R 1_555 1_555
C12D C9D 1_555 1_555
C12N C9N 1_555 1_555
C12M C9M 1_555 1_555
C13H C12H 1_555 1_555
C13R C12R 1_555 1_555
C13D C12D 1_555 1_555
C13N C12N 1_555 1_555
C13M C12M 1_555 1_555
H9H C13H 1_555 1_555
H9R C13R 1_555 1_555
H9D C13D 1_555 1_555
H9N C13N 1_555 1_555
H9M C13M 1_555 1_555
C14H C13H 1_555 1_555
C14R C13R 1_555 1_555
C14D C13D 1_555 1_555
C14N C13N 1_555 1_555
C14M C13M 1_555 1_555
H10H C14H 1_555 1_555
H10R C14R 1_555 1_555
H10D C14D 1_555 1_555
H10N C14N 1_555 1_555
H10M C14M 1_555 1_555
C15H C14H 1_555 1_555
C15R C14R 1_555 1_555
C15D C14D 1_555 1_555
C15N C14N 1_555 1_555
C15M C14M 1_555 1_555
C16H C15H 1_555 1_555
C16R C15R 1_555 1_555
C16D C15D 1_555 1_555
C16N C15N 1_555 1_555
C16M C15M 1_555 1_555
H11H C16H 1_555 1_555
H11R C16R 1_555 1_555
H11D C16D 1_555 1_555
H11N C16N 1_555 1_555
H11M C16M 1_555 1_555
C17H C12H 1_555 1_555
C17R C12R 1_555 1_555
C17D C12D 1_555 1_555
C17N C12N 1_555 1_555
C17M C12M 1_555 1_555
H12H C17H 1_555 1_555
H12R C17R 1_555 1_555
H12D C17D 1_555 1_555
H12N C17N 1_555 1_555
H12M C17M 1_555 1_555
C18H O3H 1_555 1_555
C18R O2R 1_555 1_555
C18D O2D 1_555 1_555
C18N C15N 1_555 1_555
C18M O2M 1_555 1_555
C19B O4B 1_555 1_555
C19H O4H 1_555 1_555
C19J C20J 1_555 1_555
C19D O4D 1_555 1_555
C19F C20F 1_555 1_555
C20B C19B 1_555 1_555
C20H C19H 1_555 1_555
C20J C21J 1_555 1_555
C20D C19D 1_555 1_555
C20F C21F 1_555 1_555
C21B C20B 1_555 1_555
C21H C20H 1_555 1_555
C21J H13J 1_555 1_555
C21D C20D 1_555 1_555
C21F H13F 1_555 1_555
H13B C21B 1_555 1_555
H13H C21H 1_555 1_555
H13D C21D 1_555 1_555
C22B C22 1_555 1_555
C22H C21H 1_555 1_555
C22J C21J 1_555 1_555
C22D C21D 1_555 1_555
C22F C21F 1_555 1_555
C23B C24 1_555 1_555
C23H C22H 1_555 1_555
C23J C22J 1_555 1_555
C23D C22D 1_555 1_555
C23F C22F 1_555 1_555
H14B C23B 1_555 1_555
H14H C23H 1_555 1_555
H14J C23J 1_555 1_555
H14D C23D 1_555 1_555
H14F C23F 1_555 1_555
C24B C23 1_555 1_555
C24H C20H 1_555 1_555
C24J C20J 1_555 1_555
C24D C20D 1_555 1_555
C24F C20F 1_555 1_555
H15B C24B 1_555 1_555
H15H C24H 1_555 1_555
H15J C24J 1_555 1_555
H15D C24D 1_555 1_555
H15F C24F 1_555 1_555
O3 Ni1D 1_555 1_555
O5 Ni1D 1_555 1_555
C4 C5 1_555 1_555
C10 C11 1_555 1_555
C15 C18 1_555 1_555
C16 C17 1_555 1_555
O3R C18R 1_555 1_555
O3D C18D 1_555 1_555
O3M C18M 1_555 1_555
O5B C19B 1_555 1_555
O5H C19H 1_555 1_555
O5D C19D 1_555 1_555
C4H C5H 1_555 1_555
C4R C5R 1_555 1_555
C4D C5D 1_555 1_555
C4N C5N 1_555 1_555
C4M C5M 1_555 1_555
C10H C11H 1_555 1_555
C10R C11R 1_555 1_555
C10D C11D 1_555 1_555
C10N C11N 1_555 1_555
C10M C11M 1_555 1_555
C15H C18H 1_555 1_555
C15R C18R 1_555 1_555
C15D C18D 1_555 1_555
C15M C18M 1_555 1_555
C16H C17H 1_555 1_555
C16R C17R 1_555 1_555
C16D C17D 1_555 1_555
C16N C17N 1_555 1_555
C16M C17M 1_555 1_555
C20B C24B 1_555 1_555
C21B C22B 1_555 1_555
C22B C23B 1_555 1_555
C22H C22J 1_555 1_555
C22D C22F 1_555 1_555
C23H C24J 1_555 1_555
C23J C24H 1_555 1_555
C23D C24F 1_555 1_555
C23F C24D 1_555 1_555

#END
