
#######################################################################
#
#                 Cambridge Crystallographic Data Centre
#                                CCDC 
#
#######################################################################
#
# If this CIF has been generated from an entry in the Cambridge 
# Structural Database, then it will include bibliographic, chemical, 
# crystal, experimental, refinement or atomic coordinate data resulting 
# from the CCDC's data processing and validation procedures.
#
#######################################################################

data_MUVROM
_chemical_formula_moiety         '(C112 H68 Co12 N24 O54)n'
_symmetry_cell_setting           monoclinic
_symmetry_space_group_name_H-M   'C 2/m'
_symmetry_Int_Tables_number      12
_space_group_name_Hall           '-C 2y'
loop_
_symmetry_equiv_pos_site_id
_symmetry_equiv_pos_as_xyz
1 x,y,z
2 -x,y,-z
3 1/2+x,1/2+y,z
4 1/2-x,1/2+y,-z
5 -x,-y,-z
6 x,-y,z
7 1/2-x,1/2-y,-z
8 1/2+x,1/2-y,z
_cell_length_a                   44.998(5)
_cell_length_b                   20.613(2)
_cell_length_c                   16.1694(17)
_cell_angle_alpha                90
_cell_angle_beta                 94.7770(10)
_cell_angle_gamma                90
_cell_volume                     14945.7
loop_
_atom_site_label
_atom_site_type_symbol
_atom_site_fract_x
_atom_site_fract_y
_atom_site_fract_z
Co1 Co 0.078711(12) 0.17770(3) 0.53715(3)
N1 N 0.08324(7) 0.27983(16) 0.5568(2)
O1 O 0.06332(6) 0.19736(15) 0.42024(17)
O2 O 0.12782(6) 0.18089(12) 0.53796(15)
O3 O 0.10575(6) 0.15820(14) 0.65015(16)
O4 O 0.03709(7) 0.17878(15) 0.5840(2)
O5 O 0.07910(7) 0.07831(14) 0.50544(18)
N2 N 0.10331(7) 0.31229(16) 0.5123(2)
C1 C 0.07057(10) 0.3227(2) 0.6003(3)
C2 C 0.07878(10) 0.2182(2) 0.3635(3)
Co2 Co 0.136674(11) 0.25963(2) 0.45512(3)
C3 C 0.12914(9) 0.16900(19) 0.6160(2)
C4 C 0.10155(9) 0.3733(2) 0.5307(2)
N3 N 0.08072(7) 0.38266(15) 0.5857(2)
H1 H 0.0563 0.3133 0.6370
O6 O 0.10677(6) 0.22052(13) 0.36836(15)
C5 C 0.06199(9) 0.2434(2) 0.2860(2)
N4 N 0.16919(7) 0.19921(16) 0.41158(19)
O7 O 0.14308(7) 0.33494(14) 0.37464(17)
O8 O 0.16518(6) 0.30204(14) 0.54968(16)
C6 C 0.15867(8) 0.16812(19) 0.6655(2)
H2 H 0.1129 0.4060 0.5093
C7 C 0.07217(9) 0.44235(19) 0.6217(3)
C8 C 0.03142(9) 0.2559(2) 0.2856(2)
C9 C 0.07664(9) 0.2570(2) 0.2167(2)
N5 N 0.19884(7) 0.21761(16) 0.4118(2)
C10 C 0.16733(9) 0.14020(19) 0.3839(2)
C11 C 0.16163(10) 0.3800(2) 0.3699(2)
C12 C 0.18770(9) 0.31680(19) 0.5952(2)
C13 C 0.15932(8) 0.17221(19) 0.7523(2)
C14 C 0.18536(9) 0.16845(19) 0.6278(2)
C15 C 0.05685(10) 0.4412(2) 0.6930(3)
C16 C 0.07927(14) 0.5000 0.5854(4)
H3 H 0.0215 0.2464 0.3323
C17 C 0.01587(9) 0.2823(2) 0.2160(2)
C18 C 0.06134(9) 0.2815(2) 0.1458(2)
H4 H 0.0971 0.2497 0.2175
Co3 Co 0.213863(12) 0.30818(3) 0.44757(3)
C19 C 0.21315(9) 0.16866(19) 0.3833(2)
N6 N 0.19430(7) 0.11820(15) 0.3649(2)
H5 H 0.1498 0.1161 0.3778
O9 O 0.18858(6) 0.37889(13) 0.39949(18)
C20 C 0.15160(9) 0.4417(2) 0.3278(3)
O10 O 0.21346(6) 0.32282(14) 0.56971(16)
C21 C 0.18470(8) 0.32840(18) 0.6859(2)
H6 H 0.1415 0.1717 0.7778
C22 C 0.18611(9) 0.17695(18) 0.8001(2)
C23 C 0.21223(8) 0.17458(19) 0.6749(2)
H7 H 0.1851 0.1645 0.5704
H8 H 0.0514 0.4021 0.7163
C24 C 0.04990(16) 0.5000 0.7283(4)
H9 H 0.0888 0.5000 0.5366
C25 C 0.03083(9) 0.2940(2) 0.1461(2)
C26 C -0.01729(9) 0.2945(2) 0.2176(3)
C27 C 0.07691(9) 0.2908(2) 0.0688(3)
O11 O 0.23585(6) 0.30491(15) 0.31836(17)
O12 O 0.25805(6) 0.32303(15) 0.44163(17)
H10 H 0.2335 0.1682 0.3766
C28 C 0.20195(9) 0.05714(19) 0.3286(2)
C29 C 0.13336(11) 0.4414(2) 0.2545(3)
C30 C 0.16217(13) 0.5000 0.3600(4)
C31 C 0.15684(9) 0.32902(18) 0.7165(2)
C32 C 0.21018(9) 0.33477(19) 0.7410(2)
C33 C 0.21240(8) 0.17854(19) 0.7600(2)
C34 C 0.18720(10) 0.18472(19) 0.8922(2)
C35 C 0.24109(9) 0.1824(2) 0.6367(3)
H11 H 0.0403 0.5000 0.7770
H12 H 0.0204 0.3104 0.0985
O13 O -0.02996(6) 0.27326(16) 0.27740(18)
O14 O -0.02989(6) 0.32532(15) 0.15687(18)
O15 O 0.10463(6) 0.28194(14) 0.07410(16)
O16 O 0.06123(6) 0.30644(15) 0.00360(16)
C36 C 0.21810(9) 0.05880(19) 0.2612(2)
C37 C 0.19312(12) 0.0000 0.3635(3)
H13 H 0.1264 0.4021 0.2321
C38 C 0.12503(16) 0.5000 0.2129(5)
H14 H 0.1767 0.5000 0.4044
H15 H 0.1398 0.3244 0.6801
C39 C 0.15396(8) 0.33644(18) 0.8011(2)
C40 C 0.20741(8) 0.34468(19) 0.8254(2)
H16 H 0.2290 0.3324 0.7214
H17 H 0.2305 0.1824 0.7917
O17 O 0.16419(6) 0.19844(14) 0.92565(16)
O18 O 0.21254(6) 0.17662(14) 0.93198(16)
Co4 Co -0.073194(11) 0.32138(3) 0.11157(3)
Co5 Co 0.133095(11) 0.24190(2) -0.00044(3)
H18 H 0.2233 0.0981 0.2381
C41 C 0.22664(13) 0.0000 0.2275(4)
H19 H 0.1817 0.0000 0.4088
C42 C 0.1093(2) 0.5000 0.1262(6)
C43 C 0.17936(8) 0.34578(18) 0.8546(2)
C44 C 0.12411(8) 0.33280(18) 0.8348(2)
C45 C 0.23459(9) 0.3501(2) 0.8859(3)
Co6 Co 0.208169(12) 0.18769(3) 1.05171(3)
O19 O -0.10094(6) 0.34031(15) 0.21139(17)
O20 O -0.12284(6) 0.31984(12) 0.08772(15)
O21 O -0.07526(8) 0.42215(15) 0.0790(2)
N7 N -0.07959(7) 0.21970(16) 0.1277(2)
H20 H 0.2381 0.0000 0.1823
O22 O 0.10316(14) 0.4475(2) 0.0917(3)
H21 H 0.1775 0.3529 0.9108
O23 O 0.23473(7) 0.38949(17) 0.9437(2)
O24 O 0.25619(6) 0.31323(15) 0.87187(18)
N8 N 0.10104(7) 0.18908(16) 0.9241(2)
N9 N 0.16634(7) 0.30053(15) 1.05916(19)
O25 O 0.13664(6) 0.16311(14) 1.08371(17)
N10 N 0.19586(7) 0.28103(16) 1.0699(2)
O26 O 0.18267(6) 0.12123(13) 1.09209(18)
C46 C 0.10109(10) 0.1283(2) 0.9024(3)
C47 C 0.16539(9) 0.36020(19) 1.0831(2)
C48 C 0.15521(9) 0.1198(2) 1.1040(2)
C49 C 0.21130(9) 0.3302(2) 1.1006(3)
C50 C 0.06772(10) 0.1762(2) 0.8220(3)
N11 N 0.08036(8) 0.11705(16) 0.8387(2)
H22 H 0.1137 0.0969 0.9274
N12 N 0.19311(7) 0.38149(15) 1.1105(2)
H23 H 0.1481 0.3852 1.0817
C51 C 0.14543(9) 0.05872(18) 1.1439(2)
H24 H 0.2318 0.3301 1.1137
H25 H 0.0527 0.1842 0.7804
C52 C 0.07348(10) 0.0575(2) 0.7970(3)
C53 C 0.20198(9) 0.44296(19) 1.1470(3)
C54 C 0.12792(9) 0.0587(2) 1.2106(2)
C55 C 0.15529(13) 0.0000 1.1147(3)
C56 C 0.05961(10) 0.0587(2) 0.7186(3)
C57 C 0.07994(13) 0.0000 0.8377(4)
C58 C 0.22041(9) 0.4420(2) 1.2199(3)
C59 C 0.19281(12) 0.5000 1.1095(4)
H26 H 0.1212 0.0977 1.2311
C60 C 0.12040(13) 0.0000 1.2470(4)
H27 H 0.1689 -0.0000 1.0745
H28 H 0.0550 0.0979 0.6921
C61 C 0.05245(15) 0.0000 0.6790(4)
H29 H 0.0885 -0.0000 0.8921
H30 H 0.2268 0.4028 1.2436
C62 C 0.22915(15) 0.5000 1.2572(4)
H31 H 0.1807 0.5000 1.0600
C63 C 0.10588(16) 0.0000 1.3292(4)
H32 H 0.0428 0.0000 0.6259
H33 H 0.2409 0.5000 1.3073
O27 O 0.10105(11) 0.05333(17) 1.3609(2)
C7E C 0.07217(9) 0.55765(19) 0.6217(3)
C15E C 0.05685(10) 0.5588(2) 0.6930(3)
N3E N 0.08072(7) 0.61734(15) 0.5857(2)
C20E C 0.15160(9) 0.5583(2) 0.3278(3)
O11F O 0.26415(6) 0.19509(15) 0.68164(17)
O12F O 0.24195(6) 0.17697(15) 0.55837(17)
H8E H 0.0514 0.5979 0.7163
C1E C 0.07057(10) 0.6773(2) 0.6003(3)
C4E C 0.10155(9) 0.6267(2) 0.5307(2)
Co4A Co 0.073194(11) 0.32138(3) -0.11157(3)
C28E C 0.20195(9) -0.05714(19) 0.3286(2)
C29E C 0.13336(11) 0.5586(2) 0.2545(3)
C11E C 0.16163(10) 0.6200(2) 0.3699(2)
Co5_2 Co 0.133095(11) 0.24190(2) 0.99956(3)
Co3F Co 0.286137(12) 0.19182(3) 0.55243(3)
N1E N 0.08324(7) 0.72017(16) 0.5568(2)
H1E H 0.0563 0.6867 0.6370
N2E N 0.10331(7) 0.68771(16) 0.5123(2)
H2E H 0.1129 0.5940 0.5093
O16A O -0.06123(6) 0.30644(15) -0.00360(16)
C36E C 0.21810(9) -0.05880(19) 0.2612(2)
N6E N 0.19430(7) -0.11820(15) 0.3649(2)
O22E O 0.10316(14) 0.5525(2) 0.0917(3)
H13E H 0.1264 0.5979 0.2321
O7E O 0.14308(7) 0.66506(14) 0.37464(17)
O9E O 0.18858(6) 0.62111(13) 0.39949(18)
O19A O 0.10094(6) 0.34031(15) 0.78861(17)
O20A O 0.12284(6) 0.31984(12) 0.91228(15)
O15_2 O 0.10463(6) 0.28194(14) 1.07410(16)
O24F O 0.24381(6) 0.18677(15) 1.12813(18)
Co1E Co 0.078711(12) 0.82230(3) 0.53715(3)
Co2E Co 0.136674(11) 0.74037(2) 0.45512(3)
C44A C -0.12411(8) 0.33280(18) 0.1652(2)
Co5A Co -0.133095(11) 0.24190(2) 0.00044(3)
N8A N -0.10104(7) 0.18908(16) 0.0759(2)
H18E H 0.2233 -0.0981 0.2381
C19E C 0.21315(9) -0.16866(19) 0.3833(2)
C10E C 0.16733(9) -0.14020(19) 0.3839(2)
Co3E Co 0.213863(12) 0.69182(3) 0.44757(3)
Co4A_2 Co 0.073194(11) 0.32138(3) 0.88843(3)
Co6F Co 0.291831(12) 0.31231(3) 0.94829(3)
N7A N 0.07959(7) 0.21970(16) 0.8723(2)
C39A C -0.15396(8) 0.33644(18) 0.1989(2)
O17A O -0.16419(6) 0.19844(14) 0.07435(16)
N9A N -0.16634(7) 0.30053(15) -0.05916(19)
O15A O -0.10463(6) 0.28194(14) -0.07410(16)
O25A O -0.13664(6) 0.16311(14) -0.08371(17)
N5E N 0.19884(7) -0.21761(16) 0.4118(2)
H10E H 0.2335 -0.1682 0.3766
N4E N 0.16919(7) -0.19921(16) 0.41158(19)
H5E H 0.1498 -0.1161 0.3778
O21A O 0.07526(8) 0.42215(15) 0.9210(2)
O14A O 0.02989(6) 0.32532(15) 0.84313(18)
O16_2 O 0.06123(6) 0.30644(15) 1.00360(16)
C31A C -0.15684(9) 0.32902(18) 0.2835(2)
C43A C -0.17936(8) 0.34578(18) 0.1454(2)
C34A C -0.18720(10) 0.18472(19) 0.1078(2)
N10A N -0.19586(7) 0.28103(16) -0.0699(2)
Co3E_2 Co 0.213863(12) -0.30818(3) 0.44757(3)
Co2E_2 Co 0.136674(11) -0.25963(2) 0.45512(3)
C26A C 0.01729(9) 0.2945(2) 0.7824(3)
C21A C -0.18470(8) 0.32840(18) 0.3141(2)
H15A H -0.1398 0.3244 0.3199
H21A H -0.1775 0.3529 0.0892
C40A C -0.20741(8) 0.34468(19) 0.1746(2)
O18A O -0.21254(6) 0.17662(14) 0.06802(16)
C22A C -0.18611(9) 0.17695(18) 0.1999(2)
Co6A Co -0.208169(12) 0.18769(3) -0.05171(3)
O26A O -0.18267(6) 0.12123(13) -0.09209(18)
O13A O 0.02996(6) 0.27326(16) 0.72260(18)
C17A C -0.01587(9) 0.2823(2) 0.7840(2)
C51E C 0.14543(9) -0.05872(18) 1.1439(2)
C32A C -0.21018(9) 0.33477(19) 0.2590(2)
C12A C -0.18770(9) 0.31680(19) 0.4048(2)
C45A C -0.23459(9) 0.3501(2) 0.1141(3)
C13A C -0.15932(8) 0.17221(19) 0.2477(2)
C33A C -0.21240(8) 0.17854(19) 0.2400(2)
O24G O -0.24381(6) 0.18677(15) -0.12813(18)
C8A C -0.03142(9) 0.2559(2) 0.7144(2)
C25A C -0.03083(9) 0.2940(2) 0.8539(2)
C52E C 0.07348(10) -0.0575(2) 0.7970(3)
C53E C 0.20198(9) 0.55704(19) 1.1470(3)
C54E C 0.12792(9) -0.0587(2) 1.2106(2)
C48E C 0.15521(9) -0.1198(2) 1.1040(2)
H16A H -0.2290 0.3324 0.2786
O8A O -0.16518(6) 0.30204(14) 0.45032(16)
O10A O -0.21346(6) 0.32282(14) 0.43029(16)
O23A O -0.23473(7) 0.38949(17) 0.0563(2)
O24A O -0.25619(6) 0.31323(15) 0.12813(18)
C6A C -0.15867(8) 0.16812(19) 0.3345(2)
H6A H -0.1415 0.1717 0.2222
H17A H -0.2305 0.1824 0.2083
C23A C -0.21223(8) 0.17458(19) 0.3251(2)
C5A C -0.06199(9) 0.2434(2) 0.7140(2)
H3A H -0.0215 0.2464 0.6677
H12A H -0.0204 0.3104 0.9015
C18A C -0.06134(9) 0.2815(2) 0.8542(2)
C56E C 0.05961(10) -0.0587(2) 0.7186(3)
N11E N 0.08036(8) -0.11705(16) 0.8387(2)
C58E C 0.22041(9) 0.5580(2) 1.2199(3)
N12E N 0.19311(7) 0.61851(15) 1.1105(2)
O27E O 0.10105(11) -0.05333(17) 1.3609(2)
H26E H 0.1212 -0.0977 1.2311
O25E O 0.13664(6) -0.16311(14) 1.08371(17)
O26E O 0.18267(6) -0.12123(13) 1.09209(18)
Co2A Co -0.136674(11) 0.25963(2) 0.54488(3)
Co3A Co -0.213863(12) 0.30818(3) 0.55243(3)
Co6G Co -0.291831(12) 0.31231(3) 0.05171(3)
C14A C -0.18536(9) 0.16845(19) 0.3722(2)
C3A C -0.12914(9) 0.16900(19) 0.3840(2)
C35A C -0.24109(9) 0.1824(2) 0.3633(3)
C9A C -0.07664(9) 0.2570(2) 0.7833(2)
C2A C -0.07878(10) 0.2182(2) 0.6365(3)
C27A C -0.07691(9) 0.2908(2) 0.9312(3)
H28E H 0.0550 -0.0979 0.6921
C50E C 0.06772(10) -0.1762(2) 0.8220(3)
C46E C 0.10109(10) -0.1283(2) 0.9024(3)
H30E H 0.2268 0.5972 1.2436
C47E C 0.16539(9) 0.63980(19) 1.0831(2)
C49E C 0.21130(9) 0.6698(2) 1.1006(3)
Co5E Co 0.133095(11) -0.24190(2) 0.99956(3)
Co6E Co 0.208169(12) -0.18769(3) 1.05171(3)
Co4_2 Co -0.073194(11) 0.32138(3) 1.11157(3)
O6A O -0.10677(6) 0.22052(13) 0.63164(15)
O2A O -0.12782(6) 0.18089(12) 0.46204(15)
N4A N -0.16919(7) 0.19921(16) 0.58842(19)
N2A N -0.10331(7) 0.31229(16) 0.4877(2)
O7A O -0.14308(7) 0.33494(14) 0.62536(17)
N5A N -0.19884(7) 0.21761(16) 0.5882(2)
O9A O -0.18858(6) 0.37889(13) 0.60051(18)
O11A O -0.23585(6) 0.30491(15) 0.68164(17)
O12A O -0.25805(6) 0.32303(15) 0.55837(17)
H7A H -0.1851 0.1645 0.4296
O3A O -0.10575(6) 0.15820(14) 0.34985(16)
O11G O -0.26415(6) 0.19509(15) 0.31836(17)
O12G O -0.24195(6) 0.17697(15) 0.44163(17)
H4A H -0.0971 0.2497 0.7825
O1A O -0.06332(6) 0.19736(15) 0.57976(17)
O15A_2 O -0.10463(6) 0.28194(14) 0.92590(16)
O16A_2 O -0.06123(6) 0.30644(15) 0.99640(16)
N7D N 0.07959(7) -0.21970(16) 0.8723(2)
H25E H 0.0527 -0.1842 0.7804
N8E N 0.10104(7) -0.18908(16) 0.9241(2)
H22E H 0.1137 -0.0969 0.9274
N9E N 0.16634(7) 0.69947(15) 1.05916(19)
H23E H 0.1481 0.6148 1.0817
N10E N 0.19586(7) 0.71897(16) 1.0699(2)
H24E H 0.2318 0.6699 1.1137
Co6E_2 Co 0.208169(12) 0.81231(3) 1.05171(3)
Co5E_2 Co 0.133095(11) 0.75810(2) 0.99956(3)
Co1A Co -0.078711(12) 0.17770(3) 0.46285(3)
N1A N -0.08324(7) 0.27983(16) 0.4432(2)
Co3G Co -0.286137(12) 0.19182(3) 0.44757(3)
Co5A_2 Co -0.133095(11) 0.24190(2) 1.00044(3)
Co4D Co 0.073194(11) -0.32138(3) 0.88843(3)
O4A O -0.03709(7) 0.17878(15) 0.4160(2)
O5A O -0.07910(7) 0.07831(14) 0.49456(18)
loop_
_geom_bond_atom_site_label_1
_geom_bond_atom_site_label_2
_geom_bond_site_symmetry_1
_geom_bond_site_symmetry_2
Co1 N1 1_555 1_555
N1 N2 1_555 1_555
O1 Co1 1_555 1_555
O2 Co1 1_555 1_555
O3 Co1 1_555 1_555
O4 Co1 1_555 1_555
O5 Co1 1_555 1_555
N2 Co2 1_555 1_555
C1 N1 1_555 1_555
C2 O1 1_555 1_555
Co2 O2 1_555 1_555
C3 O2 1_555 1_555
C4 N2 1_555 1_555
N3 C1 1_555 1_555
H1 C1 1_555 1_555
O6 C2 1_555 1_555
C5 C2 1_555 1_555
N4 Co2 1_555 1_555
O7 Co2 1_555 1_555
O8 Co2 1_555 1_555
C6 C3 1_555 1_555
H2 C4 1_555 1_555
C7 N3 1_555 1_555
C8 C5 1_555 1_555
C9 C5 1_555 1_555
N5 N4 1_555 1_555
C10 N4 1_555 1_555
C11 O7 1_555 1_555
C12 O8 1_555 1_555
C13 C6 1_555 1_555
C14 C6 1_555 1_555
C15 C7 1_555 1_555
C16 C7 1_555 1_555
H3 C8 1_555 1_555
C17 C8 1_555 1_555
C18 C9 1_555 1_555
H4 C9 1_555 1_555
Co3 N5 1_555 1_555
C19 N5 1_555 1_555
N6 C10 1_555 1_555
H5 C10 1_555 1_555
O9 C11 1_555 1_555
C20 C11 1_555 1_555
O10 C12 1_555 1_555
C21 C12 1_555 1_555
H6 C13 1_555 1_555
C22 C13 1_555 1_555
C23 C14 1_555 1_555
H7 C14 1_555 1_555
H8 C15 1_555 1_555
C24 C15 1_555 1_555
H9 C16 1_555 1_555
C25 C17 1_555 1_555
C26 C17 1_555 1_555
C27 C18 1_555 1_555
O11 Co3 1_555 1_555
O12 Co3 1_555 1_555
H10 C19 1_555 1_555
C28 N6 1_555 1_555
C29 C20 1_555 1_555
C30 C20 1_555 1_555
C31 C21 1_555 1_555
C32 C21 1_555 1_555
C33 C22 1_555 1_555
C34 C22 1_555 1_555
C35 C23 1_555 1_555
H11 C24 1_555 1_555
H12 C25 1_555 1_555
O13 C26 1_555 1_555
O14 C26 1_555 1_555
O15 C27 1_555 1_555
O16 C27 1_555 1_555
C36 C28 1_555 1_555
C37 C28 1_555 1_555
H13 C29 1_555 1_555
C38 C29 1_555 1_555
H14 C30 1_555 1_555
H15 C31 1_555 1_555
C39 C31 1_555 1_555
C40 C32 1_555 1_555
H16 C32 1_555 1_555
H17 C33 1_555 1_555
O17 C34 1_555 1_555
O18 C34 1_555 1_555
Co4 O14 1_555 1_555
Co5 O15 1_555 1_555
H18 C36 1_555 1_555
C41 C36 1_555 1_555
H19 C37 1_555 1_555
C42 C38 1_555 1_555
C43 C39 1_555 1_555
C44 C39 1_555 1_555
C45 C40 1_555 1_555
Co6 O18 1_555 1_555
O19 Co4 1_555 1_555
O20 Co4 1_555 1_555
O21 Co4 1_555 1_555
N7 Co4 1_555 1_555
H20 C41 1_555 1_555
O22 C42 1_555 1_555
H21 C43 1_555 1_555
O23 C45 1_555 1_555
O24 C45 1_555 1_555
N8 C46 1_555 1_555
N9 N10 1_555 1_555
O25 C48 1_555 1_555
N10 Co6 1_555 1_555
O26 Co6 1_555 1_555
C46 N11 1_555 1_555
C47 N9 1_555 1_555
C48 O26 1_555 1_555
C49 N10 1_555 1_555
C50 N11 1_555 1_555
N11 C52 1_555 1_555
H22 C46 1_555 1_555
N12 C47 1_555 1_555
H23 C47 1_555 1_555
C51 C48 1_555 1_555
H24 C49 1_555 1_555
H25 C50 1_555 1_555
C52 C56 1_555 1_555
C53 N12 1_555 1_555
C54 C51 1_555 1_555
C55 C51 1_555 1_555
C56 H28 1_555 1_555
C57 C52 1_555 1_555
C58 C53 1_555 1_555
C59 C53 1_555 1_555
H26 C54 1_555 1_555
C60 C54 1_555 1_555
H27 C55 1_555 1_555
C61 C56 1_555 1_555
H29 C57 1_555 1_555
H30 C58 1_555 1_555
C62 C58 1_555 1_555
H31 C59 1_555 1_555
C63 C60 1_555 1_555
H32 C61 1_555 1_555
H33 C62 1_555 1_555
O27 C63 1_555 1_555
C7E C16 1_555 1_555
C15E C24 1_555 1_555
N3E C7E 1_555 1_555
C20E C30 1_555 1_555
O11F C35 1_555 1_555
O12F C35 1_555 1_555
H8E C15E 1_555 1_555
C1E N3E 1_555 1_555
C4E N3E 1_555 1_555
Co4A O16 1_555 1_555
C28E C37 1_555 1_555
C29E C38 1_555 1_555
C11E C20E 1_555 1_555
Co5_2 O17 1_555 1_555
Co3F O11F 1_555 1_555
N1E C1E 1_555 1_555
H1E C1E 1_555 1_555
N2E C4E 1_555 1_555
H2E C4E 1_555 1_555
O16A Co4 1_555 1_555
C36E C41 1_555 1_555
N6E C28E 1_555 1_555
O22E C42 1_555 1_555
H13E C29E 1_555 1_555
O7E C11E 1_555 1_555
O9E C11E 1_555 1_555
O19A C44 1_555 1_555
O20A C44 1_555 1_555
O15_2 Co5_2 1_555 1_555
O24F Co6 1_555 1_555
Co1E N1E 1_555 1_555
Co2E N2E 1_555 1_555
C44A O19 1_555 1_555
Co5A O20 1_555 1_555
N8A N7 1_555 1_555
H18E C36E 1_555 1_555
C19E N6E 1_555 1_555
C10E N6E 1_555 1_555
Co3E O9E 1_555 1_555
Co4A_2 O19A 1_555 1_555
Co6F O24 1_555 1_555
N7A N8 1_555 1_555
C39A C44A 1_555 1_555
O17A Co5A 1_555 1_555
N9A Co5A 1_555 1_555
O15A Co5A 1_555 1_555
O25A Co5A 1_555 1_555
N5E C19E 1_555 1_555
H10E C19E 1_555 1_555
N4E C10E 1_555 1_555
H5E C10E 1_555 1_555
O21A Co4A_2 1_555 1_555
O14A Co4A_2 1_555 1_555
O16_2 Co4A_2 1_555 1_555
C31A C39A 1_555 1_555
C43A C39A 1_555 1_555
C34A O17A 1_555 1_555
N10A N9A 1_555 1_555
Co3E_2 N5E 1_555 1_555
Co2E_2 N4E 1_555 1_555
C26A O14A 1_555 1_555
C21A C31A 1_555 1_555
H15A C31A 1_555 1_555
H21A C43A 1_555 1_555
C40A C43A 1_555 1_555
O18A C34A 1_555 1_555
C22A C34A 1_555 1_555
Co6A N10A 1_555 1_555
O26A Co6A 1_555 1_555
O13A C26A 1_555 1_555
C17A C26A 1_555 1_555
C51E C55 1_555 1_555
C32A C21A 1_555 1_555
C12A C21A 1_555 1_555
C45A C40A 1_555 1_555
C13A C22A 1_555 1_555
C33A C22A 1_555 1_555
O24G Co6A 1_555 1_555
C8A C17A 1_555 1_555
C25A C17A 1_555 1_555
C52E C57 1_555 1_555
C53E C59 1_555 1_555
C54E C60 1_555 1_555
C48E C51E 1_555 1_555
H16A C32A 1_555 1_555
O8A C12A 1_555 1_555
O10A C12A 1_555 1_555
O23A C45A 1_555 1_555
O24A C45A 1_555 1_555
C6A C13A 1_555 1_555
H6A C13A 1_555 1_555
H17A C33A 1_555 1_555
C23A C33A 1_555 1_555
C5A C8A 1_555 1_555
H3A C8A 1_555 1_555
H12A C25A 1_555 1_555
C18A C25A 1_555 1_555
C56E C61 1_555 1_555
N11E C52E 1_555 1_555
C58E C62 1_555 1_555
N12E C53E 1_555 1_555
O27E C63 1_555 1_555
H26E C54E 1_555 1_555
O25E C48E 1_555 1_555
O26E C48E 1_555 1_555
Co2A O8A 1_555 1_555
Co3A O10A 1_555 1_555
Co6G O24A 1_555 1_555
C14A C6A 1_555 1_555
C3A C6A 1_555 1_555
C35A C23A 1_555 1_555
C9A C5A 1_555 1_555
C2A C5A 1_555 1_555
C27A C18A 1_555 1_555
H28E C56E 1_555 1_555
C50E N11E 1_555 1_555
C46E N11E 1_555 1_555
H30E C58E 1_555 1_555
C47E N12E 1_555 1_555
C49E N12E 1_555 1_555
Co5E O25E 1_555 1_555
Co6E O26E 1_555 1_555
Co4_2 O16A_2 1_555 1_555
O6A Co2A 1_555 1_555
O2A Co2A 1_555 1_555
N4A Co2A 1_555 1_555
N2A Co2A 1_555 1_555
O7A Co2A 1_555 1_555
N5A Co3A 1_555 1_555
O9A Co3A 1_555 1_555
O11A Co3A 1_555 1_555
O12A Co3A 1_555 1_555
H7A C14A 1_555 1_555
O3A C3A 1_555 1_555
O11G C35A 1_555 1_555
O12G C35A 1_555 1_555
H4A C9A 1_555 1_555
O1A C2A 1_555 1_555
O15A_2 C27A 1_555 1_555
O16A_2 C27A 1_555 1_555
N7D C50E 1_555 1_555
H25E C50E 1_555 1_555
N8E C46E 1_555 1_555
H22E C46E 1_555 1_555
N9E C47E 1_555 1_555
H23E C47E 1_555 1_555
N10E C49E 1_555 1_555
H24E C49E 1_555 1_555
Co6E_2 N10E 1_555 1_555
Co5E_2 N9E 1_555 1_555
Co1A O2A 1_555 1_555
N1A N2A 1_555 1_555
Co3G O11G 1_555 1_555
Co5A_2 O15A_2 1_555 1_555
Co4D N7D 1_555 1_555
O4A Co1A 1_555 1_555
O5A Co1A 1_555 1_555
O3 C3 1_555 1_555
Co2 O6 1_555 1_555
C4 N3 1_555 1_555
C18 C25 1_555 1_555
Co3 O9 1_555 1_555
Co3 O10 1_555 1_555
C19 N6 1_555 1_555
C23 C33 1_555 1_555
C40 C43 1_555 1_555
O20 C44A 1_555 1_555
N8 Co5_2 1_555 1_555
N9 Co5_2 1_555 1_555
O25 Co5_2 1_555 1_555
C49 N12 1_555 1_555
C50 N7A 1_555 1_555
C7E C15E 1_555 1_555
C20E C29E 1_555 1_555
O12F Co3F 1_555 1_555
C28E C36E 1_555 1_555
Co5_2 O20A 1_555 1_555
N1E N2E 1_555 1_555
O7E Co2E 1_555 1_555
O20A Co4A_2 1_555 1_555
Co5A N8A 1_555 1_555
Co4A_2 N7A 1_555 1_555
N5E N4E 1_555 1_555
C40A C32A 1_555 1_555
O18A Co6A 1_555 1_555
C51E C54E 1_555 1_555
C52E C56E 1_555 1_555
C53E C58E 1_555 1_555
C23A C14A 1_555 1_555
C18A C9A 1_555 1_555
C3A O2A 1_555 1_555
C2A O6A 1_555 1_555
Co5E N8E 1_555 1_555
N4A N5A 1_555 1_555
O3A Co1A 1_555 1_555
O12G Co3G 1_555 1_555
O1A Co1A 1_555 1_555
N7D N8E 1_555 1_555
N9E N10E 1_555 1_555
Co1A N1A 1_555 1_555

#END
