
#######################################################################
#
#                 Cambridge Crystallographic Data Centre
#                                CCDC 
#
#######################################################################
#
# If this CIF has been generated from an entry in the Cambridge 
# Structural Database, then it will include bibliographic, chemical, 
# crystal, experimental, refinement or atomic coordinate data resulting 
# from the CCDC's data processing and validation procedures.
#
#######################################################################

data_QOBWIN01
_chemical_formula_moiety         '(C6 H27 N4 O21 P5 Zn5)n'
_symmetry_cell_setting           monoclinic
_symmetry_space_group_name_H-M   'P 21'
_symmetry_Int_Tables_number      4
_space_group_name_Hall           'P 2yb'
loop_
_symmetry_equiv_pos_site_id
_symmetry_equiv_pos_as_xyz
1 x,y,z
2 -x,1/2+y,-z
_cell_length_a                   9.2994(4)
_cell_length_b                   9.7510(4)
_cell_length_c                   14.3348(6)
_cell_angle_alpha                90
_cell_angle_beta                 90.9740(10)
_cell_angle_gamma                90
_cell_volume                     1299.67
loop_
_atom_site_label
_atom_site_type_symbol
_atom_site_fract_x
_atom_site_fract_y
_atom_site_fract_z
Zn1 Zn -0.46773(7) -0.11468(7) -0.73275(5)
Zn2 Zn -0.77164(7) 0.37690(7) -0.62454(5)
Zn3 Zn -0.24367(7) -0.09605(8) -1.12997(5)
Zn4 Zn -0.07061(8) 0.11351(8) -0.75439(5)
Zn5 Zn -0.07698(9) -0.26035(8) -0.77301(6)
P1 P -0.2046(2) -0.0738(2) -0.60651(11)
P2 P -0.2438(2) -0.0835(2) -0.90136(11)
P3 P -1.0444(2) 0.4289(2) -0.76217(11)
P4 P -0.7354(2) 0.1220(2) -0.75771(11)
P5 P -0.5556(2) -0.4372(2) -0.72746(12)
O1 O -0.3718(5) -0.1394(6) -0.8494(3)
O2 O -0.3611(5) -0.0301(4) -0.6291(3)
O3 O -0.5245(5) -0.2955(4) -0.6913(3)
O4 O -0.6355(6) 0.0012(5) -0.7517(4)
O5 O -0.7584(6) 0.1857(5) -0.6622(3)
O6 O -0.5877(4) -0.5371(4) -0.6482(3)
O7 O -0.1834(5) -0.1117(6) -0.5045(3)
O8 O -0.9418(4) 0.4608(5) -0.6807(3)
O9 O -0.9623(4) 0.4074(5) -0.8533(3)
O10 O -0.2863(5) -0.0599(5) -1.0026(3)
O11 O -0.6758(5) -0.4382(4) -0.8006(3)
O12 O -0.6762(5) 0.2292(5) -0.8260(3)
O13 O -0.1010(5) 0.0443(5) -0.6300(3)
O14 O -1.1369(5) 0.3025(4) -0.7421(3)
O15 O -0.8804(5) 0.0699(5) -0.7970(3)
O16 O -0.1940(5) 0.0540(5) -0.8575(3)
O17 O -0.1687(5) -0.2013(5) -0.6637(4)
O18 O 0.1325(7) -0.2380(8) -0.7518(5)
O19 O -0.1178(5) -0.1865(5) -0.8957(3)
O20 O -1.1471(5) 0.5511(4) -0.7750(3)
O21 O -0.4180(5) -0.4976(5) -0.7781(4)
H1 H -0.4364(5) -0.5768(5) -0.7981(4)
H26 H 0.1499(85) -0.1907(76) -0.7665(58)
H27 H 0.2064(94) -0.2852(84) -0.7650(58)
Zn3A Zn -0.75633(7) 0.40395(8) -0.87003(5)
O9A O -0.0377(4) -0.0926(5) -1.1467(3)
Zn3A_2 Zn -0.75633(7) -0.59605(8) -0.87003(5)
Zn2_2 Zn -0.77164(7) -0.62310(7) -0.62454(5)
O7A O -0.8166(5) 0.3883(6) -0.4955(3)
O12A O -0.3238(5) -0.2708(5) -1.1740(3)
O11A O -0.3242(5) 0.0618(4) -1.1994(3)
O6_2 O -0.5877(4) 0.4629(4) -0.6482(3)
O11_2 O -0.6758(5) 0.5618(4) -0.8006(3)
O14_2 O -0.1369(5) 0.3025(4) -0.7421(3)
O15_2 O 0.1196(5) 0.0699(5) -0.7970(3)
O20_2 O -0.1471(5) -0.4489(4) -0.7750(3)
Zn2A Zn -0.22836(7) -0.12310(7) -0.37546(5)
Zn4_2 Zn -1.07061(8) 0.11351(8) -0.75439(5)
Zn5_2 Zn -1.07698(9) 0.73965(8) -0.77301(6)
P5_2 P -0.5556(2) 0.5628(2) -0.72746(12)
N1 N 0.6030(6) -0.7471(6) 0.1083(4)
H2 H 0.5198(6) -0.7919(6) 0.1212(4)
H3 H 0.6039(6) -0.6644(6) 0.1378(4)
H4 H 0.6792(6) -0.7981(6) 0.1287(4)
N2 N 0.8921(7) -0.4368(6) -0.0029(4)
H5 H 0.8867(7) -0.3460(6) 0.0113(4)
H6 H 0.9223(7) -0.4467(6) -0.0626(4)
H7 H 0.9556(7) -0.4786(6) 0.0368(4)
C1 C 0.7481(8) -0.5005(7) 0.0064(5)
H8 H 0.6789(8) -0.4535(7) -0.0360(5)
H9 H 0.7149(8) -0.4879(7) 0.0711(5)
C2 C 0.7501(8) -0.6513(8) -0.0163(5)
H10 H 0.8311(8) -0.6947(8) 0.0182(5)
H11 H 0.7679(8) -0.6624(8) -0.0838(5)
C3 C 0.6125(8) -0.7258(9) 0.0073(5)
H12 H 0.5288(8) -0.6716(9) -0.0150(5)
H13 H 0.6100(8) -0.8156(9) -0.0249(5)
N3 N 0.3783(6) -0.2465(6) -0.3848(4)
H14 H 0.4585(6) -0.2994(6) -0.3781(4)
H15 H 0.3026(6) -0.2894(6) -0.3580(4)
H16 H 0.3935(6) -0.1641(6) -0.3567(4)
N4 N 0.0981(6) 0.0844(6) -0.4768(4)
H17 H 0.1133(6) 0.1725(6) -0.4583(4)
H18 H 0.0341(6) 0.0438(6) -0.4382(4)
H19 H 0.0622(6) 0.0836(6) -0.5363(4)
C4 C 0.2336(8) 0.0094(8) -0.4731(6)
H20 H 0.2733(8) 0.0118(8) -0.4086(6)
H21 H 0.3035(8) 0.0548(8) -0.5143(6)
C5 C 0.2144(8) -0.1377(8) -0.5032(5)
H22 H 0.1899(8) -0.1399(8) -0.5707(5)
H23 H 0.1326(8) -0.1779(8) -0.4693(5)
C6 C 0.3464(9) -0.2249(9) -0.4856(5)
H24 H 0.3323(9) -0.3152(9) -0.5160(5)
H25 H 0.4302(9) -0.1803(9) -0.5146(5)
loop_
_geom_bond_atom_site_label_1
_geom_bond_atom_site_label_2
_geom_bond_site_symmetry_1
_geom_bond_site_symmetry_2
Zn1 O1 1_555 1_555
Zn2 O5 1_555 1_555
Zn3 O10 1_555 1_555
Zn4 O13 1_555 1_555
Zn5 O17 1_555 1_555
P1 O2 1_555 1_555
P2 O1 1_555 1_555
P3 O8 1_555 1_555
P4 O4 1_555 1_555
P5 O3 1_555 1_555
O2 Zn1 1_555 1_555
O3 Zn1 1_555 1_555
O4 Zn1 1_555 1_555
O5 P4 1_555 1_555
O6 P5 1_555 1_555
O7 P1 1_555 1_555
O8 Zn2 1_555 1_555
O9 P3 1_555 1_555
O10 P2 1_555 1_555
O11 P5 1_555 1_555
O12 P4 1_555 1_555
O13 P1 1_555 1_555
O14 P3 1_555 1_555
O15 P4 1_555 1_555
O16 Zn4 1_555 1_555
O17 P1 1_555 1_555
O18 Zn5 1_555 1_555
O19 Zn5 1_555 1_555
O20 P3 1_555 1_555
O21 P5 1_555 1_555
H1 O21 1_555 1_555
N1 H2 1_555 1_555
H3 N1 1_555 1_555
H4 N1 1_555 1_555
N2 H5 1_555 1_555
H6 N2 1_555 1_555
H7 N2 1_555 1_555
C1 N2 1_555 1_555
H8 C1 1_555 1_555
H9 C1 1_555 1_555
C2 C1 1_555 1_555
H10 C2 1_555 1_555
H11 C2 1_555 1_555
C3 N1 1_555 1_555
H12 C3 1_555 1_555
H13 C3 1_555 1_555
N3 H14 1_555 1_555
H15 N3 1_555 1_555
H16 N3 1_555 1_555
N4 H17 1_555 1_555
H18 N4 1_555 1_555
H19 N4 1_555 1_555
C4 N4 1_555 1_555
H20 C4 1_555 1_555
H21 C4 1_555 1_555
C5 C4 1_555 1_555
H22 C5 1_555 1_555
H23 C5 1_555 1_555
C6 N3 1_555 1_555
H24 C6 1_555 1_555
H25 C6 1_555 1_555
H26 O18 1_555 1_555
H27 O18 1_555 1_555
Zn3A O9 1_555 1_555
O9A Zn3 1_555 1_555
Zn3A_2 O11 1_555 1_555
Zn2_2 O6 1_555 1_555
O7A Zn2 1_555 1_555
O12A Zn3 1_555 1_555
O11A Zn3 1_555 1_555
O6_2 Zn2 1_555 1_555
O11_2 Zn3A 1_555 1_555
O14_2 Zn4 1_555 1_555
O15_2 Zn4 1_555 1_555
O20_2 Zn5 1_555 1_555
Zn2A O7 1_555 1_555
Zn4_2 O14 1_555 1_555
Zn5_2 O20 1_555 1_555
P5_2 O6_2 1_555 1_555
P2 O16 1_555 1_555
P2 O19 1_555 1_555
O12 Zn3A 1_555 1_555
O15 Zn4_2 1_555 1_555
C2 C3 1_555 1_555
C5 C6 1_555 1_555
O11_2 P5_2 1_555 1_555

#END
