
#######################################################################
#
#                 Cambridge Crystallographic Data Centre
#                                CCDC 
#
#######################################################################
#
# If this CIF has been generated from an entry in the Cambridge 
# Structural Database, then it will include bibliographic, chemical, 
# crystal, experimental, refinement or atomic coordinate data resulting 
# from the CCDC's data processing and validation procedures.
#
#######################################################################

data_EZIVAM
_chemical_formula_moiety         '(C21 H29 N6 O7 Sr1)n'
_symmetry_cell_setting           orthorhombic
_symmetry_space_group_name_H-M   'P b c a'
_symmetry_Int_Tables_number      61
_space_group_name_Hall           '-P 2ac 2ab'
loop_
_symmetry_equiv_pos_site_id
_symmetry_equiv_pos_as_xyz
1 x,y,z
2 1/2-x,-y,1/2+z
3 -x,1/2+y,1/2-z
4 1/2+x,1/2-y,-z
5 -x,-y,-z
6 1/2+x,y,1/2-z
7 x,1/2-y,1/2+z
8 1/2-x,1/2+y,z
_cell_length_a                   27.627(2)
_cell_length_b                   6.8348(5)
_cell_length_c                   28.135(2)
_cell_angle_alpha                90
_cell_angle_beta                 90
_cell_angle_gamma                90
_cell_volume                     5312.59
loop_
_atom_site_label
_atom_site_type_symbol
_atom_site_fract_x
_atom_site_fract_y
_atom_site_fract_z
C1 C 0.56582(16) -0.1600(7) 0.38442(16)
C2 C 0.61130(16) 0.1017(7) 0.36543(15)
C3 C 0.58590(15) 0.0610(7) 0.44082(15)
C4 C 0.56680(19) 0.0110(10) 0.52604(16)
H1 H 0.5539 -0.1128 0.5149
H2 H 0.5415 0.0782 0.5435
C5 C 0.6014(2) 0.3173(8) 0.49990(17)
H3 H 0.5767 0.3911 0.5166
H4 H 0.6107 0.3912 0.4719
C6 C 0.52422(17) -0.4631(8) 0.40610(19)
H5 H 0.5241 -0.4036 0.4374
H6 H 0.5453 -0.5766 0.4071
C7 C 0.54148(19) -0.3919(9) 0.32234(19)
H7 H 0.5625 -0.5048 0.3189
H8 H 0.5532 -0.2896 0.3014
C8 C 0.6467(2) 0.1258(7) 0.28566(16)
H9 H 0.6196 0.0449 0.2758
H10 H 0.6752 0.0433 0.2877
C9 C 0.6720(2) 0.3538(7) 0.34945(17)
H11 H 0.7023 0.2877 0.3563
H12 H 0.6605 0.4130 0.3787
C10 C 0.65511(17) 0.2862(7) 0.24908(16)
H13 H 0.6638 0.2275 0.2189
H14 H 0.6254 0.3598 0.2446
C11 C 0.68082(18) 0.5138(7) 0.31238(15)
H15 H 0.6516 0.5908 0.3084
H16 H 0.7063 0.6003 0.3233
C12 C 0.69522(16) 0.4241(6) 0.26483(15)
H17 H 0.7246(16) 0.347(6) 0.2697(15)
C13 C 0.48973(18) -0.4469(8) 0.30887(18)
H18 H 0.4696 -0.3307 0.3095
H19 H 0.4893 -0.4989 0.2768
C14 C 0.46917(16) -0.5984(7) 0.34291(18)
H20 H 0.4887(17) -0.718(7) 0.3401(16)
C15 C 0.47319(16) -0.5263(8) 0.39298(18)
H21 H 0.4630 -0.6294 0.4144
H22 H 0.4514 -0.4164 0.3972
C16 C 0.6099(2) -0.0255(8) 0.55833(18)
H23 H 0.5992 -0.0986 0.5860
H24 H 0.6334 -0.1051 0.5415
C17 C 0.63415(17) 0.1617(8) 0.57471(16)
H25 H 0.6108(18) 0.232(7) 0.5947(17)
C18 C 0.64451(17) 0.2917(7) 0.53147(16)
H26 H 0.6552 0.4192 0.5424
H27 H 0.6707 0.2343 0.5132
C19 C 0.70588(14) 0.5760(6) 0.22835(14)
C20 C 0.41763(15) -0.6487(7) 0.32984(18)
C21 C 0.67960(15) 0.1330(6) 0.60395(14)
N1 N 0.58820(14) -0.0563(6) 0.35011(13)
N2 N 0.56412(14) -0.1109(6) 0.43060(13)
N3 N 0.61146(14) 0.1696(5) 0.41004(13)
N4 N 0.54248(15) -0.3236(6) 0.37142(14)
N5 N 0.58191(15) 0.1298(7) 0.48557(13)
N6 N 0.63639(15) 0.2106(5) 0.33262(13)
O1 O 0.74451(10) 0.5684(4) 0.20479(9)
O2 O 0.67589(11) 0.7134(5) 0.22120(11)
O3 O 0.38296(11) -0.5911(5) 0.35208(12)
O4 O 0.41387(12) -0.7547(6) 0.29110(13)
O5 O 0.70132(11) 0.2832(5) 0.61845(11)
O6 O 0.69584(12) -0.0322(5) 0.61035(12)
O7 O 0.7191(2) 0.8323(12) 0.0413(3)
Sr1 Sr 0.713545(13) 0.86426(5) 0.143398(15)
O1G O 0.75549(10) 1.0684(4) 0.20479(9)
O3B O 0.61704(11) 0.9089(5) 0.14792(12)
O5A O 0.79868(11) 0.7168(5) 0.11845(11)
O5F O 0.70132(11) 1.2168(5) 0.11845(11)
O6A O 0.80416(12) 1.0322(5) 0.11035(12)
O6F O 0.69584(12) 0.5322(5) 0.11035(12)
Sr1A Sr 0.786455(13) 0.13574(5) 0.643398(15)
Sr1B Sr 0.286455(13) -0.63574(5) 0.356602(15)
Sr1F Sr 0.713545(13) -0.36426(5) 0.643398(15)
Sr1F_2 Sr 0.713545(13) 0.63574(5) 0.643398(15)
Sr1G Sr 0.786455(13) 0.36426(5) 0.143398(15)
loop_
_geom_bond_atom_site_label_1
_geom_bond_atom_site_label_2
_geom_bond_site_symmetry_1
_geom_bond_site_symmetry_2
C1 N1 1_555 1_555
C2 N1 1_555 1_555
C3 N2 1_555 1_555
C4 H1 1_555 1_555
H2 C4 1_555 1_555
C5 H3 1_555 1_555
H4 C5 1_555 1_555
C6 H5 1_555 1_555
H6 C6 1_555 1_555
C7 H7 1_555 1_555
H8 C7 1_555 1_555
C8 H9 1_555 1_555
H10 C8 1_555 1_555
C9 H11 1_555 1_555
H12 C9 1_555 1_555
C10 C8 1_555 1_555
H13 C10 1_555 1_555
H14 C10 1_555 1_555
C11 C9 1_555 1_555
H15 C11 1_555 1_555
H16 C11 1_555 1_555
C12 C10 1_555 1_555
H17 C12 1_555 1_555
C13 C7 1_555 1_555
H18 C13 1_555 1_555
H19 C13 1_555 1_555
C14 C13 1_555 1_555
H20 C14 1_555 1_555
C15 C6 1_555 1_555
H21 C15 1_555 1_555
H22 C15 1_555 1_555
C16 C4 1_555 1_555
H23 C16 1_555 1_555
H24 C16 1_555 1_555
C17 C16 1_555 1_555
H25 C17 1_555 1_555
C18 C5 1_555 1_555
H26 C18 1_555 1_555
H27 C18 1_555 1_555
C19 C12 1_555 1_555
C20 C14 1_555 1_555
C21 C17 1_555 1_555
N2 C1 1_555 1_555
N3 C2 1_555 1_555
N4 C1 1_555 1_555
N5 C3 1_555 1_555
N6 C2 1_555 1_555
O1 C19 1_555 1_555
O2 C19 1_555 1_555
O3 C20 1_555 1_555
O4 C20 1_555 1_555
O5 C21 1_555 1_555
O6 C21 1_555 1_555
O7 Sr1 1_555 1_555
Sr1 O1 1_555 1_555
O1G Sr1 1_555 1_555
O3B Sr1 1_555 1_555
O5A Sr1 1_555 1_555
O5F Sr1 1_555 1_555
O6A Sr1 1_555 1_555
O6F Sr1 1_555 1_555
Sr1A O5 1_555 1_555
Sr1B O3 1_555 1_555
Sr1F O6 1_555 1_555
Sr1F_2 O5 1_555 1_555
Sr1G O1 1_555 1_555
C3 N3 1_555 1_555
C4 N5 1_555 1_555
C5 N5 1_555 1_555
C6 N4 1_555 1_555
C7 N4 1_555 1_555
C8 N6 1_555 1_555
C9 N6 1_555 1_555
C11 C12 1_555 1_555
C14 C15 1_555 1_555
C17 C18 1_555 1_555
O2 Sr1 1_555 1_555
O6 Sr1A 1_555 1_555
O5A Sr1G 1_555 1_555
O6F Sr1G 1_555 1_555

#END
