
#######################################################################
#
#                 Cambridge Crystallographic Data Centre
#                                CCDC 
#
#######################################################################
#
# If this CIF has been generated from an entry in the Cambridge 
# Structural Database, then it will include bibliographic, chemical, 
# crystal, experimental, refinement or atomic coordinate data resulting 
# from the CCDC's data processing and validation procedures.
#
#######################################################################

data_DAWNAS
_chemical_formula_moiety         'C72 H36 O22 Zn18'
_symmetry_cell_setting           rhombohedral
_symmetry_space_group_name_H-M   'R -3 c'
_symmetry_Int_Tables_number      167
_space_group_name_Hall           '-R 3 2"c'
loop_
_symmetry_equiv_pos_site_id
_symmetry_equiv_pos_as_xyz
1 x,y,z
2 -y,x-y,z
3 -x+y,-x,z
4 x-y,-y,1/2-z
5 -x,-x+y,1/2-z
6 y,x,1/2-z
7 2/3+x,1/3+y,1/3+z
8 2/3-y,1/3+x-y,1/3+z
9 2/3-x+y,1/3-x,1/3+z
10 2/3+x-y,1/3-y,5/6-z
11 2/3-x,1/3-x+y,5/6-z
12 2/3+y,1/3+x,5/6-z
13 1/3+x,2/3+y,2/3+z
14 1/3-y,2/3+x-y,2/3+z
15 1/3-x+y,2/3-x,2/3+z
16 1/3+x-y,2/3-y,1/6-z
17 1/3-x,2/3-x+y,1/6-z
18 1/3+y,2/3+x,1/6-z
19 -x,-y,-z
20 y,-x+y,-z
21 x-y,x,-z
22 -x+y,y,1/2+z
23 x,x-y,1/2+z
24 -y,-x,1/2+z
25 1/3-x,2/3-y,2/3-z
26 1/3+y,2/3-x+y,2/3-z
27 1/3+x-y,2/3+x,2/3-z
28 1/3-x+y,2/3+y,1/6+z
29 1/3+x,2/3+x-y,1/6+z
30 1/3-y,2/3-x,1/6+z
31 2/3-x,1/3-y,1/3-z
32 2/3+y,1/3-x+y,1/3-z
33 2/3+x-y,1/3+x,1/3-z
34 2/3-x+y,1/3+y,5/6+z
35 2/3+x,1/3+x-y,5/6+z
36 2/3-y,1/3-x,5/6+z
_cell_length_a                   24.527(1)
_cell_length_b                   24.527(1)
_cell_length_c                   71.355(4)
_cell_angle_alpha                90
_cell_angle_beta                 90
_cell_angle_gamma                120
_cell_volume                     37174.4
loop_
_atom_site_label
_atom_site_type_symbol
_atom_site_fract_x
_atom_site_fract_y
_atom_site_fract_z
Zn1 Zn -0.08004(4) -0.06740(4) 0.010254(11)
Zn2 Zn -0.0000 0.0000 0.026389(19)
O1 O 0.0000 0.0000 0.0000
O2 O 0.0772(2) 0.0728(2) 0.03605(6)
O3 O 0.1358(2) 0.1102(2) 0.01025(10)
C1 C 0.1292(2) 0.1098(2) 0.02796(7)
C2 C 0.18138(19) 0.1550(2) 0.03935(7)
C3 C 0.2256(4) 0.1380(5) 0.04797(17)
H1 H 0.2204 0.0975 0.0466
C4 C 0.2771(5) 0.1860(5) 0.0586(2)
H2 H 0.3069 0.1769 0.0637
C5 C 0.2843(2) 0.2422(2) 0.06137(8)
C6 C 0.2461(5) 0.2575(5) 0.0536(2)
H3 H 0.2534 0.2985 0.0554
C7 C 0.1945(4) 0.2162(5) 0.04256(17)
H4 H 0.1684 0.2301 0.0373
C8 C 0.33233(18) 0.3333 0.0833
H5 H 0.2940 0.3333 0.0833
C9 C 0.33667(17) 0.28914(18) 0.07229(6)
C10 C 0.39406(18) 0.28964(17) 0.07225(6)
H6 H 0.3986 0.2606 0.0648
C11 C 0.4455(2) 0.3333 0.0833
C12 C 0.5025(2) 0.3333 0.0833
C13 C 0.5500(3) 0.3333 0.0833
C14 C 0.61173(19) 0.3333 0.0833
C15 C 0.6667 0.3891(2) 0.0833
H7 H 0.6667 0.4274 0.0833
Zn1B Zn 0.01264(6) 0.08004(4) 0.010254(11)
Zn1R Zn 0.08004(4) 0.06740(4) -0.010254(11)
Zn1AA Zn 0.34597(6) 0.59927(4) 0.176921(11)
Zn1T Zn 0.98736(6) 0.91996(4) -0.010254(11)
Zn1BA Zn 1.25329(4) 0.65403(6) 0.176921(11)
Zn1A Zn 0.06740(4) -0.01264(6) 0.010254(11)
Zn1T_2 Zn -0.01264(6) -0.08004(4) -0.010254(11)
Zn1S Zn -0.06740(4) 0.01264(6) -0.010254(11)
Zn1S_2 Zn 0.93260(4) 0.01264(6) -0.010254(11)
Zn1CA Zn 0.40073(4) -0.25329(4) 0.176921(11)
Zn2O Zn 0.3333 0.6667 0.140278(19)
Zn2R Zn 0.0000 -0.0000 -0.026389(19)
Zn2_2 Zn 1.0000 1.0000 0.026389(19)
Zn2O_2 Zn 1.3333 0.6667 0.140278(19)
Zn2_3 Zn 1.0000 0.0000 0.026389(19)
Zn2O_3 Zn 0.3333 -0.3333 0.140278(19)
O1O O 0.3333 0.6667 0.1667
O1_2 O 1.0000 1.0000 0.0000
O1O_2 O 1.3333 0.6667 0.1667
O2O O 0.3377(3) 0.5939(2) 0.13062(6)
O2B O 0.9956(3) 0.9228(2) 0.03605(6)
O2P O 1.2561(2) 0.6623(3) 0.13062(6)
O2A O 0.9272(2) 0.0044(3) 0.03605(6)
O2Q O 0.4061(2) -0.2561(2) 0.13062(6)
O2A_2 O -0.0728(2) 0.0044(3) 0.03605(6)
O2B_2 O -0.0044(3) -0.0772(2) 0.03605(6)
O2P_2 O 0.2561(2) 0.6623(3) 0.13062(6)
O2Q_2 O 0.4061(2) 0.7439(2) 0.13062(6)
O3O O 0.3589(3) 0.5565(2) 0.15642(10)
O3B O 0.9744(3) 0.8642(2) 0.01025(10)
O3P O 1.1975(2) 0.6411(3) 0.15642(10)
O3A O 0.8898(2) 0.0256(3) 0.01025(10)
O3Q O 0.4435(2) -0.1975(2) 0.15642(10)
O3R O -0.1358(2) -0.1102(2) -0.01025(10)
O3T O 0.0256(3) 0.1358(2) -0.01025(10)
C1O C 0.3527(3) 0.5569(2) 0.13871(7)
C1B C 0.9806(3) 0.8708(2) 0.02796(7)
C1P C 1.2041(2) 0.6473(3) 0.13871(7)
C1A C 0.8902(2) 0.0194(3) 0.02796(7)
C1Q C 0.4431(2) -0.2041(2) 0.13871(7)
C2O C 0.35971(28) 0.5117(2) 0.12732(7)
C2B C 0.97362(28) 0.81862(19) 0.03935(7)
C2P C 1.15195(19) 0.64029(28) 0.12732(7)
C2A C 0.8450(2) 0.02638(28) 0.03935(7)
C2Q C 0.4883(2) -0.15195(19) 0.12732(7)
C3O C 0.4209(6) 0.5287(5) 0.11870(17)
C3B C 0.9124(6) 0.7744(4) 0.04797(17)
C3P C 1.1077(4) 0.5791(6) 0.11870(17)
C3A C 0.8620(5) 0.0876(6) 0.04797(17)
C3Q C 0.4713(5) -0.1077(4) 0.11870(17)
H1O H 0.4562 0.5692 0.1201
H1B H 0.8771 0.7796 0.0466
H1P H 1.1129 0.5438 0.1201
H1A H 0.9025 0.1229 0.0466
H1Q H 0.4308 -0.1129 0.1201
C4O C 0.4244(7) 0.4807(5) 0.1081(2)
C4B C 0.9089(7) 0.7229(5) 0.0586(2)
C4P C 1.0562(5) 0.5756(7) 0.1081(2)
C4A C 0.8140(5) 0.0911(7) 0.0586(2)
C4Q C 0.5193(5) -0.0562(5) 0.1081(2)
H2O H 0.4633 0.4898 0.1030
H2B H 0.8700 0.6931 0.0637
H2P H 1.0264 0.5367 0.1030
H2A H 0.8231 0.1300 0.0637
H2Q H 0.5102 -0.0264 0.1030
C5O C 0.3754(3) 0.4245(2) 0.10530(8)
C5B C 0.9579(3) 0.7157(2) 0.06137(8)
C5P C 1.0490(2) 0.6246(3) 0.10530(8)
C5A C 0.7578(2) 0.0421(3) 0.06137(8)
C5Q C 0.5755(2) -0.0490(2) 0.10530(8)
C6O C 0.3219(7) 0.4092(5) 0.1131(2)
C6B C 1.0114(7) 0.7539(5) 0.0536(2)
C6P C 1.0872(5) 0.6781(7) 0.1131(2)
C6A C 0.7425(5) -0.0114(7) 0.0536(2)
C6Q C 0.5908(5) -0.0872(5) 0.1131(2)
H3O H 0.2882 0.3682 0.1113
H3B H 1.0451 0.7466 0.0554
H3P H 1.0799 0.7118 0.1113
H3A H 0.7015 -0.0451 0.0554
H3Q H 0.6318 -0.0799 0.1113
C7O C 0.3116(6) 0.4505(5) 0.12411(17)
C7B C 1.0217(6) 0.8055(4) 0.04256(17)
C7P C 1.1388(4) 0.6884(6) 0.12411(17)
C7A C 0.7838(5) -0.0217(6) 0.04256(17)
C7Q C 0.5495(5) -0.1388(4) 0.12411(17)
H4O H 0.2716 0.4366 0.1294
H4B H 1.0617 0.8316 0.0373
H4P H 1.1649 0.7284 0.1294
H4A H 0.7699 -0.0617 0.0373
H4Q H 0.5634 -0.1649 0.1294
C8P C 1.00100(18) 0.66764(18) 0.0834
C8Q C 0.6666 -0.00100(18) 0.0834
H5P H 1.0393 0.7060 0.0834
H5Q H 0.6666 -0.0393 0.0834
C9O C 0.38086(25) 0.37753(18) 0.09438(6)
C9B C 0.95247(25) 0.66333(17) 0.07229(6)
C9P C 0.99666(17) 0.61914(25) 0.09438(6)
C9A C 0.71086(18) 0.04753(25) 0.07229(6)
C9Q C 0.62247(18) 0.00334(17) 0.09438(6)
C10O C 0.43775(25) 0.37703(17) 0.09442(6)
C10B C 0.89558(25) 0.60594(18) 0.07225(6)
C10P C 0.93927(18) 0.56225(25) 0.09442(6)
C10A C 0.71036(17) 0.10442(25) 0.07225(6)
C10Q C 0.62297(17) 0.06073(18) 0.09442(6)
H6O H 0.4713 0.4061 0.1019
H6P H 0.9347 0.5287 0.1019
H6B H 0.8620 0.6014 0.0648
H6Q H 0.5939 0.0653 0.1019
H6A H 0.7394 0.1380 0.0648
C11B C 0.8878(2) 0.5545(2) 0.0833
C11A C 0.6667 0.1122(2) 0.0833
C12B C 0.8308(2) 0.4975(2) 0.0833
C12A C 0.6667 0.1692(2) 0.0833
C13B C 0.7833(3) 0.4500(3) 0.0833
C13A C 0.6667 0.2167(3) 0.0833
C14B C 0.72157(19) 0.38827(19) 0.0833
C14A C 0.6667 0.27843(19) 0.0833
C15B C 0.7224(2) 0.3333 0.0833
C15A C 0.6109(2) 0.2776(2) 0.0833
H7A H 0.5726 0.2393 0.0833
H7B H 0.7607 0.3333 0.0833
loop_
_geom_bond_atom_site_label_1
_geom_bond_atom_site_label_2
_geom_bond_site_symmetry_1
_geom_bond_site_symmetry_2
Zn1 O1 1_555 1_555
Zn2 O1 1_555 1_555
O1 Zn1B 1_555 1_555
O2 Zn2 1_555 1_555
O3 C1 1_555 1_555
C1 O2 1_555 1_555
C2 C1 1_555 1_555
C3 C2 1_555 1_555
H1 C3 1_555 1_555
C4 C3 1_555 1_555
H2 C4 1_555 1_555
C5 C4 1_555 1_555
C6 C5 1_555 1_555
H3 C6 1_555 1_555
C7 C2 1_555 1_555
H4 C7 1_555 1_555
C8 H5 1_555 1_555
C9 C5 1_555 1_555
C10 C9 1_555 1_555
H6 C10 1_555 1_555
C11 C10 1_555 1_555
C12 C11 1_555 1_555
C13 C12 1_555 1_555
C14 C13 1_555 1_555
C15 C14 1_555 1_555
H7 C15 1_555 1_555
Zn1B O3T 1_555 1_555
Zn1R O1 1_555 1_555
Zn1AA O1O 1_555 1_555
Zn1T O1_2 1_555 1_555
Zn1BA O1O_2 1_555 1_555
Zn1A O1 1_555 1_555
Zn1T_2 O1 1_555 1_555
Zn1S O1 1_555 1_555
Zn1S_2 O3A 1_555 1_555
Zn1CA O3Q 1_555 1_555
Zn2O O1O 1_555 1_555
Zn2R O1 1_555 1_555
Zn2_2 O1_2 1_555 1_555
Zn2O_2 O1O_2 1_555 1_555
Zn2_3 O2A 1_555 1_555
Zn2O_3 O2Q 1_555 1_555
O2O Zn2O 1_555 1_555
O2B Zn2_2 1_555 1_555
O2P Zn2O_2 1_555 1_555
O2A C1A 1_555 1_555
O2Q C1Q 1_555 1_555
O2A_2 Zn2 1_555 1_555
O2B_2 Zn2 1_555 1_555
O2P_2 Zn2O 1_555 1_555
O2Q_2 Zn2O 1_555 1_555
O3O Zn1AA 1_555 1_555
O3B Zn1T 1_555 1_555
O3P Zn1BA 1_555 1_555
O3A C1A 1_555 1_555
O3Q C1Q 1_555 1_555
O3R Zn1 1_555 1_555
C1O O2O 1_555 1_555
C1B O2B 1_555 1_555
C1P O2P 1_555 1_555
C1A C2A 1_555 1_555
C1Q C2Q 1_555 1_555
C2O C1O 1_555 1_555
C2B C1B 1_555 1_555
C2P C1P 1_555 1_555
C2A C3A 1_555 1_555
C2Q C3Q 1_555 1_555
C3O C2O 1_555 1_555
C3B C2B 1_555 1_555
C3P C2P 1_555 1_555
C3A H1A 1_555 1_555
C3Q H1Q 1_555 1_555
H1O C3O 1_555 1_555
H1B C3B 1_555 1_555
H1P C3P 1_555 1_555
C4O C3O 1_555 1_555
C4B C3B 1_555 1_555
C4P C3P 1_555 1_555
C4A C3A 1_555 1_555
C4Q C3Q 1_555 1_555
H2O C4O 1_555 1_555
H2B C4B 1_555 1_555
H2P C4P 1_555 1_555
H2A C4A 1_555 1_555
H2Q C4Q 1_555 1_555
C5O C4O 1_555 1_555
C5B C4B 1_555 1_555
C5P C4P 1_555 1_555
C5A C4A 1_555 1_555
C5Q C4Q 1_555 1_555
C6O C5O 1_555 1_555
C6B C5B 1_555 1_555
C6P C5P 1_555 1_555
C6A C5A 1_555 1_555
C6Q C5Q 1_555 1_555
H3O C6O 1_555 1_555
H3B C6B 1_555 1_555
H3P C6P 1_555 1_555
H3A C6A 1_555 1_555
H3Q C6Q 1_555 1_555
C7O C2O 1_555 1_555
C7B C2B 1_555 1_555
C7P C2P 1_555 1_555
C7A C2A 1_555 1_555
C7Q C2Q 1_555 1_555
H4O C7O 1_555 1_555
H4B C7B 1_555 1_555
H4P C7P 1_555 1_555
H4A C7A 1_555 1_555
H4Q C7Q 1_555 1_555
C8P H5P 1_555 1_555
C8Q H5Q 1_555 1_555
C9O C8 1_555 1_555
C9B C5B 1_555 1_555
C9P C5P 1_555 1_555
C9A C5A 1_555 1_555
C9Q C5Q 1_555 1_555
C10O C11 1_555 1_555
C10B C9B 1_555 1_555
C10P C9P 1_555 1_555
C10A C9A 1_555 1_555
C10Q C9Q 1_555 1_555
H6O C10O 1_555 1_555
H6P C10P 1_555 1_555
H6B C10B 1_555 1_555
H6Q C10Q 1_555 1_555
H6A C10A 1_555 1_555
C11B C10B 1_555 1_555
C11A C10A 1_555 1_555
C12B C11B 1_555 1_555
C12A C11A 1_555 1_555
C13B C12B 1_555 1_555
C13A C12A 1_555 1_555
C14B C15 1_555 1_555
C14A C13A 1_555 1_555
C15B C14B 1_555 1_555
C15A C14 1_555 1_555
H7A C15A 1_555 1_555
H7B C15B 1_555 1_555
O3 Zn1R 1_555 1_555
C6 C7 1_555 1_555
C8 C9 1_555 1_555
O3O C1O 1_555 1_555
O3B C1B 1_555 1_555
O3P C1P 1_555 1_555
C5O C9O 1_555 1_555
C6O C7O 1_555 1_555
C6B C7B 1_555 1_555
C6P C7P 1_555 1_555
C6A C7A 1_555 1_555
C6Q C7Q 1_555 1_555
C8P C9B 1_555 1_555
C8P C9P 1_555 1_555
C8Q C9A 1_555 1_555
C8Q C9Q 1_555 1_555
C9O C10O 1_555 1_555
C10P C11B 1_555 1_555
C10Q C11A 1_555 1_555
C13B C14B 1_555 1_555
C14A C15B 1_555 1_555
C14A C15A 1_555 1_555

#END
