
#######################################################################
#
#                 Cambridge Crystallographic Data Centre
#                                CCDC 
#
#######################################################################
#
# If this CIF has been generated from an entry in the Cambridge 
# Structural Database, then it will include bibliographic, chemical, 
# crystal, experimental, refinement or atomic coordinate data resulting 
# from the CCDC's data processing and validation procedures.
#
#######################################################################

data_QIWQES
_chemical_formula_moiety         '(C72 H72 Cu6 N12 O36)n'
_symmetry_cell_setting           monoclinic
_symmetry_space_group_name_H-M   'P 21/c'
_symmetry_Int_Tables_number      14
_space_group_name_Hall           '-P 2ybc'
loop_
_symmetry_equiv_pos_site_id
_symmetry_equiv_pos_as_xyz
1 x,y,z
2 -x,1/2+y,1/2-z
3 -x,-y,-z
4 x,1/2-y,1/2+z
_cell_length_a                   22.554(1)
_cell_length_b                   11.462(1)
_cell_length_c                   21.861(1)
_cell_angle_alpha                90
_cell_angle_beta                 105.645(1)
_cell_angle_gamma                90
_cell_volume                     5442
loop_
_atom_site_label
_atom_site_type_symbol
_atom_site_fract_x
_atom_site_fract_y
_atom_site_fract_z
O1 O 0.4580(3) -1.1419(6) 0.4589(3)
O2 O 0.5144(3) -1.2937(7) 0.5085(4)
O3 O -0.0534(3) -1.3783(6) 0.4454(3)
O4 O -0.0199(3) -1.1968(6) 0.4787(3)
O5 O 0.2211(3) -1.5641(6) 0.3346(3)
O6 O 0.1806(4) -1.3975(7) 0.2902(4)
O7 O 0.3333(3) -1.5864(5) 0.2257(3)
O8 O 0.2900(3) -1.4232(6) 0.1797(3)
O9 O 0.3088(3) -1.7460(6) 0.3258(3)
O10 O 0.0587(3) -1.3555(6) 0.5595(3)
O11 O -0.5762(3) -1.8884(6) 0.4248(3)
N1 N 0.3391(3) -1.4720(6) 0.3415(3)
N2 N -0.2053(3) -1.1336(7) 0.2918(3)
N3 N 0.0567(3) -1.4962(6) 0.4423(3)
N4 N 0.4442(3) -1.5056(7) 0.0600(3)
C1 C 0.3394(5) -1.3570(10) 0.3330(5)
C2 C 0.3807(4) -1.2833(9) 0.3727(4)
C3 C 0.4245(4) -1.3292(9) 0.4231(4)
C4 C 0.4247(5) -1.4496(9) 0.4319(5)
C5 C 0.3807(5) -1.5154(10) 0.3915(5)
C6 C 0.4703(5) -1.2495(9) 0.4681(5)
C7 C -0.1919(4) -1.2472(9) 0.2973(5)
C8 C -0.1441(4) -1.2919(9) 0.3445(4)
C9 C -0.1067(4) -1.2185(8) 0.3876(4)
C10 C -0.1185(4) -1.0993(8) 0.3816(4)
C11 C -0.1683(4) -1.0616(9) 0.3332(4)
C12 C -0.0552(4) -1.2674(8) 0.4420(4)
C13 C 0.0823(7) -1.5923(12) 0.4253(8)
C14 C 0.1247(7) -1.5940(11) 0.3893(7)
C15 C 0.1382(3) -1.4869(7) 0.3670(3)
C16 C 0.1113(8) -1.3836(12) 0.3782(9)
C17 C 0.0712(8) -1.3967(12) 0.4162(8)
C22 C 0.1827(4) -1.4800(8) 0.3272(4)
C23 C 0.4650(5) -1.5468(10) 0.1190(4)
C24 C 0.4275(4) -1.5519(11) 0.1597(5)
C25 C 0.3680(4) -1.5083(8) 0.1414(4)
C26 C 0.3482(5) -1.4636(11) 0.0802(4)
C27 C 0.3867(4) -1.4641(11) 0.0402(6)
C32 C 0.3267(4) -1.5063(9) 0.1861(4)
Cu3 Cu 0.2765(1) -1.5723(1) 0.2796(1)
Cu4 Cu 0.0000 -1.5000 0.5000
Cu5 Cu -0.5000 -2.0000 0.5000
O3B O 0.0534(3) -1.6217(6) 0.5546(3)
O4B O 0.0199(3) -1.8032(6) 0.5213(3)
N2B N 0.2053(3) -1.8664(7) 0.7082(3)
C7B C 0.1919(4) -1.7528(9) 0.7027(5)
C8B C 0.1441(4) -1.7081(9) 0.6555(4)
C9B C 0.1067(4) -1.7815(8) 0.6124(4)
C10B C 0.1185(4) -1.9007(8) 0.6184(4)
C11B C 0.1683(4) -1.9384(9) 0.6668(4)
C12B C 0.0552(4) -1.7326(8) 0.5580(4)
O10B O -0.0587(3) -1.6445(6) 0.4405(3)
O5B O -0.2211(3) -1.4359(6) 0.6654(3)
O6B O -0.1806(4) -1.6025(7) 0.7098(4)
N3B N -0.0567(3) -1.5038(6) 0.5577(3)
C13B C -0.0823(7) -1.4077(12) 0.5747(8)
C14B C -0.1247(7) -1.4060(11) 0.6107(7)
C15B C -0.1382(3) -1.5131(7) 0.6330(3)
C16B C -0.1113(8) -1.6164(12) 0.6218(9)
C17B C -0.0712(8) -1.6033(12) 0.5838(8)
C22B C -0.1827(4) -1.5200(8) 0.6728(4)
Cu3B Cu -0.2765(1) -1.4277(1) 0.7204(1)
O7B O -0.3333(3) -1.4136(5) 0.7743(3)
O8B O -0.2900(3) -1.5768(6) 0.8203(3)
N4B N -0.4442(3) -1.4944(7) 0.9400(3)
C23B C -0.4650(5) -1.4532(10) 0.8810(4)
C24B C -0.4275(4) -1.4481(11) 0.8403(5)
C25B C -0.3680(4) -1.4917(8) 0.8586(4)
C26B C -0.3482(5) -1.5364(11) 0.9198(4)
C27B C -0.3867(4) -1.5359(11) 0.9598(6)
C32B C -0.3267(4) -1.4937(9) 0.8139(4)
O9B O -0.3088(3) -1.2540(6) 0.6742(3)
O1B O -0.4580(3) -1.8581(6) 0.5411(3)
O2B O -0.5144(3) -1.7063(7) 0.4915(4)
N1B N -0.3391(3) -1.5280(6) 0.6585(3)
C1B C -0.3394(5) -1.6430(10) 0.6670(5)
C2B C -0.3807(4) -1.7167(9) 0.6273(4)
C3B C -0.4245(4) -1.6708(9) 0.5769(4)
C4B C -0.4247(5) -1.5504(9) 0.5681(5)
C5B C -0.3807(5) -1.4846(10) 0.6085(5)
C6B C -0.4703(5) -1.7505(9) 0.5319(5)
Cu3A Cu -0.2765(1) -1.0723(1) 0.2204(1)
Cu5A Cu 0.5000 -1.5000 0.0000
N2A N 0.2053(3) -1.6336(7) 0.2082(3)
Cu3C Cu 0.2765(1) -1.9277(1) 0.7796(1)
N2C N -0.2053(3) -1.3664(7) 0.7918(3)
Cu5A_2 Cu -0.5000 -1.5000 1.0000
Cu5_2 Cu 0.5000 -1.0000 0.5000
O1_2 O -0.5420(3) -2.1419(6) 0.4589(3)
O11B O -0.4238(3) -2.1116(6) 0.5752(3)
N4A N -0.4442(3) -2.0056(7) 0.4400(3)
N4C N -0.5558(3) -1.9944(7) 0.5600(3)
Cu1 Cu -0.3560(1) 0.4961(1) 0.3529(1)
Cu2 Cu -0.1095(1) -0.0053(1) 0.6093(1)
O12 O -0.1624(3) -0.1235(5) 0.5571(3)
O13 O -0.2360(4) -0.1270(6) 0.6077(3)
O14 O -0.5808(3) 0.1077(6) 0.1933(3)
O15 O -0.6005(3) 0.1064(6) 0.2891(3)
O16 O -0.2941(3) 0.3880(6) 0.4010(3)
O17 O -0.3471(3) 0.3842(7) 0.4735(3)
O18 O 0.0502(4) -0.3865(6) 0.8439(4)
O19 O 0.1072(4) -0.4056(8) 0.7768(4)
O20 O -0.3004(4) 0.4844(8) 0.2807(4)
O21 O -0.0517(3) 0.0000(6) 0.5384(3)
N5 N -0.3164(4) -0.3754(6) 0.4142(4)
N6 N -0.4191(3) 0.3694(6) 0.3215(4)
N7 N -0.1688(3) 0.1189(6) 0.5628(3)
N8 N -0.0575(3) -0.1288(7) 0.6646(3)
C33 C -0.2586(5) -0.3452(11) 0.4193(5)
C34 C -0.2254(5) -0.2759(10) 0.4656(5)
C35 C -0.2519(4) -0.2280(7) 0.5090(4)
C36 C -0.3129(5) -0.2547(10) 0.5027(5)
C37 C -0.3437(5) -0.3270(10) 0.4541(6)
C38 C -0.2145(4) -0.1516(8) 0.5633(4)
C39 C -0.4200(5) 0.2991(9) 0.2727(5)
C40 C -0.4678(5) 0.2227(9) 0.2474(5)
C41 C -0.5167(4) 0.2172(8) 0.2749(4)
C42 C -0.5145(5) 0.2889(9) 0.3257(5)
C43 C -0.4656(5) 0.3636(10) 0.3473(5)
C44 C -0.5704(5) 0.1365(8) 0.2509(4)
C45 C -0.1635(7) 0.1577(14) 0.5061(5)
C46 C -0.2060(6) 0.2348(14) 0.4694(7)
C47 C -0.2547(4) 0.2750(7) 0.4925(3)
C48 C -0.2583(8) 0.2347(16) 0.5509(6)
C49 C -0.2134(7) 0.1600(17) 0.5857(8)
C54 C -0.3036(4) 0.3545(8) 0.4534(5)
C55 C -0.0813(8) -0.2039(18) 0.6987(10)
C56 C -0.0438(5) -0.2793(18) 0.7422(10)
C57 C 0.0187(4) -0.2836(9) 0.7465(4)
C58 C 0.0435(9) -0.1970(17) 0.7173(11)
C59 C 0.0032(5) -0.1202(19) 0.6782(11)
C64 C 0.0631(6) -0.3661(9) 0.7918(6)
O14A O -0.4192(3) 0.6077(6) 0.3067(3)
Cu1A Cu -0.6440(1) -0.0039(1) 0.1471(1)
O18A O -0.0502(4) 0.1135(6) 0.6561(4)
N5_2 N -0.3164(4) 0.6246(6) 0.4142(4)
Cu1_2 Cu -0.3560(1) -0.5039(1) 0.3529(1)
Cu2A Cu 0.1095(1) -0.5053(1) 0.8907(1)
O22 O -0.2272(8) -0.7356(14) 0.2850(8)
O24 O -0.1770(7) -0.9156(17) -0.1211(9)
O26 O -0.3163(7) -0.9705(11) 0.6413(7)
O27 O -0.2245(15) -0.9960(30) 0.7202(15)
loop_
_geom_bond_atom_site_label_1
_geom_bond_atom_site_label_2
_geom_bond_site_symmetry_1
_geom_bond_site_symmetry_2
O1 C6 1_555 1_555
O2 C6 1_555 1_555
O3 C12 1_555 1_555
O4 C12 1_555 1_555
O5 C22 1_555 1_555
O6 C22 1_555 1_555
O7 C32 1_555 1_555
O8 C32 1_555 1_555
O9 Cu3 1_555 1_555
O10 Cu4 1_555 1_555
O11 Cu5 1_555 1_555
N1 C1 1_555 1_555
N2 C7 1_555 1_555
N3 C13 1_555 1_555
N4 C23 1_555 1_555
C1 C2 1_555 1_555
C2 C3 1_555 1_555
C3 C4 1_555 1_555
C4 C5 1_555 1_555
C5 N1 1_555 1_555
C6 C3 1_555 1_555
C7 C8 1_555 1_555
C8 C9 1_555 1_555
C9 C10 1_555 1_555
C10 C11 1_555 1_555
C11 N2 1_555 1_555
C12 C9 1_555 1_555
C13 C14 1_555 1_555
C14 C15 1_555 1_555
C15 C16 1_555 1_555
C16 C17 1_555 1_555
C17 N3 1_555 1_555
C22 C15 1_555 1_555
C23 C24 1_555 1_555
C24 C25 1_555 1_555
C25 C26 1_555 1_555
C26 C27 1_555 1_555
C27 N4 1_555 1_555
C32 C25 1_555 1_555
Cu1 O16 1_555 1_555
Cu2 O12 1_555 1_555
O12 C38 1_555 1_555
O13 C38 1_555 1_555
O14 C44 1_555 1_555
O15 C44 1_555 1_555
O16 C54 1_555 1_555
O17 C54 1_555 1_555
O18 C64 1_555 1_555
O19 C64 1_555 1_555
O20 Cu1 1_555 1_555
O21 Cu2 1_555 1_555
N5 C33 1_555 1_555
N6 Cu1 1_555 1_555
N7 Cu2 1_555 1_555
N8 Cu2 1_555 1_555
C33 C34 1_555 1_555
C34 C35 1_555 1_555
C35 C36 1_555 1_555
C36 C37 1_555 1_555
C37 N5 1_555 1_555
C38 C35 1_555 1_555
C39 N6 1_555 1_555
C40 C39 1_555 1_555
C41 C40 1_555 1_555
C42 C41 1_555 1_555
C43 N6 1_555 1_555
C44 C41 1_555 1_555
C45 N7 1_555 1_555
C46 C45 1_555 1_555
C47 C46 1_555 1_555
C48 C47 1_555 1_555
C49 N7 1_555 1_555
C54 C47 1_555 1_555
C55 N8 1_555 1_555
C56 C55 1_555 1_555
C57 C56 1_555 1_555
C58 C57 1_555 1_555
C59 N8 1_555 1_555
C64 C57 1_555 1_555
Cu3 O5 1_555 1_555
Cu4 O3 1_555 1_555
Cu5 O1B 1_555 1_555
O3B Cu4 1_555 1_555
O4B C12B 1_555 1_555
N2B C7B 1_555 1_555
C7B C8B 1_555 1_555
C8B C9B 1_555 1_555
C9B C10B 1_555 1_555
C10B C11B 1_555 1_555
C11B N2B 1_555 1_555
C12B O3B 1_555 1_555
O10B Cu4 1_555 1_555
O5B C22B 1_555 1_555
O6B C22B 1_555 1_555
N3B Cu4 1_555 1_555
C13B N3B 1_555 1_555
C14B C13B 1_555 1_555
C15B C14B 1_555 1_555
C16B C15B 1_555 1_555
C17B N3B 1_555 1_555
C22B C15B 1_555 1_555
Cu3B O5B 1_555 1_555
O7B Cu3B 1_555 1_555
O8B C32B 1_555 1_555
N4B C23B 1_555 1_555
C23B C24B 1_555 1_555
C24B C25B 1_555 1_555
C25B C26B 1_555 1_555
C26B C27B 1_555 1_555
C27B N4B 1_555 1_555
C32B O7B 1_555 1_555
O9B Cu3B 1_555 1_555
O1B C6B 1_555 1_555
O2B C6B 1_555 1_555
N1B Cu3B 1_555 1_555
C1B N1B 1_555 1_555
C2B C1B 1_555 1_555
C3B C2B 1_555 1_555
C4B C3B 1_555 1_555
C5B N1B 1_555 1_555
C6B C3B 1_555 1_555
O14A Cu1 1_555 1_555
Cu1A O14 1_555 1_555
Cu3A N2 1_555 1_555
Cu5A N4 1_555 1_555
N2A Cu3 1_555 1_555
Cu3C N2B 1_555 1_555
N2C Cu3B 1_555 1_555
Cu5A_2 N4B 1_555 1_555
Cu5_2 O1 1_555 1_555
O18A Cu2 1_555 1_555
O1_2 Cu5 1_555 1_555
O11B Cu5 1_555 1_555
N4A Cu5 1_555 1_555
N4C Cu5 1_555 1_555
N5_2 Cu1 1_555 1_555
Cu1_2 N5 1_555 1_555
Cu2A O18 1_555 1_555
O7 Cu3 1_555 1_555
N1 Cu3 1_555 1_555
N3 Cu4 1_555 1_555
C42 C43 1_555 1_555
C48 C49 1_555 1_555
C58 C59 1_555 1_555
C9B C12B 1_555 1_555
C16B C17B 1_555 1_555
C25B C32B 1_555 1_555
C4B C5B 1_555 1_555

#END
