
#######################################################################
#
#                 Cambridge Crystallographic Data Centre
#                                CCDC 
#
#######################################################################
#
# If this CIF has been generated from an entry in the Cambridge 
# Structural Database, then it will include bibliographic, chemical, 
# crystal, experimental, refinement or atomic coordinate data resulting 
# from the CCDC's data processing and validation procedures.
#
#######################################################################

data_GARTUR
_chemical_formula_moiety         '(C24 H96 F2 Ga2 N4 O68 P20 Zn14 4-)n'
_symmetry_cell_setting           orthorhombic
_symmetry_space_group_name_H-M   'I b c a'
_symmetry_Int_Tables_number      73
_space_group_name_Hall           '-I 2b 2c'
loop_
_symmetry_equiv_pos_site_id
_symmetry_equiv_pos_as_xyz
1 x,y,z
2 1/2-x,-y,1/2+z
3 -x,1/2+y,1/2-z
4 1/2+x,1/2-y,-z
5 1/2+x,1/2+y,1/2+z
6 -x,1/2-y,z
7 1/2-x,y,-z
8 x,-y,1/2-z
9 -x,-y,-z
10 1/2+x,y,1/2-z
11 x,1/2-y,1/2+z
12 1/2-x,1/2+y,z
13 1/2-x,1/2-y,1/2-z
14 x,1/2+y,-z
15 1/2+x,-y,z
16 -x,y,1/2+z
_cell_length_a                   9.9730(14)
_cell_length_b                   48.485(7)
_cell_length_c                   54.892(8)
_cell_angle_alpha                90
_cell_angle_beta                 90
_cell_angle_gamma                90
_cell_volume                     26542.5
loop_
_atom_site_label
_atom_site_type_symbol
_atom_site_fract_x
_atom_site_fract_y
_atom_site_fract_z
N1 N 0.2967(11) 0.5572(2) -0.14151(18)
N2 N -0.0493(10) 0.35019(19) 0.04063(18)
C1 C 0.3451(15) 0.5315(3) -0.1294(3)
C2 C 0.2519(18) 0.5239(4) -0.1086(3)
C3 C 0.296(2) 0.5007(5) -0.0945(3)
C4 C 0.200(3) 0.4939(5) -0.0722(4)
C5 C 0.250(4) 0.4703(7) -0.0566(5)
C6 C 0.161(3) 0.4641(7) -0.0342(6)
C7 C 0.021(3) 0.4613(15) -0.0391(8)
C8 C -0.063(5) 0.4540(7) -0.0186(8)
C9 C -0.034(4) 0.4369(8) 0.0008(6)
C10 C -0.020(5) 0.4065(9) -0.0082(6)
C11 C 0.003(4) 0.3864(8) 0.0134(7)
C12 C -0.067(3) 0.3700(5) 0.0204(3)
N3 N -0.0021(11) 0.3869(2) 0.1878(2)
N4 N -0.2929(11) 0.2101(2) 0.41127(17)
C13 C 0.049(2) 0.3620(4) 0.1999(3)
C14 C -0.017(3) 0.3548(7) 0.2219(6)
C15 C 0.043(5) 0.3313(10) 0.2340(8)
C16 C -0.083(4) 0.322(2) 0.2477(8)
C17 C 0.011(4) 0.3194(13) 0.2700(6)
C18 C -0.119(4) 0.313(2) 0.2844(10)
C19 C -0.114(6) 0.2912(12) 0.2990(7)
C20 C -0.234(7) 0.2828(8) 0.3174(7)
C21 C -0.227(4) 0.2592(6) 0.3329(5)
C22 C -0.286(3) 0.2589(4) 0.3569(4)
C23 C -0.261(2) 0.2335(4) 0.3726(3)
C24 C -0.311(3) 0.2349(3) 0.3954(3)
Ga1 Ga 0.87680(12) 0.27688(2) 0.02277(2)
Zn1 Zn -0.33178(14) 0.43248(3) 0.22027(2)
Zn2 Zn -0.29550(15) 0.36244(3) 0.13334(3)
Zn3 Zn 0.54780(15) 0.34979(3) 0.06815(3)
Zn4 Zn 0.04570(15) 0.39679(3) 0.10715(3)
Zn5 Zn -0.00936(14) 0.46610(3) 0.19435(2)
Zn6 Zn 0.20235(14) 0.32449(3) 0.08812(3)
Zn7 Zn 0.35163(15) 0.41471(3) 0.16529(3)
P1 P 1.1607(3) 0.28135(5) 0.04628(5)
P2 P -0.2868(3) 0.49257(6) 0.20537(5)
P3 P 0.0653(3) 0.44212(6) 0.14576(5)
P4 P -0.0601(3) 0.44463(6) 0.24480(5)
P5 P -0.2352(3) 0.39191(7) 0.08367(6)
P6 P -0.3586(3) 0.38678(6) 0.18372(5)
P7 P 0.2770(3) 0.38398(6) 0.07192(6)
P8 P 0.5944(3) 0.30480(6) 0.02833(5)
P9 P -0.0146(3) 0.33646(6) 0.12633(6)
P10 P -0.5290(3) 0.32494(7) 0.11837(6)
O1 O 1.1737(7) 0.25020(15) 0.04679(12)
O2 O 1.0156(7) 0.29121(14) 0.04445(12)
O3 O 1.2312(8) 0.29278(17) 0.06835(15)
O4 O -0.3450(8) 0.46466(15) 0.19842(14)
O5 O -0.3383(8) 0.51596(16) 0.18981(13)
O6 O -0.1360(9) 0.49309(16) 0.20537(15)
O7 O 0.0064(9) 0.43137(17) 0.12290(15)
O8 O -0.0484(8) 0.45022(16) 0.16304(14)
O9 O 0.1602(9) 0.42240(17) 0.15805(15)
O10 O -0.0037(8) 0.42638(16) 0.26458(13)
O11 O -0.2085(7) 0.44367(17) 0.24555(14)
O12 O -0.0006(8) 0.43819(16) 0.21985(14)
O13 O -0.2919(9) 0.39231(18) 0.10956(15)
O14 O -0.0847(9) 0.3945(2) 0.08188(15)
O15 O -0.2761(9) 0.3669(2) 0.06962(18)
O16 O -0.2847(9) 0.39800(18) 0.20529(15)
O17 O -0.2568(9) 0.3776(2) 0.16522(15)
O18 O -0.4574(8) 0.40679(17) 0.17315(15)
O19 O 0.4256(10) 0.37997(19) 0.07339(17)
O20 O 0.2256(7) 0.39942(18) 0.09399(14)
O21 O 0.1992(9) 0.35759(17) 0.06753(15)
O22 O 0.7416(7) 0.30171(14) 0.03612(12)
O23 O 0.5739(7) 0.30371(14) 0.00119(12)
O24 O 0.5334(9) 0.33120(19) 0.03787(15)
O25 O -0.1651(9) 0.33440(18) 0.12835(19)
O26 O 0.0418(8) 0.36557(17) 0.12976(15)
O27 O 0.0288(8) 0.32222(19) 0.10318(17)
O28 O -0.4786(8) 0.3475(2) 0.13491(15)
O29 O -0.4513(9) 0.3230(2) 0.09479(16)
O30 O -0.6778(8) 0.32715(18) 0.11564(15)
O31 O 0.2900(9) 0.41202(19) 0.20379(15)
O32 O 0.4012(8) 0.45723(16) 0.17076(14)
O33 O 0.3017(8) 0.37198(16) 0.15842(14)
O34 O 0.4175(8) 0.41625(18) 0.12633(14)
F1 F 0.7500 0.26105(15) 0.0000
F2 F 1.0000 0.2500 0.00884(13)
H1 H 1.2328 0.2909 0.0260
H2 H -0.3378 0.4969 0.2280
H3 H 0.1266 0.4638 0.1425
H4 H -0.0239 0.4670 0.2484
H5 H -0.2890 0.4179 0.0729
H6 H -0.4004 0.3583 0.1866
H7 H 0.2219 0.3967 0.0529
H8 H 0.5986 0.2846 0.0332
H9 H -0.0154 0.3276 0.1428
H10 H -0.5137 0.3067 0.1337
Ga1E Ga 1.12320(12) 0.22312(2) 0.02277(2)
Zn1E Zn 2.33178(14) 0.06752(3) 0.22027(2)
Zn2E Zn 2.29550(15) 0.13756(3) 0.13334(3)
Zn3E Zn 1.45220(15) 0.15021(3) 0.06815(3)
Zn4E Zn 1.95430(15) 0.10321(3) 0.10715(3)
Zn5E Zn 2.00936(14) 0.03390(3) 0.19435(2)
Zn6E Zn 1.79765(14) 0.17551(3) 0.08812(3)
Zn7E Zn 1.64837(15) 0.08529(3) 0.16529(3)
P1E P 0.8393(3) 0.21865(5) 0.04628(5)
P2E P 2.2868(3) 0.00743(6) 0.20537(5)
P3E P 1.9347(3) 0.05788(6) 0.14576(5)
P4E P 2.0601(3) 0.05537(6) 0.24480(5)
P5E P 2.2352(3) 0.10809(7) 0.08367(6)
P6E P 2.3586(3) 0.11322(6) 0.18372(5)
P7E P 1.7230(3) 0.11602(6) 0.07192(6)
P8E P 1.4056(3) 0.19520(6) 0.02833(5)
P9E P 2.0146(3) 0.16354(6) 0.12633(6)
P10E P 2.5290(3) 0.17506(7) 0.11837(6)
O1E O 0.8263(7) 0.24980(15) 0.04679(12)
O2E O 0.9844(7) 0.20879(14) 0.04445(12)
O3E O 0.7688(8) 0.20722(17) 0.06835(15)
O4E O 2.3450(8) 0.03534(15) 0.19842(14)
O5E O 2.3383(8) -0.01596(16) 0.18981(13)
O6E O 2.1360(9) 0.00691(16) 0.20537(15)
O7E O 1.9936(9) 0.06863(17) 0.12290(15)
O8E O 2.0484(8) 0.04978(16) 0.16304(14)
O9E O 1.8398(9) 0.07760(17) 0.15805(15)
O10E O 2.0037(8) 0.07362(16) 0.26458(13)
O11E O 2.2085(7) 0.05633(17) 0.24555(14)
O12E O 2.0006(8) 0.06181(16) 0.21985(14)
O13E O 2.2919(9) 0.10769(18) 0.10956(15)
O14E O 2.0847(9) 0.1055(2) 0.08188(15)
O15E O 2.2761(9) 0.1331(2) 0.06962(18)
O16E O 2.2847(9) 0.10200(18) 0.20529(15)
O17E O 2.2568(9) 0.1224(2) 0.16522(15)
O18E O 2.4574(8) 0.09321(17) 0.17315(15)
O19E O 1.5744(10) 0.12003(19) 0.07339(17)
O20E O 1.7744(7) 0.10058(18) 0.09399(14)
O21E O 1.8008(9) 0.14241(17) 0.06753(15)
O22E O 1.2584(7) 0.19829(14) 0.03612(12)
O23E O 1.4261(7) 0.19629(14) 0.00119(12)
O24E O 1.4666(9) 0.16880(19) 0.03787(15)
O25E O 2.1651(9) 0.16560(18) 0.12835(19)
O26E O 1.9582(8) 0.13443(17) 0.12976(15)
O27E O 1.9712(8) 0.17778(19) 0.10318(17)
O28E O 2.4786(8) 0.1525(2) 0.13491(15)
O29E O 2.4513(9) 0.1770(2) 0.09479(16)
O30E O 2.6778(8) 0.17285(18) 0.11564(15)
O31E O 1.7100(9) 0.08798(19) 0.20379(15)
O32E O 1.5988(8) 0.04277(16) 0.17076(14)
O33E O 1.6983(8) 0.12802(16) 0.15842(14)
O34E O 1.5825(8) 0.08375(18) 0.12633(14)
H1E H 0.7672 0.2091 0.0260
H2E H 2.3378 0.0031 0.2280
H3E H 1.8734 0.0362 0.1425
H4E H 2.0239 0.0330 0.2484
H5E H 2.2890 0.0821 0.0729
H6E H 2.4004 0.1417 0.1866
H7E H 1.7781 0.1033 0.0529
H8E H 1.4014 0.2154 0.0332
H9E H 2.0154 0.1724 0.1428
H10E H 2.5137 0.1933 0.1337
Ga1C Ga 1.37680(12) 0.22312(2) -0.02277(2)
Ga1F Ga 0.62320(12) 0.27688(2) -0.02277(2)
Zn1I Zn 0.16822(14) 0.43248(3) 0.27973(2)
Zn1L Zn 1.83178(14) 0.06752(3) 0.27973(2)
Zn3_2 Zn -0.45220(15) 0.34979(3) 0.06815(3)
Zn3E_2 Zn 2.45220(15) 0.15021(3) 0.06815(3)
Zn5K Zn 2.50936(14) -0.03390(3) 0.19435(2)
Zn5N Zn -0.50936(14) 0.53390(3) 0.19435(2)
Zn6_2 Zn -0.79765(14) 0.32449(3) 0.08812(3)
Zn6_3 Zn 1.20235(14) 0.32449(3) 0.08812(3)
Zn6E_2 Zn 0.79765(14) 0.17551(3) 0.08812(3)
Zn6E_3 Zn 2.79765(14) 0.17551(3) 0.08812(3)
Zn7_2 Zn -0.64837(15) 0.41471(3) 0.16529(3)
Zn7E_2 Zn 2.64837(15) 0.08529(3) 0.16529(3)
O3_2 O 0.2312(8) 0.29278(17) 0.06835(15)
O3E_2 O 1.7688(8) 0.20722(17) 0.06835(15)
O5K O 1.8383(8) 0.01596(16) 0.18981(13)
O5N O 0.1617(8) 0.48404(16) 0.18981(13)
O10I O -0.5037(8) 0.42638(16) 0.23542(13)
O10L O 2.5037(8) 0.07362(16) 0.23542(13)
O15_2 O 0.7239(9) 0.3669(2) 0.06962(18)
O15E_2 O 1.2761(9) 0.1331(2) 0.06962(18)
O18_2 O 0.5426(8) 0.40679(17) 0.17315(15)
O18E_2 O 1.4574(8) 0.09321(17) 0.17315(15)
O23C O 1.0739(7) 0.19629(14) -0.00119(12)
O23F O 0.9261(7) 0.30371(14) -0.00119(12)
O29_2 O 0.5487(9) 0.3230(2) 0.09479(16)
O29E_2 O 1.4513(9) 0.1770(2) 0.09479(16)
O30_2 O 0.3222(8) 0.32715(18) 0.11564(15)
O30E_2 O 1.6778(8) 0.17285(18) 0.11564(15)
F1C F 1.2500 0.23895(15) 0.0000
loop_
_geom_bond_atom_site_label_1
_geom_bond_atom_site_label_2
_geom_bond_site_symmetry_1
_geom_bond_site_symmetry_2
Ga1 O2 1_555 1_555
Zn1 O4 1_555 1_555
Zn2 O13 1_555 1_555
Zn3 O19 1_555 1_555
Zn4 O7 1_555 1_555
Zn5 O6 1_555 1_555
Zn6 O21 1_555 1_555
Zn7 O9 1_555 1_555
P1 O1 1_555 1_555
P2 O4 1_555 1_555
P3 O7 1_555 1_555
P4 O10 1_555 1_555
P5 O13 1_555 1_555
P6 O16 1_555 1_555
P7 O19 1_555 1_555
P8 O22 1_555 1_555
P9 O25 1_555 1_555
P10 O28 1_555 1_555
O1 Ga1E 1_555 1_555
O2 P1 1_555 1_555
O3 P1 1_555 1_555
O5 P2 1_555 1_555
O6 P2 1_555 1_555
O8 Zn5 1_555 1_555
O9 P3 1_555 1_555
O10 Zn1I 1_555 1_555
O11 Zn1 1_555 1_555
O12 Zn5 1_555 1_555
O14 Zn4 1_555 1_555
O15 P5 1_555 1_555
O16 Zn1 1_555 1_555
O17 Zn2 1_555 1_555
O18 P6 1_555 1_555
O20 Zn4 1_555 1_555
O21 P7 1_555 1_555
O22 Ga1 1_555 1_555
O23 P8 1_555 1_555
O24 Zn3 1_555 1_555
O25 Zn2 1_555 1_555
O26 Zn4 1_555 1_555
O27 Zn6 1_555 1_555
O28 Zn2 1_555 1_555
O29 P10 1_555 1_555
O30 P10 1_555 1_555
O31 Zn7 1_555 1_555
O32 Zn7 1_555 1_555
O33 Zn7 1_555 1_555
O34 Zn7 1_555 1_555
F1 Ga1 1_555 1_555
F2 Ga1 1_555 1_555
H1 P1 1_555 1_555
H2 P2 1_555 1_555
H3 P3 1_555 1_555
H4 P4 1_555 1_555
H5 P5 1_555 1_555
H6 P6 1_555 1_555
H7 P7 1_555 1_555
H8 P8 1_555 1_555
H9 P9 1_555 1_555
H10 P10 1_555 1_555
N1 C1 1_555 1_555
N2 C12 1_555 1_555
C1 C2 1_555 1_555
C2 C3 1_555 1_555
C3 C4 1_555 1_555
C4 C5 1_555 1_555
C5 C6 1_555 1_555
C6 C7 1_555 1_555
C7 C8 1_555 1_555
C8 C9 1_555 1_555
C9 C10 1_555 1_555
C10 C11 1_555 1_555
C11 C12 1_555 1_555
N3 C13 1_555 1_555
N4 C24 1_555 1_555
C13 C14 1_555 1_555
C14 C15 1_555 1_555
C15 C16 1_555 1_555
C16 C17 1_555 1_555
C17 C18 1_555 1_555
C18 C19 1_555 1_555
C19 C20 1_555 1_555
C20 C21 1_555 1_555
C21 C22 1_555 1_555
C22 C23 1_555 1_555
C23 C24 1_555 1_555
Ga1E F2 1_555 1_555
Zn1E O4E 1_555 1_555
Zn2E O13E 1_555 1_555
Zn3E O19E 1_555 1_555
Zn4E O7E 1_555 1_555
Zn5E O6E 1_555 1_555
Zn6E O21E 1_555 1_555
Zn7E O9E 1_555 1_555
P1E O1E 1_555 1_555
P2E O4E 1_555 1_555
P3E O7E 1_555 1_555
P4E O10E 1_555 1_555
P5E O13E 1_555 1_555
P6E O16E 1_555 1_555
P7E O19E 1_555 1_555
P8E O22E 1_555 1_555
P9E O25E 1_555 1_555
P10E O28E 1_555 1_555
O1E Ga1 1_555 1_555
O2E Ga1E 1_555 1_555
O3E P1E 1_555 1_555
O5E P2E 1_555 1_555
O6E P2E 1_555 1_555
O8E Zn5E 1_555 1_555
O9E P3E 1_555 1_555
O10E Zn1L 1_555 1_555
O11E Zn1E 1_555 1_555
O12E Zn5E 1_555 1_555
O14E Zn4E 1_555 1_555
O15E P5E 1_555 1_555
O16E Zn1E 1_555 1_555
O17E Zn2E 1_555 1_555
O18E P6E 1_555 1_555
O20E Zn4E 1_555 1_555
O21E P7E 1_555 1_555
O22E Ga1E 1_555 1_555
O23E P8E 1_555 1_555
O24E Zn3E 1_555 1_555
O25E Zn2E 1_555 1_555
O26E Zn4E 1_555 1_555
O27E Zn6E 1_555 1_555
O28E Zn2E 1_555 1_555
O29E P10E 1_555 1_555
O30E P10E 1_555 1_555
O31E Zn7E 1_555 1_555
O32E Zn7E 1_555 1_555
O33E Zn7E 1_555 1_555
O34E Zn7E 1_555 1_555
H1E P1E 1_555 1_555
H2E P2E 1_555 1_555
H3E P3E 1_555 1_555
H4E P4E 1_555 1_555
H5E P5E 1_555 1_555
H6E P6E 1_555 1_555
H7E P7E 1_555 1_555
H8E P8E 1_555 1_555
H9E P9E 1_555 1_555
H10E P10E 1_555 1_555
Ga1C O23E 1_555 1_555
Ga1F O23 1_555 1_555
Zn3_2 O15 1_555 1_555
Zn3E_2 O15E 1_555 1_555
Zn5K O5E 1_555 1_555
Zn5N O5 1_555 1_555
Zn6_2 O30 1_555 1_555
Zn6_3 O3 1_555 1_555
Zn6E_2 O3E 1_555 1_555
Zn6E_3 O30E 1_555 1_555
Zn7_2 O18 1_555 1_555
Zn7E_2 O18E 1_555 1_555
O3_2 Zn6 1_555 1_555
O3E_2 Zn6E 1_555 1_555
O5K Zn5E 1_555 1_555
O5N Zn5 1_555 1_555
O10I Zn1 1_555 1_555
O10L Zn1E 1_555 1_555
O15_2 Zn3 1_555 1_555
O15E_2 Zn3E 1_555 1_555
O18_2 Zn7 1_555 1_555
O18E_2 Zn7E 1_555 1_555
O23C Ga1E 1_555 1_555
O23F Ga1 1_555 1_555
O29_2 Zn3 1_555 1_555
O29E_2 Zn3E 1_555 1_555
O30_2 Zn6 1_555 1_555
O30E_2 Zn6E 1_555 1_555
F1C Ga1E 1_555 1_555
P3 O8 1_555 1_555
P4 O11 1_555 1_555
P4 O12 1_555 1_555
P5 O14 1_555 1_555
P6 O17 1_555 1_555
P7 O20 1_555 1_555
P8 O24 1_555 1_555
P9 O26 1_555 1_555
P9 O27 1_555 1_555
O29 Zn3_2 1_555 1_555
F1 Ga1F 1_555 1_555
P1E O2E 1_555 1_555
P3E O8E 1_555 1_555
P4E O11E 1_555 1_555
P4E O12E 1_555 1_555
P5E O14E 1_555 1_555
P6E O17E 1_555 1_555
P7E O20E 1_555 1_555
P8E O24E 1_555 1_555
P9E O26E 1_555 1_555
P9E O27E 1_555 1_555
O29E Zn3E_2 1_555 1_555
Ga1C F1C 1_555 1_555

#END
