
#######################################################################
#
#                 Cambridge Crystallographic Data Centre
#                                CCDC 
#
#######################################################################
#
# If this CIF has been generated from an entry in the Cambridge 
# Structural Database, then it will include bibliographic, chemical, 
# crystal, experimental, refinement or atomic coordinate data resulting 
# from the CCDC's data processing and validation procedures.
#
#######################################################################

data_CEHTEP
_chemical_formula_moiety         '(C12 H12 Ag6 N9 1-)n'
_symmetry_cell_setting           monoclinic
_symmetry_space_group_name_H-M   'P 21/c'
_symmetry_Int_Tables_number      14
_space_group_name_Hall           '-P 2ybc'
loop_
_symmetry_equiv_pos_site_id
_symmetry_equiv_pos_as_xyz
1 x,y,z
2 -x,1/2+y,1/2-z
3 -x,-y,-z
4 x,1/2-y,1/2+z
_cell_length_a                   11.4303(15)
_cell_length_b                   8.8546(8)
_cell_length_c                   15.600(2)
_cell_angle_alpha                90
_cell_angle_beta                 114.810(2)
_cell_angle_gamma                90
_cell_volume                     1433.16
loop_
_atom_site_label
_atom_site_type_symbol
_atom_site_fract_x
_atom_site_fract_y
_atom_site_fract_z
Ag1 Ag 0.29400(3) -0.99256(4) 0.06683(2)
Ag2 Ag 0.20123(3) -0.46195(4) -0.12027(2)
Ag3 Ag 0.0000 0.0000 0.0000
Ag4 Ag 0.5000 -1.5000 0.0000
N1 N 0.2426(3) -0.7843(5) -0.00520(19)
N2 N 0.4075(3) -1.1865(4) 0.05406(19)
N3 N 0.2837(4) -0.4597(4) -0.2911(3)
N4 N 0.0917(3) -0.2870(4) -0.0806(2)
C1 C 0.2144(3) -0.6717(4) -0.0387(2)
C2 C 0.4417(3) -1.2957(5) 0.0355(2)
C3 C 0.2568(4) -0.4583(4) -0.2360(3)
C4 C 0.0593(3) -0.1858(5) -0.0510(2)
Ag1B Ag -0.29400(3) 0.99256(4) -0.06683(2)
Ag1C Ag 0.29400(3) -0.50744(4) -0.43317(2)
Ag1A Ag -0.29400(3) 0.50744(4) 0.43317(2)
Ag2B Ag -0.20123(3) 0.46195(4) 0.12027(2)
Ag4_2 Ag -0.5000 1.5000 0.0000
N1B N -0.2426(3) 0.7843(5) 0.00520(19)
N2B N -0.4075(3) 1.1865(4) -0.05406(19)
N3B N -0.2837(4) 0.4597(4) 0.2911(3)
N3C N 0.2837(4) -1.0403(4) 0.2089(3)
N3A N -0.2837(4) 1.0403(4) -0.2089(3)
N4B N -0.0917(3) 0.2870(4) 0.0806(2)
C1B C -0.2144(3) 0.6717(4) 0.0387(2)
C2B C -0.4417(3) 1.2957(5) -0.0355(2)
C2B_2 C 0.5583(3) -1.7043(5) -0.0355(2)
C3B C -0.2568(4) 0.4583(4) 0.2360(3)
C4B C -0.0593(3) 0.1858(5) 0.0510(2)
N5 N -0.2607(3) 0.5017(3) -0.2374(2)
C5 C -0.3662(7) 0.464(2) -0.2134(4)
H1 H -0.3473 0.4987 -0.1507
H2 H -0.3778 0.3562 -0.2161
H3 H -0.4437 0.5111 -0.2573
C6 C -0.3175(6) 0.4363(9) -0.3345(4)
H4 H -0.3733 0.5092 -0.3780
H5 H -0.3662 0.3475 -0.3352
H6 H -0.2497 0.4099 -0.3527
C7 C -0.1673(7) 0.4355(8) -0.1485(5)
H7 H -0.1478 0.5073 -0.0983
H8 H -0.0897 0.4097 -0.1548
H9 H -0.2035 0.3462 -0.1343
C8 C -0.2565(5) 0.6635(7) -0.2356(4)
H10 H -0.2180 0.6977 -0.1713
H11 H -0.3425 0.7027 -0.2665
H12 H -0.2061 0.6984 -0.2678
loop_
_geom_bond_atom_site_label_1
_geom_bond_atom_site_label_2
_geom_bond_site_symmetry_1
_geom_bond_site_symmetry_2
Ag1 N1 1_555 1_555
Ag2 N4 1_555 1_555
Ag3 C4 1_555 1_555
Ag4 C2 1_555 1_555
N1 C1 1_555 1_555
N2 Ag1 1_555 1_555
N3 C3 1_555 1_555
N4 C4 1_555 1_555
C1 Ag2 1_555 1_555
C2 N2 1_555 1_555
C3 Ag2 1_555 1_555
N5 C5 1_555 1_555
C5 H1 1_555 1_555
H2 C5 1_555 1_555
H3 C5 1_555 1_555
C6 N5 1_555 1_555
H4 C6 1_555 1_555
H5 C6 1_555 1_555
H6 C6 1_555 1_555
C7 N5 1_555 1_555
H7 C7 1_555 1_555
H8 C7 1_555 1_555
H9 C7 1_555 1_555
C8 N5 1_555 1_555
H10 C8 1_555 1_555
H11 C8 1_555 1_555
H12 C8 1_555 1_555
Ag1B N1B 1_555 1_555
Ag1C N3 1_555 1_555
Ag1A N3B 1_555 1_555
Ag2B N4B 1_555 1_555
Ag4_2 C2B 1_555 1_555
N1B C1B 1_555 1_555
N2B Ag1B 1_555 1_555
N3B C3B 1_555 1_555
N3C Ag1 1_555 1_555
N3A Ag1B 1_555 1_555
N4B C4B 1_555 1_555
C1B Ag2B 1_555 1_555
C2B N2B 1_555 1_555
C2B_2 Ag4 1_555 1_555
C3B Ag2B 1_555 1_555
C4B Ag3 1_555 1_555

#END
