
#######################################################################
#
#                 Cambridge Crystallographic Data Centre
#                                CCDC 
#
#######################################################################
#
# If this CIF has been generated from an entry in the Cambridge 
# Structural Database, then it will include bibliographic, chemical, 
# crystal, experimental, refinement or atomic coordinate data resulting 
# from the CCDC's data processing and validation procedures.
#
#######################################################################

data_ETEXEI
_chemical_formula_moiety         '(C5 H11 N2 O12 P4 Zn3 1-)n'
_symmetry_cell_setting           monoclinic
_symmetry_space_group_name_H-M   'C 2/c'
_symmetry_Int_Tables_number      15
_space_group_name_Hall           '-C 2yc'
loop_
_symmetry_equiv_pos_site_id
_symmetry_equiv_pos_as_xyz
1 x,y,z
2 -x,y,1/2-z
3 1/2+x,1/2+y,z
4 1/2-x,1/2+y,1/2-z
5 -x,-y,-z
6 x,-y,1/2+z
7 1/2-x,1/2-y,-z
8 1/2+x,1/2-y,1/2+z
_cell_length_a                   10.4647(4)
_cell_length_b                   15.5722(6)
_cell_length_c                   13.8784(5)
_cell_angle_alpha                90
_cell_angle_beta                 96.8290(10)
_cell_angle_gamma                90
_cell_volume                     2245.56
loop_
_atom_site_label
_atom_site_type_symbol
_atom_site_fract_x
_atom_site_fract_y
_atom_site_fract_z
Zn1 Zn 1.0000 0.266166(19) 0.2500
Zn2 Zn 0.53322(2) 0.414425(14) 0.390119(16)
P1 P 0.42947(5) 0.60693(3) 0.38229(3)
P2 P 0.70809(5) 0.33438(3) 0.22905(4)
O1 O 0.67248(15) 0.38906(11) 0.31244(11)
O2 O 0.85133(14) 0.34008(10) 0.22143(11)
O3 O 0.62769(16) 0.35564(12) 0.13426(11)
O4 O 0.52828(15) 0.53811(10) 0.37297(12)
O5 O 0.37780(15) 0.60644(10) 0.48026(10)
O6 O 0.47924(18) 0.69553(9) 0.36169(11)
H1 H 0.3239 0.5959 0.3140
H2 H 0.6844 0.2558 0.2481
Zn2A Zn 0.46678(2) 0.414425(14) 0.109881(16)
P1A P 0.57053(5) 0.60693(3) 0.11771(3)
P2A P 0.29191(5) 0.33438(3) 0.27095(4)
O1A O 0.32752(15) 0.38906(11) 0.18756(11)
O2A O 0.14867(14) 0.34008(10) 0.27857(11)
O3A O 0.37231(16) 0.35564(12) 0.36574(11)
O4A O 0.47172(15) 0.53811(10) 0.12703(12)
O5A O 0.62220(15) 0.60644(10) 0.01974(10)
O6A O 0.52076(18) 0.69553(9) 0.13831(11)
H1A H 0.6761 0.5959 0.1860
H2A H 0.3156 0.2558 0.2519
Zn1_2 Zn 0.0000 0.266166(19) 0.2500
Zn1B Zn 0.5000 0.766166(19) 0.2500
Zn2D Zn 0.46678(2) 0.585575(14) 0.609881(16)
Zn2E Zn 0.53322(2) 0.585575(14) -0.109881(16)
O2A_2 O 1.14867(14) 0.34008(10) 0.27857(11)
O5D O 0.62220(15) 0.39356(10) 0.51974(10)
O5E O 0.37780(15) 0.39356(10) -0.01974(10)
O6B O 0.97924(18) 0.19553(9) 0.36169(11)
O6C O 1.02076(18) 0.19553(9) 0.13831(11)
N1 N 0.8310(3) 0.4674(2) 0.87513(19)
N2 N 1.1270(2) 0.31807(14) 0.99476(17)
C1 C 0.8058(3) 0.3959(3) 0.9221(3)
H3 H 0.7207 0.3813 0.9273
C2 C 0.9019(3) 0.34391(18) 0.9628(2)
H4 H 0.8831 0.2944 0.9958
C3 C 1.0300(2) 0.36622(14) 0.95405(16)
C4 C 1.0524(3) 0.44174(17) 0.90254(19)
H5 H 1.1359 0.4580 0.8943
C5 C 0.9513(4) 0.4902(2) 0.8652(2)
H6 H 0.9660 0.5404 0.8320
H7 H 0.7631 0.4993 0.8523
H8 H 1.2107 0.3394 0.9992
H9 H 1.1184 0.2738 1.0418
loop_
_geom_bond_atom_site_label_1
_geom_bond_atom_site_label_2
_geom_bond_site_symmetry_1
_geom_bond_site_symmetry_2
Zn1 O2 1_555 1_555
Zn2 O1 1_555 1_555
P1 O4 1_555 1_555
P2 O1 1_555 1_555
O2 P2 1_555 1_555
O3 P2 1_555 1_555
O4 Zn2 1_555 1_555
O5 P1 1_555 1_555
O6 P1 1_555 1_555
H1 P1 1_555 1_555
H2 P2 1_555 1_555
N1 C1 1_555 1_555
N2 C3 1_555 1_555
C1 H3 1_555 1_555
C2 C1 1_555 1_555
H4 C2 1_555 1_555
C3 C2 1_555 1_555
C4 C3 1_555 1_555
H5 C4 1_555 1_555
C5 N1 1_555 1_555
H6 C5 1_555 1_555
H7 N1 1_555 1_555
H8 N2 1_555 1_555
H9 N2 1_555 1_555
Zn2A O3 1_555 1_555
P1A O4A 1_555 1_555
P2A O1A 1_555 1_555
O1A Zn2A 1_555 1_555
O2A P2A 1_555 1_555
O3A Zn2 1_555 1_555
O4A Zn2A 1_555 1_555
O5A P1A 1_555 1_555
O6A P1A 1_555 1_555
H1A P1A 1_555 1_555
H2A P2A 1_555 1_555
Zn1_2 O2A 1_555 1_555
Zn1B O6 1_555 1_555
Zn2D O5 1_555 1_555
Zn2E O5A 1_555 1_555
O2A_2 Zn1 1_555 1_555
O5D Zn2 1_555 1_555
O5E Zn2A 1_555 1_555
O6B Zn1 1_555 1_555
O6C Zn1 1_555 1_555
C4 C5 1_555 1_555
P2A O3A 1_555 1_555
O6A Zn1B 1_555 1_555

#END
