
#######################################################################
#
#                 Cambridge Crystallographic Data Centre
#                                CCDC 
#
#######################################################################
#
# If this CIF has been generated from an entry in the Cambridge 
# Structural Database, then it will include bibliographic, chemical, 
# crystal, experimental, refinement or atomic coordinate data resulting 
# from the CCDC's data processing and validation procedures.
#
#######################################################################

data_POHCOG01
_chemical_formula_moiety         '(C42 H24 Ag6 Fe2 N14)n'
_symmetry_cell_setting           orthorhombic
_symmetry_space_group_name_H-M   'P c c a'
_symmetry_Int_Tables_number      54
_space_group_name_Hall           '-P 2a 2ac'
loop_
_symmetry_equiv_pos_site_id
_symmetry_equiv_pos_as_xyz
1 x,y,z
2 1/2-x,-y,z
3 -x,y,1/2-z
4 1/2+x,-y,1/2-z
5 -x,-y,-z
6 1/2+x,y,-z
7 x,-y,1/2+z
8 1/2-x,y,1/2+z
_cell_length_a                   12.0015(5)
_cell_length_b                   17.0849(8)
_cell_length_c                   31.3706(16)
_cell_angle_alpha                90
_cell_angle_beta                 90
_cell_angle_gamma                90
_cell_volume                     6432.37
loop_
_atom_site_label
_atom_site_type_symbol
_atom_site_fract_x
_atom_site_fract_y
_atom_site_fract_z
Ag1 Ag -0.51240(7) 0.25723(4) 0.43198(3)
Ag2 Ag -1.09517(7) 0.17528(5) 0.45413(3)
Ag3 Ag -1.42995(7) 0.30804(5) 0.53413(3)
Fe1 Fe -0.7500 0.0000 0.42320(6)
Fe2 Fe -0.2500 0.5000 0.42775(6)
N1 N -0.6394(7) 0.0949(5) 0.4247(2)
N2 N -0.3748(7) 0.4132(5) 0.4278(2)
N3 N -0.8836(7) 0.0804(5) 0.4226(2)
N4 N -1.2322(11) 0.2233(6) 0.4867(4)
N5 N -1.6267(7) 0.4145(5) 0.5704(3)
N6 N -0.7500 0.0000 0.3539(3)
N7 N -0.7500 -0.0000 -0.0075(4)
N8 N -0.2500 0.5000 0.3583(4)
N9 N -0.2500 0.5000 -0.0036(4)
C1 C -0.5917(8) 0.1483(6) 0.4283(3)
C2 C -0.4323(9) 0.3619(5) 0.4291(3)
C3 C -0.9581(8) 0.1196(6) 0.4297(3)
C4 C -1.3003(10) 0.2525(6) 0.5049(3)
C5 C -1.5589(10) 0.3725(7) 0.5610(3)
C6 C -0.6613(11) 0.0245(7) 0.3341(4)
H1 H -0.5990 0.0433 0.3497
C7 C -0.6593(10) 0.0226(7) 0.2886(4)
H2 H -0.5929 0.0375 0.2743
C8 C -0.7500 -0.0000 0.2649(4)
C9 C -0.7500 0.0000 0.2176(5)
C10 C -0.6593(8) -0.0252(6) 0.1952(3)
H3 H -0.5954 -0.0432 0.2102
C11 C -0.6588(8) -0.0251(6) 0.1524(3)
H4 H -0.5944 -0.0426 0.1376
C12 C -0.7500 0.0000 0.1296(5)
C13 C -0.7500 0.0000 0.0830(5)
C14 C -0.6558(7) 0.0189(6) 0.0580(3)
H5 H -0.5884 0.0328 0.0719
C15 C -0.6585(8) 0.0178(6) 0.0140(3)
H6 H -0.5926 0.0303 -0.0014
C16 C -0.3415(9) 0.5135(7) 0.3382(3)
H7 H -0.4077 0.5226 0.3540
C17 C -0.3460(8) 0.5152(7) 0.2935(4)
H8 H -0.4141 0.5267 0.2795
C18 C -0.2500 0.5000 0.2699(4)
C19 C -0.2500 0.5000 0.2240(5)
C20 C -0.3363(8) 0.4627(6) 0.2001(3)
H9 H -0.3950 0.4369 0.2147
C21 C -0.3360(8) 0.4634(6) 0.1569(3)
H10 H -0.3950 0.4387 0.1418
C22 C -0.2500 0.5000 0.1341(5)
C23 C -0.2500 0.5000 0.0865(4)
C24 C -0.3440(12) 0.4972(9) 0.0622(4)
H11 H -0.4143 0.4956 0.0761
C25 C -0.3414(14) 0.4964(9) 0.0175(5)
H12 H -0.4097 0.4932 0.0022
C6A C -0.8387(11) -0.0245(7) 0.3341(4)
H1A H -0.9010 -0.0433 0.3497
C7A C -0.8407(10) -0.0226(7) 0.2886(4)
H2A H -0.9071 -0.0375 0.2743
C10A C -0.8407(8) 0.0252(6) 0.1952(3)
H3A H -0.9046 0.0432 0.2102
C11A C -0.8412(8) 0.0251(6) 0.1524(3)
H4A H -0.9056 0.0426 0.1376
C14A C -0.8442(7) -0.0189(6) 0.0580(3)
H5A H -0.9116 -0.0328 0.0719
C15A C -0.8415(8) -0.0178(6) 0.0140(3)
H6A H -0.9074 -0.0303 -0.0014
C16A C -0.1585(9) 0.4865(7) 0.3382(3)
H7A H -0.0923 0.4774 0.3540
C17A C -0.1540(8) 0.4848(7) 0.2935(4)
H8A H -0.0859 0.4733 0.2795
C20A C -0.1637(8) 0.5373(6) 0.2001(3)
H9A H -0.1050 0.5631 0.2147
C21A C -0.1640(8) 0.5366(6) 0.1569(3)
H10A H -0.1050 0.5613 0.1418
C24A C -0.1560(12) 0.5028(9) 0.0622(4)
H11A H -0.0857 0.5044 0.0761
C25A C -0.1586(14) 0.5036(9) 0.0175(5)
H12A H -0.0903 0.5068 0.0022
Ag1A Ag -0.98760(7) -0.25723(4) 0.43198(3)
Ag2A Ag -0.40483(7) -0.17528(5) 0.45413(3)
Ag3A Ag -0.07005(7) -0.30804(5) 0.53413(3)
N1A N -0.8606(7) -0.0949(5) 0.4247(2)
N2A N -1.1252(7) -0.4132(5) 0.4278(2)
N3A N -0.6164(7) -0.0804(5) 0.4226(2)
N4A N -0.2678(11) -0.2233(6) 0.4867(4)
N5A N 0.1267(7) -0.4145(5) 0.5704(3)
C1A C -0.9083(8) -0.1483(6) 0.4283(3)
C2A C -1.0677(9) -0.3619(5) 0.4291(3)
C3A C -0.5419(8) -0.1196(6) 0.4297(3)
C4A C -0.1997(10) -0.2525(6) 0.5049(3)
C5A C 0.0589(10) -0.3725(7) 0.5610(3)
Ag2D Ag 0.09517(7) -0.17528(5) 0.54587(3)
Ag2E Ag -1.59517(7) 0.17528(5) 0.54587(3)
Ag3D Ag -0.57005(7) -0.30804(5) 0.46587(3)
Ag3E Ag -0.92995(7) 0.30804(5) 0.46587(3)
Fe1F Fe -0.7500 0.0000 -0.07680(6)
Fe2_2 Fe -1.2500 -0.5000 0.42775(6)
Fe2D Fe -1.7500 0.5000 0.57225(6)
Fe2D_2 Fe 0.2500 -0.5000 0.57225(6)
Fe2F Fe -0.2500 0.5000 -0.07225(6)
N2A_2 N -0.1252(7) 0.5868(5) 0.4278(2)
N5D N -0.3733(7) 0.5855(5) 0.4296(3)
N5E N -0.1267(7) 0.4145(5) 0.4296(3)
N7F N -0.7500 0.0000 0.4925(4)
N9F N -0.2500 0.5000 0.4964(4)
loop_
_geom_bond_atom_site_label_1
_geom_bond_atom_site_label_2
_geom_bond_site_symmetry_1
_geom_bond_site_symmetry_2
Ag1 C1 1_555 1_555
Ag2 N4 1_555 1_555
Ag3 C4 1_555 1_555
Fe1 N1 1_555 1_555
Fe2 N2 1_555 1_555
N1 C1 1_555 1_555
N2 C2 1_555 1_555
N3 Fe1 1_555 1_555
N4 C4 1_555 1_555
N5 C5 1_555 1_555
N6 Fe1 1_555 1_555
N7 C15 1_555 1_555
N8 Fe2 1_555 1_555
N9 C25 1_555 1_555
C2 Ag1 1_555 1_555
C3 Ag2 1_555 1_555
C5 Ag3 1_555 1_555
C6 N6 1_555 1_555
H1 C6 1_555 1_555
C7 C6 1_555 1_555
H2 C7 1_555 1_555
C8 C7 1_555 1_555
C9 C8 1_555 1_555
C10 C9 1_555 1_555
H3 C10 1_555 1_555
C11 C10 1_555 1_555
H4 C11 1_555 1_555
C12 C11 1_555 1_555
C13 C12 1_555 1_555
C14 C13 1_555 1_555
H5 C14 1_555 1_555
C15 C14 1_555 1_555
H6 C15 1_555 1_555
C16 N8 1_555 1_555
H7 C16 1_555 1_555
C17 C16 1_555 1_555
H8 C17 1_555 1_555
C18 C17 1_555 1_555
C19 C18 1_555 1_555
C20 C19 1_555 1_555
H9 C20 1_555 1_555
C21 C20 1_555 1_555
H10 C21 1_555 1_555
C22 C21 1_555 1_555
C23 C22 1_555 1_555
C24 C23 1_555 1_555
H11 C24 1_555 1_555
C25 C24 1_555 1_555
H12 C25 1_555 1_555
C6A N6 1_555 1_555
H1A C6A 1_555 1_555
C7A C8 1_555 1_555
H2A C7A 1_555 1_555
C10A C9 1_555 1_555
H3A C10A 1_555 1_555
C11A C12 1_555 1_555
H4A C11A 1_555 1_555
C14A C13 1_555 1_555
H5A C14A 1_555 1_555
C15A N7 1_555 1_555
H6A C15A 1_555 1_555
C16A N8 1_555 1_555
H7A C16A 1_555 1_555
C17A C18 1_555 1_555
H8A C17A 1_555 1_555
C20A C19 1_555 1_555
H9A C20A 1_555 1_555
C21A C22 1_555 1_555
H10A C21A 1_555 1_555
C24A C23 1_555 1_555
H11A C24A 1_555 1_555
C25A N9 1_555 1_555
H12A C25A 1_555 1_555
Ag1A C1A 1_555 1_555
Ag2A N4A 1_555 1_555
Ag3A C4A 1_555 1_555
N1A Fe1 1_555 1_555
N2A C2A 1_555 1_555
N3A Fe1 1_555 1_555
N4A C4A 1_555 1_555
N5A C5A 1_555 1_555
C1A N1A 1_555 1_555
C2A Ag1A 1_555 1_555
C3A Ag2A 1_555 1_555
C5A Ag3A 1_555 1_555
Ag2D Ag3A 1_555 1_555
Ag2E Ag3 1_555 1_555
Ag3D Ag2A 1_555 1_555
Ag3E Ag2 1_555 1_555
Fe1F N7 1_555 1_555
Fe2_2 N2A 1_555 1_555
Fe2D N5 1_555 1_555
Fe2D_2 N5A 1_555 1_555
Fe2F N9 1_555 1_555
N2A_2 Fe2 1_555 1_555
N5D Fe2 1_555 1_555
N5E Fe2 1_555 1_555
N7F Fe1 1_555 1_555
N9F Fe2 1_555 1_555
N3 C3 1_555 1_555
C6A C7A 1_555 1_555
C10A C11A 1_555 1_555
C14A C15A 1_555 1_555
C16A C17A 1_555 1_555
C20A C21A 1_555 1_555
C24A C25A 1_555 1_555
N3A C3A 1_555 1_555

#END
