
#######################################################################
#
#                 Cambridge Crystallographic Data Centre
#                                CCDC 
#
#######################################################################
#
# If this CIF has been generated from an entry in the Cambridge 
# Structural Database, then it will include bibliographic, chemical, 
# crystal, experimental, refinement or atomic coordinate data resulting 
# from the CCDC's data processing and validation procedures.
#
#######################################################################

data_POHCOG
_chemical_formula_moiety         '(C47 H37 Ag6 Fe2 N15 O2)n'
_symmetry_cell_setting           orthorhombic
_symmetry_space_group_name_H-M   'P c c a'
_symmetry_Int_Tables_number      54
_space_group_name_Hall           '-P 2a 2ac'
loop_
_symmetry_equiv_pos_site_id
_symmetry_equiv_pos_as_xyz
1 x,y,z
2 1/2-x,-y,z
3 -x,y,1/2-z
4 1/2+x,-y,1/2-z
5 -x,-y,-z
6 1/2+x,y,-z
7 x,-y,1/2+z
8 1/2-x,y,1/2+z
_cell_length_a                   12.0144(4)
_cell_length_b                   16.9892(6)
_cell_length_c                   31.2716(13)
_cell_angle_alpha                90
_cell_angle_beta                 90
_cell_angle_gamma                90
_cell_volume                     6383
loop_
_atom_site_label
_atom_site_type_symbol
_atom_site_fract_x
_atom_site_fract_y
_atom_site_fract_z
Ag1 Ag -0.51210(10) 0.25694(8) 0.43223(5)
Ag2 Ag -1.09370(11) 0.17597(8) 0.45366(5)
Ag3 Ag -1.42889(12) 0.30894(8) 0.53443(5)
Fe1 Fe -0.7500 0.0000 0.42348(10)
Fe2 Fe -0.2500 0.5000 0.42820(11)
N1 N -0.6438(11) 0.0945(9) 0.4252(4)
N2 N -0.3688(11) 0.4131(8) 0.4286(4)
N3 N -0.8790(12) 0.0782(8) 0.4228(4)
N4 N -1.2304(18) 0.2244(11) 0.4868(6)
N5 N -1.6293(13) 0.4158(9) 0.5699(5)
N6 N -0.7500 0.0000 0.3556(6)
N7 N -0.7500 0.0000 -0.0092(6)
N8 N -0.2500 0.5000 0.3605(6)
N9 N -0.2500 0.5000 -0.0040(6)
C1 C -0.5939(11) 0.1489(10) 0.4279(5)
C2 C -0.4285(13) 0.3613(9) 0.4298(5)
C3 C -0.9540(15) 0.1189(10) 0.4299(5)
C4 C -1.2995(17) 0.2511(12) 0.5062(7)
C5 C -1.5575(18) 0.3722(15) 0.5604(7)
C6 C -0.6605(16) 0.0228(12) 0.3344(6)
H1 H -0.5965 0.0395 0.3497
C7 C -0.6586(15) 0.0228(11) 0.2896(6)
H2 H -0.5927 0.0388 0.2753
C8 C -0.7500 0.0000 0.2656(7)
C9 C -0.7500 0.0000 0.2179(8)
C10 C -0.6588(13) -0.0280(10) 0.1953(5)
H3 H -0.5966 -0.0482 0.2105
C11 C -0.6569(13) -0.0272(11) 0.1519(6)
H4 H -0.5926 -0.0449 0.1371
C12 C -0.7500 0.0000 0.1288(7)
C13 C -0.7500 0.0000 0.0821(7)
C14 C -0.6542(13) 0.0176(10) 0.0579(5)
H5 H -0.5866 0.0302 0.0721
C15 C -0.6580(14) 0.0165(10) 0.0134(5)
H6 H -0.5915 0.0281 -0.0018
C16 C -0.3430(14) 0.5138(10) 0.3385(6)
H7 H -0.4098 0.5238 0.3538
C17 C -0.3462(13) 0.5143(11) 0.2947(6)
H8 H -0.4145 0.5244 0.2804
C18 C -0.2500 0.5000 0.2708(8)
C19 C -0.2500 0.5000 0.2245(8)
C20 C -0.3336(13) 0.4622(9) 0.2013(6)
H9 H -0.3910 0.4352 0.2162
C21 C -0.3348(13) 0.4633(10) 0.1566(6)
H10 H -0.3940 0.4389 0.1415
C22 C -0.2500 0.5000 0.1343(8)
C23 C -0.2500 0.5000 0.0865(8)
C24 C -0.342(2) 0.4950(15) 0.0632(7)
H11 H -0.4115 0.4919 0.0775
C25 C -0.341(2) 0.4940(16) 0.0174(8)
H12 H -0.4091 0.4887 0.0025
C6A C -0.8395(16) -0.0228(12) 0.3344(6)
H1A H -0.9035 -0.0395 0.3497
C7A C -0.8414(15) -0.0228(11) 0.2896(6)
H2A H -0.9073 -0.0388 0.2753
C10A C -0.8412(13) 0.0280(10) 0.1953(5)
H3A H -0.9034 0.0482 0.2105
C11A C -0.8431(13) 0.0272(11) 0.1519(6)
H4A H -0.9074 0.0449 0.1371
C14A C -0.8458(13) -0.0176(10) 0.0579(5)
H5A H -0.9134 -0.0302 0.0721
C15A C -0.8420(14) -0.0165(10) 0.0134(5)
H6A H -0.9085 -0.0281 -0.0018
C16A C -0.1570(14) 0.4862(10) 0.3385(6)
H7A H -0.0902 0.4762 0.3538
C17A C -0.1538(13) 0.4857(11) 0.2947(6)
H8A H -0.0855 0.4756 0.2804
C20A C -0.1664(13) 0.5378(9) 0.2013(6)
H9A H -0.1090 0.5648 0.2162
C21A C -0.1652(13) 0.5367(10) 0.1566(6)
H10A H -0.1060 0.5611 0.1415
C24A C -0.158(2) 0.5050(15) 0.0632(7)
H11A H -0.0885 0.5081 0.0775
C25A C -0.159(2) 0.5060(16) 0.0174(8)
H12A H -0.0909 0.5113 0.0025
Ag1A Ag -0.98790(10) -0.25694(8) 0.43223(5)
Ag2A Ag -0.40630(11) -0.17597(8) 0.45366(5)
Ag3A Ag -0.07111(12) -0.30894(8) 0.53443(5)
N1A N -0.8562(11) -0.0945(9) 0.4252(4)
N2A N -1.1312(11) -0.4131(8) 0.4286(4)
N3A N -0.6210(12) -0.0782(8) 0.4228(4)
N4A N -0.2696(18) -0.2244(11) 0.4868(6)
N5A N 0.1293(13) -0.4158(9) 0.5699(5)
C1A C -0.9061(11) -0.1489(10) 0.4279(5)
C2A C -1.0715(13) -0.3613(9) 0.4298(5)
C3A C -0.5460(15) -0.1189(10) 0.4299(5)
C4A C -0.2005(17) -0.2511(12) 0.5062(7)
C5A C 0.0575(18) -0.3722(15) 0.5604(7)
Ag2D Ag 0.09370(11) -0.17597(8) 0.54634(5)
Ag2E Ag -1.59370(11) 0.17597(8) 0.54634(5)
Ag3D Ag -0.57111(12) -0.30894(8) 0.46557(5)
Ag3E Ag -0.92889(12) 0.30894(8) 0.46557(5)
Fe1F Fe -0.7500 0.0000 -0.07652(10)
Fe2_2 Fe -1.2500 -0.5000 0.42820(11)
Fe2D Fe -1.7500 0.5000 0.57180(11)
Fe2D_2 Fe 0.2500 -0.5000 0.57180(11)
Fe2F Fe -0.2500 0.5000 -0.07180(11)
N2A_2 N -0.1312(11) 0.5869(8) 0.4286(4)
N5D N -0.3707(13) 0.5842(9) 0.4301(5)
N5E N -0.1293(13) 0.4158(9) 0.4301(5)
N7F N -0.7500 0.0000 0.4908(6)
N9F N -0.2500 0.5000 0.4960(6)
N10 N -0.655(4) 0.744(3) 0.3204(14)
C26 C -0.730(4) 0.742(3) 0.3603(15)
C27 C -0.607(5) 0.813(4) 0.311(2)
C28 C -0.592(4) 0.675(3) 0.3169(17)
O2 O -0.540(5) 0.828(4) 0.281(2)
C29 C -0.3426(19) 0.2419(12) 0.3228(7)
O3 O -0.453(5) 0.329(4) 0.285(2)
C30 C -0.375(5) 0.310(3) 0.3145(18)
loop_
_geom_bond_atom_site_label_1
_geom_bond_atom_site_label_2
_geom_bond_site_symmetry_1
_geom_bond_site_symmetry_2
Ag1 C1 1_555 1_555
Ag2 N4 1_555 1_555
Ag3 C4 1_555 1_555
Fe1 N1 1_555 1_555
Fe2 N2 1_555 1_555
N1 C1 1_555 1_555
N2 C2 1_555 1_555
N3 Fe1 1_555 1_555
N4 C4 1_555 1_555
N5 C5 1_555 1_555
N6 Fe1 1_555 1_555
N7 C15 1_555 1_555
N8 Fe2 1_555 1_555
N9 C25 1_555 1_555
C2 Ag1 1_555 1_555
C3 Ag2 1_555 1_555
C5 Ag3 1_555 1_555
C6 N6 1_555 1_555
H1 C6 1_555 1_555
C7 C6 1_555 1_555
H2 C7 1_555 1_555
C8 C7 1_555 1_555
C9 C8 1_555 1_555
C10 C9 1_555 1_555
H3 C10 1_555 1_555
C11 C10 1_555 1_555
H4 C11 1_555 1_555
C12 C11 1_555 1_555
C13 C12 1_555 1_555
C14 C13 1_555 1_555
H5 C14 1_555 1_555
C15 C14 1_555 1_555
H6 C15 1_555 1_555
C16 N8 1_555 1_555
H7 C16 1_555 1_555
C17 C16 1_555 1_555
H8 C17 1_555 1_555
C18 C17 1_555 1_555
C19 C18 1_555 1_555
C20 C19 1_555 1_555
H9 C20 1_555 1_555
C21 C20 1_555 1_555
H10 C21 1_555 1_555
C22 C21 1_555 1_555
C23 C22 1_555 1_555
C24 C23 1_555 1_555
H11 C24 1_555 1_555
C25 C24 1_555 1_555
H12 C25 1_555 1_555
N10 C26 1_555 1_555
C27 N10 1_555 1_555
C28 N10 1_555 1_555
O2 C27 1_555 1_555
C29 C30 1_555 1_555
O3 C30 1_555 1_555
C6A N6 1_555 1_555
H1A C6A 1_555 1_555
C7A C8 1_555 1_555
H2A C7A 1_555 1_555
C10A C9 1_555 1_555
H3A C10A 1_555 1_555
C11A C12 1_555 1_555
H4A C11A 1_555 1_555
C14A C13 1_555 1_555
H5A C14A 1_555 1_555
C15A N7 1_555 1_555
H6A C15A 1_555 1_555
C16A N8 1_555 1_555
H7A C16A 1_555 1_555
C17A C18 1_555 1_555
H8A C17A 1_555 1_555
C20A C19 1_555 1_555
H9A C20A 1_555 1_555
C21A C22 1_555 1_555
H10A C21A 1_555 1_555
C24A C23 1_555 1_555
H11A C24A 1_555 1_555
C25A N9 1_555 1_555
H12A C25A 1_555 1_555
Ag1A C1A 1_555 1_555
Ag2A N4A 1_555 1_555
Ag3A C4A 1_555 1_555
N1A Fe1 1_555 1_555
N2A C2A 1_555 1_555
N3A Fe1 1_555 1_555
N4A C4A 1_555 1_555
N5A C5A 1_555 1_555
C1A N1A 1_555 1_555
C2A Ag1A 1_555 1_555
C3A Ag2A 1_555 1_555
C5A Ag3A 1_555 1_555
Ag2D Ag3A 1_555 1_555
Ag2E Ag3 1_555 1_555
Ag3D Ag2A 1_555 1_555
Ag3E Ag2 1_555 1_555
Fe1F N7 1_555 1_555
Fe2_2 N2A 1_555 1_555
Fe2D N5 1_555 1_555
Fe2D_2 N5A 1_555 1_555
Fe2F N9 1_555 1_555
N2A_2 Fe2 1_555 1_555
N5D Fe2 1_555 1_555
N5E Fe2 1_555 1_555
N7F Fe1 1_555 1_555
N9F Fe2 1_555 1_555
N3 C3 1_555 1_555
C6A C7A 1_555 1_555
C10A C11A 1_555 1_555
C14A C15A 1_555 1_555
C16A C17A 1_555 1_555
C20A C21A 1_555 1_555
C24A C25A 1_555 1_555
N3A C3A 1_555 1_555

#END
