
#######################################################################
#
#                 Cambridge Crystallographic Data Centre
#                                CCDC 
#
#######################################################################
#
# If this CIF has been generated from an entry in the Cambridge 
# Structural Database, then it will include bibliographic, chemical, 
# crystal, experimental, refinement or atomic coordinate data resulting 
# from the CCDC's data processing and validation procedures.
#
#######################################################################

data_HIBGEF
_chemical_formula_moiety         '(C16 H16 Mg6 O24)n'
_symmetry_cell_setting           monoclinic
_symmetry_space_group_name_H-M   'P 21/n'
_symmetry_Int_Tables_number      14
_space_group_name_Hall           '-P 2yn'
loop_
_symmetry_equiv_pos_site_id
_symmetry_equiv_pos_as_xyz
1 x,y,z
2 1/2-x,1/2+y,1/2-z
3 -x,-y,-z
4 1/2+x,1/2-y,1/2+z
_cell_length_a                   11.315(1)
_cell_length_b                   9.853(1)
_cell_length_c                   14.400(1)
_cell_angle_alpha                90
_cell_angle_beta                 91.320(1)
_cell_angle_gamma                90
_cell_volume                     1604.98
loop_
_atom_site_label
_atom_site_type_symbol
_atom_site_fract_x
_atom_site_fract_y
_atom_site_fract_z
Mg1 Mg 0.25549(3) 0.08193(4) 0.13492(3)
Mg2 Mg 0.0000 0.0000 0.0000
Mg3 Mg 0.23876(4) -0.10788(4) 0.31155(3)
Mg4 Mg 0.5000 0.0000 0.0000
O1 O 0.13000(7) -0.00219(9) 0.22175(6)
O2 O 0.15626(7) 0.25908(9) 0.11049(6)
O3 O 0.30932(8) 0.20376(9) 0.24670(6)
O4 O 0.39797(7) 0.15422(9) 0.06075(6)
O5 O 0.34932(8) -0.07818(9) 0.19776(6)
O6 O 0.18302(7) -0.02458(9) 0.02529(6)
O7 O -0.03898(8) 0.00025(11) 0.13893(7)
O8 O 0.01738(8) 0.20706(10) 0.00300(7)
O9 O 0.38707(8) 0.37716(10) 0.09136(7)
O10 O 0.52083(8) -0.09985(10) 0.12456(7)
O11 O 0.35099(8) -0.10802(10) -0.03068(7)
O12 O 0.31197(8) 0.06251(10) 0.36884(6)
C1 C 0.01792(10) -0.01314(13) 0.21256(9)
H1 H -0.0252 -0.0332 0.2667
C2 C 0.07476(11) 0.28917(13) 0.05072(9)
H2 H 0.0569 0.3826 0.0424
C3 C 0.33069(10) 0.17449(13) 0.33174(8)
H3 H 0.3637 0.2440 0.3700
C4 C 0.42935(11) 0.27795(13) 0.05086(9)
H4 H 0.4907 0.2955 0.0086
C5 C 0.45325(11) -0.12575(14) 0.18846(9)
H5 H 0.4814 -0.1868 0.2350
C6 C 0.24200(11) -0.10168(13) -0.02857(9)
H6 H 0.1983 -0.1585 -0.0702
Mg1B Mg -0.25549(3) -0.08193(4) -0.13492(3)
Mg1A Mg 0.24451(3) -0.41807(4) 0.36508(3)
Mg1B_2 Mg 0.74451(3) -0.08193(4) -0.13492(3)
Mg3B Mg -0.23876(4) 0.10788(4) -0.31155(3)
Mg3A Mg 0.26124(4) 0.39212(4) 0.18845(3)
Mg3C Mg -0.26124(4) -0.39212(4) -0.18845(3)
Mg3A_2 Mg 0.26124(4) -0.60788(4) 0.18845(3)
Mg3B_2 Mg 0.76124(4) 0.10788(4) -0.31155(3)
Mg4_2 Mg -0.5000 0.0000 0.0000
Mg4C Mg -0.0000 -0.5000 0.5000
O1B O -0.13000(7) 0.00219(9) -0.22175(6)
O2B O -0.15626(7) -0.25908(9) -0.11049(6)
O2A O 0.34374(7) -0.24092(9) 0.38951(6)
O2C O -0.34374(7) 0.24092(9) -0.38951(6)
O3A O 0.19068(8) -0.29624(9) 0.25330(6)
O3B O -0.30932(8) -0.20376(9) -0.24670(6)
O3C O -0.19068(8) 0.29624(9) -0.25330(6)
O4A O 0.10203(7) -0.34578(9) 0.43925(6)
O4B O 0.60203(7) -0.15422(9) -0.06075(6)
O4B_2 O -0.39797(7) -0.15422(9) -0.06075(6)
O5B O 0.65068(8) 0.07818(9) -0.19776(6)
O5B_2 O -0.34932(8) 0.07818(9) -0.19776(6)
O6B O -0.18302(7) 0.02458(9) -0.02529(6)
O7B O 0.03898(8) -0.00025(11) -0.13893(7)
O8B O -0.01738(8) -0.20706(10) -0.00300(7)
O9A O 0.11293(8) -0.12284(10) 0.40864(7)
O9C O -0.11293(8) 0.12284(10) -0.40864(7)
O10B O 0.47917(8) 0.09985(10) -0.12456(7)
O11B O -0.35099(8) 0.10802(10) 0.03068(7)
O11B_2 O 0.64901(8) 0.10802(10) 0.03068(7)
O12A O 0.18803(8) -0.43749(10) 0.13116(6)
O12B O -0.31197(8) -0.06251(10) -0.36884(6)
C1B C -0.01792(10) 0.01314(13) -0.21256(9)
H1B H 0.0252 0.0332 -0.2667
C2B C -0.07476(11) -0.28917(13) -0.05072(9)
H2B H -0.0569 -0.3826 -0.0424
C3A C 0.16931(10) -0.32551(13) 0.16826(8)
H3A H 0.1363 -0.2560 0.1300
C4A C 0.07065(11) -0.22205(13) 0.44914(9)
H4A H 0.0093 -0.2045 0.4914
C5B C 0.54675(11) 0.12575(14) -0.18846(9)
H5B H 0.5186 0.1868 -0.2350
C6B C -0.24200(11) 0.10168(13) 0.02857(9)
H6B H -0.1983 0.1585 0.0702
C7 C -0.2637(4) -0.0415(5) 0.3931(3)
H7 H -0.2506 -0.0406 0.4585
C8 C -0.2798(5) -0.0426(6) 0.3128(4)
H8 H -0.2929 -0.0434 0.2474
C9 C -0.2238(11) -0.2291(12) 0.2014(8)
H9 H -0.2722 -0.1786 0.1591
C10 C -0.1654(12) -0.2902(14) 0.2525(9)
H10 H -0.1170 -0.3407 0.2948
loop_
_geom_bond_atom_site_label_1
_geom_bond_atom_site_label_2
_geom_bond_site_symmetry_1
_geom_bond_site_symmetry_2
Mg1 O1 1_555 1_555
Mg2 O6 1_555 1_555
Mg3 O1 1_555 1_555
Mg4 O4 1_555 1_555
O1 C1 1_555 1_555
O2 Mg1 1_555 1_555
O3 Mg1 1_555 1_555
O4 Mg1 1_555 1_555
O5 Mg1 1_555 1_555
O6 Mg1 1_555 1_555
O7 Mg2 1_555 1_555
O8 Mg2 1_555 1_555
O9 C4 1_555 1_555
O10 Mg4 1_555 1_555
O11 Mg4 1_555 1_555
O12 Mg3 1_555 1_555
C1 O7 1_555 1_555
H1 C1 1_555 1_555
C2 O2 1_555 1_555
H2 C2 1_555 1_555
C3 O3 1_555 1_555
H3 C3 1_555 1_555
C4 O4 1_555 1_555
H4 C4 1_555 1_555
C5 O5 1_555 1_555
H5 C5 1_555 1_555
C6 O6 1_555 1_555
H6 C6 1_555 1_555
C7 H7 1_555 1_555
C8 C7 1_555 1_555
H8 C8 1_555 1_555
C9 H9 1_555 1_555
C10 C9 1_555 1_555
H10 C10 1_555 1_555
Mg1B O1B 1_555 1_555
Mg1A O2A 1_555 1_555
Mg1B_2 O4B 1_555 1_555
Mg3B O1B 1_555 1_555
Mg3A O2 1_555 1_555
Mg3C O2B 1_555 1_555
Mg3A_2 O12A 1_555 1_555
Mg3B_2 O5B 1_555 1_555
Mg4_2 O4B_2 1_555 1_555
Mg4C O4A 1_555 1_555
O1B C1B 1_555 1_555
O2B Mg1B 1_555 1_555
O2A Mg3 1_555 1_555
O2C Mg3B 1_555 1_555
O3A Mg3 1_555 1_555
O3B Mg1B 1_555 1_555
O3C Mg3B 1_555 1_555
O4A Mg1A 1_555 1_555
O4B Mg4 1_555 1_555
O4B_2 Mg1B 1_555 1_555
O5B Mg1B_2 1_555 1_555
O5B_2 Mg1B 1_555 1_555
O6B Mg2 1_555 1_555
O7B Mg2 1_555 1_555
O8B Mg2 1_555 1_555
O9A Mg3 1_555 1_555
O9C Mg3B 1_555 1_555
O10B Mg4 1_555 1_555
O11B Mg4_2 1_555 1_555
O11B_2 Mg4 1_555 1_555
O12A C3A 1_555 1_555
O12B Mg3B 1_555 1_555
C1B O7B 1_555 1_555
H1B C1B 1_555 1_555
C2B O2B 1_555 1_555
H2B C2B 1_555 1_555
C3A O3A 1_555 1_555
H3A C3A 1_555 1_555
C4A O4A 1_555 1_555
H4A C4A 1_555 1_555
C5B O5B 1_555 1_555
H5B C5B 1_555 1_555
C6B O6B 1_555 1_555
H6B C6B 1_555 1_555
Mg3 O5 1_555 1_555
O3 Mg3A 1_555 1_555
O8 C2 1_555 1_555
O9 Mg3A 1_555 1_555
O10 C5 1_555 1_555
O11 C6 1_555 1_555
O12 C3 1_555 1_555
Mg1B O6B 1_555 1_555
Mg1A O3A 1_555 1_555
Mg3B O5B_2 1_555 1_555
Mg3C O3B 1_555 1_555
O8B C2B 1_555 1_555
O9A C4A 1_555 1_555
O10B C5B 1_555 1_555
O11B C6B 1_555 1_555

#END
