
#######################################################################
#
#                 Cambridge Crystallographic Data Centre
#                                CCDC 
#
#######################################################################
#
# If this CIF has been generated from an entry in the Cambridge 
# Structural Database, then it will include bibliographic, chemical, 
# crystal, experimental, refinement or atomic coordinate data resulting 
# from the CCDC's data processing and validation procedures.
#
#######################################################################

data_IXUWOO
_chemical_formula_moiety         '(C66 H54 Co2 N10 O14)n'
_symmetry_cell_setting           monoclinic
_symmetry_space_group_name_H-M   'C 2/c'
_symmetry_Int_Tables_number      15
_space_group_name_Hall           '-C 2yc'
loop_
_symmetry_equiv_pos_site_id
_symmetry_equiv_pos_as_xyz
1 x,y,z
2 -x,y,1/2-z
3 1/2+x,1/2+y,z
4 1/2-x,1/2+y,1/2-z
5 -x,-y,-z
6 x,-y,1/2+z
7 1/2-x,1/2-y,-z
8 1/2+x,1/2-y,1/2+z
_cell_length_a                   22.162(2)
_cell_length_b                   20.532(2)
_cell_length_c                   16.1364(15)
_cell_angle_alpha                90
_cell_angle_beta                 95.937(2)
_cell_angle_gamma                90
_cell_volume                     7303.17
loop_
_atom_site_label
_atom_site_type_symbol
_atom_site_fract_x
_atom_site_fract_y
_atom_site_fract_z
_atom_site_U_iso_or_equiv
_atom_site_thermal_displace_type
Co1 Co 0.21323(4) 1.01443(4) 0.75473(5) 0.0504 Uani
N1 N 0.1893(2) 0.9232(3) 0.7039(3) 0.0578 Uani
N2 N 0.1677(3) 0.7381(3) 0.5990(4) 0.0778 Uani
H1 H 0.1988 0.7257 0.5755 0.0930 Uiso
N3 N -0.1948(2) 0.5088(3) 0.2867(3) 0.0543 Uani
N4 N -0.0200(3) 0.5581(3) 0.3901(4) 0.0756 Uani
H2 H -0.0162 0.5984 0.4046 0.0900 Uiso
O1 O 0.1186(2) 1.0321(3) 0.7820(3) 0.0722 Uani
O2 O 0.1885(2) 0.9951(3) 0.8738(3) 0.0737 Uani
O3 O 0.2314(2) 1.1181(2) 0.7474(3) 0.0660 Uani
O4 O 0.2239(2) 1.0569(2) 0.6377(3) 0.0684 Uani
O5 O 0.0758(3) 0.7034(4) 0.6326(5) 0.1357 Uani
O6 O 0.0315(2) 0.4648(3) 0.3826(4) 0.0954 Uani
C1 C 0.1342(3) 1.0125(4) 0.8538(4) 0.0633 Uani
C2 C 0.0743(3) 0.9889(4) 1.0625(5) 0.0781 Uani
H3 H 0.0893 0.9820 1.1178 0.0940 Uiso
C3 C 0.1131(3) 0.9940(4) 1.0029(5) 0.0749 Uani
H4 H 0.1546 0.9892 1.0172 0.0900 Uiso
C4 C 0.0904(3) 1.0068(4) 0.9187(4) 0.0658 Uani
C5 C 0.0307(3) 1.0132(4) 0.8965(5) 0.0744 Uani
H5 H 0.0166 1.0221 0.8414 0.0890 Uiso
C6 C -0.0123(3) 1.0060(4) 0.9593(4) 0.0655 Uani
C7 C 0.2312(3) 1.1119(3) 0.6694(4) 0.0576 Uani
C8 C 0.2665(3) 1.2822(3) 0.6072(4) 0.0684 Uani
H6 H 0.2783 1.3212 0.6333 0.0820 Uiso
C9 C 0.2577(3) 1.2294(3) 0.6546(4) 0.0650 Uani
H7 H 0.2629 1.2326 0.7124 0.0780 Uiso
C10 C 0.2408(3) 1.1698(3) 0.6163(4) 0.0554 Uani
C11 C 0.2336(3) 1.1652(3) 0.5322(4) 0.0583 Uani
H8 H 0.2231 1.1253 0.5073 0.0700 Uiso
C12 C 0.2419(3) 1.2202(3) 0.4814(4) 0.0562 Uani
C13 C 0.1219(4) 0.6945(4) 0.5966(5) 0.0830 Uani
C14 C 0.0298(3) 0.5211(4) 0.4067(5) 0.0671 Uani
C15 C 0.1311(3) 0.6330(4) 0.5479(5) 0.0703 Uani
C16 C 0.0795(3) 0.6066(4) 0.5029(5) 0.0761 Uani
H9 H 0.0421 0.6267 0.5051 0.0910 Uiso
C17 C 0.0832(3) 0.5519(4) 0.4562(4) 0.0625 Uani
C18 C 0.1375(3) 0.5203(4) 0.4572(4) 0.0649 Uani
H10 H 0.1403 0.4821 0.4268 0.0780 Uiso
C19 C 0.1890(3) 0.5458(4) 0.5044(5) 0.0732 Uani
H11 H 0.2258 0.5238 0.5067 0.0880 Uiso
C20 C 0.1850(3) 0.6035(4) 0.5472(5) 0.0710 Uani
H12 H 0.2195 0.6218 0.5755 0.0850 Uiso
C21 C 0.1440(3) 0.8859(4) 0.7198(5) 0.0695 Uani
H13 H 0.1171 0.9019 0.7554 0.0830 Uiso
C22 C 0.1339(3) 0.8245(4) 0.6871(5) 0.0761 Uani
H14 H 0.1013 0.7999 0.7014 0.0910 Uiso
C23 C 0.1721(3) 0.7998(4) 0.6334(4) 0.0627 Uani
C24 C 0.2169(4) 0.8401(4) 0.6142(5) 0.0776 Uani
H15 H 0.2430 0.8265 0.5760 0.0930 Uiso
C25 C 0.2244(3) 0.8996(4) 0.6493(4) 0.0745 Uani
H16 H 0.2559 0.9256 0.6343 0.0890 Uiso
C26 C -0.1817(3) 0.5627(4) 0.3300(5) 0.0743 Uani
H17 H -0.2135 0.5904 0.3391 0.0890 Uiso
C27 C -0.1248(3) 0.5803(4) 0.3622(5) 0.0772 Uani
H18 H -0.1185 0.6196 0.3905 0.0930 Uiso
C28 C -0.0770(3) 0.5396(3) 0.3524(4) 0.0584 Uani
C29 C -0.0889(3) 0.4851(4) 0.3063(5) 0.0654 Uani
H19 H -0.0576 0.4573 0.2955 0.0790 Uiso
C30 C -0.1483(3) 0.4711(3) 0.2754(4) 0.0615 Uani
H20 H -0.1557 0.4330 0.2450 0.0740 Uiso
Co1D Co -0.21323(4) 0.98557(4) 1.24527(5) 0.0504 Uani
Co1C Co 0.28677(4) 1.51443(4) 1.74527(5) 0.0504 Uani
Co1F Co 0.28677(4) 1.48557(4) 0.24527(5) 0.0504 Uani
Co1G Co -0.28677(4) 0.48557(4) 0.25473(5) 0.0504 Uani
N1D N -0.1893(2) 1.0768(3) 1.2961(3) 0.0578 Uani
N2D N -0.1677(3) 1.2619(3) 1.4010(4) 0.0778 Uani
H1D H -0.1988 1.2743 1.4245 0.0930 Uiso
N3D N 0.1948(2) 1.4912(3) 1.7133(3) 0.0543 Uani
N3C N -0.3052(2) 1.0088(3) 1.2133(3) 0.0543 Uani
N3G N 0.3052(2) 0.9912(3) 0.7867(3) 0.0543 Uani
N4D N 0.0200(3) 1.4419(3) 1.6099(4) 0.0756 Uani
H2D H 0.0162 1.4016 1.5954 0.0900 Uiso
O1D O -0.1186(2) 0.9679(3) 1.2180(3) 0.0722 Uani
O2D O -0.1885(2) 1.0049(3) 1.1262(3) 0.0737 Uani
O3F O 0.2686(2) 1.3819(2) 0.2526(3) 0.0660 Uani
O3D O -0.2314(2) 0.8819(2) 1.2526(3) 0.0660 Uani
O4F O 0.2761(2) 1.4431(2) 0.3623(3) 0.0684 Uani
O4D O -0.2239(2) 0.9431(2) 1.3623(3) 0.0684 Uani
O5D O -0.0758(3) 1.2966(4) 1.3674(5) 0.1357 Uani
O6D O -0.0315(2) 1.5352(3) 1.6174(4) 0.0954 Uani
C1D C -0.1342(3) 0.9875(4) 1.1462(4) 0.0633 Uani
C2D C -0.0743(3) 1.0111(4) 0.9375(5) 0.0781 Uani
H3D H -0.0893 1.0180 0.8822 0.0940 Uiso
C3D C -0.1131(3) 1.0060(4) 0.9971(5) 0.0749 Uani
H4D H -0.1546 1.0108 0.9828 0.0900 Uiso
C4D C -0.0904(3) 0.9932(4) 1.0813(4) 0.0658 Uani
C5D C -0.0307(3) 0.9868(4) 1.1035(5) 0.0744 Uani
H5D H -0.0166 0.9779 1.1586 0.0890 Uiso
C6D C 0.0123(3) 0.9940(4) 1.0407(4) 0.0655 Uani
C7F C 0.2688(3) 1.3881(3) 0.3306(4) 0.0576 Uani
C8F C 0.2335(3) 1.2178(3) 0.3928(4) 0.0684 Uani
H6F H 0.2217 1.1788 0.3667 0.0820 Uiso
C9F C 0.2423(3) 1.2706(3) 0.3454(4) 0.0650 Uani
H7F H 0.2371 1.2674 0.2876 0.0780 Uiso
C10F C 0.2592(3) 1.3302(3) 0.3837(4) 0.0554 Uani
C11F C 0.2664(3) 1.3348(3) 0.4678(4) 0.0583 Uani
H8F H 0.2769 1.3747 0.4927 0.0700 Uiso
C12F C 0.2581(3) 1.2798(3) 0.5186(4) 0.0562 Uani
C13D C -0.1219(4) 1.3055(4) 1.4034(5) 0.0830 Uani
C14D C -0.0298(3) 1.4789(4) 1.5933(5) 0.0671 Uani
C15D C -0.1311(3) 1.3670(4) 1.4521(5) 0.0703 Uani
C16D C -0.0795(3) 1.3934(4) 1.4971(5) 0.0761 Uani
H9D H -0.0421 1.3733 1.4949 0.0910 Uiso
C17D C -0.0832(3) 1.4481(4) 1.5438(4) 0.0625 Uani
C18D C -0.1375(3) 1.4797(4) 1.5428(4) 0.0649 Uani
H10D H -0.1403 1.5179 1.5732 0.0780 Uiso
C19D C -0.1890(3) 1.4542(4) 1.4956(5) 0.0732 Uani
H11D H -0.2258 1.4762 1.4933 0.0880 Uiso
C20D C -0.1850(3) 1.3965(4) 1.4528(5) 0.0710 Uani
H12D H -0.2195 1.3782 1.4245 0.0850 Uiso
C21D C -0.1440(3) 1.1141(4) 1.2802(5) 0.0695 Uani
H13D H -0.1171 1.0981 1.2446 0.0830 Uiso
C22D C -0.1339(3) 1.1755(4) 1.3129(5) 0.0761 Uani
H14D H -0.1013 1.2001 1.2986 0.0910 Uiso
C23D C -0.1721(3) 1.2002(4) 1.3666(4) 0.0627 Uani
C24D C -0.2169(4) 1.1599(4) 1.3858(5) 0.0776 Uani
H15D H -0.2430 1.1735 1.4240 0.0930 Uiso
C25D C -0.2244(3) 1.1004(4) 1.3507(4) 0.0745 Uani
H16D H -0.2559 1.0744 1.3657 0.0890 Uiso
C26D C 0.1817(3) 1.4373(4) 1.6700(5) 0.0743 Uani
H17D H 0.2135 1.4096 1.6609 0.0890 Uiso
C27D C 0.1248(3) 1.4197(4) 1.6378(5) 0.0772 Uani
H18D H 0.1185 1.3804 1.6095 0.0930 Uiso
C28D C 0.0770(3) 1.4604(3) 1.6476(4) 0.0584 Uani
C29D C 0.0889(3) 1.5149(4) 1.6937(5) 0.0654 Uani
H19D H 0.0576 1.5427 1.7045 0.0790 Uiso
C30D C 0.1483(3) 1.5289(3) 1.7246(4) 0.0615 Uani
H20D H 0.1557 1.5670 1.7550 0.0740 Uiso
N5 N 0.1234(4) 0.7728(6) 0.3141(7) 0.1320 Uani
O7 O 0.1971(3) 0.7748(4) 0.4257(4) 0.1174 Uani
C31 C 0.1654(5) 0.7981(6) 0.3689(8) 0.1188 Uani
H21 H 0.1714 0.8425 0.3619 0.1430 Uiso
C32 C 0.1137(7) 0.7002(8) 0.3135(10) 0.1897 Uani
H22 H 0.1343 0.6816 0.3632 0.2840 Uiso
H23 H 0.1294 0.6816 0.2656 0.2840 Uiso
H24 H 0.0711 0.6910 0.3115 0.2840 Uiso
C33 C 0.0933(6) 0.8051(8) 0.2411(9) 0.1766 Uani
H25 H 0.0564 0.7825 0.2228 0.2650 Uiso
H26 H 0.1195 0.8050 0.1973 0.2650 Uiso
H27 H 0.0841 0.8492 0.2549 0.2650 Uiso
N6 N 0.4629(10) 0.7191(13) 0.0149(17) 0.1552 Uani
O8 O 0.4627(6) 0.8023(5) -0.0678(9) 0.0902 Uani
C34 C 0.4450(10) 0.7758(15) -0.014(2) 0.1443 Uani
H28 H 0.4151 0.7966 0.0129 0.1750 Uiso
C35 C 0.4425(9) 0.6836(11) 0.0866(16) 0.1276 Uani
H29 H 0.4369 0.7138 0.1305 0.1940 Uiso
H30 H 0.4725 0.6519 0.1061 0.1940 Uiso
H31 H 0.4048 0.6620 0.0697 0.1940 Uiso
C36 C 0.5139(14) 0.6846(12) -0.0216(18) 0.1532 Uani
H32 H 0.4977 0.6497 -0.0567 0.2310 Uiso
H33 H 0.5417 0.6674 0.0225 0.2310 Uiso
H34 H 0.5348 0.7148 -0.0540 0.2310 Uiso
loop_
_atom_site_aniso_label
_atom_site_aniso_U_11
_atom_site_aniso_U_22
_atom_site_aniso_U_33
_atom_site_aniso_U_23
_atom_site_aniso_U_13
_atom_site_aniso_U_12
Co1 0.0460(5) 0.0592(6) 0.0455(5) 0.0041(4) 0.0024(3) -0.0031(4)
N1 0.055(3) 0.066(4) 0.052(3) 0.004(3) 0.004(3) -0.011(3)
N2 0.082(4) 0.076(4) 0.076(4) -0.011(3) 0.011(3) -0.026(4)
N3 0.052 0.056 0.054 -0.004 0.001 0.005
N4 0.066 0.065 0.091 0.001 -0.015 -0.012
O1 0.065(3) 0.087(4) 0.066(3) 0.000(3) 0.013(2) 0.001(3)
O2 0.055(3) 0.109(4) 0.057(3) -0.001(3) 0.006(2) -0.004(3)
O3 0.078(3) 0.062(3) 0.060(3) 0.002(2) 0.016(2) 0.009(2)
O4 0.090(3) 0.058(3) 0.054(3) 0.007(2) -0.008(2) -0.012(3)
O5 0.099(5) 0.120(6) 0.193(7) -0.068(6) 0.038(5) -0.033(4)
O6 0.063(3) 0.085(4) 0.134(5) -0.033(4) -0.010(3) 0.002(3)
C1 0.057(4) 0.083(5) 0.051(4) -0.008(4) 0.011(3) -0.011(4)
C2 0.059(4) 0.119(7) 0.054(4) 0.007(4) -0.005(3) -0.002(4)
C3 0.058(4) 0.105(6) 0.062(4) -0.002(4) 0.007(3) -0.003(4)
C4 0.046(4) 0.089(5) 0.063(4) -0.011(4) 0.009(3) -0.005(3)
C5 0.065(5) 0.098(6) 0.060(4) -0.006(4) 0.005(3) -0.004(4)
C6 0.049(4) 0.092(6) 0.053(4) -0.004(4) -0.006(3) -0.004(3)
C7 0.058(4) 0.054(4) 0.059(4) 0.005(3) -0.002(3) 0.006(3)
C8 0.091(5) 0.051(4) 0.061(4) -0.007(4) -0.003(4) -0.001(4)
C9 0.089(5) 0.057(4) 0.047(4) 0.004(3) -0.003(3) 0.004(4)
C10 0.061(4) 0.049(4) 0.055(4) 0.004(3) 0.000(3) 0.004(3)
C11 0.066(4) 0.049(4) 0.058(4) 0.000(3) -0.002(3) -0.001(3)
C12 0.069(4) 0.048(4) 0.049(4) 0.000(3) -0.006(3) 0.005(3)
C13 0.075(5) 0.088(6) 0.085(5) -0.010(5) 0.004(4) -0.017(5)
C14 0.064(5) 0.064(5) 0.073(5) -0.005(4) 0.006(4) -0.006(4)
C15 0.070(5) 0.065(5) 0.074(5) -0.003(4) -0.002(4) -0.015(4)
C16 0.061(4) 0.077(5) 0.088(5) -0.002(5) -0.003(4) -0.007(4)
C17 0.051(4) 0.071(5) 0.064(4) -0.002(4) -0.001(3) -0.016(4)
C18 0.066(5) 0.063(4) 0.066(4) 0.000(4) 0.008(3) -0.013(4)
C19 0.059(4) 0.088(6) 0.072(5) 0.016(5) 0.004(4) -0.001(4)
C20 0.055(4) 0.085(6) 0.071(5) 0.000(4) -0.003(4) -0.029(4)
C21 0.061(4) 0.072(5) 0.077(5) -0.003(4) 0.014(4) -0.015(4)
C22 0.066(5) 0.078(6) 0.084(5) 0.000(4) 0.006(4) -0.019(4)
C23 0.067(4) 0.065(5) 0.056(4) -0.007(4) 0.006(3) -0.022(4)
C24 0.083(5) 0.079(6) 0.074(5) -0.020(4) 0.023(4) -0.024(4)
C25 0.078(5) 0.079(6) 0.069(5) -0.008(4) 0.020(4) -0.025(4)
C26 0.063 0.069 0.087 -0.021 -0.011 0.015
C27 0.071 0.063 0.093 -0.018 -0.013 0.001
C28 0.053 0.057 0.064 -0.006 0 -0.009
C29 0.048 0.068 0.079 -0.013 0.001 0.005
C30 0.056 0.058 0.07 -0.013 0.004 0.001
Co1D 0.046 0.0592 0.0455 0.0041 0.0024 -0.0031
Co1C 0.046 0.0592 0.0455 -0.0041 0.0024 0.0031
Co1F 0.046 0.0592 0.0455 0.0041 0.0024 -0.0031
Co1G 0.046 0.0592 0.0455 -0.0041 0.0024 0.0031
N1D 0.055 0.066 0.052 0.004 0.004 -0.011
N2D 0.082 0.076 0.076 -0.011 0.011 -0.026
N3D 0.052 0.056 0.054 -0.004 0.001 0.005
N3C 0.052 0.056 0.054 0.004 0.001 -0.005
N3G 0.052 0.056 0.054 0.004 0.001 -0.005
N4D 0.066 0.065 0.091 0.001 -0.015 -0.012
O1D 0.065 0.087 0.066 0 0.013 0.001
O2D 0.055 0.109 0.057 -0.001 0.006 -0.004
O3F 0.078 0.062 0.06 0.002 0.016 0.009
O3D 0.078 0.062 0.06 0.002 0.016 0.009
O4F 0.09 0.058 0.054 0.007 -0.008 -0.012
O4D 0.09 0.058 0.054 0.007 -0.008 -0.012
O5D 0.099 0.12 0.193 -0.068 0.038 -0.033
O6D 0.063 0.085 0.134 -0.033 -0.01 0.002
C1D 0.057 0.083 0.051 -0.008 0.011 -0.011
C2D 0.059 0.119 0.054 0.007 -0.005 -0.002
C3D 0.058 0.105 0.062 -0.002 0.007 -0.003
C4D 0.046 0.089 0.063 -0.011 0.009 -0.005
C5D 0.065 0.098 0.06 -0.006 0.005 -0.004
C6D 0.049 0.092 0.053 -0.004 -0.006 -0.004
C7F 0.058 0.054 0.059 0.005 -0.002 0.006
C8F 0.091 0.051 0.061 -0.007 -0.003 -0.001
C9F 0.089 0.057 0.047 0.004 -0.003 0.004
C10F 0.061 0.049 0.055 0.004 0 0.004
C11F 0.066 0.049 0.058 0 -0.002 -0.001
C12F 0.069 0.048 0.049 0 -0.006 0.005
C13D 0.075 0.088 0.085 -0.01 0.004 -0.017
C14D 0.064 0.064 0.073 -0.005 0.006 -0.006
C15D 0.07 0.065 0.074 -0.003 -0.002 -0.015
C16D 0.061 0.077 0.088 -0.002 -0.003 -0.007
C17D 0.051 0.071 0.064 -0.002 -0.001 -0.016
C18D 0.066 0.063 0.066 0 0.008 -0.013
C19D 0.059 0.088 0.072 0.016 0.004 -0.001
C20D 0.055 0.085 0.071 0 -0.003 -0.029
C21D 0.061 0.072 0.077 -0.003 0.014 -0.015
C22D 0.066 0.078 0.084 0 0.006 -0.019
C23D 0.067 0.065 0.056 -0.007 0.006 -0.022
C24D 0.083 0.079 0.074 -0.02 0.023 -0.024
C25D 0.078 0.079 0.069 -0.008 0.02 -0.025
C26D 0.063 0.069 0.087 -0.021 -0.011 0.015
C27D 0.071 0.063 0.093 -0.018 -0.013 0.001
C28D 0.053 0.057 0.064 -0.006 0 -0.009
C29D 0.048 0.068 0.079 -0.013 0.001 0.005
C30D 0.056 0.058 0.07 -0.013 0.004 0.001
N5 0.117(7) 0.131(9) 0.144(8) 0.016(7) -0.006(6) -0.029(6)
O7 0.132(6) 0.136(6) 0.083(4) 0.004(4) 0.005(4) 0.003(5)
C31 0.112(8) 0.133(10) 0.111(8) -0.008(8) 0.010(7) -0.042(7)
C32 0.212(16) 0.174(16) 0.179(14) -0.015(12) 0.001(12) -0.021(13)
C33 0.138(11) 0.211(16) 0.169(13) 0.027(12) -0.040(9) -0.041(10)
N6 0.099(14) 0.139(19) 0.21(2) 0.062(18) -0.068(15) -0.073(14)
O8 0.097(9) 0.034(5) 0.127(10) 0.038(6) -0.049(7) -0.022(5)
C34 0.075(14) 0.12(2) 0.22(3) 0.01(2) -0.071(18) -0.019(15)
C35 0.093(14) 0.122(18) 0.17(2) 0.039(17) 0.024(14) -0.022(12)
C36 0.15(2) 0.108(19) 0.20(3) 0.017(19) 0.01(2) -0.038(18)
loop_
_geom_bond_atom_site_label_1
_geom_bond_atom_site_label_2
_geom_bond_site_symmetry_1
_geom_bond_site_symmetry_2
Co1 N1 1_555 1_555
N1 C21 1_555 1_555
N2 H1 1_555 1_555
N3 C26 1_555 1_555
N4 H2 1_555 1_555
N5 C31 1_555 1_555
N6 C34 1_555 1_555
O1 Co1 1_555 1_555
O2 Co1 1_555 1_555
O3 Co1 1_555 1_555
O4 Co1 1_555 1_555
O5 C13 1_555 1_555
O6 C14 1_555 1_555
O7 C31 1_555 1_555
O8 C34 1_555 1_555
C1 O1 1_555 1_555
C2 H3 1_555 1_555
C3 C2 1_555 1_555
H4 C3 1_555 1_555
C4 C1 1_555 1_555
C5 C4 1_555 1_555
H5 C5 1_555 1_555
C6 C5 1_555 1_555
C7 O3 1_555 1_555
C8 H6 1_555 1_555
C9 C8 1_555 1_555
H7 C9 1_555 1_555
C10 C7 1_555 1_555
C11 C10 1_555 1_555
H8 C11 1_555 1_555
C12 C11 1_555 1_555
C13 N2 1_555 1_555
C14 N4 1_555 1_555
C15 C13 1_555 1_555
C16 C15 1_555 1_555
H9 C16 1_555 1_555
C17 C14 1_555 1_555
C18 C17 1_555 1_555
H10 C18 1_555 1_555
C19 C18 1_555 1_555
H11 C19 1_555 1_555
C20 C15 1_555 1_555
H12 C20 1_555 1_555
C21 H13 1_555 1_555
C22 C21 1_555 1_555
H14 C22 1_555 1_555
C23 N2 1_555 1_555
C24 C23 1_555 1_555
H15 C24 1_555 1_555
C25 N1 1_555 1_555
H16 C25 1_555 1_555
C26 H17 1_555 1_555
C27 C26 1_555 1_555
H18 C27 1_555 1_555
C28 N4 1_555 1_555
C29 C28 1_555 1_555
H19 C29 1_555 1_555
C30 N3 1_555 1_555
H20 C30 1_555 1_555
C31 H21 1_555 1_555
C32 N5 1_555 1_555
H22 C32 1_555 1_555
H23 C32 1_555 1_555
H24 C32 1_555 1_555
C33 N5 1_555 1_555
H25 C33 1_555 1_555
H26 C33 1_555 1_555
H27 C33 1_555 1_555
C34 H28 1_555 1_555
C35 N6 1_555 1_555
H29 C35 1_555 1_555
H30 C35 1_555 1_555
H31 C35 1_555 1_555
C36 N6 1_555 1_555
H32 C36 1_555 1_555
H33 C36 1_555 1_555
H34 C36 1_555 1_555
Co1D N1D 1_555 1_555
Co1C N3D 1_555 1_555
Co1F O3F 1_555 1_555
Co1G N3 1_555 1_555
N1D C21D 1_555 1_555
N2D H1D 1_555 1_555
N3D C26D 1_555 1_555
N3C Co1D 1_555 1_555
N3G Co1 1_555 1_555
N4D H2D 1_555 1_555
O1D Co1D 1_555 1_555
O2D Co1D 1_555 1_555
O3F C7F 1_555 1_555
O3D Co1D 1_555 1_555
O4F Co1F 1_555 1_555
O4D Co1D 1_555 1_555
O5D C13D 1_555 1_555
O6D C14D 1_555 1_555
C1D O1D 1_555 1_555
C2D C6 1_555 1_555
H3D C2D 1_555 1_555
C3D C2D 1_555 1_555
H4D C3D 1_555 1_555
C4D C1D 1_555 1_555
C5D C4D 1_555 1_555
H5D C5D 1_555 1_555
C6D C2 1_555 1_555
C7F O4F 1_555 1_555
C8F C12 1_555 1_555
H6F C8F 1_555 1_555
C9F C8F 1_555 1_555
H7F C9F 1_555 1_555
C10F C7F 1_555 1_555
C11F C10F 1_555 1_555
H8F C11F 1_555 1_555
C12F C8 1_555 1_555
C13D N2D 1_555 1_555
C14D N4D 1_555 1_555
C15D C13D 1_555 1_555
C16D C15D 1_555 1_555
H9D C16D 1_555 1_555
C17D C14D 1_555 1_555
C18D C17D 1_555 1_555
H10D C18D 1_555 1_555
C19D C18D 1_555 1_555
H11D C19D 1_555 1_555
C20D C15D 1_555 1_555
H12D C20D 1_555 1_555
C21D H13D 1_555 1_555
C22D C21D 1_555 1_555
H14D C22D 1_555 1_555
C23D N2D 1_555 1_555
C24D C23D 1_555 1_555
H15D C24D 1_555 1_555
C25D N1D 1_555 1_555
H16D C25D 1_555 1_555
C26D H17D 1_555 1_555
C27D C26D 1_555 1_555
H18D C27D 1_555 1_555
C28D N4D 1_555 1_555
C29D C28D 1_555 1_555
H19D C29D 1_555 1_555
C30D N3D 1_555 1_555
H20D C30D 1_555 1_555
O2 C1 1_555 1_555
O4 C7 1_555 1_555
C3 C4 1_555 1_555
C6 C6D 1_555 1_555
C9 C10 1_555 1_555
C12 C12F 1_555 1_555
C16 C17 1_555 1_555
C19 C20 1_555 1_555
C22 C23 1_555 1_555
C24 C25 1_555 1_555
C27 C28 1_555 1_555
C29 C30 1_555 1_555
O2D C1D 1_555 1_555
C3D C4D 1_555 1_555
C5D C6D 1_555 1_555
C9F C10F 1_555 1_555
C11F C12F 1_555 1_555
C16D C17D 1_555 1_555
C19D C20D 1_555 1_555
C22D C23D 1_555 1_555
C24D C25D 1_555 1_555
C27D C28D 1_555 1_555
C29D C30D 1_555 1_555

#END
