
#######################################################################
#
#                 Cambridge Crystallographic Data Centre
#                                CCDC 
#
#######################################################################
#
# If this CIF has been generated from an entry in the Cambridge 
# Structural Database, then it will include bibliographic, chemical, 
# crystal, experimental, refinement or atomic coordinate data resulting 
# from the CCDC's data processing and validation procedures.
#
#######################################################################

data_IXUWII
_chemical_formula_moiety         '(C64 H44 Co2 N8 O12)n'
_symmetry_cell_setting           monoclinic
_symmetry_space_group_name_H-M   'C 2/c'
_symmetry_Int_Tables_number      15
_space_group_name_Hall           '-C 2yc'
loop_
_symmetry_equiv_pos_site_id
_symmetry_equiv_pos_as_xyz
1 x,y,z
2 -x,y,1/2-z
3 1/2+x,1/2+y,z
4 1/2-x,1/2+y,1/2-z
5 -x,-y,-z
6 x,-y,1/2+z
7 1/2-x,1/2-y,-z
8 1/2+x,1/2-y,1/2+z
_cell_length_a                   24.36(4)
_cell_length_b                   23.37(7)
_cell_length_c                   16.13(3)
_cell_angle_alpha                90
_cell_angle_beta                 105.104(15)
_cell_angle_gamma                90
_cell_volume                     8865.48
loop_
_atom_site_label
_atom_site_type_symbol
_atom_site_fract_x
_atom_site_fract_y
_atom_site_fract_z
Co1 Co 0.227658(15) 0.00980(2) 0.76334(2)
O1 O 0.23939(10) -0.02557(11) 0.64602(14)
N1 N 0.21079(11) 0.09266(14) 0.71182(18)
C1 C 0.23915(12) -0.07520(14) 0.67856(17)
O2 O 0.23425(11) -0.08150(11) 0.75293(14)
N2 N 0.18675(14) 0.25753(15) 0.6043(2)
H1 H 0.2153 0.2702 0.5854
C2 C 0.24332(13) -0.12628(14) 0.62500(18)
O3 O 0.20202(9) 0.01785(11) 0.87721(15)
N3 N -0.18483(10) 0.47562(11) 0.31702(17)
C3 C 0.23955(17) -0.12136(15) 0.5382(2)
H2 H 0.2358 -0.0847 0.5119
O4 O 0.13683(10) -0.00200(15) 0.75887(17)
N4 N -0.01443(11) 0.43248(14) 0.4307(2)
H3 H -0.0102 0.4068 0.4719
C4 C 0.24126(18) -0.16970(15) 0.48987(19)
H4 H 0.2368 -0.1659 0.4298
O5 O 0.09942(15) 0.27949(18) 0.6178(4)
C5 C 0.24928(19) -0.22381(15) 0.52657(19)
O6 O 0.03417(15) 0.48687(19) 0.3602(5)
C6 C 0.2538(3) -0.22738(18) 0.6133(2)
H5 H 0.2592 -0.2639 0.6402
C7 C 0.2508(3) -0.17980(18) 0.6624(2)
H6 H 0.2539 -0.1839 0.7221
C8 C 0.15150(13) 0.00672(18) 0.8387(2)
C9 C 0.12169(13) 0.00125(16) 0.9762(2)
H7 H 0.1605 0.0044 1.0072
C10 C 0.07958(14) -0.00084(17) 1.0201(2)
H8 H 0.0904 0.0092 1.0792
C11 C 0.2404(2) 0.1140(2) 0.6611(4)
H9 H 0.2700 0.0909 0.6506
C12 C 0.17165(16) 0.12768(19) 0.7274(2)
H10 H 0.1493 0.1141 0.7635
C13 C 0.16116(17) 0.1825(2) 0.6949(3)
H11 H 0.1327 0.2054 0.7089
C14 C 0.19257(16) 0.20332(19) 0.6419(3)
C15 C 0.2321(2) 0.1656(2) 0.6233(4)
H12 H 0.2532 0.1764 0.5838
C16 C 0.14076(17) 0.29248(19) 0.5943(3)
C17 C 0.14287(14) 0.34801(17) 0.5499(3)
C18 C 0.19272(14) 0.3767(2) 0.5498(3)
H13 H 0.2284 0.3614 0.5803
C19 C 0.19057(16) 0.42604(19) 0.5068(4)
H14 H 0.2251 0.4453 0.5079
C20 C 0.13946(15) 0.45017(18) 0.4603(4)
H15 H 0.1392 0.4842 0.4279
C21 C 0.08848(14) 0.42325(15) 0.4625(3)
C22 C 0.09100(14) 0.37188(16) 0.5093(3)
H16 H 0.0568 0.3536 0.5129
C23 C -0.16847(14) 0.4429(2) 0.3863(2)
H17 H -0.1971 0.4276 0.4102
C24 C -0.11318(16) 0.4298(2) 0.4255(2)
H18 H -0.1044 0.4071 0.4762
C25 C -0.07004(12) 0.44922(14) 0.3920(2)
C26 C -0.08673(16) 0.48306(19) 0.3215(4)
H19 H -0.0591 0.4987 0.2959
C27 C -0.14305(16) 0.49482(19) 0.2873(4)
H20 H -0.1527 0.5188 0.2381
C28 C 0.03441(14) 0.45094(17) 0.4127(4)
C29 C 0.1078(3) -0.0012(3) 0.8922(6)
C30 C 0.0250(4) -0.0158(4) 0.9866(6)
C31 C 0.0093(2) -0.0204(3) 0.8950(3)
H21 H -0.0293 -0.0255 0.8646
C32 C 0.0510(2) -0.0173(3) 0.8514(3)
H22 H 0.0414 -0.0262 0.7919
Co1F Co 0.272342(15) -0.50980(2) 0.23666(2)
Co1G Co -0.272342(15) 0.49020(2) 0.26334(2)
Co1D Co -0.227658(15) -0.00980(2) 1.23666(2)
Co1G_2 Co 0.727658(15) 0.49020(2) 1.26334(2)
O1F O 0.26061(10) -0.47443(11) 0.35398(14)
N1G N 0.71079(11) 0.40734(14) 1.21182(18)
N1F N 0.28921(11) -0.59266(14) 0.28818(18)
C1F C 0.26085(12) -0.42480(14) 0.32144(17)
O2F O 0.26575(11) -0.41850(11) 0.24707(14)
N2G N 0.68675(14) 0.24247(15) 1.1043(2)
H1G H 0.7153 0.2298 1.0854
C2F C 0.25668(13) -0.37372(14) 0.37500(18)
O3D O -0.20202(9) -0.01785(11) 1.12279(15)
O3F O 0.29798(9) -0.51785(11) 0.12279(15)
N3G N 0.31517(10) 0.02438(11) 0.81702(17)
N3A N 0.18483(10) -0.52438(11) 0.18298(17)
C3F C 0.26045(17) -0.37864(15) 0.4618(2)
H2F H 0.2642 -0.4153 0.4881
O4D O -0.13683(10) 0.00200(15) 1.24113(17)
O4F O 0.36317(10) -0.49800(15) 0.24113(17)
N4G N 0.48557(11) 0.06752(14) 0.9307(2)
H3G H 0.4898 0.0932 0.9719
C4F C 0.25874(18) -0.33030(15) 0.51013(19)
H4F H 0.2632 -0.3341 0.5702
O5G O 0.59942(15) 0.22051(18) 1.1178(4)
C5F C 0.25072(19) -0.27619(15) 0.47343(19)
O6G O 0.53417(15) 0.01313(19) 0.8602(5)
C6F C 0.2462(3) -0.27262(18) 0.3867(2)
H5F H 0.2408 -0.2361 0.3598
C7F C 0.2492(3) -0.32020(18) 0.3376(2)
H6F H 0.2461 -0.3161 0.2779
C8D C -0.15150(13) -0.00672(18) 1.1613(2)
C9D C -0.12169(13) -0.00125(16) 1.0238(2)
H7D H -0.1605 -0.0044 0.9928
C10D C -0.07958(14) 0.00084(17) 0.9799(2)
H8D H -0.0904 -0.0092 0.9208
C11G C 0.7404(2) 0.3860(2) 1.1611(4)
H9G H 0.7700 0.4091 1.1506
C12G C 0.67165(16) 0.37232(19) 1.2274(2)
H10G H 0.6493 0.3859 1.2635
C13G C 0.66116(17) 0.3175(2) 1.1949(3)
H11G H 0.6327 0.2946 1.2089
C14G C 0.69257(16) 0.29668(19) 1.1419(3)
C15G C 0.7321(2) 0.3344(2) 1.1233(4)
H12G H 0.7532 0.3236 1.0838
C16G C 0.64076(17) 0.20752(19) 1.0943(3)
C17G C 0.64287(14) 0.15199(17) 1.0499(3)
C18G C 0.69272(14) 0.1233(2) 1.0498(3)
H13G H 0.7284 0.1386 1.0803
C19G C 0.69057(16) 0.07396(19) 1.0068(4)
H14G H 0.7251 0.0547 1.0079
C20G C 0.63946(15) 0.04983(18) 0.9603(4)
H15G H 0.6392 0.0158 0.9279
C21G C 0.58848(14) 0.07675(15) 0.9625(3)
C22G C 0.59100(14) 0.12812(16) 1.0093(3)
H16G H 0.5568 0.1464 1.0129
C23G C 0.33153(14) 0.0571(2) 0.8863(2)
H17G H 0.3029 0.0724 0.9102
C24G C 0.38682(16) 0.0702(2) 0.9255(2)
H18G H 0.3956 0.0929 0.9762
C25G C 0.42996(12) 0.05078(14) 0.8920(2)
C26G C 0.41327(16) 0.01694(19) 0.8215(4)
H19G H 0.4409 0.0013 0.7959
C27G C 0.35695(16) 0.00518(19) 0.7873(4)
H20G H 0.3473 -0.0188 0.7381
C28G C 0.53441(14) 0.04906(17) 0.9127(4)
C29D C -0.1078(3) 0.0012(3) 1.1078(6)
C30D C -0.0250(4) 0.0158(4) 1.0134(6)
C31D C -0.0093(2) 0.0204(3) 1.1050(3)
H21D H 0.0293 0.0255 1.1354
C32D C -0.0510(2) 0.0173(3) 1.1486(3)
H22D H -0.0414 0.0262 1.2081
loop_
_geom_bond_atom_site_label_1
_geom_bond_atom_site_label_2
_geom_bond_site_symmetry_1
_geom_bond_site_symmetry_2
Co1 O1 1_555 1_555
O1 C1 1_555 1_555
N1 Co1 1_555 1_555
C1 O2 1_555 1_555
O2 Co1 1_555 1_555
N2 H1 1_555 1_555
C2 C1 1_555 1_555
O3 Co1 1_555 1_555
N3 C23 1_555 1_555
C3 C2 1_555 1_555
H2 C3 1_555 1_555
O4 Co1 1_555 1_555
N4 H3 1_555 1_555
C4 C3 1_555 1_555
H4 C4 1_555 1_555
O5 C16 1_555 1_555
C5 C4 1_555 1_555
O6 C28 1_555 1_555
C6 C5 1_555 1_555
H5 C6 1_555 1_555
C7 C2 1_555 1_555
H6 C7 1_555 1_555
C8 O3 1_555 1_555
C9 H7 1_555 1_555
C10 C9 1_555 1_555
H8 C10 1_555 1_555
C11 N1 1_555 1_555
H9 C11 1_555 1_555
C12 N1 1_555 1_555
H10 C12 1_555 1_555
C13 C12 1_555 1_555
H11 C13 1_555 1_555
C14 N2 1_555 1_555
C15 C11 1_555 1_555
H12 C15 1_555 1_555
C16 N2 1_555 1_555
C17 C16 1_555 1_555
C18 C17 1_555 1_555
H13 C18 1_555 1_555
C19 C18 1_555 1_555
H14 C19 1_555 1_555
C20 C19 1_555 1_555
H15 C20 1_555 1_555
C21 C20 1_555 1_555
C22 C17 1_555 1_555
H16 C22 1_555 1_555
C23 H17 1_555 1_555
C24 C23 1_555 1_555
H18 C24 1_555 1_555
C25 N4 1_555 1_555
C26 C25 1_555 1_555
H19 C26 1_555 1_555
C27 N3 1_555 1_555
H20 C27 1_555 1_555
C28 N4 1_555 1_555
C29 C8 1_555 1_555
C30 C10 1_555 1_555
C31 C30 1_555 1_555
H21 C31 1_555 1_555
C32 C29 1_555 1_555
H22 C32 1_555 1_555
Co1F O1F 1_555 1_555
Co1G N3 1_555 1_555
Co1D O3D 1_555 1_555
Co1G_2 N1G 1_555 1_555
O1F C1F 1_555 1_555
N1G C11G 1_555 1_555
N1F Co1F 1_555 1_555
C1F O2F 1_555 1_555
O2F Co1F 1_555 1_555
N2G H1G 1_555 1_555
C2F C1F 1_555 1_555
O3D C8D 1_555 1_555
O3F Co1F 1_555 1_555
N3G Co1 1_555 1_555
N3A Co1F 1_555 1_555
C3F C2F 1_555 1_555
H2F C3F 1_555 1_555
O4D Co1D 1_555 1_555
O4F Co1F 1_555 1_555
N4G H3G 1_555 1_555
C4F C3F 1_555 1_555
H4F C4F 1_555 1_555
O5G C16G 1_555 1_555
C5F C5 1_555 1_555
O6G C28G 1_555 1_555
C6F C5F 1_555 1_555
H5F C6F 1_555 1_555
C7F C2F 1_555 1_555
H6F C7F 1_555 1_555
C8D O4D 1_555 1_555
C9D H7D 1_555 1_555
C10D C9D 1_555 1_555
H8D C10D 1_555 1_555
C11G H9G 1_555 1_555
C12G N1G 1_555 1_555
H10G C12G 1_555 1_555
C13G C12G 1_555 1_555
H11G C13G 1_555 1_555
C14G N2G 1_555 1_555
C15G C11G 1_555 1_555
H12G C15G 1_555 1_555
C16G N2G 1_555 1_555
C17G C16G 1_555 1_555
C18G C17G 1_555 1_555
H13G C18G 1_555 1_555
C19G C18G 1_555 1_555
H14G C19G 1_555 1_555
C20G C19G 1_555 1_555
H15G C20G 1_555 1_555
C21G C20G 1_555 1_555
C22G C17G 1_555 1_555
H16G C22G 1_555 1_555
C23G N3G 1_555 1_555
H17G C23G 1_555 1_555
C24G C23G 1_555 1_555
H18G C24G 1_555 1_555
C25G N4G 1_555 1_555
C26G C25G 1_555 1_555
H19G C26G 1_555 1_555
C27G N3G 1_555 1_555
H20G C27G 1_555 1_555
C28G N4G 1_555 1_555
C29D C8D 1_555 1_555
C30D C30 1_555 1_555
C31D C30D 1_555 1_555
H21D C31D 1_555 1_555
C32D C29D 1_555 1_555
H22D C32D 1_555 1_555
O4 C8 1_555 1_555
C6 C7 1_555 1_555
C9 C29 1_555 1_555
C13 C14 1_555 1_555
C14 C15 1_555 1_555
C21 C22 1_555 1_555
C21 C28 1_555 1_555
C24 C25 1_555 1_555
C26 C27 1_555 1_555
C31 C32 1_555 1_555
C4F C5F 1_555 1_555
C6F C7F 1_555 1_555
C9D C29D 1_555 1_555
C10D C30D 1_555 1_555
C13G C14G 1_555 1_555
C14G C15G 1_555 1_555
C21G C22G 1_555 1_555
C21G C28G 1_555 1_555
C24G C25G 1_555 1_555
C26G C27G 1_555 1_555
C31D C32D 1_555 1_555

#END
