
#######################################################################
#
#                 Cambridge Crystallographic Data Centre
#                                CCDC 
#
#######################################################################
#
# If this CIF has been generated from an entry in the Cambridge 
# Structural Database, then it will include bibliographic, chemical, 
# crystal, experimental, refinement or atomic coordinate data resulting 
# from the CCDC's data processing and validation procedures.
#
#######################################################################

data_OJOBAS
_chemical_formula_moiety         '(C24 H18 Co3 N4 O10)n'
_symmetry_cell_setting           monoclinic
_symmetry_space_group_name_H-M   'P 21/c'
_symmetry_Int_Tables_number      14
_space_group_name_Hall           '-P 2ybc'
loop_
_symmetry_equiv_pos_site_id
_symmetry_equiv_pos_as_xyz
1 x,y,z
2 -x,1/2+y,1/2-z
3 -x,-y,-z
4 x,1/2-y,1/2+z
_cell_length_a                   9.2607(2)
_cell_length_b                   12.0677(3)
_cell_length_c                   31.0183(7)
_cell_angle_alpha                90
_cell_angle_beta                 97.604(3)
_cell_angle_gamma                90
_cell_volume                     3435.98
loop_
_atom_site_label
_atom_site_type_symbol
_atom_site_fract_x
_atom_site_fract_y
_atom_site_fract_z
Co1 Co 1.11330(9) -0.15900(7) 0.42324(3)
Co2 Co 1.03084(9) 0.10533(7) 0.35954(3)
Co3 Co 0.96845(9) 0.10114(7) 0.46683(3)
O1 O 0.8621(4) 0.1642(3) 0.51222(11)
H1 H 0.9341 0.1466 0.5261
O2 O 1.0439(6) -0.7386(4) 0.38706(16)
O3 O 1.0691(6) -0.7461(4) 0.45957(15)
O4 O 0.7851(5) 0.1336(5) 0.42413(16)
O5 O 1.0708(4) 0.0205(3) 0.42036(11)
H2 H 0.9860 -0.0025 0.4127
O6 O 1.1093(5) -0.1770(4) 0.35674(14)
O7 O 0.8691(5) -0.0592(4) 0.48021(14)
O8 O 0.8862(5) -0.1659(4) 0.42145(15)
O9 O 0.8046(5) 0.0992(5) 0.35404(16)
C1 C 0.6553(7) -0.1326(6) 0.4415(2)
N1 N 0.2661(6) 0.1101(6) 0.36283(19)
C2 C 0.5743(8) -0.1165(8) 0.4750(2)
H3 H 0.6207 -0.1003 0.5027
N2 N 1.1154(7) -0.3420(5) 0.42398(19)
O10 O 1.0115(7) -0.0307(4) 0.32072(16)
N3 N 0.9969(7) -0.3061(5) 0.20225(18)
C3 C 0.4888(8) 0.1438(8) 0.4083(2)
H4 H 0.5353 0.1648 0.4355
C4 C 0.4945(8) 0.0882(7) 0.3355(2)
H5 H 0.5446 0.0708 0.3123
C5 C 1.1202(8) -0.2834(6) 0.2742(2)
H6 H 1.1913 -0.3078 0.2962
C6 C 0.5788(8) -0.1594(7) 0.4012(2)
H7 H 0.6290 -0.1739 0.3777
C7 C 1.1005(9) -0.3360(7) 0.2352(2)
H8 H 1.1610 -0.3954 0.2309
C8 C 0.3391(9) 0.1388(8) 0.4010(2)
H9 H 0.2868 0.1562 0.4237
N4 N 0.3489(6) -0.1475(5) 0.42862(18)
C9 C 0.4245(9) -0.1242(9) 0.4677(3)
H10 H 0.3728 -0.1128 0.4911
C10 C 0.9284(9) -0.1605(7) 0.2472(2)
H11 H 0.8689 -0.0998 0.2506
C11 C 0.5698(8) 0.1180(6) 0.3759(2)
C12 C 0.3453(8) 0.0851(7) 0.3308(2)
H12 H 0.2960 0.0645 0.3040
C13 C 1.0652(8) -0.6969(6) 0.4242(2)
C14 C 1.0340(8) -0.1933(6) 0.2811(2)
C15 C 0.7342(8) 0.1164(6) 0.3853(2)
C16 C 0.4280(8) -0.1646(7) 0.3959(2)
H13 H 0.3793 -0.1807 0.3684
C17 C 1.0874(9) -0.5727(6) 0.4249(2)
C18 C 1.1444(19) -0.5153(12) 0.4623(5)
H14 H 1.1768 -0.5529 0.4879
C19 C 0.8176(7) -0.1195(5) 0.4478(2)
C20 C 0.9133(9) -0.2186(7) 0.2092(2)
H15 H 0.8417 -0.1965 0.1870
C21 C 1.0527(8) -0.1280(6) 0.3235(2)
C22 C 1.1514(19) -0.4003(11) 0.4602(5)
H16 H 1.1832 -0.3618 0.4856
C23 C 1.0433(19) -0.5120(11) 0.3885(5)
H17 H 1.0038 -0.5481 0.3632
C24 C 1.056(2) -0.3994(11) 0.3884(5)
H18 H 1.0225 -0.3607 0.3631
Co1_2 Co 0.11330(9) -0.15900(7) 0.42324(3)
Co1B Co 0.88670(9) 0.15900(7) 0.57676(3)
Co2_2 Co 0.03084(9) 0.10533(7) 0.35954(3)
Co2_3 Co 1.03084(9) -0.89467(7) 0.35954(3)
Co2A Co 0.96916(9) -0.39467(7) 0.14046(3)
Co3_2 Co 0.96845(9) -0.89886(7) 0.46683(3)
Co3B Co 1.03155(9) -0.10114(7) 0.53317(3)
O1B O 1.1379(4) -0.1642(3) 0.48778(11)
O2_2 O 1.0439(6) 0.2614(4) 0.38706(16)
O3_2 O 1.0691(6) 0.2539(4) 0.45957(15)
O7B O 1.1309(5) 0.0592(4) 0.51979(14)
N1_2 N 1.2661(6) 0.1101(6) 0.36283(19)
N3A N 1.0031(7) 0.1939(5) 0.29775(18)
N4_2 N 1.3489(6) -0.1475(5) 0.42862(18)
loop_
_geom_bond_atom_site_label_1
_geom_bond_atom_site_label_2
_geom_bond_site_symmetry_1
_geom_bond_site_symmetry_2
Co1 O5 1_555 1_555
Co2 O5 1_555 1_555
Co3 O1 1_555 1_555
O1 H1 1_555 1_555
O2 C13 1_555 1_555
O3 C13 1_555 1_555
O4 Co3 1_555 1_555
O5 Co3 1_555 1_555
H2 O5 1_555 1_555
O6 Co1 1_555 1_555
O7 Co3 1_555 1_555
O8 Co1 1_555 1_555
O9 Co2 1_555 1_555
C1 C2 1_555 1_555
N1 C8 1_555 1_555
C2 H3 1_555 1_555
N2 Co1 1_555 1_555
O10 Co2 1_555 1_555
N3 C7 1_555 1_555
C3 H4 1_555 1_555
C4 H5 1_555 1_555
C5 H6 1_555 1_555
C6 C1 1_555 1_555
H7 C6 1_555 1_555
C7 C5 1_555 1_555
H8 C7 1_555 1_555
C8 C3 1_555 1_555
H9 C8 1_555 1_555
N4 C9 1_555 1_555
C9 C2 1_555 1_555
H10 C9 1_555 1_555
C10 H11 1_555 1_555
C11 C3 1_555 1_555
C12 N1 1_555 1_555
H12 C12 1_555 1_555
C13 C17 1_555 1_555
C14 C5 1_555 1_555
C15 O4 1_555 1_555
C16 C6 1_555 1_555
H13 C16 1_555 1_555
C17 C18 1_555 1_555
C18 H14 1_555 1_555
C19 O7 1_555 1_555
C20 N3 1_555 1_555
H15 C20 1_555 1_555
C21 O6 1_555 1_555
C22 N2 1_555 1_555
H16 C22 1_555 1_555
C23 C17 1_555 1_555
H17 C23 1_555 1_555
C24 N2 1_555 1_555
H18 C24 1_555 1_555
Co1_2 N4 1_555 1_555
Co1B O1 1_555 1_555
Co2_2 N1 1_555 1_555
Co2_3 O2 1_555 1_555
Co2A N3 1_555 1_555
Co3_2 O3 1_555 1_555
Co3B O7 1_555 1_555
O1B Co1 1_555 1_555
O2_2 Co2 1_555 1_555
O3_2 Co3 1_555 1_555
O7B Co3 1_555 1_555
N1_2 Co2 1_555 1_555
N3A Co2 1_555 1_555
N4_2 Co1 1_555 1_555
O8 C19 1_555 1_555
O9 C15 1_555 1_555
C1 C19 1_555 1_555
O10 C21 1_555 1_555
C4 C11 1_555 1_555
C4 C12 1_555 1_555
N4 C16 1_555 1_555
C10 C14 1_555 1_555
C10 C20 1_555 1_555
C11 C15 1_555 1_555
C14 C21 1_555 1_555
C18 C22 1_555 1_555
C23 C24 1_555 1_555
Co3B O1B 1_555 1_555
Co3B O7B 1_555 1_555

#END
