
#######################################################################
#
#                 Cambridge Crystallographic Data Centre
#                                CCDC 
#
#######################################################################
#
# If this CIF has been generated from an entry in the Cambridge 
# Structural Database, then it will include bibliographic, chemical, 
# crystal, experimental, refinement or atomic coordinate data resulting 
# from the CCDC's data processing and validation procedures.
#
#######################################################################

data_NINVAI
_chemical_formula_moiety         '(C36 H24 Fe6 O30 3+)n'
_symmetry_cell_setting           cubic
_symmetry_space_group_name_H-M   'F m -3 m'
_symmetry_Int_Tables_number      225
_space_group_name_Hall           '-F 4 2 3'
loop_
_symmetry_equiv_pos_site_id
_symmetry_equiv_pos_as_xyz
1 x,y,z
2 z,x,y
3 y,z,x
4 y,x,-z
5 y,-x,z
6 -y,x,z
7 x,z,-y
8 -x,z,y
9 x,-z,y
10 z,y,-x
11 z,-y,x
12 -z,y,x
13 x,1/2+y,1/2+z
14 z,1/2+x,1/2+y
15 y,1/2+z,1/2+x
16 y,1/2+x,1/2-z
17 y,1/2-x,1/2+z
18 -y,1/2+x,1/2+z
19 x,1/2+z,1/2-y
20 -x,1/2+z,1/2+y
21 x,1/2-z,1/2+y
22 z,1/2+y,1/2-x
23 z,1/2-y,1/2+x
24 -z,1/2+y,1/2+x
25 1/2+x,y,1/2+z
26 1/2+z,x,1/2+y
27 1/2+y,z,1/2+x
28 1/2+y,x,1/2-z
29 1/2+y,-x,1/2+z
30 1/2-y,x,1/2+z
31 1/2+x,z,1/2-y
32 1/2-x,z,1/2+y
33 1/2+x,-z,1/2+y
34 1/2+z,y,1/2-x
35 1/2+z,-y,1/2+x
36 1/2-z,y,1/2+x
37 1/2+x,1/2+y,z
38 1/2+z,1/2+x,y
39 1/2+y,1/2+z,x
40 1/2+y,1/2+x,-z
41 1/2+y,1/2-x,z
42 1/2-y,1/2+x,z
43 1/2+x,1/2+z,-y
44 1/2-x,1/2+z,y
45 1/2+x,1/2-z,y
46 1/2+z,1/2+y,-x
47 1/2+z,1/2-y,x
48 1/2-z,1/2+y,x
49 -x,-y,z
50 -x,y,-z
51 x,-y,-z
52 z,-x,-y
53 -z,-x,y
54 -z,x,-y
55 -y,z,-x
56 y,-z,-x
57 -y,-z,x
58 -y,-x,-z
59 -x,-z,-y
60 -z,-y,-x
61 -x,1/2-y,1/2+z
62 -x,1/2+y,1/2-z
63 x,1/2-y,1/2-z
64 z,1/2-x,1/2-y
65 -z,1/2-x,1/2+y
66 -z,1/2+x,1/2-y
67 -y,1/2+z,1/2-x
68 y,1/2-z,1/2-x
69 -y,1/2-z,1/2+x
70 -y,1/2-x,1/2-z
71 -x,1/2-z,1/2-y
72 -z,1/2-y,1/2-x
73 1/2-x,-y,1/2+z
74 1/2-x,y,1/2-z
75 1/2+x,-y,1/2-z
76 1/2+z,-x,1/2-y
77 1/2-z,-x,1/2+y
78 1/2-z,x,1/2-y
79 1/2-y,z,1/2-x
80 1/2+y,-z,1/2-x
81 1/2-y,-z,1/2+x
82 1/2-y,-x,1/2-z
83 1/2-x,-z,1/2-y
84 1/2-z,-y,1/2-x
85 1/2-x,1/2-y,z
86 1/2-x,1/2+y,-z
87 1/2+x,1/2-y,-z
88 1/2+z,1/2-x,-y
89 1/2-z,1/2-x,y
90 1/2-z,1/2+x,-y
91 1/2-y,1/2+z,-x
92 1/2+y,1/2-z,-x
93 1/2-y,1/2-z,x
94 1/2-y,1/2-x,-z
95 1/2-x,1/2-z,-y
96 1/2-z,1/2-y,-x
97 -x,-y,-z
98 -z,-x,-y
99 -y,-z,-x
100 -y,-x,z
101 -y,x,-z
102 y,-x,-z
103 -x,-z,y
104 x,-z,-y
105 -x,z,-y
106 -z,-y,x
107 -z,y,-x
108 z,-y,-x
109 -x,1/2-y,1/2-z
110 -z,1/2-x,1/2-y
111 -y,1/2-z,1/2-x
112 -y,1/2-x,1/2+z
113 -y,1/2+x,1/2-z
114 y,1/2-x,1/2-z
115 -x,1/2-z,1/2+y
116 x,1/2-z,1/2-y
117 -x,1/2+z,1/2-y
118 -z,1/2-y,1/2+x
119 -z,1/2+y,1/2-x
120 z,1/2-y,1/2-x
121 1/2-x,-y,1/2-z
122 1/2-z,-x,1/2-y
123 1/2-y,-z,1/2-x
124 1/2-y,-x,1/2+z
125 1/2-y,x,1/2-z
126 1/2+y,-x,1/2-z
127 1/2-x,-z,1/2+y
128 1/2+x,-z,1/2-y
129 1/2-x,z,1/2-y
130 1/2-z,-y,1/2+x
131 1/2-z,y,1/2-x
132 1/2+z,-y,1/2-x
133 1/2-x,1/2-y,-z
134 1/2-z,1/2-x,-y
135 1/2-y,1/2-z,-x
136 1/2-y,1/2-x,z
137 1/2-y,1/2+x,-z
138 1/2+y,1/2-x,-z
139 1/2-x,1/2-z,y
140 1/2+x,1/2-z,-y
141 1/2-x,1/2+z,-y
142 1/2-z,1/2-y,x
143 1/2-z,1/2+y,-x
144 1/2+z,1/2-y,-x
145 x,y,-z
146 x,-y,z
147 -x,y,z
148 -z,x,y
149 z,x,-y
150 z,-x,y
151 y,-z,x
152 -y,z,x
153 y,z,-x
154 y,x,z
155 x,z,y
156 z,y,x
157 x,1/2+y,1/2-z
158 x,1/2-y,1/2+z
159 -x,1/2+y,1/2+z
160 -z,1/2+x,1/2+y
161 z,1/2+x,1/2-y
162 z,1/2-x,1/2+y
163 y,1/2-z,1/2+x
164 -y,1/2+z,1/2+x
165 y,1/2+z,1/2-x
166 y,1/2+x,1/2+z
167 x,1/2+z,1/2+y
168 z,1/2+y,1/2+x
169 1/2+x,y,1/2-z
170 1/2+x,-y,1/2+z
171 1/2-x,y,1/2+z
172 1/2-z,x,1/2+y
173 1/2+z,x,1/2-y
174 1/2+z,-x,1/2+y
175 1/2+y,-z,1/2+x
176 1/2-y,z,1/2+x
177 1/2+y,z,1/2-x
178 1/2+y,x,1/2+z
179 1/2+x,z,1/2+y
180 1/2+z,y,1/2+x
181 1/2+x,1/2+y,-z
182 1/2+x,1/2-y,z
183 1/2-x,1/2+y,z
184 1/2-z,1/2+x,y
185 1/2+z,1/2+x,-y
186 1/2+z,1/2-x,y
187 1/2+y,1/2-z,x
188 1/2-y,1/2+z,x
189 1/2+y,1/2+z,-x
190 1/2+y,1/2+x,z
191 1/2+x,1/2+z,y
192 1/2+z,1/2+y,x
_cell_length_a                   26.6328(4)
_cell_length_b                   26.6328(4)
_cell_length_c                   26.6328(4)
_cell_angle_alpha                90
_cell_angle_beta                 90
_cell_angle_gamma                90
_cell_volume                     18890.8
loop_
_atom_site_label
_atom_site_type_symbol
_atom_site_fract_x
_atom_site_fract_y
_atom_site_fract_z
_atom_site_U_iso_or_equiv
_atom_site_thermal_displace_type
C1 C 0.2021(2) 0.2979(2) 0.0693(3) 0.0723 Uani
C2 C 0.17764(19) 0.32236(19) 0.1137(2) 0.0653 Uani
Fe1 Fe 0.21032(3) 0.21032(3) 0.0000 0.0622 Uani
O1 O 0.18341(19) 0.25845(16) 0.05356(13) 0.0960 Uani
C3 C 0.1987(3) 0.36502(19) 0.13498(19) 0.0673 Uani
H1 H 0.232(2) 0.3860(15) 0.1140(15) 0.0540 Uiso
O2 O 0.14771(19) 0.14771(19) 0.0000 0.1433 Uani
C1KD C 0.2021(2) 0.4307(3) 0.2021(2) 0.0723 Uani
C1YE C 0.0693(3) 0.2979(2) 0.2021(2) 0.0723 Uani
C1C C 0.2979(2) 0.2021(2) -0.0693(3) 0.0723 Uani
C1OF C 0.4307(3) 0.2021(2) -0.2021(2) 0.0723 Uani
C1EA C 0.2979(2) 0.0693(3) -0.2021(2) 0.0723 Uani
C1NE C 0.2021(2) 0.2979(2) -0.0693(3) 0.0723 Uani
C1T C 0.2021(2) 0.4307(3) -0.2021(2) 0.0723 Uani
C1I C 0.0693(3) 0.2979(2) -0.2021(2) 0.0723 Uani
C1WE C 0.2979(2) 0.2021(2) 0.0693(3) 0.0723 Uani
C1KE C 0.4307(3) 0.2021(2) 0.2021(2) 0.0723 Uani
C1B C 0.2979(2) 0.0693(3) 0.2021(2) 0.0723 Uani
C2KD C 0.17764(19) 0.3863(2) 0.17764(19) 0.0653 Uani
C2YE C 0.1137(2) 0.32236(19) 0.17764(19) 0.0653 Uani
C2C C 0.32236(19) 0.17764(19) -0.1137(2) 0.0653 Uani
C2OF C 0.3863(2) 0.17764(19) -0.17764(19) 0.0653 Uani
C2EA C 0.32236(19) 0.1137(2) -0.17764(19) 0.0653 Uani
C2NE C 0.17764(19) 0.32236(19) -0.1137(2) 0.0653 Uani
C2T C 0.17764(19) 0.3863(2) -0.17764(19) 0.0653 Uani
C2I C 0.1137(2) 0.32236(19) -0.17764(19) 0.0653 Uani
C2WE C 0.32236(19) 0.17764(19) 0.1137(2) 0.0653 Uani
C2KE C 0.3863(2) 0.17764(19) 0.17764(19) 0.0653 Uani
C2B C 0.32236(19) 0.1137(2) 0.17764(19) 0.0653 Uani
Fe1R Fe 0.21032(3) 0.5000 0.28968(3) 0.0622 Uani
Fe1QA Fe 0.28968(3) 0.5000 0.21032(3) 0.0622 Uani
Fe1A Fe 0.0000 0.21032(3) 0.21032(3) 0.0622 Uani
Fe1ED Fe -0.0000 0.28968(3) 0.28968(3) 0.0622 Uani
Fe1BE Fe 0.28968(3) 0.28968(3) 0.0000 0.0622 Uani
Fe1Y Fe 0.5000 0.21032(3) -0.28968(3) 0.0622 Uani
Fe1CE Fe 0.5000 0.28968(3) -0.21032(3) 0.0622 Uani
Fe1F Fe 0.21032(3) -0.0000 -0.21032(3) 0.0622 Uani
Fe1EA Fe 0.28968(3) 0.0000 -0.28968(3) 0.0622 Uani
Fe1N Fe 0.21032(3) 0.5000 -0.28968(3) 0.0622 Uani
Fe1DE Fe 0.28968(3) 0.5000 -0.21032(3) 0.0622 Uani
Fe1I Fe 0.0000 0.21032(3) -0.21032(3) 0.0622 Uani
Fe1V Fe 0.0000 0.28968(3) -0.28968(3) 0.0622 Uani
Fe1GA Fe 0.5000 0.21032(3) 0.28968(3) 0.0622 Uani
Fe1TA Fe 0.5000 0.28968(3) 0.21032(3) 0.0622 Uani
Fe1B Fe 0.21032(3) 0.0000 0.21032(3) 0.0622 Uani
Fe1RD Fe 0.28968(3) -0.0000 0.28968(3) 0.0622 Uani
O1KD O 0.18341(19) 0.44644(13) 0.24155(16) 0.0960 Uani
O1NC O 0.24155(16) 0.44644(13) 0.18341(19) 0.0960 Uani
O1YE O 0.05356(13) 0.25845(16) 0.18341(19) 0.0960 Uani
O1KB O 0.05356(13) 0.31659(19) 0.24155(16) 0.0960 Uani
O1EE O 0.24155(16) 0.31659(19) 0.05356(13) 0.0960 Uani
O1C O 0.25845(16) 0.18341(19) -0.05356(13) 0.0960 Uani
O1OF O 0.44644(13) 0.18341(19) -0.24155(16) 0.0960 Uani
O1QC O 0.44644(13) 0.24155(16) -0.18341(19) 0.0960 Uani
O1VE O 0.25845(16) 0.05356(13) -0.18341(19) 0.0960 Uani
O1EA O 0.31659(19) 0.05356(13) -0.24155(16) 0.0960 Uani
O1BE O 0.31659(19) 0.24155(16) -0.05356(13) 0.0960 Uani
O1NE O 0.18341(19) 0.25845(16) -0.05356(13) 0.0960 Uani
O1T O 0.18341(19) 0.44644(13) -0.24155(16) 0.0960 Uani
O1DE O 0.24155(16) 0.44644(13) -0.18341(19) 0.0960 Uani
O1I O 0.05356(13) 0.25845(16) -0.18341(19) 0.0960 Uani
O1EF O 0.05356(13) 0.31659(19) -0.24155(16) 0.0960 Uani
O1OC O 0.24155(16) 0.31659(19) -0.05356(13) 0.0960 Uani
O1WE O 0.25845(16) 0.18341(19) 0.05356(13) 0.0960 Uani
O1YB O 0.44644(13) 0.18341(19) 0.24155(16) 0.0960 Uani
O1KE O 0.44644(13) 0.24155(16) 0.18341(19) 0.0960 Uani
O1B O 0.25845(16) 0.05356(13) 0.18341(19) 0.0960 Uani
O1XD O 0.31659(19) 0.05356(13) 0.24155(16) 0.0960 Uani
O1FC O 0.31659(19) 0.24155(16) 0.05356(13) 0.0960 Uani
O1R O 0.18341(19) 0.55356(13) 0.24155(16) 0.0960 Uani
O1HF O 0.25845(16) 0.55356(13) 0.31659(19) 0.0960 Uani
O1OB O 0.25845(16) 0.44644(13) 0.31659(19) 0.0960 Uani
O1QA O 0.31659(19) 0.55356(13) 0.25845(16) 0.0960 Uani
O1EG O 0.24155(16) 0.55356(13) 0.18341(19) 0.0960 Uani
O1HE O 0.31659(19) 0.44644(13) 0.25845(16) 0.0960 Uani
O1A O 0.05356(13) 0.18341(19) 0.25845(16) 0.0960 Uani
O1K O -0.05356(13) 0.25845(16) 0.18341(19) 0.0960 Uani
O1QE O -0.05356(13) 0.18341(19) 0.25845(16) 0.0960 Uani
O1ED O -0.05356(13) 0.31659(19) 0.24155(16) 0.0960 Uani
O1OD O 0.05356(13) 0.24155(16) 0.31659(19) 0.0960 Uani
O1SB O -0.05356(13) 0.24155(16) 0.31659(19) 0.0960 Uani
C3YE C 0.13498(19) 0.36502(19) 0.1987(3) 0.0673 Uani
C3EE C 0.13498(19) 0.3013(3) 0.13498(19) 0.0673 Uani
C3C C 0.36502(19) 0.1987(3) -0.13498(19) 0.0673 Uani
C3VE C 0.36502(19) 0.13498(19) -0.1987(3) 0.0673 Uani
C3EA C 0.3013(3) 0.13498(19) -0.13498(19) 0.0673 Uani
C3T C 0.1987(3) 0.36502(19) -0.13498(19) 0.0673 Uani
C3I C 0.13498(19) 0.36502(19) -0.1987(3) 0.0673 Uani
C3EF C 0.13498(19) 0.3013(3) -0.13498(19) 0.0673 Uani
C3WE C 0.36502(19) 0.1987(3) 0.13498(19) 0.0673 Uani
C3B C 0.36502(19) 0.13498(19) 0.1987(3) 0.0673 Uani
C3XD C 0.3013(3) 0.13498(19) 0.13498(19) 0.0673 Uani
H1EE H 0.1140(15) 0.268(2) 0.1140(15) 0.0540 Uiso
H1YE H 0.1140(15) 0.3860(15) 0.232(2) 0.0540 Uiso
H1C H 0.3860(15) 0.232(2) -0.1140(15) 0.0540 Uiso
H1EA H 0.268(2) 0.1140(15) -0.1140(15) 0.0540 Uiso
H1VE H 0.3860(15) 0.1140(15) -0.232(2) 0.0540 Uiso
H1T H 0.232(2) 0.3860(15) -0.1140(15) 0.0540 Uiso
H1EF H 0.1140(15) 0.268(2) -0.1140(15) 0.0540 Uiso
H1I H 0.1140(15) 0.3860(15) -0.232(2) 0.0540 Uiso
H1WE H 0.3860(15) 0.232(2) 0.1140(15) 0.0540 Uiso
H1XD H 0.268(2) 0.1140(15) 0.1140(15) 0.0540 Uiso
H1B H 0.3860(15) 0.1140(15) 0.232(2) 0.0540 Uiso
O2R O 0.14771(19) 0.5000 0.35229(19) 0.1433 Uani
O2QA O 0.35229(19) 0.5000 0.14771(19) 0.1433 Uani
O2A O -0.0000 0.14771(19) 0.14771(19) 0.1433 Uani
O2ED O 0.0000 0.35229(19) 0.35229(19) 0.1433 Uani
O2BE O 0.35229(19) 0.35229(19) 0.0000 0.1433 Uani
loop_
_atom_site_aniso_label
_atom_site_aniso_U_11
_atom_site_aniso_U_22
_atom_site_aniso_U_33
_atom_site_aniso_U_23
_atom_site_aniso_U_13
_atom_site_aniso_U_12
C1 0.087(3) 0.087(3) 0.043(4) -0.003(3) 0.003(3) -0.006(4)
C2 0.068(3) 0.068(3) 0.060(4) 0.001(2) -0.001(2) -0.001(3)
Fe1 0.0754(9) 0.0754(9) 0.0357(8) 0.000 0.000 -0.0249(6)
O1 0.127(4) 0.104(3) 0.057(2) -0.019(2) 0.001(2) -0.015(3)
C3 0.078(5) 0.062(3) 0.062(3) 0.008(3) 0.002(2) -0.002(2)
O2 0.111(5) 0.111(5) 0.208(12) 0.000 0.000 -0.073(6)
C1KD 0.087 0.043 0.087 -0.003 0.006 -0.003
C1YE 0.043 0.087 0.087 -0.006 0.003 -0.003
C1C 0.087 0.087 0.043 -0.003 0.003 -0.006
C1OF 0.043 0.087 0.087 -0.006 0.003 -0.003
C1EA 0.087 0.043 0.087 -0.003 0.006 -0.003
C1NE 0.087 0.087 0.043 0.003 -0.003 -0.006
C1T 0.087 0.043 0.087 0.003 -0.006 -0.003
C1I 0.043 0.087 0.087 0.006 -0.003 -0.003
C1WE 0.087 0.087 0.043 0.003 -0.003 -0.006
C1KE 0.043 0.087 0.087 0.006 -0.003 -0.003
C1B 0.087 0.043 0.087 0.003 -0.006 -0.003
C2KD 0.068 0.06 0.068 0.001 0.001 0.001
C2YE 0.06 0.068 0.068 -0.001 -0.001 0.001
C2C 0.068 0.068 0.06 0.001 -0.001 -0.001
C2OF 0.06 0.068 0.068 -0.001 -0.001 0.001
C2EA 0.068 0.06 0.068 0.001 0.001 0.001
C2NE 0.068 0.068 0.06 -0.001 0.001 -0.001
C2T 0.068 0.06 0.068 -0.001 -0.001 0.001
C2I 0.06 0.068 0.068 0.001 0.001 0.001
C2WE 0.068 0.068 0.06 -0.001 0.001 -0.001
C2KE 0.06 0.068 0.068 0.001 0.001 0.001
C2B 0.068 0.06 0.068 -0.001 -0.001 0.001
Fe1R 0.0754 0.0357 0.0754 0 0.0249 0
Fe1QA 0.0754 0.0357 0.0754 0 0.0249 0
Fe1A 0.0357 0.0754 0.0754 -0.0249 0 0
Fe1ED 0.0357 0.0754 0.0754 -0.0249 0 0
Fe1BE 0.0754 0.0754 0.0357 0 0 -0.0249
Fe1Y 0.0357 0.0754 0.0754 -0.0249 0 0
Fe1CE 0.0357 0.0754 0.0754 -0.0249 0 0
Fe1F 0.0754 0.0357 0.0754 0 0.0249 0
Fe1EA 0.0754 0.0357 0.0754 0 0.0249 0
Fe1N 0.0754 0.0357 0.0754 0 -0.0249 0
Fe1DE 0.0754 0.0357 0.0754 0 -0.0249 0
Fe1I 0.0357 0.0754 0.0754 0.0249 0 0
Fe1V 0.0357 0.0754 0.0754 0.0249 0 0
Fe1GA 0.0357 0.0754 0.0754 0.0249 0 0
Fe1TA 0.0357 0.0754 0.0754 0.0249 0 0
Fe1B 0.0754 0.0357 0.0754 0 -0.0249 0
Fe1RD 0.0754 0.0357 0.0754 0 -0.0249 0
O1KD 0.127 0.057 0.104 -0.019 0.015 -0.001
O1NC 0.104 0.057 0.127 -0.001 0.015 -0.019
O1YE 0.057 0.104 0.127 -0.015 0.001 -0.019
O1KB 0.057 0.127 0.104 -0.015 0.019 -0.001
O1EE 0.104 0.127 0.057 -0.001 0.019 -0.015
O1C 0.104 0.127 0.057 -0.001 0.019 -0.015
O1OF 0.057 0.127 0.104 -0.015 0.019 -0.001
O1QC 0.057 0.104 0.127 -0.015 0.001 -0.019
O1VE 0.104 0.057 0.127 -0.001 0.015 -0.019
O1EA 0.127 0.057 0.104 -0.019 0.015 -0.001
O1BE 0.127 0.104 0.057 -0.019 0.001 -0.015
O1NE 0.127 0.104 0.057 0.019 -0.001 -0.015
O1T 0.127 0.057 0.104 0.019 -0.015 -0.001
O1DE 0.104 0.057 0.127 0.001 -0.015 -0.019
O1I 0.057 0.104 0.127 0.015 -0.001 -0.019
O1EF 0.057 0.127 0.104 0.015 -0.019 -0.001
O1OC 0.104 0.127 0.057 0.001 -0.019 -0.015
O1WE 0.104 0.127 0.057 0.001 -0.019 -0.015
O1YB 0.057 0.127 0.104 0.015 -0.019 -0.001
O1KE 0.057 0.104 0.127 0.015 -0.001 -0.019
O1B 0.104 0.057 0.127 0.001 -0.015 -0.019
O1XD 0.127 0.057 0.104 0.019 -0.015 -0.001
O1FC 0.127 0.104 0.057 0.019 -0.001 -0.015
O1R 0.127 0.057 0.104 0.019 0.015 0.001
O1HF 0.104 0.057 0.127 -0.001 0.015 -0.019
O1OB 0.104 0.057 0.127 0.001 0.015 0.019
O1QA 0.127 0.057 0.104 -0.019 0.015 -0.001
O1EG 0.104 0.057 0.127 0.001 0.015 0.019
O1HE 0.127 0.057 0.104 0.019 0.015 0.001
O1A 0.057 0.127 0.104 -0.015 -0.019 0.001
O1K 0.057 0.104 0.127 -0.015 -0.001 0.019
O1QE 0.057 0.127 0.104 -0.015 0.019 -0.001
O1ED 0.057 0.127 0.104 -0.015 -0.019 0.001
O1OD 0.057 0.104 0.127 -0.015 -0.001 0.019
O1SB 0.057 0.104 0.127 -0.015 0.001 -0.019
C3YE 0.062 0.062 0.078 -0.002 0.002 0.008
C3EE 0.062 0.078 0.062 -0.002 -0.008 -0.002
C3C 0.062 0.078 0.062 -0.002 -0.008 -0.002
C3VE 0.062 0.062 0.078 -0.002 0.002 0.008
C3EA 0.078 0.062 0.062 0.008 0.002 -0.002
C3T 0.078 0.062 0.062 -0.008 -0.002 -0.002
C3I 0.062 0.062 0.078 0.002 -0.002 0.008
C3EF 0.062 0.078 0.062 0.002 0.008 -0.002
C3WE 0.062 0.078 0.062 0.002 0.008 -0.002
C3B 0.062 0.062 0.078 0.002 -0.002 0.008
C3XD 0.078 0.062 0.062 -0.008 -0.002 -0.002
O2R 0.111 0.208 0.111 0 0.073 0
O2QA 0.111 0.208 0.111 0 0.073 0
O2A 0.208 0.111 0.111 -0.073 0 0
O2ED 0.208 0.111 0.111 -0.073 0 0
O2BE 0.111 0.111 0.208 0 0 -0.073
loop_
_geom_bond_atom_site_label_1
_geom_bond_atom_site_label_2
_geom_bond_site_symmetry_1
_geom_bond_site_symmetry_2
C1 C2 1_555 1_555
C2 C3 1_555 1_555
Fe1 O1 1_555 1_555
O1 C1 1_555 1_555
C3 H1 1_555 1_555
O2 Fe1 1_555 1_555
C1KD C2KD 1_555 1_555
C1YE C2YE 1_555 1_555
C1C C2C 1_555 1_555
C1OF C2OF 1_555 1_555
C1EA C2EA 1_555 1_555
C1NE C2NE 1_555 1_555
C1T C2T 1_555 1_555
C1I C2I 1_555 1_555
C1WE C2WE 1_555 1_555
C1KE C2KE 1_555 1_555
C1B C2B 1_555 1_555
C2KD C3 1_555 1_555
C2YE C3YE 1_555 1_555
C2C C3C 1_555 1_555
C2OF C3C 1_555 1_555
C2EA C3VE 1_555 1_555
C2NE C3T 1_555 1_555
C2T C3T 1_555 1_555
C2I C3I 1_555 1_555
C2WE C3WE 1_555 1_555
C2KE C3WE 1_555 1_555
C2B C3B 1_555 1_555
Fe1R O1KD 1_555 1_555
Fe1QA O1NC 1_555 1_555
Fe1A O1YE 1_555 1_555
Fe1ED O1KB 1_555 1_555
Fe1BE O1EE 1_555 1_555
Fe1Y O1OF 1_555 1_555
Fe1CE O1QC 1_555 1_555
Fe1F O1VE 1_555 1_555
Fe1EA O1EA 1_555 1_555
Fe1N O1T 1_555 1_555
Fe1DE O1DE 1_555 1_555
Fe1I O1I 1_555 1_555
Fe1V O1EF 1_555 1_555
Fe1GA O1YB 1_555 1_555
Fe1TA O1KE 1_555 1_555
Fe1B O1B 1_555 1_555
Fe1RD O1XD 1_555 1_555
O1KD C1KD 1_555 1_555
O1NC C1KD 1_555 1_555
O1YE C1YE 1_555 1_555
O1KB C1YE 1_555 1_555
O1EE C1 1_555 1_555
O1C Fe1 1_555 1_555
O1OF C1OF 1_555 1_555
O1QC C1OF 1_555 1_555
O1VE C1EA 1_555 1_555
O1EA C1EA 1_555 1_555
O1BE C1C 1_555 1_555
O1NE Fe1 1_555 1_555
O1T C1T 1_555 1_555
O1DE C1T 1_555 1_555
O1I C1I 1_555 1_555
O1EF C1I 1_555 1_555
O1OC C1NE 1_555 1_555
O1WE Fe1 1_555 1_555
O1YB C1KE 1_555 1_555
O1KE C1KE 1_555 1_555
O1B C1B 1_555 1_555
O1XD C1B 1_555 1_555
O1FC C1WE 1_555 1_555
O1R Fe1R 1_555 1_555
O1HF Fe1R 1_555 1_555
O1OB Fe1R 1_555 1_555
O1QA Fe1QA 1_555 1_555
O1EG Fe1QA 1_555 1_555
O1HE Fe1QA 1_555 1_555
O1A Fe1A 1_555 1_555
O1K Fe1A 1_555 1_555
O1QE Fe1A 1_555 1_555
O1ED Fe1ED 1_555 1_555
O1OD Fe1ED 1_555 1_555
O1SB Fe1ED 1_555 1_555
C3YE C2KD 1_555 1_555
C3EE C2 1_555 1_555
C3C H1C 1_555 1_555
C3VE C2OF 1_555 1_555
C3EA C2C 1_555 1_555
C3T H1T 1_555 1_555
C3I C2T 1_555 1_555
C3EF C2NE 1_555 1_555
C3WE H1WE 1_555 1_555
C3B C2KE 1_555 1_555
C3XD C2WE 1_555 1_555
H1EE C3EE 1_555 1_555
H1YE C3YE 1_555 1_555
H1EA C3EA 1_555 1_555
H1VE C3VE 1_555 1_555
H1EF C3EF 1_555 1_555
H1I C3I 1_555 1_555
H1XD C3XD 1_555 1_555
H1B C3B 1_555 1_555
O2R Fe1R 1_555 1_555
O2QA Fe1QA 1_555 1_555
O2A Fe1A 1_555 1_555
O2ED Fe1ED 1_555 1_555
O2BE Fe1BE 1_555 1_555
C1C O1C 1_555 1_555
C1NE O1NE 1_555 1_555
C1WE O1WE 1_555 1_555
C2YE C3EE 1_555 1_555
C2EA C3EA 1_555 1_555
C2I C3EF 1_555 1_555
C2B C3XD 1_555 1_555
Fe1BE O1BE 1_555 1_555
Fe1BE O1OC 1_555 1_555
Fe1BE O1FC 1_555 1_555

#END
