
#######################################################################
#
#                 Cambridge Crystallographic Data Centre
#                                CCDC 
#
#######################################################################
#
# If this CIF has been generated from an entry in the Cambridge 
# Structural Database, then it will include bibliographic, chemical, 
# crystal, experimental, refinement or atomic coordinate data resulting 
# from the CCDC's data processing and validation procedures.
#
#######################################################################

data_COMZIP
_chemical_formula_moiety         '(C28 H26 N4 O7 Zn1)n'
_symmetry_cell_setting           monoclinic
_symmetry_space_group_name_H-M   'P 21/c'
_symmetry_Int_Tables_number      14
_space_group_name_Hall           '-P 2ybc'
loop_
_symmetry_equiv_pos_site_id
_symmetry_equiv_pos_as_xyz
1 x,y,z
2 -x,1/2+y,1/2-z
3 -x,-y,-z
4 x,1/2-y,1/2+z
_cell_length_a                   9.6217(5)
_cell_length_b                   28.6285(14)
_cell_length_c                   10.4801(5)
_cell_angle_alpha                90
_cell_angle_beta                 111.3760(10)
_cell_angle_gamma                90
_cell_volume                     2688.21
loop_
_atom_site_label
_atom_site_type_symbol
_atom_site_fract_x
_atom_site_fract_y
_atom_site_fract_z
Zn1 Zn 0.58331(5) -0.460257(15) -0.10992(4)
O1 O 1.1919(6) -0.27682(14) -0.3735(7)
O2 O 0.6396(4) -0.38334(11) -0.1180(3)
O3 O 0.7349(4) -0.43668(10) -0.2104(3)
O4 O 1.4379(3) -0.06297(10) -0.5232(3)
O5 O 1.3837(3) -0.02870(9) -0.3558(3)
N1 N -0.2377(4) -0.46442(12) -0.9164(3)
N2 N 0.3976(4) -0.45953(12) -0.3005(3)
C1 C -0.2326(5) -0.43774(15) -0.8107(4)
H1 H -0.3164 -0.4186 -0.8197
C2 C -0.1125(5) -0.43649(16) -0.6893(4)
H2 H -0.1148 -0.4169 -0.6169
C3 C 0.0131(4) -0.46388(15) -0.6720(4)
C4 C 0.0060(5) -0.49208(15) -0.7820(4)
H3 H 0.0870 -0.5121 -0.7755
C5 C -0.1185(4) -0.49102(15) -0.9005(4)
H4 H -0.1198 -0.5102 -0.9749
C6 C 0.1474(4) -0.46240(15) -0.5441(4)
C7 C 0.1629(6) -0.4296(2) -0.4443(5)
H5 H 0.0873 -0.4067 -0.4574
C8 C 0.2868(6) -0.42953(19) -0.3255(5)
H6 H 0.2929 -0.4067 -0.2578
C9 C 0.3843(5) -0.49067(18) -0.3973(5)
H7 H 0.4626 -0.5127 -0.3819
C10 C 0.2641(5) -0.49321(18) -0.5192(4)
H8 H 0.2617 -0.5161 -0.5856
C11 C 0.7239(5) -0.39480(15) -0.1807(4)
C12 C 0.8092(5) -0.35785(15) -0.2205(5)
C13 C 0.7825(7) -0.31149(19) -0.2071(7)
H9 H 0.7090 -0.3027 -0.1709
C14 C 0.8607(9) -0.2774(2) -0.2455(8)
H10 H 0.8412 -0.2455 -0.2347
C15 C 0.9678(8) -0.2893(2) -0.2998(6)
C16 C 0.9986(10) -0.3352(3) -0.3063(9)
H11 H 1.0760 -0.3441 -0.3375
C17 C 0.9201(8) -0.3692(2) -0.2685(8)
H12 H 0.9430 -0.4011 -0.2758
C18 C 1.1537(9) -0.1856(3) -0.3842(7)
C19 C 1.1317(8) -0.1442(3) -0.3335(7)
H13 H 1.0635 -0.1422 -0.2871
C20 C 1.2061(6) -0.1048(2) -0.3477(6)
H14 H 1.1906 -0.0761 -0.3090
C21 C 1.3030(5) -0.10613(14) -0.4175(4)
C22 C 1.3226(6) -0.14788(17) -0.4734(5)
H15 H 1.3869 -0.1495 -0.5238
C23 C 1.2491(9) -0.18755(19) -0.4565(7)
H16 H 1.2640 -0.2164 -0.4946
C24 C 1.3814(4) -0.06253(13) -0.4332(4)
C25 C 1.0850(15) -0.2632(4) -0.3410(13)
N3 N 1.0453(11) -0.2163(3) -0.3579(9)
Zn1_2 Zn -0.41669(5) -0.460257(15) -1.10992(4)
Zn1A Zn 1.41669(5) 0.039743(15) -0.39008(4)
Zn1C Zn 1.58331(5) -0.039743(15) -0.60992(4)
O4C O 0.4379(3) -0.43703(10) -0.0232(3)
O5A O 0.6163(3) -0.52870(9) -0.1442(3)
N1_2 N 0.7623(4) -0.46442(12) 0.0836(3)
O6 O 0.7595(6) -0.17601(17) -0.3844(5)
N4 N 0.513(3) -0.3191(5) -0.574(3)
O7 O 0.6654(18) -0.3600(5) -0.6606(17)
C26 C 0.5875(16) -0.3590(5) -0.5988(15)
H17 H 0.5715 -0.3877 -0.5609
C27 C 0.428(3) -0.3252(14) -0.484(3)
H18 H 0.4285 -0.3582 -0.4597
H19 H 0.3251 -0.3148 -0.5321
H20 H 0.4739 -0.3066 -0.4008
C28 C 0.5449(19) -0.2731(5) -0.6141(17)
H21 H 0.6288 -0.2750 -0.6458
H22 H 0.5706 -0.2519 -0.5354
H23 H 0.4567 -0.2612 -0.6883
loop_
_geom_bond_atom_site_label_1
_geom_bond_atom_site_label_2
_geom_bond_site_symmetry_1
_geom_bond_site_symmetry_2
Zn1 O2 1_555 1_555
O1 C25 1_555 1_555
O2 C11 1_555 1_555
O3 Zn1 1_555 1_555
O4 C24 1_555 1_555
O5 C24 1_555 1_555
N1 C1 1_555 1_555
N2 Zn1 1_555 1_555
C1 H1 1_555 1_555
C2 C1 1_555 1_555
H2 C2 1_555 1_555
C3 C2 1_555 1_555
C4 C3 1_555 1_555
H3 C4 1_555 1_555
C5 N1 1_555 1_555
H4 C5 1_555 1_555
C6 C3 1_555 1_555
C7 C6 1_555 1_555
H5 C7 1_555 1_555
C8 N2 1_555 1_555
H6 C8 1_555 1_555
C9 N2 1_555 1_555
H7 C9 1_555 1_555
C10 C6 1_555 1_555
H8 C10 1_555 1_555
C11 O3 1_555 1_555
C12 C11 1_555 1_555
C13 C12 1_555 1_555
H9 C13 1_555 1_555
C14 C13 1_555 1_555
H10 C14 1_555 1_555
C15 C14 1_555 1_555
C16 C15 1_555 1_555
H11 C16 1_555 1_555
C17 C12 1_555 1_555
H12 C17 1_555 1_555
C18 C19 1_555 1_555
C19 H13 1_555 1_555
C20 C19 1_555 1_555
H14 C20 1_555 1_555
C21 C20 1_555 1_555
C22 C21 1_555 1_555
H15 C22 1_555 1_555
C23 C18 1_555 1_555
H16 C23 1_555 1_555
C24 C21 1_555 1_555
C25 C15 1_555 1_555
N3 C18 1_555 1_555
N4 C26 1_555 1_555
O7 C26 1_555 1_555
C26 H17 1_555 1_555
C27 N4 1_555 1_555
H18 C27 1_555 1_555
H19 C27 1_555 1_555
H20 C27 1_555 1_555
C28 N4 1_555 1_555
H21 C28 1_555 1_555
H22 C28 1_555 1_555
H23 C28 1_555 1_555
Zn1_2 N1 1_555 1_555
Zn1A O5 1_555 1_555
Zn1C O4 1_555 1_555
O4C Zn1 1_555 1_555
O5A Zn1 1_555 1_555
N1_2 Zn1 1_555 1_555
C4 C5 1_555 1_555
C7 C8 1_555 1_555
C9 C10 1_555 1_555
C16 C17 1_555 1_555
C22 C23 1_555 1_555
C25 N3 1_555 1_555

#END
