
#######################################################################
#
#                 Cambridge Crystallographic Data Centre
#                                CCDC 
#
#######################################################################
#
# If this CIF has been generated from an entry in the Cambridge 
# Structural Database, then it will include bibliographic, chemical, 
# crystal, experimental, refinement or atomic coordinate data resulting 
# from the CCDC's data processing and validation procedures.
#
#######################################################################

data_DIBQEM
_chemical_formula_moiety         '(C108 H78 Co9 O39)n'
_symmetry_cell_setting           cubic
_symmetry_space_group_name_H-M   'I m -3'
_symmetry_Int_Tables_number      204
_space_group_name_Hall           '-I 2 2 3'
loop_
_symmetry_equiv_pos_site_id
_symmetry_equiv_pos_as_xyz
1 x,y,z
2 -x,-y,z
3 -x,y,-z
4 x,-y,-z
5 z,x,y
6 z,-x,-y
7 -z,-x,y
8 -z,x,-y
9 y,z,x
10 -y,z,-x
11 y,-z,-x
12 -y,-z,x
13 1/2+x,1/2+y,1/2+z
14 1/2-x,1/2-y,1/2+z
15 1/2-x,1/2+y,1/2-z
16 1/2+x,1/2-y,1/2-z
17 1/2+z,1/2+x,1/2+y
18 1/2+z,1/2-x,1/2-y
19 1/2-z,1/2-x,1/2+y
20 1/2-z,1/2+x,1/2-y
21 1/2+y,1/2+z,1/2+x
22 1/2-y,1/2+z,1/2-x
23 1/2+y,1/2-z,1/2-x
24 1/2-y,1/2-z,1/2+x
25 -x,-y,-z
26 x,y,-z
27 x,-y,z
28 -x,y,z
29 -z,-x,-y
30 -z,x,y
31 z,x,-y
32 z,-x,y
33 -y,-z,-x
34 y,-z,x
35 -y,z,x
36 y,z,-x
37 1/2-x,1/2-y,1/2-z
38 1/2+x,1/2+y,1/2-z
39 1/2+x,1/2-y,1/2+z
40 1/2-x,1/2+y,1/2+z
41 1/2-z,1/2-x,1/2-y
42 1/2-z,1/2+x,1/2+y
43 1/2+z,1/2+x,1/2-y
44 1/2+z,1/2-x,1/2+y
45 1/2-y,1/2-z,1/2-x
46 1/2+y,1/2-z,1/2+x
47 1/2-y,1/2+z,1/2+x
48 1/2+y,1/2+z,1/2-x
_cell_length_a                   27.24960(10)
_cell_length_b                   27.24960(10)
_cell_length_c                   27.24960(10)
_cell_angle_alpha                90
_cell_angle_beta                 90
_cell_angle_gamma                90
_cell_volume                     20233.9
loop_
_atom_site_label
_atom_site_type_symbol
_atom_site_fract_x
_atom_site_fract_y
_atom_site_fract_z
Co1 Co 0.5000 0.05552(12) 0.05463(12)
Co2 Co 0.5000 0.16840(9) 0.0000
O1 O 0.4383(3) 0.0925(2) 0.0777(3)
O2 O 0.4468(2) 0.1706(2) 0.0529(2)
O3 O 0.5000 0.0905(4) 0.0000
O4 O 0.4468(4) -0.0000 0.0319(4)
O5 O 0.5000 -0.0000 0.1104(5)
O6 O 0.5000 0.2460(5) 0.0000
C1 C 0.4268(4) 0.1387(4) 0.0756(4)
C2 C 0.3810(4) 0.1532(3) 0.1062(4)
C3 C 0.3522(4) 0.1178(4) 0.1312(4)
H1 H 0.3618 0.0850 0.1317
C4 C 0.3114(4) 0.1318(3) 0.1539(4)
H2 H 0.2904 0.1081 0.1666
C5 C 0.2994(3) 0.1824(3) 0.1592(4)
C6 C 0.3295(3) 0.2173(3) 0.1382(3)
H3 H 0.3231 0.2505 0.1427
C7 C 0.3693(4) 0.2027(3) 0.1104(4)
H4 H 0.3884 0.2260 0.0945
C8 C 0.2535(4) 0.1981(3) 0.1857(4)
C9 C 0.2384(3) 0.1716(3) 0.2279(3)
H5 H 0.2563 0.1444 0.2381
O1D O 0.0777(3) 0.4383(3) 0.0925(2)
O2D O 0.0529(2) 0.4468(2) 0.1706(2)
C1D C 0.0756(4) 0.4268(4) 0.1387(4)
C2D C 0.1062(4) 0.3810(4) 0.1532(3)
C3D C 0.1312(4) 0.3522(4) 0.1178(4)
H1D H 0.1317 0.3618 0.0850
C4D C 0.1539(4) 0.3114(4) 0.1318(3)
H2D H 0.1666 0.2904 0.1081
C5D C 0.1592(4) 0.2994(3) 0.1824(3)
C6D C 0.1382(3) 0.3295(3) 0.2173(3)
H3D H 0.1427 0.3231 0.2505
C7D C 0.1104(4) 0.3693(4) 0.2027(3)
H4D H 0.0945 0.3884 0.2260
C8D C 0.1857(4) 0.2535(4) 0.1981(3)
C9D C 0.2279(3) 0.2384(3) 0.1716(3)
H5D H 0.2381 0.2563 0.1444
O1H O 0.0925(2) 0.0777(3) 0.4383(3)
O2H O 0.1706(2) 0.0529(2) 0.4468(2)
C1H C 0.1387(4) 0.0756(4) 0.4268(4)
C2H C 0.1532(3) 0.1062(4) 0.3810(4)
C3H C 0.1178(4) 0.1312(4) 0.3522(4)
H1H H 0.0850 0.1317 0.3618
C4H C 0.1318(3) 0.1539(4) 0.3114(4)
H2H H 0.1081 0.1666 0.2904
C5H C 0.1824(3) 0.1592(4) 0.2994(3)
C6H C 0.2173(3) 0.1382(3) 0.3295(3)
H3H H 0.2505 0.1427 0.3231
C7H C 0.2027(3) 0.1104(4) 0.3693(4)
H4H H 0.2260 0.0945 0.3884
C8H C 0.1981(3) 0.1857(4) 0.2535(4)
C9H C 0.1716(3) 0.2279(3) 0.2384(3)
H5H H 0.1444 0.2381 0.2563
Co1A Co 0.5000 -0.05552(12) 0.05463(12)
Co2A Co 0.5000 -0.16840(9) 0.0000
O3A O 0.5000 -0.0905(4) 0.0000
O4A O 0.5532(4) -0.0000 0.0319(4)
O6A O 0.5000 -0.2460(5) 0.0000
Co1B Co 0.5000 0.05552(12) -0.05463(12)
O4B O 0.5532(4) 0.0000 -0.0319(4)
O5B O 0.5000 0.0000 -0.1104(5)
Co1C Co 0.5000 -0.05552(12) -0.05463(12)
O1C O 0.4383(3) -0.0925(2) -0.0777(3)
O2C O 0.4468(2) -0.1706(2) -0.0529(2)
O4C O 0.4468(4) 0.0000 -0.0319(4)
C1C C 0.4268(4) -0.1387(4) -0.0756(4)
C2C C 0.3810(4) -0.1532(3) -0.1062(4)
C3C C 0.3522(4) -0.1178(4) -0.1312(4)
H1C H 0.3618 -0.0850 -0.1317
C4C C 0.3114(4) -0.1318(3) -0.1539(4)
H2C H 0.2904 -0.1081 -0.1666
C5C C 0.2994(3) -0.1824(3) -0.1592(4)
C6C C 0.3295(3) -0.2173(3) -0.1382(3)
H3C H 0.3231 -0.2505 -0.1427
C7C C 0.3693(4) -0.2027(3) -0.1104(4)
H4C H 0.3884 -0.2260 -0.0945
C8C C 0.2535(4) -0.1981(3) -0.1857(4)
C9C C 0.2384(3) -0.1716(3) -0.2279(3)
H5C H 0.2563 -0.1444 -0.2381
O1E O 0.0777(3) -0.4383(3) -0.0925(2)
O2E O 0.0529(2) -0.4468(2) -0.1706(2)
C1E C 0.0756(4) -0.4268(4) -0.1387(4)
C2E C 0.1062(4) -0.3810(4) -0.1532(3)
C3E C 0.1312(4) -0.3522(4) -0.1178(4)
H1E H 0.1317 -0.3618 -0.0850
C4E C 0.1539(4) -0.3114(4) -0.1318(3)
H2E H 0.1666 -0.2904 -0.1081
C5E C 0.1592(4) -0.2994(3) -0.1824(3)
C6E C 0.1382(3) -0.3295(3) -0.2173(3)
H3E H 0.1427 -0.3231 -0.2505
C7E C 0.1104(4) -0.3693(4) -0.2027(3)
H4E H 0.0945 -0.3884 -0.2260
C8E C 0.1857(4) -0.2535(4) -0.1981(3)
C9E C 0.2279(3) -0.2384(3) -0.1716(3)
H5E H 0.2381 -0.2563 -0.1444
O1J O 0.0925(2) -0.0777(3) -0.4383(3)
O2J O 0.1706(2) -0.0529(2) -0.4468(2)
C1J C 0.1387(4) -0.0756(4) -0.4268(4)
C2J C 0.1532(3) -0.1062(4) -0.3810(4)
C3J C 0.1178(4) -0.1312(4) -0.3522(4)
H1J H 0.0850 -0.1317 -0.3618
C4J C 0.1318(3) -0.1539(4) -0.3114(4)
H2J H 0.1081 -0.1666 -0.2904
C5J C 0.1824(3) -0.1592(4) -0.2994(3)
C6J C 0.2173(3) -0.1382(3) -0.3295(3)
H3J H 0.2505 -0.1427 -0.3231
C7J C 0.2027(3) -0.1104(4) -0.3693(4)
H4J H 0.2260 -0.0945 -0.3884
C8J C 0.1981(3) -0.1857(4) -0.2535(4)
C9J C 0.1716(3) -0.2279(3) -0.2384(3)
H5J H 0.1444 -0.2381 -0.2563
Co1D Co 0.05463(12) 0.5000 0.05552(12)
Co2D Co -0.0000 0.5000 0.16840(9)
O3D O -0.0000 0.5000 0.0905(4)
O4D O 0.0319(4) 0.4468(4) 0.0000
O5D O 0.1104(5) 0.5000 0.0000
O6D O -0.0000 0.5000 0.2460(5)
Co1H Co 0.05552(12) 0.05463(12) 0.5000
O4H O -0.0000 0.0319(4) 0.4468(4)
O1X O 0.5617(3) -0.0925(2) -0.0777(3)
O2X O 0.5532(2) -0.1706(2) -0.0529(2)
C1X C 0.5732(4) -0.1387(4) -0.0756(4)
C2X C 0.6190(4) -0.1532(3) -0.1062(4)
C3X C 0.6478(4) -0.1178(4) -0.1312(4)
H1X H 0.6382 -0.0850 -0.1317
C4X C 0.6886(4) -0.1318(3) -0.1539(4)
H2X H 0.7096 -0.1081 -0.1666
C5X C 0.7006(3) -0.1824(3) -0.1592(4)
C6X C 0.6705(3) -0.2173(3) -0.1382(3)
H3X H 0.6769 -0.2505 -0.1427
C7X C 0.6307(4) -0.2027(3) -0.1104(4)
H4X H 0.6116 -0.2260 -0.0945
C8X C 0.7465(4) -0.1981(3) -0.1857(4)
C9X C 0.7616(3) -0.1716(3) -0.2279(3)
H5X H 0.7437 -0.1444 -0.2381
O1BA O 0.9223(3) -0.4383(3) -0.0925(2)
O2BA O 0.9471(2) -0.4468(2) -0.1706(2)
C1BA C 0.9244(4) -0.4268(4) -0.1387(4)
C2BA C 0.8938(4) -0.3810(4) -0.1532(3)
C3BA C 0.8688(4) -0.3522(4) -0.1178(4)
H1BA H 0.8683 -0.3618 -0.0850
C4BA C 0.8461(4) -0.3114(4) -0.1318(3)
H2BA H 0.8334 -0.2904 -0.1081
C5BA C 0.8408(4) -0.2994(3) -0.1824(3)
C6BA C 0.8618(3) -0.3295(3) -0.2173(3)
H3BA H 0.8573 -0.3231 -0.2505
C7BA C 0.8896(4) -0.3693(4) -0.2027(3)
H4BA H 0.9055 -0.3884 -0.2260
C8BA C 0.8143(4) -0.2535(4) -0.1981(3)
C9BA C 0.7721(3) -0.2384(3) -0.1716(3)
H5BA H 0.7619 -0.2563 -0.1444
O1FA O 0.9075(2) -0.0777(3) -0.4383(3)
O2FA O 0.8294(2) -0.0529(2) -0.4468(2)
C1FA C 0.8613(4) -0.0756(4) -0.4268(4)
C2FA C 0.8468(3) -0.1062(4) -0.3810(4)
C3FA C 0.8822(4) -0.1312(4) -0.3522(4)
H1FA H 0.9150 -0.1317 -0.3618
C4FA C 0.8682(3) -0.1539(4) -0.3114(4)
H2FA H 0.8919 -0.1666 -0.2904
C5FA C 0.8176(3) -0.1592(4) -0.2994(3)
C6FA C 0.7827(3) -0.1382(3) -0.3295(3)
H3FA H 0.7495 -0.1427 -0.3231
C7FA C 0.7973(3) -0.1104(4) -0.3693(4)
H4FA H 0.7740 -0.0945 -0.3884
C8FA C 0.8019(3) -0.1857(4) -0.2535(4)
C9FA C 0.8284(3) -0.2279(3) -0.2384(3)
H5FA H 0.8556 -0.2381 -0.2563
O1Y O 0.4383(3) 0.0925(2) -0.0777(3)
O2Y O 0.4468(2) 0.1706(2) -0.0529(2)
C1Y C 0.4268(4) 0.1387(4) -0.0756(4)
C2Y C 0.3810(4) 0.1532(3) -0.1062(4)
C3Y C 0.3522(4) 0.1178(4) -0.1312(4)
H1Y H 0.3618 0.0850 -0.1317
C4Y C 0.3114(4) 0.1318(3) -0.1539(4)
H2Y H 0.2904 0.1081 -0.1666
C5Y C 0.2994(3) 0.1824(3) -0.1592(4)
C6Y C 0.3295(3) 0.2173(3) -0.1382(3)
H3Y H 0.3231 0.2505 -0.1427
C7Y C 0.3693(4) 0.2027(3) -0.1104(4)
H4Y H 0.3884 0.2260 -0.0945
C8Y C 0.2535(4) 0.1981(3) -0.1857(4)
C9Y C 0.2384(3) 0.1716(3) -0.2279(3)
H5Y H 0.2563 0.1444 -0.2381
O1DA O 0.0777(3) 0.4383(3) -0.0925(2)
O2DA O 0.0529(2) 0.4468(2) -0.1706(2)
C1DA C 0.0756(4) 0.4268(4) -0.1387(4)
C2DA C 0.1062(4) 0.3810(4) -0.1532(3)
C3DA C 0.1312(4) 0.3522(4) -0.1178(4)
H1DA H 0.1317 0.3618 -0.0850
C4DA C 0.1539(4) 0.3114(4) -0.1318(3)
H2DA H 0.1666 0.2904 -0.1081
C5DA C 0.1592(4) 0.2994(3) -0.1824(3)
C6DA C 0.1382(3) 0.3295(3) -0.2173(3)
H3DA H 0.1427 0.3231 -0.2505
C7DA C 0.1104(4) 0.3693(4) -0.2027(3)
H4DA H 0.0945 0.3884 -0.2260
C8DA C 0.1857(4) 0.2535(4) -0.1981(3)
C9DA C 0.2279(3) 0.2384(3) -0.1716(3)
H5DA H 0.2381 0.2563 -0.1444
O1IA O 0.0925(2) 0.0777(3) -0.4383(3)
O2IA O 0.1706(2) 0.0529(2) -0.4468(2)
C1IA C 0.1387(4) 0.0756(4) -0.4268(4)
C2IA C 0.1532(3) 0.1062(4) -0.3810(4)
C3IA C 0.1178(4) 0.1312(4) -0.3522(4)
H1IA H 0.0850 0.1317 -0.3618
C4IA C 0.1318(3) 0.1539(4) -0.3114(4)
H2IA H 0.1081 0.1666 -0.2904
C5IA C 0.1824(3) 0.1592(4) -0.2994(3)
C6IA C 0.2173(3) 0.1382(3) -0.3295(3)
H3IA H 0.2505 0.1427 -0.3231
C7IA C 0.2027(3) 0.1104(4) -0.3693(4)
H4IA H 0.2260 0.0945 -0.3884
C8IA C 0.1981(3) 0.1857(4) -0.2535(4)
C9IA C 0.1716(3) 0.2279(3) -0.2384(3)
H5IA H 0.1444 0.2381 -0.2563
Co1E Co 0.05463(12) -0.5000 -0.05552(12)
Co1E_2 Co 0.05463(12) 0.5000 -0.05552(12)
Co1F Co -0.05463(12) 0.5000 0.05552(12)
Co1G Co 0.94537(12) -0.5000 -0.05552(12)
Co1H_2 Co 0.05552(12) 0.05463(12) -0.5000
Co1I Co -0.05552(12) 0.05463(12) 0.5000
Co1J Co 0.05552(12) -0.05463(12) -0.5000
Co1K Co 0.94448(12) -0.05463(12) -0.5000
Co2E Co 0.0000 -0.5000 -0.16840(9)
Co2E_2 Co -0.0000 0.5000 -0.16840(9)
Co2E_3 Co 1.0000 -0.5000 -0.16840(9)
Co2H Co 0.16840(9) 0.0000 -0.5000
Co2H_2 Co 0.16840(9) -0.0000 0.5000
Co2I Co 0.83160(9) 0.0000 -0.5000
O1A O 0.5617(3) -0.0925(2) 0.0777(3)
O1B O 0.5617(3) 0.0925(2) -0.0777(3)
O1Z O 0.4383(3) -0.0925(2) 0.0777(3)
O1AA O 0.5617(3) 0.0925(2) 0.0777(3)
O1EA O 0.0777(3) 0.5617(3) 0.0925(2)
O1IA_2 O 0.0925(2) 0.0777(3) 0.5617(3)
O2A O 0.5532(2) -0.1706(2) 0.0529(2)
O2B O 0.5532(2) 0.1706(2) -0.0529(2)
O2F O -0.0529(2) 0.5532(2) 0.1706(2)
O2Z O 0.4468(2) -0.1706(2) 0.0529(2)
O2AA O 0.5532(2) 0.1706(2) 0.0529(2)
O2CA O -0.0529(2) 0.4468(2) 0.1706(2)
O2EA O 0.0529(2) 0.5532(2) 0.1706(2)
O3H O 0.0905(4) -0.0000 0.5000
O4E O 0.0319(4) 0.5532(4) 0.0000
O4I O -0.0000 0.0319(4) 0.5532(4)
O5H O -0.0000 0.1104(5) 0.5000
loop_
_geom_bond_atom_site_label_1
_geom_bond_atom_site_label_2
_geom_bond_site_symmetry_1
_geom_bond_site_symmetry_2
Co1 O1 1_555 1_555
Co2 O2 1_555 1_555
O1 C1 1_555 1_555
O2 C1 1_555 1_555
O3 Co1 1_555 1_555
O4 Co1 1_555 1_555
O5 Co1 1_555 1_555
O6 Co2 1_555 1_555
C1 C2 1_555 1_555
C2 C3 1_555 1_555
C3 H1 1_555 1_555
C4 C3 1_555 1_555
H2 C4 1_555 1_555
C5 C4 1_555 1_555
C6 C5 1_555 1_555
H3 C6 1_555 1_555
C7 C2 1_555 1_555
H4 C7 1_555 1_555
C8 C5 1_555 1_555
C9 C8 1_555 1_555
H5 C9 1_555 1_555
O1D C1D 1_555 1_555
O2D C1D 1_555 1_555
C1D C2D 1_555 1_555
C2D C3D 1_555 1_555
C3D H1D 1_555 1_555
C4D C3D 1_555 1_555
H2D C4D 1_555 1_555
C5D C4D 1_555 1_555
C6D C5D 1_555 1_555
H3D C6D 1_555 1_555
C7D C2D 1_555 1_555
H4D C7D 1_555 1_555
C8D C5D 1_555 1_555
C9D C8 1_555 1_555
H5D C9D 1_555 1_555
O1H C1H 1_555 1_555
O2H C1H 1_555 1_555
C1H C2H 1_555 1_555
C2H C3H 1_555 1_555
C3H H1H 1_555 1_555
C4H C3H 1_555 1_555
H2H C4H 1_555 1_555
C5H C4H 1_555 1_555
C6H C5H 1_555 1_555
H3H C6H 1_555 1_555
C7H C2H 1_555 1_555
H4H C7H 1_555 1_555
C8H C9 1_555 1_555
C9H C8D 1_555 1_555
H5H C9H 1_555 1_555
Co1A O4 1_555 1_555
Co2A O3A 1_555 1_555
O3A Co1A 1_555 1_555
O4A Co1 1_555 1_555
O6A Co2A 1_555 1_555
Co1B O3 1_555 1_555
O4B Co1B 1_555 1_555
O5B Co1B 1_555 1_555
Co1C O3A 1_555 1_555
O1C Co1C 1_555 1_555
O2C Co2A 1_555 1_555
O4C Co1B 1_555 1_555
C1C O1C 1_555 1_555
C2C C1C 1_555 1_555
C3C C2C 1_555 1_555
H1C C3C 1_555 1_555
C4C C3C 1_555 1_555
H2C C4C 1_555 1_555
C5C C4C 1_555 1_555
C6C C5C 1_555 1_555
H3C C6C 1_555 1_555
C7C C2C 1_555 1_555
H4C C7C 1_555 1_555
C8C C5C 1_555 1_555
C9C C8C 1_555 1_555
H5C C9C 1_555 1_555
O1E C1E 1_555 1_555
O2E C1E 1_555 1_555
C1E C2E 1_555 1_555
C2E C3E 1_555 1_555
C3E H1E 1_555 1_555
C4E C3E 1_555 1_555
H2E C4E 1_555 1_555
C5E C4E 1_555 1_555
C6E C5E 1_555 1_555
H3E C6E 1_555 1_555
C7E C2E 1_555 1_555
H4E C7E 1_555 1_555
C8E C5E 1_555 1_555
C9E C8C 1_555 1_555
H5E C9E 1_555 1_555
O1J C1J 1_555 1_555
O2J C1J 1_555 1_555
C1J C2J 1_555 1_555
C2J C3J 1_555 1_555
C3J H1J 1_555 1_555
C4J C3J 1_555 1_555
H2J C4J 1_555 1_555
C5J C4J 1_555 1_555
C6J C5J 1_555 1_555
H3J C6J 1_555 1_555
C7J C2J 1_555 1_555
H4J C7J 1_555 1_555
C8J C9C 1_555 1_555
C9J C8E 1_555 1_555
H5J C9J 1_555 1_555
Co1D O1D 1_555 1_555
Co2D O2D 1_555 1_555
O3D Co1D 1_555 1_555
O4D Co1D 1_555 1_555
O5D Co1D 1_555 1_555
O6D Co2D 1_555 1_555
Co1H O1H 1_555 1_555
O4H Co1H 1_555 1_555
O1X Co1C 1_555 1_555
O2X Co2A 1_555 1_555
C1X O1X 1_555 1_555
C2X C1X 1_555 1_555
C3X C2X 1_555 1_555
H1X C3X 1_555 1_555
C4X C3X 1_555 1_555
H2X C4X 1_555 1_555
C5X C4X 1_555 1_555
C6X C5X 1_555 1_555
H3X C6X 1_555 1_555
C7X C2X 1_555 1_555
H4X C7X 1_555 1_555
C8X C5X 1_555 1_555
C9X C8X 1_555 1_555
H5X C9X 1_555 1_555
O1BA C1BA 1_555 1_555
O2BA C1BA 1_555 1_555
C1BA C2BA 1_555 1_555
C2BA C3BA 1_555 1_555
C3BA H1BA 1_555 1_555
C4BA C3BA 1_555 1_555
H2BA C4BA 1_555 1_555
C5BA C4BA 1_555 1_555
C6BA C5BA 1_555 1_555
H3BA C6BA 1_555 1_555
C7BA C2BA 1_555 1_555
H4BA C7BA 1_555 1_555
C8BA C5BA 1_555 1_555
C9BA C8X 1_555 1_555
H5BA C9BA 1_555 1_555
O1FA C1FA 1_555 1_555
O2FA C1FA 1_555 1_555
C1FA C2FA 1_555 1_555
C2FA C3FA 1_555 1_555
C3FA H1FA 1_555 1_555
C4FA C3FA 1_555 1_555
H2FA C4FA 1_555 1_555
C5FA C4FA 1_555 1_555
C6FA C5FA 1_555 1_555
H3FA C6FA 1_555 1_555
C7FA C2FA 1_555 1_555
H4FA C7FA 1_555 1_555
C8FA C9X 1_555 1_555
C9FA C8BA 1_555 1_555
H5FA C9FA 1_555 1_555
O1Y Co1B 1_555 1_555
O2Y Co2 1_555 1_555
C1Y O1Y 1_555 1_555
C2Y C1Y 1_555 1_555
C3Y C2Y 1_555 1_555
H1Y C3Y 1_555 1_555
C4Y C3Y 1_555 1_555
H2Y C4Y 1_555 1_555
C5Y C4Y 1_555 1_555
C6Y C5Y 1_555 1_555
H3Y C6Y 1_555 1_555
C7Y C2Y 1_555 1_555
H4Y C7Y 1_555 1_555
C8Y C5Y 1_555 1_555
C9Y C8Y 1_555 1_555
H5Y C9Y 1_555 1_555
O1DA C1DA 1_555 1_555
O2DA C1DA 1_555 1_555
C1DA C2DA 1_555 1_555
C2DA C3DA 1_555 1_555
C3DA H1DA 1_555 1_555
C4DA C3DA 1_555 1_555
H2DA C4DA 1_555 1_555
C5DA C4DA 1_555 1_555
C6DA C5DA 1_555 1_555
H3DA C6DA 1_555 1_555
C7DA C2DA 1_555 1_555
H4DA C7DA 1_555 1_555
C8DA C5DA 1_555 1_555
C9DA C8Y 1_555 1_555
H5DA C9DA 1_555 1_555
O1IA C1IA 1_555 1_555
O2IA C1IA 1_555 1_555
C1IA C2IA 1_555 1_555
C2IA C3IA 1_555 1_555
C3IA H1IA 1_555 1_555
C4IA C3IA 1_555 1_555
H2IA C4IA 1_555 1_555
C5IA C4IA 1_555 1_555
C6IA C5IA 1_555 1_555
H3IA C6IA 1_555 1_555
C7IA C2IA 1_555 1_555
H4IA C7IA 1_555 1_555
C8IA C9Y 1_555 1_555
C9IA C8DA 1_555 1_555
H5IA C9IA 1_555 1_555
Co1E O1E 1_555 1_555
Co1E_2 O4D 1_555 1_555
Co1F O3D 1_555 1_555
Co1G O1BA 1_555 1_555
Co1H_2 O1IA 1_555 1_555
Co1I O4H 1_555 1_555
Co1J O1J 1_555 1_555
Co1K O1FA 1_555 1_555
Co2E O2E 1_555 1_555
Co2E_2 O2DA 1_555 1_555
Co2E_3 O2BA 1_555 1_555
Co2H O2J 1_555 1_555
Co2H_2 O2H 1_555 1_555
Co2I O2FA 1_555 1_555
O1A Co1A 1_555 1_555
O1B Co1B 1_555 1_555
O1Z Co1A 1_555 1_555
O1AA Co1 1_555 1_555
O1EA Co1D 1_555 1_555
O1IA_2 Co1H 1_555 1_555
O2A Co2A 1_555 1_555
O2B Co2 1_555 1_555
O2F Co2D 1_555 1_555
O2Z Co2A 1_555 1_555
O2AA Co2 1_555 1_555
O2CA Co2D 1_555 1_555
O2EA Co2D 1_555 1_555
O3H Co1H 1_555 1_555
O4E Co1D 1_555 1_555
O4I Co1H 1_555 1_555
O5H Co1H 1_555 1_555
Co2 O3 1_555 1_555
O5 Co1A 1_555 1_555
C6 C7 1_555 1_555
C6D C7D 1_555 1_555
C8D C9D 1_555 1_555
C5H C8H 1_555 1_555
C6H C7H 1_555 1_555
C8H C9H 1_555 1_555
Co1A O4A 1_555 1_555
O4B Co1C 1_555 1_555
O5B Co1C 1_555 1_555
Co1C O4C 1_555 1_555
O2C C1C 1_555 1_555
C6C C7C 1_555 1_555
C6E C7E 1_555 1_555
C8E C9E 1_555 1_555
C5J C8J 1_555 1_555
C6J C7J 1_555 1_555
C8J C9J 1_555 1_555
Co2D O3D 1_555 1_555
O5D Co1E_2 1_555 1_555
O2X C1X 1_555 1_555
C6X C7X 1_555 1_555
C6BA C7BA 1_555 1_555
C8BA C9BA 1_555 1_555
C5FA C8FA 1_555 1_555
C6FA C7FA 1_555 1_555
C8FA C9FA 1_555 1_555
O2Y C1Y 1_555 1_555
C6Y C7Y 1_555 1_555
O1DA Co1E_2 1_555 1_555
C6DA C7DA 1_555 1_555
C8DA C9DA 1_555 1_555
O2IA Co2H 1_555 1_555
C5IA C8IA 1_555 1_555
C6IA C7IA 1_555 1_555
C8IA C9IA 1_555 1_555
Co1E_2 O4E 1_555 1_555
Co1I O4I 1_555 1_555
Co1I O5H 1_555 1_555
Co2H_2 O3H 1_555 1_555

#END
