
#######################################################################
#
#                 Cambridge Crystallographic Data Centre
#                                CCDC 
#
#######################################################################
#
# If this CIF has been generated from an entry in the Cambridge 
# Structural Database, then it will include bibliographic, chemical, 
# crystal, experimental, refinement or atomic coordinate data resulting 
# from the CCDC's data processing and validation procedures.
#
#######################################################################

data_DIBQUC
_chemical_formula_moiety         'C59 H34 Co10 N2 O23'
_symmetry_cell_setting           orthorhombic
_symmetry_space_group_name_H-M   'P n m a'
_symmetry_Int_Tables_number      62
_space_group_name_Hall           '-P 2ac 2n'
loop_
_symmetry_equiv_pos_site_id
_symmetry_equiv_pos_as_xyz
1 x,y,z
2 1/2-x,-y,1/2+z
3 -x,1/2+y,-z
4 1/2+x,1/2-y,1/2-z
5 -x,-y,-z
6 1/2+x,y,1/2-z
7 x,1/2-y,z
8 1/2-x,1/2+y,1/2+z
_cell_length_a                   17.564(4)
_cell_length_b                   25.629(5)
_cell_length_c                   20.800(4)
_cell_angle_alpha                90
_cell_angle_beta                 90
_cell_angle_gamma                90
_cell_volume                     9363.07
loop_
_atom_site_label
_atom_site_type_symbol
_atom_site_fract_x
_atom_site_fract_y
_atom_site_fract_z
O9 O 0.9915(5) 0.7500 -0.5231(5)
Co1 Co 0.99689(4) 0.68198(4) -0.43835(6)
Co2 Co 0.88638(5) 0.7500 -0.33774(5)
O1 O 0.9812(3) 0.7500 -0.3989(3)
O2 O 1.0670(3) 0.6216(5) -0.4829(4)
O3 O 1.1198(4) 0.6864(3) -0.4412(5)
O4 O 1.8270(2) 0.69552(19) -0.3853(2)
O5 O 1.8950(2) 0.6594(3) -0.4644(3)
O6 O 1.5643(2) 0.30783(18) -0.7828(2)
O7 O 1.4955(3) 0.3559(2) -0.8529(3)
C1 C 1.1203(5) 0.6486(6) -0.4732(5)
C2 C 1.2008(4) 0.6277(5) -0.4903(5)
C3 C 1.2606(4) 0.6560(4) -0.4861(5)
H1 H 1.2548 0.6893 -0.4691
C4 C 1.3332(4) 0.6412(4) -0.5048(5)
H2 H 1.3740 0.6642 -0.5020
C5 C 1.3424(4) 0.5921(4) -0.5273(5)
C6 C 1.2824(4) 0.5578(5) -0.5271(6)
H3 H 1.2879 0.5232 -0.5397
C7 C 1.2111(4) 0.5785(6) -0.5063(5)
H4 H 1.1696 0.5560 -0.5041
C8 C 1.8313(3) 0.6697(3) -0.4277(5)
C9 C 1.7620(3) 0.6412(3) -0.4631(4)
C10 C 1.7642(3) 0.6147(4) -0.5162(4)
H5 H 1.8108 0.6099 -0.5367
C11 C 1.6975(4) 0.5926(4) -0.5441(5)
H6 H 1.6988 0.5779 -0.5850
C12 C 1.6297(3) 0.5938(3) -0.5084(4)
C13 C 1.6294(3) 0.6196(3) -0.4509(4)
H7 H 1.5843 0.6220 -0.4277
C14 C 1.6951(3) 0.6423(3) -0.4263(4)
H8 H 1.6947 0.6581 -0.3860
C15 C 1.5243(3) 0.3467(3) -0.7970(5)
C16 C 1.5155(3) 0.3860(3) -0.7465(4)
C17 C 1.4606(4) 0.4269(3) -0.7547(4)
H9 H 1.4286 0.4269 -0.7904
C18 C 1.4554(3) 0.4651(3) -0.7111(4)
H10 H 1.4201 0.4915 -0.7180
C19 C 1.5014(3) 0.4676(3) -0.6540(4)
C20 C 1.5567(3) 0.4252(3) -0.6478(4)
H11 H 1.5891 0.4239 -0.6125
C21 C 1.5605(3) 0.3876(3) -0.6941(4)
H12 H 1.5967 0.3614 -0.6892
C22 C 1.4209(3) 0.5702(3) -0.5467(4)
C23 C 1.4865(3) 0.5904(3) -0.5204(4)
H13 H 1.4825 0.6173 -0.4906
C24 C 1.5595(3) 0.5718(3) -0.5368(4)
C25 C 1.5630(3) 0.5316(3) -0.5782(4)
H14 H 1.6103 0.5172 -0.5874
C26 C 1.4964(3) 0.5096(3) -0.6090(4)
C27 C 1.4270(3) 0.5307(3) -0.5883(4)
H15 H 1.3824 0.5162 -0.6045
O8 O 0.7965(3) 0.7500 -0.2703(3)
N1 N 0.7144(13) 0.6958(7) -0.2098(11)
C28 C 0.7732(9) 0.7036(7) -0.2519(12)
H16 H 0.7980 0.6744 -0.2684
C29 C 0.6880(12) 0.7500 -0.1860(17)
C30 C 0.7187(11) 0.6334(11) -0.2001(17)
N1F N 0.7144(13) 0.8042(7) -0.2098(11)
C28F C 0.7732(9) 0.7964(7) -0.2519(12)
H16F H 0.7980 0.8256 -0.2684
C30F C 0.7187(11) 0.8666(11) -0.2001(17)
Co1F Co 0.99689(4) 0.81802(4) -0.43835(6)
O2F O 1.0670(3) 0.8784(5) -0.4829(4)
O3F O 1.1198(4) 0.8136(3) -0.4412(5)
O4F O 1.8270(2) 0.80448(19) -0.3853(2)
O5F O 1.8950(2) 0.8406(3) -0.4644(3)
O6F O 1.5643(2) 1.19217(18) -0.7828(2)
O7F O 1.4955(3) 1.1441(2) -0.8529(3)
C1F C 1.1203(5) 0.8514(6) -0.4732(5)
C2F C 1.2008(4) 0.8723(5) -0.4903(5)
C3F C 1.2606(4) 0.8440(4) -0.4861(5)
H1F H 1.2548 0.8107 -0.4691
C4F C 1.3332(4) 0.8588(4) -0.5048(5)
H2F H 1.3740 0.8358 -0.5020
C5F C 1.3424(4) 0.9079(4) -0.5273(5)
C6F C 1.2824(4) 0.9422(5) -0.5271(6)
H3F H 1.2879 0.9768 -0.5397
C7F C 1.2111(4) 0.9215(6) -0.5063(5)
H4F H 1.1696 0.9440 -0.5041
C8F C 1.8313(3) 0.8303(3) -0.4277(5)
C9F C 1.7620(3) 0.8588(3) -0.4631(4)
C10F C 1.7642(3) 0.8853(4) -0.5162(4)
H5F H 1.8108 0.8901 -0.5367
C11F C 1.6975(4) 0.9074(4) -0.5441(5)
H6F H 1.6988 0.9221 -0.5850
C12F C 1.6297(3) 0.9062(3) -0.5084(4)
C13F C 1.6294(3) 0.8804(3) -0.4509(4)
H7F H 1.5843 0.8780 -0.4277
C14F C 1.6951(3) 0.8577(3) -0.4263(4)
H8F H 1.6947 0.8419 -0.3860
C15F C 1.5243(3) 1.1533(3) -0.7970(5)
C16F C 1.5155(3) 1.1140(3) -0.7465(4)
C17F C 1.4606(4) 1.0731(3) -0.7547(4)
H9F H 1.4286 1.0731 -0.7904
C18F C 1.4554(3) 1.0349(3) -0.7111(4)
H10F H 1.4201 1.0085 -0.7180
C19F C 1.5014(3) 1.0324(3) -0.6540(4)
C20F C 1.5567(3) 1.0748(3) -0.6478(4)
H11F H 1.5891 1.0761 -0.6125
C21F C 1.5605(3) 1.1124(3) -0.6941(4)
H12F H 1.5967 1.1386 -0.6892
C22F C 1.4209(3) 0.9298(3) -0.5467(4)
C23F C 1.4865(3) 0.9096(3) -0.5204(4)
H13F H 1.4825 0.8827 -0.4906
C24F C 1.5595(3) 0.9282(3) -0.5368(4)
C25F C 1.5630(3) 0.9684(3) -0.5782(4)
H14F H 1.6103 0.9828 -0.5874
C26F C 1.4964(3) 0.9904(3) -0.6090(4)
C27F C 1.4270(3) 0.9693(3) -0.5883(4)
H15F H 1.3824 0.9838 -0.6045
Co1_2 Co 1.99689(4) 0.68198(4) -0.43835(6)
Co1A Co 1.50311(4) 0.31802(4) -0.93835(6)
Co1F_2 Co 1.99689(4) 0.81802(4) -0.43835(6)
Co1G Co 1.50311(4) 1.18198(4) -0.93835(6)
Co2_2 Co 1.88638(5) 0.7500 -0.33774(5)
Co2A Co 1.61362(5) 0.2500 -0.83774(5)
Co2A_2 Co 1.61362(5) 1.2500 -0.83774(5)
O4_2 O 0.8270(2) 0.69552(19) -0.3853(2)
O4F_2 O 0.8270(2) 0.80448(19) -0.3853(2)
O5_2 O 0.8950(2) 0.6594(3) -0.4644(3)
O5F_2 O 0.8950(2) 0.8406(3) -0.4644(3)
O6A O 0.9357(2) 0.69217(18) -0.2828(2)
O6G O 0.9357(2) 0.80783(18) -0.2828(2)
O7A O 1.0045(3) 0.6441(2) -0.3529(3)
O7G O 1.0045(3) 0.8559(2) -0.3529(3)
loop_
_geom_bond_atom_site_label_1
_geom_bond_atom_site_label_2
_geom_bond_site_symmetry_1
_geom_bond_site_symmetry_2
Co1 O1 1_555 1_555
Co2 O1 1_555 1_555
O1 Co1F 1_555 1_555
O2 Co1 1_555 1_555
O3 Co1 1_555 1_555
O4 C8 1_555 1_555
O5 C8 1_555 1_555
O6 C15 1_555 1_555
O7 C15 1_555 1_555
C1 O2 1_555 1_555
C2 C1 1_555 1_555
C3 C2 1_555 1_555
H1 C3 1_555 1_555
C4 C3 1_555 1_555
H2 C4 1_555 1_555
C5 C4 1_555 1_555
C6 C5 1_555 1_555
H3 C6 1_555 1_555
C7 C2 1_555 1_555
H4 C7 1_555 1_555
C8 C9 1_555 1_555
C9 C10 1_555 1_555
C10 H5 1_555 1_555
C11 C10 1_555 1_555
H6 C11 1_555 1_555
C12 C11 1_555 1_555
C13 C12 1_555 1_555
H7 C13 1_555 1_555
C14 C9 1_555 1_555
H8 C14 1_555 1_555
C15 C16 1_555 1_555
C16 C17 1_555 1_555
C17 H9 1_555 1_555
C18 C17 1_555 1_555
H10 C18 1_555 1_555
C19 C18 1_555 1_555
C20 C19 1_555 1_555
H11 C20 1_555 1_555
C21 C16 1_555 1_555
H12 C21 1_555 1_555
C22 C5 1_555 1_555
C23 C22 1_555 1_555
H13 C23 1_555 1_555
C24 C12 1_555 1_555
C25 C24 1_555 1_555
H14 C25 1_555 1_555
C26 C19 1_555 1_555
C27 C22 1_555 1_555
H15 C27 1_555 1_555
O8 Co2 1_555 1_555
N1 C28 1_555 1_555
C28 O8 1_555 1_555
H16 C28 1_555 1_555
C29 N1 1_555 1_555
C30 N1 1_555 1_555
N1F C29 1_555 1_555
C28F O8 1_555 1_555
H16F C28F 1_555 1_555
C30F N1F 1_555 1_555
Co1F O2F 1_555 1_555
O2F C1F 1_555 1_555
O3F Co1F 1_555 1_555
O4F C8F 1_555 1_555
O5F C8F 1_555 1_555
O6F C15F 1_555 1_555
O7F C15F 1_555 1_555
C1F O3F 1_555 1_555
C2F C1F 1_555 1_555
C3F C2F 1_555 1_555
H1F C3F 1_555 1_555
C4F C3F 1_555 1_555
H2F C4F 1_555 1_555
C5F C4F 1_555 1_555
C6F C5F 1_555 1_555
H3F C6F 1_555 1_555
C7F C2F 1_555 1_555
H4F C7F 1_555 1_555
C8F C9F 1_555 1_555
C9F C10F 1_555 1_555
C10F H5F 1_555 1_555
C11F C10F 1_555 1_555
H6F C11F 1_555 1_555
C12F C11F 1_555 1_555
C13F C12F 1_555 1_555
H7F C13F 1_555 1_555
C14F C9F 1_555 1_555
H8F C14F 1_555 1_555
C15F C16F 1_555 1_555
C16F C17F 1_555 1_555
C17F H9F 1_555 1_555
C18F C17F 1_555 1_555
H10F C18F 1_555 1_555
C19F C18F 1_555 1_555
C20F C19F 1_555 1_555
H11F C20F 1_555 1_555
C21F C16F 1_555 1_555
H12F C21F 1_555 1_555
C22F C5F 1_555 1_555
C23F C22F 1_555 1_555
H13F C23F 1_555 1_555
C24F C12F 1_555 1_555
C25F C24F 1_555 1_555
H14F C25F 1_555 1_555
C26F C19F 1_555 1_555
C27F C22F 1_555 1_555
H15F C27F 1_555 1_555
Co1_2 O5 1_555 1_555
Co1A O7 1_555 1_555
Co1F_2 O5F 1_555 1_555
Co1G O7F 1_555 1_555
Co2_2 O4 1_555 1_555
Co2A O6 1_555 1_555
Co2A_2 O6F 1_555 1_555
O4_2 Co2 1_555 1_555
O4F_2 Co2 1_555 1_555
O5_2 Co1 1_555 1_555
O5F_2 Co1F 1_555 1_555
O6A Co2 1_555 1_555
O6G Co2 1_555 1_555
O7A Co1 1_555 1_555
O7G Co1F 1_555 1_555
O3 C1 1_555 1_555
C6 C7 1_555 1_555
C13 C14 1_555 1_555
C20 C21 1_555 1_555
C23 C24 1_555 1_555
C25 C26 1_555 1_555
C26 C27 1_555 1_555
N1F C28F 1_555 1_555
O4F Co2_2 1_555 1_555
C6F C7F 1_555 1_555
C13F C14F 1_555 1_555
C20F C21F 1_555 1_555
C23F C24F 1_555 1_555
C25F C26F 1_555 1_555
C26F C27F 1_555 1_555

#END
