
#######################################################################
#
#                 Cambridge Crystallographic Data Centre
#                                CCDC 
#
#######################################################################
#
# If this CIF has been generated from an entry in the Cambridge 
# Structural Database, then it will include bibliographic, chemical, 
# crystal, experimental, refinement or atomic coordinate data resulting 
# from the CCDC's data processing and validation procedures.
#
#######################################################################

data_TARWAK
_chemical_formula_moiety         '(C6 H7 Cu1 N9 O3)n'
_symmetry_cell_setting           monoclinic
_symmetry_space_group_name_H-M   'C 2/c'
_symmetry_Int_Tables_number      15
_space_group_name_Hall           '-C 2yc'
loop_
_symmetry_equiv_pos_site_id
_symmetry_equiv_pos_as_xyz
1 x,y,z
2 -x,y,1/2-z
3 1/2+x,1/2+y,z
4 1/2-x,1/2+y,1/2-z
5 -x,-y,-z
6 x,-y,1/2+z
7 1/2-x,1/2-y,-z
8 1/2+x,1/2-y,1/2+z
_cell_length_a                   18.608(5)
_cell_length_b                   16.946(5)
_cell_length_c                   6.942(2)
_cell_angle_alpha                90
_cell_angle_beta                 99.10(3)
_cell_angle_gamma                90
_cell_volume                     2161.48
loop_
_atom_site_label
_atom_site_type_symbol
_atom_site_fract_x
_atom_site_fract_y
_atom_site_fract_z
Cu1 Cu 0.62776(2) -0.31441(2) 0.06699(7)
N1 N 0.90876(14) -0.4745(2) -0.4226(4)
N2 N 0.7986(2) -0.4270(2) -0.3440(4)
N3 N 0.8932(2) -0.3382(2) -0.4096(4)
N4 N 0.9971(2) -0.3950(2) -0.5078(5)
N5 N 1.0560(2) -0.2661(2) -0.5293(5)
N6 N 0.8245(2) -0.5634(2) -0.3623(5)
N7 N 0.7040(2) -0.6111(2) -0.3170(5)
N8 N 0.7953(2) -0.2901(2) -0.2912(5)
N9 N 0.6820(2) -0.2967(2) -0.1528(5)
C1 C 0.9323(2) -0.3998(2) -0.4477(5)
C2 C 0.8409(2) -0.4871(2) -0.3766(5)
C3 C 0.8284(2) -0.3544(2) -0.3501(5)
C4 C 1.0254(2) -0.3248(2) -0.5170(5)
C5 C 0.7596(2) -0.5845(2) -0.3380(6)
C6 C 0.7346(2) -0.2985(2) -0.2210(6)
O1 O 0.57642(13) -0.6784(2) -0.1944(4)
O2 O 0.5661(2) -0.5789(2) -0.6046(6)
H1 H 0.93664(14) -0.5140(2) -0.4357(4)
Cu1F Cu 0.87224(2) -0.18559(2) -0.06699(7)
Cu1G Cu 1.12776(2) -0.18559(2) -0.43301(7)
Cu1E Cu 0.62776(2) -0.68559(2) -0.43301(7)
N5B N 0.5560(2) -0.7661(2) -0.5293(5)
N8C N 0.7047(2) -0.7901(2) -0.2088(5)
N9E N 0.6820(2) -0.7033(2) -0.6528(5)
O3 O 0.6307(2) 0.5606(2) 0.5590(5)
loop_
_geom_bond_atom_site_label_1
_geom_bond_atom_site_label_2
_geom_bond_site_symmetry_1
_geom_bond_site_symmetry_2
Cu1 N9 1_555 1_555
N1 C1 1_555 1_555
N2 C2 1_555 1_555
N3 C1 1_555 1_555
N4 C1 1_555 1_555
N5 C4 1_555 1_555
N6 C2 1_555 1_555
N7 C5 1_555 1_555
N8 C3 1_555 1_555
N9 C6 1_555 1_555
C2 N1 1_555 1_555
C3 N2 1_555 1_555
C4 N4 1_555 1_555
C5 N6 1_555 1_555
C6 N8 1_555 1_555
O1 Cu1E 1_555 1_555
O2 Cu1E 1_555 1_555
H1 N1 1_555 1_555
Cu1F N8 1_555 1_555
Cu1G N5 1_555 1_555
Cu1E N7 1_555 1_555
N5B Cu1E 1_555 1_555
N8C Cu1E 1_555 1_555
N9E Cu1E 1_555 1_555
N3 C3 1_555 1_555

#END
