
#######################################################################
#
#                 Cambridge Crystallographic Data Centre
#                                CCDC 
#
#######################################################################
#
# If this CIF has been generated from an entry in the Cambridge 
# Structural Database, then it will include bibliographic, chemical, 
# crystal, experimental, refinement or atomic coordinate data resulting 
# from the CCDC's data processing and validation procedures.
#
#######################################################################

data_XAZGEK
_chemical_formula_moiety         '(C36 H120 Ag12 N24 O60 P12)n'
_symmetry_cell_setting           monoclinic
_symmetry_space_group_name_H-M   'P 21'
_symmetry_Int_Tables_number      4
_space_group_name_Hall           'P 2yb'
loop_
_symmetry_equiv_pos_site_id
_symmetry_equiv_pos_as_xyz
1 x,y,z
2 -x,1/2+y,-z
_cell_length_a                   10.310(2)
_cell_length_b                   22.950(5)
_cell_length_c                   20.002(4)
_cell_angle_alpha                90
_cell_angle_beta                 90.49(3)
_cell_angle_gamma                90
_cell_volume                     4732.59
loop_
_atom_site_label
_atom_site_type_symbol
_atom_site_fract_x
_atom_site_fract_y
_atom_site_fract_z
Ag1 Ag -0.47806(13) -0.33136(6) -0.33983(6)
Ag2 Ag -0.90383(14) -0.24219(6) 0.11591(6)
Ag3 Ag -0.90146(14) -0.51079(6) 0.06557(7)
Ag4 Ag 0.09193(13) -0.88205(6) 0.57419(7)
Ag5 Ag -0.52310(13) -0.56374(6) -0.16854(6)
Ag6 Ag -1.00548(13) -0.55334(6) 0.66823(6)
Ag7 Ag -0.40377(13) -0.37278(6) 0.04743(7)
Ag8 Ag -0.41091(15) -0.64860(6) 0.12408(7)
Ag9 Ag -0.08777(13) -0.65288(6) 0.37849(6)
Ag10 Ag -0.60366(13) -0.51496(6) 0.44274(7)
Ag11 Ag -0.39734(14) -0.74740(6) 0.61671(6)
P1 P -0.5098(5) -0.5393(2) 0.2870(2)
O1 O -0.5517(13) -0.5925(6) 0.2419(6)
O2 O -0.4347(14) -0.4971(6) 0.2441(6)
O3 O -0.6216(11) -0.5164(6) 0.3235(6)
O4 O -0.4057(12) -0.5658(6) 0.3376(6)
H1 H -0.4038 -0.5934 0.3850
P2 P -0.5858(6) -0.2638(3) 0.0216(3)
O5 O -0.564(3) -0.3177(8) -0.0142(7)
O6 O -0.6655(12) -0.2197(6) -0.0198(6)
O7 O -0.6611(11) -0.2738(5) 0.0881(6)
O8 O -0.4557(15) -0.2386(12) 0.0359(9)
H2 H -0.3983 -0.2176 0.0436
P3 P -0.2552(4) -0.22565(18) -0.3700(2)
O9 O -0.2655(11) -0.2821(5) -0.3300(5)
O10 O -0.1559(10) -0.1843(5) -0.3374(6)
O11 O -0.3916(11) -0.1978(6) -0.3683(6)
O12 O -0.2135(11) -0.2333(5) -0.4417(5)
P4 P -1.0906(4) -0.41792(16) 0.69435(18)
O13 O -0.9692(10) -0.4494(4) 0.6792(5)
O14 O -1.0800(11) -0.3571(6) 0.6594(6)
O15 O -1.1200(9) -0.4095(5) 0.7676(5)
O16 O -1.2052(10) -0.4497(4) 0.6605(5)
P5 P 0.0387(4) -0.83481(19) 0.7324(2)
O17 O 0.0475(12) -0.7783(5) 0.7761(5)
O18 O 0.0764(19) -0.8212(6) 0.6625(6)
O19 O 0.1184(11) -0.8836(5) 0.7626(6)
O20 O -0.1058(13) -0.8507(6) 0.7383(11)
P6 P -0.4383(5) -0.6266(2) 0.5013(2)
O21 O -0.5239(12) -0.6132(5) 0.4449(6)
O22 O -0.5050(12) -0.6682(5) 0.5511(6)
O23 O -0.3124(12) -0.6521(6) 0.4780(6)
O24 O -0.4008(14) -0.5683(5) 0.5373(6)
P7 P -0.9291(5) -0.1138(2) 0.0069(2)
O25 O -0.8525(13) -0.1660(6) 0.0247(6)
O26 O -0.8855(13) -0.0623(6) 0.0560(7)
O27 O -1.0729(14) -0.1240(7) 0.0148(9)
O28 O -0.9037(17) -0.0905(8) -0.0613(8)
P8 P -0.9059(5) -0.5905(2) 0.2070(2)
O29 O -0.8648(13) -0.5355(6) 0.1745(6)
O30 O -1.0016(12) -0.5791(6) 0.2655(6)
O31 O -0.7947(13) -0.6261(7) 0.2360(7)
O32 O -0.9766(13) -0.6327(6) 0.1564(7)
P9 P -0.7407(4) -0.6727(2) -0.1614(3)
O33 O -0.7433(13) -0.6125(5) -0.1844(6)
O34 O -0.8513(13) -0.6848(5) -0.1116(6)
O35 O -0.7488(14) -0.7177(6) -0.2131(8)
O36 O -0.6056(15) -0.6799(10) -0.1250(11)
P10 P -0.4454(4) -0.43115(18) -0.2175(2)
O37 O -0.5611(11) -0.4627(5) -0.1935(6)
O38 O -0.3231(10) -0.4564(5) -0.1815(5)
H3 H -0.2614 -0.4309 -0.2039
O39 O -0.4553(13) -0.3654(6) -0.1926(9)
O40 O -0.4297(12) -0.4309(7) -0.2914(6)
P11 P -0.0832(4) -0.76385(18) 0.5237(2)
O41 O -0.0257(13) -0.7321(6) 0.4639(6)
O42 O -0.2189(12) -0.7404(6) 0.5310(6)
O43 O 0.0013(13) -0.7411(5) 0.5859(6)
O44 O -0.0740(11) -0.8286(5) 0.5177(6)
O45 O -0.7761(13) -0.5850(8) 0.6889(7)
H4 H -0.7568 -0.6271 0.6589
N1 N -0.5255(11) -0.5421(6) -0.0510(6)
N2 N -0.6815(11) -0.5208(5) 0.0357(5)
N3 N -0.4775(15) -0.4712(6) 0.0355(6)
N4 N -0.4849(13) -0.5737(6) 0.0622(7)
C1 C -0.4596(15) -0.4863(7) -0.0374(7)
H5 H -0.4956 -0.4562 -0.0652
H6 H -0.3688 -0.4897 -0.0469
C2 C -0.4655(14) -0.5866(6) -0.0093(7)
H7 H -0.3742 -0.5882 -0.0182
H8 H -0.5022 -0.6240 -0.0199
C3 C -0.6625(14) -0.5347(7) -0.0353(7)
H9 H -0.7081 -0.5700 -0.0460
H10 H -0.6983 -0.5040 -0.0622
C4 C -0.6132(16) -0.4658(8) 0.0499(8)
H11 H -0.6243 -0.4555 0.0960
H12 H -0.6499 -0.4354 0.0228
C5 C -0.6244(14) -0.5663(7) 0.0765(7)
H13 H -0.6692 -0.6022 0.0681
H14 H -0.6348 -0.5567 0.1229
C6 C -0.4160(15) -0.5188(7) 0.0753(7)
H15 H -0.4206 -0.5098 0.1221
H16 H -0.3263 -0.5224 0.0635
N5 N -1.0258(13) -0.4755(6) 0.4566(6)
N6 N -0.8173(12) -0.5255(6) 0.4678(6)
N7 N -0.9850(12) -0.5373(6) 0.5505(6)
N8 N -1.0126(13) -0.5793(6) 0.4402(6)
C7 C -1.0753(16) -0.5239(7) 0.4174(8)
H17 H -1.0568 -0.5176 0.3709
H18 H -1.1676 -0.5266 0.4222
C8 C -0.8881(15) -0.4711(7) 0.4445(8)
H19 H -0.8536 -0.4379 0.4677
H20 H -0.8739 -0.4655 0.3975
C9 C -0.8412(13) -0.5345(6) 0.5388(6)
H21 H -0.8042 -0.5029 0.5641
H22 H -0.8011 -0.5701 0.5534
C10 C -1.0504(15) -0.4838(7) 0.5279(7)
H23 H -1.1421 -0.4870 0.5351
H24 H -1.0185 -0.4510 0.5528
C11 C -0.8691(16) -0.5735(8) 0.4291(8)
H25 H -0.8258 -0.6089 0.4418
H26 H -0.8534 -0.5668 0.3825
C12 C -1.0365(15) -0.5873(7) 0.5116(7)
H27 H -1.1283 -0.5903 0.5185
H28 H -0.9967 -0.6227 0.5269
N9 N -0.3199(13) -0.7041(5) 0.2010(6)
N10 N -0.3616(11) -0.7769(5) 0.2871(5)
N11 N -0.1919(13) -0.7067(5) 0.3027(5)
N12 N -0.1628(12) -0.7839(5) 0.2228(6)
C13 C -0.0976(15) -0.7480(7) 0.2733(7)
H29 H -0.0624 -0.7725 0.3079
H30 H -0.0275 -0.7268 0.2534
C14 C -0.2530(14) -0.6699(7) 0.2505(6)
H31 H -0.3134 -0.6438 0.2711
H32 H -0.1876 -0.6469 0.2292
C15 C -0.2226(15) -0.7447(7) 0.1716(7)
H33 H -0.1556 -0.7222 0.1509
H34 H -0.2636 -0.7679 0.1376
C16 C -0.2949(14) -0.7408(7) 0.3369(7)
H35 H -0.2569 -0.7652 0.3708
H36 H -0.3555 -0.7149 0.3578
C17 C -0.2678(13) -0.8170(7) 0.2550(6)
H37 H -0.3120 -0.8404 0.2222
H38 H -0.2315 -0.8425 0.2882
C18 C -0.4224(16) -0.7391(7) 0.2347(8)
H39 H -0.4670 -0.7629 0.2024
H40 H -0.4847 -0.7135 0.2548
N13 N -0.5095(13) -0.3198(5) 0.4370(5)
N14 N -0.4529(11) -0.3546(5) 0.5493(5)
N15 N -0.5173(12) -0.4247(6) 0.4627(6)
N16 N -0.3102(12) -0.3742(6) 0.4550(5)
C19 C -0.5743(15) -0.3774(7) 0.4236(7)
H41 H -0.5692 -0.3867 0.3768
H42 H -0.6644 -0.3741 0.4348
C20 C -0.5165(14) -0.4098(6) 0.5333(7)
H43 H -0.6043 -0.4083 0.5489
H44 H -0.4728 -0.4404 0.5573
C21 C -0.3696(15) -0.3269(7) 0.4183(7)
H45 H -0.3235 -0.2913 0.4274
H46 H -0.3640 -0.3346 0.3713
C22 C -0.3745(14) -0.4279(7) 0.4417(7)
H47 H -0.3695 -0.4369 0.3950
H48 H -0.3321 -0.4586 0.4661
C23 C -0.5124(15) -0.3077(7) 0.5103(7)
H49 H -0.6007 -0.3028 0.5242
H50 H -0.4670 -0.2719 0.5193
C24 C -0.3173(14) -0.3606(7) 0.5258(7)
H51 H -0.2762 -0.3913 0.5507
H52 H -0.2706 -0.3252 0.5347
N17 N -1.3603(13) -0.6141(5) 0.7776(6)
N18 N -1.1604(13) -0.6120(5) 0.7164(6)
N19 N -1.1932(12) -0.6866(6) 0.8011(6)
N20 N -1.3133(11) -0.6884(5) 0.6955(5)
C25 C -1.2952(15) -0.6508(7) 0.8280(7)
H53 H -1.3589 -0.6757 0.8481
H54 H -1.2593 -0.6265 0.8624
C26 C -1.4142(14) -0.6525(7) 0.7261(7)
H55 H -1.4555 -0.6293 0.6922
H56 H -1.4787 -0.6772 0.7456
C27 C -1.2498(15) -0.7245(8) 0.7498(7)
H57 H -1.3130 -0.7497 0.7697
H58 H -1.1832 -0.7484 0.7308
C28 C -1.2192(15) -0.6497(7) 0.6662(7)
H59 H -1.1527 -0.6724 0.6452
H60 H -1.2606 -0.6263 0.6325
C29 C -1.2618(14) -0.5770(7) 0.7474(7)
H61 H -1.2237 -0.5523 0.7809
H62 H -1.3023 -0.5528 0.7142
C30 C -1.0961(13) -0.6498(7) 0.7686(6)
H63 H -1.0538 -0.6257 0.8014
H64 H -1.0317 -0.6740 0.7481
Ag12 Ag -0.97656(15) -0.34909(7) 0.82662(6)
N21 N -1.0207(13) -0.3562(6) -0.0611(5)
N22 N -0.9844(13) -0.3161(6) 0.0503(6)
N23 N -1.1871(12) -0.3673(6) 0.0226(6)
N24 N -0.9849(13) -0.4212(6) 0.0351(6)
C31 C -0.9651(17) -0.4134(8) -0.0377(8)
H65 H -0.88(2) -0.406(9) -0.036(10)
H66 H -1.024(19) -0.445(9) -0.062(10)
C32 C -1.1222(15) -0.3185(7) 0.0612(7)
H67 H -1.173(19) -0.288(9) 0.026(10)
H68 H -1.135(19) -0.329(9) 0.100(10)
C33 C -1.1284(15) -0.4224(7) 0.0452(8)
H69 H -1.166(19) -0.453(9) 0.016(10)
H70 H -1.157(19) -0.427(9) 0.091(10)
C34 C -1.1578(18) -0.3599(8) -0.0485(8)
H71 H -1.18(2) -0.390(10) -0.070(10)
H72 H -1.213(18) -0.322(9) -0.060(9)
C35 C -0.9640(16) -0.3081(7) -0.0229(8)
H73 H -1.02(2) -0.267(9) -0.041(10)
H74 H -0.88(2) -0.306(9) -0.036(10)
C36 C -0.9267(16) -0.3713(7) 0.0721(8)
H75 H -0.938(18) -0.375(9) 0.124(9)
H76 H -0.843(19) -0.366(9) 0.075(10)
N8_2 N -0.0126(13) -0.5793(6) 0.4402(6)
Ag12A Ag -0.02344(15) -0.84909(7) 0.17338(6)
N10A N -0.6384(11) -0.2769(5) -0.2871(5)
N16A N 0.3102(12) -0.8742(6) 0.5450(5)
N20_2 N -0.3133(11) -0.6884(5) 0.6955(5)
N12A N -0.8372(12) -0.2839(5) 0.7772(6)
N17_2 N -0.3603(13) -0.6141(5) -0.2224(6)
Ag2A Ag -1.09617(14) -0.74219(6) 0.88409(6)
Ag5_2 Ag -1.52310(13) -0.56374(6) 0.83146(6)
Ag11_2 Ag -1.39734(14) -0.74740(6) 0.61671(6)
N5A N 0.0258(13) -0.9755(6) 0.5434(6)
Ag4A Ag -1.09193(13) -0.38205(6) 0.42581(7)
Ag9_2 Ag -1.08777(13) -0.65288(6) 0.37849(6)
Ag4A_2 Ag -0.09193(13) -0.38205(6) 0.42581(7)
N13A N -0.4905(13) -0.8198(5) 0.5630(5)
N14_2 N -0.4529(11) -0.3546(5) -0.4507(5)
Ag1_2 Ag -0.47806(13) -0.33136(6) 0.66017(6)
Ag11A Ag -0.60266(14) -0.24740(6) 0.38329(6)
Ag1A Ag -0.52194(13) -0.83136(6) 0.33983(6)
N21_2 N -1.0207(13) -0.3562(6) 0.9389(5)
N23_2 N -0.1871(12) -0.3673(6) 0.0226(6)
Ag7_2 Ag -1.40377(13) -0.37278(6) 0.04743(7)
Ag12_2 Ag -0.97656(15) -0.34909(7) -0.17338(6)
N19A N -0.8068(12) -0.1866(6) 0.1989(6)
P12 P -0.5499(5) 0.1497(2) -0.2071(2)
O46 O -0.5579(13) 0.2095(6) -0.2419(6)
O47 O -0.4457(13) 0.1469(6) -0.1549(7)
O48 O -0.6797(10) 0.1344(6) -0.1753(5)
O49 O -0.5256(11) 0.1078(5) -0.2652(5)
O50 O -0.8041(10) -0.3789(5) -0.4092(5)
O51 O -0.5483(15) -0.5298(6) -0.3580(7)
H77 H -0.5467 -0.5605 -0.4017
O52 O -0.8262(11) -0.4451(5) -0.2062(6)
O53 O -0.3072(14) 0.1218(7) 0.0952(8)
O54 O -0.0566(15) -0.0386(7) 0.1472(8)
O55 O 0.2498(19) -0.6709(8) -0.4127(9)
O56 O 0.1677(15) 0.0013(7) -0.2459(11)
O57 O 0.1769(18) -0.4535(7) -0.7305(9)
O58 O -0.244(2) -0.2943(8) -0.1941(8)
O59 O -0.217(3) -0.2043(11) -0.0432(16)
H78 H -0.2646 -0.2188 -0.0721
O60 O -0.343(3) -0.1971(13) -0.148(2)
loop_
_geom_bond_atom_site_label_1
_geom_bond_atom_site_label_2
_geom_bond_site_symmetry_1
_geom_bond_site_symmetry_2
Ag1 O9 1_555 1_555
Ag2 O25 1_555 1_555
Ag3 O29 1_555 1_555
Ag4 O18 1_555 1_555
Ag5 O33 1_555 1_555
Ag6 O13 1_555 1_555
Ag7 O5 1_555 1_555
Ag8 N4 1_555 1_555
Ag9 O41 1_555 1_555
Ag10 O3 1_555 1_555
Ag11 O22 1_555 1_555
P1 O1 1_555 1_555
O2 P1 1_555 1_555
O3 P1 1_555 1_555
O4 P1 1_555 1_555
H1 O4 1_555 1_555
P2 O5 1_555 1_555
O6 P2 1_555 1_555
O7 P2 1_555 1_555
O8 P2 1_555 1_555
H2 O8 1_555 1_555
P3 O9 1_555 1_555
O10 P3 1_555 1_555
O11 P3 1_555 1_555
O12 P3 1_555 1_555
P4 O13 1_555 1_555
O14 P4 1_555 1_555
O15 P4 1_555 1_555
O16 P4 1_555 1_555
P5 O17 1_555 1_555
O18 P5 1_555 1_555
O19 P5 1_555 1_555
O20 P5 1_555 1_555
P6 O21 1_555 1_555
O21 Ag10 1_555 1_555
O22 P6 1_555 1_555
O23 P6 1_555 1_555
O24 P6 1_555 1_555
P7 O25 1_555 1_555
O26 P7 1_555 1_555
O27 P7 1_555 1_555
O28 P7 1_555 1_555
P8 O29 1_555 1_555
O30 P8 1_555 1_555
O31 P8 1_555 1_555
O32 P8 1_555 1_555
P9 O33 1_555 1_555
O34 P9 1_555 1_555
O35 P9 1_555 1_555
O36 P9 1_555 1_555
P10 O37 1_555 1_555
O37 Ag5 1_555 1_555
O38 P10 1_555 1_555
H3 O38 1_555 1_555
O39 P10 1_555 1_555
O40 Ag1 1_555 1_555
P11 O41 1_555 1_555
O42 Ag11 1_555 1_555
O43 P11 1_555 1_555
O44 Ag4 1_555 1_555
O45 Ag6 1_555 1_555
H4 O45 1_555 1_555
N1 Ag5 1_555 1_555
N2 Ag3 1_555 1_555
N3 Ag7 1_555 1_555
N4 C2 1_555 1_555
C1 N1 1_555 1_555
H5 C1 1_555 1_555
H6 C1 1_555 1_555
C2 N1 1_555 1_555
H7 C2 1_555 1_555
H8 C2 1_555 1_555
C3 N1 1_555 1_555
H9 C3 1_555 1_555
H10 C3 1_555 1_555
C4 N2 1_555 1_555
H11 C4 1_555 1_555
H12 C4 1_555 1_555
C5 N2 1_555 1_555
H13 C5 1_555 1_555
H14 C5 1_555 1_555
C6 N3 1_555 1_555
H15 C6 1_555 1_555
H16 C6 1_555 1_555
N5 C7 1_555 1_555
N6 Ag10 1_555 1_555
N7 Ag6 1_555 1_555
N8 C7 1_555 1_555
C7 H17 1_555 1_555
H18 C7 1_555 1_555
C8 N5 1_555 1_555
H19 C8 1_555 1_555
H20 C8 1_555 1_555
C9 N6 1_555 1_555
H21 C9 1_555 1_555
H22 C9 1_555 1_555
C10 N5 1_555 1_555
H23 C10 1_555 1_555
H24 C10 1_555 1_555
C11 N6 1_555 1_555
H25 C11 1_555 1_555
H26 C11 1_555 1_555
C12 N7 1_555 1_555
H27 C12 1_555 1_555
H28 C12 1_555 1_555
N9 Ag8 1_555 1_555
N10 C16 1_555 1_555
N11 Ag9 1_555 1_555
N12 C13 1_555 1_555
C13 N11 1_555 1_555
H29 C13 1_555 1_555
H30 C13 1_555 1_555
C14 N9 1_555 1_555
H31 C14 1_555 1_555
H32 C14 1_555 1_555
C15 N9 1_555 1_555
H33 C15 1_555 1_555
H34 C15 1_555 1_555
C16 N11 1_555 1_555
H35 C16 1_555 1_555
H36 C16 1_555 1_555
C17 N10 1_555 1_555
H37 C17 1_555 1_555
H38 C17 1_555 1_555
C18 N9 1_555 1_555
H39 C18 1_555 1_555
H40 C18 1_555 1_555
N13 C19 1_555 1_555
N14 C20 1_555 1_555
N15 Ag10 1_555 1_555
N16 C21 1_555 1_555
C19 N15 1_555 1_555
H41 C19 1_555 1_555
H42 C19 1_555 1_555
C20 N15 1_555 1_555
H43 C20 1_555 1_555
H44 C20 1_555 1_555
C21 N13 1_555 1_555
H45 C21 1_555 1_555
H46 C21 1_555 1_555
C22 N15 1_555 1_555
H47 C22 1_555 1_555
H48 C22 1_555 1_555
C23 N13 1_555 1_555
H49 C23 1_555 1_555
H50 C23 1_555 1_555
C24 N14 1_555 1_555
H51 C24 1_555 1_555
H52 C24 1_555 1_555
N17 C25 1_555 1_555
N18 Ag6 1_555 1_555
N19 C25 1_555 1_555
N20 C26 1_555 1_555
C25 H53 1_555 1_555
H54 C25 1_555 1_555
C26 N17 1_555 1_555
H55 C26 1_555 1_555
H56 C26 1_555 1_555
C27 N19 1_555 1_555
H57 C27 1_555 1_555
H58 C27 1_555 1_555
C28 N18 1_555 1_555
H59 C28 1_555 1_555
H60 C28 1_555 1_555
C29 N17 1_555 1_555
H61 C29 1_555 1_555
H62 C29 1_555 1_555
C30 N18 1_555 1_555
H63 C30 1_555 1_555
H64 C30 1_555 1_555
Ag12 O15 1_555 1_555
N21 C31 1_555 1_555
N22 Ag2 1_555 1_555
N23 C32 1_555 1_555
N24 Ag3 1_555 1_555
C31 N24 1_555 1_555
H65 C31 1_555 1_555
H66 C31 1_555 1_555
C32 N22 1_555 1_555
H67 C32 1_555 1_555
H68 C32 1_555 1_555
C33 N23 1_555 1_555
H69 C33 1_555 1_555
H70 C33 1_555 1_555
C34 N21 1_555 1_555
H71 C34 1_555 1_555
H72 C34 1_555 1_555
C35 N21 1_555 1_555
H73 C35 1_555 1_555
H74 C35 1_555 1_555
C36 N22 1_555 1_555
H75 C36 1_555 1_555
H76 C36 1_555 1_555
P12 O46 1_555 1_555
O47 P12 1_555 1_555
O48 P12 1_555 1_555
O49 P12 1_555 1_555
O51 H77 1_555 1_555
O59 H78 1_555 1_555
N8_2 Ag9 1_555 1_555
Ag12A N12 1_555 1_555
N10A Ag1 1_555 1_555
N16A Ag4 1_555 1_555
N20_2 Ag11 1_555 1_555
N12A Ag12 1_555 1_555
N17_2 Ag5 1_555 1_555
Ag2A N19 1_555 1_555
Ag5_2 N17 1_555 1_555
Ag11_2 N20 1_555 1_555
N5A Ag4 1_555 1_555
Ag4A N5 1_555 1_555
Ag9_2 N8 1_555 1_555
Ag4A_2 N16 1_555 1_555
N13A Ag11 1_555 1_555
N14_2 Ag1 1_555 1_555
Ag1_2 N14 1_555 1_555
Ag11A N13 1_555 1_555
Ag1A N10 1_555 1_555
N21_2 Ag12 1_555 1_555
N23_2 Ag7 1_555 1_555
Ag7_2 N23 1_555 1_555
Ag12_2 N21 1_555 1_555
N19A Ag2 1_555 1_555
P10 O40 1_555 1_555
P11 O42 1_555 1_555
P11 O44 1_555 1_555
N2 C3 1_555 1_555
N3 C1 1_555 1_555
N3 C4 1_555 1_555
N4 C5 1_555 1_555
N4 C6 1_555 1_555
N6 C8 1_555 1_555
N7 C9 1_555 1_555
N7 C10 1_555 1_555
N8 C11 1_555 1_555
N8 C12 1_555 1_555
N10 C18 1_555 1_555
N11 C14 1_555 1_555
N12 C15 1_555 1_555
N12 C17 1_555 1_555
N14 C23 1_555 1_555
N16 C22 1_555 1_555
N16 C24 1_555 1_555
N18 C29 1_555 1_555
N19 C30 1_555 1_555
N20 C27 1_555 1_555
N20 C28 1_555 1_555
N22 C35 1_555 1_555
N23 C34 1_555 1_555
N24 C33 1_555 1_555
N24 C36 1_555 1_555

#END
