
#######################################################################
#
#                 Cambridge Crystallographic Data Centre
#                                CCDC 
#
#######################################################################
#
# If this CIF has been generated from an entry in the Cambridge 
# Structural Database, then it will include bibliographic, chemical, 
# crystal, experimental, refinement or atomic coordinate data resulting 
# from the CCDC's data processing and validation procedures.
#
#######################################################################

data_NEFZOO
_chemical_formula_moiety         '(C12 H6 Cu1 F6 N6 P1)n'
_symmetry_cell_setting           tetragonal
_symmetry_space_group_name_H-M   'P 43 21 2'
_symmetry_Int_Tables_number      96
_space_group_name_Hall           'P 4nw 2abw'
loop_
_symmetry_equiv_pos_site_id
_symmetry_equiv_pos_as_xyz
1 x,y,z
2 1/2-y,1/2+x,3/4+z
3 -x,-y,1/2+z
4 1/2+y,1/2-x,1/4+z
5 1/2+x,1/2-y,1/4-z
6 1/2-x,1/2+y,3/4-z
7 y,x,-z
8 -y,-x,1/2-z
_cell_length_a                   11.4992(3)
_cell_length_b                   11.4992(3)
_cell_length_c                   12.7341(6)
_cell_angle_alpha                90
_cell_angle_beta                 90
_cell_angle_gamma                90
_cell_volume                     1683.85
loop_
_atom_site_label
_atom_site_type_symbol
_atom_site_fract_x
_atom_site_fract_y
_atom_site_fract_z
_atom_site_U_iso_or_equiv
_atom_site_thermal_displace_type
Cu1 Cu -0.35266(5) 0.35266(5) -0.2500 0.0218 Uani
N1 N -0.3013(4) 0.5005(4) -0.1790(3) 0.0186 Uani
N2 N -0.2072(4) 0.7029(4) -0.0890(3) 0.0220 Uani
N3 N -0.6034(4) 0.5057(4) 0.0855(4) 0.0263 Uani
C1 C -0.2101(5) 0.5556(5) -0.2193(4) 0.0227 Uani
H1 H -0.1762 0.5257 -0.2798 0.0270 Uiso
C2 C -0.1626(6) 0.6564(5) -0.1751(4) 0.0273 Uani
H2 H -0.0987 0.6913 -0.2068 0.0330 Uiso
C3 C -0.3010(5) 0.6488(4) -0.0472(3) 0.0184 Uani
C4 C -0.4510(4) 0.6525(5) 0.0909(4) 0.0177 Uani
C5 C -0.5037(4) 0.5499(4) 0.0434(4) 0.0193 Uani
C6 C -0.6447(6) 0.4104(5) 0.0433(5) 0.0310 Uani
H3 H -0.6223 0.2879 -0.0708 0.0370 Uiso
Cu1C Cu -0.14734(5) 0.85266(5) 0.0000 0.0218 Uani
Cu1B Cu -0.64734(5) 0.64734(5) 0.2500 0.0218 Uani
N1F N -0.4995(4) 0.6987(4) 0.1790(3) 0.0186 Uani
N1G N -0.5005(4) 0.3013(4) -0.3210(3) 0.0186 Uani
N2E N -0.2928(4) 0.2029(4) -0.1610(3) 0.0220 Uani
N2F N -0.2971(4) 0.7928(4) 0.0890(3) 0.0220 Uani
N2A N -0.2029(4) 0.2928(4) -0.3390(3) 0.0220 Uani
N3F N -0.4943(4) 0.3966(4) -0.0855(4) 0.0263 Uani
C1F C -0.4444(5) 0.7899(5) 0.2193(4) 0.0227 Uani
H1F H -0.4743 0.8238 0.2798 0.0270 Uiso
C2F C -0.3436(5) 0.8374(6) 0.1751(4) 0.0273 Uani
H2F H -0.3087 0.9013 0.2068 0.0330 Uiso
C3F C -0.3512(4) 0.6990(5) 0.0472(3) 0.0184 Uani
C4F C -0.3475(5) 0.5490(4) -0.0909(4) 0.0177 Uani
C5F C -0.4501(4) 0.4963(4) -0.0434(4) 0.0193 Uani
C6F C -0.5896(5) 0.3553(6) -0.0433(5) 0.0310 Uani
H3F H -0.7121 0.3777 0.0708 0.0370 Uiso
P1 P -0.6435(10) -0.0455(13) -0.0181(11) 0.2603 Uani
F1 F -0.5109(14) -0.081(2) -0.023(3) 0.7567 Uani
F2 F -0.677(2) -0.173(2) -0.052(3) 0.4967 Uani
F3 F -0.640(2) -0.022(3) -0.1404(16) 0.3867 Uani
F4 F -0.609(2) 0.0864(15) -0.003(3) 0.3567 Uani
F5 F -0.638(3) -0.0606(19) 0.1061(17) 0.5633 Uani
F6 F -0.7758(14) -0.014(3) -0.0097(14) 0.2007 Uani
loop_
_atom_site_aniso_label
_atom_site_aniso_U_11
_atom_site_aniso_U_22
_atom_site_aniso_U_33
_atom_site_aniso_U_23
_atom_site_aniso_U_13
_atom_site_aniso_U_12
Cu1 0.0182 0.0182 0.0291 -0.0043 -0.0043 0.0025
N1 0.017 0.0174 0.0214 -0.0048 0.0001 0.0023
N2 0.02 0.028 0.0181 0.0016 0.0005 -0.004
N3 0.024 0.025 0.03 -0.0037 0.0062 -0.0046
C1 0.024 0.023 0.021 -0.0049 -0.0006 0.001
C2 0.024 0.034 0.024 -0.002 0.005 -0.005
C3 0.018 0.019 0.0181 0.0016 -0.0001 -0.0024
C4 0.0151 0.018 0.02 0 0 -0.0004
C5 0.018 0.02 0.02 -0.0004 0.0049 -0.0007
C6 0.024 0.023 0.046 -0.009 0.011 0.001
Cu1C 0.0182 0.0182 0.0291 0.0043 -0.0043 -0.0025
Cu1B 0.0182 0.0182 0.0291 0.0043 0.0043 0.0025
N1F 0.0174 0.017 0.0214 -0.0001 0.0048 0.0023
N1G 0.0174 0.017 0.0214 0.0001 -0.0048 0.0023
N2E 0.02 0.028 0.0181 -0.0016 0.0005 0.004
N2F 0.028 0.02 0.0181 -0.0005 -0.0016 -0.004
N2A 0.028 0.02 0.0181 0.0005 -0.0016 0.004
N3F 0.025 0.024 0.03 -0.0062 0.0037 -0.0046
C1F 0.023 0.024 0.021 0.0006 0.0049 0.001
C2F 0.034 0.024 0.024 -0.005 0.002 -0.005
C3F 0.019 0.018 0.0181 0.0001 -0.0016 -0.0024
C4F 0.018 0.0151 0.02 0 0 -0.0004
C5F 0.02 0.018 0.02 -0.0049 0.0004 -0.0007
C6F 0.023 0.024 0.046 -0.011 0.009 0.001
P1 0.163 0.323 0.295 0.261 -0.154 -0.183
F1 0.31 0.56 1.4 0.81 -0.62 -0.36
F2 0.5 0.58 0.41 0.28 -0.27 -0.5
F3 0.17 0.56 0.43 0.45 0 0.02
F4 0.38 0.16 0.53 0.25 -0.21 -0.15
F5 0.69 0.19 0.81 0.34 -0.7 -0.31
F6 0.16 0.35 0.092 0.06 -0.029 -0.03
loop_
_geom_bond_atom_site_label_1
_geom_bond_atom_site_label_2
_geom_bond_site_symmetry_1
_geom_bond_site_symmetry_2
Cu1 N1 1_555 1_555
P1 F1 1_555 1_555
F2 P1 1_555 1_555
F3 P1 1_555 1_555
F4 P1 1_555 1_555
F5 P1 1_555 1_555
F6 P1 1_555 1_555
N1 C1 1_555 1_555
N2 C2 1_555 1_555
N3 C5 1_555 1_555
C1 H1 1_555 1_555
C2 C1 1_555 1_555
H2 C2 1_555 1_555
C3 N2 1_555 1_555
C4 C5 1_555 1_555
C5 C5F 1_555 1_555
C6 N3 1_555 1_555
H3 C6F 1_555 1_555
Cu1C N2 1_555 1_555
Cu1B N1F 1_555 1_555
N1F C4 1_555 1_555
N1G Cu1 1_555 1_555
N2E Cu1 1_555 1_555
N2F Cu1C 1_555 1_555
N2A Cu1 1_555 1_555
N3F C5F 1_555 1_555
C1F N1F 1_555 1_555
H1F C1F 1_555 1_555
C2F N2F 1_555 1_555
H2F C2F 1_555 1_555
C3F C3 1_555 1_555
C4F N1 1_555 1_555
C5F C4F 1_555 1_555
C6F C6 1_555 1_555
H3F C6 1_555 1_555
C3 C4F 1_555 1_555
C4 C3F 1_555 1_555
N2F C3F 1_555 1_555
N3F C6F 1_555 1_555
C1F C2F 1_555 1_555

#END
