
#######################################################################
#
#                 Cambridge Crystallographic Data Centre
#                                CCDC 
#
#######################################################################
#
# If this CIF has been generated from an entry in the Cambridge 
# Structural Database, then it will include bibliographic, chemical, 
# crystal, experimental, refinement or atomic coordinate data resulting 
# from the CCDC's data processing and validation procedures.
#
#######################################################################

data_BUKSIL
_chemical_formula_moiety         '(C24 H12 Co2 N12 O14 Zn6)n'
_symmetry_cell_setting           cubic
_symmetry_space_group_name_H-M   'P 21 3'
_symmetry_Int_Tables_number      198
_space_group_name_Hall           'P 2ac 2ab 3'
loop_
_symmetry_equiv_pos_site_id
_symmetry_equiv_pos_as_xyz
1 x,y,z
2 1/2-x,-y,1/2+z
3 -x,1/2+y,1/2-z
4 1/2+x,1/2-y,-z
5 z,x,y
6 1/2+z,1/2-x,-y
7 1/2-z,-x,1/2+y
8 -z,1/2+x,1/2-y
9 y,z,x
10 -y,1/2+z,1/2-x
11 1/2+y,1/2-z,-x
12 1/2-y,-z,1/2+x
_cell_length_a                   20.1310(4)
_cell_length_b                   20.1310(4)
_cell_length_c                   20.1310(4)
_cell_angle_alpha                90
_cell_angle_beta                 90
_cell_angle_gamma                90
_cell_volume                     8158.23
loop_
_atom_site_label
_atom_site_type_symbol
_atom_site_fract_x
_atom_site_fract_y
_atom_site_fract_z
Zn1 Zn 0.80484(6) 0.69678(6) 0.19279(6)
Zn2 Zn 0.30520(6) 0.69499(6) 0.30754(6)
Co1 Co 0.19253(6) 0.80747(6) 0.30747(6)
Co2 Co 0.69058(7) 0.80942(7) 0.19058(7)
N1 N 0.4010(4) 0.7339(4) 0.2739(4)
N2 N 0.3932(3) 0.7803(3) 0.2218(3)
C1 C 0.4994(6) 0.7476(5) 0.2538(5)
C2 C 0.4616(6) 0.7873(6) 0.2055(6)
H1 H 0.4793 0.8126 0.1705
C3 C 0.4546(6) 0.7112(7) 0.2871(6)
H2 H 0.4634 0.6750 0.3153
N3 N 0.0952(5) 0.7693(4) 0.2713(5)
O1 O 0.7464(3) 0.7536(3) 0.2464(3)
O2 O 0.5999(5) 0.7165(6) 0.2812(6)
O3 O 0.6040(3) 0.7863(4) 0.2134(4)
N4 N 0.1049(3) 0.7180(4) 0.2270(4)
C4 C 0.0369(5) 0.7919(5) 0.2874(6)
H3 H 0.0255 0.8226 0.3207
C5 C 0.0454(8) 0.7155(9) 0.2145(8)
H4 H 0.0298 0.6837 0.1841
O4 O -0.1074(4) 0.7158(5) 0.2117(5)
O5 O -0.0945(6) 0.7925(7) 0.2912(6)
O6 O 0.2445(3) 0.7555(3) 0.2555(3)
C6 C -0.0017(6) 0.7609(5) 0.2457(5)
C7 C -0.0779(7) 0.7543(7) 0.2380(6)
C8 C 0.5634(8) 0.7436(8) 0.2575(7)
Zn1E Zn 0.69279(6) 0.69516(6) 0.30322(6)
Zn2E Zn 0.80754(6) 1.19480(6) 0.30501(6)
N1E N 0.7739(4) 1.0990(4) 0.2661(4)
N2E N 0.7218(3) 1.1068(3) 0.2197(3)
C1E C 0.7538(5) 1.0006(6) 0.2524(5)
C2E C 0.7055(6) 1.0384(6) 0.2127(6)
H1E H 0.6705 1.0207 0.1874
C3E C 0.7871(6) 1.0454(6) 0.2888(7)
H2E H 0.8153 1.0366 0.3250
O2E O 0.7812(6) 0.9001(5) 0.2835(6)
O3E O 0.7134(4) 0.8960(3) 0.2137(4)
C8E C 0.7575(7) 0.9366(8) 0.2564(8)
Zn1K Zn 0.80322(6) 0.80721(6) 0.30484(6)
Zn2K Zn 0.80501(6) 0.69246(6) -0.19480(6)
N1K N 0.7661(4) 0.7261(4) -0.0990(4)
N2K N 0.7197(3) 0.7782(3) -0.1068(3)
C1K C 0.7524(5) 0.7462(5) -0.0006(6)
C2K C 0.7127(6) 0.7945(6) -0.0384(6)
H1K H 0.6874 0.8295 -0.0207
C3K C 0.7888(7) 0.7129(6) -0.0454(6)
H2K H 0.8250 0.6847 -0.0366
O2K O 0.7835(6) 0.7188(6) 0.0999(5)
O3K O 0.7137(4) 0.7866(4) 0.1040(3)
C8K C 0.7564(8) 0.7425(7) 0.0634(8)
N3_2 N 1.0952(5) 0.7693(4) 0.2713(5)
N4_2 N 1.1049(3) 0.7180(4) 0.2270(4)
C4_2 C 1.0369(5) 0.7919(5) 0.2874(6)
H3_2 H 1.0255 0.8226 0.3207
C5_2 C 1.0454(8) 0.7155(9) 0.2145(8)
H4_2 H 1.0298 0.6837 0.1841
O4_2 O 0.8926(4) 0.7158(5) 0.2117(5)
O5_2 O 0.9055(6) 0.7925(7) 0.2912(6)
C6_2 C 0.9983(6) 0.7609(5) 0.2457(5)
C7_2 C 0.9221(7) 0.7543(7) 0.2380(6)
N3E N 0.7713(5) 0.4048(5) 0.2307(4)
N4E N 0.7270(4) 0.3951(3) 0.2820(4)
C4E C 0.7874(6) 0.4631(5) 0.2081(5)
H3E H 0.8207 0.4745 0.1774
C5E C 0.7145(8) 0.4546(8) 0.2845(9)
H4E H 0.6841 0.4702 0.3163
O4E O 0.7117(5) 0.6074(4) 0.2842(5)
O5E O 0.7912(6) 0.5945(6) 0.2075(7)
C6E C 0.7457(5) 0.5017(6) 0.2391(5)
C7E C 0.7380(6) 0.5779(7) 0.2457(7)
Zn1_2 Zn -0.19516(6) 0.69678(6) 0.19279(6)
Zn1K_2 Zn -0.19678(6) 0.80721(6) 0.30484(6)
Zn2B Zn 0.69480(6) 1.19499(6) 0.19246(6)
Zn2F Zn 0.19246(6) 0.69480(6) 0.19499(6)
Zn2F_2 Zn 1.19246(6) 0.69480(6) 0.19499(6)
Zn2G Zn 0.69246(6) 0.80520(6) -0.19499(6)
Zn2H Zn 0.69499(6) 0.30754(6) 0.30520(6)
Zn2I Zn 0.30501(6) 0.80754(6) 0.19480(6)
Co1_2 Co 1.19253(6) 0.80747(6) 0.30747(6)
Co1B Co 0.80747(6) 0.30747(6) 0.19253(6)
Co1B_2 Co 0.80747(6) 1.30747(6) 0.19253(6)
Co1C Co 0.69253(6) 0.69253(6) -0.30747(6)
N2C N 0.8932(3) 0.7197(3) -0.2218(3)
N2F N 0.2782(3) 0.6068(3) 0.2803(3)
N2H N 0.7803(3) 1.2218(3) 0.3932(3)
N3F N 0.2287(5) 0.9048(5) 0.2693(4)
N3I N 0.2307(4) 0.7713(5) 0.4048(5)
N4B N 0.8951(3) 1.2180(4) 0.2730(4)
N4G N 0.7730(4) 0.6049(3) -0.2180(4)
N4I N 0.2820(4) 0.7270(4) 0.3951(3)
O4K O 0.7842(5) 0.7883(5) 0.3926(4)
O5K O 0.7075(7) 0.7088(6) 0.4055(6)
O6B O 0.7555(3) 1.2555(3) 0.2445(3)
O6C O 0.7445(3) 0.7445(3) -0.2555(3)
loop_
_geom_bond_atom_site_label_1
_geom_bond_atom_site_label_2
_geom_bond_site_symmetry_1
_geom_bond_site_symmetry_2
Zn1 O1 1_555 1_555
Zn2 Co1 1_555 1_555
Co1 N3 1_555 1_555
Co2 O1 1_555 1_555
N1 Zn2 1_555 1_555
N2 N1 1_555 1_555
C1 C2 1_555 1_555
C2 N2 1_555 1_555
H1 C2 1_555 1_555
C3 N1 1_555 1_555
H2 C3 1_555 1_555
N3 N4 1_555 1_555
O1 Zn1E 1_555 1_555
O2 C8 1_555 1_555
O3 Co2 1_555 1_555
N4 C5 1_555 1_555
C4 N3 1_555 1_555
H3 C4 1_555 1_555
C5 H4 1_555 1_555
O4 C7 1_555 1_555
O5 C7 1_555 1_555
O6 Zn2 1_555 1_555
C6 C4 1_555 1_555
C7 C6 1_555 1_555
C8 C1 1_555 1_555
Zn1E O2 1_555 1_555
Zn2E N1E 1_555 1_555
N1E N2E 1_555 1_555
N2E C2E 1_555 1_555
C1E C2E 1_555 1_555
C2E H1E 1_555 1_555
C3E N1E 1_555 1_555
H2E C3E 1_555 1_555
O2E C8E 1_555 1_555
O3E Co2 1_555 1_555
C8E C1E 1_555 1_555
Zn1K O1 1_555 1_555
Zn2K N1K 1_555 1_555
N1K N2K 1_555 1_555
N2K C2K 1_555 1_555
C1K C2K 1_555 1_555
C2K H1K 1_555 1_555
C3K N1K 1_555 1_555
H2K C3K 1_555 1_555
O2K Zn1 1_555 1_555
O3K Co2 1_555 1_555
C8K C1K 1_555 1_555
N3_2 N4_2 1_555 1_555
N4_2 C5_2 1_555 1_555
C4_2 N3_2 1_555 1_555
H3_2 C4_2 1_555 1_555
C5_2 H4_2 1_555 1_555
O4_2 Zn1 1_555 1_555
O5_2 Zn1K 1_555 1_555
C6_2 C4_2 1_555 1_555
C7_2 O4_2 1_555 1_555
N3E N4E 1_555 1_555
N4E C5E 1_555 1_555
C4E N3E 1_555 1_555
H3E C4E 1_555 1_555
C5E H4E 1_555 1_555
O4E Zn1E 1_555 1_555
O5E Zn1 1_555 1_555
C6E C4E 1_555 1_555
C7E O4E 1_555 1_555
Zn1_2 O4 1_555 1_555
Zn1K_2 O5 1_555 1_555
Zn2B N2E 1_555 1_555
Zn2F Co1 1_555 1_555
Zn2F_2 N4_2 1_555 1_555
Zn2G N2K 1_555 1_555
Zn2H N4E 1_555 1_555
Zn2I Co1 1_555 1_555
Co1_2 N3_2 1_555 1_555
Co1B N3E 1_555 1_555
Co1B_2 Zn2E 1_555 1_555
Co1C Zn2K 1_555 1_555
N2C Zn2K 1_555 1_555
N2F Zn2 1_555 1_555
N2H Zn2E 1_555 1_555
N3F Co1 1_555 1_555
N3I Co1 1_555 1_555
N4B Zn2E 1_555 1_555
N4G Zn2K 1_555 1_555
N4I Zn2 1_555 1_555
O4K Zn1K 1_555 1_555
O5K Zn1E 1_555 1_555
O6B Zn2E 1_555 1_555
O6C Zn2K 1_555 1_555
Co1 O6 1_555 1_555
N2 Zn2I 1_555 1_555
C1 C3 1_555 1_555
O3 C8 1_555 1_555
N4 Zn2F 1_555 1_555
C5 C6 1_555 1_555
O6 Zn2F 1_555 1_555
O6 Zn2I 1_555 1_555
C1E C3E 1_555 1_555
O2E Zn1K 1_555 1_555
O3E C8E 1_555 1_555
C1K C3K 1_555 1_555
O2K C8K 1_555 1_555
O3K C8K 1_555 1_555
C5_2 C6_2 1_555 1_555
O5_2 C7_2 1_555 1_555
C6_2 C7_2 1_555 1_555
C5E C6E 1_555 1_555
O5E C7E 1_555 1_555
C6E C7E 1_555 1_555
Zn2B Co1B_2 1_555 1_555
Zn2B O6B 1_555 1_555
Zn2F_2 Co1_2 1_555 1_555
Zn2G Co1C 1_555 1_555
Zn2G O6C 1_555 1_555
Zn2H Co1B 1_555 1_555
Co1B_2 O6B 1_555 1_555
Co1C O6C 1_555 1_555
N3I N4I 1_555 1_555

#END
