
#######################################################################
#
#                 Cambridge Crystallographic Data Centre
#                                CCDC 
#
#######################################################################
#
# If this CIF has been generated from an entry in the Cambridge 
# Structural Database, then it will include bibliographic, chemical, 
# crystal, experimental, refinement or atomic coordinate data resulting 
# from the CCDC's data processing and validation procedures.
#
#######################################################################

data_HUWHUE
_chemical_formula_moiety         'C64 H48 Cd11 N10 O22'
_symmetry_cell_setting           orthorhombic
_symmetry_space_group_name_H-M   'P 21 21 2'
_symmetry_Int_Tables_number      18
_space_group_name_Hall           'P 2 2ab'
loop_
_symmetry_equiv_pos_site_id
_symmetry_equiv_pos_as_xyz
1 x,y,z
2 -x,-y,z
3 1/2-x,1/2+y,-z
4 1/2+x,1/2-y,-z
_cell_length_a                   15.7264(6)
_cell_length_b                   20.8072(11)
_cell_length_c                   13.9774(6)
_cell_angle_alpha                90
_cell_angle_beta                 90
_cell_angle_gamma                90
_cell_volume                     4573.72
loop_
_atom_site_label
_atom_site_type_symbol
_atom_site_fract_x
_atom_site_fract_y
_atom_site_fract_z
Cd1 Cd 0.74934(3) 0.09010(2) 0.38759(3)
Cd2 Cd 1.0000 0.0000 0.40313(5)
N1 N 0.7595(7) 0.0847(4) 0.5527(5)
N2 N 0.7411(6) 0.1004(4) 1.2190(5)
N3 N 1.0000 0.0000 0.2382(7)
O1 O 0.7827(4) 0.4804(3) 0.6326(5)
C1 C 0.7082(5) 0.4600(4) 0.6230(7)
N4 N 1.0000 0.0000 0.5690(7)
O2 O 0.8745(3) 0.1414(3) 0.3631(4)
N5 N 0.7652(5) 0.3498(4) 0.6170(8)
O3 O 0.6475(3) 0.4979(3) 0.6085(5)
O4 O 1.1778(4) 0.2956(4) 0.5767(7)
O5 O 1.1089(4) 0.3882(4) 0.5924(6)
C2 C 0.9392(5) 0.1500(4) 0.4098(6)
C3 C 0.9618(7) 0.0464(6) 0.1903(5)
H1 H 0.9345 0.0789 0.2242
C4 C 0.6913(5) 0.3897(4) 0.6350(10)
H2 H 0.6441 0.3764 0.5937
O6 O 0.9990(4) 0.1108(3) 0.4224(4)
C5 C 1.0318(6) 0.3001(5) 0.5355(9)
C6 C 0.9484(6) 0.2162(4) 0.4586(6)
C7 C 1.0244(5) 0.2383(4) 0.4942(7)
H3 H 1.0722 0.2119 0.4912
O7 O 0.7655(6) 0.3771(4) 0.4610(7)
C8 C 0.8753(5) 0.2529(4) 0.4680(6)
H4 H 0.8242 0.2383 0.4423
C9 C 0.7563(13) 0.0722(6) 0.7555(10)
C10 C 0.7425(11) 0.1083(6) 1.0240(8)
C11 C 1.0000 -0.0000 0.774(2)
C12 C 0.7585(11) 0.1531(5) 1.1802(8)
H5 H 0.7667 0.1890 1.2186
C13 C 1.0000 0.0000 0.0397(9)
C14 C 0.7440(15) 0.1156(8) 0.9154(9)
H6 H 0.7419 0.1575 0.8922
C15 C 0.7162(10) 0.0522(8) 1.0690(8)
H7 H 0.6942 0.0180 1.0342
C16 C 0.7662(11) 0.1596(6) 1.0797(8)
H8 H 0.7865 0.1974 1.0524
C17 C 0.8782(5) 0.3113(4) 0.5157(8)
C18 C 0.7240(10) 0.0491(6) 1.1668(9)
H9 H 0.7170 0.0097 1.1972
C19 C 0.7550(17) 0.0255(8) 0.6960(11)
H10 H 0.7574 -0.0158 0.7212
C20 C 0.7757(14) 0.1335(7) 0.6068(11)
H11 H 0.7911 0.1724 0.5791
C21 C 0.7477(11) 0.0714(7) 0.8529(8)
H12 H 0.7438 0.0303 0.8785
C22 C 0.9611(10) 0.0485(8) 0.0911(9)
H13 H 0.9345 0.0823 0.0594
C23 C 0.7970(6) 0.3482(5) 0.5262(9)
C24 C 0.7704(16) 0.1287(8) 0.7071(9)
H14 H 0.7769 0.1661 0.7428
C25 C 0.994(2) 0.0238(11) 0.8826(19)
C26 C 0.7505(17) 0.0309(6) 0.5998(9)
H15 H 0.7403 -0.0063 0.5647
C27 C 0.9523(6) 0.3351(4) 0.5460(8)
H16 H 0.9532 0.3754 0.5748
C28 C 1.1096(6) 0.3287(5) 0.5711(8)
C29 C 1.0337(12) 0.0504(9) 0.6220(15)
H17 H 1.0623 0.0841 0.5924
C30 C 0.7979(9) 0.3160(7) 0.7021(11)
H18 H 0.8426 0.3404 0.7332
H19 H 0.8193 0.2736 0.6859
C31 C 0.6719(9) 0.3723(7) 0.7398(12)
H20 H 0.6903 0.4069 0.7815
H21 H 0.6112 0.3665 0.7482
C32 C 1.0222(17) 0.0487(13) 0.730(2)
H22 H 1.0324 0.0860 0.7650
C33 C 0.7175(14) 0.3118(10) 0.7652(17)
H23 H 0.6838 0.2742 0.7495
H24 H 0.7320 0.3107 0.8326
C3A C 1.0382(7) -0.0464(6) 0.1903(5)
H1A H 1.0655 -0.0789 0.2242
C22A C 1.0389(10) -0.0485(8) 0.0911(9)
H13A H 1.0655 -0.0823 0.0594
C25A C 1.006(2) -0.0238(11) 0.8826(19)
C29A C 0.9663(12) -0.0504(9) 0.6220(15)
H17A H 0.9377 -0.0841 0.5924
C32A C 0.9778(17) -0.0487(13) 0.730(2)
H22A H 0.9676 -0.0860 0.7650
Cd1A Cd 1.25066(3) -0.09010(2) 0.38759(3)
N1A N 1.2405(7) -0.0847(4) 0.5527(5)
N2A N 1.2589(6) -0.1004(4) 1.2190(5)
O1A O 1.2173(4) -0.4804(3) 0.6326(5)
C1A C 1.2918(5) -0.4600(4) 0.6230(7)
O2A O 1.1255(3) -0.1414(3) 0.3631(4)
N5A N 1.2348(5) -0.3498(4) 0.6170(8)
O3A O 1.3525(3) -0.4979(3) 0.6085(5)
O4A O 0.8222(4) -0.2956(4) 0.5767(7)
O5A O 0.8911(4) -0.3882(4) 0.5924(6)
C2A C 1.0608(5) -0.1500(4) 0.4098(6)
C4A C 1.3087(5) -0.3897(4) 0.6350(10)
H2A H 1.3559 -0.3764 0.5937
O6A O 1.0010(4) -0.1108(3) 0.4224(4)
C5A C 0.9682(6) -0.3001(5) 0.5355(9)
C6A C 1.0516(6) -0.2162(4) 0.4586(6)
C7A C 0.9756(5) -0.2383(4) 0.4942(7)
H3A H 0.9278 -0.2119 0.4912
O7A O 1.2345(6) -0.3771(4) 0.4610(7)
C8A C 1.1247(5) -0.2529(4) 0.4680(6)
H4A H 1.1758 -0.2383 0.4423
C9A C 1.2437(13) -0.0722(6) 0.7555(10)
C10A C 1.2575(11) -0.1083(6) 1.0240(8)
C12A C 1.2415(11) -0.1531(5) 1.1802(8)
H5A H 1.2333 -0.1890 1.2186
C14A C 1.2560(15) -0.1156(8) 0.9154(9)
H6A H 1.2581 -0.1575 0.8922
C15A C 1.2838(10) -0.0522(8) 1.0690(8)
H7A H 1.3058 -0.0180 1.0342
C16A C 1.2338(11) -0.1596(6) 1.0797(8)
H8A H 1.2135 -0.1974 1.0524
C17A C 1.1218(5) -0.3113(4) 0.5157(8)
C18A C 1.2760(10) -0.0491(6) 1.1668(9)
H9A H 1.2830 -0.0097 1.1972
C19A C 1.2450(17) -0.0255(8) 0.6960(11)
H10A H 1.2426 0.0158 0.7212
C20A C 1.2243(14) -0.1335(7) 0.6068(11)
H11A H 1.2089 -0.1724 0.5791
C21A C 1.2523(11) -0.0714(7) 0.8529(8)
H12A H 1.2562 -0.0303 0.8785
C23A C 1.2030(6) -0.3482(5) 0.5262(9)
C24A C 1.2296(16) -0.1287(8) 0.7071(9)
H14A H 1.2231 -0.1661 0.7428
C26A C 1.2495(17) -0.0309(6) 0.5998(9)
H15A H 1.2597 0.0063 0.5647
C27A C 1.0477(6) -0.3351(4) 0.5460(8)
H16A H 1.0468 -0.3754 0.5748
C28A C 0.8904(6) -0.3287(5) 0.5711(8)
C30A C 1.2021(9) -0.3160(7) 0.7021(11)
H18A H 1.1574 -0.3404 0.7332
H19A H 1.1807 -0.2736 0.6859
C31A C 1.3281(9) -0.3723(7) 0.7398(12)
H20A H 1.3097 -0.4069 0.7815
H21A H 1.3888 -0.3665 0.7482
C33A C 1.2825(14) -0.3118(10) 0.7652(17)
H23A H 1.3162 -0.2742 0.7495
H24A H 1.2680 -0.3107 0.8326
Cd1_2 Cd 0.74934(3) 0.09010(2) 1.38759(3)
Cd1A_2 Cd 1.25066(3) -0.09010(2) 1.38759(3)
Cd1B Cd 0.75066(3) -0.40990(2) 0.61241(3)
Cd1B_2 Cd 0.75066(3) 0.59010(2) 0.61241(3)
Cd1C Cd 1.24934(3) -0.59010(2) 0.61241(3)
Cd1C_2 Cd 1.24934(3) 0.40990(2) 0.61241(3)
Cd2B Cd 0.5000 0.5000 0.59687(5)
Cd2B_2 Cd 1.5000 -0.5000 0.59687(5)
N2_2 N 0.7411(6) 0.1004(4) 0.2190(5)
N2A_2 N 1.2589(6) -0.1004(4) 0.2190(5)
O1B O 0.7173(4) -0.0196(3) 0.3674(5)
O1C O 1.2827(4) 0.0196(3) 0.3674(5)
O3B O 0.8525(3) -0.0021(3) 0.3915(5)
O3C O 1.1475(3) 0.0021(3) 0.3915(5)
O4B O 1.3222(4) -0.2044(4) 0.4233(7)
O4C O 0.6778(4) 0.2044(4) 0.4233(7)
O5B O 1.3911(4) -0.1118(4) 0.4076(6)
O5C O 0.6089(4) 0.1118(4) 0.4076(6)
loop_
_geom_bond_atom_site_label_1
_geom_bond_atom_site_label_2
_geom_bond_site_symmetry_1
_geom_bond_site_symmetry_2
Cd1 N1 1_555 1_555
Cd2 N3 1_555 1_555
N1 C20 1_555 1_555
N2 C12 1_555 1_555
N3 C3 1_555 1_555
O1 C1 1_555 1_555
C1 O3 1_555 1_555
N4 Cd2 1_555 1_555
O2 Cd1 1_555 1_555
N5 C4 1_555 1_555
O3 Cd1B_2 1_555 1_555
O4 C28 1_555 1_555
O5 C28 1_555 1_555
C2 O2 1_555 1_555
C3 H1 1_555 1_555
C4 C1 1_555 1_555
H2 C4 1_555 1_555
O6 Cd2 1_555 1_555
C5 C7 1_555 1_555
C6 C2 1_555 1_555
C7 C6 1_555 1_555
H3 C7 1_555 1_555
O7 C23 1_555 1_555
C8 C6 1_555 1_555
H4 C8 1_555 1_555
C9 C19 1_555 1_555
C10 C14 1_555 1_555
C11 C25 1_555 1_555
C12 H5 1_555 1_555
C13 C22 1_555 1_555
C14 H6 1_555 1_555
C15 C10 1_555 1_555
H7 C15 1_555 1_555
C16 C10 1_555 1_555
H8 C16 1_555 1_555
C17 C8 1_555 1_555
C18 N2 1_555 1_555
H9 C18 1_555 1_555
C19 H10 1_555 1_555
C20 H11 1_555 1_555
C21 C9 1_555 1_555
H12 C21 1_555 1_555
C22 C3 1_555 1_555
H13 C22 1_555 1_555
C23 N5 1_555 1_555
C24 C9 1_555 1_555
H14 C24 1_555 1_555
C25 C25A 1_555 1_555
C26 N1 1_555 1_555
H15 C26 1_555 1_555
C27 C5 1_555 1_555
H16 C27 1_555 1_555
C28 C5 1_555 1_555
C29 N4 1_555 1_555
H17 C29 1_555 1_555
C30 N5 1_555 1_555
H18 C30 1_555 1_555
H19 C30 1_555 1_555
C31 C4 1_555 1_555
H20 C31 1_555 1_555
H21 C31 1_555 1_555
C32 C11 1_555 1_555
H22 C32 1_555 1_555
C33 C30 1_555 1_555
H23 C33 1_555 1_555
H24 C33 1_555 1_555
C3A N3 1_555 1_555
H1A C3A 1_555 1_555
C22A C13 1_555 1_555
H13A C22A 1_555 1_555
C25A C11 1_555 1_555
C29A N4 1_555 1_555
H17A C29A 1_555 1_555
C32A C11 1_555 1_555
H22A C32A 1_555 1_555
Cd1A N1A 1_555 1_555
N1A C20A 1_555 1_555
N2A C12A 1_555 1_555
O1A C1A 1_555 1_555
C1A O3A 1_555 1_555
O2A Cd1A 1_555 1_555
N5A C4A 1_555 1_555
O3A Cd1C 1_555 1_555
O4A C28A 1_555 1_555
O5A C28A 1_555 1_555
C2A O2A 1_555 1_555
C4A C1A 1_555 1_555
H2A C4A 1_555 1_555
O6A Cd2 1_555 1_555
C5A C7A 1_555 1_555
C6A C2A 1_555 1_555
C7A C6A 1_555 1_555
H3A C7A 1_555 1_555
O7A C23A 1_555 1_555
C8A C6A 1_555 1_555
H4A C8A 1_555 1_555
C9A C19A 1_555 1_555
C10A C14A 1_555 1_555
C12A H5A 1_555 1_555
C14A H6A 1_555 1_555
C15A C10A 1_555 1_555
H7A C15A 1_555 1_555
C16A C10A 1_555 1_555
H8A C16A 1_555 1_555
C17A C8A 1_555 1_555
C18A N2A 1_555 1_555
H9A C18A 1_555 1_555
C19A H10A 1_555 1_555
C20A H11A 1_555 1_555
C21A C9A 1_555 1_555
H12A C21A 1_555 1_555
C23A N5A 1_555 1_555
C24A C9A 1_555 1_555
H14A C24A 1_555 1_555
C26A N1A 1_555 1_555
H15A C26A 1_555 1_555
C27A C5A 1_555 1_555
H16A C27A 1_555 1_555
C28A C5A 1_555 1_555
C30A N5A 1_555 1_555
H18A C30A 1_555 1_555
H19A C30A 1_555 1_555
C31A C4A 1_555 1_555
H20A C31A 1_555 1_555
H21A C31A 1_555 1_555
C33A C30A 1_555 1_555
H23A C33A 1_555 1_555
H24A C33A 1_555 1_555
Cd1_2 N2 1_555 1_555
Cd1A_2 N2A 1_555 1_555
Cd1B O4A 1_555 1_555
Cd1B_2 O1 1_555 1_555
Cd1C O1A 1_555 1_555
Cd1C_2 O4 1_555 1_555
Cd2B O3 1_555 1_555
Cd2B_2 O3A 1_555 1_555
N2_2 Cd1 1_555 1_555
N2A_2 Cd1A 1_555 1_555
O1B Cd1 1_555 1_555
O1C Cd1A 1_555 1_555
O3B Cd1 1_555 1_555
O3C Cd2 1_555 1_555
O4B Cd1A 1_555 1_555
O4C Cd1 1_555 1_555
O5B Cd1A 1_555 1_555
O5C Cd1 1_555 1_555
Cd2 O3B 1_555 1_555
O5 Cd1C_2 1_555 1_555
C2 O6 1_555 1_555
C12 C16 1_555 1_555
C14 C21 1_555 1_555
C15 C18 1_555 1_555
C17 C23 1_555 1_555
C17 C27 1_555 1_555
C19 C26 1_555 1_555
C20 C24 1_555 1_555
C29 C32 1_555 1_555
C31 C33 1_555 1_555
C3A C22A 1_555 1_555
C29A C32A 1_555 1_555
Cd1A O3C 1_555 1_555
O5A Cd1B 1_555 1_555
C2A O6A 1_555 1_555
C12A C16A 1_555 1_555
C14A C21A 1_555 1_555
C15A C18A 1_555 1_555
C17A C23A 1_555 1_555
C17A C27A 1_555 1_555
C19A C26A 1_555 1_555
C20A C24A 1_555 1_555
C31A C33A 1_555 1_555

#END
