
#######################################################################
#
#                 Cambridge Crystallographic Data Centre
#                                CCDC 
#
#######################################################################
#
# If this CIF has been generated from an entry in the Cambridge 
# Structural Database, then it will include bibliographic, chemical, 
# crystal, experimental, refinement or atomic coordinate data resulting 
# from the CCDC's data processing and validation procedures.
#
#######################################################################

data_HUXHEP01
_chemical_formula_moiety         'C32 H28 Cd9 N6 O24'
_symmetry_cell_setting           monoclinic
_symmetry_space_group_name_H-M   'C 2'
_symmetry_Int_Tables_number      5
_space_group_name_Hall           'C 2y'
loop_
_symmetry_equiv_pos_site_id
_symmetry_equiv_pos_as_xyz
1 x,y,z
2 -x,y,-z
3 1/2+x,1/2+y,z
4 1/2-x,1/2+y,-z
_cell_length_a                   22.9097(10)
_cell_length_b                   6.8910(3)
_cell_length_c                   14.4132(6)
_cell_angle_alpha                90
_cell_angle_beta                 106.620(4)
_cell_angle_gamma                90
_cell_volume                     2180.36
loop_
_atom_site_label
_atom_site_type_symbol
_atom_site_fract_x
_atom_site_fract_y
_atom_site_fract_z
Cd1 Cd 0.5000 0.1281(2) 1.0000
Cd2 Cd 0.413002(15) 0.15570(7) 0.69339(2)
C1 C 0.6801(3) -0.0049(9) 0.6592(4)
H1 H 0.7090 -0.0361 0.6276
O1 O 0.5634(2) 0.1138(10) 0.8975(3)
C2 C 0.6116(3) 0.1185(12) 0.5014(4)
C3 C 0.8107(3) -0.3997(9) 0.8988(4)
H2 H 0.8300 -0.3320 0.9597
O2 O 0.5697(2) 0.2330(8) 0.4582(3)
C4 C 0.5825(2) 0.1401(13) 0.6567(4)
H3 H 0.5468 0.2038 0.6236
O3 O 0.90844(17) -0.3672(10) 0.8702(3)
O4 O 0.3767(2) 0.4767(8) 0.7008(3)
N1 N 0.4930(8) -0.187(3) 0.9425(13)
O5 O 0.8302(2) -0.4294(7) 0.7443(3)
C5 C 0.6917(3) -0.0435(9) 0.7566(4)
N2 N 0.7519(2) -0.3074(8) 0.8487(3)
C6 C 0.6494(3) 0.0074(10) 0.8050(4)
H4 H 0.6571 -0.0205 0.8705
C7 C 0.7239(3) -0.5761(10) 0.9218(4)
H5 H 0.7017 -0.6977 0.9116
H6 H 0.7224 -0.5200 0.9827
C8 C 0.7520(3) -0.1291(10) 0.8097(4)
C9 C 0.6991(3) -0.4378(10) 0.8389(4)
H7 H 0.6881 -0.5048 0.7771
H8 H 0.6640 -0.3675 0.8462
O6 O 0.4510(2) -0.1613(9) 0.7313(5)
C10 C 0.5518(2) 0.1613(15) 0.8115(4)
O7 O 0.6433(3) 0.0282(9) 0.4564(3)
O8 O 0.8001(2) -0.0394(7) 0.8178(3)
C11 C 0.6247(3) 0.0817(10) 0.6071(4)
O9 O 0.50638(19) 0.2687(7) 0.7679(3)
C12 C 0.7909(3) -0.6055(10) 0.9194(5)
H9 H 0.8162 -0.6539 0.9810
H10 H 0.7929 -0.6953 0.8686
C13 C 0.8528(3) -0.3997(9) 0.8338(4)
C14 C 0.5946(2) 0.1017(9) 0.7547(4)
C15 C 0.4492(7) -0.439(2) 1.0178(11)
H11 H 0.4115 -0.5115 1.0056
H12 H 0.4606 -0.3936 1.0842
C16 C 0.4426(12) -0.296(4) 0.9595(19)
H13 H 0.4173 -0.2019 0.9803
H14 H 0.4187 -0.3429 0.8968
N3 N 0.5000 -0.568(3) 1.0000
N1A N 0.5070(8) -0.187(3) 1.0575(13)
C15A C 0.5508(7) -0.439(2) 0.9822(11)
H11A H 0.5885 -0.5115 0.9944
H12A H 0.5394 -0.3936 0.9158
C16A C 0.5574(12) -0.296(4) 1.0405(19)
H13A H 0.5827 -0.2019 1.0197
H14A H 0.5813 -0.3429 1.1032
Cd2A Cd 0.586998(15) 0.15570(7) 0.30661(2)
C1A C 0.3199(3) -0.0049(9) 0.3408(4)
H1A H 0.2910 -0.0361 0.3724
O1A O 0.4366(2) 0.1138(10) 0.1025(3)
C2A C 0.3884(3) 0.1185(12) 0.4986(4)
C3A C 0.1893(3) -0.3997(9) 0.1012(4)
H2A H 0.1700 -0.3320 0.0403
O2A O 0.4303(2) 0.2330(8) 0.5418(3)
C4A C 0.4175(2) 0.1401(13) 0.3433(4)
H3A H 0.4532 0.2038 0.3764
O3A O 0.09156(17) -0.3672(10) 0.1298(3)
O4A O 0.6233(2) 0.4767(8) 0.2992(3)
O5A O 0.1698(2) -0.4294(7) 0.2557(3)
C5A C 0.3083(3) -0.0435(9) 0.2434(4)
N2A N 0.2481(2) -0.3074(8) 0.1513(3)
C6A C 0.3506(3) 0.0074(10) 0.1950(4)
H4A H 0.3429 -0.0205 0.1295
C7A C 0.2761(3) -0.5761(10) 0.0782(4)
H5A H 0.2983 -0.6977 0.0884
H6A H 0.2776 -0.5200 0.0173
C8A C 0.2480(3) -0.1291(10) 0.1903(4)
C9A C 0.3009(3) -0.4378(10) 0.1611(4)
H7A H 0.3119 -0.5048 0.2229
H8A H 0.3360 -0.3675 0.1538
O6A O 0.5490(2) -0.1613(9) 0.2687(5)
C10A C 0.4482(2) 0.1613(15) 0.1885(4)
O7A O 0.3567(3) 0.0282(9) 0.5436(3)
O8A O 0.1999(2) -0.0394(7) 0.1822(3)
C11A C 0.3753(3) 0.0817(10) 0.3929(4)
O9A O 0.49362(19) 0.2687(7) 0.2321(3)
C12A C 0.2091(3) -0.6055(10) 0.0806(5)
H9A H 0.1838 -0.6539 0.0190
H10A H 0.2071 -0.6953 0.1314
C13A C 0.1472(3) -0.3997(9) 0.1662(4)
C14A C 0.4054(2) 0.1017(9) 0.2453(4)
Cd1_2 Cd 0.5000 -0.8719(2) 1.0000
Cd1_3 Cd 0.5000 0.1281(2) 0.0000
Cd1B Cd -0.0000 -0.3719(2) 0.0000
Cd1B_2 Cd 1.0000 -0.3719(2) 1.0000
Cd2B Cd 0.913002(15) -0.34430(7) 0.69339(2)
Cd2C Cd 0.086998(15) -0.34430(7) 0.30661(2)
O1A_2 O 0.4366(2) 0.1138(10) 1.1025(3)
O3B O 0.40844(17) 0.1328(10) 0.8702(3)
O3C O 0.59156(17) 0.1328(10) 0.1298(3)
O3C_2 O 0.59156(17) 0.1328(10) 1.1298(3)
O5B O 0.3302(2) 0.0706(7) 0.7443(3)
O5C O 0.6698(2) 0.0706(7) 0.2557(3)
N3_2 N 0.5000 0.432(3) 1.0000
loop_
_geom_bond_atom_site_label_1
_geom_bond_atom_site_label_2
_geom_bond_site_symmetry_1
_geom_bond_site_symmetry_2
Cd1 O1 1_555 1_555
Cd2 O4 1_555 1_555
C1 H1 1_555 1_555
O1 C10 1_555 1_555
C2 O2 1_555 1_555
C3 H2 1_555 1_555
O2 Cd2A 1_555 1_555
C4 H3 1_555 1_555
O3 C13 1_555 1_555
N1 Cd1 1_555 1_555
O5 C13 1_555 1_555
C5 C1 1_555 1_555
N2 C3 1_555 1_555
C6 C5 1_555 1_555
H4 C6 1_555 1_555
C7 H5 1_555 1_555
H6 C7 1_555 1_555
C8 C5 1_555 1_555
C9 N2 1_555 1_555
H7 C9 1_555 1_555
H8 C9 1_555 1_555
O6 Cd2 1_555 1_555
C10 O9 1_555 1_555
O7 C2 1_555 1_555
O8 C8 1_555 1_555
C11 C1 1_555 1_555
O9 Cd2 1_555 1_555
C12 C3 1_555 1_555
H9 C12 1_555 1_555
H10 C12 1_555 1_555
C13 C3 1_555 1_555
C14 C4 1_555 1_555
C15 H11 1_555 1_555
H12 C15 1_555 1_555
C16 N1 1_555 1_555
H13 C16 1_555 1_555
H14 C16 1_555 1_555
N3 C15 1_555 1_555
N1A Cd1 1_555 1_555
C15A N3 1_555 1_555
H11A C15A 1_555 1_555
H12A C15A 1_555 1_555
C16A N1A 1_555 1_555
H13A C16A 1_555 1_555
H14A C16A 1_555 1_555
Cd2A O7 1_555 1_555
C1A H1A 1_555 1_555
O1A C10A 1_555 1_555
C2A O2A 1_555 1_555
C3A H2A 1_555 1_555
O2A Cd2 1_555 1_555
C4A H3A 1_555 1_555
O3A C13A 1_555 1_555
O4A Cd2A 1_555 1_555
O5A C13A 1_555 1_555
C5A C1A 1_555 1_555
N2A C3A 1_555 1_555
C6A C5A 1_555 1_555
H4A C6A 1_555 1_555
C7A H5A 1_555 1_555
H6A C7A 1_555 1_555
C8A C5A 1_555 1_555
C9A N2A 1_555 1_555
H7A C9A 1_555 1_555
H8A C9A 1_555 1_555
O6A Cd2A 1_555 1_555
C10A O9A 1_555 1_555
O7A Cd2 1_555 1_555
O8A C8A 1_555 1_555
C11A C1A 1_555 1_555
O9A Cd2A 1_555 1_555
C12A C3A 1_555 1_555
H9A C12A 1_555 1_555
H10A C12A 1_555 1_555
C13A C3A 1_555 1_555
C14A C4A 1_555 1_555
Cd1_2 N3 1_555 1_555
Cd1_3 O1A 1_555 1_555
Cd1B O3A 1_555 1_555
Cd1B_2 O3 1_555 1_555
Cd2B O3 1_555 1_555
Cd2C O3A 1_555 1_555
O1A_2 Cd1 1_555 1_555
O3B Cd1 1_555 1_555
O3C Cd2A 1_555 1_555
O3C_2 Cd1 1_555 1_555
O5B Cd2 1_555 1_555
O5C Cd2A 1_555 1_555
N3_2 Cd1 1_555 1_555
Cd2 O3B 1_555 1_555
C2 C11 1_555 1_555
C4 C11 1_555 1_555
N1 N1A 1_555 1_555
O5 Cd2B 1_555 1_555
N2 C8 1_555 1_555
C6 C14 1_555 1_555
C7 C9 1_555 1_555
C7 C12 1_555 1_555
C10 C14 1_555 1_555
C15 C16 1_555 1_555
C15A C16A 1_555 1_555
C2A O7A 1_555 1_555
C2A C11A 1_555 1_555
C4A C11A 1_555 1_555
O5A Cd2C 1_555 1_555
N2A C8A 1_555 1_555
C6A C14A 1_555 1_555
C7A C9A 1_555 1_555
C7A C12A 1_555 1_555
C10A C14A 1_555 1_555
Cd1_3 O3C 1_555 1_555

#END
