
#######################################################################
#
#                 Cambridge Crystallographic Data Centre
#                                CCDC 
#
#######################################################################
#
# If this CIF has been generated from an entry in the Cambridge 
# Structural Database, then it will include bibliographic, chemical, 
# crystal, experimental, refinement or atomic coordinate data resulting 
# from the CCDC's data processing and validation procedures.
#
#######################################################################

data_HUXHEP
_chemical_formula_moiety         'C32 H20 Cd10 N7 O26'
_symmetry_cell_setting           monoclinic
_symmetry_space_group_name_H-M   'C 2'
_symmetry_Int_Tables_number      5
_space_group_name_Hall           'C 2y'
loop_
_symmetry_equiv_pos_site_id
_symmetry_equiv_pos_as_xyz
1 x,y,z
2 -x,y,-z
3 1/2+x,1/2+y,z
4 1/2-x,1/2+y,-z
_cell_length_a                   22.8156(11)
_cell_length_b                   6.9955(4)
_cell_length_c                   14.4043(7)
_cell_angle_alpha                90
_cell_angle_beta                 106.694(5)
_cell_angle_gamma                90
_cell_volume                     2202.12
loop_
_atom_site_label
_atom_site_type_symbol
_atom_site_fract_x
_atom_site_fract_y
_atom_site_fract_z
Cd1 Cd 0.5000 0.51178(17) 1.0000
Cd2 Cd 0.911460(19) -0.02058(9) 1.69182(3)
O1 O 0.5916(2) 0.5092(12) 1.1291(4)
O2 O 0.9376(2) 0.0265(12) 1.1038(4)
O3 O 0.9288(3) -0.0948(10) 1.5410(4)
C1 C 0.9486(2) -0.0248(17) 1.1892(4)
N1 N 0.7487(2) 0.4395(11) 1.1502(4)
O4 O 0.6995(2) 0.1748(9) 1.1801(4)
C2 C 0.9156(3) -0.0053(14) 1.3431(5)
H1 H 0.9519 -0.0650 1.3769
O5 O 0.9944(2) -0.1278(9) 1.2326(4)
O6 O 0.6705(2) 0.5599(10) 1.2560(4)
O7 O 0.8760(3) -0.3403(12) 1.6988(5)
C3 C 0.8075(3) 0.1764(12) 1.2419(5)
C4 C 0.8851(4) 0.0111(14) 1.4966(5)
C5 C 0.6479(3) 0.5382(13) 1.1669(5)
C6 C 0.6904(3) 0.5327(11) 1.1028(5)
H2 H 0.6703 0.4701 1.0410
C7 C 0.9045(3) 0.0353(13) 1.2448(5)
O8 O 0.8523(3) 0.0876(14) 1.5401(4)
C8 C 0.8511(3) 0.1282(12) 1.1949(5)
H3 H 0.8443 0.1585 1.1298
C9 C 0.8732(3) 0.0426(14) 1.3905(5)
C10 C 0.7469(3) 0.2621(11) 1.1891(5)
C11 C 0.8184(3) 0.1327(13) 1.3387(5)
H4 H 0.7892 0.1631 1.3701
C12 C 0.7120(4) 0.7341(14) 1.0854(6)
H5 H 0.6861 0.7867 1.0252
H6 H 0.7109 0.8190 1.1381
C13 C 0.8011(3) 0.5647(14) 1.1621(6)
H7 H 0.8361 0.4958 1.1536
H8 H 0.8124 0.6261 1.2251
O9 O 0.9481(4) 0.2914(13) 1.7199(9)
C14 C 0.7765(4) 0.7096(13) 1.0804(6)
H9 H 0.7991 0.8289 1.0930
H10 H 0.7775 0.6592 1.0182
N2 N 0.5000 0.810(5) 1.0000
C15 C 0.5537(8) 1.098(3) 0.9935(13)
C16 C 0.5598(12) 0.943(5) 1.048(2)
N3 N 0.5061(11) 1.203(4) 1.0382(15)
C15A C 0.4463(8) 1.098(3) 1.0065(13)
C16A C 0.4402(12) 0.943(5) 0.952(2)
N3A N 0.4939(11) 1.203(4) 0.9618(15)
Cd2A Cd 0.088540(19) -0.02058(9) 0.30818(3)
O1A O 0.4084(2) 0.5092(12) 0.8709(4)
O2A O 0.0624(2) 0.0265(12) 0.8962(4)
O3A O 0.0712(3) -0.0948(10) 0.4590(4)
C1A C 0.0514(2) -0.0248(17) 0.8108(4)
N1A N 0.2513(2) 0.4395(11) 0.8498(4)
O4A O 0.3005(2) 0.1748(9) 0.8199(4)
C2A C 0.0844(3) -0.0053(14) 0.6569(5)
H1A H 0.0481 -0.0650 0.6231
O5A O 0.0056(2) -0.1278(9) 0.7674(4)
O6A O 0.3295(2) 0.5599(10) 0.7440(4)
O7A O 0.1240(3) -0.3403(12) 0.3012(5)
C3A C 0.1925(3) 0.1764(12) 0.7581(5)
C4A C 0.1149(4) 0.0111(14) 0.5034(5)
C5A C 0.3521(3) 0.5382(13) 0.8331(5)
C6A C 0.3096(3) 0.5327(11) 0.8972(5)
H2A H 0.3297 0.4701 0.9590
C7A C 0.0955(3) 0.0353(13) 0.7552(5)
O8A O 0.1477(3) 0.0876(14) 0.4599(4)
C8A C 0.1489(3) 0.1282(12) 0.8051(5)
H3A H 0.1557 0.1585 0.8702
C9A C 0.1268(3) 0.0426(14) 0.6095(5)
C10A C 0.2531(3) 0.2621(11) 0.8109(5)
C11A C 0.1816(3) 0.1327(13) 0.6613(5)
H4A H 0.2108 0.1631 0.6299
C12A C 0.2880(4) 0.7341(14) 0.9146(6)
H5A H 0.3139 0.7867 0.9748
H6A H 0.2891 0.8190 0.8619
C13A C 0.1989(3) 0.5647(14) 0.8379(6)
H7A H 0.1639 0.4958 0.8464
H8A H 0.1876 0.6261 0.7749
O9A O 0.0519(4) 0.2914(13) 0.2801(9)
C14A C 0.2235(4) 0.7096(13) 0.9196(6)
H9A H 0.2009 0.8289 0.9070
H10A H 0.2225 0.6592 0.9818
Cd1_2 Cd 0.5000 1.51178(17) 1.0000
Cd1B Cd -0.0000 0.01178(17) 1.0000
Cd1B_2 Cd 1.0000 0.01178(17) 1.0000
Cd2_2 Cd -0.088540(19) -0.02058(9) 0.69182(3)
Cd2A_2 Cd 1.088540(19) -0.02058(9) 1.30818(3)
Cd2B Cd 0.411460(19) 0.47942(9) 0.69182(3)
Cd2C Cd 0.588540(19) 0.47942(9) 1.30818(3)
O1B O 0.0916(2) 0.0092(12) 0.1291(4)
O1C O 0.9084(2) 0.0092(12) 1.8709(4)
O2B O 0.4376(2) 0.5265(12) 1.1038(4)
O2C O 0.5624(2) 0.5265(12) 0.8962(4)
O5_2 O -0.0056(2) -0.1278(9) 0.2326(4)
O5A_2 O 1.0056(2) -0.1278(9) 1.7674(4)
O6B O 0.1705(2) 0.0599(10) 0.2560(4)
O6C O 0.8295(2) 0.0599(10) 1.7440(4)
N3_2 N 0.5061(11) 0.203(4) 1.0382(15)
N3A_2 N 0.4939(11) 0.203(4) 0.9618(15)
loop_
_geom_bond_atom_site_label_1
_geom_bond_atom_site_label_2
_geom_bond_site_symmetry_1
_geom_bond_site_symmetry_2
Cd1 O1 1_555 1_555
Cd2 O3 1_555 1_555
O1 C5 1_555 1_555
O2 C1 1_555 1_555
O3 C4 1_555 1_555
C1 O5 1_555 1_555
N1 C6 1_555 1_555
O4 C10 1_555 1_555
C2 H1 1_555 1_555
O5 Cd2A_2 1_555 1_555
O6 C5 1_555 1_555
O7 Cd2 1_555 1_555
C3 C8 1_555 1_555
C4 O8 1_555 1_555
C5 C6 1_555 1_555
C6 H2 1_555 1_555
C7 C1 1_555 1_555
O8 Cd2 1_555 1_555
C8 C7 1_555 1_555
H3 C8 1_555 1_555
C9 C2 1_555 1_555
C10 N1 1_555 1_555
C11 C3 1_555 1_555
H4 C11 1_555 1_555
C12 C6 1_555 1_555
H5 C12 1_555 1_555
H6 C12 1_555 1_555
C13 N1 1_555 1_555
H7 C13 1_555 1_555
H8 C13 1_555 1_555
O9 Cd2 1_555 1_555
C14 C12 1_555 1_555
H9 C14 1_555 1_555
H10 C14 1_555 1_555
N2 Cd1 1_555 1_555
C15 C16 1_555 1_555
C16 N2 1_555 1_555
N3 C15 1_555 1_555
C15A N3 1_555 1_555
C16A N2 1_555 1_555
N3A C15 1_555 1_555
Cd2A O3A 1_555 1_555
O1A Cd1 1_555 1_555
O2A C1A 1_555 1_555
O3A C4A 1_555 1_555
C1A O5A 1_555 1_555
N1A C6A 1_555 1_555
O4A C10A 1_555 1_555
C2A H1A 1_555 1_555
O5A Cd2_2 1_555 1_555
O6A C5A 1_555 1_555
O7A Cd2A 1_555 1_555
C3A C8A 1_555 1_555
C4A O8A 1_555 1_555
C5A O1A 1_555 1_555
C6A C5A 1_555 1_555
H2A C6A 1_555 1_555
C7A C1A 1_555 1_555
O8A Cd2A 1_555 1_555
C8A C7A 1_555 1_555
H3A C8A 1_555 1_555
C9A C2A 1_555 1_555
C10A N1A 1_555 1_555
C11A C3A 1_555 1_555
H4A C11A 1_555 1_555
C12A C6A 1_555 1_555
H5A C12A 1_555 1_555
H6A C12A 1_555 1_555
C13A N1A 1_555 1_555
H7A C13A 1_555 1_555
H8A C13A 1_555 1_555
O9A Cd2A 1_555 1_555
C14A C12A 1_555 1_555
H9A C14A 1_555 1_555
H10A C14A 1_555 1_555
Cd1_2 N3 1_555 1_555
Cd1B O2A 1_555 1_555
Cd1B_2 O2 1_555 1_555
Cd2B O1A 1_555 1_555
Cd2C O1 1_555 1_555
O1B Cd2A 1_555 1_555
O1C Cd2 1_555 1_555
O2B Cd1 1_555 1_555
O2C Cd1 1_555 1_555
O5_2 Cd2A 1_555 1_555
O5A_2 Cd2 1_555 1_555
O6B Cd2A 1_555 1_555
O6C Cd2 1_555 1_555
N3_2 Cd1 1_555 1_555
N3A_2 Cd1 1_555 1_555
C2 C7 1_555 1_555
O6 Cd2C 1_555 1_555
C3 C10 1_555 1_555
C4 C9 1_555 1_555
C9 C11 1_555 1_555
C13 C14 1_555 1_555
N3 N3A 1_555 1_555
C15A C16A 1_555 1_555
C15A N3A 1_555 1_555
N3A Cd1_2 1_555 1_555
C2A C7A 1_555 1_555
O6A Cd2B 1_555 1_555
C3A C10A 1_555 1_555
C4A C9A 1_555 1_555
C9A C11A 1_555 1_555
C13A C14A 1_555 1_555
N3_2 N3A_2 1_555 1_555

#END
