
#######################################################################
#
#                 Cambridge Crystallographic Data Centre
#                                CCDC 
#
#######################################################################
#
# If this CIF has been generated from an entry in the Cambridge 
# Structural Database, then it will include bibliographic, chemical, 
# crystal, experimental, refinement or atomic coordinate data resulting 
# from the CCDC's data processing and validation procedures.
#
#######################################################################

data_HUXHUF
_chemical_formula_moiety         'C67 H48 Cd11 N11 O19'
_symmetry_cell_setting           orthorhombic
_symmetry_space_group_name_H-M   'P 21 21 2'
_symmetry_Int_Tables_number      18
_space_group_name_Hall           'P 2 2ab'
loop_
_symmetry_equiv_pos_site_id
_symmetry_equiv_pos_as_xyz
1 x,y,z
2 -x,-y,z
3 1/2-x,1/2+y,-z
4 1/2+x,1/2-y,-z
_cell_length_a                   15.9125(3)
_cell_length_b                   20.9486(4)
_cell_length_c                   13.9023(2)
_cell_angle_alpha                90
_cell_angle_beta                 90
_cell_angle_gamma                90
_cell_volume                     4634.26
loop_
_atom_site_label
_atom_site_type_symbol
_atom_site_fract_x
_atom_site_fract_y
_atom_site_fract_z
Cd1 Cd 0.748616(18) 0.409316(13) 0.40039(2)
Cd2 Cd 1.0000 0.5000 0.41958(3)
N1 N 1.0000 0.5000 1.2534(3)
N2 N 0.7612(3) 0.4125(2) -0.4316(3)
O1 O 0.7211(2) 0.51812(15) 0.3797(3)
O2 O 0.85460(17) 0.50178(15) 0.4097(2)
N3 N 0.7361(3) 0.4003(2) 0.2339(3)
O3 O 0.5027(2) 0.88896(13) 0.5660(2)
C1 C 0.7720(8) 0.3634(4) -0.3811(5)
H1 H 0.7833 0.3252 -0.4125
O4 O 0.3928(2) 0.60862(17) 0.4167(3)
C2 C 0.5609(2) 0.8504(2) 0.5794(3)
C3 C 0.7949(3) 0.5382(2) 0.3910(4)
O5 O 0.62622(19) 0.86011(15) 0.6277(2)
C4 C 0.6256(3) 0.7458(2) 0.5314(4)
H2 H 0.6765 0.7607 0.5555
C5 C 0.7612(7) 0.4658(3) -0.3849(4)
H3 H 0.7592 0.5031 -0.4211
N4 N 0.7366(3) 0.6469(2) 0.3947(4)
C6 C 0.7018(3) 0.6491(2) 0.4813(5)
C7 C 0.7638(7) 0.4725(4) -0.2868(4)
H4 H 0.7621 0.5127 -0.2584
C8 C 0.8114(3) 0.6080(2) 0.3755(5)
H5 H 0.8563 0.6214 0.4194
C9 C 0.6213(3) 0.6873(2) 0.4916(4)
O6 O 0.7313(3) 0.6207(2) 0.5496(4)
C10 C 0.7582(5) 0.3444(4) 0.0872(4)
H6 H 0.7825 0.3097 0.0560
N5 N 1.0000 0.5000 0.5830(4)
C11 C 0.7647(5) 0.3506(3) 0.1853(4)
H7 H 0.7907 0.3179 0.2195
C12 C 0.7679(14) 0.3627(5) -0.2807(5)
H8 H 0.7646 0.3241 -0.2478
O7 O 0.3263(2) 0.69991(19) 0.4297(3)
C13 C 0.4771(3) 0.7601(2) 0.5016(4)
H9 H 0.4291 0.7854 0.5024
C14 C 0.4731(3) 0.6978(2) 0.4656(4)
C15 C 0.5537(3) 0.7845(2) 0.5366(4)
C16 C 0.5482(3) 0.6636(2) 0.4575(5)
H10 H 0.5477 0.6237 0.4281
C17 C 0.3917(3) 0.6679(3) 0.4351(4)
C18 C 0.7689(5) 0.4184(4) -0.2318(4)
C19 C 0.7148(5) 0.3907(5) 0.0349(4)
C20 C 0.8373(5) 0.6236(3) 0.2752(7)
H11 H 0.8298 0.5864 0.2345
H12 H 0.8963 0.6352 0.2742
C21 C 0.6877(7) 0.4404(5) 0.0811(6)
H13 H 0.6610 0.4729 0.0473
C22 C 0.7762(8) 0.4183(5) -0.1231(5)
H14 H 0.8265 0.3949 -0.1053
H15 H 0.7834 0.4620 -0.1015
C23 C 0.6980(5) 0.4463(4) 0.1820(5)
H16 H 0.6780 0.4827 0.2130
C24 C 0.7064(6) 0.3912(5) -0.0731(5)
H17 H 0.6988 0.3476 -0.0951
H18 H 0.6562 0.4149 -0.0901
C25 C 0.7063(4) 0.6780(4) 0.3015(7)
H19 H 0.6859 0.7209 0.3133
H20 H 0.6616 0.6530 0.2724
C26 C 0.7843(8) 0.6790(7) 0.2369(11)
H21 H 0.7693 0.6724 0.1701
H22 H 0.8141 0.7192 0.2428
C27 C 1.0506(4) 0.5388(3) 1.2052(5)
H23 H 1.0846 0.5673 1.2387
C28 C 1.0000 0.5000 0.791(3)
C29 C 0.9655(5) 0.5479(4) 0.6360(7)
H24 H 0.9408 0.5819 0.6035
C30 C 1.0534(6) 0.5376(5) 1.1100(8)
C31 C 0.9650(7) 0.5489(6) 0.7374(9)
C32 C 0.9797(11) 0.5204(8) 1.0598(13)
C33 C 0.9833(14) 0.5229(9) 0.9140(14)
C34 C 0.9897(10) 0.5149(6) 0.7809(9)
C29A C 1.0345(5) 0.4521(4) 0.6360(7)
H24A H 1.0592 0.4181 0.6035
C31A C 1.0350(7) 0.4511(6) 0.7374(9)
C33A C 1.0167(14) 0.4771(9) 0.9140(14)
C34A C 1.0103(10) 0.4851(6) 0.7809(9)
C27A C 0.9494(4) 0.4612(3) 1.2052(5)
H23A H 0.9154 0.4327 1.2387
C30A C 0.9466(6) 0.4624(5) 1.1100(8)
C32A C 1.0203(11) 0.4796(8) 1.0598(13)
Cd1A Cd 0.251384(18) 0.590684(13) 0.40039(2)
N2A N 0.2388(3) 0.5875(2) -0.4316(3)
O1A O 0.2789(2) 0.48188(15) 0.3797(3)
O2A O 0.14540(17) 0.49822(15) 0.4097(2)
N3A N 0.2639(3) 0.5997(2) 0.2339(3)
O3A O 0.4973(2) 0.11104(13) 0.5660(2)
C1A C 0.2280(8) 0.6366(4) -0.3811(5)
H1A H 0.2167 0.6748 -0.4125
O4A O 0.6072(2) 0.39138(17) 0.4167(3)
C2A C 0.4391(2) 0.1496(2) 0.5794(3)
C3A C 0.2051(3) 0.4618(2) 0.3910(4)
O5A O 0.37378(19) 0.13989(15) 0.6277(2)
C4A C 0.3744(3) 0.2542(2) 0.5314(4)
H2A H 0.3235 0.2393 0.5555
C5A C 0.2388(7) 0.5342(3) -0.3849(4)
H3A H 0.2408 0.4969 -0.4211
N4A N 0.2634(3) 0.3531(2) 0.3947(4)
C6A C 0.2982(3) 0.3509(2) 0.4813(5)
C7A C 0.2362(7) 0.5275(4) -0.2868(4)
H4A H 0.2379 0.4873 -0.2584
C8A C 0.1886(3) 0.3920(2) 0.3755(5)
H5A H 0.1437 0.3786 0.4194
C9A C 0.3787(3) 0.3127(2) 0.4916(4)
O6A O 0.2687(3) 0.3793(2) 0.5496(4)
C10A C 0.2418(5) 0.6556(4) 0.0872(4)
H6A H 0.2175 0.6903 0.0560
C11A C 0.2353(5) 0.6494(3) 0.1853(4)
H7A H 0.2093 0.6821 0.2195
C12A C 0.2321(14) 0.6373(5) -0.2807(5)
H8A H 0.2354 0.6759 -0.2478
O7A O 0.6737(2) 0.30009(19) 0.4297(3)
C13A C 0.5229(3) 0.2399(2) 0.5016(4)
H9A H 0.5709 0.2146 0.5024
C14A C 0.5269(3) 0.3022(2) 0.4656(4)
C15A C 0.4463(3) 0.2155(2) 0.5366(4)
C16A C 0.4518(3) 0.3364(2) 0.4575(5)
H10A H 0.4523 0.3763 0.4281
C17A C 0.6083(3) 0.3321(3) 0.4351(4)
C18A C 0.2311(5) 0.5816(4) -0.2318(4)
C19A C 0.2852(5) 0.6093(5) 0.0349(4)
C20A C 0.1627(5) 0.3764(3) 0.2752(7)
H11A H 0.1702 0.4136 0.2345
H12A H 0.1037 0.3648 0.2742
C21A C 0.3123(7) 0.5596(5) 0.0811(6)
H13A H 0.3390 0.5271 0.0473
C22A C 0.2238(8) 0.5817(5) -0.1231(5)
H14A H 0.1735 0.6051 -0.1053
H15A H 0.2166 0.5380 -0.1015
C23A C 0.3020(5) 0.5537(4) 0.1820(5)
H16A H 0.3220 0.5173 0.2130
C24A C 0.2936(6) 0.6088(5) -0.0731(5)
H17A H 0.3012 0.6524 -0.0951
H18A H 0.3438 0.5851 -0.0901
C25A C 0.2937(4) 0.3220(4) 0.3015(7)
H19A H 0.3141 0.2791 0.3133
H20A H 0.3384 0.3470 0.2724
C26A C 0.2157(8) 0.3210(7) 0.2369(11)
H21A H 0.2307 0.3276 0.1701
H22A H 0.1859 0.2808 0.2428
Cd1_2 Cd 0.748616(18) 0.409316(13) -0.59961(2)
Cd1A_2 Cd 0.251384(18) 0.590684(13) -0.59961(2)
Cd1B Cd 0.751384(18) 0.909316(13) 0.59961(2)
Cd1C Cd 0.248616(18) 0.090684(13) 0.59961(2)
Cd2_2 Cd 0.0000 0.5000 0.41958(3)
Cd2_3 Cd 1.0000 0.5000 1.41958(3)
Cd2B Cd 0.5000 -0.0000 0.58042(3)
Cd2B_2 Cd 0.5000 1.0000 0.58042(3)
N1_2 N 1.0000 0.5000 0.2534(3)
N2_2 N 0.7612(3) 0.4125(2) 0.5684(3)
N2A_2 N 0.2388(3) 0.5875(2) 0.5684(3)
O2A_2 O 1.14540(17) 0.49822(15) 0.4097(2)
O3B O 0.9973(2) 0.38896(13) 0.4340(2)
O3C O 1.0027(2) 0.61104(13) 0.4340(2)
O5B O 0.87378(19) 0.36011(15) 0.3723(2)
O5C O 0.12622(19) 0.63989(15) 0.3723(2)
loop_
_geom_bond_atom_site_label_1
_geom_bond_atom_site_label_2
_geom_bond_site_symmetry_1
_geom_bond_site_symmetry_2
Cd1 O1 1_555 1_555
Cd2 O2 1_555 1_555
N1 C27 1_555 1_555
N2 C1 1_555 1_555
O1 C3 1_555 1_555
O2 Cd1 1_555 1_555
N3 Cd1 1_555 1_555
O3 C2 1_555 1_555
C1 H1 1_555 1_555
O4 C17 1_555 1_555
C2 O5 1_555 1_555
C3 O2 1_555 1_555
O5 Cd1B 1_555 1_555
C4 H2 1_555 1_555
C5 N2 1_555 1_555
H3 C5 1_555 1_555
N4 C6 1_555 1_555
C6 C9 1_555 1_555
C7 C5 1_555 1_555
H4 C7 1_555 1_555
C8 C3 1_555 1_555
H5 C8 1_555 1_555
C9 C4 1_555 1_555
O6 C6 1_555 1_555
C10 H6 1_555 1_555
N5 Cd2 1_555 1_555
C11 N3 1_555 1_555
H7 C11 1_555 1_555
C12 C1 1_555 1_555
H8 C12 1_555 1_555
O7 C17 1_555 1_555
C13 H9 1_555 1_555
C14 C13 1_555 1_555
C15 C2 1_555 1_555
C16 C9 1_555 1_555
H10 C16 1_555 1_555
C17 C14 1_555 1_555
C18 C7 1_555 1_555
C19 C10 1_555 1_555
C20 C8 1_555 1_555
H11 C20 1_555 1_555
H12 C20 1_555 1_555
C21 C19 1_555 1_555
H13 C21 1_555 1_555
C22 C18 1_555 1_555
H14 C22 1_555 1_555
H15 C22 1_555 1_555
C23 N3 1_555 1_555
H16 C23 1_555 1_555
C24 C19 1_555 1_555
H17 C24 1_555 1_555
H18 C24 1_555 1_555
C25 N4 1_555 1_555
H19 C25 1_555 1_555
H20 C25 1_555 1_555
C26 C20 1_555 1_555
H21 C26 1_555 1_555
H22 C26 1_555 1_555
C27 H23 1_555 1_555
C28 C31 1_555 1_555
C29 N5 1_555 1_555
H24 C29 1_555 1_555
C30 C27 1_555 1_555
C31 C29 1_555 1_555
C32 C30 1_555 1_555
C33 C28 1_555 1_555
C34 C31 1_555 1_555
C29A N5 1_555 1_555
H24A C29A 1_555 1_555
C31A C28 1_555 1_555
C33A C28 1_555 1_555
C34A C31 1_555 1_555
C27A N1 1_555 1_555
H23A C27A 1_555 1_555
C30A C32 1_555 1_555
C32A C30 1_555 1_555
Cd1A O4 1_555 1_555
N2A C1A 1_555 1_555
O1A Cd1A 1_555 1_555
O2A Cd1A 1_555 1_555
N3A Cd1A 1_555 1_555
O3A C2A 1_555 1_555
C1A H1A 1_555 1_555
O4A Cd1 1_555 1_555
C2A O5A 1_555 1_555
C3A O1A 1_555 1_555
O5A Cd1C 1_555 1_555
C4A H2A 1_555 1_555
C5A N2A 1_555 1_555
H3A C5A 1_555 1_555
N4A C6A 1_555 1_555
C6A C9A 1_555 1_555
C7A C5A 1_555 1_555
H4A C7A 1_555 1_555
C8A C3A 1_555 1_555
H5A C8A 1_555 1_555
C9A C4A 1_555 1_555
O6A C6A 1_555 1_555
C10A H6A 1_555 1_555
C11A N3A 1_555 1_555
H7A C11A 1_555 1_555
C12A C1A 1_555 1_555
H8A C12A 1_555 1_555
O7A Cd1 1_555 1_555
C13A H9A 1_555 1_555
C14A C13A 1_555 1_555
C15A C2A 1_555 1_555
C16A C9A 1_555 1_555
H10A C16A 1_555 1_555
C17A O4A 1_555 1_555
C18A C7A 1_555 1_555
C19A C10A 1_555 1_555
C20A C8A 1_555 1_555
H11A C20A 1_555 1_555
H12A C20A 1_555 1_555
C21A C19A 1_555 1_555
H13A C21A 1_555 1_555
C22A C18A 1_555 1_555
H14A C22A 1_555 1_555
H15A C22A 1_555 1_555
C23A N3A 1_555 1_555
H16A C23A 1_555 1_555
C24A C19A 1_555 1_555
H17A C24A 1_555 1_555
H18A C24A 1_555 1_555
C25A N4A 1_555 1_555
H19A C25A 1_555 1_555
H20A C25A 1_555 1_555
C26A C20A 1_555 1_555
H21A C26A 1_555 1_555
H22A C26A 1_555 1_555
Cd1_2 N2 1_555 1_555
Cd1A_2 N2A 1_555 1_555
Cd2_2 O2A 1_555 1_555
Cd2_3 N1 1_555 1_555
Cd2B O3A 1_555 1_555
Cd2B_2 O3 1_555 1_555
N1_2 Cd2 1_555 1_555
N2_2 Cd1 1_555 1_555
N2A_2 Cd1A 1_555 1_555
O2A_2 Cd2 1_555 1_555
O3B Cd2 1_555 1_555
O3C Cd2 1_555 1_555
O5B Cd1 1_555 1_555
O5C Cd1A 1_555 1_555
C4 C15 1_555 1_555
N4 C8 1_555 1_555
C10 C11 1_555 1_555
C12 C18 1_555 1_555
O7 Cd1A 1_555 1_555
C13 C15 1_555 1_555
C14 C16 1_555 1_555
C21 C23 1_555 1_555
C22 C24 1_555 1_555
C25 C26 1_555 1_555
C32 C33 1_555 1_555
C32 C32A 1_555 1_555
C33 C34 1_555 1_555
C33 C33A 1_555 1_555
C34 C31A 1_555 1_555
C34 C34A 1_555 1_555
C29A C31A 1_555 1_555
C31A C34A 1_555 1_555
C33A C34A 1_555 1_555
C33A C32A 1_555 1_555
C27A C30A 1_555 1_555
C30A C32A 1_555 1_555
O2A C3A 1_555 1_555
C4A C15A 1_555 1_555
N4A C8A 1_555 1_555
C10A C11A 1_555 1_555
C12A C18A 1_555 1_555
O7A C17A 1_555 1_555
C13A C15A 1_555 1_555
C14A C16A 1_555 1_555
C14A C17A 1_555 1_555
C21A C23A 1_555 1_555
C22A C24A 1_555 1_555
C25A C26A 1_555 1_555

#END
