
#######################################################################
#
#                 Cambridge Crystallographic Data Centre
#                                CCDC 
#
#######################################################################
#
# If this CIF has been generated from an entry in the Cambridge 
# Structural Database, then it will include bibliographic, chemical, 
# crystal, experimental, refinement or atomic coordinate data resulting 
# from the CCDC's data processing and validation procedures.
#
#######################################################################

data_HUXHIT
_chemical_formula_moiety         '(C80 H78 Cd3 N10 O15)n'
_symmetry_cell_setting           monoclinic
_symmetry_space_group_name_H-M   'P 21'
_symmetry_Int_Tables_number      4
_space_group_name_Hall           'P 2yb'
loop_
_symmetry_equiv_pos_site_id
_symmetry_equiv_pos_as_xyz
1 x,y,z
2 -x,1/2+y,-z
_cell_length_a                   13.4617(3)
_cell_length_b                   19.9956(3)
_cell_length_c                   17.2734(3)
_cell_angle_alpha                90
_cell_angle_beta                 110.777(2)
_cell_angle_gamma                90
_cell_volume                     4347.19
loop_
_atom_site_label
_atom_site_type_symbol
_atom_site_fract_x
_atom_site_fract_y
_atom_site_fract_z
Cd1 Cd 0.13605(3) 1.57691(2) -0.23572(3)
Cd2 Cd 0.46804(3) 1.38949(2) 0.23787(2)
Cd3 Cd 0.16379(3) 1.75827(2) 0.26866(2)
C1 C 0.2289(5) 1.9260(3) -0.2146(4)
H1 H 0.2042 1.8831 -0.2008
C2 C 0.9429(5) 1.7049(4) 0.2805(4)
H2 H 0.9904 1.6861 0.3287
N1 N 0.6533(4) 1.2661(3) -0.3124(3)
C3 C 0.7638(5) 1.7190(4) 0.1893(4)
N2 N 0.9816(5) 1.7415(3) 0.2321(3)
C4 C 0.1181(5) 1.6911(3) -0.3305(4)
N3 N 0.6745(4) 2.0796(3) 0.1874(3)
C5 C 0.1194(4) 1.7557(4) -0.3769(3)
C6 C 0.4947(6) 1.3016(4) -0.2922(4)
H3 H 0.4639 1.3285 -0.2630
O1 O 0.1680(4) 1.6316(3) 0.2656(3)
O2 O 0.3928(3) 1.8747(2) -0.1919(3)
C7 C 0.1351(4) 1.7504(3) -0.4522(3)
H4 H 0.1404 1.7088 -0.4744
O3 O 0.1610(4) 1.8589(4) -0.6148(3)
C8 C 0.1008(5) 1.4598(4) 0.1073(4)
N4 N 0.4382(4) 1.4946(3) 0.1754(3)
O4 O 0.3350(4) 1.9457(3) -0.2982(3)
C9 C 0.1087(5) 1.8167(3) -0.3440(4)
H5 H 0.0984 1.8188 -0.2936
C10 C 0.0520(5) 1.3979(4) 0.1270(4)
C11 C 0.1558(5) 1.5837(3) 0.0590(4)
H6 H 0.1729 1.6251 0.0427
O5 O 0.1719(4) 1.7482(4) -0.5983(3)
C12 C 0.1198(5) 1.5143(3) 0.1606(4)
H7 H 0.1142 1.5092 0.2125
C13 C 0.1391(5) 1.5300(3) 0.0056(4)
O6 O 0.1642(4) 1.6935(3) 0.1581(3)
C14 C 0.1427(5) 1.8097(4) -0.4941(4)
N5 N 0.1366(5) 1.4842(3) -0.3159(4)
C15 C 0.4474(5) 1.6189(3) 0.1028(4)
C16 C 0.1475(5) 1.5769(4) 0.1372(4)
N6 N 0.0722(5) 1.3383(3) 0.1032(4)
C17 C 0.4395(5) 1.6148(4) 0.1824(5)
H8 H 0.4375 1.6532 0.2121
O7 O 0.3421(4) 1.3502(2) 0.1058(3)
C18 C 0.1108(5) 1.4240(4) -0.3010(4)
H9 H 0.0929 1.4172 -0.2544
C19 C 0.1121(5) 1.4680(3) 0.0284(4)
H10 H 0.1013 1.4318 -0.0075
C20 C 0.4470(5) 1.5608(4) 0.0615(4)
H11 H 0.4497 1.5620 0.0085
C21 C 0.1432(6) 1.3216(5) -0.4777(4)
H12 H 0.1075 1.3350 -0.5349
H13 H 0.1061 1.2831 -0.4672
C22 C 0.1262(5) 1.9698(3) 0.1575(4)
H14 H 0.1120 2.0115 0.1750
C23 C 0.4621(5) 1.6850(3) 0.0667(5)
H15 H 0.4355 1.7205 0.0924
H16 H 0.4210 1.6853 0.0079
C24 C 0.1668(5) 1.9005(3) 0.0599(4)
H17 H 0.1812 1.8947 0.0115
C25 C 0.1240(5) 1.9133(4) 0.2019(4)
H18 H 0.1100 1.9180 0.2506
C26 C 0.2605(5) 1.3018(5) -0.4644(4)
H19 H 0.2615 1.2734 -0.5097
H20 H 0.3011 1.3418 -0.4646
C27 C 0.1613(5) 1.8453(3) 0.1085(4)
H21 H 0.1723 1.8029 0.0909
C28 C 0.1623(5) 1.6367(4) 0.1918(4)
C29 C 0.1281(6) 1.8710(3) -0.4606(4)
H22 H 0.1285 1.9103 -0.4893
N7 N 0.5030(5) 1.2842(3) 0.3018(4)
C30 C 0.1586(5) 2.0255(3) 0.0362(4)
H23 H 0.1194 2.0177 -0.0221
H24 H 0.1260 2.0632 0.0534
C31 C 0.1650(6) 1.2407(4) 0.0876(5)
H25 H 0.1899 1.2201 0.0469
H26 H 0.2103 1.2268 0.1426
C32 C 0.1501(4) 1.9638(4) 0.0854(4)
C33 C 0.3361(5) 2.0691(4) 0.1337(4)
H27 H 0.3101 2.1131 0.1406
H28 H 0.3255 2.0397 0.1749
C34 C 0.6172(6) 0.9623(4) 0.5441(4)
H29 H 0.6791 0.9784 0.5385
C35 C 0.5800(5) 1.6987(4) 0.0800(4)
H30 H 0.6084 1.6614 0.0586
H31 H 0.5848 1.7384 0.0492
N8 N 0.5276(5) 0.9259(3) 0.6333(4)
C36 C 0.1612(6) 1.3186(3) 0.0793(4)
H32 H 0.1473 1.3313 0.0216
C37 C 0.1383(5) 1.3780(4) -0.4216(4)
C38 C 0.6143(5) 0.9481(3) 0.6230(4)
H33 H 0.6753 0.9546 0.6692
O8 O -0.0114(4) 1.4053(3) 0.1654(3)
C39 C 0.6159(6) 2.1338(4) 0.1738(4)
H34 H 0.6503 2.1747 0.1778
C40 C 0.4350(5) 1.5528(4) 0.2139(4)
H35 H 0.4293 1.5505 0.2660
C41 C 0.1088(6) 1.3680(4) -0.3527(5)
H36 H 0.0884 1.3260 -0.3409
C42 C 0.5938(5) 1.2510(4) 0.3176(4)
H37 H 0.6455 1.2698 0.3000
C43 C 0.6035(6) 1.2998(4) -0.2704(4)
H38 H 0.6446 1.3234 -0.2236
C44 C 0.5634(7) 1.0943(4) 0.4266(5)
H39 H 0.5482 1.0956 0.4774
H40 H 0.6374 1.0821 0.4401
C45 C 0.1663(6) 1.4412(5) -0.4349(4)
H41 H 0.1859 1.4494 -0.4805
C46 C 0.6160(6) 1.1903(4) 0.3586(5)
H42 H 0.6809 1.1694 0.3680
C47 C 0.1665(6) 1.4931(4) -0.3830(5)
H43 H 0.1874 1.5354 -0.3937
C48 C 0.6221(6) 2.0208(4) 0.1775(4)
H44 H 0.6610 1.9815 0.1826
C49 C 0.5424(7) 1.1614(4) 0.3851(5)
C50 C 0.1597(5) 1.8054(4) -0.5752(4)
C51 C 0.2684(5) 1.3464(3) 0.1346(4)
C52 C 0.0110(6) 1.2805(4) 0.1145(5)
H45 H -0.0648 1.2883 0.0888
H46 H 0.0277 1.2708 0.1728
C53 C 0.4324(8) 1.2552(6) 0.3295(6)
H47 H 0.3684 1.2771 0.3210
C54 C 0.5293(7) 0.9522(4) 0.4764(4)
C55 C 0.4425(6) 1.4986(4) 0.0992(4)
H48 H 0.4425 1.4594 0.0703
C56 C 0.4529(5) 2.0734(4) 0.1483(4)
C57 C 0.5155(5) 2.0158(4) 0.1603(4)
H49 H 0.4842 1.9739 0.1564
C58 C 0.4318(5) 1.2635(5) -0.3572(4)
C59 C 0.5070(6) 2.1348(4) 0.1541(5)
H50 H 0.4700 2.1751 0.1448
C60 C 0.6459(5) 1.7087(3) 0.1701(4)
H51 H 0.6366 1.6700 0.2007
H52 H 0.6185 1.7473 0.1902
C61 C 0.1445(5) 1.5408(3) -0.0795(4)
C62 C 0.8381(5) 1.6944(4) 0.2616(4)
H53 H 0.8151 1.6701 0.2980
C63 C 0.8016(5) 1.7551(4) 0.1382(4)
H54 H 0.7554 1.7728 0.0888
C64 C 0.5270(8) 0.9694(4) 0.3903(4)
H55 H 0.4790 0.9391 0.3505
H56 H 0.5975 0.9632 0.3881
C65 C 0.1130(6) 1.8742(3) -0.3852(4)
C66 C 0.9118(5) 1.7646(5) 0.1620(4)
H57 H 0.9372 1.7884 0.1267
N9 N 0.1386(5) 1.9605(3) -0.2794(4)
C67 C 0.3254(5) 1.9143(3) -0.2383(4)
C68 C 0.3124(5) 1.2647(5) -0.3824(4)
H58 H 0.2932 1.2864 -0.3395
H59 H 0.2858 1.2191 -0.3880
C69 C 0.4906(8) 1.0425(5) 0.3659(5)
H60 H 0.4185 1.0479 0.3648
H61 H 0.4903 1.0512 0.3105
C70 C 0.0475(7) 1.2233(4) 0.0710(5)
H62 H 0.0066 1.2226 0.0121
H63 H 0.0410 1.1802 0.0946
C71 C 0.4382(8) 0.9268(5) 0.4874(5)
H64 H 0.3775 0.9172 0.4420
C72 C 0.2725(5) 2.0429(4) 0.0479(4)
H65 H 0.2725 2.0765 0.0074
H66 H 0.3074 2.0034 0.0373
O9 O 0.1286(4) 1.6959(3) -0.2549(3)
O10 O 0.1121(4) 1.6367(2) -0.3656(3)
N10 N 0.1414(4) 1.8506(3) 0.1783(3)
O11 O -0.0467(4) 1.5782(3) -0.2708(3)
H67 H -0.0750 1.5886 -0.3196
O12 O 0.1448(4) 1.4905(2) -0.1238(3)
O13 O 0.1462(4) 1.6000(3) -0.1019(3)
O14 O 0.2807(4) 1.3630(2) 0.2091(3)
O15 O 0.0129(6) 1.9777(4) -0.4003(5)
C73 C 0.2547(6) 1.9727(5) -0.1407(5)
H68 H 0.2184 1.9585 -0.1040
H69 H 0.3305 1.9735 -0.1099
C74 C 0.1210(7) 2.0272(4) -0.2499(6)
H70 H 0.0574 2.0276 -0.2357
H71 H 0.1143 2.0611 -0.2916
C75 C 0.5923(7) 1.2295(6) -0.3762(5)
H72 H 0.6253 1.2053 -0.4063
C76 C 0.0904(8) 1.9412(4) -0.3568(5)
C77 C 0.4407(7) 0.9162(5) 0.5675(5)
H73 H 0.3792 0.9018 0.5752
C78 C 0.4837(7) 1.2255(6) -0.4001(5)
H74 H 0.4449 1.1981 -0.4439
C79 C 0.4497(10) 1.1953(6) 0.3696(8)
H75 H 0.3973 1.1773 0.3867
C80 C 0.2171(9) 2.0386(4) -0.1756(5)
H76 H 0.2001 2.0660 -0.1357
H77 H 0.2714 2.0613 -0.1907
Cd1A Cd 0.86395(3) 2.07691(2) 0.23572(3)
Cd2A Cd 0.53196(3) 0.88949(2) 0.76213(2)
Cd2A_2 Cd 0.53196(3) 1.88949(2) -0.23787(2)
Cd3_2 Cd 0.16379(3) 1.75827(2) -0.73134(2)
Cd3_3 Cd 1.16379(3) 1.75827(2) 0.26866(2)
Cd3A Cd 0.83621(3) 1.25827(2) -0.26866(2)
N1A N 0.3467(4) 1.7661(3) 0.3124(3)
N2_2 N -0.0184(5) 1.7415(3) 0.2321(3)
N3A N 0.3255(4) 1.5796(3) -0.1874(3)
O2A O 0.6072(3) 1.3747(2) 0.1919(3)
O4A O 0.6650(4) 1.4457(3) 0.2982(3)
O5_2 O 0.1719(4) 1.7482(4) 0.4017(3)
N8A N 0.4724(5) 1.4259(3) 0.3667(4)
loop_
_geom_bond_atom_site_label_1
_geom_bond_atom_site_label_2
_geom_bond_site_symmetry_1
_geom_bond_site_symmetry_2
Cd1 N5 1_555 1_555
Cd2 N4 1_555 1_555
Cd3 O1 1_555 1_555
C1 H1 1_555 1_555
C2 H2 1_555 1_555
N1 C43 1_555 1_555
C3 C60 1_555 1_555
N2 C2 1_555 1_555
C4 C5 1_555 1_555
N3 C39 1_555 1_555
C5 C7 1_555 1_555
C6 H3 1_555 1_555
O1 C28 1_555 1_555
O2 C67 1_555 1_555
C7 H4 1_555 1_555
O3 C50 1_555 1_555
C8 C10 1_555 1_555
N4 C40 1_555 1_555
O4 C67 1_555 1_555
C9 C5 1_555 1_555
H5 C9 1_555 1_555
C10 N6 1_555 1_555
C11 H6 1_555 1_555
O5 C50 1_555 1_555
C12 C8 1_555 1_555
H7 C12 1_555 1_555
C13 C11 1_555 1_555
O6 Cd3 1_555 1_555
C14 C7 1_555 1_555
N5 C18 1_555 1_555
C15 C17 1_555 1_555
C16 C11 1_555 1_555
N6 C36 1_555 1_555
C17 H8 1_555 1_555
O7 Cd2 1_555 1_555
C18 H9 1_555 1_555
C19 C8 1_555 1_555
H10 C19 1_555 1_555
C20 C15 1_555 1_555
H11 C20 1_555 1_555
C21 H12 1_555 1_555
H13 C21 1_555 1_555
C22 H14 1_555 1_555
C23 C15 1_555 1_555
H15 C23 1_555 1_555
H16 C23 1_555 1_555
C24 H17 1_555 1_555
C25 C22 1_555 1_555
H18 C25 1_555 1_555
C26 C21 1_555 1_555
H19 C26 1_555 1_555
H20 C26 1_555 1_555
C27 C24 1_555 1_555
H21 C27 1_555 1_555
C28 O6 1_555 1_555
C29 C14 1_555 1_555
H22 C29 1_555 1_555
N7 Cd2 1_555 1_555
C30 H23 1_555 1_555
H24 C30 1_555 1_555
C31 H25 1_555 1_555
H26 C31 1_555 1_555
C32 C22 1_555 1_555
C33 H27 1_555 1_555
H28 C33 1_555 1_555
C34 H29 1_555 1_555
C35 C23 1_555 1_555
H30 C35 1_555 1_555
H31 C35 1_555 1_555
N8 C38 1_555 1_555
C36 C31 1_555 1_555
H32 C36 1_555 1_555
C37 C21 1_555 1_555
C38 C34 1_555 1_555
H33 C38 1_555 1_555
O8 C10 1_555 1_555
C39 H34 1_555 1_555
C40 C17 1_555 1_555
H35 C40 1_555 1_555
C41 C18 1_555 1_555
H36 C41 1_555 1_555
C42 N7 1_555 1_555
H37 C42 1_555 1_555
C43 C6 1_555 1_555
H38 C43 1_555 1_555
C44 H39 1_555 1_555
H40 C44 1_555 1_555
C45 C37 1_555 1_555
H41 C45 1_555 1_555
C46 C42 1_555 1_555
H42 C46 1_555 1_555
C47 N5 1_555 1_555
H43 C47 1_555 1_555
C48 N3 1_555 1_555
H44 C48 1_555 1_555
C49 C44 1_555 1_555
C50 C14 1_555 1_555
C51 O7 1_555 1_555
C52 N6 1_555 1_555
H45 C52 1_555 1_555
H46 C52 1_555 1_555
C53 N7 1_555 1_555
H47 C53 1_555 1_555
C54 C34 1_555 1_555
C55 N4 1_555 1_555
H48 C55 1_555 1_555
C56 C33 1_555 1_555
C57 C48 1_555 1_555
H49 C57 1_555 1_555
C58 C6 1_555 1_555
C59 C39 1_555 1_555
H50 C59 1_555 1_555
C60 C35 1_555 1_555
H51 C60 1_555 1_555
H52 C60 1_555 1_555
C61 C13 1_555 1_555
C62 C2 1_555 1_555
H53 C62 1_555 1_555
C63 C3 1_555 1_555
H54 C63 1_555 1_555
C64 C54 1_555 1_555
H55 C64 1_555 1_555
H56 C64 1_555 1_555
C65 C9 1_555 1_555
C66 N2 1_555 1_555
H57 C66 1_555 1_555
N9 C1 1_555 1_555
C67 C1 1_555 1_555
C68 C26 1_555 1_555
H58 C68 1_555 1_555
H59 C68 1_555 1_555
C69 C44 1_555 1_555
H60 C69 1_555 1_555
H61 C69 1_555 1_555
C70 C31 1_555 1_555
H62 C70 1_555 1_555
H63 C70 1_555 1_555
C71 C54 1_555 1_555
H64 C71 1_555 1_555
C72 C30 1_555 1_555
H65 C72 1_555 1_555
H66 C72 1_555 1_555
O9 Cd1 1_555 1_555
O10 Cd1 1_555 1_555
N10 Cd3 1_555 1_555
O11 Cd1 1_555 1_555
H67 O11 1_555 1_555
O12 Cd1 1_555 1_555
O13 Cd1 1_555 1_555
O14 Cd2 1_555 1_555
O15 C76 1_555 1_555
C73 C1 1_555 1_555
H68 C73 1_555 1_555
H69 C73 1_555 1_555
C74 N9 1_555 1_555
H70 C74 1_555 1_555
H71 C74 1_555 1_555
C75 N1 1_555 1_555
H72 C75 1_555 1_555
C76 C65 1_555 1_555
C77 N8 1_555 1_555
H73 C77 1_555 1_555
C78 C58 1_555 1_555
H74 C78 1_555 1_555
C79 C49 1_555 1_555
H75 C79 1_555 1_555
C80 C73 1_555 1_555
H76 C80 1_555 1_555
H77 C80 1_555 1_555
Cd1A N3 1_555 1_555
Cd2A N8 1_555 1_555
Cd2A_2 O2 1_555 1_555
Cd3_2 O5 1_555 1_555
Cd3_3 N2 1_555 1_555
Cd3A N1 1_555 1_555
N1A Cd3 1_555 1_555
N2_2 Cd3 1_555 1_555
N3A Cd1 1_555 1_555
O2A Cd2 1_555 1_555
O4A Cd2 1_555 1_555
O5_2 Cd3 1_555 1_555
N8A Cd2 1_555 1_555
C3 C62 1_555 1_555
C4 O9 1_555 1_555
C4 O10 1_555 1_555
O4 Cd2A_2 1_555 1_555
C12 C16 1_555 1_555
C13 C19 1_555 1_555
C16 C28 1_555 1_555
C20 C55 1_555 1_555
C24 C32 1_555 1_555
C25 N10 1_555 1_555
C27 N10 1_555 1_555
C29 C65 1_555 1_555
C30 C32 1_555 1_555
C33 C72 1_555 1_555
C36 C51 1_555 1_555
C37 C41 1_555 1_555
C45 C47 1_555 1_555
C46 C49 1_555 1_555
C51 O14 1_555 1_555
C52 C70 1_555 1_555
C53 C79 1_555 1_555
C56 C57 1_555 1_555
C56 C59 1_555 1_555
C58 C68 1_555 1_555
C61 O12 1_555 1_555
C61 O13 1_555 1_555
C63 C66 1_555 1_555
C64 C69 1_555 1_555
N9 C76 1_555 1_555
C71 C77 1_555 1_555
C74 C80 1_555 1_555
C75 C78 1_555 1_555

#END
