
#######################################################################
#
#                 Cambridge Crystallographic Data Centre
#                                CCDC 
#
#######################################################################
#
# If this CIF has been generated from an entry in the Cambridge 
# Structural Database, then it will include bibliographic, chemical, 
# crystal, experimental, refinement or atomic coordinate data resulting 
# from the CCDC's data processing and validation procedures.
#
#######################################################################

data_GOSDUP
_chemical_formula_moiety         '(C44 H26 N2 O8 Zn2)n'
_symmetry_cell_setting           orthorhombic
_symmetry_space_group_name_H-M   'I m m a'
_symmetry_Int_Tables_number      74
_space_group_name_Hall           '-I 2b 2'
loop_
_symmetry_equiv_pos_site_id
_symmetry_equiv_pos_as_xyz
1 x,y,z
2 -x,1/2-y,z
3 x,-y,-z
4 -x,1/2+y,-z
5 1/2+x,1/2+y,1/2+z
6 1/2-x,-y,1/2+z
7 1/2+x,1/2-y,1/2-z
8 1/2-x,y,1/2-z
9 -x,-y,-z
10 x,1/2+y,-z
11 -x,y,z
12 x,1/2-y,z
13 1/2-x,1/2-y,1/2-z
14 1/2+x,y,1/2-z
15 1/2-x,1/2+y,1/2+z
16 1/2+x,-y,1/2+z
_cell_length_a                   30.947(8)
_cell_length_b                   11.625(3)
_cell_length_c                   13.967(4)
_cell_angle_alpha                90
_cell_angle_beta                 90
_cell_angle_gamma                90
_cell_volume                     5024.75
loop_
_atom_site_label
_atom_site_type_symbol
_atom_site_fract_x
_atom_site_fract_y
_atom_site_fract_z
Zn1 Zn 0.5000 0.2500 0.30963(4)
O1 O 0.45507(14) 0.3697(5) 0.2835(2)
N1 N 0.5000 0.2500 0.4539(3)
C1 C 0.43982(10) 0.4012(3) 0.2072(2)
O2 O 0.45362(8) 0.3719(2) 0.12809(17)
C2 C 0.40157(10) 0.4800(3) 0.2121(2)
Zn2 Zn 0.5000 0.2500 0.10230(4)
C3 C 0.3762(2) 0.4740(7) 0.2971(5)
C4 C 0.3891(2) 0.5484(6) 0.1393(5)
N2 N 0.5000 0.2500 -0.0437(3)
C5 C 0.3401(2) 0.5445(7) 0.3072(5)
C6 C 0.3532(2) 0.6206(6) 0.1500(5)
C7 C 0.5000 0.3477(4) -0.0912(3)
C8 C 0.32898(10) 0.6213(3) 0.2270(3)
C9 C 0.5000 0.3525(4) -0.1891(3)
H1 H 0.5000 0.4162 -0.0569
C10 C 0.28902(10) 0.6898(3) 0.2367(3)
C11 C 0.5000 0.2500 -0.2407(4)
H2 H 0.5000 0.4229 -0.2206
C12 C 0.2500 0.6328(4) 0.2500
C13 C 0.5000 0.2500 -0.3459(4)
H3 H 0.2500 0.5528 0.2500
C14 C 0.5000 0.3501(13) -0.3995(11)
C15 C 0.5252(5) 0.3260(13) -0.3957(7)
C16 C 0.5000 0.3444(14) -0.4997(13)
C17 C 0.5254(4) 0.3197(12) -0.4975(7)
O1A O 0.54493(14) 0.1303(5) 0.2835(2)
O1J O 0.54493(14) 0.3697(5) 0.2835(2)
O1K O 0.45507(14) 0.1303(5) 0.2835(2)
O2A O 0.54638(8) 0.1281(2) 0.12809(17)
O2J O 0.54638(8) 0.3719(2) 0.12809(17)
O2K O 0.45362(8) 0.1281(2) 0.12809(17)
C7A C 0.5000 0.1523(4) -0.0912(3)
C9A C 0.5000 0.1475(4) -0.1891(3)
H1A H 0.5000 0.0838 -0.0569
H2A H 0.5000 0.0771 -0.2206
C10K C 0.28902(10) 0.8102(3) 0.2367(3)
C10G C 0.21098(10) 0.6898(3) 0.2633(3)
C8K C 0.32898(10) 0.8787(3) 0.2270(3)
C12K C 0.2500 0.8672(4) 0.2500
C8G C 0.17102(10) 0.6213(3) 0.2730(3)
C10L C 0.21098(10) 0.8102(3) 0.2633(3)
C5K C 0.3401(2) 0.9555(7) 0.3072(5)
C6K C 0.3532(2) 0.8794(6) 0.1500(5)
H3K H 0.2500 0.9472 0.2500
C5G C 0.1599(2) 0.5445(7) 0.1928(5)
C6G C 0.1468(2) 0.6206(6) 0.3500(5)
C8L C 0.17102(10) 0.8787(3) 0.2730(3)
C3K C 0.3762(2) 1.0260(7) 0.2971(5)
C4K C 0.3891(2) 0.9516(6) 0.1393(5)
N1_2 N 0.5000 0.2500 -0.5461(3)
C3G C 0.1238(2) 0.4740(7) 0.2029(5)
C4G C 0.1109(2) 0.5484(6) 0.3607(5)
C5L C 0.1599(2) 0.9555(7) 0.1928(5)
C6L C 0.1468(2) 0.8794(6) 0.3500(5)
C2K C 0.40157(10) 1.0200(3) 0.2121(2)
Zn1_2 Zn 0.5000 0.2500 -0.69037(4)
C2G C 0.09843(10) 0.4800(3) 0.2879(2)
C3L C 0.1238(2) 1.0260(7) 0.2029(5)
C4L C 0.1109(2) 0.9516(6) 0.3607(5)
C1K C 0.43982(10) 1.0988(3) 0.2072(2)
C1G C 0.06018(10) 0.4012(3) 0.2928(2)
C2L C 0.09843(10) 1.0200(3) 0.2879(2)
O2K_2 O 0.45362(8) 1.1281(2) 0.12809(17)
O1K_2 O 0.45507(14) 1.1303(5) 0.2835(2)
O2G O 0.04638(8) 0.3719(2) 0.37191(17)
O1G O 0.04493(14) 0.3697(5) 0.2165(2)
C1L C 0.06018(10) 1.0988(3) 0.2928(2)
Zn2_2 Zn 0.5000 1.2500 0.10230(4)
Zn1_3 Zn 0.5000 1.2500 0.30963(4)
Zn2F Zn -0.0000 0.2500 0.39770(4)
Zn1F Zn 0.0000 0.2500 0.19037(4)
O2L O 0.04638(8) 1.1281(2) 0.37191(17)
O1L O 0.04493(14) 1.1303(5) 0.2165(2)
Zn2F_2 Zn 0.0000 1.2500 0.39770(4)
Zn1F_2 Zn 0.0000 1.2500 0.19037(4)
loop_
_geom_bond_atom_site_label_1
_geom_bond_atom_site_label_2
_geom_bond_site_symmetry_1
_geom_bond_site_symmetry_2
Zn1 O1 1_555 1_555
O1 C1 1_555 1_555
N1 Zn1 1_555 1_555
C1 O2 1_555 1_555
O2 Zn2 1_555 1_555
C2 C1 1_555 1_555
Zn2 N2 1_555 1_555
C3 C2 1_555 1_555
C4 C2 1_555 1_555
N2 C7 1_555 1_555
C5 C3 1_555 1_555
C6 C4 1_555 1_555
C7 C9 1_555 1_555
C8 C5 1_555 1_555
C9 C11 1_555 1_555
H1 C7 1_555 1_555
C10 C8 1_555 1_555
C11 C13 1_555 1_555
H2 C9 1_555 1_555
C12 C10 1_555 1_555
C13 C14 1_555 1_555
H3 C12 1_555 1_555
C14 C16 1_555 1_555
C15 C13 1_555 1_555
C16 N1_2 1_555 1_555
C17 C15 1_555 1_555
O1A Zn1 1_555 1_555
O1J Zn1 1_555 1_555
O1K Zn1 1_555 1_555
O2A Zn2 1_555 1_555
O2J Zn2 1_555 1_555
O2K Zn2 1_555 1_555
C7A N2 1_555 1_555
C9A C11 1_555 1_555
H1A C7A 1_555 1_555
H2A C9A 1_555 1_555
C10K C10 1_555 1_555
C10G C12 1_555 1_555
C8K C10K 1_555 1_555
C12K C10K 1_555 1_555
C8G C10G 1_555 1_555
C10L C10G 1_555 1_555
C5K C8K 1_555 1_555
C6K C8K 1_555 1_555
H3K C12K 1_555 1_555
C5G C8G 1_555 1_555
C6G C8G 1_555 1_555
C8L C10L 1_555 1_555
C3K C5K 1_555 1_555
C4K C6K 1_555 1_555
N1_2 C17 1_555 1_555
C3G C5G 1_555 1_555
C4G C6G 1_555 1_555
C5L C8L 1_555 1_555
C6L C8L 1_555 1_555
C2K C3K 1_555 1_555
Zn1_2 N1_2 1_555 1_555
C2G C3G 1_555 1_555
C3L C5L 1_555 1_555
C4L C6L 1_555 1_555
C1K C2K 1_555 1_555
C1G C2G 1_555 1_555
C2L C3L 1_555 1_555
O2K_2 C1K 1_555 1_555
O1K_2 C1K 1_555 1_555
O2G C1G 1_555 1_555
O1G C1G 1_555 1_555
C1L C2L 1_555 1_555
Zn2_2 O2K_2 1_555 1_555
Zn1_3 O1K_2 1_555 1_555
Zn2F O2G 1_555 1_555
Zn1F O1G 1_555 1_555
O2L C1L 1_555 1_555
O1L C1L 1_555 1_555
Zn2F_2 O2L 1_555 1_555
Zn1F_2 O1L 1_555 1_555
C6 C8 1_555 1_555
C7A C9A 1_555 1_555
C12K C10L 1_555 1_555
C4K C2K 1_555 1_555
C4G C2G 1_555 1_555
C4L C2L 1_555 1_555

#END
