
#######################################################################
#
#                 Cambridge Crystallographic Data Centre
#                                CCDC 
#
#######################################################################
#
# If this CIF has been generated from an entry in the Cambridge 
# Structural Database, then it will include bibliographic, chemical, 
# crystal, experimental, refinement or atomic coordinate data resulting 
# from the CCDC's data processing and validation procedures.
#
#######################################################################

data_GOSDOJ
_chemical_formula_moiety         'C48 H6 Co9 N3 O14'
_symmetry_cell_setting           orthorhombic
_symmetry_space_group_name_H-M   'I m m a'
_symmetry_Int_Tables_number      74
_space_group_name_Hall           '-I 2b 2'
loop_
_symmetry_equiv_pos_site_id
_symmetry_equiv_pos_as_xyz
1 x,y,z
2 -x,1/2-y,z
3 x,-y,-z
4 -x,1/2+y,-z
5 1/2+x,1/2+y,1/2+z
6 1/2-x,-y,1/2+z
7 1/2+x,1/2-y,1/2-z
8 1/2-x,y,1/2-z
9 -x,-y,-z
10 x,1/2+y,-z
11 -x,y,z
12 x,1/2-y,z
13 1/2-x,1/2-y,1/2-z
14 1/2+x,y,1/2-z
15 1/2-x,1/2+y,1/2+z
16 1/2+x,-y,1/2+z
_cell_length_a                   31.02(5)
_cell_length_b                   11.74(2)
_cell_length_c                   13.91(3)
_cell_angle_alpha                90
_cell_angle_beta                 90
_cell_angle_gamma                90
_cell_volume                     5065.67
loop_
_atom_site_label
_atom_site_type_symbol
_atom_site_fract_x
_atom_site_fract_y
_atom_site_fract_z
Co1 Co 0.5000 0.2500 0.30927(8)
Co2 Co 0.5000 0.2500 0.11337(8)
O1 O 0.45491(16) 0.1286(5) 0.2916(3)
O2 O 0.45330(12) 0.1289(4) 0.1326(3)
N1 N 0.5000 0.2500 -0.0348(5)
N2 N 0.5000 0.2500 -0.5416(6)
C1 C 0.32906(15) -0.1221(4) 0.2289(5)
C2 C 0.40172(16) 0.0191(5) 0.2166(4)
C3 C 0.28894(15) -0.1899(4) 0.2378(5)
C4 C 0.2500 -0.1338(6) 0.2500
H1 H 0.2500 -0.0546 0.2500
C5 C 0.43932(15) 0.0980(4) 0.2122(3)
C6 C 0.5000 0.3460(7) -0.0840(6)
H2 H 0.5000 0.4140 -0.0497
C7 C 0.5000 0.3522(7) -0.1827(6)
H3 H 0.5000 0.4220 -0.2144
C8 C 0.5000 0.2500 -0.2337(8)
C9 C 0.5000 0.2500 -0.3417(6)
C10 C 0.4828(6) 0.1638(12) -0.3932(8)
C11 C 0.4830(5) 0.1677(12) -0.4946(8)
C12 C 0.3543(4) -0.1201(12) 0.1498(9)
C13 C 0.3902(4) -0.0497(13) 0.1422(9)
C14 C 0.3412(4) -0.0513(13) 0.3112(10)
C15 C 0.3767(5) 0.0193(14) 0.3042(10)
O1G O 0.04509(16) 0.1286(5) 0.2084(3)
O2G O 0.04670(12) 0.1289(4) 0.3674(3)
C1G C 0.17094(15) -0.1221(4) 0.2711(5)
C2G C 0.09828(16) 0.0191(5) 0.2834(4)
C3G C 0.21106(15) -0.1899(4) 0.2622(5)
C5G C 0.06068(15) 0.0980(4) 0.2878(3)
C12G C 0.1457(4) -0.1201(12) 0.3502(9)
C13G C 0.1098(4) -0.0497(13) 0.3578(9)
C14G C 0.1588(4) -0.0513(13) 0.1888(10)
C15G C 0.1233(5) 0.0193(14) 0.1958(10)
O1K O 0.45491(16) -0.6286(5) 0.2916(3)
O2K O 0.45330(12) -0.6289(4) 0.1326(3)
C1K C 0.32906(15) -0.3779(4) 0.2289(5)
C2K C 0.40172(16) -0.5191(5) 0.2166(4)
C3K C 0.28894(15) -0.3101(4) 0.2378(5)
C4K C 0.2500 -0.3662(6) 0.2500
H1K H 0.2500 -0.4454 0.2500
C5K C 0.43932(15) -0.5980(4) 0.2122(3)
C12K C 0.3543(4) -0.3799(12) 0.1498(9)
C13K C 0.3902(4) -0.4503(13) 0.1422(9)
C14K C 0.3412(4) -0.4487(13) 0.3112(10)
C15K C 0.3767(5) -0.5193(14) 0.3042(10)
O1L O 0.04509(16) -0.6286(5) 0.2084(3)
O2L O 0.04670(12) -0.6289(4) 0.3674(3)
C1L C 0.17094(15) -0.3779(4) 0.2711(5)
C2L C 0.09828(16) -0.5191(5) 0.2834(4)
C3L C 0.21106(15) -0.3101(4) 0.2622(5)
C5L C 0.06068(15) -0.5980(4) 0.2878(3)
C12L C 0.1457(4) -0.3799(12) 0.3502(9)
C13L C 0.1098(4) -0.4503(13) 0.3578(9)
C14L C 0.1588(4) -0.4487(13) 0.1888(10)
C15L C 0.1233(5) -0.5193(14) 0.1958(10)
C6A C 0.5000 0.1540(7) -0.0840(6)
H2A H 0.5000 0.0860 -0.0497
C7A C 0.5000 0.1478(7) -0.1827(6)
H3A H 0.5000 0.0780 -0.2144
C10A C 0.5172(6) 0.3362(12) -0.3932(8)
C11A C 0.5170(5) 0.3323(12) -0.4946(8)
C10J C 0.5172(6) 0.1638(12) -0.3932(8)
C11J C 0.5170(5) 0.1677(12) -0.4946(8)
C10K C 0.4828(6) 0.3362(12) -0.3932(8)
C11K C 0.4830(5) 0.3323(12) -0.4946(8)
Co1_2 Co 0.5000 -0.7500 0.30927(8)
Co1_3 Co 0.5000 0.2500 -0.69073(8)
Co1F Co -0.0000 -0.7500 0.19073(8)
Co1F_2 Co 0.0000 0.2500 0.19073(8)
Co2_2 Co 0.5000 -0.7500 0.11337(8)
Co2F Co -0.0000 -0.7500 0.38663(8)
Co2F_2 Co 0.0000 0.2500 0.38663(8)
O1A O 0.54509(16) 0.3714(5) 0.2916(3)
O1J O 0.54509(16) 0.1286(5) 0.2916(3)
O1K_2 O 0.45491(16) 0.3714(5) 0.2916(3)
O2A O 0.54670(12) 0.3711(4) 0.1326(3)
O2J O 0.54670(12) 0.1289(4) 0.1326(3)
O2K_2 O 0.45330(12) 0.3711(4) 0.1326(3)
N2_2 N 0.5000 0.2500 0.4584(6)
loop_
_geom_bond_atom_site_label_1
_geom_bond_atom_site_label_2
_geom_bond_site_symmetry_1
_geom_bond_site_symmetry_2
Co1 Co2 1_555 1_555
Co2 O2 1_555 1_555
O1 Co1 1_555 1_555
O2 C5 1_555 1_555
N1 Co2 1_555 1_555
N2 C11 1_555 1_555
C1 C3 1_555 1_555
C2 C5 1_555 1_555
C3 C4 1_555 1_555
C4 H1 1_555 1_555
C5 O1 1_555 1_555
C6 N1 1_555 1_555
H2 C6 1_555 1_555
C7 C6 1_555 1_555
H3 C7 1_555 1_555
C8 C7 1_555 1_555
C9 C8 1_555 1_555
C10 C9 1_555 1_555
C11 C10 1_555 1_555
C12 C1 1_555 1_555
C13 C2 1_555 1_555
C14 C1 1_555 1_555
C15 C2 1_555 1_555
O1G C5G 1_555 1_555
O2G C5G 1_555 1_555
C1G C3G 1_555 1_555
C2G C5G 1_555 1_555
C3G C4 1_555 1_555
C12G C1G 1_555 1_555
C13G C2G 1_555 1_555
C14G C1G 1_555 1_555
C15G C2G 1_555 1_555
O1K C5K 1_555 1_555
O2K C5K 1_555 1_555
C1K C3K 1_555 1_555
C2K C5K 1_555 1_555
C3K C3 1_555 1_555
C4K C3K 1_555 1_555
H1K C4K 1_555 1_555
C12K C1K 1_555 1_555
C13K C2K 1_555 1_555
C14K C1K 1_555 1_555
C15K C2K 1_555 1_555
O1L C5L 1_555 1_555
O2L C5L 1_555 1_555
C1L C3L 1_555 1_555
C2L C5L 1_555 1_555
C3L C3G 1_555 1_555
C12L C1L 1_555 1_555
C13L C2L 1_555 1_555
C14L C1L 1_555 1_555
C15L C2L 1_555 1_555
C6A N1 1_555 1_555
H2A C6A 1_555 1_555
C7A C8 1_555 1_555
H3A C7A 1_555 1_555
C10A C9 1_555 1_555
C11A N2 1_555 1_555
C10J C9 1_555 1_555
C11J N2 1_555 1_555
C10K C9 1_555 1_555
C11K N2 1_555 1_555
Co1_2 O1K 1_555 1_555
Co1_3 N2 1_555 1_555
Co1F O1L 1_555 1_555
Co1F_2 O1G 1_555 1_555
Co2_2 O2K 1_555 1_555
Co2F O2L 1_555 1_555
Co2F_2 O2G 1_555 1_555
O1A Co1 1_555 1_555
O1J Co1 1_555 1_555
O1K_2 Co1 1_555 1_555
O2A Co2 1_555 1_555
O2J Co2 1_555 1_555
O2K_2 Co2 1_555 1_555
N2_2 Co1 1_555 1_555
C12 C13 1_555 1_555
C14 C15 1_555 1_555
C12G C13G 1_555 1_555
C14G C15G 1_555 1_555
C4K C3L 1_555 1_555
C12K C13K 1_555 1_555
C14K C15K 1_555 1_555
C12L C13L 1_555 1_555
C14L C15L 1_555 1_555
C6A C7A 1_555 1_555
C10A C11A 1_555 1_555
C10J C11J 1_555 1_555
C10K C11K 1_555 1_555
Co1_2 Co2_2 1_555 1_555
Co1F Co2F 1_555 1_555
Co1F_2 Co2F_2 1_555 1_555

#END
