
#######################################################################
#
#                 Cambridge Crystallographic Data Centre
#                                CCDC 
#
#######################################################################
#
# If this CIF has been generated from an entry in the Cambridge 
# Structural Database, then it will include bibliographic, chemical, 
# crystal, experimental, refinement or atomic coordinate data resulting 
# from the CCDC's data processing and validation procedures.
#
#######################################################################

data_GOSFAX
_chemical_formula_moiety         '(C44 H26 Co2 N4 O8)n'
_symmetry_cell_setting           triclinic
_symmetry_space_group_name_H-M   'P -1'
_symmetry_Int_Tables_number      2
_space_group_name_Hall           '-P 1'
loop_
_symmetry_equiv_pos_site_id
_symmetry_equiv_pos_as_xyz
1 x,y,z
2 -x,-y,-z
_cell_length_a                   11.761(5)
_cell_length_b                   15.417(6)
_cell_length_c                   15.705(6)
_cell_angle_alpha                98.664(6)
_cell_angle_beta                 103.082(6)
_cell_angle_gamma                90.032(6)
_cell_volume                     2740.29
loop_
_atom_site_label
_atom_site_type_symbol
_atom_site_fract_x
_atom_site_fract_y
_atom_site_fract_z
Co1 Co -0.24104(4) 0.50945(3) 0.38390(3)
Co2 Co -0.28646(4) 0.48008(3) 0.20290(3)
O1 O -0.1222(2) 0.41702(17) 0.37085(17)
O2 O 0.6025(2) -0.42107(16) 0.21549(17)
O3 O -0.1287(2) -0.39207(17) 0.38794(18)
O4 O 0.5919(2) 0.38598(17) 0.19737(18)
O5 O -0.1629(2) 0.39014(16) 0.22334(17)
O6 O 0.6325(2) 0.41057(17) 0.34459(18)
O7 O -0.1535(2) -0.42605(16) 0.24313(18)
O8 O 0.6248(2) -0.40830(18) 0.36144(18)
N1 N -0.2307(4) 0.4792(4) 0.7857(4)
N2 N -0.3098(5) 0.5102(4) 0.7999(4)
N3 N -0.2374(3) 0.50492(19) 0.51470(17)
N4 N -0.2909(3) 0.4827(2) 1.07262(18)
C1 C 0.5816(3) -0.3878(2) 0.2866(3)
C2 C 0.1276(3) -0.0019(2) 0.3093(3)
H1 H 0.0521 0.0009 0.3216
C3 C 0.1104(3) -0.1617(2) 0.3070(3)
C4 C 0.1777(3) -0.0834(2) 0.3016(3)
C5 C 0.1144(3) 0.1559(2) 0.3024(3)
C6 C -0.1106(3) 0.3751(2) 0.2983(2)
C7 C -0.1097(3) -0.3807(2) 0.3161(3)
C8 C 0.4026(4) -0.1978(3) 0.2101(3)
H2 H 0.3888 -0.1672 0.1607
C9 C 0.1805(3) 0.0761(2) 0.3001(3)
C10 C 0.4991(3) 0.2936(2) 0.2710(3)
C11 C 0.2915(3) 0.0716(2) 0.2828(3)
C12 C -0.0274(3) 0.3009(2) 0.3019(2)
C13 C 0.4995(3) -0.3117(2) 0.2840(3)
C14 C 0.0783(4) 0.1949(3) 0.2283(3)
H3 H 0.1043 0.1731 0.1764
C15 C -0.0303(3) -0.3057(2) 0.3135(3)
C16 C 0.2910(3) -0.0859(2) 0.2844(3)
C17 C 0.0041(5) 0.2658(3) 0.2273(3)
H4 H -0.0239 0.2892 0.1741
C18 C 0.5815(3) 0.3690(2) 0.2717(3)
C19 C 0.0148(5) 0.2689(3) 0.3780(3)
H5 H -0.0004 0.2970 0.4322
C20 C 0.3581(3) 0.1510(2) 0.2779(3)
C21 C 0.4560(4) 0.2374(3) 0.2005(3)
H6 H 0.4722 0.2477 0.1463
C22 C 0.3890(5) 0.1646(3) 0.1992(3)
H7 H 0.3638 0.1240 0.1462
C23 C 0.3423(3) -0.0082(2) 0.2750(3)
H8 H 0.4176 -0.0104 0.2624
C24 C 0.3577(3) -0.1688(2) 0.2835(3)
C25 C -0.1465(3) 0.50086(18) 0.6710(4)
C26 C -0.2908(7) 0.4916(4) 0.8974(3)
C27 C -0.3441(6) 0.5056(5) 0.5376(4)
C28 C 0.4731(4) 0.2800(3) 0.3483(3)
H9 H 0.5054 0.3189 0.4013
C29 C 0.4687(4) -0.2732(3) 0.2106(3)
H10 H 0.4924 -0.2978 0.1584
C30 C 0.4552(4) -0.2812(3) 0.3565(3)
H11 H 0.4736 -0.3093 0.4074
C31 C 0.4006(5) 0.2106(3) 0.3506(4)
H12 H 0.3801 0.2046 0.4046
C32 C -0.1515(3) 0.49920(17) 0.5726(4)
C33 C 0.0929(4) -0.2344(3) 0.2424(3)
H13 H 0.1323 -0.2362 0.1957
C34 C -0.0104(4) -0.2361(3) 0.3812(3)
H14 H -0.0438 -0.2373 0.4307
C35 C 0.3846(4) -0.2102(3) 0.3554(3)
H15 H 0.3542 -0.1900 0.4057
C36 C 0.0813(5) 0.1936(3) 0.3755(3)
H16 H 0.1041 0.1680 0.4279
C37 C -0.3575(7) 0.5343(6) 0.9333(4)
H17 H -0.4128 0.5702 0.9024
C38 C -0.2529(4) 0.4965(3) 0.6869(3)
C39 C 0.0578(4) -0.1640(3) 0.3782(3)
H18 H 0.0690 -0.1156 0.4248
C40 C 0.0218(4) -0.3035(3) 0.2424(3)
H19 H 0.0075 -0.3504 0.1942
C41 C -0.2271(7) 0.4329(5) 0.9416(4)
H20 H -0.1764 0.3961 0.9143
C42 C -0.3495(5) 0.5285(4) 1.0267(3)
H21 H -0.3980 0.5668 1.0547
C43 C -0.3468(3) 0.5103(2) 0.6278(4)
C44 C -0.2358(3) 0.4263(2) 1.0272(3)
H22 H -0.2002 0.3787 1.0539
Co1_2 Co -0.24104(4) -0.49055(3) 0.38390(3)
Co1_3 Co 0.75896(4) -0.49055(3) 0.38390(3)
Co1_4 Co 0.75896(4) 0.50945(3) 0.38390(3)
Co2_2 Co -0.28646(4) -0.51992(3) 0.20290(3)
Co2_3 Co -0.28646(4) 0.48008(3) 1.20290(3)
Co2_4 Co 0.71354(4) -0.51992(3) 0.20290(3)
Co2_5 Co 0.71354(4) 0.48008(3) 0.20290(3)
O2_2 O -0.3975(2) 0.57893(16) 0.21549(17)
O3_2 O -0.1287(2) 0.60793(17) 0.38794(18)
O4_2 O -0.4081(2) 0.38598(17) 0.19737(18)
O6_2 O -0.3675(2) 0.41057(17) 0.34459(18)
O7_2 O -0.1535(2) 0.57395(16) 0.24313(18)
O8_2 O -0.3752(2) 0.59170(18) 0.36144(18)
N4_2 N -0.2909(3) 0.4827(2) 0.07262(18)
loop_
_geom_bond_atom_site_label_1
_geom_bond_atom_site_label_2
_geom_bond_site_symmetry_1
_geom_bond_site_symmetry_2
Co1 Co2 1_555 1_555
Co2 O5 1_555 1_555
O1 Co1 1_555 1_555
O2 C1 1_555 1_555
O3 C7 1_555 1_555
O4 C18 1_555 1_555
O5 C6 1_555 1_555
O6 C18 1_555 1_555
O7 C7 1_555 1_555
O8 C1 1_555 1_555
N1 N2 1_555 1_555
N2 C26 1_555 1_555
N3 Co1 1_555 1_555
N4 C42 1_555 1_555
C1 C13 1_555 1_555
C2 H1 1_555 1_555
C3 C4 1_555 1_555
C4 C2 1_555 1_555
C5 C9 1_555 1_555
C6 O1 1_555 1_555
C7 C15 1_555 1_555
C8 H2 1_555 1_555
C9 C2 1_555 1_555
C10 C18 1_555 1_555
C11 C9 1_555 1_555
C12 C6 1_555 1_555
C13 C29 1_555 1_555
C14 C5 1_555 1_555
H3 C14 1_555 1_555
C15 C34 1_555 1_555
C16 C4 1_555 1_555
C17 C12 1_555 1_555
H4 C17 1_555 1_555
C19 C12 1_555 1_555
H5 C19 1_555 1_555
C20 C11 1_555 1_555
C21 C10 1_555 1_555
H6 C21 1_555 1_555
C22 C20 1_555 1_555
H7 C22 1_555 1_555
C23 C11 1_555 1_555
H8 C23 1_555 1_555
C24 C8 1_555 1_555
C25 C32 1_555 1_555
C26 C37 1_555 1_555
C27 N3 1_555 1_555
C28 C10 1_555 1_555
H9 C28 1_555 1_555
C29 C8 1_555 1_555
H10 C29 1_555 1_555
C30 C13 1_555 1_555
H11 C30 1_555 1_555
C31 C20 1_555 1_555
H12 C31 1_555 1_555
C32 N3 1_555 1_555
C33 C3 1_555 1_555
H13 C33 1_555 1_555
C34 H14 1_555 1_555
C35 C24 1_555 1_555
H15 C35 1_555 1_555
C36 C5 1_555 1_555
H16 C36 1_555 1_555
C37 H17 1_555 1_555
C38 N1 1_555 1_555
C39 C3 1_555 1_555
H18 C39 1_555 1_555
C40 C15 1_555 1_555
H19 C40 1_555 1_555
C41 C26 1_555 1_555
H20 C41 1_555 1_555
C42 C37 1_555 1_555
H21 C42 1_555 1_555
C43 C27 1_555 1_555
C44 N4 1_555 1_555
H22 C44 1_555 1_555
Co1_2 O3 1_555 1_555
Co1_3 O8 1_555 1_555
Co1_4 O6 1_555 1_555
Co2_2 O7 1_555 1_555
Co2_3 N4 1_555 1_555
Co2_4 O2 1_555 1_555
Co2_5 O4 1_555 1_555
O2_2 Co2 1_555 1_555
O3_2 Co1 1_555 1_555
O4_2 Co2 1_555 1_555
O6_2 Co1 1_555 1_555
O7_2 Co2 1_555 1_555
O8_2 Co1 1_555 1_555
N4_2 Co2 1_555 1_555
C14 C17 1_555 1_555
C16 C23 1_555 1_555
C16 C24 1_555 1_555
C19 C36 1_555 1_555
C21 C22 1_555 1_555
C25 C38 1_555 1_555
C28 C31 1_555 1_555
C30 C35 1_555 1_555
C33 C40 1_555 1_555
C34 C39 1_555 1_555
C38 C43 1_555 1_555
C41 C44 1_555 1_555
Co1_2 Co2_2 1_555 1_555
Co1_3 Co2_4 1_555 1_555
Co1_4 Co2_5 1_555 1_555

#END
