
#######################################################################
#
#                 Cambridge Crystallographic Data Centre
#                                CCDC 
#
#######################################################################
#
# If this CIF has been generated from an entry in the Cambridge 
# Structural Database, then it will include bibliographic, chemical, 
# crystal, experimental, refinement or atomic coordinate data resulting 
# from the CCDC's data processing and validation procedures.
#
#######################################################################

data_BOWRAH
_chemical_formula_moiety         '(H8 B2 Fe3 O22 P4 1-)n'
_symmetry_cell_setting           monoclinic
_symmetry_space_group_name_H-M   'P 21/c'
_symmetry_Int_Tables_number      14
_space_group_name_Hall           '-P 2ybc'
loop_
_symmetry_equiv_pos_site_id
_symmetry_equiv_pos_as_xyz
1 x,y,z
2 -x,1/2+y,1/2-z
3 -x,-y,-z
4 x,1/2-y,1/2+z
_cell_length_a                   5.0139(15)
_cell_length_b                   9.309(2)
_cell_length_c                   20.923(7)
_cell_angle_alpha                90
_cell_angle_beta                 110.294(16)
_cell_angle_gamma                90
_cell_volume                     915.948
loop_
_atom_site_label
_atom_site_type_symbol
_atom_site_fract_x
_atom_site_fract_y
_atom_site_fract_z
Fe1 Fe 0.40093(12) 0.68831(5) 0.78393(3)
Fe2 Fe 1.0000 0.5000 0.5000
P1 P 0.7816(2) 0.85277(9) 0.71030(5)
P2 P 0.6197(2) 0.39334(9) 0.58376(5)
B1 B 0.4622(9) 0.6345(4) 0.6378(2)
O1 O 0.4604(6) 0.5851(3) 0.70421(14)
O2 O 0.5597(6) 0.7857(3) 0.64487(14)
O3 O 0.8678(6) 0.3651(3) 0.55927(15)
O4 O 0.6600(6) 0.5474(3) 0.61555(14)
O5 O 0.7913(6) 1.0144(3) 0.69724(15)
O6 O 0.1757(7) 0.6293(3) 0.58539(15)
O7 O 0.3400(6) 0.3855(3) 0.52461(15)
O8 O 0.6753(6) 0.8302(3) 0.77017(14)
O9 O 0.6254(7) 0.2828(3) 0.63765(15)
O10 O 1.0687(6) 0.7846(3) 0.72135(15)
O11 O 0.7967(7) 0.6042(4) 0.85416(18)
H1 H 0.068(13) 0.640(6) 0.599(3)
H2 H 0.429(14) 0.499(7) 0.707(3)
H3 H 0.895(15) 0.561(8) 0.838(4)
H4 H 0.899(19) 0.670(9) 0.875(5)
Fe1B Fe 1.59907(12) 0.31169(5) 0.21607(3)
Fe1A Fe 0.59907(12) 1.18831(5) 0.71607(3)
Fe1A_2 Fe 0.59907(12) 0.18831(5) 0.71607(3)
Fe1_2 Fe 1.40093(12) 0.68831(5) 0.78393(3)
Fe1C Fe 1.40093(12) -0.18831(5) 0.28393(3)
Fe1C_2 Fe 1.40093(12) 0.81169(5) 0.28393(3)
Fe1B_2 Fe 0.59907(12) 0.31169(5) 0.21607(3)
Fe2_2 Fe 0.0000 0.5000 0.5000
Fe2_3 Fe 2.0000 0.5000 0.5000
P1B P 1.2184(2) 0.14723(9) 0.28970(5)
P2B P 1.3803(2) 0.60666(9) 0.41624(5)
B1B B 1.5378(9) 0.3655(4) 0.3622(2)
O1B O 1.5396(6) 0.4149(3) 0.29579(14)
O2B O 1.4403(6) 0.2143(3) 0.35513(14)
O3B O 1.1322(6) 0.6349(3) 0.44073(15)
O4B O 1.3400(6) 0.4526(3) 0.38445(14)
O5B O 1.2087(6) -0.0144(3) 0.30276(15)
O5A O 0.2087(6) 0.5144(3) 0.80276(15)
O5C O 1.7913(6) 0.4856(3) 0.19724(15)
O6B O 1.8243(7) 0.3707(3) 0.41461(15)
O6_2 O 1.1757(7) 0.6293(3) 0.58539(15)
O6B_2 O 0.8243(7) 0.3707(3) 0.41461(15)
O7B O 1.6600(6) 0.6145(3) 0.47539(15)
O7_2 O 1.3400(6) 0.3855(3) 0.52461(15)
O7B_2 O 0.6600(6) 0.6145(3) 0.47539(15)
O8B O 1.3247(6) 0.1698(3) 0.22983(14)
O9B O 1.3746(7) 0.7172(3) 0.36235(15)
O9A O 0.3746(7) 0.7828(3) 0.86235(15)
O9C O 1.6254(7) 0.2172(3) 0.13765(15)
O10B O 0.9313(6) 0.2154(3) 0.27865(15)
O10_2 O 0.0687(6) 0.7846(3) 0.72135(15)
O10B_2 O 1.9313(6) 0.2154(3) 0.27865(15)
O11B O 1.2033(7) 0.3958(4) 0.14584(18)
H1B H 1.932(13) 0.360(6) 0.401(3)
H1_2 H 1.068(13) 0.640(6) 0.599(3)
H1B_2 H 0.932(13) 0.360(6) 0.401(3)
H2B H 1.571(14) 0.501(7) 0.293(3)
H3B H 1.105(15) 0.439(8) 0.162(4)
H4B H 1.101(19) 0.330(9) 0.125(5)
loop_
_geom_bond_atom_site_label_1
_geom_bond_atom_site_label_2
_geom_bond_site_symmetry_1
_geom_bond_site_symmetry_2
Fe1 O1 1_555 1_555
Fe2 O3 1_555 1_555
P1 O2 1_555 1_555
P2 O3 1_555 1_555
B1 O1 1_555 1_555
O1 H2 1_555 1_555
O2 B1 1_555 1_555
O4 P2 1_555 1_555
O5 P1 1_555 1_555
O6 B1 1_555 1_555
O7 P2 1_555 1_555
O8 Fe1 1_555 1_555
O9 P2 1_555 1_555
O10 P1 1_555 1_555
O11 Fe1 1_555 1_555
H1 O6 1_555 1_555
H3 O11 1_555 1_555
H4 O11 1_555 1_555
Fe1B O1B 1_555 1_555
Fe1A O5 1_555 1_555
Fe1A_2 O9 1_555 1_555
Fe1_2 O10 1_555 1_555
Fe1C O5B 1_555 1_555
Fe1C_2 O9B 1_555 1_555
Fe1B_2 O10B 1_555 1_555
Fe2_2 O6 1_555 1_555
Fe2_3 O6B 1_555 1_555
P1B O2B 1_555 1_555
P2B O3B 1_555 1_555
B1B O1B 1_555 1_555
O1B H2B 1_555 1_555
O2B B1B 1_555 1_555
O3B Fe2 1_555 1_555
O4B P2B 1_555 1_555
O5B P1B 1_555 1_555
O5A Fe1 1_555 1_555
O5C Fe1B 1_555 1_555
O6B B1B 1_555 1_555
O6_2 Fe2 1_555 1_555
O6B_2 Fe2 1_555 1_555
O7B Fe2_3 1_555 1_555
O7_2 Fe2 1_555 1_555
O7B_2 Fe2 1_555 1_555
O8B Fe1B 1_555 1_555
O9B P2B 1_555 1_555
O9A Fe1 1_555 1_555
O9C Fe1B 1_555 1_555
O10B P1B 1_555 1_555
O10_2 Fe1 1_555 1_555
O10B_2 Fe1B 1_555 1_555
O11B Fe1B 1_555 1_555
H1B O6B 1_555 1_555
H1_2 O6_2 1_555 1_555
H1B_2 O6B_2 1_555 1_555
H3B O11B 1_555 1_555
H4B O11B 1_555 1_555
P1 O8 1_555 1_555
B1 O4 1_555 1_555
O7 Fe2_2 1_555 1_555
P1B O8B 1_555 1_555
P2B O7B 1_555 1_555
B1B O4B 1_555 1_555

#END
