
#######################################################################
#
#                 Cambridge Crystallographic Data Centre
#                                CCDC 
#
#######################################################################
#
# If this CIF has been generated from an entry in the Cambridge 
# Structural Database, then it will include bibliographic, chemical, 
# crystal, experimental, refinement or atomic coordinate data resulting 
# from the CCDC's data processing and validation procedures.
#
#######################################################################

data_YUPSIM
_chemical_formula_moiety         '(C24 H17 N5 O18 Pr2)n'
_symmetry_cell_setting           orthorhombic
_symmetry_space_group_name_H-M   'P n m a'
_symmetry_Int_Tables_number      62
_space_group_name_Hall           '-P 2ac 2n'
loop_
_symmetry_equiv_pos_site_id
_symmetry_equiv_pos_as_xyz
1 x,y,z
2 1/2-x,-y,1/2+z
3 -x,1/2+y,-z
4 1/2+x,1/2-y,1/2-z
5 -x,-y,-z
6 1/2+x,y,1/2-z
7 x,1/2-y,z
8 1/2-x,1/2+y,1/2+z
_cell_length_a                   8.5785(4)
_cell_length_b                   31.9322(15)
_cell_length_c                   13.8236(7)
_cell_angle_alpha                90
_cell_angle_beta                 90
_cell_angle_gamma                90
_cell_volume                     3786.7
loop_
_atom_site_label
_atom_site_type_symbol
_atom_site_fract_x
_atom_site_fract_y
_atom_site_fract_z
Pr1 Pr 1.07896(3) 0.896570(9) 0.20127(2)
C1 C 0.8417(6) 0.82750(18) 0.3146(4)
C2 C 0.9196(5) 0.78741(17) 0.3422(4)
C3 C 0.8475(8) 0.7500 0.3207(5)
H1 H 0.7497 0.7500 0.2916
C4 C 1.0637(5) 0.78730(18) 0.3898(4)
H2 H 1.1129 0.8124 0.4052
C5 C 1.1310(8) 0.7500 0.4132(5)
C6 C 0.7925(6) 0.92672(17) 0.0843(4)
C7 C 0.6785(5) 0.94008(17) 0.0088(4)
C8 C 0.5517(6) 0.91481(19) -0.0136(4)
H3 H 0.5333 0.8901 0.0199
C9 C 0.4542(6) 0.92752(19) -0.0870(4)
C10 C 0.4770(6) 0.96415(18) -0.1358(4)
H4 H 0.4097 0.9718 -0.1855
C11 C 0.6016(5) 0.99005(17) -0.1109(4)
C12 C 0.7024(5) 0.97747(16) -0.0402(4)
H5 H 0.7879 0.9941 -0.0248
C13 C 0.6249(6) 1.03065(18) -0.1618(4)
N1 N 1.0417(7) 0.8382(2) 0.0274(5)
N2 N 1.2778(8) 0.7500 0.4665(6)
H6 H 1.3206 0.7733 0.4828
H7 H 1.3216 0.7267 0.4818
N3 N 0.3225(6) 0.90052(15) -0.1170(4)
H8 H 0.3429 0.8894 -0.1746
H9 H 0.3095 0.8802 -0.0737
H10 H 0.2359 0.9158 -0.1206
O1 O 0.7526(4) 0.90495(11) 0.1571(3)
O2 O 0.9342(4) 0.93649(13) 0.0713(3)
O3 O 0.9198(4) 0.86154(12) 0.3200(3)
O4 O 0.7035(4) 0.82652(12) 0.2884(3)
O5 O 0.5200(4) 1.04201(12) -0.2214(3)
O6 O 0.7429(4) 1.05194(12) -0.1409(3)
O7 O 1.1466(5) 0.86563(14) 0.0317(3)
O8 O 0.9401(4) 0.83630(15) 0.0903(4)
O9 O 1.0463(7) 0.8113(3) -0.0386(5)
Pr1D Pr 0.92104(3) 1.103430(9) -0.20127(2)
Pr1E Pr 0.57896(3) 0.896570(9) 0.29873(2)
Pr1A Pr 0.42104(3) 1.103430(9) -0.29873(2)
Pr1C Pr 0.57896(3) 0.603430(9) 0.29873(2)
Pr1F Pr 1.07896(3) 0.603430(9) 0.20127(2)
Pr1A_2 Pr 1.42104(3) 1.103430(9) -0.29873(2)
Pr1E_2 Pr 1.57896(3) 0.896570(9) 0.29873(2)
C1F C 0.8417(6) 0.67250(18) 0.3146(4)
C2F C 0.9196(5) 0.71259(17) 0.3422(4)
C4F C 1.0637(5) 0.71270(18) 0.3898(4)
H2F H 1.1129 0.6876 0.4052
C6D C 1.2075(6) 1.07328(17) -0.0843(4)
C7D C 1.3215(5) 1.05992(17) -0.0088(4)
C8D C 1.4483(6) 1.08519(19) 0.0136(4)
H3D H 1.4667 1.1099 -0.0199
C9D C 1.5458(6) 1.07248(19) 0.0870(4)
C10D C 1.5230(6) 1.03585(18) 0.1358(4)
H4D H 1.5903 1.0282 0.1855
C11D C 1.3984(5) 1.00995(17) 0.1109(4)
C12D C 1.2976(5) 1.02253(16) 0.0402(4)
H5D H 1.2121 1.0059 0.0248
C13D C 1.3751(6) 0.96935(18) 0.1618(4)
N1D N 0.9583(7) 1.1618(2) -0.0274(5)
N3D N 1.6775(6) 1.09948(15) 0.1170(4)
H8D H 1.6571 1.1106 0.1746
H9D H 1.6905 1.1198 0.0737
H10D H 1.7641 1.0842 0.1206
O1D O 1.2474(4) 1.09505(11) -0.1571(3)
O1E O 1.2526(4) 0.90495(11) 0.3429(3)
O1A O 0.7474(4) 1.09505(11) -0.3429(3)
O2D O 1.0658(4) 1.06351(13) -0.0713(3)
O3F O 0.9198(4) 0.63846(12) 0.3200(3)
O3D O 1.0802(4) 1.13846(12) -0.3200(3)
O4F O 0.7035(4) 0.67348(12) 0.2884(3)
O4E O 1.2035(4) 0.82652(12) 0.2116(3)
O4A O 0.7965(4) 1.17348(12) -0.2116(3)
O5D O 1.4800(4) 0.95799(12) 0.2214(3)
O5A O 0.9800(4) 0.95799(12) 0.2786(3)
O5E O 1.0200(4) 1.04201(12) -0.2786(3)
O6D O 1.2571(4) 0.94806(12) 0.1409(3)
O7D O 0.8534(5) 1.13437(14) -0.0317(3)
O8D O 1.0599(4) 1.16370(15) -0.0903(4)
O9D O 0.9537(7) 1.1887(3) 0.0386(5)
loop_
_geom_bond_atom_site_label_1
_geom_bond_atom_site_label_2
_geom_bond_site_symmetry_1
_geom_bond_site_symmetry_2
Pr1 O1 1_555 1_555
C1 C2 1_555 1_555
C2 C3 1_555 1_555
C3 H1 1_555 1_555
C4 C2 1_555 1_555
H2 C4 1_555 1_555
C5 C4 1_555 1_555
C6 C7 1_555 1_555
C7 C8 1_555 1_555
C8 H3 1_555 1_555
C9 C8 1_555 1_555
C10 C9 1_555 1_555
H4 C10 1_555 1_555
C11 C10 1_555 1_555
C12 C7 1_555 1_555
H5 C12 1_555 1_555
C13 C11 1_555 1_555
N1 O7 1_555 1_555
N2 C5 1_555 1_555
H6 N2 1_555 1_555
H7 N2 1_555 1_555
N3 C9 1_555 1_555
H8 N3 1_555 1_555
H9 N3 1_555 1_555
H10 N3 1_555 1_555
O1 C6 1_555 1_555
O2 Pr1 1_555 1_555
O3 Pr1 1_555 1_555
O4 C1 1_555 1_555
O5 C13 1_555 1_555
O6 C13 1_555 1_555
O7 Pr1 1_555 1_555
O8 Pr1 1_555 1_555
O9 N1 1_555 1_555
Pr1D O6 1_555 1_555
Pr1E O1 1_555 1_555
Pr1A O5 1_555 1_555
Pr1C O4F 1_555 1_555
Pr1F O3F 1_555 1_555
Pr1A_2 O1D 1_555 1_555
Pr1E_2 O1E 1_555 1_555
C1F C2F 1_555 1_555
C2F C3 1_555 1_555
C4F C5 1_555 1_555
H2F C4F 1_555 1_555
C6D C7D 1_555 1_555
C7D C8D 1_555 1_555
C8D H3D 1_555 1_555
C9D C8D 1_555 1_555
C10D C9D 1_555 1_555
H4D C10D 1_555 1_555
C11D C10D 1_555 1_555
C12D C7D 1_555 1_555
H5D C12D 1_555 1_555
C13D C11D 1_555 1_555
N1D O7D 1_555 1_555
N3D C9D 1_555 1_555
H8D N3D 1_555 1_555
H9D N3D 1_555 1_555
H10D N3D 1_555 1_555
O1D Pr1D 1_555 1_555
O1E Pr1 1_555 1_555
O1A Pr1D 1_555 1_555
O2D Pr1D 1_555 1_555
O3F C1F 1_555 1_555
O3D Pr1D 1_555 1_555
O4F C1F 1_555 1_555
O4E Pr1 1_555 1_555
O4A Pr1D 1_555 1_555
O5D Pr1E_2 1_555 1_555
O5A Pr1 1_555 1_555
O5E Pr1D 1_555 1_555
O6D Pr1 1_555 1_555
O7D Pr1D 1_555 1_555
O8D Pr1D 1_555 1_555
O9D N1D 1_555 1_555
C1 O3 1_555 1_555
C6 O2 1_555 1_555
C11 C12 1_555 1_555
N1 O8 1_555 1_555
O4 Pr1E 1_555 1_555
Pr1A O1A 1_555 1_555
C2F C4F 1_555 1_555
C6D O1D 1_555 1_555
C6D O2D 1_555 1_555
C11D C12D 1_555 1_555
C13D O5D 1_555 1_555
C13D O6D 1_555 1_555
N1D O8D 1_555 1_555

#END
