
#######################################################################
#
#                 Cambridge Crystallographic Data Centre
#                                CCDC 
#
#######################################################################
#
# If this CIF has been generated from an entry in the Cambridge 
# Structural Database, then it will include bibliographic, chemical, 
# crystal, experimental, refinement or atomic coordinate data resulting 
# from the CCDC's data processing and validation procedures.
#
#######################################################################

data_NEGGOX
_chemical_formula_moiety         'C9 Mn8 N10'
_symmetry_cell_setting           rhombohedral
_symmetry_space_group_name_H-M   'R -3 m'
_symmetry_Int_Tables_number      166
_space_group_name_Hall           '-R 3 2"'
loop_
_symmetry_equiv_pos_site_id
_symmetry_equiv_pos_as_xyz
1 x,y,z
2 -y,x-y,z
3 -x+y,-x,z
4 y,x,-z
5 -x,-x+y,-z
6 x-y,-y,-z
7 1/3+x,2/3+y,2/3+z
8 1/3-y,2/3+x-y,2/3+z
9 1/3-x+y,2/3-x,2/3+z
10 1/3+y,2/3+x,2/3-z
11 1/3-x,2/3-x+y,2/3-z
12 1/3+x-y,2/3-y,2/3-z
13 2/3+x,1/3+y,1/3+z
14 2/3-y,1/3+x-y,1/3+z
15 2/3-x+y,1/3-x,1/3+z
16 2/3+y,1/3+x,1/3-z
17 2/3-x,1/3-x+y,1/3-z
18 2/3+x-y,1/3-y,1/3-z
19 -x,-y,-z
20 y,-x+y,-z
21 x-y,x,-z
22 -y,-x,z
23 x,x-y,z
24 -x+y,y,z
25 2/3-x,1/3-y,1/3-z
26 2/3+y,1/3-x+y,1/3-z
27 2/3+x-y,1/3+x,1/3-z
28 2/3-y,1/3-x,1/3+z
29 2/3+x,1/3+x-y,1/3+z
30 2/3-x+y,1/3+y,1/3+z
31 1/3-x,2/3-y,2/3-z
32 1/3+y,2/3-x+y,2/3-z
33 1/3+x-y,2/3+x,2/3-z
34 1/3-y,2/3-x,2/3+z
35 1/3+x,2/3+x-y,2/3+z
36 1/3-x+y,2/3+y,2/3+z
_cell_length_a                   8.07384(11)
_cell_length_b                   8.07384(11)
_cell_length_c                   29.0859(5)
_cell_angle_alpha                90
_cell_angle_beta                 90
_cell_angle_gamma                120
_cell_volume                     1642
loop_
_atom_site_label
_atom_site_type_symbol
_atom_site_fract_x
_atom_site_fract_y
_atom_site_fract_z
_atom_site_U_iso_or_equiv
_atom_site_thermal_displace_type
Mn1 Mn 0.33333 0.66667 0.07264(5) 0.0339 Uiso
Mn2 Mn 0.00000 0.00000 0.00000 0.0194 Uiso
C1 C 0.1231(3) 0.2462(6) 0.04397(19) 0.0306 Uiso
N1 N 0.1961(3) 0.3922(5) 0.05764(14) 0.0306 Uiso
C2 C 0.33333 0.66667 0.1435(2) 0.0306 Uiso
Mn1E Mn -0.33334 -0.66667 -0.07264(5) 0.0339 Uiso
Mn1_2 Mn -0.66667 -0.33333 0.07264(5) 0.0339 Uiso
Mn1_3 Mn 0.33333 -0.33333 0.07264(5) 0.0339 Uiso
Mn1C Mn -0.33333 0.33333 -0.07264(5) 0.0339 Uiso
Mn1D Mn 0.66667 0.33334 -0.07264(5) 0.0339 Uiso
Mn1O Mn 0.33334 0.66666 0.26069(5) 0.0339 Uiso
C1A C -0.2462(6) -0.1231(7) 0.04397(19) 0.0306 Uiso
C1B C 0.1231(7) -0.1231(3) 0.04397(19) 0.0306 Uiso
C1C C 0.2462(6) 0.1231(3) -0.04397(19) 0.0306 Uiso
C1D C -0.1231(3) 0.1231(7) -0.04397(19) 0.0306 Uiso
C1E C -0.1231(7) -0.2462(6) -0.04397(19) 0.0306 Uiso
N1A N -0.3922(5) -0.1961(6) 0.05764(14) 0.0306 Uiso
N1B N 0.1961(6) -0.1961(3) 0.05764(14) 0.0306 Uiso
N1C N 0.3922(5) 0.1961(3) -0.05764(14) 0.0306 Uiso
N1D N -0.1961(3) 0.1961(6) -0.05764(14) 0.0306 Uiso
N1E N -0.1961(6) -0.3922(5) -0.05764(14) 0.0306 Uiso
N1A_2 N 0.6078(5) 0.8039(6) 0.05764(14) 0.0306 Uiso
N1B_2 N 0.1961(6) 0.8039(3) 0.05764(14) 0.0306 Uiso
N1C_2 N -0.6078(5) -0.8039(3) -0.05764(14) 0.0306 Uiso
N1D_2 N -0.1961(3) -0.8039(6) -0.05764(14) 0.0306 Uiso
C2O C 0.33334 0.66666 0.1898(2) 0.0306 Uiso
C2C C -0.33333 -0.66667 -0.1435(2) 0.0306 Uiso
loop_
_geom_bond_atom_site_label_1
_geom_bond_atom_site_label_2
_geom_bond_site_symmetry_1
_geom_bond_site_symmetry_2
Mn1 N1 1_555 1_555
Mn2 C1 1_555 1_555
C1 N1 1_555 1_555
C2 Mn1 1_555 1_555
Mn1E N1E 1_555 1_555
Mn1_2 N1A 1_555 1_555
Mn1_3 N1B 1_555 1_555
Mn1C N1D 1_555 1_555
Mn1D N1C 1_555 1_555
Mn1O C2O 1_555 1_555
C1A Mn2 1_555 1_555
C1B Mn2 1_555 1_555
C1C Mn2 1_555 1_555
C1D Mn2 1_555 1_555
C1E Mn2 1_555 1_555
N1A C1A 1_555 1_555
N1B C1B 1_555 1_555
N1C C1C 1_555 1_555
N1D C1D 1_555 1_555
N1E C1E 1_555 1_555
N1A_2 Mn1 1_555 1_555
N1B_2 Mn1 1_555 1_555
N1C_2 Mn1E 1_555 1_555
N1D_2 Mn1E 1_555 1_555
C2O C2 1_555 1_555
C2C Mn1E 1_555 1_555

#END
