
#######################################################################
#
#                 Cambridge Crystallographic Data Centre
#                                CCDC 
#
#######################################################################
#
# If this CIF has been generated from an entry in the Cambridge 
# Structural Database, then it will include bibliographic, chemical, 
# crystal, experimental, refinement or atomic coordinate data resulting 
# from the CCDC's data processing and validation procedures.
#
#######################################################################

data_HICGEG
_chemical_formula_moiety         '(C65 H71 N41 O1 Zn10)n'
_symmetry_cell_setting           monoclinic
_symmetry_space_group_name_H-M   'C 2/c'
_symmetry_Int_Tables_number      15
_space_group_name_Hall           '-C 2yc'
loop_
_symmetry_equiv_pos_site_id
_symmetry_equiv_pos_as_xyz
1 x,y,z
2 1/2+x,1/2+y,z
3 -x,y,1/2-z
4 1/2-x,1/2+y,1/2-z
5 -x,-y,-z
6 1/2-x,1/2-y,-z
7 x,-y,1/2+z
8 1/2+x,1/2-y,1/2+z
_cell_length_a                   37.241(11)
_cell_length_b                   19.217(6)
_cell_length_c                   25.547(8)
_cell_angle_alpha                90
_cell_angle_beta                 132.410(3)
_cell_angle_gamma                90
_cell_volume                     13499
loop_
_atom_site_label
_atom_site_type_symbol
_atom_site_fract_x
_atom_site_fract_y
_atom_site_fract_z
Zn1 Zn 0.65848(3) 0.25298(4) 0.54768(4)
Zn2 Zn 0.34697(3) 0.43461(4) 0.45702(4)
Zn3 Zn 0.5000 0.32190(7) 0.7500
Zn4 Zn 0.67584(3) 0.25137(4) 0.79848(4)
Zn5 Zn 0.67144(3) 0.56307(4) 0.79495(4)
Zn6 Zn 0.5000 0.66493(7) 0.7500
N1 N 0.6526(2) 0.2246(3) 0.6156(3)
N2 N 0.3221(2) 0.6484(3) 0.4400(3)
N3 N 0.3258(2) 0.5323(3) 0.4452(3)
N4 N 0.4111(2) 0.4197(3) 0.5543(3)
N5 N 0.46804(19) 0.3793(3) 0.6638(3)
N6 N 0.2955(2) 0.3745(3) 0.4383(3)
N7 N 0.2295(2) 0.3087(3) 0.3766(3)
N8 N 0.6176(2) 0.2392(3) 0.7847(4)
N9 N 0.6960(2) 0.3493(3) 0.8242(3)
N10 N 0.6950(2) 0.4663(3) 0.8230(3)
N11 N 0.7758(2) 0.1265(3) 0.6289(3)
N12 N 0.7113(2) 0.1957(3) 0.5685(3)
N13 N 0.3440(2) 0.4072(3) 0.2922(3)
N14 N 0.3506(2) 0.4076(3) 0.3851(3)
N15 N 0.6164(2) 0.5677(3) 0.7909(3)
N16 N 0.5515(2) 0.6039(3) 0.7719(3)
N17 N 0.5345(2) 0.2769(3) 0.3359(3)
C1 C 0.3432(3) 0.5907(4) 0.4438(4)
H1 H 0.3689 0.5916 0.4454
C2 C 0.2874(4) 0.6230(6) 0.4380(6)
H2 H 0.2651 0.6500 0.4343
C3 C 0.2896(4) 0.5523(5) 0.4420(6)
H3 H 0.2698 0.5232 0.4425
C4 C 0.4225(2) 0.3763(4) 0.6043(3)
H4 H 0.4001 0.3463 0.5975
C5 C 0.4529(3) 0.4520(4) 0.5844(4)
H5 H 0.4573 0.4858 0.5631
C6 C 0.4882(3) 0.4270(4) 0.6519(4)
H6 H 0.5207 0.4406 0.6840
C7 C 0.2620(2) 0.3401(4) 0.3797(3)
H7 H 0.2613 0.3382 0.3427
C8 C 0.2829(3) 0.3644(5) 0.4771(4)
H8 H 0.2994 0.3821 0.5222
C9 C 0.2432(3) 0.3252(4) 0.4399(4)
H9 H 0.2273 0.3111 0.4546
C10 C 0.6745(2) 0.4073(4) 0.7865(4)
H10 H 0.6472 0.4067 0.7382
C11 C 0.7331(3) 0.4433(6) 0.8909(4)
H11 H 0.7549 0.4713 0.9305
C12 C 0.7332(4) 0.3730(6) 0.8902(5)
H12 H 0.7557 0.3450 0.9295
C13 C 0.7429(3) 0.1573(4) 0.6258(4)
H13 H 0.7419 0.1525 0.6610
C14 C 0.7647(4) 0.1492(5) 0.5687(5)
H14 H 0.7817 0.1370 0.5552
C15 C 0.7271(4) 0.1902(5) 0.5331(5)
H15 H 0.7131 0.2122 0.4906
C16 C 0.3445(3) 0.4441(4) 0.3363(4)
H16 H 0.3409 0.4923 0.3330
C17 C 0.3493(3) 0.3413(5) 0.3133(5)
H17 H 0.3500 0.3026 0.2921
C18 C 0.3535(3) 0.3397(4) 0.3701(4)
H18 H 0.3575 0.3001 0.3946
C19 C 0.5817(3) 0.6126(4) 0.7610(4)
H19 H 0.5779 0.6489 0.7336
C20 C 0.6086(3) 0.5247(4) 0.8236(4)
H20 H 0.6277 0.4862 0.8506
C21 C 0.5695(3) 0.5452(5) 0.8116(5)
H21 H 0.5565 0.5228 0.8279
N18 N 0.6610(2) 0.2232(3) 0.7111(3)
N19 N 0.5514(2) 0.2642(3) 0.7672(3)
N20 N 0.5954(2) 0.2451(3) 0.4490(3)
C22 C 0.6672(3) 0.2581(4) 0.6721(4)
H22 H 0.6807 0.3024 0.6841
C23 C 0.5784(2) 0.2925(4) 0.3983(3)
H23 H 0.5955 0.3324 0.4059
C24 C 0.5900(2) 0.2874(3) 0.7793(4)
H24 H 0.5971 0.3346 0.7836
C25 C 0.6316(6) 0.1690(8) 0.6678(8)
H25 H 0.6179 0.1363 0.6769
C26 C 0.6259(6) 0.1709(8) 0.6095(9)
H26 H 0.6068 0.1405 0.5712
C27 C 0.6062(8) 0.1818(6) 0.8027(15)
H27 H 0.6223 0.1393 0.8178
C28 C 0.5670(8) 0.1979(8) 0.7946(18)
H28 H 0.5530 0.1688 0.8057
C29 C 0.5288(5) 0.2089(5) 0.3450(7)
H29 H 0.5025 0.1811 0.3098
C30 C 0.5669(5) 0.1872(7) 0.4127(7)
H30 H 0.5724 0.1425 0.4307
Zn1B Zn 0.34152(3) 0.25298(4) 0.95232(4)
Zn1D Zn 0.34152(3) 0.74702(4) 0.45232(4)
Zn1F Zn 0.65848(3) 0.74702(4) 1.04768(4)
Zn1C Zn 0.84152(3) 0.75298(4) 0.95232(4)
Zn2B Zn 0.65303(3) 0.43461(4) 1.04298(4)
Zn2G Zn 0.84697(3) 0.06539(4) 0.95702(4)
Zn4B Zn 0.32416(3) 0.25137(4) 0.70152(4)
Zn4G Zn 0.17584(3) 0.24863(4) 0.29848(4)
Zn5B Zn 0.32856(3) 0.56307(4) 0.70505(4)
Zn5C Zn 0.82856(3) 0.06307(4) 0.70505(4)
Zn5D Zn 0.32856(3) 0.43693(4) 0.20505(4)
Zn5F Zn 0.67144(3) 0.43693(4) 1.29495(4)
Zn6F Zn 0.5000 0.33507(7) 0.2500
Zn6F_2 Zn 0.5000 0.33507(7) 1.2500
N1B N 0.3474(2) 0.2246(3) 0.8844(3)
N2B N 0.6779(2) 0.6484(3) 1.0600(3)
N2D N 0.6779(2) 0.3516(3) 0.5600(3)
N2F N 0.3221(2) 0.3516(3) 0.9400(3)
N3B N 0.6742(2) 0.5323(3) 1.0548(3)
N4B N 0.5889(2) 0.4197(3) 0.9457(3)
N5B N 0.53196(19) 0.3793(3) 0.8362(3)
N6G N 0.7955(2) 0.1255(3) 0.9383(3)
N6B N 0.7045(2) 0.3745(3) 1.0617(3)
N7G N 0.7295(2) 0.1913(3) 0.8766(3)
N7E N 0.2705(2) 0.1913(3) 0.6234(3)
N8B N 0.3824(2) 0.2392(3) 0.7153(4)
N9B N 0.3040(2) 0.3493(3) 0.6758(3)
N10B N 0.3050(2) 0.4663(3) 0.6770(3)
N11C N 0.7242(2) 0.6265(3) 0.8711(3)
N11A N 0.2758(2) 0.6265(3) 0.6289(3)
N12C N 0.7887(2) 0.6957(3) 0.9315(3)
N12B N 0.2887(2) 0.1957(3) 0.9315(3)
N13B N 0.6560(2) 0.4072(3) 1.2078(3)
N13D N 0.6560(2) 0.5928(3) 0.7078(3)
N13F N 0.3440(2) 0.5928(3) 0.7922(3)
N14B N 0.6494(2) 0.4076(3) 1.1149(3)
N15B N 0.3836(2) 0.5677(3) 0.7091(3)
N16B N 0.4485(2) 0.6039(3) 0.7281(3)
N17B N 0.4655(2) 0.2769(3) 1.1641(3)
N17F N 0.5345(2) 0.7231(3) 0.8359(3)
N17D N 0.4655(2) 0.7231(3) 0.6641(3)
C1B C 0.6568(3) 0.5907(4) 1.0562(4)
H1B H 0.6311 0.5916 1.0546
C2B C 0.7126(4) 0.6230(6) 1.0620(6)
H2B H 0.7349 0.6500 1.0657
C3B C 0.7104(4) 0.5523(5) 1.0580(6)
H3B H 0.7302 0.5232 1.0575
C4B C 0.5775(2) 0.3763(4) 0.8957(3)
H4B H 0.5999 0.3463 0.9025
C5B C 0.5471(3) 0.4520(4) 0.9156(4)
H5B H 0.5427 0.4858 0.9369
C6B C 0.5118(3) 0.4270(4) 0.8481(4)
H6B H 0.4793 0.4406 0.8160
C7G C 0.7620(2) 0.1599(4) 0.8797(3)
H7G H 0.7613 0.1618 0.8427
C8G C 0.7829(3) 0.1356(5) 0.9771(4)
H8G H 0.7994 0.1179 1.0222
C9G C 0.7432(3) 0.1748(4) 0.9399(4)
H9G H 0.7273 0.1889 0.9546
C10B C 0.3255(2) 0.4073(4) 0.7135(4)
H10B H 0.3528 0.4067 0.7618
C11B C 0.2669(3) 0.4433(6) 0.6091(4)
H11B H 0.2451 0.4713 0.5695
C12B C 0.2668(4) 0.3730(6) 0.6098(5)
H12B H 0.2443 0.3450 0.5705
C13C C 0.7571(3) 0.6573(4) 0.8742(4)
H13C H 0.7581 0.6525 0.8390
C14C C 0.7353(4) 0.6492(5) 0.9313(5)
H14C H 0.7183 0.6370 0.9448
C15C C 0.7729(4) 0.6902(5) 0.9669(5)
H15C H 0.7869 0.7122 1.0094
C16B C 0.6555(3) 0.4441(4) 1.1637(4)
H16B H 0.6591 0.4923 1.1670
C17B C 0.6507(3) 0.3413(5) 1.1867(5)
H17B H 0.6500 0.3026 1.2079
C18B C 0.6465(3) 0.3397(4) 1.1299(4)
H18B H 0.6425 0.3001 1.1054
C19B C 0.4183(3) 0.6126(4) 0.7390(4)
H19B H 0.4221 0.6489 0.7664
C20B C 0.3914(3) 0.5247(4) 0.6764(4)
H20B H 0.3723 0.4862 0.6494
C21B C 0.4305(3) 0.5452(5) 0.6884(5)
H21B H 0.4435 0.5228 0.6721
N18B N 0.3390(2) 0.2232(3) 0.7889(3)
N19B N 0.4486(2) 0.2642(3) 0.7328(3)
N20B N 0.4046(2) 0.2451(3) 1.0510(3)
C22B C 0.3328(3) 0.2581(4) 0.8279(4)
H22B H 0.3193 0.3024 0.8159
C23B C 0.4216(2) 0.2925(4) 1.1017(3)
H23B H 0.4045 0.3324 1.0941
C24B C 0.4100(2) 0.2874(3) 0.7207(4)
H24B H 0.4029 0.3346 0.7164
C25B C 0.3684(6) 0.1690(8) 0.8322(8)
H25B H 0.3821 0.1363 0.8231
C26B C 0.3741(6) 0.1709(8) 0.8905(9)
H26B H 0.3932 0.1405 0.9288
C27B C 0.3938(8) 0.1818(6) 0.6973(15)
H27B H 0.3777 0.1393 0.6822
C28B C 0.4330(8) 0.1979(8) 0.7054(18)
H28B H 0.4470 0.1688 0.6943
C29B C 0.4712(5) 0.2089(5) 1.1550(7)
H29B H 0.4975 0.1811 1.1902
C30B C 0.4331(5) 0.1872(7) 1.0873(7)
H30B H 0.4276 0.1425 1.0693
N21 N 0.5210(4) 0.3373(6) 0.5354(6)
O1 O 0.5912(4) 0.4037(5) 0.6064(5)
C37 C 0.5659(5) 0.3588(7) 0.6042(8)
H37 H 0.5757 0.3397 0.6455
C38 C 0.4958(9) 0.2749(9) 0.5350(13)
H38 H 0.4630 0.2702 0.4892
H39 H 0.5136 0.2325 0.5450
C39 C 0.510(2) 0.4131(10) 0.519(2)
H40 H 0.4865 0.4304 0.5211
H41 H 0.5386 0.4426 0.5460
C40 C 0.4892(12) 0.3973(14) 0.4466(18)
H42 H 0.4742 0.4384 0.4179
H43 H 0.4652 0.3612 0.4265
H44 H 0.5145 0.3820 0.4485
C41 C 0.495(2) 0.288(2) 0.591(3)
H45 H 0.4779 0.2504 0.5919
H46 H 0.4777 0.3308 0.5812
H47 H 0.5272 0.2912 0.6363
loop_
_geom_bond_atom_site_label_1
_geom_bond_atom_site_label_2
_geom_bond_site_symmetry_1
_geom_bond_site_symmetry_2
Zn1 N1 1_555 1_555
Zn2 N3 1_555 1_555
Zn3 N5 1_555 1_555
Zn4 N8 1_555 1_555
Zn5 N10 1_555 1_555
Zn6 N16 1_555 1_555
N1 C22 1_555 1_555
N2 C1 1_555 1_555
N3 C1 1_555 1_555
N4 Zn2 1_555 1_555
N5 C4 1_555 1_555
N6 Zn2 1_555 1_555
N7 C7 1_555 1_555
N8 C24 1_555 1_555
N9 Zn4 1_555 1_555
N10 C10 1_555 1_555
N11 C13 1_555 1_555
N12 Zn1 1_555 1_555
N13 C16 1_555 1_555
N14 Zn2 1_555 1_555
N15 Zn5 1_555 1_555
N16 C19 1_555 1_555
N17 C23 1_555 1_555
C1 H1 1_555 1_555
C2 N2 1_555 1_555
H2 C2 1_555 1_555
C3 N3 1_555 1_555
H3 C3 1_555 1_555
C4 N4 1_555 1_555
H4 C4 1_555 1_555
C5 N4 1_555 1_555
H5 C5 1_555 1_555
C6 N5 1_555 1_555
H6 C6 1_555 1_555
C7 N6 1_555 1_555
H7 C7 1_555 1_555
C8 N6 1_555 1_555
H8 C8 1_555 1_555
C9 N7 1_555 1_555
H9 C9 1_555 1_555
C10 N9 1_555 1_555
H10 C10 1_555 1_555
C11 N10 1_555 1_555
H11 C11 1_555 1_555
C12 N9 1_555 1_555
H12 C12 1_555 1_555
C13 N12 1_555 1_555
H13 C13 1_555 1_555
C14 N11 1_555 1_555
H14 C14 1_555 1_555
C15 N12 1_555 1_555
H15 C15 1_555 1_555
C16 N14 1_555 1_555
H16 C16 1_555 1_555
C17 N13 1_555 1_555
H17 C17 1_555 1_555
C18 N14 1_555 1_555
H18 C18 1_555 1_555
C19 N15 1_555 1_555
H19 C19 1_555 1_555
C20 N15 1_555 1_555
H20 C20 1_555 1_555
C21 N16 1_555 1_555
H21 C21 1_555 1_555
N18 Zn4 1_555 1_555
N19 Zn3 1_555 1_555
N20 Zn1 1_555 1_555
C22 N18 1_555 1_555
H22 C22 1_555 1_555
C23 N20 1_555 1_555
H23 C23 1_555 1_555
C24 N19 1_555 1_555
H24 C24 1_555 1_555
C25 N18 1_555 1_555
H25 C25 1_555 1_555
C26 N1 1_555 1_555
H26 C26 1_555 1_555
C27 N8 1_555 1_555
H27 C27 1_555 1_555
C28 N19 1_555 1_555
H28 C28 1_555 1_555
C29 N17 1_555 1_555
H29 C29 1_555 1_555
C30 N20 1_555 1_555
H30 C30 1_555 1_555
N21 C37 1_555 1_555
O1 C37 1_555 1_555
C37 H37 1_555 1_555
C38 N21 1_555 1_555
H38 C38 1_555 1_555
H39 C38 1_555 1_555
C39 N21 1_555 1_555
H40 C39 1_555 1_555
H41 C39 1_555 1_555
C40 C39 1_555 1_555
H42 C40 1_555 1_555
H43 C40 1_555 1_555
H44 C40 1_555 1_555
C41 C38 1_555 1_555
H45 C41 1_555 1_555
H46 C41 1_555 1_555
H47 C41 1_555 1_555
Zn1B N1B 1_555 1_555
Zn1D N2 1_555 1_555
Zn1F N2B 1_555 1_555
Zn1C N12C 1_555 1_555
Zn2B N3B 1_555 1_555
Zn2G N6G 1_555 1_555
Zn4B N7E 1_555 1_555
Zn4G N7 1_555 1_555
Zn5B N10B 1_555 1_555
Zn5C N11 1_555 1_555
Zn5D N13 1_555 1_555
Zn5F N13B 1_555 1_555
Zn6F N17 1_555 1_555
Zn6F_2 N17B 1_555 1_555
N1B C22B 1_555 1_555
N2B C1B 1_555 1_555
N2D Zn1 1_555 1_555
N2F Zn1B 1_555 1_555
N3B C1B 1_555 1_555
N4B Zn2B 1_555 1_555
N5B Zn3 1_555 1_555
N6G C7G 1_555 1_555
N6B Zn2B 1_555 1_555
N7G Zn4 1_555 1_555
N8B Zn4B 1_555 1_555
N9B Zn4B 1_555 1_555
N10B C10B 1_555 1_555
N11C Zn5 1_555 1_555
N11A Zn5B 1_555 1_555
N12C C13C 1_555 1_555
N12B Zn1B 1_555 1_555
N13B C16B 1_555 1_555
N13D Zn5 1_555 1_555
N13F Zn5B 1_555 1_555
N14B Zn2B 1_555 1_555
N15B Zn5B 1_555 1_555
N16B Zn6 1_555 1_555
N17B C23B 1_555 1_555
N17F Zn6 1_555 1_555
N17D Zn6 1_555 1_555
C1B H1B 1_555 1_555
C2B N2B 1_555 1_555
H2B C2B 1_555 1_555
C3B N3B 1_555 1_555
H3B C3B 1_555 1_555
C4B N4B 1_555 1_555
H4B C4B 1_555 1_555
C5B N4B 1_555 1_555
H5B C5B 1_555 1_555
C6B N5B 1_555 1_555
H6B C6B 1_555 1_555
C7G N7G 1_555 1_555
H7G C7G 1_555 1_555
C8G N6G 1_555 1_555
H8G C8G 1_555 1_555
C9G N7G 1_555 1_555
H9G C9G 1_555 1_555
C10B N9B 1_555 1_555
H10B C10B 1_555 1_555
C11B N10B 1_555 1_555
H11B C11B 1_555 1_555
C12B N9B 1_555 1_555
H12B C12B 1_555 1_555
C13C N11C 1_555 1_555
H13C C13C 1_555 1_555
C14C N11C 1_555 1_555
H14C C14C 1_555 1_555
C15C N12C 1_555 1_555
H15C C15C 1_555 1_555
C16B N14B 1_555 1_555
H16B C16B 1_555 1_555
C17B N13B 1_555 1_555
H17B C17B 1_555 1_555
C18B N14B 1_555 1_555
H18B C18B 1_555 1_555
C19B N15B 1_555 1_555
H19B C19B 1_555 1_555
C20B N15B 1_555 1_555
H20B C20B 1_555 1_555
C21B N16B 1_555 1_555
H21B C21B 1_555 1_555
N18B Zn4B 1_555 1_555
N19B Zn3 1_555 1_555
N20B Zn1B 1_555 1_555
C22B N18B 1_555 1_555
H22B C22B 1_555 1_555
C23B N20B 1_555 1_555
H23B C23B 1_555 1_555
C24B N8B 1_555 1_555
H24B C24B 1_555 1_555
C25B N18B 1_555 1_555
H25B C25B 1_555 1_555
C26B N1B 1_555 1_555
H26B C26B 1_555 1_555
C27B N8B 1_555 1_555
H27B C27B 1_555 1_555
C28B N19B 1_555 1_555
H28B C28B 1_555 1_555
C29B N17B 1_555 1_555
H29B C29B 1_555 1_555
C30B N20B 1_555 1_555
H30B C30B 1_555 1_555
C2 C3 1_555 1_555
C5 C6 1_555 1_555
C8 C9 1_555 1_555
C11 C12 1_555 1_555
C14 C15 1_555 1_555
C17 C18 1_555 1_555
C20 C21 1_555 1_555
C25 C26 1_555 1_555
C27 C28 1_555 1_555
C29 C30 1_555 1_555
N5B C4B 1_555 1_555
N16B C19B 1_555 1_555
C2B C3B 1_555 1_555
C5B C6B 1_555 1_555
C8G C9G 1_555 1_555
C11B C12B 1_555 1_555
C14C C15C 1_555 1_555
C17B C18B 1_555 1_555
C20B C21B 1_555 1_555
N19B C24B 1_555 1_555
C25B C26B 1_555 1_555
C27B C28B 1_555 1_555
C29B C30B 1_555 1_555

#END
