
#######################################################################
#
#                 Cambridge Crystallographic Data Centre
#                                CCDC 
#
#######################################################################
#
# If this CIF has been generated from an entry in the Cambridge 
# Structural Database, then it will include bibliographic, chemical, 
# crystal, experimental, refinement or atomic coordinate data resulting 
# from the CCDC's data processing and validation procedures.
#
#######################################################################

data_ATUXIY
_chemical_formula_moiety         'C34 H14 Eu12 O37'
_symmetry_cell_setting           monoclinic
_symmetry_space_group_name_H-M   'C 2/c'
_symmetry_Int_Tables_number      15
_space_group_name_Hall           '-C 2yc'
loop_
_symmetry_equiv_pos_site_id
_symmetry_equiv_pos_as_xyz
1 x,y,z
2 -x,y,1/2-z
3 1/2+x,1/2+y,z
4 1/2-x,1/2+y,1/2-z
5 -x,-y,-z
6 x,-y,1/2+z
7 1/2-x,1/2-y,-z
8 1/2+x,1/2-y,1/2+z
_cell_length_a                   23.0599(17)
_cell_length_b                   11.0050(8)
_cell_length_c                   20.9497(16)
_cell_angle_alpha                90
_cell_angle_beta                 106.369(2)
_cell_angle_gamma                90
_cell_volume                     5101
loop_
_atom_site_label
_atom_site_type_symbol
_atom_site_fract_x
_atom_site_fract_y
_atom_site_fract_z
Eu1 Eu 0.5000 0.63879(6) 0.7500
Eu2 Eu 0.64038(2) 0.82025(4) 0.85820(2)
O1 O 0.8154(3) 0.3914(6) 0.9703(3)
O2 O 0.9073(2) 0.2319(6) 0.7579(3)
O3 O 0.8803(4) 0.4215(6) 0.7523(3)
O4 O 1.0760(3) 0.3233(6) 0.9338(3)
O5 O 1.0259(3) 0.3093(5) 0.8280(3)
O6 O 0.6161(2) 0.0356(5) 0.8683(3)
O7 O 0.7116(3) -0.0084(6) 0.8774(4)
O8 O 0.5688(3) 0.4781(6) 0.7923(3)
O9 O 0.6197(3) 0.6118(6) 0.8671(4)
O10 O 0.7091(3) 0.7736(8) 0.9606(3)
O11 O 0.4802(4) 0.5584(7) 0.8476(4)
O12 O 0.7211(3) 0.7387(7) 0.8216(4)
C1 C 0.8648(4) 0.3677(9) 0.9474(5)
C2 C 0.8594(4) 0.3555(9) 0.8808(4)
H1 H 0.8207 0.3576 0.8492
C3 C 0.9121(4) 0.3396(8) 0.8597(4)
C4 C 0.9689(4) 0.3342(8) 0.9059(4)
C5 C 0.9708(4) 0.3541(9) 0.9736(4)
H2 H 1.0093 0.3572 1.0056
C6 C 0.9206(4) 0.3691(9) 0.9954(4)
H3 H 0.9236 0.3799 1.0412
C7 C 0.9003(4) 0.3320(9) 0.7853(5)
C8 C 1.0266(4) 0.3208(8) 0.8893(4)
C9 C 0.7584(4) 0.3557(8) 0.9302(4)
C10 C 0.7450(4) 0.2357(8) 0.9194(4)
H4 H 0.7758 0.1765 0.9345
C11 C 0.6862(4) 0.1992(7) 0.8864(4)
C12 C 0.6428(4) 0.2872(8) 0.8622(4)
H5 H 0.6025 0.2644 0.8395
C13 C 0.6587(4) 0.4109(8) 0.8715(4)
C14 C 0.7160(4) 0.4450(8) 0.9077(4)
H6 H 0.7259 0.5282 0.9169
C15 C 0.6707(4) 0.0701(8) 0.8783(4)
C16 C 0.6124(4) 0.5079(9) 0.8423(5)
C17 C 0.7667(8) 0.7763(18) 0.9816(9)
H7 H 0.7912 0.8131 0.9567
O10F O 0.7909(3) 0.7264(8) 1.0394(3)
C17F C 0.7333(8) 0.7237(18) 1.0184(9)
H7F H 0.7088 0.6869 1.0433
Eu2A Eu 0.35962(2) 0.82025(4) 0.64180(2)
O1A O 0.1846(3) 0.3914(6) 0.5297(3)
O2A O 0.0927(2) 0.2319(6) 0.7421(3)
O3A O 0.1197(4) 0.4215(6) 0.7477(3)
O4A O -0.0760(3) 0.3233(6) 0.5662(3)
O5A O -0.0259(3) 0.3093(5) 0.6720(3)
O6A O 0.3839(2) 0.0356(5) 0.6317(3)
O7A O 0.2884(3) -0.0084(6) 0.6226(4)
O8A O 0.4312(3) 0.4781(6) 0.7077(3)
O9A O 0.3803(3) 0.6118(6) 0.6329(4)
O11A O 0.5198(4) 0.5584(7) 0.6524(4)
O12A O 0.2789(3) 0.7387(7) 0.6784(4)
C1A C 0.1352(4) 0.3677(9) 0.5526(5)
C2A C 0.1406(4) 0.3555(9) 0.6192(4)
H1A H 0.1793 0.3576 0.6508
C3A C 0.0879(4) 0.3396(8) 0.6403(4)
C4A C 0.0311(4) 0.3342(8) 0.5941(4)
C5A C 0.0292(4) 0.3541(9) 0.5264(4)
H2A H -0.0093 0.3572 0.4944
C6A C 0.0794(4) 0.3691(9) 0.5046(4)
H3A H 0.0764 0.3799 0.4588
C7A C 0.0997(4) 0.3320(9) 0.7147(5)
C8A C -0.0266(4) 0.3208(8) 0.6107(4)
C9A C 0.2416(4) 0.3557(8) 0.5698(4)
C10A C 0.2550(4) 0.2357(8) 0.5806(4)
H4A H 0.2242 0.1765 0.5655
C11A C 0.3138(4) 0.1992(7) 0.6136(4)
C12A C 0.3572(4) 0.2872(8) 0.6378(4)
H5A H 0.3975 0.2644 0.6605
C13A C 0.3413(4) 0.4109(8) 0.6285(4)
C14A C 0.2840(4) 0.4450(8) 0.5923(4)
H6A H 0.2741 0.5282 0.5831
C15A C 0.3293(4) 0.0701(8) 0.6217(4)
C16A C 0.3876(4) 0.5079(9) 0.6577(5)
Eu1B Eu 0.0000 0.13879(6) 0.7500
Eu1B_2 Eu 1.0000 0.13879(6) 0.7500
Eu2_2 Eu 0.64038(2) -0.17975(4) 0.85820(2)
Eu2A_2 Eu 0.35962(2) -0.17975(4) 0.64180(2)
Eu2B Eu 0.14038(2) 0.32025(4) 0.85820(2)
Eu2B_2 Eu 1.14038(2) 0.32025(4) 0.85820(2)
Eu2C Eu -0.14038(2) 0.32025(4) 0.64180(2)
Eu2C_2 Eu 0.85962(2) 0.32025(4) 0.64180(2)
Eu2F Eu 0.85962(2) 0.67975(4) 1.14180(2)
O2B O 0.4073(2) 0.7319(6) 0.7579(3)
O2C O 0.5927(2) 0.7319(6) 0.7421(3)
O3B O 0.3803(4) 0.9215(6) 0.7523(3)
O3C O 0.6197(4) 0.9215(6) 0.7477(3)
O4B O 0.5760(3) 0.8233(6) 0.9338(3)
O4C O 0.4240(3) 0.8233(6) 0.5662(3)
O5B O 0.5259(3) 0.8093(5) 0.8280(3)
O5C O 0.4741(3) 0.8093(5) 0.6720(3)
O6_2 O 0.6161(2) 1.0356(5) 0.8683(3)
O6A_2 O 0.3839(2) 1.0356(5) 0.6317(3)
O7_2 O 0.7116(3) 0.9916(6) 0.8774(4)
O7A_2 O 0.2884(3) 0.9916(6) 0.6226(4)
O10A O 0.2909(3) 0.7736(8) 0.5394(3)
loop_
_geom_bond_atom_site_label_1
_geom_bond_atom_site_label_2
_geom_bond_site_symmetry_1
_geom_bond_site_symmetry_2
Eu1 O8 1_555 1_555
Eu2 O9 1_555 1_555
O1 C1 1_555 1_555
O2 C7 1_555 1_555
O3 C7 1_555 1_555
O4 C8 1_555 1_555
O5 C8 1_555 1_555
O6 C15 1_555 1_555
O7 C15 1_555 1_555
O8 C16 1_555 1_555
O9 C16 1_555 1_555
O10 Eu2 1_555 1_555
O11 Eu1 1_555 1_555
O12 Eu2 1_555 1_555
C1 C2 1_555 1_555
C2 H1 1_555 1_555
C3 C2 1_555 1_555
C4 C3 1_555 1_555
C5 C4 1_555 1_555
H2 C5 1_555 1_555
C6 C1 1_555 1_555
H3 C6 1_555 1_555
C7 C3 1_555 1_555
C8 C4 1_555 1_555
C9 O1 1_555 1_555
C10 C9 1_555 1_555
H4 C10 1_555 1_555
C11 C10 1_555 1_555
C12 C11 1_555 1_555
H5 C12 1_555 1_555
C13 C12 1_555 1_555
C14 C9 1_555 1_555
H6 C14 1_555 1_555
C15 C11 1_555 1_555
C16 C13 1_555 1_555
C17 O10 1_555 1_555
H7 C17 1_555 1_555
O10F C17 1_555 1_555
C17F O10 1_555 1_555
H7F C17F 1_555 1_555
Eu2A O9A 1_555 1_555
O1A C1A 1_555 1_555
O2A C7A 1_555 1_555
O3A C7A 1_555 1_555
O4A C8A 1_555 1_555
O5A C8A 1_555 1_555
O6A C15A 1_555 1_555
O7A C15A 1_555 1_555
O8A Eu1 1_555 1_555
O9A C16A 1_555 1_555
O11A Eu1 1_555 1_555
O12A Eu2A 1_555 1_555
C1A C2A 1_555 1_555
C2A H1A 1_555 1_555
C3A C2A 1_555 1_555
C4A C3A 1_555 1_555
C5A C4A 1_555 1_555
H2A C5A 1_555 1_555
C6A C1A 1_555 1_555
H3A C6A 1_555 1_555
C7A C3A 1_555 1_555
C8A C4A 1_555 1_555
C9A O1A 1_555 1_555
C10A C9A 1_555 1_555
H4A C10A 1_555 1_555
C11A C10A 1_555 1_555
C12A C11A 1_555 1_555
H5A C12A 1_555 1_555
C13A C12A 1_555 1_555
C14A C9A 1_555 1_555
H6A C14A 1_555 1_555
C15A C11A 1_555 1_555
C16A O8A 1_555 1_555
Eu1B O2A 1_555 1_555
Eu1B_2 O2 1_555 1_555
Eu2_2 O6 1_555 1_555
Eu2A_2 O6A 1_555 1_555
Eu2B O2A 1_555 1_555
Eu2B_2 O4 1_555 1_555
Eu2C O4A 1_555 1_555
Eu2C_2 O2 1_555 1_555
Eu2F O10F 1_555 1_555
O2B Eu1 1_555 1_555
O2C Eu1 1_555 1_555
O3B Eu2A 1_555 1_555
O3C Eu2 1_555 1_555
O4B Eu2 1_555 1_555
O4C Eu2A 1_555 1_555
O5B Eu1 1_555 1_555
O5C Eu1 1_555 1_555
O6_2 Eu2 1_555 1_555
O6A_2 Eu2A 1_555 1_555
O7_2 Eu2 1_555 1_555
O7A_2 Eu2A 1_555 1_555
O10A Eu2A 1_555 1_555
Eu2 O2C 1_555 1_555
Eu2 O5B 1_555 1_555
O3 Eu2C_2 1_555 1_555
O5 Eu1B_2 1_555 1_555
O5 Eu2B_2 1_555 1_555
O7 Eu2_2 1_555 1_555
C5 C6 1_555 1_555
C13 C14 1_555 1_555
C17 C17F 1_555 1_555
O10F C17F 1_555 1_555
Eu2A O2B 1_555 1_555
Eu2A O5C 1_555 1_555
O3A Eu2B 1_555 1_555
O5A Eu1B 1_555 1_555
O5A Eu2C 1_555 1_555
O7A Eu2A_2 1_555 1_555
C5A C6A 1_555 1_555
C13A C14A 1_555 1_555
C13A C16A 1_555 1_555

#END
