
#######################################################################
#
#                 Cambridge Crystallographic Data Centre
#                                CCDC 
#
#######################################################################
#
# If this CIF has been generated from an entry in the Cambridge 
# Structural Database, then it will include bibliographic, chemical, 
# crystal, experimental, refinement or atomic coordinate data resulting 
# from the CCDC's data processing and validation procedures.
#
#######################################################################

data_IZEHAX
_chemical_formula_moiety         '(C8 H20 Cd3 Cl2 N20 O2)n'
_symmetry_cell_setting           monoclinic
_symmetry_space_group_name_H-M   'P 21/c'
_symmetry_Int_Tables_number      14
_space_group_name_Hall           '-P 2ybc'
loop_
_symmetry_equiv_pos_site_id
_symmetry_equiv_pos_as_xyz
1 x,y,z
2 -x,1/2+y,1/2-z
3 -x,-y,-z
4 x,1/2-y,1/2+z
_cell_length_a                   9.3454(8)
_cell_length_b                   12.7817(13)
_cell_length_c                   13.4870(14)
_cell_angle_alpha                90
_cell_angle_beta                 132.955(6)
_cell_angle_gamma                90
_cell_volume                     1179.09
loop_
_atom_site_label
_atom_site_type_symbol
_atom_site_fract_x
_atom_site_fract_y
_atom_site_fract_z
Cd1 Cd -0.5000 -0.5000 0.0000
Cl1 Cl -0.7797(2) -0.45728(9) -0.00099(14)
O1 O -0.7005(8) -0.0681(4) -0.0243(6)
N1 N -0.2628(7) -0.7158(4) 0.3399(5)
C1 C -0.2064(9) -0.7651(4) 0.2842(6)
Cd2 Cd -0.74937(6) -0.25382(3) -0.01261(4)
N2 N -0.3592(7) -0.6302(3) 0.2630(5)
C2 C -0.7483(8) -0.7833(5) -0.2508(6)
N3 N -0.3588(7) -0.6286(3) 0.1675(4)
C3 C -0.8047(14) 0.0193(6) -0.0359(10)
H1 H -0.8794 -0.0036 -0.0122
H2 H -0.9005 0.0418 -0.1319
N4 N -0.2628(7) -0.7135(3) 0.1767(4)
C4 C -0.6880(16) 0.1088(7) 0.0466(12)
H3 H -0.6035 0.0903 0.1426
H4 H -0.7741 0.1667 0.0251
H5 H -0.6071 0.1301 0.0284
N5 N -0.1087(11) -0.8578(5) 0.3286(7)
H6 H -0.0790 -0.8872 0.2855
H7 H -0.0751 -0.8884 0.4004
N6 N -0.9155(7) -0.7314(4) -0.3119(5)
N7 N -0.8590(7) -0.6401(3) -0.2450(5)
N8 N -0.6710(6) -0.6372(3) -0.1511(5)
N9 N -0.5942(7) -0.7264(3) -0.1508(5)
N10 N -0.7372(9) -0.8807(5) -0.2837(8)
H9 H -0.6225 -0.9107 -0.2378
H10 H -0.8447 -0.9143 -0.3510
Cl1B Cl -0.2203(2) -0.54272(9) 0.00099(14)
O1B O -0.2995(8) -0.9319(4) 0.0243(6)
N1B N -0.7372(7) -0.2842(4) -0.3399(5)
N1A N -0.7372(7) -0.2158(4) 0.1601(5)
N1C N -0.2628(7) -0.7842(4) -0.1601(5)
C1B C -0.7936(9) -0.2349(4) -0.2842(6)
Cd2B Cd -0.25063(6) -0.74618(3) 0.01261(4)
Cd2A Cd -0.25063(6) -0.75382(3) 0.51261(4)
Cd2A_2 Cd -1.25063(6) -0.75382(3) -0.48739(4)
Cd2C Cd -0.74937(6) -0.24618(3) -0.51261(4)
Cd2C_2 Cd 0.25063(6) -0.24618(3) 0.48739(4)
N2B N -0.6408(7) -0.3698(3) -0.2630(5)
C2B C -0.2517(8) -0.2167(5) 0.2508(6)
N3B N -0.6412(7) -0.3714(3) -0.1675(4)
C3B C -0.1953(14) -1.0193(6) 0.0359(10)
H1B H -0.1206 -0.9964 0.0122
H2B H -0.0995 -1.0418 0.1319
N4B N -0.7372(7) -0.2865(3) -0.1767(4)
C4B C -0.3120(16) -1.1088(7) -0.0466(12)
H3B H -0.3965 -1.0903 -0.1426
H4B H -0.2259 -1.1667 -0.0251
H5B H -0.3929 -1.1301 -0.0284
N5B N -0.8913(11) -0.1422(5) -0.3286(7)
H6B H -0.9210 -0.1128 -0.2855
H7B H -0.9249 -0.1116 -0.4004
N6B N -0.0845(7) -0.2686(4) 0.3119(5)
N6A N -1.0845(7) -0.2314(4) -0.1881(5)
N6C N 0.0845(7) -0.7686(4) 0.1881(5)
N7B N -0.1410(7) -0.3599(3) 0.2450(5)
N8B N -0.3290(6) -0.3628(3) 0.1511(5)
N9B N -0.4058(7) -0.2736(3) 0.1508(5)
N10B N -0.2628(9) -0.1193(5) 0.2837(8)
H9B H -0.3775 -0.0893 0.2378
H10B H -0.1553 -0.0857 0.3510
loop_
_geom_bond_atom_site_label_1
_geom_bond_atom_site_label_2
_geom_bond_site_symmetry_1
_geom_bond_site_symmetry_2
Cd1 Cl1 1_555 1_555
Cl1 Cd2 1_555 1_555
O1 Cd2 1_555 1_555
N1 C1 1_555 1_555
C1 N4 1_555 1_555
Cd2 N1A 1_555 1_555
N2 N1 1_555 1_555
C2 N6 1_555 1_555
N3 Cd1 1_555 1_555
C3 O1 1_555 1_555
H1 C3 1_555 1_555
H2 C3 1_555 1_555
N4 N3 1_555 1_555
C4 C3 1_555 1_555
H3 C4 1_555 1_555
H4 C4 1_555 1_555
H5 C4 1_555 1_555
N5 C1 1_555 1_555
H6 N5 1_555 1_555
H7 N5 1_555 1_555
N6 N7 1_555 1_555
N7 N8 1_555 1_555
N8 Cd1 1_555 1_555
N9 C2 1_555 1_555
N10 C2 1_555 1_555
H9 N10 1_555 1_555
H10 N10 1_555 1_555
Cl1B Cd1 1_555 1_555
O1B Cd2B 1_555 1_555
N1B C1B 1_555 1_555
N1C Cd2B 1_555 1_555
C1B N4B 1_555 1_555
Cd2B N4 1_555 1_555
Cd2A N1 1_555 1_555
Cd2A_2 N6 1_555 1_555
Cd2C N1B 1_555 1_555
Cd2C_2 N6B 1_555 1_555
N2B N1B 1_555 1_555
C2B N6B 1_555 1_555
N3B Cd1 1_555 1_555
C3B O1B 1_555 1_555
H1B C3B 1_555 1_555
H2B C3B 1_555 1_555
N4B Cd2 1_555 1_555
C4B C3B 1_555 1_555
H3B C4B 1_555 1_555
H4B C4B 1_555 1_555
H5B C4B 1_555 1_555
N5B C1B 1_555 1_555
H6B N5B 1_555 1_555
H7B N5B 1_555 1_555
N6B N7B 1_555 1_555
N6A Cd2 1_555 1_555
N6C Cd2B 1_555 1_555
N7B N8B 1_555 1_555
N8B Cd1 1_555 1_555
N9B Cd2 1_555 1_555
N10B C2B 1_555 1_555
H9B N10B 1_555 1_555
H10B N10B 1_555 1_555
N2 N3 1_555 1_555
N8 N9 1_555 1_555
N9 Cd2B 1_555 1_555
Cl1B Cd2B 1_555 1_555
N2B N3B 1_555 1_555
C2B N9B 1_555 1_555
N3B N4B 1_555 1_555
N8B N9B 1_555 1_555

#END
