
#######################################################################
#
#                 Cambridge Crystallographic Data Centre
#                                CCDC 
#
#######################################################################
#
# If this CIF has been generated from an entry in the Cambridge 
# Structural Database, then it will include bibliographic, chemical, 
# crystal, experimental, refinement or atomic coordinate data resulting 
# from the CCDC's data processing and validation procedures.
#
#######################################################################

data_YUZXAT
_chemical_formula_moiety         '(C41 H38 N4 O15 Zn2)n'
_symmetry_cell_setting           monoclinic
_symmetry_space_group_name_H-M   'C 2/c'
_symmetry_Int_Tables_number      15
_space_group_name_Hall           '-C 2yc'
loop_
_symmetry_equiv_pos_site_id
_symmetry_equiv_pos_as_xyz
1 x,y,z
2 -x,y,1/2-z
3 1/2+x,1/2+y,z
4 1/2-x,1/2+y,1/2-z
5 -x,-y,-z
6 x,-y,1/2+z
7 1/2-x,1/2-y,-z
8 1/2+x,1/2-y,1/2+z
_cell_length_a                   9.3402(10)
_cell_length_b                   25.842(3)
_cell_length_c                   20.090(2)
_cell_angle_alpha                90
_cell_angle_beta                 101.431(1)
_cell_angle_gamma                90
_cell_volume                     4752.93
loop_
_atom_site_label
_atom_site_type_symbol
_atom_site_fract_x
_atom_site_fract_y
_atom_site_fract_z
C1 C 1.0218(3) 1.04271(13) 0.91978(18)
H1 H 0.9545 1.0645 0.9340
C2 C 0.9710(4) 0.99984(13) 0.8830(2)
H2 H 0.8713 0.9931 0.8719
C3 C 1.0692(3) 0.96671(10) 0.86262(14)
C4 C 1.2186(3) 0.97763(10) 0.88084(15)
H3 H 1.2879 0.9554 0.8690
C5 C 1.2595(3) 1.02239(11) 0.91689(15)
H4 H 1.3584 1.0304 0.9283
C6 C 1.1037(3) 0.88941(10) 0.80004(15)
H5 H 1.1588 0.8689 0.8368
H6 H 1.1718 0.9072 0.7772
C7 C 1.0000 0.85504(13) 0.7500
C8 C 0.9067(3) 0.82177(10) 0.78661(14)
H7 H 0.8687 0.8423 0.8196
H8 H 0.8250 0.8075 0.7544
C9 C 0.7581(4) 0.71910(12) 0.91907(18)
H9 H 0.6763 0.7269 0.9371
C10 C 0.8119(3) 0.75694(11) 0.88261(17)
H10 H 0.7665 0.7891 0.8759
C11 C 0.9317(3) 0.74668(10) 0.85673(14)
C12 C 0.9970(4) 0.69813(12) 0.86822(19)
H11 H 1.0793 0.6902 0.8506
C13 C 0.9405(3) 0.66285(12) 0.90480(17)
H12 H 0.9875 0.6311 0.9132
C14 C 0.9282(3) 1.15765(10) 1.00410(14)
C15 C 0.7190(3) 1.20660(11) 1.03586(16)
H13 H 0.6977 1.1778 1.0599
C16 C 0.8356(3) 1.20559(11) 1.00131(14)
C17 C 0.8637(3) 1.24893(10) 0.96650(14)
H14 H 0.9412 1.2483 0.9437
C18 C 1.3819(3) 1.08504(12) 1.10553(15)
C19 C 1.4713(3) 1.13248(11) 1.21553(15)
H15 H 1.4503 1.1637 1.1926
C20 C 1.4449(3) 1.08587(11) 1.18039(14)
C21 C 1.4743(4) 1.03846(12) 1.21470(15)
H16 H 1.4598 1.0074 1.1909
N1 N 1.1636(3) 1.05514(8) 0.93645(12)
N2 N 0.8169(3) 0.67125(8) 0.93041(12)
O1 O 1.0116(2) 0.92589(8) 0.82555(11)
O2 O 0.9972(2) 0.78097(7) 0.81996(10)
O3 O 1.0426(2) 1.16308(7) 0.97964(11)
O4 O 0.8909(2) 1.11706(8) 1.02824(11)
O5 O 1.3235(2) 1.12623(8) 1.08037(11)
O6 O 1.3921(4) 1.04572(11) 1.07168(14)
Zn1 Zn 1.21952(3) 1.121706(11) 0.986398(15)
C1A C 0.9782(3) 1.04271(13) 0.58022(18)
H1A H 1.0455 1.0645 0.5660
C2A C 1.0290(4) 0.99984(13) 0.6170(2)
H2A H 1.1287 0.9931 0.6281
C3A C 0.9308(3) 0.96671(10) 0.63738(14)
C4A C 0.7814(3) 0.97763(10) 0.61916(15)
H3A H 0.7121 0.9554 0.6310
C5A C 0.7405(3) 1.02239(11) 0.58311(15)
H4A H 0.6416 1.0304 0.5717
C6A C 0.8963(3) 0.88941(10) 0.69996(15)
H5A H 0.8412 0.8689 0.6632
H6A H 0.8282 0.9072 0.7228
C8A C 1.0933(3) 0.82177(10) 0.71339(14)
H7A H 1.1313 0.8423 0.6804
H8A H 1.1750 0.8075 0.7456
C9A C 1.2419(4) 0.71910(12) 0.58093(18)
H9A H 1.3237 0.7269 0.5629
C10A C 1.1881(3) 0.75694(11) 0.61739(17)
H10A H 1.2335 0.7891 0.6241
C11A C 1.0683(3) 0.74668(10) 0.64327(14)
C12A C 1.0030(4) 0.69813(12) 0.63178(19)
H11A H 0.9207 0.6902 0.6494
C13A C 1.0595(3) 0.66285(12) 0.59520(17)
H12A H 1.0125 0.6311 0.5868
C14F C 0.5718(3) 1.34235(10) 0.99590(14)
C15F C 0.7810(3) 1.29340(11) 0.96414(16)
H13F H 0.8023 1.3222 0.9401
C16F C 0.6644(3) 1.29441(11) 0.99869(14)
C17F C 0.6363(3) 1.25107(10) 1.03350(14)
H14F H 0.5588 1.2517 1.0563
C18A C 1.6181(3) 1.08504(12) 1.39447(15)
C19A C 1.5287(3) 1.13248(11) 1.28447(15)
H15A H 1.5497 1.1637 1.3074
C20A C 1.5551(3) 1.08587(11) 1.31961(14)
C21A C 1.5257(4) 1.03846(12) 1.28530(15)
H16A H 1.5402 1.0074 1.3091
N1A N 0.8364(3) 1.05514(8) 0.56355(12)
N2A N 1.1831(3) 0.67125(8) 0.56959(12)
N2B N 1.3169(3) 1.17125(8) 0.93041(12)
N2C N 0.6831(3) 1.17125(8) 0.56959(12)
O1A O 0.9884(2) 0.92589(8) 0.67445(11)
O2A O 1.0028(2) 0.78097(7) 0.68004(10)
O3F O 0.4574(2) 1.33692(7) 1.02036(11)
O3A O 0.9574(2) 1.16308(7) 0.52036(11)
O4F O 0.6091(2) 1.38294(8) 0.97176(11)
O5A O 1.6765(2) 1.12623(8) 1.41963(11)
O5A_2 O 0.6765(2) 1.12623(8) 0.41963(11)
O6A O 1.6079(4) 1.04572(11) 1.42832(14)
Zn1A Zn 0.78048(3) 1.121706(11) 0.513602(15)
Zn1B Zn 0.71952(3) 0.621706(11) 0.986398(15)
Zn1C Zn 1.28048(3) 0.621706(11) 0.513602(15)
Zn1F Zn 0.28048(3) 1.378294(11) 1.013602(15)
Zn1A_2 Zn 1.78048(3) 1.121706(11) 1.513602(15)
O7 O 0.0838(8) 0.2476(2) 0.7140(4)
H17 H -0.0023 0.2451 0.6905
H18 H 0.0820 0.2426 0.7556
O8 O 1.0000 0.16345(15) 0.7500
H20 H 1.0377 0.1459 0.7849
H20A H 0.9623 0.1459 0.7151
O9 O 0.6904(9) 0.8960(3) 0.2800(4)
H21 H 0.6691 0.8937 0.2369
H22 H 0.7819 0.9004 0.2927
loop_
_geom_bond_atom_site_label_1
_geom_bond_atom_site_label_2
_geom_bond_site_symmetry_1
_geom_bond_site_symmetry_2
C1 H1 1_555 1_555
C2 C1 1_555 1_555
H2 C2 1_555 1_555
C3 C2 1_555 1_555
C4 C3 1_555 1_555
H3 C4 1_555 1_555
C5 C4 1_555 1_555
H4 C5 1_555 1_555
C6 H5 1_555 1_555
H6 C6 1_555 1_555
C7 C6 1_555 1_555
C8 C7 1_555 1_555
H7 C8 1_555 1_555
H8 C8 1_555 1_555
C9 H9 1_555 1_555
C10 C9 1_555 1_555
H10 C10 1_555 1_555
C11 C10 1_555 1_555
C12 C11 1_555 1_555
H11 C12 1_555 1_555
C13 C12 1_555 1_555
H12 C13 1_555 1_555
C14 C16 1_555 1_555
C15 H13 1_555 1_555
C16 C15 1_555 1_555
C17 C16 1_555 1_555
H14 C17 1_555 1_555
C18 C20 1_555 1_555
C19 H15 1_555 1_555
C20 C19 1_555 1_555
C21 C20 1_555 1_555
H16 C21 1_555 1_555
N1 C1 1_555 1_555
N2 C9 1_555 1_555
O1 C3 1_555 1_555
O2 C8 1_555 1_555
O3 C14 1_555 1_555
O4 C14 1_555 1_555
O5 C18 1_555 1_555
O6 C18 1_555 1_555
O7 H17 1_555 1_555
H18 O7 1_555 1_555
O8 H20 1_555 1_555
O9 H21 1_555 1_555
H22 O9 1_555 1_555
Zn1 N1 1_555 1_555
C1A H1A 1_555 1_555
C2A C1A 1_555 1_555
H2A C2A 1_555 1_555
C3A C2A 1_555 1_555
C4A C3A 1_555 1_555
H3A C4A 1_555 1_555
C5A C4A 1_555 1_555
H4A C5A 1_555 1_555
C6A C7 1_555 1_555
H5A C6A 1_555 1_555
H6A C6A 1_555 1_555
C8A C7 1_555 1_555
H7A C8A 1_555 1_555
H8A C8A 1_555 1_555
C9A H9A 1_555 1_555
C10A C9A 1_555 1_555
H10A C10A 1_555 1_555
C11A C10A 1_555 1_555
C12A C11A 1_555 1_555
H11A C12A 1_555 1_555
C13A C12A 1_555 1_555
H12A C13A 1_555 1_555
C14F C16F 1_555 1_555
C15F C17 1_555 1_555
H13F C15F 1_555 1_555
C16F C15F 1_555 1_555
C17F C15 1_555 1_555
H14F C17F 1_555 1_555
C18A C20A 1_555 1_555
C19A C19 1_555 1_555
H15A C19A 1_555 1_555
C20A C19A 1_555 1_555
C21A C21 1_555 1_555
H16A C21A 1_555 1_555
N1A C1A 1_555 1_555
N2A C9A 1_555 1_555
N2B Zn1 1_555 1_555
N2C Zn1A 1_555 1_555
O1A C3A 1_555 1_555
O2A C8A 1_555 1_555
O3F C14F 1_555 1_555
O3A Zn1A 1_555 1_555
O4F C14F 1_555 1_555
O5A C18A 1_555 1_555
O5A_2 Zn1A 1_555 1_555
O6A C18A 1_555 1_555
H20A O8 1_555 1_555
Zn1A N1A 1_555 1_555
Zn1B N2 1_555 1_555
Zn1C N2A 1_555 1_555
Zn1F O3F 1_555 1_555
Zn1A_2 O5A 1_555 1_555
C5 N1 1_555 1_555
C6 O1 1_555 1_555
C11 O2 1_555 1_555
C13 N2 1_555 1_555
O3 Zn1 1_555 1_555
O5 Zn1 1_555 1_555
C5A N1A 1_555 1_555
C6A O1A 1_555 1_555
C11A O2A 1_555 1_555
C13A N2A 1_555 1_555
C16F C17F 1_555 1_555
C20A C21A 1_555 1_555

#END
