
#######################################################################
#
#                 Cambridge Crystallographic Data Centre
#                                CCDC 
#
#######################################################################
#
# If this CIF has been generated from an entry in the Cambridge 
# Structural Database, then it will include bibliographic, chemical, 
# crystal, experimental, refinement or atomic coordinate data resulting 
# from the CCDC's data processing and validation procedures.
#
#######################################################################

data_ELEREU
_chemical_formula_moiety         'C51 H29 Cu9 N8 O23'
_symmetry_cell_setting           cubic
_symmetry_space_group_name_H-M   'I m -3 m'
_symmetry_Int_Tables_number      229
_space_group_name_Hall           '-I 4 2 3'
loop_
_symmetry_equiv_pos_site_id
_symmetry_equiv_pos_as_xyz
1 x,y,z
2 -y,x,z
3 -x,-y,z
4 y,-x,z
5 x,-y,-z
6 y,x,-z
7 -x,y,-z
8 -y,-x,-z
9 z,x,y
10 -x,z,y
11 -z,-x,y
12 x,-z,y
13 z,-x,-y
14 x,z,-y
15 -z,x,-y
16 -x,-z,-y
17 y,z,x
18 -z,-y,-x
19 -z,y,x
20 z,y,-x
21 z,-y,x
22 y,-z,-x
23 -y,-z,x
24 -y,z,-x
25 1/2+x,1/2+y,1/2+z
26 1/2-y,1/2+x,1/2+z
27 1/2-x,1/2-y,1/2+z
28 1/2+y,1/2-x,1/2+z
29 1/2+x,1/2-y,1/2-z
30 1/2+y,1/2+x,1/2-z
31 1/2-x,1/2+y,1/2-z
32 1/2-y,1/2-x,1/2-z
33 1/2+z,1/2+x,1/2+y
34 1/2-x,1/2+z,1/2+y
35 1/2-z,1/2-x,1/2+y
36 1/2+x,1/2-z,1/2+y
37 1/2+z,1/2-x,1/2-y
38 1/2+x,1/2+z,1/2-y
39 1/2-z,1/2+x,1/2-y
40 1/2-x,1/2-z,1/2-y
41 1/2+y,1/2+z,1/2+x
42 1/2-z,1/2-y,1/2-x
43 1/2-z,1/2+y,1/2+x
44 1/2+z,1/2+y,1/2-x
45 1/2+z,1/2-y,1/2+x
46 1/2+y,1/2-z,1/2-x
47 1/2-y,1/2-z,1/2+x
48 1/2-y,1/2+z,1/2-x
49 -x,-y,-z
50 y,-x,-z
51 x,y,-z
52 -y,x,-z
53 -x,y,z
54 -y,-x,z
55 x,-y,z
56 y,x,z
57 -z,-x,-y
58 x,-z,-y
59 z,x,-y
60 -x,z,-y
61 -z,x,y
62 -x,-z,y
63 z,-x,y
64 x,z,y
65 -y,-z,-x
66 z,y,x
67 z,-y,-x
68 -z,-y,x
69 -z,y,-x
70 -y,z,x
71 y,z,-x
72 y,-z,x
73 1/2-x,1/2-y,1/2-z
74 1/2+y,1/2-x,1/2-z
75 1/2+x,1/2+y,1/2-z
76 1/2-y,1/2+x,1/2-z
77 1/2-x,1/2+y,1/2+z
78 1/2-y,1/2-x,1/2+z
79 1/2+x,1/2-y,1/2+z
80 1/2+y,1/2+x,1/2+z
81 1/2-z,1/2-x,1/2-y
82 1/2+x,1/2-z,1/2-y
83 1/2+z,1/2+x,1/2-y
84 1/2-x,1/2+z,1/2-y
85 1/2-z,1/2+x,1/2+y
86 1/2-x,1/2-z,1/2+y
87 1/2+z,1/2-x,1/2+y
88 1/2+x,1/2+z,1/2+y
89 1/2-y,1/2-z,1/2-x
90 1/2+z,1/2+y,1/2+x
91 1/2+z,1/2-y,1/2-x
92 1/2-z,1/2-y,1/2+x
93 1/2-z,1/2+y,1/2-x
94 1/2-y,1/2+z,1/2+x
95 1/2+y,1/2+z,1/2-x
96 1/2+y,1/2-z,1/2+x
_cell_length_a                   38.7204(9)
_cell_length_b                   38.7204(9)
_cell_length_c                   38.7204(9)
_cell_angle_alpha                90
_cell_angle_beta                 90
_cell_angle_gamma                90
_cell_volume                     58052.3
loop_
_atom_site_label
_atom_site_type_symbol
_atom_site_fract_x
_atom_site_fract_y
_atom_site_fract_z
_atom_site_U_iso_or_equiv
_atom_site_thermal_displace_type
Cu1 Cu 0.854778(11) 0.854778(11) 1.0000 0.0437 Uani
Cu2 Cu 0.806598(11) 0.806598(11) 1.0000 0.0456 Uani
O1 O 0.82577(4) 0.87622(4) 0.96495(4) 0.0450 Uani
O2 O 0.89429(6) 0.89429(6) 1.0000 0.0503 Uani
O3 O 0.78584(4) 0.83452(4) 0.96414(4) 0.0461 Uani
N1 N 0.5000 0.73204(7) 0.73204(7) 0.0452 Uani
C1 C 0.79950(7) 0.86174(7) 0.95395(7) 0.0443 Uani
C2 C 0.78151(7) 0.88044(7) 0.92488(7) 0.0466 Uani
C3 C 0.79426(9) 0.91261(7) 0.91261(7) 0.0474 Uani
C4 C 0.75303(7) 0.86594(7) 0.90863(6) 0.0454 Uani
H1 H 0.8107 0.9255 0.9255 0.0570 Uiso
H2 H 0.7442 0.8445 0.9165 0.0550 Uiso
C5 C 0.73796(10) 0.88196(7) 0.88196(7) 0.0501 Uani
N2 N 0.70696(8) 0.86518(6) 0.86518(6) 0.0473 Uani
C6 C 0.69235(14) 0.88172(14) 0.83670(15) 0.0513 Uani
C7 C 0.66197(14) 0.86384(14) 0.81827(14) 0.0493 Uani
O4 O 0.70069(9) 0.90839(10) 0.82081(9) 0.0520 Uani
C8 C 0.66950(15) 0.83818(14) 0.79354(14) 0.0547 Uani
C9 C 0.62887(14) 0.87116(14) 0.82670(14) 0.0530 Uani
H3 H 0.6928 0.8324 0.7885 0.0660 Uiso
C10 C 0.64327(14) 0.82168(14) 0.77691(14) 0.0583 Uani
C11 C 0.60194(15) 0.85412(14) 0.81097(14) 0.0540 Uani
H4 H 0.6242 0.8882 0.8437 0.0630 Uiso
H5 H 0.6484 0.8053 0.7594 0.0700 Uiso
C12 C 0.60923(14) 0.82859(14) 0.78526(14) 0.0510 Uani
H6 H 0.5788 0.8593 0.8171 0.0650 Uiso
N3 N 0.5790(4) 0.8113(4) 0.7649(3) 0.0420 Uani
O5 O 0.5760(4) 0.8065(4) 0.7671(3) 0.0727 Uani
C13 C 0.56453(10) 0.78245(7) 0.78245(7) 0.0489 Uani
H7 H 0.5717 0.8189 0.7442 0.0500 Uiso
C14 C 0.53007(9) 0.76918(7) 0.76918(7) 0.0445 Uani
C15 C 0.5000 0.78250(10) 0.78250(10) 0.0477 Uani
C16 C 0.52968(9) 0.74411(7) 0.74411(7) 0.0417 Uani
H8 H 0.5000 0.7998 0.7998 0.0580 Uiso
H9 H 0.5508 0.7353 0.7353 0.0500 Uiso
O1I O 0.17423(4) 0.96495(4) 0.87622(4) 0.0450 Uani
O3I O 0.21416(4) 0.96414(4) 0.83452(4) 0.0461 Uani
C1I C 0.20050(7) 0.95395(7) 0.86174(7) 0.0443 Uani
C2I C 0.21849(7) 0.92488(7) 0.88044(7) 0.0466 Uani
C3I C 0.20574(9) 0.91261(7) 0.91261(7) 0.0474 Uani
C4I C 0.24697(7) 0.90863(6) 0.86594(7) 0.0454 Uani
H1I H 0.1893 0.9255 0.9255 0.0570 Uiso
H2I H 0.2558 0.9165 0.8445 0.0550 Uiso
C5I C 0.26204(10) 0.88196(7) 0.88196(7) 0.0501 Uani
N2I N 0.29304(8) 0.86518(6) 0.86518(6) 0.0473 Uani
C6I C 0.30765(14) 0.83670(15) 0.88172(14) 0.0513 Uani
C7I C 0.33803(14) 0.81827(14) 0.86384(14) 0.0493 Uani
O4I O 0.29931(9) 0.82081(9) 0.90839(10) 0.0520 Uani
C8I C 0.33050(15) 0.79354(14) 0.83818(14) 0.0547 Uani
C9I C 0.37113(14) 0.82670(14) 0.87116(14) 0.0530 Uani
H3I H 0.3072 0.7885 0.8324 0.0660 Uiso
C10I C 0.35673(14) 0.77691(14) 0.82168(14) 0.0583 Uani
C11I C 0.39806(15) 0.81097(14) 0.85412(14) 0.0540 Uani
H4I H 0.3758 0.8437 0.8882 0.0630 Uiso
H5I H 0.3516 0.7594 0.8053 0.0700 Uiso
C12I C 0.39077(14) 0.78526(14) 0.82859(14) 0.0510 Uani
H6I H 0.4212 0.8171 0.8593 0.0650 Uiso
N3I N 0.4210(4) 0.7649(3) 0.8113(4) 0.0420 Uani
O5I O 0.4240(4) 0.7671(3) 0.8065(4) 0.0727 Uani
C13I C 0.43547(10) 0.78245(7) 0.78245(7) 0.0489 Uani
H7I H 0.4283 0.7442 0.8189 0.0500 Uiso
C14I C 0.46993(9) 0.76918(7) 0.76918(7) 0.0445 Uani
C16I C 0.47032(9) 0.74411(7) 0.74411(7) 0.0417 Uani
H9I H 0.4492 0.7353 0.7353 0.0500 Uiso
O1ZA O 0.17423(4) 0.87622(4) 0.96495(4) 0.0450 Uani
O3ZA O 0.21416(4) 0.83452(4) 0.96414(4) 0.0461 Uani
C1ZA C 0.20050(7) 0.86174(7) 0.95395(7) 0.0443 Uani
C2ZA C 0.21849(7) 0.88044(7) 0.92488(7) 0.0466 Uani
C4ZA C 0.24697(7) 0.86594(7) 0.90863(6) 0.0454 Uani
H2ZA H 0.2558 0.8445 0.9165 0.0550 Uiso
C6ZA C 0.30765(14) 0.88172(14) 0.83670(15) 0.0513 Uani
C7ZA C 0.33803(14) 0.86384(14) 0.81827(14) 0.0493 Uani
O4ZA O 0.29931(9) 0.90839(10) 0.82081(9) 0.0520 Uani
C8ZA C 0.33050(15) 0.83818(14) 0.79354(14) 0.0547 Uani
C9ZA C 0.37113(14) 0.87116(14) 0.82670(14) 0.0530 Uani
H3ZA H 0.3072 0.8324 0.7885 0.0660 Uiso
C10ZA C 0.35673(14) 0.82168(14) 0.77691(14) 0.0583 Uani
C11ZA C 0.39806(15) 0.85412(14) 0.81097(14) 0.0540 Uani
H4ZA H 0.3758 0.8882 0.8437 0.0630 Uiso
H5ZA H 0.3516 0.8053 0.7594 0.0700 Uiso
C12ZA C 0.39077(14) 0.82859(14) 0.78526(14) 0.0510 Uani
H6ZA H 0.4212 0.8593 0.8171 0.0650 Uiso
N3ZA N 0.4210(4) 0.8113(4) 0.7649(3) 0.0420 Uani
O5ZA O 0.4240(4) 0.8065(4) 0.7671(3) 0.0727 Uani
H7ZA H 0.4283 0.8189 0.7442 0.0500 Uiso
O1KB O 0.82577(4) 0.96495(4) 0.87622(4) 0.0450 Uani
O3KB O 0.78584(4) 0.96414(4) 0.83452(4) 0.0461 Uani
C1KB C 0.79950(7) 0.95395(7) 0.86174(7) 0.0443 Uani
C2KB C 0.78151(7) 0.92488(7) 0.88044(7) 0.0466 Uani
C4KB C 0.75303(7) 0.90863(6) 0.86594(7) 0.0454 Uani
H2KB H 0.7442 0.9165 0.8445 0.0550 Uiso
C6KB C 0.69235(14) 0.83670(15) 0.88172(14) 0.0513 Uani
C7KB C 0.66197(14) 0.81827(14) 0.86384(14) 0.0493 Uani
O4KB O 0.70069(9) 0.82081(9) 0.90839(10) 0.0520 Uani
C8KB C 0.66950(15) 0.79354(14) 0.83818(14) 0.0547 Uani
C9KB C 0.62887(14) 0.82670(14) 0.87116(14) 0.0530 Uani
H3KB H 0.6928 0.7885 0.8324 0.0660 Uiso
C10KB C 0.64327(14) 0.77691(14) 0.82168(14) 0.0583 Uani
C11KB C 0.60194(15) 0.81097(14) 0.85412(14) 0.0540 Uani
H4KB H 0.6242 0.8437 0.8882 0.0630 Uiso
H5KB H 0.6484 0.7594 0.8053 0.0700 Uiso
C12KB C 0.60923(14) 0.78526(14) 0.82859(14) 0.0510 Uani
H6KB H 0.5788 0.8171 0.8593 0.0650 Uiso
N3KB N 0.5790(4) 0.7649(3) 0.8113(4) 0.0420 Uani
O5KB O 0.5760(4) 0.7671(3) 0.8065(4) 0.0727 Uani
H7KB H 0.5717 0.7442 0.8189 0.0500 Uiso
Cu1A Cu 0.145222(11) 0.854778(11) 1.0000 0.0437 Uani
Cu1I Cu 0.145222(11) 1.0000 0.854778(11) 0.0437 Uani
Cu1K Cu 0.854778(11) 1.0000 0.854778(11) 0.0437 Uani
Cu2A Cu 0.193402(11) 0.806598(11) 1.0000 0.0456 Uani
Cu2I Cu 0.193402(11) 1.0000 0.806598(11) 0.0456 Uani
Cu2K Cu 0.806598(11) 1.0000 0.806598(11) 0.0456 Uani
Cu2JA Cu 0.5000 0.693402(11) 0.693402(11) 0.0456 Uani
O1E O 0.87622(4) 0.82577(4) 1.03505(4) 0.0450 Uani
O1XA O 0.82577(4) 0.87622(4) 1.03505(4) 0.0450 Uani
O1CB O 0.87622(4) 0.82577(4) 0.96495(4) 0.0450 Uani
O3E O 0.83452(4) 0.78584(4) 1.03586(4) 0.0461 Uani
O3XA O 0.78584(4) 0.83452(4) 1.03586(4) 0.0461 Uani
O3CB O 0.83452(4) 0.78584(4) 0.96414(4) 0.0461 Uani
N1OA N 0.76796(7) 0.76796(7) 1.0000 0.0452 Uani
loop_
_atom_site_aniso_label
_atom_site_aniso_U_11
_atom_site_aniso_U_22
_atom_site_aniso_U_33
_atom_site_aniso_U_23
_atom_site_aniso_U_13
_atom_site_aniso_U_12
Cu1 0.0430(3) 0.0430(3) 0.0451(4) 0.000 0.000 -0.0114(3)
Cu2 0.0445(3) 0.0445(3) 0.0479(4) 0.000 0.000 -0.0132(3)
O1 0.0420(11) 0.0471(11) 0.0458(11) 0.0088(9) 0.0056(9) 0.0025(9)
O2 0.0415(13) 0.0415(13) 0.068(3) 0.000 0.000 0.0015(17)
O3 0.0445(11) 0.0478(11) 0.0460(11) 0.0111(9) 0.0104(9) -0.0148(9)
N1 0.052 0.0418 0.0418 -0.01 0 0
C1 0.0444(17) 0.0494(18) 0.0392(15) 0.0112(13) 0.0086(13) -0.0064(14)
C2 0.0421(16) 0.0452(17) 0.0526(18) 0.0098(14) 0.0056(14) 0.0050(14)
C3 0.040(2) 0.0511(15) 0.0511(15) -0.007(2) -0.0116(13) -0.0116(13)
C4 0.0439(16) 0.0487(17) 0.0436(16) 0.0099(13) 0.0085(14) -0.0098(13)
C5 0.050(3) 0.0501(15) 0.0501(15) 0.008(2) -0.0039(15) -0.0039(15)
N2 0.0442(19) 0.0488(12) 0.0488(12) 0.0049(16) 0.0021(11) 0.0021(11)
C6 0.054(4) 0.034(3) 0.066(4) 0.014(3) 0.011(3) -0.003(3)
C7 0.049(4) 0.053(4) 0.046(3) 0.004(3) -0.009(3) -0.005(3)
O4 0.051(2) 0.055(2) 0.050(2) -0.017(2) -0.0040(18) 0.003(2)
C8 0.055(4) 0.053(4) 0.056(4) 0.010(3) -0.013(3) 0.011(3)
C9 0.050(4) 0.054(4) 0.055(4) -0.021(3) -0.007(3) 0.003(3)
C10 0.052(4) 0.062(4) 0.061(4) -0.026(3) -0.023(3) 0.010(3)
C11 0.050(4) 0.053(4) 0.059(4) 0.013(3) 0.008(3) -0.006(3)
C12 0.050(4) 0.049(4) 0.054(4) 0.000(3) -0.009(3) -0.007(3)
N3 0.055(6) 0.044(6) 0.027(4) -0.005(4) 0.005(4) 0.022(5)
O5 0.061 0.056 0.101 0.037 -0.011 -0.007
C13 0.041(2) 0.0529(16) 0.0529(16) 0.004(2) 0.0044(14) 0.0044(14)
C14 0.042(2) 0.0457(14) 0.0457(14) 0.0030(19) -0.0025(14) -0.0025(14)
C15 0.049(4) 0.047(2) 0.047(2) -0.007(3) 0.000 0.000
C16 0.039(2) 0.0430(14) 0.0430(14) -0.0025(19) 0.0051(13) 0.0051(13)
O1I 0.042 0.0458 0.0471 0.0088 -0.0025 -0.0056
O3I 0.0445 0.046 0.0478 0.0111 0.0148 -0.0104
C1I 0.0444 0.0392 0.0494 0.0112 0.0064 -0.0086
C2I 0.0421 0.0526 0.0452 0.0098 -0.005 -0.0056
C3I 0.04 0.0511 0.0511 -0.007 0.0116 0.0116
C4I 0.0439 0.0436 0.0487 0.0099 0.0098 -0.0085
C5I 0.05 0.0501 0.0501 0.008 0.0039 0.0039
N2I 0.0442 0.0488 0.0488 0.0049 -0.0021 -0.0021
C6I 0.054 0.066 0.034 0.014 0.003 -0.011
C7I 0.049 0.046 0.053 0.004 0.005 0.009
O4I 0.051 0.05 0.055 -0.017 -0.003 0.004
C8I 0.055 0.056 0.053 0.01 -0.011 0.013
C9I 0.05 0.055 0.054 -0.021 -0.003 0.007
C10I 0.052 0.061 0.062 -0.026 -0.01 0.023
C11I 0.05 0.059 0.053 0.013 0.006 -0.008
C12I 0.05 0.054 0.049 0 0.007 0.009
N3I 0.055 0.027 0.044 -0.005 -0.022 -0.005
O5I 0.061 0.101 0.056 0.037 0.007 0.011
C13I 0.041 0.0529 0.0529 0.004 -0.0044 -0.0044
C14I 0.042 0.0457 0.0457 0.003 0.0025 0.0025
C16I 0.039 0.043 0.043 -0.0025 -0.0051 -0.0051
O1ZA 0.042 0.0471 0.0458 0.0088 -0.0056 -0.0025
O3ZA 0.0445 0.0478 0.046 0.0111 -0.0104 0.0148
C1ZA 0.0444 0.0494 0.0392 0.0112 -0.0086 0.0064
C2ZA 0.0421 0.0452 0.0526 0.0098 -0.0056 -0.005
C4ZA 0.0439 0.0487 0.0436 0.0099 -0.0085 0.0098
C6ZA 0.054 0.034 0.066 0.014 -0.011 0.003
C7ZA 0.049 0.053 0.046 0.004 0.009 0.005
O4ZA 0.051 0.055 0.05 -0.017 0.004 -0.003
C8ZA 0.055 0.053 0.056 0.01 0.013 -0.011
C9ZA 0.05 0.054 0.055 -0.021 0.007 -0.003
C10ZA 0.052 0.062 0.061 -0.026 0.023 -0.01
C11ZA 0.05 0.053 0.059 0.013 -0.008 0.006
C12ZA 0.05 0.049 0.054 0 0.009 0.007
N3ZA 0.055 0.044 0.027 -0.005 -0.005 -0.022
O5ZA 0.061 0.056 0.101 0.037 0.011 0.007
O1KB 0.042 0.0458 0.0471 0.0088 0.0025 0.0056
O3KB 0.0445 0.046 0.0478 0.0111 -0.0148 0.0104
C1KB 0.0444 0.0392 0.0494 0.0112 -0.0064 0.0086
C2KB 0.0421 0.0526 0.0452 0.0098 0.005 0.0056
C4KB 0.0439 0.0436 0.0487 0.0099 -0.0098 0.0085
C6KB 0.054 0.066 0.034 0.014 -0.003 0.011
C7KB 0.049 0.046 0.053 0.004 -0.005 -0.009
O4KB 0.051 0.05 0.055 -0.017 0.003 -0.004
C8KB 0.055 0.056 0.053 0.01 0.011 -0.013
C9KB 0.05 0.055 0.054 -0.021 0.003 -0.007
C10KB 0.052 0.061 0.062 -0.026 0.01 -0.023
C11KB 0.05 0.059 0.053 0.013 -0.006 0.008
C12KB 0.05 0.054 0.049 0 -0.007 -0.009
N3KB 0.055 0.027 0.044 -0.005 0.022 0.005
O5KB 0.061 0.101 0.056 0.037 -0.007 -0.011
Cu1A 0.043 0.043 0.0451 0 0 0.0114
Cu1I 0.043 0.0451 0.043 0 0.0114 0
Cu1K 0.043 0.0451 0.043 0 -0.0114 0
Cu2A 0.0445 0.0445 0.0479 0 0 0.0132
Cu2I 0.0445 0.0479 0.0445 0 0.0132 0
Cu2K 0.0445 0.0479 0.0445 0 -0.0132 0
Cu2JA 0.0479 0.0445 0.0445 -0.0132 0 0
O1E 0.0471 0.042 0.0458 -0.0056 -0.0088 0.0025
O1XA 0.042 0.0471 0.0458 -0.0088 -0.0056 0.0025
O1CB 0.0471 0.042 0.0458 0.0056 0.0088 0.0025
O3E 0.0478 0.0445 0.046 -0.0104 -0.0111 -0.0148
O3XA 0.0445 0.0478 0.046 -0.0111 -0.0104 -0.0148
O3CB 0.0478 0.0445 0.046 0.0104 0.0111 -0.0148
N1OA 0.0418 0.0418 0.052 0 0 -0.01
loop_
_geom_bond_atom_site_label_1
_geom_bond_atom_site_label_2
_geom_bond_site_symmetry_1
_geom_bond_site_symmetry_2
Cu1 Cu2 1_555 1_555
Cu2 O3 1_555 1_555
O1 Cu1 1_555 1_555
O2 Cu1 1_555 1_555
O3 C1 1_555 1_555
N1 C16 1_555 1_555
C1 O1 1_555 1_555
C2 C1 1_555 1_555
C3 C2 1_555 1_555
C4 C2 1_555 1_555
H1 C3 1_555 1_555
H2 C4 1_555 1_555
C5 C4 1_555 1_555
N2 C5 1_555 1_555
C6 N2 1_555 1_555
C7 C6 1_555 1_555
O4 C6 1_555 1_555
C8 C7 1_555 1_555
C9 C7 1_555 1_555
H3 C8 1_555 1_555
C10 C8 1_555 1_555
C11 C9 1_555 1_555
H4 C9 1_555 1_555
H5 C10 1_555 1_555
C12 C10 1_555 1_555
H6 C11 1_555 1_555
N3 C12 1_555 1_555
O5 C12 1_555 1_555
C13 N3 1_555 1_555
H7 N3 1_555 1_555
C14 C13 1_555 1_555
C15 C14 1_555 1_555
C16 C14 1_555 1_555
H8 C15 1_555 1_555
H9 C16 1_555 1_555
O1I C1I 1_555 1_555
O3I C1I 1_555 1_555
C1I C2I 1_555 1_555
C2I C3I 1_555 1_555
C3I H1I 1_555 1_555
C4I C2I 1_555 1_555
H2I C4I 1_555 1_555
C5I C4I 1_555 1_555
N2I C5I 1_555 1_555
C6I N2I 1_555 1_555
C7I C6I 1_555 1_555
O4I C6I 1_555 1_555
C8I C7I 1_555 1_555
C9I C7I 1_555 1_555
H3I C8I 1_555 1_555
C10I C8I 1_555 1_555
C11I C9I 1_555 1_555
H4I C9I 1_555 1_555
H5I C10I 1_555 1_555
C12I C10I 1_555 1_555
H6I C11I 1_555 1_555
N3I C12I 1_555 1_555
O5I C12I 1_555 1_555
C13I N3I 1_555 1_555
H7I N3I 1_555 1_555
C14I C15 1_555 1_555
C16I N1 1_555 1_555
H9I C16I 1_555 1_555
O1ZA C1ZA 1_555 1_555
O3ZA C1ZA 1_555 1_555
C1ZA C2ZA 1_555 1_555
C2ZA C3I 1_555 1_555
C4ZA C5I 1_555 1_555
H2ZA C4ZA 1_555 1_555
C6ZA N2I 1_555 1_555
C7ZA C6ZA 1_555 1_555
O4ZA C6ZA 1_555 1_555
C8ZA C7ZA 1_555 1_555
C9ZA C7ZA 1_555 1_555
H3ZA C8ZA 1_555 1_555
C10ZA C8ZA 1_555 1_555
C11ZA C9ZA 1_555 1_555
H4ZA C9ZA 1_555 1_555
H5ZA C10ZA 1_555 1_555
C12ZA C10ZA 1_555 1_555
H6ZA C11ZA 1_555 1_555
N3ZA C13I 1_555 1_555
O5ZA C13I 1_555 1_555
H7ZA N3ZA 1_555 1_555
O1KB C1KB 1_555 1_555
O3KB C1KB 1_555 1_555
C1KB C2KB 1_555 1_555
C2KB C3 1_555 1_555
C4KB C5 1_555 1_555
H2KB C4KB 1_555 1_555
C6KB N2 1_555 1_555
C7KB C6KB 1_555 1_555
O4KB C6KB 1_555 1_555
C8KB C7KB 1_555 1_555
C9KB C7KB 1_555 1_555
H3KB C8KB 1_555 1_555
C10KB C8KB 1_555 1_555
C11KB C9KB 1_555 1_555
H4KB C9KB 1_555 1_555
H5KB C10KB 1_555 1_555
C12KB C10KB 1_555 1_555
H6KB C11KB 1_555 1_555
N3KB C13 1_555 1_555
O5KB C13 1_555 1_555
H7KB N3KB 1_555 1_555
Cu1A O1ZA 1_555 1_555
Cu1I O1I 1_555 1_555
Cu1K O1KB 1_555 1_555
Cu2A O3ZA 1_555 1_555
Cu2I O3I 1_555 1_555
Cu2K O3KB 1_555 1_555
Cu2JA N1 1_555 1_555
O1E Cu1 1_555 1_555
O1XA Cu1 1_555 1_555
O1CB Cu1 1_555 1_555
O3E Cu2 1_555 1_555
O3XA Cu2 1_555 1_555
O3CB Cu2 1_555 1_555
N1OA Cu2 1_555 1_555
C11 C12 1_555 1_555
O5 C13 1_555 1_555
O5 H7 1_555 1_555
C11I C12I 1_555 1_555
O5I C13I 1_555 1_555
O5I H7I 1_555 1_555
C13I C14I 1_555 1_555
C14I C16I 1_555 1_555
C2ZA C4ZA 1_555 1_555
C11ZA C12ZA 1_555 1_555
C12ZA N3ZA 1_555 1_555
C12ZA O5ZA 1_555 1_555
O5ZA H7ZA 1_555 1_555
C2KB C4KB 1_555 1_555
C11KB C12KB 1_555 1_555
C12KB N3KB 1_555 1_555
C12KB O5KB 1_555 1_555
O5KB H7KB 1_555 1_555
Cu1A Cu2A 1_555 1_555
Cu1I Cu2I 1_555 1_555
Cu1K Cu2K 1_555 1_555

#END
