
#######################################################################
#
#                 Cambridge Crystallographic Data Centre
#                                CCDC 
#
#######################################################################
#
# If this CIF has been generated from an entry in the Cambridge 
# Structural Database, then it will include bibliographic, chemical, 
# crystal, experimental, refinement or atomic coordinate data resulting 
# from the CCDC's data processing and validation procedures.
#
#######################################################################

data_ELEROE
_chemical_formula_moiety         'C28 H12 Cu10 N3 O21'
_symmetry_cell_setting           cubic
_symmetry_space_group_name_H-M   'I m -3 m'
_symmetry_Int_Tables_number      229
_space_group_name_Hall           '-I 4 2 3'
loop_
_symmetry_equiv_pos_site_id
_symmetry_equiv_pos_as_xyz
1 x,y,z
2 -x,-y,z
3 -x,y,-z
4 x,-y,-z
5 z,x,y
6 z,-x,-y
7 -z,-x,y
8 -z,x,-y
9 y,z,x
10 -y,z,-x
11 y,-z,-x
12 -y,-z,x
13 y,x,-z
14 -y,-x,-z
15 y,-x,z
16 -y,x,z
17 x,z,-y
18 -x,z,y
19 -x,-z,-y
20 x,-z,y
21 z,y,-x
22 z,-y,x
23 -z,y,x
24 -z,-y,-x
25 1/2+x,1/2+y,1/2+z
26 1/2-x,1/2-y,1/2+z
27 1/2-x,1/2+y,1/2-z
28 1/2+x,1/2-y,1/2-z
29 1/2+z,1/2+x,1/2+y
30 1/2+z,1/2-x,1/2-y
31 1/2-z,1/2-x,1/2+y
32 1/2-z,1/2+x,1/2-y
33 1/2+y,1/2+z,1/2+x
34 1/2-y,1/2+z,1/2-x
35 1/2+y,1/2-z,1/2-x
36 1/2-y,1/2-z,1/2+x
37 1/2+y,1/2+x,1/2-z
38 1/2-y,1/2-x,1/2-z
39 1/2+y,1/2-x,1/2+z
40 1/2-y,1/2+x,1/2+z
41 1/2+x,1/2+z,1/2-y
42 1/2-x,1/2+z,1/2+y
43 1/2-x,1/2-z,1/2-y
44 1/2+x,1/2-z,1/2+y
45 1/2+z,1/2+y,1/2-x
46 1/2+z,1/2-y,1/2+x
47 1/2-z,1/2+y,1/2+x
48 1/2-z,1/2-y,1/2-x
49 -x,-y,-z
50 x,y,-z
51 x,-y,z
52 -x,y,z
53 -z,-x,-y
54 -z,x,y
55 z,x,-y
56 z,-x,y
57 -y,-z,-x
58 y,-z,x
59 -y,z,x
60 y,z,-x
61 -y,-x,z
62 y,x,z
63 -y,x,-z
64 y,-x,-z
65 -x,-z,y
66 x,-z,-y
67 x,z,y
68 -x,z,-y
69 -z,-y,x
70 -z,y,-x
71 z,-y,-x
72 z,y,x
73 1/2-x,1/2-y,1/2-z
74 1/2+x,1/2+y,1/2-z
75 1/2+x,1/2-y,1/2+z
76 1/2-x,1/2+y,1/2+z
77 1/2-z,1/2-x,1/2-y
78 1/2-z,1/2+x,1/2+y
79 1/2+z,1/2+x,1/2-y
80 1/2+z,1/2-x,1/2+y
81 1/2-y,1/2-z,1/2-x
82 1/2+y,1/2-z,1/2+x
83 1/2-y,1/2+z,1/2+x
84 1/2+y,1/2+z,1/2-x
85 1/2-y,1/2-x,1/2+z
86 1/2+y,1/2+x,1/2+z
87 1/2-y,1/2+x,1/2-z
88 1/2+y,1/2-x,1/2-z
89 1/2-x,1/2-z,1/2+y
90 1/2+x,1/2-z,1/2-y
91 1/2+x,1/2+z,1/2+y
92 1/2-x,1/2+z,1/2-y
93 1/2-z,1/2-y,1/2+x
94 1/2-z,1/2+y,1/2-x
95 1/2+z,1/2-y,1/2-x
96 1/2+z,1/2+y,1/2+x
_cell_length_a                   30.4128(13)
_cell_length_b                   30.4128(13)
_cell_length_c                   30.4128(13)
_cell_angle_alpha                90
_cell_angle_beta                 90
_cell_angle_gamma                90
_cell_volume                     28130
loop_
_atom_site_label
_atom_site_type_symbol
_atom_site_fract_x
_atom_site_fract_y
_atom_site_fract_z
Cu1 Cu 0.0000 0.18366(4) 0.18366(4)
Cu2 Cu -0.0000 0.24516(5) 0.24516(5)
O1 O 0.2275(2) 0.2914(2) 0.4549(2)
O2 O 0.2801(2) 0.3433(2) 0.4553(2)
O3 O 0.0000 0.1350(3) 0.1350(3)
O4 O 0.0839(7) 0.4153(6) 0.3378(8)
N1 N 0.0000 0.2950(3) 0.2950(3)
N2 N 0.1149(4) 0.3477(3) 0.3477(3)
H1 H 0.1155 0.3268 0.3268
C1 C 0.0370(4) 0.3094(3) 0.3094(3)
H2 H 0.0650 0.2999 0.2999
C2 C 0.0396(5) 0.3526(5) 0.3298(6)
H3 H 0.0000 0.3890 0.3573
C3 C 0.2446(3) 0.3266(3) 0.4414(3)
C4 C 0.2206(3) 0.3513(3) 0.4070(3)
C5 C 0.2424(4) 0.3845(4) 0.3845(4)
H4 H 0.2713 0.3916 0.3916
C6 C 0.1790(3) 0.3384(4) 0.3939(4)
H5 H 0.1653 0.3148 0.4077
C7 C 0.1578(4) 0.3605(4) 0.3605(4)
C8 C 0.0828(6) 0.3752(6) 0.3380(10)
C9 C 0.0000 0.3714(9) 0.3402(10)
O1Q O -0.2275(2) 0.4549(2) 0.2914(2)
O2Q O -0.2801(2) 0.4553(2) 0.3433(2)
O4Q O -0.0839(7) 0.3378(8) 0.4153(6)
N2Q N -0.1149(4) 0.3477(3) 0.3477(3)
H1Q H -0.1155 0.3268 0.3268
C1Q C -0.0370(4) 0.3094(3) 0.3094(3)
H2Q H -0.0650 0.2999 0.2999
C2Q C -0.0396(5) 0.3298(6) 0.3526(5)
H3Q H 0.0000 0.3573 0.3890
C3Q C -0.2446(3) 0.4414(3) 0.3266(3)
C4Q C -0.2206(3) 0.4070(3) 0.3513(3)
C5Q C -0.2424(4) 0.3845(4) 0.3845(4)
H4Q H -0.2713 0.3916 0.3916
C6Q C -0.1790(3) 0.3939(4) 0.3384(4)
H5Q H -0.1653 0.4077 0.3148
C7Q C -0.1578(4) 0.3605(4) 0.3605(4)
C8Q C -0.0828(6) 0.3380(10) 0.3752(6)
C9Q C 0.0000 0.3402(10) 0.3714(9)
O1YA O -0.2275(2) 0.2914(2) 0.4549(2)
O2YA O -0.2801(2) 0.3433(2) 0.4553(2)
O4YA O -0.0839(7) 0.4153(6) 0.3378(8)
C2YA C -0.0396(5) 0.3526(5) 0.3298(6)
C3YA C -0.2446(3) 0.3266(3) 0.4414(3)
C4YA C -0.2206(3) 0.3513(3) 0.4070(3)
C6YA C -0.1790(3) 0.3384(4) 0.3939(4)
H5YA H -0.1653 0.3148 0.4077
C8YA C -0.0828(6) 0.3752(6) 0.3380(10)
O1NB O 0.2275(2) 0.4549(2) 0.2914(2)
O2NB O 0.2801(2) 0.4553(2) 0.3433(2)
O4NB O 0.0839(7) 0.3378(8) 0.4153(6)
C2NB C 0.0396(5) 0.3298(6) 0.3526(5)
C3NB C 0.2446(3) 0.4414(3) 0.3266(3)
C4NB C 0.2206(3) 0.4070(3) 0.3513(3)
C6NB C 0.1790(3) 0.3939(4) 0.3384(4)
H5NB H 0.1653 0.4077 0.3148
C8NB C 0.0828(6) 0.3380(10) 0.3752(6)
Cu1CA Cu -0.31634(4) 0.5000 0.31634(4)
Cu1EA Cu 0.31634(4) 0.5000 0.31634(4)
Cu1HA Cu -0.31634(4) 0.31634(4) 0.5000
Cu1IA Cu 0.31634(4) 0.31634(4) 0.5000
Cu2CA Cu -0.25484(5) 0.5000 0.25484(5)
Cu2EA Cu 0.25484(5) 0.5000 0.25484(5)
Cu2HA Cu -0.25484(5) 0.25484(5) 0.5000
Cu2IA Cu 0.25484(5) 0.25484(5) 0.5000
O1CA O -0.0451(2) 0.2725(2) 0.2086(2)
O1UA O 0.0451(2) 0.2086(2) 0.2725(2)
O1XB O 0.0451(2) 0.2725(2) 0.2086(2)
O1PC O -0.0451(2) 0.2086(2) 0.2725(2)
O2CA O -0.0447(2) 0.2199(2) 0.1567(2)
O2UA O 0.0447(2) 0.1567(2) 0.2199(2)
O2XB O 0.0447(2) 0.2199(2) 0.1567(2)
O2PC O -0.0447(2) 0.1567(2) 0.2199(2)
loop_
_geom_bond_atom_site_label_1
_geom_bond_atom_site_label_2
_geom_bond_site_symmetry_1
_geom_bond_site_symmetry_2
Cu1 Cu2 1_555 1_555
Cu2 N1 1_555 1_555
O1 C3 1_555 1_555
O2 C3 1_555 1_555
O3 Cu1 1_555 1_555
O4 C8 1_555 1_555
N1 C1 1_555 1_555
N2 H1 1_555 1_555
C1 H2 1_555 1_555
C2 C1 1_555 1_555
H3 C9 1_555 1_555
C3 C4 1_555 1_555
C4 C5 1_555 1_555
C5 H4 1_555 1_555
C6 C4 1_555 1_555
H5 C6 1_555 1_555
C7 N2 1_555 1_555
C8 N2 1_555 1_555
C9 C2 1_555 1_555
O1Q C3Q 1_555 1_555
O2Q C3Q 1_555 1_555
O4Q C8Q 1_555 1_555
N2Q H1Q 1_555 1_555
C1Q N1 1_555 1_555
H2Q C1Q 1_555 1_555
C2Q C1Q 1_555 1_555
H3Q C9Q 1_555 1_555
C3Q C4Q 1_555 1_555
C4Q C5Q 1_555 1_555
C5Q H4Q 1_555 1_555
C6Q C4Q 1_555 1_555
H5Q C6Q 1_555 1_555
C7Q N2Q 1_555 1_555
C8Q N2Q 1_555 1_555
C9Q C9 1_555 1_555
O1YA C3YA 1_555 1_555
O2YA C3YA 1_555 1_555
O4YA C8YA 1_555 1_555
C2YA C9 1_555 1_555
C3YA C4YA 1_555 1_555
C4YA C5Q 1_555 1_555
C6YA C7Q 1_555 1_555
H5YA C6YA 1_555 1_555
C8YA N2Q 1_555 1_555
O1NB C3NB 1_555 1_555
O2NB C3NB 1_555 1_555
O4NB C8NB 1_555 1_555
C2NB C1 1_555 1_555
C3NB C4NB 1_555 1_555
C4NB C5 1_555 1_555
C6NB C7 1_555 1_555
H5NB C6NB 1_555 1_555
C8NB N2 1_555 1_555
Cu1CA O2Q 1_555 1_555
Cu1EA O2NB 1_555 1_555
Cu1HA O2YA 1_555 1_555
Cu1IA O2 1_555 1_555
Cu2CA O1Q 1_555 1_555
Cu2EA O1NB 1_555 1_555
Cu2HA O1YA 1_555 1_555
Cu2IA O1 1_555 1_555
O1CA Cu2 1_555 1_555
O1UA Cu2 1_555 1_555
O1XB Cu2 1_555 1_555
O1PC Cu2 1_555 1_555
O2CA Cu1 1_555 1_555
O2UA Cu1 1_555 1_555
O2XB Cu1 1_555 1_555
O2PC Cu1 1_555 1_555
C2 C8 1_555 1_555
C2 C2NB 1_555 1_555
C6 C7 1_555 1_555
C8 C8NB 1_555 1_555
C1Q C2YA 1_555 1_555
C2Q C8Q 1_555 1_555
C2Q C9Q 1_555 1_555
C2Q C2YA 1_555 1_555
C6Q C7Q 1_555 1_555
C8Q C8YA 1_555 1_555
C9Q C2NB 1_555 1_555
C2YA C8YA 1_555 1_555
C4YA C6YA 1_555 1_555
C2NB C8NB 1_555 1_555
C4NB C6NB 1_555 1_555
Cu1CA Cu2CA 1_555 1_555
Cu1EA Cu2EA 1_555 1_555
Cu1HA Cu2HA 1_555 1_555
Cu1IA Cu2IA 1_555 1_555

#END
