
#######################################################################
#
#                 Cambridge Crystallographic Data Centre
#                                CCDC 
#
#######################################################################
#
# If this CIF has been generated from an entry in the Cambridge 
# Structural Database, then it will include bibliographic, chemical, 
# crystal, experimental, refinement or atomic coordinate data resulting 
# from the CCDC's data processing and validation procedures.
#
#######################################################################

data_ELERIY
_chemical_formula_moiety         '(C25 H11 Cu2 N1 O9)n'
_symmetry_cell_setting           cubic
_symmetry_space_group_name_H-M   'I m -3 m'
_symmetry_Int_Tables_number      229
_space_group_name_Hall           '-I 4 2 3'
loop_
_symmetry_equiv_pos_site_id
_symmetry_equiv_pos_as_xyz
1 x,y,z
2 -y,x,z
3 -x,-y,z
4 y,-x,z
5 x,-y,-z
6 y,x,-z
7 -x,y,-z
8 -y,-x,-z
9 z,x,y
10 -x,z,y
11 -z,-x,y
12 x,-z,y
13 z,-x,-y
14 x,z,-y
15 -z,x,-y
16 -x,-z,-y
17 y,z,x
18 -z,-y,-x
19 -z,y,x
20 z,y,-x
21 z,-y,x
22 y,-z,-x
23 -y,-z,x
24 -y,z,-x
25 1/2+x,1/2+y,1/2+z
26 1/2-y,1/2+x,1/2+z
27 1/2-x,1/2-y,1/2+z
28 1/2+y,1/2-x,1/2+z
29 1/2+x,1/2-y,1/2-z
30 1/2+y,1/2+x,1/2-z
31 1/2-x,1/2+y,1/2-z
32 1/2-y,1/2-x,1/2-z
33 1/2+z,1/2+x,1/2+y
34 1/2-x,1/2+z,1/2+y
35 1/2-z,1/2-x,1/2+y
36 1/2+x,1/2-z,1/2+y
37 1/2+z,1/2-x,1/2-y
38 1/2+x,1/2+z,1/2-y
39 1/2-z,1/2+x,1/2-y
40 1/2-x,1/2-z,1/2-y
41 1/2+y,1/2+z,1/2+x
42 1/2-z,1/2-y,1/2-x
43 1/2-z,1/2+y,1/2+x
44 1/2+z,1/2+y,1/2-x
45 1/2+z,1/2-y,1/2+x
46 1/2+y,1/2-z,1/2-x
47 1/2-y,1/2-z,1/2+x
48 1/2-y,1/2+z,1/2-x
49 -x,-y,-z
50 y,-x,-z
51 x,y,-z
52 -y,x,-z
53 -x,y,z
54 -y,-x,z
55 x,-y,z
56 y,x,z
57 -z,-x,-y
58 x,-z,-y
59 z,x,-y
60 -x,z,-y
61 -z,x,y
62 -x,-z,y
63 z,-x,y
64 x,z,y
65 -y,-z,-x
66 z,y,x
67 z,-y,-x
68 -z,-y,x
69 -z,y,-x
70 -y,z,x
71 y,z,-x
72 y,-z,x
73 1/2-x,1/2-y,1/2-z
74 1/2+y,1/2-x,1/2-z
75 1/2+x,1/2+y,1/2-z
76 1/2-y,1/2+x,1/2-z
77 1/2-x,1/2+y,1/2+z
78 1/2-y,1/2-x,1/2+z
79 1/2+x,1/2-y,1/2+z
80 1/2+y,1/2+x,1/2+z
81 1/2-z,1/2-x,1/2-y
82 1/2+x,1/2-z,1/2-y
83 1/2+z,1/2+x,1/2-y
84 1/2-x,1/2+z,1/2-y
85 1/2-z,1/2+x,1/2+y
86 1/2-x,1/2-z,1/2+y
87 1/2+z,1/2-x,1/2+y
88 1/2+x,1/2+z,1/2+y
89 1/2-y,1/2-z,1/2-x
90 1/2+z,1/2+y,1/2+x
91 1/2+z,1/2-y,1/2-x
92 1/2-z,1/2-y,1/2+x
93 1/2-z,1/2+y,1/2-x
94 1/2-y,1/2+z,1/2+x
95 1/2+y,1/2+z,1/2-x
96 1/2+y,1/2-z,1/2+x
_cell_length_a                   31.1089(16)
_cell_length_b                   31.1089(16)
_cell_length_c                   31.1089(16)
_cell_angle_alpha                90
_cell_angle_beta                 90
_cell_angle_gamma                90
_cell_volume                     30106.1
loop_
_atom_site_label
_atom_site_type_symbol
_atom_site_fract_x
_atom_site_fract_y
_atom_site_fract_z
_atom_site_U_iso_or_equiv
_atom_site_thermal_displace_type
Cu1 Cu -0.0000 0.18048(3) 0.18048(3) 0.0378 Uani
Cu2 Cu -0.0000 0.24047(4) 0.24047(4) 0.0394 Uani
N1 N 0.2107(2) 0.2107(2) 0.5000 0.0430 Uani
C1 C 0.1957(2) 0.1957(2) 0.4633(3) 0.0470 Uani
H1 H 0.2066 0.2066 0.4377 0.0570 Uiso
C2 C 0.1636(2) 0.1636(2) 0.4615(3) 0.0450 Uani
C3 C 0.1474(3) 0.1474(3) 0.5000 0.0457 Uani
H2 H 0.1263 0.1263 0.5000 0.0550 Uiso
C4 C 0.1495(3) 0.1495(3) 0.4198(4) 0.0567 Uani
C5 C 0.1410(3) 0.1410(3) 0.3831(4) 0.0550 Uani
C6 C 0.1316(2) 0.1316(2) 0.3395(3) 0.0497 Uani
C7 C 0.1002(2) 0.1543(3) 0.3176(2) 0.0517 Uani
H3 H 0.0855 0.1761 0.3316 0.0620 Uiso
C8 C 0.0904(2) 0.1450(2) 0.2747(2) 0.0457 Uani
C9 C 0.1123(2) 0.1123(2) 0.2543(3) 0.0460 Uani
H4 H 0.1049 0.1049 0.2263 0.0550 Uiso
C10 C 0.0572(2) 0.1697(2) 0.2509(2) 0.0440 Uani
O1 O 0.04406(17) 0.15394(17) 0.21601(16) 0.0513 Uani
O2 O 0.04437(17) 0.20456(16) 0.26769(16) 0.0530 Uani
O3 O 0.0000 0.1315(2) 0.1315(2) 0.1083 Uani
C1E C 0.1957(2) 0.1957(2) 0.5367(3) 0.0470 Uani
H1E H 0.2066 0.2066 0.5623 0.0570 Uiso
C2E C 0.1636(2) 0.1636(2) 0.5385(3) 0.0450 Uani
C4E C 0.1495(3) 0.1495(3) 0.5802(4) 0.0567 Uani
C5E C 0.1410(3) 0.1410(3) 0.6169(4) 0.0550 Uani
C6E C 0.1316(2) 0.1316(2) 0.6605(3) 0.0497 Uani
C7E C 0.1543(3) 0.1002(2) 0.6824(2) 0.0517 Uani
H3E H 0.1761 0.0855 0.6684 0.0620 Uiso
C8E C 0.1450(2) 0.0904(2) 0.7253(2) 0.0457 Uani
C9E C 0.1123(2) 0.1123(2) 0.7457(3) 0.0460 Uani
H4E H 0.1049 0.1049 0.7737 0.0550 Uiso
C10E C 0.1697(2) 0.0572(2) 0.7491(2) 0.0440 Uani
O1E O 0.15394(17) 0.04406(17) 0.78399(16) 0.0513 Uani
O2E O 0.20456(16) 0.04437(17) 0.73231(16) 0.0530 Uani
C7XA C 0.1002(2) 0.1543(3) 0.6824(2) 0.0517 Uani
H3XA H 0.0855 0.1761 0.6684 0.0620 Uiso
C8XA C 0.0904(2) 0.1450(2) 0.7253(2) 0.0457 Uani
C10XA C 0.0572(2) 0.1697(2) 0.7491(2) 0.0440 Uani
O1XA O 0.04406(17) 0.15394(17) 0.78399(16) 0.0513 Uani
O2XA O 0.04437(17) 0.20456(16) 0.73231(16) 0.0530 Uani
C7CB C 0.1543(3) 0.1002(2) 0.3176(2) 0.0517 Uani
H3CB H 0.1761 0.0855 0.3316 0.0620 Uiso
C8CB C 0.1450(2) 0.0904(2) 0.2747(2) 0.0457 Uani
C10CB C 0.1697(2) 0.0572(2) 0.2509(2) 0.0440 Uani
O1CB O 0.15394(17) 0.04406(17) 0.21601(16) 0.0513 Uani
O2CB O 0.20456(16) 0.04437(17) 0.26769(16) 0.0530 Uani
Cu1C Cu 0.18048(3) -0.0000 0.18048(3) 0.0378 Uani
Cu1E Cu 0.18048(3) 0.0000 0.81952(3) 0.0378 Uani
Cu1F Cu -0.0000 0.18048(3) 0.81952(3) 0.0378 Uani
Cu2C Cu 0.24047(4) 0.0000 0.24047(4) 0.0394 Uani
Cu2E Cu 0.24047(4) -0.0000 0.75953(4) 0.0394 Uani
Cu2F Cu -0.0000 0.24047(4) 0.75953(4) 0.0394 Uani
Cu2OA Cu 0.25953(4) 0.25953(4) 0.5000 0.0394 Uani
N1JA N -0.0000 0.2893(2) 0.2893(2) 0.0430 Uani
O1I O -0.04406(17) 0.21601(16) 0.15394(17) 0.0513 Uani
O1ZA O -0.04406(17) 0.15394(17) 0.21601(16) 0.0513 Uani
O1KB O 0.04406(17) 0.21601(16) 0.15394(17) 0.0513 Uani
O2I O -0.04437(17) 0.26769(16) 0.20456(16) 0.0530 Uani
O2ZA O -0.04437(17) 0.20456(16) 0.26769(16) 0.0530 Uani
O2KB O 0.04437(17) 0.26769(16) 0.20456(16) 0.0530 Uani
loop_
_atom_site_aniso_label
_atom_site_aniso_U_11
_atom_site_aniso_U_22
_atom_site_aniso_U_33
_atom_site_aniso_U_23
_atom_site_aniso_U_13
_atom_site_aniso_U_12
Cu1 0.0381(10) 0.0377(7) 0.0377(7) -0.0106(7) 0.000 0.000
Cu2 0.0378(10) 0.0402(7) 0.0402(7) -0.0133(7) 0.000 0.000
N1 0.046(4) 0.046(4) 0.037(6) 0.000 0.000 -0.020(5)
C1 0.055(4) 0.055(4) 0.031(5) 0.002(3) 0.002(3) -0.019(5)
C2 0.049(4) 0.049(4) 0.037(5) -0.004(3) -0.004(3) -0.003(5)
C3 0.045(5) 0.045(5) 0.047(8) 0.000 0.000 -0.013(7)
C4 0.057(4) 0.057(4) 0.056(7) -0.007(4) -0.007(4) -0.010(5)
C5 0.058(4) 0.058(4) 0.049(7) -0.006(4) -0.006(4) -0.010(6)
C6 0.054(4) 0.054(4) 0.041(6) -0.005(3) -0.005(3) -0.005(5)
C7 0.053(5) 0.058(5) 0.044(4) -0.012(4) -0.003(4) 0.003(4)
C8 0.048(4) 0.047(4) 0.042(4) -0.008(3) 0.004(3) 0.002(3)
C9 0.049(4) 0.049(4) 0.040(5) -0.001(3) -0.001(3) 0.003(5)
C10 0.040(4) 0.047(4) 0.045(4) -0.009(3) 0.004(3) 0.003(3)
O1 0.054(3) 0.051(3) 0.049(3) -0.010(2) -0.007(2) 0.016(2)
O2 0.055(3) 0.055(3) 0.049(3) -0.015(3) -0.010(2) 0.013(3)
O3 0.203(18) 0.061(6) 0.061(6) -0.039(7) 0.000 0.000
C1E 0.055 0.055 0.031 -0.002 -0.002 -0.019
C2E 0.049 0.049 0.037 0.004 0.004 -0.003
C4E 0.057 0.057 0.056 0.007 0.007 -0.01
C5E 0.058 0.058 0.049 0.006 0.006 -0.01
C6E 0.054 0.054 0.041 0.005 0.005 -0.005
C7E 0.058 0.053 0.044 0.003 0.012 0.003
C8E 0.047 0.048 0.042 -0.004 0.008 0.002
C9E 0.049 0.049 0.04 0.001 0.001 0.003
C10E 0.047 0.04 0.045 -0.004 0.009 0.003
O1E 0.051 0.054 0.049 0.007 0.01 0.016
O2E 0.055 0.055 0.049 0.01 0.015 0.013
C7XA 0.053 0.058 0.044 0.012 0.003 0.003
C8XA 0.048 0.047 0.042 0.008 -0.004 0.002
C10XA 0.04 0.047 0.045 0.009 -0.004 0.003
O1XA 0.054 0.051 0.049 0.01 0.007 0.016
O2XA 0.055 0.055 0.049 0.015 0.01 0.013
C7CB 0.058 0.053 0.044 -0.003 -0.012 0.003
C8CB 0.047 0.048 0.042 0.004 -0.008 0.002
C10CB 0.047 0.04 0.045 0.004 -0.009 0.003
O1CB 0.051 0.054 0.049 -0.007 -0.01 0.016
O2CB 0.055 0.055 0.049 -0.01 -0.015 0.013
Cu1C 0.0377 0.0381 0.0377 0 -0.0106 0
Cu1E 0.0377 0.0381 0.0377 0 0.0106 0
Cu1F 0.0381 0.0377 0.0377 0.0106 0 0
Cu2C 0.0402 0.0378 0.0402 0 -0.0133 0
Cu2E 0.0402 0.0378 0.0402 0 0.0133 0
Cu2F 0.0378 0.0402 0.0402 0.0133 0 0
Cu2OA 0.0402 0.0402 0.0378 0 0 -0.0133
N1JA 0.037 0.046 0.046 -0.02 0 0
O1I 0.054 0.049 0.051 -0.01 -0.016 0.007
O1ZA 0.054 0.051 0.049 -0.01 0.007 -0.016
O1KB 0.054 0.049 0.051 -0.01 0.016 -0.007
O2I 0.055 0.049 0.055 -0.015 -0.013 0.01
O2ZA 0.055 0.055 0.049 -0.015 0.01 -0.013
O2KB 0.055 0.049 0.055 -0.015 0.013 -0.01
loop_
_geom_bond_atom_site_label_1
_geom_bond_atom_site_label_2
_geom_bond_site_symmetry_1
_geom_bond_site_symmetry_2
Cu1 Cu2 1_555 1_555
Cu2 O2 1_555 1_555
N1 C1 1_555 1_555
C1 H1 1_555 1_555
C2 C1 1_555 1_555
C3 C2 1_555 1_555
H2 C3 1_555 1_555
C4 C2 1_555 1_555
C5 C4 1_555 1_555
C6 C5 1_555 1_555
C7 C6 1_555 1_555
H3 C7 1_555 1_555
C8 C7 1_555 1_555
C9 C8 1_555 1_555
H4 C9 1_555 1_555
C10 C8 1_555 1_555
O1 Cu1 1_555 1_555
O2 C10 1_555 1_555
O3 Cu1 1_555 1_555
C1E N1 1_555 1_555
H1E C1E 1_555 1_555
C2E C3 1_555 1_555
C4E C2E 1_555 1_555
C5E C4E 1_555 1_555
C6E C5E 1_555 1_555
C7E C6E 1_555 1_555
H3E C7E 1_555 1_555
C8E C7E 1_555 1_555
C9E C8E 1_555 1_555
H4E C9E 1_555 1_555
C10E C8E 1_555 1_555
O1E C10E 1_555 1_555
O2E C10E 1_555 1_555
C7XA C6E 1_555 1_555
H3XA C7XA 1_555 1_555
C8XA C9E 1_555 1_555
C10XA C8XA 1_555 1_555
O1XA C10XA 1_555 1_555
O2XA C10XA 1_555 1_555
C7CB C6 1_555 1_555
H3CB C7CB 1_555 1_555
C8CB C9 1_555 1_555
C10CB C8CB 1_555 1_555
O1CB C10CB 1_555 1_555
O2CB C10CB 1_555 1_555
Cu1C O1CB 1_555 1_555
Cu1E O1E 1_555 1_555
Cu1F O1XA 1_555 1_555
Cu2C O2CB 1_555 1_555
Cu2E O2E 1_555 1_555
Cu2F O2XA 1_555 1_555
Cu2OA N1 1_555 1_555
N1JA Cu2 1_555 1_555
O1I Cu1 1_555 1_555
O1ZA Cu1 1_555 1_555
O1KB Cu1 1_555 1_555
O2I Cu2 1_555 1_555
O2ZA Cu2 1_555 1_555
O2KB Cu2 1_555 1_555
C10 O1 1_555 1_555
C1E C2E 1_555 1_555
C7XA C8XA 1_555 1_555
C7CB C8CB 1_555 1_555
Cu1C Cu2C 1_555 1_555
Cu1E Cu2E 1_555 1_555
Cu1F Cu2F 1_555 1_555

#END
