
#######################################################################
#
#                 Cambridge Crystallographic Data Centre
#                                CCDC 
#
#######################################################################
#
# If this CIF has been generated from an entry in the Cambridge 
# Structural Database, then it will include bibliographic, chemical, 
# crystal, experimental, refinement or atomic coordinate data resulting 
# from the CCDC's data processing and validation procedures.
#
#######################################################################

data_PAMTII
_chemical_formula_moiety         '(C48 H45 Er3 O30)n'
_symmetry_cell_setting           rhombohedral
_symmetry_space_group_name_H-M   'R -3'
_symmetry_Int_Tables_number      148
_space_group_name_Hall           '-R 3'
loop_
_symmetry_equiv_pos_site_id
_symmetry_equiv_pos_as_xyz
1 x,y,z
2 -y,x-y,z
3 -x+y,-x,z
4 2/3+x,1/3+y,1/3+z
5 2/3-y,1/3+x-y,1/3+z
6 2/3-x+y,1/3-x,1/3+z
7 1/3+x,2/3+y,2/3+z
8 1/3-y,2/3+x-y,2/3+z
9 1/3-x+y,2/3-x,2/3+z
10 -x,-y,-z
11 y,-x+y,-z
12 x-y,x,-z
13 1/3-x,2/3-y,2/3-z
14 1/3+y,2/3-x+y,2/3-z
15 1/3+x-y,2/3+x,2/3-z
16 2/3-x,1/3-y,1/3-z
17 2/3+y,1/3-x+y,1/3-z
18 2/3+x-y,1/3+x,1/3-z
_cell_length_a                   19.641(17)
_cell_length_b                   19.641(17)
_cell_length_c                   45.07(3)
_cell_angle_alpha                90
_cell_angle_beta                 90
_cell_angle_gamma                120
_cell_volume                     15057.2
loop_
_atom_site_label
_atom_site_type_symbol
_atom_site_fract_x
_atom_site_fract_y
_atom_site_fract_z
C1 C 0.8990(4) 0.3566(5) -0.01856(16)
C2 C 0.8342(5) 0.2795(5) -0.03072(17)
C3 C 0.7697(4) 0.2300(4) -0.01272(16)
H1 H 0.7680 0.2429 0.0070
C4 C 0.7090(4) 0.1622(4) -0.02464(16)
C5 C 0.7114(5) 0.1412(5) -0.05319(18)
H2 H 0.6709 0.0944 -0.0608
C6 C 0.7756(6) 0.1911(6) -0.07101(18)
C7 C 0.8358(5) 0.2604(5) -0.05964(18)
H3 H 0.8775 0.2940 -0.0718
C8 C 0.7185(7) 0.1119(7) -0.1138(2)
H4 H 0.6718 0.1165 -0.1117
H5 H 0.7084 0.0629 -0.1048
C9 C 0.7389(6) 0.1138(7) -0.1456(2)
C10 C 0.7557(9) 0.0604(8) -0.1579(2)
H6 H 0.7523 0.0194 -0.1464
C11 C 0.7779(9) 0.0671(7) -0.1873(2)
H7 H 0.7904 0.0309 -0.1952
C12 C 0.7819(5) 0.1239(6) -0.20472(17)
C13 C 0.8080(5) 0.1326(6) -0.23621(17)
C14 C 0.7625(8) 0.1763(8) -0.1928(2)
H8 H 0.7654 0.2168 -0.2044
C15 C 0.7386(8) 0.1689(8) -0.1634(3)
H9 H 0.7221 0.2024 -0.1559
C16 C 0.6418(4) 0.1121(4) -0.00531(17)
O1 O 0.9560(3) 0.3955(3) -0.03471(12)
O2 O 0.8883(3) 0.3753(3) 0.00698(12)
O3 O 1.1745(7) 0.6102(9) -0.0608(3)
O4 O 0.8106(4) 0.0765(4) -0.24852(12)
O5 O 1.0569(12) 0.6460(12) -0.0611(4)
O6 O 0.8283(4) 0.1951(4) -0.24958(14)
O8 O 0.6421(3) 0.1286(3) 0.02151(11)
O10 O 0.5836(3) 0.0532(3) -0.01682(12)
O11 O 0.7835(4) 0.1762(4) -0.09985(14)
Er1 Er 1.044827(17) 0.525894(19) -0.040385(6)
C1I C 1.1010(4) 0.6434(5) 0.01856(16)
C1N C 0.8757(6) 0.5657(4) -0.31477(16)
C2I C 1.1658(5) 0.7205(5) 0.03072(17)
C2N C 0.8880(7) 0.5009(5) -0.30261(17)
C3I C 1.2303(4) 0.7700(4) 0.01272(16)
C3N C 0.8730(6) 0.4364(4) -0.32061(16)
H1I H 1.2320 0.7571 -0.0070
H1N H 0.8584 0.4347 -0.3403
C4I C 1.2910(4) 0.8378(4) 0.02464(16)
C4N C 0.8801(6) 0.3757(4) -0.30869(16)
C5I C 1.2886(5) 0.8588(5) 0.05319(18)
C5N C 0.9035(7) 0.3781(5) -0.28014(18)
H2I H 1.3291 0.9056 0.0608
H2N H 0.9098 0.3376 -0.2725
C6I C 1.2244(6) 0.8089(6) 0.07101(18)
C6N C 0.9178(8) 0.4423(6) -0.26232(18)
C7I C 1.1642(5) 0.7396(5) 0.05964(18)
C7N C 0.9087(7) 0.5025(5) -0.27369(18)
H3I H 1.1225 0.7060 0.0718
H3N H 0.9168 0.5442 -0.2615
C8I C 1.2815(7) 0.8881(7) 0.1138(2)
C8N C 0.9399(10) 0.3852(7) -0.2195(2)
H4I H 1.3282 0.8835 0.1117
H4N H 0.8886 0.3385 -0.2216
H5I H 1.2916 0.9371 0.1048
H5N H 0.9788 0.3751 -0.2285
C9I C 1.2611(6) 0.8862(7) 0.1456(2)
C9N C 0.9584(9) 0.4056(6) -0.1877(2)
C10I C 1.2443(9) 0.9396(8) 0.1579(2)
C10N C 1.0286(12) 0.4224(9) -0.1754(2)
H6I H 1.2477 0.9806 0.1464
H6N H 1.0662 0.4190 -0.1869
C11I C 1.2221(9) 0.9329(7) 0.1873(2)
C11N C 1.0441(11) 0.4446(9) -0.1460(2)
H7I H 1.2096 0.9691 0.1952
H7N H 1.0928 0.4571 -0.1381
C12I C 1.2181(5) 0.8761(6) 0.20472(17)
C12N C 0.9913(8) 0.4486(5) -0.12861(17)
C13I C 1.1920(5) 0.8674(6) 0.23621(17)
C13N C 1.0087(8) 0.4747(5) -0.09712(17)
C14I C 1.2375(8) 0.8237(8) 0.1928(2)
C14N C 0.9195(11) 0.4292(8) -0.1405(2)
H8I H 1.2346 0.7832 0.2044
H8N H 0.8819 0.4321 -0.1289
C15I C 1.2614(8) 0.8311(8) 0.1634(3)
C15N C 0.9030(11) 0.4053(8) -0.1699(3)
H9I H 1.2779 0.7976 0.1559
H9N H 0.8530 0.3888 -0.1774
C16I C 1.3582(4) 0.8879(4) 0.00531(17)
C16N C 0.8630(6) 0.3085(4) -0.32802(17)
O1I O 1.0440(3) 0.6045(3) 0.03471(12)
O1N O 0.8938(4) 0.6227(3) -0.29862(12)
O2I O 1.1117(3) 0.6247(3) -0.00698(12)
O2N O 0.8463(4) 0.5550(3) -0.34031(12)
O2H O 0.8203(4) 0.7784(3) -0.32635(12)
O3I O 0.8255(7) 0.3898(9) 0.0608(3)
O3N O 0.8976(11) 0.8412(7) -0.2725(3)
O4I O 1.1894(4) 0.9235(4) 0.24852(12)
O4N O 1.0674(6) 0.4773(4) -0.08481(12)
O4E O 0.9326(6) 0.5227(4) 0.08481(12)
O4A O 0.9235(4) 0.7341(6) -0.24852(12)
O5I O 0.9431(12) 0.3540(12) 0.0611(4)
O5N O 0.7442(17) 0.7236(12) -0.2722(4)
O6I O 1.1717(4) 0.8049(4) 0.24958(14)
O6N O 0.9665(6) 0.4950(4) -0.08375(14)
O6E O 1.0335(6) 0.5050(4) 0.08375(14)
O6A O 0.8049(4) 0.6332(6) -0.24958(14)
O8I O 1.3579(3) 0.8714(3) -0.02151(11)
O8N O 0.8468(4) 0.3088(3) -0.35484(11)
O8J O 1.1286(3) 0.4865(4) -0.02151(11)
O8A O 0.8714(3) 0.5135(4) 0.02151(11)
O8F O 0.9754(3) 0.7953(3) -0.31182(11)
O10I O 1.4164(3) 0.9468(3) 0.01682(12)
O10N O 0.8637(4) 0.2503(3) -0.31651(12)
O10A O 0.9468(3) 0.5304(4) -0.01682(12)
O10J O 1.0532(3) 0.4696(4) 0.01682(12)
O10L O 0.7497(3) 0.6135(3) -0.31651(12)
O10F O 0.9169(3) 0.7199(3) -0.35015(12)
O11I O 1.2165(4) 0.8238(4) 0.09985(14)
O11N O 0.9406(6) 0.4502(4) -0.23348(14)
Er1I Er 0.955173(17) 0.474106(19) 0.040385(6)
Er1N Er 0.852266(25) 0.711494(17) -0.292948(6)
Er1M Er 0.859227(19) 0.147734(25) -0.292948(6)
Er1K Er 0.518933(25) 0.044827(17) 0.040385(6)
Er1B Er 0.481067(25) -0.044827(17) -0.040385(6)
Er1D Er 1.140773(19) 0.852266(25) 0.292948(6)
Er1B_2 Er 1.481067(25) 0.955173(17) -0.040385(6)
Er1K_2 Er 1.518933(25) 1.044827(17) 0.040385(6)
Er1H Er 0.814400(25) 0.621840(17) -0.373718(6)
Er1G Er 0.807439(19) 0.185600(25) -0.373718(6)
O7 O 0.6667 0.3333 -0.0770(9)
O13 O 0.560(2) -0.094(3) -0.1862(10)
O15 O 1.099(2) 0.660(2) -0.1342(9)
loop_
_geom_bond_atom_site_label_1
_geom_bond_atom_site_label_2
_geom_bond_site_symmetry_1
_geom_bond_site_symmetry_2
C1 C2 1_555 1_555
C2 C3 1_555 1_555
C3 H1 1_555 1_555
C4 C3 1_555 1_555
C5 C4 1_555 1_555
H2 C5 1_555 1_555
C6 C5 1_555 1_555
C7 C2 1_555 1_555
H3 C7 1_555 1_555
C8 H4 1_555 1_555
H5 C8 1_555 1_555
C9 C8 1_555 1_555
C10 C9 1_555 1_555
H6 C10 1_555 1_555
C11 C10 1_555 1_555
H7 C11 1_555 1_555
C12 C11 1_555 1_555
C13 C12 1_555 1_555
C14 C12 1_555 1_555
H8 C14 1_555 1_555
C15 C9 1_555 1_555
H9 C15 1_555 1_555
C16 C4 1_555 1_555
O1 C1 1_555 1_555
O2 C1 1_555 1_555
O3 Er1 1_555 1_555
O4 C13 1_555 1_555
O5 Er1 1_555 1_555
O6 C13 1_555 1_555
O8 C16 1_555 1_555
O10 C16 1_555 1_555
O11 C6 1_555 1_555
Er1 O1 1_555 1_555
C1I C2I 1_555 1_555
C1N C2N 1_555 1_555
C2I C3I 1_555 1_555
C2N C3N 1_555 1_555
C3I H1I 1_555 1_555
C3N H1N 1_555 1_555
C4I C3I 1_555 1_555
C4N C3N 1_555 1_555
C5I C4I 1_555 1_555
C5N C4N 1_555 1_555
H2I C5I 1_555 1_555
H2N C5N 1_555 1_555
C6I C5I 1_555 1_555
C6N C5N 1_555 1_555
C7I C2I 1_555 1_555
C7N C2N 1_555 1_555
H3I C7I 1_555 1_555
H3N C7N 1_555 1_555
C8I H4I 1_555 1_555
C8N H4N 1_555 1_555
H5I C8I 1_555 1_555
H5N C8N 1_555 1_555
C9I C8I 1_555 1_555
C9N C8N 1_555 1_555
C10I C9I 1_555 1_555
C10N C9N 1_555 1_555
H6I C10I 1_555 1_555
H6N C10N 1_555 1_555
C11I C10I 1_555 1_555
C11N C10N 1_555 1_555
H7I C11I 1_555 1_555
H7N C11N 1_555 1_555
C12I C11I 1_555 1_555
C12N C11N 1_555 1_555
C13I C12I 1_555 1_555
C13N C12N 1_555 1_555
C14I C12I 1_555 1_555
C14N C12N 1_555 1_555
H8I C14I 1_555 1_555
H8N C14N 1_555 1_555
C15I C9I 1_555 1_555
C15N C9N 1_555 1_555
H9I C15I 1_555 1_555
H9N C15N 1_555 1_555
C16I C4I 1_555 1_555
C16N C4N 1_555 1_555
O1I C1I 1_555 1_555
O1N C1N 1_555 1_555
O2I Er1 1_555 1_555
O2N C1N 1_555 1_555
O2H Er1N 1_555 1_555
O3I Er1I 1_555 1_555
O3N Er1N 1_555 1_555
O4I C13I 1_555 1_555
O4N Er1 1_555 1_555
O4E Er1I 1_555 1_555
O4A Er1N 1_555 1_555
O5I Er1I 1_555 1_555
O5N Er1N 1_555 1_555
O6I C13I 1_555 1_555
O6N Er1 1_555 1_555
O6E Er1I 1_555 1_555
O6A Er1N 1_555 1_555
O8I C16I 1_555 1_555
O8N C16N 1_555 1_555
O8J Er1 1_555 1_555
O8A Er1I 1_555 1_555
O8F Er1N 1_555 1_555
O10I C16I 1_555 1_555
O10N C16N 1_555 1_555
O10A Er1 1_555 1_555
O10J Er1 1_555 1_555
O10L Er1N 1_555 1_555
O10F Er1N 1_555 1_555
O11I C6I 1_555 1_555
O11N C6N 1_555 1_555
Er1I O2 1_555 1_555
Er1N O1N 1_555 1_555
Er1M O4 1_555 1_555
Er1K O8 1_555 1_555
Er1B O10 1_555 1_555
Er1D O4I 1_555 1_555
Er1B_2 O8I 1_555 1_555
Er1K_2 O10I 1_555 1_555
Er1H O2N 1_555 1_555
Er1G O8N 1_555 1_555
C6 C7 1_555 1_555
C8 O11 1_555 1_555
C14 C15 1_555 1_555
O6 Er1M 1_555 1_555
O10 Er1K 1_555 1_555
C1I O2I 1_555 1_555
C6I C7I 1_555 1_555
C6N C7N 1_555 1_555
C8I O11I 1_555 1_555
C8N O11N 1_555 1_555
C13N O4N 1_555 1_555
C13N O6N 1_555 1_555
C14I C15I 1_555 1_555
C14N C15N 1_555 1_555
O1I Er1I 1_555 1_555
O6I Er1D 1_555 1_555
O10I Er1B_2 1_555 1_555
O10N Er1M 1_555 1_555
O10N Er1G 1_555 1_555
O10A Er1I 1_555 1_555
O10J Er1I 1_555 1_555
O10L Er1H 1_555 1_555
O10F Er1H 1_555 1_555

#END
