
#######################################################################
#
#                 Cambridge Crystallographic Data Centre
#                                CCDC 
#
#######################################################################
#
# If this CIF has been generated from an entry in the Cambridge 
# Structural Database, then it will include bibliographic, chemical, 
# crystal, experimental, refinement or atomic coordinate data resulting 
# from the CCDC's data processing and validation procedures.
#
#######################################################################

data_PAMTUU
_chemical_formula_moiety         '(C16 H13 O9 Tb1)n'
_symmetry_cell_setting           rhombohedral
_symmetry_space_group_name_H-M   'R -3'
_symmetry_Int_Tables_number      148
_space_group_name_Hall           '-R 3'
loop_
_symmetry_equiv_pos_site_id
_symmetry_equiv_pos_as_xyz
1 x,y,z
2 -y,x-y,z
3 -x+y,-x,z
4 2/3+x,1/3+y,1/3+z
5 2/3-y,1/3+x-y,1/3+z
6 2/3-x+y,1/3-x,1/3+z
7 1/3+x,2/3+y,2/3+z
8 1/3-y,2/3+x-y,2/3+z
9 1/3-x+y,2/3-x,2/3+z
10 -x,-y,-z
11 y,-x+y,-z
12 x-y,x,-z
13 1/3-x,2/3-y,2/3-z
14 1/3+y,2/3-x+y,2/3-z
15 1/3+x-y,2/3+x,2/3-z
16 2/3-x,1/3-y,1/3-z
17 2/3+y,1/3-x+y,1/3-z
18 2/3+x-y,1/3+x,1/3-z
_cell_length_a                   19.8558(7)
_cell_length_b                   19.8558(7)
_cell_length_c                   45.5011(14)
_cell_angle_alpha                90
_cell_angle_beta                 90
_cell_angle_gamma                120
_cell_volume                     15535.6
loop_
_atom_site_label
_atom_site_type_symbol
_atom_site_fract_x
_atom_site_fract_y
_atom_site_fract_z
C1 C 0.1019(8) -0.3566(5) 0.5187(2)
C2 C 0.1677(8) -0.2797(5) 0.53086(19)
C3 C 0.2314(8) -0.2306(5) 0.5129(2)
H1 H 0.2331 -0.2439 0.4935
C4 C 0.2912(8) -0.1627(5) 0.52441(19)
C5 C 0.2904(9) -0.1426(6) 0.5532(2)
H2 H 0.3312 -0.0968 0.5608
C6 C 0.2271(11) -0.1924(7) 0.5708(2)
C7 C 0.1668(10) -0.2608(6) 0.5599(2)
H3 H 0.1259 -0.2939 0.5721
C8 C 0.2635(13) -0.1167(8) 0.6456(3)
C9 C 0.2466(16) -0.0629(11) 0.6571(4)
H4 H 0.2478 -0.0243 0.6451
C10 C 0.2269(13) -0.0666(9) 0.6875(4)
H5 H 0.2193 -0.0281 0.6958
C11 C 0.2194(10) -0.1268(7) 0.7041(2)
C12 C 0.2394(13) -0.1757(9) 0.6923(3)
H6 H 0.2382 -0.2148 0.7040
C13 C 0.2623(15) -0.1697(10) 0.6630(3)
H7 H 0.2768 -0.2043 0.6557
C14 C 0.3577(8) -0.1128(5) 0.50511(19)
C15 C 0.1933(10) -0.1330(7) 0.7355(2)
O1 O 0.0453(6) -0.3950(4) 0.53487(14)
O2 O 0.1114(6) -0.3745(4) 0.49315(13)
O3 O -0.0529(13) -0.6483(9) 0.5613(4)
O4 O 0.3566(6) -0.1290(4) 0.47825(14)
O5 O -0.1826(23) -0.6046(16) 0.5592(6)
O6 O 0.4158(5) -0.0550(3) 0.51622(13)
O8 O 0.1730(6) -0.1945(4) 0.74892(16)
O10 O 0.1909(6) -0.0771(4) 0.74769(14)
Tb1 Tb -0.04504(3) -0.52626(2) 0.540690(8)
O11 O 0.2290(12) -0.1899(8) 0.6018(3)
C16 C 0.2778(14) -0.1056(9) 0.6123(4)
H8 H 0.3324 -0.0840 0.6075
H9 H 0.2593 -0.0727 0.6041
O2I O -0.1114(6) -0.6255(4) 0.50685(13)
O4J O -0.1290(4) -0.4856(7) 0.52175(14)
O6A O 0.0550(3) -0.5292(6) 0.51622(13)
O6J O -0.0550(3) -0.4708(6) 0.48378(13)
O8Q O 0.0342(7) -0.4937(6) 0.58441(16)
O10Q O -0.0653(7) -0.4758(6) 0.58564(14)
Tb1I Tb 0.04504(3) -0.47374(2) 0.459310(8)
Tb1K Tb 0.48122(4) -0.04504(3) 0.459310(8)
Tb1B Tb 0.51878(4) 0.04504(3) 0.540690(8)
Tb1P Tb 0.14041(2) -0.14789(4) 0.792643(8)
loop_
_geom_bond_atom_site_label_1
_geom_bond_atom_site_label_2
_geom_bond_site_symmetry_1
_geom_bond_site_symmetry_2
C1 C2 1_555 1_555
C2 C3 1_555 1_555
C3 H1 1_555 1_555
C4 C3 1_555 1_555
C5 C4 1_555 1_555
H2 C5 1_555 1_555
C6 C5 1_555 1_555
C7 C2 1_555 1_555
H3 C7 1_555 1_555
C8 C9 1_555 1_555
C9 H4 1_555 1_555
C10 C9 1_555 1_555
H5 C10 1_555 1_555
C11 C10 1_555 1_555
C12 C11 1_555 1_555
H6 C12 1_555 1_555
C13 C8 1_555 1_555
H7 C13 1_555 1_555
C14 C4 1_555 1_555
C15 C11 1_555 1_555
O1 C1 1_555 1_555
O2 C1 1_555 1_555
O3 Tb1 1_555 1_555
O4 C14 1_555 1_555
O5 Tb1 1_555 1_555
O6 C14 1_555 1_555
O8 C15 1_555 1_555
O10 C15 1_555 1_555
Tb1 O1 1_555 1_555
O11 C6 1_555 1_555
C16 C8 1_555 1_555
H8 C16 1_555 1_555
H9 C16 1_555 1_555
O2I Tb1 1_555 1_555
O4J Tb1 1_555 1_555
O6A Tb1 1_555 1_555
O6J Tb1 1_555 1_555
O8Q Tb1 1_555 1_555
O10Q Tb1 1_555 1_555
Tb1I O2 1_555 1_555
Tb1K O4 1_555 1_555
Tb1B O6 1_555 1_555
Tb1P O8 1_555 1_555
C6 C7 1_555 1_555
C12 C13 1_555 1_555
O6 Tb1K 1_555 1_555
O10 Tb1P 1_555 1_555
O11 C16 1_555 1_555
O6A Tb1I 1_555 1_555
O6J Tb1I 1_555 1_555

#END
