
#######################################################################
#
#                 Cambridge Crystallographic Data Centre
#                                CCDC 
#
#######################################################################
#
# If this CIF has been generated from an entry in the Cambridge 
# Structural Database, then it will include bibliographic, chemical, 
# crystal, experimental, refinement or atomic coordinate data resulting 
# from the CCDC's data processing and validation procedures.
#
#######################################################################

data_PAMTOO
_chemical_formula_moiety         '(C48 H39 Dy3 O27)n'
_symmetry_cell_setting           rhombohedral
_symmetry_space_group_name_H-M   'R -3'
_symmetry_Int_Tables_number      148
_space_group_name_Hall           '-R 3'
loop_
_symmetry_equiv_pos_site_id
_symmetry_equiv_pos_as_xyz
1 x,y,z
2 -y,x-y,z
3 -x+y,-x,z
4 2/3+x,1/3+y,1/3+z
5 2/3-y,1/3+x-y,1/3+z
6 2/3-x+y,1/3-x,1/3+z
7 1/3+x,2/3+y,2/3+z
8 1/3-y,2/3+x-y,2/3+z
9 1/3-x+y,2/3-x,2/3+z
10 -x,-y,-z
11 y,-x+y,-z
12 x-y,x,-z
13 1/3-x,2/3-y,2/3-z
14 1/3+y,2/3-x+y,2/3-z
15 1/3+x-y,2/3+x,2/3-z
16 2/3-x,1/3-y,1/3-z
17 2/3+y,1/3-x+y,1/3-z
18 2/3+x-y,1/3+x,1/3-z
_cell_length_a                   19.7921(9)
_cell_length_b                   19.7921(9)
_cell_length_c                   45.3830(17)
_cell_angle_alpha                90
_cell_angle_beta                 90
_cell_angle_gamma                120
_cell_volume                     15396
loop_
_atom_site_label
_atom_site_type_symbol
_atom_site_fract_x
_atom_site_fract_y
_atom_site_fract_z
C1 C 0.4353(6) 0.1256(7) 0.6855(2)
C2 C 0.5010(6) 0.1148(7) 0.69740(19)
C3 C 0.5649(6) 0.1291(6) 0.67981(18)
H1 H 0.5671 0.1442 0.6603
C4 C 0.6240(6) 0.1209(6) 0.69138(18)
C5 C 0.6915(6) 0.1369(6) 0.67196(19)
C6 C 0.6237(7) 0.1009(8) 0.7204(2)
H2 H 0.6656 0.0979 0.7282
C7 C 0.5599(7) 0.0850(9) 0.7377(2)
C8 C 0.4995(7) 0.0944(8) 0.7265(2)
H3 H 0.4585 0.0870 0.7386
C9 C 0.2870(9) 0.2140(13) 0.4788(3)
C10 C 0.2376(12) 0.1599(12) 0.4965(3)
H4 H 0.1900 0.1220 0.4888
C11 C 0.2520(11) 0.1558(11) 0.5258(3)
H5 H 0.2137 0.1171 0.5376
C12 C 0.3212(8) 0.2073(8) 0.5376(2)
C13 C 0.3411(7) 0.2004(7) 0.5693(2)
C14 C 0.3715(12) 0.2659(12) 0.5208(3)
H6 H 0.4174 0.3058 0.5289
C15 C 0.3544(12) 0.2672(14) 0.4902(3)
H7 H 0.3914 0.3063 0.4781
O1 O 0.4451(4) 0.1535(5) 0.65973(13)
O2 O 0.3785(4) 0.1076(5) 0.70165(13)
O3 O 0.3917(10) 0.0779(10) 0.6047(3)
O4 O 0.2989(5) 0.1378(5) 0.58285(15)
O5 O 0.5097(10) 0.2299(10) 0.6056(3)
O6 O 0.3986(5) 0.2561(5) 0.58147(13)
O7 O 0.7494(4) 0.1374(4) 0.68342(13)
O8 O 0.6902(4) 0.1526(5) 0.64520(12)
Dy1 Dy 0.37816(3) 0.18562(3) 0.626160(8)
O9 O 0.5625(8) 0.0862(9) 0.7688(3)
C16 C 0.288(2) 0.2293(17) 0.4456(7)
H8 H 0.3405 0.2598 0.4379
H9 H 0.2580 0.2545 0.4407
C1O C 0.2314(6) 0.2077(7) 0.6478(2)
C1G C 0.2077(7) -0.0236(9) 0.3522(2)
C2O C 0.1657(6) 0.2185(7) 0.63593(19)
C2G C 0.2185(7) 0.0529(9) 0.36407(19)
C3O C 0.1018(6) 0.2042(6) 0.65352(18)
C3G C 0.2042(6) 0.1025(8) 0.34648(18)
H1O H 0.0996 0.1891 0.6730
H1G H 0.1891 0.0896 0.3270
C4G C 0.2124(6) 0.1698(8) 0.35805(18)
C4O C 0.0427(6) 0.2124(6) 0.64195(18)
C5G C 0.1964(6) 0.2213(8) 0.33863(19)
C5O C -0.0248(6) 0.1964(6) 0.66137(19)
C6G C 0.2324(8) 0.1895(11) 0.3871(2)
C6O C 0.0430(7) 0.2324(8) 0.6129(2)
H2G H 0.2354 0.2344 0.3949
H2O H 0.0011 0.2354 0.6051
C7G C 0.2483(9) 0.1416(11) 0.4044(2)
C7O C 0.1068(7) 0.2483(9) 0.5956(2)
C8G C 0.2389(8) 0.0718(11) 0.3932(2)
C8O C 0.1672(7) 0.2389(8) 0.6068(2)
H3G H 0.2463 0.0382 0.4053
H3O H 0.2082 0.2463 0.5947
C9E C 0.5937(16) 0.0463(9) 0.8121(3)
C9K C 0.0730(16) 0.2870(9) 0.5212(3)
C10E C 0.5890(17) 0.0957(12) 0.8298(3)
C10K C 0.0777(17) 0.2376(12) 0.5035(3)
H4E H 0.5987 0.1433 0.8221
H4K H 0.0680 0.1900 0.5112
C11E C 0.5705(16) 0.0813(11) 0.8591(3)
C11K C 0.0962(16) 0.2520(11) 0.4742(3)
H5E H 0.5701 0.1196 0.8709
H5K H 0.0966 0.2137 0.4624
C12E C 0.5528(11) 0.0121(8) 0.8709(2)
C12K C 0.1139(11) 0.3212(8) 0.4624(2)
C13E C 0.5260(10) -0.0078(7) 0.9026(2)
C13K C 0.1407(10) 0.3411(7) 0.4307(2)
C14E C 0.5611(17) -0.0382(12) 0.8541(3)
C14K C 0.1056(17) 0.3715(12) 0.4792(3)
H6E H 0.5551 -0.0841 0.8622
H6K H 0.1116 0.4174 0.4711
C15E C 0.5795(18) -0.0211(12) 0.8235(3)
C15K C 0.0872(18) 0.3544(12) 0.5098(3)
H7E H 0.5816 -0.0581 0.8114
H7K H 0.0851 0.3914 0.5219
O1O O 0.2216(4) 0.1798(5) 0.67360(13)
O1G O 0.1798(5) -0.0417(6) 0.32640(13)
O2O O 0.2882(4) 0.2257(5) 0.63168(13)
O2G O 0.2257(5) -0.0624(6) 0.36832(13)
O2J O 0.1076(5) -0.2709(6) 0.29835(13)
O3O O 0.2750(10) 0.2554(10) 0.7286(3)
O3G O 0.2554(10) -0.0195(14) 0.2714(3)
O4O O 0.3678(5) 0.1955(5) 0.75048(15)
O4E O 0.5056(7) 0.0344(5) 0.91618(15)
O4K O 0.1611(7) 0.2989(5) 0.41715(15)
O4G O 0.1955(5) -0.1722(7) 0.24952(15)
O5O O 0.1570(10) 0.1034(10) 0.7277(3)
O5G O 0.1034(10) -0.0535(14) 0.2723(3)
O6O O 0.2681(5) 0.0772(5) 0.75186(13)
O6E O 0.5242(7) -0.0653(5) 0.91480(13)
O6K O 0.1425(7) 0.3986(5) 0.41853(13)
O6G O 0.0772(5) -0.1908(7) 0.24814(13)
O7Q O 0.2787(6) 0.0827(4) 0.64991(13)
O7B O 0.3880(6) 0.2506(4) 0.68342(13)
O7G O 0.1959(4) 0.2787(6) 0.35009(13)
O7O O -0.0827(4) 0.1959(4) 0.64991(13)
O7F O 0.0827(4) -0.1959(4) 0.35009(13)
O7I O 0.2506(4) -0.1374(4) 0.31658(13)
O8B O 0.4624(6) 0.3098(4) 0.64520(12)
O8Q O 0.2043(6) 0.0235(4) 0.68813(12)
O8G O 0.1807(5) 0.2043(6) 0.31187(12)
O8O O -0.0235(4) 0.1807(5) 0.68813(12)
O8F O 0.0235(4) -0.1807(5) 0.31187(12)
Dy1O Dy 0.28851(3) 0.14771(3) 0.707173(8)
Dy1P Dy 0.85229(3) 0.14079(4) 0.707173(8)
Dy1A Dy 0.81438(3) 0.19254(4) 0.626160(8)
Dy1H Dy 0.14079(4) 0.28851(3) 0.292827(8)
Dy1K Dy 0.19254(4) 0.37816(3) 0.373840(8)
Dy1G Dy 0.14771(3) -0.14079(4) 0.292827(8)
Dy1J Dy 0.18562(3) -0.19254(4) 0.373840(8)
Dy1A_2 Dy -0.18562(3) 0.19254(4) 0.626160(8)
Dy1P_2 Dy -0.14771(3) 0.14079(4) 0.707173(8)
Dy1E Dy 0.47413(4) -0.04483(3) 0.959493(8)
O9G O 0.2471(9) 0.1430(12) 0.4355(3)
O9O O 0.1042(8) 0.2471(9) 0.5645(3)
C16E C 0.6080(26) 0.045(2) 0.7789(7)
C16K C 0.0587(26) 0.288(2) 0.5544(7)
H8E H 0.5860 -0.0072 0.7712
H8K H 0.0807 0.3405 0.5621
H9E H 0.6632 0.0753 0.7740
H9K H 0.0035 0.2580 0.5593
loop_
_geom_bond_atom_site_label_1
_geom_bond_atom_site_label_2
_geom_bond_site_symmetry_1
_geom_bond_site_symmetry_2
C1 C2 1_555 1_555
C2 C3 1_555 1_555
C3 H1 1_555 1_555
C4 C3 1_555 1_555
C5 C4 1_555 1_555
C6 C4 1_555 1_555
H2 C6 1_555 1_555
C7 C6 1_555 1_555
C8 C2 1_555 1_555
H3 C8 1_555 1_555
C9 C10 1_555 1_555
C10 H4 1_555 1_555
C11 C10 1_555 1_555
H5 C11 1_555 1_555
C12 C11 1_555 1_555
C13 C12 1_555 1_555
C14 C12 1_555 1_555
H6 C14 1_555 1_555
C15 C9 1_555 1_555
H7 C15 1_555 1_555
O1 C1 1_555 1_555
O2 C1 1_555 1_555
O3 Dy1 1_555 1_555
O4 C13 1_555 1_555
O5 Dy1 1_555 1_555
O6 C13 1_555 1_555
O7 C5 1_555 1_555
O8 C5 1_555 1_555
Dy1 O1 1_555 1_555
O9 C7 1_555 1_555
C16 C9 1_555 1_555
H8 C16 1_555 1_555
H9 C16 1_555 1_555
C1O C2O 1_555 1_555
C1G C2G 1_555 1_555
C2O C3O 1_555 1_555
C2G C3G 1_555 1_555
C3O H1O 1_555 1_555
C3G H1G 1_555 1_555
C4G C3G 1_555 1_555
C4O C3O 1_555 1_555
C5G C4G 1_555 1_555
C5O C4O 1_555 1_555
C6G C4G 1_555 1_555
C6O C4O 1_555 1_555
H2G C6G 1_555 1_555
H2O C6O 1_555 1_555
C7G C6G 1_555 1_555
C7O C6O 1_555 1_555
C8G C2G 1_555 1_555
C8O C2O 1_555 1_555
H3G C8G 1_555 1_555
H3O C8O 1_555 1_555
C9E C10E 1_555 1_555
C9K C10K 1_555 1_555
C10E H4E 1_555 1_555
C10K H4K 1_555 1_555
C11E C10E 1_555 1_555
C11K C10K 1_555 1_555
H5E C11E 1_555 1_555
H5K C11K 1_555 1_555
C12E C11E 1_555 1_555
C12K C11K 1_555 1_555
C13E C12E 1_555 1_555
C13K C12K 1_555 1_555
C14E C12E 1_555 1_555
C14K C12K 1_555 1_555
H6E C14E 1_555 1_555
H6K C14K 1_555 1_555
C15E C9E 1_555 1_555
C15K C9K 1_555 1_555
H7E C15E 1_555 1_555
H7K C15K 1_555 1_555
O1O C1O 1_555 1_555
O1G C1G 1_555 1_555
O2O Dy1 1_555 1_555
O2G C1G 1_555 1_555
O2J Dy1G 1_555 1_555
O3O Dy1O 1_555 1_555
O3G Dy1G 1_555 1_555
O4O Dy1O 1_555 1_555
O4E C13E 1_555 1_555
O4K C13K 1_555 1_555
O4G Dy1G 1_555 1_555
O5O Dy1O 1_555 1_555
O5G Dy1G 1_555 1_555
O6O Dy1O 1_555 1_555
O6E C13E 1_555 1_555
O6K C13K 1_555 1_555
O6G Dy1G 1_555 1_555
O7Q Dy1 1_555 1_555
O7B Dy1 1_555 1_555
O7G C5G 1_555 1_555
O7O C5O 1_555 1_555
O7F Dy1G 1_555 1_555
O7I Dy1G 1_555 1_555
O8B Dy1 1_555 1_555
O8Q Dy1O 1_555 1_555
O8G C5G 1_555 1_555
O8O C5O 1_555 1_555
O8F Dy1G 1_555 1_555
Dy1O O2 1_555 1_555
Dy1P O7 1_555 1_555
Dy1A O7 1_555 1_555
Dy1H O7G 1_555 1_555
Dy1K O4K 1_555 1_555
Dy1G O1G 1_555 1_555
Dy1J O2G 1_555 1_555
Dy1A_2 O7O 1_555 1_555
Dy1P_2 O7O 1_555 1_555
Dy1E O4E 1_555 1_555
O9G C16 1_555 1_555
O9O C7O 1_555 1_555
C16E O9 1_555 1_555
C16K C9K 1_555 1_555
H8E C16E 1_555 1_555
H8K C16K 1_555 1_555
H9E C16E 1_555 1_555
H9K C16K 1_555 1_555
C7 C8 1_555 1_555
C14 C15 1_555 1_555
O4 Dy1 1_555 1_555
O6 Dy1 1_555 1_555
O8 Dy1A 1_555 1_555
C1O O2O 1_555 1_555
C7G C8G 1_555 1_555
C7G O9G 1_555 1_555
C7O C8O 1_555 1_555
C9E C16E 1_555 1_555
C14E C15E 1_555 1_555
C14K C15K 1_555 1_555
O1O Dy1O 1_555 1_555
O6E Dy1E 1_555 1_555
O6K Dy1K 1_555 1_555
O7Q Dy1O 1_555 1_555
O7B Dy1O 1_555 1_555
O7G Dy1K 1_555 1_555
O7F Dy1J 1_555 1_555
O7I Dy1J 1_555 1_555
O8G Dy1H 1_555 1_555
O8O Dy1P_2 1_555 1_555
O9O C16K 1_555 1_555

#END
