
#######################################################################
#
#                 Cambridge Crystallographic Data Centre
#                                CCDC 
#
#######################################################################
#
# If this CIF has been generated from an entry in the Cambridge 
# Structural Database, then it will include bibliographic, chemical, 
# crystal, experimental, refinement or atomic coordinate data resulting 
# from the CCDC's data processing and validation procedures.
#
#######################################################################

data_FEHCOM
_chemical_formula_moiety         '(C24 H20 N4 O4 Zn2)n'
_symmetry_cell_setting           orthorhombic
_symmetry_space_group_name_H-M   'I b c a'
_symmetry_Int_Tables_number      73
_space_group_name_Hall           '-I 2b 2c'
loop_
_symmetry_equiv_pos_site_id
_symmetry_equiv_pos_as_xyz
1 x,y,z
2 1/2-x,-y,1/2+z
3 -x,1/2+y,1/2-z
4 1/2+x,1/2-y,-z
5 1/2+x,1/2+y,1/2+z
6 -x,1/2-y,z
7 1/2-x,y,-z
8 x,-y,1/2-z
9 -x,-y,-z
10 1/2+x,y,1/2-z
11 x,1/2-y,1/2+z
12 1/2-x,1/2+y,z
13 1/2-x,1/2-y,1/2-z
14 x,1/2+y,-z
15 1/2+x,-y,z
16 -x,y,1/2+z
_cell_length_a                   13.9249(12)
_cell_length_b                   23.653(2)
_cell_length_c                   23.637(2)
_cell_angle_alpha                90
_cell_angle_beta                 90
_cell_angle_gamma                90
_cell_volume                     7785.22
loop_
_atom_site_label
_atom_site_type_symbol
_atom_site_fract_x
_atom_site_fract_y
_atom_site_fract_z
_atom_site_U_iso_or_equiv
_atom_site_thermal_displace_type
Zn1 Zn 0.37948(3) 0.22384(2) 0.50696(2) 0.0324 Uani
O1 O 0.4499(3) 0.21376(19) 0.57892(15) 0.0590 Uani
O2 O 0.3138(4) 0.29446(19) 0.52944(17) 0.0740 Uani
N1 N 0.4532(3) 0.2601(2) 0.93861(19) 0.0500 Uani
N2 N 0.3001(2) 0.65506(15) 0.49768(18) 0.0329 Uani
C1 C 0.5000 0.2500 0.6036(4) 0.0523 Uani
C2 C 0.5000 0.2500 0.6659(4) 0.0447 Uani
C3 C 0.4378(5) 0.2161(4) 0.6962(2) 0.0783 Uani
H1 H 0.3960 0.1921 0.6770 0.0940 Uiso
C4 C 0.4369(6) 0.2173(4) 0.7565(3) 0.0943 Uani
H2 H 0.3923 0.1954 0.7758 0.1130 Uiso
C5 C 0.5000 0.2500 0.7867(4) 0.0510 Uani
C6 C 0.5000 0.2500 0.8478(4) 0.0493 Uani
C7 C 0.4237(5) 0.2652(3) 0.8847(3) 0.0647 Uani
C8 C 0.3255(5) 0.2849(5) 0.8684(3) 0.1067 Uani
H3 H 0.2875 0.2905 0.9019 0.1590 Uiso
H4 H 0.2955 0.2570 0.8448 0.1590 Uiso
H5 H 0.3304 0.3199 0.8481 0.1590 Uiso
C9 C 0.2500 0.3197(3) 0.5000 0.0490 Uani
C10 C 0.2500 0.3828(3) 0.5000 0.0427 Uani
C11 C 0.3090(5) 0.4124(3) 0.5364(3) 0.0643 Uani
H6 H 0.3495 0.3929 0.5608 0.0770 Uiso
C12 C 0.3087(5) 0.4710(3) 0.5369(4) 0.0690 Uani
H7 H 0.3482 0.4900 0.5623 0.0830 Uiso
C13 C 0.2500 0.5023(3) 0.5000 0.0460 Uani
C14 C 0.2500 0.5645(3) 0.5000 0.0430 Uani
C15 C 0.3288(3) 0.60119(19) 0.4947(3) 0.0420 Uani
C16 C 0.4343(4) 0.5874(3) 0.4898(4) 0.0803 Uani
H8 H 0.4706 0.6219 0.4878 0.1200 Uiso
H9 H 0.4452 0.5655 0.4562 0.1200 Uiso
H10 H 0.4543 0.5661 0.5223 0.1200 Uiso
Zn1E Zn 0.62052(3) 0.27616(2) 0.50696(2) 0.0324 Uani
Zn1J Zn 0.37948(3) 0.27616(2) 1.00696(2) 0.0324 Uani
Zn1M Zn 0.37948(3) 0.72384(2) 0.49304(2) 0.0324 Uani
Zn1O Zn 0.62052(3) 0.22384(2) 1.00696(2) 0.0324 Uani
Zn1F Zn 0.12052(3) 0.22384(2) 0.49304(2) 0.0324 Uani
Zn1K Zn 0.12052(3) 0.72384(2) 0.50696(2) 0.0324 Uani
O1E O 0.5501(3) 0.28624(19) 0.57892(15) 0.0590 Uani
O2F O 0.1862(4) 0.29446(19) 0.47056(17) 0.0740 Uani
O2E O 0.6862(4) 0.20554(19) 0.52944(17) 0.0740 Uani
N1E N 0.5468(3) 0.2399(2) 0.93861(19) 0.0500 Uani
N1J N 0.4532(3) 0.2399(2) 0.43861(19) 0.0500 Uani
N1O N 0.5468(3) 0.2601(2) 0.43861(19) 0.0500 Uani
N2F N 0.1999(2) 0.65506(15) 0.50232(18) 0.0329 Uani
N2M N 0.3001(2) 0.15506(15) 0.50232(18) 0.0329 Uani
N2H N 0.6999(2) 0.34494(15) 0.50232(18) 0.0329 Uani
C3E C 0.5622(5) 0.2839(4) 0.6962(2) 0.0783 Uani
H1E H 0.6040 0.3079 0.6770 0.0940 Uiso
C4E C 0.5631(6) 0.2827(4) 0.7565(3) 0.0943 Uani
H2E H 0.6077 0.3046 0.7758 0.1130 Uiso
C7E C 0.5763(5) 0.2348(3) 0.8847(3) 0.0647 Uani
C8E C 0.6745(5) 0.2151(5) 0.8684(3) 0.1067 Uani
H3E H 0.7125 0.2095 0.9019 0.1590 Uiso
H4E H 0.7045 0.2430 0.8448 0.1590 Uiso
H5E H 0.6696 0.1801 0.8481 0.1590 Uiso
C11F C 0.1910(5) 0.4124(3) 0.4636(3) 0.0643 Uani
H6F H 0.1505 0.3929 0.4392 0.0770 Uiso
C12F C 0.1913(5) 0.4710(3) 0.4631(4) 0.0690 Uani
H7F H 0.1518 0.4900 0.4377 0.0830 Uiso
C15F C 0.1712(3) 0.60119(19) 0.5053(3) 0.0420 Uani
C16F C 0.0657(4) 0.5874(3) 0.5102(4) 0.0803 Uani
H8F H 0.0294 0.6219 0.5122 0.1200 Uiso
H9F H 0.0548 0.5655 0.5438 0.1200 Uiso
H10F H 0.0457 0.5661 0.4777 0.1200 Uiso
loop_
_atom_site_aniso_label
_atom_site_aniso_U_11
_atom_site_aniso_U_22
_atom_site_aniso_U_33
_atom_site_aniso_U_23
_atom_site_aniso_U_13
_atom_site_aniso_U_12
Zn1 0.0379(3) 0.0251(3) 0.0343(3) -0.0014(3) -0.0002(2) -0.0048(2)
O1 0.076(3) 0.067(3) 0.0341(19) -0.0004(18) -0.0098(18) -0.009(2)
O2 0.135(4) 0.028(2) 0.059(3) -0.0034(17) 0.006(3) 0.013(3)
N1 0.045(3) 0.078(4) 0.027(2) -0.009(2) 0.000(2) 0.018(2)
N2 0.0300(17) 0.0227(18) 0.046(2) 0.0013(18) -0.0029(18) -0.0010(14)
C1 0.087(7) 0.035(4) 0.035(5) 0.000 0.000 0.005(4)
C2 0.048(5) 0.060(6) 0.026(4) 0.000 0.000 -0.004(4)
C3 0.082(5) 0.121(7) 0.032(3) 0.011(4) -0.005(3) -0.028(5)
C4 0.088(5) 0.154(8) 0.041(3) 0.017(5) 0.006(4) -0.039(6)
C5 0.053(6) 0.065(6) 0.035(4) 0.000 0.000 0.001(4)
C6 0.053(6) 0.057(6) 0.038(5) 0.000 0.000 0.000(4)
C7 0.055(4) 0.093(6) 0.046(4) 0.009(3) 0.001(3) 0.028(4)
C8 0.064(4) 0.213(11) 0.043(4) 0.014(5) -0.001(3) 0.034(6)
C9 0.080(5) 0.021(3) 0.046(4) 0.000 0.012(4) 0.000
C10 0.054(4) 0.013(3) 0.061(5) 0.000 -0.005(4) 0.000
C11 0.070(5) 0.036(4) 0.087(5) 0.008(3) -0.014(4) 0.008(3)
C12 0.070(5) 0.024(3) 0.113(6) -0.004(3) -0.017(4) 0.000(3)
C13 0.056(5) 0.013(3) 0.069(6) 0.000 -0.007(4) 0.000
C14 0.040(4) 0.013(3) 0.076(5) 0.000 -0.013(4) 0.000
C15 0.036(2) 0.015(2) 0.075(4) 0.006(2) 0.012(3) 0.0002(19)
C16 0.040(3) 0.039(3) 0.162(7) -0.002(4) 0.011(4) 0.000(3)
Zn1E 0.0379 0.0251 0.0343 0.0014 0.0002 -0.0048
Zn1J 0.0379 0.0251 0.0343 0.0014 -0.0002 0.0048
Zn1M 0.0379 0.0251 0.0343 0.0014 0.0002 -0.0048
Zn1O 0.0379 0.0251 0.0343 -0.0014 0.0002 0.0048
Zn1F 0.0379 0.0251 0.0343 0.0014 -0.0002 0.0048
Zn1K 0.0379 0.0251 0.0343 -0.0014 0.0002 0.0048
O1E 0.076 0.067 0.0341 0.0004 0.0098 -0.009
O2F 0.135 0.028 0.059 0.0034 0.006 -0.013
O2E 0.135 0.028 0.059 0.0034 -0.006 0.013
N1E 0.045 0.078 0.027 0.009 0 0.018
N1J 0.045 0.078 0.027 0.009 0 -0.018
N1O 0.045 0.078 0.027 -0.009 0 -0.018
N2F 0.03 0.0227 0.046 -0.0013 -0.0029 0.001
N2M 0.03 0.0227 0.046 -0.0013 0.0029 -0.001
N2H 0.03 0.0227 0.046 0.0013 -0.0029 -0.001
C3E 0.082 0.121 0.032 -0.011 0.005 -0.028
C4E 0.088 0.154 0.041 -0.017 -0.006 -0.039
C7E 0.055 0.093 0.046 -0.009 -0.001 0.028
C8E 0.064 0.213 0.043 -0.014 0.001 0.034
C11F 0.07 0.036 0.087 -0.008 -0.014 -0.008
C12F 0.07 0.024 0.113 0.004 -0.017 0
C15F 0.036 0.015 0.075 -0.006 0.012 -0.0002
C16F 0.04 0.039 0.162 0.002 0.011 0
loop_
_geom_bond_atom_site_label_1
_geom_bond_atom_site_label_2
_geom_bond_site_symmetry_1
_geom_bond_site_symmetry_2
Zn1 O1 1_555 1_555
O1 C1 1_555 1_555
O2 Zn1 1_555 1_555
N1 C7 1_555 1_555
N2 C15 1_555 1_555
C1 C2 1_555 1_555
C2 C3 1_555 1_555
C3 H1 1_555 1_555
C4 C3 1_555 1_555
H2 C4 1_555 1_555
C5 C4 1_555 1_555
C6 C5 1_555 1_555
C7 C6 1_555 1_555
C8 C7 1_555 1_555
H3 C8 1_555 1_555
H4 C8 1_555 1_555
H5 C8 1_555 1_555
C9 O2 1_555 1_555
C10 C9 1_555 1_555
C11 C10 1_555 1_555
H6 C11 1_555 1_555
C12 C11 1_555 1_555
H7 C12 1_555 1_555
C13 C12 1_555 1_555
C14 C13 1_555 1_555
C15 C14 1_555 1_555
C16 C15 1_555 1_555
H8 C16 1_555 1_555
H9 C16 1_555 1_555
H10 C16 1_555 1_555
Zn1E O1E 1_555 1_555
Zn1J N1 1_555 1_555
Zn1M N2 1_555 1_555
Zn1O N1E 1_555 1_555
Zn1F O2F 1_555 1_555
Zn1K N2F 1_555 1_555
O1E C1 1_555 1_555
O2F C9 1_555 1_555
O2E Zn1E 1_555 1_555
N1E N1 1_555 1_555
N1J Zn1 1_555 1_555
N1O Zn1E 1_555 1_555
N2F N2 1_555 1_555
N2M Zn1 1_555 1_555
N2H Zn1E 1_555 1_555
C3E C2 1_555 1_555
H1E C3E 1_555 1_555
C4E C5 1_555 1_555
H2E C4E 1_555 1_555
C7E C6 1_555 1_555
C8E C7E 1_555 1_555
H3E C8E 1_555 1_555
H4E C8E 1_555 1_555
H5E C8E 1_555 1_555
C11F C10 1_555 1_555
H6F C11F 1_555 1_555
C12F C13 1_555 1_555
H7F C12F 1_555 1_555
C15F C14 1_555 1_555
C16F C15F 1_555 1_555
H8F C16F 1_555 1_555
H9F C16F 1_555 1_555
H10F C16F 1_555 1_555
N1E C7E 1_555 1_555
N1J N1O 1_555 1_555
N2F C15F 1_555 1_555
C3E C4E 1_555 1_555
C11F C12F 1_555 1_555

#END
