
#######################################################################
#
#                 Cambridge Crystallographic Data Centre
#                                CCDC 
#
#######################################################################
#
# If this CIF has been generated from an entry in the Cambridge 
# Structural Database, then it will include bibliographic, chemical, 
# crystal, experimental, refinement or atomic coordinate data resulting 
# from the CCDC's data processing and validation procedures.
#
#######################################################################

data_OPAPUR
_chemical_formula_moiety         '(C30 H54 Dy2 N24 O21 S6)n'
_symmetry_cell_setting           triclinic
_symmetry_space_group_name_H-M   'P -1'
_symmetry_Int_Tables_number      2
_space_group_name_Hall           '-P 1'
loop_
_symmetry_equiv_pos_site_id
_symmetry_equiv_pos_as_xyz
1 x,y,z
2 -x,-y,-z
_cell_length_a                   9.4504(19)
_cell_length_b                   11.458(2)
_cell_length_c                   14.579(3)
_cell_angle_alpha                69.86(3)
_cell_angle_beta                 85.46(3)
_cell_angle_gamma                86.30(3)
_cell_volume                     1476.3
loop_
_atom_site_label
_atom_site_type_symbol
_atom_site_fract_x
_atom_site_fract_y
_atom_site_fract_z
Dy1 Dy 1.202778(12) 0.045324(11) -0.002600(9)
S1 S 0.95117(9) -0.22563(9) -0.23646(6)
S2 S 1.43126(8) 0.36479(7) 0.15007(6)
S3 S 1.22495(9) -0.26350(9) 0.24809(6)
O1 O 1.1720(2) -0.0424(2) -0.12470(15)
O2 O 1.0511(2) -0.11549(18) 0.07533(15)
O3 O 0.8724(2) -0.23856(19) 0.12328(16)
O4 O 0.9494(2) -0.1077(2) -0.10690(16)
C1 C 1.0748(3) -0.0978(3) -0.1432(2)
C2 C 1.1144(4) -0.1972(3) 0.3194(2)
N1 N 1.6903(3) 0.4676(2) 0.09458(18)
N2 N 1.7926(3) 0.3681(3) 0.0023(2)
N3 N 0.9240(3) -0.3472(3) -0.36184(19)
N4 N 0.9780(3) -0.2046(3) 0.3384(2)
C3 C 0.9986(3) -0.2173(3) 0.1276(2)
C4 C 1.0902(3) -0.3183(3) 0.1952(2)
H1 H 1.1354 -0.3689 0.1589
H2 H 1.0294 -0.3715 0.2477
N5 N 1.6562(3) 0.3252(3) 0.0325(2)
N6 N 1.1699(3) -0.1281(3) 0.36683(19)
N7 N 1.6619(3) 0.5474(3) 0.1497(2)
H3 H 1.666(4) 0.616(4) 0.111(3)
H4 H 1.726(4) 0.528(4) 0.194(3)
C5 C 1.0725(4) -0.0180(3) 0.4808(3)
H5 H 1.1225 0.0567 0.4437
H6 H 1.1283 -0.0654 0.5356
C6 C 1.0163(4) -0.3036(3) -0.3152(2)
N8 N 0.7767(3) -0.3218(4) -0.3587(3)
H7 H 0.7241 -0.3454 -0.3941
H8 H 0.7390 -0.2827 -0.3214
C7 C 1.1119(3) -0.1600(3) -0.2197(2)
H9 H 1.1463 -0.0994 -0.2809
H10 H 1.1852 -0.2248 -0.1973
N9 N 0.9417(3) -0.1372(3) 0.4018(2)
N10 N 1.1372(4) -0.3994(4) -0.4027(3)
C8 C 1.0578(4) -0.0937(3) 0.4172(2)
N11 N 1.1457(3) -0.3334(4) -0.3373(3)
C9 C 1.0046(4) -0.4066(3) -0.4145(2)
C10 C 0.9430(4) -0.4700(3) -0.4755(2)
H11 H 0.8795 -0.5330 -0.4343
H12 H 0.8877 -0.4097 -0.5250
N12 N 1.3102(3) -0.0928(3) 0.3616(3)
H13 H 1.3315 -0.0448 0.3923
H14 H 1.3750 -0.1190 0.3278
O5 O 1.3133(2) 0.2221(2) 0.02951(16)
O6 O 1.3527(2) 0.03433(19) 0.13347(16)
C11 C 1.4217(3) 0.1986(3) 0.1807(2)
H15 H 1.5172 0.1623 0.1914
H16 H 1.3664 0.1669 0.2425
C12 C 1.3589(3) 0.1518(3) 0.1078(2)
C13 C 1.5979(3) 0.3852(3) 0.0882(2)
C14 C 1.8097(3) 0.4545(3) 0.0396(2)
C15 C 1.9406(3) 0.5253(3) 0.0274(2)
H17 H 1.9707 0.5185 0.0912
H18 H 1.9206 0.6125 -0.0086
O7 O 1.3696(2) -0.12334(19) 0.01893(15)
H19 H 1.3728 -0.1915 0.0053
H20 H 1.4290 -0.1583 0.0708
O8 O 1.3988(3) 0.1182(3) -0.12679(18)
H21 H 1.438(4) 0.075(4) -0.139(3)
H22 H 1.369(5) 0.169(5) -0.183(4)
Dy1A Dy 0.797222(12) -1.045324(11) -0.997400(9)
Dy1A_2 Dy 0.797222(12) -0.045324(11) 0.002600(9)
Dy1_2 Dy 1.202778(12) -0.954676(11) -1.002600(9)
Dy1A_3 Dy 2.797222(12) 0.954676(11) 0.002600(9)
Dy1A_4 Dy 0.797222(12) -0.045324(11) 1.002600(9)
Dy1_3 Dy 1.202778(12) 0.045324(11) 0.997400(9)
S1A S 1.04883(9) -0.77437(9) -0.76354(6)
S2A S 2.56874(8) 0.63521(7) -0.15007(6)
S3A S 0.77505(9) 0.26350(9) 0.75191(6)
O1A O 0.8280(2) -0.9576(2) -0.87530(15)
O1A_2 O 0.8280(2) 0.0424(2) 0.12470(15)
O2A O 0.9489(2) 0.11549(18) 0.92467(15)
O2A_2 O 0.9489(2) 0.11549(18) -0.07533(15)
O3A O 1.1276(2) 0.23856(19) 0.87672(16)
O3A_2 O 1.1276(2) 0.23856(19) -0.12328(16)
O4A O 1.0506(2) -0.8923(2) -0.89310(16)
O4A_2 O 1.0506(2) 0.1077(2) 0.10690(16)
C1A C 0.9252(3) -0.9022(3) -0.8568(2)
C2A C 0.8856(4) 0.1972(3) 0.6806(2)
N1A N 2.3097(3) 0.5324(2) -0.09458(18)
N2A N 2.2074(3) 0.6319(3) -0.0023(2)
N3A N 1.0760(3) -0.6528(3) -0.63816(19)
N4A N 1.0220(3) 0.2046(3) 0.6616(2)
C3A C 1.0014(3) 0.2173(3) 0.8724(2)
C4A C 0.9098(3) 0.3183(3) 0.8048(2)
H1A H 0.8646 0.3689 0.8411
H2A H 0.9706 0.3715 0.7523
N5A N 2.3438(3) 0.6748(3) -0.0325(2)
N6A N 0.8301(3) 0.1281(3) 0.63317(19)
N7A N 2.3381(3) 0.4526(3) -0.1497(2)
H3A H 2.334(4) 0.384(4) -0.111(3)
H4A H 2.274(4) 0.472(4) -0.194(3)
C5A C 0.9275(4) 0.0180(3) 0.5192(3)
H5A H 0.8775 -0.0567 0.5563
H6A H 0.8717 0.0654 0.4644
C6A C 0.9837(4) -0.6964(3) -0.6848(2)
N8A N 1.2233(3) -0.6782(4) -0.6413(3)
H7A H 1.2759 -0.6546 -0.6059
H8A H 1.2610 -0.7173 -0.6786
C7A C 0.8881(3) -0.8400(3) -0.7803(2)
H9A H 0.8537 -0.9006 -0.7191
H10A H 0.8148 -0.7752 -0.8027
N9A N 1.0583(3) 0.1372(3) 0.5982(2)
N10A N 0.8628(4) -0.6006(4) -0.5973(3)
C8A C 0.9422(4) 0.0937(3) 0.5828(2)
N11A N 0.8543(3) -0.6666(4) -0.6627(3)
C9A C 0.9954(4) -0.5934(3) -0.5855(2)
C10A C 1.0570(4) -0.5300(3) -0.5245(2)
H11A H 1.1205 -0.4670 -0.5657
H12A H 1.1123 -0.5903 -0.4750
N12A N 0.6898(3) 0.0928(3) 0.6384(3)
H13A H 0.6685 0.0448 0.6077
H14A H 0.6250 0.1190 0.6722
O5A O 2.6867(2) 0.7779(2) -0.02951(16)
O5A_2 O 0.6867(2) -0.2221(2) -0.02951(16)
O6A O 2.6473(2) 0.96567(19) -0.13347(16)
O6A_2 O 0.6473(2) -0.03433(19) -0.13347(16)
C11A C 2.5783(3) 0.8014(3) -0.1807(2)
H15A H 2.4828 0.8377 -0.1914
H16A H 2.6336 0.8331 -0.2425
C12A C 2.6411(3) 0.8482(3) -0.1078(2)
C13A C 2.4021(3) 0.6148(3) -0.0882(2)
C14A C 2.1903(3) 0.5455(3) -0.0396(2)
C15A C 2.0594(3) 0.4747(3) -0.0274(2)
H17A H 2.0293 0.4815 -0.0912
H18A H 2.0794 0.3875 0.0086
O7A O 0.6304(2) 0.12334(19) -0.01893(15)
H19A H 0.6272 0.1915 -0.0053
H20A H 0.5710 0.1583 -0.0708
O8A O 0.6012(3) -0.1182(3) 0.12679(18)
H21A H 0.562(4) -0.075(4) 0.139(3)
H22A H 0.631(5) -0.169(5) 0.183(4)
O9 O 1.3219(4) 0.2654(4) -0.3074(2)
O10 O 0.6025(5) 0.3594(4) 0.5251(3)
O11 O 1.4579(4) 0.4866(4) 0.3489(3)
O12 O 0.5900(6) 0.1640(7) 0.3893(4)
O13 O 0.6383(6) -0.1173(7) 0.4405(5)
loop_
_geom_bond_atom_site_label_1
_geom_bond_atom_site_label_2
_geom_bond_site_symmetry_1
_geom_bond_site_symmetry_2
Dy1 O1 1_555 1_555
S1 C6 1_555 1_555
S2 C11 1_555 1_555
S3 C2 1_555 1_555
O1 C1 1_555 1_555
O2 Dy1 1_555 1_555
O3 C3 1_555 1_555
O4 C1 1_555 1_555
C1 C7 1_555 1_555
C2 N4 1_555 1_555
N1 N7 1_555 1_555
N2 N5 1_555 1_555
N3 C6 1_555 1_555
N4 N9 1_555 1_555
C3 O2 1_555 1_555
C4 S3 1_555 1_555
H1 C4 1_555 1_555
H2 C4 1_555 1_555
N5 C13 1_555 1_555
N6 C2 1_555 1_555
N7 H3 1_555 1_555
H4 N7 1_555 1_555
C5 H5 1_555 1_555
H6 C5 1_555 1_555
C6 N11 1_555 1_555
N8 N3 1_555 1_555
H7 N8 1_555 1_555
H8 N8 1_555 1_555
C7 S1 1_555 1_555
H9 C7 1_555 1_555
H10 C7 1_555 1_555
N9 C8 1_555 1_555
N10 N11 1_555 1_555
C8 N6 1_555 1_555
C9 N3 1_555 1_555
C10 C9 1_555 1_555
H11 C10 1_555 1_555
H12 C10 1_555 1_555
N12 N6 1_555 1_555
H13 N12 1_555 1_555
H14 N12 1_555 1_555
O5 Dy1 1_555 1_555
O6 Dy1 1_555 1_555
C11 H15 1_555 1_555
H16 C11 1_555 1_555
C12 O5 1_555 1_555
C13 S2 1_555 1_555
C14 N1 1_555 1_555
C15 C14 1_555 1_555
H17 C15 1_555 1_555
H18 C15 1_555 1_555
O7 Dy1 1_555 1_555
H19 O7 1_555 1_555
H20 O7 1_555 1_555
O8 Dy1 1_555 1_555
H21 O8 1_555 1_555
H22 O8 1_555 1_555
Dy1A O1A 1_555 1_555
Dy1A_2 O2 1_555 1_555
Dy1_2 O4A 1_555 1_555
Dy1A_3 O5A 1_555 1_555
Dy1A_4 O2A 1_555 1_555
Dy1_3 O2A 1_555 1_555
S1A C6A 1_555 1_555
S2A C11A 1_555 1_555
S3A C2A 1_555 1_555
O1A C1A 1_555 1_555
O1A_2 Dy1A_2 1_555 1_555
O2A C3A 1_555 1_555
O2A_2 Dy1 1_555 1_555
O3A Dy1_3 1_555 1_555
O3A_2 Dy1 1_555 1_555
O4A C1A 1_555 1_555
O4A_2 Dy1 1_555 1_555
C1A C7A 1_555 1_555
C2A N4A 1_555 1_555
N1A N7A 1_555 1_555
N2A N5A 1_555 1_555
N3A C6A 1_555 1_555
N4A N9A 1_555 1_555
C3A O3A 1_555 1_555
C4A S3A 1_555 1_555
H1A C4A 1_555 1_555
H2A C4A 1_555 1_555
N5A C13A 1_555 1_555
N6A C2A 1_555 1_555
N7A H3A 1_555 1_555
H4A N7A 1_555 1_555
C5A C5 1_555 1_555
H5A C5A 1_555 1_555
H6A C5A 1_555 1_555
C6A N11A 1_555 1_555
N8A N3A 1_555 1_555
H7A N8A 1_555 1_555
H8A N8A 1_555 1_555
C7A S1A 1_555 1_555
H9A C7A 1_555 1_555
H10A C7A 1_555 1_555
N9A C8A 1_555 1_555
N10A N11A 1_555 1_555
C8A N6A 1_555 1_555
C9A N3A 1_555 1_555
C10A C10 1_555 1_555
H11A C10A 1_555 1_555
H12A C10A 1_555 1_555
N12A N6A 1_555 1_555
H13A N12A 1_555 1_555
H14A N12A 1_555 1_555
O5A C12A 1_555 1_555
O5A_2 Dy1A_2 1_555 1_555
O6A Dy1A_3 1_555 1_555
O6A_2 Dy1A_2 1_555 1_555
C11A H15A 1_555 1_555
H16A C11A 1_555 1_555
C12A O6A 1_555 1_555
C13A S2A 1_555 1_555
C14A N1A 1_555 1_555
C15A C15 1_555 1_555
H17A C15A 1_555 1_555
H18A C15A 1_555 1_555
O7A Dy1A_2 1_555 1_555
H19A O7A 1_555 1_555
H20A O7A 1_555 1_555
O8A Dy1A_2 1_555 1_555
H21A O8A 1_555 1_555
H22A O8A 1_555 1_555
O3 Dy1A_2 1_555 1_555
O4 Dy1A_2 1_555 1_555
N1 C13 1_555 1_555
N2 C14 1_555 1_555
C3 C4 1_555 1_555
C5 C8 1_555 1_555
N10 C9 1_555 1_555
O6 C12 1_555 1_555
C11 C12 1_555 1_555
Dy1A_2 O2A_2 1_555 1_555
N1A C13A 1_555 1_555
N2A C14A 1_555 1_555
C3A C4A 1_555 1_555
C5A C8A 1_555 1_555
N10A C9A 1_555 1_555
C9A C10A 1_555 1_555
C11A C12A 1_555 1_555
C14A C15A 1_555 1_555

#END
