
#######################################################################
#
#                 Cambridge Crystallographic Data Centre
#                                CCDC 
#
#######################################################################
#
# If this CIF has been generated from an entry in the Cambridge 
# Structural Database, then it will include bibliographic, chemical, 
# crystal, experimental, refinement or atomic coordinate data resulting 
# from the CCDC's data processing and validation procedures.
#
#######################################################################

data_HAWVUY
_chemical_formula_moiety         '(C17 H18 N1 O9 S2 Tb1)n'
_symmetry_cell_setting           monoclinic
_symmetry_space_group_name_H-M   'P 21/c'
_symmetry_Int_Tables_number      14
_space_group_name_Hall           '-P 2ybc'
loop_
_symmetry_equiv_pos_site_id
_symmetry_equiv_pos_as_xyz
1 x,y,z
2 -x,1/2+y,1/2-z
3 -x,-y,-z
4 x,1/2-y,1/2+z
_cell_length_a                   11.6017(2)
_cell_length_b                   16.2188(3)
_cell_length_c                   12.0231(2)
_cell_angle_alpha                90
_cell_angle_beta                 112.5710(10)
_cell_angle_gamma                90
_cell_volume                     2089.05
loop_
_atom_site_label
_atom_site_type_symbol
_atom_site_fract_x
_atom_site_fract_y
_atom_site_fract_z
Tb1 Tb 0.19438(2) 0.027509(15) 0.07881(2)
S1 S 0.05305(13) 0.21923(9) -0.28745(14)
S2 S 0.49007(14) 0.28327(9) 0.25105(14)
O1 O 0.1306(3) 0.0768(2) -0.1205(3)
O2 O -0.0617(4) 0.0305(2) -0.1563(4)
O3 O 0.0568(3) 0.3643(2) -0.4308(3)
O4 O -0.1411(3) 0.4011(2) -0.4753(4)
O5 O 0.2751(4) 0.1041(2) 0.2801(3)
O6 O 0.3373(4) 0.1403(2) 0.1353(4)
O7 O 0.6483(3) 0.4337(2) 0.2927(3)
O8 O 0.6236(3) 0.4769(2) 0.4574(3)
C1 C -0.0422(5) 0.1525(3) -0.2506(5)
C2 C -0.1639(5) 0.1780(3) -0.2996(5)
H2 H -0.2288 0.1501 -0.2887
C3 C -0.1806(5) 0.2498(3) -0.3673(6)
H3 H -0.2577 0.2751 -0.4062
C4 C -0.0717(5) 0.2791(3) -0.3706(5)
C5 C 0.0130(5) 0.0818(3) -0.1710(5)
C6 C -0.0500(5) 0.3545(3) -0.4305(5)
C7 C 0.3934(5) 0.2284(3) 0.3022(5)
C8 C 0.3828(5) 0.2651(4) 0.4000(5)
H4 H 0.3346 0.2443 0.4400
C9 C 0.4533(5) 0.3383(4) 0.4336(5)
H5 H 0.4553 0.3717 0.4972
C10 C 0.5178(5) 0.3550(3) 0.3631(5)
C11 C 0.3315(5) 0.1529(3) 0.2361(6)
C12 C 0.6000(5) 0.4263(3) 0.3711(5)
Tb1B Tb -0.19438(2) -0.027509(15) -0.07881(2)
Tb1C Tb 0.19438(2) 0.472491(15) -0.42119(2)
Tb1A Tb -0.19438(2) 0.527509(15) -0.57881(2)
Tb1A_2 Tb 0.80562(2) 0.527509(15) 0.42119(2)
O2B O 0.0617(4) -0.0305(2) 0.1563(4)
O3C O 0.0568(3) 0.1357(2) 0.0692(3)
O4A O 0.1411(3) -0.0989(2) -0.0247(4)
O7A O 0.3517(3) -0.0663(2) 0.2073(3)
O8A O 0.3764(3) -0.0231(2) 0.0426(3)
O9 O 0.8747(6) -0.0522(4) 0.5861(6)
H1 H 0.8766 -0.0766 0.6465
C13 C 0.7844(8) -0.0489(5) 0.3668(8)
H6 H 0.8675 -0.0475 0.3656
H7 H 0.7319 -0.0802 0.2971
C14 C 0.7913(9) -0.0950(6) 0.4792(8)
H8 H 0.7086 -0.0987 0.4811
H9 H 0.8216 -0.1506 0.4777
C15 C 0.6885(8) 0.0585(5) 0.2233(7)
H10 H 0.6554 0.1135 0.2103
H11 H 0.6241 0.0202 0.1793
H12 H 0.7559 0.0547 0.1958
C16 C 0.8356(8) 0.0977(5) 0.4185(7)
H13 H 0.8018 0.1524 0.4098
H14 H 0.8992 0.0956 0.3859
H15 H 0.8711 0.0832 0.5023
C17 C 0.6306(8) 0.0480(5) 0.3951(9)
H16 H 0.6027 0.1042 0.3854
H17 H 0.6588 0.0329 0.4786
H18 H 0.5628 0.0127 0.3485
N1 N 0.7351(5) 0.0388(4) 0.3530(5)
loop_
_geom_bond_atom_site_label_1
_geom_bond_atom_site_label_2
_geom_bond_site_symmetry_1
_geom_bond_site_symmetry_2
Tb1 O1 1_555 1_555
S1 C1 1_555 1_555
S2 C7 1_555 1_555
O1 C5 1_555 1_555
O2 C5 1_555 1_555
O3 C6 1_555 1_555
O4 C6 1_555 1_555
O5 Tb1 1_555 1_555
O6 Tb1 1_555 1_555
O7 C12 1_555 1_555
O8 C12 1_555 1_555
O9 H1 1_555 1_555
C1 C2 1_555 1_555
C2 H2 1_555 1_555
C3 C2 1_555 1_555
H3 C3 1_555 1_555
C4 S1 1_555 1_555
C5 C1 1_555 1_555
C6 C4 1_555 1_555
C7 C8 1_555 1_555
C8 H4 1_555 1_555
C9 C8 1_555 1_555
H5 C9 1_555 1_555
C10 S2 1_555 1_555
C11 O5 1_555 1_555
C12 C10 1_555 1_555
C13 H6 1_555 1_555
H7 C13 1_555 1_555
C14 O9 1_555 1_555
H8 C14 1_555 1_555
H9 C14 1_555 1_555
C15 H10 1_555 1_555
H11 C15 1_555 1_555
H12 C15 1_555 1_555
C16 H13 1_555 1_555
H14 C16 1_555 1_555
H15 C16 1_555 1_555
C17 H16 1_555 1_555
H17 C17 1_555 1_555
H18 C17 1_555 1_555
N1 C13 1_555 1_555
Tb1B O2 1_555 1_555
Tb1C O3 1_555 1_555
Tb1A O4 1_555 1_555
Tb1A_2 O7 1_555 1_555
O2B Tb1 1_555 1_555
O3C Tb1 1_555 1_555
O4A Tb1 1_555 1_555
O7A Tb1 1_555 1_555
O8A Tb1 1_555 1_555
O6 C11 1_555 1_555
O8 Tb1A_2 1_555 1_555
C3 C4 1_555 1_555
C7 C11 1_555 1_555
C9 C10 1_555 1_555
C13 C14 1_555 1_555
C15 N1 1_555 1_555
C16 N1 1_555 1_555
C17 N1 1_555 1_555

#END
