
#######################################################################
#
#                 Cambridge Crystallographic Data Centre
#                                CCDC 
#
#######################################################################
#
# If this CIF has been generated from an entry in the Cambridge 
# Structural Database, then it will include bibliographic, chemical, 
# crystal, experimental, refinement or atomic coordinate data resulting 
# from the CCDC's data processing and validation procedures.
#
#######################################################################

data_HAWWUZ
_chemical_formula_moiety         '(C37 H48 N10 Nd2 O19 S3)n'
_symmetry_cell_setting           monoclinic
_symmetry_space_group_name_H-M   'P 2/c'
_symmetry_Int_Tables_number      13
_space_group_name_Hall           '-P 2yc'
loop_
_symmetry_equiv_pos_site_id
_symmetry_equiv_pos_as_xyz
1 x,y,z
2 -x,y,1/2-z
3 -x,-y,-z
4 x,-y,1/2+z
_cell_length_a                   17.0072(19)
_cell_length_b                   12.1455(7)
_cell_length_c                   27.524(3)
_cell_angle_alpha                90
_cell_angle_beta                 114.738(7)
_cell_angle_gamma                90
_cell_volume                     5163.64
loop_
_atom_site_label
_atom_site_type_symbol
_atom_site_fract_x
_atom_site_fract_y
_atom_site_fract_z
Nd1 Nd 0.43362(2) -0.02740(3) 0.418985(13)
Nd2 Nd -0.04357(2) -0.50092(3) 0.417180(14)
S1 S 0.26361(12) 0.23017(15) 0.24148(7)
S2 S 0.21084(11) -0.20991(16) 0.47243(7)
S3 S 0.23676(11) 0.27527(16) 0.46174(7)
O1 O 0.3891(3) 0.1048(4) 0.3372(2)
O2 O 0.2996(3) -0.0284(4) 0.3335(2)
O3 O 0.0535(4) 0.2995(5) 0.1127(2)
O4 O 0.1717(3) 0.3989(4) 0.1543(2)
O5 O 0.3581(3) -0.0888(4) 0.47208(19)
O6 O 0.4409(3) -0.0930(5) 0.5601(2)
O7 O 0.0544(3) -0.3889(4) 0.5120(2)
O8 O 0.0491(4) -0.3349(5) 0.4347(2)
O9 O 0.1000(3) 0.4203(4) 0.4651(2)
O10 O 0.1487(3) 0.4201(5) 0.5545(2)
O11 O 0.3419(3) 0.1304(4) 0.4252(2)
O12 O 0.4539(3) 0.1122(4) 0.50245(19)
O13 O 0.5019(4) -0.0976(5) 0.3623(2)
O14 O 0.3991(4) -0.2236(4) 0.4012(2)
O15 O 0.0115(4) -0.5030(5) 0.3481(2)
O16 O -0.1215(4) -0.3576(6) 0.3503(3)
N1 N 0.5761(17) 0.027(2) 0.3399(10)
H3 H 0.5653 0.0815 0.3558
N2 N 0.590(2) -0.1253(19) 0.3223(13)
H4 H 0.5896 -0.1961 0.3235
N3 N 0.4223(6) -0.3465(7) 0.4689(3)
H5 H 0.4734 -0.3246 0.4899
N4 N 0.3064(6) -0.3627(7) 0.3967(4)
H6 H 0.2693 -0.3497 0.3645
N5 N 0.0609(6) -0.6703(8) 0.3333(4)
H7 H 0.0321 -0.7118 0.3453
N6 N 0.1044(7) -0.5227(9) 0.3083(4)
H8 H 0.1105 -0.4535 0.3042
N7 N -0.2690(9) -0.367(9) 0.3227(19)
H9 H -0.2750 -0.3706 0.3522
N8 N -0.2177(11) -0.305(4) 0.2658(8)
H10 H -0.1812 -0.2846 0.2534
C1 C 0.2512(5) 0.1028(6) 0.2633(3)
C2 C 0.1772(6) 0.0539(7) 0.2301(3)
H13 H 0.1603 -0.0161 0.2357
C3 C 0.1283(6) 0.1209(7) 0.1860(3)
H14 H 0.0755 0.0997 0.1590
C4 C 0.1660(5) 0.2188(6) 0.1870(3)
C5 C 0.3177(4) 0.0569(6) 0.3143(3)
C6 C 0.1289(5) 0.3103(6) 0.1491(3)
C7 C 0.3056(4) -0.1835(6) 0.5264(3)
C8 C 0.3082(5) -0.2347(7) 0.5710(3)
H15 H 0.3559 -0.2319 0.6039
C9 C 0.2321(5) -0.2921(7) 0.5626(3)
H16 H 0.2232 -0.3295 0.5894
C10 C 0.1731(4) -0.2868(6) 0.5111(3)
C11 C 0.3739(4) -0.1159(6) 0.5189(3)
C12 C 0.0878(4) -0.3391(6) 0.4850(3)
C13 C 0.2350(5) 0.3412(6) 0.5156(3)
C14 C 0.3123(6) 0.3332(9) 0.5589(4)
H17 H 0.3240 0.3670 0.5915
C15 C 0.3722(6) 0.2690(9) 0.5493(4)
H18 H 0.4281 0.2550 0.5747
C16 C 0.3397(5) 0.2291(6) 0.4982(3)
C17 C 0.1547(4) 0.3991(6) 0.5114(3)
C18 C 0.3814(4) 0.1533(6) 0.4736(3)
C19 C 0.6380(17) -0.068(2) 0.2982(10)
H19 H 0.6986 -0.0894 0.3141
H20 H 0.6141 -0.0804 0.2598
C20 C 0.6271(16) 0.0377(19) 0.3100(9)
H21 H 0.5969 0.0805 0.2777
H22 H 0.6823 0.0724 0.3312
C21 C 0.5476(9) -0.0704(12) 0.3414(5)
C22 C 0.3768(9) -0.4339(9) 0.4825(5)
H23 H 0.3602 -0.4113 0.5107
H24 H 0.4117 -0.5002 0.4934
C23 C 0.2963(10) -0.4510(8) 0.4287(6)
H25 H 0.2976 -0.5224 0.4133
H26 H 0.2429 -0.4437 0.4332
C24 C 0.3768(6) -0.3039(6) 0.4208(3)
C25 C 0.1452(8) -0.6056(12) 0.2910(5)
H27 H 0.2074 -0.5952 0.3062
H28 H 0.1230 -0.6069 0.2523
C26 C 0.1210(8) -0.7116(12) 0.3123(5)
H29 H 0.0934 -0.7647 0.2839
H30 H 0.1715 -0.7451 0.3402
C27 C 0.0559(5) -0.5619(9) 0.3317(3)
C28 C -0.337(7) -0.393(9) 0.2693(19)
H31 H -0.3947 -0.3771 0.2672
H32 H -0.3347 -0.4684 0.2590
C29 C -0.3105(15) -0.308(3) 0.2346(13)
H33 H -0.3254 -0.3361 0.1988
H34 H -0.3368 -0.2367 0.2326
C30 C -0.1947(10) -0.338(2) 0.3185(7)
Nd1B Nd 0.56638(2) 0.02740(3) 0.581015(13)
Nd2B Nd 0.04357(2) -0.49908(3) 0.582820(14)
Nd2A Nd 0.04357(2) 0.49908(3) 0.082820(14)
Nd2_2 Nd -0.04357(2) 0.49908(3) 0.417180(14)
Nd2B_2 Nd 0.04357(2) 0.50092(3) 0.582820(14)
O3A O -0.0535(4) -0.7005(5) 0.3873(2)
O4A O -0.1717(3) -0.6011(4) 0.3457(2)
O6B O 0.5591(3) 0.0930(5) 0.4399(2)
O7B O -0.0544(3) -0.6111(4) 0.4880(2)
O9_2 O 0.1000(3) -0.5797(4) 0.4651(2)
O10B O -0.1487(3) -0.4201(5) 0.4455(2)
O12B O 0.5461(3) -0.1122(4) 0.49755(19)
O17 O -0.1474(6) -0.2992(9) 0.1929(4)
N9 N -0.1325(7) -0.1166(9) 0.1761(5)
H11 H -0.1751 -0.0919 0.1820
N10 N -0.0397(6) -0.2359(10) 0.1720(4)
H12 H -0.0115 -0.2967 0.1769
C31 C -0.0783(12) -0.0483(13) 0.1604(8)
H35 H -0.0465 0.0048 0.1880
H36 H -0.1116 -0.0098 0.1272
C32 C -0.0167(8) -0.1350(12) 0.1532(6)
H37 H -0.0265 -0.1412 0.1160
H38 H 0.0435 -0.1162 0.1745
C33 C -0.1097(7) -0.2223(12) 0.1806(5)
O18 O 0.4548(19) -0.662(3) 0.3983(12)
H1 H 0.4255 -0.7147 0.3996
C34 C 0.4654(17) -0.666(3) 0.3472(10)
H39 H 0.5018 -0.7284 0.3484
H40 H 0.4091 -0.6785 0.3180
C35 C 0.503(2) -0.568(4) 0.3353(15)
H41 H 0.4983 -0.5730 0.2994
H42 H 0.5623 -0.5626 0.3600
H43 H 0.4718 -0.5046 0.3385
O19 O -0.1041(18) 0.1481(12) -0.0633(15)
H2 H -0.1238 0.1529 -0.0959
C36 C -0.152(2) 0.061(2) -0.0482(13)
H44 H -0.2130 0.0797 -0.0614
H45 H -0.1466 -0.0097 -0.0627
C37 C -0.111(3) 0.060(3) 0.0103(13)
H46 H -0.1383 0.0046 0.0231
H47 H -0.1172 0.1304 0.0238
H48 H -0.0507 0.0424 0.0225
loop_
_geom_bond_atom_site_label_1
_geom_bond_atom_site_label_2
_geom_bond_site_symmetry_1
_geom_bond_site_symmetry_2
Nd1 O1 1_555 1_555
Nd2 O7 1_555 1_555
S1 C1 1_555 1_555
S2 C7 1_555 1_555
S3 C13 1_555 1_555
O1 C5 1_555 1_555
O2 Nd1 1_555 1_555
O3 C6 1_555 1_555
O4 C6 1_555 1_555
O5 Nd1 1_555 1_555
O6 C11 1_555 1_555
O7 C12 1_555 1_555
O8 Nd2 1_555 1_555
O9 C17 1_555 1_555
O10 C17 1_555 1_555
O11 Nd1 1_555 1_555
O12 Nd1 1_555 1_555
O13 Nd1 1_555 1_555
O14 Nd1 1_555 1_555
O15 Nd2 1_555 1_555
O16 Nd2 1_555 1_555
O17 C33 1_555 1_555
O18 H1 1_555 1_555
O19 H2 1_555 1_555
N1 H3 1_555 1_555
N2 H4 1_555 1_555
N3 H5 1_555 1_555
N4 H6 1_555 1_555
N5 H7 1_555 1_555
N6 H8 1_555 1_555
N7 H9 1_555 1_555
N8 H10 1_555 1_555
N9 H11 1_555 1_555
N10 H12 1_555 1_555
C1 C2 1_555 1_555
C2 H13 1_555 1_555
C3 C2 1_555 1_555
H14 C3 1_555 1_555
C4 S1 1_555 1_555
C5 O2 1_555 1_555
C6 C4 1_555 1_555
C7 C8 1_555 1_555
C8 H15 1_555 1_555
C9 C8 1_555 1_555
H16 C9 1_555 1_555
C10 S2 1_555 1_555
C11 O5 1_555 1_555
C12 O8 1_555 1_555
C13 C14 1_555 1_555
C14 H17 1_555 1_555
C15 C14 1_555 1_555
H18 C15 1_555 1_555
C16 S3 1_555 1_555
C17 C13 1_555 1_555
C18 O11 1_555 1_555
C19 N2 1_555 1_555
H19 C19 1_555 1_555
H20 C19 1_555 1_555
C20 N1 1_555 1_555
H21 C20 1_555 1_555
H22 C20 1_555 1_555
C21 O13 1_555 1_555
C22 N3 1_555 1_555
H23 C22 1_555 1_555
H24 C22 1_555 1_555
C23 N4 1_555 1_555
H25 C23 1_555 1_555
H26 C23 1_555 1_555
C24 O14 1_555 1_555
C25 N6 1_555 1_555
H27 C25 1_555 1_555
H28 C25 1_555 1_555
C26 N5 1_555 1_555
H29 C26 1_555 1_555
H30 C26 1_555 1_555
C27 O15 1_555 1_555
C28 N7 1_555 1_555
H31 C28 1_555 1_555
H32 C28 1_555 1_555
C29 N8 1_555 1_555
H33 C29 1_555 1_555
H34 C29 1_555 1_555
C30 O16 1_555 1_555
C31 N9 1_555 1_555
H35 C31 1_555 1_555
H36 C31 1_555 1_555
C32 N10 1_555 1_555
H37 C32 1_555 1_555
H38 C32 1_555 1_555
C33 N9 1_555 1_555
C34 O18 1_555 1_555
H39 C34 1_555 1_555
H40 C34 1_555 1_555
C35 C34 1_555 1_555
H41 C35 1_555 1_555
H42 C35 1_555 1_555
H43 C35 1_555 1_555
C36 O19 1_555 1_555
H44 C36 1_555 1_555
H45 C36 1_555 1_555
C37 C36 1_555 1_555
H46 C37 1_555 1_555
H47 C37 1_555 1_555
H48 C37 1_555 1_555
Nd1B O6 1_555 1_555
Nd2B O7 1_555 1_555
Nd2A O3 1_555 1_555
Nd2_2 O9 1_555 1_555
Nd2B_2 O10 1_555 1_555
O3A Nd2 1_555 1_555
O4A Nd2 1_555 1_555
O6B Nd1 1_555 1_555
O7B Nd2 1_555 1_555
O9_2 Nd2 1_555 1_555
O10B Nd2 1_555 1_555
O12B Nd1 1_555 1_555
O4 Nd2A 1_555 1_555
O12 C18 1_555 1_555
O12 Nd1B 1_555 1_555
N1 C21 1_555 1_555
N2 C21 1_555 1_555
N3 C24 1_555 1_555
N4 C24 1_555 1_555
N5 C27 1_555 1_555
N6 C27 1_555 1_555
N7 C30 1_555 1_555
N8 C30 1_555 1_555
N10 C33 1_555 1_555
C1 C5 1_555 1_555
C3 C4 1_555 1_555
C7 C11 1_555 1_555
C9 C10 1_555 1_555
C10 C12 1_555 1_555
C15 C16 1_555 1_555
C16 C18 1_555 1_555
C19 C20 1_555 1_555
C22 C23 1_555 1_555
C25 C26 1_555 1_555
C28 C29 1_555 1_555
C31 C32 1_555 1_555
Nd1B O12B 1_555 1_555
Nd2B O7B 1_555 1_555

#END
