
#######################################################################
#
#                 Cambridge Crystallographic Data Centre
#                                CCDC 
#
#######################################################################
#
# If this CIF has been generated from an entry in the Cambridge 
# Structural Database, then it will include bibliographic, chemical, 
# crystal, experimental, refinement or atomic coordinate data resulting 
# from the CCDC's data processing and validation procedures.
#
#######################################################################

data_GUFREF
_chemical_formula_moiety         '(C59 H70 Cd2 N6 O14)n'
_symmetry_cell_setting           monoclinic
_symmetry_space_group_name_H-M   'C 2/c'
_symmetry_Int_Tables_number      15
_space_group_name_Hall           '-C 2yc'
loop_
_symmetry_equiv_pos_site_id
_symmetry_equiv_pos_as_xyz
1 x,y,z
2 -x,y,1/2-z
3 1/2+x,1/2+y,z
4 1/2-x,1/2+y,1/2-z
5 -x,-y,-z
6 x,-y,1/2+z
7 1/2-x,1/2-y,-z
8 1/2+x,1/2-y,1/2+z
_cell_length_a                   21.635(2)
_cell_length_b                   13.2075(13)
_cell_length_c                   23.307(2)
_cell_angle_alpha                90
_cell_angle_beta                 98.2060(10)
_cell_angle_gamma                90
_cell_volume                     6591.65
loop_
_atom_site_label
_atom_site_type_symbol
_atom_site_fract_x
_atom_site_fract_y
_atom_site_fract_z
Cd1 Cd 0.208635(11) 0.559092(19) 0.856088(11)
O7 O 0.15984(14) 0.5962(2) 0.76438(13)
O8 O 0.12798(15) 0.4442(2) 0.78534(13)
O9 O 0.24875(16) 0.2395(3) 0.64039(15)
O10 O 0.22038(16) 0.1366(2) 0.56933(13)
N1 N 0.20079(14) 0.4247(2) 0.92135(14)
N2 N -0.11733(13) 0.3786(2) 1.10883(13)
N3 N 0.29340(14) 0.4836(2) 0.82057(14)
C1 C 0.12508(18) 0.5205(3) 0.75333(16)
C2 C 0.0767(2) 0.5240(3) 0.69952(18)
H13 H 0.0359 0.5346 0.7112
H14 H 0.0855 0.5818 0.6763
C3 C 0.07420(18) 0.4302(3) 0.66247(17)
C4 C 0.02537(19) 0.3623(3) 0.65984(19)
H15 H -0.0070 0.3739 0.6814
C5 C 0.0244(2) 0.2769(4) 0.6252(2)
H16 H -0.0087 0.2315 0.6235
C6 C 0.0726(2) 0.2586(3) 0.5928(2)
H17 H 0.0715 0.2012 0.5696
C7 C 0.12172(17) 0.3250(3) 0.59517(16)
C8 C 0.12194(17) 0.4106(3) 0.63001(16)
H18 H 0.1550 0.4560 0.6316
C9 C 0.1755(2) 0.3025(3) 0.56181(18)
H19 H 0.1993 0.3639 0.5584
H20 H 0.1591 0.2798 0.5230
C10 C 0.21815(19) 0.2210(3) 0.59249(18)
C11 C 0.17481(17) 0.3348(3) 0.90687(17)
H21 H 0.1659 0.3182 0.8678
C12 C 0.16058(17) 0.2654(3) 0.94750(18)
H22 H 0.1425 0.2037 0.9356
C13 C 0.17332(16) 0.2883(3) 1.00599(17)
C14 C 0.20174(18) 0.3796(3) 1.02085(17)
H23 H 0.2124 0.3971 1.0596
C15 C 0.2144(2) 0.4451(3) 0.97777(18)
H24 H 0.2335 0.5066 0.9887
C16 C 0.15503(19) 0.2184(3) 1.0519(2)
H25 H 0.1901 0.2102 1.0825
H26 H 0.1446 0.1523 1.0350
C17 C 0.09887(18) 0.2607(3) 1.07757(17)
H27 H 0.0906 0.2176 1.1093
H28 H 0.1091 0.3276 1.0932
C18 C 0.04094(18) 0.2673(4) 1.03373(19)
H29 H 0.0312 0.2008 1.0172
H30 H 0.0486 0.3123 1.0026
C19 C -0.01466(17) 0.3062(3) 1.06052(16)
C20 C -0.0567(2) 0.2416(3) 1.0808(2)
H31 H -0.0514 0.1719 1.0786
C21 C -0.10649(18) 0.2804(3) 1.10423(19)
H32 H -0.1341 0.2351 1.1176
C22 C -0.07623(18) 0.4409(3) 1.0908(2)
H33 H -0.0821 0.5102 1.0946
C23 C -0.02509(18) 0.4081(3) 1.0666(2)
H34 H 0.0023 0.4550 1.0543
C24 C 0.28564(18) 0.4009(3) 0.7874(2)
H35 H 0.2451 0.3781 0.7759
C25 C 0.33343(18) 0.3477(3) 0.76937(19)
H36 H 0.3249 0.2901 0.7467
C26 C 0.39386(16) 0.3791(3) 0.78452(16)
C27 C 0.4024(2) 0.4656(4) 0.8175(2)
H37 H 0.4425 0.4911 0.8281
C28 C 0.35207(19) 0.5147(4) 0.8349(2)
H38 H 0.3595 0.5724 0.8577
C29 C 0.44747(18) 0.3185(3) 0.7672(2)
H39 H 0.4640 0.2752 0.7994
H40 H 0.4314 0.2748 0.7350
C30 C 0.5000 0.3796(5) 0.7500
H41 H 0.5164 0.4230 0.7822
Cd1C Cd 0.291365(11) 1.059092(19) 0.643912(11)
Cd1C_2 Cd 0.291365(11) 0.059092(19) 0.643912(11)
Cd1D Cd -0.208635(11) 0.440908(19) 1.143912(11)
Cd1A Cd 0.791365(11) 0.559092(19) 0.643912(11)
O7C O 0.34016(14) 1.0962(2) 0.73562(13)
O8C O 0.37202(15) 0.9442(2) 0.71466(13)
O9C O 0.25125(16) 0.7395(3) 0.85961(15)
O9_2 O 0.24875(16) 1.2395(3) 0.64039(15)
O10C O 0.27962(16) 0.6366(2) 0.93067(13)
O10_2 O 0.22038(16) 1.1366(2) 0.56933(13)
N1D N -0.20079(14) 0.5753(2) 1.07865(14)
N1C N 0.29921(14) 0.9247(2) 0.57865(14)
N2D N 0.11733(13) 0.6214(2) 0.89117(13)
N2G N 0.38267(13) 1.1214(2) 0.60883(13)
N3A N 0.70660(14) 0.4836(2) 0.67943(14)
N3C N 0.20660(14) 0.9836(2) 0.67943(14)
C1C C 0.37492(18) 1.0205(3) 0.74667(16)
C2C C 0.4233(2) 1.0240(3) 0.80048(18)
H13C H 0.4641 1.0346 0.7888
H14C H 0.4145 1.0818 0.8237
C3C C 0.42580(18) 0.9302(3) 0.83753(17)
C4C C 0.47463(19) 0.8623(3) 0.84016(19)
H15C H 0.5070 0.8739 0.8186
C5C C 0.4756(2) 0.7769(4) 0.8748(2)
H16C H 0.5087 0.7315 0.8765
C6C C 0.4274(2) 0.7586(3) 0.9072(2)
H17C H 0.4285 0.7012 0.9304
C7C C 0.37828(17) 0.8250(3) 0.90483(16)
C8C C 0.37806(17) 0.9106(3) 0.86999(16)
H18C H 0.3450 0.9560 0.8684
C9C C 0.3245(2) 0.8025(3) 0.93819(18)
H19C H 0.3007 0.8639 0.9416
H20C H 0.3409 0.7798 0.9770
C10C C 0.28185(19) 0.7210(3) 0.90751(18)
C11D C -0.17481(17) 0.6652(3) 1.09313(17)
H21D H -0.1659 0.6818 1.1322
C12D C -0.16058(17) 0.7346(3) 1.05250(18)
H22D H -0.1425 0.7963 1.0644
C13D C -0.17332(16) 0.7117(3) 0.99401(17)
C14D C -0.20174(18) 0.6204(3) 0.97915(17)
H23D H -0.2124 0.6029 0.9404
C15D C -0.2144(2) 0.5549(3) 1.02223(18)
H24D H -0.2335 0.4934 1.0113
C16D C -0.15503(19) 0.7816(3) 0.9481(2)
H25D H -0.1901 0.7898 0.9175
H26D H -0.1446 0.8477 0.9650
C17D C -0.09887(18) 0.7393(3) 0.92243(17)
H27D H -0.0906 0.7824 0.8907
H28D H -0.1091 0.6724 0.9068
C18D C -0.04094(18) 0.7327(4) 0.96627(19)
H29D H -0.0312 0.7992 0.9828
H30D H -0.0486 0.6877 0.9974
C19D C 0.01466(17) 0.6938(3) 0.93948(16)
C20D C 0.0567(2) 0.7584(3) 0.9192(2)
H31D H 0.0514 0.8281 0.9214
C21D C 0.10649(18) 0.7196(3) 0.89577(19)
H32D H 0.1341 0.7649 0.8824
C22D C 0.07623(18) 0.5591(3) 0.9092(2)
H33D H 0.0821 0.4898 0.9054
C23D C 0.02509(18) 0.5919(3) 0.9334(2)
H34D H -0.0023 0.5450 0.9457
C24A C 0.71436(18) 0.4009(3) 0.7126(2)
H35A H 0.7549 0.3781 0.7241
C25A C 0.66657(18) 0.3477(3) 0.73063(19)
H36A H 0.6751 0.2901 0.7533
C26A C 0.60614(16) 0.3791(3) 0.71548(16)
C27A C 0.5976(2) 0.4656(4) 0.6825(2)
H37A H 0.5575 0.4911 0.6719
C28A C 0.64793(19) 0.5147(4) 0.6651(2)
H38A H 0.6405 0.5724 0.6423
C29A C 0.55253(18) 0.3185(3) 0.7328(2)
H39A H 0.5360 0.2752 0.7006
H40A H 0.5686 0.2748 0.7650
H41A H 0.4836 0.4230 0.7178
O1 O 0.25120(19) 0.6231(3) 0.68376(16)
H1 H 0.2815 0.6502 0.7042
H2 H 0.2194 0.6241 0.6995
O2 O 0.2979(2) 0.4544(3) 0.6304(2)
H3 H 0.2877 0.5013 0.6507
H4 H 0.2837 0.3994 0.6396
O3 O 0.3470(3) 0.7428(3) 0.7512(2)
H5 H 0.3586 0.8016 0.7470
H6 H 0.3761 0.7041 0.7422
O4 O 0.4175(5) 0.5399(9) 0.6330(6)
H7 H 0.4061 0.5851 0.6538
H8 H 0.3895 0.5231 0.6067
O5 O 0.1314(4) 0.0416(5) 0.4877(4)
H9 H 0.0993 0.0162 0.4976
H10 H 0.1432 0.0121 0.4602
O6 O 0.0280(5) 0.9709(9) 0.4508(5)
H11 H 0.0367 1.0118 0.4259
H12 H -0.0089 0.9800 0.4568
loop_
_geom_bond_atom_site_label_1
_geom_bond_atom_site_label_2
_geom_bond_site_symmetry_1
_geom_bond_site_symmetry_2
Cd1 O7 1_555 1_555
O1 H1 1_555 1_555
H2 O1 1_555 1_555
O2 H3 1_555 1_555
H4 O2 1_555 1_555
O3 H5 1_555 1_555
H6 O3 1_555 1_555
O4 H7 1_555 1_555
H8 O4 1_555 1_555
O5 H9 1_555 1_555
H10 O5 1_555 1_555
O6 H11 1_555 1_555
H12 O6 1_555 1_555
O7 C1 1_555 1_555
O8 Cd1 1_555 1_555
O9 C10 1_555 1_555
O10 C10 1_555 1_555
N1 Cd1 1_555 1_555
N2 C21 1_555 1_555
N3 Cd1 1_555 1_555
C1 O8 1_555 1_555
C2 C1 1_555 1_555
H13 C2 1_555 1_555
H14 C2 1_555 1_555
C3 C2 1_555 1_555
C4 C3 1_555 1_555
H15 C4 1_555 1_555
C5 C4 1_555 1_555
H16 C5 1_555 1_555
C6 C5 1_555 1_555
H17 C6 1_555 1_555
C7 C6 1_555 1_555
C8 C3 1_555 1_555
H18 C8 1_555 1_555
C9 C7 1_555 1_555
H19 C9 1_555 1_555
H20 C9 1_555 1_555
C10 C9 1_555 1_555
C11 N1 1_555 1_555
H21 C11 1_555 1_555
C12 C11 1_555 1_555
H22 C12 1_555 1_555
C13 C12 1_555 1_555
C14 C13 1_555 1_555
H23 C14 1_555 1_555
C15 N1 1_555 1_555
H24 C15 1_555 1_555
C16 C13 1_555 1_555
H25 C16 1_555 1_555
H26 C16 1_555 1_555
C17 C16 1_555 1_555
H27 C17 1_555 1_555
H28 C17 1_555 1_555
C18 C17 1_555 1_555
H29 C18 1_555 1_555
H30 C18 1_555 1_555
C19 C18 1_555 1_555
C20 C19 1_555 1_555
H31 C20 1_555 1_555
C21 C20 1_555 1_555
H32 C21 1_555 1_555
C22 N2 1_555 1_555
H33 C22 1_555 1_555
C23 C19 1_555 1_555
H34 C23 1_555 1_555
C24 N3 1_555 1_555
H35 C24 1_555 1_555
C25 C24 1_555 1_555
H36 C25 1_555 1_555
C26 C25 1_555 1_555
C27 C26 1_555 1_555
H37 C27 1_555 1_555
C28 N3 1_555 1_555
H38 C28 1_555 1_555
C29 C26 1_555 1_555
H39 C29 1_555 1_555
H40 C29 1_555 1_555
C30 C29 1_555 1_555
H41 C30 1_555 1_555
Cd1C O7C 1_555 1_555
Cd1C_2 O9 1_555 1_555
Cd1D N2 1_555 1_555
Cd1A N3A 1_555 1_555
O7C C1C 1_555 1_555
O8C Cd1C 1_555 1_555
O9C Cd1 1_555 1_555
O9_2 Cd1C 1_555 1_555
O10C Cd1 1_555 1_555
O10_2 Cd1C 1_555 1_555
N1D Cd1D 1_555 1_555
N1C Cd1C 1_555 1_555
N2D Cd1 1_555 1_555
N2G Cd1C 1_555 1_555
N3A C24A 1_555 1_555
N3C Cd1C 1_555 1_555
C1C O8C 1_555 1_555
C2C C1C 1_555 1_555
H13C C2C 1_555 1_555
H14C C2C 1_555 1_555
C3C C2C 1_555 1_555
C4C C3C 1_555 1_555
H15C C4C 1_555 1_555
C5C C4C 1_555 1_555
H16C C5C 1_555 1_555
C6C C5C 1_555 1_555
H17C C6C 1_555 1_555
C7C C6C 1_555 1_555
C8C C3C 1_555 1_555
H18C C8C 1_555 1_555
C9C C7C 1_555 1_555
H19C C9C 1_555 1_555
H20C C9C 1_555 1_555
C10C O9C 1_555 1_555
C11D N1D 1_555 1_555
H21D C11D 1_555 1_555
C12D C11D 1_555 1_555
H22D C12D 1_555 1_555
C13D C12D 1_555 1_555
C14D C13D 1_555 1_555
H23D C14D 1_555 1_555
C15D N1D 1_555 1_555
H24D C15D 1_555 1_555
C16D C13D 1_555 1_555
H25D C16D 1_555 1_555
H26D C16D 1_555 1_555
C17D C16D 1_555 1_555
H27D C17D 1_555 1_555
H28D C17D 1_555 1_555
C18D C17D 1_555 1_555
H29D C18D 1_555 1_555
H30D C18D 1_555 1_555
C19D C18D 1_555 1_555
C20D C19D 1_555 1_555
H31D C20D 1_555 1_555
C21D N2D 1_555 1_555
H32D C21D 1_555 1_555
C22D N2D 1_555 1_555
H33D C22D 1_555 1_555
C23D C19D 1_555 1_555
H34D C23D 1_555 1_555
C24A H35A 1_555 1_555
C25A C24A 1_555 1_555
H36A C25A 1_555 1_555
C26A C25A 1_555 1_555
C27A C26A 1_555 1_555
H37A C27A 1_555 1_555
C28A N3A 1_555 1_555
H38A C28A 1_555 1_555
C29A C30 1_555 1_555
H39A C29A 1_555 1_555
H40A C29A 1_555 1_555
H41A C30 1_555 1_555
O10 Cd1C_2 1_555 1_555
C7 C8 1_555 1_555
C14 C15 1_555 1_555
C22 C23 1_555 1_555
C27 C28 1_555 1_555
O10C C10C 1_555 1_555
C7C C8C 1_555 1_555
C9C C10C 1_555 1_555
C14D C15D 1_555 1_555
C20D C21D 1_555 1_555
C22D C23D 1_555 1_555
C26A C29A 1_555 1_555
C27A C28A 1_555 1_555

#END
