
#######################################################################
#
#                 Cambridge Crystallographic Data Centre
#                                CCDC 
#
#######################################################################
#
# If this CIF has been generated from an entry in the Cambridge 
# Structural Database, then it will include bibliographic, chemical, 
# crystal, experimental, refinement or atomic coordinate data resulting 
# from the CCDC's data processing and validation procedures.
#
#######################################################################

data_GULBAR
_chemical_formula_moiety         '(C7 H6 N6 O2 Zn1)n'
_symmetry_cell_setting           monoclinic
_symmetry_space_group_name_H-M   'C 2/c'
_symmetry_Int_Tables_number      15
_space_group_name_Hall           '-C 2yc'
loop_
_symmetry_equiv_pos_site_id
_symmetry_equiv_pos_as_xyz
1 x,y,z
2 -x,y,1/2-z
3 1/2+x,1/2+y,z
4 1/2-x,1/2+y,1/2-z
5 -x,-y,-z
6 x,-y,1/2+z
7 1/2-x,1/2-y,-z
8 1/2+x,1/2-y,1/2+z
_cell_length_a                   17.160(3)
_cell_length_b                   16.787(3)
_cell_length_c                   10.072(2)
_cell_angle_alpha                90
_cell_angle_beta                 120.77(3)
_cell_angle_gamma                90
_cell_volume                     2492.96
loop_
_atom_site_label
_atom_site_type_symbol
_atom_site_fract_x
_atom_site_fract_y
_atom_site_fract_z
Zn1 Zn 0.251280(19) 0.102373(17) 0.84569(3)
O1 O 0.34860(12) 0.18082(12) 0.9263(2)
O2 O 0.44581(14) 0.08007(12) 1.0178(2)
N1 N 0.37681(17) -0.01527(16) 1.1882(3)
N2 N 0.23753(15) 0.04952(13) 1.0096(3)
N3 N 0.15335(16) 0.05117(15) 0.9941(3)
N4 N 0.15435(16) 0.00931(16) 1.1012(3)
N5 N 0.23930(15) -0.02250(13) 1.1923(3)
N6 N 0.64487(14) 0.32047(13) 1.2335(2)
C1 C 0.42843(17) 0.15208(16) 1.0030(3)
C2 C 0.50412(16) 0.21202(15) 1.0813(3)
C3 C 0.59316(18) 0.18622(16) 1.1688(3)
H1 H 0.6067 0.1321 1.1775
C4 C 0.66129(18) 0.24168(16) 1.2427(3)
H2 H 0.7209 0.2240 1.3011
C5 C 0.55875(18) 0.34516(16) 1.1471(3)
H3 H 0.5469 0.3996 1.1385
C6 C 0.48692(17) 0.29294(16) 1.0702(3)
H4 H 0.4279 0.3120 1.0117
C10 C 0.28854(17) 0.00323(15) 1.1325(3)
H5 H 0.404(2) -0.026(2) 1.273(4)
H6 H 0.404(2) 0.010(2) 1.144(4)
Zn1E Zn 0.251280(19) -0.102373(17) 1.34569(3)
Zn1G Zn 0.751280(19) 0.397627(17) 1.34569(3)
N5E N 0.23930(15) 0.02250(13) 0.6923(3)
N6G N 0.14487(14) 0.17953(13) 0.7335(2)
loop_
_geom_bond_atom_site_label_1
_geom_bond_atom_site_label_2
_geom_bond_site_symmetry_1
_geom_bond_site_symmetry_2
Zn1 O1 1_555 1_555
O1 C1 1_555 1_555
O2 C1 1_555 1_555
N1 C10 1_555 1_555
N2 Zn1 1_555 1_555
N3 N2 1_555 1_555
N4 N3 1_555 1_555
N5 N4 1_555 1_555
N6 C4 1_555 1_555
C1 C2 1_555 1_555
C2 C3 1_555 1_555
C3 H1 1_555 1_555
C4 C3 1_555 1_555
H2 C4 1_555 1_555
C5 N6 1_555 1_555
H3 C5 1_555 1_555
C6 C2 1_555 1_555
H4 C6 1_555 1_555
C10 N2 1_555 1_555
H5 N1 1_555 1_555
H6 N1 1_555 1_555
Zn1E N5 1_555 1_555
Zn1G N6 1_555 1_555
N5E Zn1 1_555 1_555
N6G Zn1 1_555 1_555
N5 C10 1_555 1_555
C5 C6 1_555 1_555

#END
