
#######################################################################
#
#                 Cambridge Crystallographic Data Centre
#                                CCDC 
#
#######################################################################
#
# If this CIF has been generated from an entry in the Cambridge 
# Structural Database, then it will include bibliographic, chemical, 
# crystal, experimental, refinement or atomic coordinate data resulting 
# from the CCDC's data processing and validation procedures.
#
#######################################################################

data_KEDJAG03
_chemical_formula_moiety         '(C24 H32 Cu4 N2 O24 2-)n'
_symmetry_cell_setting           monoclinic
_symmetry_space_group_name_H-M   'P 21/c'
_symmetry_Int_Tables_number      14
_space_group_name_Hall           '-P 2ybc'
loop_
_symmetry_equiv_pos_site_id
_symmetry_equiv_pos_as_xyz
1 x,y,z
2 -x,1/2+y,1/2-z
3 -x,-y,-z
4 x,1/2-y,1/2+z
_cell_length_a                   8.82940(10)
_cell_length_b                   33.7719(4)
_cell_length_c                   8.80520(10)
_cell_angle_alpha                90
_cell_angle_beta                 107.9010(10)
_cell_angle_gamma                90
_cell_volume                     2498.48
loop_
_atom_site_label
_atom_site_type_symbol
_atom_site_fract_x
_atom_site_fract_y
_atom_site_fract_z
Cu1 Cu 0.74696(3) 0.204056(8) 0.49762(3)
Cu2 Cu 0.74245(3) 0.045688(8) 0.50213(3)
O1 O 0.88655(19) 0.15532(4) 0.62326(17)
O2 O 0.85720(18) 0.09044(4) 0.63137(17)
O3 O 0.6182(2) 0.15975(5) 0.37507(18)
O4 O 0.61566(19) 0.09430(5) 0.35658(19)
O5 O 0.61971(18) 0.20803(5) 0.66086(18)
O6 O 0.5986(2) 0.24970(5) 0.8471(2)
O7 O 0.87458(19) 0.24621(5) 0.63821(19)
O8 O 0.86357(19) 0.28758(5) 0.82979(19)
O9 O 0.91069(19) 0.04012(5) 0.38113(18)
O10 O 1.0920(2) -0.00176(5) 0.35085(19)
O11 O 0.57550(19) 0.04031(5) 0.62238(19)
O12 O 0.38242(19) -0.00149(5) 0.62604(18)
C1 C 0.8187(3) 0.12392(6) 0.5723(2)
C2 C 0.6699(3) 0.12601(7) 0.4203(3)
C3 C 0.8145(3) 0.25919(6) 0.7389(3)
C4 C 0.6647(2) 0.23731(7) 0.7520(3)
C5 C 1.0023(3) 0.01086(6) 0.4224(2)
C6 C 0.4880(3) 0.01140(6) 0.5719(2)
Cu1C Cu 0.74696(3) 0.295944(8) 0.99762(3)
Cu1B Cu 0.25304(3) -0.204056(8) 0.50238(3)
Cu1A Cu 0.25304(3) -0.295944(8) 0.00238(3)
Cu2B Cu 1.25755(3) -0.045688(8) 0.49787(3)
Cu2B_2 Cu 0.25755(3) -0.045688(8) 0.49787(3)
O1B O 0.11345(19) -0.15532(4) 0.37674(17)
O2B O 0.14280(18) -0.09044(4) 0.36863(17)
O3B O 0.3818(2) -0.15975(5) 0.62493(18)
O4B O 0.38434(19) -0.09430(5) 0.64342(19)
O5B O 0.38029(18) -0.20803(5) 0.33914(18)
O6C O 0.5986(2) 0.25030(5) 0.3471(2)
O6A O 0.4014(2) -0.25030(5) 0.6529(2)
O6B O 0.4014(2) -0.24970(5) 0.1529(2)
O7B O 0.12542(19) -0.24621(5) 0.36179(19)
O8C O 0.86357(19) 0.21242(5) 0.32979(19)
O8A O 0.13643(19) -0.21242(5) 0.67021(19)
O8B O 0.13643(19) -0.28758(5) 0.17021(19)
O9B O 1.08931(19) -0.04012(5) 0.61887(18)
O9B_2 O 0.08931(19) -0.04012(5) 0.61887(18)
O10B O 0.9080(2) 0.00176(5) 0.64915(19)
O10_2 O 0.0920(2) -0.00176(5) 0.35085(19)
O11B O 0.42450(19) -0.04031(5) 0.37762(19)
O12B O 0.61758(19) 0.00149(5) 0.37396(18)
C1B C 0.1813(3) -0.12392(6) 0.4277(2)
C2B C 0.3301(3) -0.12601(7) 0.5797(3)
C3B C 0.1855(3) -0.25919(6) 0.2611(3)
C4B C 0.3353(2) -0.23731(7) 0.2480(3)
C5B C 0.9977(3) -0.01086(6) 0.5776(2)
C6B C 0.5120(3) -0.01140(6) 0.4281(2)
N1 N 0.9096(3) 0.07731(6) 0.0980(2)
H1 H 0.9265 0.0638 0.1912
C7 C 0.9017(4) 0.11985(8) 0.1417(3)
H2 H 0.9938 0.1259 0.2323
H3 H 0.8078 0.1237 0.1752
C8 C 0.8961(5) 0.14864(8) 0.0099(3)
H4 H 0.8901 0.1752 0.0469
H5 H 0.8042 0.1433 -0.0799
H6 H 0.9905 0.1458 -0.0215
C9 C 1.0495(4) 0.06745(9) 0.0424(4)
H7 H 1.0466 0.0394 0.0181
H8 H 1.0395 0.0818 -0.0556
C10 C 1.2055(4) 0.07690(13) 0.1591(5)
H9 H 1.2889 0.0699 0.1153
H10 H 1.2181 0.0622 0.2556
H11 H 1.2109 0.1047 0.1821
C11 C 0.7772(19) 0.0591(5) -0.0367(16)
H12 H 0.7489 0.0770 -0.1273
C12 C 0.702(2) 0.0262(5) 0.0007(12)
H13 H 0.6157 0.0199 -0.0936
H14 H 0.6719 0.0193 0.0935
H15 H 0.7947 0.0115 0.0005
N2 N 0.3397(2) 0.17202(6) 0.6722(2)
H16 H 0.4299 0.1862 0.6822
C13 C 0.2910(4) 0.18146(10) 0.8154(4)
H17 H 0.1928 0.1675 0.8076
H18 H 0.2694 0.2096 0.8157
C14 C 0.4129(5) 0.17070(13) 0.9709(4)
H19 H 0.3732 0.1774 1.0576
H20 H 0.5095 0.1851 0.9816
H21 H 0.4339 0.1428 0.9727
C15 C 0.3821(3) 0.12949(9) 0.6590(4)
H22 H 0.4139 0.1263 0.5635
H23 H 0.4732 0.1229 0.7498
C16 C 0.2510(4) 0.10083(9) 0.6521(5)
H24 H 0.2868 0.0744 0.6425
H25 H 0.1606 0.1068 0.5615
H26 H 0.2213 0.1030 0.7479
C17 C 0.2175(4) 0.18760(12) 0.5267(4)
H27 H 0.1270 0.1698 0.5021
H28 H 0.1815 0.2129 0.5544
C18 C 0.2586(6) 0.1930(3) 0.3860(7)
H29 H 0.1681 0.2028 0.3032
H30 H 0.2918 0.1682 0.3536
H31 H 0.3442 0.2117 0.4051
loop_
_geom_bond_atom_site_label_1
_geom_bond_atom_site_label_2
_geom_bond_site_symmetry_1
_geom_bond_site_symmetry_2
Cu1 O1 1_555 1_555
Cu2 O2 1_555 1_555
O1 C1 1_555 1_555
O2 C1 1_555 1_555
O3 Cu1 1_555 1_555
O4 Cu2 1_555 1_555
O5 Cu1 1_555 1_555
O6 C4 1_555 1_555
O7 Cu1 1_555 1_555
O8 C3 1_555 1_555
O9 Cu2 1_555 1_555
O10 C5 1_555 1_555
O11 Cu2 1_555 1_555
O12 C6 1_555 1_555
C1 C2 1_555 1_555
C2 O3 1_555 1_555
C3 O7 1_555 1_555
C4 O5 1_555 1_555
C5 O9 1_555 1_555
C6 O11 1_555 1_555
N1 H1 1_555 1_555
C7 N1 1_555 1_555
H2 C7 1_555 1_555
H3 C7 1_555 1_555
C8 C7 1_555 1_555
H4 C8 1_555 1_555
H5 C8 1_555 1_555
H6 C8 1_555 1_555
C9 N1 1_555 1_555
H7 C9 1_555 1_555
H8 C9 1_555 1_555
C10 C9 1_555 1_555
H9 C10 1_555 1_555
H10 C10 1_555 1_555
H11 C10 1_555 1_555
C11 N1 1_555 1_555
H12 C11 1_555 1_555
C12 C11 1_555 1_555
H13 C12 1_555 1_555
H14 C12 1_555 1_555
H15 C12 1_555 1_555
N2 H16 1_555 1_555
C13 N2 1_555 1_555
H17 C13 1_555 1_555
H18 C13 1_555 1_555
C14 C13 1_555 1_555
H19 C14 1_555 1_555
H20 C14 1_555 1_555
H21 C14 1_555 1_555
C15 N2 1_555 1_555
H22 C15 1_555 1_555
H23 C15 1_555 1_555
C16 C15 1_555 1_555
H24 C16 1_555 1_555
H25 C16 1_555 1_555
H26 C16 1_555 1_555
C17 N2 1_555 1_555
H27 C17 1_555 1_555
H28 C17 1_555 1_555
C18 C17 1_555 1_555
H29 C18 1_555 1_555
H30 C18 1_555 1_555
H31 C18 1_555 1_555
Cu1C O6 1_555 1_555
Cu1B O1B 1_555 1_555
Cu1A O6B 1_555 1_555
Cu2B O10 1_555 1_555
Cu2B_2 O12 1_555 1_555
O1B C1B 1_555 1_555
O2B Cu2B_2 1_555 1_555
O3B Cu1B 1_555 1_555
O4B Cu2B_2 1_555 1_555
O5B Cu1B 1_555 1_555
O6C Cu1 1_555 1_555
O6A Cu1B 1_555 1_555
O6B C4B 1_555 1_555
O7B Cu1B 1_555 1_555
O8C Cu1 1_555 1_555
O8A Cu1B 1_555 1_555
O8B Cu1A 1_555 1_555
O9B Cu2B 1_555 1_555
O9B_2 Cu2B_2 1_555 1_555
O10B Cu2 1_555 1_555
O10_2 Cu2B_2 1_555 1_555
O11B Cu2B_2 1_555 1_555
O12B Cu2 1_555 1_555
C1B O2B 1_555 1_555
C2B O3B 1_555 1_555
C3B O7B 1_555 1_555
C4B O5B 1_555 1_555
C5B C5 1_555 1_555
C6B C6 1_555 1_555
O4 C2 1_555 1_555
O8 Cu1C 1_555 1_555
C3 C4 1_555 1_555
O4B C2B 1_555 1_555
O8B C3B 1_555 1_555
O9B C5B 1_555 1_555
O10B C5B 1_555 1_555
O11B C6B 1_555 1_555
O12B C6B 1_555 1_555
C1B C2B 1_555 1_555
C3B C4B 1_555 1_555

#END
