
#######################################################################
#
#                 Cambridge Crystallographic Data Centre
#                                CCDC 
#
#######################################################################
#
# If this CIF has been generated from an entry in the Cambridge 
# Structural Database, then it will include bibliographic, chemical, 
# crystal, experimental, refinement or atomic coordinate data resulting 
# from the CCDC's data processing and validation procedures.
#
#######################################################################

data_KEDJAG01
_chemical_formula_moiety         '(C24 H32 Cu4 N2 O24 2-)n'
_symmetry_cell_setting           monoclinic
_symmetry_space_group_name_H-M   'P 21/c'
_symmetry_Int_Tables_number      14
_space_group_name_Hall           '-P 2ybc'
loop_
_symmetry_equiv_pos_site_id
_symmetry_equiv_pos_as_xyz
1 x,y,z
2 -x,1/2+y,1/2-z
3 -x,-y,-z
4 x,1/2-y,1/2+z
_cell_length_a                   8.71560(10)
_cell_length_b                   34.0813(4)
_cell_length_c                   8.63600(10)
_cell_angle_alpha                90
_cell_angle_beta                 107.6320(10)
_cell_angle_gamma                90
_cell_volume                     2444.72
loop_
_atom_site_label
_atom_site_type_symbol
_atom_site_fract_x
_atom_site_fract_y
_atom_site_fract_z
Cu1 Cu 0.74952(3) 0.203512(7) 0.48285(3)
Cu2 Cu 0.73860(3) 0.045600(7) 0.49861(3)
O1 O 0.89530(17) 0.15372(4) 0.61227(17)
O2 O 0.85006(17) 0.09001(4) 0.62846(16)
O3 O 0.62165(18) 0.16010(4) 0.36067(17)
O4 O 0.61226(18) 0.09510(4) 0.34028(18)
O5 O 0.62391(18) 0.20611(4) 0.64438(17)
O6 O 0.58961(19) 0.24830(5) 0.82738(19)
O7 O 0.87528(18) 0.24614(4) 0.61822(18)
O8 O 0.86017(19) 0.28751(4) 0.81236(18)
O9 O 0.90657(17) 0.04066(4) 0.38405(17)
O10 O 1.08905(19) -0.00022(5) 0.34410(18)
O11 O 0.57042(18) 0.04195(4) 0.61404(17)
O12 O 0.37925(18) -0.00023(4) 0.62772(17)
C1 C 0.8187(2) 0.12330(6) 0.5634(2)
C2 C 0.6699(2) 0.12598(6) 0.4074(2)
C3 C 0.8123(2) 0.25867(6) 0.7217(2)
C4 C 0.6620(2) 0.23633(6) 0.7347(2)
C5 C 1.0005(2) 0.01128(6) 0.4213(2)
C6 C 0.4851(2) 0.01208(6) 0.5699(2)
Cu1C Cu 0.74952(3) 0.296488(7) 0.98285(3)
Cu1B Cu 0.25048(3) -0.203512(7) 0.51715(3)
Cu1A Cu 0.25048(3) -0.296488(7) 0.01715(3)
Cu2B Cu 1.26140(3) -0.045600(7) 0.50139(3)
Cu2B_2 Cu 0.26140(3) -0.045600(7) 0.50139(3)
O1B O 0.10470(17) -0.15372(4) 0.38773(17)
O2B O 0.14994(17) -0.09001(4) 0.37154(16)
O3B O 0.37835(18) -0.16010(4) 0.63933(17)
O4B O 0.38774(18) -0.09510(4) 0.65972(18)
O5B O 0.37609(18) -0.20611(4) 0.35562(17)
O6C O 0.58961(19) 0.25170(5) 0.32738(19)
O6A O 0.41039(19) -0.25170(5) 0.67262(19)
O6B O 0.41039(19) -0.24830(5) 0.17262(19)
O7B O 0.12472(18) -0.24614(4) 0.38178(18)
O8C O 0.86017(19) 0.21249(4) 0.31236(18)
O8A O 0.13983(19) -0.21249(4) 0.68764(18)
O8B O 0.13983(19) -0.28751(4) 0.18764(18)
O9B O 1.09343(17) -0.04066(4) 0.61595(17)
O9B_2 O 0.09343(17) -0.04066(4) 0.61595(17)
O10B O 0.91095(19) 0.00022(5) 0.65590(18)
O10_2 O 0.08905(19) -0.00022(5) 0.34410(18)
O11B O 0.42958(18) -0.04195(4) 0.38596(17)
O12B O 0.62075(18) 0.00023(4) 0.37228(17)
C1B C 0.1813(2) -0.12330(6) 0.4366(2)
C2B C 0.3301(2) -0.12598(6) 0.5926(2)
C3B C 0.1877(2) -0.25867(6) 0.2783(2)
C4B C 0.3380(2) -0.23633(6) 0.2653(2)
C5B C 0.9995(2) -0.01128(6) 0.5787(2)
C6B C 0.5149(2) -0.01208(6) 0.4301(2)
N1 N 0.8997(2) 0.07956(6) 0.0978(2)
H1 H 0.9143 0.0664 0.1953
C7 C 0.9028(4) 0.12250(7) 0.1365(3)
H2 H 1.0016 0.1282 0.2266
H3 H 0.8096 0.1286 0.1749
C8 C 0.8983(4) 0.14921(7) -0.0039(3)
H4 H 0.8921 0.1766 0.0285
H5 H 0.8037 0.1430 -0.0959
H6 H 0.9960 0.1454 -0.0356
C9 C 1.0331(3) 0.06659(7) 0.0348(3)
H7 H 1.0179 0.0787 -0.0729
H8 H 1.0271 0.0377 0.0200
C10 C 1.1973(3) 0.07727(9) 0.1446(4)
H9 H 1.2788 0.0694 0.0939
H10 H 1.2169 0.0636 0.2486
H11 H 1.2030 0.1057 0.1630
C11 C 0.7370(3) 0.06797(9) -0.0100(3)
H12 H 0.7247 0.0770 -0.1218
H13 H 0.6537 0.0812 0.0276
C12 C 0.7110(9) 0.02448(17) -0.0113(9)
H14 H 0.6227 0.0172 -0.1078
H15 H 0.6838 0.0168 0.0863
H16 H 0.8095 0.0109 -0.0134
N2 N 0.3407(2) 0.17113(6) 0.6527(2)
H17 H 0.4349 0.1849 0.6608
C13 C 0.2936(3) 0.18152(8) 0.8002(3)
H18 H 0.1896 0.1688 0.7928
H19 H 0.2780 0.2103 0.8024
C14 C 0.4170(4) 0.16905(11) 0.9570(4)
H20 H 0.3781 0.1757 1.0487
H21 H 0.5187 0.1827 0.9685
H22 H 0.4341 0.1406 0.9553
C15 C 0.3790(3) 0.12861(8) 0.6412(4)
H23 H 0.4738 0.1218 0.7341
H24 H 0.4089 0.1245 0.5408
C16 C 0.2434(3) 0.10091(8) 0.6399(4)
H25 H 0.2772 0.0738 0.6301
H26 H 0.1491 0.1071 0.5476
H27 H 0.2160 0.1038 0.7410
C17 C 0.2167(4) 0.18635(10) 0.5042(3)
H28 H 0.1252 0.1678 0.4781
H29 H 0.1767 0.2116 0.5339
C18 C 0.2568(5) 0.19279(15) 0.3598(5)
H30 H 0.1624 0.2028 0.2757
H31 H 0.2914 0.1680 0.3235
H32 H 0.3443 0.2120 0.3801
loop_
_geom_bond_atom_site_label_1
_geom_bond_atom_site_label_2
_geom_bond_site_symmetry_1
_geom_bond_site_symmetry_2
Cu1 O1 1_555 1_555
Cu2 O2 1_555 1_555
O1 C1 1_555 1_555
O2 C1 1_555 1_555
O3 Cu1 1_555 1_555
O4 Cu2 1_555 1_555
O5 Cu1 1_555 1_555
O6 C4 1_555 1_555
O7 Cu1 1_555 1_555
O8 C3 1_555 1_555
O9 Cu2 1_555 1_555
O10 C5 1_555 1_555
O11 Cu2 1_555 1_555
O12 C6 1_555 1_555
C1 C2 1_555 1_555
C2 O3 1_555 1_555
C3 O7 1_555 1_555
C4 O5 1_555 1_555
C5 O9 1_555 1_555
C6 O11 1_555 1_555
N1 H1 1_555 1_555
C7 N1 1_555 1_555
H2 C7 1_555 1_555
H3 C7 1_555 1_555
C8 C7 1_555 1_555
H4 C8 1_555 1_555
H5 C8 1_555 1_555
H6 C8 1_555 1_555
C9 N1 1_555 1_555
H7 C9 1_555 1_555
H8 C9 1_555 1_555
C10 C9 1_555 1_555
H9 C10 1_555 1_555
H10 C10 1_555 1_555
H11 C10 1_555 1_555
C11 N1 1_555 1_555
H12 C11 1_555 1_555
H13 C11 1_555 1_555
C12 C11 1_555 1_555
H14 C12 1_555 1_555
H15 C12 1_555 1_555
H16 C12 1_555 1_555
N2 H17 1_555 1_555
C13 N2 1_555 1_555
H18 C13 1_555 1_555
H19 C13 1_555 1_555
C14 C13 1_555 1_555
H20 C14 1_555 1_555
H21 C14 1_555 1_555
H22 C14 1_555 1_555
C15 N2 1_555 1_555
H23 C15 1_555 1_555
H24 C15 1_555 1_555
C16 C15 1_555 1_555
H25 C16 1_555 1_555
H26 C16 1_555 1_555
H27 C16 1_555 1_555
C17 N2 1_555 1_555
H28 C17 1_555 1_555
H29 C17 1_555 1_555
C18 C17 1_555 1_555
H30 C18 1_555 1_555
H31 C18 1_555 1_555
H32 C18 1_555 1_555
Cu1C O6 1_555 1_555
Cu1B O1B 1_555 1_555
Cu1A O6B 1_555 1_555
Cu2B O10 1_555 1_555
Cu2B_2 O12 1_555 1_555
O1B C1B 1_555 1_555
O2B Cu2B_2 1_555 1_555
O3B Cu1B 1_555 1_555
O4B Cu2B_2 1_555 1_555
O5B Cu1B 1_555 1_555
O6C Cu1 1_555 1_555
O6A Cu1B 1_555 1_555
O6B C4B 1_555 1_555
O7B Cu1B 1_555 1_555
O8C Cu1 1_555 1_555
O8A Cu1B 1_555 1_555
O8B Cu1A 1_555 1_555
O9B Cu2B 1_555 1_555
O9B_2 Cu2B_2 1_555 1_555
O10B Cu2 1_555 1_555
O10_2 Cu2B_2 1_555 1_555
O11B Cu2B_2 1_555 1_555
O12B Cu2 1_555 1_555
C1B O2B 1_555 1_555
C2B O3B 1_555 1_555
C3B O7B 1_555 1_555
C4B O5B 1_555 1_555
C5B C5 1_555 1_555
C6B C6 1_555 1_555
O4 C2 1_555 1_555
O8 Cu1C 1_555 1_555
C3 C4 1_555 1_555
O4B C2B 1_555 1_555
O8B C3B 1_555 1_555
O9B C5B 1_555 1_555
O10B C5B 1_555 1_555
O11B C6B 1_555 1_555
O12B C6B 1_555 1_555
C1B C2B 1_555 1_555
C3B C4B 1_555 1_555

#END
