
#######################################################################
#
#                 Cambridge Crystallographic Data Centre
#                                CCDC 
#
#######################################################################
#
# If this CIF has been generated from an entry in the Cambridge 
# Structural Database, then it will include bibliographic, chemical, 
# crystal, experimental, refinement or atomic coordinate data resulting 
# from the CCDC's data processing and validation procedures.
#
#######################################################################

data_KEDJAG
_chemical_formula_moiety         '(C24 H32 Cu4 N2 O24 2-)n'
_symmetry_cell_setting           monoclinic
_symmetry_space_group_name_H-M   'P 21/c'
_symmetry_Int_Tables_number      14
_space_group_name_Hall           '-P 2ybc'
loop_
_symmetry_equiv_pos_site_id
_symmetry_equiv_pos_as_xyz
1 x,y,z
2 -x,1/2+y,1/2-z
3 -x,-y,-z
4 x,1/2-y,1/2+z
_cell_length_a                   8.69870(10)
_cell_length_b                   34.1408(4)
_cell_length_c                   8.60810(10)
_cell_angle_alpha                90
_cell_angle_beta                 107.5780(10)
_cell_angle_gamma                90
_cell_volume                     2437.07
loop_
_atom_site_label
_atom_site_type_symbol
_atom_site_fract_x
_atom_site_fract_y
_atom_site_fract_z
Cu1 Cu 0.74864(3) 0.203472(7) 0.48079(3)
Cu2 Cu 0.73785(3) 0.045530(7) 0.49830(3)
O1 O 0.89567(17) 0.15350(4) 0.61059(17)
O2 O 0.84818(17) 0.08995(4) 0.62829(16)
O3 O 0.62075(18) 0.16010(4) 0.35884(17)
O4 O 0.61147(18) 0.09516(4) 0.33753(17)
O5 O 0.62359(18) 0.20581(4) 0.64185(17)
O6 O 0.58664(19) 0.24810(5) 0.82434(19)
O7 O 0.87410(18) 0.24625(4) 0.61530(18)
O8 O 0.85791(18) 0.28752(4) 0.80976(17)
O9 O 0.90589(17) 0.04080(4) 0.38507(17)
O10 O 1.08851(19) 0.00016(4) 0.34265(18)
O11 O 0.56971(18) 0.04222(4) 0.61269(17)
O12 O 0.37848(18) 0.00003(4) 0.62778(17)
C1 C 0.8178(2) 0.12323(6) 0.5622(2)
C2 C 0.6695(2) 0.12595(6) 0.4053(2)
C3 C 0.8104(2) 0.25863(6) 0.7193(2)
C4 C 0.6600(2) 0.23616(6) 0.7323(2)
C5 C 0.9999(2) 0.01136(6) 0.4211(2)
C6 C 0.4849(2) 0.01226(6) 0.5695(2)
Cu1B Cu 0.25136(3) -0.203472(7) 0.51921(3)
Cu1A Cu 0.25136(3) -0.296528(7) 0.01921(3)
Cu1C Cu 0.74864(3) 0.296528(7) 0.98079(3)
Cu2B Cu 0.26215(3) -0.045530(7) 0.50170(3)
Cu2B_2 Cu 1.26215(3) -0.045530(7) 0.50170(3)
O1B O 0.10433(17) -0.15350(4) 0.38941(17)
O2B O 0.15182(17) -0.08995(4) 0.37171(16)
O3B O 0.37925(18) -0.16010(4) 0.64116(17)
O4B O 0.38853(18) -0.09516(4) 0.66247(17)
O5B O 0.37641(18) -0.20581(4) 0.35815(17)
O6B O 0.41336(19) -0.24810(5) 0.17566(19)
O6A O 0.41336(19) -0.25190(5) 0.67566(19)
O6C O 0.58664(19) 0.25190(5) 0.32434(19)
O7B O 0.12590(18) -0.24625(4) 0.38470(18)
O8B O 0.14209(18) -0.28752(4) 0.19024(17)
O8A O 0.14209(18) -0.21248(4) 0.69024(17)
O8C O 0.85791(18) 0.21248(4) 0.30976(17)
O9B O 1.09411(17) -0.04080(4) 0.61493(17)
O9B_2 O 0.09411(17) -0.04080(4) 0.61493(17)
O10B O 0.91149(19) -0.00016(4) 0.65735(18)
O10_2 O 0.08851(19) 0.00016(4) 0.34265(18)
O11B O 0.43029(18) -0.04222(4) 0.38731(17)
O12B O 0.62152(18) -0.00003(4) 0.37222(17)
C1B C 0.1822(2) -0.12323(6) 0.4378(2)
C2B C 0.3305(2) -0.12595(6) 0.5947(2)
C3B C 0.1896(2) -0.25863(6) 0.2807(2)
C4B C 0.3400(2) -0.23616(6) 0.2677(2)
C5B C 1.0001(2) -0.01136(6) 0.5789(2)
C6B C 0.5151(2) -0.01226(6) 0.4305(2)
N1 N 0.8972(2) 0.08001(5) 0.0983(2)
H1 H 0.9125 0.0671 0.1970
C7 C 0.9018(3) 0.12313(7) 0.1360(3)
H2 H 1.0012 0.1288 0.2259
H3 H 0.8087 0.1296 0.1748
C8 C 0.8976(4) 0.14930(7) -0.0067(3)
H4 H 0.8914 0.1767 0.0244
H5 H 0.8029 0.1429 -0.0988
H6 H 0.9956 0.1453 -0.0382
C9 C 1.0301(3) 0.06663(7) 0.0337(3)
H7 H 1.0139 0.0783 -0.0753
H8 H 1.0239 0.0378 0.0205
C10 C 1.1955(3) 0.07746(8) 0.1422(4)
H9 H 1.2766 0.0695 0.0903
H10 H 1.2164 0.0641 0.2473
H11 H 1.2014 0.1059 0.1596
C11 C 0.7332(3) 0.06829(8) -0.0084(3)
H12 H 0.6505 0.0811 0.0319
H13 H 0.7190 0.0778 -0.1204
C12 C 0.7065(4) 0.02501(9) -0.0133(3)
H14 H 0.6112 0.0185 -0.1046
H15 H 0.6897 0.0164 0.0890
H16 H 0.8012 0.0117 -0.0276
N2 N 0.3394(2) 0.17095(6) 0.6497(2)
H17 H 0.4340 0.1846 0.6574
C13 C 0.2936(3) 0.18127(8) 0.7986(3)
H18 H 0.1892 0.1687 0.7918
H19 H 0.2787 0.2100 0.8013
C14 C 0.4176(4) 0.16865(11) 0.9551(3)
H20 H 0.3793 0.1753 1.0479
H21 H 0.5197 0.1822 0.9661
H22 H 0.4343 0.1403 0.9528
C15 C 0.3770(3) 0.12858(7) 0.6368(4)
H23 H 0.4730 0.1218 0.7289
H24 H 0.4052 0.1245 0.5349
C16 C 0.2416(3) 0.10088(8) 0.6376(4)
H25 H 0.2755 0.0739 0.6279
H26 H 0.1464 0.1070 0.5456
H27 H 0.2151 0.1039 0.7399
C17 C 0.2149(4) 0.18636(10) 0.5010(3)
H28 H 0.1228 0.1679 0.4750
H29 H 0.1754 0.2115 0.5316
C18 C 0.2544(5) 0.19291(13) 0.3549(5)
H30 H 0.1595 0.2030 0.2710
H31 H 0.2888 0.1682 0.3177
H32 H 0.3421 0.2121 0.3749
loop_
_geom_bond_atom_site_label_1
_geom_bond_atom_site_label_2
_geom_bond_site_symmetry_1
_geom_bond_site_symmetry_2
Cu1 O1 1_555 1_555
Cu2 O2 1_555 1_555
O1 C1 1_555 1_555
O2 C1 1_555 1_555
O3 Cu1 1_555 1_555
O4 Cu2 1_555 1_555
O5 Cu1 1_555 1_555
O6 C4 1_555 1_555
O7 Cu1 1_555 1_555
O8 C3 1_555 1_555
O9 Cu2 1_555 1_555
O10 C5 1_555 1_555
O11 Cu2 1_555 1_555
O12 C6 1_555 1_555
C1 C2 1_555 1_555
C2 O3 1_555 1_555
C3 O7 1_555 1_555
C4 O5 1_555 1_555
C5 O9 1_555 1_555
C6 O11 1_555 1_555
N1 H1 1_555 1_555
C7 N1 1_555 1_555
H2 C7 1_555 1_555
H3 C7 1_555 1_555
C8 C7 1_555 1_555
H4 C8 1_555 1_555
H5 C8 1_555 1_555
H6 C8 1_555 1_555
C9 N1 1_555 1_555
H7 C9 1_555 1_555
H8 C9 1_555 1_555
C10 C9 1_555 1_555
H9 C10 1_555 1_555
H10 C10 1_555 1_555
H11 C10 1_555 1_555
C11 N1 1_555 1_555
H12 C11 1_555 1_555
H13 C11 1_555 1_555
C12 C11 1_555 1_555
H14 C12 1_555 1_555
H15 C12 1_555 1_555
H16 C12 1_555 1_555
N2 H17 1_555 1_555
C13 N2 1_555 1_555
H18 C13 1_555 1_555
H19 C13 1_555 1_555
C14 C13 1_555 1_555
H20 C14 1_555 1_555
H21 C14 1_555 1_555
H22 C14 1_555 1_555
C15 N2 1_555 1_555
H23 C15 1_555 1_555
H24 C15 1_555 1_555
C16 C15 1_555 1_555
H25 C16 1_555 1_555
H26 C16 1_555 1_555
H27 C16 1_555 1_555
C17 N2 1_555 1_555
H28 C17 1_555 1_555
H29 C17 1_555 1_555
C18 C17 1_555 1_555
H30 C18 1_555 1_555
H31 C18 1_555 1_555
H32 C18 1_555 1_555
Cu1B O1B 1_555 1_555
Cu1A O6B 1_555 1_555
Cu1C O6 1_555 1_555
Cu2B O12 1_555 1_555
Cu2B_2 O10 1_555 1_555
O1B C1B 1_555 1_555
O2B Cu2B 1_555 1_555
O3B Cu1B 1_555 1_555
O4B Cu2B 1_555 1_555
O5B Cu1B 1_555 1_555
O6B C4B 1_555 1_555
O6A Cu1B 1_555 1_555
O6C Cu1 1_555 1_555
O7B Cu1B 1_555 1_555
O8B Cu1A 1_555 1_555
O8A Cu1B 1_555 1_555
O8C Cu1 1_555 1_555
O9B Cu2B_2 1_555 1_555
O9B_2 Cu2B 1_555 1_555
O10B Cu2 1_555 1_555
O10_2 Cu2B 1_555 1_555
O11B Cu2B 1_555 1_555
O12B Cu2 1_555 1_555
C1B O2B 1_555 1_555
C2B O3B 1_555 1_555
C3B O7B 1_555 1_555
C4B O5B 1_555 1_555
C5B C5 1_555 1_555
C6B C6 1_555 1_555
O4 C2 1_555 1_555
O8 Cu1C 1_555 1_555
C3 C4 1_555 1_555
O4B C2B 1_555 1_555
O8B C3B 1_555 1_555
O9B C5B 1_555 1_555
O10B C5B 1_555 1_555
O11B C6B 1_555 1_555
O12B C6B 1_555 1_555
C1B C2B 1_555 1_555
C3B C4B 1_555 1_555

#END
