
#######################################################################
#
#                 Cambridge Crystallographic Data Centre
#                                CCDC 
#
#######################################################################
#
# If this CIF has been generated from an entry in the Cambridge 
# Structural Database, then it will include bibliographic, chemical, 
# crystal, experimental, refinement or atomic coordinate data resulting 
# from the CCDC's data processing and validation procedures.
#
#######################################################################

data_KEDJAG02
_chemical_formula_moiety         '(C24 H32 Cu4 N2 O24 2-)n'
_symmetry_cell_setting           monoclinic
_symmetry_space_group_name_H-M   'P 21/c'
_symmetry_Int_Tables_number      14
_space_group_name_Hall           '-P 2ybc'
loop_
_symmetry_equiv_pos_site_id
_symmetry_equiv_pos_as_xyz
1 x,y,z
2 -x,1/2+y,1/2-z
3 -x,-y,-z
4 x,1/2-y,1/2+z
_cell_length_a                   8.74070(10)
_cell_length_b                   33.9886(4)
_cell_length_c                   8.67710(10)
_cell_angle_alpha                90
_cell_angle_beta                 107.7250(10)
_cell_angle_gamma                90
_cell_volume                     2455.46
loop_
_atom_site_label
_atom_site_type_symbol
_atom_site_fract_x
_atom_site_fract_y
_atom_site_fract_z
Cu1 Cu 0.75056(3) 0.203578(7) 0.48505(3)
Cu2 Cu 0.73979(3) 0.045729(7) 0.49924(3)
O1 O 0.89475(19) 0.15421(4) 0.61392(18)
O2 O 0.85275(19) 0.09016(4) 0.62874(18)
O3 O 0.6220(2) 0.15999(5) 0.36281(19)
O4 O 0.61334(19) 0.09481(5) 0.34448(19)
O5 O 0.62451(19) 0.20661(5) 0.64767(18)
O6 O 0.5938(2) 0.24885(5) 0.8313(2)
O7 O 0.87709(19) 0.24604(5) 0.62152(19)
O8 O 0.8631(2) 0.28759(5) 0.81501(19)
O9 O 0.90827(19) 0.04046(4) 0.38243(19)
O10 O 1.0904(2) -0.00100(5) 0.3463(2)
O11 O 0.57127(19) 0.04165(4) 0.61610(19)
O12 O 0.3800(2) -0.00071(5) 0.62764(19)
C1 C 0.8196(3) 0.12345(6) 0.5647(2)
C2 C 0.6713(3) 0.12595(6) 0.4098(3)
C3 C 0.8146(3) 0.25882(6) 0.7246(2)
C4 C 0.6644(3) 0.23659(6) 0.7379(3)
C5 C 1.0008(3) 0.01101(6) 0.4217(2)
C6 C 0.4857(3) 0.01186(6) 0.5706(2)
Cu1C Cu 0.75056(3) 0.296422(7) 0.98505(3)
Cu1B Cu 0.24944(3) -0.203578(7) 0.51495(3)
Cu1A Cu 0.24944(3) -0.296422(7) 0.01495(3)
Cu2B Cu 1.26021(3) -0.045729(7) 0.50076(3)
Cu2B_2 Cu 0.26021(3) -0.045729(7) 0.50076(3)
O1B O 0.10525(19) -0.15421(4) 0.38608(18)
O2B O 0.14725(19) -0.09016(4) 0.37126(18)
O3B O 0.3780(2) -0.15999(5) 0.63719(19)
O4B O 0.38666(19) -0.09481(5) 0.65552(19)
O5B O 0.37549(19) -0.20661(5) 0.35233(18)
O6C O 0.5938(2) 0.25115(5) 0.3313(2)
O6A O 0.4062(2) -0.25115(5) 0.6687(2)
O6B O 0.4062(2) -0.24885(5) 0.1687(2)
O7B O 0.12291(19) -0.24604(5) 0.37848(19)
O8C O 0.8631(2) 0.21241(5) 0.31501(19)
O8A O 0.1369(2) -0.21241(5) 0.68499(19)
O8B O 0.1369(2) -0.28759(5) 0.18499(19)
O9B O 1.09173(19) -0.04046(4) 0.61757(19)
O9B_2 O 0.09173(19) -0.04046(4) 0.61757(19)
O10B O 0.9096(2) 0.00100(5) 0.6537(2)
O10_2 O 0.0904(2) -0.00100(5) 0.3463(2)
O11B O 0.42873(19) -0.04165(4) 0.38390(19)
O12B O 0.6200(2) 0.00071(5) 0.37236(19)
C1B C 0.1804(3) -0.12345(6) 0.4353(2)
C2B C 0.3287(3) -0.12595(6) 0.5902(3)
C3B C 0.1854(3) -0.25882(6) 0.2754(2)
C4B C 0.3356(3) -0.23659(6) 0.2621(3)
C5B C 0.9992(3) -0.01101(6) 0.5783(2)
C6B C 0.5143(3) -0.01186(6) 0.4294(2)
N1 N 0.9034(3) 0.07874(6) 0.0971(2)
H1 H 0.9175 0.0652 0.1937
C7 C 0.9043(4) 0.12162(8) 0.1370(3)
H2 H 1.0022 0.1274 0.2276
H3 H 0.8105 0.1273 0.1747
C8 C 0.8994(4) 0.14884(8) -0.0012(3)
H4 H 0.8933 0.1761 0.0328
H5 H 0.8049 0.1428 -0.0932
H6 H 0.9969 0.1453 -0.0331
C9 C 1.0378(4) 0.06654(9) 0.0357(4)
H7 H 1.0240 0.0793 -0.0703
H8 H 1.0324 0.0377 0.0182
C10 C 1.2005(4) 0.07697(11) 0.1482(5)
H9 H 1.2833 0.0693 0.0992
H10 H 1.2183 0.0630 0.2510
H11 H 1.2061 0.1054 0.1680
C11 C 0.7416(4) 0.06700(12) -0.0129(4)
H12 H 0.730(3) 0.0771(8) -0.110(4)
C12 C 0.7060(8) 0.02511(18) -0.0102(6)
H13 H 0.6018 0.0196 -0.0899
H14 H 0.7026 0.0177 0.0979
H15 H 0.7898 0.0099 -0.0369
N2 N 0.3416(2) 0.17145(6) 0.6564(2)
H16 H 0.4354 0.1853 0.6645
C13 C 0.2941(4) 0.18194(9) 0.8026(3)
H17 H 0.1904 0.1691 0.7951
H18 H 0.2780 0.2108 0.8041
C14 C 0.4176(5) 0.16969(13) 0.9596(4)
H19 H 0.3784 0.1764 1.0508
H20 H 0.5189 0.1835 0.9711
H21 H 0.4354 0.1412 0.9584
C15 C 0.3810(3) 0.12891(8) 0.6462(4)
H22 H 0.4749 0.1223 0.7400
H23 H 0.4126 0.1248 0.5470
C16 C 0.2464(4) 0.10100(9) 0.6433(5)
H24 H 0.2809 0.0739 0.6335
H25 H 0.1526 0.1072 0.5507
H26 H 0.2181 0.1037 0.7437
C17 C 0.2175(4) 0.18687(11) 0.5097(4)
H27 H 0.1114 0.1845 0.5279
C18 C 0.2594(5) 0.19255(17) 0.3627(6)
H28 H 0.1834 0.2124 0.3016
H29 H 0.3671 0.1985 0.3567
loop_
_geom_bond_atom_site_label_1
_geom_bond_atom_site_label_2
_geom_bond_site_symmetry_1
_geom_bond_site_symmetry_2
Cu1 O1 1_555 1_555
Cu2 O2 1_555 1_555
O1 C1 1_555 1_555
O2 C1 1_555 1_555
O3 Cu1 1_555 1_555
O4 Cu2 1_555 1_555
O5 Cu1 1_555 1_555
O6 C4 1_555 1_555
O7 Cu1 1_555 1_555
O8 C3 1_555 1_555
O9 Cu2 1_555 1_555
O10 C5 1_555 1_555
O11 Cu2 1_555 1_555
O12 C6 1_555 1_555
C1 C2 1_555 1_555
C2 O3 1_555 1_555
C3 O7 1_555 1_555
C4 O5 1_555 1_555
C5 O9 1_555 1_555
C6 O11 1_555 1_555
N1 H1 1_555 1_555
C7 N1 1_555 1_555
H2 C7 1_555 1_555
H3 C7 1_555 1_555
C8 C7 1_555 1_555
H4 C8 1_555 1_555
H5 C8 1_555 1_555
H6 C8 1_555 1_555
C9 N1 1_555 1_555
H7 C9 1_555 1_555
H8 C9 1_555 1_555
C10 C9 1_555 1_555
H9 C10 1_555 1_555
H10 C10 1_555 1_555
H11 C10 1_555 1_555
C11 N1 1_555 1_555
H12 C11 1_555 1_555
C12 C11 1_555 1_555
H13 C12 1_555 1_555
H14 C12 1_555 1_555
H15 C12 1_555 1_555
N2 H16 1_555 1_555
C13 N2 1_555 1_555
H17 C13 1_555 1_555
H18 C13 1_555 1_555
C14 C13 1_555 1_555
H19 C14 1_555 1_555
H20 C14 1_555 1_555
H21 C14 1_555 1_555
C15 N2 1_555 1_555
H22 C15 1_555 1_555
H23 C15 1_555 1_555
C16 C15 1_555 1_555
H24 C16 1_555 1_555
H25 C16 1_555 1_555
H26 C16 1_555 1_555
C17 N2 1_555 1_555
H27 C17 1_555 1_555
C18 C17 1_555 1_555
H28 C18 1_555 1_555
H29 C18 1_555 1_555
Cu1C O6 1_555 1_555
Cu1B O1B 1_555 1_555
Cu1A O6B 1_555 1_555
Cu2B O10 1_555 1_555
Cu2B_2 O12 1_555 1_555
O1B C1B 1_555 1_555
O2B Cu2B_2 1_555 1_555
O3B Cu1B 1_555 1_555
O4B Cu2B_2 1_555 1_555
O5B Cu1B 1_555 1_555
O6C Cu1 1_555 1_555
O6A Cu1B 1_555 1_555
O6B C4B 1_555 1_555
O7B Cu1B 1_555 1_555
O8C Cu1 1_555 1_555
O8A Cu1B 1_555 1_555
O8B Cu1A 1_555 1_555
O9B Cu2B 1_555 1_555
O9B_2 Cu2B_2 1_555 1_555
O10B Cu2 1_555 1_555
O10_2 Cu2B_2 1_555 1_555
O11B Cu2B_2 1_555 1_555
O12B Cu2 1_555 1_555
C1B O2B 1_555 1_555
C2B O3B 1_555 1_555
C3B O7B 1_555 1_555
C4B O5B 1_555 1_555
C5B C5 1_555 1_555
C6B C6 1_555 1_555
O4 C2 1_555 1_555
O8 Cu1C 1_555 1_555
C3 C4 1_555 1_555
O4B C2B 1_555 1_555
O8B C3B 1_555 1_555
O9B C5B 1_555 1_555
O10B C5B 1_555 1_555
O11B C6B 1_555 1_555
O12B C6B 1_555 1_555
C1B C2B 1_555 1_555
C3B C4B 1_555 1_555

#END
