
#######################################################################
#
#                 Cambridge Crystallographic Data Centre
#                                CCDC 
#
#######################################################################
#
# If this CIF has been generated from an entry in the Cambridge 
# Structural Database, then it will include bibliographic, chemical, 
# crystal, experimental, refinement or atomic coordinate data resulting 
# from the CCDC's data processing and validation procedures.
#
#######################################################################

data_PAHVUS
_chemical_formula_moiety         'C66 H4 O28 Zr12'
_symmetry_cell_setting           cubic
_symmetry_space_group_name_H-M   'F m -3 m'
_symmetry_Int_Tables_number      225
_space_group_name_Hall           '-F 4 2 3'
loop_
_symmetry_equiv_pos_site_id
_symmetry_equiv_pos_as_xyz
1 x,y,z
2 -x,-y,z
3 -x,y,-z
4 x,-y,-z
5 z,x,y
6 z,-x,-y
7 -z,-x,y
8 -z,x,-y
9 y,z,x
10 -y,z,-x
11 y,-z,-x
12 -y,-z,x
13 y,x,-z
14 -y,-x,-z
15 y,-x,z
16 -y,x,z
17 x,z,-y
18 -x,z,y
19 -x,-z,-y
20 x,-z,y
21 z,y,-x
22 z,-y,x
23 -z,y,x
24 -z,-y,-x
25 x,1/2+y,1/2+z
26 -x,1/2-y,1/2+z
27 -x,1/2+y,1/2-z
28 x,1/2-y,1/2-z
29 z,1/2+x,1/2+y
30 z,1/2-x,1/2-y
31 -z,1/2-x,1/2+y
32 -z,1/2+x,1/2-y
33 y,1/2+z,1/2+x
34 -y,1/2+z,1/2-x
35 y,1/2-z,1/2-x
36 -y,1/2-z,1/2+x
37 y,1/2+x,1/2-z
38 -y,1/2-x,1/2-z
39 y,1/2-x,1/2+z
40 -y,1/2+x,1/2+z
41 x,1/2+z,1/2-y
42 -x,1/2+z,1/2+y
43 -x,1/2-z,1/2-y
44 x,1/2-z,1/2+y
45 z,1/2+y,1/2-x
46 z,1/2-y,1/2+x
47 -z,1/2+y,1/2+x
48 -z,1/2-y,1/2-x
49 1/2+x,y,1/2+z
50 1/2-x,-y,1/2+z
51 1/2-x,y,1/2-z
52 1/2+x,-y,1/2-z
53 1/2+z,x,1/2+y
54 1/2+z,-x,1/2-y
55 1/2-z,-x,1/2+y
56 1/2-z,x,1/2-y
57 1/2+y,z,1/2+x
58 1/2-y,z,1/2-x
59 1/2+y,-z,1/2-x
60 1/2-y,-z,1/2+x
61 1/2+y,x,1/2-z
62 1/2-y,-x,1/2-z
63 1/2+y,-x,1/2+z
64 1/2-y,x,1/2+z
65 1/2+x,z,1/2-y
66 1/2-x,z,1/2+y
67 1/2-x,-z,1/2-y
68 1/2+x,-z,1/2+y
69 1/2+z,y,1/2-x
70 1/2+z,-y,1/2+x
71 1/2-z,y,1/2+x
72 1/2-z,-y,1/2-x
73 1/2+x,1/2+y,z
74 1/2-x,1/2-y,z
75 1/2-x,1/2+y,-z
76 1/2+x,1/2-y,-z
77 1/2+z,1/2+x,y
78 1/2+z,1/2-x,-y
79 1/2-z,1/2-x,y
80 1/2-z,1/2+x,-y
81 1/2+y,1/2+z,x
82 1/2-y,1/2+z,-x
83 1/2+y,1/2-z,-x
84 1/2-y,1/2-z,x
85 1/2+y,1/2+x,-z
86 1/2-y,1/2-x,-z
87 1/2+y,1/2-x,z
88 1/2-y,1/2+x,z
89 1/2+x,1/2+z,-y
90 1/2-x,1/2+z,y
91 1/2-x,1/2-z,-y
92 1/2+x,1/2-z,y
93 1/2+z,1/2+y,-x
94 1/2+z,1/2-y,x
95 1/2-z,1/2+y,x
96 1/2-z,1/2-y,-x
97 -x,-y,-z
98 x,y,-z
99 x,-y,z
100 -x,y,z
101 -z,-x,-y
102 -z,x,y
103 z,x,-y
104 z,-x,y
105 -y,-z,-x
106 y,-z,x
107 -y,z,x
108 y,z,-x
109 -y,-x,z
110 y,x,z
111 -y,x,-z
112 y,-x,-z
113 -x,-z,y
114 x,-z,-y
115 x,z,y
116 -x,z,-y
117 -z,-y,x
118 -z,y,-x
119 z,-y,-x
120 z,y,x
121 -x,1/2-y,1/2-z
122 x,1/2+y,1/2-z
123 x,1/2-y,1/2+z
124 -x,1/2+y,1/2+z
125 -z,1/2-x,1/2-y
126 -z,1/2+x,1/2+y
127 z,1/2+x,1/2-y
128 z,1/2-x,1/2+y
129 -y,1/2-z,1/2-x
130 y,1/2-z,1/2+x
131 -y,1/2+z,1/2+x
132 y,1/2+z,1/2-x
133 -y,1/2-x,1/2+z
134 y,1/2+x,1/2+z
135 -y,1/2+x,1/2-z
136 y,1/2-x,1/2-z
137 -x,1/2-z,1/2+y
138 x,1/2-z,1/2-y
139 x,1/2+z,1/2+y
140 -x,1/2+z,1/2-y
141 -z,1/2-y,1/2+x
142 -z,1/2+y,1/2-x
143 z,1/2-y,1/2-x
144 z,1/2+y,1/2+x
145 1/2-x,-y,1/2-z
146 1/2+x,y,1/2-z
147 1/2+x,-y,1/2+z
148 1/2-x,y,1/2+z
149 1/2-z,-x,1/2-y
150 1/2-z,x,1/2+y
151 1/2+z,x,1/2-y
152 1/2+z,-x,1/2+y
153 1/2-y,-z,1/2-x
154 1/2+y,-z,1/2+x
155 1/2-y,z,1/2+x
156 1/2+y,z,1/2-x
157 1/2-y,-x,1/2+z
158 1/2+y,x,1/2+z
159 1/2-y,x,1/2-z
160 1/2+y,-x,1/2-z
161 1/2-x,-z,1/2+y
162 1/2+x,-z,1/2-y
163 1/2+x,z,1/2+y
164 1/2-x,z,1/2-y
165 1/2-z,-y,1/2+x
166 1/2-z,y,1/2-x
167 1/2+z,-y,1/2-x
168 1/2+z,y,1/2+x
169 1/2-x,1/2-y,-z
170 1/2+x,1/2+y,-z
171 1/2+x,1/2-y,z
172 1/2-x,1/2+y,z
173 1/2-z,1/2-x,-y
174 1/2-z,1/2+x,y
175 1/2+z,1/2+x,-y
176 1/2+z,1/2-x,y
177 1/2-y,1/2-z,-x
178 1/2+y,1/2-z,x
179 1/2-y,1/2+z,x
180 1/2+y,1/2+z,-x
181 1/2-y,1/2-x,z
182 1/2+y,1/2+x,z
183 1/2-y,1/2+x,-z
184 1/2+y,1/2-x,-z
185 1/2-x,1/2-z,y
186 1/2+x,1/2-z,-y
187 1/2+x,1/2+z,y
188 1/2-x,1/2+z,-y
189 1/2-z,1/2-y,x
190 1/2-z,1/2+y,-x
191 1/2+z,1/2-y,-x
192 1/2+z,1/2+y,x
_cell_length_a                   26.7213(8)
_cell_length_b                   26.7213(8)
_cell_length_c                   26.7213(8)
_cell_angle_alpha                90
_cell_angle_beta                 90
_cell_angle_gamma                90
_cell_volume                     19079.8
loop_
_atom_site_label
_atom_site_type_symbol
_atom_site_fract_x
_atom_site_fract_y
_atom_site_fract_z
Zr1 Zr 0.09223(5) 0.0000 0.0000
O1 O 0.1326(2) 0.0725(2) 0.0000
C1 C 0.1176(3) 0.1176(3) 0.0000
C2 C 0.1565(3) 0.1565(3) 0.0000
C3 C 0.2305(3) 0.2305(3) 0.0000
O2 O 0.0517(4) 0.0517(4) 0.0517(4)
H1 H 0.0733 0.0733 0.0733
C4 C 0.2060(5) 0.1445(5) 0.0120(8)
C5 C 0.2422(5) 0.1815(5) 0.0128(8)
O1L O 0.0725(2) 0.1326(2) 0.0000
C4L C 0.1445(5) 0.2060(5) -0.0120(8)
C5L C 0.1815(5) 0.2422(5) -0.0128(8)
O1UB O 0.3674(2) 0.4275(2) 0.0000
C1UB C 0.3824(3) 0.3824(3) 0.0000
C2UB C 0.3435(3) 0.3435(3) 0.0000
C3UB C 0.2695(3) 0.2695(3) 0.0000
C4UB C 0.2940(5) 0.3555(5) 0.0120(8)
C5UB C 0.2578(5) 0.3185(5) 0.0128(8)
O1GC O 0.4275(2) 0.3674(2) 0.0000
C4GC C 0.3555(5) 0.2940(5) -0.0120(8)
C5GC C 0.3185(5) 0.2578(5) -0.0128(8)
C4SC C 0.2060(5) 0.1445(5) -0.0120(8)
C5SC C 0.2422(5) 0.1815(5) -0.0128(8)
C4ED C 0.1445(5) 0.2060(5) 0.0120(8)
C5ED C 0.1815(5) 0.2422(5) 0.0128(8)
C4LF C 0.2940(5) 0.3555(5) -0.0120(8)
C5LF C 0.2578(5) 0.3185(5) -0.0128(8)
C4XF C 0.3555(5) 0.2940(5) 0.0120(8)
C5XF C 0.3185(5) 0.2578(5) 0.0128(8)
O1C O 0.1326(2) -0.0725(2) 0.0000
C1C C 0.1176(3) -0.1176(3) 0.0000
C2C C 0.1565(3) -0.1565(3) 0.0000
C3C C 0.2305(3) -0.2305(3) 0.0000
O2C O 0.0517(4) -0.0517(4) -0.0517(4)
H1C H 0.0733 -0.0733 -0.0733
C4C C 0.2060(5) -0.1445(5) -0.0120(8)
C5C C 0.2422(5) -0.1815(5) -0.0128(8)
O1N O 0.0725(2) -0.1326(2) 0.0000
C4N C 0.1445(5) -0.2060(5) 0.0120(8)
C5N C 0.1815(5) -0.2422(5) 0.0128(8)
O1VB O 0.3674(2) -0.4275(2) 0.0000
C1VB C 0.3824(3) -0.3824(3) 0.0000
C2VB C 0.3435(3) -0.3435(3) 0.0000
C3VB C 0.2695(3) -0.2695(3) 0.0000
C4VB C 0.2940(5) -0.3555(5) -0.0120(8)
C5VB C 0.2578(5) -0.3185(5) -0.0128(8)
O1IC O 0.4275(2) -0.3674(2) 0.0000
C4IC C 0.3555(5) -0.2940(5) 0.0120(8)
C5IC C 0.3185(5) -0.2578(5) 0.0128(8)
C4TC C 0.2060(5) -0.1445(5) 0.0120(8)
C5TC C 0.2422(5) -0.1815(5) 0.0128(8)
C4GD C 0.1445(5) -0.2060(5) -0.0120(8)
C5GD C 0.1815(5) -0.2422(5) -0.0128(8)
C4OF C 0.2940(5) -0.3555(5) 0.0120(8)
C5OF C 0.2578(5) -0.3185(5) 0.0128(8)
C4ZF C 0.3555(5) -0.2940(5) -0.0120(8)
C5ZF C 0.3185(5) -0.2578(5) -0.0128(8)
Zr1D Zr 0.0000 0.09223(5) 0.0000
O1D O -0.0000 0.1326(2) 0.0725(2)
C1D C 0.0000 0.1176(3) 0.1176(3)
C2D C 0.0000 0.1565(3) 0.1565(3)
C3D C 0.0000 0.2305(3) 0.2305(3)
C4D C 0.0120(8) 0.2060(5) 0.1445(5)
C5D C 0.0128(8) 0.2422(5) 0.1815(5)
O1V O -0.0000 0.0725(2) 0.1326(2)
C4V C -0.0120(8) 0.1445(5) 0.2060(5)
C5V C -0.0128(8) 0.1815(5) 0.2422(5)
O1CA O 0.0000 0.3674(2) 0.4275(2)
C1CA C 0.0000 0.3824(3) 0.3824(3)
C2CA C 0.0000 0.3435(3) 0.3435(3)
C3CA C 0.0000 0.2695(3) 0.2695(3)
C4CA C 0.0120(8) 0.2940(5) 0.3555(5)
C5CA C 0.0128(8) 0.2578(5) 0.3185(5)
O1UA O 0.0000 0.4275(2) 0.3674(2)
C4UA C -0.0120(8) 0.3555(5) 0.2940(5)
C5UA C -0.0128(8) 0.3185(5) 0.2578(5)
C4WC C -0.0120(8) 0.2060(5) 0.1445(5)
C5WC C -0.0128(8) 0.2422(5) 0.1815(5)
C4OD C 0.0120(8) 0.1445(5) 0.2060(5)
C5OD C 0.0128(8) 0.1815(5) 0.2422(5)
C4TD C -0.0120(8) 0.2940(5) 0.3555(5)
C5TD C -0.0128(8) 0.2578(5) 0.3185(5)
C4LE C 0.0120(8) 0.3555(5) 0.2940(5)
C5LE C 0.0128(8) 0.3185(5) 0.2578(5)
Zr1E Zr 0.0000 -0.09223(5) 0.0000
O2A O -0.0517(4) -0.0517(4) 0.0517(4)
H1A H -0.0733 -0.0733 0.0733
O2B O -0.0517(4) 0.0517(4) -0.0517(4)
H1B H -0.0733 0.0733 -0.0733
Zr1A Zr -0.09223(5) 0.0000 0.0000
Zr1H Zr 0.0000 0.0000 0.09223(5)
Zr1I Zr 0.0000 0.0000 -0.09223(5)
Zr1CA Zr -0.0000 0.40777(5) 0.5000
Zr1GA Zr -0.0000 0.5000 0.40777(5)
Zr1UB Zr 0.40777(5) -0.5000 0.0000
Zr1UB_2 Zr 0.40777(5) 0.5000 0.0000
Zr1XB Zr 0.5000 -0.40777(5) 0.0000
Zr1YB Zr 0.5000 0.40777(5) 0.0000
O1E O 0.0000 -0.1326(2) -0.0725(2)
O1F O 0.0000 -0.1326(2) 0.0725(2)
O1G O -0.0000 0.1326(2) -0.0725(2)
O1M O -0.0725(2) -0.1326(2) 0.0000
O1O O -0.0725(2) 0.1326(2) 0.0000
O1P O 0.1326(2) 0.0000 -0.0725(2)
O1S O 0.1326(2) 0.0000 0.0725(2)
O2L O 0.0517(4) 0.0517(4) -0.0517(4)
O2M O -0.0517(4) -0.0517(4) -0.0517(4)
O2N O 0.0517(4) -0.0517(4) 0.0517(4)
O2O O -0.0517(4) 0.0517(4) 0.0517(4)
O3 O 0.1113(5) 0.1113(5) 0.1113(5)
loop_
_geom_bond_atom_site_label_1
_geom_bond_atom_site_label_2
_geom_bond_site_symmetry_1
_geom_bond_site_symmetry_2
Zr1 O1 1_555 1_555
O1 C1 1_555 1_555
C1 C2 1_555 1_555
C2 C4 1_555 1_555
C3 C5 1_555 1_555
O2 Zr1 1_555 1_555
H1 O2 1_555 1_555
C4 C5 1_555 1_555
C5 C4SC 1_555 1_555
O1L C1 1_555 1_555
C4L C2 1_555 1_555
C5L C3 1_555 1_555
O1UB C1UB 1_555 1_555
C1UB C2UB 1_555 1_555
C2UB C4UB 1_555 1_555
C3UB C3 1_555 1_555
C4UB C5UB 1_555 1_555
C5UB C3UB 1_555 1_555
O1GC C1UB 1_555 1_555
C4GC C2UB 1_555 1_555
C5GC C3UB 1_555 1_555
C4SC C2 1_555 1_555
C5SC C3 1_555 1_555
C4ED C2 1_555 1_555
C5ED C3 1_555 1_555
C4LF C2UB 1_555 1_555
C5LF C3UB 1_555 1_555
C4XF C2UB 1_555 1_555
C5XF C3UB 1_555 1_555
O1C Zr1 1_555 1_555
C1C O1C 1_555 1_555
C2C C1C 1_555 1_555
C3C C5C 1_555 1_555
O2C Zr1 1_555 1_555
H1C O2C 1_555 1_555
C4C C2C 1_555 1_555
C5C C4C 1_555 1_555
O1N C1C 1_555 1_555
C4N C2C 1_555 1_555
C5N C3C 1_555 1_555
O1VB C1VB 1_555 1_555
C1VB C2VB 1_555 1_555
C2VB C4VB 1_555 1_555
C3VB C3C 1_555 1_555
C4VB C5VB 1_555 1_555
C5VB C3VB 1_555 1_555
O1IC C1VB 1_555 1_555
C4IC C2VB 1_555 1_555
C5IC C3VB 1_555 1_555
C4TC C2C 1_555 1_555
C5TC C3C 1_555 1_555
C4GD C2C 1_555 1_555
C5GD C3C 1_555 1_555
C4OF C2VB 1_555 1_555
C5OF C3VB 1_555 1_555
C4ZF C2VB 1_555 1_555
C5ZF C3VB 1_555 1_555
Zr1D O2 1_555 1_555
O1D Zr1D 1_555 1_555
C1D O1D 1_555 1_555
C2D C1D 1_555 1_555
C3D C5D 1_555 1_555
C4D C2D 1_555 1_555
C5D C4D 1_555 1_555
O1V C1D 1_555 1_555
C4V C2D 1_555 1_555
C5V C3D 1_555 1_555
O1CA C1CA 1_555 1_555
C1CA C2CA 1_555 1_555
C2CA C4CA 1_555 1_555
C3CA C3D 1_555 1_555
C4CA C5CA 1_555 1_555
C5CA C3CA 1_555 1_555
O1UA C1CA 1_555 1_555
C4UA C2CA 1_555 1_555
C5UA C3CA 1_555 1_555
C4WC C2D 1_555 1_555
C5WC C3D 1_555 1_555
C4OD C2D 1_555 1_555
C5OD C3D 1_555 1_555
C4TD C2CA 1_555 1_555
C5TD C3CA 1_555 1_555
C4LE C2CA 1_555 1_555
C5LE C3CA 1_555 1_555
Zr1E O2C 1_555 1_555
O2A Zr1E 1_555 1_555
H1A O2A 1_555 1_555
O2B Zr1D 1_555 1_555
H1B O2B 1_555 1_555
Zr1A O2A 1_555 1_555
Zr1H O2 1_555 1_555
Zr1I O2C 1_555 1_555
Zr1CA O1CA 1_555 1_555
Zr1GA O1UA 1_555 1_555
Zr1UB O1VB 1_555 1_555
Zr1UB_2 O1UB 1_555 1_555
Zr1XB O1IC 1_555 1_555
Zr1YB O1GC 1_555 1_555
O1E Zr1E 1_555 1_555
O1F Zr1E 1_555 1_555
O1G Zr1D 1_555 1_555
O1M Zr1E 1_555 1_555
O1O Zr1D 1_555 1_555
O1P Zr1 1_555 1_555
O1S Zr1 1_555 1_555
O2L Zr1 1_555 1_555
O2M Zr1E 1_555 1_555
O2N Zr1 1_555 1_555
O2O Zr1D 1_555 1_555
C4 C4SC 1_555 1_555
C4 C5SC 1_555 1_555
C5 C5SC 1_555 1_555
O1L Zr1D 1_555 1_555
C4L C5L 1_555 1_555
C4L C4ED 1_555 1_555
C4L C5ED 1_555 1_555
C5L C4ED 1_555 1_555
C5L C5ED 1_555 1_555
C4UB C4LF 1_555 1_555
C4UB C5LF 1_555 1_555
C5UB C4LF 1_555 1_555
C5UB C5LF 1_555 1_555
C4GC C5GC 1_555 1_555
C4GC C4XF 1_555 1_555
C4GC C5XF 1_555 1_555
C5GC C4XF 1_555 1_555
C5GC C5XF 1_555 1_555
C4SC C5SC 1_555 1_555
C4ED C5ED 1_555 1_555
C4LF C5LF 1_555 1_555
C4XF C5XF 1_555 1_555
C4C C4TC 1_555 1_555
C4C C5TC 1_555 1_555
C5C C4TC 1_555 1_555
C5C C5TC 1_555 1_555
O1N Zr1E 1_555 1_555
C4N C5N 1_555 1_555
C4N C4GD 1_555 1_555
C4N C5GD 1_555 1_555
C5N C4GD 1_555 1_555
C5N C5GD 1_555 1_555
C4VB C4OF 1_555 1_555
C4VB C5OF 1_555 1_555
C5VB C4OF 1_555 1_555
C5VB C5OF 1_555 1_555
C4IC C5IC 1_555 1_555
C4IC C4ZF 1_555 1_555
C4IC C5ZF 1_555 1_555
C5IC C4ZF 1_555 1_555
C5IC C5ZF 1_555 1_555
C4TC C5TC 1_555 1_555
C4GD C5GD 1_555 1_555
C4OF C5OF 1_555 1_555
C4ZF C5ZF 1_555 1_555
Zr1D O2L 1_555 1_555
C4D C4WC 1_555 1_555
C4D C5WC 1_555 1_555
C5D C4WC 1_555 1_555
C5D C5WC 1_555 1_555
O1V Zr1H 1_555 1_555
C4V C5V 1_555 1_555
C4V C4OD 1_555 1_555
C4V C5OD 1_555 1_555
C5V C4OD 1_555 1_555
C5V C5OD 1_555 1_555
C4CA C4TD 1_555 1_555
C4CA C5TD 1_555 1_555
C5CA C4TD 1_555 1_555
C5CA C5TD 1_555 1_555
C4UA C5UA 1_555 1_555
C4UA C4LE 1_555 1_555
C4UA C5LE 1_555 1_555
C5UA C4LE 1_555 1_555
C5UA C5LE 1_555 1_555
C4WC C5WC 1_555 1_555
C4OD C5OD 1_555 1_555
C4TD C5TD 1_555 1_555
C4LE C5LE 1_555 1_555
Zr1E O2N 1_555 1_555
O2A Zr1H 1_555 1_555
O2B Zr1A 1_555 1_555
O2B Zr1I 1_555 1_555
Zr1A O2M 1_555 1_555
Zr1A O2O 1_555 1_555
Zr1H O2N 1_555 1_555
Zr1H O2O 1_555 1_555
Zr1I O2L 1_555 1_555
Zr1I O2M 1_555 1_555

#END
