
#######################################################################
#
#                 Cambridge Crystallographic Data Centre
#                                CCDC 
#
#######################################################################
#
# If this CIF has been generated from an entry in the Cambridge 
# Structural Database, then it will include bibliographic, chemical, 
# crystal, experimental, refinement or atomic coordinate data resulting 
# from the CCDC's data processing and validation procedures.
#
#######################################################################

data_MIJMAU
_chemical_formula_moiety         '(C40 H86 N16 Ni2 O7 W1)n'
_symmetry_cell_setting           monoclinic
_symmetry_space_group_name_H-M   'C 2/c'
_symmetry_Int_Tables_number      15
_space_group_name_Hall           '-C 2yc'
loop_
_symmetry_equiv_pos_site_id
_symmetry_equiv_pos_as_xyz
1 x,y,z
2 1/2+x,1/2+y,z
3 -x,y,1/2-z
4 1/2-x,1/2+y,1/2-z
5 -x,-y,-z
6 1/2-x,1/2-y,-z
7 x,-y,1/2+z
8 1/2+x,1/2-y,1/2+z
_cell_length_a                   26.425(7)
_cell_length_b                   18.509(5)
_cell_length_c                   18.164(5)
_cell_angle_alpha                90
_cell_angle_beta                 132.702(4)
_cell_angle_gamma                90
_cell_volume                     6528.78
loop_
_atom_site_label
_atom_site_type_symbol
_atom_site_fract_x
_atom_site_fract_y
_atom_site_fract_z
_atom_site_U_iso_or_equiv
_atom_site_thermal_displace_type
C1 C 0.3985(2) 0.6828(3) 0.1229(3) 0.0447 Uani
C2 C 0.4889(2) 0.6069(2) 0.3501(3) 0.0362 Uani
C3 C 0.4311(2) 0.5543(3) 0.1769(4) 0.0466 Uani
C4 C 0.4810(2) 0.7384(3) 0.3019(3) 0.0421 Uani
C5 C 0.2771(3) 0.8675(3) -0.0973(4) 0.0538 Uani
C6 C 0.2233(3) 0.8227(3) -0.1915(4) 0.0594 Uani
H1 H 0.1786 0.8368 -0.2166 0.0710 Uiso
H2 H 0.2246 0.8377 -0.2414 0.0710 Uiso
C7 C 0.2260(3) 0.7409(3) -0.1879(4) 0.0564 Uani
H3 H 0.2744 0.7265 -0.1443 0.0670 Uiso
C8 C 0.3013(4) 0.8672(3) 0.1341(5) 0.0693 Uani
H4 H 0.2556 0.8861 0.0991 0.0830 Uiso
H5 H 0.3334 0.8892 0.2000 0.0830 Uiso
C9 C 0.3221(3) 0.8850(3) 0.0755(4) 0.0560 Uani
H6 H 0.3669 0.8645 0.1083 0.0670 Uiso
H7 H 0.3240 0.9368 0.0699 0.0670 Uiso
C10 C 0.3496(3) 0.8441(3) -0.0504(4) 0.0573 Uani
H8 H 0.3583 0.8617 -0.0907 0.0850 Uiso
H9 H 0.3526 0.7924 -0.0472 0.0850 Uiso
H10 H 0.3832 0.8638 0.0159 0.0850 Uiso
C11 C 0.2643(3) 0.9469(3) -0.1268(5) 0.0757 Uani
H11 H 0.2174 0.9588 -0.1613 0.1130 Uiso
H12 H 0.2725 0.9559 -0.1700 0.1130 Uiso
H13 H 0.2948 0.9762 -0.0677 0.1130 Uiso
C12 C 0.1869(3) 0.7069(4) -0.2918(5) 0.0731 Uani
H14 H 0.1820 0.6558 -0.2886 0.1100 Uiso
H15 H 0.2121 0.7150 -0.3116 0.1100 Uiso
H16 H 0.1421 0.7285 -0.3400 0.1100 Uiso
C13 C 0.4052(3) 0.3801(3) 0.3394(5) 0.0639 Uani
C14 C 0.4667(3) 0.3699(3) 0.3487(4) 0.0552 Uani
H17 H 0.4645 0.4079 0.3097 0.0660 Uiso
H18 H 0.4601 0.3245 0.3164 0.0660 Uiso
C15 C 0.5408(3) 0.3696(3) 0.4527(5) 0.0672 Uani
H19 H 0.5410 0.3444 0.5003 0.0810 Uiso
C16 C 0.3693(3) 0.5453(3) 0.4192(4) 0.0554 Uani
H20 H 0.3609 0.5775 0.3698 0.0660 Uiso
H21 H 0.3367 0.5572 0.4258 0.0660 Uiso
C17 C 0.3579(3) 0.4699(3) 0.3842(5) 0.0633 Uani
H22 H 0.3651 0.4370 0.4321 0.0750 Uiso
H23 H 0.3113 0.4639 0.3202 0.0750 Uiso
C18 C 0.3417(3) 0.3707(3) 0.2289(5) 0.0688 Uani
H24 H 0.3409 0.3226 0.2083 0.1040 Uiso
H25 H 0.3428 0.4051 0.1905 0.1040 Uiso
H26 H 0.3011 0.3784 0.2181 0.1040 Uiso
C19 C 0.4059(3) 0.3213(3) 0.3973(5) 0.0669 Uani
H27 H 0.4507 0.3187 0.4636 0.1010 Uiso
H28 H 0.3952 0.2759 0.3639 0.1010 Uiso
H29 H 0.3722 0.3318 0.4012 0.1010 Uiso
C20 C 0.5915(3) 0.3313(3) 0.4499(5) 0.0635 Uani
H30 H 0.5812 0.3446 0.3899 0.0960 Uiso
H31 H 0.5871 0.2799 0.4510 0.0960 Uiso
H32 H 0.6378 0.3455 0.5073 0.0960 Uiso
N1 N 0.3446(2) 0.7039(3) 0.0580(3) 0.0573 Uani
N2 N 0.4847(2) 0.5796(2) 0.4020(3) 0.0512 Uani
N3 N 0.3919(3) 0.5081(3) 0.1347(4) 0.0729 Uani
N4 N 0.4710(3) 0.7873(3) 0.3278(4) 0.0685 Uani
N5 N 0.2681(2) 0.8521(3) -0.0243(4) 0.0642 Uani
H33 H 0.2294 0.8772 -0.0503 0.0770 Uiso
N6 N 0.1983(2) 0.7103(3) -0.1432(3) 0.0614 Uani
H34 H 0.1537 0.7249 -0.1834 0.0740 Uiso
N7 N 0.4081(2) 0.4548(3) 0.3742(3) 0.0590 Uani
H35 H 0.3944 0.4839 0.3230 0.0710 Uiso
N8 N 0.5588(3) 0.4433(3) 0.4820(4) 0.0612 Uani
H36 H 0.5552 0.4665 0.4343 0.0740 Uiso
Ni1 Ni 0.2500 0.7500 0.0000 0.0553 Uani
Ni2 Ni 0.5000 0.5000 0.5000 0.0424 Uani
W1 W 0.5000 0.645434(13) 0.2500 0.0316 Uani
C1E C 0.1015(2) 0.8172(3) -0.1229(3) 0.0447 Uani
C1B C 0.6015(2) 0.6828(3) 0.3771(3) 0.0447 Uani
C2B C 0.5111(2) 0.6069(2) 0.1499(3) 0.0362 Uani
C3B C 0.5689(2) 0.5543(3) 0.3231(4) 0.0466 Uani
C4B C 0.5190(2) 0.7384(3) 0.1981(3) 0.0421 Uani
C5E C 0.2229(3) 0.6325(3) 0.0973(4) 0.0538 Uani
C6E C 0.2767(3) 0.6773(3) 0.1915(4) 0.0594 Uani
H1E H 0.3214 0.6632 0.2166 0.0710 Uiso
H2E H 0.2754 0.6623 0.2414 0.0710 Uiso
C7E C 0.2740(3) 0.7591(3) 0.1879(4) 0.0564 Uani
H3E H 0.2256 0.7735 0.1443 0.0670 Uiso
C8E C 0.1987(4) 0.6328(3) -0.1341(5) 0.0693 Uani
H4E H 0.2444 0.6139 -0.0991 0.0830 Uiso
H5E H 0.1666 0.6108 -0.2000 0.0830 Uiso
C9E C 0.1779(3) 0.6150(3) -0.0755(4) 0.0560 Uani
H6E H 0.1331 0.6355 -0.1083 0.0670 Uiso
H7E H 0.1760 0.5632 -0.0699 0.0670 Uiso
C10E C 0.1504(3) 0.6559(3) 0.0504(4) 0.0573 Uani
H8E H 0.1417 0.6383 0.0907 0.0850 Uiso
H9E H 0.1474 0.7076 0.0472 0.0850 Uiso
H10E H 0.1168 0.6362 -0.0159 0.0850 Uiso
C11E C 0.2357(3) 0.5531(3) 0.1268(5) 0.0757 Uani
H11E H 0.2826 0.5412 0.1613 0.1130 Uiso
H12E H 0.2275 0.5441 0.1700 0.1130 Uiso
H13E H 0.2052 0.5238 0.0677 0.1130 Uiso
C12E C 0.3131(3) 0.7931(4) 0.2918(5) 0.0731 Uani
H14E H 0.3180 0.8442 0.2886 0.1100 Uiso
H15E H 0.2879 0.7850 0.3116 0.1100 Uiso
H16E H 0.3579 0.7715 0.3400 0.1100 Uiso
C13D C 0.5948(3) 0.6199(3) 0.6606(5) 0.0639 Uani
C14D C 0.5333(3) 0.6301(3) 0.6513(4) 0.0552 Uani
H17D H 0.5355 0.5921 0.6903 0.0660 Uiso
H18D H 0.5399 0.6755 0.6836 0.0660 Uiso
C15D C 0.4592(3) 0.6304(3) 0.5473(5) 0.0672 Uani
H19D H 0.4590 0.6556 0.4997 0.0810 Uiso
C16D C 0.6307(3) 0.4547(3) 0.5808(4) 0.0554 Uani
H20D H 0.6391 0.4225 0.6302 0.0660 Uiso
H21D H 0.6633 0.4428 0.5742 0.0660 Uiso
C17D C 0.6421(3) 0.5301(3) 0.6158(5) 0.0633 Uani
H22D H 0.6349 0.5630 0.5679 0.0750 Uiso
H23D H 0.6887 0.5361 0.6798 0.0750 Uiso
C18D C 0.6583(3) 0.6293(3) 0.7711(5) 0.0688 Uani
H24D H 0.6591 0.6774 0.7917 0.1040 Uiso
H25D H 0.6572 0.5949 0.8095 0.1040 Uiso
H26D H 0.6989 0.6216 0.7819 0.1040 Uiso
C19D C 0.5941(3) 0.6787(3) 0.6027(5) 0.0669 Uani
H27D H 0.5493 0.6813 0.5364 0.1010 Uiso
H28D H 0.6048 0.7241 0.6361 0.1010 Uiso
H29D H 0.6278 0.6682 0.5988 0.1010 Uiso
C20D C 0.4085(3) 0.6687(3) 0.5501(5) 0.0635 Uani
H30D H 0.4188 0.6554 0.6101 0.0960 Uiso
H31D H 0.4129 0.7201 0.5490 0.0960 Uiso
H32D H 0.3622 0.6545 0.4927 0.0960 Uiso
N1E N 0.1554(2) 0.7961(3) -0.0580(3) 0.0573 Uani
N2B N 0.5153(2) 0.5796(2) 0.0980(3) 0.0512 Uani
N2D N 0.5153(2) 0.4204(2) 0.5980(3) 0.0512 Uani
N3B N 0.6081(3) 0.5081(3) 0.3653(4) 0.0729 Uani
N4B N 0.5290(3) 0.7873(3) 0.1722(4) 0.0685 Uani
N5E N 0.2319(2) 0.6479(3) 0.0243(4) 0.0642 Uani
H33E H 0.2706 0.6228 0.0503 0.0770 Uiso
N6E N 0.3017(2) 0.7897(3) 0.1432(3) 0.0614 Uani
H34E H 0.3463 0.7751 0.1834 0.0740 Uiso
N7D N 0.5919(2) 0.5452(3) 0.6258(3) 0.0590 Uani
H35D H 0.6056 0.5161 0.6770 0.0710 Uiso
N8D N 0.4412(3) 0.5567(3) 0.5180(4) 0.0612 Uani
H36D H 0.4448 0.5335 0.5657 0.0740 Uiso
Ni2F Ni 0.5000 0.5000 0.0000 0.0424 Uani
W1G W 0.0000 0.854566(13) -0.2500 0.0316 Uani
O1 O 0.1888(4) 0.4481(5) 0.7884(7) 0.0804 Uani
H37 H 0.1960 0.4032 0.8017 0.0960 Uiso
H38 H 0.2133 0.4720 0.8427 0.0960 Uiso
O2 O 0.0612(5) 0.3633(5) 0.7808(6) 0.0833 Uani
H39 H 0.0336 0.3960 0.7389 0.0990 Uiso
H40 H 0.0583 0.3268 0.7497 0.0990 Uiso
O3 O 0.2402(5) 0.2875(6) 0.8983(8) 0.0700 Uani
H41 H 0.2012 0.3041 0.8725 0.0840 Uiso
H42 H 0.2674 0.2876 0.9618 0.0840 Uiso
O4 O 0.4944(6) 0.8634(5) 0.4986(8) 0.0757 Uani
H43 H 0.4653 0.8635 0.4350 0.0910 Uiso
H44 H 0.4975 0.9056 0.5198 0.0910 Uiso
O5 O 0.4019(6) 0.9653(6) 0.4551(8) 0.0825 Uani
H45 H 0.3613 0.9483 0.4119 0.0990 Uiso
H46 H 0.4104 0.9763 0.5080 0.0990 Uiso
O6 O 0.4783(5) 0.9458(6) 0.3339(7) 0.0595 Uani
H47 H 0.4618 0.9787 0.2901 0.0720 Uiso
H48 H 0.4680 0.9046 0.3062 0.0720 Uiso
O7 O 0.2610(4) 0.4423(4) 0.9745(6) 0.0577 Uani
H49 H 0.2695 0.3977 0.9892 0.0700 Uiso
H50 H 0.2878 0.4673 1.0278 0.0700 Uiso
loop_
_atom_site_aniso_label
_atom_site_aniso_U_11
_atom_site_aniso_U_22
_atom_site_aniso_U_33
_atom_site_aniso_U_23
_atom_site_aniso_U_13
_atom_site_aniso_U_12
C1 0.033(2) 0.069(3) 0.028(2) -0.006(2) 0.019(2) 0.001(2)
C2 0.043(2) 0.037(2) 0.035(2) -0.0054(18) 0.029(2) -0.0084(18)
C3 0.039(2) 0.068(3) 0.035(2) -0.004(2) 0.026(2) -0.012(2)
C4 0.029(2) 0.046(3) 0.036(2) 0.0089(19) 0.016(2) 0.0103(19)
C5 0.066(3) 0.055(3) 0.066(3) 0.037(3) 0.055(3) 0.026(3)
C6 0.047(3) 0.049(3) 0.039(3) 0.015(2) 0.012(2) 0.017(2)
C7 0.060(3) 0.064(3) 0.047(3) 0.010(2) 0.037(3) 0.017(3)
C8 0.071 0.061 0.064 -0.003 0.041 0.012
C9 0.062 0.065 0.056 0.002 0.046 0.015
C10 0.067(3) 0.065(3) 0.064(3) 0.028(3) 0.054(3) 0.013(3)
C11 0.064(4) 0.067(4) 0.070(4) 0.039(3) 0.035(3) 0.026(3)
C12 0.069(4) 0.068(4) 0.067(4) 0.009(3) 0.040(3) 0.036(3)
C13 0.065(4) 0.057(3) 0.058(4) 0.009(3) 0.037(3) -0.013(3)
C14 0.055(3) 0.053(3) 0.056(3) 0.003(2) 0.037(3) -0.005(2)
C15 0.068(4) 0.068(4) 0.057(4) 0.022(3) 0.039(3) 0.027(3)
C16 0.054 0.067 0.062 0.032 0.046 0.031
C17 0.064 0.065 0.078 0.012 0.055 -0.022
C18 0.055(3) 0.053(3) 0.055(4) -0.014(3) 0.020(3) -0.018(3)
C19 0.057(3) 0.060(3) 0.057(4) -0.005(3) 0.028(3) -0.025(3)
C20 0.061(3) 0.057(3) 0.060(3) 0.004(3) 0.036(3) 0.036(3)
N1 0.032(2) 0.086(3) 0.037(2) 0.008(2) 0.0167(19) 0.019(2)
N2 0.056(3) 0.066(3) 0.047(2) 0.008(2) 0.041(2) 0.005(2)
N3 0.058(3) 0.093(4) 0.060(3) -0.021(3) 0.037(3) -0.024(3)
N4 0.071(3) 0.065(3) 0.070(3) -0.017(3) 0.048(3) 0.002(3)
N5 0.049(3) 0.080(3) 0.058(3) 0.034(3) 0.034(2) 0.032(2)
N6 0.052(3) 0.057(3) 0.056(3) 0.017(2) 0.029(2) 0.029(2)
N7 0.061(3) 0.068(3) 0.044(2) 0.006(2) 0.034(2) -0.013(2)
N8 0.085(3) 0.069(3) 0.065(3) 0.029(2) 0.065(3) 0.029(3)
Ni1 0.0321(4) 0.0911(7) 0.0340(5) 0.0142(5) 0.0189(4) 0.0185(5)
Ni2 0.0448(5) 0.0565(5) 0.0370(5) 0.0061(4) 0.0321(4) 0.0025(4)
W1 0.02945(13) 0.03304(13) 0.02972(13) 0.000 0.01901(11) 0.000
C1E 0.033 0.069 0.028 -0.006 0.019 0.001
C1B 0.033 0.069 0.028 0.006 0.019 -0.001
C2B 0.043 0.037 0.035 0.0054 0.029 0.0084
C3B 0.039 0.068 0.035 0.004 0.026 0.012
C4B 0.029 0.046 0.036 -0.0089 0.016 -0.0103
C5E 0.066 0.055 0.066 0.037 0.055 0.026
C6E 0.047 0.049 0.039 0.015 0.012 0.017
C7E 0.06 0.064 0.047 0.01 0.037 0.017
C8E 0.071(4) 0.061(4) 0.064(4) -0.003(3) 0.041(4) 0.012(3)
C9E 0.062(3) 0.065(3) 0.056(3) 0.002(3) 0.046(3) 0.015(3)
C10E 0.067 0.065 0.064 0.028 0.054 0.013
C11E 0.064 0.067 0.07 0.039 0.035 0.026
C12E 0.069 0.068 0.067 0.009 0.04 0.036
C13D 0.065 0.057 0.058 0.009 0.037 -0.013
C14D 0.055 0.053 0.056 0.003 0.037 -0.005
C15D 0.068 0.068 0.057 0.022 0.039 0.027
C16D 0.054(3) 0.067(3) 0.062(3) 0.032(3) 0.046(3) 0.031(3)
C17D 0.064(3) 0.065(4) 0.078(4) 0.012(3) 0.055(3) -0.022(3)
C18D 0.055 0.053 0.055 -0.014 0.02 -0.018
C19D 0.057 0.06 0.057 -0.005 0.028 -0.025
C20D 0.061 0.057 0.06 0.004 0.036 0.036
N1E 0.032 0.086 0.037 0.008 0.0167 0.019
N2B 0.056 0.066 0.047 -0.008 0.041 -0.005
N2D 0.056 0.066 0.047 0.008 0.041 0.005
N3B 0.058 0.093 0.06 0.021 0.037 0.024
N4B 0.071 0.065 0.07 0.017 0.048 -0.002
N5E 0.049 0.08 0.058 0.034 0.034 0.032
N6E 0.052 0.057 0.056 0.017 0.029 0.029
N7D 0.061 0.068 0.044 0.006 0.034 -0.013
N8D 0.085 0.069 0.065 0.029 0.065 0.029
Ni2F 0.0448 0.0565 0.037 -0.0061 0.0321 -0.0025
W1G 0.02945 0.03304 0.02972 0 0.01901 0
O1 0.062(6) 0.052(5) 0.070(6) 0.002(4) 0.022(5) -0.003(4)
O2 0.077(7) 0.072(6) 0.038(5) -0.009(4) 0.014(4) -0.020(5)
O3 0.037(5) 0.069(7) 0.073(7) -0.001(5) 0.025(5) -0.003(4)
O4 0.075(8) 0.055(7) 0.064(7) -0.017(5) 0.034(6) -0.015(5)
O5 0.074(8) 0.070(8) 0.049(7) 0.014(5) 0.020(6) 0.021(6)
O6 0.057(6) 0.064(6) 0.036(5) 0.009(4) 0.023(5) 0.011(5)
O7 0.063(6) 0.044(5) 0.042(5) -0.001(3) 0.026(4) -0.010(4)
loop_
_geom_bond_atom_site_label_1
_geom_bond_atom_site_label_2
_geom_bond_site_symmetry_1
_geom_bond_site_symmetry_2
C1 N1 1_555 1_555
C2 N2 1_555 1_555
C3 N3 1_555 1_555
C4 N4 1_555 1_555
C5 C6 1_555 1_555
C6 H1 1_555 1_555
H2 C6 1_555 1_555
C7 C6 1_555 1_555
H3 C7 1_555 1_555
C8 H4 1_555 1_555
H5 C8 1_555 1_555
C9 C8 1_555 1_555
H6 C9 1_555 1_555
H7 C9 1_555 1_555
C10 C5 1_555 1_555
H8 C10 1_555 1_555
H9 C10 1_555 1_555
H10 C10 1_555 1_555
C11 C5 1_555 1_555
H11 C11 1_555 1_555
H12 C11 1_555 1_555
H13 C11 1_555 1_555
C12 C7 1_555 1_555
H14 C12 1_555 1_555
H15 C12 1_555 1_555
H16 C12 1_555 1_555
C13 C14 1_555 1_555
C14 H17 1_555 1_555
H18 C14 1_555 1_555
C15 C14 1_555 1_555
H19 C15 1_555 1_555
C16 H20 1_555 1_555
H21 C16 1_555 1_555
C17 C16 1_555 1_555
H22 C17 1_555 1_555
H23 C17 1_555 1_555
C18 C13 1_555 1_555
H24 C18 1_555 1_555
H25 C18 1_555 1_555
H26 C18 1_555 1_555
C19 C13 1_555 1_555
H27 C19 1_555 1_555
H28 C19 1_555 1_555
H29 C19 1_555 1_555
C20 C15 1_555 1_555
H30 C20 1_555 1_555
H31 C20 1_555 1_555
H32 C20 1_555 1_555
N1 Ni1 1_555 1_555
N2 Ni2 1_555 1_555
N5 C5 1_555 1_555
H33 N5 1_555 1_555
N6 C7 1_555 1_555
H34 N6 1_555 1_555
N7 C13 1_555 1_555
H35 N7 1_555 1_555
N8 C15 1_555 1_555
H36 N8 1_555 1_555
Ni1 N5 1_555 1_555
Ni2 N7 1_555 1_555
O1 H37 1_555 1_555
H38 O1 1_555 1_555
O2 H39 1_555 1_555
H40 O2 1_555 1_555
O3 H41 1_555 1_555
H42 O3 1_555 1_555
O4 H43 1_555 1_555
H44 O4 1_555 1_555
O5 H45 1_555 1_555
H46 O5 1_555 1_555
O6 H47 1_555 1_555
H48 O6 1_555 1_555
O7 H49 1_555 1_555
H50 O7 1_555 1_555
W1 C1 1_555 1_555
C1E N1E 1_555 1_555
C1B W1 1_555 1_555
C2B W1 1_555 1_555
C3B W1 1_555 1_555
C4B W1 1_555 1_555
C5E C6E 1_555 1_555
C6E H1E 1_555 1_555
H2E C6E 1_555 1_555
C7E C6E 1_555 1_555
H3E C7E 1_555 1_555
C8E N6 1_555 1_555
H4E C8E 1_555 1_555
H5E C8E 1_555 1_555
C9E C8E 1_555 1_555
H6E C9E 1_555 1_555
H7E C9E 1_555 1_555
C10E C5E 1_555 1_555
H8E C10E 1_555 1_555
H9E C10E 1_555 1_555
H10E C10E 1_555 1_555
C11E C5E 1_555 1_555
H11E C11E 1_555 1_555
H12E C11E 1_555 1_555
H13E C11E 1_555 1_555
C12E C7E 1_555 1_555
H14E C12E 1_555 1_555
H15E C12E 1_555 1_555
H16E C12E 1_555 1_555
C13D C14D 1_555 1_555
C14D H17D 1_555 1_555
H18D C14D 1_555 1_555
C15D C14D 1_555 1_555
H19D C15D 1_555 1_555
C16D N8 1_555 1_555
H20D C16D 1_555 1_555
H21D C16D 1_555 1_555
C17D C16D 1_555 1_555
H22D C17D 1_555 1_555
H23D C17D 1_555 1_555
C18D C13D 1_555 1_555
H24D C18D 1_555 1_555
H25D C18D 1_555 1_555
H26D C18D 1_555 1_555
C19D C13D 1_555 1_555
H27D C19D 1_555 1_555
H28D C19D 1_555 1_555
H29D C19D 1_555 1_555
C20D C15D 1_555 1_555
H30D C20D 1_555 1_555
H31D C20D 1_555 1_555
H32D C20D 1_555 1_555
N1E Ni1 1_555 1_555
N2B C2B 1_555 1_555
N2D Ni2 1_555 1_555
N3B C3B 1_555 1_555
N4B C4B 1_555 1_555
N5E Ni1 1_555 1_555
H33E N5E 1_555 1_555
N6E C8 1_555 1_555
H34E N6E 1_555 1_555
N7D Ni2 1_555 1_555
H35D N7D 1_555 1_555
N8D C16 1_555 1_555
H36D N8D 1_555 1_555
Ni2F N2B 1_555 1_555
W1G C1E 1_555 1_555
C2 W1 1_555 1_555
C3 W1 1_555 1_555
C4 W1 1_555 1_555
C9 N5 1_555 1_555
C17 N7 1_555 1_555
N6 Ni1 1_555 1_555
N8 Ni2 1_555 1_555
Ni1 N6E 1_555 1_555
Ni2 N8D 1_555 1_555
C5E N5E 1_555 1_555
C7E N6E 1_555 1_555
C9E N5E 1_555 1_555
C13D N7D 1_555 1_555
C15D N8D 1_555 1_555
C17D N7D 1_555 1_555

#END
