
#######################################################################
#
#                 Cambridge Crystallographic Data Centre
#                                CCDC 
#
#######################################################################
#
# If this CIF has been generated from an entry in the Cambridge 
# Structural Database, then it will include bibliographic, chemical, 
# crystal, experimental, refinement or atomic coordinate data resulting 
# from the CCDC's data processing and validation procedures.
#
#######################################################################

data_DIKPOD
_chemical_formula_moiety         '(C4 H10 La1 N1 O11)n'
_symmetry_cell_setting           monoclinic
_symmetry_space_group_name_H-M   'P 21/n'
_symmetry_Int_Tables_number      14
_space_group_name_Hall           '-P 2yn'
loop_
_symmetry_equiv_pos_site_id
_symmetry_equiv_pos_as_xyz
1 x,y,z
2 1/2-x,1/2+y,1/2-z
3 -x,-y,-z
4 1/2+x,1/2-y,1/2+z
_cell_length_a                   7.0510(5)
_cell_length_b                   14.5981(11)
_cell_length_c                   10.6214(8)
_cell_angle_alpha                90
_cell_angle_beta                 108.0460(10)
_cell_angle_gamma                90
_cell_volume                     1039.49
loop_
_atom_site_label
_atom_site_type_symbol
_atom_site_fract_x
_atom_site_fract_y
_atom_site_fract_z
La1 La 0.72435(3) 0.611465(14) 0.49874(2)
O1 O 0.3942(4) 0.55791(18) 0.5432(3)
O2 O 0.0863(4) 0.59213(19) 0.5360(3)
O3 O 0.5209(4) 0.72487(19) 0.5883(3)
O4 O 0.9149(4) 0.85192(19) 0.8048(3)
O5 O 0.9069(4) 0.7196(2) 0.6961(3)
C1 C 0.2619(5) 0.6139(3) 0.5506(4)
C2 C 0.3163(6) 0.7131(3) 0.5740(4)
H1 H 0.2364 0.7494 0.4999
H2 H 0.2891 0.7340 0.6534
C3 C 0.6067(6) 0.8048(3) 0.6613(4)
H3 H 0.5438 0.8171 0.7289
H4 H 0.5849 0.8572 0.6025
C4 C 0.8265(6) 0.7899(3) 0.7249(4)
O9 O 0.8328(5) 0.5154(2) 0.7126(3)
H5 H 0.843(7) 0.547(2) 0.783(3)
H6 H 0.764(6) 0.4677(19) 0.713(4)
O10 O 0.7653(5) 0.7666(2) 0.4063(3)
H7 H 0.672(5) 0.783(3) 0.338(3)
H8 H 0.844(5) 0.811(2) 0.435(4)
O11 O 0.7827(5) 0.5692(2) 0.2841(3)
H9 H 0.694(5) 0.580(3) 0.211(2)
H10 H 0.864(5) 0.528(3) 0.276(4)
La1B La 0.27565(3) 0.388535(14) 0.50126(2)
La1_2 La -0.27565(3) 0.611465(14) 0.49874(2)
La1C La 1.22435(3) 0.888535(14) 0.99874(2)
O1B O 0.6058(4) 0.44209(18) 0.4568(3)
O2_2 O 1.0863(4) 0.59213(19) 0.5360(3)
O4C O 0.4149(4) 0.64808(19) 0.3048(3)
N1 N 1.1398(7) 0.9177(3) 0.4499(5)
O6 O 1.0467(5) 0.8973(2) 0.5298(3)
O7 O 1.0830(11) 0.8872(4) 0.3390(5)
O8 O 1.2924(6) 0.9634(4) 0.4855(5)
loop_
_geom_bond_atom_site_label_1
_geom_bond_atom_site_label_2
_geom_bond_site_symmetry_1
_geom_bond_site_symmetry_2
La1 O1 1_555 1_555
O1 C1 1_555 1_555
O2 C1 1_555 1_555
O3 La1 1_555 1_555
O4 C4 1_555 1_555
O5 La1 1_555 1_555
C1 C2 1_555 1_555
C2 O3 1_555 1_555
H1 C2 1_555 1_555
H2 C2 1_555 1_555
C3 O3 1_555 1_555
H3 C3 1_555 1_555
H4 C3 1_555 1_555
C4 O5 1_555 1_555
N1 O6 1_555 1_555
O7 N1 1_555 1_555
O8 N1 1_555 1_555
O9 La1 1_555 1_555
H5 O9 1_555 1_555
H6 O9 1_555 1_555
O10 La1 1_555 1_555
H7 O10 1_555 1_555
H8 O10 1_555 1_555
O11 La1 1_555 1_555
H9 O11 1_555 1_555
H10 O11 1_555 1_555
La1B O1 1_555 1_555
La1_2 O2 1_555 1_555
La1C O4 1_555 1_555
O1B La1 1_555 1_555
O2_2 La1 1_555 1_555
O4C La1 1_555 1_555
C3 C4 1_555 1_555
La1B O1B 1_555 1_555

#END
