
#######################################################################
#
#                 Cambridge Crystallographic Data Centre
#                                CCDC 
#
#######################################################################
#
# If this CIF has been generated from an entry in the Cambridge 
# Structural Database, then it will include bibliographic, chemical, 
# crystal, experimental, refinement or atomic coordinate data resulting 
# from the CCDC's data processing and validation procedures.
#
#######################################################################

data_NEDJAJ
_chemical_formula_moiety         '(C10 H50 Cs1 K1 Mo6 N2 O45 P4)n'
_symmetry_cell_setting           orthorhombic
_symmetry_space_group_name_H-M   'P b c a'
_symmetry_Int_Tables_number      61
_space_group_name_Hall           '-P 2ac 2ab'
loop_
_symmetry_equiv_pos_site_id
_symmetry_equiv_pos_as_xyz
1 x,y,z
2 1/2-x,-y,1/2+z
3 -x,1/2+y,1/2-z
4 1/2+x,1/2-y,-z
5 -x,-y,-z
6 1/2+x,y,1/2-z
7 x,1/2-y,1/2+z
8 1/2-x,1/2+y,z
_cell_length_a                   18.8861(4)
_cell_length_b                   17.0627(4)
_cell_length_c                   31.6438(7)
_cell_angle_alpha                90
_cell_angle_beta                 90
_cell_angle_gamma                90
_cell_volume                     10197.1
loop_
_atom_site_label
_atom_site_type_symbol
_atom_site_fract_x
_atom_site_fract_y
_atom_site_fract_z
Mo1 Mo 0.55153(2) 0.26286(2) 0.200262(11)
Mo2 Mo 0.523732(19) 0.081888(19) 0.219992(10)
Mo3 Mo 0.415063(18) 0.074555(19) 0.320222(10)
Mo4 Mo 0.278019(17) 0.130209(18) 0.393457(9)
Mo5 Mo 0.183458(17) 0.12282(2) 0.498672(10)
Mo6 Mo 0.301680(19) 0.38921(2) 0.070490(10)
P1 P 0.40105(5) 0.22941(5) 0.24975(3)
P2 P 0.53525(5) 0.22084(6) 0.30068(3)
P3 P 0.35058(5) 0.20706(5) 0.48559(3)
P4 P 0.34466(5) 0.03185(5) 0.47854(3)
O1 O 0.5147(2) 0.3089(2) 0.15791(10)
O2 O 0.63610(18) 0.2995(2) 0.20365(11)
O3 O 0.56772(16) 0.16137(17) 0.18074(9)
O4 O 0.50655(16) 0.32624(16) 0.24416(9)
O5 O 0.56589(14) 0.18347(16) 0.25948(8)
O6 O 0.44783(14) 0.19128(16) 0.21462(8)
O7 O 0.4790(2) 0.0346(2) 0.18056(10)
O8 O 0.59975(18) 0.02892(19) 0.22707(10)
O9 O 0.47183(16) 0.05479(16) 0.26641(9)
O10 O 0.46387(18) 0.01065(18) 0.35016(10)
O11 O 0.34651(17) 0.01810(18) 0.30260(10)
O12 O 0.36555(15) 0.12798(16) 0.36296(8)
O13 O 0.49790(14) 0.16086(16) 0.32824(8)
O14 O 0.37041(14) 0.16829(15) 0.27941(8)
O15 O 0.73581(15) 0.05869(17) 0.13462(8)
O16 O 0.74297(16) 0.21407(18) 0.12801(9)
O17 O 0.20998(14) 0.12752(16) 0.44255(8)
O18 O 0.32896(14) 0.04368(15) 0.43208(8)
O19 O 0.33402(14) 0.21084(15) 0.43885(8)
O20 O 0.12904(17) 0.2033(2) 0.50232(10)
O21 O 0.12554(17) 0.0458(2) 0.49802(10)
O22 O 0.20412(16) 0.38545(18) 0.06081(9)
O23 O 0.27813(14) 0.04059(16) 0.50711(8)
O24 O 0.28260(14) 0.19512(16) 0.51274(8)
O25 O 0.3153(2) 0.3159(2) 0.10552(10)
O26 O 0.3109(2) 0.4713(2) 0.10107(10)
O27 O 0.39397(15) 0.10927(17) 0.54268(8)
O28 O 0.34604(17) 0.28217(19) 0.23044(10)
O29 O 0.59132(17) 0.2678(2) 0.32255(10)
O30 O 0.39306(16) 0.27579(17) 0.50085(9)
O31 O 0.38215(15) -0.04430(16) 0.48694(9)
C1 C 0.4690(2) 0.2871(2) 0.27773(11)
C2 C 0.4409(2) 0.3497(2) 0.30801(12)
H1 H 0.4809 0.3749 0.3216
H2 H 0.4163 0.3893 0.2916
C3 C 0.3908(2) 0.3194(2) 0.34215(12)
H3 H 0.3473 0.3009 0.3292
H4 H 0.4126 0.2757 0.3568
C4 C 0.3743(2) 0.3836(2) 0.37312(14)
H5 H 0.4167 0.3967 0.3889
H6 H 0.3594 0.4301 0.3579
N1 N 0.31794(18) 0.35981(19) 0.40280(10)
H7 H 0.3289 0.3124 0.4134
H8 H 0.2772 0.3549 0.3883
C5 C 0.3064(3) 0.4148(3) 0.43838(14)
H9 H 0.3485 0.4176 0.4553
H10 H 0.2677 0.3965 0.4554
H11 H 0.2954 0.4659 0.4275
C6 C 0.39756(19) 0.1163(2) 0.49722(11)
C7 C 0.47521(19) 0.1144(2) 0.48358(12)
H12 H 0.5014 0.1513 0.5009
H13 H 0.4940 0.0626 0.4893
C8 C 0.4888(2) 0.1337(3) 0.43725(13)
H14 H 0.4555 0.1046 0.4200
H15 H 0.4799 0.1891 0.4328
C9 C 0.5630(2) 0.1149(3) 0.42271(13)
H16 H 0.5698 0.0586 0.4233
H17 H 0.5688 0.1324 0.3938
N2 N 0.61746(19) 0.1528(2) 0.44956(12)
H18 H 0.6199 0.1267 0.4742
H19 H 0.6032 0.2020 0.4554
C10 C 0.6897(2) 0.1564(4) 0.43097(19)
H20 H 0.7055 0.1043 0.4243
H21 H 0.7217 0.1797 0.4509
H22 H 0.6887 0.1874 0.4057
Cs1 Cs 0.39951(2) 0.43869(2) 0.186200(12)
K1 K 0.71933(7) 0.13910(11) 0.22106(4)
O32 O 0.7297(2) 0.2068(3) 0.30933(17)
O33 O 0.2669(2) 0.4081(3) 0.25462(17)
O34 O 0.2503(11) 0.5484(12) 0.1809(8)
Mo4E Mo 0.778019(17) 0.130209(18) 0.106543(9)
Mo5F Mo 0.183458(17) 0.37718(2) -0.001328(10)
Mo6F Mo 0.301680(19) 0.11079(2) 0.570490(10)
O8B O 0.40025(18) 0.52892(19) 0.27293(10)
O9B O 0.52817(16) 0.55479(16) 0.23359(9)
O10B O 0.53613(18) 0.51065(18) 0.14984(10)
O11E O 0.84651(17) 0.01810(18) 0.19740(10)
O14E O 0.87041(14) 0.16829(15) 0.22059(8)
O15E O 0.23581(15) 0.05869(17) 0.36538(8)
O16E O 0.24297(16) 0.21407(18) 0.37199(9)
O22F O 0.20412(16) 0.11455(18) 0.56081(9)
O23F O 0.27813(14) 0.45941(16) 0.00711(8)
O24F O 0.28260(14) 0.30488(16) 0.01274(8)
O27F O 0.39397(15) 0.39073(17) 0.04268(8)
Cs1B Cs 0.60049(2) -0.06131(2) 0.313800(12)
K1E K 0.21933(7) 0.13910(11) 0.27894(4)
O35 O 0.8533(3) 0.0962(3) 0.44877(14)
O36 O 0.5753(2) 0.1104(4) 0.09819(12)
O37 O 0.3844(3) 0.3220(3) 0.63218(13)
O38 O 0.4842(3) 0.2646(3) 0.56988(15)
O39 O 0.4470(3) 0.8962(3) 0.41547(15)
O40 O 0.1958(3) 0.3905(3) 0.35857(17)
O41 O 0.4869(3) 0.3698(3) 0.4617(2)
O42 O 0.5875(4) 0.3059(4) 0.40490(18)
O43 O 0.5107(5) 0.5260(6) 0.4578(4)
O44 O 0.3417(11) 0.7967(11) 0.4270(8)
O45 O 0.3453(11) -0.0060(11) 0.1321(9)
loop_
_geom_bond_atom_site_label_1
_geom_bond_atom_site_label_2
_geom_bond_site_symmetry_1
_geom_bond_site_symmetry_2
Mo1 O1 1_555 1_555
Mo2 O3 1_555 1_555
Mo3 O9 1_555 1_555
Mo4 O12 1_555 1_555
Mo5 O17 1_555 1_555
Mo6 O22 1_555 1_555
P1 O6 1_555 1_555
P2 O5 1_555 1_555
P3 O19 1_555 1_555
P4 O18 1_555 1_555
O1 Cs1 1_555 1_555
O2 Mo1 1_555 1_555
O3 Mo1 1_555 1_555
O4 Mo1 1_555 1_555
O5 Mo1 1_555 1_555
O6 Mo1 1_555 1_555
O7 Mo2 1_555 1_555
O8 Mo2 1_555 1_555
O9 Mo2 1_555 1_555
O10 Mo3 1_555 1_555
O11 Mo3 1_555 1_555
O12 Mo3 1_555 1_555
O13 Mo3 1_555 1_555
O14 Mo3 1_555 1_555
O15 K1 1_555 1_555
O16 K1 1_555 1_555
O17 Mo4 1_555 1_555
O18 Mo4 1_555 1_555
O19 Mo4 1_555 1_555
O20 Mo5 1_555 1_555
O21 Mo5 1_555 1_555
O22 Mo5F 1_555 1_555
O23 Mo5 1_555 1_555
O24 Mo5 1_555 1_555
O25 Mo6 1_555 1_555
O26 Mo6 1_555 1_555
O27 C6 1_555 1_555
O28 P1 1_555 1_555
O29 P2 1_555 1_555
O30 P3 1_555 1_555
O31 P4 1_555 1_555
C1 P1 1_555 1_555
C2 C1 1_555 1_555
H1 C2 1_555 1_555
H2 C2 1_555 1_555
C3 C2 1_555 1_555
H3 C3 1_555 1_555
H4 C3 1_555 1_555
C4 C3 1_555 1_555
H5 C4 1_555 1_555
H6 C4 1_555 1_555
N1 C4 1_555 1_555
H7 N1 1_555 1_555
H8 N1 1_555 1_555
C5 N1 1_555 1_555
H9 C5 1_555 1_555
H10 C5 1_555 1_555
H11 C5 1_555 1_555
C6 P3 1_555 1_555
C7 C6 1_555 1_555
H12 C7 1_555 1_555
H13 C7 1_555 1_555
C8 C7 1_555 1_555
H14 C8 1_555 1_555
H15 C8 1_555 1_555
C9 C8 1_555 1_555
H16 C9 1_555 1_555
H17 C9 1_555 1_555
N2 C9 1_555 1_555
H18 N2 1_555 1_555
H19 N2 1_555 1_555
C10 N2 1_555 1_555
H20 C10 1_555 1_555
H21 C10 1_555 1_555
H22 C10 1_555 1_555
Cs1 O4 1_555 1_555
K1 O2 1_555 1_555
O32 K1 1_555 1_555
O33 Cs1 1_555 1_555
O34 Cs1 1_555 1_555
Mo4E O15 1_555 1_555
Mo5F O23F 1_555 1_555
Mo6F O23 1_555 1_555
O8B Cs1 1_555 1_555
O9B Cs1 1_555 1_555
O10B Cs1 1_555 1_555
O11E K1 1_555 1_555
O14E K1 1_555 1_555
O15E Mo4 1_555 1_555
O16E Mo4 1_555 1_555
O22F Mo5 1_555 1_555
O23F Mo6 1_555 1_555
O24F Mo6 1_555 1_555
O27F Mo6 1_555 1_555
Cs1B O8 1_555 1_555
K1E O11 1_555 1_555
Mo2 O5 1_555 1_555
Mo2 O6 1_555 1_555
P1 O14 1_555 1_555
P2 O13 1_555 1_555
P2 C1 1_555 1_555
P3 O24 1_555 1_555
P4 O23 1_555 1_555
P4 C6 1_555 1_555
O3 K1 1_555 1_555
O4 C1 1_555 1_555
O5 K1 1_555 1_555
O8 K1 1_555 1_555
O9 Cs1B 1_555 1_555
O10 Cs1B 1_555 1_555
O14 K1E 1_555 1_555
O16 Mo4E 1_555 1_555
O24 Mo6F 1_555 1_555
O25 Cs1 1_555 1_555
O26 Cs1 1_555 1_555
O27 Mo6F 1_555 1_555
O28 Cs1 1_555 1_555
Mo5F O24F 1_555 1_555
Mo6F O22F 1_555 1_555
O15E K1E 1_555 1_555
O16E K1E 1_555 1_555

#END
