
#######################################################################
#
#                 Cambridge Crystallographic Data Centre
#                                CCDC 
#
#######################################################################
#
# If this CIF has been generated from an entry in the Cambridge 
# Structural Database, then it will include bibliographic, chemical, 
# crystal, experimental, refinement or atomic coordinate data resulting 
# from the CCDC's data processing and validation procedures.
#
#######################################################################

data_OWUHEV
_chemical_formula_moiety         '(C57 H42 Co3 N2 O12)n'
_symmetry_cell_setting           triclinic
_symmetry_space_group_name_H-M   'P -1'
_symmetry_Int_Tables_number      2
_space_group_name_Hall           '-P 1'
loop_
_symmetry_equiv_pos_site_id
_symmetry_equiv_pos_as_xyz
1 x,y,z
2 -x,-y,-z
_cell_length_a                   13.3139(17)
_cell_length_b                   13.8970(17)
_cell_length_c                   17.730(2)
_cell_angle_alpha                81.530(3)
_cell_angle_beta                 79.144(3)
_cell_angle_gamma                84.144(3)
_cell_volume                     3177.28
loop_
_atom_site_label
_atom_site_type_symbol
_atom_site_fract_x
_atom_site_fract_y
_atom_site_fract_z
C1 C -0.1205(4) 0.5309(3) 0.6115(3)
C2 C -0.1669(4) 0.4358(3) 0.6171(3)
C3 C -0.1923(5) 0.4062(4) 0.5512(3)
H1 H -0.1763 0.4430 0.5029
C4 C -0.2416(5) 0.3211(4) 0.5596(4)
H2 H -0.2594 0.3009 0.5164
C5 C -0.2652(4) 0.2649(4) 0.6323(4)
C6 C -0.2354(4) 0.2930(4) 0.6941(3)
H3 H -0.2470 0.2540 0.7417
C7 C -0.1881(4) 0.3785(3) 0.6877(3)
H4 H -0.1704 0.3975 0.7314
C8 C -0.3246(5) 0.1740(4) 0.6413(4)
H5 H -0.3935 0.1870 0.6691
H6 H -0.3297 0.1590 0.5905
C9 C -0.2724(4) 0.0869(4) 0.6847(4)
C10 C -0.1838(5) 0.0398(4) 0.6500(3)
H7 H -0.1561 0.0619 0.5989
C11 C -0.1354(4) -0.0379(3) 0.6880(3)
H8 H -0.0758 -0.0688 0.6628
C12 C -0.1747(4) -0.0711(3) 0.7640(3)
C13 C -0.2600(5) -0.0239(4) 0.8008(3)
H9 H -0.2849 -0.0437 0.8528
C14 C -0.3102(4) 0.0540(4) 0.7607(4)
H10 H -0.3702 0.0844 0.7857
C15 C 0.0933(4) 0.5882(3) 0.8104(3)
C16 C 0.1937(4) 0.5288(3) 0.8106(3)
C17 C 0.2556(4) 0.5082(4) 0.7414(3)
H11 H 0.2360 0.5347 0.6946
C18 C 0.3457(4) 0.4487(4) 0.7412(3)
H12 H 0.3849 0.4334 0.6947
C19 C 0.3771(4) 0.4123(4) 0.8105(4)
C20 C 0.3182(4) 0.4325(4) 0.8786(3)
H13 H 0.3392 0.4071 0.9251
C21 C 0.2254(4) 0.4916(4) 0.8793(3)
H14 H 0.1858 0.5054 0.9261
C22 C 0.4784(4) 0.3506(4) 0.8104(4)
H15 H 0.5008 0.3278 0.7603
H16 H 0.4689 0.2940 0.8494
C23 C 0.5600(4) 0.4093(4) 0.8269(4)
C24 C 0.6020(6) 0.3869(5) 0.8920(5)
H17 H 0.5811 0.3333 0.9274
C25 C 0.6744(6) 0.4412(6) 0.9069(4)
H18 H 0.6997 0.4253 0.9530
C26 C 0.7098(4) 0.5178(4) 0.8557(3)
C27 C 0.6697(4) 0.5413(4) 0.7870(3)
H19 H 0.6935 0.5926 0.7503
C28 C 0.5938(4) 0.4866(5) 0.7749(4)
H20 H 0.5654 0.5031 0.7302
C29 C 0.7898(4) 0.5760(4) 0.8696(2)
C30 C 0.0566(3) 0.8108(3) 0.5686(2)
C31 C 0.1326(3) 0.8556(3) 0.6020(3)
C32 C 0.1865(4) 0.8003(4) 0.6559(3)
H21 H 0.1754 0.7347 0.6709
C33 C 0.2554(4) 0.8418(4) 0.6868(3)
H22 H 0.2897 0.8041 0.7233
C34 C 0.2754(3) 0.9393(4) 0.6648(3)
C35 C 0.2239(4) 0.9931(3) 0.6107(3)
H23 H 0.2372 1.0581 0.5948
C36 C 0.1522(4) 0.9532(3) 0.5788(3)
H24 H 0.1177 0.9912 0.5425
C37 C 0.3517(4) 0.9849(4) 0.6995(4)
H25 H 0.3517 1.0538 0.6800
H26 H 0.3305 0.9788 0.7553
C38 C 0.4594(4) 0.9374(4) 0.6805(3)
C39 C 0.5026(4) 0.8736(4) 0.7344(3)
H27 H 0.4659 0.8601 0.7844
C40 C 0.6020(4) 0.8282(4) 0.7152(3)
H28 H 0.6306 0.7857 0.7525
C41 C 0.6553(3) 0.8461(3) 0.6435(3)
C42 C 0.6139(4) 0.9132(4) 0.5899(3)
H29 H 0.6515 0.9277 0.5404
C43 C 0.5184(4) 0.9585(4) 0.6086(3)
H30 H 0.4928 1.0046 0.5720
C44 C -0.1198(5) -0.1588(4) 0.8012(3)
C45 C 0.7595(4) 0.7954(3) 0.6218(3)
C46 C -0.0369(4) 0.8002(4) 0.3541(3)
H31 H -0.0217 0.8559 0.3718
C47 C -0.0370(4) 0.8046(4) 0.2767(3)
C48 C -0.0603(4) 0.7209(3) 0.2496(3)
C49 C -0.0752(4) 0.6383(4) 0.3023(3)
H32 H -0.0852 0.5801 0.2858
C50 C -0.0751(4) 0.6417(3) 0.3789(3)
H33 H -0.0885 0.5857 0.4138
C51 C -0.0119(6) 0.8976(5) 0.2226(3)
H34 H -0.0512 0.9523 0.2439
H35 H -0.0287 0.8931 0.1730
H36 H 0.0599 0.9061 0.2168
C52 C -0.0642(4) 0.7163(3) 0.1673(3)
C53 C 0.0099(4) 0.6589(4) 0.1238(3)
H37 H 0.0637 0.6256 0.1459
C54 C 0.0039(4) 0.6514(4) 0.0491(3)
H38 H 0.0531 0.6110 0.0217
C55 C -0.1431(4) 0.7515(4) 0.0560(3)
H39 H -0.1965 0.7824 0.0321
C56 C -0.1458(4) 0.7629(4) 0.1327(3)
C57 C -0.2346(5) 0.8190(5) 0.1754(4)
H40 H -0.2895 0.8293 0.1462
H41 H -0.2139 0.8808 0.1822
H42 H -0.2574 0.7829 0.2251
Co1 Co -0.07227(5) 0.72220(4) 0.52353(3)
Co2 Co -0.06750(5) 0.67411(4) 0.70916(4)
Co3 Co -0.08662(5) 0.68028(5) 0.90349(4)
N1 N -0.0692(3) 0.6992(3) 0.0137(2)
N2 N -0.0568(3) 0.7222(3) 0.4060(2)
O1 O -0.1143(3) 0.5872(2) 0.5475(2)
O2 O -0.0894(3) 0.5486(2) 0.66919(19)
O3 O 0.0603(2) 0.6031(2) 0.74742(17)
O4 O 0.0495(3) 0.6159(3) 0.87337(19)
O5 O 0.0255(2) 0.7270(2) 0.59919(17)
O6 O 0.0240(3) 0.8521(2) 0.51018(18)
O7 O 0.8015(3) 0.8070(3) 0.5507(2)
O8 O 0.7988(2) 0.7426(2) 0.6739(2)
O9 O -0.0503(3) -0.2057(2) 0.7603(2)
O10 O -0.1481(4) -0.1847(3) 0.8733(2)
O11 O 0.8317(11) 0.6364(11) 0.8172(4)
O12 O 0.7981(13) 0.5859(13) 0.9372(4)
Co1_2 Co 0.92773(5) 0.72220(4) 0.52353(3)
Co2_2 Co -0.06750(5) -0.32589(4) 0.70916(4)
Co2_3 Co 0.93250(5) 0.67411(4) 0.70916(4)
Co3_2 Co -0.08662(5) -0.31972(5) 0.90349(4)
Co3_3 Co -0.08662(5) 0.68028(5) -0.09651(4)
Co3_4 Co 0.91338(5) 0.68028(5) 0.90349(4)
N1_2 N -0.0692(3) 0.6992(3) 1.0137(2)
O7_2 O -0.1985(3) 0.8070(3) 0.5507(2)
O8_2 O -0.2012(2) 0.7426(2) 0.6739(2)
O9_2 O -0.0503(3) 0.7943(2) 0.7603(2)
O10_2 O -0.1481(4) 0.8153(3) 0.8733(2)
O11_2 O -0.1683(11) 0.6364(11) 0.8172(4)
O12_2 O -0.2019(13) 0.5859(13) 0.9372(4)
loop_
_geom_bond_atom_site_label_1
_geom_bond_atom_site_label_2
_geom_bond_site_symmetry_1
_geom_bond_site_symmetry_2
C1 C2 1_555 1_555
C2 C3 1_555 1_555
C3 H1 1_555 1_555
C4 C3 1_555 1_555
H2 C4 1_555 1_555
C5 C4 1_555 1_555
C6 C5 1_555 1_555
H3 C6 1_555 1_555
C7 C2 1_555 1_555
H4 C7 1_555 1_555
C8 C5 1_555 1_555
H5 C8 1_555 1_555
H6 C8 1_555 1_555
C9 C8 1_555 1_555
C10 C9 1_555 1_555
H7 C10 1_555 1_555
C11 C10 1_555 1_555
H8 C11 1_555 1_555
C12 C11 1_555 1_555
C13 C12 1_555 1_555
H9 C13 1_555 1_555
C14 C9 1_555 1_555
H10 C14 1_555 1_555
C15 C16 1_555 1_555
C16 C17 1_555 1_555
C17 H11 1_555 1_555
C18 C17 1_555 1_555
H12 C18 1_555 1_555
C19 C18 1_555 1_555
C20 C19 1_555 1_555
H13 C20 1_555 1_555
C21 C16 1_555 1_555
H14 C21 1_555 1_555
C22 C19 1_555 1_555
H15 C22 1_555 1_555
H16 C22 1_555 1_555
C23 C22 1_555 1_555
C24 C23 1_555 1_555
H17 C24 1_555 1_555
C25 C24 1_555 1_555
H18 C25 1_555 1_555
C26 C25 1_555 1_555
C27 C26 1_555 1_555
H19 C27 1_555 1_555
C28 C23 1_555 1_555
H20 C28 1_555 1_555
C29 C26 1_555 1_555
C30 C31 1_555 1_555
C31 C32 1_555 1_555
C32 H21 1_555 1_555
C33 C32 1_555 1_555
H22 C33 1_555 1_555
C34 C33 1_555 1_555
C35 C34 1_555 1_555
H23 C35 1_555 1_555
C36 C31 1_555 1_555
H24 C36 1_555 1_555
C37 C34 1_555 1_555
H25 C37 1_555 1_555
H26 C37 1_555 1_555
C38 C37 1_555 1_555
C39 C38 1_555 1_555
H27 C39 1_555 1_555
C40 C39 1_555 1_555
H28 C40 1_555 1_555
C41 C40 1_555 1_555
C42 C41 1_555 1_555
H29 C42 1_555 1_555
C43 C38 1_555 1_555
H30 C43 1_555 1_555
C44 C12 1_555 1_555
C45 C41 1_555 1_555
C46 H31 1_555 1_555
C47 C46 1_555 1_555
C48 C47 1_555 1_555
C49 C48 1_555 1_555
H32 C49 1_555 1_555
C50 C49 1_555 1_555
H33 C50 1_555 1_555
C51 C47 1_555 1_555
H34 C51 1_555 1_555
H35 C51 1_555 1_555
H36 C51 1_555 1_555
C52 C48 1_555 1_555
C53 C52 1_555 1_555
H37 C53 1_555 1_555
C54 C53 1_555 1_555
H38 C54 1_555 1_555
C55 H39 1_555 1_555
C56 C52 1_555 1_555
C57 C56 1_555 1_555
H40 C57 1_555 1_555
H41 C57 1_555 1_555
H42 C57 1_555 1_555
Co1 N2 1_555 1_555
Co2 O2 1_555 1_555
Co3 O4 1_555 1_555
N1 C54 1_555 1_555
N2 C46 1_555 1_555
O1 C1 1_555 1_555
O2 C1 1_555 1_555
O3 C15 1_555 1_555
O4 C15 1_555 1_555
O5 C30 1_555 1_555
O6 C30 1_555 1_555
O7 C45 1_555 1_555
O8 C45 1_555 1_555
O9 C44 1_555 1_555
O10 C44 1_555 1_555
O11 C29 1_555 1_555
O12 C29 1_555 1_555
Co1_2 O7 1_555 1_555
Co2_2 O9 1_555 1_555
Co2_3 O8 1_555 1_555
Co3_2 O10 1_555 1_555
Co3_3 N1 1_555 1_555
Co3_4 O11 1_555 1_555
N1_2 Co3 1_555 1_555
O7_2 Co1 1_555 1_555
O8_2 Co2 1_555 1_555
O9_2 Co2 1_555 1_555
O10_2 Co3 1_555 1_555
O11_2 Co2 1_555 1_555
O12_2 Co3 1_555 1_555
C6 C7 1_555 1_555
C13 C14 1_555 1_555
C20 C21 1_555 1_555
C27 C28 1_555 1_555
C35 C36 1_555 1_555
C42 C43 1_555 1_555
C50 N2 1_555 1_555
C55 C56 1_555 1_555
C55 N1 1_555 1_555
Co1 O1 1_555 1_555
Co1 O5 1_555 1_555
Co1 O6 1_555 1_555
Co2 O3 1_555 1_555
Co2 O5 1_555 1_555
Co3 O11_2 1_555 1_555
O11 Co2_3 1_555 1_555
O12 Co3_4 1_555 1_555

#END
