
#######################################################################
#
#                 Cambridge Crystallographic Data Centre
#                                CCDC 
#
#######################################################################
#
# If this CIF has been generated from an entry in the Cambridge 
# Structural Database, then it will include bibliographic, chemical, 
# crystal, experimental, refinement or atomic coordinate data resulting 
# from the CCDC's data processing and validation procedures.
#
#######################################################################

data_OFAVUO
_chemical_formula_moiety         'C66 O28 Zr12'
_symmetry_cell_setting           cubic
_symmetry_space_group_name_H-M   'F m -3 m'
_symmetry_Int_Tables_number      225
_space_group_name_Hall           '-F 4 2 3'
loop_
_symmetry_equiv_pos_site_id
_symmetry_equiv_pos_as_xyz
1 x,y,z
2 -x,-y,z
3 -x,y,-z
4 x,-y,-z
5 z,x,y
6 z,-x,-y
7 -z,-x,y
8 -z,x,-y
9 y,z,x
10 -y,z,-x
11 y,-z,-x
12 -y,-z,x
13 y,x,-z
14 -y,-x,-z
15 y,-x,z
16 -y,x,z
17 x,z,-y
18 -x,z,y
19 -x,-z,-y
20 x,-z,y
21 z,y,-x
22 z,-y,x
23 -z,y,x
24 -z,-y,-x
25 x,1/2+y,1/2+z
26 -x,1/2-y,1/2+z
27 -x,1/2+y,1/2-z
28 x,1/2-y,1/2-z
29 z,1/2+x,1/2+y
30 z,1/2-x,1/2-y
31 -z,1/2-x,1/2+y
32 -z,1/2+x,1/2-y
33 y,1/2+z,1/2+x
34 -y,1/2+z,1/2-x
35 y,1/2-z,1/2-x
36 -y,1/2-z,1/2+x
37 y,1/2+x,1/2-z
38 -y,1/2-x,1/2-z
39 y,1/2-x,1/2+z
40 -y,1/2+x,1/2+z
41 x,1/2+z,1/2-y
42 -x,1/2+z,1/2+y
43 -x,1/2-z,1/2-y
44 x,1/2-z,1/2+y
45 z,1/2+y,1/2-x
46 z,1/2-y,1/2+x
47 -z,1/2+y,1/2+x
48 -z,1/2-y,1/2-x
49 1/2+x,y,1/2+z
50 1/2-x,-y,1/2+z
51 1/2-x,y,1/2-z
52 1/2+x,-y,1/2-z
53 1/2+z,x,1/2+y
54 1/2+z,-x,1/2-y
55 1/2-z,-x,1/2+y
56 1/2-z,x,1/2-y
57 1/2+y,z,1/2+x
58 1/2-y,z,1/2-x
59 1/2+y,-z,1/2-x
60 1/2-y,-z,1/2+x
61 1/2+y,x,1/2-z
62 1/2-y,-x,1/2-z
63 1/2+y,-x,1/2+z
64 1/2-y,x,1/2+z
65 1/2+x,z,1/2-y
66 1/2-x,z,1/2+y
67 1/2-x,-z,1/2-y
68 1/2+x,-z,1/2+y
69 1/2+z,y,1/2-x
70 1/2+z,-y,1/2+x
71 1/2-z,y,1/2+x
72 1/2-z,-y,1/2-x
73 1/2+x,1/2+y,z
74 1/2-x,1/2-y,z
75 1/2-x,1/2+y,-z
76 1/2+x,1/2-y,-z
77 1/2+z,1/2+x,y
78 1/2+z,1/2-x,-y
79 1/2-z,1/2-x,y
80 1/2-z,1/2+x,-y
81 1/2+y,1/2+z,x
82 1/2-y,1/2+z,-x
83 1/2+y,1/2-z,-x
84 1/2-y,1/2-z,x
85 1/2+y,1/2+x,-z
86 1/2-y,1/2-x,-z
87 1/2+y,1/2-x,z
88 1/2-y,1/2+x,z
89 1/2+x,1/2+z,-y
90 1/2-x,1/2+z,y
91 1/2-x,1/2-z,-y
92 1/2+x,1/2-z,y
93 1/2+z,1/2+y,-x
94 1/2+z,1/2-y,x
95 1/2-z,1/2+y,x
96 1/2-z,1/2-y,-x
97 -x,-y,-z
98 x,y,-z
99 x,-y,z
100 -x,y,z
101 -z,-x,-y
102 -z,x,y
103 z,x,-y
104 z,-x,y
105 -y,-z,-x
106 y,-z,x
107 -y,z,x
108 y,z,-x
109 -y,-x,z
110 y,x,z
111 -y,x,-z
112 y,-x,-z
113 -x,-z,y
114 x,-z,-y
115 x,z,y
116 -x,z,-y
117 -z,-y,x
118 -z,y,-x
119 z,-y,-x
120 z,y,x
121 -x,1/2-y,1/2-z
122 x,1/2+y,1/2-z
123 x,1/2-y,1/2+z
124 -x,1/2+y,1/2+z
125 -z,1/2-x,1/2-y
126 -z,1/2+x,1/2+y
127 z,1/2+x,1/2-y
128 z,1/2-x,1/2+y
129 -y,1/2-z,1/2-x
130 y,1/2-z,1/2+x
131 -y,1/2+z,1/2+x
132 y,1/2+z,1/2-x
133 -y,1/2-x,1/2+z
134 y,1/2+x,1/2+z
135 -y,1/2+x,1/2-z
136 y,1/2-x,1/2-z
137 -x,1/2-z,1/2+y
138 x,1/2-z,1/2-y
139 x,1/2+z,1/2+y
140 -x,1/2+z,1/2-y
141 -z,1/2-y,1/2+x
142 -z,1/2+y,1/2-x
143 z,1/2-y,1/2-x
144 z,1/2+y,1/2+x
145 1/2-x,-y,1/2-z
146 1/2+x,y,1/2-z
147 1/2+x,-y,1/2+z
148 1/2-x,y,1/2+z
149 1/2-z,-x,1/2-y
150 1/2-z,x,1/2+y
151 1/2+z,x,1/2-y
152 1/2+z,-x,1/2+y
153 1/2-y,-z,1/2-x
154 1/2+y,-z,1/2+x
155 1/2-y,z,1/2+x
156 1/2+y,z,1/2-x
157 1/2-y,-x,1/2+z
158 1/2+y,x,1/2+z
159 1/2-y,x,1/2-z
160 1/2+y,-x,1/2-z
161 1/2-x,-z,1/2+y
162 1/2+x,-z,1/2-y
163 1/2+x,z,1/2+y
164 1/2-x,z,1/2-y
165 1/2-z,-y,1/2+x
166 1/2-z,y,1/2-x
167 1/2+z,-y,1/2-x
168 1/2+z,y,1/2+x
169 1/2-x,1/2-y,-z
170 1/2+x,1/2+y,-z
171 1/2+x,1/2-y,z
172 1/2-x,1/2+y,z
173 1/2-z,1/2-x,-y
174 1/2-z,1/2+x,y
175 1/2+z,1/2+x,-y
176 1/2+z,1/2-x,y
177 1/2-y,1/2-z,-x
178 1/2+y,1/2-z,x
179 1/2-y,1/2+z,x
180 1/2+y,1/2+z,-x
181 1/2-y,1/2-x,z
182 1/2+y,1/2+x,z
183 1/2-y,1/2+x,-z
184 1/2+y,1/2-x,-z
185 1/2-x,1/2-z,y
186 1/2+x,1/2-z,-y
187 1/2+x,1/2+z,y
188 1/2-x,1/2+z,-y
189 1/2-z,1/2-y,x
190 1/2-z,1/2+y,-x
191 1/2+z,1/2-y,-x
192 1/2+z,1/2+y,x
_cell_length_a                   23.910(3)
_cell_length_b                   23.910(3)
_cell_length_c                   23.910(3)
_cell_angle_alpha                90
_cell_angle_beta                 90
_cell_angle_gamma                90
_cell_volume                     13669.1
loop_
_atom_site_label
_atom_site_type_symbol
_atom_site_fract_x
_atom_site_fract_y
_atom_site_fract_z
Zr1 Zr -0.0000 0.0000 0.10347(2)
O1 O 0.0509(2) 0.0509(2) 0.0509(2)
O2 O -0.0000 0.0805(3) 0.1496(2)
C1 C 0.0000 0.1319(2) 0.1319(2)
C2 C 0.0000 0.1679(6) 0.1847(6)
C3 C 0.0000 0.2243(5) 0.1774(4)
C4 C 0.0000 0.1475(6) 0.2371(5)
C5 C 0.0000 0.1804(5) 0.2844(5)
C6 C 0.0000 0.2398(3) 0.2766(3)
O2Q O 0.0000 0.1496(2) 0.0805(3)
C2Q C 0.0000 0.1847(6) 0.1679(6)
C3Q C 0.0000 0.1774(4) 0.2243(5)
C4Q C 0.0000 0.2371(5) 0.1475(6)
C5Q C 0.0000 0.2844(5) 0.1804(5)
C6Q C 0.0000 0.2766(3) 0.2398(3)
O2AA O 0.0000 0.4195(3) 0.3504(2)
C1AA C 0.0000 0.3681(2) 0.3681(2)
C2AA C 0.0000 0.3321(6) 0.3153(6)
C3AA C -0.0000 0.2757(5) 0.3226(4)
C4AA C 0.0000 0.3525(6) 0.2629(5)
C5AA C 0.0000 0.3196(5) 0.2156(5)
C6AA C 0.0000 0.2602(3) 0.2234(3)
O2PA O 0.0000 0.3504(2) 0.4195(3)
C2PA C 0.0000 0.3153(6) 0.3321(6)
C3PA C -0.0000 0.3226(4) 0.2757(5)
C4PA C 0.0000 0.2629(5) 0.3525(6)
C5PA C 0.0000 0.2156(5) 0.3196(5)
C6PA C 0.0000 0.2234(3) 0.2602(3)
O1A O -0.0509(2) -0.0509(2) 0.0509(2)
O2A O -0.0000 -0.0805(3) 0.1496(2)
C1A C 0.0000 -0.1319(2) 0.1319(2)
C2A C 0.0000 -0.1679(6) 0.1847(6)
C3A C 0.0000 -0.2243(5) 0.1774(4)
C4A C 0.0000 -0.1475(6) 0.2371(5)
C5A C 0.0000 -0.1804(5) 0.2844(5)
C6A C 0.0000 -0.2398(3) 0.2766(3)
O2S O 0.0000 -0.1496(2) 0.0805(3)
C2S C 0.0000 -0.1847(6) 0.1679(6)
C3S C 0.0000 -0.1774(4) 0.2243(5)
C4S C 0.0000 -0.2371(5) 0.1475(6)
C5S C 0.0000 -0.2844(5) 0.1804(5)
C6S C 0.0000 -0.2766(3) 0.2398(3)
O2Z O 0.0000 -0.4195(3) 0.3504(2)
C1Z C 0.0000 -0.3681(2) 0.3681(2)
C2Z C 0.0000 -0.3321(6) 0.3153(6)
C3Z C 0.0000 -0.2757(5) 0.3226(4)
C4Z C -0.0000 -0.3525(6) 0.2629(5)
C5Z C -0.0000 -0.3196(5) 0.2156(5)
C6Z C -0.0000 -0.2602(3) 0.2234(3)
O2NA O 0.0000 -0.3504(2) 0.4195(3)
C2NA C 0.0000 -0.3153(6) 0.3321(6)
C3NA C -0.0000 -0.3226(4) 0.2757(5)
C4NA C 0.0000 -0.2629(5) 0.3525(6)
C5NA C 0.0000 -0.2156(5) 0.3196(5)
C6NA C 0.0000 -0.2234(3) 0.2602(3)
Zr1D Zr 0.10347(2) 0.0000 0.0000
O2D O 0.1496(2) 0.0000 0.0805(3)
C1D C 0.1319(2) 0.0000 0.1319(2)
C2D C 0.1847(6) 0.0000 0.1679(6)
C3D C 0.1774(4) 0.0000 0.2243(5)
C4D C 0.2371(5) 0.0000 0.1475(6)
C5D C 0.2844(5) 0.0000 0.1804(5)
C6D C 0.2766(3) 0.0000 0.2398(3)
O2N O 0.0805(3) 0.0000 0.1496(2)
C2N C 0.1679(6) 0.0000 0.1847(6)
C3N C 0.2243(5) 0.0000 0.1774(4)
C4N C 0.1475(6) 0.0000 0.2371(5)
C5N C 0.1804(5) 0.0000 0.2844(5)
C6N C 0.2398(3) 0.0000 0.2766(3)
O2CB O 0.3504(2) 0.0000 0.4195(3)
C1CB C 0.3681(2) 0.0000 0.3681(2)
C2CB C 0.3153(6) 0.0000 0.3321(6)
C3CB C 0.3226(4) 0.0000 0.2757(5)
C4CB C 0.2629(5) 0.0000 0.3525(6)
C5CB C 0.2156(5) 0.0000 0.3196(5)
C6CB C 0.2234(3) 0.0000 0.2602(3)
O2IB O 0.4195(3) 0.0000 0.3504(2)
C2IB C 0.3321(6) 0.0000 0.3153(6)
C3IB C 0.2757(5) 0.0000 0.3226(4)
C4IB C 0.3525(6) -0.0000 0.2629(5)
C5IB C 0.3196(5) 0.0000 0.2156(5)
C6IB C 0.2602(3) 0.0000 0.2234(3)
O1C O 0.0509(2) -0.0509(2) -0.0509(2)
Zr1F Zr -0.10347(2) 0.0000 0.0000
O1B O -0.0509(2) 0.0509(2) -0.0509(2)
Zr1B Zr 0.0000 0.0000 -0.10347(2)
Zr1H Zr 0.0000 0.10347(2) 0.0000
Zr1J Zr 0.0000 -0.10347(2) 0.0000
Zr1Z Zr -0.0000 -0.5000 0.39653(2)
Zr1Z_2 Zr 0.0000 0.5000 0.39653(2)
Zr1FA Zr 0.0000 -0.39653(2) 0.5000
Zr1HA Zr 0.0000 0.39653(2) 0.5000
Zr1XA Zr 0.5000 0.0000 0.39653(2)
Zr1BB Zr 0.39653(2) 0.0000 0.5000
O1L O 0.0509(2) 0.0509(2) -0.0509(2)
O1M O -0.0509(2) -0.0509(2) -0.0509(2)
O1N O 0.0509(2) -0.0509(2) 0.0509(2)
O1O O -0.0509(2) 0.0509(2) 0.0509(2)
O2E O 0.1496(2) 0.0000 -0.0805(3)
O2F O -0.1496(2) 0.0000 0.0805(3)
O2G O -0.1496(2) 0.0000 -0.0805(3)
O2O O -0.0805(3) 0.0000 0.1496(2)
O2T O 0.1496(2) 0.0805(3) 0.0000
O2U O 0.1496(2) -0.0805(3) 0.0000
O2V O -0.1496(2) 0.0805(3) 0.0000
O2W O -0.1496(2) -0.0805(3) 0.0000
loop_
_geom_bond_atom_site_label_1
_geom_bond_atom_site_label_2
_geom_bond_site_symmetry_1
_geom_bond_site_symmetry_2
Zr1 O1 1_555 1_555
O1 Zr1D 1_555 1_555
O2 Zr1 1_555 1_555
C1 O2 1_555 1_555
C2 C1 1_555 1_555
C3 C2 1_555 1_555
C4 C2 1_555 1_555
C5 C4 1_555 1_555
C6 C5 1_555 1_555
O2Q C1 1_555 1_555
C2Q C1 1_555 1_555
C3Q C2 1_555 1_555
C4Q C3 1_555 1_555
C5Q C3 1_555 1_555
C6Q C6 1_555 1_555
O2AA C1AA 1_555 1_555
C1AA C2AA 1_555 1_555
C2AA C3AA 1_555 1_555
C3AA C6 1_555 1_555
C4AA C2AA 1_555 1_555
C5AA C5Q 1_555 1_555
C6AA C3 1_555 1_555
O2PA C1AA 1_555 1_555
C2PA C1AA 1_555 1_555
C3PA C6Q 1_555 1_555
C4PA C3AA 1_555 1_555
C5PA C5 1_555 1_555
C6PA C5 1_555 1_555
O1A Zr1 1_555 1_555
O2A Zr1 1_555 1_555
C1A O2A 1_555 1_555
C2A C1A 1_555 1_555
C3A C2A 1_555 1_555
C4A C2A 1_555 1_555
C5A C4A 1_555 1_555
C6A C5A 1_555 1_555
O2S C1A 1_555 1_555
C2S C1A 1_555 1_555
C3S C2A 1_555 1_555
C4S C3A 1_555 1_555
C5S C3A 1_555 1_555
C6S C6A 1_555 1_555
O2Z C1Z 1_555 1_555
C1Z C2Z 1_555 1_555
C2Z C3Z 1_555 1_555
C3Z C6A 1_555 1_555
C4Z C2Z 1_555 1_555
C5Z C5S 1_555 1_555
C6Z C3A 1_555 1_555
O2NA C1Z 1_555 1_555
C2NA C1Z 1_555 1_555
C3NA C6S 1_555 1_555
C4NA C3Z 1_555 1_555
C5NA C5A 1_555 1_555
C6NA C5A 1_555 1_555
Zr1D Zr1 1_555 1_555
O2D Zr1D 1_555 1_555
C1D O2D 1_555 1_555
C2D C1D 1_555 1_555
C3D C2D 1_555 1_555
C4D C2D 1_555 1_555
C5D C4D 1_555 1_555
C6D C5D 1_555 1_555
O2N Zr1 1_555 1_555
C2N C1D 1_555 1_555
C3N C2D 1_555 1_555
C4N C3D 1_555 1_555
C5N C3D 1_555 1_555
C6N C6D 1_555 1_555
O2CB C1CB 1_555 1_555
C1CB C2CB 1_555 1_555
C2CB C3CB 1_555 1_555
C3CB C6D 1_555 1_555
C4CB C2CB 1_555 1_555
C5CB C5N 1_555 1_555
C6CB C3D 1_555 1_555
O2IB C1CB 1_555 1_555
C2IB C1CB 1_555 1_555
C3IB C6N 1_555 1_555
C4IB C3CB 1_555 1_555
C5IB C5D 1_555 1_555
C6IB C5D 1_555 1_555
O1C Zr1D 1_555 1_555
Zr1F Zr1 1_555 1_555
O1B Zr1F 1_555 1_555
Zr1B Zr1D 1_555 1_555
Zr1H Zr1 1_555 1_555
Zr1J Zr1 1_555 1_555
Zr1Z O2Z 1_555 1_555
Zr1Z_2 O2AA 1_555 1_555
Zr1FA O2NA 1_555 1_555
Zr1HA O2PA 1_555 1_555
Zr1XA O2IB 1_555 1_555
Zr1BB O2CB 1_555 1_555
O1L Zr1D 1_555 1_555
O1M Zr1F 1_555 1_555
O1N Zr1 1_555 1_555
O1O Zr1 1_555 1_555
O2E Zr1D 1_555 1_555
O2F Zr1F 1_555 1_555
O2G Zr1F 1_555 1_555
O2O Zr1 1_555 1_555
O2T Zr1D 1_555 1_555
O2U Zr1D 1_555 1_555
O2V Zr1F 1_555 1_555
O2W Zr1F 1_555 1_555
O1 Zr1H 1_555 1_555
C2 C2Q 1_555 1_555
C3 C2Q 1_555 1_555
C3 C3Q 1_555 1_555
C4 C3Q 1_555 1_555
C5 C3Q 1_555 1_555
C6 C6AA 1_555 1_555
C6 C5PA 1_555 1_555
C6 C6PA 1_555 1_555
O2Q Zr1H 1_555 1_555
C2Q C3Q 1_555 1_555
C2Q C4Q 1_555 1_555
C3Q C6PA 1_555 1_555
C4Q C5Q 1_555 1_555
C5Q C6Q 1_555 1_555
C5Q C6AA 1_555 1_555
C6Q C5AA 1_555 1_555
C6Q C6AA 1_555 1_555
C6Q C6PA 1_555 1_555
C2AA C2PA 1_555 1_555
C2AA C3PA 1_555 1_555
C3AA C2PA 1_555 1_555
C3AA C3PA 1_555 1_555
C3AA C5PA 1_555 1_555
C4AA C5AA 1_555 1_555
C4AA C3PA 1_555 1_555
C5AA C6AA 1_555 1_555
C5AA C3PA 1_555 1_555
C6AA C6PA 1_555 1_555
C2PA C3PA 1_555 1_555
C2PA C4PA 1_555 1_555
C4PA C5PA 1_555 1_555
C5PA C6PA 1_555 1_555
O1A Zr1F 1_555 1_555
O1A Zr1J 1_555 1_555
C2A C2S 1_555 1_555
C3A C2S 1_555 1_555
C3A C3S 1_555 1_555
C4A C3S 1_555 1_555
C5A C3S 1_555 1_555
C6A C6Z 1_555 1_555
C6A C5NA 1_555 1_555
C6A C6NA 1_555 1_555
O2S Zr1J 1_555 1_555
C2S C3S 1_555 1_555
C2S C4S 1_555 1_555
C3S C6NA 1_555 1_555
C4S C5S 1_555 1_555
C5S C6S 1_555 1_555
C5S C6Z 1_555 1_555
C6S C5Z 1_555 1_555
C6S C6Z 1_555 1_555
C6S C6NA 1_555 1_555
C2Z C2NA 1_555 1_555
C2Z C3NA 1_555 1_555
C3Z C2NA 1_555 1_555
C3Z C3NA 1_555 1_555
C3Z C5NA 1_555 1_555
C4Z C5Z 1_555 1_555
C4Z C3NA 1_555 1_555
C5Z C6Z 1_555 1_555
C5Z C3NA 1_555 1_555
C6Z C6NA 1_555 1_555
C2NA C3NA 1_555 1_555
C2NA C4NA 1_555 1_555
C4NA C5NA 1_555 1_555
C5NA C6NA 1_555 1_555
Zr1D Zr1H 1_555 1_555
Zr1D Zr1J 1_555 1_555
Zr1D O1N 1_555 1_555
C1D O2N 1_555 1_555
C2D C2N 1_555 1_555
C3D C2N 1_555 1_555
C3D C3N 1_555 1_555
C4D C3N 1_555 1_555
C5D C3N 1_555 1_555
C6D C6CB 1_555 1_555
C6D C5IB 1_555 1_555
C6D C6IB 1_555 1_555
C2N C3N 1_555 1_555
C2N C4N 1_555 1_555
C3N C6IB 1_555 1_555
C4N C5N 1_555 1_555
C5N C6N 1_555 1_555
C5N C6CB 1_555 1_555
C6N C5CB 1_555 1_555
C6N C6CB 1_555 1_555
C6N C6IB 1_555 1_555
C2CB C2IB 1_555 1_555
C2CB C3IB 1_555 1_555
C3CB C2IB 1_555 1_555
C3CB C3IB 1_555 1_555
C3CB C5IB 1_555 1_555
C4CB C5CB 1_555 1_555
C4CB C3IB 1_555 1_555
C5CB C6CB 1_555 1_555
C5CB C3IB 1_555 1_555
C6CB C6IB 1_555 1_555
C2IB C3IB 1_555 1_555
C2IB C4IB 1_555 1_555
C4IB C5IB 1_555 1_555
C5IB C6IB 1_555 1_555
O1C Zr1B 1_555 1_555
O1C Zr1J 1_555 1_555
Zr1F Zr1B 1_555 1_555
Zr1F Zr1H 1_555 1_555
Zr1F Zr1J 1_555 1_555
Zr1F O1O 1_555 1_555
O1B Zr1B 1_555 1_555
O1B Zr1H 1_555 1_555
Zr1B Zr1H 1_555 1_555
Zr1B Zr1J 1_555 1_555
Zr1B O1L 1_555 1_555
Zr1B O1M 1_555 1_555
Zr1H O1L 1_555 1_555
Zr1H O1O 1_555 1_555
Zr1J O1M 1_555 1_555
Zr1J O1N 1_555 1_555
Zr1Z Zr1FA 1_555 1_555
Zr1Z_2 Zr1HA 1_555 1_555
Zr1XA Zr1BB 1_555 1_555

#END
