
#######################################################################
#
#                 Cambridge Crystallographic Data Centre
#                                CCDC 
#
#######################################################################
#
# If this CIF has been generated from an entry in the Cambridge 
# Structural Database, then it will include bibliographic, chemical, 
# crystal, experimental, refinement or atomic coordinate data resulting 
# from the CCDC's data processing and validation procedures.
#
#######################################################################

data_OFAWEZ
_chemical_formula_moiety         'C24 H12 Hf9 O23'
_symmetry_cell_setting           tetragonal
_symmetry_space_group_name_H-M   'I 4/m m m'
_symmetry_Int_Tables_number      139
_space_group_name_Hall           '-I 4 2'
loop_
_symmetry_equiv_pos_site_id
_symmetry_equiv_pos_as_xyz
1 x,y,z
2 -y,x,z
3 -x,-y,z
4 y,-x,z
5 x,-y,-z
6 y,x,-z
7 -x,y,-z
8 -y,-x,-z
9 1/2+x,1/2+y,1/2+z
10 1/2-y,1/2+x,1/2+z
11 1/2-x,1/2-y,1/2+z
12 1/2+y,1/2-x,1/2+z
13 1/2+x,1/2-y,1/2-z
14 1/2+y,1/2+x,1/2-z
15 1/2-x,1/2+y,1/2-z
16 1/2-y,1/2-x,1/2-z
17 -x,-y,-z
18 y,-x,-z
19 x,y,-z
20 -y,x,-z
21 -x,y,z
22 -y,-x,z
23 x,-y,z
24 y,x,z
25 1/2-x,1/2-y,1/2-z
26 1/2+y,1/2-x,1/2-z
27 1/2+x,1/2+y,1/2-z
28 1/2-y,1/2+x,1/2-z
29 1/2-x,1/2+y,1/2+z
30 1/2-y,1/2-x,1/2+z
31 1/2+x,1/2-y,1/2+z
32 1/2+y,1/2+x,1/2+z
_cell_length_a                   17.600(2)
_cell_length_b                   17.600(2)
_cell_length_c                   22.600(4)
_cell_angle_alpha                90
_cell_angle_beta                 90
_cell_angle_gamma                90
_cell_volume                     7000.58
loop_
_atom_site_label
_atom_site_type_symbol
_atom_site_fract_x
_atom_site_fract_y
_atom_site_fract_z
Hf1 Hf 0.0000 0.0000 0.39173(3)
Hf2 Hf 0.099763(19) 0.099763(19) 0.5000
O1 O 0.0753(2) 0.0753(2) 0.3424(3)
O2 O 0.1390(3) 0.1390(3) 0.4114(3)
O3 O 0.0000 0.1004(6) 0.4476(3)
O4 O 0.2237(4) 0.0955(6) 0.5000
C1 C 0.1225(3) 0.1225(3) 0.3576(4)
C2 C 0.1649(4) 0.1649(4) 0.3105(5)
C3 C 0.1505(5) 0.1505(5) 0.2514(6)
H1 H 0.1142 0.1142 0.2416
C4 C 0.1881(6) 0.1881(6) 0.2064(6)
H2 H 0.1769 0.1769 0.1672
C5 C 0.2428(4) 0.2428(4) 0.2197(5)
C6 C 0.2194(4) 0.2194(4) 0.3240(5)
H3 H 0.2302 0.2302 0.3634
O1O O 0.4247(2) 0.4247(2) 0.1576(3)
O2O O 0.3610(3) 0.3610(3) 0.0886(3)
C1O C 0.3775(3) 0.3775(3) 0.1424(4)
C2O C 0.3351(4) 0.3351(4) 0.1895(5)
C3O C 0.3495(5) 0.3495(5) 0.2486(6)
H1O H 0.3858 0.3858 0.2584
C4O C 0.3119(6) 0.3119(6) 0.2936(6)
H2O H 0.3231 0.3231 0.3328
C5O C 0.2572(4) 0.2572(4) 0.2803(5)
C6O C 0.2806(4) 0.2806(4) 0.1760(5)
H3O H 0.2698 0.2698 0.1366
Hf2A Hf -0.099763(19) 0.099763(19) 0.5000
O1A O -0.0753(2) 0.0753(2) 0.3424(3)
O2A O -0.1390(3) 0.1390(3) 0.4114(3)
O3A O -0.1004(6) 0.0000 0.4476(3)
O4A O -0.0955(6) 0.2237(4) 0.5000
C1A C -0.1225(3) 0.1225(3) 0.3576(4)
C2A C -0.1649(4) 0.1649(4) 0.3105(5)
C3A C -0.1505(5) 0.1505(5) 0.2514(6)
H1A H -0.1142 0.1142 0.2416
C4A C -0.1881(6) 0.1881(6) 0.2064(6)
H2A H -0.1769 0.1769 0.1672
C5A C -0.2428(4) 0.2428(4) 0.2197(5)
C6A C -0.2194(4) 0.2194(4) 0.3240(5)
H3A H -0.2302 0.2302 0.3634
O1L O -0.4247(2) 0.4247(2) 0.1576(3)
O2L O -0.3610(3) 0.3610(3) 0.0886(3)
C1L C -0.3775(3) 0.3775(3) 0.1424(4)
C2L C -0.3351(4) 0.3351(4) 0.1895(5)
C3L C -0.3495(5) 0.3495(5) 0.2486(6)
H1L H -0.3858 0.3858 0.2584
C4L C -0.3119(6) 0.3119(6) 0.2936(6)
H2L H -0.3231 0.3231 0.3328
C5L C -0.2572(4) 0.2572(4) 0.2803(5)
C6L C -0.2806(4) 0.2806(4) 0.1760(5)
H3L H -0.2698 0.2698 0.1366
O3B O -0.0000 -0.1004(6) 0.4476(3)
O3C O 0.1004(6) 0.0000 0.4476(3)
O4E O 0.0955(6) 0.2237(4) 0.5000
O4F O -0.2237(4) 0.0955(6) 0.5000
Hf1L Hf -0.5000 0.5000 0.10827(3)
Hf1L_2 Hf 0.5000 0.5000 0.10827(3)
Hf2B Hf -0.099763(19) -0.099763(19) 0.5000
Hf2C Hf 0.099763(19) -0.099763(19) 0.5000
Hf2J Hf 0.400237(19) 0.400237(19) 0.0000
Hf2K Hf -0.400237(19) 0.400237(19) 0.0000
O1B O -0.0753(2) -0.0753(2) 0.3424(3)
O1C O 0.0753(2) -0.0753(2) 0.3424(3)
O2E O 0.1390(3) 0.1390(3) 0.5886(3)
O2F O -0.1390(3) 0.1390(3) 0.5886(3)
O3E O 0.1004(6) -0.0000 0.5524(3)
O3F O -0.0000 0.1004(6) 0.5524(3)
O3G O -0.1004(6) -0.0000 0.5524(3)
loop_
_geom_bond_atom_site_label_1
_geom_bond_atom_site_label_2
_geom_bond_site_symmetry_1
_geom_bond_site_symmetry_2
Hf1 O1 1_555 1_555
Hf2 O2 1_555 1_555
O1 C1 1_555 1_555
O2 C1 1_555 1_555
O3 Hf1 1_555 1_555
O4 Hf2 1_555 1_555
C1 C2 1_555 1_555
C2 C3 1_555 1_555
C3 H1 1_555 1_555
C4 C3 1_555 1_555
H2 C4 1_555 1_555
C5 C4 1_555 1_555
C6 C2 1_555 1_555
H3 C6 1_555 1_555
O1O C1O 1_555 1_555
O2O C1O 1_555 1_555
C1O C2O 1_555 1_555
C2O C3O 1_555 1_555
C3O H1O 1_555 1_555
C4O C3O 1_555 1_555
H2O C4O 1_555 1_555
C5O C5 1_555 1_555
C6O C5 1_555 1_555
H3O C6O 1_555 1_555
Hf2A O3 1_555 1_555
O1A Hf1 1_555 1_555
O2A Hf2A 1_555 1_555
O3A Hf1 1_555 1_555
O4A Hf2A 1_555 1_555
C1A O1A 1_555 1_555
C2A C1A 1_555 1_555
C3A C2A 1_555 1_555
H1A C3A 1_555 1_555
C4A C3A 1_555 1_555
H2A C4A 1_555 1_555
C5A C4A 1_555 1_555
C6A C2A 1_555 1_555
H3A C6A 1_555 1_555
O1L C1L 1_555 1_555
O2L C1L 1_555 1_555
C1L C2L 1_555 1_555
C2L C3L 1_555 1_555
C3L H1L 1_555 1_555
C4L C3L 1_555 1_555
H2L C4L 1_555 1_555
C5L C5A 1_555 1_555
C6L C5A 1_555 1_555
H3L C6L 1_555 1_555
O3B Hf1 1_555 1_555
O3C Hf1 1_555 1_555
O4E Hf2 1_555 1_555
O4F Hf2A 1_555 1_555
Hf1L O1L 1_555 1_555
Hf1L_2 O1O 1_555 1_555
Hf2B O3A 1_555 1_555
Hf2C O3B 1_555 1_555
Hf2J O2O 1_555 1_555
Hf2K O2L 1_555 1_555
O1B Hf1 1_555 1_555
O1C Hf1 1_555 1_555
O2E Hf2 1_555 1_555
O2F Hf2A 1_555 1_555
O3E Hf2 1_555 1_555
O3F Hf2 1_555 1_555
O3G Hf2A 1_555 1_555
Hf2 O3 1_555 1_555
Hf2 O3C 1_555 1_555
C6 C5O 1_555 1_555
C2O C6O 1_555 1_555
C4O C5O 1_555 1_555
Hf2A O3A 1_555 1_555
Hf2A O3F 1_555 1_555
O2A C1A 1_555 1_555
C6A C5L 1_555 1_555
C2L C6L 1_555 1_555
C4L C5L 1_555 1_555
O3B Hf2B 1_555 1_555
O3C Hf2C 1_555 1_555
Hf2B O3G 1_555 1_555
Hf2C O3E 1_555 1_555

#END
