
#######################################################################
#
#                 Cambridge Crystallographic Data Centre
#                                CCDC 
#
#######################################################################
#
# If this CIF has been generated from an entry in the Cambridge 
# Structural Database, then it will include bibliographic, chemical, 
# crystal, experimental, refinement or atomic coordinate data resulting 
# from the CCDC's data processing and validation procedures.
#
#######################################################################

data_OFAWAV
_chemical_formula_moiety         'C24 H12 Hf9 O24'
_symmetry_cell_setting           orthorhombic
_symmetry_space_group_name_H-M   'I m m m'
_symmetry_Int_Tables_number      71
_space_group_name_Hall           '-I 2 2'
loop_
_symmetry_equiv_pos_site_id
_symmetry_equiv_pos_as_xyz
1 x,y,z
2 -x,-y,z
3 x,-y,-z
4 -x,y,-z
5 1/2+x,1/2+y,1/2+z
6 1/2-x,1/2-y,1/2+z
7 1/2+x,1/2-y,1/2-z
8 1/2-x,1/2+y,1/2-z
9 -x,-y,-z
10 x,y,-z
11 -x,y,z
12 x,-y,z
13 1/2-x,1/2-y,1/2-z
14 1/2+x,1/2+y,1/2-z
15 1/2-x,1/2+y,1/2+z
16 1/2+x,1/2-y,1/2+z
_cell_length_a                   16.994(3)
_cell_length_b                   18.454(4)
_cell_length_c                   22.477(4)
_cell_angle_alpha                90
_cell_angle_beta                 90
_cell_angle_gamma                90
_cell_volume                     7048.95
loop_
_atom_site_label
_atom_site_type_symbol
_atom_site_fract_x
_atom_site_fract_y
_atom_site_fract_z
Hf1 Hf 0.5000 -0.0000 0.109319(17)
Hf2 Hf 0.39648(2) 0.09492(2) 0.0000
O1 O 0.3976(8) 0.0000 0.0537(4)
O2 O 0.5000 -0.0950(8) 0.0529(4)
O3 O 0.2706(5) 0.0845(7) 0.0000
O4 O 0.4040(8) 0.2124(5) 0.0000
O5 O 0.3537(3) 0.1331(3) 0.0896(2)
O6 O 0.4214(3) 0.0730(3) 0.1596(2)
C1 C 0.3739(5) 0.1190(5) 0.1427(3)
C2 C 0.3338(6) 0.1628(5) 0.1906(3)
C3 C 0.3533(9) 0.1523(8) 0.2496(4)
H1 H 0.3910 0.1178 0.2596
C4 C 0.2773(7) 0.2132(6) 0.1758(3)
H2 H 0.2639 0.2200 0.1361
C5 C 0.2396(7) 0.2546(6) 0.2199(4)
C6 C 0.1824(10) 0.3076(9) 0.2061(4)
H3 H 0.1687 0.3156 0.1666
O5L O 0.1463(3) 0.3669(3) 0.4104(2)
O6L O 0.0786(3) 0.4270(3) 0.3404(2)
C1L C 0.1261(5) 0.3810(5) 0.3573(3)
C2L C 0.1662(6) 0.3372(5) 0.3094(3)
C3L C 0.1467(9) 0.3477(8) 0.2504(4)
H1L H 0.1090 0.3822 0.2404
C4L C 0.2227(7) 0.2868(6) 0.3242(3)
H2L H 0.2361 0.2800 0.3639
C5L C 0.2604(7) 0.2454(6) 0.2801(4)
C6L C 0.3176(10) 0.1924(9) 0.2939(4)
H3L H 0.3313 0.1844 0.3334
Hf2A Hf 0.60352(2) -0.09492(2) 0.0000
O1A O 0.6024(8) 0.0000 0.0537(4)
O2A O 0.5000 0.0950(8) 0.0529(4)
O3A O 0.7294(5) -0.0845(7) 0.0000
O4A O 0.5960(8) -0.2124(5) 0.0000
O5A O 0.6463(3) -0.1331(3) 0.0896(2)
O6A O 0.5786(3) -0.0730(3) 0.1596(2)
C1A C 0.6261(5) -0.1190(5) 0.1427(3)
C2A C 0.6662(6) -0.1628(5) 0.1906(3)
C3A C 0.6467(9) -0.1523(8) 0.2496(4)
H1A H 0.6090 -0.1178 0.2596
C4A C 0.7227(7) -0.2132(6) 0.1758(3)
H2A H 0.7361 -0.2200 0.1361
C5A C 0.7604(7) -0.2546(6) 0.2199(4)
C6A C 0.8176(10) -0.3076(9) 0.2061(4)
H3A H 0.8313 -0.3156 0.1666
O5M O 0.8537(3) -0.3669(3) 0.4104(2)
O6M O 0.9214(3) -0.4270(3) 0.3404(2)
C1M C 0.8739(5) -0.3810(5) 0.3573(3)
C2M C 0.8338(6) -0.3372(5) 0.3094(3)
C3M C 0.8533(9) -0.3477(8) 0.2504(4)
H1M H 0.8910 -0.3822 0.2404
C4M C 0.7773(7) -0.2868(6) 0.3242(3)
H2M H 0.7639 -0.2800 0.3639
C5M C 0.7396(7) -0.2454(6) 0.2801(4)
C6M C 0.6824(10) -0.1924(9) 0.2939(4)
H3M H 0.6687 -0.1844 0.3334
Hf1F Hf 0.0000 0.5000 0.390681(17)
Hf1F_2 Hf 1.0000 -0.5000 0.390681(17)
Hf2B Hf 0.39648(2) -0.09492(2) 0.0000
Hf2C Hf 0.60352(2) 0.09492(2) 0.0000
Hf2D Hf 0.89648(2) -0.40508(2) 0.5000
Hf2E Hf 0.10352(2) 0.40508(2) 0.5000
O1B O 0.3976(8) 0.0000 -0.0537(4)
O1C O 0.6024(8) 0.0000 -0.0537(4)
O2B O 0.5000 0.0950(8) -0.0529(4)
O2C O 0.5000 -0.0950(8) -0.0529(4)
O5H O 0.6463(3) -0.1331(3) -0.0896(2)
O5I O 0.3537(3) 0.1331(3) -0.0896(2)
O6J O 0.5786(3) 0.0730(3) 0.1596(2)
O6K O 0.4214(3) -0.0730(3) 0.1596(2)
loop_
_geom_bond_atom_site_label_1
_geom_bond_atom_site_label_2
_geom_bond_site_symmetry_1
_geom_bond_site_symmetry_2
Hf1 O1 1_555 1_555
Hf2 O1 1_555 1_555
O1 Hf2B 1_555 1_555
O2 Hf1 1_555 1_555
O3 Hf2 1_555 1_555
O4 Hf2 1_555 1_555
O5 Hf2 1_555 1_555
O6 Hf1 1_555 1_555
C1 O5 1_555 1_555
C2 C1 1_555 1_555
C3 C2 1_555 1_555
H1 C3 1_555 1_555
C4 C2 1_555 1_555
H2 C4 1_555 1_555
C5 C4 1_555 1_555
C6 C5 1_555 1_555
H3 C6 1_555 1_555
O5L C1L 1_555 1_555
O6L C1L 1_555 1_555
C1L C2L 1_555 1_555
C2L C3L 1_555 1_555
C3L C6 1_555 1_555
H1L C3L 1_555 1_555
C4L C2L 1_555 1_555
H2L C4L 1_555 1_555
C5L C5 1_555 1_555
C6L C3 1_555 1_555
H3L C6L 1_555 1_555
Hf2A O2 1_555 1_555
O1A Hf1 1_555 1_555
O2A Hf1 1_555 1_555
O3A Hf2A 1_555 1_555
O4A Hf2A 1_555 1_555
O5A Hf2A 1_555 1_555
O6A Hf1 1_555 1_555
C1A O5A 1_555 1_555
C2A C1A 1_555 1_555
C3A C2A 1_555 1_555
H1A C3A 1_555 1_555
C4A C2A 1_555 1_555
H2A C4A 1_555 1_555
C5A C4A 1_555 1_555
C6A C5A 1_555 1_555
H3A C6A 1_555 1_555
O5M C1M 1_555 1_555
O6M C1M 1_555 1_555
C1M C2M 1_555 1_555
C2M C3M 1_555 1_555
C3M C6A 1_555 1_555
H1M C3M 1_555 1_555
C4M C2M 1_555 1_555
H2M C4M 1_555 1_555
C5M C5A 1_555 1_555
C6M C3A 1_555 1_555
H3M C6M 1_555 1_555
Hf1F O6L 1_555 1_555
Hf1F_2 O6M 1_555 1_555
Hf2B O2 1_555 1_555
Hf2C O1A 1_555 1_555
Hf2D O5M 1_555 1_555
Hf2E O5L 1_555 1_555
O1B Hf2 1_555 1_555
O1C Hf2A 1_555 1_555
O2B Hf2 1_555 1_555
O2C Hf2A 1_555 1_555
O5H Hf2A 1_555 1_555
O5I Hf2 1_555 1_555
O6J Hf1 1_555 1_555
O6K Hf1 1_555 1_555
Hf2 O2A 1_555 1_555
O6 C1 1_555 1_555
C4L C5L 1_555 1_555
C5L C6L 1_555 1_555
Hf2A O1A 1_555 1_555
O2A Hf2C 1_555 1_555
O6A C1A 1_555 1_555
C4M C5M 1_555 1_555
C5M C6M 1_555 1_555
Hf2B O1B 1_555 1_555
Hf2B O2C 1_555 1_555
Hf2C O1C 1_555 1_555
Hf2C O2B 1_555 1_555

#END
