
#######################################################################
#
#                 Cambridge Crystallographic Data Centre
#                                CCDC 
#
#######################################################################
#
# If this CIF has been generated from an entry in the Cambridge 
# Structural Database, then it will include bibliographic, chemical, 
# crystal, experimental, refinement or atomic coordinate data resulting 
# from the CCDC's data processing and validation procedures.
#
#######################################################################

data_FARYAA
_chemical_formula_moiety         '(C12 H15 K1 N12 Nd1 O7 Re4 Te4 1+)n'
_symmetry_cell_setting           orthorhombic
_symmetry_space_group_name_H-M   'C m c m'
_symmetry_Int_Tables_number      63
_space_group_name_Hall           '-C 2c 2'
loop_
_symmetry_equiv_pos_site_id
_symmetry_equiv_pos_as_xyz
1 x,y,z
2 -x,-y,1/2+z
3 x,-y,-z
4 -x,y,1/2-z
5 1/2+x,1/2+y,z
6 1/2-x,1/2-y,1/2+z
7 1/2+x,1/2-y,-z
8 1/2-x,1/2+y,1/2-z
9 -x,-y,-z
10 x,y,1/2-z
11 -x,y,z
12 x,-y,1/2+z
13 1/2-x,1/2-y,-z
14 1/2+x,1/2+y,1/2-z
15 1/2-x,1/2+y,z
16 1/2+x,1/2-y,1/2+z
_cell_length_a                   15.6175(11)
_cell_length_b                   21.6311(11)
_cell_length_c                   20.7773(12)
_cell_angle_alpha                90
_cell_angle_beta                 90
_cell_angle_gamma                90
_cell_volume                     7019.06
loop_
_atom_site_label
_atom_site_type_symbol
_atom_site_fract_x
_atom_site_fract_y
_atom_site_fract_z
Re1 Re -0.0000 -0.297502(11) -0.057704(11)
Re2 Re 0.091780(12) -0.348330(8) 0.049750(8)
Re3 Re -0.0000 -0.234637(11) 0.066138(12)
Nd1 Nd -0.25520(2) -0.373553(16) -0.2500
Te1 Te -0.0000 -0.32326(2) 0.152558(19)
Te2 Te 0.135569(19) -0.243891(13) -0.008056(14)
Te3 Te -0.0000 -0.416243(19) -0.03031(2)
O1 O -0.2369(4) -0.2623(2) -0.2500
O2 O -0.3896(4) -0.4361(4) -0.2500
O3 O -0.2681(3) -0.44297(19) -0.34591(19)
O4 O -0.1405(5) -0.4556(3) -0.2500
N1 N -0.1392(3) -0.3414(2) -0.1657(2)
N2 N -0.0000 -0.1761(4) -0.1485(4)
N3 N 0.2526(3) -0.3160(2) 0.1421(3)
N4 N 0.1165(4) -0.4792(2) 0.1247(3)
N5 N 0.2566(3) -0.4024(3) -0.0264(3)
N6 N -0.0000 -0.0928(3) 0.0158(4)
N7 N -0.1375(3) -0.1740(2) 0.1657(2)
C1 C -0.0895(3) -0.3257(2) -0.1284(2)
C2 C -0.0000 -0.2183(3) -0.1162(3)
C3 C 0.1951(3) -0.3262(2) 0.1105(2)
C4 C 0.1083(4) -0.4338(2) 0.0975(2)
C5 C 0.1967(3) -0.3836(2) -0.0019(2)
C6 C -0.0000 -0.1428(3) 0.0308(3)
C7 C -0.0887(3) -0.1953(2) 0.1309(2)
Re2J Re -0.091780(12) -0.348330(8) 0.049750(8)
Nd1E Nd -0.24480(2) -0.126447(16) 0.2500
Nd1C Nd 0.25520(2) -0.373553(16) -0.2500
Nd1F Nd 0.24480(2) -0.126447(16) 0.2500
Te2J Te -0.135569(19) -0.243891(13) -0.008056(14)
O3I O -0.2681(3) -0.44297(19) -0.15409(19)
N1J N 0.1392(3) -0.3414(2) -0.1657(2)
N1I N -0.1392(3) -0.3414(2) -0.3343(2)
N3J N -0.2526(3) -0.3160(2) 0.1421(3)
N4J N -0.1165(4) -0.4792(2) 0.1247(3)
N5J N -0.2566(3) -0.4024(3) -0.0264(3)
N7J N 0.1375(3) -0.1740(2) 0.1657(2)
N7E N -0.3625(3) -0.3260(2) -0.3343(2)
N7L N -0.3625(3) -0.3260(2) -0.1657(2)
C1J C 0.0895(3) -0.3257(2) -0.1284(2)
C3J C -0.1951(3) -0.3262(2) 0.1105(2)
C4J C -0.1083(4) -0.4338(2) 0.0975(2)
C5J C -0.1967(3) -0.3836(2) -0.0019(2)
C7J C 0.0887(3) -0.1953(2) 0.1309(2)
K1 K -0.1269(4) 0.0000 0.0000
O5 O 0.0000 -0.0300(5) 0.1487(5)
O6 O -0.1332(11) 0.0601(7) 0.1174(8)
loop_
_geom_bond_atom_site_label_1
_geom_bond_atom_site_label_2
_geom_bond_site_symmetry_1
_geom_bond_site_symmetry_2
Re1 Re2 1_555 1_555
Re2 Re3 1_555 1_555
Re3 Re1 1_555 1_555
Nd1 O1 1_555 1_555
Te1 Re2 1_555 1_555
Te2 Re1 1_555 1_555
Te3 Re1 1_555 1_555
O2 Nd1 1_555 1_555
O3 Nd1 1_555 1_555
O4 Nd1 1_555 1_555
N1 Nd1 1_555 1_555
N2 C2 1_555 1_555
N3 C3 1_555 1_555
N4 C4 1_555 1_555
N5 C5 1_555 1_555
N6 C6 1_555 1_555
N7 C7 1_555 1_555
C1 Re1 1_555 1_555
C2 Re1 1_555 1_555
C3 Re2 1_555 1_555
C4 Re2 1_555 1_555
C5 Re2 1_555 1_555
C6 Re3 1_555 1_555
C7 Re3 1_555 1_555
Re2J Re1 1_555 1_555
Nd1E N7 1_555 1_555
Nd1C N1J 1_555 1_555
Nd1F N7J 1_555 1_555
Te2J Re1 1_555 1_555
O3I Nd1 1_555 1_555
N1J C1J 1_555 1_555
N1I Nd1 1_555 1_555
N3J C3J 1_555 1_555
N4J C4J 1_555 1_555
N5J C5J 1_555 1_555
N7J C7J 1_555 1_555
N7E Nd1 1_555 1_555
N7L Nd1 1_555 1_555
C1J Re1 1_555 1_555
C3J Re2J 1_555 1_555
C4J Re2J 1_555 1_555
C5J Re2J 1_555 1_555
C7J Re3 1_555 1_555
Re2 Te2 1_555 1_555
Re2 Te3 1_555 1_555
Re2 Re2J 1_555 1_555
Re3 Te1 1_555 1_555
Re3 Te2 1_555 1_555
Re3 Re2J 1_555 1_555
Re3 Te2J 1_555 1_555
Te1 Re2J 1_555 1_555
Te3 Re2J 1_555 1_555
N1 C1 1_555 1_555
Re2J Te2J 1_555 1_555

#END
