
#######################################################################
#
#                 Cambridge Crystallographic Data Centre
#                                CCDC 
#
#######################################################################
#
# If this CIF has been generated from an entry in the Cambridge 
# Structural Database, then it will include bibliographic, chemical, 
# crystal, experimental, refinement or atomic coordinate data resulting 
# from the CCDC's data processing and validation procedures.
#
#######################################################################

data_FONPUV
_chemical_formula_moiety         '(C15 H12 O9 Zn2)n'
_symmetry_cell_setting           orthorhombic
_symmetry_space_group_name_H-M   'P b c a'
_symmetry_Int_Tables_number      61
_space_group_name_Hall           '-P 2ac 2ab'
loop_
_symmetry_equiv_pos_site_id
_symmetry_equiv_pos_as_xyz
1 x,y,z
2 1/2-x,-y,1/2+z
3 -x,1/2+y,1/2-z
4 1/2+x,1/2-y,-z
5 -x,-y,-z
6 1/2+x,y,1/2-z
7 x,1/2-y,1/2+z
8 1/2-x,1/2+y,z
_cell_length_a                   20.2193(4)
_cell_length_b                   6.57160(10)
_cell_length_c                   27.9350(5)
_cell_angle_alpha                90
_cell_angle_beta                 90
_cell_angle_gamma                90
_cell_volume                     3711.81
loop_
_atom_site_label
_atom_site_type_symbol
_atom_site_fract_x
_atom_site_fract_y
_atom_site_fract_z
C1 C 0.1125(3) 0.8624(8) 0.72648(18)
C2 C 0.0806(3) 0.8434(8) 0.77499(17)
C3 C 0.0443(3) 0.6734(8) 0.78664(19)
C4 C 0.0184(3) 0.6510(9) 0.83293(18)
H1 H -0.0055 0.5349 0.8409
C5 C 0.0285(3) 0.8025(8) 0.86704(17)
C6 C 0.0653(3) 0.9718(8) 0.85492(19)
H2 H 0.0730 1.0720 0.8778
C7 C 0.0908(3) 0.9947(8) 0.8094(2)
H3 H 0.1148 1.1109 0.8016
H4 H 0.0367 0.5731 0.7636
C8 C 0.0035(2) 0.7751(7) 0.91737(16)
C9 C -0.0625(3) 0.7325(7) 0.92632(16)
C10 C -0.0840(3) 0.7037(7) 0.97360(16)
H5 H -0.1280 0.6737 0.9800
C11 C -0.0387(3) 0.7205(7) 1.01072(17)
H6 H -0.0528 0.7015 1.0421
C12 C 0.0266(3) 0.7647(7) 1.00213(17)
C13 C 0.0476(3) 0.7911(8) 0.95553(17)
H7 H 0.0919 0.8201 0.9495
C14 C -0.1140(2) 0.7225(8) 0.88752(17)
C15 C 0.0749(3) 0.7832(8) 1.04246(19)
O1 O 0.15818(19) 0.9917(6) 0.72201(12)
O2 O 0.09193(19) 0.7445(5) 0.69413(12)
O3 O -0.12538(18) 0.8801(5) 0.86223(11)
O4 O -0.14550(18) 0.5608(5) 0.88209(12)
O5 O 0.0509(2) 0.7682(5) 1.08452(12)
O6 O 0.1347(2) 0.8121(6) 1.03492(14)
O7 O 0.22172(17) 0.7262(5) 0.63696(11)
H8 H 0.2437 0.7864 0.6084
O8 O 0.2947(2) 0.9344(7) 0.71739(13)
H9 H 0.3373 0.9479 0.7026
H10 H 0.2882 0.7959 0.7273
Zn1 Zn 0.12331(3) 0.68965(9) 0.628511(19)
Zn2 Zn 0.22132(3) 1.01403(9) 0.66775(2)
O3B O 0.12538(18) 0.3801(5) 0.63777(11)
O4B O 0.14550(18) 1.0608(5) 0.61791(12)
O5F O 0.0509(2) 0.7318(5) 0.58452(12)
O7G O 0.27828(17) 1.2262(5) 0.63696(11)
Zn1B Zn -0.12331(3) 0.18965(9) 0.871489(19)
Zn1B_2 Zn -0.12331(3) 1.18965(9) 0.871489(19)
Zn1F Zn 0.12331(3) 0.81035(9) 1.128511(19)
Zn2B Zn -0.22132(3) 0.51403(9) 0.83225(2)
Zn2G Zn 0.27868(3) 0.51403(9) 0.66775(2)
O9 O 0.2630(2) 0.8650(8) 0.54620(15)
H11 H 0.2638 0.9943 0.5466
H12 H 0.2387 0.8389 0.5221
loop_
_geom_bond_atom_site_label_1
_geom_bond_atom_site_label_2
_geom_bond_site_symmetry_1
_geom_bond_site_symmetry_2
C1 C2 1_555 1_555
C2 C3 1_555 1_555
C3 C4 1_555 1_555
C4 H1 1_555 1_555
C5 C4 1_555 1_555
C6 C5 1_555 1_555
H2 C6 1_555 1_555
C7 C2 1_555 1_555
H3 C7 1_555 1_555
H4 C3 1_555 1_555
C8 C5 1_555 1_555
C9 C8 1_555 1_555
C10 C9 1_555 1_555
H5 C10 1_555 1_555
C11 C10 1_555 1_555
H6 C11 1_555 1_555
C12 C11 1_555 1_555
C13 C8 1_555 1_555
H7 C13 1_555 1_555
C14 C9 1_555 1_555
C15 C12 1_555 1_555
O1 C1 1_555 1_555
O2 C1 1_555 1_555
O3 C14 1_555 1_555
O4 C14 1_555 1_555
O5 C15 1_555 1_555
O6 C15 1_555 1_555
O7 H8 1_555 1_555
O8 H9 1_555 1_555
H10 O8 1_555 1_555
Zn1 O2 1_555 1_555
Zn2 O1 1_555 1_555
O9 H11 1_555 1_555
H12 O9 1_555 1_555
O3B Zn1 1_555 1_555
O4B Zn1 1_555 1_555
O5F Zn1 1_555 1_555
O7G Zn2 1_555 1_555
Zn1B O4 1_555 1_555
Zn1B_2 O3 1_555 1_555
Zn1F O5 1_555 1_555
Zn2B O4 1_555 1_555
Zn2G O7 1_555 1_555
C6 C7 1_555 1_555
C12 C13 1_555 1_555
O7 Zn1 1_555 1_555
O7 Zn2 1_555 1_555
O8 Zn2 1_555 1_555
Zn2 O4B 1_555 1_555

#END
