
#######################################################################
#
#                 Cambridge Crystallographic Data Centre
#                                CCDC 
#
#######################################################################
#
# If this CIF has been generated from an entry in the Cambridge 
# Structural Database, then it will include bibliographic, chemical, 
# crystal, experimental, refinement or atomic coordinate data resulting 
# from the CCDC's data processing and validation procedures.
#
#######################################################################

data_PEVYUM
_chemical_formula_moiety         '(C24 H28 Co2 F2 N4 O10)n'
_symmetry_cell_setting           monoclinic
_symmetry_space_group_name_H-M   'C 2'
_symmetry_Int_Tables_number      5
_space_group_name_Hall           'C 2y'
loop_
_symmetry_equiv_pos_site_id
_symmetry_equiv_pos_as_xyz
1 x,y,z
2 -x,y,-z
3 1/2+x,1/2+y,z
4 1/2-x,1/2+y,-z
_cell_length_a                   17.857(10)
_cell_length_b                   7.324(4)
_cell_length_c                   11.409(6)
_cell_angle_alpha                90
_cell_angle_beta                 97.668(9)
_cell_angle_gamma                90
_cell_volume                     1478.78
loop_
_atom_site_label
_atom_site_type_symbol
_atom_site_fract_x
_atom_site_fract_y
_atom_site_fract_z
Co1 Co 0.25096(5) 0.8462(2) 0.49690(7)
O1 O 0.3652(3) 0.7502(9) 0.5110(4)
O2 O 0.3630(3) 0.4441(9) 0.5347(4)
O3 O 0.5100(3) 0.4460(8) 0.6312(4)
H1 H 0.4863 0.3533 0.6097
N1 N 0.2506(3) 0.8495(16) 0.3095(4)
N2 N 0.2514(3) 0.8466(15) -0.3123(4)
C1 C 0.3136(3) 0.8005(10) -0.2380(6)
H2 H 0.3571 0.7685 -0.2698
C2 C 0.3155(3) 0.7986(10) -0.1166(5)
H3 H 0.3598 0.7680 -0.0681
C3 C 0.2499(3) 0.8433(16) -0.0668(5)
C4 C 0.1861(4) 0.8889(10) -0.1448(5)
H4 H 0.1416 0.9205 -0.1159
C5 C 0.1888(4) 0.8872(10) -0.2650(5)
H5 H 0.1451 0.9155 -0.3155
C6 C 0.1900(3) 0.7911(11) 0.2343(6)
H6 H 0.1481 0.7488 0.2668
C7 C 0.1865(3) 0.7904(10) 0.1143(5)
H7 H 0.1424 0.7548 0.0671
C8 C 0.2499(3) 0.8436(17) 0.0627(5)
C9 C 0.3136(4) 0.9031(10) 0.1404(5)
H8 H 0.3570 0.9419 0.1108
C10 C 0.3106(4) 0.9028(10) 0.2603(5)
H9 H 0.3530 0.9421 0.3100
C11 C 0.3954(3) 0.5944(13) 0.5325(4)
C12 C 0.4823(3) 0.5935(14) 0.5593(5)
H10 H 0.4978 0.7065 0.6018
F1 F 0.29671(16) 1.0965(8) 0.5106(3)
O1A O 0.6348(3) 0.7502(9) 0.4890(4)
O2A O 0.6370(3) 0.4441(9) 0.4653(4)
O3A O 0.4900(3) 0.4460(8) 0.3688(4)
H1A H 0.5137 0.3533 0.3903
C11A C 0.6046(3) 0.5944(13) 0.4675(4)
C12A C 0.5177(3) 0.5935(14) 0.4407(5)
H10A H 0.5022 0.7065 0.3982
Co1A Co 0.74904(5) 0.8462(2) 0.50310(7)
N1A N 0.7494(3) 0.8495(16) 0.6905(4)
N2A N 0.7486(3) 0.8466(15) 1.3123(4)
C1A C 0.6864(3) 0.8005(10) 1.2380(6)
H2A H 0.6429 0.7685 1.2698
C2A C 0.6845(3) 0.7986(10) 1.1166(5)
H3A H 0.6402 0.7680 1.0681
C3A C 0.7501(3) 0.8433(16) 1.0668(5)
C4A C 0.8139(4) 0.8889(10) 1.1448(5)
H4A H 0.8584 0.9205 1.1159
C5A C 0.8112(4) 0.8872(10) 1.2650(5)
H5A H 0.8549 0.9155 1.3155
C6A C 0.8100(3) 0.7911(11) 0.7657(6)
H6A H 0.8519 0.7488 0.7332
C7A C 0.8135(3) 0.7904(10) 0.8857(5)
H7A H 0.8576 0.7548 0.9329
C8A C 0.7501(3) 0.8436(17) 0.9373(5)
C9A C 0.6864(4) 0.9031(10) 0.8596(5)
H8A H 0.6430 0.9419 0.8892
C10A C 0.6894(4) 0.9028(10) 0.7397(5)
H9A H 0.6470 0.9421 0.6900
F1A F 0.70329(16) 1.0965(8) 0.4894(3)
Co1_2 Co 0.25096(5) 0.8462(2) -0.50310(7)
Co1A_2 Co 0.74904(5) 0.8462(2) 1.50310(7)
Co1B Co 0.75096(5) 0.3462(2) 0.49690(7)
Co1B_2 Co 0.75096(5) 1.3462(2) 0.49690(7)
Co1C Co 0.24904(5) 0.3462(2) 0.50310(7)
Co1C_2 Co 0.24904(5) 1.3462(2) 0.50310(7)
O2B O 0.8630(3) 0.9441(9) 0.5347(4)
O2C O 0.1370(3) 0.9441(9) 0.4653(4)
N2_2 N 0.2514(3) 0.8466(15) 0.6877(4)
N2A_2 N 0.7486(3) 0.8466(15) 0.3123(4)
F1B F 0.79671(16) 0.5965(8) 0.5106(3)
F1C F 0.20329(16) 0.5965(8) 0.4894(3)
O4 O 0.4475(3) 1.0886(14) 0.5808(6)
O5 O 0.4991(6) 0.580(3) 0.1303(9)
O6 O 0.5000 0.219(3) 0.0000
O7 O 0.4986(8) 0.011(2) -0.1622(13)
loop_
_geom_bond_atom_site_label_1
_geom_bond_atom_site_label_2
_geom_bond_site_symmetry_1
_geom_bond_site_symmetry_2
Co1 O1 1_555 1_555
O1 C11 1_555 1_555
O2 C11 1_555 1_555
O3 H1 1_555 1_555
N1 Co1 1_555 1_555
N2 C1 1_555 1_555
C1 H2 1_555 1_555
C2 C1 1_555 1_555
H3 C2 1_555 1_555
C3 C2 1_555 1_555
C4 C3 1_555 1_555
H4 C4 1_555 1_555
C5 N2 1_555 1_555
H5 C5 1_555 1_555
C6 N1 1_555 1_555
H6 C6 1_555 1_555
C7 C6 1_555 1_555
H7 C7 1_555 1_555
C8 C3 1_555 1_555
C9 C8 1_555 1_555
H8 C9 1_555 1_555
C10 N1 1_555 1_555
H9 C10 1_555 1_555
C11 C12 1_555 1_555
C12 O3 1_555 1_555
H10 C12 1_555 1_555
F1 Co1 1_555 1_555
O1A C11A 1_555 1_555
O2A C11A 1_555 1_555
O3A H1A 1_555 1_555
C11A C12A 1_555 1_555
C12A C12 1_555 1_555
H10A C12A 1_555 1_555
Co1A O1A 1_555 1_555
N1A Co1A 1_555 1_555
N2A C1A 1_555 1_555
C1A H2A 1_555 1_555
C2A C1A 1_555 1_555
H3A C2A 1_555 1_555
C3A C2A 1_555 1_555
C4A C3A 1_555 1_555
H4A C4A 1_555 1_555
C5A N2A 1_555 1_555
H5A C5A 1_555 1_555
C6A N1A 1_555 1_555
H6A C6A 1_555 1_555
C7A C6A 1_555 1_555
H7A C7A 1_555 1_555
C8A C3A 1_555 1_555
C9A C8A 1_555 1_555
H8A C9A 1_555 1_555
C10A N1A 1_555 1_555
H9A C10A 1_555 1_555
F1A Co1A 1_555 1_555
Co1_2 N2 1_555 1_555
Co1A_2 N2A 1_555 1_555
Co1B O2A 1_555 1_555
Co1B_2 F1A 1_555 1_555
Co1C O2 1_555 1_555
Co1C_2 F1 1_555 1_555
O2B Co1A 1_555 1_555
O2C Co1 1_555 1_555
N2_2 Co1 1_555 1_555
N2A_2 Co1A 1_555 1_555
F1B Co1A 1_555 1_555
F1C Co1 1_555 1_555
C4 C5 1_555 1_555
C7 C8 1_555 1_555
C9 C10 1_555 1_555
O3A C12A 1_555 1_555
C4A C5A 1_555 1_555
C7A C8A 1_555 1_555
C9A C10A 1_555 1_555
Co1B F1B 1_555 1_555
Co1C F1C 1_555 1_555

#END
