
#######################################################################
#
#                 Cambridge Crystallographic Data Centre
#                                CCDC 
#
#######################################################################
#
# If this CIF has been generated from an entry in the Cambridge 
# Structural Database, then it will include bibliographic, chemical, 
# crystal, experimental, refinement or atomic coordinate data resulting 
# from the CCDC's data processing and validation procedures.
#
#######################################################################

data_RAKCUC
_chemical_formula_moiety         '(C74 H51 I6 N15 O6 Zn3)n'
_symmetry_cell_setting           orthorhombic
_symmetry_space_group_name_H-M   'P b c a'
_symmetry_Int_Tables_number      61
_space_group_name_Hall           '-P 2ac 2ab'
loop_
_symmetry_equiv_pos_site_id
_symmetry_equiv_pos_as_xyz
1 x,y,z
2 1/2-x,-y,1/2+z
3 -x,1/2+y,1/2-z
4 1/2+x,1/2-y,-z
5 -x,-y,-z
6 1/2+x,y,1/2-z
7 x,1/2-y,1/2+z
8 1/2-x,1/2+y,z
_cell_length_a                   28.253(3)
_cell_length_b                   13.8524(15)
_cell_length_c                   44.966(5)
_cell_angle_alpha                90
_cell_angle_beta                 90
_cell_angle_gamma                90
_cell_volume                     17598.4
loop_
_atom_site_label
_atom_site_type_symbol
_atom_site_fract_x
_atom_site_fract_y
_atom_site_fract_z
_atom_site_U_iso_or_equiv
_atom_site_thermal_displace_type
C1 C 0.0471(5) 0.0096(11) 0.5379(3) 0.0480 Uani
H1 H 0.0325 0.0436 0.5538 0.0580 Uiso
C2 C 0.0578(5) 0.0591(11) 0.5118(3) 0.0453 Uani
H2 H 0.0502 0.1256 0.5099 0.0540 Uiso
C3 C 0.0794(5) 0.0113(9) 0.4889(3) 0.0353 Uani
C4 C 0.0875(6) -0.0858(10) 0.4918(3) 0.0497 Uani
H3 H 0.1013 -0.1217 0.4760 0.0600 Uiso
C5 C 0.0749(6) -0.1312(10) 0.5186(3) 0.0537 Uani
H4 H 0.0798 -0.1988 0.5204 0.0640 Uiso
C6 C 0.0942(5) 0.0638(10) 0.4619(3) 0.0393 Uani
C7 C 0.0983(5) 0.2008(9) 0.4350(3) 0.0440 Uani
C8 C 0.1328(5) 0.0660(9) 0.4175(3) 0.0413 Uani
C9 C 0.0835(5) 0.3029(9) 0.4301(3) 0.0393 Uani
C10 C 0.0579(5) 0.3499(10) 0.4522(3) 0.0477 Uani
H5 H 0.0512 0.3183 0.4705 0.0580 Uiso
C11 C 0.0426(5) 0.4423(11) 0.4473(3) 0.0503 Uani
H6 H 0.0253 0.4742 0.4626 0.0600 Uiso
C12 C 0.0764(5) 0.4441(9) 0.4008(3) 0.0493 Uani
H7 H 0.0842 0.4778 0.3831 0.0590 Uiso
C13 C 0.0918(5) 0.3509(10) 0.4039(3) 0.0487 Uani
H8 H 0.1081 0.3197 0.3881 0.0590 Uiso
C14 C 0.1575(5) 0.0139(9) 0.3935(3) 0.0420 Uani
C15 C 0.1822(6) 0.0586(10) 0.3712(3) 0.0547 Uani
H9 H 0.1844 0.1270 0.3708 0.0650 Uiso
C16 C 0.2033(6) 0.0054(10) 0.3499(3) 0.0513 Uani
H10 H 0.2214 0.0377 0.3351 0.0610 Uiso
C17 C 0.1760(6) -0.1358(10) 0.3695(3) 0.0540 Uani
H11 H 0.1740 -0.2042 0.3690 0.0640 Uiso
C18 C 0.1538(6) -0.0879(11) 0.3920(3) 0.0610 Uani
H12 H 0.1361 -0.1223 0.4065 0.0730 Uiso
C19 C 0.3118(5) 0.0832(10) 0.7662(3) 0.0437 Uani
H13 H 0.3393 0.0989 0.7774 0.0520 Uiso
C20 C 0.3177(5) 0.0500(10) 0.7374(3) 0.0437 Uani
H14 H 0.3484 0.0439 0.7291 0.0520 Uiso
C21 C 0.2789(5) 0.0261(8) 0.7211(3) 0.0353 Uani
C22 C 0.2350(5) 0.0328(9) 0.7346(3) 0.0363 Uani
H15 H 0.2075 0.0136 0.7240 0.0430 Uiso
C23 C 0.2311(5) 0.0673(9) 0.7633(3) 0.0410 Uani
H16 H 0.2007 0.0722 0.7722 0.0490 Uiso
C24 C 0.2823(4) -0.0044(8) 0.6893(3) 0.0310 Uani
C25 C 0.3244(4) -0.0405(8) 0.6484(3) 0.0323 Uani
C26 C 0.2455(5) -0.0409(8) 0.6465(3) 0.0343 Uani
C27 C 0.3703(4) -0.0538(8) 0.6332(3) 0.0323 Uani
C28 C 0.4125(5) -0.0428(9) 0.6484(3) 0.0450 Uani
H17 H 0.4124 -0.0231 0.6687 0.0540 Uiso
C29 C 0.4554(5) -0.0610(9) 0.6338(3) 0.0457 Uani
H18 H 0.4843 -0.0535 0.6443 0.0550 Uiso
C30 C 0.4164(5) -0.0955(9) 0.5906(3) 0.0397 Uani
H19 H 0.4174 -0.1117 0.5701 0.0480 Uiso
C31 C 0.3723(5) -0.0799(9) 0.6038(3) 0.0390 Uani
H20 H 0.3441 -0.0874 0.5926 0.0470 Uiso
C32 C 0.1996(4) -0.0573(8) 0.6302(3) 0.0300 Uani
C33 C 0.1996(5) -0.0896(9) 0.6010(3) 0.0363 Uani
H21 H 0.2284 -0.0989 0.5905 0.0430 Uiso
C34 C 0.1563(5) -0.1078(9) 0.5875(3) 0.0373 Uani
H22 H 0.1562 -0.1303 0.5675 0.0450 Uiso
C35 C 0.1159(5) -0.0617(9) 0.6295(3) 0.0370 Uani
H23 H 0.0866 -0.0508 0.6393 0.0440 Uiso
C36 C 0.1565(5) -0.0431(8) 0.6441(3) 0.0363 Uani
H24 H 0.1555 -0.0201 0.6640 0.0430 Uiso
I1 I -0.01274(4) -0.05595(16) 0.61115(3) 0.1121 Uani
I2 I 0.06467(5) -0.32514(8) 0.57999(3) 0.0810 Uani
I3 I 0.19388(4) -0.33189(6) 0.31070(2) 0.0506 Uani
I4 I 0.32405(5) -0.17535(12) 0.33241(3) 0.0978 Uani
I5 I 0.06877(5) 0.70615(9) 0.37324(3) 0.0843 Uani
I6 I 0.00625(4) 0.70073(8) 0.46457(3) 0.0619 Uani
N1 N 0.0567(4) -0.0837(8) 0.5413(2) 0.0390 Uani
N2 N 0.0816(4) 0.1563(8) 0.4597(2) 0.0437 Uani
N3 N 0.1251(4) 0.1588(8) 0.4133(2) 0.0440 Uani
N4 N 0.1190(4) 0.0141(8) 0.4410(2) 0.0413 Uani
N5 N 0.0511(4) 0.4900(8) 0.4214(2) 0.0410 Uani
N6 N 0.2000(4) -0.0912(8) 0.3486(2) 0.0473 Uani
N7 N 0.2703(4) 0.0942(7) 0.7789(2) 0.0360 Uani
N8 N 0.3250(4) -0.0161(7) 0.6776(2) 0.0370 Uani
N9 N 0.2862(4) -0.0539(7) 0.6322(2) 0.0330 Uani
N10 N 0.2412(4) -0.0166(7) 0.6752(2) 0.0310 Uani
N11 N 0.4566(4) -0.0887(8) 0.6052(2) 0.0413 Uani
N12 N 0.1155(4) -0.0955(8) 0.6011(2) 0.0367 Uani
Zn1 Zn 0.05230(6) -0.14398(13) 0.58300(4) 0.0490 Uani
Zn2 Zn 0.23722(6) -0.17135(11) 0.31753(3) 0.0413 Uani
Zn3 Zn 0.02115(6) 0.62340(11) 0.41355(4) 0.0453 Uani
N7A N 0.2297(4) -0.0942(7) 0.2789(2) 0.0360 Uani
N11C N -0.0434(4) 0.5887(8) 0.3948(2) 0.0413 Uani
Zn2A Zn 0.26278(6) 0.17135(11) 0.81753(3) 0.0413 Uani
Zn3C Zn 0.52115(6) -0.12340(11) 0.58645(4) 0.0453 Uani
C37 C 0.0969(8) 0.3222(12) 0.1184(5) 0.0767 Uani
H25 H 0.0720 0.3358 0.1048 0.0920 Uiso
C38 C 0.0881(8) 0.2988(12) 0.1476(5) 0.0757 Uani
H26 H 0.0560 0.2956 0.1539 0.0910 Uiso
C39 C 0.1238(8) 0.2793(11) 0.1692(5) 0.0717 Uani
H27 H 0.1158 0.2633 0.1891 0.0860 Uiso
C40 C 0.1696(8) 0.2844(14) 0.1603(4) 0.0613 Uani
C41 C 0.1825(7) 0.3055(18) 0.1293(4) 0.0553 Uani
C42 C 0.1450(7) 0.3249(14) 0.1094(5) 0.0680 Uani
C43 C 0.1544(9) 0.3435(17) 0.0795(5) 0.0753 Uani
H28 H 0.1296 0.3543 0.0657 0.0900 Uiso
C44 C 0.2009(9) 0.3458(15) 0.0710(5) 0.0763 Uani
H29 H 0.2079 0.3587 0.0507 0.0920 Uiso
C45 C 0.2378(8) 0.3307(14) 0.0898(4) 0.0657 Uani
H30 H 0.2695 0.3323 0.0828 0.0790 Uiso
C46 C 0.2277(7) 0.3124(13) 0.1202(4) 0.0530 Uani
C47 C 0.2101(7) 0.2617(18) 0.1811(4) 0.0570 Uani
C48 C 0.2012(8) 0.233(2) 0.2103(5) 0.0663 Uani
H31 H 0.1692 0.2258 0.2164 0.0800 Uiso
C49 C 0.2373(8) 0.2127(17) 0.2316(5) 0.0643 Uani
H32 H 0.2302 0.1955 0.2515 0.0770 Uiso
C50 C 0.2827(8) 0.2197(17) 0.2216(4) 0.0590 Uani
H33 H 0.3075 0.2038 0.2350 0.0710 Uiso
C51 C 0.2953(7) 0.2504(14) 0.1915(4) 0.0513 Uani
C52 C 0.2577(8) 0.2701(16) 0.1715(4) 0.0563 Uani
C53 C 0.2686(8) 0.2959(12) 0.1421(4) 0.0513 Uani
C54 C 0.3156(8) 0.3088(19) 0.1347(5) 0.0610 Uani
H34 H 0.3228 0.3310 0.1152 0.0740 Uiso
C55 C 0.3517(8) 0.2917(14) 0.1534(4) 0.0607 Uani
H35 H 0.3836 0.3009 0.1473 0.0730 Uiso
C56 C 0.3406(7) 0.2594(14) 0.1826(5) 0.0653 Uani
H36 H 0.3655 0.2439 0.1960 0.0790 Uiso
C57 C 0.0704(10) 0.0299(19) 0.2686(4) 0.0920 Uiso
C58 C 0.0581(11) -0.0649(18) 0.2750(6) 0.1020 Uiso
H37 H 0.0456 -0.1054 0.2599 0.1220 Uiso
C59 C 0.0641(13) -0.1007(19) 0.3037(7) 0.1700 Uiso
H38 H 0.0557 -0.1655 0.3081 0.2070 Uiso
C60 C 0.0823(14) -0.041(3) 0.3259(5) 0.1440 Uiso
H39 H 0.0864 -0.0659 0.3454 0.1720 Uiso
C61 C 0.0946(12) 0.053(3) 0.3194(5) 0.1440 Uiso
H40 H 0.1070 0.0938 0.3346 0.1730 Uiso
C62 C 0.0886(10) 0.0891(17) 0.2907(6) 0.0860 Uiso
H41 H 0.0970 0.1539 0.2863 0.1030 Uiso
N13 N 0.0658(12) 0.067(2) 0.2347(6) 0.1010 Uiso
O1 O 0.0420(12) 0.013(2) 0.2198(7) 0.1280 Uiso
O2 O 0.0796(18) 0.144(3) 0.2325(9) 0.1980 Uiso
C63 C 0.2424(16) 0.026(3) 0.4560(9) 0.1430 Uiso
C64 C 0.255(2) -0.058(3) 0.4410(12) 0.2200 Uiso
H42 H 0.2417 -0.1178 0.4470 0.2640 Uiso
C65 C 0.286(2) -0.054(3) 0.4173(11) 0.2000 Uiso
H43 H 0.2969 -0.1118 0.4084 0.2370 Uiso
C66 C 0.3025(19) 0.034(4) 0.4063(10) 0.1800 Uiso
H44 H 0.3201 0.0371 0.3883 0.2180 Uiso
C67 C 0.293(2) 0.118(3) 0.4220(12) 0.2000 Uiso
H45 H 0.3066 0.1777 0.4164 0.2370 Uiso
C68 C 0.262(2) 0.114(3) 0.4464(12) 0.2200 Uiso
H46 H 0.2534 0.1714 0.4566 0.2640 Uiso
N14 N 0.2066(13) 0.019(3) 0.4843(8) 0.1360 Uiso
O3 O 0.1996(17) -0.061(3) 0.4931(10) 0.2200 Uiso
O4 O 0.1956(11) 0.094(2) 0.4933(6) 0.1280 Uiso
C69 C 0.1692(12) -0.0417(18) 0.0253(6) 0.1990 Uiso
C70 C 0.2096(10) 0.008(3) 0.0344(7) 0.1990 Uiso
H47 H 0.2365 -0.0273 0.0411 0.2390 Uiso
C71 C 0.2105(12) 0.108(3) 0.0337(8) 0.1990 Uiso
H48 H 0.2381 0.1416 0.0399 0.2390 Uiso
C72 C 0.1712(15) 0.1589(18) 0.0238(8) 0.1990 Uiso
H49 H 0.1718 0.2275 0.0233 0.2390 Uiso
C73 C 0.1308(12) 0.110(2) 0.0147(8) 0.1990 Uiso
H50 H 0.1039 0.1445 0.0080 0.2390 Uiso
C74 C 0.1299(10) 0.009(2) 0.0155(7) 0.1990 Uiso
H51 H 0.1023 -0.0244 0.0093 0.2390 Uiso
N15 N 0.1722(11) -0.158(2) 0.0233(7) 0.1990 Uiso
O5 O 0.1997(13) -0.194(2) 0.0405(8) 0.1990 Uiso
O6 O 0.1487(13) -0.193(2) 0.0051(8) 0.1990 Uiso
loop_
_atom_site_aniso_label
_atom_site_aniso_U_11
_atom_site_aniso_U_22
_atom_site_aniso_U_33
_atom_site_aniso_U_23
_atom_site_aniso_U_13
_atom_site_aniso_U_12
C1 0.049(9) 0.057(10) 0.038(8) -0.002(7) -0.007(7) 0.003(7)
C2 0.052(9) 0.051(8) 0.033(7) 0.006(7) -0.009(6) -0.007(7)
C3 0.044(8) 0.038(7) 0.024(6) -0.011(6) -0.011(6) 0.004(6)
C4 0.079(11) 0.039(8) 0.031(7) 0.000(6) 0.004(7) 0.007(8)
C5 0.085(12) 0.030(7) 0.046(9) -0.007(7) -0.004(8) 0.003(7)
C6 0.053(8) 0.042(8) 0.023(6) -0.001(6) -0.006(6) 0.010(7)
C7 0.052(9) 0.031(7) 0.049(9) -0.010(6) -0.008(7) -0.001(6)
C8 0.048(8) 0.031(7) 0.045(8) -0.007(6) 0.000(6) -0.005(6)
C9 0.050(8) 0.027(7) 0.041(8) -0.005(6) -0.012(6) -0.001(6)
C10 0.058(9) 0.038(8) 0.047(8) 0.010(7) -0.003(7) 0.012(7)
C11 0.054(9) 0.062(10) 0.035(8) -0.006(7) 0.000(7) 0.021(8)
C12 0.062(10) 0.026(7) 0.060(9) 0.006(7) 0.013(8) 0.002(7)
C13 0.067(10) 0.036(8) 0.043(8) -0.011(7) 0.006(7) 0.015(7)
C14 0.064(9) 0.021(7) 0.041(8) -0.005(6) 0.001(7) 0.007(6)
C15 0.082(11) 0.022(7) 0.060(10) -0.002(7) 0.022(8) 0.006(7)
C16 0.066(10) 0.031(8) 0.057(9) 0.008(7) 0.020(8) -0.002(7)
C17 0.086(12) 0.035(8) 0.041(8) -0.005(7) 0.015(8) -0.018(8)
C18 0.100(13) 0.044(9) 0.039(8) -0.008(7) 0.026(8) -0.013(9)
C19 0.047 0.044 0.04 -0.004 -0.013 0.01
C20 0.039 0.05 0.042 0.006 -0.007 0.011
C21 0.056 0.02 0.03 0.006 0.006 0.007
C22 0.053 0.028 0.028 0.002 -0.009 -0.004
C23 0.047 0.026 0.05 0.004 0.001 -0.002
C24 0.041 0.016 0.036 0.006 -0.005 0.001
C25 0.043 0.021 0.033 0.012 -0.008 -0.007
C26 0.046 0.015 0.042 -0.001 -0.008 0.002
C27 0.043 0.018 0.036 0.013 -0.002 -0.004
C28 0.059 0.037 0.039 -0.005 0.002 -0.008
C29 0.034 0.033 0.07 0.003 -0.014 -0.012
C30 0.047 0.033 0.039 -0.005 -0.001 -0.002
C31 0.035 0.032 0.05 -0.001 -0.004 0
C32 0.04 0.016 0.034 0.009 -0.009 -0.003
C33 0.045 0.04 0.024 0.002 0.004 -0.005
C34 0.039 0.035 0.038 0.001 -0.006 -0.006
C35 0.041 0.029 0.041 0.006 -0.003 0.005
C36 0.048 0.024 0.037 0 -0.007 -0.001
I1 0.0420(7) 0.233(2) 0.0612(8) -0.0416(10) 0.0045(6) 0.0029(9)
I2 0.1029(10) 0.0524(7) 0.0878(9) 0.0246(6) -0.0325(7) -0.0314(7)
I3 0.0751(7) 0.0310(5) 0.0458(5) -0.0029(4) 0.0089(5) 0.0039(5)
I4 0.0632(8) 0.1238(12) 0.1065(11) 0.0624(10) -0.0259(7) -0.0186(8)
I5 0.0788 0.0542 0.1198 0.0145 0.0362 -0.0092
I6 0.0643 0.0494 0.0721 -0.0259 -0.0024 0.0035
N1 0.042(6) 0.043(7) 0.032(6) 0.003(5) -0.005(5) 0.006(5)
N2 0.061(8) 0.037(6) 0.033(6) -0.003(5) 0.004(5) 0.010(6)
N3 0.046(7) 0.037(7) 0.049(7) -0.009(5) 0.003(6) -0.008(5)
N4 0.050(7) 0.041(6) 0.033(6) -0.007(5) 0.001(5) 0.004(5)
N5 0.043(7) 0.035(6) 0.045(7) -0.011(5) -0.017(5) 0.003(5)
N6 0.067(8) 0.039(7) 0.036(6) 0.000(5) 0.011(6) -0.009(6)
N7 0.053 0.024 0.031 0.004 0.001 0.008
N8 0.053 0.026 0.032 0.012 -0.004 -0.003
N9 0.046 0.016 0.037 0 -0.003 -0.003
N10 0.039 0.026 0.028 0.001 -0.007 -0.005
N11 0.05 0.039 0.035 -0.01 -0.002 -0.009
N12 0.043 0.038 0.029 0.013 -0.007 -0.008
Zn1 0.0459(10) 0.0638(11) 0.0373(9) 0.0053(8) -0.0051(7) -0.0106(8)
Zn2 0.0530(10) 0.0355(8) 0.0353(8) 0.0024(7) 0.0068(7) 0.0049(7)
Zn3 0.0416 0.0356 0.0588 -0.0035 0.0015 0.0046
N7A 0.053(7) 0.024(5) 0.031(6) -0.004(4) -0.001(5) 0.008(5)
N11C 0.05 0.039 0.035 -0.01 0.002 0.009
Zn2A 0.053 0.0355 0.0353 -0.0024 -0.0068 0.0049
Zn3C 0.0416 0.0356 0.0588 -0.0035 -0.0015 -0.0046
C37 0.090(8) 0.025(11) 0.115(12) -0.007(13) -0.030(10) -0.006(10)
C38 0.082(10) 0.033(11) 0.112(12) -0.015(12) -0.017(9) -0.013(11)
C39 0.081(8) 0.041(11) 0.093(11) -0.020(11) -0.006(7) -0.011(11)
C40 0.083(7) 0.030(9) 0.071(8) -0.017(9) -0.007(6) -0.006(9)
C41 0.085(7) 0.012(8) 0.069(7) -0.006(8) -0.014(6) -0.001(9)
C42 0.091(8) 0.024(8) 0.089(9) -0.002(9) -0.028(7) -0.018(10)
C43 0.110(11) 0.032(10) 0.084(9) 0.002(11) -0.038(9) -0.002(13)
C44 0.122(12) 0.041(11) 0.066(10) 0.006(10) -0.023(8) 0.001(13)
C45 0.103(11) 0.030(10) 0.064(8) 0.000(9) -0.011(7) 0.006(10)
C46 0.086(7) 0.015(8) 0.058(7) -0.012(8) -0.014(6) -0.003(9)
C47 0.088(7) 0.023(9) 0.060(7) -0.021(8) -0.009(6) 0.002(10)
C48 0.095(10) 0.032(10) 0.072(9) -0.014(9) -0.008(7) 0.002(10)
C49 0.092(12) 0.031(10) 0.070(10) -0.002(9) -0.003(8) 0.014(11)
C50 0.093(10) 0.036(10) 0.048(8) -0.020(9) -0.006(8) 0.006(11)
C51 0.089(8) 0.022(9) 0.043(8) -0.020(8) -0.014(6) 0.002(9)
C52 0.087(7) 0.029(9) 0.053(7) -0.024(8) -0.011(6) 0.011(11)
C53 0.084(7) 0.017(7) 0.053(7) -0.025(7) -0.013(6) 0.008(8)
C54 0.088(8) 0.031(10) 0.064(10) -0.025(9) -0.003(7) 0.000(10)
C55 0.071(9) 0.030(10) 0.081(10) -0.026(9) 0.003(8) -0.006(10)
C56 0.086(8) 0.041(10) 0.069(9) -0.023(9) -0.002(8) 0.006(10)
loop_
_geom_bond_atom_site_label_1
_geom_bond_atom_site_label_2
_geom_bond_site_symmetry_1
_geom_bond_site_symmetry_2
C1 H1 1_555 1_555
C2 C1 1_555 1_555
H2 C2 1_555 1_555
C3 C2 1_555 1_555
C4 C3 1_555 1_555
H3 C4 1_555 1_555
C5 C4 1_555 1_555
H4 C5 1_555 1_555
C6 C3 1_555 1_555
C7 C9 1_555 1_555
C8 C14 1_555 1_555
C9 C10 1_555 1_555
C10 H5 1_555 1_555
C11 C10 1_555 1_555
H6 C11 1_555 1_555
C12 H7 1_555 1_555
C13 C9 1_555 1_555
H8 C13 1_555 1_555
C14 C15 1_555 1_555
C15 H9 1_555 1_555
C16 C15 1_555 1_555
H10 C16 1_555 1_555
C17 H11 1_555 1_555
C18 C14 1_555 1_555
H12 C18 1_555 1_555
C19 H13 1_555 1_555
C20 C19 1_555 1_555
H14 C20 1_555 1_555
C21 C20 1_555 1_555
C22 C21 1_555 1_555
H15 C22 1_555 1_555
C23 C22 1_555 1_555
H16 C23 1_555 1_555
C24 C21 1_555 1_555
C25 C27 1_555 1_555
C26 C32 1_555 1_555
C27 C28 1_555 1_555
C28 H17 1_555 1_555
C29 C28 1_555 1_555
H18 C29 1_555 1_555
C30 H19 1_555 1_555
C31 C27 1_555 1_555
H20 C31 1_555 1_555
C32 C33 1_555 1_555
C33 H21 1_555 1_555
C34 C33 1_555 1_555
H22 C34 1_555 1_555
C35 H23 1_555 1_555
C36 C32 1_555 1_555
H24 C36 1_555 1_555
I1 Zn1 1_555 1_555
I2 Zn1 1_555 1_555
I3 Zn2 1_555 1_555
I4 Zn2 1_555 1_555
I5 Zn3 1_555 1_555
I6 Zn3 1_555 1_555
N1 C1 1_555 1_555
N2 C6 1_555 1_555
N3 C7 1_555 1_555
N4 C6 1_555 1_555
N5 C11 1_555 1_555
N6 C16 1_555 1_555
N7 C19 1_555 1_555
N8 C24 1_555 1_555
N9 C25 1_555 1_555
N10 C24 1_555 1_555
N11 C29 1_555 1_555
N12 C34 1_555 1_555
Zn1 N1 1_555 1_555
Zn2 N6 1_555 1_555
Zn3 N5 1_555 1_555
C37 H25 1_555 1_555
C38 C37 1_555 1_555
H26 C38 1_555 1_555
C39 C38 1_555 1_555
H27 C39 1_555 1_555
C40 C39 1_555 1_555
C41 C40 1_555 1_555
C42 C37 1_555 1_555
C43 C42 1_555 1_555
H28 C43 1_555 1_555
C44 C43 1_555 1_555
H29 C44 1_555 1_555
C45 C44 1_555 1_555
H30 C45 1_555 1_555
C46 C41 1_555 1_555
C47 C40 1_555 1_555
C48 C47 1_555 1_555
H31 C48 1_555 1_555
C49 C48 1_555 1_555
H32 C49 1_555 1_555
C50 C49 1_555 1_555
H33 C50 1_555 1_555
C51 C50 1_555 1_555
C52 C47 1_555 1_555
C53 C46 1_555 1_555
C54 C53 1_555 1_555
H34 C54 1_555 1_555
C55 C54 1_555 1_555
H35 C55 1_555 1_555
C56 C51 1_555 1_555
H36 C56 1_555 1_555
C57 C58 1_555 1_555
C58 H37 1_555 1_555
C59 C58 1_555 1_555
H38 C59 1_555 1_555
C60 C59 1_555 1_555
H39 C60 1_555 1_555
C61 C60 1_555 1_555
H40 C61 1_555 1_555
C62 C57 1_555 1_555
H41 C62 1_555 1_555
N13 C57 1_555 1_555
O1 N13 1_555 1_555
O2 N13 1_555 1_555
C63 C64 1_555 1_555
C64 H42 1_555 1_555
C65 C64 1_555 1_555
H43 C65 1_555 1_555
C66 C65 1_555 1_555
H44 C66 1_555 1_555
C67 C66 1_555 1_555
H45 C67 1_555 1_555
C68 C63 1_555 1_555
H46 C68 1_555 1_555
N14 C63 1_555 1_555
O3 N14 1_555 1_555
O4 N14 1_555 1_555
C69 C70 1_555 1_555
C70 H47 1_555 1_555
C71 C70 1_555 1_555
H48 C71 1_555 1_555
C72 C71 1_555 1_555
H49 C72 1_555 1_555
C73 C72 1_555 1_555
H50 C73 1_555 1_555
C74 C69 1_555 1_555
H51 C74 1_555 1_555
N15 C69 1_555 1_555
O5 N15 1_555 1_555
O6 N15 1_555 1_555
N7A Zn2 1_555 1_555
N11C Zn3 1_555 1_555
Zn2A N7 1_555 1_555
Zn3C N11 1_555 1_555
C5 N1 1_555 1_555
C7 N2 1_555 1_555
C8 N3 1_555 1_555
C8 N4 1_555 1_555
C12 C13 1_555 1_555
C12 N5 1_555 1_555
C17 C18 1_555 1_555
C17 N6 1_555 1_555
C23 N7 1_555 1_555
C25 N8 1_555 1_555
C26 N9 1_555 1_555
C26 N10 1_555 1_555
C30 C31 1_555 1_555
C30 N11 1_555 1_555
C35 C36 1_555 1_555
C35 N12 1_555 1_555
N12 Zn1 1_555 1_555
C41 C42 1_555 1_555
C45 C46 1_555 1_555
C51 C52 1_555 1_555
C52 C53 1_555 1_555
C55 C56 1_555 1_555
C61 C62 1_555 1_555
C67 C68 1_555 1_555
C73 C74 1_555 1_555

#END
