
#######################################################################
#
#                 Cambridge Crystallographic Data Centre
#                                CCDC 
#
#######################################################################
#
# If this CIF has been generated from an entry in the Cambridge 
# Structural Database, then it will include bibliographic, chemical, 
# crystal, experimental, refinement or atomic coordinate data resulting 
# from the CCDC's data processing and validation procedures.
#
#######################################################################

data_RAKDEN
_chemical_formula_moiety         '(C82 H64 I6 N12 Zn3)n'
_symmetry_cell_setting           orthorhombic
_symmetry_space_group_name_H-M   'P b c a'
_symmetry_Int_Tables_number      61
_space_group_name_Hall           '-P 2ac 2ab'
loop_
_symmetry_equiv_pos_site_id
_symmetry_equiv_pos_as_xyz
1 x,y,z
2 1/2-x,-y,1/2+z
3 -x,1/2+y,1/2-z
4 1/2+x,1/2-y,-z
5 -x,-y,-z
6 1/2+x,y,1/2-z
7 x,1/2-y,1/2+z
8 1/2-x,1/2+y,z
_cell_length_a                   28.519(2)
_cell_length_b                   13.8219(11)
_cell_length_c                   44.097(3)
_cell_angle_alpha                90
_cell_angle_beta                 90
_cell_angle_gamma                90
_cell_volume                     17382.5
loop_
_atom_site_label
_atom_site_type_symbol
_atom_site_fract_x
_atom_site_fract_y
_atom_site_fract_z
C21 C 0.2029(5) -0.0137(11) 0.4903(3)
H13 H 0.2040 -0.0771 0.4986
C22 C 0.1783(5) 0.0589(14) 0.5053(3)
H14 H 0.1628 0.0451 0.5239
C23 C 0.1766(5) 0.1516(13) 0.4932(4)
H15 H 0.1598 0.2012 0.5035
C24 C 0.1994(6) 0.1718(10) 0.4661(4)
H16 H 0.1982 0.2352 0.4578
C25 C 0.2239(5) 0.0993(11) 0.4511(3)
C26 C 0.2256(5) 0.0065(10) 0.4632(3)
C27 C 0.2501(7) -0.0660(12) 0.4482(4)
H17 H 0.2513 -0.1294 0.4565
C28 C 0.2729(8) -0.0458(18) 0.4211(5)
H18 H 0.2897 -0.0954 0.4108
C29 C 0.2712(9) 0.047(2) 0.4089(4)
H19 H 0.2868 0.0607 0.3904
C30 C 0.2467(8) 0.1195(16) 0.4239(4)
H20 H 0.2455 0.1828 0.4156
C31 C 0.4068(9) 0.717(3) 0.2732(7)
H21 H 0.3890 0.7172 0.2914
C32 C 0.4246(12) 0.630(3) 0.2621(10)
H22 H 0.4190 0.5712 0.2728
C33 C 0.4506(11) 0.629(3) 0.2355(10)
H23 H 0.4628 0.5694 0.2279
C34 C 0.4588(8) 0.714(3) 0.2199(7)
H24 H 0.4766 0.7137 0.2016
C35 C 0.4410(6) 0.801(3) 0.2309(5)
C36 C 0.4150(6) 0.802(3) 0.2576(5)
C37 C 0.3972(8) 0.889(3) 0.2686(7)
H25 H 0.3795 0.8897 0.2868
C38 C 0.4054(10) 0.975(3) 0.2530(10)
H26 H 0.3933 1.0339 0.2605
C39 C 0.4314(11) 0.974(3) 0.2263(9)
H27 H 0.4371 1.0321 0.2156
C40 C 0.4492(9) 0.887(3) 0.2153(6)
H28 H 0.4670 0.8861 0.1971
C41 C 0.3296(6) 0.5402(15) 0.0231(4)
H29 H 0.2986 0.5543 0.0139
H30 H 0.3380 0.5940 0.0368
C42 C 0.3279(8) 0.4422(15) 0.0409(5)
H31 H 0.3017 0.4457 0.0556
H32 H 0.3573 0.4362 0.0527
C43 C 0.3215(7) 0.3458(16) 0.0212(4)
H33 H 0.3245 0.2883 0.0345
H34 H 0.2899 0.3449 0.0119
C44 C 0.3583(6) 0.3425(14) -0.0033(4)
H35 H 0.3530 0.2842 -0.0159
H36 H 0.3895 0.3356 0.0064
C45 C 0.3594(6) 0.431(2) -0.0240(5)
H37 H 0.3297 0.4358 -0.0355
H38 H 0.3857 0.4254 -0.0387
C46 C 0.3667(8) 0.528(2) -0.0016(7)
H39 H 0.3979 0.5239 0.0082
H40 H 0.3666 0.5869 -0.0144
C47 C 0.0434(3) 0.0173(6) 0.5461(2)
H41 H 0.0322 0.0562 0.5623
C48 C 0.0521(3) 0.0609(6) 0.5187(2)
H42 H 0.0478 0.1286 0.5163
C49 C 0.0673(3) 0.0041(6) 0.4944(2)
C50 C 0.0719(3) -0.0951(6) 0.4991(2)
H43 H 0.0815 -0.1365 0.4831
C51 C 0.0623(3) -0.1323(6) 0.5274(2)
H44 H 0.0647 -0.2003 0.5302
C52 C 0.0802(3) 0.0499(5) 0.4654(2)
C53 C 0.0861(3) 0.1824(6) 0.4364(2)
C54 C 0.1181(3) 0.0434(6) 0.4207(2)
C55 C 0.0732(3) 0.2854(6) 0.4307(2)
C56 C 0.0492(3) 0.3394(6) 0.4526(2)
H45 H 0.0418 0.3120 0.4718
C57 C 0.0365(3) 0.4341(6) 0.4457(2)
H46 H 0.0205 0.4710 0.4607
C58 C 0.0693(3) 0.4233(6) 0.3990(2)
H47 H 0.0771 0.4534 0.3803
C59 C 0.0833(3) 0.3295(6) 0.4032(2)
H48 H 0.0995 0.2955 0.3876
C60 C 0.1435(3) -0.0128(5) 0.3972(2)
C61 C 0.1661(4) 0.0312(7) 0.3736(2)
H49 H 0.1645 0.0995 0.3713
C62 C 0.1909(4) -0.0230(7) 0.3533(2)
H50 H 0.2070 0.0093 0.3374
C63 C 0.1704(3) -0.1634(6) 0.3771(2)
H51 H 0.1711 -0.2320 0.3781
C64 C 0.1454(3) -0.1130(6) 0.3989(2)
H52 H 0.1298 -0.1465 0.4148
C65 C 0.3138(3) 0.1120(6) 0.7732(2)
H53 H 0.3411 0.1300 0.7841
C66 C 0.3191(3) 0.0767(6) 0.7441(2)
H54 H 0.3494 0.0702 0.7354
C67 C 0.2802(3) 0.0513(6) 0.72792(19)
C68 C 0.2365(3) 0.0585(6) 0.74203(19)
H55 H 0.2089 0.0403 0.7315
C69 C 0.2338(3) 0.0926(6) 0.7715(2)
H56 H 0.2041 0.0950 0.7813
C70 C 0.2825(3) 0.0207(5) 0.69589(19)
C71 C 0.3232(3) -0.0173(5) 0.65396(19)
C72 C 0.2441(3) -0.0156(5) 0.65215(18)
C73 C 0.3688(3) -0.0329(6) 0.63839(19)
C74 C 0.4109(3) -0.0213(6) 0.6537(2)
H57 H 0.4112 0.0002 0.6741
C75 C 0.4523(3) -0.0414(6) 0.6388(2)
H58 H 0.4809 -0.0341 0.6496
C76 C 0.4134(3) -0.0792(6) 0.5948(2)
H59 H 0.4144 -0.0984 0.5741
C77 C 0.3701(3) -0.0611(6) 0.60811(19)
H60 H 0.3420 -0.0678 0.5968
C78 C 0.1993(3) -0.0323(5) 0.6361(2)
C79 C 0.1969(3) -0.0638(6) 0.6067(2)
H61 H 0.2245 -0.0714 0.5949
C80 C 0.1531(3) -0.0842(6) 0.5948(2)
H62 H 0.1515 -0.1080 0.5746
C81 C 0.1157(3) -0.0364(6) 0.6379(2)
H63 H 0.0873 -0.0236 0.6484
C82 C 0.1576(3) -0.0170(6) 0.6521(2)
H64 H 0.1582 0.0063 0.6724
N1 N 0.0499(2) -0.0776(5) 0.55107(18)
N2 N 0.0697(2) 0.1438(5) 0.46181(18)
N3 N 0.1112(2) 0.1372(5) 0.41542(18)
N4 N 0.1028(2) -0.0048(5) 0.44499(17)
N5 N 0.0458(2) 0.4752(5) 0.41915(18)
N6 N 0.1937(3) -0.1191(5) 0.35490(17)
N7 N 0.2719(2) 0.1220(5) 0.78662(16)
N8 N 0.3241(2) 0.0079(4) 0.68328(16)
N9 N 0.2841(2) -0.0292(4) 0.63700(15)
N10 N 0.2412(2) 0.0101(4) 0.68134(16)
N11 N 0.4540(2) -0.0706(5) 0.61012(16)
N12 N 0.1135(2) -0.0726(5) 0.60984(17)
I1 I -0.01295(2) -0.03828(7) 0.62480(2)
I2 I 0.06356(2) -0.30886(5) 0.593804(19)
I3 I 0.20059(3) -0.36612(5) 0.318669(16)
I4 I 0.32020(3) -0.18562(6) 0.34374(2)
I5 I 0.06402(2) 0.68340(5) 0.36593(2)
I6 I 0.00176(2) 0.69499(5) 0.459220(17)
Zn1 Zn 0.04950(3) -0.12772(8) 0.59502(3)
Zn2 Zn 0.23548(4) -0.19843(8) 0.32644(2)
Zn3 Zn 0.01788(3) 0.60843(7) 0.40890(3)
N7A N 0.2281(2) -0.1220(5) 0.28662(16)
N11C N -0.0460(2) 0.5706(5) 0.38988(16)
Zn2A Zn 0.26452(4) 0.19843(8) 0.82644(2)
Zn3C Zn 0.51788(3) -0.10843(7) 0.59110(3)
C1 C 0.3360(5) 0.2317(8) 0.1945(3)
H1 H 0.3584 0.2169 0.2098
C2 C 0.3500(5) 0.2621(8) 0.1657(3)
H2 H 0.3826 0.2695 0.1617
C3 C 0.3180(4) 0.2821(8) 0.1425(3)
H3 H 0.3290 0.3021 0.1231
C4 C 0.2712(4) 0.2731(7) 0.1474(3)
C5 C 0.2543(5) 0.2458(6) 0.1769(3)
C6 C 0.2888(5) 0.2237(7) 0.2002(3)
C7 C 0.2731(6) 0.1945(7) 0.2286(3)
H4 H 0.2955 0.1768 0.2435
C8 C 0.2259(7) 0.1901(8) 0.2360(3)
H5 H 0.2157 0.1715 0.2557
C9 C 0.1939(6) 0.2144(8) 0.2131(3)
H6 H 0.1613 0.2124 0.2176
C10 C 0.2075(5) 0.2408(6) 0.1847(3)
C11 C 0.1715(5) 0.2661(7) 0.1607(3)
C12 C 0.1251(5) 0.2651(9) 0.1662(4)
H7 H 0.1148 0.2492 0.1861
C13 C 0.0908(5) 0.2863(8) 0.1441(4)
H8 H 0.0586 0.2889 0.1495
C14 C 0.1051(6) 0.3035(8) 0.1141(4)
H9 H 0.0823 0.3148 0.0987
C15 C 0.1547(5) 0.3038(7) 0.1065(3)
C16 C 0.1862(5) 0.2851(7) 0.1306(3)
C17 C 0.2355(5) 0.2889(7) 0.1245(3)
C18 C 0.2501(6) 0.3048(9) 0.0949(3)
H10 H 0.2826 0.3042 0.0902
C19 C 0.2173(7) 0.3220(11) 0.0718(3)
H11 H 0.2279 0.3347 0.0518
C20 C 0.1692(7) 0.3205(10) 0.0780(4)
H12 H 0.1471 0.3311 0.0623
loop_
_geom_bond_atom_site_label_1
_geom_bond_atom_site_label_2
_geom_bond_site_symmetry_1
_geom_bond_site_symmetry_2
C1 H1 1_555 1_555
C2 C1 1_555 1_555
H2 C2 1_555 1_555
C3 C2 1_555 1_555
H3 C3 1_555 1_555
C4 C3 1_555 1_555
C5 C4 1_555 1_555
C6 C1 1_555 1_555
C7 C6 1_555 1_555
H4 C7 1_555 1_555
C8 C7 1_555 1_555
H5 C8 1_555 1_555
C9 C8 1_555 1_555
H6 C9 1_555 1_555
C10 C5 1_555 1_555
C11 C10 1_555 1_555
C12 C11 1_555 1_555
H7 C12 1_555 1_555
C13 C12 1_555 1_555
H8 C13 1_555 1_555
C14 C13 1_555 1_555
H9 C14 1_555 1_555
C15 C14 1_555 1_555
C16 C11 1_555 1_555
C17 C4 1_555 1_555
C18 C17 1_555 1_555
H10 C18 1_555 1_555
C19 C18 1_555 1_555
H11 C19 1_555 1_555
C20 C15 1_555 1_555
H12 C20 1_555 1_555
C21 H13 1_555 1_555
C22 C21 1_555 1_555
H14 C22 1_555 1_555
C23 C22 1_555 1_555
H15 C23 1_555 1_555
C24 C23 1_555 1_555
H16 C24 1_555 1_555
C25 C24 1_555 1_555
C26 C21 1_555 1_555
C27 C26 1_555 1_555
H17 C27 1_555 1_555
C28 C27 1_555 1_555
H18 C28 1_555 1_555
C29 C28 1_555 1_555
H19 C29 1_555 1_555
C30 C25 1_555 1_555
H20 C30 1_555 1_555
C31 H21 1_555 1_555
C32 C31 1_555 1_555
H22 C32 1_555 1_555
C33 C32 1_555 1_555
H23 C33 1_555 1_555
C34 C33 1_555 1_555
H24 C34 1_555 1_555
C35 C34 1_555 1_555
C36 C31 1_555 1_555
C37 C36 1_555 1_555
H25 C37 1_555 1_555
C38 C37 1_555 1_555
H26 C38 1_555 1_555
C39 C38 1_555 1_555
H27 C39 1_555 1_555
C40 C35 1_555 1_555
H28 C40 1_555 1_555
C41 H29 1_555 1_555
H30 C41 1_555 1_555
C42 C41 1_555 1_555
H31 C42 1_555 1_555
H32 C42 1_555 1_555
C43 C42 1_555 1_555
H33 C43 1_555 1_555
H34 C43 1_555 1_555
C44 C43 1_555 1_555
H35 C44 1_555 1_555
H36 C44 1_555 1_555
C45 C44 1_555 1_555
H37 C45 1_555 1_555
H38 C45 1_555 1_555
C46 C41 1_555 1_555
H39 C46 1_555 1_555
H40 C46 1_555 1_555
C47 H41 1_555 1_555
C48 C47 1_555 1_555
H42 C48 1_555 1_555
C49 C48 1_555 1_555
C50 C49 1_555 1_555
H43 C50 1_555 1_555
C51 C50 1_555 1_555
H44 C51 1_555 1_555
C52 C49 1_555 1_555
C53 C55 1_555 1_555
C54 C60 1_555 1_555
C55 C56 1_555 1_555
C56 H45 1_555 1_555
C57 C56 1_555 1_555
H46 C57 1_555 1_555
C58 H47 1_555 1_555
C59 C55 1_555 1_555
H48 C59 1_555 1_555
C60 C61 1_555 1_555
C61 H49 1_555 1_555
C62 C61 1_555 1_555
H50 C62 1_555 1_555
C63 H51 1_555 1_555
C64 C60 1_555 1_555
H52 C64 1_555 1_555
C65 H53 1_555 1_555
C66 C65 1_555 1_555
H54 C66 1_555 1_555
C67 C66 1_555 1_555
C68 C67 1_555 1_555
H55 C68 1_555 1_555
C69 C68 1_555 1_555
H56 C69 1_555 1_555
C70 C67 1_555 1_555
C71 C73 1_555 1_555
C72 C78 1_555 1_555
C73 C74 1_555 1_555
C74 H57 1_555 1_555
C75 C74 1_555 1_555
H58 C75 1_555 1_555
C76 H59 1_555 1_555
C77 C73 1_555 1_555
H60 C77 1_555 1_555
C78 C79 1_555 1_555
C79 H61 1_555 1_555
C80 C79 1_555 1_555
H62 C80 1_555 1_555
C81 H63 1_555 1_555
C82 C78 1_555 1_555
H64 C82 1_555 1_555
N1 C47 1_555 1_555
N2 C52 1_555 1_555
N3 C53 1_555 1_555
N4 C52 1_555 1_555
N5 C57 1_555 1_555
N6 C62 1_555 1_555
N7 C65 1_555 1_555
N8 C70 1_555 1_555
N9 C71 1_555 1_555
N10 C70 1_555 1_555
N11 C75 1_555 1_555
N12 C80 1_555 1_555
I1 Zn1 1_555 1_555
I2 Zn1 1_555 1_555
I3 Zn2 1_555 1_555
I4 Zn2 1_555 1_555
I5 Zn3 1_555 1_555
I6 Zn3 1_555 1_555
Zn1 N1 1_555 1_555
Zn2 N6 1_555 1_555
Zn3 N5 1_555 1_555
N7A Zn2 1_555 1_555
N11C Zn3 1_555 1_555
Zn2A N7 1_555 1_555
Zn3C N11 1_555 1_555
C5 C6 1_555 1_555
C9 C10 1_555 1_555
C15 C16 1_555 1_555
C16 C17 1_555 1_555
C19 C20 1_555 1_555
C25 C26 1_555 1_555
C29 C30 1_555 1_555
C35 C36 1_555 1_555
C39 C40 1_555 1_555
C45 C46 1_555 1_555
C51 N1 1_555 1_555
C53 N2 1_555 1_555
C54 N3 1_555 1_555
C54 N4 1_555 1_555
C58 C59 1_555 1_555
C58 N5 1_555 1_555
C63 C64 1_555 1_555
C63 N6 1_555 1_555
C69 N7 1_555 1_555
C71 N8 1_555 1_555
C72 N9 1_555 1_555
C72 N10 1_555 1_555
C76 C77 1_555 1_555
C76 N11 1_555 1_555
C81 C82 1_555 1_555
C81 N12 1_555 1_555
N12 Zn1 1_555 1_555

#END
