
#######################################################################
#
#                 Cambridge Crystallographic Data Centre
#                                CCDC 
#
#######################################################################
#
# If this CIF has been generated from an entry in the Cambridge 
# Structural Database, then it will include bibliographic, chemical, 
# crystal, experimental, refinement or atomic coordinate data resulting 
# from the CCDC's data processing and validation procedures.
#
#######################################################################

data_RAKDAJ
_chemical_formula_moiety         '(C80 H77 I6 N13 O2 Zn3)n'
_symmetry_cell_setting           orthorhombic
_symmetry_space_group_name_H-M   'P b c a'
_symmetry_Int_Tables_number      61
_space_group_name_Hall           '-P 2ac 2ab'
loop_
_symmetry_equiv_pos_site_id
_symmetry_equiv_pos_as_xyz
1 x,y,z
2 1/2-x,-y,1/2+z
3 -x,1/2+y,1/2-z
4 1/2+x,1/2-y,-z
5 -x,-y,-z
6 1/2+x,y,1/2-z
7 x,1/2-y,1/2+z
8 1/2-x,1/2+y,z
_cell_length_a                   27.865(3)
_cell_length_b                   13.7117(15)
_cell_length_c                   45.650(5)
_cell_angle_alpha                90
_cell_angle_beta                 90
_cell_angle_gamma                90
_cell_volume                     17441.8
loop_
_atom_site_label
_atom_site_type_symbol
_atom_site_fract_x
_atom_site_fract_y
_atom_site_fract_z
_atom_site_U_iso_or_equiv
_atom_site_thermal_displace_type
C1 C 0.0553(4) 0.0051(9) 0.5315(3) 0.0413 Uani
H1 H 0.0376 0.0344 0.5469 0.0500 Uiso
C2 C 0.0668(4) 0.0617(9) 0.5074(2) 0.0393 Uani
H2 H 0.0565 0.1276 0.5062 0.0470 Uiso
C3 C 0.0937(4) 0.0205(8) 0.4852(2) 0.0287 Uani
C4 C 0.1059(5) -0.0766(8) 0.4876(2) 0.0373 Uani
H3 H 0.1237 -0.1075 0.4725 0.0450 Uiso
C5 C 0.0922(5) -0.1288(8) 0.5122(2) 0.0397 Uani
H4 H 0.1007 -0.1957 0.5135 0.0480 Uiso
C6 C 0.1080(3) 0.0779(8) 0.4590(2) 0.0260 Uani
C7 C 0.1083(3) 0.2179(7) 0.4334(2) 0.0270 Uani
C8 C 0.1411(3) 0.0832(7) 0.4138(2) 0.0217 Uani
C9 C 0.0924(4) 0.3222(8) 0.4298(2) 0.0293 Uani
C10 C 0.0669(4) 0.3667(8) 0.4517(2) 0.0350 Uani
H5 H 0.0609 0.3343 0.4697 0.0420 Uiso
C11 C 0.0498(4) 0.4612(8) 0.4467(3) 0.0340 Uani
H6 H 0.0326 0.4932 0.4619 0.0410 Uiso
C12 C 0.0815(4) 0.4632(8) 0.4005(3) 0.0367 Uani
H7 H 0.0866 0.4966 0.3826 0.0440 Uiso
C13 C 0.1001(5) 0.3699(8) 0.4037(3) 0.0420 Uani
H8 H 0.1177 0.3399 0.3883 0.0500 Uiso
C14 C 0.1634(4) 0.0313(7) 0.3890(2) 0.0283 Uani
C15 C 0.1851(5) 0.0790(7) 0.3660(2) 0.0413 Uani
H9 H 0.1859 0.1483 0.3656 0.0500 Uiso
C16 C 0.2055(5) 0.0278(8) 0.3437(2) 0.0393 Uani
H10 H 0.2201 0.0627 0.3280 0.0480 Uiso
C17 C 0.1842(4) -0.1175(8) 0.3645(3) 0.0390 Uani
H11 H 0.1830 -0.1867 0.3641 0.0470 Uiso
C18 C 0.1630(4) -0.0675(7) 0.3881(2) 0.0343 Uani
H12 H 0.1482 -0.1033 0.4035 0.0410 Uiso
C19 C 0.3087(4) 0.0616(8) 0.7625(2) 0.0303 Uani
H13 H 0.3360 0.0793 0.7737 0.0370 Uiso
C20 C 0.3161(4) 0.0274(7) 0.7342(2) 0.0273 Uani
H14 H 0.3476 0.0223 0.7263 0.0330 Uiso
C21 C 0.2766(4) 0.0013(7) 0.7182(2) 0.0230 Uani
C22 C 0.2321(4) 0.0056(7) 0.7308(2) 0.0237 Uani
H15 H 0.2046 -0.0151 0.7202 0.0280 Uiso
C23 C 0.2277(4) 0.0407(6) 0.7594(2) 0.0217 Uani
H16 H 0.1969 0.0434 0.7683 0.0260 Uiso
C24 C 0.2813(4) -0.0297(6) 0.6867(2) 0.0197 Uani
C25 C 0.3265(3) -0.0642(6) 0.6471(2) 0.0210 Uani
C26 C 0.2451(3) -0.0671(6) 0.64396(19) 0.0200 Uani
C27 C 0.3736(3) -0.0765(7) 0.6328(2) 0.0220 Uani
C28 C 0.4156(4) -0.0708(9) 0.6484(3) 0.0397 Uani
H17 H 0.4152 -0.0562 0.6688 0.0480 Uiso
C29 C 0.4590(4) -0.0867(9) 0.6338(2) 0.0363 Uani
H18 H 0.4880 -0.0827 0.6447 0.0440 Uiso
C30 C 0.4210(4) -0.1114(7) 0.5902(2) 0.0280 Uani
H19 H 0.4225 -0.1248 0.5698 0.0340 Uiso
C31 C 0.3762(4) -0.0968(7) 0.6029(2) 0.0270 Uani
H20 H 0.3478 -0.1006 0.5914 0.0320 Uiso
C32 C 0.2017(3) -0.0839(6) 0.6267(2) 0.0197 Uani
C33 C 0.2041(4) -0.1146(7) 0.5975(2) 0.0270 Uani
H21 H 0.2341 -0.1224 0.5879 0.0320 Uiso
C34 C 0.1615(4) -0.1330(8) 0.5831(2) 0.0293 Uani
H22 H 0.1630 -0.1553 0.5634 0.0350 Uiso
C35 C 0.1164(3) -0.0881(7) 0.6227(2) 0.0220 Uani
H23 H 0.0858 -0.0761 0.6311 0.0270 Uiso
C36 C 0.1565(4) -0.0704(7) 0.6393(2) 0.0240 Uani
H24 H 0.1536 -0.0493 0.6591 0.0290 Uiso
I1 I -0.01155(3) -0.08201(9) 0.60026(2) 0.0645 Uani
I2 I 0.07129(4) -0.34390(7) 0.56378(2) 0.0622 Uani
I3 I 0.19586(3) -0.30816(5) 0.304491(17) 0.0380 Uani
I4 I 0.33090(3) -0.15654(7) 0.326081(18) 0.0460 Uani
I5 I 0.07341(4) 0.72880(6) 0.37407(3) 0.0644 Uani
I6 I 0.00899(3) 0.71916(6) 0.46423(2) 0.0516 Uani
N1 N 0.0676(3) -0.0886(7) 0.53413(18) 0.0310 Uani
N2 N 0.0960(3) 0.1719(6) 0.45777(17) 0.0277 Uani
N3 N 0.1319(3) 0.1787(6) 0.41068(18) 0.0240 Uani
N4 N 0.1301(3) 0.0296(6) 0.43711(18) 0.0273 Uani
N5 N 0.0568(3) 0.5079(6) 0.42161(19) 0.0273 Uani
N6 N 0.2059(3) -0.0709(5) 0.34281(18) 0.0250 Uani
N7 N 0.2663(3) 0.0709(6) 0.77457(17) 0.0250 Uani
N8 N 0.3256(3) -0.0394(5) 0.67544(17) 0.0197 Uani
N9 N 0.2878(3) -0.0791(5) 0.63077(17) 0.0190 Uani
N10 N 0.2405(3) -0.0425(5) 0.67194(16) 0.0177 Uani
N11 N 0.4618(3) -0.1075(6) 0.60513(19) 0.0277 Uani
N12 N 0.1185(3) -0.1214(6) 0.59512(17) 0.0223 Uani
Zn1 Zn 0.05678(5) -0.16265(10) 0.57289(3) 0.0352 Uani
Zn2 Zn 0.24251(4) -0.14999(8) 0.31245(2) 0.0263 Uani
Zn3 Zn 0.02628(4) 0.64309(9) 0.41430(3) 0.0320 Uani
N7A N 0.2337(3) -0.0709(6) 0.27457(17) 0.0250 Uani
N11C N -0.0382(3) 0.6075(6) 0.39487(19) 0.0277 Uani
Zn2A Zn 0.25749(4) 0.14999(8) 0.81245(2) 0.0263 Uani
Zn3C Zn 0.52628(4) -0.14309(9) 0.58570(3) 0.0320 Uani
C37 C 0.4237(8) 0.5599(16) 0.2719(5) 0.0670 Uiso
C38 C 0.4368(8) 0.4594(16) 0.2761(5) 0.0620 Uiso
H25 H 0.4445 0.4170 0.2604 0.0740 Uiso
C39 C 0.4371(8) 0.4299(17) 0.3050(5) 0.0620 Uiso
H26 H 0.4444 0.3637 0.3092 0.0740 Uiso
C40 C 0.4284(7) 0.4847(15) 0.3254(5) 0.0550 Uiso
H27 H 0.4298 0.4606 0.3449 0.0660 Uiso
C41 C 0.4165(8) 0.5808(16) 0.3206(5) 0.0640 Uiso
H28 H 0.4117 0.6226 0.3369 0.0760 Uiso
C42 C 0.4115(8) 0.6170(18) 0.2937(5) 0.0720 Uiso
H29 H 0.3997 0.6811 0.2904 0.0870 Uiso
N13 N 0.4231(10) 0.6026(16) 0.2389(6) 0.1180 Uiso
O1 O 0.4053(10) 0.6922(19) 0.2376(6) 0.1590 Uiso
O2 O 0.4353(9) 0.5324(19) 0.2200(5) 0.1380 Uiso
C43 C 0.5203(16) 0.399(3) 0.1758(10) 0.1180 Uiso
H30 H 0.5529 0.4212 0.1706 0.1420 Uiso
H31 H 0.5009 0.4568 0.1807 0.1420 Uiso
C44 C 0.4979(17) 0.348(3) 0.1486(8) 0.1200 Uiso
H32 H 0.4941 0.3966 0.1326 0.1450 Uiso
H33 H 0.5195 0.2961 0.1416 0.1450 Uiso
C45 C 0.4504(15) 0.306(4) 0.1560(10) 0.1500 Uiso
H34 H 0.4354 0.2757 0.1386 0.1830 Uiso
H35 H 0.4285 0.3567 0.1638 0.1830 Uiso
C46 C 0.4613(17) 0.230(3) 0.1793(10) 0.1180 Uiso
H36 H 0.4857 0.1837 0.1717 0.1420 Uiso
H37 H 0.4318 0.1917 0.1835 0.1420 Uiso
C47 C 0.4804(19) 0.277(4) 0.2089(9) 0.1500 Uiso
H38 H 0.4550 0.3176 0.2180 0.1820 Uiso
H39 H 0.4902 0.2260 0.2229 0.1820 Uiso
C48 C 0.5234(17) 0.340(4) 0.2004(10) 0.1500 Uiso
H40 H 0.5307 0.3834 0.2173 0.1810 Uiso
H41 H 0.5513 0.2966 0.1978 0.1810 Uiso
C49 C 0.3473(7) 0.5797(14) 0.0183(5) 0.1020 Uiso
H42 H 0.3748 0.5528 0.0294 0.1220 Uiso
H43 H 0.3515 0.5613 -0.0025 0.1220 Uiso
C50 C 0.3003(6) 0.5333(14) 0.0300(4) 0.0920 Uiso
H44 H 0.3006 0.4626 0.0256 0.1110 Uiso
H45 H 0.2992 0.5407 0.0516 0.1110 Uiso
C51 C 0.2566(7) 0.5776(14) 0.0172(4) 0.1000 Uiso
H46 H 0.2277 0.5507 0.0269 0.1200 Uiso
H47 H 0.2547 0.5616 -0.0039 0.1200 Uiso
C52 C 0.2580(8) 0.6867(15) 0.0211(5) 0.1140 Uiso
H48 H 0.2568 0.7021 0.0423 0.1370 Uiso
H49 H 0.2292 0.7157 0.0118 0.1370 Uiso
C53 C 0.3048(8) 0.7351(18) 0.0072(5) 0.1360 Uiso
H50 H 0.3047 0.7279 -0.0143 0.1630 Uiso
H51 H 0.3063 0.8054 0.0121 0.1630 Uiso
C54 C 0.3480(6) 0.6809(13) 0.0206(4) 0.0870 Uiso
H52 H 0.3775 0.7051 0.0110 0.1050 Uiso
H53 H 0.3500 0.6983 0.0416 0.1050 Uiso
C55 C 0.2762(14) 0.170(3) 0.4092(8) 0.2040 Uiso
H54 H 0.3055 0.1926 0.3991 0.2450 Uiso
H55 H 0.2500 0.1698 0.3945 0.2450 Uiso
C56 C 0.2647(16) 0.238(3) 0.4304(9) 0.2440 Uiso
H56 H 0.2593 0.3029 0.4214 0.2930 Uiso
H57 H 0.2353 0.2186 0.4411 0.2930 Uiso
C57 C 0.3033(10) 0.241(2) 0.4491(6) 0.1360 Uiso
H58 H 0.2970 0.2924 0.4638 0.1640 Uiso
H59 H 0.3316 0.2622 0.4376 0.1640 Uiso
C58 C 0.3168(12) 0.149(2) 0.4652(7) 0.1800 Uiso
H60 H 0.2936 0.1382 0.4814 0.2160 Uiso
H61 H 0.3490 0.1574 0.4740 0.2160 Uiso
C59 C 0.3171(8) 0.0527(17) 0.4435(5) 0.1170 Uiso
H62 H 0.3501 0.0416 0.4362 0.1400 Uiso
H63 H 0.3073 -0.0056 0.4549 0.1400 Uiso
C60 C 0.2846(10) 0.065(2) 0.4186(6) 0.1360 Uiso
H64 H 0.2532 0.0356 0.4236 0.1630 Uiso
H65 H 0.2978 0.0286 0.4017 0.1630 Uiso
C61 C 0.3493(7) 0.2895(11) 0.1803(4) 0.0570 Uiso
H66 H 0.3742 0.2794 0.1943 0.0690 Uiso
C62 C 0.3596(7) 0.3151(10) 0.1530(4) 0.0420 Uiso
H67 H 0.3923 0.3215 0.1475 0.0500 Uiso
C63 C 0.3231(8) 0.3337(11) 0.1312(5) 0.0710 Uiso
H68 H 0.3324 0.3507 0.1119 0.0860 Uiso
C64 C 0.2746(7) 0.3272(14) 0.1382(4) 0.0410 Uiso
C65 C 0.2621(6) 0.2960(14) 0.1673(4) 0.0390 Uiso
C66 C 0.2937(7) 0.276(2) 0.1894(5) 0.0670 Uiso
C67 C 0.2892(8) 0.247(3) 0.2153(5) 0.0730 Uiso
H69 H 0.3156 0.2306 0.2275 0.0880 Uiso
C68 C 0.2372(6) 0.2408(13) 0.2252(4) 0.0340 Uiso
H70 H 0.2291 0.2236 0.2448 0.0410 Uiso
C69 C 0.2021(8) 0.2611(17) 0.2047(4) 0.0580 Uiso
H71 H 0.1693 0.2557 0.2102 0.0700 Uiso
C70 C 0.2134(5) 0.2895(16) 0.1760(4) 0.0290 Uiso
C71 C 0.1753(7) 0.3103(16) 0.1538(4) 0.0520 Uiso
C72 C 0.1280(7) 0.3080(18) 0.1596(5) 0.0660 Uiso
H72 H 0.1173 0.2919 0.1787 0.0790 Uiso
C73 C 0.0928(8) 0.330(2) 0.1368(6) 0.0570 Uiso
H73 H 0.0597 0.3319 0.1417 0.0680 Uiso
C74 C 0.1064(8) 0.347(2) 0.1084(5) 0.0840 Uiso
H74 H 0.0835 0.3569 0.0932 0.1010 Uiso
C75 C 0.1566(8) 0.351(2) 0.1026(5) 0.0720 Uiso
C76 C 0.1941(7) 0.3330(17) 0.1214(4) 0.0500 Uiso
C77 C 0.2385(7) 0.3400(17) 0.1190(4) 0.0500 Uiso
C78 C 0.2545(7) 0.3665(16) 0.0879(4) 0.0520 Uiso
H75 H 0.2875 0.3737 0.0832 0.0620 Uiso
C79 C 0.2196(8) 0.380(2) 0.0671(5) 0.0880 Uiso
H76 H 0.2289 0.3931 0.0475 0.1060 Uiso
C80 C 0.1715(7) 0.3737(14) 0.0739(4) 0.0880 Uiso
H77 H 0.1482 0.3851 0.0591 0.1060 Uiso
loop_
_atom_site_aniso_label
_atom_site_aniso_U_11
_atom_site_aniso_U_22
_atom_site_aniso_U_33
_atom_site_aniso_U_23
_atom_site_aniso_U_13
_atom_site_aniso_U_12
C1 0.040(7) 0.052(7) 0.032(6) 0.004(6) 0.004(5) 0.010(6)
C2 0.032(6) 0.050(7) 0.036(6) 0.010(6) 0.000(5) 0.023(5)
C3 0.033(6) 0.030(6) 0.023(5) -0.003(4) -0.011(4) 0.008(5)
C4 0.063(8) 0.026(6) 0.023(6) 0.003(5) 0.001(5) 0.005(5)
C5 0.064(8) 0.027(6) 0.028(6) 0.003(5) 0.001(6) -0.002(5)
C6 0.023(5) 0.032(6) 0.023(5) 0.001(4) -0.006(4) 0.004(4)
C7 0.018(5) 0.028(5) 0.035(6) -0.005(5) -0.003(4) -0.001(4)
C8 0.020(5) 0.018(5) 0.027(5) -0.003(4) -0.002(4) -0.004(4)
C9 0.032(6) 0.029(6) 0.027(6) -0.010(4) 0.001(5) -0.001(5)
C10 0.034(6) 0.038(6) 0.033(6) -0.001(5) 0.000(5) 0.008(5)
C11 0.021(5) 0.036(6) 0.045(7) -0.013(5) 0.010(5) 0.010(5)
C12 0.045(7) 0.027(6) 0.038(7) -0.001(5) 0.000(6) 0.004(5)
C13 0.058(8) 0.028(6) 0.040(7) -0.004(5) 0.003(6) 0.014(6)
C14 0.035(6) 0.019(5) 0.031(6) -0.005(4) -0.004(5) 0.000(4)
C15 0.077(9) 0.013(5) 0.034(6) 0.001(5) 0.012(6) -0.005(5)
C16 0.069(9) 0.022(5) 0.027(6) 0.004(5) 0.014(6) -0.004(5)
C17 0.053(8) 0.019(5) 0.045(7) 0.000(5) 0.019(6) -0.003(5)
C18 0.056(7) 0.022(5) 0.025(5) 0.003(4) 0.022(5) -0.002(5)
C19 0.026 0.039 0.026 0 -0.012 0.003
C20 0.028 0.033 0.021 -0.007 -0.007 0.01
C21 0.036 0.016 0.017 0.004 0.001 0.009
C22 0.036 0.019 0.016 -0.003 -0.002 -0.001
C23 0.032 0.015 0.018 0.003 0.005 -0.003
C24 0.036 0.002 0.021 -0.001 -0.001 0.002
C25 0.026 0.016 0.021 0.006 0.002 0
C26 0.028 0.013 0.019 0.003 -0.001 0.006
C27 0.027 0.015 0.024 -0.004 0.001 0
C28 0.031 0.057 0.031 -0.011 -0.004 -0.013
C29 0.028 0.049 0.032 -0.01 -0.003 -0.015
C30 0.029 0.032 0.023 -0.003 0 -0.001
C31 0.028 0.028 0.025 -0.001 0 0.004
C32 0.026 0.007 0.026 0.005 0.004 -0.004
C33 0.021 0.028 0.032 -0.003 0.008 -0.009
C34 0.036 0.038 0.014 -0.007 -0.001 -0.011
C35 0.021 0.022 0.023 0.007 0.002 -0.002
C36 0.035 0.023 0.014 0.003 0.004 -0.004
I1 0.0256(4) 0.1238(9) 0.0440(5) -0.0094(6) 0.0020(4) -0.0128(5)
I2 0.0813(7) 0.0423(5) 0.0631(6) 0.0051(4) -0.0176(5) -0.0305(5)
I3 0.0567(5) 0.0208(3) 0.0366(4) -0.0012(3) 0.0003(4) -0.0029(3)
I4 0.0421(4) 0.0519(5) 0.0440(5) 0.0190(4) -0.0088(4) 0.0024(4)
I5 0.057 0.0367 0.0994 0.0096 0.0218 -0.0139
I6 0.0414 0.0501 0.0632 -0.0337 -0.015 0.0121
N1 0.030(5) 0.045(5) 0.018(4) -0.004(4) -0.007(4) -0.007(4)
N2 0.035(5) 0.029(5) 0.019(4) -0.011(4) -0.002(4) 0.004(4)
N3 0.025(4) 0.020(4) 0.027(4) -0.008(3) 0.003(4) 0.005(3)
N4 0.035(5) 0.024(4) 0.023(4) -0.012(4) -0.005(4) 0.004(4)
N5 0.027(5) 0.020(4) 0.035(5) -0.009(4) -0.001(4) 0.002(4)
N6 0.041(5) 0.009(4) 0.025(4) 0.003(3) 0.008(4) -0.002(3)
N7 0.037 0.02 0.018 0.004 -0.003 0.006
N8 0.022 0.012 0.025 0.001 -0.002 0.003
N9 0.024 0.012 0.021 -0.001 0.002 0.001
N10 0.023 0.011 0.019 -0.003 -0.004 0
N11 0.024 0.023 0.036 0.001 0.003 -0.004
N12 0.021 0.027 0.019 0.003 -0.008 -0.011
Zn1 0.0331(7) 0.0459(8) 0.0267(6) 0.0044(6) -0.0042(5) -0.0169(6)
Zn2 0.0388(7) 0.0213(5) 0.0189(5) 0.0026(5) 0.0024(5) 0.0035(5)
Zn3 0.0256 0.0227 0.0476 -0.0069 -0.0043 0
N7A 0.037(5) 0.020(4) 0.018(4) -0.004(3) 0.003(4) 0.006(4)
N11C 0.024 0.023 0.036 0.001 -0.003 0.004
Zn2A 0.0388 0.0213 0.0189 -0.0026 -0.0024 0.0035
Zn3C 0.0256 0.0227 0.0476 -0.0069 0.0043 0
loop_
_geom_bond_atom_site_label_1
_geom_bond_atom_site_label_2
_geom_bond_site_symmetry_1
_geom_bond_site_symmetry_2
C1 H1 1_555 1_555
C2 C1 1_555 1_555
H2 C2 1_555 1_555
C3 C2 1_555 1_555
C4 C3 1_555 1_555
H3 C4 1_555 1_555
C5 C4 1_555 1_555
H4 C5 1_555 1_555
C6 C3 1_555 1_555
C7 C9 1_555 1_555
C8 C14 1_555 1_555
C9 C10 1_555 1_555
C10 H5 1_555 1_555
C11 C10 1_555 1_555
H6 C11 1_555 1_555
C12 H7 1_555 1_555
C13 C9 1_555 1_555
H8 C13 1_555 1_555
C14 C15 1_555 1_555
C15 H9 1_555 1_555
C16 C15 1_555 1_555
H10 C16 1_555 1_555
C17 H11 1_555 1_555
C18 C14 1_555 1_555
H12 C18 1_555 1_555
C19 H13 1_555 1_555
C20 C19 1_555 1_555
H14 C20 1_555 1_555
C21 C20 1_555 1_555
C22 C21 1_555 1_555
H15 C22 1_555 1_555
C23 C22 1_555 1_555
H16 C23 1_555 1_555
C24 C21 1_555 1_555
C25 C27 1_555 1_555
C26 C32 1_555 1_555
C27 C28 1_555 1_555
C28 H17 1_555 1_555
C29 C28 1_555 1_555
H18 C29 1_555 1_555
C30 H19 1_555 1_555
C31 C27 1_555 1_555
H20 C31 1_555 1_555
C32 C33 1_555 1_555
C33 H21 1_555 1_555
C34 C33 1_555 1_555
H22 C34 1_555 1_555
C35 H23 1_555 1_555
C36 C32 1_555 1_555
H24 C36 1_555 1_555
I1 Zn1 1_555 1_555
I2 Zn1 1_555 1_555
I3 Zn2 1_555 1_555
I4 Zn2 1_555 1_555
I5 Zn3 1_555 1_555
I6 Zn3 1_555 1_555
N1 C1 1_555 1_555
N2 C6 1_555 1_555
N3 C7 1_555 1_555
N4 C6 1_555 1_555
N5 C11 1_555 1_555
N6 C16 1_555 1_555
N7 C19 1_555 1_555
N8 C24 1_555 1_555
N9 C25 1_555 1_555
N10 C24 1_555 1_555
N11 C29 1_555 1_555
N12 C34 1_555 1_555
Zn1 N1 1_555 1_555
Zn2 N6 1_555 1_555
Zn3 N5 1_555 1_555
C37 C38 1_555 1_555
C38 H25 1_555 1_555
C39 C38 1_555 1_555
H26 C39 1_555 1_555
C40 C39 1_555 1_555
H27 C40 1_555 1_555
C41 C40 1_555 1_555
H28 C41 1_555 1_555
C42 C37 1_555 1_555
H29 C42 1_555 1_555
N13 C37 1_555 1_555
O1 N13 1_555 1_555
O2 N13 1_555 1_555
C43 H30 1_555 1_555
H31 C43 1_555 1_555
C44 C43 1_555 1_555
H32 C44 1_555 1_555
H33 C44 1_555 1_555
C45 C44 1_555 1_555
H34 C45 1_555 1_555
H35 C45 1_555 1_555
C46 C45 1_555 1_555
H36 C46 1_555 1_555
H37 C46 1_555 1_555
C47 C46 1_555 1_555
H38 C47 1_555 1_555
H39 C47 1_555 1_555
C48 C43 1_555 1_555
H40 C48 1_555 1_555
H41 C48 1_555 1_555
C49 H42 1_555 1_555
H43 C49 1_555 1_555
C50 C49 1_555 1_555
H44 C50 1_555 1_555
H45 C50 1_555 1_555
C51 C50 1_555 1_555
H46 C51 1_555 1_555
H47 C51 1_555 1_555
C52 C51 1_555 1_555
H48 C52 1_555 1_555
H49 C52 1_555 1_555
C53 C52 1_555 1_555
H50 C53 1_555 1_555
H51 C53 1_555 1_555
C54 C49 1_555 1_555
H52 C54 1_555 1_555
H53 C54 1_555 1_555
C55 H54 1_555 1_555
H55 C55 1_555 1_555
C56 C55 1_555 1_555
H56 C56 1_555 1_555
H57 C56 1_555 1_555
C57 C56 1_555 1_555
H58 C57 1_555 1_555
H59 C57 1_555 1_555
C58 C57 1_555 1_555
H60 C58 1_555 1_555
H61 C58 1_555 1_555
C59 C58 1_555 1_555
H62 C59 1_555 1_555
H63 C59 1_555 1_555
C60 C55 1_555 1_555
H64 C60 1_555 1_555
H65 C60 1_555 1_555
C61 H66 1_555 1_555
C62 C61 1_555 1_555
H67 C62 1_555 1_555
C63 C62 1_555 1_555
H68 C63 1_555 1_555
C64 C63 1_555 1_555
C65 C64 1_555 1_555
C66 C61 1_555 1_555
C67 C66 1_555 1_555
H69 C67 1_555 1_555
C68 C67 1_555 1_555
H70 C68 1_555 1_555
C69 C68 1_555 1_555
H71 C69 1_555 1_555
C70 C65 1_555 1_555
C71 C70 1_555 1_555
C72 C71 1_555 1_555
H72 C72 1_555 1_555
C73 C72 1_555 1_555
H73 C73 1_555 1_555
C74 C73 1_555 1_555
H74 C74 1_555 1_555
C75 C74 1_555 1_555
C76 C71 1_555 1_555
C77 C64 1_555 1_555
C78 C77 1_555 1_555
H75 C78 1_555 1_555
C79 C78 1_555 1_555
H76 C79 1_555 1_555
C80 C75 1_555 1_555
H77 C80 1_555 1_555
N7A Zn2 1_555 1_555
N11C Zn3 1_555 1_555
Zn2A N7 1_555 1_555
Zn3C N11 1_555 1_555
C5 N1 1_555 1_555
C7 N2 1_555 1_555
C8 N3 1_555 1_555
C8 N4 1_555 1_555
C12 C13 1_555 1_555
C12 N5 1_555 1_555
C17 C18 1_555 1_555
C17 N6 1_555 1_555
C23 N7 1_555 1_555
C25 N8 1_555 1_555
C26 N9 1_555 1_555
C26 N10 1_555 1_555
C30 C31 1_555 1_555
C30 N11 1_555 1_555
C35 C36 1_555 1_555
C35 N12 1_555 1_555
N12 Zn1 1_555 1_555
C41 C42 1_555 1_555
C47 C48 1_555 1_555
C53 C54 1_555 1_555
C59 C60 1_555 1_555
C65 C66 1_555 1_555
C69 C70 1_555 1_555
C75 C76 1_555 1_555
C76 C77 1_555 1_555
C79 C80 1_555 1_555

#END
