
#######################################################################
#
#                 Cambridge Crystallographic Data Centre
#                                CCDC 
#
#######################################################################
#
# If this CIF has been generated from an entry in the Cambridge 
# Structural Database, then it will include bibliographic, chemical, 
# crystal, experimental, refinement or atomic coordinate data resulting 
# from the CCDC's data processing and validation procedures.
#
#######################################################################

data_MAHGAG
_chemical_formula_moiety         '(C14 H10 Cd1 N2 O4)n'
_symmetry_cell_setting           orthorhombic
_symmetry_space_group_name_H-M   'A b a 2'
_symmetry_Int_Tables_number      41
_space_group_name_Hall           'A 2 -2ab'
loop_
_symmetry_equiv_pos_site_id
_symmetry_equiv_pos_as_xyz
1 x,y,z
2 -x,-y,z
3 1/2+x,1/2-y,z
4 1/2-x,1/2+y,z
5 x,1/2+y,1/2+z
6 -x,1/2-y,1/2+z
7 1/2+x,-y,1/2+z
8 1/2-x,y,1/2+z
_cell_length_a                   18.0671(13)
_cell_length_b                   14.9071(11)
_cell_length_c                   15.1602(11)
_cell_angle_alpha                90
_cell_angle_beta                 90
_cell_angle_gamma                90
_cell_volume                     4083.07
loop_
_atom_site_label
_atom_site_type_symbol
_atom_site_fract_x
_atom_site_fract_y
_atom_site_fract_z
_atom_site_U_iso_or_equiv
_atom_site_thermal_displace_type
Cd1 Cd 0.46620(2) 0.87663(3) -0.00263(7) 0.0318 Uani
O1 O 0.1584(2) 1.3096(3) 0.0017(7) 0.0524 Uani
O2 O 0.4226(2) 1.0271(3) 0.0095(4) 0.0297 Uani
O3 O 0.0615(3) 1.2233(3) 0.0070(7) 0.0537 Uani
C1 C 0.1932(4) 0.9923(4) 0.0279(5) 0.0307 Uani
O4 O 0.4104(3) 1.1713(3) -0.0186(6) 0.0480 Uani
C2 C 0.3824(3) 1.0960(4) -0.0134(6) 0.0267 Uani
N1 N 0.1665(4) 0.9067(4) 0.0397(5) 0.0357 Uani
C3 C 0.1793(4) 1.1524(4) 0.0117(5) 0.0243 Uani
C4 C 0.1247(6) 0.9221(8) 0.2312(7) 0.0627 Uani
H1 H 0.1707 0.9443 0.2146 0.0750 Uiso
C5 C -0.0015(6) 0.8700(6) 0.2898(7) 0.0527 Uani
H2 H -0.0483 0.8547 0.3102 0.0630 Uiso
C6 C 0.1301(3) 1.2345(4) 0.0082(7) 0.0297 Uani
C7 C 0.2699(3) 1.0035(4) 0.0162(5) 0.0270 Uani
H3 H 0.3005 0.9533 0.0148 0.0320 Uiso
C8 C 0.2546(3) 1.1625(4) 0.0027(8) 0.0373 Uani
H4 H 0.2751 1.2190 -0.0060 0.0450 Uiso
C9 C 0.1486(4) 1.0684(4) 0.0200(5) 0.0327 Uani
H5 H 0.0974 1.0622 0.0202 0.0390 Uiso
C10 C 0.0750(5) 0.8926(5) 0.1614(6) 0.0397 Uani
C11 C 0.3001(3) 1.0864(4) 0.0069(6) 0.0223 Uani
C12 C 0.0906(5) 0.8844(5) 0.0669(6) 0.0423 Uani
H6 H 0.0567 0.9231 0.0351 0.0510 Uiso
H7 H 0.0803 0.8231 0.0491 0.0510 Uiso
C13 C 0.1102(6) 0.9199(10) 0.3120(6) 0.0823 Uani
H8 H 0.1463 0.9401 0.3510 0.0990 Uiso
C14 C 0.0101(5) 0.8686(6) 0.1939(7) 0.0500 Uani
H9 H -0.0279 0.8509 0.1563 0.0600 Uiso
N2 N 0.0458(3) 0.8899(4) 0.3462(4) 0.0223 Uani
H10 H 0.193(5) 0.867(4) 0.049(5) 0.0330 Uiso
Cd1A Cd 0.53380(2) 1.12337(3) -0.00263(7) 0.0318 Uani
Cd1C Cd 0.03380(2) 1.37663(3) -0.00263(7) 0.0318 Uani
Cd1G Cd 0.03380(2) 0.87663(3) 0.49737(7) 0.0318 Uani
O1C O 0.3416(2) 0.8096(3) 0.0017(7) 0.0524 Uani
O2A O 0.5774(2) 0.9729(3) 0.0095(4) 0.0297 Uani
O3C O 0.4385(3) 0.7233(3) 0.0070(7) 0.0537 Uani
O4A O 0.5896(3) 0.8287(3) -0.0186(6) 0.0480 Uani
N2G N 0.4542(3) 0.8899(4) -0.1538(4) 0.0223 Uani
loop_
_atom_site_aniso_label
_atom_site_aniso_U_11
_atom_site_aniso_U_22
_atom_site_aniso_U_33
_atom_site_aniso_U_23
_atom_site_aniso_U_13
_atom_site_aniso_U_12
Cd1 0.0217(2) 0.0253(2) 0.0483(3) 0.0014(4) -0.0029(5) -0.00452(18)
O1 0.035(2) 0.0251(19) 0.097(4) -0.018(6) 0.015(5) 0.007(2)
O2 0.025(2) 0.040(2) 0.024(3) -0.003(3) 0.003(3) 0.0060(18)
O3 0.026(2) 0.037(2) 0.098(5) 0.026(5) 0.016(5) 0.011(2)
C1 0.030(4) 0.022(3) 0.040(4) -0.009(3) 0.005(3) -0.001(3)
O4 0.024(2) 0.032(2) 0.088(7) 0.006(4) 0.006(4) -0.009(2)
C2 0.023(3) 0.026(3) 0.031(5) -0.020(4) -0.007(4) 0.000(2)
N1 0.039(4) 0.022(3) 0.046(4) -0.001(3) 0.006(3) 0.000(3)
C3 0.028(3) 0.025(3) 0.020(4) 0.002(3) 0.003(4) 0.003(3)
C4 0.056(6) 0.077(7) 0.055(6) 0.001(6) -0.017(5) -0.035(6)
C5 0.037(5) 0.061(6) 0.060(6) -0.006(5) 0.019(5) -0.003(4)
C6 0.026(3) 0.025(3) 0.038(5) 0.004(5) 0.010(5) 0.006(2)
C7 0.028(3) 0.022(3) 0.031(5) -0.006(3) 0.003(3) 0.006(3)
C8 0.026(3) 0.019(3) 0.067(5) 0.002(7) 0.006(8) 0.000(2)
C9 0.023(3) 0.025(3) 0.050(6) 0.000(4) -0.001(3) 0.000(3)
C10 0.052(5) 0.027(4) 0.040(5) -0.003(3) 0.004(4) -0.007(4)
C11 0.027(3) 0.030(3) 0.010(4) 0.003(4) -0.001(4) 0.005(2)
C12 0.044(5) 0.033(4) 0.050(5) 0.001(4) -0.001(4) -0.019(4)
C13 0.056(6) 0.171(12) 0.020(5) -0.017(6) 0.006(4) -0.049(7)
C14 0.029(4) 0.056(5) 0.065(6) -0.002(5) -0.006(4) -0.006(4)
N2 0.020(3) 0.035(3) 0.012(3) 0.003(2) 0.004(2) 0.007(2)
Cd1A 0.0217 0.0253 0.0483 -0.0014 0.0029 -0.00452
Cd1C 0.0217 0.0253 0.0483 0.0014 0.0029 0.00452
Cd1G 0.0217 0.0253 0.0483 0.0014 0.0029 0.00452
O1C 0.035 0.0251 0.097 -0.018 -0.015 -0.007
O2A 0.025 0.04 0.024 0.003 -0.003 0.006
O3C 0.026 0.037 0.098 0.026 -0.016 -0.011
O4A 0.024 0.032 0.088 -0.006 -0.006 -0.009
N2G 0.02 0.035 0.012 0.003 -0.004 -0.007
loop_
_geom_bond_atom_site_label_1
_geom_bond_atom_site_label_2
_geom_bond_site_symmetry_1
_geom_bond_site_symmetry_2
Cd1 O2 1_555 1_555
O1 C6 1_555 1_555
O2 C2 1_555 1_555
O3 C6 1_555 1_555
C1 N1 1_555 1_555
O4 C2 1_555 1_555
C2 C11 1_555 1_555
N1 C12 1_555 1_555
C3 C6 1_555 1_555
C4 H1 1_555 1_555
C5 H2 1_555 1_555
C7 C1 1_555 1_555
H3 C7 1_555 1_555
C8 C3 1_555 1_555
H4 C8 1_555 1_555
C9 C1 1_555 1_555
H5 C9 1_555 1_555
C10 C4 1_555 1_555
C11 C7 1_555 1_555
C12 C10 1_555 1_555
H6 C12 1_555 1_555
H7 C12 1_555 1_555
C13 C4 1_555 1_555
H8 C13 1_555 1_555
C14 C5 1_555 1_555
H9 C14 1_555 1_555
N2 C5 1_555 1_555
H10 N1 1_555 1_555
Cd1A O2 1_555 1_555
Cd1C O1 1_555 1_555
Cd1G N2 1_555 1_555
O1C Cd1 1_555 1_555
O2A Cd1 1_555 1_555
O3C Cd1 1_555 1_555
O4A Cd1 1_555 1_555
N2G Cd1 1_555 1_555
O3 Cd1C 1_555 1_555
O4 Cd1A 1_555 1_555
C3 C9 1_555 1_555
C8 C11 1_555 1_555
C10 C14 1_555 1_555
C13 N2 1_555 1_555
Cd1A O2A 1_555 1_555

#END
