
#######################################################################
#
#                 Cambridge Crystallographic Data Centre
#                                CCDC 
#
#######################################################################
#
# If this CIF has been generated from an entry in the Cambridge 
# Structural Database, then it will include bibliographic, chemical, 
# crystal, experimental, refinement or atomic coordinate data resulting 
# from the CCDC's data processing and validation procedures.
#
#######################################################################

data_CUMKIG
_chemical_formula_moiety         '(C42 H46 Co1 N13 O5 1+)n'
_symmetry_cell_setting           triclinic
_symmetry_space_group_name_H-M   'P -1'
_symmetry_Int_Tables_number      2
_space_group_name_Hall           '-P 1'
loop_
_symmetry_equiv_pos_site_id
_symmetry_equiv_pos_as_xyz
1 x,y,z
2 -x,-y,-z
_cell_length_a                   9.3078(9)
_cell_length_b                   9.9938(10)
_cell_length_c                   13.2647(14)
_cell_angle_alpha                78.154(9)
_cell_angle_beta                 73.742(9)
_cell_angle_gamma                82.751(8)
_cell_volume                     1156.21
loop_
_atom_site_label
_atom_site_type_symbol
_atom_site_fract_x
_atom_site_fract_y
_atom_site_fract_z
Co1 Co 0.0000 0.5000 0.5000
C1 C 0.1773(4) 0.3058(4) 0.6514(3)
H1 H 0.2659 0.3053 0.5972
C2 C 0.1664(5) 0.2616(4) 0.7564(3)
H2 H 0.2447 0.2271 0.7874
C3 C -0.0540(4) 0.3306(3) 0.7330(3)
H3 H -0.1573 0.3501 0.7476
C4 C -0.0447(5) 0.2595(4) 0.9244(3)
H4 H 0.0041 0.1786 0.9589
H5 H -0.1509 0.2462 0.9415
C5 C -0.0233(4) 0.3830(4) 0.9651(3)
C6 C -0.1125(5) 0.5035(4) 0.9513(3)
H6 H -0.1895 0.5066 0.9186
C7 C 0.0901(5) 0.3819(4) 1.0152(3)
H7 H 0.1514 0.3022 1.0260
C8 C 0.3589(4) 0.5124(5) 0.4161(3)
H8 H 0.3601 0.5720 0.4613
C9 C 0.4811(4) 0.4651(5) 0.3452(3)
H9 H 0.5799 0.4852 0.3337
C10 C 0.2827(4) 0.3806(4) 0.3362(3)
H10 H 0.2216 0.3304 0.3155
C11 C 0.5181(5) 0.3234(5) 0.2010(3)
H11 H 0.4808 0.2357 0.2044
H12 H 0.6225 0.3073 0.2024
C12 C 0.5067(4) 0.4172(4) 0.0975(3)
C13 C 0.4964(5) 0.5593(4) 0.0854(3)
H13 H 0.4931 0.5999 0.1432
C14 C 0.5089(4) 0.3589(4) 0.0115(3)
H14 H 0.5140 0.2641 0.0186
C15 C 0.0811(4) 0.6472(4) 0.6668(3)
H15 H 0.0634 0.5719 0.7218
C16 C 0.1187(5) 0.7691(4) 0.6755(3)
H16 H 0.1316 0.7936 0.7361
C17 C 0.1066(4) 0.7745(3) 0.5134(3)
H17 H 0.1108 0.8059 0.4417
C18 C 0.1789(4) 0.9921(4) 0.5453(4)
H18 H 0.1294 1.0429 0.6020
H19 H 0.1466 1.0358 0.4821
C19 C 0.3454(4) 0.9970(3) 0.5224(3)
C20 C 0.4118(5) 0.9991(4) 0.6025(3)
H20 H 0.3530 0.9982 0.6720
C21 C 0.4343(5) 0.9975(4) 0.4200(4)
H21 H 0.3904 0.9955 0.3655
N1 N 0.0378(3) 0.3517(3) 0.6367(2)
N2 N 0.0193(4) 0.2775(3) 0.8078(2)
N3 N 0.2336(3) 0.4584(3) 0.4104(2)
N4 N 0.4313(4) 0.3831(3) 0.2947(2)
N5 N 0.0728(3) 0.6501(3) 0.5648(2)
N6 N 0.1338(3) 0.8494(3) 0.5772(3)
C1A C -0.1773(4) 0.6942(4) 1.3486(3)
H1A H -0.2659 0.6947 1.4028
C2A C -0.1664(5) 0.7384(4) 1.2436(3)
H2A H -0.2447 0.7729 1.2126
C3A C 0.0540(4) 0.6694(3) 1.2670(3)
H3A H 0.1573 0.6499 1.2524
C4A C 0.0447(5) 0.7405(4) 1.0756(3)
H4A H -0.0041 0.8214 1.0411
H5A H 0.1509 0.7538 1.0585
C5A C 0.0233(4) 0.6170(4) 1.0349(3)
C6A C 0.1125(5) 0.4965(4) 1.0487(3)
H6A H 0.1895 0.4934 1.0814
C7A C -0.0901(5) 0.6181(4) 0.9848(3)
H7A H -0.1514 0.6978 0.9740
N1A N -0.0378(3) 0.6483(3) 1.3633(2)
N2A N -0.0193(4) 0.7225(3) 1.1922(2)
C8A C 0.6411(4) 0.4876(5) -0.4161(3)
H8A H 0.6399 0.4280 -0.4613
C9A C 0.5189(4) 0.5349(5) -0.3452(3)
H9A H 0.4201 0.5148 -0.3337
C10A C 0.7173(4) 0.6194(4) -0.3362(3)
H10A H 0.7784 0.6696 -0.3155
C11A C 0.4819(5) 0.6766(5) -0.2010(3)
H11A H 0.5192 0.7643 -0.2044
H12A H 0.3775 0.6927 -0.2024
C12A C 0.4933(4) 0.5828(4) -0.0975(3)
C13A C 0.5036(5) 0.4407(4) -0.0854(3)
H13A H 0.5069 0.4001 -0.1432
C14A C 0.4911(4) 0.6411(4) -0.0115(3)
H14A H 0.4860 0.7359 -0.0186
N3A N 0.7664(3) 0.5416(3) -0.4104(2)
N4A N 0.5687(4) 0.6169(3) -0.2947(2)
C15A C 0.9189(4) 1.3528(4) 0.3332(3)
H15A H 0.9366 1.4281 0.2782
C16A C 0.8813(5) 1.2309(4) 0.3245(3)
H16A H 0.8684 1.2064 0.2639
C17A C 0.8934(4) 1.2255(3) 0.4866(3)
H17A H 0.8892 1.1941 0.5583
C18A C 0.8211(4) 1.0079(4) 0.4547(4)
H18A H 0.8706 0.9571 0.3980
H19A H 0.8534 0.9642 0.5179
C19A C 0.6546(4) 1.0030(3) 0.4776(3)
C20A C 0.5882(5) 1.0009(4) 0.3975(3)
H20A H 0.6470 1.0018 0.3280
C21A C 0.5657(5) 1.0025(4) 0.5800(4)
H21A H 0.6096 1.0045 0.6345
N5A N 0.9272(3) 1.3499(3) 0.4352(2)
N6A N 0.8662(3) 1.1506(3) 0.4228(3)
Co1_2 Co 0.0000 0.5000 1.5000
Co1_3 Co 1.0000 0.5000 -0.5000
Co1_4 Co 1.0000 1.5000 0.5000
N1A_2 N -0.0378(3) 0.6483(3) 0.3633(2)
N3A_2 N -0.2336(3) 0.5416(3) 0.5896(2)
N5A_2 N -0.0728(3) 0.3499(3) 0.4352(2)
N7 N -0.2174(7) -0.0067(6) 0.8116(5)
O1 O -0.1551(7) 0.0149(6) 0.7218(4)
O2 O -0.3247(10) -0.0678(11) 0.8475(8)
O3 O -0.1419(10) -0.0197(7) 0.8780(6)
O4 O -0.3657(6) -0.0562(7) 1.0925(4)
H22 H -0.3313 0.0041 1.1145
H23 H -0.3479 -0.0307 1.0253
O5 O 0.1703(8) -0.0830(6) 0.8508(4)
loop_
_geom_bond_atom_site_label_1
_geom_bond_atom_site_label_2
_geom_bond_site_symmetry_1
_geom_bond_site_symmetry_2
Co1 N1 1_555 1_555
C1 H1 1_555 1_555
C2 C1 1_555 1_555
H2 C2 1_555 1_555
C3 H3 1_555 1_555
C4 H4 1_555 1_555
H5 C4 1_555 1_555
C5 C4 1_555 1_555
C6 C5 1_555 1_555
H6 C6 1_555 1_555
C7 C5 1_555 1_555
H7 C7 1_555 1_555
C8 H8 1_555 1_555
C9 C8 1_555 1_555
H9 C9 1_555 1_555
C10 H10 1_555 1_555
C11 H11 1_555 1_555
H12 C11 1_555 1_555
C12 C11 1_555 1_555
C13 C12 1_555 1_555
H13 C13 1_555 1_555
C14 C12 1_555 1_555
H14 C14 1_555 1_555
C15 H15 1_555 1_555
C16 C15 1_555 1_555
H16 C16 1_555 1_555
C17 H17 1_555 1_555
C18 H18 1_555 1_555
H19 C18 1_555 1_555
C19 C18 1_555 1_555
C20 C19 1_555 1_555
H20 C20 1_555 1_555
C21 C19 1_555 1_555
H21 C21 1_555 1_555
N1 C1 1_555 1_555
N2 C2 1_555 1_555
N3 Co1 1_555 1_555
N4 C9 1_555 1_555
N5 Co1 1_555 1_555
N6 C16 1_555 1_555
N7 O1 1_555 1_555
O2 N7 1_555 1_555
O3 N7 1_555 1_555
O4 H22 1_555 1_555
H23 O4 1_555 1_555
C1A H1A 1_555 1_555
C2A C1A 1_555 1_555
H2A C2A 1_555 1_555
C3A H3A 1_555 1_555
C4A H4A 1_555 1_555
H5A C4A 1_555 1_555
C5A C4A 1_555 1_555
C6A C7 1_555 1_555
H6A C6A 1_555 1_555
C7A C6 1_555 1_555
H7A C7A 1_555 1_555
N1A C1A 1_555 1_555
N2A C2A 1_555 1_555
C8A H8A 1_555 1_555
C9A C8A 1_555 1_555
H9A C9A 1_555 1_555
C10A H10A 1_555 1_555
C11A H11A 1_555 1_555
H12A C11A 1_555 1_555
C12A C11A 1_555 1_555
C13A C14 1_555 1_555
H13A C13A 1_555 1_555
C14A C13 1_555 1_555
H14A C14A 1_555 1_555
N3A C8A 1_555 1_555
N4A C9A 1_555 1_555
C15A H15A 1_555 1_555
C16A C15A 1_555 1_555
H16A C16A 1_555 1_555
C17A H17A 1_555 1_555
C18A H18A 1_555 1_555
H19A C18A 1_555 1_555
C19A C18A 1_555 1_555
C20A C21 1_555 1_555
H20A C20A 1_555 1_555
C21A C20 1_555 1_555
H21A C21A 1_555 1_555
N5A C15A 1_555 1_555
N6A C16A 1_555 1_555
Co1_2 N1A 1_555 1_555
Co1_3 N3A 1_555 1_555
Co1_4 N5A 1_555 1_555
N1A_2 Co1 1_555 1_555
N3A_2 Co1 1_555 1_555
N5A_2 Co1 1_555 1_555
C3 N1 1_555 1_555
C3 N2 1_555 1_555
C4 N2 1_555 1_555
C8 N3 1_555 1_555
C10 N3 1_555 1_555
C10 N4 1_555 1_555
C11 N4 1_555 1_555
C15 N5 1_555 1_555
C17 N5 1_555 1_555
C17 N6 1_555 1_555
C18 N6 1_555 1_555
C3A N1A 1_555 1_555
C3A N2A 1_555 1_555
C4A N2A 1_555 1_555
C5A C6A 1_555 1_555
C5A C7A 1_555 1_555
C10A N3A 1_555 1_555
C10A N4A 1_555 1_555
C11A N4A 1_555 1_555
C12A C13A 1_555 1_555
C12A C14A 1_555 1_555
C17A N5A 1_555 1_555
C17A N6A 1_555 1_555
C18A N6A 1_555 1_555
C19A C20A 1_555 1_555
C19A C21A 1_555 1_555

#END
