
#######################################################################
#
#                 Cambridge Crystallographic Data Centre
#                                CCDC 
#
#######################################################################
#
# If this CIF has been generated from an entry in the Cambridge 
# Structural Database, then it will include bibliographic, chemical, 
# crystal, experimental, refinement or atomic coordinate data resulting 
# from the CCDC's data processing and validation procedures.
#
#######################################################################

data_KADLOT
_chemical_formula_moiety         '(C34 H48 Cu2 I1 N8 O11)n'
_symmetry_cell_setting           tetragonal
_symmetry_space_group_name_H-M   'I 41/a'
_symmetry_Int_Tables_number      88
_space_group_name_Hall           '-I 4ad'
loop_
_symmetry_equiv_pos_site_id
_symmetry_equiv_pos_as_xyz
1 x,y,z
2 1/2-x,-y,1/2+z
3 3/4-y,1/4+x,1/4+z
4 3/4+y,3/4-x,3/4+z
5 1/2+x,1/2+y,1/2+z
6 -x,1/2-y,z
7 1/4-y,3/4+x,3/4+z
8 1/4+y,1/4-x,1/4+z
9 -x,-y,-z
10 1/2+x,y,1/2-z
11 1/4+y,3/4-x,3/4-z
12 1/4-y,1/4+x,1/4-z
13 1/2-x,1/2-y,1/2-z
14 x,1/2+y,-z
15 3/4+y,1/4-x,1/4-z
16 3/4-y,3/4+x,3/4-z
_cell_length_a                   34.018(3)
_cell_length_b                   34.018(3)
_cell_length_c                   15.308(1)
_cell_angle_alpha                90
_cell_angle_beta                 90
_cell_angle_gamma                90
_cell_volume                     17714.8
loop_
_atom_site_label
_atom_site_type_symbol
_atom_site_fract_x
_atom_site_fract_y
_atom_site_fract_z
O1 O 0.0787(7) 0.0714(8) 0.7658(15)
O2 O 0.0196(3) 0.1288(4) 0.7476(8)
O3 O 0.1207(3) 0.2332(3) 0.6538(7)
Cu1 Cu 0.23616(2) 0.23849(2) 0.67480(5)
Cu2 Cu -0.00145(3) 0.03431(3) 0.96766(5)
I1 I 0.06020(2) -0.01024(2) 0.93468(3)
O4 O 0.19884(15) 0.20954(16) 0.7495(3)
O5 O 0.22270(14) 0.22863(15) 0.8777(3)
C1 C 0.19841(19) 0.21088(19) 0.8309(4)
C2 C 0.16544(11) 0.18980(13) 0.8767(2)
C3 C 0.13630(12) 0.17189(15) 0.82705(17)
H1 H 0.1385 0.1712 0.7652
C4 C 0.10393(11) 0.15503(14) 0.8679(2)
H2 H 0.0840 0.1428 0.8339
C5 C 0.10068(11) 0.15609(13) 0.9583(2)
C6 C 0.12982(14) 0.17401(14) 1.00801(17)
H3 H 0.1276 0.1747 1.0699
C7 C 0.16220(12) 0.19086(14) 0.9672(2)
H4 H 0.1821 0.2031 1.0012
C8 C 0.06545(11) 0.13946(12) 1.0013(3)
C9 C 0.05095(11) 0.10354(11) 0.9723(2)
H5 H 0.0644 0.0895 0.9277
N1 N 0.01681(11) 0.08815(9) 1.0087(2)
C10 C -0.00283(11) 0.10867(12) 1.0739(3)
H6 H -0.0262 0.0981 1.0987
N2 N 0.01166(14) 0.14458(12) 1.1029(3)
C11 C 0.04580(14) 0.15997(11) 1.0666(3)
H7 H 0.0557 0.1845 1.0864
O6 O 0.27421(14) 0.19558(14) 0.6858(3)
O7 O 0.29762(16) 0.21597(16) 0.8134(3)
C12 C 0.29775(19) 0.19374(18) 0.7480(4)
C13 C 0.32840(11) 0.16230(12) 0.7451(3)
C14 C 0.33043(12) 0.13685(13) 0.6742(2)
H8 H 0.3113 0.1383 0.6291
C15 C 0.36050(13) 0.10927(12) 0.6691(2)
H9 H 0.3619 0.0919 0.6207
C16 C 0.38853(11) 0.10714(12) 0.7350(3)
C17 C 0.38650(12) 0.13259(14) 0.8059(2)
H10 H 0.4057 0.1311 0.8510
C18 C 0.35643(13) 0.16016(13) 0.8109(2)
H11 H 0.3550 0.1776 0.8594
C19 C 0.42083(10) 0.07844(11) 0.7303(2)
C20 C 0.43953(11) 0.07062(11) 0.65143(17)
H12 H 0.4299 0.0819 0.5989
N3 N 0.47233(10) 0.04627(11) 0.64948(16)
C21 C 0.48643(9) 0.02974(10) 0.7264(2)
H13 H 0.5089 0.0131 0.7250
N4 N 0.46774(10) 0.03756(10) 0.80522(16)
C22 C 0.43494(10) 0.06191(11) 0.80718(17)
H14 H 0.4222 0.0673 0.8611
Cu1G Cu 0.48849(2) 0.01384(2) 0.92480(5)
Cu1L Cu 0.26384(2) 0.26151(2) 0.82520(5)
Cu2H Cu 0.00145(3) -0.03431(3) 1.03234(5)
Cu2I Cu 0.49855(3) 0.03431(3) 0.53234(5)
I1H I -0.06020(2) 0.01024(2) 1.06532(3)
O5L O 0.27730(14) 0.27137(15) 0.6223(3)
O7L O 0.20238(16) 0.28403(16) 0.6866(3)
N3I N -0.02767(10) 0.04627(11) 0.85052(16)
N4F N 0.21244(10) 0.21774(10) 0.55522(16)
O8 O 0.2203(5) 0.1019(4) 0.6215(11)
C23 C 0.2303(5) 0.1086(5) 0.6986(12)
H15 H 0.2219 0.1323 0.7254
N5 N 0.2524(4) 0.0837(4) 0.7448(10)
C24 C 0.2672(7) 0.0474(5) 0.709(2)
H16 H 0.2825 0.0336 0.7542
H17 H 0.2451 0.0308 0.6913
H18 H 0.2839 0.0530 0.6589
C25 C 0.2625(9) 0.0937(9) 0.8336(12)
H19 H 0.2786 0.0727 0.8589
H20 H 0.2773 0.1184 0.8341
H21 H 0.2384 0.0968 0.8681
O9 O 0.2009(6) -0.0181(4) 0.8624(13)
C26 C 0.1920(6) 0.0083(5) 0.9133(14)
H22 H 0.2010 0.0062 0.9719
N6 N 0.1712(4) 0.0391(4) 0.8930(9)
C27 C 0.1509(5) 0.0438(7) 0.8107(11)
H23 H 0.1373 0.0691 0.8099
H24 H 0.1700 0.0428 0.7627
H25 H 0.1318 0.0225 0.8037
C28 C 0.1624(5) 0.0686(5) 0.9569(13)
H26 H 0.1466 0.0894 0.9300
H27 H 0.1476 0.0567 1.0051
H28 H 0.1869 0.0798 0.9794
O10 O 0.1142(3) 0.1273(3) 0.2010(6)
C29 C 0.1307(5) 0.0943(4) 0.1845(9)
H29 H 0.1579 0.0946 0.1706
N7 N 0.1127(4) 0.0598(4) 0.1854(8)
C30 C 0.0717(4) 0.0557(5) 0.1995(9)
H30 H 0.0646 0.0278 0.1976
H31 H 0.0649 0.0666 0.2568
H32 H 0.0574 0.0699 0.1538
C31 C 0.1335(6) 0.0220(5) 0.1760(15)
H33 H 0.1145 0.0004 0.1786
H34 H 0.1472 0.0213 0.1197
H35 H 0.1526 0.0191 0.2235
O11 O -0.0263(5) 0.1530(5) 0.8881(10)
C32 C -0.0531(7) 0.1724(5) 0.9176(15)
H36 H -0.0663 0.1648 0.9696
N8 N -0.0633(7) 0.2041(5) 0.8752(13)
C33 C -0.0520(10) 0.2133(10) 0.7860(16)
H37 H -0.0632 0.2387 0.7691
H38 H -0.0232 0.2146 0.7820
H39 H -0.0618 0.1927 0.7468
C34 C -0.0980(7) 0.2269(7) 0.8984(17)
H40 H -0.1005 0.2494 0.8589
H41 H -0.1215 0.2103 0.8933
H42 H -0.0956 0.2363 0.9587
loop_
_geom_bond_atom_site_label_1
_geom_bond_atom_site_label_2
_geom_bond_site_symmetry_1
_geom_bond_site_symmetry_2
Cu1 O4 1_555 1_555
Cu2 I1 1_555 1_555
I1 Cu2H 1_555 1_555
O4 C1 1_555 1_555
O5 C1 1_555 1_555
C1 C2 1_555 1_555
C2 C3 1_555 1_555
C3 H1 1_555 1_555
C4 C3 1_555 1_555
H2 C4 1_555 1_555
C5 C4 1_555 1_555
C6 C5 1_555 1_555
H3 C6 1_555 1_555
C7 C2 1_555 1_555
H4 C7 1_555 1_555
C8 C5 1_555 1_555
C9 C8 1_555 1_555
H5 C9 1_555 1_555
N1 Cu2 1_555 1_555
C10 N1 1_555 1_555
H6 C10 1_555 1_555
N2 C10 1_555 1_555
C11 C8 1_555 1_555
H7 C11 1_555 1_555
O6 Cu1 1_555 1_555
O7 C12 1_555 1_555
C12 O6 1_555 1_555
C13 C12 1_555 1_555
C14 C13 1_555 1_555
H8 C14 1_555 1_555
C15 C14 1_555 1_555
H9 C15 1_555 1_555
C16 C15 1_555 1_555
C17 C16 1_555 1_555
H10 C17 1_555 1_555
C18 C13 1_555 1_555
H11 C18 1_555 1_555
C19 C16 1_555 1_555
C20 C19 1_555 1_555
H12 C20 1_555 1_555
N3 C20 1_555 1_555
C21 N3 1_555 1_555
H13 C21 1_555 1_555
N4 C21 1_555 1_555
C22 C19 1_555 1_555
H14 C22 1_555 1_555
O8 C23 1_555 1_555
C23 H15 1_555 1_555
N5 C23 1_555 1_555
C24 N5 1_555 1_555
H16 C24 1_555 1_555
H17 C24 1_555 1_555
H18 C24 1_555 1_555
C25 N5 1_555 1_555
H19 C25 1_555 1_555
H20 C25 1_555 1_555
H21 C25 1_555 1_555
O9 C26 1_555 1_555
C26 H22 1_555 1_555
N6 C26 1_555 1_555
C27 N6 1_555 1_555
H23 C27 1_555 1_555
H24 C27 1_555 1_555
H25 C27 1_555 1_555
C28 N6 1_555 1_555
H26 C28 1_555 1_555
H27 C28 1_555 1_555
H28 C28 1_555 1_555
O10 C29 1_555 1_555
C29 H29 1_555 1_555
N7 C29 1_555 1_555
C30 N7 1_555 1_555
H30 C30 1_555 1_555
H31 C30 1_555 1_555
H32 C30 1_555 1_555
C31 N7 1_555 1_555
H33 C31 1_555 1_555
H34 C31 1_555 1_555
H35 C31 1_555 1_555
O11 C32 1_555 1_555
C32 H36 1_555 1_555
N8 C32 1_555 1_555
C33 N8 1_555 1_555
H37 C33 1_555 1_555
H38 C33 1_555 1_555
H39 C33 1_555 1_555
C34 N8 1_555 1_555
H40 C34 1_555 1_555
H41 C34 1_555 1_555
H42 C34 1_555 1_555
Cu1G N4 1_555 1_555
Cu1L O5 1_555 1_555
Cu2H I1H 1_555 1_555
Cu2I N3 1_555 1_555
I1H Cu2 1_555 1_555
O5L Cu1 1_555 1_555
O7L Cu1 1_555 1_555
N3I Cu2 1_555 1_555
N4F Cu1 1_555 1_555
C6 C7 1_555 1_555
C9 N1 1_555 1_555
N2 C11 1_555 1_555
O7 Cu1L 1_555 1_555
C17 C18 1_555 1_555
N4 C22 1_555 1_555

#END
