
#######################################################################
#
#                 Cambridge Crystallographic Data Centre
#                                CCDC 
#
#######################################################################
#
# If this CIF has been generated from an entry in the Cambridge 
# Structural Database, then it will include bibliographic, chemical, 
# crystal, experimental, refinement or atomic coordinate data resulting 
# from the CCDC's data processing and validation procedures.
#
#######################################################################

data_KADLUZ
_chemical_formula_moiety         '(C42 H52 Cu2 I1 N8 O9)n'
_symmetry_cell_setting           rhombohedral
_symmetry_space_group_name_H-M   'R -3'
_symmetry_Int_Tables_number      148
_space_group_name_Hall           '-R 3'
loop_
_symmetry_equiv_pos_site_id
_symmetry_equiv_pos_as_xyz
1 x,y,z
2 -y,x-y,z
3 -x+y,-x,z
4 2/3+x,1/3+y,1/3+z
5 2/3-y,1/3+x-y,1/3+z
6 2/3-x+y,1/3-x,1/3+z
7 1/3+x,2/3+y,2/3+z
8 1/3-y,2/3+x-y,2/3+z
9 1/3-x+y,2/3-x,2/3+z
10 -x,-y,-z
11 y,-x+y,-z
12 x-y,x,-z
13 1/3-x,2/3-y,2/3-z
14 1/3+y,2/3-x+y,2/3-z
15 1/3+x-y,2/3+x,2/3-z
16 2/3-x,1/3-y,1/3-z
17 2/3+y,1/3-x+y,1/3-z
18 2/3+x-y,1/3+x,1/3-z
_cell_length_a                   40.463(5)
_cell_length_b                   40.463(5)
_cell_length_c                   15.710(2)
_cell_angle_alpha                90
_cell_angle_beta                 90
_cell_angle_gamma                120
_cell_volume                     22275.3
loop_
_atom_site_label
_atom_site_type_symbol
_atom_site_fract_x
_atom_site_fract_y
_atom_site_fract_z
Cu1 Cu 0.51401(2) 0.50417(2) 0.42055(3)
Cu2 Cu 0.18701(2) 0.36831(2) 0.35748(3)
I1 I 0.21158(2) 0.32165(2) 0.39369(2)
O1 O 0.48697(8) 0.44904(7) 0.41543(17)
O2 O 0.46290(8) 0.44209(7) 0.55204(17)
C1 C 0.46774(10) 0.42940(10) 0.4801(2)
C2 C 0.44925(7) 0.38770(4) 0.47088(15)
C3 C 0.45845(7) 0.37188(6) 0.40275(13)
H1 H 0.4764 0.3880 0.3613
C4 C 0.44140(8) 0.33248(6) 0.39521(13)
H2 H 0.4477 0.3217 0.3486
C5 C 0.41514(7) 0.30889(4) 0.45581(15)
C6 C 0.40594(7) 0.32471(6) 0.52395(13)
H3 H 0.3880 0.3086 0.5654
C7 C 0.42299(7) 0.36411(6) 0.53148(13)
H4 H 0.4167 0.3749 0.5780
C8 C 0.39795(7) 0.26803(4) 0.44948(13)
C9 C 0.38191(7) 0.24867(5) 0.37402(11)
H5 H 0.3826 0.2624 0.3245
N1 N 0.36488(7) 0.20915(5) 0.37107(10)
C10 C 0.36390(7) 0.18899(4) 0.44358(12)
H6 H 0.3523 0.1620 0.4416
N2 N 0.37995(7) 0.20836(5) 0.51904(10)
C11 C 0.39697(7) 0.24787(5) 0.52200(11)
H7 H 0.4079 0.2611 0.5736
O3 O 0.46780(7) 0.50341(8) 0.37646(17)
O4 O 0.44450(7) 0.49687(8) 0.51304(17)
C12 C 0.44233(10) 0.49858(10) 0.4304(2)
C13 C 0.40571(5) 0.49384(7) 0.39341(14)
C14 C 0.40059(6) 0.49664(8) 0.30676(13)
H8 H 0.4214 0.5043 0.2687
C15 C 0.36503(7) 0.48820(8) 0.27586(11)
H9 H 0.3615 0.4901 0.2166
C16 C 0.33457(5) 0.47696(8) 0.33161(15)
C17 C 0.33969(5) 0.47416(8) 0.41826(13)
H10 H 0.3189 0.4665 0.4564
C18 C 0.37525(6) 0.48260(8) 0.44916(11)
H11 H 0.3787 0.4807 0.5084
C19 C 0.29561(5) 0.46411(7) 0.29720(17)
C20 C 0.28783(6) 0.48517(6) 0.23891(18)
H12 H 0.3081 0.5082 0.2162
N3 N 0.25043(7) 0.47256(7) 0.21391(18)
C21 C 0.22082(5) 0.43891(7) 0.24720(17)
H13 H 0.1953 0.4303 0.2301
N4 N 0.22861(5) 0.41785(6) 0.30549(15)
C22 C 0.26600(6) 0.43045(7) 0.33049(15)
H14 H 0.2713 0.4161 0.3703
Cu1I Cu 0.48599(2) 0.49583(2) 0.57945(3)
Cu1N Cu 0.34317(3) 0.18068(2) 0.24612(3)
Cu2J Cu 0.36831(2) 0.18130(3) 0.64252(3)
Cu2L Cu 0.14632(2) 0.29836(2) 0.30919(3)
I1L I 0.12175(2) 0.34502(2) 0.27298(2)
O2I O 0.53710(8) 0.55791(7) 0.44796(17)
N1M N 0.54248(5) 0.51094(9) 0.29560(10)
N2K N 0.17159(9) 0.37995(7) 0.48096(10)
O4I O 0.55550(7) 0.50313(8) 0.48696(17)
O5 O 0.4576(4) 0.3184(3) 0.7063(10)
C23 C 0.4520(3) 0.3445(3) 0.7305(7)
C24 C 0.4169(3) 0.3391(4) 0.7760(10)
H15 H 0.4118 0.3232 0.8275
H16 H 0.3943 0.3269 0.7382
C25 C 0.4265(3) 0.3795(3) 0.7997(6)
H17 H 0.4064 0.3848 0.7792
H18 H 0.4290 0.3832 0.8621
C26 C 0.4636(3) 0.4050(3) 0.7565(6)
H19 H 0.4602 0.4202 0.7115
H20 H 0.4826 0.4228 0.7981
N5 N 0.4763(2) 0.3802(3) 0.7198(5)
C27 C 0.5113(4) 0.3947(4) 0.6674(9)
H21 H 0.5253 0.4226 0.6685
H22 H 0.5275 0.3851 0.6904
H23 H 0.5043 0.3859 0.6086
O6 O 0.36360(8) 0.38374(10) 0.6333(2)
C28 C 0.33010(12) 0.35929(13) 0.6443(3)
C29 C 0.31539(13) 0.32554(14) 0.7044(4)
H24 H 0.3252 0.3341 0.7628
H25 H 0.3234 0.3073 0.6851
C30 C 0.27224(13) 0.30712(14) 0.7024(3)
H26 H 0.2627 0.3121 0.7561
H27 H 0.2602 0.2792 0.6941
C31 C 0.26350(11) 0.32594(12) 0.6257(3)
H28 H 0.2523 0.3077 0.5778
H29 H 0.2456 0.3348 0.6425
N6 N 0.30036(10) 0.35801(10) 0.6021(2)
C32 C 0.30390(15) 0.38582(15) 0.5375(3)
H30 H 0.3308 0.4056 0.5316
H31 H 0.2889 0.3976 0.5548
H32 H 0.2944 0.3728 0.4828
O7 O 0.2665(2) 0.4572(2) 0.5511(4)
C33 C 0.2501(3) 0.4719(2) 0.5860(7)
C34 C 0.2418(3) 0.4726(3) 0.6842(7)
H33 H 0.2300 0.4466 0.7088
H34 H 0.2657 0.4895 0.7156
C35 C 0.2156(4) 0.4875(5) 0.6874(9)
H35 H 0.2244 0.5082 0.7301
H36 H 0.1898 0.4670 0.7037
C36 C 0.2147(3) 0.5025(3) 0.6006(7)
H37 H 0.1880 0.4937 0.5832
H38 H 0.2290 0.5307 0.6006
N7 N 0.2324(2) 0.4876(2) 0.5426(6)
C37 C 0.2336(3) 0.4926(3) 0.4514(7)
H39 H 0.2185 0.5047 0.4358
H40 H 0.2601 0.5089 0.4331
H41 H 0.2228 0.4677 0.4234
O8 O 0.2419(5) 0.5919(3) 0.5237(14)
C38 C 0.2412(4) 0.6194(4) 0.5041(15)
C39 C 0.2697(6) 0.6534(6) 0.5600(18)
H42 H 0.2672 0.6459 0.6207
H43 H 0.2963 0.6628 0.5415
C40 C 0.2588(5) 0.6831(5) 0.5469(14)
H44 H 0.2818 0.7083 0.5374
H45 H 0.2449 0.6847 0.5971
C41 C 0.2327(6) 0.6702(5) 0.4667(16)
H46 H 0.2098 0.6726 0.4760
H47 H 0.2467 0.6855 0.4162
N8 N 0.2229(5) 0.6324(4) 0.4567(12)
C42 C 0.1948(5) 0.6085(5) 0.3891(15)
H48 H 0.1898 0.5822 0.3932
H49 H 0.2054 0.6189 0.3329
H50 H 0.1709 0.6088 0.3972
O9 O 0.5275(5) 0.3115(4) 0.7625(11)
loop_
_geom_bond_atom_site_label_1
_geom_bond_atom_site_label_2
_geom_bond_site_symmetry_1
_geom_bond_site_symmetry_2
Cu1 O1 1_555 1_555
Cu2 I1 1_555 1_555
I1 Cu2L 1_555 1_555
O1 C1 1_555 1_555
O2 C1 1_555 1_555
C1 C2 1_555 1_555
C2 C3 1_555 1_555
C3 H1 1_555 1_555
C4 C3 1_555 1_555
H2 C4 1_555 1_555
C5 C4 1_555 1_555
C6 C5 1_555 1_555
H3 C6 1_555 1_555
C7 C2 1_555 1_555
H4 C7 1_555 1_555
C8 C5 1_555 1_555
C9 C8 1_555 1_555
H5 C9 1_555 1_555
N1 C9 1_555 1_555
C10 N1 1_555 1_555
H6 C10 1_555 1_555
N2 C10 1_555 1_555
C11 C8 1_555 1_555
H7 C11 1_555 1_555
O3 Cu1 1_555 1_555
O4 C12 1_555 1_555
C12 O3 1_555 1_555
C13 C12 1_555 1_555
C14 C13 1_555 1_555
H8 C14 1_555 1_555
C15 C14 1_555 1_555
H9 C15 1_555 1_555
C16 C15 1_555 1_555
C17 C16 1_555 1_555
H10 C17 1_555 1_555
C18 C13 1_555 1_555
H11 C18 1_555 1_555
C19 C16 1_555 1_555
C20 C19 1_555 1_555
H12 C20 1_555 1_555
N3 C20 1_555 1_555
C21 N3 1_555 1_555
H13 C21 1_555 1_555
N4 Cu2 1_555 1_555
C22 C19 1_555 1_555
H14 C22 1_555 1_555
O5 C23 1_555 1_555
C23 C24 1_555 1_555
C24 H15 1_555 1_555
H16 C24 1_555 1_555
C25 C24 1_555 1_555
H17 C25 1_555 1_555
H18 C25 1_555 1_555
C26 C25 1_555 1_555
H19 C26 1_555 1_555
H20 C26 1_555 1_555
N5 C23 1_555 1_555
C27 N5 1_555 1_555
H21 C27 1_555 1_555
H22 C27 1_555 1_555
H23 C27 1_555 1_555
O6 C28 1_555 1_555
C28 C29 1_555 1_555
C29 H24 1_555 1_555
H25 C29 1_555 1_555
C30 C29 1_555 1_555
H26 C30 1_555 1_555
H27 C30 1_555 1_555
C31 C30 1_555 1_555
H28 C31 1_555 1_555
H29 C31 1_555 1_555
N6 C28 1_555 1_555
C32 N6 1_555 1_555
H30 C32 1_555 1_555
H31 C32 1_555 1_555
H32 C32 1_555 1_555
O7 C33 1_555 1_555
C33 C34 1_555 1_555
C34 H33 1_555 1_555
H34 C34 1_555 1_555
C35 C34 1_555 1_555
H35 C35 1_555 1_555
H36 C35 1_555 1_555
C36 C35 1_555 1_555
H37 C36 1_555 1_555
H38 C36 1_555 1_555
N7 C33 1_555 1_555
C37 N7 1_555 1_555
H39 C37 1_555 1_555
H40 C37 1_555 1_555
H41 C37 1_555 1_555
O8 C38 1_555 1_555
C38 C39 1_555 1_555
C39 H42 1_555 1_555
H43 C39 1_555 1_555
C40 C39 1_555 1_555
H44 C40 1_555 1_555
H45 C40 1_555 1_555
C41 C40 1_555 1_555
H46 C41 1_555 1_555
H47 C41 1_555 1_555
N8 C38 1_555 1_555
C42 N8 1_555 1_555
H48 C42 1_555 1_555
H49 C42 1_555 1_555
H50 C42 1_555 1_555
Cu1I O2 1_555 1_555
Cu1N N1 1_555 1_555
Cu2J N2 1_555 1_555
Cu2L I1L 1_555 1_555
I1L Cu2 1_555 1_555
O2I Cu1 1_555 1_555
N1M Cu1 1_555 1_555
N2K Cu2 1_555 1_555
O4I Cu1 1_555 1_555
C6 C7 1_555 1_555
N2 C11 1_555 1_555
O4 Cu1I 1_555 1_555
C17 C18 1_555 1_555
C21 N4 1_555 1_555
N4 C22 1_555 1_555
C26 N5 1_555 1_555
C31 N6 1_555 1_555
C36 N7 1_555 1_555
C41 N8 1_555 1_555

#END
