
#######################################################################
#
#                 Cambridge Crystallographic Data Centre
#                                CCDC 
#
#######################################################################
#
# If this CIF has been generated from an entry in the Cambridge 
# Structural Database, then it will include bibliographic, chemical, 
# crystal, experimental, refinement or atomic coordinate data resulting 
# from the CCDC's data processing and validation procedures.
#
#######################################################################

data_FIFMOX
_chemical_formula_moiety         '(C47 H36 Ag1 Co1 F3 N11 O3 S1)n'
_symmetry_cell_setting           orthorhombic
_symmetry_space_group_name_H-M   'P b c n'
_symmetry_Int_Tables_number      60
_space_group_name_Hall           '-P 2n 2ab'
loop_
_symmetry_equiv_pos_site_id
_symmetry_equiv_pos_as_xyz
1 x,y,z
2 1/2-x,1/2-y,1/2+z
3 -x,y,1/2-z
4 1/2+x,1/2-y,-z
5 -x,-y,-z
6 1/2+x,1/2+y,1/2-z
7 x,-y,1/2+z
8 1/2-x,1/2+y,z
_cell_length_a                   26.713(3)
_cell_length_b                   12.5800(13)
_cell_length_c                   33.455(3)
_cell_angle_alpha                90
_cell_angle_beta                 90
_cell_angle_gamma                90
_cell_volume                     11242.5
loop_
_atom_site_label
_atom_site_type_symbol
_atom_site_fract_x
_atom_site_fract_y
_atom_site_fract_z
C1 C -0.7832(4) -0.3341(8) -0.4888(3)
C45 C -0.8146(5) -0.2775(10) -0.5027(4)
N10 N -0.8578(6) -0.2060(13) -0.5138(5)
Ag1 Ag -0.280080(14) 0.25889(3) -0.362320(10)
C2 C 0.01247(18) 0.6732(4) -0.35696(13)
H1 H 0.0417 0.7162 -0.3563
C3 C -0.03486(18) 0.7082(4) -0.34568(17)
H2 H -0.0435 0.7775 -0.3368
C4 C -0.06670(17) 0.6227(4) -0.34997(15)
H3 H -0.1015 0.6214 -0.3442
C5 C -0.03750(15) 0.5372(4) -0.36470(12)
C6 C -0.05399(15) 0.4354(4) -0.37476(12)
C7 C -0.02453(16) 0.3561(3) -0.39110(12)
C8 C -0.04066(18) 0.2528(4) -0.40271(13)
H4 H -0.0738 0.2258 -0.4012
C9 C 0.00060(18) 0.2000(4) -0.41641(14)
H5 H 0.0017 0.1295 -0.4266
C10 C 0.04137(18) 0.2706(4) -0.41246(13)
H6 H 0.0749 0.2539 -0.4196
C11 C -0.10748(16) 0.4095(4) -0.36786(12)
C12 C -0.12088(16) 0.3390(4) -0.33768(12)
H7 H -0.0963 0.3110 -0.3201
C13 C -0.17085(17) 0.3104(4) -0.33379(13)
H8 H -0.1796 0.2619 -0.3132
C14 C -0.19426(18) 0.4178(4) -0.38459(15)
H9 H -0.2198 0.4469 -0.4010
C15 C -0.14549(17) 0.4522(4) -0.39060(15)
H10 H -0.1384 0.5047 -0.4102
C16 C 0.05052(17) 0.3542(4) -0.31416(14)
H11 H 0.0302 0.3055 -0.3286
C17 C 0.06096(18) 0.3471(5) -0.27269(14)
H12 H 0.0495 0.2939 -0.2547
C18 C 0.09049(19) 0.4311(5) -0.26380(14)
H13 H 0.1031 0.4484 -0.2381
C19 C 0.09935(17) 0.4890(4) -0.29964(13)
C20 C 0.12831(17) 0.5794(4) -0.30444(13)
C21 C 0.13569(16) 0.6335(4) -0.34032(13)
C22 C 0.16677(18) 0.7229(4) -0.34766(16)
H14 H 0.1871 0.7583 -0.3285
C23 C 0.1622(2) 0.7491(4) -0.38703(16)
H15 H 0.1779 0.8066 -0.4005
C24 C 0.12941(17) 0.6731(4) -0.40360(13)
H16 H 0.1200 0.6712 -0.4310
C25 C 0.15366(18) 0.6218(5) -0.26794(13)
C26 C 0.18768(19) 0.5634(4) -0.24656(15)
H17 H 0.1972 0.4949 -0.2558
C27 C 0.20813(19) 0.6030(5) -0.21189(14)
H18 H 0.2319 0.5613 -0.1978
C28 C 0.1633(3) 0.7571(5) -0.21921(16)
H19 H 0.1552 0.8262 -0.2098
C29 C 0.1418(2) 0.7224(5) -0.25406(16)
H20 H 0.1192 0.7665 -0.2684
C30 C 0.15683(19) 0.3501(5) -0.37218(14)
H21 H 0.1531 0.3524 -0.3440
C31 C 0.1934(2) 0.2911(6) -0.39225(18)
H22 H 0.2188 0.2489 -0.3803
C32 C 0.1857(2) 0.3057(5) -0.43248(16)
H23 H 0.2038 0.2735 -0.4537
C33 C 0.14517(17) 0.3784(4) -0.43624(13)
C34 C 0.12467(17) 0.4190(3) -0.47132(12)
C35 C 0.08551(16) 0.4920(3) -0.47375(12)
C36 C 0.06820(17) 0.5469(4) -0.50804(13)
H24 H 0.0796 0.5376 -0.5347
C37 C 0.03144(18) 0.6166(4) -0.49522(13)
H25 H 0.0128 0.6647 -0.5113
C38 C 0.02718(16) 0.6018(3) -0.45365(13)
H26 H 0.0040 0.6388 -0.4372
C39 C 0.14714(17) 0.3802(4) -0.50935(12)
C40 C 0.19636(19) 0.4020(4) -0.52037(14)
H27 H 0.2169 0.4450 -0.5038
C41 C 0.21485(18) 0.3612(4) -0.55517(14)
H28 H 0.2484 0.3775 -0.5623
C42 C 0.14067(17) 0.2786(4) -0.56967(13)
H29 H 0.1211 0.2350 -0.5868
C43 C 0.11858(17) 0.3179(4) -0.53513(13)
H30 H 0.0846 0.3025 -0.5292
C44 C -0.3953(6) 0.5275(14) -0.3555(4)
Co1 Co 0.06876(2) 0.48538(4) -0.385320(15)
F1 F -0.4253(5) 0.5020(6) -0.3938(6)
F2 F -0.4177(2) 0.5968(6) -0.3347(3)
F3 F -0.4052(3) 0.4343(9) -0.3281(6)
N1 N 0.01194(13) 0.5713(3) -0.36884(10)
N2 N 0.02682(12) 0.3641(3) -0.39734(10)
N3 N -0.20718(14) 0.3470(3) -0.35732(11)
N4 N 0.07331(13) 0.4391(3) -0.33032(10)
N5 N 0.11334(12) 0.6049(3) -0.37646(10)
N6 N 0.19561(17) 0.6975(4) -0.19759(12)
N7 N 0.12781(13) 0.4030(3) -0.39806(10)
N8 N 0.05968(13) 0.5293(3) -0.44010(10)
N9 N 0.18790(15) 0.2988(3) -0.58002(11)
O1 O -0.3338(4) 0.4220(6) -0.3800(4)
O2 O -0.3083(3) 0.5468(5) -0.3373(3)
O3 O -0.3428(3) 0.6221(6) -0.4066(5)
S1 S -0.33883(6) 0.52383(12) -0.36772(5)
Ag1C Ag 0.219920(14) 0.24111(3) -0.637680(10)
Ag1E Ag 0.219920(14) 0.75889(3) -0.137680(10)
N6E N -0.30439(17) 0.1975(4) -0.30241(12)
N9C N -0.31210(15) 0.2012(3) -0.41998(11)
C46 C -0.7174(5) -0.7758(12) -0.7802(5)
C47 C -0.6894(5) -0.6995(12) -0.7752(4)
N11 N -0.6575(6) -0.6033(13) -0.7638(5)
loop_
_geom_bond_atom_site_label_1
_geom_bond_atom_site_label_2
_geom_bond_site_symmetry_1
_geom_bond_site_symmetry_2
C1 C45 1_555 1_555
Ag1 N3 1_555 1_555
C2 H1 1_555 1_555
C3 C2 1_555 1_555
H2 C3 1_555 1_555
C4 C3 1_555 1_555
H3 C4 1_555 1_555
C5 C4 1_555 1_555
C6 C5 1_555 1_555
C7 C6 1_555 1_555
C8 C7 1_555 1_555
H4 C8 1_555 1_555
C9 C8 1_555 1_555
H5 C9 1_555 1_555
C10 C9 1_555 1_555
H6 C10 1_555 1_555
C11 C6 1_555 1_555
C12 C11 1_555 1_555
H7 C12 1_555 1_555
C13 C12 1_555 1_555
H8 C13 1_555 1_555
C14 H9 1_555 1_555
C15 C11 1_555 1_555
H10 C15 1_555 1_555
C16 H11 1_555 1_555
C17 C16 1_555 1_555
H12 C17 1_555 1_555
C18 C17 1_555 1_555
H13 C18 1_555 1_555
C19 C18 1_555 1_555
C20 C19 1_555 1_555
C21 C20 1_555 1_555
C22 C21 1_555 1_555
H14 C22 1_555 1_555
C23 C22 1_555 1_555
H15 C23 1_555 1_555
C24 C23 1_555 1_555
H16 C24 1_555 1_555
C25 C20 1_555 1_555
C26 C25 1_555 1_555
H17 C26 1_555 1_555
C27 C26 1_555 1_555
H18 C27 1_555 1_555
C28 H19 1_555 1_555
C29 C25 1_555 1_555
H20 C29 1_555 1_555
C30 H21 1_555 1_555
C31 C30 1_555 1_555
H22 C31 1_555 1_555
C32 C31 1_555 1_555
H23 C32 1_555 1_555
C33 C32 1_555 1_555
C34 C33 1_555 1_555
C35 C34 1_555 1_555
C36 C35 1_555 1_555
H24 C36 1_555 1_555
C37 C36 1_555 1_555
H25 C37 1_555 1_555
C38 C37 1_555 1_555
H26 C38 1_555 1_555
C39 C34 1_555 1_555
C40 C39 1_555 1_555
H27 C40 1_555 1_555
C41 C40 1_555 1_555
H28 C41 1_555 1_555
C42 H29 1_555 1_555
C43 C39 1_555 1_555
H30 C43 1_555 1_555
C44 F1 1_555 1_555
C45 N10 1_555 1_555
C46 C47 1_555 1_555
C47 N11 1_555 1_555
Co1 N1 1_555 1_555
F2 C44 1_555 1_555
F3 C44 1_555 1_555
N1 C2 1_555 1_555
N2 C7 1_555 1_555
N3 C13 1_555 1_555
N4 C16 1_555 1_555
N5 C21 1_555 1_555
N6 C27 1_555 1_555
N7 C30 1_555 1_555
N8 C35 1_555 1_555
N9 C41 1_555 1_555
O1 Ag1 1_555 1_555
O2 S1 1_555 1_555
O3 S1 1_555 1_555
S1 C44 1_555 1_555
Ag1C N9 1_555 1_555
Ag1E N6 1_555 1_555
N6E Ag1 1_555 1_555
N9C Ag1 1_555 1_555
C5 N1 1_555 1_555
C10 N2 1_555 1_555
C14 C15 1_555 1_555
C14 N3 1_555 1_555
C19 N4 1_555 1_555
C24 N5 1_555 1_555
C28 C29 1_555 1_555
C28 N6 1_555 1_555
C33 N7 1_555 1_555
C38 N8 1_555 1_555
C42 C43 1_555 1_555
C42 N9 1_555 1_555
Co1 N2 1_555 1_555
Co1 N4 1_555 1_555
Co1 N5 1_555 1_555
Co1 N7 1_555 1_555
Co1 N8 1_555 1_555
O1 S1 1_555 1_555

#END
