
#######################################################################
#
#                 Cambridge Crystallographic Data Centre
#                                CCDC 
#
#######################################################################
#
# If this CIF has been generated from an entry in the Cambridge 
# Structural Database, then it will include bibliographic, chemical, 
# crystal, experimental, refinement or atomic coordinate data resulting 
# from the CCDC's data processing and validation procedures.
#
#######################################################################

data_HALVAU
_chemical_formula_moiety         '(C59 H71 N5 Ni4 O29)n'
_symmetry_cell_setting           triclinic
_symmetry_space_group_name_H-M   'P -1'
_symmetry_Int_Tables_number      2
_space_group_name_Hall           '-P 1'
loop_
_symmetry_equiv_pos_site_id
_symmetry_equiv_pos_as_xyz
1 x,y,z
2 -x,-y,-z
_cell_length_a                   10.070(3)
_cell_length_b                   13.107(5)
_cell_length_c                   15.216(5)
_cell_angle_alpha                78.420(8)
_cell_angle_beta                 76.527(9)
_cell_angle_gamma                68.204(8)
_cell_volume                     1798.86
loop_
_atom_site_label
_atom_site_type_symbol
_atom_site_fract_x
_atom_site_fract_y
_atom_site_fract_z
Ni1 Ni 1.01571(3) 0.57777(3) 0.34037(2)
Ni2 Ni 0.73771(4) 0.80245(3) 0.26034(2)
C1 C 0.2480(3) 0.6292(3) 0.2036(2)
C2 C 0.4048(3) 0.5999(3) 0.1612(2)
C3 C 0.4453(3) 0.6271(3) 0.0692(2)
H1 H 0.3745 0.6627 0.0329
C4 C 0.5902(3) 0.6021(3) 0.0305(2)
H2 H 0.6158 0.6197 -0.0320
C5 C 0.5109(3) 0.5465(3) 0.2134(2)
H3 H 0.4849 0.5251 0.2751
C6 C 0.6551(3) 0.5243(3) 0.1755(2)
H4 H 0.7255 0.4905 0.2124
C7 C 0.6970(3) 0.5518(2) 0.08236(19)
C8 C 0.8524(3) 0.5277(2) 0.04055(19)
C9 C 0.9049(3) 0.4807(2) -0.04014(19)
H5 H 0.8409 0.4673 -0.0679
C10 C 0.9503(3) 0.5467(2) 0.08057(19)
C11 C 0.9065(3) 0.6001(2) 0.16613(18)
C12 C 0.6971(3) 0.6173(2) 0.40770(18)
C13 C 0.5937(3) 0.5594(2) 0.45945(18)
C14 C 0.6300(3) 0.4497(2) 0.44842(18)
H6 H 0.7192 0.4153 0.4135
C15 C 0.5394(3) 0.3884(2) 0.48709(18)
C16 C 0.5856(3) 0.2724(2) 0.46698(19)
C17 C 0.7297(3) 0.2041(3) 0.4665(2)
H7 H 0.7943 0.2297 0.4827
C18 C 0.7770(3) 0.0992(2) 0.4424(2)
H8 H 0.8733 0.0543 0.4429
C19 C 0.4923(3) 0.2312(3) 0.4444(2)
H9 H 0.3951 0.2748 0.4460
C20 C 0.5410(3) 0.1259(3) 0.4195(2)
H10 H 0.4767 0.0995 0.4039
C21 C 0.6848(3) 0.0597(2) 0.4175(2)
C22 C 0.7418(3) -0.0516(2) 0.3834(2)
C23 C 1.1839(4) 0.3509(3) 0.3117(2)
H11 H 1.2258 0.3894 0.2618
C24 C 1.3145(6) 0.1903(4) 0.2347(3)
H12 H 1.3500 0.2428 0.1917
H13 H 1.2641 0.1609 0.2055
H14 H 1.3947 0.1311 0.2566
C25 C 1.1521(6) 0.1801(4) 0.3837(3)
H15 H 1.1431 0.2053 0.4406
H16 H 1.2127 0.1036 0.3853
H17 H 1.0577 0.1881 0.3740
C26 C 0.4288(3) 0.8691(3) 0.2662(2)
H18 H 0.4302 0.8524 0.3284
C27 C 0.2962(5) 0.9166(4) 0.1436(3)
H19 H 0.3755 0.9398 0.1097
H20 H 0.2059 0.9739 0.1340
H21 H 0.3016 0.8501 0.1233
C28 C 0.1738(4) 0.8960(4) 0.3039(3)
H22 H 0.1639 0.8244 0.3123
H23 H 0.0912 0.9510 0.2810
H24 H 0.1794 0.9129 0.3612
N1 N 1.2158(3) 0.2448(2) 0.3109(2)
N2 N 0.3049(3) 0.8949(3) 0.2396(2)
O1 O 0.1584(2) 0.71055(19) 0.16631(16)
O2 O 0.2180(2) 0.56941(18) 0.27525(14)
O3 O 0.8125(2) 0.69541(17) 0.16506(13)
O4 O 0.9707(2) 0.54418(17) 0.22986(13)
O5 O 0.8265(2) 0.56983(16) 0.41990(13)
O6 O 0.6499(2) 0.70293(16) 0.35602(14)
O7 O 0.8669(3) -0.11208(18) 0.39769(17)
O8 O 0.6642(2) -0.07376(17) 0.34258(15)
O9 O 1.1022(2) 0.40384(17) 0.37404(14)
O10 O 0.5443(2) 0.86522(18) 0.21441(15)
O11 O 1.0683(2) 0.60826(18) 0.45249(14)
H25 H 1.1419 0.5716 0.4777
H26 H 0.9951 0.6277 0.4945
O12 O 0.93637(19) 0.74297(15) 0.29644(13)
H27 H 1.0136 0.7445 0.2597
H28 H 0.9290 0.7755 0.3413
O13 O 0.8112(3) 0.9161(2) 0.15849(17)
H29 H 0.7307 0.9053 0.1673
H30 H 0.8282 0.9182 0.2101
C1A C 1.7520(3) 0.3708(3) -0.2036(2)
C2A C 1.5952(3) 0.4001(3) -0.1612(2)
C3A C 1.5547(3) 0.3729(3) -0.0692(2)
H1A H 1.6255 0.3373 -0.0329
C4A C 1.4098(3) 0.3979(3) -0.0305(2)
H2A H 1.3842 0.3803 0.0320
C5A C 1.4891(3) 0.4535(3) -0.2134(2)
H3A H 1.5151 0.4749 -0.2751
C6A C 1.3449(3) 0.4757(3) -0.1755(2)
H4A H 1.2745 0.5095 -0.2124
C7A C 1.3030(3) 0.4482(2) -0.08236(19)
C8A C 1.1476(3) 0.4723(2) -0.04055(19)
C9A C 1.0951(3) 0.5193(2) 0.04014(19)
H5A H 1.1591 0.5327 0.0679
C10A C 1.0497(3) 0.4533(2) -0.08057(19)
C11A C 1.0935(3) 0.3999(2) -0.16613(18)
O1A O 1.8416(2) 0.28945(19) -0.16631(16)
O2A O 1.7820(2) 0.43059(18) -0.27525(14)
O3A O 1.1875(2) 0.30459(17) -0.16506(13)
O4A O 1.0293(2) 0.45582(17) -0.22986(13)
C12A C 0.3029(3) 0.3827(2) 0.59230(18)
C13A C 0.4063(3) 0.4406(2) 0.54055(18)
C14A C 0.3700(3) 0.5503(2) 0.55158(18)
H6A H 0.2808 0.5847 0.5865
C15A C 0.4606(3) 0.6116(2) 0.51291(18)
C16A C 0.4144(3) 0.7276(2) 0.53302(19)
C17A C 0.2703(3) 0.7959(3) 0.5335(2)
H7A H 0.2057 0.7703 0.5173
C18A C 0.2230(3) 0.9008(2) 0.5576(2)
H8A H 0.1267 0.9457 0.5571
C19A C 0.5077(3) 0.7688(3) 0.5556(2)
H9A H 0.6049 0.7252 0.5540
C20A C 0.4590(3) 0.8741(3) 0.5805(2)
H10A H 0.5233 0.9005 0.5961
C21A C 0.3152(3) 0.9403(2) 0.5825(2)
C22A C 0.2582(3) 1.0516(2) 0.6166(2)
O5A O 0.1735(2) 0.43017(16) 0.58010(13)
O6A O 0.3501(2) 0.29707(16) 0.64398(14)
O7A O 0.1331(3) 1.11208(18) 0.60231(17)
O8A O 0.3358(2) 1.07376(17) 0.65742(15)
Ni1A Ni -0.01571(3) 0.42223(3) 0.65963(2)
Ni2A Ni 0.26229(4) 0.19755(3) 0.73966(2)
C23A C -0.1839(4) 0.6491(3) 0.6883(2)
H11A H -0.2258 0.6106 0.7382
C24A C -0.3145(6) 0.8097(4) 0.7653(3)
H12A H -0.3500 0.7572 0.8083
H13A H -0.2641 0.8391 0.7945
H14A H -0.3947 0.8689 0.7434
C25A C -0.1521(6) 0.8199(4) 0.6163(3)
H15A H -0.1431 0.7947 0.5594
H16A H -0.2127 0.8964 0.6147
H17A H -0.0577 0.8119 0.6260
C26A C 0.5712(3) 0.1309(3) 0.7338(2)
H18A H 0.5698 0.1476 0.6716
C27A C 0.7038(5) 0.0834(4) 0.8564(3)
H19A H 0.6245 0.0602 0.8903
H20A H 0.7941 0.0261 0.8660
H21A H 0.6984 0.1499 0.8767
C28A C 0.8262(4) 0.1040(4) 0.6961(3)
H22A H 0.8361 0.1756 0.6877
H23A H 0.9088 0.0490 0.7190
H24A H 0.8206 0.0871 0.6388
N1A N -0.2158(3) 0.7552(2) 0.6891(2)
N2A N 0.6951(3) 0.1051(3) 0.7604(2)
O9A O -0.1022(2) 0.59616(17) 0.62596(14)
O10A O 0.4557(2) 0.13478(18) 0.78559(15)
O11A O -0.0683(2) 0.39174(18) 0.54751(14)
H25A H -0.1419 0.4284 0.5223
H26A H 0.0049 0.3723 0.5055
O12A O 0.06363(19) 0.25703(15) 0.70356(13)
H27A H -0.0136 0.2555 0.7403
H28A H 0.0710 0.2245 0.6587
O13A O 0.1888(3) 0.0839(2) 0.84151(17)
H29A H 0.2693 0.0947 0.8327
H30A H 0.1718 0.0818 0.7899
Ni1_2 Ni 0.01571(3) 0.57777(3) 0.34037(2)
Ni1A_2 Ni 0.98429(3) 0.42223(3) -0.34037(2)
Ni1A_3 Ni 1.98429(3) 0.42223(3) -0.34037(2)
Ni2_2 Ni 0.73771(4) -0.19755(3) 0.26034(2)
Ni2A_2 Ni 0.26229(4) 1.19755(3) 0.73966(2)
Ni2A_3 Ni 1.26229(4) 0.19755(3) -0.26034(2)
O2_2 O 1.2180(2) 0.56941(18) 0.27525(14)
O2A_2 O -0.2180(2) 0.43059(18) 0.72475(14)
O3A_2 O 0.1875(2) 0.30459(17) 0.83494(13)
O4A_2 O 0.0293(2) 0.45582(17) 0.77014(13)
O8_2 O 0.6642(2) 0.92624(17) 0.34258(15)
O8A_2 O 0.3358(2) 0.07376(17) 0.65742(15)
C29 C 0.9149(6) 0.1592(5) 0.0438(4)
H31 H 0.8555 0.1458 0.0122
C30 C 0.9442(9) 0.2288(7) 0.1711(5)
H32 H 0.9854 0.1660 0.2134
H33 H 0.8838 0.2902 0.2037
H34 H 1.0208 0.2483 0.1289
C31 C 0.7042(7) 0.2209(6) 0.1598(5)
H35 H 0.6546 0.2981 0.1657
H36 H 0.6952 0.1780 0.2185
H37 H 0.6620 0.1990 0.1195
N3 N 0.8557(5) 0.2028(4) 0.1222(3)
O14 O 1.0455(5) 0.1361(4) 0.0120(3)
O15 O 0.5633(4) 0.0650(3) 0.0750(3)
H38 H 0.5398 0.0200 0.1189
H39 H 0.5018 0.1293 0.0818
O16 O 0.6876(4) 0.8294(3) 1.0046(2)
H40 H 0.7529 0.8572 0.9783
H41 H 0.7169 0.7856 1.0509
loop_
_geom_bond_atom_site_label_1
_geom_bond_atom_site_label_2
_geom_bond_site_symmetry_1
_geom_bond_site_symmetry_2
Ni1 O4 1_555 1_555
Ni2 O3 1_555 1_555
C1 C2 1_555 1_555
C2 C3 1_555 1_555
C3 H1 1_555 1_555
C4 C3 1_555 1_555
H2 C4 1_555 1_555
C5 C2 1_555 1_555
H3 C5 1_555 1_555
C6 C5 1_555 1_555
H4 C6 1_555 1_555
C7 C4 1_555 1_555
C8 C7 1_555 1_555
C9 C8 1_555 1_555
H5 C9 1_555 1_555
C10 C8 1_555 1_555
C11 C10 1_555 1_555
C12 C13 1_555 1_555
C13 C14 1_555 1_555
C14 H6 1_555 1_555
C15 C14 1_555 1_555
C16 C15 1_555 1_555
C17 C16 1_555 1_555
H7 C17 1_555 1_555
C18 C17 1_555 1_555
H8 C18 1_555 1_555
C19 C16 1_555 1_555
H9 C19 1_555 1_555
C20 C19 1_555 1_555
H10 C20 1_555 1_555
C21 C18 1_555 1_555
C22 C21 1_555 1_555
C23 H11 1_555 1_555
C24 H12 1_555 1_555
H13 C24 1_555 1_555
H14 C24 1_555 1_555
C25 H15 1_555 1_555
H16 C25 1_555 1_555
H17 C25 1_555 1_555
C26 H18 1_555 1_555
C27 H19 1_555 1_555
H20 C27 1_555 1_555
H21 C27 1_555 1_555
C28 H22 1_555 1_555
H23 C28 1_555 1_555
H24 C28 1_555 1_555
N1 C23 1_555 1_555
N2 C26 1_555 1_555
O1 C1 1_555 1_555
O2 C1 1_555 1_555
O3 C11 1_555 1_555
O4 C11 1_555 1_555
O5 Ni1 1_555 1_555
O6 Ni2 1_555 1_555
O7 C22 1_555 1_555
O8 C22 1_555 1_555
O9 Ni1 1_555 1_555
O10 Ni2 1_555 1_555
O11 Ni1 1_555 1_555
H25 O11 1_555 1_555
H26 O11 1_555 1_555
O12 Ni1 1_555 1_555
H27 O12 1_555 1_555
H28 O12 1_555 1_555
O13 Ni2 1_555 1_555
H29 O13 1_555 1_555
H30 O13 1_555 1_555
C29 H31 1_555 1_555
C30 H32 1_555 1_555
H33 C30 1_555 1_555
H34 C30 1_555 1_555
C31 H35 1_555 1_555
H36 C31 1_555 1_555
H37 C31 1_555 1_555
N3 C29 1_555 1_555
O14 C29 1_555 1_555
O15 H38 1_555 1_555
H39 O15 1_555 1_555
O16 H40 1_555 1_555
H41 O16 1_555 1_555
C1A C2A 1_555 1_555
C2A C3A 1_555 1_555
C3A H1A 1_555 1_555
C4A C3A 1_555 1_555
H2A C4A 1_555 1_555
C5A C2A 1_555 1_555
H3A C5A 1_555 1_555
C6A C5A 1_555 1_555
H4A C6A 1_555 1_555
C7A C4A 1_555 1_555
C8A C7A 1_555 1_555
C9A C10 1_555 1_555
H5A C9A 1_555 1_555
C10A C9 1_555 1_555
C11A C10A 1_555 1_555
O1A C1A 1_555 1_555
O2A C1A 1_555 1_555
O3A C11A 1_555 1_555
O4A C11A 1_555 1_555
C12A C13A 1_555 1_555
C13A C15 1_555 1_555
C14A C13A 1_555 1_555
H6A C14A 1_555 1_555
C15A C13 1_555 1_555
C16A C15A 1_555 1_555
C17A C16A 1_555 1_555
H7A C17A 1_555 1_555
C18A C17A 1_555 1_555
H8A C18A 1_555 1_555
C19A C16A 1_555 1_555
H9A C19A 1_555 1_555
C20A C19A 1_555 1_555
H10A C20A 1_555 1_555
C21A C18A 1_555 1_555
C22A C21A 1_555 1_555
O5A C12A 1_555 1_555
O6A C12A 1_555 1_555
O7A C22A 1_555 1_555
O8A C22A 1_555 1_555
Ni1A O5A 1_555 1_555
Ni2A O6A 1_555 1_555
C23A H11A 1_555 1_555
C24A H12A 1_555 1_555
H13A C24A 1_555 1_555
H14A C24A 1_555 1_555
C25A H15A 1_555 1_555
H16A C25A 1_555 1_555
H17A C25A 1_555 1_555
C26A H18A 1_555 1_555
C27A H19A 1_555 1_555
H20A C27A 1_555 1_555
H21A C27A 1_555 1_555
C28A H22A 1_555 1_555
H23A C28A 1_555 1_555
H24A C28A 1_555 1_555
N1A C23A 1_555 1_555
N2A C26A 1_555 1_555
O9A Ni1A 1_555 1_555
O10A Ni2A 1_555 1_555
O11A Ni1A 1_555 1_555
H25A O11A 1_555 1_555
H26A O11A 1_555 1_555
O12A Ni1A 1_555 1_555
H27A O12A 1_555 1_555
H28A O12A 1_555 1_555
O13A Ni2A 1_555 1_555
H29A O13A 1_555 1_555
H30A O13A 1_555 1_555
Ni1_2 O2 1_555 1_555
Ni1A_2 O4A 1_555 1_555
Ni1A_3 O2A 1_555 1_555
Ni2_2 O8 1_555 1_555
Ni2A_2 O8A 1_555 1_555
Ni2A_3 O3A 1_555 1_555
O2_2 Ni1 1_555 1_555
O2A_2 Ni1A 1_555 1_555
O3A_2 Ni2A 1_555 1_555
O4A_2 Ni1A 1_555 1_555
O8_2 Ni2 1_555 1_555
O8A_2 Ni2A 1_555 1_555
Ni2 O12 1_555 1_555
C6 C7 1_555 1_555
C12 O5 1_555 1_555
C12 O6 1_555 1_555
C20 C21 1_555 1_555
C23 O9 1_555 1_555
C24 N1 1_555 1_555
C25 N1 1_555 1_555
C26 O10 1_555 1_555
C27 N2 1_555 1_555
C28 N2 1_555 1_555
C30 N3 1_555 1_555
C31 N3 1_555 1_555
C6A C7A 1_555 1_555
C8A C9A 1_555 1_555
C8A C10A 1_555 1_555
C14A C15A 1_555 1_555
C20A C21A 1_555 1_555
Ni2A O12A 1_555 1_555
C23A O9A 1_555 1_555
C24A N1A 1_555 1_555
C25A N1A 1_555 1_555
C26A O10A 1_555 1_555
C27A N2A 1_555 1_555
C28A N2A 1_555 1_555

#END
