
#######################################################################
#
#                 Cambridge Crystallographic Data Centre
#                                CCDC 
#
#######################################################################
#
# If this CIF has been generated from an entry in the Cambridge 
# Structural Database, then it will include bibliographic, chemical, 
# crystal, experimental, refinement or atomic coordinate data resulting 
# from the CCDC's data processing and validation procedures.
#
#######################################################################

data_VIDXOX
_chemical_formula_moiety         '(C30 H44 Er4 O43)n'
_symmetry_cell_setting           triclinic
_symmetry_space_group_name_H-M   'P -1'
_symmetry_Int_Tables_number      2
_space_group_name_Hall           '-P 1'
loop_
_symmetry_equiv_pos_site_id
_symmetry_equiv_pos_as_xyz
1 x,y,z
2 -x,-y,-z
_cell_length_a                   10.4135(2)
_cell_length_b                   10.5541(2)
_cell_length_c                   14.0372(4)
_cell_angle_alpha                99.5950(10)
_cell_angle_beta                 99.6200(10)
_cell_angle_gamma                108.8430(10)
_cell_volume                     1398.72
loop_
_atom_site_label
_atom_site_type_symbol
_atom_site_fract_x
_atom_site_fract_y
_atom_site_fract_z
Er1 Er 1.035843(18) 0.535827(18) 0.178552(14)
Er2 Er 0.458221(18) -0.065384(18) -0.181988(14)
O1 O 0.4001(4) -0.2405(3) -0.0955(3)
O2 O 1.2464(4) 0.6164(5) 0.3011(3)
O3 O 0.6383(4) 0.0405(4) -0.2567(4)
O4 O 0.3576(5) 0.0153(4) -0.3104(3)
O5 O 0.5523(5) -0.2245(4) -0.2508(4)
O6 O 1.1188(4) 0.7644(3) 0.1462(3)
O7 O 0.6376(4) -0.0069(4) -0.0469(3)
O8 O 0.7270(4) 0.0420(4) 0.1164(3)
O9 O 0.9238(3) 0.3101(3) 0.0574(2)
O10 O 1.0802(4) 0.3249(3) 0.1890(3)
C1 C 0.9983(4) 0.1208(4) 0.0557(3)
C2 C 0.8723(4) 0.0120(4) 0.0095(3)
C3 C 1.1248(4) 0.1089(4) 0.0468(3)
H1 H 1.2079 0.1817 0.0783
C4 C 0.9991(4) 0.2586(4) 0.1056(4)
C5 C 0.7350(4) 0.0177(4) 0.0270(4)
O11 O 0.8688(3) 0.5575(3) 0.0677(3)
O12 O 0.7932(3) 0.4506(4) -0.0932(3)
O13 O 0.5256(3) 0.1783(3) -0.1144(3)
O14 O 0.4973(6) 0.2849(5) -0.2363(4)
C6 C 0.5119(4) 0.3982(4) -0.0719(3)
C7 C 0.6316(4) 0.4984(4) -0.0068(3)
C8 C 0.6188(4) 0.5993(4) 0.0649(4)
H2 H 0.6985 0.6655 0.1085
C9 C 0.5151(4) 0.2795(4) -0.1470(3)
C10 C 0.7748(4) 0.5014(4) -0.0118(3)
O15 O 0.8457(4) 0.4070(4) 0.2294(3)
O16 O 0.7262(4) 0.2477(4) 0.2991(3)
O17 O 0.9998(5) 0.6842(4) 0.2989(3)
O18 O 0.8753(5) 0.7451(5) 0.3942(4)
C11 C 0.9698(5) 0.5801(5) 0.4349(4)
C12 C 0.9171(5) 0.4352(4) 0.4039(3)
C13 C 0.9489(5) 0.3583(5) 0.4697(4)
H3 H 0.9143 0.2627 0.4487
C14 C 0.9438(5) 0.6740(5) 0.3697(4)
C15 C 0.8231(4) 0.3577(4) 0.3033(3)
O7A O 1.3624(4) 0.0069(4) 0.0469(3)
O9A O 1.0762(3) -0.3101(3) -0.0574(2)
O10A O 0.9198(4) -0.3249(3) -0.1890(3)
C1A C 1.0017(4) -0.1208(4) -0.0557(3)
C2A C 1.1277(4) -0.0120(4) -0.0095(3)
C3A C 0.8752(4) -0.1089(4) -0.0468(3)
H1A H 0.7921 -0.1817 -0.0783
C4A C 1.0009(4) -0.2586(4) -0.1056(4)
C5A C 1.2650(4) -0.0177(4) -0.0270(4)
O8A O 1.2730(4) -0.0420(4) -0.1164(3)
O11A O 0.1312(3) 0.4425(3) -0.0677(3)
O13A O 0.4744(3) 0.8217(3) 0.1144(3)
O14A O 0.5027(6) 0.7151(5) 0.2363(4)
C6A C 0.4881(4) 0.6018(4) 0.0719(3)
C7A C 0.3684(4) 0.5016(4) 0.0068(3)
C8A C 0.3812(4) 0.4007(4) -0.0649(4)
H2A H 0.3015 0.3345 -0.1085
C9A C 0.4849(4) 0.7205(4) 0.1470(3)
C10A C 0.2252(4) 0.4986(4) 0.0118(3)
O12A O 0.2068(3) 0.5494(4) 0.0932(3)
O15A O 1.1543(4) 0.5930(4) 0.7706(3)
O17A O 1.0002(5) 0.3158(4) 0.7011(3)
O18A O 1.1247(5) 0.2549(5) 0.6058(4)
C11A C 1.0302(5) 0.4199(5) 0.5651(4)
C12A C 1.0829(5) 0.5648(4) 0.5961(3)
C13A C 1.0511(5) 0.6417(5) 0.5303(4)
H3A H 1.0857 0.7373 0.5513
C14A C 1.0562(5) 0.3260(5) 0.6303(4)
C15A C 1.1769(4) 0.6423(4) 0.6967(3)
O16A O 1.2738(4) 0.7523(4) 0.7009(3)
Er2A Er 0.541779(18) 0.065384(18) 0.181988(14)
O1A O 0.5999(4) 0.2405(3) 0.0955(3)
O3A O 0.3617(4) -0.0405(4) 0.2567(4)
O4A O 0.6424(5) -0.0153(4) 0.3104(3)
O5A O 0.4477(5) 0.2245(4) 0.2508(4)
Er1A Er 0.964157(18) 0.464173(18) -0.178552(14)
O2A O 0.7536(4) 0.3836(5) -0.3011(3)
O6A O 0.8812(4) 0.2356(3) -0.1462(3)
Er1_2 Er 0.035843(18) 0.535827(18) 0.178552(14)
Er1A_2 Er -0.035843(18) 0.464173(18) -0.178552(14)
Er1A_3 Er 0.964157(18) -0.535827(18) -0.178552(14)
Er1A_4 Er 0.964157(18) 0.464173(18) 0.821448(14)
Er2_2 Er 1.458221(18) -0.065384(18) -0.181988(14)
Er2_3 Er 1.458221(18) 0.934616(18) 0.818012(14)
Er2A_2 Er 0.541779(18) 1.065384(18) 0.181988(14)
Er2A_3 Er 1.541779(18) 0.065384(18) 0.181988(14)
O7A_2 O 0.3624(4) 0.0069(4) 0.0469(3)
O8A_2 O 0.2730(4) -0.0420(4) -0.1164(3)
O9A_2 O 1.0762(3) 0.6899(3) -0.0574(2)
O10A_2 O 0.9198(4) 0.6751(3) -0.1890(3)
O11A_2 O 1.1312(3) 0.4425(3) -0.0677(3)
O12A_2 O 1.2068(3) 0.5494(4) 0.0932(3)
O13A_2 O 0.4744(3) -0.1783(3) 0.1144(3)
O15A_2 O 1.1543(4) 0.5930(4) -0.2294(3)
O16A_2 O 0.2738(4) -0.2477(4) -0.2991(3)
O17A_2 O 1.0002(5) 0.3158(4) -0.2989(3)
O19 O 0.9472(8) 0.9075(7) 0.2191(6)
O20 O 0.8041(7) 0.8132(7) 0.6929(5)
O21 O 0.5761(10) 0.5065(8) 0.3015(8)
O22 O 0.662(2) 0.712(3) 0.5006(11)
O23 O 0.6224(9) 0.2577(13) 0.4969(6)
O24 O 0.8659(15) 0.0005(12) 0.4450(14)
O25 O 0.631(2) 0.002(2) 0.5490(10)
loop_
_geom_bond_atom_site_label_1
_geom_bond_atom_site_label_2
_geom_bond_site_symmetry_1
_geom_bond_site_symmetry_2
Er1 O2 1_555 1_555
Er2 O1 1_555 1_555
O3 Er2 1_555 1_555
O4 Er2 1_555 1_555
O5 Er2 1_555 1_555
O6 Er1 1_555 1_555
O7 Er2 1_555 1_555
O8 C5 1_555 1_555
O9 Er1 1_555 1_555
O10 Er1 1_555 1_555
C1 C2 1_555 1_555
C2 C5 1_555 1_555
C3 C1 1_555 1_555
H1 C3 1_555 1_555
C4 O9 1_555 1_555
C5 O7 1_555 1_555
O11 Er1 1_555 1_555
O12 C10 1_555 1_555
O13 Er2 1_555 1_555
O14 C9 1_555 1_555
C6 C7 1_555 1_555
C7 C8 1_555 1_555
C8 H2 1_555 1_555
C9 O13 1_555 1_555
C10 O11 1_555 1_555
O15 Er1 1_555 1_555
O16 C15 1_555 1_555
O17 Er1 1_555 1_555
O18 C14 1_555 1_555
C11 C12 1_555 1_555
C12 C13 1_555 1_555
C13 H3 1_555 1_555
C14 O17 1_555 1_555
C15 O15 1_555 1_555
O7A C5A 1_555 1_555
O9A C4A 1_555 1_555
O10A C4A 1_555 1_555
C1A C2A 1_555 1_555
C2A C3 1_555 1_555
C3A C2 1_555 1_555
H1A C3A 1_555 1_555
C4A C1A 1_555 1_555
C5A C2A 1_555 1_555
O8A C5A 1_555 1_555
O11A C10A 1_555 1_555
O13A C9A 1_555 1_555
O14A C9A 1_555 1_555
C6A C8 1_555 1_555
C7A C6A 1_555 1_555
C8A C6 1_555 1_555
H2A C8A 1_555 1_555
C9A C6A 1_555 1_555
C10A C7A 1_555 1_555
O12A C10A 1_555 1_555
O15A C15A 1_555 1_555
O17A C14A 1_555 1_555
O18A C14A 1_555 1_555
C11A C13 1_555 1_555
C12A C11A 1_555 1_555
C13A C11 1_555 1_555
H3A C13A 1_555 1_555
C14A C11A 1_555 1_555
C15A C12A 1_555 1_555
O16A C15A 1_555 1_555
Er2A O8 1_555 1_555
O1A Er2A 1_555 1_555
O3A Er2A 1_555 1_555
O4A Er2A 1_555 1_555
O5A Er2A 1_555 1_555
Er1A O12 1_555 1_555
O2A Er1A 1_555 1_555
O6A Er1A 1_555 1_555
Er1_2 O12A 1_555 1_555
Er1A_2 O11A 1_555 1_555
Er1A_3 O9A 1_555 1_555
Er1A_4 O15A 1_555 1_555
Er2_2 O8A 1_555 1_555
Er2_3 O16A 1_555 1_555
Er2A_2 O13A 1_555 1_555
Er2A_3 O7A 1_555 1_555
O7A_2 Er2A 1_555 1_555
O8A_2 Er2 1_555 1_555
O9A_2 Er1A 1_555 1_555
O10A_2 Er1A 1_555 1_555
O11A_2 Er1A 1_555 1_555
O12A_2 Er1 1_555 1_555
O13A_2 Er2A 1_555 1_555
O15A_2 Er1A 1_555 1_555
O16A_2 Er2 1_555 1_555
O17A_2 Er1A 1_555 1_555
O10 C4 1_555 1_555
C1 C4 1_555 1_555
C6 C9 1_555 1_555
C7 C10 1_555 1_555
O16 Er2A 1_555 1_555
C11 C14 1_555 1_555
C12 C15 1_555 1_555
O10A Er1A_3 1_555 1_555
C1A C3A 1_555 1_555
C7A C8A 1_555 1_555
O17A Er1A_4 1_555 1_555
C12A C13A 1_555 1_555

#END
