
#######################################################################
#
#                 Cambridge Crystallographic Data Centre
#                                CCDC 
#
#######################################################################
#
# If this CIF has been generated from an entry in the Cambridge 
# Structural Database, then it will include bibliographic, chemical, 
# crystal, experimental, refinement or atomic coordinate data resulting 
# from the CCDC's data processing and validation procedures.
#
#######################################################################

data_KUTNIY
_chemical_formula_moiety         '(C34 H18 N6 O8 Zn2)n'
_symmetry_cell_setting           orthorhombic
_symmetry_space_group_name_H-M   'I m m a'
_symmetry_Int_Tables_number      74
_space_group_name_Hall           '-I 2b 2'
loop_
_symmetry_equiv_pos_site_id
_symmetry_equiv_pos_as_xyz
1 x,y,z
2 -x,1/2-y,z
3 x,-y,-z
4 -x,1/2+y,-z
5 1/2+x,1/2+y,1/2+z
6 1/2-x,-y,1/2+z
7 1/2+x,1/2-y,1/2-z
8 1/2-x,y,1/2-z
9 -x,-y,-z
10 x,1/2+y,-z
11 -x,y,z
12 x,1/2-y,z
13 1/2-x,1/2-y,1/2-z
14 1/2+x,y,1/2-z
15 1/2-x,1/2+y,1/2+z
16 1/2+x,-y,1/2+z
_cell_length_a                   24.135(5)
_cell_length_b                   35.096(5)
_cell_length_c                   18.028(5)
_cell_angle_alpha                90
_cell_angle_beta                 90
_cell_angle_gamma                90
_cell_volume                     15270.5
loop_
_atom_site_label
_atom_site_type_symbol
_atom_site_fract_x
_atom_site_fract_y
_atom_site_fract_z
_atom_site_U_iso_or_equiv
_atom_site_thermal_displace_type
Zn1 Zn 0.32137(2) 0.04092(2) 0.48784(2) 0.0349 Uani
O1 O 0.12866(10) -0.03565(8) 0.08221(13) 0.0365 Uani
C1 C 0.19688(15) -0.01390(13) 0.35315(19) 0.0356 Uani
O2 O 0.25464(9) -0.03816(9) 0.44637(13) 0.0406 Uani
C2 C 0.05083(13) -0.01917(12) 0.21973(18) 0.0304 Uani
C3 C 0.04978(14) -0.01011(12) 0.14398(19) 0.0362 Uani
O3 O 0.10998(9) 0.02644(9) 0.07019(13) 0.0346 Uani
C4 C 0.10352(14) -0.01917(12) 0.26312(19) 0.0329 Uani
O4 O 0.27209(10) 0.02076(10) 0.40310(13) 0.0461 Uani
C5 C 0.11382(15) -0.04649(13) 0.3159(2) 0.0431 Uani
H1 H 0.0889 -0.0664 0.3223 0.0520 Uiso
C6 C -0.0000 -0.02349(17) 0.2551(3) 0.0340 Uani
H2 H 0.0000 -0.0296 0.3053 0.0410 Uiso
C7 C 0.14045(15) 0.01043(13) 0.2550(2) 0.0428 Uani
H3 H 0.1343 0.0287 0.2186 0.0510 Uiso
N1 N 0.32295(13) 0.09738(12) 0.4675(2) 0.0513 Uani
C8 C -0.0000 -0.00516(17) 0.1093(3) 0.0387 Uani
H4 H -0.0000 0.0019 0.0596 0.0460 Uiso
C9 C 0.18649(14) 0.01339(14) 0.2999(2) 0.0399 Uani
H5 H 0.2106 0.0339 0.2943 0.0480 Uiso
C10 C 0.16083(16) -0.04460(14) 0.3594(2) 0.0457 Uani
H6 H 0.1684 -0.0640 0.3931 0.0550 Uiso
C11 C 0.24551(15) -0.01054(14) 0.4040(2) 0.0388 Uani
C12 C 0.10159(14) -0.00609(13) 0.09639(18) 0.0310 Uani
C13 C 0.2840(3) 0.1201(2) 0.4958(3) 0.1047 Uani
H7 H 0.2557 0.1097 0.5244 0.1250 Uiso
C14 C 0.3600(2) 0.11362(18) 0.4243(3) 0.1023 Uani
H8 H 0.3885 0.0987 0.4054 0.1230 Uiso
C15 C 0.2855(5) 0.1606(3) 0.4824(6) 0.1843 Uani
H9 H 0.2600 0.1764 0.5058 0.2210 Uiso
C16 C 0.3586(3) 0.1521(2) 0.4056(5) 0.1410 Uani
H10 H 0.3834 0.1612 0.3704 0.1690 Uiso
C17 C 0.3235(4) 0.1756(2) 0.4359(5) 0.1333 Uani
N2 N 0.3572(4) 0.23002(19) 0.3790(7) 0.2123 Uani
N3 N 0.2728(10) 0.2354(4) 0.4561(14) 0.5507 Uani
C18 C 0.3175(9) 0.2140(3) 0.4180(7) 0.2853 Uani
O1J O -0.12866(10) -0.03565(8) 0.08221(13) 0.0365 Uani
C1J C -0.19688(15) -0.01390(13) 0.35315(19) 0.0356 Uani
O2J O -0.25464(9) -0.03816(9) 0.44637(13) 0.0406 Uani
C2J C -0.05083(13) -0.01917(12) 0.21973(18) 0.0304 Uani
C3J C -0.04978(14) -0.01011(12) 0.14398(19) 0.0362 Uani
O3J O -0.10998(9) 0.02644(9) 0.07019(13) 0.0346 Uani
C4J C -0.10352(14) -0.01917(12) 0.26312(19) 0.0329 Uani
O4J O -0.27209(10) 0.02076(10) 0.40310(13) 0.0461 Uani
C5J C -0.11382(15) -0.04649(13) 0.3159(2) 0.0431 Uani
H1J H -0.0889 -0.0664 0.3223 0.0520 Uiso
C7J C -0.14045(15) 0.01043(13) 0.2550(2) 0.0428 Uani
H3J H -0.1343 0.0287 0.2186 0.0510 Uiso
C9J C -0.18649(14) 0.01339(14) 0.2999(2) 0.0399 Uani
H5J H -0.2106 0.0339 0.2943 0.0480 Uiso
C10J C -0.16083(16) -0.04460(14) 0.3594(2) 0.0457 Uani
H6J H -0.1684 -0.0640 0.3931 0.0550 Uiso
C11J C -0.24551(15) -0.01054(14) 0.4040(2) 0.0388 Uani
C12J C -0.10159(14) -0.00609(13) 0.09639(18) 0.0310 Uani
N1K N 0.32295(13) 0.40262(12) 0.4675(2) 0.0513 Uani
C13K C 0.2840(3) 0.3799(2) 0.4958(3) 0.1047 Uani
H7K H 0.2557 0.3903 0.5244 0.1250 Uiso
C14K C 0.3600(2) 0.38638(18) 0.4243(3) 0.1023 Uani
H8K H 0.3885 0.4013 0.4054 0.1230 Uiso
C15K C 0.2855(5) 0.3394(3) 0.4824(6) 0.1843 Uani
H9K H 0.2600 0.3236 0.5058 0.2210 Uiso
C16K C 0.3586(3) 0.3479(2) 0.4056(5) 0.1410 Uani
H10K H 0.3834 0.3388 0.3704 0.1690 Uiso
C17K C 0.3235(4) 0.3244(2) 0.4359(5) 0.1333 Uani
N2K N 0.3572(4) 0.26998(19) 0.3790(7) 0.2123 Uani
N3K N 0.2728(10) 0.2646(4) 0.4561(14) 0.5507 Uani
C18K C 0.3175(9) 0.2860(3) 0.4180(7) 0.2853 Uani
Zn1B Zn 0.32137(2) -0.04092(2) 0.51216(2) 0.0349 Uani
Zn1E Zn 0.17863(2) -0.04092(2) -0.01216(2) 0.0349 Uani
Zn1G Zn 0.17863(2) 0.04092(2) 0.01216(2) 0.0349 Uani
Zn1H Zn -0.32137(2) -0.04092(2) 0.51216(2) 0.0349 Uani
Zn1J Zn -0.32137(2) 0.04092(2) 0.48784(2) 0.0349 Uani
Zn1K Zn 0.32137(2) 0.45908(2) 0.48784(2) 0.0349 Uani
Zn1M Zn -0.17863(2) 0.04092(2) 0.01216(2) 0.0349 Uani
Zn1O Zn -0.17863(2) -0.04092(2) -0.01216(2) 0.0349 Uani
O1E O 0.37134(10) 0.03565(8) 0.58221(13) 0.0365 Uani
O1G O 0.37134(10) -0.03565(8) 0.41779(13) 0.0365 Uani
O2B O 0.25464(9) 0.03816(9) 0.55363(13) 0.0406 Uani
O3E O 0.39002(9) -0.02644(9) 0.57019(13) 0.0346 Uani
O3G O 0.39002(9) 0.02644(9) 0.42981(13) 0.0346 Uani
O4B O 0.27209(10) -0.02076(10) 0.59690(13) 0.0461 Uani
N1B N 0.32295(13) -0.09738(12) 0.5325(2) 0.0513 Uani
loop_
_atom_site_aniso_label
_atom_site_aniso_U_11
_atom_site_aniso_U_22
_atom_site_aniso_U_33
_atom_site_aniso_U_23
_atom_site_aniso_U_13
_atom_site_aniso_U_12
Zn1 0.016 0.0700(4) 0.0188(3) 0.0019(2) 0.00109(16) 0.0003(2)
O1 0.0123(12) 0.072(2) 0.0253(14) 0.0030(13) 0.0022(10) 0.0054(14)
C1 0.0166(19) 0.072(3) 0.0182(19) 0.003(2) 0.0034(15) -0.003(2)
O2 0.0106(12) 0.089(2) 0.0223(14) 0.0082(15) -0.0051(10) 0.0008(14)
C2 0.0117(18) 0.056(3) 0.0234(19) 0.0046(18) -0.0017(14) 0.0009(18)
C3 0.016(2) 0.073(3) 0.0195(19) -0.0053(19) 0.0023(14) -0.0003(18)
O3 0.0074(12) 0.070(2) 0.0264(14) 0.0011(14) 0.0069(10) 0.0008(13)
C4 0.0134(18) 0.062(3) 0.0233(19) 0.0029(19) 0.0048(14) 0.001(2)
O4 0.0140(13) 0.098(2) 0.0262(14) 0.0027(15) -0.0033(11) -0.0059(16)
C5 0.0182(19) 0.084(3) 0.027(2) 0.007(2) -0.0057(16) -0.005(2)
C6 0.021(3) 0.061(4) 0.020(3) 0.004(3) 0.000 0.000
C7 0.0123(19) 0.087(3) 0.029(2) 0.005(2) 0.0028(15) 0.000(2)
N1 0.034(2) 0.070(3) 0.050(2) -0.002(2) 0.0055(17) 0.013(2)
C8 0.018(3) 0.084(5) 0.014(3) 0.006(3) 0.000 0.000
C9 0.0128(19) 0.079(3) 0.028(2) 0.000(2) 0.0014(15) -0.010(2)
C10 0.025(2) 0.090(4) 0.022(2) 0.011(2) -0.0021(17) 0.004(2)
C11 0.0113(19) 0.080(4) 0.025(2) -0.005(2) 0.0033(16) -0.003(2)
C12 0.0128(19) 0.070(3) 0.0103(17) -0.0032(19) -0.0004(14) -0.004(2)
C13 0.097(6) 0.113(6) 0.104(5) 0.017(4) 0.048(4) 0.043(5)
C14 0.093(5) 0.079(5) 0.135(6) -0.002(4) 0.073(5) 0.006(4)
C15 0.281(14) 0.099(7) 0.173(9) 0.021(6) 0.082(9) 0.118(8)
C16 0.174(8) 0.065(5) 0.184(8) 0.012(5) 0.112(7) 0.016(5)
C17 0.215(10) 0.078(6) 0.107(6) -0.011(5) 0.050(6) 0.021(6)
N2 0.165(7) 0.053(4) 0.419(15) -0.003(6) -0.072(9) 0.002(5)
N3 0.77(4) 0.132(17) 0.75(4) 0.089(16) 0.22(3) 0.132(19)
C18 0.63(4) 0.069(8) 0.157(11) -0.010(7) -0.057(15) -0.060(14)
O1J 0.0123 0.072 0.0253 0.003 -0.0022 -0.0054
C1J 0.0166 0.072 0.0182 0.003 -0.0034 0.003
O2J 0.0106 0.089 0.0223 0.0082 0.0051 -0.0008
C2J 0.0117 0.056 0.0234 0.0046 0.0017 -0.0009
C3J 0.016 0.073 0.0195 -0.0053 -0.0023 0.0003
O3J 0.0074 0.07 0.0264 0.0011 -0.0069 -0.0008
C4J 0.0134 0.062 0.0233 0.0029 -0.0048 -0.001
O4J 0.014 0.098 0.0262 0.0027 0.0033 0.0059
C5J 0.0182 0.084 0.027 0.007 0.0057 0.005
C7J 0.0123 0.087 0.029 0.005 -0.0028 0
C9J 0.0128 0.079 0.028 0 -0.0014 0.01
C10J 0.025 0.09 0.022 0.011 0.0021 -0.004
C11J 0.0113 0.08 0.025 -0.005 -0.0033 0.003
C12J 0.0128 0.07 0.0103 -0.0032 0.0004 0.004
N1K 0.034 0.07 0.05 0.002 0.0055 -0.013
C13K 0.097 0.113 0.104 -0.017 0.048 -0.043
C14K 0.093 0.079 0.135 0.002 0.073 -0.006
C15K 0.281 0.099 0.173 -0.021 0.082 -0.118
C16K 0.174 0.065 0.184 -0.012 0.112 -0.016
C17K 0.215 0.078 0.107 0.011 0.05 -0.021
N2K 0.165 0.053 0.419 0.003 -0.072 -0.002
N3K 0.77 0.132 0.75 -0.089 0.22 -0.132
C18K 0.63 0.069 0.157 0.01 -0.057 0.06
Zn1B 0.016 0.07 0.0188 0.0019 -0.00109 -0.0003
Zn1E 0.016 0.07 0.0188 -0.0019 -0.00109 0.0003
Zn1G 0.016 0.07 0.0188 -0.0019 0.00109 -0.0003
Zn1H 0.016 0.07 0.0188 0.0019 0.00109 0.0003
Zn1J 0.016 0.07 0.0188 0.0019 -0.00109 -0.0003
Zn1K 0.016 0.07 0.0188 -0.0019 0.00109 -0.0003
Zn1M 0.016 0.07 0.0188 -0.0019 -0.00109 0.0003
Zn1O 0.016 0.07 0.0188 -0.0019 0.00109 -0.0003
O1E 0.0123 0.072 0.0253 -0.003 -0.0022 0.0054
O1G 0.0123 0.072 0.0253 -0.003 0.0022 -0.0054
O2B 0.0106 0.089 0.0223 0.0082 0.0051 -0.0008
O3E 0.0074 0.07 0.0264 -0.0011 -0.0069 0.0008
O3G 0.0074 0.07 0.0264 -0.0011 0.0069 -0.0008
O4B 0.014 0.098 0.0262 0.0027 0.0033 0.0059
N1B 0.034 0.07 0.05 -0.002 -0.0055 -0.013
loop_
_geom_bond_atom_site_label_1
_geom_bond_atom_site_label_2
_geom_bond_site_symmetry_1
_geom_bond_site_symmetry_2
Zn1 O4 1_555 1_555
O1 C12 1_555 1_555
C1 C9 1_555 1_555
O2 C11 1_555 1_555
C2 C3 1_555 1_555
C3 C8 1_555 1_555
O3 C12 1_555 1_555
C4 C2 1_555 1_555
O4 C11 1_555 1_555
C5 C4 1_555 1_555
H1 C5 1_555 1_555
C6 C2 1_555 1_555
H2 C6 1_555 1_555
C7 C4 1_555 1_555
H3 C7 1_555 1_555
N1 Zn1 1_555 1_555
C8 H4 1_555 1_555
C9 C7 1_555 1_555
H5 C9 1_555 1_555
C10 C1 1_555 1_555
H6 C10 1_555 1_555
C11 C1 1_555 1_555
C12 C3 1_555 1_555
C13 N1 1_555 1_555
H7 C13 1_555 1_555
C14 N1 1_555 1_555
H8 C14 1_555 1_555
C15 C13 1_555 1_555
H9 C15 1_555 1_555
C16 C14 1_555 1_555
H10 C16 1_555 1_555
C17 C15 1_555 1_555
N2 C18 1_555 1_555
N3 C18 1_555 1_555
C18 C17 1_555 1_555
O1J C12J 1_555 1_555
C1J C9J 1_555 1_555
O2J C11J 1_555 1_555
C2J C6 1_555 1_555
C3J C8 1_555 1_555
O3J C12J 1_555 1_555
C4J C2J 1_555 1_555
O4J C11J 1_555 1_555
C5J C4J 1_555 1_555
H1J C5J 1_555 1_555
C7J C4J 1_555 1_555
H3J C7J 1_555 1_555
C9J C7J 1_555 1_555
H5J C9J 1_555 1_555
C10J C1J 1_555 1_555
H6J C10J 1_555 1_555
C11J C1J 1_555 1_555
C12J C3J 1_555 1_555
N1K C13K 1_555 1_555
C13K H7K 1_555 1_555
C14K N1K 1_555 1_555
H8K C14K 1_555 1_555
C15K C13K 1_555 1_555
H9K C15K 1_555 1_555
C16K C14K 1_555 1_555
H10K C16K 1_555 1_555
C17K C15K 1_555 1_555
N2K N2 1_555 1_555
N3K N3 1_555 1_555
C18K C17K 1_555 1_555
Zn1B O2 1_555 1_555
Zn1E O1 1_555 1_555
Zn1G O3 1_555 1_555
Zn1H O2J 1_555 1_555
Zn1J O4J 1_555 1_555
Zn1K N1K 1_555 1_555
Zn1M O3J 1_555 1_555
Zn1O O1J 1_555 1_555
O1E Zn1 1_555 1_555
O1G Zn1B 1_555 1_555
O2B Zn1 1_555 1_555
O3E Zn1B 1_555 1_555
O3G Zn1 1_555 1_555
O4B Zn1B 1_555 1_555
N1B Zn1B 1_555 1_555
C5 C10 1_555 1_555
C16 C17 1_555 1_555
C2J C3J 1_555 1_555
C5J C10J 1_555 1_555
C16K C17K 1_555 1_555
N2K C18K 1_555 1_555
N3K C18K 1_555 1_555

#END
