
#######################################################################
#
#                 Cambridge Crystallographic Data Centre
#                                CCDC 
#
#######################################################################
#
# If this CIF has been generated from an entry in the Cambridge 
# Structural Database, then it will include bibliographic, chemical, 
# crystal, experimental, refinement or atomic coordinate data resulting 
# from the CCDC's data processing and validation procedures.
#
#######################################################################

data_KUWCOW
_chemical_formula_moiety         '(C34 H20 N6 O8 Zn2)n'
_symmetry_cell_setting           orthorhombic
_symmetry_space_group_name_H-M   'I m m a'
_symmetry_Int_Tables_number      74
_space_group_name_Hall           '-I 2b 2'
loop_
_symmetry_equiv_pos_site_id
_symmetry_equiv_pos_as_xyz
1 x,y,z
2 x,-y,-z
3 -x,1/2+y,-z
4 -x,1/2-y,z
5 1/2+x,1/2+y,1/2+z
6 1/2+x,1/2-y,1/2-z
7 1/2-x,y,1/2-z
8 1/2-x,-y,1/2+z
9 -x,-y,-z
10 -x,y,z
11 x,1/2-y,z
12 x,1/2+y,-z
13 1/2-x,1/2-y,1/2-z
14 1/2-x,1/2+y,1/2+z
15 1/2+x,-y,1/2+z
16 1/2+x,y,1/2-z
_cell_length_a                   24.369(7)
_cell_length_b                   34.057(8)
_cell_length_c                   17.832(4)
_cell_angle_alpha                90
_cell_angle_beta                 90
_cell_angle_gamma                90
_cell_volume                     14799.4
loop_
_atom_site_label
_atom_site_type_symbol
_atom_site_fract_x
_atom_site_fract_y
_atom_site_fract_z
_atom_site_U_iso_or_equiv
_atom_site_thermal_displace_type
Zn1 Zn -0.17631(2) -0.04190(2) 0.51412(2) 0.0197 Uani
C1 C -0.25326(10) 0.00941(9) 0.59568(15) 0.0281 Uani
C2 C -0.30262(10) 0.01327(9) 0.64421(15) 0.0263 Uani
C3 C -0.31313(10) -0.01378(10) 0.70032(16) 0.0316 Uani
H1 H -0.2884 -0.0341 0.7087 0.0380 Uiso
C4 C -0.36007(11) -0.01104(10) 0.74433(16) 0.0339 Uani
H2 H -0.3663 -0.0294 0.7820 0.0410 Uiso
C5 C -0.39774(10) 0.01905(9) 0.73212(14) 0.0266 Uani
C6 C -0.38769(10) 0.04626(9) 0.67544(16) 0.0320 Uani
H3 H -0.4127 0.0664 0.6664 0.0380 Uiso
C7 C -0.34051(11) 0.04335(10) 0.63255(17) 0.0353 Uani
H4 H -0.3340 0.0618 0.5952 0.0420 Uiso
C8 C -0.44959(9) 0.02030(9) 0.77617(14) 0.0236 Uani
C9 C -0.5000 0.02217(13) 0.7391(2) 0.0288 Uani
H5 H -0.5000 0.0248 0.6872 0.0340 Uiso
C10 C -0.45011(9) 0.01599(8) 0.85361(14) 0.0221 Uani
C11 C -0.39944(10) 0.01192(8) 0.90271(14) 0.0197 Uani
C12 C -0.5000 0.01322(13) 0.8919(2) 0.0274 Uani
H6 H -0.5000 0.0095 0.9435 0.0330 Uiso
C13 C -0.1660(3) -0.11200(12) 0.6104(2) 0.0980 Uani
H7 H -0.1727 -0.0939 0.6484 0.1180 Uiso
C14 C -0.1548(3) -0.14942(12) 0.6308(3) 0.1280 Uani
H8 H -0.1506 -0.1558 0.6812 0.1540 Uiso
C15 C -0.1500(2) -0.17683(11) 0.5792(2) 0.0687 Uani
C16 C -0.1430(2) -0.16434(12) 0.5063(3) 0.0697 Uani
H9 H -0.1316 -0.1817 0.4691 0.0840 Uiso
C17 C -0.15323(18) -0.12566(11) 0.4899(2) 0.0553 Uani
H10 H -0.1497 -0.1173 0.4405 0.0670 Uiso
C18 C -0.1413(3) -0.21786(11) 0.6009(2) 0.0973 Uani
N1 N -0.16805(9) -0.09944(7) 0.54167(14) 0.0315 Uani
N2 N -0.1229(4) -0.22942(11) 0.6629(3) 0.1993 Uani
N3 N -0.1573(2) -0.2500 0.5594(2) 0.0623 Uani
N4 N -0.1878(2) -0.2500 0.4964(3) 0.0853 Uani
H11 H -0.1994 -0.2718 0.4780 0.1020 Uiso
O1 O -0.24259(7) 0.03831(6) 0.55258(11) 0.0292 Uani
O2 O -0.22592(7) -0.02197(6) 0.59955(10) 0.0284 Uani
O3 O -0.37356(6) 0.04266(6) 0.91920(10) 0.0235 Uani
O4 O -0.39023(6) -0.02231(5) 0.92742(9) 0.0219 Uani
C1I C -0.74674(10) 0.00941(9) 0.59568(15) 0.0281 Uani
C2I C -0.69738(10) 0.01327(9) 0.64421(15) 0.0263 Uani
C3I C -0.68687(10) -0.01378(10) 0.70032(16) 0.0316 Uani
H1I H -0.7116 -0.0341 0.7087 0.0380 Uiso
C4I C -0.63993(11) -0.01104(10) 0.74433(16) 0.0339 Uani
H2I H -0.6337 -0.0294 0.7820 0.0410 Uiso
C5I C -0.60226(10) 0.01905(9) 0.73212(14) 0.0266 Uani
C6I C -0.61231(10) 0.04626(9) 0.67544(16) 0.0320 Uani
H3I H -0.5873 0.0664 0.6664 0.0380 Uiso
C7I C -0.65949(11) 0.04335(10) 0.63255(17) 0.0353 Uani
H4I H -0.6660 0.0618 0.5952 0.0420 Uiso
C8I C -0.55041(9) 0.02030(9) 0.77617(14) 0.0236 Uani
C10I C -0.54989(9) 0.01599(8) 0.85361(14) 0.0221 Uani
C11I C -0.60056(10) 0.01192(8) 0.90271(14) 0.0197 Uani
O1I O -0.75741(7) 0.03831(6) 0.55258(11) 0.0292 Uani
O2I O -0.77408(7) -0.02197(6) 0.59955(10) 0.0284 Uani
O3I O -0.62644(6) 0.04266(6) 0.91920(10) 0.0235 Uani
O4I O -0.60977(6) -0.02231(5) 0.92742(9) 0.0219 Uani
C13J C -0.1660(3) -0.38800(12) 0.6104(2) 0.0980 Uani
H7J H -0.1727 -0.4061 0.6484 0.1180 Uiso
C14J C -0.1548(3) -0.35058(12) 0.6308(3) 0.1280 Uani
H8J H -0.1506 -0.3442 0.6812 0.1540 Uiso
C15J C -0.1500(2) -0.32317(11) 0.5792(2) 0.0687 Uani
C16J C -0.1430(2) -0.33566(12) 0.5063(3) 0.0697 Uani
H9J H -0.1316 -0.3183 0.4691 0.0840 Uiso
C17J C -0.15323(18) -0.37434(11) 0.4899(2) 0.0553 Uani
H10J H -0.1497 -0.3827 0.4405 0.0670 Uiso
C18J C -0.1413(3) -0.28214(11) 0.6009(2) 0.0973 Uani
N1J N -0.16805(9) -0.40056(7) 0.54167(14) 0.0315 Uani
N2J N -0.1229(4) -0.27058(11) 0.6629(3) 0.1993 Uani
H11J H -0.1994 -0.2282 0.4780 0.1020 Uiso
Zn1A Zn -0.17631(2) 0.04190(2) 0.48588(2) 0.0197 Uani
Zn1F Zn -0.32369(2) -0.04190(2) 0.98588(2) 0.0197 Uani
Zn1G Zn -0.32369(2) 0.04190(2) 1.01412(2) 0.0197 Uani
Zn1H Zn -0.82369(2) 0.04190(2) 0.48588(2) 0.0197 Uani
Zn1I Zn -0.82369(2) -0.04190(2) 0.51412(2) 0.0197 Uani
Zn1J Zn -0.17631(2) -0.45810(2) 0.51412(2) 0.0197 Uani
Zn1N Zn -0.67631(2) 0.04190(2) 1.01412(2) 0.0197 Uani
Zn1O Zn -0.67631(2) -0.04190(2) 0.98588(2) 0.0197 Uani
N1A N -0.16805(9) 0.09944(7) 0.45833(14) 0.0315 Uani
O1A O -0.24259(7) -0.03831(6) 0.44742(11) 0.0292 Uani
O2A O -0.22592(7) 0.02197(6) 0.40045(10) 0.0284 Uani
O3F O -0.12644(6) 0.04266(6) 0.58080(10) 0.0235 Uani
O3G O -0.12644(6) -0.04266(6) 0.41920(10) 0.0235 Uani
O4F O -0.10977(6) -0.02231(5) 0.57258(9) 0.0219 Uani
O4G O -0.10977(6) 0.02231(5) 0.42742(9) 0.0219 Uani
loop_
_atom_site_aniso_label
_atom_site_aniso_U_11
_atom_site_aniso_U_22
_atom_site_aniso_U_33
_atom_site_aniso_U_23
_atom_site_aniso_U_13
_atom_site_aniso_U_12
Zn1 0.01269(16) 0.0280(2) 0.01831(19) 0.00105(13) -0.00113(11) -0.00051(13)
C1 0.0153(12) 0.053(2) 0.0161(15) -0.0033(14) -0.0017(10) -0.0013(13)
C2 0.0151(12) 0.0448(18) 0.0191(15) -0.0041(13) -0.0023(10) 0.0004(12)
C3 0.0196(13) 0.0448(19) 0.0304(17) 0.0052(15) -0.0014(11) 0.0068(13)
C4 0.0226(14) 0.057(2) 0.0220(16) 0.0037(15) 0.0014(11) 0.0040(14)
C5 0.0129(12) 0.0494(19) 0.0176(15) 0.0015(13) -0.0014(10) -0.0003(13)
C6 0.0186(12) 0.054(2) 0.0234(16) 0.0101(14) 0.0034(11) 0.0068(14)
C7 0.0221(13) 0.058(2) 0.0257(17) 0.0147(15) 0.0056(12) 0.0008(14)
C8 0.0161(12) 0.0364(18) 0.0182(15) 0.0045(12) 0.0007(10) -0.0018(12)
C9 0.0133(17) 0.054(3) 0.019(2) 0.0048(19) 0.000 0.000
C10 0.0124(12) 0.0305(16) 0.0233(15) -0.0010(12) 0.0002(10) 0.0031(11)
C11 0.0148(12) 0.0273(16) 0.0171(14) -0.0021(12) 0.0032(10) 0.0010(11)
C12 0.0153(17) 0.047(3) 0.020(2) 0.0040(19) 0.000 0.000
C13 0.230(6) 0.033(2) 0.031(2) -0.0033(18) -0.011(3) -0.008(3)
C14 0.322(8) 0.020(2) 0.042(3) 0.0001(19) -0.023(4) 0.015(3)
C15 0.146(4) 0.032(2) 0.028(2) 0.0053(17) -0.013(2) -0.006(2)
C16 0.093(3) 0.042(3) 0.074(3) 0.000(2) 0.002(2) -0.005(2)
C17 0.092(3) 0.039(2) 0.035(2) 0.0061(17) 0.0029(19) 0.007(2)
C18 0.230(6) 0.027(2) 0.035(2) 0.0024(18) -0.029(3) 0.000(3)
N1 0.0382(13) 0.0353(15) 0.0209(13) -0.0010(11) -0.0051(10) -0.0030(11)
N2 0.495(12) 0.030(2) 0.073(3) -0.001(2) -0.104(5) 0.004(4)
N3 0.120(4) 0.028(2) 0.039(3) 0.000 -0.007(3) 0.000
N4 0.131(5) 0.023(2) 0.102(5) 0.000 -0.058(4) 0.000
O1 0.0133(8) 0.0520(14) 0.0224(11) 0.0004(10) 0.0042(7) 0.0034(9)
O2 0.0151(8) 0.0447(13) 0.0253(11) 0.0003(9) 0.0055(7) 0.0024(9)
O3 0.0151(8) 0.0350(11) 0.0204(10) 0.0040(8) -0.0016(7) 0.0002(8)
O4 0.0152(8) 0.0283(11) 0.0223(10) 0.0011(8) -0.0041(7) -0.0018(8)
C1I 0.0153 0.053 0.0161 -0.0033 0.0017 0.0013
C2I 0.0151 0.0448 0.0191 -0.0041 0.0023 -0.0004
C3I 0.0196 0.0448 0.0304 0.0052 0.0014 -0.0068
C4I 0.0226 0.057 0.022 0.0037 -0.0014 -0.004
C5I 0.0129 0.0494 0.0176 0.0015 0.0014 0.0003
C6I 0.0186 0.054 0.0234 0.0101 -0.0034 -0.0068
C7I 0.0221 0.058 0.0257 0.0147 -0.0056 -0.0008
C8I 0.0161 0.0364 0.0182 0.0045 -0.0007 0.0018
C10I 0.0124 0.0305 0.0233 -0.001 -0.0002 -0.0031
C11I 0.0148 0.0273 0.0171 -0.0021 -0.0032 -0.001
O1I 0.0133 0.052 0.0224 0.0004 -0.0042 -0.0034
O2I 0.0151 0.0447 0.0253 0.0003 -0.0055 -0.0024
O3I 0.0151 0.035 0.0204 0.004 0.0016 -0.0002
O4I 0.0152 0.0283 0.0223 0.0011 0.0041 0.0018
C13J 0.23 0.033 0.031 0.0033 -0.011 0.008
C14J 0.322 0.02 0.042 -0.0001 -0.023 -0.015
C15J 0.146 0.032 0.028 -0.0053 -0.013 0.006
C16J 0.093 0.042 0.074 0 0.002 0.005
C17J 0.092 0.039 0.035 -0.0061 0.0029 -0.007
C18J 0.23 0.027 0.035 -0.0024 -0.029 0
N1J 0.0382 0.0353 0.0209 0.001 -0.0051 0.003
N2J 0.495 0.03 0.073 0.001 -0.104 -0.004
Zn1A 0.01269 0.028 0.01831 0.00105 0.00113 0.00051
Zn1F 0.01269 0.028 0.01831 -0.00105 -0.00113 0.00051
Zn1G 0.01269 0.028 0.01831 -0.00105 0.00113 -0.00051
Zn1H 0.01269 0.028 0.01831 0.00105 -0.00113 -0.00051
Zn1I 0.01269 0.028 0.01831 0.00105 0.00113 0.00051
Zn1J 0.01269 0.028 0.01831 -0.00105 -0.00113 0.00051
Zn1N 0.01269 0.028 0.01831 -0.00105 -0.00113 0.00051
Zn1O 0.01269 0.028 0.01831 -0.00105 0.00113 -0.00051
N1A 0.0382 0.0353 0.0209 -0.001 0.0051 0.003
O1A 0.0133 0.052 0.0224 0.0004 -0.0042 -0.0034
O2A 0.0151 0.0447 0.0253 0.0003 -0.0055 -0.0024
O3F 0.0151 0.035 0.0204 -0.004 -0.0016 -0.0002
O3G 0.0151 0.035 0.0204 -0.004 0.0016 0.0002
O4F 0.0152 0.0283 0.0223 -0.0011 -0.0041 0.0018
O4G 0.0152 0.0283 0.0223 -0.0011 0.0041 -0.0018
loop_
_geom_bond_atom_site_label_1
_geom_bond_atom_site_label_2
_geom_bond_site_symmetry_1
_geom_bond_site_symmetry_2
Zn1 N1 1_555 1_555
C1 C2 1_555 1_555
C2 C3 1_555 1_555
C3 H1 1_555 1_555
C4 C3 1_555 1_555
H2 C4 1_555 1_555
C5 C4 1_555 1_555
C6 C5 1_555 1_555
H3 C6 1_555 1_555
C7 C2 1_555 1_555
H4 C7 1_555 1_555
C8 C5 1_555 1_555
C9 C8 1_555 1_555
H5 C9 1_555 1_555
C10 C8 1_555 1_555
C11 C10 1_555 1_555
C12 C10 1_555 1_555
H6 C12 1_555 1_555
C13 H7 1_555 1_555
C14 C13 1_555 1_555
H8 C14 1_555 1_555
C15 C14 1_555 1_555
C16 C15 1_555 1_555
H9 C16 1_555 1_555
C17 C16 1_555 1_555
H10 C17 1_555 1_555
C18 C15 1_555 1_555
N1 C13 1_555 1_555
N2 C18 1_555 1_555
N3 C18 1_555 1_555
N4 N3 1_555 1_555
H11 N4 1_555 1_555
O1 C1 1_555 1_555
O2 Zn1 1_555 1_555
O3 C11 1_555 1_555
O4 C11 1_555 1_555
C1I C2I 1_555 1_555
C2I C3I 1_555 1_555
C3I H1I 1_555 1_555
C4I C3I 1_555 1_555
H2I C4I 1_555 1_555
C5I C4I 1_555 1_555
C6I C5I 1_555 1_555
H3I C6I 1_555 1_555
C7I C2I 1_555 1_555
H4I C7I 1_555 1_555
C8I C9 1_555 1_555
C10I C12 1_555 1_555
C11I C10I 1_555 1_555
O1I C1I 1_555 1_555
O2I C1I 1_555 1_555
O3I C11I 1_555 1_555
O4I C11I 1_555 1_555
C13J H7J 1_555 1_555
C14J C13J 1_555 1_555
H8J C14J 1_555 1_555
C15J C14J 1_555 1_555
C16J C15J 1_555 1_555
H9J C16J 1_555 1_555
C17J C16J 1_555 1_555
H10J C17J 1_555 1_555
C18J N3 1_555 1_555
N1J C13J 1_555 1_555
N2J N2 1_555 1_555
H11J N4 1_555 1_555
Zn1A O1 1_555 1_555
Zn1F O4 1_555 1_555
Zn1G O3 1_555 1_555
Zn1H O1I 1_555 1_555
Zn1I O2I 1_555 1_555
Zn1J N1J 1_555 1_555
Zn1N O3I 1_555 1_555
Zn1O O4I 1_555 1_555
N1A Zn1A 1_555 1_555
O1A Zn1 1_555 1_555
O2A Zn1A 1_555 1_555
O3F Zn1A 1_555 1_555
O3G Zn1 1_555 1_555
O4F Zn1 1_555 1_555
O4G Zn1A 1_555 1_555
C1 O2 1_555 1_555
C6 C7 1_555 1_555
C17 N1 1_555 1_555
C5I C8I 1_555 1_555
C6I C7I 1_555 1_555
C8I C10I 1_555 1_555
C15J C18J 1_555 1_555
C17J N1J 1_555 1_555
C18J N2J 1_555 1_555

#END
