
#######################################################################
#
#                 Cambridge Crystallographic Data Centre
#                                CCDC 
#
#######################################################################
#
# If this CIF has been generated from an entry in the Cambridge 
# Structural Database, then it will include bibliographic, chemical, 
# crystal, experimental, refinement or atomic coordinate data resulting 
# from the CCDC's data processing and validation procedures.
#
#######################################################################

data_GAQKOB
_chemical_formula_moiety         '(C19 H15 N2 O5 Zn1 1+)n'
_symmetry_cell_setting           monoclinic
_symmetry_space_group_name_H-M   'C 2/c'
_symmetry_Int_Tables_number      15
_space_group_name_Hall           '-C 2yc'
loop_
_symmetry_equiv_pos_site_id
_symmetry_equiv_pos_as_xyz
1 x,y,z
2 -x,y,1/2-z
3 1/2+x,1/2+y,z
4 1/2-x,1/2+y,1/2-z
5 -x,-y,-z
6 x,-y,1/2+z
7 1/2-x,1/2-y,-z
8 1/2+x,1/2-y,1/2+z
_cell_length_a                   15.7072(3)
_cell_length_b                   10.7130(2)
_cell_length_c                   24.4618(6)
_cell_angle_alpha                90
_cell_angle_beta                 94.280(2)
_cell_angle_gamma                90
_cell_volume                     4104.74
loop_
_atom_site_label
_atom_site_type_symbol
_atom_site_fract_x
_atom_site_fract_y
_atom_site_fract_z
_atom_site_U_iso_or_equiv
_atom_site_thermal_displace_type
Zn1 Zn 0.14165(7) 0.40920(11) 0.06848(5) 0.0338 Uani
O1 O 0.5487(5) 0.0008(7) 0.0966(3) 0.0455 Uani
O2 O 0.2202(5) 0.3284(7) 0.1219(3) 0.0453 Uani
N1 N 0.1757(5) 0.4652(7) 0.5108(3) 0.0312 Uani
N2 N 0.2489(5) 0.0493(7) 0.2964(3) 0.0315 Uani
C1 C 0.3122(7) 0.0145(9) 0.2069(4) 0.0364 Uani
O3 O 0.3078(6) 0.2987(9) 0.0580(3) 0.0599 Uani
C2 C 0.2602(8) 0.3950(11) 0.4398(5) 0.0446 Uani
H1 H 0.309631 0.404788 0.420109 0.0540 Uiso
C3 C 0.3969(6) 0.1135(9) 0.1220(4) 0.0305 Uani
H2 H 0.426256 0.147895 0.092923 0.0360 Uiso
C4 C 0.3201(5) 0.1663(8) 0.1354(3) 0.0289 Uani
C5 C 0.2192(6) 0.2127(8) 0.3814(3) 0.0318 Uani
C6 C 0.3880(6) -0.0370(9) 0.1931(4) 0.0345 Uani
H3 H 0.411098 -0.106697 0.213175 0.0410 Uiso
C7 C 0.2769(6) 0.1168(10) 0.1777(4) 0.0344 Uani
H4 H 0.224092 0.151601 0.186759 0.0410 Uiso
C8 C 0.1562(6) 0.1269(11) 0.3610(4) 0.0409 Uani
H5 H 0.102389 0.124005 0.376268 0.0490 Uiso
C9 C 0.1202(7) 0.3690(11) 0.4979(5) 0.0432 Uani
H6 H 0.071818 0.359129 0.518598 0.0520 Uiso
C10 C 0.2027(6) 0.2993(9) 0.4254(4) 0.0323 Uani
C11 C 0.2633(7) -0.0442(9) 0.2528(4) 0.0375 Uani
H7 H 0.207585 -0.076223 0.237147 0.0450 Uiso
H8 H 0.296293 -0.115508 0.269116 0.0450 Uiso
C12 C 0.3100(8) 0.1305(12) 0.3142(4) 0.0472 Uani
H9 H 0.362848 0.132451 0.297757 0.0560 Uiso
C13 C 0.5124(7) -0.0487(10) 0.1350(5) 0.0425 Uani
C14 C 0.2806(6) 0.2717(9) 0.1021(4) 0.0347 Uani
C15 C 0.4308(6) 0.0110(8) 0.1507(4) 0.0314 Uani
C16 C 0.1732(6) 0.0475(11) 0.3190(4) 0.0412 Uani
H10 H 0.130573 -0.009886 0.305500 0.0490 Uiso
C17 C 0.1321(7) 0.2859(11) 0.4560(4) 0.0448 Uani
H11 H 0.092402 0.220270 0.448088 0.0530 Uiso
C18 C 0.2960(6) 0.2093(11) 0.3556(4) 0.0435 Uani
H12 H 0.340340 0.265217 0.367917 0.0520 Uiso
O4 O 0.5366(10) -0.1420(17) 0.1577(8) 0.1446 Uani
C19 C 0.2465(7) 0.4748(10) 0.4818(4) 0.0430 Uani
H13 H 0.287127 0.538522 0.491045 0.0520 Uiso
O5 O 0.0914(5) 0.2758(8) 0.0182(3) 0.0489 Uani
H14 H 0.072(7) 0.187(10) 0.034(4) 0.0200 Uiso
H15 H 0.153(6) 0.335(9) -0.003(4) 0.0100 Uiso
Zn1B Zn 0.64165(7) -0.09080(11) 0.06848(5) 0.0338 Uani
Zn1E Zn 0.14165(7) 0.59080(11) 0.56848(5) 0.0338 Uani
O1B O 0.0487(5) 0.5008(7) 0.0966(3) 0.0455 Uani
N1E N 0.1757(5) 0.5348(7) 0.0108(3) 0.0312 Uani
loop_
_atom_site_aniso_label
_atom_site_aniso_U_11
_atom_site_aniso_U_22
_atom_site_aniso_U_33
_atom_site_aniso_U_23
_atom_site_aniso_U_13
_atom_site_aniso_U_12
Zn1 0.0344(10) 0.0392(11) 0.0294(10) 0.0074(4) 0.0128(6) 0.0105(4)
O1 0.046(4) 0.048(4) 0.046(4) 0.006(3) 0.026(3) 0.020(3)
O2 0.049(4) 0.056(4) 0.032(3) 0.001(3) 0.011(3) 0.026(3)
N1 0.030(3) 0.041(4) 0.024(3) -0.005(3) 0.011(3) -0.003(3)
N2 0.042(4) 0.029(4) 0.026(3) -0.002(3) 0.020(3) 0.005(3)
C1 0.049(5) 0.031(4) 0.031(4) 0.002(3) 0.015(4) 0.005(4)
O3 0.075(6) 0.069(5) 0.039(4) 0.018(4) 0.026(4) 0.036(5)
C2 0.044(5) 0.056(6) 0.036(5) -0.013(4) 0.017(4) -0.007(4)
C3 0.028(4) 0.041(4) 0.024(4) 0.003(3) 0.011(3) 0.006(3)
C4 0.029(4) 0.035(4) 0.024(4) 0.000(3) 0.010(3) 0.005(3)
C5 0.035(4) 0.038(4) 0.024(4) 0.001(3) 0.012(3) 0.006(3)
C6 0.039(4) 0.037(5) 0.028(4) 0.004(3) 0.005(3) 0.005(4)
C7 0.027(4) 0.047(5) 0.030(4) -0.003(4) 0.007(3) 0.004(4)
C8 0.035(4) 0.055(6) 0.036(5) -0.009(4) 0.024(4) -0.009(4)
C9 0.039(5) 0.050(6) 0.043(5) -0.010(5) 0.019(4) -0.006(4)
C10 0.034(4) 0.040(4) 0.024(4) 0.001(3) 0.010(3) 0.004(4)
C11 0.057(5) 0.031(4) 0.027(4) -0.002(3) 0.020(4) 0.001(4)
C12 0.058(6) 0.053(6) 0.032(5) -0.011(4) 0.013(4) 0.014(5)
C13 0.040(5) 0.042(5) 0.048(6) 0.005(5) 0.019(4) 0.009(4)
C14 0.035(4) 0.038(4) 0.031(4) 0.004(4) 0.001(3) 0.009(4)
C15 0.032(4) 0.033(4) 0.030(4) -0.001(3) 0.007(3) 0.005(3)
C16 0.040(5) 0.049(6) 0.037(5) -0.007(4) 0.019(4) -0.003(4)
C17 0.045(5) 0.057(6) 0.035(5) -0.014(4) 0.020(4) -0.017(5)
C18 0.036(5) 0.063(6) 0.034(5) -0.010(4) 0.020(4) -0.014(4)
O4 0.115(11) 0.143(12) 0.191(17) 0.124(13) 0.112(12) 0.103(11)
C19 0.050(5) 0.042(5) 0.040(5) -0.011(4) 0.023(4) -0.009(4)
O5 0.051(4) 0.055(5) 0.043(4) -0.007(3) 0.019(3) 0.003(4)
Zn1B 0.0344 0.0392 0.0294 0.0074 0.0128 0.0105
Zn1E 0.0344 0.0392 0.0294 -0.0074 0.0128 -0.0105
O1B 0.046 0.048 0.046 0.006 0.026 0.02
N1E 0.03 0.041 0.024 0.005 0.011 0.003
loop_
_geom_bond_atom_site_label_1
_geom_bond_atom_site_label_2
_geom_bond_site_symmetry_1
_geom_bond_site_symmetry_2
Zn1 O2 1_555 1_555
O1 C13 1_555 1_555
O2 C14 1_555 1_555
N1 C9 1_555 1_555
N2 C11 1_555 1_555
C1 C6 1_555 1_555
O3 C14 1_555 1_555
C2 H1 1_555 1_555
C3 H2 1_555 1_555
C4 C3 1_555 1_555
C5 C8 1_555 1_555
C6 H3 1_555 1_555
C7 C1 1_555 1_555
H4 C7 1_555 1_555
C8 H5 1_555 1_555
C9 H6 1_555 1_555
C10 C2 1_555 1_555
C11 C1 1_555 1_555
H7 C11 1_555 1_555
H8 C11 1_555 1_555
C12 N2 1_555 1_555
H9 C12 1_555 1_555
C13 C15 1_555 1_555
C14 C4 1_555 1_555
C15 C3 1_555 1_555
C16 N2 1_555 1_555
H10 C16 1_555 1_555
C17 C9 1_555 1_555
H11 C17 1_555 1_555
C18 C5 1_555 1_555
H12 C18 1_555 1_555
O4 C13 1_555 1_555
C19 N1 1_555 1_555
H13 C19 1_555 1_555
O5 Zn1 1_555 1_555
H14 O5 1_555 1_555
H15 O5 1_555 1_555
Zn1B O1 1_555 1_555
Zn1E N1 1_555 1_555
O1B Zn1 1_555 1_555
N1E Zn1 1_555 1_555
C2 C19 1_555 1_555
C4 C7 1_555 1_555
C5 C10 1_555 1_555
C6 C15 1_555 1_555
C8 C16 1_555 1_555
C10 C17 1_555 1_555
C12 C18 1_555 1_555

#END
