
#######################################################################
#
#                 Cambridge Crystallographic Data Centre
#                                CCDC 
#
#######################################################################
#
# If this CIF has been generated from an entry in the Cambridge 
# Structural Database, then it will include bibliographic, chemical, 
# crystal, experimental, refinement or atomic coordinate data resulting 
# from the CCDC's data processing and validation procedures.
#
#######################################################################

data_QUGZEZ
_chemical_formula_moiety         '(C16 H2 Gd3 Mn2 N48 O5 3-)n'
_symmetry_cell_setting           cubic
_symmetry_space_group_name_H-M   'P n -3 n'
_symmetry_Int_Tables_number      222
_space_group_name_Hall           '-P 4a 2bc 3'
loop_
_symmetry_equiv_pos_site_id
_symmetry_equiv_pos_as_xyz
1 x,y,z
2 1/2-y,x,z
3 1/2-x,1/2-y,z
4 y,1/2-x,z
5 x,1/2-z,y
6 x,1/2-y,1/2-z
7 x,z,1/2-y
8 z,y,1/2-x
9 1/2-x,y,1/2-z
10 1/2-z,y,x
11 z,x,y
12 y,z,x
13 1/2-y,1/2-z,x
14 z,1/2-x,1/2-y
15 1/2-y,z,1/2-x
16 1/2-z,1/2-x,y
17 1/2-z,x,1/2-y
18 y,1/2-z,1/2-x
19 y,x,1/2-z
20 1/2-y,1/2-x,1/2-z
21 1/2-x,z,y
22 1/2-x,1/2-z,1/2-y
23 z,1/2-y,x
24 1/2-z,1/2-y,1/2-x
25 -x,-y,-z
26 1/2+y,-x,-z
27 1/2+x,1/2+y,-z
28 -y,1/2+x,-z
29 -x,1/2+z,-y
30 -x,1/2+y,1/2+z
31 -x,-z,1/2+y
32 -z,-y,1/2+x
33 1/2+x,-y,1/2+z
34 1/2+z,-y,-x
35 -z,-x,-y
36 -y,-z,-x
37 1/2+y,1/2+z,-x
38 -z,1/2+x,1/2+y
39 1/2+y,-z,1/2+x
40 1/2+z,1/2+x,-y
41 1/2+z,-x,1/2+y
42 -y,1/2+z,1/2+x
43 -y,-x,1/2+z
44 1/2+y,1/2+x,1/2+z
45 1/2+x,-z,-y
46 1/2+x,1/2+z,1/2+y
47 -z,1/2+y,-x
48 1/2+z,1/2+y,1/2+x
_cell_length_a                   17.1065(12)
_cell_length_b                   17.1065(12)
_cell_length_c                   17.1065(12)
_cell_angle_alpha                90
_cell_angle_beta                 90
_cell_angle_gamma                90
_cell_volume                     5005.92
loop_
_atom_site_label
_atom_site_type_symbol
_atom_site_fract_x
_atom_site_fract_y
_atom_site_fract_z
_atom_site_U_iso_or_equiv
_atom_site_thermal_displace_type
O2 O -0.18167(5) 0.5815 0.2072 0.0793 Uani
H1 H -0.2014 0.5871 0.1616 0.1190 Uiso
H2 H -0.1644 0.5350 0.2096 0.1190 Uiso
Gd1 Gd 0.09161(5) 0.2500 0.2500 0.0133 Uani
C1 C 0.1106(6) 0.3894(6) 0.1106(6) 0.0150 Uani
N1 N -0.0620(5) 0.3956(5) 0.2294(5) 0.0280 Uani
O1 O 0.1576(3) 0.3424(3) 0.1576(3) 0.0130 Uani
N2 N -0.0793(5) 0.4461(5) 0.1738(5) 0.0300 Uani
N3 N 0.0108(5) 0.3670(5) 0.2146(5) 0.0160 Uani
N4 N -0.0209(5) 0.4504(5) 0.1211(5) 0.0227 Uani
C2 C 0.0328(5) 0.4034(6) 0.1495(6) 0.0173 Uani
Mn1 Mn 0.0000 0.5000 0.0000 0.0249 Uani
N1L N 0.1044(5) 0.2706(5) -0.0620(5) 0.0280 Uani
N2L N 0.0539(5) 0.3262(5) -0.0793(5) 0.0300 Uani
N3L N 0.1330(5) 0.2854(5) 0.0108(5) 0.0160 Uani
N4L N 0.0496(5) 0.3789(5) -0.0209(5) 0.0227 Uani
C2L C 0.0966(6) 0.3505(6) 0.0328(5) 0.0173 Uani
N1M N 0.2294(5) 0.5620(5) 0.1044(5) 0.0280 Uani
N2M N 0.1738(5) 0.5793(5) 0.0539(5) 0.0300 Uani
N3M N 0.2146(5) 0.4892(5) 0.1330(5) 0.0160 Uani
N4M N 0.1211(5) 0.5209(5) 0.0496(5) 0.0227 Uani
C2M C 0.1495(6) 0.4672(5) 0.0966(6) 0.0173 Uani
Gd1A Gd 0.2500 0.09161(5) 0.2500 0.0133 Uani
C1A C 0.1106(6) 0.1106(6) 0.1106(6) 0.0150 Uani
N1A N 0.1044(5) -0.0620(5) 0.2294(5) 0.0280 Uani
O1A O 0.1576(3) 0.1576(3) 0.1576(3) 0.0130 Uani
N2A N 0.0539(5) -0.0793(5) 0.1738(5) 0.0300 Uani
N3A N 0.1330(5) 0.0108(5) 0.2146(5) 0.0160 Uani
N4A N 0.0496(5) -0.0209(5) 0.1211(5) 0.0227 Uani
C2A C 0.0966(6) 0.0328(5) 0.1495(6) 0.0173 Uani
Mn1A Mn 0.0000 0.0000 0.0000 0.0249 Uani
N1V N 0.2294(5) 0.1044(5) -0.0620(5) 0.0280 Uani
N2V N 0.1738(5) 0.0539(5) -0.0793(5) 0.0300 Uani
N3V N 0.2146(5) 0.1330(5) 0.0108(5) 0.0160 Uani
N4V N 0.1211(5) 0.0496(5) -0.0209(5) 0.0227 Uani
C2V C 0.1495(6) 0.0966(6) 0.0328(5) 0.0173 Uani
N1F N -0.0620(5) 0.2294(5) 0.1044(5) 0.0280 Uani
N2F N -0.0793(5) 0.1738(5) 0.0539(5) 0.0300 Uani
N3F N 0.0108(5) 0.2146(5) 0.1330(5) 0.0160 Uani
N4F N -0.0209(5) 0.1211(5) 0.0496(5) 0.0227 Uani
C2F C 0.0328(5) 0.1495(6) 0.0966(6) 0.0173 Uani
Gd1B Gd 0.40839(5) 0.2500 0.2500 0.0133 Uani
C1B C 0.3894(6) 0.1106(6) 0.1106(6) 0.0150 Uani
N1B N 0.5620(5) 0.1044(5) 0.2294(5) 0.0280 Uani
O1B O 0.3424(3) 0.1576(3) 0.1576(3) 0.0130 Uani
N2B N 0.5793(5) 0.0539(5) 0.1738(5) 0.0300 Uani
N3B N 0.4892(5) 0.1330(5) 0.2146(5) 0.0160 Uani
N4B N 0.5209(5) 0.0496(5) 0.1211(5) 0.0227 Uani
C2B C 0.4672(5) 0.0966(6) 0.1495(6) 0.0173 Uani
N1K N 0.3956(5) 0.2294(5) -0.0620(5) 0.0280 Uani
N2K N 0.4461(5) 0.1738(5) -0.0793(5) 0.0300 Uani
N3K N 0.3670(5) 0.2146(5) 0.0108(5) 0.0160 Uani
N4K N 0.4504(5) 0.1211(5) -0.0209(5) 0.0227 Uani
C2K C 0.4034(6) 0.1495(6) 0.0328(5) 0.0173 Uani
N1P N 0.2706(5) -0.0620(5) 0.1044(5) 0.0280 Uani
N2P N 0.3262(5) -0.0793(5) 0.0539(5) 0.0300 Uani
N3P N 0.2854(5) 0.0108(5) 0.1330(5) 0.0160 Uani
N4P N 0.3789(5) -0.0209(5) 0.0496(5) 0.0227 Uani
C2P C 0.3505(6) 0.0328(5) 0.0966(6) 0.0173 Uani
C1C C 0.3894(6) 0.3894(6) 0.1106(6) 0.0150 Uani
N1C N 0.3956(5) 0.5620(5) 0.2294(5) 0.0280 Uani
O1C O 0.3424(3) 0.3424(3) 0.1576(3) 0.0130 Uani
N2C N 0.4461(5) 0.5793(5) 0.1738(5) 0.0300 Uani
N3C N 0.3670(5) 0.4892(5) 0.2146(5) 0.0160 Uani
N4C N 0.4504(5) 0.5209(5) 0.1211(5) 0.0227 Uani
C2C C 0.4034(6) 0.4672(5) 0.1495(6) 0.0173 Uani
N1I N 0.2706(5) 0.3956(5) -0.0620(5) 0.0280 Uani
N2I N 0.3262(5) 0.4461(5) -0.0793(5) 0.0300 Uani
N3I N 0.2854(5) 0.3670(5) 0.0108(5) 0.0160 Uani
N4I N 0.3789(5) 0.4504(5) -0.0209(5) 0.0227 Uani
C2I C 0.3505(6) 0.4034(6) 0.0328(5) 0.0173 Uani
N1U N 0.5620(5) 0.2706(5) 0.1044(5) 0.0280 Uani
N2U N 0.5793(5) 0.3262(5) 0.0539(5) 0.0300 Uani
N3U N 0.4892(5) 0.2854(5) 0.1330(5) 0.0160 Uani
N4U N 0.5209(5) 0.3789(5) 0.0496(5) 0.0227 Uani
C2U C 0.4672(5) 0.3505(6) 0.0966(6) 0.0173 Uani
Gd1C Gd 0.2500 0.40839(5) 0.2500 0.0133 Uani
Gd1I Gd 0.2500 0.2500 0.09161(5) 0.0133 Uani
O1D O 0.1576(3) 0.3424(3) 0.3424(3) 0.0130 Uani
O1E O 0.1576(3) 0.1576(3) 0.3424(3) 0.0130 Uani
O1H O 0.3424(3) 0.3424(3) 0.3424(3) 0.0130 Uani
O1R O 0.3424(3) 0.1576(3) 0.3424(3) 0.0130 Uani
N3D N 0.0108(5) 0.2854(5) 0.3670(5) 0.0160 Uani
N3E N 0.0108(5) 0.1330(5) 0.2854(5) 0.0160 Uani
N3H N 0.4892(5) 0.3670(5) 0.2854(5) 0.0160 Uani
N3J N 0.2146(5) 0.0108(5) 0.3670(5) 0.0160 Uani
N3R N 0.3670(5) 0.0108(5) 0.2854(5) 0.0160 Uani
N3T N 0.4892(5) 0.2146(5) 0.3670(5) 0.0160 Uani
N4X N 0.0209(5) 0.5496(5) -0.1211(5) 0.0227 Uani
N4Y N -0.0496(5) 0.0209(5) -0.1211(5) 0.0227 Uani
N4DA N 0.0209(5) -0.1211(5) -0.0496(5) 0.0227 Uani
N4JA N -0.0496(5) 0.6211(5) 0.0209(5) 0.0227 Uani
N4KA N -0.1211(5) 0.4791(5) -0.0496(5) 0.0227 Uani
N4TA N -0.1211(5) -0.0496(5) 0.0209(5) 0.0227 Uani
Mn1B Mn 0.5000 0.0000 0.0000 0.0249 Uani
Mn1C Mn 0.5000 0.5000 0.0000 0.0249 Uani
loop_
_atom_site_aniso_label
_atom_site_aniso_U_11
_atom_site_aniso_U_22
_atom_site_aniso_U_33
_atom_site_aniso_U_23
_atom_site_aniso_U_13
_atom_site_aniso_U_12
O2 0.069(7) 0.088(8) 0.081(8) 0.008(7) -0.022(7) 0.011(7)
Gd1 0.0128(5) 0.0136(3) 0.0136(3) 0.000 0.000 0.000
C1 0.015(3) 0.015(3) 0.015(3) -0.006(4) 0.006(4) -0.006(4)
N1 0.022(5) 0.027(5) 0.035(6) 0.002(5) 0.005(4) 0.003(5)
O1 0.013(2) 0.013(2) 0.013(2) 0.004(3) -0.004(3) 0.004(3)
N2 0.034(5) 0.028(5) 0.028(5) 0.011(5) -0.004(5) 0.002(5)
N3 0.013(4) 0.017(4) 0.018(4) -0.003(4) 0.003(4) 0.003(4)
N4 0.019(4) 0.024(5) 0.025(5) 0.006(4) 0.011(4) 0.003(4)
C2 0.010(5) 0.016(5) 0.026(6) 0.003(5) 0.001(5) 0.002(5)
Mn1 0.0249(9) 0.0249(9) 0.0249(9) 0.0036(10) -0.0036(10) 0.0036(10)
N1L 0.027 0.035 0.022 -0.005 -0.003 0.002
N2L 0.028 0.028 0.034 0.004 -0.002 0.011
N3L 0.017 0.018 0.013 -0.003 -0.003 -0.003
N4L 0.024 0.025 0.019 -0.011 -0.003 0.006
C2L 0.016 0.026 0.01 -0.001 -0.002 0.003
N1M 0.035 0.022 0.027 0.003 -0.002 -0.005
N2M 0.028 0.034 0.028 0.002 -0.011 0.004
N3M 0.018 0.013 0.017 0.003 0.003 -0.003
N4M 0.025 0.019 0.024 0.003 -0.006 -0.011
C2M 0.026 0.01 0.016 0.002 -0.003 -0.001
Gd1A 0.0136 0.0128 0.0136 0 0 0
C1A 0.015 0.015 0.015 0.006 0.006 0.006
N1A 0.027 0.022 0.035 0.005 -0.002 -0.003
O1A 0.013 0.013 0.013 -0.004 -0.004 -0.004
N2A 0.028 0.034 0.028 -0.004 -0.011 -0.002
N3A 0.017 0.013 0.018 0.003 0.003 -0.003
N4A 0.024 0.019 0.025 0.011 -0.006 -0.003
C2A 0.016 0.01 0.026 0.001 -0.003 -0.002
Mn1A 0.0249 0.0249 0.0249 -0.0036 -0.0036 -0.0036
N1V 0.035 0.027 0.022 -0.003 0.005 -0.002
N2V 0.028 0.028 0.034 -0.002 -0.004 -0.011
N3V 0.018 0.017 0.013 -0.003 0.003 0.003
N4V 0.025 0.024 0.019 -0.003 0.011 -0.006
C2V 0.026 0.016 0.01 -0.002 0.001 -0.003
N1F 0.022 0.035 0.027 -0.002 -0.003 0.005
N2F 0.034 0.028 0.028 -0.011 -0.002 -0.004
N3F 0.013 0.018 0.017 0.003 -0.003 0.003
N4F 0.019 0.025 0.024 -0.006 -0.003 0.011
C2F 0.01 0.026 0.016 -0.003 -0.002 0.001
Gd1B 0.0128 0.0136 0.0136 0 0 0
C1B 0.015 0.015 0.015 0.006 -0.006 -0.006
N1B 0.022 0.027 0.035 -0.002 -0.005 0.003
O1B 0.013 0.013 0.013 -0.004 0.004 0.004
N2B 0.034 0.028 0.028 -0.011 0.004 0.002
N3B 0.013 0.017 0.018 0.003 -0.003 0.003
N4B 0.019 0.024 0.025 -0.006 -0.011 0.003
C2B 0.01 0.016 0.026 -0.003 -0.001 0.002
N1K 0.027 0.035 0.022 0.005 0.003 0.002
N2K 0.028 0.028 0.034 -0.004 0.002 0.011
N3K 0.017 0.018 0.013 0.003 0.003 -0.003
N4K 0.024 0.025 0.019 0.011 0.003 0.006
C2K 0.016 0.026 0.01 0.001 0.002 0.003
N1P 0.035 0.022 0.027 -0.003 0.002 -0.005
N2P 0.028 0.034 0.028 -0.002 0.011 0.004
N3P 0.018 0.013 0.017 -0.003 -0.003 -0.003
N4P 0.025 0.019 0.024 -0.003 0.006 -0.011
C2P 0.026 0.01 0.016 -0.002 0.003 -0.001
C1C 0.015 0.015 0.015 -0.006 -0.006 0.006
N1C 0.027 0.022 0.035 -0.005 0.002 -0.003
O1C 0.013 0.013 0.013 0.004 0.004 -0.004
N2C 0.028 0.034 0.028 0.004 0.011 -0.002
N3C 0.017 0.013 0.018 -0.003 -0.003 -0.003
N4C 0.024 0.019 0.025 -0.011 0.006 -0.003
C2C 0.016 0.01 0.026 -0.001 0.003 -0.002
N1I 0.035 0.027 0.022 0.003 -0.005 -0.002
N2I 0.028 0.028 0.034 0.002 0.004 -0.011
N3I 0.018 0.017 0.013 0.003 -0.003 0.003
N4I 0.025 0.024 0.019 0.003 -0.011 -0.006
C2I 0.026 0.016 0.01 0.002 -0.001 -0.003
N1U 0.022 0.035 0.027 0.002 0.003 0.005
N2U 0.034 0.028 0.028 0.011 0.002 -0.004
N3U 0.013 0.018 0.017 -0.003 0.003 0.003
N4U 0.019 0.025 0.024 0.006 0.003 0.011
C2U 0.01 0.026 0.016 0.003 0.002 0.001
Gd1C 0.0136 0.0128 0.0136 0 0 0
Gd1I 0.0136 0.0136 0.0128 0 0 0
O1D 0.013 0.013 0.013 -0.004 0.004 0.004
O1E 0.013 0.013 0.013 0.004 0.004 -0.004
O1H 0.013 0.013 0.013 -0.004 -0.004 -0.004
O1R 0.013 0.013 0.013 0.004 -0.004 0.004
N3D 0.013 0.018 0.017 0.003 0.003 -0.003
N3E 0.013 0.017 0.018 -0.003 -0.003 -0.003
N3H 0.013 0.017 0.018 0.003 0.003 -0.003
N3J 0.018 0.013 0.017 0.003 -0.003 0.003
N3R 0.017 0.013 0.018 -0.003 0.003 0.003
N3T 0.013 0.018 0.017 -0.003 -0.003 -0.003
N4X 0.019 0.024 0.025 0.006 0.011 0.003
N4Y 0.024 0.019 0.025 0.011 -0.006 -0.003
N4DA 0.019 0.025 0.024 -0.006 -0.003 0.011
N4JA 0.024 0.025 0.019 -0.011 -0.003 0.006
N4KA 0.025 0.019 0.024 0.003 -0.006 -0.011
N4TA 0.025 0.024 0.019 -0.003 0.011 -0.006
Mn1B 0.0249 0.0249 0.0249 -0.0036 0.0036 0.0036
Mn1C 0.0249 0.0249 0.0249 0.0036 0.0036 -0.0036
loop_
_geom_bond_atom_site_label_1
_geom_bond_atom_site_label_2
_geom_bond_site_symmetry_1
_geom_bond_site_symmetry_2
Gd1 O1 1_555 1_555
C1 O1 1_555 1_555
N1 N2 1_555 1_555
O1 Gd1C 1_555 1_555
N2 N4 1_555 1_555
N3 Gd1 1_555 1_555
N4 C2 1_555 1_555
C2 C1 1_555 1_555
Mn1 N4 1_555 1_555
O2 H1 1_555 1_555
H2 O2 1_555 1_555
N1L N2L 1_555 1_555
N2L N4L 1_555 1_555
N3L N1L 1_555 1_555
N4L Mn1 1_555 1_555
C2L C1 1_555 1_555
N1M N2M 1_555 1_555
N2M N4M 1_555 1_555
N3M N1M 1_555 1_555
N4M Mn1 1_555 1_555
C2M C1 1_555 1_555
Gd1A O1A 1_555 1_555
C1A O1A 1_555 1_555
N1A N2A 1_555 1_555
O1A Gd1 1_555 1_555
N2A N4A 1_555 1_555
N3A Gd1A 1_555 1_555
N4A C2A 1_555 1_555
C2A C1A 1_555 1_555
Mn1A N4A 1_555 1_555
N1V N2V 1_555 1_555
N2V N4V 1_555 1_555
N3V N1V 1_555 1_555
N4V Mn1A 1_555 1_555
C2V C1A 1_555 1_555
N1F N2F 1_555 1_555
N2F N4F 1_555 1_555
N3F Gd1 1_555 1_555
N4F Mn1A 1_555 1_555
C2F C1A 1_555 1_555
Gd1B O1B 1_555 1_555
C1B O1B 1_555 1_555
N1B N2B 1_555 1_555
O1B Gd1A 1_555 1_555
N2B N4B 1_555 1_555
N3B Gd1B 1_555 1_555
N4B C2B 1_555 1_555
C2B C1B 1_555 1_555
N1K N2K 1_555 1_555
N2K N4K 1_555 1_555
N3K N1K 1_555 1_555
N4K C2K 1_555 1_555
C2K C1B 1_555 1_555
N1P N2P 1_555 1_555
N2P N4P 1_555 1_555
N3P Gd1A 1_555 1_555
N4P C2P 1_555 1_555
C2P C1B 1_555 1_555
C1C O1C 1_555 1_555
N1C N2C 1_555 1_555
O1C Gd1B 1_555 1_555
N2C N4C 1_555 1_555
N3C N1C 1_555 1_555
N4C C2C 1_555 1_555
C2C C1C 1_555 1_555
N1I N2I 1_555 1_555
N2I N4I 1_555 1_555
N3I N1I 1_555 1_555
N4I C2I 1_555 1_555
C2I C1C 1_555 1_555
N1U N2U 1_555 1_555
N2U N4U 1_555 1_555
N3U Gd1B 1_555 1_555
N4U C2U 1_555 1_555
C2U C1C 1_555 1_555
Gd1C N3M 1_555 1_555
Gd1I O1 1_555 1_555
O1D Gd1 1_555 1_555
O1E Gd1 1_555 1_555
O1H Gd1B 1_555 1_555
O1R Gd1A 1_555 1_555
N3D Gd1 1_555 1_555
N3E Gd1 1_555 1_555
N3H Gd1B 1_555 1_555
N3J Gd1A 1_555 1_555
N3R Gd1A 1_555 1_555
N3T Gd1B 1_555 1_555
N4X Mn1 1_555 1_555
N4Y Mn1A 1_555 1_555
N4DA Mn1A 1_555 1_555
N4JA Mn1 1_555 1_555
N4KA Mn1 1_555 1_555
N4TA Mn1A 1_555 1_555
Mn1B N4B 1_555 1_555
Mn1C N4C 1_555 1_555
N1 N3 1_555 1_555
N3 C2 1_555 1_555
N3L C2L 1_555 1_555
N3L Gd1I 1_555 1_555
N4L C2L 1_555 1_555
N3M C2M 1_555 1_555
N4M C2M 1_555 1_555
Gd1A O1E 1_555 1_555
N1A N3A 1_555 1_555
O1A Gd1I 1_555 1_555
N3A C2A 1_555 1_555
N3V C2V 1_555 1_555
N3V Gd1I 1_555 1_555
N4V C2V 1_555 1_555
N1F N3F 1_555 1_555
N3F C2F 1_555 1_555
N4F C2F 1_555 1_555
Gd1B O1R 1_555 1_555
N1B N3B 1_555 1_555
O1B Gd1I 1_555 1_555
N3B C2B 1_555 1_555
N3K C2K 1_555 1_555
N3K Gd1I 1_555 1_555
N4K Mn1B 1_555 1_555
N1P N3P 1_555 1_555
N3P C2P 1_555 1_555
N4P Mn1B 1_555 1_555
O1C Gd1C 1_555 1_555
O1C Gd1I 1_555 1_555
N3C C2C 1_555 1_555
N3C Gd1C 1_555 1_555
N3I C2I 1_555 1_555
N3I Gd1I 1_555 1_555
N4I Mn1C 1_555 1_555
N1U N3U 1_555 1_555
N3U C2U 1_555 1_555
N4U Mn1C 1_555 1_555
Gd1C O1D 1_555 1_555
Gd1C O1H 1_555 1_555

#END
