
#######################################################################
#
#                 Cambridge Crystallographic Data Centre
#                                CCDC 
#
#######################################################################
#
# If this CIF has been generated from an entry in the Cambridge 
# Structural Database, then it will include bibliographic, chemical, 
# crystal, experimental, refinement or atomic coordinate data resulting 
# from the CCDC's data processing and validation procedures.
#
#######################################################################

data_MUTCEL
_chemical_formula_moiety         '(C79 H89 Co4 F6 N15 O30)n'
_symmetry_cell_setting           orthorhombic
_symmetry_space_group_name_H-M   'I 2 2 2'
_symmetry_Int_Tables_number      23
_space_group_name_Hall           'I 2 2'
loop_
_symmetry_equiv_pos_site_id
_symmetry_equiv_pos_as_xyz
1 x,y,z
2 -x,-y,z
3 -x,y,-z
4 x,-y,-z
5 1/2+x,1/2+y,1/2+z
6 1/2-x,1/2-y,1/2+z
7 1/2-x,1/2+y,1/2-z
8 1/2+x,1/2-y,1/2-z
_cell_length_a                   16.1584(18)
_cell_length_b                   23.7409(11)
_cell_length_c                   30.7911(19)
_cell_angle_alpha                90
_cell_angle_beta                 90
_cell_angle_gamma                90
_cell_volume                     11811.9
loop_
_atom_site_label
_atom_site_type_symbol
_atom_site_fract_x
_atom_site_fract_y
_atom_site_fract_z
C1 C 0.0791(3) 0.72809(19) 0.23235(13)
C2 C 0.0461(3) 0.77798(19) 0.21522(13)
H1 H 0.0655 0.7920 0.1889
C3 C -0.0162(3) 0.80653(19) 0.23790(13)
H2 H -0.0381 0.8397 0.2266
C4 C -0.0450(3) 0.78582(19) 0.27670(13)
C5 C -0.0127(3) 0.73632(18) 0.29435(13)
H3 H -0.0325 0.7224 0.3206
C6 C 0.0501(3) 0.70785(19) 0.27164(13)
H4 H 0.0725 0.6750 0.2832
C7 C 0.1432(3) 0.69591(18) 0.20688(13)
C8 C -0.1152(3) 0.81475(19) 0.30089(12)
C9 C 0.3791(3) 0.63001(19) 0.06922(13)
C10 C 0.4713(3) 0.6811(2) 0.01707(13)
H5 H 0.4523 0.7150 0.0286
C11 C 0.4431(3) 0.63028(18) 0.03360(13)
C12 C 0.4732(3) 0.57970(18) 0.01711(13)
H6 H 0.4566 0.5458 0.0295
C13 C 0.1172(3) 0.6376(2) 0.07234(14)
C14 C 0.0296(3) 0.6892(2) 0.01619(13)
H7 H 0.0523 0.7231 0.0255
C15 C 0.0562(3) 0.63733(19) 0.03558(14)
C16 C 0.0271(3) 0.5873(2) 0.01743(13)
H8 H 0.0445 0.5531 0.0290
C17 C 0.3523(3) 0.4880(2) 0.16615(15)
H9 H 0.3251 0.4984 0.1408
C18 C 0.4808(4) 0.4430(2) 0.18727(18)
H10 H 0.5247 0.4231 0.1729
H11 H 0.4681 0.4246 0.2142
H12 H 0.4979 0.4810 0.1929
C19 C 0.3901(3) 0.3989(2) 0.12563(16)
H13 H 0.3437 0.4104 0.1082
H14 H 0.3776 0.3638 0.1397
H15 H 0.4379 0.3944 0.1074
C20 C 0.1350(3) 0.4981(2) 0.18012(16)
H16 H 0.1606 0.5033 0.1534
C21 C 0.0372(3) 0.4328(2) 0.14310(16)
H17 H 0.0454 0.4594 0.1200
H18 H -0.0209 0.4295 0.1492
H19 H 0.0585 0.3967 0.1345
C22 C 0.0728(3) 0.4237(2) 0.22440(16)
H20 H 0.1137 0.4380 0.2441
H21 H 0.0807 0.3840 0.2206
H22 H 0.0186 0.4306 0.2360
C23 C 0.3436(3) 0.79929(19) 0.10306(12)
H23 H 0.3875 0.7763 0.1114
C24 C 0.2954(3) 0.88772(18) 0.07839(13)
C25 C 0.2159(3) 0.86646(17) 0.07818(14)
C26 C 0.2000(3) 0.81210(18) 0.09121(13)
H24 H 0.1460 0.7987 0.0916
C27 C 0.3175(3) 0.94689(17) 0.06699(12)
H25 H 0.2780 0.9610 0.0455
C28 C 0.4041(3) 0.94941(19) 0.04780(12)
H26 H 0.4435 0.9368 0.0690
H27 H 0.4167 0.9875 0.0396
H28 H 0.4069 0.9255 0.0227
C29 C 0.3156(3) 0.98661(18) 0.10810(13)
C30 C 0.3483(3) 1.04666(18) 0.09890(13)
C31 C 0.4124(3) 1.06839(19) 0.12532(14)
H29 H 0.4344 1.0462 0.1474
C32 C 0.4420(3) 1.12051(19) 0.11900(14)
H30 H 0.4839 1.1341 0.1369
C33 C 0.4104(3) 1.15491(19) 0.08573(15)
C34 C 0.3484(3) 1.13491(18) 0.06109(13)
H31 H 0.3262 1.1580 0.0397
C35 C 0.3163(3) 1.08125(19) 0.06629(14)
C36 C 0.2259(2) 0.99224(18) 0.12481(12)
H32 H 0.1908 1.0047 0.1012
H33 H 0.2064 0.9555 0.1341
C37 C 0.2094(3) 1.10924(19) 0.19244(12)
H34 H 0.2015 1.1474 0.1979
C38 C 0.2368(3) 1.02491(16) 0.20245(12)
H35 H 0.2521 0.9907 0.2147
Co1 Co 0.25328(4) 0.69200(2) 0.125441(14)
Co2 Co 0.25569(4) 0.58859(2) 0.209160(15)
F1 F 0.15334(15) 0.89837(10) 0.06668(7)
F2 F 0.25291(19) 1.06123(9) 0.04147(7)
F3 F 0.43839(17) 1.20757(11) 0.07961(8)
N1 N 0.4073(3) 0.44328(18) 0.15951(13)
N2 N 0.0809(3) 0.45229(18) 0.18231(12)
N3 N 0.2643(2) 0.77759(14) 0.10368(9)
N4 N 0.3598(2) 0.85400(16) 0.09048(11)
N5 N 0.2182(2) 1.03178(15) 0.16093(11)
N6 N 0.2005(2) 1.08757(14) 0.15375(10)
N7 N 0.2310(2) 1.07217(13) 0.22422(11)
O1 O 0.16708(18) 0.71699(13) 0.17170(8)
O2 O 0.17266(19) 0.65136(13) 0.22359(9)
O3 O -0.14805(18) 0.79015(13) 0.33236(9)
O4 O -0.13860(17) 0.86250(12) 0.28446(8)
O5 O 0.34081(18) 0.67523(11) 0.07747(9)
O6 O 0.36966(18) 0.58353(13) 0.09022(9)
O7 O 0.15626(18) 0.68205(13) 0.08072(9)
O8 O 0.12378(19) 0.59239(14) 0.09267(10)
O9 O 0.24930(18) 0.60333(10) 0.14224(7)
O10 O 0.3315(2) 0.51671(13) 0.19743(10)
O11 O 0.1536(2) 0.53200(14) 0.20773(10)
O12 O 0.36425(18) 0.96448(12) 0.14199(9)
H36 H 0.3309 0.9579 0.1673
C9B C 0.6209(3) 0.63001(19) -0.06922(13)
C10B C 0.5287(3) 0.6811(2) -0.01707(13)
H5B H 0.5477 0.7150 -0.0286
C11B C 0.5569(3) 0.63028(18) -0.03360(13)
C12B C 0.5268(3) 0.57970(18) -0.01711(13)
H6B H 0.5434 0.5458 -0.0295
O5B O 0.65919(18) 0.67523(11) -0.07747(9)
O6B O 0.63034(18) 0.58353(13) -0.09022(9)
C13B C -0.1172(3) 0.6376(2) -0.07234(14)
C14B C -0.0296(3) 0.6892(2) -0.01619(13)
H7B H -0.0523 0.7231 -0.0255
C15B C -0.0562(3) 0.63733(19) -0.03558(14)
C16B C -0.0271(3) 0.5873(2) -0.01743(13)
H8B H -0.0445 0.5531 -0.0290
O7B O -0.15626(18) 0.68205(13) -0.08072(9)
O8B O -0.12378(19) 0.59239(14) -0.09267(10)
C1B C -0.0791(3) 0.72809(19) -0.23235(13)
C2B C -0.0461(3) 0.77798(19) -0.21522(13)
H1B H -0.0655 0.7920 -0.1889
C3B C 0.0162(3) 0.80653(19) -0.23790(13)
H2B H 0.0381 0.8397 -0.2266
C4B C 0.0450(3) 0.78582(19) -0.27670(13)
C5B C 0.0127(3) 0.73632(18) -0.29435(13)
H3B H 0.0325 0.7224 -0.3206
C6B C -0.0501(3) 0.70785(19) -0.27164(13)
H4B H -0.0725 0.6750 -0.2832
C7B C -0.1432(3) 0.69591(18) -0.20688(13)
C8B C 0.1152(3) 0.81475(19) -0.30089(12)
C17B C -0.3523(3) 0.4880(2) -0.16615(15)
H9B H -0.3251 0.4984 -0.1408
C18B C -0.4808(4) 0.4430(2) -0.18727(18)
H10B H -0.5247 0.4231 -0.1729
H11B H -0.4681 0.4246 -0.2142
H12B H -0.4979 0.4810 -0.1929
C19B C -0.3901(3) 0.3989(2) -0.12563(16)
H13B H -0.3437 0.4104 -0.1082
H14B H -0.3776 0.3638 -0.1397
H15B H -0.4379 0.3944 -0.1074
C20B C -0.1350(3) 0.4981(2) -0.18012(16)
H16B H -0.1606 0.5033 -0.1534
C21B C -0.0372(3) 0.4328(2) -0.14310(16)
H17B H -0.0454 0.4594 -0.1200
H18B H 0.0209 0.4295 -0.1492
H19B H -0.0585 0.3967 -0.1345
C22B C -0.0728(3) 0.4237(2) -0.22440(16)
H20B H -0.1137 0.4380 -0.2441
H21B H -0.0807 0.3840 -0.2206
H22B H -0.0186 0.4306 -0.2360
C23B C -0.3436(3) 0.79929(19) -0.10306(12)
H23B H -0.3875 0.7763 -0.1114
C24B C -0.2954(3) 0.88772(18) -0.07839(13)
C25B C -0.2159(3) 0.86646(17) -0.07818(14)
C26B C -0.2000(3) 0.81210(18) -0.09121(13)
H24B H -0.1460 0.7987 -0.0916
C27B C -0.3175(3) 0.94689(17) -0.06699(12)
H25B H -0.2780 0.9610 -0.0455
C28B C -0.4041(3) 0.94941(19) -0.04780(12)
H26B H -0.4435 0.9368 -0.0690
H27B H -0.4167 0.9875 -0.0396
H28B H -0.4069 0.9255 -0.0227
C29B C -0.3156(3) 0.98661(18) -0.10810(13)
C30B C -0.3483(3) 1.04666(18) -0.09890(13)
C31B C -0.4124(3) 1.06839(19) -0.12532(14)
H29B H -0.4344 1.0462 -0.1474
C32B C -0.4420(3) 1.12051(19) -0.11900(14)
H30B H -0.4839 1.1341 -0.1369
C33B C -0.4104(3) 1.15491(19) -0.08573(15)
C34B C -0.3484(3) 1.13491(18) -0.06109(13)
H31B H -0.3262 1.1580 -0.0397
C35B C -0.3163(3) 1.08125(19) -0.06629(14)
C36B C -0.2259(2) 0.99224(18) -0.12481(12)
H32B H -0.1908 1.0047 -0.1012
H33B H -0.2064 0.9555 -0.1341
C37B C -0.2094(3) 1.10924(19) -0.19244(12)
H34B H -0.2015 1.1474 -0.1979
C38B C -0.2368(3) 1.02491(16) -0.20245(12)
H35B H -0.2521 0.9907 -0.2147
Co1B Co -0.25328(4) 0.69200(2) -0.125441(14)
Co2B Co -0.25569(4) 0.58859(2) -0.209160(15)
F1B F -0.15334(15) 0.89837(10) -0.06668(7)
F2B F -0.25291(19) 1.06123(9) -0.04147(7)
F3B F -0.43839(17) 1.20757(11) -0.07961(8)
N1B N -0.4073(3) 0.44328(18) -0.15951(13)
N2B N -0.0809(3) 0.45229(18) -0.18231(12)
N3B N -0.2643(2) 0.77759(14) -0.10368(9)
N4B N -0.3598(2) 0.85400(16) -0.09048(11)
N5B N -0.2182(2) 1.03178(15) -0.16093(11)
N6B N -0.2005(2) 1.08757(14) -0.15375(10)
N7B N -0.2310(2) 1.07217(13) -0.22422(11)
O1B O -0.16708(18) 0.71699(13) -0.17170(8)
O2B O -0.17266(19) 0.65136(13) -0.22359(9)
O3B O 0.14805(18) 0.79015(13) -0.33236(9)
O4B O 0.13860(17) 0.86250(12) -0.28446(8)
O9B O -0.24930(18) 0.60333(10) -0.14224(7)
O10B O -0.3315(2) 0.51671(13) -0.19743(10)
O11B O -0.1536(2) 0.53200(14) -0.20773(10)
O12B O -0.36425(18) 0.96448(12) -0.14199(9)
H36B H -0.3309 0.9579 -0.1673
Co1B_2 Co 0.74672(4) 0.69200(2) -0.125441(14)
Co1E Co 0.24672(4) 0.80800(2) -0.374559(14)
Co1G Co -0.24672(4) 0.80800(2) 0.374559(14)
Co2D Co -0.24431(4) 1.08859(2) -0.290840(15)
Co2E Co 0.24431(4) 0.91141(2) -0.290840(15)
Co2F Co 0.24431(4) 1.08859(2) 0.290840(15)
Co2G Co -0.24431(4) 0.91141(2) 0.290840(15)
N7D N -0.2690(2) 0.57217(13) -0.27578(11)
N7F N 0.2690(2) 0.57217(13) 0.27578(11)
O3E O -0.35195(18) 0.70985(13) -0.16764(9)
O3G O 0.35195(18) 0.70985(13) 0.16764(9)
O4E O -0.36140(17) 0.63750(12) -0.21554(8)
O4G O 0.36140(17) 0.63750(12) 0.21554(8)
O5B_2 O -0.34081(18) 0.67523(11) -0.07747(9)
C39 C 0.7261(3) 0.1546(2) 0.21326(14)
H37 H 0.7023 0.1848 0.1985
C40 C 0.7989(3) 0.1218(2) 0.27469(14)
H38 H 0.8103 0.0921 0.2544
H39 H 0.7706 0.1066 0.2995
H40 H 0.8500 0.1387 0.2838
C41 C 0.7266(3) 0.21887(19) 0.27478(14)
H41 H 0.7365 0.2500 0.2556
H42 H 0.7621 0.2219 0.2997
H43 H 0.6698 0.2194 0.2840
N8 N 0.7434(3) 0.16716(14) 0.25251(11)
O13 O 0.7327(2) 0.11400(12) 0.19055(9)
O14 O 0.2562(8) 0.7395(4) 1.0022(3)
H44 H 0.2733 0.7101 0.9892
H45 H 0.2073 0.7471 0.9938
O15 O 0.2299(7) 0.3877(4) 0.0408(4)
H46 H 0.2129 0.4213 0.0378
H47 H 0.2560 0.3777 0.0181
O16 O 0.0530(6) 0.2746(4) 0.1237(3)
H48 H 0.0479 0.2887 0.1490
H49 H 0.0059 0.2732 0.1115
O17 O 0.0590(7) 0.1892(5) 0.1116(3)
H50 H 0.0248 0.1720 0.1279
H51 H 0.0477 0.1825 0.0852
O18 O 0.1976(7) 0.2255(5) 0.1131(4)
H52 H 0.2318 0.1988 0.1089
H53 H 0.2068 0.2404 0.1378
loop_
_geom_bond_atom_site_label_1
_geom_bond_atom_site_label_2
_geom_bond_site_symmetry_1
_geom_bond_site_symmetry_2
C1 C2 1_555 1_555
C2 H1 1_555 1_555
C3 C2 1_555 1_555
H2 C3 1_555 1_555
C4 C3 1_555 1_555
C5 C4 1_555 1_555
H3 C5 1_555 1_555
C6 C1 1_555 1_555
H4 C6 1_555 1_555
C7 C1 1_555 1_555
C8 C4 1_555 1_555
C9 C11 1_555 1_555
C10 H5 1_555 1_555
C11 C10 1_555 1_555
C12 C11 1_555 1_555
H6 C12 1_555 1_555
C13 C15 1_555 1_555
C14 H7 1_555 1_555
C15 C14 1_555 1_555
C16 C15 1_555 1_555
H8 C16 1_555 1_555
C17 H9 1_555 1_555
C18 H10 1_555 1_555
H11 C18 1_555 1_555
H12 C18 1_555 1_555
C19 H13 1_555 1_555
H14 C19 1_555 1_555
H15 C19 1_555 1_555
C20 H16 1_555 1_555
C21 H17 1_555 1_555
H18 C21 1_555 1_555
H19 C21 1_555 1_555
C22 H20 1_555 1_555
H21 C22 1_555 1_555
H22 C22 1_555 1_555
C23 H23 1_555 1_555
C24 C25 1_555 1_555
C25 C26 1_555 1_555
C26 H24 1_555 1_555
C27 C24 1_555 1_555
H25 C27 1_555 1_555
C28 C27 1_555 1_555
H26 C28 1_555 1_555
H27 C28 1_555 1_555
H28 C28 1_555 1_555
C29 C27 1_555 1_555
C30 C29 1_555 1_555
C31 C30 1_555 1_555
H29 C31 1_555 1_555
C32 C31 1_555 1_555
H30 C32 1_555 1_555
C33 C32 1_555 1_555
C34 C33 1_555 1_555
H31 C34 1_555 1_555
C35 C30 1_555 1_555
C36 C29 1_555 1_555
H32 C36 1_555 1_555
H33 C36 1_555 1_555
C37 H34 1_555 1_555
C38 H35 1_555 1_555
Co1 N3 1_555 1_555
Co2 O2 1_555 1_555
F1 C25 1_555 1_555
F2 C35 1_555 1_555
F3 C33 1_555 1_555
N1 C17 1_555 1_555
N2 C20 1_555 1_555
N3 C23 1_555 1_555
N4 C23 1_555 1_555
N5 C36 1_555 1_555
N6 C37 1_555 1_555
N7 C37 1_555 1_555
O1 C7 1_555 1_555
O2 C7 1_555 1_555
O3 C8 1_555 1_555
O4 C8 1_555 1_555
O5 C9 1_555 1_555
O6 C9 1_555 1_555
O7 C13 1_555 1_555
O8 C13 1_555 1_555
O9 Co1 1_555 1_555
O10 C17 1_555 1_555
O11 C20 1_555 1_555
O12 C29 1_555 1_555
H36 O12 1_555 1_555
C39 H37 1_555 1_555
C40 H38 1_555 1_555
H39 C40 1_555 1_555
H40 C40 1_555 1_555
C41 H41 1_555 1_555
H42 C41 1_555 1_555
H43 C41 1_555 1_555
N8 C39 1_555 1_555
O13 C39 1_555 1_555
O14 H44 1_555 1_555
H45 O14 1_555 1_555
O15 H46 1_555 1_555
H47 O15 1_555 1_555
O16 H48 1_555 1_555
H49 O16 1_555 1_555
O17 H50 1_555 1_555
H51 O17 1_555 1_555
O18 H52 1_555 1_555
H53 O18 1_555 1_555
C9B C11B 1_555 1_555
C10B C10 1_555 1_555
H5B C10B 1_555 1_555
C11B C10B 1_555 1_555
C12B C12 1_555 1_555
H6B C12B 1_555 1_555
O5B C9B 1_555 1_555
O6B C9B 1_555 1_555
C13B C15B 1_555 1_555
C14B C14 1_555 1_555
H7B C14B 1_555 1_555
C15B C14B 1_555 1_555
C16B C16 1_555 1_555
H8B C16B 1_555 1_555
O7B C13B 1_555 1_555
O8B C13B 1_555 1_555
C1B C2B 1_555 1_555
C2B H1B 1_555 1_555
C3B C2B 1_555 1_555
H2B C3B 1_555 1_555
C4B C3B 1_555 1_555
C5B C4B 1_555 1_555
H3B C5B 1_555 1_555
C6B C1B 1_555 1_555
H4B C6B 1_555 1_555
C7B C1B 1_555 1_555
C8B C4B 1_555 1_555
C17B H9B 1_555 1_555
C18B H10B 1_555 1_555
H11B C18B 1_555 1_555
H12B C18B 1_555 1_555
C19B H13B 1_555 1_555
H14B C19B 1_555 1_555
H15B C19B 1_555 1_555
C20B H16B 1_555 1_555
C21B H17B 1_555 1_555
H18B C21B 1_555 1_555
H19B C21B 1_555 1_555
C22B H20B 1_555 1_555
H21B C22B 1_555 1_555
H22B C22B 1_555 1_555
C23B H23B 1_555 1_555
C24B C25B 1_555 1_555
C25B C26B 1_555 1_555
C26B H24B 1_555 1_555
C27B C24B 1_555 1_555
H25B C27B 1_555 1_555
C28B C27B 1_555 1_555
H26B C28B 1_555 1_555
H27B C28B 1_555 1_555
H28B C28B 1_555 1_555
C29B C27B 1_555 1_555
C30B C29B 1_555 1_555
C31B C30B 1_555 1_555
H29B C31B 1_555 1_555
C32B C31B 1_555 1_555
H30B C32B 1_555 1_555
C33B C32B 1_555 1_555
C34B C33B 1_555 1_555
H31B C34B 1_555 1_555
C35B C30B 1_555 1_555
C36B C29B 1_555 1_555
H32B C36B 1_555 1_555
H33B C36B 1_555 1_555
C37B H34B 1_555 1_555
C38B H35B 1_555 1_555
Co1B O7B 1_555 1_555
Co2B O2B 1_555 1_555
F1B C25B 1_555 1_555
F2B C35B 1_555 1_555
F3B C33B 1_555 1_555
N1B C17B 1_555 1_555
N2B C20B 1_555 1_555
N3B C23B 1_555 1_555
N4B C23B 1_555 1_555
N5B C36B 1_555 1_555
N6B C37B 1_555 1_555
N7B C37B 1_555 1_555
O1B C7B 1_555 1_555
O2B C7B 1_555 1_555
O3B C8B 1_555 1_555
O4B C8B 1_555 1_555
O9B Co1B 1_555 1_555
O10B C17B 1_555 1_555
O11B C20B 1_555 1_555
O12B C29B 1_555 1_555
H36B O12B 1_555 1_555
Co1B_2 O5B 1_555 1_555
Co1E O3B 1_555 1_555
Co1G O3 1_555 1_555
Co2D N7B 1_555 1_555
Co2E O4B 1_555 1_555
Co2F N7 1_555 1_555
Co2G O4 1_555 1_555
N7D Co2B 1_555 1_555
N7F Co2 1_555 1_555
O3E Co1B 1_555 1_555
O3G Co1 1_555 1_555
O4E Co2B 1_555 1_555
O4G Co2 1_555 1_555
O5B_2 Co1B 1_555 1_555
C5 C6 1_555 1_555
C18 N1 1_555 1_555
C19 N1 1_555 1_555
C21 N2 1_555 1_555
C22 N2 1_555 1_555
C24 N4 1_555 1_555
C26 N3 1_555 1_555
C34 C35 1_555 1_555
C38 N5 1_555 1_555
C38 N7 1_555 1_555
Co1 O1 1_555 1_555
Co1 O5 1_555 1_555
Co1 O7 1_555 1_555
Co2 O9 1_555 1_555
Co2 O10 1_555 1_555
Co2 O11 1_555 1_555
N5 N6 1_555 1_555
C40 N8 1_555 1_555
C41 N8 1_555 1_555
C11B C12B 1_555 1_555
C15B C16B 1_555 1_555
C5B C6B 1_555 1_555
C18B N1B 1_555 1_555
C19B N1B 1_555 1_555
C21B N2B 1_555 1_555
C22B N2B 1_555 1_555
C24B N4B 1_555 1_555
C26B N3B 1_555 1_555
C34B C35B 1_555 1_555
C38B N5B 1_555 1_555
C38B N7B 1_555 1_555
Co1B N3B 1_555 1_555
Co1B O1B 1_555 1_555
Co2B O9B 1_555 1_555
Co2B O10B 1_555 1_555
Co2B O11B 1_555 1_555
N5B N6B 1_555 1_555

#END
