
#######################################################################
#
#                 Cambridge Crystallographic Data Centre
#                                CCDC 
#
#######################################################################
#
# If this CIF has been generated from an entry in the Cambridge 
# Structural Database, then it will include bibliographic, chemical, 
# crystal, experimental, refinement or atomic coordinate data resulting 
# from the CCDC's data processing and validation procedures.
#
#######################################################################

data_ASEKAM
_chemical_formula_moiety         'C9 H9 Cd7 N6 O12'
_symmetry_cell_setting           monoclinic
_symmetry_space_group_name_H-M   'C 2/c'
_symmetry_Int_Tables_number      15
_space_group_name_Hall           '-C 2yc'
loop_
_symmetry_equiv_pos_site_id
_symmetry_equiv_pos_as_xyz
1 x,y,z
2 -x,y,1/2-z
3 1/2+x,1/2+y,z
4 1/2-x,1/2+y,1/2-z
5 -x,-y,-z
6 x,-y,1/2+z
7 1/2-x,1/2-y,-z
8 1/2+x,1/2-y,1/2+z
_cell_length_a                   10.608(4)
_cell_length_b                   24.651(9)
_cell_length_c                   7.239(3)
_cell_angle_alpha                90
_cell_angle_beta                 95.291(6)
_cell_angle_gamma                90
_cell_volume                     1884.92
loop_
_atom_site_label
_atom_site_type_symbol
_atom_site_fract_x
_atom_site_fract_y
_atom_site_fract_z
Cd1 Cd -0.5000 -0.13848(3) -0.2500
Cd2 Cd -0.5000 0.0000 0.0000
O1 O -0.1660(6) -0.3092(3) 0.2342(10)
N1 N -0.4986(6) -0.1333(2) 0.0986(8)
N2 N -0.5008(7) -0.0813(2) 0.1610(9)
C1 C -0.5000 -0.2235(4) 0.2500
C2 C -0.3867(8) -0.3089(3) 0.2431(11)
C3 C -0.5000 -0.3363(4) 0.2500
H1 H -0.5000 -0.3740 0.2500
C4 C -0.2647(9) -0.3381(4) 0.2356(12)
C5 C -0.3879(7) -0.2521(3) 0.2429(10)
H2 H -0.3123 -0.2332 0.2379
O2 O -0.2597(8) -0.3878(3) 0.2337(13)
C6 C -0.5000 -0.1636(4) 0.2500
O3 O -0.4548(9) -0.0503(3) -0.2431(13)
H3 H -0.3743 -0.0503 -0.2322
O4 O -0.2803(12) 0.0031(6) 0.027(2)
H4 H -0.2555 0.0314 -0.0267
H5 H -0.2548 -0.0249 -0.0272
O1A O -0.8340(6) -0.3092(3) 0.2658(10)
N1A N -0.5014(6) -0.1333(2) 0.4014(8)
N2A N -0.4992(7) -0.0813(2) 0.3390(9)
C2A C -0.6133(8) -0.3089(3) 0.2569(11)
C4A C -0.7353(9) -0.3381(4) 0.2644(12)
C5A C -0.6121(7) -0.2521(3) 0.2571(10)
H2A H -0.6877 -0.2332 0.2621
O2A O -0.7403(8) -0.3878(3) 0.2663(13)
O3A O -0.5452(9) -0.0503(3) -0.2569(13)
H3A H -0.6257 -0.0503 -0.2678
O4D O -0.7197(12) -0.0031(6) -0.027(2)
H4D H -0.7445 -0.0314 0.0267
H5D H -0.7452 0.0249 0.0272
Cd1_2 Cd -0.5000 -0.13848(3) 0.7500
Cd1F Cd -1.0000 -0.36152(3) 0.2500
Cd1F_2 Cd 0.0000 -0.36152(3) 0.2500
Cd2A Cd -0.5000 0.0000 -0.5000
Cd2A_2 Cd -0.5000 0.0000 0.5000
O1F O -0.3340(6) -0.1908(3) -0.2342(10)
O1G O -0.6660(6) -0.1908(3) -0.2658(10)
N1A_2 N -0.5014(6) -0.1333(2) -0.5986(8)
N2D N -0.4992(7) 0.0813(2) -0.1610(9)
O3D O -0.5452(9) 0.0503(3) 0.2431(13)
O3E O -0.4548(9) 0.0503(3) 0.2569(13)
loop_
_geom_bond_atom_site_label_1
_geom_bond_atom_site_label_2
_geom_bond_site_symmetry_1
_geom_bond_site_symmetry_2
Cd1 N1 1_555 1_555
Cd2 N2 1_555 1_555
O1 C4 1_555 1_555
N1 N2 1_555 1_555
N2 N2A 1_555 1_555
C1 C5 1_555 1_555
C2 C3 1_555 1_555
C3 H1 1_555 1_555
C4 C2 1_555 1_555
C5 C2 1_555 1_555
H2 C5 1_555 1_555
O2 C4 1_555 1_555
C6 N1 1_555 1_555
O3 Cd1 1_555 1_555
H3 O3 1_555 1_555
O4 Cd2 1_555 1_555
H4 O4 1_555 1_555
H5 O4 1_555 1_555
O1A C4A 1_555 1_555
N1A C6 1_555 1_555
N2A N1A 1_555 1_555
C2A C3 1_555 1_555
C4A C2A 1_555 1_555
C5A C1 1_555 1_555
H2A C5A 1_555 1_555
O2A C4A 1_555 1_555
O3A Cd1 1_555 1_555
H3A O3A 1_555 1_555
O4D Cd2 1_555 1_555
H4D O4D 1_555 1_555
H5D O4D 1_555 1_555
Cd1_2 N1A 1_555 1_555
Cd1F O1A 1_555 1_555
Cd1F_2 O1 1_555 1_555
Cd2A O3 1_555 1_555
Cd2A_2 N2A 1_555 1_555
O1F Cd1 1_555 1_555
O1G Cd1 1_555 1_555
N1A_2 Cd1 1_555 1_555
N2D Cd2 1_555 1_555
O3D Cd2 1_555 1_555
O3E Cd2 1_555 1_555
Cd2 O3 1_555 1_555
Cd2 O3A 1_555 1_555
C1 C6 1_555 1_555
O3 O3A 1_555 1_555
C2A C5A 1_555 1_555
O3A Cd2A 1_555 1_555
Cd2A_2 O3D 1_555 1_555
Cd2A_2 O3E 1_555 1_555
O3D O3E 1_555 1_555

#END
