
#######################################################################
#
#                 Cambridge Crystallographic Data Centre
#                                CCDC 
#
#######################################################################
#
# If this CIF has been generated from an entry in the Cambridge 
# Structural Database, then it will include bibliographic, chemical, 
# crystal, experimental, refinement or atomic coordinate data resulting 
# from the CCDC's data processing and validation procedures.
#
#######################################################################

data_FAVFOA
_chemical_formula_moiety         '(C58 H50 Cd2 Mg1 N3 O18 1-)n'
_symmetry_cell_setting           orthorhombic
_symmetry_space_group_name_H-M   'F d d 2'
_symmetry_Int_Tables_number      43
_space_group_name_Hall           'F 2 -2d'
loop_
_symmetry_equiv_pos_site_id
_symmetry_equiv_pos_as_xyz
1 x,y,z
2 -x,-y,z
3 1/4-x,1/4+y,1/4+z
4 3/4+x,3/4-y,1/4+z
5 x,1/2+y,1/2+z
6 -x,1/2-y,1/2+z
7 1/4-x,3/4+y,3/4+z
8 3/4+x,1/4-y,3/4+z
9 1/2+x,y,1/2+z
10 1/2-x,-y,1/2+z
11 3/4-x,1/4+y,3/4+z
12 1/4+x,3/4-y,3/4+z
13 1/2+x,1/2+y,z
14 1/2-x,1/2-y,z
15 3/4-x,3/4+y,1/4+z
16 1/4+x,1/4-y,1/4+z
_cell_length_a                   33.5429(18)
_cell_length_b                   34.1738(17)
_cell_length_c                   24.3555(13)
_cell_angle_alpha                90
_cell_angle_beta                 90
_cell_angle_gamma                90
_cell_volume                     27918.4
loop_
_atom_site_label
_atom_site_type_symbol
_atom_site_fract_x
_atom_site_fract_y
_atom_site_fract_z
_atom_site_U_iso_or_equiv
_atom_site_thermal_displace_type
Cd1 Cd 0.50106(2) 0.31729(2) 0.31878(3) 0.0276 Uani
Cd2 Cd 0.60792(2) 0.24828(2) 0.5354 0.0217 Uani
Mg1 Mg 0.55738(7) 0.28181(7) 0.42334(11) 0.0227 Uani
O1 O 0.82349(15) 0.02346(14) 0.7062(2) 0.0317 Uani
O2 O 0.57188(17) 0.28986(16) 0.5872(2) 0.0350 Uani
O3 O 0.55421(17) 0.30135(17) 0.5012(3) 0.0370 Uani
O4 O 0.80656(17) 0.05045(16) 0.7845(4) 0.0470 Uani
O5 O 0.71386(18) 0.52783(17) 0.5135(3) 0.0417 Uani
O6 O 0.68868(17) 0.51250(18) 0.5947(2) 0.0383 Uani
O7 O 0.2986(2) 0.1179(2) 0.5809(5) 0.0700 Uani
O8 O 0.2904(2) 0.0898(2) 0.5004(4) 0.0667 Uani
O9 O 0.49831(14) 0.26685(16) 0.4277(3) 0.0323 Uani
O10 O 0.46114(17) 0.27225(16) 0.3530(3) 0.0443 Uani
O11 O 0.62932(18) 0.21976(18) 0.6190(3) 0.0450 Uani
O12 O 0.65630(17) 0.19973(16) 0.5415(3) 0.0383 Uani
O13 O 0.36583(15) 0.45343(15) 0.6708(2) 0.0297 Uani
O14 O 0.39910(16) 0.45859(15) 0.7509(3) 0.0347 Uani
O15 O 0.53997(15) 0.33752(14) 0.3935(2) 0.0300 Uani
O16 O 0.55085(17) 0.36645(17) 0.3143(3) 0.0417 Uani
C1 C 0.4268(2) 0.4189(2) 0.6823(4) 0.0323 Uani
C2 C 0.4537(3) 0.4026(3) 0.7191(4) 0.0430 Uani
H1 H 0.4517 0.4085 0.7563 0.0520 Uiso
C3 C 0.4683(2) 0.2593(2) 0.3996(4) 0.0387 Uani
C4 C 0.4827(3) 0.3782(3) 0.7015(4) 0.0470 Uani
H2 H 0.5002 0.3673 0.7268 0.0560 Uiso
C5 C 0.3076(3) 0.1153(3) 0.5327(9) 0.0873 Uani
C6 C 0.5165(3) 0.3434(2) 0.6260(3) 0.0353 Uani
H3 H 0.5342 0.3322 0.6508 0.0420 Uiso
C7 C 0.5511(2) 0.3066(2) 0.5518(3) 0.0317 Uani
C8 C 0.5195(2) 0.3346(2) 0.5713(3) 0.0323 Uani
C9 C 0.4870(2) 0.3692(2) 0.6449(3) 0.0313 Uani
C10 C 0.4293(2) 0.4106(3) 0.6278(4) 0.0360 Uani
H4 H 0.4111 0.4217 0.6035 0.0430 Uiso
C11 C 0.4594(2) 0.3852(2) 0.6075(4) 0.0363 Uani
C12 C 0.4632(3) 0.3762(3) 0.5520(4) 0.0597 Uani
H5 H 0.4452 0.3870 0.5272 0.0720 Uiso
C13 C 0.4927(3) 0.3517(3) 0.5326(4) 0.0530 Uani
H6 H 0.4951 0.3465 0.4953 0.0640 Uiso
C14 C 0.3944(2) 0.4456(2) 0.7022(3) 0.0317 Uani
C15 C 0.7764(4) 0.0735(3) 0.6955(7) 0.0253 Uani
C16 C 0.7786(3) 0.0725(3) 0.6386(5) 0.0317 Uani
H7 H 0.7965 0.0557 0.6216 0.0380 Uiso
C17 C 0.7506(3) 0.0979(3) 0.7215(6) 0.0310 Uani
H8 H 0.7499 0.0987 0.7596 0.0370 Uiso
C18 C 0.7550(3) 0.0956(3) 0.6079(5) 0.0323 Uani
H9 H 0.7562 0.0945 0.5698 0.0390 Uiso
C19 C 0.7279(3) 0.1219(4) 0.6346(5) 0.0273 Uani
C20 C 0.7025(4) 0.1474(4) 0.6029(6) 0.0303 Uani
H10 H 0.7037 0.1470 0.5648 0.0360 Uiso
C21 C 0.6767(4) 0.1720(4) 0.6291(6) 0.0300 Uani
C22 C 0.6729(4) 0.1714(3) 0.6863(5) 0.0370 Uani
H11 H 0.6544 0.1875 0.7036 0.0440 Uiso
C23 C 0.6967(4) 0.1470(3) 0.7167(5) 0.0340 Uani
H12 H 0.6945 0.1467 0.7548 0.0410 Uiso
C24 C 0.7246(5) 0.1222(4) 0.6905(7) 0.0277 Uani
C25 C 0.8031(2) 0.0480(2) 0.7338(5) 0.0387 Uani
C26 C 0.6527(2) 0.1986(2) 0.5930(4) 0.0363 Uani
C27 C 0.6909(2) 0.5084(2) 0.5439(4) 0.0350 Uani
C28 C 0.6639(3) 0.4786(2) 0.5175(4) 0.0400 Uani
C29 C 0.6384(3) 0.4553(3) 0.5514(4) 0.0450 Uani
H13 H 0.6380 0.4594 0.5891 0.0540 Uiso
C30 C 0.6151(3) 0.4276(3) 0.5288(4) 0.0477 Uani
H14 H 0.5994 0.4120 0.5514 0.0570 Uiso
C31 C 0.6141(3) 0.4218(3) 0.4712(4) 0.0400 Uani
C32 C 0.5881(2) 0.3938(2) 0.4449(4) 0.0363 Uani
H15 H 0.5724 0.3775 0.4665 0.0440 Uiso
C33 C 0.5860(2) 0.3908(2) 0.3906(4) 0.0380 Uani
C34 C 0.5576(2) 0.3630(2) 0.3643(4) 0.0327 Uani
C35 C 0.6102(3) 0.4149(3) 0.3572(4) 0.0477 Uani
H16 H 0.6085 0.4128 0.3192 0.0570 Uiso
C36 C 0.6361(3) 0.4413(3) 0.3801(4) 0.0500 Uani
H17 H 0.6523 0.4566 0.3577 0.0600 Uiso
C37 C 0.6381(2) 0.4452(2) 0.4367(4) 0.0357 Uani
C38 C 0.6636(3) 0.4732(2) 0.4622(4) 0.0433 Uani
H18 H 0.6804 0.4882 0.4403 0.0520 Uiso
C39 C 0.4362(7) 0.2302(7) 0.4128(10) 0.0327 Uani
C40 C 0.3776(6) 0.1775(6) 0.4493(10) 0.0403 Uani
C41 C 0.4020(7) 0.1965(6) 0.4902(10) 0.0447 Uani
C42 C 0.3821(5) 0.1858(5) 0.3941(9) 0.0420 Uani
H19 H 0.3657 0.1737 0.3684 0.0510 Uiso
C43 C 0.4106(5) 0.2119(5) 0.3772(10) 0.0377 Uani
H20 H 0.4127 0.2174 0.3399 0.0450 Uiso
C44 C 0.3480(6) 0.1504(5) 0.4701(9) 0.0460 Uani
H21 H 0.3322 0.1367 0.4452 0.0550 Uiso
C45 C 0.4328(5) 0.2233(5) 0.4690(10) 0.0387 Uani
H22 H 0.4502 0.2356 0.4933 0.0460 Uiso
C46 C 0.3431(6) 0.1445(6) 0.5211(10) 0.0437 Uani
C47 C 0.3956(6) 0.1882(6) 0.5451(9) 0.0600 Uani
H23 H 0.4114 0.2005 0.5713 0.0720 Uiso
C48 C 0.3677(7) 0.1635(7) 0.5616(11) 0.0687 Uani
H24 H 0.3642 0.1583 0.5988 0.0820 Uiso
Cd1B Cd 0.74894(2) 0.56729(2) 0.56878(3) 0.0276 Uani
Cd1N Cd 0.24894(2) 0.06729(2) 0.56878(3) 0.0276 Uani
Cd2C Cd 0.35792(2) 0.50172(2) 0.7854 0.0217 Uani
Cd2O Cd 0.85792(2) 0.00172(2) 0.7854 0.0217 Uani
Mg1B Mg 0.69262(7) 0.53181(7) 0.67334(11) 0.0227 Uani
Mg1C Mg 0.30738(7) 0.46819(7) 0.67334(11) 0.0227 Uani
Mg1O Mg 0.80738(7) -0.03181(7) 0.67334(11) 0.0227 Uani
O1G O 0.57349(15) 0.22654(14) 0.4562(2) 0.0317 Uani
O4G O 0.55656(17) 0.19955(16) 0.5345(4) 0.0470 Uani
O5F O 0.53614(18) 0.27783(17) 0.2635(3) 0.0417 Uani
O6F O 0.56132(17) 0.26250(18) 0.3447(2) 0.0383 Uani
O7J O 0.4514(2) 0.3679(2) 0.3309(5) 0.0700 Uani
O8J O 0.4596(2) 0.3398(2) 0.2504(4) 0.0667 Uani
O13K O 0.61583(15) 0.29657(15) 0.4208(2) 0.0297 Uani
O14K O 0.64910(16) 0.29141(15) 0.5009(3) 0.0347 Uani
O17 O 0.3260(5) 0.6994(5) 0.7425(7) 0.1673 Uani
N1 N 0.3530(5) 0.6578(5) 0.6888(7) 0.1510 Uani
C49 C 0.3285(7) 0.6860(6) 0.6964(9) 0.1633 Uani
C50 C 0.3744(7) 0.6403(6) 0.7387(9) 0.1407 Uani
H25 H 0.3798 0.6606 0.7649 0.2110 Uiso
H26 H 0.3991 0.6287 0.7271 0.2110 Uiso
H27 H 0.3579 0.6207 0.7552 0.2110 Uiso
C51 C 0.3087(6) 0.7025(5) 0.6442(9) 0.1177 Uani
H28 H 0.2838 0.6896 0.6380 0.1760 Uiso
H29 H 0.3260 0.6983 0.6133 0.1760 Uiso
H30 H 0.3042 0.7301 0.6487 0.1760 Uiso
C52 C 0.3611(5) 0.6402(6) 0.6347(7) 0.1310 Uani
H31 H 0.3726 0.6147 0.6396 0.1960 Uiso
H32 H 0.3793 0.6565 0.6147 0.1960 Uiso
H33 H 0.3366 0.6378 0.6145 0.1960 Uiso
N2 N 0.8106(5) 0.5298(4) 0.4313(7) 0.1107 Uani
H34 H 0.8096 0.5515 0.4514 0.1330 Uiso
H35 H 0.8293 0.5331 0.4058 0.1330 Uiso
C53 C 0.8218(5) 0.4972(4) 0.4665(6) 0.0827 Uani
H36 H 0.8248 0.4740 0.4446 0.1240 Uiso
H37 H 0.8014 0.4930 0.4935 0.1240 Uiso
H38 H 0.8466 0.5030 0.4844 0.1240 Uiso
C54 C 0.7725(6) 0.5241(7) 0.4046(8) 0.1453 Uani
H39 H 0.7737 0.5012 0.3818 0.2190 Uiso
H40 H 0.7664 0.5465 0.3824 0.2190 Uiso
H41 H 0.7521 0.5208 0.4319 0.2190 Uiso
C55 C 0.1362(8) 0.0963(8) 0.4602(14) 0.2060 Uani
H42 H 0.1604 0.0902 0.4794 0.3090 Uiso
H43 H 0.1319 0.0773 0.4317 0.3090 Uiso
H44 H 0.1142 0.0956 0.4855 0.3090 Uiso
O18 O 0.1770(6) 0.1740(6) 0.3827(8) 0.2030 Uani
C56 C 0.2030(6) 0.1093(7) 0.4153(10) 0.1607 Uani
H45 H 0.2280 0.1121 0.3964 0.2410 Uiso
H46 H 0.1906 0.0852 0.4045 0.2410 Uiso
H47 H 0.2076 0.1091 0.4542 0.2410 Uiso
C57 C 0.1137(9) 0.1700(9) 0.4317(15) 0.2237 Uani
H48 H 0.0872 0.1600 0.4369 0.3380 Uiso
H49 H 0.1157 0.1822 0.3964 0.3380 Uiso
H50 H 0.1196 0.1888 0.4598 0.3380 Uiso
N3 N 0.1391(7) 0.1341(8) 0.4368(12) 0.2273 Uani
C58 C 0.1780(9) 0.1408(9) 0.4018(13) 0.1830 Uani
loop_
_atom_site_aniso_label
_atom_site_aniso_U_11
_atom_site_aniso_U_22
_atom_site_aniso_U_33
_atom_site_aniso_U_23
_atom_site_aniso_U_13
_atom_site_aniso_U_12
Cd1 0.0262(3) 0.0252(3) 0.0315(3) 0.0009(2) -0.0065(2) 0.0000(2)
Cd2 0.0218(2) 0.0224(2) 0.0208(3) 0.0019(2) 0.0020(2) 0.00053(19)
Mg1 0.0236(11) 0.0239(10) 0.0206(12) -0.0044(9) -0.0026(9) 0.0021(8)
O1 0.031(3) 0.026(3) 0.038(3) 0.007(2) -0.009(2) 0.000(2)
O2 0.044(3) 0.036(3) 0.025(3) 0.001(2) 0.010(3) 0.010(2)
O3 0.041(3) 0.042(3) 0.028(3) -0.009(3) 0.004(3) 0.004(2)
O4 0.035(3) 0.039(3) 0.067(5) -0.017(3) 0.001(4) 0.008(2)
O5 0.049(4) 0.044(3) 0.032(3) -0.011(3) 0.006(3) -0.009(3)
O6 0.040(3) 0.046(3) 0.029(3) -0.013(3) 0.003(3) -0.009(3)
O7 0.035(4) 0.046(4) 0.129(9) 0.010(5) 0.014(5) -0.012(3)
O8 0.061(4) 0.051(4) 0.088(6) 0.023(4) 0.040(4) 0.006(4)
O9 0.024(3) 0.035(3) 0.038(3) 0.001(3) 0.002(2) 0.003(2)
O10 0.035(3) 0.036(3) 0.062(5) 0.015(3) -0.008(3) -0.011(2)
O11 0.046(3) 0.051(4) 0.038(4) 0.008(3) 0.000(3) 0.001(3)
O12 0.039(3) 0.036(3) 0.040(4) 0.003(3) -0.002(3) 0.010(2)
O13 0.028(3) 0.034(3) 0.027(3) 0.003(2) 0.004(2) 0.000(2)
O14 0.031(3) 0.039(3) 0.034(3) -0.011(3) -0.001(3) 0.010(2)
O15 0.028(3) 0.026(3) 0.036(3) -0.004(2) -0.007(2) -0.003(2)
O16 0.045(3) 0.041(3) 0.039(4) 0.003(3) -0.007(3) -0.010(3)
C1 0.033(4) 0.034(4) 0.030(5) -0.002(3) 0.006(4) -0.006(3)
C2 0.053(5) 0.054(5) 0.022(5) -0.010(4) 0.004(4) 0.014(4)
C3 0.024(4) 0.030(4) 0.062(6) 0.010(4) 0.010(4) 0.002(3)
C4 0.052(5) 0.064(6) 0.025(5) -0.004(4) -0.007(4) 0.024(5)
C5 0.050(6) 0.032(5) 0.180(17) 0.035(9) 0.043(9) 0.005(5)
C6 0.038(4) 0.043(5) 0.025(4) -0.001(3) -0.002(4) 0.012(4)
C7 0.032(4) 0.036(4) 0.027(5) -0.005(3) 0.001(3) -0.005(3)
C8 0.029(4) 0.042(4) 0.026(4) -0.003(3) 0.000(3) 0.001(3)
C9 0.026(4) 0.038(4) 0.030(5) -0.006(3) 0.004(3) 0.005(3)
C10 0.028(4) 0.051(5) 0.029(5) -0.007(4) -0.005(3) 0.009(3)
C11 0.036(4) 0.046(5) 0.027(4) -0.007(4) 0.001(4) 0.006(4)
C12 0.052(5) 0.099(8) 0.028(5) -0.015(5) -0.011(4) 0.031(6)
C13 0.053(5) 0.085(7) 0.021(5) -0.014(5) -0.002(4) 0.023(5)
C14 0.034(4) 0.030(4) 0.031(5) 0.000(3) 0.006(4) -0.001(3)
C15 0.021(5) 0.016(5) 0.039(6) -0.004(4) 0.004(5) -0.005(4)
C16 0.028(5) 0.029(5) 0.038(6) 0.001(4) 0.004(4) 0.008(4)
C17 0.035(5) 0.027(5) 0.031(6) -0.002(4) 0.000(4) 0.009(4)
C18 0.038(5) 0.029(5) 0.030(6) -0.004(4) 0.000(4) 0.008(4)
C19 0.026(5) 0.028(5) 0.028(5) -0.004(4) 0.001(4) 0.004(4)
C20 0.026(5) 0.032(5) 0.033(6) 0.002(4) 0.000(5) 0.005(4)
C21 0.024(5) 0.034(6) 0.032(6) 0.000(4) 0.000(4) 0.003(4)
C22 0.043(6) 0.032(5) 0.036(5) 0.000(4) 0.002(5) 0.019(5)
C23 0.046(6) 0.029(5) 0.027(5) -0.005(4) 0.002(5) 0.022(5)
C24 0.028(7) 0.024(6) 0.031(6) -0.006(4) 0.003(4) 0.009(5)
C25 0.029(4) 0.015(3) 0.072(6) 0.002(4) -0.010(4) 0.004(3)
C26 0.035(4) 0.034(4) 0.040(5) 0.007(3) -0.013(4) -0.004(3)
C27 0.032(4) 0.039(4) 0.034(5) -0.010(4) -0.001(4) -0.002(3)
C28 0.048(5) 0.036(4) 0.036(5) -0.010(3) 0.006(4) -0.001(4)
C29 0.047(5) 0.055(5) 0.033(5) -0.007(4) 0.001(4) -0.014(4)
C30 0.045(5) 0.065(5) 0.033(5) 0.002(4) 0.005(4) -0.022(4)
C31 0.040(5) 0.045(5) 0.035(5) 0.001(4) 0.000(4) 0.001(4)
C32 0.039(4) 0.031(4) 0.039(5) 0.001(3) -0.002(4) -0.003(3)
C33 0.033(4) 0.043(5) 0.038(5) -0.007(4) -0.012(4) 0.001(4)
C34 0.034(4) 0.024(4) 0.040(5) -0.011(3) -0.007(4) 0.000(3)
C35 0.063(6) 0.044(5) 0.036(5) -0.001(4) 0.003(5) -0.018(4)
C36 0.065(6) 0.050(5) 0.035(5) -0.007(4) 0.005(5) -0.024(5)
C37 0.042(4) 0.033(4) 0.032(5) -0.004(3) 0.004(4) -0.009(3)
C38 0.052(5) 0.037(4) 0.041(5) -0.008(4) 0.000(4) -0.011(4)
C39 0.023(8) 0.036(9) 0.039(9) 0.014(7) -0.015(7) -0.003(7)
C40 0.033(8) 0.034(8) 0.054(9) 0.003(6) -0.003(6) 0.000(6)
C41 0.038(8) 0.044(9) 0.052(9) 0.009(6) -0.006(6) -0.013(7)
C42 0.026(7) 0.046(8) 0.054(9) 0.000(6) -0.004(6) -0.005(6)
C43 0.025(7) 0.046(8) 0.042(9) 0.003(7) -0.015(7) -0.006(6)
C44 0.038(8) 0.042(8) 0.058(9) 0.007(7) -0.003(7) -0.004(7)
C45 0.028(7) 0.042(8) 0.046(9) 0.008(7) -0.009(6) -0.002(6)
C46 0.037(9) 0.036(8) 0.058(9) 0.006(7) 0.001(7) -0.002(7)
C47 0.060(10) 0.066(10) 0.054(9) 0.012(7) -0.012(7) -0.032(9)
C48 0.073(11) 0.073(12) 0.060(11) 0.015(8) -0.006(8) -0.040(10)
Cd1B 0.0262 0.0252 0.0315 0.0009 0.0065 0
Cd1N 0.0262 0.0252 0.0315 0.0009 0.0065 0
Cd2C 0.0218 0.0224 0.0208 -0.0019 0.002 -0.00053
Cd2O 0.0218 0.0224 0.0208 -0.0019 0.002 -0.00053
Mg1B 0.0236 0.0239 0.0206 -0.0044 0.0026 -0.0021
Mg1C 0.0236 0.0239 0.0206 0.0044 -0.0026 -0.0021
Mg1O 0.0236 0.0239 0.0206 0.0044 -0.0026 -0.0021
O1G 0.031 0.026 0.038 -0.007 -0.009 0
O4G 0.035 0.039 0.067 0.017 0.001 -0.008
O5F 0.049 0.044 0.032 -0.011 -0.006 0.009
O6F 0.04 0.046 0.029 -0.013 -0.003 0.009
O7J 0.035 0.046 0.129 0.01 -0.014 0.012
O8J 0.061 0.051 0.088 0.023 -0.04 -0.006
O13K 0.028 0.034 0.027 -0.003 0.004 0
O14K 0.031 0.039 0.034 0.011 -0.001 -0.01
O17 0.158(13) 0.217(16) 0.127(12) -0.091(12) 0.006(11) 0.007(12)
N1 0.184(19) 0.141(15) 0.128(16) -0.069(13) 0.062(14) -0.083(14)
C49 0.19(3) 0.15(2) 0.15(2) -0.084(19) 0.07(2) -0.094(19)
C50 0.20(2) 0.117(15) 0.105(16) -0.004(12) -0.016(16) 0.001(15)
C51 0.148(16) 0.082(11) 0.123(16) -0.009(10) -0.021(14) -0.042(11)
C52 0.131(14) 0.144(15) 0.118(15) -0.073(13) 0.048(12) -0.077(12)
N2 0.137(12) 0.083(7) 0.112(11) 0.005(7) 0.101(11) 0.017(8)
C53 0.097(10) 0.100(10) 0.051(8) -0.012(7) 0.021(8) 0.002(8)
C54 0.121(15) 0.21(2) 0.105(16) -0.001(15) 0.063(14) 0.068(17)
C55 0.196(19) 0.192(14) 0.23(2) 0.020(14) -0.029(17) 0.024(13)
O18 0.258(16) 0.171(11) 0.180(14) 0.031(10) -0.063(12) 0.060(10)
C56 0.175(15) 0.162(14) 0.145(17) 0.019(12) -0.036(13) 0.054(12)
C57 0.221(18) 0.210(16) 0.24(2) 0.015(16) -0.037(17) 0.061(15)
N3 0.230(12) 0.218(12) 0.234(14) 0.011(10) -0.016(10) 0.032(9)
C58 0.191(11) 0.172(11) 0.186(14) 0.014(9) -0.050(9) 0.041(9)
loop_
_geom_bond_atom_site_label_1
_geom_bond_atom_site_label_2
_geom_bond_site_symmetry_1
_geom_bond_site_symmetry_2
Cd1 O10 1_555 1_555
Cd2 O2 1_555 1_555
Mg1 O3 1_555 1_555
O1 C25 1_555 1_555
O2 C7 1_555 1_555
O3 Cd2 1_555 1_555
O4 C25 1_555 1_555
O5 C27 1_555 1_555
O6 C27 1_555 1_555
O7 C5 1_555 1_555
O8 C5 1_555 1_555
O9 Mg1 1_555 1_555
O10 C3 1_555 1_555
O11 Cd2 1_555 1_555
O12 Cd2 1_555 1_555
O13 C14 1_555 1_555
O14 C14 1_555 1_555
O15 Cd1 1_555 1_555
O16 Cd1 1_555 1_555
C1 C2 1_555 1_555
C2 H1 1_555 1_555
C3 O9 1_555 1_555
C4 C2 1_555 1_555
H2 C4 1_555 1_555
C5 C46 1_555 1_555
C6 H3 1_555 1_555
C7 O3 1_555 1_555
C8 C6 1_555 1_555
C9 C4 1_555 1_555
C10 C1 1_555 1_555
H4 C10 1_555 1_555
C11 C9 1_555 1_555
C12 C11 1_555 1_555
H5 C12 1_555 1_555
C13 C8 1_555 1_555
H6 C13 1_555 1_555
C14 C1 1_555 1_555
C15 C16 1_555 1_555
C16 H7 1_555 1_555
C17 C15 1_555 1_555
H8 C17 1_555 1_555
C18 C16 1_555 1_555
H9 C18 1_555 1_555
C19 C18 1_555 1_555
C20 C19 1_555 1_555
H10 C20 1_555 1_555
C21 C20 1_555 1_555
C22 C21 1_555 1_555
H11 C22 1_555 1_555
C23 C22 1_555 1_555
H12 C23 1_555 1_555
C24 C17 1_555 1_555
C25 C15 1_555 1_555
C26 O11 1_555 1_555
C27 C28 1_555 1_555
C28 C29 1_555 1_555
C29 H13 1_555 1_555
C30 C29 1_555 1_555
H14 C30 1_555 1_555
C31 C30 1_555 1_555
C32 C31 1_555 1_555
H15 C32 1_555 1_555
C33 C32 1_555 1_555
C34 O15 1_555 1_555
C35 C33 1_555 1_555
H16 C35 1_555 1_555
C36 C35 1_555 1_555
H17 C36 1_555 1_555
C37 C31 1_555 1_555
C38 C28 1_555 1_555
H18 C38 1_555 1_555
C39 C3 1_555 1_555
C40 C41 1_555 1_555
C41 C45 1_555 1_555
C42 C40 1_555 1_555
H19 C42 1_555 1_555
C43 C39 1_555 1_555
H20 C43 1_555 1_555
C44 C40 1_555 1_555
H21 C44 1_555 1_555
C45 C39 1_555 1_555
H22 C45 1_555 1_555
C46 C44 1_555 1_555
C47 C41 1_555 1_555
H23 C47 1_555 1_555
C48 C46 1_555 1_555
H24 C48 1_555 1_555
O17 C49 1_555 1_555
N1 C49 1_555 1_555
C49 C51 1_555 1_555
C50 N1 1_555 1_555
H25 C50 1_555 1_555
H26 C50 1_555 1_555
H27 C50 1_555 1_555
C51 H28 1_555 1_555
H29 C51 1_555 1_555
H30 C51 1_555 1_555
C52 N1 1_555 1_555
H31 C52 1_555 1_555
H32 C52 1_555 1_555
H33 C52 1_555 1_555
N2 H34 1_555 1_555
H35 N2 1_555 1_555
C53 N2 1_555 1_555
H36 C53 1_555 1_555
H37 C53 1_555 1_555
H38 C53 1_555 1_555
C54 N2 1_555 1_555
H39 C54 1_555 1_555
H40 C54 1_555 1_555
H41 C54 1_555 1_555
C55 H42 1_555 1_555
H43 C55 1_555 1_555
H44 C55 1_555 1_555
O18 C58 1_555 1_555
C56 H45 1_555 1_555
H46 C56 1_555 1_555
H47 C56 1_555 1_555
C57 H48 1_555 1_555
H49 C57 1_555 1_555
H50 C57 1_555 1_555
N3 C55 1_555 1_555
C58 C56 1_555 1_555
Cd1B O5 1_555 1_555
Cd1N O7 1_555 1_555
Cd2C O14 1_555 1_555
Cd2O O1 1_555 1_555
Mg1B O6 1_555 1_555
Mg1C O13 1_555 1_555
Mg1O O1 1_555 1_555
O1G Cd2 1_555 1_555
O4G Cd2 1_555 1_555
O5F Cd1 1_555 1_555
O6F Mg1 1_555 1_555
O7J Cd1 1_555 1_555
O8J Cd1 1_555 1_555
O13K Mg1 1_555 1_555
O14K Cd2 1_555 1_555
Mg1 O15 1_555 1_555
Mg1 O1G 1_555 1_555
O4 Cd2O 1_555 1_555
O8 Cd1N 1_555 1_555
O12 C26 1_555 1_555
O16 C34 1_555 1_555
C6 C9 1_555 1_555
C7 C8 1_555 1_555
C10 C11 1_555 1_555
C12 C13 1_555 1_555
C19 C24 1_555 1_555
C21 C26 1_555 1_555
C23 C24 1_555 1_555
C33 C34 1_555 1_555
C36 C37 1_555 1_555
C37 C38 1_555 1_555
C42 C43 1_555 1_555
C47 C48 1_555 1_555
C57 N3 1_555 1_555
N3 C58 1_555 1_555

#END
