
#######################################################################
#
#                 Cambridge Crystallographic Data Centre
#                                CCDC 
#
#######################################################################
#
# If this CIF has been generated from an entry in the Cambridge 
# Structural Database, then it will include bibliographic, chemical, 
# crystal, experimental, refinement or atomic coordinate data resulting 
# from the CCDC's data processing and validation procedures.
#
#######################################################################

data_CEMJOV
_chemical_formula_moiety         '(C20 H6 In3 O18 1-)n'
_symmetry_cell_setting           monoclinic
_symmetry_space_group_name_H-M   'P 21/c'
_symmetry_Int_Tables_number      14
_space_group_name_Hall           '-P 2ybc'
loop_
_symmetry_equiv_pos_site_id
_symmetry_equiv_pos_as_xyz
1 x,y,z
2 -x,1/2+y,1/2-z
3 -x,-y,-z
4 x,1/2-y,1/2+z
_cell_length_a                   7.2441(6)
_cell_length_b                   14.2018(12)
_cell_length_c                   17.147(2)
_cell_angle_alpha                90
_cell_angle_beta                 100.960(10)
_cell_angle_gamma                90
_cell_volume                     1731.89
loop_
_atom_site_label
_atom_site_type_symbol
_atom_site_fract_x
_atom_site_fract_y
_atom_site_fract_z
In1 In 1.03526(6) 0.09049(3) 0.55932(2)
In2 In 0.5000 0.5000 0.0000
C1 C 0.4377(9) 0.3448(5) 0.1268(4)
C2 C 0.4206(9) 0.1386(5) 0.3619(4)
C3 C 0.8322(9) 0.1159(5) 0.3857(4)
C4 C 0.5304(10) 0.1848(5) 0.3066(4)
C5 C 0.7367(9) 0.2780(5) 0.2094(4)
C6 C 0.8286(9) 0.2254(5) 0.2723(4)
H1 H 0.9591 0.2211 0.2820
C7 C 0.4390(9) 0.2365(5) 0.2427(4)
H2 H 0.3083 0.2392 0.2323
C8 C 0.7263(9) 0.1786(5) 0.3215(3)
C9 C 0.5401(9) 0.2849(5) 0.1930(4)
C10 C 0.8535(10) 0.3249(5) 0.1569(4)
O1 O 0.8476(7) 0.2957(4) 0.0881(3)
O2 O 0.9598(8) 0.3911(4) 0.1833(3)
O3 O 0.2703(7) 0.3216(3) 0.0985(3)
O4 O 0.5268(6) 0.4115(3) 0.1051(3)
O5 O 0.5195(7) 0.1198(3) 0.4310(3)
O6 O 0.2524(7) 0.1209(4) 0.3425(3)
O7 O 0.9294(6) 0.1572(3) 0.4446(3)
O8 O 0.8249(7) 0.0300(3) 0.3721(3)
O9 O 0.8063(6) -0.0130(3) 0.5286(2)
H3 H 0.8265 -0.0548 0.5748
In1B In -0.03526(6) 0.90951(3) -0.55932(2)
C1B C 0.5623(9) 0.6552(5) -0.1268(4)
C2B C 0.5794(9) 0.8614(5) -0.3619(4)
C3B C 0.1678(9) 0.8841(5) -0.3857(4)
C4B C 0.4696(10) 0.8152(5) -0.3066(4)
C5B C 0.2633(9) 0.7220(5) -0.2094(4)
C6B C 0.1714(9) 0.7746(5) -0.2723(4)
H1B H 0.0409 0.7789 -0.2820
C7B C 0.5610(9) 0.7635(5) -0.2427(4)
H2B H 0.6917 0.7608 -0.2323
C8B C 0.2737(9) 0.8214(5) -0.3215(3)
C9B C 0.4599(9) 0.7151(5) -0.1930(4)
C10B C 0.1465(10) 0.6751(5) -0.1569(4)
O1B O 0.1524(7) 0.7043(4) -0.0881(3)
O2B O 0.0402(8) 0.6089(4) -0.1833(3)
O3B O 0.7297(7) 0.6784(3) -0.0985(3)
O4B O 0.4732(6) 0.5885(3) -0.1051(3)
O5B O 0.4805(7) 0.8802(3) -0.4310(3)
O6B O 0.7476(7) 0.8791(4) -0.3425(3)
O7B O 0.0706(6) 0.8428(3) -0.4446(3)
O8B O 0.1751(7) 0.9700(3) -0.3721(3)
O9B O 0.1937(6) 1.0130(3) -0.5286(2)
H3B H 0.1735 1.0548 -0.5748
In1_2 In 0.03526(6) 1.09049(3) -0.44068(2)
In1A In -0.03526(6) 0.59049(3) -0.05932(2)
In1A_2 In 0.96474(6) 0.59049(3) -0.05932(2)
In1B_2 In 0.96474(6) -0.09049(3) 0.44068(2)
In1C In 0.03526(6) 0.40951(3) 0.05932(2)
In1C_2 In 1.03526(6) 0.40951(3) 0.05932(2)
In2A In 0.5000 0.0000 0.5000
In2A_2 In 0.5000 1.0000 -0.5000
O1A O 0.1524(7) 0.7957(4) -0.5881(3)
O1C O 0.8476(7) 0.2043(4) 0.5881(3)
O2A O 0.0402(8) 0.8911(4) -0.6833(3)
O2C O 0.9598(8) 0.1089(4) 0.6833(3)
O3A O -0.2703(7) 0.8216(3) -0.5985(3)
O3C O 1.2703(7) 0.1784(3) 0.5985(3)
O5A O 0.4805(7) 0.6198(3) 0.0690(3)
O5C O 0.5195(7) 0.3802(3) -0.0690(3)
O8_2 O -0.1751(7) 1.0300(3) -0.6279(3)
O8B_2 O 1.1751(7) -0.0300(3) 0.6279(3)
O9_2 O -0.1937(6) 0.9870(3) -0.4714(2)
O9A O 0.1937(6) 0.4870(3) -0.0286(2)
O9B_2 O 1.1937(6) 0.0130(3) 0.4714(2)
O9C O 0.8063(6) 0.5130(3) 0.0286(2)
loop_
_geom_bond_atom_site_label_1
_geom_bond_atom_site_label_2
_geom_bond_site_symmetry_1
_geom_bond_site_symmetry_2
In1 O7 1_555 1_555
In2 O4 1_555 1_555
C1 C9 1_555 1_555
C2 C4 1_555 1_555
C3 C8 1_555 1_555
C4 C7 1_555 1_555
C5 C6 1_555 1_555
C6 H1 1_555 1_555
C7 H2 1_555 1_555
C8 C4 1_555 1_555
C9 C5 1_555 1_555
C10 C5 1_555 1_555
O1 C10 1_555 1_555
O2 C10 1_555 1_555
O3 C1 1_555 1_555
O4 C1 1_555 1_555
O5 C2 1_555 1_555
O6 C2 1_555 1_555
O7 C3 1_555 1_555
O8 C3 1_555 1_555
O9 In1 1_555 1_555
H3 O9 1_555 1_555
In1B O7B 1_555 1_555
C1B C9B 1_555 1_555
C2B C4B 1_555 1_555
C3B C8B 1_555 1_555
C4B C7B 1_555 1_555
C5B C6B 1_555 1_555
C6B H1B 1_555 1_555
C7B H2B 1_555 1_555
C8B C4B 1_555 1_555
C9B C5B 1_555 1_555
C10B C5B 1_555 1_555
O1B C10B 1_555 1_555
O2B C10B 1_555 1_555
O3B C1B 1_555 1_555
O4B In2 1_555 1_555
O5B C2B 1_555 1_555
O6B C2B 1_555 1_555
O7B C3B 1_555 1_555
O8B C3B 1_555 1_555
O9B In1B 1_555 1_555
H3B O9B 1_555 1_555
In1_2 O8B 1_555 1_555
In1A O1B 1_555 1_555
In1A_2 O3B 1_555 1_555
In1B_2 O8 1_555 1_555
In1C O3 1_555 1_555
In1C_2 O1 1_555 1_555
In2A O5 1_555 1_555
In2A_2 O5B 1_555 1_555
O1A In1B 1_555 1_555
O1C In1 1_555 1_555
O2A In1B 1_555 1_555
O2C In1 1_555 1_555
O3A In1B 1_555 1_555
O3C In1 1_555 1_555
O5A In2 1_555 1_555
O5C In2 1_555 1_555
O8_2 In1B 1_555 1_555
O8B_2 In1 1_555 1_555
O9_2 In1B 1_555 1_555
O9A In2 1_555 1_555
O9B_2 In1 1_555 1_555
O9C In2 1_555 1_555
C6 C8 1_555 1_555
C7 C9 1_555 1_555
O2 In1C_2 1_555 1_555
O9 In1B_2 1_555 1_555
O9 In2A 1_555 1_555
C1B O4B 1_555 1_555
C6B C8B 1_555 1_555
C7B C9B 1_555 1_555
O2B In1A 1_555 1_555
O9B In1_2 1_555 1_555
O9B In2A_2 1_555 1_555
In1_2 O9_2 1_555 1_555
In1A O9A 1_555 1_555
In1A_2 O9C 1_555 1_555
In1B_2 O9B_2 1_555 1_555
In1C O9A 1_555 1_555
In1C_2 O9C 1_555 1_555

#END
