
#######################################################################
#
#                 Cambridge Crystallographic Data Centre
#                                CCDC 
#
#######################################################################
#
# If this CIF has been generated from an entry in the Cambridge 
# Structural Database, then it will include bibliographic, chemical, 
# crystal, experimental, refinement or atomic coordinate data resulting 
# from the CCDC's data processing and validation procedures.
#
#######################################################################

data_INARUM
_chemical_formula_moiety         '(C26 H16 N14 O18 Zn5)n'
_symmetry_cell_setting           monoclinic
_symmetry_space_group_name_H-M   'P 21/c'
_symmetry_Int_Tables_number      14
_space_group_name_Hall           '-P 2ybc'
loop_
_symmetry_equiv_pos_site_id
_symmetry_equiv_pos_as_xyz
1 x,y,z
2 -x,1/2+y,1/2-z
3 -x,-y,-z
4 x,1/2-y,1/2+z
_cell_length_a                   11.3605(5)
_cell_length_b                   18.3120(6)
_cell_length_c                   12.4463(4)
_cell_angle_alpha                90
_cell_angle_beta                 108.491(4)
_cell_angle_gamma                90
_cell_volume                     2455.57
loop_
_atom_site_label
_atom_site_type_symbol
_atom_site_fract_x
_atom_site_fract_y
_atom_site_fract_z
Zn1 Zn 0.26629(4) 0.47820(3) 0.90906(3)
Zn2 Zn 0.0000 0.5000 0.0000
Zn3 Zn 0.08276(4) 0.32757(3) 0.44064(4)
O1 O 0.3683(3) 0.47684(16) 0.8103(2)
O2 O 0.4540(3) 0.37340(17) 0.8931(2)
O3 O 0.6411(3) 0.48703(17) 0.9399(2)
O4 O 0.8164(3) 0.47229(18) 0.8972(2)
O5 O 0.7752(4) 0.4596(2) 0.4973(3)
O6 O 0.6197(4) 0.4070(2) 0.3825(3)
O7 O 0.2504(3) 0.36466(18) 0.4856(2)
O8 O -0.0062(5) 0.3449(2) 0.5529(4)
H1 H 0.0447 0.3430 0.6250
H2 H -0.0664 0.3118 0.5485
O9 O 0.2736(3) 0.3383(2) 0.6648(3)
N1 N -0.1295(3) 0.45379(19) 0.1737(3)
N2 N -0.0247(3) 0.44576(19) 0.1426(3)
N3 N 0.0003(3) 0.38353(19) 0.3011(3)
N4 N 0.0654(3) 0.39828(19) -0.0477(3)
N5 N 0.1726(3) 0.38938(18) -0.0752(3)
N6 N 0.0921(3) 0.28058(19) -0.0723(3)
N7 N 0.6740(4) 0.4309(2) 0.4746(3)
C1 C -0.1107(4) 0.4165(2) 0.2678(3)
H3 H -0.1680 0.4133 0.3069
C2 C 0.0503(4) 0.4039(2) 0.2206(3)
H4 H 0.1289 0.3899 0.2204
C3 C 0.0207(4) 0.3325(2) -0.0468(4)
H5 H -0.0521 0.3226 -0.0304
C4 C 0.1856(4) 0.3189(2) -0.0894(4)
H6 H 0.2509 0.2983 -0.1087
C5 C 0.3122(4) 0.3637(2) 0.5915(3)
C6 C 0.4411(4) 0.3951(2) 0.6220(3)
C7 C 0.4975(4) 0.3994(2) 0.5373(3)
H7 H 0.4553 0.3844 0.4637
C8 C 0.6166(4) 0.4261(2) 0.5646(3)
C9 C 0.6833(4) 0.4478(2) 0.6718(3)
H8 H 0.7644 0.4644 0.6882
C10 C 0.6258(4) 0.4442(2) 0.7564(3)
C11 C 0.5040(3) 0.4196(2) 0.7314(3)
C12 C 0.4372(3) 0.4218(2) 0.8200(3)
C13 C 0.7023(4) 0.4701(2) 0.8745(3)
Zn1B Zn -0.26629(4) 0.52180(3) -0.90906(3)
Zn3B Zn -0.08276(4) 0.67243(3) -0.44064(4)
O1B O -0.3683(3) 0.52316(16) -0.8103(2)
O2B O -0.4540(3) 0.62660(17) -0.8931(2)
O3B O -0.6411(3) 0.51297(17) -0.9399(2)
O4B O -0.8164(3) 0.52771(18) -0.8972(2)
O5B O -0.7752(4) 0.5404(2) -0.4973(3)
O6B O -0.6197(4) 0.5930(2) -0.3825(3)
O7B O -0.2504(3) 0.63534(18) -0.4856(2)
O8B O 0.0062(5) 0.6551(2) -0.5529(4)
H1B H -0.0447 0.6570 -0.6250
H2B H 0.0664 0.6882 -0.5485
O9B O -0.2736(3) 0.6617(2) -0.6648(3)
N1B N 0.1295(3) 0.54621(19) -0.1737(3)
N2B N 0.0247(3) 0.55424(19) -0.1426(3)
N3B N -0.0003(3) 0.61647(19) -0.3011(3)
N4B N -0.0654(3) 0.60172(19) 0.0477(3)
N5B N -0.1726(3) 0.61062(18) 0.0752(3)
N6B N -0.0921(3) 0.71942(19) 0.0723(3)
N7B N -0.6740(4) 0.5691(2) -0.4746(3)
C1B C 0.1107(4) 0.5835(2) -0.2678(3)
H3B H 0.1680 0.5867 -0.3069
C2B C -0.0503(4) 0.5961(2) -0.2206(3)
H4B H -0.1289 0.6101 -0.2204
C3B C -0.0207(4) 0.6675(2) 0.0468(4)
H5B H 0.0521 0.6774 0.0304
C4B C -0.1856(4) 0.6811(2) 0.0894(4)
H6B H -0.2509 0.7017 0.1087
C5B C -0.3122(4) 0.6363(2) -0.5915(3)
C6B C -0.4411(4) 0.6049(2) -0.6220(3)
C7B C -0.4975(4) 0.6006(2) -0.5373(3)
H7B H -0.4553 0.6156 -0.4637
C8B C -0.6166(4) 0.5739(2) -0.5646(3)
C9B C -0.6833(4) 0.5522(2) -0.6718(3)
H8B H -0.7644 0.5356 -0.6882
C10B C -0.6258(4) 0.5558(2) -0.7564(3)
C11B C -0.5040(3) 0.5804(2) -0.7314(3)
C12B C -0.4372(3) 0.5782(2) -0.8200(3)
C13B C -0.7023(4) 0.5299(2) -0.8745(3)
Zn1_2 Zn -0.73371(4) 0.47820(3) -1.09094(3)
Zn1_3 Zn 0.26629(4) 0.47820(3) -0.09094(3)
Zn1B_2 Zn -0.26629(4) 0.52180(3) 0.09094(3)
Zn1B_3 Zn 0.73371(4) 0.52180(3) 1.09094(3)
Zn2_2 Zn -1.0000 0.5000 -1.0000
Zn2_3 Zn 1.0000 0.5000 1.0000
Zn3A Zn -0.08276(4) 0.82757(3) 0.05936(4)
Zn3C Zn 0.08276(4) 0.17243(3) -0.05936(4)
O3_2 O -0.3589(3) 0.48703(17) -1.0601(2)
O3B_2 O 0.3589(3) 0.51297(17) 1.0601(2)
O4_2 O -0.1836(3) 0.47229(18) -0.1028(2)
O4B_2 O 0.1836(3) 0.52771(18) 0.1028(2)
N1_2 N -0.1295(3) 0.45379(19) -0.8263(3)
N1B_2 N 0.1295(3) 0.54621(19) 0.8263(3)
N5_2 N 0.1726(3) 0.38938(18) 0.9248(3)
N5B_2 N -0.1726(3) 0.61062(18) -0.9248(3)
N6A N -0.0921(3) 0.78058(19) -0.4277(3)
N6C N 0.0921(3) 0.21942(19) 0.4277(3)
loop_
_geom_bond_atom_site_label_1
_geom_bond_atom_site_label_2
_geom_bond_site_symmetry_1
_geom_bond_site_symmetry_2
Zn1 O1 1_555 1_555
Zn2 N2 1_555 1_555
Zn3 O7 1_555 1_555
O1 C12 1_555 1_555
O2 C12 1_555 1_555
O3 C13 1_555 1_555
O4 C13 1_555 1_555
O5 N7 1_555 1_555
O6 N7 1_555 1_555
O7 C5 1_555 1_555
O8 Zn3 1_555 1_555
H1 O8 1_555 1_555
H2 O8 1_555 1_555
O9 C5 1_555 1_555
N1 N2 1_555 1_555
N2 C2 1_555 1_555
N3 Zn3 1_555 1_555
N4 Zn2 1_555 1_555
N5 N4 1_555 1_555
N6 C3 1_555 1_555
N7 C8 1_555 1_555
C1 N1 1_555 1_555
H3 C1 1_555 1_555
C2 N3 1_555 1_555
H4 C2 1_555 1_555
C3 N4 1_555 1_555
H5 C3 1_555 1_555
C4 N5 1_555 1_555
H6 C4 1_555 1_555
C5 C6 1_555 1_555
C6 C7 1_555 1_555
C7 H7 1_555 1_555
C8 C7 1_555 1_555
C9 C8 1_555 1_555
H8 C9 1_555 1_555
C10 C9 1_555 1_555
C11 C6 1_555 1_555
C12 C11 1_555 1_555
C13 C10 1_555 1_555
Zn1B O1B 1_555 1_555
Zn3B O7B 1_555 1_555
O1B C12B 1_555 1_555
O2B C12B 1_555 1_555
O3B C13B 1_555 1_555
O4B C13B 1_555 1_555
O5B N7B 1_555 1_555
O6B N7B 1_555 1_555
O7B C5B 1_555 1_555
O8B Zn3B 1_555 1_555
H1B O8B 1_555 1_555
H2B O8B 1_555 1_555
O9B C5B 1_555 1_555
N1B N2B 1_555 1_555
N2B Zn2 1_555 1_555
N3B Zn3B 1_555 1_555
N4B Zn2 1_555 1_555
N5B N4B 1_555 1_555
N6B C3B 1_555 1_555
N7B C8B 1_555 1_555
C1B N1B 1_555 1_555
H3B C1B 1_555 1_555
C2B N2B 1_555 1_555
H4B C2B 1_555 1_555
C3B N4B 1_555 1_555
H5B C3B 1_555 1_555
C4B N5B 1_555 1_555
H6B C4B 1_555 1_555
C5B C6B 1_555 1_555
C6B C7B 1_555 1_555
C7B H7B 1_555 1_555
C8B C7B 1_555 1_555
C9B C8B 1_555 1_555
H8B C9B 1_555 1_555
C10B C9B 1_555 1_555
C11B C6B 1_555 1_555
C12B C11B 1_555 1_555
C13B C10B 1_555 1_555
Zn1_2 O3B 1_555 1_555
Zn1_3 N5 1_555 1_555
Zn1B_2 N1 1_555 1_555
Zn1B_3 O3 1_555 1_555
Zn2_2 O4B 1_555 1_555
Zn2_3 O4 1_555 1_555
Zn3A N6B 1_555 1_555
Zn3C N6 1_555 1_555
O3_2 Zn1B 1_555 1_555
O3B_2 Zn1 1_555 1_555
O4_2 Zn2 1_555 1_555
O4B_2 Zn2 1_555 1_555
N1_2 Zn1B 1_555 1_555
N1B_2 Zn1 1_555 1_555
N5_2 Zn1 1_555 1_555
N5B_2 Zn1B 1_555 1_555
N6A Zn3B 1_555 1_555
N6C Zn3 1_555 1_555
N3 C1 1_555 1_555
N6 C4 1_555 1_555
C10 C11 1_555 1_555
N1B Zn1_3 1_555 1_555
N3B C1B 1_555 1_555
N3B C2B 1_555 1_555
N5B Zn1B_2 1_555 1_555
N6B C4B 1_555 1_555
C10B C11B 1_555 1_555

#END
