
#######################################################################
#
#                 Cambridge Crystallographic Data Centre
#                                CCDC 
#
#######################################################################
#
# If this CIF has been generated from an entry in the Cambridge 
# Structural Database, then it will include bibliographic, chemical, 
# crystal, experimental, refinement or atomic coordinate data resulting 
# from the CCDC's data processing and validation procedures.
#
#######################################################################

data_MEFJUE
_chemical_formula_moiety         'C54 H18 Cu6 O56 Zn16'
_symmetry_cell_setting           cubic
_symmetry_space_group_name_H-M   'I 2 3'
_symmetry_Int_Tables_number      197
_space_group_name_Hall           'I 2 2 3'
loop_
_symmetry_equiv_pos_site_id
_symmetry_equiv_pos_as_xyz
1 x,y,z
2 -x,-y,z
3 -x,y,-z
4 x,-y,-z
5 z,x,y
6 z,-x,-y
7 -z,-x,y
8 -z,x,-y
9 y,z,x
10 -y,z,-x
11 y,-z,-x
12 -y,-z,x
13 1/2+x,1/2+y,1/2+z
14 1/2-x,1/2-y,1/2+z
15 1/2-x,1/2+y,1/2-z
16 1/2+x,1/2-y,1/2-z
17 1/2+z,1/2+x,1/2+y
18 1/2+z,1/2-x,1/2-y
19 1/2-z,1/2-x,1/2+y
20 1/2-z,1/2+x,1/2-y
21 1/2+y,1/2+z,1/2+x
22 1/2-y,1/2+z,1/2-x
23 1/2+y,1/2-z,1/2-x
24 1/2-y,1/2-z,1/2+x
_cell_length_a                   23.3483(2)
_cell_length_b                   23.3483(2)
_cell_length_c                   23.3483(2)
_cell_angle_alpha                90
_cell_angle_beta                 90
_cell_angle_gamma                90
_cell_volume                     12728.2
loop_
_atom_site_label
_atom_site_type_symbol
_atom_site_fract_x
_atom_site_fract_y
_atom_site_fract_z
Cu1 Cu 0.5000 1.0000 0.93843(4)
Zn2 Zn 0.29396(3) 1.18241(3) 0.76031(3)
O1 O 0.43710(18) 1.05404(18) 0.95175(17)
O2 O 0.4437(2) 1.06521(18) 1.04596(17)
O3 O 0.3044(2) 1.16936(18) 0.84180(17)
O4 O 0.26060(19) 1.24353(17) 0.8819(2)
O5 O 0.2714(3) 1.2655(3) 1.0942(2)
O6 O 0.3339(2) 1.2142(2) 1.1402(2)
O7 O 0.5000 1.0000 0.8517(2)
O8 O 0.25413(18) 1.25413(18) 0.74587(18)
C1 C 0.3794(2) 1.1235(2) 0.9959(3)
C2 C 0.3545(2) 1.1388(2) 0.9436(3)
H1 H 0.3654 1.1198 0.9103
C3 C 0.3140(2) 1.1818(2) 0.9407(2)
C4 C 0.2986(2) 1.2097(2) 0.9899(2)
H2 H 0.2710 1.2383 0.9883
C5 C 0.3235(3) 1.1961(3) 1.0426(2)
C6 C 0.3638(3) 1.1537(3) 1.0444(3)
H3 H 0.3812 1.1449 1.0791
C7 C 0.4233(2) 1.0768(2) 0.9984(3)
C8 C 0.2919(2) 1.1996(2) 0.8828(2)
C9 C 0.3058(3) 1.2276(3) 1.0949(3)
Cu1B Cu 0.5000 1.0000 1.06157(4)
Cu1J Cu -0.0000 1.06157(4) 0.5000
Cu1H Cu -0.0000 0.93843(4) 0.5000
Cu1R Cu 0.56157(4) 1.0000 0.5000
Cu1P Cu 0.43843(4) 1.0000 0.5000
Zn2A Zn 0.70604(3) 0.81759(3) 0.76031(3)
Zn2B Zn 0.70604(3) 1.18241(3) 1.23969(3)
Zn2C Zn 0.29396(3) 0.81759(3) 1.23969(3)
Zn2G Zn 0.23969(3) 1.29396(3) 0.81759(3)
Zn2E Zn 0.76031(3) 0.70604(3) 0.81759(3)
Zn2U Zn 0.31759(3) 1.26031(3) 1.20604(3)
Zn2J Zn 0.18241(3) 1.23969(3) 0.70604(3)
Zn2V Zn 0.68241(3) 0.73969(3) 1.20604(3)
Zn2D Zn 0.76031(3) 1.29396(3) 1.18241(3)
Zn2T Zn 0.68241(3) 1.26031(3) 0.79396(3)
Zn2F Zn 0.23969(3) 0.70604(3) 1.18241(3)
Zn2W Zn 0.31759(3) 0.73969(3) 0.79396(3)
Zn2P Zn 0.26031(3) 0.79396(3) 0.68241(3)
Zn2R Zn 0.73969(3) 1.20604(3) 0.68241(3)
Zn2I Zn 0.81759(3) 0.76031(3) 0.70604(3)
O1A O 0.56290(18) 0.94596(18) 0.95175(17)
O1B O 0.56290(18) 1.05404(18) 1.04825(17)
O1C O 0.43710(18) 0.94596(18) 1.04825(17)
O1J O 0.05404(18) 1.04825(17) 0.56290(18)
O1R O 0.54825(17) 1.06290(18) 0.55404(18)
O1K O -0.05404(18) 1.04825(17) 0.43710(18)
O2A O 0.5563(2) 0.93479(18) 1.04596(17)
O2B O 0.5563(2) 1.06521(18) 0.95404(17)
O2C O 0.4437(2) 0.93479(18) 0.95404(17)
O2J O 0.06521(18) 0.95404(17) 0.5563(2)
O2R O 0.45404(17) 1.0563(2) 0.56521(18)
O2H O 0.06521(18) 1.04596(17) 0.4437(2)
O2I O -0.06521(18) 1.04596(17) 0.5563(2)
O3A O 0.6956(2) 0.83064(18) 0.84180(17)
O3B O 0.6956(2) 1.16936(18) 1.15820(17)
O3C O 0.3044(2) 0.83064(18) 1.15820(17)
O3J O 0.16936(18) 1.15820(17) 0.6956(2)
O3R O 0.65820(17) 1.1956(2) 0.66936(18)
O3G O 0.15820(17) 1.3044(2) 0.83064(18)
O3E O 0.84180(17) 0.6956(2) 0.83064(18)
O4A O 0.73940(19) 0.75647(17) 0.8819(2)
O4B O 0.73940(19) 1.24353(17) 1.1181(2)
O4C O 0.26060(19) 0.75647(17) 1.1181(2)
O4J O 0.24353(17) 1.1181(2) 0.73940(19)
O4R O 0.6181(2) 1.23940(19) 0.74353(17)
O4I O 0.75647(17) 0.8819(2) 0.73940(19)
O4K O 0.75647(17) 1.1181(2) 1.26060(19)
O4H O 0.24353(17) 0.8819(2) 1.26060(19)
O5A O 0.7286(3) 0.7345(3) 1.0942(2)
O5B O 0.7286(3) 1.2655(3) 0.9058(2)
O5C O 0.2714(3) 0.7345(3) 0.9058(2)
O5J O 0.2655(3) 0.9058(2) 0.7286(3)
O5R O 0.4058(2) 1.2286(3) 0.7655(3)
O6A O 0.6661(2) 0.7858(2) 1.1402(2)
O6B O 0.6661(2) 1.2142(2) 0.8598(2)
O6C O 0.3339(2) 0.7858(2) 0.8598(2)
O6J O 0.2142(2) 0.8598(2) 0.6661(2)
O6R O 0.3598(2) 1.1661(2) 0.7142(2)
O6P O 0.6402(2) 0.8339(2) 0.7142(2)
O6Q O 0.6402(2) 1.1661(2) 1.2858(2)
O6S O 0.3598(2) 0.8339(2) 1.2858(2)
O6W O 0.2858(2) 1.3598(2) 0.8339(2)
O6T O 0.7142(2) 0.6402(2) 0.8339(2)
O7B O 0.5000 1.0000 1.1483(2)
O7J O 0.0000 1.1483(2) 0.5000
O8A O 0.74587(18) 0.74587(18) 0.74587(18)
O8B O 0.74587(18) 1.25413(18) 1.25413(18)
O8C O 0.25413(18) 0.74587(18) 1.25413(18)
C1A C 0.6206(2) 0.8765(2) 0.9959(3)
C1B C 0.6206(2) 1.1235(2) 1.0041(3)
C1C C 0.3794(2) 0.8765(2) 1.0041(3)
C1J C 0.1235(2) 1.0041(3) 0.6206(2)
C1R C 0.5041(3) 1.1206(2) 0.6235(2)
C2A C 0.6455(2) 0.8612(2) 0.9436(3)
C2B C 0.6455(2) 1.1388(2) 1.0564(3)
C2C C 0.3545(2) 0.8612(2) 1.0564(3)
C2J C 0.1388(2) 1.0564(3) 0.6455(2)
C2R C 0.5564(3) 1.1455(2) 0.6388(2)
H1A H 0.6346 0.8802 0.9103
H1B H 0.6346 1.1198 1.0897
H1C H 0.3654 0.8802 1.0897
H1J H 0.1198 1.0897 0.6346
H1R H 0.5897 1.1346 0.6198
C3A C 0.6860(2) 0.8182(2) 0.9407(2)
C3B C 0.6860(2) 1.1818(2) 1.0593(2)
C3C C 0.3140(2) 0.8182(2) 1.0593(2)
C3J C 0.1818(2) 1.0593(2) 0.6860(2)
C3R C 0.5593(2) 1.1860(2) 0.6818(2)
C4A C 0.7014(2) 0.7903(2) 0.9899(2)
C4B C 0.7014(2) 1.2097(2) 1.0101(2)
C4C C 0.2986(2) 0.7903(2) 1.0101(2)
C4J C 0.2097(2) 1.0101(2) 0.7014(2)
C4R C 0.5101(2) 1.2014(2) 0.7097(2)
H2A H 0.7290 0.7617 0.9883
H2B H 0.7290 1.2383 1.0117
H2C H 0.2710 0.7617 1.0117
H2J H 0.2383 1.0117 0.7290
H2R H 0.5117 1.2290 0.7383
C5A C 0.6765(3) 0.8039(3) 1.0426(2)
C5B C 0.6765(3) 1.1961(3) 0.9574(2)
C5C C 0.3235(3) 0.8039(3) 0.9574(2)
C5J C 0.1961(3) 0.9574(2) 0.6765(3)
C5R C 0.4574(2) 1.1765(3) 0.6961(3)
C6A C 0.6362(3) 0.8463(3) 1.0444(3)
C6B C 0.6362(3) 1.1537(3) 0.9556(3)
C6C C 0.3638(3) 0.8463(3) 0.9556(3)
C6J C 0.1537(3) 0.9556(3) 0.6362(3)
C6R C 0.4556(3) 1.1362(3) 0.6537(3)
H3A H 0.6188 0.8551 1.0791
H3B H 0.6188 1.1449 0.9209
H3C H 0.3812 0.8551 0.9209
H3J H 0.1449 0.9209 0.6188
H3R H 0.4209 1.1188 0.6449
C7A C 0.5767(2) 0.9232(2) 0.9984(3)
C7B C 0.5767(2) 1.0768(2) 1.0016(3)
C7C C 0.4233(2) 0.9232(2) 1.0016(3)
C7J C 0.0768(2) 1.0016(3) 0.5767(2)
C7R C 0.5016(3) 1.0767(2) 0.5768(2)
C8A C 0.7081(2) 0.8004(2) 0.8828(2)
C8B C 0.7081(2) 1.1996(2) 1.1172(2)
C8C C 0.2919(2) 0.8004(2) 1.1172(2)
C8J C 0.1996(2) 1.1172(2) 0.7081(2)
C8R C 0.6172(2) 1.2081(2) 0.6996(2)
C9A C 0.6942(3) 0.7724(3) 1.0949(3)
C9B C 0.6942(3) 1.2276(3) 0.9051(3)
C9C C 0.3058(3) 0.7724(3) 0.9051(3)
C9J C 0.2276(3) 0.9051(3) 0.6942(3)
C9R C 0.4051(3) 1.1942(3) 0.7276(3)
loop_
_geom_bond_atom_site_label_1
_geom_bond_atom_site_label_2
_geom_bond_site_symmetry_1
_geom_bond_site_symmetry_2
Cu1 O1 1_555 1_555
Zn2 O3 1_555 1_555
O1 C7 1_555 1_555
O2 C7 1_555 1_555
O3 C8 1_555 1_555
O4 C8 1_555 1_555
O5 C9 1_555 1_555
O6 C9 1_555 1_555
O7 Cu1 1_555 1_555
O8 Zn2 1_555 1_555
C1 C2 1_555 1_555
C2 H1 1_555 1_555
C3 C2 1_555 1_555
C4 C3 1_555 1_555
H2 C4 1_555 1_555
C5 C4 1_555 1_555
C6 C1 1_555 1_555
H3 C6 1_555 1_555
C7 C1 1_555 1_555
C8 C3 1_555 1_555
C9 C5 1_555 1_555
Cu1B O2 1_555 1_555
Cu1J O1J 1_555 1_555
Cu1H O2J 1_555 1_555
Cu1R O1R 1_555 1_555
Cu1P O2R 1_555 1_555
Zn2A O3A 1_555 1_555
Zn2B O3B 1_555 1_555
Zn2C O3C 1_555 1_555
Zn2G O4 1_555 1_555
Zn2E O3E 1_555 1_555
Zn2U O6 1_555 1_555
Zn2J O8 1_555 1_555
Zn2V O6A 1_555 1_555
Zn2D O4B 1_555 1_555
Zn2T O4R 1_555 1_555
Zn2F O4C 1_555 1_555
Zn2W O6C 1_555 1_555
Zn2P O6J 1_555 1_555
Zn2R O3R 1_555 1_555
Zn2I O8A 1_555 1_555
O1A Cu1 1_555 1_555
O1B Cu1B 1_555 1_555
O1C Cu1B 1_555 1_555
O1J C7J 1_555 1_555
O1R C7R 1_555 1_555
O1K Cu1J 1_555 1_555
O2A Cu1B 1_555 1_555
O2B Cu1 1_555 1_555
O2C Cu1 1_555 1_555
O2J C7J 1_555 1_555
O2R C7R 1_555 1_555
O2H Cu1J 1_555 1_555
O2I Cu1J 1_555 1_555
O3A C8A 1_555 1_555
O3B C8B 1_555 1_555
O3C C8C 1_555 1_555
O3J Zn2J 1_555 1_555
O3R C8R 1_555 1_555
O3G Zn2G 1_555 1_555
O4A Zn2E 1_555 1_555
O4B C8B 1_555 1_555
O4C C8C 1_555 1_555
O4J Zn2 1_555 1_555
O4R C8R 1_555 1_555
O4I Zn2A 1_555 1_555
O4K Zn2B 1_555 1_555
O4H Zn2C 1_555 1_555
O5A C9A 1_555 1_555
O5B C9B 1_555 1_555
O5C C9C 1_555 1_555
O5J C9J 1_555 1_555
O5R C9R 1_555 1_555
O6A C9A 1_555 1_555
O6B Zn2T 1_555 1_555
O6C C9C 1_555 1_555
O6J C9J 1_555 1_555
O6R Zn2 1_555 1_555
O6P Zn2A 1_555 1_555
O6Q Zn2B 1_555 1_555
O6S Zn2C 1_555 1_555
O6W Zn2G 1_555 1_555
O6T Zn2E 1_555 1_555
O7B Cu1B 1_555 1_555
O7J Cu1J 1_555 1_555
O8A Zn2A 1_555 1_555
O8B Zn2B 1_555 1_555
O8C Zn2C 1_555 1_555
C1A C2A 1_555 1_555
C1B C2B 1_555 1_555
C1C C2C 1_555 1_555
C1J C2J 1_555 1_555
C1R C2R 1_555 1_555
C2A H1A 1_555 1_555
C2B H1B 1_555 1_555
C2C H1C 1_555 1_555
C2J H1J 1_555 1_555
C2R H1R 1_555 1_555
C3A C2A 1_555 1_555
C3B C2B 1_555 1_555
C3C C2C 1_555 1_555
C3J C2J 1_555 1_555
C3R C2R 1_555 1_555
C4A C3A 1_555 1_555
C4B C3B 1_555 1_555
C4C C3C 1_555 1_555
C4J C3J 1_555 1_555
C4R C3R 1_555 1_555
H2A C4A 1_555 1_555
H2B C4B 1_555 1_555
H2C C4C 1_555 1_555
H2J C4J 1_555 1_555
H2R C4R 1_555 1_555
C5A C4A 1_555 1_555
C5B C4B 1_555 1_555
C5C C4C 1_555 1_555
C5J C4J 1_555 1_555
C5R C4R 1_555 1_555
C6A C1A 1_555 1_555
C6B C1B 1_555 1_555
C6C C1C 1_555 1_555
C6J C1J 1_555 1_555
C6R C1R 1_555 1_555
H3A C6A 1_555 1_555
H3B C6B 1_555 1_555
H3C C6C 1_555 1_555
H3J C6J 1_555 1_555
H3R C6R 1_555 1_555
C7A O1A 1_555 1_555
C7B O1B 1_555 1_555
C7C O1C 1_555 1_555
C7J C1J 1_555 1_555
C7R C1R 1_555 1_555
C8A O4A 1_555 1_555
C8B C3B 1_555 1_555
C8C C3C 1_555 1_555
C8J O3J 1_555 1_555
C8R C3R 1_555 1_555
C9A C5A 1_555 1_555
C9B O6B 1_555 1_555
C9C C5C 1_555 1_555
C9J C5J 1_555 1_555
C9R O6R 1_555 1_555
O8 Zn2G 1_555 1_555
C5 C6 1_555 1_555
Zn2E O8A 1_555 1_555
Zn2D O8B 1_555 1_555
Zn2F O8C 1_555 1_555
O2A C7A 1_555 1_555
O2B C7B 1_555 1_555
O2C C7C 1_555 1_555
O4J C8J 1_555 1_555
C1A C7A 1_555 1_555
C1B C7B 1_555 1_555
C1C C7C 1_555 1_555
C3A C8A 1_555 1_555
C3J C8J 1_555 1_555
C5A C6A 1_555 1_555
C5B C6B 1_555 1_555
C5B C9B 1_555 1_555
C5C C6C 1_555 1_555
C5J C6J 1_555 1_555
C5R C6R 1_555 1_555
C5R C9R 1_555 1_555

#END
