
#######################################################################
#
#                 Cambridge Crystallographic Data Centre
#                                CCDC 
#
#######################################################################
#
# If this CIF has been generated from an entry in the Cambridge 
# Structural Database, then it will include bibliographic, chemical, 
# crystal, experimental, refinement or atomic coordinate data resulting 
# from the CCDC's data processing and validation procedures.
#
#######################################################################

data_PUPHUE
_chemical_formula_moiety         '(C66 H81 N3 Na2 O24 Pb2)n'
_symmetry_cell_setting           monoclinic
_symmetry_space_group_name_H-M   'C 2/c'
_symmetry_Int_Tables_number      15
_space_group_name_Hall           '-C 2yc'
loop_
_symmetry_equiv_pos_site_id
_symmetry_equiv_pos_as_xyz
1 x,y,z
2 -x,y,1/2-z
3 1/2+x,1/2+y,z
4 1/2-x,1/2+y,1/2-z
5 -x,-y,-z
6 x,-y,1/2+z
7 1/2-x,1/2-y,-z
8 1/2+x,1/2-y,1/2+z
_cell_length_a                   39.364(3)
_cell_length_b                   22.0006(17)
_cell_length_c                   8.8460(7)
_cell_angle_alpha                90
_cell_angle_beta                 96.888(3)
_cell_angle_gamma                90
_cell_volume                     7605.62
loop_
_atom_site_label
_atom_site_type_symbol
_atom_site_fract_x
_atom_site_fract_y
_atom_site_fract_z
_atom_site_U_iso_or_equiv
_atom_site_thermal_displace_type
Pb1 Pb 0.341440(6) 0.494550(9) 0.58244(2) 0.0324 Uani
Na1 Na 0.29448(6) 0.61431(10) 0.3563(3) 0.0419 Uani
N2 N 0.27612(17) 0.7986(3) 0.1469(7) 0.0619 Uani
O1 O 0.27316(11) 0.53262(19) 0.4917(5) 0.0446 Uani
O2 O 0.28689(10) 0.45053(17) 0.6315(5) 0.0409 Uani
O3 O 0.35014(11) 0.42688(19) 0.8024(5) 0.0462 Uani
O4 O 0.38942(13) 0.4042(2) 0.6536(5) 0.0563 Uani
O5 O 0.21103(11) 0.53868(19) 0.5805(5) 0.0455 Uani
O6 O 0.14571(12) 0.78009(17) 1.2006(5) 0.0500 Uani
O7 O 0.42119(11) 0.3283(2) 0.8541(5) 0.0505 Uani
O9 O 0.17278(12) 0.86478(18) 1.3920(5) 0.0508 Uani
O10 O 0.16773(12) 0.93607(18) 1.2125(5) 0.0465 Uani
O11 O 0.29951(16) 0.7113(2) 0.2431(6) 0.0799 Uani
O12 O 0.23516(15) 0.6371(2) 0.3777(7) 0.0832 Uani
H1 H 0.2253 0.6699 0.3991 0.1250 Uiso
H2 H 0.2361 0.6159 0.4586 0.1250 Uiso
C1 C 0.26621(17) 0.4918(2) 0.5793(7) 0.0360 Uani
C2 C 0.23203(17) 0.4892(3) 0.6369(8) 0.0413 Uani
H5 H 0.2208 0.4513 0.6053 0.0490 Uiso
H6 H 0.2351 0.4903 0.7473 0.0490 Uiso
C3 C 0.18062(16) 0.5454(3) 0.6385(7) 0.0387 Uani
C4 C 0.16139(16) 0.5967(3) 0.5910(7) 0.0419 Uani
H7 H 0.1692 0.6232 0.5208 0.0510 Uiso
C5 C 0.13075(16) 0.6083(3) 0.6480(7) 0.0415 Uani
H8 H 0.1185 0.6431 0.6163 0.0500 Uiso
C6 C 0.11785(15) 0.5698(2) 0.7504(7) 0.0377 Uani
C7 C 0.13690(16) 0.5182(3) 0.7937(7) 0.0398 Uani
H9 H 0.1287 0.4911 0.8615 0.0480 Uiso
C8 C 0.16765(18) 0.5059(2) 0.7391(8) 0.0406 Uani
H10 H 0.1797 0.4708 0.7703 0.0490 Uiso
C9 C 0.08590(16) 0.5885(3) 0.8241(7) 0.0387 Uani
C10 C 0.05700(16) 0.6065(3) 0.7015(7) 0.0476 Uani
H11 H 0.0646 0.6386 0.6404 0.0710 Uiso
H12 H 0.0377 0.6202 0.7489 0.0710 Uiso
H13 H 0.0505 0.5720 0.6382 0.0710 Uiso
C11 C 0.07223(17) 0.5350(3) 0.9124(7) 0.0462 Uani
H14 H 0.0509 0.5463 0.9466 0.0700 Uiso
H15 H 0.0885 0.5252 0.9987 0.0700 Uiso
H16 H 0.0688 0.5002 0.8467 0.0700 Uiso
C12 C 0.09766(16) 0.6416(3) 0.9303(7) 0.0385 Uani
C13 C 0.09185(16) 0.7017(3) 0.8915(7) 0.0405 Uani
H17 H 0.0774 0.7106 0.8032 0.0490 Uiso
C14 C 0.10645(16) 0.7493(3) 0.9770(7) 0.0406 Uani
H18 H 0.1017 0.7892 0.9473 0.0490 Uiso
C15 C 0.12825(16) 0.7367(2) 1.1076(7) 0.0395 Uani
C16 C 0.13351(16) 0.6772(3) 1.1524(7) 0.0426 Uani
H19 H 0.1471 0.6686 1.2432 0.0510 Uiso
C17 C 0.11900(16) 0.6306(3) 1.0650(7) 0.0411 Uani
H20 H 0.1235 0.5907 1.0961 0.0490 Uiso
C18 C 0.37549(16) 0.3958(3) 0.7704(8) 0.0434 Uani
C19 C 0.38806(15) 0.3471(3) 0.8807(7) 0.0441 Uani
H21 H 0.3887 0.3623 0.9839 0.0530 Uiso
H22 H 0.3725 0.3127 0.8694 0.0530 Uiso
C20 C 0.43763(16) 0.2862(3) 0.9520(7) 0.0415 Uani
C21 C 0.47153(16) 0.2777(3) 0.9368(7) 0.0443 Uani
H23 H 0.4814 0.2990 0.8626 0.0530 Uiso
C22 C 0.49107(16) 0.2376(3) 1.0307(7) 0.0438 Uani
H24 H 0.5141 0.2327 1.0191 0.0520 Uiso
C23 C 0.47701(15) 0.2042(3) 1.1433(7) 0.0389 Uani
C24 C 0.44253(16) 0.2138(3) 1.1534(7) 0.0424 Uani
H25 H 0.4322 0.1921 1.2258 0.0510 Uiso
C25 C 0.42280(16) 0.2542(3) 1.0604(7) 0.0430 Uani
H26 H 0.3998 0.2596 1.0711 0.0520 Uiso
C26 C 0.5000 0.1627(4) 1.2500 0.0391 Uani
C27 C 0.52101(16) 0.1210(3) 1.1572(7) 0.0474 Uani
H27 H 0.5336 0.1453 1.0931 0.0710 Uiso
H28 H 0.5059 0.0943 1.0954 0.0710 Uiso
H29 H 0.5367 0.0975 1.2253 0.0710 Uiso
C28 C 0.16439(17) 0.8822(3) 1.2611(8) 0.0454 Uani
C29 C 0.14740(17) 0.8395(2) 1.1414(7) 0.0435 Uani
H30 H 0.1245 0.8539 1.1069 0.0520 Uiso
H31 H 0.1603 0.8389 1.0545 0.0520 Uiso
C33 C 0.3021(4) 0.7590(5) 0.1695(19) 0.0826 Uani
H39 H 0.3224 0.7673 0.1296 0.0990 Uiso
C34 C 0.2530(4) 0.7790(8) 0.225(2) 0.0949 Uani
H40 H 0.2366 0.7554 0.1604 0.1420 Uiso
H41 H 0.2417 0.8129 0.2656 0.1420 Uiso
H42 H 0.2634 0.7541 0.3067 0.1420 Uiso
C35 C 0.2809(5) 0.8508(9) 0.055(2) 0.0901 Uani
H43 H 0.2680 0.8843 0.0880 0.1350 Uiso
H44 H 0.2732 0.8418 -0.0496 0.1350 Uiso
H45 H 0.3048 0.8613 0.0654 0.1350 Uiso
Pb1F Pb 0.158560(6) 1.005450(9) 1.41756(2) 0.0324 Uani
Pb1A Pb 0.658560(6) 0.494550(9) 1.91756(2) 0.0324 Uani
Na1F Na 0.20552(6) 0.88569(10) 1.6437(3) 0.0419 Uani
Na1E Na 0.29448(6) 0.38569(10) 0.8563(3) 0.0419 Uani
Na1D Na 0.70552(6) 0.38569(10) 1.6437(3) 0.0419 Uani
Na1C Na 0.20552(6) 1.11431(10) 1.1437(3) 0.0419 Uani
N2F N 0.22388(17) 0.7014(3) 1.8531(7) 0.0619 Uani
O1F O 0.22684(11) 0.96738(19) 1.5083(5) 0.0446 Uani
O2F O 0.21311(10) 1.04947(17) 1.3685(5) 0.0409 Uani
O2E O 0.28689(10) 0.54947(17) 0.1315(5) 0.0409 Uani
O2C O 0.21311(10) 0.95053(17) 1.8685(5) 0.0409 Uani
O3A O 0.64986(11) 0.42688(19) 1.6976(5) 0.0462 Uani
O3E O 0.35014(11) 0.57312(19) 0.3024(5) 0.0462 Uani
O3F O 0.14986(11) 1.07312(19) 1.1976(5) 0.0462 Uani
O3C O 0.14986(11) 0.92688(19) 1.6976(5) 0.0462 Uani
O4A O 0.61058(13) 0.4042(2) 1.8464(5) 0.0563 Uani
O5F O 0.28897(11) 0.96132(19) 1.4195(5) 0.0455 Uani
O6F O 0.35429(12) 0.71991(17) 0.7994(5) 0.0500 Uani
O7A O 0.57881(11) 0.3283(2) 1.6459(5) 0.0505 Uani
O9F O 0.32722(12) 0.63522(18) 0.6080(5) 0.0508 Uani
O10F O 0.33227(12) 0.56393(18) 0.7875(5) 0.0465 Uani
O11F O 0.20049(16) 0.7887(2) 1.7569(6) 0.0799 Uani
O12F O 0.26484(15) 0.8629(2) 1.6223(7) 0.0832 Uani
H1F H 0.2747 0.8301 1.6009 0.1250 Uiso
H2F H 0.2639 0.8841 1.5414 0.1250 Uiso
C1F C 0.23379(17) 1.0082(2) 1.4207(7) 0.0360 Uani
C2F C 0.26797(17) 1.0108(3) 1.3631(8) 0.0413 Uani
H5F H 0.2792 1.0487 1.3947 0.0490 Uiso
H6F H 0.2649 1.0097 1.2527 0.0490 Uiso
C3F C 0.31938(16) 0.9546(3) 1.3615(7) 0.0387 Uani
C4F C 0.33861(16) 0.9033(3) 1.4090(7) 0.0419 Uani
H7F H 0.3308 0.8768 1.4792 0.0510 Uiso
C5F C 0.36925(16) 0.8917(3) 1.3520(7) 0.0415 Uani
H8F H 0.3815 0.8569 1.3837 0.0500 Uiso
C6F C 0.38215(15) 0.9302(2) 1.2496(7) 0.0377 Uani
C7F C 0.36310(16) 0.9818(3) 1.2063(7) 0.0398 Uani
H9F H 0.3713 1.0089 1.1385 0.0480 Uiso
C8F C 0.33235(18) 0.9941(2) 1.2609(8) 0.0406 Uani
H10F H 0.3203 1.0292 1.2297 0.0490 Uiso
C9F C 0.41410(16) 0.9115(3) 1.1759(7) 0.0387 Uani
C10F C 0.44300(16) 0.8935(3) 1.2985(7) 0.0476 Uani
H11F H 0.4354 0.8614 1.3596 0.0710 Uiso
H12F H 0.4623 0.8798 1.2511 0.0710 Uiso
H13F H 0.4495 0.9280 1.3618 0.0710 Uiso
C11F C 0.42777(17) 0.9650(3) 1.0876(7) 0.0462 Uani
H14F H 0.4491 0.9537 1.0534 0.0700 Uiso
H15F H 0.4115 0.9748 1.0013 0.0700 Uiso
H16F H 0.4312 0.9998 1.1533 0.0700 Uiso
C12F C 0.40234(16) 0.8584(3) 1.0697(7) 0.0385 Uani
C13F C 0.40815(16) 0.7983(3) 1.1085(7) 0.0405 Uani
H17F H 0.4226 0.7894 1.1968 0.0490 Uiso
C14F C 0.39355(16) 0.7507(3) 1.0230(7) 0.0406 Uani
H18F H 0.3983 0.7108 1.0527 0.0490 Uiso
C15F C 0.37175(16) 0.7633(2) 0.8924(7) 0.0395 Uani
C16F C 0.36649(16) 0.8228(3) 0.8476(7) 0.0426 Uani
H19F H 0.3529 0.8314 0.7568 0.0510 Uiso
C17F C 0.38100(16) 0.8694(3) 0.9350(7) 0.0411 Uani
H20F H 0.3765 0.9093 0.9039 0.0490 Uiso
C18A C 0.62451(16) 0.3958(3) 1.7296(8) 0.0434 Uani
C19A C 0.61194(15) 0.3471(3) 1.6193(7) 0.0441 Uani
H21A H 0.6113 0.3623 1.5161 0.0530 Uiso
H22A H 0.6275 0.3127 1.6306 0.0530 Uiso
C20A C 0.56237(16) 0.2862(3) 1.5480(7) 0.0415 Uani
C21A C 0.52847(16) 0.2777(3) 1.5632(7) 0.0443 Uani
H23A H 0.5186 0.2990 1.6374 0.0530 Uiso
C22A C 0.50893(16) 0.2376(3) 1.4693(7) 0.0438 Uani
H24A H 0.4859 0.2327 1.4809 0.0520 Uiso
C23A C 0.52299(15) 0.2042(3) 1.3567(7) 0.0389 Uani
C24A C 0.55747(16) 0.2138(3) 1.3466(7) 0.0424 Uani
H25A H 0.5678 0.1921 1.2742 0.0510 Uiso
C25A C 0.57720(16) 0.2542(3) 1.4396(7) 0.0430 Uani
H26A H 0.6002 0.2596 1.4289 0.0520 Uiso
C27A C 0.47899(16) 0.1210(3) 1.3428(7) 0.0474 Uani
H27A H 0.4664 0.1453 1.4069 0.0710 Uiso
H28A H 0.4941 0.0943 1.4046 0.0710 Uiso
H29A H 0.4633 0.0975 1.2747 0.0710 Uiso
C28F C 0.33561(17) 0.6178(3) 0.7389(8) 0.0454 Uani
C29F C 0.35260(17) 0.6605(2) 0.8586(7) 0.0435 Uani
H30F H 0.3755 0.6461 0.8931 0.0520 Uiso
H31F H 0.3397 0.6611 0.9455 0.0520 Uiso
C33F C 0.1979(4) 0.7410(5) 1.8305(19) 0.0826 Uani
H39F H 0.1776 0.7327 1.8704 0.0990 Uiso
C34F C 0.2470(4) 0.7210(8) 1.775(2) 0.0949 Uani
H40F H 0.2634 0.7446 1.8396 0.1420 Uiso
H41F H 0.2583 0.6871 1.7344 0.1420 Uiso
H42F H 0.2366 0.7459 1.6933 0.1420 Uiso
C35F C 0.2191(5) 0.6492(9) 1.945(2) 0.0901 Uani
H43F H 0.2320 0.6157 1.9120 0.1350 Uiso
H44F H 0.2268 0.6582 2.0496 0.1350 Uiso
H45F H 0.1952 0.6387 1.9346 0.1350 Uiso
N1 N 0.44527(18) 0.5724(4) 0.8859(9) 0.0834 Uani
O8 O 0.40540(16) 0.5493(3) 0.6918(8) 0.0881 Uani
C30 C 0.4197(2) 0.5405(4) 0.8218(11) 0.0743 Uani
H32 H 0.4117 0.5089 0.8777 0.0890 Uiso
C31 C 0.4548(3) 0.6259(6) 0.8208(15) 0.1457 Uani
H33 H 0.4745 0.6188 0.7695 0.2190 Uiso
H34 H 0.4601 0.6559 0.8989 0.2190 Uiso
H35 H 0.4363 0.6402 0.7489 0.2190 Uiso
C32 C 0.4622(3) 0.5647(6) 1.0345(14) 0.1299 Uani
H36 H 0.4592 0.6005 1.0935 0.1950 Uiso
H37 H 0.4862 0.5581 1.0297 0.1950 Uiso
H38 H 0.4528 0.5303 1.0815 0.1950 Uiso
O13 O 0.19114(17) 0.7333(2) 0.4494(6) 0.0944 Uani
H3 H 0.1764 0.7549 0.3958 0.1410 Uiso
H4 H 0.2102 0.7508 0.4430 0.1410 Uiso
loop_
_atom_site_aniso_label
_atom_site_aniso_U_11
_atom_site_aniso_U_22
_atom_site_aniso_U_33
_atom_site_aniso_U_23
_atom_site_aniso_U_13
_atom_site_aniso_U_12
Pb1 0.03740(17) 0.03143(15) 0.02833(16) 0.00114(9) 0.00410(10) 0.00203(9)
Na1 0.0483(15) 0.0357(12) 0.0409(14) 0.0020(10) 0.0024(11) 0.0024(10)
N2 0.084(5) 0.045(3) 0.058(4) 0.013(3) 0.014(3) -0.004(3)
O1 0.046(2) 0.043(2) 0.045(2) 0.0108(19) 0.0066(19) 0.0006(19)
O2 0.038(2) 0.040(2) 0.045(2) 0.0056(18) 0.0064(18) 0.0046(17)
O3 0.046(2) 0.045(2) 0.047(2) 0.0088(19) 0.003(2) 0.0144(19)
O4 0.073(3) 0.055(3) 0.042(3) 0.007(2) 0.011(2) 0.021(2)
O5 0.044(2) 0.049(2) 0.045(2) 0.0146(19) 0.011(2) 0.0138(19)
O6 0.081(3) 0.029(2) 0.036(2) -0.0002(18) -0.010(2) -0.010(2)
O7 0.049(3) 0.060(3) 0.043(3) 0.015(2) 0.007(2) 0.018(2)
O9 0.073 0.04 0.038 0.0017 0.001 -0.006
O10 0.066 0.032 0.041 -0.0018 0.004 -0.0061
O11 0.099(4) 0.057(3) 0.085(4) 0.020(3) 0.016(3) 0.010(3)
O12 0.086(4) 0.066(3) 0.105(4) 0.039(3) 0.042(3) 0.026(3)
C1 0.040(3) 0.034(2) 0.033(3) -0.002(2) 0.000(2) 0.002(2)
C2 0.044(2) 0.038(2) 0.041(2) 0.0044(19) 0.001(2) 0.001(2)
C3 0.0430(19) 0.0360(18) 0.0366(19) 0.0018(16) 0.0022(17) 0.0029(17)
C4 0.045(2) 0.0395(19) 0.041(2) 0.0058(18) 0.0044(19) 0.0037(18)
C5 0.0459(18) 0.0371(17) 0.0408(18) 0.0027(16) 0.0020(17) 0.0048(16)
C6 0.0426(17) 0.0325(16) 0.0375(17) -0.0007(15) 0.0022(16) 0.0010(15)
C7 0.0443(18) 0.0349(16) 0.0398(18) 0.0014(16) 0.0039(16) 0.0018(16)
C8 0.044(2) 0.0360(19) 0.041(2) 0.0034(17) 0.0017(19) 0.0038(17)
C9 0.043(2) 0.0344(18) 0.0380(19) -0.0024(17) 0.0015(18) 0.0009(17)
C10 0.045(3) 0.045(3) 0.051(3) -0.007(2) -0.002(3) 0.000(2)
C11 0.050(3) 0.039(3) 0.051(3) -0.008(2) 0.012(2) -0.006(2)
C12 0.0446(18) 0.0324(16) 0.0377(17) -0.0004(15) 0.0018(16) 0.0006(15)
C13 0.0478(18) 0.0348(17) 0.0379(18) -0.0002(16) 0.0015(16) 0.0011(16)
C14 0.051(2) 0.0324(18) 0.037(2) 0.0031(17) -0.0006(18) 0.0014(18)
C15 0.050(2) 0.0318(18) 0.036(2) -0.0005(17) 0.0025(18) -0.0008(18)
C16 0.054(2) 0.0340(19) 0.038(2) 0.0020(17) -0.0022(19) -0.0001(18)
C17 0.0496(19) 0.0331(17) 0.0394(18) 0.0010(16) 0.0002(17) 0.0007(16)
C18 0.039(3) 0.043(2) 0.047(3) -0.002(2) 0.000(2) 0.001(2)
C19 0.039(2) 0.048(2) 0.045(2) 0.003(2) 0.004(2) 0.006(2)
C20 0.0370(19) 0.0449(19) 0.042(2) 0.0031(17) 0.0018(18) 0.0054(17)
C21 0.038(2) 0.050(2) 0.045(2) 0.0069(18) 0.0056(19) 0.0022(18)
C22 0.036(2) 0.049(2) 0.046(2) 0.0045(18) 0.0032(18) 0.0036(18)
C23 0.035(2) 0.042(2) 0.039(2) -0.0012(17) 0.0013(18) 0.0001(17)
C24 0.037(2) 0.047(2) 0.043(2) 0.0053(18) 0.0044(18) 0.0031(17)
C25 0.036(2) 0.049(2) 0.044(2) 0.0041(18) 0.0044(18) 0.0064(18)
C26 0.033(3) 0.042(3) 0.041(3) 0.000 -0.001(2) 0.000
C27 0.045(3) 0.044(3) 0.050(3) -0.008(3) -0.007(3) 0.006(3)
C28 0.049 0.038 0.05 -0.003 0.009 -0.001
C29 0.057(3) 0.033(2) 0.039(2) 0.002(2) -0.001(2) -0.001(2)
C33 0.084(6) 0.081(6) 0.085(6) 0.008(5) 0.019(5) 0.005(5)
C34 0.095(7) 0.094(6) 0.096(6) 0.004(6) 0.013(6) 0.003(6)
C35 0.093(7) 0.084(6) 0.093(6) 0.010(6) 0.010(6) 0.004(5)
Pb1F 0.0374 0.03143 0.02833 0.00114 0.0041 0.00203
Pb1A 0.0374 0.03143 0.02833 -0.00114 0.0041 -0.00203
Na1F 0.0483 0.0357 0.0409 0.002 0.0024 0.0024
Na1E 0.0483 0.0357 0.0409 -0.002 0.0024 -0.0024
Na1D 0.0483 0.0357 0.0409 0.002 0.0024 0.0024
Na1C 0.0483 0.0357 0.0409 -0.002 0.0024 -0.0024
N2F 0.084 0.045 0.058 0.013 0.014 -0.004
O1F 0.046 0.043 0.045 0.0108 0.0066 0.0006
O2F 0.038 0.04 0.045 0.0056 0.0064 0.0046
O2E 0.038 0.04 0.045 -0.0056 0.0064 -0.0046
O2C 0.038 0.04 0.045 -0.0056 0.0064 -0.0046
O3A 0.046 0.045 0.047 -0.0088 0.003 -0.0144
O3E 0.046 0.045 0.047 -0.0088 0.003 -0.0144
O3F 0.046 0.045 0.047 0.0088 0.003 0.0144
O3C 0.046 0.045 0.047 -0.0088 0.003 -0.0144
O4A 0.073 0.055 0.042 -0.007 0.011 -0.021
O5F 0.044 0.049 0.045 0.0146 0.011 0.0138
O6F 0.081 0.029 0.036 -0.0002 -0.01 -0.01
O7A 0.049 0.06 0.043 -0.015 0.007 -0.018
O9F 0.073 0.04 0.038 0.0017 0.001 -0.006
O10F 0.066 0.032 0.041 -0.0018 0.004 -0.0061
O11F 0.099 0.057 0.085 0.02 0.016 0.01
O12F 0.086 0.066 0.105 0.039 0.042 0.026
C1F 0.04 0.034 0.033 -0.002 0 0.002
C2F 0.044 0.038 0.041 0.0044 0.001 0.001
C3F 0.043 0.036 0.0366 0.0018 0.0022 0.0029
C4F 0.045 0.0395 0.041 0.0058 0.0044 0.0037
C5F 0.0459 0.0371 0.0408 0.0027 0.002 0.0048
C6F 0.0426 0.0325 0.0375 -0.0007 0.0022 0.001
C7F 0.0443 0.0349 0.0398 0.0014 0.0039 0.0018
C8F 0.044 0.036 0.041 0.0034 0.0017 0.0038
C9F 0.043 0.0344 0.038 -0.0024 0.0015 0.0009
C10F 0.045 0.045 0.051 -0.007 -0.002 0
C11F 0.05 0.039 0.051 -0.008 0.012 -0.006
C12F 0.0446 0.0324 0.0377 -0.0004 0.0018 0.0006
C13F 0.0478 0.0348 0.0379 -0.0002 0.0015 0.0011
C14F 0.051 0.0324 0.037 0.0031 -0.0006 0.0014
C15F 0.05 0.0318 0.036 -0.0005 0.0025 -0.0008
C16F 0.054 0.034 0.038 0.002 -0.0022 -0.0001
C17F 0.0496 0.0331 0.0394 0.001 0.0002 0.0007
C18A 0.039 0.043 0.047 0.002 0 -0.001
C19A 0.039 0.048 0.045 -0.003 0.004 -0.006
C20A 0.037 0.0449 0.042 -0.0031 0.0018 -0.0054
C21A 0.038 0.05 0.045 -0.0069 0.0056 -0.0022
C22A 0.036 0.049 0.046 -0.0045 0.0032 -0.0036
C23A 0.035 0.042 0.039 0.0012 0.0013 -0.0001
C24A 0.037 0.047 0.043 -0.0053 0.0044 -0.0031
C25A 0.036 0.049 0.044 -0.0041 0.0044 -0.0064
C27A 0.045 0.044 0.05 0.008 -0.007 -0.006
C28F 0.049 0.038 0.05 -0.003 0.009 -0.001
C29F 0.057 0.033 0.039 0.002 -0.001 -0.001
C33F 0.084 0.081 0.085 0.008 0.019 0.005
C34F 0.095 0.094 0.096 0.004 0.013 0.003
C35F 0.093 0.084 0.093 0.01 0.01 0.004
N1 0.059(5) 0.094(5) 0.096(6) 0.007(4) 0.004(4) -0.018(4)
O8 0.084(4) 0.083(3) 0.091(4) -0.002(3) -0.016(3) 0.000(3)
C30 0.069(3) 0.073(3) 0.081(4) 0.000(3) 0.010(3) -0.004(3)
C31 0.130(7) 0.138(7) 0.163(7) 0.020(6) -0.007(6) -0.024(6)
C32 0.111(6) 0.147(7) 0.129(7) 0.003(6) 0.003(6) -0.007(6)
O13 0.126(5) 0.061(3) 0.085(4) 0.001(3) -0.033(4) 0.032(3)
loop_
_geom_bond_atom_site_label_1
_geom_bond_atom_site_label_2
_geom_bond_site_symmetry_1
_geom_bond_site_symmetry_2
Pb1 O2 1_555 1_555
Na1 O1 1_555 1_555
N1 C30 1_555 1_555
N2 C33 1_555 1_555
O1 C1 1_555 1_555
O2 C1 1_555 1_555
O3 Pb1 1_555 1_555
O4 C18 1_555 1_555
O5 C2 1_555 1_555
O6 C15 1_555 1_555
O7 C19 1_555 1_555
O8 C30 1_555 1_555
O9 C28 1_555 1_555
O10 C28 1_555 1_555
O11 Na1 1_555 1_555
O12 Na1 1_555 1_555
H1 O12 1_555 1_555
H2 O12 1_555 1_555
O13 H3 1_555 1_555
H4 O13 1_555 1_555
C1 C2 1_555 1_555
C2 H5 1_555 1_555
H6 C2 1_555 1_555
C3 O5 1_555 1_555
C4 C3 1_555 1_555
H7 C4 1_555 1_555
C5 C4 1_555 1_555
H8 C5 1_555 1_555
C6 C5 1_555 1_555
C7 C6 1_555 1_555
H9 C7 1_555 1_555
C8 C3 1_555 1_555
H10 C8 1_555 1_555
C9 C6 1_555 1_555
C10 C9 1_555 1_555
H11 C10 1_555 1_555
H12 C10 1_555 1_555
H13 C10 1_555 1_555
C11 C9 1_555 1_555
H14 C11 1_555 1_555
H15 C11 1_555 1_555
H16 C11 1_555 1_555
C12 C9 1_555 1_555
C13 C12 1_555 1_555
H17 C13 1_555 1_555
C14 C13 1_555 1_555
H18 C14 1_555 1_555
C15 C14 1_555 1_555
C16 C15 1_555 1_555
H19 C16 1_555 1_555
C17 C12 1_555 1_555
H20 C17 1_555 1_555
C18 O3 1_555 1_555
C19 C18 1_555 1_555
H21 C19 1_555 1_555
H22 C19 1_555 1_555
C20 O7 1_555 1_555
C21 C20 1_555 1_555
H23 C21 1_555 1_555
C22 C21 1_555 1_555
H24 C22 1_555 1_555
C23 C22 1_555 1_555
C24 C23 1_555 1_555
H25 C24 1_555 1_555
C25 C20 1_555 1_555
H26 C25 1_555 1_555
C26 C23 1_555 1_555
C27 C26 1_555 1_555
H27 C27 1_555 1_555
H28 C27 1_555 1_555
H29 C27 1_555 1_555
C28 C29 1_555 1_555
C29 O6 1_555 1_555
H30 C29 1_555 1_555
H31 C29 1_555 1_555
C30 H32 1_555 1_555
C31 N1 1_555 1_555
H33 C31 1_555 1_555
H34 C31 1_555 1_555
H35 C31 1_555 1_555
C32 N1 1_555 1_555
H36 C32 1_555 1_555
H37 C32 1_555 1_555
H38 C32 1_555 1_555
C33 O11 1_555 1_555
H39 C33 1_555 1_555
C34 N2 1_555 1_555
H40 C34 1_555 1_555
H41 C34 1_555 1_555
H42 C34 1_555 1_555
C35 N2 1_555 1_555
H43 C35 1_555 1_555
H44 C35 1_555 1_555
H45 C35 1_555 1_555
Pb1F O10 1_555 1_555
Pb1A O3A 1_555 1_555
Na1F O9 1_555 1_555
Na1E O2 1_555 1_555
Na1D O3A 1_555 1_555
Na1C O2F 1_555 1_555
N2F C33F 1_555 1_555
O1F Na1F 1_555 1_555
O2F Pb1F 1_555 1_555
O2E Na1 1_555 1_555
O2C Na1F 1_555 1_555
O3A C18A 1_555 1_555
O3E Na1 1_555 1_555
O3F Pb1F 1_555 1_555
O3C Na1F 1_555 1_555
O4A C18A 1_555 1_555
O5F C2F 1_555 1_555
O6F C15F 1_555 1_555
O7A C19A 1_555 1_555
O9F Na1 1_555 1_555
O10F Pb1 1_555 1_555
O11F Na1F 1_555 1_555
O12F Na1F 1_555 1_555
H1F O12F 1_555 1_555
H2F O12F 1_555 1_555
C1F O1F 1_555 1_555
C2F C1F 1_555 1_555
H5F C2F 1_555 1_555
H6F C2F 1_555 1_555
C3F O5F 1_555 1_555
C4F C3F 1_555 1_555
H7F C4F 1_555 1_555
C5F C4F 1_555 1_555
H8F C5F 1_555 1_555
C6F C5F 1_555 1_555
C7F C6F 1_555 1_555
H9F C7F 1_555 1_555
C8F C3F 1_555 1_555
H10F C8F 1_555 1_555
C9F C6F 1_555 1_555
C10F C9F 1_555 1_555
H11F C10F 1_555 1_555
H12F C10F 1_555 1_555
H13F C10F 1_555 1_555
C11F C9F 1_555 1_555
H14F C11F 1_555 1_555
H15F C11F 1_555 1_555
H16F C11F 1_555 1_555
C12F C9F 1_555 1_555
C13F C12F 1_555 1_555
H17F C13F 1_555 1_555
C14F C13F 1_555 1_555
H18F C14F 1_555 1_555
C15F C14F 1_555 1_555
C16F C15F 1_555 1_555
H19F C16F 1_555 1_555
C17F C12F 1_555 1_555
H20F C17F 1_555 1_555
C18A C19A 1_555 1_555
C19A H21A 1_555 1_555
H22A C19A 1_555 1_555
C20A O7A 1_555 1_555
C21A C20A 1_555 1_555
H23A C21A 1_555 1_555
C22A C21A 1_555 1_555
H24A C22A 1_555 1_555
C23A C26 1_555 1_555
C24A C23A 1_555 1_555
H25A C24A 1_555 1_555
C25A C20A 1_555 1_555
H26A C25A 1_555 1_555
C27A C26 1_555 1_555
H27A C27A 1_555 1_555
H28A C27A 1_555 1_555
H29A C27A 1_555 1_555
C28F O9F 1_555 1_555
C29F O6F 1_555 1_555
H30F C29F 1_555 1_555
H31F C29F 1_555 1_555
C33F O11F 1_555 1_555
H39F C33F 1_555 1_555
C34F N2F 1_555 1_555
H40F C34F 1_555 1_555
H41F C34F 1_555 1_555
H42F C34F 1_555 1_555
C35F N2F 1_555 1_555
H43F C35F 1_555 1_555
H44F C35F 1_555 1_555
H45F C35F 1_555 1_555
O3 Na1E 1_555 1_555
C7 C8 1_555 1_555
C16 C17 1_555 1_555
C24 C25 1_555 1_555
Na1C O3F 1_555 1_555
O2F C1F 1_555 1_555
O10F C28F 1_555 1_555
C7F C8F 1_555 1_555
C16F C17F 1_555 1_555
C22A C23A 1_555 1_555
C24A C25A 1_555 1_555
C28F C29F 1_555 1_555

#END
