
#######################################################################
#
#                 Cambridge Crystallographic Data Centre
#                                CCDC 
#
#######################################################################
#
# If this CIF has been generated from an entry in the Cambridge 
# Structural Database, then it will include bibliographic, chemical, 
# crystal, experimental, refinement or atomic coordinate data resulting 
# from the CCDC's data processing and validation procedures.
#
#######################################################################

data_FAQYUR
_chemical_formula_moiety         '(C15 H26 Nd2 O16)n'
_symmetry_cell_setting           monoclinic
_symmetry_space_group_name_H-M   'C 2/c'
_symmetry_Int_Tables_number      15
_space_group_name_Hall           '-C 2yc'
loop_
_symmetry_equiv_pos_site_id
_symmetry_equiv_pos_as_xyz
1 x,y,z
2 -x,y,1/2-z
3 1/2+x,1/2+y,z
4 1/2-x,1/2+y,1/2-z
5 -x,-y,-z
6 x,-y,1/2+z
7 1/2-x,1/2-y,-z
8 1/2+x,1/2-y,1/2+z
_cell_length_a                   8.1174(1)
_cell_length_b                   15.1841(3)
_cell_length_c                   19.8803(3)
_cell_angle_alpha                90
_cell_angle_beta                 93.762(1)
_cell_angle_gamma                90
_cell_volume                     2445.07
loop_
_atom_site_label
_atom_site_type_symbol
_atom_site_fract_x
_atom_site_fract_y
_atom_site_fract_z
Nd1 Nd -0.2456(1) -0.0377(1) -0.4881(1)
O1 O -0.4858(3) 0.0448(1) -0.5616(1)
O2 O -0.2319(3) 0.0496(2) -0.5943(1)
O3 O -0.0150(2) 0.0797(1) -0.4656(1)
O4 O -0.2661(2) 0.1158(1) -0.4401(1)
O5 O -0.1534(3) -0.0551(2) -0.3665(1)
O6 O -0.1679(3) -0.1778(1) -0.4258(1)
O7 O -0.3882(3) -0.1483(2) -0.5619(1)
C1 C -0.3798(3) 0.0742(2) -0.6015(1)
C2 C -0.4283(4) 0.1410(2) -0.6554(2)
C3 C -0.3594(5) 0.2332(2) -0.6356(2)
C4 C -0.4482(4) 0.2744(2) -0.5782(2)
C5 C -0.1157(3) 0.1359(2) -0.4432(2)
C6 C -0.1334(3) -0.1379(2) -0.3701(2)
C7 C -0.0746(4) -0.1903(2) -0.3080(2)
C8 C 0.0000 -0.1340(3) -0.2500
H1 H -0.3856(4) 0.1228(2) -0.6977(2)
H2 H -0.5476(4) 0.1438(2) -0.6618(2)
H3 H -0.3705(5) 0.2716(2) -0.6746(2)
H4 H -0.2427(5) 0.2281(2) -0.6221(2)
H5 H -0.4380(4) 0.2353(2) -0.5396(2)
H6 H -0.5647(4) 0.2794(2) -0.5920(2)
H7 H -0.1672(4) -0.2231(2) -0.2923(2)
H8 H 0.0074(4) -0.2326(2) -0.3206(2)
H9 H -0.0851 -0.0964(3) -0.2335
H10 H 0.0851 -0.0964(3) -0.2665
O1D O -0.5142(3) -0.0448(1) -0.4384(1)
O3D O 0.0150(2) -0.0797(1) -0.5344(1)
Nd1D Nd -0.7544(1) 0.0377(1) -0.5119(1)
Nd1D_2 Nd 0.2456(1) 0.0377(1) -0.5119(1)
C5F C -0.3843(3) 0.3641(2) -0.5568(2)
C7A C 0.0746(4) -0.1903(2) -0.1920(2)
C4F C -0.0518(4) 0.2256(2) -0.4218(2)
O3F O -0.4850(2) 0.4203(1) -0.5344(1)
O4F O -0.2339(2) 0.3842(1) -0.5599(1)
C6A C 0.1334(3) -0.1379(2) -0.1299(2)
H7A H 0.1672(4) -0.2231(2) -0.2077(2)
H8A H -0.0074(4) -0.2326(2) -0.1794(2)
C3F C -0.1406(5) 0.2668(2) -0.3644(2)
H5F H -0.0620(4) 0.2647(2) -0.4604(2)
H6F H 0.0647(4) 0.2206(2) -0.4080(2)
Nd1B Nd -0.7456(1) 0.4623(1) -0.4881(1)
Nd1F Nd -0.2544(1) 0.5377(1) -0.5119(1)
O5A O 0.1534(3) -0.0551(2) -0.1335(1)
O6A O 0.1679(3) -0.1778(1) -0.0742(1)
C2F C -0.0717(4) 0.3590(2) -0.3446(2)
H3F H -0.1295(5) 0.2284(2) -0.3254(2)
H4F H -0.2573(5) 0.2719(2) -0.3779(2)
O3B O -0.5150(2) 0.5797(1) -0.4656(1)
O1B O 0.0142(3) 0.5448(1) -0.5616(1)
O1F O -0.0142(3) 0.4552(1) -0.4384(1)
O2F O -0.2681(3) 0.4504(2) -0.4057(1)
O5F O -0.3466(3) 0.5551(2) -0.6335(1)
O6F O -0.3321(3) 0.6778(1) -0.5742(1)
O7F O -0.1118(3) 0.6483(2) -0.4381(1)
Nd1A Nd 0.2456(1) -0.0377(1) -0.0119(1)
C1F C -0.1202(3) 0.4258(2) -0.3985(1)
H1F H -0.1144(4) 0.3772(2) -0.3023(2)
H2F H 0.0476(4) 0.3562(2) -0.3382(2)
Nd1B_2 Nd 0.2544(1) 0.4623(1) -0.4881(1)
C6F C -0.3666(3) 0.6379(2) -0.6299(2)
O8 O -0.3933(14) -0.4081(4) -0.3008(3)
O9 O -0.1251(15) -0.4304(7) -0.2175(6)
loop_
_geom_bond_atom_site_label_1
_geom_bond_atom_site_label_2
_geom_bond_site_symmetry_1
_geom_bond_site_symmetry_2
Nd1 O1 1_555 1_555
O1 C1 1_555 1_555
O2 Nd1 1_555 1_555
O3 Nd1 1_555 1_555
O4 Nd1 1_555 1_555
O5 Nd1 1_555 1_555
O6 Nd1 1_555 1_555
O7 Nd1 1_555 1_555
C1 O2 1_555 1_555
C2 C1 1_555 1_555
C3 C2 1_555 1_555
C4 C3 1_555 1_555
C5 O3 1_555 1_555
C6 O5 1_555 1_555
C7 C6 1_555 1_555
C8 C7 1_555 1_555
H1 C2 1_555 1_555
H2 C2 1_555 1_555
H3 C3 1_555 1_555
H4 C3 1_555 1_555
H5 C4 1_555 1_555
H6 C4 1_555 1_555
H7 C7 1_555 1_555
H8 C7 1_555 1_555
H9 C8 1_555 1_555
H10 C8 1_555 1_555
O1D Nd1 1_555 1_555
O3D Nd1 1_555 1_555
Nd1D O1 1_555 1_555
Nd1D_2 O3 1_555 1_555
C5F C4 1_555 1_555
C7A C8 1_555 1_555
C4F C5 1_555 1_555
O3F C5F 1_555 1_555
O4F C5F 1_555 1_555
C6A C7A 1_555 1_555
H7A C7A 1_555 1_555
H8A C7A 1_555 1_555
C3F C4F 1_555 1_555
H5F C4F 1_555 1_555
H6F C4F 1_555 1_555
Nd1B O3F 1_555 1_555
Nd1F O3F 1_555 1_555
O5A C6A 1_555 1_555
O6A C6A 1_555 1_555
C2F C3F 1_555 1_555
H3F C3F 1_555 1_555
H4F C3F 1_555 1_555
O3B Nd1B 1_555 1_555
O1B Nd1F 1_555 1_555
O1F Nd1F 1_555 1_555
O2F Nd1F 1_555 1_555
O5F Nd1F 1_555 1_555
O6F Nd1F 1_555 1_555
O7F Nd1F 1_555 1_555
Nd1A O5A 1_555 1_555
C1F C2F 1_555 1_555
H1F C2F 1_555 1_555
H2F C2F 1_555 1_555
Nd1B_2 O1B 1_555 1_555
C6F O5F 1_555 1_555
O4 C5 1_555 1_555
O6 C6 1_555 1_555
O1D Nd1D 1_555 1_555
O3D Nd1D_2 1_555 1_555
O4F Nd1F 1_555 1_555
Nd1F O3B 1_555 1_555
O6A Nd1A 1_555 1_555
O1F Nd1B_2 1_555 1_555
O1F C1F 1_555 1_555
O2F C1F 1_555 1_555
O6F C6F 1_555 1_555

#END
