
#######################################################################
#
#                 Cambridge Crystallographic Data Centre
#                                CCDC 
#
#######################################################################
#
# If this CIF has been generated from an entry in the Cambridge 
# Structural Database, then it will include bibliographic, chemical, 
# crystal, experimental, refinement or atomic coordinate data resulting 
# from the CCDC's data processing and validation procedures.
#
#######################################################################

data_FASGIS
_chemical_formula_moiety         '(C44 H33 Co1 N4 O16 S4 Tb1)n'
_symmetry_cell_setting           triclinic
_symmetry_space_group_name_H-M   'P -1'
_symmetry_Int_Tables_number      2
_space_group_name_Hall           '-P 1'
loop_
_symmetry_equiv_pos_site_id
_symmetry_equiv_pos_as_xyz
1 x,y,z
2 -x,-y,-z
_cell_length_a                   11.1637(15)
_cell_length_b                   13.4231(12)
_cell_length_c                   19.713(2)
_cell_angle_alpha                71.9640(10)
_cell_angle_beta                 74.6130(10)
_cell_angle_gamma                75.7640(10)
_cell_volume                     2664.63
loop_
_atom_site_label
_atom_site_type_symbol
_atom_site_fract_x
_atom_site_fract_y
_atom_site_fract_z
Tb1 Tb 0.49274(4) 0.10327(3) 0.078065(19)
Co1 Co 0.78619(4) 0.51451(3) 0.42130(2)
S1 S 0.70025(10) 0.32025(8) 0.01753(5)
S2 S 1.46843(12) 0.83002(11) 0.11823(7)
S3 S 0.80489(12) 0.83438(11) 0.78272(7)
S4 S 0.34486(10) -0.00975(10) 0.76084(7)
O1 O 0.6657(2) 0.2127(2) 0.04270(14)
O2 O 0.6092(3) 0.4034(2) -0.01824(15)
O3 O 0.8284(3) 0.3153(3) -0.02691(15)
O4 O 1.4707(3) 0.8365(3) 0.04353(18)
O5 O 1.5751(3) 0.7625(4) 0.1415(3)
O6 O 1.4510(3) 0.9440(2) 0.12332(16)
O7 O 0.8592(5) 0.9162(4) 0.7431(3)
O8 O 0.8760(4) 0.7573(4) 0.8348(2)
O9 O 0.6783(3) 0.8729(2) 0.81540(15)
O10 O 0.3814(3) -0.0926(3) 0.7161(2)
O11 O 0.2131(3) 0.0267(3) 0.7785(2)
O12 O 0.4035(3) -0.0470(3) 0.82243(18)
O13 O 0.6766(4) -0.0032(3) 0.0381(3)
O14 O 0.4040(4) 0.2982(4) 0.0517(2)
O15 O 0.3017(3) 0.1109(3) 0.04644(19)
N1 N 0.7013(2) 0.4070(2) 0.41390(14)
N2 N 0.8556(2) 0.5449(2) 0.31582(14)
N3 N 0.8849(2) 0.6112(2) 0.43040(14)
N4 N 0.7084(2) 0.4910(2) 0.52463(14)
C1 C 0.7467(3) 0.4337(3) 0.28242(16)
C2 C 0.8212(3) 0.5093(3) 0.26567(17)
C3 C 0.8879(3) 0.5540(3) 0.19403(19)
H1 H 0.8798 0.5439 0.1510
C4 C 0.9625(4) 0.6114(3) 0.1996(2)
H2 H 1.0167 0.6488 0.1611
C5 C 0.9462(4) 0.6069(3) 0.27508(19)
C6 C 1.0126(3) 0.6533(3) 0.30529(19)
C7 C 0.9825(3) 0.6550(3) 0.3765(2)
C8 C 1.0364(3) 0.7109(3) 0.4062(2)
H3 H 1.1055 0.7442 0.3821
C9 C 0.9723(3) 0.7093(3) 0.4762(2)
H4 H 0.9865 0.7426 0.5075
C10 C 0.8777(3) 0.6445(3) 0.49046(18)
C11 C 0.7923(4) 0.6221(3) 0.55724(17)
C12 C 0.7130(3) 0.5503(3) 0.57152(17)
C13 C 0.6329(4) 0.5136(3) 0.64128(17)
H5 H 0.6180 0.5398 0.6818
C14 C 0.5855(4) 0.4370(3) 0.63688(19)
H6 H 0.5302 0.3995 0.6745
C15 C 0.6300(3) 0.4189(3) 0.56674(17)
C16 C 0.6032(3) 0.3387(3) 0.54376(18)
C17 C 0.6379(3) 0.3332(3) 0.47131(18)
C18 C 0.6023(3) 0.2668(3) 0.4426(2)
H7 H 0.5602 0.2106 0.4696
C19 C 0.6363(4) 0.2942(3) 0.3719(2)
H8 H 0.6205 0.2620 0.3404
C20 C 0.7009(3) 0.3807(3) 0.35070(17)
C21 C 0.7285(3) 0.4005(3) 0.21928(18)
C22 C 0.7906(4) 0.3076(3) 0.20256(19)
H9 H 0.8437 0.2601 0.2321
C23 C 0.7764(4) 0.2829(3) 0.1432(2)
H10 H 0.8187 0.2181 0.1338
C24 C 0.7013(3) 0.3512(3) 0.09718(19)
C25 C 0.6424(5) 0.4453(4) 0.1119(2)
H11 H 0.5969 0.4953 0.0791
C26 C 0.6478(4) 0.4697(3) 0.1750(2)
H12 H 0.5985 0.5310 0.1871
C27 C 1.1160(3) 0.7042(3) 0.25434(19)
C28 C 1.2206(3) 0.6450(3) 0.2208(2)
H13 H 1.2198 0.5733 0.2284
C29 C 1.3229(4) 0.6825(3) 0.1783(2)
H14 H 1.3906 0.6376 0.1576
C30 C 1.3271(4) 0.7893(3) 0.1652(2)
C31 C 1.2224(4) 0.8537(4) 0.1973(3)
H15 H 1.2232 0.9256 0.1891
C32 C 1.1152(4) 0.8107(3) 0.2423(2)
H16 H 1.0456 0.8538 0.2632
C33 C 0.7900(3) 0.6718(3) 0.61422(18)
C34 C 0.8905(4) 0.6458(3) 0.64863(19)
H17 H 0.9574 0.5930 0.6367
C35 C 0.8967(3) 0.6928(3) 0.6985(2)
H18 H 0.9686 0.6750 0.7181
C36 C 0.7964(4) 0.7675(3) 0.7205(2)
C37 C 0.6891(4) 0.7873(4) 0.6930(3)
H19 H 0.6176 0.8329 0.7096
C38 C 0.6880(4) 0.7392(4) 0.6409(2)
H20 H 0.6147 0.7532 0.6231
C39 C 0.5367(3) 0.2579(3) 0.59808(19)
C40 C 0.5942(3) 0.1842(3) 0.6519(2)
H21 H 0.6752 0.1880 0.6539
C41 C 0.5346(4) 0.1051(3) 0.7026(2)
H22 H 0.5767 0.0550 0.7370
C42 C 0.4163(3) 0.1005(3) 0.7021(2)
C43 C 0.3535(3) 0.1733(3) 0.6529(2)
H23 H 0.2709 0.1703 0.6534
C44 C 0.4135(3) 0.2527(3) 0.6015(2)
H24 H 0.3692 0.3037 0.5685
Tb1_2 Tb 1.49274(4) 1.10327(3) 0.078065(19)
Tb1A Tb 0.50726(4) -0.10327(3) 0.921935(19)
Tb1A_2 Tb 0.50726(4) 0.89673(3) 0.921935(19)
Tb1A_3 Tb 1.50726(4) 0.89673(3) -0.078065(19)
O4A O 0.5293(3) 0.1635(3) -0.04353(18)
O6_2 O 0.4510(3) -0.0560(2) 0.12332(16)
O9A O 0.3217(3) 0.1271(2) 0.18460(15)
O12A O 0.5965(3) 0.0470(3) 0.17757(18)
O16 O -0.0043(4) -0.0508(3) 0.8547(3)
loop_
_geom_bond_atom_site_label_1
_geom_bond_atom_site_label_2
_geom_bond_site_symmetry_1
_geom_bond_site_symmetry_2
Tb1 O1 1_555 1_555
Co1 N1 1_555 1_555
S1 O1 1_555 1_555
S2 O4 1_555 1_555
S3 O7 1_555 1_555
S4 O10 1_555 1_555
O2 S1 1_555 1_555
O3 S1 1_555 1_555
O4 Tb1A_3 1_555 1_555
O5 S2 1_555 1_555
O6 S2 1_555 1_555
O8 S3 1_555 1_555
O9 S3 1_555 1_555
O11 S4 1_555 1_555
O12 S4 1_555 1_555
O13 Tb1 1_555 1_555
O14 Tb1 1_555 1_555
O15 Tb1 1_555 1_555
N1 C17 1_555 1_555
N2 Co1 1_555 1_555
N3 Co1 1_555 1_555
N4 Co1 1_555 1_555
C1 C2 1_555 1_555
C2 N2 1_555 1_555
C3 C2 1_555 1_555
H1 C3 1_555 1_555
C4 C3 1_555 1_555
H2 C4 1_555 1_555
C5 N2 1_555 1_555
C6 C5 1_555 1_555
C7 N3 1_555 1_555
C8 C7 1_555 1_555
H3 C8 1_555 1_555
C9 C8 1_555 1_555
H4 C9 1_555 1_555
C10 N3 1_555 1_555
C11 C10 1_555 1_555
C12 N4 1_555 1_555
C13 C12 1_555 1_555
H5 C13 1_555 1_555
C14 C13 1_555 1_555
H6 C14 1_555 1_555
C15 N4 1_555 1_555
C16 C15 1_555 1_555
C17 C16 1_555 1_555
C18 C17 1_555 1_555
H7 C18 1_555 1_555
C19 C18 1_555 1_555
H8 C19 1_555 1_555
C20 N1 1_555 1_555
C21 C1 1_555 1_555
C22 C21 1_555 1_555
H9 C22 1_555 1_555
C23 C22 1_555 1_555
H10 C23 1_555 1_555
C24 S1 1_555 1_555
C25 C24 1_555 1_555
H11 C25 1_555 1_555
C26 C21 1_555 1_555
H12 C26 1_555 1_555
C27 C6 1_555 1_555
C28 C27 1_555 1_555
H13 C28 1_555 1_555
C29 C28 1_555 1_555
H14 C29 1_555 1_555
C30 S2 1_555 1_555
C31 C30 1_555 1_555
H15 C31 1_555 1_555
C32 C27 1_555 1_555
H16 C32 1_555 1_555
C33 C11 1_555 1_555
C34 C33 1_555 1_555
H17 C34 1_555 1_555
C35 C34 1_555 1_555
H18 C35 1_555 1_555
C36 S3 1_555 1_555
C37 C36 1_555 1_555
H19 C37 1_555 1_555
C38 C33 1_555 1_555
H20 C38 1_555 1_555
C39 C16 1_555 1_555
C40 C39 1_555 1_555
H21 C40 1_555 1_555
C41 C40 1_555 1_555
H22 C41 1_555 1_555
C42 S4 1_555 1_555
C43 C42 1_555 1_555
H23 C43 1_555 1_555
C44 C39 1_555 1_555
H24 C44 1_555 1_555
Tb1_2 O6 1_555 1_555
Tb1A O12 1_555 1_555
Tb1A_2 O9 1_555 1_555
O4A Tb1 1_555 1_555
O6_2 Tb1 1_555 1_555
O9A Tb1 1_555 1_555
O12A Tb1 1_555 1_555
C1 C20 1_555 1_555
C4 C5 1_555 1_555
C6 C7 1_555 1_555
C9 C10 1_555 1_555
C11 C12 1_555 1_555
C14 C15 1_555 1_555
C19 C20 1_555 1_555
C23 C24 1_555 1_555
C25 C26 1_555 1_555
C29 C30 1_555 1_555
C31 C32 1_555 1_555
C35 C36 1_555 1_555
C37 C38 1_555 1_555
C41 C42 1_555 1_555
C43 C44 1_555 1_555

#END
