
#######################################################################
#
#                 Cambridge Crystallographic Data Centre
#                                CCDC 
#
#######################################################################
#
# If this CIF has been generated from an entry in the Cambridge 
# Structural Database, then it will include bibliographic, chemical, 
# crystal, experimental, refinement or atomic coordinate data resulting 
# from the CCDC's data processing and validation procedures.
#
#######################################################################

data_RITDAB
_chemical_formula_moiety         '(C24 H16 Cu1 In1 N4 O8)n'
_symmetry_cell_setting           orthorhombic
_symmetry_space_group_name_H-M   'F d d d'
_symmetry_Int_Tables_number      70
_space_group_name_Hall           '-F 2uv 2vw'
loop_
_symmetry_equiv_pos_site_id
_symmetry_equiv_pos_as_xyz
1 x,y,z
2 3/4-x,3/4-y,z
3 3/4-x,y,3/4-z
4 x,3/4-y,3/4-z
5 x,1/2+y,1/2+z
6 3/4-x,1/4-y,1/2+z
7 3/4-x,1/2+y,1/4-z
8 x,1/4-y,1/4-z
9 1/2+x,y,1/2+z
10 1/4-x,3/4-y,1/2+z
11 1/4-x,y,1/4-z
12 1/2+x,3/4-y,1/4-z
13 1/2+x,1/2+y,z
14 1/4-x,1/4-y,z
15 1/4-x,1/2+y,3/4-z
16 1/2+x,1/4-y,3/4-z
17 -x,-y,-z
18 1/4+x,1/4+y,-z
19 1/4+x,-y,1/4+z
20 -x,1/4+y,1/4+z
21 -x,1/2-y,1/2-z
22 1/4+x,3/4+y,1/2-z
23 1/4+x,1/2-y,3/4+z
24 -x,3/4+y,3/4+z
25 1/2-x,-y,1/2-z
26 3/4+x,1/4+y,1/2-z
27 3/4+x,-y,3/4+z
28 1/2-x,1/4+y,3/4+z
29 1/2-x,1/2-y,-z
30 3/4+x,3/4+y,-z
31 3/4+x,1/2-y,1/4+z
32 1/2-x,3/4+y,1/4+z
_cell_length_a                   12.4623(7)
_cell_length_b                   22.5494(9)
_cell_length_c                   24.692(2)
_cell_angle_alpha                90
_cell_angle_beta                 90
_cell_angle_gamma                90
_cell_volume                     6938.88
loop_
_atom_site_label
_atom_site_type_symbol
_atom_site_fract_x
_atom_site_fract_y
_atom_site_fract_z
_atom_site_U_iso_or_equiv
_atom_site_thermal_displace_type
In1 In 0.1250 0.1250 0.1250 0.0319 Uani
Cu1 Cu -0.1250 -0.1250 0.3750 0.0438 Uani
O1 O 0.1562(5) 0.0536(3) 0.1883(2) 0.0640 Uani
O2 O -0.0107(4) 0.0786(2) 0.1708(2) 0.0547 Uani
N1 N -0.0502(5) -0.0659(3) 0.3219(2) 0.0520 Uani
C1 C -0.0846(7) 0.0109(4) 0.2591(3) 0.0673 Uani
H1 H -0.1334 0.0374 0.2440 0.0810 Uiso
C2 C 0.0887(6) -0.0311(4) 0.2646(3) 0.0633 Uani
H2 H 0.1600 -0.0333 0.2537 0.0760 Uiso
C3 C -0.1161(6) -0.0267(5) 0.2996(4) 0.0750 Uani
H3 H -0.1865 -0.0247 0.3120 0.0900 Uiso
C4 C 0.0497(6) -0.0681(4) 0.3051(4) 0.0650 Uani
H4 H 0.0960 -0.0955 0.3208 0.0780 Uiso
C5 C 0.0588(6) 0.0497(3) 0.1972(3) 0.0453 Uani
C6 C 0.0192(6) 0.0092(3) 0.2408(3) 0.0523 Uani
O1A O -0.4062(5) -0.3036(3) 0.1883(2) 0.0640 Uani
O2A O -0.2393(4) -0.3286(2) 0.1708(2) 0.0547 Uani
N1A N -0.1998(5) -0.1841(3) 0.3219(2) 0.0520 Uani
C1A C -0.1654(7) -0.2609(4) 0.2591(3) 0.0673 Uani
H1A H -0.1166 -0.2874 0.2440 0.0810 Uiso
C2A C -0.3387(6) -0.2189(4) 0.2646(3) 0.0633 Uani
H2A H -0.4100 -0.2167 0.2537 0.0760 Uiso
C3A C -0.1339(6) -0.2233(5) 0.2996(4) 0.0750 Uani
H3A H -0.0635 -0.2253 0.3120 0.0900 Uiso
C4A C -0.2997(6) -0.1819(4) 0.3051(4) 0.0650 Uani
H4A H -0.3460 -0.1545 0.3208 0.0780 Uiso
C5A C -0.3088(6) -0.2997(3) 0.1972(3) 0.0453 Uani
C6A C -0.2692(6) -0.2592(3) 0.2408(3) 0.0523 Uani
O1B O -0.4062(5) 0.0536(3) 0.5617(2) 0.0640 Uani
O2B O -0.2393(4) 0.0786(2) 0.5792(2) 0.0547 Uani
N1B N -0.1998(5) -0.0659(3) 0.4281(2) 0.0520 Uani
C1B C -0.1654(7) 0.0109(4) 0.4909(3) 0.0673 Uani
H1B H -0.1166 0.0374 0.5060 0.0810 Uiso
C2B C -0.3387(6) -0.0311(4) 0.4854(3) 0.0633 Uani
H2B H -0.4100 -0.0333 0.4963 0.0760 Uiso
C3B C -0.1339(6) -0.0267(5) 0.4504(4) 0.0750 Uani
H3B H -0.0635 -0.0247 0.4380 0.0900 Uiso
C4B C -0.2997(6) -0.0681(4) 0.4449(4) 0.0650 Uani
H4B H -0.3460 -0.0955 0.4292 0.0780 Uiso
C5B C -0.3088(6) 0.0497(3) 0.5528(3) 0.0453 Uani
C6B C -0.2692(6) 0.0092(3) 0.5092(3) 0.0523 Uani
O1C O 0.1562(5) -0.3036(3) 0.5617(2) 0.0640 Uani
O2C O -0.0107(4) -0.3286(2) 0.5792(2) 0.0547 Uani
N1C N -0.0502(5) -0.1841(3) 0.4281(2) 0.0520 Uani
C1C C -0.0846(7) -0.2609(4) 0.4909(3) 0.0673 Uani
H1C H -0.1334 -0.2874 0.5060 0.0810 Uiso
C2C C 0.0887(6) -0.2189(4) 0.4854(3) 0.0633 Uani
H2C H 0.1600 -0.2167 0.4963 0.0760 Uiso
C3C C -0.1161(6) -0.2233(5) 0.4504(4) 0.0750 Uani
H3C H -0.1865 -0.2253 0.4380 0.0900 Uiso
C4C C 0.0497(6) -0.1819(4) 0.4449(4) 0.0650 Uani
H4C H 0.0960 -0.1545 0.4292 0.0780 Uiso
C5C C 0.0588(6) -0.2997(3) 0.5528(3) 0.0453 Uani
C6C C 0.0192(6) -0.2592(3) 0.5092(3) 0.0523 Uani
In1A In -0.3750 -0.3750 0.1250 0.0319 Uani
In1B In -0.3750 0.1250 0.6250 0.0319 Uani
In1C In 0.1250 -0.3750 0.6250 0.0319 Uani
O1G O 0.1562(5) 0.1964(3) 0.0617(2) 0.0640 Uani
O1J O 0.0938(5) 0.0536(3) 0.0617(2) 0.0640 Uani
O1M O 0.0938(5) 0.1964(3) 0.1883(2) 0.0640 Uani
O2G O -0.0107(4) 0.1714(2) 0.0792(2) 0.0547 Uani
O2J O 0.2607(4) 0.0786(2) 0.0792(2) 0.0547 Uani
O2M O 0.2607(4) 0.1714(2) 0.1708(2) 0.0547 Uani
loop_
_atom_site_aniso_label
_atom_site_aniso_U_11
_atom_site_aniso_U_22
_atom_site_aniso_U_33
_atom_site_aniso_U_23
_atom_site_aniso_U_13
_atom_site_aniso_U_12
In1 0.0386(6) 0.0301(6) 0.0270(6) 0.000 0.000 0.000
Cu1 0.0685(13) 0.0343(9) 0.0287(9) 0.000 0.000 0.000
O1 0.055(3) 0.075(4) 0.062(4) 0.019(3) 0.010(3) 0.006(3)
O2 0.063(3) 0.056(3) 0.045(3) 0.015(2) 0.010(2) 0.011(2)
N1 0.055(4) 0.051(3) 0.050(4) 0.018(3) 0.007(3) 0.009(3)
C1 0.056(5) 0.077(6) 0.069(5) 0.045(5) 0.009(4) 0.020(4)
C2 0.048(4) 0.071(5) 0.071(5) 0.023(5) 0.019(4) 0.018(4)
C3 0.052(5) 0.093(7) 0.080(7) 0.045(6) 0.014(4) 0.019(4)
C4 0.059(5) 0.057(5) 0.079(6) 0.024(4) 0.009(4) 0.019(4)
C5 0.057(4) 0.039(4) 0.040(4) 0.010(3) 0.006(3) 0.006(3)
C6 0.052(4) 0.057(4) 0.048(4) 0.016(4) 0.008(3) 0.011(3)
O1A 0.055 0.075 0.062 -0.019 -0.01 0.006
O2A 0.063 0.056 0.045 -0.015 -0.01 0.011
N1A 0.055 0.051 0.05 -0.018 -0.007 0.009
C1A 0.056 0.077 0.069 -0.045 -0.009 0.02
C2A 0.048 0.071 0.071 -0.023 -0.019 0.018
C3A 0.052 0.093 0.08 -0.045 -0.014 0.019
C4A 0.059 0.057 0.079 -0.024 -0.009 0.019
C5A 0.057 0.039 0.04 -0.01 -0.006 0.006
C6A 0.052 0.057 0.048 -0.016 -0.008 0.011
O1B 0.055 0.075 0.062 -0.019 0.01 -0.006
O2B 0.063 0.056 0.045 -0.015 0.01 -0.011
N1B 0.055 0.051 0.05 -0.018 0.007 -0.009
C1B 0.056 0.077 0.069 -0.045 0.009 -0.02
C2B 0.048 0.071 0.071 -0.023 0.019 -0.018
C3B 0.052 0.093 0.08 -0.045 0.014 -0.019
C4B 0.059 0.057 0.079 -0.024 0.009 -0.019
C5B 0.057 0.039 0.04 -0.01 0.006 -0.006
C6B 0.052 0.057 0.048 -0.016 0.008 -0.011
O1C 0.055 0.075 0.062 0.019 -0.01 -0.006
O2C 0.063 0.056 0.045 0.015 -0.01 -0.011
N1C 0.055 0.051 0.05 0.018 -0.007 -0.009
C1C 0.056 0.077 0.069 0.045 -0.009 -0.02
C2C 0.048 0.071 0.071 0.023 -0.019 -0.018
C3C 0.052 0.093 0.08 0.045 -0.014 -0.019
C4C 0.059 0.057 0.079 0.024 -0.009 -0.019
C5C 0.057 0.039 0.04 0.01 -0.006 -0.006
C6C 0.052 0.057 0.048 0.016 -0.008 -0.011
In1A 0.0386 0.0301 0.027 0 0 0
In1B 0.0386 0.0301 0.027 0 0 0
In1C 0.0386 0.0301 0.027 0 0 0
O1G 0.055 0.075 0.062 0.019 -0.01 -0.006
O1J 0.055 0.075 0.062 -0.019 0.01 -0.006
O1M 0.055 0.075 0.062 -0.019 -0.01 0.006
O2G 0.063 0.056 0.045 0.015 -0.01 -0.011
O2J 0.063 0.056 0.045 -0.015 0.01 -0.011
O2M 0.063 0.056 0.045 -0.015 -0.01 0.011
loop_
_geom_bond_atom_site_label_1
_geom_bond_atom_site_label_2
_geom_bond_site_symmetry_1
_geom_bond_site_symmetry_2
In1 O1 1_555 1_555
Cu1 N1 1_555 1_555
O1 C5 1_555 1_555
O2 In1 1_555 1_555
N1 C3 1_555 1_555
C1 H1 1_555 1_555
C2 H2 1_555 1_555
C3 C1 1_555 1_555
H3 C3 1_555 1_555
C4 N1 1_555 1_555
H4 C4 1_555 1_555
C5 O2 1_555 1_555
C6 C1 1_555 1_555
O1A C5A 1_555 1_555
O2A C5A 1_555 1_555
N1A Cu1 1_555 1_555
C1A H1A 1_555 1_555
C2A H2A 1_555 1_555
C3A N1A 1_555 1_555
H3A C3A 1_555 1_555
C4A N1A 1_555 1_555
H4A C4A 1_555 1_555
C5A C6A 1_555 1_555
C6A C1A 1_555 1_555
O1B C5B 1_555 1_555
O2B C5B 1_555 1_555
N1B Cu1 1_555 1_555
C1B H1B 1_555 1_555
C2B H2B 1_555 1_555
C3B N1B 1_555 1_555
H3B C3B 1_555 1_555
C4B N1B 1_555 1_555
H4B C4B 1_555 1_555
C5B C6B 1_555 1_555
C6B C1B 1_555 1_555
O1C C5C 1_555 1_555
O2C C5C 1_555 1_555
N1C Cu1 1_555 1_555
C1C H1C 1_555 1_555
C2C H2C 1_555 1_555
C3C N1C 1_555 1_555
H3C C3C 1_555 1_555
C4C N1C 1_555 1_555
H4C C4C 1_555 1_555
C5C C6C 1_555 1_555
C6C C1C 1_555 1_555
In1A O1A 1_555 1_555
In1B O1B 1_555 1_555
In1C O1C 1_555 1_555
O1G In1 1_555 1_555
O1J In1 1_555 1_555
O1M In1 1_555 1_555
O2G In1 1_555 1_555
O2J In1 1_555 1_555
O2M In1 1_555 1_555
C2 C4 1_555 1_555
C2 C6 1_555 1_555
C5 C6 1_555 1_555
O2A In1A 1_555 1_555
C1A C3A 1_555 1_555
C2A C4A 1_555 1_555
C2A C6A 1_555 1_555
O2B In1B 1_555 1_555
C1B C3B 1_555 1_555
C2B C4B 1_555 1_555
C2B C6B 1_555 1_555
O2C In1C 1_555 1_555
C1C C3C 1_555 1_555
C2C C4C 1_555 1_555
C2C C6C 1_555 1_555

#END
