
#######################################################################
#
#                 Cambridge Crystallographic Data Centre
#                                CCDC 
#
#######################################################################
#
# If this CIF has been generated from an entry in the Cambridge 
# Structural Database, then it will include bibliographic, chemical, 
# crystal, experimental, refinement or atomic coordinate data resulting 
# from the CCDC's data processing and validation procedures.
#
#######################################################################

data_RITDEF
_chemical_formula_moiety         '(C24 H16 Ag1 In1 N4 O8)n'
_symmetry_cell_setting           orthorhombic
_symmetry_space_group_name_H-M   'F d d d'
_symmetry_Int_Tables_number      70
_space_group_name_Hall           '-F 2uv 2vw'
loop_
_symmetry_equiv_pos_site_id
_symmetry_equiv_pos_as_xyz
1 x,y,z
2 3/4-x,3/4-y,z
3 3/4-x,y,3/4-z
4 x,3/4-y,3/4-z
5 x,1/2+y,1/2+z
6 3/4-x,1/4-y,1/2+z
7 3/4-x,1/2+y,1/4-z
8 x,1/4-y,1/4-z
9 1/2+x,y,1/2+z
10 1/4-x,3/4-y,1/2+z
11 1/4-x,y,1/4-z
12 1/2+x,3/4-y,1/4-z
13 1/2+x,1/2+y,z
14 1/4-x,1/4-y,z
15 1/4-x,1/2+y,3/4-z
16 1/2+x,1/4-y,3/4-z
17 -x,-y,-z
18 1/4+x,1/4+y,-z
19 1/4+x,-y,1/4+z
20 -x,1/4+y,1/4+z
21 -x,1/2-y,1/2-z
22 1/4+x,3/4+y,1/2-z
23 1/4+x,1/2-y,3/4+z
24 -x,3/4+y,3/4+z
25 1/2-x,-y,1/2-z
26 3/4+x,1/4+y,1/2-z
27 3/4+x,-y,3/4+z
28 1/2-x,1/4+y,3/4+z
29 1/2-x,1/2-y,-z
30 3/4+x,3/4+y,-z
31 3/4+x,1/2-y,1/4+z
32 1/2-x,3/4+y,1/4+z
_cell_length_a                   12.0412(8)
_cell_length_b                   23.6221(17)
_cell_length_c                   25.381(2)
_cell_angle_alpha                90
_cell_angle_beta                 90
_cell_angle_gamma                90
_cell_volume                     7219.33
loop_
_atom_site_label
_atom_site_type_symbol
_atom_site_fract_x
_atom_site_fract_y
_atom_site_fract_z
_atom_site_U_iso_or_equiv
_atom_site_thermal_displace_type
N1 N -0.0470(5) -0.0600(3) 0.3184(3) 0.0763 Uani
Ag1 Ag -0.1250 -0.1250 0.3750 0.0687 Uani
In1 In 0.1250 0.1250 0.1250 0.0475 Uani
O1 O 0.1557(4) 0.0563(2) 0.1862(2) 0.0740 Uani
O2 O -0.0153(4) 0.08147(19) 0.17050(19) 0.0663 Uani
C1 C -0.0855(7) 0.0150(4) 0.2585(3) 0.0820 Uani
H1 H -0.1364 0.0409 0.2452 0.0990 Uiso
C2 C 0.0907(7) -0.0273(3) 0.2593(4) 0.0770 Uani
H2 H 0.1631 -0.0300 0.2469 0.0920 Uiso
C3 C -0.1160(6) -0.0211(5) 0.2987(4) 0.0977 Uani
H3 H -0.1873 -0.0182 0.3125 0.1170 Uiso
C4 C 0.0550(6) -0.0631(3) 0.2984(3) 0.0803 Uani
H4 H 0.1036 -0.0904 0.3113 0.0970 Uiso
C5 C 0.0563(7) 0.0518(3) 0.1953(3) 0.0603 Uani
C6 C 0.0193(5) 0.0127(3) 0.2383(3) 0.0573 Uani
N1A N -0.2030(5) -0.1900(3) 0.3184(3) 0.0763 Uani
O1A O -0.4057(4) -0.3063(2) 0.1862(2) 0.0740 Uani
O2A O -0.2347(4) -0.33147(19) 0.17050(19) 0.0663 Uani
C1A C -0.1645(7) -0.2650(4) 0.2585(3) 0.0820 Uani
H1A H -0.1136 -0.2909 0.2452 0.0990 Uiso
C2A C -0.3407(7) -0.2227(3) 0.2593(4) 0.0770 Uani
H2A H -0.4131 -0.2200 0.2469 0.0920 Uiso
C3A C -0.1340(6) -0.2289(5) 0.2987(4) 0.0977 Uani
H3A H -0.0627 -0.2318 0.3125 0.1170 Uiso
C4A C -0.3050(6) -0.1869(3) 0.2984(3) 0.0803 Uani
H4A H -0.3536 -0.1596 0.3113 0.0970 Uiso
C5A C -0.3063(7) -0.3018(3) 0.1953(3) 0.0603 Uani
C6A C -0.2693(5) -0.2627(3) 0.2383(3) 0.0573 Uani
N1B N -0.2030(5) -0.0600(3) 0.4316(3) 0.0763 Uani
O1B O -0.4057(4) 0.0563(2) 0.5638(2) 0.0740 Uani
O2B O -0.2347(4) 0.08147(19) 0.57950(19) 0.0663 Uani
C1B C -0.1645(7) 0.0150(4) 0.4915(3) 0.0820 Uani
H1B H -0.1136 0.0409 0.5048 0.0990 Uiso
C2B C -0.3407(7) -0.0273(3) 0.4907(4) 0.0770 Uani
H2B H -0.4131 -0.0300 0.5031 0.0920 Uiso
C3B C -0.1340(6) -0.0211(5) 0.4513(4) 0.0977 Uani
H3B H -0.0627 -0.0182 0.4375 0.1170 Uiso
C4B C -0.3050(6) -0.0631(3) 0.4516(3) 0.0803 Uani
H4B H -0.3536 -0.0904 0.4387 0.0970 Uiso
C5B C -0.3063(7) 0.0518(3) 0.5547(3) 0.0603 Uani
C6B C -0.2693(5) 0.0127(3) 0.5117(3) 0.0573 Uani
N1C N -0.0470(5) -0.1900(3) 0.4316(3) 0.0763 Uani
O1C O 0.1557(4) -0.3063(2) 0.5638(2) 0.0740 Uani
O2C O -0.0153(4) -0.33147(19) 0.57950(19) 0.0663 Uani
C1C C -0.0855(7) -0.2650(4) 0.4915(3) 0.0820 Uani
H1C H -0.1364 -0.2909 0.5048 0.0990 Uiso
C2C C 0.0907(7) -0.2227(3) 0.4907(4) 0.0770 Uani
H2C H 0.1631 -0.2200 0.5031 0.0920 Uiso
C3C C -0.1160(6) -0.2289(5) 0.4513(4) 0.0977 Uani
H3C H -0.1873 -0.2318 0.4375 0.1170 Uiso
C4C C 0.0550(6) -0.1869(3) 0.4516(3) 0.0803 Uani
H4C H 0.1036 -0.1596 0.4387 0.0970 Uiso
C5C C 0.0563(7) -0.3018(3) 0.5547(3) 0.0603 Uani
C6C C 0.0193(5) -0.2627(3) 0.5117(3) 0.0573 Uani
In1A In -0.3750 -0.3750 0.1250 0.0475 Uani
In1B In -0.3750 0.1250 0.6250 0.0475 Uani
In1C In 0.1250 -0.3750 0.6250 0.0475 Uani
O1G O 0.1557(4) 0.1937(2) 0.0638(2) 0.0740 Uani
O1J O 0.0943(4) 0.0563(2) 0.0638(2) 0.0740 Uani
O1M O 0.0943(4) 0.1937(2) 0.1862(2) 0.0740 Uani
O2G O -0.0153(4) 0.16853(19) 0.07950(19) 0.0663 Uani
O2J O 0.2653(4) 0.08147(19) 0.07950(19) 0.0663 Uani
O2M O 0.2653(4) 0.16853(19) 0.17050(19) 0.0663 Uani
loop_
_atom_site_aniso_label
_atom_site_aniso_U_11
_atom_site_aniso_U_22
_atom_site_aniso_U_33
_atom_site_aniso_U_23
_atom_site_aniso_U_13
_atom_site_aniso_U_12
N1 0.065(4) 0.086(4) 0.078(4) 0.034(4) 0.006(3) 0.001(3)
Ag1 0.1128(12) 0.0471(8) 0.0462(8) 0.000 0.000 0.000
In1 0.0494(7) 0.0465(7) 0.0467(7) 0.000 0.000 0.000
O1 0.048(3) 0.084(4) 0.090(4) 0.022(3) 0.001(3) -0.003(3)
O2 0.060(3) 0.069(3) 0.070(3) 0.016(3) 0.003(2) 0.015(2)
C1 0.055(4) 0.100(6) 0.091(6) 0.050(5) 0.010(4) 0.011(4)
C2 0.054(4) 0.069(5) 0.108(7) 0.037(5) 0.015(4) 0.014(4)
C3 0.048(5) 0.141(9) 0.104(7) 0.064(7) 0.022(4) 0.031(5)
C4 0.059(5) 0.081(5) 0.101(6) 0.028(5) 0.003(4) 0.013(4)
C5 0.080(5) 0.048(4) 0.053(4) 0.002(3) 0.018(4) -0.002(4)
C6 0.051(4) 0.061(4) 0.060(4) 0.016(3) 0.003(3) 0.006(3)
N1A 0.065 0.086 0.078 -0.034 -0.006 0.001
O1A 0.048 0.084 0.09 -0.022 -0.001 -0.003
O2A 0.06 0.069 0.07 -0.016 -0.003 0.015
C1A 0.055 0.1 0.091 -0.05 -0.01 0.011
C2A 0.054 0.069 0.108 -0.037 -0.015 0.014
C3A 0.048 0.141 0.104 -0.064 -0.022 0.031
C4A 0.059 0.081 0.101 -0.028 -0.003 0.013
C5A 0.08 0.048 0.053 -0.002 -0.018 -0.002
C6A 0.051 0.061 0.06 -0.016 -0.003 0.006
N1B 0.065 0.086 0.078 -0.034 0.006 -0.001
O1B 0.048 0.084 0.09 -0.022 0.001 0.003
O2B 0.06 0.069 0.07 -0.016 0.003 -0.015
C1B 0.055 0.1 0.091 -0.05 0.01 -0.011
C2B 0.054 0.069 0.108 -0.037 0.015 -0.014
C3B 0.048 0.141 0.104 -0.064 0.022 -0.031
C4B 0.059 0.081 0.101 -0.028 0.003 -0.013
C5B 0.08 0.048 0.053 -0.002 0.018 0.002
C6B 0.051 0.061 0.06 -0.016 0.003 -0.006
N1C 0.065 0.086 0.078 0.034 -0.006 -0.001
O1C 0.048 0.084 0.09 0.022 -0.001 0.003
O2C 0.06 0.069 0.07 0.016 -0.003 -0.015
C1C 0.055 0.1 0.091 0.05 -0.01 -0.011
C2C 0.054 0.069 0.108 0.037 -0.015 -0.014
C3C 0.048 0.141 0.104 0.064 -0.022 -0.031
C4C 0.059 0.081 0.101 0.028 -0.003 -0.013
C5C 0.08 0.048 0.053 0.002 -0.018 0.002
C6C 0.051 0.061 0.06 0.016 -0.003 -0.006
In1A 0.0494 0.0465 0.0467 0 0 0
In1B 0.0494 0.0465 0.0467 0 0 0
In1C 0.0494 0.0465 0.0467 0 0 0
O1G 0.048 0.084 0.09 0.022 -0.001 0.003
O1J 0.048 0.084 0.09 -0.022 0.001 0.003
O1M 0.048 0.084 0.09 -0.022 -0.001 -0.003
O2G 0.06 0.069 0.07 0.016 -0.003 -0.015
O2J 0.06 0.069 0.07 -0.016 0.003 -0.015
O2M 0.06 0.069 0.07 -0.016 -0.003 0.015
loop_
_geom_bond_atom_site_label_1
_geom_bond_atom_site_label_2
_geom_bond_site_symmetry_1
_geom_bond_site_symmetry_2
N1 Ag1 1_555 1_555
Ag1 N1A 1_555 1_555
In1 O1 1_555 1_555
O1 C5 1_555 1_555
O2 In1 1_555 1_555
C1 H1 1_555 1_555
C2 H2 1_555 1_555
C3 N1 1_555 1_555
H3 C3 1_555 1_555
C4 N1 1_555 1_555
H4 C4 1_555 1_555
C5 O2 1_555 1_555
C6 C1 1_555 1_555
N1A C3A 1_555 1_555
O1A C5A 1_555 1_555
O2A C5A 1_555 1_555
C1A H1A 1_555 1_555
C2A H2A 1_555 1_555
C3A C1A 1_555 1_555
H3A C3A 1_555 1_555
C4A N1A 1_555 1_555
H4A C4A 1_555 1_555
C5A C6A 1_555 1_555
C6A C1A 1_555 1_555
N1B Ag1 1_555 1_555
O1B C5B 1_555 1_555
O2B C5B 1_555 1_555
C1B H1B 1_555 1_555
C2B H2B 1_555 1_555
C3B N1B 1_555 1_555
H3B C3B 1_555 1_555
C4B N1B 1_555 1_555
H4B C4B 1_555 1_555
C5B C6B 1_555 1_555
C6B C1B 1_555 1_555
N1C Ag1 1_555 1_555
O1C C5C 1_555 1_555
O2C C5C 1_555 1_555
C1C H1C 1_555 1_555
C2C H2C 1_555 1_555
C3C N1C 1_555 1_555
H3C C3C 1_555 1_555
C4C N1C 1_555 1_555
H4C C4C 1_555 1_555
C5C C6C 1_555 1_555
C6C C1C 1_555 1_555
In1A O1A 1_555 1_555
In1B O1B 1_555 1_555
In1C O1C 1_555 1_555
O1G In1 1_555 1_555
O1J In1 1_555 1_555
O1M In1 1_555 1_555
O2G In1 1_555 1_555
O2J In1 1_555 1_555
O2M In1 1_555 1_555
C1 C3 1_555 1_555
C2 C4 1_555 1_555
C2 C6 1_555 1_555
C5 C6 1_555 1_555
O2A In1A 1_555 1_555
C2A C4A 1_555 1_555
C2A C6A 1_555 1_555
O2B In1B 1_555 1_555
C1B C3B 1_555 1_555
C2B C4B 1_555 1_555
C2B C6B 1_555 1_555
O2C In1C 1_555 1_555
C1C C3C 1_555 1_555
C2C C4C 1_555 1_555
C2C C6C 1_555 1_555

#END
