
#######################################################################
#
#                 Cambridge Crystallographic Data Centre
#                                CCDC 
#
#######################################################################
#
# If this CIF has been generated from an entry in the Cambridge 
# Structural Database, then it will include bibliographic, chemical, 
# crystal, experimental, refinement or atomic coordinate data resulting 
# from the CCDC's data processing and validation procedures.
#
#######################################################################

data_CIZPOS
_chemical_formula_moiety         'C26 H10 Cu8 N4 O24'
_symmetry_cell_setting           rhombohedral
_symmetry_space_group_name_H-M   'R -3 m'
_symmetry_Int_Tables_number      166
_space_group_name_Hall           '-R 3 2"'
loop_
_symmetry_equiv_pos_site_id
_symmetry_equiv_pos_as_xyz
1 x,y,z
2 -y,x-y,z
3 -x+y,-x,z
4 y,x,-z
5 -x,-x+y,-z
6 x-y,-y,-z
7 2/3+x,1/3+y,1/3+z
8 2/3-y,1/3+x-y,1/3+z
9 2/3-x+y,1/3-x,1/3+z
10 2/3+y,1/3+x,1/3-z
11 2/3-x,1/3-x+y,1/3-z
12 2/3+x-y,1/3-y,1/3-z
13 1/3+x,2/3+y,2/3+z
14 1/3-y,2/3+x-y,2/3+z
15 1/3-x+y,2/3-x,2/3+z
16 1/3+y,2/3+x,2/3-z
17 1/3-x,2/3-x+y,2/3-z
18 1/3+x-y,2/3-y,2/3-z
19 -x,-y,-z
20 y,-x+y,-z
21 x-y,x,-z
22 -y,-x,z
23 x,x-y,z
24 -x+y,y,z
25 1/3-x,2/3-y,2/3-z
26 1/3+y,2/3-x+y,2/3-z
27 1/3+x-y,2/3+x,2/3-z
28 1/3-y,2/3-x,2/3+z
29 1/3+x,2/3+x-y,2/3+z
30 1/3-x+y,2/3+y,2/3+z
31 2/3-x,1/3-y,1/3-z
32 2/3+y,1/3-x+y,1/3-z
33 2/3+x-y,1/3+x,1/3-z
34 2/3-y,1/3-x,1/3+z
35 2/3+x,1/3+x-y,1/3+z
36 2/3-x+y,1/3+y,1/3+z
_cell_length_a                   18.4898(11)
_cell_length_b                   18.4898(11)
_cell_length_c                   38.7266(19)
_cell_angle_alpha                90
_cell_angle_beta                 90
_cell_angle_gamma                120
_cell_volume                     11465.8
loop_
_atom_site_label
_atom_site_type_symbol
_atom_site_fract_x
_atom_site_fract_y
_atom_site_fract_z
Cu1 Cu 0.38169(5) 0.19085(2) 0.194562(19)
O1 O 0.4436(2) 0.1480(3) 0.16927(10)
O2 O 0.3625(2) 0.1070(3) 0.12210(10)
C1 C 0.4249(3) 0.1189(4) 0.13910(14)
C2 C 0.4838(3) 0.0967(4) 0.12229(15)
C3 C 0.5558(2) 0.1117(5) 0.1389(2)
H1 H 0.5660 0.1320 0.1614
C4 C 0.4685(4) 0.0666(4) 0.08830(16)
H2 H 0.4202 0.0574 0.0770
C5 C 0.5254(3) 0.0507(7) 0.0717(3)
O3 O 0.4569(5) 0.2284(3) 0.23944(19)
C6 C 0.5105(4) 0.0210(8) 0.0351(2)
C7 C 0.5769(9) 0.0639(11) 0.0109(3)
H3 H 0.632(3) 0.111(3) 0.013(4)
C8 C 0.4385(10) -0.0392(10) 0.0239(4)
N1 N 0.361(2) -0.0995(19) 0.0479(6)
O4 O 0.2948(12) -0.118(2) 0.0391(8)
O5 O 0.380(2) -0.1162(16) 0.0742(9)
O1R O 0.5564(2) -0.1480(3) -0.16927(10)
O2R O 0.6375(2) -0.1070(3) -0.12210(10)
C1R C 0.5751(3) -0.1189(4) -0.13910(14)
C2R C 0.5162(3) -0.0967(4) -0.12229(15)
C3E C 0.4441(5) -0.1117(5) -0.1389(2)
H1E H 0.4340 -0.1320 -0.1614
C4R C 0.5315(4) -0.0666(4) -0.08830(16)
H2R H 0.5798 -0.0574 -0.0770
C5E C 0.4747(8) -0.0507(7) -0.0717(3)
C6E C 0.4895(9) -0.0210(8) -0.0351(2)
C7R C 0.4231(9) -0.0639(11) -0.0109(3)
H3R H 0.368(3) -0.111(3) -0.013(4)
C8R C 0.5615(10) 0.0392(10) -0.0239(4)
N1R N 0.639(2) 0.0995(19) -0.0479(6)
O4R O 0.7052(12) 0.118(2) -0.0391(8)
O5R O 0.620(2) 0.1162(16) -0.0742(9)
O1W O 0.7044(4) 0.1480(3) 0.16927(10)
O2W O 0.7445(4) 0.1070(3) 0.12210(10)
C1W C 0.6940(5) 0.1189(4) 0.13910(14)
C2W C 0.6129(5) 0.0967(4) 0.12229(15)
C4W C 0.5981(6) 0.0666(4) 0.08830(16)
H2W H 0.6372 0.0574 0.0770
C7W C 0.4870(14) 0.0639(11) 0.0109(3)
H3W H 0.479(4) 0.111(3) 0.013(4)
C8W C 0.5223(14) -0.0392(10) 0.0239(4)
N1W N 0.5395(28) -0.0995(19) 0.0479(6)
O4W O 0.5872(23) -0.118(2) 0.0391(8)
O5W O 0.5038(26) -0.1162(16) 0.0742(9)
O1E O 0.2956(4) -0.1480(3) -0.16927(10)
O2E O 0.2555(4) -0.1070(3) -0.12210(10)
C1E C 0.3060(5) -0.1189(4) -0.13910(14)
C2E C 0.3871(5) -0.0967(4) -0.12229(15)
C4E C 0.4019(6) -0.0666(4) -0.08830(16)
H2E H 0.3628 -0.0574 -0.0770
C7E C 0.5130(14) -0.0639(11) -0.0109(3)
H3E H 0.521(4) -0.111(3) -0.013(4)
C8E C 0.4777(14) 0.0392(10) -0.0239(4)
N1E N 0.4605(28) 0.0995(19) -0.0479(6)
O4E O 0.4128(23) 0.118(2) -0.0391(8)
O5E O 0.4962(26) 0.1162(16) -0.0742(9)
Cu1A Cu 0.80915(2) 0.19084(5) 0.194562(19)
O3A O 0.7716(3) 0.2285(6) 0.23944(19)
Cu1D Cu 0.61831(5) -0.19084(5) -0.194562(19)
Cu1E Cu 0.19084(5) -0.19085(2) -0.194562(19)
Cu1J Cu 0.28498(5) 0.14249(5) 0.138771(19)
Cu1K Cu 0.85751(5) 0.14248(2) 0.138771(19)
Cu1L Cu 0.71502(5) -0.14248(2) -0.138771(19)
Cu1M Cu 0.14248(2) -0.14249(5) -0.138771(19)
O1A O 0.8520(3) 0.2956(4) 0.16927(10)
O1V O 0.4436(2) 0.2956(4) 0.16927(10)
O2J O 0.3042(2) 0.0778(4) 0.21123(10)
O2K O 0.9222(4) 0.2263(3) 0.21123(10)
O2DA O 0.3042(2) 0.2263(3) 0.21123(10)
O2EA O 0.7737(3) 0.0778(4) 0.21123(10)
loop_
_geom_bond_atom_site_label_1
_geom_bond_atom_site_label_2
_geom_bond_site_symmetry_1
_geom_bond_site_symmetry_2
Cu1 O1 1_555 1_555
O1 C1 1_555 1_555
O2 C1 1_555 1_555
C1 C2 1_555 1_555
C2 C3 1_555 1_555
C3 H1 1_555 1_555
C4 C2 1_555 1_555
H2 C4 1_555 1_555
C5 C4 1_555 1_555
O3 Cu1 1_555 1_555
C6 C5 1_555 1_555
C7 C6 1_555 1_555
H3 C7 1_555 1_555
C8 C6 1_555 1_555
N1 C8 1_555 1_555
O4 N1 1_555 1_555
O5 N1 1_555 1_555
O1R C1R 1_555 1_555
O2R C1R 1_555 1_555
C1R C2R 1_555 1_555
C2R C3E 1_555 1_555
C3E H1E 1_555 1_555
C4R C2R 1_555 1_555
H2R C4R 1_555 1_555
C5E C4R 1_555 1_555
C6E C5E 1_555 1_555
C7R C8 1_555 1_555
H3R C7R 1_555 1_555
C8R C7 1_555 1_555
N1R C8R 1_555 1_555
O4R N1R 1_555 1_555
O5R N1R 1_555 1_555
O1W C1W 1_555 1_555
O2W C1W 1_555 1_555
C1W C2W 1_555 1_555
C2W C3 1_555 1_555
C4W C5 1_555 1_555
H2W C4W 1_555 1_555
C7W C6 1_555 1_555
H3W C7W 1_555 1_555
C8W C6 1_555 1_555
N1W C8W 1_555 1_555
O4W N1W 1_555 1_555
O5W N1W 1_555 1_555
O1E C1E 1_555 1_555
O2E C1E 1_555 1_555
C1E C2E 1_555 1_555
C2E C3E 1_555 1_555
C4E C5E 1_555 1_555
H2E C4E 1_555 1_555
C7E C6E 1_555 1_555
H3E C7E 1_555 1_555
C8E C6E 1_555 1_555
N1E C8E 1_555 1_555
O4E N1E 1_555 1_555
O5E N1E 1_555 1_555
Cu1A O1W 1_555 1_555
O3A Cu1A 1_555 1_555
Cu1D O1R 1_555 1_555
Cu1E O1E 1_555 1_555
Cu1J Cu1 1_555 1_555
Cu1K O2W 1_555 1_555
Cu1L O2R 1_555 1_555
Cu1M O2E 1_555 1_555
O1A Cu1A 1_555 1_555
O1V Cu1 1_555 1_555
O2J Cu1 1_555 1_555
O2K Cu1A 1_555 1_555
O2DA Cu1 1_555 1_555
O2EA Cu1A 1_555 1_555
O2 Cu1J 1_555 1_555
C7 C7W 1_555 1_555
C7 C8W 1_555 1_555
C8 C7W 1_555 1_555
C8 C8W 1_555 1_555
C6E C7R 1_555 1_555
C6E C8R 1_555 1_555
C7R C7E 1_555 1_555
C7R C8E 1_555 1_555
C8R C7E 1_555 1_555
C8R C8E 1_555 1_555
C2W C4W 1_555 1_555
C7W C8E 1_555 1_555
C8W C7E 1_555 1_555
C2E C4E 1_555 1_555
Cu1A Cu1K 1_555 1_555
Cu1D Cu1L 1_555 1_555
Cu1E Cu1M 1_555 1_555

#END
