
#######################################################################
#
#                 Cambridge Crystallographic Data Centre
#                                CCDC 
#
#######################################################################
#
# If this CIF has been generated from an entry in the Cambridge 
# Structural Database, then it will include bibliographic, chemical, 
# crystal, experimental, refinement or atomic coordinate data resulting 
# from the CCDC's data processing and validation procedures.
#
#######################################################################

data_IWEPUW
_chemical_formula_moiety         '(C20 H12 Mn1 N6 O8)n'
_symmetry_cell_setting           monoclinic
_symmetry_space_group_name_H-M   'C 2/c'
_symmetry_Int_Tables_number      15
_space_group_name_Hall           '-C 2yc'
loop_
_symmetry_equiv_pos_site_id
_symmetry_equiv_pos_as_xyz
1 x,y,z
2 -x,y,1/2-z
3 1/2+x,1/2+y,z
4 1/2-x,1/2+y,1/2-z
5 -x,-y,-z
6 x,-y,1/2+z
7 1/2-x,1/2-y,-z
8 1/2+x,1/2-y,1/2+z
_cell_length_a                   17.949(3)
_cell_length_b                   12.708(3)
_cell_length_c                   9.6065(16)
_cell_angle_alpha                90
_cell_angle_beta                 112.333(4)
_cell_angle_gamma                90
_cell_volume                     2026.84
loop_
_atom_site_label
_atom_site_type_symbol
_atom_site_fract_x
_atom_site_fract_y
_atom_site_fract_z
Mn1 Mn 0.5000 0.54905(3) 0.7500
C1 C 0.73206(12) 0.59689(15) 0.4758(2)
H1 H 0.7021 0.5702 0.3808
C2 C 0.69867(12) 0.60132(15) 0.5840(2)
C3 C 0.74419(12) 0.63900(15) 0.7257(2)
H2 H 0.7226 0.6412 0.7998
C4 C 0.82184(12) 0.67342(15) 0.7571(2)
C5 C 0.85574(12) 0.67086(16) 0.6507(2)
H3 H 0.9081 0.6945 0.6733
C6 C 0.80996(12) 0.63204(15) 0.5084(2)
C7 C 0.86735(14) 0.67322(17) 1.0344(2)
H4 H 0.8419 0.6110 1.0418
C8 C 0.91007(12) 0.80379(16) 0.9451(2)
H5 H 0.9202 0.8496 0.8788
C9 C 0.61219(12) 0.56996(15) 0.5482(2)
C10 C 0.84053(13) 0.63438(17) 0.3843(2)
N1 N 0.86641(10) 0.71402(13) 0.90466(18)
N2 N 0.90839(11) 0.73192(14) 1.14756(19)
N3 N 0.93593(10) 0.81674(13) 1.09084(19)
O1 O 0.56713(9) 0.56456(11) 0.41136(16)
O2 O 0.59289(9) 0.55299(11) 0.65829(16)
O3 O 0.80211(11) 0.60070(15) 0.26082(18)
O4 O 0.91142(9) 0.68068(13) 0.42137(16)
H6 H 0.9123 0.6982 0.3226
Mn1D Mn 0.5000 0.45095(3) 0.2500
Mn1D_2 Mn 0.5000 0.45095(3) 1.2500
Mn1F Mn 0.0000 0.95095(3) 0.2500
Mn1F_2 Mn 1.0000 0.95095(3) 1.2500
C1A C 0.26794(12) 0.59689(15) 1.0242(2)
H1A H 0.2979 0.5702 1.1192
C2A C 0.30133(12) 0.60132(15) 0.9160(2)
C3A C 0.25581(12) 0.63900(15) 0.7743(2)
H2A H 0.2774 0.6412 0.7002
C4A C 0.17816(12) 0.67342(15) 0.7429(2)
C5A C 0.14426(12) 0.67086(16) 0.8493(2)
H3A H 0.0919 0.6945 0.8267
C6A C 0.19004(12) 0.63204(15) 0.9916(2)
C7A C 0.13265(14) 0.67322(17) 0.4656(2)
H4A H 0.1581 0.6110 0.4582
C8A C 0.08993(12) 0.80379(16) 0.5549(2)
H5A H 0.0798 0.8496 0.6212
C9A C 0.38781(12) 0.56996(15) 0.9518(2)
C10A C 0.15947(13) 0.63438(17) 1.1157(2)
N1A N 0.13359(10) 0.71402(13) 0.59534(18)
N2A N 0.09161(11) 0.73192(14) 0.35244(19)
N3A N 0.06407(10) 0.81674(13) 0.40916(19)
N3F N 0.56407(10) 0.68326(13) 0.90916(19)
N3G N 0.43593(10) 0.68326(13) 0.59084(19)
O1A O 0.43287(9) 0.56456(11) 1.08864(16)
O1D O 0.43287(9) 0.43544(11) 0.58864(16)
O1E O 0.56713(9) 0.43544(11) 0.91136(16)
O2A O 0.40711(9) 0.55299(11) 0.84171(16)
O3A O 0.19789(11) 0.60070(15) 1.23918(18)
O4A O 0.08858(9) 0.68068(13) 1.07863(16)
H6A H 0.0877 0.6982 1.1774
loop_
_geom_bond_atom_site_label_1
_geom_bond_atom_site_label_2
_geom_bond_site_symmetry_1
_geom_bond_site_symmetry_2
Mn1 O2 1_555 1_555
C1 H1 1_555 1_555
C2 C1 1_555 1_555
C3 C2 1_555 1_555
H2 C3 1_555 1_555
C4 C3 1_555 1_555
C5 C4 1_555 1_555
H3 C5 1_555 1_555
C6 C1 1_555 1_555
C7 H4 1_555 1_555
C8 H5 1_555 1_555
C9 C2 1_555 1_555
C10 C6 1_555 1_555
N1 C4 1_555 1_555
N2 C7 1_555 1_555
N3 C8 1_555 1_555
O1 C9 1_555 1_555
O2 C9 1_555 1_555
O3 C10 1_555 1_555
O4 C10 1_555 1_555
H6 O4 1_555 1_555
Mn1D O1 1_555 1_555
Mn1D_2 O1A 1_555 1_555
Mn1F N3A 1_555 1_555
Mn1F_2 N3 1_555 1_555
C1A H1A 1_555 1_555
C2A C1A 1_555 1_555
C3A C2A 1_555 1_555
H2A C3A 1_555 1_555
C4A C3A 1_555 1_555
C5A C4A 1_555 1_555
H3A C5A 1_555 1_555
C6A C1A 1_555 1_555
C7A H4A 1_555 1_555
C8A H5A 1_555 1_555
C9A C2A 1_555 1_555
C10A C6A 1_555 1_555
N1A C4A 1_555 1_555
N2A C7A 1_555 1_555
N3A C8A 1_555 1_555
N3F Mn1 1_555 1_555
N3G Mn1 1_555 1_555
O1A C9A 1_555 1_555
O1D Mn1 1_555 1_555
O1E Mn1 1_555 1_555
O2A Mn1 1_555 1_555
O3A C10A 1_555 1_555
O4A C10A 1_555 1_555
H6A O4A 1_555 1_555
C5 C6 1_555 1_555
C7 N1 1_555 1_555
C8 N1 1_555 1_555
N2 N3 1_555 1_555
C5A C6A 1_555 1_555
C7A N1A 1_555 1_555
C8A N1A 1_555 1_555
C9A O2A 1_555 1_555
N2A N3A 1_555 1_555

#END
