
#######################################################################
#
#                 Cambridge Crystallographic Data Centre
#                                CCDC 
#
#######################################################################
#
# If this CIF has been generated from an entry in the Cambridge 
# Structural Database, then it will include bibliographic, chemical, 
# crystal, experimental, refinement or atomic coordinate data resulting 
# from the CCDC's data processing and validation procedures.
#
#######################################################################

data_BAWROI
_chemical_formula_moiety         'C52 H32 N20 O18 Zn13'
_symmetry_cell_setting           tetragonal
_symmetry_space_group_name_H-M   'I 4 c m'
_symmetry_Int_Tables_number      108
_space_group_name_Hall           'I 4 -2c'
loop_
_symmetry_equiv_pos_site_id
_symmetry_equiv_pos_as_xyz
1 x,y,z
2 -x,y,1/2+z
3 -x,-y,z
4 x,-y,1/2+z
5 -y,-x,1/2+z
6 y,-x,z
7 -y,x,z
8 y,x,1/2+z
9 1/2+x,1/2+y,1/2+z
10 1/2-x,1/2+y,z
11 1/2-x,1/2-y,1/2+z
12 1/2+x,1/2-y,z
13 1/2-y,1/2-x,z
14 1/2+y,1/2-x,1/2+z
15 1/2-y,1/2+x,1/2+z
16 1/2+y,1/2+x,z
_cell_length_a                   28.368(3)
_cell_length_b                   28.368(3)
_cell_length_c                   33.958(4)
_cell_angle_alpha                90
_cell_angle_beta                 90
_cell_angle_gamma                90
_cell_volume                     27327.5
loop_
_atom_site_label
_atom_site_type_symbol
_atom_site_fract_x
_atom_site_fract_y
_atom_site_fract_z
_atom_site_U_iso_or_equiv
_atom_site_thermal_displace_type
Zn1 Zn 0.75315(5) 0.25315(5) 0.23964(9) 0.0864 Uani
Zn2 Zn 0.83482(4) 0.25312(4) 0.16479(6) 0.0952 Uani
Zn3 Zn 0.75271(4) 0.17235(4) 0.31354(6) 0.0957 Uani
O1 O 0.7970(3) 0.2970(3) 0.1966(3) 0.1053 Uani
N1 N 0.8124(3) 0.2043(3) 0.3010(3) 0.0890 Uani
N2 N 0.8558(3) 0.1977(4) 0.3160(3) 0.0927 Uani
N3 N 0.8129(3) 0.2390(3) 0.2738(2) 0.0727 Uani
C1 C 0.9575(4) 0.2030(4) 0.3336(3) 0.1410 Uani
H1 H 0.9398 0.1819 0.3496 0.1690 Uiso
C2 C 0.8843(4) 0.2280(4) 0.2983(3) 0.0907 Uani
C3 C 1.0055(4) 0.2049(4) 0.3374(3) 0.1450 Uani
H2 H 1.0214 0.1851 0.3557 0.1740 Uiso
C4 C 0.8586(3) 0.2556(4) 0.2701(3) 0.0930 Uani
H3 H 0.8702 0.2795 0.2531 0.1110 Uiso
C5 C 0.9341(4) 0.2317(3) 0.3066(3) 0.1207 Uani
O2 O 0.7883(3) -0.0991(4) 0.1320(3) 0.1640 Uani
O3 O 1.1027(4) 0.2101(3) 0.3389(3) 0.1783 Uani
C6 C 1.0301(4) 0.2358(3) 0.3143(3) 0.1553 Uani
C7 C 0.7619(5) -0.0765(4) 0.1573(4) 0.1383 Uani
C8 C 0.7999(4) 0.0008(4) 0.1474(3) 0.1700 Uani
H4 H 0.8250 -0.0151 0.1345 0.2040 Uiso
C9 C 0.9591(4) 0.2616(4) 0.2822(4) 0.1560 Uani
H5 H 0.9436 0.2807 0.2632 0.1870 Uiso
O4 O 0.7373(3) -0.1010(3) 0.1761(3) 0.1407 Uani
C10 C 0.8006(4) 0.0489(4) 0.1521(3) 0.1637 Uani
H6 H 0.8269 0.0661 0.1424 0.1960 Uiso
C11 C 0.7621(4) -0.0237(3) 0.1617(3) 0.1240 Uani
C12 C 1.0076(5) 0.2627(4) 0.2864(4) 0.1747 Uani
H7 H 1.0257 0.2826 0.2697 0.2100 Uiso
C13 C 1.0830(5) 0.2395(4) 0.3175(4) 0.1667 Uani
C14 C 0.8065(4) 0.1524(4) 0.1588(3) 0.1013 Uani
H8 H 0.8261 0.1450 0.1370 0.1220 Uiso
C15 C 0.7645(4) 0.0729(3) 0.1704(3) 0.1363 Uani
N4 N 0.8039(3) 0.1940(3) 0.1767(3) 0.1077 Uani
C16 C 0.7747(4) 0.1210(3) 0.1781(3) 0.0953 Uani
C17 C 0.7246(4) -0.0019(4) 0.1800(3) 0.1543 Uani
H9 H 0.6984 -0.0195 0.1893 0.1850 Uiso
O5 O 1.1029(4) 0.2683(3) 0.3001(3) 0.1713 Uani
C18 C 0.7265(4) 0.0467(4) 0.1842(3) 0.1597 Uani
H10 H 0.7011 0.0625 0.1969 0.1920 Uiso
N5 N 0.7702(3) 0.1926(3) 0.2027(3) 0.0940 Uani
N6 N 0.7538(3) 0.1492(3) 0.2049(3) 0.1027 Uani
C19 C 0.7925(4) 0.2925(4) 0.0924(4) 0.1190 Uani
O6 O 0.8178(3) 0.2670(3) 0.1109(2) 0.1383 Uani
C20 C 0.7923(3) 0.2923(3) 0.0490(4) 0.1013 Uani
N7 N 0.7743(3) 0.3083(3) -0.1354(3) 0.1433 Uani
C21 C 0.7928(3) 0.2928(3) -0.0760(4) 0.1310 Uani
C22 C 0.7911(3) 0.2911(3) -0.0326(4) 0.1527 Uani
C23 C 0.8220(3) 0.2621(3) 0.0292(3) 0.1420 Uani
H11 H 0.8427 0.2418 0.0432 0.1700 Uiso
H12 H 0.7425 0.3425 -0.0908 0.1730 Uiso
N8 N 0.7648(3) 0.3197(3) -0.0993(3) 0.1437 Uani
C25 C 0.8211(3) 0.2620(3) -0.0113(3) 0.1343 Uani
H13 H 0.8416 0.2414 -0.0252 0.1610 Uiso
O7 O 0.7104(2) 0.2104(2) 0.2792(3) 0.0830 Uani
Zn2O Zn 0.75312(4) 0.33482(4) 0.16479(6) 0.0952 Uani
Zn2F Zn 0.74688(4) -0.16518(4) 0.16479(6) 0.0952 Uani
Zn2K Zn 0.33482(4) 0.24688(4) 0.16479(6) 0.0952 Uani
Zn2J Zn 0.66518(4) 0.24688(4) 0.66479(6) 0.0952 Uani
Zn2D Zn 0.74688(4) 0.16518(4) 0.66479(6) 0.0952 Uani
Zn3O Zn 0.67235(4) 0.25271(4) 0.31354(6) 0.0957 Uani
Zn3E Zn 1.17235(4) 0.24729(4) 0.31354(6) 0.0957 Uani
Zn3J Zn 0.74729(4) 0.32765(4) -0.18646(6) 0.0957 Uani
Zn3D Zn 0.82765(4) 0.24729(4) -0.18646(6) 0.0957 Uani
Zn3I Zn 0.74729(4) 0.67235(4) 0.31354(6) 0.0957 Uani
N1O N 0.7043(3) 0.3124(3) 0.3010(3) 0.0890 Uani
N2O N 0.6977(4) 0.3558(3) 0.3160(3) 0.0927 Uani
N3O N 0.7390(3) 0.3129(3) 0.2738(2) 0.0727 Uani
C1O C 0.7030(4) 0.4575(4) 0.3336(3) 0.1410 Uani
H1O H 0.6819 0.4398 0.3496 0.1690 Uiso
C2O C 0.7280(4) 0.3843(4) 0.2983(3) 0.0907 Uani
C3O C 0.7049(4) 0.5055(4) 0.3374(3) 0.1450 Uani
H2O H 0.6851 0.5214 0.3557 0.1740 Uiso
C4O C 0.7556(4) 0.3586(3) 0.2701(3) 0.0930 Uani
H3O H 0.7795 0.3702 0.2531 0.1110 Uiso
C5O C 0.7317(3) 0.4341(4) 0.3066(3) 0.1207 Uani
O2O O 0.4009(4) 0.2883(3) 0.1320(3) 0.1640 Uani
O3O O 0.7101(3) 0.6027(4) 0.3389(3) 0.1783 Uani
C6O C 0.7358(3) 0.5301(4) 0.3143(3) 0.1553 Uani
C7O C 0.4235(4) 0.2619(5) 0.1573(4) 0.1383 Uani
C8O C 0.5008(4) 0.2999(4) 0.1474(3) 0.1700 Uani
H4O H 0.4849 0.3250 0.1345 0.2040 Uiso
C9O C 0.7616(4) 0.4591(4) 0.2822(4) 0.1560 Uani
H5O H 0.7807 0.4436 0.2632 0.1870 Uiso
O4O O 0.3990(3) 0.2373(3) 0.1761(3) 0.1407 Uani
O4E O 0.8990(3) 0.2627(3) 0.1761(3) 0.1407 Uani
O4I O 0.7627(3) 0.3990(3) 0.1761(3) 0.1407 Uani
C10O C 0.5489(4) 0.3006(4) 0.1521(3) 0.1637 Uani
H6O H 0.5661 0.3269 0.1424 0.1960 Uiso
C11O C 0.4763(3) 0.2621(4) 0.1617(3) 0.1240 Uani
C12O C 0.7627(4) 0.5076(5) 0.2864(4) 0.1747 Uani
H7O H 0.7826 0.5257 0.2697 0.2100 Uiso
C13O C 0.7395(4) 0.5830(5) 0.3175(4) 0.1667 Uani
C14O C 0.6524(4) 0.3065(4) 0.1588(3) 0.1013 Uani
H8O H 0.6450 0.3261 0.1370 0.1220 Uiso
C15O C 0.5729(3) 0.2645(4) 0.1704(3) 0.1363 Uani
N4O N 0.6940(3) 0.3039(3) 0.1767(3) 0.1077 Uani
C16O C 0.6210(3) 0.2747(4) 0.1781(3) 0.0953 Uani
C17O C 0.4981(4) 0.2246(4) 0.1800(3) 0.1543 Uani
H9O H 0.4805 0.1984 0.1893 0.1850 Uiso
O5O O 0.7683(3) 0.6029(4) 0.3001(3) 0.1713 Uani
O5F O 0.7317(3) 0.1029(4) 0.3001(3) 0.1713 Uani
O5K O 0.6029(4) 0.2317(3) 0.3001(3) 0.1713 Uani
C18O C 0.5467(4) 0.2265(4) 0.1842(3) 0.1597 Uani
H10O H 0.5625 0.2011 0.1969 0.1920 Uiso
N5O N 0.6926(3) 0.2702(3) 0.2027(3) 0.0940 Uani
N6O N 0.6492(3) 0.2538(3) 0.2049(3) 0.1027 Uani
C19D C 0.7075(4) 0.2075(4) 0.5924(4) 0.1190 Uani
O6O O 0.7670(3) 0.3178(3) 0.1109(2) 0.1383 Uani
O6J O 0.6822(3) 0.2330(3) 0.6109(2) 0.1383 Uani
O6D O 0.7330(3) 0.1822(3) 0.6109(2) 0.1383 Uani
C20D C 0.7077(3) 0.2077(3) 0.5490(4) 0.1013 Uani
N7O N 0.8083(3) 0.2743(3) -0.1354(3) 0.1433 Uani
N7J N 0.7257(3) 0.1917(3) 0.3646(3) 0.1433 Uani
N7D N 0.6917(3) 0.2257(3) 0.3646(3) 0.1433 Uani
C21D C 0.7072(3) 0.2072(3) 0.4240(4) 0.1310 Uani
C22D C 0.7089(3) 0.2089(3) 0.4674(4) 0.1527 Uani
C23O C 0.7621(3) 0.3220(3) 0.0292(3) 0.1420 Uani
C23J C 0.6780(3) 0.2379(3) 0.5292(3) 0.1420 Uani
C23D C 0.7379(3) 0.1780(3) 0.5292(3) 0.1420 Uani
H11O H 0.7418 0.3427 0.0432 0.1700 Uiso
H11J H 0.6573 0.2582 0.5432 0.1700 Uiso
H11D H 0.7582 0.1573 0.5432 0.1700 Uiso
H12O H 0.8425 0.2425 -0.0908 0.1730 Uiso
H12J H 0.7575 0.1575 0.4092 0.1730 Uiso
H12D H 0.6575 0.2575 0.4092 0.1730 Uiso
N8O N 0.8197(3) 0.2648(3) -0.0993(3) 0.1437 Uani
N8J N 0.7352(3) 0.1803(3) 0.4007(3) 0.1437 Uani
N8D N 0.6803(3) 0.2352(3) 0.4007(3) 0.1437 Uani
C25O C 0.7620(3) 0.3211(3) -0.0113(3) 0.1343 Uani
C25J C 0.6789(3) 0.2380(3) 0.4887(3) 0.1343 Uani
C25D C 0.7380(3) 0.1789(3) 0.4887(3) 0.1343 Uani
H13O H 0.7414 0.3416 -0.0252 0.1610 Uiso
H13J H 0.6584 0.2586 0.4748 0.1610 Uiso
H13D H 0.7586 0.1584 0.4748 0.1610 Uiso
loop_
_atom_site_aniso_label
_atom_site_aniso_U_11
_atom_site_aniso_U_22
_atom_site_aniso_U_33
_atom_site_aniso_U_23
_atom_site_aniso_U_13
_atom_site_aniso_U_12
Zn1 0.0909(6) 0.0909(6) 0.0774(8) -0.0140(6) -0.0140(6) 0.0175(8)
Zn2 0.0939(9) 0.1093(10) 0.0825(10) -0.0043(8) -0.0092(7) 0.0223(7)
Zn3 0.1143(11) 0.0857(9) 0.0870(10) -0.0058(7) -0.0082(8) 0.0256(7)
O1 0.102(4) 0.102(4) 0.112(9) -0.006(4) -0.006(4) 0.018(6)
N1 0.1 0.079 0.088 -0.006 -0.014 0.013
N2 0.102 0.104 0.072 0.009 -0.004 0.018
N3 0.085 0.062 0.071 -0.012 -0.011 -0.003
C1 0.114 0.164 0.145 0.005 -0.022 0.022
C2 0.105 0.104 0.063 -0.016 -0.004 0.027
C3 0.111 0.171 0.153 -0.004 -0.032 0.01
C4 0.106 0.089 0.084 -0.01 -0.009 -0.017
C5 0.113 0.146 0.103 -0.009 -0.005 0.023
O2 0.156(8) 0.172(8) 0.164(9) -0.045(7) 0.005(6) -0.022(6)
O3 0.141 0.241 0.153 -0.026 -0.003 -0.013
C6 0.127 0.209 0.13 -0.027 -0.006 0.028
C7 0.173(8) 0.125(6) 0.117(7) 0.010(6) -0.003(6) -0.007(6)
C8 0.202(8) 0.146(7) 0.162(8) 0.005(7) 0.016(7) -0.014(7)
C9 0.126 0.193 0.149 0.016 -0.001 0.011
O4 0.169(7) 0.129(6) 0.124(7) 0.010(5) 0.006(5) -0.021(5)
C10 0.201(8) 0.133(7) 0.157(8) -0.007(7) 0.028(6) -0.026(7)
C11 0.158(7) 0.107(5) 0.107(6) 0.011(5) 0.003(6) -0.015(5)
C12 0.138 0.222 0.164 0 0.005 0.022
C13 0.129 0.237 0.134 -0.036 -0.008 -0.016
C14 0.099(6) 0.112(6) 0.093(7) -0.015(5) -0.011(5) 0.013(5)
C15 0.173(8) 0.118(7) 0.118(7) 0.000(6) 0.018(6) -0.017(6)
N4 0.100(5) 0.107(5) 0.116(7) -0.008(5) 0.004(4) 0.021(5)
C16 0.102(6) 0.098(6) 0.086(7) -0.008(5) -0.020(5) 0.014(5)
C17 0.204(8) 0.118(6) 0.141(7) 0.020(6) 0.016(6) -0.013(6)
O5 0.136 0.238 0.14 -0.027 0.005 -0.013
C18 0.209(8) 0.125(7) 0.145(7) 0.007(7) 0.026(7) -0.009(6)
N5 0.099(5) 0.082(5) 0.101(6) 0.002(4) 0.004(4) 0.024(5)
N6 0.114(6) 0.096(5) 0.098(6) 0.002(5) -0.005(4) 0.006(5)
C19 0.123(5) 0.123(5) 0.111(7) -0.001(5) -0.001(5) 0.011(7)
O6 0.124(6) 0.152(6) 0.139(6) 0.006(5) -0.017(4) 0.027(5)
C20 0.104(5) 0.104(5) 0.096(6) 0.017(5) 0.017(5) 0.006(6)
N7 0.17 0.157 0.103 0.011 0 0.025
C21 0.149(5) 0.149(5) 0.095(6) 0.000(5) 0.000(5) 0.018(6)
C22 0.174(5) 0.174(5) 0.110(7) 0.008(5) 0.008(5) 0.037(7)
C23 0.162(7) 0.152(6) 0.112(5) 0.008(6) 0.004(6) 0.029(6)
N8 0.167 0.16 0.104 0.011 -0.003 0.012
C25 0.158(6) 0.151(6) 0.094(5) 0.006(6) 0.003(6) 0.040(5)
O7 0.096(4) 0.096(4) 0.057(6) 0.007(3) 0.007(3) -0.009(5)
Zn2O 0.1093 0.0939 0.0825 -0.0092 -0.0043 0.0223
Zn2F 0.1093 0.0939 0.0825 -0.0092 0.0043 -0.0223
Zn2K 0.0939 0.1093 0.0825 0.0043 -0.0092 -0.0223
Zn2J 0.0939 0.1093 0.0825 0.0043 0.0092 0.0223
Zn2D 0.1093 0.0939 0.0825 0.0092 0.0043 0.0223
Zn3O 0.0857 0.1143 0.087 -0.0082 -0.0058 0.0256
Zn3E 0.0857 0.1143 0.087 0.0082 -0.0058 -0.0256
Zn3J 0.1143 0.0857 0.087 0.0058 0.0082 0.0256
Zn3D 0.0857 0.1143 0.087 0.0082 0.0058 0.0256
Zn3I 0.1143 0.0857 0.087 -0.0058 0.0082 -0.0256
N1O 0.079 0.1 0.088 -0.014 -0.006 0.013
N2O 0.104 0.102 0.072 -0.004 0.009 0.018
N3O 0.062 0.085 0.071 -0.011 -0.012 -0.003
C1O 0.164 0.114 0.145 -0.022 0.005 0.022
C2O 0.104 0.105 0.063 -0.004 -0.016 0.027
C3O 0.171 0.111 0.153 -0.032 -0.004 0.01
C4O 0.089 0.106 0.084 -0.009 -0.01 -0.017
C5O 0.146 0.113 0.103 -0.005 -0.009 0.023
O2O 0.172 0.156 0.164 0.005 -0.045 -0.022
O3O 0.241 0.141 0.153 -0.003 -0.026 -0.013
C6O 0.209 0.127 0.13 -0.006 -0.027 0.028
C7O 0.125 0.173 0.117 -0.003 0.01 -0.007
C8O 0.146 0.202 0.162 0.016 0.005 -0.014
C9O 0.193 0.126 0.149 -0.001 0.016 0.011
O4O 0.129 0.169 0.124 0.006 0.01 -0.021
O4E 0.129 0.169 0.124 -0.006 0.01 0.021
O4I 0.169 0.129 0.124 0.01 -0.006 0.021
C10O 0.133 0.201 0.157 0.028 -0.007 -0.026
C11O 0.107 0.158 0.107 0.003 0.011 -0.015
C12O 0.222 0.138 0.164 0.005 0 0.022
C13O 0.237 0.129 0.134 -0.008 -0.036 -0.016
C14O 0.112 0.099 0.093 -0.011 -0.015 0.013
C15O 0.118 0.173 0.118 0.018 0 -0.017
N4O 0.107 0.1 0.116 0.004 -0.008 0.021
C16O 0.098 0.102 0.086 -0.02 -0.008 0.014
C17O 0.118 0.204 0.141 0.016 0.02 -0.013
O5O 0.238 0.136 0.14 0.005 -0.027 -0.013
O5F 0.238(10) 0.136(7) 0.140(8) 0.005(6) 0.027(7) 0.013(6)
O5K 0.136 0.238 0.14 0.027 0.005 0.013
C18O 0.125 0.209 0.145 0.026 0.007 -0.009
N5O 0.082 0.099 0.101 0.004 0.002 0.024
N6O 0.096 0.114 0.098 -0.005 0.002 0.006
C19D 0.123 0.123 0.111 0.001 0.001 0.011
O6O 0.152 0.124 0.139 -0.017 0.006 0.027
O6J 0.124 0.152 0.139 -0.006 0.017 0.027
O6D 0.152 0.124 0.139 0.017 -0.006 0.027
C20D 0.104 0.104 0.096 -0.017 -0.017 0.006
N7O 0.157(6) 0.170(6) 0.103(5) 0.000(5) 0.011(5) 0.025(6)
N7J 0.17 0.157 0.103 -0.011 0 0.025
N7D 0.157 0.17 0.103 0 -0.011 0.025
C21D 0.149 0.149 0.095 0 0 0.018
C22D 0.174 0.174 0.11 -0.008 -0.008 0.037
C23O 0.152 0.162 0.112 0.004 0.008 0.029
C23J 0.162 0.152 0.112 -0.008 -0.004 0.029
C23D 0.152 0.162 0.112 -0.004 -0.008 0.029
N8O 0.160(5) 0.167(5) 0.104(5) -0.003(5) 0.011(5) 0.012(5)
N8J 0.167 0.16 0.104 -0.011 0.003 0.012
N8D 0.16 0.167 0.104 0.003 -0.011 0.012
C25O 0.151 0.158 0.094 0.003 0.006 0.04
C25J 0.158 0.151 0.094 -0.006 -0.003 0.04
C25D 0.151 0.158 0.094 -0.003 -0.006 0.04
loop_
_geom_bond_atom_site_label_1
_geom_bond_atom_site_label_2
_geom_bond_site_symmetry_1
_geom_bond_site_symmetry_2
Zn1 O1 1_555 1_555
Zn2 O1 1_555 1_555
Zn3 N1 1_555 1_555
O1 Zn2O 1_555 1_555
N1 N2 1_555 1_555
N2 C2 1_555 1_555
N3 Zn1 1_555 1_555
C1 H1 1_555 1_555
C2 C4 1_555 1_555
C3 C1 1_555 1_555
H2 C3 1_555 1_555
C4 N3 1_555 1_555
H3 C4 1_555 1_555
C5 C1 1_555 1_555
O2 C7 1_555 1_555
O3 C13 1_555 1_555
C6 C3 1_555 1_555
C7 O4 1_555 1_555
C8 H4 1_555 1_555
C9 C5 1_555 1_555
H5 C9 1_555 1_555
O4 Zn2F 1_555 1_555
C10 C8 1_555 1_555
H6 C10 1_555 1_555
C11 C7 1_555 1_555
C12 C6 1_555 1_555
H7 C12 1_555 1_555
C13 C6 1_555 1_555
C14 H8 1_555 1_555
C15 C10 1_555 1_555
N4 Zn2 1_555 1_555
C16 C14 1_555 1_555
C17 C11 1_555 1_555
H9 C17 1_555 1_555
O5 C13 1_555 1_555
C18 C15 1_555 1_555
H10 C18 1_555 1_555
N5 Zn1 1_555 1_555
N6 C16 1_555 1_555
C19 O6 1_555 1_555
O6 Zn2 1_555 1_555
C20 C19 1_555 1_555
N7 N8 1_555 1_555
C21 C22 1_555 1_555
C22 C25 1_555 1_555
C23 C20 1_555 1_555
H11 C23 1_555 1_555
H12 N8 1_555 1_555
N8 C21 1_555 1_555
C25 C23 1_555 1_555
H13 C25 1_555 1_555
O7 Zn1 1_555 1_555
Zn2O O4I 1_555 1_555
Zn2K O4O 1_555 1_555
Zn2J O6J 1_555 1_555
Zn2D O6D 1_555 1_555
Zn3O O7 1_555 1_555
Zn3E O5 1_555 1_555
Zn3J N7 1_555 1_555
Zn3D N7O 1_555 1_555
Zn3I O5O 1_555 1_555
N1O Zn3O 1_555 1_555
N2O N1O 1_555 1_555
N3O Zn1 1_555 1_555
C1O H1O 1_555 1_555
C2O N2O 1_555 1_555
C3O C1O 1_555 1_555
H2O C3O 1_555 1_555
C4O N3O 1_555 1_555
H3O C4O 1_555 1_555
C5O C1O 1_555 1_555
O2O C7O 1_555 1_555
O3O C13O 1_555 1_555
C6O C3O 1_555 1_555
C7O O4O 1_555 1_555
C8O H4O 1_555 1_555
C9O C5O 1_555 1_555
H5O C9O 1_555 1_555
O4E Zn2 1_555 1_555
C10O C8O 1_555 1_555
H6O C10O 1_555 1_555
C11O C7O 1_555 1_555
C12O C6O 1_555 1_555
H7O C12O 1_555 1_555
C13O C6O 1_555 1_555
C14O H8O 1_555 1_555
C15O C10O 1_555 1_555
N4O Zn2O 1_555 1_555
C16O C14O 1_555 1_555
C17O C11O 1_555 1_555
H9O C17O 1_555 1_555
O5O C13O 1_555 1_555
O5F Zn3 1_555 1_555
O5K Zn3O 1_555 1_555
C18O C15O 1_555 1_555
H10O C18O 1_555 1_555
N5O Zn1 1_555 1_555
N6O C16O 1_555 1_555
C19D O6J 1_555 1_555
O6O C19 1_555 1_555
O6D C19D 1_555 1_555
C20D C19D 1_555 1_555
N7O N7 1_555 1_555
N7J Zn3 1_555 1_555
N7D Zn3O 1_555 1_555
C21D C22D 1_555 1_555
C22D C25J 1_555 1_555
C23O C20 1_555 1_555
C23J C20D 1_555 1_555
C23D C20D 1_555 1_555
H11O C23O 1_555 1_555
H11J C23J 1_555 1_555
H11D C23D 1_555 1_555
H12O N8O 1_555 1_555
H12J N8J 1_555 1_555
H12D N8D 1_555 1_555
N8O C21 1_555 1_555
N8J N7J 1_555 1_555
N8D N7D 1_555 1_555
C25O C22 1_555 1_555
C25J C23J 1_555 1_555
C25D C22D 1_555 1_555
H13O C25O 1_555 1_555
H13J C25J 1_555 1_555
H13D C25D 1_555 1_555
Zn3 O7 1_555 1_555
N1 N3 1_555 1_555
C2 C5 1_555 1_555
C8 C11 1_555 1_555
C9 C12 1_555 1_555
C14 N4 1_555 1_555
C15 C16 1_555 1_555
N4 N5 1_555 1_555
C17 C18 1_555 1_555
N5 N6 1_555 1_555
Zn2O O6O 1_555 1_555
N1O N3O 1_555 1_555
C2O C4O 1_555 1_555
C2O C5O 1_555 1_555
C8O C11O 1_555 1_555
C9O C12O 1_555 1_555
C14O N4O 1_555 1_555
C15O C16O 1_555 1_555
N4O N5O 1_555 1_555
C17O C18O 1_555 1_555
N5O N6O 1_555 1_555
N7O N8O 1_555 1_555
N7J N7D 1_555 1_555
C21D N8J 1_555 1_555
C21D N8D 1_555 1_555
C23O C25O 1_555 1_555
C23D C25D 1_555 1_555

#END
