
#######################################################################
#
#                 Cambridge Crystallographic Data Centre
#                                CCDC 
#
#######################################################################
#
# If this CIF has been generated from an entry in the Cambridge 
# Structural Database, then it will include bibliographic, chemical, 
# crystal, experimental, refinement or atomic coordinate data resulting 
# from the CCDC's data processing and validation procedures.
#
#######################################################################

data_NAQLAT
_chemical_formula_moiety         '(C53 H50 Cl2 N2 O17 Zn3)n'
_symmetry_cell_setting           monoclinic
_symmetry_space_group_name_H-M   'P 21/n'
_symmetry_Int_Tables_number      14
_space_group_name_Hall           '-P 2yn'
loop_
_symmetry_equiv_pos_site_id
_symmetry_equiv_pos_as_xyz
1 x,y,z
2 1/2-x,1/2+y,1/2-z
3 -x,-y,-z
4 1/2+x,1/2-y,1/2+z
_cell_length_a                   14.5949(14)
_cell_length_b                   12.5583(12)
_cell_length_c                   25.741(3)
_cell_angle_alpha                90
_cell_angle_beta                 100.093(2)
_cell_angle_gamma                90
_cell_volume                     4644.98
loop_
_atom_site_label
_atom_site_type_symbol
_atom_site_fract_x
_atom_site_fract_y
_atom_site_fract_z
_atom_site_U_iso_or_equiv
_atom_site_thermal_displace_type
O14 O 0.1848(3) 0.8858(3) 0.65097(15) 0.0389 Uani
H22 H 0.1443 0.9226 0.6317 0.0590 Uiso
C38 C 0.1455(5) 0.7871(5) 0.6623(3) 0.0558 Uani
H28 H 0.1953 0.7370 0.6760 0.0840 Uiso
H29 H 0.1082 0.7582 0.6300 0.0840 Uiso
H30 H 0.1056 0.7979 0.6888 0.0840 Uiso
O15 O 0.3441(3) 0.9092(4) 0.19902(16) 0.0417 Uani
H23 H 0.3245 0.9575 0.1773 0.0620 Uiso
C39 C 0.4324(5) 0.8750(6) 0.1908(3) 0.0571 Uani
H31 H 0.4739 0.9367 0.1917 0.0850 Uiso
H32 H 0.4264 0.8400 0.1563 0.0850 Uiso
H33 H 0.4584 0.8247 0.2186 0.0850 Uiso
O16 O 0.1424(4) 0.4159(4) 0.19700(16) 0.0519 Uani
H24 H 0.1557 0.4130 0.2301 0.0780 Uiso
C37 C 0.1953(5) 0.3378(5) 0.1746(3) 0.0509 Uani
H25 H 0.2551 0.3685 0.1701 0.0760 Uiso
H26 H 0.1607 0.3153 0.1403 0.0760 Uiso
H27 H 0.2062 0.2761 0.1982 0.0760 Uiso
O17 O 0.0299(10) 1.3919(9) 0.5049(4) 0.0801 Uani
H37 H -0.0043 1.3415 0.5112 0.1200 Uiso
C41 C 0.0428(16) 1.3858(14) 0.4568(5) 0.0764 Uani
H38 H -0.0171 1.3923 0.4329 0.1140 Uiso
H39 H 0.0712 1.3170 0.4511 0.1140 Uiso
H40 H 0.0842 1.4434 0.4497 0.1140 Uiso
Cl1 Cl 0.3313(4) 0.0021(5) 0.4605(3) 0.0813 Uani
C43 C 0.4468(6) 0.0006(9) 0.4897(4) 0.0462 Uani
C44 C 0.4924(8) 0.0976(7) 0.4997(4) 0.0711 Uani
H45 H 0.4605 0.1621 0.4892 0.0880 Uiso
C45 C 0.4153(8) -0.1001(7) 0.4750(4) 0.0477 Uani
H46 H 0.3842 -0.1664 0.4682 0.0580 Uiso
C46 C 0.3686(6) -0.0057(9) 0.4596(4) 0.0669 Uani
H47 H 0.3056 -0.0075 0.4423 0.0820 Uiso
C47 C 0.4142(7) 0.0913(7) 0.4696(4) 0.0434 Uani
H48 H 0.3823 0.1558 0.4591 0.0520 Uiso
C48 C 0.4935(7) -0.0938(7) 0.5051(4) 0.0255 Uani
H49 H 0.5377 0.1601 0.5017 0.0310 Uiso
Cl1B Cl 0.6687(4) -0.0021(5) 0.5395(3) 0.0813 Uani
C43B C 0.5532(6) -0.0006(9) 0.5103(4) 0.0462 Uani
C44B C 0.5076(8) -0.0976(7) 0.5003(4) 0.0711 Uani
H45B H 0.5395 -0.1621 0.5108 0.0880 Uiso
C45B C 0.5847(8) 0.1001(7) 0.5250(4) 0.0477 Uani
H46B H 0.6158 0.1664 0.5318 0.0580 Uiso
C46B C 0.6314(6) 0.0057(9) 0.5404(4) 0.0669 Uani
H47B H 0.6944 0.0075 0.5577 0.0820 Uiso
C47B C 0.5858(7) -0.0913(7) 0.5304(4) 0.0434 Uani
H48B H 0.6177 -0.1558 0.5409 0.0520 Uiso
C48B C 0.5065(7) 0.0938(7) 0.4949(4) 0.0255 Uani
H49B H 0.4623 -0.1601 0.4983 0.0310 Uiso
Zn1 Zn 0.11656(4) 0.89521(4) 0.123404(19) 0.0141 Uani
Zn2 Zn -0.01732(4) 1.27861(4) -0.19449(2) 0.0158 Uani
Zn3 Zn 0.06995(4) 1.07522(4) 0.529836(19) 0.0129 Uani
O1 O 0.0810(2) 1.2467(3) -0.13359(12) 0.0196 Uani
O2 O 0.3446(2) 1.2095(3) 0.29325(12) 0.0200 Uani
O3 O 0.1606(2) 0.9867(3) 0.07367(12) 0.0201 Uani
O4 O 0.1250(2) 0.9682(3) 0.19009(12) 0.0196 Uani
O5 O 0.0244(2) 0.8726(3) 0.22802(12) 0.0182 Uani
O6 O 0.0845(3) 1.0904(3) 0.45365(12) 0.0307 Uani
N1 N 0.0424(3) 1.3349(3) -0.25460(15) 0.0199 Uani
O7 O 0.3631(3) 1.4300(3) -0.03033(16) 0.0345 Uani
N2 N 0.1784(3) 1.1605(3) 0.56874(15) 0.0205 Uani
C1 C 0.1685(3) 1.4235(4) -0.28550(18) 0.0190 Uani
C2 C 0.2833(4) 1.1907(4) 0.6503(2) 0.0349 Uani
H1 H 0.2986 1.1806 0.6874 0.0420 Uiso
C3 C 0.0827(3) 0.9454(4) 0.22773(17) 0.0161 Uani
O8 O -0.0185(3) 0.9822(3) 0.40772(14) 0.0415 Uani
C4 C 0.4538(5) 1.3670(5) 0.5671(3) 0.0446 Uani
H2 H 0.4909 1.4097 0.5485 0.0530 Uiso
C5 C 0.3051(3) 1.2662(4) -0.00713(17) 0.0166 Uani
O9 O 0.4598(3) 1.3239(3) 0.01962(17) 0.0521 Uani
C6 C 0.0489(3) 1.0435(4) 0.41229(18) 0.0173 Uani
C7 C 0.3819(3) 1.3456(4) -0.00626(17) 0.0180 Uani
C8 C 0.1086(3) 1.0140(4) 0.27565(18) 0.0181 Uani
C9 C 0.0638(3) 1.0012(4) 0.31853(18) 0.0169 Uani
H3 H 0.0132 0.9529 0.3165 0.0210 Uiso
C10 C 0.0930(3) 1.0594(4) 0.36471(17) 0.0156 Uani
O10 O -0.0233(3) 1.4326(3) -0.15822(14) 0.0349 Uani
H4 H -0.0669 1.4819 -0.1770 0.0420 Uiso
C11 C 0.3423(4) 1.2484(4) 0.6237(2) 0.0330 Uani
C12 C 0.2311(4) 1.2164(4) 0.5438(2) 0.0258 Uani
H5 H 0.2126 1.2260 0.5068 0.0310 Uiso
C13 C 0.1245(4) 1.3820(4) -0.24499(19) 0.0237 Uani
H6 H 0.1554 1.3882 -0.2094 0.0280 Uiso
C14 C -0.0013(4) 1.3243(5) -0.30586(19) 0.0306 Uani
H7 H -0.0602 1.2901 -0.3129 0.0370 Uiso
C15 C 0.2045(4) 1.1493(4) 0.6228(2) 0.0292 Uani
H8 H 0.1648 1.1103 0.6414 0.0350 Uiso
C16 C 0.2569(4) 1.4749(5) -0.2739(2) 0.0320 Uani
H9 H 0.2876 1.4821 -0.2384 0.0380 Uiso
C17 C 0.4306(4) 1.2923(5) 0.6502(3) 0.0447 Uani
H10 H 0.4506 1.2828 0.6871 0.0530 Uiso
C18 C 0.3170(4) 1.2651(4) 0.5694(2) 0.0274 Uani
C19 C 0.2971(4) 1.5135(5) -0.3137(2) 0.0355 Uani
H11 H 0.3556 1.5485 -0.3061 0.0430 Uiso
C20 C 0.4837(4) 1.3474(5) 0.6208(3) 0.0489 Uani
H12 H 0.5428 1.3732 0.6374 0.0590 Uiso
C21 C 0.0362(4) 1.3607(5) -0.3470(2) 0.0377 Uani
H13 H 0.0037 1.3517 -0.3821 0.0450 Uiso
C22 C 0.1233(4) 1.4118(4) -0.3379(2) 0.0249 Uani
C23 C 0.3722(4) 1.3257(5) 0.5412(2) 0.0381 Uani
H14 H 0.3529 1.3378 0.5045 0.0460 Uiso
C24 C 0.2516(4) 1.5012(5) -0.3666(2) 0.0365 Uani
H15 H 0.2804 1.5285 -0.3942 0.0440 Uiso
C25 C 0.1681(4) 1.4517(5) -0.3790(2) 0.0340 Uani
H16 H 0.1396 1.4435 -0.4149 0.0410 Uiso
O11 O 0.3188(2) 1.2608(3) 0.37279(12) 0.0239 Uani
O12 O 0.0100(2) 1.1319(3) -0.08732(13) 0.0230 Uani
O13 O 0.2929(3) 1.0524(3) 0.11895(14) 0.0375 Uani
C26 C 0.1604(3) 1.1221(4) -0.00826(17) 0.0157 Uani
H17 H 0.1112 1.0722 -0.0091 0.0190 Uiso
C27 C 0.1837(3) 1.0828(4) 0.27880(17) 0.0166 Uani
H18 H 0.2145 1.0907 0.2494 0.0200 Uiso
C28 C 0.2328(3) 1.1229(4) 0.03444(18) 0.0164 Uani
C29 C 0.1584(3) 1.1926(4) -0.04967(16) 0.0133 Uani
C30 C 0.2306(3) 1.2657(4) -0.04882(18) 0.0172 Uani
H19 H 0.2288 1.3153 -0.0769 0.0210 Uiso
C31 C 0.2144(4) 1.1404(4) 0.32503(18) 0.0183 Uani
C32 C 0.1683(3) 1.1289(4) 0.36758(18) 0.0182 Uani
H20 H 0.1883 1.1686 0.3989 0.0220 Uiso
C33 C 0.3064(3) 1.1947(4) 0.03441(18) 0.0178 Uani
H21 H 0.3575 1.1947 0.0629 0.0220 Uiso
C34 C 0.2314(4) 1.0487(4) 0.08023(18) 0.0203 Uani
C35 C 0.0768(3) 1.1904(4) -0.09397(18) 0.0158 Uani
C36 C 0.2982(3) 1.2084(4) 0.33010(18) 0.0186 Uani
C40 C 0.0499(5) 1.4932(5) -0.1298(3) 0.0487 Uani
H34 H 0.0881 1.5222 -0.1542 0.0730 Uiso
H35 H 0.0242 1.5519 -0.1118 0.0730 Uiso
H36 H 0.0884 1.4478 -0.1037 0.0730 Uiso
Zn1B Zn -0.11656(4) 1.10479(4) -0.123404(19) 0.0141 Uani
Zn1A Zn 0.38344(4) 1.39521(4) 0.376596(19) 0.0141 Uani
Zn2B Zn 0.01732(4) 0.72139(4) 0.19449(2) 0.0158 Uani
Zn2C Zn 0.48268(4) 1.22139(4) 0.30551(2) 0.0158 Uani
Zn3A Zn 0.43005(4) 1.57522(4) -0.029836(19) 0.0129 Uani
Zn3B Zn -0.06995(4) 0.92478(4) 0.470164(19) 0.0129 Uani
Zn3C Zn 0.56995(4) 1.42478(4) 0.029836(19) 0.0129 Uani
O2C O -0.1554(2) 1.2905(3) -0.20675(12) 0.0200 Uani
O5B O -0.0244(2) 1.1274(3) -0.22802(12) 0.0182 Uani
O7A O 0.1369(3) 0.9300(3) 0.53033(16) 0.0345 Uani
O8B O 0.0185(3) 1.0178(3) 0.59228(14) 0.0415 Uani
O9C O -0.0402(3) 1.1761(3) 0.51962(17) 0.0521 Uani
O11A O 0.1812(2) 0.7608(3) 0.12721(12) 0.0239 Uani
O12B O -0.0100(2) 0.8681(3) 0.08732(13) 0.0230 Uani
loop_
_atom_site_aniso_label
_atom_site_aniso_U_11
_atom_site_aniso_U_22
_atom_site_aniso_U_33
_atom_site_aniso_U_23
_atom_site_aniso_U_13
_atom_site_aniso_U_12
O14 0.041(3) 0.041(3) 0.032(2) 0.0007(19) -0.001(2) 0.013(2)
C38 0.059(5) 0.050(5) 0.055(4) 0.013(3) 0.001(4) 0.011(4)
O15 0.030(2) 0.058(3) 0.036(2) 0.020(2) 0.003(2) 0.005(2)
C39 0.052(5) 0.060(5) 0.061(5) 0.011(4) 0.015(4) -0.007(4)
O16 0.072(4) 0.047(3) 0.035(2) 0.003(2) 0.005(3) 0.018(3)
C37 0.055(5) 0.038(4) 0.058(4) -0.011(3) 0.005(4) 0.000(4)
O17 0.100(11) 0.080(8) 0.055(6) 0.005(5) -0.001(6) -0.003(6)
C41 0.128(18) 0.067(10) 0.030(7) 0.021(7) 0.002(10) 0.045(12)
Cl1 0.040(3) 0.092(4) 0.107(5) 0.021(3) -0.001(3) 0.000(3)
C43 0.031(8) 0.064(10) 0.044(8) 0.009(7) 0.008(7) 0.006(8)
C44 0.08(2) 0.041(17) 0.11(2) 0.007(15) 0.066(18) 0.017(14)
C45 0.062 0.037 0.051 0.006 0.029 -0.004
C46 0.059 0.11 0.037 0.007 0.023 0.015
C47 0.052 0.034 0.045 0.011 0.011 0.003
C48 0.030(8) 0.022(10) 0.024(7) 0.010(6) 0.003(7) -0.007(7)
Cl1B 0.04 0.092 0.107 0.021 -0.001 0
C43B 0.031 0.064 0.044 0.009 0.008 0.006
C44B 0.08 0.041 0.11 0.007 0.066 0.017
C45B 0.062(11) 0.037(8) 0.051(9) 0.006(7) 0.029(8) -0.004(8)
C46B 0.059(19) 0.11(2) 0.037(10) 0.007(10) 0.023(12) 0.015(14)
C47B 0.052(10) 0.034(8) 0.045(8) 0.011(6) 0.011(7) 0.003(7)
C48B 0.03 0.022 0.024 0.01 0.003 -0.007
Zn1 0.0120(3) 0.0194(3) 0.0109(3) 0.0020(2) 0.0017(2) -0.0011(2)
Zn2 0.0139 0.0204 0.0128 0.0015 0.0014 -0.0017
Zn3 0.0097(3) 0.0176(3) 0.0111(3) -0.0019(2) 0.0011(2) 0.0009(2)
O1 0.0171 0.026 0.0141 0.0017 -0.0014 -0.0046
O2 0.0173 0.028 0.0157 -0.0025 0.0058 -0.0064
O3 0.0196 0.026 0.0153 0.0048 0.005 -0.0126
O4 0.0192(19) 0.026(2) 0.0143(16) -0.0002(14) 0.0045(15) -0.0040(16)
O5 0.0134(18) 0.0192(19) 0.0233(18) -0.0045(14) 0.0065(15) -0.0030(15)
O6 0.032(2) 0.049(3) 0.0113(17) -0.0041(16) 0.0045(16) -0.015(2)
N1 0.013 0.032 0.0131 0.0045 -0.0025 -0.006
O7 0.016 0.019 0.065 0.0168 -0.0028 -0.0056
N2 0.016(2) 0.022(2) 0.024(2) -0.0009(18) 0.0047(19) 0.0013(19)
C1 0.017 0.021 0.02 0.002 0.006 0.004
C2 0.038(4) 0.028(3) 0.032(3) 0.001(2) -0.012(3) -0.009(3)
C3 0.010(2) 0.023(3) 0.015(2) 0.0024(19) 0.0013(19) 0.003(2)
O8 0.046 0.063 0.021 -0.0126 0.0207 -0.042
C4 0.030(4) 0.035(4) 0.071(5) -0.005(3) 0.015(4) 0.001(3)
C5 0.018 0.021 0.012 0.0021 0.006 -0.004
O9 0.026 0.054 0.063 0.043 -0.029 -0.025
C6 0.017(3) 0.020(3) 0.015(2) 0.0002(19) 0.003(2) 0.007(2)
C7 0.016 0.027 0.011 -0.002 0.002 -0.01
C8 0.021(3) 0.020(3) 0.015(2) -0.0020(19) 0.008(2) -0.001(2)
C9 0.018(3) 0.012(2) 0.021(2) 0.0032(19) 0.004(2) 0.000(2)
C10 0.017(3) 0.019(3) 0.012(2) -0.0055(18) 0.006(2) -0.001(2)
O10 0.042 0.025 0.034 -0.0107 -0.0033 0.001
C11 0.026(3) 0.025(3) 0.044(3) -0.003(3) -0.005(3) 0.003(3)
C12 0.024(3) 0.027(3) 0.026(3) -0.007(2) 0.003(2) -0.001(3)
C13 0.02 0.031 0.02 0.003 0.003 0.002
C14 0.021 0.045 0.023 0.003 -0.004 -0.014
C15 0.032(3) 0.029(3) 0.024(3) -0.005(2) -0.002(3) 0.000(3)
C16 0.027 0.041 0.028 0.001 0.005 -0.002
C17 0.029(4) 0.037(4) 0.063(4) -0.001(3) -0.006(3) -0.005(3)
C18 0.030(3) 0.018(3) 0.036(3) -0.002(2) 0.011(3) 0.001(2)
C19 0.029 0.038 0.043 0.002 0.016 -0.007
C20 0.020(3) 0.030(4) 0.091(6) -0.008(4) -0.006(4) -0.004(3)
C21 0.024 0.068 0.019 0.004 -0.002 -0.01
C22 0.022 0.032 0.023 0.004 0.01 0
C23 0.033(4) 0.036(4) 0.045(4) 0.003(3) 0.006(3) -0.011(3)
C24 0.039 0.03 0.046 0.016 0.023 -0.002
C25 0.036 0.045 0.022 0.011 0.008 0.006
O11 0.028 0.03 0.0134 -0.005 0.0024 -0.0079
O12 0.0148 0.03 0.0215 0.0041 -0.0045 -0.0079
O13 0.027 0.052 0.029 0.021 -0.0078 -0.013
C26 0.016 0.017 0.014 0.0015 0.002 -0.004
C27 0.018(3) 0.019(3) 0.014(2) 0.0003(19) 0.006(2) 0.002(2)
C28 0.009 0.02 0.018 0.0039 -0.004 -0.001
C29 0.008 0.02 0.011 -0.0019 -0.0005 0.001
C30 0.017 0.019 0.017 0.0028 0.007 0
C31 0.018 0.021 0.016 0.0001 0.003 -0.001
C32 0.020(3) 0.020(3) 0.015(2) -0.0042(19) 0.004(2) 0.003(2)
C33 0.012 0.025 0.014 0.0051 -0.004 -0.005
C34 0.017 0.028 0.017 0.005 0.006 0
C35 0.017 0.011 0.019 -0.0001 0.002 0.001
C36 0.016 0.021 0.018 0.001 0.001 -0.003
C40 0.049 0.033 0.068 -0.011 0.021 -0.011
Zn1B 0.012 0.0194 0.0109 0.002 0.0017 -0.0011
Zn1A 0.012 0.0194 0.0109 -0.002 0.0017 0.0011
Zn2B 0.0139(3) 0.0204(3) 0.0128(3) 0.0015(2) 0.0014(2) -0.0017(2)
Zn2C 0.0139 0.0204 0.0128 -0.0015 0.0014 0.0017
Zn3A 0.0097 0.0176 0.0111 0.0019 0.0011 -0.0009
Zn3B 0.0097 0.0176 0.0111 -0.0019 0.0011 0.0009
Zn3C 0.0097 0.0176 0.0111 0.0019 0.0011 -0.0009
O2C 0.0173 0.028 0.0157 0.0025 0.0058 0.0064
O5B 0.0134 0.0192 0.0233 -0.0045 0.0065 -0.003
O7A 0.016(2) 0.019(2) 0.065(3) -0.0168(19) -0.0028(19) 0.0056(17)
O8B 0.046 0.063 0.021 -0.0126 0.0207 -0.042
O9C 0.026 0.054 0.063 -0.043 -0.029 0.025
O11A 0.028 0.03 0.0134 0.005 0.0024 0.0079
O12B 0.0148 0.03 0.0215 0.0041 -0.0045 -0.0079
loop_
_geom_bond_atom_site_label_1
_geom_bond_atom_site_label_2
_geom_bond_site_symmetry_1
_geom_bond_site_symmetry_2
Zn1 O3 1_555 1_555
Zn2 O1 1_555 1_555
Zn3 O6 1_555 1_555
O1 C35 1_555 1_555
O2 C36 1_555 1_555
O3 C34 1_555 1_555
O4 Zn1 1_555 1_555
O5 C3 1_555 1_555
O6 C6 1_555 1_555
N1 Zn2 1_555 1_555
O7 C7 1_555 1_555
N2 Zn3 1_555 1_555
C1 C13 1_555 1_555
C2 H1 1_555 1_555
C3 O4 1_555 1_555
O8 C6 1_555 1_555
C4 H2 1_555 1_555
C5 C7 1_555 1_555
O9 C7 1_555 1_555
C6 C10 1_555 1_555
C8 C3 1_555 1_555
C9 C8 1_555 1_555
H3 C9 1_555 1_555
C10 C9 1_555 1_555
O10 Zn2 1_555 1_555
H4 O10 1_555 1_555
C11 C2 1_555 1_555
C12 N2 1_555 1_555
H5 C12 1_555 1_555
C13 N1 1_555 1_555
H6 C13 1_555 1_555
C14 N1 1_555 1_555
H7 C14 1_555 1_555
C15 N2 1_555 1_555
H8 C15 1_555 1_555
C16 C1 1_555 1_555
H9 C16 1_555 1_555
C17 C11 1_555 1_555
H10 C17 1_555 1_555
C18 C11 1_555 1_555
C19 C16 1_555 1_555
H11 C19 1_555 1_555
C20 C4 1_555 1_555
H12 C20 1_555 1_555
C21 C14 1_555 1_555
H13 C21 1_555 1_555
C22 C1 1_555 1_555
C23 C4 1_555 1_555
H14 C23 1_555 1_555
C24 C19 1_555 1_555
H15 C24 1_555 1_555
C25 C22 1_555 1_555
H16 C25 1_555 1_555
O11 C36 1_555 1_555
O12 C35 1_555 1_555
O13 C34 1_555 1_555
C26 H17 1_555 1_555
C27 C8 1_555 1_555
H18 C27 1_555 1_555
C28 C26 1_555 1_555
C29 C26 1_555 1_555
C30 C5 1_555 1_555
H19 C30 1_555 1_555
C31 C27 1_555 1_555
C32 C10 1_555 1_555
H20 C32 1_555 1_555
C33 C5 1_555 1_555
H21 C33 1_555 1_555
C34 C28 1_555 1_555
C35 C29 1_555 1_555
C36 C31 1_555 1_555
O14 H22 1_555 1_555
O15 H23 1_555 1_555
O16 H24 1_555 1_555
C37 O16 1_555 1_555
H25 C37 1_555 1_555
H26 C37 1_555 1_555
H27 C37 1_555 1_555
C38 O14 1_555 1_555
H28 C38 1_555 1_555
H29 C38 1_555 1_555
H30 C38 1_555 1_555
C39 O15 1_555 1_555
H31 C39 1_555 1_555
H32 C39 1_555 1_555
H33 C39 1_555 1_555
C40 O10 1_555 1_555
H34 C40 1_555 1_555
H35 C40 1_555 1_555
H36 C40 1_555 1_555
O17 H37 1_555 1_555
C41 O17 1_555 1_555
H38 C41 1_555 1_555
H39 C41 1_555 1_555
H40 C41 1_555 1_555
Cl1 C43 1_555 1_555
C43 C44 1_555 1_555
C44 H45 1_555 1_555
H45 C47 1_555 1_555
C45 Cl1 1_555 1_555
H46 C45 1_555 1_555
C46 Cl1 1_555 1_555
H47 Cl1 1_555 1_555
C47 Cl1 1_555 1_555
H48 C47 1_555 1_555
C48 C43 1_555 1_555
H49 C44 1_555 1_555
Zn1B O12 1_555 1_555
Zn1A O11 1_555 1_555
Zn2B O5 1_555 1_555
Zn2C O2 1_555 1_555
Zn3A O7 1_555 1_555
Zn3B O8 1_555 1_555
Zn3C O9 1_555 1_555
O2C Zn2 1_555 1_555
O5B Zn2 1_555 1_555
O7A Zn3 1_555 1_555
O8B Zn3 1_555 1_555
O9C Zn3 1_555 1_555
O11A Zn1 1_555 1_555
O12B Zn1 1_555 1_555
Cl1B C43B 1_555 1_555
C43B C43 1_555 1_555
C44B C43 1_555 1_555
H45B C48 1_555 1_555
C45B C44 1_555 1_555
H46B C45B 1_555 1_555
C46B Cl1B 1_555 1_555
H47B Cl1B 1_555 1_555
C47B C48 1_555 1_555
H48B C47B 1_555 1_555
C48B C43 1_555 1_555
H49B C45 1_555 1_555
C2 C15 1_555 1_555
C12 C18 1_555 1_555
C17 C20 1_555 1_555
C18 C23 1_555 1_555
C21 C22 1_555 1_555
C24 C25 1_555 1_555
C28 C33 1_555 1_555
C29 C30 1_555 1_555
C31 C32 1_555 1_555
C43 C45 1_555 1_555
C43 C46 1_555 1_555
C43 C47 1_555 1_555
C44 C47 1_555 1_555
C44 C43B 1_555 1_555
C44 C48B 1_555 1_555
H45 C48B 1_555 1_555
C45 C46 1_555 1_555
C45 C48 1_555 1_555
C45 C44B 1_555 1_555
C46 H47 1_555 1_555
C46 C47 1_555 1_555
C47 C48B 1_555 1_555
C48 C43B 1_555 1_555
C48 C44B 1_555 1_555
C48 H49B 1_555 1_555
H49 C45B 1_555 1_555
H49 C48B 1_555 1_555
Cl1B C45B 1_555 1_555
Cl1B C47B 1_555 1_555
C43B C44B 1_555 1_555
C43B C45B 1_555 1_555
C43B C46B 1_555 1_555
C43B C47B 1_555 1_555
C43B C48B 1_555 1_555
C44B H45B 1_555 1_555
C44B C47B 1_555 1_555
C44B H49B 1_555 1_555
H45B C47B 1_555 1_555
C45B C46B 1_555 1_555
C45B C48B 1_555 1_555
C46B H47B 1_555 1_555
C46B C47B 1_555 1_555

#END
