
#######################################################################
#
#                 Cambridge Crystallographic Data Centre
#                                CCDC 
#
#######################################################################
#
# If this CIF has been generated from an entry in the Cambridge 
# Structural Database, then it will include bibliographic, chemical, 
# crystal, experimental, refinement or atomic coordinate data resulting 
# from the CCDC's data processing and validation procedures.
#
#######################################################################

data_SATBEW
_chemical_formula_moiety         '(C36 H24 Br2 Cu4 N18 S4 W1)n'
_symmetry_cell_setting           orthorhombic
_symmetry_space_group_name_H-M   'C c c a'
_symmetry_Int_Tables_number      68
_space_group_name_Hall           '-C 2a 2ac'
loop_
_symmetry_equiv_pos_site_id
_symmetry_equiv_pos_as_xyz
1 x,y,z
2 1/2-x,-y,z
3 -x,y,1/2-z
4 1/2+x,-y,1/2-z
5 1/2+x,1/2+y,z
6 -x,1/2-y,z
7 1/2-x,1/2+y,1/2-z
8 x,1/2-y,1/2-z
9 -x,-y,-z
10 1/2+x,y,-z
11 x,-y,1/2+z
12 1/2-x,y,1/2+z
13 1/2-x,1/2-y,-z
14 x,1/2+y,-z
15 1/2+x,1/2-y,1/2+z
16 -x,1/2+y,1/2+z
_cell_length_a                   25.910(5)
_cell_length_b                   32.157(6)
_cell_length_c                   13.697(3)
_cell_angle_alpha                90
_cell_angle_beta                 90
_cell_angle_gamma                90
_cell_volume                     11412.2
loop_
_atom_site_label
_atom_site_type_symbol
_atom_site_fract_x
_atom_site_fract_y
_atom_site_fract_z
_atom_site_U_iso_or_equiv
_atom_site_thermal_displace_type
Br1 Br 0.40485(3) -0.06994(2) 0.92814(5) 0.0633 Uani
C1 C 0.3018(3) -0.34901(18) 0.2343(4) 0.0580 Uani
H1 H 0.2900 -0.3468 0.1704 0.0700 Uiso
C2 C 0.3023(3) -0.31436(19) 0.2905(4) 0.0640 Uani
H2 H 0.2917 -0.2890 0.2646 0.0770 Uiso
C3 C 0.3190(3) -0.31676(19) 0.3879(4) 0.0560 Uani
C4 C 0.3345(3) -0.35461(19) 0.4213(4) 0.0600 Uani
H3 H 0.3457 -0.3578 0.4853 0.0720 Uiso
C5 C 0.3333(2) -0.38830(19) 0.3586(4) 0.0560 Uani
H4 H 0.3440 -0.4140 0.3821 0.0670 Uiso
C6 C 0.3195(3) -0.27937(19) 0.4512(4) 0.0630 Uani
C7 C 0.3206(3) -0.21496(19) 0.5588(4) 0.0620 Uani
C8 C 0.3238(3) -0.17665(17) 0.6206(4) 0.0540 Uani
C9 C 0.3028(2) -0.13948(19) 0.5894(4) 0.0520 Uani
H5 H 0.2865 -0.1377 0.5291 0.0620 Uiso
C10 C 0.3063(2) -0.10512(17) 0.6490(4) 0.0493 Uani
H6 H 0.2920 -0.0802 0.6281 0.0590 Uiso
C11 C 0.3503(3) -0.14193(18) 0.7644(4) 0.0620 Uani
H7 H 0.3671 -0.1428 0.8244 0.0740 Uiso
C12 C 0.3481(3) -0.17760(18) 0.7101(4) 0.0640 Uani
H8 H 0.3629 -0.2021 0.7331 0.0770 Uiso
C13 C 0.3991(2) 0.1057(2) 0.9491(4) 0.0583 Uani
H9 H 0.3940 0.1294 0.9114 0.0700 Uiso
C14 C 0.4301(2) 0.1089(2) 1.0307(4) 0.0593 Uani
H10 H 0.4442 0.1343 1.0488 0.0710 Uiso
C15 C 0.4395(2) 0.07412(19) 1.0843(4) 0.0527 Uani
C16 C 0.4172(3) 0.0383(2) 1.0562(5) 0.0770 Uani
H11 H 0.4238 0.0140 1.0905 0.0930 Uiso
C17 C 0.3850(3) 0.0375(2) 0.9782(5) 0.0813 Uani
H12 H 0.3681 0.0129 0.9630 0.0970 Uiso
C18 C 0.4723(2) 0.0758(2) 1.1740(4) 0.0530 Uani
Cu1 Cu 0.32928(3) -0.05517(2) 0.83068(5) 0.0492 Uani
Cu2 Cu 0.31714(3) 0.06387(2) 0.82399(5) 0.0478 Uani
N1 N 0.31738(18) -0.38570(14) 0.2657(3) 0.0487 Uani
N2 N 0.2997(3) -0.24459(17) 0.4154(3) 0.0767 Uani
N3 N 0.3000(3) -0.21108(16) 0.4710(4) 0.0727 Uani
N4 N 0.3371(3) -0.25002(17) 0.5967(4) 0.0887 Uani
N5 N 0.3362(3) -0.28401(17) 0.5413(4) 0.0873 Uani
N6 N 0.32969(19) -0.10637(14) 0.7360(3) 0.0470 Uani
N7 N 0.3766(2) 0.07122(15) 0.9218(3) 0.0550 Uani
N8 N 0.48526(19) 0.11248(16) 1.2095(3) 0.0580 Uani
N9 N 0.4853(2) 0.03860(18) 1.2105(3) 0.0683 Uani
S1 S 0.32073(6) 0.00354(4) 0.73584(10) 0.0474 Uani
S2 S 0.25502(6) -0.05664(5) 0.92223(9) 0.0445 Uani
W1 W 0.2500 -0.0000 0.829044(19) 0.0363 Uani
Br1A Br 0.09515(3) 0.06994(2) 0.92814(5) 0.0633 Uani
C1M C 0.3018(3) 0.15099(18) 0.7657(4) 0.0580 Uani
H1M H 0.2900 0.1532 0.8296 0.0700 Uiso
C2M C 0.3023(3) 0.18564(19) 0.7095(4) 0.0640 Uani
H2M H 0.2917 0.2110 0.7354 0.0770 Uiso
C3M C 0.3190(3) 0.18324(19) 0.6121(4) 0.0560 Uani
C4M C 0.3345(3) 0.14539(19) 0.5787(4) 0.0600 Uani
H3M H 0.3457 0.1422 0.5147 0.0720 Uiso
C5M C 0.3333(2) 0.11170(19) 0.6414(4) 0.0560 Uani
H4M H 0.3440 0.0860 0.6179 0.0670 Uiso
C6M C 0.3195(3) 0.22063(19) 0.5488(4) 0.0630 Uani
C7M C 0.3206(3) 0.28504(19) 0.4412(4) 0.0620 Uani
C8M C 0.3238(3) 0.32335(17) 0.3794(4) 0.0540 Uani
C9M C 0.3028(2) 0.36052(19) 0.4106(4) 0.0520 Uani
H5M H 0.2865 0.3623 0.4709 0.0620 Uiso
C10M C 0.3063(2) 0.39488(17) 0.3510(4) 0.0493 Uani
H6M H 0.2920 0.4198 0.3719 0.0590 Uiso
C11M C 0.3503(3) 0.35807(18) 0.2356(4) 0.0620 Uani
H7M H 0.3671 0.3572 0.1756 0.0740 Uiso
C12M C 0.3481(3) 0.32240(18) 0.2899(4) 0.0640 Uani
H8M H 0.3629 0.2979 0.2669 0.0770 Uiso
C13B C 0.6009(2) 0.1057(2) 1.5509(4) 0.0583 Uani
H9B H 0.6060 0.1294 1.5886 0.0700 Uiso
C14B C 0.5699(2) 0.1089(2) 1.4693(4) 0.0593 Uani
H10B H 0.5558 0.1343 1.4512 0.0710 Uiso
C15B C 0.5605(2) 0.07412(19) 1.4157(4) 0.0527 Uani
C16B C 0.5828(3) 0.0383(2) 1.4438(5) 0.0770 Uani
H11B H 0.5762 0.0140 1.4095 0.0930 Uiso
C17B C 0.6150(3) 0.0375(2) 1.5218(5) 0.0813 Uani
H12B H 0.6319 0.0129 1.5370 0.0970 Uiso
C18B C 0.5277(2) 0.0758(2) 1.3260(4) 0.0530 Uani
Cu1A Cu 0.17072(3) 0.05517(2) 0.83068(5) 0.0492 Uani
Cu1M Cu 0.32928(3) 0.44483(2) 0.16932(5) 0.0492 Uani
Cu2A Cu 0.18286(3) -0.06387(2) 0.82399(5) 0.0478 Uani
Cu2M Cu 0.31714(3) -0.43613(2) 0.17601(5) 0.0478 Uani
Cu2B Cu 0.68286(3) 0.06387(2) 1.67601(5) 0.0478 Uani
N1M N 0.31738(18) 0.11430(14) 0.7343(3) 0.0487 Uani
N1L N 0.18262(18) -0.11430(14) 0.7343(3) 0.0487 Uani
N2M N 0.2997(3) 0.25541(17) 0.5846(3) 0.0767 Uani
N3M N 0.3000(3) 0.28892(16) 0.5290(4) 0.0727 Uani
N4M N 0.3371(3) 0.24998(17) 0.4033(4) 0.0887 Uani
N5M N 0.3362(3) 0.21599(17) 0.4587(4) 0.0873 Uani
N6M N 0.32969(19) 0.39363(14) 0.2640(3) 0.0470 Uani
N6A N 0.17031(19) 0.10637(14) 0.7360(3) 0.0470 Uani
N7B N 0.6234(2) 0.07122(15) 1.5782(3) 0.0550 Uani
N7A N 0.1234(2) -0.07122(15) 0.9218(3) 0.0550 Uani
N8B N 0.51474(19) 0.11248(16) 1.2905(3) 0.0580 Uani
N9B N 0.5147(2) 0.03860(18) 1.2895(3) 0.0683 Uani
S1A S 0.17927(6) -0.00354(4) 0.73584(10) 0.0474 Uani
S2A S 0.24498(6) 0.05664(5) 0.92223(9) 0.0445 Uani
loop_
_atom_site_aniso_label
_atom_site_aniso_U_11
_atom_site_aniso_U_22
_atom_site_aniso_U_33
_atom_site_aniso_U_23
_atom_site_aniso_U_13
_atom_site_aniso_U_12
Br1 0.0617(4) 0.0687(5) 0.0594(4) -0.0036(3) -0.0068(3) 0.0077(3)
C1 0.094 0.047 0.033 -0.001 0.003 -0.004
C2 0.113 0.042 0.037 0 0.001 -0.001
C3 0.083 0.049 0.036 -0.006 -0.001 -0.001
C4 0.086 0.051 0.043 -0.007 -0.011 0.008
C5 0.072 0.046 0.05 -0.005 -0.008 -0.001
C6 0.113 0.043 0.033 -0.005 -0.005 0.004
C7 0.105 0.041 0.04 -0.002 -0.008 0.007
C8 0.088 0.039 0.035 -0.002 0.004 0.009
C9 0.081 0.048 0.027 -0.002 -0.001 0.005
C10 0.07 0.038 0.04 -0.001 0.002 0.004
C11 0.099 0.046 0.041 -0.003 -0.011 0.016
C12 0.103 0.045 0.044 -0.005 -0.014 0.02
C13 0.063(4) 0.053(4) 0.059(4) 0.006(3) -0.014(3) -0.004(3)
C14 0.062(4) 0.061(4) 0.055(4) 0.001(3) -0.018(3) -0.011(3)
C15 0.057(4) 0.059(4) 0.042(3) 0.007(3) -0.009(3) -0.004(3)
C16 0.097(6) 0.062(5) 0.072(5) 0.008(4) -0.044(4) -0.005(4)
C17 0.096(6) 0.068(5) 0.080(5) 0.003(4) -0.041(4) 0.003(4)
C18 0.050(4) 0.061(4) 0.048(3) 0.005(3) -0.007(3) -0.005(3)
Cu1 0.0617(5) 0.0426(4) 0.0432(4) -0.0030(3) 0.0021(3) 0.0060(3)
Cu2 0.0618(5) 0.0419(4) 0.0397(4) 0.0046(3) -0.0049(3) -0.0087(3)
N1 0.064 0.045 0.037 -0.006 0.005 -0.005
N2 0.148 0.045 0.037 -0.006 -0.016 0.007
N3 0.132 0.044 0.042 -0.006 -0.012 0.007
N4 0.178 0.042 0.046 -0.013 -0.028 0.021
N5 0.16 0.048 0.054 -0.013 -0.032 0.016
N6 0.063 0.041 0.037 -0.003 -0.001 0.002
N7 0.072(4) 0.040(3) 0.053(3) 0.004(2) -0.016(3) 0.002(3)
N8 0.063(4) 0.062(3) 0.049(3) -0.001(2) -0.014(2) 0.001(3)
N9 0.076(4) 0.072(4) 0.057(3) 0.000(3) -0.028(3) 0.000(3)
S1 0.0621(9) 0.0431(8) 0.0371(7) -0.0002(6) 0.0102(7) -0.0016(7)
S2 0.0578(10) 0.0408(8) 0.0349(7) 0.0062(5) 0.0004(6) 0.0003(7)
W1 0.0498(2) 0.03221(19) 0.02702(18) 0.000 0.000 -0.00158(13)
Br1A 0.0617 0.0687 0.0594 0.0036 0.0068 0.0077
C1M 0.094(5) 0.047(4) 0.033(3) 0.001(3) -0.003(3) -0.004(3)
C2M 0.113(6) 0.042(3) 0.037(3) 0.000(3) -0.001(3) -0.001(4)
C3M 0.083(5) 0.049(4) 0.036(3) 0.006(3) 0.001(3) -0.001(3)
C4M 0.086(5) 0.051(4) 0.043(3) 0.007(3) 0.011(3) 0.008(4)
C5M 0.072(4) 0.046(3) 0.050(4) 0.005(3) 0.008(3) -0.001(3)
C6M 0.113(6) 0.043(4) 0.033(3) 0.005(3) 0.005(3) 0.004(4)
C7M 0.105(6) 0.041(3) 0.040(3) 0.002(3) 0.008(3) 0.007(4)
C8M 0.088(5) 0.039(3) 0.035(3) 0.002(3) -0.004(3) 0.009(3)
C9M 0.081(5) 0.048(3) 0.027(3) 0.002(2) 0.001(3) 0.005(3)
C10M 0.070(4) 0.038(3) 0.040(3) 0.001(2) -0.002(3) 0.004(3)
C11M 0.099(5) 0.046(4) 0.041(3) 0.003(3) 0.011(3) 0.016(4)
C12M 0.103(6) 0.045(4) 0.044(3) 0.005(3) 0.014(3) 0.020(4)
C13B 0.063 0.053 0.059 -0.006 -0.014 0.004
C14B 0.062 0.061 0.055 -0.001 -0.018 0.011
C15B 0.057 0.059 0.042 -0.007 -0.009 0.004
C16B 0.097 0.062 0.072 -0.008 -0.044 0.005
C17B 0.096 0.068 0.08 -0.003 -0.041 -0.003
C18B 0.05 0.061 0.048 -0.005 -0.007 0.005
Cu1A 0.0617 0.0426 0.0432 0.003 -0.0021 0.006
Cu1M 0.0617 0.0426 0.0432 0.003 -0.0021 0.006
Cu2A 0.0618 0.0419 0.0397 -0.0046 0.0049 -0.0087
Cu2M 0.0618 0.0419 0.0397 -0.0046 0.0049 -0.0087
Cu2B 0.0618 0.0419 0.0397 -0.0046 -0.0049 0.0087
N1M 0.064(3) 0.045(3) 0.037(3) 0.006(2) -0.005(2) -0.005(2)
N1L 0.064 0.045 0.037 -0.006 0.005 -0.005
N2M 0.148(6) 0.045(3) 0.037(3) 0.006(2) 0.016(3) 0.007(4)
N3M 0.132(5) 0.044(3) 0.042(3) 0.006(2) 0.012(3) 0.007(3)
N4M 0.178(7) 0.042(3) 0.046(3) 0.013(2) 0.028(4) 0.021(4)
N5M 0.160(7) 0.048(3) 0.054(3) 0.013(3) 0.032(4) 0.016(4)
N6M 0.063(3) 0.041(3) 0.037(3) 0.003(2) 0.001(2) 0.002(2)
N6A 0.063 0.041 0.037 0.003 0.001 0.002
N7B 0.072 0.04 0.053 -0.004 -0.016 -0.002
N7A 0.072 0.04 0.053 -0.004 0.016 0.002
N8B 0.063 0.062 0.049 0.001 -0.014 -0.001
N9B 0.076 0.072 0.057 0 -0.028 0
S1A 0.0621 0.0431 0.0371 0.0002 -0.0102 -0.0016
S2A 0.0578 0.0408 0.0349 -0.0062 -0.0004 0.0003
loop_
_geom_bond_atom_site_label_1
_geom_bond_atom_site_label_2
_geom_bond_site_symmetry_1
_geom_bond_site_symmetry_2
Br1 Cu1 1_555 1_555
C1 H1 1_555 1_555
C2 C1 1_555 1_555
H2 C2 1_555 1_555
C3 C2 1_555 1_555
C4 C3 1_555 1_555
H3 C4 1_555 1_555
C5 C4 1_555 1_555
H4 C5 1_555 1_555
C6 C3 1_555 1_555
C7 C8 1_555 1_555
C8 C9 1_555 1_555
C9 H5 1_555 1_555
C10 C9 1_555 1_555
H6 C10 1_555 1_555
C11 H7 1_555 1_555
C12 C8 1_555 1_555
H8 C12 1_555 1_555
C13 H9 1_555 1_555
C14 C13 1_555 1_555
H10 C14 1_555 1_555
C15 C14 1_555 1_555
C16 C15 1_555 1_555
H11 C16 1_555 1_555
C17 C16 1_555 1_555
H12 C17 1_555 1_555
C18 C15 1_555 1_555
Cu1 N6 1_555 1_555
Cu2 N7 1_555 1_555
N1 C1 1_555 1_555
N2 C6 1_555 1_555
N3 C7 1_555 1_555
N4 C7 1_555 1_555
N5 C6 1_555 1_555
N6 C10 1_555 1_555
N7 C13 1_555 1_555
N8 C18 1_555 1_555
N9 C18 1_555 1_555
S1 Cu1 1_555 1_555
S2 Cu1 1_555 1_555
W1 S1 1_555 1_555
Br1A Cu1A 1_555 1_555
C1M H1M 1_555 1_555
C2M C1M 1_555 1_555
H2M C2M 1_555 1_555
C3M C2M 1_555 1_555
C4M C3M 1_555 1_555
H3M C4M 1_555 1_555
C5M C4M 1_555 1_555
H4M C5M 1_555 1_555
C6M C3M 1_555 1_555
C7M C8M 1_555 1_555
C8M C9M 1_555 1_555
C9M H5M 1_555 1_555
C10M C9M 1_555 1_555
H6M C10M 1_555 1_555
C11M H7M 1_555 1_555
C12M C8M 1_555 1_555
H8M C12M 1_555 1_555
C13B H9B 1_555 1_555
C14B C13B 1_555 1_555
H10B C14B 1_555 1_555
C15B C14B 1_555 1_555
C16B C15B 1_555 1_555
H11B C16B 1_555 1_555
C17B C16B 1_555 1_555
H12B C17B 1_555 1_555
C18B C15B 1_555 1_555
Cu1A N6A 1_555 1_555
Cu1M N6M 1_555 1_555
Cu2A S2 1_555 1_555
Cu2M N1 1_555 1_555
Cu2B N7B 1_555 1_555
N1M Cu2 1_555 1_555
N1L Cu2A 1_555 1_555
N2M C6M 1_555 1_555
N3M C7M 1_555 1_555
N4M C7M 1_555 1_555
N5M C6M 1_555 1_555
N6M C10M 1_555 1_555
N7B C13B 1_555 1_555
N7A Cu2A 1_555 1_555
N8B N8 1_555 1_555
N9B N9 1_555 1_555
S1A W1 1_555 1_555
S2A Cu2 1_555 1_555
C5 N1 1_555 1_555
C11 C12 1_555 1_555
C11 N6 1_555 1_555
C17 N7 1_555 1_555
Cu2 S1 1_555 1_555
N2 N3 1_555 1_555
N4 N5 1_555 1_555
S2 W1 1_555 1_555
W1 S2A 1_555 1_555
C1M N1M 1_555 1_555
C5M N1M 1_555 1_555
C11M C12M 1_555 1_555
C11M N6M 1_555 1_555
C17B N7B 1_555 1_555
C18B N8B 1_555 1_555
C18B N9B 1_555 1_555
Cu1A S1A 1_555 1_555
Cu1A S2A 1_555 1_555
Cu2A S1A 1_555 1_555
N2M N3M 1_555 1_555
N4M N5M 1_555 1_555

#END
