
#######################################################################
#
#                 Cambridge Crystallographic Data Centre
#                                CCDC 
#
#######################################################################
#
# If this CIF has been generated from an entry in the Cambridge 
# Structural Database, then it will include bibliographic, chemical, 
# crystal, experimental, refinement or atomic coordinate data resulting 
# from the CCDC's data processing and validation procedures.
#
#######################################################################

data_SATCEX
_chemical_formula_moiety         '(C36 H24 Cl2 Cu4 N18 S4 W1)n'
_symmetry_cell_setting           orthorhombic
_symmetry_space_group_name_H-M   'C c c a'
_symmetry_Int_Tables_number      68
_space_group_name_Hall           '-C 2a 2ac'
loop_
_symmetry_equiv_pos_site_id
_symmetry_equiv_pos_as_xyz
1 x,y,z
2 1/2-x,-y,z
3 -x,y,1/2-z
4 1/2+x,-y,1/2-z
5 1/2+x,1/2+y,z
6 -x,1/2-y,z
7 1/2-x,1/2+y,1/2-z
8 x,1/2-y,1/2-z
9 -x,-y,-z
10 1/2+x,y,-z
11 x,-y,1/2+z
12 1/2-x,y,1/2+z
13 1/2-x,1/2-y,-z
14 x,1/2+y,-z
15 1/2+x,1/2-y,1/2+z
16 -x,1/2+y,1/2+z
_cell_length_a                   25.115(3)
_cell_length_b                   32.162(3)
_cell_length_c                   13.8294(14)
_cell_angle_alpha                90
_cell_angle_beta                 90
_cell_angle_gamma                90
_cell_volume                     11170.7
loop_
_atom_site_label
_atom_site_type_symbol
_atom_site_fract_x
_atom_site_fract_y
_atom_site_fract_z
_atom_site_U_iso_or_equiv
_atom_site_thermal_displace_type
C1 C 0.3533(3) 0.3575(2) 0.2375(6) 0.0543 Uani
H1 H 0.3698 0.3565 0.1774 0.0650 Uiso
C2 C 0.3522(4) 0.3224(3) 0.2905(6) 0.0660 Uani
H2 H 0.3677 0.2980 0.2680 0.0800 Uiso
C3 C 0.3268(3) 0.3238(2) 0.3810(6) 0.0497 Uani
C4 C 0.3055(3) 0.3599(2) 0.4130(5) 0.0463 Uani
H3 H 0.2888 0.3615 0.4728 0.0560 Uiso
C5 C 0.3096(3) 0.3944(2) 0.3531(6) 0.0490 Uani
H4 H 0.2957 0.4195 0.3754 0.0590 Uiso
C6 C 0.3238(4) 0.2856(3) 0.4419(6) 0.0603 Uani
C7 C 0.3217(4) 0.2202(2) 0.5486(6) 0.0560 Uani
C8 C 0.3222(4) 0.1840(2) 0.6105(6) 0.0547 Uani
C9 C 0.3355(4) 0.1447(3) 0.5747(5) 0.0577 Uani
H5 H 0.3449 0.1415 0.5101 0.0690 Uiso
C10 C 0.3345(3) 0.1107(2) 0.6356(6) 0.0530 Uani
H6 H 0.3446 0.0849 0.6114 0.0630 Uiso
C11 C 0.3056(4) 0.1502(2) 0.7626(6) 0.0580 Uani
H7 H 0.2940 0.1524 0.8263 0.0700 Uiso
C12 C 0.3078(4) 0.1862(3) 0.7062(6) 0.0640 Uani
H8 H 0.2995 0.2118 0.7336 0.0770 Uiso
C13 C 0.4025(3) 0.6051(2) 0.0551(6) 0.0493 Uani
H9 H 0.3958 0.6294 0.0897 0.0590 Uiso
C14 C 0.4325(3) 0.6075(2) -0.0266(6) 0.0507 Uani
H10 H 0.4452 0.6331 -0.0475 0.0610 Uiso
C15 C 0.4441(3) 0.5724(2) -0.0784(5) 0.0413 Uani
C16 C 0.4241(4) 0.5360(3) -0.0447(7) 0.0723 Uani
H11 H 0.4308 0.5113 -0.0774 0.0870 Uiso
C17 C 0.3938(4) 0.5358(3) 0.0376(7) 0.0753 Uani
H12 H 0.3805 0.5105 0.0596 0.0910 Uiso
C18 C 0.4743(3) 0.5731(3) -0.1716(6) 0.0507 Uani
Cl1 Cl 0.40279(9) 0.42874(7) 0.07676(15) 0.0586 Uani
Cu1 Cu 0.33088(4) 0.44424(3) 0.17074(7) 0.0458 Uani
Cu2 Cu 0.31974(4) 0.56324(3) 0.18208(7) 0.0444 Uani
N1 N 0.3322(2) 0.39405(19) 0.2657(4) 0.0447 Uani
N2 N 0.3420(4) 0.2497(2) 0.4037(5) 0.0997 Uani
N3 N 0.3394(4) 0.2156(2) 0.4590(6) 0.0900 Uani
N4 N 0.3039(3) 0.2894(2) 0.5301(5) 0.0703 Uani
N5 N 0.3022(4) 0.2545(2) 0.5844(5) 0.0720 Uani
N6 N 0.3192(3) 0.11349(18) 0.7294(4) 0.0433 Uani
N7 N 0.3827(3) 0.5699(2) 0.0873(5) 0.0540 Uani
N8 N 0.4869(3) 0.5369(2) -0.2092(5) 0.0610 Uani
N9 N 0.4868(2) 0.6095(2) -0.2082(4) 0.0537 Uani
S1 S 0.32285(8) 0.50249(5) 0.26707(15) 0.0445 Uani
S2 S 0.25336(7) 0.44328(7) 0.08210(14) 0.0433 Uani
W1 W 0.2500 0.5000 0.17453(3) 0.0335 Uani
C1M C 0.3533(3) 0.8575(2) 0.7625(6) 0.0543 Uani
H1M H 0.3698 0.8565 0.8226 0.0650 Uiso
C2M C 0.3522(4) 0.8224(3) 0.7095(6) 0.0660 Uani
H2M H 0.3677 0.7980 0.7320 0.0800 Uiso
C3M C 0.3268(3) 0.8238(2) 0.6190(6) 0.0497 Uani
C4M C 0.3055(3) 0.8599(2) 0.5870(5) 0.0463 Uani
H3M H 0.2888 0.8615 0.5272 0.0560 Uiso
C5M C 0.3096(3) 0.8944(2) 0.6469(6) 0.0490 Uani
H4M H 0.2957 0.9195 0.6246 0.0590 Uiso
C6M C 0.3238(4) 0.7856(3) 0.5581(6) 0.0603 Uani
C7M C 0.3217(4) 0.7202(2) 0.4514(6) 0.0560 Uani
C8M C 0.3222(4) 0.6840(2) 0.3895(6) 0.0547 Uani
C9M C 0.3355(4) 0.6447(3) 0.4253(5) 0.0577 Uani
H5M H 0.3449 0.6415 0.4899 0.0690 Uiso
C10M C 0.3345(3) 0.6107(2) 0.3644(6) 0.0530 Uani
H6M H 0.3446 0.5849 0.3886 0.0630 Uiso
C11M C 0.3056(4) 0.6502(2) 0.2374(6) 0.0580 Uani
H7M H 0.2940 0.6524 0.1737 0.0700 Uiso
C12M C 0.3078(4) 0.6862(3) 0.2938(6) 0.0640 Uani
H8M H 0.2995 0.7118 0.2664 0.0770 Uiso
C13B C 0.5975(3) 0.6051(2) -0.5551(6) 0.0493 Uani
H9B H 0.6042 0.6294 -0.5897 0.0590 Uiso
C14B C 0.5675(3) 0.6075(2) -0.4734(6) 0.0507 Uani
H10B H 0.5548 0.6331 -0.4525 0.0610 Uiso
C15B C 0.5559(3) 0.5724(2) -0.4216(5) 0.0413 Uani
C16B C 0.5759(4) 0.5360(3) -0.4553(7) 0.0723 Uani
H11B H 0.5692 0.5113 -0.4226 0.0870 Uiso
C17B C 0.6062(4) 0.5358(3) -0.5376(7) 0.0753 Uani
H12B H 0.6195 0.5105 -0.5596 0.0910 Uiso
C18B C 0.5257(3) 0.5731(3) -0.3284(6) 0.0507 Uani
Cl1A Cl 0.09721(9) 0.57126(7) 0.07676(15) 0.0586 Uani
Cu1A Cu 0.16912(4) 0.55576(3) 0.17074(7) 0.0458 Uani
Cu1M Cu 0.33088(4) 0.94424(3) 0.82926(7) 0.0458 Uani
Cu2A Cu 0.18026(4) 0.43676(3) 0.18208(7) 0.0444 Uani
Cu2M Cu 0.31974(4) 0.06324(3) 0.81792(7) 0.0444 Uani
Cu2B Cu 0.68026(4) 0.56324(3) -0.68208(7) 0.0444 Uani
N1M N 0.3322(2) 0.89405(19) 0.7343(4) 0.0447 Uani
N1A N 0.1678(2) 0.60595(19) 0.2657(4) 0.0447 Uani
N2M N 0.3420(4) 0.7497(2) 0.5963(5) 0.0997 Uani
N3M N 0.3394(4) 0.7156(2) 0.5410(6) 0.0900 Uani
N4M N 0.3039(3) 0.7894(2) 0.4699(5) 0.0703 Uani
N5M N 0.3022(4) 0.7545(2) 0.4156(5) 0.0720 Uani
N6M N 0.3192(3) 0.61349(18) 0.2706(4) 0.0433 Uani
N6L N 0.1808(3) 0.38651(18) 0.2706(4) 0.0433 Uani
N7B N 0.6173(3) 0.5699(2) -0.5873(5) 0.0540 Uani
N7A N 0.1173(3) 0.4301(2) 0.0873(5) 0.0540 Uani
N8B N 0.5131(3) 0.5369(2) -0.2908(5) 0.0610 Uani
N9B N 0.5132(2) 0.6095(2) -0.2918(4) 0.0537 Uani
S1A S 0.17715(8) 0.49751(5) 0.26707(15) 0.0445 Uani
S2A S 0.24664(7) 0.55672(7) 0.08210(14) 0.0433 Uani
loop_
_atom_site_aniso_label
_atom_site_aniso_U_11
_atom_site_aniso_U_22
_atom_site_aniso_U_33
_atom_site_aniso_U_23
_atom_site_aniso_U_13
_atom_site_aniso_U_12
C1 0.083(6) 0.043(5) 0.037(5) 0.004(4) 0.013(4) 0.003(4)
C2 0.121(8) 0.037(5) 0.040(5) 0.004(4) 0.010(5) 0.014(5)
C3 0.077(6) 0.033(4) 0.039(5) 0.005(3) -0.006(4) 0.005(4)
C4 0.072(6) 0.045(5) 0.022(4) -0.002(3) -0.001(4) 0.011(4)
C5 0.066(5) 0.037(4) 0.044(5) 0.000(4) -0.006(4) 0.008(4)
C6 0.101(7) 0.038(5) 0.042(5) 0.003(4) 0.009(5) 0.004(5)
C7 0.096(7) 0.035(5) 0.037(5) 0.002(4) 0.012(5) 0.006(4)
C8 0.089(6) 0.037(5) 0.038(5) 0.001(4) 0.001(5) 0.004(4)
C9 0.091(7) 0.051(5) 0.031(4) 0.008(4) 0.016(4) 0.012(5)
C10 0.084(6) 0.035(4) 0.040(5) 0.003(4) 0.011(4) 0.001(4)
C11 0.107(7) 0.042(5) 0.025(4) 0.004(3) -0.005(4) -0.004(5)
C12 0.120(8) 0.038(5) 0.034(5) -0.002(4) 0.004(5) 0.009(5)
C13 0.058(5) 0.045(5) 0.045(5) -0.002(4) 0.019(4) -0.015(4)
C14 0.053(5) 0.049(5) 0.050(5) -0.005(4) 0.003(4) -0.013(4)
C15 0.044(4) 0.046(5) 0.034(4) 0.001(3) 0.006(3) -0.002(4)
C16 0.096(7) 0.055(6) 0.066(7) -0.010(5) 0.035(6) 0.003(5)
C17 0.102(7) 0.040(5) 0.084(7) -0.006(5) 0.066(6) -0.001(5)
C18 0.046(4) 0.059(6) 0.047(5) -0.001(4) 0.005(4) -0.012(4)
Cl1 0.0603(13) 0.0622(15) 0.0532(14) 0.0022(10) 0.0088(10) 0.0063(11)
Cu1 0.0577(6) 0.0395(5) 0.0402(6) 0.0044(4) -0.0001(5) 0.0029(4)
Cu2 0.0580(6) 0.0392(5) 0.0361(6) -0.0053(4) 0.0072(4) -0.0067(4)
N1 0.052(4) 0.047(4) 0.035(4) 0.004(3) 0.004(3) 0.002(3)
N2 0.221(11) 0.042(4) 0.036(5) 0.009(3) 0.033(6) 0.034(6)
N3 0.174(9) 0.045(4) 0.051(5) 0.012(4) 0.035(6) 0.020(5)
N4 0.127(7) 0.050(4) 0.034(4) 0.003(3) 0.021(4) 0.006(4)
N5 0.138(8) 0.044(4) 0.034(4) 0.008(3) 0.017(4) 0.014(5)
N6 0.068(4) 0.031(3) 0.031(4) 0.008(3) -0.004(3) 0.000(3)
N7 0.052(4) 0.063(5) 0.047(4) -0.005(3) 0.019(3) -0.010(4)
N8 0.077(5) 0.056(5) 0.050(5) -0.004(3) 0.025(4) -0.001(4)
N9 0.056(4) 0.059(4) 0.046(5) 0.000(3) 0.015(3) -0.003(3)
S1 0.0600(12) 0.0405(11) 0.0330(10) -0.0013(8) -0.0092(9) -0.0034(9)
S2 0.0580(12) 0.0390(11) 0.0330(11) -0.0068(8) -0.0014(9) 0.0007(9)
W1 0.0464(3) 0.0304(2) 0.0237(2) 0.000 0.000 -0.00222(17)
C1M 0.083 0.043 0.037 -0.004 -0.013 0.003
C2M 0.121 0.037 0.04 -0.004 -0.01 0.014
C3M 0.077 0.033 0.039 -0.005 0.006 0.005
C4M 0.072 0.045 0.022 0.002 0.001 0.011
C5M 0.066 0.037 0.044 0 0.006 0.008
C6M 0.101 0.038 0.042 -0.003 -0.009 0.004
C7M 0.096 0.035 0.037 -0.002 -0.012 0.006
C8M 0.089 0.037 0.038 -0.001 -0.001 0.004
C9M 0.091 0.051 0.031 -0.008 -0.016 0.012
C10M 0.084 0.035 0.04 -0.003 -0.011 0.001
C11M 0.107 0.042 0.025 -0.004 0.005 -0.004
C12M 0.12 0.038 0.034 0.002 -0.004 0.009
C13B 0.058 0.045 0.045 0.002 0.019 0.015
C14B 0.053 0.049 0.05 0.005 0.003 0.013
C15B 0.044 0.046 0.034 -0.001 0.006 0.002
C16B 0.096 0.055 0.066 0.01 0.035 -0.003
C17B 0.102 0.04 0.084 0.006 0.066 0.001
C18B 0.046 0.059 0.047 0.001 0.005 0.012
Cl1A 0.0603 0.0622 0.0532 -0.0022 -0.0088 0.0063
Cu1A 0.0577 0.0395 0.0402 -0.0044 0.0001 0.0029
Cu1M 0.0577 0.0395 0.0402 -0.0044 0.0001 0.0029
Cu2A 0.058 0.0392 0.0361 0.0053 -0.0072 -0.0067
Cu2M 0.058 0.0392 0.0361 0.0053 -0.0072 -0.0067
Cu2B 0.058 0.0392 0.0361 0.0053 0.0072 0.0067
N1M 0.052 0.047 0.035 -0.004 -0.004 0.002
N1A 0.052 0.047 0.035 -0.004 -0.004 0.002
N2M 0.221 0.042 0.036 -0.009 -0.033 0.034
N3M 0.174 0.045 0.051 -0.012 -0.035 0.02
N4M 0.127 0.05 0.034 -0.003 -0.021 0.006
N5M 0.138 0.044 0.034 -0.008 -0.017 0.014
N6M 0.068 0.031 0.031 -0.008 0.004 0
N6L 0.068 0.031 0.031 0.008 -0.004 0
N7B 0.052 0.063 0.047 0.005 0.019 0.01
N7A 0.052 0.063 0.047 0.005 -0.019 -0.01
N8B 0.077 0.056 0.05 0.004 0.025 0.001
N9B 0.056 0.059 0.046 0 0.015 0.003
S1A 0.06 0.0405 0.033 0.0013 0.0092 -0.0034
S2A 0.058 0.039 0.033 0.0068 0.0014 0.0007
loop_
_geom_bond_atom_site_label_1
_geom_bond_atom_site_label_2
_geom_bond_site_symmetry_1
_geom_bond_site_symmetry_2
C1 H1 1_555 1_555
C2 C1 1_555 1_555
H2 C2 1_555 1_555
C3 C2 1_555 1_555
C4 C3 1_555 1_555
H3 C4 1_555 1_555
C5 C4 1_555 1_555
H4 C5 1_555 1_555
C6 C3 1_555 1_555
C7 C8 1_555 1_555
C8 C9 1_555 1_555
C9 H5 1_555 1_555
C10 C9 1_555 1_555
H6 C10 1_555 1_555
C11 H7 1_555 1_555
C12 C8 1_555 1_555
H8 C12 1_555 1_555
C13 H9 1_555 1_555
C14 C13 1_555 1_555
H10 C14 1_555 1_555
C15 C14 1_555 1_555
C16 C15 1_555 1_555
H11 C16 1_555 1_555
C17 C16 1_555 1_555
H12 C17 1_555 1_555
C18 C15 1_555 1_555
Cl1 Cu1 1_555 1_555
Cu1 N1 1_555 1_555
Cu2 N7 1_555 1_555
N1 C1 1_555 1_555
N2 C6 1_555 1_555
N3 C7 1_555 1_555
N4 C6 1_555 1_555
N5 C7 1_555 1_555
N6 C10 1_555 1_555
N7 C13 1_555 1_555
N8 C18 1_555 1_555
N9 C18 1_555 1_555
S1 Cu1 1_555 1_555
S2 Cu1 1_555 1_555
W1 S1 1_555 1_555
C1M H1M 1_555 1_555
C2M C1M 1_555 1_555
H2M C2M 1_555 1_555
C3M C2M 1_555 1_555
C4M C3M 1_555 1_555
H3M C4M 1_555 1_555
C5M C4M 1_555 1_555
H4M C5M 1_555 1_555
C6M C3M 1_555 1_555
C7M C8M 1_555 1_555
C8M C9M 1_555 1_555
C9M H5M 1_555 1_555
C10M C9M 1_555 1_555
H6M C10M 1_555 1_555
C11M H7M 1_555 1_555
C12M C8M 1_555 1_555
H8M C12M 1_555 1_555
C13B H9B 1_555 1_555
C14B C13B 1_555 1_555
H10B C14B 1_555 1_555
C15B C14B 1_555 1_555
C16B C15B 1_555 1_555
H11B C16B 1_555 1_555
C17B C16B 1_555 1_555
H12B C17B 1_555 1_555
C18B C15B 1_555 1_555
Cl1A Cu1A 1_555 1_555
Cu1A N1A 1_555 1_555
Cu1M N1M 1_555 1_555
Cu2A S2 1_555 1_555
Cu2M N6 1_555 1_555
Cu2B N7B 1_555 1_555
N1M C1M 1_555 1_555
N2M C6M 1_555 1_555
N3M C7M 1_555 1_555
N4M C6M 1_555 1_555
N5M C7M 1_555 1_555
N6M Cu2 1_555 1_555
N6L Cu2A 1_555 1_555
N7B C13B 1_555 1_555
N7A Cu2A 1_555 1_555
N8B N8 1_555 1_555
N9B N9 1_555 1_555
S1A W1 1_555 1_555
S2A Cu2 1_555 1_555
C5 N1 1_555 1_555
C11 C12 1_555 1_555
C11 N6 1_555 1_555
C17 N7 1_555 1_555
Cu2 S1 1_555 1_555
N2 N3 1_555 1_555
N4 N5 1_555 1_555
S2 W1 1_555 1_555
W1 S2A 1_555 1_555
C5M N1M 1_555 1_555
C10M N6M 1_555 1_555
C11M C12M 1_555 1_555
C11M N6M 1_555 1_555
C17B N7B 1_555 1_555
C18B N8B 1_555 1_555
C18B N9B 1_555 1_555
Cu1A S1A 1_555 1_555
Cu1A S2A 1_555 1_555
Cu2A S1A 1_555 1_555
N2M N3M 1_555 1_555
N4M N5M 1_555 1_555

#END
