
#######################################################################
#
#                 Cambridge Crystallographic Data Centre
#                                CCDC 
#
#######################################################################
#
# If this CIF has been generated from an entry in the Cambridge 
# Structural Database, then it will include bibliographic, chemical, 
# crystal, experimental, refinement or atomic coordinate data resulting 
# from the CCDC's data processing and validation procedures.
#
#######################################################################

data_LURRIA
_chemical_formula_moiety         '(C54 H30 Cu3 O15)n'
_symmetry_cell_setting           cubic
_symmetry_space_group_name_H-M   'F m -3 m'
_symmetry_Int_Tables_number      225
_space_group_name_Hall           '-F 4 2 3'
loop_
_symmetry_equiv_pos_site_id
_symmetry_equiv_pos_as_xyz
1 x,y,z
2 -x,-y,z
3 -x,y,-z
4 x,-y,-z
5 z,x,y
6 z,-x,-y
7 -z,-x,y
8 -z,x,-y
9 y,z,x
10 -y,z,-x
11 y,-z,-x
12 -y,-z,x
13 y,x,-z
14 -y,-x,-z
15 y,-x,z
16 -y,x,z
17 x,z,-y
18 -x,z,y
19 -x,-z,-y
20 x,-z,y
21 z,y,-x
22 z,-y,x
23 -z,y,x
24 -z,-y,-x
25 x,1/2+y,1/2+z
26 -x,1/2-y,1/2+z
27 -x,1/2+y,1/2-z
28 x,1/2-y,1/2-z
29 z,1/2+x,1/2+y
30 z,1/2-x,1/2-y
31 -z,1/2-x,1/2+y
32 -z,1/2+x,1/2-y
33 y,1/2+z,1/2+x
34 -y,1/2+z,1/2-x
35 y,1/2-z,1/2-x
36 -y,1/2-z,1/2+x
37 y,1/2+x,1/2-z
38 -y,1/2-x,1/2-z
39 y,1/2-x,1/2+z
40 -y,1/2+x,1/2+z
41 x,1/2+z,1/2-y
42 -x,1/2+z,1/2+y
43 -x,1/2-z,1/2-y
44 x,1/2-z,1/2+y
45 z,1/2+y,1/2-x
46 z,1/2-y,1/2+x
47 -z,1/2+y,1/2+x
48 -z,1/2-y,1/2-x
49 1/2+x,y,1/2+z
50 1/2-x,-y,1/2+z
51 1/2-x,y,1/2-z
52 1/2+x,-y,1/2-z
53 1/2+z,x,1/2+y
54 1/2+z,-x,1/2-y
55 1/2-z,-x,1/2+y
56 1/2-z,x,1/2-y
57 1/2+y,z,1/2+x
58 1/2-y,z,1/2-x
59 1/2+y,-z,1/2-x
60 1/2-y,-z,1/2+x
61 1/2+y,x,1/2-z
62 1/2-y,-x,1/2-z
63 1/2+y,-x,1/2+z
64 1/2-y,x,1/2+z
65 1/2+x,z,1/2-y
66 1/2-x,z,1/2+y
67 1/2-x,-z,1/2-y
68 1/2+x,-z,1/2+y
69 1/2+z,y,1/2-x
70 1/2+z,-y,1/2+x
71 1/2-z,y,1/2+x
72 1/2-z,-y,1/2-x
73 1/2+x,1/2+y,z
74 1/2-x,1/2-y,z
75 1/2-x,1/2+y,-z
76 1/2+x,1/2-y,-z
77 1/2+z,1/2+x,y
78 1/2+z,1/2-x,-y
79 1/2-z,1/2-x,y
80 1/2-z,1/2+x,-y
81 1/2+y,1/2+z,x
82 1/2-y,1/2+z,-x
83 1/2+y,1/2-z,-x
84 1/2-y,1/2-z,x
85 1/2+y,1/2+x,-z
86 1/2-y,1/2-x,-z
87 1/2+y,1/2-x,z
88 1/2-y,1/2+x,z
89 1/2+x,1/2+z,-y
90 1/2-x,1/2+z,y
91 1/2-x,1/2-z,-y
92 1/2+x,1/2-z,y
93 1/2+z,1/2+y,-x
94 1/2+z,1/2-y,x
95 1/2-z,1/2+y,x
96 1/2-z,1/2-y,-x
97 -x,-y,-z
98 x,y,-z
99 x,-y,z
100 -x,y,z
101 -z,-x,-y
102 -z,x,y
103 z,x,-y
104 z,-x,y
105 -y,-z,-x
106 y,-z,x
107 -y,z,x
108 y,z,-x
109 -y,-x,z
110 y,x,z
111 -y,x,-z
112 y,-x,-z
113 -x,-z,y
114 x,-z,-y
115 x,z,y
116 -x,z,-y
117 -z,-y,x
118 -z,y,-x
119 z,-y,-x
120 z,y,x
121 -x,1/2-y,1/2-z
122 x,1/2+y,1/2-z
123 x,1/2-y,1/2+z
124 -x,1/2+y,1/2+z
125 -z,1/2-x,1/2-y
126 -z,1/2+x,1/2+y
127 z,1/2+x,1/2-y
128 z,1/2-x,1/2+y
129 -y,1/2-z,1/2-x
130 y,1/2-z,1/2+x
131 -y,1/2+z,1/2+x
132 y,1/2+z,1/2-x
133 -y,1/2-x,1/2+z
134 y,1/2+x,1/2+z
135 -y,1/2+x,1/2-z
136 y,1/2-x,1/2-z
137 -x,1/2-z,1/2+y
138 x,1/2-z,1/2-y
139 x,1/2+z,1/2+y
140 -x,1/2+z,1/2-y
141 -z,1/2-y,1/2+x
142 -z,1/2+y,1/2-x
143 z,1/2-y,1/2-x
144 z,1/2+y,1/2+x
145 1/2-x,-y,1/2-z
146 1/2+x,y,1/2-z
147 1/2+x,-y,1/2+z
148 1/2-x,y,1/2+z
149 1/2-z,-x,1/2-y
150 1/2-z,x,1/2+y
151 1/2+z,x,1/2-y
152 1/2+z,-x,1/2+y
153 1/2-y,-z,1/2-x
154 1/2+y,-z,1/2+x
155 1/2-y,z,1/2+x
156 1/2+y,z,1/2-x
157 1/2-y,-x,1/2+z
158 1/2+y,x,1/2+z
159 1/2-y,x,1/2-z
160 1/2+y,-x,1/2-z
161 1/2-x,-z,1/2+y
162 1/2+x,-z,1/2-y
163 1/2+x,z,1/2+y
164 1/2-x,z,1/2-y
165 1/2-z,-y,1/2+x
166 1/2-z,y,1/2-x
167 1/2+z,-y,1/2-x
168 1/2+z,y,1/2+x
169 1/2-x,1/2-y,-z
170 1/2+x,1/2+y,-z
171 1/2+x,1/2-y,z
172 1/2-x,1/2+y,z
173 1/2-z,1/2-x,-y
174 1/2-z,1/2+x,y
175 1/2+z,1/2+x,-y
176 1/2+z,1/2-x,y
177 1/2-y,1/2-z,-x
178 1/2+y,1/2-z,x
179 1/2-y,1/2+z,x
180 1/2+y,1/2+z,-x
181 1/2-y,1/2-x,z
182 1/2+y,1/2+x,z
183 1/2-y,1/2+x,-z
184 1/2+y,1/2-x,-z
185 1/2-x,1/2-z,y
186 1/2+x,1/2-z,-y
187 1/2+x,1/2+z,y
188 1/2-x,1/2+z,-y
189 1/2-z,1/2-y,x
190 1/2-z,1/2+y,-x
191 1/2+z,1/2-y,-x
192 1/2+z,1/2+y,x
_cell_length_a                   51.670(6)
_cell_length_b                   51.670(6)
_cell_length_c                   51.670(6)
_cell_angle_alpha                90
_cell_angle_beta                 90
_cell_angle_gamma                90
_cell_volume                     137948
loop_
_atom_site_label
_atom_site_type_symbol
_atom_site_fract_x
_atom_site_fract_y
_atom_site_fract_z
_atom_site_U_iso_or_equiv
_atom_site_thermal_displace_type
Cu1 Cu 0.10597(3) 0.0000 0.10597(3) 0.1510 Uani
Cu2 Cu 0.14133(4) 0.0000 0.14133(4) 0.1753 Uani
C1 C 0.1471(3) 0.0347(3) 0.0993(3) 0.1283 Uani
O1 O 0.1263(2) 0.02361(19) 0.09064(17) 0.1683 Uani
O2 O 0.15588(16) 0.02501(19) 0.1210(2) 0.1830 Uani
C2 C 0.1593(3) 0.0538(3) 0.0853(3) 0.1423 Uani
O3 O 0.07723(19) 0.0000 0.07723(19) 0.1773 Uani
C3 C 0.1484(4) 0.0664(2) 0.0664(2) 0.1627 Uani
H1 H 0.1317 0.0615 0.0615 0.1950 Uiso
O4 O 0.1696(2) 0.0000 0.1696(2) 0.2210 Uani
C4 C 0.3097(10) 0.1214(6) 0.1214(6) 0.2867 Uani
C5 C 0.3448(3) 0.1208(5) 0.1552(3) 0.2273 Uani
H2 H 0.3366 0.1069 0.1634 0.2730 Uiso
C6 C 0.3350(6) 0.1322(4) 0.1322(4) 0.2220 Uani
C7 C 0.3027(10) 0.1055(7) 0.1339(5) 0.3567 Uani
H3 H 0.3117 0.0977 0.1474 0.4270 Uiso
C8 C 0.1829(3) 0.0613(3) 0.0935(3) 0.2267 Uani
H4 H 0.1915 0.0525 0.1066 0.2710 Uiso
C9 C 0.1932(5) 0.0818(3) 0.0818(3) 0.2020 Uani
C10 C 0.2207(11) 0.0896(9) 0.0896(9) 0.7400 Uani
C11 C 0.2756(12) 0.0988(10) 0.1246(15) 0.4867 Uani
H5 H 0.2656 0.0887 0.1357 0.5860 Uiso
C12 C 0.2384(15) 0.0968(8) 0.0968(8) 0.3300 Uani
C13 C 0.2656(17) 0.1049(10) 0.1049(10) 0.4933 Uani
Cu1D Cu 0.10597(3) 0.10597(3) 0.0000 0.1510 Uani
Cu1EC Cu 0.5000 0.39403(3) 0.10597(3) 0.1510 Uani
Cu1ZB Cu 0.39403(3) 0.39403(3) 0.0000 0.1510 Uani
Cu1EB Cu 0.5000 0.10597(3) 0.39403(3) 0.1510 Uani
Cu1XA Cu 0.39403(3) -0.0000 0.39403(3) 0.1510 Uani
Cu2D Cu 0.14133(4) 0.14133(4) 0.0000 0.1753 Uani
Cu2EC Cu 0.5000 0.35867(4) 0.14133(4) 0.1753 Uani
Cu2ZB Cu 0.35867(4) 0.35867(4) 0.0000 0.1753 Uani
Cu2EB Cu 0.5000 0.14133(4) 0.35867(4) 0.1753 Uani
Cu2XA Cu 0.35867(4) 0.0000 0.35867(4) 0.1753 Uani
C1JD C 0.1471(3) 0.0993(3) 0.0347(3) 0.1283 Uani
C1XF C 0.4653(3) 0.3529(3) 0.0993(3) 0.1283 Uani
C1ZB C 0.4007(3) 0.3529(3) 0.0347(3) 0.1283 Uani
C1EB C 0.4653(3) 0.0993(3) 0.3529(3) 0.1283 Uani
C1IF C 0.4007(3) 0.0347(3) 0.3529(3) 0.1283 Uani
O1U O 0.09064(17) -0.02361(19) 0.1263(2) 0.1683 Uani
O1TC O 0.1263(2) -0.02361(19) 0.09064(17) 0.1683 Uani
O1OD O 0.09064(17) 0.02361(19) 0.1263(2) 0.1683 Uani
O1JD O 0.1263(2) 0.09064(17) 0.02361(19) 0.1683 Uani
O1D O 0.09064(17) 0.1263(2) 0.02361(19) 0.1683 Uani
O1P O 0.1263(2) 0.09064(17) -0.02361(19) 0.1683 Uani
O1XC O 0.09064(17) 0.1263(2) -0.02361(19) 0.1683 Uani
O1XF O 0.47639(19) 0.3737(2) 0.09064(17) 0.1683 Uani
O1ZB O 0.40936(17) 0.3737(2) 0.02361(19) 0.1683 Uani
O1EB O 0.47639(19) 0.09064(17) 0.3737(2) 0.1683 Uani
O1IF O 0.40936(17) 0.02361(19) 0.3737(2) 0.1683 Uani
O2U O 0.1210(2) -0.02501(19) 0.15588(16) 0.1830 Uani
O2TC O 0.15588(16) -0.02501(19) 0.1210(2) 0.1830 Uani
O2OD O 0.1210(2) 0.02501(19) 0.15588(16) 0.1830 Uani
O2JD O 0.15588(16) 0.1210(2) 0.02501(19) 0.1830 Uani
O2XF O 0.47499(19) 0.34412(16) 0.1210(2) 0.1830 Uani
O2ZB O 0.3790(2) 0.34412(16) 0.02501(19) 0.1830 Uani
O2EB O 0.47499(19) 0.1210(2) 0.34412(16) 0.1830 Uani
O2IF O 0.3790(2) 0.02501(19) 0.34412(16) 0.1830 Uani
C2JD C 0.1593(3) 0.0853(3) 0.0538(3) 0.1423 Uani
C2XF C 0.4462(3) 0.3407(3) 0.0853(3) 0.1423 Uani
C2ZB C 0.4147(3) 0.3407(3) 0.0538(3) 0.1423 Uani
C2EB C 0.4462(3) 0.0853(3) 0.3407(3) 0.1423 Uani
C2IF C 0.4147(3) 0.0538(3) 0.3407(3) 0.1423 Uani
O3D O 0.07723(19) 0.07723(19) 0.0000 0.1773 Uani
C3ZB C 0.4336(2) 0.3516(4) 0.0664(2) 0.1627 Uani
C3EB C 0.4336(2) 0.0664(2) 0.3516(4) 0.1627 Uani
H1ZB H 0.4385 0.3683 0.0615 0.1950 Uiso
H1EB H 0.4385 0.0615 0.3683 0.1950 Uiso
C4EB C 0.3786(6) 0.1214(6) 0.1903(10) 0.2867 Uani
C4ZB C 0.3786(6) 0.1903(10) 0.1214(6) 0.2867 Uani
C5ZB C 0.3448(3) 0.1552(3) 0.1208(5) 0.2273 Uani
C5EB C 0.3792(5) 0.1552(3) 0.1552(3) 0.2273 Uani
H2ZB H 0.3366 0.1634 0.1069 0.2730 Uiso
H2EB H 0.3931 0.1634 0.1634 0.2730 Uiso
C6EB C 0.3678(4) 0.1322(4) 0.1650(6) 0.2220 Uani
C6ZB C 0.3678(4) 0.1650(6) 0.1322(4) 0.2220 Uani
C7JD C 0.3027(10) 0.1339(5) 0.1055(7) 0.3567 Uani
C7EB C 0.3945(7) 0.1339(5) 0.1973(10) 0.3567 Uani
C7IF C 0.3661(5) 0.1055(7) 0.1973(10) 0.3567 Uani
C7ZB C 0.3661(5) 0.1973(10) 0.1055(7) 0.3567 Uani
C7XF C 0.3945(7) 0.1973(10) 0.1339(5) 0.3567 Uani
H3JD H 0.3117 0.1474 0.0977 0.4270 Uiso
H3EB H 0.4023 0.1474 0.1883 0.4270 Uiso
H3IF H 0.3526 0.0977 0.1883 0.4270 Uiso
H3XF H 0.4023 0.1883 0.1474 0.4270 Uiso
H3ZB H 0.3526 0.1883 0.0977 0.4270 Uiso
C8JD C 0.1829(3) 0.0935(3) 0.0613(3) 0.2267 Uani
C8ZB C 0.4065(3) 0.3171(3) 0.0613(3) 0.2267 Uani
C8XF C 0.4387(3) 0.3171(3) 0.0935(3) 0.2267 Uani
C8EB C 0.4387(3) 0.0935(3) 0.3171(3) 0.2267 Uani
C8IF C 0.4065(3) 0.0613(3) 0.3171(3) 0.2267 Uani
H4JD H 0.1915 0.1066 0.0525 0.2710 Uiso
H4XF H 0.4475 0.3085 0.1066 0.2710 Uiso
H4ZB H 0.3934 0.3085 0.0525 0.2710 Uiso
H4EB H 0.4475 0.1066 0.3085 0.2710 Uiso
H4IF H 0.3934 0.0525 0.3085 0.2710 Uiso
C9EB C 0.4182(3) 0.0818(3) 0.3068(5) 0.2020 Uani
C9ZB C 0.4182(3) 0.3068(5) 0.0818(3) 0.2020 Uani
C10EB C 0.4104(9) 0.0896(9) 0.2793(11) 0.7400 Uani
C10ZB C 0.4104(9) 0.2793(11) 0.0896(9) 0.7400 Uani
C11JD C 0.2756(12) 0.1246(15) 0.0988(10) 0.4867 Uani
C11EB C 0.4012(10) 0.1246(15) 0.2244(12) 0.4867 Uani
C11IF C 0.3754(15) 0.0988(10) 0.2244(12) 0.4867 Uani
C11XF C 0.4012(10) 0.2244(12) 0.1246(15) 0.4867 Uani
C11ZB C 0.3754(15) 0.2244(12) 0.0988(10) 0.4867 Uani
H5JD H 0.2656 0.1357 0.0887 0.5860 Uiso
H5EB H 0.4113 0.1357 0.2344 0.5860 Uiso
H5IF H 0.3643 0.0887 0.2344 0.5860 Uiso
H5XF H 0.4113 0.2344 0.1357 0.5860 Uiso
H5ZB H 0.3643 0.2344 0.0887 0.5860 Uiso
C12EB C 0.4032(8) 0.0968(8) 0.2616(15) 0.3300 Uani
C12ZB C 0.4032(8) 0.2616(15) 0.0968(8) 0.3300 Uani
C13EB C 0.3951(10) 0.1049(10) 0.2344(17) 0.4933 Uani
C13ZB C 0.3951(10) 0.2344(17) 0.1049(10) 0.4933 Uani
loop_
_atom_site_aniso_label
_atom_site_aniso_U_11
_atom_site_aniso_U_22
_atom_site_aniso_U_33
_atom_site_aniso_U_23
_atom_site_aniso_U_13
_atom_site_aniso_U_12
Cu1 0.153(2) 0.147(3) 0.153(2) 0.000 -0.050(2) 0.000
Cu2 0.165(2) 0.196(4) 0.165(2) 0.000 -0.062(2) 0.000
C1 0.165(14) 0.106(10) 0.114(12) 0.033(9) 0.027(12) -0.005(11)
O1 0.160(7) 0.145(7) 0.200(8) -0.004(6) -0.042(7) -0.002(6)
O2 0.187(8) 0.179(8) 0.183(8) 0.021(8) 0.001(7) -0.004(6)
C2 0.162(14) 0.116(12) 0.149(12) 0.036(12) 0.034(12) -0.023(10)
O3 0.156(7) 0.220(15) 0.156(7) 0.000 0.001(9) 0.000
C3 0.21(2) 0.139(10) 0.139(10) 0.067(15) -0.006(9) -0.006(9)
O4 0.210(10) 0.243(18) 0.210(10) 0.000 -0.033(13) 0.000
C4 0.40(8) 0.23(2) 0.23(2) 0.10(3) -0.01(3) -0.01(3)
C5 0.231(15) 0.22(3) 0.231(15) 0.039(14) 0.01(2) -0.039(14)
C6 0.22(3) 0.223(18) 0.223(18) 0.06(2) -0.063(16) -0.063(16)
C7 0.43(4) 0.32(3) 0.32(3) 0.18(3) -0.09(3) -0.01(3)
C8 0.214(16) 0.186(15) 0.28(2) 0.055(13) -0.061(15) -0.056(15)
C9 0.19(2) 0.208(13) 0.208(13) 0.025(19) -0.030(13) -0.030(13)
C10 0.48(14) 0.87(17) 0.87(17) 0.34(16) 0.04(10) 0.04(10)
C11 0.40(5) 0.49(7) 0.57(9) -0.02(6) 0.16(5) -0.19(5)
C12 0.33(7) 0.33(3) 0.33(3) 0.06(3) 0.10(3) 0.10(3)
C13 0.6(3) 0.44(10) 0.44(10) 0.31(11) 0.21(15) 0.21(15)
Cu1D 0.153 0.153 0.147 0 0 -0.05
Cu1EC 0.147 0.153 0.153 0.05 0 0
Cu1ZB 0.153 0.153 0.147 0 0 -0.05
Cu1EB 0.147 0.153 0.153 0.05 0 0
Cu1XA 0.153 0.147 0.153 0 -0.05 0
Cu2D 0.165 0.165 0.196 0 0 -0.062
Cu2EC 0.196 0.165 0.165 0.062 0 0
Cu2ZB 0.165 0.165 0.196 0 0 -0.062
Cu2EB 0.196 0.165 0.165 0.062 0 0
Cu2XA 0.165 0.196 0.165 0 -0.062 0
C1JD 0.165 0.114 0.106 0.033 -0.005 0.027
C1XF 0.106 0.165 0.114 -0.027 -0.033 -0.005
C1ZB 0.114 0.165 0.106 0.005 -0.033 0.027
C1EB 0.106 0.114 0.165 -0.027 -0.005 -0.033
C1IF 0.114 0.106 0.165 0.005 0.027 -0.033
O1U 0.2 0.145 0.16 0.002 -0.042 0.004
O1TC 0.16 0.145 0.2 0.004 -0.042 0.002
O1OD 0.2 0.145 0.16 -0.002 -0.042 -0.004
O1JD 0.16 0.2 0.145 -0.004 -0.002 -0.042
O1D 0.2 0.16 0.145 -0.002 -0.004 -0.042
O1P 0.16 0.2 0.145 0.004 0.002 -0.042
O1XC 0.2 0.16 0.145 0.002 0.004 -0.042
O1XF 0.145 0.16 0.2 0.042 0.004 -0.002
O1ZB 0.2 0.16 0.145 0.002 0.004 -0.042
O1EB 0.145 0.2 0.16 0.042 -0.002 0.004
O1IF 0.2 0.145 0.16 0.002 -0.042 0.004
O2U 0.183 0.179 0.187 0.004 0.001 -0.021
O2TC 0.187 0.179 0.183 -0.021 0.001 0.004
O2OD 0.183 0.179 0.187 -0.004 0.001 0.021
O2JD 0.187 0.183 0.179 0.021 -0.004 0.001
O2XF 0.179 0.187 0.183 -0.001 -0.021 -0.004
O2ZB 0.183 0.187 0.179 0.004 -0.021 0.001
O2EB 0.179 0.183 0.187 -0.001 -0.004 -0.021
O2IF 0.183 0.179 0.187 0.004 0.001 -0.021
C2JD 0.162 0.149 0.116 0.036 -0.023 0.034
C2XF 0.116 0.162 0.149 -0.034 -0.036 -0.023
C2ZB 0.149 0.162 0.116 0.023 -0.036 0.034
C2EB 0.116 0.149 0.162 -0.034 -0.023 -0.036
C2IF 0.149 0.116 0.162 0.023 0.034 -0.036
O3D 0.156 0.156 0.22 0 0 0.001
C3ZB 0.139 0.21 0.139 0.006 -0.067 -0.006
C3EB 0.139 0.139 0.21 0.006 -0.006 -0.067
C4EB 0.23 0.23 0.4 0.01 -0.01 -0.1
C4ZB 0.23 0.4 0.23 0.01 -0.1 -0.01
C5ZB 0.231 0.231 0.22 0.039 -0.039 0.01
C5EB 0.22 0.231 0.231 -0.01 -0.039 -0.039
C6EB 0.223 0.223 0.22 0.063 -0.063 -0.06
C6ZB 0.223 0.22 0.223 0.063 -0.06 -0.063
C7JD 0.43 0.32 0.32 0.18 -0.01 -0.09
C7EB 0.32 0.32 0.43 0.09 -0.01 -0.18
C7IF 0.32 0.32 0.43 0.01 -0.09 -0.18
C7ZB 0.32 0.43 0.32 0.01 -0.18 -0.09
C7XF 0.32 0.43 0.32 0.09 -0.18 -0.01
C8JD 0.214 0.28 0.186 0.055 -0.056 -0.061
C8ZB 0.28 0.214 0.186 0.056 -0.055 -0.061
C8XF 0.186 0.214 0.28 0.061 -0.055 -0.056
C8EB 0.186 0.28 0.214 0.061 -0.056 -0.055
C8IF 0.28 0.186 0.214 0.056 -0.061 -0.055
C9EB 0.208 0.208 0.19 0.03 -0.03 -0.025
C9ZB 0.208 0.19 0.208 0.03 -0.025 -0.03
C10EB 0.87 0.87 0.48 -0.04 0.04 -0.34
C10ZB 0.87 0.48 0.87 -0.04 -0.34 0.04
C11JD 0.4 0.57 0.49 -0.02 -0.19 0.16
C11EB 0.49 0.57 0.4 -0.16 -0.19 0.02
C11IF 0.57 0.49 0.4 0.19 0.16 0.02
C11XF 0.49 0.4 0.57 -0.16 0.02 -0.19
C11ZB 0.57 0.4 0.49 0.19 0.02 0.16
C12EB 0.33 0.33 0.33 -0.1 0.1 -0.06
C12ZB 0.33 0.33 0.33 -0.1 -0.06 0.1
C13EB 0.44 0.44 0.6 -0.21 0.21 -0.31
C13ZB 0.44 0.6 0.44 -0.21 -0.31 0.21
loop_
_geom_bond_atom_site_label_1
_geom_bond_atom_site_label_2
_geom_bond_site_symmetry_1
_geom_bond_site_symmetry_2
Cu1 O1 1_555 1_555
Cu2 O2 1_555 1_555
C1 O1 1_555 1_555
O2 C1 1_555 1_555
C2 C1 1_555 1_555
O3 Cu1 1_555 1_555
C3 C2 1_555 1_555
H1 C3 1_555 1_555
O4 Cu2 1_555 1_555
C4 C6 1_555 1_555
C5 H2 1_555 1_555
C6 C5 1_555 1_555
C7 C4 1_555 1_555
H3 C7 1_555 1_555
C8 C2 1_555 1_555
H4 C8 1_555 1_555
C9 C8 1_555 1_555
C10 C9 1_555 1_555
C11 C7 1_555 1_555
H5 C11 1_555 1_555
C12 C10 1_555 1_555
C13 C11 1_555 1_555
Cu1D O1JD 1_555 1_555
Cu1EC O1XF 1_555 1_555
Cu1ZB O1ZB 1_555 1_555
Cu1EB O1EB 1_555 1_555
Cu1XA O1IF 1_555 1_555
Cu2D O2JD 1_555 1_555
Cu2EC O2XF 1_555 1_555
Cu2ZB O2ZB 1_555 1_555
Cu2EB O2EB 1_555 1_555
Cu2XA O2IF 1_555 1_555
C1JD O1JD 1_555 1_555
C1XF O1XF 1_555 1_555
C1ZB O1ZB 1_555 1_555
C1EB O1EB 1_555 1_555
C1IF O1IF 1_555 1_555
O1U Cu1 1_555 1_555
O1TC Cu1 1_555 1_555
O1OD Cu1 1_555 1_555
O1D Cu1D 1_555 1_555
O1P Cu1D 1_555 1_555
O1XC Cu1D 1_555 1_555
O2U Cu2 1_555 1_555
O2TC Cu2 1_555 1_555
O2OD Cu2 1_555 1_555
O2JD C1JD 1_555 1_555
O2XF C1XF 1_555 1_555
O2ZB C1ZB 1_555 1_555
O2EB C1EB 1_555 1_555
O2IF C1IF 1_555 1_555
C2JD C3 1_555 1_555
C2XF C1XF 1_555 1_555
C2ZB C1ZB 1_555 1_555
C2EB C1EB 1_555 1_555
C2IF C1IF 1_555 1_555
O3D Cu1D 1_555 1_555
C3ZB C2XF 1_555 1_555
C3EB C2EB 1_555 1_555
H1ZB C3ZB 1_555 1_555
H1EB C3EB 1_555 1_555
C4EB C6EB 1_555 1_555
C4ZB C6ZB 1_555 1_555
C5ZB C6 1_555 1_555
C5EB H2EB 1_555 1_555
H2ZB C5ZB 1_555 1_555
C6EB C5 1_555 1_555
C6ZB C5ZB 1_555 1_555
C7JD C4 1_555 1_555
C7EB C4EB 1_555 1_555
C7IF C4EB 1_555 1_555
C7ZB C4ZB 1_555 1_555
C7XF C4ZB 1_555 1_555
H3JD C7JD 1_555 1_555
H3EB C7EB 1_555 1_555
H3IF C7IF 1_555 1_555
H3XF C7XF 1_555 1_555
H3ZB C7ZB 1_555 1_555
C8JD C9 1_555 1_555
C8ZB C2ZB 1_555 1_555
C8XF C2XF 1_555 1_555
C8EB C2EB 1_555 1_555
C8IF C2IF 1_555 1_555
H4JD C8JD 1_555 1_555
H4XF C8XF 1_555 1_555
H4ZB C8ZB 1_555 1_555
H4EB C8EB 1_555 1_555
H4IF C8IF 1_555 1_555
C9EB C8EB 1_555 1_555
C9ZB C8ZB 1_555 1_555
C10EB C9EB 1_555 1_555
C10ZB C9ZB 1_555 1_555
C11JD C13 1_555 1_555
C11EB C7EB 1_555 1_555
C11IF C7IF 1_555 1_555
C11XF C7XF 1_555 1_555
C11ZB C7ZB 1_555 1_555
H5JD C11JD 1_555 1_555
H5EB C11EB 1_555 1_555
H5IF C11IF 1_555 1_555
H5XF C11XF 1_555 1_555
H5ZB C11ZB 1_555 1_555
C12EB C10EB 1_555 1_555
C12ZB C10ZB 1_555 1_555
C13EB C11EB 1_555 1_555
C13ZB C11XF 1_555 1_555
C12 C13 1_555 1_555
C1JD C2JD 1_555 1_555
C2JD C8JD 1_555 1_555
C2ZB C3ZB 1_555 1_555
C2IF C3EB 1_555 1_555
C5EB C6EB 1_555 1_555
C5EB C6ZB 1_555 1_555
C7JD C11JD 1_555 1_555
C8XF C9ZB 1_555 1_555
C8IF C9EB 1_555 1_555
C11IF C13EB 1_555 1_555
C11ZB C13ZB 1_555 1_555
C12EB C13EB 1_555 1_555
C12ZB C13ZB 1_555 1_555

#END
