
#######################################################################
#
#                 Cambridge Crystallographic Data Centre
#                                CCDC 
#
#######################################################################
#
# If this CIF has been generated from an entry in the Cambridge 
# Structural Database, then it will include bibliographic, chemical, 
# crystal, experimental, refinement or atomic coordinate data resulting 
# from the CCDC's data processing and validation procedures.
#
#######################################################################

data_BUKJAU
_chemical_formula_moiety         'C28 H24 Cu6 N20'
_symmetry_cell_setting           monoclinic
_symmetry_space_group_name_H-M   'P 2/m'
_symmetry_Int_Tables_number      10
_space_group_name_Hall           '-P 2y'
loop_
_symmetry_equiv_pos_site_id
_symmetry_equiv_pos_as_xyz
1 x,y,z
2 -x,y,-z
3 -x,-y,-z
4 x,-y,z
_cell_length_a                   11.0071(4)
_cell_length_b                   7.6667(2)
_cell_length_c                   14.9346(4)
_cell_angle_alpha                90
_cell_angle_beta                 103.846(3)
_cell_angle_gamma                90
_cell_volume                     1223.68
loop_
_atom_site_label
_atom_site_type_symbol
_atom_site_fract_x
_atom_site_fract_y
_atom_site_fract_z
N1 N 0.9686(6) 0.044(2) 0.8213(3)
H1 H 0.9633 -0.0470 0.7866
H2 H 0.9650 0.1462 0.7975
C1 C 1.1009(3) 0.0298(9) 0.9691(2)
H3 H 1.1696 0.0544 0.9452
C2 C 0.9820(3) 0.0254(18) 0.9091(2)
C3 C 0.5121(5) -0.1346(5) 0.9471(3)
C4 C 0.5743(4) 0.1378(5) 0.9976(3)
C5 C 0.65037(19) -0.3448(2) 0.74343(12)
C6 C 0.6205(3) -0.5000 0.69463(17)
C7 C 0.5594(3) -0.5000 0.59581(17)
C8 C 0.5282(2) -0.3445(2) 0.54640(12)
H4 H 0.5462 -0.2386 0.5771
N2 N 0.67337(18) -0.2153(2) 0.78216(11)
N3 N 0.5846(2) -0.0000 0.94388(16)
N4 N 0.8808(2) 0.0000 0.94117(15)
Cu1 Cu 0.70408(3) 0.0000 0.85284(2)
N5 N 0.6463(9) 0.2710(11) 0.9990(7)
H5 H 0.7177 0.2598 0.9813
H6 H 0.6360 0.3661 1.0305
N1A N 1.0314(6) 0.044(2) 1.1787(3)
H1A H 1.0367 -0.0470 1.2134
H2A H 1.0350 0.1462 1.2025
C1A C 0.8991(3) 0.0298(9) 1.0309(2)
H3A H 0.8304 0.0544 1.0548
C2A C 1.0180(3) 0.0254(18) 1.0909(2)
N4A N 1.1192(2) -0.0000 1.05883(15)
N1B N 1.0314(6) -0.044(2) 1.1787(3)
H1B H 1.0367 0.0470 1.2134
H2B H 1.0350 -0.1462 1.2025
C1B C 0.8991(3) -0.0298(9) 1.0309(2)
H3B H 0.8304 -0.0544 1.0548
C2B C 1.0180(3) -0.0254(18) 1.0909(2)
N1C N 0.9686(6) -0.044(2) 0.8213(3)
H1C H 0.9633 0.0470 0.7866
H2C H 0.9650 -0.1462 0.7975
C1C C 1.1009(3) -0.0298(9) 0.9691(2)
H3C H 1.1696 -0.0544 0.9452
C2C C 0.9820(3) -0.0254(18) 0.9091(2)
C3A C 0.4879(5) -0.1346(5) 1.0529(3)
C4A C 0.4257(4) 0.1378(5) 1.0024(3)
N3A N 0.4154(2) 0.0000 1.05612(16)
N5A N 0.3537(9) 0.2710(11) 1.0010(7)
H5A H 0.2823 0.2598 1.0187
H6A H 0.3640 0.3661 0.9695
C3B C 0.4879(5) 0.1346(5) 1.0529(3)
C4B C 0.4257(4) -0.1378(5) 1.0024(3)
N5B N 0.3537(9) -0.2710(11) 1.0010(7)
H5B H 0.2823 -0.2598 1.0187
H6B H 0.3640 -0.3661 0.9695
C3C C 0.5121(5) 0.1346(5) 0.9471(3)
C4C C 0.5743(4) -0.1378(5) 0.9976(3)
N5C N 0.6463(9) -0.2710(11) 0.9990(7)
H5C H 0.7177 -0.2598 0.9813
H6C H 0.6360 -0.3661 1.0305
C5A C 0.34963(19) -0.3448(2) 0.25657(12)
C6A C 0.3795(3) -0.5000 0.30537(17)
C7A C 0.4406(3) -0.5000 0.40419(17)
C8A C 0.4718(2) -0.3445(2) 0.45360(12)
H4A H 0.4538 -0.2386 0.4229
N2A N 0.32663(18) -0.2153(2) 0.21784(11)
C5B C 0.34963(19) -0.6552(2) 0.25657(12)
C8B C 0.4718(2) -0.6555(2) 0.45360(12)
H4B H 0.4538 -0.7614 0.4229
N2B N 0.32663(18) -0.7847(2) 0.21784(11)
C5C C 0.65037(19) -0.6552(2) 0.74343(12)
C8C C 0.5282(2) -0.6555(2) 0.54640(12)
H4C H 0.5462 -0.7614 0.5771
N2C N 0.67337(18) -0.7847(2) 0.78216(11)
Cu1A Cu 0.29592(3) 0.0000 0.14716(2)
N2B_2 N 0.32663(18) 0.2153(2) 0.21784(11)
N2C_2 N 0.67337(18) 0.2153(2) 0.78216(11)
N3A_2 N 0.4154(2) 0.0000 0.05612(16)
N4A_2 N 0.1192(2) -0.0000 0.05883(15)
Cu1_2 Cu 0.70408(3) -1.0000 0.85284(2)
Cu1A_2 Cu 0.29592(3) -1.0000 0.14716(2)
Cu1A_3 Cu 0.29592(3) 0.0000 1.14716(2)
Cu1A_4 Cu 1.29592(3) 0.0000 1.14716(2)
loop_
_geom_bond_atom_site_label_1
_geom_bond_atom_site_label_2
_geom_bond_site_symmetry_1
_geom_bond_site_symmetry_2
N1 H1 1_555 1_555
H2 N1 1_555 1_555
C1 H3 1_555 1_555
H3 C1C 1_555 1_555
C2 N1 1_555 1_555
C3 N3 1_555 1_555
C4 N3 1_555 1_555
C5 C6 1_555 1_555
C6 C7 1_555 1_555
C7 C8 1_555 1_555
C8 H4 1_555 1_555
N2 C5 1_555 1_555
N3 Cu1 1_555 1_555
N4 C2 1_555 1_555
Cu1 N2 1_555 1_555
N5 C4 1_555 1_555
H5 N5 1_555 1_555
H6 N5 1_555 1_555
N1A H1A 1_555 1_555
H2A N1A 1_555 1_555
C1A N4 1_555 1_555
H3A C1A 1_555 1_555
C2A N1A 1_555 1_555
N4A C1 1_555 1_555
N1B N1A 1_555 1_555
H1B N1B 1_555 1_555
H2B N1B 1_555 1_555
C1B N4 1_555 1_555
H3B C1A 1_555 1_555
C2B N1A 1_555 1_555
N1C N1 1_555 1_555
H1C N1C 1_555 1_555
H2C N1C 1_555 1_555
C1C C2 1_555 1_555
H3C C1 1_555 1_555
C2C N1 1_555 1_555
C3A N3A 1_555 1_555
C4A N3A 1_555 1_555
N3A C3B 1_555 1_555
N5A C4A 1_555 1_555
H5A N5A 1_555 1_555
H6A N5A 1_555 1_555
C3B C4 1_555 1_555
C4B C3 1_555 1_555
N5B C4B 1_555 1_555
H5B N5B 1_555 1_555
H6B N5B 1_555 1_555
C3C C4 1_555 1_555
C4C C3 1_555 1_555
N5C C4C 1_555 1_555
H5C N5C 1_555 1_555
H6C N5C 1_555 1_555
C5A C6A 1_555 1_555
C6A C7A 1_555 1_555
C7A C8A 1_555 1_555
C8A C8 1_555 1_555
H4A C8A 1_555 1_555
N2A C5A 1_555 1_555
C5B C6A 1_555 1_555
C8B C7A 1_555 1_555
H4B C8B 1_555 1_555
N2B C5B 1_555 1_555
C5C C6 1_555 1_555
C8C C7 1_555 1_555
H4C C8C 1_555 1_555
N2C C5C 1_555 1_555
Cu1A N2A 1_555 1_555
N2B_2 Cu1A 1_555 1_555
N2C_2 Cu1 1_555 1_555
N3A_2 Cu1A 1_555 1_555
N4A_2 Cu1A 1_555 1_555
Cu1_2 N2C 1_555 1_555
Cu1A_2 N2B 1_555 1_555
Cu1A_3 N3A 1_555 1_555
Cu1A_4 N4A 1_555 1_555
C1 C2 1_555 1_555
C1 C2C 1_555 1_555
C2 N1C 1_555 1_555
N3 C3C 1_555 1_555
N3 C4C 1_555 1_555
N4 Cu1 1_555 1_555
N4 C2C 1_555 1_555
C1A C2A 1_555 1_555
C1A C2B 1_555 1_555
H3A C1B 1_555 1_555
C2A N4A 1_555 1_555
C2A N1B 1_555 1_555
C2A C1B 1_555 1_555
N4A C2B 1_555 1_555
N4A C1C 1_555 1_555
N1B C2B 1_555 1_555
C1B H3B 1_555 1_555
C1B C2B 1_555 1_555
N1C C2C 1_555 1_555
C1C H3C 1_555 1_555
C1C C2C 1_555 1_555
C3A C4B 1_555 1_555
C3A C4C 1_555 1_555
C4A C3B 1_555 1_555
C4A C3C 1_555 1_555
N3A C4B 1_555 1_555
C8B C8C 1_555 1_555

#END
