
#######################################################################
#
#                 Cambridge Crystallographic Data Centre
#                                CCDC 
#
#######################################################################
#
# If this CIF has been generated from an entry in the Cambridge 
# Structural Database, then it will include bibliographic, chemical, 
# crystal, experimental, refinement or atomic coordinate data resulting 
# from the CCDC's data processing and validation procedures.
#
#######################################################################

data_UVEXAV
_chemical_formula_moiety         '(C10 H14 Ga4 O18)n'
_symmetry_cell_setting           monoclinic
_symmetry_space_group_name_H-M   'C 2/m'
_symmetry_Int_Tables_number      12
_space_group_name_Hall           '-C 2y'
loop_
_symmetry_equiv_pos_site_id
_symmetry_equiv_pos_as_xyz
1 x,y,z
2 1/2+x,1/2+y,z
3 -x,y,-z
4 1/2-x,1/2+y,-z
5 -x,-y,-z
6 1/2-x,1/2-y,-z
7 x,-y,z
8 1/2+x,1/2-y,z
_cell_length_a                   9.847859(61)
_cell_length_b                   20.21644(17)
_cell_length_c                   7.627279(52)
_cell_angle_alpha                90
_cell_angle_beta                 133.19807(49)
_cell_angle_gamma                90
_cell_volume                     1106.98
loop_
_atom_site_label
_atom_site_type_symbol
_atom_site_fract_x
_atom_site_fract_y
_atom_site_fract_z
Ga1 Ga -0.00000 0.294730(76) 0.00000
Ga2 Ga 0.25000 0.25000 0.50000
O1 O 0.26547(67) 0.29006(23) 0.28136(83)
H1 H 0.331500 0.324259 0.316263
O2 O -0.00079(69) 0.23193(23) -0.18965(84)
H2 H 0.097 0.239 -0.169
O3 O 0.03698(67) 0.36872(25) -0.13646(88)
O4 O -0.16782(66) 0.33478(27) -0.53033(83)
C1 C -0.0493(11) 0.37456(40) -0.3563(14)
C2 C -0.0127(12) 0.43833(38) -0.4172(14)
C3 C -0.0261(14) 0.50000 -0.3461(20)
H3 H -0.049 0.50000 -0.251
C2F C -0.0127(12) 0.56167(38) -0.4172(14)
C1F C -0.0493(11) 0.62544(40) -0.3563(14)
O3F O 0.03698(67) 0.63128(25) -0.13646(88)
O4F O -0.16782(66) 0.66522(27) -0.53033(83)
C2D C 0.0127(12) 0.56167(38) -0.5828(14)
C1D C 0.0493(11) 0.62544(40) -0.6437(14)
O3D O -0.03698(67) 0.63128(25) -0.86354(88)
O4D O 0.16782(66) 0.66522(27) -0.46967(83)
C3D C 0.0261(14) 0.50000 -0.6539(20)
C2B C 0.0127(12) 0.43833(38) -0.5828(14)
C1B C 0.0493(11) 0.37456(40) -0.6437(14)
O3B O -0.03698(67) 0.36872(25) -0.86354(88)
O4B O 0.16782(66) 0.33478(27) -0.46967(83)
H3D H 0.049 0.50000 -0.749
O1B O -0.26547(67) 0.29006(23) -0.28136(83)
H1B H -0.331500 0.324259 -0.316263
O2B O 0.00079(69) 0.23193(23) 0.18965(84)
H2B H -0.097 0.239 0.169
Ga1F Ga -0.00000 0.705270(76) 0.00000
Ga2B Ga -0.25000 0.25000 -0.50000
O2G O 0.49921(69) 0.26807(23) 0.81035(84)
H2G H 0.597 0.261 0.831
O1E O 0.23453(67) 0.20994(23) 0.71864(83)
H1E H 0.168500 0.175741 0.683737
O1F O 0.26547(67) 0.70994(23) 0.28136(83)
H1F H 0.331500 0.675741 0.316263
O2F O -0.00079(69) 0.76807(23) -0.18965(84)
H2F H 0.097 0.761 -0.169
O3B_2 O -0.03698(67) 0.36872(25) 0.13646(88)
O4G O 0.33218(66) 0.16522(27) 0.46967(83)
O4B_2 O 0.16782(66) 0.33478(27) 0.53033(83)
Ga2A Ga -0.25000 0.75000 -0.50000
Ga1D Ga -0.00000 0.705270(76) -1.00000
Ga2C Ga 0.25000 0.75000 -0.50000
Ga1B Ga -0.00000 0.294730(76) -1.00000
Ga2E Ga 0.25000 0.25000 -0.50000
O1D O -0.26547(67) 0.70994(23) -0.28136(83)
O2D O 0.00079(69) 0.76807(23) 0.18965(84)
O3D_2 O -0.03698(67) 0.63128(25) 0.13646(88)
O4E O -0.33218(66) 0.16522(27) -0.46967(83)
O2E O -0.49921(69) 0.26807(23) -0.81035(84)
O1G O -0.23453(67) 0.20994(23) -0.71864(83)
Ga1G Ga 0.50000 0.205270(76) 1.00000
Ga2F Ga 0.25000 0.75000 0.50000
H1D H -0.331500 0.675741 -0.316263
H2D H -0.097 0.761 0.169
H2E H -0.597 0.261 -0.831
H1G H -0.168500 0.175741 -0.683737
O5 O 0.50000 0.41249(45) 0.50000
O6 O 0.0664(22) 0.08583(86) 0.8875(29)
loop_
_geom_bond_atom_site_label_1
_geom_bond_atom_site_label_2
_geom_bond_site_symmetry_1
_geom_bond_site_symmetry_2
Ga1 O1 1_555 1_555
Ga2 O1 1_555 1_555
O1 H1 1_555 1_555
O2 Ga1 1_555 1_555
H2 O2 1_555 1_555
O3 Ga1 1_555 1_555
O4 C1 1_555 1_555
C1 O3 1_555 1_555
C2 C1 1_555 1_555
C3 C2 1_555 1_555
H3 C3 1_555 1_555
C2F C3 1_555 1_555
C1F C2F 1_555 1_555
O3F C1F 1_555 1_555
O4F C1F 1_555 1_555
C2D C2F 1_555 1_555
C1D C2D 1_555 1_555
O3D C1D 1_555 1_555
O4D C1D 1_555 1_555
C3D C2D 1_555 1_555
C2B C2 1_555 1_555
C1B C2B 1_555 1_555
O3B C1B 1_555 1_555
O4B C1B 1_555 1_555
H3D C3D 1_555 1_555
O1B Ga1 1_555 1_555
H1B O1B 1_555 1_555
O2B Ga1 1_555 1_555
H2B O2B 1_555 1_555
Ga1F O3F 1_555 1_555
Ga2B O2 1_555 1_555
O2G Ga2 1_555 1_555
H2G O2G 1_555 1_555
O1E Ga2 1_555 1_555
H1E O1E 1_555 1_555
O1F Ga1F 1_555 1_555
H1F O1F 1_555 1_555
O2F Ga1F 1_555 1_555
H2F O2F 1_555 1_555
O3B_2 Ga1 1_555 1_555
O4G Ga2 1_555 1_555
O4B_2 Ga2 1_555 1_555
Ga2A O4F 1_555 1_555
Ga1D O3D 1_555 1_555
Ga2C O4D 1_555 1_555
Ga1B O3B 1_555 1_555
Ga2E O4B 1_555 1_555
O1D Ga1F 1_555 1_555
O2D Ga1F 1_555 1_555
O3D_2 Ga1F 1_555 1_555
O4E Ga2B 1_555 1_555
O2E Ga2B 1_555 1_555
O1G Ga2B 1_555 1_555
Ga1G O2G 1_555 1_555
Ga2F O1F 1_555 1_555
H1D O1D 1_555 1_555
H2D O2D 1_555 1_555
H2E O2E 1_555 1_555
H1G O1G 1_555 1_555
Ga2 O2B 1_555 1_555
O4 Ga2B 1_555 1_555
C3D C2B 1_555 1_555
O1B Ga2B 1_555 1_555
O1E Ga1G 1_555 1_555
O2F Ga2A 1_555 1_555
Ga2A O1D 1_555 1_555
O2D Ga2F 1_555 1_555

#END
