
#######################################################################
#
#                 Cambridge Crystallographic Data Centre
#                                CCDC 
#
#######################################################################
#
# If this CIF has been generated from an entry in the Cambridge 
# Structural Database, then it will include bibliographic, chemical, 
# crystal, experimental, refinement or atomic coordinate data resulting 
# from the CCDC's data processing and validation procedures.
#
#######################################################################

data_XAKJEB
_chemical_formula_moiety         '(C36 H36 Cd2 N8 O8)n'
_symmetry_cell_setting           orthorhombic
_symmetry_space_group_name_H-M   'P n m a'
_symmetry_Int_Tables_number      62
_space_group_name_Hall           '-P 2ac 2n'
loop_
_symmetry_equiv_pos_site_id
_symmetry_equiv_pos_as_xyz
1 x,y,z
2 1/2-x,-y,1/2+z
3 1/2+x,1/2-y,1/2-z
4 -x,1/2+y,-z
5 -x,-y,-z
6 1/2+x,y,1/2-z
7 1/2-x,1/2+y,1/2+z
8 x,1/2-y,z
_cell_length_a                   22.497(4)
_cell_length_b                   19.421(3)
_cell_length_c                   12.646(2)
_cell_angle_alpha                90
_cell_angle_beta                 90
_cell_angle_gamma                90
_cell_volume                     5525.22
loop_
_atom_site_label
_atom_site_type_symbol
_atom_site_fract_x
_atom_site_fract_y
_atom_site_fract_z
Cd1 Cd 0.075244(10) 0.488568(14) 0.06144(2)
O1 O -0.00093(10) 0.56487(12) 0.0691(2)
O2 O 0.07761(10) 0.62420(14) 0.0162(2)
O3 O 0.01237(12) 0.43361(14) 0.2036(2)
O4 O 0.08234(11) 0.37762(13) 0.1178(2)
N1 N 0.15466(13) 0.53123(18) 0.1594(3)
N2 N 0.18464(15) 0.58355(19) 0.1136(3)
H1 H 0.1720(19) 0.616(2) 0.076(3)
N3 N 0.37181(13) 0.51259(16) 0.4077(3)
N4 N 0.39321(15) 0.4826(2) 0.3202(3)
H2 H 0.431(3) 0.465(4) 0.312(6)
C1 C 0.02507(14) 0.62203(18) 0.0512(2)
C2 C -0.00711(13) 0.68767(17) 0.0715(2)
C3 C -0.06584(13) 0.68754(19) 0.1086(3)
H3 H -0.0854 0.6460 0.1197
C4 C -0.0954(2) 0.7500 0.1292(5)
H4 H -0.1339 0.7500 0.1559
C5 C 0.02074(18) 0.7500 0.0538(3)
H5 H 0.0597 0.7500 0.0291
C6 C 0.04005(14) 0.37846(19) 0.1814(3)
C7 C 0.02169(15) 0.31166(19) 0.2332(3)
C8 C -0.01397(18) 0.3117(2) 0.3227(3)
H6 H -0.0276 0.3531 0.3506
C9 C -0.0293(3) 0.2500 0.3704(6)
H7 H -0.0498 0.2500 0.4343
C10 C 0.03902(18) 0.2500 0.1912(4)
H8 H 0.0635 0.2500 0.1319
C11 C 0.1780(2) 0.4412(3) 0.2918(5)
H9 H 0.1599 0.4066 0.2483
H10 H 0.1506 0.4552 0.3458
H11 H 0.2132 0.4228 0.3241
C12 C 0.19425(18) 0.5019(2) 0.2252(3)
C13 C 0.24875(15) 0.5372(2) 0.2210(3)
C14 C 0.24112(18) 0.5892(2) 0.1488(4)
C15 C 0.2840(3) 0.6440(4) 0.1117(7)
H12 H 0.2634 0.6765 0.0677
H13 H 0.3155 0.6229 0.0719
H14 H 0.3005 0.6674 0.1718
C16 C 0.2830(3) 0.5829(6) 0.4609(6)
H15 H 0.2661 0.5556 0.5165
H16 H 0.2519 0.6058 0.4228
H17 H 0.3094 0.6165 0.4908
C17 C 0.31791(14) 0.5360(2) 0.3850(3)
C18 C 0.30408(17) 0.5200(2) 0.2794(3)
C19 C 0.3534(2) 0.4865(3) 0.2402(4)
C20 C 0.3697(4) 0.4670(6) 0.1264(6)
H18 H 0.3592 0.5040 0.0797
H19 H 0.3485 0.4261 0.1063
H20 H 0.4117 0.4586 0.1219
O1G O -0.00093(10) 0.93513(12) 0.0691(2)
O2G O 0.07761(10) 0.87580(14) 0.0162(2)
C1G C 0.02507(14) 0.87797(18) 0.0512(2)
C2G C -0.00711(13) 0.81233(17) 0.0715(2)
C3G C -0.06584(13) 0.81246(19) 0.1086(3)
H3G H -0.0854 0.8540 0.1197
O3G O 0.01237(12) 0.06639(14) 0.2036(2)
O4G O 0.08234(11) 0.12238(13) 0.1178(2)
C6G C 0.04005(14) 0.12154(19) 0.1814(3)
C7G C 0.02169(15) 0.18834(19) 0.2332(3)
C8G C -0.01397(18) 0.1883(2) 0.3227(3)
H6G H -0.0276 0.1469 0.3506
Cd1D Cd -0.075244(10) 0.511432(14) -0.06144(2)
N1D N -0.15466(13) 0.46877(18) -0.1594(3)
N2D N -0.18464(15) 0.41645(19) -0.1136(3)
H1D H -0.1720(19) 0.384(2) -0.076(3)
N3D N -0.37181(13) 0.48741(16) -0.4077(3)
N4D N -0.39321(15) 0.5174(2) -0.3202(3)
H2D H -0.431(3) 0.535(4) -0.312(6)
C11D C -0.1780(2) 0.5588(3) -0.2918(5)
H9D H -0.1599 0.5934 -0.2483
H10D H -0.1506 0.5448 -0.3458
H11D H -0.2132 0.5772 -0.3241
C12D C -0.19425(18) 0.4981(2) -0.2252(3)
C13D C -0.24875(15) 0.4628(2) -0.2210(3)
C14D C -0.24112(18) 0.4108(2) -0.1488(4)
C15D C -0.2840(3) 0.3560(4) -0.1117(7)
H12D H -0.2634 0.3235 -0.0677
H13D H -0.3155 0.3771 -0.0719
H14D H -0.3005 0.3326 -0.1718
C16D C -0.2830(3) 0.4171(6) -0.4609(6)
H15D H -0.2661 0.4444 -0.5165
H16D H -0.2519 0.3942 -0.4228
H17D H -0.3094 0.3835 -0.4908
C17D C -0.31791(14) 0.4640(2) -0.3850(3)
C18D C -0.30408(17) 0.4800(2) -0.2794(3)
C19D C -0.3534(2) 0.5135(3) -0.2402(4)
C20D C -0.3697(4) 0.5330(6) -0.1264(6)
H18D H -0.3592 0.4960 -0.0797
H19D H -0.3485 0.5739 -0.1063
H20D H -0.4117 0.5414 -0.1219
Cd1A Cd 0.424756(10) 0.511432(14) 0.56144(2)
Cd1C Cd -0.075244(10) 0.988568(14) -0.06144(2)
Cd1E Cd -0.424756(10) 0.488568(14) -0.56144(2)
Cd1G Cd 0.075244(10) 0.011432(14) 0.06144(2)
Cd1G_2 Cd 0.075244(10) 1.011432(14) 0.06144(2)
O1D O 0.00093(10) 0.43513(12) -0.0691(2)
O2D O -0.07761(10) 0.37580(14) -0.0162(2)
O3D O -0.01237(12) 0.56639(14) -0.2036(2)
O4D O -0.08234(11) 0.62238(13) -0.1178(2)
N3A N 0.12819(13) 0.48741(16) -0.0923(3)
N3E N -0.12819(13) 0.51259(16) 0.0923(3)
loop_
_geom_bond_atom_site_label_1
_geom_bond_atom_site_label_2
_geom_bond_site_symmetry_1
_geom_bond_site_symmetry_2
Cd1 O1 1_555 1_555
O1 C1 1_555 1_555
O2 Cd1 1_555 1_555
O3 Cd1 1_555 1_555
O4 Cd1 1_555 1_555
N1 Cd1 1_555 1_555
N2 N1 1_555 1_555
H1 N2 1_555 1_555
N3 N4 1_555 1_555
N4 H2 1_555 1_555
C1 O2 1_555 1_555
C2 C1 1_555 1_555
C3 C2 1_555 1_555
H3 C3 1_555 1_555
C4 C3 1_555 1_555
H4 C4 1_555 1_555
C5 C2 1_555 1_555
H5 C5 1_555 1_555
C6 O3 1_555 1_555
C7 C6 1_555 1_555
C8 C7 1_555 1_555
H6 C8 1_555 1_555
C9 C8 1_555 1_555
H7 C9 1_555 1_555
C10 C7 1_555 1_555
H8 C10 1_555 1_555
C11 H9 1_555 1_555
H10 C11 1_555 1_555
H11 C11 1_555 1_555
C12 N1 1_555 1_555
C13 C12 1_555 1_555
C14 N2 1_555 1_555
C15 C14 1_555 1_555
H12 C15 1_555 1_555
H13 C15 1_555 1_555
H14 C15 1_555 1_555
C16 H15 1_555 1_555
H16 C16 1_555 1_555
H17 C16 1_555 1_555
C17 N3 1_555 1_555
C18 C13 1_555 1_555
C19 N4 1_555 1_555
C20 C19 1_555 1_555
H18 C20 1_555 1_555
H19 C20 1_555 1_555
H20 C20 1_555 1_555
O1G C1G 1_555 1_555
O2G C1G 1_555 1_555
C1G C2G 1_555 1_555
C2G C5 1_555 1_555
C3G C4 1_555 1_555
H3G C3G 1_555 1_555
O3G C6G 1_555 1_555
O4G C6G 1_555 1_555
C6G C7G 1_555 1_555
C7G C10 1_555 1_555
C8G C9 1_555 1_555
H6G C8G 1_555 1_555
Cd1D O1 1_555 1_555
N1D Cd1D 1_555 1_555
N2D N1D 1_555 1_555
H1D N2D 1_555 1_555
N3D N4D 1_555 1_555
N4D H2D 1_555 1_555
C11D H9D 1_555 1_555
H10D C11D 1_555 1_555
H11D C11D 1_555 1_555
C12D N1D 1_555 1_555
C13D C12D 1_555 1_555
C14D N2D 1_555 1_555
C15D C14D 1_555 1_555
H12D C15D 1_555 1_555
H13D C15D 1_555 1_555
H14D C15D 1_555 1_555
C16D H15D 1_555 1_555
H16D C16D 1_555 1_555
H17D C16D 1_555 1_555
C17D N3D 1_555 1_555
C18D C13D 1_555 1_555
C19D N4D 1_555 1_555
C20D C19D 1_555 1_555
H18D C20D 1_555 1_555
H19D C20D 1_555 1_555
H20D C20D 1_555 1_555
Cd1A N3 1_555 1_555
Cd1C O1G 1_555 1_555
Cd1E N3D 1_555 1_555
Cd1G O3G 1_555 1_555
Cd1G_2 O1G 1_555 1_555
O1D Cd1 1_555 1_555
O2D Cd1D 1_555 1_555
O3D Cd1D 1_555 1_555
O4D Cd1D 1_555 1_555
N3A Cd1 1_555 1_555
N3E Cd1D 1_555 1_555
O4 C6 1_555 1_555
C11 C12 1_555 1_555
C13 C14 1_555 1_555
C16 C17 1_555 1_555
C17 C18 1_555 1_555
C18 C19 1_555 1_555
O2G Cd1G_2 1_555 1_555
C2G C3G 1_555 1_555
O4G Cd1G 1_555 1_555
C7G C8G 1_555 1_555
Cd1D O1D 1_555 1_555
C11D C12D 1_555 1_555
C13D C14D 1_555 1_555
C16D C17D 1_555 1_555
C17D C18D 1_555 1_555
C18D C19D 1_555 1_555

#END
