
#######################################################################
#
#                 Cambridge Crystallographic Data Centre
#                                CCDC 
#
#######################################################################
#
# If this CIF has been generated from an entry in the Cambridge 
# Structural Database, then it will include bibliographic, chemical, 
# crystal, experimental, refinement or atomic coordinate data resulting 
# from the CCDC's data processing and validation procedures.
#
#######################################################################

data_ZIJVAR
_chemical_formula_moiety         '(C66 H46 Co3 N16 O14)n'
_symmetry_cell_setting           monoclinic
_symmetry_space_group_name_H-M   'C 2/c'
_symmetry_Int_Tables_number      15
_space_group_name_Hall           '-C 2yc'
loop_
_symmetry_equiv_pos_site_id
_symmetry_equiv_pos_as_xyz
1 x,y,z
2 -x,y,1/2-z
3 1/2+x,1/2+y,z
4 1/2-x,1/2+y,1/2-z
5 -x,-y,-z
6 x,-y,1/2+z
7 1/2-x,1/2-y,-z
8 1/2+x,1/2-y,1/2+z
_cell_length_a                   27.882(3)
_cell_length_b                   13.2793(16)
_cell_length_c                   18.463(2)
_cell_angle_alpha                90
_cell_angle_beta                 107.198(2)
_cell_angle_gamma                90
_cell_volume                     6530.34
loop_
_atom_site_label
_atom_site_type_symbol
_atom_site_fract_x
_atom_site_fract_y
_atom_site_fract_z
Co1 Co 0.216952(16) 0.46000(4) 1.03570(3)
Co2 Co 0.5000 0.11416(5) 1.2500
O1 O 0.27051(9) 0.3838(2) 1.10704(15)
O2 O 0.21600(11) 0.3885(2) 1.17211(17)
O3 O 0.43852(10) 0.2275(2) 1.21786(18)
O4 O 0.44517(12) 0.1167(2) 1.30594(17)
O5 O 0.31843(11) 0.0727(2) 1.43481(16)
O6 O 0.24091(13) 0.1212(3) 1.3792(2)
N1 N 0.16122(10) 0.3570(2) 0.99600(17)
N2 N 0.08926(10) 0.2830(2) 0.98606(18)
N3 N -0.04312(11) 0.3900(3) 1.08671(19)
N4 N -0.03912(12) 0.5093(3) 1.17035(19)
N5 N -0.20040(10) 0.0029(2) 0.88416(16)
N6 N -0.25389(10) -0.0203(2) 0.94911(17)
N7 N -0.09302(12) -0.0249(2) 0.72022(19)
N8 N -0.1038(7) -0.0584(19) 0.6019(6)
C1 C 0.42043(15) 0.1841(3) 1.2636(2)
C2 C 0.36936(14) 0.2079(3) 1.2688(2)
C3 C 0.35234(14) 0.1621(3) 1.3244(2)
H1 H 0.3734 0.1186 1.3589
C4 C 0.30476(14) 0.1804(3) 1.3290(2)
C5 C 0.28603(17) 0.1233(3) 1.3851(2)
C6 C 0.27366(14) 0.2465(3) 1.2773(2)
H2 H 0.2417 0.2602 1.2805
C7 C 0.28969(14) 0.2916(3) 1.2215(2)
C8 C 0.33761(13) 0.2719(3) 1.2176(2)
H3 H 0.3486 0.3022 1.1799
C9 C 0.25564(15) 0.3588(3) 1.1641(2)
C10 C 0.16474(14) 0.2570(3) 0.9806(3)
H4 H 0.1933 0.2257 0.9750
C11 C 0.12092(14) 0.2106(3) 0.9748(3)
H5 H 0.1137 0.1427 0.9650
C12 C 0.11531(13) 0.3697(3) 0.9982(2)
H6 H 0.1022 0.4313 1.0072
C13 C 0.03844(13) 0.2720(3) 0.9872(2)
C14 C 0.00704(13) 0.2012(3) 0.9428(2)
H7 H 0.0188 0.1591 0.9115
C15 C -0.04228(13) 0.1928(3) 0.9448(2)
C16 C -0.05937(13) 0.2583(3) 0.9905(2)
H8 H -0.0928 0.2561 0.9902
C17 C -0.02685(14) 0.3267(3) 1.0364(2)
C18 C 0.02255(14) 0.3327(3) 1.0365(2)
H9 H 0.0447 0.3767 1.0690
C19 C -0.01862(15) 0.4711(3) 1.1217(2)
H10 H 0.0099 0.4974 1.1123
C20 C -0.07952(17) 0.4495(4) 1.1656(3)
H11 H -0.1018 0.4584 1.1939
C21 C -0.08276(18) 0.3765(4) 1.1150(3)
H12 H -0.1071 0.3264 1.1015
C22 C -0.07702(13) 0.1171(3) 0.8973(2)
C23 C -0.06818(13) 0.0762(3) 0.8331(2)
H13 H -0.0392 0.0934 0.8209
C24 C -0.10196(14) 0.0106(3) 0.7878(2)
C25 C -0.14606(14) -0.0158(3) 0.8035(2)
H14 H -0.1690 -0.0597 0.7722
C26 C -0.15468(13) 0.0254(3) 0.8672(2)
C27 C -0.12121(13) 0.0911(3) 0.9131(2)
H15 H -0.1282 0.1186 0.9553
C28 C -0.24554(15) -0.0201(4) 0.8330(2)
H16 H -0.2526 -0.0250 0.7807
C29 C -0.27775(15) -0.0344(3) 0.8739(2)
H17 H -0.3114 -0.0513 0.8537
C30 C -0.20726(13) 0.0029(3) 0.9525(2)
H18 H -0.1822 0.0175 0.9972
C31 C -0.0452(3) -0.0520(8) 0.7143(5)
H19 H -0.0148 -0.0566 0.7525
C32 C -0.0552(5) -0.070(2) 0.6368(9)
H20 H -0.0313 -0.0872 0.6131
C33 C -0.1239(3) -0.0331(9) 0.6543(5)
H21 H -0.1582 -0.0220 0.6444
Co1A Co 0.783048(16) 0.46000(4) 1.46430(3)
O1A O 0.72949(9) 0.3838(2) 1.39296(15)
O2A O 0.78400(11) 0.3885(2) 1.32789(17)
O3A O 0.56148(10) 0.2275(2) 1.28214(18)
O4A O 0.55483(12) 0.1167(2) 1.19406(17)
O5A O 0.68157(11) 0.0727(2) 1.06519(16)
O6A O 0.75909(13) 0.1212(3) 1.1208(2)
N1A N 0.83878(10) 0.3570(2) 1.50400(17)
N2A N 0.91074(10) 0.2830(2) 1.51394(18)
N3A N 1.04312(11) 0.3900(3) 1.41329(19)
N4A N 1.03912(12) 0.5093(3) 1.32965(19)
N5A N 1.20040(10) 0.0029(2) 1.61584(16)
N6A N 1.25389(10) -0.0203(2) 1.55089(17)
N7A N 1.09302(12) -0.0249(2) 1.77978(19)
N8A N 1.1038(7) -0.0584(19) 1.8981(6)
C1A C 0.57957(15) 0.1841(3) 1.2364(2)
C2A C 0.63064(14) 0.2079(3) 1.2312(2)
C3A C 0.64766(14) 0.1621(3) 1.1756(2)
H1A H 0.6266 0.1186 1.1411
C4A C 0.69524(14) 0.1804(3) 1.1710(2)
C5A C 0.71397(17) 0.1233(3) 1.1149(2)
C6A C 0.72634(14) 0.2465(3) 1.2227(2)
H2A H 0.7583 0.2602 1.2195
C7A C 0.71031(14) 0.2916(3) 1.2785(2)
C8A C 0.66239(13) 0.2719(3) 1.2824(2)
H3A H 0.6514 0.3022 1.3201
C9A C 0.74436(15) 0.3588(3) 1.3359(2)
C10A C 0.83526(14) 0.2570(3) 1.5194(3)
H4A H 0.8067 0.2257 1.5250
C11A C 0.87908(14) 0.2106(3) 1.5252(3)
H5A H 0.8863 0.1427 1.5350
C12A C 0.88469(13) 0.3697(3) 1.5018(2)
H6A H 0.8978 0.4313 1.4928
C13A C 0.96156(13) 0.2720(3) 1.5128(2)
C14A C 0.99296(13) 0.2012(3) 1.5572(2)
H7A H 0.9812 0.1591 1.5885
C15A C 1.04228(13) 0.1928(3) 1.5552(2)
C16A C 1.05937(13) 0.2583(3) 1.5095(2)
H8A H 1.0928 0.2561 1.5098
C17A C 1.02685(14) 0.3267(3) 1.4636(2)
C18A C 0.97745(14) 0.3327(3) 1.4635(2)
H9A H 0.9553 0.3767 1.4310
C19A C 1.01862(15) 0.4711(3) 1.3783(2)
H10A H 0.9901 0.4974 1.3877
C20A C 1.07952(17) 0.4495(4) 1.3344(3)
H11A H 1.1018 0.4584 1.3061
C21A C 1.08276(18) 0.3765(4) 1.3850(3)
H12A H 1.1071 0.3264 1.3985
C22A C 1.07702(13) 0.1171(3) 1.6027(2)
C23A C 1.06818(13) 0.0762(3) 1.6669(2)
H13A H 1.0392 0.0934 1.6791
C24A C 1.10196(14) 0.0106(3) 1.7122(2)
C25A C 1.14606(14) -0.0158(3) 1.6965(2)
H14A H 1.1690 -0.0597 1.7278
C26A C 1.15468(13) 0.0254(3) 1.6328(2)
C27A C 1.12121(13) 0.0911(3) 1.5869(2)
H15A H 1.1282 0.1186 1.5447
C28A C 1.24554(15) -0.0201(4) 1.6670(2)
H16A H 1.2526 -0.0250 1.7193
C29A C 1.27775(15) -0.0344(3) 1.6261(2)
H17A H 1.3114 -0.0513 1.6463
C30A C 1.20726(13) 0.0029(3) 1.5475(2)
H18A H 1.1822 0.0175 1.5028
C31A C 1.0452(3) -0.0520(8) 1.7857(5)
H19A H 1.0148 -0.0566 1.7475
C32A C 1.0552(5) -0.070(2) 1.8632(9)
H20A H 1.0313 -0.0872 1.8869
C33A C 1.1239(3) -0.0331(9) 1.8457(5)
H21A H 1.1582 -0.0220 1.8556
Co1B Co -0.283048(16) -0.04000(4) 1.03570(3)
Co1B_2 Co 0.716952(16) -0.04000(4) 1.03570(3)
Co1C Co 0.283048(16) -0.04000(4) 1.46430(3)
Co1C_2 Co 1.283048(16) -0.04000(4) 1.46430(3)
Co2B Co -0.0000 0.61416(5) 1.2500
Co2B_2 Co 1.0000 0.61416(5) 1.2500
O5B O 0.81843(11) 0.5727(2) 1.43481(16)
O5C O 0.18157(11) 0.5727(2) 1.06519(16)
N4B N 0.46088(12) 0.0093(3) 1.17035(19)
N4C N 0.53912(12) 0.0093(3) 1.32965(19)
N6B N 0.24611(10) 0.4797(2) 0.94911(17)
N6C N 0.75389(10) 0.4797(2) 1.55089(17)
O7 O 0.1876(3) 0.2438(7) 0.4565(7)
O8 O 0.1176(2) 0.4018(7) 0.1769(4)
loop_
_geom_bond_atom_site_label_1
_geom_bond_atom_site_label_2
_geom_bond_site_symmetry_1
_geom_bond_site_symmetry_2
Co1 O1 1_555 1_555
Co2 O3 1_555 1_555
O1 C9 1_555 1_555
O2 C9 1_555 1_555
O3 C1 1_555 1_555
O4 Co2 1_555 1_555
O5 C5 1_555 1_555
O6 C5 1_555 1_555
N1 Co1 1_555 1_555
N2 C11 1_555 1_555
N3 C17 1_555 1_555
N4 C19 1_555 1_555
N5 C26 1_555 1_555
N6 C29 1_555 1_555
N7 C24 1_555 1_555
N8 C32 1_555 1_555
C1 O4 1_555 1_555
C2 C1 1_555 1_555
C3 C2 1_555 1_555
H1 C3 1_555 1_555
C4 C3 1_555 1_555
C5 C4 1_555 1_555
C6 C4 1_555 1_555
H2 C6 1_555 1_555
C7 C6 1_555 1_555
C8 C2 1_555 1_555
H3 C8 1_555 1_555
C9 C7 1_555 1_555
C10 N1 1_555 1_555
H4 C10 1_555 1_555
C11 C10 1_555 1_555
H5 C11 1_555 1_555
C12 N1 1_555 1_555
H6 C12 1_555 1_555
C13 N2 1_555 1_555
C14 C13 1_555 1_555
H7 C14 1_555 1_555
C15 C14 1_555 1_555
C16 C15 1_555 1_555
H8 C16 1_555 1_555
C17 C16 1_555 1_555
C18 C13 1_555 1_555
H9 C18 1_555 1_555
C19 N3 1_555 1_555
H10 C19 1_555 1_555
C20 N4 1_555 1_555
H11 C20 1_555 1_555
C21 N3 1_555 1_555
H12 C21 1_555 1_555
C22 C15 1_555 1_555
C23 C22 1_555 1_555
H13 C23 1_555 1_555
C24 C23 1_555 1_555
C25 C24 1_555 1_555
H14 C25 1_555 1_555
C26 C25 1_555 1_555
C27 C22 1_555 1_555
H15 C27 1_555 1_555
C28 N5 1_555 1_555
H16 C28 1_555 1_555
C29 C28 1_555 1_555
H17 C29 1_555 1_555
C30 N5 1_555 1_555
H18 C30 1_555 1_555
C31 N7 1_555 1_555
H19 C31 1_555 1_555
C32 C31 1_555 1_555
H20 C32 1_555 1_555
C33 N7 1_555 1_555
H21 C33 1_555 1_555
Co1A O1A 1_555 1_555
O1A C9A 1_555 1_555
O2A C9A 1_555 1_555
O3A Co2 1_555 1_555
O4A Co2 1_555 1_555
O5A C5A 1_555 1_555
O6A C5A 1_555 1_555
N1A Co1A 1_555 1_555
N2A C11A 1_555 1_555
N3A C17A 1_555 1_555
N4A C19A 1_555 1_555
N5A C26A 1_555 1_555
N6A C29A 1_555 1_555
N7A C24A 1_555 1_555
N8A C32A 1_555 1_555
C1A O3A 1_555 1_555
C2A C1A 1_555 1_555
C3A C2A 1_555 1_555
H1A C3A 1_555 1_555
C4A C3A 1_555 1_555
C5A C4A 1_555 1_555
C6A C4A 1_555 1_555
H2A C6A 1_555 1_555
C7A C6A 1_555 1_555
C8A C2A 1_555 1_555
H3A C8A 1_555 1_555
C9A C7A 1_555 1_555
C10A N1A 1_555 1_555
H4A C10A 1_555 1_555
C11A C10A 1_555 1_555
H5A C11A 1_555 1_555
C12A N1A 1_555 1_555
H6A C12A 1_555 1_555
C13A N2A 1_555 1_555
C14A C13A 1_555 1_555
H7A C14A 1_555 1_555
C15A C14A 1_555 1_555
C16A C15A 1_555 1_555
H8A C16A 1_555 1_555
C17A C16A 1_555 1_555
C18A C13A 1_555 1_555
H9A C18A 1_555 1_555
C19A N3A 1_555 1_555
H10A C19A 1_555 1_555
C20A N4A 1_555 1_555
H11A C20A 1_555 1_555
C21A N3A 1_555 1_555
H12A C21A 1_555 1_555
C22A C15A 1_555 1_555
C23A C22A 1_555 1_555
H13A C23A 1_555 1_555
C24A C23A 1_555 1_555
C25A C24A 1_555 1_555
H14A C25A 1_555 1_555
C26A C25A 1_555 1_555
C27A C22A 1_555 1_555
H15A C27A 1_555 1_555
C28A N5A 1_555 1_555
H16A C28A 1_555 1_555
C29A C28A 1_555 1_555
H17A C29A 1_555 1_555
C30A N5A 1_555 1_555
H18A C30A 1_555 1_555
C31A N7A 1_555 1_555
H19A C31A 1_555 1_555
C32A C31A 1_555 1_555
H20A C32A 1_555 1_555
C33A N7A 1_555 1_555
H21A C33A 1_555 1_555
Co1B N6 1_555 1_555
Co1B_2 O5A 1_555 1_555
Co1C O5 1_555 1_555
Co1C_2 N6A 1_555 1_555
Co2B N4 1_555 1_555
Co2B_2 N4A 1_555 1_555
O5B Co1A 1_555 1_555
O5C Co1 1_555 1_555
N4B Co2 1_555 1_555
N4C Co2 1_555 1_555
N6B Co1 1_555 1_555
N6C Co1A 1_555 1_555
N2 C12 1_555 1_555
N6 C30 1_555 1_555
N8 C33 1_555 1_555
C7 C8 1_555 1_555
C17 C18 1_555 1_555
C20 C21 1_555 1_555
C26 C27 1_555 1_555
O4A C1A 1_555 1_555
N2A C12A 1_555 1_555
N6A C30A 1_555 1_555
N8A C33A 1_555 1_555
C7A C8A 1_555 1_555
C17A C18A 1_555 1_555
C20A C21A 1_555 1_555
C26A C27A 1_555 1_555

#END
