
#######################################################################
#
#                 Cambridge Crystallographic Data Centre
#                                CCDC 
#
#######################################################################
#
# If this CIF has been generated from an entry in the Cambridge 
# Structural Database, then it will include bibliographic, chemical, 
# crystal, experimental, refinement or atomic coordinate data resulting 
# from the CCDC's data processing and validation procedures.
#
#######################################################################

data_PIGHIX01
_chemical_formula_moiety         '(C96 H82 B2 Cu6 F8 N12 O25 2+)n'
_symmetry_cell_setting           monoclinic
_symmetry_space_group_name_H-M   'P 21/c'
_symmetry_Int_Tables_number      14
_space_group_name_Hall           '-P 2ybc'
loop_
_symmetry_equiv_pos_site_id
_symmetry_equiv_pos_as_xyz
1 x,y,z
2 -x,1/2+y,1/2-z
3 -x,-y,-z
4 x,1/2-y,1/2+z
_cell_length_a                   13.3330(7)
_cell_length_b                   22.7104(12)
_cell_length_c                   18.4681(10)
_cell_angle_alpha                90
_cell_angle_beta                 109.127(2)
_cell_angle_gamma                90
_cell_volume                     5283.39
loop_
_atom_site_label
_atom_site_type_symbol
_atom_site_fract_x
_atom_site_fract_y
_atom_site_fract_z
Cu1 Cu 0.44228(3) 0.262597(19) 0.50671(2)
N1 N 0.4918(2) 0.26259(13) 0.41490(16)
C1 C 0.5244(3) 0.30689(19) 0.3822(2)
H1 H 0.5203 0.3454 0.3998
C2 C 0.5650(3) 0.2981(2) 0.3221(2)
H2 H 0.5870 0.3305 0.2995
C3 C 0.5725(3) 0.2431(2) 0.2964(2)
H3 H 0.6012 0.2373 0.2567
C4 C 0.5378(3) 0.1947(2) 0.3287(2)
C5 C 0.4969(3) 0.20698(17) 0.38822(19)
C6 C 0.4576(3) 0.16077(16) 0.4230(2)
C7 C 0.4601(3) 0.10245(18) 0.3987(2)
C8 C 0.4187(4) 0.05952(19) 0.4353(3)
H4 H 0.4168 0.0199 0.4203
C9 C 0.3811(4) 0.07526(19) 0.4930(3)
H5 H 0.3536 0.0465 0.5181
C10 C 0.3837(3) 0.13441(17) 0.5147(2)
H6 H 0.3590 0.1447 0.5552
N2 N 0.4197(2) 0.17629(13) 0.48016(16)
C11 C 0.5386(3) 0.1346(2) 0.3046(2)
H7 H 0.5658 0.1257 0.2649
C12 C 0.5011(3) 0.0910(2) 0.3379(3)
H8 H 0.5021 0.0522 0.3206
Cu2 Cu 0.25066(3) 0.369168(19) 0.50728(2)
N3 N 0.2296(2) 0.43322(13) 0.42918(15)
C13 C 0.2120(3) 0.42938(17) 0.35450(19)
H9 H 0.2052 0.3919 0.3318
C14 C 0.2033(3) 0.47875(19) 0.3085(2)
H10 H 0.1910 0.4741 0.2557
C15 C 0.2124(3) 0.53347(18) 0.3390(2)
H11 H 0.2070 0.5667 0.3076
C16 C 0.2300(3) 0.54018(17) 0.4180(2)
C17 C 0.2395(3) 0.48805(16) 0.46074(19)
C18 C 0.2604(3) 0.49089(15) 0.54184(19)
C19 C 0.2700(3) 0.54504(16) 0.5788(2)
C20 C 0.2869(3) 0.54396(18) 0.6581(2)
H12 H 0.2922 0.5793 0.6857
C21 C 0.2953(3) 0.49129(18) 0.6942(2)
H13 H 0.3070 0.4902 0.7472
C22 C 0.2867(3) 0.43903(17) 0.65356(19)
H14 H 0.2927 0.4031 0.6799
N4 N 0.2702(2) 0.43820(13) 0.57859(15)
C23 C 0.2413(3) 0.59516(17) 0.4578(2)
H15 H 0.2358 0.6304 0.4301
C24 C 0.2594(3) 0.59758(17) 0.5337(2)
H16 H 0.2653 0.6345 0.5578
Cu3 Cu 0.06278(3) 0.237270(19) 1.01493(2)
N5 N 0.0759(2) 0.32281(13) 1.04651(17)
C25 C 0.1056(3) 0.36827(17) 1.0137(2)
H17 H 0.1339 0.3616 0.9740
C26 C 0.0961(4) 0.42588(19) 1.0365(3)
H18 H 0.1183 0.4574 1.0125
C27 C 0.0549(4) 0.43662(19) 1.0932(3)
H19 H 0.0483 0.4756 1.1083
C28 C 0.0219(3) 0.38962(19) 1.1294(2)
C29 C 0.0349(3) 0.33301(17) 1.1033(2)
C30 C 0.0012(3) 0.28269(17) 1.1355(2)
C31 C -0.0427(3) 0.2891(2) 1.1943(2)
C32 C -0.0719(3) 0.2377(2) 1.2238(2)
H20 H -0.1021 0.2400 1.2631
C33 C -0.0565(3) 0.1848(2) 1.1958(2)
H21 H -0.0745 0.1500 1.2163
C34 C -0.0137(3) 0.18192(19) 1.1363(2)
H22 H -0.0039 0.1448 1.1171
N6 N 0.0135(2) 0.22916(13) 1.10587(16)
C35 C -0.0219(4) 0.3948(2) 1.1903(2)
H23 H -0.0288 0.4323 1.2095
C36 C -0.0532(4) 0.3475(2) 1.2206(2)
H24 H -0.0828 0.3528 1.2600
O1 O 0.3890(2) 0.24810(10) 0.59110(14)
O2 O 0.26457(19) 0.31467(11) 0.59035(12)
C37 C 0.3222(3) 0.27060(16) 0.61711(19)
C38 C 0.3088(3) 0.24201(16) 0.68512(19)
H25 H 0.3374 0.2042 0.6986
C39 C 0.2583(3) 0.26729(16) 0.72823(19)
H26 H 0.2286 0.3048 0.7140
O3 O 0.45010(18) 0.34780(10) 0.51846(13)
O4 O 0.5806(2) 0.35064(11) 0.63178(14)
C40 C 0.5168(3) 0.37493(16) 0.5753(2)
C41 C 0.5185(3) 0.43980(15) 0.5695(2)
H27 H 0.5380 0.4619 0.6151
C42 C 0.4938(3) 0.46867(15) 0.5033(2)
H28 H 0.4665 0.4468 0.4578
O5 O 0.23975(19) 0.19043(11) 0.93012(12)
O6 O 0.1170(2) 0.25745(11) 0.93308(14)
C43 C 0.1836(3) 0.23539(16) 0.90587(19)
C44 C 0.1952(3) 0.26484(16) 0.83822(19)
H29 H 0.1651 0.3024 0.8248
C45 C 0.2466(3) 0.24040(16) 0.79538(19)
H30 H 0.2773 0.2031 0.8099
O7 O 0.05509(18) 0.15300(10) 0.99465(13)
O8 O -0.0849(2) 0.15651(12) 0.88727(14)
C46 C -0.0169(3) 0.12932(16) 0.9382(2)
C47 C -0.0193(3) 0.06447(16) 0.9365(2)
H31 H -0.0401 0.0455 0.8886
C48 C 0.0067(3) 0.03139(15) 0.9996(2)
H32 H 0.0358 0.0505 1.0470
O9 O 0.6164(2) 0.24214(12) 0.58935(15)
H33 H 0.619(3) 0.2152(16) 0.621(2)
H34 H 0.647(3) 0.2722(8) 0.614(2)
O10 O -0.1159(2) 0.26355(12) 0.93369(16)
H35 H -0.114(2) 0.2933(15) 0.907(2)
H36 H -0.153(2) 0.272(2) 0.9612(15)
Cu1B Cu 0.55772(3) 0.737403(19) 0.49329(2)
Cu1C Cu 0.44228(3) 0.237403(19) 0.00671(2)
N1B N 0.5082(2) 0.73741(13) 0.58510(16)
C1B C 0.4756(3) 0.69311(19) 0.6178(2)
H1B H 0.4797 0.6546 0.6002
C2B C 0.4350(3) 0.7019(2) 0.6779(2)
H2B H 0.4130 0.6695 0.7005
C3B C 0.4275(3) 0.7569(2) 0.7036(2)
H3B H 0.3988 0.7627 0.7433
C4B C 0.4622(3) 0.8053(2) 0.6713(2)
C5B C 0.5031(3) 0.79302(17) 0.61178(19)
C6B C 0.5424(3) 0.83923(16) 0.5770(2)
C7B C 0.5399(3) 0.89755(18) 0.6013(2)
C8B C 0.5813(4) 0.94048(19) 0.5647(3)
H4B H 0.5832 0.9801 0.5797
C9B C 0.6189(4) 0.92474(19) 0.5070(3)
H5B H 0.6464 0.9535 0.4819
C10B C 0.6163(3) 0.86559(17) 0.4853(2)
H6B H 0.6410 0.8553 0.4448
N2B N 0.5803(2) 0.82371(13) 0.51984(16)
C11B C 0.4614(3) 0.8654(2) 0.6954(2)
H7B H 0.4342 0.8743 0.7351
C12B C 0.4989(3) 0.9090(2) 0.6621(3)
H8B H 0.4979 0.9478 0.6794
Cu2C Cu 0.25066(3) 0.130832(19) 1.00728(2)
Cu2C_2 Cu 0.25066(3) 0.130832(19) 0.00728(2)
N3C N 0.2296(2) 0.06678(13) 0.92918(15)
C13C C 0.2120(3) 0.07062(17) 0.85450(19)
H9C H 0.2052 0.1081 0.8318
C14C C 0.2033(3) 0.02125(19) 0.8085(2)
H10C H 0.1910 0.0259 0.7557
C15C C 0.2124(3) -0.03347(18) 0.8390(2)
H11C H 0.2070 -0.0667 0.8076
C16C C 0.2300(3) -0.04018(17) 0.9180(2)
C17C C 0.2395(3) 0.01195(16) 0.96074(19)
C18C C 0.2604(3) 0.00911(15) 1.04184(19)
C19C C 0.2700(3) -0.04504(16) 1.0788(2)
C20C C 0.2869(3) -0.04396(18) 1.1581(2)
H12C H 0.2922 -0.0793 1.1857
C21C C 0.2953(3) 0.00871(18) 1.1942(2)
H13C H 0.3070 0.0098 1.2472
C22C C 0.2867(3) 0.06097(17) 1.15356(19)
H14C H 0.2927 0.0969 1.1799
N4C N 0.2702(2) 0.06180(13) 1.07859(15)
C23C C 0.2413(3) -0.09516(17) 0.9578(2)
H15C H 0.2358 -0.1304 0.9301
C24C C 0.2594(3) -0.09758(17) 1.0337(2)
H16C H 0.2653 -0.1345 1.0578
Cu3C Cu 0.06278(3) 0.262730(19) 0.51493(2)
Cu3B Cu -0.06278(3) -0.237270(19) 0.98507(2)
N5C N 0.0759(2) 0.17719(13) 0.54651(17)
C25C C 0.1056(3) 0.13173(17) 0.5137(2)
H17C H 0.1339 0.1384 0.4740
C26C C 0.0961(4) 0.07412(19) 0.5365(3)
H18C H 0.1183 0.0426 0.5125
C27C C 0.0549(4) 0.06338(19) 0.5932(3)
H19C H 0.0483 0.0244 0.6083
C28C C 0.0219(3) 0.11038(19) 0.6294(2)
C29C C 0.0349(3) 0.16699(17) 0.6033(2)
C30C C 0.0012(3) 0.21731(17) 0.6355(2)
C31C C -0.0427(3) 0.2109(2) 0.6943(2)
C32C C -0.0719(3) 0.2623(2) 0.7238(2)
H20C H -0.1021 0.2600 0.7631
C33C C -0.0565(3) 0.3152(2) 0.6958(2)
H21C H -0.0745 0.3500 0.7163
C34C C -0.0137(3) 0.31808(19) 0.6363(2)
H22C H -0.0039 0.3552 0.6171
N6C N 0.0135(2) 0.27084(13) 0.60587(16)
C35C C -0.0219(4) 0.1052(2) 0.6903(2)
H23C H -0.0288 0.0677 0.7095
C36C C -0.0532(4) 0.1525(2) 0.7206(2)
H24C H -0.0828 0.1472 0.7600
O1C O 0.3890(2) 0.25190(10) 0.09110(14)
O1B O 0.6110(2) 0.75190(10) 0.40890(14)
O2C O 0.26457(19) 0.18533(11) 0.09035(12)
O2C_2 O 0.26457(19) 0.18533(11) 1.09035(12)
C37C C 0.3222(3) 0.22940(16) 0.11711(19)
C38C C 0.3088(3) 0.25799(16) 0.18512(19)
H25C H 0.3374 0.2958 0.1986
C39C C 0.2583(3) 0.23271(16) 0.22823(19)
H26C H 0.2286 0.1952 0.2140
O3B O 0.54990(18) 0.65220(10) 0.48154(13)
O4B O 0.4194(2) 0.64936(11) 0.36822(14)
C40B C 0.4832(3) 0.62507(16) 0.4247(2)
C41B C 0.4815(3) 0.56020(15) 0.4305(2)
H27B H 0.4620 0.5381 0.3849
C42B C 0.5062(3) 0.53133(15) 0.4967(2)
H28B H 0.5335 0.5532 0.5422
O5C O 0.23975(19) 0.30957(11) 0.43012(12)
O6C O 0.1170(2) 0.24255(11) 0.43308(14)
C43C C 0.1836(3) 0.26461(16) 0.40587(19)
C44C C 0.1952(3) 0.23516(16) 0.33822(19)
H29C H 0.1651 0.1976 0.3248
C45C C 0.2466(3) 0.25960(16) 0.29538(19)
H30C H 0.2773 0.2969 0.3099
O7B O -0.05509(18) -0.15300(10) 1.00535(13)
O7C O 0.05509(18) 0.34700(10) 0.49465(13)
O8B O 0.0849(2) -0.15651(12) 1.11273(14)
C46B C 0.0169(3) -0.12932(16) 1.0618(2)
C47B C 0.0193(3) -0.06447(16) 1.0635(2)
H31B H 0.0401 -0.0455 1.1114
C48B C -0.0067(3) -0.03139(15) 1.0004(2)
H32B H -0.0358 -0.0505 0.9530
O9B O 0.3836(2) 0.75786(12) 0.41065(15)
H33B H 0.381(3) 0.7848(16) 0.379(2)
H34B H 0.353(3) 0.7278(8) 0.386(2)
O10C O -0.1159(2) 0.23645(12) 0.43369(16)
H35C H -0.114(2) 0.2067(15) 0.407(2)
H36C H -0.153(2) 0.228(2) 0.4612(15)
O11 O -0.2460(3) 0.20310(18) 0.5160(2)
H37 H -0.251(4) 0.1666(6) 0.509(3)
H38 H -0.297(3) 0.215(2) 0.529(4)
O12 O -0.2765(3) 0.07793(17) 0.5557(2)
H39 H -0.260(5) 0.065(3) 0.5178(19)
H40 H -0.260(5) 0.050(2) 0.589(3)
O13 O -0.2272(3) 0.05512(15) 0.4180(2)
H41 H -0.2866(10) 0.0460(11) 0.3857(7)
H42 H -0.1913(16) 0.0238(7) 0.4289(11)
O14 O -0.1241(3) 0.13369(15) 0.3505(2)
H43 H -0.159(4) 0.110(2) 0.368(4)
H44 H -0.065(3) 0.117(2) 0.356(4)
O15 O 0.6344(3) 0.13334(16) 0.6601(2)
H45 H 0.640(5) 0.115(3) 0.622(3)
H46 H 0.579(3) 0.121(3) 0.667(3)
B1 B 0.1159(5) 0.4432(2) 0.7968(3)
F1 F 0.1833(3) 0.40245(12) 0.78421(18)
F2 F 0.1760(2) 0.49010(13) 0.83467(18)
F3 F 0.0499(3) 0.46207(16) 0.72907(19)
F4 F 0.0615(3) 0.42024(18) 0.8387(2)
B2 B 0.3999(4) 0.0619(2) 0.7260(3)
F5 F 0.3621(9) 0.0057(2) 0.7133(7)
F6 F 0.4645(10) 0.0746(7) 0.6859(7)
F7 F 0.3169(5) 0.1011(2) 0.7128(5)
F8 F 0.4599(6) 0.0641(3) 0.8056(3)
loop_
_geom_bond_atom_site_label_1
_geom_bond_atom_site_label_2
_geom_bond_site_symmetry_1
_geom_bond_site_symmetry_2
Cu1 N1 1_555 1_555
N1 C1 1_555 1_555
C1 H1 1_555 1_555
C2 C1 1_555 1_555
H2 C2 1_555 1_555
C3 C2 1_555 1_555
H3 C3 1_555 1_555
C4 C3 1_555 1_555
C5 N1 1_555 1_555
C6 C5 1_555 1_555
C7 C6 1_555 1_555
C8 C7 1_555 1_555
H4 C8 1_555 1_555
C9 C8 1_555 1_555
H5 C9 1_555 1_555
C10 C9 1_555 1_555
H6 C10 1_555 1_555
N2 Cu1 1_555 1_555
C11 C4 1_555 1_555
H7 C11 1_555 1_555
C12 C7 1_555 1_555
H8 C12 1_555 1_555
Cu2 N3 1_555 1_555
N3 C13 1_555 1_555
C13 H9 1_555 1_555
C14 C13 1_555 1_555
H10 C14 1_555 1_555
C15 C14 1_555 1_555
H11 C15 1_555 1_555
C16 C15 1_555 1_555
C17 N3 1_555 1_555
C18 C17 1_555 1_555
C19 C18 1_555 1_555
C20 C19 1_555 1_555
H12 C20 1_555 1_555
C21 C20 1_555 1_555
H13 C21 1_555 1_555
C22 C21 1_555 1_555
H14 C22 1_555 1_555
N4 Cu2 1_555 1_555
C23 C16 1_555 1_555
H15 C23 1_555 1_555
C24 C19 1_555 1_555
H16 C24 1_555 1_555
Cu3 N5 1_555 1_555
N5 C25 1_555 1_555
C25 H17 1_555 1_555
C26 C25 1_555 1_555
H18 C26 1_555 1_555
C27 C26 1_555 1_555
H19 C27 1_555 1_555
C28 C27 1_555 1_555
C29 N5 1_555 1_555
C30 C29 1_555 1_555
C31 C30 1_555 1_555
C32 C31 1_555 1_555
H20 C32 1_555 1_555
C33 C32 1_555 1_555
H21 C33 1_555 1_555
C34 C33 1_555 1_555
H22 C34 1_555 1_555
N6 Cu3 1_555 1_555
C35 C28 1_555 1_555
H23 C35 1_555 1_555
C36 C31 1_555 1_555
H24 C36 1_555 1_555
O1 Cu1 1_555 1_555
O2 Cu2 1_555 1_555
C37 O1 1_555 1_555
C38 C37 1_555 1_555
H25 C38 1_555 1_555
C39 C38 1_555 1_555
H26 C39 1_555 1_555
O3 Cu1 1_555 1_555
O4 C40 1_555 1_555
C40 O3 1_555 1_555
C41 C40 1_555 1_555
H27 C41 1_555 1_555
C42 C41 1_555 1_555
H28 C42 1_555 1_555
O5 C43 1_555 1_555
O6 Cu3 1_555 1_555
C43 O6 1_555 1_555
C44 C43 1_555 1_555
H29 C44 1_555 1_555
C45 C39 1_555 1_555
H30 C45 1_555 1_555
O7 Cu3 1_555 1_555
O8 C46 1_555 1_555
C46 O7 1_555 1_555
C47 C46 1_555 1_555
H31 C47 1_555 1_555
C48 C47 1_555 1_555
H32 C48 1_555 1_555
O9 Cu1 1_555 1_555
H33 O9 1_555 1_555
H34 O9 1_555 1_555
O10 Cu3 1_555 1_555
H35 O10 1_555 1_555
H36 O10 1_555 1_555
O11 H37 1_555 1_555
H38 O11 1_555 1_555
O12 H39 1_555 1_555
H40 O12 1_555 1_555
O13 H41 1_555 1_555
H42 O13 1_555 1_555
O14 H43 1_555 1_555
H44 O14 1_555 1_555
O15 H45 1_555 1_555
H46 O15 1_555 1_555
B1 F1 1_555 1_555
F2 B1 1_555 1_555
F3 B1 1_555 1_555
F4 B1 1_555 1_555
B2 F5 1_555 1_555
F6 B2 1_555 1_555
F7 B2 1_555 1_555
F8 B2 1_555 1_555
Cu1B N1B 1_555 1_555
Cu1C O1C 1_555 1_555
N1B C1B 1_555 1_555
C1B H1B 1_555 1_555
C2B C1B 1_555 1_555
H2B C2B 1_555 1_555
C3B C2B 1_555 1_555
H3B C3B 1_555 1_555
C4B C3B 1_555 1_555
C5B N1B 1_555 1_555
C6B C5B 1_555 1_555
C7B C6B 1_555 1_555
C8B C7B 1_555 1_555
H4B C8B 1_555 1_555
C9B C8B 1_555 1_555
H5B C9B 1_555 1_555
C10B C9B 1_555 1_555
H6B C10B 1_555 1_555
N2B Cu1B 1_555 1_555
C11B C4B 1_555 1_555
H7B C11B 1_555 1_555
C12B C7B 1_555 1_555
H8B C12B 1_555 1_555
Cu2C O5 1_555 1_555
Cu2C_2 O2C 1_555 1_555
N3C Cu2C 1_555 1_555
C13C N3C 1_555 1_555
H9C C13C 1_555 1_555
C14C C13C 1_555 1_555
H10C C14C 1_555 1_555
C15C C14C 1_555 1_555
H11C C15C 1_555 1_555
C16C C15C 1_555 1_555
C17C N3C 1_555 1_555
C18C C17C 1_555 1_555
C19C C18C 1_555 1_555
C20C C19C 1_555 1_555
H12C C20C 1_555 1_555
C21C C20C 1_555 1_555
H13C C21C 1_555 1_555
C22C C21C 1_555 1_555
H14C C22C 1_555 1_555
N4C Cu2C 1_555 1_555
C23C C16C 1_555 1_555
H15C C23C 1_555 1_555
C24C C19C 1_555 1_555
H16C C24C 1_555 1_555
Cu3C N5C 1_555 1_555
Cu3B O7B 1_555 1_555
N5C C25C 1_555 1_555
C25C H17C 1_555 1_555
C26C C25C 1_555 1_555
H18C C26C 1_555 1_555
C27C C26C 1_555 1_555
H19C C27C 1_555 1_555
C28C C27C 1_555 1_555
C29C N5C 1_555 1_555
C30C C29C 1_555 1_555
C31C C30C 1_555 1_555
C32C C31C 1_555 1_555
H20C C32C 1_555 1_555
C33C C32C 1_555 1_555
H21C C33C 1_555 1_555
C34C C33C 1_555 1_555
H22C C34C 1_555 1_555
N6C Cu3C 1_555 1_555
C35C C28C 1_555 1_555
H23C C35C 1_555 1_555
C36C C31C 1_555 1_555
H24C C36C 1_555 1_555
O1C C37C 1_555 1_555
O1B Cu1B 1_555 1_555
O2C C37C 1_555 1_555
O2C_2 Cu2C 1_555 1_555
C37C C38C 1_555 1_555
C38C H25C 1_555 1_555
C39C C38C 1_555 1_555
H26C C39C 1_555 1_555
O3B Cu1B 1_555 1_555
O4B C40B 1_555 1_555
C40B O3B 1_555 1_555
C41B C40B 1_555 1_555
H27B C41B 1_555 1_555
C42B C42 1_555 1_555
H28B C42B 1_555 1_555
O5C Cu2 1_555 1_555
O6C Cu3C 1_555 1_555
C43C O5C 1_555 1_555
C44C C43C 1_555 1_555
H29C C44C 1_555 1_555
C45C C39C 1_555 1_555
H30C C45C 1_555 1_555
O7B C46B 1_555 1_555
O7C Cu3C 1_555 1_555
O8B C46B 1_555 1_555
C46B C47B 1_555 1_555
C47B H31B 1_555 1_555
C48B C48 1_555 1_555
H32B C48B 1_555 1_555
O9B Cu1B 1_555 1_555
H33B O9B 1_555 1_555
H34B O9B 1_555 1_555
O10C Cu3C 1_555 1_555
H35C O10C 1_555 1_555
H36C O10C 1_555 1_555
C4 C5 1_555 1_555
C6 N2 1_555 1_555
C10 N2 1_555 1_555
C11 C12 1_555 1_555
C16 C17 1_555 1_555
C18 N4 1_555 1_555
C22 N4 1_555 1_555
C23 C24 1_555 1_555
C28 C29 1_555 1_555
C30 N6 1_555 1_555
C34 N6 1_555 1_555
C35 C36 1_555 1_555
O2 C37 1_555 1_555
C44 C45 1_555 1_555
C4B C5B 1_555 1_555
C6B N2B 1_555 1_555
C10B N2B 1_555 1_555
C11B C12B 1_555 1_555
C16C C17C 1_555 1_555
C18C N4C 1_555 1_555
C22C N4C 1_555 1_555
C23C C24C 1_555 1_555
C28C C29C 1_555 1_555
C30C N6C 1_555 1_555
C34C N6C 1_555 1_555
C35C C36C 1_555 1_555
C41B C42B 1_555 1_555
O6C C43C 1_555 1_555
C44C C45C 1_555 1_555
C47B C48B 1_555 1_555

#END
