
#######################################################################
#
#                 Cambridge Crystallographic Data Centre
#                                CCDC 
#
#######################################################################
#
# If this CIF has been generated from an entry in the Cambridge 
# Structural Database, then it will include bibliographic, chemical, 
# crystal, experimental, refinement or atomic coordinate data resulting 
# from the CCDC's data processing and validation procedures.
#
#######################################################################

data_PIGHIX
_chemical_formula_moiety         '(C48 H42 B1 Cu3 F4 N6 O13 1+)n'
_symmetry_cell_setting           monoclinic
_symmetry_space_group_name_H-M   'C 2/c'
_symmetry_Int_Tables_number      15
_space_group_name_Hall           '-C 2yc'
loop_
_symmetry_equiv_pos_site_id
_symmetry_equiv_pos_as_xyz
1 x,y,z
2 1/2+x,1/2+y,z
3 -x,y,1/2-z
4 1/2-x,1/2+y,1/2-z
5 -x,-y,-z
6 1/2-x,1/2-y,-z
7 x,-y,1/2+z
8 1/2+x,1/2-y,1/2+z
_cell_length_a                   19.0949(9)
_cell_length_b                   22.7667(11)
_cell_length_c                   13.3952(7)
_cell_angle_alpha                90
_cell_angle_beta                 113.1850(10)
_cell_angle_gamma                90
_cell_volume                     5352.97
loop_
_atom_site_label
_atom_site_type_symbol
_atom_site_fract_x
_atom_site_fract_y
_atom_site_fract_z
_atom_site_U_iso_or_equiv
_atom_site_thermal_displace_type
Cu1 Cu 0.49585(2) 0.763352(18) 0.55696(3) 0.0451 Uani
Cu2 Cu 0.5000 0.86874(2) 0.7500 0.0420 Uani
N1 N 0.46740(19) 0.67755(13) 0.5449(3) 0.0520 Uani
N2 N 0.40514(18) 0.76713(14) 0.4159(3) 0.0492 Uani
N3 N 0.57436(16) 0.93534(13) 0.8045(2) 0.0426 Uani
O1 O 0.51142(14) 0.84794(11) 0.5652(2) 0.0494 Uani
O2 O 0.62055(17) 0.84719(13) 0.5407(3) 0.0679 Uani
O3 O 0.57906(17) 0.74621(11) 0.6937(2) 0.0579 Uani
O4 O 0.57967(14) 0.81169(11) 0.8185(2) 0.0516 Uani
O5 O 0.5781(2) 0.73880(15) 0.4618(3) 0.0745 Uani
H1 H 0.557(3) 0.737(6) 0.3889(7) 0.3100 Uiso
H2 H 0.616(4) 0.764(3) 0.468(7) 0.3100 Uiso
C1 C 0.5011(3) 0.63365(18) 0.6111(4) 0.0680 Uani
H3 H 0.5417 0.6420 0.6775 0.0820 Uiso
C2 C 0.4787(3) 0.5757(2) 0.5859(6) 0.0891 Uani
H4 H 0.5033 0.5456 0.6353 0.1070 Uiso
C3 C 0.4213(3) 0.5625(2) 0.4901(6) 0.0921 Uani
H5 H 0.4060 0.5233 0.4731 0.1110 Uiso
C4 C 0.3847(3) 0.6073(2) 0.4165(5) 0.0718 Uani
C5 C 0.3240(4) 0.5997(3) 0.3134(6) 0.1007 Uani
H6 H 0.3058 0.5615 0.2911 0.1210 Uiso
C6 C 0.2921(3) 0.6443(3) 0.2474(5) 0.0950 Uani
H7 H 0.2526 0.6369 0.1796 0.1140 Uiso
C7 C 0.3167(3) 0.7038(3) 0.2774(4) 0.0745 Uani
C8 C 0.2862(3) 0.7539(3) 0.2144(4) 0.0897 Uani
H8 H 0.2468 0.7499 0.1453 0.1080 Uiso
C9 C 0.3133(3) 0.8080(3) 0.2527(4) 0.0859 Uani
H9 H 0.2918 0.8417 0.2114 0.1030 Uiso
C10 C 0.3735(2) 0.8131(2) 0.3542(3) 0.0648 Uani
H10 H 0.3923 0.8508 0.3798 0.0770 Uiso
C11 C 0.3768(2) 0.7130(2) 0.3789(3) 0.0535 Uani
C12 C 0.4101(2) 0.66493(18) 0.4486(3) 0.0537 Uani
C13 C 0.6491(2) 0.93375(19) 0.8613(3) 0.0557 Uani
H11 H 0.6737 0.8972 0.8787 0.0670 Uiso
C14 C 0.6920(2) 0.9849(2) 0.8960(4) 0.0665 Uani
H12 H 0.7448 0.9823 0.9368 0.0800 Uiso
C15 C 0.6585(3) 1.0382(2) 0.8714(4) 0.0646 Uani
H13 H 0.6875 1.0725 0.8953 0.0770 Uiso
C16 C 0.5801(2) 1.04172(16) 0.8099(3) 0.0517 Uani
C17 C 0.5379(3) 1.09580(17) 0.7788(3) 0.0627 Uani
H14 H 0.5637 1.1318 0.7990 0.0760 Uiso
C18 C 0.5404(2) 0.98872(15) 0.7795(3) 0.0429 Uani
C19 C 0.5678(2) 0.87288(16) 0.5522(3) 0.0460 Uani
C20 C 0.5657(2) 0.93778(15) 0.5472(3) 0.0460 Uani
H15 H 0.6122 0.9583 0.5729 0.0550 Uiso
C21 C 0.5017(2) 0.96852(15) 0.5085(3) 0.0439 Uani
H16 H 0.4555 0.9482 0.4908 0.0530 Uiso
C22 C 0.6055(2) 0.76806(14) 0.7868(3) 0.0416 Uani
C23 C 0.6736(2) 0.73914(16) 0.8674(3) 0.0466 Uani
H17 H 0.6871 0.7017 0.8510 0.0560 Uiso
C24 C 0.7163(2) 0.76331(16) 0.9610(3) 0.0451 Uani
H18 H 0.7018 0.8003 0.9777 0.0540 Uiso
Cu1E Cu 1.00415(2) 0.736648(18) 1.44304(3) 0.0451 Uani
Cu1D Cu 0.50415(2) 1.236648(18) 0.44304(3) 0.0451 Uani
Cu2G Cu 1.0000 0.63126(2) 1.2500 0.0420 Uani
N1E N 1.03260(19) 0.82245(13) 1.4551(3) 0.0520 Uani
N2E N 1.09486(18) 0.73287(14) 1.5841(3) 0.0492 Uani
N3B N 0.42564(16) 0.93534(13) 0.6955(2) 0.0426 Uani
O1D O 0.48858(14) 1.15206(11) 0.4348(2) 0.0494 Uani
O1E O 0.98858(14) 0.65206(11) 1.4348(2) 0.0494 Uani
O2D O 0.37945(17) 1.15281(13) 0.4593(3) 0.0679 Uani
O3E O 0.92094(17) 0.75379(11) 1.3063(2) 0.0579 Uani
O4E O 0.92033(14) 0.68831(11) 1.1815(2) 0.0516 Uani
O4B O 0.42033(14) 0.81169(11) 0.6815(2) 0.0516 Uani
O5E O 0.9219(2) 0.76120(15) 1.5382(3) 0.0745 Uani
H1E H 0.943(3) 0.763(6) 1.6111(7) 0.3100 Uiso
H2E H 0.884(4) 0.736(3) 1.532(7) 0.3100 Uiso
C1E C 0.9989(3) 0.86635(18) 1.3889(4) 0.0680 Uani
H3E H 0.9583 0.8580 1.3225 0.0820 Uiso
C2E C 1.0213(3) 0.9243(2) 1.4141(6) 0.0891 Uani
H4E H 0.9967 0.9544 1.3647 0.1070 Uiso
C3E C 1.0787(3) 0.9375(2) 1.5099(6) 0.0921 Uani
H5E H 1.0940 0.9767 1.5269 0.1110 Uiso
C4E C 1.1153(3) 0.8927(2) 1.5835(5) 0.0718 Uani
C5E C 1.1760(4) 0.9003(3) 1.6866(6) 0.1007 Uani
H6E H 1.1942 0.9385 1.7089 0.1210 Uiso
C6E C 1.2079(3) 0.8557(3) 1.7526(5) 0.0950 Uani
H7E H 1.2474 0.8631 1.8204 0.1140 Uiso
C7E C 1.1833(3) 0.7962(3) 1.7226(4) 0.0745 Uani
C8E C 1.2138(3) 0.7461(3) 1.7856(4) 0.0897 Uani
H8E H 1.2532 0.7501 1.8547 0.1080 Uiso
C9E C 1.1867(3) 0.6920(3) 1.7473(4) 0.0859 Uani
H9E H 1.2082 0.6583 1.7886 0.1030 Uiso
C10E C 1.1265(2) 0.6869(2) 1.6458(3) 0.0648 Uani
H10E H 1.1077 0.6492 1.6202 0.0770 Uiso
C11E C 1.1232(2) 0.7870(2) 1.6211(3) 0.0535 Uani
C12E C 1.0899(2) 0.83507(18) 1.5514(3) 0.0537 Uani
C13B C 0.3509(2) 0.93375(19) 0.6387(3) 0.0557 Uani
H11B H 0.3263 0.8972 0.6213 0.0670 Uiso
C14B C 0.3080(2) 0.9849(2) 0.6040(4) 0.0665 Uani
H12B H 0.2552 0.9823 0.5632 0.0800 Uiso
C15B C 0.3415(3) 1.0382(2) 0.6286(4) 0.0646 Uani
H13B H 0.3125 1.0725 0.6047 0.0770 Uiso
C16B C 0.4199(2) 1.04172(16) 0.6901(3) 0.0517 Uani
C17B C 0.4621(3) 1.09580(17) 0.7212(3) 0.0627 Uani
H14B H 0.4363 1.1318 0.7010 0.0760 Uiso
C18B C 0.4596(2) 0.98872(15) 0.7205(3) 0.0429 Uani
C19D C 0.4322(2) 1.12712(16) 0.4478(3) 0.0460 Uani
C20D C 0.4343(2) 1.06222(15) 0.4528(3) 0.0460 Uani
H15D H 0.3878 1.0417 0.4271 0.0550 Uiso
C21D C 0.4983(2) 1.03148(15) 0.4915(3) 0.0439 Uani
H16D H 0.5445 1.0518 0.5092 0.0530 Uiso
C22E C 0.8945(2) 0.73194(14) 1.2132(3) 0.0416 Uani
C23E C 0.8264(2) 0.76086(16) 1.1326(3) 0.0466 Uani
H17E H 0.8129 0.7983 1.1490 0.0560 Uiso
C24E C 0.7837(2) 0.73669(16) 1.0390(3) 0.0451 Uani
H18E H 0.7982 0.6997 1.0223 0.0540 Uiso
O6 O 0.5000 0.7017(4) 0.2500 0.1353 Uani
H19 H 0.4673(4) 0.6755(4) 0.2580(9) 0.3100 Uiso
H19B H 0.5327(4) 0.6755(4) 0.2420(9) 0.3100 Uiso
O7 O 0.5701(5) 0.5650(3) 0.3455(6) 0.1709 Uani
H20 H 0.538(8) 0.571(9) 0.276(5) 0.3100 Uiso
H21 H 0.593(8) 0.600(3) 0.356(15) 0.3100 Uiso
O8 O 0.6576(3) 0.6330(2) 0.5275(5) 0.1192 Uani
H23 H 0.620(4) 0.606(3) 0.510(12) 0.3100 Uiso
H24 H 0.628(5) 0.665(3) 0.515(11) 0.3100 Uiso
B1 B 0.7143(4) 0.5592(2) 0.8208(5) 0.0866 Uani
F1 F 0.6786(5) 0.5621(4) 0.7074(6) 0.1083 Uiso
F2 F 0.6918(5) 0.5080(3) 0.8540(7) 0.1083 Uiso
F3 F 0.7229(5) 0.5990(4) 0.9045(6) 0.1083 Uiso
F4 F 0.7790(4) 0.5346(4) 0.8276(7) 0.1083 Uiso
loop_
_atom_site_aniso_label
_atom_site_aniso_U_11
_atom_site_aniso_U_22
_atom_site_aniso_U_33
_atom_site_aniso_U_23
_atom_site_aniso_U_13
_atom_site_aniso_U_12
Cu1 0.0531(3) 0.0354(3) 0.0368(3) 0.00095(17) 0.0070(2) -0.00140(18)
Cu2 0.0372(3) 0.0365(3) 0.0418(4) 0.000 0.0044(3) 0.000
N1 0.063(2) 0.0402(17) 0.054(2) -0.0032(14) 0.0244(17) -0.0015(15)
N2 0.0478(18) 0.058(2) 0.0392(17) 0.0012(15) 0.0142(15) -0.0043(14)
N3 0.0419(16) 0.0458(17) 0.0379(16) -0.0012(13) 0.0134(14) -0.0026(13)
O1 0.0568(15) 0.0345(13) 0.0531(16) 0.0039(11) 0.0175(13) -0.0021(11)
O2 0.0605(18) 0.0565(17) 0.087(2) -0.0021(16) 0.0292(17) 0.0067(14)
O3 0.0709(18) 0.0465(15) 0.0373(15) -0.0037(12) 0.0010(13) 0.0125(13)
O4 0.0468(14) 0.0508(15) 0.0432(14) -0.0070(12) 0.0026(12) 0.0135(12)
O5 0.085(2) 0.072(2) 0.065(2) -0.0001(16) 0.0279(19) 0.0019(17)
C1 0.081(3) 0.046(2) 0.077(3) 0.008(2) 0.031(3) 0.003(2)
C2 0.102(4) 0.045(3) 0.134(5) 0.007(3) 0.061(4) 0.002(3)
C3 0.097(4) 0.046(3) 0.152(6) -0.023(3) 0.069(4) -0.016(3)
C4 0.073(3) 0.061(3) 0.096(4) -0.030(3) 0.049(3) -0.018(2)
C5 0.090(4) 0.104(5) 0.120(5) -0.071(4) 0.054(4) -0.047(4)
C6 0.071(3) 0.128(5) 0.079(4) -0.048(4) 0.022(3) -0.040(4)
C7 0.053(2) 0.120(4) 0.051(3) -0.025(3) 0.021(2) -0.024(3)
C8 0.057(3) 0.153(6) 0.045(3) 0.003(3) 0.005(2) -0.016(3)
C9 0.056(3) 0.128(5) 0.059(3) 0.036(3) 0.007(2) -0.003(3)
C10 0.056(2) 0.074(3) 0.056(3) 0.015(2) 0.013(2) -0.002(2)
C11 0.046(2) 0.070(3) 0.047(2) -0.014(2) 0.0210(19) -0.0096(19)
C12 0.055(2) 0.053(2) 0.060(2) -0.0176(19) 0.030(2) -0.0133(18)
C13 0.049(2) 0.060(2) 0.053(2) -0.0014(19) 0.0147(19) -0.0050(18)
C14 0.050(2) 0.079(3) 0.062(3) -0.006(2) 0.013(2) -0.020(2)
C15 0.072(3) 0.065(3) 0.059(3) -0.009(2) 0.028(2) -0.028(2)
C16 0.074(3) 0.046(2) 0.045(2) -0.0054(16) 0.034(2) -0.0138(19)
C17 0.101(3) 0.042(2) 0.058(3) -0.0044(18) 0.045(3) -0.011(2)
C18 0.0516(19) 0.047(2) 0.0339(18) -0.0029(15) 0.0208(16) -0.0031(16)
C19 0.052(2) 0.045(2) 0.0322(18) 0.0010(15) 0.0072(17) 0.0014(17)
C20 0.058(2) 0.0424(19) 0.0384(19) -0.0005(15) 0.0198(18) -0.0043(17)
C21 0.061(2) 0.0396(18) 0.0355(19) -0.0018(15) 0.0237(18) -0.0058(16)
C22 0.0456(19) 0.0362(18) 0.0367(19) 0.0007(15) 0.0096(16) 0.0013(15)
C23 0.052(2) 0.041(2) 0.042(2) 0.0016(16) 0.0135(18) 0.0097(16)
C24 0.047(2) 0.046(2) 0.040(2) 0.0015(15) 0.0148(17) 0.0089(15)
Cu1E 0.0531 0.0354 0.0368 0.00095 0.007 -0.0014
Cu1D 0.0531 0.0354 0.0368 0.00095 0.007 -0.0014
Cu2G 0.0372 0.0365 0.0418 0 0.0044 0
N1E 0.063 0.0402 0.054 -0.0032 0.0244 -0.0015
N2E 0.0478 0.058 0.0392 0.0012 0.0142 -0.0043
N3B 0.0419 0.0458 0.0379 0.0012 0.0134 0.0026
O1D 0.0568 0.0345 0.0531 0.0039 0.0175 -0.0021
O1E 0.0568 0.0345 0.0531 0.0039 0.0175 -0.0021
O2D 0.0605 0.0565 0.087 -0.0021 0.0292 0.0067
O3E 0.0709 0.0465 0.0373 -0.0037 0.001 0.0125
O4E 0.0468 0.0508 0.0432 -0.007 0.0026 0.0135
O4B 0.0468 0.0508 0.0432 0.007 0.0026 -0.0135
O5E 0.085 0.072 0.065 -0.0001 0.0279 0.0019
C1E 0.081 0.046 0.077 0.008 0.031 0.003
C2E 0.102 0.045 0.134 0.007 0.061 0.002
C3E 0.097 0.046 0.152 -0.023 0.069 -0.016
C4E 0.073 0.061 0.096 -0.03 0.049 -0.018
C5E 0.09 0.104 0.12 -0.071 0.054 -0.047
C6E 0.071 0.128 0.079 -0.048 0.022 -0.04
C7E 0.053 0.12 0.051 -0.025 0.021 -0.024
C8E 0.057 0.153 0.045 0.003 0.005 -0.016
C9E 0.056 0.128 0.059 0.036 0.007 -0.003
C10E 0.056 0.074 0.056 0.015 0.013 -0.002
C11E 0.046 0.07 0.047 -0.014 0.021 -0.0096
C12E 0.055 0.053 0.06 -0.0176 0.03 -0.0133
C13B 0.049 0.06 0.053 0.0014 0.0147 0.005
C14B 0.05 0.079 0.062 0.006 0.013 0.02
C15B 0.072 0.065 0.059 0.009 0.028 0.028
C16B 0.074 0.046 0.045 0.0054 0.034 0.0138
C17B 0.101 0.042 0.058 0.0044 0.045 0.011
C18B 0.0516 0.047 0.0339 0.0029 0.0208 0.0031
C19D 0.052 0.045 0.0322 0.001 0.0072 0.0014
C20D 0.058 0.0424 0.0384 -0.0005 0.0198 -0.0043
C21D 0.061 0.0396 0.0355 -0.0018 0.0237 -0.0058
C22E 0.0456 0.0362 0.0367 0.0007 0.0096 0.0013
C23E 0.052 0.041 0.042 0.0016 0.0135 0.0097
C24E 0.047 0.046 0.04 0.0015 0.0148 0.0089
O6 0.151(6) 0.174(7) 0.085(4) 0.000 0.051(4) 0.000
O7 0.203(6) 0.169(6) 0.178(6) -0.053(5) 0.115(5) -0.054(5)
O8 0.123(4) 0.106(3) 0.114(4) 0.004(3) 0.031(3) 0.021(3)
B1 0.112(5) 0.066(4) 0.073(4) 0.008(3) 0.027(4) 0.014(3)
loop_
_geom_bond_atom_site_label_1
_geom_bond_atom_site_label_2
_geom_bond_site_symmetry_1
_geom_bond_site_symmetry_2
Cu1 N1 1_555 1_555
Cu2 N3 1_555 1_555
N1 C1 1_555 1_555
N2 Cu1 1_555 1_555
N3 C13 1_555 1_555
O1 Cu1 1_555 1_555
O2 C19 1_555 1_555
O3 Cu1 1_555 1_555
O4 Cu2 1_555 1_555
O5 Cu1 1_555 1_555
H1 O5 1_555 1_555
H2 O5 1_555 1_555
C1 H3 1_555 1_555
C2 C1 1_555 1_555
H4 C2 1_555 1_555
C3 C2 1_555 1_555
H5 C3 1_555 1_555
C4 C3 1_555 1_555
C5 C4 1_555 1_555
H6 C5 1_555 1_555
C6 C5 1_555 1_555
H7 C6 1_555 1_555
C7 C6 1_555 1_555
C8 C7 1_555 1_555
H8 C8 1_555 1_555
C9 C8 1_555 1_555
H9 C9 1_555 1_555
C10 N2 1_555 1_555
H10 C10 1_555 1_555
C11 N2 1_555 1_555
C12 N1 1_555 1_555
C13 H11 1_555 1_555
C14 C13 1_555 1_555
H12 C14 1_555 1_555
C15 C14 1_555 1_555
H13 C15 1_555 1_555
C16 C15 1_555 1_555
C17 C16 1_555 1_555
H14 C17 1_555 1_555
C18 N3 1_555 1_555
C19 O1 1_555 1_555
C20 C19 1_555 1_555
H15 C20 1_555 1_555
C21 C20 1_555 1_555
H16 C21 1_555 1_555
C22 O3 1_555 1_555
C23 C22 1_555 1_555
H17 C23 1_555 1_555
C24 C23 1_555 1_555
H18 C24 1_555 1_555
O6 H19 1_555 1_555
O7 H20 1_555 1_555
H21 O7 1_555 1_555
O8 H23 1_555 1_555
H24 O8 1_555 1_555
B1 F1 1_555 1_555
F2 B1 1_555 1_555
F3 B1 1_555 1_555
F4 B1 1_555 1_555
Cu1E N1E 1_555 1_555
Cu1D O1D 1_555 1_555
Cu2G O4E 1_555 1_555
N1E C1E 1_555 1_555
N2E Cu1E 1_555 1_555
N3B Cu2 1_555 1_555
O1D C19D 1_555 1_555
O1E Cu1E 1_555 1_555
O2D C19D 1_555 1_555
O3E Cu1E 1_555 1_555
O4E C22E 1_555 1_555
O4B Cu2 1_555 1_555
O5E Cu1E 1_555 1_555
H1E O5E 1_555 1_555
H2E O5E 1_555 1_555
C1E H3E 1_555 1_555
C2E C1E 1_555 1_555
H4E C2E 1_555 1_555
C3E C2E 1_555 1_555
H5E C3E 1_555 1_555
C4E C3E 1_555 1_555
C5E C4E 1_555 1_555
H6E C5E 1_555 1_555
C6E C5E 1_555 1_555
H7E C6E 1_555 1_555
C7E C6E 1_555 1_555
C8E C7E 1_555 1_555
H8E C8E 1_555 1_555
C9E C8E 1_555 1_555
H9E C9E 1_555 1_555
C10E N2E 1_555 1_555
H10E C10E 1_555 1_555
C11E N2E 1_555 1_555
C12E N1E 1_555 1_555
C13B N3B 1_555 1_555
H11B C13B 1_555 1_555
C14B C13B 1_555 1_555
H12B C14B 1_555 1_555
C15B C14B 1_555 1_555
H13B C15B 1_555 1_555
C16B C15B 1_555 1_555
C17B C17 1_555 1_555
H14B C17B 1_555 1_555
C18B C18 1_555 1_555
C19D C20D 1_555 1_555
C20D H15D 1_555 1_555
C21D C21 1_555 1_555
H16D C21D 1_555 1_555
C22E O3E 1_555 1_555
C23E C22E 1_555 1_555
H17E C23E 1_555 1_555
C24E C24 1_555 1_555
H18E C24E 1_555 1_555
H19B O6 1_555 1_555
O4 C22 1_555 1_555
C4 C12 1_555 1_555
C7 C11 1_555 1_555
C9 C10 1_555 1_555
C11 C12 1_555 1_555
C16 C18 1_555 1_555
N3B C18B 1_555 1_555
C4E C12E 1_555 1_555
C7E C11E 1_555 1_555
C9E C10E 1_555 1_555
C11E C12E 1_555 1_555
C16B C17B 1_555 1_555
C16B C18B 1_555 1_555
C20D C21D 1_555 1_555
C23E C24E 1_555 1_555

#END
