
#######################################################################
#
#                 Cambridge Crystallographic Data Centre
#                                CCDC 
#
#######################################################################
#
# If this CIF has been generated from an entry in the Cambridge 
# Structural Database, then it will include bibliographic, chemical, 
# crystal, experimental, refinement or atomic coordinate data resulting 
# from the CCDC's data processing and validation procedures.
#
#######################################################################

data_COWLUW
_chemical_formula_moiety         '(C94 H66 Co4 F24 N4 O19)n'
_symmetry_cell_setting           monoclinic
_symmetry_space_group_name_H-M   'P 21/c'
_symmetry_Int_Tables_number      14
_space_group_name_Hall           '-P 2ybc'
loop_
_symmetry_equiv_pos_site_id
_symmetry_equiv_pos_as_xyz
1 x,y,z
2 -x,1/2+y,1/2-z
3 -x,-y,-z
4 x,1/2-y,1/2+z
_cell_length_a                   29.450(6)
_cell_length_b                   15.409(3)
_cell_length_c                   23.393(5)
_cell_angle_alpha                90
_cell_angle_beta                 111.80(3)
_cell_angle_gamma                90
_cell_volume                     9856.46
loop_
_atom_site_label
_atom_site_type_symbol
_atom_site_fract_x
_atom_site_fract_y
_atom_site_fract_z
Co1 Co 0.46783(4) 0.07129(7) 0.98670(5)
Co2 Co 0.46896(4) 0.92876(7) 0.48681(6)
Co3 Co 0.11129(4) 0.52443(8) 0.55630(6)
Co4 Co -0.00392(4) 0.40129(8) 0.49739(6)
O1 O 0.0468(2) 0.3871(4) 0.4483(3)
O2 O 0.1204(2) 0.4039(4) 0.5218(3)
O3 O 0.0428(2) 0.4967(4) 0.5538(3)
O4 O 0.5578(2) 0.5157(5) 0.0867(3)
O5 O 0.0589(2) 0.5738(4) 0.4606(3)
O6 O 0.5115(2) 0.1319(4) 0.9505(3)
O7 O 0.5072(3) 0.3811(5) 0.5708(3)
O8 O 0.5617(2) 0.0186(5) 0.9726(3)
O9 O 0.5577(3) 0.4949(5) 0.5901(3)
O10 O 0.1188(2) 0.6433(4) 0.6002(3)
O11 O 0.0428(3) 0.6941(4) 0.5631(4)
O12 O 0.5086(2) 0.6302(4) 0.0665(3)
O13 O 0.0035(4) -0.1346(6) 0.1735(4)
O14 O 0.0219(5) 0.0006(7) 0.1585(4)
O15 O 0.5110(2) 0.8760(4) 0.4444(3)
O16 O -0.0216(3) 1.2967(6) 0.6079(5)
O17 O 0.0308(2) 1.3094(4) 0.5586(3)
O18 O 0.5611(2) 0.9909(5) 0.4677(4)
N1 N 0.4069(2) 0.8575(5) 0.4492(4)
N2 N 0.1693(3) 0.5668(5) 0.5307(4)
N3 N 0.1528(3) 0.4700(6) 0.6442(4)
N4 N 0.4054(3) 0.1455(5) 0.9588(3)
F1 F 0.6770(2) 0.3965(4) 0.8935(3)
F2 F 0.7237(2) 0.2910(5) 0.9381(3)
F3 F 0.7379(2) 0.3637(5) 0.8686(3)
F4 F 0.6760(2) 0.1404(5) 0.7814(3)
F5 F 0.7228(2) 0.2475(5) 0.7819(3)
F6 F 0.7379(2) 0.1699(5) 0.8627(3)
F7 F 0.2226(3) 0.9799(5) 0.8187(4)
F8 F 0.1988(3) 1.1135(5) 0.8033(5)
F9 F 0.2080(3) 1.0384(6) 0.7307(6)
F10 F 0.1411(4) 1.0440(6) 0.8561(4)
F11 F 0.0777(4) 0.9772(5) 0.7960(4)
F12 F 0.1453(4) 0.9112(6) 0.8367(4)
F13 F 0.7245(2) 0.7245(6) 0.4333(3)
F14 F 0.6771(3) 0.6205(5) 0.3886(3)
F15 F 0.7385(2) 0.6513(6) 0.3645(3)
F16 F 0.6800(3) 0.8777(5) 0.2779(4)
F17 F 0.7260(2) 0.7704(6) 0.2787(4)
F18 F 0.7401(2) 0.8452(6) 0.3617(3)
F19 F 0.1918(3) -0.1038(5) 0.4508(4)
F20 F 0.2118(3) -0.0197(6) 0.5291(4)
F21 F 0.2049(3) 0.0305(6) 0.4415(4)
C1 C 0.2119(8) 0.4839(13) 0.7450(7)
H1 H 0.2342 0.5196 0.7758
C2 C 0.2030(11) 0.4020(13) 0.7581(8)
C3 C 0.6462(4) 0.6198(7) 0.2533(5)
H2 H 0.6732 0.5877 0.2803
C4 C 0.0809(5) -0.1060(7) 0.3643(6)
H3 H 0.0812 -0.1505 0.3926
C5 C 0.1862(6) -0.0242(9) 0.4692(7)
C6 C 0.1065(4) 1.0945(7) 0.6576(6)
H4 H 0.1249 1.0568 0.6423
C7 C 0.1682(6) 0.3567(10) 0.7152(7)
H5 H 0.1598 0.3003 0.7245
C8 C 0.3210(5) 0.2446(11) 0.9319(5)
C9 C 0.3204(5) 0.1536(11) 0.9263(9)
H6 H 0.2901 0.1234 0.9109
C10 C 0.3616(4) 0.1105(9) 0.9423(8)
H7 H 0.3598 0.0489 0.9421
C11 C 0.3655(5) 0.2836(8) 0.9450(6)
H8 H 0.3686 0.3450 0.9453
C12 C 0.1884(6) 0.5146(9) 0.6869(6)
H9 H 0.1976 0.5696 0.6762
C13 C 0.1453(5) 0.3901(8) 0.6597(6)
H10 H 0.1223 0.3549 0.6294
C14 C 0.0510(4) 1.2133(7) 0.6425(5)
C15 C 0.0534(4) 1.2030(7) 0.7013(6)
H11 H 0.0351 1.2408 0.7168
C16 C 0.0785(4) 1.1602(7) 0.6204(6)
H12 H 0.0783 1.1685 0.5800
C17 C 0.6163(4) 0.5833(7) 0.2000(5)
H13 H 0.6224 0.5256 0.1905
C18 C 0.5996(4) 0.7494(7) 0.2294(5)
H14 H 0.5934 0.8069 0.2394
C19 C 0.4060(4) 0.2299(7) 0.9578(6)
H15 H 0.4368 0.2572 0.9667
C20 C 0.0170(4) 1.2795(7) 0.5991(6)
C21 C 0.5693(4) 0.7125(7) 0.1744(5)
H16 H 0.5429 0.7451 0.1467
C22 C 0.5772(3) 0.6281(6) 0.1595(5)
C23 C 0.5455(3) 0.5890(7) 0.0995(5)
C24 C 0.7045(4) 0.8113(11) 0.3127(6)
C25 C 0.7031(4) 0.6855(11) 0.3798(6)
C26 C 0.6380(3) 0.7042(7) 0.2693(5)
C27 C 0.6705(3) 0.7497(7) 0.3300(5)
C28 C 0.6384(3) 0.7980(7) 0.3587(5)
C29 C 0.6180(4) 0.9179(7) 0.4089(5)
H17 H 0.6247 0.9755 0.4241
C30 C 0.6481(4) 0.8810(7) 0.3828(5)
H18 H 0.6755 0.9122 0.3812
C31 C 0.5990(4) 0.7538(7) 0.3641(6)
H19 H 0.5920 0.6965 0.3483
C32 C 0.5700(4) 0.7911(8) 0.3920(6)
H20 H 0.5438 0.7590 0.3961
C33 C 0.5789(3) 0.8753(7) 0.4140(5)
C34 C 0.5482(3) 0.9175(7) 0.4442(5)
C35 C 0.0242(5) -0.0612(10) 0.1918(7)
C36 C 0.0576(5) -0.1190(8) 0.3016(6)
H21 H 0.0437 -0.1741 0.2869
C37 C 0.0541(5) -0.0528(9) 0.2598(5)
C38 C 0.0778(5) 0.0234(9) 0.2820(6)
H22 H 0.0775 0.0682 0.2540
C39 C 0.1013(5) 0.0362(8) 0.3423(6)
H23 H 0.1168 0.0906 0.3560
C40 C 0.1041(4) -0.0269(7) 0.3857(5)
C41 C 0.1305(5) -0.0051(7) 0.4548(5)
C42 C 0.1213(4) 0.0909(6) 0.4653(5)
C43 C 0.1586(4) 0.1475(7) 0.4986(6)
H24 H 0.1914 0.1277 0.5169
C44 C 0.0748(4) 0.1236(7) 0.4417(6)
H25 H 0.0487 0.0852 0.4206
C45 C 0.0642(4) 0.2078(7) 0.4468(6)
H26 H 0.0313 0.2272 0.4293
C46 C 0.1470(4) 0.2336(7) 0.5047(6)
H27 H 0.1722 0.2716 0.5288
C47 C 0.1006(3) 0.2655(6) 0.4773(4)
C48 C 0.0890(4) 0.3606(7) 0.4833(5)
C49 C 0.0820(5) 1.1388(8) 0.7392(5)
H28 H 0.0837 1.1330 0.7804
C50 C 0.1076(4) 1.0840(6) 0.7164(5)
C51 C 0.1243(7) 0.9858(8) 0.8113(6)
C52 C 0.1915(6) 1.0349(9) 0.7763(8)
C53 C 0.1386(4) 1.0075(7) 0.7550(5)
C54 C 0.1635(4) 0.8662(7) 0.7118(6)
H29 H 0.1969 0.8770 0.7359
C55 C 0.1264(4) 0.9234(6) 0.7132(5)
C56 C 0.0799(4) 0.9060(8) 0.6794(7)
H30 H 0.0549 0.9438 0.6810
C57 C 0.1495(4) 0.7939(7) 0.6741(5)
H31 H 0.1739 0.7549 0.6724
C58 C 0.0677(4) 0.8348(8) 0.6424(7)
H32 H 0.0343 0.8251 0.6177
C59 C 0.1018(4) 0.7769(6) 0.6396(5)
C60 C 0.0862(4) 0.6980(6) 0.5980(5)
C61 C 0.3208(5) 0.7714(9) 0.3852(5)
C62 C 0.3203(4) 0.8569(10) 0.3964(8)
H33 H 0.2904 0.8884 0.3827
C63 C 0.3631(4) 0.8971(8) 0.4274(8)
H34 H 0.3622 0.9577 0.4344
C64 C 0.4060(4) 0.7750(7) 0.4411(6)
H35 H 0.4357 0.7436 0.4587
C65 C 0.3636(5) 0.7292(8) 0.4077(7)
H36 H 0.3650 0.6686 0.4010
C66 C 0.2422(5) 0.7140(9) 0.3881(6)
H37 H 0.2094 0.6919 0.3624
H38 H 0.2380 0.7714 0.4045
C67 C 0.2730(5) 0.7238(12) 0.3489(6)
H39 H 0.2544 0.7570 0.3111
H40 H 0.2804 0.6658 0.3364
C68 C 0.2056(4) 0.5154(7) 0.5278(5)
H41 H 0.2094 0.4594 0.5460
C69 C 0.2666(4) 0.6507(9) 0.4424(6)
H42 H 0.2785 0.5992 0.4268
H43 H 0.2953 0.6796 0.4731
C70 C 0.2328(4) 0.6207(7) 0.4739(5)
C71 C 0.2371(4) 0.5395(8) 0.5001(6)
H44 H 0.2617 0.5005 0.4988
C72 C 0.1659(4) 0.6470(6) 0.5050(5)
H45 H 0.1410 0.6852 0.5064
C73 C 0.1963(4) 0.6747(7) 0.4774(5)
H46 H 0.1926 0.7314 0.4604
C74 C 0.5443(4) 0.4241(7) 0.6047(5)
C75 C 0.5650(4) 0.3056(7) 0.6830(5)
H47 H 0.5376 0.2738 0.6567
C76 C 0.5744(3) 0.3858(7) 0.6657(4)
C77 C 0.6143(4) 0.4306(7) 0.7034(5)
H48 H 0.6213 0.4865 0.6916
C78 C 0.6452(4) 0.3941(7) 0.7595(5)
H49 H 0.6729 0.4256 0.7855
C79 C 0.5946(4) 0.2701(7) 0.7378(5)
H50 H 0.5868 0.2146 0.7492
C80 C 0.7018(4) 0.2042(8) 0.8157(5)
C81 C 0.7019(4) 0.3312(8) 0.8839(5)
C82 C 0.6355(3) 0.3126(7) 0.7770(4)
C83 C 0.6689(3) 0.2680(6) 0.8357(4)
C84 C 0.6001(3) 0.2624(7) 0.8748(5)
H51 H 0.5940 0.3212 0.8620
C85 C 0.5488(3) 0.0926(7) 0.9515(4)
C86 C 0.6382(3) 0.2164(7) 0.8659(4)
C87 C 0.6473(4) 0.1321(7) 0.8869(5)
H52 H 0.6736 0.1007 0.8827
C88 C 0.6182(3) 0.0932(6) 0.9142(5)
H53 H 0.6246 0.0349 0.9279
C89 C 0.5717(3) 0.2223(7) 0.9020(5)
H54 H 0.5457 0.2535 0.9073
C90 C 0.5802(3) 0.1373(6) 0.9218(4)
C91 C 0.2751(6) 0.3027(13) 0.9177(6)
H55 H 0.2845 0.3578 0.9409
H56 H 0.2510 0.2729 0.9311
C92 C 0.2514(9) 0.3226(16) 0.8464(6)
H57 H 0.2787 0.3401 0.8338
H58 H 0.2393 0.2663 0.8261
C93 C 0.2234(18) 0.367(2) 0.8263(11)
H59 H 0.2331 0.4197 0.8524
H60 H 0.1946 0.3432 0.8330
F22 F 0.0648(4) -0.0599(5) 0.4798(5)
F23 F 0.1262(4) -0.1437(5) 0.4998(4)
F24 F 0.1408(6) -0.0307(9) 0.5575(6)
C94 C 0.1125(8) -0.0608(10) 0.4970(6)
Co1C Co 0.46783(4) 0.42871(7) 0.48670(5)
Co1B Co 0.53217(4) -0.07129(7) 1.01330(5)
Co1A Co 0.53217(4) 0.57129(7) 0.51330(5)
Co2A Co 0.53104(4) 0.42876(7) 0.01319(6)
Co2C Co 0.46896(4) 0.57124(7) -0.01319(6)
Co2B Co 0.53104(4) 1.07124(7) 0.51319(6)
Co4B Co 0.00392(4) 0.59871(8) 0.50261(6)
Co4_2 Co -0.00392(4) 1.40129(8) 0.49739(6)
O3B O -0.0428(2) 0.5033(4) 0.4462(3)
O4A O 0.4422(2) 1.0157(5) 0.4133(3)
O5B O -0.0589(2) 0.4262(4) 0.5394(3)
O7C O 0.5072(3) 0.1189(5) 1.0708(3)
O8B O 0.4383(2) -0.0186(5) 1.0274(3)
O9A O 0.4423(3) -0.0051(5) 0.9099(3)
O11B O -0.0428(3) 0.3059(4) 0.4369(4)
O12C O 0.5086(2) 0.8698(4) 0.5665(3)
O17_2 O 0.0308(2) 0.3094(4) 0.5586(3)
O18B O 0.4389(2) 1.0091(5) 0.5323(4)
O19 O -0.0026(5) -0.0984(10) 0.4967(7)
loop_
_geom_bond_atom_site_label_1
_geom_bond_atom_site_label_2
_geom_bond_site_symmetry_1
_geom_bond_site_symmetry_2
Co1 O6 1_555 1_555
Co2 O15 1_555 1_555
Co3 O2 1_555 1_555
Co4 O1 1_555 1_555
O1 C48 1_555 1_555
O2 C48 1_555 1_555
O3 Co3 1_555 1_555
O4 C23 1_555 1_555
O5 Co3 1_555 1_555
O6 C85 1_555 1_555
O7 C74 1_555 1_555
O8 C85 1_555 1_555
O9 C74 1_555 1_555
O10 Co3 1_555 1_555
O11 C60 1_555 1_555
O12 C23 1_555 1_555
O13 C35 1_555 1_555
O14 C35 1_555 1_555
O15 C34 1_555 1_555
O16 C20 1_555 1_555
O17 C20 1_555 1_555
O18 C34 1_555 1_555
N1 Co2 1_555 1_555
N2 Co3 1_555 1_555
N3 Co3 1_555 1_555
N4 Co1 1_555 1_555
F1 C81 1_555 1_555
F2 C81 1_555 1_555
F3 C81 1_555 1_555
F4 C80 1_555 1_555
F5 C80 1_555 1_555
F6 C80 1_555 1_555
F7 C52 1_555 1_555
F8 C52 1_555 1_555
F9 C52 1_555 1_555
F10 C51 1_555 1_555
F11 C51 1_555 1_555
F12 C51 1_555 1_555
F13 C25 1_555 1_555
F14 C25 1_555 1_555
F15 C25 1_555 1_555
F16 C24 1_555 1_555
F17 C24 1_555 1_555
F18 C24 1_555 1_555
F19 C5 1_555 1_555
F20 C5 1_555 1_555
F21 C5 1_555 1_555
C1 H1 1_555 1_555
C2 C1 1_555 1_555
C3 H2 1_555 1_555
C4 H3 1_555 1_555
C5 C41 1_555 1_555
C6 H4 1_555 1_555
C7 C2 1_555 1_555
H5 C7 1_555 1_555
C8 C9 1_555 1_555
C9 H6 1_555 1_555
C10 N4 1_555 1_555
H7 C10 1_555 1_555
C11 C8 1_555 1_555
H8 C11 1_555 1_555
C12 N3 1_555 1_555
H9 C12 1_555 1_555
C13 N3 1_555 1_555
H10 C13 1_555 1_555
C14 C15 1_555 1_555
C15 H11 1_555 1_555
C16 C6 1_555 1_555
H12 C16 1_555 1_555
C17 C3 1_555 1_555
H13 C17 1_555 1_555
C18 H14 1_555 1_555
C19 N4 1_555 1_555
H15 C19 1_555 1_555
C20 C14 1_555 1_555
C21 C18 1_555 1_555
H16 C21 1_555 1_555
C22 C17 1_555 1_555
C23 C22 1_555 1_555
C24 C27 1_555 1_555
C25 C27 1_555 1_555
C26 C3 1_555 1_555
C27 C26 1_555 1_555
C28 C27 1_555 1_555
C29 H17 1_555 1_555
C30 C28 1_555 1_555
H18 C30 1_555 1_555
C31 C28 1_555 1_555
H19 C31 1_555 1_555
C32 C31 1_555 1_555
H20 C32 1_555 1_555
C33 C29 1_555 1_555
C34 C33 1_555 1_555
C35 C37 1_555 1_555
C36 C4 1_555 1_555
H21 C36 1_555 1_555
C37 C36 1_555 1_555
C38 C37 1_555 1_555
H22 C38 1_555 1_555
C39 C38 1_555 1_555
H23 C39 1_555 1_555
C40 C4 1_555 1_555
C41 C40 1_555 1_555
C42 C41 1_555 1_555
C43 C42 1_555 1_555
H24 C43 1_555 1_555
C44 C42 1_555 1_555
H25 C44 1_555 1_555
C45 C44 1_555 1_555
H26 C45 1_555 1_555
C46 C43 1_555 1_555
H27 C46 1_555 1_555
C47 C45 1_555 1_555
C48 C47 1_555 1_555
C49 C15 1_555 1_555
H28 C49 1_555 1_555
C50 C6 1_555 1_555
C51 C53 1_555 1_555
C52 C53 1_555 1_555
C53 C50 1_555 1_555
C54 H29 1_555 1_555
C55 C53 1_555 1_555
C56 C55 1_555 1_555
H30 C56 1_555 1_555
C57 C54 1_555 1_555
H31 C57 1_555 1_555
C58 C56 1_555 1_555
H32 C58 1_555 1_555
C59 C57 1_555 1_555
C60 O10 1_555 1_555
C61 C62 1_555 1_555
C62 H33 1_555 1_555
C63 N1 1_555 1_555
H34 C63 1_555 1_555
C64 N1 1_555 1_555
H35 C64 1_555 1_555
C65 C61 1_555 1_555
H36 C65 1_555 1_555
C66 H37 1_555 1_555
H38 C66 1_555 1_555
C67 C61 1_555 1_555
H39 C67 1_555 1_555
H40 C67 1_555 1_555
C68 N2 1_555 1_555
H41 C68 1_555 1_555
C69 C66 1_555 1_555
H42 C69 1_555 1_555
H43 C69 1_555 1_555
C70 C69 1_555 1_555
C71 C68 1_555 1_555
H44 C71 1_555 1_555
C72 N2 1_555 1_555
H45 C72 1_555 1_555
C73 C70 1_555 1_555
H46 C73 1_555 1_555
C74 C76 1_555 1_555
C75 H47 1_555 1_555
C76 C75 1_555 1_555
C77 C76 1_555 1_555
H48 C77 1_555 1_555
C78 C77 1_555 1_555
H49 C78 1_555 1_555
C79 C75 1_555 1_555
H50 C79 1_555 1_555
C80 C83 1_555 1_555
C81 C83 1_555 1_555
C82 C78 1_555 1_555
C83 C82 1_555 1_555
C84 H51 1_555 1_555
C85 C90 1_555 1_555
C86 C83 1_555 1_555
C87 C86 1_555 1_555
H52 C87 1_555 1_555
C88 C87 1_555 1_555
H53 C88 1_555 1_555
C89 C84 1_555 1_555
H54 C89 1_555 1_555
C90 C88 1_555 1_555
C91 C8 1_555 1_555
H55 C91 1_555 1_555
H56 C91 1_555 1_555
C92 C91 1_555 1_555
H57 C92 1_555 1_555
H58 C92 1_555 1_555
C93 C2 1_555 1_555
H59 C93 1_555 1_555
H60 C93 1_555 1_555
F22 C94 1_555 1_555
F23 C94 1_555 1_555
F24 C94 1_555 1_555
C94 C41 1_555 1_555
Co1C O7 1_555 1_555
Co1B O8 1_555 1_555
Co1A O9 1_555 1_555
Co2A O4 1_555 1_555
Co2C O12 1_555 1_555
Co2B O18 1_555 1_555
Co4B O3 1_555 1_555
Co4_2 O17 1_555 1_555
O3B Co4 1_555 1_555
O4A Co2 1_555 1_555
O5B Co4 1_555 1_555
O7C Co1 1_555 1_555
O8B Co1 1_555 1_555
O9A Co1 1_555 1_555
O11B Co4 1_555 1_555
O12C Co2 1_555 1_555
O17_2 Co4 1_555 1_555
O18B Co2 1_555 1_555
Co4 O3 1_555 1_555
O5 Co4B 1_555 1_555
O11 Co4B 1_555 1_555
C1 C12 1_555 1_555
C7 C13 1_555 1_555
C9 C10 1_555 1_555
C11 C19 1_555 1_555
C14 C16 1_555 1_555
C18 C26 1_555 1_555
C21 C22 1_555 1_555
C29 C30 1_555 1_555
C32 C33 1_555 1_555
C39 C40 1_555 1_555
C46 C47 1_555 1_555
C49 C50 1_555 1_555
C54 C55 1_555 1_555
C58 C59 1_555 1_555
C59 C60 1_555 1_555
C62 C63 1_555 1_555
C64 C65 1_555 1_555
C66 C67 1_555 1_555
C70 C71 1_555 1_555
C72 C73 1_555 1_555
C79 C82 1_555 1_555
C84 C86 1_555 1_555
C89 C90 1_555 1_555
C92 C93 1_555 1_555
Co4B O3B 1_555 1_555

#END
