
#######################################################################
#
#                 Cambridge Crystallographic Data Centre
#                                CCDC 
#
#######################################################################
#
# If this CIF has been generated from an entry in the Cambridge 
# Structural Database, then it will include bibliographic, chemical, 
# crystal, experimental, refinement or atomic coordinate data resulting 
# from the CCDC's data processing and validation procedures.
#
#######################################################################

data_XEQFUV
_chemical_formula_moiety         '(C10 H23 N2 O14 P2 V2)n'
_symmetry_cell_setting           orthorhombic
_symmetry_space_group_name_H-M   'P n n a'
_symmetry_Int_Tables_number      52
_space_group_name_Hall           '-P 2a 2bc'
loop_
_symmetry_equiv_pos_site_id
_symmetry_equiv_pos_as_xyz
1 x,y,z
2 1/2-x,-y,z
3 1/2-x,1/2+y,1/2-z
4 x,1/2-y,1/2-z
5 -x,-y,-z
6 1/2+x,y,-z
7 1/2+x,1/2-y,1/2+z
8 -x,1/2+y,1/2+z
_cell_length_a                   7.0479(10)
_cell_length_b                   15.307(2)
_cell_length_c                   17.537(3)
_cell_angle_alpha                90
_cell_angle_beta                 90
_cell_angle_gamma                90
_cell_volume                     1891.93
loop_
_atom_site_label
_atom_site_type_symbol
_atom_site_fract_x
_atom_site_fract_y
_atom_site_fract_z
V1 V 0.25449(13) 0.2500 0.2500
V2 V 0.5000 0.0000 0.5000
P1 P 0.25542(13) 0.13521(6) 0.40046(5)
O1 O 0.0274(6) 0.2500 0.2500
O2 O 0.2990(4) 0.14619(17) 0.31612(15)
O3 O 0.4338(4) 0.10747(16) 0.44377(15)
O4 O 0.0902(4) 0.07294(16) 0.41373(14)
O5 O 0.3728(6) 0.3659(2) 0.4575(2)
O6 O 0.3122(5) 0.33010(18) 0.33850(16)
O7 O 0.7500 0.0000 0.4571(2)
H1 H 0.7500 0.0000 0.4040
C1 C 0.2980(6) 0.3170(3) 0.4115(2)
C2 C 0.1819(6) 0.2401(2) 0.4372(2)
H3 H 0.0511 0.2499 0.4223
H4 H 0.1855 0.2377 0.4924
O8 O 0.5819(7) 0.2500 0.2500
H11 H 0.663(10) 0.231(4) 0.288(3)
V2E V 0.0000 0.0000 0.5000
V2E_2 V 1.0000 0.0000 0.5000
V2G V 0.5000 0.5000 0.0000
V2F V -0.0000 0.5000 0.0000
P1C P 0.25542(13) 0.36479(6) 0.09954(5)
O2C O 0.2990(4) 0.35381(17) 0.18388(15)
O3C O 0.4338(4) 0.39253(16) 0.05623(15)
O3D O 0.5662(4) -0.10747(16) 0.55623(15)
O4C O 0.0902(4) 0.42706(16) 0.08627(14)
O4E O 0.5902(4) 0.07294(16) 0.58627(14)
O4A O 0.4098(4) -0.07294(16) 0.41373(14)
O5C O 0.3728(6) 0.1341(2) 0.0425(2)
O6C O 0.3122(5) 0.16990(18) 0.16150(16)
O7E O 0.2500 0.0000 0.5429(2)
H1E H 0.2500 0.0000 0.5960
C1C C 0.2980(6) 0.1830(3) 0.0885(2)
C2C C 0.1819(6) 0.2599(2) 0.0628(2)
H3C H 0.0511 0.2501 0.0777
H4C H 0.1855 0.2623 0.0076
H11C H 0.663(10) 0.269(4) 0.212(3)
N1 N 0.1175(7) 0.4479(3) 0.6737(3)
H2 H 0.0171 0.4105 0.6738
C3 C 0.2798(10) 0.4050(4) 0.6377(5)
H5 H 0.2436 0.3809 0.5887
H6 H 0.3262 0.3580 0.6697
C4 C 0.0684(13) 0.5262(5) 0.6276(8)
H7 H -0.0533 0.5492 0.6438
H8 H 0.0588 0.5103 0.5742
C5 C 0.156(2) 0.4748(7) 0.7503(5)
H9 H 0.1652 0.4241 0.7833
H10 H 0.0543 0.5118 0.7689
N1A N 0.3825(7) 0.5521(3) 0.6737(3)
H2A H 0.4829 0.5895 0.6738
C3A C 0.2202(10) 0.5950(4) 0.6377(5)
H5A H 0.2564 0.6191 0.5887
H6A H 0.1738 0.6420 0.6697
C4A C 0.4316(13) 0.4738(5) 0.6276(8)
H7A H 0.5533 0.4508 0.6438
H8A H 0.4412 0.4897 0.5742
C5A C 0.344(2) 0.5252(7) 0.7503(5)
H9A H 0.3348 0.5759 0.7833
H10A H 0.4457 0.4882 0.7689
O9 O 0.2491(6) 0.8216(3) 0.6255(3)
H12 H 0.323(8) 0.845(4) 0.593(3)
H13 H 0.239(10) 0.857(3) 0.663(2)
loop_
_geom_bond_atom_site_label_1
_geom_bond_atom_site_label_2
_geom_bond_site_symmetry_1
_geom_bond_site_symmetry_2
V1 O1 1_555 1_555
V2 O3 1_555 1_555
P1 O2 1_555 1_555
O2 V1 1_555 1_555
O3 P1 1_555 1_555
O4 P1 1_555 1_555
O5 C1 1_555 1_555
O6 V1 1_555 1_555
O7 V2 1_555 1_555
H1 O7 1_555 1_555
N1 H2 1_555 1_555
C1 O6 1_555 1_555
C2 P1 1_555 1_555
H3 C2 1_555 1_555
H4 C2 1_555 1_555
C3 N1 1_555 1_555
H5 C3 1_555 1_555
H6 C3 1_555 1_555
C4 N1 1_555 1_555
H7 C4 1_555 1_555
H8 C4 1_555 1_555
C5 N1 1_555 1_555
H9 C5 1_555 1_555
H10 C5 1_555 1_555
O8 V1 1_555 1_555
H11 O8 1_555 1_555
O9 H12 1_555 1_555
H13 O9 1_555 1_555
V2E O4 1_555 1_555
V2E_2 O7 1_555 1_555
V2G O3C 1_555 1_555
V2F O4C 1_555 1_555
P1C O2C 1_555 1_555
O2C V1 1_555 1_555
O3C P1C 1_555 1_555
O3D V2 1_555 1_555
O4C P1C 1_555 1_555
O4E V2 1_555 1_555
O4A V2 1_555 1_555
O5C C1C 1_555 1_555
O6C V1 1_555 1_555
O7E V2 1_555 1_555
H1E O7E 1_555 1_555
N1A H2A 1_555 1_555
C1C O6C 1_555 1_555
C2C P1C 1_555 1_555
H3C C2C 1_555 1_555
H4C C2C 1_555 1_555
C3A C4 1_555 1_555
H5A C3A 1_555 1_555
H6A C3A 1_555 1_555
C4A C3 1_555 1_555
H7A C4A 1_555 1_555
H8A C4A 1_555 1_555
C5A C5 1_555 1_555
H9A C5A 1_555 1_555
H10A C5A 1_555 1_555
H11C O8 1_555 1_555
C1 C2 1_555 1_555
V2E O7E 1_555 1_555
N1A C3A 1_555 1_555
N1A C4A 1_555 1_555
N1A C5A 1_555 1_555
C1C C2C 1_555 1_555

#END
