
#######################################################################
#
#                 Cambridge Crystallographic Data Centre
#                                CCDC 
#
#######################################################################
#
# If this CIF has been generated from an entry in the Cambridge 
# Structural Database, then it will include bibliographic, chemical, 
# crystal, experimental, refinement or atomic coordinate data resulting 
# from the CCDC's data processing and validation procedures.
#
#######################################################################

data_PUQXUV
_chemical_formula_moiety         '(C17 H10 F6 O5 Zn1)n'
_symmetry_cell_setting           hexagonal
_symmetry_space_group_name_H-M   'P 62 2 2'
_symmetry_Int_Tables_number      180
_space_group_name_Hall           'P 62 2 (0 0 4)'
loop_
_symmetry_equiv_pos_site_id
_symmetry_equiv_pos_as_xyz
1 x,y,z
2 x-y,x,1/3+z
3 -y,x-y,2/3+z
4 -x,-y,z
5 -x+y,-x,1/3+z
6 y,-x+y,2/3+z
7 -y,-x,2/3-z
8 x-y,-y,-z
9 x,x-y,1/3-z
10 y,x,2/3-z
11 -x+y,y,-z
12 -x,-x+y,1/3-z
_cell_length_a                   21.250(3)
_cell_length_b                   21.250(3)
_cell_length_c                   7.7200(15)
_cell_angle_alpha                90
_cell_angle_beta                 90
_cell_angle_gamma                120
_cell_volume                     3019.02
loop_
_atom_site_label
_atom_site_type_symbol
_atom_site_fract_x
_atom_site_fract_y
_atom_site_fract_z
_atom_site_U_iso_or_equiv
_atom_site_thermal_displace_type
Zn1 Zn 0.40194(5) 0.70097(3) 0.1667 0.0476 Uani
F1 F 0.2535(3) 0.1559(2) -0.1225(11) 0.1457 Uani
F2 F 0.3023(4) 0.2308(3) 0.0879(9) 0.1204 Uani
F3 F 0.1899(3) 0.1870(2) 0.0303(10) 0.1481 Uani
O2 O 0.3624(3) 0.6013(2) 0.0927(6) 0.0694 Uani
O3 O 0.2934(2) 0.5356(2) 0.3143(6) 0.0720 Uani
C1 C 0.3230(3) 0.5426(3) 0.1717(8) 0.0574 Uani
C2 C 0.3107(3) 0.4735(3) 0.0846(7) 0.0532 Uani
C3 C 0.2727(4) 0.4092(3) 0.1665(9) 0.0680 Uani
H1 H 0.2536 0.4079 0.2756 0.0820 Uiso
C4 C 0.2612(4) 0.3445(4) 0.0923(11) 0.0767 Uani
H2 H 0.2360 0.3010 0.1529 0.0920 Uiso
C5 C 0.3371(3) 0.4754(3) -0.0813(9) 0.0611 Uani
H3 H 0.3624 0.5192 -0.1408 0.0730 Uiso
C6 C 0.3252(3) 0.4112(3) -0.1566(9) 0.0626 Uani
H4 H 0.3431 0.4127 -0.2674 0.0750 Uiso
C7 C 0.2880(3) 0.3453(3) -0.0738(9) 0.0599 Uani
C8 C 0.2769(4) 0.2769(4) -0.1667 0.0689 Uani
C9 C 0.2553(5) 0.2125(4) -0.0411(16) 0.1028 Uani
Zn1I Zn 0.70097(3) 0.40194(5) -0.5000 0.0476 Uani
Zn1D Zn 0.29903(6) 0.59806(5) 0.5000 0.0476 Uani
Zn1K Zn 0.59806(5) 0.29903(6) -0.8334 0.0476 Uani
F1I F 0.1559(2) 0.2535(3) -0.2108(11) 0.1457 Uani
F2I F 0.2308(3) 0.3023(4) -0.4212(9) 0.1204 Uani
F3I F 0.1870(2) 0.1899(3) -0.3636(10) 0.1481 Uani
O2I O 0.6013(2) 0.3624(3) -0.4260(6) 0.0694 Uani
O2H O 0.3624(3) 0.7611(4) 0.2406(6) 0.0694 Uani
O3I O 0.5356(2) 0.2934(2) -0.6476(6) 0.0720 Uani
O3B O 0.4644(2) 0.7578(3) -0.0190(6) 0.0720 Uani
O3F O 0.4644(2) 0.7066(2) 0.3524(6) 0.0720 Uani
C1I C 0.5426(3) 0.3230(3) -0.5050(8) 0.0574 Uani
C2I C 0.4735(3) 0.3107(3) -0.4179(7) 0.0532 Uani
C3I C 0.4092(3) 0.2727(4) -0.4998(9) 0.0680 Uani
H1I H 0.4079 0.2536 -0.6089 0.0820 Uiso
C4I C 0.3445(4) 0.2612(4) -0.4256(11) 0.0767 Uani
H2I H 0.3010 0.2360 -0.4862 0.0920 Uiso
C5I C 0.4754(3) 0.3371(3) -0.2520(9) 0.0611 Uani
H3I H 0.5192 0.3624 -0.1925 0.0730 Uiso
C6I C 0.4112(3) 0.3252(3) -0.1767(9) 0.0626 Uani
H4I H 0.4127 0.3431 -0.0659 0.0750 Uiso
C7I C 0.3453(3) 0.2880(3) -0.2595(9) 0.0599 Uani
C9I C 0.2125(4) 0.2553(5) -0.2922(16) 0.1028 Uani
O1 O 0.5000 0.5000 0.3333 0.1620 Uiso
loop_
_atom_site_aniso_label
_atom_site_aniso_U_11
_atom_site_aniso_U_22
_atom_site_aniso_U_33
_atom_site_aniso_U_23
_atom_site_aniso_U_13
_atom_site_aniso_U_12
Zn1 0.0615(6) 0.0447(4) 0.0421(4) 0.0025(3) 0.000 0.0307(3)
F1 0.146(5) 0.054(2) 0.241(7) 0.014(3) 0.099(5) 0.053(3)
F2 0.133(5) 0.096(4) 0.148(5) 0.043(4) 0.070(4) 0.069(4)
F3 0.110(4) 0.058(3) 0.259(8) 0.014(4) 0.108(5) 0.029(2)
O2 0.089(3) 0.058(3) 0.063(2) -0.003(2) 0.003(2) 0.038(3)
O3 0.070(3) 0.066(3) 0.068(3) -0.011(2) 0.015(2) 0.025(2)
C1 0.056(3) 0.059(3) 0.059(3) -0.008(3) -0.006(3) 0.030(3)
C2 0.051(3) 0.051(3) 0.057(3) -0.008(3) 0.004(3) 0.025(3)
C3 0.076(4) 0.060(3) 0.072(3) -0.006(4) 0.018(3) 0.037(3)
C4 0.072(4) 0.058(4) 0.098(5) 0.004(4) 0.038(4) 0.031(3)
C5 0.061(4) 0.055(4) 0.070(3) -0.003(3) 0.003(3) 0.031(3)
C6 0.065(3) 0.055(3) 0.065(3) -0.006(3) 0.017(3) 0.028(3)
C7 0.050(3) 0.050(3) 0.081(4) -0.006(3) 0.012(3) 0.026(3)
C8 0.043(3) 0.043(3) 0.116(7) -0.016(3) 0.016(3) 0.018(3)
C9 0.075(5) 0.048(4) 0.175(11) -0.011(5) 0.062(6) 0.023(4)
Zn1I 0.0448 0.0615 0.0421 0 -0.0025 0.0308
Zn1D 0.0448 0.0615 0.0421 0 0.0025 0.0308
Zn1K 0.0615 0.0447 0.0421 -0.0025 0 0.0307
F1I 0.054 0.146 0.241 -0.099 -0.014 0.053
F2I 0.096 0.133 0.148 -0.07 -0.043 0.069
F3I 0.058 0.11 0.259 -0.108 -0.014 0.029
O2I 0.058 0.089 0.063 -0.003 0.003 0.038
O2H 0.089 0.071 0.063 -0.006 -0.003 0.051
O3I 0.066 0.07 0.068 -0.015 0.011 0.025
O3B 0.066 0.086 0.068 0.026 0.011 0.041
O3F 0.066 0.07 0.068 0.015 -0.011 0.025
C1I 0.059 0.056 0.059 0.006 0.008 0.03
C2I 0.051 0.051 0.057 -0.004 0.008 0.025
C3I 0.06 0.076 0.072 -0.018 0.006 0.037
C4I 0.058 0.072 0.098 -0.038 -0.004 0.031
C5I 0.055 0.061 0.07 -0.003 0.003 0.031
C6I 0.055 0.065 0.065 -0.017 0.006 0.028
C7I 0.05 0.05 0.081 -0.012 0.006 0.026
C9I 0.048 0.075 0.175 -0.062 0.011 0.023
loop_
_geom_bond_atom_site_label_1
_geom_bond_atom_site_label_2
_geom_bond_site_symmetry_1
_geom_bond_site_symmetry_2
Zn1 O2 1_555 1_555
F1 C9 1_555 1_555
F2 C9 1_555 1_555
F3 C9 1_555 1_555
O2 C1 1_555 1_555
O3 C1 1_555 1_555
C1 C2 1_555 1_555
C2 C3 1_555 1_555
C3 H1 1_555 1_555
C4 C3 1_555 1_555
H2 C4 1_555 1_555
C5 C2 1_555 1_555
H3 C5 1_555 1_555
C6 C5 1_555 1_555
H4 C6 1_555 1_555
C7 C4 1_555 1_555
C8 C7 1_555 1_555
C9 C8 1_555 1_555
Zn1I O2I 1_555 1_555
Zn1D O3 1_555 1_555
Zn1K O3I 1_555 1_555
F1I C9I 1_555 1_555
F2I C9I 1_555 1_555
F3I C9I 1_555 1_555
O2I C1I 1_555 1_555
O2H Zn1 1_555 1_555
O3I C1I 1_555 1_555
O3B Zn1 1_555 1_555
O3F Zn1 1_555 1_555
C1I C2I 1_555 1_555
C2I C3I 1_555 1_555
C3I H1I 1_555 1_555
C4I C3I 1_555 1_555
H2I C4I 1_555 1_555
C5I C2I 1_555 1_555
H3I C5I 1_555 1_555
C6I C5I 1_555 1_555
H4I C6I 1_555 1_555
C7I C8 1_555 1_555
C9I C8 1_555 1_555
C6 C7 1_555 1_555
C4I C7I 1_555 1_555
C6I C7I 1_555 1_555

#END
