
#######################################################################
#
#                 Cambridge Crystallographic Data Centre
#                                CCDC 
#
#######################################################################
#
# If this CIF has been generated from an entry in the Cambridge 
# Structural Database, then it will include bibliographic, chemical, 
# crystal, experimental, refinement or atomic coordinate data resulting 
# from the CCDC's data processing and validation procedures.
#
#######################################################################

data_PUQYAC
_chemical_formula_moiety         '(C17 H10 F6 O5 Zn1)n'
_symmetry_cell_setting           hexagonal
_symmetry_space_group_name_H-M   'P 64 2 2'
_symmetry_Int_Tables_number      181
_space_group_name_Hall           'P 64 2 (0 0 2)'
loop_
_symmetry_equiv_pos_site_id
_symmetry_equiv_pos_as_xyz
1 x,y,z
2 -y,x-y,1/3+z
3 -x+y,-x,2/3+z
4 -x,-y,z
5 y,-x+y,1/3+z
6 x-y,x,2/3+z
7 y,x,1/3-z
8 x-y,-y,-z
9 -x,-x+y,2/3-z
10 -y,-x,1/3-z
11 -x+y,y,-z
12 x,x-y,2/3-z
_cell_length_a                   21.260(3)
_cell_length_b                   21.260(3)
_cell_length_c                   7.7300(15)
_cell_angle_alpha                90
_cell_angle_beta                 90
_cell_angle_gamma                120
_cell_volume                     3025.78
loop_
_atom_site_label
_atom_site_type_symbol
_atom_site_fract_x
_atom_site_fract_y
_atom_site_fract_z
_atom_site_U_iso_or_equiv
_atom_site_thermal_displace_type
Zn1 Zn 0.70091(3) 0.40183(5) 0.0000 0.0520 Uani
O2 O 0.7610(3) 0.3616(3) 0.0742(6) 0.0716 Uani
C1 C 0.7811(3) 0.3224(3) -0.0038(7) 0.0597 Uani
C2 C 0.8642(3) 0.2730(4) -0.0002(10) 0.0720 Uani
H1 H 0.8466 0.2542 -0.1096 0.0860 Uiso
C3 C 0.9137(3) 0.3252(3) 0.3236(10) 0.0687 Uani
H2 H 0.9295 0.3427 0.4347 0.0820 Uiso
F1 F 0.9287(3) 0.2305(3) 0.5843(10) 0.1324 Uani
F2 F 0.9964(4) 0.1864(2) 0.5309(12) 0.1598 Uani
C4 C 0.8613(3) 0.3370(4) 0.2479(8) 0.0619 Uani
H3 H 0.8429 0.3622 0.3075 0.0740 Uiso
C5 C 0.8365(3) 0.3108(3) 0.0826(8) 0.0594 Uani
C6 C 1.0000 0.2765(4) 0.3333 0.0748 Uani
C7 C 0.9169(4) 0.2618(4) 0.0719(10) 0.0740 Uani
H4 H 0.9352 0.2367 0.0108 0.0890 Uiso
C8 C 0.9431(3) 0.2887(3) 0.2408(10) 0.0661 Uani
F3 F 0.9024(3) 0.1558(2) 0.3747(12) 0.1548 Uani
C9 C 0.9576(5) 0.2126(4) 0.4591(17) 0.1078 Uani
O3 O 0.7579(3) 0.2935(3) -0.1462(6) 0.0776 Uani
Zn1B Zn 0.70092(6) 0.29909(3) -0.3333 0.0520 Uani
Zn1C Zn 1.29909(3) 0.59817(5) 1.0000 0.0520 Uani
Zn1E Zn 1.29908(6) 0.70091(3) 0.6667 0.0520 Uani
O2H O 1.2390(3) 0.6006(4) 0.5925(6) 0.0716 Uani
O2J O 0.6006(4) 0.3616(3) -0.0742(6) 0.0716 Uani
C1H C 1.2189(3) 0.5413(4) 0.6705(7) 0.0597 Uani
C2H C 1.1358(3) 0.4088(5) 0.6669(10) 0.0720 Uani
H1H H 1.1534 0.4076 0.7763 0.0860 Uiso
C3H C 1.0863(3) 0.4115(4) 0.3431(10) 0.0687 Uani
H2H H 1.0705 0.4132 0.2320 0.0820 Uiso
F1H F 1.0713(3) 0.3018(4) 0.0824(10) 0.1324 Uani
F2H F 1.0036(4) 0.1900(4) 0.1358(12) 0.1598 Uani
C4H C 1.1387(3) 0.4757(5) 0.4188(8) 0.0619 Uani
H3H H 1.1571 0.5193 0.3592 0.0740 Uiso
C5H C 1.1635(3) 0.4743(4) 0.5841(8) 0.0594 Uani
C7H C 1.0831(4) 0.3449(6) 0.5948(10) 0.0740 Uani
H4H H 1.0648 0.3015 0.6559 0.0890 Uiso
C8H C 1.0569(3) 0.3456(4) 0.4259(10) 0.0661 Uani
F3H F 1.0976(3) 0.2534(4) 0.2920(12) 0.1548 Uani
C9H C 1.0424(5) 0.2550(6) 0.2076(17) 0.1078 Uani
O3H O 1.2421(3) 0.5356(4) 0.8129(6) 0.0776 Uani
O3A O 0.7065(3) 0.4644(4) 0.1871(6) 0.0776 Uani
O3K O 0.7579(3) 0.4644(4) -0.1871(6) 0.0776 Uani
O1 O 1.0000 0.5000 -0.1667 0.2089 Uani
loop_
_atom_site_aniso_label
_atom_site_aniso_U_11
_atom_site_aniso_U_22
_atom_site_aniso_U_33
_atom_site_aniso_U_23
_atom_site_aniso_U_13
_atom_site_aniso_U_12
Zn1 0.0487(4) 0.0656(6) 0.0473(5) 0.000 0.0017(3) 0.0328(3)
O2 0.073(3) 0.088(3) 0.068(2) 0.001(2) -0.007(2) 0.051(2)
C1 0.058(3) 0.061(3) 0.059(3) 0.002(3) -0.004(3) 0.029(2)
C2 0.066(3) 0.079(4) 0.072(3) -0.024(3) -0.017(3) 0.037(3)
C3 0.065(3) 0.069(3) 0.078(4) -0.017(3) -0.024(3) 0.038(3)
F1 0.092(4) 0.108(4) 0.172(6) 0.055(4) -0.025(4) 0.031(3)
F2 0.115(4) 0.057(2) 0.290(10) 0.010(4) -0.110(6) 0.030(3)
C4 0.058(3) 0.067(3) 0.067(3) -0.011(3) -0.015(3) 0.036(3)
C5 0.064(3) 0.055(3) 0.065(3) -0.005(3) -0.011(3) 0.034(3)
C6 0.061(5) 0.045(2) 0.123(8) -0.013(3) -0.026(5) 0.030(2)
C7 0.066(4) 0.078(4) 0.086(4) -0.030(4) -0.028(3) 0.042(3)
C8 0.049(3) 0.055(3) 0.093(4) -0.019(3) -0.026(3) 0.025(3)
F3 0.095(3) 0.055(2) 0.267(9) 0.013(4) -0.091(5) 0.002(2)
C9 0.079(5) 0.053(4) 0.178(11) -0.007(5) -0.069(6) 0.023(4)
O3 0.090(3) 0.074(3) 0.078(3) -0.013(2) -0.024(2) 0.048(2)
Zn1B 0.0487 0.0487 0.0473 -0.0017 -0.0017 0.0159
Zn1C 0.0487 0.0656 0.0473 0 -0.0017 0.0328
Zn1E 0.0487 0.0487 0.0473 0.0017 0.0017 0.0159
O2H 0.073 0.059 0.068 -0.008 -0.007 0.022
O2J 0.059 0.088 0.068 -0.001 -0.008 0.037
C1H 0.058 0.061 0.059 -0.006 -0.004 0.029
C2H 0.066 0.071 0.072 0.007 -0.017 0.029
C3H 0.065 0.058 0.078 -0.007 -0.024 0.027
F1H 0.092 0.138 0.172 -0.08 -0.025 0.061
F2H 0.115 0.112 0.29 -0.12 -0.11 0.085
C4H 0.058 0.053 0.067 -0.004 -0.015 0.022
C5H 0.064 0.051 0.065 -0.006 -0.011 0.03
C7H 0.066 0.06 0.086 0.002 -0.028 0.024
C8H 0.049 0.054 0.093 -0.007 -0.026 0.024
F3H 0.095 0.146 0.267 -0.104 -0.091 0.093
C9H 0.079 0.086 0.178 -0.062 -0.069 0.056
O3H 0.09 0.068 0.078 -0.011 -0.024 0.042
O3A 0.074 0.068 0.078 -0.011 0.013 0.026
O3K 0.09 0.068 0.078 0.011 0.024 0.042
O1 0.118(13) 0.201(17) 0.28(3) 0.000 0.000 0.059(6)
loop_
_geom_bond_atom_site_label_1
_geom_bond_atom_site_label_2
_geom_bond_site_symmetry_1
_geom_bond_site_symmetry_2
Zn1 O2 1_555 1_555
O2 C1 1_555 1_555
C1 C5 1_555 1_555
C2 H1 1_555 1_555
C3 H2 1_555 1_555
F1 C9 1_555 1_555
F2 C9 1_555 1_555
C4 C3 1_555 1_555
H3 C4 1_555 1_555
C5 C2 1_555 1_555
C6 C8 1_555 1_555
C7 C2 1_555 1_555
H4 C7 1_555 1_555
C8 C3 1_555 1_555
F3 C9 1_555 1_555
C9 C6 1_555 1_555
O3 C1 1_555 1_555
Zn1B O3 1_555 1_555
Zn1C O3H 1_555 1_555
Zn1E O2H 1_555 1_555
O2H C1H 1_555 1_555
O2J Zn1 1_555 1_555
C1H C5H 1_555 1_555
C2H H1H 1_555 1_555
C3H H2H 1_555 1_555
F1H C9H 1_555 1_555
F2H C9H 1_555 1_555
C4H C3H 1_555 1_555
H3H C4H 1_555 1_555
C5H C2H 1_555 1_555
C7H C2H 1_555 1_555
H4H C7H 1_555 1_555
C8H C6 1_555 1_555
F3H C9H 1_555 1_555
C9H C6 1_555 1_555
O3H C1H 1_555 1_555
O3A Zn1 1_555 1_555
O3K Zn1 1_555 1_555
C4 C5 1_555 1_555
C7 C8 1_555 1_555
C3H C8H 1_555 1_555
C4H C5H 1_555 1_555
C7H C8H 1_555 1_555

#END
