
#######################################################################
#
#                 Cambridge Crystallographic Data Centre
#                                CCDC 
#
#######################################################################
#
# If this CIF has been generated from an entry in the Cambridge 
# Structural Database, then it will include bibliographic, chemical, 
# crystal, experimental, refinement or atomic coordinate data resulting 
# from the CCDC's data processing and validation procedures.
#
#######################################################################

data_AXIPEE02
_chemical_formula_moiety         '(C78 H102 Au6 Fe3 N24 O12)n'
_symmetry_cell_setting           monoclinic
_symmetry_space_group_name_H-M   'C 2/c'
_symmetry_Int_Tables_number      15
_space_group_name_Hall           '-C 2yc'
loop_
_symmetry_equiv_pos_site_id
_symmetry_equiv_pos_as_xyz
1 x,y,z
2 -x,y,1/2-z
3 1/2+x,1/2+y,z
4 1/2-x,1/2+y,1/2-z
5 -x,-y,-z
6 x,-y,1/2+z
7 1/2-x,1/2-y,-z
8 1/2+x,1/2-y,1/2+z
_cell_length_a                   43.1076(10)
_cell_length_b                   14.6316(2)
_cell_length_c                   32.3210(6)
_cell_angle_alpha                90
_cell_angle_beta                 109.490(2)
_cell_angle_gamma                90
_cell_volume                     19217.8
loop_
_atom_site_label
_atom_site_type_symbol
_atom_site_fract_x
_atom_site_fract_y
_atom_site_fract_z
C1 C 0.0476(2) 0.8863(6) 0.0421(3)
C2 C -0.0464(2) 0.8820(7) 0.0571(3)
C3 C -0.0477(2) 0.5789(7) 0.0529(3)
C4 C 0.0535(2) 0.5845(6) 0.0506(3)
C5 C 0.1113(2) 0.9213(6) -0.0491(3)
C6 C 0.1172(2) 0.6069(6) -0.0410(3)
C7 C 0.2178(2) 0.6070(6) -0.0563(3)
C8 C 0.2194(2) 0.9319(6) -0.0521(3)
C9 C 0.1168(2) 0.3849(6) 0.0553(3)
C10 C 0.2114(3) 0.3816(7) 0.0395(3)
C11 C 0.2170(2) 0.0883(7) 0.0487(3)
C12 C 0.1155(2) 0.0772(6) 0.0511(3)
C13 C 0.0045(2) 0.7382(7) 0.1437(3)
H1 H -0.0187 0.7351 0.1313
C14 C 0.0550(2) 0.7391(7) 0.1351(3)
H2 H 0.0679 0.7353 0.1164
C15 C 0.0186(3) 0.7453(7) 0.1892(3)
H3 H 0.0052 0.7447 0.2073
C16 C 0.0709(3) 0.7476(7) 0.1795(3)
H4 H 0.0943 0.7498 0.1910
C17 C 0.0524(2) 0.7531(7) 0.2076(3)
C18 C 0.0688(3) 0.7649(7) 0.2555(3)
C19 C 0.0983(3) 0.8145(8) 0.2719(4)
H5 H 0.1081 0.8417 0.2527
C20 C 0.1123(3) 0.8225(8) 0.3162(3)
H6 H 0.1322 0.8557 0.3289
C21 C 0.0965(2) 0.7805(7) 0.3425(3)
C22 C 0.1115(2) 0.7812(7) 0.3909(3)
C23 C 0.1095(3) 0.7054(8) 0.4148(3)
H7 H 0.0972 0.6538 0.4005
C24 C 0.1287(2) 0.8552(7) 0.4140(3)
H8 H 0.1305 0.9094 0.3989
C25 C 0.1254(3) 0.7040(7) 0.4601(3)
H9 H 0.1242 0.6499 0.4757
C26 C 0.1433(2) 0.8503(6) 0.4594(3)
H10 H 0.1545 0.9025 0.4747
C27 C 0.1112(3) 0.7614(7) -0.1377(3)
H11 H 0.0983 0.7666 -0.1190
C28 C 0.1610(3) 0.7593(7) -0.1471(3)
H12 H 0.1844 0.7621 -0.1349
C29 C 0.0952(3) 0.7516(7) -0.1818(3)
H13 H 0.0719 0.7493 -0.1931
C30 C 0.1472(3) 0.7507(7) -0.1920(4)
H14 H 0.1607 0.7486 -0.2100
C31 C 0.1134(3) 0.7452(7) -0.2101(3)
C32 C 0.0962(3) 0.7318(8) -0.2578(3)
C33 C 0.0671(3) 0.6832(8) -0.2738(4)
H15 H 0.0574 0.6561 -0.2544
C34 C 0.0527(3) 0.6750(8) -0.3180(3)
H16 H 0.0329 0.6414 -0.3302
C35 C 0.0680(3) 0.7175(7) -0.3450(3)
C36 C 0.0529(3) 0.7178(7) -0.3934(3)
C37 C 0.0357(3) 0.6434(7) -0.4161(3)
H17 H 0.0341 0.5889 -0.4010
C38 C 0.0543(3) 0.7956(8) -0.4174(4)
H18 H 0.0664 0.8476 -0.4033
C39 C 0.0210(2) 0.6490(6) -0.4610(3)
H19 H 0.0101 0.5964 -0.4762
C40 C 0.0375(3) 0.7957(8) -0.4622(4)
H20 H 0.0379 0.8505 -0.4778
C41 C 0.1688(3) 0.2381(7) 0.1421(3)
H21 H 0.1455 0.2322 0.1300
C42 C 0.2191(3) 0.2406(7) 0.1332(3)
H22 H 0.2319 0.2365 0.1143
C43 C 0.1830(3) 0.2472(7) 0.1872(4)
H23 H 0.1697 0.2485 0.2054
C44 C 0.2355(3) 0.2495(7) 0.1772(3)
H24 H 0.2588 0.2522 0.1883
C45 C 0.2171(3) 0.2545(7) 0.2055(3)
C46 C 0.2342(2) 0.2668(8) 0.2535(3)
C47 C 0.2636(3) 0.3129(8) 0.2694(4)
H25 H 0.2735 0.3380 0.2498
C48 C 0.2782(3) 0.3219(8) 0.3134(3)
H26 H 0.2986 0.3531 0.3257
C49 C 0.2617(2) 0.2827(7) 0.3402(3)
C50 C 0.2769(2) 0.2840(7) 0.3885(3)
C51 C 0.2724(3) 0.2118(8) 0.4129(4)
H27 H 0.2582 0.1628 0.3991
C52 C 0.2961(2) 0.3555(7) 0.4113(3)
H28 H 0.2991 0.4084 0.3960
C53 C 0.2885(3) 0.2106(8) 0.4576(4)
H29 H 0.2855 0.1586 0.4734
C54 C 0.3109(2) 0.3497(6) 0.4559(3)
H30 H 0.3239 0.3998 0.4708
N1 N 0.0301(2) 0.8295(5) 0.0441(3)
N2 N -0.02997(19) 0.8243(5) 0.0553(2)
N3 N -0.02858(19) 0.6334(5) 0.0549(2)
N4 N 0.03391(19) 0.6384(5) 0.0489(2)
N5 N 0.1319(2) 0.8665(6) -0.0476(3)
N6 N 0.1362(2) 0.6646(6) -0.0413(3)
N7 N 0.2002(2) 0.6685(6) -0.0561(3)
N8 N 0.1991(2) 0.8758(6) -0.0557(3)
N9 N 0.13353(19) 0.3256(5) 0.0536(2)
N10 N 0.19345(19) 0.3283(5) 0.0417(3)
N11 N 0.19703(19) 0.1402(5) 0.0467(3)
N12 N 0.1346(2) 0.1326(5) 0.0537(3)
N13 N 0.02224(18) 0.7358(5) 0.1170(2)
N14 N 0.0542(2) 0.7298(7) 0.2820(3)
N15 N 0.0686(2) 0.7362(7) 0.3261(3)
N16 N 0.14218(18) 0.7742(5) 0.4823(2)
N17 N 0.14382(19) 0.7640(5) -0.1196(3)
N18 N 0.1109(2) 0.7687(7) -0.2845(3)
N19 N 0.0962(2) 0.7613(7) -0.3284(3)
N20 N 0.02120(19) 0.7258(5) -0.4848(3)
N21 N 0.18616(19) 0.2371(5) 0.1147(3)
N22 N 0.2190(2) 0.2334(7) 0.2798(3)
N23 N 0.2333(2) 0.2403(7) 0.3238(3)
N24 N 0.3079(2) 0.2766(6) 0.4801(3)
Fe1 Fe 0.00111(3) 0.73091(10) 0.05090(4)
Fe2 Fe 0.16724(3) 0.76914(9) -0.04985(4)
Fe3 Fe 0.16455(3) 0.23131(10) 0.04874(4)
Au1 Au 0.081168(9) 0.98247(3) 0.044531(12)
Au2 Au 0.078860(10) 1.01581(3) -0.053066(13)
Au3 Au 0.085851(9) 0.48708(3) 0.052575(12)
Au4 Au 0.083281(10) 0.51568(3) -0.044565(13)
Au5 Au 0.246387(10) 0.47770(3) 0.043470(13)
Au6 Au 0.249087(9) 0.50888(3) -0.052227(13)
C2D C 0.0464(2) 1.1180(7) -0.0571(3)
C3D C 0.0477(2) 0.4211(7) -0.0529(3)
C8F C 0.2806(2) 0.5681(6) 0.0521(3)
C11F C 0.2830(2) 0.4117(7) -0.0487(3)
C12_2 C 0.1155(2) 1.0772(6) 0.0511(3)
N16E N 0.14218(18) 0.2258(5) -0.0177(2)
N20A N -0.02120(19) 0.7258(5) -0.0152(3)
N24C N 0.1921(2) 0.7766(6) 0.0199(3)
Fe1A Fe -0.00111(3) 0.73091(10) -0.55090(4)
Fe2C Fe 0.33276(3) 0.26914(9) 0.54985(4)
Fe3E Fe 0.16455(3) 0.76869(10) 0.54874(4)
Au1_2 Au 0.081168(9) -0.01753(3) 0.044531(12)
Au2D Au -0.078860(10) 0.98419(3) 0.053066(13)
Au4D Au -0.083281(10) 0.48432(3) 0.044565(13)
Au5F Au 0.253613(10) 1.02230(3) -0.043470(13)
Au6F Au 0.250913(9) -0.00888(3) 0.052227(13)
C55 C -0.0384(4) 0.6999(11) -0.3953(5)
H31 H -0.0592 0.6669 -0.3987
H32 H -0.0212 0.6537 -0.3932
C56 C -0.0429(3) 0.7574(10) -0.4348(5)
H33 H -0.0493 0.7186 -0.4610
H34 H -0.0223 0.7889 -0.4320
H35 H -0.0603 0.8026 -0.4373
O1 O -0.0293(3) 0.7521(8) -0.3557(3)
H36 H -0.0112 0.7787 -0.3530
C57 C 0.0568(9) 0.9583(19) -0.2290(11)
H37 H 0.0568 1.0104 -0.2485
H38 H 0.0791 0.9310 -0.2191
C58 C 0.0490(11) 0.991(2) -0.1908(11)
H39 H 0.0656 1.0357 -0.1746
H40 H 0.0488 0.9396 -0.1715
H41 H 0.0273 1.0203 -0.2006
O2 O 0.0340(5) 0.8930(9) -0.2523(5)
H42 H 0.0156 0.9182 -0.2554
C59 C -0.0362(5) 0.5416(15) -0.3068(9)
H43 H -0.0416 0.5153 -0.2818
H44 H -0.0572 0.5558 -0.3303
C60 C -0.0194(6) 0.4758(12) -0.3225(8)
H45 H -0.0036 0.4439 -0.2976
H46 H -0.0076 0.5057 -0.3399
H47 H -0.0352 0.4317 -0.3408
O3 O -0.0177(3) 0.6280(8) -0.2923(4)
H48 H -0.0122 0.6497 -0.3129
C61 C 0.0111(4) 0.9568(12) -0.3688(6)
H49 H 0.0064 0.9388 -0.3998
H50 H -0.0089 0.9863 -0.3662
C62 C 0.0377(5) 1.0189(11) -0.3560(6)
H51 H 0.0322 1.0730 -0.3749
H52 H 0.0573 0.9895 -0.3588
H53 H 0.0421 1.0370 -0.3254
O4 O 0.0191(3) 0.8766(7) -0.3412(4)
H54 H 0.0223 0.8934 -0.3151
C63 C 0.1561(4) 0.5455(12) 0.3703(6)
H55 H 0.1606 0.5652 0.4010
H56 H 0.1761 0.5155 0.3681
C64 C 0.1285(5) 0.4817(11) 0.3574(6)
H57 H 0.1338 0.4283 0.3768
H58 H 0.1243 0.4622 0.3270
H59 H 0.1088 0.5119 0.3597
O5 O 0.1475(3) 0.6238(8) 0.3412(4)
H60 H 0.1439 0.6047 0.3152
C65 C 0.2047(4) 0.8011(12) 0.3949(5)
H61 H 0.1876 0.8475 0.3930
H62 H 0.2255 0.8338 0.3978
C66 C 0.2096(3) 0.7447(9) 0.4346(5)
H63 H 0.2162 0.7841 0.4606
H64 H 0.2269 0.6993 0.4371
H65 H 0.1891 0.7134 0.4324
O6 O 0.1953(3) 0.7497(8) 0.3555(4)
H66 H 0.1772 0.7231 0.3531
C67 C 0.1106(9) 0.5376(18) 0.2297(11)
H67 H 0.0877 0.5602 0.2220
H68 H 0.1129 0.4833 0.2487
C68 C 0.1172(9) 0.512(2) 0.1894(9)
H69 H 0.1011 0.4659 0.1734
H70 H 0.1394 0.4861 0.1972
H71 H 0.1155 0.5658 0.1709
O7 O 0.1328(5) 0.6067(10) 0.2528(5)
H72 H 0.1303 0.6517 0.2359
C69 C 0.2018(6) 0.9628(19) 0.3057(11)
H73 H 0.2235 0.9497 0.3278
H74 H 0.2057 0.9914 0.2802
C70 C 0.1861(7) 1.0245(16) 0.3231(10)
H75 H 0.2004 1.0776 0.3339
H76 H 0.1809 0.9964 0.3475
H77 H 0.1657 1.0442 0.3006
O8 O 0.1840(3) 0.8721(9) 0.2909(5)
H78 H 0.1658 0.8831 0.2717
C71 C 0.1303(6) 0.958(2) 0.1916(12)
H79 H 0.1097 0.9436 0.1674
H80 H 0.1241 0.9831 0.2162
C72 C 0.1464(7) 1.0230(15) 0.1777(10)
H81 H 0.1319 1.0757 0.1670
H82 H 0.1533 0.9987 0.1538
H83 H 0.1659 1.0420 0.2020
O9 O 0.1490(3) 0.8697(10) 0.2067(5)
H84 H 0.1653 0.8835 0.2282
C73 C 0.1286(5) 0.8016(17) 0.1046(7)
H85 H 0.1079 0.8334 0.1025
H86 H 0.1456 0.8484 0.1063
C74 C 0.1236(4) 0.7456(10) 0.0658(5)
H87 H 0.1164 0.7844 0.0396
H88 H 0.1066 0.6996 0.0640
H89 H 0.1442 0.7151 0.0676
O10 O 0.1390(3) 0.7454(10) 0.1439(4)
H90 H 0.1566 0.7199 0.1450
C75 C 0.1789(6) 0.5462(16) 0.1302(7)
H91 H 0.1582 0.5180 0.1306
H92 H 0.1756 0.5678 0.0999
C76 C 0.2041(6) 0.4824(12) 0.1424(7)
H93 H 0.1984 0.4305 0.1222
H94 H 0.2071 0.4611 0.1723
H95 H 0.2245 0.5105 0.1416
O11 O 0.1876(4) 0.6231(9) 0.1606(5)
H96 H 0.1896 0.6034 0.1857
C77 C 0.2252(9) 0.543(2) 0.2729(17)
H97 H 0.2471 0.5720 0.2846
H98 H 0.2266 0.4922 0.2534
C78 C 0.2155(12) 0.507(3) 0.3095(10)
H99 H 0.2319 0.4624 0.3262
H100 H 0.1940 0.4768 0.2977
H101 H 0.2141 0.5572 0.3288
O12 O 0.2017(5) 0.6077(11) 0.2490(7)
H102 H 0.2040 0.6520 0.2663
loop_
_geom_bond_atom_site_label_1
_geom_bond_atom_site_label_2
_geom_bond_site_symmetry_1
_geom_bond_site_symmetry_2
C1 N1 1_555 1_555
C2 N2 1_555 1_555
C3 N3 1_555 1_555
C4 N4 1_555 1_555
C5 N5 1_555 1_555
C6 N6 1_555 1_555
C7 N7 1_555 1_555
C8 N8 1_555 1_555
C9 N9 1_555 1_555
C10 N10 1_555 1_555
C11 N11 1_555 1_555
C12 N12 1_555 1_555
C13 H1 1_555 1_555
C14 H2 1_555 1_555
C15 C13 1_555 1_555
H3 C15 1_555 1_555
C16 C14 1_555 1_555
H4 C16 1_555 1_555
C17 C15 1_555 1_555
C18 C17 1_555 1_555
C19 C18 1_555 1_555
H5 C19 1_555 1_555
C20 C19 1_555 1_555
H6 C20 1_555 1_555
C21 C20 1_555 1_555
C22 C21 1_555 1_555
C23 C22 1_555 1_555
H7 C23 1_555 1_555
C24 C22 1_555 1_555
H8 C24 1_555 1_555
C25 C23 1_555 1_555
H9 C25 1_555 1_555
C26 C24 1_555 1_555
H10 C26 1_555 1_555
C27 H11 1_555 1_555
C28 H12 1_555 1_555
C29 C27 1_555 1_555
H13 C29 1_555 1_555
C30 C28 1_555 1_555
H14 C30 1_555 1_555
C31 C29 1_555 1_555
C32 C31 1_555 1_555
C33 C32 1_555 1_555
H15 C33 1_555 1_555
C34 C33 1_555 1_555
H16 C34 1_555 1_555
C35 C34 1_555 1_555
C36 C35 1_555 1_555
C37 C36 1_555 1_555
H17 C37 1_555 1_555
C38 C36 1_555 1_555
H18 C38 1_555 1_555
C39 C37 1_555 1_555
H19 C39 1_555 1_555
C40 C38 1_555 1_555
H20 C40 1_555 1_555
C41 H21 1_555 1_555
C42 H22 1_555 1_555
C43 C41 1_555 1_555
H23 C43 1_555 1_555
C44 C42 1_555 1_555
H24 C44 1_555 1_555
C45 C43 1_555 1_555
C46 C45 1_555 1_555
C47 C46 1_555 1_555
H25 C47 1_555 1_555
C48 C47 1_555 1_555
H26 C48 1_555 1_555
C49 C48 1_555 1_555
C50 C49 1_555 1_555
C51 C50 1_555 1_555
H27 C51 1_555 1_555
C52 C50 1_555 1_555
H28 C52 1_555 1_555
C53 C51 1_555 1_555
H29 C53 1_555 1_555
C54 C52 1_555 1_555
H30 C54 1_555 1_555
N1 Fe1 1_555 1_555
N2 Fe1 1_555 1_555
N3 Fe1 1_555 1_555
N4 Fe1 1_555 1_555
N5 Fe2 1_555 1_555
N6 Fe2 1_555 1_555
N7 Fe2 1_555 1_555
N8 Fe2 1_555 1_555
N9 Fe3 1_555 1_555
N10 Fe3 1_555 1_555
N11 Fe3 1_555 1_555
N12 Fe3 1_555 1_555
N13 C13 1_555 1_555
N14 C18 1_555 1_555
N15 C21 1_555 1_555
N16 C25 1_555 1_555
N17 C27 1_555 1_555
N18 C32 1_555 1_555
N19 C35 1_555 1_555
N20 C39 1_555 1_555
N21 C41 1_555 1_555
N22 C46 1_555 1_555
N23 C49 1_555 1_555
N24 C53 1_555 1_555
Fe1 N13 1_555 1_555
Fe2 N17 1_555 1_555
Fe3 N21 1_555 1_555
Au1 C1 1_555 1_555
Au2 C5 1_555 1_555
Au3 C4 1_555 1_555
Au4 C6 1_555 1_555
Au5 C10 1_555 1_555
Au6 C7 1_555 1_555
C55 H31 1_555 1_555
H32 C55 1_555 1_555
C56 C55 1_555 1_555
H33 C56 1_555 1_555
H34 C56 1_555 1_555
H35 C56 1_555 1_555
O1 C55 1_555 1_555
H36 O1 1_555 1_555
C57 H37 1_555 1_555
H38 C57 1_555 1_555
C58 C57 1_555 1_555
H39 C58 1_555 1_555
H40 C58 1_555 1_555
H41 C58 1_555 1_555
O2 C57 1_555 1_555
H42 O2 1_555 1_555
C59 H43 1_555 1_555
H44 C59 1_555 1_555
C60 C59 1_555 1_555
H45 C60 1_555 1_555
H46 C60 1_555 1_555
H47 C60 1_555 1_555
O3 C59 1_555 1_555
H48 O3 1_555 1_555
C61 H49 1_555 1_555
H50 C61 1_555 1_555
C62 C61 1_555 1_555
H51 C62 1_555 1_555
H52 C62 1_555 1_555
H53 C62 1_555 1_555
O4 C61 1_555 1_555
H54 O4 1_555 1_555
C63 H55 1_555 1_555
H56 C63 1_555 1_555
C64 C63 1_555 1_555
H57 C64 1_555 1_555
H58 C64 1_555 1_555
H59 C64 1_555 1_555
O5 C63 1_555 1_555
H60 O5 1_555 1_555
C65 H61 1_555 1_555
H62 C65 1_555 1_555
C66 C65 1_555 1_555
H63 C66 1_555 1_555
H64 C66 1_555 1_555
H65 C66 1_555 1_555
O6 C65 1_555 1_555
H66 O6 1_555 1_555
C67 H67 1_555 1_555
H68 C67 1_555 1_555
C68 C67 1_555 1_555
H69 C68 1_555 1_555
H70 C68 1_555 1_555
H71 C68 1_555 1_555
O7 C67 1_555 1_555
H72 O7 1_555 1_555
C69 H73 1_555 1_555
H74 C69 1_555 1_555
C70 C69 1_555 1_555
H75 C70 1_555 1_555
H76 C70 1_555 1_555
H77 C70 1_555 1_555
O8 C69 1_555 1_555
H78 O8 1_555 1_555
C71 H79 1_555 1_555
H80 C71 1_555 1_555
C72 C71 1_555 1_555
H81 C72 1_555 1_555
H82 C72 1_555 1_555
H83 C72 1_555 1_555
O9 C71 1_555 1_555
H84 O9 1_555 1_555
C73 H85 1_555 1_555
H86 C73 1_555 1_555
C74 C73 1_555 1_555
H87 C74 1_555 1_555
H88 C74 1_555 1_555
H89 C74 1_555 1_555
O10 C73 1_555 1_555
H90 O10 1_555 1_555
C75 H91 1_555 1_555
H92 C75 1_555 1_555
C76 C75 1_555 1_555
H93 C76 1_555 1_555
H94 C76 1_555 1_555
H95 C76 1_555 1_555
O11 C75 1_555 1_555
H96 O11 1_555 1_555
C77 H97 1_555 1_555
H98 C77 1_555 1_555
C78 C77 1_555 1_555
H99 C78 1_555 1_555
H100 C78 1_555 1_555
H101 C78 1_555 1_555
O12 C77 1_555 1_555
H102 O12 1_555 1_555
C2D Au2 1_555 1_555
C3D Au4 1_555 1_555
C8F Au5 1_555 1_555
C11F Au6 1_555 1_555
C12_2 Au1 1_555 1_555
N16E Fe3 1_555 1_555
N20A Fe1 1_555 1_555
N24C Fe2 1_555 1_555
Fe1A N20 1_555 1_555
Fe2C N24 1_555 1_555
Fe3E N16 1_555 1_555
Au1_2 C12 1_555 1_555
Au2D C2 1_555 1_555
Au4D C3 1_555 1_555
Au5F C8 1_555 1_555
Au6F C11 1_555 1_555
C9 Au3 1_555 1_555
C14 N13 1_555 1_555
C16 C17 1_555 1_555
C26 N16 1_555 1_555
C28 N17 1_555 1_555
C30 C31 1_555 1_555
C40 N20 1_555 1_555
C42 N21 1_555 1_555
C44 C45 1_555 1_555
C54 N24 1_555 1_555
N14 N15 1_555 1_555
N18 N19 1_555 1_555
N22 N23 1_555 1_555
Au1 Au2 1_555 1_555
Au3 Au4 1_555 1_555
Au5 Au6 1_555 1_555

#END
