
#######################################################################
#
#                 Cambridge Crystallographic Data Centre
#                                CCDC 
#
#######################################################################
#
# If this CIF has been generated from an entry in the Cambridge 
# Structural Database, then it will include bibliographic, chemical, 
# crystal, experimental, refinement or atomic coordinate data resulting 
# from the CCDC's data processing and validation procedures.
#
#######################################################################

data_ROJNEJ
_chemical_formula_moiety         '(C8 H4 O11 V2)n'
_symmetry_cell_setting           tetragonal
_symmetry_space_group_name_H-M   'P 4/m b m'
_symmetry_Int_Tables_number      127
_space_group_name_Hall           '-P 4 2ab'
loop_
_symmetry_equiv_pos_site_id
_symmetry_equiv_pos_as_xyz
1 x,y,z
2 -y,x,z
3 1/2+x,1/2-y,-z
4 -x,-y,z
5 1/2+y,1/2+x,-z
6 y,-x,z
7 1/2-x,1/2+y,-z
8 1/2-y,1/2-x,-z
9 -x,-y,-z
10 y,-x,-z
11 1/2-x,1/2+y,z
12 x,y,-z
13 1/2-y,1/2-x,z
14 -y,x,-z
15 1/2+x,1/2-y,z
16 1/2+y,1/2+x,z
_cell_length_a                   9.959(10)
_cell_length_b                   9.959(10)
_cell_length_c                   7.113(2)
_cell_angle_alpha                90
_cell_angle_beta                 90
_cell_angle_gamma                90
_cell_volume                     705.479
loop_
_atom_site_label
_atom_site_type_symbol
_atom_site_fract_x
_atom_site_fract_y
_atom_site_fract_z
V1 V -0.6091(1) 0.1091(1) 0.5000
O1 O -0.6299(3) 0.3121(3) 0.5000
O2 O -0.6175(2) 0.1175(2) 0.7797(4)
O3 O -0.5862(3) -0.0862(3) 0.5000
C1 C -0.4422(5) -0.4144(5) 0.5000
C2 C -0.5516(3) 0.0516(3) 0.8990(7)
H1 H -0.3563 0.1437 0.5000
O1G O -0.8121(3) 0.1299(3) 0.5000
C2C C -0.4484(3) -0.0516(3) 0.8990(7)
O2C O -0.3825(2) -0.1175(2) 0.7797(4)
V1C V -0.3909(1) -0.1091(1) 0.5000
O1C O -0.3701(3) -0.3121(3) 0.5000
C1E C -0.4144(5) -0.5578(5) 0.5000
O1A O -0.3121(3) -0.6299(3) 0.5000
V1A V -0.1091(1) -0.6091(1) 0.5000
C1C C -0.5578(5) -0.5856(5) 0.5000
C1A C -0.5856(5) -0.4422(5) 0.5000
O1D O -0.1879(3) -0.1299(3) 0.5000
O2D O -0.3825(2) -0.1175(2) 0.2203(4)
O2G O -0.6175(2) 0.1175(2) 0.2203(4)
O3C O -0.4138(3) 0.0862(3) 0.5000
H1C H -0.6437 -0.1437 0.5000
C2D C -0.4484(3) -0.0516(3) 1.1010(7)
C2G C -0.5516(3) 0.0516(3) 1.1010(7)
O1E O -0.6879(3) -0.3701(3) 0.5000
V1E V -0.8909(1) -0.3909(1) 0.5000
O1_2 O -0.6299(3) -0.6879(3) 0.5000
V1_2 V -0.6091(1) -0.8909(1) 0.5000
O2G_2 O -0.6175(2) 0.1175(2) 1.2203(4)
V1_3 V -0.6091(1) 0.1091(1) 1.5000
O2D_2 O -0.3825(2) -0.1175(2) 1.2203(4)
V1C_2 V -0.3909(1) -0.1091(1) 1.5000
O4 O 0.1784(10) -0.1081(8) 0.0000
loop_
_geom_bond_atom_site_label_1
_geom_bond_atom_site_label_2
_geom_bond_site_symmetry_1
_geom_bond_site_symmetry_2
V1 O1 1_555 1_555
O2 V1 1_555 1_555
O3 V1 1_555 1_555
C1 O1C 1_555 1_555
C2 O2 1_555 1_555
H1 O3C 1_555 1_555
O1G V1 1_555 1_555
C2C C2 1_555 1_555
O2C C2C 1_555 1_555
V1C O3 1_555 1_555
O1C V1C 1_555 1_555
C1E C1 1_555 1_555
O1A C1E 1_555 1_555
V1A O1A 1_555 1_555
C1C C1E 1_555 1_555
C1A C1 1_555 1_555
O1D V1C 1_555 1_555
O2D V1C 1_555 1_555
O2G V1 1_555 1_555
O3C V1 1_555 1_555
H1C O3 1_555 1_555
C2D C2C 1_555 1_555
C2G C2 1_555 1_555
O1E C1A 1_555 1_555
V1E O1E 1_555 1_555
O1_2 C1C 1_555 1_555
V1_2 O1_2 1_555 1_555
O2G_2 C2G 1_555 1_555
V1_3 O2G_2 1_555 1_555
O2D_2 C2D 1_555 1_555
V1C_2 O2D_2 1_555 1_555
O2C V1C 1_555 1_555
V1C O3C 1_555 1_555
C1C C1A 1_555 1_555
C2D C2G 1_555 1_555

#END
