
#######################################################################
#
#                 Cambridge Crystallographic Data Centre
#                                CCDC 
#
#######################################################################
#
# If this CIF has been generated from an entry in the Cambridge 
# Structural Database, then it will include bibliographic, chemical, 
# crystal, experimental, refinement or atomic coordinate data resulting 
# from the CCDC's data processing and validation procedures.
#
#######################################################################

data_HAZGOF
_chemical_formula_moiety         '(C24 H12 O12 Sc2)n'
_symmetry_cell_setting           orthorhombic
_symmetry_space_group_name_H-M   'F d d d'
_symmetry_Int_Tables_number      70
_space_group_name_Hall           '-F 2uv 2vw'
loop_
_symmetry_equiv_pos_site_id
_symmetry_equiv_pos_as_xyz
1 x,y,z
2 x,1/2+y,1/2+z
3 x,1/4-y,1/4-z
4 1/2+x,y,1/2+z
5 1/4-x,y,1/4-z
6 1/2+x,1/2+y,z
7 1/4-x,1/4-y,z
8 3/4-x,3/4-y,z
9 3/4-x,y,3/4-z
10 x,3/4-y,3/4-z
11 3/4-x,1/4-y,1/2+z
12 3/4-x,1/2+y,1/4-z
13 1/4-x,3/4-y,1/2+z
14 1/2+x,3/4-y,1/4-z
15 1/4-x,1/2+y,3/4-z
16 1/2+x,1/4-y,3/4-z
17 -x,-y,-z
18 -x,1/2-y,1/2-z
19 -x,3/4+y,3/4+z
20 1/2-x,-y,1/2-z
21 3/4+x,-y,3/4+z
22 1/2-x,1/2-y,-z
23 3/4+x,3/4+y,-z
24 1/4+x,1/4+y,-z
25 1/4+x,-y,1/4+z
26 -x,1/4+y,1/4+z
27 1/4+x,3/4+y,1/2-z
28 1/4+x,1/2-y,3/4+z
29 3/4+x,1/4+y,1/2-z
30 1/2-x,1/4+y,3/4+z
31 3/4+x,1/2-y,1/4+z
32 1/2-x,3/4+y,1/4+z
_cell_length_a                   8.7433(5)
_cell_length_b                   20.7448(11)
_cell_length_c                   34.3664(18)
_cell_angle_alpha                90
_cell_angle_beta                 90
_cell_angle_gamma                90
_cell_volume                     6233.31
loop_
_atom_site_label
_atom_site_type_symbol
_atom_site_fract_x
_atom_site_fract_y
_atom_site_fract_z
Sc1 Sc 0.3750 0.8750 0.135677(9)
O1 O 0.50527(14) 0.79181(6) 0.13531(5)
O2 O 0.24530(14) 0.83425(8) 0.09257(4)
O3 O 0.00875(13) 0.83332(7) 0.07054(3)
C1 C 0.6250 0.76357(12) 0.1250
C2 C 0.14781(18) 0.81972(9) 0.06770(4)
C3 C 0.6250 0.69190(12) 0.1250
C4 C 0.20039(18) 0.78357(10) 0.03248(5)
C5 C 0.4891(2) 0.65830(11) 0.12549(10)
C6 C 0.3537(2) 0.76946(13) 0.02772(6)
C7 C 0.0968(2) 0.76415(13) 0.00473(6)
O1B O 0.50527(14) 0.45819(6) 0.11469(5)
C1B C 0.6250 0.48643(12) 0.1250
C3B C 0.6250 0.55810(12) 0.1250
C5B C 0.4891(2) 0.59170(11) 0.12451(10)
O1D O 0.74473(14) 0.79181(6) 0.11469(5)
C5D C 0.7609(2) 0.65830(11) 0.12451(10)
O1F O 0.74473(14) 0.45819(6) 0.13531(5)
C5F C 0.7609(2) 0.59170(11) 0.12549(10)
O2U O 0.25470(14) 0.66575(8) -0.09257(4)
O3U O 0.49125(13) 0.66668(7) -0.07054(3)
C2U C 0.35219(18) 0.68028(9) -0.06770(4)
C4U C 0.29961(18) 0.71643(10) -0.03248(5)
C6U C 0.1463(2) 0.73054(13) -0.02772(6)
C7U C 0.4032(2) 0.73585(13) -0.00473(6)
Sc1B Sc 0.3750 0.3750 0.114323(9)
O2B O 0.24530(14) 0.41575(8) 0.15743(4)
O3B O 0.00875(13) 0.41668(7) 0.17946(3)
C2B C 0.14781(18) 0.43028(9) 0.18230(4)
C4B C 0.20039(18) 0.46643(10) 0.21752(5)
C6B C 0.3537(2) 0.48054(13) 0.22228(6)
C7B C 0.0968(2) 0.48585(13) 0.24527(6)
O2EA O 0.25470(14) 0.58425(8) 0.34257(4)
O3EA O 0.49125(13) 0.58332(7) 0.32054(3)
C2EA C 0.35219(18) 0.56972(9) 0.31770(4)
C4EA C 0.29961(18) 0.53357(10) 0.28248(5)
C6EA C 0.1463(2) 0.51946(13) 0.27772(6)
C7EA C 0.4032(2) 0.51415(13) 0.25473(6)
Sc1D Sc -0.1250 0.8750 0.114323(9)
Sc1D_2 Sc 0.8750 0.8750 0.114323(9)
Sc1E Sc -0.1250 0.3750 0.135677(9)
Sc1E_2 Sc 0.8750 0.3750 0.135677(9)
Sc1Q Sc 0.6250 0.6250 0.364323(9)
Sc1R Sc 0.6250 0.6250 -0.114323(9)
Sc1U Sc 0.1250 0.6250 -0.135677(9)
Sc1DA Sc 0.1250 0.6250 0.385677(9)
O1G O 0.24473(14) 0.95819(6) 0.13531(5)
O1K O 0.24473(14) 0.29181(6) 0.11469(5)
O2G O 0.50470(14) 0.91575(8) 0.09257(4)
O2K O 0.50470(14) 0.33425(8) 0.15743(4)
O3D O 0.24125(13) 0.83332(7) 0.17946(3)
O3E O 0.50875(13) 0.33332(7) 0.07054(3)
O3F O 0.24125(13) 0.41668(7) 0.07054(3)
O3M O 0.50875(13) 0.91668(7) 0.17946(3)
loop_
_geom_bond_atom_site_label_1
_geom_bond_atom_site_label_2
_geom_bond_site_symmetry_1
_geom_bond_site_symmetry_2
Sc1 O1 1_555 1_555
O1 C1 1_555 1_555
O2 Sc1 1_555 1_555
O3 C2 1_555 1_555
C1 C3 1_555 1_555
C2 O2 1_555 1_555
C3 C5 1_555 1_555
C4 C2 1_555 1_555
C5 C5B 1_555 1_555
C6 C4 1_555 1_555
C7 C4 1_555 1_555
O1B C1B 1_555 1_555
C1B C3B 1_555 1_555
C3B C5B 1_555 1_555
O1D C1 1_555 1_555
C5D C3 1_555 1_555
O1F C1B 1_555 1_555
C5F C3B 1_555 1_555
O2U C2U 1_555 1_555
O3U C2U 1_555 1_555
C2U C4U 1_555 1_555
C4U C6U 1_555 1_555
C6U C7 1_555 1_555
C7U C6 1_555 1_555
Sc1B O1B 1_555 1_555
O2B Sc1B 1_555 1_555
O3B C2B 1_555 1_555
C2B O2B 1_555 1_555
C4B C2B 1_555 1_555
C6B C4B 1_555 1_555
C7B C4B 1_555 1_555
O2EA C2EA 1_555 1_555
O3EA C2EA 1_555 1_555
C2EA C4EA 1_555 1_555
C4EA C6EA 1_555 1_555
C6EA C7B 1_555 1_555
C7EA C6B 1_555 1_555
Sc1D O3 1_555 1_555
Sc1D_2 O1D 1_555 1_555
Sc1E O3B 1_555 1_555
Sc1E_2 O1F 1_555 1_555
Sc1Q O3EA 1_555 1_555
Sc1R O3U 1_555 1_555
Sc1U O2U 1_555 1_555
Sc1DA O2EA 1_555 1_555
O1G Sc1 1_555 1_555
O1K Sc1B 1_555 1_555
O2G Sc1 1_555 1_555
O2K Sc1B 1_555 1_555
O3D Sc1 1_555 1_555
O3E Sc1B 1_555 1_555
O3F Sc1B 1_555 1_555
O3M Sc1 1_555 1_555
C5D C5F 1_555 1_555
C4U C7U 1_555 1_555
C4EA C7EA 1_555 1_555

#END
