
#######################################################################
#
#                 Cambridge Crystallographic Data Centre
#                                CCDC 
#
#######################################################################
#
# If this CIF has been generated from an entry in the Cambridge 
# Structural Database, then it will include bibliographic, chemical, 
# crystal, experimental, refinement or atomic coordinate data resulting 
# from the CCDC's data processing and validation procedures.
#
#######################################################################

data_PORWAV
_chemical_formula_moiety         '(C52 H36 N2 O8 Zn2)n'
_symmetry_cell_setting           monoclinic
_symmetry_space_group_name_H-M   'P 21/n'
_symmetry_Int_Tables_number      14
_space_group_name_Hall           '-P 2yn'
loop_
_symmetry_equiv_pos_site_id
_symmetry_equiv_pos_as_xyz
1 x,y,z
2 1/2-x,1/2+y,1/2-z
3 -x,-y,-z
4 1/2+x,1/2-y,1/2+z
_cell_length_a                   17.476(3)
_cell_length_b                   17.525(2)
_cell_length_c                   22.753(3)
_cell_angle_alpha                90
_cell_angle_beta                 107.050(2)
_cell_angle_gamma                90
_cell_volume                     6662.22
loop_
_atom_site_label
_atom_site_type_symbol
_atom_site_fract_x
_atom_site_fract_y
_atom_site_fract_z
Zn1 Zn 0.09681(2) -0.136030(19) 0.066220(15)
Zn2 Zn 0.14508(2) -0.13900(2) 0.202520(15)
N1 N 0.08704(17) -0.13429(14) -0.02485(12)
N2 N 0.15054(19) -0.13823(16) -0.70638(13)
O1 O 0.09677(16) -0.24965(12) 0.08162(12)
O2 O 0.14151(16) -0.25328(13) 0.18382(12)
O3 O 0.10764(14) -1.02409(12) 0.08541(11)
O4 O 0.14232(15) -1.02447(13) 0.18733(11)
O5 O -0.01769(14) -0.13323(13) 0.07171(11)
O6 O 0.02251(15) -0.13987(14) 0.17295(12)
O7 O -0.77897(15) -0.14278(14) 0.09707(12)
O8 O -0.74090(14) -0.13801(13) 0.19844(11)
C1 C 0.1195(2) -0.28445(19) 0.13231(19)
C2 C 0.1199(2) -0.36944(18) 0.12909(19)
C3 C 0.0920(3) -0.4073(2) 0.0742(2)
H1 H 0.0713 -0.3793 0.0384
C4 C 0.0936(3) -0.4864(2) 0.0705(2)
H2 H 0.0740 -0.5101 0.0325
C5 C 0.1237(3) -0.5298(2) 0.1219(3)
C6 C 0.1541(3) -0.4929(2) 0.1770(2)
H3 H 0.1765 -0.5217 0.2122
C7 C 0.1525(3) -0.4122(2) 0.1819(2)
H4 H 0.1729 -0.3885 0.2198
C8 C 0.1269(2) -0.99144(18) 0.13650(17)
C9 C 0.13158(19) -0.90672(17) 0.13696(15)
C10 C 0.1552(2) -0.8660(2) 0.19158(19)
H5 H 0.1694 -0.8923 0.2287
C11 C 0.1581(3) -0.7890(2) 0.1920(2)
H6 H 0.1744 -0.7635 0.2294
C12 C 0.1375(3) -0.7468(2) 0.1380(2)
C13 C 0.1150(2) -0.7876(2) 0.0819(2)
H7 H 0.1018 -0.7611 0.0448
C14 C 0.1124(2) -0.86612(19) 0.08141(18)
H8 H 0.0979 -0.8923 0.0442
C15 C 0.1178(6) -0.6140(6) 0.1058(8)
H9 H 0.0956 -0.6305 0.0655
C16 C 0.1454(7) -0.6629(7) 0.1513(8)
H10 H 0.1694 -0.6456 0.1911
C17 C -0.0299(2) -0.1386(2) 0.12321(18)
C18 C -0.1149(2) -0.1415(2) 0.1247(2)
C19 C -0.1319(3) -0.1411(2) 0.1799(2)
H11 H -0.0905 -0.1396 0.2165
C20 C -0.2112(3) -0.1430(3) 0.1813(3)
H12 H -0.2221 -0.1423 0.2189
C21 C -0.2725(3) -0.1459(3) 0.1286(3)
C22 C -0.2555(3) -0.1475(3) 0.0731(3)
H13 H -0.2970 -0.1509 0.0366
C23 C -0.1772(3) -0.1442(3) 0.0712(3)
H14 H -0.1666 -0.1438 0.0334
C24 C -0.7277(2) -0.14036(19) 0.14763(18)
C25 C -0.6425(2) -0.1427(2) 0.1473(2)
C26 C -0.5799(3) -0.1399(2) 0.2019(2)
H15 H -0.5912 -0.1367 0.2393
C27 C -0.5013(3) -0.1417(3) 0.2008(3)
H16 H -0.4607 -0.1408 0.2379
C28 C -0.4811(3) -0.1448(3) 0.1488(3)
C29 C -0.5416(3) -0.1479(3) 0.0944(3)
H17 H -0.5290 -0.1504 0.0574
C30 C -0.6230(3) -0.1476(3) 0.0936(2)
H18 H -0.6632 -0.1507 0.0564
C31 C -0.3626(11) -0.1482(8) 0.1149(15)
H19 H -0.3960 -0.1510 0.0747
C32 C -0.3916(12) -0.1461(8) 0.1617(15)
H20 H -0.3579 -0.1455 0.2018
C33 C 0.0800(2) -0.0701(2) -0.05660(16)
H21 H 0.0769 -0.0245 -0.0364
C34 C 0.0769(3) -0.0667(2) -0.11784(17)
H22 H 0.0711 -0.0199 -0.1379
C35 C 0.0823(3) -0.1320(2) -0.14911(17)
C36 C 0.0867(3) -0.2003(2) -0.11671(18)
H23 H 0.0877 -0.2468 -0.1361
C37 C 0.0895(3) -0.1979(2) -0.05533(17)
H24 H 0.0933 -0.2439 -0.0343
C38 C 0.1582(3) -0.2005(2) -0.67305(19)
H25 H 0.1666 -0.2466 -0.6905
C39 C 0.1545(3) -0.2005(3) -0.6133(2)
H26 H 0.1615 -0.2460 -0.5913
C40 C 0.1408(3) -0.1347(3) -0.5861(2)
C41 C 0.1363(3) -0.0712(3) -0.6194(2)
H27 H 0.1285 -0.0244 -0.6027
C42 C 0.1433(3) -0.0743(2) -0.67857(18)
H28 H 0.1428 -0.0287 -0.6996
C43 C 0.0835(4) -0.1347(3) -0.2129(2)
H29 H 0.0846 -0.1829 -0.2297
C44 C 0.0832(4) -0.0764(3) -0.2488(2)
H30 H 0.0771 -0.0285 -0.2332
C45 C 0.0916(4) -0.0783(3) -0.3113(2)
C46 C 0.0845(4) -0.0129(3) -0.3449(2)
H31 H 0.0744 0.0329 -0.3278
C47 C 0.0920(4) -0.0130(3) -0.4041(2)
H32 H 0.0865 0.0324 -0.4260
C48 C 0.1074(4) -0.0790(3) -0.4304(2)
C49 C 0.1168(5) -0.1451(3) -0.3963(2)
H33 H 0.1282 -0.1906 -0.4130
C50 C 0.1093(4) -0.1444(3) -0.3373(2)
H34 H 0.1165 -0.1895 -0.3149
C51 C 0.1168(4) -0.0786(3) -0.4931(2)
H35 H 0.1109 -0.0317 -0.5131
C52 C 0.1324(4) -0.1367(3) -0.5232(2)
H36 H 0.1389 -0.1837 -0.5035
Zn1_2 Zn 0.09681(2) -1.136030(19) 0.066220(15)
Zn1_3 Zn -0.90319(2) -0.136030(19) 0.066220(15)
Zn2_2 Zn 0.14508(2) -0.13900(2) -0.797480(15)
Zn2_3 Zn 0.14508(2) -1.13900(2) 0.202520(15)
Zn2_4 Zn -0.85492(2) -0.13900(2) 0.202520(15)
N2_2 N 0.15054(19) -0.13823(16) 0.29362(13)
O3_2 O 0.10764(14) -0.02409(12) 0.08541(11)
O4_2 O 0.14232(15) -0.02447(13) 0.18733(11)
O7_2 O 0.22103(15) -0.14278(14) 0.09707(12)
O8_2 O 0.25910(14) -0.13801(13) 0.19844(11)
loop_
_geom_bond_atom_site_label_1
_geom_bond_atom_site_label_2
_geom_bond_site_symmetry_1
_geom_bond_site_symmetry_2
Zn1 N1 1_555 1_555
Zn2 O2 1_555 1_555
N1 C33 1_555 1_555
N2 C38 1_555 1_555
O1 Zn1 1_555 1_555
O2 C1 1_555 1_555
O3 C8 1_555 1_555
O4 C8 1_555 1_555
O5 Zn1 1_555 1_555
O6 Zn2 1_555 1_555
O7 C24 1_555 1_555
O8 C24 1_555 1_555
C1 O1 1_555 1_555
C2 C1 1_555 1_555
C3 C2 1_555 1_555
H1 C3 1_555 1_555
C4 C3 1_555 1_555
H2 C4 1_555 1_555
C5 C4 1_555 1_555
C6 C5 1_555 1_555
H3 C6 1_555 1_555
C7 C2 1_555 1_555
H4 C7 1_555 1_555
C8 C9 1_555 1_555
C9 C10 1_555 1_555
C10 H5 1_555 1_555
C11 C10 1_555 1_555
H6 C11 1_555 1_555
C12 C11 1_555 1_555
C13 C12 1_555 1_555
H7 C13 1_555 1_555
C14 C9 1_555 1_555
H8 C14 1_555 1_555
C15 C5 1_555 1_555
H9 C15 1_555 1_555
C16 C12 1_555 1_555
H10 C16 1_555 1_555
C17 O5 1_555 1_555
C18 C17 1_555 1_555
C19 C18 1_555 1_555
H11 C19 1_555 1_555
C20 C19 1_555 1_555
H12 C20 1_555 1_555
C21 C20 1_555 1_555
C22 C21 1_555 1_555
H13 C22 1_555 1_555
C23 C18 1_555 1_555
H14 C23 1_555 1_555
C24 C25 1_555 1_555
C25 C26 1_555 1_555
C26 H15 1_555 1_555
C27 C26 1_555 1_555
H16 C27 1_555 1_555
C28 C27 1_555 1_555
C29 C28 1_555 1_555
H17 C29 1_555 1_555
C30 C25 1_555 1_555
H18 C30 1_555 1_555
C31 C21 1_555 1_555
H19 C31 1_555 1_555
C32 C28 1_555 1_555
H20 C32 1_555 1_555
C33 H21 1_555 1_555
C34 C33 1_555 1_555
H22 C34 1_555 1_555
C35 C34 1_555 1_555
C36 C35 1_555 1_555
H23 C36 1_555 1_555
C37 N1 1_555 1_555
H24 C37 1_555 1_555
C38 H25 1_555 1_555
C39 C38 1_555 1_555
H26 C39 1_555 1_555
C40 C39 1_555 1_555
C41 C40 1_555 1_555
H27 C41 1_555 1_555
C42 N2 1_555 1_555
H28 C42 1_555 1_555
C43 C35 1_555 1_555
H29 C43 1_555 1_555
C44 C43 1_555 1_555
H30 C44 1_555 1_555
C45 C44 1_555 1_555
C46 C45 1_555 1_555
H31 C46 1_555 1_555
C47 C46 1_555 1_555
H32 C47 1_555 1_555
C48 C47 1_555 1_555
C49 C48 1_555 1_555
H33 C49 1_555 1_555
C50 C45 1_555 1_555
H34 C50 1_555 1_555
C51 C48 1_555 1_555
H35 C51 1_555 1_555
C52 C40 1_555 1_555
H36 C52 1_555 1_555
Zn1_2 O3 1_555 1_555
Zn1_3 O7 1_555 1_555
Zn2_2 N2 1_555 1_555
Zn2_3 O4 1_555 1_555
Zn2_4 O8 1_555 1_555
N2_2 Zn2 1_555 1_555
O3_2 Zn1 1_555 1_555
O4_2 Zn2 1_555 1_555
O7_2 Zn1 1_555 1_555
O8_2 Zn2 1_555 1_555
O6 C17 1_555 1_555
C6 C7 1_555 1_555
C13 C14 1_555 1_555
C15 C16 1_555 1_555
C22 C23 1_555 1_555
C29 C30 1_555 1_555
C31 C32 1_555 1_555
C36 C37 1_555 1_555
C41 C42 1_555 1_555
C49 C50 1_555 1_555
C51 C52 1_555 1_555

#END
