
#######################################################################
#
#                 Cambridge Crystallographic Data Centre
#                                CCDC 
#
#######################################################################
#
# If this CIF has been generated from an entry in the Cambridge 
# Structural Database, then it will include bibliographic, chemical, 
# crystal, experimental, refinement or atomic coordinate data resulting 
# from the CCDC's data processing and validation procedures.
#
#######################################################################

data_CAYQUQ
_chemical_formula_moiety         'C107 H12 Cu16 O36'
_symmetry_cell_setting           tetragonal
_symmetry_space_group_name_H-M   'P 4'
_symmetry_Int_Tables_number      75
_space_group_name_Hall           'P 4'
loop_
_symmetry_equiv_pos_site_id
_symmetry_equiv_pos_as_xyz
1 x,y,z
2 -x,-y,z
3 -y,x,z
4 y,-x,z
_cell_length_a                   19.02890(10)
_cell_length_b                   19.02890(10)
_cell_length_c                   21.9107(3)
_cell_angle_alpha                90
_cell_angle_beta                 90
_cell_angle_gamma                90
_cell_volume                     7933.84
loop_
_atom_site_label
_atom_site_type_symbol
_atom_site_fract_x
_atom_site_fract_y
_atom_site_fract_z
C1 C 0.9628(6) 0.4403(6) 1.0479(4)
C2 C 0.9447(7) 0.4160(4) 0.9902(4)
C3 C 0.9379(7) 0.4630(5) 0.9420(3)
C4 C 0.9494(7) 0.5343(5) 0.9515(4)
C5 C 1.0324(6) 0.4414(5) 1.0092(4)
C6 C 0.9743(6) 0.5116(6) 1.0574(3)
C7 C 0.7696(4) 0.6303(4) 0.4225(5)
C8 C 0.8743(6) 0.5099(7) 0.7235(3)
C9 C 0.8271(4) 0.5253(8) 0.7700(4)
C10 C 0.8517(5) 0.5486(6) 0.8263(4)
C11 C 0.9234(6) 0.5564(6) 0.8360(3)
C12 C 0.9706(4) 0.5410(6) 0.7895(4)
C13 C 0.9461(5) 0.5177(5) 0.7332(4)
Cu1 Cu 1.21399(6) 0.22268(5) 1.41740(4)
C14 C 0.9957(3) 0.3126(4) 1.1997(2)
C15 C 0.9326(2) 0.3001(4) 1.2297(2)
H1 H 0.8902 0.3076 1.2096
C16 C 0.93281(19) 0.2762(3) 1.2896(2)
C17 C 0.9962(2) 0.2649(3) 1.3196(2)
H2 H 0.9963 0.2490 1.3598
C18 C 1.05932(19) 0.2775(3) 1.2897(2)
C19 C 1.0591(2) 0.3014(3) 1.2297(2)
H3 H 1.1014 0.3098 1.2097
Cu2 Cu 0.72227(6) 0.71328(6) 0.32499(3)
C20 C 0.7606(3) 0.4947(3) 0.4268(2)
H4 H 0.7426 0.4955 0.3873
C21 C 0.7754(3) 0.5574(2) 0.4568(2)
C22 C 0.8022(3) 0.5561(2) 0.5158(2)
H5 H 0.8121 0.5980 0.5359
C23 C 0.8142(4) 0.4923(3) 0.5448(2)
C24 C 0.7994(3) 0.4296(2) 0.5148(3)
H6 H 0.8074 0.3869 0.5342
C25 C 0.7726(3) 0.4309(2) 0.4558(3)
C26 C 0.8633(4) 0.2655(4) 1.3183(4)
O1 O 0.7361(3) 0.6272(3) 0.3724(3)
C27 C 1.1264(4) 0.2676(4) 1.3225(4)
O2 O 1.1252(3) 0.2359(3) 1.3726(3)
O3 O 0.8660(3) 0.2324(3) 1.3717(3)
O4 O 0.7317(3) 0.3632(3) 0.3730(3)
O5 O 1.1804(3) 0.2909(3) 1.2943(3)
O6 O 0.7934(3) 0.6805(3) 0.4472(2)
O7 O 0.7811(3) 0.3068(3) 0.4512(3)
O8 O 0.8099(3) 0.2851(3) 1.2920(3)
O9 O 1.1612(4) 0.1759(3) 1.4996(3)
O10 O 0.6720(3) 0.6678(3) 0.2509(3)
C28 C 0.7596(5) 0.3603(4) 0.4213(5)
C29 C 0.8318(8) 0.5030(6) 0.6096(4)
C30 C 1.0207(6) 0.3671(6) 1.0164(5)
C31 C 1.0000 0.5000 0.6868(5)
C32 C 1.0415(7) 0.5480(9) 0.8013(6)
C33 C 0.8423(5) 0.5025(5) 0.6635(4)
C34 C 0.9309(8) 0.4922(7) 0.6991(6)
C35 C 0.9070(9) 0.4622(9) 0.7543(7)
C36 C 0.9911(5) 0.3506(7) 1.1413(5)
C37 C 0.9798(6) 0.3908(6) 1.0982(4)
C38 C 0.9381(9) 0.5791(9) 0.9017(5)
C39 C 1.0294(6) 0.3200(9) 0.9690(7)
C40 C 0.9500(9) 0.6507(9) 0.9112(8)
C41 C 1.0203(19) 0.7223(12) 0.8020(16)
C42 C 0.9824(16) 0.703(2) 0.750(2)
C43 C 1.017(3) 0.677(2) 0.6993(16)
C44 C 1.090(3) 0.6707(15) 0.6998(17)
C45 C 1.1278(16) 0.690(2) 0.751(2)
C46 C 1.0930(19) 0.716(2) 0.8025(17)
O11 O 0.9246(12) 0.6979(14) 0.8702(12)
C47 C 0.980(2) 0.7496(17) 0.857(2)
C48 C 0.7575(13) 0.4487(10) 0.8780(9)
C49 C 0.7204(12) 0.3912(15) 0.8558(12)
C50 C 0.7475(19) 0.3239(11) 0.8627(14)
C51 C 0.8116(19) 0.3140(13) 0.8918(14)
C52 C 0.8488(13) 0.371(2) 0.9139(14)
C53 C 0.8217(13) 0.4389(15) 0.9070(11)
O12 O 0.8069(6) 0.5617(7) 0.8767(6)
C54 C 0.7364(8) 0.5298(9) 0.8746(9)
C1A C 1.0372(6) 0.5597(6) 1.0479(4)
C2A C 1.0553(7) 0.5840(4) 0.9902(4)
C3A C 1.0621(7) 0.5370(5) 0.9420(3)
C4A C 1.0506(7) 0.4657(5) 0.9515(4)
C5A C 0.9676(6) 0.5586(5) 1.0092(4)
C6A C 1.0257(6) 0.4884(6) 1.0574(3)
C7A C 1.2304(4) 0.3697(4) 0.4225(5)
C8A C 1.1257(6) 0.4901(7) 0.7235(3)
C9A C 1.1729(4) 0.4747(8) 0.7700(4)
C10A C 1.1483(5) 0.4514(6) 0.8263(4)
C11A C 1.0766(6) 0.4436(6) 0.8360(3)
C12A C 1.0294(4) 0.4590(6) 0.7895(4)
C13A C 1.0539(5) 0.4823(5) 0.7332(4)
C14A C 1.0043(3) 0.6874(4) 1.1997(2)
C15A C 1.0674(2) 0.6999(4) 1.2297(2)
H1A H 1.1098 0.6924 1.2096
C16A C 1.06719(19) 0.7238(3) 1.2896(2)
C17A C 1.0038(2) 0.7351(3) 1.3196(2)
H2A H 1.0037 0.7510 1.3598
C18A C 0.94068(19) 0.7225(3) 1.2897(2)
C19A C 0.9409(2) 0.6986(3) 1.2297(2)
H3A H 0.8986 0.6902 1.2097
C20A C 1.2394(3) 0.5053(3) 0.4268(2)
H4A H 1.2574 0.5045 0.3873
C21A C 1.2246(3) 0.4426(2) 0.4568(2)
C22A C 1.1978(3) 0.4439(2) 0.5158(2)
H5A H 1.1879 0.4020 0.5359
C23A C 1.1858(4) 0.5077(3) 0.5448(2)
C24A C 1.2006(3) 0.5704(2) 0.5148(3)
H6A H 1.1926 0.6131 0.5342
C25A C 1.2274(3) 0.5691(2) 0.4558(3)
C26A C 1.1367(4) 0.7345(4) 1.3183(4)
O1A O 1.2639(3) 0.3728(3) 0.3724(3)
C27A C 0.8736(4) 0.7324(4) 1.3225(4)
O2A O 0.8748(3) 0.7641(3) 1.3726(3)
O3A O 1.1340(3) 0.7676(3) 1.3717(3)
O4A O 1.2683(3) 0.6368(3) 0.3730(3)
O5A O 0.8196(3) 0.7091(3) 1.2943(3)
O6A O 1.2066(3) 0.3195(3) 0.4472(2)
O7A O 1.2189(3) 0.6932(3) 0.4512(3)
O8A O 1.1901(3) 0.7149(3) 1.2920(3)
C28A C 1.2404(5) 0.6397(4) 0.4213(5)
C29A C 1.1682(8) 0.4970(6) 0.6096(4)
C30A C 0.9793(6) 0.6329(6) 1.0164(5)
C32A C 0.9585(7) 0.4520(9) 0.8013(6)
C33A C 1.1577(5) 0.4975(5) 0.6635(4)
C34A C 1.0691(8) 0.5078(7) 0.6991(6)
C35A C 1.0930(9) 0.5378(9) 0.7543(7)
C36A C 1.0089(5) 0.6494(7) 1.1413(5)
C37A C 1.0202(6) 0.6092(6) 1.0982(4)
C38A C 1.0619(9) 0.4209(9) 0.9017(5)
C39A C 0.9706(6) 0.6800(9) 0.9690(7)
C40A C 1.0500(9) 0.3493(9) 0.9112(8)
C41A C 0.9797(19) 0.2777(12) 0.8020(16)
C42A C 1.0176(16) 0.297(2) 0.750(2)
C43A C 0.983(3) 0.323(2) 0.6993(16)
C44A C 0.910(3) 0.3293(15) 0.6998(17)
C45A C 0.8722(16) 0.310(2) 0.751(2)
C46A C 0.9070(19) 0.284(2) 0.8025(17)
O11A O 1.0754(12) 0.3021(14) 0.8702(12)
C47A C 1.020(2) 0.2504(17) 0.857(2)
C48A C 1.2425(13) 0.5513(10) 0.8780(9)
C49A C 1.2796(12) 0.6088(15) 0.8558(12)
C50A C 1.2525(19) 0.6761(11) 0.8627(14)
C51A C 1.1884(19) 0.6860(13) 0.8918(14)
C52A C 1.1512(13) 0.629(2) 0.9139(14)
C53A C 1.1783(13) 0.5611(15) 0.9070(11)
O12A O 1.1931(6) 0.4383(7) 0.8767(6)
C54A C 1.2636(8) 0.4702(9) 0.8746(9)
Cu1A Cu 0.78601(6) 0.77732(5) 1.41740(4)
Cu2A Cu 1.27773(6) 0.28672(6) 0.32499(3)
O9A O 0.8388(4) 0.8241(3) 1.4996(3)
O10A O 1.3280(3) 0.3322(3) 0.2509(3)
Cu1_2 Cu 1.21399(6) 0.22268(5) 0.41740(4)
Cu1A_2 Cu 0.78601(6) 0.77732(5) 0.41740(4)
Cu1B Cu 0.77732(5) 0.21399(6) 0.41740(4)
Cu1B_2 Cu 0.77732(5) 0.21399(6) 1.41740(4)
Cu1C Cu 1.22268(5) 0.78601(6) 0.41740(4)
Cu1C_2 Cu 1.22268(5) 0.78601(6) 1.41740(4)
Cu2_2 Cu 0.72227(6) 0.71328(6) 1.32499(3)
Cu2A_2 Cu 1.27773(6) 0.28672(6) 1.32499(3)
Cu2B Cu 1.28672(6) 0.72227(6) 0.32499(3)
Cu2B_2 Cu 1.28672(6) 0.72227(6) 1.32499(3)
Cu2C Cu 0.71328(6) 0.27773(6) 0.32499(3)
Cu2C_2 Cu 0.71328(6) 0.27773(6) 1.32499(3)
O3B O 0.7676(3) 0.8660(3) 1.3717(3)
O3C O 1.2324(3) 0.1340(3) 1.3717(3)
O4B O 0.6368(3) 0.7317(3) 0.3730(3)
O4C O 1.3632(3) 0.2683(3) 0.3730(3)
O5_2 O 1.1804(3) 0.2909(3) 0.2943(3)
O5A_2 O 0.8196(3) 0.7091(3) 0.2943(3)
O6_2 O 0.7934(3) 0.6805(3) 1.4472(2)
O6A_2 O 1.2066(3) 0.3195(3) 1.4472(2)
O7B O 0.6932(3) 0.7811(3) 1.4512(3)
O7C O 1.3068(3) 0.2189(3) 1.4512(3)
O8B O 0.7149(3) 0.8099(3) 0.2920(3)
O8C O 1.2851(3) 0.1901(3) 0.2920(3)
loop_
_geom_bond_atom_site_label_1
_geom_bond_atom_site_label_2
_geom_bond_site_symmetry_1
_geom_bond_site_symmetry_2
C1 C2 1_555 1_555
C2 C3 1_555 1_555
C3 C4 1_555 1_555
C4 C38 1_555 1_555
C5 C1 1_555 1_555
C6 C1 1_555 1_555
C7 C21 1_555 1_555
C8 C9 1_555 1_555
C9 C10 1_555 1_555
C10 C11 1_555 1_555
C11 C12 1_555 1_555
C12 C13 1_555 1_555
C13 C8 1_555 1_555
Cu1 O2 1_555 1_555
C14 C15 1_555 1_555
C15 H1 1_555 1_555
C16 C15 1_555 1_555
C17 C16 1_555 1_555
H2 C17 1_555 1_555
C18 C17 1_555 1_555
C19 C14 1_555 1_555
H3 C19 1_555 1_555
Cu2 O1 1_555 1_555
C20 H4 1_555 1_555
C21 C20 1_555 1_555
C22 C21 1_555 1_555
H5 C22 1_555 1_555
C23 C22 1_555 1_555
C24 C23 1_555 1_555
H6 C24 1_555 1_555
C25 C20 1_555 1_555
C26 C16 1_555 1_555
O1 C7 1_555 1_555
C27 C18 1_555 1_555
O2 C27 1_555 1_555
O3 C26 1_555 1_555
O4 C28 1_555 1_555
O5 C27 1_555 1_555
O6 C7 1_555 1_555
O7 C28 1_555 1_555
O8 C26 1_555 1_555
O9 Cu1 1_555 1_555
O10 Cu2 1_555 1_555
C28 C25 1_555 1_555
C29 C23 1_555 1_555
C30 C5 1_555 1_555
C31 C13 1_555 1_555
C32 C12 1_555 1_555
C33 C8 1_555 1_555
C34 C8 1_555 1_555
C35 C8 1_555 1_555
C36 C14 1_555 1_555
C37 C1 1_555 1_555
C38 C11 1_555 1_555
C39 C30 1_555 1_555
C40 C38 1_555 1_555
C41 C42 1_555 1_555
C42 C43 1_555 1_555
C43 C44 1_555 1_555
C44 C45 1_555 1_555
C45 C46 1_555 1_555
C46 C41 1_555 1_555
O11 C40 1_555 1_555
C47 C41 1_555 1_555
C48 C49 1_555 1_555
C49 C50 1_555 1_555
C50 C51 1_555 1_555
C51 C52 1_555 1_555
C52 C53 1_555 1_555
C53 C48 1_555 1_555
O12 C10 1_555 1_555
C54 C48 1_555 1_555
C1A C6 1_555 1_555
C2A C1A 1_555 1_555
C3A C2A 1_555 1_555
C4A C5 1_555 1_555
C5A C4 1_555 1_555
C6A C1 1_555 1_555
C7A C21A 1_555 1_555
C8A C9A 1_555 1_555
C9A C10A 1_555 1_555
C10A C11A 1_555 1_555
C11A C12A 1_555 1_555
C12A C32 1_555 1_555
C13A C31 1_555 1_555
C14A C15A 1_555 1_555
C15A H1A 1_555 1_555
C16A C15A 1_555 1_555
C17A C16A 1_555 1_555
H2A C17A 1_555 1_555
C18A C17A 1_555 1_555
C19A C14A 1_555 1_555
H3A C19A 1_555 1_555
C20A H4A 1_555 1_555
C21A C20A 1_555 1_555
C22A C21A 1_555 1_555
H5A C22A 1_555 1_555
C23A C22A 1_555 1_555
C24A C23A 1_555 1_555
H6A C24A 1_555 1_555
C25A C20A 1_555 1_555
C26A C16A 1_555 1_555
O1A C7A 1_555 1_555
C27A C18A 1_555 1_555
O2A C27A 1_555 1_555
O3A C26A 1_555 1_555
O4A C28A 1_555 1_555
O5A C27A 1_555 1_555
O6A C7A 1_555 1_555
O7A C28A 1_555 1_555
O8A C26A 1_555 1_555
C28A C25A 1_555 1_555
C29A C23A 1_555 1_555
C30A C5A 1_555 1_555
C32A C12 1_555 1_555
C33A C8A 1_555 1_555
C34A C31 1_555 1_555
C35A C32 1_555 1_555
C36A C14A 1_555 1_555
C37A C1A 1_555 1_555
C38A C4A 1_555 1_555
C39A C40 1_555 1_555
C40A C39 1_555 1_555
C41A C42A 1_555 1_555
C42A C43A 1_555 1_555
C43A C44A 1_555 1_555
C44A C45A 1_555 1_555
C45A C46A 1_555 1_555
C46A C41A 1_555 1_555
O11A C40A 1_555 1_555
C47A C41A 1_555 1_555
C48A C49A 1_555 1_555
C49A C50A 1_555 1_555
C50A C51A 1_555 1_555
C51A C52A 1_555 1_555
C52A C53A 1_555 1_555
C53A C48A 1_555 1_555
O12A C10A 1_555 1_555
C54A C48A 1_555 1_555
Cu1A O2A 1_555 1_555
Cu2A O1A 1_555 1_555
O9A Cu1A 1_555 1_555
O10A Cu2A 1_555 1_555
Cu1_2 O6A 1_555 1_555
Cu1A_2 Cu2 1_555 1_555
Cu1B O7 1_555 1_555
Cu1B_2 O3 1_555 1_555
Cu1C O7A 1_555 1_555
Cu1C_2 O3A 1_555 1_555
Cu2_2 O5A 1_555 1_555
Cu2A_2 Cu1 1_555 1_555
Cu2B O4A 1_555 1_555
Cu2B_2 O8A 1_555 1_555
Cu2C O4 1_555 1_555
Cu2C_2 O8 1_555 1_555
O3B Cu1A 1_555 1_555
O3C Cu1 1_555 1_555
O4B Cu2 1_555 1_555
O4C Cu2A 1_555 1_555
O5_2 Cu2A 1_555 1_555
O5A_2 Cu2 1_555 1_555
O6_2 Cu1A 1_555 1_555
O6A_2 Cu1 1_555 1_555
O7B Cu1A 1_555 1_555
O7C Cu1 1_555 1_555
O8B Cu2 1_555 1_555
O8C Cu2A 1_555 1_555
C2 C5 1_555 1_555
C5 C6A 1_555 1_555
C6 C5A 1_555 1_555
C6 C6A 1_555 1_555
C13 C34 1_555 1_555
C13 C35 1_555 1_555
C18 C19 1_555 1_555
C24 C25 1_555 1_555
O5 Cu2A_2 1_555 1_555
O6 Cu1A_2 1_555 1_555
C29 C33 1_555 1_555
C31 C34 1_555 1_555
C34 C35 1_555 1_555
C35 C32A 1_555 1_555
C36 C37 1_555 1_555
O11 C47 1_555 1_555
O12 C54 1_555 1_555
C1A C5A 1_555 1_555
C1A C6A 1_555 1_555
C2A C5A 1_555 1_555
C3A C4A 1_555 1_555
C8A C13A 1_555 1_555
C8A C34A 1_555 1_555
C8A C35A 1_555 1_555
C11A C38A 1_555 1_555
C12A C13A 1_555 1_555
C12A C32A 1_555 1_555
C13A C34A 1_555 1_555
C13A C35A 1_555 1_555
C18A C19A 1_555 1_555
C24A C25A 1_555 1_555
C29A C33A 1_555 1_555
C30A C39A 1_555 1_555
C34A C35A 1_555 1_555
C36A C37A 1_555 1_555
C38A C40A 1_555 1_555
O11A C47A 1_555 1_555
O12A C54A 1_555 1_555
Cu1A Cu2_2 1_555 1_555
Cu2A Cu1_2 1_555 1_555
Cu1B Cu2C 1_555 1_555
Cu1B_2 Cu2C_2 1_555 1_555
Cu1C Cu2B 1_555 1_555
Cu1C_2 Cu2B_2 1_555 1_555

#END
