
#######################################################################
#
#                 Cambridge Crystallographic Data Centre
#                                CCDC 
#
#######################################################################
#
# If this CIF has been generated from an entry in the Cambridge 
# Structural Database, then it will include bibliographic, chemical, 
# crystal, experimental, refinement or atomic coordinate data resulting 
# from the CCDC's data processing and validation procedures.
#
#######################################################################

data_CAYQOK
_chemical_formula_moiety         'C158 H24 Cu28 O70'
_symmetry_cell_setting           orthorhombic
_symmetry_space_group_name_H-M   'C 2 2 2'
_symmetry_Int_Tables_number      21
_space_group_name_Hall           'C 2 2'
loop_
_symmetry_equiv_pos_site_id
_symmetry_equiv_pos_as_xyz
1 x,y,z
2 -x,-y,z
3 -x,y,-z
4 x,-y,-z
5 1/2+x,1/2+y,z
6 1/2-x,1/2-y,z
7 1/2-x,1/2+y,-z
8 1/2+x,1/2-y,-z
_cell_length_a                   24.495(8)
_cell_length_b                   27.929(10)
_cell_length_c                   22.130(11)
_cell_angle_alpha                90
_cell_angle_beta                 90
_cell_angle_gamma                90
_cell_volume                     15139.6
loop_
_atom_site_label
_atom_site_type_symbol
_atom_site_fract_x
_atom_site_fract_y
_atom_site_fract_z
Cu1 Cu 0.7436(2) 0.53125(13) 0.54606(16)
Cu2 Cu 0.46169(15) 0.2447(2) 0.54127(18)
C1 C 0.4034(13) 0.5094(12) 0.9678(13)
C2 C 0.3708(13) 0.5495(13) 0.9582(15)
C3 C 0.3714(15) 0.5725(12) 0.9025(17)
C4 C 0.4047(15) 0.5554(13) 0.8564(14)
C5 C 0.4373(11) 0.5154(12) 0.8659(13)
C6 C 0.4366(10) 0.4924(10) 0.9216(15)
C7 C 0.4680(14) 0.4511(12) 0.9326(14)
C8 C 0.5002(16) 0.4315(13) 0.8872(15)
C9 C 0.5034(16) 0.4553(13) 0.8329(13)
C10 C 0.4713(15) 0.4956(13) 0.8213(15)
C11 C 0.9391(18) 0.4835(15) 0.9726(11)
C12 C 0.9050(17) 0.4444(15) 0.9638(11)
C13 C 0.9020(15) 0.4228(13) 0.9073(12)
C14 C 0.9331(12) 0.4404(10) 0.8596(9)
C15 C 0.9671(8) 0.4796(7) 0.8685(11)
C16 C 0.9701(13) 0.5011(10) 0.9250(13)
C17 C 0.9926(17) 0.4624(14) 0.9372(17)
C18 C 0.9595(17) 0.4436(14) 0.892(2)
C19 C 0.9643(8) 0.4630(6) 0.8339(18)
C20 C 1.0000 0.5000 0.8228(13)
C21 C 0.5771(8) 0.4114(7) 0.6712(7)
C22 C 0.6179(8) 0.4350(6) 0.6395(10)
H1 H 0.6335 0.4635 0.6553
C23 C 0.6361(7) 0.4169(7) 0.5845(10)
C24 C 0.6133(7) 0.3752(7) 0.5613(8)
H2 H 0.6257 0.3628 0.5237
C25 C 0.5725(8) 0.3515(6) 0.5931(10)
C26 C 0.5543(7) 0.3696(7) 0.6481(9)
H3 H 0.5264 0.3535 0.6698
C27 C 0.5462(9) 0.3090(7) 0.5663(11)
C28 C 0.6766(8) 0.4463(8) 0.5525(10)
C29 C 0.8207(7) 0.4539(7) 0.5567(9)
C30 C 0.9497(8) 0.3189(6) 0.5526(9)
C31 C 0.9072(6) 0.4002(6) 0.6787(6)
C32 C 0.8703(6) 0.4302(5) 0.6498(8)
H4 H 0.8533 0.4555 0.6715
C33 C 0.8582(6) 0.4233(5) 0.5891(8)
C34 C 0.8830(6) 0.3863(6) 0.5573(6)
H5 H 0.8748 0.3815 0.5158
C35 C 0.9200(6) 0.3563(5) 0.5862(8)
C36 C 0.9320(6) 0.3632(5) 0.6470(8)
H6 H 0.9573 0.3427 0.6668
C37 C 0.5347(13) 0.4377(12) 0.7829(11)
C38 C 0.5584(10) 0.4296(10) 0.7277(9)
C39 C 0.9224(13) 0.4242(11) 0.7994(9)
C40 C 0.9198(9) 0.4077(9) 0.7414(8)
O1 O 0.5053(8) 0.2893(7) 0.5919(9)
O2 O 0.5674(8) 0.2931(7) 0.5168(9)
O3 O 0.6974(8) 0.4838(7) 0.5789(10)
O4 O 0.6872(8) 0.4361(8) 0.4960(9)
O5 O 0.8080(6) 0.4951(6) 0.5776(8)
O6 O 0.8025(6) 0.4380(6) 0.5062(8)
O7 O 0.9926(7) 0.3008(6) 0.5752(7)
O8 O 0.9328(7) 0.3051(7) 0.5000(8)
O9 O 0.3939(7) 0.2427(10) 0.6082(7)
O10 O 0.7417(9) 0.5828(5) 0.6203(6)
O11 O 0.3435(15) 0.5670(14) 1.0065(16)
O12 O 0.875(2) 0.428(2) 1.0110(17)
Cu1A Cu 0.2564(2) 0.46875(13) 0.54606(16)
Cu1C Cu 0.7436(2) 0.46875(13) 1.45394(16)
Cu1B Cu 0.2564(2) 0.53125(13) 1.45394(16)
Cu1C_2 Cu 0.7436(2) 0.46875(13) 0.45394(16)
Cu1B_2 Cu 0.2564(2) 0.53125(13) 0.45394(16)
Cu1_2 Cu 0.7436(2) 0.53125(13) 1.54606(16)
Cu1A_2 Cu 0.2564(2) 0.46875(13) 1.54606(16)
Cu1B_3 Cu 1.2564(2) 0.53125(13) 0.45394(16)
Cu1A_3 Cu 1.2564(2) 0.46875(13) 0.54606(16)
Cu1A_4 Cu 1.2564(2) 0.46875(13) 1.54606(16)
Cu1B_4 Cu 1.2564(2) 0.53125(13) 1.45394(16)
Cu2A Cu 0.53831(15) 0.7553(2) 0.54127(18)
Cu2C Cu 0.46169(15) 0.7553(2) 1.45873(18)
Cu2B Cu 0.53831(15) 0.2447(2) 1.45873(18)
Cu2B_2 Cu 0.53831(15) 0.2447(2) 0.45873(18)
Cu2E Cu 1.03831(15) 0.2553(2) 0.54127(18)
Cu2G Cu 0.96169(15) 0.2553(2) 0.45873(18)
Cu2C_2 Cu 0.46169(15) 0.7553(2) 0.45873(18)
Cu2A_2 Cu 0.53831(15) 0.7553(2) 1.54127(18)
Cu2_2 Cu 0.46169(15) 0.2447(2) 1.54127(18)
Cu2D Cu 0.96169(15) 0.7447(2) 0.54127(18)
Cu2F Cu 1.03831(15) 0.7447(2) 0.45873(18)
Cu2G_2 Cu 0.96169(15) 0.2553(2) 1.45873(18)
Cu2E_2 Cu 1.03831(15) 0.2553(2) 1.54127(18)
Cu2F_2 Cu 1.03831(15) 0.7447(2) 1.45873(18)
Cu2D_2 Cu 0.96169(15) 0.7447(2) 1.54127(18)
C1C C 0.4034(13) 0.4906(12) 1.0322(13)
C1B C 0.5966(13) 0.5094(12) 1.0322(13)
C1A C 0.5966(13) 0.4906(12) 0.9678(13)
C2C C 0.3708(13) 0.4505(13) 1.0418(15)
C2A C 0.6292(13) 0.4505(13) 0.9582(15)
C2B C 0.6292(13) 0.5495(13) 1.0418(15)
C3C C 0.3714(15) 0.4275(12) 1.0975(17)
C3A C 0.6286(15) 0.4275(12) 0.9025(17)
C3B C 0.6286(15) 0.5725(12) 1.0975(17)
C4C C 0.4047(15) 0.4446(13) 1.1436(14)
C4A C 0.5953(15) 0.4446(13) 0.8564(14)
C4B C 0.5953(15) 0.5554(13) 1.1436(14)
C5C C 0.4373(11) 0.4846(12) 1.1341(13)
C5A C 0.5627(11) 0.4846(12) 0.8659(13)
C5B C 0.5627(11) 0.5154(12) 1.1341(13)
C6B C 0.5634(10) 0.4924(10) 1.0784(15)
C6A C 0.5634(10) 0.5076(10) 0.9216(15)
C6C C 0.4366(10) 0.5076(10) 1.0784(15)
C7B C 0.5320(14) 0.4511(12) 1.0674(14)
C7A C 0.5320(14) 0.5489(12) 0.9326(14)
C7C C 0.4680(14) 0.5489(12) 1.0674(14)
C8B C 0.4998(16) 0.4315(13) 1.1128(15)
C8A C 0.4998(16) 0.5685(13) 0.8872(15)
C8C C 0.5002(16) 0.5685(13) 1.1128(15)
C9B C 0.4966(16) 0.4553(13) 1.1671(13)
C9A C 0.4966(16) 0.5447(13) 0.8329(13)
C9C C 0.5034(16) 0.5447(13) 1.1671(13)
C10C C 0.4713(15) 0.5044(13) 1.1787(15)
C10A C 0.5287(15) 0.5044(13) 0.8213(15)
C10B C 0.5287(15) 0.4956(13) 1.1787(15)
C11C C 0.9391(18) 0.5165(15) 1.0274(11)
C11B C 1.0609(18) 0.4835(15) 1.0274(11)
C11A C 1.0609(18) 0.5165(15) 0.9726(11)
C12C C 0.9050(17) 0.5556(15) 1.0362(11)
C12B C 1.0950(17) 0.4444(15) 1.0362(11)
C12A C 1.0950(17) 0.5556(15) 0.9638(11)
C13C C 0.9020(15) 0.5772(13) 1.0927(12)
C13B C 1.0980(15) 0.4228(13) 1.0927(12)
C13A C 1.0980(15) 0.5772(13) 0.9073(12)
C14C C 0.9331(12) 0.5596(10) 1.1404(9)
C14B C 1.0669(12) 0.4404(10) 1.1404(9)
C14A C 1.0669(12) 0.5596(10) 0.8596(9)
C15C C 0.9671(8) 0.5204(7) 1.1315(11)
C15B C 1.0329(8) 0.4796(7) 1.1315(11)
C15A C 1.0329(8) 0.5204(7) 0.8685(11)
C16A C 1.0299(13) 0.4989(10) 0.9250(13)
C16B C 1.0299(13) 0.5011(10) 1.0750(13)
C16C C 0.9701(13) 0.4989(10) 1.0750(13)
C17A C 1.0074(17) 0.5376(14) 0.9372(17)
C17B C 1.0074(17) 0.4624(14) 1.0628(17)
C17C C 0.9926(17) 0.5376(14) 1.0628(17)
C18A C 1.0405(17) 0.5564(14) 0.892(2)
C18C C 0.9595(17) 0.5564(14) 1.108(2)
C18B C 1.0405(17) 0.4436(14) 1.108(2)
C19A C 1.0357(8) 0.5370(6) 0.8339(18)
C19C C 0.9643(8) 0.5370(6) 1.1661(18)
C19B C 1.0357(8) 0.4630(6) 1.1661(18)
C20B C 1.0000 0.5000 1.1772(13)
C21A C 0.4229(8) 0.5886(7) 0.6712(7)
C21C C 0.5771(8) 0.5886(7) 1.3288(7)
C21B C 0.4229(8) 0.4114(7) 1.3288(7)
C22A C 0.3821(8) 0.5650(6) 0.6395(10)
C22C C 0.6179(8) 0.5650(6) 1.3605(10)
C22B C 0.3821(8) 0.4350(6) 1.3605(10)
H1A H 0.3665 0.5365 0.6553
H1C H 0.6335 0.5365 1.3447
H1B H 0.3665 0.4635 1.3447
C23A C 0.3639(7) 0.5831(7) 0.5845(10)
C23C C 0.6361(7) 0.5831(7) 1.4155(10)
C23B C 0.3639(7) 0.4169(7) 1.4155(10)
C24A C 0.3867(7) 0.6248(7) 0.5613(8)
C24C C 0.6133(7) 0.6248(7) 1.4387(8)
C24B C 0.3867(7) 0.3752(7) 1.4387(8)
H2A H 0.3743 0.6372 0.5237
H2C H 0.6257 0.6372 1.4763
H2B H 0.3743 0.3628 1.4763
C25A C 0.4275(8) 0.6485(6) 0.5931(10)
C25C C 0.5725(8) 0.6485(6) 1.4069(10)
C25B C 0.4275(8) 0.3515(6) 1.4069(10)
C26A C 0.4457(7) 0.6304(7) 0.6481(9)
C26C C 0.5543(7) 0.6304(7) 1.3519(9)
C26B C 0.4457(7) 0.3696(7) 1.3519(9)
H3A H 0.4736 0.6465 0.6698
H3C H 0.5264 0.6465 1.3302
H3B H 0.4736 0.3535 1.3302
C27A C 0.4538(9) 0.6910(7) 0.5663(11)
C27C C 0.5462(9) 0.6910(7) 1.4337(11)
C27B C 0.4538(9) 0.3090(7) 1.4337(11)
C28A C 0.3234(8) 0.5537(8) 0.5525(10)
C28C C 0.6766(8) 0.5537(8) 1.4475(10)
C28B C 0.3234(8) 0.4463(8) 1.4475(10)
C29A C 1.1793(7) 0.5461(7) 0.5567(9)
C29B C 1.1793(7) 0.4539(7) 1.4433(9)
C29C C 0.8207(7) 0.5461(7) 1.4433(9)
C30A C 1.0503(8) 0.6811(6) 0.5526(9)
C30B C 1.0503(8) 0.3189(6) 1.4474(9)
C30C C 0.9497(8) 0.6811(6) 1.4474(9)
C31A C 1.0928(6) 0.5998(6) 0.6787(6)
C31B C 1.0928(6) 0.4002(6) 1.3213(6)
C31C C 0.9072(6) 0.5998(6) 1.3213(6)
C32A C 1.1297(6) 0.5698(5) 0.6498(8)
C32B C 1.1297(6) 0.4302(5) 1.3502(8)
C32C C 0.8703(6) 0.5698(5) 1.3502(8)
H4A H 1.1467 0.5445 0.6715
H4B H 1.1467 0.4555 1.3285
H4C H 0.8533 0.5445 1.3285
C33A C 1.1418(6) 0.5767(5) 0.5891(8)
C33B C 1.1418(6) 0.4233(5) 1.4109(8)
C33C C 0.8582(6) 0.5767(5) 1.4109(8)
C34A C 1.1170(6) 0.6137(6) 0.5573(6)
C34B C 1.1170(6) 0.3863(6) 1.4427(6)
C34C C 0.8830(6) 0.6137(6) 1.4427(6)
H5A H 1.1252 0.6185 0.5158
H5B H 1.1252 0.3815 1.4842
H5C H 0.8748 0.6185 1.4842
C35A C 1.0800(6) 0.6437(5) 0.5862(8)
C35B C 1.0800(6) 0.3563(5) 1.4138(8)
C35C C 0.9200(6) 0.6437(5) 1.4138(8)
C36A C 1.0680(6) 0.6368(5) 0.6470(8)
C36B C 1.0680(6) 0.3632(5) 1.3530(8)
C36C C 0.9320(6) 0.6368(5) 1.3530(8)
H6A H 1.0427 0.6573 0.6668
H6B H 1.0427 0.3427 1.3332
H6C H 0.9573 0.6573 1.3332
C37A C 0.4653(13) 0.5623(12) 0.7829(11)
C37C C 0.5347(13) 0.5623(12) 1.2171(11)
C37B C 0.4653(13) 0.4377(12) 1.2171(11)
C38A C 0.4416(10) 0.5704(10) 0.7277(9)
C38C C 0.5584(10) 0.5704(10) 1.2723(9)
C38B C 0.4416(10) 0.4296(10) 1.2723(9)
C39A C 1.0776(13) 0.5758(11) 0.7994(9)
C39B C 1.0776(13) 0.4242(11) 1.2006(9)
C39C C 0.9224(13) 0.5758(11) 1.2006(9)
C40A C 1.0802(9) 0.5923(9) 0.7414(8)
C40B C 1.0802(9) 0.4077(9) 1.2586(8)
C40C C 0.9198(9) 0.5923(9) 1.2586(8)
O1A O 0.4947(8) 0.7107(7) 0.5919(9)
O1C O 0.5053(8) 0.7107(7) 1.4081(9)
O1B O 0.4947(8) 0.2893(7) 1.4081(9)
O2A O 0.4326(8) 0.7069(7) 0.5168(9)
O2C O 0.5674(8) 0.7069(7) 1.4832(9)
O2B O 0.4326(8) 0.2931(7) 1.4832(9)
O2B_2 O 0.4326(8) 0.2931(7) 0.4832(9)
O2C_2 O 0.5674(8) 0.7069(7) 0.4832(9)
O2A_2 O 0.4326(8) 0.7069(7) 1.5168(9)
O2_2 O 0.5674(8) 0.2931(7) 1.5168(9)
O3A O 0.3026(8) 0.5162(7) 0.5789(10)
O3C O 0.6974(8) 0.5162(7) 1.4211(10)
O3B O 0.3026(8) 0.4838(7) 1.4211(10)
O4A O 0.3128(8) 0.5639(8) 0.4960(9)
O4C O 0.6872(8) 0.5639(8) 1.5040(9)
O4B O 0.3128(8) 0.4361(8) 1.5040(9)
O4C_2 O 0.6872(8) 0.5639(8) 0.5040(9)
O4B_2 O 0.3128(8) 0.4361(8) 0.5040(9)
O4_2 O 0.6872(8) 0.4361(8) 1.4960(9)
O4A_2 O 0.3128(8) 0.5639(8) 1.4960(9)
O5A O 1.1920(6) 0.5049(6) 0.5776(8)
O5B O 1.1920(6) 0.4951(6) 1.4224(8)
O5C O 0.8080(6) 0.5049(6) 1.4224(8)
O5A_2 O 0.1920(6) 0.5049(6) 0.5776(8)
O5B_2 O 0.1920(6) 0.4951(6) 1.4224(8)
O6A O 1.1975(6) 0.5620(6) 0.5062(8)
O6B O 1.1975(6) 0.4380(6) 1.4938(8)
O6C O 0.8025(6) 0.5620(6) 1.4938(8)
O6C_2 O 0.8025(6) 0.5620(6) 0.4938(8)
O6B_2 O 0.1975(6) 0.4380(6) 0.4938(8)
O6_2 O 0.8025(6) 0.4380(6) 1.5062(8)
O6A_2 O 0.1975(6) 0.5620(6) 1.5062(8)
O7A O 1.0074(7) 0.6992(6) 0.5752(7)
O7B O 1.0074(7) 0.3008(6) 1.4248(7)
O7C O 0.9926(7) 0.6992(6) 1.4248(7)
O7E O 0.5074(7) 0.1992(6) 0.5752(7)
O7D O 0.4926(7) 0.8008(6) 0.5752(7)
O7F O 0.5074(7) 0.8008(6) 1.4248(7)
O7G O 0.4926(7) 0.1992(6) 1.4248(7)
O8A O 1.0672(7) 0.6949(7) 0.5000(8)
O8B O 1.0672(7) 0.3051(7) 1.5000(8)
O8C O 0.9328(7) 0.6949(7) 1.5000(8)
O8G O 0.4328(7) 0.1949(7) 0.5000(8)
O8F O 0.5672(7) 0.8051(7) 0.5000(8)
O8D O 0.4328(7) 0.8051(7) 1.5000(8)
O8E O 0.5672(7) 0.1949(7) 1.5000(8)
O9A O 0.6061(7) 0.7573(10) 0.6082(7)
O9C O 0.3939(7) 0.7573(10) 1.3918(7)
O9B O 0.6061(7) 0.2427(10) 1.3918(7)
O10A O 0.2583(9) 0.4172(5) 0.6203(6)
O10C O 0.7417(9) 0.4172(5) 1.3797(6)
O10B O 0.2583(9) 0.5828(5) 1.3797(6)
O11A O 0.6565(15) 0.4330(14) 1.0065(16)
O11B O 0.6565(15) 0.5670(14) 0.9935(16)
O11C O 0.3435(15) 0.4330(14) 0.9935(16)
O12A O 1.125(2) 0.572(2) 1.0110(17)
O12B O 1.125(2) 0.428(2) 0.9890(17)
O12C O 0.875(2) 0.572(2) 0.9890(17)
loop_
_geom_bond_atom_site_label_1
_geom_bond_atom_site_label_2
_geom_bond_site_symmetry_1
_geom_bond_site_symmetry_2
Cu1 O3 1_555 1_555
Cu2 O1 1_555 1_555
C1 C2 1_555 1_555
C2 C3 1_555 1_555
C3 C4 1_555 1_555
C4 C5 1_555 1_555
C5 C6 1_555 1_555
C6 C1 1_555 1_555
C7 C6 1_555 1_555
C8 C7 1_555 1_555
C9 C8 1_555 1_555
C10 C5 1_555 1_555
C11 C12 1_555 1_555
C12 C13 1_555 1_555
C13 C14 1_555 1_555
C14 C15 1_555 1_555
C15 C16 1_555 1_555
C16 C11 1_555 1_555
C17 C11 1_555 1_555
C18 C13 1_555 1_555
C19 C14 1_555 1_555
C20 C15 1_555 1_555
C21 C22 1_555 1_555
C22 H1 1_555 1_555
C23 C22 1_555 1_555
C24 C23 1_555 1_555
H2 C24 1_555 1_555
C25 C24 1_555 1_555
C26 C21 1_555 1_555
H3 C26 1_555 1_555
C27 C25 1_555 1_555
C28 C23 1_555 1_555
C29 C33 1_555 1_555
C30 C35 1_555 1_555
C31 C32 1_555 1_555
C32 H4 1_555 1_555
C33 C32 1_555 1_555
C34 C33 1_555 1_555
H5 C34 1_555 1_555
C35 C34 1_555 1_555
C36 C31 1_555 1_555
H6 C36 1_555 1_555
C37 C9 1_555 1_555
C38 C21 1_555 1_555
C39 C14 1_555 1_555
C40 C31 1_555 1_555
O1 C27 1_555 1_555
O2 C27 1_555 1_555
O3 C28 1_555 1_555
O4 C28 1_555 1_555
O5 Cu1 1_555 1_555
O6 C29 1_555 1_555
O7 C30 1_555 1_555
O8 C30 1_555 1_555
O9 Cu2 1_555 1_555
O10 Cu1 1_555 1_555
O11 C2 1_555 1_555
O12 C12 1_555 1_555
Cu1A O3A 1_555 1_555
Cu1C O3C 1_555 1_555
Cu1B O3B 1_555 1_555
Cu1C_2 O4 1_555 1_555
Cu1B_2 O4A 1_555 1_555
Cu1_2 O4C 1_555 1_555
Cu1A_2 O4B 1_555 1_555
Cu1B_3 O6A 1_555 1_555
Cu1A_3 O5A 1_555 1_555
Cu1A_4 O6B 1_555 1_555
Cu1B_4 O5B 1_555 1_555
Cu2A O1A 1_555 1_555
Cu2C O1C 1_555 1_555
Cu2B O1B 1_555 1_555
Cu2B_2 O2 1_555 1_555
Cu2E O7 1_555 1_555
Cu2G O8 1_555 1_555
Cu2C_2 O2A 1_555 1_555
Cu2A_2 O2C 1_555 1_555
Cu2_2 O2B 1_555 1_555
Cu2D O7A 1_555 1_555
Cu2F O8A 1_555 1_555
Cu2G_2 O7B 1_555 1_555
Cu2E_2 O8B 1_555 1_555
Cu2F_2 O7C 1_555 1_555
Cu2D_2 O8C 1_555 1_555
C1C C1 1_555 1_555
C1B C1A 1_555 1_555
C1A C2A 1_555 1_555
C2C C1C 1_555 1_555
C2A C3A 1_555 1_555
C2B C1B 1_555 1_555
C3C C2C 1_555 1_555
C3A C4A 1_555 1_555
C3B C2B 1_555 1_555
C4C C3C 1_555 1_555
C4A C5A 1_555 1_555
C4B C3B 1_555 1_555
C5C C4C 1_555 1_555
C5A C6A 1_555 1_555
C5B C4B 1_555 1_555
C6B C1B 1_555 1_555
C6A C1A 1_555 1_555
C6C C1C 1_555 1_555
C7B C6B 1_555 1_555
C7A C6A 1_555 1_555
C7C C6C 1_555 1_555
C8B C7B 1_555 1_555
C8A C7A 1_555 1_555
C8C C7C 1_555 1_555
C9B C8B 1_555 1_555
C9A C10 1_555 1_555
C9C C8C 1_555 1_555
C10C C5C 1_555 1_555
C10A C9 1_555 1_555
C10B C5B 1_555 1_555
C11C C11 1_555 1_555
C11B C11A 1_555 1_555
C11A C12A 1_555 1_555
C12C C11C 1_555 1_555
C12B C11B 1_555 1_555
C12A C13A 1_555 1_555
C13C C12C 1_555 1_555
C13B C12B 1_555 1_555
C13A C14A 1_555 1_555
C14C C13C 1_555 1_555
C14B C13B 1_555 1_555
C14A C15A 1_555 1_555
C15C C14C 1_555 1_555
C15B C14B 1_555 1_555
C15A C20 1_555 1_555
C16A C16 1_555 1_555
C16B C11B 1_555 1_555
C16C C11C 1_555 1_555
C17A C16 1_555 1_555
C17B C11B 1_555 1_555
C17C C11C 1_555 1_555
C18A C13A 1_555 1_555
C18C C13C 1_555 1_555
C18B C13B 1_555 1_555
C19A C20 1_555 1_555
C19C C14C 1_555 1_555
C19B C14B 1_555 1_555
C20B C15C 1_555 1_555
C21A C22A 1_555 1_555
C21C C22C 1_555 1_555
C21B C22B 1_555 1_555
C22A H1A 1_555 1_555
C22C H1C 1_555 1_555
C22B H1B 1_555 1_555
C23A C22A 1_555 1_555
C23C C22C 1_555 1_555
C23B C22B 1_555 1_555
C24A C23A 1_555 1_555
C24C C23C 1_555 1_555
C24B C23B 1_555 1_555
H2A C24A 1_555 1_555
H2C C24C 1_555 1_555
H2B C24B 1_555 1_555
C25A C24A 1_555 1_555
C25C C24C 1_555 1_555
C25B C24B 1_555 1_555
C26A C21A 1_555 1_555
C26C C21C 1_555 1_555
C26B C21B 1_555 1_555
H3A C26A 1_555 1_555
H3C C26C 1_555 1_555
H3B C26B 1_555 1_555
C27A C25A 1_555 1_555
C27C C25C 1_555 1_555
C27B C25B 1_555 1_555
C28A C23A 1_555 1_555
C28C C23C 1_555 1_555
C28B C23B 1_555 1_555
C29A C33A 1_555 1_555
C29B C33B 1_555 1_555
C29C C33C 1_555 1_555
C30A C35A 1_555 1_555
C30B C35B 1_555 1_555
C30C C35C 1_555 1_555
C31A C32A 1_555 1_555
C31B C32B 1_555 1_555
C31C C32C 1_555 1_555
C32A H4A 1_555 1_555
C32B H4B 1_555 1_555
C32C H4C 1_555 1_555
C33A C32A 1_555 1_555
C33B C32B 1_555 1_555
C33C C32C 1_555 1_555
C34A C33A 1_555 1_555
C34B C33B 1_555 1_555
C34C C33C 1_555 1_555
H5A C34A 1_555 1_555
H5B C34B 1_555 1_555
H5C C34C 1_555 1_555
C35A C34A 1_555 1_555
C35B C34B 1_555 1_555
C35C C34C 1_555 1_555
C36A C31A 1_555 1_555
C36B C31B 1_555 1_555
C36C C31C 1_555 1_555
H6A C36A 1_555 1_555
H6B C36B 1_555 1_555
H6C C36C 1_555 1_555
C37A C9A 1_555 1_555
C37C C9C 1_555 1_555
C37B C9B 1_555 1_555
C38A C21A 1_555 1_555
C38C C21C 1_555 1_555
C38B C21B 1_555 1_555
C39A C14A 1_555 1_555
C39B C14B 1_555 1_555
C39C C14C 1_555 1_555
C40A C31A 1_555 1_555
C40B C31B 1_555 1_555
C40C C31C 1_555 1_555
O1A C27A 1_555 1_555
O1C C27C 1_555 1_555
O1B C27B 1_555 1_555
O2A C27A 1_555 1_555
O2C C27C 1_555 1_555
O2B C27B 1_555 1_555
O2B_2 Cu2 1_555 1_555
O2C_2 Cu2A 1_555 1_555
O2A_2 Cu2C 1_555 1_555
O2_2 Cu2B 1_555 1_555
O3A C28A 1_555 1_555
O3C C28C 1_555 1_555
O3B C28B 1_555 1_555
O4A C28A 1_555 1_555
O4C C28C 1_555 1_555
O4B C28B 1_555 1_555
O4C_2 Cu1 1_555 1_555
O4B_2 Cu1A 1_555 1_555
O4_2 Cu1C 1_555 1_555
O4A_2 Cu1B 1_555 1_555
O5A C29A 1_555 1_555
O5B C29B 1_555 1_555
O5C Cu1C 1_555 1_555
O5A_2 Cu1A 1_555 1_555
O5B_2 Cu1B 1_555 1_555
O6A C29A 1_555 1_555
O6B C29B 1_555 1_555
O6C Cu1_2 1_555 1_555
O6C_2 Cu1 1_555 1_555
O6B_2 Cu1A 1_555 1_555
O6_2 Cu1C 1_555 1_555
O6A_2 Cu1B 1_555 1_555
O7A C30A 1_555 1_555
O7B C30B 1_555 1_555
O7C C30C 1_555 1_555
O7E Cu2 1_555 1_555
O7D Cu2A 1_555 1_555
O7F Cu2C 1_555 1_555
O7G Cu2B 1_555 1_555
O8A C30A 1_555 1_555
O8B C30B 1_555 1_555
O8C C30C 1_555 1_555
O8G Cu2 1_555 1_555
O8F Cu2A 1_555 1_555
O8D Cu2C 1_555 1_555
O8E Cu2B 1_555 1_555
O9A Cu2A 1_555 1_555
O9C Cu2C 1_555 1_555
O9B Cu2B 1_555 1_555
O10A Cu1A 1_555 1_555
O10C Cu1C 1_555 1_555
O10B Cu1B 1_555 1_555
O11A C2A 1_555 1_555
O11B C2B 1_555 1_555
O11C C2C 1_555 1_555
O12A C12A 1_555 1_555
O12B C12B 1_555 1_555
O12C C12C 1_555 1_555
C9 C10 1_555 1_555
C10 C10A 1_555 1_555
C14 C18 1_555 1_555
C15 C17 1_555 1_555
C15 C18 1_555 1_555
C15 C19 1_555 1_555
C16 C17 1_555 1_555
C17 C18 1_555 1_555
C17 C16A 1_555 1_555
C18 C19 1_555 1_555
C19 C20 1_555 1_555
C19 C39 1_555 1_555
C25 C26 1_555 1_555
C29 O5 1_555 1_555
C35 C36 1_555 1_555
C37 C38 1_555 1_555
C39 C40 1_555 1_555
O6 Cu1C_2 1_555 1_555
C5C C6C 1_555 1_555
C5A C10A 1_555 1_555
C5B C6B 1_555 1_555
C8A C9A 1_555 1_555
C9B C10C 1_555 1_555
C9B C10B 1_555 1_555
C9A C10A 1_555 1_555
C9C C10C 1_555 1_555
C9C C10B 1_555 1_555
C10C C10B 1_555 1_555
C11A C16A 1_555 1_555
C11A C17A 1_555 1_555
C14C C18C 1_555 1_555
C14B C18B 1_555 1_555
C14A C18A 1_555 1_555
C14A C19A 1_555 1_555
C15C C16C 1_555 1_555
C15C C17C 1_555 1_555
C15C C18C 1_555 1_555
C15C C19C 1_555 1_555
C15B C16B 1_555 1_555
C15B C17B 1_555 1_555
C15B C18B 1_555 1_555
C15B C19B 1_555 1_555
C15B C20B 1_555 1_555
C15A C16A 1_555 1_555
C15A C17A 1_555 1_555
C15A C18A 1_555 1_555
C15A C19A 1_555 1_555
C16A C17A 1_555 1_555
C16B C16C 1_555 1_555
C16B C17B 1_555 1_555
C16B C17C 1_555 1_555
C16C C17B 1_555 1_555
C16C C17C 1_555 1_555
C17A C18A 1_555 1_555
C17B C18B 1_555 1_555
C17C C18C 1_555 1_555
C18A C19A 1_555 1_555
C18C C19C 1_555 1_555
C18B C19B 1_555 1_555
C19A C39A 1_555 1_555
C19C C20B 1_555 1_555
C19C C39C 1_555 1_555
C19B C20B 1_555 1_555
C19B C39B 1_555 1_555
C25A C26A 1_555 1_555
C25C C26C 1_555 1_555
C25B C26B 1_555 1_555
C29C O5C 1_555 1_555
C29C O6C 1_555 1_555
C35A C36A 1_555 1_555
C35B C36B 1_555 1_555
C35C C36C 1_555 1_555
C37A C38A 1_555 1_555
C37C C38C 1_555 1_555
C37B C38B 1_555 1_555
C39A C40A 1_555 1_555
C39B C40B 1_555 1_555
C39C C40C 1_555 1_555

#END
