
#######################################################################
#
#                 Cambridge Crystallographic Data Centre
#                                CCDC 
#
#######################################################################
#
# If this CIF has been generated from an entry in the Cambridge 
# Structural Database, then it will include bibliographic, chemical, 
# crystal, experimental, refinement or atomic coordinate data resulting 
# from the CCDC's data processing and validation procedures.
#
#######################################################################

data_AZOHEC
_chemical_formula_moiety         '(C28 H42 N6 O23 P4 Zn5)n'
_symmetry_cell_setting           monoclinic
_symmetry_space_group_name_H-M   'P 2/c'
_symmetry_Int_Tables_number      13
_space_group_name_Hall           '-P 2yc'
loop_
_symmetry_equiv_pos_site_id
_symmetry_equiv_pos_as_xyz
1 x,y,z
2 x,-y,1/2+z
3 -x,-y,-z
4 -x,y,1/2-z
_cell_length_a                   14.3635(8)
_cell_length_b                   12.0029(6)
_cell_length_c                   16.9974(9)
_cell_angle_alpha                90
_cell_angle_beta                 113.3810(10)
_cell_angle_gamma                90
_cell_volume                     2689.79
loop_
_atom_site_label
_atom_site_type_symbol
_atom_site_fract_x
_atom_site_fract_y
_atom_site_fract_z
Zn1 Zn -0.10632(5) -0.06245(6) -0.10909(4)
Zn2 Zn 0.31876(5) 0.07586(6) -0.06496(4)
Zn3 Zn 0.5000 0.01420(9) 0.2500
P1 P 0.11709(12) 0.00649(14) -0.06927(10)
P2 P 0.31400(12) -0.07122(14) -0.21207(10)
N1 N 0.2792(4) -0.1087(4) -0.0680(3)
N2 N -0.0630(5) -0.2216(5) -0.0674(4)
N3 N 0.3839(4) 0.2321(5) -0.0424(4)
C1 C 0.3904(5) -0.0666(5) 0.0835(4)
C2 C 0.3256(5) -0.1612(5) -0.1222(4)
H1 H 0.3967 -0.1759 -0.0880
H2 H 0.2924 -0.2318 -0.1437
C3 C 0.3218(5) -0.1508(5) 0.0206(4)
H3 H 0.2667 -0.1700 0.0375
H4 H 0.3601 -0.2182 0.0230
C4 C 0.1655(5) -0.1117(5) -0.1072(4)
H5 H 0.1413 -0.1091 -0.1692
H6 H 0.1417 -0.1803 -0.0914
C5 C -0.0843(19) -0.3042(17) -0.1277(15)
C6 C -0.060(3) -0.417(2) -0.1044(15)
C9 C -0.0134(8) -0.4409(7) -0.0142(6)
C10 C 0.0334(7) -0.3530(6) 0.0365(5)
H7 H 0.0829 -0.3653 0.0911
C11 C 0.0083(7) -0.2474(6) 0.0076(5)
H8 H 0.0437 -0.1893 0.0431
C12 C 0.4003(9) 0.2875(7) 0.0296(6)
H9 H 0.3807 0.2537 0.0699
C13 C 0.4441(9) 0.3913(7) 0.0486(6)
H10 H 0.4523 0.4260 0.0998
C14 C 0.4759(5) 0.4439(6) -0.0085(4)
C15 C 0.4642(7) 0.3839(6) -0.0810(5)
H11 H 0.4876 0.4131 -0.1205
C16 C 0.4183(6) 0.2813(6) -0.0950(5)
H12 H 0.4108 0.2438 -0.1451
O1 O 0.4051(4) 0.0276(4) 0.0580(3)
O2 O 0.4285(4) -0.0974(4) 0.1603(3)
O3 O 0.0046(3) 0.0157(4) -0.1247(3)
O4 O 0.1757(3) 0.1066(4) -0.0821(3)
O5 O 0.1390(4) -0.0149(4) 0.0244(3)
O6 O 0.2084(3) -0.0872(4) -0.2799(3)
O7 O 0.3326(4) 0.0469(4) -0.1753(3)
O8 O 0.3955(3) -0.1095(4) -0.2426(3)
C9B C 0.0134(8) -0.5591(7) 0.0142(6)
C6B C 0.060(3) -0.583(2) 0.1044(15)
C5B C 0.0843(19) -0.6958(17) 0.1277(15)
N2B N 0.0630(5) -0.7784(5) 0.0674(4)
C11B C -0.0083(7) -0.7526(6) -0.0076(5)
C10B C -0.0334(7) -0.6470(6) -0.0365(5)
H7B H -0.0829 -0.6347 -0.0911
H8B H -0.0437 -0.8107 -0.0431
C14B C 0.5241(5) 0.5561(6) 0.0085(4)
C13B C 0.5559(9) 0.6087(7) -0.0486(6)
C12B C 0.5997(9) 0.7125(7) -0.0296(6)
N3B N 0.6161(4) 0.7679(5) 0.0424(4)
C16B C 0.5817(6) 0.7187(6) 0.0950(5)
C15B C 0.5358(7) 0.6161(6) 0.0810(5)
H11B H 0.5124 0.5869 0.1205
H12B H 0.5892 0.7562 0.1451
H9B H 0.6193 0.7463 -0.0699
H10B H 0.5477 0.5740 -0.0998
P1C P 0.88291(12) 0.00649(14) 0.56927(10)
P2C P 0.68600(12) -0.07122(14) 0.71207(10)
N1C N 0.7208(4) -0.1087(4) 0.5680(3)
C1C C 0.6096(5) -0.0666(5) 0.4165(4)
C2C C 0.6744(5) -0.1612(5) 0.6222(4)
H1C H 0.6033 -0.1759 0.5880
H2C H 0.7076 -0.2318 0.6437
C3C C 0.6782(5) -0.1508(5) 0.4794(4)
H3C H 0.7333 -0.1700 0.4625
H4C H 0.6399 -0.2182 0.4770
C4C C 0.8345(5) -0.1117(5) 0.6072(4)
H5C H 0.8587 -0.1091 0.6692
H6C H 0.8583 -0.1803 0.5914
O1C O 0.5949(4) 0.0276(4) 0.4420(3)
O2C O 0.5715(4) -0.0974(4) 0.3397(3)
O3C O 0.9954(3) 0.0157(4) 0.6247(3)
O4C O 0.8243(3) 0.1066(4) 0.5821(3)
O5C O 0.8610(4) -0.0149(4) 0.4756(3)
O6C O 0.7916(3) -0.0872(4) 0.7799(3)
O7C O 0.6674(4) 0.0469(4) 0.6753(3)
O8C O 0.6045(3) -0.1095(4) 0.7426(3)
Zn1C Zn 1.10632(5) -0.06245(6) 0.60909(4)
Zn2C Zn 0.68124(5) 0.07586(6) 0.56496(4)
O5B O -0.1390(4) 0.0149(4) -0.0244(3)
O6C_2 O -0.2084(3) -0.0872(4) -0.2201(3)
O8A O 0.3955(3) 0.1095(4) 0.2574(3)
O8B O 0.6045(3) 0.1095(4) 0.2426(3)
Zn1B Zn 0.10632(5) 0.06245(6) 0.10909(4)
Zn1C_2 Zn 0.10632(5) -0.06245(6) -0.39091(4)
Zn3A Zn 0.5000 -0.01420(9) -0.2500
Zn1B_2 Zn 0.10632(5) -0.93755(6) 0.10909(4)
Zn2B Zn 0.68124(5) 0.92414(6) 0.06496(4)
Zn1A Zn 0.89368(5) 0.06245(6) 0.39091(4)
Zn1_2 Zn 0.89368(5) -0.06245(6) 0.89091(4)
Zn3A_2 Zn 0.5000 -0.01420(9) 0.7500
N2C N 1.0630(5) -0.2216(5) 0.5674(4)
O5A O 1.1390(4) 0.0149(4) 0.5244(3)
O6_2 O 1.2084(3) -0.0872(4) 0.7201(3)
N3C N 0.6161(4) 0.2321(5) 0.5424(4)
O9 O 0.4031(11) -0.3437(9) 0.7301(8)
O10 O -0.2176(16) 0.2141(12) -0.1982(8)
O11 O 0.5000 -0.318(2) 0.2500
O12 O -0.0887(15) -0.1921(17) 0.2512(12)
O13 O 0.320(2) -0.389(3) 0.1645(19)
O14 O 0.275(2) 0.461(2) 0.2874(18)
O15 O 0.235(2) 0.430(2) 0.4668(19)
loop_
_geom_bond_atom_site_label_1
_geom_bond_atom_site_label_2
_geom_bond_site_symmetry_1
_geom_bond_site_symmetry_2
Zn1 N2 1_555 1_555
Zn2 N1 1_555 1_555
Zn3 O2 1_555 1_555
P1 C4 1_555 1_555
P2 C2 1_555 1_555
N1 C2 1_555 1_555
N2 C5 1_555 1_555
N3 Zn2 1_555 1_555
C1 C3 1_555 1_555
C2 H1 1_555 1_555
H2 C2 1_555 1_555
C3 N1 1_555 1_555
H3 C3 1_555 1_555
H4 C3 1_555 1_555
C4 N1 1_555 1_555
H5 C4 1_555 1_555
H6 C4 1_555 1_555
C5 C6 1_555 1_555
C6 C9 1_555 1_555
C9 C10 1_555 1_555
C10 H7 1_555 1_555
C11 N2 1_555 1_555
H8 C11 1_555 1_555
C12 N3 1_555 1_555
H9 C12 1_555 1_555
C13 C12 1_555 1_555
H10 C13 1_555 1_555
C14 C13 1_555 1_555
C15 C14 1_555 1_555
H11 C15 1_555 1_555
C16 N3 1_555 1_555
H12 C16 1_555 1_555
O1 Zn2 1_555 1_555
O2 C1 1_555 1_555
O3 Zn1 1_555 1_555
O4 Zn2 1_555 1_555
O5 P1 1_555 1_555
O6 P2 1_555 1_555
O7 Zn2 1_555 1_555
O8 P2 1_555 1_555
C9B C9 1_555 1_555
C6B C9B 1_555 1_555
C5B C6B 1_555 1_555
N2B C5B 1_555 1_555
C11B N2B 1_555 1_555
C10B C9B 1_555 1_555
H7B C10B 1_555 1_555
H8B C11B 1_555 1_555
C14B C14 1_555 1_555
C13B C14B 1_555 1_555
C12B C13B 1_555 1_555
N3B C12B 1_555 1_555
C16B N3B 1_555 1_555
C15B C14B 1_555 1_555
H11B C15B 1_555 1_555
H12B C16B 1_555 1_555
H9B C12B 1_555 1_555
H10B C13B 1_555 1_555
P1C C4C 1_555 1_555
P2C C2C 1_555 1_555
N1C C2C 1_555 1_555
C1C C3C 1_555 1_555
C2C H1C 1_555 1_555
H2C C2C 1_555 1_555
C3C N1C 1_555 1_555
H3C C3C 1_555 1_555
H4C C3C 1_555 1_555
C4C N1C 1_555 1_555
H5C C4C 1_555 1_555
H6C C4C 1_555 1_555
O1C C1C 1_555 1_555
O2C Zn3 1_555 1_555
O3C P1C 1_555 1_555
O4C P1C 1_555 1_555
O5C P1C 1_555 1_555
O6C P2C 1_555 1_555
O7C P2C 1_555 1_555
O8C P2C 1_555 1_555
Zn1C O3C 1_555 1_555
Zn2C N1C 1_555 1_555
O5B Zn1 1_555 1_555
O6C_2 Zn1 1_555 1_555
O8A Zn3 1_555 1_555
O8B Zn3 1_555 1_555
Zn1B O5 1_555 1_555
Zn1C_2 O6 1_555 1_555
Zn3A O8 1_555 1_555
Zn1B_2 N2B 1_555 1_555
Zn2B N3B 1_555 1_555
Zn1A O5C 1_555 1_555
Zn1_2 O6C 1_555 1_555
Zn3A_2 O8C 1_555 1_555
N2C Zn1C 1_555 1_555
O5A Zn1C 1_555 1_555
O6_2 Zn1C 1_555 1_555
N3C Zn2C 1_555 1_555
P1 O3 1_555 1_555
P1 O4 1_555 1_555
P2 O7 1_555 1_555
C1 O1 1_555 1_555
C10 C11 1_555 1_555
C15 C16 1_555 1_555
C11B C10B 1_555 1_555
C16B C15B 1_555 1_555
C1C O2C 1_555 1_555
O1C Zn2C 1_555 1_555
O4C Zn2C 1_555 1_555
O7C Zn2C 1_555 1_555

#END
