
#######################################################################
#
#                 Cambridge Crystallographic Data Centre
#                                CCDC 
#
#######################################################################
#
# If this CIF has been generated from an entry in the Cambridge 
# Structural Database, then it will include bibliographic, chemical, 
# crystal, experimental, refinement or atomic coordinate data resulting 
# from the CCDC's data processing and validation procedures.
#
#######################################################################

data_FALPOY
_chemical_formula_moiety         'C18 H56 F4 Ga15 N6 O63 P15 6+'
_symmetry_cell_setting           monoclinic
_symmetry_space_group_name_H-M   'P 21'
_symmetry_Int_Tables_number      4
_space_group_name_Hall           'P 2yb'
loop_
_symmetry_equiv_pos_site_id
_symmetry_equiv_pos_as_xyz
1 x,y,z
2 -x,1/2+y,-z
_cell_length_a                   13.229(16)
_cell_length_b                   15.396(12)
_cell_length_c                   14.800(15)
_cell_angle_alpha                90
_cell_angle_beta                 95.10(9)
_cell_angle_gamma                90
_cell_volume                     3002.44
loop_
_atom_site_label
_atom_site_type_symbol
_atom_site_fract_x
_atom_site_fract_y
_atom_site_fract_z
O47 O 1.4765(13) 0.5440(12) -0.0884(12)
O48 O 1.0598(14) 0.4159(12) -0.3927(12)
O49 O 1.0312(14) 0.2049(13) 0.2681(13)
O50 O 0.3938(22) 0.1687(20) 0.1814(20)
N1 N 0.5879(19) 0.2274(18) 0.1260(18)
H1 H 0.5495(19) 0.1784(18) 0.1270(18)
N2 N 0.7510(16) 0.1852(16) 0.2690(16)
H2 H 0.7866(16) 0.2355(16) 0.2662(16)
C1 C 0.5996(20) 0.2678(18) 0.2210(17)
H7 H 0.6417(20) 0.3193(18) 0.2200(17)
H8 H 0.5334(20) 0.2855(18) 0.2378(17)
C2 C 0.6463(25) 0.2060(23) 0.2906(24)
H9 H 0.6479(25) 0.2320(23) 0.3504(24)
H10 H 0.6061(25) 0.1533(23) 0.2906(24)
C3 C 0.7476(26) 0.1425(24) 0.1824(22)
H11 H 0.7076(26) 0.0898(24) 0.1837(22)
H12 H 0.8158(26) 0.1268(24) 0.1693(22)
C4 C 0.7018(25) 0.2017(25) 0.1109(24)
H13 H 0.7029(25) 0.1737(25) 0.0523(24)
H14 H 0.7424(25) 0.2541(25) 0.1101(24)
C14 C 0.8073(22) 0.1241(21) 0.3438(20)
H34 H 0.8070(22) 0.1510(21) 0.4022(20)
H35 H 0.8760(22) 0.1150(21) 0.3300(20)
H36 H 0.7728(22) 0.0692(21) 0.3443(20)
C18 C 0.5465(20) 0.2809(18) 0.0644(18)
H46 H 0.5410(20) 0.2527(18) 0.0063(18)
H47 H 0.5881(20) 0.3318(18) 0.0619(18)
H48 H 0.4802(20) 0.2973(18) 0.0798(18)
N3 N 0.8374(16) 0.5028(13) 0.6717(14)
H3 H 0.8958(16) 0.4970(13) 0.7086(14)
N4 N 0.7001(22) 0.4043(19) 0.7764(21)
H4 H 0.6451(22) 0.4109(19) 0.7355(21)
C5 C 0.8082(23) 0.4172(20) 0.6438(21)
H15 H 0.8646(23) 0.3893(20) 0.6177(21)
H16 H 0.7521(23) 0.4206(20) 0.5971(21)
C6 C 0.7763(24) 0.3613(22) 0.7227(22)
H17 H 0.7482(24) 0.3070(22) 0.6985(22)
H18 H 0.8362(24) 0.3476(22) 0.7629(22)
C7 C 0.7302(22) 0.4944(17) 0.7999(19)
H19 H 0.6738(22) 0.5218(17) 0.8263(19)
H20 H 0.7861(22) 0.4919(17) 0.8468(19)
C8 C 0.7599(28) 0.5501(26) 0.7295(26)
H21 H 0.7909(28) 0.6023(26) 0.7562(26)
H22 H 0.7004(28) 0.5671(26) 0.6905(26)
C16 C 0.6635(26) 0.3494(24) 0.8444(23)
H40 H 0.6153(26) 0.3808(24) 0.8767(23)
H41 H 0.7194(26) 0.3314(24) 0.8861(23)
H42 H 0.6314(26) 0.2992(24) 0.8162(23)
C17 C 0.8649(22) 0.5557(20) 0.5904(19)
H43 H 0.8860(22) 0.6128(20) 0.6101(19)
H44 H 0.8068(22) 0.5601(20) 0.5469(19)
H45 H 0.9193(22) 0.5276(20) 0.5629(19)
N5 N 0.7452(21) 0.7799(21) 0.2258(21)
H5 H 0.7256(21) 0.7246(21) 0.2114(21)
N6 N 0.9076(15) 0.7480(15) 0.3635(14)
H6 H 0.9214(15) 0.8053(15) 0.3733(14)
C9 C 0.8524(20) 0.7878(19) 0.2097(20)
H23 H 0.8596(20) 0.7762(19) 0.1461(20)
H24 H 0.8742(20) 0.8471(19) 0.2222(20)
C10 C 0.9186(25) 0.7291(22) 0.2648(21)
H25 H 0.9885(25) 0.7375(22) 0.2518(21)
H26 H 0.8999(25) 0.6693(22) 0.2510(21)
C11 C 0.8093(19) 0.7322(19) 0.3870(18)
H27 H 0.8052(19) 0.7445(19) 0.4509(18)
H28 H 0.7915(19) 0.6717(19) 0.3762(18)
C12 C 0.7331(23) 0.7932(21) 0.3269(20)
H29 H 0.6639(23) 0.7799(21) 0.3390(20)
H30 H 0.7465(23) 0.8534(21) 0.3430(20)
C13 C 0.6763(30) 0.8354(30) 0.1792(28)
H31 H 0.6093(30) 0.8236(30) 0.1963(28)
H32 H 0.6777(30) 0.8266(30) 0.1151(28)
H33 H 0.6941(30) 0.8945(30) 0.1940(28)
C15 C 0.9872(30) 0.6927(28) 0.4287(27)
H37 H 1.0548(30) 0.7037(28) 0.4128(27)
H38 H 0.9722(30) 0.6319(28) 0.4217(27)
H39 H 0.9821(30) 0.7094(28) 0.4906(27)
Ga1 Ga 0.6138(2) 0.5398(2) 0.1791(2)
Ga2 Ga 0.5648(2) 0.6049(2) 0.5009(2)
Ga3 Ga 0.5688(2) 0.3515(2) 0.4966(2)
Ga4 Ga 0.3248(2) 0.4740(2) 0.4720(2)
Ga5 Ga 0.2534(2) 0.3750(2) 0.2479(2)
Ga6 Ga 0.8934(2) 0.4306(2) 0.3125(2)
Ga7 Ga 0.9449(2) 0.3502(2) 0.0000(2)
Ga8 Ga 0.9183(2) 0.6074(2) 0.0008(2)
Ga9 Ga 0.1780(2) 0.4772(2) 0.0290(2)
Ga10 Ga 1.2407(2) 0.5797(2) 0.2524(2)
P1 P 0.6798(5) 0.4798(5) 0.3786(5)
P2 P 0.4791(5) 0.4758(5) 0.6385(5)
P3 P 0.3688(5) 0.2799(5) 0.4137(5)
P4 P 0.6354(5) 0.1708(4) 0.5821(4)
P5 P 0.3859(5) 0.4828(4) 0.1267(5)
P6 P 0.8173(5) 0.4657(5) 0.1162(5)
P7 P 1.0235(5) 0.4843(5) -0.1367(5)
P8 P 1.1194(4) 0.6696(4) 0.0893(5)
P9 P 0.1487(5) 0.2808(5) 0.0759(5)
P10 P 0.1151(5) 0.4683(5) 0.3763(5)
O1 O 0.6076(14) 0.4870(11) 0.2969(13)
O2 O 0.6636(11) 0.5564(12) 0.4420(11)
O3 O 0.6647(11) 0.3939(10) 0.4285(10)
O4 O 0.7083(11) 0.4574(11) 0.1411(10)
O5 O 0.5250(12) 0.5584(12) 0.6067(12)
O6 O 0.5437(11) 0.3987(10) 0.6044(11)
O7 O 0.4887(14) 0.4765(12) 0.7399(13)
O8 O 0.3653(13) 0.4681(12) 0.5977(12)
O9 O 0.6527(11) 0.2596(10) 0.5433(10)
O10 O 0.4798(11) 0.6567(11) 0.4126(10)
O11 O 0.4827(14) 0.2873(12) 0.4186(12)
O12 O 0.3246(12) 0.2850(12) 0.3157(12)
O13 O 0.1386(13) 0.3907(13) 0.3196(13)
O14 O 0.1890(12) 0.2834(11) 0.1766(12)
O15 O 0.3661(12) 0.3999(12) 0.1758(12)
O16 O 0.3257(12) 0.4848(11) 0.0327(11)
O17 O 0.4988(13) 0.4932(10) 0.1164(11)
O18 O 0.6218(10) 0.6089(10) 0.0546(9)
O19 O 0.3258(12) 0.6024(13) 0.4779(13)
O20 O 0.6552(12) 0.6877(12) 0.5498(12)
O21 O 0.3242(12) 0.3481(12) 0.4706(12)
O22 O 0.5248(11) 0.6409(10) 0.2244(10)
O23 O 0.8954(12) 0.4821(11) 0.2024(12)
O24 O 0.8408(12) 0.3828(12) 0.0680(12)
O25 O 0.8203(10) 0.5406(11) 0.0504(10)
O26 O 0.7887(13) 0.4859(12) 0.3597(12)
O27 O 0.9621(11) 0.4008(11) -0.1132(11)
O28 O 0.9668(13) 0.5646(12) -0.1040(13)
O29 O 1.0163(13) 0.4909(10) -0.2378(12)
O30 O 0.1329(11) 0.4808(10) -0.1000(10)
O31 O 0.1793(11) 0.1905(10) 0.0375(10)
O32 O 0.0304(10) 0.2808(10) 0.0697(10)
O33 O 1.0048(10) 0.6567(9) 0.0902(9)
O34 O 1.1650(11) 0.6659(11) 0.1870(11)
O35 O 0.3545(11) 0.5649(11) 0.1783(11)
O36 O 0.6831(12) 0.1647(11) 0.6785(11)
O37 O 0.1341(13) 0.5539(13) 0.3232(12)
O38 O 0.1755(13) 0.4693(13) 0.4697(12)
O39 O 0.0007(13) 0.4666(12) 0.3920(11)
F1 F 0.8775(13) 0.3144(12) 0.3059(12)
O41 O 0.1874(12) 0.3533(12) 0.0196(12)
O42 O 0.8623(12) 0.2600(11) -0.0528(11)
O43 O 0.1655(11) 0.6019(11) 0.0274(11)
O44 O 0.7207(9) 0.6129(8) 0.2178(8)
O45 O 0.1815(13) 0.4764(12) 0.1679(12)
F3 F 0.4736(10) 0.4709(11) 0.4519(9)
O46 O 0.3140(11) 0.4763(11) 0.3294(11)
F4 F 0.0257(8) 0.4584(8) 0.0515(7)
Ga6_2 Ga -0.1066(2) 0.4306(2) 0.3125(2)
Ga7_2 Ga -0.0551(2) 0.3502(2) 0.0000(2)
Ga8A Ga 0.0817(2) 0.1074(2) -0.0008(2)
Ga10_2 Ga 0.2407(2) 0.5797(2) 0.2524(2)
Ga10A Ga 0.7593(2) 0.0797(2) 0.7476(2)
P3A P 0.6312(5) 0.7799(5) 0.5863(5)
P4A P 0.3646(5) 0.6708(4) 0.4179(4)
P7_2 P 0.0235(5) 0.4843(5) -0.1367(5)
P8A P 0.8806(4) 0.1696(4) -0.0893(5)
P8_2 P 0.1194(4) 0.6696(4) 0.0893(5)
O10A O 0.5202(11) 0.1567(11) 0.5874(10)
O19A O 0.6742(12) 0.1024(13) 0.5221(13)
O20A O 0.3448(12) 0.1877(12) 0.4502(12)
O30_2 O 1.1329(11) 0.4808(10) -0.1000(10)
O31A O 0.8207(11) 0.6905(10) -0.0375(10)
O32_2 O 1.0304(10) 0.2808(10) 0.0697(10)
O35_2 O 1.3545(11) 0.5649(11) 0.1783(11)
O36A O 1.3169(12) 0.6647(11) 0.3215(11)
O37_2 O 1.1341(13) 0.5539(13) 0.3232(12)
O39_2 O 1.0007(13) 0.4666(12) 0.3920(11)
O42A O 1.1377(12) 0.7600(11) 0.0528(11)
O43_2 O 1.1655(11) 0.6019(11) 0.0274(11)
O45_2 O 1.1815(13) 0.4764(12) 0.1679(12)
O46_2 O 1.3140(11) 0.4763(11) 0.3294(11)
F4_2 F 1.0257(8) 0.4584(8) 0.0515(7)
loop_
_geom_bond_atom_site_label_1
_geom_bond_atom_site_label_2
_geom_bond_site_symmetry_1
_geom_bond_site_symmetry_2
Ga1 O1 1_555 1_555
Ga2 O2 1_555 1_555
Ga3 O3 1_555 1_555
Ga4 O8 1_555 1_555
Ga5 O12 1_555 1_555
Ga6 O23 1_555 1_555
Ga7 O24 1_555 1_555
Ga8 O25 1_555 1_555
Ga9 O16 1_555 1_555
Ga10 O34 1_555 1_555
P1 O1 1_555 1_555
P2 O5 1_555 1_555
P3 O11 1_555 1_555
P4 O9 1_555 1_555
P5 O15 1_555 1_555
P6 O4 1_555 1_555
P7 O27 1_555 1_555
P8 O33 1_555 1_555
P9 O14 1_555 1_555
P10 O13 1_555 1_555
O2 P1 1_555 1_555
O3 P1 1_555 1_555
O4 Ga1 1_555 1_555
O5 Ga2 1_555 1_555
O6 Ga3 1_555 1_555
O7 P2 1_555 1_555
O8 P2 1_555 1_555
O9 Ga3 1_555 1_555
O10 Ga2 1_555 1_555
O11 Ga3 1_555 1_555
O12 P3 1_555 1_555
O13 Ga5 1_555 1_555
O14 Ga5 1_555 1_555
O15 Ga5 1_555 1_555
O16 P5 1_555 1_555
O17 Ga1 1_555 1_555
O18 Ga1 1_555 1_555
O19 Ga4 1_555 1_555
O20 Ga2 1_555 1_555
O21 Ga4 1_555 1_555
O22 Ga1 1_555 1_555
O23 P6 1_555 1_555
O24 P6 1_555 1_555
O25 P6 1_555 1_555
O26 Ga6 1_555 1_555
O27 Ga7 1_555 1_555
O28 Ga8 1_555 1_555
O29 P7 1_555 1_555
O30 Ga9 1_555 1_555
O31 P9 1_555 1_555
O32 P9 1_555 1_555
O33 Ga8 1_555 1_555
O34 P8 1_555 1_555
O35 P5 1_555 1_555
O36 P4 1_555 1_555
O37 P10 1_555 1_555
O38 Ga4 1_555 1_555
O39 P10 1_555 1_555
F1 Ga6 1_555 1_555
O41 Ga9 1_555 1_555
O42 Ga7 1_555 1_555
O43 Ga9 1_555 1_555
O44 Ga1 1_555 1_555
O45 Ga5 1_555 1_555
F3 Ga2 1_555 1_555
O46 Ga4 1_555 1_555
F4 Ga9 1_555 1_555
N1 H1 1_555 1_555
N2 H2 1_555 1_555
N3 H3 1_555 1_555
N4 H4 1_555 1_555
N5 H5 1_555 1_555
N6 H6 1_555 1_555
C1 N1 1_555 1_555
H7 C1 1_555 1_555
H8 C1 1_555 1_555
C2 N2 1_555 1_555
H9 C2 1_555 1_555
H10 C2 1_555 1_555
C3 N2 1_555 1_555
H11 C3 1_555 1_555
H12 C3 1_555 1_555
C4 N1 1_555 1_555
H13 C4 1_555 1_555
H14 C4 1_555 1_555
C5 N3 1_555 1_555
H15 C5 1_555 1_555
H16 C5 1_555 1_555
C6 N4 1_555 1_555
H17 C6 1_555 1_555
H18 C6 1_555 1_555
C7 N4 1_555 1_555
H19 C7 1_555 1_555
H20 C7 1_555 1_555
C8 N3 1_555 1_555
H21 C8 1_555 1_555
H22 C8 1_555 1_555
C9 N5 1_555 1_555
H23 C9 1_555 1_555
H24 C9 1_555 1_555
C10 N6 1_555 1_555
H25 C10 1_555 1_555
H26 C10 1_555 1_555
C11 N6 1_555 1_555
H27 C11 1_555 1_555
H28 C11 1_555 1_555
C12 N5 1_555 1_555
H29 C12 1_555 1_555
H30 C12 1_555 1_555
C13 N5 1_555 1_555
H31 C13 1_555 1_555
H32 C13 1_555 1_555
H33 C13 1_555 1_555
C14 N2 1_555 1_555
H34 C14 1_555 1_555
H35 C14 1_555 1_555
H36 C14 1_555 1_555
C15 N6 1_555 1_555
H37 C15 1_555 1_555
H38 C15 1_555 1_555
H39 C15 1_555 1_555
C16 N4 1_555 1_555
H40 C16 1_555 1_555
H41 C16 1_555 1_555
H42 C16 1_555 1_555
C17 N3 1_555 1_555
H43 C17 1_555 1_555
H44 C17 1_555 1_555
H45 C17 1_555 1_555
C18 N1 1_555 1_555
H46 C18 1_555 1_555
H47 C18 1_555 1_555
H48 C18 1_555 1_555
Ga6_2 O39 1_555 1_555
Ga7_2 O32 1_555 1_555
Ga8A O31 1_555 1_555
Ga10_2 O35 1_555 1_555
Ga10A O36 1_555 1_555
P3A O20 1_555 1_555
P4A O10 1_555 1_555
P7_2 O30 1_555 1_555
P8A O42 1_555 1_555
P8_2 O43 1_555 1_555
O10A P4 1_555 1_555
O19A P4 1_555 1_555
O20A P3 1_555 1_555
O30_2 P7 1_555 1_555
O31A Ga8 1_555 1_555
O32_2 Ga7 1_555 1_555
O35_2 Ga10 1_555 1_555
O36A Ga10 1_555 1_555
O37_2 Ga10 1_555 1_555
O39_2 Ga6 1_555 1_555
O42A P8 1_555 1_555
O43_2 P8 1_555 1_555
O45_2 Ga10 1_555 1_555
O46_2 Ga10 1_555 1_555
F4_2 Ga7 1_555 1_555
Ga3 F3 1_555 1_555
Ga4 F3 1_555 1_555
Ga5 O46 1_555 1_555
Ga9 O45 1_555 1_555
P1 O26 1_555 1_555
P2 O6 1_555 1_555
P3 O21 1_555 1_555
P5 O17 1_555 1_555
P7 O28 1_555 1_555
P9 O41 1_555 1_555
P10 O38 1_555 1_555
O19 P4A 1_555 1_555
O37 Ga10_2 1_555 1_555
O45 Ga10_2 1_555 1_555
O46 Ga10_2 1_555 1_555
F4 Ga7_2 1_555 1_555
C1 C2 1_555 1_555
C3 C4 1_555 1_555
C5 C6 1_555 1_555
C7 C8 1_555 1_555
C9 C10 1_555 1_555
C11 C12 1_555 1_555

#END
