
#######################################################################
#
#                 Cambridge Crystallographic Data Centre
#                                CCDC 
#
#######################################################################
#
# If this CIF has been generated from an entry in the Cambridge 
# Structural Database, then it will include bibliographic, chemical, 
# crystal, experimental, refinement or atomic coordinate data resulting 
# from the CCDC's data processing and validation procedures.
#
#######################################################################

data_MAHDOR
_chemical_formula_moiety         '(C66 H54 Cu8 I8 N18 O6)n'
_symmetry_cell_setting           monoclinic
_symmetry_space_group_name_H-M   'P 21/c'
_symmetry_Int_Tables_number      14
_space_group_name_Hall           '-P 2ybc'
loop_
_symmetry_equiv_pos_site_id
_symmetry_equiv_pos_as_xyz
1 x,y,z
2 -x,1/2+y,1/2-z
3 -x,-y,-z
4 x,1/2-y,1/2+z
_cell_length_a                   19.4538(5)
_cell_length_b                   32.5779(7)
_cell_length_c                   22.6155(6)
_cell_angle_alpha                90
_cell_angle_beta                 103.876(2)
_cell_angle_gamma                90
_cell_volume                     13914.6
loop_
_atom_site_label
_atom_site_type_symbol
_atom_site_fract_x
_atom_site_fract_y
_atom_site_fract_z
C1 C 0.0266(6) 0.0516(3) 0.5196(5)
H1 H -0.0066 0.0696 0.4969
C2 C 0.0746(6) 0.0355(3) 0.4921(5)
H2 H 0.0733 0.0415 0.4516
C3 C 0.1275(6) 0.0090(3) 0.5272(4)
H3 H 0.1629 -0.0022 0.5109
C4 C 0.1238(5) 0.0005(3) 0.5866(4)
C5 C 0.0703(5) 0.0185(3) 0.6094(4)
H4 H 0.0680 0.0123 0.6490
C6 C 0.1749(5) -0.0258(3) 0.6265(4)
C7 C 0.2679(6) -0.0633(3) 0.6516(5)
C8 C 0.3293(6) -0.0859(3) 0.6419(5)
C9 C 0.3941(7) -0.0638(4) 0.6483(6)
C10 C 0.4519(7) -0.0852(4) 0.6359(6)
C11 C 0.4464(7) -0.1274(4) 0.6178(6)
C12 C 0.3825(6) -0.1462(3) 0.6125(6)
C13 C 0.3244(6) -0.1267(3) 0.6246(5)
C14 C 0.3974(7) -0.0191(4) 0.6651(6)
H5 H 0.3744 0.0020 0.6403
C15 C 0.4422(8) -0.0140(4) 0.7264(7)
H6 H 0.4146 -0.0184 0.7557
H7 H 0.4614 0.0133 0.7309
H8 H 0.4802 -0.0336 0.7329
C16 C 0.2559(6) -0.1513(3) 0.6205(5)
H9 H 0.2164 -0.1324 0.6160
H10 H 0.2472 -0.1685 0.5844
C17 C 0.2590(6) -0.1776(3) 0.6749(5)
H11 H 0.2969 -0.1971 0.6788
H12 H 0.2150 -0.1920 0.6704
H13 H 0.2672 -0.1607 0.7107
C18 C 0.5089(7) -0.1493(4) 0.6012(6)
H14 H 0.5403 -0.1293 0.5896
H15 H 0.4919 -0.1676 0.5671
C19 C 0.5491(8) -0.1739(4) 0.6574(7)
H16 H 0.5693 -0.1553 0.6898
H17 H 0.5861 -0.1896 0.6468
H18 H 0.5168 -0.1920 0.6704
C20 C 0.5169(7) -0.0645(4) 0.6370(6)
C21 C 0.5886(8) -0.0202(4) 0.6162(10)
C22 C 0.6127(8) 0.0150(4) 0.5902(10)
C23 C 0.5668(8) 0.0410(4) 0.5516(9)
H19 H 0.5184 0.0359 0.5427
C24 C 0.5919(8) 0.0743(4) 0.5262(10)
H20 H 0.5616 0.0919 0.4997
C25 C 0.6640(8) 0.0806(4) 0.5417(9)
H21 H 0.6819 0.1027 0.5239
C26 C 0.6833(8) 0.0257(4) 0.6036(10)
H22 H 0.7145 0.0091 0.6312
C27 C 0.3744(6) -0.1878(3) 0.5859(6)
C28 C 0.3478(6) -0.2304(3) 0.5124(5)
C29 C 0.3222(6) -0.2461(3) 0.4496(5)
C30 C 0.2973(6) -0.2188(4) 0.4016(5)
H23 H 0.2957 -0.1906 0.4080
C31 C 0.2750(7) -0.2357(4) 0.3438(5)
H24 H 0.2591 -0.2188 0.3102
C32 C 0.2763(7) -0.2789(4) 0.3360(5)
H25 H 0.2595 -0.2903 0.2975
C33 C 0.3239(6) -0.2870(3) 0.4387(5)
H26 H 0.3414 -0.3044 0.4715
C34 C 0.1816(8) -0.0311(5) 0.9903(6)
H27 H 0.2191 -0.0447 1.0160
C35 C 0.1362(7) -0.0060(4) 1.0172(6)
H28 H 0.1435 -0.0038 1.0593
C36 C 0.0831(7) 0.0140(4) 0.9799(6)
H29 H 0.0549 0.0315 0.9964
C37 C 0.0691(7) 0.0095(4) 0.9174(6)
C38 C 0.1174(7) -0.0161(4) 0.8947(6)
H30 H 0.1091 -0.0190 0.8526
C39 C 0.0105(7) 0.0273(4) 0.8736(6)
C40 C -0.0803(6) 0.0641(3) 0.8509(5)
C41 C -0.1438(6) 0.0866(3) 0.8585(5)
C42 C -0.1349(6) 0.1277(3) 0.8802(5)
C43 C -0.1949(6) 0.1489(3) 0.8851(5)
C44 C -0.2622(6) 0.1321(3) 0.8713(5)
C45 C -0.2699(6) 0.0904(3) 0.8510(5)
C46 C -0.2097(6) 0.0679(3) 0.8457(5)
C47 C -0.2162(6) 0.0232(3) 0.8254(5)
H31 H -0.1693 0.0120 0.8282
H32 H -0.2382 0.0075 0.8524
C48 C -0.2599(7) 0.0190(4) 0.7608(5)
H33 H -0.3053 0.0315 0.7574
H34 H -0.2660 -0.0095 0.7503
H35 H -0.2360 0.0325 0.7336
C49 C -0.3252(6) 0.1584(3) 0.8743(5)
H36 H -0.3629 0.1411 0.8815
H37 H -0.3119 0.1774 0.9082
C50 C -0.3520(7) 0.1823(4) 0.8164(6)
H38 H -0.3153 0.2001 0.8097
H39 H -0.3922 0.1985 0.8197
H40 H -0.3657 0.1636 0.7828
C51 C -0.0640(6) 0.1475(3) 0.8935(5)
H41 H -0.0281 0.1262 0.9014
H42 H -0.0582 0.1637 0.9303
C52 C -0.0512(6) 0.1752(4) 0.8425(5)
H43 H -0.0578 0.1596 0.8055
H44 H -0.0037 0.1856 0.8536
H45 H -0.0841 0.1976 0.8364
C53 C -0.3381(6) 0.0703(3) 0.8442(5)
C54 C -0.4100(6) 0.0294(4) 0.8709(5)
C55 C -0.4336(6) -0.0004(4) 0.9097(5)
C56 C -0.3916(6) -0.0131(4) 0.9650(5)
H46 H -0.3463 -0.0023 0.9789
C57 C -0.4171(6) -0.0422(4) 1.0000(5)
H47 H -0.3890 -0.0523 1.0363
C58 C -0.4864(6) -0.0552(4) 0.9777(5)
H48 H -0.5053 -0.0736 1.0009
C59 C -0.5030(6) -0.0158(3) 0.8920(5)
H49 H -0.5325 -0.0065 0.8559
C60 C -0.1872(6) 0.1900(3) 0.9136(5)
C61 C -0.1607(6) 0.2298(4) 0.9907(5)
C62 C -0.1367(6) 0.2422(4) 1.0540(5)
C63 C -0.1309(6) 0.2838(4) 1.0671(5)
H50 H -0.1452 0.3020 1.0348
C64 C -0.0879(7) 0.2723(4) 1.1692(6)
H51 H -0.0725 0.2823 1.2087
C65 C -0.0912(7) 0.2302(4) 1.1598(6)
H52 H -0.0757 0.2123 1.1922
C66 C -0.1178(7) 0.2155(4) 1.1017(5)
H53 H -0.1228 0.1873 1.0949
Cu1 Cu 0.27826(8) -0.07727(5) 0.78633(6)
Cu2 Cu 0.24100(8) -0.06615(5) 0.89086(7)
Cu3 Cu 0.37437(8) -0.06651(5) 0.89031(7)
Cu4 Cu 0.30147(9) -0.13510(5) 0.87068(7)
Cu5 Cu -0.05241(8) 0.06919(5) 0.61357(6)
Cu6 Cu -0.08977(9) 0.07956(5) 0.71656(7)
Cu7 Cu -0.10540(8) 0.13936(4) 0.63692(7)
Cu8 Cu -0.18774(8) 0.07356(5) 0.61363(8)
I1 I 0.39780(4) -0.12027(2) 0.80645(3)
I2 I 0.29543(4) -0.002674(19) 0.84088(3)
I3 I 0.16788(4) -0.11895(2) 0.81029(3)
I4 I 0.33424(3) -0.102340(18) 0.98238(3)
I5 I -0.14379(4) 0.107032(19) 0.52308(3)
I6 I 0.02503(4) 0.11977(2) 0.69779(3)
I7 I -0.11608(4) 0.00664(2) 0.65669(3)
I8 I -0.20371(4) 0.12728(2) 0.70050(3)
N1 N 0.0227(4) 0.0438(2) 0.5770(3)
N2 N 0.1818(5) -0.0352(3) 0.6830(4)
N3 N 0.2409(5) -0.0598(3) 0.6981(4)
N4 N 0.3020(5) -0.3032(3) 0.3843(4)
N5 N 0.3744(5) -0.2524(3) 0.5597(5)
N6 N 0.3931(6) -0.2239(4) 0.6090(5)
N7 N 0.7102(6) 0.0569(4) 0.5810(5)
N8 N 0.6271(8) -0.0434(5) 0.6567(7)
N9 N 0.5806(7) -0.0720(4) 0.6736(9)
N10 N 0.1722(6) -0.0359(4) 0.9282(5)
N11 N 0.0045(4) 0.0353(3) 0.8180(4)
N12 N -0.0550(4) 0.0603(3) 0.8031(4)
N13 N -0.5277(5) -0.0427(3) 0.9245(4)
N14 N -0.4456(6) 0.0504(5) 0.8282(7)
N15 N -0.3988(7) 0.0781(4) 0.8104(6)
N16 N -0.1065(5) 0.2996(3) 1.1224(4)
N17 N -0.1824(6) 0.2527(3) 0.9432(5)
N18 N -0.1974(7) 0.2257(3) 0.8926(5)
O1 O 0.2285(3) -0.0426(2) 0.6034(3)
O2 O 0.5196(5) -0.0307(3) 0.6060(6)
O3 O 0.3455(5) -0.1899(2) 0.5242(4)
O4 O -0.0392(5) 0.0466(3) 0.8985(4)
O5 O -0.1638(4) 0.1894(2) 0.9774(3)
O6 O -0.3408(4) 0.0416(2) 0.8881(3)
Cu3_2 Cu -0.62563(8) -0.06651(5) 0.89031(7)
Cu4C Cu 0.30147(9) -0.36490(5) 0.37068(7)
Cu7C Cu -0.10540(8) 0.36064(4) 1.13692(7)
Cu8_2 Cu 0.81226(8) 0.07356(5) 0.61363(8)
N4C N 0.3020(5) -0.1968(3) 0.8843(4)
N7_2 N -0.2898(6) 0.0569(4) 0.5810(5)
N13_2 N 0.4723(5) -0.0427(3) 0.9245(4)
N16C N -0.1065(5) 0.2004(3) 0.6224(4)
loop_
_geom_bond_atom_site_label_1
_geom_bond_atom_site_label_2
_geom_bond_site_symmetry_1
_geom_bond_site_symmetry_2
C1 H1 1_555 1_555
C2 C1 1_555 1_555
H2 C2 1_555 1_555
C3 C2 1_555 1_555
H3 C3 1_555 1_555
C4 C3 1_555 1_555
C5 C4 1_555 1_555
H4 C5 1_555 1_555
C6 C4 1_555 1_555
C7 C8 1_555 1_555
C8 C9 1_555 1_555
C9 C10 1_555 1_555
C10 C11 1_555 1_555
C11 C12 1_555 1_555
C12 C13 1_555 1_555
C13 C8 1_555 1_555
C14 C9 1_555 1_555
H5 C14 1_555 1_555
C15 C14 1_555 1_555
H6 C15 1_555 1_555
H7 C15 1_555 1_555
H8 C15 1_555 1_555
C16 C13 1_555 1_555
H9 C16 1_555 1_555
H10 C16 1_555 1_555
C17 C16 1_555 1_555
H11 C17 1_555 1_555
H12 C17 1_555 1_555
H13 C17 1_555 1_555
C18 C11 1_555 1_555
H14 C18 1_555 1_555
H15 C18 1_555 1_555
C19 C18 1_555 1_555
H16 C19 1_555 1_555
H17 C19 1_555 1_555
H18 C19 1_555 1_555
C20 C10 1_555 1_555
C21 C22 1_555 1_555
C22 C23 1_555 1_555
C23 H19 1_555 1_555
C24 C23 1_555 1_555
H20 C24 1_555 1_555
C25 C24 1_555 1_555
H21 C25 1_555 1_555
C26 C22 1_555 1_555
H22 C26 1_555 1_555
C27 C12 1_555 1_555
C28 C29 1_555 1_555
C29 C30 1_555 1_555
C30 H23 1_555 1_555
C31 C30 1_555 1_555
H24 C31 1_555 1_555
C32 C31 1_555 1_555
H25 C32 1_555 1_555
C33 C29 1_555 1_555
H26 C33 1_555 1_555
C34 H27 1_555 1_555
C35 C34 1_555 1_555
H28 C35 1_555 1_555
C36 C35 1_555 1_555
H29 C36 1_555 1_555
C37 C36 1_555 1_555
C38 C37 1_555 1_555
H30 C38 1_555 1_555
C39 C37 1_555 1_555
C40 C41 1_555 1_555
C41 C42 1_555 1_555
C42 C43 1_555 1_555
C43 C44 1_555 1_555
C44 C45 1_555 1_555
C45 C46 1_555 1_555
C46 C41 1_555 1_555
C47 C46 1_555 1_555
H31 C47 1_555 1_555
H32 C47 1_555 1_555
C48 C47 1_555 1_555
H33 C48 1_555 1_555
H34 C48 1_555 1_555
H35 C48 1_555 1_555
C49 C44 1_555 1_555
H36 C49 1_555 1_555
H37 C49 1_555 1_555
C50 C49 1_555 1_555
H38 C50 1_555 1_555
H39 C50 1_555 1_555
H40 C50 1_555 1_555
C51 C42 1_555 1_555
H41 C51 1_555 1_555
H42 C51 1_555 1_555
C52 C51 1_555 1_555
H43 C52 1_555 1_555
H44 C52 1_555 1_555
H45 C52 1_555 1_555
C53 C45 1_555 1_555
C54 C55 1_555 1_555
C55 C56 1_555 1_555
C56 H46 1_555 1_555
C57 C56 1_555 1_555
H47 C57 1_555 1_555
C58 C57 1_555 1_555
H48 C58 1_555 1_555
C59 C55 1_555 1_555
H49 C59 1_555 1_555
C60 C43 1_555 1_555
C61 C62 1_555 1_555
C62 C63 1_555 1_555
C63 H50 1_555 1_555
C64 H51 1_555 1_555
C65 C64 1_555 1_555
H52 C65 1_555 1_555
C66 C62 1_555 1_555
H53 C66 1_555 1_555
Cu1 Cu2 1_555 1_555
Cu2 Cu3 1_555 1_555
Cu3 Cu1 1_555 1_555
Cu4 Cu1 1_555 1_555
Cu5 Cu6 1_555 1_555
Cu6 Cu7 1_555 1_555
Cu7 Cu5 1_555 1_555
Cu8 Cu5 1_555 1_555
I1 Cu1 1_555 1_555
I2 Cu1 1_555 1_555
I3 Cu1 1_555 1_555
I4 Cu2 1_555 1_555
I5 Cu5 1_555 1_555
I6 Cu5 1_555 1_555
I7 Cu5 1_555 1_555
I8 Cu6 1_555 1_555
N1 C1 1_555 1_555
N2 C6 1_555 1_555
N3 C7 1_555 1_555
N4 C32 1_555 1_555
N5 C28 1_555 1_555
N6 C27 1_555 1_555
N7 C25 1_555 1_555
N8 C21 1_555 1_555
N9 C20 1_555 1_555
N10 C34 1_555 1_555
N11 C39 1_555 1_555
N12 C40 1_555 1_555
N13 C58 1_555 1_555
N14 C54 1_555 1_555
N15 C53 1_555 1_555
N16 C63 1_555 1_555
N17 C61 1_555 1_555
N18 C60 1_555 1_555
O1 C6 1_555 1_555
O2 C20 1_555 1_555
O3 C27 1_555 1_555
O4 C39 1_555 1_555
O5 C60 1_555 1_555
O6 C53 1_555 1_555
Cu3_2 N13 1_555 1_555
Cu4C N4 1_555 1_555
Cu7C N16 1_555 1_555
Cu8_2 N7 1_555 1_555
N4C Cu4 1_555 1_555
N7_2 Cu8 1_555 1_555
N13_2 Cu3 1_555 1_555
N16C Cu7 1_555 1_555
C5 N1 1_555 1_555
C7 O1 1_555 1_555
C21 O2 1_555 1_555
C26 N7 1_555 1_555
C28 O3 1_555 1_555
C33 N4 1_555 1_555
C38 N10 1_555 1_555
C40 O4 1_555 1_555
C54 O6 1_555 1_555
C59 N13 1_555 1_555
C61 O5 1_555 1_555
C64 N16 1_555 1_555
C65 C66 1_555 1_555
Cu1 N3 1_555 1_555
Cu2 Cu4 1_555 1_555
Cu2 I2 1_555 1_555
Cu2 I3 1_555 1_555
Cu2 N10 1_555 1_555
Cu3 Cu4 1_555 1_555
Cu3 I1 1_555 1_555
Cu3 I2 1_555 1_555
Cu3 I4 1_555 1_555
Cu4 I1 1_555 1_555
Cu4 I3 1_555 1_555
Cu4 I4 1_555 1_555
Cu5 N1 1_555 1_555
Cu6 Cu8 1_555 1_555
Cu6 I6 1_555 1_555
Cu6 I7 1_555 1_555
Cu6 N12 1_555 1_555
Cu7 Cu8 1_555 1_555
Cu7 I5 1_555 1_555
Cu7 I6 1_555 1_555
Cu7 I8 1_555 1_555
Cu8 I5 1_555 1_555
Cu8 I7 1_555 1_555
Cu8 I8 1_555 1_555
N2 N3 1_555 1_555
N5 N6 1_555 1_555
N8 N9 1_555 1_555
N11 N12 1_555 1_555
N14 N15 1_555 1_555
N17 N18 1_555 1_555

#END
