
#######################################################################
#
#                 Cambridge Crystallographic Data Centre
#                                CCDC 
#
#######################################################################
#
# If this CIF has been generated from an entry in the Cambridge 
# Structural Database, then it will include bibliographic, chemical, 
# crystal, experimental, refinement or atomic coordinate data resulting 
# from the CCDC's data processing and validation procedures.
#
#######################################################################

data_DISSUU
_chemical_formula_moiety         '(C4 H21 N3 O17 P4 Zn3)n'
_symmetry_cell_setting           triclinic
_symmetry_space_group_name_H-M   'P -1'
_symmetry_Int_Tables_number      2
_space_group_name_Hall           '-P 1'
loop_
_symmetry_equiv_pos_site_id
_symmetry_equiv_pos_as_xyz
1 x,y,z
2 -x,-y,-z
_cell_length_a                   8.4552(7)
_cell_length_b                   10.0614(8)
_cell_length_c                   12.8218(10)
_cell_angle_alpha                109.0120(10)
_cell_angle_beta                 90.922(2)
_cell_angle_gamma                91.298(2)
_cell_volume                     1030.68
loop_
_atom_site_label
_atom_site_type_symbol
_atom_site_fract_x
_atom_site_fract_y
_atom_site_fract_z
Zn1 Zn 0.05299(4) 0.18217(4) 0.15604(3)
Zn2 Zn 0.25982(4) -0.00168(4) 0.54517(3)
Zn3 Zn 0.18587(4) 0.38327(4) 0.48538(3)
P1 P 0.01905(9) 0.48974(8) 0.30993(7)
P2 P 0.06043(9) 0.08686(8) 0.37536(6)
P3 P 0.50830(9) -0.25216(9) 0.44890(7)
P4 P 0.22787(9) 0.05194(9) -0.07087(7)
O1 O 0.1708(3) 0.4796(3) 0.3752(2)
O2 O -0.1285(3) 0.4772(2) 0.37356(19)
O3 O 0.0263(3) 0.6401(3) 0.2939(2)
O4 O 0.0137(3) 0.3831(3) 0.1941(2)
O5 O 0.1739(3) -0.0177(2) 0.40046(19)
O6 O 0.0493(3) 0.2208(2) 0.47667(19)
O7 O -0.1071(3) 0.0155(3) 0.34531(18)
O8 O 0.1257(3) 0.1223(3) 0.27649(19)
O9 O 0.4009(3) -0.3472(3) 0.3483(2)
O10 O 0.4042(3) -0.1551(3) 0.5354(2)
O11 O 0.6145(3) -0.1730(3) 0.39210(19)
O12 O 0.5934(3) -0.3453(3) 0.5021(2)
O13 O 0.2190(3) 0.1365(3) 0.05098(19)
O14 O 0.1564(3) -0.0996(3) -0.0988(2)
O15 O 0.1228(3) 0.1310(3) -0.1338(2)
O16 O 0.3975(3) 0.0412(3) -0.1082(2)
H2 H 0.3294 -0.4035 0.3639
H10 H 0.0091 0.7192 0.3614
H11 H 0.1219 0.0825 -0.2068
Zn1A Zn -0.05299(4) -0.18217(4) -0.15604(3)
Zn2A Zn -0.25982(4) 0.00168(4) 0.45483(3)
Zn2A_2 Zn 0.74018(4) 0.00168(4) 0.45483(3)
Zn3A Zn -0.18587(4) 0.61673(4) 0.51462(3)
Zn3A_2 Zn 0.81413(4) -0.38327(4) 0.51462(3)
O2A O 0.1285(3) 0.5228(2) 0.62644(19)
O7A O 0.1071(3) -0.0155(3) 0.65469(18)
O11A O 0.3855(3) 0.1730(3) 0.60790(19)
O12A O 0.4066(3) 0.3453(3) 0.4979(2)
O14A O -0.1564(3) 0.0996(3) 0.0988(2)
N1 N 0.3583(4) -0.2583(3) 0.7113(2)
N2 N 0.4071(3) -0.2479(3) 0.9555(2)
N3 N 0.3766(4) -0.1370(4) 1.2216(3)
C1 C 0.5087(4) -0.2846(4) 0.7643(3)
C2 C 0.4778(5) -0.3499(4) 0.8543(3)
C3 C 0.3486(6) -0.3214(4) 1.0336(4)
C4 C 0.2631(5) -0.2212(5) 1.1321(3)
H1 H 0.4773 -0.1733 0.9902
H3 H 0.3787 -0.2217 0.6568
H4 H 0.3201 -0.2069 0.9446
H5 H 0.3113 -0.1931 0.7603
H6 H 0.4479 -0.0801 1.1959
H7 H 0.3213 -0.0667 1.2807
H8 H 0.2978 -0.3403 0.6897
H9 H 0.4233 -0.2132 1.2375
O17 O 0.3139(6) 0.3549(5) -0.1651(4)
H12 H 0.3678 0.3392 -0.2269
H13 H 0.2844 0.4409 -0.1418
loop_
_geom_bond_atom_site_label_1
_geom_bond_atom_site_label_2
_geom_bond_site_symmetry_1
_geom_bond_site_symmetry_2
Zn1 O4 1_555 1_555
Zn2 O5 1_555 1_555
Zn3 O1 1_555 1_555
P1 O1 1_555 1_555
P2 O5 1_555 1_555
P3 O9 1_555 1_555
P4 O13 1_555 1_555
O2 P1 1_555 1_555
O3 P1 1_555 1_555
O4 P1 1_555 1_555
O6 Zn3 1_555 1_555
O7 P2 1_555 1_555
O8 Zn1 1_555 1_555
O9 H2 1_555 1_555
O10 Zn2 1_555 1_555
O11 P3 1_555 1_555
O12 P3 1_555 1_555
O13 Zn1 1_555 1_555
O14 P4 1_555 1_555
O15 P4 1_555 1_555
O16 P4 1_555 1_555
N1 C1 1_555 1_555
N2 C2 1_555 1_555
N3 C4 1_555 1_555
C1 C2 1_555 1_555
C3 N2 1_555 1_555
C4 C3 1_555 1_555
O17 H12 1_555 1_555
H1 N2 1_555 1_555
H3 N1 1_555 1_555
H4 N2 1_555 1_555
H5 N1 1_555 1_555
H6 N3 1_555 1_555
H7 N3 1_555 1_555
H8 N1 1_555 1_555
H9 N3 1_555 1_555
H10 O3 1_555 1_555
H11 O15 1_555 1_555
H13 O17 1_555 1_555
Zn1A O14 1_555 1_555
Zn2A O7 1_555 1_555
Zn2A_2 O11 1_555 1_555
Zn3A O2 1_555 1_555
Zn3A_2 O12 1_555 1_555
O2A Zn3 1_555 1_555
O7A Zn2 1_555 1_555
O11A Zn2 1_555 1_555
O12A Zn3 1_555 1_555
O14A Zn1 1_555 1_555
P2 O6 1_555 1_555
P2 O8 1_555 1_555
P3 O10 1_555 1_555

#END
