
#######################################################################
#
#                 Cambridge Crystallographic Data Centre
#                                CCDC 
#
#######################################################################
#
# If this CIF has been generated from an entry in the Cambridge 
# Structural Database, then it will include bibliographic, chemical, 
# crystal, experimental, refinement or atomic coordinate data resulting 
# from the CCDC's data processing and validation procedures.
#
#######################################################################

data_DISTAB
_chemical_formula_moiety         '(C5 H8 N4 O26 P6 Zn5 4-)n'
_symmetry_cell_setting           tetragonal
_symmetry_space_group_name_H-M   'I -4 2 d'
_symmetry_Int_Tables_number      122
_space_group_name_Hall           'I -4 2bw'
loop_
_symmetry_equiv_pos_site_id
_symmetry_equiv_pos_as_xyz
1 x,y,z
2 -x,-y,z
3 y,-x,-z
4 -y,x,-z
5 1/2-x,y,3/4-z
6 1/2+x,-y,3/4-z
7 1/2-y,-x,3/4+z
8 1/2+y,x,3/4+z
9 1/2+x,1/2+y,1/2+z
10 1/2-x,1/2-y,1/2+z
11 1/2+y,1/2-x,1/2-z
12 1/2-y,1/2+x,1/2-z
13 -x,1/2+y,1/4-z
14 x,1/2-y,1/4-z
15 -y,1/2-x,1/4+z
16 y,1/2+x,1/4+z
_cell_length_a                   16.0829(8)
_cell_length_b                   16.0829(8)
_cell_length_c                   29.805(2)
_cell_angle_alpha                90
_cell_angle_beta                 90
_cell_angle_gamma                90
_cell_volume                     7709.35
loop_
_atom_site_label
_atom_site_type_symbol
_atom_site_fract_x
_atom_site_fract_y
_atom_site_fract_z
_atom_site_U_iso_or_equiv
_atom_site_thermal_displace_type
O13 O 0.8369(12) -0.1007(11) 0.1649(5) 0.0943 Uani
H3 H 0.8944 -0.0908 0.1729 0.0800 Uiso
H4 H 0.8166 -0.1564 0.1689 0.0800 Uiso
O14 O 0.7064(16) 0.1868(11) -0.241(2) 0.3487 Uani
N2 N 0.4030(19) 0.2781(12) 0.1097(8) 0.1547 Uani
N3 N 0.5081(9) 0.5250(7) 0.0638(4) 0.0400 Uani
C1 C 0.4556(7) 0.3466(7) 0.1072(4) 0.0587 Uani
C2 C 0.4820(10) 0.4626(9) 0.1006(4) 0.0827 Uani
N2M N 0.4030(19) 0.2219(12) 0.1403(8) 0.1547 Uani
N3A N 0.4919(9) 0.4750(7) 0.0638(4) 0.0400 Uani
C1M C 0.4556(7) 0.1534(7) 0.1428(4) 0.0587 Uani
C1A C 0.5444(7) 0.6534(7) 0.1072(4) 0.0587 Uani
C2A C 0.5180(10) 0.5374(9) 0.1006(4) 0.0827 Uani
Zn1 Zn 0.57962(4) 0.09134(4) 0.04036(2) 0.0232 Uani
Zn2 Zn 0.42952(4) 0.26419(5) -0.02861(2) 0.0249 Uani
Zn3 Zn 0.67298(6) 0.2500 0.1250 0.0265 Uani
P1 P 0.60212(10) 0.27615(10) 0.02624(5) 0.0248 Uani
P2 P 0.39057(10) 0.09070(10) 0.02054(5) 0.0247 Uani
P3 P 0.71600(10) 0.07054(11) 0.11357(5) 0.0265 Uani
O1 O 0.5207(3) 0.3075(4) 0.0065(2) 0.0420 Uani
O2 O 0.6222(3) 0.1877(3) 0.00972(16) 0.0330 Uani
O3 O 0.5945(3) 0.2739(3) 0.07815(15) 0.0317 Uani
O4 O 0.6735(3) 0.3324(3) 0.01152(18) 0.0380 Uani
O5 O 0.4623(3) 0.1038(3) 0.05382(15) 0.0287 Uani
O6 O 0.3913(3) 0.0017(3) 0.00225(15) 0.0310 Uani
O7 O 0.3082(3) 0.1076(3) 0.04490(18) 0.0367 Uani
O8 O 0.3971(3) 0.1498(3) -0.01935(16) 0.0357 Uani
O9 O 0.6238(3) 0.0691(3) 0.10049(15) 0.0273 Uani
O10 O 0.7659(3) 0.0190(3) 0.07937(17) 0.0393 Uani
O11 O 0.7500(3) 0.1588(3) 0.11205(18) 0.0347 Uani
O12 O 0.7260(4) 0.0318(3) 0.15979(16) 0.0403 Uani
H1 H 0.2883 0.0628 0.0550 0.0800 Uiso
H2 H 0.7356 -0.0212 0.0699 0.0800 Uiso
Zn1M Zn 0.57962(4) 0.40866(4) 0.20964(2) 0.0232 Uani
Zn1A Zn 0.42038(4) -0.09134(4) 0.04036(2) 0.0232 Uani
Zn2M Zn 0.42952(4) 0.23581(5) 0.27861(2) 0.0249 Uani
Zn2C Zn 0.73581(5) 0.42952(4) 0.02861(2) 0.0249 Uani
Zn2N Zn 0.73581(5) 0.07048(4) 0.22139(2) 0.0249 Uani
Zn2A Zn 0.57048(4) -0.26419(5) -0.02861(2) 0.0249 Uani
P1M P 0.60212(10) 0.22385(10) 0.22376(5) 0.0248 Uani
P2A P 0.60943(10) -0.09070(10) 0.02054(5) 0.0247 Uani
P3M P 0.71600(10) 0.42946(11) 0.13643(5) 0.0265 Uani
O1M O 0.5207(3) 0.1925(4) 0.2435(2) 0.0420 Uani
O2M O 0.6222(3) 0.3123(3) 0.24028(16) 0.0330 Uani
O3M O 0.5945(3) 0.2261(3) 0.17185(15) 0.0317 Uani
O4M O 0.6735(3) 0.1676(3) 0.23848(18) 0.0380 Uani
O4B O 0.3324(3) 0.3265(3) -0.01152(18) 0.0380 Uani
O4O O 0.3324(3) 0.1735(3) 0.26152(18) 0.0380 Uani
O5A O 0.5377(3) -0.1038(3) 0.05382(15) 0.0287 Uani
O5M O 0.4623(3) 0.3962(3) 0.19618(15) 0.0287 Uani
O6A O 0.6087(3) -0.0017(3) 0.00225(15) 0.0310 Uani
O6L O 0.6087(3) 0.5017(3) 0.24775(15) 0.0310 Uani
O7A O 0.6918(3) -0.1076(3) 0.04490(18) 0.0367 Uani
O8A O 0.6029(3) -0.1498(3) -0.01935(16) 0.0357 Uani
O8M O 0.3971(3) 0.3502(3) 0.26935(16) 0.0357 Uani
O9M O 0.6238(3) 0.4309(3) 0.14951(15) 0.0273 Uani
O10M O 0.7659(3) 0.4810(3) 0.17063(17) 0.0393 Uani
O11M O 0.7500(3) 0.3412(3) 0.13795(18) 0.0347 Uani
O12M O 0.7260(4) 0.4682(3) 0.09021(16) 0.0403 Uani
O12F O 0.4682(3) 0.2740(4) -0.09021(16) 0.0403 Uani
O12K O 0.4682(3) 0.2260(4) 0.34021(16) 0.0403 Uani
H1A H 0.7117 -0.0628 0.0550 0.0800 Uiso
H2M H 0.7356 0.5212 0.1801 0.0800 Uiso
loop_
_atom_site_aniso_label
_atom_site_aniso_U_11
_atom_site_aniso_U_22
_atom_site_aniso_U_33
_atom_site_aniso_U_23
_atom_site_aniso_U_13
_atom_site_aniso_U_12
O13 0.138(16) 0.093(12) 0.052(8) 0.036(8) 0.046(9) 0.081(12)
O14 0.14(2) 0.036(8) 0.87(11) -0.08(2) 0.34(4) -0.031(10)
N2 0.26(3) 0.075(11) 0.129(16) -0.042(10) 0.152(19) -0.045(14)
N3 0.041(5) 0.043(5) 0.036(4) -0.002(4) -0.007(4) 0.017(5)
C1 0.062(6) 0.054(6) 0.060(5) -0.007(4) 0.003(5) 0.001(5)
C2 0.106(11) 0.080(8) 0.062(7) 0.010(6) 0.020(7) 0.008(8)
N2M 0.26 0.075 0.129 -0.042 -0.152 0.045
N3A 0.041 0.043 0.036 0.002 0.007 0.017
C1M 0.062 0.054 0.06 -0.007 -0.003 -0.001
C1A 0.062 0.054 0.06 0.007 -0.003 0.001
C2A 0.106 0.08 0.062 -0.01 -0.02 0.008
Zn1 0.0257(3) 0.0223(3) 0.0216(3) 0.0013(2) -0.0012(3) -0.0010(3)
Zn2 0.0235(3) 0.0259(3) 0.0254(3) 0.0060(3) -0.0027(3) 0.0013(3)
Zn3 0.0253(5) 0.0310(5) 0.0231(4) 0.0032(4) 0.000 0.000
P1 0.0267(8) 0.0247(7) 0.0230(7) 0.0065(6) -0.0058(6) -0.0044(6)
P2 0.0244(7) 0.0222(7) 0.0276(7) 0.0052(6) -0.0016(6) -0.0009(6)
P3 0.0269(7) 0.0268(8) 0.0257(7) -0.0017(6) -0.0057(6) 0.0018(6)
O1 0.036(3) 0.041(3) 0.049(3) 0.000(3) -0.022(2) -0.001(2)
O2 0.047(3) 0.023(2) 0.029(2) 0.0042(18) 0.004(2) -0.008(2)
O3 0.033(2) 0.038(3) 0.024(2) 0.0059(19) 0.0002(19) 0.004(2)
O4 0.039(3) 0.035(3) 0.040(3) 0.005(2) 0.000(2) -0.012(2)
O5 0.024(2) 0.035(2) 0.027(2) 0.0003(18) -0.0037(17) 0.0018(18)
O6 0.041(3) 0.024(2) 0.028(2) 0.0023(18) -0.003(2) -0.0010(19)
O7 0.029(2) 0.032(2) 0.049(3) 0.005(2) 0.006(2) 0.001(2)
O8 0.047(3) 0.028(2) 0.032(2) 0.0113(19) -0.004(2) -0.004(2)
O9 0.025(2) 0.034(2) 0.023(2) 0.0035(18) -0.0051(17) -0.0057(19)
O10 0.040(3) 0.039(3) 0.039(3) -0.015(2) 0.001(2) 0.000(2)
O11 0.028(2) 0.025(2) 0.051(3) -0.001(2) -0.004(2) -0.0003(19)
O12 0.052(3) 0.044(3) 0.025(2) 0.000(2) -0.018(2) 0.007(3)
Zn1M 0.0257 0.0223 0.0216 0.0013 0.0012 0.001
Zn1A 0.0257 0.0223 0.0216 -0.0013 0.0012 -0.001
Zn2M 0.0235 0.0259 0.0254 0.006 0.0027 -0.0013
Zn2C 0.0259 0.0235 0.0254 0.0027 0.006 -0.0013
Zn2N 0.0259 0.0235 0.0254 0.0027 -0.006 0.0013
Zn2A 0.0235 0.0259 0.0254 -0.006 0.0027 0.0013
P1M 0.0267 0.0247 0.023 0.0065 0.0058 0.0044
P2A 0.0244 0.0222 0.0276 -0.0052 0.0016 -0.0009
P3M 0.0269 0.0268 0.0257 -0.0017 0.0057 -0.0018
O1M 0.036 0.041 0.049 0 0.022 0.001
O2M 0.047 0.023 0.029 0.0042 -0.004 0.008
O3M 0.033 0.038 0.024 0.0059 -0.0002 -0.004
O4M 0.039 0.035 0.04 0.005 0 0.012
O4B 0.035 0.039 0.04 0 -0.005 0.012
O4O 0.035 0.039 0.04 0 0.005 -0.012
O5A 0.024 0.035 0.027 -0.0003 0.0037 0.0018
O5M 0.024 0.035 0.027 0.0003 0.0037 -0.0018
O6A 0.041 0.024 0.028 -0.0023 0.003 -0.001
O6L 0.041 0.024 0.028 -0.0023 -0.003 0.001
O7A 0.029 0.032 0.049 -0.005 -0.006 0.001
O8A 0.047 0.028 0.032 -0.0113 0.004 -0.004
O8M 0.047 0.028 0.032 0.0113 0.004 0.004
O9M 0.025 0.034 0.023 0.0035 0.0051 0.0057
O10M 0.04 0.039 0.039 -0.015 -0.001 0
O11M 0.028 0.025 0.051 -0.001 0.004 0.0003
O12M 0.052 0.044 0.025 0 0.018 -0.007
O12F 0.044 0.052 0.025 0.018 0 0.007
O12K 0.044 0.052 0.025 0.018 0 -0.007
loop_
_geom_bond_atom_site_label_1
_geom_bond_atom_site_label_2
_geom_bond_site_symmetry_1
_geom_bond_site_symmetry_2
Zn1 O2 1_555 1_555
Zn2 O1 1_555 1_555
Zn3 O3 1_555 1_555
P1 O1 1_555 1_555
P2 O5 1_555 1_555
P3 O9 1_555 1_555
O2 P1 1_555 1_555
O3 P1 1_555 1_555
O4 P1 1_555 1_555
O5 Zn1 1_555 1_555
O6 P2 1_555 1_555
O7 P2 1_555 1_555
O8 Zn2 1_555 1_555
O9 Zn1 1_555 1_555
O10 P3 1_555 1_555
O11 Zn3 1_555 1_555
O12 P3 1_555 1_555
O13 H3 1_555 1_555
N2 C1 1_555 1_555
N3 C2 1_555 1_555
C1 C2 1_555 1_555
C2 N3A 1_555 1_555
H1 O7 1_555 1_555
H2 O10 1_555 1_555
H4 O13 1_555 1_555
Zn1M O2M 1_555 1_555
Zn1A O6 1_555 1_555
Zn2M O1M 1_555 1_555
Zn2C O4 1_555 1_555
Zn2N O12 1_555 1_555
Zn2A O8A 1_555 1_555
P1M O1M 1_555 1_555
P2A O5A 1_555 1_555
P3M O9M 1_555 1_555
O2M P1M 1_555 1_555
O3M Zn3 1_555 1_555
O4M Zn2N 1_555 1_555
O4B Zn2 1_555 1_555
O4O Zn2M 1_555 1_555
O5A Zn1A 1_555 1_555
O5M Zn1M 1_555 1_555
O6A Zn1 1_555 1_555
O6L Zn1M 1_555 1_555
O7A P2A 1_555 1_555
O8A P2A 1_555 1_555
O8M Zn2M 1_555 1_555
O9M Zn1M 1_555 1_555
O10M P3M 1_555 1_555
O11M Zn3 1_555 1_555
O12M Zn2C 1_555 1_555
O12F Zn2 1_555 1_555
O12K Zn2M 1_555 1_555
N2M N2 1_555 1_555
N3A N3 1_555 1_555
C1M N2M 1_555 1_555
C1A C2A 1_555 1_555
C2A N3 1_555 1_555
H1A O7A 1_555 1_555
H2M O10M 1_555 1_555
P2 O8 1_555 1_555
P3 O11 1_555 1_555
C2 C2A 1_555 1_555
P1M O3M 1_555 1_555
P1M O4M 1_555 1_555
P2A O6A 1_555 1_555
P3M O11M 1_555 1_555
P3M O12M 1_555 1_555
N3A C2A 1_555 1_555

#END
