
#######################################################################
#
#                 Cambridge Crystallographic Data Centre
#                                CCDC 
#
#######################################################################
#
# If this CIF has been generated from an entry in the Cambridge 
# Structural Database, then it will include bibliographic, chemical, 
# crystal, experimental, refinement or atomic coordinate data resulting 
# from the CCDC's data processing and validation procedures.
#
#######################################################################

data_ERAPUK
_chemical_formula_moiety         'C16 H10 In10 O20'
_symmetry_cell_setting           tetragonal
_symmetry_space_group_name_H-M   'I 41 2 2'
_symmetry_Int_Tables_number      98
_space_group_name_Hall           'I 4bw 2bw'
loop_
_symmetry_equiv_pos_site_id
_symmetry_equiv_pos_as_xyz
1 x,y,z
2 1/2-x,1/2-y,1/2+z
3 -y,1/2+x,1/4+z
4 1/2+y,-x,3/4+z
5 1/2-x,y,3/4-z
6 x,1/2-y,1/4-z
7 1/2+y,1/2+x,1/2-z
8 -y,-x,-z
9 1/2+x,1/2+y,1/2+z
10 -x,-y,z
11 1/2-y,x,3/4+z
12 y,1/2-x,1/4+z
13 -x,1/2+y,1/4-z
14 1/2+x,-y,3/4-z
15 y,x,-z
16 1/2-y,1/2-x,1/2-z
_cell_length_a                   15.4625(7)
_cell_length_b                   15.4625(7)
_cell_length_c                   12.3370(6)
_cell_angle_alpha                90
_cell_angle_beta                 90
_cell_angle_gamma                90
_cell_volume                     2949.64
loop_
_atom_site_label
_atom_site_type_symbol
_atom_site_fract_x
_atom_site_fract_y
_atom_site_fract_z
In1 In 0.68709(2) 0.68709(2) 0.5000
O1 O 0.6175(2) 0.6114(2) 0.38533(17)
O2 O 0.70891(16) 0.59401(18) 0.2432(2)
O3 O 0.7546(3) 0.7594(17) 0.6176(14)
H1 H 0.8058(18) 0.774(4) 0.606(3)
C1 C 0.5000 0.5000 0.0613(4)
C2 C 0.5682(3) 0.5369(3) 0.1177(3)
H2 H 0.6157 0.5607 0.0790
C3 C 0.5676(3) 0.5394(3) 0.2318(3)
C4 C 0.5000 0.5000 0.2873(4)
H3 H 0.5000 0.5000 0.3643
C5 C 0.6378(3) 0.5841(3) 0.2915(3)
O1G O 0.3886(2) 0.3825(2) -0.38533(17)
O2G O 0.40599(18) 0.29109(16) -0.2432(2)
C1G C 0.5000 0.5000 -0.0613(4)
C2G C 0.4631(3) 0.4318(3) -0.1177(3)
H2G H 0.4393 0.3843 -0.0790
C3G C 0.4606(3) 0.4324(3) -0.2318(3)
C4G C 0.5000 0.5000 -0.2873(4)
H3G H 0.5000 0.5000 -0.3643
C5G C 0.4159(3) 0.3622(3) -0.2915(3)
O1I O 0.3825(2) 0.3886(2) 0.38533(17)
O2I O 0.29109(16) 0.40599(18) 0.2432(2)
C2I C 0.4318(3) 0.4631(3) 0.1177(3)
H2I H 0.3843 0.4393 0.0790
C3I C 0.4324(3) 0.4606(3) 0.2318(3)
C5I C 0.3622(3) 0.4159(3) 0.2915(3)
O1N O 0.6114(2) 0.6175(2) -0.38533(17)
O2N O 0.59401(18) 0.70891(16) -0.2432(2)
C2N C 0.5369(3) 0.5682(3) -0.1177(3)
H2N H 0.5607 0.6157 -0.0790
C3N C 0.5394(3) 0.5676(3) -0.2318(3)
C5N C 0.5841(3) 0.6378(3) -0.2915(3)
O3E O 0.7546(3) 0.7406(17) 0.6324(14)
H1E H 0.8058(18) 0.726(4) 0.644(3)
In1D In 0.81291(2) 0.68709(2) 0.2500
O3D O 0.7454(3) 0.7594(17) 0.1324(14)
H1D H 0.6942(18) 0.774(4) 0.144(3)
O3A O 0.7454(3) 0.7406(17) 0.1176(14)
H1A H 0.6942(18) 0.726(4) 0.106(3)
In1_2 In 0.68709(2) 0.68709(2) -0.5000
In1A In 0.81291(2) 0.81291(2) 0.0000
In1B In 0.31291(2) 0.18709(2) -0.2500
In1C In 0.18709(2) 0.31291(2) 0.2500
In1E In 0.68709(2) 0.81291(2) -0.2500
In1E_2 In 0.68709(2) 0.81291(2) 0.7500
In1G In 0.31291(2) 0.31291(2) -0.5000
In1G_2 In 0.31291(2) 0.31291(2) 0.5000
O1D O 0.8825(2) 0.6114(2) 0.36467(17)
O1J O 0.8886(2) 0.6175(2) 0.13533(17)
O1N_2 O 0.6114(2) 0.6175(2) 0.61467(17)
O2D O 0.79109(16) 0.59401(18) 0.5068(2)
O2K O 0.59401(18) 0.79109(16) 0.4932(2)
O2O O 0.90599(18) 0.79109(16) 0.2568(2)
O3J O 0.7406(17) 0.7546(3) 0.3676(14)
O3N O 0.7594(17) 0.7546(3) 0.3824(14)
loop_
_geom_bond_atom_site_label_1
_geom_bond_atom_site_label_2
_geom_bond_site_symmetry_1
_geom_bond_site_symmetry_2
In1 O1 1_555 1_555
O1 C5 1_555 1_555
O2 C5 1_555 1_555
O3 In1 1_555 1_555
H1 O3 1_555 1_555
C1 C2 1_555 1_555
C2 H2 1_555 1_555
C3 C2 1_555 1_555
C4 C3 1_555 1_555
H3 C4 1_555 1_555
C5 C3 1_555 1_555
O1G C5G 1_555 1_555
O2G C5G 1_555 1_555
C1G C1 1_555 1_555
C2G C1G 1_555 1_555
H2G C2G 1_555 1_555
C3G C2G 1_555 1_555
C4G C3G 1_555 1_555
H3G C4G 1_555 1_555
C5G C3G 1_555 1_555
O1I C5I 1_555 1_555
O2I C5I 1_555 1_555
C2I C1 1_555 1_555
H2I C2I 1_555 1_555
C3I C4 1_555 1_555
C5I C3I 1_555 1_555
O1N C5N 1_555 1_555
O2N C5N 1_555 1_555
C2N C1G 1_555 1_555
H2N C2N 1_555 1_555
C3N C4G 1_555 1_555
C5N C3N 1_555 1_555
O3E In1 1_555 1_555
H1E O3 1_555 1_555
In1D O2 1_555 1_555
O3D In1D 1_555 1_555
H1D O3D 1_555 1_555
O3A In1D 1_555 1_555
H1A O3D 1_555 1_555
In1_2 O1N 1_555 1_555
In1A O3D 1_555 1_555
In1B O2G 1_555 1_555
In1C O2I 1_555 1_555
In1E O2N 1_555 1_555
In1E_2 O3 1_555 1_555
In1G O1G 1_555 1_555
In1G_2 O1I 1_555 1_555
O1D In1D 1_555 1_555
O1J In1D 1_555 1_555
O1N_2 In1 1_555 1_555
O2D In1 1_555 1_555
O2K In1 1_555 1_555
O2O In1D 1_555 1_555
O3J In1 1_555 1_555
O3N In1 1_555 1_555
H1 O3E 1_555 1_555
C2I C3I 1_555 1_555
C2N C3N 1_555 1_555
O3E H1E 1_555 1_555
O3E In1E_2 1_555 1_555
In1D O3J 1_555 1_555
In1D O3N 1_555 1_555
H1D O3A 1_555 1_555
O3A H1A 1_555 1_555
O3A In1A 1_555 1_555

#END
