
#######################################################################
#
#                 Cambridge Crystallographic Data Centre
#                                CCDC 
#
#######################################################################
#
# If this CIF has been generated from an entry in the Cambridge 
# Structural Database, then it will include bibliographic, chemical, 
# crystal, experimental, refinement or atomic coordinate data resulting 
# from the CCDC's data processing and validation procedures.
#
#######################################################################

data_LENGAO
_chemical_formula_moiety         '(C42 H38 Cd3 N3 O25 P3)n'
_symmetry_cell_setting           monoclinic
_symmetry_space_group_name_H-M   'P 21/c'
_symmetry_Int_Tables_number      14
_space_group_name_Hall           '-P 2ybc'
loop_
_symmetry_equiv_pos_site_id
_symmetry_equiv_pos_as_xyz
1 x,y,z
2 -x,1/2+y,1/2-z
3 -x,-y,-z
4 x,1/2-y,1/2+z
_cell_length_a                   16.7831(18)
_cell_length_b                   43.410(5)
_cell_length_c                   12.1583(13)
_cell_angle_alpha                90
_cell_angle_beta                 93.688(2)
_cell_angle_gamma                90
_cell_volume                     8839.64
loop_
_atom_site_label
_atom_site_type_symbol
_atom_site_fract_x
_atom_site_fract_y
_atom_site_fract_z
Cd1 Cd 0.53592(4) 0.702069(18) -0.18547(6)
Cd2 Cd 0.43316(4) 0.704245(18) 0.07964(6)
C1 C 0.8411(6) 0.6717(2) 0.1237(8)
C2 C 0.7965(5) 0.6629(3) 0.0320(8)
H1 H 0.8193 0.6515 -0.0228
C3 C 0.7166(5) 0.6710(2) 0.0215(8)
H2 H 0.6854 0.6646 -0.0402
C4 C 0.6815(5) 0.6889(3) 0.1028(8)
C5 C 0.7309(6) 0.6964(3) 0.1965(8)
H3 H 0.7093 0.7072 0.2535
C6 C 0.8114(5) 0.6879(3) 0.2069(8)
H4 H 0.8436 0.6933 0.2690
C7 C 0.5974(5) 0.6973(2) 0.0891(8)
C8 C 1.1051(6) 0.6411(3) 0.1488(10)
C9 C 1.0665(7) 0.6146(3) 0.1710(10)
H5 H 1.0110 0.6139 0.1677
C10 C 1.1106(7) 0.5888(3) 0.1986(11)
H6 H 1.0853 0.5712 0.2228
C11 C 1.1940(7) 0.5887(3) 0.1904(12)
C12 C 1.2290(7) 0.6156(3) 0.1668(11)
H7 H 1.2842 0.6161 0.1641
C13 C 1.1862(6) 0.6427(3) 0.1464(10)
H8 H 1.2118 0.6611 0.1318
C14 C 0.8658(4) 0.63903(13) -0.2490(7)
C15 C 0.9072(3) 0.61156(17) -0.2595(7)
H9 H 0.9625 0.6117 -0.2610
C16 C 0.8659(4) 0.58381(14) -0.2677(7)
H10 H 0.8936 0.5654 -0.2747
C17 C 0.7832(4) 0.58353(13) -0.2654(8)
C18 C 0.7418(3) 0.61100(17) -0.2549(7)
H11 H 0.6864 0.6108 -0.2534
C19 C 0.7831(4) 0.63875(14) -0.2467(7)
H12 H 0.7554 0.6571 -0.2396
C20 C 0.7415(8) 0.5539(3) -0.2699(12)
C21 C 1.1271(6) 0.6710(3) -0.2297(9)
C22 C 1.1728(6) 0.6638(3) -0.1361(9)
H13 H 1.1506 0.6529 -0.0799
C23 C 1.2510(6) 0.6728(2) -0.1247(9)
H14 H 1.2820 0.6686 -0.0603
C24 C 1.2834(6) 0.6885(3) -0.2128(9)
C25 C 1.2385(6) 0.6951(3) -0.3030(9)
H15 H 1.2618 0.7049 -0.3609
C26 C 1.1582(6) 0.6880(3) -0.3142(9)
H16 H 1.1263 0.6944 -0.3754
C27 C 1.3703(6) 0.6956(3) -0.2074(9)
C28 C 1.1156(5) 0.7594(2) -0.1016(8)
C29 C 1.1930(5) 0.7560(2) -0.0542(8)
H17 H 1.2016 0.7486 0.0174
C30 C 1.2575(6) 0.7637(2) -0.1158(8)
H18 H 1.3093 0.7618 -0.0843
C31 C 1.2452(5) 0.7742(3) -0.2238(8)
C32 C 1.1681(5) 0.7765(2) -0.2690(8)
H19 H 1.1593 0.7831 -0.3415
C33 C 1.1036(6) 0.7692(2) -0.2093(8)
H20 H 1.0521 0.7708 -0.2416
C34 C 1.3143(5) 0.7822(3) -0.2903(8)
C35 C 0.8479(5) 0.7594(2) -0.0067(8)
C36 C 0.7702(5) 0.7554(2) -0.0524(8)
H21 H 0.7612 0.7472 -0.1227
C37 C 0.7067(5) 0.7639(2) 0.0082(8)
H22 H 0.6546 0.7622 -0.0221
C38 C 0.7215(5) 0.7749(2) 0.1141(8)
C39 C 0.7992(5) 0.7782(2) 0.1600(8)
H23 H 0.8083 0.7856 0.2314
C40 C 0.8641(5) 0.7701(2) 0.0970(8)
H24 H 0.9165 0.7720 0.1261
C41 C 0.6536(5) 0.7843(3) 0.1803(8)
O1 O 0.9223(4) 0.66199(17) 0.1379(6)
O2 O 0.5567(4) 0.69623(17) 0.0029(5)
O3 O 0.5635(4) 0.70581(17) 0.1771(6)
O4 O 1.0647(4) 0.66929(17) 0.1320(6)
O5 O 0.9029(4) 0.66753(17) -0.2417(6)
O6 O 0.7778(5) 0.5304(2) -0.2816(8)
O7 O 0.6689(5) 0.5523(2) -0.2653(8)
O8 O 1.0468(4) 0.66217(17) -0.2440(6)
O9 O 1.4099(4) 0.69492(17) -0.1081(6)
O10 O 1.4071(4) 0.70219(17) -0.2865(6)
O11 O 1.0541(4) 0.75310(17) -0.0355(5)
O12 O 1.3014(4) 0.78969(17) -0.3894(6)
O13 O 1.3830(4) 0.78149(18) -0.2455(6)
O14 O 0.9099(4) 0.75312(16) -0.0749(5)
O15 O 0.5823(4) 0.78482(17) 0.1395(5)
O16 O 0.6684(4) 0.79116(17) 0.2806(5)
P1 P 0.98543(15) 0.67604(7) 0.0590(2)
P2 P 0.98187(14) 0.67542(7) -0.1682(2)
P3 P 0.98244(14) 0.73044(6) -0.0550(2)
N1 N 0.9828(5) 0.6574(2) -0.0547(7)
N2 N 0.9899(5) 0.7119(2) -0.1659(7)
N3 N 0.9743(5) 0.7118(2) 0.0530(7)
O17 O 0.5424(6) 0.6497(2) -0.2036(7)
O18 O 0.5245(4) 0.75473(18) -0.1567(6)
O19 O 0.4259(6) 0.6518(2) 0.1062(9)
O20 O 0.4429(4) 0.75691(18) 0.0483(6)
O24 O 1.3108(5) 0.5595(2) 0.2026(8)
O25 O 1.2041(5) 0.5358(2) 0.2357(8)
C42 C 1.2397(8) 0.5601(3) 0.2086(12)
Cd4 Cd 0.67857(15) 0.49511(6) -0.2268(3)
O27 O 0.5449(5) 0.5019(4) -0.2379(18)
O28 O 0.7005(12) 0.5043(4) -0.0446(8)
Cd1_2 Cd 1.53592(4) 0.702069(18) -0.18547(6)
Cd1C Cd 0.53592(4) 0.797931(18) 0.31453(6)
Cd2_2 Cd 1.43316(4) 0.704245(18) 0.07964(6)
Cd2C Cd 1.43316(4) 0.795755(18) -0.42036(6)
O9_2 O 0.4099(4) 0.69492(17) -0.1081(6)
O10_2 O 0.4071(4) 0.70219(17) -0.2865(6)
O12C O 0.3014(4) 0.71031(17) 0.1106(6)
O13C O 0.3830(4) 0.71851(18) 0.2545(6)
O15C O 0.5823(4) 0.71518(17) -0.3605(5)
O16C O 0.6684(4) 0.70884(17) -0.2194(5)
O24B O 0.6892(5) 0.4405(2) -0.2026(8)
O25B O 0.7959(5) 0.4642(2) -0.2357(8)
Cd4B Cd 1.32143(15) 0.50489(6) 0.2268(3)
O26 O 0.6386(11) 0.4892(4) -0.4552(9)
loop_
_geom_bond_atom_site_label_1
_geom_bond_atom_site_label_2
_geom_bond_site_symmetry_1
_geom_bond_site_symmetry_2
Cd1 O2 1_555 1_555
Cd2 O2 1_555 1_555
C1 C2 1_555 1_555
C2 H1 1_555 1_555
C3 C2 1_555 1_555
H2 C3 1_555 1_555
C4 C3 1_555 1_555
C5 C4 1_555 1_555
H3 C5 1_555 1_555
C6 C1 1_555 1_555
H4 C6 1_555 1_555
C7 C4 1_555 1_555
C8 C9 1_555 1_555
C9 H5 1_555 1_555
C10 C9 1_555 1_555
H6 C10 1_555 1_555
C11 C10 1_555 1_555
C12 C11 1_555 1_555
H7 C12 1_555 1_555
C13 C8 1_555 1_555
H8 C13 1_555 1_555
C14 C15 1_555 1_555
C15 H9 1_555 1_555
C16 C15 1_555 1_555
H10 C16 1_555 1_555
C17 C16 1_555 1_555
C18 C17 1_555 1_555
H11 C18 1_555 1_555
C19 C14 1_555 1_555
H12 C19 1_555 1_555
C20 C17 1_555 1_555
C21 C22 1_555 1_555
C22 H13 1_555 1_555
C23 C22 1_555 1_555
H14 C23 1_555 1_555
C24 C23 1_555 1_555
C25 C24 1_555 1_555
H15 C25 1_555 1_555
C26 C21 1_555 1_555
H16 C26 1_555 1_555
C27 C24 1_555 1_555
C28 C29 1_555 1_555
C29 H17 1_555 1_555
C30 C29 1_555 1_555
H18 C30 1_555 1_555
C31 C30 1_555 1_555
C32 C31 1_555 1_555
H19 C32 1_555 1_555
C33 C28 1_555 1_555
H20 C33 1_555 1_555
C34 C31 1_555 1_555
C35 C36 1_555 1_555
C36 H21 1_555 1_555
C37 C36 1_555 1_555
H22 C37 1_555 1_555
C38 C37 1_555 1_555
C39 C38 1_555 1_555
H23 C39 1_555 1_555
C40 C35 1_555 1_555
H24 C40 1_555 1_555
C41 C38 1_555 1_555
O1 C1 1_555 1_555
O2 C7 1_555 1_555
O3 Cd2 1_555 1_555
O4 C8 1_555 1_555
O5 C14 1_555 1_555
O6 C20 1_555 1_555
O7 C20 1_555 1_555
O8 C21 1_555 1_555
O9 C27 1_555 1_555
O10 C27 1_555 1_555
O11 C28 1_555 1_555
O12 C34 1_555 1_555
O13 C34 1_555 1_555
O14 C35 1_555 1_555
O15 C41 1_555 1_555
O16 C41 1_555 1_555
P1 O1 1_555 1_555
P2 O5 1_555 1_555
P3 O11 1_555 1_555
N1 P1 1_555 1_555
N2 P2 1_555 1_555
N3 P1 1_555 1_555
O17 Cd1 1_555 1_555
O18 Cd1 1_555 1_555
O19 Cd2 1_555 1_555
O20 Cd2 1_555 1_555
O24 C42 1_555 1_555
O25 C42 1_555 1_555
C42 C11 1_555 1_555
Cd4 O6 1_555 1_555
O27 Cd4 1_555 1_555
O28 Cd4 1_555 1_555
Cd1_2 O9 1_555 1_555
Cd1C O15 1_555 1_555
Cd2_2 O9 1_555 1_555
Cd2C O12 1_555 1_555
O9_2 Cd1 1_555 1_555
O10_2 Cd1 1_555 1_555
O12C Cd2 1_555 1_555
O13C Cd2 1_555 1_555
O15C Cd1 1_555 1_555
O16C Cd1 1_555 1_555
O24B Cd4 1_555 1_555
O25B Cd4 1_555 1_555
Cd4B O24 1_555 1_555
Cd2 O9_2 1_555 1_555
C5 C6 1_555 1_555
C7 O3 1_555 1_555
C12 C13 1_555 1_555
C18 C19 1_555 1_555
C25 C26 1_555 1_555
C32 C33 1_555 1_555
C39 C40 1_555 1_555
O4 P1 1_555 1_555
O8 P2 1_555 1_555
O10 Cd1_2 1_555 1_555
O13 Cd2C 1_555 1_555
O14 P3 1_555 1_555
O16 Cd1C 1_555 1_555
P2 N1 1_555 1_555
P3 N2 1_555 1_555
P3 N3 1_555 1_555
O25 Cd4B 1_555 1_555

#END
