
#######################################################################
#
#                 Cambridge Crystallographic Data Centre
#                                CCDC 
#
#######################################################################
#
# If this CIF has been generated from an entry in the Cambridge 
# Structural Database, then it will include bibliographic, chemical, 
# crystal, experimental, refinement or atomic coordinate data resulting 
# from the CCDC's data processing and validation procedures.
#
#######################################################################

data_OHOLIH
_chemical_formula_moiety         '(C24 H12 O8 Zn2)n'
_symmetry_cell_setting           monoclinic
_symmetry_space_group_name_H-M   'C 2/c'
_symmetry_Int_Tables_number      15
_space_group_name_Hall           '-C 2yc'
loop_
_symmetry_equiv_pos_site_id
_symmetry_equiv_pos_as_xyz
1 x,y,z
2 -x,y,1/2-z
3 1/2+x,1/2+y,z
4 1/2-x,1/2+y,1/2-z
5 -x,-y,-z
6 x,-y,1/2+z
7 1/2-x,1/2-y,-z
8 1/2+x,1/2-y,1/2+z
_cell_length_a                   18.000(3)
_cell_length_b                   16.177(3)
_cell_length_c                   10.673(2)
_cell_angle_alpha                90
_cell_angle_beta                 109.770(3)
_cell_angle_gamma                90
_cell_volume                     2924.65
loop_
_atom_site_label
_atom_site_type_symbol
_atom_site_fract_x
_atom_site_fract_y
_atom_site_fract_z
Zn1 Zn 0.0000 0.11388(5) 0.7500
Zn2 Zn 0.0000 0.0000 1.0000
O1 O 0.0763(2) 0.0398(3) 0.8797(5)
O2 O 0.4334(3) -0.3124(3) 0.8122(6)
O3 O 0.4687(3) -0.3783(4) 1.0076(6)
O4 O 0.0924(2) -0.0175(3) 0.6993(5)
C1 C 0.1122(3) -0.0083(4) 0.8206(7)
C2 C 0.1839(3) -0.0524(4) 0.9113(6)
C3 C 0.2102(4) -0.0395(4) 1.0533(7)
H1 H 0.1847 -0.0001 1.0892
C4 C 0.2704(4) -0.0828(5) 1.1340(7)
H2 H 0.2861 -0.0741 1.2264
C5 C 0.3113(4) -0.1417(5) 1.0829(7)
C6 C 0.2892(3) -0.1528(4) 0.9449(6)
C7 C 0.2234(4) -0.1069(4) 0.8605(7)
H3 H 0.2073 -0.1146 0.7678
C8 C 0.3306(4) -0.2111(4) 0.8943(7)
H4 H 0.3169 -0.2178 0.8018
C9 C 0.4333(4) -0.3213(4) 0.9271(8)
C10 C 0.3894(4) -0.2574(4) 0.9770(7)
C11 C 0.4071(5) -0.2510(5) 1.1160(8)
H5 H 0.4443 -0.2872 1.1729
C12 C 0.3712(5) -0.1931(5) 1.1693(8)
H6 H 0.3859 -0.1872 1.2621
Zn1B Zn 0.5000 -0.38612(5) 0.7500
Zn1B_2 Zn -0.5000 -0.38612(5) 0.7500
Zn2B Zn 0.5000 -0.5000 1.0000
Zn2A Zn 0.0000 0.0000 0.5000
Zn2C Zn -0.5000 -0.5000 0.5000
O1A O -0.0763(2) 0.0398(3) 0.6203(5)
O1D O -0.0763(2) -0.0398(3) 1.1203(5)
O2A O -0.4334(3) -0.3124(3) 0.6878(6)
O2B O -0.0666(3) 0.1876(3) 0.8122(6)
O2C O 0.0666(3) 0.1876(3) 0.6878(6)
O3A O -0.4687(3) -0.3783(4) 0.4924(6)
O3B O -0.0313(3) 0.1217(4) 1.0076(6)
O3F O 0.0313(3) -0.1217(4) 0.9924(6)
O4A O -0.0924(2) -0.0175(3) 0.8007(5)
O4E O 0.0924(2) 0.0175(3) 1.1993(5)
C1A C -0.1122(3) -0.0083(4) 0.6794(7)
C2A C -0.1839(3) -0.0524(4) 0.5887(6)
C3A C -0.2102(4) -0.0395(4) 0.4467(7)
H1A H -0.1847 -0.0001 0.4108
C4A C -0.2704(4) -0.0828(5) 0.3660(7)
H2A H -0.2861 -0.0741 0.2736
C5A C -0.3113(4) -0.1417(5) 0.4171(7)
C6A C -0.2892(3) -0.1528(4) 0.5551(6)
C7A C -0.2234(4) -0.1069(4) 0.6395(7)
H3A H -0.2073 -0.1146 0.7322
C8A C -0.3306(4) -0.2111(4) 0.6057(7)
H4A H -0.3169 -0.2178 0.6982
C9A C -0.4333(4) -0.3213(4) 0.5729(8)
C10A C -0.3894(4) -0.2574(4) 0.5230(7)
C11A C -0.4071(5) -0.2510(5) 0.3840(8)
H5A H -0.4443 -0.2872 0.3271
C12A C -0.3712(5) -0.1931(5) 0.3307(8)
H6A H -0.3859 -0.1872 0.2379
loop_
_geom_bond_atom_site_label_1
_geom_bond_atom_site_label_2
_geom_bond_site_symmetry_1
_geom_bond_site_symmetry_2
Zn1 O1 1_555 1_555
Zn2 O1 1_555 1_555
O1 C1 1_555 1_555
O2 C9 1_555 1_555
O3 C9 1_555 1_555
O4 C1 1_555 1_555
C1 C2 1_555 1_555
C2 C3 1_555 1_555
C3 H1 1_555 1_555
C4 C3 1_555 1_555
H2 C4 1_555 1_555
C5 C4 1_555 1_555
C6 C5 1_555 1_555
C7 C2 1_555 1_555
H3 C7 1_555 1_555
C8 C6 1_555 1_555
H4 C8 1_555 1_555
C9 C10 1_555 1_555
C10 C8 1_555 1_555
C11 C10 1_555 1_555
H5 C11 1_555 1_555
C12 C5 1_555 1_555
H6 C12 1_555 1_555
Zn1B O2 1_555 1_555
Zn1B_2 O2A 1_555 1_555
Zn2B O3 1_555 1_555
Zn2A O4 1_555 1_555
Zn2C O3A 1_555 1_555
O1A Zn1 1_555 1_555
O1D Zn2 1_555 1_555
O2A C9A 1_555 1_555
O2B Zn1 1_555 1_555
O2C Zn1 1_555 1_555
O3A C9A 1_555 1_555
O3B Zn2 1_555 1_555
O3F Zn2 1_555 1_555
O4A Zn2 1_555 1_555
O4E Zn2 1_555 1_555
C1A O1A 1_555 1_555
C2A C1A 1_555 1_555
C3A C2A 1_555 1_555
H1A C3A 1_555 1_555
C4A C3A 1_555 1_555
H2A C4A 1_555 1_555
C5A C4A 1_555 1_555
C6A C5A 1_555 1_555
C7A C2A 1_555 1_555
H3A C7A 1_555 1_555
C8A C6A 1_555 1_555
H4A C8A 1_555 1_555
C9A C10A 1_555 1_555
C10A C8A 1_555 1_555
C11A C10A 1_555 1_555
H5A C11A 1_555 1_555
C12A C5A 1_555 1_555
H6A C12A 1_555 1_555
C6 C7 1_555 1_555
C11 C12 1_555 1_555
Zn2A O1A 1_555 1_555
O4A C1A 1_555 1_555
C6A C7A 1_555 1_555
C11A C12A 1_555 1_555

#END
