
#######################################################################
#
#                 Cambridge Crystallographic Data Centre
#                                CCDC 
#
#######################################################################
#
# If this CIF has been generated from an entry in the Cambridge 
# Structural Database, then it will include bibliographic, chemical, 
# crystal, experimental, refinement or atomic coordinate data resulting 
# from the CCDC's data processing and validation procedures.
#
#######################################################################

data_ASACON
_chemical_formula_moiety         '(C20 H18 O25 Zn5)n'
_symmetry_cell_setting           orthorhombic
_symmetry_space_group_name_H-M   'P n n a'
_symmetry_Int_Tables_number      52
_space_group_name_Hall           '-P 2a 2bc'
loop_
_symmetry_equiv_pos_site_id
_symmetry_equiv_pos_as_xyz
1 x,y,z
2 1/2-x,-y,z
3 x,1/2-y,1/2-z
4 1/2-x,1/2+y,1/2-z
5 -x,-y,-z
6 1/2+x,y,-z
7 -x,1/2+y,1/2+z
8 1/2+x,1/2-y,1/2+z
_cell_length_a                   15.987(2)
_cell_length_b                   12.056(3)
_cell_length_c                   15.383(3)
_cell_angle_alpha                90
_cell_angle_beta                 90
_cell_angle_gamma                90
_cell_volume                     2964.91
loop_
_atom_site_label
_atom_site_type_symbol
_atom_site_fract_x
_atom_site_fract_y
_atom_site_fract_z
Zn1 Zn 0.15894(9) 0.7500 0.2500
Zn2 Zn -0.2500 1.0000 0.81364(10)
Zn3 Zn 0.05233(7) 0.97494(9) 0.18676(7)
C1 C -0.0889(6) 0.9672(7) 0.4571(6)
H1 H -0.0875 1.0330 0.4257
C2 C -0.0468(5) 0.8736(7) 0.4250(6)
C3 C 0.0063(6) 0.8829(7) 0.3454(6)
C4 C -0.0488(5) 0.7731(6) 0.4733(6)
C5 C -0.1008(6) 0.7692(7) 0.5498(6)
C6 C -0.1112(6) 0.6576(7) 0.5938(6)
C7 C -0.1401(5) 0.8634(7) 0.5799(5)
C8 C -0.1937(6) 0.8661(7) 0.6595(5)
C9 C -0.1318(6) 0.9633(7) 0.5334(6)
H2 H -0.1560 1.0277 0.5552
C10 C 0.0024(6) 0.6745(7) 0.4476(6)
O1 O -0.0112(4) 0.9629(6) 0.2947(4)
O2 O 0.0610(4) 0.8135(6) 0.3329(4)
O3 O 0.0695(5) 0.6577(7) 0.4839(4)
O4 O -0.0280(4) 0.6128(5) 0.3880(5)
O5 O -0.0502(4) 0.6276(5) 0.6414(4)
O6 O -0.1763(4) 0.6051(5) 0.5824(4)
O7 O -0.2581(4) 0.8053(6) 0.6572(4)
O8 O -0.1734(4) 0.9302(6) 0.7197(4)
O9 O 0.1566(3) 0.6094(5) 0.3272(3)
Zn1E Zn -0.34106(9) 0.7500 0.7500
Zn1E_2 Zn 0.65894(9) 0.7500 0.7500
Zn2F Zn 0.2500 0.5000 0.31364(10)
Zn2D Zn 0.2500 1.0000 0.18636(10)
Zn3E Zn 0.55233(7) 0.97494(9) 0.81324(7)
Zn3B Zn 0.05233(7) 0.52506(9) 0.31324(7)
Zn3F Zn -0.05233(7) 0.47494(9) 0.68676(7)
Zn3G Zn 0.55233(7) 0.52506(9) 0.68676(7)
Zn3C Zn 0.44767(7) 0.47494(9) 0.31324(7)
C1E C 0.4111(6) 0.9672(7) 0.5429(6)
H1E H 0.4125 1.0330 0.5743
C2E C 0.4532(5) 0.8736(7) 0.5750(6)
C3E C 0.5063(6) 0.8829(7) 0.6546(6)
C4E C 0.4512(5) 0.7731(6) 0.5267(6)
C5E C 0.3992(6) 0.7692(7) 0.4502(6)
C6E C 0.3888(6) 0.6576(7) 0.4062(6)
C7E C 0.3599(5) 0.8634(7) 0.4201(5)
C8E C 0.3063(6) 0.8661(7) 0.3405(5)
C9E C 0.3682(6) 0.9633(7) 0.4666(6)
H2E H 0.3440 1.0277 0.4448
C10E C 0.5024(6) 0.6745(7) 0.5524(6)
O1E O 0.4888(4) 0.9629(6) 0.7053(4)
O2E O 0.5610(4) 0.8135(6) 0.6671(4)
O2B O 0.0610(4) 0.6865(6) 0.1671(4)
O3E O 0.5695(5) 0.6577(7) 0.5161(4)
O4E O 0.4720(4) 0.6128(5) 0.6120(5)
O4B O -0.0280(4) 0.8872(5) 0.1120(5)
O4G O 0.4720(4) 0.8872(5) 0.8880(5)
O5E O 0.4498(4) 0.6276(5) 0.3586(4)
O5F O 0.0502(4) 1.1276(5) 0.1414(4)
O5C O 0.5502(4) 1.1276(5) 0.8586(4)
O6E O 0.3237(4) 0.6051(5) 0.4176(4)
O7E O 0.2419(4) 0.8053(6) 0.3428(4)
O7G O 0.2419(4) 0.6947(6) 0.1572(4)
O8E O 0.3266(4) 0.9302(6) 0.2803(4)
O8A O -0.3266(4) 1.0698(6) 0.7197(4)
O9B O 0.1566(3) 0.8906(5) 0.1728(3)
O9F O -0.1566(3) 1.1094(5) 0.8272(3)
O9G O -0.3434(3) 0.8906(5) 0.8272(3)
O9G_2 O 0.6566(3) 0.8906(5) 0.8272(3)
Zn4 Zn 0.7500 0.5000 0.31555(17)
O11 O 0.6831(8) 0.3485(11) 0.3200(7)
O13 O 0.7500 0.5000 0.187(3)
O15 O 0.814(3) 0.451(3) 0.413(3)
O11A O 0.8169(8) 0.6515(11) 0.3200(7)
O15A O 0.686(3) 0.549(3) 0.413(3)
O10 O 0.428(6) 0.2500 0.7500
O17 O 0.2891(11) 0.2053(13) 0.5723(10)
loop_
_geom_bond_atom_site_label_1
_geom_bond_atom_site_label_2
_geom_bond_site_symmetry_1
_geom_bond_site_symmetry_2
Zn1 O2 1_555 1_555
Zn2 O8 1_555 1_555
Zn3 O1 1_555 1_555
Zn4 O11 1_555 1_555
C1 H1 1_555 1_555
C2 C1 1_555 1_555
C3 C2 1_555 1_555
C4 C2 1_555 1_555
C5 C4 1_555 1_555
C6 C5 1_555 1_555
C7 C5 1_555 1_555
C8 C7 1_555 1_555
C9 C1 1_555 1_555
H2 C9 1_555 1_555
C10 C4 1_555 1_555
O1 C3 1_555 1_555
O2 C3 1_555 1_555
O3 C10 1_555 1_555
O4 C10 1_555 1_555
O5 C6 1_555 1_555
O6 C6 1_555 1_555
O7 C8 1_555 1_555
O8 C8 1_555 1_555
O9 Zn1 1_555 1_555
O13 Zn4 1_555 1_555
O15 Zn4 1_555 1_555
Zn1E O7 1_555 1_555
Zn1E_2 O2E 1_555 1_555
Zn2F O9 1_555 1_555
Zn2D O8E 1_555 1_555
Zn3E O1E 1_555 1_555
Zn3B O4 1_555 1_555
Zn3F O5 1_555 1_555
Zn3G O4E 1_555 1_555
Zn3C O5E 1_555 1_555
C1E H1E 1_555 1_555
C2E C1E 1_555 1_555
C3E C2E 1_555 1_555
C4E C2E 1_555 1_555
C5E C4E 1_555 1_555
C6E C5E 1_555 1_555
C7E C5E 1_555 1_555
C8E C7E 1_555 1_555
C9E C1E 1_555 1_555
H2E C9E 1_555 1_555
C10E C4E 1_555 1_555
O1E C3E 1_555 1_555
O2E C3E 1_555 1_555
O2B Zn1 1_555 1_555
O3E C10E 1_555 1_555
O4E C10E 1_555 1_555
O4B Zn3 1_555 1_555
O4G Zn3E 1_555 1_555
O5E C6E 1_555 1_555
O5F Zn3 1_555 1_555
O5C Zn3E 1_555 1_555
O6E C6E 1_555 1_555
O7E Zn1 1_555 1_555
O7G Zn1 1_555 1_555
O8E C8E 1_555 1_555
O8A Zn2 1_555 1_555
O9B Zn1 1_555 1_555
O9F Zn2 1_555 1_555
O9G Zn2 1_555 1_555
O9G_2 Zn1E_2 1_555 1_555
O11A Zn4 1_555 1_555
O15A Zn4 1_555 1_555
Zn3 O9B 1_555 1_555
C7 C9 1_555 1_555
O9 Zn3B 1_555 1_555
Zn1E O9G 1_555 1_555
Zn2D O9B 1_555 1_555
Zn3E O9G_2 1_555 1_555
C7E C9E 1_555 1_555
C8E O7E 1_555 1_555

#END
