
#######################################################################
#
#                 Cambridge Crystallographic Data Centre
#                                CCDC 
#
#######################################################################
#
# If this CIF has been generated from an entry in the Cambridge 
# Structural Database, then it will include bibliographic, chemical, 
# crystal, experimental, refinement or atomic coordinate data resulting 
# from the CCDC's data processing and validation procedures.
#
#######################################################################

data_LIXWEV
_chemical_formula_moiety         'H24 Fe18 O67 P14'
_symmetry_cell_setting           trigonal
_symmetry_space_group_name_H-M   'P -3 c 1'
_symmetry_Int_Tables_number      165
_space_group_name_Hall           '-P 3 2"c'
loop_
_symmetry_equiv_pos_site_id
_symmetry_equiv_pos_as_xyz
1 x,y,z
2 -y,x-y,z
3 -x+y,-x,z
4 y,x,1/2-z
5 x-y,-y,1/2-z
6 -x,-x+y,1/2-z
7 -x,-y,-z
8 y,-x+y,-z
9 x-y,x,-z
10 -y,-x,1/2+z
11 -x+y,y,1/2+z
12 x,x-y,1/2+z
_cell_length_a                   13.4860(9)
_cell_length_b                   13.4860(9)
_cell_length_c                   18.310(2)
_cell_angle_alpha                90
_cell_angle_beta                 90
_cell_angle_gamma                120
_cell_volume                     2883.93
loop_
_atom_site_label
_atom_site_type_symbol
_atom_site_fract_x
_atom_site_fract_y
_atom_site_fract_z
Fe1 Fe 0.0000 0.0000 0.2500
Fe2 Fe 0.0000 0.0000 0.5000
Fe3 Fe 0.29352(5) 0.43733(5) 0.45609(4)
P1 P 0.3333 0.6667 0.36092(13)
P2 P 0.15791(8) 0.18893(8) 0.37080(6)
H1 H 0.2273 0.1952 0.3491
P3 P 0.50478(8) 0.63193(8) 0.55280(6)
H2 H 0.5031 0.6760 0.5949
O1 O 0.0659(3) 0.1405(2) 0.31224(16)
O2 O 0.1308(2) 0.1146(2) 0.43815(17)
O3 O 0.3281(3) 0.5556(3) 0.38063(19)
O4 O 0.3817(3) 0.5458(3) 0.5351(2)
O5 O 0.5739(3) 0.5763(3) 0.5759(2)
O6 O 0.5665(3) 0.7178(3) 0.4917(2)
O7 O 0.1848(3) 0.3107(3) 0.3890(2)
O8 O 0.2532(3) 0.3089(3) 0.5379(2)
H3 H 0.306(5) 0.277(4) 0.532(3)
H4 H 0.182(5) 0.240(5) 0.537(3)
Fe2C Fe 0.0000 0.0000 0.0000
Fe3A Fe -0.43733(5) -0.14381(7) 0.45609(4)
Fe3B Fe 0.14381(7) -0.29352(5) 0.45609(4)
Fe3C Fe 0.43733(5) 0.29352(5) 0.04391(4)
Fe3D Fe -0.14381(7) -0.43733(5) 0.04391(4)
Fe3E Fe -0.29352(5) 0.14381(7) 0.04391(4)
Fe3F Fe 0.70648(5) 0.56267(5) 0.54391(4)
Fe3A_2 Fe 0.56267(5) 0.85619(7) 0.45609(4)
Fe3B_2 Fe 0.14381(7) 0.70648(5) 0.45609(4)
Fe3G Fe 0.43733(5) 0.14381(7) 0.54391(4)
Fe3H Fe -0.14381(7) 0.29352(5) 0.54391(4)
Fe3B_3 Fe -0.85619(7) -0.29352(5) 0.45609(4)
Fe3_2 Fe -0.70648(5) -0.56267(5) 0.45609(4)
Fe3G_2 Fe -0.56267(5) 0.14381(7) 0.54391(4)
Fe3F_2 Fe -0.29352(5) -0.43733(5) 0.54391(4)
P1A P -0.6667 -0.3334 0.36092(13)
P2A P -0.18893(8) -0.03102(11) 0.37080(6)
P2B P 0.03102(11) -0.15791(8) 0.37080(6)
P2C P 0.18893(8) 0.15791(8) 0.12920(6)
P2D P -0.03102(11) -0.18893(8) 0.12920(6)
P2E P -0.15791(8) 0.03102(11) 0.12920(6)
H1A H -0.1952 0.0321 0.3491
H1B H -0.0321 -0.2273 0.3491
H1C H 0.1952 0.2273 0.1509
H1D H 0.0321 -0.1952 0.1509
H1E H -0.2273 -0.0321 0.1509
P3F P 0.49522(8) 0.36807(8) 0.44720(6)
P3B P 0.12715(11) 0.49522(8) 0.55280(6)
P3A P -0.63193(8) -0.12715(11) 0.55280(6)
P3G P -0.36807(8) 0.12715(11) 0.44720(6)
P3_2 P -0.49522(8) -0.36807(8) 0.55280(6)
H2F H 0.4969 0.3240 0.4051
H2B H 0.1729 0.4969 0.5949
H2A H -0.6760 -0.1729 0.5949
H2G H -0.3240 0.1729 0.4051
H2_2 H -0.4969 -0.3240 0.5949
O1A O -0.1405(2) -0.0746(4) 0.31224(16)
O1B O 0.0746(4) -0.0659(3) 0.31224(16)
O1C O 0.1405(2) 0.0659(3) 0.18776(16)
O1D O -0.0746(4) -0.1405(2) 0.18776(16)
O1E O -0.0659(3) 0.0746(4) 0.18776(16)
O2A O -0.1146(2) 0.0162(3) 0.43815(17)
O2B O -0.0162(3) -0.1308(2) 0.43815(17)
O2C O 0.1146(2) 0.1308(2) 0.06185(17)
O2D O 0.0162(3) -0.1146(2) 0.06185(17)
O2E O -0.1308(2) -0.0162(3) 0.06185(17)
O2F O -0.1308(2) -0.1146(2) 0.56185(17)
O2G O 0.1146(2) -0.0162(3) 0.56185(17)
O2H O 0.0162(3) 0.1308(2) 0.56185(17)
O3A O 0.4444(3) 0.7725(4) 0.38063(19)
O3B O 0.2275(4) 0.6719(3) 0.38063(19)
O3A_2 O -0.5556(3) -0.2275(4) 0.38063(19)
O3B_2 O -0.7725(4) -0.3281(3) 0.38063(19)
O3_2 O -0.6719(3) -0.4444(3) 0.38063(19)
O3B_3 O 0.2275(4) -0.3281(3) 0.38063(19)
O3C O 0.5556(3) 0.3281(3) 0.11937(19)
O3D O -0.2275(4) -0.5556(3) 0.11937(19)
O3E O -0.3281(3) 0.2275(4) 0.11937(19)
O4F O 0.6183(3) 0.4542(3) 0.4649(2)
O4B O 0.1641(4) 0.6183(3) 0.5351(2)
O4A O -0.5458(3) -0.1641(4) 0.5351(2)
O4G O -0.4542(3) 0.1641(4) 0.4649(2)
O4_2 O -0.6183(3) -0.4542(3) 0.5351(2)
O4B_2 O 0.1641(4) -0.3817(3) 0.5351(2)
O4C O 0.5458(3) 0.3817(3) -0.0351(2)
O4D O -0.1641(4) -0.5458(3) -0.0351(2)
O4E O -0.3817(3) 0.1641(4) -0.0351(2)
O5F O 0.4261(3) 0.4237(3) 0.4241(2)
O5B O 0.0024(4) 0.4261(3) 0.5759(2)
O5A O -0.5763(3) -0.0024(4) 0.5759(2)
O5G O -0.4237(3) 0.0024(4) 0.4241(2)
O5_2 O -0.4261(3) -0.4237(3) 0.5759(2)
O5H O -0.0024(4) -0.4261(3) 0.4241(2)
O5I O 0.4237(3) 0.4261(3) 0.0759(2)
O5J O 0.0024(4) -0.4237(3) 0.0759(2)
O5K O -0.4261(3) -0.0024(4) 0.0759(2)
O6F O 0.4335(3) 0.2822(3) 0.5083(2)
O6B O 0.1513(4) 0.4335(3) 0.4917(2)
O6A O -0.7178(3) -0.1513(4) 0.4917(2)
O6G O -0.2822(3) 0.1513(4) 0.5083(2)
O6_2 O -0.4335(3) -0.2822(3) 0.4917(2)
O6A_2 O 0.2822(3) -0.1513(4) 0.4917(2)
O6E O 0.4335(3) 0.1513(4) 0.0083(2)
O6C O -0.2822(3) -0.4335(3) 0.0083(2)
O6D O -0.1513(4) 0.2822(3) 0.0083(2)
O7A O -0.3107(3) -0.1259(4) 0.3890(2)
O7B O 0.1259(4) -0.1848(3) 0.3890(2)
O7C O 0.3107(3) 0.1848(3) 0.1110(2)
O7D O -0.1259(4) -0.3107(3) 0.1110(2)
O7E O -0.1848(3) 0.1259(4) 0.1110(2)
O8A O -0.3089(3) -0.0557(4) 0.5379(2)
O8B O 0.0557(4) -0.2532(3) 0.5379(2)
O8C O 0.3089(3) 0.2532(3) -0.0379(2)
O8D O -0.0557(4) -0.3089(3) -0.0379(2)
O8E O -0.2532(3) 0.0557(4) -0.0379(2)
H3A H -0.277(4) 0.029(6) 0.532(3)
H3B H -0.029(6) -0.306(5) 0.532(3)
H3C H 0.277(4) 0.306(5) -0.032(3)
H3D H 0.029(6) -0.277(4) -0.032(3)
H3E H -0.306(5) -0.029(6) -0.032(3)
H4A H -0.240(5) -0.058(7) 0.537(3)
H4B H 0.058(7) -0.182(5) 0.537(3)
H4C H 0.240(5) 0.182(5) -0.037(3)
H4D H -0.058(7) -0.240(5) -0.037(3)
H4E H -0.182(5) 0.058(7) -0.037(3)
loop_
_geom_bond_atom_site_label_1
_geom_bond_atom_site_label_2
_geom_bond_site_symmetry_1
_geom_bond_site_symmetry_2
Fe1 O1 1_555 1_555
Fe2 O2 1_555 1_555
Fe3 O3 1_555 1_555
P1 O3 1_555 1_555
P2 H1 1_555 1_555
P3 H2 1_555 1_555
O1 P2 1_555 1_555
O2 P2 1_555 1_555
O4 Fe3 1_555 1_555
O5 P3 1_555 1_555
O6 P3 1_555 1_555
O7 Fe3 1_555 1_555
O8 Fe3 1_555 1_555
H3 O8 1_555 1_555
H4 O8 1_555 1_555
Fe2C O2C 1_555 1_555
Fe3A O3A_2 1_555 1_555
Fe3B O3B_3 1_555 1_555
Fe3C O3C 1_555 1_555
Fe3D O3D 1_555 1_555
Fe3E O3E 1_555 1_555
Fe3F O5 1_555 1_555
Fe3A_2 O6 1_555 1_555
Fe3B_2 O3B 1_555 1_555
Fe3G O6F 1_555 1_555
Fe3H O5B 1_555 1_555
Fe3B_3 O3B_2 1_555 1_555
Fe3_2 O3_2 1_555 1_555
Fe3G_2 O4G 1_555 1_555
Fe3F_2 O5_2 1_555 1_555
P1A O3A_2 1_555 1_555
P2A H1A 1_555 1_555
P2B H1B 1_555 1_555
P2C H1C 1_555 1_555
P2D H1D 1_555 1_555
P2E H1E 1_555 1_555
P3F H2F 1_555 1_555
P3B H2B 1_555 1_555
P3A H2A 1_555 1_555
P3G H2G 1_555 1_555
P3_2 H2_2 1_555 1_555
O1A Fe1 1_555 1_555
O1B Fe1 1_555 1_555
O1C Fe1 1_555 1_555
O1D Fe1 1_555 1_555
O1E Fe1 1_555 1_555
O2A Fe2 1_555 1_555
O2B Fe2 1_555 1_555
O2C P2C 1_555 1_555
O2D Fe2C 1_555 1_555
O2E Fe2C 1_555 1_555
O2F Fe2 1_555 1_555
O2G Fe2 1_555 1_555
O2H Fe2 1_555 1_555
O3A P1 1_555 1_555
O3B P1 1_555 1_555
O3B_2 P1A 1_555 1_555
O3_2 P1A 1_555 1_555
O4F Fe3F 1_555 1_555
O4B Fe3B_2 1_555 1_555
O4A Fe3A 1_555 1_555
O4G P3G 1_555 1_555
O4_2 Fe3_2 1_555 1_555
O4B_2 Fe3B 1_555 1_555
O4C Fe3C 1_555 1_555
O4D Fe3D 1_555 1_555
O4E Fe3E 1_555 1_555
O5F Fe3 1_555 1_555
O5B P3B 1_555 1_555
O5A Fe3G_2 1_555 1_555
O5G Fe3A 1_555 1_555
O5_2 P3_2 1_555 1_555
O5H Fe3B 1_555 1_555
O5I Fe3C 1_555 1_555
O5J Fe3D 1_555 1_555
O5K Fe3E 1_555 1_555
O6F P3F 1_555 1_555
O6B Fe3 1_555 1_555
O6A Fe3B_3 1_555 1_555
O6G Fe3H 1_555 1_555
O6_2 Fe3A 1_555 1_555
O6A_2 Fe3B 1_555 1_555
O6E Fe3C 1_555 1_555
O6C Fe3D 1_555 1_555
O6D Fe3E 1_555 1_555
O7A Fe3A 1_555 1_555
O7B Fe3B 1_555 1_555
O7C Fe3C 1_555 1_555
O7D Fe3D 1_555 1_555
O7E Fe3E 1_555 1_555
O8A Fe3A 1_555 1_555
O8B Fe3B 1_555 1_555
O8C Fe3C 1_555 1_555
O8D Fe3D 1_555 1_555
O8E Fe3E 1_555 1_555
H3A O8A 1_555 1_555
H3B O8B 1_555 1_555
H3C O8C 1_555 1_555
H3D O8D 1_555 1_555
H3E O8E 1_555 1_555
H4A O8A 1_555 1_555
H4B O8B 1_555 1_555
H4C O8C 1_555 1_555
H4D O8D 1_555 1_555
H4E O8E 1_555 1_555
P2 O7 1_555 1_555
P3 O4 1_555 1_555
Fe3A_2 O3A 1_555 1_555
P2A O1A 1_555 1_555
P2A O2A 1_555 1_555
P2A O7A 1_555 1_555
P2B O1B 1_555 1_555
P2B O2B 1_555 1_555
P2B O7B 1_555 1_555
P2C O1C 1_555 1_555
P2C O7C 1_555 1_555
P2D O1D 1_555 1_555
P2D O2D 1_555 1_555
P2D O7D 1_555 1_555
P2E O1E 1_555 1_555
P2E O2E 1_555 1_555
P2E O7E 1_555 1_555
P3F O4F 1_555 1_555
P3F O5F 1_555 1_555
P3B O4B 1_555 1_555
P3B O6B 1_555 1_555
P3A O4A 1_555 1_555
P3A O5A 1_555 1_555
P3A O6A 1_555 1_555
P3G O5G 1_555 1_555
P3G O6G 1_555 1_555
P3_2 O4_2 1_555 1_555
P3_2 O6_2 1_555 1_555

#END
