
#######################################################################
#
#                 Cambridge Crystallographic Data Centre
#                                CCDC 
#
#######################################################################
#
# If this CIF has been generated from an entry in the Cambridge 
# Structural Database, then it will include bibliographic, chemical, 
# crystal, experimental, refinement or atomic coordinate data resulting 
# from the CCDC's data processing and validation procedures.
#
#######################################################################

data_BOLPAU
_chemical_formula_moiety         '(C56 H46 O23 Si2 Zn4)n'
_symmetry_cell_setting           orthorhombic
_symmetry_space_group_name_H-M   'P c c n'
_symmetry_Int_Tables_number      56
_space_group_name_Hall           '-P 2ab 2ac'
loop_
_symmetry_equiv_pos_site_id
_symmetry_equiv_pos_as_xyz
1 x,y,z
2 1/2-x,1/2-y,z
3 -x,1/2+y,1/2-z
4 1/2+x,-y,1/2-z
5 -x,-y,-z
6 1/2+x,1/2+y,-z
7 x,1/2-y,1/2+z
8 1/2-x,y,1/2+z
_cell_length_a                   29.6302(2)
_cell_length_b                   22.57558(13)
_cell_length_c                   28.20796(12)
_cell_angle_alpha                90
_cell_angle_beta                 90
_cell_angle_gamma                90
_cell_volume                     18868.8
loop_
_atom_site_label
_atom_site_type_symbol
_atom_site_fract_x
_atom_site_fract_y
_atom_site_fract_z
O31 O 0.6299(5) 0.1632(7) 0.5783(6)
O32 O 0.7034(9) 0.2182(11) 0.6126(9)
Zn1 Zn 0.873597(18) 0.64286(2) 0.341980(18)
Zn2 Zn 0.875052(18) 0.57865(3) 0.226933(19)
Zn3 Zn 0.628110(17) 0.14586(2) 0.13872(2)
Zn4 Zn 0.54133(4) 0.23899(5) 0.09998(4)
Si1 Si 0.62235(4) 0.43819(5) 0.33996(4)
C1 C 0.67675(14) 0.47767(17) 0.32872(13)
C2 C 0.69527(17) 0.5178(3) 0.36145(18)
H1 H 0.6799 0.5250 0.3905
C3 C 0.73505(18) 0.5468(3) 0.35240(19)
H2 H 0.7463 0.5748 0.3746
C4 C 0.75891(16) 0.5356(2) 0.31124(18)
C5 C 0.74049(18) 0.4980(2) 0.27847(16)
H3 H 0.7554 0.4918 0.2490
C6 C 0.70071(16) 0.4693(2) 0.28781(14)
H4 H 0.6893 0.4423 0.2649
C7 C 0.80311(18) 0.5649(2) 0.3023(2)
O1 O 0.81858(13) 0.59604(19) 0.33446(14)
O2 O 0.82128(14) 0.55618(18) 0.26305(16)
C8 C 0.61662(17) 0.3790(2) 0.29471(18)
C9 C 0.5988(3) 0.3952(2) 0.2510(2)
H5 H 0.5879 0.4343 0.2462
C10 C 0.5969(3) 0.3541(3) 0.21434(17)
H6 H 0.5847 0.3652 0.1845
C11 C 0.6128(2) 0.2969(3) 0.22136(17)
C12 C 0.6307(3) 0.2807(2) 0.2650(2)
H7 H 0.6416 0.2416 0.2698
C13 C 0.6326(2) 0.3217(3) 0.30172(17)
H8 H 0.6448 0.3107 0.3316
C14 C 0.6098(2) 0.2540(4) 0.1810(2)
O3 O 0.5900(2) 0.2703(3) 0.14352(17)
O4 O 0.62970(17) 0.2054(3) 0.1870(2)
C22 C 0.62073(16) 0.40395(19) 0.40041(11)
C23 C 0.58094(15) 0.3750(3) 0.41247(16)
H13 H 0.5572 0.3720 0.3900
C24 C 0.57596(17) 0.3505(3) 0.45737(18)
H14 H 0.5488 0.3308 0.4656
C25 C 0.61077(18) 0.3549(3) 0.49021(13)
C26 C 0.65056(15) 0.3839(3) 0.47816(14)
H15 H 0.6743 0.3869 0.5006
C27 C 0.65554(14) 0.4084(2) 0.43326(15)
H16 H 0.6827 0.4281 0.4250
C28 C 0.6052(3) 0.3291(3) 0.5389(2)
O7 O 0.5664(2) 0.3086(4) 0.5482(2)
O8 O 0.6348(3) 0.3413(4) 0.5693(2)
C36 C 0.57411(14) 0.49274(18) 0.33727(12)
C37 C 0.52993(16) 0.4728(2) 0.33974(17)
H21 H 0.5240 0.4315 0.3389
C38 C 0.49488(16) 0.5116(2) 0.34339(17)
H22 H 0.4650 0.4967 0.3460
C39 C 0.50174(16) 0.5725(2) 0.34340(15)
C40 C 0.54575(16) 0.59208(19) 0.33911(18)
H23 H 0.5517 0.6334 0.3386
C41 C 0.58125(15) 0.5524(2) 0.33554(16)
H24 H 0.6111 0.5670 0.3318
C42 C 0.46399(16) 0.6142(2) 0.35010(18)
O11 O 0.42441(12) 0.59425(16) 0.35046(14)
O12 O 0.47243(13) 0.66778(18) 0.35413(19)
Si2 Si 0.87785(3) 0.93824(5) 0.14229(3)
C43 C 0.87075(12) 0.87082(18) 0.18059(13)
C44 C 0.87767(14) 0.8145(2) 0.16256(15)
H25 H 0.8827 0.8103 0.1295
C45 C 0.87759(14) 0.7644(2) 0.19028(16)
H26 H 0.8828 0.7265 0.1767
C46 C 0.86974(12) 0.77049(19) 0.23836(15)
C47 C 0.86123(15) 0.8259(2) 0.25664(14)
H27 H 0.8550 0.8302 0.2895
C48 C 0.86157(16) 0.8740(2) 0.22838(14)
H28 H 0.8552 0.9116 0.2420
C49 C 0.87034(13) 0.7154(2) 0.26813(18)
O13 O 0.87402(12) 0.66730(17) 0.24846(16)
O14 O 0.86900(10) 0.72191(15) 0.31297(12)
C50 C 0.82842(13) 0.98813(18) 0.14740(12)
C51 C 0.78462(15) 0.96693(19) 0.14844(16)
H29 H 0.7796 0.9254 0.1492
C52 C 0.74734(15) 1.0054(2) 0.14840(16)
H30 H 0.7176 0.9897 0.1491
C53 C 0.75369(14) 1.06508(17) 0.14742(13)
C54 C 0.79638(16) 1.08722(19) 0.14855(17)
H31 H 0.8008 1.1289 0.1493
C55 C 0.83335(15) 1.05010(19) 0.14865(16)
H32 H 0.8628 1.0667 0.1496
C56 C 0.71370(15) 1.1082(2) 0.14406(14)
O15 O 0.67486(11) 1.08501(14) 0.15068(11)
O16 O 0.71911(12) 1.15997(14) 0.13491(14)
C57 C 0.93078(13) 0.97798(17) 0.15966(12)
C58 C 0.95461(14) 0.96301(17) 0.20124(13)
H33 H 0.9433 0.9327 0.2213
C59 C 0.99401(14) 0.99156(19) 0.21315(14)
H34 H 1.0096 0.9811 0.2413
C60 C 1.01071(14) 1.03537(18) 0.18409(14)
C61 C 0.98838(14) 1.05086(19) 0.14306(14)
H35 H 1.0001 1.0808 0.1229
C62 C 0.94883(15) 1.02216(19) 0.13182(14)
H36 H 0.9333 1.0333 0.1037
C63 C 1.05401(15) 1.06531(19) 0.19751(15)
O17 O 1.06963(11) 1.05681(16) 0.23801(11)
O18 O 1.07087(12) 1.09857(17) 0.16601(12)
C64 C 0.88541(16) 0.9132(2) 0.07923(14)
C65 C 0.92781(18) 0.8944(2) 0.06318(17)
H37 H 0.9531 0.8966 0.0839
C66 C 0.9335(2) 0.8727(3) 0.01829(18)
H38 H 0.9625 0.8597 0.0086
C67 C 0.8996(2) 0.8696(3) -0.01167(17)
C68 C 0.8573(2) 0.8891(3) 0.00111(19)
H39 H 0.8331 0.8876 -0.0209
C69 C 0.8504(2) 0.9111(3) 0.04727(16)
H40 H 0.8213 0.9247 0.0564
C70 C 0.9042(4) 0.8468(3) -0.0628(2)
O19 O 0.9452(3) 0.8316(3) -0.07390(16)
O20 O 0.87107(19) 0.8502(2) -0.08926(14)
O21 O 0.8233(3) 0.6092(3) 0.1786(3)
O22 O 0.9202(2) 0.6082(3) 0.1705(2)
O23 O 0.8750(2) 0.4869(3) 0.2079(3)
O26 O 0.5442(3) 0.3201(5) 0.0606(3)
O27 O 0.4864(4) 0.2725(5) 0.1339(4)
Zn1B Zn 1.126403(18) 1.14286(2) 0.158020(18)
Zn1F Zn 0.873597(18) 0.85714(2) -0.158020(18)
Zn2B Zn 1.124948(18) 1.07865(3) 0.273067(19)
Zn3F Zn 0.628110(17) 0.35414(2) 0.63872(2)
Zn3B Zn 0.371890(17) 0.64586(2) 0.36128(2)
Zn3_2 Zn 0.628110(17) 1.14586(2) 0.13872(2)
Zn4F Zn 0.54133(4) 0.26101(5) 0.59998(4)
Zn4B Zn 0.45867(4) 0.73899(5) 0.40002(4)
O7F O 0.5664(2) 0.1914(4) 0.0482(2)
O8F O 0.6348(3) 0.1587(4) 0.0693(2)
O11B O 0.57559(12) 0.09425(16) 0.14954(14)
O12B O 0.52757(13) 0.16778(18) 0.14587(19)
O15_2 O 0.67486(11) 0.08501(14) 0.15068(11)
O17B O 0.93037(11) 0.55681(16) 0.26199(11)
O18B O 0.92913(12) 0.59857(17) 0.33399(12)
O20F O 0.87107(19) 0.6498(2) 0.41074(14)
loop_
_geom_bond_atom_site_label_1
_geom_bond_atom_site_label_2
_geom_bond_site_symmetry_1
_geom_bond_site_symmetry_2
Zn1 O1 1_555 1_555
Zn2 O2 1_555 1_555
Zn3 O4 1_555 1_555
Zn4 O3 1_555 1_555
Si1 C1 1_555 1_555
C1 C2 1_555 1_555
C2 H1 1_555 1_555
C3 C2 1_555 1_555
H2 C3 1_555 1_555
C4 C3 1_555 1_555
C5 C4 1_555 1_555
H3 C5 1_555 1_555
C6 C1 1_555 1_555
H4 C6 1_555 1_555
C7 C4 1_555 1_555
O1 C7 1_555 1_555
O2 C7 1_555 1_555
C8 Si1 1_555 1_555
C9 C8 1_555 1_555
H5 C9 1_555 1_555
C10 C9 1_555 1_555
H6 C10 1_555 1_555
C11 C10 1_555 1_555
C12 C11 1_555 1_555
H7 C12 1_555 1_555
C13 C8 1_555 1_555
H8 C13 1_555 1_555
C14 C11 1_555 1_555
O3 C14 1_555 1_555
O4 C14 1_555 1_555
C22 Si1 1_555 1_555
C23 C22 1_555 1_555
H13 C23 1_555 1_555
C24 C23 1_555 1_555
H14 C24 1_555 1_555
C25 C24 1_555 1_555
C26 C25 1_555 1_555
H15 C26 1_555 1_555
C27 C22 1_555 1_555
H16 C27 1_555 1_555
C28 C25 1_555 1_555
O7 C28 1_555 1_555
O8 C28 1_555 1_555
C36 Si1 1_555 1_555
C37 C36 1_555 1_555
H21 C37 1_555 1_555
C38 C37 1_555 1_555
H22 C38 1_555 1_555
C39 C38 1_555 1_555
C40 C39 1_555 1_555
H23 C40 1_555 1_555
C41 C36 1_555 1_555
H24 C41 1_555 1_555
C42 C39 1_555 1_555
O11 C42 1_555 1_555
O12 C42 1_555 1_555
Si2 C43 1_555 1_555
C43 C44 1_555 1_555
C44 H25 1_555 1_555
C45 C44 1_555 1_555
H26 C45 1_555 1_555
C46 C45 1_555 1_555
C47 C46 1_555 1_555
H27 C47 1_555 1_555
C48 C43 1_555 1_555
H28 C48 1_555 1_555
C49 C46 1_555 1_555
O13 Zn2 1_555 1_555
O14 Zn1 1_555 1_555
C50 Si2 1_555 1_555
C51 C50 1_555 1_555
H29 C51 1_555 1_555
C52 C51 1_555 1_555
H30 C52 1_555 1_555
C53 C52 1_555 1_555
C54 C53 1_555 1_555
H31 C54 1_555 1_555
C55 C50 1_555 1_555
H32 C55 1_555 1_555
C56 C53 1_555 1_555
O15 C56 1_555 1_555
O16 C56 1_555 1_555
C57 Si2 1_555 1_555
C58 C57 1_555 1_555
H33 C58 1_555 1_555
C59 C58 1_555 1_555
H34 C59 1_555 1_555
C60 C59 1_555 1_555
C61 C60 1_555 1_555
H35 C61 1_555 1_555
C62 C57 1_555 1_555
H36 C62 1_555 1_555
C63 C60 1_555 1_555
O17 C63 1_555 1_555
O18 C63 1_555 1_555
C64 Si2 1_555 1_555
C65 C64 1_555 1_555
H37 C65 1_555 1_555
C66 C65 1_555 1_555
H38 C66 1_555 1_555
C67 C66 1_555 1_555
C68 C67 1_555 1_555
H39 C68 1_555 1_555
C69 C64 1_555 1_555
H40 C69 1_555 1_555
C70 C67 1_555 1_555
O19 C70 1_555 1_555
O20 C70 1_555 1_555
O21 Zn2 1_555 1_555
O22 Zn2 1_555 1_555
O23 Zn2 1_555 1_555
O26 Zn4 1_555 1_555
O27 Zn4 1_555 1_555
Zn1B O18 1_555 1_555
Zn1F O20 1_555 1_555
Zn2B O17 1_555 1_555
Zn3F O8 1_555 1_555
Zn3B O11 1_555 1_555
Zn3_2 O15 1_555 1_555
Zn4F O7 1_555 1_555
Zn4B O12 1_555 1_555
O7F Zn4 1_555 1_555
O8F Zn3 1_555 1_555
O11B Zn3 1_555 1_555
O12B Zn4 1_555 1_555
O15_2 Zn3 1_555 1_555
O17B Zn2 1_555 1_555
O18B Zn1 1_555 1_555
O20F Zn1 1_555 1_555
C5 C6 1_555 1_555
C12 C13 1_555 1_555
C26 C27 1_555 1_555
C40 C41 1_555 1_555
C47 C48 1_555 1_555
C49 O13 1_555 1_555
C49 O14 1_555 1_555
C54 C55 1_555 1_555
C61 C62 1_555 1_555
C68 C69 1_555 1_555

#END
