
#######################################################################
#
#                 Cambridge Crystallographic Data Centre
#                                CCDC 
#
#######################################################################
#
# If this CIF has been generated from an entry in the Cambridge 
# Structural Database, then it will include bibliographic, chemical, 
# crystal, experimental, refinement or atomic coordinate data resulting 
# from the CCDC's data processing and validation procedures.
#
#######################################################################

data_XAJMON
_chemical_formula_moiety         'C124 H12 N6 O72 Zn17'
_symmetry_cell_setting           rhombohedral
_symmetry_space_group_name_H-M   'R -3 m'
_symmetry_Int_Tables_number      166
_space_group_name_Hall           '-R 3 2"'
loop_
_symmetry_equiv_pos_site_id
_symmetry_equiv_pos_as_xyz
1 x,y,z
2 -y,x-y,z
3 -x+y,-x,z
4 y,x,-z
5 -x,-x+y,-z
6 x-y,-y,-z
7 2/3+x,1/3+y,1/3+z
8 2/3-y,1/3+x-y,1/3+z
9 2/3-x+y,1/3-x,1/3+z
10 2/3+y,1/3+x,1/3-z
11 2/3-x,1/3-x+y,1/3-z
12 2/3+x-y,1/3-y,1/3-z
13 1/3+x,2/3+y,2/3+z
14 1/3-y,2/3+x-y,2/3+z
15 1/3-x+y,2/3-x,2/3+z
16 1/3+y,2/3+x,2/3-z
17 1/3-x,2/3-x+y,2/3-z
18 1/3+x-y,2/3-y,2/3-z
19 -x,-y,-z
20 y,-x+y,-z
21 x-y,x,-z
22 -y,-x,z
23 x,x-y,z
24 -x+y,y,z
25 1/3-x,2/3-y,2/3-z
26 1/3+y,2/3-x+y,2/3-z
27 1/3+x-y,2/3+x,2/3-z
28 1/3-y,2/3-x,2/3+z
29 1/3+x,2/3+x-y,2/3+z
30 1/3-x+y,2/3+y,2/3+z
31 2/3-x,1/3-y,1/3-z
32 2/3+y,1/3-x+y,1/3-z
33 2/3+x-y,1/3+x,1/3-z
34 2/3-y,1/3-x,1/3+z
35 2/3+x,1/3+x-y,1/3+z
36 2/3-x+y,1/3+y,1/3+z
_cell_length_a                   17.784(4)
_cell_length_b                   17.784(4)
_cell_length_c                   53.140(5)
_cell_angle_alpha                90
_cell_angle_beta                 90
_cell_angle_gamma                120
_cell_volume                     14555
loop_
_atom_site_label
_atom_site_type_symbol
_atom_site_fract_x
_atom_site_fract_y
_atom_site_fract_z
Zn1 Zn 0.6667 0.3333 0.3333
Zn2 Zn 0.6667 0.3333 0.39947(5)
Zn3 Zn 1.0000 1.0000 0.31763(6)
O1 O 0.9397(4) 0.8793(7) 0.3239(2)
O2 O 0.7295(3) 0.4589(7) 0.3919(2)
N1 N 1.0000 1.0000 0.1049(3)
O3 O 0.7565(9) 0.4366(9) 0.3547(3)
C1 C 0.758(2) 0.4873(15) 0.3695(4)
C2 C 0.8783(6) 0.7567(11) 0.3506(3)
C3 C 0.8678(6) 0.7356(11) 0.3758(3)
H1 H 0.8896 0.7792 0.3879
C4 C 0.8247(6) 0.6494(12) 0.3831(3)
C5 C 0.7922(6) 0.5845(11) 0.3662(3)
C6 C 0.8016(5) 0.6032(11) 0.3405(3)
H2 H 0.7795 0.5589 0.3286
O4 O 0.9111(9) 0.9015(10) 0.3615(3)
C7 C 0.912(2) 0.8512(16) 0.3436(5)
C8 C 0.8446(6) 0.6892(13) 0.3333(3)
C9 C 1.0364(4) 0.9636(4) 0.1191(3)
C10 C 1.0000 1.0000 0.1588(4)
C11 C 1.0366(5) 0.9634(5) 0.1446(3)
C12 C 0.9635(4) 1.0365(4) 0.1191(3)
C13 C 0.9638(4) 1.0362(4) 0.1447(3)
C14 C 1.038(2) 1.0191(10) 0.1828(4)
C15 C 1.0000 1.0000 0.2281(3)
C16 C 0.9763(19) 0.9881(10) 0.2018(3)
O5 O 1.0165(11) 0.9180(12) 0.4115(5)
N2 N 1.0000 1.0000 0.2810(3)
C17 C 1.0756(6) 1.0378(3) 0.2415(3)
C18 C 1.0741(6) 1.0371(3) 0.2673(3)
C19 C 0.9260(6) 0.9630(3) 0.2675(3)
C20 C 0.9244(6) 0.9622(3) 0.2419(3)
Zn4 Zn 1.0000 1.0000 0.38364(7)
O6 O 0.8115(4) 0.6231(9) 0.4082(3)
O7 O 0.8570(5) 0.7140(10) 0.3076(3)
O3W O 0.6801(13) 0.4366(9) 0.3547(3)
C1W C 0.7293(25) 0.4873(15) 0.3695(4)
O4W O 0.9904(13) 0.9015(10) 0.3615(3)
C7W C 0.9392(26) 0.8512(16) 0.3436(5)
C9A C 1.0364(4) 1.0728(6) 0.1191(3)
C11A C 1.0366(5) 1.0732(7) 0.1446(3)
C12A C 0.9635(4) 0.9270(6) 0.1191(3)
C13A C 0.9638(4) 0.9276(6) 0.1447(3)
C14A C 0.9809(10) 1.0189(22) 0.1828(4)
C16A C 1.0119(10) 0.9882(21) 0.2018(3)
C17A C 0.9622(3) 1.0378(7) 0.2415(3)
C18A C 0.9629(3) 1.0370(7) 0.2673(3)
C19A C 1.0370(3) 0.9630(7) 0.2675(3)
C20A C 1.0378(3) 0.9622(7) 0.2419(3)
C9B C 0.9272(6) 0.9636(4) 0.1191(3)
C11B C 0.9268(7) 0.9634(5) 0.1446(3)
C12B C 1.0730(6) 1.0365(4) 0.1191(3)
C13B C 1.0724(6) 1.0362(4) 0.1447(3)
C14B C 0.9811(22) 0.962(2) 0.1828(4)
C16B C 1.0118(21) 1.0237(19) 0.2018(3)
C17B C 0.9622(7) 0.9244(6) 0.2415(3)
C18B C 0.9630(7) 0.9259(6) 0.2673(3)
C19B C 1.0370(7) 1.0740(6) 0.2675(3)
C20B C 1.0378(7) 1.0756(6) 0.2419(3)
O5U O 1.0820(12) 0.9835(11) 0.4115(5)
Zn3_2 Zn 0.0000 0.0000 0.31763(6)
O1A O 0.1207(7) 0.0604(8) 0.3239(2)
O2A O 0.5411(7) 0.2706(8) 0.3919(2)
N1_2 N 0.0000 -0.0000 0.1049(3)
O3A O 0.5634(9) 0.3199(13) 0.3547(3)
C1A C 0.5127(15) 0.2707(25) 0.3695(4)
C2A C 0.2433(11) 0.1216(13) 0.3506(3)
C3A C 0.2644(11) 0.1322(13) 0.3758(3)
H1A H 0.2208 0.1104 0.3879
C4A C 0.3506(12) 0.1753(13) 0.3831(3)
C5A C 0.4155(11) 0.2077(13) 0.3662(3)
C6A C 0.3968(11) 0.1984(12) 0.3405(3)
H2A H 0.4411 0.2206 0.3286
O4A O 0.0985(10) 0.0096(13) 0.3615(3)
C7A C 0.1488(16) 0.0608(26) 0.3436(5)
C8A C 0.3108(13) 0.1554(14) 0.3333(3)
C9A_2 C 0.0364(4) 0.0728(6) 0.1191(3)
C10_2 C 0.0000 0.0000 0.1588(4)
C11A_2 C 0.0366(5) 0.0732(7) 0.1446(3)
C12A_2 C -0.0365(4) -0.0730(6) 0.1191(3)
C13A_2 C -0.0362(4) -0.0724(6) 0.1447(3)
C14A_2 C -0.0191(10) 0.0189(22) 0.1828(4)
C15_2 C 0.0000 0.0000 0.2281(3)
C16A_2 C 0.0119(10) -0.0118(21) 0.2018(3)
N2_2 N 0.0000 0.0000 0.2810(3)
C17A_2 C -0.0378(3) 0.0378(7) 0.2415(3)
C18A_2 C -0.0371(3) 0.0370(7) 0.2673(3)
C19A_2 C 0.0370(3) -0.0370(7) 0.2675(3)
C20A_2 C 0.0378(3) -0.0378(7) 0.2419(3)
Zn4_2 Zn -0.0000 -0.0000 0.38364(7)
O6A O 0.3769(9) 0.1884(10) 0.4082(3)
O7A O 0.2860(10) 0.1430(11) 0.3076(3)
O3U O 0.5634(9) 0.2435(9) 0.3547(3)
C1U C 0.5127(15) 0.242(2) 0.3695(4)
O4U O 0.0985(10) 0.0889(9) 0.3615(3)
C7U C 0.1488(16) 0.088(2) 0.3436(5)
C9B_2 C -0.0728(6) -0.0364(4) 0.1191(3)
C11B_2 C -0.0732(7) -0.0366(5) 0.1446(3)
C12B_2 C 0.0730(6) 0.0365(4) 0.1191(3)
C13B_2 C 0.0724(6) 0.0362(4) 0.1447(3)
C14B_2 C -0.0189(22) -0.038(2) 0.1828(4)
C16B_2 C 0.0118(21) 0.0237(19) 0.2018(3)
C17B_2 C -0.0378(7) -0.0756(6) 0.2415(3)
C18B_2 C -0.0370(7) -0.0741(6) 0.2673(3)
C19B_2 C 0.0370(7) 0.0740(6) 0.2675(3)
C20B_2 C 0.0378(7) 0.0756(6) 0.2419(3)
C9_2 C 0.0364(4) -0.0364(4) 0.1191(3)
C11_2 C 0.0366(5) -0.0366(5) 0.1446(3)
C12_2 C -0.0365(4) 0.0365(4) 0.1191(3)
C13_2 C -0.0362(4) 0.0362(4) 0.1447(3)
C14_2 C 0.038(2) 0.0191(10) 0.1828(4)
C16_2 C -0.0237(19) -0.0119(10) 0.2018(3)
C17_2 C 0.0756(6) 0.0378(3) 0.2415(3)
C18_2 C 0.0741(6) 0.0371(3) 0.2673(3)
C19_2 C -0.0740(6) -0.0370(3) 0.2675(3)
C20_2 C -0.0756(6) -0.0378(3) 0.2419(3)
O1B O 0.9396(8) 0.0603(4) 0.3239(2)
O2B O 0.7294(8) 0.2705(3) 0.3919(2)
O3B O 0.6801(13) 0.2435(9) 0.3547(3)
C1B C 0.7293(25) 0.242(2) 0.3695(4)
C2B C 0.8784(13) 0.1217(6) 0.3506(3)
C3B C 0.8678(13) 0.1322(6) 0.3758(3)
H1B H 0.8896 0.1104 0.3879
C4B C 0.8247(13) 0.1753(6) 0.3831(3)
C5B C 0.7923(13) 0.2078(6) 0.3662(3)
C6B C 0.8016(12) 0.1984(5) 0.3405(3)
H2B H 0.7794 0.2205 0.3286
O4B O 0.9904(13) 0.0889(9) 0.3615(3)
C7B C 0.9392(26) 0.088(2) 0.3436(5)
C8B C 0.8446(14) 0.1554(6) 0.3333(3)
O6B O 0.8116(10) 0.1885(4) 0.4082(3)
O7B O 0.8570(11) 0.1430(5) 0.3076(3)
O3V O 0.7565(9) 0.3199(13) 0.3547(3)
C1V C 0.758(2) 0.2707(25) 0.3695(4)
O4V O 0.9111(9) 0.0096(13) 0.3615(3)
C7V C 0.912(2) 0.0608(26) 0.3436(5)
Zn2O Zn 0.6666 0.3334 0.26720(5)
O1O O 1.2126(7) 0.6064(4) 0.3428(2)
O2O O 0.7922(7) 0.3962(3) 0.2748(2)
O3O O 0.7699(9) 0.4232(9) 0.3120(3)
C1O C 0.8206(15) 0.425(2) 0.2972(4)
C2O C 1.0900(11) 0.5450(6) 0.3161(3)
C3O C 1.0689(11) 0.5345(6) 0.2909(3)
H1O H 1.1125 0.5563 0.2788
C4O C 0.9827(12) 0.4914(6) 0.2836(3)
C5O C 0.9178(11) 0.4589(6) 0.3005(3)
C6O C 0.9365(11) 0.4683(5) 0.3262(3)
H2O H 0.8922 0.4462 0.3381
O4O O 1.2348(10) 0.5778(9) 0.3052(3)
C7O C 1.1845(16) 0.579(2) 0.3231(5)
C8O C 1.0225(13) 0.5113(6) 0.3334(3)
O6O O 0.9564(9) 0.4782(4) 0.2585(3)
O7O O 1.0473(10) 0.5237(5) 0.3591(3)
O3Y O 0.7699(9) 0.3468(13) 0.3120(3)
C1Y C 0.8206(15) 0.3960(25) 0.2972(4)
O4Y O 1.2348(10) 0.6571(13) 0.3052(3)
C7Y C 1.1845(16) 0.6059(26) 0.3231(5)
O1P O 0.3936(4) 0.6063(8) 0.3428(2)
O2P O 0.6038(3) 0.3961(8) 0.2748(2)
O3P O 0.5768(9) 0.3468(13) 0.3120(3)
C1P C 0.575(2) 0.3960(25) 0.2972(4)
C2P C 0.4550(6) 0.5451(13) 0.3161(3)
C3P C 0.4655(6) 0.5345(13) 0.2909(3)
H1P H 0.4437 0.5563 0.2788
C4P C 0.5086(6) 0.4914(13) 0.2836(3)
C5P C 0.5411(6) 0.4590(13) 0.3005(3)
C6P C 0.5317(5) 0.4683(12) 0.3262(3)
H2P H 0.5538 0.4461 0.3381
O4P O 0.4222(9) 0.6571(13) 0.3052(3)
C7P C 0.421(2) 0.6059(26) 0.3231(5)
C8P C 0.4887(6) 0.5113(14) 0.3334(3)
O6P O 0.5218(4) 0.4783(10) 0.2585(3)
O7P O 0.4763(5) 0.5237(11) 0.3591(3)
O3Z O 0.6532(13) 0.4232(9) 0.3120(3)
C1Z C 0.6040(25) 0.425(2) 0.2972(4)
O4Z O 0.3429(13) 0.5778(9) 0.3052(3)
C7Z C 0.3941(26) 0.579(2) 0.3231(5)
O1Q O 0.3937(8) -0.2126(7) 0.3428(2)
O2Q O 0.6039(8) 0.2078(7) 0.2748(2)
O3Q O 0.6532(13) 0.2301(9) 0.3120(3)
C1Q C 0.6040(25) 0.1794(15) 0.2972(4)
C2Q C 0.4549(13) -0.0900(11) 0.3161(3)
C3Q C 0.4655(13) -0.0689(11) 0.2909(3)
H1Q H 0.4437 -0.1125 0.2788
C4Q C 0.5086(13) 0.0173(12) 0.2836(3)
C5Q C 0.5410(13) 0.0822(11) 0.3005(3)
C6Q C 0.5317(12) 0.0635(11) 0.3262(3)
H2Q H 0.5539 0.1078 0.3381
O4Q O 0.3429(13) -0.2348(10) 0.3052(3)
C7Q C 0.3941(26) -0.1845(16) 0.3231(5)
C8Q C 0.4887(14) -0.0225(13) 0.3334(3)
O6Q O 0.5217(10) 0.0436(9) 0.2585(3)
O7Q O 0.4763(11) -0.0473(10) 0.3591(3)
O3X O 0.5768(9) 0.2301(9) 0.3120(3)
C1X C 0.575(2) 0.1794(15) 0.2972(4)
O4X O 0.4222(9) -0.2348(10) 0.3052(3)
C7X C 0.421(2) -0.1845(16) 0.3231(5)
O5W O 0.9015(16) 0.9180(12) 0.4115(5)
O5B O 0.9015(16) 0.9835(11) 0.4115(5)
O5A O 1.0820(12) 1.0985(16) 0.4115(5)
O5V O 1.0165(11) 1.0985(16) 0.4115(5)
O5B_2 O -0.0985(16) -0.0165(11) 0.4115(5)
O5W_2 O -0.0985(16) -0.0820(12) 0.4115(5)
O5A_2 O 0.0820(12) 0.0985(16) 0.4115(5)
O5V_2 O 0.0165(11) 0.0985(16) 0.4115(5)
O5U_2 O 0.0820(12) -0.0165(11) 0.4115(5)
O5_2 O 0.0165(11) -0.0820(12) 0.4115(5)
Zn2L Zn 0.0000 -0.0000 0.06614(5)
Zn2L_2 Zn 1.0000 1.0000 0.06614(5)
Zn3_3 Zn 1.0000 0.0000 0.31763(6)
Zn3O Zn 0.3333 -0.3333 0.34904(6)
Zn3O_2 Zn 0.3333 0.6667 0.34904(6)
Zn3O_3 Zn 1.3333 0.6667 0.34904(6)
O1_2 O -0.0603(4) -0.1207(7) 0.3239(2)
O1A_2 O 1.1207(7) 1.0604(8) 0.3239(2)
O1B_2 O -0.0604(8) 0.0603(4) 0.3239(2)
O1B_3 O 0.9396(8) 1.0603(4) 0.3239(2)
N1F N 0.6667 0.3333 0.4382(3)
N1I N 0.6667 0.3333 0.2284(3)
O4_2 O -0.0889(9) -0.0985(10) 0.3615(3)
O4A_2 O 1.0985(10) 1.0096(13) 0.3615(3)
O4B_2 O -0.0096(13) 0.0889(9) 0.3615(3)
O4B_3 O 0.9904(13) 1.0889(9) 0.3615(3)
O4U_2 O 1.0985(10) 1.0889(9) 0.3615(3)
O4V_2 O -0.0889(9) 0.0096(13) 0.3615(3)
O4V_3 O 0.9111(9) 1.0096(13) 0.3615(3)
O4W_2 O -0.0096(13) -0.0985(10) 0.3615(3)
Zn4_3 Zn 1.0000 -0.0000 0.38364(7)
Zn4O Zn 0.3333 -0.3333 0.28303(7)
Zn4O_2 Zn 0.3333 0.6667 0.28303(7)
Zn4O_3 Zn 1.3333 0.6667 0.28303(7)
loop_
_geom_bond_atom_site_label_1
_geom_bond_atom_site_label_2
_geom_bond_site_symmetry_1
_geom_bond_site_symmetry_2
Zn1 O3 1_555 1_555
Zn2 O2 1_555 1_555
Zn3 O1 1_555 1_555
O1 C7 1_555 1_555
O2 C1 1_555 1_555
N1 C9 1_555 1_555
O3 C1 1_555 1_555
C1 C5 1_555 1_555
C2 C3 1_555 1_555
C3 H1 1_555 1_555
C4 C3 1_555 1_555
C5 C4 1_555 1_555
C6 C5 1_555 1_555
H2 C6 1_555 1_555
O4 C7 1_555 1_555
C7 C2 1_555 1_555
C8 C2 1_555 1_555
C9 C11 1_555 1_555
C10 C11 1_555 1_555
C11 C13A 1_555 1_555
C12 N1 1_555 1_555
C13 C10 1_555 1_555
C14 C10 1_555 1_555
C15 C16 1_555 1_555
C16 C14A 1_555 1_555
O5 Zn4 1_555 1_555
N2 Zn3 1_555 1_555
C17 C15 1_555 1_555
C18 N2 1_555 1_555
C19 N2 1_555 1_555
C20 C15 1_555 1_555
Zn4 O4 1_555 1_555
O6 C4 1_555 1_555
O7 C8 1_555 1_555
O3W Zn1 1_555 1_555
C1W O2 1_555 1_555
O4W O4 1_555 1_555
C7W O1 1_555 1_555
C9A N1 1_555 1_555
C11A C10 1_555 1_555
C12A N1 1_555 1_555
C13A C10 1_555 1_555
C14A C10 1_555 1_555
C16A C14 1_555 1_555
C17A C15 1_555 1_555
C18A N2 1_555 1_555
C19A N2 1_555 1_555
C20A C15 1_555 1_555
C9B N1 1_555 1_555
C11B C10 1_555 1_555
C12B N1 1_555 1_555
C13B C10 1_555 1_555
C14B C10 1_555 1_555
C16B C14 1_555 1_555
C17B C15 1_555 1_555
C18B N2 1_555 1_555
C19B N2 1_555 1_555
C20B C15 1_555 1_555
O5U O5 1_555 1_555
Zn3_2 O1A 1_555 1_555
O1A C7A 1_555 1_555
O2A Zn2 1_555 1_555
N1_2 C9A_2 1_555 1_555
O3A Zn1 1_555 1_555
C1A O2A 1_555 1_555
C2A C3A 1_555 1_555
C3A H1A 1_555 1_555
C4A C3A 1_555 1_555
C5A C1A 1_555 1_555
C6A C5A 1_555 1_555
H2A C6A 1_555 1_555
O4A C7A 1_555 1_555
C7A C2A 1_555 1_555
C8A C2A 1_555 1_555
C9A_2 C11A_2 1_555 1_555
C10_2 C11A_2 1_555 1_555
C11A_2 C13B_2 1_555 1_555
C12A_2 N1_2 1_555 1_555
C13A_2 C10_2 1_555 1_555
C14A_2 C10_2 1_555 1_555
C15_2 C16A_2 1_555 1_555
C16A_2 C14B_2 1_555 1_555
N2_2 Zn3_2 1_555 1_555
C17A_2 C15_2 1_555 1_555
C18A_2 N2_2 1_555 1_555
C19A_2 N2_2 1_555 1_555
C20A_2 C15_2 1_555 1_555
Zn4_2 O4A 1_555 1_555
O6A C4A 1_555 1_555
O7A C8A 1_555 1_555
O3U Zn1 1_555 1_555
C1U O2A 1_555 1_555
O4U O4A 1_555 1_555
C7U O1A 1_555 1_555
C9B_2 N1_2 1_555 1_555
C11B_2 C10_2 1_555 1_555
C12B_2 N1_2 1_555 1_555
C13B_2 C10_2 1_555 1_555
C14B_2 C10_2 1_555 1_555
C16B_2 C14A_2 1_555 1_555
C17B_2 C15_2 1_555 1_555
C18B_2 N2_2 1_555 1_555
C19B_2 N2_2 1_555 1_555
C20B_2 C15_2 1_555 1_555
C9_2 N1_2 1_555 1_555
C11_2 C10_2 1_555 1_555
C12_2 N1_2 1_555 1_555
C13_2 C10_2 1_555 1_555
C14_2 C10_2 1_555 1_555
C16_2 C14A_2 1_555 1_555
C17_2 C15_2 1_555 1_555
C18_2 N2_2 1_555 1_555
C19_2 N2_2 1_555 1_555
C20_2 C15_2 1_555 1_555
O1B C7B 1_555 1_555
O2B Zn2 1_555 1_555
O3B Zn1 1_555 1_555
C1B O2B 1_555 1_555
C2B C3B 1_555 1_555
C3B H1B 1_555 1_555
C4B C3B 1_555 1_555
C5B C1B 1_555 1_555
C6B C5B 1_555 1_555
H2B C6B 1_555 1_555
O4B C7B 1_555 1_555
C7B C2B 1_555 1_555
C8B C2B 1_555 1_555
O6B C4B 1_555 1_555
O7B C8B 1_555 1_555
O3V Zn1 1_555 1_555
C1V O2B 1_555 1_555
O4V O4B 1_555 1_555
C7V O1B 1_555 1_555
Zn2O O2O 1_555 1_555
O1O C7O 1_555 1_555
O2O C1O 1_555 1_555
O3O Zn1 1_555 1_555
C1O O3O 1_555 1_555
C2O C3O 1_555 1_555
C3O H1O 1_555 1_555
C4O C3O 1_555 1_555
C5O C1O 1_555 1_555
C6O C5O 1_555 1_555
H2O C6O 1_555 1_555
O4O C7O 1_555 1_555
C7O C2O 1_555 1_555
C8O C2O 1_555 1_555
O6O C4O 1_555 1_555
O7O C8O 1_555 1_555
O3Y Zn1 1_555 1_555
C1Y O2O 1_555 1_555
O4Y O4O 1_555 1_555
C7Y O1O 1_555 1_555
O1P C7P 1_555 1_555
O2P Zn2O 1_555 1_555
O3P Zn1 1_555 1_555
C1P O2P 1_555 1_555
C2P C3P 1_555 1_555
C3P H1P 1_555 1_555
C4P C3P 1_555 1_555
C5P C1P 1_555 1_555
C6P C5P 1_555 1_555
H2P C6P 1_555 1_555
O4P C7P 1_555 1_555
C7P C2P 1_555 1_555
C8P C2P 1_555 1_555
O6P C4P 1_555 1_555
O7P C8P 1_555 1_555
O3Z Zn1 1_555 1_555
C1Z O2P 1_555 1_555
O4Z O4P 1_555 1_555
C7Z O1P 1_555 1_555
O1Q C7Q 1_555 1_555
O2Q Zn2O 1_555 1_555
O3Q Zn1 1_555 1_555
C1Q O2Q 1_555 1_555
C2Q C3Q 1_555 1_555
C3Q H1Q 1_555 1_555
C4Q C3Q 1_555 1_555
C5Q C1Q 1_555 1_555
C6Q C5Q 1_555 1_555
H2Q C6Q 1_555 1_555
O4Q C7Q 1_555 1_555
C7Q C2Q 1_555 1_555
C8Q C2Q 1_555 1_555
O6Q C4Q 1_555 1_555
O7Q C8Q 1_555 1_555
O3X Zn1 1_555 1_555
C1X O2Q 1_555 1_555
O4X O4Q 1_555 1_555
C7X O1Q 1_555 1_555
O5W Zn4 1_555 1_555
O5B Zn4 1_555 1_555
O5A Zn4 1_555 1_555
O5V Zn4 1_555 1_555
O5B_2 Zn4_2 1_555 1_555
O5W_2 Zn4_2 1_555 1_555
O5A_2 Zn4_2 1_555 1_555
O5V_2 Zn4_2 1_555 1_555
O5U_2 Zn4_2 1_555 1_555
O5_2 Zn4_2 1_555 1_555
Zn2L N1_2 1_555 1_555
Zn2L_2 N1 1_555 1_555
Zn3_3 O1B 1_555 1_555
Zn3O O1Q 1_555 1_555
Zn3O_2 O1P 1_555 1_555
Zn3O_3 O1O 1_555 1_555
O1_2 Zn3_2 1_555 1_555
O1A_2 Zn3 1_555 1_555
O1B_2 Zn3_2 1_555 1_555
O1B_3 Zn3 1_555 1_555
N1F Zn2 1_555 1_555
N1I Zn2O 1_555 1_555
O4_2 Zn4_2 1_555 1_555
O4A_2 Zn4 1_555 1_555
O4B_2 Zn4_2 1_555 1_555
O4B_3 Zn4 1_555 1_555
O4U_2 Zn4 1_555 1_555
O4V_2 Zn4_2 1_555 1_555
O4V_3 Zn4 1_555 1_555
O4W_2 Zn4_2 1_555 1_555
Zn4_3 O4B 1_555 1_555
Zn4O O4Q 1_555 1_555
Zn4O_2 O4P 1_555 1_555
Zn4O_3 O4O 1_555 1_555
O3 O3W 1_555 1_555
O3 C1W 1_555 1_555
C1 O3W 1_555 1_555
C2 C7W 1_555 1_555
C5 C1W 1_555 1_555
C6 C8 1_555 1_555
O4 C7W 1_555 1_555
C7 O4W 1_555 1_555
C9 C12A 1_555 1_555
C9 C12B 1_555 1_555
C11 C13B 1_555 1_555
C12 C13 1_555 1_555
C12 C9A 1_555 1_555
C12 C9B 1_555 1_555
C13 C11A 1_555 1_555
C13 C11B 1_555 1_555
C14 C14A 1_555 1_555
C14 C14B 1_555 1_555
C15 C16A 1_555 1_555
C15 C16B 1_555 1_555
C16 C16A 1_555 1_555
C16 C14B 1_555 1_555
C16 C16B 1_555 1_555
C17 C18 1_555 1_555
C17 C20A 1_555 1_555
C17 C20B 1_555 1_555
C18 C19A 1_555 1_555
C18 C19B 1_555 1_555
C19 C20 1_555 1_555
C19 C18A 1_555 1_555
C19 C18B 1_555 1_555
C20 C17A 1_555 1_555
C20 C17B 1_555 1_555
Zn4 O4W 1_555 1_555
Zn4 O5U 1_555 1_555
O3W C1W 1_555 1_555
O4W C7W 1_555 1_555
C9A C11A 1_555 1_555
C9A C12B 1_555 1_555
C11A C13B 1_555 1_555
C12A C13A 1_555 1_555
C12A C9B 1_555 1_555
C13A C11B 1_555 1_555
C14A C14B 1_555 1_555
C14A C16B 1_555 1_555
C16A C14B 1_555 1_555
C16A C16B 1_555 1_555
C17A C18A 1_555 1_555
C17A C20B 1_555 1_555
C18A C19B 1_555 1_555
C19A C20A 1_555 1_555
C19A C18B 1_555 1_555
C20A C17B 1_555 1_555
C9B C11B 1_555 1_555
C12B C13B 1_555 1_555
C17B C18B 1_555 1_555
C19B C20B 1_555 1_555
O3A C1A 1_555 1_555
O3A O3U 1_555 1_555
O3A C1U 1_555 1_555
C1A O3U 1_555 1_555
C2A C7U 1_555 1_555
C4A C5A 1_555 1_555
C5A C1U 1_555 1_555
C6A C8A 1_555 1_555
O4A C7U 1_555 1_555
C7A O4U 1_555 1_555
C9A_2 C12B_2 1_555 1_555
C9A_2 C12_2 1_555 1_555
C11A_2 C13_2 1_555 1_555
C12A_2 C13A_2 1_555 1_555
C12A_2 C9B_2 1_555 1_555
C12A_2 C9_2 1_555 1_555
C13A_2 C11B_2 1_555 1_555
C13A_2 C11_2 1_555 1_555
C14A_2 C14B_2 1_555 1_555
C14A_2 C14_2 1_555 1_555
C15_2 C16B_2 1_555 1_555
C15_2 C16_2 1_555 1_555
C16A_2 C16B_2 1_555 1_555
C16A_2 C14_2 1_555 1_555
C16A_2 C16_2 1_555 1_555
C17A_2 C18A_2 1_555 1_555
C17A_2 C20B_2 1_555 1_555
C17A_2 C20_2 1_555 1_555
C18A_2 C19B_2 1_555 1_555
C18A_2 C19_2 1_555 1_555
C19A_2 C20A_2 1_555 1_555
C19A_2 C18B_2 1_555 1_555
C19A_2 C18_2 1_555 1_555
C20A_2 C17B_2 1_555 1_555
C20A_2 C17_2 1_555 1_555
Zn4_2 O4U 1_555 1_555
O3U C1U 1_555 1_555
O4U C7U 1_555 1_555
C9B_2 C11B_2 1_555 1_555
C9B_2 C12_2 1_555 1_555
C11B_2 C13_2 1_555 1_555
C12B_2 C13B_2 1_555 1_555
C12B_2 C9_2 1_555 1_555
C13B_2 C11_2 1_555 1_555
C14B_2 C14_2 1_555 1_555
C14B_2 C16_2 1_555 1_555
C16B_2 C14_2 1_555 1_555
C16B_2 C16_2 1_555 1_555
C17B_2 C18B_2 1_555 1_555
C17B_2 C20_2 1_555 1_555
C18B_2 C19_2 1_555 1_555
C19B_2 C20B_2 1_555 1_555
C19B_2 C18_2 1_555 1_555
C20B_2 C17_2 1_555 1_555
C9_2 C11_2 1_555 1_555
C12_2 C13_2 1_555 1_555
C17_2 C18_2 1_555 1_555
C19_2 C20_2 1_555 1_555
O3B C1B 1_555 1_555
O3B O3V 1_555 1_555
O3B C1V 1_555 1_555
C1B O3V 1_555 1_555
C2B C7V 1_555 1_555
C4B C5B 1_555 1_555
C5B C1V 1_555 1_555
C6B C8B 1_555 1_555
O4B C7V 1_555 1_555
C7B O4V 1_555 1_555
O3V C1V 1_555 1_555
O4V C7V 1_555 1_555
O4V Zn4_3 1_555 1_555
O3O O3Y 1_555 1_555
O3O C1Y 1_555 1_555
C1O O3Y 1_555 1_555
C2O C7Y 1_555 1_555
C4O C5O 1_555 1_555
C5O C1Y 1_555 1_555
C6O C8O 1_555 1_555
O4O C7Y 1_555 1_555
C7O O4Y 1_555 1_555
O3Y C1Y 1_555 1_555
O4Y C7Y 1_555 1_555
O4Y Zn4O_3 1_555 1_555
O3P C1P 1_555 1_555
O3P O3Z 1_555 1_555
O3P C1Z 1_555 1_555
C1P O3Z 1_555 1_555
C2P C7Z 1_555 1_555
C4P C5P 1_555 1_555
C5P C1Z 1_555 1_555
C6P C8P 1_555 1_555
O4P C7Z 1_555 1_555
C7P O4Z 1_555 1_555
O3Z C1Z 1_555 1_555
O4Z C7Z 1_555 1_555
O4Z Zn4O_2 1_555 1_555
O3Q C1Q 1_555 1_555
O3Q O3X 1_555 1_555
O3Q C1X 1_555 1_555
C1Q O3X 1_555 1_555
C2Q C7X 1_555 1_555
C4Q C5Q 1_555 1_555
C5Q C1X 1_555 1_555
C6Q C8Q 1_555 1_555
O4Q C7X 1_555 1_555
C7Q O4X 1_555 1_555
O3X C1X 1_555 1_555
O4X C7X 1_555 1_555
O4X Zn4O 1_555 1_555
O5W O5B 1_555 1_555
O5A O5V 1_555 1_555
O5B_2 O5W_2 1_555 1_555
O5A_2 O5V_2 1_555 1_555
O5U_2 O5_2 1_555 1_555
O4_2 O4W_2 1_555 1_555
O4A_2 O4U_2 1_555 1_555
O4B_2 O4V_2 1_555 1_555
O4B_3 O4V_3 1_555 1_555

#END
