
#######################################################################
#
#                 Cambridge Crystallographic Data Centre
#                                CCDC 
#
#######################################################################
#
# If this CIF has been generated from an entry in the Cambridge 
# Structural Database, then it will include bibliographic, chemical, 
# crystal, experimental, refinement or atomic coordinate data resulting 
# from the CCDC's data processing and validation procedures.
#
#######################################################################

data_DODBUV
_chemical_formula_moiety         '(C48 H34 N4 O16 Zr3)n'
_symmetry_cell_setting           tetragonal
_symmetry_space_group_name_H-M   'I 41/a m d'
_symmetry_Int_Tables_number      141
_space_group_name_Hall           '-I 4bd 2'
loop_
_symmetry_equiv_pos_site_id
_symmetry_equiv_pos_as_xyz
1 x,y,z
2 1/4-y,3/4+x,1/4+z
3 -x,1/2-y,z
4 1/4+y,1/4-x,3/4+z
5 x,-y,-z
6 -x,1/2+y,-z
7 1/4+y,3/4+x,1/4-z
8 1/4-y,1/4-x,3/4-z
9 1/2+x,1/2+y,1/2+z
10 3/4-y,1/4+x,3/4+z
11 1/2-x,-y,1/2+z
12 3/4+y,3/4-x,1/4+z
13 1/2+x,1/2-y,1/2-z
14 1/2-x,y,1/2-z
15 3/4+y,1/4+x,3/4-z
16 3/4-y,3/4-x,1/4-z
17 -x,-y,-z
18 3/4+y,1/4-x,3/4-z
19 x,1/2+y,-z
20 3/4-y,3/4+x,1/4-z
21 -x,y,z
22 x,1/2-y,z
23 3/4-y,1/4-x,3/4+z
24 3/4+y,3/4+x,1/4+z
25 1/2-x,1/2-y,1/2-z
26 1/4+y,3/4-x,1/4-z
27 1/2+x,y,1/2-z
28 1/4-y,1/4+x,3/4-z
29 1/2-x,1/2+y,1/2+z
30 1/2+x,-y,1/2+z
31 1/4-y,3/4-x,1/4+z
32 1/4+y,1/4+x,3/4+z
_cell_length_a                   16.581(5)
_cell_length_b                   16.581(5)
_cell_length_c                   78.30(2)
_cell_angle_alpha                90
_cell_angle_beta                 90
_cell_angle_gamma                90
_cell_volume                     21527
loop_
_atom_site_label
_atom_site_type_symbol
_atom_site_fract_x
_atom_site_fract_y
_atom_site_fract_z
Zr1 Zr 0.5000 0.2500 0.093879(7)
Zr2 Zr 0.39348(2) 0.35652(2) 0.1250
O1 O 0.34398(17) 0.3915(2) 0.09881(3)
O2 O 0.41913(17) 0.32824(19) 0.07943(3)
O3 O 0.40978(18) 0.2500 0.11150(3)
O4 O 0.5000 0.37229(19) 0.10779(3)
O5 O 0.4016(2) 0.48777(19) 0.12406(3)
N1 N 0.0000 0.4799(4) 0.02595(7)
H1 H -0.0000 0.4979 0.0154
N2 N 0.1244(3) 0.5000 0.0000
C1 C 0.3623(3) 0.3730(3) 0.08374(5)
C2 C 0.3122(2) 0.4033(3) 0.06955(4)
C3 C 0.3108(2) 0.3613(2) 0.05426(4)
H2 H 0.3451 0.3160 0.0526
C4 C 0.2587(3) 0.3858(3) 0.04139(4)
H3 H 0.2579 0.3574 0.0309
C5 C 0.2079(2) 0.4514(3) 0.04372(5)
C6 C 0.2110(2) 0.4940(3) 0.05899(5)
H4 H 0.1780 0.5403 0.0606
C7 C 0.2626(3) 0.4687(3) 0.07203(5)
H5 H 0.2633 0.4967 0.0826
C8 C 0.1475(3) 0.4716(4) 0.03072(5)
C9 C 0.1740(2) 0.4861(4) 0.01378(6)
C10 C 0.2542(3) 0.4918(4) 0.00840(6)
H6 H 0.3005 0.4853 0.0154
C11 C 0.0670(3) 0.4635(4) 0.03561(5)
C12 C 0.0397(3) 0.4306(5) 0.05148(6)
H7 H 0.0732 0.4119 0.0605
O1D O 0.34398(17) 0.6085(2) -0.09881(3)
O2D O 0.41913(17) 0.67176(19) -0.07943(3)
N1D N -0.0000 0.5201(4) -0.02595(7)
H1D H 0.0000 0.5021 -0.0154
C1D C 0.3623(3) 0.6270(3) -0.08374(5)
C2D C 0.3122(2) 0.5967(3) -0.06955(4)
C3D C 0.3108(2) 0.6387(2) -0.05426(4)
H2D H 0.3451 0.6840 -0.0526
C4D C 0.2587(3) 0.6142(3) -0.04139(4)
H3D H 0.2579 0.6426 -0.0309
C5D C 0.2079(2) 0.5486(3) -0.04372(5)
C6D C 0.2110(2) 0.5060(3) -0.05899(5)
H4D H 0.1780 0.4597 -0.0606
C7D C 0.2626(3) 0.5313(3) -0.07203(5)
H5D H 0.2633 0.5033 -0.0826
C8D C 0.1475(3) 0.5284(4) -0.03072(5)
C9D C 0.1740(2) 0.5139(4) -0.01378(6)
C10D C 0.2542(3) 0.5082(4) -0.00840(6)
H6D H 0.3005 0.5147 -0.0154
C11D C 0.0670(3) 0.5365(4) -0.03561(5)
C12D C 0.0397(3) 0.5694(5) -0.05148(6)
H7D H 0.0732 0.5881 -0.0605
O1P O -0.34398(17) 0.6085(2) -0.09881(3)
O2P O -0.41913(17) 0.67176(19) -0.07943(3)
N2P N -0.1244(3) 0.5000 0.0000
C1P C -0.3623(3) 0.6270(3) -0.08374(5)
C2P C -0.3122(2) 0.5967(3) -0.06955(4)
C3P C -0.3108(2) 0.6387(2) -0.05426(4)
H2P H -0.3451 0.6840 -0.0526
C4P C -0.2587(3) 0.6142(3) -0.04139(4)
H3P H -0.2579 0.6426 -0.0309
C5P C -0.2079(2) 0.5486(3) -0.04372(5)
C6P C -0.2110(2) 0.5060(3) -0.05899(5)
H4P H -0.1780 0.4597 -0.0606
C7P C -0.2626(3) 0.5313(3) -0.07203(5)
H5P H -0.2633 0.5033 -0.0826
C8P C -0.1475(3) 0.5284(4) -0.03072(5)
C9P C -0.1740(2) 0.5139(4) -0.01378(6)
C10P C -0.2542(3) 0.5082(4) -0.00840(6)
H6P H -0.3005 0.5147 -0.0154
C11P C -0.0670(3) 0.5365(4) -0.03561(5)
C12P C -0.0397(3) 0.5694(5) -0.05148(6)
H7P H -0.0732 0.5881 -0.0605
O1T O -0.34398(17) 0.3915(2) 0.09881(3)
O2T O -0.41913(17) 0.32824(19) 0.07943(3)
C1T C -0.3623(3) 0.3730(3) 0.08374(5)
C2T C -0.3122(2) 0.4033(3) 0.06955(4)
C3T C -0.3108(2) 0.3613(2) 0.05426(4)
H2T H -0.3451 0.3160 0.0526
C4T C -0.2587(3) 0.3858(3) 0.04139(4)
H3T H -0.2579 0.3574 0.0309
C5T C -0.2079(2) 0.4514(3) 0.04372(5)
C6T C -0.2110(2) 0.4940(3) 0.05899(5)
H4T H -0.1780 0.5403 0.0606
C7T C -0.2626(3) 0.4687(3) 0.07203(5)
H5T H -0.2633 0.4967 0.0826
C8T C -0.1475(3) 0.4716(4) 0.03072(5)
C9T C -0.1740(2) 0.4861(4) 0.01378(6)
C10T C -0.2542(3) 0.4918(4) 0.00840(6)
H6T H -0.3005 0.4853 0.0154
C11T C -0.0670(3) 0.4635(4) 0.03561(5)
C12T C -0.0397(3) 0.4306(5) 0.05148(6)
H7T H -0.0732 0.4119 0.0605
O3B O -0.40978(18) 0.2500 0.11150(3)
Zr2T Zr -0.39348(2) 0.35652(2) 0.1250
O5T O -0.4016(2) 0.48777(19) 0.12406(3)
O4B O 0.5000 0.12771(19) 0.10779(3)
O5O O 0.26223(19) 0.3484(2) 0.12594(3)
O5Y O -0.26223(19) 0.3484(2) 0.12594(3)
Zr1_2 Zr -0.5000 0.2500 0.093879(7)
Zr1D Zr -0.5000 0.7500 -0.093879(7)
Zr1D_2 Zr 0.5000 0.7500 -0.093879(7)
Zr2B Zr -0.39348(2) 0.14348(2) 0.1250
Zr2B_2 Zr 0.60652(2) 0.14348(2) 0.1250
Zr2D Zr 0.39348(2) 0.64348(2) -0.1250
Zr2P Zr -0.39348(2) 0.64348(2) -0.1250
Zr2S Zr 0.39348(2) 0.14348(2) 0.1250
Zr2T_2 Zr 0.60652(2) 0.35652(2) 0.1250
O1O O 0.3585(2) 0.40602(17) 0.15119(3)
O1Y O -0.3585(2) 0.40602(17) 0.15119(3)
O2B O 0.58087(17) 0.17176(19) 0.07943(3)
O2T_2 O 0.58087(17) 0.32824(19) 0.07943(3)
O2U O 0.41913(17) 0.17176(19) 0.07943(3)
O3B_2 O 0.59022(18) 0.2500 0.11150(3)
O3O O -0.5000 0.34022(18) 0.13850(3)
O3O_2 O 0.5000 0.34022(18) 0.13850(3)
O4_2 O -0.5000 0.37229(19) 0.10779(3)
O4F O -0.37771(19) 0.2500 0.14221(3)
O4O O 0.37771(19) 0.2500 0.14221(3)
loop_
_geom_bond_atom_site_label_1
_geom_bond_atom_site_label_2
_geom_bond_site_symmetry_1
_geom_bond_site_symmetry_2
Zr1 O2 1_555 1_555
Zr2 O1 1_555 1_555
O1 C1 1_555 1_555
O2 C1 1_555 1_555
O3 Zr1 1_555 1_555
O4 Zr1 1_555 1_555
O5 Zr2 1_555 1_555
N1 H1 1_555 1_555
N2 C9 1_555 1_555
C1 C2 1_555 1_555
C2 C3 1_555 1_555
C3 H2 1_555 1_555
C4 C3 1_555 1_555
H3 C4 1_555 1_555
C5 C4 1_555 1_555
C6 C5 1_555 1_555
H4 C6 1_555 1_555
C7 C2 1_555 1_555
H5 C7 1_555 1_555
C8 C5 1_555 1_555
C9 C8 1_555 1_555
C10 C9 1_555 1_555
H6 C10 1_555 1_555
C11 N1 1_555 1_555
C12 C11 1_555 1_555
H7 C12 1_555 1_555
O1D C1D 1_555 1_555
O2D C1D 1_555 1_555
N1D H1D 1_555 1_555
C1D C2D 1_555 1_555
C2D C3D 1_555 1_555
C3D H2D 1_555 1_555
C4D C3D 1_555 1_555
H3D C4D 1_555 1_555
C5D C4D 1_555 1_555
C6D C5D 1_555 1_555
H4D C6D 1_555 1_555
C7D C2D 1_555 1_555
H5D C7D 1_555 1_555
C8D C5D 1_555 1_555
C9D N2 1_555 1_555
C10D C10 1_555 1_555
H6D C10D 1_555 1_555
C11D N1D 1_555 1_555
C12D C11D 1_555 1_555
H7D C12D 1_555 1_555
O1P C1P 1_555 1_555
O2P C1P 1_555 1_555
N2P C9P 1_555 1_555
C1P C2P 1_555 1_555
C2P C3P 1_555 1_555
C3P H2P 1_555 1_555
C4P C3P 1_555 1_555
H3P C4P 1_555 1_555
C5P C4P 1_555 1_555
C6P C5P 1_555 1_555
H4P C6P 1_555 1_555
C7P C2P 1_555 1_555
H5P C7P 1_555 1_555
C8P C5P 1_555 1_555
C9P C8P 1_555 1_555
C10P C9P 1_555 1_555
H6P C10P 1_555 1_555
C11P N1D 1_555 1_555
C12P C12D 1_555 1_555
H7P C12P 1_555 1_555
O1T C1T 1_555 1_555
O2T C1T 1_555 1_555
C1T C2T 1_555 1_555
C2T C3T 1_555 1_555
C3T H2T 1_555 1_555
C4T C3T 1_555 1_555
H3T C4T 1_555 1_555
C5T C4T 1_555 1_555
C6T C5T 1_555 1_555
H4T C6T 1_555 1_555
C7T C2T 1_555 1_555
H5T C7T 1_555 1_555
C8T C5T 1_555 1_555
C9T N2P 1_555 1_555
C10T C10P 1_555 1_555
H6T C10T 1_555 1_555
C11T N1 1_555 1_555
C12T C12 1_555 1_555
H7T C12T 1_555 1_555
O3B Zr2T 1_555 1_555
Zr2T O1T 1_555 1_555
O5T Zr2T 1_555 1_555
O4B Zr1 1_555 1_555
O5O Zr2 1_555 1_555
O5Y Zr2T 1_555 1_555
Zr1_2 O2T 1_555 1_555
Zr1D O2P 1_555 1_555
Zr1D_2 O2D 1_555 1_555
Zr2B O3B 1_555 1_555
Zr2B_2 O4B 1_555 1_555
Zr2D O1D 1_555 1_555
Zr2P O1P 1_555 1_555
Zr2S O3 1_555 1_555
Zr2T_2 O4 1_555 1_555
O1O Zr2 1_555 1_555
O1Y Zr2T 1_555 1_555
O2B Zr1 1_555 1_555
O2T_2 Zr1 1_555 1_555
O2U Zr1 1_555 1_555
O3B_2 Zr1 1_555 1_555
O3O Zr2T 1_555 1_555
O3O_2 Zr2 1_555 1_555
O4_2 Zr2T 1_555 1_555
O4F Zr2T 1_555 1_555
O4O Zr2 1_555 1_555
Zr2 O3 1_555 1_555
Zr2 O4 1_555 1_555
C6 C7 1_555 1_555
C8 C11 1_555 1_555
C6D C7D 1_555 1_555
C8D C9D 1_555 1_555
C8D C11D 1_555 1_555
C9D C10D 1_555 1_555
C6P C7P 1_555 1_555
C8P C11P 1_555 1_555
C11P C12P 1_555 1_555
C6T C7T 1_555 1_555
C8T C9T 1_555 1_555
C8T C11T 1_555 1_555
C9T C10T 1_555 1_555
C11T C12T 1_555 1_555
O3B Zr1_2 1_555 1_555
O4B Zr2S 1_555 1_555
Zr1_2 O4_2 1_555 1_555
Zr2B O4F 1_555 1_555
Zr2B_2 O3B_2 1_555 1_555
Zr2S O4O 1_555 1_555
Zr2T_2 O3B_2 1_555 1_555
Zr2T_2 O3O_2 1_555 1_555

#END
