
#######################################################################
#
#                 Cambridge Crystallographic Data Centre
#                                CCDC 
#
#######################################################################
#
# If this CIF has been generated from an entry in the Cambridge 
# Structural Database, then it will include bibliographic, chemical, 
# crystal, experimental, refinement or atomic coordinate data resulting 
# from the CCDC's data processing and validation procedures.
#
#######################################################################

data_ECALOL
_chemical_formula_moiety         '(C28 H24 Cl2 Cu2 Eu2 N4 O13)n'
_symmetry_cell_setting           orthorhombic
_symmetry_space_group_name_H-M   'P n m a'
_symmetry_Int_Tables_number      62
_space_group_name_Hall           '-P 2ac 2n'
loop_
_symmetry_equiv_pos_site_id
_symmetry_equiv_pos_as_xyz
1 x,y,z
2 1/2-x,-y,1/2+z
3 1/2+x,1/2-y,1/2-z
4 -x,1/2+y,-z
5 -x,-y,-z
6 1/2+x,y,1/2-z
7 1/2-x,1/2+y,1/2+z
8 x,1/2-y,z
_cell_length_a                   6.91170(10)
_cell_length_b                   34.4333(2)
_cell_length_c                   13.1416(2)
_cell_angle_alpha                90
_cell_angle_beta                 90
_cell_angle_gamma                90
_cell_volume                     3127.6
loop_
_atom_site_label
_atom_site_type_symbol
_atom_site_fract_x
_atom_site_fract_y
_atom_site_fract_z
Eu1 Eu 0.1204(11) 0.4823(2) -0.1276(6)
Cu1 Cu 0.4840(10) 0.2500 -0.0247(3)
Cu2 Cu 0.3122(7) 0.2500 0.3185(3)
Cl1 Cl 0.312(2) 0.2500 0.1362(6)
N1 N -0.1688(17) 0.3044(3) 0.1449(10)
N2 N 0.513(3) 0.3043(4) -0.0621(11)
O1 O -0.0203(19) 0.4297(3) -0.0279(8)
O2 O -0.129(2) 0.4504(3) 0.1234(8)
O3 O 0.4005(16) 0.4461(3) -0.1163(7)
O4 O 0.5600(16) 0.4281(3) -0.2570(8)
O5 O -0.2273(15) 0.4981(3) -0.2080(7)
O6 O -0.1937(15) 0.5048(3) -0.0438(7)
C1 C -0.085(2) 0.4246(4) 0.0586(11)
C2 C -0.120(2) 0.3821(4) 0.0898(11)
C3 C -0.211(2) 0.3726(4) 0.1787(11)
H1 H -0.2562 0.3923 0.2236
C4 C -0.055(3) 0.3525(4) 0.0252(12)
H2 H 0.0076 0.3582 -0.0374
C5 C -0.236(2) 0.3332(4) 0.2020(12)
H3 H -0.3045 0.3267 0.2622
C6 C -0.086(3) 0.3144(5) 0.0565(13)
H4 H -0.0458 0.2942 0.0122
C7 C 0.483(2) 0.4223(4) -0.1699(11)
C8 C 0.501(2) 0.3813(4) -0.1315(11)
C9 C 0.422(2) 0.3708(4) -0.0393(11)
H5 H 0.3594 0.3896 0.0021
C10 C 0.591(3) 0.3527(5) -0.1881(13)
H6 H 0.6425 0.3586 -0.2533
C11 C 0.435(3) 0.3321(5) -0.0071(12)
H7 H 0.3857 0.3256 0.0581
C12 C 0.606(5) 0.3152(6) -0.1486(16)
H8 H 0.6839 0.2967 -0.1832
C13 C -0.293(2) 0.5132(5) -0.1233(10)
C14 C -0.419(7) 0.5407(15) -0.122(4)
Eu1G Eu 0.1204(11) 0.0177(2) -0.1276(6)
Eu1D Eu -0.1204(11) 0.5177(2) 0.1276(6)
Eu1E Eu 0.6204(11) 0.4823(2) -0.3724(6)
Eu1E_2 Eu -0.3796(11) 0.4823(2) -0.3724(6)
Eu1B Eu 0.6204(11) 0.0177(2) -0.3724(6)
Eu1A Eu 0.3796(11) 0.5177(2) -0.6276(6)
Cu2B Cu -0.1878(7) 0.2500 0.1815(3)
Cu2A Cu 0.1878(7) 0.7500 -0.1815(3)
N1D N 0.1688(17) 0.6956(3) -0.1449(10)
N1B N 0.3312(17) 0.1956(3) 0.3551(10)
N1E N 0.3312(17) 0.3044(3) 0.3551(10)
N2G N 0.513(3) 0.1957(4) -0.0621(11)
O1D O 0.0203(19) 0.5703(3) 0.0279(8)
O1G O -0.0203(19) 0.0703(3) -0.0279(8)
O2D O 0.129(2) 0.5496(3) -0.1234(8)
O2C O 0.129(2) -0.0496(3) -0.1234(8)
O3G O 0.4005(16) 0.0539(3) -0.1163(7)
O4G O 0.5600(16) 0.0719(3) -0.2570(8)
O4E O 0.0600(16) 0.4281(3) -0.2430(8)
O4B O 0.0600(16) 0.0719(3) -0.2430(8)
O5E O 0.2727(15) 0.4981(3) -0.2920(7)
O5G O -0.2273(15) 0.0019(3) -0.2080(7)
O5B O 0.2727(15) 0.0019(3) -0.2920(7)
O6E O 0.3063(15) 0.5048(3) -0.4562(7)
O6D O 0.1937(15) 0.4952(3) 0.0438(7)
O6G O -0.1937(15) -0.0048(3) -0.0438(7)
O6C O 0.1937(15) 0.0048(3) 0.0438(7)
C1D C 0.085(2) 0.5754(4) -0.0586(11)
C2D C 0.120(2) 0.6179(4) -0.0898(11)
C3D C 0.211(2) 0.6274(4) -0.1787(11)
H1D H 0.2562 0.6077 -0.2236
C4D C 0.055(3) 0.6475(4) -0.0252(12)
H2D H -0.0076 0.6418 0.0374
C5D C 0.236(2) 0.6668(4) -0.2020(12)
H3D H 0.3045 0.6733 -0.2622
C6D C 0.086(3) 0.6856(5) -0.0565(13)
H4D H 0.0458 0.7058 -0.0122
C7G C 0.483(2) 0.0777(4) -0.1699(11)
C8G C 0.501(2) 0.1187(4) -0.1315(11)
C9G C 0.422(2) 0.1292(4) -0.0393(11)
H5G H 0.3594 0.1104 0.0021
C10G C 0.591(3) 0.1473(5) -0.1881(13)
H6G H 0.6425 0.1414 -0.2533
C11G C 0.435(3) 0.1679(5) -0.0071(12)
H7G H 0.3857 0.1744 0.0581
C12G C 0.606(5) 0.1848(6) -0.1486(16)
H8G H 0.6839 0.2033 -0.1832
C13E C 0.207(2) 0.5132(5) -0.3767(10)
C14E C 0.081(7) 0.5407(15) -0.378(4)
Cl3 Cl 0.584(2) 0.2500 0.643(3)
O8 O 0.860(3) 0.2500 0.7253(16)
loop_
_geom_bond_atom_site_label_1
_geom_bond_atom_site_label_2
_geom_bond_site_symmetry_1
_geom_bond_site_symmetry_2
Eu1 O1 1_555 1_555
Cu1 Cl1 1_555 1_555
Cu2 Cl1 1_555 1_555
N1 C5 1_555 1_555
N2 Cu1 1_555 1_555
O1 C1 1_555 1_555
O2 C1 1_555 1_555
O3 Eu1 1_555 1_555
O4 C7 1_555 1_555
O5 Eu1 1_555 1_555
O6 Eu1 1_555 1_555
C1 C2 1_555 1_555
C2 C3 1_555 1_555
C3 H1 1_555 1_555
C4 C2 1_555 1_555
H2 C4 1_555 1_555
C5 C3 1_555 1_555
H3 C5 1_555 1_555
C6 N1 1_555 1_555
H4 C6 1_555 1_555
C7 O3 1_555 1_555
C8 C7 1_555 1_555
C9 C8 1_555 1_555
H5 C9 1_555 1_555
C10 C8 1_555 1_555
H6 C10 1_555 1_555
C11 N2 1_555 1_555
H7 C11 1_555 1_555
C12 N2 1_555 1_555
H8 C12 1_555 1_555
C13 O5 1_555 1_555
C14 C13 1_555 1_555
Eu1G O1G 1_555 1_555
Eu1D O2 1_555 1_555
Eu1E O4 1_555 1_555
Eu1E_2 O5 1_555 1_555
Eu1B O4G 1_555 1_555
Eu1A O6E 1_555 1_555
Cu2B N1 1_555 1_555
Cu2A N1D 1_555 1_555
N1D C5D 1_555 1_555
N1B Cu2 1_555 1_555
N1E Cu2 1_555 1_555
N2G Cu1 1_555 1_555
O1D Eu1D 1_555 1_555
O2D Eu1 1_555 1_555
O2C Eu1G 1_555 1_555
O3G Eu1G 1_555 1_555
O4G C7G 1_555 1_555
O4E Eu1 1_555 1_555
O4B Eu1G 1_555 1_555
O5E Eu1 1_555 1_555
O5G Eu1G 1_555 1_555
O5B Eu1G 1_555 1_555
O6E Eu1E 1_555 1_555
O6D Eu1 1_555 1_555
O6G Eu1G 1_555 1_555
O6C Eu1G 1_555 1_555
C1D O1D 1_555 1_555
C2D C1D 1_555 1_555
C3D C2D 1_555 1_555
H1D C3D 1_555 1_555
C4D C2D 1_555 1_555
H2D C4D 1_555 1_555
C5D C3D 1_555 1_555
H3D C5D 1_555 1_555
C6D N1D 1_555 1_555
H4D C6D 1_555 1_555
C7G O3G 1_555 1_555
C8G C7G 1_555 1_555
C9G C8G 1_555 1_555
H5G C9G 1_555 1_555
C10G C8G 1_555 1_555
H6G C10G 1_555 1_555
C11G N2G 1_555 1_555
H7G C11G 1_555 1_555
C12G N2G 1_555 1_555
H8G C12G 1_555 1_555
C13E O5E 1_555 1_555
C14E C13E 1_555 1_555
O6 C13 1_555 1_555
O6 Eu1D 1_555 1_555
C4 C6 1_555 1_555
C9 C11 1_555 1_555
C10 C12 1_555 1_555
Eu1D O6D 1_555 1_555
Eu1E O5E 1_555 1_555
Eu1B O5B 1_555 1_555
O2D C1D 1_555 1_555
O6E C13E 1_555 1_555
C4D C6D 1_555 1_555
C9G C11G 1_555 1_555
C10G C12G 1_555 1_555

#END
