
#######################################################################
#
#                 Cambridge Crystallographic Data Centre
#                                CCDC 
#
#######################################################################
#
# If this CIF has been generated from an entry in the Cambridge 
# Structural Database, then it will include bibliographic, chemical, 
# crystal, experimental, refinement or atomic coordinate data resulting 
# from the CCDC's data processing and validation procedures.
#
#######################################################################

data_DIRBIP
_chemical_formula_moiety         '(C3 H11 Ga3 N1 O13 P3)n'
_symmetry_cell_setting           monoclinic
_symmetry_space_group_name_H-M   'P 21/n'
_symmetry_Int_Tables_number      14
_space_group_name_Hall           '-P 2yn'
loop_
_symmetry_equiv_pos_site_id
_symmetry_equiv_pos_as_xyz
1 x,y,z
2 1/2-x,1/2+y,1/2-z
3 -x,-y,-z
4 1/2+x,1/2-y,1/2+z
_cell_length_a                   8.700(1)
_cell_length_b                   18.146(2)
_cell_length_c                   9.087(1)
_cell_angle_alpha                90
_cell_angle_beta                 107.28(2)
_cell_angle_gamma                90
_cell_volume                     1369.82
loop_
_atom_site_label
_atom_site_type_symbol
_atom_site_fract_x
_atom_site_fract_y
_atom_site_fract_z
Ga1 Ga 0.0818(1) 0.2952(1) 0.2911(1)
Ga2 Ga 0.1364(1) 0.1079(1) 0.1610(1)
Ga3 Ga 0.5291(1) 0.3209(1) 0.1966(1)
P1 P 0.3502(2) 0.4268(1) 0.3596(2)
P2 P -0.1852(2) 0.2930(1) 0.4820(2)
P3 P 0.2670(2) 0.1694(1) 0.4965(2)
O1 O 0.0395(6) 0.2050(2) 0.1800(6)
O2 O 0.1983(5) 0.3812(2) 0.3019(6)
O3 O 0.2606(5) 0.2500(2) 0.4425(5)
O4 O -0.0356(6) 0.3060(3) 0.4323(6)
O5 O 0.4222(6) 0.1561(2) 0.6242(6)
O6 O 0.4712(6) 0.4045(2) 0.2732(6)
O7 O -0.1527(6) 0.2320(2) 0.6048(6)
O8 O 0.1197(6) 0.1517(2) 0.5500(6)
O9 O -0.3279(6) 0.2665(3) 0.3460(6)
O10 O 0.2627(6) 0.1151(2) 0.3664(5)
O11 O 0.4286(6) 0.4144(2) 0.5307(6)
O12 O 0.3015(5) 0.5064(2) 0.3235(6)
O13 O -0.2284(6) 0.3648(2) 0.5467(6)
H1 H -0.0364(98) 0.2131(55) 0.0963(97)
O5C O -0.0778(6) 0.3439(2) 0.1242(6)
O11C O -0.0714(6) 0.0856(2) 0.0307(6)
O12A O 0.1985(5) 0.0064(2) 0.1765(6)
O13C O 0.2716(6) 0.1352(2) 0.0467(6)
O7C O 0.3473(6) 0.2680(2) 0.1048(6)
O8C O 0.6197(6) 0.3483(2) 0.0500(6)
O9_2 O 0.6721(6) 0.2665(3) 0.3460(6)
Ga1C Ga 0.5818(1) 0.2048(1) 0.7911(1)
Ga3C Ga 0.0291(1) 0.1791(1) 0.6966(1)
Ga3_2 Ga -0.4709(1) 0.3209(1) 0.1966(1)
Ga2C Ga 0.6364(1) 0.3921(1) 0.6610(1)
Ga2A Ga 0.3636(1) 0.6079(1) 0.3390(1)
Ga2C_2 Ga -0.3636(1) 0.3921(1) 0.6610(1)
C1 C 0.1381(54) 0.4557(32) 0.8175(51)
C2 C 0.0993(35) 0.4948(19) 0.6546(27)
C3 C 0.3204(28) 0.4587(18) 0.9035(33)
N1 N 0.0291(21) 0.4943(11) 0.9046(21)
loop_
_geom_bond_atom_site_label_1
_geom_bond_atom_site_label_2
_geom_bond_site_symmetry_1
_geom_bond_site_symmetry_2
Ga1 O1 1_555 1_555
Ga2 O1 1_555 1_555
Ga3 O6 1_555 1_555
P1 O2 1_555 1_555
P2 O4 1_555 1_555
P3 O3 1_555 1_555
O1 H1 1_555 1_555
O2 Ga1 1_555 1_555
O3 Ga1 1_555 1_555
O4 Ga1 1_555 1_555
O5 P3 1_555 1_555
O6 P1 1_555 1_555
O7 P2 1_555 1_555
O8 P3 1_555 1_555
O9 P2 1_555 1_555
O10 Ga2 1_555 1_555
O11 P1 1_555 1_555
O12 P1 1_555 1_555
O13 P2 1_555 1_555
C1 C2 1_555 1_555
C3 C1 1_555 1_555
N1 C1 1_555 1_555
O5C Ga1 1_555 1_555
O11C Ga2 1_555 1_555
O12A Ga2 1_555 1_555
O13C Ga2 1_555 1_555
O7C Ga3 1_555 1_555
O8C Ga3 1_555 1_555
O9_2 Ga3 1_555 1_555
Ga1C O5 1_555 1_555
Ga3C O7 1_555 1_555
Ga3_2 O9 1_555 1_555
Ga2C O11 1_555 1_555
Ga2A O12 1_555 1_555
Ga2C_2 O13 1_555 1_555
P3 O10 1_555 1_555
O8 Ga3C 1_555 1_555

#END
