
#######################################################################
#
#                 Cambridge Crystallographic Data Centre
#                                CCDC 
#
#######################################################################
#
# If this CIF has been generated from an entry in the Cambridge 
# Structural Database, then it will include bibliographic, chemical, 
# crystal, experimental, refinement or atomic coordinate data resulting 
# from the CCDC's data processing and validation procedures.
#
#######################################################################

data_IYALUR
_chemical_formula_moiety         '(C46 H36 Ba4 N2 O20 P6)n'
_symmetry_cell_setting           monoclinic
_symmetry_space_group_name_H-M   'C 2/c'
_symmetry_Int_Tables_number      15
_space_group_name_Hall           '-C 2yc'
loop_
_symmetry_equiv_pos_site_id
_symmetry_equiv_pos_as_xyz
1 x,y,z
2 -x,y,1/2-z
3 1/2+x,1/2+y,z
4 1/2-x,1/2+y,1/2-z
5 -x,-y,-z
6 x,-y,1/2+z
7 1/2-x,1/2-y,-z
8 1/2+x,1/2-y,1/2+z
_cell_length_a                   43.611(9)
_cell_length_b                   8.5490(17)
_cell_length_c                   34.589(3)
_cell_angle_alpha                90
_cell_angle_beta                 103.59(3)
_cell_angle_gamma                90
_cell_volume                     12534.8
loop_
_atom_site_label
_atom_site_type_symbol
_atom_site_fract_x
_atom_site_fract_y
_atom_site_fract_z
O20 O 0.7546(3) 0.7118(17) 0.6117(4)
H28 H 0.7619 0.7329 0.6363
H29 H 0.7553 0.6113 0.6114
Ba1 Ba 0.71164(2) -0.09558(7) 0.69540(2)
C1 C 0.4277(2) 0.4570(12) 0.6128(3)
C2 C 0.41532(19) 0.4207(10) 0.5736(2)
H1 H 0.4288 0.3901 0.5571
C3 C 0.38326(18) 0.4286(10) 0.5583(2)
C4 C 0.3636(2) 0.4725(9) 0.5818(2)
H2 H 0.3415 0.4777 0.5711
C5 C 0.3758(2) 0.5091(11) 0.6212(2)
N1 N 0.4081(2) 0.5047(13) 0.6369(3)
C6 C 0.31540(17) 0.6077(10) 0.6986(2)
C7 C 0.35487(18) 0.5419(11) 0.6481(2)
C8 C 0.3069(2) 0.4912(14) 0.6689(3)
H3 H 0.2879 0.4341 0.6662
C9 C 0.3429(3) 0.6870(13) 0.7022(3)
H4 H 0.3486 0.7653 0.7221
C10 C 0.3630(2) 0.6558(14) 0.6772(3)
H5 H 0.3822 0.7122 0.6801
C11 C 0.3264(2) 0.4620(13) 0.6441(3)
H6 H 0.3204 0.3858 0.6237
C12 C 0.6868(2) 0.1015(10) 0.5641(2)
C13 C 0.6938(2) -0.0157(12) 0.5394(2)
H7 H 0.7118 -0.0807 0.5484
C14 C 0.6745(2) -0.0371(11) 0.5014(2)
H8 H 0.6792 -0.1167 0.4845
C15 C 0.6483(2) 0.0577(11) 0.4882(2)
C16 C 0.6408(3) 0.1736(12) 0.5118(3)
H9 H 0.6228 0.2380 0.5026
C17 C 0.6609(3) 0.1958(13) 0.5512(3)
H10 H 0.6561 0.2754 0.5680
C18 C 0.6262(2) 0.0289(12) 0.4480(3)
N2 N 0.6384(2) -0.0178(13) 0.4167(3)
C19 C 0.6181(2) -0.0409(12) 0.3805(3)
C20 C 0.5865(2) -0.0126(12) 0.3754(3)
H11 H 0.5726 -0.0270 0.3501
C21 C 0.5750(3) 0.0368(13) 0.4072(3)
C22 C 0.5947(2) 0.0579(11) 0.4437(3)
H12 H 0.5868 0.0919 0.4657
C23 C 0.6310(2) -0.0870(11) 0.3452(3)
C24 C 0.6597(2) -0.0288(11) 0.3413(3)
H13 H 0.6722 0.0331 0.3619
C25 C 0.6703(2) -0.0602(11) 0.3074(2)
H14 H 0.6901 -0.0201 0.3049
C26 C 0.6525(2) -0.1487(11) 0.2775(3)
C27 C 0.6242(2) -0.2065(13) 0.2817(3)
H15 H 0.6118 -0.2690 0.2613
C28 C 0.6138(3) -0.1750(13) 0.3154(3)
H16 H 0.5940 -0.2157 0.3177
O1 O 0.26804(17) 0.5057(8) 0.72920(18)
O2 O 0.27299(18) 0.7980(9) 0.7218(2)
O3 O 0.31137(16) 0.6518(8) 0.77430(17)
O4 O 0.6896(2) 0.1559(9) 0.64171(19)
O5 O 0.7290(3) 0.2869(12) 0.6127(3)
O6 O 0.7313(2) -0.0086(11) 0.6237(2)
O7 O 0.69926(17) -0.1627(9) 0.2382(2)
O8 O 0.65115(18) -0.0154(12) 0.2061(2)
O9 O 0.6506(2) -0.3072(12) 0.2093(2)
O10 O 0.5834(4) 0.354(2) 0.6515(5)
O11 O 0.5673(4) 0.163(2) 0.6970(5)
O12 O 0.5775(5) 0.438(2) 0.7178(5)
O13 O 0.75494(16) 0.6620(8) 0.69517(18)
P1 P 0.28996(6) 0.6448(3) 0.73209(6)
P2 P 0.71054(8) 0.1300(4) 0.61292(7)
P3 P 0.66398(7) -0.1605(4) 0.23086(7)
P4 P 0.56607(14) 0.3385(12) 0.6828(2)
C29 C 0.5039(5) 0.383(3) 0.6861(8)
H17 H 0.5110 0.3602 0.7137
C30 C 0.4615(5) 0.446(3) 0.6304(7)
C31 C 0.5252(5) 0.387(2) 0.6628(6)
C32 C 0.4724(5) 0.412(3) 0.6705(6)
H18 H 0.4580 0.4094 0.6872
C33 C 0.4832(4) 0.450(2) 0.6072(6)
H19 H 0.4763 0.4737 0.5797
C34 C 0.5144(4) 0.421(2) 0.6232(6)
H20 H 0.5288 0.4247 0.6065
Ba2 Ba 0.37468(10) 0.2601(9) 0.30031(7)
Ba3 Ba 0.62161(12) 0.0656(8) 0.63214(8)
Ba4 Ba 0.7096(5) 0.4144(11) 0.6909(3)
C35 C 0.5219(4) 0.114(2) 0.3676(4)
C36 C 0.5405(3) 0.057(2) 0.4030(5)
C37 C 0.5265(3) 0.011(2) 0.4335(4)
H21 H 0.5392 -0.0282 0.4577
C38 C 0.4940(3) 0.022(2) 0.4284(4)
H22 H 0.4845 -0.0090 0.4492
C39 C 0.4755(3) 0.080(2) 0.3930(5)
C40 C 0.4894(3) 0.126(2) 0.3626(4)
H23 H 0.4767 0.1647 0.3383
O14 O 0.4299(5) 0.2665(15) 0.3994(5)
O15 O 0.4218(4) -0.0113(19) 0.4164(5)
O16 O 0.4172(4) 0.060(2) 0.3457(3)
P5 P 0.43417(15) 0.0964(10) 0.3881(2)
C41 C 0.3761(2) 0.2758(13) 0.4528(2)
H24 H 0.3882 0.2151 0.4388
C42 C 0.38688(19) 0.2984(13) 0.4936(2)
H25 H 0.4063 0.2532 0.5074
C43 C 0.3692(2) 0.3872(14) 0.51415(19)
C44 C 0.3409(2) 0.4534(13) 0.4940(3)
H26 H 0.3288 0.5141 0.5080
C45 C 0.3301(2) 0.4308(13) 0.4532(3)
H27 H 0.3107 0.4760 0.4395
C46 C 0.3478(2) 0.3420(13) 0.43266(19)
O17 O 0.3002(2) 0.3412(13) 0.3671(3)
O18 O 0.3486(2) 0.1903(12) 0.3643(3)
O19 O 0.3483(3) 0.4804(14) 0.3625(3)
P6 P 0.33575(9) 0.3346(8) 0.37949(10)
Ba1_2 Ba 0.71164(2) 0.90442(7) 0.69540(2)
Ba1A Ba 0.28836(2) 0.90442(7) 0.80460(2)
Ba1B Ba 0.21164(2) 0.40442(7) 0.69540(2)
Ba1D Ba 0.28836(2) 0.09558(7) 0.30460(2)
Ba1E Ba 0.71164(2) 0.09558(7) 0.19540(2)
O1A O 0.73196(17) 0.5057(8) 0.77080(18)
O1B O 0.76804(17) 0.0057(8) 0.72920(18)
O2A O 0.72701(18) -0.2020(9) 0.7782(2)
O2B O 0.77299(18) 0.2980(9) 0.7218(2)
O3A O 0.68863(16) -0.3482(8) 0.72570(17)
O3A_2 O 0.68863(16) 0.6518(8) 0.72570(17)
O3E O 0.31137(16) 0.3482(8) 0.27430(17)
O7E O 0.69926(17) 0.1627(9) 0.7382(2)
O8A O 0.34885(18) -0.0154(12) 0.2939(2)
O8E O 0.65115(18) 0.0154(12) 0.7061(2)
O9E O 0.6506(2) 0.3072(12) 0.7093(2)
O13_2 O 0.75494(16) -0.3380(8) 0.69517(18)
Ba2A Ba 0.62532(10) 0.2601(9) 0.19969(7)
Ba2E Ba 0.37468(10) 0.7399(9) 0.80031(7)
Ba3D Ba 0.37839(12) -0.0656(8) 0.36786(8)
Ba3E Ba 0.62161(12) -0.0656(8) 0.13214(8)
Ba4A Ba 0.2904(5) 0.4144(11) 0.8091(3)
Ba4B Ba 0.2096(5) 0.9144(11) 0.6909(3)
Ba4D Ba 0.2904(5) 0.5856(11) 0.3091(3)
Ba4E Ba 0.7096(5) -0.4144(11) 0.1909(3)
O15D O 0.5782(4) 0.0113(19) 0.5836(5)
O16D O 0.5828(4) -0.060(2) 0.6543(3)
O17D O 0.6998(2) -0.3412(13) 0.6329(3)
O17D_2 O 0.6998(2) 0.6588(13) 0.6329(3)
O18D O 0.6514(2) -0.1903(12) 0.6357(3)
O19D O 0.6517(3) 0.5196(14) 0.6375(3)
loop_
_geom_bond_atom_site_label_1
_geom_bond_atom_site_label_2
_geom_bond_site_symmetry_1
_geom_bond_site_symmetry_2
Ba1 O4 1_555 1_555
C1 C2 1_555 1_555
C2 H1 1_555 1_555
C3 C2 1_555 1_555
C4 C3 1_555 1_555
H2 C4 1_555 1_555
C5 C4 1_555 1_555
N1 C1 1_555 1_555
C6 C8 1_555 1_555
C7 C5 1_555 1_555
C8 H3 1_555 1_555
C9 C6 1_555 1_555
H4 C9 1_555 1_555
C10 C7 1_555 1_555
H5 C10 1_555 1_555
C11 C7 1_555 1_555
H6 C11 1_555 1_555
C12 C13 1_555 1_555
C13 H7 1_555 1_555
C14 C13 1_555 1_555
H8 C14 1_555 1_555
C15 C14 1_555 1_555
C16 C15 1_555 1_555
H9 C16 1_555 1_555
C17 C12 1_555 1_555
H10 C17 1_555 1_555
C18 C15 1_555 1_555
N2 C18 1_555 1_555
C19 N2 1_555 1_555
C20 C19 1_555 1_555
H11 C20 1_555 1_555
C21 C20 1_555 1_555
C22 C18 1_555 1_555
H12 C22 1_555 1_555
C23 C19 1_555 1_555
C24 C23 1_555 1_555
H13 C24 1_555 1_555
C25 C24 1_555 1_555
H14 C25 1_555 1_555
C26 C25 1_555 1_555
C27 C26 1_555 1_555
H15 C27 1_555 1_555
C28 C23 1_555 1_555
H16 C28 1_555 1_555
O1 P1 1_555 1_555
O2 P1 1_555 1_555
O3 P1 1_555 1_555
O4 P2 1_555 1_555
O5 P2 1_555 1_555
O6 Ba1 1_555 1_555
O7 P3 1_555 1_555
O8 P3 1_555 1_555
O9 P3 1_555 1_555
O10 P4 1_555 1_555
O11 P4 1_555 1_555
O12 P4 1_555 1_555
O13 Ba4 1_555 1_555
P1 C6 1_555 1_555
P2 C12 1_555 1_555
P3 C26 1_555 1_555
P4 C31 1_555 1_555
C29 H17 1_555 1_555
C30 C1 1_555 1_555
C31 C29 1_555 1_555
C32 C29 1_555 1_555
H18 C32 1_555 1_555
C33 C30 1_555 1_555
H19 C33 1_555 1_555
C34 C31 1_555 1_555
H20 C34 1_555 1_555
Ba2 O16 1_555 1_555
Ba3 O4 1_555 1_555
Ba4 O4 1_555 1_555
C35 C36 1_555 1_555
C36 C21 1_555 1_555
C37 C36 1_555 1_555
H21 C37 1_555 1_555
C38 C37 1_555 1_555
H22 C38 1_555 1_555
C39 C38 1_555 1_555
C40 C35 1_555 1_555
H23 C40 1_555 1_555
O14 P5 1_555 1_555
O15 P5 1_555 1_555
O16 P5 1_555 1_555
P5 C39 1_555 1_555
C41 H24 1_555 1_555
C42 C41 1_555 1_555
H25 C42 1_555 1_555
C43 C3 1_555 1_555
C44 C43 1_555 1_555
H26 C44 1_555 1_555
C45 C44 1_555 1_555
H27 C45 1_555 1_555
C46 C41 1_555 1_555
O17 P6 1_555 1_555
O18 Ba2 1_555 1_555
O19 Ba2 1_555 1_555
P6 C46 1_555 1_555
O20 H28 1_555 1_555
H29 O20 1_555 1_555
Ba1_2 O13 1_555 1_555
Ba1A O2 1_555 1_555
Ba1B O1 1_555 1_555
Ba1D O17 1_555 1_555
Ba1E O7 1_555 1_555
O1A Ba4 1_555 1_555
O1B Ba1 1_555 1_555
O2A Ba1 1_555 1_555
O2B Ba4 1_555 1_555
O3A Ba1 1_555 1_555
O3A_2 Ba4 1_555 1_555
O3E Ba2 1_555 1_555
O7E Ba1 1_555 1_555
O8A Ba2 1_555 1_555
O8E Ba1 1_555 1_555
O9E Ba4 1_555 1_555
O13_2 Ba1 1_555 1_555
Ba2A O8 1_555 1_555
Ba2E O3 1_555 1_555
Ba3D O15 1_555 1_555
Ba3E O8 1_555 1_555
Ba4A O1 1_555 1_555
Ba4B O2 1_555 1_555
Ba4D O17 1_555 1_555
Ba4E O7 1_555 1_555
O15D Ba3 1_555 1_555
O16D Ba3 1_555 1_555
O17D Ba1 1_555 1_555
O17D_2 Ba4 1_555 1_555
O18D Ba1 1_555 1_555
O19D Ba4 1_555 1_555
C5 N1 1_555 1_555
C8 C11 1_555 1_555
C9 C10 1_555 1_555
C16 C17 1_555 1_555
C21 C22 1_555 1_555
C27 C28 1_555 1_555
O3 Ba1A 1_555 1_555
O3 Ba4A 1_555 1_555
O5 Ba4 1_555 1_555
O6 P2 1_555 1_555
O8 Ba1E 1_555 1_555
O9 Ba4E 1_555 1_555
O10 Ba3 1_555 1_555
C30 C32 1_555 1_555
C33 C34 1_555 1_555
Ba3 O8E 1_555 1_555
Ba3 O18D 1_555 1_555
Ba4 O7E 1_555 1_555
C39 C40 1_555 1_555
O16 Ba3D 1_555 1_555
C42 C43 1_555 1_555
C45 C46 1_555 1_555
O18 P6 1_555 1_555
O18 Ba1D 1_555 1_555
O18 Ba3D 1_555 1_555
O19 P6 1_555 1_555
O19 Ba4D 1_555 1_555
Ba1_2 O3A_2 1_555 1_555
Ba1_2 O17D_2 1_555 1_555
Ba1D O3E 1_555 1_555
Ba1D O8A 1_555 1_555
O3E Ba4D 1_555 1_555
O8A Ba3D 1_555 1_555

#END
