
#######################################################################
#
#                 Cambridge Crystallographic Data Centre
#                                CCDC 
#
#######################################################################
#
# If this CIF has been generated from an entry in the Cambridge 
# Structural Database, then it will include bibliographic, chemical, 
# crystal, experimental, refinement or atomic coordinate data resulting 
# from the CCDC's data processing and validation procedures.
#
#######################################################################

data_VACFUB01
_chemical_formula_moiety         '(C12 H12 N2 O6 Zn1)n'
_symmetry_cell_setting           hexagonal
_symmetry_space_group_name_H-M   'P 62'
_symmetry_Int_Tables_number      171
_space_group_name_Hall           'P 62'
loop_
_symmetry_equiv_pos_site_id
_symmetry_equiv_pos_as_xyz
1 x,y,z
2 x-y,x,1/3+z
3 -y,x-y,2/3+z
4 -x,-y,z
5 -x+y,-x,1/3+z
6 y,-x+y,2/3+z
_cell_length_a                   15.512(3)
_cell_length_b                   15.512(3)
_cell_length_c                   6.262(2)
_cell_angle_alpha                90
_cell_angle_beta                 90
_cell_angle_gamma                120
_cell_volume                     1304.91
loop_
_atom_site_label
_atom_site_type_symbol
_atom_site_fract_x
_atom_site_fract_y
_atom_site_fract_z
Zn1 Zn 0.5000 1.0000 0.14960(11)
N1 N 0.38169(19) 0.90510(18) 0.3296(5)
O1 O 0.08542(19) 0.60481(16) 0.6166(4)
O2 O 0.1415(3) 0.7011(2) 0.9029(5)
C1 C 0.1439(3) 0.6862(3) 0.7128(6)
C2 C 0.2263(3) 0.7642(3) 0.5739(6)
C3 C 0.2870(3) 0.8601(2) 0.6498(7)
H1 H 0.2764 0.8783 0.7846
C4 C 0.3629(3) 0.9276(2) 0.5228(6)
H2 H 0.4029 0.9919 0.5739
C5 C 0.3220(3) 0.8128(3) 0.2568(6)
H3 H 0.3342 0.7961 0.1220
C6 C 0.2434(3) 0.7418(3) 0.3734(6)
H4 H 0.2022 0.6789 0.3160
Zn1B Zn -0.0000 0.5000 0.81627(11)
Zn1A Zn 0.5000 0.5000 -0.51707(11)
N1D N 0.52341(26) 0.61831(19) -0.3371(5)
N1C N 0.61831(19) 1.09490(18) 0.3296(5)
O1D O 0.51939(25) 0.91458(19) -0.0501(4)
O1A O 0.48061(25) 1.08542(19) -0.0501(4)
O2D O 0.5596(4) 0.8585(3) 0.2362(5)
C1D C 0.5423(4) 0.8561(3) 0.0461(6)
C2D C 0.5379(4) 0.7737(3) -0.0928(6)
C3D C 0.5731(4) 0.7130(3) -0.0169(7)
H1D H 0.6019 0.7236 0.1179
C4D C 0.5647(4) 0.6371(3) -0.1439(6)
H2D H 0.5890 0.5971 -0.0928
C5D C 0.4908(4) 0.6780(3) -0.4099(6)
H3D H 0.4619 0.6658 -0.5447
C6D C 0.4984(4) 0.7566(3) -0.2933(6)
H4D H 0.4767 0.7978 -0.3507
O3 O 0.7629(9) 0.8133(10) 0.480(3)
O4 O 0.767(2) 0.934(2) 0.463(6)
loop_
_geom_bond_atom_site_label_1
_geom_bond_atom_site_label_2
_geom_bond_site_symmetry_1
_geom_bond_site_symmetry_2
Zn1 N1 1_555 1_555
N1 C4 1_555 1_555
O1 C1 1_555 1_555
O2 C1 1_555 1_555
C1 C2 1_555 1_555
C2 C3 1_555 1_555
C3 H1 1_555 1_555
C4 C3 1_555 1_555
H2 C4 1_555 1_555
C5 N1 1_555 1_555
H3 C5 1_555 1_555
C6 C2 1_555 1_555
H4 C6 1_555 1_555
Zn1B O1 1_555 1_555
Zn1A N1D 1_555 1_555
N1D C4D 1_555 1_555
N1C Zn1 1_555 1_555
O1D Zn1 1_555 1_555
O1A Zn1 1_555 1_555
O2D C1D 1_555 1_555
C1D O1D 1_555 1_555
C2D C1D 1_555 1_555
C3D C2D 1_555 1_555
H1D C3D 1_555 1_555
C4D C3D 1_555 1_555
H2D C4D 1_555 1_555
C5D N1D 1_555 1_555
H3D C5D 1_555 1_555
C6D C2D 1_555 1_555
H4D C6D 1_555 1_555
C5 C6 1_555 1_555
C5D C6D 1_555 1_555

#END
