
#######################################################################
#
#                 Cambridge Crystallographic Data Centre
#                                CCDC 
#
#######################################################################
#
# If this CIF has been generated from an entry in the Cambridge 
# Structural Database, then it will include bibliographic, chemical, 
# crystal, experimental, refinement or atomic coordinate data resulting 
# from the CCDC's data processing and validation procedures.
#
#######################################################################

data_FIYDOH
_chemical_formula_moiety         '(C30 H34 Co2 N6 O17 V4)n'
_symmetry_cell_setting           monoclinic
_symmetry_space_group_name_H-M   'C 2/c'
_symmetry_Int_Tables_number      15
_space_group_name_Hall           '-C 2yc'
loop_
_symmetry_equiv_pos_site_id
_symmetry_equiv_pos_as_xyz
1 x,y,z
2 1/2+x,1/2+y,z
3 -x,y,1/2-z
4 1/2-x,1/2+y,1/2-z
5 -x,-y,-z
6 1/2-x,1/2-y,-z
7 x,-y,1/2+z
8 1/2+x,1/2-y,1/2+z
_cell_length_a                   30.4457(13)
_cell_length_b                   11.3540(5)
_cell_length_c                   11.5836(5)
_cell_angle_alpha                90
_cell_angle_beta                 106.5390(10)
_cell_angle_gamma                90
_cell_volume                     3838.55
loop_
_atom_site_label
_atom_site_type_symbol
_atom_site_fract_x
_atom_site_fract_y
_atom_site_fract_z
Co1 Co 0.2500 0.2500 0.0000
Co2 Co 0.5000 1.0000 0.0000
V1 V 0.355188(17) 0.09031(5) 0.06062(4)
V2 V 0.392386(17) -0.08915(4) 0.31860(4)
O1 O 0.29969(7) 0.1266(2) 0.02713(19)
O2 O 0.36697(9) -0.0184(2) 0.1765(2)
O3 O 0.38764(10) 0.2043(3) 0.1051(2)
O4 O 0.38123(11) -0.2284(2) 0.3029(2)
O5 O 0.36663(8) 0.0306(2) -0.0716(2)
O6 O 0.44908(8) 1.0709(2) -0.1371(2)
O7 O 0.52687(9) 0.9164(3) -0.1320(3)
N1 N 0.30004(9) 0.3878(2) -0.0020(2)
N2 N 0.26095(9) 0.2686(2) 0.2006(2)
N3 N 0.45737(9) 0.8491(3) -0.0059(3)
C1 C 0.30818(11) 0.4767(3) 0.0784(3)
H1 H 0.2919 0.4784 0.1352
C2 C 0.33958(12) 0.5659(3) 0.0806(3)
H2 H 0.3444 0.6248 0.1387
C3 C 0.36392(11) 0.5665(3) -0.0052(3)
C4 C 0.35580(12) 0.4739(3) -0.0875(3)
H3 H 0.3714 0.4700 -0.1458
C5 C 0.32428(11) 0.3876(3) -0.0818(3)
H4 H 0.3197 0.3259 -0.1367
C6 C 0.23717(10) 0.3482(3) 0.2441(3)
H5 H 0.2229 0.4091 0.1935
C7 C 0.23253(10) 0.3454(3) 0.3600(3)
H6 H 0.2158 0.4035 0.3852
C8 C 0.25309(11) 0.2549(3) 0.4384(3)
C9 C 0.27941(12) 0.1755(3) 0.3951(3)
H7 H 0.2951 0.1157 0.4449
C10 C 0.28255(12) 0.1848(3) 0.2780(3)
H8 H 0.3005 0.1303 0.2520
C11 C 0.43306(11) 0.7986(3) -0.1086(3)
H9 H 0.4367 0.8272 -0.1806
C12 C 0.40277(11) 0.7059(3) -0.1139(3)
H10 H 0.3867 0.6738 -0.1877
C13 C 0.39690(11) 0.6618(3) -0.0071(3)
C14 C 0.42269(15) 0.7134(4) 0.0995(3)
H11 H 0.4206 0.6851 0.1731
C15 C 0.45144(14) 0.8067(4) 0.0961(3)
H12 H 0.4674 0.8418 0.1684
Co1_2 Co 0.2500 0.2500 1.0000
Co2A Co 0.0000 -0.5000 0.0000
V1E V 0.144812(17) 0.40969(5) -0.06062(4)
V2E V 0.107614(17) 0.58915(4) -0.31860(4)
V2F V 0.392386(17) 0.08915(4) -0.18140(4)
V2F_2 V 0.392386(17) 1.08915(4) -0.18140(4)
V2B V 0.607614(17) 0.91085(4) 0.18140(4)
V2C V 0.107614(17) 0.41085(4) 0.18140(4)
O1E O 0.20031(7) 0.3734(2) -0.02713(19)
O2E O 0.13303(9) 0.5184(2) -0.1765(2)
O3E O 0.11236(10) 0.2957(3) -0.1051(2)
O4E O 0.11877(11) 0.7284(2) -0.3029(2)
O5E O 0.13337(8) 0.4694(2) 0.0716(2)
O5F O 0.36663(8) -0.0306(2) 0.4284(2)
O5C O 0.13337(8) 0.5306(2) -0.4284(2)
O6D O 0.55092(8) 0.9291(2) 0.1371(2)
O6F O 0.44908(8) -0.0709(2) 0.3629(2)
O6C O 0.05092(8) 0.5709(2) -0.3629(2)
O7D O 0.47313(9) 1.0836(3) 0.1320(3)
N1E N 0.19996(9) 0.1122(2) 0.0020(2)
N2E N 0.23905(9) 0.2314(2) 0.7994(2)
N2E_2 N 0.23905(9) 0.2314(2) -0.2006(2)
N3E N 0.04263(9) -0.3491(3) 0.0059(3)
N3D N 0.54263(9) 1.1509(3) 0.0059(3)
C1E C 0.19182(11) 0.0233(3) -0.0784(3)
H1E H 0.2081 0.0216 -0.1352
C2E C 0.16042(12) -0.0659(3) -0.0806(3)
H2E H 0.1556 -0.1248 -0.1387
C3E C 0.13608(11) -0.0665(3) 0.0052(3)
C4E C 0.14420(12) 0.0261(3) 0.0875(3)
H3E H 0.1286 0.0300 0.1458
C5E C 0.17572(11) 0.1124(3) 0.0818(3)
H4E H 0.1803 0.1741 0.1367
C6E C 0.26283(10) 0.1518(3) 0.7559(3)
H5E H 0.2771 0.0909 0.8065
C7E C 0.26747(10) 0.1546(3) 0.6400(3)
H6E H 0.2842 0.0965 0.6148
C8E C 0.24691(11) 0.2451(3) 0.5616(3)
C9E C 0.22059(12) 0.3245(3) 0.6049(3)
H7E H 0.2049 0.3843 0.5551
C10E C 0.21745(12) 0.3152(3) 0.7220(3)
H8E H 0.1995 0.3697 0.7480
C11E C 0.06694(11) -0.2986(3) 0.1086(3)
H9E H 0.0633 -0.3272 0.1806
C12E C 0.09723(11) -0.2059(3) 0.1139(3)
H10E H 0.1133 -0.1738 0.1877
C13E C 0.10310(11) -0.1618(3) 0.0071(3)
C14E C 0.07731(15) -0.2134(4) -0.0995(3)
H11E H 0.0794 -0.1851 -0.1731
C15E C 0.04856(14) -0.3067(4) -0.0961(3)
H12E H 0.0326 -0.3418 -0.1684
O8 O 0.5000 0.519(3) 0.7500
O10 O 0.4794(5) 0.4192(13) -0.0297(14)
O11 O 0.4650(9) 0.319(2) 0.110(2)
loop_
_geom_bond_atom_site_label_1
_geom_bond_atom_site_label_2
_geom_bond_site_symmetry_1
_geom_bond_site_symmetry_2
Co1 O1 1_555 1_555
Co2 O6 1_555 1_555
V1 O1 1_555 1_555
V2 O2 1_555 1_555
O2 V1 1_555 1_555
O3 V1 1_555 1_555
O4 V2 1_555 1_555
O5 V1 1_555 1_555
O6 V2F_2 1_555 1_555
O7 Co2 1_555 1_555
N1 Co1 1_555 1_555
N2 Co1 1_555 1_555
N3 Co2 1_555 1_555
C1 N1 1_555 1_555
H1 C1 1_555 1_555
C2 C1 1_555 1_555
H2 C2 1_555 1_555
C3 C2 1_555 1_555
C4 C3 1_555 1_555
H3 C4 1_555 1_555
C5 N1 1_555 1_555
H4 C5 1_555 1_555
C6 N2 1_555 1_555
H5 C6 1_555 1_555
C7 C6 1_555 1_555
H6 C7 1_555 1_555
C8 C7 1_555 1_555
C9 C8 1_555 1_555
H7 C9 1_555 1_555
C10 N2 1_555 1_555
H8 C10 1_555 1_555
C11 N3 1_555 1_555
H9 C11 1_555 1_555
C12 C11 1_555 1_555
H10 C12 1_555 1_555
C13 C3 1_555 1_555
C14 C13 1_555 1_555
H11 C14 1_555 1_555
C15 N3 1_555 1_555
H12 C15 1_555 1_555
Co1_2 N2E 1_555 1_555
Co2A N3E 1_555 1_555
V1E O1E 1_555 1_555
V2E O2E 1_555 1_555
V2F O5 1_555 1_555
V2B O6D 1_555 1_555
V2C O5E 1_555 1_555
O1E Co1 1_555 1_555
O2E V1E 1_555 1_555
O3E V1E 1_555 1_555
O4E V2E 1_555 1_555
O5E V1E 1_555 1_555
O5F V2 1_555 1_555
O5C V2E 1_555 1_555
O6D Co2 1_555 1_555
O6F V2 1_555 1_555
O6C V2E 1_555 1_555
O7D Co2 1_555 1_555
N1E Co1 1_555 1_555
N2E C6E 1_555 1_555
N2E_2 Co1 1_555 1_555
N3E C11E 1_555 1_555
N3D Co2 1_555 1_555
C1E N1E 1_555 1_555
H1E C1E 1_555 1_555
C2E C1E 1_555 1_555
H2E C2E 1_555 1_555
C3E C2E 1_555 1_555
C4E C3E 1_555 1_555
H3E C4E 1_555 1_555
C5E N1E 1_555 1_555
H4E C5E 1_555 1_555
C6E H5E 1_555 1_555
C7E C6E 1_555 1_555
H6E C7E 1_555 1_555
C8E C8 1_555 1_555
C9E C8E 1_555 1_555
H7E C9E 1_555 1_555
C10E N2E 1_555 1_555
H8E C10E 1_555 1_555
C11E H9E 1_555 1_555
C12E C11E 1_555 1_555
H10E C12E 1_555 1_555
C13E C3E 1_555 1_555
C14E C13E 1_555 1_555
H11E C14E 1_555 1_555
C15E N3E 1_555 1_555
H12E C15E 1_555 1_555
C4 C5 1_555 1_555
C9 C10 1_555 1_555
C12 C13 1_555 1_555
C14 C15 1_555 1_555
C4E C5E 1_555 1_555
C7E C8E 1_555 1_555
C9E C10E 1_555 1_555
C12E C13E 1_555 1_555
C14E C15E 1_555 1_555

#END
