
#######################################################################
#
#                 Cambridge Crystallographic Data Centre
#                                CCDC 
#
#######################################################################
#
# If this CIF has been generated from an entry in the Cambridge 
# Structural Database, then it will include bibliographic, chemical, 
# crystal, experimental, refinement or atomic coordinate data resulting 
# from the CCDC's data processing and validation procedures.
#
#######################################################################

data_IBITUK
_chemical_formula_moiety         '(C56 H78 Cu4 N18 O32)n'
_symmetry_cell_setting           triclinic
_symmetry_space_group_name_H-M   'P -1'
_symmetry_Int_Tables_number      2
_space_group_name_Hall           '-P 1'
loop_
_symmetry_equiv_pos_site_id
_symmetry_equiv_pos_as_xyz
1 x,y,z
2 -x,-y,-z
_cell_length_a                   12.108(2)
_cell_length_b                   13.115(3)
_cell_length_c                   14.530(3)
_cell_angle_alpha                73.38(3)
_cell_angle_beta                 68.48(3)
_cell_angle_gamma                79.95(3)
_cell_volume                     2050.52
loop_
_atom_site_label
_atom_site_type_symbol
_atom_site_fract_x
_atom_site_fract_y
_atom_site_fract_z
Cu1 Cu 1.0000 0.5000 0.5000
Cu2 Cu 0.788733(4) 0.729790(4) 0.710432(3)
Cu3 Cu 0.5000 1.0000 1.0000
O1 O 0.85830(3) 0.63194(2) 0.80785(2)
O2 O 0.54794(3) 0.90451(3) 1.11442(2)
H1 H 0.5134 0.9263 1.1662
O3 O 0.70340(2) 0.84135(2) 0.63170(2)
N1 N 0.66135(3) 0.63358(3) 0.75453(3)
N2 N -0.09075(3) 0.83112(3) 0.67360(3)
N3 N 0.34723(3) 0.93035(3) 1.05294(3)
O4 O 0.89512(3) 0.65451(3) 0.56525(2)
O5 O 0.47002(3) 0.89951(3) 0.77049(2)
C1 C 0.30016(4) 0.89587(4) 1.00014(3)
H2 H 0.3333 0.9001 0.9305
N4 N 0.06902(3) 0.89662(3) 0.65697(3)
N5 N 0.19867(3) 0.85424(4) 1.06071(3)
O6 O 0.93093(3) 0.40708(3) 0.63668(2)
H3 H 0.9444 0.3445 0.6334
O7 O 1.10522(3) 0.55400(3) 0.71854(2)
H4 H 1.1072 0.6066 0.7376
O8 O 1.13159(3) 0.53146(3) 0.53651(2)
H5 H 1.1202 0.5053 0.5974
O9 O 0.70014(3) 0.75758(3) 0.51938(3)
O10 O 0.56032(3) 1.04958(3) 0.71064(2)
O11 O 0.40180(4) 1.13696(4) 1.09335(3)
H6 H 0.4406 1.1420 1.1276
C2 C 0.51534(4) 0.97564(3) 0.70118(3)
N6 N 0.49194(3) 0.56967(3) 0.79612(3)
O12 O 1.00533(3) 0.40911(3) 0.78366(2)
C3 C 1.01790(3) 0.49831(3) 0.89921(3)
C4 C 0.57897(3) 0.91773(3) 0.53279(3)
C5 C 0.51232(3) 0.98654(3) 0.59492(3)
C6 C 0.56438(4) 0.93242(3) 0.43917(3)
H7 H 0.6075 0.8863 0.3979
N7 N 0.57444(4) 0.48455(4) 0.78957(4)
N8 N -0.00509(4) 0.98221(3) 0.62996(3)
C7 C 0.91727(4) 0.57225(3) 1.04493(3)
H8 H 0.8610 0.6214 1.0754
C8 C 0.93311(3) 0.57256(3) 0.94408(3)
C9 C 1.04318(4) 0.48842(4) 0.79119(3)
C10 C 0.01660(4) 0.80769(4) 0.68231(3)
H9 H 0.0497 0.7393 0.7030
O13 O 0.79971(4) 0.72690(4) 0.92364(3)
C11 C -0.09905(4) 0.93912(4) 0.64039(4)
H10 H -0.1654 0.9783 0.6265
C12 C 0.67474(5) 0.52739(4) 0.76408(5)
H11 H 0.7482 0.4882 0.7536
C13 C 0.54532(4) 0.65717(4) 0.77497(3)
H12 H 0.5072 0.7252 0.7745
C14 C 0.85739(4) 0.64980(4) 0.88868(3)
C15 C 0.66685(4) 0.83131(4) 0.56298(3)
C16 C 0.18699(4) 0.90771(5) 0.65862(4)
H13 H 0.1918 0.9801 0.6605
H14 H 0.2481 0.8934 0.5973
N9 N 0.17584(4) 0.86105(5) 1.15792(3)
C17 C 0.17202(4) 0.78101(4) 0.93330(3)
C18 C 0.29319(4) 0.66096(4) 0.82892(4)
C19 C 0.24521(4) 0.68731(4) 0.92393(4)
C20 C 0.20763(4) 0.82948(4) 0.75228(3)
C21 C 0.15403(4) 0.85331(4) 0.84744(3)
C22 C 0.11613(4) 0.80467(5) 1.03693(4)
H15 H 0.0447 0.8522 1.0388
H16 H 0.0932 0.7389 1.0882
C23 C 0.27704(4) 0.73245(4) 0.74148(4)
C24 C 0.36606(4) 0.55594(4) 0.82153(5)
H17 H 0.3387 0.5038 0.8860
H18 H 0.3558 0.5296 0.7694
C25 C 0.27567(5) 0.61614(5) 1.01551(4)
H19 H 0.3103 0.6571 1.0418
H20 H 0.3315 0.5583 0.9952
H21 H 0.2045 0.5881 1.0674
C26 C 0.26770(5) 0.90717(6) 1.14905(4)
H22 H 0.2778 0.9228 1.2039
C27 C 0.33639(5) 0.70713(6) 0.63972(4)
H23 H 0.3461 0.6311 0.6483
H24 H 0.4130 0.7356 0.6080
H25 H 0.2882 0.7384 0.5974
C28 C 0.07582(6) 0.95593(5) 0.85808(5)
H26 H 0.0836 1.0015 0.7916
H27 H 0.1000 0.9915 0.8961
H28 H -0.0057 0.9397 0.8933
Cu2A Cu 1.211267(4) 0.270210(4) 0.289568(3)
Cu2_2 Cu -0.211267(4) 0.729790(4) 0.710432(3)
Cu2A_2 Cu 1.211267(4) 0.270210(4) 1.289568(3)
Cu2A_3 Cu 0.211267(4) 1.270210(4) 0.289568(3)
Cu2_3 Cu 1.788733(4) 0.729790(4) 0.710432(3)
Cu3_2 Cu 1.5000 1.0000 1.0000
O1A O 1.14170(3) 0.36806(2) 1.19215(2)
O1A_2 O 1.14170(3) 0.36806(2) 0.19215(2)
O2A O 0.45206(3) 1.09549(3) 0.88558(2)
H1A H 0.4866 1.0737 0.8338
O3A O 0.29660(2) 1.15865(2) 0.36830(2)
O3A_2 O 1.29660(2) 0.15865(2) 0.36830(2)
N1_2 N 1.66135(3) 0.63358(3) 0.75453(3)
N1A N 1.33865(3) 0.36642(3) 0.24547(3)
N2_2 N 0.90925(3) 0.83112(3) 0.67360(3)
N2A N 1.09075(3) 0.16888(3) 0.32640(3)
N3_2 N 1.34723(3) 0.93035(3) 1.05294(3)
N3A N 0.65277(3) 1.06965(3) 0.94706(3)
O4A O 1.10488(3) 0.34549(3) 0.43475(2)
O5A O 0.52998(3) 1.10049(3) 0.22951(2)
C1_2 C 1.30016(4) 0.89587(4) 1.00014(3)
H2_2 H 1.3333 0.9001 0.9305
N4_2 N 1.06902(3) 0.89662(3) 0.65697(3)
N5_2 N 1.19867(3) 0.85424(4) 1.06071(3)
O6A O 1.06907(3) 0.59292(3) 0.36332(2)
H3A H 1.0556 0.6555 0.3666
O7A O 0.89478(3) 0.44600(3) 1.28146(2)
H4A H 0.8928 0.3934 1.2624
O8A O 0.86841(3) 0.46854(3) 0.46349(2)
H5A H 0.8798 0.4947 0.4026
O9A O 0.29986(3) 1.24242(3) 0.48062(3)
O10A O 0.43968(3) 0.95042(3) 0.28936(2)
O11A O 0.59820(4) 0.86304(4) 0.90665(3)
H6A H 0.5594 0.8580 0.8724
C2A C 0.48466(4) 1.02436(3) 0.29882(3)
N6_2 N 1.49194(3) 0.56967(3) 0.79612(3)
O12A O 0.99467(3) 0.59089(3) 1.21634(2)
C3A C 0.98210(3) 0.50169(3) 1.10079(3)
C4A C 0.42103(3) 1.08227(3) 0.46721(3)
C5A C 0.48768(3) 1.01346(3) 0.40508(3)
C6A C 0.43562(4) 1.06758(3) 0.56083(3)
H7A H 0.3925 1.1137 0.6021
N7_2 N 1.57444(4) 0.48455(4) 0.78957(4)
N8_2 N 0.99491(4) 0.98221(3) 0.62996(3)
C7A C 1.08273(4) 0.42775(3) 0.95507(3)
H8A H 1.1390 0.3786 0.9246
C8A C 1.06689(3) 0.42744(3) 1.05592(3)
C9A C 0.95682(4) 0.51158(4) 1.20881(3)
C10_2 C 1.01660(4) 0.80769(4) 0.68231(3)
H9_2 H 1.0497 0.7393 0.7030
O13A O 1.20029(4) 0.27310(4) 1.07636(3)
C11_2 C 0.90095(4) 0.93912(4) 0.64039(4)
H10_2 H 0.8346 0.9783 0.6265
C12_2 C 1.67474(5) 0.52739(4) 0.76408(5)
H11_2 H 1.7482 0.4882 0.7536
C13_2 C 1.54532(4) 0.65717(4) 0.77497(3)
H12_2 H 1.5072 0.7252 0.7745
C14A C 1.14261(4) 0.35020(4) 1.11132(3)
C15A C 0.33315(4) 1.16869(4) 0.43702(3)
C16_2 C 1.18699(4) 0.90771(5) 0.65862(4)
H13_2 H 1.1918 0.9801 0.6605
H14_2 H 1.2481 0.8934 0.5973
N9_2 N 1.17584(4) 0.86105(5) 1.15792(3)
C17_2 C 1.17202(4) 0.78101(4) 0.93330(3)
C18_2 C 1.29319(4) 0.66096(4) 0.82892(4)
C19_2 C 1.24521(4) 0.68731(4) 0.92393(4)
C20_2 C 1.20763(4) 0.82948(4) 0.75228(3)
C21_2 C 1.15403(4) 0.85331(4) 0.84744(3)
C22_2 C 1.11613(4) 0.80467(5) 1.03693(4)
H15_2 H 1.0447 0.8522 1.0388
H16_2 H 1.0932 0.7389 1.0882
C23_2 C 1.27704(4) 0.73245(4) 0.74148(4)
C24_2 C 1.36606(4) 0.55594(4) 0.82153(5)
H17_2 H 1.3387 0.5038 0.8860
H18_2 H 1.3558 0.5296 0.7694
C25_2 C 1.27567(5) 0.61614(5) 1.01551(4)
H19_2 H 1.3103 0.6571 1.0418
H20_2 H 1.3315 0.5583 0.9952
H21_2 H 1.2045 0.5881 1.0674
C26_2 C 1.26770(5) 0.90717(6) 1.14905(4)
H22_2 H 1.2778 0.9228 1.2039
C27_2 C 1.33639(5) 0.70713(6) 0.63972(4)
H23_2 H 1.3461 0.6311 0.6483
H24_2 H 1.4130 0.7356 0.6080
H25_2 H 1.2882 0.7384 0.5974
C28_2 C 1.07582(6) 0.95593(5) 0.85808(5)
H26_2 H 1.0836 1.0015 0.7916
H27_2 H 1.1000 0.9915 0.8961
H28_2 H 0.9943 0.9397 0.8933
O14 O 0.06816(4) 0.78304(3) 0.41676(4)
O15 O 0.79190(4) 0.85126(4) 0.06158(4)
O16 O 0.71345(5) 0.19891(6) 0.58297(5)
O17 O 0.35960(7) 0.42432(7) 0.50027(8)
O18 O 0.80923(8) 0.75153(7) 0.25856(7)
O19 O 0.4671(3) 0.62048(15) 0.38404(15)
loop_
_geom_bond_atom_site_label_1
_geom_bond_atom_site_label_2
_geom_bond_site_symmetry_1
_geom_bond_site_symmetry_2
Cu1 O4 1_555 1_555
Cu2 O1 1_555 1_555
Cu3 O2 1_555 1_555
O1 C14 1_555 1_555
O2 H1 1_555 1_555
O3 Cu2 1_555 1_555
N1 Cu2 1_555 1_555
N2 C10 1_555 1_555
N3 Cu3 1_555 1_555
O4 Cu2 1_555 1_555
O5 C2 1_555 1_555
C1 N3 1_555 1_555
H2 C1 1_555 1_555
N4 N8 1_555 1_555
N5 C1 1_555 1_555
O6 Cu1 1_555 1_555
H3 O6 1_555 1_555
O7 H4 1_555 1_555
O8 Cu1 1_555 1_555
H5 O8 1_555 1_555
O9 C15 1_555 1_555
O10 C2 1_555 1_555
O11 Cu3 1_555 1_555
H6 O11 1_555 1_555
C2 C5 1_555 1_555
N6 N7 1_555 1_555
O12 C9 1_555 1_555
C3 C8 1_555 1_555
C4 C5 1_555 1_555
C5 C6A 1_555 1_555
C6 C4 1_555 1_555
H7 C6 1_555 1_555
N7 C12 1_555 1_555
N8 C11 1_555 1_555
C7 H8 1_555 1_555
C8 C7 1_555 1_555
C9 O7 1_555 1_555
C10 N4 1_555 1_555
H9 C10 1_555 1_555
O13 C14 1_555 1_555
C11 N2 1_555 1_555
H10 C11 1_555 1_555
C12 N1 1_555 1_555
H11 C12 1_555 1_555
C13 N1 1_555 1_555
H12 C13 1_555 1_555
C14 C8 1_555 1_555
C15 O3 1_555 1_555
C16 N4 1_555 1_555
H13 C16 1_555 1_555
H14 C16 1_555 1_555
N9 N5 1_555 1_555
C17 C19 1_555 1_555
C18 C19 1_555 1_555
C19 C25 1_555 1_555
C20 C16 1_555 1_555
C21 C17 1_555 1_555
C22 N5 1_555 1_555
H15 C22 1_555 1_555
H16 C22 1_555 1_555
C23 C18 1_555 1_555
C24 N6 1_555 1_555
H17 C24 1_555 1_555
H18 C24 1_555 1_555
C25 H19 1_555 1_555
H20 C25 1_555 1_555
H21 C25 1_555 1_555
C26 N3 1_555 1_555
H22 C26 1_555 1_555
C27 C23 1_555 1_555
H23 C27 1_555 1_555
H24 C27 1_555 1_555
H25 C27 1_555 1_555
C28 C21 1_555 1_555
H26 C28 1_555 1_555
H27 C28 1_555 1_555
H28 C28 1_555 1_555
Cu2A O1A_2 1_555 1_555
Cu2_2 N2 1_555 1_555
Cu2A_2 O1A 1_555 1_555
Cu2A_3 O3A 1_555 1_555
Cu2_3 N1_2 1_555 1_555
Cu3_2 N3_2 1_555 1_555
O1A C14A 1_555 1_555
O2A Cu3 1_555 1_555
H1A O2A 1_555 1_555
O3A C15A 1_555 1_555
O3A_2 Cu2A 1_555 1_555
N1_2 C12_2 1_555 1_555
N1A Cu2A 1_555 1_555
N2_2 Cu2 1_555 1_555
N2A Cu2A 1_555 1_555
N3_2 C1_2 1_555 1_555
N3A Cu3 1_555 1_555
O4A Cu1 1_555 1_555
O5A C2A 1_555 1_555
C1_2 H2_2 1_555 1_555
N4_2 N8_2 1_555 1_555
N5_2 C1_2 1_555 1_555
O6A Cu1 1_555 1_555
H3A O6A 1_555 1_555
O7A H4A 1_555 1_555
O8A Cu1 1_555 1_555
H5A O8A 1_555 1_555
O9A C15A 1_555 1_555
O10A C2A 1_555 1_555
O11A Cu3 1_555 1_555
H6A O11A 1_555 1_555
C2A C5A 1_555 1_555
N6_2 N7_2 1_555 1_555
O12A C9A 1_555 1_555
C3A C7 1_555 1_555
C4A C5A 1_555 1_555
C5A C6 1_555 1_555
C6A C4A 1_555 1_555
H7A C6A 1_555 1_555
N7_2 C12_2 1_555 1_555
N8_2 C11_2 1_555 1_555
C7A C3 1_555 1_555
H8A C7A 1_555 1_555
C8A C3A 1_555 1_555
C9A O7A 1_555 1_555
C10_2 N2_2 1_555 1_555
H9_2 C10_2 1_555 1_555
O13A C14A 1_555 1_555
C11_2 N2_2 1_555 1_555
H10_2 C11_2 1_555 1_555
C12_2 H11_2 1_555 1_555
C13_2 N1_2 1_555 1_555
H12_2 C13_2 1_555 1_555
C14A C8A 1_555 1_555
C15A C4A 1_555 1_555
C16_2 N4_2 1_555 1_555
H13_2 C16_2 1_555 1_555
H14_2 C16_2 1_555 1_555
N9_2 N5_2 1_555 1_555
C17_2 C19_2 1_555 1_555
C18_2 C19_2 1_555 1_555
C19_2 C25_2 1_555 1_555
C20_2 C16_2 1_555 1_555
C21_2 C17_2 1_555 1_555
C22_2 N5_2 1_555 1_555
H15_2 C22_2 1_555 1_555
H16_2 C22_2 1_555 1_555
C23_2 C18_2 1_555 1_555
C24_2 N6_2 1_555 1_555
H17_2 C24_2 1_555 1_555
H18_2 C24_2 1_555 1_555
C25_2 H19_2 1_555 1_555
H20_2 C25_2 1_555 1_555
H21_2 C25_2 1_555 1_555
C26_2 N3_2 1_555 1_555
H22_2 C26_2 1_555 1_555
C27_2 C23_2 1_555 1_555
H23_2 C27_2 1_555 1_555
H24_2 C27_2 1_555 1_555
H25_2 C27_2 1_555 1_555
C28_2 C21_2 1_555 1_555
H26_2 C28_2 1_555 1_555
H27_2 C28_2 1_555 1_555
H28_2 C28_2 1_555 1_555
N6 C13 1_555 1_555
C3 C9 1_555 1_555
C4 C15 1_555 1_555
N9 C26 1_555 1_555
C17 C22 1_555 1_555
C18 C24 1_555 1_555
C20 C21 1_555 1_555
C20 C23 1_555 1_555
Cu2A O4A 1_555 1_555
N4_2 C10_2 1_555 1_555
N6_2 C13_2 1_555 1_555
C3A C9A 1_555 1_555
C7A C8A 1_555 1_555
N9_2 C26_2 1_555 1_555
C17_2 C22_2 1_555 1_555
C18_2 C24_2 1_555 1_555
C20_2 C21_2 1_555 1_555
C20_2 C23_2 1_555 1_555

#END
