
#######################################################################
#
#                 Cambridge Crystallographic Data Centre
#                                CCDC 
#
#######################################################################
#
# If this CIF has been generated from an entry in the Cambridge 
# Structural Database, then it will include bibliographic, chemical, 
# crystal, experimental, refinement or atomic coordinate data resulting 
# from the CCDC's data processing and validation procedures.
#
#######################################################################

data_HAPGIR
_chemical_formula_moiety         '(C36 H38 Mn6 N14 O20)n'
_symmetry_cell_setting           monoclinic
_symmetry_space_group_name_H-M   'P 21/c'
_symmetry_Int_Tables_number      14
_space_group_name_Hall           '-P 2ybc'
loop_
_symmetry_equiv_pos_site_id
_symmetry_equiv_pos_as_xyz
1 x,y,z
2 -x,1/2+y,1/2-z
3 -x,-y,-z
4 x,1/2-y,1/2+z
_cell_length_a                   14.208(3)
_cell_length_b                   14.095(2)
_cell_length_c                   15.117(3)
_cell_angle_alpha                90
_cell_angle_beta                 105.310(4)
_cell_angle_gamma                90
_cell_volume                     2919.92
loop_
_atom_site_label
_atom_site_type_symbol
_atom_site_fract_x
_atom_site_fract_y
_atom_site_fract_z
Mn1 Mn 0.5000 1.0000 0.0000
Mn2 Mn 0.66975(5) 0.85496(5) 0.15956(5)
Mn3 Mn 0.75203(5) 1.02415(5) 0.01657(5)
Mn4 Mn 1.0000 1.0000 0.0000
O1 O 0.6411(2) 0.9272(2) 0.0271(2)
H1 H 0.644(4) 0.894(3) -0.019(2)
O2 O 0.8409(2) 1.0022(2) -0.0771(2)
O3 O 0.7256(3) 0.8976(3) -0.1397(3)
O4 O 1.1627(3) 0.6353(2) 0.4120(2)
O5 O 1.0128(2) 0.6339(2) 0.4356(2)
O6 O 0.4492(3) 0.5784(2) 0.3754(2)
O7 O 0.3324(3) 0.4917(2) 0.2785(2)
O8 O 0.6667(3) 0.7128(3) 0.1007(3)
H2 H 0.716(3) 0.677(4) 0.121(4)
H3 H 0.654(4) 0.706(5) 0.0434(9)
O9 O 0.7038(3) 0.7871(3) 0.2954(2)
H4 H 0.706(5) 0.7275(9) 0.305(4)
H5 H 0.685(4) 0.809(3) 0.341(3)
C1 C 0.4402(3) 0.7698(3) 0.1632(3)
C2 C 0.3465(3) 0.7907(3) 0.1089(3)
C3 C 0.2656(4) 0.7346(4) 0.1106(4)
H6 H 0.2022 0.7482 0.0728
C4 C 0.2824(4) 0.6592(4) 0.1695(4)
H7 H 0.2301 0.6175 0.1703
C5 C 0.3764(4) 0.6414(3) 0.2298(3)
C6 C 0.4566(3) 0.6956(3) 0.2271(3)
H8 H 0.5195 0.6833 0.2664
C7 C 0.3867(4) 0.5636(3) 0.3000(3)
C8 C 0.9226(3) 0.8285(3) 0.2186(3)
C9 C 0.9946(3) 0.8643(3) 0.1787(3)
C10 C 1.0924(4) 0.8367(4) 0.2097(4)
H9 H 1.1408 0.8612 0.1830
C11 C 1.1153(4) 0.7725(4) 0.2806(4)
H10 H 1.1808 0.7514 0.3025
C12 C 1.0437(4) 0.7367(3) 0.3221(3)
C13 C 0.9467(4) 0.7639(3) 0.2922(3)
H11 H 0.8988 0.7401 0.3199
C14 C 1.0753(3) 0.6630(3) 0.3960(3)
C15 C 0.8020(4) 0.9394(3) -0.1373(3)
H12 H 0.8345 0.9243 -0.1829
N1 N 0.3537(3) 0.8695(3) 0.0581(3)
N2 N 0.4481(3) 0.8918(3) 0.0797(3)
N3 N 0.5034(3) 0.8345(3) 0.1415(3)
N4 N 0.8351(3) 0.8674(3) 0.1716(3)
N5 N 0.8548(3) 0.9242(3) 0.1087(3)
N6 N 0.9494(3) 0.9239(3) 0.1102(3)
Mn2B Mn 0.33025(5) 1.14504(5) -0.15956(5)
Mn3B Mn 0.24797(5) 0.97585(5) -0.01657(5)
O1B O 0.3589(2) 1.0728(2) -0.0271(2)
H1B H 0.356(4) 1.106(3) 0.019(2)
O2B O 0.1591(2) 0.9978(2) 0.0771(2)
O3B O 0.2744(3) 1.1024(3) 0.1397(3)
O4B O -0.1627(3) 1.3647(2) -0.4120(2)
O5B O -0.0128(2) 1.3661(2) -0.4356(2)
O6B O 0.5508(3) 1.4216(2) -0.3754(2)
O7B O 0.6676(3) 1.5083(2) -0.2785(2)
O8B O 0.3333(3) 1.2872(3) -0.1007(3)
H2B H 0.284(3) 1.323(4) -0.121(4)
H3B H 0.346(4) 1.294(5) -0.0434(9)
O9B O 0.2962(3) 1.2129(3) -0.2954(2)
H4B H 0.294(5) 1.2725(9) -0.305(4)
H5B H 0.315(4) 1.191(3) -0.341(3)
C1B C 0.5598(3) 1.2302(3) -0.1632(3)
C2B C 0.6535(3) 1.2093(3) -0.1089(3)
C3B C 0.7344(4) 1.2654(4) -0.1106(4)
H6B H 0.7978 1.2518 -0.0728
C4B C 0.7176(4) 1.3408(4) -0.1695(4)
H7B H 0.7699 1.3825 -0.1703
C5B C 0.6236(4) 1.3586(3) -0.2298(3)
C6B C 0.5434(3) 1.3044(3) -0.2271(3)
H8B H 0.4805 1.3167 -0.2664
C7B C 0.6133(4) 1.4364(3) -0.3000(3)
C8B C 0.0774(3) 1.1715(3) -0.2186(3)
C9B C 0.0054(3) 1.1357(3) -0.1787(3)
C10B C -0.0924(4) 1.1633(4) -0.2097(4)
H9B H -0.1408 1.1388 -0.1830
C11B C -0.1153(4) 1.2275(4) -0.2806(4)
H10B H -0.1808 1.2486 -0.3025
C12B C -0.0437(4) 1.2633(3) -0.3221(3)
C13B C 0.0533(4) 1.2361(3) -0.2922(3)
H11B H 0.1012 1.2599 -0.3199
C14B C -0.0753(3) 1.3370(3) -0.3960(3)
C15B C 0.1980(4) 1.0606(3) 0.1373(3)
H12B H 0.1655 1.0757 0.1829
N1B N 0.6463(3) 1.1305(3) -0.0581(3)
N2B N 0.5519(3) 1.1082(3) -0.0797(3)
N3B N 0.4966(3) 1.1655(3) -0.1415(3)
N4B N 0.1649(3) 1.1326(3) -0.1716(3)
N5B N 0.1452(3) 1.0758(3) -0.1087(3)
N6B N 0.0506(3) 1.0761(3) -0.1102(3)
Mn1A Mn 0.5000 0.5000 0.5000
Mn1A_2 Mn 0.5000 1.5000 -0.5000
Mn2A Mn 0.33025(5) 0.35496(5) 0.34044(5)
Mn2C Mn 0.66975(5) 1.64504(5) -0.34044(5)
Mn3A Mn 1.24797(5) 0.52415(5) 0.48343(5)
Mn3C Mn -0.24797(5) 1.47585(5) -0.48343(5)
Mn4_2 Mn 0.0000 1.0000 0.0000
Mn4A Mn 0.0000 1.5000 -0.5000
Mn4A_2 Mn 1.0000 0.5000 0.5000
O2B_2 O 1.1591(2) 0.9978(2) 0.0771(2)
O4A O 0.8373(3) 1.1353(2) 0.0880(2)
O4C O 0.1627(3) 0.8647(2) -0.0880(2)
O5A O 0.9872(2) 1.1339(2) 0.0644(2)
O5C O 1.0128(2) 0.8661(2) -0.0644(2)
O6A O 0.5508(3) 1.0784(2) 0.1246(2)
O6C O 0.4492(3) 0.9216(2) -0.1246(2)
O7A O 0.6676(3) 0.9917(2) 0.2215(2)
O7C O 0.3324(3) 1.0083(2) -0.2215(2)
N6B_2 N 1.0506(3) 1.0761(3) -0.1102(3)
O10 O 0.6007(4) 0.8441(4) 0.4186(3)
C16 C 0.4119(7) 0.8371(8) 0.4426(7)
H13 H 0.4454 0.7759 0.4459
H14 H 0.3412 0.8272 0.4214
H15 H 0.4280 0.8664 0.5035
C17 C 0.3678(7) 0.9520(8) 0.3138(7)
H16 H 0.3944 0.9740 0.2638
H17 H 0.3479 1.0067 0.3445
H18 H 0.3111 0.9113 0.2888
C18 C 0.5330(6) 0.8957(6) 0.3720(5)
H19 H 0.5483 0.9362 0.3275
N7 N 0.4424(4) 0.8981(4) 0.3799(4)
O11 O 0.8180(3) 0.5914(4) 0.1479(3)
C19 C 0.996(2) 0.5321(13) 0.1705(15)
H20 H 1.0525 0.5627 0.2124
H21 H 1.0176 0.4743 0.1454
H22 H 0.9480 0.5157 0.2039
C20 C 0.8716(9) 0.6276(9) 0.0949(9)
H23 H 0.8431 0.6803 0.0582
C21 C 1.0199(8) 0.6312(10) 0.0499(10)
H24 H 1.0415 0.5764 0.0205
H25 H 1.0748 0.6558 0.0982
H26 H 0.9960 0.6809 0.0041
N8 N 0.9473(5) 0.6044(5) 0.0870(5)
loop_
_geom_bond_atom_site_label_1
_geom_bond_atom_site_label_2
_geom_bond_site_symmetry_1
_geom_bond_site_symmetry_2
Mn1 O1 1_555 1_555
Mn2 O1 1_555 1_555
Mn3 O1 1_555 1_555
Mn4 O2 1_555 1_555
O1 H1 1_555 1_555
O2 Mn3 1_555 1_555
O3 C15 1_555 1_555
O4 C14 1_555 1_555
O5 C14 1_555 1_555
O6 C7 1_555 1_555
O7 C7 1_555 1_555
O8 Mn2 1_555 1_555
H2 O8 1_555 1_555
H3 O8 1_555 1_555
O9 Mn2 1_555 1_555
H4 O9 1_555 1_555
H5 O9 1_555 1_555
C1 C2 1_555 1_555
C2 C3 1_555 1_555
C3 H6 1_555 1_555
C4 C3 1_555 1_555
H7 C4 1_555 1_555
C5 C4 1_555 1_555
C6 C1 1_555 1_555
H8 C6 1_555 1_555
C7 C5 1_555 1_555
C8 C9 1_555 1_555
C9 C10 1_555 1_555
C10 H9 1_555 1_555
C11 C10 1_555 1_555
H10 C11 1_555 1_555
C12 C11 1_555 1_555
C13 C8 1_555 1_555
H11 C13 1_555 1_555
C14 C12 1_555 1_555
C15 O2 1_555 1_555
H12 C15 1_555 1_555
N1 C2 1_555 1_555
N2 Mn1 1_555 1_555
N3 Mn2 1_555 1_555
N4 Mn2 1_555 1_555
N5 Mn3 1_555 1_555
N6 Mn4 1_555 1_555
O10 C18 1_555 1_555
C16 H13 1_555 1_555
H14 C16 1_555 1_555
H15 C16 1_555 1_555
C17 H16 1_555 1_555
H17 C17 1_555 1_555
H18 C17 1_555 1_555
C18 H19 1_555 1_555
N7 C16 1_555 1_555
O11 C20 1_555 1_555
C19 H20 1_555 1_555
H21 C19 1_555 1_555
H22 C19 1_555 1_555
C20 H23 1_555 1_555
C21 H24 1_555 1_555
H25 C21 1_555 1_555
H26 C21 1_555 1_555
N8 C19 1_555 1_555
Mn2B O1B 1_555 1_555
Mn3B N1 1_555 1_555
O1B Mn1 1_555 1_555
H1B O1B 1_555 1_555
O2B Mn3B 1_555 1_555
O3B C15B 1_555 1_555
O4B C14B 1_555 1_555
O5B C14B 1_555 1_555
O6B C7B 1_555 1_555
O7B C7B 1_555 1_555
O8B Mn2B 1_555 1_555
H2B O8B 1_555 1_555
H3B O8B 1_555 1_555
O9B Mn2B 1_555 1_555
H4B O9B 1_555 1_555
H5B O9B 1_555 1_555
C1B C2B 1_555 1_555
C2B C3B 1_555 1_555
C3B H6B 1_555 1_555
C4B C3B 1_555 1_555
H7B C4B 1_555 1_555
C5B C4B 1_555 1_555
C6B C1B 1_555 1_555
H8B C6B 1_555 1_555
C7B C5B 1_555 1_555
C8B C9B 1_555 1_555
C9B C10B 1_555 1_555
C10B H9B 1_555 1_555
C11B C10B 1_555 1_555
H10B C11B 1_555 1_555
C12B C11B 1_555 1_555
C13B C8B 1_555 1_555
H11B C13B 1_555 1_555
C14B C12B 1_555 1_555
C15B O2B 1_555 1_555
H12B C15B 1_555 1_555
N1B Mn3 1_555 1_555
N2B Mn1 1_555 1_555
N3B Mn2B 1_555 1_555
N4B Mn2B 1_555 1_555
N5B Mn3B 1_555 1_555
N6B C9B 1_555 1_555
Mn1A O6 1_555 1_555
Mn1A_2 O6B 1_555 1_555
Mn2A O7 1_555 1_555
Mn2C O7B 1_555 1_555
Mn3A O4 1_555 1_555
Mn3C O4B 1_555 1_555
Mn4_2 O2B 1_555 1_555
Mn4A O5B 1_555 1_555
Mn4A_2 O5 1_555 1_555
O2B_2 Mn4 1_555 1_555
O4A Mn3 1_555 1_555
O4C Mn3B 1_555 1_555
O5A Mn4 1_555 1_555
O5C Mn4 1_555 1_555
O6A Mn1 1_555 1_555
O6C Mn1 1_555 1_555
O7A Mn2 1_555 1_555
O7C Mn2B 1_555 1_555
N6B_2 Mn4 1_555 1_555
C1 N3 1_555 1_555
C5 C6 1_555 1_555
C8 N4 1_555 1_555
C9 N6 1_555 1_555
C12 C13 1_555 1_555
N1 N2 1_555 1_555
N2 N3 1_555 1_555
N4 N5 1_555 1_555
N5 N6 1_555 1_555
C17 N7 1_555 1_555
C18 N7 1_555 1_555
C20 N8 1_555 1_555
C21 N8 1_555 1_555
Mn3B O1B 1_555 1_555
C1B N3B 1_555 1_555
C2B N1B 1_555 1_555
C5B C6B 1_555 1_555
C8B N4B 1_555 1_555
C12B C13B 1_555 1_555
N1B N2B 1_555 1_555
N2B N3B 1_555 1_555
N4B N5B 1_555 1_555
N5B N6B 1_555 1_555
N6B Mn4_2 1_555 1_555

#END
