
#######################################################################
#
#                 Cambridge Crystallographic Data Centre
#                                CCDC 
#
#######################################################################
#
# If this CIF has been generated from an entry in the Cambridge 
# Structural Database, then it will include bibliographic, chemical, 
# crystal, experimental, refinement or atomic coordinate data resulting 
# from the CCDC's data processing and validation procedures.
#
#######################################################################

data_KOMFUO
_chemical_formula_moiety         '(C8 H10 Cu1 N14 O7)n'
_symmetry_cell_setting           monoclinic
_symmetry_space_group_name_H-M   'P 21/n'
_symmetry_Int_Tables_number      14
_space_group_name_Hall           '-P 2yn'
loop_
_symmetry_equiv_pos_site_id
_symmetry_equiv_pos_as_xyz
1 x,y,z
2 1/2-x,1/2+y,1/2-z
3 -x,-y,-z
4 1/2+x,1/2-y,1/2+z
_cell_length_a                   10.6466(16)
_cell_length_b                   12.0502(18)
_cell_length_c                   12.7926(19)
_cell_angle_alpha                90
_cell_angle_beta                 92.320(3)
_cell_angle_gamma                90
_cell_volume                     1639.86
loop_
_atom_site_label
_atom_site_type_symbol
_atom_site_fract_x
_atom_site_fract_y
_atom_site_fract_z
Cu1 Cu 0.12299(3) 0.62973(3) 0.49520(3)
N1 N 0.1380(2) 0.7806(2) 0.42982(18)
N2 N 0.0680(3) 0.8731(2) 0.4545(2)
N3 N 0.2074(2) 0.9192(2) 0.34346(19)
N4 N 0.2835(2) 0.9801(2) 0.28005(19)
N5 N 0.4390(2) 1.0809(2) 0.22901(19)
N6 N 0.3539(2) 1.0614(2) 0.14541(18)
N7 N 0.1520(2) 0.48119(19) 0.56360(18)
N8 N 0.0917(2) 0.38198(19) 0.53656(19)
N9 N 0.2368(2) 0.3518(2) 0.65679(18)
N10 N 0.3138(2) 0.2961(2) 0.72826(18)
N11 N 0.4687(3) 0.1999(3) 0.7952(2)
N12 N 0.3727(2) 0.2029(2) 0.86475(18)
C1 C 0.2205(3) 0.8100(3) 0.3639(2)
H1 H 0.2794 0.7633 0.3351
C2 C 0.1118(3) 0.9553(3) 0.4020(3)
H2 H 0.0824 1.0279 0.4040
C3 C 0.3947(3) 1.0307(3) 0.3091(2)
H3 H 0.4325 1.0292 0.3760
C4 C 0.2621(3) 1.0016(2) 0.1775(2)
H4 H 0.1930 0.9776 0.1367
C5 C 0.2387(3) 0.4610(3) 0.6355(2)
H5 H 0.2927 0.5130 0.6667
C6 C 0.1456(3) 0.3052(2) 0.5938(2)
H6 H 0.1250 0.2302 0.5919
C7 C 0.4300(3) 0.2557(3) 0.7137(3)
H7 H 0.4755 0.2663 0.6540
C8 C 0.2805(3) 0.2602(3) 0.8227(2)
H8 H 0.2041 0.2742 0.8529
Cu1A Cu 0.37701(3) 1.12973(3) 0.00480(3)
Cu1B Cu -0.12299(3) 0.37027(3) 0.50480(3)
Cu1A_2 Cu 0.37701(3) 0.12973(3) 1.00480(3)
N6A N 0.1461(2) 0.5614(2) 0.35459(18)
N8B N -0.0917(2) 0.61802(19) 0.46344(19)
N12A N 0.1273(2) 0.7029(2) 0.63525(18)
N13 N 0.9777(3) 0.8677(2) 0.0515(2)
O1 O 0.9731(3) 0.8837(2) 0.1473(2)
O2 O 0.8798(2) 0.8467(2) -0.0020(2)
O3 O 1.0806(3) 0.8737(3) 0.0090(2)
N14 N 0.1983(3) 0.5360(3) 0.9163(2)
O4 O 0.2783(3) 0.5438(3) 0.8492(2)
O5 O 0.1665(4) 0.6208(3) 0.9625(3)
O6 O 0.1523(3) 0.4456(2) 0.9421(3)
O7 O 0.2146(3) 0.2159(3) 0.3490(2)
H9 H 0.2604 0.2030 0.4041
H10 H 0.1414 0.2417 0.3601
loop_
_geom_bond_atom_site_label_1
_geom_bond_atom_site_label_2
_geom_bond_site_symmetry_1
_geom_bond_site_symmetry_2
Cu1 N1 1_555 1_555
N1 N2 1_555 1_555
N2 C2 1_555 1_555
N3 N4 1_555 1_555
N4 C3 1_555 1_555
N5 N6 1_555 1_555
N6 C4 1_555 1_555
N7 Cu1 1_555 1_555
N8 N7 1_555 1_555
N9 N10 1_555 1_555
N10 C7 1_555 1_555
N11 N12 1_555 1_555
N12 C8 1_555 1_555
C1 N1 1_555 1_555
H1 C1 1_555 1_555
C2 N3 1_555 1_555
H2 C2 1_555 1_555
C3 N5 1_555 1_555
H3 C3 1_555 1_555
C4 N4 1_555 1_555
H4 C4 1_555 1_555
C5 N7 1_555 1_555
H5 C5 1_555 1_555
C6 N8 1_555 1_555
H6 C6 1_555 1_555
C7 N11 1_555 1_555
H7 C7 1_555 1_555
C8 N10 1_555 1_555
H8 C8 1_555 1_555
N13 O1 1_555 1_555
O2 N13 1_555 1_555
O3 N13 1_555 1_555
N14 O4 1_555 1_555
O5 N14 1_555 1_555
O6 N14 1_555 1_555
O7 H9 1_555 1_555
H10 O7 1_555 1_555
Cu1A N6 1_555 1_555
Cu1B N8 1_555 1_555
Cu1A_2 N12 1_555 1_555
N6A Cu1 1_555 1_555
N8B Cu1 1_555 1_555
N12A Cu1 1_555 1_555
N3 C1 1_555 1_555
N9 C5 1_555 1_555
N9 C6 1_555 1_555

#END
