
#######################################################################
#
#                 Cambridge Crystallographic Data Centre
#                                CCDC 
#
#######################################################################
#
# If this CIF has been generated from an entry in the Cambridge 
# Structural Database, then it will include bibliographic, chemical, 
# crystal, experimental, refinement or atomic coordinate data resulting 
# from the CCDC's data processing and validation procedures.
#
#######################################################################

data_KOMGEZ
_chemical_formula_moiety         '(C36 H36 Cd3 Cl3 N54 O12 3+)n'
_symmetry_cell_setting           rhombohedral
_symmetry_space_group_name_H-M   'R -3 c'
_symmetry_Int_Tables_number      167
_space_group_name_Hall           '-R 3 2"c'
loop_
_symmetry_equiv_pos_site_id
_symmetry_equiv_pos_as_xyz
1 x,y,z
2 -y,x-y,z
3 -x+y,-x,z
4 y,x,1/2-z
5 2/3+x,1/3+y,1/3+z
6 2/3-y,1/3+x-y,1/3+z
7 2/3-x+y,1/3-x,1/3+z
8 2/3+y,1/3+x,5/6-z
9 1/3+x,2/3+y,2/3+z
10 1/3+y,2/3+x,1/6-z
11 x-y,-y,1/2-z
12 -x,-x+y,1/2-z
13 1/3-y,2/3+x-y,2/3+z
14 1/3-x+y,2/3-x,2/3+z
15 1/3+x-y,2/3-y,1/6-z
16 1/3-x,2/3-x+y,1/6-z
17 2/3+x-y,1/3-y,5/6-z
18 2/3-x,1/3-x+y,5/6-z
19 -x,-y,-z
20 y,-x+y,-z
21 x-y,x,-z
22 -y,-x,1/2+z
23 1/3-x,2/3-y,2/3-z
24 1/3+y,2/3-x+y,2/3-z
25 1/3+x-y,2/3+x,2/3-z
26 1/3-y,2/3-x,1/6+z
27 2/3-x,1/3-y,1/3-z
28 2/3-y,1/3-x,5/6+z
29 -x+y,y,1/2+z
30 x,x-y,1/2+z
31 2/3+y,1/3-x+y,1/3-z
32 2/3+x-y,1/3+x,1/3-z
33 2/3-x+y,1/3+y,5/6+z
34 2/3+x,1/3+x-y,5/6+z
35 1/3-x+y,2/3+y,1/6+z
36 1/3+x,2/3+x-y,1/6+z
_cell_length_a                   11.1514(9)
_cell_length_b                   11.1514(9)
_cell_length_c                   102.578(11)
_cell_angle_alpha                90
_cell_angle_beta                 90
_cell_angle_gamma                120.00
_cell_volume                     11047
loop_
_atom_site_label
_atom_site_type_symbol
_atom_site_fract_x
_atom_site_fract_y
_atom_site_fract_z
Cd1 Cd 0.0000 0.0000 0.0000
Cd2 Cd 0.6667 0.3333 0.063135(4)
N1 N 0.1389(4) 0.2013(4) 0.01193(4)
N2 N 0.0936(4) 0.2809(4) 0.01832(4)
N3 N 0.2952(4) 0.3299(4) 0.02566(3)
N4 N 0.4149(4) 0.3860(3) 0.03306(3)
N5 N 0.6312(4) 0.5070(4) 0.03852(4)
N6 N 0.5564(4) 0.4126(4) 0.04843(3)
N7 N 0.6544(3) 0.4958(3) 0.07670(3)
N8 N 0.6667 0.6853(4) 0.0833
N9 N 0.6667 0.8088(4) 0.0833
N10 N 0.6154(7) 0.9674(5) 0.08784(5)
C1 C 0.2584(5) 0.2315(5) 0.01638(4)
H1 H 0.3108 0.1922 0.0137
C2 C 0.1899(5) 0.3571(5) 0.02648(5)
H2 H 0.1874 0.4213 0.0321
C3 C 0.5426(5) 0.4878(5) 0.02952(5)
H3 H 0.5634 0.5368 0.0217
C4 C 0.4289(5) 0.3422(5) 0.04487(4)
H4 H 0.3577 0.2721 0.0497
C5 C 0.6460(4) 0.6024(4) 0.07285(4)
H5 H 0.6287 0.6192 0.0644
C6 C 0.5832(7) 0.8406(6) 0.09020(7)
H6 H 0.5132 0.7806 0.0958
Cd2A Cd -0.3333 0.3334 0.063135(4)
Cd2I Cd 0.6666 0.3334 0.103532(4)
Cd2_2 Cd -0.3333 -0.6667 0.063135(4)
Cd2R Cd -0.6667 -0.3333 -0.063135(4)
Cd2R_2 Cd 0.3333 -0.3333 -0.063135(4)
Cd2R_3 Cd 0.3333 0.6667 -0.063135(4)
N1A N -0.2013(4) -0.0624(6) 0.01193(4)
N1B N 0.0624(6) -0.1389(4) 0.01193(4)
N1R N -0.1389(4) -0.2013(4) -0.01193(4)
N1S N 0.2013(4) 0.0624(6) -0.01193(4)
N1T N -0.0624(6) 0.1389(4) -0.01193(4)
N2A N -0.2809(4) -0.1873(6) 0.01832(4)
N2B N 0.1873(6) -0.0936(4) 0.01832(4)
N2R N -0.0936(4) -0.2809(4) -0.01832(4)
N2S N 0.2809(4) 0.1873(6) -0.01832(4)
N2T N -0.1873(6) 0.0936(4) -0.01832(4)
N3A N -0.3299(4) -0.0347(6) 0.02566(3)
N3B N 0.0347(6) -0.2952(4) 0.02566(3)
N3R N -0.2952(4) -0.3299(4) -0.02566(3)
N3S N 0.3299(4) 0.0347(6) -0.02566(3)
N3T N -0.0347(6) 0.2952(4) -0.02566(3)
N4A N -0.3860(3) 0.0289(5) 0.03306(3)
N4B N -0.0289(5) -0.4149(4) 0.03306(3)
N4R N -0.4149(4) -0.3860(3) -0.03306(3)
N4S N 0.3860(3) -0.0289(5) -0.03306(3)
N4T N 0.0289(5) 0.4149(4) -0.03306(3)
N5A N -0.5070(4) 0.1242(6) 0.03852(4)
N5B N -0.1242(6) -0.6312(4) 0.03852(4)
N5R N -0.6312(4) -0.5070(4) -0.03852(4)
N5S N 0.5070(4) -0.1242(6) -0.03852(4)
N5T N 0.1242(6) 0.6312(4) -0.03852(4)
N6A N -0.4126(4) 0.1438(6) 0.04843(3)
N6B N -0.1438(6) -0.5564(4) 0.04843(3)
N6R N -0.5564(4) -0.4126(4) -0.04843(3)
N6S N 0.4126(4) -0.1438(6) -0.04843(3)
N6T N 0.1438(6) 0.5564(4) -0.04843(3)
N6A_2 N 0.5874(4) 0.1438(6) 0.04843(3)
N6B_2 N 0.8562(6) 0.4436(4) 0.04843(3)
N6_2 N -0.4436(4) 0.4126(4) 0.04843(3)
N6B_3 N -0.1438(6) 0.4436(4) 0.04843(3)
N7O N 0.6789(3) 0.5081(4) 0.08997(3)
N7A N 0.5042(3) 0.1586(4) 0.07670(3)
N7N N 0.4919(4) 0.1709(3) 0.08997(3)
N7B N 0.8414(4) 0.3456(3) 0.07670(3)
N7I N 0.8291(3) 0.3211(3) 0.08997(3)
N7_2 N -0.3456(3) 0.4958(3) 0.07670(3)
N7A_2 N -0.4958(3) 0.1586(4) 0.07670(3)
N7B_2 N -0.1586(4) 0.3456(3) 0.07670(3)
N8A N 0.3147(4) -0.0186(4) 0.0833
N8B N 1.0186(4) 0.3333 0.0833
N9A N 0.1912(4) -0.1421(4) 0.0833
N9B N 1.1421(4) 0.3333 0.0833
N10O N 0.7179(7) 1.0187(9) 0.07883(5)
N10A N 0.0326(5) -0.3520(9) 0.08784(5)
N10N N -0.0187(9) -0.3007(5) 0.07883(5)
N10B N 1.3520(9) 0.3846(7) 0.08784(5)
N10I N 1.3007(5) 0.2821(7) 0.07883(5)
C1A C -0.2315(5) 0.0269(7) 0.01638(4)
C1B C -0.0269(7) -0.2584(5) 0.01638(4)
C1R C -0.2584(5) -0.2315(5) -0.01638(4)
C1S C 0.2315(5) -0.0269(7) -0.01638(4)
C1T C 0.0269(7) 0.2584(5) -0.01638(4)
H1A H -0.1922 0.1186 0.0137
H1B H -0.1186 -0.3108 0.0137
H1R H -0.3108 -0.1922 -0.0137
H1S H 0.1922 -0.1186 -0.0137
H1T H 0.1186 0.3108 -0.0137
C2A C -0.3571(5) -0.1672(7) 0.02648(5)
C2B C 0.1672(7) -0.1899(5) 0.02648(5)
C2R C -0.1899(5) -0.3571(5) -0.02648(5)
C2S C 0.3571(5) 0.1672(7) -0.02648(5)
C2T C -0.1672(7) 0.1899(5) -0.02648(5)
H2A H -0.4213 -0.2339 0.0321
H2B H 0.2339 -0.1874 0.0321
H2R H -0.1874 -0.4213 -0.0321
H2S H 0.4213 0.2339 -0.0321
H2T H -0.2339 0.1874 -0.0321
C3A C -0.4878(5) 0.0548(7) 0.02952(5)
C3B C -0.0548(7) -0.5426(5) 0.02952(5)
C3R C -0.5426(5) -0.4878(5) -0.02952(5)
C3S C 0.4878(5) -0.0548(7) -0.02952(5)
C3T C 0.0548(7) 0.5426(5) -0.02952(5)
H3A H -0.5368 0.0266 0.0217
H3B H -0.0266 -0.5634 0.0217
H3R H -0.5634 -0.5368 -0.0217
H3S H 0.5368 -0.0266 -0.0217
H3T H 0.0266 0.5634 -0.0217
C4A C -0.3422(5) 0.0867(7) 0.04487(4)
C4B C -0.0867(7) -0.4289(5) 0.04487(4)
C4R C -0.4289(5) -0.3422(5) -0.04487(4)
C4S C 0.3422(5) -0.0867(7) -0.04487(4)
C4T C 0.0867(7) 0.4289(5) -0.04487(4)
H4A H -0.2721 0.0856 0.0497
H4B H -0.0856 -0.3577 0.0497
H4R H -0.3577 -0.2721 -0.0497
H4S H 0.2721 -0.0856 -0.0497
H4T H 0.0856 0.3577 -0.0497
C5O C 0.6873(4) 0.6231(6) 0.09382(4)
C5A C 0.3976(4) 0.0436(6) 0.07285(4)
C5N C 0.3769(6) 0.0643(4) 0.09382(4)
C5B C 0.9564(6) 0.3540(4) 0.07285(4)
C5I C 0.9357(4) 0.3127(4) 0.09382(4)
H5O H 0.7046 0.6572 0.1023
H5A H 0.3808 0.0095 0.0644
H5N H 0.3428 0.0475 0.1023
H5B H 0.9905 0.3713 0.0644
H5I H 0.9525 0.2954 0.1023
C6O C 0.7501(7) 0.9241(9) 0.07647(7)
C6A C 0.1594(6) -0.2574(9) 0.09020(7)
C6N C 0.0759(9) -0.1739(6) 0.07647(7)
C6B C 1.2574(9) 0.4168(7) 0.09020(7)
C6I C 1.1739(6) 0.2499(7) 0.07647(7)
H6O H 0.8201 0.9341 0.0709
H6A H 0.2194 -0.2674 0.0958
H6N H 0.0659 -0.1139 0.0709
H6B H 1.2674 0.4868 0.0958
H6I H 1.1139 0.1799 0.0709
Cl1 Cl 1.0000 -0.0000 0.04777(2)
O1 O 1.0000 0.0000 0.03425(11)
O2 O 0.9511(6) 0.0875(6) 0.05246(6)
O2A O 0.9125(6) -0.1364(8) 0.05246(6)
O2B O 1.1364(8) 0.0489(6) 0.05246(6)
Cl2 Cl 0.3333 0.6667 0.05611(2)
O3 O 0.3333 0.6667 0.06980(14)
O4 O 0.3461(8) 0.7899(7) 0.05174(7)
O4A O 0.2101(7) 0.5562(11) 0.05174(7)
O4B O 0.4438(11) 0.6539(8) 0.05174(7)
Cl3 Cl 0.3333 0.6667 0.00206(4)
O5 O 0.3333 0.6667 0.01538(12)
O6 O 0.4399(12) 0.7906(12) -0.00186(10)
O6A O 0.2094(12) 0.6493(17) -0.00186(10)
O6B O 0.3507(17) 0.5601(12) -0.00186(10)
loop_
_geom_bond_atom_site_label_1
_geom_bond_atom_site_label_2
_geom_bond_site_symmetry_1
_geom_bond_site_symmetry_2
Cd1 N1 1_555 1_555
Cd2 N6 1_555 1_555
N1 N2 1_555 1_555
N2 C2 1_555 1_555
N3 N4 1_555 1_555
N4 C3 1_555 1_555
N5 N6 1_555 1_555
N6 C4 1_555 1_555
N7 Cd2 1_555 1_555
N8 N9 1_555 1_555
N9 C6 1_555 1_555
N10 C6 1_555 1_555
C1 N1 1_555 1_555
H1 C1 1_555 1_555
C2 N3 1_555 1_555
H2 C2 1_555 1_555
C3 N5 1_555 1_555
H3 C3 1_555 1_555
C4 N4 1_555 1_555
H4 C4 1_555 1_555
C5 N7 1_555 1_555
H5 C5 1_555 1_555
C6 H6 1_555 1_555
Cl1 O1 1_555 1_555
Cl2 O3 1_555 1_555
Cl3 O5 1_555 1_555
O2 Cl1 1_555 1_555
O4 Cl2 1_555 1_555
O6 Cl3 1_555 1_555
Cd2A N6A 1_555 1_555
Cd2I N7O 1_555 1_555
Cd2_2 N6B 1_555 1_555
Cd2R N6R 1_555 1_555
Cd2R_2 N6S 1_555 1_555
Cd2R_3 N6T 1_555 1_555
N1A Cd1 1_555 1_555
N1B Cd1 1_555 1_555
N1R Cd1 1_555 1_555
N1S Cd1 1_555 1_555
N1T Cd1 1_555 1_555
N2A N1A 1_555 1_555
N2B N1B 1_555 1_555
N2R N1R 1_555 1_555
N2S N1S 1_555 1_555
N2T N1T 1_555 1_555
N3A N4A 1_555 1_555
N3B N4B 1_555 1_555
N3R N4R 1_555 1_555
N3S N4S 1_555 1_555
N3T N4T 1_555 1_555
N4A C3A 1_555 1_555
N4B C3B 1_555 1_555
N4R C3R 1_555 1_555
N4S C3S 1_555 1_555
N4T C3T 1_555 1_555
N5A N6A 1_555 1_555
N5B N6B 1_555 1_555
N5R N6R 1_555 1_555
N5S N6S 1_555 1_555
N5T N6T 1_555 1_555
N6A C4A 1_555 1_555
N6B C4B 1_555 1_555
N6R C4R 1_555 1_555
N6S C4S 1_555 1_555
N6T C4T 1_555 1_555
N6A_2 Cd2 1_555 1_555
N6B_2 Cd2 1_555 1_555
N6_2 Cd2A 1_555 1_555
N6B_3 Cd2A 1_555 1_555
N7O N7 1_555 1_555
N7A Cd2 1_555 1_555
N7N Cd2I 1_555 1_555
N7B Cd2 1_555 1_555
N7I Cd2I 1_555 1_555
N7_2 Cd2A 1_555 1_555
N7A_2 Cd2A 1_555 1_555
N7B_2 Cd2A 1_555 1_555
N8A N9A 1_555 1_555
N8B N9B 1_555 1_555
N9A C6A 1_555 1_555
N9B C6B 1_555 1_555
N10O N10 1_555 1_555
N10A N10N 1_555 1_555
N10N C6N 1_555 1_555
N10B N10I 1_555 1_555
N10I C6I 1_555 1_555
C1A N1A 1_555 1_555
C1B N1B 1_555 1_555
C1R N1R 1_555 1_555
C1S N1S 1_555 1_555
C1T N1T 1_555 1_555
H1A C1A 1_555 1_555
H1B C1B 1_555 1_555
H1R C1R 1_555 1_555
H1S C1S 1_555 1_555
H1T C1T 1_555 1_555
C2A N2A 1_555 1_555
C2B N2B 1_555 1_555
C2R N2R 1_555 1_555
C2S N2S 1_555 1_555
C2T N2T 1_555 1_555
H2A C2A 1_555 1_555
H2B C2B 1_555 1_555
H2R C2R 1_555 1_555
H2S C2S 1_555 1_555
H2T C2T 1_555 1_555
C3A N5A 1_555 1_555
C3B N5B 1_555 1_555
C3R N5R 1_555 1_555
C3S N5S 1_555 1_555
C3T N5T 1_555 1_555
H3A C3A 1_555 1_555
H3B C3B 1_555 1_555
H3R C3R 1_555 1_555
H3S C3S 1_555 1_555
H3T C3T 1_555 1_555
C4A N4A 1_555 1_555
C4B N4B 1_555 1_555
C4R N4R 1_555 1_555
C4S N4S 1_555 1_555
C4T N4T 1_555 1_555
H4A C4A 1_555 1_555
H4B C4B 1_555 1_555
H4R C4R 1_555 1_555
H4S C4S 1_555 1_555
H4T C4T 1_555 1_555
C5O N8 1_555 1_555
C5A N7A 1_555 1_555
C5N N7N 1_555 1_555
C5B N7B 1_555 1_555
C5I N7I 1_555 1_555
H5O C5O 1_555 1_555
H5A C5A 1_555 1_555
H5N C5N 1_555 1_555
H5B C5B 1_555 1_555
H5I C5I 1_555 1_555
C6O N9 1_555 1_555
C6A N10A 1_555 1_555
C6N N9A 1_555 1_555
C6B N10B 1_555 1_555
C6I N9B 1_555 1_555
H6O C6O 1_555 1_555
H6A C6A 1_555 1_555
H6N C6N 1_555 1_555
H6B C6B 1_555 1_555
H6I C6I 1_555 1_555
O2A Cl1 1_555 1_555
O2B Cl1 1_555 1_555
O4A Cl2 1_555 1_555
O4B Cl2 1_555 1_555
O6A Cl3 1_555 1_555
O6B Cl3 1_555 1_555
N3 C1 1_555 1_555
N8 C5 1_555 1_555
N3A C1A 1_555 1_555
N3A C2A 1_555 1_555
N3B C1B 1_555 1_555
N3B C2B 1_555 1_555
N3R C1R 1_555 1_555
N3R C2R 1_555 1_555
N3S C1S 1_555 1_555
N3S C2S 1_555 1_555
N3T C1T 1_555 1_555
N3T C2T 1_555 1_555
N7O C5O 1_555 1_555
N7A N7N 1_555 1_555
N7B N7I 1_555 1_555
N8A C5A 1_555 1_555
N8A C5N 1_555 1_555
N8B C5B 1_555 1_555
N8B C5I 1_555 1_555
N10O C6O 1_555 1_555

#END
