
#######################################################################
#
#                 Cambridge Crystallographic Data Centre
#                                CCDC 
#
#######################################################################
#
# If this CIF has been generated from an entry in the Cambridge 
# Structural Database, then it will include bibliographic, chemical, 
# crystal, experimental, refinement or atomic coordinate data resulting 
# from the CCDC's data processing and validation procedures.
#
#######################################################################

data_KOMGID
_chemical_formula_moiety         '(C32 H36 B1 Cd3 F4 N48 O2 5+)n'
_symmetry_cell_setting           tetragonal
_symmetry_space_group_name_H-M   'I -4'
_symmetry_Int_Tables_number      82
_space_group_name_Hall           'I -4'
loop_
_symmetry_equiv_pos_site_id
_symmetry_equiv_pos_as_xyz
1 x,y,z
2 y,-x,-z
3 -x,-y,z
4 -y,x,-z
5 1/2+x,1/2+y,1/2+z
6 1/2+y,1/2-x,1/2-z
7 1/2-x,1/2-y,1/2+z
8 1/2-y,1/2+x,1/2-z
_cell_length_a                   12.7471(15)
_cell_length_b                   12.7471(15)
_cell_length_c                   22.545(3)
_cell_angle_alpha                90
_cell_angle_beta                 90
_cell_angle_gamma                90
_cell_volume                     3663.3
loop_
_atom_site_label
_atom_site_type_symbol
_atom_site_fract_x
_atom_site_fract_y
_atom_site_fract_z
Cd1 Cd 0.0000 0.0000 0.0000
Cd2 Cd 0.5000 0.5000 0.160419(13)
O1 O -0.0000 -0.0000 -0.10115(18)
H1 H 0.0414 0.0402 -0.1200
H2 H -0.0414 -0.0402 -0.1200
N1 N 0.1298(3) 0.1261(3) -0.0059(2)
N2 N 0.1115(3) 0.2143(3) -0.04123(18)
N3 N 0.2533(3) 0.2384(3) 0.00952(16)
N4 N 0.3410(3) 0.2860(3) 0.03331(15)
N5 N 0.5015(3) 0.3356(3) 0.04677(18)
N6 N 0.4370(3) 0.3869(3) 0.08735(15)
N7 N 0.3473(3) 0.6057(3) 0.16350(17)
N8 N 0.2548(3) 0.5798(3) 0.1358(2)
N9 N 0.2319(3) 0.7224(3) 0.18510(15)
N10 N 0.1867(3) 0.8122(3) 0.20933(15)
N11 N 0.1007(3) 0.9141(3) 0.26711(15)
N12 N 0.1528(4) 0.9764(3) 0.2266(2)
C1 C 0.2149(4) 0.1435(3) 0.0248(2)
H3 H 0.2441 0.0982 0.0526
C2 C 0.1871(4) 0.2793(4) -0.0316(2)
H4 H 0.1951 0.3441 -0.0499
C3 C 0.4415(4) 0.2777(4) 0.01513(19)
H5 H 0.4641 0.2356 -0.0161
C4 C 0.3415(3) 0.3564(3) 0.07855(18)
H6 H 0.2830 0.3789 0.0996
C5 C 0.1879(4) 0.6514(4) 0.1489(3)
H7 H 0.1191 0.6537 0.1352
C6 C 0.3316(4) 0.6914(4) 0.1932(2)
H8 H 0.3813 0.7257 0.2164
C7 C 0.2047(5) 0.9116(4) 0.1926(2)
H9 H 0.2478 0.9315 0.1614
C8 C 0.1215(4) 0.8164(4) 0.2563(2)
H10 H 0.0957 0.7591 0.2773
Cd2A Cd 0.5000 -0.5000 -0.160419(13)
Cd2E Cd 0.0000 1.0000 0.339581(13)
Cd2_2 Cd -0.5000 -0.5000 0.160419(13)
Cd2A_2 Cd -0.5000 0.5000 -0.160419(13)
Cd2E_2 Cd 1.0000 0.0000 0.339581(13)
Cd2E_3 Cd 0.0000 0.0000 0.339581(13)
Cd2E_4 Cd 1.0000 1.0000 0.339581(13)
O1A O 0.0000 0.0000 0.10115(18)
H1A H 0.0402 -0.0414 0.1200
H2A H -0.0402 0.0414 0.1200
N1A N 0.1261(3) -0.1298(3) 0.0059(2)
N1B N -0.1298(3) -0.1261(3) -0.0059(2)
N1C N -0.1261(3) 0.1298(3) 0.0059(2)
N2A N 0.2143(3) -0.1115(3) 0.04123(18)
N2B N -0.1115(3) -0.2143(3) -0.04123(18)
N2C N -0.2143(3) 0.1115(3) 0.04123(18)
N3A N 0.2384(3) -0.2533(3) -0.00952(16)
N3B N -0.2533(3) -0.2384(3) 0.00952(16)
N3C N -0.2384(3) 0.2533(3) -0.00952(16)
N4A N 0.2860(3) -0.3410(3) -0.03331(15)
N4B N -0.3410(3) -0.2860(3) 0.03331(15)
N4C N -0.2860(3) 0.3410(3) -0.03331(15)
N5A N 0.3356(3) -0.5015(3) -0.04677(18)
N5B N -0.5015(3) -0.3356(3) 0.04677(18)
N5C N -0.3356(3) 0.5015(3) -0.04677(18)
N6A N 0.3869(3) -0.4370(3) -0.08735(15)
N6B N -0.4370(3) -0.3869(3) 0.08735(15)
N6C N -0.3869(3) 0.4370(3) -0.08735(15)
N6B_2 N 0.5630(3) 0.6131(3) 0.08735(15)
N6C_2 N 0.6131(3) -0.5630(3) -0.08735(15)
N7B N 0.6527(3) 0.3943(3) 0.16350(17)
N7E N 0.1057(3) 0.1527(3) 0.33650(17)
N7G N 0.8943(3) 0.8473(3) 0.33650(17)
N7A N 0.6057(3) -0.3473(3) -0.16350(17)
N7C N 0.3943(3) -0.6527(3) -0.16350(17)
N8B N 0.7452(3) 0.4202(3) 0.1358(2)
N8E N 0.0798(3) 0.2452(3) 0.3642(2)
N8G N 0.9202(3) 0.7548(3) 0.3642(2)
N9B N 0.7681(3) 0.2776(3) 0.18510(15)
N9E N 0.2224(3) 0.2681(3) 0.31490(15)
N9G N 0.7776(3) 0.7319(3) 0.31490(15)
N10B N 0.8133(3) 0.1878(3) 0.20933(15)
N10E N 0.3122(3) 0.3133(3) 0.29067(15)
N10G N 0.6878(3) 0.6867(3) 0.29067(15)
N11B N 0.8993(3) 0.0859(3) 0.26711(15)
N11E N 0.4141(3) 0.3993(3) 0.23289(15)
N11G N 0.5859(3) 0.6007(3) 0.23289(15)
N11D N 0.6007(3) -0.5859(3) -0.23289(15)
N11F N 0.3993(3) -0.4141(3) -0.23289(15)
N12B N 0.8472(4) 0.0236(3) 0.2266(2)
N12E N 0.4764(3) 0.3472(4) 0.2734(2)
N12G N 0.5236(3) 0.6528(4) 0.2734(2)
C1A C 0.1435(3) -0.2149(4) -0.0248(2)
C1B C -0.2149(4) -0.1435(3) 0.0248(2)
C1C C -0.1435(3) 0.2149(4) -0.0248(2)
H3A H 0.0982 -0.2441 -0.0526
H3B H -0.2441 -0.0982 0.0526
H3C H -0.0982 0.2441 -0.0526
C2A C 0.2793(4) -0.1871(4) 0.0316(2)
C2B C -0.1871(4) -0.2793(4) -0.0316(2)
C2C C -0.2793(4) 0.1871(4) 0.0316(2)
H4A H 0.3441 -0.1951 0.0499
H4B H -0.1951 -0.3441 -0.0499
H4C H -0.3441 0.1951 0.0499
C3A C 0.2777(4) -0.4415(4) -0.01513(19)
C3B C -0.4415(4) -0.2777(4) 0.01513(19)
C3C C -0.2777(4) 0.4415(4) -0.01513(19)
H5A H 0.2356 -0.4641 0.0161
H5B H -0.4641 -0.2356 -0.0161
H5C H -0.2356 0.4641 0.0161
C4A C 0.3564(3) -0.3415(3) -0.07855(18)
C4B C -0.3415(3) -0.3564(3) 0.07855(18)
C4C C -0.3564(3) 0.3415(3) -0.07855(18)
H6A H 0.3789 -0.2830 -0.0996
H6B H -0.2830 -0.3789 0.0996
H6C H -0.3789 0.2830 -0.0996
C5B C 0.8121(4) 0.3486(4) 0.1489(3)
C5E C 0.1514(4) 0.3121(4) 0.3511(3)
C5G C 0.8486(4) 0.6879(4) 0.3511(3)
H7B H 0.8809 0.3463 0.1352
H7E H 0.1537 0.3809 0.3648
H7G H 0.8463 0.6191 0.3648
C6B C 0.6684(4) 0.3086(4) 0.1932(2)
C6E C 0.1914(4) 0.1684(4) 0.3068(2)
C6G C 0.8086(4) 0.8316(4) 0.3068(2)
H8B H 0.6187 0.2743 0.2164
H8E H 0.2257 0.1187 0.2836
H8G H 0.7743 0.8813 0.2836
C7B C 0.7953(5) 0.0884(4) 0.1926(2)
C7E C 0.4116(4) 0.2953(5) 0.3074(2)
C7G C 0.5884(4) 0.7047(5) 0.3074(2)
H9B H 0.7522 0.0685 0.1614
H9E H 0.4315 0.2522 0.3386
H9G H 0.5685 0.7478 0.3386
C8B C 0.8785(4) 0.1836(4) 0.2563(2)
C8E C 0.3164(4) 0.3785(4) 0.2437(2)
C8G C 0.6836(4) 0.6215(4) 0.2437(2)
H10B H 0.9043 0.2409 0.2773
H10E H 0.2591 0.4043 0.2227
H10G H 0.7409 0.5957 0.2227
B1 B 0.0961(5) 0.2690(5) 0.1545(3)
F1 F 0.1920(3) 0.2196(4) 0.1564(2)
F2 F 0.0168(3) 0.2007(4) 0.1425(3)
F3 F 0.0758(4) 0.3172(5) 0.2059(2)
F4 F 0.1009(4) 0.3404(5) 0.1102(3)
loop_
_geom_bond_atom_site_label_1
_geom_bond_atom_site_label_2
_geom_bond_site_symmetry_1
_geom_bond_site_symmetry_2
Cd1 O1 1_555 1_555
Cd2 N6 1_555 1_555
O1 H1 1_555 1_555
H2 O1 1_555 1_555
N1 Cd1 1_555 1_555
N2 N1 1_555 1_555
N3 N4 1_555 1_555
N4 C3 1_555 1_555
N5 N6 1_555 1_555
N6 C4 1_555 1_555
N7 Cd2 1_555 1_555
N8 N7 1_555 1_555
N9 N10 1_555 1_555
N10 C7 1_555 1_555
N11 N12 1_555 1_555
N12 C7 1_555 1_555
C1 N1 1_555 1_555
H3 C1 1_555 1_555
C2 N2 1_555 1_555
H4 C2 1_555 1_555
C3 N5 1_555 1_555
H5 C3 1_555 1_555
C4 N4 1_555 1_555
H6 C4 1_555 1_555
C5 N8 1_555 1_555
H7 C5 1_555 1_555
C6 N7 1_555 1_555
H8 C6 1_555 1_555
C7 H9 1_555 1_555
C8 N10 1_555 1_555
H10 C8 1_555 1_555
B1 F1 1_555 1_555
F2 B1 1_555 1_555
F3 B1 1_555 1_555
F4 B1 1_555 1_555
Cd2A N6A 1_555 1_555
Cd2E N11 1_555 1_555
Cd2_2 N6B 1_555 1_555
Cd2A_2 N6C 1_555 1_555
Cd2E_2 N11B 1_555 1_555
Cd2E_3 N7E 1_555 1_555
Cd2E_4 N7G 1_555 1_555
O1A Cd1 1_555 1_555
H1A O1A 1_555 1_555
H2A O1A 1_555 1_555
N1A Cd1 1_555 1_555
N1B Cd1 1_555 1_555
N1C Cd1 1_555 1_555
N2A N1A 1_555 1_555
N2B N1B 1_555 1_555
N2C N1C 1_555 1_555
N3A N4A 1_555 1_555
N3B N4B 1_555 1_555
N3C N4C 1_555 1_555
N4A C3A 1_555 1_555
N4B C3B 1_555 1_555
N4C C3C 1_555 1_555
N5A N6A 1_555 1_555
N5B N6B 1_555 1_555
N5C N6C 1_555 1_555
N6A C4A 1_555 1_555
N6B C4B 1_555 1_555
N6C C4C 1_555 1_555
N6B_2 Cd2 1_555 1_555
N6C_2 Cd2A 1_555 1_555
N7B Cd2 1_555 1_555
N7E N8E 1_555 1_555
N7G N8G 1_555 1_555
N7A Cd2A 1_555 1_555
N7C Cd2A 1_555 1_555
N8B N7B 1_555 1_555
N8E C5E 1_555 1_555
N8G C5G 1_555 1_555
N9B N10B 1_555 1_555
N9E N10E 1_555 1_555
N9G N10G 1_555 1_555
N10B C7B 1_555 1_555
N10E C7E 1_555 1_555
N10G C7G 1_555 1_555
N11B N12B 1_555 1_555
N11E Cd2 1_555 1_555
N11G Cd2 1_555 1_555
N11D Cd2A 1_555 1_555
N11F Cd2A 1_555 1_555
N12B C7B 1_555 1_555
N12E N11E 1_555 1_555
N12G N11G 1_555 1_555
C1A N1A 1_555 1_555
C1B N1B 1_555 1_555
C1C N1C 1_555 1_555
H3A C1A 1_555 1_555
H3B C1B 1_555 1_555
H3C C1C 1_555 1_555
C2A N2A 1_555 1_555
C2B N2B 1_555 1_555
C2C N2C 1_555 1_555
H4A C2A 1_555 1_555
H4B C2B 1_555 1_555
H4C C2C 1_555 1_555
C3A N5A 1_555 1_555
C3B N5B 1_555 1_555
C3C N5C 1_555 1_555
H5A C3A 1_555 1_555
H5B C3B 1_555 1_555
H5C C3C 1_555 1_555
C4A N4A 1_555 1_555
C4B N4B 1_555 1_555
C4C N4C 1_555 1_555
H6A C4A 1_555 1_555
H6B C4B 1_555 1_555
H6C C4C 1_555 1_555
C5B N8B 1_555 1_555
C5E N9E 1_555 1_555
C5G N9G 1_555 1_555
H7B C5B 1_555 1_555
H7E C5E 1_555 1_555
H7G C5G 1_555 1_555
C6B N7B 1_555 1_555
C6E N7E 1_555 1_555
C6G N7G 1_555 1_555
H8B C6B 1_555 1_555
H8E C6E 1_555 1_555
H8G C6G 1_555 1_555
C7B H9B 1_555 1_555
C7E N12E 1_555 1_555
C7G N12G 1_555 1_555
H9E C7E 1_555 1_555
H9G C7G 1_555 1_555
C8B N10B 1_555 1_555
C8E N10E 1_555 1_555
C8G N10G 1_555 1_555
H10B C8B 1_555 1_555
H10E C8E 1_555 1_555
H10G C8G 1_555 1_555
N3 C1 1_555 1_555
N3 C2 1_555 1_555
N9 C5 1_555 1_555
N9 C6 1_555 1_555
N11 C8 1_555 1_555
N3A C1A 1_555 1_555
N3A C2A 1_555 1_555
N3B C1B 1_555 1_555
N3B C2B 1_555 1_555
N3C C1C 1_555 1_555
N3C C2C 1_555 1_555
N9B C5B 1_555 1_555
N9B C6B 1_555 1_555
N9E C6E 1_555 1_555
N9G C6G 1_555 1_555
N11B C8B 1_555 1_555
N11E C8E 1_555 1_555
N11G C8G 1_555 1_555

#END
