
#######################################################################
#
#                 Cambridge Crystallographic Data Centre
#                                CCDC 
#
#######################################################################
#
# If this CIF has been generated from an entry in the Cambridge 
# Structural Database, then it will include bibliographic, chemical, 
# crystal, experimental, refinement or atomic coordinate data resulting 
# from the CCDC's data processing and validation procedures.
#
#######################################################################

data_KOMGOJ
_chemical_formula_moiety         '(C36 H32 B2 Cd3 F8 N54 2+)n'
_symmetry_cell_setting           tetragonal
_symmetry_space_group_name_H-M   'I -4'
_symmetry_Int_Tables_number      82
_space_group_name_Hall           'I -4'
loop_
_symmetry_equiv_pos_site_id
_symmetry_equiv_pos_as_xyz
1 x,y,z
2 -x,-y,z
3 y,-x,-z
4 -y,x,-z
5 1/2+x,1/2+y,1/2+z
6 1/2-x,1/2-y,1/2+z
7 1/2+y,1/2-x,1/2-z
8 1/2-y,1/2+x,1/2-z
_cell_length_a                   12.691(2)
_cell_length_b                   12.691(2)
_cell_length_c                   23.216(8)
_cell_angle_alpha                90
_cell_angle_beta                 90
_cell_angle_gamma                90
_cell_volume                     3739.2
loop_
_atom_site_label
_atom_site_type_symbol
_atom_site_fract_x
_atom_site_fract_y
_atom_site_fract_z
Cd1 Cd 0.5000 0.5000 0.838148(18)
Cd2 Cd 1.0000 1.0000 1.0000
N1 N 0.6011(4) 0.5812(4) 0.7660(2)
N2 N 0.6479(5) 0.5185(5) 0.7237(3)
N3 N 0.6891(4) 0.6826(4) 0.7092(2)
N4 N 0.8488(4) 0.8906(4) 0.6655(2)
N5 N 0.7592(4) 0.9107(4) 0.6344(3)
N6 N 0.7344(4) 0.7729(4) 0.6851(2)
N7 N 0.6066(4) 0.5708(4) 0.9095(2)
N8 N 0.6578(4) 0.5062(4) 0.9495(2)
N9 N 0.7010(4) 0.6675(3) 0.9653(2)
N10 N 0.7512(4) 0.7547(4) 0.9902(2)
N11 N 0.8648(4) 0.8756(4) 1.0057(3)
N12 N 0.7800(4) 0.8926(4) 1.0423(3)
N13 N 1.0000 1.0000 0.9015(3)
N14 N 0.8164(8) 0.9719(8) 0.8548(5)
C1 C 0.7004(6) 0.5789(6) 0.6906(3)
H1 H 0.7400 0.5572 0.6591
C2 C 0.6247(5) 0.6802(5) 0.7558(3)
H2 H 0.6015 0.7381 0.7768
C3 C 0.8316(5) 0.8079(6) 0.6957(3)
H3 H 0.8794 0.7770 0.7209
C4 C 0.6942(5) 0.8382(6) 0.6468(3)
H4 H 0.6271 0.8320 0.6311
C5 C 0.7108(6) 0.5665(5) 0.9825(3)
H5 H 0.7504 0.5440 1.0140
C6 C 0.6358(4) 0.6662(4) 0.9208(3)
H6 H 0.6140 0.7256 0.9006
C7 C 0.8452(5) 0.7933(5) 0.9746(3)
H7 H 0.8890 0.7657 0.9463
C8 C 0.7136(5) 0.8178(6) 1.0325(3)
H8 H 0.6498 0.8087 1.0515
C9 C 0.9134(11) 0.9900(9) 0.8779(6)
Cd1_2 Cd 1.5000 1.5000 0.838148(18)
Cd1F Cd 1.0000 1.0000 0.661852(18)
Cd1B Cd 0.5000 1.5000 1.161852(18)
Cd1B_2 Cd 1.5000 0.5000 1.161852(18)
Cd1F_2 Cd 0.0000 0.0000 0.661852(18)
Cd1F_3 Cd -0.0000 1.0000 0.661852(18)
Cd1F_4 Cd 1.0000 0.0000 0.661852(18)
N1A N 0.3989(4) 0.4188(4) 0.7660(2)
N1F N 0.0812(4) 0.8989(4) 0.7340(2)
N1G N 0.9188(4) 0.1011(4) 0.7340(2)
N1_2 N 1.6011(4) 1.5812(4) 0.7660(2)
N1A_2 N 1.3989(4) 1.4188(4) 0.7660(2)
N2A N 0.3521(5) 0.4815(5) 0.7237(3)
N2F N 0.0185(5) 0.8521(5) 0.7763(3)
N2G N 0.9815(5) 0.1479(5) 0.7763(3)
N3A N 0.3109(4) 0.3174(4) 0.7092(2)
N3F N 0.1826(4) 0.8109(4) 0.7908(2)
N3G N 0.8174(4) 0.1891(4) 0.7908(2)
N4A N 0.1512(4) 0.1094(4) 0.6655(2)
N4F N 0.3906(4) 0.6512(4) 0.8345(2)
N4G N 0.6094(4) 0.3488(4) 0.8345(2)
N4F_2 N 1.3906(4) 1.6512(4) 0.8345(2)
N4G_2 N 1.6094(4) 1.3488(4) 0.8345(2)
N5A N 0.2408(4) 0.0893(4) 0.6344(3)
N5F N 0.4107(4) 0.7408(4) 0.8656(3)
N5G N 0.5893(4) 0.2592(4) 0.8656(3)
N6A N 0.2656(4) 0.2271(4) 0.6851(2)
N6F N 0.2729(4) 0.7656(4) 0.8149(2)
N6G N 0.7271(4) 0.2344(4) 0.8149(2)
N7A N 1.3934(4) 1.4292(4) 0.9095(2)
N7B N 0.5708(4) 1.3934(4) 1.0905(2)
N7C N 1.4292(4) 0.6066(4) 1.0905(2)
N7A_2 N 0.3934(4) 0.4292(4) 0.9095(2)
N7_2 N 1.6066(4) 1.5708(4) 0.9095(2)
N8A N 1.3422(4) 1.4938(4) 0.9495(2)
N8B N 0.5062(4) 1.3422(4) 1.0505(2)
N8C N 1.4938(4) 0.6578(4) 1.0505(2)
N9A N 1.2990(4) 1.3325(3) 0.9653(2)
N9B N 0.6675(3) 1.2990(4) 1.0347(2)
N9C N 1.3325(3) 0.7010(4) 1.0347(2)
N10A N 1.2488(4) 1.2453(4) 0.9902(2)
N10B N 0.7547(4) 1.2488(4) 1.0098(2)
N10C N 1.2453(4) 0.7512(4) 1.0098(2)
N11A N 1.1352(4) 1.1244(4) 1.0057(3)
N11B N 0.8756(4) 1.1352(4) 0.9943(3)
N11C N 1.1244(4) 0.8648(4) 0.9943(3)
N12A N 1.2200(4) 1.1074(4) 1.0423(3)
N12B N 0.8926(4) 1.2200(4) 0.9577(3)
N12C N 1.1074(4) 0.7800(4) 0.9577(3)
N13B N 1.0000 1.0000 1.0985(3)
N14A N 1.1836(8) 1.0281(8) 0.8548(5)
N14B N 0.9719(8) 1.1836(8) 1.1452(5)
N14C N 1.0281(8) 0.8164(8) 1.1452(5)
C1A C 0.2996(6) 0.4211(6) 0.6906(3)
C1F C 0.0789(6) 0.7996(6) 0.8094(3)
C1G C 0.9211(6) 0.2004(6) 0.8094(3)
H1A H 0.2600 0.4428 0.6591
H1F H 0.0572 0.7600 0.8409
H1G H 0.9428 0.2400 0.8409
C2A C 0.3753(5) 0.3198(5) 0.7558(3)
C2F C 0.1802(5) 0.8753(5) 0.7442(3)
C2G C 0.8198(5) 0.1247(5) 0.7442(3)
H2A H 0.3985 0.2619 0.7768
H2F H 0.2381 0.8985 0.7232
H2G H 0.7619 0.1015 0.7232
C3A C 0.1684(5) 0.1921(6) 0.6957(3)
C3F C 0.3079(6) 0.6684(5) 0.8043(3)
C3G C 0.6921(6) 0.3316(5) 0.8043(3)
H3A H 0.1206 0.2230 0.7209
H3F H 0.2770 0.6206 0.7791
H3G H 0.7230 0.3794 0.7791
C4A C 0.3058(5) 0.1618(6) 0.6468(3)
C4F C 0.3382(6) 0.8058(5) 0.8532(3)
C4G C 0.6618(6) 0.1942(5) 0.8532(3)
H4A H 0.3729 0.1680 0.6311
H4F H 0.3320 0.8729 0.8689
H4G H 0.6680 0.1271 0.8689
C5A C 1.2892(6) 1.4335(5) 0.9825(3)
C5B C 0.5665(5) 1.2892(6) 1.0175(3)
C5C C 1.4335(5) 0.7108(6) 1.0175(3)
H5A H 1.2496 1.4560 1.0140
H5B H 0.5440 1.2496 0.9860
H5C H 1.4560 0.7504 0.9860
C6A C 1.3642(4) 1.3338(4) 0.9208(3)
C6B C 0.6662(4) 1.3642(4) 1.0792(3)
C6C C 1.3338(4) 0.6358(4) 1.0792(3)
H6A H 1.3860 1.2744 0.9006
H6B H 0.7256 1.3860 1.0994
H6C H 1.2744 0.6140 1.0994
C7A C 1.1548(5) 1.2067(5) 0.9746(3)
C7B C 0.7933(5) 1.1548(5) 1.0254(3)
C7C C 1.2067(5) 0.8452(5) 1.0254(3)
H7A H 1.1110 1.2343 0.9463
H7B H 0.7657 1.1110 1.0537
H7C H 1.2343 0.8890 1.0537
C8A C 1.2864(5) 1.1822(6) 1.0325(3)
C8B C 0.8178(6) 1.2864(5) 0.9675(3)
C8C C 1.1822(6) 0.7136(5) 0.9675(3)
H8A H 1.3502 1.1913 1.0515
H8B H 0.8087 1.3502 0.9485
H8C H 1.1913 0.6498 0.9485
C9A C 1.0866(11) 1.0100(9) 0.8779(6)
C9B C 0.9900(9) 1.0866(11) 1.1221(6)
C9C C 1.0100(9) 0.9134(11) 1.1221(6)
B1 B 1.0000 0.5000 0.0571(7)
F1 F 0.8998(8) 0.4695(16) 0.0423(8)
F4 F 1.0628(10) 0.4190(11) 0.0381(6)
F1A F 1.1002(8) 0.5305(16) 0.0423(8)
F4A F 0.9372(10) 0.5810(11) 0.0381(6)
B2 B 0.9307(14) 0.4079(13) 0.6579(9)
F5 F 0.915(2) 0.384(2) 0.7137(9)
F6 F 0.8526(17) 0.369(2) 0.6254(13)
F7 F 1.0230(14) 0.3661(15) 0.6407(9)
F8 F 0.933(2) 0.5135(12) 0.6500(13)
loop_
_geom_bond_atom_site_label_1
_geom_bond_atom_site_label_2
_geom_bond_site_symmetry_1
_geom_bond_site_symmetry_2
Cd1 N1 1_555 1_555
Cd2 N11 1_555 1_555
N1 N2 1_555 1_555
N2 C1 1_555 1_555
N3 N6 1_555 1_555
N4 N5 1_555 1_555
N5 C4 1_555 1_555
N6 C3 1_555 1_555
N7 Cd1 1_555 1_555
N8 N7 1_555 1_555
N9 N10 1_555 1_555
N10 C7 1_555 1_555
N11 N12 1_555 1_555
N12 C8 1_555 1_555
N13 Cd2 1_555 1_555
N14 C9 1_555 1_555
C1 N3 1_555 1_555
H1 C1 1_555 1_555
C2 N1 1_555 1_555
H2 C2 1_555 1_555
C3 N4 1_555 1_555
H3 C3 1_555 1_555
C4 N6 1_555 1_555
H4 C4 1_555 1_555
C5 N8 1_555 1_555
H5 C5 1_555 1_555
C6 N7 1_555 1_555
H6 C6 1_555 1_555
C7 N11 1_555 1_555
H7 C7 1_555 1_555
C8 N10 1_555 1_555
H8 C8 1_555 1_555
C9 N13 1_555 1_555
B1 F1 1_555 1_555
F4 B1 1_555 1_555
B2 F5 1_555 1_555
F6 B2 1_555 1_555
F7 B2 1_555 1_555
F8 B2 1_555 1_555
Cd1_2 N1_2 1_555 1_555
Cd1F N4 1_555 1_555
Cd1B N7B 1_555 1_555
Cd1B_2 N7C 1_555 1_555
Cd1F_2 N4A 1_555 1_555
Cd1F_3 N1F 1_555 1_555
Cd1F_4 N1G 1_555 1_555
N1A Cd1 1_555 1_555
N1F N2F 1_555 1_555
N1G N2G 1_555 1_555
N1A_2 Cd1_2 1_555 1_555
N2A N1A 1_555 1_555
N2F C1F 1_555 1_555
N2G C1G 1_555 1_555
N3A N6A 1_555 1_555
N3F N6F 1_555 1_555
N3G N6G 1_555 1_555
N4A N5A 1_555 1_555
N4F Cd1 1_555 1_555
N4G Cd1 1_555 1_555
N4F_2 Cd1_2 1_555 1_555
N4G_2 Cd1_2 1_555 1_555
N5A C4A 1_555 1_555
N5F N4F 1_555 1_555
N5G N4G 1_555 1_555
N6A C3A 1_555 1_555
N6F C3F 1_555 1_555
N6G C3G 1_555 1_555
N7A Cd1_2 1_555 1_555
N7B N8B 1_555 1_555
N7C N8C 1_555 1_555
N7A_2 Cd1 1_555 1_555
N7_2 Cd1_2 1_555 1_555
N8A N7A 1_555 1_555
N8B C5B 1_555 1_555
N8C C5C 1_555 1_555
N9A N10A 1_555 1_555
N9B N10B 1_555 1_555
N9C N10C 1_555 1_555
N10A C7A 1_555 1_555
N10B C7B 1_555 1_555
N10C C7C 1_555 1_555
N11A Cd2 1_555 1_555
N11B Cd2 1_555 1_555
N11C Cd2 1_555 1_555
N12A N11A 1_555 1_555
N12B N11B 1_555 1_555
N12C N11C 1_555 1_555
N13B Cd2 1_555 1_555
N14A C9A 1_555 1_555
N14B C9B 1_555 1_555
N14C C9C 1_555 1_555
C1A N2A 1_555 1_555
C1F N3F 1_555 1_555
C1G N3G 1_555 1_555
H1A C1A 1_555 1_555
H1F C1F 1_555 1_555
H1G C1G 1_555 1_555
C2A N1A 1_555 1_555
C2F N1F 1_555 1_555
C2G N1G 1_555 1_555
H2A C2A 1_555 1_555
H2F C2F 1_555 1_555
H2G C2G 1_555 1_555
C3A N4A 1_555 1_555
C3F N4F 1_555 1_555
C3G N4G 1_555 1_555
H3A C3A 1_555 1_555
H3F C3F 1_555 1_555
H3G C3G 1_555 1_555
C4A N6A 1_555 1_555
C4F N5F 1_555 1_555
C4G N5G 1_555 1_555
H4A C4A 1_555 1_555
H4F C4F 1_555 1_555
H4G C4G 1_555 1_555
C5A N8A 1_555 1_555
C5B N9B 1_555 1_555
C5C N9C 1_555 1_555
H5A C5A 1_555 1_555
H5B C5B 1_555 1_555
H5C C5C 1_555 1_555
C6A N7A 1_555 1_555
C6B N7B 1_555 1_555
C6C N7C 1_555 1_555
H6A C6A 1_555 1_555
H6B C6B 1_555 1_555
H6C C6C 1_555 1_555
C7A N11A 1_555 1_555
C7B N11B 1_555 1_555
C7C N11C 1_555 1_555
H7A C7A 1_555 1_555
H7B C7B 1_555 1_555
H7C C7C 1_555 1_555
C8A N10A 1_555 1_555
C8B N10B 1_555 1_555
C8C N10C 1_555 1_555
H8A C8A 1_555 1_555
H8B C8B 1_555 1_555
H8C C8C 1_555 1_555
C9A N13 1_555 1_555
C9B N13B 1_555 1_555
C9C N13B 1_555 1_555
F1A B1 1_555 1_555
F4A B1 1_555 1_555
N3 C2 1_555 1_555
N9 C5 1_555 1_555
N9 C6 1_555 1_555
N3A C1A 1_555 1_555
N3A C2A 1_555 1_555
N3F C2F 1_555 1_555
N3G C2G 1_555 1_555
N6F C4F 1_555 1_555
N6G C4G 1_555 1_555
N9A C5A 1_555 1_555
N9A C6A 1_555 1_555
N9B C6B 1_555 1_555
N9C C6C 1_555 1_555
N12A C8A 1_555 1_555
N12B C8B 1_555 1_555
N12C C8C 1_555 1_555

#END
