
#######################################################################
#
#                 Cambridge Crystallographic Data Centre
#                                CCDC 
#
#######################################################################
#
# If this CIF has been generated from an entry in the Cambridge 
# Structural Database, then it will include bibliographic, chemical, 
# crystal, experimental, refinement or atomic coordinate data resulting 
# from the CCDC's data processing and validation procedures.
#
#######################################################################

data_ARIBOS
_chemical_formula_moiety         '(C40 H26 Cd2 N2 O8)n'
_symmetry_cell_setting           monoclinic
_symmetry_space_group_name_H-M   'P 21/c'
_symmetry_Int_Tables_number      14
_space_group_name_Hall           '-P 2ybc'
loop_
_symmetry_equiv_pos_site_id
_symmetry_equiv_pos_as_xyz
1 x,y,z
2 x,1/2-y,1/2+z
3 -x,-y,-z
4 -x,1/2+y,1/2-z
_cell_length_a                   9.9943(8)
_cell_length_b                   19.7593(16)
_cell_length_c                   10.3333(8)
_cell_angle_alpha                90
_cell_angle_beta                 111.893(2)
_cell_angle_gamma                90
_cell_volume                     1893.46
loop_
_atom_site_label
_atom_site_type_symbol
_atom_site_fract_x
_atom_site_fract_y
_atom_site_fract_z
Cd1 Cd 0.91172(7) 0.00511(4) 0.09187(8)
N1 N 0.7752(10) 0.0112(5) 0.2207(10)
O1 O 1.0859(9) -0.0618(4) 0.2250(10)
O2 O 1.2152(10) -0.0657(4) 0.0928(10)
O3 O 1.8183(10) -0.4124(4) 0.4657(10)
O4 O 1.9509(10) -0.4039(4) 0.3335(10)
C1 C 0.496(2) 0.0119(9) 0.4461(18)
H1 H 0.4095 0.0343 0.3989
C2 C 0.5965(13) 0.0123(7) 0.3737(15)
C3 C 0.7328(16) -0.0121(8) 0.4272(14)
H2 H 0.7685 -0.0287 0.5179
C4 C 0.8215(14) -0.0128(7) 0.3496(13)
H3 H 0.9143 -0.0304 0.3891
C5 C 0.6396(14) 0.0350(8) 0.1665(16)
H4 H 0.6059 0.0517 0.0759
C6 C 0.5493(16) 0.0357(9) 0.2377(18)
H5 H 0.4557 0.0520 0.1950
C7 C 1.1880(13) -0.0827(5) 0.1970(13)
C8 C 1.2898(12) -0.1331(5) 0.2963(11)
C9 C 1.4102(12) -0.1544(5) 0.2722(12)
H6 H 1.4255 -0.1388 0.1940
C10 C 1.5093(12) -0.1990(6) 0.3635(12)
C11 C 1.4832(17) -0.2205(7) 0.4795(14)
H7 H 1.5486 -0.2493 0.5434
C12 C 1.3621(17) -0.2000(8) 0.5014(16)
H8 H 1.3446 -0.2161 0.5782
C13 C 1.2660(14) -0.1557(7) 0.4102(13)
H9 H 1.1852 -0.1412 0.4266
C14 C 1.8633(13) -0.3813(6) 0.3842(13)
C15 C 1.8082(12) -0.3105(5) 0.3453(12)
C16 C 1.6915(12) -0.2873(5) 0.3711(11)
H10 H 1.6457 -0.3163 0.4125
C17 C 1.6392(13) -0.2216(6) 0.3372(12)
C18 C 1.7087(13) -0.1794(5) 0.2746(12)
H11 H 1.6750 -0.1356 0.2492
C19 C 1.8282(14) -0.2023(6) 0.2498(14)
H12 H 1.8763 -0.1732 0.2110
C20 C 1.8760(14) -0.2678(6) 0.2822(15)
H13 H 1.9537 -0.2834 0.2618
C1B C 0.504(2) -0.0119(9) 0.5539(18)
H1B H 0.5905 -0.0343 0.6011
C2B C 0.4035(13) -0.0123(7) 0.6263(15)
C3B C 0.2672(16) 0.0121(8) 0.5728(14)
H2B H 0.2315 0.0287 0.4821
C4B C 0.1785(14) 0.0128(7) 0.6504(13)
N1B N 0.2248(10) -0.0112(5) 0.7793(10)
C5B C 0.3604(14) -0.0350(8) 0.8335(16)
H4B H 0.3941 -0.0517 0.9241
C6B C 0.4507(16) -0.0357(9) 0.7623(18)
H5B H 0.5443 -0.0520 0.8050
H3B H 0.0857 0.0304 0.6109
O1B O 0.9141(9) 0.0618(4) -0.2250(10)
O2B O 0.7848(10) 0.0657(4) -0.0928(10)
O3B O 0.1817(10) 0.4124(4) -0.4657(10)
O4B O 0.0491(10) 0.4039(4) -0.3335(10)
C7B C 0.8120(13) 0.0827(5) -0.1970(13)
C8B C 0.7102(12) 0.1331(5) -0.2963(11)
C9B C 0.5898(12) 0.1544(5) -0.2722(12)
H6B H 0.5745 0.1388 -0.1940
C10B C 0.4907(12) 0.1990(6) -0.3635(12)
C11B C 0.5168(17) 0.2205(7) -0.4795(14)
H7B H 0.4514 0.2493 -0.5434
C12B C 0.6379(17) 0.2000(8) -0.5014(16)
H8B H 0.6554 0.2161 -0.5782
C13B C 0.7340(14) 0.1557(7) -0.4102(13)
H9B H 0.8148 0.1412 -0.4266
C14B C 0.1367(13) 0.3813(6) -0.3842(13)
C15B C 0.1918(12) 0.3105(5) -0.3453(12)
C16B C 0.3085(12) 0.2873(5) -0.3711(11)
H10B H 0.3543 0.3163 -0.4125
C17B C 0.3608(13) 0.2216(6) -0.3372(12)
C18B C 0.2913(13) 0.1794(5) -0.2746(12)
H11B H 0.3250 0.1356 -0.2492
C19B C 0.1718(14) 0.2023(6) -0.2498(14)
H12B H 0.1237 0.1732 -0.2110
C20B C 0.1240(14) 0.2678(6) -0.2822(15)
H13B H 0.0463 0.2834 -0.2618
Cd1B Cd 0.08828(7) -0.00511(4) 0.90813(8)
O3A O 0.8183(10) -0.0876(4) -0.0343(10)
O4C O 1.0491(10) 0.0961(4) 0.1665(10)
Cd1B_2 Cd 1.08828(7) -0.00511(4) -0.09187(8)
Cd1A Cd 1.91172(7) -0.50511(4) 0.59187(8)
Cd1C Cd 2.08828(7) -0.49489(4) 0.40813(8)
Cd1C_2 Cd 0.08828(7) 0.50511(4) -0.59187(8)
Cd1A_2 Cd -0.08828(7) 0.49489(4) -0.40813(8)
O1B_2 O -0.0859(9) 0.0618(4) 0.7750(10)
O2_2 O 0.2152(10) -0.0657(4) 1.0928(10)
O3C O 0.1817(10) 0.0876(4) 1.0343(10)
O4A O -0.0491(10) -0.0961(4) 0.8335(10)
loop_
_geom_bond_atom_site_label_1
_geom_bond_atom_site_label_2
_geom_bond_site_symmetry_1
_geom_bond_site_symmetry_2
Cd1 N1 1_555 1_555
N1 C4 1_555 1_555
O1 Cd1 1_555 1_555
O2 C7 1_555 1_555
O3 C14 1_555 1_555
O4 C14 1_555 1_555
C1 H1 1_555 1_555
C2 C1 1_555 1_555
C3 C2 1_555 1_555
H2 C3 1_555 1_555
C4 C3 1_555 1_555
H3 C4 1_555 1_555
C5 N1 1_555 1_555
H4 C5 1_555 1_555
C6 C2 1_555 1_555
H5 C6 1_555 1_555
C7 O1 1_555 1_555
C8 C7 1_555 1_555
C9 C8 1_555 1_555
H6 C9 1_555 1_555
C10 C9 1_555 1_555
C11 C10 1_555 1_555
H7 C11 1_555 1_555
C12 C11 1_555 1_555
H8 C12 1_555 1_555
C13 C8 1_555 1_555
H9 C13 1_555 1_555
C14 C15 1_555 1_555
C15 C16 1_555 1_555
C16 H10 1_555 1_555
C17 C10 1_555 1_555
C18 C17 1_555 1_555
H11 C18 1_555 1_555
C19 C18 1_555 1_555
H12 C19 1_555 1_555
C20 C15 1_555 1_555
H13 C20 1_555 1_555
C1B C1 1_555 1_555
H1B C1B 1_555 1_555
C2B C1B 1_555 1_555
C3B C2B 1_555 1_555
H2B C3B 1_555 1_555
C4B C3B 1_555 1_555
N1B C4B 1_555 1_555
C5B N1B 1_555 1_555
H4B C5B 1_555 1_555
C6B C2B 1_555 1_555
H5B C6B 1_555 1_555
H3B C4B 1_555 1_555
O1B C7B 1_555 1_555
O2B Cd1 1_555 1_555
O3B C14B 1_555 1_555
O4B C14B 1_555 1_555
C7B O2B 1_555 1_555
C8B C7B 1_555 1_555
C9B C8B 1_555 1_555
H6B C9B 1_555 1_555
C10B C9B 1_555 1_555
C11B C10B 1_555 1_555
H7B C11B 1_555 1_555
C12B C11B 1_555 1_555
H8B C12B 1_555 1_555
C13B C8B 1_555 1_555
H9B C13B 1_555 1_555
C14B C15B 1_555 1_555
C15B C16B 1_555 1_555
C16B H10B 1_555 1_555
C17B C10B 1_555 1_555
C18B C17B 1_555 1_555
H11B C18B 1_555 1_555
C19B C18B 1_555 1_555
H12B C19B 1_555 1_555
C20B C15B 1_555 1_555
H13B C20B 1_555 1_555
Cd1B N1B 1_555 1_555
O3A Cd1 1_555 1_555
O4C Cd1 1_555 1_555
Cd1B_2 O2 1_555 1_555
Cd1A O3 1_555 1_555
Cd1C O4 1_555 1_555
Cd1C_2 O3B 1_555 1_555
Cd1A_2 O4B 1_555 1_555
O1B_2 Cd1B 1_555 1_555
O2_2 Cd1B 1_555 1_555
O3C Cd1B 1_555 1_555
O4A Cd1B 1_555 1_555
C5 C6 1_555 1_555
C12 C13 1_555 1_555
C16 C17 1_555 1_555
C19 C20 1_555 1_555
C5B C6B 1_555 1_555
O1B Cd1B_2 1_555 1_555
C12B C13B 1_555 1_555
C16B C17B 1_555 1_555
C19B C20B 1_555 1_555

#END
