
#######################################################################
#
#                 Cambridge Crystallographic Data Centre
#                                CCDC 
#
#######################################################################
#
# If this CIF has been generated from an entry in the Cambridge 
# Structural Database, then it will include bibliographic, chemical, 
# crystal, experimental, refinement or atomic coordinate data resulting 
# from the CCDC's data processing and validation procedures.
#
#######################################################################

data_HAXMUP
_chemical_formula_moiety         '(C5 H14 Cu1 N4 O7)n'
_symmetry_cell_setting           rhombohedral
_symmetry_space_group_name_H-M   'R -3'
_symmetry_Int_Tables_number      148
_space_group_name_Hall           '-R 3'
loop_
_symmetry_equiv_pos_site_id
_symmetry_equiv_pos_as_xyz
1 x,y,z
2 1/3+x,2/3+y,2/3+z
3 2/3+x,1/3+y,1/3+z
4 -y,x-y,z
5 2/3-y,1/3+x-y,1/3+z
6 -x+y,-x,z
7 2/3-x+y,1/3-x,1/3+z
8 1/3-y,2/3+x-y,2/3+z
9 1/3-x+y,2/3-x,2/3+z
10 -x,-y,-z
11 2/3-x,1/3-y,1/3-z
12 1/3-x,2/3-y,2/3-z
13 y,-x+y,-z
14 1/3+y,2/3-x+y,2/3-z
15 x-y,x,-z
16 1/3+x-y,2/3+x,2/3-z
17 2/3+y,1/3-x+y,1/3-z
18 2/3+x-y,1/3+x,1/3-z
_cell_length_a                   24.463(6)
_cell_length_b                   24.463(6)
_cell_length_c                   10.063(4)
_cell_angle_alpha                90
_cell_angle_beta                 90
_cell_angle_gamma                120.0
_cell_volume                     5215.28
loop_
_atom_site_label
_atom_site_type_symbol
_atom_site_fract_x
_atom_site_fract_y
_atom_site_fract_z
_atom_site_U_iso_or_equiv
_atom_site_thermal_displace_type
O5 O 0.109(1) 0.067(1) 0.289(3) 0.3100 Uiso
O6 O 0.018(5) 0.067(3) -0.131(6) 0.8200 Uiso
O8 O 0.121(2) 0.099(2) -0.017(4) 0.4300 Uiso
Cu1 Cu 0.33790(3) 0.22515(3) 0.73020(6) 0.0120 Uani
O1 O 0.3841(2) 0.1812(2) 0.7153(3) 0.0137 Uani
O2 O 0.4144(2) 0.3212(2) 0.6452(3) 0.0187 Uani
O3 O 0.3945(2) 0.2728(2) 0.4567(4) 0.0386 Uani
O4 O 0.4600(2) 0.3734(2) 0.4661(3) 0.0278 Uani
N1 N 0.2783(2) 0.2572(2) 0.7214(4) 0.0136 Uani
N2 N 0.2231(2) 0.2921(2) 0.5827(4) 0.0120 Uani
N3 N 0.1346(2) 0.2929(2) 0.6609(4) 0.0180 Uani
N4 N 0.4232(2) 0.3222(2) 0.5214(4) 0.0188 Uani
C1 C 0.1881(3) 0.2582(3) 0.8069(5) 0.0164 Uani
C2 C 0.2685(2) 0.2789(2) 0.6077(5) 0.0127 Uani
C3 C 0.2365(3) 0.2472(2) 0.8223(5) 0.0144 Uani
C4 C 0.1807(2) 0.2814(2) 0.6825(5) 0.0132 Uani
C5 C 0.4514(3) 0.2137(3) 0.7151(6) 0.0220 Uani
H1 H 0.2972(2) 0.2861(2) 0.5373(5) 0.0140 Uiso
H2 H 0.1592(3) 0.2504(3) 0.8773(5) 0.0200 Uiso
H3 H 0.2415(3) 0.2313(2) 0.9046(5) 0.0180 Uiso
H4 H 0.1048(2) 0.2851(2) 0.7293(4) 0.0250 Uiso
H5 H 0.1308(2) 0.3089(2) 0.5775(4) 0.0250 Uiso
H6 H 0.4662(3) 0.2234(3) 0.6158(6) 0.0270 Uiso
H7 H 0.4704(3) 0.2545(3) 0.7641(6) 0.0270 Uiso
H8 H 0.4644(3) 0.1865(3) 0.7451(6) 0.0270 Uiso
Cu1J Cu 0.32877(3) 0.10818(3) 0.60313(6) 0.0120 Uani
Cu1H Cu 0.22058(4) 0.32877(3) 0.39687(6) 0.0120 Uani
O1J O 0.2826(2) 0.1521(2) 0.6180(3) 0.0137 Uani
N2D N 0.3746(2) 0.2643(3) 0.9160(4) 0.0120 Uani
loop_
_atom_site_aniso_label
_atom_site_aniso_U_11
_atom_site_aniso_U_22
_atom_site_aniso_U_33
_atom_site_aniso_U_23
_atom_site_aniso_U_13
_atom_site_aniso_U_12
Cu1 0.0137(4) 0.0126(4) 0.0117(4) -0.0025(2) -0.0025(2) 0.0081(3)
O1 0.012(2) 0.014(2) 0.017(2) -0.004(1) -0.003(1) 0.008(2)
O2 0.022(2) 0.019(2) 0.012(2) 0.000(1) 0.002(1) 0.008(2)
O3 0.052(3) 0.019(2) 0.017(2) -0.007(2) -0.001(2) -0.003(2)
O4 0.035(3) 0.016(2) 0.014(2) 0.001(2) 0.003(2) -0.001(2)
N1 0.015(2) 0.013(2) 0.014(2) -0.001(2) -0.002(2) 0.008(2)
N2 0.011(2) 0.013(2) 0.012(2) 0.001(2) 0.001(2) 0.006(2)
N3 0.019(2) 0.028(3) 0.014(2) 0.006(2) 0.005(2) 0.017(2)
N4 0.019(2) 0.017(2) 0.015(2) -0.001(2) -0.001(2) 0.005(2)
C1 0.019(3) 0.019(3) 0.012(2) 0.002(2) 0.003(2) 0.010(2)
C2 0.014(2) 0.012(2) 0.010(2) -0.002(2) 0.000(2) 0.005(2)
C3 0.018(3) 0.017(3) 0.010(2) -0.001(2) -0.001(2) 0.010(2)
C4 0.014(3) 0.013(2) 0.013(2) 0.001(2) 0.001(2) 0.007(2)
C5 0.014(3) 0.020(3) 0.034(3) -0.007(2) -0.004(2) 0.010(2)
Cu1J 0.0137 0.0126 0.0117 -0.0025 -0.0025 0.0081
Cu1H 0.0101 0.0137 0.0117 0.0025 -3.61159e-19 0.0056
O1J 0.012 0.014 0.017 -0.004 -0.003 0.008
N2D 0.013 0.012 0.012 0 -0.001 0.007
loop_
_geom_bond_atom_site_label_1
_geom_bond_atom_site_label_2
_geom_bond_site_symmetry_1
_geom_bond_site_symmetry_2
Cu1 O1 1_555 1_555
O1 C5 1_555 1_555
O2 Cu1 1_555 1_555
O3 N4 1_555 1_555
O4 N4 1_555 1_555
N1 Cu1 1_555 1_555
N2 C2 1_555 1_555
N3 C4 1_555 1_555
N4 O2 1_555 1_555
C1 C3 1_555 1_555
C2 N1 1_555 1_555
C3 N1 1_555 1_555
C4 N2 1_555 1_555
C5 H6 1_555 1_555
H1 C2 1_555 1_555
H2 C1 1_555 1_555
H3 C3 1_555 1_555
H4 N3 1_555 1_555
H5 N3 1_555 1_555
H7 C5 1_555 1_555
H8 C5 1_555 1_555
Cu1J O1 1_555 1_555
Cu1H N2 1_555 1_555
O1J Cu1 1_555 1_555
N2D Cu1 1_555 1_555
C1 C4 1_555 1_555
Cu1J O1J 1_555 1_555

#END
