
#######################################################################
#
#                 Cambridge Crystallographic Data Centre
#                                CCDC 
#
#######################################################################
#
# If this CIF has been generated from an entry in the Cambridge 
# Structural Database, then it will include bibliographic, chemical, 
# crystal, experimental, refinement or atomic coordinate data resulting 
# from the CCDC's data processing and validation procedures.
#
#######################################################################

data_LAKFIN
_chemical_formula_moiety         '(C86 H76 I6 N12 Zn3)n'
_symmetry_cell_setting           orthorhombic
_symmetry_space_group_name_H-M   'P b c a'
_symmetry_Int_Tables_number      61
_space_group_name_Hall           '-P 2ac 2ab'
loop_
_symmetry_equiv_pos_site_id
_symmetry_equiv_pos_as_xyz
1 x,y,z
2 1/2-x,-y,1/2+z
3 -x,1/2+y,1/2-z
4 1/2+x,1/2-y,-z
5 -x,-y,-z
6 1/2+x,y,1/2-z
7 x,1/2-y,1/2+z
8 1/2-x,1/2+y,z
_cell_length_a                   27.787(3)
_cell_length_b                   13.7247(12)
_cell_length_c                   45.881(4)
_cell_angle_alpha                90
_cell_angle_beta                 90
_cell_angle_gamma                90
_cell_volume                     17497.6
loop_
_atom_site_label
_atom_site_type_symbol
_atom_site_fract_x
_atom_site_fract_y
_atom_site_fract_z
_atom_site_U_iso_or_equiv
_atom_site_thermal_displace_type
C1 C 0.2251(3) 1.0446(6) 0.23995(17) 0.0253 Uani
H1 H 0.1940 1.0497 0.2315 0.0310 Uiso
C2 C 0.2289(3) 1.0098(5) 0.26832(16) 0.0213 Uani
H2 H 0.2010 0.9923 0.2792 0.0260 Uiso
C3 C 0.2741(3) 1.0014(5) 0.28025(16) 0.0203 Uani
C4 C 0.3144(3) 1.0240(6) 0.26339(18) 0.0270 Uani
H3 H 0.3460 1.0155 0.2709 0.0320 Uiso
C5 C 0.3074(3) 1.0590(6) 0.23553(18) 0.0300 Uani
H4 H 0.3348 1.0751 0.2241 0.0360 Uiso
C6 C 0.2801(3) 0.9730(5) 0.31145(16) 0.0207 Uani
C7 C 0.2439(3) 0.9388(5) 0.35448(16) 0.0190 Uani
C8 C 0.3258(3) 0.9401(5) 0.35120(16) 0.0193 Uani
C9 C 0.2000(3) 0.9242(5) 0.37193(17) 0.0200 Uani
C10 C 0.1549(3) 0.9356(5) 0.35903(16) 0.0223 Uani
H5 H 0.1521 0.9540 0.3391 0.0270 Uiso
C11 C 0.1147(3) 0.9197(6) 0.37568(17) 0.0227 Uani
H6 H 0.0841 0.9281 0.3668 0.0270 Uiso
C12 C 0.1596(3) 0.8828(6) 0.41603(18) 0.0267 Uani
H7 H 0.1613 0.8638 0.4359 0.0320 Uiso
C13 C 0.2020(3) 0.8986(5) 0.40122(17) 0.0243 Uani
H8 H 0.2320 0.8921 0.4109 0.0290 Uiso
C14 C 0.3727(3) 0.9293(5) 0.36494(17) 0.0220 Uani
C15 C 0.3767(3) 0.9133(6) 0.39468(18) 0.0253 Uani
H9 H 0.3488 0.9121 0.4066 0.0300 Uiso
C16 C 0.4219(3) 0.8990(6) 0.4067(2) 0.0310 Uani
H10 H 0.4242 0.8893 0.4272 0.0370 Uiso
C17 C 0.4586(3) 0.9154(7) 0.3622(2) 0.0347 Uani
H11 H 0.4870 0.9164 0.3508 0.0420 Uiso
C18 C 0.4150(3) 0.9317(6) 0.3486(2) 0.0313 Uani
H12 H 0.4138 0.9444 0.3282 0.0380 Uiso
C19 C 0.3118(3) 1.1214(6) 0.13334(19) 0.0337 Uani
H13 H 0.3114 1.1906 0.1334 0.0400 Uiso
C20 C 0.3340(4) 1.0732(6) 0.11024(19) 0.0343 Uani
H14 H 0.3478 1.1089 0.0946 0.0410 Uiso
C21 C 0.3358(3) 0.9725(6) 0.11050(18) 0.0243 Uani
C22 C 0.3153(4) 0.9227(6) 0.1335(2) 0.0350 Uani
H15 H 0.3164 0.8536 0.1344 0.0420 Uiso
C23 C 0.2929(4) 0.9762(6) 0.1551(2) 0.0360 Uani
H16 H 0.2781 0.9418 0.1707 0.0430 Uiso
C24 C 0.3594(3) 0.9205(6) 0.08614(17) 0.0247 Uani
C25 C 0.3941(3) 0.9219(6) 0.04181(17) 0.0250 Uani
C26 C 0.3932(3) 0.7834(6) 0.06822(18) 0.0273 Uani
C27 C 0.4092(3) 0.9756(6) 0.01508(17) 0.0260 Uani
C28 C 0.3987(4) 1.0743(6) 0.01234(19) 0.0360 Uani
H17 H 0.3824 1.1085 0.0274 0.0430 Uiso
C29 C 0.4352(4) 0.9310(7) -0.0068(2) 0.0397 Uani
H18 H 0.4443 0.8646 -0.0050 0.0480 Uiso
C30 C 0.4089(3) 0.6801(6) 0.0729(2) 0.0300 Uani
C31 C 0.4277(3) 0.6269(7) 0.0499(2) 0.0353 Uani
H19 H 0.4291 0.6541 0.0309 0.0430 Uiso
C32 C 0.4064(4) 0.6386(7) 0.1000(2) 0.0487 Uani
H20 H 0.3932 0.6737 0.1160 0.0590 Uiso
C33 C 0.4477(3) 0.9825(6) -0.03098(19) 0.0343 Uani
H21 H 0.4652 0.9501 -0.0459 0.0410 Uiso
C34 C 0.4128(4) 1.1210(6) -0.01304(18) 0.0347 Uani
H22 H 0.4053 1.1881 -0.0152 0.0410 Uiso
C35 C 0.4444(3) 0.5332(7) 0.0551(2) 0.0390 Uani
H23 H 0.4574 0.4965 0.0394 0.0470 Uiso
C36 C 0.4236(4) 0.5447(7) 0.1038(2) 0.0423 Uani
H24 H 0.4218 0.5160 0.1226 0.0510 Uiso
I1 I 0.16456(2) 1.16050(5) 0.175201(15) 0.0447 Uani
I2 I 0.30265(3) 1.30904(4) 0.193339(14) 0.0386 Uani
I3 I -0.01406(2) 0.94920(5) 0.398935(14) 0.0397 Uani
I4 I 0.05787(3) 0.67225(5) 0.433247(18) 0.0514 Uani
I5 I 0.57398(3) 0.77541(6) 0.36858(3) 0.0718 Uani
I6 I 0.51079(3) 0.77734(5) 0.45868(2) 0.0596 Uani
N1 N 0.2634(3) 1.0712(5) 0.22402(14) 0.0260 Uani
N2 N 0.2387(2) 0.9606(4) 0.32647(13) 0.0193 Uani
N3 N 0.2866(2) 0.9275(4) 0.36810(14) 0.0200 Uani
N4 N 0.3240(2) 0.9643(4) 0.32247(13) 0.0210 Uani
N5 N 0.1160(2) 0.8930(4) 0.40373(14) 0.0220 Uani
N6 N 0.4625(2) 0.8983(5) 0.39087(17) 0.0290 Uani
N7 N 0.2910(3) 1.0734(5) 0.15545(15) 0.0263 Uani
N8 N 0.3708(2) 0.9719(5) 0.06221(14) 0.0257 Uani
N9 N 0.4062(3) 0.8277(5) 0.04316(15) 0.0297 Uani
N10 N 0.3691(2) 0.8250(5) 0.09026(14) 0.0240 Uani
N11 N 0.4364(3) 1.0766(5) -0.03478(15) 0.0280 Uani
N12 N 0.4425(3) 0.4931(5) 0.08183(17) 0.0313 Uani
Zn1 Zn 0.25446(4) 1.15171(7) 0.18651(2) 0.0275 Uani
Zn2 Zn 0.05250(4) 0.85568(7) 0.42526(2) 0.0288 Uani
Zn3 Zn 0.52748(4) 0.85846(7) 0.40961(3) 0.0370 Uani
N11A N 0.0636(3) 0.9234(5) 0.46522(15) 0.0280 Uani
N12B N 0.5575(3) 0.9931(5) 0.41817(17) 0.0313 Uani
Zn2A Zn 0.44750(4) 1.14432(7) -0.07474(2) 0.0288 Uani
Zn3B Zn 0.47252(4) 0.35846(7) 0.09039(3) 0.0370 Uani
C37 C 0.0444(4) 0.9421(11) 0.3091(3) 0.0630 Uani
H25 H 0.0236 0.9691 0.3234 0.0760 Uiso
C38 C 0.0623(5) 1.0070(13) 0.2887(3) 0.0730 Uani
H26 H 0.0531 1.0729 0.2917 0.0880 Uiso
C39 C 0.0913(5) 0.9917(14) 0.2647(4) 0.0920 Uani
H27 H 0.0981 1.0469 0.2529 0.1110 Uiso
C40 C 0.1112(6) 0.9049(18) 0.2563(4) 0.1033 Uani
H28 H 0.1294 0.9088 0.2388 0.1240 Uiso
C41 C 0.1098(6) 0.8071(17) 0.2690(5) 0.1070 Uani
H29 H 0.1276 0.7575 0.2594 0.1280 Uiso
C42 C 0.0848(6) 0.7805(15) 0.2938(4) 0.0947 Uani
C43 C 0.0844(7) 0.6900(14) 0.3051(5) 0.1037 Uani
H30 H 0.1020 0.6360 0.2978 0.1250 Uiso
C44 C 0.0525(7) 0.6879(12) 0.3304(4) 0.1023 Uani
H31 H 0.0462 0.6337 0.3427 0.1230 Uiso
C45 C 0.0335(6) 0.7797(12) 0.3327(3) 0.0827 Uani
H32 H 0.0104 0.7984 0.3469 0.0990 Uiso
C46 C 0.0528(5) 0.8432(11) 0.3113(3) 0.0680 Uani
C47 C 0.0526(6) 0.5695(16) 0.2350(4) 0.0977 Uani
H33 H 0.0451 0.6233 0.2472 0.1170 Uiso
C48 C 0.0692(5) 0.5943(15) 0.2078(5) 0.0970 Uani
H34 H 0.0709 0.6617 0.2032 0.1160 Uiso
C49 C 0.0838(5) 0.5286(16) 0.1865(5) 0.0950 Uani
H35 H 0.0937 0.5575 0.1687 0.1140 Uiso
C50 C 0.0862(6) 0.4291(17) 0.1870(5) 0.1157 Uani
H36 H 0.0989 0.3999 0.1699 0.1380 Uiso
C51 C 0.0725(6) 0.3629(15) 0.2093(4) 0.0910 Uani
H37 H 0.0767 0.2959 0.2049 0.1090 Uiso
C52 C 0.0555(6) 0.3811(16) 0.2344(4) 0.0983 Uani
C53 C 0.0396(7) 0.3045(16) 0.2560(4) 0.1037 Uani
H38 H 0.0424 0.2357 0.2543 0.1240 Uiso
C54 C 0.0202(7) 0.358(2) 0.2788(5) 0.1147 Uani
H39 H 0.0059 0.3284 0.2954 0.1370 Uiso
C55 C 0.0234(7) 0.4619(18) 0.2752(4) 0.1057 Uani
H40 H 0.0130 0.5101 0.2887 0.1290 Uiso
C56 C 0.0450(6) 0.4783(14) 0.2476(4) 0.0897 Uani
C57 C 0.3495(9) 0.937(2) 0.4777(4) 0.1643 Uani
H41 H 0.3578 0.9577 0.4977 0.1970 Uiso
H42 H 0.3725 0.9672 0.4639 0.1970 Uiso
C58 C 0.2983(9) 0.966(2) 0.4702(4) 0.1643 Uani
H43 H 0.2964 0.9673 0.4487 0.1970 Uiso
H44 H 0.2946 1.0344 0.4768 0.1970 Uiso
C59 C 0.2529(9) 0.911(2) 0.4810(4) 0.1643 Uani
H45 H 0.2465 0.9250 0.5018 0.1970 Uiso
H46 H 0.2242 0.9293 0.4694 0.1970 Uiso
C60 C 0.2653(9) 0.802(2) 0.4765(4) 0.1643 Uani
H47 H 0.2381 0.7654 0.4852 0.1970 Uiso
H48 H 0.2634 0.7909 0.4552 0.1970 Uiso
C61 C 0.3080(9) 0.752(2) 0.4859(4) 0.1643 Uani
H49 H 0.3090 0.6853 0.4774 0.1970 Uiso
H50 H 0.3086 0.7459 0.5074 0.1970 Uiso
C62 C 0.3518(9) 0.813(2) 0.4749(4) 0.1643 Uani
H51 H 0.3571 0.7971 0.4542 0.1970 Uiso
H52 H 0.3807 0.7911 0.4857 0.1970 Uiso
C63 C 0.7326(13) 0.763(3) 0.4347(9) 0.3500 Uani
H53 H 0.7358 0.6984 0.4252 0.4180 Uiso
H54 H 0.7621 0.7770 0.4461 0.4180 Uiso
C64 C 0.6879(14) 0.769(3) 0.4534(9) 0.3500 Uani
H55 H 0.6930 0.7240 0.4701 0.4180 Uiso
H56 H 0.6613 0.7406 0.4418 0.4180 Uiso
C65 C 0.6691(15) 0.866(3) 0.4662(9) 0.3500 Uani
H57 H 0.6334 0.8670 0.4660 0.4180 Uiso
H58 H 0.6802 0.8737 0.4866 0.4180 Uiso
C66 C 0.6894(15) 0.948(3) 0.4469(9) 0.3500 Uani
H59 H 0.6599 0.9787 0.4392 0.4180 Uiso
H60 H 0.7022 0.9942 0.4614 0.4180 Uiso
C67 C 0.7216(14) 0.959(3) 0.4237(9) 0.3500 Uani
H61 H 0.7544 0.9752 0.4305 0.4180 Uiso
H62 H 0.7105 1.0086 0.4096 0.4180 Uiso
C68 C 0.7196(14) 0.853(3) 0.4102(8) 0.3500 Uani
H63 H 0.7428 0.8497 0.3938 0.4180 Uiso
H64 H 0.6870 0.8421 0.4021 0.4180 Uiso
C69 C 0.2317(4) 0.2149(6) 0.3229(2) 0.0413 Uani
C70 C 0.2582(6) 0.2422(7) 0.2974(3) 0.0657 Uani
H65 H 0.2923 0.2469 0.2978 0.0790 Uiso
C71 C 0.2325(6) 0.2619(7) 0.2717(2) 0.0627 Uani
H66 H 0.2497 0.2783 0.2545 0.0750 Uiso
C72 C 0.1833(7) 0.2579(8) 0.2708(3) 0.0730 Uani
H67 H 0.1669 0.2718 0.2531 0.0870 Uiso
C73 C 0.1577(6) 0.2340(7) 0.2952(3) 0.0623 Uani
H68 H 0.1235 0.2326 0.2945 0.0740 Uiso
C74 C 0.1817(4) 0.2115(6) 0.3215(2) 0.0410 Uani
C75 C 0.1546(4) 0.1889(6) 0.3484(2) 0.0410 Uani
C76 C 0.1036(4) 0.1836(7) 0.3485(3) 0.0553 Uani
H69 H 0.0864 0.1920 0.3308 0.0660 Uiso
C77 C 0.0783(4) 0.1661(7) 0.3743(3) 0.0587 Uani
H70 H 0.0441 0.1638 0.3742 0.0700 Uiso
C78 C 0.1031(5) 0.1526(8) 0.3994(3) 0.0623 Uani
H71 H 0.0856 0.1401 0.4168 0.0740 Uiso
C79 C 0.1525(4) 0.1561(7) 0.4009(2) 0.0473 Uani
H72 H 0.1687 0.1478 0.4189 0.0570 Uiso
C80 C 0.1788(4) 0.1724(6) 0.3750(2) 0.0387 Uani
C81 C 0.2311(4) 0.1722(6) 0.3753(2) 0.0380 Uani
C82 C 0.2569(4) 0.1486(7) 0.4016(2) 0.0490 Uani
H73 H 0.2397 0.1334 0.4190 0.0590 Uiso
C83 C 0.3061(4) 0.1481(7) 0.4016(3) 0.0503 Uani
H74 H 0.3227 0.1340 0.4192 0.0600 Uiso
C84 C 0.3330(4) 0.1682(7) 0.3761(3) 0.0557 Uani
H75 H 0.3671 0.1663 0.3764 0.0670 Uiso
C85 C 0.3087(4) 0.1905(7) 0.3511(3) 0.0477 Uani
H76 H 0.3264 0.2052 0.3339 0.0570 Uiso
C86 C 0.2570(4) 0.1921(6) 0.3503(2) 0.0390 Uani
loop_
_atom_site_aniso_label
_atom_site_aniso_U_11
_atom_site_aniso_U_22
_atom_site_aniso_U_33
_atom_site_aniso_U_23
_atom_site_aniso_U_13
_atom_site_aniso_U_12
C1 0.037(5) 0.019(4) 0.020(4) -0.001(3) -0.002(3) 0.000(3)
C2 0.028(4) 0.016(3) 0.020(4) 0.001(3) 0.003(3) 0.000(3)
C3 0.027(4) 0.014(3) 0.020(4) -0.001(3) 0.004(3) 0.002(3)
C4 0.024(4) 0.027(4) 0.030(4) 0.004(3) 0.004(3) 0.005(3)
C5 0.033(5) 0.028(4) 0.029(4) 0.003(3) 0.005(4) 0.004(4)
C6 0.030(4) 0.012(3) 0.020(4) -0.004(3) -0.002(3) 0.001(3)
C7 0.021(4) 0.014(3) 0.022(4) -0.006(3) -0.001(3) 0.001(3)
C8 0.023(4) 0.011(3) 0.024(4) -0.002(3) -0.001(3) 0.000(3)
C9 0.025(4) 0.007(3) 0.028(4) -0.005(3) -0.001(3) -0.004(3)
C10 0.031(4) 0.017(3) 0.019(4) 0.001(3) 0.001(3) 0.004(3)
C11 0.021(4) 0.025(4) 0.022(4) -0.002(3) -0.003(3) 0.001(3)
C12 0.032(4) 0.025(4) 0.023(4) 0.003(3) 0.002(3) -0.003(3)
C13 0.032(4) 0.018(4) 0.023(4) -0.004(3) -0.002(3) -0.006(3)
C14 0.026(4) 0.012(3) 0.028(4) -0.002(3) -0.005(3) 0.004(3)
C15 0.019(4) 0.023(4) 0.034(4) -0.006(3) -0.001(3) 0.001(3)
C16 0.027(4) 0.034(5) 0.032(4) 0.004(4) -0.007(4) 0.002(4)
C17 0.016(4) 0.040(5) 0.048(6) 0.006(4) 0.003(4) -0.002(3)
C18 0.023(4) 0.035(5) 0.036(5) 0.009(4) 0.000(4) -0.001(4)
C19 0.052(6) 0.019(4) 0.030(4) 0.006(3) 0.010(4) 0.001(4)
C20 0.051(6) 0.021(4) 0.031(4) 0.004(3) 0.013(4) 0.005(4)
C21 0.021(4) 0.024(4) 0.028(4) 0.003(3) 0.002(3) 0.002(3)
C22 0.053(6) 0.018(4) 0.034(5) 0.002(3) 0.009(4) 0.002(4)
C23 0.052(6) 0.021(4) 0.035(5) 0.006(4) 0.016(4) 0.000(4)
C24 0.027(4) 0.021(4) 0.026(4) -0.006(3) 0.001(3) 0.000(3)
C25 0.023(4) 0.030(4) 0.022(4) -0.002(3) -0.003(3) 0.002(3)
C26 0.032(4) 0.024(4) 0.026(4) -0.007(3) 0.001(3) 0.003(3)
C27 0.028(4) 0.029(4) 0.021(4) -0.002(3) -0.005(3) 0.002(3)
C28 0.051(6) 0.029(4) 0.028(4) -0.008(4) 0.011(4) -0.002(4)
C29 0.051(6) 0.026(4) 0.042(5) 0.000(4) 0.019(5) 0.009(4)
C30 0.023(4) 0.026(4) 0.041(5) -0.001(4) 0.000(4) 0.005(3)
C31 0.042(5) 0.036(5) 0.028(4) -0.010(4) -0.002(4) 0.010(4)
C32 0.070(7) 0.029(5) 0.047(6) 0.009(4) 0.028(5) 0.024(5)
C33 0.046 0.026 0.031 -0.002 0.007 0.003
C34 0.057 0.021 0.026 -0.001 -0.001 0.002
C35 0.034 0.034 0.049 -0.012 -0.002 0.004
C36 0.054 0.026 0.047 0.004 0.019 0.013
I1 0.0422(4) 0.0514(4) 0.0405(3) 0.0131(3) -0.0059(3) 0.0073(3)
I2 0.0576(4) 0.0210(3) 0.0371(3) -0.0013(2) 0.0060(3) -0.0013(3)
I3 0.0243(3) 0.0592(4) 0.0355(3) -0.0018(3) 0.0002(2) -0.0037(3)
I4 0.0561(4) 0.0272(3) 0.0709(5) -0.0076(3) 0.0177(4) -0.0113(3)
I5 0.0428(4) 0.0450(4) 0.1275(8) -0.0246(5) 0.0121(5) 0.0090(3)
I6 0.0491(4) 0.0451(4) 0.0846(6) 0.0406(4) -0.0298(4) -0.0199(3)
N1 0.037(4) 0.019(3) 0.022(3) 0.003(3) 0.007(3) 0.005(3)
N2 0.025(3) 0.014(3) 0.019(3) 0.001(2) 0.002(2) -0.002(2)
N3 0.024(3) 0.011(3) 0.025(3) -0.004(2) 0.001(3) 0.001(2)
N4 0.028(3) 0.015(3) 0.020(3) -0.004(2) 0.003(3) 0.001(3)
N5 0.029(3) 0.017(3) 0.020(3) -0.003(2) 0.000(3) -0.003(3)
N6 0.022(3) 0.021(3) 0.044(4) 0.011(3) -0.003(3) -0.002(3)
N7 0.033(4) 0.021(3) 0.025(3) 0.005(3) 0.006(3) -0.001(3)
N8 0.030(4) 0.022(3) 0.025(3) -0.002(3) -0.003(3) 0.000(3)
N9 0.035(4) 0.026(4) 0.028(4) -0.003(3) -0.001(3) 0.001(3)
N10 0.028(3) 0.020(3) 0.024(3) -0.004(3) 0.002(3) 0.003(3)
N11 0.032 0.028 0.024 -0.005 -0.009 -0.004
N12 0.029 0.025 0.04 -0.006 -0.003 0.005
Zn1 0.0397(6) 0.0214(4) 0.0215(4) 0.0019(4) 0.0048(4) 0.0051(4)
Zn2 0.0269(5) 0.0312(5) 0.0283(5) -0.0053(4) 0.0042(4) -0.0073(4)
Zn3 0.0236(5) 0.0225(5) 0.0650(8) 0.0087(5) -0.0094(5) -0.0032(4)
N11A 0.032 0.028 0.024 0.005 0.009 -0.004
N12B 0.029 0.025 0.04 0.006 -0.003 -0.005
Zn2A 0.0269 0.0312 0.0283 0.0053 -0.0042 -0.0073
Zn3B 0.0236 0.0225 0.065 -0.0087 -0.0094 0.0032
C37 0.047(7) 0.082(9) 0.060(8) -0.016(7) -0.010(6) 0.017(6)
C38 0.048(7) 0.106(12) 0.065(9) -0.024(8) -0.015(6) -0.005(7)
C39 0.052(8) 0.113(14) 0.111(13) -0.045(11) -0.007(8) -0.023(9)
C40 0.059(10) 0.152(19) 0.099(13) -0.048(14) -0.011(9) -0.026(12)
C41 0.071(11) 0.136(18) 0.114(16) -0.078(14) -0.022(11) 0.011(11)
C42 0.072(10) 0.107(14) 0.105(14) -0.067(12) -0.030(10) 0.017(10)
C43 0.091(13) 0.083(12) 0.137(17) -0.056(12) -0.045(12) 0.027(10)
C44 0.141(17) 0.060(9) 0.106(14) -0.035(9) -0.026(13) 0.032(10)
C45 0.084(10) 0.098(12) 0.066(9) -0.027(9) -0.016(8) 0.018(9)
C46 0.064(8) 0.085(10) 0.055(8) -0.025(7) -0.016(6) 0.011(7)
C47 0.080(12) 0.116(16) 0.097(14) -0.029(12) -0.044(10) 0.006(11)
C48 0.045(8) 0.097(13) 0.149(19) 0.018(13) -0.029(10) -0.016(8)
C49 0.049(9) 0.114(15) 0.122(16) 0.021(13) -0.011(9) -0.009(9)
C50 0.053(10) 0.134(19) 0.16(2) 0.027(16) 0.012(11) 0.012(11)
C51 0.062(9) 0.128(15) 0.083(11) 0.001(11) -0.005(8) 0.027(10)
C52 0.061(9) 0.150(18) 0.084(12) -0.025(12) -0.031(9) 0.022(10)
C53 0.102(14) 0.124(16) 0.085(12) 0.043(12) -0.023(11) -0.008(12)
C54 0.076(12) 0.18(2) 0.088(14) 0.022(15) -0.034(10) -0.018(14)
C55 0.095(13) 0.15(2) 0.072(12) -0.033(13) -0.026(10) 0.007(13)
C56 0.066(10) 0.101(13) 0.102(13) -0.039(11) -0.036(9) 0.028(9)
C57 0.190(12) 0.244(14) 0.059(5) -0.014(7) 0.000(6) 0.013(12)
C58 0.190(12) 0.244(14) 0.059(5) -0.014(7) 0.000(6) 0.013(12)
C59 0.190(12) 0.244(14) 0.059(5) -0.014(7) 0.000(6) 0.013(12)
C60 0.190(12) 0.244(14) 0.059(5) -0.014(7) 0.000(6) 0.013(12)
C61 0.190(12) 0.244(14) 0.059(5) -0.014(7) 0.000(6) 0.013(12)
C62 0.190(12) 0.244(14) 0.059(5) -0.014(7) 0.000(6) 0.013(12)
C63 0.270(19) 0.45(4) 0.33(3) -0.15(2) 0.186(16) -0.15(2)
C64 0.270(19) 0.45(4) 0.33(3) -0.15(2) 0.186(16) -0.15(2)
C65 0.270(19) 0.45(4) 0.33(3) -0.15(2) 0.186(16) -0.15(2)
C66 0.270(19) 0.45(4) 0.33(3) -0.15(2) 0.186(16) -0.15(2)
C67 0.270(19) 0.45(4) 0.33(3) -0.15(2) 0.186(16) -0.15(2)
C68 0.270(19) 0.45(4) 0.33(3) -0.15(2) 0.186(16) -0.15(2)
C69 0.071(7) 0.009(4) 0.044(5) -0.010(4) 0.011(5) -0.004(4)
C70 0.115(11) 0.016(4) 0.066(8) -0.023(5) 0.037(8) -0.008(6)
C71 0.130(13) 0.024(5) 0.034(6) -0.004(4) 0.018(7) -0.013(7)
C72 0.151(15) 0.023(5) 0.045(7) -0.013(5) -0.024(8) 0.000(7)
C73 0.111(11) 0.021(5) 0.055(7) -0.006(5) -0.014(7) 0.001(6)
C74 0.069(7) 0.011(4) 0.043(5) -0.004(4) 0.000(5) -0.003(4)
C75 0.049(6) 0.015(4) 0.059(6) -0.012(4) 0.000(5) 0.001(4)
C76 0.061(7) 0.027(5) 0.078(8) -0.003(5) -0.010(6) 0.002(5)
C77 0.041(6) 0.029(5) 0.106(11) -0.002(6) 0.019(7) 0.003(5)
C78 0.060(8) 0.028(5) 0.099(11) -0.002(6) 0.025(7) 0.003(5)
C79 0.069(7) 0.024(5) 0.049(6) -0.008(4) 0.019(5) -0.002(5)
C80 0.055(6) 0.012(4) 0.049(6) -0.005(4) 0.009(5) -0.004(4)
C81 0.057(6) 0.010(4) 0.047(5) -0.011(4) 0.006(5) 0.002(4)
C82 0.071(8) 0.029(5) 0.047(6) -0.014(4) -0.011(5) 0.002(5)
C83 0.066(7) 0.030(5) 0.055(7) -0.014(5) -0.010(6) -0.004(5)
C84 0.051(7) 0.024(5) 0.092(9) -0.026(5) -0.007(6) 0.006(4)
C85 0.043(6) 0.025(5) 0.075(8) -0.019(5) 0.001(5) -0.003(4)
C86 0.048(6) 0.017(4) 0.052(6) -0.015(4) -0.001(5) -0.003(4)
loop_
_geom_bond_atom_site_label_1
_geom_bond_atom_site_label_2
_geom_bond_site_symmetry_1
_geom_bond_site_symmetry_2
C1 H1 1_555 1_555
C2 C1 1_555 1_555
H2 C2 1_555 1_555
C3 C2 1_555 1_555
C4 C3 1_555 1_555
H3 C4 1_555 1_555
C5 C4 1_555 1_555
H4 C5 1_555 1_555
C6 C3 1_555 1_555
C7 C9 1_555 1_555
C8 C14 1_555 1_555
C9 C10 1_555 1_555
C10 H5 1_555 1_555
C11 C10 1_555 1_555
H6 C11 1_555 1_555
C12 H7 1_555 1_555
C13 C9 1_555 1_555
H8 C13 1_555 1_555
C14 C15 1_555 1_555
C15 H9 1_555 1_555
C16 C15 1_555 1_555
H10 C16 1_555 1_555
C17 H11 1_555 1_555
C18 C14 1_555 1_555
H12 C18 1_555 1_555
C19 H13 1_555 1_555
C20 C19 1_555 1_555
H14 C20 1_555 1_555
C21 C20 1_555 1_555
C22 C21 1_555 1_555
H15 C22 1_555 1_555
C23 C22 1_555 1_555
H16 C23 1_555 1_555
C24 C21 1_555 1_555
C25 C27 1_555 1_555
C26 C30 1_555 1_555
C27 C28 1_555 1_555
C28 H17 1_555 1_555
C29 C27 1_555 1_555
H18 C29 1_555 1_555
C30 C31 1_555 1_555
C31 H19 1_555 1_555
C32 C30 1_555 1_555
H20 C32 1_555 1_555
C33 C29 1_555 1_555
H21 C33 1_555 1_555
C34 C28 1_555 1_555
H22 C34 1_555 1_555
C35 C31 1_555 1_555
H23 C35 1_555 1_555
C36 C32 1_555 1_555
H24 C36 1_555 1_555
I1 Zn1 1_555 1_555
I2 Zn1 1_555 1_555
I3 Zn2 1_555 1_555
I4 Zn2 1_555 1_555
I5 Zn3 1_555 1_555
I6 Zn3 1_555 1_555
N1 C1 1_555 1_555
N2 C6 1_555 1_555
N3 C7 1_555 1_555
N4 C6 1_555 1_555
N5 C11 1_555 1_555
N6 C16 1_555 1_555
N7 C19 1_555 1_555
N8 C24 1_555 1_555
N9 C25 1_555 1_555
N10 C24 1_555 1_555
N11 C33 1_555 1_555
N12 C35 1_555 1_555
Zn1 N1 1_555 1_555
Zn2 N5 1_555 1_555
Zn3 N6 1_555 1_555
C37 H25 1_555 1_555
C38 C37 1_555 1_555
H26 C38 1_555 1_555
C39 C38 1_555 1_555
H27 C39 1_555 1_555
C40 C39 1_555 1_555
H28 C40 1_555 1_555
C41 C40 1_555 1_555
H29 C41 1_555 1_555
C42 C41 1_555 1_555
C43 C42 1_555 1_555
H30 C43 1_555 1_555
C44 C43 1_555 1_555
H31 C44 1_555 1_555
C45 C44 1_555 1_555
H32 C45 1_555 1_555
C46 C37 1_555 1_555
C47 H33 1_555 1_555
C48 C47 1_555 1_555
H34 C48 1_555 1_555
C49 C48 1_555 1_555
H35 C49 1_555 1_555
C50 C49 1_555 1_555
H36 C50 1_555 1_555
C51 C50 1_555 1_555
H37 C51 1_555 1_555
C52 C51 1_555 1_555
C53 C52 1_555 1_555
H38 C53 1_555 1_555
C54 C53 1_555 1_555
H39 C54 1_555 1_555
C55 C54 1_555 1_555
H40 C55 1_555 1_555
C56 C47 1_555 1_555
C57 H41 1_555 1_555
H42 C57 1_555 1_555
C58 C57 1_555 1_555
H43 C58 1_555 1_555
H44 C58 1_555 1_555
C59 C58 1_555 1_555
H45 C59 1_555 1_555
H46 C59 1_555 1_555
C60 C59 1_555 1_555
H47 C60 1_555 1_555
H48 C60 1_555 1_555
C61 C60 1_555 1_555
H49 C61 1_555 1_555
H50 C61 1_555 1_555
C62 C57 1_555 1_555
H51 C62 1_555 1_555
H52 C62 1_555 1_555
C63 H53 1_555 1_555
H54 C63 1_555 1_555
C64 C63 1_555 1_555
H55 C64 1_555 1_555
H56 C64 1_555 1_555
C65 C64 1_555 1_555
H57 C65 1_555 1_555
H58 C65 1_555 1_555
C66 C65 1_555 1_555
H59 C66 1_555 1_555
H60 C66 1_555 1_555
C67 C66 1_555 1_555
H61 C67 1_555 1_555
H62 C67 1_555 1_555
C68 C63 1_555 1_555
H63 C68 1_555 1_555
H64 C68 1_555 1_555
C69 C70 1_555 1_555
C70 H65 1_555 1_555
C71 C70 1_555 1_555
H66 C71 1_555 1_555
C72 C71 1_555 1_555
H67 C72 1_555 1_555
C73 C72 1_555 1_555
H68 C73 1_555 1_555
C74 C69 1_555 1_555
C75 C74 1_555 1_555
C76 C75 1_555 1_555
H69 C76 1_555 1_555
C77 C76 1_555 1_555
H70 C77 1_555 1_555
C78 C77 1_555 1_555
H71 C78 1_555 1_555
C79 C78 1_555 1_555
H72 C79 1_555 1_555
C80 C75 1_555 1_555
C81 C80 1_555 1_555
C82 C81 1_555 1_555
H73 C82 1_555 1_555
C83 C82 1_555 1_555
H74 C83 1_555 1_555
C84 C83 1_555 1_555
H75 C84 1_555 1_555
C85 C84 1_555 1_555
H76 C85 1_555 1_555
C86 C69 1_555 1_555
N11A Zn2 1_555 1_555
N12B Zn3 1_555 1_555
Zn2A N11 1_555 1_555
Zn3B N12 1_555 1_555
C5 N1 1_555 1_555
C7 N2 1_555 1_555
C8 N3 1_555 1_555
C8 N4 1_555 1_555
C12 C13 1_555 1_555
C12 N5 1_555 1_555
C17 C18 1_555 1_555
C17 N6 1_555 1_555
C23 N7 1_555 1_555
C25 N8 1_555 1_555
C26 N9 1_555 1_555
C26 N10 1_555 1_555
C34 N11 1_555 1_555
C36 N12 1_555 1_555
N7 Zn1 1_555 1_555
C42 C46 1_555 1_555
C45 C46 1_555 1_555
C52 C56 1_555 1_555
C55 C56 1_555 1_555
C61 C62 1_555 1_555
C67 C68 1_555 1_555
C73 C74 1_555 1_555
C79 C80 1_555 1_555
C81 C86 1_555 1_555
C85 C86 1_555 1_555

#END
