
#######################################################################
#
#                 Cambridge Crystallographic Data Centre
#                                CCDC 
#
#######################################################################
#
# If this CIF has been generated from an entry in the Cambridge 
# Structural Database, then it will include bibliographic, chemical, 
# crystal, experimental, refinement or atomic coordinate data resulting 
# from the CCDC's data processing and validation procedures.
#
#######################################################################

data_XAPDEY
_chemical_formula_moiety         '(C84 H89 I6 N13 O2 Zn3)n'
_symmetry_cell_setting           orthorhombic
_symmetry_space_group_name_H-M   'P b c a'
_symmetry_Int_Tables_number      61
_space_group_name_Hall           '-P 2ac 2ab'
loop_
_symmetry_equiv_pos_site_id
_symmetry_equiv_pos_as_xyz
1 x,y,z
2 1/2-x,-y,1/2+z
3 -x,1/2+y,1/2-z
4 1/2+x,1/2-y,-z
5 -x,-y,-z
6 1/2+x,y,1/2-z
7 x,1/2-y,1/2+z
8 1/2-x,1/2+y,z
_cell_length_a                   27.873(2)
_cell_length_b                   13.7073(10)
_cell_length_c                   45.852(3)
_cell_angle_alpha                90
_cell_angle_beta                 90
_cell_angle_gamma                90
_cell_volume                     17518.4
loop_
_atom_site_label
_atom_site_type_symbol
_atom_site_fract_x
_atom_site_fract_y
_atom_site_fract_z
C1 C 0.0574(3) 0.0094(6) 0.52966(17)
H1 H 0.0393 0.0382 0.5450
C2 C 0.0695(3) 0.0660(6) 0.50582(16)
H2 H 0.0590 0.1319 0.5046
C3 C 0.0967(2) 0.0258(5) 0.48391(13)
C4 C 0.1091(3) -0.0726(5) 0.48587(15)
H3 H 0.1267 -0.1032 0.4707
C5 C 0.0953(3) -0.1244(5) 0.51010(14)
H4 H 0.1038 -0.1914 0.5113
C6 C 0.1104(2) 0.0830(5) 0.45748(13)
C7 C 0.1095(2) 0.2235(5) 0.43190(14)
C8 C 0.1424(2) 0.0881(5) 0.41227(13)
C9 C 0.0934(2) 0.3254(5) 0.42879(14)
C10 C 0.0695(3) 0.3735(5) 0.45092(16)
H5 H 0.0649 0.3426 0.4693
C11 C 0.0521(2) 0.4671(5) 0.44626(15)
H6 H 0.0360 0.4996 0.4617
C12 C 0.0816(3) 0.4672(6) 0.39904(17)
H7 H 0.0864 0.5000 0.3810
C13 C 0.0994(3) 0.3745(5) 0.40229(16)
H8 H 0.1158 0.3437 0.3866
C14 C 0.1650(2) 0.0360(5) 0.38757(14)
C15 C 0.1835(3) 0.0860(5) 0.36361(15)
H9 H 0.1815 0.1551 0.3625
C16 C 0.2048(3) 0.0333(5) 0.34166(16)
H10 H 0.2180 0.0679 0.3256
C17 C 0.1888(3) -0.1116(5) 0.36419(15)
H11 H 0.1901 -0.1808 0.3642
C18 C 0.1671(3) -0.0648(5) 0.38752(14)
H12 H 0.1540 -0.1013 0.4032
C19 C 0.3080(3) 0.0580(5) 0.76113(15)
H13 H 0.3350 0.0808 0.7718
C20 C 0.3150(2) 0.0215(5) 0.73318(14)
H14 H 0.3463 0.0188 0.7250
C21 C 0.2762(2) -0.0108(4) 0.71741(13)
C22 C 0.2313(2) -0.0086(4) 0.73056(13)
H15 H 0.2038 -0.0313 0.7204
C23 C 0.2274(2) 0.0274(4) 0.75885(14)
H16 H 0.1968 0.0272 0.7681
C24 C 0.2809(2) -0.0413(4) 0.68657(13)
C25 C 0.3266(2) -0.0746(4) 0.64692(13)
C26 C 0.2458(2) -0.0774(4) 0.64344(13)
C27 C 0.3743(2) -0.0867(4) 0.63295(14)
C28 C 0.4159(3) -0.0885(7) 0.64952(16)
H17 H 0.4148 -0.0792 0.6700
C29 C 0.4592(3) -0.1043(7) 0.63538(17)
H18 H 0.4876 -0.1076 0.6468
C30 C 0.4226(2) -0.1108(5) 0.59064(14)
H19 H 0.4247 -0.1172 0.5701
C31 C 0.3779(2) -0.0971(5) 0.60319(14)
H20 H 0.3500 -0.0948 0.5913
C32 C 0.2020(2) -0.0920(4) 0.62572(13)
C33 C 0.2046(2) -0.1187(4) 0.59675(13)
H21 H 0.2349 -0.1252 0.5874
C34 C 0.1628(2) -0.1358(5) 0.58157(13)
H22 H 0.1649 -0.1566 0.5618
C35 C 0.1165(2) -0.0961(5) 0.62136(14)
H23 H 0.0858 -0.0871 0.6298
C36 C 0.1567(2) -0.0794(4) 0.63845(13)
H24 H 0.1537 -0.0599 0.6582
I1 I -0.010769(18) -0.08052(5) 0.597388(11)
I2 I 0.06761(2) -0.34261(4) 0.558681(13)
I3 I 0.19728(2) -0.30086(4) 0.303622(12)
I4 I 0.33341(2) -0.15082(5) 0.323386(12)
I5 I 0.07733(2) 0.73350(4) 0.374010(16)
I6 I 0.00996(2) 0.72498(4) 0.462890(13)
N1 N 0.0703(2) -0.0849(4) 0.53212(11)
N2 N 0.0983(2) 0.1778(4) 0.45669(12)
N3 N 0.13216(19) 0.1829(4) 0.40919(11)
N4 N 0.1324(2) 0.0347(4) 0.43598(11)
N5 N 0.0574(2) 0.5134(4) 0.42048(12)
N6 N 0.2078(2) -0.0639(4) 0.34168(12)
N7 N 0.2648(2) 0.0620(4) 0.77334(11)
N8 N 0.32536(19) -0.0510(4) 0.67548(11)
N9 N 0.28809(18) -0.0881(4) 0.63008(11)
N10 N 0.24006(18) -0.0538(4) 0.67150(11)
N11 N 0.46296(19) -0.1152(4) 0.60637(12)
N12 N 0.1191(2) -0.1244(4) 0.59350(11)
Zn1 Zn 0.05765(3) -0.16187(6) 0.570167(17)
Zn2 Zn 0.24448(3) -0.14267(6) 0.310923(16)
Zn3 Zn 0.02786(3) 0.64926(6) 0.413260(19)
N7A N 0.2352(2) -0.0620(4) 0.27334(11)
N11C N -0.03704(19) 0.6152(4) 0.39363(12)
Zn2A Zn 0.25552(3) 0.14267(6) 0.810923(16)
Zn3C Zn 0.52786(3) -0.14926(6) 0.586740(19)
C37 C 0.1821(4) 0.3049(11) 0.1764(2)
C38 C 0.1594(6) 0.2859(9) 0.2024(3)
H25 H 0.1256 0.2925 0.2042
C39 C 0.1874(8) 0.2561(14) 0.2266(4)
H26 H 0.1719 0.2375 0.2442
C40 C 0.2385(8) 0.2536(10) 0.2251(3)
H27 H 0.2572 0.2386 0.2419
C41 C 0.2599(5) 0.2737(7) 0.1986(3)
H28 H 0.2938 0.2683 0.1968
C42 C 0.2324(4) 0.3022(7) 0.1740(2)
C43 C 0.2560(4) 0.3250(6) 0.1462(2)
C44 C 0.3074(4) 0.3277(8) 0.1441(3)
H29 H 0.3263 0.3136 0.1609
C45 C 0.3290(5) 0.3499(10) 0.1188(4)
H30 H 0.3631 0.3520 0.1178
C46 C 0.3023(5) 0.3694(7) 0.0945(3)
H31 H 0.3178 0.3841 0.0766
C47 C 0.2550(6) 0.3678(15) 0.0959(3)
H32 H 0.2377 0.3835 0.0786
C48 C 0.2275(4) 0.3441(9) 0.1216(2)
C49 C 0.1778(4) 0.3433(8) 0.1231(2)
C50 C 0.1475(6) 0.3578(13) 0.0979(3)
H33 H 0.1619 0.3643 0.0793
C51 C 0.0994(6) 0.3625(9) 0.1002(4)
H34 H 0.0809 0.3745 0.0832
C52 C 0.0768(6) 0.3507(8) 0.1261(4)
H35 H 0.0429 0.3552 0.1272
C53 C 0.1038(5) 0.3321(8) 0.1507(4)
H36 H 0.0877 0.3227 0.1688
C54 C 0.1539(4) 0.3266(7) 0.1499(3)
C55 C 0.3161(4) 0.0495(10) 0.4427(2)
H37 H 0.3097 -0.0155 0.4512
H38 H 0.3480 0.0473 0.4332
C56 C 0.3169(7) 0.1241(12) 0.4666(3)
H39 H 0.2897 0.1116 0.4800
H40 H 0.3470 0.1167 0.4779
C57 C 0.3136(7) 0.2253(14) 0.4556(4)
H41 H 0.3106 0.2698 0.4725
H42 H 0.3440 0.2415 0.4455
C58 C 0.2752(7) 0.2437(11) 0.4363(4)
H43 H 0.2775 0.3114 0.4289
H44 H 0.2444 0.2374 0.4470
C59 C 0.2754(5) 0.1741(10) 0.4110(3)
H45 H 0.2458 0.1837 0.3995
H46 H 0.3030 0.1897 0.3982
C60 C 0.2786(4) 0.0709(9) 0.4198(3)
H47 H 0.2856 0.0311 0.4023
H48 H 0.2469 0.0502 0.4273
C61 C 0.1937(4) 0.2457(11) 0.5128(2)
H49 H 0.1931 0.2483 0.4913
H50 H 0.1911 0.1765 0.5187
C62 C 0.2411(4) 0.2862(10) 0.5236(2)
H51 H 0.2679 0.2514 0.5139
H52 H 0.2440 0.2753 0.5448
C63 C 0.2449(4) 0.3948(11) 0.5171(2)
H53 H 0.2750 0.4205 0.5256
H54 H 0.2460 0.4049 0.4958
C64 C 0.2028(4) 0.4504(9) 0.5297(2)
H55 H 0.2054 0.5198 0.5240
H56 H 0.2040 0.4470 0.5512
C65 C 0.1549(4) 0.4101(10) 0.5192(2)
H57 H 0.1285 0.4440 0.5294
H58 H 0.1514 0.4230 0.4980
C66 C 0.1511(4) 0.3012(9) 0.5247(2)
H59 H 0.1486 0.2895 0.5459
H60 H 0.1215 0.2762 0.5154
C67 C 0.5147(12) 0.346(3) 0.2000(7)
H61 H 0.5203 0.3873 0.2174
H62 H 0.5407 0.2973 0.1989
C68 C 0.5155(11) 0.409(2) 0.1732(6)
H63 H 0.4971 0.4693 0.1767
H64 H 0.5490 0.4269 0.1685
C69 C 0.4940(12) 0.354(2) 0.1483(6)
H65 H 0.4932 0.3978 0.1312
H66 H 0.5156 0.2990 0.1435
C70 C 0.4471(11) 0.3158(18) 0.1526(6)
H67 H 0.4363 0.2820 0.1346
H68 H 0.4245 0.3698 0.1566
C71 C 0.4472(14) 0.245(2) 0.1778(6)
H69 H 0.4141 0.2232 0.1820
H70 H 0.4669 0.1873 0.1729
C72 C 0.4671(14) 0.295(3) 0.2029(6)
H71 H 0.4703 0.2461 0.2187
H72 H 0.4433 0.3436 0.2094
C73 C 0.4309(15) 0.143(2) 0.2705(8)
H73 H 0.4184 0.1991 0.2818
H74 H 0.4636 0.1597 0.2637
C74 C 0.3987(13) 0.124(3) 0.2445(8)
H75 H 0.3649 0.1239 0.2511
H76 H 0.4025 0.1778 0.2303
C75 C 0.4092(13) 0.030(3) 0.2297(8)
H77 H 0.3827 0.0157 0.2160
H78 H 0.4388 0.0379 0.2180
C76 C 0.4151(13) -0.052(2) 0.2482(8)
H79 H 0.4287 -0.1059 0.2366
H80 H 0.3832 -0.0724 0.2552
C77 C 0.4468(11) -0.035(2) 0.2741(7)
H81 H 0.4447 -0.0916 0.2874
H82 H 0.4805 -0.0286 0.2676
C78 C 0.4328(12) 0.053(2) 0.2897(6)
H83 H 0.4558 0.0646 0.3058
H84 H 0.4008 0.0426 0.2985
C85 C 0.4291(5) 0.5589(15) 0.2719(3)
C86 C 0.4367(5) 0.4612(14) 0.2774(3)
H97 H 0.4429 0.4174 0.2617
C87 C 0.4353(6) 0.4289(13) 0.3047(3)
H98 H 0.4394 0.3611 0.3081
C88 C 0.4286(5) 0.4867(12) 0.3269(3)
H99 H 0.4285 0.4603 0.3460
C89 C 0.4212(6) 0.5894(12) 0.3229(4)
H100 H 0.4175 0.6326 0.3389
C90 C 0.4198(7) 0.6221(16) 0.2944(5)
H101 H 0.4125 0.6885 0.2903
N13 N 0.4298(5) 0.603(2) 0.2431(5)
O1 O 0.4330(7) 0.537(2) 0.2208(4)
O2 O 0.4320(8) 0.6894(19) 0.2381(5)
loop_
_geom_bond_atom_site_label_1
_geom_bond_atom_site_label_2
_geom_bond_site_symmetry_1
_geom_bond_site_symmetry_2
C1 H1 1_555 1_555
C2 C1 1_555 1_555
H2 C2 1_555 1_555
C3 C2 1_555 1_555
C4 C3 1_555 1_555
H3 C4 1_555 1_555
C5 C4 1_555 1_555
H4 C5 1_555 1_555
C6 C3 1_555 1_555
C7 C9 1_555 1_555
C8 C14 1_555 1_555
C9 C10 1_555 1_555
C10 H5 1_555 1_555
C11 C10 1_555 1_555
H6 C11 1_555 1_555
C12 H7 1_555 1_555
C13 C9 1_555 1_555
H8 C13 1_555 1_555
C14 C15 1_555 1_555
C15 H9 1_555 1_555
C16 C15 1_555 1_555
H10 C16 1_555 1_555
C17 H11 1_555 1_555
C18 C14 1_555 1_555
H12 C18 1_555 1_555
C19 H13 1_555 1_555
C20 C19 1_555 1_555
H14 C20 1_555 1_555
C21 C20 1_555 1_555
C22 C21 1_555 1_555
H15 C22 1_555 1_555
C23 C22 1_555 1_555
H16 C23 1_555 1_555
C24 C21 1_555 1_555
C25 C27 1_555 1_555
C26 C32 1_555 1_555
C27 C28 1_555 1_555
C28 H17 1_555 1_555
C29 C28 1_555 1_555
H18 C29 1_555 1_555
C30 H19 1_555 1_555
C31 C27 1_555 1_555
H20 C31 1_555 1_555
C32 C33 1_555 1_555
C33 H21 1_555 1_555
C34 C33 1_555 1_555
H22 C34 1_555 1_555
C35 H23 1_555 1_555
C36 C32 1_555 1_555
H24 C36 1_555 1_555
I1 Zn1 1_555 1_555
I2 Zn1 1_555 1_555
I3 Zn2 1_555 1_555
I4 Zn2 1_555 1_555
I5 Zn3 1_555 1_555
I6 Zn3 1_555 1_555
N1 C1 1_555 1_555
N2 C6 1_555 1_555
N3 C7 1_555 1_555
N4 C6 1_555 1_555
N5 C11 1_555 1_555
N6 C16 1_555 1_555
N7 C19 1_555 1_555
N8 C24 1_555 1_555
N9 C25 1_555 1_555
N10 C24 1_555 1_555
N11 C29 1_555 1_555
N12 C34 1_555 1_555
Zn1 N1 1_555 1_555
Zn2 N6 1_555 1_555
Zn3 N5 1_555 1_555
C37 C38 1_555 1_555
C38 H25 1_555 1_555
C39 C38 1_555 1_555
H26 C39 1_555 1_555
C40 C39 1_555 1_555
H27 C40 1_555 1_555
C41 C40 1_555 1_555
H28 C41 1_555 1_555
C42 C37 1_555 1_555
C43 C42 1_555 1_555
C44 C43 1_555 1_555
H29 C44 1_555 1_555
C45 C44 1_555 1_555
H30 C45 1_555 1_555
C46 C45 1_555 1_555
H31 C46 1_555 1_555
C47 C46 1_555 1_555
H32 C47 1_555 1_555
C48 C43 1_555 1_555
C49 C48 1_555 1_555
C50 C49 1_555 1_555
H33 C50 1_555 1_555
C51 C50 1_555 1_555
H34 C51 1_555 1_555
C52 C51 1_555 1_555
H35 C52 1_555 1_555
C53 C52 1_555 1_555
H36 C53 1_555 1_555
C54 C37 1_555 1_555
C55 H37 1_555 1_555
H38 C55 1_555 1_555
C56 C55 1_555 1_555
H39 C56 1_555 1_555
H40 C56 1_555 1_555
C57 C56 1_555 1_555
H41 C57 1_555 1_555
H42 C57 1_555 1_555
C58 C57 1_555 1_555
H43 C58 1_555 1_555
H44 C58 1_555 1_555
C59 C58 1_555 1_555
H45 C59 1_555 1_555
H46 C59 1_555 1_555
C60 C55 1_555 1_555
H47 C60 1_555 1_555
H48 C60 1_555 1_555
C61 H49 1_555 1_555
H50 C61 1_555 1_555
C62 C61 1_555 1_555
H51 C62 1_555 1_555
H52 C62 1_555 1_555
C63 C62 1_555 1_555
H53 C63 1_555 1_555
H54 C63 1_555 1_555
C64 C63 1_555 1_555
H55 C64 1_555 1_555
H56 C64 1_555 1_555
C65 C64 1_555 1_555
H57 C65 1_555 1_555
H58 C65 1_555 1_555
C66 C61 1_555 1_555
H59 C66 1_555 1_555
H60 C66 1_555 1_555
C67 H61 1_555 1_555
H62 C67 1_555 1_555
C68 C67 1_555 1_555
H63 C68 1_555 1_555
H64 C68 1_555 1_555
C69 C68 1_555 1_555
H65 C69 1_555 1_555
H66 C69 1_555 1_555
C70 C69 1_555 1_555
H67 C70 1_555 1_555
H68 C70 1_555 1_555
C71 C70 1_555 1_555
H69 C71 1_555 1_555
H70 C71 1_555 1_555
C72 C67 1_555 1_555
H71 C72 1_555 1_555
H72 C72 1_555 1_555
C73 H73 1_555 1_555
H74 C73 1_555 1_555
C74 C73 1_555 1_555
H75 C74 1_555 1_555
H76 C74 1_555 1_555
C75 C74 1_555 1_555
H77 C75 1_555 1_555
H78 C75 1_555 1_555
C76 C75 1_555 1_555
H79 C76 1_555 1_555
H80 C76 1_555 1_555
C77 C76 1_555 1_555
H81 C77 1_555 1_555
H82 C77 1_555 1_555
C78 C73 1_555 1_555
H83 C78 1_555 1_555
H84 C78 1_555 1_555
C85 C86 1_555 1_555
C86 H97 1_555 1_555
C87 C86 1_555 1_555
H98 C87 1_555 1_555
C88 C87 1_555 1_555
H99 C88 1_555 1_555
C89 C88 1_555 1_555
H100 C89 1_555 1_555
C90 C85 1_555 1_555
H101 C90 1_555 1_555
N13 C85 1_555 1_555
O1 N13 1_555 1_555
O2 N13 1_555 1_555
N7A Zn2 1_555 1_555
N11C Zn3 1_555 1_555
Zn2A N7 1_555 1_555
Zn3C N11 1_555 1_555
C5 N1 1_555 1_555
C7 N2 1_555 1_555
C8 N3 1_555 1_555
C8 N4 1_555 1_555
C12 C13 1_555 1_555
C12 N5 1_555 1_555
C17 C18 1_555 1_555
C17 N6 1_555 1_555
C23 N7 1_555 1_555
C25 N8 1_555 1_555
C26 N9 1_555 1_555
C26 N10 1_555 1_555
C30 C31 1_555 1_555
C30 N11 1_555 1_555
C35 C36 1_555 1_555
C35 N12 1_555 1_555
N12 Zn1 1_555 1_555
C41 C42 1_555 1_555
C47 C48 1_555 1_555
C49 C54 1_555 1_555
C53 C54 1_555 1_555
C59 C60 1_555 1_555
C65 C66 1_555 1_555
C71 C72 1_555 1_555
C77 C78 1_555 1_555
C89 C90 1_555 1_555

#END
