
#######################################################################
#
#                 Cambridge Crystallographic Data Centre
#                                CCDC 
#
#######################################################################
#
# If this CIF has been generated from an entry in the Cambridge 
# Structural Database, then it will include bibliographic, chemical, 
# crystal, experimental, refinement or atomic coordinate data resulting 
# from the CCDC's data processing and validation procedures.
#
#######################################################################

data_AFENEE
_chemical_formula_moiety         '(C32 H40 Ag2 Cl2 N8 O10)n'
_symmetry_cell_setting           orthorhombic
_symmetry_space_group_name_H-M   'P n n 2'
_symmetry_Int_Tables_number      34
_space_group_name_Hall           'P 2 -2n'
loop_
_symmetry_equiv_pos_site_id
_symmetry_equiv_pos_as_xyz
1 x,y,z
2 -x,-y,z
3 1/2-x,1/2+y,1/2+z
4 1/2+x,1/2-y,1/2+z
_cell_length_a                   11.5400(5)
_cell_length_b                   11.5400(7)
_cell_length_c                   14.9430(5)
_cell_angle_alpha                90
_cell_angle_beta                 90
_cell_angle_gamma                90
_cell_volume                     1989.98
loop_
_atom_site_label
_atom_site_type_symbol
_atom_site_fract_x
_atom_site_fract_y
_atom_site_fract_z
N1 N 0.9272(5) -0.3104(6) -0.0738(5)
C1 C 0.8763(7) -0.2826(8) 0.0047(5)
H1 H 0.8653 -0.3415 0.0484
C2 C 0.8397(7) -0.1709(7) 0.0236(6)
H2 H 0.8057 -0.1542 0.0801
C3 C 0.8522(6) -0.0845(7) -0.0383(5)
C4 C 0.8982(6) -0.1139(7) -0.1219(6)
H3 H 0.9044 -0.0577 -0.1681
C5 C 0.9347(6) -0.2274(7) -0.1358(5)
H4 H 0.9667 -0.2469 -0.1924
C6 C 0.8168(6) 0.0377(7) -0.0148(5)
C7 C 0.7529(7) 0.1066(7) -0.0837(6)
H5 H 0.6736 0.1210 -0.0631
H6 H 0.7508 0.0633 -0.1401
H7 H 0.7925 0.1808 -0.0931
N2 N 0.8446(5) 0.0707(5) 0.0634(4)
C8 C 0.8126(6) 0.1856(7) 0.0967(6)
H8 H 0.7340 0.2056 0.0751
H9 H 0.8674 0.2439 0.0728
C9 C 0.8144(6) 0.1895(7) 0.1978(6)
H10 H 0.7959 0.2688 0.2187
H11 H 0.7552 0.1359 0.2221
N3 N 0.9295(5) 0.1556(5) 0.2300(4)
C10 C 0.9624(6) 0.1824(7) 0.3085(5)
C11 C 0.8941(6) 0.2481(8) 0.3768(6)
H12 H 0.8903 0.3299 0.3597
H13 H 0.9316 0.2410 0.4354
H14 H 0.8154 0.2163 0.3801
C12 C 1.0844(6) 0.1482(6) 0.3328(5)
C13 C 1.1714(6) 0.1611(7) 0.2700(6)
H15 H 1.1550 0.1962 0.2138
C14 C 1.2824(6) 0.1229(7) 0.2890(5)
H16 H 1.3410 0.1325 0.2450
N4 N 1.3104(5) 0.0727(6) 0.3672(5)
C15 C 1.2278(7) 0.0644(7) 0.4289(6)
H17 H 1.2471 0.0317 0.4853
C16 C 1.1136(7) 0.1017(7) 0.4147(6)
H18 H 1.0572 0.0949 0.4607
Ag1 Ag 1.0000 -0.0000 0.1460
Ag2 Ag 1.0000 -0.5000 -0.10400(8)
N1A N 1.0728(5) 0.3104(6) -0.0738(5)
C1A C 1.1237(7) 0.2826(8) 0.0047(5)
H1A H 1.1347 0.3415 0.0484
C2A C 1.1603(7) 0.1709(7) 0.0236(6)
H2A H 1.1943 0.1542 0.0801
C3A C 1.1478(6) 0.0845(7) -0.0383(5)
C4A C 1.1018(6) 0.1139(7) -0.1219(6)
H3A H 1.0956 0.0577 -0.1681
C5A C 1.0653(6) 0.2274(7) -0.1358(5)
H4A H 1.0333 0.2469 -0.1924
C6A C 1.1832(6) -0.0377(7) -0.0148(5)
C7A C 1.2471(7) -0.1066(7) -0.0837(6)
H5A H 1.3264 -0.1210 -0.0631
H6A H 1.2492 -0.0633 -0.1401
H7A H 1.2075 -0.1808 -0.0931
N2A N 1.1554(5) -0.0707(5) 0.0634(4)
C8A C 1.1874(6) -0.1856(7) 0.0967(6)
H8A H 1.2660 -0.2056 0.0751
H9A H 1.1326 -0.2439 0.0728
C9A C 1.1856(6) -0.1895(7) 0.1978(6)
H10A H 1.2041 -0.2688 0.2187
H11A H 1.2448 -0.1359 0.2221
N3A N 1.0705(5) -0.1556(5) 0.2300(4)
C10A C 1.0376(6) -0.1824(7) 0.3085(5)
C11A C 1.1059(6) -0.2481(8) 0.3768(6)
H12A H 1.1097 -0.3299 0.3597
H13A H 1.0684 -0.2410 0.4354
H14A H 1.1846 -0.2163 0.3801
C12A C 0.9156(6) -0.1482(6) 0.3328(5)
C13A C 0.8286(6) -0.1611(7) 0.2700(6)
H15A H 0.8450 -0.1962 0.2138
C14A C 0.7176(6) -0.1229(7) 0.2890(5)
H16A H 0.6590 -0.1325 0.2450
N4A N 0.6896(5) -0.0727(6) 0.3672(5)
C15A C 0.7722(7) -0.0644(7) 0.4289(6)
H17A H 0.7529 -0.0317 0.4853
C16A C 0.8864(7) -0.1017(7) 0.4147(6)
H18A H 0.9428 -0.0949 0.4607
Ag2B Ag 1.5000 0.0000 0.39600(8)
N1A_2 N 1.0728(5) -0.6896(6) -0.0738(5)
N4B N 1.1896(5) -0.4273(6) -0.1328(5)
N4C N 0.8104(5) -0.5727(6) -0.1328(5)
Ag2_2 Ag 1.0000 0.5000 -0.10400(8)
Ag2B_2 Ag 0.5000 0.0000 0.39600(8)
Cl1 Cl 1.0000 0.5000 0.1769(2)
O1 O 0.9131(7) 0.4504(7) 0.1197(7)
O2 O 1.0513(9) 0.4134(9) 0.2293(7)
O1A O 1.0869(7) 0.5496(7) 0.1197(7)
O2A O 0.9487(9) 0.5866(9) 0.2293(7)
Cl2 Cl 0.5000 -0.0000 0.1157(2)
O3 O 0.5488(7) 0.0870(7) 0.1737(6)
O4 O 0.5868(8) -0.0518(10) 0.0643(7)
O3A O 0.4512(7) -0.0870(7) 0.1737(6)
O4A O 0.4132(8) 0.0518(10) 0.0643(7)
O5 O -0.0087(12) 0.1636(10) 0.6293(8)
O6 O 0.1624(9) -0.0090(11) 0.6659(7)
loop_
_geom_bond_atom_site_label_1
_geom_bond_atom_site_label_2
_geom_bond_site_symmetry_1
_geom_bond_site_symmetry_2
N1 C1 1_555 1_555
C1 H1 1_555 1_555
C2 C1 1_555 1_555
H2 C2 1_555 1_555
C3 C2 1_555 1_555
C4 C3 1_555 1_555
H3 C4 1_555 1_555
C5 N1 1_555 1_555
H4 C5 1_555 1_555
C6 C3 1_555 1_555
C7 C6 1_555 1_555
H5 C7 1_555 1_555
H6 C7 1_555 1_555
H7 C7 1_555 1_555
N2 C6 1_555 1_555
C8 N2 1_555 1_555
H8 C8 1_555 1_555
H9 C8 1_555 1_555
C9 C8 1_555 1_555
H10 C9 1_555 1_555
H11 C9 1_555 1_555
N3 C9 1_555 1_555
C10 N3 1_555 1_555
C11 C10 1_555 1_555
H12 C11 1_555 1_555
H13 C11 1_555 1_555
H14 C11 1_555 1_555
C12 C10 1_555 1_555
C13 C12 1_555 1_555
H15 C13 1_555 1_555
C14 C13 1_555 1_555
H16 C14 1_555 1_555
N4 C14 1_555 1_555
C15 N4 1_555 1_555
H17 C15 1_555 1_555
C16 C12 1_555 1_555
H18 C16 1_555 1_555
Ag1 N2 1_555 1_555
Ag2 N1 1_555 1_555
Cl1 O1 1_555 1_555
O2 Cl1 1_555 1_555
Cl2 O3 1_555 1_555
O4 Cl2 1_555 1_555
O1A Cl1 1_555 1_555
O2A Cl1 1_555 1_555
O3A Cl2 1_555 1_555
O4A Cl2 1_555 1_555
N1A C1A 1_555 1_555
C1A H1A 1_555 1_555
C2A C1A 1_555 1_555
H2A C2A 1_555 1_555
C3A C2A 1_555 1_555
C4A C3A 1_555 1_555
H3A C4A 1_555 1_555
C5A N1A 1_555 1_555
H4A C5A 1_555 1_555
C6A C3A 1_555 1_555
C7A C6A 1_555 1_555
H5A C7A 1_555 1_555
H6A C7A 1_555 1_555
H7A C7A 1_555 1_555
N2A Ag1 1_555 1_555
C8A N2A 1_555 1_555
H8A C8A 1_555 1_555
H9A C8A 1_555 1_555
C9A C8A 1_555 1_555
H10A C9A 1_555 1_555
H11A C9A 1_555 1_555
N3A Ag1 1_555 1_555
C10A N3A 1_555 1_555
C11A C10A 1_555 1_555
H12A C11A 1_555 1_555
H13A C11A 1_555 1_555
H14A C11A 1_555 1_555
C12A C10A 1_555 1_555
C13A C12A 1_555 1_555
H15A C13A 1_555 1_555
C14A C13A 1_555 1_555
H16A C14A 1_555 1_555
N4A C14A 1_555 1_555
C15A N4A 1_555 1_555
H17A C15A 1_555 1_555
C16A C12A 1_555 1_555
H18A C16A 1_555 1_555
Ag2B N4 1_555 1_555
N1A_2 Ag2 1_555 1_555
N4B Ag2 1_555 1_555
N4C Ag2 1_555 1_555
Ag2_2 N1A 1_555 1_555
Ag2B_2 N4A 1_555 1_555
C4 C5 1_555 1_555
N3 Ag1 1_555 1_555
C15 C16 1_555 1_555
C4A C5A 1_555 1_555
C6A N2A 1_555 1_555
C9A N3A 1_555 1_555
C15A C16A 1_555 1_555

#END
