
#######################################################################
#
#                 Cambridge Crystallographic Data Centre
#                                CCDC 
#
#######################################################################
#
# If this CIF has been generated from an entry in the Cambridge 
# Structural Database, then it will include bibliographic, chemical, 
# crystal, experimental, refinement or atomic coordinate data resulting 
# from the CCDC's data processing and validation procedures.
#
#######################################################################

data_GOVWOF
_chemical_formula_moiety         '(C60 H44 Mn6 O38 2-)n'
_symmetry_cell_setting           trigonal
_symmetry_space_group_name_H-M   'P -3 m 1'
_symmetry_Int_Tables_number      164
_space_group_name_Hall           '-P 3 2"'
loop_
_symmetry_equiv_pos_site_id
_symmetry_equiv_pos_as_xyz
1 x,y,z
2 -y,x-y,z
3 -x+y,-x,z
4 y,x,-z
5 -x,-x+y,-z
6 x-y,-y,-z
7 -x,-y,-z
8 y,-x+y,-z
9 x-y,x,-z
10 -y,-x,z
11 x,x-y,z
12 -x+y,y,z
_cell_length_a                   28.1050(14)
_cell_length_b                   28.1050(14)
_cell_length_c                   14.5980(9)
_cell_angle_alpha                90
_cell_angle_beta                 90
_cell_angle_gamma                120
_cell_volume                     9985.99
loop_
_atom_site_label
_atom_site_type_symbol
_atom_site_fract_x
_atom_site_fract_y
_atom_site_fract_z
Mn1 Mn 0.31173(5) 0.15586(2) 1.02518(8)
Mn2 Mn 0.45173(5) 0.22586(3) 0.93261(10)
Mn3 Mn 0.42118(11) 0.21059(6) 1.18607(18)
C1 C 0.3598(3) 0.2524(3) 0.8766(4)
C2 C 0.3450(3) 0.2877(3) 0.8243(4)
C3 C 0.3810(2) 0.3207(3) 0.7570(4)
H1 H 0.4130 0.3198 0.7455
C4 C 0.3689(2) 0.3556(3) 0.7063(4)
C5 C 0.3214(2) 0.3573(2) 0.7238(4)
H2 H 0.3128 0.3801 0.6902
C6 C 0.2867(2) 0.3236(2) 0.7932(4)
C7 C 0.2978(3) 0.2908(3) 0.8413(4)
H3 H 0.2738 0.2693 0.8873
C8 C 0.2351(3) 0.3275(3) 0.8139(5)
C9 C 0.3979(2) 0.4237(2) 0.5907(4)
H4 H 0.3868 0.4439 0.6308
H5 H 0.3692 0.4041 0.5458
C10 C 0.4520(2) 0.4628(2) 0.5434(3)
C11 C 0.48931(16) 0.51069(16) 0.5871(5)
C12 C 0.47885(19) 0.52115(19) 0.6835(5)
H6 H 0.4572 0.4867 0.7158
C13 C 0.43697(19) 0.56303(19) 0.7646(7)
C14 C 0.3889(3) 0.5278(3) 0.8040(5)
H7 H 0.3646 0.4949 0.7753
C15 C 0.3764(3) 0.5413(3) 0.8885(5)
C16 C 0.41116(19) 0.58884(19) 0.9314(7)
H8 H 0.4027 0.5973 0.9885
C17 C 0.3197(3) 0.5018(4) 0.9324(8)
O1 O 0.3210(2) 0.2153(2) 0.9246(3)
O2 O 0.40615(19) 0.25889(19) 0.8705(3)
O3 O 0.20614(17) 0.29967(19) 0.8786(3)
O4 O 0.2257(2) 0.3576(3) 0.7620(4)
O5 O 0.40762(17) 0.38633(17) 0.6422(3)
O6 O 0.44945(14) 0.55055(14) 0.6776(4)
O7 O 0.2908(3) 0.4598(4) 0.8817(6)
O8 O 0.30714(19) 0.5078(2) 1.0036(3)
O9 O 0.39823(19) 0.19912(9) 1.0479(3)
O10 O 0.2243(3) 0.11215(13) 0.9917(5)
O11 O 0.5060(3) 0.25299(17) 0.8131(5)
O12 O 0.4612(6) 0.2306(3) 1.3150(10)
C1C C 0.2524(3) 0.3598(3) 0.1234(4)
C2C C 0.2877(3) 0.3450(3) 0.1757(4)
C3C C 0.3207(3) 0.3810(2) 0.2430(4)
H1C H 0.3198 0.4130 0.2545
C4C C 0.3556(3) 0.3689(2) 0.2937(4)
C5C C 0.3573(2) 0.3214(2) 0.2762(4)
H2C H 0.3801 0.3128 0.3098
C6C C 0.3236(2) 0.2867(2) 0.2068(4)
C7C C 0.2908(3) 0.2978(3) 0.1587(4)
H3C H 0.2693 0.2738 0.1127
C8C C 0.3275(3) 0.2351(3) 0.1861(5)
C9C C 0.4237(2) 0.3979(2) 0.4093(4)
H4C H 0.4439 0.3868 0.3692
H5C H 0.4041 0.3692 0.4542
C10C C 0.4628(2) 0.4520(2) 0.4566(3)
C11C C 0.51069(16) 0.48931(16) 0.4129(5)
C12C C 0.52115(19) 0.47885(19) 0.3165(5)
H6C H 0.4867 0.4572 0.2842
C13C C 0.56303(19) 0.43697(19) 0.2354(7)
C14C C 0.5278(3) 0.3889(3) 0.1960(5)
H7C H 0.4949 0.3646 0.2247
C15C C 0.5413(3) 0.3764(3) 0.1115(5)
C16C C 0.58884(19) 0.41116(19) 0.0686(7)
H8C H 0.5973 0.4027 0.0115
C17C C 0.5018(4) 0.3197(3) 0.0676(8)
O1C O 0.2153(2) 0.3210(2) 0.0754(3)
O2C O 0.25889(19) 0.40615(19) 0.1295(3)
O3C O 0.29967(19) 0.20614(17) 0.1214(3)
O4C O 0.3576(3) 0.2257(2) 0.2380(4)
O5C O 0.38633(17) 0.40762(17) 0.3578(3)
O6C O 0.55055(14) 0.44945(14) 0.3224(4)
O7C O 0.4598(4) 0.2908(3) 0.1183(6)
O8C O 0.5078(2) 0.30714(19) -0.0036(3)
C1F C 0.6402(3) 0.7476(3) 0.1234(4)
C2F C 0.6550(3) 0.7123(3) 0.1757(4)
C3F C 0.6190(2) 0.6793(3) 0.2430(4)
H1F H 0.5870 0.6802 0.2545
C4F C 0.6311(2) 0.6444(3) 0.2937(4)
C5F C 0.6786(2) 0.6427(2) 0.2762(4)
H2F H 0.6872 0.6199 0.3098
C6F C 0.7133(2) 0.6764(2) 0.2068(4)
C7F C 0.7022(3) 0.7092(3) 0.1587(4)
H3F H 0.7262 0.7307 0.1127
C8F C 0.7649(3) 0.6725(3) 0.1861(5)
C9F C 0.6021(2) 0.5763(2) 0.4093(4)
H4F H 0.6132 0.5561 0.3692
H5F H 0.6308 0.5959 0.4542
C10F C 0.5480(2) 0.5372(2) 0.4566(3)
H6F H 0.5428 0.5133 0.2842
C14F C 0.6111(3) 0.4722(3) 0.1960(5)
H7F H 0.6354 0.5051 0.2247
C15F C 0.6236(3) 0.4587(3) 0.1115(5)
C17F C 0.6803(3) 0.4982(4) 0.0676(8)
O1F O 0.6790(2) 0.7847(2) 0.0754(3)
O2F O 0.59385(19) 0.74111(19) 0.1295(3)
O3F O 0.79386(17) 0.70033(19) 0.1214(3)
O4F O 0.7743(2) 0.6424(3) 0.2380(4)
O5F O 0.59238(17) 0.61367(17) 0.3578(3)
O7F O 0.7092(3) 0.5402(4) 0.1183(6)
O8F O 0.69286(19) 0.4922(2) -0.0036(3)
C1I C 0.7476(3) 0.6402(3) 0.8766(4)
C2I C 0.7123(3) 0.6550(3) 0.8243(4)
C3I C 0.6793(3) 0.6190(2) 0.7570(4)
H1I H 0.6802 0.5870 0.7455
C4I C 0.6444(3) 0.6311(2) 0.7063(4)
C5I C 0.6427(2) 0.6786(2) 0.7238(4)
H2I H 0.6199 0.6872 0.6902
C6I C 0.6764(2) 0.7133(2) 0.7932(4)
C7I C 0.7092(3) 0.7022(3) 0.8413(4)
H3I H 0.7307 0.7262 0.8873
C8I C 0.6725(3) 0.7649(3) 0.8139(5)
C9I C 0.5763(2) 0.6021(2) 0.5907(4)
H4I H 0.5561 0.6132 0.6308
H5I H 0.5959 0.6308 0.5458
C10I C 0.5372(2) 0.5480(2) 0.5434(3)
H6I H 0.5133 0.5428 0.7158
C14I C 0.4722(3) 0.6111(3) 0.8040(5)
H7I H 0.5051 0.6354 0.7753
C15I C 0.4587(3) 0.6236(3) 0.8885(5)
C17I C 0.4982(4) 0.6803(3) 0.9324(8)
O1I O 0.7847(2) 0.6790(2) 0.9246(3)
O2I O 0.74111(19) 0.59385(19) 0.8705(3)
O3I O 0.70033(19) 0.79386(17) 0.8786(3)
O4I O 0.6424(3) 0.7743(2) 0.7620(4)
O5I O 0.61367(17) 0.59238(17) 0.6422(3)
O7I O 0.5402(4) 0.7092(3) 0.8817(6)
O8I O 0.4922(2) 0.69286(19) 1.0036(3)
Mn1C Mn 0.15586(2) 0.31173(5) 0.97482(8)
Mn2C Mn 0.22586(3) 0.45173(5) 1.06739(10)
Mn3C Mn 0.21059(6) 0.42118(11) 0.81393(18)
O9C O 0.19912(9) 0.39823(19) 0.9521(3)
O10C O 0.11215(13) 0.2243(3) 1.0083(5)
O11C O 0.25299(17) 0.5060(3) 1.1869(5)
O12C O 0.2306(3) 0.4612(6) 0.6850(10)
Mn1_2 Mn 0.31173(5) 0.15586(2) 0.02518(8)
Mn1B Mn 0.84413(5) 0.68827(5) 0.02518(8)
Mn1B_2 Mn 0.84413(5) 0.68827(5) 1.02518(8)
Mn1C_2 Mn 0.15586(2) 0.31173(5) -0.02518(8)
Mn1D Mn 0.68827(5) 0.84413(5) -0.02518(8)
Mn1D_2 Mn 0.68827(5) 0.84413(5) 0.97482(8)
Mn2_2 Mn 0.45173(5) 0.22586(3) -0.06739(10)
Mn2B Mn 0.77413(6) 0.54827(5) -0.06739(10)
Mn2B_2 Mn 0.77413(6) 0.54827(5) 0.93261(10)
Mn2C_2 Mn 0.22586(3) 0.45173(5) 0.06739(10)
Mn2D Mn 0.54827(5) 0.77413(6) 0.06739(10)
Mn2D_2 Mn 0.54827(5) 0.77413(6) 1.06739(10)
Mn3_2 Mn 0.42118(11) 0.21059(6) 0.18607(18)
Mn3B Mn 0.78941(13) 0.57882(11) 0.18607(18)
Mn3D Mn 0.57882(11) 0.78941(13) 0.81393(18)
O1C_2 O 0.2153(2) 0.3210(2) 1.0754(3)
O1H O 0.1057(3) 0.3210(2) 1.0754(3)
O1J O 0.3210(2) 0.1057(3) 0.9246(3)
O2C_2 O 0.25889(19) 0.40615(19) 1.1295(3)
O2H O 0.14726(27) 0.40615(19) 1.1295(3)
O2J O 0.40615(19) 0.14726(27) 0.8705(3)
O3C_2 O 0.29967(19) 0.20614(17) 1.1214(3)
O3G O 0.29967(19) 0.09353(25) 1.1214(3)
O3K O 0.09353(25) 0.29967(19) 0.8786(3)
O4C_2 O 0.3576(3) 0.2257(2) 1.2380(4)
O4G O 0.3576(3) 0.1319(4) 1.2380(4)
O4K O 0.1319(4) 0.3576(3) 0.7620(4)
O7C_2 O 0.4598(4) 0.2908(3) 1.1183(6)
O7G O 0.4598(4) 0.1690(5) 1.1183(6)
O7K O 0.1690(5) 0.4598(4) 0.8817(6)
O8C_2 O 0.5078(2) 0.30714(19) 0.9964(3)
O8G O 0.5078(2) 0.20066(28) 0.9964(3)
O8K O 0.20066(28) 0.5078(2) 1.0036(3)
loop_
_geom_bond_atom_site_label_1
_geom_bond_atom_site_label_2
_geom_bond_site_symmetry_1
_geom_bond_site_symmetry_2
Mn1 O1 1_555 1_555
Mn2 O2 1_555 1_555
Mn3 O9 1_555 1_555
C1 C2 1_555 1_555
C2 C3 1_555 1_555
C3 H1 1_555 1_555
C4 C3 1_555 1_555
C5 C4 1_555 1_555
H2 C5 1_555 1_555
C6 C5 1_555 1_555
C7 C2 1_555 1_555
H3 C7 1_555 1_555
C8 C6 1_555 1_555
C9 H4 1_555 1_555
H5 C9 1_555 1_555
C10 C9 1_555 1_555
C11 C10 1_555 1_555
C12 C11 1_555 1_555
H6 C12 1_555 1_555
C13 C14 1_555 1_555
C14 H7 1_555 1_555
C15 C14 1_555 1_555
C16 C15 1_555 1_555
H8 C16 1_555 1_555
C17 C15 1_555 1_555
O1 C1 1_555 1_555
O2 C1 1_555 1_555
O3 C8 1_555 1_555
O4 C8 1_555 1_555
O5 C4 1_555 1_555
O6 C12 1_555 1_555
O7 C17 1_555 1_555
O8 C17 1_555 1_555
O9 Mn1 1_555 1_555
O10 Mn1 1_555 1_555
O11 Mn2 1_555 1_555
O12 Mn3 1_555 1_555
C1C C2C 1_555 1_555
C2C C3C 1_555 1_555
C3C H1C 1_555 1_555
C4C C3C 1_555 1_555
C5C C4C 1_555 1_555
H2C C5C 1_555 1_555
C6C C5C 1_555 1_555
C7C C2C 1_555 1_555
H3C C7C 1_555 1_555
C8C C6C 1_555 1_555
C9C H4C 1_555 1_555
H5C C9C 1_555 1_555
C10C C10 1_555 1_555
C11C C10C 1_555 1_555
C12C C11C 1_555 1_555
H6C C12C 1_555 1_555
C13C C14C 1_555 1_555
C14C H7C 1_555 1_555
C15C C14C 1_555 1_555
C16C C15C 1_555 1_555
H8C C16C 1_555 1_555
C17C C15C 1_555 1_555
O1C C1C 1_555 1_555
O2C C1C 1_555 1_555
O3C C8C 1_555 1_555
O4C C8C 1_555 1_555
O5C C4C 1_555 1_555
O6C C12C 1_555 1_555
O7C C17C 1_555 1_555
O8C C17C 1_555 1_555
C1F C2F 1_555 1_555
C2F C3F 1_555 1_555
C3F H1F 1_555 1_555
C4F C3F 1_555 1_555
C5F C4F 1_555 1_555
H2F C5F 1_555 1_555
C6F C5F 1_555 1_555
C7F C2F 1_555 1_555
H3F C7F 1_555 1_555
C8F C6F 1_555 1_555
C9F H4F 1_555 1_555
H5F C9F 1_555 1_555
C10F C11C 1_555 1_555
H6F C12C 1_555 1_555
C14F C13C 1_555 1_555
H7F C14F 1_555 1_555
C15F C16C 1_555 1_555
C17F C15F 1_555 1_555
O1F C1F 1_555 1_555
O2F C1F 1_555 1_555
O3F C8F 1_555 1_555
O4F C8F 1_555 1_555
O5F C4F 1_555 1_555
O7F C17F 1_555 1_555
O8F C17F 1_555 1_555
C1I C2I 1_555 1_555
C2I C3I 1_555 1_555
C3I H1I 1_555 1_555
C4I C3I 1_555 1_555
C5I C4I 1_555 1_555
H2I C5I 1_555 1_555
C6I C5I 1_555 1_555
C7I C2I 1_555 1_555
H3I C7I 1_555 1_555
C8I C6I 1_555 1_555
C9I H4I 1_555 1_555
H5I C9I 1_555 1_555
C10I C11 1_555 1_555
H6I C12 1_555 1_555
C14I C13 1_555 1_555
H7I C14I 1_555 1_555
C15I C16 1_555 1_555
C17I C15I 1_555 1_555
O1I C1I 1_555 1_555
O2I C1I 1_555 1_555
O3I C8I 1_555 1_555
O4I C8I 1_555 1_555
O5I C4I 1_555 1_555
O7I C17I 1_555 1_555
O8I C17I 1_555 1_555
Mn1C O3 1_555 1_555
Mn2C O8 1_555 1_555
Mn3C O4 1_555 1_555
O9C Mn1C 1_555 1_555
O10C Mn1C 1_555 1_555
O11C Mn2C 1_555 1_555
O12C Mn3C 1_555 1_555
Mn1_2 O3C 1_555 1_555
Mn1B O3F 1_555 1_555
Mn1B_2 O1I 1_555 1_555
Mn1C_2 O1C 1_555 1_555
Mn1D O1F 1_555 1_555
Mn1D_2 O3I 1_555 1_555
Mn2_2 O8C 1_555 1_555
Mn2B O8F 1_555 1_555
Mn2B_2 O2I 1_555 1_555
Mn2C_2 O2C 1_555 1_555
Mn2D O2F 1_555 1_555
Mn2D_2 O8I 1_555 1_555
Mn3_2 O4C 1_555 1_555
Mn3B O4F 1_555 1_555
Mn3D O4I 1_555 1_555
O1C_2 Mn1C 1_555 1_555
O1H Mn1C 1_555 1_555
O1J Mn1 1_555 1_555
O2C_2 Mn2C 1_555 1_555
O2H Mn2C 1_555 1_555
O2J Mn2 1_555 1_555
O3C_2 Mn1 1_555 1_555
O3G Mn1 1_555 1_555
O3K Mn1C 1_555 1_555
O4C_2 Mn3 1_555 1_555
O4G Mn3 1_555 1_555
O4K Mn3C 1_555 1_555
O7C_2 Mn3 1_555 1_555
O7G Mn3 1_555 1_555
O7K Mn3C 1_555 1_555
O8C_2 Mn2 1_555 1_555
O8G Mn2 1_555 1_555
O8K Mn2C 1_555 1_555
Mn2 O9 1_555 1_555
C6 C7 1_555 1_555
C9 O5 1_555 1_555
C13 O6 1_555 1_555
O7 Mn3C 1_555 1_555
C6C C7C 1_555 1_555
C9C C10C 1_555 1_555
C9C O5C 1_555 1_555
C13C O6C 1_555 1_555
O7C Mn3_2 1_555 1_555
C6F C7F 1_555 1_555
C9F C10F 1_555 1_555
C9F O5F 1_555 1_555
C10F C10I 1_555 1_555
C14F C15F 1_555 1_555
O7F Mn3B 1_555 1_555
C6I C7I 1_555 1_555
C9I C10I 1_555 1_555
C9I O5I 1_555 1_555
C14I C15I 1_555 1_555
O7I Mn3D 1_555 1_555
Mn2C O9C 1_555 1_555
Mn3C O9C 1_555 1_555

#END
