
#######################################################################
#
#                 Cambridge Crystallographic Data Centre
#                                CCDC 
#
#######################################################################
#
# If this CIF has been generated from an entry in the Cambridge 
# Structural Database, then it will include bibliographic, chemical, 
# crystal, experimental, refinement or atomic coordinate data resulting 
# from the CCDC's data processing and validation procedures.
#
#######################################################################

data_IYUREA
_chemical_formula_moiety         '(C12 H8 Cu1 N8 Ni1 O4)n'
_symmetry_cell_setting           monoclinic
_symmetry_space_group_name_H-M   'C 2/c'
_symmetry_Int_Tables_number      15
_space_group_name_Hall           '-C 2yc'
loop_
_symmetry_equiv_pos_site_id
_symmetry_equiv_pos_as_xyz
1 x,y,z
2 -x,y,1/2-z
3 1/2+x,1/2+y,z
4 1/2-x,1/2+y,1/2-z
5 -x,-y,-z
6 x,-y,1/2+z
7 1/2-x,1/2-y,-z
8 1/2+x,1/2-y,1/2+z
_cell_length_a                   12.843(3)
_cell_length_b                   13.229(3)
_cell_length_c                   10.517(2)
_cell_angle_alpha                90
_cell_angle_beta                 104.44(3)
_cell_angle_gamma                90
_cell_volume                     1730.39
loop_
_atom_site_label
_atom_site_type_symbol
_atom_site_fract_x
_atom_site_fract_y
_atom_site_fract_z
Ni1 Ni 0.5000 0.64693(4) -0.2500
Cu1 Cu 0.5000 0.5000 0.0000
N1 N 0.3783(2) 0.7524(2) -0.2461(3)
N2 N 0.5440(2) 0.6359(2) -0.0447(3)
N3 N 0.5373(3) 0.7087(2) 0.0218(3)
C1 C 0.2279(3) 0.7906(3) -0.1582(4)
H1 H 0.1803 0.7692 -0.1100
C2 C 0.3075(3) 0.7270(3) -0.1765(4)
H2 H 0.3127 0.6630 -0.1388
C3 C 0.3652(3) 0.8432(3) -0.3032(4)
H3 H 0.4110 0.8614 -0.3554
N4 N 0.5308(4) 0.7783(3) 0.0826(4)
O1 O 0.1046(2) 0.93748(19) -0.0833(2)
C4 C 0.2189(3) 0.8862(3) -0.2118(3)
C5 C 0.1367(3) 0.9589(2) -0.1838(3)
C6 C 0.2879(3) 0.9117(3) -0.2894(4)
H4 H 0.2821 0.9740 -0.3315
O2 O 0.10885(19) 1.03100(17) -0.2611(2)
Ni1B Ni -0.0000 1.14693(4) -0.2500
Ni1B_2 Ni 1.0000 1.14693(4) -0.2500
Cu1B Cu 0.0000 1.0000 0.0000
Cu1C Cu 1.0000 1.0000 -0.5000
Cu1A Cu 0.5000 0.5000 -0.5000
N1A N 0.6217(2) 0.7524(2) -0.2539(3)
N2A N 0.4560(2) 0.6359(2) -0.4553(3)
N2D N 0.4560(2) 0.3641(2) 0.0447(3)
N3A N 0.4627(3) 0.7087(2) -0.5218(3)
C1A C 0.7721(3) 0.7906(3) -0.3418(4)
H1A H 0.8197 0.7692 -0.3900
C2A C 0.6925(3) 0.7270(3) -0.3235(4)
H2A H 0.6873 0.6630 -0.3612
C3A C 0.6348(3) 0.8432(3) -0.1968(4)
H3A H 0.5890 0.8614 -0.1446
N4A N 0.4692(4) 0.7783(3) -0.5826(4)
O1A O 0.8954(2) 0.93748(19) -0.4167(2)
O1B O 0.6046(2) 0.43748(19) -0.0833(2)
O1F O 0.3954(2) 0.56252(19) 0.0833(2)
C4A C 0.7811(3) 0.8862(3) -0.2882(3)
C5A C 0.8633(3) 0.9589(2) -0.3162(3)
C6A C 0.7121(3) 0.9117(3) -0.2106(4)
H4A H 0.7179 0.9740 -0.1685
O2A O 0.89115(19) 1.03100(17) -0.2389(2)
O2B O 0.60885(19) 0.53100(17) -0.2611(2)
O2C O 0.39115(19) 0.53100(17) -0.2389(2)
loop_
_geom_bond_atom_site_label_1
_geom_bond_atom_site_label_2
_geom_bond_site_symmetry_1
_geom_bond_site_symmetry_2
Ni1 N1 1_555 1_555
Cu1 N2 1_555 1_555
N1 C2 1_555 1_555
N2 Ni1 1_555 1_555
N3 N2 1_555 1_555
C1 H1 1_555 1_555
C2 C1 1_555 1_555
H2 C2 1_555 1_555
C3 N1 1_555 1_555
H3 C3 1_555 1_555
N4 N3 1_555 1_555
O1 C5 1_555 1_555
C4 C1 1_555 1_555
C5 C4 1_555 1_555
C6 C3 1_555 1_555
H4 C6 1_555 1_555
O2 C5 1_555 1_555
Ni1B O2 1_555 1_555
Ni1B_2 O2A 1_555 1_555
Cu1B O1 1_555 1_555
Cu1C O1A 1_555 1_555
Cu1A N2A 1_555 1_555
N1A Ni1 1_555 1_555
N2A Ni1 1_555 1_555
N2D Cu1 1_555 1_555
N3A N2A 1_555 1_555
C1A H1A 1_555 1_555
C2A N1A 1_555 1_555
H2A C2A 1_555 1_555
C3A N1A 1_555 1_555
H3A C3A 1_555 1_555
N4A N3A 1_555 1_555
O1A C5A 1_555 1_555
O1B Cu1 1_555 1_555
O1F Cu1 1_555 1_555
C4A C1A 1_555 1_555
C5A C4A 1_555 1_555
C6A C3A 1_555 1_555
H4A C6A 1_555 1_555
O2A C5A 1_555 1_555
O2B Ni1 1_555 1_555
O2C Ni1 1_555 1_555
C4 C6 1_555 1_555
C1A C2A 1_555 1_555
C4A C6A 1_555 1_555

#END
