
#######################################################################
#
#                 Cambridge Crystallographic Data Centre
#                                CCDC 
#
#######################################################################
#
# If this CIF has been generated from an entry in the Cambridge 
# Structural Database, then it will include bibliographic, chemical, 
# crystal, experimental, refinement or atomic coordinate data resulting 
# from the CCDC's data processing and validation procedures.
#
#######################################################################

data_IYURUQ
_chemical_formula_moiety         '(C12 H8 Co1 Cu1 N8 O4)n'
_symmetry_cell_setting           monoclinic
_symmetry_space_group_name_H-M   'C 2/c'
_symmetry_Int_Tables_number      15
_space_group_name_Hall           '-C 2yc'
loop_
_symmetry_equiv_pos_site_id
_symmetry_equiv_pos_as_xyz
1 x,y,z
2 -x,y,1/2-z
3 1/2+x,1/2+y,z
4 1/2-x,1/2+y,1/2-z
5 -x,-y,-z
6 x,-y,1/2+z
7 1/2-x,1/2-y,-z
8 1/2+x,1/2-y,1/2+z
_cell_length_a                   12.890(3)
_cell_length_b                   13.350(3)
_cell_length_c                   10.496(2)
_cell_angle_alpha                90
_cell_angle_beta                 104.45(3)
_cell_angle_gamma                90
_cell_volume                     1749.03
loop_
_atom_site_label
_atom_site_type_symbol
_atom_site_fract_x
_atom_site_fract_y
_atom_site_fract_z
Co1 Co 0.5000 0.35290(4) 0.2500
O1 O 0.39534(19) 0.56217(17) 0.0829(2)
N1 N 0.4565(2) 0.36466(19) 0.0441(3)
C1 C 0.3629(2) 0.5415(2) 0.1840(3)
Cu1 Cu 0.5000 0.5000 0.0000
O2 O 0.39086(17) 0.46942(16) 0.2611(2)
N2 N 0.4626(2) 0.2920(2) -0.0228(3)
C2 C 0.2808(3) 0.6137(2) 0.2113(3)
N3 N 0.4690(4) 0.2225(3) -0.0836(4)
C3 C 0.2721(3) 0.7086(2) 0.1585(3)
H1 H 0.3197 0.7301 0.1108
N4 N 0.1224(2) 0.7458(2) 0.2463(3)
C4 C 0.1925(3) 0.7711(2) 0.1768(3)
H2 H 0.1870 0.8345 0.1389
C5 C 0.1347(3) 0.6556(3) 0.3024(4)
H3 H 0.0887 0.6371 0.3538
C6 C 0.2122(3) 0.5880(3) 0.2881(4)
H4 H 0.2181 0.5260 0.3298
Co1B Co -0.0000 0.85290(4) 0.2500
Co1B_2 Co 1.0000 -0.14710(4) 0.2500
O1B O 0.89534(19) 0.06217(17) 0.0829(2)
O1D O 0.60466(19) 0.43783(17) -0.0829(2)
N1A N 0.5435(2) 0.36466(19) 0.4559(3)
N1D N 0.5435(2) 0.63534(19) -0.0441(3)
C1B C 0.8629(2) 0.0415(2) 0.1840(3)
Cu1A Cu 0.5000 0.5000 0.5000
Cu1B Cu 1.0000 0.0000 0.0000
Cu1C Cu 1.0000 -0.0000 0.5000
O2B O 0.89086(17) -0.03058(16) 0.2611(2)
O2A O 0.60914(17) 0.46942(16) 0.2389(2)
O2E O 0.39086(17) 0.53058(16) -0.2389(2)
N2A N 0.5374(2) 0.2920(2) 0.5228(3)
C2B C 0.7808(3) 0.1137(2) 0.2113(3)
N3A N 0.5310(4) 0.2225(3) 0.5836(4)
C3B C 0.7721(3) 0.2086(2) 0.1585(3)
H1B H 0.8197 0.2301 0.1108
N4B N 0.6224(2) 0.2458(2) 0.2463(3)
N4C N 0.3776(2) 0.2458(2) 0.2537(3)
C4B C 0.6925(3) 0.2711(2) 0.1768(3)
H2B H 0.6870 0.3345 0.1389
C5B C 0.6347(3) 0.1556(3) 0.3024(4)
H3B H 0.5887 0.1371 0.3538
C6B C 0.7122(3) 0.0880(3) 0.2881(4)
H4B H 0.7181 0.0260 0.3298
loop_
_geom_bond_atom_site_label_1
_geom_bond_atom_site_label_2
_geom_bond_site_symmetry_1
_geom_bond_site_symmetry_2
Co1 N1 1_555 1_555
O1 C1 1_555 1_555
N1 Cu1 1_555 1_555
C1 O2 1_555 1_555
Cu1 O1 1_555 1_555
O2 Co1 1_555 1_555
N2 N1 1_555 1_555
C2 C1 1_555 1_555
N3 N2 1_555 1_555
C3 C2 1_555 1_555
H1 C3 1_555 1_555
N4 C4 1_555 1_555
C4 C3 1_555 1_555
H2 C4 1_555 1_555
C5 N4 1_555 1_555
H3 C5 1_555 1_555
C6 C2 1_555 1_555
H4 C6 1_555 1_555
Co1B N4 1_555 1_555
Co1B_2 O2B 1_555 1_555
O1B C1B 1_555 1_555
O1D Cu1 1_555 1_555
N1A Co1 1_555 1_555
N1D Cu1 1_555 1_555
C1B O2B 1_555 1_555
Cu1A O2 1_555 1_555
Cu1B O1B 1_555 1_555
Cu1C O2B 1_555 1_555
O2A Co1 1_555 1_555
O2E Cu1 1_555 1_555
N2A N1A 1_555 1_555
C2B C1B 1_555 1_555
N3A N2A 1_555 1_555
C3B C2B 1_555 1_555
H1B C3B 1_555 1_555
N4B Co1 1_555 1_555
N4C Co1 1_555 1_555
C4B C3B 1_555 1_555
H2B C4B 1_555 1_555
C5B N4B 1_555 1_555
H3B C5B 1_555 1_555
C6B C2B 1_555 1_555
H4B C6B 1_555 1_555
Cu1 O2A 1_555 1_555
C5 C6 1_555 1_555
N1A Cu1A 1_555 1_555
N4B C4B 1_555 1_555
C5B C6B 1_555 1_555

#END
