
#######################################################################
#
#                 Cambridge Crystallographic Data Centre
#                                CCDC 
#
#######################################################################
#
# If this CIF has been generated from an entry in the Cambridge 
# Structural Database, then it will include bibliographic, chemical, 
# crystal, experimental, refinement or atomic coordinate data resulting 
# from the CCDC's data processing and validation procedures.
#
#######################################################################

data_IYURIE
_chemical_formula_moiety         '(C12 H8 Co1 Cu1 N8 O4)n'
_symmetry_cell_setting           monoclinic
_symmetry_space_group_name_H-M   'C 2/c'
_symmetry_Int_Tables_number      15
_space_group_name_Hall           '-C 2yc'
loop_
_symmetry_equiv_pos_site_id
_symmetry_equiv_pos_as_xyz
1 x,y,z
2 -x,y,1/2-z
3 1/2+x,1/2+y,z
4 1/2-x,1/2+y,1/2-z
5 -x,-y,-z
6 x,-y,1/2+z
7 1/2-x,1/2-y,-z
8 1/2+x,1/2-y,1/2+z
_cell_length_a                   12.848(3)
_cell_length_b                   13.275(3)
_cell_length_c                   10.443(2)
_cell_angle_alpha                90
_cell_angle_beta                 104.45(3)
_cell_angle_gamma                90
_cell_volume                     1724.78
loop_
_atom_site_label
_atom_site_type_symbol
_atom_site_fract_x
_atom_site_fract_y
_atom_site_fract_z
Co1 Co 0.5000 0.35253(7) 0.2500
O1 O 0.3950(3) 0.5618(3) 0.0827(4)
N1 N 0.4565(4) 0.3641(3) 0.0453(5)
C1 C 0.3630(4) 0.5402(4) 0.1828(6)
Cu1 Cu 0.5000 0.5000 0.0000
O2 O 0.3912(3) 0.4690(3) 0.2609(4)
N2 N 0.4631(4) 0.2915(4) -0.0231(5)
C2 C 0.2803(4) 0.6128(4) 0.2120(5)
N3 N 0.4689(6) 0.2218(4) -0.0842(6)
C3 C 0.2706(5) 0.7082(4) 0.1575(6)
H1 H 0.3171 0.7294 0.1076
N4 N 0.1226(4) 0.7457(3) 0.2456(4)
C4 C 0.1929(5) 0.7707(4) 0.1773(6)
H2 H 0.1886 0.8349 0.1409
C5 C 0.1353(5) 0.6554(4) 0.3031(6)
H3 H 0.0898 0.6374 0.3560
C6 C 0.2118(5) 0.5877(4) 0.2884(6)
H4 H 0.2172 0.5252 0.3299
Co1B Co 0.0000 0.85253(7) 0.2500
Co1B_2 Co 1.0000 0.85253(7) 0.2500
O1A O 0.6050(3) 0.5618(3) 0.4173(4)
O1D O 0.6050(3) 0.4382(3) -0.0827(4)
N1A N 0.5435(4) 0.3641(3) 0.4547(5)
N1D N 0.5435(4) 0.6359(3) -0.0453(5)
C1A C 0.6370(4) 0.5402(4) 0.3172(6)
Cu1A Cu 0.5000 0.5000 0.5000
O2A O 0.6088(3) 0.4690(3) 0.2391(4)
O2E O 0.3912(3) 0.5310(3) -0.2391(4)
N2A N 0.5369(4) 0.2915(4) 0.5231(5)
C2A C 0.7197(4) 0.6128(4) 0.2880(5)
N3A N 0.5311(6) 0.2218(4) 0.5842(6)
C3A C 0.7294(5) 0.7082(4) 0.3425(6)
H1A H 0.6829 0.7294 0.3924
N4A N 0.8774(4) 0.7457(3) 0.2544(4)
N4B N 0.6226(4) 0.2457(3) 0.2456(4)
N4C N 0.3774(4) 0.2457(3) 0.2544(4)
C4A C 0.8071(5) 0.7707(4) 0.3227(6)
H2A H 0.8114 0.8349 0.3591
C5A C 0.8647(5) 0.6554(4) 0.1969(6)
H3A H 0.9102 0.6374 0.1440
C6A C 0.7882(5) 0.5877(4) 0.2116(6)
H4A H 0.7828 0.5252 0.1701
loop_
_geom_bond_atom_site_label_1
_geom_bond_atom_site_label_2
_geom_bond_site_symmetry_1
_geom_bond_site_symmetry_2
Co1 N1 1_555 1_555
O1 C1 1_555 1_555
N1 Cu1 1_555 1_555
C1 O2 1_555 1_555
Cu1 O1 1_555 1_555
O2 Co1 1_555 1_555
N2 N1 1_555 1_555
C2 C1 1_555 1_555
N3 N2 1_555 1_555
C3 C2 1_555 1_555
H1 C3 1_555 1_555
N4 C4 1_555 1_555
C4 C3 1_555 1_555
H2 C4 1_555 1_555
C5 N4 1_555 1_555
H3 C5 1_555 1_555
C6 C2 1_555 1_555
H4 C6 1_555 1_555
Co1B N4 1_555 1_555
Co1B_2 N4A 1_555 1_555
O1A C1A 1_555 1_555
O1D Cu1 1_555 1_555
N1A Co1 1_555 1_555
N1D Cu1 1_555 1_555
C1A O2A 1_555 1_555
Cu1A O2 1_555 1_555
O2A Co1 1_555 1_555
O2E Cu1 1_555 1_555
N2A N1A 1_555 1_555
C2A C1A 1_555 1_555
N3A N2A 1_555 1_555
C3A C2A 1_555 1_555
H1A C3A 1_555 1_555
N4A C4A 1_555 1_555
N4B Co1 1_555 1_555
N4C Co1 1_555 1_555
C4A C3A 1_555 1_555
H2A C4A 1_555 1_555
C5A N4A 1_555 1_555
H3A C5A 1_555 1_555
C6A C2A 1_555 1_555
H4A C6A 1_555 1_555
Cu1 O2A 1_555 1_555
C5 C6 1_555 1_555
O1A Cu1A 1_555 1_555
N1A Cu1A 1_555 1_555
C5A C6A 1_555 1_555

#END
