
#######################################################################
#
#                 Cambridge Crystallographic Data Centre
#                                CCDC 
#
#######################################################################
#
# If this CIF has been generated from an entry in the Cambridge 
# Structural Database, then it will include bibliographic, chemical, 
# crystal, experimental, refinement or atomic coordinate data resulting 
# from the CCDC's data processing and validation procedures.
#
#######################################################################

data_IYUSAX
_chemical_formula_moiety         '(C12 H8 Co1 Cu1 N8 O4)n'
_symmetry_cell_setting           monoclinic
_symmetry_space_group_name_H-M   'C 2/c'
_symmetry_Int_Tables_number      15
_space_group_name_Hall           '-C 2yc'
loop_
_symmetry_equiv_pos_site_id
_symmetry_equiv_pos_as_xyz
1 x,y,z
2 -x,y,1/2-z
3 1/2+x,1/2+y,z
4 1/2-x,1/2+y,1/2-z
5 -x,-y,-z
6 x,-y,1/2+z
7 1/2-x,1/2-y,-z
8 1/2+x,1/2-y,1/2+z
_cell_length_a                   12.969(3)
_cell_length_b                   13.361(3)
_cell_length_c                   10.446(2)
_cell_angle_alpha                90
_cell_angle_beta                 104.39(3)
_cell_angle_gamma                90
_cell_volume                     1753.28
loop_
_atom_site_label
_atom_site_type_symbol
_atom_site_fract_x
_atom_site_fract_y
_atom_site_fract_z
O1 O 0.8917(2) 1.0306(2) 0.7616(3)
Co1 Co 1.0000 1.14796(6) 0.7500
Cu1 Cu 1.0000 1.0000 0.5000
O2 O 0.8950(3) 0.9386(2) 0.5821(3)
N1 N 0.6225(3) 0.7564(3) 0.7458(4)
N2 N 1.0429(3) 1.1359(3) 0.9570(4)
C1 C 0.7803(4) 0.8877(3) 0.7111(4)
N3 N 1.0368(3) 1.2085(3) 1.0251(4)
C2 C 0.6354(4) 0.8471(4) 0.8022(5)
H1 H 0.5893 0.8661 0.8532
C3 C 0.7128(4) 0.9135(4) 0.7889(5)
H2 H 0.7195 0.9750 0.8317
C4 C 0.8628(3) 0.9596(3) 0.6831(4)
C5 C 0.7714(4) 0.7927(3) 0.6583(5)
H3 H 0.8187 0.7709 0.6103
C6 C 0.6923(4) 0.7306(3) 0.6769(5)
H4 H 0.6870 0.6671 0.6394
N4 N 1.0305(5) 1.2772(4) 1.0871(5)
O1B O 1.3917(2) 1.5306(2) 0.7616(3)
O1A O 1.1083(2) 1.0306(2) 0.7384(3)
Co1B Co 0.5000 0.64796(6) 0.7500
Co1B_2 Co 1.5000 1.64796(6) 0.7500
Cu1A Cu 1.0000 1.0000 1.0000
Cu1B Cu 1.5000 1.5000 0.5000
O2B O 1.3950(3) 1.4386(2) 0.5821(3)
O2D O 1.1050(3) 1.0614(2) 0.4179(3)
N1B N 1.1225(3) 1.2564(3) 0.7458(4)
N1C N 0.8775(3) 1.2564(3) 0.7542(4)
N2A N 0.9571(3) 1.1359(3) 0.5430(4)
N2E N 1.0429(3) 0.8641(3) 0.4570(4)
C1B C 1.2803(4) 1.3877(3) 0.7111(4)
N3A N 0.9632(3) 1.2085(3) 0.4749(4)
C2B C 1.1354(4) 1.3471(4) 0.8022(5)
H1B H 1.0893 1.3661 0.8532
C3B C 1.2128(4) 1.4135(4) 0.7889(5)
H2B H 1.2195 1.4750 0.8317
C4B C 1.3628(3) 1.4596(3) 0.6831(4)
C5B C 1.2714(4) 1.2927(3) 0.6583(5)
H3B H 1.3187 1.2709 0.6103
C6B C 1.1923(4) 1.2306(3) 0.6769(5)
H4B H 1.1870 1.1671 0.6394
N4A N 0.9695(5) 1.2772(4) 0.4129(5)
loop_
_geom_bond_atom_site_label_1
_geom_bond_atom_site_label_2
_geom_bond_site_symmetry_1
_geom_bond_site_symmetry_2
O1 Co1 1_555 1_555
Co1 N2 1_555 1_555
Cu1 O2 1_555 1_555
O2 C4 1_555 1_555
N1 C2 1_555 1_555
N2 N3 1_555 1_555
C1 C3 1_555 1_555
N3 N4 1_555 1_555
C2 H1 1_555 1_555
C3 C2 1_555 1_555
H2 C3 1_555 1_555
C4 O1 1_555 1_555
C5 C1 1_555 1_555
H3 C5 1_555 1_555
C6 N1 1_555 1_555
H4 C6 1_555 1_555
O1B Co1B_2 1_555 1_555
O1A Co1 1_555 1_555
Co1B N1 1_555 1_555
Cu1A N2 1_555 1_555
Cu1B O2B 1_555 1_555
O2B C4B 1_555 1_555
O2D Cu1 1_555 1_555
N1B Co1 1_555 1_555
N1C Co1 1_555 1_555
N2A Co1 1_555 1_555
N2E Cu1 1_555 1_555
C1B C3B 1_555 1_555
N3A N2A 1_555 1_555
C2B N1B 1_555 1_555
H1B C2B 1_555 1_555
C3B C2B 1_555 1_555
H2B C3B 1_555 1_555
C4B O1B 1_555 1_555
C5B C1B 1_555 1_555
H3B C5B 1_555 1_555
C6B N1B 1_555 1_555
H4B C6B 1_555 1_555
N4A N3A 1_555 1_555
Cu1 N2A 1_555 1_555
C1 C4 1_555 1_555
C5 C6 1_555 1_555
C1B C4B 1_555 1_555
C5B C6B 1_555 1_555

#END
