
#######################################################################
#
#                 Cambridge Crystallographic Data Centre
#                                CCDC 
#
#######################################################################
#
# If this CIF has been generated from an entry in the Cambridge 
# Structural Database, then it will include bibliographic, chemical, 
# crystal, experimental, refinement or atomic coordinate data resulting 
# from the CCDC's data processing and validation procedures.
#
#######################################################################

data_RIYWIH
_chemical_formula_moiety         '(C48 H42 Ca4 O46 P6)n'
_symmetry_cell_setting           monoclinic
_symmetry_space_group_name_H-M   'P a'
_symmetry_Int_Tables_number      7
_space_group_name_Hall           'P -2ya'
loop_
_symmetry_equiv_pos_site_id
_symmetry_equiv_pos_as_xyz
1 x,y,z
2 1/2+x,-y,z
_cell_length_a                   23.0652(7)
_cell_length_b                   6.97311(10)
_cell_length_c                   22.4165(7)
_cell_angle_alpha                90
_cell_angle_beta                 91.540(4)
_cell_angle_gamma                90
_cell_volume                     3604.08
loop_
_atom_site_label
_atom_site_type_symbol
_atom_site_fract_x
_atom_site_fract_y
_atom_site_fract_z
_atom_site_U_iso_or_equiv
_atom_site_thermal_displace_type
O1 O 0.547(4) 0.649(9) 0.6465(30) 0.0282 Uiso
Ca1 Ca 0.5325(19) 0.9524(29) 0.0069(24) 0.0147 Uiso
P1 P 0.4086(20) 0.9738(33) 0.0425(27) 0.0147 Uiso
O2 O 0.4418(22) 0.7868(33) 0.0308(35) 0.0282 Uiso
O3 O 0.4459(24) 1.141(4) 0.0213(35) 0.0282 Uiso
O4 O 0.3995(26) 0.993(8) 0.1104(27) 0.0282 Uiso
C1 C 0.3390(20) 0.971(9) 0.0038(27) 0.0282 Uiso
C2 C 0.2873(20) 0.978(11) 0.0342(27) 0.0282 Uiso
C3 C 0.2351(20) 0.996(10) 0.0018(29) 0.0282 Uiso
C4 C 0.2347(21) 0.994(11) -0.0610(29) 0.0282 Uiso
C5 C 0.2842(22) 0.925(8) -0.0888(28) 0.0282 Uiso
C6 C 0.3379(20) 0.949(10) -0.0584(27) 0.0282 Uiso
C7 C 0.1779(21) 1.043(15) 0.0304(32) 0.0282 Uiso
O5 O 0.1758(27) 1.070(11) 0.0847(32) 0.0282 Uiso
O6 O 0.1331(21) 1.038(11) -0.002(4) 0.0282 Uiso
C8 C 0.2814(25) 0.867(10) -0.1540(29) 0.0282 Uiso
O7 O 0.3285(29) 0.865(9) -0.1800(32) 0.0282 Uiso
O8 O 0.2361(28) 0.796(8) -0.1755(33) 0.0282 Uiso
P2 P 0.5815(20) 1.4478(34) -0.0132(26) 0.0147 Uiso
O9 O 0.6003(27) 1.476(8) -0.0784(26) 0.0282 Uiso
O10 O 0.5414(22) 1.2733(35) -0.0068(33) 0.0282 Uiso
O11 O 0.5494(24) 1.627(4) 0.0072(34) 0.0282 Uiso
C9 C 0.6457(21) 1.407(7) 0.0322(27) 0.0282 Uiso
C10 C 0.6969(21) 1.499(10) 0.0177(29) 0.0282 Uiso
C11 C 0.7460(20) 1.474(9) 0.0550(29) 0.0282 Uiso
C12 C 0.7369(23) 1.432(11) 0.1154(28) 0.0282 Uiso
C13 C 0.6865(23) 1.330(8) 0.1293(27) 0.0282 Uiso
C14 C 0.6377(22) 1.353(10) 0.0915(28) 0.0282 Uiso
C15 C 0.8057(22) 1.516(13) 0.0317(30) 0.0282 Uiso
O12 O 0.8116(30) 1.509(10) -0.0234(30) 0.0282 Uiso
O13 O 0.8471(23) 1.573(10) 0.0635(35) 0.0282 Uiso
C16 C 0.6760(25) 1.271(8) 0.1936(27) 0.0282 Uiso
O14 O 0.7177(28) 1.296(10) 0.2291(28) 0.0282 Uiso
O15 O 0.6241(26) 1.277(9) 0.2079(32) 0.0282 Uiso
Ca2 Ca 0.4586(22) 1.4662(29) 0.0314(25) 0.0147 Uiso
P3 P 0.5373(19) 0.5919(35) 0.3633(21) 0.0147 Uiso
O16 O 0.5701(23) 0.602(8) 0.4240(21) 0.0282 Uiso
O17 O 0.5219(31) 0.381(4) 0.3486(34) 0.0282 Uiso
O18 O 0.4828(22) 0.721(7) 0.3633(31) 0.0282 Uiso
C17 C 0.5830(21) 0.683(8) 0.3056(20) 0.0282 Uiso
C18 C 0.5579(21) 0.789(9) 0.2595(23) 0.0282 Uiso
C19 C 0.5892(22) 0.827(8) 0.2086(24) 0.0282 Uiso
C20 C 0.6502(21) 0.812(9) 0.2126(22) 0.0282 Uiso
C21 C 0.6771(20) 0.729(8) 0.2629(22) 0.0282 Uiso
C22 C 0.6421(21) 0.635(9) 0.30401 0.0282 Uiso
C23 C 0.5587(24) 0.905(13) 0.1530(28) 0.0282 Uiso
O19 O 0.5053(24) 0.921(10) 0.1561(28) 0.0282 Uiso
O20 O 0.5845(27) 0.941(9) 0.1070(22) 0.0282 Uiso
C24 C 0.7426(21) 0.718(10) 0.2688(29) 0.0282 Uiso
O21 O 0.7643(26) 0.663(9) 0.3170(30) 0.0282 Uiso
O22 O 0.7735(24) 0.794(10) 0.2308(33) 0.0282 Uiso
O23 O 0.529(4) 0.922(10) -0.1050(31) 0.0282 Uiso
Ca3 Ca 0.45707 1.0808(29) 0.5091(25) 0.0147 Uiso
P4 P 0.5823(13) 1.0793(32) 0.5543(26) 0.0147 Uiso
O24 O 0.5448(16) 1.258(4) 0.5494(31) 0.0282 Uiso
O25 O 0.5468(17) 0.913(4) 0.5276(33) 0.0282 Uiso
O26 O 0.6013(21) 1.039(7) 0.6199(27) 0.0282 Uiso
C25 C 0.6469(14) 1.106(6) 0.5110(28) 0.0282 Uiso
C26 C 0.6959(15) 1.005(9) 0.5314(28) 0.0282 Uiso
C27 C 0.7443(14) 1.001(10) 0.4948(29) 0.0282 Uiso
C28 C 0.7335(20) 1.006(11) 0.4329(28) 0.0282 Uiso
C29 C 0.6819(20) 1.087(10) 0.4106(28) 0.0282 Uiso
C30 C 0.6356(16) 1.105(12) 0.4492(28) 0.0282 Uiso
C31 C 0.8033(16) 0.953(15) 0.5217(32) 0.0282 Uiso
O27 O 0.8053(24) 0.902(10) 0.5750(32) 0.0282 Uiso
O28 O 0.8480(14) 0.961(10) 0.492(4) 0.0282 Uiso
C32 C 0.6725(22) 1.151(9) 0.3464(27) 0.0282 Uiso
O29 O 0.6220(24) 1.196(9) 0.3314(33) 0.0282 Uiso
O30 O 0.7140(27) 1.202(9) 0.3164(32) 0.0282 Uiso
P5 P 0.3991(16) 0.5760(32) 0.4939(26) 0.0147 Uiso
O31 O 0.3838(24) 0.592(7) 0.4264(26) 0.0282 Uiso
O32 O 0.4343(19) 0.752(4) 0.5139(31) 0.0282 Uiso
O33 O 0.4404(18) 0.407(4) 0.5046(34) 0.0282 Uiso
C33 C 0.3339(16) 0.548(7) 0.5361(27) 0.0282 Uiso
C34 C 0.2807(17) 0.514(10) 0.5070(28) 0.0282 Uiso
C35 C 0.2311(17) 0.498(9) 0.5403(29) 0.0282 Uiso
C36 C 0.2306(18) 0.593(10) 0.5956(30) 0.0282 Uiso
C37 C 0.2822(20) 0.655(9) 0.6231(27) 0.0282 Uiso
C38 C 0.3345(18) 0.612(10) 0.5960(27) 0.0282 Uiso
C39 C 0.1707(17) 0.435(8) 0.5198(30) 0.0282 Uiso
O34 O 0.1526(25) 0.491(9) 0.4706(31) 0.0282 Uiso
O35 O 0.1374(19) 0.407(9) 0.5619(32) 0.0282 Uiso
C40 C 0.2762(24) 0.707(11) 0.6885(28) 0.0282 Uiso
O36 O 0.2270(26) 0.692(9) 0.7098(30) 0.0282 Uiso
O37 O 0.3214(27) 0.730(10) 0.7185(31) 0.0282 Uiso
Ca4 Ca 0.5351(15) 0.5912(30) 0.5282(24) 0.0147 Uiso
O38 O 0.472(4) 1.379(10) 0.1415(32) 0.0282 Uiso
P6 P 0.4789(19) 1.5462(34) -0.1500(25) 0.0147 Uiso
O39 O 0.4663(27) 1.576(7) -0.0832(25) 0.0282 Uiso
O40 O 0.4851(31) 1.738(5) -0.1834(30) 0.0282 Uiso
O41 O 0.5372(20) 1.433(6) -0.154(4) 0.0282 Uiso
C41 C 0.4244(19) 1.390(6) -0.1834(31) 0.0282 Uiso
C42 C 0.4484(21) 1.247(5) -0.2195(28) 0.0282 Uiso
C43 C 0.4199(23) 1.213(8) -0.2752(27) 0.0282 Uiso
C44 C 0.3592(22) 1.222(10) -0.2753(29) 0.0282 Uiso
C45 C 0.3289(20) 1.298(8) -0.2264(30) 0.0282 Uiso
C46 C 0.3637(19) 1.399(9) -0.1834(33) 0.0282 Uiso
C47 C 0.4587(25) 1.145(10) -0.3250(29) 0.0282 Uiso
O42 O 0.5105(25) 1.198(9) -0.318(4) 0.0282 Uiso
O43 O 0.4389(30) 1.076(10) -0.3719(27) 0.0282 Uiso
C48 C 0.2630(20) 1.294(11) -0.2284(33) 0.0282 Uiso
O44 O 0.2334(24) 1.333(10) -0.1844(35) 0.0282 Uiso
O45 O 0.2341(25) 1.234(10) -0.2728(34) 0.0282 Uiso
O46 O 0.468(4) 1.084(9) 0.3918(30) 0.0282 Uiso
Ca1_2 Ca 0.5325(19) 1.9524(29) 0.0069(24) 0.0147 Uiso
Ca1A Ca 0.0325(19) 1.0476(29) 0.0069(24) 0.0147 Uiso
O2_2 O 0.4418(22) 1.7868(33) 0.0308(35) 0.0282 Uiso
O6A O 0.6331(21) 0.962(11) -0.002(4) 0.0282 Uiso
O11_2 O 0.5494(24) 0.627(4) 0.0072(34) 0.0282 Uiso
O13A O 0.3471(23) 1.427(10) 0.0635(35) 0.0282 Uiso
Ca2_2 Ca 0.4586(22) 0.4662(29) 0.0314(25) 0.0147 Uiso
Ca2A Ca 0.9586(22) 1.5338(29) 0.0314(25) 0.0147 Uiso
Ca3_2 Ca 0.45707 0.0808(29) 0.5091(25) 0.0147 Uiso
Ca3_3 Ca 0.45707 1.0808(29) -0.4909(25) 0.0147 Uiso
Ca3A Ca 0.95707 0.9192(29) 0.5091(25) 0.0147 Uiso
O24_2 O 0.5448(16) 0.258(4) 0.5494(31) 0.0282 Uiso
O28A O 0.3480(14) 1.039(10) 0.492(4) 0.0282 Uiso
O33_2 O 0.4404(18) 1.407(4) 0.5046(34) 0.0282 Uiso
O35A O 0.6374(19) 0.593(9) 0.5619(32) 0.0282 Uiso
Ca4_2 Ca 0.5351(15) 1.5912(30) 0.5282(24) 0.0147 Uiso
Ca4A Ca 0.0351(15) 0.4088(30) 0.5282(24) 0.0147 Uiso
O43_2 O 0.4389(30) 1.076(10) 0.6281(27) 0.0282 Uiso
loop_
_geom_bond_atom_site_label_1
_geom_bond_atom_site_label_2
_geom_bond_site_symmetry_1
_geom_bond_site_symmetry_2
O1 Ca4 1_555 1_555
Ca1 O2 1_555 1_555
P1 O2 1_555 1_555
O2 Ca2_2 1_555 1_555
O3 Ca1 1_555 1_555
O4 P1 1_555 1_555
C1 P1 1_555 1_555
C2 C1 1_555 1_555
C3 C2 1_555 1_555
C4 C3 1_555 1_555
C5 C4 1_555 1_555
C6 C1 1_555 1_555
C7 C3 1_555 1_555
O5 C7 1_555 1_555
O6 C7 1_555 1_555
C8 C5 1_555 1_555
O7 C8 1_555 1_555
O8 C8 1_555 1_555
P2 O9 1_555 1_555
O10 Ca1 1_555 1_555
O11 P2 1_555 1_555
C9 P2 1_555 1_555
C10 C9 1_555 1_555
C11 C10 1_555 1_555
C12 C11 1_555 1_555
C13 C12 1_555 1_555
C14 C9 1_555 1_555
C15 C11 1_555 1_555
O12 C15 1_555 1_555
O13 C15 1_555 1_555
C16 C13 1_555 1_555
O14 C16 1_555 1_555
O15 C16 1_555 1_555
Ca2 O3 1_555 1_555
P3 O16 1_555 1_555
O16 Ca4 1_555 1_555
O17 P3 1_555 1_555
O18 P3 1_555 1_555
C17 P3 1_555 1_555
C18 C17 1_555 1_555
C19 C18 1_555 1_555
C20 C19 1_555 1_555
C21 C20 1_555 1_555
C22 C17 1_555 1_555
C23 C19 1_555 1_555
O19 C23 1_555 1_555
O20 Ca1 1_555 1_555
C24 C21 1_555 1_555
O21 C24 1_555 1_555
O22 C24 1_555 1_555
O23 Ca1 1_555 1_555
Ca3 O24 1_555 1_555
P4 O24 1_555 1_555
O24 Ca4_2 1_555 1_555
O25 Ca3 1_555 1_555
O26 P4 1_555 1_555
C25 P4 1_555 1_555
C26 C25 1_555 1_555
C27 C26 1_555 1_555
C28 C27 1_555 1_555
C29 C28 1_555 1_555
C30 C25 1_555 1_555
C31 C27 1_555 1_555
O27 C31 1_555 1_555
O28 C31 1_555 1_555
C32 C29 1_555 1_555
O29 C32 1_555 1_555
O30 C32 1_555 1_555
P5 O31 1_555 1_555
O32 Ca3 1_555 1_555
O33 P5 1_555 1_555
C33 P5 1_555 1_555
C34 C33 1_555 1_555
C35 C34 1_555 1_555
C36 C35 1_555 1_555
C37 C36 1_555 1_555
C38 C33 1_555 1_555
C39 C35 1_555 1_555
O34 C39 1_555 1_555
O35 C39 1_555 1_555
C40 C37 1_555 1_555
O36 C40 1_555 1_555
O37 C40 1_555 1_555
Ca4 O25 1_555 1_555
O38 Ca2 1_555 1_555
P6 O39 1_555 1_555
O39 Ca2 1_555 1_555
O40 P6 1_555 1_555
O41 P6 1_555 1_555
C41 P6 1_555 1_555
C42 C41 1_555 1_555
C43 C42 1_555 1_555
C44 C43 1_555 1_555
C45 C44 1_555 1_555
C46 C41 1_555 1_555
C47 C43 1_555 1_555
O42 C47 1_555 1_555
O43 C47 1_555 1_555
C48 C45 1_555 1_555
O44 C48 1_555 1_555
O45 C48 1_555 1_555
O46 Ca3 1_555 1_555
Ca1_2 O11 1_555 1_555
Ca1A O6 1_555 1_555
O2_2 Ca2 1_555 1_555
O6A Ca1 1_555 1_555
O11_2 Ca1 1_555 1_555
O13A Ca2 1_555 1_555
Ca2_2 O11_2 1_555 1_555
Ca2A O13 1_555 1_555
Ca3_2 O33 1_555 1_555
Ca3_3 O43 1_555 1_555
Ca3A O28 1_555 1_555
O24_2 Ca4 1_555 1_555
O28A Ca3 1_555 1_555
O33_2 Ca3 1_555 1_555
O35A Ca4 1_555 1_555
Ca4_2 O33_2 1_555 1_555
Ca4A O35 1_555 1_555
O43_2 Ca3 1_555 1_555
P1 O3 1_555 1_555
C5 C6 1_555 1_555
P2 O10 1_555 1_555
O10 Ca2 1_555 1_555
O11 Ca2 1_555 1_555
C13 C14 1_555 1_555
C21 C22 1_555 1_555
C23 O20 1_555 1_555
P4 O25 1_555 1_555
C29 C30 1_555 1_555
P5 O32 1_555 1_555
O32 Ca4 1_555 1_555
O33 Ca4 1_555 1_555
C37 C38 1_555 1_555
C45 C46 1_555 1_555
Ca1_2 O2_2 1_555 1_555
Ca3_2 O24_2 1_555 1_555

#END
