
#######################################################################
#
#                 Cambridge Crystallographic Data Centre
#                                CCDC 
#
#######################################################################
#
# If this CIF has been generated from an entry in the Cambridge 
# Structural Database, then it will include bibliographic, chemical, 
# crystal, experimental, refinement or atomic coordinate data resulting 
# from the CCDC's data processing and validation procedures.
#
#######################################################################

data_RULVUP
_chemical_formula_moiety         '(C49 H42 B1 Cl2 Cu2 F4 N8 1+)n'
_symmetry_cell_setting           triclinic
_symmetry_space_group_name_H-M   'P -1'
_symmetry_Int_Tables_number      2
_space_group_name_Hall           '-P 1'
loop_
_symmetry_equiv_pos_site_id
_symmetry_equiv_pos_as_xyz
1 x,y,z
2 -x,-y,-z
_cell_length_a                   7.310(3)
_cell_length_b                   13.144(5)
_cell_length_c                   13.800(4)
_cell_angle_alpha                83.46(3)
_cell_angle_beta                 82.88(4)
_cell_angle_gamma                84.71(3)
_cell_volume                     1303.05
loop_
_atom_site_label
_atom_site_type_symbol
_atom_site_fract_x
_atom_site_fract_y
_atom_site_fract_z
N1 N -0.2036(8) 0.7881(5) 0.7896(4)
N2 N -0.4646(7) 0.8200(4) 0.6094(4)
N3 N -0.0963(7) 0.6332(4) 0.6173(4)
N4 N -0.5065(7) 0.6273(4) 0.7807(4)
C1 C -0.0740(11) 0.8520(6) 0.7577(6)
C2 C -0.0054(13) 0.9136(7) 0.8168(9)
C3 C -0.0704(15) 0.9103(8) 0.9153(10)
C4 C -0.2039(16) 0.8413(9) 0.9493(7)
C5 C -0.2669(12) 0.7837(7) 0.8849(6)
C6 C -0.5612(10) 0.7957(6) 0.5408(5)
C7 C -0.7118(10) 0.8559(6) 0.5089(5)
C8 C -0.7661(10) 0.9490(5) 0.5462(5)
C9 C -0.6575(10) 0.9784(6) 0.6127(5)
C10 C -0.5121(10) 0.9125(6) 0.6419(5)
C11 C -0.9314(10) 1.0140(6) 0.5210(6)
C12 C 0.0232(10) 0.5695(5) 0.6677(6)
C13 C 0.1918(10) 0.5308(5) 0.6261(5)
C14 C 0.2491(9) 0.5571(5) 0.5265(5)
C15 C 0.1216(10) 0.6186(5) 0.4747(5)
C16 C -0.0464(10) 0.6549(5) 0.5212(5)
C17 C 0.4284(10) 0.5231(5) 0.4785(5)
C18 C -0.4877(11) 0.5264(6) 0.8109(5)
C19 C -0.6221(11) 0.4766(6) 0.8728(6)
C20 C -0.7830(10) 0.5313(5) 0.9102(5)
C21 C -0.7996(10) 0.6359(6) 0.8796(5)
C22 C -0.6618(10) 0.6794(6) 0.8151(5)
C23 C -0.9277(10) 0.4781(6) 0.9745(6)
C24 C -0.0501(23) 0.9573(14) 1.0092(12)
H1 H -0.0262 0.8555 0.6910
H2 H 0.0860 0.9579 0.7900
H3 H -0.2507 0.8342 1.0160
H4 H -0.3591 0.7390 0.9092
H5 H -0.5251 0.7341 0.5124
H6 H -0.7775 0.8337 0.4619
H7 H -0.6831 1.0426 0.6374
H8 H -0.4417 0.9335 0.6875
H9 H -0.9402 1.0823 0.5363
H10 H -0.0111 0.5507 0.7348
H11 H 0.2690 0.4865 0.6646
H12 H 0.1499 0.6359 0.4068
H13 H -0.1289 0.6965 0.4837
H14 H 0.4454 0.5350 0.4096
H15 H -0.3785 0.4881 0.7889
H16 H -0.6050 0.4054 0.8900
H17 H -0.9045 0.6768 0.9029
H18 H -0.6784 0.7498 0.7941
H19 H -0.9161 0.4059 0.9799
Cu1 Cu -0.3115(1) 0.7077(1) 0.6909(1)
C24A C 0.0501(23) 1.0427(14) 0.9908(12)
C3A C 0.0704(15) 1.0897(8) 1.0847(10)
C2A C 0.0054(13) 1.0864(7) 1.1832(9)
C1A C 0.0740(11) 1.1480(6) 1.2423(6)
N1A N 0.2036(8) 1.2119(5) 1.2104(4)
C5A C 0.2669(12) 1.2163(7) 1.1151(6)
C4A C 0.2039(16) 1.1587(9) 1.0507(7)
H3A H 0.2507 1.1658 0.9840
H4A H 0.3591 1.2610 1.0908
H1A H 0.0262 1.1445 1.3090
H2A H -0.0860 1.0421 1.2100
C11A C -1.0686(10) 0.9860(6) 0.4790(6)
C8A C -1.2339(10) 1.0510(5) 0.4538(5)
C7A C -1.2882(10) 1.1441(6) 0.4911(5)
C6A C -1.4388(10) 1.2043(6) 0.4592(5)
N2A N -1.5354(7) 1.1800(4) 0.3906(4)
C10A C -1.4879(10) 1.0875(6) 0.3581(5)
C9A C -1.3425(10) 1.0216(6) 0.3873(5)
H7A H -1.3169 0.9574 0.3626
H8A H -1.5583 1.0665 0.3125
H5A H -1.4749 1.2659 0.4876
H6A H -1.2225 1.1663 0.5381
H9A H -1.0598 0.9177 0.4637
C17A C 0.5716(10) 0.4769(5) 0.5215(5)
C14A C 0.7509(9) 0.4429(5) 0.4735(5)
C13A C 0.8082(10) 0.4692(5) 0.3739(5)
C12A C 0.9768(10) 0.4305(5) 0.3323(6)
N3A N 1.0963(7) 0.3668(4) 0.3827(4)
C16A C 1.0464(10) 0.3451(5) 0.4788(5)
C15A C 0.8784(10) 0.3814(5) 0.5253(5)
H12A H 0.8501 0.3641 0.5932
H13A H 1.1289 0.3035 0.5163
H10A H 1.0111 0.4493 0.2652
H11A H 0.7310 0.5135 0.3354
H14A H 0.5546 0.4650 0.5904
C23A C -1.0723(10) 0.5219(6) 1.0255(6)
C20A C -1.2170(10) 0.4687(5) 1.0898(5)
C19A C -1.3779(11) 0.5234(6) 1.1272(6)
C18A C -1.5123(11) 0.4736(6) 1.1891(5)
N4A N -1.4935(7) 0.3727(4) 1.2193(4)
C22A C -1.3382(10) 0.3206(6) 1.1849(5)
C21A C -1.2004(10) 0.3641(6) 1.1204(5)
H17A H -1.0955 0.3232 1.0971
H18A H -1.3216 0.2502 1.2059
H15A H -1.6215 0.5119 1.2111
H16A H -1.3950 0.5946 1.1100
H19A H -1.0839 0.5941 1.0201
Cu1A Cu 0.3115(1) 1.2923(1) 1.3091(1)
Cu1A_2 Cu -1.6885(1) 1.2923(1) 0.3091(1)
Cu1A_3 Cu 1.3115(1) 0.2923(1) 0.3091(1)
Cu1A_4 Cu -1.6885(1) 0.2923(1) 1.3091(1)
N2A_2 N 0.4646(7) 1.1800(4) 1.3906(4)
N3A_2 N 0.0963(7) 1.3668(4) 1.3827(4)
N4A_2 N 0.5065(7) 1.3727(4) 1.2193(4)
B1 B -0.1835(14) 0.7501(8) 0.2631(7)
F1 F -0.3327(11) 0.7177(7) 0.3241(6)
F2 F -0.0448(15) 0.6684(8) 0.2574(9)
F4 F -0.0922(15) 0.8025(9) 0.3172(9)
F6 F -0.2142(23) 0.7533(14) 0.1689(9)
C26 C -0.3253(33) 0.1793(15) 0.8201(13)
Cl1 Cl -0.4373(11) 0.0643(6) 0.8501(8)
Cl2 Cl -0.3207(7) 0.2381(4) 0.9300(4)
H20 H -0.3920 0.2259 0.7734
H21 H -0.1989 0.1641 0.7895
loop_
_geom_bond_atom_site_label_1
_geom_bond_atom_site_label_2
_geom_bond_site_symmetry_1
_geom_bond_site_symmetry_2
N1 C1 1_555 1_555
N2 C6 1_555 1_555
N3 C12 1_555 1_555
N4 C18 1_555 1_555
C1 C2 1_555 1_555
C2 C3 1_555 1_555
C3 C4 1_555 1_555
C4 C5 1_555 1_555
C5 N1 1_555 1_555
C6 C7 1_555 1_555
C7 C8 1_555 1_555
C8 C9 1_555 1_555
C9 C10 1_555 1_555
C10 N2 1_555 1_555
C11 C8 1_555 1_555
C12 C13 1_555 1_555
C13 C14 1_555 1_555
C14 C15 1_555 1_555
C15 C16 1_555 1_555
C16 N3 1_555 1_555
C17 C14 1_555 1_555
C18 C19 1_555 1_555
C19 C20 1_555 1_555
C20 C21 1_555 1_555
C21 C22 1_555 1_555
C22 N4 1_555 1_555
C23 C20 1_555 1_555
B1 F1 1_555 1_555
F2 B1 1_555 1_555
F4 B1 1_555 1_555
F6 B1 1_555 1_555
C24 C3 1_555 1_555
C26 Cl1 1_555 1_555
Cl2 C26 1_555 1_555
H1 C1 1_555 1_555
H2 C2 1_555 1_555
H3 C4 1_555 1_555
H4 C5 1_555 1_555
H5 C6 1_555 1_555
H6 C7 1_555 1_555
H7 C9 1_555 1_555
H8 C10 1_555 1_555
H9 C11 1_555 1_555
H10 C12 1_555 1_555
H11 C13 1_555 1_555
H12 C15 1_555 1_555
H13 C16 1_555 1_555
H14 C17 1_555 1_555
H15 C18 1_555 1_555
H16 C19 1_555 1_555
H17 C21 1_555 1_555
H18 C22 1_555 1_555
H19 C23 1_555 1_555
H20 C26 1_555 1_555
H21 C26 1_555 1_555
Cu1 N1 1_555 1_555
C24A C24 1_555 1_555
C3A C24A 1_555 1_555
C2A C3A 1_555 1_555
C1A C2A 1_555 1_555
N1A C1A 1_555 1_555
C5A N1A 1_555 1_555
C4A C3A 1_555 1_555
H3A C4A 1_555 1_555
H4A C5A 1_555 1_555
H1A C1A 1_555 1_555
H2A C2A 1_555 1_555
C11A C11 1_555 1_555
C8A C11A 1_555 1_555
C7A C8A 1_555 1_555
C6A C7A 1_555 1_555
N2A C6A 1_555 1_555
C10A N2A 1_555 1_555
C9A C8A 1_555 1_555
H7A C9A 1_555 1_555
H8A C10A 1_555 1_555
H5A C6A 1_555 1_555
H6A C7A 1_555 1_555
H9A C11A 1_555 1_555
C17A C17 1_555 1_555
C14A C17A 1_555 1_555
C13A C14A 1_555 1_555
C12A C13A 1_555 1_555
N3A C12A 1_555 1_555
C16A N3A 1_555 1_555
C15A C14A 1_555 1_555
H12A C15A 1_555 1_555
H13A C16A 1_555 1_555
H10A C12A 1_555 1_555
H11A C13A 1_555 1_555
H14A C17A 1_555 1_555
C23A C23 1_555 1_555
C20A C23A 1_555 1_555
C19A C20A 1_555 1_555
C18A C19A 1_555 1_555
N4A C18A 1_555 1_555
C22A N4A 1_555 1_555
C21A C20A 1_555 1_555
H17A C21A 1_555 1_555
H18A C22A 1_555 1_555
H15A C18A 1_555 1_555
H16A C19A 1_555 1_555
H19A C23A 1_555 1_555
Cu1A N1A 1_555 1_555
Cu1A_2 N2A 1_555 1_555
Cu1A_3 N3A 1_555 1_555
Cu1A_4 N4A 1_555 1_555
N2A_2 Cu1A 1_555 1_555
N3A_2 Cu1A 1_555 1_555
N4A_2 Cu1A 1_555 1_555
N2 Cu1 1_555 1_555
N3 Cu1 1_555 1_555
N4 Cu1 1_555 1_555
C5A C4A 1_555 1_555
C10A C9A 1_555 1_555
C16A C15A 1_555 1_555
C22A C21A 1_555 1_555

#END
