
#######################################################################
#
#                 Cambridge Crystallographic Data Centre
#                                CCDC 
#
#######################################################################
#
# If this CIF has been generated from an entry in the Cambridge 
# Structural Database, then it will include bibliographic, chemical, 
# crystal, experimental, refinement or atomic coordinate data resulting 
# from the CCDC's data processing and validation procedures.
#
#######################################################################

data_RUHDII
_chemical_formula_moiety         '(C6 H7 Cd1 N3 O4)n'
_symmetry_cell_setting           tetragonal
_symmetry_space_group_name_H-M   'P 42/n m c'
_symmetry_Int_Tables_number      137
_space_group_name_Hall           '-P 4ac 2a'
loop_
_symmetry_equiv_pos_site_id
_symmetry_equiv_pos_as_xyz
1 x,y,z
2 1/2-x,1/2-y,z
3 1/2-y,x,1/2+z
4 y,1/2-x,1/2+z
5 -x,1/2+y,-z
6 1/2+x,-y,-z
7 1/2+y,1/2+x,1/2-z
8 -y,-x,1/2-z
9 -x,-y,-z
10 1/2+x,1/2+y,-z
11 1/2+y,-x,1/2-z
12 -y,1/2+x,1/2-z
13 x,1/2-y,z
14 1/2-x,y,z
15 1/2-y,1/2-x,1/2+z
16 y,x,1/2+z
_cell_length_a                   16.3261(19)
_cell_length_b                   16.3261(19)
_cell_length_c                   6.5495(6)
_cell_angle_alpha                90
_cell_angle_beta                 90
_cell_angle_gamma                90
_cell_volume                     1745.71
loop_
_atom_site_label
_atom_site_type_symbol
_atom_site_fract_x
_atom_site_fract_y
_atom_site_fract_z
_atom_site_U_iso_or_equiv
_atom_site_thermal_displace_type
Cd1 Cd 0.955400(17) 0.044600(17) 0.2500 0.0242 Uani
N1 N 0.9642(2) 0.1817(2) 0.2107(6) 0.0300 Uani
C1 C 0.9409(4) 0.2500 0.3087(10) 0.0303 Uani
C2 C 0.8930(5) 0.2500 0.5014(11) 0.0513 Uani
C3 C 1.0048(3) 0.2076(2) 0.0395(6) 0.0292 Uani
C4 C 1.0362(3) 0.1474(3) -0.1088(7) 0.0350 Uani
O1 O 1.01763(17) 0.07389(19) -0.0770(5) 0.0349 Uani
O2 O 1.0768(3) 0.1710(2) -0.2614(6) 0.0647 Uani
Cd1H Cd 1.044600(17) -0.044600(17) -0.2500 0.0242 Uani
Cd1K Cd 0.955400(17) 0.455400(17) 0.2500 0.0242 Uani
Cd1C Cd 1.044600(17) 0.544600(17) -0.2500 0.0242 Uani
N1L N 0.9642(2) 0.3183(2) 0.2107(6) 0.0300 Uani
N1G N 0.8183(2) 0.0358(2) 0.2893(6) 0.0300 Uani
C3L C 1.0048(3) 0.2924(2) 0.0395(6) 0.0292 Uani
C4L C 1.0362(3) 0.3526(3) -0.1088(7) 0.0350 Uani
O1L O 1.01763(17) 0.42611(19) -0.0770(5) 0.0349 Uani
O1G O 0.92611(19) -0.01763(17) 0.5770(5) 0.0349 Uani
O1H O 0.98237(17) -0.07389(19) 0.0770(5) 0.0349 Uani
O1O O 1.07389(19) 0.01763(17) 0.4230(5) 0.0349 Uani
O2L O 1.0768(3) 0.3290(2) -0.2614(6) 0.0647 Uani
N2 N 0.6841(5) 0.7500 0.3162(14) 0.0427 Uani
H4 H 0.6523 0.7055 0.2999 0.0510 Uiso
H5 H 0.7230 0.7500 0.2188 0.0510 Uiso
H6 H 0.7045 0.7500 0.4438 0.0510 Uiso
H4L H 0.6523 0.7945 0.2999 0.0510 Uiso
loop_
_atom_site_aniso_label
_atom_site_aniso_U_11
_atom_site_aniso_U_22
_atom_site_aniso_U_33
_atom_site_aniso_U_23
_atom_site_aniso_U_13
_atom_site_aniso_U_12
Cd1 0.0197 0.0197 0.0331 0.00368 0.00368 0.00033
N1 0.034 0.017 0.039 0.0033 0.0071 -0.0009
C1 0.034 0.026 0.031 0 0.008 0
C2 0.067 0.041 0.046 0 0.025 0
C3 0.035 0.0176 0.035 0.0023 0.0071 0
C4 0.044 0.021 0.04 0.0004 0.01 -0.0008
O1 0.0453 0.0165 0.0428 -0.0028 0.0059 0.0012
O2 0.095 0.035 0.064 -0.0035 0.049 -0.006
Cd1H 0.0197 0.0197 0.0331 0.00368 0.00368 0.00033
Cd1K 0.0197 0.0197 0.0331 -0.00368 0.00368 -0.00033
Cd1C 0.0197 0.0197 0.0331 -0.00368 0.00368 -0.00033
N1L 0.034 0.017 0.039 -0.0033 0.0071 0.0009
N1G 0.017 0.034 0.039 0.0071 0.0033 -0.0009
C3L 0.035 0.0176 0.035 -0.0023 0.0071 0
C4L 0.044 0.021 0.04 -0.0004 0.01 0.0008
O1L 0.0453 0.0165 0.0428 0.0028 0.0059 -0.0012
O1G 0.0165 0.0453 0.0428 0.0059 -0.0028 0.0012
O1H 0.0453 0.0165 0.0428 -0.0028 0.0059 0.0012
O1O 0.0165 0.0453 0.0428 0.0059 -0.0028 0.0012
O2L 0.095 0.035 0.064 0.0035 0.049 0.006
N2 0.035(4) 0.016(3) 0.077(5) 0.000 -0.023(4) 0.000
loop_
_geom_bond_atom_site_label_1
_geom_bond_atom_site_label_2
_geom_bond_site_symmetry_1
_geom_bond_site_symmetry_2
Cd1 N1 1_555 1_555
N1 C1 1_555 1_555
C1 C2 1_555 1_555
C3 N1 1_555 1_555
N2 H4 1_555 1_555
H5 N2 1_555 1_555
H6 N2 1_555 1_555
C4 C3 1_555 1_555
O1 Cd1 1_555 1_555
O2 C4 1_555 1_555
Cd1H O1 1_555 1_555
Cd1K N1L 1_555 1_555
Cd1C O1L 1_555 1_555
N1L C1 1_555 1_555
N1G Cd1 1_555 1_555
C3L C3 1_555 1_555
H4L N2 1_555 1_555
C4L C3L 1_555 1_555
O1L Cd1K 1_555 1_555
O1G Cd1 1_555 1_555
O1H Cd1 1_555 1_555
O1O Cd1 1_555 1_555
O2L C4L 1_555 1_555
C4 O1 1_555 1_555
Cd1H O1H 1_555 1_555
N1L C3L 1_555 1_555
C4L O1L 1_555 1_555

#END
