
#######################################################################
#
#                 Cambridge Crystallographic Data Centre
#                                CCDC 
#
#######################################################################
#
# If this CIF has been generated from an entry in the Cambridge 
# Structural Database, then it will include bibliographic, chemical, 
# crystal, experimental, refinement or atomic coordinate data resulting 
# from the CCDC's data processing and validation procedures.
#
#######################################################################

data_OPAWOT
_chemical_formula_moiety         '(C102 H64 N8 O18 Zn4)n'
_symmetry_cell_setting           tetragonal
_symmetry_space_group_name_H-M   'P 42/m n m'
_symmetry_Int_Tables_number      136
_space_group_name_Hall           '-P 4n 2n'
loop_
_symmetry_equiv_pos_site_id
_symmetry_equiv_pos_as_xyz
1 x,y,z
2 -x,-y,z
3 1/2-y,1/2+x,1/2+z
4 1/2+y,1/2-x,1/2+z
5 1/2-x,1/2+y,1/2-z
6 1/2+x,1/2-y,1/2-z
7 y,x,-z
8 -y,-x,-z
9 -x,-y,-z
10 x,y,-z
11 1/2+y,1/2-x,1/2-z
12 1/2-y,1/2+x,1/2-z
13 1/2+x,1/2-y,1/2+z
14 1/2-x,1/2+y,1/2+z
15 -y,-x,z
16 y,x,z
_cell_length_a                   36.0683(19)
_cell_length_b                   36.0683(19)
_cell_length_c                   27.0566(12)
_cell_angle_alpha                90
_cell_angle_beta                 90
_cell_angle_gamma                90
_cell_volume                     35198.5
loop_
_atom_site_label
_atom_site_type_symbol
_atom_site_fract_x
_atom_site_fract_y
_atom_site_fract_z
Zn1 Zn 0.85607(4) 0.44812(4) 0.5000
Zn2 Zn 0.78297(4) 0.41848(4) 0.5000
N1 N 0.9090(2) 0.4682(2) 0.5000
O1 O 0.77658(15) 0.45697(15) 0.55292(17)
O2 O 0.88364(15) 0.69383(17) 0.94745(17)
O3 O 0.90704(17) 0.63879(15) 0.94766(18)
O4 O 0.83249(16) 0.47989(16) 0.55201(16)
C1 C 0.8576(2) 0.6507(2) 0.8999(2)
C2 C 0.8842(3) 0.6615(3) 0.9347(3)
C3 C 0.8015(3) 0.4789(3) 0.5683(3)
C4 C 0.7896(2) 0.5044(2) 0.6069(3)
C5 C 0.7541(2) 0.5007(2) 0.6259(3)
H1 H 0.7372 0.4828 0.6135
C6 C 0.7252(3) 0.5916(2) 0.7275(3)
H2 H 0.7078 0.5837 0.7033
C7 C 0.8321(2) 0.6738(2) 0.8815(3)
H3 H 0.8339 0.6992 0.8906
C8 C 0.7440(2) 0.5263(3) 0.6667(3)
H4 H 0.7201 0.5249 0.6814
C9 C 0.6654(4) 0.6654(4) 0.7718(4)
C10 C 0.7587(3) 0.5788(3) 0.7237(3)
C11 C 0.8168(2) 0.5290(2) 0.6263(3)
H5 H 0.8417 0.5291 0.6146
N2 N 0.6759(2) 0.6315(2) 0.7617(3)
H6 H 0.6579 0.6163 0.7534
C12 C 0.8576(2) 0.6138(3) 0.8817(3)
H7 H 0.8775 0.5976 0.8897
C13 C 0.8020(2) 0.6633(2) 0.8487(3)
H8 H 0.7842 0.6812 0.8388
C14 C 0.7822(2) 0.5894(2) 0.7585(3)
H9 H 0.8064 0.5791 0.7587
C15 C 0.7728(3) 0.6149(2) 0.7943(3)
C16 C 0.7993(3) 0.6265(3) 0.8317(3)
C17 C 0.7699(3) 0.5528(3) 0.6838(3)
C18 C 0.8046(2) 0.5539(2) 0.6643(3)
H10 H 0.8215 0.5719 0.6765
C19 C 0.7376(3) 0.6297(2) 0.7963(3)
H11 H 0.7308 0.6484 0.8192
C20 C 0.7128(3) 0.6149(3) 0.7622(4)
C21 C 0.8265(3) 0.6004(3) 0.8497(4)
H12 H 0.8247 0.5749 0.8414
O5 O 0.6902(2) 0.6902(2) 0.7827(4)
C22 C 0.9791(2) 0.4939(2) 0.5000
C23 C 0.9614(3) 0.4869(4) 0.5397(3)
H13 H 0.9732 0.4920 0.5703
C24 C 0.9265(3) 0.4727(4) 0.5406(3)
H14 H 0.9153 0.4662 0.5712
N3 N 0.7320(3) 0.39718(18) 0.5000
C25 C 0.6717(3) 0.3601(4) 0.5000
C26 C 0.6826(3) 0.3723(4) 0.4582(3)
H15 H 0.6701 0.3678 0.4279
C27 C 0.7128(3) 0.3916(3) 0.4620(3)
H16 H 0.7214 0.4030 0.4324
N1A N 1.0910(2) 0.5318(2) 0.5000
C22A C 1.0209(2) 0.5061(2) 0.5000
C23A C 1.0386(3) 0.5131(4) 0.5397(3)
H13A H 1.0268 0.5080 0.5703
C24A C 1.0735(3) 0.5273(4) 0.5406(3)
H14A H 1.0847 0.5338 0.5712
C23H C 1.0386(3) 0.5131(4) 0.4603(3)
H13H H 1.0268 0.5080 0.4297
C24H C 1.0735(3) 0.5273(4) 0.4594(3)
H14H H 1.0847 0.5338 0.4288
C23I C 0.9614(3) 0.4869(4) 0.4603(3)
H13I H 0.9732 0.4920 0.4297
C24I C 0.9265(3) 0.4727(4) 0.4594(3)
H14I H 0.9153 0.4662 0.4288
O1O O 0.45697(15) 0.77658(15) 0.55292(17)
O2O O 0.69383(17) 0.88364(15) 0.94745(17)
O3O O 0.63879(15) 0.90704(17) 0.94766(18)
O4O O 0.47989(16) 0.83249(16) 0.55201(16)
C1O C 0.6507(2) 0.8576(2) 0.8999(2)
C2O C 0.6615(3) 0.8842(3) 0.9347(3)
C3O C 0.4789(3) 0.8015(3) 0.5683(3)
C4O C 0.5044(2) 0.7896(2) 0.6069(3)
C5O C 0.5007(2) 0.7541(2) 0.6259(3)
H1O H 0.4828 0.7372 0.6135
C6O C 0.5916(2) 0.7252(3) 0.7275(3)
H2O H 0.5837 0.7078 0.7033
C7O C 0.6738(2) 0.8321(2) 0.8815(3)
H3O H 0.6992 0.8339 0.8906
C8O C 0.5263(3) 0.7440(2) 0.6667(3)
H4O H 0.5249 0.7201 0.6814
C10O C 0.5788(3) 0.7587(3) 0.7237(3)
C11O C 0.5290(2) 0.8168(2) 0.6263(3)
H5O H 0.5291 0.8417 0.6146
N2O N 0.6315(2) 0.6759(2) 0.7617(3)
H6O H 0.6163 0.6579 0.7534
C12O C 0.6138(3) 0.8576(2) 0.8817(3)
H7O H 0.5976 0.8775 0.8897
C13O C 0.6633(2) 0.8020(2) 0.8487(3)
H8O H 0.6812 0.7842 0.8388
C14O C 0.5894(2) 0.7822(2) 0.7585(3)
H9O H 0.5791 0.8064 0.7587
C15O C 0.6149(2) 0.7728(3) 0.7943(3)
C16O C 0.6265(3) 0.7993(3) 0.8317(3)
C17O C 0.5528(3) 0.7699(3) 0.6838(3)
C18O C 0.5539(2) 0.8046(2) 0.6643(3)
H10O H 0.5719 0.8215 0.6765
C19O C 0.6297(2) 0.7376(3) 0.7963(3)
H11O H 0.6484 0.7308 0.8192
C20O C 0.6149(3) 0.7128(3) 0.7622(4)
C21O C 0.6004(3) 0.8265(3) 0.8497(4)
H12O H 0.5749 0.8247 0.8414
N3G N 0.60282(18) 0.2680(3) 0.5000
C25G C 0.6399(4) 0.3283(3) 0.5000
C26G C 0.6277(4) 0.3174(3) 0.5418(3)
H15G H 0.6322 0.3299 0.5721
C27G C 0.6084(3) 0.2872(3) 0.5380(3)
H16G H 0.5970 0.2786 0.5676
C26I C 0.6826(3) 0.3723(4) 0.5418(3)
H15I H 0.6701 0.3678 0.5721
C27I C 0.7128(3) 0.3916(3) 0.5380(3)
H16I H 0.7214 0.4030 0.5676
C26N C 0.6277(4) 0.3174(3) 0.4582(3)
H15N H 0.6322 0.3299 0.4279
C27N C 0.6084(3) 0.2872(3) 0.4620(3)
H16N H 0.5970 0.2786 0.4324
Zn1A Zn 1.14393(4) 0.55188(4) 0.5000
O1I O 0.77658(15) 0.45697(15) 0.44708(17)
O2I O 0.88364(15) 0.69383(17) 0.05255(17)
O3I O 0.90704(17) 0.63879(15) 0.05234(18)
O4I O 0.83249(16) 0.47989(16) 0.44799(16)
C1I C 0.8576(2) 0.6507(2) 0.1001(2)
C2I C 0.8842(3) 0.6615(3) 0.0653(3)
C3I C 0.8015(3) 0.4789(3) 0.4317(3)
C4I C 0.7896(2) 0.5044(2) 0.3931(3)
C5I C 0.7541(2) 0.5007(2) 0.3741(3)
H1I H 0.7372 0.4828 0.3865
C6I C 0.7252(3) 0.5916(2) 0.2725(3)
H2I H 0.7078 0.5837 0.2967
C7I C 0.8321(2) 0.6738(2) 0.1185(3)
H3I H 0.8339 0.6992 0.1094
C8I C 0.7440(2) 0.5263(3) 0.3333(3)
H4I H 0.7201 0.5249 0.3186
C9F C 0.6654(4) 0.6654(4) 0.2282(4)
C10I C 0.7587(3) 0.5788(3) 0.2763(3)
C11I C 0.8168(2) 0.5290(2) 0.3737(3)
H5I H 0.8417 0.5291 0.3854
N2I N 0.6759(2) 0.6315(2) 0.2383(3)
H6I H 0.6579 0.6163 0.2466
C12I C 0.8576(2) 0.6138(3) 0.1183(3)
H7I H 0.8775 0.5976 0.1103
C13I C 0.8020(2) 0.6633(2) 0.1513(3)
H8I H 0.7842 0.6812 0.1612
C14I C 0.7822(2) 0.5894(2) 0.2415(3)
H9I H 0.8064 0.5791 0.2413
C15I C 0.7728(3) 0.6149(2) 0.2057(3)
C16I C 0.7993(3) 0.6265(3) 0.1683(3)
C17I C 0.7699(3) 0.5528(3) 0.3162(3)
C18I C 0.8046(2) 0.5539(2) 0.3357(3)
H10I H 0.8215 0.5719 0.3235
C19I C 0.7376(3) 0.6297(2) 0.2037(3)
H11I H 0.7308 0.6484 0.1808
C20I C 0.7128(3) 0.6149(3) 0.2378(4)
C21I C 0.8265(3) 0.6004(3) 0.1503(4)
H12I H 0.8247 0.5749 0.1586
O5F O 0.6902(2) 0.6902(2) 0.2173(4)
O1F O 0.45697(15) 0.77658(15) 0.44708(17)
O2F O 0.69383(17) 0.88364(15) 0.05255(17)
O3F O 0.63879(15) 0.90704(17) 0.05234(18)
O4F O 0.47989(16) 0.83249(16) 0.44799(16)
C1F C 0.6507(2) 0.8576(2) 0.1001(2)
C2F C 0.6615(3) 0.8842(3) 0.0653(3)
C3F C 0.4789(3) 0.8015(3) 0.4317(3)
C4F C 0.5044(2) 0.7896(2) 0.3931(3)
C5F C 0.5007(2) 0.7541(2) 0.3741(3)
H1F H 0.4828 0.7372 0.3865
C6F C 0.5916(2) 0.7252(3) 0.2725(3)
H2F H 0.5837 0.7078 0.2967
C7F C 0.6738(2) 0.8321(2) 0.1185(3)
H3F H 0.6992 0.8339 0.1094
C8F C 0.5263(3) 0.7440(2) 0.3333(3)
H4F H 0.5249 0.7201 0.3186
C10F C 0.5788(3) 0.7587(3) 0.2763(3)
C11F C 0.5290(2) 0.8168(2) 0.3737(3)
H5F H 0.5291 0.8417 0.3854
N2F N 0.6315(2) 0.6759(2) 0.2383(3)
H6F H 0.6163 0.6579 0.2466
C12F C 0.6138(3) 0.8576(2) 0.1183(3)
H7F H 0.5976 0.8775 0.1103
C13F C 0.6633(2) 0.8020(2) 0.1513(3)
H8F H 0.6812 0.7842 0.1612
C14F C 0.5894(2) 0.7822(2) 0.2415(3)
H9F H 0.5791 0.8064 0.2413
C15F C 0.6149(2) 0.7728(3) 0.2057(3)
C16F C 0.6265(3) 0.7993(3) 0.1683(3)
C17F C 0.5528(3) 0.7699(3) 0.3162(3)
C18F C 0.5539(2) 0.8046(2) 0.3357(3)
H10F H 0.5719 0.8215 0.3235
C19F C 0.6297(2) 0.7376(3) 0.2037(3)
H11F H 0.6484 0.7308 0.1808
C20F C 0.6149(3) 0.7128(3) 0.2378(4)
C21F C 0.6004(3) 0.8265(3) 0.1503(4)
H12F H 0.5749 0.8247 0.1586
Zn2C Zn 0.91848(4) 0.71703(4) 1.0000
Zn1C Zn 0.94812(4) 0.64393(4) 0.0000
Zn1C_2 Zn 0.94812(4) 0.64393(4) 1.0000
Zn1D Zn 0.64393(4) 0.94812(4) 0.0000
Zn1D_2 Zn 0.64393(4) 0.94812(4) 1.0000
Zn1F Zn 0.44812(4) 0.85607(4) 0.5000
Zn2C_2 Zn 0.91848(4) 0.71703(4) 0.0000
Zn2D Zn 0.71703(4) 0.91848(4) 0.0000
Zn2D_2 Zn 0.71703(4) 0.91848(4) 1.0000
Zn2F Zn 0.41848(4) 0.78297(4) 0.5000
Zn2G Zn 0.58152(4) 0.21703(4) 0.5000
O1C O 0.95697(15) 0.72342(15) 1.05292(17)
O1J O 0.95697(15) 0.72342(15) 0.94708(17)
O2B O 0.80617(17) 0.38364(15) 0.44745(17)
O2I_2 O 0.88364(15) 0.69383(17) 1.05255(17)
O2K O 0.80617(17) 0.38364(15) 0.55255(17)
O3B O 0.86121(15) 0.40704(17) 0.44766(18)
O3C O 1.13879(15) 0.59296(17) 0.44766(18)
O3J O 1.13879(15) 0.59296(17) 0.55234(18)
O3K O 0.86121(15) 0.40704(17) 0.55234(18)
O4A O 1.16751(16) 0.52011(16) 0.55201(16)
O4H O 1.16751(16) 0.52011(16) 0.44799(16)
N3C N 0.89718(18) 0.7680(3) 1.0000
loop_
_geom_bond_atom_site_label_1
_geom_bond_atom_site_label_2
_geom_bond_site_symmetry_1
_geom_bond_site_symmetry_2
Zn1 N1 1_555 1_555
Zn2 O1 1_555 1_555
N1 C24 1_555 1_555
O1 C3 1_555 1_555
O2 C2 1_555 1_555
O3 C2 1_555 1_555
O4 Zn1 1_555 1_555
C1 C2 1_555 1_555
C3 O4 1_555 1_555
C4 C3 1_555 1_555
C5 C4 1_555 1_555
H1 C5 1_555 1_555
C6 H2 1_555 1_555
C7 C1 1_555 1_555
H3 C7 1_555 1_555
C8 C5 1_555 1_555
H4 C8 1_555 1_555
C9 N2 1_555 1_555
C10 C6 1_555 1_555
C11 C4 1_555 1_555
H5 C11 1_555 1_555
N2 H6 1_555 1_555
C12 C1 1_555 1_555
H7 C12 1_555 1_555
C13 C7 1_555 1_555
H8 C13 1_555 1_555
C14 C10 1_555 1_555
H9 C14 1_555 1_555
C15 C14 1_555 1_555
C16 C13 1_555 1_555
C17 C8 1_555 1_555
C18 C11 1_555 1_555
H10 C18 1_555 1_555
C19 C15 1_555 1_555
H11 C19 1_555 1_555
C20 C6 1_555 1_555
C21 C12 1_555 1_555
H12 C21 1_555 1_555
O5 C9 1_555 1_555
C22 C23 1_555 1_555
C23 H13 1_555 1_555
C24 C23 1_555 1_555
H14 C24 1_555 1_555
N3 Zn2 1_555 1_555
C25 C26 1_555 1_555
C26 H15 1_555 1_555
C27 N3 1_555 1_555
H16 C27 1_555 1_555
N1A C24A 1_555 1_555
C22A C22 1_555 1_555
C23A C22A 1_555 1_555
H13A C23A 1_555 1_555
C24A C23A 1_555 1_555
H14A C24A 1_555 1_555
C23H C22A 1_555 1_555
H13H C23H 1_555 1_555
C24H N1A 1_555 1_555
H14H C24H 1_555 1_555
C23I C22 1_555 1_555
H13I C23I 1_555 1_555
C24I N1 1_555 1_555
H14I C24I 1_555 1_555
O1O C3O 1_555 1_555
O2O C2O 1_555 1_555
O3O C2O 1_555 1_555
O4O C3O 1_555 1_555
C1O C2O 1_555 1_555
C3O C4O 1_555 1_555
C4O C5O 1_555 1_555
C5O H1O 1_555 1_555
C6O H2O 1_555 1_555
C7O C1O 1_555 1_555
H3O C7O 1_555 1_555
C8O C5O 1_555 1_555
H4O C8O 1_555 1_555
C10O C6O 1_555 1_555
C11O C4O 1_555 1_555
H5O C11O 1_555 1_555
N2O C9 1_555 1_555
H6O N2O 1_555 1_555
C12O C1O 1_555 1_555
H7O C12O 1_555 1_555
C13O C7O 1_555 1_555
H8O C13O 1_555 1_555
C14O C10O 1_555 1_555
H9O C14O 1_555 1_555
C15O C14O 1_555 1_555
C16O C13O 1_555 1_555
C17O C8O 1_555 1_555
C18O C11O 1_555 1_555
H10O C18O 1_555 1_555
C19O C15O 1_555 1_555
H11O C19O 1_555 1_555
C20O C6O 1_555 1_555
C21O C12O 1_555 1_555
H12O C21O 1_555 1_555
N3G C27G 1_555 1_555
C25G C25 1_555 1_555
C26G C25G 1_555 1_555
H15G C26G 1_555 1_555
C27G C26G 1_555 1_555
H16G C27G 1_555 1_555
C26I C25 1_555 1_555
H15I C26I 1_555 1_555
C27I N3 1_555 1_555
H16I C27I 1_555 1_555
C26N C25G 1_555 1_555
H15N C26N 1_555 1_555
C27N N3G 1_555 1_555
H16N C27N 1_555 1_555
Zn1A N1A 1_555 1_555
O1I Zn2 1_555 1_555
O2I C2I 1_555 1_555
O3I C2I 1_555 1_555
O4I Zn1 1_555 1_555
C1I C2I 1_555 1_555
C3I O1I 1_555 1_555
C4I C3I 1_555 1_555
C5I C4I 1_555 1_555
H1I C5I 1_555 1_555
C6I H2I 1_555 1_555
C7I C1I 1_555 1_555
H3I C7I 1_555 1_555
C8I C5I 1_555 1_555
H4I C8I 1_555 1_555
C9F N2I 1_555 1_555
C10I C6I 1_555 1_555
C11I C4I 1_555 1_555
H5I C11I 1_555 1_555
N2I H6I 1_555 1_555
C12I C1I 1_555 1_555
H7I C12I 1_555 1_555
C13I C7I 1_555 1_555
H8I C13I 1_555 1_555
C14I C10I 1_555 1_555
H9I C14I 1_555 1_555
C15I C14I 1_555 1_555
C16I C13I 1_555 1_555
C17I C8I 1_555 1_555
C18I C11I 1_555 1_555
H10I C18I 1_555 1_555
C19I C15I 1_555 1_555
H11I C19I 1_555 1_555
C20I C6I 1_555 1_555
C21I C12I 1_555 1_555
H12I C21I 1_555 1_555
O5F C9F 1_555 1_555
O1F C3F 1_555 1_555
O2F C2F 1_555 1_555
O3F C2F 1_555 1_555
O4F C3F 1_555 1_555
C1F C2F 1_555 1_555
C3F C4F 1_555 1_555
C4F C5F 1_555 1_555
C5F H1F 1_555 1_555
C6F H2F 1_555 1_555
C7F C1F 1_555 1_555
H3F C7F 1_555 1_555
C8F C5F 1_555 1_555
H4F C8F 1_555 1_555
C10F C6F 1_555 1_555
C11F C4F 1_555 1_555
H5F C11F 1_555 1_555
N2F C9F 1_555 1_555
H6F N2F 1_555 1_555
C12F C1F 1_555 1_555
H7F C12F 1_555 1_555
C13F C7F 1_555 1_555
H8F C13F 1_555 1_555
C14F C10F 1_555 1_555
H9F C14F 1_555 1_555
C15F C14F 1_555 1_555
C16F C13F 1_555 1_555
C17F C8F 1_555 1_555
C18F C11F 1_555 1_555
H10F C18F 1_555 1_555
C19F C15F 1_555 1_555
H11F C19F 1_555 1_555
C20F C6F 1_555 1_555
C21F C12F 1_555 1_555
H12F C21F 1_555 1_555
Zn2C O2 1_555 1_555
Zn1C O3I 1_555 1_555
Zn1C_2 O3 1_555 1_555
Zn1D O3F 1_555 1_555
Zn1D_2 O3O 1_555 1_555
Zn1F O4O 1_555 1_555
Zn2C_2 O2I 1_555 1_555
Zn2D O2F 1_555 1_555
Zn2D_2 O2O 1_555 1_555
Zn2F O1O 1_555 1_555
Zn2G N3G 1_555 1_555
O1C Zn2C 1_555 1_555
O1J Zn2C 1_555 1_555
O2B Zn2 1_555 1_555
O2I_2 Zn2C 1_555 1_555
O2K Zn2 1_555 1_555
O3B Zn1 1_555 1_555
O3C Zn1A 1_555 1_555
O3J Zn1A 1_555 1_555
O3K Zn1 1_555 1_555
O4A Zn1A 1_555 1_555
O4H Zn1A 1_555 1_555
N3C Zn2C 1_555 1_555
C10 C17 1_555 1_555
N2 C20 1_555 1_555
C15 C16 1_555 1_555
C16 C21 1_555 1_555
C17 C18 1_555 1_555
C19 C20 1_555 1_555
C26 C27 1_555 1_555
C23H C24H 1_555 1_555
C23I C24I 1_555 1_555
C10O C17O 1_555 1_555
N2O C20O 1_555 1_555
C15O C16O 1_555 1_555
C16O C21O 1_555 1_555
C17O C18O 1_555 1_555
C19O C20O 1_555 1_555
C26I C27I 1_555 1_555
C26N C27N 1_555 1_555
O4I C3I 1_555 1_555
C10I C17I 1_555 1_555
N2I C20I 1_555 1_555
C15I C16I 1_555 1_555
C16I C21I 1_555 1_555
C17I C18I 1_555 1_555
C19I C20I 1_555 1_555
O1F Zn2F 1_555 1_555
O4F Zn1F 1_555 1_555
C10F C17F 1_555 1_555
N2F C20F 1_555 1_555
C15F C16F 1_555 1_555
C16F C21F 1_555 1_555
C17F C18F 1_555 1_555
C19F C20F 1_555 1_555

#END
