
#######################################################################
#
#                 Cambridge Crystallographic Data Centre
#                                CCDC 
#
#######################################################################
#
# If this CIF has been generated from an entry in the Cambridge 
# Structural Database, then it will include bibliographic, chemical, 
# crystal, experimental, refinement or atomic coordinate data resulting 
# from the CCDC's data processing and validation procedures.
#
#######################################################################

data_RIGWIP
_chemical_formula_moiety         '(C12 H8 Eu2 N4 O11)n'
_symmetry_cell_setting           monoclinic
_symmetry_space_group_name_H-M   'P 21/c'
_symmetry_Int_Tables_number      14
_space_group_name_Hall           '-P 2ybc'
loop_
_symmetry_equiv_pos_site_id
_symmetry_equiv_pos_as_xyz
1 x,y,z
2 -x,1/2+y,1/2-z
3 -x,-y,-z
4 x,1/2-y,1/2+z
_cell_length_a                   7.5755(5)
_cell_length_b                   15.6186(12)
_cell_length_c                   16.6991(12)
_cell_angle_alpha                90
_cell_angle_beta                 94.3750(10)
_cell_angle_gamma                90
_cell_volume                     1970.06
loop_
_atom_site_label
_atom_site_type_symbol
_atom_site_fract_x
_atom_site_fract_y
_atom_site_fract_z
C1 C 0.7418(7) 0.1918(4) 0.5501(3)
C2 C 0.6004(7) 0.2346(4) 0.5948(3)
C3 C 0.6443(7) 0.2893(4) 0.6589(3)
H1 H 0.7610 0.3048 0.6732
C4 C 0.5070(7) 0.3193(4) 0.7001(3)
C5 C 0.5423(7) 0.3674(4) 0.7784(3)
C6 C 0.3093(8) 0.2543(4) 0.6118(3)
H2 H 0.1920 0.2461 0.5926
C7 C -0.2013(7) 0.0480(4) 0.6798(3)
C8 C -0.0441(7) 0.0875(4) 0.7264(3)
C9 C -0.0641(7) 0.1526(4) 0.7812(3)
H3 H -0.1753 0.1733 0.7913
C10 C 0.0887(7) 0.1855(4) 0.8203(3)
C11 C 0.0855(8) 0.2616(4) 0.8770(3)
C12 C 0.2544(8) 0.0920(4) 0.7532(4)
H4 H 0.3649 0.0697 0.7441
N1 N 0.4324(6) 0.2150(3) 0.5715(3)
N2 N 0.3367(6) 0.3037(3) 0.6764(3)
N3 N 0.1150(6) 0.0595(3) 0.7097(3)
N4 N 0.2499(7) 0.1535(3) 0.8086(3)
O1 O 0.6866(5) 0.1395(2) 0.4942(2)
O2 O 0.8975(5) 0.2071(3) 0.5714(2)
O3 O 0.6884(5) 0.4042(3) 0.7890(2)
O4 O 0.4286(6) 0.3633(3) 0.8278(3)
O5 O -0.1654(5) -0.0085(3) 0.6268(2)
O6 O -0.3508(5) 0.0712(3) 0.6941(2)
O7 O -0.0439(6) 0.3105(3) 0.8669(3)
O8 O 0.2153(5) 0.2715(3) 0.9272(2)
O9 O 0.0925(4) 0.0764(2) 0.5135(2)
O10 O 0.4195(4) 0.0094(2) 0.5736(2)
Eu1 Eu 0.37442(3) 0.102076(17) 0.459830(15)
Eu2 Eu 0.13304(3) -0.050426(17) 0.594486(15)
O1B O 0.3134(5) -0.1395(2) 0.5058(2)
O3A O 0.3116(5) -0.0958(3) 0.7110(2)
O4C O 0.4286(6) 0.1367(3) 0.3278(3)
O5B O 0.1654(5) 0.0085(3) 0.3732(2)
O7A O 0.0439(6) -0.1895(3) 0.6331(3)
O8C O 0.2153(5) 0.2285(3) 0.4272(2)
O9B O -0.0925(4) -0.0764(2) 0.4865(2)
O10B O 0.5805(4) -0.0094(2) 0.4264(2)
Eu1B Eu -0.37442(3) -0.102076(17) 0.540170(15)
Eu1B_2 Eu 0.62558(3) -0.102076(17) 0.540170(15)
Eu1C Eu 0.37442(3) 0.397924(17) 0.959830(15)
Eu2A Eu -0.13304(3) 0.449574(17) 0.905514(15)
Eu2A_2 Eu 0.86696(3) 0.449574(17) 0.905514(15)
Eu2B Eu -0.13304(3) 0.050426(17) 0.405514(15)
Eu2B_2 Eu 0.86696(3) 0.050426(17) 0.405514(15)
O11 O -0.413(4) 0.180(2) 0.9115(18)
loop_
_geom_bond_atom_site_label_1
_geom_bond_atom_site_label_2
_geom_bond_site_symmetry_1
_geom_bond_site_symmetry_2
C1 C2 1_555 1_555
C2 C3 1_555 1_555
C3 H1 1_555 1_555
C4 C3 1_555 1_555
C5 C4 1_555 1_555
C6 H2 1_555 1_555
C7 C8 1_555 1_555
C8 C9 1_555 1_555
C9 H3 1_555 1_555
C10 C9 1_555 1_555
C11 C10 1_555 1_555
C12 H4 1_555 1_555
N1 C2 1_555 1_555
N2 C4 1_555 1_555
N3 C8 1_555 1_555
N4 C10 1_555 1_555
O1 C1 1_555 1_555
O2 C1 1_555 1_555
O3 C5 1_555 1_555
O4 C5 1_555 1_555
O5 C7 1_555 1_555
O6 C7 1_555 1_555
O7 C11 1_555 1_555
O8 C11 1_555 1_555
O9 Eu1 1_555 1_555
O10 Eu1 1_555 1_555
Eu1 N1 1_555 1_555
Eu2 N3 1_555 1_555
O1B Eu2 1_555 1_555
O3A Eu2 1_555 1_555
O4C Eu1 1_555 1_555
O5B Eu1 1_555 1_555
O7A Eu2 1_555 1_555
O8C Eu1 1_555 1_555
O9B Eu2 1_555 1_555
O10B Eu1 1_555 1_555
Eu1B O5 1_555 1_555
Eu1B_2 O10 1_555 1_555
Eu1C O4 1_555 1_555
Eu2A O7 1_555 1_555
Eu2A_2 O3 1_555 1_555
Eu2B O9 1_555 1_555
Eu2B_2 O1 1_555 1_555
C6 N1 1_555 1_555
C6 N2 1_555 1_555
C12 N3 1_555 1_555
C12 N4 1_555 1_555
O1 Eu1 1_555 1_555
O5 Eu2 1_555 1_555
O8 Eu1C 1_555 1_555
O9 Eu2 1_555 1_555
O10 Eu2 1_555 1_555
O1B Eu1B_2 1_555 1_555
O5B Eu2B 1_555 1_555
O9B Eu1B 1_555 1_555
O9B Eu2B 1_555 1_555
O10B Eu1B_2 1_555 1_555
O10B Eu2B_2 1_555 1_555

#END
