
#######################################################################
#
#                 Cambridge Crystallographic Data Centre
#                                CCDC 
#
#######################################################################
#
# If this CIF has been generated from an entry in the Cambridge 
# Structural Database, then it will include bibliographic, chemical, 
# crystal, experimental, refinement or atomic coordinate data resulting 
# from the CCDC's data processing and validation procedures.
#
#######################################################################

data_PEFRID01
_chemical_formula_moiety         '(C72 H48 N12 O30 Sm4)n'
_symmetry_cell_setting           monoclinic
_symmetry_space_group_name_H-M   'P 21/c'
_symmetry_Int_Tables_number      14
_space_group_name_Hall           '-P 2ybc'
loop_
_symmetry_equiv_pos_site_id
_symmetry_equiv_pos_as_xyz
1 x,y,z
2 -x,1/2+y,1/2-z
3 -x,-y,-z
4 x,1/2-y,1/2+z
_cell_length_a                   27.0951(8)
_cell_length_b                   11.3510(8)
_cell_length_c                   17.0184(6)
_cell_angle_alpha                90
_cell_angle_beta                 98.218(3)
_cell_angle_gamma                90
_cell_volume                     5180.37
loop_
_atom_site_label
_atom_site_type_symbol
_atom_site_fract_x
_atom_site_fract_y
_atom_site_fract_z
Sm1 Sm 0.248186(18) 0.87644(7) 0.30956(3)
Sm2 Sm -0.249120(19) 0.31339(7) 0.46983(3)
O1 O 0.2970(3) 0.8996(11) 0.4318(5)
O2 O 0.1848(3) 0.7258(8) 0.2770(5)
O3 O 0.2969(3) 0.6987(8) 0.3241(4)
O4 O 0.1834(2) 0.9457(8) 0.3839(4)
O5 O -0.1950(2) 0.4387(7) 0.3016(4)
O6 O 0.6779(6) 0.4109(14) 0.2460(9)
O8 O 0.2556(4) 1.1053(11) 0.3081(6)
O9 O -0.1746(2) 0.3618(8) 0.4200(4)
O10 O 0.2034(3) 0.6706(8) 0.3989(4)
O11 O 0.1992(3) 0.8589(8) 0.5024(5)
O12 O 0.3134(3) 0.8285(10) 0.5555(5)
O13 O -0.2470(3) 0.2086(9) 0.3393(4)
O14 O 0.3110(3) 0.6230(9) 0.4465(4)
O15 O 0.6952(4) 0.4242(15) 0.3791(7)
C1 C 0.02500(17) 0.9921(7) 0.4941(4)
C3 C 0.0927(2) 1.0294(6) 0.4201(3)
H2 H 0.1057 1.0698 0.3801
C4 C 0.12156(17) 0.9458(7) 0.4653(4)
C5 C 0.1021(2) 0.8853(6) 0.5250(4)
H3 H 0.1214 0.8294 0.5552
C6 C 0.0538(2) 0.9085(6) 0.5394(3)
H4 H 0.0408 0.8681 0.5793
N1 N 0.0445(2) 1.0526(6) 0.4345(3)
C7 C 0.1723(4) 0.9169(11) 0.4483(7)
C8 C 0.4760(2) 0.9855(10) 0.5020(5)
C9 C 0.4611(2) 0.9300(9) 0.5675(4)
H5 H 0.4843 0.9136 0.6118
C10 C 0.4114(3) 0.8990(8) 0.5668(4)
H6 H 0.4014 0.8619 0.6106
C11 C 0.37660(19) 0.9236(9) 0.5005(4)
C12 C 0.3915(2) 0.9791(9) 0.4350(4)
H7 H 0.3682 0.9956 0.3907
N4 N 0.4412(3) 1.0101(9) 0.4357(4)
C14 C 0.3244(4) 0.8798(16) 0.4959(8)
C15 C 0.03632(19) 0.5011(8) 0.3288(4)
N5 N 0.0716(2) 0.4911(7) 0.3963(3)
C16 C 0.1183(2) 0.5427(7) 0.3982(3)
H9 H 0.1418 0.5360 0.4433
C17 C 0.1297(2) 0.6043(8) 0.3325(4)
C18 C 0.0944(3) 0.6143(8) 0.2650(4)
H10 H 0.1021 0.6555 0.2211
C19 C 0.0477(2) 0.5627(9) 0.2631(3)
H11 H 0.0241 0.5694 0.2179
C20 C 0.1764(4) 0.6742(13) 0.3354(7)
C21 C -0.01073(17) 0.4586(8) 0.3373(4)
C22 C -0.0473(2) 0.4768(8) 0.2724(3)
H12 H -0.0385 0.5030 0.2246
C23 C -0.0971(2) 0.4558(8) 0.2791(3)
H13 H -0.1216 0.4680 0.2357
C24 C -0.11028(17) 0.4167(7) 0.3507(4)
C25 C -0.0737(2) 0.3985(7) 0.4156(3)
H14 H -0.0825 0.3723 0.4634
N7 N -0.0239(2) 0.4195(8) 0.4089(3)
C27 C -0.1643(4) 0.4079(10) 0.3580(6)
C28 C 0.51329(18) 0.4853(8) 0.3351(4)
C29 C 0.5332(2) 0.5226(8) 0.2685(4)
H16 H 0.5133 0.5629 0.2281
C30 C 0.5829(2) 0.4997(8) 0.2621(3)
H17 H 0.5962 0.5246 0.2175
C31 C 0.61262(17) 0.4395(8) 0.3224(4)
C32 C 0.5927(2) 0.4022(8) 0.3890(4)
H18 H 0.6126 0.3619 0.4294
N9 N 0.5430(2) 0.4251(8) 0.3954(4)
C34 C 0.6656(4) 0.4197(9) 0.3115(6)
C35 C 0.4653(2) 0.5262(9) 0.3394(4)
N10 N 0.4440(2) 0.4816(8) 0.4029(4)
C36 C 0.3962(2) 0.5157(8) 0.4137(4)
H20 H 0.3819 0.4859 0.4561
C37 C 0.3696(2) 0.5944(9) 0.3611(5)
C38 C 0.3909(3) 0.6389(9) 0.2976(5)
H21 H 0.3732 0.6915 0.2624
C39 C 0.4388(3) 0.6048(10) 0.2868(4)
H22 H 0.4530 0.6346 0.2444
C40 C 0.3217(4) 0.6430(14) 0.3797(6)
O17 O -0.2366(4) 0.5517(10) 0.4889(5)
Sm1B Sm 0.751814(18) 1.12356(7) 0.69044(3)
Sm1A Sm -0.248186(18) 0.37644(7) 0.19044(3)
Sm1A_2 Sm 0.751814(18) 0.37644(7) 0.19044(3)
Sm1B_2 Sm -0.248186(18) 1.12356(7) 0.69044(3)
Sm1A_3 Sm -0.248186(18) 1.37644(7) 0.19044(3)
Sm1A_4 Sm 0.751814(18) 1.37644(7) 0.19044(3)
Sm2A Sm 0.249120(19) 0.81339(7) 0.03017(3)
Sm2B Sm 0.249120(19) 0.68661(7) 0.53017(3)
Sm2_2 Sm 0.750880(19) 0.31339(7) 0.46983(3)
Sm2_3 Sm 0.750880(19) 1.31339(7) 0.46983(3)
Sm2_4 Sm -0.249120(19) 1.31339(7) 0.46983(3)
Sm2C Sm -0.249120(19) 1.18661(7) -0.03017(3)
Sm2C_2 Sm 0.750880(19) 1.18661(7) -0.03017(3)
O1B O 0.7030(3) 1.1004(11) 0.5682(5)
O2A O -0.1848(3) 1.2258(8) 0.2230(5)
O2B O 0.8152(3) 1.2742(8) 0.7230(5)
O3A O 0.7031(3) 1.1987(8) 0.1759(4)
O3B O 0.7031(3) 1.3013(8) 0.6759(4)
O4B O -0.1834(2) 1.0543(8) 0.6161(4)
O4B_2 O 0.8166(2) 1.0543(8) 0.6161(4)
O5A O 0.1950(2) 0.9387(7) 0.1984(4)
O5C O 0.8050(2) 1.0613(7) 0.8016(4)
O6A O 0.3221(6) 0.9109(14) 0.2540(9)
O6C O 0.6779(6) 1.0891(14) 0.7460(9)
O8B O 0.7444(4) 0.8947(11) 0.6919(6)
O9A O 0.1746(2) 0.8618(8) 0.0800(4)
O10A O -0.2034(3) 1.1706(8) 0.1011(4)
O10B O -0.2034(3) 0.3294(8) 0.6011(4)
O10C O 0.2034(3) 0.8294(8) -0.1011(4)
O11B O -0.1992(3) 1.1411(8) 0.4976(5)
O11B_2 O -0.1992(3) 0.1411(8) 0.4976(5)
O11C O 0.1992(3) 0.6411(8) 0.0024(5)
O12B O 0.6866(3) 1.1715(10) 0.4445(5)
O12B_2 O -0.3134(3) 0.1715(10) 0.4445(5)
O12C O 0.3134(3) 0.6715(10) 0.0555(5)
O13A O 0.2470(3) 0.7086(9) 0.1607(4)
O14A O 0.6890(3) 1.1230(9) 0.0535(4)
O14B O -0.3110(3) 0.3770(9) 0.5535(4)
O14C O 0.3110(3) 0.8770(9) -0.0535(4)
O15A O 0.3048(4) 0.9242(15) 0.1209(7)
O15_2 O -0.3048(4) 0.4242(15) 0.3791(7)
C1B C -0.02500(17) 1.0079(7) 0.5059(4)
C3B C -0.0927(2) 0.9706(6) 0.5799(3)
H2B H -0.1057 0.9302 0.6199
C4B C -0.12156(17) 1.0542(7) 0.5347(4)
C5B C -0.1021(2) 1.1147(6) 0.4750(4)
H3B H -0.1214 1.1706 0.4448
C6B C -0.0538(2) 1.0915(6) 0.4606(3)
H4B H -0.0408 1.1319 0.4207
N1B N -0.0445(2) 0.9474(6) 0.5655(3)
C7B C -0.1723(4) 1.0831(11) 0.5517(7)
C8B C 0.5240(2) 1.0145(10) 0.4980(5)
C9B C 0.5389(2) 1.0700(9) 0.4325(4)
H5B H 0.5157 1.0864 0.3882
C10B C 0.5886(3) 1.1010(8) 0.4332(4)
H6B H 0.5986 1.1381 0.3894
C11B C 0.62340(19) 1.0764(9) 0.4995(4)
C12B C 0.6085(2) 1.0209(9) 0.5650(4)
H7B H 0.6318 1.0044 0.6093
N4B N 0.5588(3) 0.9899(9) 0.5643(4)
C14B C 0.6756(4) 1.1202(16) 0.5041(8)
C15A C -0.03632(19) 1.0011(8) 0.1712(4)
N5A N -0.0716(2) 0.9911(7) 0.1037(3)
C16A C -0.1183(2) 1.0427(7) 0.1018(3)
H9A H -0.1418 1.0360 0.0567
C17A C -0.1297(2) 1.1043(8) 0.1675(4)
C18A C -0.0944(3) 1.1143(8) 0.2350(4)
H10A H -0.1021 1.1555 0.2789
C19A C -0.0477(2) 1.0627(9) 0.2369(3)
H11A H -0.0241 1.0694 0.2821
C20A C -0.1764(4) 1.1742(13) 0.1646(7)
C21A C 0.01073(17) 0.9586(8) 0.1627(4)
C22A C 0.0473(2) 0.9768(8) 0.2276(3)
H12A H 0.0385 1.0030 0.2754
C23A C 0.0971(2) 0.9558(8) 0.2209(3)
H13A H 0.1216 0.9680 0.2643
C24A C 0.11028(17) 0.9167(7) 0.1493(4)
C25A C 0.0737(2) 0.8985(7) 0.0844(3)
H14A H 0.0825 0.8723 0.0366
N7A N 0.0239(2) 0.9195(8) 0.0911(3)
C27A C 0.1643(4) 0.9079(10) 0.1420(6)
C28A C 0.48671(18) 0.9853(8) 0.1649(4)
C29A C 0.4668(2) 1.0226(8) 0.2315(4)
H16A H 0.4867 1.0629 0.2719
C30A C 0.4171(2) 0.9997(8) 0.2379(3)
H17A H 0.4038 1.0246 0.2825
C31A C 0.38738(17) 0.9395(8) 0.1776(4)
C32A C 0.4073(2) 0.9022(8) 0.1110(4)
H18A H 0.3874 0.8619 0.0706
N9A N 0.4570(2) 0.9251(8) 0.1046(4)
C34A C 0.3344(4) 0.9197(9) 0.1885(6)
C35A C 0.5347(2) 1.0262(9) 0.1606(4)
N10A N 0.5560(2) 0.9816(8) 0.0971(4)
C36A C 0.6038(2) 1.0157(8) 0.0863(4)
H20A H 0.6181 0.9859 0.0439
C37A C 0.6304(2) 1.0944(9) 0.1389(5)
C38A C 0.6091(3) 1.1389(9) 0.2024(5)
H21A H 0.6268 1.1915 0.2376
C39A C 0.5612(3) 1.1048(10) 0.2132(4)
H22A H 0.5470 1.1346 0.2556
C40A C 0.6783(4) 1.1430(14) 0.1203(6)
O17A O 0.2366(4) 1.0517(10) 0.0111(5)
loop_
_geom_bond_atom_site_label_1
_geom_bond_atom_site_label_2
_geom_bond_site_symmetry_1
_geom_bond_site_symmetry_2
Sm1 O1 1_555 1_555
Sm2 O9 1_555 1_555
O1 C14 1_555 1_555
O2 Sm1 1_555 1_555
O3 Sm1 1_555 1_555
O4 Sm1 1_555 1_555
O5 C27 1_555 1_555
O6 C34 1_555 1_555
O8 Sm1 1_555 1_555
O9 C27 1_555 1_555
O10 C20 1_555 1_555
O11 C7 1_555 1_555
O12 C14 1_555 1_555
O13 Sm2 1_555 1_555
O14 C40 1_555 1_555
O15 C34 1_555 1_555
C1 C6 1_555 1_555
C3 H2 1_555 1_555
C4 C3 1_555 1_555
C5 C4 1_555 1_555
H3 C5 1_555 1_555
C6 C5 1_555 1_555
H4 C6 1_555 1_555
N1 C1 1_555 1_555
C7 O4 1_555 1_555
C8 C9 1_555 1_555
C9 H5 1_555 1_555
C10 C9 1_555 1_555
H6 C10 1_555 1_555
C11 C10 1_555 1_555
C12 C11 1_555 1_555
H7 C12 1_555 1_555
N4 C8 1_555 1_555
C14 C11 1_555 1_555
C15 N5 1_555 1_555
N5 C16 1_555 1_555
C16 H9 1_555 1_555
C17 C16 1_555 1_555
C18 C17 1_555 1_555
H10 C18 1_555 1_555
C19 C15 1_555 1_555
H11 C19 1_555 1_555
C20 O2 1_555 1_555
C21 C15 1_555 1_555
C22 C21 1_555 1_555
H12 C22 1_555 1_555
C23 C22 1_555 1_555
H13 C23 1_555 1_555
C24 C23 1_555 1_555
C25 C24 1_555 1_555
H14 C25 1_555 1_555
N7 C21 1_555 1_555
C27 C24 1_555 1_555
C28 C29 1_555 1_555
C29 H16 1_555 1_555
C30 C29 1_555 1_555
H17 C30 1_555 1_555
C31 C30 1_555 1_555
C32 C31 1_555 1_555
H18 C32 1_555 1_555
N9 C28 1_555 1_555
C34 C31 1_555 1_555
C35 C28 1_555 1_555
N10 C35 1_555 1_555
C36 N10 1_555 1_555
H20 C36 1_555 1_555
C37 C36 1_555 1_555
C38 C37 1_555 1_555
H21 C38 1_555 1_555
C39 C35 1_555 1_555
H22 C39 1_555 1_555
C40 O3 1_555 1_555
O17 Sm2 1_555 1_555
Sm1B O1B 1_555 1_555
Sm1A O5 1_555 1_555
Sm1A_2 O6 1_555 1_555
Sm1B_2 O4B 1_555 1_555
Sm1A_3 O2A 1_555 1_555
Sm1A_4 O3A 1_555 1_555
Sm2A O9A 1_555 1_555
Sm2B O10 1_555 1_555
Sm2_2 O15 1_555 1_555
Sm2_3 O12B 1_555 1_555
Sm2_4 O11B 1_555 1_555
Sm2C O10A 1_555 1_555
Sm2C_2 O14A 1_555 1_555
O1B C14B 1_555 1_555
O2A C20A 1_555 1_555
O2B Sm1B 1_555 1_555
O3A C40A 1_555 1_555
O3B Sm1B 1_555 1_555
O4B C7B 1_555 1_555
O4B_2 Sm1B 1_555 1_555
O5A Sm1 1_555 1_555
O5C Sm1B 1_555 1_555
O6A Sm1 1_555 1_555
O6C Sm1B 1_555 1_555
O8B Sm1B 1_555 1_555
O9A C27A 1_555 1_555
O10A C20A 1_555 1_555
O10B Sm2 1_555 1_555
O10C Sm2A 1_555 1_555
O11B C7B 1_555 1_555
O11B_2 Sm2 1_555 1_555
O11C Sm2A 1_555 1_555
O12B C14B 1_555 1_555
O12B_2 Sm2 1_555 1_555
O12C Sm2A 1_555 1_555
O13A Sm2A 1_555 1_555
O14A C40A 1_555 1_555
O14B Sm2 1_555 1_555
O14C Sm2A 1_555 1_555
O15A Sm2A 1_555 1_555
O15_2 Sm2 1_555 1_555
C1B C1 1_555 1_555
C3B H2B 1_555 1_555
C4B C3B 1_555 1_555
C5B C4B 1_555 1_555
H3B C5B 1_555 1_555
C6B C1B 1_555 1_555
H4B C6B 1_555 1_555
N1B C1B 1_555 1_555
C7B C4B 1_555 1_555
C8B C8 1_555 1_555
C9B C8B 1_555 1_555
H5B C9B 1_555 1_555
C10B C9B 1_555 1_555
H6B C10B 1_555 1_555
C11B C10B 1_555 1_555
C12B C11B 1_555 1_555
H7B C12B 1_555 1_555
N4B C8B 1_555 1_555
C14B C11B 1_555 1_555
C15A N5A 1_555 1_555
N5A C16A 1_555 1_555
C16A H9A 1_555 1_555
C17A C16A 1_555 1_555
C18A C17A 1_555 1_555
H10A C18A 1_555 1_555
C19A C15A 1_555 1_555
H11A C19A 1_555 1_555
C20A C17A 1_555 1_555
C21A C15A 1_555 1_555
C22A C21A 1_555 1_555
H12A C22A 1_555 1_555
C23A C22A 1_555 1_555
H13A C23A 1_555 1_555
C24A C23A 1_555 1_555
C25A C24A 1_555 1_555
H14A C25A 1_555 1_555
N7A C21A 1_555 1_555
C27A O5A 1_555 1_555
C28A C29A 1_555 1_555
C29A H16A 1_555 1_555
C30A C29A 1_555 1_555
H17A C30A 1_555 1_555
C31A C30A 1_555 1_555
C32A C31A 1_555 1_555
H18A C32A 1_555 1_555
N9A C28A 1_555 1_555
C34A O6A 1_555 1_555
C35A C28A 1_555 1_555
N10A C35A 1_555 1_555
C36A N10A 1_555 1_555
H20A C36A 1_555 1_555
C37A C36A 1_555 1_555
C38A C37A 1_555 1_555
H21A C38A 1_555 1_555
C39A C35A 1_555 1_555
H22A C39A 1_555 1_555
C40A C37A 1_555 1_555
O17A Sm2A 1_555 1_555
O11 Sm2B 1_555 1_555
O12 Sm2B 1_555 1_555
O14 Sm2B 1_555 1_555
C3 N1 1_555 1_555
C4 C7 1_555 1_555
C12 N4 1_555 1_555
C17 C20 1_555 1_555
C18 C19 1_555 1_555
C25 N7 1_555 1_555
C32 N9 1_555 1_555
C37 C40 1_555 1_555
C38 C39 1_555 1_555
O15A C34A 1_555 1_555
C3B N1B 1_555 1_555
C5B C6B 1_555 1_555
C12B N4B 1_555 1_555
C18A C19A 1_555 1_555
C24A C27A 1_555 1_555
C25A N7A 1_555 1_555
C31A C34A 1_555 1_555
C32A N9A 1_555 1_555
C38A C39A 1_555 1_555

#END
