
#######################################################################
#
#                 Cambridge Crystallographic Data Centre
#                                CCDC 
#
#######################################################################
#
# If this CIF has been generated from an entry in the Cambridge 
# Structural Database, then it will include bibliographic, chemical, 
# crystal, experimental, refinement or atomic coordinate data resulting 
# from the CCDC's data processing and validation procedures.
#
#######################################################################

data_PEFRID
_chemical_formula_moiety         '(C72 H48 N12 O30 Sm4)n'
_symmetry_cell_setting           monoclinic
_symmetry_space_group_name_H-M   'P 21/c'
_symmetry_Int_Tables_number      14
_space_group_name_Hall           '-P 2ybc'
loop_
_symmetry_equiv_pos_site_id
_symmetry_equiv_pos_as_xyz
1 x,y,z
2 -x,1/2+y,1/2-z
3 -x,-y,-z
4 x,1/2-y,1/2+z
_cell_length_a                   25.5273(15)
_cell_length_b                   15.5117(14)
_cell_length_c                   17.1005(13)
_cell_angle_alpha                90
_cell_angle_beta                 98.298(5)
_cell_angle_gamma                90
_cell_volume                     6700.43
loop_
_atom_site_label
_atom_site_type_symbol
_atom_site_fract_x
_atom_site_fract_y
_atom_site_fract_z
Sm1 Sm 0.25065(2) 0.17486(5) 0.31457(4)
Sm2 Sm -0.24954(2) 0.70547(5) 0.46318(4)
O1 O 0.3016(3) 0.1643(6) 0.4424(5)
O2 O 0.1782(3) 0.2753(6) 0.2803(5)
O3 O 0.2991(3) 0.3050(6) 0.3291(5)
O4 O 0.1853(3) 0.1163(5) 0.3884(6)
O5 O -0.1981(3) 0.6180(6) 0.2971(5)
O6 O 0.6679(3) 0.6481(7) 0.2385(5)
O7 O 0.2636(4) 0.0116(7) 0.3267(6)
O8 O -0.1680(3) 0.6777(6) 0.4124(5)
O9 O 0.2008(3) 0.3045(5) 0.4069(5)
O10 O 0.1996(3) 0.1655(6) 0.5131(5)
O11 O 0.3254(3) 0.1993(6) 0.5640(6)
O12 O -0.2339(3) 0.5396(6) 0.4757(5)
O13 O -0.2497(3) 0.7879(5) 0.3328(5)
O14 O 0.3105(3) 0.3553(6) 0.4542(5)
O15 O 0.6910(3) 0.6395(7) 0.3645(6)
C1 C 0.1191(3) 0.0872(6) 0.4699(6)
C2 C 0.0964(3) 0.0212(6) 0.4214(5)
H1 H 0.1136 0.0006 0.3807
N1 N 0.0482(3) -0.0140(5) 0.4337(5)
C3 C 0.0226(2) 0.0168(6) 0.4945(5)
C4 C 0.0452(3) 0.0828(6) 0.5430(5)
H2 H 0.0281 0.1034 0.5837
C5 C 0.0935(4) 0.1180(6) 0.5307(5)
H3 H 0.1086 0.1622 0.5632
C6 C 0.1726(6) 0.1281(10) 0.4579(11)
C7 C 0.3805(3) 0.1112(6) 0.5041(6)
C8 C 0.3904(3) 0.0687(7) 0.4363(5)
H4 H 0.3653 0.0693 0.3912
N2 N 0.4380(4) 0.0251(6) 0.4358(4)
C9 C 0.4756(3) 0.0242(5) 0.5031(6)
C10 C 0.4657(3) 0.0667(7) 0.5710(4)
H5 H 0.4909 0.0661 0.6161
C11 C 0.4182(4) 0.1102(6) 0.5715(4)
H6 H 0.4116 0.1387 0.6170
C12 C 0.3340(5) 0.1609(10) 0.5046(8)
C13 C 0.1241(3) 0.3700(5) 0.3412(6)
C14 C 0.1161(3) 0.4171(6) 0.4077(4)
H7 H 0.1406 0.4142 0.4534
C16 C 0.0346(3) 0.4730(6) 0.3375(6)
C17 C 0.0426(3) 0.4259(7) 0.2711(5)
H9 H 0.0180 0.4288 0.2254
C18 C 0.0873(4) 0.3744(6) 0.2729(5)
H10 H 0.0927 0.3429 0.2285
N3 N 0.0713(4) 0.4686(6) 0.4058(5)
C19 C 0.1710(5) 0.3134(10) 0.3409(9)
C20 C -0.1104(3) 0.5985(6) 0.3431(6)
C21 C -0.0693(4) 0.6101(6) 0.4050(5)
H11 H -0.0743 0.6441 0.4480
C23 C -0.0130(3) 0.5199(6) 0.3381(6)
C24 C -0.0541(4) 0.5083(6) 0.2763(5)
H13 H -0.0491 0.4743 0.2332
C25 C -0.1028(3) 0.5476(7) 0.2788(5)
H14 H -0.1303 0.5398 0.2374
N5 N -0.0206(3) 0.5708(7) 0.4025(5)
C26 C -0.1621(4) 0.6369(9) 0.3528(9)
C27 C 0.6055(3) 0.5970(7) 0.3146(6)
C28 C 0.5935(5) 0.5817(12) 0.3901(5)
H15 H 0.6182 0.5946 0.4341
N7 N 0.5446(5) 0.5472(12) 0.3999(6)
C29 C 0.5078(4) 0.5280(7) 0.3342(8)
C30 C 0.5198(4) 0.5433(12) 0.2587(6)
H16 H 0.4951 0.5304 0.2147
C31 C 0.5687(5) 0.5778(12) 0.2489(5)
H17 H 0.5767 0.5880 0.1984
C35 C 0.6583(5) 0.6303(9) 0.3047(9)
C36 C 0.3699(3) 0.4002(6) 0.3703(6)
C37 C 0.3933(3) 0.3799(6) 0.3041(5)
H21 H 0.3785 0.3376 0.2692
C38 C 0.4389(3) 0.4227(7) 0.2901(5)
H22 H 0.4545 0.4091 0.2458
C39 C 0.4610(3) 0.4859(7) 0.3423(6)
N9 N 0.4377(3) 0.5062(6) 0.4085(6)
C40 C 0.3921(4) 0.4633(7) 0.4226(5)
H23 H 0.3765 0.4769 0.4669
C41 C 0.3206(5) 0.3472(10) 0.3847(9)
Sm1B Sm 0.74935(2) -0.17486(5) 0.68543(4)
Sm1A Sm -0.25065(2) 0.67486(5) 0.18543(4)
Sm1A_2 Sm 0.74935(2) 0.67486(5) 0.18543(4)
Sm1B_2 Sm -0.25065(2) -0.17486(5) 0.68543(4)
Sm1A_3 Sm -0.25065(2) -0.32514(5) 0.18543(4)
Sm1A_4 Sm 0.74935(2) -0.32514(5) 0.18543(4)
Sm2A Sm 0.24954(2) 0.20547(5) 0.03682(4)
Sm2B Sm 0.24954(2) 0.29453(5) 0.53682(4)
Sm2_2 Sm 0.75046(2) 0.70547(5) 0.46318(4)
Sm2_3 Sm 0.75046(2) -0.29453(5) 0.46318(4)
Sm2_4 Sm -0.24954(2) -0.29453(5) 0.46318(4)
Sm2C Sm -0.24954(2) -0.20547(5) -0.03682(4)
Sm2C_2 Sm 0.75046(2) -0.20547(5) -0.03682(4)
O1B O 0.6984(3) -0.1643(6) 0.5576(5)
O2A O -0.1782(3) -0.2247(6) 0.2197(5)
O2B O 0.8218(3) -0.2753(6) 0.7197(5)
O3A O 0.7009(3) -0.1950(6) 0.1709(5)
O3B O 0.7009(3) -0.3050(6) 0.6709(5)
O4B O -0.1853(3) -0.1163(5) 0.6116(6)
O4B_2 O 0.8147(3) -0.1163(5) 0.6116(6)
O5A O 0.1981(3) 0.1180(6) 0.2029(5)
O5C O 0.8019(3) -0.1180(6) 0.7971(5)
O6A O 0.3321(3) 0.1481(7) 0.2615(5)
O6C O 0.6679(3) -0.1481(7) 0.7385(5)
O7B O 0.7364(4) -0.0116(7) 0.6733(6)
O8A O 0.1680(3) 0.1777(6) 0.0876(5)
O9A O -0.2008(3) -0.1955(5) 0.0931(5)
O9B O -0.2008(3) 0.6955(5) 0.5931(5)
O9C O 0.2008(3) 0.1955(5) -0.0931(5)
O10B O -0.1996(3) -0.1655(6) 0.4869(5)
O10B_2 O -0.1996(3) 0.8345(6) 0.4869(5)
O10C O 0.1996(3) 0.3345(6) 0.0131(5)
O11B O 0.6746(3) -0.1993(6) 0.4360(6)
O11B_2 O -0.3254(3) 0.8007(6) 0.4360(6)
O11C O 0.3254(3) 0.3007(6) 0.0640(6)
O12A O 0.2339(3) 0.0396(6) 0.0243(5)
O13A O 0.2497(3) 0.2879(5) 0.1672(5)
O14A O 0.6895(3) -0.1447(6) 0.0458(5)
O14B O -0.3105(3) 0.6447(6) 0.5458(5)
O14C O 0.3105(3) 0.1447(6) -0.0458(5)
O15A O 0.3090(3) 0.1395(7) 0.1355(6)
O15_2 O -0.3090(3) 0.6395(7) 0.3645(6)
C1B C -0.1191(3) -0.0872(6) 0.5301(6)
C2B C -0.0964(3) -0.0212(6) 0.5786(5)
H1B H -0.1136 -0.0006 0.6193
N1B N -0.0482(3) 0.0140(5) 0.5663(5)
C3B C -0.0226(2) -0.0168(6) 0.5055(5)
C4B C -0.0452(3) -0.0828(6) 0.4570(5)
H2B H -0.0281 -0.1034 0.4163
C5B C -0.0935(4) -0.1180(6) 0.4693(5)
H3B H -0.1086 -0.1622 0.4368
C6B C -0.1726(6) -0.1281(10) 0.5421(11)
C7B C 0.6195(3) -0.1112(6) 0.4959(6)
C8B C 0.6096(3) -0.0687(7) 0.5637(5)
H4B H 0.6347 -0.0693 0.6088
N2B N 0.5620(4) -0.0251(6) 0.5642(4)
C9B C 0.5244(3) -0.0242(5) 0.4969(6)
C10B C 0.5343(3) -0.0667(7) 0.4290(4)
H5B H 0.5091 -0.0661 0.3839
C11B C 0.5818(4) -0.1102(6) 0.4285(4)
H6B H 0.5884 -0.1387 0.3830
C12B C 0.6660(5) -0.1609(10) 0.4954(8)
C13A C -0.1241(3) -0.1300(5) 0.1588(6)
C14A C -0.1161(3) -0.0829(6) 0.0923(4)
H7A H -0.1406 -0.0858 0.0466
C16A C -0.0346(3) -0.0270(6) 0.1625(6)
C17A C -0.0426(3) -0.0741(7) 0.2289(5)
H9A H -0.0180 -0.0712 0.2746
C18A C -0.0873(4) -0.1256(6) 0.2271(5)
H10A H -0.0927 -0.1571 0.2715
N3A N -0.0713(4) -0.0314(6) 0.0942(5)
C19A C -0.1710(5) -0.1866(10) 0.1591(9)
C20A C 0.1104(3) 0.0985(6) 0.1569(6)
C21A C 0.0693(4) 0.1101(6) 0.0950(5)
H11A H 0.0743 0.1441 0.0520
C23A C 0.0130(3) 0.0199(6) 0.1619(6)
C24A C 0.0541(4) 0.0083(6) 0.2237(5)
H13A H 0.0491 -0.0257 0.2668
C25A C 0.1028(3) 0.0476(7) 0.2212(5)
H14A H 0.1303 0.0398 0.2626
N5A N 0.0206(3) 0.0708(7) 0.0975(5)
C26A C 0.1621(4) 0.1369(9) 0.1472(9)
C27A C 0.3945(3) 0.0970(7) 0.1854(6)
C28A C 0.4065(5) 0.0817(12) 0.1099(5)
H15A H 0.3818 0.0946 0.0659
N7A N 0.4554(5) 0.0472(12) 0.1001(6)
C29A C 0.4922(4) 0.0280(7) 0.1658(8)
C30A C 0.4802(4) 0.0433(12) 0.2413(6)
H16A H 0.5049 0.0304 0.2853
C31A C 0.4313(5) 0.0778(12) 0.2511(5)
H17A H 0.4233 0.0880 0.3016
C35A C 0.3417(5) 0.1303(9) 0.1953(9)
C36A C 0.6301(3) -0.0998(6) 0.1297(6)
C37A C 0.6067(3) -0.1201(6) 0.1959(5)
H21A H 0.6215 -0.1624 0.2308
C38A C 0.5611(3) -0.0773(7) 0.2099(5)
H22A H 0.5455 -0.0909 0.2542
C39A C 0.5390(3) -0.0141(7) 0.1577(6)
N9A N 0.5623(3) 0.0062(6) 0.0915(6)
C40A C 0.6079(4) -0.0367(7) 0.0774(5)
H23A H 0.6235 -0.0231 0.0331
C41A C 0.6794(5) -0.1528(10) 0.1153(9)
loop_
_geom_bond_atom_site_label_1
_geom_bond_atom_site_label_2
_geom_bond_site_symmetry_1
_geom_bond_site_symmetry_2
Sm1 O1 1_555 1_555
Sm2 O8 1_555 1_555
O1 C12 1_555 1_555
O2 Sm1 1_555 1_555
O3 Sm1 1_555 1_555
O4 Sm1 1_555 1_555
O5 C26 1_555 1_555
O6 C35 1_555 1_555
O7 Sm1 1_555 1_555
O8 C26 1_555 1_555
O9 C19 1_555 1_555
O10 C6 1_555 1_555
O11 C12 1_555 1_555
O12 Sm2 1_555 1_555
O13 Sm2 1_555 1_555
O14 C41 1_555 1_555
O15 C35 1_555 1_555
C1 C2 1_555 1_555
C2 H1 1_555 1_555
N1 C2 1_555 1_555
C3 N1 1_555 1_555
C4 C3 1_555 1_555
H2 C4 1_555 1_555
C5 C1 1_555 1_555
H3 C5 1_555 1_555
C6 O4 1_555 1_555
C7 C8 1_555 1_555
C8 H4 1_555 1_555
N2 C8 1_555 1_555
C9 N2 1_555 1_555
C10 C9 1_555 1_555
H5 C10 1_555 1_555
C11 C7 1_555 1_555
H6 C11 1_555 1_555
C12 C7 1_555 1_555
C13 C14 1_555 1_555
C14 H7 1_555 1_555
C16 C17 1_555 1_555
C17 H9 1_555 1_555
C18 C13 1_555 1_555
H10 C18 1_555 1_555
N3 C14 1_555 1_555
C19 O2 1_555 1_555
C20 C21 1_555 1_555
C21 H11 1_555 1_555
C23 C16 1_555 1_555
C24 C23 1_555 1_555
H13 C24 1_555 1_555
C25 C20 1_555 1_555
H14 C25 1_555 1_555
N5 C21 1_555 1_555
C26 C20 1_555 1_555
C27 C28 1_555 1_555
C28 H15 1_555 1_555
N7 C28 1_555 1_555
C29 N7 1_555 1_555
C30 C29 1_555 1_555
H16 C30 1_555 1_555
C31 C27 1_555 1_555
H17 C31 1_555 1_555
C35 C27 1_555 1_555
C36 C37 1_555 1_555
C37 H21 1_555 1_555
C38 C37 1_555 1_555
H22 C38 1_555 1_555
C39 C29 1_555 1_555
N9 C39 1_555 1_555
C40 C36 1_555 1_555
H23 C40 1_555 1_555
C41 O3 1_555 1_555
Sm1B O1B 1_555 1_555
Sm1A O5 1_555 1_555
Sm1A_2 O6 1_555 1_555
Sm1B_2 O4B 1_555 1_555
Sm1A_3 O2A 1_555 1_555
Sm1A_4 O3A 1_555 1_555
Sm2A O8A 1_555 1_555
Sm2B O9 1_555 1_555
Sm2_2 O15 1_555 1_555
Sm2_3 O11B 1_555 1_555
Sm2_4 O10B 1_555 1_555
Sm2C O9A 1_555 1_555
Sm2C_2 O14A 1_555 1_555
O1B C12B 1_555 1_555
O2A C19A 1_555 1_555
O2B Sm1B 1_555 1_555
O3A C41A 1_555 1_555
O3B Sm1B 1_555 1_555
O4B C6B 1_555 1_555
O4B_2 Sm1B 1_555 1_555
O5A Sm1 1_555 1_555
O5C Sm1B 1_555 1_555
O6A Sm1 1_555 1_555
O6C Sm1B 1_555 1_555
O7B Sm1B 1_555 1_555
O8A C26A 1_555 1_555
O9A C19A 1_555 1_555
O9B Sm2 1_555 1_555
O9C Sm2A 1_555 1_555
O10B C6B 1_555 1_555
O10B_2 Sm2 1_555 1_555
O10C Sm2A 1_555 1_555
O11B C12B 1_555 1_555
O11B_2 Sm2 1_555 1_555
O11C Sm2A 1_555 1_555
O12A Sm2A 1_555 1_555
O13A Sm2A 1_555 1_555
O14A C41A 1_555 1_555
O14B Sm2 1_555 1_555
O14C Sm2A 1_555 1_555
O15A Sm2A 1_555 1_555
O15_2 Sm2 1_555 1_555
C1B C2B 1_555 1_555
C2B H1B 1_555 1_555
N1B C2B 1_555 1_555
C3B C3 1_555 1_555
C4B C3B 1_555 1_555
H2B C4B 1_555 1_555
C5B C1B 1_555 1_555
H3B C5B 1_555 1_555
C6B C1B 1_555 1_555
C7B C8B 1_555 1_555
C8B H4B 1_555 1_555
N2B C8B 1_555 1_555
C9B C9 1_555 1_555
C10B C9B 1_555 1_555
H5B C10B 1_555 1_555
C11B C7B 1_555 1_555
H6B C11B 1_555 1_555
C12B C7B 1_555 1_555
C13A C14A 1_555 1_555
C14A H7A 1_555 1_555
C16A C17A 1_555 1_555
C17A H9A 1_555 1_555
C18A C13A 1_555 1_555
H10A C18A 1_555 1_555
N3A C14A 1_555 1_555
C19A C13A 1_555 1_555
C20A C21A 1_555 1_555
C21A H11A 1_555 1_555
C23A C16A 1_555 1_555
C24A C23A 1_555 1_555
H13A C24A 1_555 1_555
C25A C20A 1_555 1_555
H14A C25A 1_555 1_555
N5A C21A 1_555 1_555
C26A O5A 1_555 1_555
C27A C28A 1_555 1_555
C28A H15A 1_555 1_555
N7A C28A 1_555 1_555
C29A N7A 1_555 1_555
C30A C29A 1_555 1_555
H16A C30A 1_555 1_555
C31A C27A 1_555 1_555
H17A C31A 1_555 1_555
C35A O6A 1_555 1_555
C36A C37A 1_555 1_555
C37A H21A 1_555 1_555
C38A C37A 1_555 1_555
H22A C38A 1_555 1_555
C39A C29A 1_555 1_555
N9A C39A 1_555 1_555
C40A C36A 1_555 1_555
H23A C40A 1_555 1_555
C41A C36A 1_555 1_555
O10 Sm2B 1_555 1_555
O11 Sm2B 1_555 1_555
O14 Sm2B 1_555 1_555
C1 C6 1_555 1_555
C4 C5 1_555 1_555
C10 C11 1_555 1_555
C13 C19 1_555 1_555
C16 N3 1_555 1_555
C17 C18 1_555 1_555
C23 N5 1_555 1_555
C24 C25 1_555 1_555
C30 C31 1_555 1_555
C36 C41 1_555 1_555
C38 C39 1_555 1_555
N9 C40 1_555 1_555
O15A C35A 1_555 1_555
N1B C3B 1_555 1_555
C4B C5B 1_555 1_555
N2B C9B 1_555 1_555
C10B C11B 1_555 1_555
C16A N3A 1_555 1_555
C17A C18A 1_555 1_555
C20A C26A 1_555 1_555
C23A N5A 1_555 1_555
C24A C25A 1_555 1_555
C27A C35A 1_555 1_555
C30A C31A 1_555 1_555
C38A C39A 1_555 1_555
N9A C40A 1_555 1_555

#END
