
#######################################################################
#
#                 Cambridge Crystallographic Data Centre
#                                CCDC 
#
#######################################################################
#
# If this CIF has been generated from an entry in the Cambridge 
# Structural Database, then it will include bibliographic, chemical, 
# crystal, experimental, refinement or atomic coordinate data resulting 
# from the CCDC's data processing and validation procedures.
#
#######################################################################

data_PEFRUP01
_chemical_formula_moiety         '(C72 H48 Gd4 N12 O30)n'
_symmetry_cell_setting           monoclinic
_symmetry_space_group_name_H-M   'P 21/c'
_symmetry_Int_Tables_number      14
_space_group_name_Hall           '-P 2ybc'
loop_
_symmetry_equiv_pos_site_id
_symmetry_equiv_pos_as_xyz
1 x,y,z
2 -x,1/2+y,1/2-z
3 -x,-y,-z
4 x,1/2-y,1/2+z
_cell_length_a                   27.0154(19)
_cell_length_b                   11.5213(18)
_cell_length_c                   16.995(3)
_cell_angle_alpha                90
_cell_angle_beta                 98.137(10)
_cell_angle_gamma                90
_cell_volume                     5236.48
loop_
_atom_site_label
_atom_site_type_symbol
_atom_site_fract_x
_atom_site_fract_y
_atom_site_fract_z
Gd1 Gd 0.248095(18) 0.38013(7) 0.30895(4)
Gd2 Gd -0.24916(2) -0.19120(8) 0.46924(4)
O1 O 0.2962(3) 0.4131(13) 0.4277(7)
O2 O 0.1857(3) 0.2290(9) 0.2821(7)
O3 O 0.2977(3) 0.2103(9) 0.3257(6)
O4 O 0.1848(3) 0.4479(9) 0.3827(6)
O5 O -0.1966(3) -0.0636(8) 0.3027(5)
O6 O 0.6800(3) -0.0760(9) 0.2504(5)
O7 O 0.2543(4) 0.5917(12) 0.3070(9)
O8 O -0.1743(3) -0.1411(9) 0.4211(6)
O9 O 0.2044(3) 0.1673(10) 0.4024(7)
O10 O 0.1994(3) 0.3556(10) 0.4986(8)
O11 O 0.3109(4) 0.3383(15) 0.5501(7)
O12 O -0.2374(5) 0.0367(17) 0.4870(9)
O13 O -0.2454(4) -0.2960(16) 0.3402(7)
O14 O 0.3116(4) 0.1318(9) 0.4485(7)
O15 O 0.6929(4) -0.106(2) 0.3756(9)
C1 C 0.0248(2) 0.4914(8) 0.4943(5)
N1 N 0.0440(3) 0.5508(7) 0.4342(5)
C2 C 0.0923(3) 0.5280(8) 0.4190(5)
H1 H 0.1051 0.5678 0.3787
C3 C 0.1214(2) 0.4456(8) 0.4639(5)
C4 C 0.1022(3) 0.3861(8) 0.5240(5)
H2 H 0.1217 0.3309 0.5541
C5 C 0.0539(3) 0.4090(8) 0.5392(5)
H3 H 0.0411 0.3692 0.5795
C6 C 0.1730(5) 0.4163(13) 0.4467(11)
C7 C 0.4756(2) 0.4845(9) 0.5015(5)
C9 C 0.4098(3) 0.4029(11) 0.5660(5)
H5 H 0.3993 0.3672 0.6098
C10 C 0.3754(2) 0.4280(10) 0.4993(6)
C11 C 0.3911(3) 0.4814(11) 0.4338(5)
H6 H 0.3680 0.4982 0.3892
C12 C 0.4412(3) 0.5096(10) 0.4349(5)
H7 H 0.4517 0.5454 0.3911
N2 N 0.4599(3) 0.4311(11) 0.5671(5)
C13 C 0.3224(5) 0.391(2) 0.4922(11)
C14 C 0.0360(2) 0.0077(9) 0.3299(5)
N4 N 0.0718(3) -0.0070(8) 0.3964(4)
C15 C 0.1186(2) 0.0441(8) 0.3990(4)
H8 H 0.1426 0.0343 0.4435
C16 C 0.1296(2) 0.1100(8) 0.3352(5)
C17 C 0.0938(3) 0.1247(10) 0.2687(5)
H9 H 0.1011 0.1688 0.2260
C18 C 0.0470(3) 0.0736(11) 0.2661(5)
H10 H 0.0230 0.0834 0.2216
C19 C 0.1770(5) 0.1734(13) 0.3398(10)
C20 C -0.01150(19) -0.0334(8) 0.3372(5)
N5 N -0.0485(3) -0.0137(9) 0.2730(4)
C21 C -0.0981(2) -0.0383(9) 0.2793(4)
H11 H -0.1229 -0.0251 0.2363
C22 C -0.11082(19) -0.0826(8) 0.3499(5)
C23 C -0.0738(3) -0.1023(8) 0.4141(4)
H12 H -0.0823 -0.1319 0.4613
C24 C -0.0242(2) -0.0777(9) 0.4078(4)
H13 H 0.0005 -0.0909 0.4507
C25 C -0.1640(4) -0.0981(11) 0.3601(7)
C26 C 0.5135(2) -0.0106(10) 0.3370(5)
N6 N 0.5333(3) 0.0228(10) 0.2693(5)
C27 C 0.5827(3) -0.0033(10) 0.2621(5)
H14 H 0.5959 0.0190 0.2168
C28 C 0.6123(2) -0.0628(9) 0.3226(5)
C29 C 0.5924(3) -0.0962(10) 0.3903(5)
H15 H 0.6122 -0.1361 0.4307
C30 C 0.5431(3) -0.0701(11) 0.3975(5)
H16 H 0.5298 -0.0925 0.4428
C31 C 0.6655(4) -0.0842(10) 0.3139(8)
C32 C 0.4647(2) 0.0279(10) 0.3390(5)
C33 C 0.4396(3) 0.1095(11) 0.2879(6)
H17 H 0.4541 0.1375 0.2452
C34 C 0.3928(3) 0.1494(11) 0.3007(6)
H18 H 0.3760 0.2040 0.2666
C35 C 0.3711(2) 0.1075(10) 0.3646(6)
C36 C 0.3963(3) 0.0258(10) 0.4157(5)
H19 H 0.3818 -0.0022 0.4584
N7 N 0.4430(3) -0.0140(9) 0.4029(5)
C37 C 0.3227(5) 0.1541(17) 0.3797(10)
Gd1B Gd 0.751905(18) 0.61987(7) 0.69105(4)
Gd1A Gd -0.248095(18) -0.11987(7) 0.19105(4)
Gd1A_2 Gd 0.751905(18) -0.11987(7) 0.19105(4)
Gd1B_2 Gd -0.248095(18) 0.61987(7) 0.69105(4)
Gd1A_3 Gd -0.248095(18) 0.88013(7) 0.19105(4)
Gd1A_4 Gd 0.751905(18) 0.88013(7) 0.19105(4)
Gd2A Gd 0.24916(2) 0.30880(8) 0.03076(4)
Gd2B Gd 0.24916(2) 0.19120(8) 0.53076(4)
Gd2_2 Gd 0.75084(2) -0.19120(8) 0.46924(4)
Gd2_3 Gd 0.75084(2) 0.80880(8) 0.46924(4)
Gd2_4 Gd -0.24916(2) 0.80880(8) 0.46924(4)
Gd2C Gd -0.24916(2) 0.69120(8) -0.03076(4)
Gd2C_2 Gd 0.75084(2) 0.69120(8) -0.03076(4)
O1B O 0.7038(3) 0.5869(13) 0.5723(7)
O2A O -0.1857(3) 0.7290(9) 0.2179(7)
O2B O 0.8143(3) 0.7710(9) 0.7179(7)
O3A O 0.7023(3) 0.7103(9) 0.1743(6)
O3B O 0.7023(3) 0.7897(9) 0.6743(6)
O4B O -0.1848(3) 0.5521(9) 0.6173(6)
O4B_2 O 0.8152(3) 0.5521(9) 0.6173(6)
O5A O 0.1966(3) 0.4364(8) 0.1973(5)
O5C O 0.8034(3) 0.5636(8) 0.8027(5)
O6A O 0.3200(3) 0.4240(9) 0.2496(5)
O6C O 0.6800(3) 0.5760(9) 0.7504(5)
O7B O 0.7457(4) 0.4083(12) 0.6930(9)
O8A O 0.1743(3) 0.3589(9) 0.0789(6)
O9A O -0.2044(3) 0.6673(10) 0.0976(7)
O9B O -0.2044(3) -0.1673(10) 0.5976(7)
O9C O 0.2044(3) 0.3327(10) -0.0976(7)
O10B O -0.1994(3) 0.6444(10) 0.5014(8)
O10B_2 O -0.1994(3) -0.3556(10) 0.5014(8)
O10C O 0.1994(3) 0.1444(10) -0.0014(8)
O11B O 0.6891(4) 0.6617(15) 0.4499(7)
O11B_2 O -0.3109(4) -0.3383(15) 0.4499(7)
O11C O 0.3109(4) 0.1617(15) 0.0501(7)
O12A O 0.2374(5) 0.5367(17) 0.0130(9)
O13A O 0.2454(4) 0.2040(16) 0.1598(7)
O14A O 0.6884(4) 0.6318(9) 0.0515(7)
O14B O -0.3116(4) -0.1318(9) 0.5515(7)
O14C O 0.3116(4) 0.3682(9) -0.0515(7)
O15A O 0.3071(4) 0.394(2) 0.1244(9)
O15_2 O -0.3071(4) -0.106(2) 0.3756(9)
C1B C -0.0248(2) 0.5086(8) 0.5057(5)
N1B N -0.0440(3) 0.4492(7) 0.5658(5)
C2B C -0.0923(3) 0.4720(8) 0.5810(5)
H1B H -0.1051 0.4322 0.6213
C3B C -0.1214(2) 0.5544(8) 0.5361(5)
C4B C -0.1022(3) 0.6139(8) 0.4760(5)
H2B H -0.1217 0.6691 0.4459
C5B C -0.0539(3) 0.5910(8) 0.4608(5)
H3B H -0.0411 0.6308 0.4205
C6B C -0.1730(5) 0.5837(13) 0.5533(11)
C7B C 0.5244(2) 0.5155(9) 0.4985(5)
C9B C 0.5902(3) 0.5971(11) 0.4340(5)
H5B H 0.6007 0.6328 0.3902
C10B C 0.6246(2) 0.5720(10) 0.5007(6)
C11B C 0.6089(3) 0.5186(11) 0.5662(5)
H6B H 0.6320 0.5018 0.6108
C12B C 0.5588(3) 0.4904(10) 0.5651(5)
H7B H 0.5483 0.4546 0.6089
N2B N 0.5401(3) 0.5689(11) 0.4329(5)
C13B C 0.6776(5) 0.609(2) 0.5078(11)
C14A C -0.0360(2) 0.5077(9) 0.1701(5)
N4A N -0.0718(3) 0.4930(8) 0.1036(4)
C15A C -0.1186(2) 0.5441(8) 0.1010(4)
H8A H -0.1426 0.5343 0.0565
C16A C -0.1296(2) 0.6100(8) 0.1648(5)
C17A C -0.0938(3) 0.6247(10) 0.2313(5)
H9A H -0.1011 0.6688 0.2740
C18A C -0.0470(3) 0.5736(11) 0.2339(5)
H10A H -0.0230 0.5834 0.2784
C19A C -0.1770(5) 0.6734(13) 0.1602(10)
C20A C 0.01150(19) 0.4666(8) 0.1628(5)
N5A N 0.0485(3) 0.4863(9) 0.2270(4)
C21A C 0.0981(2) 0.4617(9) 0.2207(4)
H11A H 0.1229 0.4749 0.2637
C22A C 0.11082(19) 0.4174(8) 0.1501(5)
C23A C 0.0738(3) 0.3977(8) 0.0859(4)
H12A H 0.0823 0.3681 0.0387
C24A C 0.0242(2) 0.4223(9) 0.0922(4)
H13A H -0.0005 0.4091 0.0493
C25A C 0.1640(4) 0.4019(11) 0.1399(7)
C26A C 0.4865(2) 0.4894(10) 0.1630(5)
N6A N 0.4667(3) 0.5228(10) 0.2307(5)
C27A C 0.4173(3) 0.4967(10) 0.2379(5)
H14A H 0.4041 0.5190 0.2832
C28A C 0.3877(2) 0.4372(9) 0.1774(5)
C29A C 0.4076(3) 0.4038(10) 0.1097(5)
H15A H 0.3878 0.3639 0.0693
C30A C 0.4569(3) 0.4299(11) 0.1025(5)
H16A H 0.4702 0.4075 0.0572
C31A C 0.3345(4) 0.4158(10) 0.1861(8)
C32A C 0.5353(2) 0.5279(10) 0.1610(5)
C33A C 0.5604(3) 0.6095(11) 0.2121(6)
H17A H 0.5459 0.6375 0.2548
C34A C 0.6072(3) 0.6494(11) 0.1993(6)
H18A H 0.6240 0.7040 0.2334
C35A C 0.6289(2) 0.6075(10) 0.1354(6)
C36A C 0.6037(3) 0.5258(10) 0.0843(5)
H19A H 0.6182 0.4978 0.0416
N7A N 0.5570(3) 0.4860(9) 0.0971(5)
C37A C 0.6773(5) 0.6541(17) 0.1203(10)
loop_
_geom_bond_atom_site_label_1
_geom_bond_atom_site_label_2
_geom_bond_site_symmetry_1
_geom_bond_site_symmetry_2
Gd1 O1 1_555 1_555
Gd2 O8 1_555 1_555
O1 C13 1_555 1_555
O2 Gd1 1_555 1_555
O3 Gd1 1_555 1_555
O4 Gd1 1_555 1_555
O5 C25 1_555 1_555
O6 C31 1_555 1_555
O7 Gd1 1_555 1_555
O8 C25 1_555 1_555
O9 C19 1_555 1_555
O10 C6 1_555 1_555
O11 C13 1_555 1_555
O12 Gd2 1_555 1_555
O13 Gd2 1_555 1_555
O14 C37 1_555 1_555
O15 C31 1_555 1_555
C1 N1 1_555 1_555
N1 C2 1_555 1_555
C2 H1 1_555 1_555
C3 C2 1_555 1_555
C4 C3 1_555 1_555
H2 C4 1_555 1_555
C5 C1 1_555 1_555
H3 C5 1_555 1_555
C6 O4 1_555 1_555
C7 C12 1_555 1_555
C9 H5 1_555 1_555
C10 C9 1_555 1_555
C11 C10 1_555 1_555
H6 C11 1_555 1_555
C12 C11 1_555 1_555
H7 C12 1_555 1_555
N2 C7 1_555 1_555
C13 C10 1_555 1_555
C14 N4 1_555 1_555
N4 C15 1_555 1_555
C15 H8 1_555 1_555
C16 C15 1_555 1_555
C17 C16 1_555 1_555
H9 C17 1_555 1_555
C18 C14 1_555 1_555
H10 C18 1_555 1_555
C19 O2 1_555 1_555
C20 C14 1_555 1_555
N5 C20 1_555 1_555
C21 N5 1_555 1_555
H11 C21 1_555 1_555
C22 C21 1_555 1_555
C23 C22 1_555 1_555
H12 C23 1_555 1_555
C24 C20 1_555 1_555
H13 C24 1_555 1_555
C25 C22 1_555 1_555
C26 N6 1_555 1_555
N6 C27 1_555 1_555
C27 H14 1_555 1_555
C28 C27 1_555 1_555
C29 C28 1_555 1_555
H15 C29 1_555 1_555
C30 C26 1_555 1_555
H16 C30 1_555 1_555
C31 C28 1_555 1_555
C32 C26 1_555 1_555
C33 C32 1_555 1_555
H17 C33 1_555 1_555
C34 C33 1_555 1_555
H18 C34 1_555 1_555
C35 C34 1_555 1_555
C36 C35 1_555 1_555
H19 C36 1_555 1_555
N7 C32 1_555 1_555
C37 O3 1_555 1_555
Gd1B O1B 1_555 1_555
Gd1A O5 1_555 1_555
Gd1A_2 O6 1_555 1_555
Gd1B_2 O4B 1_555 1_555
Gd1A_3 O2A 1_555 1_555
Gd1A_4 O3A 1_555 1_555
Gd2A O8A 1_555 1_555
Gd2B O9 1_555 1_555
Gd2_2 O15 1_555 1_555
Gd2_3 O11B 1_555 1_555
Gd2_4 O10B 1_555 1_555
Gd2C O9A 1_555 1_555
Gd2C_2 O14A 1_555 1_555
O1B C13B 1_555 1_555
O2A C19A 1_555 1_555
O2B Gd1B 1_555 1_555
O3A C37A 1_555 1_555
O3B Gd1B 1_555 1_555
O4B C6B 1_555 1_555
O4B_2 Gd1B 1_555 1_555
O5A Gd1 1_555 1_555
O5C Gd1B 1_555 1_555
O6A Gd1 1_555 1_555
O6C Gd1B 1_555 1_555
O7B Gd1B 1_555 1_555
O8A C25A 1_555 1_555
O9A C19A 1_555 1_555
O9B Gd2 1_555 1_555
O9C Gd2A 1_555 1_555
O10B C6B 1_555 1_555
O10B_2 Gd2 1_555 1_555
O10C Gd2A 1_555 1_555
O11B C13B 1_555 1_555
O11B_2 Gd2 1_555 1_555
O11C Gd2A 1_555 1_555
O12A Gd2A 1_555 1_555
O13A Gd2A 1_555 1_555
O14A C37A 1_555 1_555
O14B Gd2 1_555 1_555
O14C Gd2A 1_555 1_555
O15A Gd2A 1_555 1_555
O15_2 Gd2 1_555 1_555
C1B C1 1_555 1_555
N1B C1B 1_555 1_555
C2B N1B 1_555 1_555
H1B C2B 1_555 1_555
C3B C2B 1_555 1_555
C4B C3B 1_555 1_555
H2B C4B 1_555 1_555
C5B C1B 1_555 1_555
H3B C5B 1_555 1_555
C6B C3B 1_555 1_555
C7B C7 1_555 1_555
C9B H5B 1_555 1_555
C10B C9B 1_555 1_555
C11B C10B 1_555 1_555
H6B C11B 1_555 1_555
C12B C7B 1_555 1_555
H7B C12B 1_555 1_555
N2B C7B 1_555 1_555
C13B C10B 1_555 1_555
C14A N4A 1_555 1_555
N4A C15A 1_555 1_555
C15A H8A 1_555 1_555
C16A C15A 1_555 1_555
C17A C16A 1_555 1_555
H9A C17A 1_555 1_555
C18A C14A 1_555 1_555
H10A C18A 1_555 1_555
C19A C16A 1_555 1_555
C20A C14A 1_555 1_555
N5A C20A 1_555 1_555
C21A N5A 1_555 1_555
H11A C21A 1_555 1_555
C22A C21A 1_555 1_555
C23A C22A 1_555 1_555
H12A C23A 1_555 1_555
C24A C20A 1_555 1_555
H13A C24A 1_555 1_555
C25A O5A 1_555 1_555
C26A N6A 1_555 1_555
N6A C27A 1_555 1_555
C27A H14A 1_555 1_555
C28A C27A 1_555 1_555
C29A C28A 1_555 1_555
H15A C29A 1_555 1_555
C30A C26A 1_555 1_555
H16A C30A 1_555 1_555
C31A O6A 1_555 1_555
C32A C26A 1_555 1_555
C33A C32A 1_555 1_555
H17A C33A 1_555 1_555
C34A C33A 1_555 1_555
H18A C34A 1_555 1_555
C35A C34A 1_555 1_555
C36A C35A 1_555 1_555
H19A C36A 1_555 1_555
N7A C32A 1_555 1_555
C37A C35A 1_555 1_555
O10 Gd2B 1_555 1_555
O11 Gd2B 1_555 1_555
O14 Gd2B 1_555 1_555
C3 C6 1_555 1_555
C4 C5 1_555 1_555
C9 N2 1_555 1_555
C16 C19 1_555 1_555
C17 C18 1_555 1_555
C23 C24 1_555 1_555
C29 C30 1_555 1_555
C35 C37 1_555 1_555
C36 N7 1_555 1_555
O15A C31A 1_555 1_555
C4B C5B 1_555 1_555
C9B N2B 1_555 1_555
C11B C12B 1_555 1_555
C17A C18A 1_555 1_555
C22A C25A 1_555 1_555
C23A C24A 1_555 1_555
C28A C31A 1_555 1_555
C29A C30A 1_555 1_555
C36A N7A 1_555 1_555

#END
