
#######################################################################
#
#                 Cambridge Crystallographic Data Centre
#                                CCDC 
#
#######################################################################
#
# If this CIF has been generated from an entry in the Cambridge 
# Structural Database, then it will include bibliographic, chemical, 
# crystal, experimental, refinement or atomic coordinate data resulting 
# from the CCDC's data processing and validation procedures.
#
#######################################################################

data_MALROJ
_chemical_formula_moiety         '(C24 H28 Co2 N2 O8)n'
_symmetry_cell_setting           trigonal
_symmetry_space_group_name_H-M   'P 32 2 1'
_symmetry_Int_Tables_number      154
_space_group_name_Hall           'P 32 2"'
loop_
_symmetry_equiv_pos_site_id
_symmetry_equiv_pos_as_xyz
1 x,y,z
2 -y,x-y,2/3+z
3 -x+y,-x,1/3+z
4 y,x,-z
5 x-y,-y,1/3-z
6 -x,-x+y,2/3-z
_cell_length_a                   21.7036(5)
_cell_length_b                   21.7036(5)
_cell_length_c                   6.8440(2)
_cell_angle_alpha                90
_cell_angle_beta                 90
_cell_angle_gamma                120
_cell_volume                     2791.93
loop_
_atom_site_label
_atom_site_type_symbol
_atom_site_fract_x
_atom_site_fract_y
_atom_site_fract_z
Co1 Co 0.28176(5) 0.60829(6) 0.33908(14)
O1 O 0.4199(3) 0.6288(4) 0.7865(7)
O2 O 0.3624(3) 0.6501(3) 0.5495(8)
O3 O 0.3525(4) 0.5891(3) 0.1932(7)
O4 O 0.2288(4) 0.5042(3) 0.4567(9)
C1 C 0.3955(5) 0.6197(5) 0.6154(12)
C2 C 0.4057(5) 0.5181(5) 0.1744(12)
H1 H 0.3951 0.5123 0.0387
C3 C 0.4381(5) 0.4834(5) 0.2552(12)
H2 H 0.4480 0.4534 0.1761
C4 C 0.4080(5) 0.5723(5) 0.4829(12)
C5 C 0.3878(5) 0.5612(5) 0.2815(12)
C6 C 0.4412(5) 0.5376(5) 0.5612(12)
H3 H 0.4541 0.5453 0.6953
N1 N 0.2194(7) 0.4263(7) 0.6911(17)
C7 C 0.2373(6) 0.4897(7) 0.6200(17)
H4 H 0.2594 0.5285 0.7088
C8 C 0.4568(5) 0.4922(5) 0.4557(13)
C9 C 0.224(3) 0.432(2) 0.917(5)
H5 H 0.2510 0.4094 0.9647
H6 H 0.2509 0.4828 0.9538
C10 C 0.152(3) 0.397(2) 1.022(5)
H7 H 0.1239 0.3474 0.9825
H8 H 0.1265 0.4224 0.9861
H9 H 0.1597 0.4003 1.1632
C11 C 0.270(3) 0.363(3) 0.527(7)
H10 H 0.2900 0.3566 0.6478
H11 H 0.3054 0.4062 0.4602
H12 H 0.2556 0.3218 0.4413
C12 C 0.201(2) 0.370(2) 0.577(6)
H13 H 0.1801 0.3751 0.4545
H14 H 0.1654 0.3264 0.6443
O1C O 0.6288(4) 0.4199(3) 0.2135(7)
O2C O 0.6501(3) 0.3624(3) 0.4505(8)
O3C O 0.5891(3) 0.3525(4) 0.8068(7)
C1C C 0.6197(5) 0.3955(5) 0.3846(12)
C2C C 0.5181(5) 0.4057(5) 0.8256(12)
H1C H 0.5123 0.3951 0.9613
C3C C 0.4834(5) 0.4381(5) 0.7448(12)
H2C H 0.4534 0.4480 0.8239
C4C C 0.5723(5) 0.4080(5) 0.5171(12)
C5C C 0.5612(5) 0.3878(5) 0.7185(12)
C6C C 0.5376(5) 0.4412(5) 0.4388(12)
H3C H 0.5453 0.4541 0.3047
C8C C 0.4922(5) 0.4568(5) 0.5443(13)
Co1C Co 0.60829(6) 0.28176(5) 0.66092(14)
O4C O 0.5042(3) 0.2288(4) 0.5433(9)
N1C N 0.4263(7) 0.2194(7) 0.3089(17)
C7C C 0.4897(7) 0.2373(6) 0.3800(17)
H4C H 0.5285 0.2594 0.2912
C9C C 0.432(2) 0.224(3) 0.083(5)
H5C H 0.4094 0.2510 0.0353
H6C H 0.4828 0.2509 0.0462
C10C C 0.397(2) 0.152(3) -0.022(5)
H7C H 0.3474 0.1239 0.0175
H8C H 0.4224 0.1265 0.0139
H9C H 0.4003 0.1597 -0.1632
C11C C 0.363(3) 0.270(3) 0.473(7)
H10C H 0.3566 0.2900 0.3522
H11C H 0.4062 0.3054 0.5398
H12C H 0.3218 0.2556 0.5587
C12C C 0.370(2) 0.201(2) 0.423(6)
H13C H 0.3751 0.1801 0.5455
H14C H 0.3264 0.1654 0.3557
Co1A Co 0.39171(6) 0.67347(8) 0.00575(14)
Co1A_2 Co 0.39171(6) 0.67347(8) 1.00575(14)
Co1B Co 0.32653(8) 0.71824(5) 0.67241(14)
Co1D Co 0.67347(8) 0.39171(6) -0.00575(14)
Co1D_2 Co 0.67347(8) 0.39171(6) 0.99425(14)
Co1E Co 0.71824(5) 0.32653(8) 0.32759(14)
O1B O 0.2089(5) 0.5801(3) 0.1198(7)
O1E O 0.5801(3) 0.2089(5) 0.8802(7)
O2A O 0.3499(3) 0.7123(4) 0.2162(8)
O2D O 0.7123(4) 0.3499(3) 0.7838(8)
O3B O 0.2366(5) 0.6475(4) 0.5265(7)
O3E O 0.6475(4) 0.2366(5) 0.4735(7)
loop_
_geom_bond_atom_site_label_1
_geom_bond_atom_site_label_2
_geom_bond_site_symmetry_1
_geom_bond_site_symmetry_2
Co1 O2 1_555 1_555
O1 C1 1_555 1_555
O2 C1 1_555 1_555
O3 Co1 1_555 1_555
O4 Co1 1_555 1_555
C1 C4 1_555 1_555
C2 H1 1_555 1_555
C3 C2 1_555 1_555
H2 C3 1_555 1_555
C4 C5 1_555 1_555
C5 O3 1_555 1_555
C6 C4 1_555 1_555
H3 C6 1_555 1_555
N1 C7 1_555 1_555
C7 O4 1_555 1_555
H4 C7 1_555 1_555
C8 C3 1_555 1_555
C9 N1 1_555 1_555
H5 C9 1_555 1_555
H6 C9 1_555 1_555
C10 C9 1_555 1_555
H7 C10 1_555 1_555
H8 C10 1_555 1_555
H9 C10 1_555 1_555
C11 H10 1_555 1_555
H11 C11 1_555 1_555
H12 C11 1_555 1_555
C12 N1 1_555 1_555
H13 C12 1_555 1_555
H14 C12 1_555 1_555
O1C C1C 1_555 1_555
O2C C1C 1_555 1_555
O3C C5C 1_555 1_555
C1C C4C 1_555 1_555
C2C H1C 1_555 1_555
C3C C2C 1_555 1_555
H2C C3C 1_555 1_555
C4C C5C 1_555 1_555
C5C C2C 1_555 1_555
C6C C4C 1_555 1_555
H3C C6C 1_555 1_555
C8C C8 1_555 1_555
Co1C O2C 1_555 1_555
O4C Co1C 1_555 1_555
N1C C7C 1_555 1_555
C7C O4C 1_555 1_555
H4C C7C 1_555 1_555
C9C N1C 1_555 1_555
H5C C9C 1_555 1_555
H6C C9C 1_555 1_555
C10C C9C 1_555 1_555
H7C C10C 1_555 1_555
H8C C10C 1_555 1_555
H9C C10C 1_555 1_555
C11C H10C 1_555 1_555
H11C C11C 1_555 1_555
H12C C11C 1_555 1_555
C12C N1C 1_555 1_555
H13C C12C 1_555 1_555
H14C C12C 1_555 1_555
Co1A O3 1_555 1_555
Co1A_2 O1 1_555 1_555
Co1B O2 1_555 1_555
Co1D O1C 1_555 1_555
Co1D_2 O3C 1_555 1_555
Co1E O2C 1_555 1_555
O1B Co1 1_555 1_555
O1E Co1C 1_555 1_555
O2A Co1 1_555 1_555
O2D Co1C 1_555 1_555
O3B Co1 1_555 1_555
O3E Co1C 1_555 1_555
C2 C5 1_555 1_555
C6 C8 1_555 1_555
C11 C12 1_555 1_555
O3C Co1C 1_555 1_555
C3C C8C 1_555 1_555
C6C C8C 1_555 1_555
C11C C12C 1_555 1_555
Co1A O2A 1_555 1_555
Co1B O3B 1_555 1_555
Co1D_2 O2D 1_555 1_555
Co1E O3E 1_555 1_555

#END
