
#######################################################################
#
#                 Cambridge Crystallographic Data Centre
#                                CCDC 
#
#######################################################################
#
# If this CIF has been generated from an entry in the Cambridge 
# Structural Database, then it will include bibliographic, chemical, 
# crystal, experimental, refinement or atomic coordinate data resulting 
# from the CCDC's data processing and validation procedures.
#
#######################################################################

data_IWAXUZ
_chemical_formula_moiety         'C20 H14 Mg12 N7 Na1 O47 3+'
_symmetry_cell_setting           cubic
_symmetry_space_group_name_H-M   'F d -3 c'
_symmetry_Int_Tables_number      228
_space_group_name_Hall           '-F 4ud 2vw 3'
loop_
_symmetry_equiv_pos_site_id
_symmetry_equiv_pos_as_xyz
1 x,y,z
2 z,x,y
3 y,z,x
4 3/4+y,1/4+x,-z
5 1/4+y,-x,3/4+z
6 -y,3/4+x,1/4+z
7 3/4+x,1/4+z,-y
8 -x,3/4+z,1/4+y
9 1/4+x,-z,3/4+y
10 3/4+z,1/4+y,-x
11 1/4+z,-y,3/4+x
12 -z,3/4+y,1/4+x
13 x,1/2+y,1/2+z
14 1/4-x,1/4-y,z
15 z,1/2+x,1/2+y
16 1/4-z,1/4-x,y
17 y,1/2+z,1/2+x
18 1/4-y,1/4-z,x
19 1/4+y,1/2-x,1/4+z
20 -y,1/4+x,3/4+z
21 -x,1/4+z,3/4+y
22 1/4+x,1/2-z,1/4+y
23 1/4+z,1/2-y,1/4+x
24 -z,1/4+y,3/4+x
25 1/2+x,y,1/2+z
26 x,1/4-y,1/4-z
27 1/2+z,x,1/2+y
28 z,1/4-x,1/4-y
29 1/2+y,z,1/2+x
30 y,1/4-z,1/4-x
31 1/4+y,1/4+x,1/2-z
32 3/4+y,-x,1/4+z
33 1/4+x,1/4+z,1/2-y
34 3/4+x,-z,1/4+y
35 1/4+z,1/4+y,1/2-x
36 3/4+z,-y,1/4+x
37 1/2+x,1/2+y,z
38 1/4-x,y,1/4-z
39 1/2+z,1/2+x,y
40 1/4-z,x,1/4-y
41 1/2+y,1/2+z,x
42 1/4-y,z,1/4-x
43 1/4+y,3/4+x,-z
44 1/2-y,1/4+x,1/4+z
45 1/4+x,3/4+z,-y
46 1/2-x,1/4+z,1/4+y
47 1/4+z,3/4+y,-x
48 1/2-z,1/4+y,1/4+x
49 1/4-x,3/4-y,1/2+z
50 3/4-x,1/2+y,1/4-z
51 1/2+x,1/4-y,3/4-z
52 1/2+z,1/4-x,3/4-y
53 1/4-z,3/4-x,1/2+y
54 3/4-z,1/2+x,1/4-y
55 3/4-y,1/2+z,1/4-x
56 1/2+y,1/4-z,3/4-x
57 1/4-y,3/4-z,1/2+x
58 1/2-y,1/2-x,1/2-z
59 1/2-x,1/2-z,1/2-y
60 1/2-z,1/2-y,1/2-x
61 3/4-x,y,3/4-z
62 1/2+x,3/4-y,1/4-z
63 1/2+z,3/4-x,1/4-y
64 3/4-z,x,3/4-y
65 3/4-y,z,3/4-x
66 1/2+y,3/4-z,1/4-x
67 3/4+y,3/4+x,1/2-z
68 1/2-y,-x,-z
69 3/4+x,3/4+z,1/2-y
70 1/2-x,-z,-y
71 3/4+z,3/4+y,1/2-x
72 1/2-z,-y,-x
73 3/4-x,3/4-y,z
74 1/4-x,1/2+y,3/4-z
75 3/4-z,3/4-x,y
76 1/4-z,1/2+x,3/4-y
77 1/4-y,1/2+z,3/4-x
78 3/4-y,3/4-z,x
79 -y,1/2-x,-z
80 1/2-y,3/4+x,3/4+z
81 1/2-x,3/4+z,3/4+y
82 -x,1/2-z,-y
83 1/2-z,3/4+y,3/4+x
84 -z,1/2-y,-x
85 3/4-x,1/4-y,1/2+z
86 x,3/4-y,3/4-z
87 z,3/4-x,3/4-y
88 3/4-z,1/4-x,1/2+y
89 y,3/4-z,3/4-x
90 3/4-y,1/4-z,1/2+x
91 -y,-x,1/2-z
92 3/4+y,1/2-x,3/4+z
93 -x,-z,1/2-y
94 3/4+x,1/2-z,3/4+y
95 3/4+z,1/2-y,3/4+x
96 -z,-y,1/2-x
97 -x,-y,-z
98 -z,-x,-y
99 -y,-z,-x
100 1/4-y,3/4-x,z
101 3/4-y,x,1/4-z
102 y,1/4-x,3/4-z
103 1/4-x,3/4-z,y
104 x,1/4-z,3/4-y
105 3/4-x,z,1/4-y
106 1/4-z,3/4-y,x
107 3/4-z,y,1/4-x
108 z,1/4-y,3/4-x
109 -x,1/2-y,1/2-z
110 3/4+x,3/4+y,-z
111 -z,1/2-x,1/2-y
112 3/4+z,3/4+x,-y
113 -y,1/2-z,1/2-x
114 3/4+y,3/4+z,-x
115 3/4-y,1/2+x,3/4-z
116 y,3/4-x,1/4-z
117 x,3/4-z,1/4-y
118 3/4-x,1/2+z,3/4-y
119 3/4-z,1/2+y,3/4-x
120 z,3/4-y,1/4-x
121 1/2-x,-y,1/2-z
122 -x,3/4+y,3/4+z
123 1/2-z,-x,1/2-y
124 -z,3/4+x,3/4+y
125 1/2-y,-z,1/2-x
126 -y,3/4+z,3/4+x
127 3/4-y,3/4-x,1/2+z
128 1/4-y,x,3/4-z
129 3/4-x,3/4-z,1/2+y
130 1/4-x,z,3/4-y
131 3/4-z,3/4-y,1/2+x
132 1/4-z,y,3/4-x
133 1/2-x,1/2-y,-z
134 3/4+x,-y,3/4+z
135 1/2-z,1/2-x,-y
136 3/4+z,-x,3/4+y
137 1/2-y,1/2-z,-x
138 3/4+y,-z,3/4+x
139 3/4-y,1/4-x,z
140 1/2+y,3/4-x,3/4-z
141 3/4-x,1/4-z,y
142 1/2+x,3/4-z,3/4-y
143 3/4-z,1/4-y,x
144 1/2+z,3/4-y,3/4-x
145 3/4+x,1/4+y,1/2-z
146 1/4+x,1/2-y,3/4+z
147 1/2-x,3/4+y,1/4+z
148 1/2-z,3/4+x,1/4+y
149 3/4+z,1/4+x,1/2-y
150 1/4+z,1/2-x,3/4+y
151 1/4+y,1/2-z,3/4+x
152 1/2-y,3/4+z,1/4+x
153 3/4+y,1/4+z,1/2-x
154 1/2+y,1/2+x,1/2+z
155 1/2+x,1/2+z,1/2+y
156 1/2+z,1/2+y,1/2+x
157 1/4+x,-y,1/4+z
158 1/2-x,1/4+y,3/4+z
159 1/2-z,1/4+x,3/4+y
160 1/4+z,-x,1/4+y
161 1/4+y,-z,1/4+x
162 1/2-y,1/4+z,3/4+x
163 1/4-y,1/4-x,1/2+z
164 1/2+y,x,z
165 1/4-x,1/4-z,1/2+y
166 1/2+x,z,y
167 1/4-z,1/4-y,1/2+x
168 1/2+z,y,x
169 1/4+x,1/4+y,-z
170 3/4+x,1/2-y,1/4+z
171 1/4+z,1/4+x,-y
172 3/4+z,1/2-x,1/4+y
173 3/4+y,1/2-z,1/4+x
174 1/4+y,1/4+z,-x
175 y,1/2+x,z
176 1/2+y,1/4-x,1/4-z
177 1/2+x,1/4-z,1/4-y
178 x,1/2+z,y
179 1/2+z,1/4-y,1/4-x
180 z,1/2+y,x
181 1/4+x,3/4+y,1/2-z
182 -x,1/4+y,1/4+z
183 -z,1/4+x,1/4+y
184 1/4+z,3/4+x,1/2-y
185 -y,1/4+z,1/4+x
186 1/4+y,3/4+z,1/2-x
187 y,x,1/2+z
188 1/4-y,1/2+x,1/4-z
189 x,z,1/2+y
190 1/4-x,1/2+z,1/4-y
191 1/4-z,1/2+y,1/4-x
192 z,y,1/2+x
_cell_length_a                   28.9234(13)
_cell_length_b                   28.9234(13)
_cell_length_c                   28.9234(13)
_cell_angle_alpha                90
_cell_angle_beta                 90
_cell_angle_gamma                90
_cell_volume                     24196.2
loop_
_atom_site_label
_atom_site_type_symbol
_atom_site_fract_x
_atom_site_fract_y
_atom_site_fract_z
_atom_site_U_iso_or_equiv
_atom_site_thermal_displace_type
Na1 Na 0.3750 0.6250 0.1250 0.0585 Uani
C2 C 0.2168(2) 0.7168(2) 0.2168(2) 0.0350 Uani
N1 N 0.19575(15) 0.69966(15) 0.25388(17) 0.0457 Uani
H1 H 0.1710 0.7125 0.2642 0.0550 Uiso
H2 H 0.2069 0.6757 0.2675 0.0550 Uiso
N1N N 0.25388(17) 0.69575(15) 0.19966(15) 0.0457 Uani
H1N H 0.2642 0.6710 0.2125 0.0550 Uiso
H2N H 0.2675 0.7069 0.1757 0.0550 Uiso
N1NA N 0.19966(15) 0.75388(17) 0.19575(15) 0.0457 Uani
H1NA H 0.2125 0.7642 0.1710 0.0550 Uiso
H2NA H 0.1757 0.7675 0.2069 0.0550 Uiso
C3 C 0.2169(2) 0.5331(2) 0.2169(2) 0.0440 Uani
N2 N 0.25369(18) 0.55402(15) 0.19948(15) 0.0480 Uani
H3 H 0.2641 0.5789 0.2121 0.0570 Uiso
H4 H 0.2673 0.5428 0.1756 0.0570 Uiso
N2YB N 0.19598(15) 0.55052(15) 0.25369(18) 0.0480 Uani
H3YB H 0.1711 0.5379 0.2641 0.0570 Uiso
H4YB H 0.2072 0.5744 0.2673 0.0570 Uiso
N2HC N 0.19948(15) 0.49631(18) 0.19598(15) 0.0480 Uani
H3HC H 0.2121 0.4859 0.1711 0.0570 Uiso
H4HC H 0.1756 0.4827 0.2072 0.0570 Uiso
N3 N 0.1250 0.6250 0.1250 0.0450 Uani
C4 C 0.1768(7) 0.6250 0.1250 0.1390 Uiso
C4M C 0.0732(7) 0.6250 0.1250 0.1390 Uiso
C4N C 0.1250 0.6768(7) 0.1250 0.1390 Uiso
C4NA C 0.1250 0.6250 0.1768(7) 0.1390 Uiso
C4ZA C 0.1250 0.5732(7) 0.1250 0.1390 Uiso
C4BB C 0.1250 0.6250 0.0732(7) 0.1390 Uiso
O4 O 0.3022(6) 0.6250 0.1250 0.0853 Uani
Mg1 Mg 0.37412(5) 0.5000 0.12412(5) 0.0339 Uani
O1 O 0.37467(12) 0.49295(11) 0.04999(11) 0.0366 Uani
O2 O 0.37505(13) 0.55534(12) 0.00514(12) 0.0450 Uani
C1 C 0.3761(2) 0.53736(18) 0.04569(18) 0.0383 Uani
O3 O 0.37790(12) 0.56138(12) 0.08219(13) 0.0480 Uani
O1J O 0.29999(11) 0.50705(11) 0.12467(12) 0.0366 Uani
O2J O 0.25514(12) 0.44466(12) 0.12505(13) 0.0450 Uani
C1J C 0.29569(18) 0.46264(18) 0.1261(2) 0.0383 Uani
O3J O 0.33219(13) 0.43862(12) 0.12790(12) 0.0480 Uani
O1HD O 0.50705(11) 0.45001(11) 0.12533(12) 0.0366 Uani
O2HD O 0.44466(12) 0.49486(12) 0.12495(13) 0.0450 Uani
C1HD C 0.46264(18) 0.45431(18) 0.1239(2) 0.0383 Uani
O3HD O 0.43862(12) 0.41781(13) 0.12210(12) 0.0480 Uani
O1MD O 0.37533(12) 0.54999(11) 0.25705(11) 0.0366 Uani
O2MD O 0.37495(13) 0.50514(12) 0.19466(12) 0.0450 Uani
C1MD C 0.3739(2) 0.54569(18) 0.21264(18) 0.0383 Uani
O3MD O 0.37210(12) 0.58219(13) 0.18862(12) 0.0480 Uani
Mg1HD Mg 0.5000 0.37588(5) 0.12588(5) 0.0339 Uani
Mg1MD Mg 0.37588(5) 0.62412(5) 0.2500 0.0339 Uani
Mg1RD Mg 0.37588(5) 0.62588(5) 0.0000 0.0339 Uani
Mg1VC Mg 0.2500 0.37412(5) 0.12588(5) 0.0339 Uani
O1KD O 0.49295(11) 0.37533(12) 0.20001(11) 0.0366 Uani
O2KD O 0.55534(12) 0.37495(13) 0.24486(12) 0.0450 Uani
C1KD C 0.53736(18) 0.3739(2) 0.20431(18) 0.0383 Uani
O3KD O 0.56138(12) 0.37210(12) 0.16781(13) 0.0480 Uani
O1Z O 0.54999(11) 0.37467(12) -0.00705(11) 0.0366 Uani
O2Z O 0.50514(12) 0.37505(13) 0.05534(12) 0.0450 Uani
C1Z C 0.54569(18) 0.3761(2) 0.03736(18) 0.0383 Uani
O3Z O 0.58219(13) 0.37790(12) 0.06138(12) 0.0480 Uani
O1DC O 0.45001(11) 0.24295(11) 0.12467(12) 0.0366 Uani
O2DC O 0.49486(12) 0.30534(12) 0.12505(13) 0.0450 Uani
C1DC C 0.45431(18) 0.28736(18) 0.1261(2) 0.0383 Uani
O3DC O 0.41781(13) 0.31138(12) 0.12790(12) 0.0480 Uani
O1BF O 0.45001(11) 0.62467(12) 0.24295(11) 0.0366 Uani
O2BF O 0.49486(12) 0.62505(13) 0.30534(12) 0.0450 Uani
C1BF C 0.45431(18) 0.6261(2) 0.28736(18) 0.0383 Uani
O3BF O 0.41781(13) 0.62790(12) 0.31138(12) 0.0480 Uani
O1EA O 0.24295(11) 0.62533(12) 0.29999(11) 0.0366 Uani
O2EA O 0.30534(12) 0.62495(13) 0.25514(12) 0.0450 Uani
C1EA C 0.28736(18) 0.6239(2) 0.29569(18) 0.0383 Uani
O3EA O 0.31138(12) 0.62210(12) 0.33219(13) 0.0480 Uani
O1Y O 0.37467(12) 0.75705(11) 0.20001(11) 0.0366 Uani
O2Y O 0.37505(13) 0.69466(12) 0.24486(12) 0.0450 Uani
C1Y C 0.3761(2) 0.71264(18) 0.20431(18) 0.0383 Uani
O3Y O 0.37790(12) 0.68862(12) 0.16781(13) 0.0480 Uani
O1RD O 0.45001(11) 0.62533(12) 0.00705(11) 0.0366 Uani
O2RD O 0.49486(12) 0.62495(13) -0.05534(12) 0.0450 Uani
C1RD C 0.45431(18) 0.6239(2) -0.03736(18) 0.0383 Uani
O3RD O 0.41781(13) 0.62210(12) -0.06138(12) 0.0480 Uani
O1XD O 0.37533(12) 0.70001(11) -0.00705(11) 0.0366 Uani
O2XD O 0.37495(13) 0.74486(12) 0.05534(12) 0.0450 Uani
C1XD C 0.3739(2) 0.70431(18) 0.03736(18) 0.0383 Uani
O3XD O 0.37210(12) 0.66781(13) 0.06138(12) 0.0480 Uani
Mg1Z Mg 0.62412(5) 0.37412(5) 0.0000 0.0339 Uani
O2C O 0.30534(12) 0.62505(13) -0.00514(12) 0.0450 Uani
O1VE O 0.24295(11) 0.29999(11) 0.12533(12) 0.0366 Uani
O1VC O 0.25705(11) 0.37467(12) 0.20001(11) 0.0366 Uani
O2ZA O 0.24486(12) 0.37495(13) 0.05534(12) 0.0450 Uani
O3VE O 0.31138(12) 0.33219(13) 0.12210(12) 0.0480 Uani
O3VC O 0.18862(12) 0.37790(12) 0.16781(13) 0.0480 Uani
Mg1T Mg 0.62588(5) 0.37412(5) 0.2500 0.0339 Uani
Mg1TB Mg 0.37588(5) 0.2500 0.12412(5) 0.0339 Uani
Mg1JC Mg 0.5000 0.62588(5) 0.37588(5) 0.0339 Uani
Mg1EA Mg 0.2500 0.62588(5) 0.37412(5) 0.0339 Uani
Mg1Y Mg 0.37412(5) 0.7500 0.12588(5) 0.0339 Uani
Mg1P Mg 0.5000 0.62412(5) -0.12588(5) 0.0339 Uani
O1FA O 0.62467(12) 0.29999(11) 0.00705(11) 0.0366 Uani
O2RC O 0.62495(13) 0.44466(12) -0.00514(12) 0.0450 Uani
O2UC O 0.69466(12) 0.37495(13) 0.00514(12) 0.0450 Uani
O3FA O 0.62790(12) 0.33219(13) -0.06138(12) 0.0480 Uani
loop_
_atom_site_aniso_label
_atom_site_aniso_U_11
_atom_site_aniso_U_22
_atom_site_aniso_U_33
_atom_site_aniso_U_23
_atom_site_aniso_U_13
_atom_site_aniso_U_12
Na1 0.104(4) 0.0357(15) 0.0357(15) 0.000 0.000 0.000
C2 0.035(3) 0.035(3) 0.035(3) -0.002(3) -0.002(3) -0.002(3)
N1 0.041(3) 0.045(3) 0.051(4) 0.009(3) 0.005(3) 0.002(3)
N1N 0.051 0.041 0.045 0.002 0.009 0.005
N1NA 0.045 0.051 0.041 0.005 0.002 0.009
C3 0.044(4) 0.044(4) 0.044(4) 0.007(4) -0.007(4) 0.007(4)
N2 0.055(4) 0.047(3) 0.042(3) -0.003(3) 0.008(3) -0.005(3)
N2YB 0.047 0.042 0.055 -0.008 0.005 -0.003
N2HC 0.042 0.055 0.047 -0.005 0.003 -0.008
N3 0.045(4) 0.045(4) 0.045(4) 0.000 0.000 0.000
O4 0.14(2) 0.048(11) 0.068(13) -0.004(14) 0.000 0.000
Mg1 0.0346(9) 0.0324(13) 0.0346(9) 0.0027(7) 0.0042(19) -0.0027(7)
O1 0.0377(19) 0.037(2) 0.035(2) -0.0009(15) 0.0018(19) -0.0046(19)
O2 0.044(2) 0.047(2) 0.044(2) 0.0127(17) -0.008(2) -0.002(2)
C1 0.023(3) 0.042(3) 0.050(3) 0.004(3) 0.000(4) 0.005(3)
O3 0.061(3) 0.035(2) 0.048(2) -0.0111(17) 0.001(2) -0.005(2)
O1J 0.035 0.037 0.0377 0.0046 0.0018 0.0009
O2J 0.044 0.047 0.044 0.002 -0.008 -0.0127
C1J 0.05 0.042 0.023 -0.005 0 -0.004
O3J 0.048 0.035 0.061 0.005 0.001 0.0111
O1HD 0.037 0.035 0.0377 0.0018 -0.0046 -0.0009
O2HD 0.047 0.044 0.044 -0.008 -0.002 0.0127
C1HD 0.042 0.05 0.023 0 0.005 0.004
O3HD 0.035 0.048 0.061 0.001 -0.005 -0.0111
O1MD 0.0377 0.035 0.037 0.0009 -0.0046 -0.0018
O2MD 0.044 0.044 0.047 -0.0127 -0.002 0.008
C1MD 0.023 0.05 0.042 -0.004 0.005 0
O3MD 0.061 0.048 0.035 0.0111 -0.005 -0.001
Mg1HD 0.0324 0.0346 0.0346 0.0042 -0.0027 0.0027
Mg1MD 0.0346 0.0346 0.0324 -0.0027 -0.0027 -0.0042
Mg1RD 0.0346 0.0346 0.0324 -0.0027 0.0027 0.0042
Mg1VC 0.0324 0.0346 0.0346 -0.0042 0.0027 0.0027
O1KD 0.037 0.0377 0.035 0.0018 0.0009 0.0046
O2KD 0.047 0.044 0.044 -0.008 -0.0127 0.002
C1KD 0.042 0.023 0.05 0 -0.004 -0.005
O3KD 0.035 0.061 0.048 0.001 0.0111 0.005
O1Z 0.035 0.0377 0.037 -0.0046 -0.0009 0.0018
O2Z 0.044 0.044 0.047 -0.002 0.0127 -0.008
C1Z 0.05 0.023 0.042 0.005 0.004 0
O3Z 0.048 0.061 0.035 -0.005 -0.0111 0.001
O1DC 0.035 0.037 0.0377 -0.0046 -0.0018 0.0009
O2DC 0.044 0.047 0.044 -0.002 0.008 -0.0127
C1DC 0.05 0.042 0.023 0.005 0 -0.004
O3DC 0.048 0.035 0.061 -0.005 -0.001 0.0111
O1BF 0.035 0.0377 0.037 -0.0046 0.0009 -0.0018
O2BF 0.044 0.044 0.047 -0.002 -0.0127 0.008
C1BF 0.05 0.023 0.042 0.005 -0.004 0
O3BF 0.048 0.061 0.035 -0.005 0.0111 -0.001
O1EA 0.037 0.0377 0.035 -0.0018 -0.0009 0.0046
O2EA 0.047 0.044 0.044 0.008 0.0127 0.002
C1EA 0.042 0.023 0.05 0 0.004 -0.005
O3EA 0.035 0.061 0.048 -0.001 -0.0111 0.005
O1Y 0.0377 0.037 0.035 -0.0009 -0.0018 0.0046
O2Y 0.044 0.047 0.044 0.0127 0.008 0.002
C1Y 0.023 0.042 0.05 0.004 0 -0.005
O3Y 0.061 0.035 0.048 -0.0111 -0.001 0.005
O1RD 0.035 0.0377 0.037 -0.0046 -0.0009 0.0018
O2RD 0.044 0.044 0.047 -0.002 0.0127 -0.008
C1RD 0.05 0.023 0.042 0.005 0.004 0
O3RD 0.048 0.061 0.035 -0.005 -0.0111 0.001
O1XD 0.0377 0.035 0.037 0.0009 0.0046 0.0018
O2XD 0.044 0.044 0.047 -0.0127 0.002 -0.008
C1XD 0.023 0.05 0.042 -0.004 -0.005 0
O3XD 0.061 0.048 0.035 0.0111 0.005 0.001
Mg1Z 0.0346 0.0346 0.0324 -0.0027 0.0027 0.0042
O2C 0.047 0.044 0.044 0.008 -0.0127 -0.002
O1VE 0.037 0.035 0.0377 -0.0018 0.0046 -0.0009
O1VC 0.037 0.0377 0.035 -0.0018 -0.0009 0.0046
O2ZA 0.044 0.044 0.047 0.002 -0.0127 -0.008
O3VE 0.035 0.048 0.061 -0.001 0.005 -0.0111
O3VC 0.035 0.061 0.048 -0.001 -0.0111 0.005
Mg1T 0.0346 0.0346 0.0324 0.0027 0.0027 -0.0042
Mg1TB 0.0346 0.0324 0.0346 -0.0027 -0.0042 -0.0027
Mg1JC 0.0324 0.0346 0.0346 0.0042 0.0027 -0.0027
Mg1EA 0.0324 0.0346 0.0346 -0.0042 0.0027 0.0027
Mg1Y 0.0346 0.0324 0.0346 0.0027 -0.0042 0.0027
Mg1P 0.0324 0.0346 0.0346 0.0042 -0.0027 0.0027
O1FA 0.0377 0.035 0.037 0.0009 0.0046 0.0018
O2RC 0.044 0.047 0.044 0.0127 -0.008 -0.002
O2UC 0.047 0.044 0.044 0.008 -0.0127 -0.002
O3FA 0.061 0.048 0.035 0.0111 0.005 0.001
loop_
_geom_bond_atom_site_label_1
_geom_bond_atom_site_label_2
_geom_bond_site_symmetry_1
_geom_bond_site_symmetry_2
Mg1 O1 1_555 1_555
O1 C1 1_555 1_555
O2 C1 1_555 1_555
C1 O3 1_555 1_555
O3 Mg1 1_555 1_555
C2 N1 1_555 1_555
N1 H1 1_555 1_555
H2 N1 1_555 1_555
C3 N2 1_555 1_555
N2 H3 1_555 1_555
H4 N2 1_555 1_555
N3 C4 1_555 1_555
O1J Mg1 1_555 1_555
O2J C1J 1_555 1_555
C1J O1J 1_555 1_555
O3J Mg1 1_555 1_555
O1HD C1HD 1_555 1_555
O2HD Mg1 1_555 1_555
C1HD O2HD 1_555 1_555
O3HD C1HD 1_555 1_555
O1MD C1MD 1_555 1_555
O2MD Mg1 1_555 1_555
C1MD O2MD 1_555 1_555
O3MD C1MD 1_555 1_555
Mg1HD O1HD 1_555 1_555
Mg1MD O1MD 1_555 1_555
Mg1RD O2 1_555 1_555
Mg1VC O2J 1_555 1_555
O1KD Mg1HD 1_555 1_555
O2KD C1KD 1_555 1_555
C1KD O1KD 1_555 1_555
O3KD Mg1HD 1_555 1_555
O1Z C1Z 1_555 1_555
O2Z Mg1HD 1_555 1_555
C1Z O2Z 1_555 1_555
O3Z C1Z 1_555 1_555
O1DC C1DC 1_555 1_555
O2DC Mg1HD 1_555 1_555
C1DC O2DC 1_555 1_555
O3DC C1DC 1_555 1_555
O1BF Mg1MD 1_555 1_555
O2BF C1BF 1_555 1_555
C1BF O1BF 1_555 1_555
O3BF Mg1MD 1_555 1_555
O1EA C1EA 1_555 1_555
O2EA Mg1MD 1_555 1_555
C1EA O2EA 1_555 1_555
O3EA C1EA 1_555 1_555
O1Y C1Y 1_555 1_555
O2Y Mg1MD 1_555 1_555
C1Y O2Y 1_555 1_555
O3Y C1Y 1_555 1_555
O1RD Mg1RD 1_555 1_555
O2RD C1RD 1_555 1_555
C1RD O1RD 1_555 1_555
O3RD Mg1RD 1_555 1_555
O1XD Mg1RD 1_555 1_555
O2XD C1XD 1_555 1_555
C1XD O1XD 1_555 1_555
O3XD Mg1RD 1_555 1_555
Mg1Z O1Z 1_555 1_555
O2C Mg1RD 1_555 1_555
O1VE Mg1VC 1_555 1_555
O1VC Mg1VC 1_555 1_555
O2ZA Mg1VC 1_555 1_555
O3VE Mg1VC 1_555 1_555
O3VC Mg1VC 1_555 1_555
Mg1T O2KD 1_555 1_555
Mg1TB O1DC 1_555 1_555
Mg1JC O2BF 1_555 1_555
Mg1EA O1EA 1_555 1_555
Mg1Y O1Y 1_555 1_555
Mg1P O2RD 1_555 1_555
O1FA Mg1Z 1_555 1_555
O2RC Mg1Z 1_555 1_555
O2UC Mg1Z 1_555 1_555
O3FA Mg1Z 1_555 1_555
N1N C2 1_555 1_555
H1N N1N 1_555 1_555
H2N N1N 1_555 1_555
N1NA C2 1_555 1_555
H1NA N1NA 1_555 1_555
H2NA N1NA 1_555 1_555
N2YB C3 1_555 1_555
H3YB N2YB 1_555 1_555
H4YB N2YB 1_555 1_555
N2HC C3 1_555 1_555
H3HC N2HC 1_555 1_555
H4HC N2HC 1_555 1_555
C4M N3 1_555 1_555
C4N N3 1_555 1_555
C4NA N3 1_555 1_555
C4ZA N3 1_555 1_555
C4BB N3 1_555 1_555
C1J O3J 1_555 1_555
O3HD Mg1HD 1_555 1_555
O3MD Mg1MD 1_555 1_555
C1KD O3KD 1_555 1_555
O3Z Mg1Z 1_555 1_555
O3DC Mg1TB 1_555 1_555
C1BF O3BF 1_555 1_555
O3EA Mg1EA 1_555 1_555
O3Y Mg1Y 1_555 1_555
C1RD O3RD 1_555 1_555
O2XD Mg1Y 1_555 1_555
C1XD O3XD 1_555 1_555

#END
