
#######################################################################
#
#                 Cambridge Crystallographic Data Centre
#                                CCDC 
#
#######################################################################
#
# If this CIF has been generated from an entry in the Cambridge 
# Structural Database, then it will include bibliographic, chemical, 
# crystal, experimental, refinement or atomic coordinate data resulting 
# from the CCDC's data processing and validation procedures.
#
#######################################################################

data_IWAYUA
_chemical_formula_moiety         'C20 H14 N7 Na1 Ni12 O47 3+'
_symmetry_cell_setting           cubic
_symmetry_space_group_name_H-M   'F d -3 c'
_symmetry_Int_Tables_number      228
_space_group_name_Hall           '-F 4ud 2vw 3'
loop_
_symmetry_equiv_pos_site_id
_symmetry_equiv_pos_as_xyz
1 x,y,z
2 z,x,y
3 y,z,x
4 3/4+y,1/4+x,-z
5 1/4+y,-x,3/4+z
6 -y,3/4+x,1/4+z
7 3/4+x,1/4+z,-y
8 -x,3/4+z,1/4+y
9 1/4+x,-z,3/4+y
10 3/4+z,1/4+y,-x
11 1/4+z,-y,3/4+x
12 -z,3/4+y,1/4+x
13 x,1/2+y,1/2+z
14 1/4-x,1/4-y,z
15 z,1/2+x,1/2+y
16 1/4-z,1/4-x,y
17 y,1/2+z,1/2+x
18 1/4-y,1/4-z,x
19 1/4+y,1/2-x,1/4+z
20 -y,1/4+x,3/4+z
21 -x,1/4+z,3/4+y
22 1/4+x,1/2-z,1/4+y
23 1/4+z,1/2-y,1/4+x
24 -z,1/4+y,3/4+x
25 1/2+x,y,1/2+z
26 x,1/4-y,1/4-z
27 1/2+z,x,1/2+y
28 z,1/4-x,1/4-y
29 1/2+y,z,1/2+x
30 y,1/4-z,1/4-x
31 1/4+y,1/4+x,1/2-z
32 3/4+y,-x,1/4+z
33 1/4+x,1/4+z,1/2-y
34 3/4+x,-z,1/4+y
35 1/4+z,1/4+y,1/2-x
36 3/4+z,-y,1/4+x
37 1/2+x,1/2+y,z
38 1/4-x,y,1/4-z
39 1/2+z,1/2+x,y
40 1/4-z,x,1/4-y
41 1/2+y,1/2+z,x
42 1/4-y,z,1/4-x
43 1/4+y,3/4+x,-z
44 1/2-y,1/4+x,1/4+z
45 1/4+x,3/4+z,-y
46 1/2-x,1/4+z,1/4+y
47 1/4+z,3/4+y,-x
48 1/2-z,1/4+y,1/4+x
49 1/4-x,3/4-y,1/2+z
50 3/4-x,1/2+y,1/4-z
51 1/2+x,1/4-y,3/4-z
52 1/2+z,1/4-x,3/4-y
53 1/4-z,3/4-x,1/2+y
54 3/4-z,1/2+x,1/4-y
55 3/4-y,1/2+z,1/4-x
56 1/2+y,1/4-z,3/4-x
57 1/4-y,3/4-z,1/2+x
58 1/2-y,1/2-x,1/2-z
59 1/2-x,1/2-z,1/2-y
60 1/2-z,1/2-y,1/2-x
61 3/4-x,y,3/4-z
62 1/2+x,3/4-y,1/4-z
63 1/2+z,3/4-x,1/4-y
64 3/4-z,x,3/4-y
65 3/4-y,z,3/4-x
66 1/2+y,3/4-z,1/4-x
67 3/4+y,3/4+x,1/2-z
68 1/2-y,-x,-z
69 3/4+x,3/4+z,1/2-y
70 1/2-x,-z,-y
71 3/4+z,3/4+y,1/2-x
72 1/2-z,-y,-x
73 3/4-x,3/4-y,z
74 1/4-x,1/2+y,3/4-z
75 3/4-z,3/4-x,y
76 1/4-z,1/2+x,3/4-y
77 1/4-y,1/2+z,3/4-x
78 3/4-y,3/4-z,x
79 -y,1/2-x,-z
80 1/2-y,3/4+x,3/4+z
81 1/2-x,3/4+z,3/4+y
82 -x,1/2-z,-y
83 1/2-z,3/4+y,3/4+x
84 -z,1/2-y,-x
85 3/4-x,1/4-y,1/2+z
86 x,3/4-y,3/4-z
87 z,3/4-x,3/4-y
88 3/4-z,1/4-x,1/2+y
89 y,3/4-z,3/4-x
90 3/4-y,1/4-z,1/2+x
91 -y,-x,1/2-z
92 3/4+y,1/2-x,3/4+z
93 -x,-z,1/2-y
94 3/4+x,1/2-z,3/4+y
95 3/4+z,1/2-y,3/4+x
96 -z,-y,1/2-x
97 -x,-y,-z
98 -z,-x,-y
99 -y,-z,-x
100 1/4-y,3/4-x,z
101 3/4-y,x,1/4-z
102 y,1/4-x,3/4-z
103 1/4-x,3/4-z,y
104 x,1/4-z,3/4-y
105 3/4-x,z,1/4-y
106 1/4-z,3/4-y,x
107 3/4-z,y,1/4-x
108 z,1/4-y,3/4-x
109 -x,1/2-y,1/2-z
110 3/4+x,3/4+y,-z
111 -z,1/2-x,1/2-y
112 3/4+z,3/4+x,-y
113 -y,1/2-z,1/2-x
114 3/4+y,3/4+z,-x
115 3/4-y,1/2+x,3/4-z
116 y,3/4-x,1/4-z
117 x,3/4-z,1/4-y
118 3/4-x,1/2+z,3/4-y
119 3/4-z,1/2+y,3/4-x
120 z,3/4-y,1/4-x
121 1/2-x,-y,1/2-z
122 -x,3/4+y,3/4+z
123 1/2-z,-x,1/2-y
124 -z,3/4+x,3/4+y
125 1/2-y,-z,1/2-x
126 -y,3/4+z,3/4+x
127 3/4-y,3/4-x,1/2+z
128 1/4-y,x,3/4-z
129 3/4-x,3/4-z,1/2+y
130 1/4-x,z,3/4-y
131 3/4-z,3/4-y,1/2+x
132 1/4-z,y,3/4-x
133 1/2-x,1/2-y,-z
134 3/4+x,-y,3/4+z
135 1/2-z,1/2-x,-y
136 3/4+z,-x,3/4+y
137 1/2-y,1/2-z,-x
138 3/4+y,-z,3/4+x
139 3/4-y,1/4-x,z
140 1/2+y,3/4-x,3/4-z
141 3/4-x,1/4-z,y
142 1/2+x,3/4-z,3/4-y
143 3/4-z,1/4-y,x
144 1/2+z,3/4-y,3/4-x
145 3/4+x,1/4+y,1/2-z
146 1/4+x,1/2-y,3/4+z
147 1/2-x,3/4+y,1/4+z
148 1/2-z,3/4+x,1/4+y
149 3/4+z,1/4+x,1/2-y
150 1/4+z,1/2-x,3/4+y
151 1/4+y,1/2-z,3/4+x
152 1/2-y,3/4+z,1/4+x
153 3/4+y,1/4+z,1/2-x
154 1/2+y,1/2+x,1/2+z
155 1/2+x,1/2+z,1/2+y
156 1/2+z,1/2+y,1/2+x
157 1/4+x,-y,1/4+z
158 1/2-x,1/4+y,3/4+z
159 1/2-z,1/4+x,3/4+y
160 1/4+z,-x,1/4+y
161 1/4+y,-z,1/4+x
162 1/2-y,1/4+z,3/4+x
163 1/4-y,1/4-x,1/2+z
164 1/2+y,x,z
165 1/4-x,1/4-z,1/2+y
166 1/2+x,z,y
167 1/4-z,1/4-y,1/2+x
168 1/2+z,y,x
169 1/4+x,1/4+y,-z
170 3/4+x,1/2-y,1/4+z
171 1/4+z,1/4+x,-y
172 3/4+z,1/2-x,1/4+y
173 3/4+y,1/2-z,1/4+x
174 1/4+y,1/4+z,-x
175 y,1/2+x,z
176 1/2+y,1/4-x,1/4-z
177 1/2+x,1/4-z,1/4-y
178 x,1/2+z,y
179 1/2+z,1/4-y,1/4-x
180 z,1/2+y,x
181 1/4+x,3/4+y,1/2-z
182 -x,1/4+y,1/4+z
183 -z,1/4+x,1/4+y
184 1/4+z,3/4+x,1/2-y
185 -y,1/4+z,1/4+x
186 1/4+y,3/4+z,1/2-x
187 y,x,1/2+z
188 1/4-y,1/2+x,1/4-z
189 x,z,1/2+y
190 1/4-x,1/2+z,1/4-y
191 1/4-z,1/2+y,1/4-x
192 z,y,1/2+x
_cell_length_a                   28.7780(11)
_cell_length_b                   28.7780(11)
_cell_length_c                   28.7780(11)
_cell_angle_alpha                90
_cell_angle_beta                 90
_cell_angle_gamma                90
_cell_volume                     23833.2
loop_
_atom_site_label
_atom_site_type_symbol
_atom_site_fract_x
_atom_site_fract_y
_atom_site_fract_z
_atom_site_U_iso_or_equiv
_atom_site_thermal_displace_type
Ni1 Ni 0.37308(2) 0.5000 0.12308(2) 0.0176 Uani
O2 O 0.30026(13) 0.50741(12) 0.12343(12) 0.0203 Uani
C1 C 0.29665(19) 0.46250(18) 0.12748(18) 0.0193 Uani
O3 O 0.25648(12) 0.44325(13) 0.12559(13) 0.0230 Uani
O4 O 0.33391(13) 0.43927(13) 0.13185(13) 0.0242 Uani
O2J O 0.37343(12) 0.49259(12) 0.05026(13) 0.0203 Uani
C1J C 0.37748(18) 0.53750(18) 0.04665(19) 0.0193 Uani
O3J O 0.37559(13) 0.55675(13) 0.00648(12) 0.0230 Uani
O4J O 0.38185(13) 0.56073(13) 0.08391(13) 0.0242 Uani
O2BF O 0.37657(12) 0.55026(13) 0.25741(12) 0.0203 Uani
C1BF C 0.37252(18) 0.54665(19) 0.21250(18) 0.0193 Uani
O3BF O 0.37441(13) 0.50648(12) 0.19325(13) 0.0230 Uani
O4BF O 0.36815(13) 0.58391(13) 0.18927(13) 0.0242 Uani
O2KD O 0.50741(12) 0.44974(13) 0.12657(12) 0.0203 Uani
C1KD C 0.46250(18) 0.45335(19) 0.12252(18) 0.0193 Uani
O3KD O 0.44325(13) 0.49352(12) 0.12441(13) 0.0230 Uani
O4KD O 0.43927(13) 0.41609(13) 0.11815(13) 0.0242 Uani
Ni1BF Ni 0.37692(2) 0.62308(2) 0.2500 0.0176 Uani
Ni1KD Ni 0.5000 0.37692(2) 0.12692(2) 0.0176 Uani
Ni1VE Ni 0.2500 0.37308(2) 0.12692(2) 0.0176 Uani
Ni1XD Ni 0.37692(2) 0.62692(2) 0.0000 0.0176 Uani
O2MD O 0.44974(13) 0.62343(12) 0.24259(12) 0.0203 Uani
C1MD C 0.45335(19) 0.62748(18) 0.28750(18) 0.0193 Uani
O3MD O 0.49352(12) 0.62559(13) 0.30675(13) 0.0230 Uani
O4MD O 0.41609(13) 0.63185(13) 0.31073(13) 0.0242 Uani
O2YB O 0.24259(12) 0.62657(12) 0.30026(13) 0.0203 Uani
C1YB C 0.28750(18) 0.62252(18) 0.29665(19) 0.0193 Uani
O3YB O 0.30675(13) 0.62441(13) 0.25648(12) 0.0230 Uani
O4YB O 0.31073(13) 0.61815(13) 0.33391(13) 0.0242 Uani
O2HA O 0.37343(12) 0.75741(12) 0.19974(13) 0.0203 Uani
C1HA C 0.37748(18) 0.71250(18) 0.20335(19) 0.0193 Uani
O3HA O 0.37559(13) 0.69325(13) 0.24352(12) 0.0230 Uani
O4HA O 0.38185(13) 0.68927(13) 0.16609(13) 0.0242 Uani
O2HD O 0.49259(12) 0.37657(12) 0.19974(13) 0.0203 Uani
C1HD C 0.53750(18) 0.37252(18) 0.20335(19) 0.0193 Uani
O3HD O 0.55675(13) 0.37441(13) 0.24352(12) 0.0230 Uani
O4HD O 0.56073(13) 0.36815(13) 0.16609(13) 0.0242 Uani
O2FA O 0.55026(13) 0.37343(12) -0.00741(12) 0.0203 Uani
C1FA C 0.54665(19) 0.37748(18) 0.03750(18) 0.0193 Uani
O3FA O 0.50648(12) 0.37559(13) 0.05675(13) 0.0230 Uani
O4FA O 0.58391(13) 0.38185(13) 0.06073(13) 0.0242 Uani
O2TB O 0.44974(13) 0.24259(12) 0.12343(12) 0.0203 Uani
C1TB C 0.45335(19) 0.28750(18) 0.12748(18) 0.0193 Uani
O3TB O 0.49352(12) 0.30675(13) 0.12559(13) 0.0230 Uani
O4TB O 0.41609(13) 0.31073(13) 0.13185(13) 0.0242 Uani
O2VE O 0.25741(12) 0.37343(12) 0.19974(13) 0.0203 Uani
C1VE C 0.21250(18) 0.37748(18) 0.20335(19) 0.0193 Uani
O3VE O 0.19325(13) 0.37559(13) 0.24352(12) 0.0230 Uani
O4VE O 0.18927(13) 0.38185(13) 0.16609(13) 0.0242 Uani
O2VC O 0.24259(12) 0.30026(13) 0.12657(12) 0.0203 Uani
C1VC C 0.28750(18) 0.29665(19) 0.12252(18) 0.0193 Uani
O3VC O 0.30675(13) 0.25648(12) 0.12441(13) 0.0230 Uani
O4VC O 0.31073(13) 0.33391(13) 0.11815(13) 0.0242 Uani
Ni1YB Ni 0.2500 0.62692(2) 0.37308(2) 0.0176 Uani
O3FB O 0.24352(12) 0.37441(13) 0.05675(13) 0.0230 Uani
O2RD O 0.37657(12) 0.69974(13) -0.00741(12) 0.0203 Uani
O2XD O 0.44974(13) 0.62657(12) 0.00741(12) 0.0203 Uani
O3BB O 0.30675(13) 0.62559(13) -0.00648(12) 0.0230 Uani
O4RD O 0.36815(13) 0.66609(13) 0.06073(13) 0.0242 Uani
O4XD O 0.41609(13) 0.61815(13) -0.06073(13) 0.0242 Uani
Ni1JC Ni 0.5000 0.62692(2) 0.37692(2) 0.0176 Uani
Ni1Y Ni 0.37308(2) 0.7500 0.12692(2) 0.0176 Uani
Ni1T Ni 0.62692(2) 0.37308(2) 0.2500 0.0176 Uani
Ni1Z Ni 0.62308(2) 0.37308(2) 0.0000 0.0176 Uani
Ni1TB Ni 0.37692(2) 0.2500 0.12308(2) 0.0176 Uani
Ni1HC Ni 0.12308(2) 0.37692(2) 0.2500 0.0176 Uani
O2EA O 0.25741(12) 0.69974(13) 0.37343(12) 0.0203 Uani
O3UF O 0.25648(12) 0.62559(13) 0.44325(13) 0.0230 Uani
O3PD O 0.24352(12) 0.55675(13) 0.37441(13) 0.0230 Uani
O4EA O 0.18927(13) 0.66609(13) 0.38185(13) 0.0242 Uani
Na1 Na 0.3750 0.3750 0.1250 0.0405 Uani
N1 N 0.45013(17) 0.44615(17) 0.00466(18) 0.0323 Uani
H1 H 0.4255 0.4568 0.0178 0.0390 Uiso
H2 H 0.4637 0.4219 0.0157 0.0390 Uiso
C2 C 0.4672(2) 0.4672(2) -0.0328(2) 0.0270 Uani
N1Z N 0.50466(18) 0.45013(17) -0.05385(17) 0.0323 Uani
H1Z H 0.5178 0.4255 -0.0432 0.0390 Uiso
H2Z H 0.5157 0.4637 -0.0781 0.0390 Uiso
N1P N 0.44615(17) 0.50466(18) -0.04987(17) 0.0323 Uani
H1P H 0.4568 0.5178 -0.0745 0.0390 Uiso
H2P H 0.4219 0.5157 -0.0363 0.0390 Uiso
N2 N 0.44556(17) 0.45100(18) 0.24515(18) 0.0337 Uani
H3 H 0.4208 0.4644 0.2353 0.0410 Uiso
H4 H 0.4562 0.4269 0.2310 0.0410 Uiso
C3 C 0.4675(2) 0.4675(2) 0.2825(2) 0.0270 Uani
N2JC N 0.45100(18) 0.50485(18) 0.30444(17) 0.0337 Uani
H3JC H 0.4644 0.5147 0.3292 0.0410 Uiso
H4JC H 0.4269 0.5190 0.2938 0.0410 Uiso
N2KB N 0.50485(18) 0.44556(17) 0.29900(18) 0.0337 Uani
H3KB H 0.5147 0.4208 0.2856 0.0410 Uiso
H4KB H 0.5190 0.4562 0.3231 0.0410 Uiso
N3 N 0.6250 0.6250 0.1250 0.0490 Uani
C4 C 0.568(3) 0.6250 0.1250 0.0430 Uiso
C4M C 0.682(3) 0.6250 0.1250 0.0430 Uiso
C4P C 0.6250 0.6250 0.068(3) 0.0430 Uiso
C4Z C 0.6250 0.568(3) 0.1250 0.0430 Uiso
C4YA C 0.6250 0.682(3) 0.1250 0.0430 Uiso
C4XB C 0.6250 0.6250 0.182(3) 0.0430 Uiso
O1 O 0.3750 0.3750 0.0462(15) 0.1250 Uiso
loop_
_atom_site_aniso_label
_atom_site_aniso_U_11
_atom_site_aniso_U_22
_atom_site_aniso_U_33
_atom_site_aniso_U_23
_atom_site_aniso_U_13
_atom_site_aniso_U_12
Ni1 0.0188(5) 0.0152(6) 0.0188(5) -0.0001(2) 0.0021(4) 0.0001(2)
O2 0.0201(19) 0.0149(19) 0.026(2) 0.0010(16) 0.0013(15) 0.0031(15)
C1 0.025(3) 0.019(3) 0.014(3) -0.007(2) -0.001(2) 0.001(2)
O3 0.0161(19) 0.021(2) 0.032(2) -0.0007(17) -0.0032(16) 0.0013(15)
O4 0.019(2) 0.0166(19) 0.037(2) 0.0027(17) -0.0002(17) 0.0021(15)
O2J 0.026 0.0149 0.0201 -0.0031 0.0013 -0.001
C1J 0.014 0.019 0.025 -0.001 -0.001 0.007
O3J 0.032 0.021 0.0161 -0.0013 -0.0032 0.0007
O4J 0.037 0.0166 0.019 -0.0021 -0.0002 -0.0027
O2BF 0.026 0.0201 0.0149 0.0031 -0.001 -0.0013
C1BF 0.014 0.025 0.019 0.001 0.007 0.001
O3BF 0.032 0.0161 0.021 0.0013 0.0007 0.0032
O4BF 0.037 0.019 0.0166 0.0021 -0.0027 0.0002
O2KD 0.0149 0.0201 0.026 0.0013 -0.001 -0.0031
C1KD 0.019 0.025 0.014 -0.001 0.007 -0.001
O3KD 0.021 0.0161 0.032 -0.0032 0.0007 -0.0013
O4KD 0.0166 0.019 0.037 -0.0002 -0.0027 -0.0021
Ni1BF 0.0188 0.0188 0.0152 0.0001 0.0001 -0.0021
Ni1KD 0.0152 0.0188 0.0188 0.0021 0.0001 -0.0001
Ni1VE 0.0152 0.0188 0.0188 -0.0021 -0.0001 -0.0001
Ni1XD 0.0188 0.0188 0.0152 0.0001 -0.0001 0.0021
O2MD 0.0201 0.026 0.0149 -0.001 0.0031 -0.0013
C1MD 0.025 0.014 0.019 0.007 0.001 0.001
O3MD 0.0161 0.032 0.021 0.0007 0.0013 0.0032
O4MD 0.019 0.037 0.0166 -0.0027 0.0021 0.0002
O2YB 0.0149 0.026 0.0201 -0.0013 -0.0031 0.001
C1YB 0.019 0.014 0.025 0.001 -0.001 -0.007
O3YB 0.021 0.032 0.0161 0.0032 -0.0013 -0.0007
O4YB 0.0166 0.037 0.019 0.0002 -0.0021 0.0027
O2HA 0.026 0.0149 0.0201 -0.0031 -0.0013 0.001
C1HA 0.014 0.019 0.025 -0.001 0.001 -0.007
O3HA 0.032 0.021 0.0161 -0.0013 0.0032 -0.0007
O4HA 0.037 0.0166 0.019 -0.0021 0.0002 0.0027
O2HD 0.0149 0.026 0.0201 0.0013 0.0031 0.001
C1HD 0.019 0.014 0.025 -0.001 0.001 -0.007
O3HD 0.021 0.032 0.0161 -0.0032 0.0013 -0.0007
O4HD 0.0166 0.037 0.019 -0.0002 0.0021 0.0027
O2FA 0.0201 0.026 0.0149 -0.001 -0.0031 0.0013
C1FA 0.025 0.014 0.019 0.007 -0.001 -0.001
O3FA 0.0161 0.032 0.021 0.0007 -0.0013 -0.0032
O4FA 0.019 0.037 0.0166 -0.0027 -0.0021 -0.0002
O2TB 0.0201 0.0149 0.026 -0.001 -0.0013 0.0031
C1TB 0.025 0.019 0.014 0.007 0.001 0.001
O3TB 0.0161 0.021 0.032 0.0007 0.0032 0.0013
O4TB 0.019 0.0166 0.037 -0.0027 0.0002 0.0021
O2VE 0.0149 0.026 0.0201 -0.0013 -0.0031 0.001
C1VE 0.019 0.014 0.025 0.001 -0.001 -0.007
O3VE 0.021 0.032 0.0161 0.0032 -0.0013 -0.0007
O4VE 0.0166 0.037 0.019 0.0002 -0.0021 0.0027
O2VC 0.0149 0.0201 0.026 -0.0013 0.001 -0.0031
C1VC 0.019 0.025 0.014 0.001 -0.007 -0.001
O3VC 0.021 0.0161 0.032 0.0032 -0.0007 -0.0013
O4VC 0.0166 0.019 0.037 0.0002 0.0027 -0.0021
Ni1YB 0.0152 0.0188 0.0188 -0.0021 -0.0001 -0.0001
O3FB 0.0161 0.032 0.021 -0.0007 0.0013 -0.0032
O2RD 0.026 0.0201 0.0149 0.0031 0.001 0.0013
O2XD 0.0201 0.026 0.0149 -0.001 -0.0031 0.0013
O3BB 0.021 0.032 0.0161 0.0032 0.0013 0.0007
O4RD 0.037 0.019 0.0166 0.0021 0.0027 -0.0002
O4XD 0.019 0.037 0.0166 -0.0027 -0.0021 -0.0002
Ni1JC 0.0152 0.0188 0.0188 0.0021 -0.0001 0.0001
Ni1Y 0.0188 0.0152 0.0188 -0.0001 -0.0021 -0.0001
Ni1T 0.0188 0.0188 0.0152 -0.0001 -0.0001 -0.0021
Ni1Z 0.0188 0.0188 0.0152 0.0001 -0.0001 0.0021
Ni1TB 0.0188 0.0152 0.0188 0.0001 -0.0021 0.0001
Ni1HC 0.0188 0.0188 0.0152 0.0001 0.0001 -0.0021
O2EA 0.0149 0.0201 0.026 -0.0013 0.001 -0.0031
O3UF 0.0161 0.032 0.021 -0.0007 0.0013 -0.0032
O3PD 0.0161 0.021 0.032 -0.0007 -0.0032 0.0013
O4EA 0.0166 0.019 0.037 0.0002 0.0027 -0.0021
Na1 0.0183(15) 0.0183(15) 0.085(4) 0.000 0.000 0.000
N1 0.030(3) 0.033(3) 0.034(3) 0.007(2) 0.007(2) 0.007(2)
C2 0.027(2) 0.027(2) 0.027(2) 0.001(3) 0.001(3) 0.001(3)
N1Z 0.034 0.03 0.033 0.007 0.007 0.007
N1P 0.033 0.034 0.03 0.007 0.007 0.007
N2 0.031(3) 0.038(3) 0.032(3) -0.009(2) -0.009(2) 0.008(2)
C3 0.027(2) 0.027(2) 0.027(2) 0.006(3) 0.006(3) -0.006(3)
N2JC 0.038 0.032 0.031 -0.009 -0.008 0.009
N2KB 0.032 0.031 0.038 -0.008 -0.009 0.009
N3 0.049(6) 0.049(6) 0.049(6) 0.000 0.000 0.000
loop_
_geom_bond_atom_site_label_1
_geom_bond_atom_site_label_2
_geom_bond_site_symmetry_1
_geom_bond_site_symmetry_2
Ni1 O2 1_555 1_555
O2 C1 1_555 1_555
C1 O3 1_555 1_555
O3 Ni1VE 1_555 1_555
O4 Ni1 1_555 1_555
N1 H1 1_555 1_555
H2 N1 1_555 1_555
C2 N1 1_555 1_555
N2 H3 1_555 1_555
H4 N2 1_555 1_555
C3 N2 1_555 1_555
N3 C4 1_555 1_555
O2J Ni1 1_555 1_555
C1J O2J 1_555 1_555
O3J C1J 1_555 1_555
O4J Ni1 1_555 1_555
O2BF C1BF 1_555 1_555
C1BF O3BF 1_555 1_555
O3BF Ni1 1_555 1_555
O4BF C1BF 1_555 1_555
O2KD C1KD 1_555 1_555
C1KD O3KD 1_555 1_555
O3KD Ni1 1_555 1_555
O4KD C1KD 1_555 1_555
Ni1BF O2BF 1_555 1_555
Ni1KD O2KD 1_555 1_555
Ni1VE O2VE 1_555 1_555
Ni1XD O3J 1_555 1_555
O2MD Ni1BF 1_555 1_555
C1MD O2MD 1_555 1_555
O3MD C1MD 1_555 1_555
O4MD Ni1BF 1_555 1_555
O2YB C1YB 1_555 1_555
C1YB O3YB 1_555 1_555
O3YB Ni1BF 1_555 1_555
O4YB C1YB 1_555 1_555
O2HA C1HA 1_555 1_555
C1HA O3HA 1_555 1_555
O3HA Ni1BF 1_555 1_555
O4HA C1HA 1_555 1_555
O2HD Ni1KD 1_555 1_555
C1HD O2HD 1_555 1_555
O3HD C1HD 1_555 1_555
O4HD Ni1KD 1_555 1_555
O2FA C1FA 1_555 1_555
C1FA O3FA 1_555 1_555
O3FA Ni1KD 1_555 1_555
O4FA C1FA 1_555 1_555
O2TB C1TB 1_555 1_555
C1TB O3TB 1_555 1_555
O3TB Ni1KD 1_555 1_555
O4TB C1TB 1_555 1_555
O2VE C1VE 1_555 1_555
C1VE O3VE 1_555 1_555
O3VE Ni1HC 1_555 1_555
O4VE Ni1VE 1_555 1_555
O2VC Ni1VE 1_555 1_555
C1VC O2VC 1_555 1_555
O3VC C1VC 1_555 1_555
O4VC Ni1VE 1_555 1_555
Ni1YB O2YB 1_555 1_555
O3FB Ni1VE 1_555 1_555
O2RD Ni1XD 1_555 1_555
O2XD Ni1XD 1_555 1_555
O3BB Ni1XD 1_555 1_555
O4RD Ni1XD 1_555 1_555
O4XD Ni1XD 1_555 1_555
Ni1JC O3MD 1_555 1_555
Ni1Y O2HA 1_555 1_555
Ni1T O3HD 1_555 1_555
Ni1Z O2FA 1_555 1_555
Ni1TB O2TB 1_555 1_555
O2EA Ni1YB 1_555 1_555
O3UF Ni1YB 1_555 1_555
O3PD Ni1YB 1_555 1_555
O4EA Ni1YB 1_555 1_555
N1Z C2 1_555 1_555
H1Z N1Z 1_555 1_555
H2Z N1Z 1_555 1_555
N1P C2 1_555 1_555
H1P N1P 1_555 1_555
H2P N1P 1_555 1_555
N2JC C3 1_555 1_555
H3JC N2JC 1_555 1_555
H4JC N2JC 1_555 1_555
N2KB C3 1_555 1_555
H3KB N2KB 1_555 1_555
H4KB N2KB 1_555 1_555
C4M N3 1_555 1_555
C4P N3 1_555 1_555
C4Z N3 1_555 1_555
C4YA N3 1_555 1_555
C4XB N3 1_555 1_555
C1 O4 1_555 1_555
C1J O4J 1_555 1_555
O4BF Ni1BF 1_555 1_555
O4KD Ni1KD 1_555 1_555
C1MD O4MD 1_555 1_555
O4YB Ni1YB 1_555 1_555
O4HA Ni1Y 1_555 1_555
C1HD O4HD 1_555 1_555
O4FA Ni1Z 1_555 1_555
O4TB Ni1TB 1_555 1_555
C1VE O4VE 1_555 1_555
C1VC O4VC 1_555 1_555
O3VC Ni1TB 1_555 1_555

#END
