
#######################################################################
#
#                 Cambridge Crystallographic Data Centre
#                                CCDC 
#
#######################################################################
#
# If this CIF has been generated from an entry in the Cambridge 
# Structural Database, then it will include bibliographic, chemical, 
# crystal, experimental, refinement or atomic coordinate data resulting 
# from the CCDC's data processing and validation procedures.
#
#######################################################################

data_IWAYIO
_chemical_formula_moiety         'C20 H14 Fe12 N7 Na1 O47 3+'
_symmetry_cell_setting           cubic
_symmetry_space_group_name_H-M   'F d -3 c'
_symmetry_Int_Tables_number      228
_space_group_name_Hall           '-F 4ud 2vw 3'
loop_
_symmetry_equiv_pos_site_id
_symmetry_equiv_pos_as_xyz
1 x,y,z
2 z,x,y
3 y,z,x
4 3/4+y,1/4+x,-z
5 1/4+y,-x,3/4+z
6 -y,3/4+x,1/4+z
7 3/4+x,1/4+z,-y
8 -x,3/4+z,1/4+y
9 1/4+x,-z,3/4+y
10 3/4+z,1/4+y,-x
11 1/4+z,-y,3/4+x
12 -z,3/4+y,1/4+x
13 x,1/2+y,1/2+z
14 1/4-x,1/4-y,z
15 z,1/2+x,1/2+y
16 1/4-z,1/4-x,y
17 y,1/2+z,1/2+x
18 1/4-y,1/4-z,x
19 1/4+y,1/2-x,1/4+z
20 -y,1/4+x,3/4+z
21 -x,1/4+z,3/4+y
22 1/4+x,1/2-z,1/4+y
23 1/4+z,1/2-y,1/4+x
24 -z,1/4+y,3/4+x
25 1/2+x,y,1/2+z
26 x,1/4-y,1/4-z
27 1/2+z,x,1/2+y
28 z,1/4-x,1/4-y
29 1/2+y,z,1/2+x
30 y,1/4-z,1/4-x
31 1/4+y,1/4+x,1/2-z
32 3/4+y,-x,1/4+z
33 1/4+x,1/4+z,1/2-y
34 3/4+x,-z,1/4+y
35 1/4+z,1/4+y,1/2-x
36 3/4+z,-y,1/4+x
37 1/2+x,1/2+y,z
38 1/4-x,y,1/4-z
39 1/2+z,1/2+x,y
40 1/4-z,x,1/4-y
41 1/2+y,1/2+z,x
42 1/4-y,z,1/4-x
43 1/4+y,3/4+x,-z
44 1/2-y,1/4+x,1/4+z
45 1/4+x,3/4+z,-y
46 1/2-x,1/4+z,1/4+y
47 1/4+z,3/4+y,-x
48 1/2-z,1/4+y,1/4+x
49 1/4-x,3/4-y,1/2+z
50 3/4-x,1/2+y,1/4-z
51 1/2+x,1/4-y,3/4-z
52 1/2+z,1/4-x,3/4-y
53 1/4-z,3/4-x,1/2+y
54 3/4-z,1/2+x,1/4-y
55 3/4-y,1/2+z,1/4-x
56 1/2+y,1/4-z,3/4-x
57 1/4-y,3/4-z,1/2+x
58 1/2-y,1/2-x,1/2-z
59 1/2-x,1/2-z,1/2-y
60 1/2-z,1/2-y,1/2-x
61 3/4-x,y,3/4-z
62 1/2+x,3/4-y,1/4-z
63 1/2+z,3/4-x,1/4-y
64 3/4-z,x,3/4-y
65 3/4-y,z,3/4-x
66 1/2+y,3/4-z,1/4-x
67 3/4+y,3/4+x,1/2-z
68 1/2-y,-x,-z
69 3/4+x,3/4+z,1/2-y
70 1/2-x,-z,-y
71 3/4+z,3/4+y,1/2-x
72 1/2-z,-y,-x
73 3/4-x,3/4-y,z
74 1/4-x,1/2+y,3/4-z
75 3/4-z,3/4-x,y
76 1/4-z,1/2+x,3/4-y
77 1/4-y,1/2+z,3/4-x
78 3/4-y,3/4-z,x
79 -y,1/2-x,-z
80 1/2-y,3/4+x,3/4+z
81 1/2-x,3/4+z,3/4+y
82 -x,1/2-z,-y
83 1/2-z,3/4+y,3/4+x
84 -z,1/2-y,-x
85 3/4-x,1/4-y,1/2+z
86 x,3/4-y,3/4-z
87 z,3/4-x,3/4-y
88 3/4-z,1/4-x,1/2+y
89 y,3/4-z,3/4-x
90 3/4-y,1/4-z,1/2+x
91 -y,-x,1/2-z
92 3/4+y,1/2-x,3/4+z
93 -x,-z,1/2-y
94 3/4+x,1/2-z,3/4+y
95 3/4+z,1/2-y,3/4+x
96 -z,-y,1/2-x
97 -x,-y,-z
98 -z,-x,-y
99 -y,-z,-x
100 1/4-y,3/4-x,z
101 3/4-y,x,1/4-z
102 y,1/4-x,3/4-z
103 1/4-x,3/4-z,y
104 x,1/4-z,3/4-y
105 3/4-x,z,1/4-y
106 1/4-z,3/4-y,x
107 3/4-z,y,1/4-x
108 z,1/4-y,3/4-x
109 -x,1/2-y,1/2-z
110 3/4+x,3/4+y,-z
111 -z,1/2-x,1/2-y
112 3/4+z,3/4+x,-y
113 -y,1/2-z,1/2-x
114 3/4+y,3/4+z,-x
115 3/4-y,1/2+x,3/4-z
116 y,3/4-x,1/4-z
117 x,3/4-z,1/4-y
118 3/4-x,1/2+z,3/4-y
119 3/4-z,1/2+y,3/4-x
120 z,3/4-y,1/4-x
121 1/2-x,-y,1/2-z
122 -x,3/4+y,3/4+z
123 1/2-z,-x,1/2-y
124 -z,3/4+x,3/4+y
125 1/2-y,-z,1/2-x
126 -y,3/4+z,3/4+x
127 3/4-y,3/4-x,1/2+z
128 1/4-y,x,3/4-z
129 3/4-x,3/4-z,1/2+y
130 1/4-x,z,3/4-y
131 3/4-z,3/4-y,1/2+x
132 1/4-z,y,3/4-x
133 1/2-x,1/2-y,-z
134 3/4+x,-y,3/4+z
135 1/2-z,1/2-x,-y
136 3/4+z,-x,3/4+y
137 1/2-y,1/2-z,-x
138 3/4+y,-z,3/4+x
139 3/4-y,1/4-x,z
140 1/2+y,3/4-x,3/4-z
141 3/4-x,1/4-z,y
142 1/2+x,3/4-z,3/4-y
143 3/4-z,1/4-y,x
144 1/2+z,3/4-y,3/4-x
145 3/4+x,1/4+y,1/2-z
146 1/4+x,1/2-y,3/4+z
147 1/2-x,3/4+y,1/4+z
148 1/2-z,3/4+x,1/4+y
149 3/4+z,1/4+x,1/2-y
150 1/4+z,1/2-x,3/4+y
151 1/4+y,1/2-z,3/4+x
152 1/2-y,3/4+z,1/4+x
153 3/4+y,1/4+z,1/2-x
154 1/2+y,1/2+x,1/2+z
155 1/2+x,1/2+z,1/2+y
156 1/2+z,1/2+y,1/2+x
157 1/4+x,-y,1/4+z
158 1/2-x,1/4+y,3/4+z
159 1/2-z,1/4+x,3/4+y
160 1/4+z,-x,1/4+y
161 1/4+y,-z,1/4+x
162 1/2-y,1/4+z,3/4+x
163 1/4-y,1/4-x,1/2+z
164 1/2+y,x,z
165 1/4-x,1/4-z,1/2+y
166 1/2+x,z,y
167 1/4-z,1/4-y,1/2+x
168 1/2+z,y,x
169 1/4+x,1/4+y,-z
170 3/4+x,1/2-y,1/4+z
171 1/4+z,1/4+x,-y
172 3/4+z,1/2-x,1/4+y
173 3/4+y,1/2-z,1/4+x
174 1/4+y,1/4+z,-x
175 y,1/2+x,z
176 1/2+y,1/4-x,1/4-z
177 1/2+x,1/4-z,1/4-y
178 x,1/2+z,y
179 1/2+z,1/4-y,1/4-x
180 z,1/2+y,x
181 1/4+x,3/4+y,1/2-z
182 -x,1/4+y,1/4+z
183 -z,1/4+x,1/4+y
184 1/4+z,3/4+x,1/2-y
185 -y,1/4+z,1/4+x
186 1/4+y,3/4+z,1/2-x
187 y,x,1/2+z
188 1/4-y,1/2+x,1/4-z
189 x,z,1/2+y
190 1/4-x,1/2+z,1/4-y
191 1/4-z,1/2+y,1/4-x
192 z,y,1/2+x
_cell_length_a                   29.0191(7)
_cell_length_b                   29.0191(7)
_cell_length_c                   29.0191(7)
_cell_angle_alpha                90
_cell_angle_beta                 90
_cell_angle_gamma                90
_cell_volume                     24437.2
loop_
_atom_site_label
_atom_site_type_symbol
_atom_site_fract_x
_atom_site_fract_y
_atom_site_fract_z
_atom_site_U_iso_or_equiv
_atom_site_thermal_displace_type
Fe1 Fe 0.7500 0.626496(15) 0.873504(15) 0.0250 Uani
O1 O 0.74280(9) 0.62581(8) 0.79786(8) 0.0298 Uani
C2 C 0.78715(12) 0.62475(12) 0.79251(14) 0.0271 Uani
O2 O 0.80460(9) 0.62433(9) 0.75177(9) 0.0331 Uani
O3 O 0.81155(10) 0.62423(10) 0.82890(9) 0.0410 Uani
O1FB O 0.75720(9) 0.70214(8) 0.87419(8) 0.0298 Uani
C2FB C 0.71285(12) 0.70749(14) 0.87525(12) 0.0271 Uani
O2FB O 0.69540(9) 0.74823(9) 0.87567(9) 0.0331 Uani
O3FB O 0.68845(10) 0.67110(9) 0.87577(10) 0.0410 Uani
O1QE O 0.70214(8) 0.49280(9) 0.87581(8) 0.0298 Uani
C2QE C 0.70749(14) 0.53715(12) 0.87475(12) 0.0271 Uani
O2QE O 0.74823(9) 0.55460(9) 0.87433(9) 0.0331 Uani
O3QE O 0.67110(9) 0.56155(10) 0.87423(10) 0.0410 Uani
O1CD O 0.79786(8) 0.62419(8) 1.00720(9) 0.0298 Uani
C2CD C 0.79251(14) 0.62525(12) 0.96285(12) 0.0271 Uani
O2CD O 0.75177(9) 0.62567(9) 0.94540(9) 0.0331 Uani
O3CD O 0.82890(9) 0.62577(10) 0.93845(10) 0.0410 Uani
Fe1QE Fe 0.626496(15) 0.5000 0.876496(15) 0.0250 Uani
Fe1CD Fe 0.873504(15) 0.623504(15) 1.0000 0.0250 Uani
Fe1CG Fe 0.876496(15) 0.623504(15) 0.7500 0.0250 Uani
Fe1WD Fe 0.623504(15) 0.7500 0.876496(15) 0.0250 Uani
O1WC O 0.62581(8) 0.50720(9) 0.95214(8) 0.0298 Uani
C2WC C 0.62475(12) 0.46285(12) 0.95749(14) 0.0271 Uani
O2WC O 0.62433(9) 0.44540(9) 0.99823(9) 0.0331 Uani
O3WC O 0.62423(10) 0.43845(10) 0.92110(9) 0.0410 Uani
O1Q O 0.62419(8) 0.45214(8) 0.74280(9) 0.0298 Uani
C2Q C 0.62525(12) 0.45749(14) 0.78715(12) 0.0271 Uani
O2Q O 0.62567(9) 0.49823(9) 0.80460(9) 0.0331 Uani
O3Q O 0.62577(10) 0.42110(9) 0.81155(10) 0.0410 Uani
O1PB O 0.49280(9) 0.54786(8) 0.87419(8) 0.0298 Uani
C2PB C 0.53715(12) 0.54251(14) 0.87525(12) 0.0271 Uani
O2PB O 0.55460(9) 0.50177(9) 0.87567(9) 0.0331 Uani
O3PB O 0.56155(10) 0.57890(9) 0.87577(10) 0.0410 Uani
O1UE O 0.87419(8) 0.54786(8) 0.99280(9) 0.0298 Uani
C2UE C 0.87525(12) 0.54251(14) 1.03715(12) 0.0271 Uani
O2UE O 0.87567(9) 0.50177(9) 1.05460(9) 0.0331 Uani
O3UE O 0.87577(10) 0.57890(9) 1.06155(10) 0.0410 Uani
O1R O 0.87581(8) 0.75720(9) 1.04786(8) 0.0298 Uani
C2R C 0.87475(12) 0.71285(12) 1.04251(14) 0.0271 Uani
O2R O 0.87433(9) 0.69540(9) 1.00177(9) 0.0331 Uani
O3R O 0.87423(10) 0.68845(10) 1.07890(9) 0.0410 Uani
O1HB O 1.00720(9) 0.62581(8) 0.95214(8) 0.0298 Uani
C2HB C 0.96285(12) 0.62475(12) 0.95749(14) 0.0271 Uani
O2HB O 0.94540(9) 0.62433(9) 0.99823(9) 0.0331 Uani
O3HB O 0.93845(10) 0.62423(10) 0.92110(9) 0.0410 Uani
O1CG O 0.87581(8) 0.54786(8) 0.75720(9) 0.0298 Uani
C2CG C 0.87475(12) 0.54251(14) 0.71285(12) 0.0271 Uani
O2CG O 0.87433(9) 0.50177(9) 0.69540(9) 0.0331 Uani
O3CG O 0.87423(10) 0.57890(9) 0.68845(10) 0.0410 Uani
O1LE O 0.95214(8) 0.62419(8) 0.74280(9) 0.0298 Uani
C2LE C 0.95749(14) 0.62525(12) 0.78715(12) 0.0271 Uani
O2LE O 0.99823(9) 0.62567(9) 0.80460(9) 0.0331 Uani
O3LE O 0.92110(9) 0.62577(10) 0.81155(10) 0.0410 Uani
Fe1Q Fe 0.623504(15) 0.376496(15) 0.7500 0.0250 Uani
O2EB O 0.87567(9) 0.69540(9) 0.74823(9) 0.0331 Uani
O1OF O 0.54786(8) 0.75720(9) 0.87581(8) 0.0298 Uani
O1WD O 0.62419(8) 0.74280(9) 0.95214(8) 0.0298 Uani
O2B O 0.62433(9) 0.75177(9) 0.80460(9) 0.0331 Uani
O3OF O 0.57890(9) 0.68845(10) 0.87423(10) 0.0410 Uani
O3WD O 0.62577(10) 0.81155(10) 0.92110(9) 0.0410 Uani
Fe1IA Fe 0.623504(15) 0.373504(15) 1.0000 0.0250 Uani
Fe1M Fe 0.5000 0.623504(15) 0.873504(15) 0.0250 Uani
Fe1PA Fe 0.876496(15) 0.5000 1.126496(15) 0.0250 Uani
Fe1R Fe 0.876496(15) 0.7500 1.123504(15) 0.0250 Uani
Fe1U Fe 1.0000 0.626496(15) 0.876496(15) 0.0250 Uani
Fe1AA Fe 0.873504(15) 0.5000 0.623504(15) 0.0250 Uani
O1RB O 0.54786(8) 0.37581(8) 0.75720(9) 0.0298 Uani
O2RF O 0.62433(9) 0.30460(9) 0.75177(9) 0.0331 Uani
O2PD O 0.69540(9) 0.37567(9) 0.74823(9) 0.0331 Uani
O3RB O 0.57890(9) 0.37423(10) 0.68845(10) 0.0410 Uani
Na1 Na 0.6250 0.6250 0.8750 0.0447 Uani
N2 N 0.69597(12) 0.69963(12) 0.75381(14) 0.0384 Uani
H1 H 0.6713 0.7124 0.7642 0.0460 Uiso
H2 H 0.7071 0.6757 0.7673 0.0460 Uiso
C3 C 0.71685(15) 0.71685(15) 0.71685(15) 0.0317 Uani
N2B N 0.69963(12) 0.75381(14) 0.69597(12) 0.0384 Uani
H1B H 0.7124 0.7642 0.6713 0.0460 Uiso
H2B H 0.6757 0.7673 0.7071 0.0460 Uiso
N2A N 0.75381(14) 0.69597(12) 0.69963(12) 0.0384 Uani
H1A H 0.7642 0.6713 0.7124 0.0460 Uiso
H2A H 0.7673 0.7071 0.6757 0.0460 Uiso
N3 N 0.55057(12) 0.55350(12) 0.99600(14) 0.0389 Uani
H3 H 0.5380 0.5782 0.9854 0.0470 Uiso
H4 H 0.5745 0.5421 0.9827 0.0470 Uiso
C4 C 0.53297(15) 0.53297(15) 1.03297(15) 0.0315 Uani
N3Z N 0.49600(14) 0.55057(12) 1.05350(12) 0.0389 Uani
H3Z H 0.4854 0.5380 1.0782 0.0470 Uiso
H4Z H 0.4827 0.5745 1.0421 0.0470 Uiso
N3P N 0.55350(12) 0.49600(14) 1.05057(12) 0.0389 Uani
H3P H 0.5782 0.4854 1.0380 0.0470 Uiso
H4P H 0.5421 0.4827 1.0745 0.0470 Uiso
O4 O 0.6250 0.6250 0.9537(7) 0.0640 Uiso
C1 C 0.5729(7) 0.6250 0.1250 0.1310 Uiso
N1 N 0.6250 0.6250 0.1250 0.0560 Uani
C1M C 0.6771(7) 0.6250 0.1250 0.1310 Uiso
C1Z C 0.6250 0.5729(7) 0.1250 0.1310 Uiso
C1P C 0.6250 0.6250 0.0729(7) 0.1310 Uiso
C1YA C 0.6250 0.6771(7) 0.1250 0.1310 Uiso
C1JC C 0.6250 0.6250 0.1771(7) 0.1310 Uiso
loop_
_atom_site_aniso_label
_atom_site_aniso_U_11
_atom_site_aniso_U_22
_atom_site_aniso_U_33
_atom_site_aniso_U_23
_atom_site_aniso_U_13
_atom_site_aniso_U_12
Fe1 0.0253(5) 0.0249(4) 0.0249(4) 0.0007(4) 0.00187(15) 0.00187(15)
O1 0.0234 0.033 0.0331 0.0001 0.0003 0.0016
C2 0.0304 0.0205 0.0304 0.0002 -0.0016 0.0019
O2 0.0302 0.0362 0.0328 0.0001 0.0041 -0.0002
O3 0.0336 0.0563 0.033 -0.0032 -0.0083 0.0017
O1FB 0.0234 0.0331 0.033 0.0001 0.0016 0.0003
C2FB 0.0304 0.0304 0.0205 0.0002 0.0019 -0.0016
O2FB 0.0302 0.0328 0.0362 0.0001 -0.0002 0.0041
O3FB 0.0336 0.033 0.0563 -0.0032 0.0017 -0.0083
O1QE 0.0331(13) 0.0234(11) 0.0330(12) 0.0016(10) -0.0001(10) -0.0003(9)
C2QE 0.0304(16) 0.0304(16) 0.0205(15) 0.0019(15) -0.0002(15) 0.0016(14)
O2QE 0.0328(13) 0.0302(13) 0.0362(13) -0.0002(11) -0.0001(11) -0.0041(10)
O3QE 0.0330(15) 0.0336(15) 0.0563(18) 0.0017(14) 0.0032(13) 0.0083(10)
O1CD 0.0331 0.033 0.0234 0.0016 -0.0003 -0.0001
C2CD 0.0304 0.0205 0.0304 0.0019 0.0016 -0.0002
O2CD 0.0328 0.0362 0.0302 -0.0002 -0.0041 -0.0001
O3CD 0.033 0.0563 0.0336 0.0017 0.0083 0.0032
Fe1QE 0.0249 0.0253 0.0249 0.00187 -0.0007 -0.00187
Fe1CD 0.0249 0.0249 0.0253 0.00187 -0.00187 -0.0007
Fe1CG 0.0249 0.0249 0.0253 -0.00187 -0.00187 0.0007
Fe1WD 0.0249 0.0253 0.0249 -0.00187 0.0007 -0.00187
O1WC 0.033 0.0234 0.0331 0.0003 -0.0001 -0.0016
C2WC 0.0205 0.0304 0.0304 -0.0016 -0.0002 -0.0019
O2WC 0.0362 0.0302 0.0328 0.0041 -0.0001 0.0002
O3WC 0.0563 0.0336 0.033 -0.0083 0.0032 -0.0017
O1Q 0.033 0.0331 0.0234 -0.0003 -0.0016 0.0001
C2Q 0.0205 0.0304 0.0304 0.0016 -0.0019 0.0002
O2Q 0.0362 0.0328 0.0302 -0.0041 0.0002 0.0001
O3Q 0.0563 0.033 0.0336 0.0083 -0.0017 -0.0032
O1PB 0.0234 0.0331 0.033 -0.0001 -0.0016 0.0003
C2PB 0.0304 0.0304 0.0205 -0.0002 -0.0019 -0.0016
O2PB 0.0302 0.0328 0.0362 -0.0001 0.0002 0.0041
O3PB 0.0336 0.033 0.0563 0.0032 -0.0017 -0.0083
O1UE 0.033 0.0331 0.0234 0.0003 -0.0016 -0.0001
C2UE 0.0205 0.0304 0.0304 -0.0016 -0.0019 -0.0002
O2UE 0.0362 0.0328 0.0302 0.0041 0.0002 -0.0001
O3UE 0.0563 0.033 0.0336 -0.0083 -0.0017 0.0032
O1R 0.033 0.0234 0.0331 -0.0003 0.0001 -0.0016
C2R 0.0205 0.0304 0.0304 0.0016 0.0002 -0.0019
O2R 0.0362 0.0302 0.0328 -0.0041 0.0001 0.0002
O3R 0.0563 0.0336 0.033 0.0083 -0.0032 -0.0017
O1HB 0.0234 0.033 0.0331 -0.0001 0.0003 -0.0016
C2HB 0.0304 0.0205 0.0304 -0.0002 -0.0016 -0.0019
O2HB 0.0302 0.0362 0.0328 -0.0001 0.0041 0.0002
O3HB 0.0336 0.0563 0.033 0.0032 -0.0083 -0.0017
O1CG 0.033 0.0331 0.0234 -0.0003 -0.0016 0.0001
C2CG 0.0205 0.0304 0.0304 0.0016 -0.0019 0.0002
O2CG 0.0362 0.0328 0.0302 -0.0041 0.0002 0.0001
O3CG 0.0563 0.033 0.0336 0.0083 -0.0017 -0.0032
O1LE 0.0331 0.033 0.0234 -0.0016 -0.0003 0.0001
C2LE 0.0304 0.0205 0.0304 -0.0019 0.0016 0.0002
O2LE 0.0328 0.0362 0.0302 0.0002 -0.0041 0.0001
O3LE 0.033 0.0563 0.0336 -0.0017 0.0083 -0.0032
Fe1Q 0.0249 0.0249 0.0253 -0.00187 -0.00187 0.0007
O2EB 0.0362 0.0302 0.0328 0.0041 0.0001 -0.0002
O1OF 0.0331 0.0234 0.033 -0.0016 0.0001 -0.0003
O1WD 0.033 0.0234 0.0331 -0.0003 0.0001 -0.0016
O2B 0.0362 0.0328 0.0302 0.0041 -0.0002 0.0001
O3OF 0.033 0.0336 0.0563 -0.0017 -0.0032 0.0083
O3WD 0.0563 0.0336 0.033 0.0083 -0.0032 -0.0017
Fe1IA 0.0249 0.0249 0.0253 -0.00187 0.00187 -0.0007
Fe1M 0.0253 0.0249 0.0249 -0.0007 -0.00187 0.00187
Fe1PA 0.0249 0.0253 0.0249 -0.00187 -0.0007 0.00187
Fe1R 0.0249 0.0253 0.0249 -0.00187 0.0007 -0.00187
Fe1U 0.0253 0.0249 0.0249 -0.0007 0.00187 -0.00187
Fe1AA 0.0249 0.0253 0.0249 0.00187 -0.0007 -0.00187
O1RB 0.0331 0.033 0.0234 -0.0016 -0.0003 0.0001
O2RF 0.0362 0.0302 0.0328 0.0041 0.0001 -0.0002
O2PD 0.0302 0.0362 0.0328 0.0001 0.0041 -0.0002
O3RB 0.033 0.0563 0.0336 -0.0017 0.0083 -0.0032
Na1 0.0320(12) 0.0320(12) 0.070(3) 0.000 0.000 0.000
N2 0.0370(18) 0.0383(18) 0.040(2) 0.0085(16) 0.0095(15) 0.0090(16)
C3 0.0317(19) 0.0317(19) 0.0317(19) 0.0003(19) 0.0003(19) 0.0003(19)
N2B 0.0383 0.04 0.037 0.0095 0.009 0.0085
N2A 0.04 0.037 0.0383 0.009 0.0085 0.0095
N3 0.0383(18) 0.0394(18) 0.039(2) 0.0094(15) 0.0090(16) 0.0064(16)
C4 0.0315(19) 0.0315(19) 0.0315(19) -0.0027(18) -0.0027(18) -0.0027(18)
N3Z 0.039 0.0383 0.0394 0.0064 0.0094 0.009
N3P 0.0394 0.039 0.0383 0.009 0.0064 0.0094
N1 0.056(4) 0.056(4) 0.056(4) 0.000 0.000 0.000
loop_
_geom_bond_atom_site_label_1
_geom_bond_atom_site_label_2
_geom_bond_site_symmetry_1
_geom_bond_site_symmetry_2
C1 N1 1_555 1_555
N1 C1M 1_555 1_555
Fe1 O1 1_555 1_555
O1 C2 1_555 1_555
C2 O2 1_555 1_555
O2 Fe1CG 1_555 1_555
O3 Fe1 1_555 1_555
N2 H1 1_555 1_555
H2 N2 1_555 1_555
C3 N2 1_555 1_555
N3 H3 1_555 1_555
H4 N3 1_555 1_555
C4 N3 1_555 1_555
C1Z N1 1_555 1_555
C1P N1 1_555 1_555
C1YA N1 1_555 1_555
C1JC N1 1_555 1_555
O1FB Fe1 1_555 1_555
C2FB O1FB 1_555 1_555
O2FB C2FB 1_555 1_555
O3FB Fe1 1_555 1_555
O1QE C2QE 1_555 1_555
C2QE O2QE 1_555 1_555
O2QE Fe1 1_555 1_555
O3QE C2QE 1_555 1_555
O1CD C2CD 1_555 1_555
C2CD O2CD 1_555 1_555
O2CD Fe1 1_555 1_555
O3CD C2CD 1_555 1_555
Fe1QE O1QE 1_555 1_555
Fe1CD O1CD 1_555 1_555
Fe1CG O1CG 1_555 1_555
Fe1WD O2FB 1_555 1_555
O1WC Fe1QE 1_555 1_555
C2WC O1WC 1_555 1_555
O2WC C2WC 1_555 1_555
O3WC Fe1QE 1_555 1_555
O1Q C2Q 1_555 1_555
C2Q O2Q 1_555 1_555
O2Q Fe1QE 1_555 1_555
O3Q C2Q 1_555 1_555
O1PB C2PB 1_555 1_555
C2PB O2PB 1_555 1_555
O2PB Fe1QE 1_555 1_555
O3PB C2PB 1_555 1_555
O1UE Fe1CD 1_555 1_555
C2UE O1UE 1_555 1_555
O2UE C2UE 1_555 1_555
O3UE Fe1CD 1_555 1_555
O1R C2R 1_555 1_555
C2R O2R 1_555 1_555
O2R Fe1CD 1_555 1_555
O3R C2R 1_555 1_555
O1HB C2HB 1_555 1_555
C2HB O2HB 1_555 1_555
O2HB Fe1CD 1_555 1_555
O3HB C2HB 1_555 1_555
O1CG C2CG 1_555 1_555
C2CG O2CG 1_555 1_555
O2CG Fe1AA 1_555 1_555
O3CG Fe1CG 1_555 1_555
O1LE Fe1CG 1_555 1_555
C2LE O1LE 1_555 1_555
O2LE C2LE 1_555 1_555
O3LE Fe1CG 1_555 1_555
Fe1Q O1Q 1_555 1_555
O2EB Fe1CG 1_555 1_555
O1OF Fe1WD 1_555 1_555
O1WD Fe1WD 1_555 1_555
O2B Fe1WD 1_555 1_555
O3OF Fe1WD 1_555 1_555
O3WD Fe1WD 1_555 1_555
Fe1IA O2WC 1_555 1_555
Fe1M O1PB 1_555 1_555
Fe1PA O2UE 1_555 1_555
Fe1R O1R 1_555 1_555
Fe1U O1HB 1_555 1_555
O1RB Fe1Q 1_555 1_555
O2RF Fe1Q 1_555 1_555
O2PD Fe1Q 1_555 1_555
O3RB Fe1Q 1_555 1_555
N2B C3 1_555 1_555
H1B N2B 1_555 1_555
H2B N2B 1_555 1_555
N2A C3 1_555 1_555
H1A N2A 1_555 1_555
H2A N2A 1_555 1_555
N3Z C4 1_555 1_555
H3Z N3Z 1_555 1_555
H4Z N3Z 1_555 1_555
N3P C4 1_555 1_555
H3P N3P 1_555 1_555
H4P N3P 1_555 1_555
C2 O3 1_555 1_555
C2FB O3FB 1_555 1_555
O3QE Fe1QE 1_555 1_555
O3CD Fe1CD 1_555 1_555
C2WC O3WC 1_555 1_555
O3Q Fe1Q 1_555 1_555
O3PB Fe1M 1_555 1_555
C2UE O3UE 1_555 1_555
O3R Fe1R 1_555 1_555
O3HB Fe1U 1_555 1_555
C2CG O3CG 1_555 1_555
C2LE O3LE 1_555 1_555
O2LE Fe1U 1_555 1_555

#END
