
#######################################################################
#
#                 Cambridge Crystallographic Data Centre
#                                CCDC 
#
#######################################################################
#
# If this CIF has been generated from an entry in the Cambridge 
# Structural Database, then it will include bibliographic, chemical, 
# crystal, experimental, refinement or atomic coordinate data resulting 
# from the CCDC's data processing and validation procedures.
#
#######################################################################

data_IWAYAG
_chemical_formula_moiety         'C26 H8 Ca18 K1 N4 O91 2+'
_symmetry_cell_setting           cubic
_symmetry_space_group_name_H-M   'I m -3 m'
_symmetry_Int_Tables_number      229
_space_group_name_Hall           '-I 4 2 3'
loop_
_symmetry_equiv_pos_site_id
_symmetry_equiv_pos_as_xyz
1 x,y,z
2 z,x,y
3 y,z,x
4 y,x,-z
5 y,-x,z
6 -y,x,z
7 x,z,-y
8 -x,z,y
9 x,-z,y
10 z,y,-x
11 z,-y,x
12 -z,y,x
13 1/2+x,1/2+y,1/2+z
14 1/2+z,1/2+x,1/2+y
15 1/2+y,1/2+z,1/2+x
16 1/2+y,1/2+x,1/2-z
17 1/2+y,1/2-x,1/2+z
18 1/2-y,1/2+x,1/2+z
19 1/2+x,1/2+z,1/2-y
20 1/2-x,1/2+z,1/2+y
21 1/2+x,1/2-z,1/2+y
22 1/2+z,1/2+y,1/2-x
23 1/2+z,1/2-y,1/2+x
24 1/2-z,1/2+y,1/2+x
25 -x,-y,z
26 -x,y,-z
27 x,-y,-z
28 z,-x,-y
29 -z,-x,y
30 -z,x,-y
31 -y,z,-x
32 y,-z,-x
33 -y,-z,x
34 -y,-x,-z
35 -x,-z,-y
36 -z,-y,-x
37 1/2-x,1/2-y,1/2+z
38 1/2-x,1/2+y,1/2-z
39 1/2+x,1/2-y,1/2-z
40 1/2+z,1/2-x,1/2-y
41 1/2-z,1/2-x,1/2+y
42 1/2-z,1/2+x,1/2-y
43 1/2-y,1/2+z,1/2-x
44 1/2+y,1/2-z,1/2-x
45 1/2-y,1/2-z,1/2+x
46 1/2-y,1/2-x,1/2-z
47 1/2-x,1/2-z,1/2-y
48 1/2-z,1/2-y,1/2-x
49 -x,-y,-z
50 -z,-x,-y
51 -y,-z,-x
52 -y,-x,z
53 -y,x,-z
54 y,-x,-z
55 -x,-z,y
56 x,-z,-y
57 -x,z,-y
58 -z,-y,x
59 -z,y,-x
60 z,-y,-x
61 1/2-x,1/2-y,1/2-z
62 1/2-z,1/2-x,1/2-y
63 1/2-y,1/2-z,1/2-x
64 1/2-y,1/2-x,1/2+z
65 1/2-y,1/2+x,1/2-z
66 1/2+y,1/2-x,1/2-z
67 1/2-x,1/2-z,1/2+y
68 1/2+x,1/2-z,1/2-y
69 1/2-x,1/2+z,1/2-y
70 1/2-z,1/2-y,1/2+x
71 1/2-z,1/2+y,1/2-x
72 1/2+z,1/2-y,1/2-x
73 x,y,-z
74 x,-y,z
75 -x,y,z
76 -z,x,y
77 z,x,-y
78 z,-x,y
79 y,-z,x
80 -y,z,x
81 y,z,-x
82 y,x,z
83 x,z,y
84 z,y,x
85 1/2+x,1/2+y,1/2-z
86 1/2+x,1/2-y,1/2+z
87 1/2-x,1/2+y,1/2+z
88 1/2-z,1/2+x,1/2+y
89 1/2+z,1/2+x,1/2-y
90 1/2+z,1/2-x,1/2+y
91 1/2+y,1/2-z,1/2+x
92 1/2-y,1/2+z,1/2+x
93 1/2+y,1/2+z,1/2-x
94 1/2+y,1/2+x,1/2+z
95 1/2+x,1/2+z,1/2+y
96 1/2+z,1/2+y,1/2+x
_cell_length_a                   14.8173(14)
_cell_length_b                   14.8173(14)
_cell_length_c                   14.8173(14)
_cell_angle_alpha                90
_cell_angle_beta                 90
_cell_angle_gamma                90
_cell_volume                     3253.17
loop_
_atom_site_label
_atom_site_type_symbol
_atom_site_fract_x
_atom_site_fract_y
_atom_site_fract_z
C2 C 0.1802(4) -0.1802(4) 0.1802(4)
N1 N 0.1425(3) -0.1425(3) 0.2520(4)
H1 H 0.0923(16) -0.162(2) 0.274(3)
H1YA H 0.162(2) -0.0923(16) 0.274(3)
N1EC N 0.2520(4) -0.1425(3) 0.1425(3)
H1EC H 0.274(3) -0.162(2) 0.0923(16)
H1AA H 0.274(3) -0.0923(16) 0.162(2)
N1CB N 0.1425(3) -0.2520(4) 0.1425(3)
H1CB H 0.0923(16) -0.274(3) 0.162(2)
H1FA H 0.162(2) -0.274(3) 0.0923(16)
K1 K 0.0000 0.0000 0.4375(6)
O3 O 0.0000 0.0000 0.361(3)
N2 N 0.0000 0.0000 0.0000
C3 C -0.0000 0.114(11) 0.0000
C3A C 0.0000 -0.0000 0.114(11)
C3B C 0.114(11) 0.0000 0.0000
C3E C -0.114(11) 0.0000 0.0000
C3F C 0.0000 0.0000 -0.114(11)
C3J C 0.0000 -0.114(11) 0.0000
Ca1 Ca 0.2500 0.0000 0.5000
C1 C 0.3190 0.0000(3) 0.3190(3)
O1 O 0.2356 0.0000(3) 0.3422(2)
O2 O 0.3803(2) -0.0000(2) 0.3803
O1EC O 0.3422(2) -0.0000(3) 0.2356
C1S C 0.1810 -0.1810(3) 0.5000(3)
O1S O 0.2644 -0.1578(2) 0.5000(3)
O2S O 0.1197(2) -0.1197 0.5000(2)
O1IC O 0.1578(2) -0.2644 0.5000(3)
C1NB C 0.1810 0.1810(3) 0.5000(3)
O1NB O 0.2644 0.1578(2) 0.5000(3)
O2NB O 0.1197(2) 0.1197 0.5000(2)
O1NA O 0.1578(2) 0.2644 0.5000(3)
C1TB C 0.3190 0.0000(3) 0.6810(3)
O1TB O 0.2356 0.0000(3) 0.6578(2)
O2TB O 0.3803(2) -0.0000(2) 0.6197
O1I O 0.3422(2) 0.0000(3) 0.7644
Ca1EC Ca 0.5000 0.0000 0.2500
Ca1IC Ca 0.0000 -0.2500 0.5000
Ca1NA Ca 0.0000 0.2500 0.5000
Ca1I Ca 0.5000 0.0000 0.7500
C1NC C 0.5000(3) -0.1810(3) 0.1810
O1NC O 0.5000(3) -0.1578(2) 0.2644
O2NC O 0.5000(2) -0.1197 0.1197(2)
O1O O 0.5000(3) -0.2644 0.1578(2)
C1QA C 0.5000(3) 0.1810(3) 0.1810
O1QA O 0.5000(3) 0.1578(2) 0.2644
O2QA O 0.5000(2) 0.1197 0.1197(2)
O1MB O 0.5000(3) 0.2644 0.1578(2)
C1K C 0.6810(3) 0.0000(3) 0.3190
O1K O 0.6578(2) -0.0000(3) 0.2356
O2K O 0.6197 -0.0000(2) 0.3803(2)
O1VB O 0.7644 0.0000(3) 0.3422(2)
C1YA C 0.0000(3) -0.3190 0.3190(3)
O1YA O 0.0000(3) -0.2356 0.3422(2)
O2YA O 0.0000(2) -0.3803(2) 0.3803
O1FA O 0.0000(3) -0.3422(2) 0.2356
C1GA C 0.0000(3) -0.3190 0.6810(3)
O1GA O 0.0000(3) -0.2356 0.6578(2)
O2GA O 0.0000(2) -0.3803(2) 0.6197
O1XA O 0.0000(3) -0.3422(2) 0.7644
C1M C -0.1810(3) -0.1810 0.5000(3)
O1M O -0.1578(2) -0.2644 0.5000(3)
O2M O -0.1197 -0.1197(2) 0.5000(2)
O1PC O -0.2644 -0.1578(2) 0.5000(3)
C1E C 0.0000(3) 0.3190 0.3190(3)
O1E O 0.0000(3) 0.2356 0.3422(2)
O2E O 0.0000(2) 0.3803(2) 0.3803
O1AC O 0.0000(3) 0.3422(2) 0.2356
C1ZA C -0.0000(3) 0.3190 0.6810(3)
O1ZA O 0.0000(3) 0.2356 0.6578(2)
O2ZA O -0.0000(2) 0.3803(2) 0.6197
O1DA O 0.0000(3) 0.3422(2) 0.7644
Ca1O Ca 0.5000 -0.2500 0.0000
O1KC O -0.1578(2) 0.2644 0.5000(3)
O2T O -0.1197(2) 0.1197 0.5000(2)
O1N O 0.5000(3) -0.1578(2) 0.7356
O1LC O 0.5000(3) 0.1578(2) 0.7356
O1FB O 0.6578(2) 0.0000(3) 0.7644
O2N O 0.5000(2) -0.1197 0.8803(2)
O2P O 0.5000(2) 0.1197(2) 0.8803
O2VA O 0.6197(2) -0.0000(2) 0.6197
Ca1A Ca 0.5000 0.2500 0.0000
Ca1R Ca 0.7500 0.0000 0.5000
Ca1B Ca 0.0000 -0.5000 0.2500
Ca1V Ca 0.0000 -0.5000 0.7500
Ca1R_2 Ca -0.2500 0.0000 0.5000
Ca1B_2 Ca 0.0000 0.5000 0.2500
Ca1V_2 Ca 0.0000 0.5000 0.7500
O1Q O 0.5000(3) -0.2644 -0.1578(2)
O1YB O 0.3422(2) -0.2356 0.0000(3)
O1WA O 0.6578(2) -0.2356 0.0000(3)
O2H O 0.3803(2) -0.3803 0.0000(2)
O2N_2 O 0.5000(2) -0.1197 -0.1197(2)
O2WA O 0.6197 -0.3803(2) 0.0000(2)
C1T C -0.1810 0.1810(3) 0.5000(3)
C1N C 0.5000(3) -0.1810(3) 0.8190
C1P C 0.5000(3) 0.1810 0.8190(3)
C1VA C 0.6810 0.0000(3) 0.6810(3)
Ca1O_2 Ca 0.5000 -0.2500 1.0000
Ca1A_2 Ca 0.5000 0.2500 1.0000
O1A O 0.3422(2) 0.2356 0.0000(3)
O1P O 0.5000(3) 0.2644 -0.1578(2)
O1WB O 0.6578(2) 0.2356 0.0000(3)
O2A O 0.3803 0.3803(2) 0.0000(2)
O2G O 0.6197(2) 0.3803 0.0000(2)
O2P_2 O 0.5000(2) 0.1197(2) -0.1197
O1R O 0.7356 -0.1578(2) 0.5000(3)
O1T O 0.7356 0.1578(2) 0.5000(3)
O1VA O 0.7644 0.0000(3) 0.6578(2)
O2M_2 O 0.8803 -0.1197(2) 0.5000(2)
O2T_2 O 0.8803(2) 0.1197 0.5000(2)
O1B O 0.0000(3) -0.6578(2) 0.2356
O1U O -0.1578(2) -0.5000(3) 0.2644
O1RB O 0.1578(2) -0.5000(3) 0.2644
O2B O 0.0000(2) -0.6197 0.3803(2)
O2U O -0.1197 -0.5000(2) 0.1197(2)
O2HB O 0.1197(2) -0.5000(2) 0.1197
O1V O -0.1578(2) -0.5000(3) 0.7356
O1W O 0.1578(2) -0.5000(3) 0.7356
O1BC O 0.0000(3) -0.6578(2) 0.7644
O2C O 0.0000(2) -0.6197(2) 0.6197
O2L O -0.1197(2) -0.5000(2) 0.8803
O2W O 0.1197 -0.5000(2) 0.8803(2)
O1T_2 O -0.2644 0.1578(2) 0.5000(3)
O1VB_2 O -0.2356 0.0000(3) 0.3422(2)
O1VA_2 O -0.2356 0.0000(3) 0.6578(2)
O2K_2 O -0.3803 -0.0000(2) 0.3803(2)
O2VA_2 O -0.3803(2) -0.0000(2) 0.6197
O1U_2 O -0.1578(2) 0.5000(3) 0.2644
O1ZB O 0.0000(3) 0.6578(2) 0.2356
O1RB_2 O 0.1578(2) 0.5000(3) 0.2644
O2D O -0.0000(2) 0.6197(2) 0.3803
O2U_2 O -0.1197 0.5000(2) 0.1197(2)
O2HB_2 O 0.1197(2) 0.5000(2) 0.1197
O1V_2 O -0.1578(2) 0.5000(3) 0.7356
O1W_2 O 0.1578(2) 0.5000(3) 0.7356
O1XA_2 O 0.0000(3) 0.6578(2) 0.7644
O2L_2 O -0.1197(2) 0.5000(2) 0.8803
O2W_2 O 0.1197 0.5000(2) 0.8803(2)
O2XA O 0.0000(2) 0.6197 0.6197(2)
C1N_2 C 0.5000(3) -0.1810(3) -0.1810
C1H C 0.3190 -0.3190(3) 0.0000(3)
C1WA C 0.6810(3) -0.3190 0.0000(3)
Ca1F Ca 0.2500 -0.5000 0.0000
Ca1I_2 Ca 0.5000 0.0000 -0.2500
Ca1G Ca 0.7500 -0.5000 0.0000
loop_
_geom_bond_atom_site_label_1
_geom_bond_atom_site_label_2
_geom_bond_site_symmetry_1
_geom_bond_site_symmetry_2
Ca1 O1 1_555 1_555
C1 O1 1_555 1_555
O2 Ca1 1_555 1_555
C2 N1 1_555 1_555
N1 H1 1_555 1_555
N2 C3 1_555 1_555
O1EC C1 1_555 1_555
C1S O1S 1_555 1_555
O1S Ca1 1_555 1_555
O2S Ca1 1_555 1_555
O1IC C1S 1_555 1_555
C1NB O1NB 1_555 1_555
O1NB Ca1 1_555 1_555
O2NB Ca1 1_555 1_555
O1NA C1NB 1_555 1_555
C1TB O1TB 1_555 1_555
O1TB Ca1 1_555 1_555
O2TB Ca1 1_555 1_555
O1I C1TB 1_555 1_555
Ca1EC O2 1_555 1_555
Ca1IC O2S 1_555 1_555
Ca1NA O2NB 1_555 1_555
Ca1I O2TB 1_555 1_555
C1NC O1NC 1_555 1_555
O1NC Ca1EC 1_555 1_555
O2NC Ca1EC 1_555 1_555
O1O C1NC 1_555 1_555
C1QA O1QA 1_555 1_555
O1QA Ca1EC 1_555 1_555
O2QA Ca1EC 1_555 1_555
O1MB C1QA 1_555 1_555
C1K O1K 1_555 1_555
O1K Ca1EC 1_555 1_555
O2K Ca1EC 1_555 1_555
O1VB C1K 1_555 1_555
C1YA O1YA 1_555 1_555
O1YA Ca1IC 1_555 1_555
O2YA Ca1IC 1_555 1_555
O1FA C1YA 1_555 1_555
C1GA O1GA 1_555 1_555
O1GA Ca1IC 1_555 1_555
O2GA Ca1IC 1_555 1_555
O1XA C1GA 1_555 1_555
C1M O1M 1_555 1_555
O1M Ca1IC 1_555 1_555
O2M Ca1IC 1_555 1_555
O1PC C1M 1_555 1_555
C1E O1E 1_555 1_555
O1E Ca1NA 1_555 1_555
O2E Ca1NA 1_555 1_555
O1AC C1E 1_555 1_555
C1ZA O1ZA 1_555 1_555
O1ZA Ca1NA 1_555 1_555
O2ZA Ca1NA 1_555 1_555
O1DA C1ZA 1_555 1_555
Ca1O O2NC 1_555 1_555
O1KC Ca1NA 1_555 1_555
O2T Ca1NA 1_555 1_555
O1N Ca1I 1_555 1_555
O1LC Ca1I 1_555 1_555
O1FB Ca1I 1_555 1_555
O2N Ca1I 1_555 1_555
O2P Ca1I 1_555 1_555
O2VA Ca1I 1_555 1_555
Ca1A O2QA 1_555 1_555
Ca1R O2K 1_555 1_555
Ca1B O2YA 1_555 1_555
Ca1V O2GA 1_555 1_555
Ca1R_2 O2M 1_555 1_555
Ca1B_2 O2E 1_555 1_555
Ca1V_2 O2ZA 1_555 1_555
O1Q Ca1O 1_555 1_555
O1YB Ca1O 1_555 1_555
O1WA Ca1O 1_555 1_555
O2H Ca1O 1_555 1_555
O2N_2 Ca1O 1_555 1_555
O2WA Ca1O 1_555 1_555
C1T O1KC 1_555 1_555
C1N O1N 1_555 1_555
C1P O1LC 1_555 1_555
C1VA O1FB 1_555 1_555
Ca1O_2 O2N 1_555 1_555
Ca1A_2 O2P 1_555 1_555
O1A Ca1A 1_555 1_555
O1P Ca1A 1_555 1_555
O1WB Ca1A 1_555 1_555
O2A Ca1A 1_555 1_555
O2G Ca1A 1_555 1_555
O2P_2 Ca1A 1_555 1_555
O1R Ca1R 1_555 1_555
O1T Ca1R 1_555 1_555
O1VA Ca1R 1_555 1_555
O2M_2 Ca1R 1_555 1_555
O2T_2 Ca1R 1_555 1_555
O1B Ca1B 1_555 1_555
O1U Ca1B 1_555 1_555
O1RB Ca1B 1_555 1_555
O2B Ca1B 1_555 1_555
O2U Ca1B 1_555 1_555
O2HB Ca1B 1_555 1_555
O1V Ca1V 1_555 1_555
O1W Ca1V 1_555 1_555
O1BC Ca1V 1_555 1_555
O2C Ca1V 1_555 1_555
O2L Ca1V 1_555 1_555
O2W Ca1V 1_555 1_555
O1T_2 Ca1R_2 1_555 1_555
O1VB_2 Ca1R_2 1_555 1_555
O1VA_2 Ca1R_2 1_555 1_555
O2K_2 Ca1R_2 1_555 1_555
O2VA_2 Ca1R_2 1_555 1_555
O1U_2 Ca1B_2 1_555 1_555
O1ZB Ca1B_2 1_555 1_555
O1RB_2 Ca1B_2 1_555 1_555
O2D Ca1B_2 1_555 1_555
O2U_2 Ca1B_2 1_555 1_555
O2HB_2 Ca1B_2 1_555 1_555
O1V_2 Ca1V_2 1_555 1_555
O1W_2 Ca1V_2 1_555 1_555
O1XA_2 Ca1V_2 1_555 1_555
O2L_2 Ca1V_2 1_555 1_555
O2W_2 Ca1V_2 1_555 1_555
O2XA Ca1V_2 1_555 1_555
C1N_2 O1Q 1_555 1_555
C1H O1YB 1_555 1_555
C1WA O1WA 1_555 1_555
Ca1F O2H 1_555 1_555
Ca1I_2 O2N_2 1_555 1_555
Ca1G O2WA 1_555 1_555
H1YA N1 1_555 1_555
N1EC C2 1_555 1_555
H1EC N1EC 1_555 1_555
H1AA N1EC 1_555 1_555
N1CB C2 1_555 1_555
H1CB N1CB 1_555 1_555
H1FA N1CB 1_555 1_555
C3A N2 1_555 1_555
C3B N2 1_555 1_555
C3E N2 1_555 1_555
C3F N2 1_555 1_555
C3J N2 1_555 1_555
C1 O2 1_555 1_555
O1EC Ca1EC 1_555 1_555
C1S O2S 1_555 1_555
O1IC Ca1IC 1_555 1_555
C1NB O2NB 1_555 1_555
O1NA Ca1NA 1_555 1_555
C1TB O2TB 1_555 1_555
O1I Ca1I 1_555 1_555
C1NC O2NC 1_555 1_555
O1O Ca1O 1_555 1_555
C1QA O2QA 1_555 1_555
O1MB Ca1A 1_555 1_555
C1K O2K 1_555 1_555
O1VB Ca1R 1_555 1_555
C1YA O2YA 1_555 1_555
O1FA Ca1B 1_555 1_555
C1GA O2GA 1_555 1_555
O1XA Ca1V 1_555 1_555
C1M O2M 1_555 1_555
O1PC Ca1R_2 1_555 1_555
C1E O2E 1_555 1_555
O1AC Ca1B_2 1_555 1_555
C1ZA O2ZA 1_555 1_555
O1DA Ca1V_2 1_555 1_555
O2T Ca1R_2 1_555 1_555
O2T C1T 1_555 1_555
O2N C1N 1_555 1_555
O2P C1P 1_555 1_555
O2VA Ca1R 1_555 1_555
O2VA C1VA 1_555 1_555
O2H C1H 1_555 1_555
O2N_2 C1N_2 1_555 1_555
O2WA C1WA 1_555 1_555

#END
