
#######################################################################
#
#                 Cambridge Crystallographic Data Centre
#                                CCDC 
#
#######################################################################
#
# If this CIF has been generated from an entry in the Cambridge 
# Structural Database, then it will include bibliographic, chemical, 
# crystal, experimental, refinement or atomic coordinate data resulting 
# from the CCDC's data processing and validation procedures.
#
#######################################################################

data_JOKWOV
_chemical_formula_moiety         '(C6 H22 N2 O19 P4 Zn4)n'
_symmetry_cell_setting           triclinic
_symmetry_space_group_name_H-M   'P -1'
_symmetry_Int_Tables_number      2
_space_group_name_Hall           '-P 1'
loop_
_symmetry_equiv_pos_site_id
_symmetry_equiv_pos_as_xyz
1 x,y,z
2 -x,-y,-z
_cell_length_a                   9.515(2)
_cell_length_b                   12.297(2)
_cell_length_c                   9.461(2)
_cell_angle_alpha                91.030(4)
_cell_angle_beta                 98.658(4)
_cell_angle_gamma                93.714(4)
_cell_volume                     1091.65
loop_
_atom_site_label
_atom_site_type_symbol
_atom_site_fract_x
_atom_site_fract_y
_atom_site_fract_z
Zn1 Zn 0.3143(1) 0.44883(8) 0.0936(1)
Zn2 Zn 0.9045(1) 0.03307(8) -0.3215(1)
Zn3 Zn 0.5974(1) 0.14753(8) 0.1044(1)
Zn4 Zn 0.0990(1) 0.64878(8) 0.5858(1)
P1 P 0.6619(2) 0.4023(2) 0.1619(2)
P2 P 0.8388(2) 0.0880(2) 0.3537(2)
P3 P 0.6989(2) -0.0302(2) -0.1105(2)
P4 P 0.1142(2) 0.5260(2) 0.2942(2)
O1 O 0.5087(7) 0.4285(7) 0.1546(9)
O2 O 0.2242(8) 0.3018(6) 0.078(1)
O3 O 0.2673(6) 0.5253(5) 0.2628(6)
O4 O 0.7452(6) 0.4922(5) 0.0909(6)
O5 O 0.7297(7) -0.0252(6) -0.2636(6)
O6 O 0.9276(6) 0.0425(5) 0.2439(6)
O7 O 0.8401(6) 0.0060(5) 0.4757(6)
O8 O 0.9551(9) 0.1830(5) -0.2468(8)
O9 O 0.6316(7) 0.0698(5) -0.0671(7)
O10 O 0.6840(7) 0.0918(6) 0.2828(7)
O11 O 0.6092(6) -0.1358(5) -0.0925(7)
O12 O 0.6765(8) 0.2947(5) 0.0835(7)
O13 O 0.0980(7) 0.6296(5) 0.3789(6)
O14 O 0.0752(7) 0.4244(5) 0.3688(8)
O15 O 0.7252(7) 0.4002(6) 0.3198(7)
O16 O 0.9095(8) 0.1957(5) 0.4167(7)
O17 O 0.0230(7) 0.5329(7) 0.1431(7)
O18 O 0.8477(7) -0.0431(6) -0.0157(7)
H15 H 0.288(6) 0.240(4) 0.09(1)
H16 H 0.122(2) 0.273(5) 0.07(1)
H17 H 0.96(1) 0.208(6) -0.143(3)
H18 H 0.97(1) 0.246(4) -0.309(6)
H19 H -0.080(3) 0.507(7) 0.14(1)
H20 H 0.86(1) -0.006(7) 0.082(4)
O4A O 0.2548(6) 0.5078(5) -0.0909(6)
O6A O 1.0724(6) -0.0425(5) -0.2439(6)
O7_2 O 0.8401(6) 0.0060(5) -0.5243(6)
O11A O 0.3908(6) 0.1358(5) 0.0925(7)
O14A O -0.0752(7) 0.5756(5) 0.6312(8)
O15A O 0.2748(7) 0.5998(6) 0.6802(7)
O16A O 0.0905(8) 0.8043(5) 0.5833(7)
Zn1A Zn 0.6857(1) 0.55117(8) -0.0936(1)
Zn2A Zn 1.0955(1) -0.03307(8) 0.3215(1)
Zn2_2 Zn 0.9045(1) 0.03307(8) 0.6785(1)
Zn3A Zn 0.4026(1) -0.14753(8) -0.1044(1)
Zn4A Zn -0.0990(1) 0.35122(8) 0.4142(1)
Zn4A_2 Zn 0.9010(1) 0.35122(8) 0.4142(1)
O19 O 0.9465(8) 0.2273(6) 0.0391(8)
N1 N 0.6596(9) 0.8311(7) 0.4276(9)
N2 N 0.4855(9) 0.6729(6) 0.3619(9)
C1 C 0.517(1) 0.864(1) 0.443(2)
C2 C 0.410(1) 0.770(1) 0.401(2)
C3 C 0.701(2) 0.739(1) 0.517(2)
C4 C 0.587(2) 0.643(1) 0.484(1)
C5 C 0.656(2) 0.801(1) 0.275(2)
C6 C 0.557(2) 0.700(1) 0.235(1)
H1 H 0.735(7) 0.890(5) 0.462(9)
H2 H 0.417(8) 0.609(5) 0.327(9)
H3 H 0.52(1) 0.882(6) 0.547(3)
H4 H 0.49(1) 0.930(4) 0.386(6)
H5 H 0.696(8) 0.762(8) 0.619(4)
H6 H 0.802(4) 0.729(8) 0.507(8)
H7 H 0.620(8) 0.857(6) 0.205(8)
H8 H 0.750(5) 0.780(7) 0.255(9)
H9 H 0.355(7) 0.740(7) 0.475(6)
H10 H 0.342(6) 0.780(8) 0.311(5)
H11 H 0.525(8) 0.641(6) 0.560(7)
H12 H 0.633(8) 0.572(4) 0.4819
H13 H 0.468(6) 0.713(6) 0.168(7)
H14 H 0.598(8) 0.632(5) 0.204(8)
loop_
_geom_bond_atom_site_label_1
_geom_bond_atom_site_label_2
_geom_bond_site_symmetry_1
_geom_bond_site_symmetry_2
Zn1 O1 1_555 1_555
Zn2 O5 1_555 1_555
Zn3 O9 1_555 1_555
Zn4 O13 1_555 1_555
P1 O1 1_555 1_555
P2 O6 1_555 1_555
P3 O5 1_555 1_555
P4 O3 1_555 1_555
O2 Zn1 1_555 1_555
O3 Zn1 1_555 1_555
O4 P1 1_555 1_555
O6 Zn2A 1_555 1_555
O7 P2 1_555 1_555
O8 Zn2 1_555 1_555
O9 P3 1_555 1_555
O10 Zn3 1_555 1_555
O11 P3 1_555 1_555
O12 Zn3 1_555 1_555
O13 P4 1_555 1_555
O14 P4 1_555 1_555
O15 P1 1_555 1_555
O16 P2 1_555 1_555
O17 P4 1_555 1_555
O18 P3 1_555 1_555
N1 C1 1_555 1_555
N2 C2 1_555 1_555
C1 C2 1_555 1_555
C2 H9 1_555 1_555
C3 N1 1_555 1_555
C4 N2 1_555 1_555
C5 N1 1_555 1_555
C6 N2 1_555 1_555
H1 N1 1_555 1_555
H2 N2 1_555 1_555
H3 C1 1_555 1_555
H4 C1 1_555 1_555
H5 C3 1_555 1_555
H6 C3 1_555 1_555
H7 C5 1_555 1_555
H8 C5 1_555 1_555
H10 C2 1_555 1_555
H11 C4 1_555 1_555
H12 C4 1_555 1_555
H13 C6 1_555 1_555
H14 C6 1_555 1_555
H15 O2 1_555 1_555
H16 O2 1_555 1_555
H17 O8 1_555 1_555
H18 O8 1_555 1_555
H19 O17 1_555 1_555
H20 O18 1_555 1_555
O4A Zn1 1_555 1_555
O6A Zn2 1_555 1_555
O7_2 Zn2 1_555 1_555
O11A Zn3 1_555 1_555
O14A Zn4 1_555 1_555
O15A Zn4 1_555 1_555
O16A Zn4 1_555 1_555
Zn1A O4 1_555 1_555
Zn2_2 O7 1_555 1_555
Zn3A O11 1_555 1_555
Zn4A O14 1_555 1_555
Zn4A_2 O15 1_555 1_555
P1 O12 1_555 1_555
P2 O10 1_555 1_555
O16 Zn4A_2 1_555 1_555
C3 C4 1_555 1_555
C5 C6 1_555 1_555

#END
