
#######################################################################
#
#                 Cambridge Crystallographic Data Centre
#                                CCDC 
#
#######################################################################
#
# If this CIF has been generated from an entry in the Cambridge 
# Structural Database, then it will include bibliographic, chemical, 
# crystal, experimental, refinement or atomic coordinate data resulting 
# from the CCDC's data processing and validation procedures.
#
#######################################################################

data_BAZGEQ
_chemical_formula_moiety         '(C168 H108 Cu6 N12 O30)n'
_symmetry_cell_setting           tetragonal
_symmetry_space_group_name_H-M   'P 42/n m c'
_symmetry_Int_Tables_number      137
_space_group_name_Hall           '-P 4ac 2a'
loop_
_symmetry_equiv_pos_site_id
_symmetry_equiv_pos_as_xyz
1 x,y,z
2 1/2-x,1/2-y,z
3 1/2-y,x,1/2+z
4 y,1/2-x,1/2+z
5 -x,1/2+y,-z
6 1/2+x,-y,-z
7 1/2+y,1/2+x,1/2-z
8 -y,-x,1/2-z
9 -x,-y,-z
10 1/2+x,1/2+y,-z
11 1/2+y,-x,1/2-z
12 -y,1/2+x,1/2-z
13 x,1/2-y,z
14 1/2-x,y,z
15 1/2-y,1/2-x,1/2+z
16 y,x,1/2+z
_cell_length_a                   39.707(3)
_cell_length_b                   39.707(3)
_cell_length_c                   38.342(5)
_cell_angle_alpha                90
_cell_angle_beta                 90
_cell_angle_gamma                90
_cell_volume                     60451.8
loop_
_atom_site_label
_atom_site_type_symbol
_atom_site_fract_x
_atom_site_fract_y
_atom_site_fract_z
Cu1 Cu 0.7500 0.7500 0.95322(5)
Cu2 Cu 0.7500 0.7500 0.88371(5)
Cu3 Cu 0.5396 0.25000(3) 0.68378(4)
Cu4 Cu 0.4725 0.25000(4) 0.68154(4)
O1 O 0.7158(2) 0.7151(2) 0.94823(17)
O2 O 0.71521(16) 0.71529(16) 0.89093(16)
O3 O 0.53353(16) 0.28404(17) 0.71951(15)
O4 O 0.47589(17) 0.28445(17) 0.71803(14)
O5 O 0.28439(18) 0.48085(17) 1.14533(16)
O6 O 0.2845(2) 0.53486(19) 1.1478(2)
O7 O 0.7500 0.7500 1.0161(3)
O8 O 0.7500 0.7500 0.8239(3)
O9 O 0.5977 0.2500(2) 0.6877(2)
O10 O 0.4142 0.25000(18) 0.67604(19)
N1 N 0.4994(3) 0.5328(2) 0.9521(3)
N2 N 0.5229(3) 0.5048(3) 0.9027(2)
N3 N 0.4759(3) 0.4810(3) 0.9306(3)
C1 C 0.5218(3) 0.5304(3) 0.9258(4)
C2 C 0.4993(3) 0.4802(3) 0.9054(3)
C3 C 0.4770(3) 0.5075(4) 0.9528(3)
C4 C 0.5473(4) 0.5575(4) 0.9246(7)
C5 C 0.5508(5) 0.5784(6) 0.9529(4)
H1 H 0.5366 0.5764 0.9721
C6 C 0.5758(5) 0.6024(5) 0.9519(5)
H2 H 0.5803 0.6154 0.9715
C7 C 0.5939(4) 0.6069(4) 0.9219(7)
C8 C 0.5911(4) 0.5848(6) 0.8934(4)
H3 H 0.6054 0.5864 0.8742
C9 C 0.5667(5) 0.5610(4) 0.8947(4)
H4 H 0.5629 0.5471 0.8757
C10 C 0.6225(5) 0.6321(4) 0.9235(4)
C11 C 0.6419(4) 0.6433(4) 0.9532(4)
H5 H 0.6370 0.6343 0.9751
C12 C 0.6684(4) 0.6675(4) 0.9503(5)
H6 H 0.6800 0.6747 0.9701
C13 C 0.6765(3) 0.6802(3) 0.9180(5)
C14 C 0.6585(5) 0.6686(5) 0.8895(3)
H7 H 0.6637 0.6768 0.8674
C15 C 0.6324(4) 0.6446(4) 0.8928(5)
H8 H 0.6217 0.6371 0.8727
C16 C 0.7059(3) 0.7049(3) 0.9212(3)
C17 C 0.4996(7) 0.4527(4) 0.8799(4)
C18 C 0.5268(3) 0.4494(5) 0.8566(6)
H9 H 0.5444 0.4648 0.8577
C19 C 0.5278(4) 0.4242(6) 0.8328(4)
H10 H 0.5451 0.4220 0.8166
C20 C 0.5017(8) 0.4029(4) 0.8344(5)
C21 C 0.4755(3) 0.4051(5) 0.8583(5)
H11 H 0.4589 0.3887 0.8593
C22 C 0.4747(4) 0.4311(6) 0.8796(5)
H12 H 0.4564 0.4341 0.8945
C23 C 0.5014(5) 0.3750(4) 0.8072(4)
C24 C 0.5320(4) 0.3626(3) 0.7979(4)
H13 H 0.5513 0.3710 0.8085
C25 C 0.5348(3) 0.3378(5) 0.7733(4)
H14 H 0.5560 0.3303 0.7666
C26 C 0.5060(6) 0.3238(3) 0.7579(3)
C27 C 0.4733(4) 0.3357(4) 0.7675(4)
H15 H 0.4538 0.3267 0.7578
C28 C 0.4721(4) 0.3614(4) 0.7922(4)
H16 H 0.4513 0.3699 0.7990
C29 C 0.5054(3) 0.2932(3) 0.7284(3)
C30 C 0.4517(4) 0.5075(4) 0.9807(4)
C31 C 0.4254(4) 0.4833(3) 0.9794(3)
H17 H 0.4255 0.4673 0.9616
C32 C 0.3990(4) 0.4826(3) 1.0043(4)
H18 H 0.3819 0.4666 1.0035
C33 C 0.4006(4) 0.5075(5) 1.0302(4)
C34 C 0.4267(4) 0.5318(3) 1.0304(3)
H19 H 0.4264 0.5484 1.0476
C35 C 0.4525(3) 0.5322(3) 1.0065(3)
H20 H 0.4696 0.5481 1.0075
C36 C 0.3723(4) 0.5102(6) 1.0585(4)
C37 C 0.3601(5) 0.4790(5) 1.0689(4)
H21 H 0.3689 0.4591 1.0598
C38 C 0.3339(5) 0.4785(3) 1.0936(5)
H22 H 0.3247 0.4577 1.0997
C39 C 0.3211(3) 0.5070(6) 1.1095(3)
C40 C 0.3345(4) 0.5364(5) 1.0979(4)
H23 H 0.3255 0.5560 1.1076
C41 C 0.3606(4) 0.5412(4) 1.0729(4)
H24 H 0.3691 0.5622 1.0666
C42 C 0.2964(3) 0.5073(4) 1.1363(3)
Cu3A Cu 0.9604 1.25000(3) 0.68378(4)
Cu3B Cu 0.25000(3) 0.5396 1.18378(4)
Cu3C Cu 1.25000(3) 0.9604 1.18378(4)
Cu3_2 Cu 0.5396 1.25000(3) 0.68378(4)
Cu3C_2 Cu 0.25000(3) 0.9604 1.18378(4)
Cu3A_2 Cu 0.9604 0.25000(3) 0.68378(4)
Cu3B_2 Cu 1.25000(3) 0.5396 1.18378(4)
Cu4A Cu 1.0275 1.25000(4) 0.68154(4)
Cu4B Cu 0.25000(4) 0.4725 1.18154(4)
Cu4C Cu 1.25000(4) 1.0275 1.18154(4)
Cu4_2 Cu 0.4725 1.25000(4) 0.68154(4)
Cu4C_2 Cu 0.25000(4) 1.0275 1.18154(4)
Cu4A_2 Cu 1.0275 0.25000(4) 0.68154(4)
Cu4B_2 Cu 1.25000(4) 0.4725 1.18154(4)
O1A O 0.7842(2) 0.7849(2) 0.94823(17)
O1L O 0.7158(2) 0.7849(2) 0.94823(17)
O1M O 0.7842(2) 0.7151(2) 0.94823(17)
O2A O 0.78479(16) 0.78471(16) 0.89093(16)
O2L O 0.71521(16) 0.78471(16) 0.89093(16)
O2M O 0.78479(16) 0.71529(16) 0.89093(16)
O3A O 0.96647(16) 1.21596(17) 0.71951(15)
O3L O 0.53353(16) 1.21596(17) 0.71951(15)
O3M O 0.96647(16) 0.28404(17) 0.71951(15)
O3L_2 O 0.53353(16) 0.21596(17) 0.71951(15)
O3M_2 O 0.96647(16) 1.28404(17) 0.71951(15)
O4A O 1.02411(17) 1.21555(17) 0.71803(14)
O4L O 0.47589(17) 1.21555(17) 0.71803(14)
O4M O 1.02411(17) 0.28445(17) 0.71803(14)
O4L_2 O 0.47589(17) 0.21555(17) 0.71803(14)
O4M_2 O 1.02411(17) 1.28445(17) 0.71803(14)
O5A O 1.21561(18) 1.01915(17) 1.14533(16)
O5L O 0.28439(18) 1.01915(17) 1.14533(16)
O5M O 1.21561(18) 0.48085(17) 1.14533(16)
O5C O 0.48085(17) 0.21561(18) 0.64533(16)
O5O O 0.48085(17) 0.28439(18) 0.64533(16)
O5B O 1.01915(17) 1.28439(18) 0.64533(16)
O5N O 1.01915(17) 1.21561(18) 0.64533(16)
O6A O 1.2155(2) 0.96514(19) 1.1478(2)
O6L O 0.2845(2) 0.96514(19) 1.1478(2)
O6M O 1.2155(2) 0.53486(19) 1.1478(2)
O6C O 0.53486(19) 0.2155(2) 0.6478(2)
O6O O 0.53486(19) 0.2845(2) 0.6478(2)
O6B O 0.96514(19) 1.2845(2) 0.6478(2)
O6N O 0.96514(19) 1.2155(2) 0.6478(2)
O9A O 0.9023 1.2500(2) 0.6877(2)
O10A O 1.0858 1.25000(18) 0.67604(19)
N1A N 1.0006(3) 0.9672(2) 0.9521(3)
N1L N 0.4994(3) 0.9672(2) 0.9521(3)
N1M N 1.0006(3) 0.5328(2) 0.9521(3)
N2A N 0.9771(3) 0.9952(3) 0.9027(2)
N2L N 0.5229(3) 0.9952(3) 0.9027(2)
N2M N 0.9771(3) 0.5048(3) 0.9027(2)
N3A N 1.0241(3) 1.0190(3) 0.9306(3)
N3L N 0.4759(3) 1.0190(3) 0.9306(3)
N3M N 1.0241(3) 0.4810(3) 0.9306(3)
C1A C 0.9782(3) 0.9696(3) 0.9258(4)
C1L C 0.5218(3) 0.9696(3) 0.9258(4)
C1M C 0.9782(3) 0.5304(3) 0.9258(4)
C2A C 1.0007(3) 1.0198(3) 0.9054(3)
C2L C 0.4993(3) 1.0198(3) 0.9054(3)
C2M C 1.0007(3) 0.4802(3) 0.9054(3)
C3A C 1.0230(3) 0.9925(4) 0.9528(3)
C3L C 0.4770(3) 0.9925(4) 0.9528(3)
C3M C 1.0230(3) 0.5075(4) 0.9528(3)
C4A C 0.9527(4) 0.9425(4) 0.9246(7)
C4L C 0.5473(4) 0.9425(4) 0.9246(7)
C4M C 0.9527(4) 0.5575(4) 0.9246(7)
C5A C 0.9492(5) 0.9216(6) 0.9529(4)
C5L C 0.5508(5) 0.9216(6) 0.9529(4)
C5M C 0.9492(5) 0.5784(6) 0.9529(4)
H1A H 0.9634 0.9236 0.9721
H1L H 0.5366 0.9236 0.9721
H1M H 0.9634 0.5764 0.9721
C6A C 0.9242(5) 0.8976(5) 0.9519(5)
C6L C 0.5758(5) 0.8976(5) 0.9519(5)
C6M C 0.9242(5) 0.6024(5) 0.9519(5)
H2A H 0.9197 0.8846 0.9715
H2L H 0.5803 0.8846 0.9715
H2M H 0.9197 0.6154 0.9715
C7A C 0.9061(4) 0.8931(4) 0.9219(7)
C7L C 0.5939(4) 0.8931(4) 0.9219(7)
C7M C 0.9061(4) 0.6069(4) 0.9219(7)
C8A C 0.9089(4) 0.9152(6) 0.8934(4)
C8L C 0.5911(4) 0.9152(6) 0.8934(4)
C8M C 0.9089(4) 0.5848(6) 0.8934(4)
H3A H 0.8946 0.9136 0.8742
H3L H 0.6054 0.9136 0.8742
H3M H 0.8946 0.5864 0.8742
C9A C 0.9333(5) 0.9390(4) 0.8947(4)
C9L C 0.5667(5) 0.9390(4) 0.8947(4)
C9M C 0.9333(5) 0.5610(4) 0.8947(4)
H4A H 0.9371 0.9529 0.8757
H4L H 0.5629 0.9529 0.8757
H4M H 0.9371 0.5471 0.8757
C10A C 0.8775(5) 0.8679(4) 0.9235(4)
C10L C 0.6225(5) 0.8679(4) 0.9235(4)
C10M C 0.8775(5) 0.6321(4) 0.9235(4)
C11A C 0.8581(4) 0.8567(4) 0.9532(4)
C11L C 0.6419(4) 0.8567(4) 0.9532(4)
C11M C 0.8581(4) 0.6433(4) 0.9532(4)
H5A H 0.8630 0.8657 0.9751
H5L H 0.6370 0.8657 0.9751
H5M H 0.8630 0.6343 0.9751
C12A C 0.8316(4) 0.8325(4) 0.9503(5)
C12L C 0.6684(4) 0.8325(4) 0.9503(5)
C12M C 0.8316(4) 0.6675(4) 0.9503(5)
H6A H 0.8200 0.8253 0.9701
H6L H 0.6800 0.8253 0.9701
H6M H 0.8200 0.6747 0.9701
C13A C 0.8235(3) 0.8198(3) 0.9180(5)
C13L C 0.6765(3) 0.8198(3) 0.9180(5)
C13M C 0.8235(3) 0.6802(3) 0.9180(5)
C14A C 0.8415(5) 0.8314(5) 0.8895(3)
C14L C 0.6585(5) 0.8314(5) 0.8895(3)
C14M C 0.8415(5) 0.6686(5) 0.8895(3)
H7A H 0.8363 0.8232 0.8674
H7L H 0.6637 0.8232 0.8674
H7M H 0.8363 0.6768 0.8674
C15A C 0.8676(4) 0.8554(4) 0.8928(5)
C15L C 0.6324(4) 0.8554(4) 0.8928(5)
C15M C 0.8676(4) 0.6446(4) 0.8928(5)
H8A H 0.8783 0.8629 0.8727
H8L H 0.6217 0.8629 0.8727
H8M H 0.8783 0.6371 0.8727
C16A C 0.7941(3) 0.7951(3) 0.9212(3)
C16L C 0.7059(3) 0.7951(3) 0.9212(3)
C16M C 0.7941(3) 0.7049(3) 0.9212(3)
C17A C 1.0004(7) 1.0473(4) 0.8799(4)
C17L C 0.4996(7) 1.0473(4) 0.8799(4)
C17M C 1.0004(7) 0.4527(4) 0.8799(4)
C18A C 0.9732(3) 1.0506(5) 0.8566(6)
C18L C 0.5268(3) 1.0506(5) 0.8566(6)
C18M C 0.9732(3) 0.4494(5) 0.8566(6)
H9A H 0.9556 1.0352 0.8577
H9L H 0.5444 1.0352 0.8577
H9M H 0.9556 0.4648 0.8577
C19A C 0.9722(4) 1.0758(6) 0.8328(4)
C19L C 0.5278(4) 1.0758(6) 0.8328(4)
C19M C 0.9722(4) 0.4242(6) 0.8328(4)
H10A H 0.9549 1.0780 0.8166
H10L H 0.5451 1.0780 0.8166
H10M H 0.9549 0.4220 0.8166
C20A C 0.9983(8) 1.0971(4) 0.8344(5)
C20L C 0.5017(8) 1.0971(4) 0.8344(5)
C20M C 0.9983(8) 0.4029(4) 0.8344(5)
C21A C 1.0245(3) 1.0949(5) 0.8583(5)
C21L C 0.4755(3) 1.0949(5) 0.8583(5)
C21M C 1.0245(3) 0.4051(5) 0.8583(5)
H11A H 1.0411 1.1113 0.8593
H11L H 0.4589 1.1113 0.8593
H11M H 1.0411 0.3887 0.8593
C22A C 1.0253(4) 1.0689(6) 0.8796(5)
C22L C 0.4747(4) 1.0689(6) 0.8796(5)
C22M C 1.0253(4) 0.4311(6) 0.8796(5)
H12A H 1.0436 1.0659 0.8945
H12L H 0.4564 1.0659 0.8945
H12M H 1.0436 0.4341 0.8945
C23A C 0.9986(5) 1.1250(4) 0.8072(4)
C23L C 0.5014(5) 1.1250(4) 0.8072(4)
C23M C 0.9986(5) 0.3750(4) 0.8072(4)
C24A C 0.9680(4) 1.1374(3) 0.7979(4)
C24L C 0.5320(4) 1.1374(3) 0.7979(4)
C24M C 0.9680(4) 0.3626(3) 0.7979(4)
H13A H 0.9487 1.1290 0.8085
H13L H 0.5513 1.1290 0.8085
H13M H 0.9487 0.3710 0.8085
C25A C 0.9652(3) 1.1622(5) 0.7733(4)
C25L C 0.5348(3) 1.1622(5) 0.7733(4)
C25M C 0.9652(3) 0.3378(5) 0.7733(4)
H14A H 0.9440 1.1697 0.7666
H14L H 0.5560 1.1697 0.7666
H14M H 0.9440 0.3303 0.7666
C26A C 0.9940(6) 1.1762(3) 0.7579(3)
C26L C 0.5060(6) 1.1762(3) 0.7579(3)
C26M C 0.9940(6) 0.3238(3) 0.7579(3)
C27A C 1.0267(4) 1.1643(4) 0.7675(4)
C27L C 0.4733(4) 1.1643(4) 0.7675(4)
C27M C 1.0267(4) 0.3357(4) 0.7675(4)
H15A H 1.0462 1.1733 0.7578
H15L H 0.4538 1.1733 0.7578
H15M H 1.0462 0.3267 0.7578
C28A C 1.0279(4) 1.1386(4) 0.7922(4)
C28L C 0.4721(4) 1.1386(4) 0.7922(4)
C28M C 1.0279(4) 0.3614(4) 0.7922(4)
H16A H 1.0487 1.1301 0.7990
H16L H 0.4513 1.1301 0.7990
H16M H 1.0487 0.3699 0.7990
C29A C 0.9946(3) 1.2068(3) 0.7284(3)
C29L C 0.5054(3) 1.2068(3) 0.7284(3)
C29M C 0.9946(3) 0.2932(3) 0.7284(3)
C30A C 1.0483(4) 0.9925(4) 0.9807(4)
C30L C 0.4517(4) 0.9925(4) 0.9807(4)
C30M C 1.0483(4) 0.5075(4) 0.9807(4)
C31A C 1.0746(4) 1.0167(3) 0.9794(3)
C31L C 0.4254(4) 1.0167(3) 0.9794(3)
C31M C 1.0746(4) 0.4833(3) 0.9794(3)
H17A H 1.0745 1.0327 0.9616
H17L H 0.4255 1.0327 0.9616
H17M H 1.0745 0.4673 0.9616
C32A C 1.1010(4) 1.0174(3) 1.0043(4)
C32L C 0.3990(4) 1.0174(3) 1.0043(4)
C32M C 1.1010(4) 0.4826(3) 1.0043(4)
H18A H 1.1181 1.0334 1.0035
H18L H 0.3819 1.0334 1.0035
H18M H 1.1181 0.4666 1.0035
C33A C 1.0994(4) 0.9925(5) 1.0302(4)
C33L C 0.4006(4) 0.9925(5) 1.0302(4)
C33M C 1.0994(4) 0.5075(5) 1.0302(4)
C34A C 1.0733(4) 0.9682(3) 1.0304(3)
C34L C 0.4267(4) 0.9682(3) 1.0304(3)
C34M C 1.0733(4) 0.5318(3) 1.0304(3)
H19A H 1.0736 0.9516 1.0476
H19L H 0.4264 0.9516 1.0476
H19M H 1.0736 0.5484 1.0476
C35A C 1.0475(3) 0.9678(3) 1.0065(3)
C35L C 0.4525(3) 0.9678(3) 1.0065(3)
C35M C 1.0475(3) 0.5322(3) 1.0065(3)
H20A H 1.0304 0.9519 1.0075
H20L H 0.4696 0.9519 1.0075
H20M H 1.0304 0.5481 1.0075
C36A C 1.1277(4) 0.9898(6) 1.0585(4)
C36L C 0.3723(4) 0.9898(6) 1.0585(4)
C36M C 1.1277(4) 0.5102(6) 1.0585(4)
C37A C 1.1399(5) 1.0210(5) 1.0689(4)
C37L C 0.3601(5) 1.0210(5) 1.0689(4)
C37M C 1.1399(5) 0.4790(5) 1.0689(4)
H21A H 1.1311 1.0409 1.0598
H21L H 0.3689 1.0409 1.0598
H21M H 1.1311 0.4591 1.0598
C38A C 1.1661(5) 1.0215(3) 1.0936(5)
C38L C 0.3339(5) 1.0215(3) 1.0936(5)
C38M C 1.1661(5) 0.4785(3) 1.0936(5)
H22A H 1.1753 1.0423 1.0997
H22L H 0.3247 1.0423 1.0997
H22M H 1.1753 0.4577 1.0997
C39A C 1.1789(3) 0.9930(6) 1.1095(3)
C39L C 0.3211(3) 0.9930(6) 1.1095(3)
C39M C 1.1789(3) 0.5070(6) 1.1095(3)
C40A C 1.1655(4) 0.9636(5) 1.0979(4)
C40L C 0.3345(4) 0.9636(5) 1.0979(4)
C40M C 1.1655(4) 0.5364(5) 1.0979(4)
H23A H 1.1745 0.9440 1.1076
H23L H 0.3255 0.9440 1.1076
H23M H 1.1745 0.5560 1.1076
C41A C 1.1394(4) 0.9588(4) 1.0729(4)
C41L C 0.3606(4) 0.9588(4) 1.0729(4)
C41M C 1.1394(4) 0.5412(4) 1.0729(4)
H24A H 1.1309 0.9378 1.0666
H24L H 0.3691 0.9378 1.0666
H24M H 1.1309 0.5622 1.0666
C42A C 1.2036(3) 0.9927(4) 1.1363(3)
C42L C 0.2964(3) 0.9927(4) 1.1363(3)
C42M C 1.2036(3) 0.5073(4) 1.1363(3)
loop_
_geom_bond_atom_site_label_1
_geom_bond_atom_site_label_2
_geom_bond_site_symmetry_1
_geom_bond_site_symmetry_2
Cu1 O1 1_555 1_555
Cu2 O2 1_555 1_555
Cu3 O3 1_555 1_555
Cu4 O4 1_555 1_555
O1 C16 1_555 1_555
O2 C16 1_555 1_555
O3 C29 1_555 1_555
O4 C29 1_555 1_555
O5 C42 1_555 1_555
O6 C42 1_555 1_555
O7 Cu1 1_555 1_555
O8 Cu2 1_555 1_555
O9 Cu3 1_555 1_555
O10 Cu4 1_555 1_555
N1 C1 1_555 1_555
N2 C1 1_555 1_555
N3 C2 1_555 1_555
C1 C4 1_555 1_555
C2 N2 1_555 1_555
C3 N1 1_555 1_555
C4 C5 1_555 1_555
C5 H1 1_555 1_555
C6 C5 1_555 1_555
H2 C6 1_555 1_555
C7 C6 1_555 1_555
C8 C7 1_555 1_555
H3 C8 1_555 1_555
C9 C4 1_555 1_555
H4 C9 1_555 1_555
C10 C7 1_555 1_555
C11 C10 1_555 1_555
H5 C11 1_555 1_555
C12 C11 1_555 1_555
H6 C12 1_555 1_555
C13 C12 1_555 1_555
C14 C13 1_555 1_555
H7 C14 1_555 1_555
C15 C10 1_555 1_555
H8 C15 1_555 1_555
C16 C13 1_555 1_555
C17 C2 1_555 1_555
C18 C17 1_555 1_555
H9 C18 1_555 1_555
C19 C18 1_555 1_555
H10 C19 1_555 1_555
C20 C19 1_555 1_555
C21 C20 1_555 1_555
H11 C21 1_555 1_555
C22 C17 1_555 1_555
H12 C22 1_555 1_555
C23 C20 1_555 1_555
C24 C23 1_555 1_555
H13 C24 1_555 1_555
C25 C24 1_555 1_555
H14 C25 1_555 1_555
C26 C25 1_555 1_555
C27 C26 1_555 1_555
H15 C27 1_555 1_555
C28 C23 1_555 1_555
H16 C28 1_555 1_555
C29 C26 1_555 1_555
C30 C3 1_555 1_555
C31 C30 1_555 1_555
H17 C31 1_555 1_555
C32 C31 1_555 1_555
H18 C32 1_555 1_555
C33 C32 1_555 1_555
C34 C33 1_555 1_555
H19 C34 1_555 1_555
C35 C30 1_555 1_555
H20 C35 1_555 1_555
C36 C33 1_555 1_555
C37 C36 1_555 1_555
H21 C37 1_555 1_555
C38 C37 1_555 1_555
H22 C38 1_555 1_555
C39 C38 1_555 1_555
C40 C39 1_555 1_555
H23 C40 1_555 1_555
C41 C36 1_555 1_555
H24 C41 1_555 1_555
C42 C39 1_555 1_555
Cu3A O3A 1_555 1_555
Cu3B O6 1_555 1_555
Cu3C O6A 1_555 1_555
Cu3_2 O3L 1_555 1_555
Cu3C_2 O6L 1_555 1_555
Cu3A_2 O3M 1_555 1_555
Cu3B_2 O6M 1_555 1_555
Cu4A O4A 1_555 1_555
Cu4B O5 1_555 1_555
Cu4C O5A 1_555 1_555
Cu4_2 O4L 1_555 1_555
Cu4C_2 O5L 1_555 1_555
Cu4A_2 O4M 1_555 1_555
Cu4B_2 O5M 1_555 1_555
O1A Cu1 1_555 1_555
O1L Cu1 1_555 1_555
O1M Cu1 1_555 1_555
O2A Cu2 1_555 1_555
O2L Cu2 1_555 1_555
O2M Cu2 1_555 1_555
O3A C29A 1_555 1_555
O3L C29L 1_555 1_555
O3M C29M 1_555 1_555
O3L_2 Cu3 1_555 1_555
O3M_2 Cu3A 1_555 1_555
O4A C29A 1_555 1_555
O4L C29L 1_555 1_555
O4M C29M 1_555 1_555
O4L_2 Cu4 1_555 1_555
O4M_2 Cu4A 1_555 1_555
O5A C42A 1_555 1_555
O5L C42L 1_555 1_555
O5M C42M 1_555 1_555
O5C Cu4 1_555 1_555
O5O Cu4 1_555 1_555
O5B Cu4A 1_555 1_555
O5N Cu4A 1_555 1_555
O6A C42A 1_555 1_555
O6L C42L 1_555 1_555
O6M C42M 1_555 1_555
O6C Cu3 1_555 1_555
O6O Cu3 1_555 1_555
O6B Cu3A 1_555 1_555
O6N Cu3A 1_555 1_555
O9A Cu3A 1_555 1_555
O10A Cu4A 1_555 1_555
N1A C1A 1_555 1_555
N1L C1L 1_555 1_555
N1M C1M 1_555 1_555
N2A C1A 1_555 1_555
N2L C1L 1_555 1_555
N2M C1M 1_555 1_555
N3A C2A 1_555 1_555
N3L C2L 1_555 1_555
N3M C2M 1_555 1_555
C1A C4A 1_555 1_555
C1L C4L 1_555 1_555
C1M C4M 1_555 1_555
C2A N2A 1_555 1_555
C2L N2L 1_555 1_555
C2M N2M 1_555 1_555
C3A N1A 1_555 1_555
C3L N1L 1_555 1_555
C3M N1M 1_555 1_555
C4A C5A 1_555 1_555
C4L C5L 1_555 1_555
C4M C5M 1_555 1_555
C5A H1A 1_555 1_555
C5L H1L 1_555 1_555
C5M H1M 1_555 1_555
C6A C5A 1_555 1_555
C6L C5L 1_555 1_555
C6M C5M 1_555 1_555
H2A C6A 1_555 1_555
H2L C6L 1_555 1_555
H2M C6M 1_555 1_555
C7A C6A 1_555 1_555
C7L C6L 1_555 1_555
C7M C6M 1_555 1_555
C8A C7A 1_555 1_555
C8L C7L 1_555 1_555
C8M C7M 1_555 1_555
H3A C8A 1_555 1_555
H3L C8L 1_555 1_555
H3M C8M 1_555 1_555
C9A C4A 1_555 1_555
C9L C4L 1_555 1_555
C9M C4M 1_555 1_555
H4A C9A 1_555 1_555
H4L C9L 1_555 1_555
H4M C9M 1_555 1_555
C10A C7A 1_555 1_555
C10L C7L 1_555 1_555
C10M C7M 1_555 1_555
C11A C10A 1_555 1_555
C11L C10L 1_555 1_555
C11M C10M 1_555 1_555
H5A C11A 1_555 1_555
H5L C11L 1_555 1_555
H5M C11M 1_555 1_555
C12A C11A 1_555 1_555
C12L C11L 1_555 1_555
C12M C11M 1_555 1_555
H6A C12A 1_555 1_555
H6L C12L 1_555 1_555
H6M C12M 1_555 1_555
C13A C12A 1_555 1_555
C13L C12L 1_555 1_555
C13M C12M 1_555 1_555
C14A C13A 1_555 1_555
C14L C13L 1_555 1_555
C14M C13M 1_555 1_555
H7A C14A 1_555 1_555
H7L C14L 1_555 1_555
H7M C14M 1_555 1_555
C15A C10A 1_555 1_555
C15L C10L 1_555 1_555
C15M C10M 1_555 1_555
H8A C15A 1_555 1_555
H8L C15L 1_555 1_555
H8M C15M 1_555 1_555
C16A O1A 1_555 1_555
C16L O1L 1_555 1_555
C16M O1M 1_555 1_555
C17A C2A 1_555 1_555
C17L C2L 1_555 1_555
C17M C2M 1_555 1_555
C18A C17A 1_555 1_555
C18L C17L 1_555 1_555
C18M C17M 1_555 1_555
H9A C18A 1_555 1_555
H9L C18L 1_555 1_555
H9M C18M 1_555 1_555
C19A C18A 1_555 1_555
C19L C18L 1_555 1_555
C19M C18M 1_555 1_555
H10A C19A 1_555 1_555
H10L C19L 1_555 1_555
H10M C19M 1_555 1_555
C20A C19A 1_555 1_555
C20L C19L 1_555 1_555
C20M C19M 1_555 1_555
C21A C20A 1_555 1_555
C21L C20L 1_555 1_555
C21M C20M 1_555 1_555
H11A C21A 1_555 1_555
H11L C21L 1_555 1_555
H11M C21M 1_555 1_555
C22A C17A 1_555 1_555
C22L C17L 1_555 1_555
C22M C17M 1_555 1_555
H12A C22A 1_555 1_555
H12L C22L 1_555 1_555
H12M C22M 1_555 1_555
C23A C20A 1_555 1_555
C23L C20L 1_555 1_555
C23M C20M 1_555 1_555
C24A C23A 1_555 1_555
C24L C23L 1_555 1_555
C24M C23M 1_555 1_555
H13A C24A 1_555 1_555
H13L C24L 1_555 1_555
H13M C24M 1_555 1_555
C25A C24A 1_555 1_555
C25L C24L 1_555 1_555
C25M C24M 1_555 1_555
H14A C25A 1_555 1_555
H14L C25L 1_555 1_555
H14M C25M 1_555 1_555
C26A C25A 1_555 1_555
C26L C25L 1_555 1_555
C26M C25M 1_555 1_555
C27A C26A 1_555 1_555
C27L C26L 1_555 1_555
C27M C26M 1_555 1_555
H15A C27A 1_555 1_555
H15L C27L 1_555 1_555
H15M C27M 1_555 1_555
C28A C23A 1_555 1_555
C28L C23L 1_555 1_555
C28M C23M 1_555 1_555
H16A C28A 1_555 1_555
H16L C28L 1_555 1_555
H16M C28M 1_555 1_555
C29A C26A 1_555 1_555
C29L C26L 1_555 1_555
C29M C26M 1_555 1_555
C30A C3A 1_555 1_555
C30L C3L 1_555 1_555
C30M C3M 1_555 1_555
C31A C30A 1_555 1_555
C31L C30L 1_555 1_555
C31M C30M 1_555 1_555
H17A C31A 1_555 1_555
H17L C31L 1_555 1_555
H17M C31M 1_555 1_555
C32A C31A 1_555 1_555
C32L C31L 1_555 1_555
C32M C31M 1_555 1_555
H18A C32A 1_555 1_555
H18L C32L 1_555 1_555
H18M C32M 1_555 1_555
C33A C32A 1_555 1_555
C33L C32L 1_555 1_555
C33M C32M 1_555 1_555
C34A C33A 1_555 1_555
C34L C33L 1_555 1_555
C34M C33M 1_555 1_555
H19A C34A 1_555 1_555
H19L C34L 1_555 1_555
H19M C34M 1_555 1_555
C35A C30A 1_555 1_555
C35L C30L 1_555 1_555
C35M C30M 1_555 1_555
H20A C35A 1_555 1_555
H20L C35L 1_555 1_555
H20M C35M 1_555 1_555
C36A C33A 1_555 1_555
C36L C33L 1_555 1_555
C36M C33M 1_555 1_555
C37A C36A 1_555 1_555
C37L C36L 1_555 1_555
C37M C36M 1_555 1_555
H21A C37A 1_555 1_555
H21L C37L 1_555 1_555
H21M C37M 1_555 1_555
C38A C37A 1_555 1_555
C38L C37L 1_555 1_555
C38M C37M 1_555 1_555
H22A C38A 1_555 1_555
H22L C38L 1_555 1_555
H22M C38M 1_555 1_555
C39A C38A 1_555 1_555
C39L C38L 1_555 1_555
C39M C38M 1_555 1_555
C40A C39A 1_555 1_555
C40L C39L 1_555 1_555
C40M C39M 1_555 1_555
H23A C40A 1_555 1_555
H23L C40L 1_555 1_555
H23M C40M 1_555 1_555
C41A C36A 1_555 1_555
C41L C36L 1_555 1_555
C41M C36M 1_555 1_555
H24A C41A 1_555 1_555
H24L C41L 1_555 1_555
H24M C41M 1_555 1_555
C42A C39A 1_555 1_555
C42L C39L 1_555 1_555
C42M C39M 1_555 1_555
N3 C3 1_555 1_555
C8 C9 1_555 1_555
C14 C15 1_555 1_555
C21 C22 1_555 1_555
C27 C28 1_555 1_555
C34 C35 1_555 1_555
C40 C41 1_555 1_555
O2A C16A 1_555 1_555
O2L C16L 1_555 1_555
O2M C16M 1_555 1_555
N3A C3A 1_555 1_555
N3L C3L 1_555 1_555
N3M C3M 1_555 1_555
C8A C9A 1_555 1_555
C8L C9L 1_555 1_555
C8M C9M 1_555 1_555
C13A C16A 1_555 1_555
C13L C16L 1_555 1_555
C13M C16M 1_555 1_555
C14A C15A 1_555 1_555
C14L C15L 1_555 1_555
C14M C15M 1_555 1_555
C21A C22A 1_555 1_555
C21L C22L 1_555 1_555
C21M C22M 1_555 1_555
C27A C28A 1_555 1_555
C27L C28L 1_555 1_555
C27M C28M 1_555 1_555
C34A C35A 1_555 1_555
C34L C35L 1_555 1_555
C34M C35M 1_555 1_555
C40A C41A 1_555 1_555
C40L C41L 1_555 1_555
C40M C41M 1_555 1_555

#END
