
#######################################################################
#
#                 Cambridge Crystallographic Data Centre
#                                CCDC 
#
#######################################################################
#
# If this CIF has been generated from an entry in the Cambridge 
# Structural Database, then it will include bibliographic, chemical, 
# crystal, experimental, refinement or atomic coordinate data resulting 
# from the CCDC's data processing and validation procedures.
#
#######################################################################

data_LIJNOJ01
_chemical_formula_moiety         '(C51 H39 Mn2 N5 O9)n'
_symmetry_cell_setting           monoclinic
_symmetry_space_group_name_H-M   'P 21/c'
_symmetry_Int_Tables_number      14
_space_group_name_Hall           '-P 2ybc'
loop_
_symmetry_equiv_pos_site_id
_symmetry_equiv_pos_as_xyz
1 x,y,z
2 -x,1/2+y,1/2-z
3 -x,-y,-z
4 x,1/2-y,1/2+z
_cell_length_a                   17.5515(14)
_cell_length_b                   14.2875(12)
_cell_length_c                   18.7456(15)
_cell_angle_alpha                90
_cell_angle_beta                 97.4360(10)
_cell_angle_gamma                90
_cell_volume                     4661.25
loop_
_atom_site_label
_atom_site_type_symbol
_atom_site_fract_x
_atom_site_fract_y
_atom_site_fract_z
Mn1 Mn 0.61625(3) 0.42877(3) 0.99503(2)
Mn2 Mn 0.86809(3) 0.57665(3) 0.99526(2)
N1 N 0.67734(15) 0.31450(19) 0.93175(14)
O1 O 0.81902(13) 0.02526(16) 0.55842(12)
O2 O 0.71168(12) 0.09745(16) 0.57963(12)
C1 C 0.77789(17) 0.0667(2) 0.59802(16)
C2 C 0.81200(18) 0.0838(2) 0.67590(17)
C3 C 0.77181(18) 0.1349(2) 0.72134(17)
H1 H 0.7228 0.1583 0.7040
C4 C 0.8028(2) 0.1525(2) 0.79267(18)
C5 C 0.8758(2) 0.1177(3) 0.8166(2)
H2 H 0.8983 0.1302 0.8639
C6 C 0.9154(2) 0.0652(3) 0.7719(2)
H3 H 0.9642 0.0413 0.7893
C7 C 0.8839(2) 0.0473(3) 0.70132(19)
H4 H 0.9109 0.0110 0.6711
C8 C 0.6426(2) 0.2495(2) 0.88742(18)
H5 H 0.5895 0.2401 0.8872
C9 C 0.6806(2) 0.1952(2) 0.84187(18)
H6 H 0.6534 0.1505 0.8117
C10 C 0.75941(19) 0.2072(2) 0.84102(17)
C11 C 0.7956(2) 0.2726(2) 0.88914(18)
H7 H 0.8490 0.2813 0.8925
C12 C 0.75332(19) 0.3246(2) 0.93178(18)
H8 H 0.7791 0.3695 0.9626
N2 N 0.54667(16) 0.1631(2) 0.56534(15)
O3 O 0.41321(13) 0.45687(16) 0.93929(12)
O4 O 0.52415(12) 0.40372(16) 0.90899(12)
C13 C 0.45392(18) 0.4220(2) 0.89601(16)
C14 C 0.41505(18) 0.3967(2) 0.82127(17)
C15 C 0.45475(18) 0.3469(2) 0.77391(17)
H9 H 0.5062 0.3298 0.7882
C16 C 0.41927(19) 0.3220(2) 0.70539(17)
C17 C 0.3434(2) 0.3500(3) 0.68424(19)
H10 H 0.3193 0.3350 0.6379
C18 C 0.3036(2) 0.3995(3) 0.7309(2)
H11 H 0.2525 0.4178 0.7163
C19 C 0.33903(19) 0.4225(3) 0.79954(19)
H12 H 0.3115 0.4555 0.8313
C20 C 0.5569(2) 0.1511(2) 0.63686(19)
H13 H 0.5933 0.1067 0.6564
C21 C 0.5169(2) 0.2003(2) 0.68327(19)
H14 H 0.5264 0.1889 0.7330
C22 C 0.46221(19) 0.2671(2) 0.65645(17)
C23 C 0.4495(2) 0.2761(3) 0.58254(19)
H15 H 0.4118 0.3178 0.5612
C24 C 0.4922(2) 0.2236(2) 0.53989(19)
H16 H 0.4820 0.2311 0.4898
N3 N 1.07156(15) 0.18186(19) 0.57069(14)
O5 O 0.92360(13) 0.46787(15) 0.94136(11)
O6 O 1.03529(12) 0.40654(16) 0.92003(11)
C25 C 0.96777(18) 0.4340(2) 0.90108(16)
C26 C 0.93696(18) 0.4210(2) 0.82231(16)
C27 C 0.97793(18) 0.3691(2) 0.77756(17)
H17 H 1.0265 0.3453 0.7958
C28 C 0.94854(19) 0.3514(2) 0.70607(17)
C29 C 0.8769(2) 0.3888(3) 0.67996(19)
H18 H 0.8557 0.3772 0.6321
C30 C 0.8369(2) 0.4425(3) 0.7238(2)
H19 H 0.7892 0.4684 0.7050
C31 C 0.8661(2) 0.4588(3) 0.79533(18)
H20 H 0.8383 0.4949 0.8250
C32 C 1.10807(19) 0.2435(2) 0.61723(18)
H21 H 1.1617 0.2487 0.6196
C33 C 1.07096(19) 0.2995(2) 0.66164(18)
H22 H 1.0992 0.3415 0.6934
C34 C 0.99137(19) 0.2937(2) 0.65937(17)
C35 C 0.9533(2) 0.2307(2) 0.61027(18)
H23 H 0.8995 0.2257 0.6056
C36 C 0.9946(2) 0.1760(2) 0.56874(19)
H24 H 0.9679 0.1324 0.5374
N4 N 0.80893(15) 0.80721(19) 0.55458(14)
O7 O 0.66441(13) 0.52839(16) 0.92957(12)
O8 O 0.77515(12) 0.59036(16) 0.90710(11)
C37 C 0.70787(17) 0.5617(2) 0.88826(17)
C38 C 0.67728(18) 0.5699(2) 0.80889(17)
C39 C 0.71694(18) 0.6219(2) 0.76310(17)
H25 H 0.7635 0.6508 0.7813
C40 C 0.68854(18) 0.6321(2) 0.68998(17)
C41 C 0.6196(2) 0.5876(3) 0.66384(18)
H26 H 0.5994 0.5941 0.6152
C42 C 0.5810(2) 0.5342(3) 0.70910(19)
H27 H 0.5353 0.5034 0.6906
C43 C 0.60894(19) 0.5255(2) 0.78194(18)
H28 H 0.5819 0.4900 0.8126
C44 C 0.84671(19) 0.7510(2) 0.60451(18)
H29 H 0.9007 0.7509 0.6095
C45 C 0.81090(19) 0.6931(2) 0.64897(18)
H30 H 0.8404 0.6563 0.6837
C46 C 0.73092(19) 0.6895(2) 0.64220(17)
C47 C 0.69202(19) 0.7458(2) 0.58887(18)
H31 H 0.6380 0.7448 0.5810
C48 C 0.7319(2) 0.8031(2) 0.54733(18)
H32 H 0.7038 0.8411 0.5124
Mn1B Mn 0.38375(3) 0.57123(3) 1.00497(2)
Mn1C Mn 0.61625(3) 0.07123(3) 0.49503(2)
Mn2A Mn 1.13191(3) 0.07665(3) 0.50474(2)
Mn2B Mn 1.13191(3) 0.42335(3) 1.00474(2)
Mn2C Mn 0.86809(3) -0.07665(3) 0.49526(2)
Mn2C_2 Mn 0.86809(3) 0.92335(3) 0.49526(2)
O1C O 0.81902(13) 0.47474(16) 1.05842(12)
O2C O 0.71168(12) 0.40255(16) 1.07963(12)
N2C N 0.54667(16) 0.3369(2) 1.06534(15)
O3B O 0.58679(13) 0.54313(16) 1.06071(12)
N3A N 0.92844(15) 0.68186(19) 0.92931(14)
O6B O 0.96471(12) 0.59346(16) 1.07997(11)
N4C N 0.80893(15) 0.69279(19) 1.05458(14)
N5 N 0.6585(2) 0.4239(3) 0.5215(3)
O9 O 0.5738(3) 0.4992(3) 0.4415(3)
C49 C 0.5879(3) 0.4461(4) 0.4916(4)
H33 H 0.5462 0.4187 0.5107
C50 C 0.6695(4) 0.3592(4) 0.5818(4)
H34 H 0.6199 0.3405 0.5946
H35 H 0.6991 0.3895 0.6226
H36 H 0.6969 0.3043 0.5683
C51 C 0.7242(4) 0.4634(6) 0.4962(4)
H37 H 0.7081 0.5038 0.4554
H38 H 0.7564 0.4136 0.4815
H39 H 0.7529 0.4996 0.5343
loop_
_geom_bond_atom_site_label_1
_geom_bond_atom_site_label_2
_geom_bond_site_symmetry_1
_geom_bond_site_symmetry_2
Mn1 N1 1_555 1_555
Mn2 O5 1_555 1_555
N1 C8 1_555 1_555
O1 C1 1_555 1_555
O2 C1 1_555 1_555
C1 C2 1_555 1_555
C2 C3 1_555 1_555
C3 H1 1_555 1_555
C4 C3 1_555 1_555
C5 C4 1_555 1_555
H2 C5 1_555 1_555
C6 C5 1_555 1_555
H3 C6 1_555 1_555
C7 C2 1_555 1_555
H4 C7 1_555 1_555
C8 H5 1_555 1_555
C9 C8 1_555 1_555
H6 C9 1_555 1_555
C10 C4 1_555 1_555
C11 C10 1_555 1_555
H7 C11 1_555 1_555
C12 N1 1_555 1_555
H8 C12 1_555 1_555
N2 C20 1_555 1_555
O3 C13 1_555 1_555
O4 Mn1 1_555 1_555
C13 O4 1_555 1_555
C14 C13 1_555 1_555
C15 C14 1_555 1_555
H9 C15 1_555 1_555
C16 C15 1_555 1_555
C17 C16 1_555 1_555
H10 C17 1_555 1_555
C18 C17 1_555 1_555
H11 C18 1_555 1_555
C19 C14 1_555 1_555
H12 C19 1_555 1_555
C20 H13 1_555 1_555
C21 C20 1_555 1_555
H14 C21 1_555 1_555
C22 C16 1_555 1_555
C23 C22 1_555 1_555
H15 C23 1_555 1_555
C24 N2 1_555 1_555
H16 C24 1_555 1_555
N3 C32 1_555 1_555
O5 C25 1_555 1_555
O6 C25 1_555 1_555
C25 C26 1_555 1_555
C26 C27 1_555 1_555
C27 H17 1_555 1_555
C28 C27 1_555 1_555
C29 C28 1_555 1_555
H18 C29 1_555 1_555
C30 C29 1_555 1_555
H19 C30 1_555 1_555
C31 C26 1_555 1_555
H20 C31 1_555 1_555
C32 H21 1_555 1_555
C33 C32 1_555 1_555
H22 C33 1_555 1_555
C34 C28 1_555 1_555
C35 C34 1_555 1_555
H23 C35 1_555 1_555
C36 N3 1_555 1_555
H24 C36 1_555 1_555
N4 C44 1_555 1_555
O7 Mn1 1_555 1_555
O8 Mn2 1_555 1_555
C37 O7 1_555 1_555
C38 C37 1_555 1_555
C39 C38 1_555 1_555
H25 C39 1_555 1_555
C40 C39 1_555 1_555
C41 C40 1_555 1_555
H26 C41 1_555 1_555
C42 C41 1_555 1_555
H27 C42 1_555 1_555
C43 C38 1_555 1_555
H28 C43 1_555 1_555
C44 H29 1_555 1_555
C45 C44 1_555 1_555
H30 C45 1_555 1_555
C46 C40 1_555 1_555
C47 C46 1_555 1_555
H31 C47 1_555 1_555
C48 N4 1_555 1_555
H32 C48 1_555 1_555
N5 C49 1_555 1_555
O9 C49 1_555 1_555
C49 H33 1_555 1_555
C50 N5 1_555 1_555
H34 C50 1_555 1_555
H35 C50 1_555 1_555
H36 C50 1_555 1_555
C51 N5 1_555 1_555
H37 C51 1_555 1_555
H38 C51 1_555 1_555
H39 C51 1_555 1_555
Mn1B O3 1_555 1_555
Mn1C O2 1_555 1_555
Mn2A N3 1_555 1_555
Mn2B O6 1_555 1_555
Mn2C O1 1_555 1_555
Mn2C_2 N4 1_555 1_555
O1C Mn2 1_555 1_555
O2C Mn1 1_555 1_555
N2C Mn1 1_555 1_555
O3B Mn1 1_555 1_555
N3A Mn2 1_555 1_555
O6B Mn2 1_555 1_555
N4C Mn2 1_555 1_555
C6 C7 1_555 1_555
C9 C10 1_555 1_555
C11 C12 1_555 1_555
N2 Mn1C 1_555 1_555
C18 C19 1_555 1_555
C21 C22 1_555 1_555
C23 C24 1_555 1_555
C30 C31 1_555 1_555
C33 C34 1_555 1_555
C35 C36 1_555 1_555
O8 C37 1_555 1_555
C42 C43 1_555 1_555
C45 C46 1_555 1_555
C47 C48 1_555 1_555

#END
