
#######################################################################
#
#                 Cambridge Crystallographic Data Centre
#                                CCDC 
#
#######################################################################
#
# If this CIF has been generated from an entry in the Cambridge 
# Structural Database, then it will include bibliographic, chemical, 
# crystal, experimental, refinement or atomic coordinate data resulting 
# from the CCDC's data processing and validation procedures.
#
#######################################################################

data_LIJNOJ
_chemical_formula_moiety         '(C51 H39 Mn2 N5 O9)n'
_symmetry_cell_setting           monoclinic
_symmetry_space_group_name_H-M   'P 21/c'
_symmetry_Int_Tables_number      14
_space_group_name_Hall           '-P 2ybc'
loop_
_symmetry_equiv_pos_site_id
_symmetry_equiv_pos_as_xyz
1 x,y,z
2 -x,1/2+y,1/2-z
3 -x,-y,-z
4 x,1/2-y,1/2+z
_cell_length_a                   17.5811(18)
_cell_length_b                   14.0978(14)
_cell_length_c                   18.7871(19)
_cell_angle_alpha                90
_cell_angle_beta                 97.7230(10)
_cell_angle_gamma                90
_cell_volume                     4614.24
loop_
_atom_site_label
_atom_site_type_symbol
_atom_site_fract_x
_atom_site_fract_y
_atom_site_fract_z
Mn1 Mn 0.615423(17) 0.42917(2) 0.994624(17)
Mn2 Mn 0.867552(17) 0.57668(2) 0.994822(17)
N1 N 0.67566(10) 0.31326(13) 0.93197(9)
O1 O 0.81913(8) 0.02675(11) 0.55779(8)
O2 O 0.71076(8) 0.09754(11) 0.57924(8)
C1 C 0.77784(11) 0.06765(15) 0.59772(11)
C2 C 0.81179(12) 0.08453(15) 0.67527(11)
C3 C 0.77125(12) 0.13520(15) 0.72116(12)
H1 H 0.7215 0.1584 0.7038
C4 C 0.80230(12) 0.15274(16) 0.79236(12)
C5 C 0.87612(13) 0.11909(18) 0.81655(13)
H2 H 0.8988 0.1319 0.8644
C6 C 0.91646(14) 0.06733(19) 0.77141(13)
H3 H 0.9661 0.0437 0.7887
C7 C 0.88443(12) 0.04982(17) 0.70080(12)
H4 H 0.9122 0.0141 0.6700
C8 C 0.64150(12) 0.24671(16) 0.88724(12)
H5 H 0.5881 0.2362 0.8867
C9 C 0.67998(12) 0.19276(16) 0.84198(12)
H6 H 0.6530 0.1466 0.8115
C10 C 0.75826(12) 0.20633(16) 0.84113(11)
C11 C 0.79410(13) 0.27345(16) 0.88873(12)
H7 H 0.8478 0.2838 0.8914
C12 C 0.75169(12) 0.32477(16) 0.93186(12)
H8 H 0.7775 0.3708 0.9633
N2 N 0.54589(10) 0.16195(13) 0.56484(10)
O3 O 0.41212(8) 0.45405(11) 0.93935(8)
O4 O 0.52372(8) 0.40370(11) 0.90836(8)
C13 C 0.45275(11) 0.42038(15) 0.89576(11)
C14 C 0.41376(12) 0.39516(15) 0.82099(11)
C15 C 0.45332(12) 0.34543(15) 0.77356(12)
H9 H 0.5051 0.3275 0.7883
C16 C 0.41855(12) 0.32119(16) 0.70465(12)
C17 C 0.34262(12) 0.34976(16) 0.68323(12)
H10 H 0.3182 0.3351 0.6363
C18 C 0.30291(13) 0.39948(17) 0.73036(13)
H11 H 0.2515 0.4188 0.7154
C19 C 0.33791(12) 0.42118(16) 0.79933(12)
H12 H 0.3099 0.4538 0.8317
C20 C 0.55686(12) 0.15001(16) 0.63663(12)
H13 H 0.5944 0.1055 0.6565
C21 C 0.51649(12) 0.19906(16) 0.68280(12)
H14 H 0.5260 0.1871 0.7330
C22 C 0.46143(12) 0.26650(16) 0.65592(12)
C23 C 0.44909(12) 0.27758(16) 0.58177(12)
H15 H 0.4117 0.3213 0.5603
C24 C 0.49177(12) 0.22435(16) 0.53935(12)
H16 H 0.4819 0.2328 0.4888
N3 N 1.07258(10) 0.18314(13) 0.57050(10)
O5 O 0.92325(8) 0.46674(10) 0.94139(8)
O6 O 1.03598(8) 0.40659(11) 0.92025(8)
C25 C 0.96783(11) 0.43324(14) 0.90095(11)
C26 C 0.93740(11) 0.42144(15) 0.82254(11)
C27 C 0.97867(11) 0.36959(15) 0.77757(11)
H17 H 1.0277 0.3450 0.7959
C28 C 0.94905(12) 0.35329(16) 0.70610(12)
C29 C 0.87725(13) 0.39087(17) 0.67943(12)
H18 H 0.8561 0.3796 0.6309
C30 C 0.83718(13) 0.44416(18) 0.72333(13)
H19 H 0.7891 0.4710 0.7044
C31 C 0.86616(12) 0.45927(16) 0.79509(12)
H20 H 0.8376 0.4951 0.8252
C32 C 1.10892(12) 0.24556(16) 0.61732(12)
H21 H 1.1631 0.2512 0.6199
C33 C 1.07190(12) 0.30185(16) 0.66189(12)
H22 H 1.1004 0.3445 0.6944
C34 C 0.99218(12) 0.29577(16) 0.65888(11)
C35 C 0.95442(12) 0.23182(16) 0.60968(12)
H23 H 0.9001 0.2262 0.6048
C36 C 0.99605(12) 0.17681(16) 0.56815(12)
H24 H 0.9693 0.1321 0.5362
N4 N 0.80877(10) 0.80626(13) 0.55365(10)
O7 O 0.66322(8) 0.52969(11) 0.92912(8)
O8 O 0.77492(8) 0.58999(11) 0.90652(8)
C37 C 0.70700(11) 0.56211(15) 0.88780(11)
C38 C 0.67616(11) 0.56943(15) 0.80835(11)
C39 C 0.71610(12) 0.62170(15) 0.76243(11)
H25 H 0.7632 0.6512 0.7809
C40 C 0.68789(12) 0.63130(16) 0.68961(12)
C41 C 0.61879(12) 0.58606(16) 0.66333(12)
H26 H 0.5987 0.5919 0.6140
C42 C 0.57949(12) 0.53296(17) 0.70854(12)
H27 H 0.5330 0.5020 0.6899
C43 C 0.60772(12) 0.52465(16) 0.78117(12)
H28 H 0.5804 0.4885 0.8121
C44 C 0.84657(12) 0.74978(16) 0.60464(12)
H29 H 0.9011 0.7501 0.6104
C45 C 0.81065(12) 0.69151(16) 0.64893(12)
H30 H 0.8402 0.6537 0.6842
C46 C 0.73011(12) 0.68851(15) 0.64147(11)
C47 C 0.69195(12) 0.74438(16) 0.58708(12)
H31 H 0.6375 0.7428 0.5782
C48 C 0.73177(12) 0.80186(17) 0.54597(12)
H32 H 0.7034 0.8404 0.5103
Mn1B Mn 0.384577(17) 0.57083(2) 1.005376(17)
Mn1C Mn 0.615423(17) 0.07083(2) 0.494624(17)
Mn2A Mn 1.132448(17) 0.07668(2) 0.505178(17)
Mn2B Mn 1.132448(17) 0.42332(2) 1.005178(17)
Mn2C Mn 0.867552(17) -0.07668(2) 0.494822(17)
Mn2C_2 Mn 0.867552(17) 0.92332(2) 0.494822(17)
O1C O 0.81913(8) 0.47325(11) 1.05779(8)
O2C O 0.71076(8) 0.40246(11) 1.07924(8)
N2C N 0.54589(10) 0.33805(13) 1.06484(10)
O3B O 0.58788(8) 0.54595(11) 1.06065(8)
N3A N 0.92742(10) 0.68314(13) 0.92950(10)
O6B O 0.96402(8) 0.59341(11) 1.07975(8)
N4C N 0.80877(10) 0.69374(13) 1.05365(10)
N5 N 0.65714(12) 0.42017(16) 0.52447(13)
O9 O 0.57372(13) 0.49793(15) 0.44092(13)
C49 C 0.58756(16) 0.44589(19) 0.49321(18)
H33 H 0.5448 0.4216 0.5134
C50 C 0.66713(17) 0.3570(2) 0.58638(17)
H34 H 0.6167 0.3388 0.5987
H35 H 0.6964 0.3896 0.6273
H36 H 0.6950 0.3000 0.5748
C51 C 0.72532(17) 0.4546(3) 0.49837(19)
H37 H 0.7109 0.4961 0.4569
H38 H 0.7551 0.4009 0.4840
H39 H 0.7564 0.4905 0.5365
loop_
_geom_bond_atom_site_label_1
_geom_bond_atom_site_label_2
_geom_bond_site_symmetry_1
_geom_bond_site_symmetry_2
Mn1 N1 1_555 1_555
Mn2 O5 1_555 1_555
N1 C8 1_555 1_555
O1 C1 1_555 1_555
O2 C1 1_555 1_555
C1 C2 1_555 1_555
C2 C3 1_555 1_555
C3 H1 1_555 1_555
C4 C3 1_555 1_555
C5 C4 1_555 1_555
H2 C5 1_555 1_555
C6 C5 1_555 1_555
H3 C6 1_555 1_555
C7 C2 1_555 1_555
H4 C7 1_555 1_555
C8 H5 1_555 1_555
C9 C8 1_555 1_555
H6 C9 1_555 1_555
C10 C4 1_555 1_555
C11 C10 1_555 1_555
H7 C11 1_555 1_555
C12 N1 1_555 1_555
H8 C12 1_555 1_555
N2 C20 1_555 1_555
O3 C13 1_555 1_555
O4 Mn1 1_555 1_555
C13 O4 1_555 1_555
C14 C13 1_555 1_555
C15 C14 1_555 1_555
H9 C15 1_555 1_555
C16 C15 1_555 1_555
C17 C16 1_555 1_555
H10 C17 1_555 1_555
C18 C17 1_555 1_555
H11 C18 1_555 1_555
C19 C14 1_555 1_555
H12 C19 1_555 1_555
C20 H13 1_555 1_555
C21 C20 1_555 1_555
H14 C21 1_555 1_555
C22 C16 1_555 1_555
C23 C22 1_555 1_555
H15 C23 1_555 1_555
C24 N2 1_555 1_555
H16 C24 1_555 1_555
N3 C32 1_555 1_555
O5 C25 1_555 1_555
O6 C25 1_555 1_555
C25 C26 1_555 1_555
C26 C27 1_555 1_555
C27 H17 1_555 1_555
C28 C27 1_555 1_555
C29 C28 1_555 1_555
H18 C29 1_555 1_555
C30 C29 1_555 1_555
H19 C30 1_555 1_555
C31 C26 1_555 1_555
H20 C31 1_555 1_555
C32 H21 1_555 1_555
C33 C32 1_555 1_555
H22 C33 1_555 1_555
C34 C28 1_555 1_555
C35 C34 1_555 1_555
H23 C35 1_555 1_555
C36 N3 1_555 1_555
H24 C36 1_555 1_555
N4 C44 1_555 1_555
O7 Mn1 1_555 1_555
O8 Mn2 1_555 1_555
C37 O7 1_555 1_555
C38 C37 1_555 1_555
C39 C38 1_555 1_555
H25 C39 1_555 1_555
C40 C39 1_555 1_555
C41 C40 1_555 1_555
H26 C41 1_555 1_555
C42 C41 1_555 1_555
H27 C42 1_555 1_555
C43 C38 1_555 1_555
H28 C43 1_555 1_555
C44 H29 1_555 1_555
C45 C44 1_555 1_555
H30 C45 1_555 1_555
C46 C40 1_555 1_555
C47 C46 1_555 1_555
H31 C47 1_555 1_555
C48 N4 1_555 1_555
H32 C48 1_555 1_555
N5 C49 1_555 1_555
O9 C49 1_555 1_555
C49 H33 1_555 1_555
C50 N5 1_555 1_555
H34 C50 1_555 1_555
H35 C50 1_555 1_555
H36 C50 1_555 1_555
C51 N5 1_555 1_555
H37 C51 1_555 1_555
H38 C51 1_555 1_555
H39 C51 1_555 1_555
Mn1B O3 1_555 1_555
Mn1C O2 1_555 1_555
Mn2A N3 1_555 1_555
Mn2B O6 1_555 1_555
Mn2C O1 1_555 1_555
Mn2C_2 N4 1_555 1_555
O1C Mn2 1_555 1_555
O2C Mn1 1_555 1_555
N2C Mn1 1_555 1_555
O3B Mn1 1_555 1_555
N3A Mn2 1_555 1_555
O6B Mn2 1_555 1_555
N4C Mn2 1_555 1_555
C6 C7 1_555 1_555
C9 C10 1_555 1_555
C11 C12 1_555 1_555
N2 Mn1C 1_555 1_555
C18 C19 1_555 1_555
C21 C22 1_555 1_555
C23 C24 1_555 1_555
C30 C31 1_555 1_555
C33 C34 1_555 1_555
C35 C36 1_555 1_555
O8 C37 1_555 1_555
C42 C43 1_555 1_555
C45 C46 1_555 1_555
C47 C48 1_555 1_555

#END
