
#######################################################################
#
#                 Cambridge Crystallographic Data Centre
#                                CCDC 
#
#######################################################################
#
# If this CIF has been generated from an entry in the Cambridge 
# Structural Database, then it will include bibliographic, chemical, 
# crystal, experimental, refinement or atomic coordinate data resulting 
# from the CCDC's data processing and validation procedures.
#
#######################################################################

data_PIHJOH02
_chemical_formula_moiety         '(C24 H16 Mn1 N2 O4)n'
_symmetry_cell_setting           monoclinic
_symmetry_space_group_name_H-M   'I 2/a'
_symmetry_Int_Tables_number      15
_space_group_name_Hall           '-I 2ya'
loop_
_symmetry_equiv_pos_site_id
_symmetry_equiv_pos_as_xyz
1 x,y,z
2 1/2-x,y,-z
3 1/2+x,1/2+y,1/2+z
4 -x,1/2+y,1/2-z
5 -x,-y,-z
6 1/2+x,-y,z
7 1/2-x,1/2-y,1/2-z
8 x,1/2-y,1/2+z
_cell_length_a                   8.5203(9)
_cell_length_b                   15.0866(17)
_cell_length_c                   18.313(2)
_cell_angle_alpha                90
_cell_angle_beta                 97.9420(10)
_cell_angle_gamma                90
_cell_volume                     2331.42
loop_
_atom_site_label
_atom_site_type_symbol
_atom_site_fract_x
_atom_site_fract_y
_atom_site_fract_z
Mn1 Mn 0.7500 0.92199(2) 0.5000
N1 N 0.62421(18) 0.81696(10) 0.56345(8)
O1 O 0.83755(15) 1.02218(9) 0.43306(7)
O2 O 0.94664(14) 0.90473(9) 0.58671(7)
C1 C 0.9189(2) 1.06374(11) 0.39305(9)
C2 C 0.8488(2) 1.08057(11) 0.31384(10)
C3 C 0.9308(2) 1.13127(11) 0.26823(9)
C4 C 0.7016(2) 1.04693(16) 0.28594(12)
H1 H 1.0304 1.1533 0.2866
C5 C 0.8674(2) 1.14988(12) 0.19563(10)
H2 H 0.6457 1.0126 0.3157
C6 C 0.6373(3) 1.06442(19) 0.21354(14)
C7 C 0.9562(2) 1.20548(12) 0.14864(9)
C8 C 0.7186(3) 1.11582(17) 0.16916(12)
H3 H 0.5387 1.0413 0.1949
C9 C 1.1204(2) 1.20000(14) 0.15167(11)
C10 C 0.8796(2) 1.26805(13) 0.10077(11)
H4 H 0.6735 1.1279 0.1210
C11 C 1.1969(2) 1.25546(13) 0.10843(11)
H5 H 1.1777 1.1592 0.1827
C12 C 0.9658(2) 1.32230(13) 0.06066(11)
H6 H 0.7699 1.2734 0.0958
H7 H 1.3062 1.2497 0.1107
H8 H 0.9118 1.3648 0.0301
N1A N 0.87579(18) 0.81696(10) 0.43655(8)
O1A O 0.66245(15) 1.02218(9) 0.56694(7)
O2A O 0.55336(14) 0.90473(9) 0.41329(7)
C1A C 0.5811(2) 1.06374(11) 0.60695(9)
O2D O 1.05336(14) 1.09527(9) 0.41329(7)
O2E O 0.44664(14) 1.09527(9) 0.58671(7)
C2A C 0.6512(2) 1.08057(11) 0.68616(10)
Mn1D Mn 1.2500 1.07801(2) 0.5000
Mn1D_2 Mn 0.2500 1.07801(2) 0.5000
C3A C 0.5692(2) 1.13127(11) 0.73177(9)
C4A C 0.7984(2) 1.04693(16) 0.71406(12)
H1A H 0.4696 1.1533 0.7134
C5A C 0.6326(2) 1.14988(12) 0.80437(10)
H2A H 0.8543 1.0126 0.6843
C6A C 0.8627(3) 1.06442(19) 0.78646(14)
C7A C 0.5438(2) 1.20548(12) 0.85136(9)
C8A C 0.7814(3) 1.11582(17) 0.83084(12)
H3A H 0.9613 1.0413 0.8051
C9A C 0.3796(2) 1.20000(14) 0.84833(11)
C10A C 0.6204(2) 1.26805(13) 0.89923(11)
H4A H 0.8265 1.1279 0.8790
C11A C 0.3031(2) 1.25546(13) 0.89157(11)
H5A H 0.3223 1.1592 0.8173
C12A C 0.5342(2) 1.32230(13) 0.93934(11)
H6A H 0.7301 1.2734 0.9042
N1B N 1.12421(18) 1.31696(10) 0.06345(8)
N1C N 0.37579(18) 1.31696(10) 0.93655(8)
H7A H 0.1938 1.2497 0.8893
H8A H 0.5882 1.3648 0.9699
Mn1B Mn 1.2500 1.42199(2) 0.0000
Mn1B_2 Mn 0.2500 1.42199(2) 1.0000
loop_
_geom_bond_atom_site_label_1
_geom_bond_atom_site_label_2
_geom_bond_site_symmetry_1
_geom_bond_site_symmetry_2
Mn1 N1 1_555 1_555
O1 Mn1 1_555 1_555
O2 Mn1 1_555 1_555
C1 O1 1_555 1_555
C2 C1 1_555 1_555
C3 C2 1_555 1_555
C4 C2 1_555 1_555
H1 C3 1_555 1_555
C5 C3 1_555 1_555
H2 C4 1_555 1_555
C6 C4 1_555 1_555
C7 C5 1_555 1_555
C8 C5 1_555 1_555
H3 C6 1_555 1_555
C9 C7 1_555 1_555
C10 C7 1_555 1_555
H4 C8 1_555 1_555
C11 C9 1_555 1_555
H5 C9 1_555 1_555
C12 C10 1_555 1_555
H6 C10 1_555 1_555
H7 C11 1_555 1_555
H8 C12 1_555 1_555
N1A Mn1 1_555 1_555
O1A Mn1 1_555 1_555
O2A Mn1 1_555 1_555
C1A O1A 1_555 1_555
O2D C1 1_555 1_555
O2E C1A 1_555 1_555
C2A C1A 1_555 1_555
Mn1D O2D 1_555 1_555
Mn1D_2 O2E 1_555 1_555
C3A C2A 1_555 1_555
C4A C2A 1_555 1_555
H1A C3A 1_555 1_555
C5A C3A 1_555 1_555
H2A C4A 1_555 1_555
C6A C4A 1_555 1_555
C7A C5A 1_555 1_555
C8A C5A 1_555 1_555
H3A C6A 1_555 1_555
C9A C7A 1_555 1_555
C10A C7A 1_555 1_555
H4A C8A 1_555 1_555
C11A C9A 1_555 1_555
H5A C9A 1_555 1_555
C12A C10A 1_555 1_555
H6A C10A 1_555 1_555
N1B C11 1_555 1_555
N1C C11A 1_555 1_555
H7A C11A 1_555 1_555
H8A C12A 1_555 1_555
Mn1B N1B 1_555 1_555
Mn1B_2 N1C 1_555 1_555
C6 C8 1_555 1_555
C12 N1B 1_555 1_555
C6A C8A 1_555 1_555
C12A N1C 1_555 1_555

#END
