
#######################################################################
#
#                 Cambridge Crystallographic Data Centre
#                                CCDC 
#
#######################################################################
#
# If this CIF has been generated from an entry in the Cambridge 
# Structural Database, then it will include bibliographic, chemical, 
# crystal, experimental, refinement or atomic coordinate data resulting 
# from the CCDC's data processing and validation procedures.
#
#######################################################################

data_ADARAA
_chemical_formula_moiety         '(C48 H35 Br4 Co3 N4 O14)n'
_symmetry_cell_setting           cubic
_symmetry_space_group_name_H-M   'P a -3'
_symmetry_Int_Tables_number      205
_space_group_name_Hall           '-P 2ac 2ab 3'
loop_
_symmetry_equiv_pos_site_id
_symmetry_equiv_pos_as_xyz
1 x,y,z
2 1/2-x,-y,1/2+z
3 -x,1/2+y,1/2-z
4 1/2+x,1/2-y,-z
5 z,x,y
6 1/2+z,1/2-x,-y
7 1/2-z,-x,1/2+y
8 -z,1/2+x,1/2-y
9 y,z,x
10 -y,1/2+z,1/2-x
11 1/2+y,1/2-z,-x
12 1/2-y,-z,1/2+x
13 -x,-y,-z
14 1/2+x,y,1/2-z
15 x,1/2-y,1/2+z
16 1/2-x,1/2+y,z
17 -z,-x,-y
18 1/2-z,1/2+x,y
19 1/2+z,x,1/2-y
20 z,1/2-x,1/2+y
21 -y,-z,-x
22 y,1/2-z,1/2+x
23 1/2-y,1/2+z,x
24 1/2+y,z,1/2-x
_cell_length_a                   38.805(3)
_cell_length_b                   38.805(3)
_cell_length_c                   38.805(3)
_cell_angle_alpha                90
_cell_angle_beta                 90
_cell_angle_gamma                90
_cell_volume                     58433.7
loop_
_atom_site_label
_atom_site_type_symbol
_atom_site_fract_x
_atom_site_fract_y
_atom_site_fract_z
_atom_site_U_iso_or_equiv
_atom_site_thermal_displace_type
Br1 Br -0.0845(4) 0.7443(3) 0.2283(4) 0.2520 Uani
C1 C 0.0385(3) 0.8171(3) 0.4652(3) 0.0763 Uani
C2 C -0.0063(3) 0.8752(3) 0.3593(3) 0.0793 Uani
C3 C 0.0090(3) 0.8451(3) 0.3752(3) 0.0780 Uani
C4 C 0.0186(2) 0.8441(2) 0.4116(3) 0.0733 Uani
H1 H 0.0160 0.8644 0.4249 0.0880 Uiso
C5 C 0.0304(3) 0.8166(3) 0.4265(3) 0.0800 Uani
C6 C 0.0318(3) 0.7870(3) 0.4074(3) 0.0913 Uani
H2 H 0.0382 0.7665 0.4192 0.1090 Uiso
C7 C 0.0249(3) 0.7841(3) 0.3733(3) 0.0837 Uani
C8 C 0.0115(3) 0.8132(3) 0.3584(3) 0.0917 Uani
H3 H 0.0034 0.8116 0.3354 0.1100 Uiso
C9 C 0.0428(2) 0.5182(2) 0.1687(3) 0.0660 Uani
C10 C 0.0625(3) 0.6259(3) 0.1012(3) 0.0807 Uani
C11 C 0.0578(3) 0.6251(3) 0.1660(3) 0.0890 Uani
H4 H 0.0628 0.6491 0.1660 0.1070 Uiso
C12 C 0.0585(2) 0.6070(2) 0.1351(2) 0.0663 Uani
C13 C 0.0528(2) 0.5722(2) 0.1364(2) 0.0610 Uani
H5 H 0.0520 0.5594 0.1156 0.0730 Uiso
C14 C 0.0482(2) 0.5555(2) 0.1673(2) 0.0640 Uani
C15 C 0.0454(3) 0.5748(3) 0.1972(2) 0.0823 Uani
H6 H 0.0402 0.5635 0.2182 0.0990 Uiso
C16 C 0.0499(3) 0.6086(3) 0.1971(3) 0.0890 Uani
C17 C 0.0442(3) 0.6308(3) 0.2298(3) 0.1037 Uani
Br2 Br 0.1729(2) 0.7107(2) 0.2807(2) 0.2720 Uiso
Br3 Br 0.11909(19) 0.61721(16) 0.38007(16) 0.2653 Uani
N1 N 0.0696(3) 0.6509(3) 0.2813(3) 0.0820 Uiso
C18 C 0.0683(4) 0.6270(4) 0.2554(4) 0.0930 Uiso
C19 C 0.1008(5) 0.6104(6) 0.2518(6) 0.1200 Uiso
H7 H 0.1067 0.5930 0.2356 0.1440 Uiso
C20 C 0.1217(7) 0.6243(6) 0.2760(6) 0.1820 Uiso
H8 H 0.1451 0.6183 0.2801 0.2180 Uiso
C21 C 0.1023(4) 0.6499(4) 0.2944(4) 0.1090 Uiso
C22 C 0.1154(4) 0.6706(4) 0.3202(4) 0.1080 Uiso
C23 C 0.0951(4) 0.6936(4) 0.3381(4) 0.0740 Uiso
C24 C 0.1094(7) 0.7162(5) 0.3637(5) 0.1430 Uiso
H9 H 0.1328 0.7151 0.3707 0.1720 Uiso
C25 C 0.0868(5) 0.7391(6) 0.3768(6) 0.1280 Uiso
H10 H 0.0905 0.7563 0.3939 0.1530 Uiso
C26 C 0.0558(4) 0.7310(4) 0.3584(4) 0.0930 Uiso
N2 N 0.0615(3) 0.7040(3) 0.3360(3) 0.0800 Uiso
C27 C 0.1506(3) 0.6658(9) 0.3343(8) 0.2520 Uiso
C28 C 0.1559(4) 0.6415(11) 0.3600(10) 0.3900 Uiso
C29 C 0.1893(5) 0.6316(9) 0.3686(9) 0.3110 Uiso
H11 H 0.1929 0.6150 0.3862 0.3730 Uiso
C30 C 0.2172(4) 0.6460(7) 0.3515(7) 0.2570 Uiso
H12 H 0.2400 0.6392 0.3574 0.3090 Uiso
C31 C 0.2119(4) 0.6703(8) 0.3257(7) 0.2370 Uiso
H13 H 0.2310 0.6801 0.3140 0.2840 Uiso
C32 C 0.1785(4) 0.6802(7) 0.3171(7) 0.1810 Uiso
C33 C 0.0272(3) 0.7514(3) 0.3523(3) 0.1000 Uani
C34 C -0.0037(3) 0.7392(3) 0.3382(3) 0.1027 Uani
C35 C -0.0383(3) 0.7520(4) 0.3448(3) 0.1267 Uani
H14 H -0.0437 0.7700 0.3606 0.1520 Uiso
C36 C -0.0619(3) 0.7349(3) 0.3255(3) 0.1217 Uani
H15 H -0.0862 0.7378 0.3249 0.1460 Uiso
C37 C -0.0406(3) 0.7110(3) 0.3059(3) 0.1207 Uani
C38 C -0.0539(3) 0.6891(4) 0.2801(4) 0.1420 Uani
C39 C -0.0340(3) 0.6680(4) 0.2595(3) 0.1230 Uani
C40 C -0.0464(4) 0.6520(4) 0.2284(4) 0.1597 Uani
H16 H -0.0694 0.6517 0.2201 0.1920 Uiso
C41 C -0.0186(4) 0.6375(4) 0.2135(4) 0.1467 Uani
H17 H -0.0185 0.6251 0.1924 0.1760 Uiso
C42 C 0.0109(3) 0.6440(3) 0.2350(3) 0.1050 Uani
Co1 Co 0.04966(3) 0.63374(3) 0.02609(3) 0.0513 Uani
Co2 Co 0.04005(6) 0.77466(5) 0.53141(6) 0.0858 Uani
O1 O 0.0371(4) 0.7581(4) 0.5836(4) 0.1650 Uiso
O2 O 0.0075(4) 0.7301(4) 0.5166(4) 0.1400 Uiso
Co3 Co 0.03356(8) 0.68551(5) 0.29600(5) 0.1575 Uani
N3 N -0.0059(3) 0.7126(2) 0.3139(2) 0.0987 Uani
N4 N 0.0013(3) 0.6644(2) 0.2626(2) 0.0987 Uani
O3 O 0.0477(2) 0.7886(2) 0.47882(19) 0.1067 Uani
O4 O 0.03828(15) 0.84546(16) 0.47867(15) 0.0677 Uani
O5 O -0.01072(15) 0.90140(16) 0.37805(16) 0.0667 Uani
O6 O -0.0122(3) 0.8736(2) 0.3283(3) 0.1390 Uani
O7 O 0.0736(2) 0.6576(2) 0.10389(18) 0.1087 Uani
O8 O 0.05811(14) 0.61122(14) 0.07419(15) 0.0580 Uani
O9 O 0.04121(15) 0.50123(14) 0.14133(15) 0.0620 Uani
O10 O 0.0395(2) 0.50577(19) 0.19786(19) 0.1027 Uani
O11 O 0.03532(15) 0.58445(14) 0.00607(15) 0.0700 Uani
O12 O 0.06652(16) 0.68320(14) 0.04384(16) 0.0723 Uani
O13 O 0.0429(4) 0.7249(4) 0.2559(4) 0.2410 Uiso
O14 O 0.0847(5) 0.7423(5) 0.5252(5) 0.1460 Uiso
C43 C -0.1433(5) 0.7071(6) 0.2470(7) 0.2280 Uiso
H18 H -0.1546 0.7228 0.2320 0.2730 Uiso
C44 C -0.1619(3) 0.6815(8) 0.2636(9) 0.2190 Uiso
H19 H -0.1861 0.6796 0.2601 0.2620 Uiso
C45 C -0.1453(5) 0.6585(6) 0.2855(7) 0.1780 Uiso
H20 H -0.1581 0.6410 0.2969 0.2130 Uiso
C46 C -0.1100(5) 0.6612(5) 0.2908(4) 0.1680 Uiso
C47 C -0.0913(3) 0.6868(6) 0.2741(5) 0.1420 Uiso
C48 C -0.1079(5) 0.7098(5) 0.2522(5) 0.1960 Uiso
Br4 Br -0.0882(3) 0.6297(3) 0.3218(3) 0.2730 Uani
Co1N Co 0.04966(3) 0.86626(3) 0.52609(3) 0.0513 Uani
Co1P Co -0.02609(3) 0.95034(3) 0.36626(3) 0.0513 Uani
Co1S Co 0.02609(3) 0.45034(3) 0.13374(3) 0.0513 Uani
Co2E Co 0.03141(6) 0.45995(6) 0.22534(5) 0.0858 Uani
Co2N Co 0.04005(6) 0.72534(5) 0.03141(6) 0.0858 Uani
O4N O 0.03828(15) 0.65454(16) -0.02133(15) 0.0677 Uani
O5T O 0.09860(16) 0.62195(16) 0.01072(15) 0.0667 Uani
O9V O -0.00123(14) 0.64133(15) 0.04121(15) 0.0620 Uani
O10K O -0.00577(19) 0.80214(19) 0.5395(2) 0.1027 Uani
O12N O 0.06652(16) 0.81680(14) 0.54384(16) 0.0723 Uani
loop_
_atom_site_aniso_label
_atom_site_aniso_U_11
_atom_site_aniso_U_22
_atom_site_aniso_U_33
_atom_site_aniso_U_23
_atom_site_aniso_U_13
_atom_site_aniso_U_12
Br1 0.191(6) 0.330(13) 0.235(7) -0.017(8) -0.051(5) 0.007(8)
C1 0.095(8) 0.058(7) 0.076(7) -0.015(6) -0.011(6) 0.004(6)
C2 0.086(7) 0.080(8) 0.072(8) 0.003(7) -0.004(6) 0.009(6)
C3 0.100(8) 0.067(7) 0.067(7) -0.010(6) 0.000(6) -0.002(6)
C4 0.083(7) 0.051(6) 0.086(8) -0.022(5) 0.007(6) -0.009(5)
C5 0.110(8) 0.048(6) 0.082(7) -0.005(6) -0.011(6) 0.018(6)
C6 0.116(9) 0.058(7) 0.100(9) 0.000(6) 0.003(7) 0.005(6)
C7 0.108(8) 0.071(7) 0.072(8) -0.010(6) -0.004(6) 0.002(6)
C8 0.115(9) 0.081(8) 0.079(7) -0.027(7) -0.011(6) -0.003(7)
C9 0.086(7) 0.058(6) 0.054(7) 0.008(6) 0.003(5) 0.005(5)
C10 0.087(8) 0.058(7) 0.097(9) 0.005(6) -0.010(6) -0.013(6)
C11 0.107(8) 0.071(7) 0.089(8) -0.009(7) 0.004(7) 0.003(6)
C12 0.086(7) 0.049(6) 0.064(6) -0.003(5) -0.012(5) -0.003(5)
C13 0.062(6) 0.065(6) 0.056(6) -0.018(5) 0.001(4) 0.007(5)
C14 0.092(7) 0.059(6) 0.041(5) -0.011(5) 0.005(5) 0.008(5)
C15 0.113(8) 0.084(8) 0.050(6) 0.006(6) 0.009(5) -0.008(6)
C16 0.124(9) 0.079(8) 0.064(7) -0.021(6) 0.000(6) 0.008(7)
C17 0.146(12) 0.072(7) 0.093(8) -0.012(6) 0.008(8) 0.001(8)
Br3 0.337(8) 0.222(5) 0.237(6) 0.008(4) -0.105(6) 0.081(5)
C33 0.136(11) 0.093(9) 0.071(7) -0.015(6) 0.001(7) 0.012(8)
C34 0.140(12) 0.072(8) 0.096(9) -0.010(7) 0.014(9) 0.002(8)
C35 0.138(12) 0.139(12) 0.103(10) -0.028(9) 0.016(9) -0.004(11)
C36 0.119(10) 0.134(11) 0.112(10) -0.042(9) -0.005(9) 0.007(9)
C37 0.146(14) 0.109(10) 0.107(10) -0.016(8) 0.012(10) -0.024(10)
C38 0.123(11) 0.156(12) 0.147(12) -0.048(10) -0.002(9) -0.023(9)
C39 0.115(10) 0.134(10) 0.120(10) -0.055(8) 0.016(8) -0.021(8)
C40 0.142(11) 0.173(12) 0.164(11) -0.071(10) 0.000(10) -0.012(10)
C41 0.134(11) 0.173(13) 0.133(11) -0.079(10) 0.028(10) -0.017(10)
C42 0.122(11) 0.097(9) 0.096(9) -0.035(7) 0.025(8) -0.012(8)
Co1 0.0522(7) 0.0359(7) 0.0657(8) 0.0079(5) -0.0045(6) -0.0073(5)
Co2 0.1036 0.0459 0.1078 -0.0036 0 0.0032
Co3 0.269(3) 0.0952(14) 0.1084(15) -0.0464(11) -0.0266(16) 0.0404(15)
N3 0.121(8) 0.090(7) 0.085(6) -0.021(5) -0.007(6) -0.003(6)
N4 0.124(8) 0.081(6) 0.091(7) -0.015(5) 0.005(6) -0.004(6)
O3 0.149(7) 0.074(5) 0.097(5) -0.022(4) -0.019(5) 0.036(5)
O4 0.084(4) 0.052(4) 0.067(4) -0.012(3) -0.006(3) 0.006(3)
O5 0.072(4) 0.059(4) 0.069(4) -0.006(3) -0.001(3) 0.009(3)
O6 0.210(11) 0.096(6) 0.111(7) -0.010(5) -0.037(7) 0.014(6)
O7 0.154(7) 0.081(5) 0.091(5) 0.008(4) -0.019(5) -0.018(5)
O8 0.061(4) 0.056(4) 0.057(4) 0.000(3) -0.005(3) -0.002(3)
O9 0.081(4) 0.054(4) 0.051(4) 0.000(3) 0.006(3) -0.002(3)
O10 0.157(7) 0.086(5) 0.065(5) -0.003(4) 0.001(5) 0.000(5)
O11 0.078(4) 0.049(3) 0.083(4) 0.010(3) -0.015(3) -0.007(3)
O12 0.082(4) 0.053(4) 0.082(4) -0.003(3) -0.005(3) -0.008(3)
Br4 0.280(11) 0.195(6) 0.344(12) -0.075(7) 0.146(8) -0.085(7)
Co1N 0.0522 0.0359 0.0657 -0.0079 -0.0045 0.0073
Co1P 0.0657 0.0522 0.0359 -0.0073 0.0079 -0.0045
Co1S 0.0657 0.0522 0.0359 0.0073 0.0079 0.0045
Co2E 0.1078 0.1036 0.0459 0.0032 0.0036 0
Co2N 0.1036(17) 0.0459(12) 0.1078(18) 0.0036(11) 0.0000(13) -0.0032(10)
O4N 0.084 0.052 0.067 0.012 -0.006 -0.006
O5T 0.059 0.069 0.072 -0.001 0.009 -0.006
O9V 0.054 0.051 0.081 0.006 0.002 0
O10K 0.086 0.065 0.157 -0.001 0 -0.003
O12N 0.082 0.053 0.082 0.003 -0.005 0.008
loop_
_geom_bond_atom_site_label_1
_geom_bond_atom_site_label_2
_geom_bond_site_symmetry_1
_geom_bond_site_symmetry_2
Br1 C48 1_555 1_555
C1 C5 1_555 1_555
C2 C3 1_555 1_555
C3 C4 1_555 1_555
C4 H1 1_555 1_555
C5 C4 1_555 1_555
C6 C5 1_555 1_555
H2 C6 1_555 1_555
C7 C6 1_555 1_555
C8 C3 1_555 1_555
H3 C8 1_555 1_555
C9 C14 1_555 1_555
C10 C12 1_555 1_555
C11 H4 1_555 1_555
C12 C11 1_555 1_555
C13 C12 1_555 1_555
H5 C13 1_555 1_555
C14 C13 1_555 1_555
C15 C14 1_555 1_555
H6 C15 1_555 1_555
C16 C11 1_555 1_555
C17 C16 1_555 1_555
Br2 C32 1_555 1_555
Br3 C28 1_555 1_555
N1 C18 1_555 1_555
C18 C17 1_555 1_555
C19 C18 1_555 1_555
H7 C19 1_555 1_555
C20 C19 1_555 1_555
H8 C20 1_555 1_555
C21 N1 1_555 1_555
C22 C21 1_555 1_555
C23 C22 1_555 1_555
C24 C23 1_555 1_555
H9 C24 1_555 1_555
C25 C24 1_555 1_555
H10 C25 1_555 1_555
C26 C25 1_555 1_555
N2 C23 1_555 1_555
C27 C22 1_555 1_555
C28 C27 1_555 1_555
C29 C28 1_555 1_555
H11 C29 1_555 1_555
C30 C29 1_555 1_555
H12 C30 1_555 1_555
C31 C30 1_555 1_555
H13 C31 1_555 1_555
C32 C27 1_555 1_555
C33 C7 1_555 1_555
C34 C33 1_555 1_555
C35 C34 1_555 1_555
H14 C35 1_555 1_555
C36 C35 1_555 1_555
H15 C36 1_555 1_555
C37 C36 1_555 1_555
C38 C37 1_555 1_555
C39 C38 1_555 1_555
C40 C39 1_555 1_555
H16 C40 1_555 1_555
C41 C40 1_555 1_555
H17 C41 1_555 1_555
C42 C17 1_555 1_555
Co1 O8 1_555 1_555
Co2 O1 1_555 1_555
O2 Co2 1_555 1_555
Co3 N1 1_555 1_555
N3 C34 1_555 1_555
N4 C39 1_555 1_555
O3 C1 1_555 1_555
O4 C1 1_555 1_555
O5 C2 1_555 1_555
O6 C2 1_555 1_555
O7 C10 1_555 1_555
O8 C10 1_555 1_555
O9 C9 1_555 1_555
O10 C9 1_555 1_555
O11 Co1 1_555 1_555
O12 Co1 1_555 1_555
O13 Co3 1_555 1_555
O14 Co2 1_555 1_555
C43 H18 1_555 1_555
C44 C43 1_555 1_555
H19 C44 1_555 1_555
C45 C44 1_555 1_555
H20 C45 1_555 1_555
C46 C45 1_555 1_555
C47 C38 1_555 1_555
C48 C43 1_555 1_555
Br4 C46 1_555 1_555
Co1N O4 1_555 1_555
Co1P O5 1_555 1_555
Co1S O9 1_555 1_555
Co2E O10 1_555 1_555
Co2N O12 1_555 1_555
O4N Co1 1_555 1_555
O5T Co1 1_555 1_555
O9V Co1 1_555 1_555
O10K Co2 1_555 1_555
O12N Co2 1_555 1_555
C7 C8 1_555 1_555
C15 C16 1_555 1_555
C20 C21 1_555 1_555
C26 N2 1_555 1_555
C26 C33 1_555 1_555
N2 Co3 1_555 1_555
C31 C32 1_555 1_555
C37 N3 1_555 1_555
C41 C42 1_555 1_555
C42 N4 1_555 1_555
Co2 O3 1_555 1_555
Co3 N3 1_555 1_555
Co3 N4 1_555 1_555
C46 C47 1_555 1_555
C47 C48 1_555 1_555
Co1N O12N 1_555 1_555

#END
