
#######################################################################
#
#                 Cambridge Crystallographic Data Centre
#                                CCDC 
#
#######################################################################
#
# If this CIF has been generated from an entry in the Cambridge 
# Structural Database, then it will include bibliographic, chemical, 
# crystal, experimental, refinement or atomic coordinate data resulting 
# from the CCDC's data processing and validation procedures.
#
#######################################################################

data_ISENUQ
_chemical_formula_moiety         '(C108 H82 Dy2 N12 Ni2 O22)n'
_symmetry_cell_setting           monoclinic
_symmetry_space_group_name_H-M   'P 21'
_symmetry_Int_Tables_number      4
_space_group_name_Hall           'P 2yb'
loop_
_symmetry_equiv_pos_site_id
_symmetry_equiv_pos_as_xyz
1 x,y,z
2 -x,1/2+y,-z
_cell_length_a                   8.76020(10)
_cell_length_b                   27.8308(8)
_cell_length_c                   21.2201(6)
_cell_angle_alpha                90
_cell_angle_beta                 97.6801(15)
_cell_angle_gamma                90
_cell_volume                     5127.12
loop_
_atom_site_label
_atom_site_type_symbol
_atom_site_fract_x
_atom_site_fract_y
_atom_site_fract_z
O2 O 0.7528(10) 0.8908(3) 0.0241(4)
C4 C 0.7676(14) 0.8482(5) 0.0443(5)
H8 H 0.6839 0.8347 0.0624
N2 N 0.8914(9) 0.8207(3) 0.0422(4)
C5 C 0.9007(13) 0.7744(4) 0.0642(5)
H9 H 0.8024 0.7652 0.0779
H10 H 0.9830 0.7720 0.1002
H11 H 0.9234 0.7529 0.0301
C6 C 1.0187(13) 0.8365(5) 0.0132(6)
H12 H 1.0051 0.8704 0.0015
H13 H 1.0256 0.8174 -0.0252
H14 H 1.1135 0.8326 0.0429
Dy1 Dy 0.18551(4) 0.688528(13) 1.246220(17)
Dy2 Dy 0.76994(4) 0.578300(13) 0.251657(17)
Ni1 Ni 0.72439(10) 0.68611(4) 0.75987(4)
C7 C 0.6496(8) 0.7385(3) 0.8760(4)
C8 C 0.6779(8) 0.7830(3) 0.9072(4)
H15 H 0.6560 0.7908 0.9486
C9 C 0.7420(8) 0.8125(3) 0.8674(4)
H16 H 0.7740 0.8448 0.8756
C10 C 0.7520(8) 0.7860(3) 0.8111(4)
C11 C 0.7913(9) 0.8060(3) 0.7543(4)
C12 C 0.7850(9) 0.7800(3) 0.6991(4)
C13 C 0.8056(10) 0.7998(3) 0.6383(4)
H17 H 0.8124 0.8329 0.6281
C14 C 0.8133(10) 0.7622(3) 0.5984(4)
H18 H 0.8223 0.7639 0.5543
C15 C 0.8052(9) 0.7192(3) 0.6349(4)
C16 C 0.8434(8) 0.6739(3) 0.6149(4)
C17 C 0.8359(9) 0.6340(3) 0.6516(4)
C18 C 0.8872(9) 0.5871(3) 0.6376(4)
H19 H 0.9394 0.5792 0.6025
C19 C 0.8504(9) 0.5554(3) 0.6818(4)
H20 H 0.8707 0.5219 0.6835
C20 C 0.7747(8) 0.5831(4) 0.7251(4)
C21 C 0.6986(9) 0.5637(3) 0.7726(4)
C22 C 0.6301(8) 0.5928(3) 0.8145(4)
C23 C 0.5328(8) 0.5755(3) 0.8581(4)
H21 H 0.4979 0.5433 0.8611
C24 C 0.4989(8) 0.6127(3) 0.8940(3)
H22 H 0.4396 0.6115 0.9284
C25 C 0.5693(9) 0.6544(3) 0.8707(4)
C26 C 0.5778(8) 0.6994(3) 0.9013(4)
N3 N 0.7006(7) 0.7395(3) 0.8161(3)
N4 N 0.7793(7) 0.7300(3) 0.6962(3)
N5 N 0.7740(7) 0.6322(2) 0.7083(3)
N6 N 0.6446(7) 0.6422(3) 0.8197(3)
C27 C 0.8432(9) 0.8571(3) 0.7564(4)
C28 C 0.9898(8) 0.8675(3) 0.7906(4)
H23 H 1.0465 0.8428 0.8143
C29 C 1.0517(9) 0.9138(3) 0.7899(4)
H24 H 1.1506 0.9204 0.8124
C30 C 0.9694(8) 0.9496(3) 0.7567(4)
C31 C 0.8276(10) 0.9410(3) 0.7260(5)
H25 H 0.7705 0.9664 0.7040
C32 C 0.7622(9) 0.8938(3) 0.7262(4)
H26 H 0.6613 0.8882 0.7051
C33 C 1.0474(8) 0.9976(3) 0.7557(4)
O3 O 1.1852(6) 1.00010(19) 0.7817(3)
O4 O 0.9809(6) 1.0333(2) 0.7281(3)
C34 C 0.8871(8) 0.6681(3) 0.5498(4)
C35 C 1.0148(8) 0.6901(4) 0.5316(4)
H27 H 1.0794 0.7087 0.5618
C36 C 1.0524(8) 0.6857(3) 0.4694(3)
H28 H 1.1401 0.7019 0.4580
C37 C 0.9648(9) 0.6585(3) 0.4257(4)
C38 C 0.8408(10) 0.6345(4) 0.4431(4)
H29 H 0.7802 0.6147 0.4130
C39 C 0.8022(11) 0.6389(4) 0.5045(4)
H30 H 0.7164 0.6216 0.5157
C40 C 1.0025(8) 0.6534(3) 0.3597(4)
O5 O 1.1170(6) 0.6768(2) 0.3467(3)
O6 O 0.9206(6) 0.6261(2) 0.3217(3)
C41 C 0.6913(8) 0.5103(3) 0.7770(4)
C42 C 0.7582(9) 0.4862(3) 0.8285(5)
H31 H 0.8114 0.5041 0.8627
C43 C 0.7533(11) 0.4378(3) 0.8341(5)
H32 H 0.8025 0.4221 0.8711
C44 C 0.6755(9) 0.4117(3) 0.7848(4)
C45 C 0.6079(10) 0.4349(3) 0.7333(5)
H33 H 0.5541 0.4169 0.6994
C46 C 0.6138(8) 0.4839(3) 0.7279(4)
H34 H 0.5650 0.4995 0.6908
C47 C 0.6672(10) 0.3572(4) 0.7870(4)
O7 O 0.7227(7) 0.3380(2) 0.8422(3)
H35 H 0.7259 0.3050 0.8413
O8 O 0.6152(7) 0.3326(2) 0.7407(3)
C48 C 0.5230(8) 0.7050(3) 0.9631(4)
C49 C 0.5754(8) 0.6732(3) 1.0105(4)
H36 H 0.6481 0.6493 1.0026
C50 C 0.5242(8) 0.6750(3) 1.0707(4)
H37 H 0.5592 0.6519 1.1024
C51 C 0.4232(8) 0.7104(3) 1.0832(3)
C52 C 0.3739(8) 0.7439(3) 1.0365(4)
H38 H 0.3077 0.7693 1.0454
C53 C 0.4208(8) 0.7405(3) 0.9770(4)
H39 H 0.3825 0.7629 0.9449
C54 C 0.3558(8) 0.7087(3) 1.1449(4)
O9 O 0.3794(5) 0.67180(19) 1.1795(3)
O10 O 0.2677(6) 0.7419(2) 1.1593(3)
Ni2 Ni 0.22260(11) 0.59199(3) 0.73652(5)
C55 C 0.2981(9) 0.5360(3) 0.6245(4)
C56 C 0.2858(9) 0.4893(3) 0.5973(4)
H40 H 0.3099 0.4804 0.5566
C57 C 0.2333(9) 0.4600(3) 0.6402(4)
H41 H 0.2109 0.4267 0.6355
C58 C 0.2181(8) 0.4896(3) 0.6945(4)
C59 C 0.1879(8) 0.4712(3) 0.7526(4)
C60 C 0.1792(9) 0.4998(3) 0.8051(4)
C61 C 0.1651(9) 0.4823(3) 0.8679(4)
H42 H 0.1737 0.4499 0.8820
C62 C 0.1372(9) 0.5216(3) 0.9029(4)
H43 H 0.1225 0.5215 0.9464
C63 C 0.1336(8) 0.5632(3) 0.8626(4)
C64 C 0.0894(9) 0.6087(3) 0.8788(4)
C65 C 0.1013(8) 0.6484(3) 0.8404(4)
C66 C 0.0549(8) 0.6963(3) 0.8535(4)
H44 H -0.0018 0.7057 0.8866
C67 C 0.1052(8) 0.7247(3) 0.8113(4)
H45 H 0.0934 0.7586 0.8090
C68 C 0.1802(9) 0.6957(3) 0.7698(4)
C69 C 0.2587(8) 0.7135(3) 0.7217(4)
C70 C 0.3209(7) 0.6832(4) 0.6806(4)
C71 C 0.4109(8) 0.7005(3) 0.6312(4)
H46 H 0.4437 0.7326 0.6256
C72 C 0.4378(8) 0.6622(3) 0.5954(4)
H47 H 0.4928 0.6621 0.5597
C73 C 0.3666(9) 0.6210(3) 0.6216(4)
C74 C 0.3620(7) 0.5760(3) 0.5954(3)
N7 N 0.2537(8) 0.5373(2) 0.6837(3)
N8 N 0.1678(7) 0.5493(3) 0.8027(3)
N9 N 0.1719(7) 0.6476(2) 0.7851(3)
N10 N 0.3002(7) 0.6337(3) 0.6750(3)
C75 C 0.1669(9) 0.4170(3) 0.7571(4)
C76 C 0.0345(9) 0.3962(3) 0.7305(4)
H48 H -0.0451 0.4156 0.7091
C77 C 0.0124(11) 0.3472(4) 0.7339(5)
H49 H -0.0798 0.3327 0.7139
C78 C 0.1318(9) 0.3188(3) 0.7681(5)
C79 C 0.2669(10) 0.3403(3) 0.7966(5)
H50 H 0.3475 0.3214 0.8186
C80 C 0.2817(10) 0.3895(3) 0.7924(4)
H51 H 0.3709 0.4048 0.8136
C81 C 0.1140(12) 0.2640(3) 0.7694(5)
O11 O 0.2347(8) 0.2416(2) 0.7887(4)
O12 O -0.0176(7) 0.2481(2) 0.7534(3)
C82 C 0.0389(8) 0.6154(3) 0.9428(3)
C83 C 0.1178(8) 0.6477(3) 0.9858(4)
H52 H 0.1983 0.6666 0.9728
C84 C 0.0812(8) 0.6527(3) 1.0471(4)
H53 H 0.1327 0.6761 1.0749
C85 C -0.0330(8) 0.6230(3) 1.0683(4)
C86 C -0.1130(8) 0.5909(3) 1.0235(4)
H54 H -0.1918 0.5712 1.0364
C87 C -0.0806(8) 0.5872(3) 0.9626(4)
H55 H -0.1380 0.5659 0.9335
C88 C -0.0560(8) 0.6237(3) 1.1362(4)
O13 O 0.0113(6) 0.6556(2) 1.1719(3)
O14 O -0.1378(6) 0.5912(2) 1.1554(3)
C89 C 0.2773(9) 0.7661(3) 0.7166(4)
C90 C 0.2031(9) 0.7900(3) 0.6616(4)
H56 H 0.1424 0.7722 0.6292
C91 C 0.2201(9) 0.8403(3) 0.6554(4)
H57 H 0.1681 0.8565 0.6194
C92 C 0.3122(9) 0.8658(3) 0.7017(4)
C93 C 0.3852(8) 0.8424(3) 0.7557(4)
H58 H 0.4487 0.8600 0.7874
C94 C 0.3641(9) 0.7925(3) 0.7629(4)
H59 H 0.4109 0.7770 0.8004
C95 C 0.3400(9) 0.9174(3) 0.6934(4)
O15 O 0.4370(7) 0.9397(2) 0.7284(3)
O16 O 0.2512(7) 0.9381(2) 0.6466(3)
H60 H 0.2606 0.9711 0.6481
C96 C 0.4178(8) 0.5692(3) 0.5325(4)
C97 C 0.3524(9) 0.5961(3) 0.4777(4)
H61 H 0.2702 0.6179 0.4810
C98 C 0.4070(8) 0.5908(3) 0.4211(4)
H62 H 0.3629 0.6094 0.3858
C99 C 0.5263(8) 0.5588(3) 0.4132(4)
C100 C 0.5880(8) 0.5308(3) 0.4661(4)
H63 H 0.6677 0.5085 0.4615
C101 C 0.5347(8) 0.5353(3) 0.5250(4)
H64 H 0.5765 0.5157 0.5597
C102 C 0.5993(9) 0.5583(3) 0.3535(4)
O17 O 0.5466(5) 0.5864(2) 0.3099(2)
O18 O 0.7187(6) 0.5332(2) 0.3488(3)
O19 O 0.3943(7) 0.7155(3) 1.3086(3)
C103 C 0.5135(10) 0.7405(4) 1.3187(5)
H65 H 0.5531 0.7545 1.2834
N11 N 0.5861(9) 0.7485(3) 1.3753(4)
C104 C 0.7284(13) 0.7785(5) 1.3840(7)
H66 H 0.6999 0.8126 1.3847
H67 H 0.7878 0.7727 1.3488
H68 H 0.7909 0.7701 1.4243
C105 C 0.5260(17) 0.7274(5) 1.4316(6)
H69 H 0.5870 0.6991 1.4461
H70 H 0.4181 0.7181 1.4198
H71 H 0.5334 0.7513 1.4658
O20 O 0.5486(6) 0.5574(2) 0.1804(3)
C106 C 0.4992(9) 0.5174(4) 0.1653(5)
H72 H 0.5616 0.4906 0.1795
N12 N 0.3633(7) 0.5086(3) 0.1300(4)
C107 C 0.2560(11) 0.5477(4) 0.1114(5)
H73 H 0.2474 0.5525 0.0653
H74 H 0.2938 0.5772 0.1333
H75 H 0.1546 0.5396 0.1231
C108 C 0.3112(11) 0.4593(4) 0.1147(5)
H76 H 0.3965 0.4369 0.1266
H77 H 0.2765 0.4568 0.0690
H78 H 0.2257 0.4514 0.1383
O21 O 0.2430(6) 0.6050(2) 1.2615(3)
H79 H 0.3408 0.5987 1.2771
H80 H 0.1712 0.5819 1.2651
O22 O 0.6752(6) 0.6540(2) 0.2266(3)
H81 H 0.5758 0.6605 0.2107
H82 H 0.7066 0.6850 0.2216
Dy1_2 Dy 1.18551(4) 0.688528(13) 0.246220(17)
Dy1A Dy -0.18551(4) 0.188528(13) 0.753780(17)
Dy2_2 Dy -0.23006(4) 0.578300(13) 1.251657(17)
Dy2A Dy 1.23006(4) 1.078300(13) 0.748343(17)
C33A C 0.9526(8) 0.4976(3) 0.2443(4)
O3A O 0.8148(6) 0.50010(19) 0.2183(3)
O4A O 1.0191(6) 0.5333(2) 0.2719(3)
O5_2 O 0.1170(6) 0.6768(2) 1.3467(3)
O12A O 0.0176(7) 0.7481(2) 1.2466(3)
O14_2 O 0.8622(6) 0.5912(2) 0.1554(3)
O1 O 0.2819(11) 0.8633(4) -0.0737(4)
C1 C 0.3703(16) 0.8932(5) -0.0407(6)
H1 H 0.4731 0.8838 -0.0259
N1 N 0.3243(12) 0.9365(4) -0.0265(5)
C2 C 0.4301(17) 0.9685(6) 0.0104(6)
H2 H 0.4641 0.9933 -0.0174
H3 H 0.5195 0.9503 0.0303
H4 H 0.3786 0.9837 0.0435
C3 C 0.1750(13) 0.9565(4) -0.0479(6)
H5 H 0.1135 0.9332 -0.0750
H6 H 0.1869 0.9859 -0.0722
H7 H 0.1228 0.9641 -0.0110
loop_
_geom_bond_atom_site_label_1
_geom_bond_atom_site_label_2
_geom_bond_site_symmetry_1
_geom_bond_site_symmetry_2
O1 C1 1_555 1_555
C1 H1 1_555 1_555
N1 C1 1_555 1_555
C2 N1 1_555 1_555
H2 C2 1_555 1_555
H3 C2 1_555 1_555
H4 C2 1_555 1_555
C3 N1 1_555 1_555
H5 C3 1_555 1_555
H6 C3 1_555 1_555
H7 C3 1_555 1_555
O2 C4 1_555 1_555
C4 H8 1_555 1_555
N2 C4 1_555 1_555
C5 N2 1_555 1_555
H9 C5 1_555 1_555
H10 C5 1_555 1_555
H11 C5 1_555 1_555
C6 N2 1_555 1_555
H12 C6 1_555 1_555
H13 C6 1_555 1_555
H14 C6 1_555 1_555
Dy1 O9 1_555 1_555
Dy2 O6 1_555 1_555
Ni1 N3 1_555 1_555
C7 C8 1_555 1_555
C8 H15 1_555 1_555
C9 C8 1_555 1_555
H16 C9 1_555 1_555
C10 C9 1_555 1_555
C11 C10 1_555 1_555
C12 C11 1_555 1_555
C13 C12 1_555 1_555
H17 C13 1_555 1_555
C14 C13 1_555 1_555
H18 C14 1_555 1_555
C15 C14 1_555 1_555
C16 C15 1_555 1_555
C17 C16 1_555 1_555
C18 C17 1_555 1_555
H19 C18 1_555 1_555
C19 C18 1_555 1_555
H20 C19 1_555 1_555
C20 C19 1_555 1_555
C21 C20 1_555 1_555
C22 C21 1_555 1_555
C23 C22 1_555 1_555
H21 C23 1_555 1_555
C24 C23 1_555 1_555
H22 C24 1_555 1_555
C25 C24 1_555 1_555
C26 C7 1_555 1_555
N3 C7 1_555 1_555
N4 Ni1 1_555 1_555
N5 Ni1 1_555 1_555
N6 Ni1 1_555 1_555
C27 C11 1_555 1_555
C28 C27 1_555 1_555
H23 C28 1_555 1_555
C29 C28 1_555 1_555
H24 C29 1_555 1_555
C30 C29 1_555 1_555
C31 C30 1_555 1_555
H25 C31 1_555 1_555
C32 C27 1_555 1_555
H26 C32 1_555 1_555
C33 C30 1_555 1_555
O3 C33 1_555 1_555
O4 C33 1_555 1_555
C34 C16 1_555 1_555
C35 C34 1_555 1_555
H27 C35 1_555 1_555
C36 C35 1_555 1_555
H28 C36 1_555 1_555
C37 C36 1_555 1_555
C38 C37 1_555 1_555
H29 C38 1_555 1_555
C39 C34 1_555 1_555
H30 C39 1_555 1_555
C40 C37 1_555 1_555
O5 C40 1_555 1_555
O6 C40 1_555 1_555
C41 C21 1_555 1_555
C42 C41 1_555 1_555
H31 C42 1_555 1_555
C43 C42 1_555 1_555
H32 C43 1_555 1_555
C44 C43 1_555 1_555
C45 C44 1_555 1_555
H33 C45 1_555 1_555
C46 C41 1_555 1_555
H34 C46 1_555 1_555
C47 C44 1_555 1_555
O7 C47 1_555 1_555
H35 O7 1_555 1_555
O8 C47 1_555 1_555
C48 C26 1_555 1_555
C49 C48 1_555 1_555
H36 C49 1_555 1_555
C50 C49 1_555 1_555
H37 C50 1_555 1_555
C51 C50 1_555 1_555
C52 C51 1_555 1_555
H38 C52 1_555 1_555
C53 C48 1_555 1_555
H39 C53 1_555 1_555
C54 C51 1_555 1_555
O9 C54 1_555 1_555
O10 Dy1 1_555 1_555
Ni2 N7 1_555 1_555
C55 C56 1_555 1_555
C56 H40 1_555 1_555
C57 C56 1_555 1_555
H41 C57 1_555 1_555
C58 C57 1_555 1_555
C59 C58 1_555 1_555
C60 C59 1_555 1_555
C61 C60 1_555 1_555
H42 C61 1_555 1_555
C62 C61 1_555 1_555
H43 C62 1_555 1_555
C63 C62 1_555 1_555
C64 C63 1_555 1_555
C65 C64 1_555 1_555
C66 C65 1_555 1_555
H44 C66 1_555 1_555
C67 C66 1_555 1_555
H45 C67 1_555 1_555
C68 C67 1_555 1_555
C69 C68 1_555 1_555
C70 C69 1_555 1_555
C71 C70 1_555 1_555
H46 C71 1_555 1_555
C72 C71 1_555 1_555
H47 C72 1_555 1_555
C73 C72 1_555 1_555
C74 C55 1_555 1_555
N7 C55 1_555 1_555
N8 Ni2 1_555 1_555
N9 Ni2 1_555 1_555
N10 Ni2 1_555 1_555
C75 C59 1_555 1_555
C76 C75 1_555 1_555
H48 C76 1_555 1_555
C77 C76 1_555 1_555
H49 C77 1_555 1_555
C78 C77 1_555 1_555
C79 C78 1_555 1_555
H50 C79 1_555 1_555
C80 C75 1_555 1_555
H51 C80 1_555 1_555
C81 C78 1_555 1_555
O11 C81 1_555 1_555
O12 C81 1_555 1_555
C82 C64 1_555 1_555
C83 C82 1_555 1_555
H52 C83 1_555 1_555
C84 C83 1_555 1_555
H53 C84 1_555 1_555
C85 C84 1_555 1_555
C86 C85 1_555 1_555
H54 C86 1_555 1_555
C87 C82 1_555 1_555
H55 C87 1_555 1_555
C88 C85 1_555 1_555
O13 Dy1 1_555 1_555
O14 C88 1_555 1_555
C89 C69 1_555 1_555
C90 C89 1_555 1_555
H56 C90 1_555 1_555
C91 C90 1_555 1_555
H57 C91 1_555 1_555
C92 C91 1_555 1_555
C93 C92 1_555 1_555
H58 C93 1_555 1_555
C94 C89 1_555 1_555
H59 C94 1_555 1_555
C95 C92 1_555 1_555
O15 C95 1_555 1_555
O16 C95 1_555 1_555
H60 O16 1_555 1_555
C96 C74 1_555 1_555
C97 C96 1_555 1_555
H61 C97 1_555 1_555
C98 C97 1_555 1_555
H62 C98 1_555 1_555
C99 C98 1_555 1_555
C100 C99 1_555 1_555
H63 C100 1_555 1_555
C101 C96 1_555 1_555
H64 C101 1_555 1_555
C102 C99 1_555 1_555
O17 Dy2 1_555 1_555
O18 Dy2 1_555 1_555
O19 Dy1 1_555 1_555
C103 O19 1_555 1_555
H65 C103 1_555 1_555
N11 C103 1_555 1_555
C104 N11 1_555 1_555
H66 C104 1_555 1_555
H67 C104 1_555 1_555
H68 C104 1_555 1_555
C105 N11 1_555 1_555
H69 C105 1_555 1_555
H70 C105 1_555 1_555
H71 C105 1_555 1_555
O20 Dy2 1_555 1_555
C106 O20 1_555 1_555
H72 C106 1_555 1_555
N12 C106 1_555 1_555
C107 N12 1_555 1_555
H73 C107 1_555 1_555
H74 C107 1_555 1_555
H75 C107 1_555 1_555
C108 N12 1_555 1_555
H76 C108 1_555 1_555
H77 C108 1_555 1_555
H78 C108 1_555 1_555
O21 Dy1 1_555 1_555
H79 O21 1_555 1_555
H80 O21 1_555 1_555
O22 Dy2 1_555 1_555
H81 O22 1_555 1_555
H82 O22 1_555 1_555
Dy1_2 O5 1_555 1_555
Dy1A O12 1_555 1_555
Dy2_2 O14 1_555 1_555
Dy2A O3 1_555 1_555
C33A O3A 1_555 1_555
O3A Dy2 1_555 1_555
O4A Dy2 1_555 1_555
O5_2 Dy1 1_555 1_555
O12A Dy1 1_555 1_555
O14_2 Dy2 1_555 1_555
C10 N3 1_555 1_555
C12 N4 1_555 1_555
C15 N4 1_555 1_555
C17 N5 1_555 1_555
C20 N5 1_555 1_555
C22 N6 1_555 1_555
C25 C26 1_555 1_555
C25 N6 1_555 1_555
C31 C32 1_555 1_555
O4 Dy2A 1_555 1_555
C38 C39 1_555 1_555
C45 C46 1_555 1_555
C52 C53 1_555 1_555
C54 O10 1_555 1_555
C58 N7 1_555 1_555
C60 N8 1_555 1_555
C63 N8 1_555 1_555
C65 N9 1_555 1_555
C68 N9 1_555 1_555
C70 N10 1_555 1_555
C73 C74 1_555 1_555
C73 N10 1_555 1_555
C79 C80 1_555 1_555
C86 C87 1_555 1_555
C88 O13 1_555 1_555
C93 C94 1_555 1_555
C100 C101 1_555 1_555
C102 O17 1_555 1_555
C102 O18 1_555 1_555
C33A O4A 1_555 1_555

#END
