
#######################################################################
#
#                 Cambridge Crystallographic Data Centre
#                                CCDC 
#
#######################################################################
#
# If this CIF has been generated from an entry in the Cambridge 
# Structural Database, then it will include bibliographic, chemical, 
# crystal, experimental, refinement or atomic coordinate data resulting 
# from the CCDC's data processing and validation procedures.
#
#######################################################################

data_ADATOQ
_chemical_formula_moiety         'C84 H84 Ag5 B2 Cl4 F4 N26 O2'
_symmetry_cell_setting           cubic
_symmetry_space_group_name_H-M   'I 21 3'
_symmetry_Int_Tables_number      199
_space_group_name_Hall           'I 2b 2c 3'
loop_
_symmetry_equiv_pos_site_id
_symmetry_equiv_pos_as_xyz
1 x,y,z
2 1/2-x,-y,1/2+z
3 -x,1/2+y,1/2-z
4 1/2+x,1/2-y,-z
5 z,x,y
6 1/2+z,1/2-x,-y
7 1/2-z,-x,1/2+y
8 -z,1/2+x,1/2-y
9 y,z,x
10 -y,1/2+z,1/2-x
11 1/2+y,1/2-z,-x
12 1/2-y,-z,1/2+x
13 1/2+x,1/2+y,1/2+z
14 -x,1/2-y,z
15 1/2-x,y,-z
16 x,-y,1/2-z
17 1/2+z,1/2+x,1/2+y
18 z,-x,1/2-y
19 -z,1/2-x,y
20 1/2-z,x,-y
21 1/2+y,1/2+z,1/2+x
22 1/2-y,z,-x
23 y,-z,1/2-x
24 -y,1/2-z,x
_cell_length_a                   25.6886(2)
_cell_length_b                   25.6886(2)
_cell_length_c                   25.6886(2)
_cell_angle_alpha                90
_cell_angle_beta                 90
_cell_angle_gamma                90
_cell_volume                     16952
loop_
_atom_site_label
_atom_site_type_symbol
_atom_site_fract_x
_atom_site_fract_y
_atom_site_fract_z
B1 B 0.79336(19) -0.02705(18) 0.75933(16)
F1 F 0.7530(3) -0.0605(4) 0.7681(5)
F2 F 0.8381(3) -0.0530(5) 0.7711(5)
B1O B 0.79336(19) 0.02705(18) 0.74067(16)
F1O F 0.7530(3) 0.0605(4) 0.7319(5)
F2O F 0.8381(3) 0.0530(5) 0.7289(5)
C2 C 0.5412(12) 0.1476(12) 0.9793(4)
C3 C 0.5408(11) 0.1431(13) 1.0354(4)
N1 N 0.5261(8) 0.1288(9) 1.0754(5)
N2 N 0.6792(9) 0.3393(8) 0.6024(5)
C4 C 0.6735(8) 0.3197(8) 0.6420(5)
C5 C 0.6545(11) 0.3036(11) 0.6919(6)
C6 C 0.6602(10) 0.5593(9) 0.9198(5)
O1 O 0.656(3) 0.550(2) 0.8666(7)
O2 O 0.6195(12) 0.3805(12) 0.8805(12)
Ag1 Ag 0.39410(3) 0.0000 1.2500
N3 N 0.3661(2) 0.0632(2) 1.3001(2)
N4 N 0.44106(18) 0.1078(2) 1.28076(19)
H1 H 0.4632 0.1317 1.2884
N5 N 0.4542(2) 0.07097(17) 1.24600(19)
N6 N 0.5622(2) -0.0622(2) 1.0622(2)
C7 C 0.3192(3) 0.0618(3) 1.3245(3)
H2 H 0.2985 0.0323 1.3209
C8 C 0.3012(3) 0.1027(4) 1.3547(4)
H3 H 0.2704 0.0994 1.3735
C9 C 0.3289(3) 0.1475(3) 1.3564(3)
H4 H 0.3154 0.1766 1.3731
C10 C 0.3771(3) 0.1496(3) 1.3333(3)
H5 H 0.3977 0.1791 1.3377
C11 C 0.3956(3) 0.1082(2) 1.3032(3)
C12 C 0.5009(3) 0.0717(2) 1.2281(2)
C13 C 0.5431(3) 0.1107(3) 1.2485(3)
H6 H 0.5284 0.1319 1.2755
H7 H 0.5545 0.1325 1.2204
H8 H 0.5722 0.0916 1.2621
C14 C 0.5159(2) 0.0354(3) 1.1856(3)
C15 C 0.5693(2) 0.0222(3) 1.1785(3)
H9 H 0.5948 0.0346 1.2009
C16 C 0.5820(2) -0.0096(3) 1.1374(3)
H10 H 0.6167 -0.0181 1.1319
C17 C 0.5463(3) -0.0285(2) 1.1055(3)
C18 C 0.4925(2) -0.0150(2) 1.1141(2)
H11 H 0.4668 -0.0279 1.0920
C19 C 0.4798(2) 0.0152(2) 1.1525(3)
H12 H 0.4449 0.0232 1.1577
N3E N 0.8001(2) 0.1339(2) 0.9368(2)
N4E N 0.78076(19) 0.05894(18) 0.8922(2)
H1E H 0.7884 0.0368 0.8683
N5E N 0.74600(19) 0.0458(2) 0.92903(17)
C7E C 0.8245(3) 0.1808(3) 0.9382(3)
H2E H 0.8209 0.2015 0.9677
C8E C 0.8547(4) 0.1988(3) 0.8973(4)
H3E H 0.8735 0.2296 0.9006
C9E C 0.8564(3) 0.1711(3) 0.8525(3)
H4E H 0.8731 0.1846 0.8234
C10E C 0.8333(3) 0.1229(3) 0.8504(3)
H5E H 0.8377 0.1023 0.8209
C11E C 0.8032(3) 0.1044(3) 0.8918(2)
C12E C 0.7281(2) -0.0009(3) 0.9283(2)
C13E C 0.7485(3) -0.0431(3) 0.8893(3)
H6E H 0.7755 -0.0284 0.8681
H7E H 0.7204 -0.0545 0.8675
H8E H 0.7621 -0.0722 0.9084
C14E C 0.6856(3) -0.0159(2) 0.9646(3)
C15E C 0.6785(3) -0.0693(2) 0.9778(3)
H9E H 0.7009 -0.0948 0.9654
C16E C 0.6374(3) -0.0820(2) 1.0096(3)
H10E H 0.6319 -0.1167 1.0181
C17E C 0.6055(3) -0.0463(3) 1.0285(2)
C18E C 0.6141(2) 0.0075(2) 1.0150(2)
H11E H 0.5920 0.0332 1.0279
C19E C 0.6525(3) 0.0202(2) 0.9848(2)
H12E H 0.6577 0.0551 0.9768
N3K N 0.4368(2) -0.3001(2) 0.8661(2)
N4K N 0.3922(2) -0.28076(19) 0.94106(18)
H1K H 0.3683 -0.2884 0.9632
N5K N 0.42903(17) -0.24600(19) 0.9542(2)
C7K C 0.4382(3) -0.3245(3) 0.8192(3)
H2K H 0.4677 -0.3209 0.7985
C8K C 0.3973(4) -0.3547(4) 0.8012(3)
H3K H 0.4006 -0.3735 0.7704
C9K C 0.3525(3) -0.3564(3) 0.8289(3)
H4K H 0.3234 -0.3731 0.8154
C10K C 0.3504(3) -0.3333(3) 0.8771(3)
H5K H 0.3209 -0.3377 0.8977
C11K C 0.3918(2) -0.3032(3) 0.8956(3)
C12K C 0.4283(2) -0.2281(2) 1.0009(3)
C13K C 0.3893(3) -0.2485(3) 1.0431(3)
H6K H 0.3681 -0.2755 1.0284
H7K H 0.3675 -0.2204 1.0545
H8K H 0.4084 -0.2621 1.0722
C14K C 0.4646(3) -0.1856(3) 1.0159(2)
C15K C 0.4778(3) -0.1785(3) 1.0693(2)
H9K H 0.4654 -0.2009 1.0948
C16K C 0.5096(3) -0.1374(3) 1.0820(2)
H10K H 0.5181 -0.1319 1.1167
C17K C 0.5285(2) -0.1055(3) 1.0463(3)
C18K C 0.5150(2) -0.1141(2) 0.9925(2)
H11K H 0.5279 -0.0920 0.9668
C19K C 0.4848(2) -0.1525(3) 0.9798(2)
H12K H 0.4768 -0.1577 0.9449
Ag1E Ag 0.7500 0.10590(3) 1.0000
Ag1K Ag 0.5000 -0.2500 0.89410(3)
N3M N 0.6339(2) -0.5632(2) 1.3001(2)
N4M N 0.55894(18) -0.6078(2) 1.28076(19)
H1M H 0.5368 -0.6317 1.2884
N5M N 0.5458(2) -0.57097(17) 1.24600(19)
N6M N 0.4378(2) -0.4378(2) 1.0622(2)
C7M C 0.6808(3) -0.5618(3) 1.3245(3)
H2M H 0.7015 -0.5323 1.3209
C8M C 0.6988(3) -0.6027(4) 1.3547(4)
H3M H 0.7296 -0.5994 1.3735
C9M C 0.6711(3) -0.6475(3) 1.3564(3)
H4M H 0.6846 -0.6766 1.3731
C10M C 0.6229(3) -0.6496(3) 1.3333(3)
H5M H 0.6023 -0.6791 1.3377
C11M C 0.6044(3) -0.6082(2) 1.3032(3)
C12M C 0.4991(3) -0.5717(2) 1.2281(2)
C13M C 0.4569(3) -0.6107(3) 1.2485(3)
H6M H 0.4716 -0.6319 1.2755
H7M H 0.4455 -0.6325 1.2204
H8M H 0.4278 -0.5916 1.2621
C14M C 0.4841(2) -0.5354(3) 1.1856(3)
C15M C 0.4307(2) -0.5222(3) 1.1785(3)
H9M H 0.4052 -0.5346 1.2009
C16M C 0.4180(2) -0.4904(3) 1.1374(3)
H10M H 0.3833 -0.4819 1.1319
C17M C 0.4537(3) -0.4715(2) 1.1055(3)
C18M C 0.5075(2) -0.4850(2) 1.1141(2)
H11M H 0.5332 -0.4721 1.0920
C19M C 0.5202(2) -0.5152(2) 1.1525(3)
H12M H 0.5551 -0.5232 1.1577
N3S N 0.1999(2) -0.6339(2) 0.9368(2)
N4S N 0.21924(19) -0.55894(18) 0.8922(2)
H1S H 0.2116 -0.5368 0.8683
N5S N 0.25400(19) -0.5458(2) 0.92903(17)
C7S C 0.1755(3) -0.6808(3) 0.9382(3)
H2S H 0.1791 -0.7015 0.9677
C8S C 0.1453(4) -0.6988(3) 0.8973(4)
H3S H 0.1265 -0.7296 0.9006
C9S C 0.1436(3) -0.6711(3) 0.8525(3)
H4S H 0.1269 -0.6846 0.8234
C10S C 0.1667(3) -0.6229(3) 0.8504(3)
H5S H 0.1623 -0.6023 0.8209
C11S C 0.1968(3) -0.6044(3) 0.8918(2)
C12S C 0.2719(2) -0.4991(3) 0.9283(2)
C13S C 0.2515(3) -0.4569(3) 0.8893(3)
H6S H 0.2245 -0.4716 0.8681
H7S H 0.2796 -0.4455 0.8675
H8S H 0.2379 -0.4278 0.9084
C14S C 0.3144(3) -0.4841(2) 0.9646(3)
C15S C 0.3215(3) -0.4307(2) 0.9778(3)
H9S H 0.2991 -0.4052 0.9654
C16S C 0.3626(3) -0.4180(2) 1.0096(3)
H10S H 0.3681 -0.3833 1.0181
C17S C 0.3945(3) -0.4537(3) 1.0285(2)
C18S C 0.3859(2) -0.5075(2) 1.0150(2)
H11S H 0.4080 -0.5332 1.0279
C19S C 0.3475(3) -0.5202(2) 0.9848(2)
H12S H 0.3423 -0.5551 0.9768
N3T N 0.5632(2) -0.1999(2) 0.8661(2)
N4T N 0.6078(2) -0.21924(19) 0.94106(18)
H1T H 0.6317 -0.2116 0.9632
N5T N 0.57097(17) -0.25400(19) 0.9542(2)
C7T C 0.5618(3) -0.1755(3) 0.8192(3)
H2T H 0.5323 -0.1791 0.7985
C8T C 0.6027(4) -0.1453(4) 0.8012(3)
H3T H 0.5994 -0.1265 0.7704
C9T C 0.6475(3) -0.1436(3) 0.8289(3)
H4T H 0.6766 -0.1269 0.8154
C10T C 0.6496(3) -0.1667(3) 0.8771(3)
H5T H 0.6791 -0.1623 0.8977
C11T C 0.6082(2) -0.1968(3) 0.8956(3)
C12T C 0.5717(2) -0.2719(2) 1.0009(3)
C13T C 0.6107(3) -0.2515(3) 1.0431(3)
H6T H 0.6319 -0.2245 1.0284
H7T H 0.6325 -0.2796 1.0545
H8T H 0.5916 -0.2379 1.0722
C14T C 0.5354(3) -0.3144(3) 1.0159(2)
C15T C 0.5222(3) -0.3215(3) 1.0693(2)
H9T H 0.5346 -0.2991 1.0948
C16T C 0.4904(3) -0.3626(3) 1.0820(2)
H10T H 0.4819 -0.3681 1.1167
C17T C 0.4715(2) -0.3945(3) 1.0463(3)
C18T C 0.4850(2) -0.3859(2) 0.9925(2)
H11T H 0.4721 -0.4080 0.9668
C19T C 0.5152(2) -0.3475(3) 0.9798(2)
H12T H 0.5232 -0.3423 0.9449
Ag1B Ag 0.60590(3) -0.5000 1.2500
Ag1D Ag 0.2500 -0.60590(3) 1.0000
N3O N 0.3661(2) -0.0632(2) 1.1999(2)
N3R N 0.6999(2) 0.1339(2) 1.0632(2)
N5O N 0.4542(2) -0.07097(17) 1.25400(19)
N5R N 0.75400(19) 0.0458(2) 1.07097(17)
C1 C 0.8198(5) -0.1802(5) 0.8198(5)
Cl1 Cl 0.7773(2) -0.2227(2) 0.7773(2)
Cl2 Cl 0.8079(3) -0.1219(2) 0.7953(2)
Cl2D Cl 0.7953(2) -0.1921(3) 0.8781(2)
Cl2H Cl 0.8781(2) -0.2047(2) 0.8079(3)
loop_
_geom_bond_atom_site_label_1
_geom_bond_atom_site_label_2
_geom_bond_site_symmetry_1
_geom_bond_site_symmetry_2
C1 Cl1 1_555 1_555
Cl2 C1 1_555 1_555
B1 F1 1_555 1_555
F2 B1 1_555 1_555
C2 C3 1_555 1_555
C3 N1 1_555 1_555
N2 C4 1_555 1_555
C4 C5 1_555 1_555
C6 O1 1_555 1_555
Ag1 N3 1_555 1_555
N3 C7 1_555 1_555
N4 H1 1_555 1_555
N5 Ag1 1_555 1_555
N6 C17 1_555 1_555
C7 H2 1_555 1_555
C8 C7 1_555 1_555
H3 C8 1_555 1_555
C9 C8 1_555 1_555
H4 C9 1_555 1_555
C10 C9 1_555 1_555
H5 C10 1_555 1_555
C11 N3 1_555 1_555
C12 N5 1_555 1_555
C13 C12 1_555 1_555
H6 C13 1_555 1_555
H7 C13 1_555 1_555
H8 C13 1_555 1_555
C14 C12 1_555 1_555
C15 C14 1_555 1_555
H9 C15 1_555 1_555
C16 C15 1_555 1_555
H10 C16 1_555 1_555
C17 C16 1_555 1_555
C18 C17 1_555 1_555
H11 C18 1_555 1_555
C19 C14 1_555 1_555
H12 C19 1_555 1_555
Cl2D C1 1_555 1_555
Cl2H C1 1_555 1_555
B1O B1 1_555 1_555
F1O B1O 1_555 1_555
F2O B1O 1_555 1_555
N3E C7E 1_555 1_555
N4E H1E 1_555 1_555
N5E N4E 1_555 1_555
C7E H2E 1_555 1_555
C8E C7E 1_555 1_555
H3E C8E 1_555 1_555
C9E C8E 1_555 1_555
H4E C9E 1_555 1_555
C10E C9E 1_555 1_555
H5E C10E 1_555 1_555
C11E N3E 1_555 1_555
C12E N5E 1_555 1_555
C13E C12E 1_555 1_555
H6E C13E 1_555 1_555
H7E C13E 1_555 1_555
H8E C13E 1_555 1_555
C14E C12E 1_555 1_555
C15E C14E 1_555 1_555
H9E C15E 1_555 1_555
C16E C15E 1_555 1_555
H10E C16E 1_555 1_555
C17E N6 1_555 1_555
C18E C17E 1_555 1_555
H11E C18E 1_555 1_555
C19E C14E 1_555 1_555
H12E C19E 1_555 1_555
N3K C7K 1_555 1_555
N4K H1K 1_555 1_555
N5K N4K 1_555 1_555
C7K H2K 1_555 1_555
C8K C7K 1_555 1_555
H3K C8K 1_555 1_555
C9K C8K 1_555 1_555
H4K C9K 1_555 1_555
C10K C9K 1_555 1_555
H5K C10K 1_555 1_555
C11K N3K 1_555 1_555
C12K N5K 1_555 1_555
C13K C12K 1_555 1_555
H6K C13K 1_555 1_555
H7K C13K 1_555 1_555
H8K C13K 1_555 1_555
C14K C12K 1_555 1_555
C15K C14K 1_555 1_555
H9K C15K 1_555 1_555
C16K C15K 1_555 1_555
H10K C16K 1_555 1_555
C17K N6 1_555 1_555
C18K C17K 1_555 1_555
H11K C18K 1_555 1_555
C19K C14K 1_555 1_555
H12K C19K 1_555 1_555
Ag1E N3E 1_555 1_555
Ag1K N3K 1_555 1_555
N3M C7M 1_555 1_555
N4M H1M 1_555 1_555
N5M N4M 1_555 1_555
N6M C17M 1_555 1_555
C7M H2M 1_555 1_555
C8M C7M 1_555 1_555
H3M C8M 1_555 1_555
C9M C8M 1_555 1_555
H4M C9M 1_555 1_555
C10M C9M 1_555 1_555
H5M C10M 1_555 1_555
C11M N3M 1_555 1_555
C12M N5M 1_555 1_555
C13M C12M 1_555 1_555
H6M C13M 1_555 1_555
H7M C13M 1_555 1_555
H8M C13M 1_555 1_555
C14M C12M 1_555 1_555
C15M C14M 1_555 1_555
H9M C15M 1_555 1_555
C16M C15M 1_555 1_555
H10M C16M 1_555 1_555
C17M C16M 1_555 1_555
C18M C17M 1_555 1_555
H11M C18M 1_555 1_555
C19M C14M 1_555 1_555
H12M C19M 1_555 1_555
N3S C7S 1_555 1_555
N4S H1S 1_555 1_555
N5S N4S 1_555 1_555
C7S H2S 1_555 1_555
C8S C7S 1_555 1_555
H3S C8S 1_555 1_555
C9S C8S 1_555 1_555
H4S C9S 1_555 1_555
C10S C9S 1_555 1_555
H5S C10S 1_555 1_555
C11S N3S 1_555 1_555
C12S N5S 1_555 1_555
C13S C12S 1_555 1_555
H6S C13S 1_555 1_555
H7S C13S 1_555 1_555
H8S C13S 1_555 1_555
C14S C12S 1_555 1_555
C15S C14S 1_555 1_555
H9S C15S 1_555 1_555
C16S C15S 1_555 1_555
H10S C16S 1_555 1_555
C17S N6M 1_555 1_555
C18S C17S 1_555 1_555
H11S C18S 1_555 1_555
C19S C14S 1_555 1_555
H12S C19S 1_555 1_555
N3T Ag1K 1_555 1_555
N4T H1T 1_555 1_555
N5T Ag1K 1_555 1_555
C7T N3T 1_555 1_555
H2T C7T 1_555 1_555
C8T C7T 1_555 1_555
H3T C8T 1_555 1_555
C9T C8T 1_555 1_555
H4T C9T 1_555 1_555
C10T C9T 1_555 1_555
H5T C10T 1_555 1_555
C11T N3T 1_555 1_555
C12T N5T 1_555 1_555
C13T C12T 1_555 1_555
H6T C13T 1_555 1_555
H7T C13T 1_555 1_555
H8T C13T 1_555 1_555
C14T C12T 1_555 1_555
C15T C14T 1_555 1_555
H9T C15T 1_555 1_555
C16T C15T 1_555 1_555
H10T C16T 1_555 1_555
C17T N6M 1_555 1_555
C18T C17T 1_555 1_555
H11T C18T 1_555 1_555
C19T C14T 1_555 1_555
H12T C19T 1_555 1_555
Ag1B N3M 1_555 1_555
Ag1D N3S 1_555 1_555
N3O Ag1 1_555 1_555
N3R Ag1E 1_555 1_555
N5O Ag1 1_555 1_555
N5R Ag1E 1_555 1_555
N4 N5 1_555 1_555
N4 C11 1_555 1_555
C10 C11 1_555 1_555
C18 C19 1_555 1_555
N4E C11E 1_555 1_555
N5E Ag1E 1_555 1_555
C10E C11E 1_555 1_555
C16E C17E 1_555 1_555
C18E C19E 1_555 1_555
N4K C11K 1_555 1_555
N5K Ag1K 1_555 1_555
C10K C11K 1_555 1_555
C16K C17K 1_555 1_555
C18K C19K 1_555 1_555
N4M C11M 1_555 1_555
N5M Ag1B 1_555 1_555
C10M C11M 1_555 1_555
C18M C19M 1_555 1_555
N4S C11S 1_555 1_555
N5S Ag1D 1_555 1_555
C10S C11S 1_555 1_555
C16S C17S 1_555 1_555
C18S C19S 1_555 1_555
N4T N5T 1_555 1_555
N4T C11T 1_555 1_555
C10T C11T 1_555 1_555
C16T C17T 1_555 1_555
C18T C19T 1_555 1_555

#END
