
#######################################################################
#
#                 Cambridge Crystallographic Data Centre
#                                CCDC 
#
#######################################################################
#
# If this CIF has been generated from an entry in the Cambridge 
# Structural Database, then it will include bibliographic, chemical, 
# crystal, experimental, refinement or atomic coordinate data resulting 
# from the CCDC's data processing and validation procedures.
#
#######################################################################

data_ADAVEI
_chemical_formula_moiety         'C82 H81 Ag5 B2 Cl4 F6 N25 O2'
_symmetry_cell_setting           cubic
_symmetry_space_group_name_H-M   'I 21 3'
_symmetry_Int_Tables_number      199
_space_group_name_Hall           'I 2b 2c 3'
loop_
_symmetry_equiv_pos_site_id
_symmetry_equiv_pos_as_xyz
1 x,y,z
2 1/2-x,-y,1/2+z
3 -x,1/2+y,1/2-z
4 1/2+x,1/2-y,-z
5 z,x,y
6 1/2+z,1/2-x,-y
7 1/2-z,-x,1/2+y
8 -z,1/2+x,1/2-y
9 y,z,x
10 -y,1/2+z,1/2-x
11 1/2+y,1/2-z,-x
12 1/2-y,-z,1/2+x
13 1/2+x,1/2+y,1/2+z
14 -x,1/2-y,z
15 1/2-x,y,-z
16 x,-y,1/2-z
17 1/2+z,1/2+x,1/2+y
18 z,-x,1/2-y
19 -z,1/2-x,y
20 1/2-z,x,-y
21 1/2+y,1/2+z,1/2+x
22 1/2-y,z,-x
23 y,-z,1/2-x
24 -y,1/2-z,x
_cell_length_a                   25.369(5)
_cell_length_b                   25.369(5)
_cell_length_c                   25.369(5)
_cell_angle_alpha                90
_cell_angle_beta                 90
_cell_angle_gamma                90
_cell_volume                     16327.1
loop_
_atom_site_label
_atom_site_type_symbol
_atom_site_fract_x
_atom_site_fract_y
_atom_site_fract_z
B1 B 0.79745(19) -0.02769(18) 0.75994(17)
F1 F 0.7970(4) -0.0146(2) 0.7087(2)
F2 F 0.7543(3) -0.0582(4) 0.7679(5)
F3 F 0.8401(4) -0.0575(5) 0.7727(6)
B1O B 0.79745(19) 0.02769(18) 0.74006(17)
F1O F 0.7970(4) 0.0146(2) 0.7913(2)
F2O F 0.7543(3) 0.0582(4) 0.7321(5)
F3O F 0.8401(4) 0.0575(5) 0.7273(6)
O1 O 0.650(2) 0.564(2) 0.413(2)
C2 C 0.8255(15) 0.2994(14) 0.2961(5)
N1 N 0.8214(13) 0.3200(9) 0.3941(4)
C3 C 0.8174(14) 0.3018(11) 0.3526(4)
Ag1 Ag 0.38700(4) 0.0000 1.2500
N2 N 0.3614(3) 0.0639(3) 1.3051(3)
N3 N 0.4369(3) 0.1080(3) 1.2849(3)
H1 H 0.4597 0.1320 1.2923
N4 N 0.4493(3) 0.0722(3) 1.2479(3)
N5 N 0.5560(4) -0.0560(4) 1.0560(4)
C4 C 0.3129(4) 0.0630(4) 1.3265(5)
H2 H 0.2910 0.0343 1.3197
C5 C 0.2943(4) 0.1035(5) 1.3585(5)
H3 H 0.2629 0.1003 1.3771
C6 C 0.3253(4) 0.1498(4) 1.3613(4)
H4 H 0.3126 0.1799 1.3779
C7 C 0.3731(3) 0.1493(3) 1.3397(4)
H5 H 0.3948 0.1784 1.3450
C8 C 0.3922(4) 0.1083(4) 1.3102(4)
C9 C 0.4994(4) 0.0715(3) 1.2298(3)
C10 C 0.5386(4) 0.1083(4) 1.2546(4)
H6 H 0.5215 0.1286 1.2816
H7 H 0.5524 0.1316 1.2282
H8 H 0.5668 0.0883 1.2699
C11 C 0.5127(3) 0.0383(3) 1.1866(3)
C12 C 0.5638(4) 0.0233(4) 1.1775(4)
H9 H 0.5900 0.0335 1.2011
C13 C 0.5775(3) -0.0068(4) 1.1338(4)
H10 H 0.6126 -0.0149 1.1269
C14 C 0.5399(4) -0.0237(3) 1.1025(4)
C15 C 0.4872(3) -0.0115(4) 1.1116(3)
H11 H 0.4609 -0.0238 1.0892
C16 C 0.4759(4) 0.0176(4) 1.1523(4)
H12 H 0.4406 0.0250 1.1588
N2E N 0.8051(3) 0.1386(3) 0.9361(3)
N3E N 0.7849(3) 0.0631(3) 0.8920(3)
H1E H 0.7923 0.0403 0.8680
N4E N 0.7479(3) 0.0507(3) 0.9278(3)
C4E C 0.8265(5) 0.1871(4) 0.9370(4)
H2E H 0.8197 0.2090 0.9657
C5E C 0.8585(5) 0.2057(4) 0.8965(5)
H3E H 0.8771 0.2371 0.8997
C6E C 0.8613(4) 0.1747(4) 0.8502(4)
H4E H 0.8779 0.1874 0.8201
C7E C 0.8397(4) 0.1269(3) 0.8507(3)
H5E H 0.8450 0.1052 0.8216
C8E C 0.8102(4) 0.1078(4) 0.8917(4)
C9E C 0.7298(3) 0.0006(4) 0.9285(3)
C10E C 0.7546(4) -0.0386(4) 0.8917(4)
H6E H 0.7816 -0.0215 0.8714
H7E H 0.7282 -0.0524 0.8684
H8E H 0.7699 -0.0668 0.9117
C11E C 0.6866(3) -0.0127(3) 0.9617(3)
C12E C 0.6775(4) -0.0638(4) 0.9767(4)
H9E H 0.7011 -0.0900 0.9665
C13E C 0.6338(4) -0.0775(3) 1.0068(4)
H10E H 0.6269 -0.1126 1.0149
C14E C 0.6025(4) -0.0399(4) 1.0237(3)
C15E C 0.6116(3) 0.0128(3) 1.0115(4)
H11E H 0.5892 0.0391 1.0238
C16E C 0.6523(4) 0.0241(4) 0.9824(4)
H12E H 0.6588 0.0594 0.9750
N2K N 0.4361(3) -0.3051(3) 0.8614(3)
N3K N 0.3920(3) -0.2849(3) 0.9369(3)
H1K H 0.3680 -0.2923 0.9597
N4K N 0.4278(3) -0.2479(3) 0.9493(3)
C4K C 0.4370(4) -0.3265(5) 0.8129(4)
H2K H 0.4657 -0.3197 0.7910
C5K C 0.3965(5) -0.3585(5) 0.7943(4)
H3K H 0.3997 -0.3771 0.7629
C6K C 0.3502(4) -0.3613(4) 0.8253(4)
H4K H 0.3201 -0.3779 0.8126
C7K C 0.3507(3) -0.3397(4) 0.8731(3)
H5K H 0.3216 -0.3450 0.8948
C8K C 0.3917(4) -0.3102(4) 0.8922(4)
C9K C 0.4285(3) -0.2298(3) 0.9994(4)
C10K C 0.3917(4) -0.2546(4) 1.0386(4)
H6K H 0.3714 -0.2816 1.0215
H7K H 0.3684 -0.2282 1.0524
H8K H 0.4117 -0.2699 1.0668
C11K C 0.4617(3) -0.1866(3) 1.0127(3)
C12K C 0.4767(4) -0.1775(4) 1.0638(4)
H9K H 0.4665 -0.2011 1.0900
C13K C 0.5068(4) -0.1338(4) 1.0775(3)
H10K H 0.5149 -0.1269 1.1126
C14K C 0.5237(3) -0.1025(4) 1.0399(4)
C15K C 0.5115(4) -0.1116(3) 0.9872(3)
H11K H 0.5238 -0.0892 0.9609
C16K C 0.4824(4) -0.1523(4) 0.9759(4)
H12K H 0.4750 -0.1588 0.9406
Ag1E Ag 0.7500 0.11300(4) 1.0000
Ag1K Ag 0.5000 -0.2500 0.88700(4)
N2M N 0.6386(3) -0.5639(3) 1.3051(3)
N3M N 0.5631(3) -0.6080(3) 1.2849(3)
H1M H 0.5403 -0.6320 1.2923
N4M N 0.5507(3) -0.5722(3) 1.2479(3)
N5M N 0.4440(4) -0.4440(4) 1.0560(4)
C4M C 0.6871(4) -0.5630(4) 1.3265(5)
H2M H 0.7090 -0.5343 1.3197
C5M C 0.7057(4) -0.6035(5) 1.3585(5)
H3M H 0.7371 -0.6003 1.3771
C6M C 0.6747(4) -0.6498(4) 1.3613(4)
H4M H 0.6874 -0.6799 1.3779
C7M C 0.6269(3) -0.6493(3) 1.3397(4)
H5M H 0.6052 -0.6784 1.3450
C8M C 0.6078(4) -0.6083(4) 1.3102(4)
C9M C 0.5006(4) -0.5715(3) 1.2298(3)
C10M C 0.4614(4) -0.6083(4) 1.2546(4)
H6M H 0.4785 -0.6286 1.2816
H7M H 0.4476 -0.6316 1.2282
H8M H 0.4332 -0.5883 1.2699
C11M C 0.4873(3) -0.5383(3) 1.1866(3)
C12M C 0.4362(4) -0.5233(4) 1.1775(4)
H9M H 0.4100 -0.5335 1.2011
C13M C 0.4225(3) -0.4932(4) 1.1338(4)
H10M H 0.3874 -0.4851 1.1269
C14M C 0.4601(4) -0.4763(3) 1.1025(4)
C15M C 0.5128(3) -0.4885(4) 1.1116(3)
H11M H 0.5391 -0.4762 1.0892
C16M C 0.5241(4) -0.5176(4) 1.1523(4)
H12M H 0.5594 -0.5250 1.1588
N2S N 0.1949(3) -0.6386(3) 0.9361(3)
N3S N 0.2151(3) -0.5631(3) 0.8920(3)
H1S H 0.2077 -0.5403 0.8680
N4S N 0.2521(3) -0.5507(3) 0.9278(3)
C4S C 0.1735(5) -0.6871(4) 0.9370(4)
H2S H 0.1803 -0.7090 0.9657
C5S C 0.1415(5) -0.7057(4) 0.8965(5)
H3S H 0.1229 -0.7371 0.8997
C6S C 0.1387(4) -0.6747(4) 0.8502(4)
H4S H 0.1221 -0.6874 0.8201
C7S C 0.1603(4) -0.6269(3) 0.8507(3)
H5S H 0.1550 -0.6052 0.8216
C8S C 0.1898(4) -0.6078(4) 0.8917(4)
C9S C 0.2702(3) -0.5006(4) 0.9285(3)
C10S C 0.2454(4) -0.4614(4) 0.8917(4)
H6S H 0.2184 -0.4785 0.8714
H7S H 0.2718 -0.4476 0.8684
H8S H 0.2301 -0.4332 0.9117
C11S C 0.3134(3) -0.4873(3) 0.9617(3)
C12S C 0.3225(4) -0.4362(4) 0.9767(4)
H9S H 0.2989 -0.4100 0.9665
C13S C 0.3662(4) -0.4225(3) 1.0068(4)
H10S H 0.3731 -0.3874 1.0149
C14S C 0.3975(4) -0.4601(4) 1.0237(3)
C15S C 0.3884(3) -0.5128(3) 1.0115(4)
H11S H 0.4108 -0.5391 1.0238
C16S C 0.3477(4) -0.5241(4) 0.9824(4)
H12S H 0.3412 -0.5594 0.9750
N2T N 0.5639(3) -0.1949(3) 0.8614(3)
N3T N 0.6080(3) -0.2151(3) 0.9369(3)
H1T H 0.6320 -0.2077 0.9597
N4T N 0.5722(3) -0.2521(3) 0.9493(3)
C4T C 0.5630(4) -0.1735(5) 0.8129(4)
H2T H 0.5343 -0.1803 0.7910
C5T C 0.6035(5) -0.1415(5) 0.7943(4)
H3T H 0.6003 -0.1229 0.7629
C6T C 0.6498(4) -0.1387(4) 0.8253(4)
H4T H 0.6799 -0.1221 0.8126
C7T C 0.6493(3) -0.1603(4) 0.8731(3)
H5T H 0.6784 -0.1550 0.8948
C8T C 0.6083(4) -0.1898(4) 0.8922(4)
C9T C 0.5715(3) -0.2702(3) 0.9994(4)
C10T C 0.6083(4) -0.2454(4) 1.0386(4)
H6T H 0.6286 -0.2184 1.0215
H7T H 0.6316 -0.2718 1.0524
H8T H 0.5883 -0.2301 1.0668
C11T C 0.5383(3) -0.3134(3) 1.0127(3)
C12T C 0.5233(4) -0.3225(4) 1.0638(4)
H9T H 0.5335 -0.2989 1.0900
C13T C 0.4932(4) -0.3662(4) 1.0775(3)
H10T H 0.4851 -0.3731 1.1126
C14T C 0.4763(3) -0.3975(4) 1.0399(4)
C15T C 0.4885(4) -0.3884(3) 0.9872(3)
H11T H 0.4762 -0.4108 0.9609
C16T C 0.5176(4) -0.3477(4) 0.9759(4)
H12T H 0.5250 -0.3412 0.9406
Ag1B Ag 0.61300(4) -0.5000 1.2500
Ag1D Ag 0.2500 -0.61300(4) 1.0000
N2O N 0.3614(3) -0.0639(3) 1.1949(3)
N2R N 0.6949(3) 0.1386(3) 1.0639(3)
N4O N 0.4493(3) -0.0722(3) 1.2521(3)
N4R N 0.7521(3) 0.0507(3) 1.0722(3)
C17 C 0.6835(3) 0.3648(5) 0.5215(6)
O2 O 0.6456(8) 0.4091(8) 0.532(2)
C1 C 0.8179(6) -0.1821(6) 0.8179(6)
Cl1 Cl 0.7776(3) -0.2224(3) 0.7776(3)
Cl2 Cl 0.8110(3) -0.1194(3) 0.7948(3)
Cl2D Cl 0.7948(3) -0.1890(3) 0.8806(3)
Cl2H Cl 0.8806(3) -0.2052(3) 0.8110(3)
loop_
_geom_bond_atom_site_label_1
_geom_bond_atom_site_label_2
_geom_bond_site_symmetry_1
_geom_bond_site_symmetry_2
C1 Cl1 1_555 1_555
Cl2 C1 1_555 1_555
B1 F1 1_555 1_555
F1 B1O 1_555 1_555
F2 B1 1_555 1_555
F3 B1 1_555 1_555
C2 C3 1_555 1_555
N1 C3 1_555 1_555
Ag1 N2 1_555 1_555
N2 C4 1_555 1_555
N3 H1 1_555 1_555
N4 Ag1 1_555 1_555
N5 C14 1_555 1_555
C4 H2 1_555 1_555
C5 C4 1_555 1_555
H3 C5 1_555 1_555
C6 C5 1_555 1_555
H4 C6 1_555 1_555
C7 C6 1_555 1_555
H5 C7 1_555 1_555
C8 N2 1_555 1_555
C9 N4 1_555 1_555
C10 C9 1_555 1_555
H6 C10 1_555 1_555
H7 C10 1_555 1_555
H8 C10 1_555 1_555
C11 C9 1_555 1_555
C12 C11 1_555 1_555
H9 C12 1_555 1_555
C13 C12 1_555 1_555
H10 C13 1_555 1_555
C14 C13 1_555 1_555
C15 C14 1_555 1_555
H11 C15 1_555 1_555
C16 C11 1_555 1_555
H12 C16 1_555 1_555
C17 O2 1_555 1_555
Cl2D C1 1_555 1_555
Cl2H C1 1_555 1_555
B1O B1 1_555 1_555
F1O B1 1_555 1_555
F2O B1O 1_555 1_555
F3O B1O 1_555 1_555
N2E C4E 1_555 1_555
N3E H1E 1_555 1_555
N4E N3E 1_555 1_555
C4E H2E 1_555 1_555
C5E C4E 1_555 1_555
H3E C5E 1_555 1_555
C6E C5E 1_555 1_555
H4E C6E 1_555 1_555
C7E C6E 1_555 1_555
H5E C7E 1_555 1_555
C8E N2E 1_555 1_555
C9E N4E 1_555 1_555
C10E C9E 1_555 1_555
H6E C10E 1_555 1_555
H7E C10E 1_555 1_555
H8E C10E 1_555 1_555
C11E C9E 1_555 1_555
C12E C11E 1_555 1_555
H9E C12E 1_555 1_555
C13E C12E 1_555 1_555
H10E C13E 1_555 1_555
C14E N5 1_555 1_555
C15E C14E 1_555 1_555
H11E C15E 1_555 1_555
C16E C11E 1_555 1_555
H12E C16E 1_555 1_555
N2K C4K 1_555 1_555
N3K H1K 1_555 1_555
N4K N3K 1_555 1_555
C4K H2K 1_555 1_555
C5K C4K 1_555 1_555
H3K C5K 1_555 1_555
C6K C5K 1_555 1_555
H4K C6K 1_555 1_555
C7K C6K 1_555 1_555
H5K C7K 1_555 1_555
C8K N2K 1_555 1_555
C9K N4K 1_555 1_555
C10K C9K 1_555 1_555
H6K C10K 1_555 1_555
H7K C10K 1_555 1_555
H8K C10K 1_555 1_555
C11K C9K 1_555 1_555
C12K C11K 1_555 1_555
H9K C12K 1_555 1_555
C13K C12K 1_555 1_555
H10K C13K 1_555 1_555
C14K N5 1_555 1_555
C15K C14K 1_555 1_555
H11K C15K 1_555 1_555
C16K C11K 1_555 1_555
H12K C16K 1_555 1_555
Ag1E N2E 1_555 1_555
Ag1K N2K 1_555 1_555
N2M C4M 1_555 1_555
N3M H1M 1_555 1_555
N4M N3M 1_555 1_555
N5M C14M 1_555 1_555
C4M H2M 1_555 1_555
C5M C4M 1_555 1_555
H3M C5M 1_555 1_555
C6M C5M 1_555 1_555
H4M C6M 1_555 1_555
C7M C6M 1_555 1_555
H5M C7M 1_555 1_555
C8M N2M 1_555 1_555
C9M N4M 1_555 1_555
C10M C9M 1_555 1_555
H6M C10M 1_555 1_555
H7M C10M 1_555 1_555
H8M C10M 1_555 1_555
C11M C9M 1_555 1_555
C12M C11M 1_555 1_555
H9M C12M 1_555 1_555
C13M C12M 1_555 1_555
H10M C13M 1_555 1_555
C14M C13M 1_555 1_555
C15M C14M 1_555 1_555
H11M C15M 1_555 1_555
C16M C11M 1_555 1_555
H12M C16M 1_555 1_555
N2S C4S 1_555 1_555
N3S H1S 1_555 1_555
N4S N3S 1_555 1_555
C4S H2S 1_555 1_555
C5S C4S 1_555 1_555
H3S C5S 1_555 1_555
C6S C5S 1_555 1_555
H4S C6S 1_555 1_555
C7S C6S 1_555 1_555
H5S C7S 1_555 1_555
C8S N2S 1_555 1_555
C9S N4S 1_555 1_555
C10S C9S 1_555 1_555
H6S C10S 1_555 1_555
H7S C10S 1_555 1_555
H8S C10S 1_555 1_555
C11S C9S 1_555 1_555
C12S C11S 1_555 1_555
H9S C12S 1_555 1_555
C13S C12S 1_555 1_555
H10S C13S 1_555 1_555
C14S N5M 1_555 1_555
C15S C14S 1_555 1_555
H11S C15S 1_555 1_555
C16S C11S 1_555 1_555
H12S C16S 1_555 1_555
N2T Ag1K 1_555 1_555
N3T H1T 1_555 1_555
N4T Ag1K 1_555 1_555
C4T N2T 1_555 1_555
H2T C4T 1_555 1_555
C5T C4T 1_555 1_555
H3T C5T 1_555 1_555
C6T C5T 1_555 1_555
H4T C6T 1_555 1_555
C7T C6T 1_555 1_555
H5T C7T 1_555 1_555
C8T N2T 1_555 1_555
C9T N4T 1_555 1_555
C10T C9T 1_555 1_555
H6T C10T 1_555 1_555
H7T C10T 1_555 1_555
H8T C10T 1_555 1_555
C11T C9T 1_555 1_555
C12T C11T 1_555 1_555
H9T C12T 1_555 1_555
C13T C12T 1_555 1_555
H10T C13T 1_555 1_555
C14T N5M 1_555 1_555
C15T C14T 1_555 1_555
H11T C15T 1_555 1_555
C16T C11T 1_555 1_555
H12T C16T 1_555 1_555
Ag1B N2M 1_555 1_555
Ag1D N2S 1_555 1_555
N2O Ag1 1_555 1_555
N2R Ag1E 1_555 1_555
N4O Ag1 1_555 1_555
N4R Ag1E 1_555 1_555
N3 N4 1_555 1_555
N3 C8 1_555 1_555
C7 C8 1_555 1_555
C15 C16 1_555 1_555
B1O F1O 1_555 1_555
N3E C8E 1_555 1_555
N4E Ag1E 1_555 1_555
C7E C8E 1_555 1_555
C13E C14E 1_555 1_555
C15E C16E 1_555 1_555
N3K C8K 1_555 1_555
N4K Ag1K 1_555 1_555
C7K C8K 1_555 1_555
C13K C14K 1_555 1_555
C15K C16K 1_555 1_555
N3M C8M 1_555 1_555
N4M Ag1B 1_555 1_555
C7M C8M 1_555 1_555
C15M C16M 1_555 1_555
N3S C8S 1_555 1_555
N4S Ag1D 1_555 1_555
C7S C8S 1_555 1_555
C13S C14S 1_555 1_555
C15S C16S 1_555 1_555
N3T N4T 1_555 1_555
N3T C8T 1_555 1_555
C7T C8T 1_555 1_555
C13T C14T 1_555 1_555
C15T C16T 1_555 1_555

#END
