
#######################################################################
#
#                 Cambridge Crystallographic Data Centre
#                                CCDC 
#
#######################################################################
#
# If this CIF has been generated from an entry in the Cambridge 
# Structural Database, then it will include bibliographic, chemical, 
# crystal, experimental, refinement or atomic coordinate data resulting 
# from the CCDC's data processing and validation procedures.
#
#######################################################################

data_LARXUA
_chemical_formula_moiety         '(C66 H48 Cu3 O15)n'
_symmetry_cell_setting           cubic
_symmetry_space_group_name_H-M   'P n -3 n'
_symmetry_Int_Tables_number      222
_space_group_name_Hall           '-P 4a 2bc 3'
loop_
_symmetry_equiv_pos_site_id
_symmetry_equiv_pos_as_xyz
1 x,y,z
2 1/2-x,1/2-y,z
3 1/2-x,y,1/2-z
4 x,1/2-y,1/2-z
5 z,x,y
6 z,1/2-x,1/2-y
7 1/2-z,1/2-x,y
8 1/2-z,x,1/2-y
9 y,z,x
10 1/2-y,z,1/2-x
11 y,1/2-z,1/2-x
12 1/2-y,1/2-z,x
13 y,x,1/2-z
14 1/2-y,1/2-x,1/2-z
15 y,1/2-x,z
16 1/2-y,x,z
17 x,z,1/2-y
18 1/2-x,z,y
19 1/2-x,1/2-z,1/2-y
20 x,1/2-z,y
21 z,y,1/2-x
22 z,1/2-y,x
23 1/2-z,y,x
24 1/2-z,1/2-y,1/2-x
25 -x,-y,-z
26 1/2+x,1/2+y,-z
27 1/2+x,-y,1/2+z
28 -x,1/2+y,1/2+z
29 -z,-x,-y
30 -z,1/2+x,1/2+y
31 1/2+z,1/2+x,-y
32 1/2+z,-x,1/2+y
33 -y,-z,-x
34 1/2+y,-z,1/2+x
35 -y,1/2+z,1/2+x
36 1/2+y,1/2+z,-x
37 -y,-x,1/2+z
38 1/2+y,1/2+x,1/2+z
39 -y,1/2+x,-z
40 1/2+y,-x,-z
41 -x,-z,1/2+y
42 1/2+x,-z,-y
43 1/2+x,1/2+z,1/2+y
44 -x,1/2+z,-y
45 -z,-y,1/2+x
46 -z,1/2+y,-x
47 1/2+z,-y,-x
48 1/2+z,1/2+y,1/2+x
_cell_length_a                   33.3261(5)
_cell_length_b                   33.3261(5)
_cell_length_c                   33.3261(5)
_cell_angle_alpha                90
_cell_angle_beta                 90
_cell_angle_gamma                90
_cell_volume                     37012.9
loop_
_atom_site_label
_atom_site_type_symbol
_atom_site_fract_x
_atom_site_fract_y
_atom_site_fract_z
_atom_site_U_iso_or_equiv
_atom_site_thermal_displace_type
Cu1 Cu 0.04002(7) 0.7500 0.2500 0.3104 Uani
O1 O 0.0386(2) 0.78227(16) 0.20210(14) 0.2547 Uani
O2 O -0.03112(17) 0.78354(13) 0.19999(12) 0.2057 Uani
O3 O 0.1125(3) 0.7500 0.2500 0.5510 Uani
C1 C -0.06139(19) 0.9649(2) -0.00188(19) 0.1583 Uani
H1 H -0.0809 0.9628 0.0179 0.1900 Uiso
C2 C -0.0300(3) 0.93736(18) -0.0043(2) 0.1630 Uani
C3 C -0.0283(2) 0.90742(12) 0.02966(11) 0.1530 Uani
C4 C -0.06282(14) 0.89387(16) 0.0488(2) 0.1640 Uani
H2 H -0.0879 0.9017 0.0395 0.1970 Uiso
C5 C -0.05978(17) 0.86867(15) 0.08189(19) 0.1767 Uani
H3 H -0.0829 0.8596 0.0947 0.2120 Uiso
C6 C -0.0222(3) 0.85702(11) 0.09585(12) 0.1700 Uani
C7 C 0.01225(14) 0.87057(16) 0.0767(2) 0.1733 Uani
H4 H 0.0374 0.8628 0.0861 0.2080 Uiso
C8 C 0.00921(16) 0.89577(16) 0.04363(19) 0.1613 Uani
H5 H 0.0323 0.9048 0.0308 0.1940 Uiso
C9 C -0.0222(2) 0.8313(2) 0.1327(2) 0.1970 Uani
H6 H -0.0474 0.8247 0.1428 0.2360 Uiso
C10 C 0.0066(2) 0.8178(2) 0.15134(19) 0.2267 Uani
H7 H 0.0321 0.8239 0.1417 0.2720 Uiso
C11 C 0.0039(2) 0.7910(2) 0.1901(2) 0.1613 Uani
O1D O 0.20210(14) 1.0386(2) -0.21773(16) 0.2547 Uani
O2D O 0.19999(12) 0.96888(17) -0.21646(13) 0.2057 Uani
C1D C -0.00188(19) 0.93861(19) -0.0351(2) 0.1583 Uani
H1D H 0.0179 0.9191 -0.0372 0.1900 Uiso
C2D C -0.0043(2) 0.9700(3) -0.06264(18) 0.1630 Uani
C3D C 0.02966(11) 0.9717(2) -0.09258(12) 0.1530 Uani
C4D C 0.0488(2) 0.93718(14) -0.10613(16) 0.1640 Uani
H2D H 0.0395 0.9121 -0.0983 0.1970 Uiso
C5D C 0.08189(19) 0.94022(17) -0.13133(15) 0.1767 Uani
H3D H 0.0947 0.9171 -0.1404 0.2120 Uiso
C6D C 0.09585(12) 0.9778(3) -0.14298(11) 0.1700 Uani
C7D C 0.0767(2) 1.01225(14) -0.12943(16) 0.1733 Uani
H4D H 0.0861 1.0374 -0.1372 0.2080 Uiso
C8D C 0.04363(19) 1.00921(16) -0.10423(16) 0.1613 Uani
H5D H 0.0308 1.0323 -0.0952 0.1940 Uiso
C9D C 0.1327(2) 0.9778(2) -0.1687(2) 0.1970 Uani
H6D H 0.1428 0.9526 -0.1753 0.2360 Uiso
C10D C 0.15134(19) 1.0066(2) -0.1822(2) 0.2267 Uani
H7D H 0.1417 1.0321 -0.1761 0.2720 Uiso
C11D C 0.1901(2) 1.0039(2) -0.2090(2) 0.1613 Uani
O1H O -0.21773(16) 1.20210(14) 0.0386(2) 0.2547 Uani
O2H O -0.21646(13) 1.19999(12) -0.03112(17) 0.2057 Uani
C1H C -0.0351(2) 0.99812(19) -0.06139(19) 0.1583 Uani
H1H H -0.0372 1.0179 -0.0809 0.1900 Uiso
C2H C -0.06264(18) 0.9957(2) -0.0300(3) 0.1630 Uani
C3H C -0.09258(12) 1.02966(11) -0.0283(2) 0.1530 Uani
C4H C -0.10613(16) 1.0488(2) -0.06282(14) 0.1640 Uani
H2H H -0.0983 1.0395 -0.0879 0.1970 Uiso
C5H C -0.13133(15) 1.08189(19) -0.05978(17) 0.1767 Uani
H3H H -0.1404 1.0947 -0.0829 0.2120 Uiso
C6H C -0.14298(11) 1.09585(12) -0.0222(3) 0.1700 Uani
C7H C -0.12943(16) 1.0767(2) 0.01225(14) 0.1733 Uani
H4H H -0.1372 1.0861 0.0374 0.2080 Uiso
C8H C -0.10423(16) 1.04363(19) 0.00921(16) 0.1613 Uani
H5H H -0.0952 1.0308 0.0323 0.1940 Uiso
C9H C -0.1687(2) 1.1327(2) -0.0222(2) 0.1970 Uani
H6H H -0.1753 1.1428 -0.0474 0.2360 Uiso
C10H C -0.1822(2) 1.15134(19) 0.0066(2) 0.2267 Uani
H7H H -0.1761 1.1417 0.0321 0.2720 Uiso
C11H C -0.2090(2) 1.1901(2) 0.0039(2) 0.1613 Uani
O1C O 0.0386(2) 0.71773(16) 0.29790(14) 0.2547 Uani
O2C O -0.03112(17) 0.71646(13) 0.30001(12) 0.2057 Uani
C1C C -0.06139(19) 0.5351(2) 0.50188(19) 0.1583 Uani
H1C H -0.0809 0.5372 0.4821 0.1900 Uiso
C2C C -0.0300(3) 0.56264(18) 0.5043(2) 0.1630 Uani
C3C C -0.0283(2) 0.59258(12) 0.47034(11) 0.1530 Uani
C4C C -0.06282(14) 0.60613(16) 0.4512(2) 0.1640 Uani
H2C H -0.0879 0.5983 0.4605 0.1970 Uiso
C5C C -0.05978(17) 0.63133(15) 0.41811(19) 0.1767 Uani
H3C H -0.0829 0.6404 0.4053 0.2120 Uiso
C6C C -0.0222(3) 0.64298(11) 0.40415(12) 0.1700 Uani
C7C C 0.01225(14) 0.62943(16) 0.4233(2) 0.1733 Uani
H4C H 0.0374 0.6372 0.4139 0.2080 Uiso
C8C C 0.00921(16) 0.60423(16) 0.45637(19) 0.1613 Uani
H5C H 0.0323 0.5952 0.4692 0.1940 Uiso
C9C C -0.0222(2) 0.6687(2) 0.3673(2) 0.1970 Uani
H6C H -0.0474 0.6753 0.3572 0.2360 Uiso
C10C C 0.0066(2) 0.6822(2) 0.34866(19) 0.2267 Uani
H7C H 0.0321 0.6761 0.3583 0.2720 Uiso
C11C C 0.0039(2) 0.7090(2) 0.3099(2) 0.1613 Uani
O1E O 0.20210(14) 0.4614(2) 0.71773(16) 0.2547 Uani
O2E O 0.19999(12) 0.53112(17) 0.71646(13) 0.2057 Uani
C1E C -0.00188(19) 0.56139(19) 0.5351(2) 0.1583 Uani
H1E H 0.0179 0.5809 0.5372 0.1900 Uiso
C2E C -0.0043(2) 0.5300(3) 0.56264(18) 0.1630 Uani
C3E C 0.02966(11) 0.5283(2) 0.59258(12) 0.1530 Uani
C4E C 0.0488(2) 0.56282(14) 0.60613(16) 0.1640 Uani
H2E H 0.0395 0.5879 0.5983 0.1970 Uiso
C5E C 0.08189(19) 0.55978(17) 0.63133(15) 0.1767 Uani
H3E H 0.0947 0.5829 0.6404 0.2120 Uiso
C6E C 0.09585(12) 0.5222(3) 0.64298(11) 0.1700 Uani
C7E C 0.0767(2) 0.48775(14) 0.62943(16) 0.1733 Uani
H4E H 0.0861 0.4626 0.6372 0.2080 Uiso
C8E C 0.04363(19) 0.49079(16) 0.60423(16) 0.1613 Uani
H5E H 0.0308 0.4677 0.5952 0.1940 Uiso
C9E C 0.1327(2) 0.5222(2) 0.6687(2) 0.1970 Uani
H6E H 0.1428 0.5474 0.6753 0.2360 Uiso
C10E C 0.15134(19) 0.4934(2) 0.6822(2) 0.2267 Uani
H7E H 0.1417 0.4679 0.6761 0.2720 Uiso
C11E C 0.1901(2) 0.4961(2) 0.7090(2) 0.1613 Uani
O1J O -0.21773(16) 0.29790(14) 0.4614(2) 0.2547 Uani
O2J O -0.21646(13) 0.30001(12) 0.53112(17) 0.2057 Uani
C1J C -0.0351(2) 0.50188(19) 0.56139(19) 0.1583 Uani
H1J H -0.0372 0.4821 0.5809 0.1900 Uiso
C2J C -0.06264(18) 0.5043(2) 0.5300(3) 0.1630 Uani
C3J C -0.09258(12) 0.47034(11) 0.5283(2) 0.1530 Uani
C4J C -0.10613(16) 0.4512(2) 0.56282(14) 0.1640 Uani
H2J H -0.0983 0.4605 0.5879 0.1970 Uiso
C5J C -0.13133(15) 0.41811(19) 0.55978(17) 0.1767 Uani
H3J H -0.1404 0.4053 0.5829 0.2120 Uiso
C6J C -0.14298(11) 0.40415(12) 0.5222(3) 0.1700 Uani
C7J C -0.12943(16) 0.4233(2) 0.48775(14) 0.1733 Uani
H4J H -0.1372 0.4139 0.4626 0.2080 Uiso
C8J C -0.10423(16) 0.45637(19) 0.49079(16) 0.1613 Uani
H5J H -0.0952 0.4692 0.4677 0.1940 Uiso
C9J C -0.1687(2) 0.3673(2) 0.5222(2) 0.1970 Uani
H6J H -0.1753 0.3572 0.5474 0.2360 Uiso
C10J C -0.1822(2) 0.34866(19) 0.4934(2) 0.2267 Uani
H7J H -0.1761 0.3583 0.4679 0.2720 Uiso
C11J C -0.2090(2) 0.3099(2) 0.4961(2) 0.1613 Uani
Cu1NA Cu -0.04002(7) 0.7500 0.2500 0.3104 Uani
O3NA O -0.1125(3) 0.7500 0.2500 0.5510 Uani
Cu1D Cu 0.2500 1.04002(7) -0.2500 0.3104 Uani
O3D O 0.2500 1.1125(3) -0.2500 0.5510 Uani
Cu1E Cu 0.2500 0.45998(7) 0.7500 0.3104 Uani
Cu1H Cu -0.2500 1.2500 0.04002(7) 0.3104 Uani
Cu1I Cu -0.2500 0.2500 0.45998(7) 0.3104 Uani
Cu1JA Cu 0.2500 0.95998(7) -0.2500 0.3104 Uani
Cu1KA Cu 0.2500 0.54002(7) 0.7500 0.3104 Uani
Cu1RA Cu -0.2500 0.2500 0.54002(7) 0.3104 Uani
Cu1SA Cu -0.2500 1.2500 -0.04002(7) 0.3104 Uani
O1G O 0.29790(14) 1.0386(2) -0.28227(16) 0.2547 Uani
O1NA O -0.0386(2) 0.79790(14) 0.28227(16) 0.2547 Uani
O1QA O -0.0386(2) 0.70210(14) 0.21773(16) 0.2547 Uani
O2JA O 0.21646(13) 1.03112(17) -0.30001(12) 0.2057 Uani
O2MA O 0.28354(13) 1.03112(17) -0.19999(12) 0.2057 Uani
O2NA O 0.03112(17) 0.80001(12) 0.28354(13) 0.2057 Uani
O2QA O 0.03112(17) 0.69999(12) 0.21646(13) 0.2057 Uani
loop_
_atom_site_aniso_label
_atom_site_aniso_U_11
_atom_site_aniso_U_22
_atom_site_aniso_U_33
_atom_site_aniso_U_23
_atom_site_aniso_U_13
_atom_site_aniso_U_12
Cu1 0.687(4) 0.1279(11) 0.1164(10) 0.0008(11) 0.000 0.000
O1 0.423(8) 0.186(4) 0.155(4) 0.045(3) -0.003(5) 0.018(5)
O2 0.339(6) 0.148(3) 0.130(3) 0.017(3) 0.020(4) -0.002(4)
O3 0.559(19) 0.58(2) 0.514(17) 0.021(12) 0.000 0.000
C1 0.178(7) 0.143(6) 0.154(6) 0.059(5) 0.040(4) 0.016(5)
C2 0.161(7) 0.117(5) 0.211(9) 0.030(5) 0.014(6) 0.053(5)
C3 0.155(6) 0.152(5) 0.152(5) 0.034(4) 0.042(5) 0.036(5)
C4 0.165(6) 0.157(6) 0.170(6) 0.026(4) 0.024(5) 0.017(5)
C5 0.223(9) 0.146(6) 0.161(6) 0.036(4) 0.017(5) 0.009(5)
C6 0.178(6) 0.158(5) 0.174(6) 0.044(4) -0.007(6) 0.021(6)
C7 0.188(7) 0.155(6) 0.177(7) 0.021(5) 0.032(5) 0.007(5)
C8 0.184(7) 0.146(5) 0.154(6) 0.038(4) 0.033(5) 0.022(4)
C9 0.272(9) 0.162(6) 0.157(6) 0.007(5) -0.052(6) 0.035(6)
C10 0.364(12) 0.153(6) 0.163(7) 0.010(5) -0.028(7) -0.012(7)
C11 0.231(8) 0.106(5) 0.147(6) 0.004(4) -0.006(6) 0.002(6)
O1D 0.155 0.423 0.186 0.018 0.045 -0.003
O2D 0.13 0.339 0.148 -0.002 0.017 0.02
C1D 0.154 0.178 0.143 0.016 0.059 0.04
C2D 0.211 0.161 0.117 0.053 0.03 0.014
C3D 0.152 0.155 0.152 0.036 0.034 0.042
C4D 0.17 0.165 0.157 0.017 0.026 0.024
C5D 0.161 0.223 0.146 0.009 0.036 0.017
C6D 0.174 0.178 0.158 0.021 0.044 -0.007
C7D 0.177 0.188 0.155 0.007 0.021 0.032
C8D 0.154 0.184 0.146 0.022 0.038 0.033
C9D 0.157 0.272 0.162 0.035 0.007 -0.052
C10D 0.163 0.364 0.153 -0.012 0.01 -0.028
C11D 0.147 0.231 0.106 0.002 0.004 -0.006
O1H 0.186 0.155 0.423 -0.003 0.018 0.045
O2H 0.148 0.13 0.339 0.02 -0.002 0.017
C1H 0.143 0.154 0.178 0.04 0.016 0.059
C2H 0.117 0.211 0.161 0.014 0.053 0.03
C3H 0.152 0.152 0.155 0.042 0.036 0.034
C4H 0.157 0.17 0.165 0.024 0.017 0.026
C5H 0.146 0.161 0.223 0.017 0.009 0.036
C6H 0.158 0.174 0.178 -0.007 0.021 0.044
C7H 0.155 0.177 0.188 0.032 0.007 0.021
C8H 0.146 0.154 0.184 0.033 0.022 0.038
C9H 0.162 0.157 0.272 -0.052 0.035 0.007
C10H 0.153 0.163 0.364 -0.028 -0.012 0.01
C11H 0.106 0.147 0.231 -0.006 0.002 0.004
O1C 0.423 0.186 0.155 0.045 0.003 -0.018
O2C 0.339 0.148 0.13 0.017 -0.02 0.002
C1C 0.178 0.143 0.154 0.059 -0.04 -0.016
C2C 0.161 0.117 0.211 0.03 -0.014 -0.053
C3C 0.155 0.152 0.152 0.034 -0.042 -0.036
C4C 0.165 0.157 0.17 0.026 -0.024 -0.017
C5C 0.223 0.146 0.161 0.036 -0.017 -0.009
C6C 0.178 0.158 0.174 0.044 0.007 -0.021
C7C 0.188 0.155 0.177 0.021 -0.032 -0.007
C8C 0.184 0.146 0.154 0.038 -0.033 -0.022
C9C 0.272 0.162 0.157 0.007 0.052 -0.035
C10C 0.364 0.153 0.163 0.01 0.028 0.012
C11C 0.231 0.106 0.147 0.004 0.006 -0.002
O1E 0.155 0.423 0.186 0.018 -0.045 0.003
O2E 0.13 0.339 0.148 -0.002 -0.017 -0.02
C1E 0.154 0.178 0.143 0.016 -0.059 -0.04
C2E 0.211 0.161 0.117 0.053 -0.03 -0.014
C3E 0.152 0.155 0.152 0.036 -0.034 -0.042
C4E 0.17 0.165 0.157 0.017 -0.026 -0.024
C5E 0.161 0.223 0.146 0.009 -0.036 -0.017
C6E 0.174 0.178 0.158 0.021 -0.044 0.007
C7E 0.177 0.188 0.155 0.007 -0.021 -0.032
C8E 0.154 0.184 0.146 0.022 -0.038 -0.033
C9E 0.157 0.272 0.162 0.035 -0.007 0.052
C10E 0.163 0.364 0.153 -0.012 -0.01 0.028
C11E 0.147 0.231 0.106 0.002 -0.004 0.006
O1J 0.186 0.155 0.423 -0.003 -0.018 -0.045
O2J 0.148 0.13 0.339 0.02 0.002 -0.017
C1J 0.143 0.154 0.178 0.04 -0.016 -0.059
C2J 0.117 0.211 0.161 0.014 -0.053 -0.03
C3J 0.152 0.152 0.155 0.042 -0.036 -0.034
C4J 0.157 0.17 0.165 0.024 -0.017 -0.026
C5J 0.146 0.161 0.223 0.017 -0.009 -0.036
C6J 0.158 0.174 0.178 -0.007 -0.021 -0.044
C7J 0.155 0.177 0.188 0.032 -0.007 -0.021
C8J 0.146 0.154 0.184 0.033 -0.022 -0.038
C9J 0.162 0.157 0.272 -0.052 -0.035 -0.007
C10J 0.153 0.163 0.364 -0.028 0.012 -0.01
C11J 0.106 0.147 0.231 -0.006 -0.002 -0.004
Cu1NA 0.687 0.1164 0.1279 -0.0008 0 0
O3NA 0.559 0.514 0.58 -0.021 0 0
Cu1D 0.1164 0.687 0.1279 0 0.0008 0
O3D 0.514 0.559 0.58 0 0.021 0
Cu1E 0.1164 0.687 0.1279 0 -0.0008 0
Cu1H 0.1279 0.1164 0.687 0 0 0.0008
Cu1I 0.1279 0.1164 0.687 0 0 -0.0008
Cu1JA 0.1279 0.687 0.1164 0 -0.0008 0
Cu1KA 0.1279 0.687 0.1164 0 0.0008 0
Cu1RA 0.1164 0.1279 0.687 0 0 0.0008
Cu1SA 0.1164 0.1279 0.687 0 0 -0.0008
O1G 0.155 0.423 0.186 -0.018 0.045 0.003
O1NA 0.423 0.155 0.186 -0.045 -0.018 -0.003
O1QA 0.423 0.155 0.186 -0.045 0.018 0.003
O2JA 0.148 0.339 0.13 -0.02 -0.017 -0.002
O2MA 0.148 0.339 0.13 0.02 -0.017 0.002
O2NA 0.339 0.13 0.148 -0.017 0.002 0.02
O2QA 0.339 0.13 0.148 -0.017 -0.002 -0.02
loop_
_geom_bond_atom_site_label_1
_geom_bond_atom_site_label_2
_geom_bond_site_symmetry_1
_geom_bond_site_symmetry_2
Cu1 O1 1_555 1_555
O1 C11 1_555 1_555
O2 C11 1_555 1_555
O3 Cu1 1_555 1_555
C1 H1 1_555 1_555
C2 C1 1_555 1_555
C3 C2 1_555 1_555
C4 C3 1_555 1_555
H2 C4 1_555 1_555
C5 C4 1_555 1_555
H3 C5 1_555 1_555
C6 C5 1_555 1_555
C7 C6 1_555 1_555
H4 C7 1_555 1_555
C8 C3 1_555 1_555
H5 C8 1_555 1_555
C9 C6 1_555 1_555
H6 C9 1_555 1_555
C10 C9 1_555 1_555
H7 C10 1_555 1_555
C11 C10 1_555 1_555
O1D C11D 1_555 1_555
O2D C11D 1_555 1_555
C1D C2 1_555 1_555
H1D C1D 1_555 1_555
C2D C1D 1_555 1_555
C3D C2D 1_555 1_555
C4D C3D 1_555 1_555
H2D C4D 1_555 1_555
C5D C4D 1_555 1_555
H3D C5D 1_555 1_555
C6D C5D 1_555 1_555
C7D C6D 1_555 1_555
H4D C7D 1_555 1_555
C8D C3D 1_555 1_555
H5D C8D 1_555 1_555
C9D C6D 1_555 1_555
H6D C9D 1_555 1_555
C10D C9D 1_555 1_555
H7D C10D 1_555 1_555
C11D C10D 1_555 1_555
O1H C11H 1_555 1_555
O2H C11H 1_555 1_555
C1H C2D 1_555 1_555
H1H C1H 1_555 1_555
C2H C1 1_555 1_555
C3H C2H 1_555 1_555
C4H C3H 1_555 1_555
H2H C4H 1_555 1_555
C5H C4H 1_555 1_555
H3H C5H 1_555 1_555
C6H C5H 1_555 1_555
C7H C6H 1_555 1_555
H4H C7H 1_555 1_555
C8H C3H 1_555 1_555
H5H C8H 1_555 1_555
C9H C6H 1_555 1_555
H6H C9H 1_555 1_555
C10H C9H 1_555 1_555
H7H C10H 1_555 1_555
C11H C10H 1_555 1_555
O1C Cu1 1_555 1_555
O2C C11C 1_555 1_555
C1C H1C 1_555 1_555
C2C C1C 1_555 1_555
C3C C2C 1_555 1_555
C4C C3C 1_555 1_555
H2C C4C 1_555 1_555
C5C C4C 1_555 1_555
H3C C5C 1_555 1_555
C6C C5C 1_555 1_555
C7C C6C 1_555 1_555
H4C C7C 1_555 1_555
C8C C3C 1_555 1_555
H5C C8C 1_555 1_555
C9C C6C 1_555 1_555
H6C C9C 1_555 1_555
C10C C9C 1_555 1_555
H7C C10C 1_555 1_555
C11C O1C 1_555 1_555
O1E C11E 1_555 1_555
O2E C11E 1_555 1_555
C1E C2C 1_555 1_555
H1E C1E 1_555 1_555
C2E C1E 1_555 1_555
C3E C2E 1_555 1_555
C4E C3E 1_555 1_555
H2E C4E 1_555 1_555
C5E C4E 1_555 1_555
H3E C5E 1_555 1_555
C6E C5E 1_555 1_555
C7E C6E 1_555 1_555
H4E C7E 1_555 1_555
C8E C3E 1_555 1_555
H5E C8E 1_555 1_555
C9E C6E 1_555 1_555
H6E C9E 1_555 1_555
C10E C9E 1_555 1_555
H7E C10E 1_555 1_555
C11E C10E 1_555 1_555
O1J C11J 1_555 1_555
O2J C11J 1_555 1_555
C1J C2E 1_555 1_555
H1J C1J 1_555 1_555
C2J C1C 1_555 1_555
C3J C2J 1_555 1_555
C4J C3J 1_555 1_555
H2J C4J 1_555 1_555
C5J C4J 1_555 1_555
H3J C5J 1_555 1_555
C6J C5J 1_555 1_555
C7J C6J 1_555 1_555
H4J C7J 1_555 1_555
C8J C3J 1_555 1_555
H5J C8J 1_555 1_555
C9J C6J 1_555 1_555
H6J C9J 1_555 1_555
C10J C9J 1_555 1_555
H7J C10J 1_555 1_555
C11J C10J 1_555 1_555
Cu1NA Cu1 1_555 1_555
O3NA Cu1NA 1_555 1_555
Cu1D O1D 1_555 1_555
O3D Cu1D 1_555 1_555
Cu1E O1E 1_555 1_555
Cu1H O1H 1_555 1_555
Cu1I O1J 1_555 1_555
Cu1JA O2D 1_555 1_555
Cu1KA O2E 1_555 1_555
Cu1RA O2J 1_555 1_555
Cu1SA O2H 1_555 1_555
O1G Cu1D 1_555 1_555
O1NA Cu1NA 1_555 1_555
O1QA Cu1NA 1_555 1_555
O2JA Cu1D 1_555 1_555
O2MA Cu1D 1_555 1_555
O2NA Cu1 1_555 1_555
O2QA Cu1 1_555 1_555
O2 Cu1NA 1_555 1_555
C7 C8 1_555 1_555
C7D C8D 1_555 1_555
C1H C2H 1_555 1_555
C7H C8H 1_555 1_555
O2C Cu1NA 1_555 1_555
C7C C8C 1_555 1_555
C10C C11C 1_555 1_555
C7E C8E 1_555 1_555
C1J C2J 1_555 1_555
C7J C8J 1_555 1_555
Cu1D Cu1JA 1_555 1_555
Cu1E Cu1KA 1_555 1_555
Cu1H Cu1SA 1_555 1_555
Cu1I Cu1RA 1_555 1_555

#END
