
#######################################################################
#
#                 Cambridge Crystallographic Data Centre
#                                CCDC 
#
#######################################################################
#
# If this CIF has been generated from an entry in the Cambridge 
# Structural Database, then it will include bibliographic, chemical, 
# crystal, experimental, refinement or atomic coordinate data resulting 
# from the CCDC's data processing and validation procedures.
#
#######################################################################

data_YARDEC
_chemical_formula_moiety         '(C25 H25 N5 O5 Zn1)n'
_symmetry_cell_setting           monoclinic
_symmetry_space_group_name_H-M   'C 2/c'
_symmetry_Int_Tables_number      15
_space_group_name_Hall           '-C 2yc'
loop_
_symmetry_equiv_pos_site_id
_symmetry_equiv_pos_as_xyz
1 x,y,z
2 -x,y,1/2-z
3 1/2+x,1/2+y,z
4 1/2-x,1/2+y,1/2-z
5 -x,-y,-z
6 x,-y,1/2+z
7 1/2-x,1/2-y,-z
8 1/2+x,1/2-y,1/2+z
_cell_length_a                   20.5754(14)
_cell_length_b                   11.5480(8)
_cell_length_c                   14.0617(10)
_cell_angle_alpha                90
_cell_angle_beta                 116.5300(10)
_cell_angle_gamma                90
_cell_volume                     2989.31
loop_
_atom_site_label
_atom_site_type_symbol
_atom_site_fract_x
_atom_site_fract_y
_atom_site_fract_z
_atom_site_U_iso_or_equiv
_atom_site_thermal_displace_type
C1 C -0.03087(13) -0.13362(17) 0.05625(18) 0.0355 Uani
H1 H -0.0807 -0.1357 0.0346 0.0430 Uiso
C2 C 0.08380(14) -0.0976(2) 0.14448(19) 0.0395 Uani
H2 H 0.1279 -0.0693 0.1958 0.0470 Uiso
C3 C 0.07538(14) -0.1636(2) 0.0605(2) 0.0416 Uani
H3 H 0.1118 -0.1892 0.0436 0.0500 Uiso
C4 C -0.03152(15) -0.26562(19) -0.08520(19) 0.0420 Uani
H4 H -0.0118 -0.2526 -0.1354 0.0500 Uiso
H5 H -0.0835 -0.2521 -0.1215 0.0500 Uiso
C5 C -0.01665(14) -0.38931(19) -0.04475(18) 0.0371 Uani
C6 C -0.05997(14) -0.4411(2) -0.0045(2) 0.0431 Uani
H6 H -0.1003 -0.4022 -0.0070 0.0520 Uiso
C7 C 0.04312(15) -0.4489(2) -0.0396(2) 0.0433 Uani
H7 H 0.0726 -0.4147 -0.0662 0.0520 Uiso
C8 C -0.13921(12) 0.0822(2) 0.12101(18) 0.0334 Uani
C9 C -0.19723(12) 0.16877(18) 0.05982(17) 0.0294 Uani
C10 C -0.18895(13) 0.28535(19) 0.08923(18) 0.0349 Uani
H8 H -0.1480 0.3093 0.1493 0.0420 Uiso
C11 C -0.25871(12) 0.13452(19) -0.02966(18) 0.0346 Uani
H9 H -0.2648 0.0570 -0.0498 0.0420 Uiso
N1 N 0.01704(10) -0.07846(14) 0.14251(15) 0.0331 Uani
N2 N 0.00248(11) -0.18541(16) 0.00529(15) 0.0349 Uani
O1 O -0.07835(8) 0.12580(13) 0.18611(12) 0.0374 Uani
O2 O -0.15164(9) -0.02272(13) 0.10536(13) 0.0447 Uani
Zn1 Zn 0.0000 0.01175(3) 0.2500 0.0304 Uani
C1D C 0.03087(13) -0.86638(17) -0.05625(18) 0.0355 Uani
H1D H 0.0807 -0.8643 -0.0346 0.0430 Uiso
C2D C -0.08380(14) -0.9024(2) -0.14448(19) 0.0395 Uani
H2D H -0.1279 -0.9307 -0.1958 0.0470 Uiso
C3D C -0.07538(14) -0.8364(2) -0.0605(2) 0.0416 Uani
H3D H -0.1118 -0.8108 -0.0436 0.0500 Uiso
C4D C 0.03152(15) -0.73438(19) 0.08520(19) 0.0420 Uani
H4D H 0.0118 -0.7474 0.1354 0.0500 Uiso
H5D H 0.0835 -0.7479 0.1215 0.0500 Uiso
C5D C 0.01665(14) -0.61069(19) 0.04475(18) 0.0371 Uani
C6D C 0.05997(14) -0.5589(2) 0.0045(2) 0.0431 Uani
H6D H 0.1003 -0.5978 0.0070 0.0520 Uiso
C7D C -0.04312(15) -0.5511(2) 0.0396(2) 0.0433 Uani
H7D H -0.0726 -0.5853 0.0662 0.0520 Uiso
C8F C -0.36079(12) 0.4178(2) -0.12101(18) 0.0334 Uani
C9F C -0.30277(12) 0.33123(18) -0.05982(17) 0.0294 Uani
C10F C -0.31105(13) 0.21465(19) -0.08923(18) 0.0349 Uani
H8F H -0.3520 0.1907 -0.1493 0.0420 Uiso
C11F C -0.24129(12) 0.36548(19) 0.02966(18) 0.0346 Uani
H9F H -0.2352 0.4430 0.0498 0.0420 Uiso
N1D N -0.01704(10) -0.92154(14) -0.14251(15) 0.0331 Uani
N1A N -0.01704(10) -0.07846(14) 0.35749(15) 0.0331 Uani
N2D N -0.00248(11) -0.81459(16) -0.00529(15) 0.0349 Uani
O1F O -0.42165(8) 0.37420(13) -0.18611(12) 0.0374 Uani
O1A O 0.07835(8) 0.12580(13) 0.31389(12) 0.0374 Uani
O2F O -0.34836(9) 0.52272(13) -0.10536(13) 0.0447 Uani
Zn1D Zn 0.0000 -1.01175(3) -0.2500 0.0304 Uani
Zn1F Zn -0.5000 0.48825(3) -0.2500 0.0304 Uani
C12 C -0.23620(19) -0.2702(3) 0.1329(3) 0.0696 Uani
H10 H -0.2145 -0.2244 0.1007 0.0830 Uiso
C13 C -0.12068(16) -0.3695(3) 0.2200(3) 0.0703 Uani
H11 H -0.1077 -0.3135 0.1809 0.1050 Uiso
H12 H -0.1151 -0.4460 0.1981 0.1050 Uiso
H13 H -0.0896 -0.3605 0.2946 0.1050 Uiso
C14 C -0.2245(2) -0.4239(3) 0.2550(3) 0.0813 Uani
H14 H -0.2025 -0.4030 0.3289 0.1220 Uiso
H15 H -0.2141 -0.5036 0.2480 0.1220 Uiso
H16 H -0.2762 -0.4133 0.2254 0.1220 Uiso
N3 N -0.19585(13) -0.3519(2) 0.19921(18) 0.0539 Uani
O3 O -0.29982(13) -0.2503(2) 0.1107(2) 0.0961 Uani
loop_
_atom_site_aniso_label
_atom_site_aniso_U_11
_atom_site_aniso_U_22
_atom_site_aniso_U_33
_atom_site_aniso_U_23
_atom_site_aniso_U_13
_atom_site_aniso_U_12
C1 0.0381(14) 0.0256(11) 0.0397(14) 0.0031(10) 0.0145(11) 0.0025(10)
C2 0.0378(14) 0.0361(13) 0.0444(15) -0.0017(11) 0.0183(12) -0.0035(11)
C3 0.0441(16) 0.0390(13) 0.0498(16) 0.0013(12) 0.0282(13) -0.0012(11)
C4 0.0578(17) 0.0313(12) 0.0338(13) -0.0011(10) 0.0177(12) 0.0000(11)
C5 0.0513(16) 0.0282(12) 0.0315(12) -0.0061(10) 0.0181(11) -0.0040(11)
C6 0.0494(17) 0.0327(13) 0.0510(16) -0.0045(11) 0.0258(13) 0.0007(11)
C7 0.0555(17) 0.0336(13) 0.0525(16) -0.0025(12) 0.0347(14) -0.0078(12)
C8 0.0321(14) 0.0368(13) 0.0321(13) 0.0044(10) 0.0151(11) 0.0066(10)
C9 0.0276(12) 0.0302(11) 0.0315(12) 0.0041(9) 0.0141(10) 0.0023(9)
C10 0.0287(13) 0.0374(13) 0.0316(13) -0.0015(10) 0.0072(10) -0.0007(10)
C11 0.0324(13) 0.0283(11) 0.0400(14) -0.0030(10) 0.0134(11) 0.0005(10)
N1 0.0343(11) 0.0254(9) 0.0369(11) -0.0011(8) 0.0135(9) -0.0003(8)
N2 0.0470(12) 0.0237(9) 0.0351(11) 0.0014(8) 0.0193(9) 0.0022(9)
O1 0.0296(9) 0.0368(9) 0.0363(9) 0.0007(7) 0.0063(7) 0.0061(7)
O2 0.0394(10) 0.0317(9) 0.0534(11) 0.0034(8) 0.0121(8) 0.0035(7)
Zn1 0.0282(2) 0.0238(2) 0.0340(2) 0.000 0.00915(16) 0.000
C1D 0.0381 0.0256 0.0397 0.0031 0.0145 0.0025
C2D 0.0378 0.0361 0.0444 -0.0017 0.0183 -0.0035
C3D 0.0441 0.039 0.0498 0.0013 0.0282 -0.0012
C4D 0.0578 0.0313 0.0338 -0.0011 0.0177 0
C5D 0.0513 0.0282 0.0315 -0.0061 0.0181 -0.004
C6D 0.0494 0.0327 0.051 -0.0045 0.0258 0.0007
C7D 0.0555 0.0336 0.0525 -0.0025 0.0347 -0.0078
C8F 0.0321 0.0368 0.0321 0.0044 0.0151 0.0066
C9F 0.0276 0.0302 0.0315 0.0041 0.0141 0.0023
C10F 0.0287 0.0374 0.0316 -0.0015 0.0072 -0.0007
C11F 0.0324 0.0283 0.04 -0.003 0.0134 0.0005
N1D 0.0343 0.0254 0.0369 -0.0011 0.0135 -0.0003
N1A 0.0343 0.0254 0.0369 0.0011 0.0135 0.0003
N2D 0.047 0.0237 0.0351 0.0014 0.0193 0.0022
O1F 0.0296 0.0368 0.0363 0.0007 0.0063 0.0061
O1A 0.0296 0.0368 0.0363 -0.0007 0.0063 -0.0061
O2F 0.0394 0.0317 0.0534 0.0034 0.0121 0.0035
Zn1D 0.0282 0.0238 0.034 0 0.00915 0
Zn1F 0.0282 0.0238 0.034 0 0.00915 0
C12 0.055(2) 0.074(2) 0.067(2) 0.0014(18) 0.0158(17) -0.0096(17)
C13 0.056(2) 0.082(2) 0.071(2) -0.0213(18) 0.0267(17) -0.0015(17)
C14 0.086(3) 0.085(2) 0.085(2) 0.005(2) 0.049(2) -0.004(2)
N3 0.0487(15) 0.0583(14) 0.0499(14) -0.0051(12) 0.0178(12) -0.0017(12)
O3 0.0515(16) 0.0948(17) 0.119(2) 0.0124(16) 0.0174(15) 0.0104(13)
loop_
_geom_bond_atom_site_label_1
_geom_bond_atom_site_label_2
_geom_bond_site_symmetry_1
_geom_bond_site_symmetry_2
C1 H1 1_555 1_555
C2 H2 1_555 1_555
C3 C2 1_555 1_555
H3 C3 1_555 1_555
C4 H4 1_555 1_555
H5 C4 1_555 1_555
C5 C4 1_555 1_555
C6 C5 1_555 1_555
H6 C6 1_555 1_555
C7 C5 1_555 1_555
H7 C7 1_555 1_555
C8 C9 1_555 1_555
C9 C10 1_555 1_555
C10 H8 1_555 1_555
C11 C9 1_555 1_555
H9 C11 1_555 1_555
C12 H10 1_555 1_555
C13 H11 1_555 1_555
H12 C13 1_555 1_555
H13 C13 1_555 1_555
C14 H14 1_555 1_555
H15 C14 1_555 1_555
H16 C14 1_555 1_555
N1 C1 1_555 1_555
N2 C1 1_555 1_555
N3 C12 1_555 1_555
O1 C8 1_555 1_555
O2 C8 1_555 1_555
O3 C12 1_555 1_555
Zn1 N1 1_555 1_555
C1D H1D 1_555 1_555
C2D H2D 1_555 1_555
C3D C2D 1_555 1_555
H3D C3D 1_555 1_555
C4D H4D 1_555 1_555
H5D C4D 1_555 1_555
C5D C4D 1_555 1_555
C6D C7 1_555 1_555
H6D C6D 1_555 1_555
C7D C6 1_555 1_555
H7D C7D 1_555 1_555
C8F C9F 1_555 1_555
C9F C10F 1_555 1_555
C10F C11 1_555 1_555
H8F C10F 1_555 1_555
C11F C10 1_555 1_555
H9F C11F 1_555 1_555
N1D C1D 1_555 1_555
N1A Zn1 1_555 1_555
N2D C1D 1_555 1_555
O1F C8F 1_555 1_555
O1A Zn1 1_555 1_555
O2F C8F 1_555 1_555
Zn1D N1D 1_555 1_555
Zn1F O1F 1_555 1_555
C2 N1 1_555 1_555
C3 N2 1_555 1_555
C4 N2 1_555 1_555
C13 N3 1_555 1_555
C14 N3 1_555 1_555
O1 Zn1 1_555 1_555
C2D N1D 1_555 1_555
C3D N2D 1_555 1_555
C4D N2D 1_555 1_555
C5D C6D 1_555 1_555
C5D C7D 1_555 1_555
C9F C11F 1_555 1_555

#END
