
#######################################################################
#
#                 Cambridge Crystallographic Data Centre
#                                CCDC 
#
#######################################################################
#
# If this CIF has been generated from an entry in the Cambridge 
# Structural Database, then it will include bibliographic, chemical, 
# crystal, experimental, refinement or atomic coordinate data resulting 
# from the CCDC's data processing and validation procedures.
#
#######################################################################

data_YARFII
_chemical_formula_moiety         '(C22 H18 N4 O4 Zn1)n'
_symmetry_cell_setting           orthorhombic
_symmetry_space_group_name_H-M   'P n a 21'
_symmetry_Int_Tables_number      33
_space_group_name_Hall           'P 2c -2n'
loop_
_symmetry_equiv_pos_site_id
_symmetry_equiv_pos_as_xyz
1 x,y,z
2 -x,-y,1/2+z
3 1/2+x,1/2-y,z
4 1/2-x,1/2+y,1/2+z
_cell_length_a                   18.7116(9)
_cell_length_b                   10.8977(5)
_cell_length_c                   14.6613(7)
_cell_angle_alpha                90
_cell_angle_beta                 90
_cell_angle_gamma                90
_cell_volume                     2989.64
loop_
_atom_site_label
_atom_site_type_symbol
_atom_site_fract_x
_atom_site_fract_y
_atom_site_fract_z
_atom_site_U_iso_or_equiv
_atom_site_thermal_displace_type
C1 C -0.35891(15) 0.8730(3) 0.9428(3) 0.0339 Uani
C2 C 0.09660(19) -0.2691(3) 1.1690(3) 0.0386 Uani
H1 H 0.0917 -0.2855 1.1043 0.0460 Uiso
H2 H 0.1459 -0.2843 1.1860 0.0460 Uiso
C3 C 0.06591(17) -0.4132(3) 1.2961(2) 0.0309 Uani
H3 H 0.1114 -0.4179 1.3214 0.0370 Uiso
C4 C -0.04662(19) -0.4371(3) 1.2744(3) 0.0367 Uani
H4 H -0.0937 -0.4620 1.2823 0.0440 Uiso
C5 C -0.02183(19) -0.3651(3) 1.2050(3) 0.0388 Uani
H5 H -0.0484 -0.3324 1.1573 0.0460 Uiso
N1 N 0.00968(14) -0.4667(2) 1.3306(2) 0.0317 Uani
N2 N 0.05019(14) -0.3504(2) 1.21974(19) 0.0309 Uani
O1 O -0.14144(11) 0.5819(2) 0.93509(18) 0.0408 Uani
O2 O -0.39956(10) 0.95186(19) 0.97952(16) 0.0347 Uani
O3 O -0.37719(13) 0.7963(3) 0.8878(2) 0.0629 Uani
C6 C -0.11663(14) 0.6807(3) 0.9670(2) 0.0282 Uani
C7 C -0.16514(15) 0.7858(3) 0.9866(2) 0.0272 Uani
C8 C -0.23539(13) 0.7824(2) 0.9580(3) 0.0278 Uani
H6 H -0.2521 0.7135 0.9272 0.0330 Uiso
C9 C -0.28177(14) 0.8798(3) 0.9742(2) 0.0307 Uani
C10 C -0.25622(18) 0.9822(3) 1.0180(3) 0.0469 Uani
H7 H -0.2870 1.0474 1.0295 0.0570 Uiso
C11 C -0.18432(18) 0.9904(3) 1.0457(3) 0.0524 Uani
H8 H -0.1672 1.0602 1.0749 0.0630 Uiso
C12 C -0.13917(17) 0.8903(3) 1.0282(3) 0.0424 Uani
H9 H -0.0913 0.8944 1.0448 0.0510 Uiso
C13 C 0.02238(17) 0.3715(3) 1.1105(2) 0.0291 Uani
H10 H 0.0710 0.3891 1.1106 0.0350 Uiso
C14 C -0.08157(18) 0.2972(3) 1.1492(3) 0.0393 Uani
H11 H -0.1173 0.2555 1.1805 0.0470 Uiso
C15 C -0.08932(17) 0.3644(3) 1.0721(3) 0.0372 Uani
H12 H -0.1319 0.3763 1.0407 0.0450 Uiso
C16 C 0.0240(2) 0.2377(3) 1.2488(2) 0.0368 Uani
H13 H -0.0073 0.2395 1.3016 0.0440 Uiso
H14 H 0.0679 0.2798 1.2649 0.0440 Uiso
C17 C 0.04081(16) 0.1055(3) 1.2248(3) 0.0293 Uani
C18 C 0.06931(19) 0.0326(3) 1.2920(3) 0.0348 Uani
H15 H 0.0753 0.0649 1.3503 0.0420 Uiso
C19 C 0.08930(18) -0.0874(3) 1.2754(3) 0.0357 Uani
H16 H 0.1097 -0.1346 1.3213 0.0430 Uiso
C20 C 0.07830(18) -0.1370(3) 1.1878(2) 0.0303 Uani
C21 C 0.04911(17) -0.0641(3) 1.1207(3) 0.0316 Uani
H17 H 0.0417 -0.0961 1.0627 0.0380 Uiso
C22 C 0.03090(19) 0.0555(3) 1.1391(3) 0.0339 Uani
H18 H 0.0115 0.1037 1.0930 0.0410 Uiso
N3 N -0.02481(14) 0.4119(2) 1.0480(2) 0.0300 Uani
N4 N -0.01101(14) 0.3029(2) 1.1719(2) 0.0332 Uani
O4 O -0.04971(10) 0.69619(18) 0.98297(15) 0.0294 Uani
Zn1 Zn -0.001427(16) 0.54085(3) 0.95376(5) 0.0263 Uani
N1A N -0.00968(14) 0.4667(2) 0.8306(2) 0.0317 Uani
O2B O 0.10044(10) 0.54814(19) 0.97952(16) 0.0347 Uani
Zn1A Zn 0.001427(16) -0.54085(3) 1.45376(5) 0.0263 Uani
Zn1B Zn -0.501427(16) 0.95915(3) 0.95376(5) 0.0263 Uani
loop_
_atom_site_aniso_label
_atom_site_aniso_U_11
_atom_site_aniso_U_22
_atom_site_aniso_U_33
_atom_site_aniso_U_23
_atom_site_aniso_U_13
_atom_site_aniso_U_12
C1 0.0245(15) 0.0362(17) 0.041(2) 0.0090(18) -0.0071(18) -0.0025(14)
C2 0.05 0.0249 0.041 0.0026 0.0146 -0.0013
C3 0.0242 0.0256 0.043 0.0017 0.0056 0.0046
C4 0.037 0.033 0.04 0.0061 -0.0118 -0.0037
C5 0.0398 0.0356 0.041 0.0009 -0.008 0.0009
N1 0.0284 0.0315 0.0351 0.0024 -0.0023 0.0017
N2 0.0412 0.0229 0.0285 -0.0053 0.0003 0.0066
O1 0.0308(11) 0.0317(12) 0.060(2) -0.0094(12) -0.0061(12) 0.0043(9)
O2 0.0195(10) 0.0431(13) 0.0414(17) 0.0010(11) 0.0002(10) 0.0097(9)
O3 0.0296(13) 0.076(2) 0.083(2) -0.0424(18) -0.0262(14) 0.0124(13)
C6 0.0237(14) 0.0330(17) 0.028(2) 0.0051(15) -0.0020(15) 0.0081(12)
C7 0.0246(14) 0.0283(17) 0.0287(18) 0.0003(13) -0.0018(13) 0.0017(12)
C8 0.0258(14) 0.0227(14) 0.0350(18) -0.0089(17) 0.0060(18) 0.0031(10)
C9 0.0197(14) 0.0375(17) 0.035(2) 0.0026(14) -0.0012(13) 0.0036(12)
C10 0.0258(18) 0.034(2) 0.081(3) -0.0178(19) -0.0055(18) 0.0135(14)
C11 0.0261(18) 0.038(2) 0.093(4) -0.029(2) -0.002(2) 0.0024(15)
C12 0.0262(17) 0.046(2) 0.055(3) -0.0112(18) -0.0145(17) 0.0062(15)
C13 0.0263(16) 0.0261(17) 0.035(2) -0.0041(15) 0.0086(14) 0.0005(13)
C14 0.039(2) 0.0240(17) 0.055(3) 0.0025(17) 0.0104(18) -0.0004(15)
C15 0.0263(17) 0.0332(18) 0.052(3) 0.0027(17) 0.0013(16) 0.0033(14)
C16 0.054(2) 0.0245(18) 0.032(2) 0.0020(14) 0.0029(16) 0.0054(15)
C17 0.0293(17) 0.0217(17) 0.037(2) -0.0036(15) 0.0046(15) -0.0061(13)
C18 0.049(2) 0.0323(19) 0.023(2) 0.0012(15) -0.0009(16) -0.0011(15)
C19 0.044(2) 0.0261(17) 0.037(2) 0.0079(15) -0.0039(16) 0.0034(15)
C20 0.0358(17) 0.0241(16) 0.031(2) 0.0028(15) 0.0073(15) 0.0020(14)
C21 0.0384(19) 0.0265(17) 0.030(2) -0.0004(14) 0.0023(15) -0.0060(14)
C22 0.0367(18) 0.0321(19) 0.033(2) 0.0063(16) -0.0066(16) 0.0075(14)
N3 0.0241(13) 0.0280(14) 0.0379(18) 0.0031(13) 0.0013(13) 0.0013(12)
N4 0.0405(17) 0.0225(14) 0.0367(18) 0.0075(13) 0.0038(14) 0.0064(12)
O4 0.0266(10) 0.0308(12) 0.0309(14) -0.0026(9) -0.0013(9) 0.0055(9)
Zn1 0.02175(15) 0.02569(15) 0.03144(18) -0.0004(2) -0.00008(17) -0.00004(14)
N1A 0.0284 0.0315 0.0351 -0.0024 0.0023 0.0017
O2B 0.0195 0.0431 0.0414 -0.001 0.0002 -0.0097
Zn1A 0.02175 0.02569 0.03144 0.0004 8e-05 -4e-05
Zn1B 0.02175 0.02569 0.03144 0.0004 -8e-05 4e-05
loop_
_geom_bond_atom_site_label_1
_geom_bond_atom_site_label_2
_geom_bond_site_symmetry_1
_geom_bond_site_symmetry_2
C1 O2 1_555 1_555
C2 H1 1_555 1_555
H2 C2 1_555 1_555
C3 H3 1_555 1_555
C4 H4 1_555 1_555
C5 C4 1_555 1_555
H5 C5 1_555 1_555
N1 C3 1_555 1_555
N2 C2 1_555 1_555
O1 C6 1_555 1_555
O2 Zn1B 1_555 1_555
O3 C1 1_555 1_555
C6 C7 1_555 1_555
C7 C8 1_555 1_555
C8 H6 1_555 1_555
C9 C1 1_555 1_555
C10 C9 1_555 1_555
H7 C10 1_555 1_555
C11 C10 1_555 1_555
H8 C11 1_555 1_555
C12 C7 1_555 1_555
H9 C12 1_555 1_555
C13 H10 1_555 1_555
C14 H11 1_555 1_555
C15 C14 1_555 1_555
H12 C15 1_555 1_555
C16 H13 1_555 1_555
H14 C16 1_555 1_555
C17 C16 1_555 1_555
C18 C17 1_555 1_555
H15 C18 1_555 1_555
C19 C18 1_555 1_555
H16 C19 1_555 1_555
C20 C2 1_555 1_555
C21 C20 1_555 1_555
H17 C21 1_555 1_555
C22 C17 1_555 1_555
H18 C22 1_555 1_555
N3 C13 1_555 1_555
N4 C13 1_555 1_555
O4 C6 1_555 1_555
Zn1 N3 1_555 1_555
N1A Zn1 1_555 1_555
O2B Zn1 1_555 1_555
Zn1A N1 1_555 1_555
C3 N2 1_555 1_555
C4 N1 1_555 1_555
C5 N2 1_555 1_555
C8 C9 1_555 1_555
C11 C12 1_555 1_555
C14 N4 1_555 1_555
C15 N3 1_555 1_555
C16 N4 1_555 1_555
C19 C20 1_555 1_555
C21 C22 1_555 1_555
O4 Zn1 1_555 1_555

#END
