
#######################################################################
#
#                 Cambridge Crystallographic Data Centre
#                                CCDC 
#
#######################################################################
#
# If this CIF has been generated from an entry in the Cambridge 
# Structural Database, then it will include bibliographic, chemical, 
# crystal, experimental, refinement or atomic coordinate data resulting 
# from the CCDC's data processing and validation procedures.
#
#######################################################################

data_MICNUI
_chemical_formula_moiety         '(C43 H32 Cd1 F8 N6 O6)n'
_symmetry_cell_setting           monoclinic
_symmetry_space_group_name_H-M   'C 2/c'
_symmetry_Int_Tables_number      15
_space_group_name_Hall           '-C 2yc'
loop_
_symmetry_equiv_pos_site_id
_symmetry_equiv_pos_as_xyz
1 x,y,z
2 1/2+x,1/2+y,z
3 -x,y,1/2-z
4 1/2-x,1/2+y,1/2-z
5 -x,-y,-z
6 1/2-x,1/2-y,-z
7 x,-y,1/2+z
8 1/2+x,1/2-y,1/2+z
_cell_length_a                   17.535(3)
_cell_length_b                   19.296(3)
_cell_length_c                   16.240(2)
_cell_angle_alpha                90
_cell_angle_beta                 119.822(2)
_cell_angle_gamma                90
_cell_volume                     4767.23
loop_
_atom_site_label
_atom_site_type_symbol
_atom_site_fract_x
_atom_site_fract_y
_atom_site_fract_z
_atom_site_U_iso_or_equiv
_atom_site_thermal_displace_type
Cd1 Cd 0.5000 0.121151(9) 0.7500 0.0230 Uani
F1 F 0.66144(9) 0.44765(8) 1.05398(11) 0.0440 Uani
F2 F 0.62455(9) 0.57858(8) 0.99278(12) 0.0463 Uani
F3 F 0.42636(9) -0.24303(8) 0.61384(11) 0.0485 Uani
F4 F 0.33482(11) -0.33624(8) 0.65034(11) 0.0503 Uani
O1 O 0.36681(12) 0.10244(10) 0.76349(14) 0.0476 Uani
O2 O 0.32015(17) 0.17335(11) 0.64673(17) 0.0644 Uani
O3 O 0.25211(11) 0.16534(10) 0.72573(12) 0.0452 Uani
N1 N 0.51666(12) 0.20638(9) 0.86099(13) 0.0292 Uani
N2 N 0.44489(11) 0.03105(9) 0.63622(13) 0.0284 Uani
N3 N 0.31134(12) 0.14707(10) 0.71111(14) 0.0341 Uani
C1 C 0.57851(16) 0.20135(12) 0.95267(16) 0.0355 Uani
C2 C 0.46349(15) 0.26140(11) 0.83635(16) 0.0348 Uani
C3 C 0.58810(15) 0.24910(12) 1.02024(16) 0.0351 Uani
C4 C 0.46884(15) 0.31146(12) 0.89977(17) 0.0361 Uani
C5 C 0.53236(13) 0.30572(10) 0.99462(15) 0.0273 Uani
C6 C 0.54206(16) 0.35727(12) 1.06973(16) 0.0321 Uani
C7 C 0.52001(14) 0.43045(11) 1.03367(14) 0.0279 Uani
C8 C 0.58080(13) 0.47283(11) 1.02748(16) 0.0304 Uani
C9 C 0.56152(14) 0.54012(11) 0.99574(16) 0.0311 Uani
C10 C 0.5008(4) -0.0148(3) 0.6335(4) 0.0466 Uani
H1 H 0.5621 -0.0065 0.6721 0.0560 Uiso
C11 C 0.3601(5) 0.0174(4) 0.5826(5) 0.0321 Uani
H2 H 0.3189 0.0490 0.5834 0.0380 Uiso
C12 C 0.4742(4) -0.0738(4) 0.5772(5) 0.0480 Uani
H3 H 0.5165 -0.1041 0.5766 0.0580 Uiso
C13 C 0.3283(5) -0.0413(4) 0.5250(4) 0.0356 Uani
H4 H 0.2668 -0.0488 0.4877 0.0430 Uiso
C18 C 0.38577(15) -0.08804(11) 0.52218(15) 0.0305 Uani
C19 C 0.35397(19) -0.15119(13) 0.45789(19) 0.0392 Uani
C20 C 0.29962(16) -0.20085(11) 0.47994(17) 0.0338 Uani
C21 C 0.33838(15) -0.24587(12) 0.55602(17) 0.0353 Uani
C22 C 0.29112(16) -0.29404(12) 0.57547(17) 0.0363 Uani
H17 H 0.6191(19) 0.1636(16) 0.971(2) 0.0450 Uiso
H18 H 0.4221(18) 0.2651(14) 0.7772(19) 0.0350 Uiso
H19 H 0.6317(19) 0.2443(14) 1.080(2) 0.0420 Uiso
H20 H 0.4294(19) 0.3480(16) 0.878(2) 0.0420 Uiso
H21 H 0.6010(17) 0.3565(13) 1.1222(19) 0.0300 Uiso
H22 H 0.5023(17) 0.3434(14) 1.0915(18) 0.0330 Uiso
H23 H 0.4081(19) -0.1765(14) 0.4657(19) 0.0410 Uiso
H24 H 0.320(2) -0.1359(15) 0.391(2) 0.0460 Uiso
Cd1F Cd 0.5000 0.878849(9) 1.2500 0.0230 Uani
Cd1G Cd -0.0000 -0.621151(9) 0.2500 0.0230 Uani
F1D F 0.33856(9) 0.55235(8) 0.94602(11) 0.0440 Uani
F2D F 0.37545(9) 0.42142(8) 1.00722(12) 0.0463 Uani
F3E F 0.07364(9) -0.25697(8) 0.38616(11) 0.0485 Uani
F4E F 0.16518(11) -0.16376(8) 0.34966(11) 0.0503 Uani
O1B O 0.63319(12) 0.10244(10) 0.73651(14) 0.0476 Uani
O2B O 0.67985(17) 0.17335(11) 0.85327(17) 0.0644 Uani
O3B O 0.74789(11) 0.16534(10) 0.77427(12) 0.0452 Uani
N1D N 0.48334(12) 0.79362(9) 1.13901(13) 0.0292 Uani
N1B N 0.48334(12) 0.20638(9) 0.63901(13) 0.0292 Uani
N2E N 0.05511(11) -0.53105(9) 0.36378(13) 0.0284 Uani
N2B N 0.55511(11) 0.03105(9) 0.86378(13) 0.0284 Uani
N3B N 0.68866(12) 0.14707(10) 0.78889(14) 0.0341 Uani
C1D C 0.42149(16) 0.79865(12) 1.04733(16) 0.0355 Uani
C2D C 0.53651(15) 0.73860(11) 1.16365(16) 0.0348 Uani
C3D C 0.41190(15) 0.75090(12) 0.97976(16) 0.0351 Uani
C4D C 0.53116(15) 0.68854(12) 1.10023(17) 0.0361 Uani
C5D C 0.46764(13) 0.69428(10) 1.00538(15) 0.0273 Uani
C6D C 0.45794(16) 0.64273(12) 0.93027(16) 0.0321 Uani
C7D C 0.47999(14) 0.56955(11) 0.96633(14) 0.0279 Uani
C8D C 0.41920(13) 0.52717(11) 0.97252(16) 0.0304 Uani
C9D C 0.43848(14) 0.45988(11) 1.00426(16) 0.0311 Uani
C10E C -0.0008(4) -0.4852(3) 0.3665(4) 0.0466 Uani
H1E H -0.0621 -0.4935 0.3279 0.0560 Uiso
C11E C 0.1399(5) -0.5174(4) 0.4174(5) 0.0321 Uani
H2E H 0.1811 -0.5490 0.4166 0.0380 Uiso
C12E C 0.0258(4) -0.4262(4) 0.4228(5) 0.0480 Uani
H3E H -0.0165 -0.3959 0.4234 0.0580 Uiso
C13E C 0.1717(5) -0.4587(4) 0.4750(4) 0.0356 Uani
H4E H 0.2332 -0.4512 0.5123 0.0430 Uiso
C18E C 0.11423(15) -0.41196(11) 0.47782(15) 0.0305 Uani
C19E C 0.14603(19) -0.34881(13) 0.54211(19) 0.0392 Uani
C20E C 0.20038(16) -0.29915(11) 0.52006(17) 0.0338 Uani
C21E C 0.16162(15) -0.25413(12) 0.44398(17) 0.0353 Uani
C22E C 0.20888(16) -0.20596(12) 0.42453(17) 0.0363 Uani
H17D H 0.3809(19) 0.8364(16) 1.029(2) 0.0450 Uiso
H18D H 0.5779(18) 0.7349(14) 1.2228(19) 0.0350 Uiso
H19D H 0.3683(19) 0.7557(14) 0.920(2) 0.0420 Uiso
H20D H 0.5706(19) 0.6520(16) 1.122(2) 0.0420 Uiso
H21D H 0.3990(17) 0.6435(13) 0.8778(19) 0.0300 Uiso
H22D H 0.4977(17) 0.6566(14) 0.9085(18) 0.0330 Uiso
H23E H 0.0919(19) -0.3235(14) 0.5343(19) 0.0410 Uiso
H24E H 0.180(2) -0.3641(15) 0.609(2) 0.0460 Uiso
C23 C 0.2531(2) 0.88444(19) 0.7684(3) 0.0672 Uani
C24 C 0.2411(3) 0.9548(2) 0.7505(3) 0.0841 Uani
H9 H 0.2669 0.9769 0.7180 0.1000 Uiso
C25 C 0.1919(4) 0.9936(2) 0.7793(3) 0.1014 Uani
H10 H 0.1823 1.0414 0.7636 0.1220 Uiso
C26 C 0.1565(6) 0.9641(3) 0.8304(5) 0.1635 Uani
H11 H 0.1222 0.9906 0.8495 0.1960 Uiso
C27 C 0.1738(4) 0.8918(2) 0.8536(3) 0.0957 Uani
H12 H 0.1520 0.8696 0.8900 0.1150 Uiso
C28 C 0.2199(2) 0.85626(19) 0.8241(2) 0.0670 Uani
H13 H 0.2314 0.8088 0.8415 0.0800 Uiso
C29 C 0.2969(4) 0.8416(3) 0.7264(4) 0.1120 Uani
H14 H 0.3147 0.8716 0.6902 0.1690 Uiso
H15 H 0.2557 0.8064 0.6842 0.1690 Uiso
H16 H 0.3489 0.8188 0.7775 0.1690 Uiso
loop_
_atom_site_aniso_label
_atom_site_aniso_U_11
_atom_site_aniso_U_22
_atom_site_aniso_U_33
_atom_site_aniso_U_23
_atom_site_aniso_U_13
_atom_site_aniso_U_12
Cd1 0.02697(11) 0.01467(11) 0.02558(11) 0.000 0.01162(8) 0.000
F1 0.0272(7) 0.0403(8) 0.0656(10) -0.0004(7) 0.0238(7) 0.0075(6)
F2 0.0351(7) 0.0372(8) 0.0729(10) -0.0002(7) 0.0317(7) -0.0066(6)
F3 0.0346(7) 0.0497(9) 0.0542(9) -0.0090(7) 0.0167(7) -0.0062(6)
F4 0.0537(9) 0.0426(8) 0.0494(9) 0.0075(7) 0.0217(7) 0.0016(7)
O1 0.0366(9) 0.0400(10) 0.0583(12) -0.0104(8) 0.0177(9) 0.0067(8)
O2 0.1039(18) 0.0481(12) 0.0746(14) -0.0128(10) 0.0697(15) -0.0208(12)
O3 0.0315(8) 0.0632(12) 0.0398(9) -0.0009(8) 0.0168(7) 0.0125(8)
N1 0.0317(9) 0.0211(8) 0.0292(9) -0.0017(6) 0.0108(7) 0.0024(7)
N2 0.0295(9) 0.0199(8) 0.0324(9) -0.0042(6) 0.0129(7) -0.0018(7)
N3 0.0321(9) 0.0334(10) 0.0372(10) -0.0117(8) 0.0175(8) -0.0061(8)
C1 0.0375(12) 0.0301(11) 0.0314(11) 0.0005(9) 0.0114(9) 0.0127(9)
C2 0.0344(11) 0.0244(10) 0.0290(11) -0.0038(8) 0.0031(9) 0.0045(8)
C3 0.0353(11) 0.0328(11) 0.0273(11) -0.0019(9) 0.0081(9) 0.0075(9)
C4 0.0346(11) 0.0238(10) 0.0365(12) -0.0049(9) 0.0075(9) 0.0067(9)
C5 0.0274(9) 0.0206(9) 0.0310(10) -0.0035(7) 0.0123(8) -0.0013(7)
C6 0.0360(11) 0.0257(10) 0.0306(11) -0.0049(8) 0.0135(10) 0.0006(9)
C7 0.0297(10) 0.0235(10) 0.0298(10) -0.0089(8) 0.0142(8) -0.0020(8)
C8 0.0244(9) 0.0296(11) 0.0365(11) -0.0069(8) 0.0147(9) 0.0019(8)
C9 0.0274(10) 0.0288(10) 0.0402(12) -0.0088(9) 0.0191(9) -0.0064(8)
C10 0.0251(18) 0.040(3) 0.053(4) -0.024(2) 0.003(2) 0.004(2)
C11 0.030(2) 0.027(2) 0.040(3) -0.0056(16) 0.0179(19) -0.0016(17)
C12 0.033(2) 0.035(3) 0.059(4) -0.020(2) 0.010(3) 0.008(2)
C13 0.0293(19) 0.040(3) 0.038(3) -0.015(2) 0.017(2) -0.0128(18)
C18 0.0386(11) 0.0226(10) 0.0306(10) -0.0061(8) 0.0175(9) -0.0066(8)
C19 0.0524(14) 0.0297(12) 0.0435(14) -0.0164(10) 0.0300(12) -0.0144(10)
C20 0.0431(12) 0.0227(10) 0.0392(12) -0.0138(8) 0.0231(10) -0.0091(9)
C21 0.0350(11) 0.0285(11) 0.0413(12) -0.0136(9) 0.0182(10) -0.0052(9)
C22 0.0442(12) 0.0261(11) 0.0375(12) -0.0083(9) 0.0195(10) -0.0020(9)
Cd1F 0.02697 0.01467 0.02558 0 0.01162 0
Cd1G 0.02697 0.01467 0.02558 0 0.01162 0
F1D 0.0272 0.0403 0.0656 -0.0004 0.0238 0.0075
F2D 0.0351 0.0372 0.0729 -0.0002 0.0317 -0.0066
F3E 0.0346 0.0497 0.0542 -0.009 0.0167 -0.0062
F4E 0.0537 0.0426 0.0494 0.0075 0.0217 0.0016
O1B 0.0366 0.04 0.0583 0.0104 0.0177 -0.0067
O2B 0.1039 0.0481 0.0746 0.0128 0.0697 0.0208
O3B 0.0315 0.0632 0.0398 0.0009 0.0168 -0.0125
N1D 0.0317 0.0211 0.0292 -0.0017 0.0108 0.0024
N1B 0.0317 0.0211 0.0292 0.0017 0.0108 -0.0024
N2E 0.0295 0.0199 0.0324 -0.0042 0.0129 -0.0018
N2B 0.0295 0.0199 0.0324 0.0042 0.0129 0.0018
N3B 0.0321 0.0334 0.0372 0.0117 0.0175 0.0061
C1D 0.0375 0.0301 0.0314 0.0005 0.0114 0.0127
C2D 0.0344 0.0244 0.029 -0.0038 0.0031 0.0045
C3D 0.0353 0.0328 0.0273 -0.0019 0.0081 0.0075
C4D 0.0346 0.0238 0.0365 -0.0049 0.0075 0.0067
C5D 0.0274 0.0206 0.031 -0.0035 0.0123 -0.0013
C6D 0.036 0.0257 0.0306 -0.0049 0.0135 0.0006
C7D 0.0297 0.0235 0.0298 -0.0089 0.0142 -0.002
C8D 0.0244 0.0296 0.0365 -0.0069 0.0147 0.0019
C9D 0.0274 0.0288 0.0402 -0.0088 0.0191 -0.0064
C10E 0.0251 0.04 0.053 -0.024 0.003 0.004
C11E 0.03 0.027 0.04 -0.0056 0.0179 -0.0016
C12E 0.033 0.035 0.059 -0.02 0.01 0.008
C13E 0.0293 0.04 0.038 -0.015 0.017 -0.0128
C18E 0.0386 0.0226 0.0306 -0.0061 0.0175 -0.0066
C19E 0.0524 0.0297 0.0435 -0.0164 0.03 -0.0144
C20E 0.0431 0.0227 0.0392 -0.0138 0.0231 -0.0091
C21E 0.035 0.0285 0.0413 -0.0136 0.0182 -0.0052
C22E 0.0442 0.0261 0.0375 -0.0083 0.0195 -0.002
C23 0.0589(19) 0.065(2) 0.0554(19) 0.0038(15) 0.0115(16) -0.0061(16)
C24 0.093(3) 0.058(2) 0.079(3) 0.0026(19) 0.026(2) -0.017(2)
C25 0.186(5) 0.046(2) 0.073(3) -0.0026(18) 0.065(3) -0.006(3)
C26 0.308(10) 0.092(4) 0.152(6) -0.027(4) 0.161(7) 0.016(5)
C27 0.156(5) 0.066(2) 0.071(3) -0.002(2) 0.061(3) -0.011(3)
C28 0.0567(18) 0.0537(18) 0.060(2) 0.0068(15) 0.0058(15) -0.0155(15)
C29 0.104(4) 0.135(5) 0.098(4) -0.006(3) 0.051(3) 0.025(3)
loop_
_geom_bond_atom_site_label_1
_geom_bond_atom_site_label_2
_geom_bond_site_symmetry_1
_geom_bond_site_symmetry_2
Cd1 O1 1_555 1_555
F1 C8 1_555 1_555
F2 C9 1_555 1_555
F3 C21 1_555 1_555
F4 C22 1_555 1_555
O1 N3 1_555 1_555
O2 N3 1_555 1_555
O3 N3 1_555 1_555
N1 Cd1 1_555 1_555
N2 Cd1 1_555 1_555
C1 N1 1_555 1_555
C2 N1 1_555 1_555
C3 C1 1_555 1_555
C4 C2 1_555 1_555
C5 C3 1_555 1_555
C6 C5 1_555 1_555
C7 C6 1_555 1_555
C8 C7 1_555 1_555
C9 C8 1_555 1_555
C10 N2 1_555 1_555
H1 C10 1_555 1_555
C11 N2 1_555 1_555
H2 C11 1_555 1_555
C12 C10 1_555 1_555
H3 C12 1_555 1_555
C13 C11 1_555 1_555
H4 C13 1_555 1_555
C18 C12 1_555 1_555
C19 C18 1_555 1_555
C20 C19 1_555 1_555
C21 C20 1_555 1_555
C22 C21 1_555 1_555
C23 C24 1_555 1_555
C24 H9 1_555 1_555
C25 C24 1_555 1_555
H10 C25 1_555 1_555
C26 C25 1_555 1_555
H11 C26 1_555 1_555
C27 C26 1_555 1_555
H12 C27 1_555 1_555
C28 C23 1_555 1_555
H13 C28 1_555 1_555
C29 C23 1_555 1_555
H14 C29 1_555 1_555
H15 C29 1_555 1_555
H16 C29 1_555 1_555
H17 C1 1_555 1_555
H18 C2 1_555 1_555
H19 C3 1_555 1_555
H20 C4 1_555 1_555
H21 C6 1_555 1_555
H22 C6 1_555 1_555
H23 C19 1_555 1_555
H24 C19 1_555 1_555
Cd1F N1D 1_555 1_555
Cd1G N2E 1_555 1_555
F1D C8D 1_555 1_555
F2D C9D 1_555 1_555
F3E C21E 1_555 1_555
F4E C22E 1_555 1_555
O1B Cd1 1_555 1_555
O2B N3B 1_555 1_555
O3B N3B 1_555 1_555
N1D C1D 1_555 1_555
N1B Cd1 1_555 1_555
N2E C10E 1_555 1_555
N2B Cd1 1_555 1_555
N3B O1B 1_555 1_555
C1D C3D 1_555 1_555
C2D N1D 1_555 1_555
C3D C5D 1_555 1_555
C4D C2D 1_555 1_555
C5D C4D 1_555 1_555
C6D C5D 1_555 1_555
C7D C9 1_555 1_555
C8D C7D 1_555 1_555
C9D C7 1_555 1_555
C10E H1E 1_555 1_555
C11E N2E 1_555 1_555
H2E C11E 1_555 1_555
C12E C10E 1_555 1_555
H3E C12E 1_555 1_555
C13E C11E 1_555 1_555
H4E C13E 1_555 1_555
C18E C12E 1_555 1_555
C19E C18E 1_555 1_555
C20E C22 1_555 1_555
C21E C20E 1_555 1_555
C22E C20 1_555 1_555
H17D C1D 1_555 1_555
H18D C2D 1_555 1_555
H19D C3D 1_555 1_555
H20D C4D 1_555 1_555
H21D C6D 1_555 1_555
H22D C6D 1_555 1_555
H23E C19E 1_555 1_555
H24E C19E 1_555 1_555
C4 C5 1_555 1_555
C13 C18 1_555 1_555
C27 C28 1_555 1_555
C6D C7D 1_555 1_555
C8D C9D 1_555 1_555
C13E C18E 1_555 1_555
C19E C20E 1_555 1_555
C21E C22E 1_555 1_555

#END
