
#######################################################################
#
#                 Cambridge Crystallographic Data Centre
#                                CCDC 
#
#######################################################################
#
# If this CIF has been generated from an entry in the Cambridge 
# Structural Database, then it will include bibliographic, chemical, 
# crystal, experimental, refinement or atomic coordinate data resulting 
# from the CCDC's data processing and validation procedures.
#
#######################################################################

data_MICNOC
_chemical_formula_moiety         '(C44 H34 Cd1 F8 N6 O6)n'
_symmetry_cell_setting           monoclinic
_symmetry_space_group_name_H-M   'C 2/c'
_symmetry_Int_Tables_number      15
_space_group_name_Hall           '-C 2yc'
loop_
_symmetry_equiv_pos_site_id
_symmetry_equiv_pos_as_xyz
1 x,y,z
2 1/2+x,1/2+y,z
3 -x,y,1/2-z
4 1/2-x,1/2+y,1/2-z
5 -x,-y,-z
6 1/2-x,1/2-y,-z
7 x,-y,1/2+z
8 1/2+x,1/2-y,1/2+z
_cell_length_a                   17.9094(10)
_cell_length_b                   19.2662(11)
_cell_length_c                   16.5765(9)
_cell_angle_alpha                90
_cell_angle_beta                 122.0680(10)
_cell_angle_gamma                90
_cell_volume                     4846.94
loop_
_atom_site_label
_atom_site_type_symbol
_atom_site_fract_x
_atom_site_fract_y
_atom_site_fract_z
_atom_site_U_iso_or_equiv
_atom_site_thermal_displace_type
Cd1 Cd 1.0000 0.123634(7) 0.7500 0.0235 Uani
F1 F 1.16370(7) 0.44947(7) 1.06813(10) 0.0515 Uani
F2 F 1.12654(7) 0.58028(7) 1.00585(10) 0.0587 Uani
F3 F 0.92728(7) -0.24523(7) 0.61725(9) 0.0509 Uani
F4 F 0.83498(9) -0.33650(6) 0.65083(9) 0.0548 Uani
O1 O 1.16778(13) 0.17007(8) 0.84379(13) 0.0633 Uani
O2 O 1.13178(9) 0.10083(7) 0.72872(11) 0.0512 Uani
O3 O 1.24277(8) 0.16857(8) 0.77614(10) 0.0455 Uani
N1 N 1.01465(9) 0.20710(7) 0.86153(9) 0.0283 Uani
N2 N 0.94115(8) 0.03219(7) 0.63720(9) 0.0276 Uani
N3 N 1.18312(9) 0.14678(8) 0.78422(10) 0.0329 Uani
C1 C 0.95974(11) 0.26123(9) 0.83585(12) 0.0341 Uani
C2 C 1.07723(12) 0.20159(9) 0.95364(12) 0.0340 Uani
C3 C 0.96521(12) 0.31059(9) 0.89937(13) 0.0361 Uani
C4 C 1.08711(12) 0.24885(9) 1.02142(12) 0.0340 Uani
C5 C 1.03076(10) 0.30487(8) 0.99501(11) 0.0283 Uani
C6 C 1.04178(12) 0.35678(9) 1.06958(12) 0.0338 Uani
C7 C 1.02015(10) 0.43019(8) 1.03359(11) 0.0292 Uani
C8 C 1.08198(10) 0.47379(9) 1.03476(12) 0.0316 Uani
C9 C 1.06246(11) 0.54108(9) 1.00257(13) 0.0338 Uani
C10 C 0.9982(2) -0.01837(17) 0.6415(3) 0.0308 Uani
H1 H 1.0595 -0.0118 0.6856 0.0370 Uiso
C11 C 0.8557(2) 0.01661(18) 0.5765(3) 0.0277 Uani
H2 H 0.8132 0.0479 0.5733 0.0330 Uiso
C12 C 0.9723(2) -0.07758(17) 0.5860(3) 0.0318 Uani
H3 H 1.0142 -0.1100 0.5903 0.0380 Uiso
C13 C 0.8248(2) -0.04151(19) 0.5182(3) 0.0314 Uani
H4 H 0.7634 -0.0482 0.4750 0.0380 Uiso
C18 C 0.88278(11) -0.08775(8) 0.52402(12) 0.0298 Uani
C19 C 0.85309(15) -0.15199(10) 0.46166(15) 0.0399 Uani
C20 C 0.79960(12) -0.20181(9) 0.48153(13) 0.0341 Uani
C21 C 0.83887(11) -0.24716(9) 0.55767(13) 0.0360 Uani
C22 C 0.79141(12) -0.29422(9) 0.57564(13) 0.0366 Uani
H25 H 0.9146(13) 0.2676(10) 0.7682(15) 0.0350 Uiso
H26 H 1.1177(15) 0.1636(13) 0.9725(17) 0.0500 Uiso
H27 H 0.9265(14) 0.3483(12) 0.8754(16) 0.0420 Uiso
H28 H 1.1334(13) 0.2451(11) 1.0842(15) 0.0390 Uiso
H29 H 1.0024(15) 0.3430(12) 1.0887(16) 0.0460 Uiso
H30 H 1.1058(13) 0.3561(10) 1.1275(14) 0.0290 Uiso
H31 H 0.8200(17) -0.1395(13) 0.3977(19) 0.0530 Uiso
H32 H 0.9039(15) -0.1746(12) 0.4701(16) 0.0450 Uiso
Cd1F Cd 1.0000 0.876366(7) 1.2500 0.0235 Uani
Cd1G Cd 0.5000 -0.623634(7) 0.2500 0.0235 Uani
F1D F 0.83630(7) 0.55053(7) 0.93187(10) 0.0515 Uani
F2D F 0.87346(7) 0.41972(7) 0.99415(10) 0.0587 Uani
F3E F 0.57272(7) -0.25477(7) 0.38275(9) 0.0509 Uani
F4E F 0.66502(9) -0.16350(6) 0.34917(9) 0.0548 Uani
O1B O 0.83222(13) 0.17007(8) 0.65621(13) 0.0633 Uani
O2B O 0.86822(9) 0.10083(7) 0.77128(11) 0.0512 Uani
O3B O 0.75723(8) 0.16857(8) 0.72386(10) 0.0455 Uani
N1D N 0.98535(9) 0.79290(7) 1.13847(9) 0.0283 Uani
N1B N 0.98535(9) 0.20710(7) 0.63847(9) 0.0283 Uani
N2E N 0.55885(8) -0.53219(7) 0.36280(9) 0.0276 Uani
N2B N 1.05885(8) 0.03219(7) 0.86280(9) 0.0276 Uani
N3B N 0.81688(9) 0.14678(8) 0.71578(10) 0.0329 Uani
C1D C 1.04026(11) 0.73877(9) 1.16415(12) 0.0341 Uani
C2D C 0.92277(12) 0.79841(9) 1.04636(12) 0.0340 Uani
C3D C 1.03479(12) 0.68941(9) 1.10063(13) 0.0361 Uani
C4D C 0.91289(12) 0.75115(9) 0.97858(12) 0.0340 Uani
C5D C 0.96924(10) 0.69513(8) 1.00499(11) 0.0283 Uani
C6D C 0.95822(12) 0.64322(9) 0.93042(12) 0.0338 Uani
C7D C 0.97985(10) 0.56981(8) 0.96641(11) 0.0292 Uani
C8D C 0.91802(10) 0.52621(9) 0.96524(12) 0.0316 Uani
C9D C 0.93754(11) 0.45892(9) 0.99743(13) 0.0338 Uani
C10E C 0.5018(2) -0.48163(17) 0.3585(3) 0.0308 Uani
H1E H 0.4405 -0.4882 0.3144 0.0370 Uiso
C11E C 0.6443(2) -0.51661(18) 0.4235(3) 0.0277 Uani
H2E H 0.6868 -0.5479 0.4267 0.0330 Uiso
C12E C 0.5277(2) -0.42242(17) 0.4140(3) 0.0318 Uani
H3E H 0.4858 -0.3900 0.4097 0.0380 Uiso
C13E C 0.6752(2) -0.45849(19) 0.4818(3) 0.0314 Uani
H4E H 0.7366 -0.4518 0.5250 0.0380 Uiso
C18E C 0.61722(11) -0.41225(8) 0.47598(12) 0.0298 Uani
C19E C 0.64691(15) -0.34801(10) 0.53834(15) 0.0399 Uani
C20E C 0.70040(12) -0.29819(9) 0.51847(13) 0.0341 Uani
C21E C 0.66113(11) -0.25284(9) 0.44233(13) 0.0360 Uani
C22E C 0.70859(12) -0.20578(9) 0.42436(13) 0.0366 Uani
H25D H 1.0854(13) 0.7324(10) 1.2318(15) 0.0350 Uiso
H26D H 0.8823(15) 0.8364(13) 1.0275(17) 0.0500 Uiso
H27D H 1.0735(14) 0.6517(12) 1.1246(16) 0.0420 Uiso
H28D H 0.8666(13) 0.7549(11) 0.9158(15) 0.0390 Uiso
H29D H 0.9976(15) 0.6570(12) 0.9113(16) 0.0460 Uiso
H30D H 0.8942(13) 0.6439(10) 0.8725(14) 0.0290 Uiso
H31E H 0.6800(17) -0.3605(13) 0.6023(19) 0.0530 Uiso
H32E H 0.5961(15) -0.3254(12) 0.5299(16) 0.0450 Uiso
C23 C 0.79690(16) 0.38577(13) 0.64641(17) 0.0535 Uani
C31 C 0.7604(2) 0.35263(17) 0.6889(2) 0.0304 Uani
H15 H 0.7522 0.3039 0.6792 0.0360 Uiso
C32 C 0.7336(2) 0.38314(19) 0.7457(2) 0.0315 Uani
C33 C 0.7388(3) 0.4552(2) 0.7556(3) 0.0403 Uani
H16 H 0.7217 0.4772 0.7947 0.0490 Uiso
C34 C 0.7683(3) 0.4943(2) 0.7094(3) 0.0469 Uani
H17 H 0.7716 0.5433 0.7169 0.0560 Uiso
C35 C 0.7934(3) 0.4637(2) 0.6519(4) 0.0471 Uani
H18 H 0.8085 0.4920 0.6157 0.0570 Uiso
C36 C 0.8182(3) 0.3561(3) 0.5809(3) 0.0645 Uani
H19 H 0.8186 0.3053 0.5852 0.0960 Uiso
H20 H 0.8765 0.3723 0.5972 0.0960 Uiso
H21 H 0.7740 0.3704 0.5158 0.0960 Uiso
C37 C 0.7025(3) 0.3385(3) 0.7959(3) 0.0537 Uani
H22 H 0.6859 0.3679 0.8321 0.0810 Uiso
H23 H 0.7499 0.3070 0.8394 0.0810 Uiso
H24 H 0.6513 0.3114 0.7490 0.0810 Uiso
loop_
_atom_site_aniso_label
_atom_site_aniso_U_11
_atom_site_aniso_U_22
_atom_site_aniso_U_33
_atom_site_aniso_U_23
_atom_site_aniso_U_13
_atom_site_aniso_U_12
Cd1 0.02814(9) 0.01824(8) 0.02273(9) 0.000 0.01259(7) 0.000
F1 0.0330(5) 0.0560(7) 0.0715(8) 0.0140(6) 0.0318(6) 0.0112(5)
F2 0.0337(6) 0.0536(7) 0.0854(10) 0.0169(7) 0.0294(6) -0.0082(5)
F3 0.0326(5) 0.0522(7) 0.0548(7) -0.0070(5) 0.0144(5) -0.0080(5)
F4 0.0579(7) 0.0460(7) 0.0472(7) 0.0126(5) 0.0189(6) -0.0014(6)
O1 0.1010(13) 0.0548(9) 0.0641(10) 0.0194(8) 0.0641(10) 0.0299(9)
O2 0.0445(7) 0.0350(7) 0.0587(9) 0.0045(6) 0.0169(7) -0.0107(6)
O3 0.0332(6) 0.0588(9) 0.0443(8) 0.0045(6) 0.0204(6) -0.0114(6)
N1 0.0328(6) 0.0229(6) 0.0261(6) -0.0015(5) 0.0135(5) -0.0011(5)
N2 0.0299(6) 0.0248(6) 0.0297(7) -0.0031(5) 0.0169(6) -0.0039(5)
N3 0.0319(7) 0.0323(7) 0.0352(7) 0.0099(6) 0.0183(6) 0.0047(6)
C1 0.0347(8) 0.0275(8) 0.0275(8) -0.0032(6) 0.0079(7) 0.0005(6)
C2 0.0373(8) 0.0303(8) 0.0284(8) 0.0003(6) 0.0133(7) 0.0070(7)
C3 0.0346(8) 0.0270(8) 0.0333(9) -0.0043(6) 0.0089(7) 0.0041(7)
C4 0.0371(8) 0.0343(9) 0.0235(8) 0.0001(6) 0.0112(7) 0.0024(7)
C5 0.0286(7) 0.0263(7) 0.0288(8) -0.0042(6) 0.0144(6) -0.0061(6)
C6 0.0392(9) 0.0300(8) 0.0306(8) -0.0057(6) 0.0175(7) -0.0029(7)
C7 0.0326(8) 0.0288(8) 0.0270(7) -0.0092(6) 0.0164(6) -0.0039(6)
C8 0.0262(7) 0.0366(9) 0.0337(8) -0.0056(7) 0.0170(6) -0.0001(6)
C9 0.0287(7) 0.0355(9) 0.0398(9) -0.0057(7) 0.0199(7) -0.0081(6)
C10 0.0257(14) 0.0267(15) 0.0348(17) -0.0068(14) 0.0125(13) -0.0027(12)
C11 0.0254(14) 0.0280(16) 0.0318(18) -0.0047(14) 0.0166(14) -0.0025(12)
C12 0.0352(16) 0.0239(15) 0.0385(18) -0.0063(14) 0.0210(15) -0.0006(13)
C13 0.0275(15) 0.0364(18) 0.0317(18) -0.0094(15) 0.0167(14) -0.0115(13)
C18 0.0371(8) 0.0253(8) 0.0307(8) -0.0041(6) 0.0206(7) -0.0092(6)
C19 0.0526(11) 0.0325(9) 0.0454(11) -0.0143(8) 0.0333(9) -0.0166(8)
C20 0.0422(9) 0.0251(8) 0.0387(9) -0.0109(6) 0.0240(8) -0.0117(7)
C21 0.0332(8) 0.0320(8) 0.0377(9) -0.0096(7) 0.0154(7) -0.0079(7)
C22 0.0430(9) 0.0281(8) 0.0342(9) -0.0028(6) 0.0175(7) -0.0051(7)
Cd1F 0.02814 0.01824 0.02273 0 0.01259 0
Cd1G 0.02814 0.01824 0.02273 0 0.01259 0
F1D 0.033 0.056 0.0715 0.014 0.0318 0.0112
F2D 0.0337 0.0536 0.0854 0.0169 0.0294 -0.0082
F3E 0.0326 0.0522 0.0548 -0.007 0.0144 -0.008
F4E 0.0579 0.046 0.0472 0.0126 0.0189 -0.0014
O1B 0.101 0.0548 0.0641 -0.0194 0.0641 -0.0299
O2B 0.0445 0.035 0.0587 -0.0045 0.0169 0.0107
O3B 0.0332 0.0588 0.0443 -0.0045 0.0204 0.0114
N1D 0.0328 0.0229 0.0261 -0.0015 0.0135 -0.0011
N1B 0.0328 0.0229 0.0261 0.0015 0.0135 0.0011
N2E 0.0299 0.0248 0.0297 -0.0031 0.0169 -0.0039
N2B 0.0299 0.0248 0.0297 0.0031 0.0169 0.0039
N3B 0.0319 0.0323 0.0352 -0.0099 0.0183 -0.0047
C1D 0.0347 0.0275 0.0275 -0.0032 0.0079 0.0005
C2D 0.0373 0.0303 0.0284 0.0003 0.0133 0.007
C3D 0.0346 0.027 0.0333 -0.0043 0.0089 0.0041
C4D 0.0371 0.0343 0.0235 0.0001 0.0112 0.0024
C5D 0.0286 0.0263 0.0288 -0.0042 0.0144 -0.0061
C6D 0.0392 0.03 0.0306 -0.0057 0.0175 -0.0029
C7D 0.0326 0.0288 0.027 -0.0092 0.0164 -0.0039
C8D 0.0262 0.0366 0.0337 -0.0056 0.017 -0.0001
C9D 0.0287 0.0355 0.0398 -0.0057 0.0199 -0.0081
C10E 0.0257 0.0267 0.0348 -0.0068 0.0125 -0.0027
C11E 0.0254 0.028 0.0318 -0.0047 0.0166 -0.0025
C12E 0.0352 0.0239 0.0385 -0.0063 0.021 -0.0006
C13E 0.0275 0.0364 0.0317 -0.0094 0.0167 -0.0115
C18E 0.0371 0.0253 0.0307 -0.0041 0.0206 -0.0092
C19E 0.0526 0.0325 0.0454 -0.0143 0.0333 -0.0166
C20E 0.0422 0.0251 0.0387 -0.0109 0.024 -0.0117
C21E 0.0332 0.032 0.0377 -0.0096 0.0154 -0.0079
C22E 0.043 0.0281 0.0342 -0.0028 0.0175 -0.0051
C23 0.0521(12) 0.0668(15) 0.0425(11) -0.0094(10) 0.0257(10) -0.0077(10)
C31 0.0247(14) 0.0265(15) 0.0288(16) -0.0007(12) 0.0067(12) -0.0003(12)
C32 0.0254(14) 0.0379(19) 0.0254(16) 0.0033(13) 0.0095(12) -0.0012(13)
C33 0.039(2) 0.041(2) 0.040(2) -0.0109(17) 0.0203(18) 0.0038(16)
C34 0.045(2) 0.0268(17) 0.064(3) 0.0022(17) 0.0256(19) 0.0039(15)
C35 0.044(2) 0.045(2) 0.056(3) 0.020(2) 0.029(2) 0.0033(17)
C36 0.050(2) 0.107(4) 0.043(3) -0.001(3) 0.029(2) 0.019(3)
C37 0.049(2) 0.069(3) 0.045(2) 0.010(2) 0.0263(19) -0.008(2)
loop_
_geom_bond_atom_site_label_1
_geom_bond_atom_site_label_2
_geom_bond_site_symmetry_1
_geom_bond_site_symmetry_2
Cd1 O2 1_555 1_555
F1 C8 1_555 1_555
F2 C9 1_555 1_555
F3 C21 1_555 1_555
F4 C22 1_555 1_555
O1 N3 1_555 1_555
O2 N3 1_555 1_555
O3 N3 1_555 1_555
N1 Cd1 1_555 1_555
N2 Cd1 1_555 1_555
C1 N1 1_555 1_555
C2 N1 1_555 1_555
C3 C1 1_555 1_555
C4 C2 1_555 1_555
C5 C3 1_555 1_555
C6 C5 1_555 1_555
C7 C6 1_555 1_555
C8 C7 1_555 1_555
C9 C8 1_555 1_555
C10 N2 1_555 1_555
H1 C10 1_555 1_555
C11 N2 1_555 1_555
H2 C11 1_555 1_555
C12 C10 1_555 1_555
H3 C12 1_555 1_555
C13 C11 1_555 1_555
H4 C13 1_555 1_555
C18 C12 1_555 1_555
C19 C18 1_555 1_555
C20 C19 1_555 1_555
C21 C20 1_555 1_555
C22 C21 1_555 1_555
C23 C31 1_555 1_555
C31 H15 1_555 1_555
C32 C31 1_555 1_555
C33 C32 1_555 1_555
H16 C33 1_555 1_555
C34 C33 1_555 1_555
H17 C34 1_555 1_555
C35 C23 1_555 1_555
H18 C35 1_555 1_555
C36 C23 1_555 1_555
H19 C36 1_555 1_555
H20 C36 1_555 1_555
H21 C36 1_555 1_555
C37 C32 1_555 1_555
H22 C37 1_555 1_555
H23 C37 1_555 1_555
H24 C37 1_555 1_555
H25 C1 1_555 1_555
H26 C2 1_555 1_555
H27 C3 1_555 1_555
H28 C4 1_555 1_555
H29 C6 1_555 1_555
H30 C6 1_555 1_555
H31 C19 1_555 1_555
H32 C19 1_555 1_555
Cd1F N1D 1_555 1_555
Cd1G N2E 1_555 1_555
F1D C8D 1_555 1_555
F2D C9D 1_555 1_555
F3E C21E 1_555 1_555
F4E C22E 1_555 1_555
O1B N3B 1_555 1_555
O2B Cd1 1_555 1_555
O3B N3B 1_555 1_555
N1D C1D 1_555 1_555
N1B Cd1 1_555 1_555
N2E C10E 1_555 1_555
N2B Cd1 1_555 1_555
N3B O2B 1_555 1_555
C1D C3D 1_555 1_555
C2D N1D 1_555 1_555
C3D C5D 1_555 1_555
C4D C2D 1_555 1_555
C5D C4D 1_555 1_555
C6D C5D 1_555 1_555
C7D C9 1_555 1_555
C8D C7D 1_555 1_555
C9D C7 1_555 1_555
C10E H1E 1_555 1_555
C11E N2E 1_555 1_555
H2E C11E 1_555 1_555
C12E C10E 1_555 1_555
H3E C12E 1_555 1_555
C13E C11E 1_555 1_555
H4E C13E 1_555 1_555
C18E C12E 1_555 1_555
C19E C18E 1_555 1_555
C20E C22 1_555 1_555
C21E C20E 1_555 1_555
C22E C20 1_555 1_555
H25D C1D 1_555 1_555
H26D C2D 1_555 1_555
H27D C3D 1_555 1_555
H28D C4D 1_555 1_555
H29D C6D 1_555 1_555
H30D C6D 1_555 1_555
H31E C19E 1_555 1_555
H32E C19E 1_555 1_555
C4 C5 1_555 1_555
C13 C18 1_555 1_555
C34 C35 1_555 1_555
C6D C7D 1_555 1_555
C8D C9D 1_555 1_555
C13E C18E 1_555 1_555
C19E C20E 1_555 1_555
C21E C22E 1_555 1_555

#END
