
#######################################################################
#
#                 Cambridge Crystallographic Data Centre
#                                CCDC 
#
#######################################################################
#
# If this CIF has been generated from an entry in the Cambridge 
# Structural Database, then it will include bibliographic, chemical, 
# crystal, experimental, refinement or atomic coordinate data resulting 
# from the CCDC's data processing and validation procedures.
#
#######################################################################

data_DOTSOV07
_chemical_formula_moiety         '(C36 H12 Cu6 O24)n'
_symmetry_cell_setting           cubic
_symmetry_space_group_name_H-M   'F m -3 m'
_symmetry_Int_Tables_number      225
_space_group_name_Hall           '-F 4 2 3'
loop_
_symmetry_equiv_pos_site_id
_symmetry_equiv_pos_as_xyz
1 x,y,z
2 -y,x,z
3 -x,-y,z
4 y,-x,z
5 x,-z,y
6 x,-y,-z
7 x,z,-y
8 z,y,-x
9 -x,y,-z
10 -z,y,x
11 z,x,y
12 y,z,x
13 -y,-z,x
14 z,-x,-y
15 -y,z,-x
16 -z,-x,y
17 -z,x,-y
18 y,-z,-x
19 y,x,-z
20 -y,-x,-z
21 -x,z,y
22 -x,-z,-y
23 z,-y,x
24 -z,-y,-x
25 x,1/2+y,1/2+z
26 -y,1/2+x,1/2+z
27 -x,1/2-y,1/2+z
28 y,1/2-x,1/2+z
29 x,1/2-z,1/2+y
30 x,1/2-y,1/2-z
31 x,1/2+z,1/2-y
32 z,1/2+y,1/2-x
33 -x,1/2+y,1/2-z
34 -z,1/2+y,1/2+x
35 z,1/2+x,1/2+y
36 y,1/2+z,1/2+x
37 -y,1/2-z,1/2+x
38 z,1/2-x,1/2-y
39 -y,1/2+z,1/2-x
40 -z,1/2-x,1/2+y
41 -z,1/2+x,1/2-y
42 y,1/2-z,1/2-x
43 y,1/2+x,1/2-z
44 -y,1/2-x,1/2-z
45 -x,1/2+z,1/2+y
46 -x,1/2-z,1/2-y
47 z,1/2-y,1/2+x
48 -z,1/2-y,1/2-x
49 1/2+x,y,1/2+z
50 1/2-y,x,1/2+z
51 1/2-x,-y,1/2+z
52 1/2+y,-x,1/2+z
53 1/2+x,-z,1/2+y
54 1/2+x,-y,1/2-z
55 1/2+x,z,1/2-y
56 1/2+z,y,1/2-x
57 1/2-x,y,1/2-z
58 1/2-z,y,1/2+x
59 1/2+z,x,1/2+y
60 1/2+y,z,1/2+x
61 1/2-y,-z,1/2+x
62 1/2+z,-x,1/2-y
63 1/2-y,z,1/2-x
64 1/2-z,-x,1/2+y
65 1/2-z,x,1/2-y
66 1/2+y,-z,1/2-x
67 1/2+y,x,1/2-z
68 1/2-y,-x,1/2-z
69 1/2-x,z,1/2+y
70 1/2-x,-z,1/2-y
71 1/2+z,-y,1/2+x
72 1/2-z,-y,1/2-x
73 1/2+x,1/2+y,z
74 1/2-y,1/2+x,z
75 1/2-x,1/2-y,z
76 1/2+y,1/2-x,z
77 1/2+x,1/2-z,y
78 1/2+x,1/2-y,-z
79 1/2+x,1/2+z,-y
80 1/2+z,1/2+y,-x
81 1/2-x,1/2+y,-z
82 1/2-z,1/2+y,x
83 1/2+z,1/2+x,y
84 1/2+y,1/2+z,x
85 1/2-y,1/2-z,x
86 1/2+z,1/2-x,-y
87 1/2-y,1/2+z,-x
88 1/2-z,1/2-x,y
89 1/2-z,1/2+x,-y
90 1/2+y,1/2-z,-x
91 1/2+y,1/2+x,-z
92 1/2-y,1/2-x,-z
93 1/2-x,1/2+z,y
94 1/2-x,1/2-z,-y
95 1/2+z,1/2-y,x
96 1/2-z,1/2-y,-x
97 -x,-y,-z
98 y,-x,-z
99 x,y,-z
100 -y,x,-z
101 -x,z,-y
102 -x,y,z
103 -x,-z,y
104 -z,-y,x
105 x,-y,z
106 z,-y,-x
107 -z,-x,-y
108 -y,-z,-x
109 y,z,-x
110 -z,x,y
111 y,-z,x
112 z,x,-y
113 z,-x,y
114 -y,z,x
115 -y,-x,z
116 y,x,z
117 x,-z,-y
118 x,z,y
119 -z,y,-x
120 z,y,x
121 -x,1/2-y,1/2-z
122 y,1/2-x,1/2-z
123 x,1/2+y,1/2-z
124 -y,1/2+x,1/2-z
125 -x,1/2+z,1/2-y
126 -x,1/2+y,1/2+z
127 -x,1/2-z,1/2+y
128 -z,1/2-y,1/2+x
129 x,1/2-y,1/2+z
130 z,1/2-y,1/2-x
131 -z,1/2-x,1/2-y
132 -y,1/2-z,1/2-x
133 y,1/2+z,1/2-x
134 -z,1/2+x,1/2+y
135 y,1/2-z,1/2+x
136 z,1/2+x,1/2-y
137 z,1/2-x,1/2+y
138 -y,1/2+z,1/2+x
139 -y,1/2-x,1/2+z
140 y,1/2+x,1/2+z
141 x,1/2-z,1/2-y
142 x,1/2+z,1/2+y
143 -z,1/2+y,1/2-x
144 z,1/2+y,1/2+x
145 1/2-x,-y,1/2-z
146 1/2+y,-x,1/2-z
147 1/2+x,y,1/2-z
148 1/2-y,x,1/2-z
149 1/2-x,z,1/2-y
150 1/2-x,y,1/2+z
151 1/2-x,-z,1/2+y
152 1/2-z,-y,1/2+x
153 1/2+x,-y,1/2+z
154 1/2+z,-y,1/2-x
155 1/2-z,-x,1/2-y
156 1/2-y,-z,1/2-x
157 1/2+y,z,1/2-x
158 1/2-z,x,1/2+y
159 1/2+y,-z,1/2+x
160 1/2+z,x,1/2-y
161 1/2+z,-x,1/2+y
162 1/2-y,z,1/2+x
163 1/2-y,-x,1/2+z
164 1/2+y,x,1/2+z
165 1/2+x,-z,1/2-y
166 1/2+x,z,1/2+y
167 1/2-z,y,1/2-x
168 1/2+z,y,1/2+x
169 1/2-x,1/2-y,-z
170 1/2+y,1/2-x,-z
171 1/2+x,1/2+y,-z
172 1/2-y,1/2+x,-z
173 1/2-x,1/2+z,-y
174 1/2-x,1/2+y,z
175 1/2-x,1/2-z,y
176 1/2-z,1/2-y,x
177 1/2+x,1/2-y,z
178 1/2+z,1/2-y,-x
179 1/2-z,1/2-x,-y
180 1/2-y,1/2-z,-x
181 1/2+y,1/2+z,-x
182 1/2-z,1/2+x,y
183 1/2+y,1/2-z,x
184 1/2+z,1/2+x,-y
185 1/2+z,1/2-x,y
186 1/2-y,1/2+z,x
187 1/2-y,1/2-x,z
188 1/2+y,1/2+x,z
189 1/2+x,1/2-z,-y
190 1/2+x,1/2+z,y
191 1/2-z,1/2+y,-x
192 1/2+z,1/2+y,x
_cell_length_a                   26.2711(2)
_cell_length_b                   26.2711(2)
_cell_length_c                   26.2711(2)
_cell_angle_alpha                90
_cell_angle_beta                 90
_cell_angle_gamma                90
_cell_volume                     18131.5
loop_
_atom_site_label
_atom_site_type_symbol
_atom_site_fract_x
_atom_site_fract_y
_atom_site_fract_z
_atom_site_U_iso_or_equiv
_atom_site_thermal_displace_type
Cu1 Cu 0.283574(14) 0.283574(14) 0.0000 0.0145 Uani
O1 O 0.24371(7) 0.31664(7) 0.05222(7) 0.0254 Uani
C1 C 0.17853(10) 0.32147(10) 0.11355(13) 0.0198 Uani
C2 C 0.20335(9) 0.29665(9) 0.06903(13) 0.0185 Uani
C3 C 0.13527(10) 0.30004(14) 0.13527(10) 0.0214 Uani
H1 H 0.1205 0.2706 0.1205 0.0260 Uiso
Cu1VB Cu 0.216426(14) 0.216426(14) 0.0000 0.0145 Uani
Cu1KA Cu 0.0000 0.216426(14) 0.216426(14) 0.0145 Uani
Cu1I Cu -0.0000 0.283574(14) 0.283574(14) 0.0145 Uani
Cu1FC Cu 0.216426(14) 0.5000 0.283574(14) 0.0145 Uani
Cu1DA Cu 0.283574(14) 0.5000 0.216426(14) 0.0145 Uani
Cu1HB Cu 0.216426(14) 0.0000 -0.216426(14) 0.0145 Uani
Cu1F Cu 0.283574(14) 0.0000 -0.283574(14) 0.0145 Uani
Cu1GC Cu 0.5000 0.216426(14) -0.283574(14) 0.0145 Uani
Cu1EB Cu 0.5000 0.283574(14) -0.216426(14) 0.0145 Uani
Cu1MA Cu 0.0000 0.216426(14) -0.216426(14) 0.0145 Uani
Cu1G Cu 0.0000 0.283574(14) -0.283574(14) 0.0145 Uani
Cu1HC Cu 0.216426(14) 0.5000 -0.283574(14) 0.0145 Uani
Cu1BA Cu 0.283574(14) 0.5000 -0.216426(14) 0.0145 Uani
Cu1JB Cu 0.216426(14) 0.0000 0.216426(14) 0.0145 Uani
Cu1D Cu 0.283574(14) 0.0000 0.283574(14) 0.0145 Uani
Cu1IC Cu 0.5000 0.216426(14) 0.283574(14) 0.0145 Uani
Cu1CB Cu 0.5000 0.283574(14) 0.216426(14) 0.0145 Uani
O1DG O 0.18336(7) 0.25629(7) 0.05222(7) 0.0254 Uani
O1KA O 0.05222(7) 0.25629(7) 0.18336(7) 0.0254 Uani
O1OD O 0.05222(7) 0.31664(7) 0.24371(7) 0.0254 Uani
O1FC O 0.18336(7) 0.44778(7) 0.24371(7) 0.0254 Uani
O1JE O 0.24371(7) 0.44778(7) 0.18336(7) 0.0254 Uani
O1R O 0.31664(7) 0.24371(7) -0.05222(7) 0.0254 Uani
O1LF O 0.25629(7) 0.18336(7) -0.05222(7) 0.0254 Uani
O1PB O 0.25629(7) 0.05222(7) -0.18336(7) 0.0254 Uani
O1DD O 0.31664(7) 0.05222(7) -0.24371(7) 0.0254 Uani
O1QC O 0.44778(7) 0.18336(7) -0.24371(7) 0.0254 Uani
O1AF O 0.44778(7) 0.24371(7) -0.18336(7) 0.0254 Uani
O1TC O 0.24371(7) 0.31664(7) -0.05222(7) 0.0254 Uani
O1MC O 0.18336(7) 0.25629(7) -0.05222(7) 0.0254 Uani
O1FE O 0.05222(7) 0.25629(7) -0.18336(7) 0.0254 Uani
O1G O 0.05222(7) 0.31664(7) -0.24371(7) 0.0254 Uani
O1WF O 0.18336(7) 0.44778(7) -0.24371(7) 0.0254 Uani
O1BA O 0.24371(7) 0.44778(7) -0.18336(7) 0.0254 Uani
O1KD O 0.31664(7) 0.24371(7) 0.05222(7) 0.0254 Uani
O1VB O 0.25629(7) 0.18336(7) 0.05222(7) 0.0254 Uani
O1RE O 0.25629(7) 0.05222(7) 0.18336(7) 0.0254 Uani
O1K O 0.31664(7) 0.05222(7) 0.24371(7) 0.0254 Uani
O1SF O 0.44778(7) 0.18336(7) 0.24371(7) 0.0254 Uani
O1LB O 0.44778(7) 0.24371(7) 0.18336(7) 0.0254 Uani
O1UA O -0.05222(7) 0.18336(7) 0.25629(7) 0.0254 Uani
O1YD O 0.05222(7) 0.18336(7) 0.25629(7) 0.0254 Uani
O1ZD O -0.05222(7) 0.25629(7) 0.18336(7) 0.0254 Uani
O1I O -0.05222(7) 0.31664(7) 0.24371(7) 0.0254 Uani
O1J O 0.05222(7) 0.24371(7) 0.31664(7) 0.0254 Uani
O1ED O -0.05222(7) 0.24371(7) 0.31664(7) 0.0254 Uani
O1NC O 0.25629(7) 0.55222(7) 0.31664(7) 0.0254 Uani
O1RF O 0.25629(7) 0.44778(7) 0.31664(7) 0.0254 Uani
O1CG O 0.18336(7) 0.55222(7) 0.24371(7) 0.0254 Uani
O1DA O 0.24371(7) 0.55222(7) 0.18336(7) 0.0254 Uani
O1OA O 0.31664(7) 0.44778(7) 0.25629(7) 0.0254 Uani
O1BE O 0.31664(7) 0.55222(7) 0.25629(7) 0.0254 Uani
C1KA C 0.11355(13) 0.32147(10) 0.17853(10) 0.0198 Uani
C1FC C 0.17853(10) 0.38645(13) 0.17853(10) 0.0198 Uani
C1R C 0.32147(10) 0.17853(10) -0.11355(13) 0.0198 Uani
C1PB C 0.32147(10) 0.11355(13) -0.17853(10) 0.0198 Uani
C1QC C 0.38645(13) 0.17853(10) -0.17853(10) 0.0198 Uani
C1MC C 0.17853(10) 0.32147(10) -0.11355(13) 0.0198 Uani
C1G C 0.11355(13) 0.32147(10) -0.17853(10) 0.0198 Uani
C1BA C 0.17853(10) 0.38645(13) -0.17853(10) 0.0198 Uani
C1VB C 0.32147(10) 0.17853(10) 0.11355(13) 0.0198 Uani
C1K C 0.32147(10) 0.11355(13) 0.17853(10) 0.0198 Uani
C1LB C 0.38645(13) 0.17853(10) 0.17853(10) 0.0198 Uani
C2KA C 0.06903(13) 0.29665(9) 0.20335(9) 0.0185 Uani
C2FC C 0.20335(9) 0.43097(13) 0.20335(9) 0.0185 Uani
C2R C 0.29665(9) 0.20335(9) -0.06903(13) 0.0185 Uani
C2PB C 0.29665(9) 0.06903(13) -0.20335(9) 0.0185 Uani
C2QC C 0.43097(13) 0.20335(9) -0.20335(9) 0.0185 Uani
C2MC C 0.20335(9) 0.29665(9) -0.06903(13) 0.0185 Uani
C2G C 0.06903(13) 0.29665(9) -0.20335(9) 0.0185 Uani
C2BA C 0.20335(9) 0.43097(13) -0.20335(9) 0.0185 Uani
C2VB C 0.29665(9) 0.20335(9) 0.06903(13) 0.0185 Uani
C2K C 0.29665(9) 0.06903(13) 0.20335(9) 0.0185 Uani
C2LB C 0.43097(13) 0.20335(9) 0.20335(9) 0.0185 Uani
C3KA C 0.13527(10) 0.36473(10) 0.19996(14) 0.0214 Uani
C3FC C 0.19996(14) 0.36473(10) 0.13527(10) 0.0214 Uani
C3R C 0.30004(14) 0.13527(10) -0.13527(10) 0.0214 Uani
C3PB C 0.36473(10) 0.13527(10) -0.19996(14) 0.0214 Uani
C3QC C 0.36473(10) 0.19996(14) -0.13527(10) 0.0214 Uani
C3G C 0.13527(10) 0.30004(14) -0.13527(10) 0.0214 Uani
C3BA C 0.13527(10) 0.36473(10) -0.19996(14) 0.0214 Uani
C3MC C 0.19996(14) 0.36473(10) -0.13527(10) 0.0214 Uani
C3K C 0.30004(14) 0.13527(10) 0.13527(10) 0.0214 Uani
C3LB C 0.36473(10) 0.13527(10) 0.19996(14) 0.0214 Uani
C3VB C 0.36473(10) 0.19996(14) 0.13527(10) 0.0214 Uani
H1FC H 0.2294 0.3795 0.1205 0.0260 Uiso
H1KA H 0.1205 0.3795 0.2294 0.0260 Uiso
H1R H 0.2706 0.1205 -0.1205 0.0260 Uiso
H1QC H 0.3795 0.2294 -0.1205 0.0260 Uiso
H1PB H 0.3795 0.1205 -0.2294 0.0260 Uiso
H1G H 0.1205 0.2706 -0.1205 0.0260 Uiso
H1MC H 0.2294 0.3795 -0.1205 0.0260 Uiso
H1BA H 0.1205 0.3795 -0.2294 0.0260 Uiso
H1K H 0.2706 0.1205 0.1205 0.0260 Uiso
H1VB H 0.3795 0.2294 0.1205 0.0260 Uiso
H1LB H 0.3795 0.1205 0.2294 0.0260 Uiso
loop_
_atom_site_aniso_label
_atom_site_aniso_U_11
_atom_site_aniso_U_22
_atom_site_aniso_U_33
_atom_site_aniso_U_23
_atom_site_aniso_U_13
_atom_site_aniso_U_12
Cu1 0.01576(19) 0.01576(19) 0.0120(2) 0.000 0.000 -0.00651(19)
O1 0.0255(9) 0.0276(9) 0.0231(9) -0.0069(7) 0.0078(7) -0.0074(7)
C1 0.0214(9) 0.0214(9) 0.0166(13) -0.0029(8) 0.0029(8) -0.0026(12)
C2 0.0190(9) 0.0190(9) 0.0176(14) -0.0010(8) 0.0010(8) 0.0012(11)
C3 0.0213(9) 0.0216(15) 0.0213(9) -0.0031(9) 0.0014(12) -0.0031(9)
Cu1VB 0.01576 0.01576 0.012 0 0 -0.00651
Cu1KA 0.012 0.01576 0.01576 -0.00651 0 0
Cu1I 0.012 0.01576 0.01576 -0.00651 0 0
Cu1FC 0.01576 0.012 0.01576 0 0.00651 0
Cu1DA 0.01576 0.012 0.01576 0 0.00651 0
Cu1HB 0.01576 0.012 0.01576 0 0.00651 0
Cu1F 0.01576 0.012 0.01576 0 0.00651 0
Cu1GC 0.012 0.01576 0.01576 -0.00651 0 0
Cu1EB 0.012 0.01576 0.01576 -0.00651 0 0
Cu1MA 0.012 0.01576 0.01576 0.00651 0 0
Cu1G 0.012 0.01576 0.01576 0.00651 0 0
Cu1HC 0.01576 0.012 0.01576 0 -0.00651 0
Cu1BA 0.01576 0.012 0.01576 0 -0.00651 0
Cu1JB 0.01576 0.012 0.01576 0 -0.00651 0
Cu1D 0.01576 0.012 0.01576 0 -0.00651 0
Cu1IC 0.012 0.01576 0.01576 0.00651 0 0
Cu1CB 0.012 0.01576 0.01576 0.00651 0 0
O1DG 0.0276 0.0255 0.0231 -0.0078 0.0069 -0.0074
O1KA 0.0231 0.0255 0.0276 -0.0074 0.0069 -0.0078
O1OD 0.0231 0.0276 0.0255 -0.0074 0.0078 -0.0069
O1FC 0.0276 0.0231 0.0255 -0.0078 0.0074 -0.0069
O1JE 0.0255 0.0231 0.0276 -0.0069 0.0074 -0.0078
O1R 0.0276 0.0255 0.0231 -0.0078 0.0069 -0.0074
O1LF 0.0255 0.0276 0.0231 -0.0069 0.0078 -0.0074
O1PB 0.0255 0.0231 0.0276 -0.0069 0.0074 -0.0078
O1DD 0.0276 0.0231 0.0255 -0.0078 0.0074 -0.0069
O1QC 0.0231 0.0276 0.0255 -0.0074 0.0078 -0.0069
O1AF 0.0231 0.0255 0.0276 -0.0074 0.0069 -0.0078
O1TC 0.0255 0.0276 0.0231 0.0069 -0.0078 -0.0074
O1MC 0.0276 0.0255 0.0231 0.0078 -0.0069 -0.0074
O1FE 0.0231 0.0255 0.0276 0.0074 -0.0069 -0.0078
O1G 0.0231 0.0276 0.0255 0.0074 -0.0078 -0.0069
O1WF 0.0276 0.0231 0.0255 0.0078 -0.0074 -0.0069
O1BA 0.0255 0.0231 0.0276 0.0069 -0.0074 -0.0078
O1KD 0.0276 0.0255 0.0231 0.0078 -0.0069 -0.0074
O1VB 0.0255 0.0276 0.0231 0.0069 -0.0078 -0.0074
O1RE 0.0255 0.0231 0.0276 0.0069 -0.0074 -0.0078
O1K 0.0276 0.0231 0.0255 0.0078 -0.0074 -0.0069
O1SF 0.0231 0.0276 0.0255 0.0074 -0.0078 -0.0069
O1LB 0.0231 0.0255 0.0276 0.0074 -0.0069 -0.0078
O1UA 0.0231 0.0276 0.0255 -0.0074 0.0078 -0.0069
O1YD 0.0231 0.0276 0.0255 -0.0074 -0.0078 0.0069
O1ZD 0.0231 0.0255 0.0276 -0.0074 -0.0069 0.0078
O1I 0.0231 0.0276 0.0255 -0.0074 -0.0078 0.0069
O1J 0.0231 0.0255 0.0276 -0.0074 -0.0069 0.0078
O1ED 0.0231 0.0255 0.0276 -0.0074 0.0069 -0.0078
O1NC 0.0255 0.0231 0.0276 -0.0069 0.0074 -0.0078
O1RF 0.0255 0.0231 0.0276 0.0069 0.0074 0.0078
O1CG 0.0276 0.0231 0.0255 0.0078 0.0074 0.0069
O1DA 0.0255 0.0231 0.0276 0.0069 0.0074 0.0078
O1OA 0.0276 0.0231 0.0255 0.0078 0.0074 0.0069
O1BE 0.0276 0.0231 0.0255 -0.0078 0.0074 -0.0069
C1KA 0.0166 0.0214 0.0214 -0.0026 0.0029 -0.0029
C1FC 0.0214 0.0166 0.0214 -0.0029 0.0026 -0.0029
C1R 0.0214 0.0214 0.0166 -0.0029 0.0029 -0.0026
C1PB 0.0214 0.0166 0.0214 -0.0029 0.0026 -0.0029
C1QC 0.0166 0.0214 0.0214 -0.0026 0.0029 -0.0029
C1MC 0.0214 0.0214 0.0166 0.0029 -0.0029 -0.0026
C1G 0.0166 0.0214 0.0214 0.0026 -0.0029 -0.0029
C1BA 0.0214 0.0166 0.0214 0.0029 -0.0026 -0.0029
C1VB 0.0214 0.0214 0.0166 0.0029 -0.0029 -0.0026
C1K 0.0214 0.0166 0.0214 0.0029 -0.0026 -0.0029
C1LB 0.0166 0.0214 0.0214 0.0026 -0.0029 -0.0029
C2KA 0.0176 0.019 0.019 0.0012 0.001 -0.001
C2FC 0.019 0.0176 0.019 -0.001 -0.0012 -0.001
C2R 0.019 0.019 0.0176 -0.001 0.001 0.0012
C2PB 0.019 0.0176 0.019 -0.001 -0.0012 -0.001
C2QC 0.0176 0.019 0.019 0.0012 0.001 -0.001
C2MC 0.019 0.019 0.0176 0.001 -0.001 0.0012
C2G 0.0176 0.019 0.019 -0.0012 -0.001 -0.001
C2BA 0.019 0.0176 0.019 0.001 0.0012 -0.001
C2VB 0.019 0.019 0.0176 0.001 -0.001 0.0012
C2K 0.019 0.0176 0.019 0.001 0.0012 -0.001
C2LB 0.0176 0.019 0.019 -0.0012 -0.001 -0.001
C3KA 0.0213 0.0213 0.0216 -0.0031 0.0031 -0.0014
C3FC 0.0216 0.0213 0.0213 -0.0014 0.0031 -0.0031
C3R 0.0216 0.0213 0.0213 -0.0014 0.0031 -0.0031
C3PB 0.0213 0.0213 0.0216 -0.0031 0.0031 -0.0014
C3QC 0.0213 0.0216 0.0213 -0.0031 0.0014 -0.0031
C3G 0.0213 0.0216 0.0213 0.0031 -0.0014 -0.0031
C3BA 0.0213 0.0213 0.0216 0.0031 -0.0031 -0.0014
C3MC 0.0216 0.0213 0.0213 0.0014 -0.0031 -0.0031
C3K 0.0216 0.0213 0.0213 0.0014 -0.0031 -0.0031
C3LB 0.0213 0.0213 0.0216 0.0031 -0.0031 -0.0014
C3VB 0.0213 0.0216 0.0213 0.0031 -0.0014 -0.0031
loop_
_geom_bond_atom_site_label_1
_geom_bond_atom_site_label_2
_geom_bond_site_symmetry_1
_geom_bond_site_symmetry_2
Cu1 O1 1_555 1_555
O1 C2 1_555 1_555
C1 C2 1_555 1_555
C2 O1DG 1_555 1_555
C3 C1 1_555 1_555
H1 C3 1_555 1_555
Cu1VB Cu1 1_555 1_555
Cu1KA Cu1I 1_555 1_555
Cu1I O1OD 1_555 1_555
Cu1FC Cu1DA 1_555 1_555
Cu1DA O1JE 1_555 1_555
Cu1HB Cu1F 1_555 1_555
Cu1F O1DD 1_555 1_555
Cu1GC Cu1EB 1_555 1_555
Cu1EB O1AF 1_555 1_555
Cu1MA Cu1G 1_555 1_555
Cu1G O1G 1_555 1_555
Cu1HC Cu1BA 1_555 1_555
Cu1BA O1BA 1_555 1_555
Cu1JB Cu1D 1_555 1_555
Cu1D O1K 1_555 1_555
Cu1IC Cu1CB 1_555 1_555
Cu1CB O1LB 1_555 1_555
O1DG Cu1VB 1_555 1_555
O1KA Cu1KA 1_555 1_555
O1OD C2KA 1_555 1_555
O1FC Cu1FC 1_555 1_555
O1JE C2FC 1_555 1_555
O1R Cu1 1_555 1_555
O1LF Cu1VB 1_555 1_555
O1PB Cu1HB 1_555 1_555
O1DD C2PB 1_555 1_555
O1QC Cu1GC 1_555 1_555
O1AF C2QC 1_555 1_555
O1TC Cu1 1_555 1_555
O1MC Cu1VB 1_555 1_555
O1FE Cu1MA 1_555 1_555
O1G C2G 1_555 1_555
O1WF Cu1HC 1_555 1_555
O1BA C2BA 1_555 1_555
O1KD Cu1 1_555 1_555
O1VB Cu1VB 1_555 1_555
O1RE Cu1JB 1_555 1_555
O1K C2K 1_555 1_555
O1SF Cu1IC 1_555 1_555
O1LB C2LB 1_555 1_555
O1UA Cu1KA 1_555 1_555
O1YD Cu1KA 1_555 1_555
O1ZD Cu1KA 1_555 1_555
O1I Cu1I 1_555 1_555
O1J Cu1I 1_555 1_555
O1ED Cu1I 1_555 1_555
O1NC Cu1FC 1_555 1_555
O1RF Cu1FC 1_555 1_555
O1CG Cu1FC 1_555 1_555
O1DA Cu1DA 1_555 1_555
O1OA Cu1DA 1_555 1_555
O1BE Cu1DA 1_555 1_555
C1KA C3 1_555 1_555
C1FC C2FC 1_555 1_555
C1R C2R 1_555 1_555
C1PB C2PB 1_555 1_555
C1QC C2QC 1_555 1_555
C1MC C2MC 1_555 1_555
C1G C2G 1_555 1_555
C1BA C2BA 1_555 1_555
C1VB C2VB 1_555 1_555
C1K C2K 1_555 1_555
C1LB C2LB 1_555 1_555
C2KA O1KA 1_555 1_555
C2FC O1FC 1_555 1_555
C2R O1R 1_555 1_555
C2PB O1PB 1_555 1_555
C2QC O1QC 1_555 1_555
C2MC O1TC 1_555 1_555
C2G O1FE 1_555 1_555
C2BA O1WF 1_555 1_555
C2VB O1KD 1_555 1_555
C2K O1RE 1_555 1_555
C2LB O1SF 1_555 1_555
C3KA C1KA 1_555 1_555
C3FC C1 1_555 1_555
C3R C1R 1_555 1_555
C3PB C1PB 1_555 1_555
C3QC C1R 1_555 1_555
C3G C1MC 1_555 1_555
C3BA C1G 1_555 1_555
C3MC C1MC 1_555 1_555
C3K C1VB 1_555 1_555
C3LB C1K 1_555 1_555
C3VB C1VB 1_555 1_555
H1FC C3FC 1_555 1_555
H1KA C3KA 1_555 1_555
H1R C3R 1_555 1_555
H1QC C3QC 1_555 1_555
H1PB C3PB 1_555 1_555
H1G C3G 1_555 1_555
H1MC C3MC 1_555 1_555
H1BA C3BA 1_555 1_555
H1K C3K 1_555 1_555
H1VB C3VB 1_555 1_555
H1LB C3LB 1_555 1_555
O1LF C2R 1_555 1_555
O1MC C2MC 1_555 1_555
O1VB C2VB 1_555 1_555
C1KA C2KA 1_555 1_555
C1FC C3KA 1_555 1_555
C1FC C3FC 1_555 1_555
C1PB C3R 1_555 1_555
C1QC C3PB 1_555 1_555
C1QC C3QC 1_555 1_555
C1G C3G 1_555 1_555
C1BA C3BA 1_555 1_555
C1BA C3MC 1_555 1_555
C1K C3K 1_555 1_555
C1LB C3LB 1_555 1_555
C1LB C3VB 1_555 1_555

#END
