
#######################################################################
#
#                 Cambridge Crystallographic Data Centre
#                                CCDC 
#
#######################################################################
#
# If this CIF has been generated from an entry in the Cambridge 
# Structural Database, then it will include bibliographic, chemical, 
# crystal, experimental, refinement or atomic coordinate data resulting 
# from the CCDC's data processing and validation procedures.
#
#######################################################################

data_DUJDAP
_chemical_formula_moiety         '(C46 H48 N12 O16 Zn2)n'
_symmetry_cell_setting           monoclinic
_symmetry_space_group_name_H-M   'C 2'
_symmetry_Int_Tables_number      5
_space_group_name_Hall           'C 2y'
loop_
_symmetry_equiv_pos_site_id
_symmetry_equiv_pos_as_xyz
1 x,y,z
2 -x,y,-z
3 1/2+x,1/2+y,z
4 1/2-x,1/2+y,-z
_cell_length_a                   19.7623(13)
_cell_length_b                   21.3747(14)
_cell_length_c                   8.3690(5)
_cell_angle_alpha                90
_cell_angle_beta                 112.171(5)
_cell_angle_gamma                90
_cell_volume                     3273.79
loop_
_atom_site_label
_atom_site_type_symbol
_atom_site_fract_x
_atom_site_fract_y
_atom_site_fract_z
Zn1 Zn 0.25864(4) 1.00753(5) 0.40770(9)
N1 N 0.2443(4) 0.9182(4) 0.3260(9)
N2 N 0.2041(4) 0.8295(3) 0.1920(9)
N3 N -0.1300(5) 0.7732(5) -0.4881(13)
N4 N -0.0181(4) 0.7795(4) -0.2982(9)
N5 N 0.2237(4) 0.5590(3) -0.2277(9)
N6 N 0.1856(4) 0.6324(3) -0.1045(9)
O1 O 0.3449(3) 0.9936(3) 0.6181(8)
O2 O 0.3398(4) 1.0965(4) 0.6352(8)
O3 O 0.1814(3) 1.0292(3) 0.4873(8)
O4 O 0.1054(3) 1.0111(5) 0.2228(8)
C1 C 0.3685(5) 1.0459(5) 0.6908(11)
C2 C 0.4364(5) 1.0448(5) 0.8531(10)
C3 C 0.4675(5) 0.9892(5) 0.9246(11)
H1 H 0.4462 0.9516 0.8748
C4 C 0.4671(5) 1.1009(5) 0.9286(11)
H2 H 0.4439 1.1385 0.8842
C5 C 0.1180(5) 1.0208(5) 0.3791(12)
C6 C 0.0582(5) 1.0245(5) 0.4432(12)
C7 C 0.0710(5) 1.0255(6) 0.6178(12)
H3 H 0.1190 1.0261 0.6970
C8 C -0.0158(5) 1.0255(6) 0.3228(12)
H4 H -0.0261 1.0261 0.2048
C9 C 0.1958(5) 0.8920(4) 0.1919(11)
H5 H 0.1596 0.9139 0.1054
C10 C 0.2617(6) 0.8153(5) 0.3384(12)
H6 H 0.2805 0.7756 0.3750
C11 C 0.2860(6) 0.8681(5) 0.4184(12)
H7 H 0.3256 0.8718 0.5226
C12 C 0.1622(5) 0.7873(4) 0.0634(11)
C13 C 0.0917(5) 0.8034(5) -0.0498(11)
H8 H 0.0711 0.8413 -0.0372
C14 C 0.0531(5) 0.7627(5) -0.1802(11)
C15 C -0.0418(6) 0.8387(5) -0.3524(14)
H9 H -0.0150 0.8750 -0.3110
C16 C -0.1066(6) 0.8368(6) -0.4691(14)
H10 H -0.1334 0.8708 -0.5301
C17 C -0.0738(5) 0.7408(6) -0.3856(12)
H11 H -0.0726 0.6975 -0.3749
C18 C 0.0829(5) 0.7057(4) -0.2000(10)
H12 H 0.0568 0.6784 -0.2883
C19 C 0.1508(5) 0.6910(4) -0.0878(11)
C20 C 0.1875(5) 0.6123(4) -0.2568(11)
H13 H 0.1669 0.6324 -0.3627
C21 C 0.2454(6) 0.5459(5) -0.0552(12)
H14 H 0.2725 0.5112 -0.0002
C22 C 0.2215(6) 0.5910(5) 0.0218(13)
H15 H 0.2282 0.5933 0.1378
C23 C 0.1926(5) 0.7314(4) 0.0483(11)
H16 H 0.2391 0.7202 0.1244
O1A O 0.6551(3) 0.9936(3) 1.3819(8)
O2A O 0.6602(4) 1.0965(4) 1.3648(8)
C1A C 0.6315(5) 1.0459(5) 1.3092(11)
C2A C 0.5636(5) 1.0448(5) 1.1469(10)
C3A C 0.5325(5) 0.9892(5) 1.0754(11)
H1A H 0.5538 0.9516 1.1252
C4A C 0.5329(5) 1.1009(5) 1.0714(11)
H2A H 0.5561 1.1385 1.1158
O3A O -0.1814(3) 1.0292(3) 0.5127(8)
O4A O -0.1054(3) 1.0111(5) 0.7772(8)
C5A C -0.1180(5) 1.0208(5) 0.6209(12)
C6A C -0.0582(5) 1.0245(5) 0.5568(12)
C7A C -0.0710(5) 1.0255(6) 0.3822(12)
H3A H -0.1190 1.0261 0.3030
C8A C 0.0158(5) 1.0255(6) 0.6772(12)
H4A H 0.0261 1.0261 0.7952
Zn1A Zn -0.25864(4) 1.00753(5) 0.59230(9)
N1A N -0.2443(4) 0.9182(4) 0.6740(9)
N2A N -0.2041(4) 0.8295(3) 0.8080(9)
N3A N 0.1300(5) 0.7732(5) 1.4881(13)
N4A N 0.0181(4) 0.7795(4) 1.2982(9)
N5A N -0.2237(4) 0.5590(3) 1.2277(9)
N6A N -0.1856(4) 0.6324(3) 1.1045(9)
C9A C -0.1958(5) 0.8920(4) 0.8081(11)
H5A H -0.1596 0.9139 0.8946
C10A C -0.2617(6) 0.8153(5) 0.6616(12)
H6A H -0.2805 0.7756 0.6250
C11A C -0.2860(6) 0.8681(5) 0.5816(12)
H7A H -0.3256 0.8718 0.4774
C12A C -0.1622(5) 0.7873(4) 0.9366(11)
C13A C -0.0917(5) 0.8034(5) 1.0498(11)
H8A H -0.0711 0.8413 1.0372
C14A C -0.0531(5) 0.7627(5) 1.1802(11)
C15A C 0.0418(6) 0.8387(5) 1.3524(14)
H9A H 0.0150 0.8750 1.3110
C16A C 0.1066(6) 0.8368(6) 1.4691(14)
H10A H 0.1334 0.8708 1.5301
C17A C 0.0738(5) 0.7408(6) 1.3856(12)
H11A H 0.0726 0.6975 1.3749
C18A C -0.0829(5) 0.7057(4) 1.2000(10)
H12A H -0.0568 0.6784 1.2883
C19A C -0.1508(5) 0.6910(4) 1.0878(11)
C20A C -0.1875(5) 0.6123(4) 1.2568(11)
H13A H -0.1669 0.6324 1.3627
C21A C -0.2454(6) 0.5459(5) 1.0552(12)
H14A H -0.2725 0.5112 1.0002
C22A C -0.2215(6) 0.5910(5) 0.9782(13)
H15A H -0.2282 0.5933 0.8622
C23A C -0.1926(5) 0.7314(4) 0.9517(11)
H16A H -0.2391 0.7202 0.8756
Zn1A_2 Zn 0.74136(4) 1.00753(5) 1.59230(9)
Zn1B Zn -0.24136(4) 0.50753(5) 1.40770(9)
Zn1C Zn 0.24136(4) 0.50753(5) -0.40770(9)
N5B N -0.2763(4) 1.0590(3) 0.7723(9)
N5C N 0.2763(4) 1.0590(3) 0.2277(9)
O1A_2 O -0.3449(3) 0.9936(3) 0.3819(8)
O5 O 0.0000 0.9307(5) 0.0000
H17 H -0.0328 0.9540 -0.0696
H17A H 0.0328 0.9540 0.0696
O6 O 0.2831(18) 0.7412(15) 0.747(4)
H18 H 0.2958 0.7269 0.6672
H19 H 0.2381 0.7510 0.7067
O7 O 0.2978(7) 0.6686(6) 0.4567(16)
H20 H 0.3041 0.6298 0.4802
H21 H 0.2590 0.6743 0.3681
O8 O 0.7844(15) 0.9164(10) 0.220(3)
H22 H 0.7855 0.9431 0.2959
H23 H 0.7453 0.8951 0.1928
O9 O 0.343(3) 0.837(2) 0.906(6)
H24 H 0.3270 0.8030 0.8525
H25 H 0.3759 0.8280 1.0042
O10 O 0.464(7) 0.785(6) 0.681(17)
H26 H 0.4565 0.7660 0.7614
H27 H 0.4276 0.8081 0.6239
O11 O -0.0000 0.5967(7) 0.5000
O12 O -0.0000 0.4881(9) 0.5000
loop_
_geom_bond_atom_site_label_1
_geom_bond_atom_site_label_2
_geom_bond_site_symmetry_1
_geom_bond_site_symmetry_2
Zn1 N1 1_555 1_555
N1 C9 1_555 1_555
N2 C9 1_555 1_555
N3 C16 1_555 1_555
N4 C14 1_555 1_555
N5 C20 1_555 1_555
N6 C19 1_555 1_555
O1 Zn1 1_555 1_555
O2 C1 1_555 1_555
O3 Zn1 1_555 1_555
O4 C5 1_555 1_555
C1 O1 1_555 1_555
C2 C1 1_555 1_555
C3 C2 1_555 1_555
H1 C3 1_555 1_555
C4 C2 1_555 1_555
H2 C4 1_555 1_555
C5 O3 1_555 1_555
C6 C5 1_555 1_555
C7 C6 1_555 1_555
H3 C7 1_555 1_555
C8 C6 1_555 1_555
H4 C8 1_555 1_555
C9 H5 1_555 1_555
C10 N2 1_555 1_555
H6 C10 1_555 1_555
C11 N1 1_555 1_555
H7 C11 1_555 1_555
C12 N2 1_555 1_555
C13 C12 1_555 1_555
H8 C13 1_555 1_555
C14 C13 1_555 1_555
C15 N4 1_555 1_555
H9 C15 1_555 1_555
C16 C15 1_555 1_555
H10 C16 1_555 1_555
C17 N3 1_555 1_555
H11 C17 1_555 1_555
C18 C14 1_555 1_555
H12 C18 1_555 1_555
C19 C18 1_555 1_555
C20 N6 1_555 1_555
H13 C20 1_555 1_555
C21 N5 1_555 1_555
H14 C21 1_555 1_555
C22 N6 1_555 1_555
H15 C22 1_555 1_555
C23 C12 1_555 1_555
H16 C23 1_555 1_555
O5 H17 1_555 1_555
O6 H18 1_555 1_555
H19 O6 1_555 1_555
O7 H20 1_555 1_555
H21 O7 1_555 1_555
O8 H22 1_555 1_555
H23 O8 1_555 1_555
O9 H24 1_555 1_555
H25 O9 1_555 1_555
O10 H26 1_555 1_555
H27 O10 1_555 1_555
O1A C1A 1_555 1_555
O2A C1A 1_555 1_555
C1A C2A 1_555 1_555
C2A C3A 1_555 1_555
C3A C3 1_555 1_555
H1A C3A 1_555 1_555
C4A C4 1_555 1_555
H2A C4A 1_555 1_555
O3A C5A 1_555 1_555
O4A C5A 1_555 1_555
C5A C6A 1_555 1_555
C6A C7A 1_555 1_555
C7A C8 1_555 1_555
H3A C7A 1_555 1_555
C8A C7 1_555 1_555
H4A C8A 1_555 1_555
Zn1A O3A 1_555 1_555
N1A Zn1A 1_555 1_555
N2A C9A 1_555 1_555
N3A C16A 1_555 1_555
N4A C14A 1_555 1_555
N5A C20A 1_555 1_555
N6A C19A 1_555 1_555
C9A N1A 1_555 1_555
H5A C9A 1_555 1_555
C10A N2A 1_555 1_555
H6A C10A 1_555 1_555
C11A N1A 1_555 1_555
H7A C11A 1_555 1_555
C12A N2A 1_555 1_555
C13A C12A 1_555 1_555
H8A C13A 1_555 1_555
C14A C13A 1_555 1_555
C15A N4A 1_555 1_555
H9A C15A 1_555 1_555
C16A C15A 1_555 1_555
H10A C16A 1_555 1_555
C17A N3A 1_555 1_555
H11A C17A 1_555 1_555
C18A C14A 1_555 1_555
H12A C18A 1_555 1_555
C19A C18A 1_555 1_555
C20A N6A 1_555 1_555
H13A C20A 1_555 1_555
C21A N5A 1_555 1_555
H14A C21A 1_555 1_555
C22A N6A 1_555 1_555
H15A C22A 1_555 1_555
C23A C12A 1_555 1_555
H16A C23A 1_555 1_555
Zn1A_2 O1A 1_555 1_555
Zn1B N5A 1_555 1_555
Zn1C N5 1_555 1_555
N5B Zn1A 1_555 1_555
N5C Zn1 1_555 1_555
O1A_2 Zn1A 1_555 1_555
H17A O5 1_555 1_555
N4 C17 1_555 1_555
C10 C11 1_555 1_555
C19 C23 1_555 1_555
C21 C22 1_555 1_555
C2A C4A 1_555 1_555
C6A C8A 1_555 1_555
N4A C17A 1_555 1_555
C10A C11A 1_555 1_555
C19A C23A 1_555 1_555
C21A C22A 1_555 1_555

#END
