
#######################################################################
#
#                 Cambridge Crystallographic Data Centre
#                                CCDC 
#
#######################################################################
#
# If this CIF has been generated from an entry in the Cambridge 
# Structural Database, then it will include bibliographic, chemical, 
# crystal, experimental, refinement or atomic coordinate data resulting 
# from the CCDC's data processing and validation procedures.
#
#######################################################################

data_DALSUH
_chemical_formula_moiety         '(C15 H12 Dy1 N1 O11)n'
_symmetry_cell_setting           orthorhombic
_symmetry_space_group_name_H-M   'P b c n'
_symmetry_Int_Tables_number      60
_space_group_name_Hall           '-P 2n 2ab'
loop_
_symmetry_equiv_pos_site_id
_symmetry_equiv_pos_as_xyz
1 x,y,z
2 1/2-x,1/2-y,1/2+z
3 -x,y,1/2-z
4 1/2+x,1/2-y,-z
5 -x,-y,-z
6 1/2+x,1/2+y,1/2-z
7 x,-y,1/2+z
8 1/2-x,1/2+y,z
_cell_length_a                   12.7243(14)
_cell_length_b                   13.2940(15)
_cell_length_c                   28.598(3)
_cell_angle_alpha                90
_cell_angle_beta                 90
_cell_angle_gamma                90
_cell_volume                     4837.55
loop_
_atom_site_label
_atom_site_type_symbol
_atom_site_fract_x
_atom_site_fract_y
_atom_site_fract_z
_atom_site_U_iso_or_equiv
_atom_site_thermal_displace_type
Dy1 Dy 0.08939(3) 0.54299(3) 0.92996(2) 0.0179 Uani
O1 O 0.0924(7) 0.4389(6) 0.8661(2) 0.0397 Uani
O2 O 0.2726(7) 0.5285(8) 0.9116(3) 0.0533 Uani
H1 H 0.2976 0.4635 0.9145 0.0800 Uiso
H2 H 0.3149 0.5673 0.9307 0.0800 Uiso
O3 O 0.1652(7) 0.2902(6) 0.8807(3) 0.0430 Uani
O4 O 0.1575(6) 0.3919(5) 0.9662(2) 0.0340 Uani
H3 H 0.2198 0.4028 0.9781 0.0510 Uiso
H4 H 0.1629 0.3434 0.9456 0.0510 Uiso
O5 O 0.0400(9) 0.1468(9) 0.8283(4) 0.0740 Uani
O6 O 0.1455(8) 0.6994(9) 0.8965(5) 0.0837 Uani
H5 H 0.1317 0.7023 0.8658 0.1250 Uiso
H6 H 0.2149 0.7075 0.8998 0.1250 Uiso
O7 O 0.1868(11) 0.0866(8) 0.8076(4) 0.0853 Uani
O8 O 0.4477(6) 0.1034(5) 0.6190(2) 0.0280 Uani
O9 O 0.4522(5) 0.1614(5) 0.5470(2) 0.0227 Uani
O10 O 0.1656(6) 0.3890(6) 0.4950(2) 0.0363 Uani
O11 O 0.0512(7) 0.4478(6) 0.5455(3) 0.0463 Uani
N1 N 0.1237(9) 0.1534(7) 0.8088(3) 0.0387 Uani
C1 C 0.1298(9) 0.3563(8) 0.8541(3) 0.0303 Uani
C2 C 0.1341(8) 0.3381(7) 0.8026(3) 0.0230 Uani
C3 C 0.1435(8) 0.2455(8) 0.7813(3) 0.0260 Uani
C4 C 0.1659(8) 0.2313(7) 0.7346(3) 0.0273 Uani
H7 H 0.1735 0.1666 0.7228 0.0330 Uiso
C5 C 0.1771(8) 0.3135(8) 0.7053(3) 0.0267 Uani
C6 C 0.1622(9) 0.4092(8) 0.7252(4) 0.0333 Uani
H8 H 0.1649 0.4659 0.7063 0.0400 Uiso
C7 C 0.1437(9) 0.4202(8) 0.7725(4) 0.0330 Uani
H9 H 0.1375 0.4848 0.7847 0.0400 Uiso
C8 C 0.2057(8) 0.2999(8) 0.6557(3) 0.0267 Uani
C9 C 0.2867(8) 0.2345(8) 0.6445(3) 0.0270 Uani
H10 H 0.3198 0.1975 0.6678 0.0320 Uiso
C10 C 0.3185(7) 0.2244(8) 0.5979(3) 0.0223 Uani
C11 C 0.2682(8) 0.2789(8) 0.5632(3) 0.0263 Uani
H11 H 0.2895 0.2725 0.5322 0.0310 Uiso
C12 C 0.1864(8) 0.3428(7) 0.5746(3) 0.0243 Uani
C13 C 0.1560(8) 0.3545(8) 0.6210(3) 0.0280 Uani
H12 H 0.1022 0.3989 0.6287 0.0330 Uiso
C14 C 0.4104(7) 0.1597(7) 0.5871(3) 0.0203 Uani
C15 C 0.1309(8) 0.3970(7) 0.5356(3) 0.0227 Uani
Dy1B Dy -0.08939(3) 0.54299(3) 0.57004(2) 0.0179 Uani
Dy1E Dy 0.58939(3) 0.04299(3) 0.57004(2) 0.0179 Uani
Dy1F Dy 0.08939(3) 0.45701(3) 0.42996(2) 0.0179 Uani
O8E O -0.0523(6) 0.6034(5) 0.8810(2) 0.0280 Uani
O9E O -0.0478(5) 0.6614(5) 0.9530(2) 0.0227 Uani
O10F O 0.1656(6) 0.6110(6) 0.9950(2) 0.0363 Uani
O11B O -0.0512(7) 0.4478(6) 0.9545(3) 0.0463 Uani
loop_
_atom_site_aniso_label
_atom_site_aniso_U_11
_atom_site_aniso_U_22
_atom_site_aniso_U_33
_atom_site_aniso_U_23
_atom_site_aniso_U_13
_atom_site_aniso_U_12
Dy1 0.0206(2) 0.0210(2) 0.0120(2) -0.00252(16) -0.00076(15) 0.00401(17)
O1 0.068(6) 0.035(4) 0.016(3) -0.008(3) -0.003(3) 0.026(4)
O2 0.040(5) 0.078(7) 0.042(5) 0.021(5) 0.008(4) 0.025(5)
O3 0.070(6) 0.039(4) 0.020(4) -0.002(3) -0.007(4) 0.025(4)
O4 0.050(5) 0.028(4) 0.024(4) -0.001(3) -0.004(3) 0.012(4)
O5 0.072(7) 0.086(8) 0.064(7) 0.027(6) 0.004(6) -0.023(6)
O6 0.039(5) 0.092(8) 0.120(9) 0.080(7) 0.006(6) 0.002(5)
O7 0.133(10) 0.053(6) 0.070(7) 0.023(5) 0.039(7) 0.039(7)
O8 0.031(4) 0.038(4) 0.015(3) 0.006(3) -0.001(3) 0.012(3)
O9 0.014(3) 0.038(4) 0.016(3) 0.007(3) -0.001(2) 0.004(3)
O10 0.041(4) 0.050(5) 0.018(3) 0.013(3) -0.010(3) 0.004(4)
O11 0.055(5) 0.035(4) 0.049(5) -0.008(4) -0.024(4) 0.015(4)
N1 0.059(7) 0.032(5) 0.025(4) 0.002(4) 0.005(5) 0.003(5)
C1 0.037(6) 0.037(6) 0.017(5) -0.006(4) 0.002(4) 0.012(5)
C2 0.023(5) 0.029(5) 0.017(4) -0.002(4) 0.000(4) 0.009(4)
C3 0.035(6) 0.029(5) 0.014(4) 0.000(4) 0.001(4) 0.008(4)
C4 0.039(6) 0.024(5) 0.019(5) -0.006(4) -0.003(4) 0.010(4)
C5 0.028(5) 0.032(5) 0.020(5) -0.003(4) 0.001(4) 0.008(4)
C6 0.049(7) 0.029(5) 0.022(5) 0.005(4) 0.000(5) 0.008(5)
C7 0.046(7) 0.029(5) 0.024(5) -0.004(4) -0.003(5) 0.007(5)
C8 0.035(5) 0.027(5) 0.018(5) 0.000(4) -0.002(4) 0.007(4)
C9 0.037(6) 0.033(5) 0.011(4) 0.003(4) 0.001(4) 0.011(5)
C10 0.023(5) 0.034(5) 0.010(4) 0.002(4) 0.005(4) 0.003(4)
C11 0.029(5) 0.039(6) 0.011(4) 0.000(4) 0.001(4) 0.000(5)
C12 0.034(5) 0.026(5) 0.013(4) 0.003(4) -0.004(4) 0.006(4)
C13 0.033(6) 0.029(5) 0.022(5) -0.001(4) 0.004(4) 0.009(4)
C14 0.021(5) 0.022(4) 0.018(4) -0.002(4) -0.006(4) 0.007(4)
C15 0.027(5) 0.019(4) 0.022(5) 0.003(4) -0.006(4) 0.000(4)
Dy1B 0.0206 0.021 0.012 0.00252 -0.00076 -0.00401
Dy1E 0.0206 0.021 0.012 0.00252 0.00076 0.00401
Dy1F 0.0206 0.021 0.012 0.00252 -0.00076 -0.00401
O8E 0.031 0.038 0.015 -0.006 0.001 0.012
O9E 0.014 0.038 0.016 -0.007 0.001 0.004
O10F 0.041 0.05 0.018 -0.013 -0.01 -0.004
O11B 0.055 0.035 0.049 0.008 -0.024 -0.015
loop_
_geom_bond_atom_site_label_1
_geom_bond_atom_site_label_2
_geom_bond_site_symmetry_1
_geom_bond_site_symmetry_2
Dy1 O1 1_555 1_555
O1 C1 1_555 1_555
O2 Dy1 1_555 1_555
H1 O2 1_555 1_555
H2 O2 1_555 1_555
O3 C1 1_555 1_555
O4 Dy1 1_555 1_555
H3 O4 1_555 1_555
H4 O4 1_555 1_555
O5 N1 1_555 1_555
O6 Dy1 1_555 1_555
H5 O6 1_555 1_555
H6 O6 1_555 1_555
O7 N1 1_555 1_555
O8 C14 1_555 1_555
O9 C14 1_555 1_555
O10 C15 1_555 1_555
O11 C15 1_555 1_555
N1 C3 1_555 1_555
C1 C2 1_555 1_555
C2 C3 1_555 1_555
C3 C4 1_555 1_555
C4 H7 1_555 1_555
C5 C4 1_555 1_555
C6 C5 1_555 1_555
H8 C6 1_555 1_555
C7 C2 1_555 1_555
H9 C7 1_555 1_555
C8 C5 1_555 1_555
C9 C8 1_555 1_555
H10 C9 1_555 1_555
C10 C9 1_555 1_555
C11 C10 1_555 1_555
H11 C11 1_555 1_555
C12 C11 1_555 1_555
C13 C8 1_555 1_555
H12 C13 1_555 1_555
C14 C10 1_555 1_555
C15 C12 1_555 1_555
Dy1B O11 1_555 1_555
Dy1E O8 1_555 1_555
Dy1F O10 1_555 1_555
O8E Dy1 1_555 1_555
O9E Dy1 1_555 1_555
O10F Dy1 1_555 1_555
O11B Dy1 1_555 1_555
O9 Dy1E 1_555 1_555
C6 C7 1_555 1_555
C12 C13 1_555 1_555

#END
