
#######################################################################
#
#                 Cambridge Crystallographic Data Centre
#                                CCDC 
#
#######################################################################
#
# If this CIF has been generated from an entry in the Cambridge 
# Structural Database, then it will include bibliographic, chemical, 
# crystal, experimental, refinement or atomic coordinate data resulting 
# from the CCDC's data processing and validation procedures.
#
#######################################################################

data_DALTAO
_chemical_formula_moiety         '(C15 H12 Eu1 N1 O11)n'
_symmetry_cell_setting           orthorhombic
_symmetry_space_group_name_H-M   'P b c n'
_symmetry_Int_Tables_number      60
_space_group_name_Hall           '-P 2n 2ab'
loop_
_symmetry_equiv_pos_site_id
_symmetry_equiv_pos_as_xyz
1 x,y,z
2 1/2-x,1/2-y,1/2+z
3 1/2+x,1/2-y,-z
4 -x,y,1/2-z
5 -x,-y,-z
6 1/2+x,1/2+y,1/2-z
7 1/2-x,1/2+y,z
8 x,-y,1/2+z
_cell_length_a                   12.780(2)
_cell_length_b                   13.358(3)
_cell_length_c                   28.668(5)
_cell_angle_alpha                90
_cell_angle_beta                 90
_cell_angle_gamma                90
_cell_volume                     4894.06
loop_
_atom_site_label
_atom_site_type_symbol
_atom_site_fract_x
_atom_site_fract_y
_atom_site_fract_z
_atom_site_U_iso_or_equiv
_atom_site_thermal_displace_type
Eu1 Eu 0.58915(3) 0.45801(3) 0.93004(2) 0.0195 Uani
O1 O 0.5905(6) 0.5629(5) 0.8660(2) 0.0523 Uani
O2 O 0.7725(5) 0.4733(7) 0.9112(3) 0.0623 Uani
H1 H 0.8142 0.4270 0.9272 0.0930 Uiso
H2 H 0.8007 0.5358 0.9186 0.0930 Uiso
O3 O 0.6642(6) 0.7115(5) 0.8809(2) 0.0507 Uani
O4 O 0.6463(7) 0.3036(8) 0.8959(4) 0.0927 Uani
H3 H 0.6181 0.2923 0.8665 0.1390 Uiso
H4 H 0.6278 0.2482 0.9136 0.1390 Uiso
O5 O 0.5396(8) 0.8536(7) 0.8290(3) 0.0840 Uani
O6 O 0.6582(5) 0.6102(5) 0.9657(2) 0.0390 Uani
H5 H 0.7014 0.5953 0.9885 0.0580 Uiso
H6 H 0.6073 0.6466 0.9773 0.0580 Uiso
O7 O 0.6866(9) 0.9141(7) 0.8072(3) 0.0970 Uani
O8 O 0.9469(5) 0.8965(5) 0.61908(19) 0.0347 Uani
O9 O 0.9514(4) 0.8385(4) 0.54712(17) 0.0277 Uani
O10 O 0.6668(5) 0.6115(6) 0.4952(2) 0.0470 Uani
O11 O 0.5527(6) 0.5531(5) 0.5445(2) 0.0517 Uani
N1 N 0.6226(8) 0.8471(6) 0.8083(3) 0.0490 Uani
C1 C 0.6300(8) 0.6447(7) 0.8544(3) 0.0383 Uani
C2 C 0.6346(7) 0.6634(7) 0.8023(3) 0.0303 Uani
C3 C 0.6431(7) 0.7559(7) 0.7814(3) 0.0333 Uani
C4 C 0.6658(7) 0.7701(6) 0.7347(3) 0.0317 Uani
H7 H 0.6740 0.8345 0.7228 0.0380 Uiso
C5 C 0.6763(7) 0.6869(7) 0.7055(3) 0.0313 Uani
C6 C 0.6628(8) 0.5924(7) 0.7250(3) 0.0403 Uani
H8 H 0.6676 0.5361 0.7060 0.0490 Uiso
C7 C 0.6421(8) 0.5805(7) 0.7725(3) 0.0387 Uani
H9 H 0.6330 0.5165 0.7846 0.0460 Uiso
C8 C 0.7051(7) 0.7003(6) 0.6558(3) 0.0293 Uani
C9 C 0.7856(7) 0.7654(7) 0.6439(3) 0.0323 Uani
H10 H 0.8177 0.8031 0.6672 0.0390 Uiso
C10 C 0.8195(6) 0.7754(6) 0.5980(3) 0.0263 Uani
C11 C 0.7683(6) 0.7210(6) 0.5634(3) 0.0293 Uani
H11 H 0.7896 0.7277 0.5326 0.0350 Uiso
C12 C 0.6871(7) 0.6578(6) 0.5739(3) 0.0300 Uani
C13 C 0.6557(7) 0.6466(7) 0.6210(3) 0.0330 Uani
H12 H 0.6016 0.6029 0.6285 0.0400 Uiso
C14 C 0.9106(6) 0.8407(6) 0.5874(3) 0.0263 Uani
C15 C 0.6314(7) 0.6035(6) 0.5354(3) 0.0277 Uani
Eu1C Eu 0.41085(3) 0.45801(3) 0.56996(2) 0.0195 Uani
Eu1E Eu 1.08915(3) 0.95801(3) 0.56996(2) 0.0195 Uani
Eu1G Eu 0.58915(3) 0.54199(3) 0.43004(2) 0.0195 Uani
O8E O 0.4469(5) 0.3965(5) 0.88092(19) 0.0347 Uani
O9E O 0.4514(4) 0.3385(4) 0.95288(17) 0.0277 Uani
O10G O 0.6668(5) 0.3885(6) 0.9952(2) 0.0470 Uani
O11C O 0.4473(6) 0.5531(5) 0.9555(2) 0.0517 Uani
loop_
_atom_site_aniso_label
_atom_site_aniso_U_11
_atom_site_aniso_U_22
_atom_site_aniso_U_33
_atom_site_aniso_U_23
_atom_site_aniso_U_13
_atom_site_aniso_U_12
Eu1 0.0220(2) 0.0228(2) 0.0138(2) 0.00279(14) -0.00130(14) -0.00461(16)
O1 0.085(5) 0.047(4) 0.025(3) 0.017(3) -0.006(3) -0.030(4)
O2 0.043(4) 0.093(6) 0.051(4) -0.026(4) 0.015(3) -0.029(4)
O3 0.078(5) 0.051(4) 0.023(3) 0.001(3) -0.012(3) -0.031(4)
O4 0.070(5) 0.090(6) 0.118(6) -0.063(5) 0.007(5) -0.002(5)
O5 0.083(7) 0.095(7) 0.074(6) -0.028(5) 0.010(5) 0.025(6)
O6 0.048(4) 0.039(3) 0.030(3) -0.005(3) -0.002(3) -0.011(3)
O7 0.134(7) 0.071(5) 0.086(6) -0.022(5) 0.034(5) -0.037(5)
O8 0.038(3) 0.044(4) 0.022(3) -0.006(3) 0.000(3) -0.014(3)
O9 0.020(3) 0.044(3) 0.019(3) -0.008(2) -0.001(2) -0.010(2)
O10 0.045(4) 0.069(5) 0.027(3) -0.015(3) -0.009(3) -0.008(4)
O11 0.058(4) 0.045(4) 0.052(4) 0.008(3) -0.028(4) -0.022(4)
N1 0.072(6) 0.045(5) 0.030(4) -0.002(4) 0.003(4) -0.012(5)
C1 0.053(6) 0.041(5) 0.021(4) 0.006(4) 0.000(4) -0.015(5)
C2 0.033(4) 0.038(5) 0.020(4) 0.003(3) -0.004(3) -0.011(4)
C3 0.043(5) 0.034(5) 0.023(4) -0.003(3) -0.003(4) -0.008(4)
C4 0.041(5) 0.034(5) 0.020(4) 0.004(3) 0.000(4) -0.009(4)
C5 0.030(4) 0.041(5) 0.023(4) 0.001(4) -0.001(3) -0.009(4)
C6 0.055(6) 0.031(5) 0.035(5) -0.004(4) 0.006(4) -0.012(4)
C7 0.052(6) 0.039(5) 0.025(4) 0.007(4) -0.006(4) -0.009(4)
C8 0.033(4) 0.034(5) 0.021(4) -0.002(3) 0.004(3) -0.005(4)
C9 0.041(5) 0.038(5) 0.018(4) -0.004(3) -0.001(3) -0.010(4)
C10 0.018(4) 0.041(5) 0.020(4) -0.003(3) 0.002(3) -0.007(3)
C11 0.031(4) 0.040(5) 0.017(4) -0.001(3) 0.002(3) -0.003(4)
C12 0.038(5) 0.032(4) 0.020(4) -0.001(3) -0.002(4) -0.005(4)
C13 0.034(5) 0.040(5) 0.025(4) 0.002(4) 0.005(4) -0.012(4)
C14 0.028(4) 0.030(4) 0.021(4) 0.001(3) -0.004(3) -0.001(4)
C15 0.030(4) 0.025(4) 0.028(4) -0.004(3) -0.011(3) 0.000(4)
Eu1C 0.022 0.0228 0.0138 -0.00279 -0.0013 0.00461
Eu1E 0.022 0.0228 0.0138 -0.00279 0.0013 -0.00461
Eu1G 0.022 0.0228 0.0138 -0.00279 -0.0013 0.00461
O8E 0.038 0.044 0.022 0.006 0 -0.014
O9E 0.02 0.044 0.019 0.008 0.001 -0.01
O10G 0.045 0.069 0.027 0.015 -0.009 0.008
O11C 0.058 0.045 0.052 -0.008 -0.028 0.022
loop_
_geom_bond_atom_site_label_1
_geom_bond_atom_site_label_2
_geom_bond_site_symmetry_1
_geom_bond_site_symmetry_2
Eu1 O1 1_555 1_555
O1 C1 1_555 1_555
O2 Eu1 1_555 1_555
H1 O2 1_555 1_555
H2 O2 1_555 1_555
O3 C1 1_555 1_555
O4 Eu1 1_555 1_555
H3 O4 1_555 1_555
H4 O4 1_555 1_555
O5 N1 1_555 1_555
O6 Eu1 1_555 1_555
H5 O6 1_555 1_555
H6 O6 1_555 1_555
O7 N1 1_555 1_555
O8 C14 1_555 1_555
O9 C14 1_555 1_555
O10 C15 1_555 1_555
O11 C15 1_555 1_555
N1 C3 1_555 1_555
C1 C2 1_555 1_555
C2 C3 1_555 1_555
C3 C4 1_555 1_555
C4 H7 1_555 1_555
C5 C4 1_555 1_555
C6 C5 1_555 1_555
H8 C6 1_555 1_555
C7 C2 1_555 1_555
H9 C7 1_555 1_555
C8 C5 1_555 1_555
C9 C8 1_555 1_555
H10 C9 1_555 1_555
C10 C9 1_555 1_555
C11 C10 1_555 1_555
H11 C11 1_555 1_555
C12 C11 1_555 1_555
C13 C8 1_555 1_555
H12 C13 1_555 1_555
C14 C10 1_555 1_555
C15 C12 1_555 1_555
Eu1C O11 1_555 1_555
Eu1E O8 1_555 1_555
Eu1G O10 1_555 1_555
O8E Eu1 1_555 1_555
O9E Eu1 1_555 1_555
O10G Eu1 1_555 1_555
O11C Eu1 1_555 1_555
O9 Eu1E 1_555 1_555
C6 C7 1_555 1_555
C12 C13 1_555 1_555

#END
