
#######################################################################
#
#                 Cambridge Crystallographic Data Centre
#                                CCDC 
#
#######################################################################
#
# If this CIF has been generated from an entry in the Cambridge 
# Structural Database, then it will include bibliographic, chemical, 
# crystal, experimental, refinement or atomic coordinate data resulting 
# from the CCDC's data processing and validation procedures.
#
#######################################################################

data_DACSAE
_chemical_formula_moiety         'C38 H14 Cu8 N8 O20'
_symmetry_cell_setting           rhombohedral
_symmetry_space_group_name_H-M   'R -3 m'
_symmetry_Int_Tables_number      166
_space_group_name_Hall           '-R 3 2"'
loop_
_symmetry_equiv_pos_site_id
_symmetry_equiv_pos_as_xyz
1 x,y,z
2 -y,x-y,z
3 -x+y,-x,z
4 y,x,-z
5 x-y,-y,-z
6 -x,-x+y,-z
7 2/3+x,1/3+y,1/3+z
8 2/3-y,1/3+x-y,1/3+z
9 2/3-x+y,1/3-x,1/3+z
10 2/3+y,1/3+x,1/3-z
11 2/3+x-y,1/3-y,1/3-z
12 2/3-x,1/3-x+y,1/3-z
13 1/3+x,2/3+y,2/3+z
14 1/3-y,2/3+x-y,2/3+z
15 1/3-x+y,2/3-x,2/3+z
16 1/3+y,2/3+x,2/3-z
17 1/3+x-y,2/3-y,2/3-z
18 1/3-x,2/3-x+y,2/3-z
19 -x,-y,-z
20 y,-x+y,-z
21 x-y,x,-z
22 -y,-x,z
23 -x+y,y,z
24 x,x-y,z
25 1/3-x,2/3-y,2/3-z
26 1/3+y,2/3-x+y,2/3-z
27 1/3+x-y,2/3+x,2/3-z
28 1/3-y,2/3-x,2/3+z
29 1/3-x+y,2/3+y,2/3+z
30 1/3+x,2/3+x-y,2/3+z
31 2/3-x,1/3-y,1/3-z
32 2/3+y,1/3-x+y,1/3-z
33 2/3+x-y,1/3+x,1/3-z
34 2/3-y,1/3-x,1/3+z
35 2/3-x+y,1/3+y,1/3+z
36 2/3+x,1/3+x-y,1/3+z
_cell_length_a                   18.7632(7)
_cell_length_b                   18.76320(10)
_cell_length_c                   38.6558(13)
_cell_angle_alpha                90
_cell_angle_beta                 90
_cell_angle_gamma                120
_cell_volume                     11785.8
loop_
_atom_site_label
_atom_site_type_symbol
_atom_site_fract_x
_atom_site_fract_y
_atom_site_fract_z
C1 C 0.76026(11) -0.02725(13) 0.30731(5)
C2 C 0.81953(12) 0.05255(13) 0.29030(5)
C3 C 0.89075(10) 0.10925(10) 0.30699(7)
H1 H 0.9006 0.0994 0.3296
C4 C 0.80462(13) 0.06776(14) 0.25642(6)
H2 H 0.7564 0.0301 0.2453
C5 C 0.86127(12) 0.13873(12) 0.23932(9)
O1 O 0.77761(9) -0.03865(9) 0.33751(4)
O2 O 0.69929(9) -0.07712(9) 0.29001(4)
O3 O 0.7768(2) -0.11162(12) 0.41015(8)
Cu1 Cu 0.712770(17) -0.143615(9) 0.361661(7)
C6 C 0.8492(4) 0.1508(4) 0.2033(3)
C7 C 0.9152(4) 0.1836(4) 0.1805(3)
C8 C 0.9022(7) 0.1930(8) 0.1458(3)
C9 C 0.8232(9) 0.1745(10) 0.1339(4)
C10 C 0.7572(6) 0.1339(8) 0.1568(3)
H3 H 0.7018 0.1041 0.1481
C11 C 0.7702(4) 0.1245(4) 0.1915(3)
H4 H 0.7251 0.1011 0.2076
O4 O 1.0330(5) 0.2435(8) 0.1495(2)
N1 N 0.9721(6) 0.2359(10) 0.1255(3)
N2 N 0.9990(7) 0.2174(9) 0.1816(3)
C1I C 0.63942(13) 0.09359(11) 0.02602(5)
C2I C 0.71922(13) 0.15286(12) 0.04303(5)
C3I C 0.77592(10) 0.22408(10) 0.02634(7)
H1I H 0.7661 0.2339 0.0037
C4I C 0.73443(14) 0.13795(13) 0.07691(6)
H2I H 0.6968 0.0897 0.0880
C5I C 0.80540(12) 0.19460(12) 0.09401(9)
O1I O 0.62802(9) 0.11094(9) -0.00418(4)
O2I O 0.58955(9) 0.03262(9) 0.04332(4)
C6I C 0.8175(4) 0.1825(4) 0.1300(3)
C7I C 0.8503(4) 0.2485(4) 0.1528(3)
C8I C 0.8597(8) 0.2355(7) 0.1875(3)
C9I C 0.8412(10) 0.1565(9) 0.1994(4)
C10I C 0.8006(8) 0.0905(6) 0.1765(3)
H3I H 0.7708 0.0351 0.1852
C11I C 0.7912(4) 0.1035(4) 0.1418(3)
H4I H 0.7678 0.0584 0.1257
O4I O 0.9102(8) 0.3663(5) 0.1838(2)
N1I N 0.9026(10) 0.3054(6) 0.2078(3)
N2I N 0.8841(9) 0.3323(7) 0.1517(3)
C1U C 1.02725(13) 0.23974(11) 0.30731(5)
C2U C 0.94745(13) 0.18047(12) 0.29030(5)
C4U C 0.93224(14) 0.19538(13) 0.25642(6)
H2U H 0.9699 0.2436 0.2453
O1U O 1.03865(9) 0.22239(9) 0.33751(4)
O2U O 1.07712(9) 0.30071(9) 0.29001(4)
C7U C 0.8164(4) 0.0848(4) 0.1805(3)
C8U C 0.8070(8) 0.0978(7) 0.1458(3)
C9U C 0.8255(10) 0.1768(9) 0.1339(4)
C10U C 0.8661(8) 0.2428(6) 0.1568(3)
H3U H 0.8959 0.2982 0.1481
C11U C 0.8755(4) 0.2298(4) 0.1915(3)
H4U H 0.8989 0.2749 0.2076
O4U O 0.7565(8) -0.0330(5) 0.1495(2)
N1U N 0.7641(10) 0.0279(6) 0.1255(3)
N2U N 0.7826(9) 0.0010(7) 0.1816(3)
C1DA C 0.90641(11) 0.36058(13) 0.02602(5)
C2DA C 0.84714(12) 0.28078(13) 0.04303(5)
C4DA C 0.86205(13) 0.26557(14) 0.07691(6)
H2DA H 0.9103 0.3032 0.0880
O1DA O 0.88906(9) 0.37198(9) -0.00418(4)
O2DA O 0.96738(9) 0.41045(9) 0.04332(4)
C7DA C 0.7515(4) 0.1497(4) 0.1528(3)
C8DA C 0.7645(7) 0.1403(8) 0.1875(3)
C9DA C 0.8435(9) 0.1588(10) 0.1994(4)
C10DA C 0.9095(6) 0.1994(8) 0.1765(3)
H3DA H 0.9649 0.2292 0.1852
C11DA C 0.8965(4) 0.2088(4) 0.1418(3)
H4DA H 0.9416 0.2322 0.1257
O4DA O 0.6337(5) 0.0898(8) 0.1838(2)
N1DA N 0.6946(6) 0.0974(10) 0.2078(3)
N2DA N 0.6677(7) 0.1159(9) 0.1517(3)
O3Q O 0.5565(2) -0.22175(23) 0.25652(8)
Cu1Q Cu 0.620563(17) -0.189718(19) 0.305006(7)
O1Q O 0.55572(9) -0.14959(13) 0.32916(4)
O1W O 0.77761(9) -0.18374(13) 0.33751(4)
O1X O 0.55572(9) -0.29468(9) 0.32916(4)
O2Q O 0.63404(9) -0.10974(13) 0.37666(4)
O2W O 0.69929(9) -0.22359(13) 0.29001(4)
O2X O 0.63404(9) -0.25621(9) 0.37666(4)
Cu1B Cu 1.143615(19) 0.287230(17) 0.361661(7)
Cu1I Cu 0.523052(9) 0.046103(17) -0.028328(7)
Cu1K Cu 0.953897(17) 0.476948(19) -0.028328(7)
Cu1L Cu 1.046103(17) 0.523052(9) 0.028328(7)
Cu1N Cu 0.476948(19) -0.046103(17) 0.028328(7)
Cu1O Cu 1.189718(9) 0.379437(17) 0.305006(7)
loop_
_geom_bond_atom_site_label_1
_geom_bond_atom_site_label_2
_geom_bond_site_symmetry_1
_geom_bond_site_symmetry_2
C1 C2 1_555 1_555
C2 C3 1_555 1_555
C3 H1 1_555 1_555
C4 C2 1_555 1_555
H2 C4 1_555 1_555
C5 C4 1_555 1_555
O1 C1 1_555 1_555
O2 C1 1_555 1_555
O3 Cu1 1_555 1_555
Cu1 O1 1_555 1_555
C6 C5 1_555 1_555
C7 C6 1_555 1_555
C8 C7 1_555 1_555
C9 C8 1_555 1_555
C10 C9 1_555 1_555
H3 C10 1_555 1_555
C11 C6 1_555 1_555
H4 C11 1_555 1_555
O4 N1 1_555 1_555
N1 C8 1_555 1_555
N2 C7 1_555 1_555
C1I C2I 1_555 1_555
C2I C3I 1_555 1_555
C3I H1I 1_555 1_555
C4I C2I 1_555 1_555
H2I C4I 1_555 1_555
C5I C9 1_555 1_555
O1I C1I 1_555 1_555
O2I C1I 1_555 1_555
C6I C8 1_555 1_555
C7I C8 1_555 1_555
C8I C6 1_555 1_555
C9I C5 1_555 1_555
C10I C6 1_555 1_555
H3I C10I 1_555 1_555
C11I C9 1_555 1_555
H4I C11I 1_555 1_555
O4I N1I 1_555 1_555
N1I C8I 1_555 1_555
N2I C7I 1_555 1_555
C1U C2U 1_555 1_555
C2U C3 1_555 1_555
C4U C5 1_555 1_555
H2U C4U 1_555 1_555
O1U C1U 1_555 1_555
O2U C1U 1_555 1_555
C7U C6 1_555 1_555
C8U C8 1_555 1_555
C9U C8 1_555 1_555
C10U C8 1_555 1_555
H3U C7I 1_555 1_555
C11U C6 1_555 1_555
H4U C8I 1_555 1_555
O4U N1U 1_555 1_555
N1U C11I 1_555 1_555
N2U C10I 1_555 1_555
C1DA C2DA 1_555 1_555
C2DA C3I 1_555 1_555
C4DA C5I 1_555 1_555
H2DA C4DA 1_555 1_555
O1DA C1DA 1_555 1_555
O2DA C1DA 1_555 1_555
C7DA C9 1_555 1_555
C8DA C6 1_555 1_555
C9DA C5 1_555 1_555
C10DA C6 1_555 1_555
H3DA C7 1_555 1_555
C11DA C7 1_555 1_555
H4DA C8 1_555 1_555
O4DA N1DA 1_555 1_555
N1DA C11 1_555 1_555
N2DA C10 1_555 1_555
O3Q Cu1Q 1_555 1_555
Cu1Q O2 1_555 1_555
O1Q Cu1Q 1_555 1_555
O1W Cu1 1_555 1_555
O1X Cu1Q 1_555 1_555
O2Q Cu1 1_555 1_555
O2W Cu1Q 1_555 1_555
O2X Cu1 1_555 1_555
Cu1B O1U 1_555 1_555
Cu1I O1I 1_555 1_555
Cu1K O1DA 1_555 1_555
Cu1L O2DA 1_555 1_555
Cu1N O2I 1_555 1_555
Cu1O O2U 1_555 1_555
C7 C8I 1_555 1_555
C7 C9I 1_555 1_555
C7 C11U 1_555 1_555
C7 C9DA 1_555 1_555
C8 C10DA 1_555 1_555
C9 C7I 1_555 1_555
C9 C8U 1_555 1_555
C9 C10U 1_555 1_555
C9 C11DA 1_555 1_555
C10 C11 1_555 1_555
C10 C6I 1_555 1_555
C10 C10I 1_555 1_555
C10 C11I 1_555 1_555
C10 C8U 1_555 1_555
C10 C9U 1_555 1_555
C10 C8DA 1_555 1_555
H3 C7DA 1_555 1_555
H3 N2DA 1_555 1_555
C11 C9I 1_555 1_555
C11 C10I 1_555 1_555
C11 C7U 1_555 1_555
C11 C7DA 1_555 1_555
C11 C9DA 1_555 1_555
H4 C8DA 1_555 1_555
O4 N2 1_555 1_555
N1 C11DA 1_555 1_555
N2 C10DA 1_555 1_555
N2 H3DA 1_555 1_555
C4I C5I 1_555 1_555
C5I C6I 1_555 1_555
C5I C9U 1_555 1_555
C6I C7I 1_555 1_555
C6I C11I 1_555 1_555
C6I C8U 1_555 1_555
C6I C10U 1_555 1_555
C6I C7DA 1_555 1_555
C6I C11DA 1_555 1_555
C7I C8I 1_555 1_555
C7I C9U 1_555 1_555
C7I C11U 1_555 1_555
C7I C11DA 1_555 1_555
C8I C9I 1_555 1_555
C8I C10U 1_555 1_555
C8I C8DA 1_555 1_555
C8I C9DA 1_555 1_555
C8I C10DA 1_555 1_555
C9I C10I 1_555 1_555
C9I C7U 1_555 1_555
C9I C11U 1_555 1_555
C9I C8DA 1_555 1_555
C9I C10DA 1_555 1_555
C10I C11I 1_555 1_555
C10I C8U 1_555 1_555
C10I C8DA 1_555 1_555
C10I C9DA 1_555 1_555
H3I C7U 1_555 1_555
H3I N2U 1_555 1_555
C11I C7U 1_555 1_555
C11I C9U 1_555 1_555
C11I C7DA 1_555 1_555
H4I C8U 1_555 1_555
O4I N2I 1_555 1_555
N1I C11U 1_555 1_555
N2I C10U 1_555 1_555
N2I H3U 1_555 1_555
C2U C4U 1_555 1_555
C7U C8U 1_555 1_555
C7U N2U 1_555 1_555
C7U C8DA 1_555 1_555
C7U C9DA 1_555 1_555
C8U C9U 1_555 1_555
C8U N1U 1_555 1_555
C8U C7DA 1_555 1_555
C9U C10U 1_555 1_555
C9U C7DA 1_555 1_555
C9U C11DA 1_555 1_555
C10U H3U 1_555 1_555
C10U C11U 1_555 1_555
C10U C10DA 1_555 1_555
C10U C11DA 1_555 1_555
C11U H4U 1_555 1_555
C11U C9DA 1_555 1_555
C11U C10DA 1_555 1_555
O4U N2U 1_555 1_555
C2DA C4DA 1_555 1_555
C7DA C8DA 1_555 1_555
C7DA N2DA 1_555 1_555
C8DA C9DA 1_555 1_555
C8DA N1DA 1_555 1_555
C9DA C10DA 1_555 1_555
C10DA H3DA 1_555 1_555
C10DA C11DA 1_555 1_555
C11DA H4DA 1_555 1_555
O4DA N2DA 1_555 1_555

#END
