
#######################################################################
#
#                 Cambridge Crystallographic Data Centre
#                                CCDC 
#
#######################################################################
#
# If this CIF has been generated from an entry in the Cambridge 
# Structural Database, then it will include bibliographic, chemical, 
# crystal, experimental, refinement or atomic coordinate data resulting 
# from the CCDC's data processing and validation procedures.
#
#######################################################################

data_HOGLEV
_chemical_formula_moiety         '(C102 H72 Cu12 O60)n'
_symmetry_cell_setting           tetragonal
_symmetry_space_group_name_H-M   'P 4/m m m'
_symmetry_Int_Tables_number      123
_space_group_name_Hall           '-P 4 2'
loop_
_symmetry_equiv_pos_site_id
_symmetry_equiv_pos_as_xyz
1 x,y,z
2 -y,x,z
3 y,-x,z
4 y,x,-z
5 -x,-y,z
6 -x,y,-z
7 x,-y,-z
8 -y,-x,-z
9 -x,-y,-z
10 y,-x,-z
11 -y,x,-z
12 -y,-x,z
13 x,y,-z
14 x,-y,z
15 -x,y,z
16 y,x,z
_cell_length_a                   32.868(4)
_cell_length_b                   32.868(4)
_cell_length_c                   22.627(4)
_cell_angle_alpha                90
_cell_angle_beta                 90
_cell_angle_gamma                90
_cell_volume                     24444.1
loop_
_atom_site_label
_atom_site_type_symbol
_atom_site_fract_x
_atom_site_fract_y
_atom_site_fract_z
Cu1 Cu 0.17014(5) 0.0000 0.24981(9)
Cu2 Cu 0.22730(5) 0.0000 0.16905(8)
Cu3 Cu 0.22978(5) 0.22978(5) 0.5000
Cu4 Cu 0.17320(5) 0.17320(5) 0.5000
Cu5 Cu 0.33849(4) 0.33849(4) 0.16808(9)
Cu6 Cu 0.37929(4) 0.37929(4) 0.24795(10)
Cu7 Cu 0.5000 0.25931(7) 0.5000
Cu8 Cu 0.5000 0.17952(8) 0.5000
O1 O 0.2027(2) 0.0424(2) 0.2894(3)
O2 O 0.2520(2) 0.0419(2) 0.2206(4)
O3 O 0.2559(2) 0.1952(2) 0.4379(3)
O4 O 0.2062(2) 0.1474(2) 0.4401(4)
O5 O 0.3509(3) 0.2910(2) 0.2165(4)
O6 O 0.3853(2) 0.3255(3) 0.2853(4)
O7 O 0.4590(2) 0.1840(2) 0.4394(3)
O8 O 0.4581(2) 0.2538(2) 0.4387(3)
C1 C 0.2571(4) 0.0878(3) 0.2959(5)
C2 C 0.2381(4) 0.1068(3) 0.3441(6)
H1 H 0.2131 0.0980 0.3584
C3 C 0.2593(3) 0.1406(3) 0.3705(5)
C4 C 0.2981(3) 0.1512(3) 0.3494(5)
H2 H 0.3120 0.1723 0.3679
C5 C 0.3166(3) 0.1319(3) 0.3025(5)
C6 C 0.2951(3) 0.0995(3) 0.2767(5)
H3 H 0.3070 0.0855 0.2455
C7 C 0.3822(3) 0.2560(3) 0.2968(7)
C8 C 0.4069(3) 0.2559(3) 0.3432(5)
H4 H 0.4170 0.2801 0.3587
C9 C 0.4175(3) 0.2185(4) 0.3683(5)
C10 C 0.4028(3) 0.1816(3) 0.3505(5)
H5 H 0.4092 0.1580 0.3710
C11 C 0.3776(4) 0.1803(4) 0.3003(6)
C12 C 0.3660(3) 0.2186(4) 0.2757(6)
H6 H 0.3473 0.2190 0.2449
C13 C 0.3602(4) 0.1409(4) 0.2815(6)
H7 H 0.3778 0.1193 0.2957
H8 H 0.3605 0.1399 0.2387
C14 C 0.2343(4) 0.0538(3) 0.2666(5)
C15 C 0.2383(3) 0.1639(4) 0.4193(4)
C16 C 0.3721(4) 0.2936(3) 0.2615(6)
C17 C 0.4475(3) 0.2188(3) 0.4214(5)
O9 O 0.1459(2) -0.0426(2) 0.2004(4)
O10 O 0.1952(2) -0.0428(2) 0.1304(4)
C18 C 0.1629(3) -0.0552(4) 0.1571(5)
C19 C 0.1445(3) -0.0943(3) 0.1278(5)
C20 C 0.1087(3) -0.1087(3) 0.1520(7)
H9 H 0.0952 -0.0952 0.1824
C21 C 0.1638(3) -0.1111(3) 0.0767(5)
H10 H 0.1861 -0.0986 0.0590
C22 C 0.1472(3) -0.1472(3) 0.0550(6)
C23 C 0.1661(4) -0.1661(4) 0.0000
H11 H 0.1614 -0.1952 0.0000
O11 O 0.3917(2) 0.3312(2) 0.1300(4)
O12 O 0.4256(2) 0.3683(3) 0.1986(4)
C24 C 0.4236(4) 0.3447(4) 0.1571(7)
C25 C 0.4632(3) 0.3307(4) 0.1261(6)
C26 C 0.5000 0.3459(5) 0.1527(8)
H12 H 0.5000 0.3639 0.1844
C27 C 0.4625(3) 0.3022(4) 0.0792(5)
H13 H 0.4381 0.2915 0.0653
C28 C 0.5000 0.2904(5) 0.0542(7)
C29 C 0.5000 0.2637(9) 0.0000
H14 H 0.4761 0.2464 0.0000
O13 O 0.1195(5) 0.0000 0.3152(8)
O14 O 0.2763(4) 0.0000 0.1011(5)
O15 O 0.2765(3) 0.2765(3) 0.5000
O16 O 0.1247(5) 0.1247(5) 0.5000
O17 O 0.3018(3) 0.3018(3) 0.1011(7)
O18 O 0.4138(3) 0.4138(3) 0.3147(8)
O19 O 0.5000 0.3244(5) 0.5000
O20 O 0.5000 0.1095(8) 0.5000
Cu1C Cu 0.0000 0.17014(5) 0.75019(9)
Cu1B Cu 0.0000 -0.17014(5) 0.24981(9)
Cu1L Cu 0.17014(5) -0.0000 -0.24981(9)
Cu1I Cu -0.0000 -0.17014(5) -0.24981(9)
Cu1L_2 Cu 0.17014(5) 0.0000 0.75019(9)
Cu1A Cu 0.0000 0.17014(5) 0.24981(9)
Cu2C Cu 0.0000 0.22730(5) 0.83095(8)
Cu2B Cu 0.0000 -0.22730(5) 0.16905(8)
Cu2L Cu 0.22730(5) 0.0000 -0.16905(8)
Cu2I Cu 0.0000 -0.22730(5) -0.16905(8)
Cu2L_2 Cu 0.22730(5) 0.0000 0.83095(8)
Cu2A Cu -0.0000 0.22730(5) 0.16905(8)
Cu5C Cu 0.33849(4) 0.33849(4) 0.83192(9)
Cu5A Cu 0.66151(4) 0.33849(4) 0.16808(9)
Cu5C_2 Cu 0.33849(4) 0.33849(4) -0.16808(9)
Cu5J Cu 0.66151(4) 0.33849(4) -0.16808(9)
Cu6C Cu 0.37929(4) 0.37929(4) 0.75205(10)
Cu6A Cu 0.62071(4) 0.37929(4) 0.24795(10)
Cu6C_2 Cu 0.37929(4) 0.37929(4) -0.24795(10)
Cu6J Cu 0.62071(4) 0.37929(4) -0.24795(10)
Cu7B Cu 0.25931(7) 0.5000 0.5000
Cu8B Cu 0.17952(8) 0.5000 0.5000
O1C O 0.0424(2) 0.2027(2) 0.7106(3)
O1L O 0.2027(2) 0.0424(2) 0.7106(3)
O1O O 0.0424(2) 0.2027(2) 0.2894(3)
O1M O 0.2027(2) -0.0424(2) 0.2894(3)
O1J O -0.0424(2) 0.2027(2) 0.7106(3)
O2C O 0.0419(2) 0.2520(2) 0.7794(4)
O2L O 0.2520(2) 0.0419(2) 0.7794(4)
O2O O 0.0419(2) 0.2520(2) 0.2206(4)
O2M O 0.2520(2) -0.0419(2) 0.2206(4)
O2J O -0.0419(2) 0.2520(2) 0.7794(4)
O3C O 0.1952(2) 0.2559(2) 0.5621(3)
O3L O 0.2559(2) 0.1952(2) 0.5621(3)
O3O O 0.1952(2) 0.2559(2) 0.4379(3)
O4C O 0.1474(2) 0.2062(2) 0.5599(4)
O4L O 0.2062(2) 0.1474(2) 0.5599(4)
O4O O 0.1474(2) 0.2062(2) 0.4401(4)
O5C O 0.2910(2) 0.3509(3) 0.7835(4)
O5L O 0.3509(3) 0.2910(2) 0.7835(4)
O5O O 0.2910(2) 0.3509(3) 0.2165(4)
O6C O 0.3255(3) 0.3853(2) 0.7147(4)
O6L O 0.3853(2) 0.3255(3) 0.7147(4)
O6O O 0.3255(3) 0.3853(2) 0.2853(4)
O7C O 0.1840(2) 0.4590(2) 0.5606(3)
O7L O 0.4590(2) 0.1840(2) 0.5606(3)
O7O O 0.1840(2) 0.4590(2) 0.4394(3)
O7N O 0.5410(2) 0.1840(2) 0.4394(3)
O7E O 0.5410(2) 0.1840(2) 0.5606(3)
O8C O 0.2538(2) 0.4581(2) 0.5613(3)
O8L O 0.4581(2) 0.2538(2) 0.5613(3)
O8O O 0.2538(2) 0.4581(2) 0.4387(3)
O8N O 0.5419(2) 0.2538(2) 0.4387(3)
O8E O 0.5419(2) 0.2538(2) 0.5613(3)
C1C C 0.0878(3) 0.2571(4) 0.7041(5)
C1L C 0.2571(4) 0.0878(3) 0.7041(5)
C1O C 0.0878(3) 0.2571(4) 0.2959(5)
C2C C 0.1068(3) 0.2381(4) 0.6559(6)
C2L C 0.2381(4) 0.1068(3) 0.6559(6)
C2O C 0.1068(3) 0.2381(4) 0.3441(6)
H1C H 0.0980 0.2131 0.6416
H1L H 0.2131 0.0980 0.6416
H1O H 0.0980 0.2131 0.3584
C3C C 0.1406(3) 0.2593(3) 0.6295(5)
C3L C 0.2593(3) 0.1406(3) 0.6295(5)
C3O C 0.1406(3) 0.2593(3) 0.3705(5)
C4C C 0.1512(3) 0.2981(3) 0.6506(5)
C4L C 0.2981(3) 0.1512(3) 0.6506(5)
C4O C 0.1512(3) 0.2981(3) 0.3494(5)
H2C H 0.1723 0.3120 0.6321
H2L H 0.3120 0.1723 0.6321
H2O H 0.1723 0.3120 0.3679
C5C C 0.1319(3) 0.3166(3) 0.6975(5)
C5L C 0.3166(3) 0.1319(3) 0.6975(5)
C5O C 0.1319(3) 0.3166(3) 0.3025(5)
C6C C 0.0995(3) 0.2951(3) 0.7233(5)
C6L C 0.2951(3) 0.0995(3) 0.7233(5)
C6O C 0.0995(3) 0.2951(3) 0.2767(5)
H3C H 0.0855 0.3070 0.7545
H3L H 0.3070 0.0855 0.7545
H3O H 0.0855 0.3070 0.2455
C7C C 0.2560(3) 0.3822(3) 0.7032(7)
C7L C 0.3822(3) 0.2560(3) 0.7032(7)
C7O C 0.2560(3) 0.3822(3) 0.2968(7)
C8C C 0.2559(3) 0.4069(3) 0.6568(5)
C8L C 0.4069(3) 0.2559(3) 0.6568(5)
C8O C 0.2559(3) 0.4069(3) 0.3432(5)
H4C H 0.2801 0.4170 0.6413
H4L H 0.4170 0.2801 0.6413
H4O H 0.2801 0.4170 0.3587
C9C C 0.2185(4) 0.4175(3) 0.6317(5)
C9L C 0.4175(3) 0.2185(4) 0.6317(5)
C9O C 0.2185(4) 0.4175(3) 0.3683(5)
C10C C 0.1816(3) 0.4028(3) 0.6495(5)
C10L C 0.4028(3) 0.1816(3) 0.6495(5)
C10O C 0.1816(3) 0.4028(3) 0.3505(5)
H5C H 0.1580 0.4092 0.6290
H5L H 0.4092 0.1580 0.6290
H5O H 0.1580 0.4092 0.3710
C11C C 0.1803(4) 0.3776(4) 0.6997(6)
C11L C 0.3776(4) 0.1803(4) 0.6997(6)
C11O C 0.1803(4) 0.3776(4) 0.3003(6)
C12C C 0.2186(4) 0.3660(3) 0.7243(6)
C12L C 0.3660(3) 0.2186(4) 0.7243(6)
C12O C 0.2186(4) 0.3660(3) 0.2757(6)
H6C H 0.2190 0.3473 0.7551
H6L H 0.3473 0.2190 0.7551
H6O H 0.2190 0.3473 0.2449
C13C C 0.1409(4) 0.3602(4) 0.7185(6)
C13L C 0.3602(4) 0.1409(4) 0.7185(6)
C13O C 0.1409(4) 0.3602(4) 0.2815(6)
H7C H 0.1193 0.3778 0.7043
H7L H 0.3778 0.1193 0.7043
H7O H 0.1193 0.3778 0.2957
H8C H 0.1399 0.3605 0.7613
H8L H 0.3605 0.1399 0.7613
H8O H 0.1399 0.3605 0.2387
C14C C 0.0538(3) 0.2343(4) 0.7334(5)
C14L C 0.2343(4) 0.0538(3) 0.7334(5)
C14O C 0.0538(3) 0.2343(4) 0.2666(5)
C15C C 0.1639(4) 0.2383(3) 0.5807(4)
C15L C 0.2383(3) 0.1639(4) 0.5807(4)
C15O C 0.1639(4) 0.2383(3) 0.4193(4)
C16C C 0.2936(3) 0.3721(4) 0.7385(6)
C16L C 0.3721(4) 0.2936(3) 0.7385(6)
C16O C 0.2936(3) 0.3721(4) 0.2615(6)
C17C C 0.2188(3) 0.4475(3) 0.5786(5)
C17L C 0.4475(3) 0.2188(3) 0.5786(5)
C17O C 0.2188(3) 0.4475(3) 0.4214(5)
O9K O 0.0426(2) -0.1459(2) 0.2004(4)
O9L O 0.1459(2) -0.0426(2) -0.2004(4)
O9G O 0.0426(2) -0.1459(2) -0.2004(4)
O9M O 0.1459(2) 0.0426(2) 0.2004(4)
O9C O -0.0426(2) 0.1459(2) 0.7996(4)
O9J O 0.0426(2) 0.1459(2) 0.7996(4)
O10K O 0.0428(2) -0.1952(2) 0.1304(4)
O10L O 0.1952(2) -0.0428(2) -0.1304(4)
O10G O 0.0428(2) -0.1952(2) -0.1304(4)
O10M O 0.1952(2) 0.0428(2) 0.1304(4)
O10C O -0.0428(2) 0.1952(2) 0.8696(4)
O10J O 0.0428(2) 0.1952(2) 0.8696(4)
C18K C 0.0552(4) -0.1629(3) 0.1571(5)
C18L C 0.1629(3) -0.0552(4) -0.1571(5)
C18G C 0.0552(4) -0.1629(3) -0.1571(5)
C19K C 0.0943(3) -0.1445(3) 0.1278(5)
C19L C 0.1445(3) -0.0943(3) -0.1278(5)
C19G C 0.0943(3) -0.1445(3) -0.1278(5)
C20L C 0.1087(3) -0.1087(3) -0.1520(7)
H9L H 0.0952 -0.0952 -0.1824
C21K C 0.1111(3) -0.1638(3) 0.0767(5)
C21L C 0.1638(3) -0.1111(3) -0.0767(5)
C21G C 0.1111(3) -0.1638(3) -0.0767(5)
H10K H 0.0986 -0.1861 0.0590
H10G H 0.0986 -0.1861 -0.0590
H10L H 0.1861 -0.0986 -0.0590
C22L C 0.1472(3) -0.1472(3) -0.0550(6)
H11K H 0.1952 -0.1614 0.0000
O11N O 0.6083(2) 0.3312(2) 0.1300(4)
O11L O 0.3917(2) 0.3312(2) -0.1300(4)
O11E O 0.6083(2) 0.3312(2) -0.1300(4)
O11O O 0.3312(2) 0.3917(2) 0.1300(4)
O11C O 0.3312(2) 0.3917(2) 0.8700(4)
O11L_2 O 0.3917(2) 0.3312(2) 0.8700(4)
O12N O 0.5744(2) 0.3683(3) 0.1986(4)
O12L O 0.4256(2) 0.3683(3) -0.1986(4)
O12E O 0.5744(2) 0.3683(3) -0.1986(4)
O12O O 0.3683(3) 0.4256(2) 0.1986(4)
O12C O 0.3683(3) 0.4256(2) 0.8014(4)
O12L_2 O 0.4256(2) 0.3683(3) 0.8014(4)
C24N C 0.5764(4) 0.3447(4) 0.1571(7)
C24L C 0.4236(4) 0.3447(4) -0.1571(7)
C24E C 0.5764(4) 0.3447(4) -0.1571(7)
C25N C 0.5368(3) 0.3307(4) 0.1261(6)
C25L C 0.4632(3) 0.3307(4) -0.1261(6)
C25E C 0.5368(3) 0.3307(4) -0.1261(6)
C26L C 0.5000 0.3459(5) -0.1527(8)
H12L H 0.5000 0.3639 -0.1844
C27N C 0.5375(3) 0.3022(4) 0.0792(5)
C27L C 0.4625(3) 0.3022(4) -0.0792(5)
C27E C 0.5375(3) 0.3022(4) -0.0792(5)
H13N H 0.5619 0.2915 0.0653
H13E H 0.5619 0.2915 -0.0653
H13L H 0.4381 0.2915 -0.0653
C28L C 0.5000 0.2904(5) -0.0542(7)
H14N H 0.5239 0.2464 0.0000
O13C O 0.0000 0.1195(5) 0.6848(8)
O14C O 0.0000 0.2763(4) 0.8989(5)
O17C O 0.3018(3) 0.3018(3) 0.8989(7)
O18C O 0.4138(3) 0.4138(3) 0.6853(8)
loop_
_geom_bond_atom_site_label_1
_geom_bond_atom_site_label_2
_geom_bond_site_symmetry_1
_geom_bond_site_symmetry_2
Cu1 Cu2 1_555 1_555
Cu2 O2 1_555 1_555
Cu3 Cu4 1_555 1_555
Cu4 O4 1_555 1_555
Cu5 Cu6 1_555 1_555
Cu6 O6 1_555 1_555
Cu7 Cu8 1_555 1_555
Cu8 O7 1_555 1_555
O1 Cu1 1_555 1_555
O2 C14 1_555 1_555
O3 Cu3 1_555 1_555
O4 C15 1_555 1_555
O5 Cu5 1_555 1_555
O6 C16 1_555 1_555
O7 C17 1_555 1_555
O8 Cu7 1_555 1_555
C1 C2 1_555 1_555
C2 H1 1_555 1_555
C3 C2 1_555 1_555
C4 C3 1_555 1_555
H2 C4 1_555 1_555
C5 C4 1_555 1_555
C6 C1 1_555 1_555
H3 C6 1_555 1_555
C7 C8 1_555 1_555
C8 H4 1_555 1_555
C9 C8 1_555 1_555
C10 C9 1_555 1_555
H5 C10 1_555 1_555
C11 C10 1_555 1_555
C12 C7 1_555 1_555
H6 C12 1_555 1_555
C13 C5 1_555 1_555
H7 C13 1_555 1_555
H8 C13 1_555 1_555
C14 O1 1_555 1_555
C15 O3 1_555 1_555
C16 O5 1_555 1_555
C17 O8 1_555 1_555
O9 Cu1 1_555 1_555
O10 Cu2 1_555 1_555
C18 O9 1_555 1_555
C19 C18 1_555 1_555
C20 C19 1_555 1_555
H9 C20 1_555 1_555
C21 C19 1_555 1_555
H10 C21 1_555 1_555
C22 C21 1_555 1_555
C23 C22 1_555 1_555
H11 C23 1_555 1_555
O11 Cu5 1_555 1_555
O12 Cu6 1_555 1_555
C24 O11 1_555 1_555
C25 C24 1_555 1_555
C26 C25 1_555 1_555
H12 C26 1_555 1_555
C27 C25 1_555 1_555
H13 C27 1_555 1_555
C28 C27 1_555 1_555
C29 C28 1_555 1_555
H14 C29 1_555 1_555
O13 Cu1 1_555 1_555
O14 Cu2 1_555 1_555
O15 Cu3 1_555 1_555
O16 Cu4 1_555 1_555
O17 Cu5 1_555 1_555
O18 Cu6 1_555 1_555
O19 Cu7 1_555 1_555
O20 Cu8 1_555 1_555
Cu1C Cu2C 1_555 1_555
Cu1B Cu2B 1_555 1_555
Cu1L Cu2L 1_555 1_555
Cu1I Cu2I 1_555 1_555
Cu1L_2 Cu2L_2 1_555 1_555
Cu1A Cu2A 1_555 1_555
Cu2C O2C 1_555 1_555
Cu2B O10K 1_555 1_555
Cu2L O10L 1_555 1_555
Cu2I O10G 1_555 1_555
Cu2L_2 O2L 1_555 1_555
Cu2A O2O 1_555 1_555
Cu5C Cu6C 1_555 1_555
Cu5A Cu6A 1_555 1_555
Cu5C_2 Cu6C_2 1_555 1_555
Cu5J Cu6J 1_555 1_555
Cu6C O6C 1_555 1_555
Cu6A O12N 1_555 1_555
Cu6C_2 O12L 1_555 1_555
Cu6J O12E 1_555 1_555
Cu7B Cu8B 1_555 1_555
Cu8B O7C 1_555 1_555
O1C Cu1C 1_555 1_555
O1L Cu1L_2 1_555 1_555
O1O Cu1A 1_555 1_555
O1M Cu1 1_555 1_555
O1J Cu1C 1_555 1_555
O2C C14C 1_555 1_555
O2L C14L 1_555 1_555
O2O C14O 1_555 1_555
O2M Cu2 1_555 1_555
O2J Cu2C 1_555 1_555
O3C Cu3 1_555 1_555
O3L Cu3 1_555 1_555
O3O Cu3 1_555 1_555
O4C Cu4 1_555 1_555
O4L Cu4 1_555 1_555
O4O Cu4 1_555 1_555
O5C Cu5C 1_555 1_555
O5L Cu5C 1_555 1_555
O5O Cu5 1_555 1_555
O6C C16C 1_555 1_555
O6L Cu6C 1_555 1_555
O6O Cu6 1_555 1_555
O7C C17C 1_555 1_555
O7L Cu8 1_555 1_555
O7O Cu8B 1_555 1_555
O7N Cu8 1_555 1_555
O7E Cu8 1_555 1_555
O8C Cu7B 1_555 1_555
O8L Cu7 1_555 1_555
O8O Cu7B 1_555 1_555
O8N Cu7 1_555 1_555
O8E Cu7 1_555 1_555
C1C C2C 1_555 1_555
C1L C2L 1_555 1_555
C1O C2O 1_555 1_555
C2C H1C 1_555 1_555
C2L H1L 1_555 1_555
C2O H1O 1_555 1_555
C3C C2C 1_555 1_555
C3L C2L 1_555 1_555
C3O C2O 1_555 1_555
C4C C3C 1_555 1_555
C4L C3L 1_555 1_555
C4O C3O 1_555 1_555
H2C C4C 1_555 1_555
H2L C4L 1_555 1_555
H2O C4O 1_555 1_555
C5C C4C 1_555 1_555
C5L C4L 1_555 1_555
C5O C4O 1_555 1_555
C6C C1C 1_555 1_555
C6L C1L 1_555 1_555
C6O C1O 1_555 1_555
H3C C6C 1_555 1_555
H3L C6L 1_555 1_555
H3O C6O 1_555 1_555
C7C C8C 1_555 1_555
C7L C8L 1_555 1_555
C7O C8O 1_555 1_555
C8C H4C 1_555 1_555
C8L H4L 1_555 1_555
C8O H4O 1_555 1_555
C9C C8C 1_555 1_555
C9L C8L 1_555 1_555
C9O C8O 1_555 1_555
C10C C9C 1_555 1_555
C10L C9L 1_555 1_555
C10O C9O 1_555 1_555
H5C C10C 1_555 1_555
H5L C10L 1_555 1_555
H5O C10O 1_555 1_555
C11C C10C 1_555 1_555
C11L C10L 1_555 1_555
C11O C10O 1_555 1_555
C12C C7C 1_555 1_555
C12L C7L 1_555 1_555
C12O C7O 1_555 1_555
H6C C12C 1_555 1_555
H6L C12L 1_555 1_555
H6O C12O 1_555 1_555
C13C C5C 1_555 1_555
C13L C5L 1_555 1_555
C13O C5O 1_555 1_555
H7C C13C 1_555 1_555
H7L C13L 1_555 1_555
H7O C13O 1_555 1_555
H8C C13C 1_555 1_555
H8L C13L 1_555 1_555
H8O C13O 1_555 1_555
C14C O1C 1_555 1_555
C14L O1L 1_555 1_555
C14O O1O 1_555 1_555
C15C O3C 1_555 1_555
C15L O3L 1_555 1_555
C15O O3O 1_555 1_555
C16C O5C 1_555 1_555
C16L O5L 1_555 1_555
C16O O5O 1_555 1_555
C17C O8C 1_555 1_555
C17L O7L 1_555 1_555
C17O O7O 1_555 1_555
O9K Cu1B 1_555 1_555
O9L Cu1L 1_555 1_555
O9G Cu1I 1_555 1_555
O9M Cu1 1_555 1_555
O9C Cu1C 1_555 1_555
O9J Cu1C 1_555 1_555
O10K C18K 1_555 1_555
O10L C18L 1_555 1_555
O10G C18G 1_555 1_555
O10M Cu2 1_555 1_555
O10C Cu2C 1_555 1_555
O10J Cu2C 1_555 1_555
C18K O9K 1_555 1_555
C18L O9L 1_555 1_555
C18G O9G 1_555 1_555
C19K C20 1_555 1_555
C19L C18L 1_555 1_555
C19G C18G 1_555 1_555
C20L C19L 1_555 1_555
H9L C20L 1_555 1_555
C21K C22 1_555 1_555
C21L C19L 1_555 1_555
C21G C19G 1_555 1_555
H10K C21K 1_555 1_555
H10G C21G 1_555 1_555
H10L C21L 1_555 1_555
C22L C23 1_555 1_555
H11K C23 1_555 1_555
O11N Cu5A 1_555 1_555
O11L Cu5C_2 1_555 1_555
O11E Cu5J 1_555 1_555
O11O Cu5 1_555 1_555
O11C Cu5C 1_555 1_555
O11L_2 Cu5C 1_555 1_555
O12N C24N 1_555 1_555
O12L C24L 1_555 1_555
O12E C24E 1_555 1_555
O12O Cu6 1_555 1_555
O12C Cu6C 1_555 1_555
O12L_2 Cu6C 1_555 1_555
C24N O11N 1_555 1_555
C24L O11L 1_555 1_555
C24E O11E 1_555 1_555
C25N C26 1_555 1_555
C25L C24L 1_555 1_555
C25E C24E 1_555 1_555
C26L C25L 1_555 1_555
H12L C26L 1_555 1_555
C27N C28 1_555 1_555
C27L C25L 1_555 1_555
C27E C25E 1_555 1_555
H13N C27N 1_555 1_555
H13E C27E 1_555 1_555
H13L C27L 1_555 1_555
C28L C29 1_555 1_555
H14N C29 1_555 1_555
O13C Cu1C 1_555 1_555
O14C Cu2C 1_555 1_555
O17C Cu5C 1_555 1_555
O18C Cu6C 1_555 1_555
C1 C14 1_555 1_555
C3 C15 1_555 1_555
C5 C6 1_555 1_555
C7 C16 1_555 1_555
C9 C17 1_555 1_555
C11 C12 1_555 1_555
C11 C13 1_555 1_555
O10 C18 1_555 1_555
O12 C24 1_555 1_555
O4C C15C 1_555 1_555
O4L C15L 1_555 1_555
O4O C15O 1_555 1_555
O6L C16L 1_555 1_555
O6O C16O 1_555 1_555
O8L C17L 1_555 1_555
O8O C17O 1_555 1_555
C1C C14C 1_555 1_555
C1L C14L 1_555 1_555
C1O C14O 1_555 1_555
C3C C15C 1_555 1_555
C3L C15L 1_555 1_555
C3O C15O 1_555 1_555
C5C C6C 1_555 1_555
C5L C6L 1_555 1_555
C5O C6O 1_555 1_555
C7C C16C 1_555 1_555
C7L C16L 1_555 1_555
C7O C16O 1_555 1_555
C9C C17C 1_555 1_555
C9L C17L 1_555 1_555
C9O C17O 1_555 1_555
C11C C12C 1_555 1_555
C11C C13C 1_555 1_555
C11L C12L 1_555 1_555
C11L C13L 1_555 1_555
C11O C12O 1_555 1_555
C11O C13O 1_555 1_555
C18K C19K 1_555 1_555
C19K C21K 1_555 1_555
C19G C20L 1_555 1_555
C21L C22L 1_555 1_555
C21G C22L 1_555 1_555
C24N C25N 1_555 1_555
C25N C27N 1_555 1_555
C25E C26L 1_555 1_555
C27L C28L 1_555 1_555
C27E C28L 1_555 1_555

#END
