
#######################################################################
#
#                 Cambridge Crystallographic Data Centre
#                                CCDC 
#
#######################################################################
#
# If this CIF has been generated from an entry in the Cambridge 
# Structural Database, then it will include bibliographic, chemical, 
# crystal, experimental, refinement or atomic coordinate data resulting 
# from the CCDC's data processing and validation procedures.
#
#######################################################################

data_UHADAI
_chemical_formula_moiety         '(C20 H32 Cd4 Cu2 N20 S12)n'
_symmetry_cell_setting           monoclinic
_symmetry_space_group_name_H-M   'P 21/c'
_symmetry_Int_Tables_number      14
_space_group_name_Hall           '-P 2ybc'
loop_
_symmetry_equiv_pos_site_id
_symmetry_equiv_pos_as_xyz
1 x,y,z
2 x,1/2-y,1/2+z
3 -x,-y,-z
4 -x,1/2+y,1/2-z
_cell_length_a                   17.489(3)
_cell_length_b                   9.675(2)
_cell_length_c                   14.354(2)
_cell_angle_alpha                90
_cell_angle_beta                 75.416(11)
_cell_angle_gamma                90
_cell_volume                     2350.53
loop_
_atom_site_label
_atom_site_type_symbol
_atom_site_fract_x
_atom_site_fract_y
_atom_site_fract_z
Cd1 Cd 0.321469(15) 0.54503(3) 0.54858(2)
Cd2 Cd 0.167609(15) 1.03772(3) 0.45201(2)
Cu1 Cu 0.5000 1.0000 0.5000
Cu2 Cu 0.0000 0.5000 0.5000
S1 S 0.33623(7) 0.62059(12) 0.36125(8)
S2 S 0.24192(6) 1.02213(12) 0.59655(8)
S3 S 0.43178(6) 0.73170(11) 0.59016(8)
S4 S 0.27522(6) 0.27882(11) 0.85804(7)
S5 S 0.08047(5) 0.24885(10) 0.55531(8)
S6 S 0.08098(6) 1.04275(15) 0.31969(8)
N1 N 0.2377(2) 0.8500(4) 0.3818(3)
N2 N 0.2437(2) 0.7321(4) 0.6068(3)
N3 N 0.5781(2) 0.6035(4) 0.5236(3)
N4 N 0.3189(2) 0.4313(4) 0.6878(3)
N5 N 0.2112(2) 0.4163(4) 0.5496(3)
N6 N -0.0631(2) 1.1004(4) 0.4501(3)
N7 N 0.57628(18) 1.0021(4) 0.5843(2)
H1 H 0.5998 0.9190 0.5824
H2 H 0.6140 1.0660 0.5628
N8 N 0.42783(18) 1.0990(4) 0.6130(2)
H3 H 0.4060 1.1731 0.5919
H4 H 0.3887 1.0419 0.6429
N9 N 0.10031(18) 0.5992(4) 0.4344(2)
H5 H 0.0966 0.6893 0.4504
H6 H 0.1416 0.5627 0.4527
N10 N 0.00515(18) 0.4232(3) 0.3688(2)
H7 H -0.0044 0.3317 0.3727
H8 H -0.0317 0.4638 0.3441
C1 C 0.2784(2) 0.7559(4) 0.3731(3)
C2 C 0.2432(2) 0.8526(5) 0.6019(3)
C3 C 0.5175(2) 0.6542(4) 0.5511(3)
C4 C 0.2997(2) 0.3697(4) 0.7579(3)
C5 C 0.1574(2) 0.3462(4) 0.5538(3)
C6 C -0.0036(2) 1.0757(4) 0.3962(3)
C7 C 0.5332(2) 1.0344(5) 0.6833(3)
H9 H 0.5696 1.0671 0.7194
H10 H 0.5071 0.9521 0.7147
C8 C 0.4735(2) 1.1432(5) 0.6807(3)
H11 H 0.4387 1.1559 0.7443
H12 H 0.4996 1.2304 0.6599
C9 C 0.1116(3) 0.5832(6) 0.3293(3)
H13 H 0.0830 0.6556 0.3057
H14 H 0.1672 0.5928 0.2974
C10 C 0.0837(3) 0.4496(6) 0.3067(3)
H15 H 0.1199 0.3780 0.3161
H16 H 0.0817 0.4477 0.2398
S3B S 0.56822(6) 1.26830(11) 0.40984(8)
N3B N 0.4219(2) 1.3965(4) 0.4764(3)
C3B C 0.4825(2) 1.3458(4) 0.4489(3)
N7B N 0.42372(18) 0.9979(4) 0.4157(2)
H1B H 0.4002 1.0810 0.4176
H2B H 0.3860 0.9340 0.4372
N8B N 0.57217(18) 0.9010(4) 0.3870(2)
H3B H 0.5940 0.8269 0.4081
H4B H 0.6113 0.9581 0.3571
C7B C 0.4668(2) 0.9656(5) 0.3167(3)
H9B H 0.4304 0.9329 0.2806
H10B H 0.4929 1.0479 0.2853
C8B C 0.5265(2) 0.8568(5) 0.3193(3)
H11B H 0.5613 0.8441 0.2557
H12B H 0.5004 0.7696 0.3401
Cd1B Cd 0.678531(15) 1.45497(3) 0.45142(2)
S1B S 0.66377(7) 1.37941(12) 0.63875(8)
N1B N 0.7623(2) 1.1500(4) 0.6182(3)
C1B C 0.7216(2) 1.2441(4) 0.6269(3)
S2B S 0.75808(6) 0.97787(12) 0.40345(8)
N2B N 0.7563(2) 1.2679(4) 0.3932(3)
C2B C 0.7568(2) 1.1474(5) 0.3981(3)
S4B S 0.72478(6) 1.72118(11) 0.14196(7)
N4B N 0.6811(2) 1.5687(4) 0.3122(3)
C4B C 0.7003(2) 1.6303(4) 0.2421(3)
S5B S 0.91953(5) 1.75115(10) 0.44469(8)
N5B N 0.7888(2) 1.5837(4) 0.4504(3)
C5B C 0.8426(2) 1.6538(4) 0.4462(3)
Cd2B Cd 0.832391(15) 0.96228(3) 0.54799(2)
S6B S -0.08098(6) 0.95725(15) 0.68031(8)
N6B N 0.0631(2) 0.8996(4) 0.5499(3)
C6B C 0.0036(2) 0.9243(4) 0.6038(3)
N9B N -0.10031(18) 0.4008(4) 0.5656(2)
H5B H -0.0966 0.3107 0.5496
H6B H -0.1416 0.4373 0.5473
N10B N -0.00515(18) 0.5768(3) 0.6312(2)
H7B H 0.0044 0.6683 0.6273
H8B H 0.0317 0.5362 0.6559
C9B C -0.1116(3) 0.4168(6) 0.6707(3)
H13B H -0.0830 0.3444 0.6943
H14B H -0.1672 0.4072 0.7026
C10B C -0.0837(3) 0.5504(6) 0.6933(3)
H15B H -0.1199 0.6220 0.6839
H16B H -0.0817 0.5523 0.7602
N3B_2 N 0.4219(2) 0.3965(4) 0.4764(3)
S4A S 0.27522(6) 1.22118(11) 0.35804(7)
S5_2 S 0.08047(5) 1.24885(10) 0.55531(8)
S5B_2 S -0.08047(5) 0.75115(10) 0.44469(8)
Cd2A Cd 0.167609(15) 0.46228(3) 0.95201(2)
Cd2_2 Cd 0.167609(15) 0.03772(3) 0.45201(2)
Cd1B_2 Cd 0.678531(15) 0.45497(3) 0.45142(2)
Cd2B_2 Cd -0.167609(15) 0.96228(3) 0.54799(2)
Cd1_2 Cd 0.321469(15) 1.54503(3) 0.54858(2)
N3_2 N 0.5781(2) 1.6035(4) 0.5236(3)
Cd2C Cd 0.832391(15) 1.53772(3) 0.04799(2)
Cd2B_3 Cd 0.832391(15) 1.96228(3) 0.54799(2)
Cu2_2 Cu 1.0000 1.5000 0.5000
S4C S 0.72478(6) 0.77882(11) 0.64196(7)
S5B_3 S 0.91953(5) 0.75115(10) 0.44469(8)
S6B_2 S 0.91902(6) 0.95725(15) 0.68031(8)
N6_2 N 0.9369(2) 1.1004(4) 0.4501(3)
loop_
_geom_bond_atom_site_label_1
_geom_bond_atom_site_label_2
_geom_bond_site_symmetry_1
_geom_bond_site_symmetry_2
Cd1 S1 1_555 1_555
Cd2 S2 1_555 1_555
Cu1 S3 1_555 1_555
Cu2 S5 1_555 1_555
S1 C1 1_555 1_555
S2 C2 1_555 1_555
S3 Cd1 1_555 1_555
S4 C4 1_555 1_555
S5 C5 1_555 1_555
S6 Cd2 1_555 1_555
N1 Cd2 1_555 1_555
N2 Cd1 1_555 1_555
N3 C3 1_555 1_555
N4 Cd1 1_555 1_555
N5 Cd1 1_555 1_555
N6 C6 1_555 1_555
N7 Cu1 1_555 1_555
H1 N7 1_555 1_555
H2 N7 1_555 1_555
N8 Cu1 1_555 1_555
H3 N8 1_555 1_555
H4 N8 1_555 1_555
N9 Cu2 1_555 1_555
H5 N9 1_555 1_555
H6 N9 1_555 1_555
N10 Cu2 1_555 1_555
H7 N10 1_555 1_555
H8 N10 1_555 1_555
C1 N1 1_555 1_555
C2 N2 1_555 1_555
C3 S3 1_555 1_555
C4 N4 1_555 1_555
C5 N5 1_555 1_555
C6 S6 1_555 1_555
C7 N7 1_555 1_555
H9 C7 1_555 1_555
H10 C7 1_555 1_555
C8 N8 1_555 1_555
H11 C8 1_555 1_555
H12 C8 1_555 1_555
C9 N9 1_555 1_555
H13 C9 1_555 1_555
H14 C9 1_555 1_555
C10 N10 1_555 1_555
H15 C10 1_555 1_555
H16 C10 1_555 1_555
S3B Cu1 1_555 1_555
N3B C3B 1_555 1_555
C3B S3B 1_555 1_555
N7B Cu1 1_555 1_555
H1B N7B 1_555 1_555
H2B N7B 1_555 1_555
N8B Cu1 1_555 1_555
H3B N8B 1_555 1_555
H4B N8B 1_555 1_555
C7B N7B 1_555 1_555
H9B C7B 1_555 1_555
H10B C7B 1_555 1_555
C8B N8B 1_555 1_555
H11B C8B 1_555 1_555
H12B C8B 1_555 1_555
Cd1B S3B 1_555 1_555
S1B Cd1B 1_555 1_555
N1B C1B 1_555 1_555
C1B S1B 1_555 1_555
S2B C2B 1_555 1_555
N2B Cd1B 1_555 1_555
C2B N2B 1_555 1_555
S4B C4B 1_555 1_555
N4B Cd1B 1_555 1_555
C4B N4B 1_555 1_555
S5B C5B 1_555 1_555
N5B Cd1B 1_555 1_555
C5B N5B 1_555 1_555
Cd2B N1B 1_555 1_555
S6B C6B 1_555 1_555
N6B Cd2 1_555 1_555
C6B N6B 1_555 1_555
N9B Cu2 1_555 1_555
H5B N9B 1_555 1_555
H6B N9B 1_555 1_555
N10B Cu2 1_555 1_555
H7B N10B 1_555 1_555
H8B N10B 1_555 1_555
C9B N9B 1_555 1_555
H13B C9B 1_555 1_555
H14B C9B 1_555 1_555
C10B N10B 1_555 1_555
H15B C10B 1_555 1_555
H16B C10B 1_555 1_555
N3B_2 Cd1 1_555 1_555
S4A Cd2 1_555 1_555
S5_2 Cd2 1_555 1_555
S5B_2 Cu2 1_555 1_555
Cd2A S4 1_555 1_555
Cd2_2 S5 1_555 1_555
Cd1B_2 N3 1_555 1_555
Cd2B_2 N6 1_555 1_555
Cd1_2 N3B 1_555 1_555
N3_2 Cd1B 1_555 1_555
Cd2C S4B 1_555 1_555
Cd2B_3 S5B 1_555 1_555
Cu2_2 S5B 1_555 1_555
S4C Cd2B 1_555 1_555
S5B_3 Cd2B 1_555 1_555
S6B_2 Cd2B 1_555 1_555
N6_2 Cd2B 1_555 1_555
C7 C8 1_555 1_555
C9 C10 1_555 1_555
C7B C8B 1_555 1_555
S2B Cd2B 1_555 1_555
S6B Cd2B_2 1_555 1_555
C9B C10B 1_555 1_555
S5B_2 Cd2B_2 1_555 1_555

#END
