
#######################################################################
#
#                 Cambridge Crystallographic Data Centre
#                                CCDC 
#
#######################################################################
#
# If this CIF has been generated from an entry in the Cambridge 
# Structural Database, then it will include bibliographic, chemical, 
# crystal, experimental, refinement or atomic coordinate data resulting 
# from the CCDC's data processing and validation procedures.
#
#######################################################################

data_GUVYIH
_chemical_formula_moiety         'C74 H32 N2 O14 Zn7'
_symmetry_cell_setting           tetragonal
_symmetry_space_group_name_H-M   'P 4/m m m'
_symmetry_Int_Tables_number      123
_space_group_name_Hall           '-P 4 2'
loop_
_symmetry_equiv_pos_site_id
_symmetry_equiv_pos_as_xyz
1 x,y,z
2 -y,x,z
3 -x,-y,z
4 y,-x,z
5 x,-y,-z
6 -y,-x,-z
7 -x,y,-z
8 y,x,-z
9 -x,-y,-z
10 y,-x,-z
11 x,y,-z
12 -y,x,-z
13 -x,y,z
14 y,x,z
15 x,-y,z
16 -y,-x,z
_cell_length_a                   10.9396(6)
_cell_length_b                   10.9396(6)
_cell_length_c                   14.0640(11)
_cell_angle_alpha                90
_cell_angle_beta                 90
_cell_angle_gamma                90
_cell_volume                     1683.11
loop_
_atom_site_label
_atom_site_type_symbol
_atom_site_fract_x
_atom_site_fract_y
_atom_site_fract_z
Zn1 Zn 0.0000 0.0000 0.39515(6)
O1 O 0.1828(4) 0.0000 0.4216(3)
N1 N 0.0000 0.0000 0.2504(6)
C1 C 0.2336(6) 0.0000 0.5000
C2 C 0.3722(7) 0.0000 0.5000
C3 C 0.4379(9) 0.0782(13) 0.4471(10)
C4 C 0.369(3) 0.178(4) 0.381(5)
C5 C 0.441(4) 0.253(10) 0.327(10)
C6 C 0.0683(9) 0.0683(9) 0.1998(9)
C7 C 0.0672(12) 0.0672(12) 0.1016(8)
C8 C 0.0000 0.0000 0.0519(7)
H1 H 0.2833 0.1843 0.3789
H2 H 0.4013 0.3097 0.2873
O1B O 0.8172(4) 0.0000 0.4216(3)
C1B C 0.7664(6) 0.0000 0.5000
C2B C 0.6278(7) 0.0000 0.5000
C3L C 0.5621(9) 0.0782(13) 0.4471(10)
C4L C 0.631(3) 0.178(4) 0.381(5)
C5L C 0.559(4) 0.253(10) 0.327(10)
H1L H 0.7167 0.1843 0.3789
H2L H 0.5987 0.3097 0.2873
C3N C 0.4379(9) -0.0782(13) 0.4471(10)
C4N C 0.369(3) -0.178(4) 0.381(5)
C5N C 0.441(4) -0.253(10) 0.327(10)
H1N H 0.2833 -0.1843 0.3789
H2N H 0.4013 -0.3097 0.2873
O1H O 0.8172(4) 0.0000 0.5784(3)
C3H C 0.5621(9) -0.0782(13) 0.5529(10)
C4H C 0.631(3) -0.178(4) 0.619(5)
C5H C 0.559(4) -0.253(10) 0.673(10)
H1H H 0.7167 -0.1843 0.6211
H2H H 0.5987 -0.3097 0.7127
O1J O 0.1828(4) 0.0000 0.5784(3)
C3J C 0.4379(9) 0.0782(13) 0.5529(10)
C4J C 0.369(3) 0.178(4) 0.619(5)
C5J C 0.441(4) 0.253(10) 0.673(10)
H1J H 0.2833 0.1843 0.6211
H2J H 0.4013 0.3097 0.7127
C3D C 0.4379(9) -0.0782(13) 0.5529(10)
C4D C 0.369(3) -0.178(4) 0.619(5)
C5D C 0.441(4) -0.253(10) 0.673(10)
H1D H 0.2833 -0.1843 0.6211
H2D H 0.4013 -0.3097 0.7127
C3F C 0.5621(9) 0.0782(13) 0.5529(10)
C4F C 0.631(3) 0.178(4) 0.619(5)
C5F C 0.559(4) 0.253(10) 0.673(10)
H1F H 0.7167 0.1843 0.6211
H2F H 0.5987 0.3097 0.7127
C3B C 0.5621(9) -0.0782(13) 0.4471(10)
C4B C 0.631(3) -0.178(4) 0.381(5)
C5B C 0.559(4) -0.253(10) 0.327(10)
H1B H 0.7167 -0.1843 0.3789
H2B H 0.5987 -0.3097 0.2873
C6A C -0.0683(9) 0.0683(9) 0.1998(9)
C7A C -0.0672(12) 0.0672(12) 0.1016(8)
C6B C -0.0683(9) -0.0683(9) 0.1998(9)
C7B C -0.0672(12) -0.0672(12) 0.1016(8)
C6C C 0.0683(9) -0.0683(9) 0.1998(9)
C7C C 0.0672(12) -0.0672(12) 0.1016(8)
N1H N 0.0000 0.0000 -0.2504(6)
C6H C -0.0683(9) -0.0683(9) -0.1998(9)
C7H C -0.0672(12) -0.0672(12) -0.1016(8)
C8H C 0.0000 0.0000 -0.0519(7)
C6I C 0.0683(9) -0.0683(9) -0.1998(9)
C7I C 0.0672(12) -0.0672(12) -0.1016(8)
C6J C 0.0683(9) 0.0683(9) -0.1998(9)
C7J C 0.0672(12) 0.0672(12) -0.1016(8)
C6K C -0.0683(9) 0.0683(9) -0.1998(9)
C7K C -0.0672(12) 0.0672(12) -0.1016(8)
O1A O 0.0000 -0.8172(4) 0.4216(3)
C1A C 0.0000 -0.7664(6) 0.5000
C2A C 0.0000 -0.6278(7) 0.5000
C3A C -0.0782(13) -0.5621(9) 0.4471(10)
C4A C -0.178(4) -0.631(3) 0.381(5)
C5A C -0.253(10) -0.559(4) 0.327(10)
H1A H -0.1843 -0.7167 0.3789
H2A H -0.3097 -0.5987 0.2873
O1C O -0.0000 -0.1828(4) 0.4216(3)
C1C C 0.0000 -0.2336(6) 0.5000
C2C C 0.0000 -0.3722(7) 0.5000
C3O C -0.0782(13) -0.4379(9) 0.4471(10)
C4O C -0.178(4) -0.369(3) 0.381(5)
C5O C -0.253(10) -0.441(4) 0.327(10)
H1O H -0.1843 -0.2833 0.3789
H2O H -0.3097 -0.4013 0.2873
C3M C 0.0782(13) -0.5621(9) 0.4471(10)
C4M C 0.178(4) -0.631(3) 0.381(5)
C5M C 0.253(10) -0.559(4) 0.327(10)
H1M H 0.1843 -0.7167 0.3789
H2M H 0.3097 -0.5987 0.2873
O1I O 0.0000 -0.1828(4) 0.5784(3)
C3I C 0.0782(13) -0.4379(9) 0.5529(10)
C4I C 0.178(4) -0.369(3) 0.619(5)
C5I C 0.253(10) -0.441(4) 0.673(10)
H1I H 0.1843 -0.2833 0.6211
H2I H 0.3097 -0.4013 0.7127
O1K O 0.0000 -0.8172(4) 0.5784(3)
C3K C -0.0782(13) -0.5621(9) 0.5529(10)
C4K C -0.178(4) -0.631(3) 0.619(5)
C5K C -0.253(10) -0.559(4) 0.673(10)
H1K H -0.1843 -0.7167 0.6211
H2K H -0.3097 -0.5987 0.7127
C3G C 0.0782(13) -0.5621(9) 0.5529(10)
C4G C 0.178(4) -0.631(3) 0.619(5)
C5G C 0.253(10) -0.559(4) 0.673(10)
H1G H 0.1843 -0.7167 0.6211
H2G H 0.3097 -0.5987 0.7127
C3E C -0.0782(13) -0.4379(9) 0.5529(10)
C4E C -0.178(4) -0.369(3) 0.619(5)
C5E C -0.253(10) -0.441(4) 0.673(10)
H1E H -0.1843 -0.2833 0.6211
H2E H -0.3097 -0.4013 0.7127
C3C C 0.0782(13) -0.4379(9) 0.4471(10)
C4C C 0.178(4) -0.369(3) 0.381(5)
C5C C 0.253(10) -0.441(4) 0.327(10)
H1C H 0.1843 -0.2833 0.3789
H2C H 0.3097 -0.4013 0.2873
Zn1H Zn 0.0000 0.0000 -0.39515(6)
Zn1_2 Zn 0.0000 -1.0000 0.39515(6)
Zn1_3 Zn 1.0000 0.0000 0.39515(6)
Zn1H_2 Zn 0.0000 -1.0000 0.60485(6)
Zn1H_3 Zn 0.0000 0.0000 0.60485(6)
Zn1H_4 Zn 1.0000 0.0000 0.60485(6)
O1A_2 O 0.0000 0.1828(4) 0.4216(3)
O1B_2 O -0.1828(4) 0.0000 0.4216(3)
O1H_2 O -0.1828(4) 0.0000 -0.4216(3)
O1I_2 O 0.0000 -0.1828(4) -0.4216(3)
O1J_2 O 0.1828(4) 0.0000 -0.4216(3)
O1K_2 O 0.0000 0.1828(4) -0.4216(3)
loop_
_geom_bond_atom_site_label_1
_geom_bond_atom_site_label_2
_geom_bond_site_symmetry_1
_geom_bond_site_symmetry_2
Zn1 O1 1_555 1_555
O1 C1 1_555 1_555
N1 Zn1 1_555 1_555
C1 C2 1_555 1_555
C2 C3 1_555 1_555
C3 C4 1_555 1_555
C4 C5 1_555 1_555
C5 H2 1_555 1_555
C6 N1 1_555 1_555
C7 C6 1_555 1_555
C8 C7 1_555 1_555
H1 C4 1_555 1_555
O1B C1B 1_555 1_555
C1B C2B 1_555 1_555
C2B C3L 1_555 1_555
C3L C3 1_555 1_555
C4L C3L 1_555 1_555
C5L C5 1_555 1_555
H1L C4L 1_555 1_555
H2L C5L 1_555 1_555
C3N C2 1_555 1_555
C4N C3N 1_555 1_555
C5N C4N 1_555 1_555
H1N C4N 1_555 1_555
H2N C5N 1_555 1_555
O1H C1B 1_555 1_555
C3H C2B 1_555 1_555
C4H C3H 1_555 1_555
C5H C4H 1_555 1_555
H1H C4H 1_555 1_555
H2H C5H 1_555 1_555
O1J C1 1_555 1_555
C3J C2 1_555 1_555
C4J C3J 1_555 1_555
C5J C4J 1_555 1_555
H1J C4J 1_555 1_555
H2J C5J 1_555 1_555
C3D C2 1_555 1_555
C4D C3D 1_555 1_555
C5D C5H 1_555 1_555
H1D C4D 1_555 1_555
H2D C5D 1_555 1_555
C3F C2B 1_555 1_555
C4F C3F 1_555 1_555
C5F C5J 1_555 1_555
H1F C4F 1_555 1_555
H2F C5F 1_555 1_555
C3B C2B 1_555 1_555
C4B C3B 1_555 1_555
C5B C5N 1_555 1_555
H1B C4B 1_555 1_555
H2B C5B 1_555 1_555
C6A N1 1_555 1_555
C7A C7 1_555 1_555
C6B N1 1_555 1_555
C7B C8 1_555 1_555
C6C N1 1_555 1_555
C7C C7 1_555 1_555
N1H C6H 1_555 1_555
C6H C7H 1_555 1_555
C7H C8H 1_555 1_555
C8H C8 1_555 1_555
C6I N1H 1_555 1_555
C7I C7H 1_555 1_555
C6J N1H 1_555 1_555
C7J C8H 1_555 1_555
C6K N1H 1_555 1_555
C7K C7H 1_555 1_555
O1A C1A 1_555 1_555
C1A C2A 1_555 1_555
C2A C3A 1_555 1_555
C3A C4A 1_555 1_555
C4A C5A 1_555 1_555
C5A H2A 1_555 1_555
H1A C4A 1_555 1_555
O1C Zn1 1_555 1_555
C1C O1C 1_555 1_555
C2C C1C 1_555 1_555
C3O C3A 1_555 1_555
C4O C3O 1_555 1_555
C5O C5A 1_555 1_555
H1O C4O 1_555 1_555
H2O C5O 1_555 1_555
C3M C2A 1_555 1_555
C4M C3M 1_555 1_555
C5M C4M 1_555 1_555
H1M C4M 1_555 1_555
H2M C5M 1_555 1_555
O1I C1C 1_555 1_555
C3I C2C 1_555 1_555
C4I C3I 1_555 1_555
C5I C4I 1_555 1_555
H1I C4I 1_555 1_555
H2I C5I 1_555 1_555
O1K C1A 1_555 1_555
C3K C2A 1_555 1_555
C4K C3K 1_555 1_555
C5K C4K 1_555 1_555
H1K C4K 1_555 1_555
H2K C5K 1_555 1_555
C3G C2A 1_555 1_555
C4G C3G 1_555 1_555
C5G C5I 1_555 1_555
H1G C4G 1_555 1_555
H2G C5G 1_555 1_555
C3E C2C 1_555 1_555
C4E C3E 1_555 1_555
C5E C5K 1_555 1_555
H1E C4E 1_555 1_555
H2E C5E 1_555 1_555
C3C C2C 1_555 1_555
C4C C3C 1_555 1_555
C5C C5M 1_555 1_555
H1C C4C 1_555 1_555
H2C C5C 1_555 1_555
Zn1H N1H 1_555 1_555
Zn1_2 O1A 1_555 1_555
Zn1_3 O1B 1_555 1_555
Zn1H_2 O1K 1_555 1_555
Zn1H_3 O1J 1_555 1_555
Zn1H_4 O1H 1_555 1_555
O1A_2 Zn1 1_555 1_555
O1B_2 Zn1 1_555 1_555
O1H_2 Zn1H 1_555 1_555
O1I_2 Zn1H 1_555 1_555
O1J_2 Zn1H 1_555 1_555
O1K_2 Zn1H 1_555 1_555
C3 C3N 1_555 1_555
C3 C3J 1_555 1_555
C6 C6A 1_555 1_555
C6 C6C 1_555 1_555
C8 C7A 1_555 1_555
C8 C7C 1_555 1_555
C3L C3F 1_555 1_555
C3L C3B 1_555 1_555
C4L C5L 1_555 1_555
C3N C3D 1_555 1_555
C3N C3B 1_555 1_555
C3H C3D 1_555 1_555
C3H C3F 1_555 1_555
C3H C3B 1_555 1_555
C3J C3D 1_555 1_555
C3J C3F 1_555 1_555
C4D C5D 1_555 1_555
C4F C5F 1_555 1_555
C4B C5B 1_555 1_555
C6A C7A 1_555 1_555
C6A C6B 1_555 1_555
C7A C7B 1_555 1_555
C6B C7B 1_555 1_555
C6B C6C 1_555 1_555
C7B C7C 1_555 1_555
C6C C7C 1_555 1_555
C6H C6I 1_555 1_555
C6H C6K 1_555 1_555
C8H C7I 1_555 1_555
C8H C7K 1_555 1_555
C6I C7I 1_555 1_555
C6I C6J 1_555 1_555
C7I C7J 1_555 1_555
C6J C7J 1_555 1_555
C6J C6K 1_555 1_555
C7J C7K 1_555 1_555
C6K C7K 1_555 1_555
C3A C3M 1_555 1_555
C3A C3K 1_555 1_555
C2C C3O 1_555 1_555
C3O C3E 1_555 1_555
C3O C3C 1_555 1_555
C4O C5O 1_555 1_555
C3M C3G 1_555 1_555
C3M C3C 1_555 1_555
O1I Zn1H_3 1_555 1_555
C3I C3G 1_555 1_555
C3I C3E 1_555 1_555
C3I C3C 1_555 1_555
C3K C3G 1_555 1_555
C3K C3E 1_555 1_555
C4G C5G 1_555 1_555
C4E C5E 1_555 1_555
C4C C5C 1_555 1_555

#END
