
#######################################################################
#
#                 Cambridge Crystallographic Data Centre
#                                CCDC 
#
#######################################################################
#
# If this CIF has been generated from an entry in the Cambridge 
# Structural Database, then it will include bibliographic, chemical, 
# crystal, experimental, refinement or atomic coordinate data resulting 
# from the CCDC's data processing and validation procedures.
#
#######################################################################

data_GUVYUT
_chemical_formula_moiety         'C29 H15 N4 O13 Zn7'
_symmetry_cell_setting           triclinic
_symmetry_space_group_name_H-M   'P -1'
_symmetry_Int_Tables_number      2
_space_group_name_Hall           '-P 1'
loop_
_symmetry_equiv_pos_site_id
_symmetry_equiv_pos_as_xyz
1 x,y,z
2 -x,-y,-z
_cell_length_a                   10.887(3)
_cell_length_b                   10.923(3)
_cell_length_c                   14.068(4)
_cell_angle_alpha                89.214(8)
_cell_angle_beta                 87.590(7)
_cell_angle_gamma                79.816(8)
_cell_volume                     1645.1
loop_
_atom_site_label
_atom_site_type_symbol
_atom_site_fract_x
_atom_site_fract_y
_atom_site_fract_z
O9 O 0.6546(14) -0.0051(13) 0.3072(11)
N3 N 0.6623(12) 0.0079(11) 0.1545(10)
C27 C 0.5902(16) 0.0316(15) 0.0692(13)
C28 C 0.8061(14) 0.0004(13) 0.1482(11)
C29 C 0.5892(19) 0.0110(17) 0.2409(16)
Zn1 Zn 0.21780(4) 0.33787(4) 0.29980(3)
Zn2 Zn 0.22961(4) 0.33953(4) 0.09010(3)
O1 O 0.4010(4) 0.3264(5) 0.2660(3)
O2 O 0.4137(3) 0.3272(4) 0.1088(3)
O3 O 1.0352(4) 0.3474(5) 0.2740(3)
O4 O 1.0434(3) 0.3538(4) 0.1169(3)
O5 O 0.1990(5) 0.5229(3) 0.2740(3)
O6 O 0.2134(5) 0.5259(3) 0.1177(3)
N1 N 0.2213(4) 0.3402(4) 0.4434(3)
N2 N 0.2314(4) 0.3332(4) 0.9455(3)
C1 C 0.4596(4) 0.3284(4) 0.1883(3)
C2 C 0.5974(4) 0.3327(5) 0.1903(4)
C3 C 0.6625(4) 0.3604(4) 0.1082(3)
C4 C 0.6595(5) 0.3131(6) 0.2753(4)
C5 C 0.7854(5) 0.3196(6) 0.2773(4)
C6 C 0.7885(4) 0.3657(4) 0.1105(3)
C7 C 0.8504(4) 0.3443(5) 0.1942(4)
C8 C 0.9874(4) 0.3490(4) 0.1959(3)
C9 C 0.2115(4) 0.5760(4) 0.1974(3)
C10 C 0.2221(5) 0.7119(4) 0.1990(4)
C11 C 0.2768(13) 0.7601(18) 0.2811(12)
C12 C 0.245(3) 0.7733(17) 0.1179(15)
C13 C 0.248(3) 0.905(2) 0.1195(15)
C14 C 0.3071(9) 0.2588(8) 0.4887(7)
C15 C 0.1464(12) 0.4222(10) 0.5945(7)
C16 C 0.1500(12) 0.4243(10) 0.4957(7)
C17 C 0.3151(10) 0.2542(9) 0.5854(7)
C18 C 0.2278(5) 0.3370(5) 0.6417(3)
C19 C 0.2305(5) 0.3341(5) 0.7467(3)
C20 C 0.1202(5) 0.3478(5) 0.8018(4)
C21 C 0.3430(5) 0.3181(5) 0.7934(4)
C22 C 0.1248(5) 0.3475(5) 0.8994(3)
C23 C 0.3382(5) 0.3190(5) 0.8920(3)
H1 H 0.6154 0.2953 0.3320
H2 H 0.6205 0.3759 0.0502
H3 H 0.8326 0.3843 0.0540
H4 H 0.8272 0.3071 0.3356
H5 H 0.0421 0.3574 0.7724
H6 H 0.4207 0.3070 0.7585
H7 H 0.0483 0.3579 0.9359
H8 H 0.4147 0.3089 0.9236
O7 O 0.2367(5) 1.1529(3) 0.2810(3)
O8 O 0.2444(4) 1.1547(3) 0.1236(3)
C24 C 0.2402(5) 1.1012(4) 0.2022(4)
C25 C 0.2379(5) 0.9641(4) 0.2020(4)
C26 C 0.2860(13) 0.883(2) 0.2768(16)
Zn1_2 Zn 0.21780(4) 1.33787(4) 0.29980(3)
Zn1_3 Zn 1.21780(4) 0.33787(4) 0.29980(3)
Zn2_2 Zn 0.22961(4) 0.33953(4) 1.09010(3)
Zn2_3 Zn 0.22961(4) 1.33953(4) 0.09010(3)
Zn2_4 Zn 1.22961(4) 0.33953(4) 0.09010(3)
O3_2 O 0.0352(4) 0.3474(5) 0.2740(3)
O4_2 O 0.0434(3) 0.3538(4) 0.1169(3)
N2_2 N 0.2314(4) 0.3332(4) -0.0545(3)
O7_2 O 0.2367(5) 0.1529(3) 0.2810(3)
O8_2 O 0.2444(4) 0.1547(3) 0.1236(3)
loop_
_geom_bond_atom_site_label_1
_geom_bond_atom_site_label_2
_geom_bond_site_symmetry_1
_geom_bond_site_symmetry_2
Zn1 O1 1_555 1_555
Zn2 O2 1_555 1_555
O1 C1 1_555 1_555
O2 C1 1_555 1_555
O3 C8 1_555 1_555
O4 C8 1_555 1_555
O5 Zn1 1_555 1_555
O6 Zn2 1_555 1_555
N1 Zn1 1_555 1_555
N2 C22 1_555 1_555
C1 C2 1_555 1_555
C2 C3 1_555 1_555
C3 C6 1_555 1_555
C4 C2 1_555 1_555
C5 C4 1_555 1_555
C6 C7 1_555 1_555
C7 C5 1_555 1_555
C8 C7 1_555 1_555
C9 O5 1_555 1_555
C10 C9 1_555 1_555
C11 C10 1_555 1_555
C12 C10 1_555 1_555
C13 C12 1_555 1_555
C14 N1 1_555 1_555
C15 C16 1_555 1_555
C16 N1 1_555 1_555
C17 C14 1_555 1_555
C18 C15 1_555 1_555
C19 C18 1_555 1_555
C20 C19 1_555 1_555
C21 C19 1_555 1_555
C22 C20 1_555 1_555
C23 N2 1_555 1_555
H1 C4 1_555 1_555
H2 C3 1_555 1_555
H3 C6 1_555 1_555
H4 C5 1_555 1_555
H5 C20 1_555 1_555
H6 C21 1_555 1_555
H7 C22 1_555 1_555
H8 C23 1_555 1_555
O7 C24 1_555 1_555
O8 C24 1_555 1_555
C24 C25 1_555 1_555
C25 C13 1_555 1_555
C26 C11 1_555 1_555
O9 C29 1_555 1_555
N3 C27 1_555 1_555
C28 N3 1_555 1_555
C29 N3 1_555 1_555
Zn1_2 O7 1_555 1_555
Zn1_3 O3 1_555 1_555
Zn2_2 N2 1_555 1_555
Zn2_3 O8 1_555 1_555
Zn2_4 O4 1_555 1_555
O3_2 Zn1 1_555 1_555
O4_2 Zn2 1_555 1_555
N2_2 Zn2 1_555 1_555
O7_2 Zn1 1_555 1_555
O8_2 Zn2 1_555 1_555
O6 C9 1_555 1_555
C17 C18 1_555 1_555
C21 C23 1_555 1_555
C25 C26 1_555 1_555

#END
