
#######################################################################
#
#                 Cambridge Crystallographic Data Centre
#                                CCDC 
#
#######################################################################
#
# If this CIF has been generated from an entry in the Cambridge 
# Structural Database, then it will include bibliographic, chemical, 
# crystal, experimental, refinement or atomic coordinate data resulting 
# from the CCDC's data processing and validation procedures.
#
#######################################################################

data_WIFGOJ
_chemical_formula_moiety         '(C12 H22 Cd6 Cl6 N24 O2)n'
_symmetry_cell_setting           tetragonal
_symmetry_space_group_name_H-M   'I -4'
_symmetry_Int_Tables_number      82
_space_group_name_Hall           'I -4'
loop_
_symmetry_equiv_pos_site_id
_symmetry_equiv_pos_as_xyz
1 x,y,z
2 -x,-y,z
3 y,-x,-z
4 -y,x,-z
5 1/2+x,1/2+y,1/2+z
6 1/2-x,1/2-y,1/2+z
7 1/2+y,1/2-x,1/2-z
8 1/2-y,1/2+x,1/2-z
_cell_length_a                   22.2366(2)
_cell_length_b                   22.2366(2)
_cell_length_c                   18.6742(3)
_cell_angle_alpha                90
_cell_angle_beta                 90
_cell_angle_gamma                90
_cell_volume                     9233.76
loop_
_atom_site_label
_atom_site_type_symbol
_atom_site_fract_x
_atom_site_fract_y
_atom_site_fract_z
_atom_site_U_iso_or_equiv
_atom_site_thermal_displace_type
Cd1 Cd 0.81619(5) 0.69372(5) 0.60517(5) 0.0249 Uani
Cd2 Cd 0.91594(5) 0.70133(5) 0.76976(6) 0.0247 Uani
Cd3 Cd 1.02606(4) 0.76822(5) 0.90271(5) 0.0244 Uani
Cd4 Cd 0.97403(4) 0.76812(5) 1.09721(5) 0.0245 Uani
Cd5 Cd 1.08406(5) 0.70123(5) 1.23020(6) 0.0247 Uani
Cd6 Cd 1.18373(5) 0.69365(5) 1.39483(5) 0.0248 Uani
Cl1 Cl 0.92635(18) 0.7152(2) 0.6311(2) 0.0387 Uani
Cl2 Cl 0.9628(2) 0.80436(18) 0.7980(2) 0.0400 Uani
Cl3 Cl 1.0001(2) 0.84387(18) 1.0001(2) 0.0413 Uani
Cl4 Cl 1.0371(2) 0.80434(18) 1.2021(2) 0.0403 Uani
Cl5 Cl 1.07353(18) 0.7149(2) 1.3689(2) 0.0403 Uani
Cl6 Cl 1.21334(19) 0.78655(19) 1.46757(19) 0.0385 Uani
N1 N 0.8201(6) 0.6330(6) 0.5043(6) 0.0313 Uani
N2 N 0.7907(5) 0.5801(6) 0.5045(6) 0.0260 Uani
N3 N 0.7906(5) 0.5581(5) 0.4386(6) 0.0223 Uani
N4 N 0.8195(5) 0.5964(5) 0.3944(6) 0.0243 Uani
N5 N 0.8723(5) 0.6083(5) 0.7385(6) 0.0227 Uani
N6 N 0.8336(5) 0.6075(5) 0.6821(6) 0.0213 Uani
N7 N 0.8139(5) 0.5527(6) 0.6732(6) 0.0267 Uani
N8 N 0.8374(5) 0.5155(5) 0.7202(6) 0.0217 Uani
N9 N 0.8211(5) 0.7508(5) 0.7706(6) 0.0230 Uani
N10 N 0.7911(6) 0.7504(6) 0.7090(6) 0.0283 Uani
N11 N 0.7499(6) 0.7906(6) 0.7090(6) 0.0253 Uani
N12 N 0.7511(5) 0.8211(5) 0.7699(6) 0.0277 Uani
N13 N 0.8850(5) 0.8153(5) 1.1199(7) 0.0300 Uani
N14 N 0.8313(5) 0.7905(5) 1.1087(6) 0.0250 Uani
N15 N 0.7901(5) 0.8309(5) 1.1097(7) 0.0287 Uani
N16 N 0.8161(6) 0.8858(6) 1.1209(6) 0.0310 Uani
N17 N 1.1282(5) 0.6081(6) 1.2622(6) 0.0273 Uani
N18 N 1.1661(5) 0.6075(5) 1.3169(6) 0.0237 Uani
N19 N 1.1865(5) 0.5521(6) 1.3268(6) 0.0263 Uani
N20 N 1.1617(5) 0.5158(5) 1.2796(6) 0.0203 Uani
N21 N 1.1800(6) 0.6333(5) 1.4951(6) 0.0300 Uani
N22 N 1.2096(5) 0.5809(5) 1.4952(6) 0.0227 Uani
N23 N 1.2101(6) 0.5580(5) 1.5619(6) 0.0310 Uani
N24 N 1.1805(5) 0.5968(5) 1.6055(6) 0.0247 Uani
C1 C 0.8371(7) 0.6427(7) 0.4357(8) 0.0303 Uani
C2 C 0.8691(8) 0.6947(8) 0.4093(9) 0.0493 Uani
H1 H 0.8690 0.6943 0.3579 0.0740 Uiso
H2 H 0.9098 0.6938 0.4264 0.0740 Uiso
H3 H 0.8497 0.7306 0.4261 0.0740 Uiso
C3 C 0.8735(7) 0.5515(7) 0.7603(8) 0.0323 Uani
C4 C 0.9121(8) 0.5306(7) 0.8254(9) 0.0447 Uani
H4 H 0.9307 0.5649 0.8473 0.0670 Uiso
H5 H 0.9425 0.5032 0.8093 0.0670 Uiso
H6 H 0.8867 0.5109 0.8597 0.0670 Uiso
C5 C 0.7954(7) 0.7963(6) 0.8081(7) 0.0243 Uani
C6 C 0.8131(7) 0.8143(7) 0.8817(7) 0.0417 Uani
H7 H 0.7867 0.8454 0.8984 0.0620 Uiso
H8 H 0.8537 0.8290 0.8813 0.0620 Uiso
H9 H 0.8104 0.7801 0.9130 0.0620 Uiso
C7 C 0.8739(7) 0.8736(7) 1.1262(7) 0.0247 Uani
C8 C 0.9229(7) 0.9230(8) 1.1357(10) 0.0530 Uani
H10 H 0.9114 0.9496 1.1737 0.0790 Uiso
H11 H 0.9268 0.9454 1.0920 0.0790 Uiso
H12 H 0.9607 0.9044 1.1471 0.0790 Uiso
C9 C 1.1256(7) 0.5518(7) 1.2392(8) 0.0313 Uani
C10 C 1.0879(7) 0.5300(7) 1.1749(9) 0.0353 Uani
H13 H 1.0570 0.5589 1.1646 0.0530 Uiso
H14 H 1.0697 0.4920 1.1862 0.0530 Uiso
H15 H 1.1134 0.5255 1.1338 0.0530 Uiso
C11 C 1.1623(7) 0.6423(7) 1.5655(8) 0.0350 Uani
C12 C 1.1303(8) 0.6960(8) 1.5901(9) 0.0513 Uani
H16 H 1.0885 0.6928 1.5776 0.0770 Uiso
H17 H 1.1472 0.7310 1.5676 0.0770 Uiso
H18 H 1.1342 0.6995 1.6411 0.0770 Uiso
Cd1C Cd 1.30628(5) 0.81619(5) 1.39483(5) 0.0249 Uani
Cd1E Cd 0.68381(5) 0.80628(5) 1.10517(5) 0.0249 Uani
Cd2F Cd 1.20133(5) 0.58406(5) 1.73024(6) 0.0247 Uani
Cd2G Cd 0.79867(5) 0.41594(5) 0.73024(6) 0.0247 Uani
Cd3B Cd 0.76822(5) 0.97394(4) 1.09729(5) 0.0244 Uani
Cd3F Cd 1.26822(5) 0.47394(4) 1.59729(5) 0.0244 Uani
Cd3G Cd 0.73178(5) 0.52606(4) 0.59729(5) 0.0244 Uani
Cd4F Cd 1.26812(5) 0.52597(4) 1.40279(5) 0.0245 Uani
Cd4G Cd 0.73188(5) 0.47403(4) 0.40279(5) 0.0245 Uani
Cd5B Cd 0.70123(5) 0.91594(5) 0.76980(6) 0.0247 Uani
Cd5F Cd 1.20123(5) 0.41594(5) 1.26980(6) 0.0247 Uani
Cd5G Cd 0.79877(5) 0.58406(5) 0.26980(6) 0.0247 Uani
Cd6B Cd 0.69365(5) 0.81627(5) 0.60517(5) 0.0248 Uani
Cd6G Cd 0.80635(5) 0.68373(5) 1.10517(5) 0.0248 Uani
Cl6B Cl 0.78655(19) 0.78666(19) 0.53243(19) 0.0385 Uani
N2F N 1.0801(6) 0.7093(5) 0.9955(6) 0.0260 Uani
N3F N 1.0581(5) 0.7094(5) 1.0614(6) 0.0223 Uani
N4F N 1.0964(5) 0.6805(5) 1.1056(6) 0.0243 Uani
N7F N 1.0527(6) 0.6861(5) 0.8268(6) 0.0267 Uani
N8F N 1.0155(5) 0.6626(5) 0.7798(6) 0.0217 Uani
N11C N 1.2094(6) 0.7499(6) 1.2910(6) 0.0253 Uani
N12C N 1.1789(5) 0.7511(5) 1.2301(6) 0.0277 Uani
N14F N 1.2905(5) 0.6687(5) 1.3913(6) 0.0250 Uani
N15E N 0.7099(5) 0.6691(5) 0.6097(7) 0.0287 Uani
N16C N 1.1142(6) 0.8161(6) 0.8791(6) 0.0310 Uani
N19G N 0.9479(6) 0.6865(5) 1.1732(6) 0.0263 Uani
N20G N 0.9842(5) 0.6617(5) 1.2204(6) 0.0203 Uani
N22G N 0.9191(5) 0.7096(5) 1.0048(6) 0.0227 Uani
N23G N 0.9420(5) 0.7101(6) 0.9381(6) 0.0310 Uani
N24G N 0.9032(5) 0.6805(5) 0.8945(6) 0.0247 Uani
O1 O 0.324(3) 0.670(3) 0.211(2) 0.0833 Uani
O2 O 0.045(3) 0.503(5) 1.000(3) 0.1533 Uani
loop_
_atom_site_aniso_label
_atom_site_aniso_U_11
_atom_site_aniso_U_22
_atom_site_aniso_U_33
_atom_site_aniso_U_23
_atom_site_aniso_U_13
_atom_site_aniso_U_12
Cd1 0.0273(7) 0.0243(7) 0.0230(5) -0.0034(5) -0.0029(5) 0.0018(5)
Cd2 0.0235(7) 0.0268(7) 0.0237(5) -0.0030(5) -0.0036(5) 0.0001(5)
Cd3 0.0209(6) 0.0283(7) 0.0241(5) -0.0027(5) 0.0015(5) -0.0028(5)
Cd4 0.0209(6) 0.0284(7) 0.0241(5) 0.0018(5) 0.0007(5) 0.0026(5)
Cd5 0.0230(7) 0.0266(7) 0.0244(5) 0.0040(5) -0.0037(5) -0.0012(5)
Cd6 0.0256(7) 0.0254(7) 0.0233(5) 0.0033(5) -0.0022(5) -0.0020(5)
Cl1 0.029(2) 0.055(3) 0.032(2) 0.0032(18) -0.0035(17) -0.006(2)
Cl2 0.043(3) 0.036(3) 0.041(2) 0.0042(18) -0.0116(19) -0.010(2)
Cl3 0.067(3) 0.025(2) 0.032(2) -0.0015(17) 0.016(2) -0.003(2)
Cl4 0.044(3) 0.038(3) 0.039(2) -0.0040(18) -0.0138(19) 0.006(2)
Cl5 0.029(2) 0.062(3) 0.030(2) 0.0002(19) -0.0024(17) 0.009(2)
Cl6 0.038(3) 0.045(3) 0.0324(19) -0.0028(18) 0.0075(17) -0.010(2)
N1 0.047(9) 0.030(9) 0.017(6) -0.006(5) -0.002(6) -0.008(7)
N2 0.026(8) 0.034(9) 0.018(6) -0.004(5) 0.006(5) 0.008(6)
N3 0.034(8) 0.018(7) 0.015(6) -0.001(5) 0.007(5) -0.011(6)
N4 0.030(7) 0.021(7) 0.022(6) 0.007(5) -0.002(5) -0.009(5)
N5 0.013(7) 0.037(8) 0.018(6) 0.005(5) -0.008(5) 0.001(5)
N6 0.022(7) 0.016(7) 0.026(6) 0.009(5) -0.005(5) -0.010(6)
N7 0.034 0.027 0.019 -0.003 -0.007 -0.004
N8 0.021 0.015 0.029 0.002 -0.007 0
N9 0.022(7) 0.023(7) 0.024(6) -0.007(5) -0.006(5) 0.007(5)
N10 0.022(8) 0.039(9) 0.024(7) -0.008(5) -0.005(5) 0.001(6)
N11 0.03 0.029 0.017 -0.005 -0.001 0.004
N12 0.022 0.038 0.023 -0.012 -0.011 0.002
N13 0.019(8) 0.021(8) 0.050(9) 0.000(6) -0.006(6) 0.002(6)
N14 0.016 0.033 0.026 0 0.004 -0.004
N15 0.025 0.026 0.035 -0.003 0.001 0.01
N16 0.031 0.024 0.038 -0.01 -0.013 -0.004
N17 0.019(7) 0.042(9) 0.021(6) 0.000(6) -0.002(5) -0.003(6)
N18 0.020(7) 0.025(8) 0.026(6) -0.006(5) -0.015(5) 0.008(6)
N19 0.037 0.025 0.017 -0.006 -0.011 0
N20 0.022 0.017 0.022 0 -0.011 0
N21 0.046(9) 0.018(8) 0.026(7) 0.004(5) 0.002(6) 0.011(7)
N22 0.028 0.018 0.022 0.001 0.003 -0.004
N23 0.05 0.019 0.024 -0.001 -0.006 0.007
N24 0.03 0.021 0.023 -0.002 0.005 0.003
C1 0.040(11) 0.023(10) 0.028(8) 0.001(7) 0.006(7) -0.009(8)
C2 0.071(14) 0.048(12) 0.029(9) -0.017(8) 0.028(9) -0.020(10)
C3 0.030(10) 0.024(10) 0.043(9) 0.021(8) 0.008(8) 0.002(7)
C4 0.046(12) 0.027(11) 0.061(12) 0.001(8) -0.016(9) 0.002(9)
C5 0.034(10) 0.013(9) 0.026(7) -0.002(6) -0.002(7) -0.006(7)
C6 0.046(12) 0.047(12) 0.032(9) 0.000(7) -0.018(7) 0.016(9)
C7 0.021(10) 0.020(10) 0.033(8) -0.003(6) -0.003(6) 0.003(7)
C8 0.025(11) 0.055(13) 0.079(13) -0.025(10) -0.012(9) 0.005(9)
C9 0.020(9) 0.037(11) 0.037(8) -0.007(8) 0.010(7) -0.010(7)
C10 0.035(11) 0.020(10) 0.051(10) 0.000(7) -0.013(8) -0.005(8)
C11 0.044(11) 0.030(11) 0.031(8) -0.002(7) 0.016(7) 0.003(8)
C12 0.074(14) 0.046(12) 0.034(10) 0.016(8) 0.028(9) 0.023(10)
Cd1C 0.0243 0.0273 0.023 0.0029 -0.0034 -0.0018
Cd1E 0.0273 0.0243 0.023 0.0034 0.0029 0.0018
Cd2F 0.0268 0.0235 0.0237 -0.0036 0.003 -0.0001
Cd2G 0.0268 0.0235 0.0237 0.0036 -0.003 -0.0001
Cd3B 0.0283 0.0209 0.0241 0.0015 0.0027 0.0028
Cd3F 0.0283 0.0209 0.0241 0.0015 0.0027 0.0028
Cd3G 0.0283 0.0209 0.0241 -0.0015 -0.0027 0.0028
Cd4F 0.0284 0.0209 0.0241 0.0007 -0.0018 -0.0026
Cd4G 0.0284 0.0209 0.0241 -0.0007 0.0018 -0.0026
Cd5B 0.0266 0.023 0.0244 -0.0037 -0.004 0.0012
Cd5F 0.0266 0.023 0.0244 -0.0037 -0.004 0.0012
Cd5G 0.0266 0.023 0.0244 0.0037 0.004 0.0012
Cd6B 0.0254 0.0256 0.0233 -0.0022 -0.0033 0.002
Cd6G 0.0254 0.0256 0.0233 0.0022 0.0033 0.002
Cl6B 0.045 0.038 0.0324 0.0075 0.0028 0.01
N2F 0.034 0.026 0.018 0.006 0.004 -0.008
N3F 0.018 0.034 0.015 0.007 0.001 0.011
N4F 0.021 0.03 0.022 -0.002 -0.007 0.009
N7F 0.027 0.034 0.019 -0.007 0.003 0.004
N8F 0.015 0.021 0.029 -0.007 -0.002 0
N11C 0.029 0.03 0.017 0.001 -0.005 -0.004
N12C 0.038 0.022 0.023 0.011 -0.012 -0.002
N14F 0.033 0.016 0.026 0.004 0 0.004
N15E 0.025 0.026 0.035 0.003 -0.001 0.01
N16C 0.024 0.031 0.038 0.013 -0.01 0.004
N19G 0.025 0.037 0.017 0.011 -0.006 0
N20G 0.017 0.022 0.022 0.011 0 0
N22G 0.018 0.028 0.022 -0.003 0.001 0.004
N23G 0.019 0.05 0.024 0.006 -0.001 -0.007
N24G 0.021 0.03 0.023 -0.005 -0.002 -0.003
O1 0.13(5) 0.09(5) 0.03(3) 0.01(3) -0.05(3) 0.07(4)
O2 0.13(6) 0.33(11) 0.00(3) -0.06(4) -0.02(3) 0.00(7)
loop_
_geom_bond_atom_site_label_1
_geom_bond_atom_site_label_2
_geom_bond_site_symmetry_1
_geom_bond_site_symmetry_2
Cd1 Cl1 1_555 1_555
Cd2 Cl1 1_555 1_555
Cd3 Cl2 1_555 1_555
Cd4 Cl3 1_555 1_555
Cd5 Cl4 1_555 1_555
Cd6 Cl5 1_555 1_555
Cl2 Cd2 1_555 1_555
Cl3 Cd3 1_555 1_555
Cl4 Cd4 1_555 1_555
Cl5 Cd5 1_555 1_555
Cl6 Cd6 1_555 1_555
N1 Cd1 1_555 1_555
N2 N1 1_555 1_555
N3 N2 1_555 1_555
N4 N3 1_555 1_555
N5 Cd2 1_555 1_555
N6 Cd1 1_555 1_555
N7 N6 1_555 1_555
N8 N7 1_555 1_555
N9 Cd2 1_555 1_555
N10 Cd1 1_555 1_555
N11 N10 1_555 1_555
N12 N11 1_555 1_555
N13 Cd4 1_555 1_555
N14 N13 1_555 1_555
N15 N14 1_555 1_555
N16 N15 1_555 1_555
N17 Cd5 1_555 1_555
N18 Cd6 1_555 1_555
N19 N18 1_555 1_555
N20 N19 1_555 1_555
N21 Cd6 1_555 1_555
N22 N21 1_555 1_555
N23 N22 1_555 1_555
N24 N23 1_555 1_555
C1 N1 1_555 1_555
C2 C1 1_555 1_555
H1 C2 1_555 1_555
H2 C2 1_555 1_555
H3 C2 1_555 1_555
C3 N5 1_555 1_555
C4 C3 1_555 1_555
H4 C4 1_555 1_555
H5 C4 1_555 1_555
H6 C4 1_555 1_555
C5 N9 1_555 1_555
C6 C5 1_555 1_555
H7 C6 1_555 1_555
H8 C6 1_555 1_555
H9 C6 1_555 1_555
C7 N13 1_555 1_555
C8 C7 1_555 1_555
H10 C8 1_555 1_555
H11 C8 1_555 1_555
H12 C8 1_555 1_555
C9 N17 1_555 1_555
C10 C9 1_555 1_555
H13 C10 1_555 1_555
H14 C10 1_555 1_555
H15 C10 1_555 1_555
C11 N21 1_555 1_555
C12 C11 1_555 1_555
H16 C12 1_555 1_555
H17 C12 1_555 1_555
H18 C12 1_555 1_555
Cd1C Cl6 1_555 1_555
Cd1E N15 1_555 1_555
Cd2F N24 1_555 1_555
Cd2G N8 1_555 1_555
Cd3B N16 1_555 1_555
Cd3F N23 1_555 1_555
Cd3G N2 1_555 1_555
Cd4F N19 1_555 1_555
Cd4G N3 1_555 1_555
Cd5B N12 1_555 1_555
Cd5F N20 1_555 1_555
Cd5G N4 1_555 1_555
Cd6B N11 1_555 1_555
Cd6G N14 1_555 1_555
Cl6B Cd1 1_555 1_555
N2F Cd3 1_555 1_555
N3F Cd4 1_555 1_555
N4F Cd5 1_555 1_555
N7F Cd3 1_555 1_555
N8F Cd2 1_555 1_555
N11C Cd6 1_555 1_555
N12C Cd5 1_555 1_555
N14F Cd6 1_555 1_555
N15E Cd1 1_555 1_555
N16C Cd3 1_555 1_555
N19G Cd4 1_555 1_555
N20G Cd5 1_555 1_555
N22G Cd4 1_555 1_555
N23G Cd3 1_555 1_555
N24G Cd2 1_555 1_555
N4 C1 1_555 1_555
N5 N6 1_555 1_555
N7 Cd3G 1_555 1_555
N8 C3 1_555 1_555
N9 N10 1_555 1_555
N12 C5 1_555 1_555
N16 C7 1_555 1_555
N17 N18 1_555 1_555
N20 C9 1_555 1_555
N22 Cd4F 1_555 1_555
N24 C11 1_555 1_555
Cd6B Cl6B 1_555 1_555
N2F N3F 1_555 1_555
N3F N4F 1_555 1_555
N7F N8F 1_555 1_555
N11C N12C 1_555 1_555
N19G N20G 1_555 1_555
N22G N23G 1_555 1_555
N23G N24G 1_555 1_555

#END
