
#######################################################################
#
#                 Cambridge Crystallographic Data Centre
#                                CCDC 
#
#######################################################################
#
# If this CIF has been generated from an entry in the Cambridge 
# Structural Database, then it will include bibliographic, chemical, 
# crystal, experimental, refinement or atomic coordinate data resulting 
# from the CCDC's data processing and validation procedures.
#
#######################################################################

data_GUBZAF
_chemical_formula_moiety         'C48 H48 Cu7 Mo13 N36 O52 Si1'
_symmetry_cell_setting           monoclinic
_symmetry_space_group_name_H-M   'P 21/n'
_symmetry_Int_Tables_number      14
_space_group_name_Hall           '-P 2yn'
loop_
_symmetry_equiv_pos_site_id
_symmetry_equiv_pos_as_xyz
1 x,y,z
2 1/2-x,1/2+y,1/2-z
3 -x,-y,-z
4 1/2+x,1/2-y,1/2+z
_cell_length_a                   11.340(2)
_cell_length_b                   15.770(3)
_cell_length_c                   22.900(5)
_cell_angle_alpha                90
_cell_angle_beta                 97.98(3)
_cell_angle_gamma                90
_cell_volume                     4055.59
loop_
_atom_site_label
_atom_site_type_symbol
_atom_site_fract_x
_atom_site_fract_y
_atom_site_fract_z
Cu1 Cu 0.38700(9) 0.75661(7) -0.27146(5)
Mo1 Mo 0.10060(10) 1.21054(5) -0.47387(4)
Mo2 Mo 0.00337(9) 1.09150(6) -0.35937(3)
Mo3 Mo -0.07646(10) 0.87664(6) -0.38254(4)
Mo4 Mo -0.29912(7) 0.94865(6) -0.49250(4)
Mo5 Mo -0.20441(7) 1.16208(5) -0.47857(4)
Mo6 Mo 0.22250(7) 0.94228(5) -0.38399(3)
Si1 Si 0.0000 1.0000 -0.5000
N1 N 0.2661(6) 0.6736(4) -0.3112(3)
N2 N 0.1762(12) 0.5506(6) -0.3324(6)
N3 N 0.1082(7) 0.6130(5) -0.3582(3)
N4 N 0.4897(6) 0.7297(5) -0.3317(3)
N5 N 0.6405(8) 0.6660(7) -0.3682(4)
N6 N 0.5589(7) 0.6952(5) -0.4126(3)
N7 N 0.5175(6) 0.8338(4) -0.2312(3)
C1 C 0.5645(9) 0.8401(6) -0.1756(3)
H1 H 0.5407 0.8101 -0.1442
N8 N 0.6508(9) 0.8963(6) -0.1720(3)
N9 N 0.6573(6) 0.9248(4) -0.2254(3)
C2 C 0.5749(6) 0.8862(5) -0.2620(2)
H2 H 0.5598 0.8944 -0.3026
N10 N 0.2736(5) 0.7888(4) -0.2160(3)
C3 C 0.2417(8) 0.8675(4) -0.2051(4)
H3 H 0.2735 0.9167 -0.2189
N11 N 0.1566(8) 0.8638(4) -0.1709(4)
N12 N 0.1358(6) 0.7827(4) -0.1607(3)
C4 C 0.2081(5) 0.7364(3) -0.1886(3)
H4 H 0.2122 0.6775 -0.1888
C5 C 0.2700(13) 0.5897(7) -0.3049(6)
H5 H 0.3333 0.5614 -0.2831
C6 C 0.1630(8) 0.6857(5) -0.3464(4)
H6 H 0.1342 0.7381 -0.3604
C7 C -0.0073(8) 0.5945(6) -0.3930(4)
H7 H -0.0473 0.6478 -0.4039
H8 H -0.0556 0.5636 -0.3685
C8 C -0.0009(8) 0.5449(5) -0.4475(4)
C9 C 0.0781(9) 0.5660(6) -0.4871(4)
H9 H 0.1312 0.6107 -0.4786
C10 C -0.0775(9) 0.4786(6) -0.4620(4)
H10 H -0.1307 0.4637 -0.4363
C11 C 0.5953(10) 0.6879(8) -0.3208(5)
H11 H 0.6324 0.6759 -0.2829
C12 C 0.4721(8) 0.7323(6) -0.3905(4)
H12 H 0.4065 0.7572 -0.4129
C13 C 0.5667(9) 0.6753(7) -0.4740(4)
H13 H 0.6476 0.6846 -0.4819
H14 H 0.5146 0.7128 -0.4994
C14 C 0.5317(9) 0.5840(7) -0.4880(4)
C15 C 0.4257(12) 0.5532(9) -0.4767(9)
H15 H 0.3732 0.5886 -0.4605
C16 C 0.6053(12) 0.5307(10) -0.5110(8)
H16 H 0.6788 0.5504 -0.5188
C17 C 0.7405(8) 0.9918(6) -0.2387(5)
H17 H 0.7981 0.9683 -0.2618
H18 H 0.7833 1.0139 -0.2023
C18 C 0.6714(8) 1.0634(6) -0.2731(4)
C19 C 0.6403(9) 1.0553(7) -0.3335(4)
H19 H 0.6667 1.0086 -0.3529
C20 C 0.5710(8) 1.1154(7) -0.3649(4)
H20 H 0.5490 1.1085 -0.4052
C21 C 0.5333(8) 1.1863(6) -0.3371(4)
C22 C 0.5691(9) 1.1959(7) -0.2768(4)
H21 H 0.5479 1.2444 -0.2577
C23 C 0.6360(9) 1.1336(6) -0.2454(4)
H22 H 0.6571 1.1395 -0.2049
C24 C 0.0430(10) 0.7532(8) -0.1286(4)
H23 H -0.0067 0.8007 -0.1206
H24 H 0.0786 0.7296 -0.0911
O1 O -0.0293(9) 1.0851(6) -0.4645(4)
O2 O -0.0993(9) 0.9262(6) -0.4814(4)
O3 O 0.0393(9) 0.9851(6) -0.4290(4)
O4 O 0.1266(8) 0.9651(6) -0.4828(4)
O5 O -0.0699(8) 1.2275(7) -0.4846(4)
O6 O -0.0768(11) 0.7946(7) -0.4399(4)
O7 O 0.1586(8) 1.0324(5) -0.3487(6)
O8 O -0.3020(9) 1.2362(5) -0.4671(4)
O9 O 0.3225(8) 0.9031(5) -0.3305(3)
O10 O -0.0675(7) 0.9910(5) -0.3467(5)
O11 O 0.0875(8) 0.8734(5) -0.3667(6)
O12 O 0.2373(7) 0.8508(5) -0.4411(3)
O13 O 0.4827(6) 0.6384(5) -0.2069(3)
O14 O 0.0921(7) 1.1754(7) -0.3979(4)
O15 O -0.2955(7) 1.0615(5) -0.4689(3)
O16 O -0.1340(8) 1.1396(7) -0.3961(4)
O17 O -0.4379(7) 0.9195(6) -0.4898(4)
O18 O -0.2302(12) 0.9152(7) -0.4188(4)
O19 O 0.1475(7) 1.3085(4) -0.4653(4)
O20 O 0.3103(7) 1.0098(5) -0.4261(3)
O21 O 0.2429(12) 1.1534(8) -0.4746(4)
O22 O -0.1150(7) 0.8221(5) -0.3277(3)
Cu1A Cu 0.11300(9) 1.25661(7) -0.22854(5)
Cu1B Cu -0.38700(9) 1.24339(7) -0.72854(5)
Cu1C Cu -0.11300(9) 0.74339(7) -0.77146(5)
Cu1B_2 Cu 0.61300(9) 0.24339(7) -0.72854(5)
Cu1B_3 Cu -0.38700(9) 0.24339(7) -0.72854(5)
Cu1A_2 Cu 0.11300(9) 0.25661(7) -0.22854(5)
Mo1B Mo -0.10060(10) 0.78946(5) -0.52613(4)
Mo2A Mo 0.49663(9) 0.59150(6) -0.14063(3)
Mo2B Mo -0.00337(9) 0.90850(6) -0.64063(3)
Mo3B Mo 0.07646(10) 1.12336(6) -0.61746(4)
Mo4B Mo 0.29912(7) 1.05135(6) -0.50750(4)
Mo5B Mo 0.20441(7) 0.83792(5) -0.52143(4)
Mo6B Mo -0.22250(7) 1.05772(5) -0.61601(3)
N1B N -0.2661(6) 0.3264(4) -0.6888(3)
N1A N 0.2339(6) 0.1736(4) -0.1888(3)
N1B_2 N 0.7339(6) 0.3264(4) -0.6888(3)
N1A_2 N 0.2339(6) 1.1736(4) -0.1888(3)
N2B N -0.1762(12) 0.4494(6) -0.6676(6)
N3B N -0.1082(7) 0.3870(5) -0.6418(3)
N4B N 0.5103(6) 0.2703(5) -0.6683(3)
N4A N 0.0103(6) 0.2297(5) -0.1683(3)
N4B_2 N -0.4897(6) 0.2703(5) -0.6683(3)
N4A_2 N 0.0103(6) 1.2297(5) -0.1683(3)
N5B N 0.3595(8) 0.3340(7) -0.6318(4)
N6B N 0.4411(7) 0.3048(5) -0.5874(3)
N7A N -0.0175(6) 0.3338(4) -0.2688(3)
N7B N -0.5175(6) 0.1662(4) -0.7688(3)
N7B_2 N 0.4825(6) 0.1662(4) -0.7688(3)
N7A_2 N -0.0175(6) 1.3338(4) -0.2688(3)
C1A C -0.0645(9) 0.3401(6) -0.3244(3)
H1A H -0.0407 0.3101 -0.3558
N8A N -0.1508(9) 0.3963(6) -0.3280(3)
N9A N -0.1573(6) 0.4248(4) -0.2746(3)
C2A C -0.0749(6) 0.3862(5) -0.2380(2)
H2A H -0.0598 0.3944 -0.1974
N10A N 0.2264(5) 1.2888(4) -0.2840(3)
N10A_2 N 0.2264(5) 0.2888(4) -0.2840(3)
N10B N -0.2736(5) 0.2112(4) -0.7840(3)
N10B_2 N 0.7264(5) 0.2112(4) -0.7840(3)
C3A C 0.2583(8) 1.3675(4) -0.2949(4)
H3A H 0.2265 1.4167 -0.2811
N11A N 0.3434(8) 1.3638(4) -0.3291(4)
N12A N 0.3642(6) 1.2827(4) -0.3393(3)
C4A C 0.2919(5) 1.2364(3) -0.3114(3)
H4A H 0.2878 1.1775 -0.3112
C5B C -0.2700(13) 0.4103(7) -0.6951(6)
H5B H -0.3333 0.4386 -0.7169
C6B C -0.1630(8) 0.3143(5) -0.6536(4)
H6B H -0.1342 0.2619 -0.6396
C7B C 0.0073(8) 0.4055(6) -0.6070(4)
H7B H 0.0473 0.3522 -0.5961
H8B H 0.0556 0.4364 -0.6315
C8B C 0.0009(8) 0.4551(5) -0.5525(4)
C9B C -0.0781(9) 0.4340(6) -0.5129(4)
H9B H -0.1312 0.3893 -0.5214
C10B C 0.0775(9) 0.5214(6) -0.5380(4)
H10B H 0.1307 0.5363 -0.5637
C11B C 0.4047(10) 0.3121(8) -0.6792(5)
H11B H 0.3676 0.3241 -0.7171
C12B C 0.5279(8) 0.2677(6) -0.6095(4)
H12B H 0.5935 0.2428 -0.5871
C13B C 0.4333(9) 0.3247(7) -0.5260(4)
H13B H 0.3524 0.3154 -0.5181
H14B H 0.4854 0.2872 -0.5006
C14B C 0.4683(9) 0.4160(7) -0.5120(4)
C15B C 0.5743(12) 0.4468(9) -0.5233(9)
H15B H 0.6268 0.4114 -0.5395
C16B C 0.3947(12) 0.4693(10) -0.4890(8)
H16B H 0.3212 0.4496 -0.4812
C17A C -0.2405(8) 0.4918(6) -0.2613(5)
H17A H -0.2981 0.4683 -0.2382
H18A H -0.2833 0.5139 -0.2977
C18A C -0.1714(8) 0.5634(6) -0.2269(4)
C19A C -0.1403(9) 0.5553(7) -0.1665(4)
H19A H -0.1667 0.5086 -0.1471
C20A C -0.0710(8) 0.6154(7) -0.1351(4)
H20A H -0.0490 0.6085 -0.0948
C21A C -0.0333(8) 0.6863(6) -0.1629(4)
C22A C -0.0691(9) 0.6959(7) -0.2232(4)
H21A H -0.0479 0.7444 -0.2423
C23A C -0.1360(9) 0.6336(6) -0.2546(4)
H22A H -0.1571 0.6395 -0.2951
C24A C 0.4570(10) 1.2532(8) -0.3714(4)
H23A H 0.5067 1.3007 -0.3794
H24A H 0.4214 1.2296 -0.4089
O1B O 0.0293(9) 0.9149(6) -0.5355(4)
O2B O 0.0993(9) 1.0738(6) -0.5186(4)
O3B O -0.0393(9) 1.0149(6) -0.5710(4)
O4B O -0.1266(8) 1.0349(6) -0.5172(4)
O5B O 0.0699(8) 0.7725(7) -0.5154(4)
O6B O 0.0768(11) 1.2054(7) -0.5601(4)
O7B O -0.1586(8) 0.9676(5) -0.6513(6)
O8B O 0.3020(9) 0.7638(5) -0.5329(4)
O9B O -0.3225(8) 1.0969(5) -0.6695(3)
O9A O 0.1775(8) 0.4031(5) -0.1695(3)
O9B_2 O -0.3225(8) 0.0969(5) -0.6695(3)
O9B_3 O 0.6775(8) 0.0969(5) -0.6695(3)
O9A_2 O 0.1775(8) 1.4031(5) -0.1695(3)
O10B O 0.0675(7) 1.0090(5) -0.6533(5)
O11B O -0.0875(8) 1.1266(5) -0.6333(6)
O12B O -0.2373(7) 1.1492(5) -0.5589(3)
O13A O 0.0173(6) 1.1384(5) -0.2931(3)
O13C O -0.0173(6) 0.8616(5) -0.7069(3)
O13A_2 O 0.0173(6) 0.1384(5) -0.2931(3)
O13B O -0.4827(6) 0.3616(5) -0.7931(3)
O13B_2 O 0.5173(6) 0.3616(5) -0.7931(3)
O14B O -0.0921(7) 0.8246(7) -0.6021(4)
O15B O 0.2955(7) 0.9385(5) -0.5311(3)
O16B O 0.1340(8) 0.8604(7) -0.6039(4)
O17B O 0.4379(7) 1.0805(6) -0.5102(4)
O18B O 0.2302(12) 1.0848(7) -0.5812(4)
O19B O -0.1475(7) 0.6915(4) -0.5347(4)
O20B O -0.3103(7) 0.9902(5) -0.5739(3)
O21B O -0.2429(12) 0.8466(8) -0.5254(4)
O22B O 0.1150(7) 1.1779(5) -0.6723(3)
loop_
_geom_bond_atom_site_label_1
_geom_bond_atom_site_label_2
_geom_bond_site_symmetry_1
_geom_bond_site_symmetry_2
Cu1 N1 1_555 1_555
Mo1 O1 1_555 1_555
Mo2 O1 1_555 1_555
Mo3 O2 1_555 1_555
Mo4 O2 1_555 1_555
Mo5 O1 1_555 1_555
Mo6 O3 1_555 1_555
Si1 O1 1_555 1_555
N1 C5 1_555 1_555
N2 N3 1_555 1_555
N3 C6 1_555 1_555
N4 Cu1 1_555 1_555
N5 N6 1_555 1_555
N6 C12 1_555 1_555
N7 Cu1 1_555 1_555
C1 N7 1_555 1_555
H1 C1 1_555 1_555
N8 C1 1_555 1_555
N9 N8 1_555 1_555
C2 N7 1_555 1_555
H2 C2 1_555 1_555
N10 Cu1 1_555 1_555
C3 N10 1_555 1_555
H3 C3 1_555 1_555
N11 C3 1_555 1_555
N12 N11 1_555 1_555
C4 N10 1_555 1_555
H4 C4 1_555 1_555
C5 N2 1_555 1_555
H5 C5 1_555 1_555
C6 N1 1_555 1_555
H6 C6 1_555 1_555
C7 N3 1_555 1_555
H7 C7 1_555 1_555
H8 C7 1_555 1_555
C8 C7 1_555 1_555
C9 C8 1_555 1_555
H9 C9 1_555 1_555
C10 C8 1_555 1_555
H10 C10 1_555 1_555
C11 N4 1_555 1_555
H11 C11 1_555 1_555
C12 N4 1_555 1_555
H12 C12 1_555 1_555
C13 N6 1_555 1_555
H13 C13 1_555 1_555
H14 C13 1_555 1_555
C14 C13 1_555 1_555
C15 C14 1_555 1_555
H15 C15 1_555 1_555
C16 C14 1_555 1_555
H16 C16 1_555 1_555
C17 N9 1_555 1_555
H17 C17 1_555 1_555
H18 C17 1_555 1_555
C18 C17 1_555 1_555
C19 C18 1_555 1_555
H19 C19 1_555 1_555
C20 C19 1_555 1_555
H20 C20 1_555 1_555
C21 C20 1_555 1_555
C22 C21 1_555 1_555
H21 C22 1_555 1_555
C23 C18 1_555 1_555
H22 C23 1_555 1_555
C24 N12 1_555 1_555
H23 C24 1_555 1_555
H24 C24 1_555 1_555
O2 Si1 1_555 1_555
O3 Mo2 1_555 1_555
O4 Mo6 1_555 1_555
O5 Mo1 1_555 1_555
O6 Mo3 1_555 1_555
O7 Mo2 1_555 1_555
O8 Mo5 1_555 1_555
O9 Cu1 1_555 1_555
O10 Mo2 1_555 1_555
O11 Mo3 1_555 1_555
O12 Mo6 1_555 1_555
O13 Cu1 1_555 1_555
O14 Mo1 1_555 1_555
O15 Mo4 1_555 1_555
O16 Mo2 1_555 1_555
O17 Mo4 1_555 1_555
O18 Mo3 1_555 1_555
O19 Mo1 1_555 1_555
O20 Mo6 1_555 1_555
O21 Mo1 1_555 1_555
O22 Mo3 1_555 1_555
Cu1A N1A_2 1_555 1_555
Cu1B O9B 1_555 1_555
Cu1C O13C 1_555 1_555
Cu1B_2 N1B_2 1_555 1_555
Cu1B_3 N1B 1_555 1_555
Cu1A_2 N1A 1_555 1_555
Mo1B O2 1_555 1_555
Mo2A O13 1_555 1_555
Mo2B O1B 1_555 1_555
Mo3B O2B 1_555 1_555
Mo4B O4 1_555 1_555
Mo5B O4 1_555 1_555
Mo6B O3B 1_555 1_555
N1B C5B 1_555 1_555
N2B N3B 1_555 1_555
N3B C6B 1_555 1_555
N4B Cu1B_2 1_555 1_555
N4A Cu1A_2 1_555 1_555
N4B_2 Cu1B_3 1_555 1_555
N4A_2 Cu1A 1_555 1_555
N5B N6B 1_555 1_555
N6B C12B 1_555 1_555
N7A Cu1A_2 1_555 1_555
N7B Cu1B_3 1_555 1_555
N7B_2 Cu1B_2 1_555 1_555
N7A_2 Cu1A 1_555 1_555
C1A N7A 1_555 1_555
H1A C1A 1_555 1_555
N8A C1A 1_555 1_555
N9A N8A 1_555 1_555
C2A N7A 1_555 1_555
H2A C2A 1_555 1_555
N10A Cu1A 1_555 1_555
N10A_2 Cu1A_2 1_555 1_555
N10B Cu1B_3 1_555 1_555
N10B_2 Cu1B_2 1_555 1_555
C3A N10A 1_555 1_555
H3A C3A 1_555 1_555
N11A C3A 1_555 1_555
N12A N11A 1_555 1_555
C4A N10A 1_555 1_555
H4A C4A 1_555 1_555
C5B N2B 1_555 1_555
H5B C5B 1_555 1_555
C6B N1B 1_555 1_555
H6B C6B 1_555 1_555
C7B N3B 1_555 1_555
H7B C7B 1_555 1_555
H8B C7B 1_555 1_555
C8B C7B 1_555 1_555
C9B C10 1_555 1_555
H9B C9B 1_555 1_555
C10B C9 1_555 1_555
H10B C10B 1_555 1_555
C11B N4B 1_555 1_555
H11B C11B 1_555 1_555
C12B N4B 1_555 1_555
H12B C12B 1_555 1_555
C13B N6B 1_555 1_555
H13B C13B 1_555 1_555
H14B C13B 1_555 1_555
C14B C13B 1_555 1_555
C15B C16 1_555 1_555
H15B C15B 1_555 1_555
C16B C15 1_555 1_555
H16B C16B 1_555 1_555
C17A N9A 1_555 1_555
H17A C17A 1_555 1_555
H18A C17A 1_555 1_555
C18A C17A 1_555 1_555
C19A C18A 1_555 1_555
H19A C19A 1_555 1_555
C20A C19A 1_555 1_555
H20A C20A 1_555 1_555
C21A C24 1_555 1_555
C22A C21A 1_555 1_555
H21A C22A 1_555 1_555
C23A C18A 1_555 1_555
H22A C23A 1_555 1_555
C24A C21 1_555 1_555
H23A C24A 1_555 1_555
H24A C24A 1_555 1_555
O1B Si1 1_555 1_555
O2B Mo1 1_555 1_555
O3B Si1 1_555 1_555
O4B Mo4 1_555 1_555
O5B Mo1B 1_555 1_555
O6B Mo1 1_555 1_555
O7B Mo2B 1_555 1_555
O8B Mo5B 1_555 1_555
O9B Mo6B 1_555 1_555
O9A Cu1A_2 1_555 1_555
O9B_2 Cu1B_3 1_555 1_555
O9B_3 Cu1B_2 1_555 1_555
O9A_2 Cu1A 1_555 1_555
O10B Mo2B 1_555 1_555
O11B Mo3B 1_555 1_555
O12B Mo5 1_555 1_555
O13A Mo2 1_555 1_555
O13C Mo2B 1_555 1_555
O13A_2 Cu1A_2 1_555 1_555
O13B Cu1B_3 1_555 1_555
O13B_2 Cu1B_2 1_555 1_555
O14B Mo1B 1_555 1_555
O15B Mo4B 1_555 1_555
O16B Mo2B 1_555 1_555
O17B Mo4B 1_555 1_555
O18B Mo3B 1_555 1_555
O19B Mo1B 1_555 1_555
O20B Mo4 1_555 1_555
O21B Mo4 1_555 1_555
O22B Mo3B 1_555 1_555
Mo2 O14 1_555 1_555
Mo3 O3 1_555 1_555
Mo3 O10 1_555 1_555
Mo4 O18 1_555 1_555
Mo5 O5 1_555 1_555
Mo5 O15 1_555 1_555
Mo5 O16 1_555 1_555
Mo5 O4B 1_555 1_555
Mo6 O7 1_555 1_555
Mo6 O9 1_555 1_555
Mo6 O11 1_555 1_555
Si1 O3 1_555 1_555
Si1 O4 1_555 1_555
Si1 O2B 1_555 1_555
Si1 O4B 1_555 1_555
N5 C11 1_555 1_555
N9 C2 1_555 1_555
N12 C4 1_555 1_555
C22 C23 1_555 1_555
O6 Mo1B 1_555 1_555
O12 Mo5B 1_555 1_555
O20 Mo4B 1_555 1_555
O21 Mo4B 1_555 1_555
Cu1A O13A 1_555 1_555
Mo1B O1B 1_555 1_555
Mo1B O21B 1_555 1_555
Mo2B O3B 1_555 1_555
Mo2B O14B 1_555 1_555
Mo3B O3B 1_555 1_555
Mo3B O6B 1_555 1_555
Mo3B O10B 1_555 1_555
Mo4B O2B 1_555 1_555
Mo4B O18B 1_555 1_555
Mo5B O1B 1_555 1_555
Mo5B O5B 1_555 1_555
Mo5B O15B 1_555 1_555
Mo5B O16B 1_555 1_555
Mo6B O4B 1_555 1_555
Mo6B O7B 1_555 1_555
Mo6B O11B 1_555 1_555
Mo6B O12B 1_555 1_555
Mo6B O20B 1_555 1_555
N5B C11B 1_555 1_555
N9A C2A 1_555 1_555
N12A C4A 1_555 1_555
N12A C24A 1_555 1_555
C8B C9B 1_555 1_555
C8B C10B 1_555 1_555
C14B C15B 1_555 1_555
C14B C16B 1_555 1_555
C20A C21A 1_555 1_555
C22A C23A 1_555 1_555

#END
