
#######################################################################
#
#                 Cambridge Crystallographic Data Centre
#                                CCDC 
#
#######################################################################
#
# If this CIF has been generated from an entry in the Cambridge 
# Structural Database, then it will include bibliographic, chemical, 
# crystal, experimental, refinement or atomic coordinate data resulting 
# from the CCDC's data processing and validation procedures.
#
#######################################################################

data_DUNJON
_chemical_formula_moiety         '(C36 H58 Co5 N12 O51 P1 W9)n'
_symmetry_cell_setting           orthorhombic
_symmetry_space_group_name_H-M   'P b c a'
_symmetry_Int_Tables_number      61
_space_group_name_Hall           '-P 2ac 2ab'
loop_
_symmetry_equiv_pos_site_id
_symmetry_equiv_pos_as_xyz
1 x,y,z
2 1/2-x,-y,1/2+z
3 1/2+x,1/2-y,-z
4 -x,1/2+y,1/2-z
5 -x,-y,-z
6 1/2+x,y,1/2-z
7 1/2-x,1/2+y,z
8 x,1/2-y,1/2+z
_cell_length_a                   29.325(5)
_cell_length_b                   13.413(5)
_cell_length_c                   36.016(5)
_cell_angle_alpha                90
_cell_angle_beta                 90
_cell_angle_gamma                90
_cell_volume                     14166.4
loop_
_atom_site_label
_atom_site_type_symbol
_atom_site_fract_x
_atom_site_fract_y
_atom_site_fract_z
_atom_site_U_iso_or_equiv
_atom_site_thermal_displace_type
W1 W 0.543144(18) 0.67341(4) 0.350503(14) 0.0158 Uani
W2 W 0.469421(17) 0.70293(4) 0.423969(14) 0.0143 Uani
W3 W 0.421765(17) 0.45086(4) 0.410278(13) 0.0152 Uani
W4 W 0.494122(19) 0.25233(4) 0.408785(14) 0.0179 Uani
W5 W 0.619175(18) 0.45187(4) 0.348137(14) 0.0182 Uani
W6 W 0.660958(17) 0.52040(4) 0.435047(14) 0.0165 Uani
W7 W 0.584367(18) 0.73592(4) 0.437351(14) 0.0158 Uani
W8 W 0.617762(18) 0.28777(4) 0.423603(14) 0.0180 Uani
W9 W 0.494558(18) 0.42202(4) 0.335837(14) 0.0165 Uani
Co1 Co 0.58652(6) 0.42410(14) 0.50472(5) 0.0163 Uani
Co2 Co 0.52105(6) 0.61394(14) 0.50706(5) 0.0150 Uani
P1 P 0.54103(10) 0.4917(2) 0.42648(8) 0.0089 Uani
O1 O 0.5054(3) 0.4308(7) 0.4053(2) 0.0153 Uani
O2 O 0.5890(3) 0.4548(6) 0.4148(2) 0.0160 Uani
O3 O 0.5339(3) 0.4801(6) 0.4686(2) 0.0130 Uani
O4 O 0.5366(3) 0.6021(7) 0.4144(2) 0.0160 Uani
O5 O 0.4945(3) 0.2711(7) 0.4583(2) 0.0183 Uani
O6 O 0.4328(3) 0.3142(7) 0.4085(2) 0.0223 Uani
O7 O 0.4930(3) 0.2920(7) 0.3559(2) 0.0203 Uani
O8 O 0.3641(3) 0.4615(8) 0.4086(2) 0.0253 Uani
O9 O 0.4798(3) 0.1280(7) 0.4033(3) 0.0270 Uani
O10 O 0.5594(3) 0.2466(7) 0.4059(2) 0.0210 Uani
O11 O 0.4382(3) 0.5909(7) 0.4057(2) 0.0193 Uani
O12 O 0.5981(3) 0.3061(7) 0.4698(2) 0.0200 Uani
O13 O 0.6488(3) 0.1761(8) 0.4255(3) 0.0303 Uani
O14 O 0.6287(3) 0.3264(7) 0.3698(2) 0.0233 Uani
O15 O 0.5660(3) 0.5396(7) 0.5399(2) 0.0180 Uani
O16 O 0.5719(3) 0.6856(7) 0.4814(2) 0.0197 Uani
O17 O 0.6368(3) 0.5067(7) 0.4795(2) 0.0180 Uani
O18 O 0.6115(3) 0.8460(7) 0.4479(3) 0.0237 Uani
O19 O 0.5212(3) 0.7840(7) 0.4356(2) 0.0207 Uani
O20 O 0.5793(3) 0.7502(7) 0.3819(2) 0.0220 Uani
O21 O 0.6328(3) 0.6477(7) 0.4265(2) 0.0207 Uani
O22 O 0.4266(3) 0.7901(8) 0.4274(2) 0.0263 Uani
O23 O 0.4699(3) 0.6501(7) 0.4708(2) 0.0173 Uani
O24 O 0.4903(3) 0.7244(6) 0.3730(2) 0.0143 Uani
O25 O 0.5929(3) 0.5837(7) 0.3450(2) 0.0270 Uani
O26 O 0.5595(3) 0.4076(7) 0.3351(2) 0.0223 Uani
O27 O 0.6636(3) 0.5085(7) 0.3792(2) 0.0180 Uani
O28 O 0.5442(3) 0.7450(8) 0.3105(2) 0.0243 Uani
O29 O 0.4807(3) 0.3989(8) 0.2898(2) 0.0233 Uani
O30 O 0.6476(3) 0.4413(7) 0.3072(2) 0.0170 Uani
O31 O 0.4372(3) 0.4482(7) 0.3575(2) 0.0150 Uani
O32 O 0.6683(3) 0.3761(8) 0.4313(2) 0.0233 Uani
O33 O 0.5041(3) 0.5590(7) 0.3371(2) 0.0170 Uani
O34 O 0.7177(3) 0.5549(7) 0.4421(2) 0.0223 Uani
Co3 Co 0.53013(6) 0.82339(15) 0.26149(5) 0.0195 Uani
C1 C 0.7007(5) 0.6891(11) 0.1711(4) 0.0240 Uani
C2 C 0.7298(5) 0.6799(12) 0.1139(4) 0.0303 Uani
C3 C 0.7758(5) 0.6888(11) 0.1631(4) 0.0277 Uani
C4 C 0.7225(5) 0.6753(11) 0.0728(4) 0.0260 Uani
C5 C 0.8225(5) 0.6939(10) 0.1811(4) 0.0220 Uani
C6 C 0.8265(5) 0.7103(14) 0.2185(4) 0.0360 Uani
H1 H 0.8010 0.7222 0.2332 0.0430 Uiso
C7 C 0.8607(5) 0.6771(13) 0.1595(4) 0.0370 Uani
H2 H 0.8586 0.6700 0.1339 0.0440 Uiso
C8 C 0.9020(5) 0.6712(11) 0.1778(4) 0.0290 Uani
H3 H 0.9275 0.6536 0.1639 0.0350 Uiso
C9 C 0.3026(5) 0.9274(12) 0.3884(4) 0.0260 Uani
C10 C 0.2704(5) 0.9449(11) 0.3325(4) 0.0227 Uani
C11 C 0.3458(5) 0.9420(11) 0.3385(4) 0.0220 Uani
C12 C 0.3925(5) 0.9409(11) 0.3203(4) 0.0227 Uani
C13 C 0.4299(5) 0.9276(11) 0.3420(4) 0.0237 Uani
H4 H 0.4284 0.9321 0.3677 0.0280 Uiso
C14 C 0.4711(5) 0.9063(11) 0.3232(4) 0.0233 Uani
H5 H 0.4970 0.8943 0.3374 0.0280 Uiso
C15 C 0.2977(5) 0.9133(12) 0.4293(4) 0.0270 Uani
C16 C 0.2558(5) 0.9066(12) 0.4462(4) 0.0290 Uani
H6 H 0.2292 0.9115 0.4323 0.0350 Uiso
C17 C 0.2287(5) 0.9512(13) 0.3082(4) 0.0310 Uani
C18 C 0.1851(5) 0.9443(12) 0.3235(4) 0.0340 Uani
H7 H 0.1816 0.9370 0.3490 0.0410 Uiso
C19 C 0.1476(5) 0.9481(13) 0.3013(5) 0.0353 Uani
H8 H 0.1188 0.9446 0.3120 0.0430 Uiso
C20 C 0.4382(5) 0.9247(14) 0.2664(4) 0.0397 Uani
H9 H 0.4405 0.9264 0.2407 0.0480 Uiso
C21 C 0.8693(6) 0.7085(15) 0.2334(4) 0.0467 Uani
H10 H 0.8724 0.7213 0.2587 0.0560 Uiso
C22 C 0.6593(5) 0.6965(12) 0.1945(4) 0.0270 Uani
C23 C 0.6158(5) 0.6962(13) 0.1784(4) 0.0300 Uani
H11 H 0.6120 0.6814 0.1533 0.0360 Uiso
C24 C 0.3951(5) 0.9459(11) 0.2828(4) 0.0253 Uani
H12 H 0.3698 0.9624 0.2684 0.0300 Uiso
C25 C 0.5796(5) 0.7178(12) 0.2001(4) 0.0287 Uani
H13 H 0.5508 0.7178 0.1894 0.0340 Uiso
C26 C 0.2328(5) 0.9619(13) 0.2704(4) 0.0353 Uani
H14 H 0.2613 0.9669 0.2593 0.0420 Uiso
C27 C 0.2540(5) 0.8924(12) 0.4837(4) 0.0307 Uani
H15 H 0.2254 0.8842 0.4944 0.0370 Uiso
C28 C 0.6632(5) 0.7089(13) 0.2320(4) 0.0323 Uani
H16 H 0.6914 0.7025 0.2436 0.0390 Uiso
C29 C 0.6248(5) 0.7309(12) 0.2523(4) 0.0300 Uani
H17 H 0.6276 0.7403 0.2778 0.0360 Uiso
C30 C 0.7570(6) 0.6464(13) 0.0498(4) 0.0400 Uani
H18 H 0.7853 0.6293 0.0595 0.0480 Uiso
C31 C 0.7496(6) 0.6430(14) 0.0128(4) 0.0447 Uani
H19 H 0.7736 0.6235 -0.0024 0.0540 Uiso
C32 C 0.6809(6) 0.6967(14) 0.0572(4) 0.0423 Uani
H20 H 0.6560 0.7137 0.0718 0.0510 Uiso
C33 C 0.6775(7) 0.6923(17) 0.0199(5) 0.0593 Uani
H21 H 0.6496 0.7095 0.0094 0.0710 Uiso
C34 C 0.3358(5) 0.9079(15) 0.4511(4) 0.0440 Uani
H22 H 0.3647 0.9137 0.4407 0.0520 Uiso
C35 C 0.3302(5) 0.8934(14) 0.4893(4) 0.0410 Uani
H23 H 0.3563 0.8859 0.5037 0.0500 Uiso
C36 C 0.1944(5) 0.9650(14) 0.2496(5) 0.0410 Uani
H24 H 0.1976 0.9731 0.2241 0.0490 Uiso
N1 N 0.4752(4) 0.9026(10) 0.2860(3) 0.0263 Uani
N2 N 0.2906(4) 0.8896(9) 0.5061(3) 0.0260 Uani
N3 N 0.2640(4) 0.9334(9) 0.3685(3) 0.0263 Uani
N4 N 0.3441(4) 0.9335(9) 0.3751(3) 0.0237 Uani
N5 N 0.3100(4) 0.9517(9) 0.3158(3) 0.0243 Uani
N6 N 0.6933(4) 0.6815(10) 0.1347(3) 0.0303 Uani
N7 N 0.7411(4) 0.6941(9) 0.1865(3) 0.0243 Uani
N8 N 0.7726(4) 0.6850(10) 0.1265(3) 0.0297 Uani
N9 N 0.9078(4) 0.6891(10) 0.2135(4) 0.0353 Uani
N10 N 0.1515(5) 0.9571(11) 0.2635(4) 0.0443 Uani
N11 N 0.5829(4) 0.7393(10) 0.2363(3) 0.0270 Uani
N12 N 0.7107(6) 0.6654(14) -0.0030(4) 0.0617 Uani
O35 O 0.4840(4) 0.7123(9) 0.2462(3) 0.0367 Uani
Co4 Co 0.28432(6) 0.89035(15) 0.56523(5) 0.0218 Uani
O36 O 0.2557(4) 0.7502(8) 0.5694(3) 0.0410 Uani
O37 O 0.2782(4) 0.9046(10) 0.6226(3) 0.0483 Uani
O38 O 0.3118(4) 1.0327(9) 0.5658(3) 0.0443 Uani
O39 O 0.6360(3) 0.3606(9) 0.5411(3) 0.0310 Uani
O40 O 0.5753(3) 0.9354(8) 0.2781(3) 0.0343 Uani
W3D W 0.578235(17) 0.54914(4) 0.589722(13) 0.0152 Uani
Co1D Co 0.41348(6) 0.57590(14) 0.49528(5) 0.0163 Uani
Co2D Co 0.47895(6) 0.38606(14) 0.49294(5) 0.0150 Uani
O3D O 0.4661(3) 0.5199(6) 0.5314(2) 0.0130 Uani
O5D O 0.5055(3) 0.7289(7) 0.5417(2) 0.0183 Uani
O13D O 0.3512(3) 0.8239(8) 0.5745(3) 0.0303 Uani
O15D O 0.4340(3) 0.4604(7) 0.4601(2) 0.0180 Uani
O23D O 0.5301(3) 0.3499(7) 0.5292(2) 0.0173 Uani
O29C O 0.5193(3) 0.8989(8) 0.2102(2) 0.0233 Uani
O34B O 0.2177(3) 0.9451(7) 0.5579(2) 0.0223 Uani
Co3C Co 0.46987(6) 0.32339(15) 0.23851(5) 0.0195 Uani
Co4B Co 0.78432(6) 0.60965(15) 0.43477(5) 0.0218 Uani
Co4D Co 0.71568(6) 0.10965(15) 0.43477(5) 0.0218 Uani
Co5 Co 0.5000 -0.0000 0.5000 0.0330 Uani
O41 O 0.4894(4) 0.0220(8) 0.5559(3) 0.0437 Uani
O42 O 0.5469(4) 0.1231(9) 0.4981(3) 0.0433 Uani
O43 O 0.5550(4) -0.0946(8) 0.5124(3) 0.0400 Uani
O41D O 0.5106(4) -0.0220(8) 0.4441(3) 0.0437 Uani
O42D O 0.4531(4) -0.1231(9) 0.5019(3) 0.0433 Uani
O43D O 0.4450(4) 0.0946(8) 0.4876(3) 0.0400 Uani
O44 O 0.6577(8) 0.1642(14) 0.3283(5) 0.1177 Uani
O45 O 0.3108(7) 0.2842(17) 0.6434(7) 0.1360 Uani
O46 O 0.5660(11) 0.166(3) 0.3216(9) 0.0700 Uiso
O47 O 0.2508(18) 0.579(4) 0.6542(13) 0.1370 Uiso
O48 O 0.7310(19) 0.280(4) 0.2971(16) 0.1520 Uiso
loop_
_atom_site_aniso_label
_atom_site_aniso_U_11
_atom_site_aniso_U_22
_atom_site_aniso_U_33
_atom_site_aniso_U_23
_atom_site_aniso_U_13
_atom_site_aniso_U_12
W1 0.0133(3) 0.0245(3) 0.0095(2) 0.0035(2) -0.0001(2) 0.0007(2)
W2 0.0111(3) 0.0210(3) 0.0108(2) 0.0017(2) 0.0005(2) 0.0011(2)
W3 0.0110(3) 0.0250(3) 0.0097(2) -0.0006(2) -0.0011(2) -0.0010(2)
W4 0.0201(3) 0.0211(3) 0.0126(3) -0.0005(2) -0.0013(2) -0.0015(2)
W5 0.0132(3) 0.0301(3) 0.0114(2) 0.0005(2) 0.0007(2) 0.0036(2)
W6 0.0092(3) 0.0272(3) 0.0130(3) 0.0017(2) -0.0018(2) 0.0002(2)
W7 0.0141(3) 0.0215(3) 0.0119(3) 0.0017(2) -0.0015(2) -0.0034(2)
W8 0.0162(3) 0.0241(3) 0.0136(3) 0.0008(2) -0.0004(2) 0.0056(2)
W9 0.0143(3) 0.0264(3) 0.0088(2) -0.0019(2) -0.0012(2) -0.0008(2)
Co1 0.0124(9) 0.0244(10) 0.0121(8) 0.0003(7) 0.0004(7) 0.0010(7)
Co2 0.0124(9) 0.0208(10) 0.0117(8) 0.0003(7) -0.0010(7) -0.0002(7)
P1 0.0064(15) 0.0128(16) 0.0076(14) 0.0005(13) -0.0010(12) 0.0001(12)
O1 0.013(4) 0.022(5) 0.011(4) 0.009(4) 0.001(4) -0.006(4)
O2 0.009(4) 0.018(5) 0.021(5) 0.003(4) -0.001(4) -0.003(4)
O3 0.011(4) 0.016(5) 0.012(4) -0.001(4) -0.003(4) -0.002(4)
O4 0.014(5) 0.021(5) 0.013(4) 0.001(4) -0.011(4) 0.001(4)
O5 0.021(5) 0.022(5) 0.012(4) -0.006(4) 0.000(4) 0.001(4)
O6 0.016(5) 0.031(6) 0.020(5) 0.007(4) -0.003(4) -0.005(4)
O7 0.019(5) 0.028(6) 0.014(4) 0.001(4) -0.001(4) -0.004(4)
O8 0.017(5) 0.043(7) 0.016(5) 0.001(5) 0.002(4) 0.001(4)
O9 0.038(6) 0.023(6) 0.020(5) 0.000(4) 0.005(5) 0.000(5)
O10 0.019(5) 0.030(6) 0.014(4) -0.006(4) -0.002(4) 0.003(4)
O11 0.018(5) 0.029(6) 0.011(4) -0.002(4) -0.003(4) 0.005(4)
O12 0.021(5) 0.023(5) 0.016(5) 0.001(4) -0.001(4) 0.003(4)
O13 0.025(6) 0.030(6) 0.036(6) -0.001(5) 0.002(5) 0.006(5)
O14 0.018(5) 0.035(6) 0.017(5) -0.005(4) 0.004(4) 0.006(4)
O15 0.005(4) 0.036(6) 0.013(4) 0.003(4) -0.001(4) -0.001(4)
O16 0.016(5) 0.026(6) 0.017(5) -0.001(4) -0.002(4) 0.000(4)
O17 0.017(5) 0.017(5) 0.020(5) 0.007(4) 0.001(4) 0.000(4)
O18 0.023(5) 0.024(6) 0.024(5) -0.001(4) -0.006(4) -0.006(4)
O19 0.020(5) 0.025(6) 0.017(5) 0.004(4) -0.002(4) 0.000(4)
O20 0.018(5) 0.029(6) 0.019(5) 0.006(4) -0.006(4) -0.004(4)
O21 0.017(5) 0.028(6) 0.017(5) 0.007(4) -0.001(4) 0.000(4)
O22 0.026(6) 0.034(6) 0.019(5) 0.003(4) -0.003(4) 0.004(5)
O23 0.019(5) 0.022(5) 0.011(4) -0.001(4) -0.001(4) -0.003(4)
O24 0.019(5) 0.016(5) 0.008(4) 0.004(4) 0.000(4) 0.003(4)
O25 0.034(6) 0.027(6) 0.020(5) 0.004(4) 0.020(4) 0.008(5)
O26 0.020(5) 0.034(6) 0.013(4) -0.015(4) 0.004(4) -0.005(4)
O27 0.014(5) 0.024(5) 0.016(4) 0.005(4) 0.005(4) -0.003(4)
O28 0.021(5) 0.036(6) 0.016(5) 0.006(4) 0.004(4) 0.005(5)
O29 0.022(5) 0.039(6) 0.009(4) -0.004(4) -0.001(4) -0.009(4)
O30 0.024(4) 0.023(4) 0.004(3) -0.003(3) -0.006(3) 0.008(3)
O31 0.013(5) 0.021(5) 0.011(4) -0.010(4) -0.003(4) -0.001(4)
O32 0.016(5) 0.034(6) 0.020(5) 0.001(4) -0.001(4) 0.010(4)
O33 0.024(4) 0.023(4) 0.004(3) -0.003(3) -0.006(3) 0.008(3)
O34 0.015 0.028 0.024 0 0.003 -0.006
Co3 0.0119(9) 0.0347(12) 0.0118(8) 0.0049(8) 0.0014(7) 0.0029(8)
C1 0.024(8) 0.023(8) 0.025(8) 0.003(6) 0.009(6) 0.009(6)
C2 0.023(8) 0.034(9) 0.034(8) 0.000(7) 0.009(7) -0.007(7)
C3 0.013(7) 0.031(9) 0.039(9) 0.000(7) 0.008(6) -0.005(6)
C4 0.024(8) 0.029(9) 0.025(7) -0.001(7) 0.011(6) 0.003(6)
C5 0.017(7) 0.021(8) 0.028(8) 0.015(6) -0.003(6) 0.001(6)
C6 0.016(8) 0.063(12) 0.029(8) -0.010(8) 0.000(7) 0.000(8)
C7 0.023(8) 0.063(12) 0.025(8) 0.006(8) 0.000(7) -0.011(8)
C8 0.020(8) 0.030(9) 0.037(8) -0.001(7) 0.007(7) -0.008(6)
C9 0.015(7) 0.040(10) 0.023(7) -0.001(7) 0.010(6) 0.001(6)
C10 0.018(7) 0.025(8) 0.025(7) 0.003(6) 0.006(6) 0.011(6)
C11 0.023(8) 0.026(8) 0.017(7) 0.008(6) 0.011(6) 0.014(6)
C12 0.014(7) 0.032(9) 0.022(7) 0.007(6) 0.008(6) 0.013(6)
C13 0.020(7) 0.036(9) 0.015(7) 0.004(6) 0.004(6) 0.004(6)
C14 0.018(7) 0.034(9) 0.018(7) 0.004(6) -0.004(6) 0.004(6)
C15 0.023(8) 0.039(9) 0.019(7) 0.009(7) 0.009(6) 0.002(7)
C16 0.024(8) 0.043(10) 0.020(7) -0.003(7) 0.004(6) -0.001(7)
C17 0.012(6) 0.056(9) 0.025(6) 0.000(6) -0.001(5) 0.001(6)
C18 0.028(9) 0.045(10) 0.029(8) -0.015(8) 0.002(7) 0.006(7)
C19 0.017(8) 0.047(11) 0.042(10) -0.008(8) 0.005(7) -0.010(7)
C20 0.020(8) 0.081(14) 0.018(7) 0.014(8) 0.005(6) 0.014(8)
C21 0.044(11) 0.075(14) 0.021(8) 0.002(9) -0.003(8) -0.016(10)
C22 0.020(8) 0.040(10) 0.021(7) 0.001(7) 0.009(6) 0.005(7)
C23 0.022(8) 0.054(11) 0.014(7) 0.002(7) -0.003(6) 0.000(7)
C24 0.018(7) 0.038(9) 0.020(7) 0.006(7) 0.006(6) 0.012(7)
C25 0.017(8) 0.040(10) 0.029(8) 0.008(7) -0.008(6) 0.003(7)
C26 0.011(5) 0.068(8) 0.027(6) 0.002(6) 0.004(5) 0.002(6)
C27 0.022(8) 0.043(10) 0.027(8) -0.012(7) 0.000(7) -0.002(7)
C28 0.020(8) 0.055(11) 0.022(8) 0.006(7) -0.002(6) 0.004(7)
C29 0.026(8) 0.043(10) 0.021(7) 0.008(7) 0.007(6) 0.010(7)
C30 0.031(9) 0.051(12) 0.038(9) 0.015(8) -0.006(8) 0.011(8)
C31 0.036(10) 0.064(13) 0.034(9) 0.006(9) 0.017(8) 0.017(9)
C32 0.030(9) 0.067(13) 0.030(9) 0.005(9) 0.004(7) -0.002(9)
C33 0.050(12) 0.096(18) 0.032(10) -0.004(11) -0.004(9) -0.005(12)
C34 0.020(8) 0.086(15) 0.026(8) 0.013(9) 0.009(7) 0.027(9)
C35 0.031(9) 0.064(13) 0.028(8) 0.024(8) 0.012(7) 0.027(9)
C36 0.015(6) 0.073(10) 0.035(7) -0.001(7) 0.001(6) 0.000(7)
N1 0.021(6) 0.036(8) 0.022(6) 0.007(6) 0.000(5) 0.005(6)
N2 0.019(6) 0.039(8) 0.020(6) -0.001(6) 0.013(5) 0.004(5)
N3 0.018(6) 0.035(8) 0.026(6) 0.006(6) 0.010(5) 0.004(5)
N4 0.016(6) 0.031(7) 0.024(6) -0.002(5) -0.003(5) 0.007(5)
N5 0.011(6) 0.038(8) 0.024(6) 0.004(6) 0.005(5) 0.003(5)
N6 0.015(6) 0.047(9) 0.029(7) 0.008(6) 0.001(5) 0.001(6)
N7 0.009(6) 0.033(8) 0.031(7) 0.000(6) 0.000(5) 0.001(5)
N8 0.019(6) 0.048(9) 0.022(6) 0.000(6) 0.001(5) -0.001(6)
N9 0.021(7) 0.043(9) 0.042(8) 0.001(7) 0.000(6) -0.009(6)
N10 0.032(8) 0.052(10) 0.049(9) -0.014(8) -0.001(7) 0.005(7)
N11 0.020(6) 0.041(8) 0.020(6) 0.009(6) -0.004(5) 0.009(6)
N12 0.062(11) 0.105(15) 0.018(7) -0.014(8) -0.004(7) 0.003(10)
O35 0.032(6) 0.051(8) 0.027(6) 0.001(5) 0.006(5) -0.014(5)
Co4 0.0177 0.0292 0.0185 0.0037 0.0037 0.0034
O36 0.045 0.026 0.052 0.003 0.002 -0.003
O37 0.054 0.065 0.026 -0.001 0.01 0.021
O38 0.035 0.037 0.061 -0.004 -0.002 -0.013
O39 0.017(5) 0.057(8) 0.019(5) 0.006(5) -0.005(4) 0.005(5)
O40 0.023(6) 0.049(7) 0.031(6) -0.008(5) 0.007(5) -0.011(5)
W3D 0.011 0.025 0.0097 -0.0006 -0.0011 -0.001
Co1D 0.0124 0.0244 0.0121 0.0003 0.0004 0.001
Co2D 0.0124 0.0208 0.0117 0.0003 -0.001 -0.0002
O3D 0.011 0.016 0.012 -0.001 -0.003 -0.002
O5D 0.021 0.022 0.012 -0.006 0 0.001
O13D 0.025 0.03 0.036 -0.001 0.002 0.006
O15D 0.005 0.036 0.013 0.003 -0.001 -0.001
O23D 0.019 0.022 0.011 -0.001 -0.001 -0.003
O29C 0.022 0.039 0.009 0.004 -0.001 0.009
O34B 0.015 0.028 0.024 0 -0.003 0.006
Co3C 0.0119 0.0347 0.0118 -0.0049 0.0014 -0.0029
Co4B 0.0177 0.0292 0.0185 0.0037 -0.0037 -0.0034
Co4D 0.0177 0.0292 0.0185 0.0037 0.0037 0.0034
Co5 0.0437(19) 0.0266(17) 0.0287(16) -0.0003(13) 0.0024(14) 0.0024(14)
O41 0.075(9) 0.026(6) 0.030(6) -0.001(5) 0.009(6) 0.006(6)
O42 0.040(7) 0.045(8) 0.045(7) -0.002(6) 0.003(6) -0.004(6)
O43 0.049(7) 0.038(7) 0.033(6) -0.008(5) 0.001(5) 0.006(6)
O41D 0.075 0.026 0.03 -0.001 0.009 0.006
O42D 0.04 0.045 0.045 -0.002 0.003 -0.004
O43D 0.049 0.038 0.033 -0.008 0.001 0.006
O44 0.18(2) 0.105(16) 0.068(11) -0.038(11) -0.010(12) 0.066(14)
O45 0.096(15) 0.122(18) 0.19(2) 0.079(16) -0.004(15) -0.038(13)
loop_
_geom_bond_atom_site_label_1
_geom_bond_atom_site_label_2
_geom_bond_site_symmetry_1
_geom_bond_site_symmetry_2
W1 O4 1_555 1_555
W2 O4 1_555 1_555
W3 O1 1_555 1_555
W4 O1 1_555 1_555
W5 O14 1_555 1_555
W6 O2 1_555 1_555
W7 O4 1_555 1_555
W8 O2 1_555 1_555
W9 O7 1_555 1_555
Co1 O3 1_555 1_555
Co2 O3 1_555 1_555
P1 O1 1_555 1_555
O2 P1 1_555 1_555
O3 P1 1_555 1_555
O4 P1 1_555 1_555
O5 W4 1_555 1_555
O6 W3 1_555 1_555
O7 W4 1_555 1_555
O8 W3 1_555 1_555
O9 W4 1_555 1_555
O10 W4 1_555 1_555
O11 W2 1_555 1_555
O12 W8 1_555 1_555
O13 W8 1_555 1_555
O14 W8 1_555 1_555
O15 Co1 1_555 1_555
O16 W7 1_555 1_555
O17 W6 1_555 1_555
O18 W7 1_555 1_555
O19 W2 1_555 1_555
O20 W1 1_555 1_555
O21 W6 1_555 1_555
O22 W2 1_555 1_555
O23 W2 1_555 1_555
O24 W1 1_555 1_555
O25 W1 1_555 1_555
O26 W5 1_555 1_555
O27 W5 1_555 1_555
O28 W1 1_555 1_555
O29 W9 1_555 1_555
O30 W5 1_555 1_555
O31 W3 1_555 1_555
O32 W6 1_555 1_555
O33 W1 1_555 1_555
O34 W6 1_555 1_555
Co3 O28 1_555 1_555
C1 C22 1_555 1_555
C2 C4 1_555 1_555
C3 C5 1_555 1_555
C4 C30 1_555 1_555
C5 C6 1_555 1_555
C6 H1 1_555 1_555
C7 C5 1_555 1_555
H2 C7 1_555 1_555
C8 C7 1_555 1_555
H3 C8 1_555 1_555
C9 C15 1_555 1_555
C10 C17 1_555 1_555
C11 C12 1_555 1_555
C12 C13 1_555 1_555
C13 H4 1_555 1_555
C14 C13 1_555 1_555
H5 C14 1_555 1_555
C15 C16 1_555 1_555
C16 H6 1_555 1_555
C17 C18 1_555 1_555
C18 H7 1_555 1_555
C19 C18 1_555 1_555
H8 C19 1_555 1_555
C20 H9 1_555 1_555
C21 C6 1_555 1_555
H10 C21 1_555 1_555
C22 C23 1_555 1_555
C23 H11 1_555 1_555
C24 C12 1_555 1_555
H12 C24 1_555 1_555
C25 C23 1_555 1_555
H13 C25 1_555 1_555
C26 C17 1_555 1_555
H14 C26 1_555 1_555
C27 C16 1_555 1_555
H15 C27 1_555 1_555
C28 C22 1_555 1_555
H16 C28 1_555 1_555
C29 C28 1_555 1_555
H17 C29 1_555 1_555
C30 H18 1_555 1_555
C31 C30 1_555 1_555
H19 C31 1_555 1_555
C32 C4 1_555 1_555
H20 C32 1_555 1_555
C33 C32 1_555 1_555
H21 C33 1_555 1_555
C34 C15 1_555 1_555
H22 C34 1_555 1_555
C35 C34 1_555 1_555
H23 C35 1_555 1_555
C36 C26 1_555 1_555
H24 C36 1_555 1_555
N1 Co3 1_555 1_555
N2 C27 1_555 1_555
N3 C9 1_555 1_555
N4 C9 1_555 1_555
N5 C10 1_555 1_555
N6 C1 1_555 1_555
N7 C1 1_555 1_555
N8 C2 1_555 1_555
N9 C8 1_555 1_555
N10 C19 1_555 1_555
N11 Co3 1_555 1_555
N12 C31 1_555 1_555
O35 Co3 1_555 1_555
Co4 N2 1_555 1_555
O36 Co4 1_555 1_555
O37 Co4 1_555 1_555
O38 Co4 1_555 1_555
O39 Co1 1_555 1_555
O40 Co3 1_555 1_555
Co5 O41 1_555 1_555
O42 Co5 1_555 1_555
O43 Co5 1_555 1_555
W3D O15 1_555 1_555
Co1D O23 1_555 1_555
Co2D O3 1_555 1_555
O3D Co2 1_555 1_555
O5D Co2 1_555 1_555
O13D Co4 1_555 1_555
O15D W3 1_555 1_555
O23D Co1 1_555 1_555
O29C Co3 1_555 1_555
O34B Co4 1_555 1_555
Co3C O29 1_555 1_555
Co4B O34 1_555 1_555
Co4D O13 1_555 1_555
O41D Co5 1_555 1_555
O42D Co5 1_555 1_555
O43D Co5 1_555 1_555
W2 O24 1_555 1_555
W3 O11 1_555 1_555
W4 O6 1_555 1_555
W5 O25 1_555 1_555
W6 O27 1_555 1_555
W7 O19 1_555 1_555
W7 O20 1_555 1_555
W7 O21 1_555 1_555
W8 O10 1_555 1_555
W8 O32 1_555 1_555
W9 O26 1_555 1_555
W9 O31 1_555 1_555
W9 O33 1_555 1_555
Co1 O12 1_555 1_555
Co1 O17 1_555 1_555
Co2 O15 1_555 1_555
Co2 O16 1_555 1_555
Co2 O23 1_555 1_555
O5 Co2D 1_555 1_555
C2 N6 1_555 1_555
C3 N7 1_555 1_555
C3 N8 1_555 1_555
C10 N3 1_555 1_555
C11 N4 1_555 1_555
C11 N5 1_555 1_555
C14 N1 1_555 1_555
C20 C24 1_555 1_555
C20 N1 1_555 1_555
C21 N9 1_555 1_555
C25 N11 1_555 1_555
C29 N11 1_555 1_555
C33 N12 1_555 1_555
C35 N2 1_555 1_555
C36 N10 1_555 1_555
Co1D O3D 1_555 1_555
Co1D O15D 1_555 1_555
Co2D O3D 1_555 1_555
Co2D O15D 1_555 1_555
Co2D O23D 1_555 1_555

#END
