
#######################################################################
#
#                 Cambridge Crystallographic Data Centre
#                                CCDC 
#
#######################################################################
#
# If this CIF has been generated from an entry in the Cambridge 
# Structural Database, then it will include bibliographic, chemical, 
# crystal, experimental, refinement or atomic coordinate data resulting 
# from the CCDC's data processing and validation procedures.
#
#######################################################################

data_BETDOV
_chemical_formula_moiety         '(C22 H22 Gd1 N3 O8)n'
_symmetry_cell_setting           monoclinic
_symmetry_space_group_name_H-M   'C 2/c'
_symmetry_Int_Tables_number      15
_space_group_name_Hall           '-C 2yc'
loop_
_symmetry_equiv_pos_site_id
_symmetry_equiv_pos_as_xyz
1 x,y,z
2 -x,y,1/2-z
3 1/2+x,1/2+y,z
4 1/2-x,1/2+y,1/2-z
5 -x,-y,-z
6 x,-y,1/2+z
7 1/2-x,1/2-y,-z
8 1/2+x,1/2-y,1/2+z
_cell_length_a                   28.747(2)
_cell_length_b                   14.4478(10)
_cell_length_c                   13.3233(8)
_cell_angle_alpha                90
_cell_angle_beta                 99.760(7)
_cell_angle_gamma                90
_cell_volume                     5453.49
loop_
_atom_site_label
_atom_site_type_symbol
_atom_site_fract_x
_atom_site_fract_y
_atom_site_fract_z
_atom_site_U_iso_or_equiv
_atom_site_thermal_displace_type
Gd1 Gd 0.182860(15) 0.71325(3) 0.45891(4) 0.0314 Uani
O1 O 0.1091(3) 0.6832(6) 0.5150(8) 0.0625 Uani
O2 O 0.1225(3) 0.8316(5) 0.4971(7) 0.0602 Uani
O3 O -0.2939(2) 1.0716(4) 0.5532(5) 0.0430 Uani
O4 O -0.2312(2) 1.1541(4) 0.5411(5) 0.0405 Uani
O5 O -0.2014(2) 0.7601(5) 0.8702(5) 0.0389 Uani
O6 O -0.2721(2) 0.8302(5) 0.8310(5) 0.0463 Uani
O7 O 0.1430(4) 0.5894(8) 0.3601(8) 0.0567 Uani
O8 O 0.1400(5) 0.7797(12) 0.3066(14) 0.0653 Uani
N1 N -0.0983(3) 0.9190(6) 0.6476(7) 0.0498 Uani
N2 N 0.1187(5) 0.5138(10) 0.1938(11) 0.0711 Uani
N3 N 0.1205(7) 0.8789(13) 0.1748(14) 0.0950 Uani
C1 C 0.0972(3) 0.7667(8) 0.5217(8) 0.0445 Uani
C2 C 0.0521(4) 0.7880(7) 0.5563(9) 0.0466 Uani
C3 C 0.0226(5) 0.7146(9) 0.5771(14) 0.0764 Uani
H1 H 0.0317 0.6535 0.5701 0.0920 Uiso
C4 C -0.0203(5) 0.7345(11) 0.6082(16) 0.0968 Uani
H2 H -0.0397 0.6862 0.6221 0.1160 Uiso
C5 C -0.0342(4) 0.8221(9) 0.6183(10) 0.0591 Uani
C6 C -0.0053(4) 0.8952(9) 0.5977(9) 0.0603 Uani
H3 H -0.0145 0.9561 0.6058 0.0720 Uiso
C7 C 0.0368(4) 0.8766(8) 0.5652(10) 0.0574 Uani
H4 H 0.0552 0.9255 0.5491 0.0690 Uiso
C8 C -0.0812(4) 0.8387(10) 0.6470(9) 0.0603 Uani
H5 H -0.098(4) 0.788(6) 0.670(11) 0.0720 Uiso
C9 C -0.2497(3) 1.0819(6) 0.5731(7) 0.0334 Uani
C10 C -0.2197(3) 1.0081(6) 0.6276(7) 0.0366 Uani
C11 C -0.1727(3) 0.9983(6) 0.6153(8) 0.0403 Uani
H6 H -0.1596 1.0394 0.5743 0.0480 Uiso
C12 C -0.1454(3) 0.9257(7) 0.6655(8) 0.0421 Uani
C13 C -0.1636(3) 0.8698(6) 0.7341(7) 0.0383 Uani
H7 H -0.1445 0.8253 0.7712 0.0460 Uiso
C14 C -0.2106(3) 0.8800(6) 0.7476(7) 0.0354 Uani
C15 C -0.2390(3) 0.9473(6) 0.6923(7) 0.0372 Uani
H8 H -0.2707 0.9520 0.6983 0.0440 Uiso
C16 C -0.2297(4) 0.8194(7) 0.8196(8) 0.0433 Uani
C17 C 0.1338(7) 0.5865(13) 0.2606(14) 0.0749 Uani
C18 C 0.1210(9) 0.4262(15) 0.2502(18) 0.0999 Uani
H9 H 0.1106 0.3765 0.2039 0.1500 Uiso
H10 H 0.1010 0.4297 0.3009 0.1500 Uiso
H11 H 0.1530 0.4150 0.2826 0.1500 Uiso
C19 C 0.1017(8) 0.5248(15) 0.0886(14) 0.0840 Uani
H12 H 0.0928 0.4655 0.0587 0.1260 Uiso
H13 H 0.1259 0.5515 0.0564 0.1260 Uiso
H14 H 0.0746 0.5649 0.0792 0.1260 Uiso
C20 C 0.1525(8) 0.8206(17) 0.2427(18) 0.0877 Uani
C21 C 0.0745(8) 0.8904(17) 0.1961(18) 0.1001 Uani
H15 H 0.0696 0.8483 0.2490 0.1500 Uiso
H16 H 0.0520 0.8779 0.1358 0.1500 Uiso
H17 H 0.0707 0.9528 0.2179 0.1500 Uiso
C22 C 0.1413(9) 0.9243(17) 0.1064(18) 0.1022 Uani
H18 H 0.1729 0.9015 0.1092 0.1530 Uiso
H19 H 0.1423 0.9892 0.1218 0.1530 Uiso
H20 H 0.1236 0.9145 0.0394 0.1530 Uiso
Gd1A Gd -0.182860(15) 0.71325(3) 1.04109(4) 0.0314 Uani
Gd1B Gd -0.317140(15) 1.21325(3) 0.45891(4) 0.0314 Uani
Gd1D Gd -0.182860(15) 1.28675(3) 0.54109(4) 0.0314 Uani
Gd1G Gd -0.317140(15) 0.78675(3) 0.95891(4) 0.0314 Uani
O3B O 0.2061(2) 0.5716(4) 0.5532(5) 0.0430 Uani
O4B O 0.2688(2) 0.6541(4) 0.5411(5) 0.0405 Uani
O4D O 0.2312(2) 0.8459(4) 0.4589(5) 0.0405 Uani
O5A O 0.2014(2) 0.7601(5) 0.6298(5) 0.0389 Uani
O6G O 0.2279(2) 0.6698(5) 0.3310(5) 0.0463 Uani
loop_
_atom_site_aniso_label
_atom_site_aniso_U_11
_atom_site_aniso_U_22
_atom_site_aniso_U_33
_atom_site_aniso_U_23
_atom_site_aniso_U_13
_atom_site_aniso_U_12
Gd1 0.0203(3) 0.0343(3) 0.0423(3) 0.0000(2) 0.0128(2) 0.00120(17)
O1 0.034(4) 0.051(4) 0.107(7) -0.014(5) 0.025(4) 0.002(3)
O2 0.049(4) 0.053(5) 0.086(6) 0.017(4) 0.033(4) 0.016(3)
O3 0.026 0.04 0.068 0.001 0.022 -0.001
O4 0.034 0.036 0.06 -0.002 0.032 0.007
O5 0.029 0.046 0.046 0.01 0.019 0.006
O6 0.025 0.059 0.06 0.026 0.022 0.008
O7 0.046(4) 0.059(4) 0.065(3) -0.005(4) 0.009(3) -0.016(4)
O8 0.065(5) 0.068(5) 0.061(4) -0.006(3) 0.005(4) 0.009(4)
N1 0.033(4) 0.062(6) 0.058(5) 0.009(4) 0.018(4) 0.013(4)
N2 0.069(5) 0.073(4) 0.072(4) -0.009(3) 0.014(4) 0.002(4)
N3 0.100(5) 0.090(6) 0.093(5) 0.009(4) 0.011(4) 0.004(4)
C1 0.029(5) 0.062(6) 0.049(5) -0.006(5) 0.025(4) -0.010(4)
C2 0.032(5) 0.054(7) 0.056(6) 0.013(5) 0.014(4) 0.006(4)
C3 0.048(7) 0.065(9) 0.126(13) 0.021(7) 0.043(8) 0.006(5)
C4 0.059(9) 0.071(9) 0.174(18) 0.039(10) 0.059(10) 0.005(7)
C5 0.049(6) 0.065(7) 0.068(7) 0.018(6) 0.023(5) 0.011(5)
C6 0.054(6) 0.060(7) 0.074(8) 0.017(6) 0.031(6) 0.007(5)
C7 0.037(5) 0.059(7) 0.079(8) -0.001(6) 0.018(5) 0.001(5)
C8 0.047(6) 0.079(9) 0.059(7) 0.017(6) 0.021(5) 0.006(6)
C9 0.028 0.03 0.046 0 0.017 0.003
C10 0.029 0.034 0.049 -0.002 0.013 -0.002
C11 0.033 0.034 0.06 0.01 0.025 0.006
C12 0.025 0.053 0.052 0.009 0.017 0.004
C13 0.033 0.042 0.044 0.013 0.018 0.002
C14 0.029 0.043 0.036 0.001 0.011 0
C15 0.028 0.04 0.048 -0.003 0.019 0.002
C16 0.043 0.039 0.053 0.009 0.023 0.004
C17 0.075(6) 0.080(5) 0.070(3) -0.004(3) 0.013(4) 0.002(4)
C18 0.108(7) 0.091(5) 0.101(6) 0.010(4) 0.019(5) -0.004(5)
C19 0.086(6) 0.085(6) 0.080(4) -0.005(4) 0.011(4) -0.002(5)
C20 0.090(5) 0.090(6) 0.083(5) 0.002(4) 0.014(4) -0.005(4)
C21 0.100(5) 0.100(7) 0.099(7) 0.000(5) 0.013(4) 0.000(4)
C22 0.107(6) 0.101(7) 0.098(6) 0.008(4) 0.016(4) 0.002(5)
Gd1A 0.0203 0.0343 0.0423 0 0.0128 -0.0012
Gd1B 0.0203 0.0343 0.0423 0 0.0128 0.0012
Gd1D 0.0203 0.0343 0.0423 0 0.0128 0.0012
Gd1G 0.0203 0.0343 0.0423 0 0.0128 -0.0012
O3B 0.026 0.04 0.068 0.001 0.022 -0.001
O4B 0.034 0.036 0.06 -0.002 0.032 0.007
O4D 0.034 0.036 0.06 -0.002 0.032 0.007
O5A 0.029 0.046 0.046 -0.01 0.019 -0.006
O6G 0.025 0.059 0.06 -0.026 0.022 -0.008
loop_
_geom_bond_atom_site_label_1
_geom_bond_atom_site_label_2
_geom_bond_site_symmetry_1
_geom_bond_site_symmetry_2
Gd1 O1 1_555 1_555
O1 C1 1_555 1_555
O2 Gd1 1_555 1_555
O3 C9 1_555 1_555
O4 C9 1_555 1_555
O5 C16 1_555 1_555
O6 C16 1_555 1_555
O7 Gd1 1_555 1_555
O8 Gd1 1_555 1_555
N1 C8 1_555 1_555
N2 C17 1_555 1_555
N3 C20 1_555 1_555
C1 O2 1_555 1_555
C2 C1 1_555 1_555
C3 C2 1_555 1_555
H1 C3 1_555 1_555
C4 C3 1_555 1_555
H2 C4 1_555 1_555
C5 C4 1_555 1_555
C6 C5 1_555 1_555
H3 C6 1_555 1_555
C7 C2 1_555 1_555
H4 C7 1_555 1_555
C8 C5 1_555 1_555
H5 C8 1_555 1_555
C9 C10 1_555 1_555
C10 C11 1_555 1_555
C11 H6 1_555 1_555
C12 N1 1_555 1_555
C13 C12 1_555 1_555
H7 C13 1_555 1_555
C14 C13 1_555 1_555
C15 C10 1_555 1_555
H8 C15 1_555 1_555
C16 C14 1_555 1_555
C17 O7 1_555 1_555
C18 N2 1_555 1_555
H9 C18 1_555 1_555
H10 C18 1_555 1_555
H11 C18 1_555 1_555
C19 N2 1_555 1_555
H12 C19 1_555 1_555
H13 C19 1_555 1_555
H14 C19 1_555 1_555
C20 O8 1_555 1_555
C21 N3 1_555 1_555
H15 C21 1_555 1_555
H16 C21 1_555 1_555
H17 C21 1_555 1_555
C22 N3 1_555 1_555
H18 C22 1_555 1_555
H19 C22 1_555 1_555
H20 C22 1_555 1_555
Gd1A O5 1_555 1_555
Gd1B O3 1_555 1_555
Gd1D O4 1_555 1_555
Gd1G O6 1_555 1_555
O3B Gd1 1_555 1_555
O4B Gd1 1_555 1_555
O4D Gd1 1_555 1_555
O5A Gd1 1_555 1_555
O6G Gd1 1_555 1_555
O4 Gd1B 1_555 1_555
C6 C7 1_555 1_555
C11 C12 1_555 1_555
C14 C15 1_555 1_555

#END
