
#######################################################################
#
#                 Cambridge Crystallographic Data Centre
#                                CCDC 
#
#######################################################################
#
# If this CIF has been generated from an entry in the Cambridge 
# Structural Database, then it will include bibliographic, chemical, 
# crystal, experimental, refinement or atomic coordinate data resulting 
# from the CCDC's data processing and validation procedures.
#
#######################################################################

data_XIPBII
_chemical_formula_moiety         '(C84 H66 Co6 N12 Nd4 O63)n'
_symmetry_cell_setting           hexagonal
_symmetry_space_group_name_H-M   'P 6/m c c'
_symmetry_Int_Tables_number      192
_space_group_name_Hall           '-P 6 2c'
loop_
_symmetry_equiv_pos_site_id
_symmetry_equiv_pos_as_xyz
1 x,y,z
2 -y,x-y,z
3 -x+y,-x,z
4 y,-x+y,z
5 x-y,x,z
6 y,x,1/2-z
7 -x+y,y,1/2-z
8 x,x-y,1/2-z
9 -x,-y,z
10 x-y,-y,1/2-z
11 -x,-x+y,1/2-z
12 -y,-x,1/2-z
13 -x,-y,-z
14 y,-x+y,-z
15 x-y,x,-z
16 -y,x-y,-z
17 -x+y,-x,-z
18 -y,-x,1/2+z
19 x-y,-y,1/2+z
20 -x,-x+y,1/2+z
21 x,y,-z
22 -x+y,y,1/2+z
23 x,x-y,1/2+z
24 y,x,1/2+z
_cell_length_a                   15.4318(8)
_cell_length_b                   15.4318(8)
_cell_length_c                   15.2764(17)
_cell_angle_alpha                90
_cell_angle_beta                 90
_cell_angle_gamma                120
_cell_volume                     3150.54
loop_
_atom_site_label
_atom_site_type_symbol
_atom_site_fract_x
_atom_site_fract_y
_atom_site_fract_z
Nd1 Nd 0.6667 0.3333 0.2500
Co1 Co 0.5000 0.0000 0.0000
O1 O 0.5826(2) 0.1960(2) 0.1415(2)
O2 O 0.4454(2) 0.0580(2) 0.0940(2)
O3 O 0.6445(3) 0.1333(3) 0.0000
N1 N 0.4751(4) 0.23757(19) 0.2500
C1 C 0.4885(3) 0.1350(3) 0.1388(3)
C2 C 0.4246(3) 0.1596(3) 0.1966(3)
C3 C 0.3210(3) 0.1064(4) 0.1940(4)
H3 H 0.2871 0.0530 0.1556
C4 C 0.2696(6) 0.1348(3) 0.2500
H4 H 0.2000 0.1000 0.2500
Nd1T Nd 0.6667 0.3333 -0.2500
Nd1W Nd 0.3333 -0.3333 -0.2500
Nd1E Nd 0.3333 -0.3333 0.2500
Nd1T_2 Nd 0.6667 0.3333 0.7500
Nd1W_2 Nd 0.3333 0.6667 0.7500
Nd1C Nd 0.3333 0.6666 0.2500
Nd1W_3 Nd 1.3333 0.6667 -0.2500
Nd1C_2 Nd 1.3333 0.6666 0.2500
Co1G Co 0.5000 0.5000 0.5000
Co1A Co 1.0000 0.5000 0.0000
Co1F Co 0.5000 0.0000 0.5000
Co1B Co 0.5000 0.5000 0.0000
Co1E Co 1.0000 0.5000 0.5000
Co1G_2 Co 0.5000 0.5000 -0.5000
Co1G_3 Co 0.5000 -0.5000 -0.5000
Co1G_4 Co 0.5000 -0.5000 0.5000
Co1_2 Co 0.5000 0.0000 1.0000
Co1_3 Co 0.5000 1.0000 1.0000
Co1_4 Co 0.5000 1.0000 0.0000
Co1F_2 Co 0.5000 0.0000 -0.5000
Co1F_3 Co 1.5000 1.0000 -0.5000
Co1F_4 Co 1.5000 1.0000 0.5000
O1G O 0.5826(2) 0.3866(3) 0.3585(2)
O1A O 0.8040(2) 0.3866(3) 0.1415(2)
O1F O 0.6134(3) 0.1960(2) 0.3585(2)
O1B O 0.6134(3) 0.4174(2) 0.1415(2)
O1K O 0.8040(2) 0.4174(2) 0.3585(2)
O1T O 0.5826(2) 0.1960(2) -0.1415(2)
O1V O 0.5826(2) 0.3866(3) -0.3585(2)
O1L O 0.4174(2) -0.1960(2) -0.1415(2)
O1S O 0.4174(2) -0.3866(3) -0.3585(2)
O1H O 0.4174(2) -0.1960(2) 0.1415(2)
O1J O 0.4174(2) -0.3866(3) 0.3585(2)
O1V_2 O 0.5826(2) 0.3866(3) 0.6415(2)
O1T_2 O 0.5826(2) 0.1960(2) 0.8585(2)
O1S_2 O 0.4174(2) 0.6134(3) 0.6415(2)
O1L_2 O 0.4174(2) 0.8040(2) 0.8585(2)
O1J_2 O 0.4174(2) 0.6134(3) 0.3585(2)
O1H_2 O 0.4174(2) 0.8040(2) 0.1415(2)
O1O O 0.8040(2) 0.3866(3) -0.1415(2)
O1U O 0.6134(3) 0.1960(2) -0.3585(2)
O1M O 1.1960(2) 0.6134(3) -0.1415(2)
O1R O 1.3866(3) 0.8040(2) -0.3585(2)
O1C O 1.1960(2) 0.6134(3) 0.1415(2)
O1I O 1.3866(3) 0.8040(2) 0.3585(2)
O1P O 0.6134(3) 0.4174(2) -0.1415(2)
O1Q O 0.8040(2) 0.4174(2) -0.3585(2)
O1W O 0.1960(2) -0.4174(2) -0.3585(2)
O1M_2 O 0.1960(2) -0.3866(3) -0.1415(2)
O1N O 0.3866(3) -0.4174(2) -0.1415(2)
O1R_2 O 0.3866(3) -0.1960(2) -0.3585(2)
O1C_2 O 0.1960(2) -0.3866(3) 0.1415(2)
O1D O 0.3866(3) -0.4174(2) 0.1415(2)
O1E O 0.1960(2) -0.4174(2) 0.3585(2)
O1I_2 O 0.3866(3) -0.1960(2) 0.3585(2)
O2G O 0.4454(2) 0.3874(3) 0.4060(2)
O2A O 0.9420(2) 0.3874(3) 0.0940(2)
O2F O 0.6126(3) 0.0580(2) 0.4060(2)
O2B O 0.6126(3) 0.5546(2) 0.0940(2)
O2K O 0.9420(2) 0.5546(2) 0.4060(2)
O2T O 0.4454(2) 0.0580(2) -0.0940(2)
O2V O 0.4454(2) 0.3874(3) -0.4060(2)
O2L O 0.5546(2) -0.0580(2) -0.0940(2)
O2S O 0.5546(2) -0.3874(3) -0.4060(2)
O2H O 0.5546(2) -0.0580(2) 0.0940(2)
O2J O 0.5546(2) -0.3874(3) 0.4060(2)
O2V_2 O 0.4454(2) 0.3874(3) 0.5940(2)
O2T_2 O 0.4454(2) 0.0580(2) 0.9060(2)
O2S_2 O 0.5546(2) 0.6126(3) 0.5940(2)
O2L_2 O 0.5546(2) 0.9420(2) 0.9060(2)
O2J_2 O 0.5546(2) 0.6126(3) 0.4060(2)
O2H_2 O 0.5546(2) 0.9420(2) 0.0940(2)
O2O O 0.9420(2) 0.3874(3) -0.0940(2)
O2U O 0.6126(3) 0.0580(2) -0.4060(2)
O2M O 1.0580(2) 0.6126(3) -0.0940(2)
O2R O 1.3874(3) 0.9420(2) -0.4060(2)
O2C O 1.0580(2) 0.6126(3) 0.0940(2)
O2I O 1.3874(3) 0.9420(2) 0.4060(2)
O2U_2 O 0.6126(3) 0.0580(2) 0.5940(2)
O2R_2 O 0.3874(3) -0.0580(2) 0.5940(2)
O2I_2 O 0.3874(3) -0.0580(2) 0.4060(2)
O2D O 0.3874(3) 0.4454(2) 0.0940(2)
O2N O 0.3874(3) 0.4454(2) -0.0940(2)
O2P O 0.6126(3) 0.5546(2) -0.0940(2)
O2E O 1.0580(2) 0.4454(2) 0.4060(2)
O2W O 1.0580(2) 0.4454(2) 0.5940(2)
O2Q O 0.9420(2) 0.5546(2) 0.5940(2)
O3L O 0.3555(3) -0.1333(3) 0.0000
O3G O 0.6445(3) 0.5112(4) 0.5000
O3S O 0.3555(3) 0.4888(4) 0.5000
O3A O 0.8667(3) 0.5112(4) 0.0000
O3C O 1.1333(3) 0.4888(4) 0.0000
O3F O 0.4888(4) 0.1333(3) 0.5000
O3R O 0.5112(4) -0.1333(3) 0.5000
O3B O 0.4888(4) 0.3555(3) 0.0000
O3D O 0.5112(4) 0.6445(3) 0.0000
O3Q O 0.8667(3) 0.3555(3) 0.5000
O3E O 1.1333(3) 0.6445(3) 0.5000
N1A N 0.76243(19) 0.23753(44) 0.2500
N1B N 0.76247(44) 0.5249(4) 0.2500
N1T N 0.4751(4) 0.23757(19) -0.2500
N1L N 0.5249(4) -0.23757(19) -0.2500
N1H N 0.5249(4) -0.23757(19) 0.2500
N1V N 0.4751(4) 0.23753(44) 0.7500
N1S N 0.5249(4) 0.76247(44) 0.7500
N1J N 0.5249(4) 0.76247(44) 0.2500
N1O N 0.76243(19) 0.23753(44) -0.2500
N1M N 1.23757(19) 0.76247(44) -0.2500
N1C N 1.23757(19) 0.76247(44) 0.2500
N1P N 0.76247(44) 0.5249(4) -0.2500
N1W N 0.23757(19) -0.5249(4) -0.2500
N1M_2 N 0.23757(19) -0.23753(44) -0.2500
N1C_2 N 0.23757(19) -0.23753(44) 0.2500
N1D N 0.23753(44) -0.5249(4) 0.2500
C1G C 0.4885(3) 0.3535(4) 0.3612(3)
C1A C 0.8650(3) 0.3535(4) 0.1388(3)
C1F C 0.6465(4) 0.1350(3) 0.3612(3)
C1B C 0.6465(4) 0.5115(3) 0.1388(3)
C1K C 0.8650(3) 0.5115(3) 0.3612(3)
C1T C 0.4885(3) 0.1350(3) -0.1388(3)
C1V C 0.4885(3) 0.3535(4) -0.3612(3)
C1L C 0.5115(3) -0.1350(3) -0.1388(3)
C1S C 0.5115(3) -0.3535(4) -0.3612(3)
C1H C 0.5115(3) -0.1350(3) 0.1388(3)
C1J C 0.5115(3) -0.3535(4) 0.3612(3)
C1V_2 C 0.4885(3) 0.3535(4) 0.6388(3)
C1T_2 C 0.4885(3) 0.1350(3) 0.8612(3)
C1S_2 C 0.5115(3) 0.6465(4) 0.6388(3)
C1L_2 C 0.5115(3) 0.8650(3) 0.8612(3)
C1J_2 C 0.5115(3) 0.6465(4) 0.3612(3)
C1H_2 C 0.5115(3) 0.8650(3) 0.1388(3)
C1O C 0.8650(3) 0.3535(4) -0.1388(3)
C1U C 0.6465(4) 0.1350(3) -0.3612(3)
C1M C 1.1350(3) 0.6465(4) -0.1388(3)
C1R C 1.3535(4) 0.8650(3) -0.3612(3)
C1C C 1.1350(3) 0.6465(4) 0.1388(3)
C1I C 1.3535(4) 0.8650(3) 0.3612(3)
C2G C 0.4246(3) 0.2650(4) 0.3034(3)
C2A C 0.8404(3) 0.2650(4) 0.1966(3)
C2F C 0.7350(4) 0.1596(3) 0.3034(3)
C2B C 0.7350(4) 0.5754(3) 0.1966(3)
C2K C 0.8404(3) 0.5754(3) 0.3034(3)
C2T C 0.4246(3) 0.1596(3) -0.1966(3)
C2V C 0.4246(3) 0.2650(4) -0.3034(3)
C2L C 0.5754(3) -0.1596(3) -0.1966(3)
C2S C 0.5754(3) -0.2650(4) -0.3034(3)
C2H C 0.5754(3) -0.1596(3) 0.1966(3)
C2J C 0.5754(3) -0.2650(4) 0.3034(3)
C2V_2 C 0.4246(3) 0.2650(4) 0.6966(3)
C2T_2 C 0.4246(3) 0.1596(3) 0.8034(3)
C2S_2 C 0.5754(3) 0.7350(4) 0.6966(3)
C2L_2 C 0.5754(3) 0.8404(3) 0.8034(3)
C2J_2 C 0.5754(3) 0.7350(4) 0.3034(3)
C2H_2 C 0.5754(3) 0.8404(3) 0.1966(3)
C2O C 0.8404(3) 0.2650(4) -0.1966(3)
C2U C 0.7350(4) 0.1596(3) -0.3034(3)
C2M C 1.1596(3) 0.7350(4) -0.1966(3)
C2R C 1.2650(4) 0.8404(3) -0.3034(3)
C2C C 1.1596(3) 0.7350(4) 0.1966(3)
C2I C 1.2650(4) 0.8404(3) 0.3034(3)
C3G C 0.3210(3) 0.2146(5) 0.3060(4)
C3A C 0.8936(4) 0.2146(5) 0.1940(4)
C3F C 0.7854(5) 0.1064(4) 0.3060(4)
C3B C 0.7854(5) 0.6790(3) 0.1940(4)
C3K C 0.8936(4) 0.6790(3) 0.3060(4)
C3T C 0.3210(3) 0.1064(4) -0.1940(4)
C3V C 0.3210(3) 0.2146(5) -0.3060(4)
C3L C 0.6790(3) -0.1064(4) -0.1940(4)
C3S C 0.6790(3) -0.2146(5) -0.3060(4)
C3H C 0.6790(3) -0.1064(4) 0.1940(4)
C3J C 0.6790(3) -0.2146(5) 0.3060(4)
C3V_2 C 0.3210(3) 0.2146(5) 0.6940(4)
C3T_2 C 0.3210(3) 0.1064(4) 0.8060(4)
C3S_2 C 0.6790(3) 0.7854(5) 0.6940(4)
C3L_2 C 0.6790(3) 0.8936(4) 0.8060(4)
C3J_2 C 0.6790(3) 0.7854(5) 0.3060(4)
C3H_2 C 0.6790(3) 0.8936(4) 0.1940(4)
C3O C 0.8936(4) 0.2146(5) -0.1940(4)
C3U C 0.7854(5) 0.1064(4) -0.3060(4)
C3M C 1.1064(4) 0.7854(5) -0.1940(4)
C3R C 1.2146(5) 0.8936(4) -0.3060(4)
C3C C 1.1064(4) 0.7854(5) 0.1940(4)
C3I C 1.2146(5) 0.8936(4) 0.3060(4)
H3G H 0.2871 0.2341 0.3444
H3A H 0.9470 0.2341 0.1556
H3F H 0.7659 0.0530 0.3444
H3B H 0.7659 0.7129 0.1556
H3K H 0.9470 0.7129 0.3444
H3T H 0.2871 0.0530 -0.1556
H3V H 0.2871 0.2341 -0.3444
H3L H 0.7129 -0.0530 -0.1556
H3S H 0.7129 -0.2341 -0.3444
H3H H 0.7129 -0.0530 0.1556
H3J H 0.7129 -0.2341 0.3444
H3V_2 H 0.2871 0.2341 0.6556
H3T_2 H 0.2871 0.0530 0.8444
H3S_2 H 0.7129 0.7659 0.6556
H3L_2 H 0.7129 0.9470 0.8444
H3J_2 H 0.7129 0.7659 0.3444
H3H_2 H 0.7129 0.9470 0.1556
H3O H 0.9470 0.2341 -0.1556
H3U H 0.7659 0.0530 -0.3444
H3M H 1.0530 0.7659 -0.1556
H3R H 1.2341 0.9470 -0.3444
H3C H 1.0530 0.7659 0.1556
H3I H 1.2341 0.9470 0.3444
C4A C 0.8652(3) 0.1348(7) 0.2500
C4B C 0.8652(7) 0.7304(6) 0.2500
C4T C 0.2696(6) 0.1348(3) -0.2500
C4L C 0.7304(6) -0.1348(3) -0.2500
C4H C 0.7304(6) -0.1348(3) 0.2500
C4T_2 C 0.2696(6) 0.1348(3) 0.7500
C4L_2 C 0.7304(6) 0.8652(3) 0.7500
C4H_2 C 0.7304(6) 0.8652(3) 0.2500
C4U C 0.8652(7) 0.1348(3) -0.2500
C4M C 1.1348(3) 0.8652(7) -0.2500
C4C C 1.1348(3) 0.8652(7) 0.2500
H4A H 0.9000 0.1000 0.2500
H4B H 0.9000 0.8000 0.2500
H4T H 0.2000 0.1000 -0.2500
H4L H 0.8000 -0.1000 -0.2500
H4H H 0.8000 -0.1000 0.2500
H4T_2 H 0.2000 0.1000 0.7500
H4L_2 H 0.8000 0.9000 0.7500
H4H_2 H 0.8000 0.9000 0.2500
H4U H 0.9000 0.1000 -0.2500
H4M H 1.1000 0.9000 -0.2500
H4C H 1.1000 0.9000 0.2500
O4 O 0.780(2) 0.049(2) 0.0000
O8 O 0.0000 0.0000 0.2500
O9 O 0.866(5) 0.970(5) 0.0000
loop_
_geom_bond_atom_site_label_1
_geom_bond_atom_site_label_2
_geom_bond_site_symmetry_1
_geom_bond_site_symmetry_2
Nd1 O1 1_555 1_555
Co1 O2 1_555 1_555
O1 C1 1_555 1_555
O2 C1 1_555 1_555
O3 Co1 1_555 1_555
N1 Nd1 1_555 1_555
C1 C2 1_555 1_555
C2 N1 1_555 1_555
C3 C2 1_555 1_555
H3 C3 1_555 1_555
C4 C3 1_555 1_555
H4 C4 1_555 1_555
Nd1T O1T 1_555 1_555
Nd1W O1L 1_555 1_555
Nd1E O1H 1_555 1_555
Nd1T_2 O1V_2 1_555 1_555
Nd1W_2 O1S_2 1_555 1_555
Nd1C O1J_2 1_555 1_555
Nd1W_3 O1M 1_555 1_555
Nd1C_2 O1C 1_555 1_555
Co1G O2G 1_555 1_555
Co1A O2A 1_555 1_555
Co1F O2F 1_555 1_555
Co1B O2B 1_555 1_555
Co1E O2K 1_555 1_555
Co1G_2 O2V 1_555 1_555
Co1G_3 O2S 1_555 1_555
Co1G_4 O2J 1_555 1_555
Co1_2 O2T_2 1_555 1_555
Co1_3 O2L_2 1_555 1_555
Co1_4 O2H_2 1_555 1_555
Co1F_2 O2U 1_555 1_555
Co1F_3 O2R 1_555 1_555
Co1F_4 O2I 1_555 1_555
O1G Nd1 1_555 1_555
O1A Nd1 1_555 1_555
O1F Nd1 1_555 1_555
O1B Nd1 1_555 1_555
O1K Nd1 1_555 1_555
O1T C1T 1_555 1_555
O1V Nd1T 1_555 1_555
O1L C1L 1_555 1_555
O1S Nd1W 1_555 1_555
O1H C1H 1_555 1_555
O1J Nd1E 1_555 1_555
O1V_2 C1V_2 1_555 1_555
O1T_2 Nd1T_2 1_555 1_555
O1S_2 C1S_2 1_555 1_555
O1L_2 Nd1W_2 1_555 1_555
O1J_2 C1J_2 1_555 1_555
O1H_2 Nd1C 1_555 1_555
O1O Nd1T 1_555 1_555
O1U Nd1T 1_555 1_555
O1M C1M 1_555 1_555
O1R Nd1W_3 1_555 1_555
O1C C1C 1_555 1_555
O1I Nd1C_2 1_555 1_555
O1P Nd1T 1_555 1_555
O1Q Nd1T 1_555 1_555
O1W Nd1W 1_555 1_555
O1M_2 Nd1W 1_555 1_555
O1N Nd1W 1_555 1_555
O1R_2 Nd1W 1_555 1_555
O1C_2 Nd1E 1_555 1_555
O1D Nd1E 1_555 1_555
O1E Nd1E 1_555 1_555
O1I_2 Nd1E 1_555 1_555
O2G C1G 1_555 1_555
O2A C1A 1_555 1_555
O2F C1F 1_555 1_555
O2B C1B 1_555 1_555
O2K C1K 1_555 1_555
O2T Co1 1_555 1_555
O2V C1V 1_555 1_555
O2L Co1 1_555 1_555
O2S C1S 1_555 1_555
O2H Co1 1_555 1_555
O2J C1J 1_555 1_555
O2V_2 Co1G 1_555 1_555
O2T_2 C1T_2 1_555 1_555
O2S_2 Co1G 1_555 1_555
O2L_2 C1L_2 1_555 1_555
O2J_2 Co1G 1_555 1_555
O2H_2 C1H_2 1_555 1_555
O2O Co1A 1_555 1_555
O2U C1U 1_555 1_555
O2M Co1A 1_555 1_555
O2R C1R 1_555 1_555
O2C Co1A 1_555 1_555
O2I C1I 1_555 1_555
O2U_2 Co1F 1_555 1_555
O2R_2 Co1F 1_555 1_555
O2I_2 Co1F 1_555 1_555
O2D Co1B 1_555 1_555
O2N Co1B 1_555 1_555
O2P Co1B 1_555 1_555
O2E Co1E 1_555 1_555
O2W Co1E 1_555 1_555
O2Q Co1E 1_555 1_555
O3L Co1 1_555 1_555
O3G Co1G 1_555 1_555
O3S Co1G 1_555 1_555
O3A Co1A 1_555 1_555
O3C Co1A 1_555 1_555
O3F Co1F 1_555 1_555
O3R Co1F 1_555 1_555
O3B Co1B 1_555 1_555
O3D Co1B 1_555 1_555
O3Q Co1E 1_555 1_555
O3E Co1E 1_555 1_555
N1A Nd1 1_555 1_555
N1B Nd1 1_555 1_555
N1T Nd1T 1_555 1_555
N1L Nd1W 1_555 1_555
N1H Nd1E 1_555 1_555
N1V Nd1T_2 1_555 1_555
N1S Nd1W_2 1_555 1_555
N1J Nd1C 1_555 1_555
N1O Nd1T 1_555 1_555
N1M Nd1W_3 1_555 1_555
N1C Nd1C_2 1_555 1_555
N1P Nd1T 1_555 1_555
N1W Nd1W 1_555 1_555
N1M_2 Nd1W 1_555 1_555
N1C_2 Nd1E 1_555 1_555
N1D Nd1E 1_555 1_555
C1G O1G 1_555 1_555
C1A O1A 1_555 1_555
C1F O1F 1_555 1_555
C1B O1B 1_555 1_555
C1K O1K 1_555 1_555
C1T O2T 1_555 1_555
C1V O1V 1_555 1_555
C1L O2L 1_555 1_555
C1S O1S 1_555 1_555
C1H O2H 1_555 1_555
C1J O1J 1_555 1_555
C1V_2 O2V_2 1_555 1_555
C1T_2 O1T_2 1_555 1_555
C1S_2 O2S_2 1_555 1_555
C1L_2 O1L_2 1_555 1_555
C1J_2 O2J_2 1_555 1_555
C1H_2 O1H_2 1_555 1_555
C1O O1O 1_555 1_555
C1U O1U 1_555 1_555
C1M O2M 1_555 1_555
C1R O1R 1_555 1_555
C1C O2C 1_555 1_555
C1I O1I 1_555 1_555
C2G N1 1_555 1_555
C2A N1A 1_555 1_555
C2F N1A 1_555 1_555
C2B N1B 1_555 1_555
C2K N1B 1_555 1_555
C2T N1T 1_555 1_555
C2V N1T 1_555 1_555
C2L N1L 1_555 1_555
C2S N1L 1_555 1_555
C2H N1H 1_555 1_555
C2J N1H 1_555 1_555
C2V_2 N1V 1_555 1_555
C2T_2 N1V 1_555 1_555
C2S_2 N1S 1_555 1_555
C2L_2 N1S 1_555 1_555
C2J_2 N1J 1_555 1_555
C2H_2 N1J 1_555 1_555
C2O N1O 1_555 1_555
C2U N1O 1_555 1_555
C2M N1M 1_555 1_555
C2R N1M 1_555 1_555
C2C N1C 1_555 1_555
C2I N1C 1_555 1_555
C3G C4 1_555 1_555
C3A C2A 1_555 1_555
C3F C2F 1_555 1_555
C3B C2B 1_555 1_555
C3K C2K 1_555 1_555
C3T C2T 1_555 1_555
C3V C2V 1_555 1_555
C3L C2L 1_555 1_555
C3S C2S 1_555 1_555
C3H C2H 1_555 1_555
C3J C2J 1_555 1_555
C3V_2 C2V_2 1_555 1_555
C3T_2 C2T_2 1_555 1_555
C3S_2 C2S_2 1_555 1_555
C3L_2 C2L_2 1_555 1_555
C3J_2 C2J_2 1_555 1_555
C3H_2 C2H_2 1_555 1_555
C3O C2O 1_555 1_555
C3U C2U 1_555 1_555
C3M C2M 1_555 1_555
C3R C2R 1_555 1_555
C3C C2C 1_555 1_555
C3I C2I 1_555 1_555
H3G C3G 1_555 1_555
H3A C3A 1_555 1_555
H3F C3F 1_555 1_555
H3B C3B 1_555 1_555
H3K C3K 1_555 1_555
H3T C3T 1_555 1_555
H3V C3V 1_555 1_555
H3L C3L 1_555 1_555
H3S C3S 1_555 1_555
H3H C3H 1_555 1_555
H3J C3J 1_555 1_555
H3V_2 C3V_2 1_555 1_555
H3T_2 C3T_2 1_555 1_555
H3S_2 C3S_2 1_555 1_555
H3L_2 C3L_2 1_555 1_555
H3J_2 C3J_2 1_555 1_555
H3H_2 C3H_2 1_555 1_555
H3O C3O 1_555 1_555
H3U C3U 1_555 1_555
H3M C3M 1_555 1_555
H3R C3R 1_555 1_555
H3C C3C 1_555 1_555
H3I C3I 1_555 1_555
C4A C3A 1_555 1_555
C4B C3B 1_555 1_555
C4T C3T 1_555 1_555
C4L C3L 1_555 1_555
C4H C3H 1_555 1_555
C4T_2 C3V_2 1_555 1_555
C4L_2 C3S_2 1_555 1_555
C4H_2 C3J_2 1_555 1_555
C4U C3O 1_555 1_555
C4M C3M 1_555 1_555
C4C C3C 1_555 1_555
H4A C4A 1_555 1_555
H4B C4B 1_555 1_555
H4T C4T 1_555 1_555
H4L C4L 1_555 1_555
H4H C4H 1_555 1_555
H4T_2 C4T_2 1_555 1_555
H4L_2 C4L_2 1_555 1_555
H4H_2 C4H_2 1_555 1_555
H4U C4U 1_555 1_555
H4M C4M 1_555 1_555
H4C C4C 1_555 1_555
O2O C1O 1_555 1_555
C1G C2G 1_555 1_555
C1A C2A 1_555 1_555
C1F C2F 1_555 1_555
C1B C2B 1_555 1_555
C1K C2K 1_555 1_555
C1T C2T 1_555 1_555
C1V C2V 1_555 1_555
C1L C2L 1_555 1_555
C1S C2S 1_555 1_555
C1H C2H 1_555 1_555
C1J C2J 1_555 1_555
C1V_2 C2V_2 1_555 1_555
C1T_2 C2T_2 1_555 1_555
C1S_2 C2S_2 1_555 1_555
C1L_2 C2L_2 1_555 1_555
C1J_2 C2J_2 1_555 1_555
C1H_2 C2H_2 1_555 1_555
C1O C2O 1_555 1_555
C1U C2U 1_555 1_555
C1M C2M 1_555 1_555
C1R C2R 1_555 1_555
C1C C2C 1_555 1_555
C1I C2I 1_555 1_555
C2G C3G 1_555 1_555
C3F C4A 1_555 1_555
C3K C4B 1_555 1_555
C3V C4T 1_555 1_555
C3S C4L 1_555 1_555
C3J C4H 1_555 1_555
C3T_2 C4T_2 1_555 1_555
C3L_2 C4L_2 1_555 1_555
C3H_2 C4H_2 1_555 1_555
C3U C4U 1_555 1_555
C3R C4M 1_555 1_555
C3I C4C 1_555 1_555

#END
