
#######################################################################
#
#                 Cambridge Crystallographic Data Centre
#                                CCDC 
#
#######################################################################
#
# If this CIF has been generated from an entry in the Cambridge 
# Structural Database, then it will include bibliographic, chemical, 
# crystal, experimental, refinement or atomic coordinate data resulting 
# from the CCDC's data processing and validation procedures.
#
#######################################################################

data_CITYAH
_chemical_formula_moiety         'C24 H26 K4 O25 Zr1'
_symmetry_cell_setting           orthorhombic
_symmetry_space_group_name_H-M   'P b c a'
_symmetry_Int_Tables_number      61
_space_group_name_Hall           '-P 2ac 2ab'
loop_
_symmetry_equiv_pos_site_id
_symmetry_equiv_pos_as_xyz
1 x,y,z
2 1/2-x,-y,1/2+z
3 1/2+x,1/2-y,-z
4 -x,1/2+y,1/2-z
5 -x,-y,-z
6 1/2+x,y,1/2-z
7 1/2-x,1/2+y,z
8 x,1/2-y,1/2+z
_cell_length_a                   17.156(3)
_cell_length_b                   20.387(4)
_cell_length_c                   20.562(4)
_cell_angle_alpha                90
_cell_angle_beta                 90
_cell_angle_gamma                90
_cell_volume                     7191.75
loop_
_atom_site_label
_atom_site_type_symbol
_atom_site_fract_x
_atom_site_fract_y
_atom_site_fract_z
_atom_site_U_iso_or_equiv
_atom_site_thermal_displace_type
O1 O 0.4502(2) 0.10234(19) 0.23305(18) 0.0244 Uani
O2 O 0.4252(2) -0.00526(18) 0.17473(17) 0.0213 Uani
O3 O 0.3175(2) 0.11572(18) 0.30474(17) 0.0207 Uani
O4 O 0.2851(2) -0.01228(19) 0.33626(18) 0.0242 Uani
O5 O 0.2797(2) 0.06072(18) 0.19880(18) 0.0237 Uani
O6 O 0.3122(2) -0.06366(18) 0.22590(18) 0.0221 Uani
O7 O 0.4282(2) 0.05597(18) 0.35759(18) 0.0222 Uani
O8 O 0.4497(2) -0.05101(19) 0.29705(19) 0.0248 Uani
C1 C 0.4865(3) 0.0221(3) 0.3793(3) 0.0223 Uani
C2 C 0.5544(3) -0.0855(3) 0.3639(3) 0.0277 Uani
H1 H 0.5571 -0.1270 0.3454 0.0330 Uiso
C3 C 0.5360(3) 0.0424(3) 0.4279(3) 0.0263 Uani
H2 H 0.5275 0.0820 0.4493 0.0320 Uiso
C4 C 0.4977(3) -0.0417(3) 0.3451(3) 0.0247 Uani
C5 C 0.5999(3) 0.0024(3) 0.4448(3) 0.0293 Uani
C6 C 0.6085(3) -0.0659(3) 0.4122(3) 0.0283 Uani
C7 C 0.2645(3) 0.1478(3) 0.2722(3) 0.0210 Uani
C8 C 0.2322(3) 0.2053(3) 0.2920(3) 0.0250 Uani
H3 H 0.2504 0.2263 0.3291 0.0300 Uiso
C9 C 0.2405(3) 0.1142(3) 0.2102(3) 0.0233 Uani
C10 C 0.1830(3) 0.1395(3) 0.1723(3) 0.0270 Uani
H4 H 0.1691 0.1187 0.1338 0.0330 Uiso
C11 C 0.4821(3) 0.0291(3) 0.1489(3) 0.0203 Uani
C12 C 0.4944(3) 0.0941(3) 0.1822(3) 0.0213 Uani
C13 C 0.5464(3) 0.1381(3) 0.1584(3) 0.0257 Uani
H5 H 0.5500 0.1798 0.1765 0.0310 Uiso
C14 C 0.5258(3) 0.0094(3) 0.0975(3) 0.0240 Uani
H6 H 0.5153 -0.0302 0.0768 0.0290 Uiso
C15 C 0.1442(3) 0.1980(3) 0.1920(3) 0.0267 Uani
C16 C 0.1705(3) 0.2329(3) 0.2554(3) 0.0260 Uani
C17 C 0.2080(3) -0.1386(3) 0.2309(3) 0.0230 Uani
H7 H 0.2161 -0.1539 0.1888 0.0270 Uiso
C18 C 0.1852(3) -0.0882(3) 0.3631(3) 0.0240 Uani
H8 H 0.1799 -0.0729 0.4054 0.0290 Uiso
C19 C 0.5951(3) 0.1200(3) 0.1057(3) 0.0240 Uani
C20 C 0.2550(3) -0.0902(3) 0.2560(3) 0.0210 Uani
C21 C 0.2403(3) -0.0619(3) 0.3227(3) 0.0213 Uani
C22 C 0.5876(3) 0.0500(3) 0.0757(3) 0.0227 Uani
C23 C 0.1363(3) -0.1390(3) 0.3397(3) 0.0223 Uani
C24 C 0.1478(3) -0.1648(3) 0.2692(3) 0.0240 Uani
O9 O 0.6365(2) 0.0338(2) 0.03503(19) 0.0266 Uani
O10 O 0.0830(2) -0.1648(2) 0.3707(2) 0.0285 Uani
O11 O 0.6663(3) -0.0986(2) 0.4287(2) 0.0353 Uani
O12 O 0.1336(2) 0.2824(2) 0.2720(2) 0.0310 Uani
O13 O 0.6461(2) 0.1559(2) 0.0812(2) 0.0290 Uani
O14 O 0.1003(2) -0.2077(2) 0.2510(2) 0.0293 Uani
O15 O 0.0890(2) 0.2229(2) 0.1621(2) 0.0330 Uani
O16 O 0.6513(3) 0.0176(2) 0.4840(2) 0.0400 Uani
Zr1 Zr 0.36927(3) 0.02540(2) 0.26559(2) 0.0175 Uani
O17 O 0.3684(3) -0.1395(2) 0.0775(2) 0.0370 Uani
H9 H 0.3255 -0.1690 0.0722 0.0230 Uiso
H10 H 0.3991 -0.1438 0.0463 0.0360 Uiso
O18 O 0.3615(3) 0.1993(2) 0.4547(2) 0.0410 Uani
H11 H 0.3229 0.2167 0.4762 0.0500 Uiso
H12 H 0.4024 0.1959 0.4895 0.0500 Uiso
O19 O 0.3478(3) 0.1114(2) 0.0630(2) 0.0353 Uani
H13 H 0.3202 0.1275 0.0342 0.0700 Uiso
H14 H 0.3479 0.1351 0.0952 0.0500 Uiso
K1 K 0.44362(7) -0.14124(6) 0.19287(6) 0.0269 Uani
K2 K 0.43926(7) 0.19582(6) 0.33885(6) 0.0266 Uani
K3 K 0.30382(7) -0.01743(6) 0.08831(6) 0.0265 Uani
K4 K 0.28718(7) 0.08160(6) 0.43686(6) 0.0254 Uani
O20 O 0.0184(2) -0.1452(2) 0.4919(2) 0.0333 Uani
H15 H 0.0395 -0.1513 0.4527 0.0400 Uiso
H16 H 0.0557 -0.1313 0.5118 0.0500 Uiso
O21 O 0.5183(3) -0.2285(2) 0.4585(3) 0.0460 Uani
H17 H 0.4692 -0.2131 0.4362 0.0500 Uiso
H18 H 0.5139 -0.2728 0.4690 0.0500 Uiso
O22 O 0.7558(3) -0.2358(3) 0.4507(3) 0.0507 Uani
H19 H 0.7792 -0.2747 0.4774 0.0500 Uiso
H20 H 0.7199 -0.2575 0.4126 0.0500 Uiso
O23 O 0.1308(3) -0.2680(2) 0.1315(2) 0.0403 Uani
H21 H 0.1210 -0.2517 0.1725 0.0380 Uiso
H22 H 0.0912 -0.2528 0.0993 0.0600 Uiso
O24 O 0.1298(3) 0.2899(2) 0.4054(2) 0.0433 Uani
H23 H 0.1335 0.2906 0.3587 0.0500 Uiso
H24 H 0.1414 0.2432 0.4059 0.0500 Uiso
O25 O 0.7081(3) 0.1406(3) 0.5029(3) 0.0480 Uani
H25 H 0.6796 0.0958 0.5014 0.0500 Uiso
H26 H 0.6936 0.1517 0.5492 0.0500 Uiso
loop_
_atom_site_aniso_label
_atom_site_aniso_U_11
_atom_site_aniso_U_22
_atom_site_aniso_U_33
_atom_site_aniso_U_23
_atom_site_aniso_U_13
_atom_site_aniso_U_12
O1 0.0231(19) 0.0240(19) 0.026(2) -0.0029(15) 0.0056(15) -0.0042(15)
O2 0.0211(18) 0.0195(17) 0.0232(18) -0.0004(14) 0.0018(14) -0.0035(14)
O3 0.0202(18) 0.0227(18) 0.0193(17) -0.0010(14) -0.0019(14) 0.0023(14)
O4 0.0232(19) 0.0263(19) 0.0232(18) -0.0020(15) 0.0021(15) -0.0048(15)
O5 0.0233(18) 0.0232(18) 0.0245(18) -0.0016(15) -0.0041(15) 0.0032(15)
O6 0.0178(17) 0.0231(18) 0.0253(18) -0.0012(15) 0.0013(14) -0.0023(14)
O7 0.0189(17) 0.0221(18) 0.0256(18) -0.0008(14) -0.0025(14) 0.0025(14)
O8 0.0225(19) 0.0240(19) 0.028(2) 0.0003(15) -0.0025(15) 0.0037(15)
C1 0.018(2) 0.026(3) 0.023(3) 0.005(2) 0.000(2) -0.004(2)
C2 0.027(3) 0.028(3) 0.028(3) 0.002(2) -0.002(2) 0.005(2)
C3 0.027(3) 0.023(3) 0.029(3) -0.001(2) -0.005(2) 0.001(2)
C4 0.020(3) 0.029(3) 0.025(3) 0.003(2) 0.000(2) 0.002(2)
C5 0.024(3) 0.030(3) 0.034(3) 0.007(2) -0.006(2) -0.005(2)
C6 0.022(3) 0.032(3) 0.031(3) 0.008(2) 0.000(2) 0.004(2)
C7 0.016(2) 0.023(3) 0.024(3) 0.002(2) 0.0030(19) -0.001(2)
C8 0.021(3) 0.026(3) 0.028(3) 0.001(2) 0.001(2) 0.000(2)
C9 0.018(2) 0.027(3) 0.025(3) 0.001(2) 0.001(2) 0.000(2)
C10 0.025(3) 0.029(3) 0.027(3) 0.001(2) -0.005(2) 0.000(2)
C11 0.016(2) 0.022(2) 0.023(3) 0.002(2) -0.0005(19) 0.0028(19)
C12 0.017(2) 0.025(3) 0.022(2) 0.001(2) -0.0003(19) 0.002(2)
C13 0.024(3) 0.026(3) 0.027(3) -0.003(2) 0.001(2) -0.004(2)
C14 0.022(3) 0.023(3) 0.027(3) -0.003(2) 0.002(2) -0.004(2)
C15 0.017(2) 0.031(3) 0.032(3) 0.005(2) 0.000(2) 0.001(2)
C16 0.022(3) 0.023(3) 0.033(3) 0.002(2) 0.004(2) -0.001(2)
C17 0.021(3) 0.025(3) 0.023(3) -0.002(2) 0.001(2) -0.004(2)
C18 0.023(3) 0.026(3) 0.023(3) 0.001(2) 0.001(2) -0.003(2)
C19 0.020(2) 0.024(3) 0.028(3) 0.001(2) 0.000(2) -0.001(2)
C20 0.018(2) 0.022(2) 0.023(2) 0.001(2) 0.000(2) 0.003(2)
C21 0.016(2) 0.020(2) 0.028(3) -0.001(2) -0.001(2) 0.0004(19)
C22 0.021(2) 0.025(3) 0.022(2) 0.000(2) 0.001(2) 0.000(2)
C23 0.016(2) 0.023(3) 0.028(3) 0.004(2) 0.000(2) 0.001(2)
C24 0.019(2) 0.023(3) 0.030(3) 0.001(2) -0.002(2) -0.002(2)
O9 0.0238(19) 0.031(2) 0.025(2) -0.0004(16) 0.0062(15) -0.0012(16)
O10 0.0236(19) 0.032(2) 0.030(2) 0.0013(17) 0.0038(16) -0.0052(17)
O11 0.030(2) 0.040(2) 0.036(2) 0.0043(19) -0.0057(18) 0.0133(19)
O12 0.028(2) 0.027(2) 0.038(2) 0.0024(17) 0.0008(17) 0.0082(17)
O13 0.026(2) 0.028(2) 0.033(2) 0.0018(17) 0.0071(17) -0.0070(17)
O14 0.026(2) 0.030(2) 0.032(2) -0.0020(17) -0.0005(17) -0.0089(17)
O15 0.023(2) 0.032(2) 0.044(2) 0.0070(19) -0.0078(18) 0.0054(17)
O16 0.037(2) 0.035(2) 0.048(3) 0.004(2) -0.021(2) -0.004(2)
Zr1 0.0140(3) 0.0188(3) 0.0198(3) -0.00015(17) 0.00017(17) 0.00009(17)
O17 0.044(3) 0.035(2) 0.032(2) 0.0015(19) 0.0078(19) 0.003(2)
O18 0.048(3) 0.042(3) 0.033(2) -0.009(2) 0.004(2) -0.008(2)
O19 0.039(2) 0.032(2) 0.035(2) 0.0008(19) 0.002(2) 0.0015(19)
K1 0.0247(6) 0.0216(6) 0.0345(7) -0.0001(5) 0.0058(5) -0.0006(5)
K2 0.0227(6) 0.0226(6) 0.0345(6) -0.0003(5) 0.0002(5) -0.0014(4)
K3 0.0257(6) 0.0298(6) 0.0239(6) -0.0026(5) -0.0009(5) -0.0001(5)
K4 0.0212(5) 0.0310(6) 0.0241(6) 0.0002(5) -0.0007(4) -0.0023(5)
O20 0.028(2) 0.041(2) 0.031(2) -0.0028(18) 0.0017(17) 0.0005(18)
O21 0.043(3) 0.041(3) 0.054(3) 0.006(2) -0.006(2) -0.004(2)
O22 0.043(3) 0.042(3) 0.067(3) -0.005(2) 0.000(3) -0.001(2)
O23 0.038(2) 0.042(3) 0.041(3) -0.013(2) 0.001(2) 0.000(2)
O24 0.049(3) 0.041(3) 0.040(3) -0.003(2) 0.002(2) -0.003(2)
O25 0.057(3) 0.041(3) 0.046(3) -0.005(2) 0.005(2) -0.003(2)
loop_
_geom_bond_atom_site_label_1
_geom_bond_atom_site_label_2
_geom_bond_site_symmetry_1
_geom_bond_site_symmetry_2
O1 C12 1_555 1_555
O2 C11 1_555 1_555
O3 C7 1_555 1_555
O4 C21 1_555 1_555
O5 C9 1_555 1_555
O6 C20 1_555 1_555
O7 C1 1_555 1_555
O8 C4 1_555 1_555
C1 C3 1_555 1_555
C2 H1 1_555 1_555
C3 H2 1_555 1_555
C4 C1 1_555 1_555
C5 C3 1_555 1_555
C6 C2 1_555 1_555
C7 C8 1_555 1_555
C8 H3 1_555 1_555
C9 C7 1_555 1_555
C10 C9 1_555 1_555
H4 C10 1_555 1_555
C11 C12 1_555 1_555
C12 C13 1_555 1_555
C13 H5 1_555 1_555
C14 C11 1_555 1_555
H6 C14 1_555 1_555
C15 C10 1_555 1_555
C16 C8 1_555 1_555
C17 H7 1_555 1_555
C18 H8 1_555 1_555
C19 C13 1_555 1_555
C20 C17 1_555 1_555
C21 C18 1_555 1_555
C22 C14 1_555 1_555
C23 C18 1_555 1_555
C24 C17 1_555 1_555
O9 C22 1_555 1_555
O10 C23 1_555 1_555
O11 C6 1_555 1_555
O12 C16 1_555 1_555
O13 C19 1_555 1_555
O14 C24 1_555 1_555
O15 C15 1_555 1_555
O16 C5 1_555 1_555
Zr1 O1 1_555 1_555
O17 H9 1_555 1_555
H10 O17 1_555 1_555
O18 H11 1_555 1_555
H12 O18 1_555 1_555
O19 H13 1_555 1_555
H14 O19 1_555 1_555
O20 H15 1_555 1_555
H16 O20 1_555 1_555
O21 H17 1_555 1_555
H18 O21 1_555 1_555
O22 H19 1_555 1_555
H20 O22 1_555 1_555
O23 H21 1_555 1_555
H22 O23 1_555 1_555
O24 H23 1_555 1_555
H24 O24 1_555 1_555
O25 H25 1_555 1_555
H26 O25 1_555 1_555
O2 Zr1 1_555 1_555
O3 Zr1 1_555 1_555
O4 Zr1 1_555 1_555
O5 Zr1 1_555 1_555
O6 Zr1 1_555 1_555
O7 Zr1 1_555 1_555
O8 Zr1 1_555 1_555
C2 C4 1_555 1_555
C5 C6 1_555 1_555
C15 C16 1_555 1_555
C19 C22 1_555 1_555
C20 C21 1_555 1_555
C23 C24 1_555 1_555

#END
