
#######################################################################
#
#                 Cambridge Crystallographic Data Centre
#                                CCDC 
#
#######################################################################
#
# If this CIF has been generated from an entry in the Cambridge 
# Structural Database, then it will include bibliographic, chemical, 
# crystal, experimental, refinement or atomic coordinate data resulting 
# from the CCDC's data processing and validation procedures.
#
#######################################################################

data_HAQKES
_chemical_formula_moiety         '(C50 H69 Cd4 Cu6 N4 O30 1+)n'
_symmetry_cell_setting           orthorhombic
_symmetry_space_group_name_H-M   'P b c a'
_symmetry_Int_Tables_number      61
_space_group_name_Hall           '-P 2ac 2ab'
loop_
_symmetry_equiv_pos_site_id
_symmetry_equiv_pos_as_xyz
1 x,y,z
2 1/2-x,-y,1/2+z
3 -x,1/2+y,1/2-z
4 1/2+x,1/2-y,-z
5 -x,-y,-z
6 1/2+x,y,1/2-z
7 x,1/2-y,1/2+z
8 1/2-x,1/2+y,z
_cell_length_a                   26.343(3)
_cell_length_b                   27.158(4)
_cell_length_c                   27.158
_cell_angle_alpha                90
_cell_angle_beta                 90
_cell_angle_gamma                90
_cell_volume                     19429.5
loop_
_atom_site_label
_atom_site_type_symbol
_atom_site_fract_x
_atom_site_fract_y
_atom_site_fract_z
_atom_site_U_iso_or_equiv
_atom_site_thermal_displace_type
Cd1 Cd 0.63420(3) 0.34021(2) 0.18752(3) 0.0336 Uani
Cd2 Cd 0.69828(3) 0.14219(3) 0.32525(3) 0.0387 Uani
Cd3 Cd 0.83183(3) 0.19919(3) 0.12433(3) 0.0384 Uani
Cd4 Cd 0.59635(4) 0.11147(4) 0.09902(4) 0.0643 Uani
Cu1 Cu 0.61871(4) 0.22366(4) 0.14530(4) 0.0264 Uani
Cu2 Cu 0.75809(4) 0.17162(4) 0.22526(4) 0.0272 Uani
Cu3 Cu 0.66542(4) 0.24166(4) 0.25134(4) 0.0258 Uani
Cu4 Cu 0.64530(4) 0.13232(4) 0.21278(4) 0.0271 Uani
Cu5 Cu 0.73205(4) 0.26345(4) 0.15721(4) 0.0265 Uani
Cu6 Cu 0.71188(4) 0.15427(4) 0.11866(4) 0.0271 Uani
C1 C 0.6635(5) 0.2770(5) -0.0941(4) 0.0660 Uani
H1 H 0.6443 0.2643 -0.1199 0.0790 Uiso
C2 C 0.7177(4) 0.3318(4) -0.0660(4) 0.0530 Uani
H2 H 0.7390 0.3585 -0.0720 0.0640 Uiso
C3 C 0.7164(5) 0.3142(5) -0.0199(5) 0.0643 Uani
H3 H 0.7351 0.3293 0.0050 0.0770 Uiso
C4 C 0.6866(4) 0.2728(4) -0.0099(4) 0.0363 Uani
C5 C 0.7593(4) 0.2464(3) 0.3036(4) 0.0357 Uani
H4 H 0.7865 0.2285 0.3197 0.0430 Uiso
H5 H 0.7399 0.2632 0.3289 0.0430 Uiso
C6 C 0.5429(3) 0.1681(4) 0.1991(4) 0.0377 Uani
H6 H 0.5305 0.1359 0.2092 0.0450 Uiso
H7 H 0.5184 0.1817 0.1762 0.0450 Uiso
C7 C 0.5456(3) 0.2015(3) 0.2445(4) 0.0257 Uani
C8 C 0.5825(3) 0.1824(4) 0.2835(4) 0.0353 Uani
H8 H 0.5807 0.2042 0.3117 0.0430 Uiso
H9 H 0.5706 0.1503 0.2943 0.0430 Uiso
C9 C 0.6856(3) 0.2506(3) 0.0443(3) 0.0230 Uani
C10 C 0.6507(3) 0.2060(3) 0.0458(3) 0.0290 Uani
H10 H 0.6168 0.2162 0.0363 0.0350 Uiso
H11 H 0.6623 0.1822 0.0216 0.0350 Uiso
C11 C 0.6600(4) 0.2535(4) -0.0476(4) 0.0410 Uani
H12 H 0.6399 0.2257 -0.0433 0.0500 Uiso
C12 C 0.7435(3) 0.3196(3) 0.2453(4) 0.0333 Uani
H13 H 0.7270 0.3388 0.2708 0.0400 Uiso
H14 H 0.7612 0.3423 0.2237 0.0400 Uiso
C13 C 0.7821(3) 0.2843(3) 0.2691(4) 0.0283 Uani
C14 C 0.8144(3) 0.2603(4) 0.2279(4) 0.0360 Uani
H15 H 0.8308 0.2862 0.2090 0.0430 Uiso
H16 H 0.8410 0.2407 0.2430 0.0430 Uiso
C15 C 0.6949(4) 0.0548(3) 0.1551(4) 0.0377 Uani
H17 H 0.7037 0.0432 0.1224 0.0450 Uiso
H18 H 0.6710 0.0316 0.1691 0.0450 Uiso
C16 C 0.7416(3) 0.0551(3) 0.1859(3) 0.0267 Uani
C17 C 0.7299(4) 0.0688(3) 0.2382(4) 0.0317 Uani
H19 H 0.7053 0.0456 0.2511 0.0380 Uiso
H20 H 0.7606 0.0656 0.2576 0.0380 Uiso
C18 C 0.7845(4) 0.0869(4) 0.1646(4) 0.0413 Uani
H21 H 0.8143 0.0839 0.1854 0.0500 Uiso
H22 H 0.7933 0.0749 0.1321 0.0500 Uiso
C19 C 0.5597(3) 0.2532(3) 0.2296(4) 0.0313 Uani
H23 H 0.5343 0.2653 0.2067 0.0380 Uiso
H24 H 0.5584 0.2740 0.2586 0.0380 Uiso
C20 C 0.7409(4) 0.2345(4) 0.0550(3) 0.0313 Uani
H25 H 0.7509 0.2094 0.0315 0.0380 Uiso
H26 H 0.7633 0.2625 0.0507 0.0380 Uiso
C21 C 0.4939(3) 0.2032(4) 0.2715(4) 0.0350 Uani
C22 C 0.8169(5) 0.3187(5) 0.1106(5) 0.0580 Uani
C23 C 0.7645(4) 0.0034(4) 0.1863(4) 0.0400 Uani
C24 C 0.6282(4) 0.3333(4) 0.3078(4) 0.0457 Uani
C25 C 0.8192(4) 0.3176(5) 0.3011(5) 0.0583 Uani
C26 C 0.8037(7) 0.3471(7) 0.3343(7) 0.1010 Uani
H27 H 0.7689 0.3525 0.3360 0.1210 Uiso
C27 C 0.8999(5) 0.3371(6) 0.3361(5) 0.0753 Uani
H28 H 0.9346 0.3304 0.3359 0.0900 Uiso
C28 C 0.8683(5) 0.3129(6) 0.3042(6) 0.0813 Uani
H29 H 0.8835 0.2909 0.2825 0.0980 Uiso
C29 C 0.8341(7) 0.3722(7) 0.3685(7) 0.1067 Uani
H30 H 0.8191 0.3913 0.3929 0.1280 Uiso
C30 C 0.6210(7) 0.3595(5) 0.3564(5) 0.0960 Uani
H31 H 0.6114 0.3931 0.3505 0.1440 Uiso
H32 H 0.6522 0.3588 0.3747 0.1440 Uiso
H33 H 0.5949 0.3434 0.3750 0.1440 Uiso
C31 C 0.4652(4) 0.1615(5) 0.2791(6) 0.0753 Uani
H34 H 0.4769 0.1320 0.2660 0.0910 Uiso
C32 C 0.5569(7) 0.3775(7) 0.1297(7) 0.0980 Uani
C33 C 0.4750(5) 0.2430(5) 0.2942(6) 0.0730 Uani
H35 H 0.4920 0.2729 0.2921 0.0880 Uiso
C34 C 0.5119(5) 0.3964(6) 0.1001(6) 0.0947 Uani
H36 H 0.4811 0.3908 0.1183 0.1420 Uiso
H37 H 0.5102 0.3792 0.0692 0.1420 Uiso
H38 H 0.5159 0.4310 0.0941 0.1420 Uiso
C35 C 0.8404(5) 0.3671(6) 0.0868(6) 0.0917 Uani
H39 H 0.8736 0.3600 0.0742 0.1380 Uiso
H40 H 0.8426 0.3924 0.1113 0.1380 Uiso
H41 H 0.8190 0.3780 0.0603 0.1380 Uiso
C36 C 0.4303(4) 0.2397(5) 0.3206(5) 0.0683 Uani
H42 H 0.4181 0.2686 0.3346 0.0820 Uiso
C37 C 0.4198(4) 0.1608(4) 0.3050(5) 0.0653 Uani
H43 H 0.4007 0.1321 0.3061 0.0780 Uiso
C38 C 0.7674(6) -0.0243(6) 0.1465(6) 0.0863 Uani
H44 H 0.7543 -0.0129 0.1168 0.1040 Uiso
C39 C 0.7828(6) -0.0184(6) 0.2272(7) 0.1027 Uani
H45 H 0.7781 -0.0027 0.2573 0.1230 Uiso
C40 C 0.8099(6) -0.0659(6) 0.2267(7) 0.0957 Uani
H46 H 0.8234 -0.0787 0.2557 0.1150 Uiso
C41 C 0.7912(5) -0.0729(5) 0.1490(6) 0.0780 Uani
H47 H 0.7888 -0.0929 0.1213 0.0940 Uiso
C42 C 0.8613(5) 0.1426(6) 0.0501(4) 0.0660 Uani
C43 C 0.8217(5) 0.1347(5) 0.3103(7) 0.0760 Uani
C44 C 0.8864(9) 0.1117(9) 0.0040(8) 0.1507 Uani
H48 H 0.8651 0.0842 -0.0039 0.2270 Uiso
H49 H 0.9195 0.1001 0.0133 0.2270 Uiso
H50 H 0.8893 0.1328 -0.0242 0.2270 Uiso
C45 C 0.8767(8) 0.1297(9) 0.3363(8) 0.1463 Uani
H51 H 0.8722 0.1224 0.3707 0.2200 Uiso
H52 H 0.8949 0.1602 0.3329 0.2200 Uiso
H53 H 0.8955 0.1037 0.3209 0.2200 Uiso
C46 C 0.6545(9) 0.0580(8) 0.3628(9) 0.1170 Uani
C47 C 0.6329(8) 0.0141(8) 0.3887(8) 0.1500 Uani
H54 H 0.6388 -0.0149 0.3693 0.2250 Uiso
H55 H 0.5970 0.0185 0.3932 0.2250 Uiso
H56 H 0.6489 0.0104 0.4202 0.2250 Uiso
C48 C 0.7013(9) 0.0932(8) 0.0277(10) 0.1287 Uani
C49 C 0.6672(4) 0.2924(3) 0.0775(4) 0.0373 Uani
H57 H 0.6899 0.3203 0.0740 0.0440 Uiso
H58 H 0.6337 0.3027 0.0668 0.0440 Uiso
C50 C 0.7240(10) 0.0831(10) -0.0279(10) 0.1790 Uani
H59 H 0.7590 0.0927 -0.0290 0.2680 Uiso
H60 H 0.7050 0.1021 -0.0514 0.2680 Uiso
H61 H 0.7211 0.0488 -0.0356 0.2680 Uiso
N1 N 0.6916(3) 0.3149(3) -0.1031(3) 0.0360 Uani
N2 N 0.8821(5) 0.3689(6) 0.3660(6) 0.1063 Uani
N3 N 0.4038(3) 0.2001(3) 0.3278(4) 0.0437 Uani
N4 N 0.8146(3) -0.0897(3) 0.1856(3) 0.0390 Uani
O1 O 0.6056(3) 0.0668(3) 0.2422(3) 0.0593 Uani
O2 O 0.6647(2) 0.2788(2) 0.1287(2) 0.0260 Uani
O3 O 0.5578(4) 0.0461(5) 0.1408(5) 0.1213 Uani
O4 O 0.7055(2) 0.2930(2) 0.2174(2) 0.0273 Uani
O5 O 0.6087(2) 0.2584(2) 0.2073(2) 0.0250 Uani
O6 O 0.7269(2) 0.2120(2) 0.2785(2) 0.0280 Uani
O7 O 0.6412(3) 0.2880(2) 0.3105(2) 0.0387 Uani
O8 O 0.6480(2) 0.1824(2) 0.0928(2) 0.0303 Uani
O9 O 0.7868(2) 0.2304(2) 0.1956(2) 0.0287 Uani
O10 O 0.5902(2) 0.1620(2) 0.1744(2) 0.0257 Uani
O11 O 0.7747(3) 0.3230(3) 0.1276(3) 0.0480 Uani
O12 O 0.7702(2) 0.1396(2) 0.1610(2) 0.0297 Uani
O13 O 0.6335(2) 0.1778(2) 0.2699(2) 0.0303 Uani
O14 O 0.7466(2) 0.2158(2) 0.1034(2) 0.0280 Uani
O15 O 0.6698(2) 0.1032(2) 0.1506(2) 0.0313 Uani
O16 O 0.8213(3) 0.1464(3) 0.2649(3) 0.0510 Uani
O17 O 0.6201(3) 0.3570(3) 0.2692(3) 0.0510 Uani
O18 O 0.7341(3) 0.1127(3) 0.0546(3) 0.0553 Uani
O19 O 0.7103(2) 0.1180(2) 0.2444(2) 0.0277 Uani
O20 O 0.8454(3) 0.2822(3) 0.1072(3) 0.0543 Uani
O21 O 0.7841(4) 0.1320(3) 0.3380(3) 0.0620 Uani
O22 O 0.5995(4) 0.3787(4) 0.1145(4) 0.0970 Uani
O23 O 0.5497(4) 0.3571(4) 0.1663(4) 0.0980 Uani
O24 O 0.5351(5) 0.1581(6) 0.0669(6) 0.1503 Uani
O25 O 0.8478(4) 0.1844(4) 0.0439(4) 0.1023 Uani
O26 O 0.8693(4) 0.1245(4) 0.0905(5) 0.1000 Uani
O27 O 0.6320(5) 0.0846(5) 0.3424(5) 0.1113 Uani
O28 O 0.6974(5) 0.0652(5) 0.3675(5) 0.1170 Uani
O29 O 0.6453(6) 0.0809(4) 0.0378(5) 0.1253 Uani
O30 O 0.5510(3) 0.2474(3) 0.1069(3) 0.0580 Uani
Cd1G Cd 0.86580(3) -0.15979(2) 0.18752(3) 0.0336 Uani
Cd2F Cd 0.69828(3) 0.35781(3) -0.17475(3) 0.0387 Uani
Cd3E Cd 0.33183(3) 0.19919(3) 0.37567(3) 0.0384 Uani
N1F N 0.6916(3) 0.1851(3) 0.3969(3) 0.0360 Uani
N3E N 0.9038(3) 0.2001(3) 0.1722(4) 0.0437 Uani
N4G N 0.6854(3) 0.4103(3) 0.1856(3) 0.0390 Uani
loop_
_atom_site_aniso_label
_atom_site_aniso_U_11
_atom_site_aniso_U_22
_atom_site_aniso_U_33
_atom_site_aniso_U_23
_atom_site_aniso_U_13
_atom_site_aniso_U_12
Cd1 0.0359(4) 0.0302(4) 0.0347(5) 0.0019(3) 0.0019(4) -0.0023(3)
Cd2 0.0550(5) 0.0442(5) 0.0169(4) -0.0043(3) -0.0002(4) 0.0068(3)
Cd3 0.0259(4) 0.0599(5) 0.0293(5) -0.0053(3) -0.0024(4) 0.0015(3)
Cd4 0.0795(7) 0.0659(6) 0.0474(6) 0.0022(5) -0.0201(5) -0.0339(5)
Cu1 0.0255(6) 0.0319(6) 0.0217(7) 0.0025(5) -0.0022(5) -0.0032(4)
Cu2 0.0291(6) 0.0342(7) 0.0182(7) -0.0040(5) -0.0042(5) 0.0044(4)
Cu3 0.0251(5) 0.0307(6) 0.0217(7) -0.0020(5) -0.0005(5) -0.0003(4)
Cu4 0.0288(6) 0.0317(6) 0.0208(7) -0.0012(5) -0.0007(5) 0.0011(4)
Cu5 0.0254(5) 0.0347(6) 0.0195(7) -0.0014(5) -0.0017(5) -0.0032(4)
Cu6 0.0312(6) 0.0331(6) 0.0169(7) -0.0003(4) -0.0025(5) 0.0011(4)
C1 0.077(6) 0.107(9) 0.014(5) -0.010(4) 0.002(5) 0.013(5)
C2 0.059(7) 0.070(9) 0.030(7) 0.020(6) 0.005(6) -0.015(6)
C3 0.086(9) 0.068(9) 0.039(8) 0.009(6) -0.024(8) -0.026(7)
C4 0.038(5) 0.048(6) 0.023(6) 0.013(4) -0.007(5) -0.012(4)
C5 0.036(5) 0.036(6) 0.035(7) -0.005(4) -0.012(5) 0.007(4)
C6 0.033(5) 0.044(6) 0.036(7) 0.010(5) -0.010(5) -0.017(4)
C7 0.032(5) 0.017(4) 0.028(6) 0.001(4) 0.000(4) -0.001(3)
C8 0.033(5) 0.040(6) 0.033(7) 0.002(4) 0.016(5) 0.001(4)
C9 0.029(5) 0.029(5) 0.011(5) 0.006(4) -0.002(4) -0.006(3)
C10 0.034(5) 0.045(6) 0.008(5) 0.011(4) -0.004(4) -0.008(4)
C11 0.043(6) 0.066(7) 0.014(6) 0.014(5) -0.009(5) -0.014(5)
C12 0.041(5) 0.028(5) 0.031(6) -0.004(4) -0.008(5) -0.005(4)
C13 0.029(5) 0.029(5) 0.027(6) -0.008(4) -0.002(5) -0.005(4)
C14 0.028(5) 0.053(6) 0.027(6) -0.015(5) -0.010(5) 0.007(4)
C15 0.046(6) 0.032(5) 0.035(6) -0.002(4) -0.006(5) 0.012(4)
C16 0.027(5) 0.028(5) 0.025(6) 0.004(4) -0.013(4) 0.000(3)
C17 0.038(5) 0.035(6) 0.022(6) -0.003(4) 0.010(5) 0.007(4)
C18 0.052(6) 0.038(6) 0.034(7) -0.002(4) -0.010(6) 0.018(4)
C19 0.013(4) 0.049(6) 0.032(6) 0.001(4) 0.000(4) 0.008(4)
C20 0.042(5) 0.044(6) 0.008(5) -0.003(4) 0.000(5) -0.006(4)
C21 0.021(5) 0.040(6) 0.044(7) 0.012(5) -0.004(5) -0.001(4)
C22 0.054(8) 0.062(9) 0.058(9) 0.027(6) -0.015(7) -0.016(6)
C23 0.058(6) 0.038(6) 0.024(6) 0.003(4) -0.011(5) 0.003(5)
C24 0.064(7) 0.051(7) 0.022(7) -0.002(5) 0.006(6) 0.000(5)
C25 0.054(7) 0.065(8) 0.056(9) -0.036(7) -0.017(7) -0.002(5)
C26 0.102(7) 0.100(7) 0.101(7) -0.016(5) -0.009(5) 0.001(5)
C27 0.047(7) 0.115(13) 0.064(11) -0.034(9) -0.017(8) 0.000(7)
C28 0.059(9) 0.119(13) 0.066(11) -0.041(9) -0.010(8) -0.008(8)
C29 0.085(12) 0.130(16) 0.105(15) -0.054(12) -0.040(12) -0.018(10)
C30 0.175(17) 0.041(8) 0.072(11) -0.013(7) 0.002(12) 0.020(9)
C31 0.049(7) 0.057(8) 0.120(14) -0.025(8) 0.046(8) 0.003(6)
C32 0.094(4) 0.098(5) 0.102(5) 0.020(4) -0.009(4) -0.008(4)
C33 0.063(8) 0.062(9) 0.094(12) -0.034(8) 0.046(8) -0.008(6)
C34 0.054(8) 0.126(14) 0.104(14) 0.049(11) -0.038(9) -0.001(8)
C35 0.072(7) 0.086(8) 0.117(9) 0.024(7) 0.013(7) -0.007(6)
C36 0.055(7) 0.070(9) 0.080(11) -0.019(7) 0.031(8) -0.021(6)
C37 0.060(7) 0.041(7) 0.095(11) 0.003(7) 0.038(8) -0.020(5)
C38 0.097(6) 0.082(6) 0.080(6) -0.005(4) -0.010(5) 0.016(4)
C39 0.111(7) 0.102(7) 0.095(7) -0.007(5) -0.009(5) 0.015(5)
C40 0.106(6) 0.092(6) 0.089(7) -0.003(5) -0.006(5) 0.015(4)
C41 0.090(6) 0.071(5) 0.073(6) -0.014(4) -0.014(5) 0.023(4)
C42 0.077(6) 0.107(9) 0.014(5) -0.010(4) 0.002(5) 0.013(5)
C43 0.060(9) 0.074(10) 0.094(14) -0.030(9) -0.035(9) 0.043(7)
C44 0.162(11) 0.161(11) 0.129(11) -0.025(9) 0.016(9) 0.034(9)
C45 0.143(11) 0.159(11) 0.137(11) 0.012(9) -0.018(9) 0.029(8)
C46 0.126(5) 0.102(5) 0.123(5) 0.005(4) 0.002(5) 0.005(4)
C47 0.173(11) 0.135(11) 0.142(11) 0.010(9) 0.018(9) -0.014(9)
C48 0.134(8) 0.127(8) 0.125(8) 0.001(5) 0.003(5) 0.005(5)
C49 0.042(6) 0.035(6) 0.035(7) 0.009(4) -0.021(5) -0.004(4)
C50 0.193(13) 0.186(13) 0.158(13) -0.025(9) 0.006(9) 0.016(9)
N1 0.055(5) 0.028(4) 0.025(5) 0.003(3) -0.010(5) -0.005(4)
N2 0.075(9) 0.119(12) 0.125(14) -0.053(10) -0.034(10) -0.030(8)
N3 0.029(4) 0.040(5) 0.062(7) 0.016(4) 0.010(5) -0.005(4)
N4 0.045(5) 0.040(5) 0.032(5) -0.004(4) -0.009(4) 0.015(4)
O1 0.078(5) 0.035(4) 0.065(6) 0.007(4) 0.004(5) -0.016(3)
O2 0.022(3) 0.039(4) 0.017(4) 0.004(3) -0.002(3) 0.000(2)
O3 0.123(9) 0.115(10) 0.126(10) 0.055(8) 0.014(9) -0.021(7)
O4 0.029(3) 0.036(4) 0.017(4) 0.000(3) 0.004(3) 0.002(2)
O5 0.025(3) 0.027(3) 0.023(4) 0.002(3) -0.002(3) 0.002(2)
O6 0.032(3) 0.033(4) 0.019(4) -0.002(3) -0.008(3) 0.005(2)
O7 0.055(4) 0.041(4) 0.020(4) -0.004(3) -0.005(4) 0.004(3)
O8 0.037(4) 0.034(4) 0.020(4) -0.002(3) 0.003(3) -0.001(3)
O9 0.019(3) 0.043(4) 0.024(4) -0.007(3) -0.009(3) 0.000(2)
O10 0.021(3) 0.036(4) 0.020(4) 0.003(3) 0.000(3) 0.001(2)
O11 0.041(4) 0.046(5) 0.057(6) 0.006(4) 0.003(4) -0.019(3)
O12 0.035(3) 0.028(3) 0.026(4) -0.008(3) -0.002(3) 0.005(2)
O13 0.034(3) 0.037(4) 0.020(4) 0.002(3) 0.002(3) -0.005(3)
O14 0.031(3) 0.035(4) 0.018(4) -0.004(3) 0.002(3) -0.004(2)
O15 0.036(3) 0.031(4) 0.027(4) -0.001(3) 0.004(3) -0.001(3)
O16 0.046(4) 0.082(6) 0.025(5) -0.004(4) -0.025(4) 0.014(4)
O17 0.074(5) 0.034(4) 0.045(5) -0.010(4) 0.002(4) 0.010(3)
O18 0.082(6) 0.058(5) 0.026(5) -0.013(4) 0.002(5) -0.002(4)
O19 0.027(3) 0.030(3) 0.026(4) -0.002(3) -0.011(3) 0.008(2)
O20 0.037(4) 0.068(6) 0.058(6) 0.023(4) 0.002(4) -0.008(4)
O21 0.081(6) 0.080(6) 0.025(5) -0.003(4) -0.007(5) 0.033(5)
O22 0.094(5) 0.100(5) 0.097(5) -0.019(4) -0.011(4) 0.008(4)
O23 0.094(4) 0.098(5) 0.102(5) 0.020(4) -0.009(4) -0.008(4)
O24 0.123(8) 0.173(9) 0.155(9) 0.045(7) -0.031(7) -0.033(7)
O25 0.109(5) 0.110(5) 0.088(5) -0.004(4) 0.007(4) 0.023(4)
O26 0.106(5) 0.093(5) 0.101(5) -0.013(4) 0.009(4) 0.001(4)
O27 0.115(5) 0.104(5) 0.115(6) 0.007(4) -0.017(4) -0.010(4)
O28 0.126(5) 0.102(5) 0.123(5) 0.005(4) 0.002(5) 0.005(4)
O29 0.204(14) 0.079(8) 0.093(9) -0.039(7) -0.035(10) 0.025(8)
O30 0.044(4) 0.089(7) 0.041(5) 0.012(4) -0.010(4) 0.009(4)
Cd1G 0.0359 0.0302 0.0347 0.0019 -0.0019 0.0023
Cd2F 0.055 0.0442 0.0169 0.0043 -0.0002 -0.0068
Cd3E 0.0259 0.0599 0.0293 0.0053 0.0024 0.0015
N1F 0.055 0.028 0.025 -0.003 -0.01 0.005
N3E 0.029 0.04 0.062 -0.016 -0.01 -0.005
N4G 0.045 0.04 0.032 -0.004 0.009 -0.015
loop_
_geom_bond_atom_site_label_1
_geom_bond_atom_site_label_2
_geom_bond_site_symmetry_1
_geom_bond_site_symmetry_2
Cd1 O2 1_555 1_555
Cd2 O6 1_555 1_555
Cd3 O9 1_555 1_555
Cd4 O3 1_555 1_555
Cu1 O2 1_555 1_555
Cu2 O6 1_555 1_555
Cu3 O4 1_555 1_555
Cu4 O1 1_555 1_555
Cu5 O2 1_555 1_555
Cu6 O8 1_555 1_555
C1 H1 1_555 1_555
C2 H2 1_555 1_555
C3 C2 1_555 1_555
H3 C3 1_555 1_555
C4 C3 1_555 1_555
C5 H4 1_555 1_555
H5 C5 1_555 1_555
C6 H6 1_555 1_555
H7 C6 1_555 1_555
C7 C6 1_555 1_555
C8 C7 1_555 1_555
H8 C8 1_555 1_555
H9 C8 1_555 1_555
C9 C4 1_555 1_555
C10 C9 1_555 1_555
H10 C10 1_555 1_555
H11 C10 1_555 1_555
C11 C1 1_555 1_555
H12 C11 1_555 1_555
C12 H13 1_555 1_555
H14 C12 1_555 1_555
C13 C5 1_555 1_555
C14 C13 1_555 1_555
H15 C14 1_555 1_555
H16 C14 1_555 1_555
C15 H17 1_555 1_555
H18 C15 1_555 1_555
C16 C15 1_555 1_555
C17 C16 1_555 1_555
H19 C17 1_555 1_555
H20 C17 1_555 1_555
C18 C16 1_555 1_555
H21 C18 1_555 1_555
H22 C18 1_555 1_555
C19 C7 1_555 1_555
H23 C19 1_555 1_555
H24 C19 1_555 1_555
C20 C9 1_555 1_555
H25 C20 1_555 1_555
H26 C20 1_555 1_555
C21 C7 1_555 1_555
C22 C35 1_555 1_555
C23 C16 1_555 1_555
C24 C30 1_555 1_555
C25 C13 1_555 1_555
C26 C25 1_555 1_555
H27 C26 1_555 1_555
C27 H28 1_555 1_555
C28 C25 1_555 1_555
H29 C28 1_555 1_555
C29 C26 1_555 1_555
H30 C29 1_555 1_555
C30 H31 1_555 1_555
H32 C30 1_555 1_555
H33 C30 1_555 1_555
C31 C21 1_555 1_555
H34 C31 1_555 1_555
C32 C34 1_555 1_555
C33 C21 1_555 1_555
H35 C33 1_555 1_555
C34 H36 1_555 1_555
H37 C34 1_555 1_555
H38 C34 1_555 1_555
C35 H39 1_555 1_555
H40 C35 1_555 1_555
H41 C35 1_555 1_555
C36 C33 1_555 1_555
H42 C36 1_555 1_555
C37 C31 1_555 1_555
H43 C37 1_555 1_555
C38 C23 1_555 1_555
H44 C38 1_555 1_555
C39 C23 1_555 1_555
H45 C39 1_555 1_555
C40 C39 1_555 1_555
H46 C40 1_555 1_555
C41 C38 1_555 1_555
H47 C41 1_555 1_555
C42 C44 1_555 1_555
C43 C45 1_555 1_555
C44 H48 1_555 1_555
H49 C44 1_555 1_555
H50 C44 1_555 1_555
C45 H51 1_555 1_555
H52 C45 1_555 1_555
H53 C45 1_555 1_555
C46 C47 1_555 1_555
C47 H54 1_555 1_555
H55 C47 1_555 1_555
H56 C47 1_555 1_555
C48 C50 1_555 1_555
C49 C9 1_555 1_555
H57 C49 1_555 1_555
H58 C49 1_555 1_555
C50 H59 1_555 1_555
H60 C50 1_555 1_555
H61 C50 1_555 1_555
N1 C1 1_555 1_555
N2 C27 1_555 1_555
N3 C36 1_555 1_555
N4 C40 1_555 1_555
O2 C49 1_555 1_555
O4 Cd1 1_555 1_555
O5 Cd1 1_555 1_555
O6 Cu3 1_555 1_555
O7 Cu3 1_555 1_555
O8 Cd4 1_555 1_555
O9 Cu2 1_555 1_555
O10 Cd4 1_555 1_555
O11 Cu5 1_555 1_555
O12 Cd3 1_555 1_555
O13 Cd2 1_555 1_555
O14 Cd3 1_555 1_555
O15 Cd4 1_555 1_555
O16 Cu2 1_555 1_555
O17 Cd1 1_555 1_555
O18 Cu6 1_555 1_555
O19 Cd2 1_555 1_555
O20 Cd3 1_555 1_555
O21 Cd2 1_555 1_555
O22 Cd1 1_555 1_555
O23 Cd1 1_555 1_555
O24 Cd4 1_555 1_555
O25 Cd3 1_555 1_555
O26 Cd3 1_555 1_555
O27 Cd2 1_555 1_555
O28 Cd2 1_555 1_555
O29 Cd4 1_555 1_555
O30 Cu1 1_555 1_555
Cd1G N4 1_555 1_555
Cd2F N1 1_555 1_555
Cd3E N3 1_555 1_555
N1F Cd2 1_555 1_555
N3E Cd3 1_555 1_555
N4G Cd1 1_555 1_555
Cu1 O5 1_555 1_555
Cu1 O8 1_555 1_555
Cu1 O10 1_555 1_555
Cu2 O12 1_555 1_555
Cu2 O19 1_555 1_555
Cu3 O5 1_555 1_555
Cu3 O13 1_555 1_555
Cu4 O10 1_555 1_555
Cu4 O13 1_555 1_555
Cu4 O15 1_555 1_555
Cu4 O19 1_555 1_555
Cu5 O4 1_555 1_555
Cu5 O9 1_555 1_555
Cu5 O14 1_555 1_555
Cu6 O12 1_555 1_555
Cu6 O14 1_555 1_555
Cu6 O15 1_555 1_555
C2 N1 1_555 1_555
C4 C11 1_555 1_555
C5 O6 1_555 1_555
C6 O10 1_555 1_555
C8 O13 1_555 1_555
C10 O8 1_555 1_555
C12 C13 1_555 1_555
C12 O4 1_555 1_555
C14 O9 1_555 1_555
C15 O15 1_555 1_555
C17 O19 1_555 1_555
C18 O12 1_555 1_555
C19 O5 1_555 1_555
C20 O14 1_555 1_555
C22 O11 1_555 1_555
C22 O20 1_555 1_555
C24 O7 1_555 1_555
C24 O17 1_555 1_555
C27 C28 1_555 1_555
C29 N2 1_555 1_555
C32 O22 1_555 1_555
C32 O23 1_555 1_555
C37 N3 1_555 1_555
C41 N4 1_555 1_555
C42 O25 1_555 1_555
C42 O26 1_555 1_555
C43 O16 1_555 1_555
C43 O21 1_555 1_555
C46 O27 1_555 1_555
C46 O28 1_555 1_555
C48 O18 1_555 1_555
C48 O29 1_555 1_555

#END
