
#######################################################################
#
#                 Cambridge Crystallographic Data Centre
#                                CCDC 
#
#######################################################################
#
# If this CIF has been generated from an entry in the Cambridge 
# Structural Database, then it will include bibliographic, chemical, 
# crystal, experimental, refinement or atomic coordinate data resulting 
# from the CCDC's data processing and validation procedures.
#
#######################################################################

data_XAHPUT
_chemical_formula_moiety         '(C60 H46 Cu2 O12)n'
_symmetry_cell_setting           tetragonal
_symmetry_space_group_name_H-M   'I 41 2 2'
_symmetry_Int_Tables_number      98
_space_group_name_Hall           'I 4bw 2bw'
loop_
_symmetry_equiv_pos_site_id
_symmetry_equiv_pos_as_xyz
1 x,y,z
2 1/2-x,1/2-y,1/2+z
3 -y,1/2+x,1/4+z
4 1/2+y,-x,3/4+z
5 1/2-x,y,3/4-z
6 x,1/2-y,1/4-z
7 1/2+y,1/2+x,1/2-z
8 -y,-x,-z
9 1/2+x,1/2+y,1/2+z
10 -x,-y,z
11 1/2-y,x,3/4+z
12 y,1/2-x,1/4+z
13 -x,1/2+y,1/4-z
14 1/2+x,-y,3/4-z
15 y,x,-z
16 1/2-y,1/2-x,1/2-z
_cell_length_a                   30.9491(13)
_cell_length_b                   30.9491(13)
_cell_length_c                   80.725(3)
_cell_angle_alpha                90
_cell_angle_beta                 90
_cell_angle_gamma                90
_cell_volume                     77322.2
loop_
_atom_site_label
_atom_site_type_symbol
_atom_site_fract_x
_atom_site_fract_y
_atom_site_fract_z
_atom_site_U_iso_or_equiv
_atom_site_thermal_displace_type
Cu1 Cu 1.0283(3) 0.4710(3) 0.10988(8) 0.2023 Uani
C1 C 0.8805(7) 0.3858(7) 0.05396(17) 0.2233 Uani
C2 C 0.9198(8) 0.3697(5) 0.0596(2) 0.2267 Uani
H1 H 0.9295 0.3428 0.0560 0.2720 Uiso
C3 C 0.9448(6) 0.3938(8) 0.0705(2) 0.2233 Uani
H2 H 0.9710 0.3830 0.0743 0.2650 Uiso
C4 C 0.9304(7) 0.4340(7) 0.07586(15) 0.2033 Uani
C5 C 0.8911(8) 0.4501(5) 0.0703(2) 0.2133 Uani
H3 H 0.8815 0.4770 0.0738 0.2570 Uiso
C6 C 0.8662(6) 0.4260(8) 0.0593(2) 0.2100 Uani
H4 H 0.8399 0.4368 0.0556 0.2540 Uiso
C7 C 0.7626(16) 0.3489(9) -0.0092(4) 0.3067 Uani
C8 C 0.7441(17) 0.3630(12) 0.0077(5) 0.4167 Uani
C9 C 0.8900(7) 0.1032(7) 0.07873(16) 0.2300 Uani
C10 C 0.9240(8) 0.1256(5) 0.0860(3) 0.2267 Uani
H5 H 0.9312 0.1531 0.0823 0.2760 Uiso
C11 C 0.9474(6) 0.1068(7) 0.0988(2) 0.2267 Uani
H6 H 0.9701 0.1218 0.1037 0.2700 Uiso
C12 C 0.9367(7) 0.0657(7) 0.10438(17) 0.2100 Uani
C13 C 0.9027(8) 0.0433(5) 0.0971(3) 0.2333 Uani
H7 H 0.8956 0.0158 0.1008 0.2800 Uiso
C14 C 0.8794(6) 0.0621(7) 0.0843(3) 0.2367 Uani
H8 H 0.8566 0.0471 0.0794 0.2820 Uiso
C15 C 0.9570(9) 0.4583(9) 0.0872(3) 0.2100 Uani
C16 C 0.9604(9) 0.0428(9) 0.1171(3) 0.2200 Uani
C17 C 0.7812(6) 0.2420(6) 0.0064(2) 0.1800 Uani
C18 C 0.7846(6) 0.2864(7) 0.00406(18) 0.2033 Uani
C19 C 0.8101(6) 0.3109(5) 0.0147(2) 0.2067 Uani
H9 H 0.8124 0.3406 0.0131 0.2490 Uiso
C20 C 0.8321(5) 0.2910(6) 0.02761(19) 0.2100 Uani
C21 C 0.8287(6) 0.2466(6) 0.02991(19) 0.2100 Uani
C22 C 0.8032(7) 0.2221(5) 0.0193(2) 0.2067 Uani
C23 C 0.8498(6) 0.2259(8) 0.0435(2) 0.2267 Uani
H10 H 0.8662 0.2428 0.0506 0.2710 Uiso
C24 C 0.8472(6) 0.1812(8) 0.0465(2) 0.2367 Uani
C25 C 0.8212(7) 0.1571(8) 0.0355(3) 0.2433 Uani
H11 H 0.8184 0.1275 0.0371 0.2940 Uiso
C26 C 0.7992(9) 0.1768(7) 0.0219(3) 0.2333 Uani
H12 H 0.7824 0.1601 0.0148 0.2790 Uiso
C27 C 0.8595(7) 0.3163(8) 0.0394(3) 0.2167 Uani
H13 H 0.8819 0.3024 0.0449 0.2610 Uiso
C28 C 0.8521(9) 0.3607(8) 0.0424(3) 0.2167 Uani
H14 H 0.8293 0.3746 0.0371 0.2600 Uiso
C29 C 0.8712(8) 0.1631(8) 0.0609(3) 0.2267 Uani
H15 H 0.8911 0.1795 0.0668 0.2760 Uiso
C30 C 0.8624(8) 0.1203(8) 0.0650(2) 0.2433 Uani
H16 H 0.8414 0.1038 0.0598 0.2900 Uiso
O1 O 0.9944(8) 0.4437(8) 0.0917(3) 0.2300 Uani
O2 O 0.9444(8) 0.4948(8) 0.0931(3) 0.2003 Uani
O3 O 0.9471(8) 0.0044(8) 0.1215(3) 0.2330 Uani
O4 O 0.9938(9) 0.0584(8) 0.1244(3) 0.2300 Uani
O5 O 0.7647(8) 0.3030(8) -0.0091(2) 0.2500 Uani
O6 O 1.0723(8) 0.4228(7) 0.11055(19) 0.2180 Uani
Cu1G Cu 0.5290(3) -0.0283(3) -0.10988(8) 0.2023 Uani
Cu1I Cu 0.9717(3) 0.5290(3) 0.10988(8) 0.2023 Uani
Cu1L Cu 0.9717(3) -0.0290(3) 0.14012(8) 0.2023 Uani
Cu1E Cu 1.0283(3) 0.0290(3) 0.14012(8) 0.2023 Uani
Cu1J Cu 1.0290(3) 0.0283(3) -0.14012(8) 0.2023 Uani
Cu1C Cu 0.9710(3) -0.0283(3) -0.14012(8) 0.2023 Uani
Cu1N Cu 0.4710(3) 0.0283(3) -0.10988(8) 0.2023 Uani
C1G C 0.6142(7) 0.1195(7) -0.05396(17) 0.2233 Uani
C2G C 0.6303(5) 0.0802(8) -0.0596(2) 0.2267 Uani
H1G H 0.6572 0.0705 -0.0560 0.2720 Uiso
C3G C 0.6062(8) 0.0552(6) -0.0705(2) 0.2233 Uani
H2G H 0.6170 0.0290 -0.0743 0.2650 Uiso
C4G C 0.5660(7) 0.0696(7) -0.07586(15) 0.2033 Uani
C5G C 0.5499(5) 0.1089(8) -0.0703(2) 0.2133 Uani
H3G H 0.5230 0.1185 -0.0738 0.2570 Uiso
C6G C 0.5740(8) 0.1338(6) -0.0593(2) 0.2100 Uani
H4G H 0.5632 0.1601 -0.0556 0.2540 Uiso
C7G C 0.6511(9) 0.2374(16) 0.0092(4) 0.3067 Uani
C8G C 0.6370(12) 0.2559(17) -0.0077(5) 0.4167 Uani
C9G C 0.8968(7) 0.1100(7) -0.07873(16) 0.2300 Uani
C10G C 0.8744(5) 0.0760(8) -0.0860(3) 0.2267 Uani
H5G H 0.8469 0.0688 -0.0823 0.2760 Uiso
C11G C 0.8932(7) 0.0526(6) -0.0988(2) 0.2267 Uani
H6G H 0.8782 0.0299 -0.1037 0.2700 Uiso
C12G C 0.9343(7) 0.0633(7) -0.10438(17) 0.2100 Uani
C13G C 0.9567(5) 0.0973(8) -0.0971(3) 0.2333 Uani
H7G H 0.9842 0.1044 -0.1008 0.2800 Uiso
C14G C 0.9379(7) 0.1206(6) -0.0843(3) 0.2367 Uani
H8G H 0.9529 0.1434 -0.0794 0.2820 Uiso
C15G C 0.5417(9) 0.0430(9) -0.0872(3) 0.2100 Uani
C16G C 0.9572(9) 0.0396(9) -0.1171(3) 0.2200 Uani
C17G C 0.7580(6) 0.2188(6) -0.0064(2) 0.1800 Uani
C18G C 0.7136(7) 0.2154(6) -0.00406(18) 0.2033 Uani
C19G C 0.6891(5) 0.1899(6) -0.0147(2) 0.2067 Uani
H9G H 0.6594 0.1876 -0.0131 0.2490 Uiso
C20G C 0.7090(6) 0.1679(5) -0.02761(19) 0.2100 Uani
C21G C 0.7534(6) 0.1713(6) -0.02991(19) 0.2100 Uani
C22G C 0.7779(5) 0.1968(7) -0.0193(2) 0.2067 Uani
C23G C 0.7741(8) 0.1502(6) -0.0435(2) 0.2267 Uani
H10G H 0.7572 0.1338 -0.0506 0.2710 Uiso
C24G C 0.8188(8) 0.1528(6) -0.0465(2) 0.2367 Uani
C25G C 0.8429(8) 0.1788(7) -0.0355(3) 0.2433 Uani
H11G H 0.8725 0.1816 -0.0371 0.2940 Uiso
C26G C 0.8232(7) 0.2008(9) -0.0219(3) 0.2333 Uani
H12G H 0.8399 0.2176 -0.0148 0.2790 Uiso
C27G C 0.6837(8) 0.1405(7) -0.0394(3) 0.2167 Uani
H13G H 0.6976 0.1181 -0.0449 0.2610 Uiso
C28G C 0.6393(8) 0.1479(9) -0.0424(3) 0.2167 Uani
H14G H 0.6254 0.1707 -0.0371 0.2600 Uiso
C29G C 0.8369(8) 0.1288(8) -0.0609(3) 0.2267 Uani
H15G H 0.8205 0.1089 -0.0668 0.2760 Uiso
C30G C 0.8797(8) 0.1376(8) -0.0650(2) 0.2433 Uani
H16G H 0.8962 0.1586 -0.0598 0.2900 Uiso
O1G O 0.5563(8) 0.0056(8) -0.0917(3) 0.2300 Uani
O2G O 0.5052(8) 0.0556(8) -0.0931(3) 0.2003 Uani
O2I O 1.0556(8) 0.5052(8) 0.0931(3) 0.2003 Uani
O2N O 0.4948(8) -0.0556(8) -0.0931(3) 0.2003 Uani
O3G O 0.9956(8) 0.0529(8) -0.1215(3) 0.2330 Uani
O3L O 1.0529(8) 0.5044(8) 0.1285(3) 0.2330 Uani
O3J O 0.4956(8) -0.0529(8) -0.1285(3) 0.2330 Uani
O4G O 0.9416(8) 0.0062(9) -0.1244(3) 0.2300 Uani
O4E O 0.9938(9) 0.4416(8) 0.1256(3) 0.2300 Uani
O4C O 0.5584(8) 0.0062(9) -0.1256(3) 0.2300 Uani
O5G O 0.6970(8) 0.2353(8) 0.0091(2) 0.2500 Uani
O6G O 0.5772(7) -0.0723(8) -0.11055(19) 0.2180 Uani
loop_
_atom_site_aniso_label
_atom_site_aniso_U_11
_atom_site_aniso_U_22
_atom_site_aniso_U_33
_atom_site_aniso_U_23
_atom_site_aniso_U_13
_atom_site_aniso_U_12
Cu1 0.292(14) 0.146(11) 0.169(9) 0.039(7) 0.040(8) 0.044(6)
C1 0.31(3) 0.19(3) 0.17(2) -0.01(2) -0.03(2) 0.01(2)
C2 0.31(4) 0.20(3) 0.17(3) -0.01(2) -0.06(2) -0.01(3)
C3 0.29(3) 0.21(4) 0.17(3) -0.01(2) -0.03(2) 0.01(3)
C4 0.29(3) 0.18(3) 0.14(2) -0.02(2) -0.02(2) -0.01(2)
C5 0.32(4) 0.16(3) 0.16(3) 0.00(2) 0.00(3) 0.02(3)
C6 0.31(3) 0.16(3) 0.16(3) -0.03(2) -0.04(2) 0.03(3)
C7 0.42(4) 0.24(4) 0.26(3) -0.03(3) -0.05(3) 0.08(4)
C8 0.56(6) 0.34(5) 0.35(5) 0.07(4) 0.13(5) 0.16(5)
C9 0.37(3) 0.17(3) 0.15(2) 0.06(2) -0.05(2) 0.07(2)
C10 0.33(4) 0.19(3) 0.16(3) 0.07(2) -0.06(2) 0.07(2)
C11 0.34(3) 0.18(3) 0.16(3) 0.04(2) -0.05(2) 0.06(3)
C12 0.33(3) 0.18(3) 0.12(2) 0.06(2) -0.06(2) 0.07(2)
C13 0.36(4) 0.20(3) 0.14(3) 0.04(2) -0.05(2) 0.07(3)
C14 0.37(3) 0.18(3) 0.16(3) 0.04(2) -0.04(2) 0.09(3)
C15 0.30(3) 0.22(3) 0.11(2) -0.01(2) 0.01(2) -0.05(3)
C16 0.35(3) 0.20(3) 0.11(2) 0.03(3) 0.00(2) 0.11(3)
C17 0.29(3) 0.13(3) 0.12(3) -0.04(2) -0.08(2) 0.06(3)
C18 0.30(3) 0.18(3) 0.13(2) 0.01(2) -0.10(2) 0.06(2)
C19 0.32(3) 0.19(3) 0.11(2) 0.04(2) -0.05(2) 0.07(2)
C20 0.30(3) 0.19(3) 0.14(2) 0.00(2) -0.03(2) 0.05(3)
C21 0.30(3) 0.18(3) 0.15(2) -0.01(2) -0.03(2) 0.06(3)
C22 0.32(3) 0.17(3) 0.13(2) -0.01(2) -0.06(2) 0.07(3)
C23 0.30(3) 0.20(3) 0.18(3) -0.01(2) -0.03(2) 0.07(3)
C24 0.31(3) 0.22(3) 0.18(3) 0.00(2) -0.02(2) 0.10(3)
C25 0.32(3) 0.21(3) 0.20(3) -0.02(2) -0.01(2) 0.11(3)
C26 0.33(3) 0.20(3) 0.17(3) -0.03(2) -0.03(2) 0.08(3)
C27 0.27(3) 0.20(3) 0.18(2) 0.00(3) -0.01(2) 0.01(3)
C28 0.29(3) 0.20(3) 0.16(2) 0.01(3) 0.00(2) 0.01(3)
C29 0.35(3) 0.18(3) 0.15(2) 0.08(2) -0.06(2) 0.10(3)
C30 0.39(3) 0.17(3) 0.17(2) 0.06(2) -0.06(2) 0.10(3)
O1 0.28(4) 0.29(3) 0.12(2) -0.05(2) -0.02(2) -0.10(3)
O2 0.32(3) 0.19(3) 0.091(19) -0.07(2) 0.02(2) -0.06(2)
O3 0.40(4) 0.19(3) 0.109(19) 0.06(2) -0.01(2) 0.15(2)
O4 0.32(4) 0.22(3) 0.15(2) 0.05(2) -0.04(2) 0.10(2)
O5 0.34(3) 0.21(3) 0.20(2) -0.005(19) -0.084(16) 0.09(3)
O6 0.31(4) 0.15(3) 0.194(19) 0.003(18) 0.02(2) 0.06(2)
Cu1G 0.146 0.292 0.169 0.04 0.039 0.044
Cu1I 0.292 0.146 0.169 -0.039 -0.04 0.044
Cu1L 0.292 0.146 0.169 -0.039 0.04 -0.044
Cu1E 0.292 0.146 0.169 0.039 -0.04 -0.044
Cu1J 0.146 0.292 0.169 0.04 -0.039 -0.044
Cu1C 0.146 0.292 0.169 -0.04 0.039 -0.044
Cu1N 0.146 0.292 0.169 -0.04 -0.039 0.044
C1G 0.19 0.31 0.17 -0.03 -0.01 0.01
C2G 0.2 0.31 0.17 -0.06 -0.01 -0.01
C3G 0.21 0.29 0.17 -0.03 -0.01 0.01
C4G 0.18 0.29 0.14 -0.02 -0.02 -0.01
C5G 0.16 0.32 0.16 0 0 0.02
C6G 0.16 0.31 0.16 -0.04 -0.03 0.03
C7G 0.24 0.42 0.26 -0.05 -0.03 0.08
C8G 0.34 0.56 0.35 0.13 0.07 0.16
C9G 0.17 0.37 0.15 -0.05 0.06 0.07
C10G 0.19 0.33 0.16 -0.06 0.07 0.07
C11G 0.18 0.34 0.16 -0.05 0.04 0.06
C12G 0.18 0.33 0.12 -0.06 0.06 0.07
C13G 0.2 0.36 0.14 -0.05 0.04 0.07
C14G 0.18 0.37 0.16 -0.04 0.04 0.09
C15G 0.22 0.3 0.11 0.01 -0.01 -0.05
C16G 0.2 0.35 0.11 0 0.03 0.11
C17G 0.13 0.29 0.12 -0.08 -0.04 0.06
C18G 0.18 0.3 0.13 -0.1 0.01 0.06
C19G 0.19 0.32 0.11 -0.05 0.04 0.07
C20G 0.19 0.3 0.14 -0.03 0 0.05
C21G 0.18 0.3 0.15 -0.03 -0.01 0.06
C22G 0.17 0.32 0.13 -0.06 -0.01 0.07
C23G 0.2 0.3 0.18 -0.03 -0.01 0.07
C24G 0.22 0.31 0.18 -0.02 0 0.1
C25G 0.21 0.32 0.2 -0.01 -0.02 0.11
C26G 0.2 0.33 0.17 -0.03 -0.03 0.08
C27G 0.2 0.27 0.18 -0.01 0 0.01
C28G 0.2 0.29 0.16 0 0.01 0.01
C29G 0.18 0.35 0.15 -0.06 0.08 0.1
C30G 0.17 0.39 0.17 -0.06 0.06 0.1
O1G 0.29 0.28 0.12 -0.02 -0.05 -0.1
O2G 0.19 0.32 0.091 0.02 -0.07 -0.06
O2I 0.32 0.19 0.091 0.07 -0.02 -0.06
O2N 0.19 0.32 0.091 -0.02 0.07 -0.06
O3G 0.19 0.4 0.109 -0.01 0.06 0.15
O3L 0.4 0.19 0.109 -0.06 -0.01 -0.15
O3J 0.19 0.4 0.109 -0.01 -0.06 -0.15
O4G 0.22 0.32 0.15 -0.04 0.05 0.1
O4E 0.32 0.22 0.15 0.05 0.04 -0.1
O4C 0.22 0.32 0.15 0.04 0.05 -0.1
O5G 0.21 0.34 0.2 -0.084 -0.005 0.09
O6G 0.15 0.31 0.194 0.02 0.003 0.06
loop_
_geom_bond_atom_site_label_1
_geom_bond_atom_site_label_2
_geom_bond_site_symmetry_1
_geom_bond_site_symmetry_2
Cu1 O1 1_555 1_555
C1 C2 1_555 1_555
C2 H1 1_555 1_555
C3 C2 1_555 1_555
H2 C3 1_555 1_555
C4 C3 1_555 1_555
C5 C4 1_555 1_555
H3 C5 1_555 1_555
C6 C1 1_555 1_555
H4 C6 1_555 1_555
C7 C8 1_555 1_555
C9 C10 1_555 1_555
C10 H5 1_555 1_555
C11 C10 1_555 1_555
H6 C11 1_555 1_555
C12 C11 1_555 1_555
C13 C12 1_555 1_555
H7 C13 1_555 1_555
C14 C9 1_555 1_555
H8 C14 1_555 1_555
C15 C4 1_555 1_555
C16 C12 1_555 1_555
C17 C18 1_555 1_555
C18 C19 1_555 1_555
C19 H9 1_555 1_555
C20 C19 1_555 1_555
C21 C20 1_555 1_555
C22 C17 1_555 1_555
C23 C21 1_555 1_555
H10 C23 1_555 1_555
C24 C23 1_555 1_555
C25 C24 1_555 1_555
H11 C25 1_555 1_555
C26 C22 1_555 1_555
H12 C26 1_555 1_555
C27 C20 1_555 1_555
H13 C27 1_555 1_555
C28 C1 1_555 1_555
H14 C28 1_555 1_555
C29 C24 1_555 1_555
H15 C29 1_555 1_555
C30 C9 1_555 1_555
H16 C30 1_555 1_555
O1 C15 1_555 1_555
O2 C15 1_555 1_555
O3 C16 1_555 1_555
O4 C16 1_555 1_555
O5 C7 1_555 1_555
O6 Cu1 1_555 1_555
Cu1G O1G 1_555 1_555
Cu1I O2 1_555 1_555
Cu1L O3 1_555 1_555
Cu1E O4 1_555 1_555
Cu1J O3G 1_555 1_555
Cu1C O4G 1_555 1_555
Cu1N O2G 1_555 1_555
C1G C2G 1_555 1_555
C2G H1G 1_555 1_555
C3G C2G 1_555 1_555
H2G C3G 1_555 1_555
C4G C3G 1_555 1_555
C5G C4G 1_555 1_555
H3G C5G 1_555 1_555
C6G C1G 1_555 1_555
H4G C6G 1_555 1_555
C7G C8G 1_555 1_555
C9G C10G 1_555 1_555
C10G H5G 1_555 1_555
C11G C10G 1_555 1_555
H6G C11G 1_555 1_555
C12G C11G 1_555 1_555
C13G C12G 1_555 1_555
H7G C13G 1_555 1_555
C14G C9G 1_555 1_555
H8G C14G 1_555 1_555
C15G C4G 1_555 1_555
C16G C12G 1_555 1_555
C17G C17 1_555 1_555
C18G C17G 1_555 1_555
C19G C18G 1_555 1_555
H9G C19G 1_555 1_555
C20G C19G 1_555 1_555
C21G C20G 1_555 1_555
C22G C17G 1_555 1_555
C23G C21G 1_555 1_555
H10G C23G 1_555 1_555
C24G C23G 1_555 1_555
C25G C24G 1_555 1_555
H11G C25G 1_555 1_555
C26G C22G 1_555 1_555
H12G C26G 1_555 1_555
C27G C20G 1_555 1_555
H13G C27G 1_555 1_555
C28G C1G 1_555 1_555
H14G C28G 1_555 1_555
C29G C24G 1_555 1_555
H15G C29G 1_555 1_555
C30G C9G 1_555 1_555
H16G C30G 1_555 1_555
O1G C15G 1_555 1_555
O2G C15G 1_555 1_555
O2I Cu1 1_555 1_555
O2N Cu1G 1_555 1_555
O3G C16G 1_555 1_555
O3L Cu1 1_555 1_555
O3J Cu1G 1_555 1_555
O4G C16G 1_555 1_555
O4E Cu1 1_555 1_555
O4C Cu1G 1_555 1_555
O5G C7G 1_555 1_555
O6G Cu1G 1_555 1_555
C5 C6 1_555 1_555
C13 C14 1_555 1_555
C18 O5 1_555 1_555
C21 C22 1_555 1_555
C25 C26 1_555 1_555
C27 C28 1_555 1_555
C29 C30 1_555 1_555
C5G C6G 1_555 1_555
C13G C14G 1_555 1_555
C18G O5G 1_555 1_555
C21G C22G 1_555 1_555
C25G C26G 1_555 1_555
C27G C28G 1_555 1_555
C29G C30G 1_555 1_555

#END
