
#######################################################################
#
#                 Cambridge Crystallographic Data Centre
#                                CCDC 
#
#######################################################################
#
# If this CIF has been generated from an entry in the Cambridge 
# Structural Database, then it will include bibliographic, chemical, 
# crystal, experimental, refinement or atomic coordinate data resulting 
# from the CCDC's data processing and validation procedures.
#
#######################################################################

data_XAHPIH
_chemical_formula_moiety         '(C32 H22 Cu2 O12)n'
_symmetry_cell_setting           tetragonal
_symmetry_space_group_name_H-M   'I 41 2 2'
_symmetry_Int_Tables_number      98
_space_group_name_Hall           'I 4bw 2bw'
loop_
_symmetry_equiv_pos_site_id
_symmetry_equiv_pos_as_xyz
1 x,y,z
2 1/2-x,1/2-y,1/2+z
3 -y,1/2+x,1/4+z
4 1/2+y,-x,3/4+z
5 1/2-x,y,3/4-z
6 x,1/2-y,1/4-z
7 1/2+y,1/2+x,1/2-z
8 -y,-x,-z
9 1/2+x,1/2+y,1/2+z
10 -x,-y,z
11 1/2-y,x,3/4+z
12 y,1/2-x,1/4+z
13 -x,1/2+y,1/4-z
14 1/2+x,-y,3/4-z
15 y,x,-z
16 1/2-y,1/2-x,1/2-z
_cell_length_a                   21.049(5)
_cell_length_b                   21.049(5)
_cell_length_c                   57.878(13)
_cell_angle_alpha                90
_cell_angle_beta                 90
_cell_angle_gamma                90
_cell_volume                     25643.4
loop_
_atom_site_label
_atom_site_type_symbol
_atom_site_fract_x
_atom_site_fract_y
_atom_site_fract_z
_atom_site_U_iso_or_equiv
_atom_site_thermal_displace_type
O1 O 0.9119(4) -0.0031(4) 0.16296(11) 0.1543 Uani
O2 O 0.9768(4) 0.4182(3) 0.13207(10) 0.1527 Uani
O3 O 0.9223(4) 0.5047(4) 0.13466(12) 0.1557 Uani
C1 C 0.9312(8) 0.4493(8) 0.1422(2) 0.1527 Uani
C2 C 0.8517(4) 0.1738(4) 0.20977(12) 0.1500 Uani
C3 C 0.8220(5) 0.1424(3) 0.22795(15) 0.1783 Uani
H1 H 0.8265 0.0982 0.2296 0.2140 Uiso
C4 C 0.7856(4) 0.1765(5) 0.24371(11) 0.1863 Uani
C5 C 0.7789(4) 0.2418(5) 0.24129(12) 0.1613 Uani
C6 C 0.8086(4) 0.2731(3) 0.22312(15) 0.1450 Uani
C7 C 0.8450(4) 0.2391(4) 0.20736(11) 0.1510 Uani
Cu1 Cu 0.96431(8) -0.04999(7) 0.14034(2) 0.1599 Uani
O4 O 0.9805(5) 0.0779(4) 0.16486(16) 0.1623 Uani
C8 C 0.9321(9) 0.0542(9) 0.1707(3) 0.1553 Uani
C9 C 0.8862(7) 0.0861(6) 0.18838(18) 0.1600 Uani
H2 H 0.8525 0.0621 0.1945 0.1920 Uiso
C10 C 0.9002(6) 0.3702(6) 0.1670(2) 0.1617 Uani
H3 H 0.9312 0.3456 0.1594 0.1940 Uiso
C11 C 0.8727(6) 0.2739(5) 0.18936(15) 0.1473 Uani
H4 H 0.8985 0.2520 0.1788 0.1770 Uiso
O5 O 0.9070(4) -0.1341(3) 0.14087(10) 0.1793 Uani
C12 C 0.8646(6) 0.3373(6) 0.1863(2) 0.1437 Uani
O6 O 0.7562(4) 0.1436(4) 0.26038(10) 0.2080 Uani
C13 C 0.8021(5) 0.3388(5) 0.22064(18) 0.1447 Uani
H5 H 0.7792 0.3617 0.2318 0.1740 Uiso
C14 C 0.8285(5) 0.3710(5) 0.20219(18) 0.1520 Uani
H6 H 0.8222 0.4149 0.2004 0.1820 Uiso
C15 C 0.8940(6) 0.4246(6) 0.15992(19) 0.1417 Uani
H7 H 0.8628 0.4506 0.1667 0.1700 Uiso
C16 C 0.8926(7) 0.1420(6) 0.19473(19) 0.1607 Uani
H8 H 0.9277 0.1647 0.1890 0.1930 Uiso
O1F O 0.4969(4) 0.4119(4) 0.33704(11) 0.1543 Uani
O2F O 0.9182(3) 0.4768(4) 0.36793(10) 0.1527 Uani
O2L O 1.0232(4) -0.0818(3) 0.11793(10) 0.1527 Uani
O2K O 0.4182(3) 0.5232(4) 0.38207(10) 0.1527 Uani
O3F O 1.0047(4) 0.4223(4) 0.36534(12) 0.1557 Uani
O3E O 0.9223(4) -0.0047(4) 0.11534(12) 0.1557 Uani
O3B O 0.4953(4) 0.4223(4) 0.38466(12) 0.1557 Uani
C1F C 0.9493(8) 0.4312(8) 0.3578(2) 0.1527 Uani
C2F C 0.6738(4) 0.3517(4) 0.29023(12) 0.1500 Uani
C3F C 0.6424(3) 0.3220(5) 0.27205(15) 0.1783 Uani
H1F H 0.5982 0.3265 0.2704 0.2140 Uiso
C4F C 0.6765(5) 0.2856(4) 0.25629(11) 0.1863 Uani
C5F C 0.7418(5) 0.2789(4) 0.25871(12) 0.1613 Uani
C6F C 0.7731(3) 0.3086(4) 0.27688(15) 0.1450 Uani
C7F C 0.7391(4) 0.3450(4) 0.29264(11) 0.1510 Uani
Cu1F Cu 0.45001(7) 0.46431(8) 0.35966(2) 0.1599 Uani
Cu1L Cu 1.03569(8) 0.45001(7) 0.10966(2) 0.1599 Uani
Cu1E Cu 0.96431(8) 0.54999(7) 0.10966(2) 0.1599 Uani
Cu1I Cu 1.03569(8) 0.04999(7) 0.14034(2) 0.1599 Uani
Cu1K Cu 0.95001(7) 0.53569(8) 0.39034(2) 0.1599 Uani
Cu1B Cu 1.04999(7) 0.46431(8) 0.39034(2) 0.1599 Uani
Cu1O Cu 0.54999(7) 0.53569(8) 0.35966(2) 0.1599 Uani
O4F O 0.5779(4) 0.4805(5) 0.33514(16) 0.1623 Uani
O4I O 1.0195(5) -0.0779(4) 0.16486(16) 0.1623 Uani
O4O O 0.4221(4) 0.5195(5) 0.33514(16) 0.1623 Uani
C8F C 0.5542(9) 0.4321(9) 0.3293(3) 0.1553 Uani
C9F C 0.5861(6) 0.3862(7) 0.31162(18) 0.1600 Uani
H2F H 0.5621 0.3525 0.3055 0.1920 Uiso
C10F C 0.8702(6) 0.4002(6) 0.3330(2) 0.1617 Uani
H3F H 0.8456 0.4312 0.3406 0.1940 Uiso
C11F C 0.7739(5) 0.3727(6) 0.31064(15) 0.1473 Uani
H4F H 0.7520 0.3985 0.3212 0.1770 Uiso
O5F O 0.3659(3) 0.4070(4) 0.35913(10) 0.1793 Uani
C12F C 0.8373(6) 0.3646(6) 0.3137(2) 0.1437 Uani
O6F O 0.6436(4) 0.2562(4) 0.23962(10) 0.2080 Uani
C13F C 0.8388(5) 0.3021(5) 0.27936(18) 0.1447 Uani
H5F H 0.8617 0.2792 0.2682 0.1740 Uiso
C14F C 0.8710(5) 0.3285(5) 0.29781(18) 0.1520 Uani
H6F H 0.9149 0.3222 0.2996 0.1820 Uiso
C15F C 0.9246(6) 0.3940(6) 0.34008(19) 0.1417 Uani
H7F H 0.9506 0.3628 0.3333 0.1700 Uiso
C16F C 0.6420(6) 0.3926(7) 0.30527(19) 0.1607 Uani
H8F H 0.6647 0.4277 0.3110 0.1930 Uiso
loop_
_atom_site_aniso_label
_atom_site_aniso_U_11
_atom_site_aniso_U_22
_atom_site_aniso_U_33
_atom_site_aniso_U_23
_atom_site_aniso_U_13
_atom_site_aniso_U_12
O1 0.257(9) 0.129(7) 0.077(5) -0.003(5) 0.003(5) 0.041(6)
O2 0.237(10) 0.154(7) 0.067(5) -0.010(4) 0.052(5) -0.068(6)
O3 0.207(8) 0.188(9) 0.072(6) 0.012(6) 0.022(5) -0.050(7)
C1 0.225(14) 0.181(13) 0.052(9) 0.003(9) 0.013(8) -0.048(10)
C2 0.232(13) 0.136(8) 0.082(8) -0.005(7) 0.045(7) 0.004(10)
C3 0.262(15) 0.175(9) 0.098(9) 0.009(7) 0.042(7) -0.013(10)
C4 0.257(14) 0.211(11) 0.091(10) 0.037(9) 0.075(8) 0.002(12)
C5 0.212(13) 0.185(9) 0.087(10) -0.020(6) 0.043(7) -0.031(10)
C6 0.192(12) 0.142(8) 0.101(9) -0.025(7) 0.048(7) -0.017(10)
C7 0.220(13) 0.130(8) 0.103(9) -0.015(7) 0.052(7) -0.025(9)
Cu1 0.231 0.1647 0.0841 0.0005 -0.0004 0.0169
O4 0.232(11) 0.152(8) 0.103(7) -0.034(6) 0.007(6) 0.035(6)
C8 0.256(14) 0.145(12) 0.065(9) -0.014(9) 0.005(8) 0.030(10)
C9 0.259(12) 0.160(12) 0.061(8) -0.010(8) 0.014(7) 0.041(12)
C10 0.204(13) 0.163(12) 0.118(10) 0.025(9) 0.016(8) -0.034(12)
C11 0.233(12) 0.125(8) 0.084(7) -0.021(7) 0.053(7) -0.021(11)
O5 0.258 0.179 0.101 0.012 0.012 -0.016
C12 0.198(12) 0.119(9) 0.114(9) -0.002(8) 0.036(7) -0.004(11)
O6 0.299(11) 0.219(8) 0.106(5) 0.000(5) 0.069(6) -0.066(7)
C13 0.167(11) 0.153(9) 0.114(9) -0.018(7) 0.026(7) 0.014(10)
C14 0.198(14) 0.133(9) 0.125(10) -0.011(7) 0.027(8) 0.004(9)
C15 0.177(11) 0.184(13) 0.064(8) 0.026(8) 0.011(7) -0.011(11)
C16 0.251(14) 0.152(11) 0.079(9) -0.011(9) 0.021(7) 0.027(11)
O1F 0.129 0.257 0.077 -0.003 0.003 0.041
O2F 0.154 0.237 0.067 -0.052 0.01 -0.068
O2L 0.237 0.154 0.067 0.01 0.052 0.068
O2K 0.154 0.237 0.067 -0.052 -0.01 0.068
O3F 0.188 0.207 0.072 -0.022 -0.012 -0.05
O3E 0.207 0.188 0.072 0.012 -0.022 0.05
O3B 0.188 0.207 0.072 0.022 -0.012 0.05
C1F 0.181 0.225 0.052 -0.013 -0.003 -0.048
C2F 0.136 0.232 0.082 -0.045 0.005 0.004
C3F 0.175 0.262 0.098 -0.042 -0.009 -0.013
C4F 0.211 0.257 0.091 -0.075 -0.037 0.002
C5F 0.185 0.212 0.087 -0.043 0.02 -0.031
C6F 0.142 0.192 0.101 -0.048 0.025 -0.017
C7F 0.13 0.22 0.103 -0.052 0.015 -0.025
Cu1F 0.1647 0.231 0.0841 0.0004 -0.0005 0.0169
Cu1L 0.231 0.1647 0.0841 -0.0005 -0.0004 -0.0169
Cu1E 0.231 0.1647 0.0841 0.0005 0.0004 -0.0169
Cu1I 0.231(2) 0.1647(15) 0.0841(9) -0.0005(10) 0.0004(12) 0.0169(14)
Cu1K 0.1647 0.231 0.0841 0.0004 0.0005 -0.0169
Cu1B 0.1647 0.231 0.0841 -0.0004 -0.0005 -0.0169
Cu1O 0.1647 0.231 0.0841 -0.0004 0.0005 0.0169
O4F 0.152 0.232 0.103 -0.007 0.034 0.035
O4I 0.232 0.152 0.103 0.034 -0.007 0.035
O4O 0.152 0.232 0.103 0.007 -0.034 0.035
C8F 0.145 0.256 0.065 -0.005 0.014 0.03
C9F 0.16 0.259 0.061 -0.014 0.01 0.041
C10F 0.163 0.204 0.118 -0.016 -0.025 -0.034
C11F 0.125 0.233 0.084 -0.053 0.021 -0.021
O5F 0.179 0.258 0.101 -0.012 -0.012 -0.016
C12F 0.119 0.198 0.114 -0.036 0.002 -0.004
O6F 0.219 0.299 0.106 -0.069 0 -0.066
C13F 0.153 0.167 0.114 -0.026 0.018 0.014
C14F 0.133 0.198 0.125 -0.027 0.011 0.004
C15F 0.184 0.177 0.064 -0.011 -0.026 -0.011
C16F 0.152 0.251 0.079 -0.021 0.011 0.027
loop_
_geom_bond_atom_site_label_1
_geom_bond_atom_site_label_2
_geom_bond_site_symmetry_1
_geom_bond_site_symmetry_2
O1 Cu1 1_555 1_555
O2 C1 1_555 1_555
O3 C1 1_555 1_555
C1 C15 1_555 1_555
C2 C3 1_555 1_555
C3 H1 1_555 1_555
C4 C3 1_555 1_555
C5 C4 1_555 1_555
C6 C5 1_555 1_555
C7 C2 1_555 1_555
Cu1 O5 1_555 1_555
O4 C8 1_555 1_555
C8 O1 1_555 1_555
C9 C8 1_555 1_555
H2 C9 1_555 1_555
C10 H3 1_555 1_555
C11 C7 1_555 1_555
H4 C11 1_555 1_555
C12 C10 1_555 1_555
O6 C4 1_555 1_555
C13 C6 1_555 1_555
H5 C13 1_555 1_555
C14 C12 1_555 1_555
H6 C14 1_555 1_555
C15 C10 1_555 1_555
H7 C15 1_555 1_555
C16 C2 1_555 1_555
H8 C16 1_555 1_555
O1F Cu1F 1_555 1_555
O2F C1F 1_555 1_555
O2L Cu1 1_555 1_555
O2K Cu1F 1_555 1_555
O3F C1F 1_555 1_555
O3E Cu1 1_555 1_555
O3B Cu1F 1_555 1_555
C1F C15F 1_555 1_555
C2F C3F 1_555 1_555
C3F H1F 1_555 1_555
C4F C3F 1_555 1_555
C5F C5 1_555 1_555
C6F C5F 1_555 1_555
C7F C2F 1_555 1_555
Cu1F O4O 1_555 1_555
Cu1L O2 1_555 1_555
Cu1E O3 1_555 1_555
Cu1I O4 1_555 1_555
Cu1K O2F 1_555 1_555
Cu1B O3F 1_555 1_555
Cu1O O4F 1_555 1_555
O4F C8F 1_555 1_555
O4I Cu1 1_555 1_555
C8F O1F 1_555 1_555
C9F C8F 1_555 1_555
H2F C9F 1_555 1_555
C10F H3F 1_555 1_555
C11F C7F 1_555 1_555
H4F C11F 1_555 1_555
O5F Cu1F 1_555 1_555
C12F C10F 1_555 1_555
O6F C4F 1_555 1_555
C13F C6F 1_555 1_555
H5F C13F 1_555 1_555
C14F C12F 1_555 1_555
H6F C14F 1_555 1_555
C15F C10F 1_555 1_555
H7F C15F 1_555 1_555
C16F C2F 1_555 1_555
H8F C16F 1_555 1_555
C6 C7 1_555 1_555
C9 C16 1_555 1_555
C11 C12 1_555 1_555
C13 C14 1_555 1_555
C4F C5F 1_555 1_555
C6F C7F 1_555 1_555
C9F C16F 1_555 1_555
C11F C12F 1_555 1_555
C13F C14F 1_555 1_555

#END
