
#######################################################################
#
#                 Cambridge Crystallographic Data Centre
#                                CCDC 
#
#######################################################################
#
# If this CIF has been generated from an entry in the Cambridge 
# Structural Database, then it will include bibliographic, chemical, 
# crystal, experimental, refinement or atomic coordinate data resulting 
# from the CCDC's data processing and validation procedures.
#
#######################################################################

data_XAHPED
_chemical_formula_moiety         '(C36 H30 Cu2 O12)n'
_symmetry_cell_setting           tetragonal
_symmetry_space_group_name_H-M   'I 41 2 2'
_symmetry_Int_Tables_number      98
_space_group_name_Hall           'I 4bw 2bw'
loop_
_symmetry_equiv_pos_site_id
_symmetry_equiv_pos_as_xyz
1 x,y,z
2 1/2-x,1/2-y,1/2+z
3 -y,1/2+x,1/4+z
4 1/2+y,-x,3/4+z
5 1/2-x,y,3/4-z
6 x,1/2-y,1/4-z
7 1/2+y,1/2+x,1/2-z
8 -y,-x,-z
9 1/2+x,1/2+y,1/2+z
10 -x,-y,z
11 1/2-y,x,3/4+z
12 y,1/2-x,1/4+z
13 -x,1/2+y,1/4-z
14 1/2+x,-y,3/4-z
15 y,x,-z
16 1/2-y,1/2-x,1/2-z
_cell_length_a                   21.4169(3)
_cell_length_b                   21.4169(3)
_cell_length_c                   57.6768(11)
_cell_angle_alpha                90
_cell_angle_beta                 90
_cell_angle_gamma                90
_cell_volume                     26455.4
loop_
_atom_site_label
_atom_site_type_symbol
_atom_site_fract_x
_atom_site_fract_y
_atom_site_fract_z
_atom_site_U_iso_or_equiv
_atom_site_thermal_displace_type
Cu1 Cu 0.46423(2) 1.04952(2) 0.108790(9) 0.0977 Uani
C1 C 0.27903(13) 0.75664(19) 0.00976(5) 0.1110 Uani
C2 C 0.28423(15) 0.82107(19) 0.00760(5) 0.1317 Uani
C3 C 0.32067(17) 0.85460(12) 0.02318(6) 0.1280 Uani
H1 H 0.3242 0.8982 0.0217 0.1540 Uiso
C4 C 0.35190(13) 0.82370(17) 0.04092(5) 0.1100 Uani
C5 C 0.34670(14) 0.75927(17) 0.04308(4) 0.0987 Uani
C6 C 0.31026(16) 0.72574(12) 0.02750(6) 0.0973 Uani
C7 C 0.3071(2) 0.6615(2) 0.03014(8) 0.1203 Uani
H2 H 0.2842 0.6388 0.0191 0.1450 Uiso
C8 C 0.3349(2) 0.6286(2) 0.04770(8) 0.1240 Uani
H3 H 0.3305 0.5851 0.0490 0.1490 Uiso
C9 C 0.3707(2) 0.6637(2) 0.06373(7) 0.1173 Uani
C10 C 0.3777(2) 0.7275(2) 0.06123(7) 0.1113 Uani
H4 H 0.4032 0.7498 0.0716 0.1340 Uiso
C11 C 0.3923(2) 0.8617(2) 0.05642(7) 0.1143 Uani
H5 H 0.4267 0.8413 0.0632 0.1370 Uiso
C12 C 0.3851(2) 0.9195(2) 0.06154(7) 0.1173 Uani
H6 H 0.3521 0.9427 0.0552 0.1410 Uiso
C13 C 0.4319(3) 0.9502(2) 0.07842(8) 0.1040 Uani
C14 C 0.4030(2) 0.6322(2) 0.08330(8) 0.1200 Uani
H7 H 0.4313 0.6573 0.0916 0.1440 Uiso
C15 C 0.3978(2) 0.5753(3) 0.09054(8) 0.1217 Uani
H8 H 0.3690 0.5494 0.0829 0.1460 Uiso
C16 C 0.4328(2) 0.5487(2) 0.10945(8) 0.1073 Uani
C17 C 0.2427(5) 0.9163(3) -0.01036(14) 0.3133 Uani
H9 H 0.2250 0.9291 0.0046 0.3760 Uiso
H10 H 0.2823 0.9384 -0.0126 0.3760 Uiso
C18 C 0.1995(6) 0.9313(4) -0.0290(2) 0.4493 Uani
H11 H 0.1856 0.8930 -0.0364 0.6760 Uiso
H12 H 0.2204 0.9573 -0.0404 0.6760 Uiso
H13 H 0.1638 0.9534 -0.0228 0.6760 Uiso
O1 O 0.41362(14) 1.00273(15) 0.08635(5) 0.1160 Uani
O2 O 0.48083(16) 0.92343(13) 0.08376(5) 0.1107 Uani
O3 O 0.42146(14) 0.49289(15) 0.11564(5) 0.1137 Uani
O4 O 0.47540(16) 0.58257(13) 0.11858(5) 0.1150 Uani
O5 O 0.25288(19) 0.84899(19) -0.01068(6) 0.1680 Uani
O6 O 0.40607(17) 1.13210(14) 0.10823(6) 0.1593 Uani
Cu1G Cu -0.04952(2) 0.53577(2) -0.108790(9) 0.0977 Uani
Cu1I Cu 0.53577(2) 0.95048(2) 0.108790(9) 0.0977 Uani
Cu1E Cu 0.46423(2) 0.45048(2) 0.141210(9) 0.0977 Uani
Cu1L Cu 0.53577(2) 0.54952(2) 0.141210(9) 0.0977 Uani
Cu1C Cu 0.54952(2) 0.53577(2) -0.141210(9) 0.0977 Uani
Cu1J Cu 0.45048(2) 0.46423(2) -0.141210(9) 0.0977 Uani
Cu1N Cu 0.04952(2) 0.46423(2) -0.108790(9) 0.0977 Uani
C1G C 0.24336(19) 0.72097(13) -0.00976(5) 0.1110 Uani
C2G C 0.17893(19) 0.71577(15) -0.00760(5) 0.1317 Uani
C3G C 0.14540(12) 0.67933(17) -0.02318(6) 0.1280 Uani
H1G H 0.1018 0.6758 -0.0217 0.1540 Uiso
C4G C 0.17630(17) 0.64810(13) -0.04092(5) 0.1100 Uani
C5G C 0.24073(17) 0.65330(14) -0.04308(4) 0.0987 Uani
C6G C 0.27426(12) 0.68974(16) -0.02750(6) 0.0973 Uani
C7G C 0.3385(2) 0.6929(2) -0.03014(8) 0.1203 Uani
H2G H 0.3612 0.7158 -0.0191 0.1450 Uiso
C8G C 0.3714(2) 0.6651(2) -0.04770(8) 0.1240 Uani
H3G H 0.4149 0.6695 -0.0490 0.1490 Uiso
C9G C 0.3363(2) 0.6293(2) -0.06373(7) 0.1173 Uani
C10G C 0.2725(2) 0.6223(2) -0.06123(7) 0.1113 Uani
H4G H 0.2502 0.5968 -0.0716 0.1340 Uiso
C11G C 0.1383(2) 0.6077(2) -0.05642(7) 0.1143 Uani
H5G H 0.1587 0.5733 -0.0632 0.1370 Uiso
C12G C 0.0805(2) 0.6149(2) -0.06154(7) 0.1173 Uani
H6G H 0.0573 0.6479 -0.0552 0.1410 Uiso
C13G C 0.0498(2) 0.5681(3) -0.07842(8) 0.1040 Uani
C14G C 0.3678(2) 0.5970(2) -0.08330(8) 0.1200 Uani
H7G H 0.3427 0.5687 -0.0916 0.1440 Uiso
C15G C 0.4247(3) 0.6022(2) -0.09054(8) 0.1217 Uani
H8G H 0.4506 0.6310 -0.0829 0.1460 Uiso
C16G C 0.4513(2) 0.5672(2) -0.10945(8) 0.1073 Uani
C17G C 0.0837(3) 0.7573(5) 0.01036(14) 0.3133 Uani
H9G H 0.0709 0.7750 -0.0046 0.3760 Uiso
H10G H 0.0616 0.7177 0.0126 0.3760 Uiso
C18G C 0.0687(4) 0.8005(6) 0.0290(2) 0.4493 Uani
H11G H 0.1070 0.8144 0.0364 0.6760 Uiso
H12G H 0.0427 0.7796 0.0404 0.6760 Uiso
H13G H 0.0466 0.8362 0.0228 0.6760 Uiso
O1G O -0.00273(15) 0.58638(14) -0.08635(5) 0.1160 Uani
O2G O 0.07657(13) 0.51917(16) -0.08376(5) 0.1107 Uani
O2I O 0.51917(16) 1.07657(13) 0.08376(5) 0.1107 Uani
O2N O -0.07657(13) 0.48083(16) -0.08376(5) 0.1107 Uani
O3G O 0.50711(15) 0.57854(14) -0.11564(5) 0.1137 Uani
O3E O 0.42146(14) 1.00711(15) 0.13436(5) 0.1137 Uani
O3C O -0.00711(15) 0.57854(14) -0.13436(5) 0.1137 Uani
O4G O 0.41743(13) 0.52460(16) -0.11858(5) 0.1150 Uani
O4L O 0.52460(16) 1.08257(13) 0.13142(5) 0.1150 Uani
O4J O -0.08257(13) 0.47540(16) -0.13142(5) 0.1150 Uani
O5G O 0.15101(19) 0.74712(19) 0.01068(6) 0.1680 Uani
O6G O -0.13210(14) 0.59393(17) -0.10823(6) 0.1593 Uani
loop_
_atom_site_aniso_label
_atom_site_aniso_U_11
_atom_site_aniso_U_22
_atom_site_aniso_U_33
_atom_site_aniso_U_23
_atom_site_aniso_U_13
_atom_site_aniso_U_12
Cu1 0.1336(5) 0.0840(4) 0.0755(3) -0.0018(3) -0.0017(3) -0.0023(3)
C1 0.131(4) 0.113(4) 0.089(4) -0.031(3) -0.017(3) 0.020(3)
C2 0.182(5) 0.127(4) 0.086(4) 0.004(3) -0.037(3) 0.034(4)
C3 0.189(5) 0.105(3) 0.090(3) -0.014(3) -0.045(3) 0.005(3)
C4 0.142(4) 0.126(4) 0.062(3) -0.022(3) -0.025(3) -0.002(3)
C5 0.150(4) 0.073(3) 0.073(3) -0.018(3) -0.022(3) 0.002(3)
C6 0.120(3) 0.090(3) 0.082(3) -0.001(3) -0.019(2) 0.011(3)
C7 0.162(4) 0.107(4) 0.092(3) -0.022(3) -0.029(3) -0.003(3)
C8 0.180(4) 0.103(3) 0.089(3) -0.012(3) -0.051(3) -0.004(3)
C9 0.150(4) 0.121(4) 0.081(3) -0.010(3) -0.026(3) 0.009(3)
C10 0.170(4) 0.086(3) 0.078(3) -0.007(2) -0.028(3) 0.002(3)
C11 0.161(4) 0.093(3) 0.089(3) 0.001(3) -0.010(3) 0.000(3)
C12 0.168(4) 0.105(4) 0.079(3) -0.015(3) -0.019(3) -0.004(3)
C13 0.140(4) 0.074(3) 0.098(3) -0.012(3) 0.016(3) 0.019(3)
C14 0.166(4) 0.105(4) 0.089(3) 0.002(3) -0.026(3) 0.031(3)
C15 0.171(5) 0.111(4) 0.083(3) 0.000(3) -0.041(3) 0.018(3)
C16 0.151(4) 0.078(3) 0.093(3) -0.021(3) 0.000(3) 0.004(3)
C17 0.517(16) 0.149(6) 0.274(9) 0.006(6) -0.258(10) 0.060(8)
C18 0.67(2) 0.260(10) 0.418(15) -0.017(10) -0.355(17) 0.156(13)
O1 0.148(2) 0.109(2) 0.091(2) 0.0009(17) -0.0154(18) 0.0031(19)
O2 0.146(3) 0.095(2) 0.091(2) -0.0195(15) -0.0113(19) 0.017(2)
O3 0.144(2) 0.096(2) 0.101(2) -0.0006(17) -0.0175(17) 0.0008(18)
O4 0.172(3) 0.0851(19) 0.088(2) 0.0027(15) -0.0237(19) 0.014(2)
O5 0.232(4) 0.156(3) 0.116(3) 0.002(2) -0.079(3) 0.017(3)
O6 0.202(3) 0.122(2) 0.154(3) -0.008(2) -0.002(3) 0.027(2)
Cu1G 0.084 0.1336 0.0755 -0.0017 -0.0018 -0.0023
Cu1I 0.1336 0.084 0.0755 0.0018 0.0017 -0.0023
Cu1E 0.1336 0.084 0.0755 -0.0018 0.0017 0.0023
Cu1L 0.1336 0.084 0.0755 0.0018 -0.0017 0.0023
Cu1C 0.084 0.1336 0.0755 0.0017 -0.0018 0.0023
Cu1J 0.084 0.1336 0.0755 -0.0017 0.0018 0.0023
Cu1N 0.084 0.1336 0.0755 0.0017 0.0018 -0.0023
C1G 0.113 0.131 0.089 -0.017 -0.031 0.02
C2G 0.127 0.182 0.086 -0.037 0.004 0.034
C3G 0.105 0.189 0.09 -0.045 -0.014 0.005
C4G 0.126 0.142 0.062 -0.025 -0.022 -0.002
C5G 0.073 0.15 0.073 -0.022 -0.018 0.002
C6G 0.09 0.12 0.082 -0.019 -0.001 0.011
C7G 0.107 0.162 0.092 -0.029 -0.022 -0.003
C8G 0.103 0.18 0.089 -0.051 -0.012 -0.004
C9G 0.121 0.15 0.081 -0.026 -0.01 0.009
C10G 0.086 0.17 0.078 -0.028 -0.007 0.002
C11G 0.093 0.161 0.089 -0.01 0.001 0
C12G 0.105 0.168 0.079 -0.019 -0.015 -0.004
C13G 0.074 0.14 0.098 0.016 -0.012 0.019
C14G 0.105 0.166 0.089 -0.026 0.002 0.031
C15G 0.111 0.171 0.083 -0.041 0 0.018
C16G 0.078 0.151 0.093 0 -0.021 0.004
C17G 0.149 0.517 0.274 -0.258 0.006 0.06
C18G 0.26 0.67 0.418 -0.355 -0.017 0.156
O1G 0.109 0.148 0.091 -0.0154 0.0009 0.0031
O2G 0.095 0.146 0.091 -0.0113 -0.0195 0.017
O2I 0.146 0.095 0.091 0.0195 0.0113 0.017
O2N 0.095 0.146 0.091 0.0113 0.0195 0.017
O3G 0.096 0.144 0.101 -0.0175 -0.0006 0.0008
O3E 0.144 0.096 0.101 -0.0006 0.0175 -0.0008
O3C 0.096 0.144 0.101 0.0175 -0.0006 -0.0008
O4G 0.0851 0.172 0.088 -0.0237 0.0027 0.014
O4L 0.172 0.0851 0.088 -0.0027 -0.0237 -0.014
O4J 0.0851 0.172 0.088 -0.0237 -0.0027 -0.014
O5G 0.156 0.232 0.116 -0.079 0.002 0.017
O6G 0.122 0.202 0.154 -0.002 -0.008 0.027
loop_
_geom_bond_atom_site_label_1
_geom_bond_atom_site_label_2
_geom_bond_site_symmetry_1
_geom_bond_site_symmetry_2
Cu1 O1 1_555 1_555
C1 C2 1_555 1_555
C2 C3 1_555 1_555
C3 H1 1_555 1_555
C4 C3 1_555 1_555
C5 C4 1_555 1_555
C6 C1 1_555 1_555
C7 C6 1_555 1_555
H2 C7 1_555 1_555
C8 C7 1_555 1_555
H3 C8 1_555 1_555
C9 C8 1_555 1_555
C10 C5 1_555 1_555
H4 C10 1_555 1_555
C11 C4 1_555 1_555
H5 C11 1_555 1_555
C12 C11 1_555 1_555
H6 C12 1_555 1_555
C13 C12 1_555 1_555
C14 C9 1_555 1_555
H7 C14 1_555 1_555
C15 C14 1_555 1_555
H8 C15 1_555 1_555
C16 C15 1_555 1_555
C17 H9 1_555 1_555
H10 C17 1_555 1_555
C18 C17 1_555 1_555
H11 C18 1_555 1_555
H12 C18 1_555 1_555
H13 C18 1_555 1_555
O1 C13 1_555 1_555
O2 C13 1_555 1_555
O3 C16 1_555 1_555
O4 C16 1_555 1_555
O5 C2 1_555 1_555
O6 Cu1 1_555 1_555
Cu1G O1G 1_555 1_555
Cu1I O2 1_555 1_555
Cu1E O3 1_555 1_555
Cu1L O4 1_555 1_555
Cu1C O3G 1_555 1_555
Cu1J O4G 1_555 1_555
Cu1N O2G 1_555 1_555
C1G C1 1_555 1_555
C2G C1G 1_555 1_555
C3G C2G 1_555 1_555
H1G C3G 1_555 1_555
C4G C3G 1_555 1_555
C5G C4G 1_555 1_555
C6G C1G 1_555 1_555
C7G C6G 1_555 1_555
H2G C7G 1_555 1_555
C8G C7G 1_555 1_555
H3G C8G 1_555 1_555
C9G C8G 1_555 1_555
C10G C5G 1_555 1_555
H4G C10G 1_555 1_555
C11G C4G 1_555 1_555
H5G C11G 1_555 1_555
C12G C11G 1_555 1_555
H6G C12G 1_555 1_555
C13G C12G 1_555 1_555
C14G C9G 1_555 1_555
H7G C14G 1_555 1_555
C15G C14G 1_555 1_555
H8G C15G 1_555 1_555
C16G C15G 1_555 1_555
C17G H9G 1_555 1_555
H10G C17G 1_555 1_555
C18G C17G 1_555 1_555
H11G C18G 1_555 1_555
H12G C18G 1_555 1_555
H13G C18G 1_555 1_555
O1G C13G 1_555 1_555
O2G C13G 1_555 1_555
O2I Cu1 1_555 1_555
O2N Cu1G 1_555 1_555
O3G C16G 1_555 1_555
O3E Cu1 1_555 1_555
O3C Cu1G 1_555 1_555
O4G C16G 1_555 1_555
O4L Cu1 1_555 1_555
O4J Cu1G 1_555 1_555
O5G C2G 1_555 1_555
O6G Cu1G 1_555 1_555
C5 C6 1_555 1_555
C9 C10 1_555 1_555
C17 O5 1_555 1_555
C5G C6G 1_555 1_555
C9G C10G 1_555 1_555
C17G O5G 1_555 1_555

#END
