
#######################################################################
#
#                 Cambridge Crystallographic Data Centre
#                                CCDC 
#
#######################################################################
#
# If this CIF has been generated from an entry in the Cambridge 
# Structural Database, then it will include bibliographic, chemical, 
# crystal, experimental, refinement or atomic coordinate data resulting 
# from the CCDC's data processing and validation procedures.
#
#######################################################################

data_XAHPAZ
_chemical_formula_moiety         '(C38 H40 Cu2 N2 O12)n'
_symmetry_cell_setting           tetragonal
_symmetry_space_group_name_H-M   'I 41 2 2'
_symmetry_Int_Tables_number      98
_space_group_name_Hall           'I 4bw 2bw'
loop_
_symmetry_equiv_pos_site_id
_symmetry_equiv_pos_as_xyz
1 x,y,z
2 1/2-x,1/2-y,1/2+z
3 -y,1/2+x,1/4+z
4 1/2+y,-x,3/4+z
5 1/2-x,y,3/4-z
6 x,1/2-y,1/4-z
7 1/2+y,1/2+x,1/2-z
8 -y,-x,-z
9 1/2+x,1/2+y,1/2+z
10 -x,-y,z
11 1/2-y,x,3/4+z
12 y,1/2-x,1/4+z
13 -x,1/2+y,1/4-z
14 1/2+x,-y,3/4-z
15 y,x,-z
16 1/2-y,1/2-x,1/2-z
_cell_length_a                   15.7125(3)
_cell_length_b                   15.7125(3)
_cell_length_c                   47.3137(14)
_cell_angle_alpha                90
_cell_angle_beta                 90
_cell_angle_gamma                90
_cell_volume                     11680.9
loop_
_atom_site_label
_atom_site_type_symbol
_atom_site_fract_x
_atom_site_fract_y
_atom_site_fract_z
_atom_site_U_iso_or_equiv
_atom_site_thermal_displace_type
O1 O 0.49442(18) 0.62249(15) 0.11468(5) 0.0484 Uani
O2 O 0.40092(17) 0.51743(15) 0.10870(5) 0.0479 Uani
O3 O 0.49499(18) 0.89199(15) 0.07778(5) 0.0450 Uani
C1 C 0.3413(3) 0.5948(2) 0.05890(8) 0.0584 Uani
H1 H 0.3324 0.5366 0.0607 0.0700 Uiso
C2 C 0.3912(3) 0.6382(2) 0.07906(7) 0.0462 Uani
Cu1 Cu 0.56267(2) 0.55583(2) 0.140870(7) 0.0343 Uani
C3 C 0.3704(2) 0.8603(2) 0.05213(7) 0.0410 Uani
C4 C 0.2764(2) 0.7709(2) 0.01153(6) 0.0418 Uani
C5 C 0.3652(2) 0.7710(2) 0.05454(6) 0.0375 Uani
C6 C 0.3149(2) 0.7263(2) 0.03387(6) 0.0383 Uani
C7 C 0.2814(3) 0.8585(3) 0.01087(7) 0.0552 Uani
C8 C 0.3265(3) 0.9021(2) 0.03145(8) 0.0563 Uani
H2 H 0.3270 0.9613 0.0312 0.0680 Uiso
C9 C 0.4202(2) 0.9141(2) 0.07268(6) 0.0383 Uani
C10 C 0.4036(2) 0.7245(2) 0.07680(6) 0.0390 Uani
H3 H 0.4373 0.7526 0.0900 0.0470 Uiso
C11 C 0.3064(3) 0.6376(2) 0.03704(8) 0.0523 Uani
H4 H 0.2757 0.6073 0.0236 0.0630 Uiso
O4 O 0.38259(17) 0.97771(15) 0.08271(5) 0.0475 Uani
C12 C 0.4310(3) 0.5887(2) 0.10266(6) 0.0418 Uani
O5 O 0.2404(3) 0.8977(2) -0.01123(6) 0.0883 Uani
O6 O 0.6639(2) 0.6445(2) 0.14396(8) 0.0853 Uani
C13 C 0.6496(6) 0.7153(5) 0.15545(16) 0.1220 Uani
C14 C 0.2034(9) 0.9841(7) -0.0064(2) 0.0910 Uiso
C15 C 0.1404(14) 1.0059(13) -0.0289(4) 0.1440 Uiso
N1 N 0.7243(11) 0.7639(11) 0.1627(4) 0.1840 Uiso
C16 C 0.7040(15) 0.8487(12) 0.1738(5) 0.1640 Uiso
C17 C 0.680(4) 0.842(3) 0.2052(6) 0.3500 Uiso
C18 C 0.767(4) 0.674(3) 0.2056(8) 0.3600 Uiso
C19 C 0.7903(15) 0.717(2) 0.1776(6) 0.2490 Uiso
O1G O 0.37751(15) 0.50558(18) -0.11468(5) 0.0484 Uani
O2G O 0.48257(15) 0.59908(17) -0.10870(5) 0.0479 Uani
O2I O 0.59908(17) 0.48257(15) 0.10870(5) 0.0479 Uani
O2N O 0.51743(15) 0.40092(17) -0.10870(5) 0.0479 Uani
O3G O 0.10801(15) 0.50501(18) -0.07778(5) 0.0450 Uani
O3E O 0.49499(18) 0.60801(15) 0.17222(5) 0.0450 Uani
O3C O 0.39199(15) 0.50501(18) -0.17222(5) 0.0450 Uani
C1G C 0.4052(2) 0.6587(3) -0.05890(8) 0.0584 Uani
H1G H 0.4634 0.6676 -0.0607 0.0700 Uiso
C2G C 0.3618(2) 0.6088(3) -0.07906(7) 0.0462 Uani
Cu1G Cu 0.44417(2) 0.43733(2) -0.140870(7) 0.0343 Uani
Cu1I Cu 0.43733(2) 0.44417(2) 0.140870(7) 0.0343 Uani
Cu1E Cu 0.56267(2) 0.94417(2) 0.109130(7) 0.0343 Uani
Cu1L Cu 0.43733(2) 1.05583(2) 0.109130(7) 0.0343 Uani
Cu1C Cu 0.05583(2) 0.43733(2) -0.109130(7) 0.0343 Uani
Cu1J Cu -0.05583(2) 0.56267(2) -0.109130(7) 0.0343 Uani
Cu1N Cu 0.55583(2) 0.56267(2) -0.140870(7) 0.0343 Uani
C3G C 0.1397(2) 0.6296(2) -0.05213(7) 0.0410 Uani
C4G C 0.2291(2) 0.7236(2) -0.01153(6) 0.0418 Uani
C5G C 0.2290(2) 0.6348(2) -0.05454(6) 0.0375 Uani
C6G C 0.2737(2) 0.6851(2) -0.03387(6) 0.0383 Uani
C7G C 0.1415(3) 0.7186(3) -0.01087(7) 0.0552 Uani
C8G C 0.0979(2) 0.6735(3) -0.03145(8) 0.0563 Uani
H2G H 0.0387 0.6730 -0.0312 0.0680 Uiso
C9G C 0.0859(2) 0.5798(2) -0.07268(6) 0.0383 Uani
C10G C 0.2755(2) 0.5964(2) -0.07680(6) 0.0390 Uani
H3G H 0.2474 0.5627 -0.0900 0.0470 Uiso
C11G C 0.3624(2) 0.6936(3) -0.03704(8) 0.0523 Uani
H4G H 0.3927 0.7243 -0.0236 0.0630 Uiso
O4G O 0.02229(15) 0.61741(17) -0.08271(5) 0.0475 Uani
O4L O 0.61741(17) 0.47771(15) 0.16729(5) 0.0475 Uani
O4J O 0.52229(15) 0.38259(17) -0.16729(5) 0.0475 Uani
C12G C 0.4113(2) 0.5690(3) -0.10266(6) 0.0418 Uani
O5G O 0.1023(2) 0.7596(3) 0.01123(6) 0.0883 Uani
O6G O 0.3555(2) 0.3361(2) -0.14396(8) 0.0853 Uani
C13G C 0.2847(5) 0.3504(6) -0.15545(16) 0.1220 Uani
C14G C 0.0159(7) 0.7966(9) 0.0064(2) 0.0910 Uiso
C15G C -0.0059(13) 0.8596(14) 0.0289(4) 0.1440 Uiso
N1G N 0.2361(11) 0.2757(11) -0.1627(4) 0.1840 Uiso
C16G C 0.1513(12) 0.2960(15) -0.1738(5) 0.1640 Uiso
C17G C 0.158(3) 0.320(4) -0.2052(6) 0.3500 Uiso
C18G C 0.326(3) 0.233(4) -0.2056(8) 0.3600 Uiso
C19G C 0.283(2) 0.2097(15) -0.1776(6) 0.2490 Uiso
loop_
_atom_site_aniso_label
_atom_site_aniso_U_11
_atom_site_aniso_U_22
_atom_site_aniso_U_33
_atom_site_aniso_U_23
_atom_site_aniso_U_13
_atom_site_aniso_U_12
O1 0.0674(16) 0.0353(12) 0.0424(13) 0.0009(11) -0.0171(13) 0.0020(12)
O2 0.0643(16) 0.0344(13) 0.0449(13) 0.0041(11) -0.0157(12) -0.0015(12)
O3 0.0559(15) 0.0405(13) 0.0386(12) -0.0072(11) -0.0059(12) 0.0002(12)
C1 0.088(3) 0.0312(18) 0.056(2) -0.0019(17) -0.021(2) -0.0063(19)
C2 0.065(2) 0.0382(19) 0.0353(17) -0.0050(14) -0.0131(16) 0.0059(18)
Cu1 0.0444 0.0283 0.0302 0.00177 -0.00183 -8e-05
C3 0.056(2) 0.0341(17) 0.0330(15) -0.0018(14) -0.0106(16) -0.0008(15)
C4 0.049(2) 0.045(2) 0.0315(15) -0.0104(15) -0.0048(15) 0.0071(15)
C5 0.0501(19) 0.0363(17) 0.0262(14) -0.0048(13) -0.0047(14) 0.0014(15)
C6 0.050(2) 0.0376(17) 0.0272(15) -0.0068(12) -0.0092(14) 0.0066(16)
C7 0.082(3) 0.048(2) 0.0357(17) -0.0021(16) -0.0220(18) 0.008(2)
C8 0.087(3) 0.0359(19) 0.046(2) 0.0023(16) -0.024(2) 0.006(2)
C9 0.057(2) 0.0316(17) 0.0264(14) 0.0039(13) -0.0048(15) -0.0044(14)
C10 0.054(2) 0.0356(18) 0.0273(14) -0.0016(13) -0.0108(14) 0.0021(14)
C11 0.076(3) 0.0389(19) 0.0421(19) -0.0057(16) -0.0244(19) -0.0040(19)
O4 0.0552(15) 0.0389(14) 0.0483(14) -0.0120(11) -0.0113(12) -0.0032(12)
C12 0.060(2) 0.0333(17) 0.0320(16) -0.0031(13) -0.0089(16) 0.0057(17)
O5 0.149(3) 0.0529(17) 0.0630(18) 0.0032(15) -0.063(2) 0.014(2)
O6 0.071 0.0579 0.127 0.016 -0.013 -0.0271
C13 0.154 0.095 0.117 0.011 -0.047 -0.049
O1G 0.0353 0.0674 0.0424 -0.0171 0.0009 0.002
O2G 0.0344 0.0643 0.0449 -0.0157 0.0041 -0.0015
O2I 0.0643 0.0344 0.0449 -0.0041 0.0157 -0.0015
O2N 0.0344 0.0643 0.0449 0.0157 -0.0041 -0.0015
O3G 0.0405 0.0559 0.0386 -0.0059 -0.0072 0.0002
O3E 0.0559 0.0405 0.0386 -0.0072 0.0059 -0.0002
O3C 0.0405 0.0559 0.0386 0.0059 -0.0072 -0.0002
C1G 0.0312 0.088 0.056 -0.021 -0.0019 -0.0063
C2G 0.0382 0.065 0.0353 -0.0131 -0.005 0.0059
Cu1G 0.0283 0.0444 0.0302 -0.00183 0.00177 -8e-05
Cu1I 0.0444 0.0283 0.0302 -0.00177 0.00183 -8e-05
Cu1E 0.0444 0.0283 0.0302 0.00177 0.00183 8e-05
Cu1L 0.0444(2) 0.0283(2) 0.0302(2) -0.00177(15) -0.00183(16) 0.00008(17)
Cu1C 0.0283 0.0444 0.0302 0.00183 0.00177 8e-05
Cu1J 0.0283 0.0444 0.0302 -0.00183 -0.00177 8e-05
Cu1N 0.0283 0.0444 0.0302 0.00183 -0.00177 -8e-05
C3G 0.0341 0.056 0.033 -0.0106 -0.0018 -0.0008
C4G 0.045 0.049 0.0315 -0.0048 -0.0104 0.0071
C5G 0.0363 0.0501 0.0262 -0.0047 -0.0048 0.0014
C6G 0.0376 0.05 0.0272 -0.0092 -0.0068 0.0066
C7G 0.048 0.082 0.0357 -0.022 -0.0021 0.008
C8G 0.0359 0.087 0.046 -0.024 0.0023 0.006
C9G 0.0316 0.057 0.0264 -0.0048 0.0039 -0.0044
C10G 0.0356 0.054 0.0273 -0.0108 -0.0016 0.0021
C11G 0.0389 0.076 0.0421 -0.0244 -0.0057 -0.004
O4G 0.0389 0.0552 0.0483 -0.0113 -0.012 -0.0032
O4L 0.0552 0.0389 0.0483 0.012 -0.0113 0.0032
O4J 0.0389 0.0552 0.0483 -0.0113 0.012 0.0032
C12G 0.0333 0.06 0.032 -0.0089 -0.0031 0.0057
O5G 0.0529 0.149 0.063 -0.063 0.0032 0.014
O6G 0.0579 0.071 0.127 -0.013 0.016 -0.0271
C13G 0.095 0.154 0.117 -0.047 0.011 -0.049
loop_
_geom_bond_atom_site_label_1
_geom_bond_atom_site_label_2
_geom_bond_site_symmetry_1
_geom_bond_site_symmetry_2
O1 Cu1 1_555 1_555
O2 C12 1_555 1_555
O3 C9 1_555 1_555
C1 H1 1_555 1_555
C2 C1 1_555 1_555
Cu1 O6 1_555 1_555
C3 C5 1_555 1_555
C4 C6 1_555 1_555
C5 C6 1_555 1_555
C6 C11 1_555 1_555
C7 C4 1_555 1_555
C8 C3 1_555 1_555
H2 C8 1_555 1_555
C9 C3 1_555 1_555
C10 C2 1_555 1_555
H3 C10 1_555 1_555
C11 C1 1_555 1_555
H4 C11 1_555 1_555
O4 C9 1_555 1_555
C12 O1 1_555 1_555
O5 C7 1_555 1_555
O6 C13 1_555 1_555
C13 N1 1_555 1_555
C14 O5 1_555 1_555
C15 C14 1_555 1_555
N1 C16 1_555 1_555
C16 C17 1_555 1_555
C18 C19 1_555 1_555
C19 N1 1_555 1_555
O1G Cu1G 1_555 1_555
O2G Cu1N 1_555 1_555
O2I Cu1 1_555 1_555
O2N Cu1G 1_555 1_555
O3G Cu1C 1_555 1_555
O3E Cu1 1_555 1_555
O3C Cu1G 1_555 1_555
C1G H1G 1_555 1_555
C2G C1G 1_555 1_555
Cu1G O4J 1_555 1_555
Cu1I O2 1_555 1_555
Cu1E O3 1_555 1_555
Cu1L O4 1_555 1_555
Cu1J O4G 1_555 1_555
C3G C5G 1_555 1_555
C4G C4 1_555 1_555
C5G C6G 1_555 1_555
C6G C4G 1_555 1_555
C7G C4G 1_555 1_555
C8G C3G 1_555 1_555
H2G C8G 1_555 1_555
C9G O3G 1_555 1_555
C10G C2G 1_555 1_555
H3G C10G 1_555 1_555
C11G C1G 1_555 1_555
H4G C11G 1_555 1_555
O4G C9G 1_555 1_555
O4L Cu1 1_555 1_555
C12G O1G 1_555 1_555
O5G C7G 1_555 1_555
O6G Cu1G 1_555 1_555
C13G O6G 1_555 1_555
C14G O5G 1_555 1_555
C15G C14G 1_555 1_555
N1G C13G 1_555 1_555
C16G N1G 1_555 1_555
C17G C16G 1_555 1_555
C18G C19G 1_555 1_555
C19G N1G 1_555 1_555
C2 C12 1_555 1_555
C5 C10 1_555 1_555
C7 C8 1_555 1_555
O2G C12G 1_555 1_555
C2G C12G 1_555 1_555
C3G C9G 1_555 1_555
C5G C10G 1_555 1_555
C6G C11G 1_555 1_555
C7G C8G 1_555 1_555

#END
