
#######################################################################
#
#                 Cambridge Crystallographic Data Centre
#                                CCDC 
#
#######################################################################
#
# If this CIF has been generated from an entry in the Cambridge 
# Structural Database, then it will include bibliographic, chemical, 
# crystal, experimental, refinement or atomic coordinate data resulting 
# from the CCDC's data processing and validation procedures.
#
#######################################################################

data_XAHPON
_chemical_formula_moiety         '(C48 H30 Cu2 O12)n'
_symmetry_cell_setting           tetragonal
_symmetry_space_group_name_H-M   'I 41 2 2'
_symmetry_Int_Tables_number      98
_space_group_name_Hall           'I 4bw 2bw'
loop_
_symmetry_equiv_pos_site_id
_symmetry_equiv_pos_as_xyz
1 x,y,z
2 1/2-x,1/2-y,1/2+z
3 -y,1/2+x,1/4+z
4 1/2+y,-x,3/4+z
5 1/2-x,y,3/4-z
6 x,1/2-y,1/4-z
7 1/2+y,1/2+x,1/2-z
8 -y,-x,-z
9 1/2+x,1/2+y,1/2+z
10 -x,-y,z
11 1/2-y,x,3/4+z
12 y,1/2-x,1/4+z
13 -x,1/2+y,1/4-z
14 1/2+x,-y,3/4-z
15 y,x,-z
16 1/2-y,1/2-x,1/2-z
_cell_length_a                   23.849(6)
_cell_length_b                   23.849(6)
_cell_length_c                   73.11(2)
_cell_angle_alpha                90
_cell_angle_beta                 90
_cell_angle_gamma                90
_cell_volume                     41583.1
loop_
_atom_site_label
_atom_site_type_symbol
_atom_site_fract_x
_atom_site_fract_y
_atom_site_fract_z
_atom_site_U_iso_or_equiv
_atom_site_thermal_displace_type
O1 O 0.0038(5) 0.9273(5) 0.15476(18) 0.1887 Uani
C1 C 0.0499(7) 0.9409(8) 0.1605(2) 0.1787 Uani
C2 C 0.1315(4) 0.6423(4) 0.18306(11) 0.2190 Uani
C3 C 0.1578(3) 0.5943(5) 0.17652(14) 0.2297 Uani
H1 H 0.1911 0.5816 0.1820 0.2750 Uiso
C4 C 0.1348(5) 0.5651(3) 0.16187(13) 0.2070 Uani
H2 H 0.1526 0.5326 0.1574 0.2480 Uiso
C5 C 0.0856(5) 0.5839(4) 0.15377(10) 0.1917 Uani
C6 C 0.0593(3) 0.6318(5) 0.16031(12) 0.2117 Uani
H3 H 0.0260 0.6445 0.1548 0.2540 Uiso
C7 C 0.0822(5) 0.6610(3) 0.17496(13) 0.1983 Uani
H4 H 0.0645 0.6935 0.1794 0.2380 Uiso
Cu1 Cu -0.03996(10) 0.96243(9) 0.13565(2) 0.1719 Uani
C8 C 0.1406(4) 0.8544(4) 0.20142(9) 0.1983 Uani
C9 C 0.1669(3) 0.8989(5) 0.19262(13) 0.2280 Uani
H5 H 0.2038 0.9087 0.1958 0.2730 Uiso
C10 C 0.1386(5) 0.9288(3) 0.17916(12) 0.1943 Uani
H6 H 0.1564 0.9588 0.1732 0.2330 Uiso
C11 C 0.0840(4) 0.9142(4) 0.17451(9) 0.1767 Uani
C12 C 0.0577(3) 0.8698(4) 0.18331(13) 0.1787 Uani
H7 H 0.0208 0.8599 0.1802 0.2140 Uiso
C13 C 0.0860(4) 0.8399(3) 0.19677(12) 0.1913 Uani
H8 H 0.0682 0.8098 0.2027 0.2290 Uiso
O2 O 0.0691(5) 0.5068(4) 0.13368(13) 0.2140 Uani
C14 C 0.1711(4) 0.8194(5) 0.21465(12) 0.2163 Uani
C15 C 0.1757(4) 0.7613(5) 0.21396(12) 0.2023 Uani
C16 C 0.2039(5) 0.7327(3) 0.22773(16) 0.2097 Uani
C17 C 0.2276(4) 0.7622(5) 0.24220(10) 0.1837 Uani
C18 C 0.2230(4) 0.8203(5) 0.24289(11) 0.2483 Uani
C19 C 0.1947(5) 0.8489(3) 0.22912(16) 0.2533 Uani
H9 H 0.1916 0.8881 0.2296 0.3020 Uiso
O3 O 0.0045(5) 0.5740(4) 0.13266(14) 0.2120 Uani
O4 O -0.1022(3) 0.9003(3) 0.13517(9) 0.2320 Uani
C20 C 0.1566(6) 0.6730(6) 0.19854(17) 0.2130 Uani
C21 C 0.1847(4) 0.6429(5) 0.21180(15) 0.2390 Uani
H10 H 0.1878 0.6037 0.2112 0.2860 Uiso
C22 C 0.0576(7) 0.5531(8) 0.1393(2) 0.2010 Uani
C23 C 0.2082(5) 0.6730(5) 0.22611(16) 0.2287 Uani
H11 H 0.2278 0.6532 0.2352 0.2740 Uiso
C24 C 0.1515(7) 0.7311(5) 0.19956(16) 0.2107 Uani
H12 H 0.1315 0.7504 0.1904 0.2530 Uiso
O5 O 0.0764(4) 0.9882(4) 0.15319(13) 0.1923 Uani
O6 O 0.2477(6) 0.8476(3) 0.25670(13) 0.3187 Uani
H13 H 0.2663 0.8251 0.2629 0.4760 Uiso
O1F O 0.4273(5) 0.5038(5) 0.34524(18) 0.1887 Uani
C1F C 0.4409(8) 0.5499(7) 0.3395(2) 0.1787 Uani
C2F C 0.1423(4) 0.6315(4) 0.31694(11) 0.2190 Uani
C3F C 0.0943(5) 0.6578(3) 0.32348(14) 0.2297 Uani
H1F H 0.0816 0.6911 0.3180 0.2750 Uiso
C4F C 0.0651(3) 0.6348(5) 0.33813(13) 0.2070 Uani
H2F H 0.0326 0.6526 0.3426 0.2480 Uiso
C5F C 0.0839(4) 0.5856(5) 0.34623(10) 0.1917 Uani
C6F C 0.1318(5) 0.5593(3) 0.33969(12) 0.2117 Uani
H3F H 0.1445 0.5260 0.3452 0.2540 Uiso
C7F C 0.1610(3) 0.5822(5) 0.32504(13) 0.1983 Uani
H4F H 0.1935 0.5645 0.3206 0.2380 Uiso
Cu1F Cu 0.46243(9) 0.46004(10) 0.36435(2) 0.1719 Uani
Cu1L Cu 0.03996(10) 0.46243(9) 0.11435(2) 0.1719 Uani
Cu1E Cu -0.03996(10) 0.53757(9) 0.11435(2) 0.1719 Uani
Cu1I Cu 0.03996(10) 1.03757(9) 0.13565(2) 0.1719 Uani
Cu1O Cu 0.53757(9) 0.53996(10) 0.36435(2) 0.1719 Uani
Cu1K Cu -0.03757(9) 0.53996(10) 0.38565(2) 0.1719 Uani
Cu1B Cu 0.03757(9) 0.46004(10) 0.38565(2) 0.1719 Uani
C8F C 0.3544(4) 0.6406(4) 0.29858(9) 0.1983 Uani
C9F C 0.3989(5) 0.6669(3) 0.30738(13) 0.2280 Uani
H5F H 0.4087 0.7038 0.3042 0.2730 Uiso
C10F C 0.4288(3) 0.6386(5) 0.32084(12) 0.1943 Uani
H6F H 0.4588 0.6564 0.3268 0.2330 Uiso
C11F C 0.4142(4) 0.5840(4) 0.32549(9) 0.1767 Uani
C12F C 0.3698(4) 0.5577(3) 0.31669(13) 0.1787 Uani
H7F H 0.3599 0.5208 0.3198 0.2140 Uiso
C13F C 0.3399(3) 0.5860(4) 0.30323(12) 0.1913 Uani
H8F H 0.3098 0.5682 0.2973 0.2290 Uiso
O2F O 0.0068(4) 0.5691(5) 0.36632(13) 0.2140 Uani
O2L O -0.0691(5) 1.0068(4) 0.11632(13) 0.2140 Uani
O2K O 0.5068(4) 0.4309(5) 0.38368(13) 0.2140 Uani
C14F C 0.3194(5) 0.6711(4) 0.28535(12) 0.2163 Uani
C15F C 0.2613(5) 0.6757(4) 0.28604(12) 0.2023 Uani
C16F C 0.2327(3) 0.7039(5) 0.27227(16) 0.2097 Uani
C17F C 0.2622(5) 0.7276(4) 0.25780(10) 0.1837 Uani
C18F C 0.3203(5) 0.7230(4) 0.25711(11) 0.2483 Uani
C19F C 0.3489(3) 0.6947(5) 0.27088(16) 0.2533 Uani
H9F H 0.3881 0.6916 0.2704 0.3020 Uiso
O3F O 0.0740(4) 0.5045(5) 0.36734(14) 0.2120 Uani
O3E O 0.0045(5) 0.9260(4) 0.11734(14) 0.2120 Uani
O3B O 0.4260(4) 0.5045(5) 0.38266(14) 0.2120 Uani
O4F O 0.4003(3) 0.3978(3) 0.36483(9) 0.2320 Uani
C20F C 0.1730(6) 0.6566(6) 0.30146(17) 0.2130 Uani
C21F C 0.1429(5) 0.6847(4) 0.28820(15) 0.2390 Uani
H10F H 0.1037 0.6878 0.2888 0.2860 Uiso
C22F C 0.0531(8) 0.5576(7) 0.3607(2) 0.2010 Uani
C23F C 0.1730(5) 0.7082(5) 0.27389(16) 0.2287 Uani
H11F H 0.1532 0.7278 0.2648 0.2740 Uiso
C24F C 0.2311(5) 0.6515(7) 0.30044(16) 0.2107 Uani
H12F H 0.2504 0.6315 0.3096 0.2530 Uiso
O5F O 0.4882(4) 0.5764(4) 0.34681(13) 0.1923 Uani
O5I O -0.0764(4) 1.0118(4) 0.15319(13) 0.1923 Uani
O5O O 0.5118(4) 0.4236(4) 0.34681(13) 0.1923 Uani
O6F O 0.3476(3) 0.7477(6) 0.24330(13) 0.3187 Uani
H13F H 0.3251 0.7663 0.2371 0.4760 Uiso
loop_
_atom_site_aniso_label
_atom_site_aniso_U_11
_atom_site_aniso_U_22
_atom_site_aniso_U_33
_atom_site_aniso_U_23
_atom_site_aniso_U_13
_atom_site_aniso_U_12
O1 0.230(12) 0.241(9) 0.095(8) 0.037(7) -0.019(9) 0.010(8)
C1 0.18(2) 0.26(2) 0.096(19) 0.048(15) 0.039(14) 0.020(13)
C2 0.32(2) 0.219(16) 0.118(16) 0.021(10) -0.077(12) 0.017(13)
C3 0.258(14) 0.32(2) 0.111(16) -0.020(10) -0.034(10) 0.041(13)
C4 0.291(19) 0.216(13) 0.114(16) 0.020(9) -0.025(10) -0.015(12)
C5 0.213(19) 0.142(17) 0.220(16) -0.030(12) -0.034(11) -0.096(10)
C6 0.418(17) 0.183(16) 0.034(12) 0.024(7) -0.087(10) 0.039(12)
C7 0.292(19) 0.240(14) 0.063(14) -0.013(10) -0.041(9) 0.024(11)
Cu1 0.242 0.164 0.1096 -0.01 0.009 0.0088
C8 0.30(2) 0.212(16) 0.083(12) 0.028(9) -0.052(14) -0.046(12)
C9 0.264(12) 0.31(2) 0.110(17) 0.084(10) -0.050(10) -0.061(12)
C10 0.287(17) 0.213(14) 0.083(13) 0.026(8) -0.063(10) -0.076(13)
C11 0.235(19) 0.151(18) 0.144(17) 0.015(9) -0.046(13) -0.033(11)
C12 0.181(11) 0.168(16) 0.187(18) 0.041(9) 0.031(10) 0.030(9)
C13 0.254(17) 0.188(13) 0.132(17) 0.031(9) -0.009(10) -0.012(12)
O2 0.357(11) 0.179(9) 0.106(8) -0.008(8) -0.061(8) -0.032(8)
C14 0.326(17) 0.232(11) 0.091(15) 0.032(10) -0.069(11) -0.056(16)
C15 0.226(18) 0.228(9) 0.153(19) 0.051(11) -0.067(13) -0.059(15)
C16 0.31(2) 0.242(11) 0.077(16) -0.043(11) -0.025(11) 0.057(17)
C17 0.268(17) 0.261(11) 0.022(13) 0.035(7) 0.034(8) -0.065(12)
C18 0.35(3) 0.255(13) 0.14(2) 0.003(13) -0.114(15) -0.084(19)
C19 0.37(3) 0.274(11) 0.116(18) 0.042(10) -0.098(12) -0.085(14)
O3 0.204(10) 0.237(9) 0.195(10) -0.082(9) 0.003(9) -0.067(8)
O4 0.314 0.19 0.192 0.001 -0.041 -0.036
C20 0.294(19) 0.231(13) 0.114(17) 0.030(11) -0.061(10) -0.025(18)
C21 0.38(2) 0.239(12) 0.098(16) -0.003(10) -0.085(12) -0.006(13)
C22 0.137(17) 0.196(19) 0.27(2) -0.081(15) 0.024(12) -0.129(11)
C23 0.317(19) 0.243(11) 0.126(14) -0.014(11) -0.088(12) 0.057(19)
C24 0.253(18) 0.245(12) 0.134(14) 0.001(11) -0.044(10) -0.019(17)
O5 0.237(9) 0.178(9) 0.162(9) 0.022(6) -0.010(8) 0.038(6)
O6 0.52(2) 0.280(9) 0.156(11) 0.028(8) -0.183(9) -0.083(11)
O1F 0.241 0.23 0.095 0.019 -0.037 0.01
C1F 0.26 0.18 0.096 -0.039 -0.048 0.02
C2F 0.219 0.32 0.118 0.077 -0.021 0.017
C3F 0.32 0.258 0.111 0.034 0.02 0.041
C4F 0.216 0.291 0.114 0.025 -0.02 -0.015
C5F 0.142 0.213 0.22 0.034 0.03 -0.096
C6F 0.183 0.418 0.034 0.087 -0.024 0.039
C7F 0.24 0.292 0.063 0.041 0.013 0.024
Cu1F 0.164 0.242 0.1096 -0.009 0.01 0.0088
Cu1L 0.242 0.164 0.1096 0.01 0.009 -0.0088
Cu1E 0.242 0.164 0.1096 -0.01 -0.009 -0.0088
Cu1I 0.242(3) 0.164(2) 0.1096(15) 0.010(2) -0.009(2) 0.0088(15)
Cu1O 0.164 0.242 0.1096 0.009 -0.01 0.0088
Cu1K 0.164 0.242 0.1096 -0.009 -0.01 -0.0088
Cu1B 0.164 0.242 0.1096 0.009 0.01 -0.0088
C8F 0.212 0.3 0.083 0.052 -0.028 -0.046
C9F 0.31 0.264 0.11 0.05 -0.084 -0.061
C10F 0.213 0.287 0.083 0.063 -0.026 -0.076
C11F 0.151 0.235 0.144 0.046 -0.015 -0.033
C12F 0.168 0.181 0.187 -0.031 -0.041 0.03
C13F 0.188 0.254 0.132 0.009 -0.031 -0.012
O2F 0.179 0.357 0.106 0.061 0.008 -0.032
O2L 0.357 0.179 0.106 0.008 -0.061 0.032
O2K 0.179 0.357 0.106 0.061 -0.008 0.032
C14F 0.232 0.326 0.091 0.069 -0.032 -0.056
C15F 0.228 0.226 0.153 0.067 -0.051 -0.059
C16F 0.242 0.31 0.077 0.025 0.043 0.057
C17F 0.261 0.268 0.022 -0.034 -0.035 -0.065
C18F 0.255 0.35 0.14 0.114 -0.003 -0.084
C19F 0.274 0.37 0.116 0.098 -0.042 -0.085
O3F 0.237 0.204 0.195 -0.003 0.082 -0.067
O3E 0.204 0.237 0.195 -0.082 -0.003 0.067
O3B 0.237 0.204 0.195 0.003 0.082 0.067
O4F 0.19 0.314 0.192 0.041 -0.001 -0.036
C20F 0.231 0.294 0.114 0.061 -0.03 -0.025
C21F 0.239 0.38 0.098 0.085 0.003 -0.006
C22F 0.196 0.137 0.27 -0.024 0.081 -0.129
C23F 0.243 0.317 0.126 0.088 0.014 0.057
C24F 0.245 0.253 0.134 0.044 -0.001 -0.019
O5F 0.178 0.237 0.162 0.01 -0.022 0.038
O5I 0.237 0.178 0.162 -0.022 0.01 0.038
O5O 0.178 0.237 0.162 -0.01 0.022 0.038
O6F 0.28 0.52 0.156 0.183 -0.028 -0.083
loop_
_geom_bond_atom_site_label_1
_geom_bond_atom_site_label_2
_geom_bond_site_symmetry_1
_geom_bond_site_symmetry_2
O1 C1 1_555 1_555
C1 C11 1_555 1_555
C2 C3 1_555 1_555
C3 H1 1_555 1_555
C4 C3 1_555 1_555
H2 C4 1_555 1_555
C5 C4 1_555 1_555
C6 C5 1_555 1_555
H3 C6 1_555 1_555
C7 C2 1_555 1_555
H4 C7 1_555 1_555
Cu1 O1 1_555 1_555
C8 C9 1_555 1_555
C9 H5 1_555 1_555
C10 C9 1_555 1_555
H6 C10 1_555 1_555
C11 C10 1_555 1_555
C12 C11 1_555 1_555
H7 C12 1_555 1_555
C13 C8 1_555 1_555
H8 C13 1_555 1_555
O2 C22 1_555 1_555
C14 C8 1_555 1_555
C15 C14 1_555 1_555
C16 C15 1_555 1_555
C17 C16 1_555 1_555
C18 C17 1_555 1_555
C19 C14 1_555 1_555
H9 C19 1_555 1_555
O3 C22 1_555 1_555
O4 Cu1 1_555 1_555
C20 C2 1_555 1_555
C21 C20 1_555 1_555
H10 C21 1_555 1_555
C22 C5 1_555 1_555
C23 C16 1_555 1_555
H11 C23 1_555 1_555
C24 C15 1_555 1_555
H12 C24 1_555 1_555
O5 C1 1_555 1_555
O6 C18 1_555 1_555
H13 O6 1_555 1_555
O1F C1F 1_555 1_555
C1F C11F 1_555 1_555
C2F C3F 1_555 1_555
C3F H1F 1_555 1_555
C4F C3F 1_555 1_555
H2F C4F 1_555 1_555
C5F C4F 1_555 1_555
C6F C5F 1_555 1_555
H3F C6F 1_555 1_555
C7F C2F 1_555 1_555
H4F C7F 1_555 1_555
Cu1F O1F 1_555 1_555
Cu1L O2 1_555 1_555
Cu1E O3 1_555 1_555
Cu1I O5 1_555 1_555
Cu1O O5F 1_555 1_555
Cu1K O2F 1_555 1_555
Cu1B O3F 1_555 1_555
C8F C9F 1_555 1_555
C9F H5F 1_555 1_555
C10F C9F 1_555 1_555
H6F C10F 1_555 1_555
C11F C10F 1_555 1_555
C12F C11F 1_555 1_555
H7F C12F 1_555 1_555
C13F C8F 1_555 1_555
H8F C13F 1_555 1_555
O2F C22F 1_555 1_555
O2L Cu1 1_555 1_555
O2K Cu1F 1_555 1_555
C14F C8F 1_555 1_555
C15F C14F 1_555 1_555
C16F C15F 1_555 1_555
C17F C17 1_555 1_555
C18F C17F 1_555 1_555
C19F C14F 1_555 1_555
H9F C19F 1_555 1_555
O3F C22F 1_555 1_555
O3E Cu1 1_555 1_555
O3B Cu1F 1_555 1_555
O4F Cu1F 1_555 1_555
C20F C2F 1_555 1_555
C21F C20F 1_555 1_555
H10F C21F 1_555 1_555
C22F C5F 1_555 1_555
C23F C16F 1_555 1_555
H11F C23F 1_555 1_555
C24F C15F 1_555 1_555
H12F C24F 1_555 1_555
O5F C1F 1_555 1_555
O5I Cu1 1_555 1_555
O5O Cu1F 1_555 1_555
O6F C18F 1_555 1_555
H13F O6F 1_555 1_555
C6 C7 1_555 1_555
C12 C13 1_555 1_555
C18 C19 1_555 1_555
C20 C24 1_555 1_555
C21 C23 1_555 1_555
C6F C7F 1_555 1_555
C12F C13F 1_555 1_555
C16F C17F 1_555 1_555
C18F C19F 1_555 1_555
C20F C24F 1_555 1_555
C21F C23F 1_555 1_555

#END
