
#######################################################################
#
#                 Cambridge Crystallographic Data Centre
#                                CCDC 
#
#######################################################################
#
# If this CIF has been generated from an entry in the Cambridge 
# Structural Database, then it will include bibliographic, chemical, 
# crystal, experimental, refinement or atomic coordinate data resulting 
# from the CCDC's data processing and validation procedures.
#
#######################################################################

data_XAHQAA
_chemical_formula_moiety         '(C56 H38 Cu2 O12)n'
_symmetry_cell_setting           tetragonal
_symmetry_space_group_name_H-M   'I 41 2 2'
_symmetry_Int_Tables_number      98
_space_group_name_Hall           'I 4bw 2bw'
loop_
_symmetry_equiv_pos_site_id
_symmetry_equiv_pos_as_xyz
1 x,y,z
2 1/2-x,1/2-y,1/2+z
3 -y,1/2+x,1/4+z
4 1/2+y,-x,3/4+z
5 1/2-x,y,3/4-z
6 x,1/2-y,1/4-z
7 1/2+y,1/2+x,1/2-z
8 -y,-x,-z
9 1/2+x,1/2+y,1/2+z
10 -x,-y,z
11 1/2-y,x,3/4+z
12 y,1/2-x,1/4+z
13 -x,1/2+y,1/4-z
14 1/2+x,-y,3/4-z
15 y,x,-z
16 1/2-y,1/2-x,1/2-z
_cell_length_a                   30.7816(18)
_cell_length_b                   30.7816(18)
_cell_length_c                   81.603(5)
_cell_angle_alpha                90
_cell_angle_beta                 90
_cell_angle_gamma                90
_cell_volume                     77319.4
loop_
_atom_site_label
_atom_site_type_symbol
_atom_site_fract_x
_atom_site_fract_y
_atom_site_fract_z
_atom_site_U_iso_or_equiv
_atom_site_thermal_displace_type
Cu1 Cu 1.0271(3) 0.4716(2) 0.11063(11) 0.4757 Uani
C1 C 0.8849(6) 0.3821(6) 0.05326(15) 0.5100 Uani
C2 C 0.9236(7) 0.3655(4) 0.0593(2) 0.4933 Uani
H1 H 0.9335 0.3385 0.0558 0.5940 Uiso
C3 C 0.9476(4) 0.3891(6) 0.0707(2) 0.5000 Uani
H2 H 0.9735 0.3779 0.0748 0.6020 Uiso
C4 C 0.9328(6) 0.4294(6) 0.07597(14) 0.4967 Uani
C5 C 0.8941(7) 0.4461(4) 0.0699(2) 0.5267 Uani
H3 H 0.8842 0.4731 0.0734 0.6290 Uiso
C6 C 0.8701(5) 0.4225(6) 0.0585(2) 0.5233 Uani
H4 H 0.8442 0.4336 0.0544 0.6270 Uiso
C7 C 0.9600(7) 0.4565(7) 0.0886(2) 0.4733 Uani
C8 C 0.8894(6) 0.1023(6) 0.07931(14) 0.5300 Uani
C9 C 0.9230(7) 0.1254(3) 0.0866(2) 0.5250 Uani
H5 H 0.9298 0.1531 0.0829 0.6300 Uiso
C10 C 0.9464(5) 0.1071(6) 0.0994(2) 0.5033 Uani
H6 H 0.9689 0.1226 0.1043 0.6020 Uiso
C11 C 0.9362(6) 0.0657(6) 0.10496(15) 0.4633 Uani
C12 C 0.9026(7) 0.0425(4) 0.0977(2) 0.5067 Uani
H7 H 0.8957 0.0148 0.1014 0.6100 Uiso
C13 C 0.8792(5) 0.0608(6) 0.0849(2) 0.5167 Uani
H8 H 0.8567 0.0453 0.0800 0.6180 Uiso
C14 C 0.9583(8) 0.0431(9) 0.1183(3) 0.4633 Uani
C15 C 0.7848(5) 0.2392(5) 0.00701(18) 0.4780 Uani
C16 C 0.7894(5) 0.2837(6) 0.00477(16) 0.5033 Uani
C17 C 0.8146(5) 0.3079(3) 0.0156(2) 0.4820 Uani
H9 H 0.8177 0.3376 0.0141 0.5780 Uiso
C18 C 0.8353(4) 0.2874(5) 0.02862(16) 0.4817 Uani
C19 C 0.8307(5) 0.2429(5) 0.03085(16) 0.4850 Uani
C20 C 0.8055(5) 0.2188(3) 0.0201(2) 0.4807 Uani
C21 C 0.8513(6) 0.2231(6) 0.0444(2) 0.5010 Uani
H10 H 0.8676 0.2402 0.0515 0.6030 Uiso
C22 C 0.8478(5) 0.1783(6) 0.0474(2) 0.5137 Uani
C23 C 0.8228(6) 0.1542(5) 0.0368(2) 0.5150 Uani
H11 H 0.8196 0.1245 0.0386 0.6150 Uiso
C24 C 0.8016(7) 0.1744(5) 0.0231(3) 0.4877 Uani
H12 H 0.7849 0.1574 0.0160 0.5860 Uiso
C25 C 0.8630(6) 0.3125(6) 0.0404(2) 0.4880 Uani
H13 H 0.8839 0.2984 0.0467 0.5890 Uiso
C26 C 0.8569(7) 0.3574(6) 0.0418(3) 0.4870 Uani
H14 H 0.8357 0.3714 0.0357 0.5840 Uiso
C27 C 0.8718(7) 0.1621(6) 0.0616(3) 0.5467 Uani
H15 H 0.8913 0.1788 0.0676 0.6510 Uiso
C28 C 0.8624(7) 0.1189(6) 0.0653(2) 0.5400 Uani
H16 H 0.8419 0.1024 0.0597 0.6450 Uiso
O1 O 0.9968(7) 0.4410(6) 0.0930(2) 0.4833 Uani
O2 O 0.9471(6) 0.4916(7) 0.0940(2) 0.4567 Uani
O3 O 0.9461(6) 0.0043(7) 0.1223(3) 0.4467 Uani
O4 O 0.9901(8) 0.0584(5) 0.1261(3) 0.4867 Uani
O5 O 0.7680(6) 0.3042(4) -0.0076(2) 0.5967 Uani
O6 O 1.0744(6) 0.4246(4) 0.1107(2) 0.5047 Uani
Cu1G Cu 0.5284(2) -0.0271(3) -0.11063(11) 0.4757 Uani
Cu1I Cu 0.9729(3) 0.5284(2) 0.11063(11) 0.4757 Uani
Cu1L Cu 0.9729(3) -0.0284(2) 0.13937(11) 0.4757 Uani
Cu1E Cu 1.0271(3) 0.0284(2) 0.13937(11) 0.4757 Uani
Cu1J Cu 1.0284(2) 0.0271(3) -0.13937(11) 0.4757 Uani
Cu1C Cu 0.9716(2) -0.0271(3) -0.13937(11) 0.4757 Uani
Cu1N Cu 0.4716(2) 0.0271(3) -0.11063(11) 0.4757 Uani
C1G C 0.6179(6) 0.1151(6) -0.05326(15) 0.5100 Uani
C2G C 0.6345(4) 0.0764(7) -0.0593(2) 0.4933 Uani
H1G H 0.6615 0.0665 -0.0558 0.5940 Uiso
C3G C 0.6109(6) 0.0524(4) -0.0707(2) 0.5000 Uani
H2G H 0.6221 0.0265 -0.0748 0.6020 Uiso
C4G C 0.5706(6) 0.0672(6) -0.07597(14) 0.4967 Uani
C5G C 0.5539(4) 0.1059(7) -0.0699(2) 0.5267 Uani
H3G H 0.5269 0.1158 -0.0734 0.6290 Uiso
C6G C 0.5775(6) 0.1299(5) -0.0585(2) 0.5233 Uani
H4G H 0.5664 0.1558 -0.0544 0.6270 Uiso
C7G C 0.5435(7) 0.0400(7) -0.0886(2) 0.4733 Uani
C8G C 0.8977(6) 0.1106(6) -0.07931(14) 0.5300 Uani
C9G C 0.8746(3) 0.0770(7) -0.0866(2) 0.5250 Uani
H5G H 0.8469 0.0702 -0.0829 0.6300 Uiso
C10G C 0.8929(6) 0.0536(5) -0.0994(2) 0.5033 Uani
H6G H 0.8774 0.0311 -0.1043 0.6020 Uiso
C11G C 0.9343(6) 0.0638(6) -0.10496(15) 0.4633 Uani
C12G C 0.9575(4) 0.0974(7) -0.0977(2) 0.5067 Uani
H7G H 0.9852 0.1043 -0.1014 0.6100 Uiso
C13G C 0.9392(6) 0.1208(5) -0.0849(2) 0.5167 Uani
H8G H 0.9547 0.1433 -0.0800 0.6180 Uiso
C14G C 0.9569(9) 0.0417(8) -0.1183(3) 0.4633 Uani
C15G C 0.7608(5) 0.2152(5) -0.00701(18) 0.4780 Uani
C16G C 0.7163(6) 0.2106(5) -0.00477(16) 0.5033 Uani
C17G C 0.6921(3) 0.1854(5) -0.0156(2) 0.4820 Uani
H9G H 0.6624 0.1823 -0.0141 0.5780 Uiso
C18G C 0.7126(5) 0.1647(4) -0.02862(16) 0.4817 Uani
C19G C 0.7571(5) 0.1693(5) -0.03085(16) 0.4850 Uani
C20G C 0.7812(3) 0.1945(5) -0.0201(2) 0.4807 Uani
C21G C 0.7769(6) 0.1487(6) -0.0444(2) 0.5010 Uani
H10G H 0.7598 0.1324 -0.0515 0.6030 Uiso
C22G C 0.8217(6) 0.1522(5) -0.0474(2) 0.5137 Uani
C23G C 0.8458(5) 0.1772(6) -0.0368(2) 0.5150 Uani
H11G H 0.8755 0.1804 -0.0386 0.6150 Uiso
C24G C 0.8256(5) 0.1984(7) -0.0231(3) 0.4877 Uani
H12G H 0.8426 0.2151 -0.0160 0.5860 Uiso
C25G C 0.6875(6) 0.1370(6) -0.0404(2) 0.4880 Uani
H13G H 0.7016 0.1161 -0.0467 0.5890 Uiso
C26G C 0.6426(6) 0.1431(7) -0.0418(3) 0.4870 Uani
H14G H 0.6286 0.1643 -0.0357 0.5840 Uiso
C27G C 0.8379(6) 0.1282(7) -0.0616(3) 0.5467 Uani
H15G H 0.8212 0.1087 -0.0676 0.6510 Uiso
C28G C 0.8811(6) 0.1376(7) -0.0653(2) 0.5400 Uani
H16G H 0.8976 0.1581 -0.0597 0.6450 Uiso
O1G O 0.5590(6) 0.0032(7) -0.0930(2) 0.4833 Uani
O2G O 0.5084(7) 0.0529(6) -0.0940(2) 0.4567 Uani
O2I O 1.0529(6) 0.5084(7) 0.0940(2) 0.4567 Uani
O2N O 0.4916(7) -0.0529(6) -0.0940(2) 0.4567 Uani
O3G O 0.9957(7) 0.0539(6) -0.1223(3) 0.4467 Uani
O3L O 1.0539(6) 0.5043(7) 0.1277(3) 0.4467 Uani
O3J O 0.4957(7) -0.0539(6) -0.1277(3) 0.4467 Uani
O4G O 0.9416(5) 0.0099(8) -0.1261(3) 0.4867 Uani
O4E O 0.9901(8) 0.4416(5) 0.1239(3) 0.4867 Uani
O4C O 0.5584(5) 0.0099(8) -0.1239(3) 0.4867 Uani
O5G O 0.6958(4) 0.2320(6) 0.0076(2) 0.5967 Uani
O6G O 0.5754(4) -0.0744(6) -0.1107(2) 0.5047 Uani
loop_
_atom_site_aniso_label
_atom_site_aniso_U_11
_atom_site_aniso_U_22
_atom_site_aniso_U_33
_atom_site_aniso_U_23
_atom_site_aniso_U_13
_atom_site_aniso_U_12
Cu1 0.625(15) 0.224(11) 0.578(16) -0.005(7) -0.075(10) -0.025(6)
C1 0.77(3) 0.30(2) 0.46(3) -0.082(17) -0.141(18) 0.061(17)
C2 0.76(3) 0.27(2) 0.45(3) -0.109(16) -0.146(19) 0.047(16)
C3 0.74(3) 0.28(3) 0.48(3) -0.119(18) -0.119(19) 0.025(17)
C4 0.75(3) 0.29(2) 0.45(3) -0.124(17) -0.091(17) 0.028(17)
C5 0.78(3) 0.32(2) 0.48(3) -0.095(16) -0.107(18) 0.052(17)
C6 0.79(3) 0.32(2) 0.46(3) -0.090(18) -0.131(18) 0.080(17)
C7 0.73(3) 0.27(3) 0.42(3) -0.088(19) -0.052(17) -0.008(17)
C8 0.72(3) 0.30(2) 0.57(3) 0.025(17) -0.230(18) 0.120(18)
C9 0.72(3) 0.285(19) 0.57(3) 0.059(17) -0.22(2) 0.103(16)
C10 0.70(3) 0.32(2) 0.49(3) 0.043(18) -0.182(19) 0.087(19)
C11 0.64(3) 0.28(2) 0.47(3) 0.022(17) -0.194(17) 0.124(18)
C12 0.71(3) 0.33(2) 0.48(3) 0.020(17) -0.234(19) 0.081(17)
C13 0.72(3) 0.32(2) 0.51(3) 0.020(17) -0.245(19) 0.084(19)
C14 0.64(3) 0.28(3) 0.47(3) -0.005(19) -0.199(18) 0.14(2)
C15 0.67(3) 0.294(18) 0.47(3) -0.022(18) -0.153(18) 0.07(2)
C16 0.72(3) 0.31(2) 0.48(3) 0.011(18) -0.158(17) 0.05(2)
C17 0.72(3) 0.266(17) 0.46(3) -0.009(15) -0.136(17) 0.076(17)
C18 0.71(3) 0.245(15) 0.49(3) -0.025(15) -0.164(16) 0.081(19)
C19 0.70(3) 0.245(15) 0.51(3) -0.030(15) -0.193(17) 0.09(2)
C20 0.66(3) 0.262(17) 0.52(3) -0.032(16) -0.171(17) 0.08(2)
C21 0.74(3) 0.273(18) 0.49(3) -0.003(16) -0.182(19) 0.09(2)
C22 0.76(3) 0.281(19) 0.50(3) 0.004(16) -0.183(18) 0.08(2)
C23 0.72(3) 0.275(18) 0.55(3) -0.024(16) -0.18(2) 0.096(18)
C24 0.68(3) 0.243(17) 0.54(3) -0.055(17) -0.176(19) 0.10(2)
C25 0.71(3) 0.274(18) 0.48(3) -0.05(2) -0.145(18) 0.05(2)
C26 0.73(3) 0.271(19) 0.46(3) -0.035(19) -0.136(18) 0.04(2)
C27 0.80(3) 0.32(2) 0.52(3) 0.044(17) -0.20(2) 0.09(2)
C28 0.77(3) 0.31(2) 0.54(3) 0.033(17) -0.22(2) 0.09(2)
O1 0.68(3) 0.30(2) 0.47(3) -0.030(18) -0.032(18) -0.038(16)
O2 0.76(3) 0.23(2) 0.38(3) -0.061(16) -0.09(2) -0.025(15)
O3 0.62(2) 0.27(2) 0.45(3) 0.000(16) -0.25(2) 0.148(17)
O4 0.67(3) 0.24(2) 0.55(3) 0.014(18) -0.25(2) 0.135(16)
O5 0.91(3) 0.270(17) 0.61(3) -0.050(14) -0.30(2) 0.138(16)
O6 0.63(3) 0.234(17) 0.65(3) -0.001(19) -0.02(2) -0.015(10)
Cu1G 0.224 0.625 0.578 -0.075 -0.005 -0.025
Cu1I 0.625 0.224 0.578 0.005 0.075 -0.025
Cu1L 0.625 0.224 0.578 0.005 -0.075 0.025
Cu1E 0.625 0.224 0.578 -0.005 0.075 0.025
Cu1J 0.224 0.625 0.578 -0.075 0.005 0.025
Cu1C 0.224 0.625 0.578 0.075 -0.005 0.025
Cu1N 0.224 0.625 0.578 0.075 0.005 -0.025
C1G 0.3 0.77 0.46 -0.141 -0.082 0.061
C2G 0.27 0.76 0.45 -0.146 -0.109 0.047
C3G 0.28 0.74 0.48 -0.119 -0.119 0.025
C4G 0.29 0.75 0.45 -0.091 -0.124 0.028
C5G 0.32 0.78 0.48 -0.107 -0.095 0.052
C6G 0.32 0.79 0.46 -0.131 -0.09 0.08
C7G 0.27 0.73 0.42 -0.052 -0.088 -0.008
C8G 0.3 0.72 0.57 -0.23 0.025 0.12
C9G 0.285 0.72 0.57 -0.22 0.059 0.103
C10G 0.32 0.7 0.49 -0.182 0.043 0.087
C11G 0.28 0.64 0.47 -0.194 0.022 0.124
C12G 0.33 0.71 0.48 -0.234 0.02 0.081
C13G 0.32 0.72 0.51 -0.245 0.02 0.084
C14G 0.28 0.64 0.47 -0.199 -0.005 0.14
C15G 0.294 0.67 0.47 -0.153 -0.022 0.07
C16G 0.31 0.72 0.48 -0.158 0.011 0.05
C17G 0.266 0.72 0.46 -0.136 -0.009 0.076
C18G 0.245 0.71 0.49 -0.164 -0.025 0.081
C19G 0.245 0.7 0.51 -0.193 -0.03 0.09
C20G 0.262 0.66 0.52 -0.171 -0.032 0.08
C21G 0.273 0.74 0.49 -0.182 -0.003 0.09
C22G 0.281 0.76 0.5 -0.183 0.004 0.08
C23G 0.275 0.72 0.55 -0.18 -0.024 0.096
C24G 0.243 0.68 0.54 -0.176 -0.055 0.1
C25G 0.274 0.71 0.48 -0.145 -0.05 0.05
C26G 0.271 0.73 0.46 -0.136 -0.035 0.04
C27G 0.32 0.8 0.52 -0.2 0.044 0.09
C28G 0.31 0.77 0.54 -0.22 0.033 0.09
O1G 0.3 0.68 0.47 -0.032 -0.03 -0.038
O2G 0.23 0.76 0.38 -0.09 -0.061 -0.025
O2I 0.76 0.23 0.38 0.061 0.09 -0.025
O2N 0.23 0.76 0.38 0.09 0.061 -0.025
O3G 0.27 0.62 0.45 -0.25 0 0.148
O3L 0.62 0.27 0.45 0 -0.25 -0.148
O3J 0.27 0.62 0.45 -0.25 0 -0.148
O4G 0.24 0.67 0.55 -0.25 0.014 0.135
O4E 0.67 0.24 0.55 0.014 0.25 -0.135
O4C 0.24 0.67 0.55 0.25 0.014 -0.135
O5G 0.27 0.91 0.61 -0.3 -0.05 0.138
O6G 0.234 0.63 0.65 -0.02 -0.001 -0.015
loop_
_geom_bond_atom_site_label_1
_geom_bond_atom_site_label_2
_geom_bond_site_symmetry_1
_geom_bond_site_symmetry_2
Cu1 O1 1_555 1_555
C1 C2 1_555 1_555
C2 H1 1_555 1_555
C3 C2 1_555 1_555
H2 C3 1_555 1_555
C4 C3 1_555 1_555
C5 C4 1_555 1_555
H3 C5 1_555 1_555
C6 C1 1_555 1_555
H4 C6 1_555 1_555
C7 C4 1_555 1_555
C8 C9 1_555 1_555
C9 H5 1_555 1_555
C10 C9 1_555 1_555
H6 C10 1_555 1_555
C11 C10 1_555 1_555
C12 C11 1_555 1_555
H7 C12 1_555 1_555
C13 C8 1_555 1_555
H8 C13 1_555 1_555
C14 C11 1_555 1_555
C15 C16 1_555 1_555
C16 C17 1_555 1_555
C17 H9 1_555 1_555
C18 C17 1_555 1_555
C19 C18 1_555 1_555
C20 C15 1_555 1_555
C21 C19 1_555 1_555
H10 C21 1_555 1_555
C22 C21 1_555 1_555
C23 C22 1_555 1_555
H11 C23 1_555 1_555
C24 C20 1_555 1_555
H12 C24 1_555 1_555
C25 C18 1_555 1_555
H13 C25 1_555 1_555
C26 C1 1_555 1_555
H14 C26 1_555 1_555
C27 C22 1_555 1_555
H15 C27 1_555 1_555
C28 C8 1_555 1_555
H16 C28 1_555 1_555
O1 C7 1_555 1_555
O2 C7 1_555 1_555
O3 C14 1_555 1_555
O4 C14 1_555 1_555
O5 C16 1_555 1_555
O6 Cu1 1_555 1_555
Cu1G O1G 1_555 1_555
Cu1I O2 1_555 1_555
Cu1L O3 1_555 1_555
Cu1E O4 1_555 1_555
Cu1J O3G 1_555 1_555
Cu1C O4G 1_555 1_555
Cu1N O2G 1_555 1_555
C1G C2G 1_555 1_555
C2G H1G 1_555 1_555
C3G C2G 1_555 1_555
H2G C3G 1_555 1_555
C4G C3G 1_555 1_555
C5G C4G 1_555 1_555
H3G C5G 1_555 1_555
C6G C1G 1_555 1_555
H4G C6G 1_555 1_555
C7G C4G 1_555 1_555
C8G C9G 1_555 1_555
C9G H5G 1_555 1_555
C10G C9G 1_555 1_555
H6G C10G 1_555 1_555
C11G C10G 1_555 1_555
C12G C11G 1_555 1_555
H7G C12G 1_555 1_555
C13G C8G 1_555 1_555
H8G C13G 1_555 1_555
C14G C11G 1_555 1_555
C15G C15 1_555 1_555
C16G C15G 1_555 1_555
C17G C16G 1_555 1_555
H9G C17G 1_555 1_555
C18G C17G 1_555 1_555
C19G C18G 1_555 1_555
C20G C15G 1_555 1_555
C21G C19G 1_555 1_555
H10G C21G 1_555 1_555
C22G C21G 1_555 1_555
C23G C22G 1_555 1_555
H11G C23G 1_555 1_555
C24G C20G 1_555 1_555
H12G C24G 1_555 1_555
C25G C18G 1_555 1_555
H13G C25G 1_555 1_555
C26G C1G 1_555 1_555
H14G C26G 1_555 1_555
C27G C22G 1_555 1_555
H15G C27G 1_555 1_555
C28G C8G 1_555 1_555
H16G C28G 1_555 1_555
O1G C7G 1_555 1_555
O2G C7G 1_555 1_555
O2I Cu1 1_555 1_555
O2N Cu1G 1_555 1_555
O3G C14G 1_555 1_555
O3L Cu1 1_555 1_555
O3J Cu1G 1_555 1_555
O4G C14G 1_555 1_555
O4E Cu1 1_555 1_555
O4C Cu1G 1_555 1_555
O5G C16G 1_555 1_555
O6G Cu1G 1_555 1_555
C5 C6 1_555 1_555
C12 C13 1_555 1_555
C19 C20 1_555 1_555
C23 C24 1_555 1_555
C25 C26 1_555 1_555
C27 C28 1_555 1_555
C5G C6G 1_555 1_555
C12G C13G 1_555 1_555
C19G C20G 1_555 1_555
C23G C24G 1_555 1_555
C25G C26G 1_555 1_555
C27G C28G 1_555 1_555

#END
