
#######################################################################
#
#                 Cambridge Crystallographic Data Centre
#                                CCDC 
#
#######################################################################
#
# If this CIF has been generated from an entry in the Cambridge 
# Structural Database, then it will include bibliographic, chemical, 
# crystal, experimental, refinement or atomic coordinate data resulting 
# from the CCDC's data processing and validation procedures.
#
#######################################################################

data_ODAGEI
_chemical_formula_moiety         '(C24 H18 Ag1 B2 F8 N4 O1 S2 1-)n'
_symmetry_cell_setting           rhombohedral
_symmetry_space_group_name_H-M   'R -3 c'
_symmetry_Int_Tables_number      167
_space_group_name_Hall           '-R 3 2"c'
loop_
_symmetry_equiv_pos_site_id
_symmetry_equiv_pos_as_xyz
1 x,y,z
2 -y,x-y,z
3 -x+y,-x,z
4 x-y,-y,1/2-z
5 -x,-x+y,1/2-z
6 y,x,1/2-z
7 1/3+x,2/3+y,2/3+z
8 1/3-y,2/3+x-y,2/3+z
9 1/3-x+y,2/3-x,2/3+z
10 1/3+x-y,2/3-y,1/6-z
11 1/3-x,2/3-x+y,1/6-z
12 1/3+y,2/3+x,1/6-z
13 2/3+x,1/3+y,1/3+z
14 2/3-y,1/3+x-y,1/3+z
15 2/3-x+y,1/3-x,1/3+z
16 2/3+x-y,1/3-y,5/6-z
17 2/3-x,1/3-x+y,5/6-z
18 2/3+y,1/3+x,5/6-z
19 -x,-y,-z
20 y,-x+y,-z
21 x-y,x,-z
22 -x+y,y,1/2+z
23 x,x-y,1/2+z
24 -y,-x,1/2+z
25 2/3-x,1/3-y,1/3-z
26 2/3+y,1/3-x+y,1/3-z
27 2/3+x-y,1/3+x,1/3-z
28 2/3-x+y,1/3+y,5/6+z
29 2/3+x,1/3+x-y,5/6+z
30 2/3-y,1/3-x,5/6+z
31 1/3-x,2/3-y,2/3-z
32 1/3+y,2/3-x+y,2/3-z
33 1/3+x-y,2/3+x,2/3-z
34 1/3-x+y,2/3+y,1/6+z
35 1/3+x,2/3+x-y,1/6+z
36 1/3-y,2/3-x,1/6+z
_cell_length_a                   26.0470(11)
_cell_length_b                   26.0470(11)
_cell_length_c                   41.751(2)
_cell_angle_alpha                90
_cell_angle_beta                 90
_cell_angle_gamma                120
_cell_volume                     24530.9
loop_
_atom_site_label
_atom_site_type_symbol
_atom_site_fract_x
_atom_site_fract_y
_atom_site_fract_z
_atom_site_U_iso_or_equiv
_atom_site_thermal_displace_type
F1 F 0.666667 0.333333 0.40669(15) 0.0829 Uani
F2 F 0.72298(12) 0.37259(13) 0.44925(9) 0.0881 Uani
B1 B 0.666667 0.333333 0.43907(18) 0.0550 Uani
F2A F 0.62741(13) 0.35039(18) 0.44925(9) 0.0881 Uani
F2B F 0.64961(18) 0.27702(12) 0.44925(9) 0.0881 Uani
F3 F 0.6344(3) 0.76737(19) 0.38232(14) 0.0977 Uani
F4 F 0.6135(4) 0.8171(3) 0.34634(15) 0.1451 Uani
F5 F 0.6331(3) 0.8487(2) 0.39648(12) 0.0958 Uani
F6 F 0.7047(3) 0.8560(3) 0.3655(2) 0.1403 Uani
B2 B 0.6470(3) 0.8228(3) 0.37317(15) 0.0601 Uani
Ag1 Ag 0.839445(13) 0.656486(12) 0.379644(7) 0.0362 Uani
N1 N 0.42119(14) 0.49820(14) 0.28476(7) 0.0422 Uani
N2 N 0.52355(14) 0.59059(14) 0.30931(7) 0.0386 Uani
N3 N 0.74974(12) 0.56751(12) 0.36570(7) 0.0335 Uani
N4 N 0.84894(12) 0.57531(12) 0.39511(6) 0.0326 Uani
O1 O 0.58510(12) 0.55216(12) 0.35191(6) 0.0481 Uani
S1 S 0.48366(7) 0.65946(6) 0.32306(3) 0.0717 Uani
S2 S 0.68163(4) 0.45695(4) 0.37349(3) 0.0547 Uani
C1 C 0.37021(19) 0.4503(2) 0.27716(10) 0.0536 Uani
H1 H 0.37117(19) 0.4175(2) 0.26786(10) 0.0638 Uiso
C2 C 0.3154(2) 0.4461(2) 0.28226(11) 0.0683 Uani
H2 H 0.2798(2) 0.4105(2) 0.27721(11) 0.0821 Uiso
C3 C 0.3132(2) 0.4933(3) 0.29454(14) 0.0819 Uani
H3 H 0.2763(2) 0.4916(3) 0.29782(14) 0.0985 Uiso
C4 C 0.3659(2) 0.5439(3) 0.30215(12) 0.0751 Uani
H4 H 0.3657(2) 0.5779(3) 0.31034(12) 0.0899 Uiso
C5 C 0.41855(19) 0.5445(2) 0.29771(9) 0.0474 Uani
C6 C 0.47497(18) 0.59399(18) 0.30864(9) 0.0447 Uani
C7 C 0.5554(2) 0.6827(2) 0.33041(11) 0.0652 Uani
H5 H 0.5823(2) 0.7201(2) 0.33957(11) 0.0786 Uiso
C8 C 0.57035(19) 0.64125(19) 0.32157(9) 0.0460 Uani
C9 C 0.62864(18) 0.64573(16) 0.32431(9) 0.0434 Uani
C10 C 0.63386(17) 0.60079(16) 0.33903(8) 0.0409 Uani
C11 C 0.68828(17) 0.60278(15) 0.33948(8) 0.0371 Uani
C12 C 0.73723(17) 0.65127(16) 0.32505(8) 0.0437 Uani
H6 H 0.77437(17) 0.65265(16) 0.32502(8) 0.0525 Uiso
C13 C 0.73313(19) 0.69669(16) 0.31099(9) 0.0475 Uani
C14 C 0.67837(19) 0.69330(17) 0.31114(10) 0.0504 Uani
H7 H 0.67485(19) 0.72472(17) 0.30188(10) 0.0606 Uiso
C15 C 0.7861(2) 0.7474(2) 0.29535(12) 0.0691 Uani
H8 H 0.8222(2) 0.7544(11) 0.3065(6) 0.1040 Uiso
H9 H 0.7881(9) 0.7377(7) 0.2729(3) 0.1040 Uiso
H10 H 0.7827(8) 0.7831(4) 0.2965(8) 0.1040 Uiso
C16 C 0.5642(2) 0.5647(3) 0.38079(12) 0.0766 Uani
H11 H 0.5974(4) 0.5973(12) 0.3921(5) 0.1150 Uiso
H12 H 0.5345(14) 0.5760(18) 0.37565(13) 0.1150 Uiso
H13 H 0.5462(17) 0.5293(6) 0.3944(4) 0.1150 Uiso
C17 C 0.69528(15) 0.55489(15) 0.35439(8) 0.0360 Uani
C18 C 0.65375(17) 0.49677(16) 0.35677(10) 0.0469 Uani
H14 H 0.61384(17) 0.48045(16) 0.34988(10) 0.0565 Uiso
C19 C 0.74931(15) 0.52050(15) 0.37672(9) 0.0362 Uani
C20 C 0.80234(15) 0.52181(15) 0.38985(8) 0.0359 Uani
C21 C 0.80259(19) 0.46956(17) 0.39627(10) 0.0539 Uani
H15 H 0.76806(19) 0.43207(17) 0.39302(10) 0.0652 Uiso
C22 C 0.8546(2) 0.47364(19) 0.40755(11) 0.0610 Uani
H16 H 0.8565(2) 0.43883(19) 0.41208(11) 0.0728 Uiso
C23 C 0.90357(18) 0.52879(19) 0.41207(9) 0.0483 Uani
H17 H 0.93998(18) 0.53275(19) 0.41928(9) 0.0579 Uiso
C24 C 0.89868(16) 0.57827(16) 0.40592(9) 0.0394 Uani
H18 H 0.93229(16) 0.61627(16) 0.40955(9) 0.0473 Uiso
Ag1FA Ag 0.516292(18) 0.506112(13) 0.287023(7) 0.0362 Uani
Ag1O Ag 0.849626(18) 0.676847(12) 0.453689(7) 0.0362 Uani
N1EA N 0.83153(14) 0.74368(20) 0.38191(7) 0.0422 Uani
N2EA N 0.92392(14) 0.73371(20) 0.35736(7) 0.0386 Uani
loop_
_atom_site_aniso_label
_atom_site_aniso_U_11
_atom_site_aniso_U_22
_atom_site_aniso_U_33
_atom_site_aniso_U_23
_atom_site_aniso_U_13
_atom_site_aniso_U_12
F1 0.073(2) 0.073(2) 0.103(4) 0.000000 0.000000 0.0367(11)
F2 0.0426(16) 0.0599(18) 0.147(3) -0.0187(18) -0.0227(17) 0.0146(14)
B1 0.043(3) 0.043(3) 0.079(6) 0.000000 0.000000 0.0215(15)
F2A 0.0599 0.0733 0.147 -0.004 0.0187 0.0453
F2B 0.0733 0.0426 0.147 0.0227 0.004 0.028
F3 0.124(5) 0.044(3) 0.121(5) -0.017(3) -0.077(4) 0.039(3)
F4 0.247(9) 0.078(4) 0.138(6) -0.040(4) -0.122(6) 0.102(5)
F5 0.091(5) 0.060(4) 0.110(5) 0.016(3) -0.042(4) 0.018(3)
F6 0.175(9) 0.080(5) 0.193(9) -0.014(5) -0.028(6) 0.084(5)
B2 0.076(6) 0.045(4) 0.071(6) 0.017(4) 0.005(4) 0.039(4)
Ag1 0.03587(18) 0.02520(16) 0.04423(18) -0.00127(10) -0.00303(11) 0.01289(12)
N1 0.0426(19) 0.0458(18) 0.0439(17) 0.0094(14) 0.0004(13) 0.0263(16)
N2 0.0472(18) 0.0404(17) 0.0365(15) 0.0008(13) -0.0042(13) 0.0281(16)
N3 0.0313(15) 0.0265(14) 0.0385(15) -0.0002(11) -0.0032(12) 0.0112(12)
N4 0.0312(15) 0.0299(15) 0.0346(14) 0.0018(11) 0.0007(11) 0.0138(13)
O1 0.0406(16) 0.0443(16) 0.0562(17) 0.0108(12) -0.0001(13) 0.0188(13)
S1 0.0877(10) 0.0686(8) 0.0912(9) -0.0160(7) -0.0159(7) 0.0634(8)
S2 0.0357(5) 0.0276(5) 0.0897(8) 0.0088(5) -0.0133(5) 0.0074(4)
C1 0.038(2) 0.058(3) 0.058(2) 0.006(2) -0.0017(19) 0.019(2)
C2 0.043(3) 0.081(4) 0.073(3) 0.004(3) -0.004(2) 0.025(3)
C3 0.048(3) 0.121(5) 0.091(4) -0.019(3) -0.005(3) 0.053(3)
C4 0.065(3) 0.099(4) 0.092(4) -0.021(3) -0.016(3) 0.064(3)
C5 0.049(2) 0.064(3) 0.045(2) 0.0061(18) -0.0017(17) 0.040(2)
C6 0.055(2) 0.051(2) 0.046(2) 0.0020(17) -0.0047(17) 0.040(2)
C7 0.089(4) 0.050(3) 0.069(3) -0.016(2) -0.023(3) 0.044(3)
C8 0.058(3) 0.041(2) 0.046(2) -0.0029(17) -0.0131(18) 0.030(2)
C9 0.052(2) 0.0307(19) 0.044(2) -0.0059(15) -0.0164(17) 0.0180(18)
C10 0.045(2) 0.036(2) 0.0360(18) -0.0017(15) -0.0120(15) 0.0160(17)
C11 0.039(2) 0.0277(17) 0.0375(18) -0.0017(14) -0.0114(15) 0.0113(16)
C12 0.039(2) 0.040(2) 0.0407(19) -0.0003(16) -0.0152(16) 0.0113(18)
C13 0.053(2) 0.033(2) 0.044(2) 0.0037(15) -0.0170(18) 0.0122(18)
C14 0.062(3) 0.036(2) 0.050(2) -0.0011(17) -0.0212(19) 0.022(2)
C15 0.062(3) 0.050(3) 0.070(3) 0.019(2) -0.015(2) 0.009(2)
C16 0.062(3) 0.084(4) 0.075(3) 0.017(3) 0.007(3) 0.030(3)
C17 0.0293(18) 0.0331(18) 0.0398(18) -0.0002(14) -0.0072(14) 0.0113(15)
C18 0.033(2) 0.032(2) 0.067(3) 0.0022(17) -0.0138(17) 0.0097(16)
C19 0.0341(19) 0.0254(17) 0.0446(19) 0.0026(14) -0.0004(15) 0.0116(15)
C20 0.0326(18) 0.0297(18) 0.0434(19) 0.0057(14) -0.0007(14) 0.0141(15)
C21 0.050(3) 0.032(2) 0.079(3) 0.0046(19) -0.013(2) 0.020(2)
C22 0.061(3) 0.044(2) 0.087(3) 0.007(2) -0.016(2) 0.033(2)
C23 0.044(2) 0.060(3) 0.049(2) 0.0017(19) -0.0084(17) 0.032(2)
C24 0.0350(19) 0.037(2) 0.044(2) 0.0010(15) -0.0011(15) 0.0164(17)
Ag1FA 0.03529 0.03587 0.04423 0.00303 0.00176 0.02298
Ag1O 0.03529 0.0252 0.04423 -0.00127 0.00176 0.01231
N1EA 0.0458 0.0358 0.0439 -0.009 -0.0094 0.0195
N2EA 0.0404 0.0314 0.0365 -0.005 -0.0008 0.0123
loop_
_geom_bond_atom_site_label_1
_geom_bond_atom_site_label_2
_geom_bond_site_symmetry_1
_geom_bond_site_symmetry_2
Ag1 N3 1_555 1_555
N1 C1 1_555 1_555
N2 C6 1_555 1_555
N3 C17 1_555 1_555
N4 Ag1 1_555 1_555
O1 C10 1_555 1_555
S1 C6 1_555 1_555
S2 C18 1_555 1_555
C1 H1 1_555 1_555
C2 C1 1_555 1_555
H2 C2 1_555 1_555
C3 C2 1_555 1_555
H3 C3 1_555 1_555
C4 C3 1_555 1_555
H4 C4 1_555 1_555
C5 N1 1_555 1_555
C6 C5 1_555 1_555
C7 S1 1_555 1_555
H5 C7 1_555 1_555
C8 N2 1_555 1_555
C9 C8 1_555 1_555
C10 C9 1_555 1_555
C11 C10 1_555 1_555
C12 C11 1_555 1_555
H6 C12 1_555 1_555
C13 C12 1_555 1_555
C14 C9 1_555 1_555
H7 C14 1_555 1_555
C15 C13 1_555 1_555
H8 C15 1_555 1_555
H9 C15 1_555 1_555
H10 C15 1_555 1_555
C16 O1 1_555 1_555
H11 C16 1_555 1_555
H12 C16 1_555 1_555
H13 C16 1_555 1_555
C17 C11 1_555 1_555
C18 C17 1_555 1_555
H14 C18 1_555 1_555
C19 N3 1_555 1_555
C20 N4 1_555 1_555
C21 C20 1_555 1_555
H15 C21 1_555 1_555
C22 C21 1_555 1_555
H16 C22 1_555 1_555
C23 C22 1_555 1_555
H17 C23 1_555 1_555
C24 N4 1_555 1_555
H18 C24 1_555 1_555
F1 B1 1_555 1_555
F2 B1 1_555 1_555
B1 F2A 1_555 1_555
F3 B2 1_555 1_555
F4 B2 1_555 1_555
F5 B2 1_555 1_555
F6 B2 1_555 1_555
Ag1FA N1 1_555 1_555
Ag1O Ag1 1_555 1_555
N1EA Ag1 1_555 1_555
N2EA Ag1 1_555 1_555
F2B B1 1_555 1_555
N2 Ag1FA 1_555 1_555
S2 C19 1_555 1_555
C4 C5 1_555 1_555
C7 C8 1_555 1_555
C13 C14 1_555 1_555
C19 C20 1_555 1_555
C23 C24 1_555 1_555

#END
