
#######################################################################
#
#                 Cambridge Crystallographic Data Centre
#                                CCDC 
#
#######################################################################
#
# If this CIF has been generated from an entry in the Cambridge 
# Structural Database, then it will include bibliographic, chemical, 
# crystal, experimental, refinement or atomic coordinate data resulting 
# from the CCDC's data processing and validation procedures.
#
#######################################################################

data_DANROC
_chemical_formula_moiety         '(C135 H137 Cu9 N19 O45)n'
_symmetry_cell_setting           rhombohedral
_symmetry_space_group_name_H-M   'R 3'
_symmetry_Int_Tables_number      146
_space_group_name_Hall           'R 3'
loop_
_symmetry_equiv_pos_site_id
_symmetry_equiv_pos_as_xyz
1 x,y,z
2 -y,x-y,z
3 -x+y,-x,z
4 2/3+x,1/3+y,1/3+z
5 2/3-y,1/3+x-y,1/3+z
6 2/3-x+y,1/3-x,1/3+z
7 1/3+x,2/3+y,2/3+z
8 1/3-y,2/3+x-y,2/3+z
9 1/3-x+y,2/3-x,2/3+z
_cell_length_a                   22.535(3)
_cell_length_b                   22.535(3)
_cell_length_c                   29.635(6)
_cell_angle_alpha                90
_cell_angle_beta                 90
_cell_angle_gamma                120
_cell_volume                     13033.2
loop_
_atom_site_label
_atom_site_type_symbol
_atom_site_fract_x
_atom_site_fract_y
_atom_site_fract_z
Cu1 Cu 0.25903(3) 0.45235(3) 0.72259(2)
Cu2 Cu 0.21070(4) 0.44087(4) 0.87353(3)
Cu3 Cu 0.22002(5) 0.06155(4) 0.64952(4)
C1 C 0.3451(3) 0.4150(3) 0.6800(3)
C2 C 0.4049(4) 0.4025(4) 0.6738(4)
H1 H 0.4411 0.4408 0.6575
H2 H 0.4227 0.4006 0.7033
C3 C 0.3853(4) 0.3369(3) 0.6485(3)
H3 H 0.3655 0.3385 0.6195
C4 C 0.3318(4) 0.2738(4) 0.6744(3)
H4 H 0.3531 0.2684 0.7013
H5 H 0.2954 0.2820 0.6840
C5 C 0.3004(3) 0.2074(4) 0.6478(3)
C6 C 0.4480(4) 0.3277(4) 0.6393(4)
H6 H 0.4706 0.3298 0.6676
H7 H 0.4325 0.2830 0.6260
C7 C 0.4985(4) 0.3824(4) 0.6078(3)
C8 C 0.2922(3) 0.5405(3) 0.65078(18)
C9 C 0.3407(3) 0.6056(3) 0.62509(18)
H8 H 0.3305 0.5986 0.5931
H9 H 0.3875 0.6159 0.6294
C10 C 0.3333 0.6667 0.6417(3)
H10 H 0.3333 0.6667 0.6748
C11 C 0.2907(3) 0.5376(3) 0.81826(19)
C12 C 0.3396(3) 0.6058(3) 0.79741(19)
H11 H 0.3326 0.6022 0.7650
H12 H 0.3860 0.6154 0.8030
C13 C 0.3333 0.6667 0.8143(3)
H13 H 0.3333 0.6667 0.8474
C14 C 0.1292(3) 0.0657(3) 0.7073(2)
C15 C 0.0640(3) 0.0647(3) 0.7213(2)
H14 H 0.0643 0.1049 0.7094
H15 H 0.0623 0.0664 0.7540
C16 C 0.0000 0.0000 0.7042(3)
H16 H 0.0000 0.0000 0.6711
C17 C 0.2052(4) 0.3059(3) 0.7505(3)
H17 H 0.2501 0.3151 0.7479
C18 C 0.1545(4) 0.2403(3) 0.7617(3)
H18 H 0.1654 0.2061 0.7666
C19 C 0.0888(4) 0.2264(4) 0.7654(3)
H19 H 0.0542 0.1824 0.7728
C20 C 0.0733(4) 0.2781(4) 0.7583(3)
H20 H 0.0283 0.2692 0.7601
C21 C 0.1268(3) 0.3437(3) 0.7483(2)
C22 C 0.1176(3) 0.4040(3) 0.7430(2)
C23 C 0.0580(4) 0.4024(4) 0.7519(3)
H21 H 0.0197 0.3624 0.7619
C24 C 0.0559(4) 0.4635(4) 0.7457(3)
H22 H 0.0154 0.4639 0.7509
C25 C 0.1132(4) 0.5217(4) 0.7321(3)
H23 H 0.1129 0.5626 0.7288
C26 C 0.1715(3) 0.5184(3) 0.7234(2)
H24 H 0.2105 0.5576 0.7134
C27 C 0.1694(6) 0.2933(4) 0.8803(4)
H25 H 0.2160 0.3089 0.8826
C28 C 0.1229(7) 0.2222(5) 0.8826(5)
H26 H 0.1378 0.1906 0.8854
C29 C 0.0547(7) 0.2023(6) 0.8806(5)
H27 H 0.0222 0.1563 0.8843
C30 C 0.0340(6) 0.2470(6) 0.8734(3)
H28 H -0.0125 0.2322 0.8705
C31 C 0.0824(5) 0.3163(6) 0.8704(3)
C32 C 0.0671(4) 0.3714(6) 0.8661(3)
C33 C -0.0027(6) 0.3613(10) 0.8631(5)
H29 H -0.0403 0.3172 0.8628
C34 C -0.0117(9) 0.4115(12) 0.8611(6)
H30 H -0.0562 0.4038 0.8590
C35 C 0.0485(9) 0.4861(11) 0.8619(6)
H31 H 0.0429 0.5243 0.8616
C36 C 0.1126(6) 0.4898(8) 0.8630(4)
H32 H 0.1515 0.5330 0.8618
C37 C 0.3613(5) 0.0782(6) 0.6510(4)
H33 H 0.3778 0.1248 0.6548
C38 C 0.4081(6) 0.0544(7) 0.6490(4)
H34 H 0.4548 0.0844 0.6525
C39 C 0.3835(6) -0.0136(7) 0.6418(4)
H35 H 0.4141 -0.0298 0.6390
C40 C 0.3143(5) -0.0588(6) 0.6388(3)
H36 H 0.2973 -0.1055 0.6349
C41 C 0.2709(5) -0.0317(4) 0.6417(3)
C42 C 0.1965(5) -0.0740(4) 0.6359(3)
C43 C 0.1615(6) -0.1440(5) 0.6293(3)
H37 H 0.1848 -0.1684 0.6303
C44 C 0.0908(6) -0.1782(4) 0.6210(3)
H38 H 0.0666 -0.2254 0.6163
C45 C 0.0580(6) -0.1406(5) 0.6200(3)
H39 H 0.0112 -0.1616 0.6143
C46 C 0.0968(4) -0.0698(4) 0.6277(3)
H40 H 0.0746 -0.0444 0.6273
N1 N 0.1918(3) 0.3567(2) 0.74313(18)
N2 N 0.1742(3) 0.4611(3) 0.72879(17)
N3 N 0.1488(4) 0.3389(4) 0.8751(3)
N4 N 0.1213(4) 0.4367(5) 0.8657(3)
N5 N 0.2936(4) 0.0357(4) 0.6476(3)
N6 N 0.1637(4) -0.0376(3) 0.6353(2)
O1 O 0.3356(2) 0.4338(2) 0.71905(18)
O2 O 0.3084(3) 0.4075(3) 0.6478(2)
O3 O 0.2826(3) 0.1543(3) 0.6689(2)
O4 O 0.2918(4) 0.2081(4) 0.6063(3)
O5 O 0.5531(3) 0.4310(3) 0.6226(3)
O6 O 0.4829(3) 0.3772(3) 0.5657(2)
O7 O 0.3121(2) 0.53886(19) 0.69144(13)
O8 O 0.2380(2) 0.4952(2) 0.63400(15)
O9 O 0.2765(2) 0.4829(2) 0.79824(15)
O10 O 0.2653(3) 0.5373(2) 0.85677(15)
O11 O 0.1399(3) 0.0686(2) 0.66488(17)
O12 O 0.1676(3) 0.0620(3) 0.73585(19)
O13 O 0.2070(6) 0.0835(6) 0.5738(3)
C8A C 0.4595(3) 0.7517(4) 0.65078(18)
C9A C 0.3944(3) 0.7351(4) 0.62509(18)
H8A H 0.4014 0.7319 0.5931
H9A H 0.3841 0.7716 0.6294
O7A O 0.46114(19) 0.77324(28) 0.69144(13)
O8A O 0.5048(2) 0.7428(3) 0.63400(15)
C8B C 0.2483(4) 0.7078(3) 0.65078(18)
C9B C 0.2649(4) 0.6593(3) 0.62509(18)
H8B H 0.2681 0.6695 0.5931
H9B H 0.2284 0.6125 0.6294
O7B O 0.22676(28) 0.6879(2) 0.69144(13)
O8B O 0.2572(3) 0.7620(2) 0.63400(15)
C11A C 0.4624(3) 0.7531(4) 0.81826(19)
C12A C 0.3942(3) 0.7338(4) 0.79741(19)
H11A H 0.3978 0.7304 0.7650
H12A H 0.3846 0.7706 0.8030
O9A O 0.5171(2) 0.7936(3) 0.79824(15)
O10A O 0.4627(2) 0.7280(4) 0.85677(15)
C11B C 0.2469(4) 0.7093(3) 0.81826(19)
C12B C 0.2662(4) 0.6604(3) 0.79741(19)
H11B H 0.2696 0.6674 0.7650
H12B H 0.2294 0.6140 0.8030
O9B O 0.2064(3) 0.7235(2) 0.79824(15)
O10B O 0.2720(4) 0.7347(3) 0.85677(15)
C14A C -0.0657(3) 0.0635(4) 0.7073(2)
C15A C -0.0647(3) -0.0007(4) 0.7213(2)
H14A H -0.1049 -0.0406 0.7094
H15A H -0.0664 -0.0041 0.7540
O11A O -0.0686(2) 0.0713(4) 0.66488(17)
O12A O -0.0620(3) 0.1056(4) 0.73585(19)
C14B C -0.0635(4) -0.1292(3) 0.7073(2)
C15B C 0.0007(4) -0.0640(3) 0.7213(2)
H14B H 0.0406 -0.0643 0.7094
H15B H 0.0041 -0.0623 0.7540
O11B O -0.0713(4) -0.1399(3) 0.66488(17)
O12B O -0.1056(4) -0.1676(3) 0.73585(19)
Cu1A Cu -0.45235(3) -0.19332(4) 0.72259(2)
Cu3A Cu -0.06155(4) 0.15847(6) 0.64952(4)
C1A C -0.4150(3) -0.0699(4) 0.6800(3)
C2A C -0.4025(4) 0.0024(6) 0.6738(4)
H1A H -0.4408 0.0003 0.6575
H2A H -0.4006 0.0221 0.7033
C3A C -0.3369(3) 0.0484(5) 0.6485(3)
H3A H -0.3385 0.0270 0.6195
C4A C -0.2738(4) 0.0580(6) 0.6744(3)
H4A H -0.2684 0.0847 0.7013
H5A H -0.2820 0.0134 0.6840
C5A C -0.2074(4) 0.0930(5) 0.6478(3)
C6A C -0.3277(4) 0.1203(6) 0.6393(4)
H6A H -0.3298 0.1408 0.6676
H7A H -0.2830 0.1495 0.6260
C7A C -0.3824(4) 0.1161(6) 0.6078(3)
C17A C -0.3059(3) -0.1007(5) 0.7505(3)
H17A H -0.3151 -0.0650 0.7479
C18A C -0.2403(3) -0.0858(5) 0.7617(3)
H18A H -0.2061 -0.0407 0.7666
C19A C -0.2264(4) -0.1376(6) 0.7654(3)
H19A H -0.1824 -0.1282 0.7728
C20A C -0.2781(4) -0.2048(6) 0.7583(3)
H20A H -0.2692 -0.2409 0.7601
C21A C -0.3437(3) -0.2169(4) 0.7483(2)
C22A C -0.4040(3) -0.2864(4) 0.7430(2)
C23A C -0.4024(4) -0.3444(6) 0.7519(3)
H21A H -0.3624 -0.3427 0.7619
C24A C -0.4635(4) -0.4076(6) 0.7457(3)
H22A H -0.4639 -0.4485 0.7509
C25A C -0.5217(4) -0.4085(6) 0.7321(3)
H23A H -0.5626 -0.4497 0.7288
C26A C -0.5184(3) -0.3469(4) 0.7234(2)
H24A H -0.5576 -0.3471 0.7134
C37A C -0.0782(6) 0.2831(8) 0.6510(4)
H33A H -0.1248 0.2530 0.6548
C38A C -0.0544(7) 0.3537(9) 0.6490(4)
H34A H -0.0844 0.3704 0.6525
C39A C 0.0136(7) 0.3971(9) 0.6418(4)
H35A H 0.0298 0.4439 0.6390
C40A C 0.0588(6) 0.3731(8) 0.6388(3)
H36A H 0.1055 0.4028 0.6349
C41A C 0.0317(4) 0.3026(6) 0.6417(3)
C42A C 0.0740(4) 0.2705(6) 0.6359(3)
C43A C 0.1440(5) 0.3055(8) 0.6293(3)
H37A H 0.1684 0.3532 0.6303
C44A C 0.1782(4) 0.2690(7) 0.6210(3)
H38A H 0.2254 0.2920 0.6163
C45A C 0.1406(5) 0.1986(8) 0.6200(3)
H39A H 0.1616 0.1728 0.6143
C46A C 0.0698(4) 0.1666(6) 0.6277(3)
H40A H 0.0444 0.1190 0.6273
N1A N -0.3567(2) -0.1649(4) 0.74313(18)
N2A N -0.4611(3) -0.2869(4) 0.72879(17)
N5A N -0.0357(4) 0.2579(6) 0.6476(3)
N6A N 0.0376(3) 0.2013(5) 0.6353(2)
O1A O -0.4338(2) -0.0982(3) 0.71905(18)
O2A O -0.4075(3) -0.0991(4) 0.6478(2)
O3A O -0.1543(3) 0.1283(4) 0.6689(2)
O4A O -0.2081(4) 0.0837(6) 0.6063(3)
O5A O -0.4310(3) 0.1221(4) 0.6226(3)
O6A O -0.3772(3) 0.1057(4) 0.5657(2)
O13A O -0.0835(6) 0.1235(8) 0.5738(3)
Cu1B Cu 0.19332(4) -0.25903(3) 0.72259(2)
Cu3B Cu -0.15847(6) -0.22002(5) 0.64952(4)
C1B C 0.0699(4) -0.3451(3) 0.6800(3)
C2B C -0.0024(6) -0.4049(4) 0.6738(4)
H1B H -0.0003 -0.4411 0.6575
H2B H -0.0221 -0.4227 0.7033
C3B C -0.0484(5) -0.3853(4) 0.6485(3)
H3B H -0.0270 -0.3655 0.6195
C4B C -0.0580(6) -0.3318(4) 0.6744(3)
H4B H -0.0847 -0.3531 0.7013
H5B H -0.0134 -0.2954 0.6840
C5B C -0.0930(5) -0.3004(3) 0.6478(3)
C6B C -0.1203(6) -0.4480(4) 0.6393(4)
H6B H -0.1408 -0.4706 0.6676
H7B H -0.1495 -0.4325 0.6260
C7B C -0.1161(6) -0.4985(4) 0.6078(3)
C17B C 0.1007(5) -0.2052(4) 0.7505(3)
H17B H 0.0650 -0.2501 0.7479
C18B C 0.0858(5) -0.1545(4) 0.7617(3)
H18B H 0.0407 -0.1654 0.7666
C19B C 0.1376(6) -0.0888(4) 0.7654(3)
H19B H 0.1282 -0.0542 0.7728
C20B C 0.2048(6) -0.0733(4) 0.7583(3)
H20B H 0.2409 -0.0283 0.7601
C21B C 0.2169(4) -0.1268(3) 0.7483(2)
C22B C 0.2864(4) -0.1176(3) 0.7430(2)
C23B C 0.3444(6) -0.0580(4) 0.7519(3)
H21B H 0.3427 -0.0197 0.7619
C24B C 0.4076(6) -0.0559(4) 0.7457(3)
H22B H 0.4485 -0.0154 0.7509
C25B C 0.4085(6) -0.1132(4) 0.7321(3)
H23B H 0.4497 -0.1129 0.7288
C26B C 0.3469(4) -0.1715(3) 0.7234(2)
H24B H 0.3471 -0.2105 0.7134
C37B C -0.2831(8) -0.3613(5) 0.6510(4)
H33B H -0.2530 -0.3778 0.6548
C38B C -0.3537(9) -0.4081(6) 0.6490(4)
H34B H -0.3704 -0.4548 0.6525
C39B C -0.3971(9) -0.3835(6) 0.6418(4)
H35B H -0.4439 -0.4141 0.6390
C40B C -0.3731(8) -0.3143(5) 0.6388(3)
H36B H -0.4028 -0.2973 0.6349
C41B C -0.3026(6) -0.2709(5) 0.6417(3)
C42B C -0.2705(6) -0.1965(5) 0.6359(3)
C43B C -0.3055(8) -0.1615(6) 0.6293(3)
H37B H -0.3532 -0.1848 0.6303
C44B C -0.2690(7) -0.0908(6) 0.6210(3)
H38B H -0.2920 -0.0666 0.6163
C45B C -0.1986(8) -0.0580(6) 0.6200(3)
H39B H -0.1728 -0.0112 0.6143
C46B C -0.1666(6) -0.0968(4) 0.6277(3)
H40B H -0.1190 -0.0746 0.6273
N1B N 0.1649(4) -0.1918(3) 0.74313(18)
N2B N 0.2869(4) -0.1742(3) 0.72879(17)
N5B N -0.2579(6) -0.2936(4) 0.6476(3)
N6B N -0.2013(5) -0.1637(4) 0.6353(2)
O1B O 0.0982(3) -0.3356(2) 0.71905(18)
O2B O 0.0991(4) -0.3084(3) 0.6478(2)
O3B O -0.1283(4) -0.2826(3) 0.6689(2)
O4B O -0.0837(6) -0.2918(4) 0.6063(3)
O5B O -0.1221(4) -0.5531(3) 0.6226(3)
O6B O -0.1057(4) -0.4829(3) 0.5657(2)
O13B O -0.1235(8) -0.2070(6) 0.5738(3)
Cu2H Cu 0.56350(6) 0.45597(4) 0.54020(3)
C27H C 0.4572(7) 0.4973(6) 0.5470(4)
H25H H 0.4262 0.4507 0.5493
C28H C 0.4326(9) 0.5438(7) 0.5493(5)
H26H H 0.3861 0.5289 0.5521
C29H C 0.4809(9) 0.6120(7) 0.5473(5)
H27H H 0.4674 0.6445 0.5510
C30H C 0.5463(8) 0.6327(6) 0.5401(3)
H28H H 0.5780 0.6792 0.5372
C31H C 0.5672(8) 0.5843(5) 0.5371(3)
C32H C 0.6376(7) 0.5996(4) 0.5328(3)
C33H C 0.6973(12) 0.6694(6) 0.5298(5)
H29H H 0.6908 0.7070 0.5295
C34H C 0.7565(15) 0.6784(9) 0.5278(6)
H30H H 0.7933 0.7229 0.5257
C35H C 0.7709(14) 0.6182(9) 0.5286(6)
H31H H 0.8147 0.6238 0.5283
C36H C 0.7105(10) 0.5541(6) 0.5297(4)
H32H H 0.7148 0.5152 0.5285
N3H N 0.5234(6) 0.5179(4) 0.5418(3)
N4H N 0.6487(6) 0.5454(4) 0.5324(3)
Cu2A Cu 0.55913(4) 0.76983(6) 0.87353(3)
C27A C 0.7067(4) 0.8761(7) 0.8803(4)
H25A H 0.6911 0.9071 0.8826
C28A C 0.7778(5) 0.9007(9) 0.8826(5)
H26A H 0.8094 0.9472 0.8854
C29A C 0.7977(6) 0.8524(9) 0.8806(5)
H27A H 0.8437 0.8659 0.8843
C30A C 0.7530(6) 0.7870(8) 0.8734(3)
H28A H 0.7678 0.7553 0.8705
C31A C 0.6837(6) 0.7661(8) 0.8704(3)
C32A C 0.6286(6) 0.6957(7) 0.8661(3)
C33A C 0.6387(10) 0.6360(12) 0.8631(5)
H29A H 0.6828 0.6425 0.8628
C34A C 0.5885(12) 0.5768(15) 0.8611(6)
H30A H 0.5962 0.5400 0.8590
C35A C 0.5139(11) 0.5624(14) 0.8619(6)
H31A H 0.4757 0.5186 0.8616
C36A C 0.5102(8) 0.6228(10) 0.8630(4)
H32A H 0.4670 0.6185 0.8618
N3A N 0.6611(4) 0.8099(6) 0.8751(3)
N4A N 0.5633(5) 0.6846(6) 0.8657(3)
Cu1A_2 Cu 0.54765(3) 0.80668(4) 0.72259(2)
Cu1B_2 Cu 0.19332(4) 0.74097(3) 0.72259(2)
Cu2B Cu 0.23017(6) 0.78930(4) 0.87353(3)
Cu2F Cu -0.45597(4) 0.10754(4) 0.54020(3)
Cu2G Cu -0.10754(4) -0.56350(6) 0.54020(3)
O5D O 0.2357(3) 0.4554(4) 0.9559(3)
O5E O 0.5446(4) 0.7802(3) 0.9559(3)
O6D O 0.2895(3) 0.4390(4) 0.8990(2)
O6E O 0.5610(4) 0.8504(3) 0.8990(2)
O7A_2 O -0.53886(19) -0.22676(28) 0.69144(13)
O7B_2 O 0.22676(28) -0.3121(2) 0.69144(13)
O9A_2 O -0.4829(2) -0.2064(3) 0.79824(15)
O9B_2 O 0.2064(3) -0.2765(2) 0.79824(15)
O9H O 0.5397(3) 0.3902(2) 0.46491(15)
O10H O 0.6053(4) 0.4014(3) 0.52344(15)
C47 C -0.1121(8) 0.2044(8) 0.7668(6)
H41 H -0.0982 0.1879 0.7427
C48 C -0.167(3) 0.2005(12) 0.8405(9)
H42 H -0.1366 0.2486 0.8357
H43 H -0.1480 0.1844 0.8633
H44 H -0.2108 0.1928 0.8502
C49 C -0.2176(11) 0.0880(10) 0.7891(8)
H45 H -0.1887 0.0683 0.7852
H46 H -0.2450 0.0799 0.7626
H47 H -0.2470 0.0673 0.8147
N7 N -0.1751(7) 0.1617(8) 0.7966(5)
O14 O -0.0835(7) 0.2629(9) 0.7799(7)
O15 O 0.1384(5) 0.0808(6) 0.8233(3)
O16 O 0.2312(5) 0.1179(6) 0.8859(3)
O17 O 0.3028(7) 0.3901(7) 0.5588(5)
O18 O 0.0631(8) 0.6345(10) 0.8148(6)
O19 O 0.3333 0.6667 0.5104(3)
loop_
_geom_bond_atom_site_label_1
_geom_bond_atom_site_label_2
_geom_bond_site_symmetry_1
_geom_bond_site_symmetry_2
Cu1 N1 1_555 1_555
Cu2 N3 1_555 1_555
Cu3 N5 1_555 1_555
C1 C2 1_555 1_555
C2 H1 1_555 1_555
H2 C2 1_555 1_555
C3 C2 1_555 1_555
H3 C3 1_555 1_555
C4 C3 1_555 1_555
H4 C4 1_555 1_555
H5 C4 1_555 1_555
C5 C4 1_555 1_555
C6 C3 1_555 1_555
H6 C6 1_555 1_555
H7 C6 1_555 1_555
C7 C6 1_555 1_555
C8 C9 1_555 1_555
C9 H8 1_555 1_555
H9 C9 1_555 1_555
C10 C9 1_555 1_555
H10 C10 1_555 1_555
C11 C12 1_555 1_555
C12 H11 1_555 1_555
H12 C12 1_555 1_555
C13 C12 1_555 1_555
H13 C13 1_555 1_555
C14 C15 1_555 1_555
C15 H14 1_555 1_555
H15 C15 1_555 1_555
C16 C15 1_555 1_555
H16 C16 1_555 1_555
C17 H17 1_555 1_555
C18 C17 1_555 1_555
H18 C18 1_555 1_555
C19 C18 1_555 1_555
H19 C19 1_555 1_555
C20 C19 1_555 1_555
H20 C20 1_555 1_555
C21 C20 1_555 1_555
C22 C21 1_555 1_555
C23 C22 1_555 1_555
H21 C23 1_555 1_555
C24 C23 1_555 1_555
H22 C24 1_555 1_555
C25 C24 1_555 1_555
H23 C25 1_555 1_555
C26 C25 1_555 1_555
H24 C26 1_555 1_555
C27 H25 1_555 1_555
C28 C27 1_555 1_555
H26 C28 1_555 1_555
C29 C28 1_555 1_555
H27 C29 1_555 1_555
C30 C29 1_555 1_555
H28 C30 1_555 1_555
C31 C30 1_555 1_555
C32 C31 1_555 1_555
C33 C32 1_555 1_555
H29 C33 1_555 1_555
C34 C33 1_555 1_555
H30 C34 1_555 1_555
C35 C34 1_555 1_555
H31 C35 1_555 1_555
C36 C35 1_555 1_555
H32 C36 1_555 1_555
C37 H33 1_555 1_555
C38 C37 1_555 1_555
H34 C38 1_555 1_555
C39 C38 1_555 1_555
H35 C39 1_555 1_555
C40 C39 1_555 1_555
H36 C40 1_555 1_555
C41 C40 1_555 1_555
C42 C41 1_555 1_555
C43 C42 1_555 1_555
H37 C43 1_555 1_555
C44 C43 1_555 1_555
H38 C44 1_555 1_555
C45 C44 1_555 1_555
H39 C45 1_555 1_555
C46 C45 1_555 1_555
H40 C46 1_555 1_555
N1 C17 1_555 1_555
N2 Cu1 1_555 1_555
N3 C27 1_555 1_555
N4 Cu2 1_555 1_555
N5 C37 1_555 1_555
N6 Cu3 1_555 1_555
O1 Cu1 1_555 1_555
O2 C1 1_555 1_555
O3 Cu3 1_555 1_555
O4 C5 1_555 1_555
O5 C7 1_555 1_555
O6 C7 1_555 1_555
O7 Cu1 1_555 1_555
O8 C8 1_555 1_555
O9 Cu1 1_555 1_555
O10 Cu2 1_555 1_555
O11 Cu3 1_555 1_555
O12 C14 1_555 1_555
O13 Cu3 1_555 1_555
C47 H41 1_555 1_555
C48 H42 1_555 1_555
H43 C48 1_555 1_555
H44 C48 1_555 1_555
C49 H45 1_555 1_555
H46 C49 1_555 1_555
H47 C49 1_555 1_555
N7 C47 1_555 1_555
O14 C47 1_555 1_555
C8A C9A 1_555 1_555
C9A C10 1_555 1_555
H8A C9A 1_555 1_555
H9A C9A 1_555 1_555
O7A C8A 1_555 1_555
O8A C8A 1_555 1_555
C8B C9B 1_555 1_555
C9B C10 1_555 1_555
H8B C9B 1_555 1_555
H9B C9B 1_555 1_555
O7B C8B 1_555 1_555
O8B C8B 1_555 1_555
C11A C12A 1_555 1_555
C12A C13 1_555 1_555
H11A C12A 1_555 1_555
H12A C12A 1_555 1_555
O9A C11A 1_555 1_555
O10A C11A 1_555 1_555
C11B C12B 1_555 1_555
C12B C13 1_555 1_555
H11B C12B 1_555 1_555
H12B C12B 1_555 1_555
O9B C11B 1_555 1_555
O10B C11B 1_555 1_555
C14A C15A 1_555 1_555
C15A C16 1_555 1_555
H14A C15A 1_555 1_555
H15A C15A 1_555 1_555
O11A C14A 1_555 1_555
O12A C14A 1_555 1_555
C14B C15B 1_555 1_555
C15B C16 1_555 1_555
H14B C15B 1_555 1_555
H15B C15B 1_555 1_555
O11B C14B 1_555 1_555
O12B C14B 1_555 1_555
Cu1A N1A 1_555 1_555
Cu3A O11A 1_555 1_555
C1A C2A 1_555 1_555
C2A H1A 1_555 1_555
H2A C2A 1_555 1_555
C3A C2A 1_555 1_555
H3A C3A 1_555 1_555
C4A C3A 1_555 1_555
H4A C4A 1_555 1_555
H5A C4A 1_555 1_555
C5A C4A 1_555 1_555
C6A C3A 1_555 1_555
H6A C6A 1_555 1_555
H7A C6A 1_555 1_555
C7A C6A 1_555 1_555
C17A H17A 1_555 1_555
C18A C17A 1_555 1_555
H18A C18A 1_555 1_555
C19A C18A 1_555 1_555
H19A C19A 1_555 1_555
C20A C19A 1_555 1_555
H20A C20A 1_555 1_555
C21A C20A 1_555 1_555
C22A C21A 1_555 1_555
C23A C22A 1_555 1_555
H21A C23A 1_555 1_555
C24A C23A 1_555 1_555
H22A C24A 1_555 1_555
C25A C24A 1_555 1_555
H23A C25A 1_555 1_555
C26A C25A 1_555 1_555
H24A C26A 1_555 1_555
C37A H33A 1_555 1_555
C38A C37A 1_555 1_555
H34A C38A 1_555 1_555
C39A C38A 1_555 1_555
H35A C39A 1_555 1_555
C40A C39A 1_555 1_555
H36A C40A 1_555 1_555
C41A C40A 1_555 1_555
C42A C41A 1_555 1_555
C43A C42A 1_555 1_555
H37A C43A 1_555 1_555
C44A C43A 1_555 1_555
H38A C44A 1_555 1_555
C45A C44A 1_555 1_555
H39A C45A 1_555 1_555
C46A C45A 1_555 1_555
H40A C46A 1_555 1_555
N1A C17A 1_555 1_555
N2A Cu1A 1_555 1_555
N5A Cu3A 1_555 1_555
N6A Cu3A 1_555 1_555
O1A Cu1A 1_555 1_555
O2A C1A 1_555 1_555
O3A Cu3A 1_555 1_555
O4A C5A 1_555 1_555
O5A C7A 1_555 1_555
O6A C7A 1_555 1_555
O13A Cu3A 1_555 1_555
Cu1B N1B 1_555 1_555
Cu3B O11B 1_555 1_555
C1B C2B 1_555 1_555
C2B H1B 1_555 1_555
H2B C2B 1_555 1_555
C3B C2B 1_555 1_555
H3B C3B 1_555 1_555
C4B C3B 1_555 1_555
H4B C4B 1_555 1_555
H5B C4B 1_555 1_555
C5B C4B 1_555 1_555
C6B C3B 1_555 1_555
H6B C6B 1_555 1_555
H7B C6B 1_555 1_555
C7B C6B 1_555 1_555
C17B H17B 1_555 1_555
C18B C17B 1_555 1_555
H18B C18B 1_555 1_555
C19B C18B 1_555 1_555
H19B C19B 1_555 1_555
C20B C19B 1_555 1_555
H20B C20B 1_555 1_555
C21B C20B 1_555 1_555
C22B C21B 1_555 1_555
C23B C22B 1_555 1_555
H21B C23B 1_555 1_555
C24B C23B 1_555 1_555
H22B C24B 1_555 1_555
C25B C24B 1_555 1_555
H23B C25B 1_555 1_555
C26B C25B 1_555 1_555
H24B C26B 1_555 1_555
C37B H33B 1_555 1_555
C38B C37B 1_555 1_555
H34B C38B 1_555 1_555
C39B C38B 1_555 1_555
H35B C39B 1_555 1_555
C40B C39B 1_555 1_555
H36B C40B 1_555 1_555
C41B C40B 1_555 1_555
C42B C41B 1_555 1_555
C43B C42B 1_555 1_555
H37B C43B 1_555 1_555
C44B C43B 1_555 1_555
H38B C44B 1_555 1_555
C45B C44B 1_555 1_555
H39B C45B 1_555 1_555
C46B C45B 1_555 1_555
H40B C46B 1_555 1_555
N1B C17B 1_555 1_555
N2B Cu1B 1_555 1_555
N5B Cu3B 1_555 1_555
N6B Cu3B 1_555 1_555
O1B Cu1B 1_555 1_555
O2B C1B 1_555 1_555
O3B Cu3B 1_555 1_555
O4B C5B 1_555 1_555
O5B C7B 1_555 1_555
O6B C7B 1_555 1_555
O13B Cu3B 1_555 1_555
Cu2H O5 1_555 1_555
C27H H25H 1_555 1_555
C28H C27H 1_555 1_555
H26H C28H 1_555 1_555
C29H C28H 1_555 1_555
H27H C29H 1_555 1_555
C30H C29H 1_555 1_555
H28H C30H 1_555 1_555
C31H C30H 1_555 1_555
C32H C31H 1_555 1_555
C33H C32H 1_555 1_555
H29H C33H 1_555 1_555
C34H C33H 1_555 1_555
H30H C34H 1_555 1_555
C35H C34H 1_555 1_555
H31H C35H 1_555 1_555
C36H C35H 1_555 1_555
H32H C36H 1_555 1_555
N3H Cu2H 1_555 1_555
N4H Cu2H 1_555 1_555
Cu2A O9A 1_555 1_555
C27A H25A 1_555 1_555
C28A C27A 1_555 1_555
H26A C28A 1_555 1_555
C29A C28A 1_555 1_555
H27A C29A 1_555 1_555
C30A C29A 1_555 1_555
H28A C30A 1_555 1_555
C31A C30A 1_555 1_555
C32A C31A 1_555 1_555
C33A C32A 1_555 1_555
H29A C33A 1_555 1_555
C34A C33A 1_555 1_555
H30A C34A 1_555 1_555
C35A C34A 1_555 1_555
H31A C35A 1_555 1_555
C36A C35A 1_555 1_555
H32A C36A 1_555 1_555
N3A Cu2A 1_555 1_555
N4A Cu2A 1_555 1_555
Cu1A_2 O7A 1_555 1_555
Cu1B_2 O7B 1_555 1_555
Cu2B O9B 1_555 1_555
Cu2F O5A 1_555 1_555
Cu2G O5B 1_555 1_555
O5D Cu2 1_555 1_555
O5E Cu2A 1_555 1_555
O6D Cu2 1_555 1_555
O6E Cu2A 1_555 1_555
O7A_2 Cu1A 1_555 1_555
O7B_2 Cu1B 1_555 1_555
O9A_2 Cu1A 1_555 1_555
O9B_2 Cu1B 1_555 1_555
O9H Cu2H 1_555 1_555
O10H Cu2H 1_555 1_555
Cu2 O9 1_555 1_555
C1 O1 1_555 1_555
C5 O3 1_555 1_555
C8 O7 1_555 1_555
C11 O9 1_555 1_555
C11 O10 1_555 1_555
C14 O11 1_555 1_555
C21 N1 1_555 1_555
C22 N2 1_555 1_555
C26 N2 1_555 1_555
C31 N3 1_555 1_555
C32 N4 1_555 1_555
C36 N4 1_555 1_555
C41 N5 1_555 1_555
C42 N6 1_555 1_555
C46 N6 1_555 1_555
O6 Cu2H 1_555 1_555
C48 N7 1_555 1_555
C49 N7 1_555 1_555
O9A Cu1A_2 1_555 1_555
O10A Cu2A 1_555 1_555
O9B Cu1B_2 1_555 1_555
O10B Cu2B 1_555 1_555
C1A O1A 1_555 1_555
C5A O3A 1_555 1_555
C21A N1A 1_555 1_555
C22A N2A 1_555 1_555
C26A N2A 1_555 1_555
C37A N5A 1_555 1_555
C41A N5A 1_555 1_555
C42A N6A 1_555 1_555
C46A N6A 1_555 1_555
O6A Cu2F 1_555 1_555
C1B O1B 1_555 1_555
C5B O3B 1_555 1_555
C21B N1B 1_555 1_555
C22B N2B 1_555 1_555
C26B N2B 1_555 1_555
C37B N5B 1_555 1_555
C41B N5B 1_555 1_555
C42B N6B 1_555 1_555
C46B N6B 1_555 1_555
O6B Cu2G 1_555 1_555
C27H N3H 1_555 1_555
C31H N3H 1_555 1_555
C32H N4H 1_555 1_555
C36H N4H 1_555 1_555
C27A N3A 1_555 1_555
C31A N3A 1_555 1_555
C32A N4A 1_555 1_555
C36A N4A 1_555 1_555

#END
