
#######################################################################
#
#                 Cambridge Crystallographic Data Centre
#                                CCDC 
#
#######################################################################
#
# If this CIF has been generated from an entry in the Cambridge 
# Structural Database, then it will include bibliographic, chemical, 
# crystal, experimental, refinement or atomic coordinate data resulting 
# from the CCDC's data processing and validation procedures.
#
#######################################################################

data_MUGXIX
_chemical_formula_moiety         '(C30 H22 N1 O7 Tb1)n'
_symmetry_cell_setting           monoclinic
_symmetry_space_group_name_H-M   'P 21/c'
_symmetry_Int_Tables_number      14
_space_group_name_Hall           '-P 2ybc'
loop_
_symmetry_equiv_pos_site_id
_symmetry_equiv_pos_as_xyz
1 x,y,z
2 -x,1/2+y,1/2-z
3 -x,-y,-z
4 x,1/2-y,1/2+z
_cell_length_a                   8.0491(5)
_cell_length_b                   16.7053(13)
_cell_length_c                   27.170(2)
_cell_angle_alpha                90
_cell_angle_beta                 96.675(7)
_cell_angle_gamma                90
_cell_volume                     3628.59
loop_
_atom_site_label
_atom_site_type_symbol
_atom_site_fract_x
_atom_site_fract_y
_atom_site_fract_z
Tb1 Tb 0.26113(3) 0.512451(16) 0.518300(9)
O1 O -0.6045(5) 0.0756(3) 0.08404(14)
O2 O -0.1628(5) 0.8776(3) -0.00233(14)
O3 O -0.4902(4) 0.0835(2) 0.01367(12)
O4 O 0.1163(5) 0.8668(2) 0.00257(14)
O5 O -0.0334(5) 0.4956(2) 0.43743(14)
N1 N 0.5822(6) 0.6657(3) 0.63722(18)
C1 C -0.5137(7) 0.1124(4) 0.0568(2)
C2 C 0.7472(8) 0.7031(5) 0.6463(3)
H1 H 0.8179 0.6716 0.6697
H2 H 0.7361 0.7560 0.6594
H3 H 0.7960 0.7064 0.6157
C3 C -0.0379(7) 0.7590(4) 0.0310(2)
C4 C -0.3627(7) 0.2406(4) 0.0409(2)
H4 H -0.3599 0.2256 0.0081
C5 C -0.1796(8) 0.7129(4) 0.0216(2)
H5 H -0.2652 0.7294 -0.0022
C6 C -0.4456(7) 0.2159(4) 0.1214(2)
H6 H -0.4996 0.1844 0.1428
C7 C -0.3749(8) 0.2865(4) 0.1378(2)
H7 H -0.3810 0.3016 0.1705
C8 C 0.0867(6) 0.4983(3) 0.41138(19)
C9 C 0.5263(7) 0.6325(4) 0.5944(2)
H8 H 0.5947 0.6347 0.5691
C10 C -0.0268(6) 0.8411(3) 0.00780(19)
C11 C 0.0467(7) 0.4967(4) 0.3555(2)
C12 C -0.4382(7) 0.1903(4) 0.0726(2)
C13 C 0.0923(7) 0.7325(4) 0.0656(2)
H9 H 0.1912 0.7616 0.0706
C14 C -0.0271(7) 0.4904(4) 0.2529(2)
C15 C -0.0706(8) 0.6174(4) 0.0839(2)
C16 C -0.2922(7) 0.3377(4) 0.1070(2)
C17 C -0.0945(7) 0.5457(4) 0.1159(2)
C18 C -0.1962(8) 0.6423(4) 0.0471(2)
H10 H -0.2915 0.6110 0.0397
C19 C -0.0728(8) 0.4861(4) 0.1979(2)
C20 C -0.2076(7) 0.4122(4) 0.1267(2)
C21 C -0.1790(7) 0.4760(4) 0.0961(2)
H11 H -0.2152 0.4732 0.0624
C22 C -0.2921(7) 0.3123(4) 0.0575(2)
H12 H -0.2431 0.3448 0.0354
C23 C -0.1484(9) 0.4764(5) 0.2835(2)
H13 H -0.2563 0.4643 0.2694
C24 C 0.1339(8) 0.5089(4) 0.2740(2)
H14 H 0.2168 0.5200 0.2539
C25 C 0.0753(7) 0.6629(4) 0.0925(2)
H15 H 0.1612 0.6467 0.1163
C26 C -0.1146(8) 0.4795(5) 0.3352(2)
H16 H -0.1986 0.4703 0.3553
C27 C 0.1716(7) 0.5108(4) 0.3257(2)
H17 H 0.2801 0.5215 0.3399
C28 C -0.1534(8) 0.4182(4) 0.1778(2)
H18 H -0.1722 0.3757 0.1985
C29 C -0.0408(8) 0.5496(4) 0.1666(2)
H19 H 0.0164 0.5946 0.1797
O6 O 0.2387(5) 0.5037(3) 0.42784(15)
O7 O 0.3894(5) 0.5987(3) 0.58549(14)
C30 C 0.481(2) 0.668(2) 0.6786(5)
H20 H 0.5318 0.6342 0.7049
H21 H 0.3706 0.6483 0.6677
H22 H 0.4743 0.7216 0.6903
Tb1A Tb -0.26113(3) 0.012451(16) -0.018300(9)
Tb1A_2 Tb -0.26113(3) 1.012451(16) -0.018300(9)
Tb1B Tb -0.26113(3) 0.487549(16) 0.481700(9)
Tb1C Tb -0.73887(3) -0.012451(16) 0.018300(9)
Tb1C_2 Tb 0.26113(3) 0.987549(16) 0.018300(9)
O1C O 0.3955(5) 0.4244(3) 0.58404(14)
O2A O 0.1628(5) 0.3776(3) 0.50233(14)
O3A O 0.4902(4) 0.5835(2) 0.48633(12)
O3C O 0.5098(4) 0.4165(2) 0.51367(12)
O4C O 0.1163(5) 0.6332(2) 0.50257(14)
O5B O 0.0334(5) 0.5044(2) 0.56257(14)
loop_
_geom_bond_atom_site_label_1
_geom_bond_atom_site_label_2
_geom_bond_site_symmetry_1
_geom_bond_site_symmetry_2
Tb1 O6 1_555 1_555
O1 C1 1_555 1_555
O2 C10 1_555 1_555
O3 C1 1_555 1_555
O4 C10 1_555 1_555
O5 C8 1_555 1_555
N1 C2 1_555 1_555
C1 C12 1_555 1_555
C2 H1 1_555 1_555
H2 C2 1_555 1_555
H3 C2 1_555 1_555
C3 C5 1_555 1_555
C4 H4 1_555 1_555
C5 H5 1_555 1_555
C6 H6 1_555 1_555
C7 C6 1_555 1_555
H7 C7 1_555 1_555
C8 C11 1_555 1_555
C9 N1 1_555 1_555
H8 C9 1_555 1_555
C10 C3 1_555 1_555
C11 C26 1_555 1_555
C12 C4 1_555 1_555
C13 C3 1_555 1_555
H9 C13 1_555 1_555
C14 C19 1_555 1_555
C15 C17 1_555 1_555
C16 C7 1_555 1_555
C17 C21 1_555 1_555
C18 C5 1_555 1_555
H10 C18 1_555 1_555
C19 C28 1_555 1_555
C20 C16 1_555 1_555
C21 C20 1_555 1_555
H11 C21 1_555 1_555
C22 C4 1_555 1_555
H12 C22 1_555 1_555
C23 C14 1_555 1_555
H13 C23 1_555 1_555
C24 C14 1_555 1_555
H14 C24 1_555 1_555
C25 C13 1_555 1_555
H15 C25 1_555 1_555
C26 C23 1_555 1_555
H16 C26 1_555 1_555
C27 C11 1_555 1_555
H17 C27 1_555 1_555
C28 C20 1_555 1_555
H18 C28 1_555 1_555
C29 C17 1_555 1_555
H19 C29 1_555 1_555
O6 C8 1_555 1_555
O7 Tb1 1_555 1_555
C30 N1 1_555 1_555
H20 C30 1_555 1_555
H21 C30 1_555 1_555
H22 C30 1_555 1_555
Tb1A O3 1_555 1_555
Tb1A_2 O2 1_555 1_555
Tb1B O5 1_555 1_555
Tb1C O1 1_555 1_555
Tb1C_2 O4 1_555 1_555
O1C Tb1 1_555 1_555
O2A Tb1 1_555 1_555
O3A Tb1 1_555 1_555
O3C Tb1 1_555 1_555
O4C Tb1 1_555 1_555
O5B Tb1 1_555 1_555
O3 Tb1C 1_555 1_555
C6 C12 1_555 1_555
C9 O7 1_555 1_555
C15 C18 1_555 1_555
C15 C25 1_555 1_555
C16 C22 1_555 1_555
C19 C29 1_555 1_555
C24 C27 1_555 1_555

#END
