
#######################################################################
#
#                 Cambridge Crystallographic Data Centre
#                                CCDC 
#
#######################################################################
#
# If this CIF has been generated from an entry in the Cambridge 
# Structural Database, then it will include bibliographic, chemical, 
# crystal, experimental, refinement or atomic coordinate data resulting 
# from the CCDC's data processing and validation procedures.
#
#######################################################################

data_KUHZET
_chemical_formula_moiety         '(C54 H48 Mn2 N8 O14 S2)n'
_symmetry_cell_setting           monoclinic
_symmetry_space_group_name_H-M   'C 2/c'
_symmetry_Int_Tables_number      15
_space_group_name_Hall           '-C 2yc'
loop_
_symmetry_equiv_pos_site_id
_symmetry_equiv_pos_as_xyz
1 x,y,z
2 -x,y,1/2-z
3 1/2+x,1/2+y,z
4 1/2-x,1/2+y,1/2-z
5 -x,-y,-z
6 x,-y,1/2+z
7 1/2-x,1/2-y,-z
8 1/2+x,1/2-y,1/2+z
_cell_length_a                   37.011(3)
_cell_length_b                   8.5952(7)
_cell_length_c                   26.729(2)
_cell_angle_alpha                90
_cell_angle_beta                 129.2310(10)
_cell_angle_gamma                90
_cell_volume                     6586.4
loop_
_atom_site_label
_atom_site_type_symbol
_atom_site_fract_x
_atom_site_fract_y
_atom_site_fract_z
C1 C 0.86414(8) 0.6671(5) 0.85498(14)
H1 H 0.8469 0.7096 0.8138
C2 C 0.91078(9) 0.6390(6) 0.88788(15)
H2 H 0.9242 0.6612 0.8687
C3 C 0.91534(9) 0.5408(6) 0.97300(15)
H3 H 0.9316 0.4951 1.0135
C4 C 0.86827(8) 0.5708(5) 0.93703(13)
H4 H 0.8537 0.5437 0.9541
C5 C 0.65562(6) 0.6760(3) 0.68743(11)
H5 H 0.6694 0.7408 0.6759
C6 C 0.60796(6) 0.6558(3) 0.64480(11)
H6 H 0.5907 0.7079 0.6054
C7 C 0.58485(6) 0.5612(3) 0.65823(11)
C8 C 0.61325(6) 0.4891(3) 0.71711(11)
H7 H 0.5999 0.4229 0.7289
C9 C 0.66105(6) 0.5110(3) 0.75977(10)
H8 H 0.6787 0.4602 0.7994
C10 C 0.53444(7) 0.5417(3) 0.61250(12)
H9 H 0.5188 0.6219 0.5825
C11 C 0.50904(7) 0.4401(3) 0.60624(14)
H10 H 0.5246 0.3560 0.6341
C12 C 0.45847(8) 0.4277(4) 0.56250(15)
C13 C 0.42932(9) 0.5268(4) 0.51138(16)
H11 H 0.4424 0.6066 0.5040
C14 C 0.38125(10) 0.5123(5) 0.47044(18)
H12 H 0.3629 0.5854 0.4380
C15 C 0.38787(10) 0.3004(5) 0.5283(2)
H13 H 0.3742 0.2251 0.5366
C16 C 0.43565(9) 0.3138(4) 0.56919(18)
H14 H 0.4533 0.2428 0.6028
Mn1 Mn 0.762831(18) 0.62795(6) 0.81378(2)
S1 S 0.83614(3) 0.58718(14) 0.67211(5)
O1 O 0.76326(9) 0.6148(3) 0.73236(11)
O2 O 0.74128(10) 0.3708(3) 0.70301(13)
O3 O 0.86062(12) 0.5075(5) 0.73236(14)
O4 O 0.85615(12) 0.7239(4) 0.66780(17)
O5 O 0.76696(14) 0.5941(4) 0.42944(15)
O6 O 0.76957(10) 0.3531(3) 0.40087(12)
O7 O 0.77509(11) 0.3827(3) 0.83636(13)
H15 H 0.7784 0.3661 0.8693
H16 H 0.7603 0.3133 0.8091
N1 N 0.78576(11) 0.6368(4) 0.64889(15)
H17 H 0.7773 0.7327 0.6413
N2 N 0.68279(12) 0.6046(4) 0.74529(16)
N3 N 0.36061(17) 0.3934(8) 0.4769(3)
N4 N 0.84270(11) 0.6375(4) 0.87831(17)
C17 C 0.75375(11) 0.4987(4) 0.69723(16)
C18 C 0.75434(13) 0.5165(4) 0.64087(17)
H18 H 0.7229 0.5399 0.6022
H19 H 0.7631 0.4175 0.6340
C19 C 0.82586(12) 0.4483(5) 0.61481(17)
C20 C 0.83517(14) 0.2937(6) 0.63080(19)
H20 H 0.8477 0.2602 0.6720
C21 C 0.82561(15) 0.1877(5) 0.5844(2)
H21 H 0.8319 0.0826 0.5948
C22 C 0.80671(14) 0.2377(5) 0.52288(18)
H22 H 0.8005 0.1664 0.4921
C23 C 0.79702(12) 0.3948(4) 0.50722(17)
C24 C 0.80655(13) 0.5010(5) 0.55364(17)
H23 H 0.8000 0.6061 0.5436
C25 C 0.77585(14) 0.4525(5) 0.44043(18)
C26 C 0.93799(17) 0.5770(7) 0.9502(3)
C27 C 0.9872(2) 0.5393(8) 0.9864(5)
H24 H 1.0007 0.6249 0.9827
C1D C 1.13586(8) 0.3329(5) 1.14502(14)
H1D H 1.1531 0.2904 1.1862
C2D C 1.08922(9) 0.3610(6) 1.11212(15)
H2D H 1.0758 0.3388 1.1313
C3D C 1.08466(9) 0.4592(6) 1.02700(15)
H3D H 1.0684 0.5049 0.9865
C4D C 1.13173(8) 0.4292(5) 1.06297(13)
H4D H 1.1463 0.4563 1.0459
C5C C 0.84438(6) 1.1760(3) 0.81257(11)
H5C H 0.8306 1.2408 0.8241
C6C C 0.89204(6) 1.1558(3) 0.85520(11)
H6C H 0.9093 1.2079 0.8946
C7C C 0.91515(6) 1.0612(3) 0.84177(11)
C8C C 0.88675(6) 0.9891(3) 0.78289(11)
H7C H 0.9001 0.9229 0.7711
C9C C 0.83895(6) 1.0110(3) 0.74023(10)
H8C H 0.8213 0.9602 0.7006
C10C C 0.96556(7) 1.0417(3) 0.88750(12)
H9C H 0.9812 1.1219 0.9175
C11C C 0.99096(7) 0.9401(3) 0.89376(14)
H10C H 0.9754 0.8560 0.8659
C12C C 1.04153(8) 0.9277(4) 0.93750(15)
C13C C 1.07068(9) 1.0268(4) 0.98862(16)
H11C H 1.0576 1.1066 0.9960
C14C C 1.11875(10) 1.0123(5) 1.02956(18)
H12C H 1.1371 1.0854 1.0620
C15C C 1.11213(10) 0.8004(5) 0.9717(2)
H13C H 1.1258 0.7251 0.9634
C16C C 1.06435(9) 0.8138(4) 0.93081(18)
H14C H 1.0467 0.7428 0.8972
Mn1C Mn 0.737169(18) 1.12795(6) 0.68622(2)
Mn1C_2 Mn 0.737169(18) 0.12795(6) 0.68622(2)
Mn1E Mn 0.762831(18) 0.37205(6) 0.31378(2)
Mn1D Mn 1.237169(18) 0.37205(6) 1.18622(2)
Mn1F Mn 0.737169(18) 0.87205(6) 1.18622(2)
S1C S 0.66386(3) 1.08718(14) 0.82789(5)
O1C O 0.73674(9) 1.1148(3) 0.76764(11)
O2C O 0.75872(10) 0.8708(3) 0.79699(13)
O2_2 O 0.74128(10) 1.3708(3) 0.70301(13)
O3C O 0.63938(12) 1.0075(5) 0.76764(14)
O4C O 0.64385(12) 1.2239(4) 0.83220(17)
O5C O 0.73304(14) 1.0941(4) 1.07056(15)
O6C O 0.73043(10) 0.8531(3) 1.09913(12)
O6E O 0.76957(10) 0.6469(3) 0.90087(12)
O6F O 0.73043(10) 1.1469(3) 0.59913(12)
O7C O 0.72491(11) 0.8827(3) 0.66364(13)
H15C H 0.7216 0.8661 0.6307
H16C H 0.7397 0.8133 0.6909
N1C N 0.71424(11) 1.1368(4) 0.85111(15)
H17C H 0.7227 1.2327 0.8587
N2C N 0.81721(12) 1.1046(4) 0.75471(16)
N3C N 1.13939(17) 0.8934(8) 1.0231(3)
N4D N 1.15730(11) 0.3625(4) 1.12169(17)
N4C N 0.65730(11) 1.1375(4) 0.62169(17)
C17C C 0.74625(11) 0.9987(4) 0.80277(16)
C18C C 0.74566(13) 1.0165(4) 0.85913(17)
H18C H 0.7771 1.0399 0.8978
H19C H 0.7369 0.9175 0.8660
C19C C 0.67414(12) 0.9483(5) 0.88519(17)
C20C C 0.66483(14) 0.7937(6) 0.86920(19)
H20C H 0.6523 0.7602 0.8280
C21C C 0.67439(15) 0.6877(5) 0.9156(2)
H21C H 0.6681 0.5826 0.9052
C22C C 0.69329(14) 0.7377(5) 0.97712(18)
H22C H 0.6995 0.6664 1.0079
C23C C 0.70298(12) 0.8948(4) 0.99278(17)
C24C C 0.69345(13) 1.0010(5) 0.94636(17)
H23C H 0.7000 1.1061 0.9564
C25C C 0.72415(14) 0.9525(5) 1.05957(18)
C26D C 1.06201(17) 0.4230(7) 1.0498(3)
C27D C 1.0128(2) 0.4607(8) 1.0136(5)
H24D H 0.9993 0.3751 1.0173
loop_
_geom_bond_atom_site_label_1
_geom_bond_atom_site_label_2
_geom_bond_site_symmetry_1
_geom_bond_site_symmetry_2
C1 H1 1_555 1_555
C2 C1 1_555 1_555
H2 C2 1_555 1_555
C3 H3 1_555 1_555
C4 C3 1_555 1_555
H4 C4 1_555 1_555
C5 H5 1_555 1_555
C6 C5 1_555 1_555
H6 C6 1_555 1_555
C7 C6 1_555 1_555
C8 C7 1_555 1_555
H7 C8 1_555 1_555
C9 C8 1_555 1_555
H8 C9 1_555 1_555
C10 C7 1_555 1_555
H9 C10 1_555 1_555
C11 C10 1_555 1_555
H10 C11 1_555 1_555
C12 C11 1_555 1_555
C13 C12 1_555 1_555
H11 C13 1_555 1_555
C14 C13 1_555 1_555
H12 C14 1_555 1_555
C15 H13 1_555 1_555
C16 C12 1_555 1_555
H14 C16 1_555 1_555
Mn1 O1 1_555 1_555
S1 O3 1_555 1_555
O1 C17 1_555 1_555
O2 C17 1_555 1_555
O4 S1 1_555 1_555
O5 C25 1_555 1_555
O6 C25 1_555 1_555
O7 Mn1 1_555 1_555
H15 O7 1_555 1_555
H16 O7 1_555 1_555
N1 S1 1_555 1_555
H17 N1 1_555 1_555
N2 C5 1_555 1_555
N3 C14 1_555 1_555
N4 C1 1_555 1_555
C17 C18 1_555 1_555
C18 N1 1_555 1_555
H18 C18 1_555 1_555
H19 C18 1_555 1_555
C19 S1 1_555 1_555
C20 C19 1_555 1_555
H20 C20 1_555 1_555
C21 C20 1_555 1_555
H21 C21 1_555 1_555
C22 C21 1_555 1_555
H22 C22 1_555 1_555
C23 C22 1_555 1_555
C24 C19 1_555 1_555
H23 C24 1_555 1_555
C25 C23 1_555 1_555
C26 C2 1_555 1_555
C27 C26 1_555 1_555
H24 C27 1_555 1_555
C1D H1D 1_555 1_555
C2D C1D 1_555 1_555
H2D C2D 1_555 1_555
C3D H3D 1_555 1_555
C4D C3D 1_555 1_555
H4D C4D 1_555 1_555
C5C H5C 1_555 1_555
C6C C5C 1_555 1_555
H6C C6C 1_555 1_555
C7C C6C 1_555 1_555
C8C C7C 1_555 1_555
H7C C8C 1_555 1_555
C9C C8C 1_555 1_555
H8C C9C 1_555 1_555
C10C C7C 1_555 1_555
H9C C10C 1_555 1_555
C11C C10C 1_555 1_555
H10C C11C 1_555 1_555
C12C C11C 1_555 1_555
C13C C12C 1_555 1_555
H11C C13C 1_555 1_555
C14C C13C 1_555 1_555
H12C C14C 1_555 1_555
C15C H13C 1_555 1_555
C16C C12C 1_555 1_555
H14C C16C 1_555 1_555
Mn1C O1C 1_555 1_555
Mn1C_2 O2 1_555 1_555
Mn1E O6 1_555 1_555
Mn1D N4D 1_555 1_555
Mn1F O6C 1_555 1_555
S1C O3C 1_555 1_555
O1C C17C 1_555 1_555
O2C Mn1 1_555 1_555
O2_2 Mn1C 1_555 1_555
O4C S1C 1_555 1_555
O5C C25C 1_555 1_555
O6C C25C 1_555 1_555
O6E Mn1 1_555 1_555
O6F Mn1C 1_555 1_555
O7C Mn1C 1_555 1_555
H15C O7C 1_555 1_555
H16C O7C 1_555 1_555
N1C S1C 1_555 1_555
H17C N1C 1_555 1_555
N2C C5C 1_555 1_555
N3C C14C 1_555 1_555
N4D C1D 1_555 1_555
N4C Mn1C 1_555 1_555
C17C O2C 1_555 1_555
C18C N1C 1_555 1_555
H18C C18C 1_555 1_555
H19C C18C 1_555 1_555
C19C S1C 1_555 1_555
C20C C19C 1_555 1_555
H20C C20C 1_555 1_555
C21C C20C 1_555 1_555
H21C C21C 1_555 1_555
C22C C21C 1_555 1_555
H22C C22C 1_555 1_555
C23C C22C 1_555 1_555
C24C C19C 1_555 1_555
H23C C24C 1_555 1_555
C25C C23C 1_555 1_555
C26D C2D 1_555 1_555
C27D C27 1_555 1_555
H24D C27D 1_555 1_555
C3 C26 1_555 1_555
C4 N4 1_555 1_555
C9 N2 1_555 1_555
C15 C16 1_555 1_555
C15 N3 1_555 1_555
Mn1 N2 1_555 1_555
Mn1 N4 1_555 1_555
C23 C24 1_555 1_555
C3D C26D 1_555 1_555
C4D N4D 1_555 1_555
C9C N2C 1_555 1_555
C15C C16C 1_555 1_555
C15C N3C 1_555 1_555
Mn1C N2C 1_555 1_555
C17C C18C 1_555 1_555
C23C C24C 1_555 1_555
C26D C27D 1_555 1_555

#END
