
#######################################################################
#
#                 Cambridge Crystallographic Data Centre
#                                CCDC 
#
#######################################################################
#
# If this CIF has been generated from an entry in the Cambridge 
# Structural Database, then it will include bibliographic, chemical, 
# crystal, experimental, refinement or atomic coordinate data resulting 
# from the CCDC's data processing and validation procedures.
#
#######################################################################

data_BINMIW
_chemical_formula_moiety         '(C105 H91 N9 O17 Zn4)n'
_symmetry_cell_setting           monoclinic
_symmetry_space_group_name_H-M   'P 21/n'
_symmetry_Int_Tables_number      14
_space_group_name_Hall           '-P 2yn'
loop_
_symmetry_equiv_pos_site_id
_symmetry_equiv_pos_as_xyz
1 x,y,z
2 1/2-x,1/2+y,1/2-z
3 -x,-y,-z
4 1/2+x,1/2-y,1/2+z
_cell_length_a                   12.2950(4)
_cell_length_b                   30.7547(10)
_cell_length_c                   24.7649(9)
_cell_angle_alpha                90
_cell_angle_beta                 97.530(1)
_cell_angle_gamma                90
_cell_volume                     9283.57
loop_
_atom_site_label
_atom_site_type_symbol
_atom_site_fract_x
_atom_site_fract_y
_atom_site_fract_z
Zn1 Zn 0.58151(5) 0.26267(2) 0.20692(3)
Zn2 Zn 0.37930(5) 0.27096(2) 0.25387(3)
Zn3 Zn 0.78026(6) 0.14301(2) 0.06244(3)
Zn4 Zn 0.68886(6) 0.12964(3) -0.07907(3)
N1 N 0.7196(4) 0.25248(17) 0.1687(2)
N2 N 0.8006(4) 0.20387(17) 0.1062(2)
N3 N 0.9188(4) 0.2415(2) 0.1795(3)
N4 N 0.8274(5) 0.28251(19) 0.1019(3)
C1 C 0.7064(5) 0.2119(2) 0.1366(2)
H1 H 0.6383 0.2136 0.1105
H2 H 0.6989 0.1871 0.1613
C2 C 0.8244(5) 0.2485(3) 0.2079(3)
H3 H 0.8354 0.2753 0.2300
H4 H 0.8176 0.2238 0.2330
C3 C 0.7338(6) 0.2894(2) 0.1315(3)
H5 H 0.6664 0.2927 0.1052
H6 H 0.7448 0.3165 0.1530
C4 C 0.9016(5) 0.2013(2) 0.1477(3)
H7 H 0.8942 0.1766 0.1726
H8 H 0.9664 0.1957 0.1288
C5 C 0.9266(6) 0.2775(3) 0.1423(4)
H9 H 0.9910 0.2730 0.1228
H10 H 0.9386 0.3047 0.1636
C6 C 0.8121(6) 0.2420(2) 0.0706(3)
H11 H 0.8759 0.2374 0.0506
H12 H 0.7457 0.2445 0.0435
N5 N 0.2408(4) 0.27765(16) 0.2920(2)
N6 N 0.1640(4) 0.31662(17) 0.3643(2)
N7 N 0.1360(5) 0.23820(18) 0.3536(2)
N8 N 0.0425(4) 0.2880(2) 0.2863(2)
C7 C 0.2570(4) 0.31370(19) 0.3322(2)
H13 H 0.3257 0.3088 0.3571
H14 H 0.2642 0.3415 0.3129
C8 C 0.1359(5) 0.2858(3) 0.2551(3)
H15 H 0.1416 0.3134 0.2353
H16 H 0.1237 0.2621 0.2279
C9 C 0.2289(5) 0.2363(2) 0.3223(3)
H17 H 0.2182 0.2119 0.2961
H18 H 0.2970 0.2308 0.3473
C10 C 0.1546(5) 0.2739(2) 0.3923(3)
H19 H 0.2228 0.2684 0.4174
H20 H 0.0930 0.2753 0.4144
C11 C 0.0367(5) 0.2473(2) 0.3156(3)
H21 H 0.0244 0.2232 0.2890
H22 H -0.0270 0.2483 0.3363
C12 C 0.0615(5) 0.3235(2) 0.3262(3)
H23 H -0.0015 0.3254 0.3472
H24 H 0.0666 0.3514 0.3067
O1 O 0.5289(4) 0.19973(15) 0.2093(2)
O2 O 0.3612(4) 0.20706(17) 0.2344(2)
C13 C 0.4370(5) 0.1856(2) 0.2180(3)
C14 C 0.4163(6) 0.1382(2) 0.2079(3)
C15 C 0.4931(6) 0.1130(2) 0.1867(3)
H25 H 0.5607 0.1258 0.1805
C16 C 0.4739(6) 0.0689(2) 0.1741(3)
C17 C 0.5509(9) 0.0433(3) 0.1511(4)
H26 H 0.6174 0.0561 0.1433
C18 C 0.5315(11) 0.0009(3) 0.1401(4)
H27 H 0.5857 -0.0162 0.1260
C19 C 0.4321(12) -0.0184(3) 0.1493(4)
C20 C 0.3561(9) 0.0053(3) 0.1717(4)
H28 H 0.2898 -0.0080 0.1788
C21 C 0.3753(8) 0.0500(3) 0.1847(4)
C22 C 0.2956(7) 0.0763(3) 0.2054(4)
H29 H 0.2274 0.0640 0.2113
C23 C 0.3158(6) 0.1192(2) 0.2169(3)
H30 H 0.2619 0.1363 0.2312
C24 C 0.418(2) -0.0639(7) 0.1275(18)
O3 O 0.325(2) -0.0790(8) 0.1288(8)
O4 O 0.495(3) -0.0849(5) 0.1125(10)
O5 O 0.6366(4) 0.25657(17) 0.28759(19)
O6 O 0.4842(4) 0.25300(16) 0.32391(19)
C25 C 0.5856(5) 0.2523(2) 0.3265(2)
C26 C 0.6532(5) 0.2465(2) 0.3810(2)
C27 C 0.7676(5) 0.2530(2) 0.3858(2)
H31 H 0.8001 0.2609 0.3544
C28 C 0.8325(5) 0.2484(3) 0.4345(3)
H32 H 0.9095 0.2528 0.4367
C29 C 0.7862(5) 0.2371(2) 0.4816(2)
C30 C 0.8507(5) 0.2333(2) 0.5334(3)
H33 H 0.9277 0.2379 0.5362
C31 C 0.8056(5) 0.2232(2) 0.5788(3)
C32 C 0.6911(5) 0.2140(3) 0.5746(3)
H34 H 0.6595 0.2056 0.6060
C33 C 0.6264(5) 0.2173(2) 0.5250(3)
H35 H 0.5502 0.2113 0.5226
C34 C 0.6713(5) 0.2294(2) 0.4778(3)
C35 C 0.6059(5) 0.2348(2) 0.4263(2)
H36 H 0.5289 0.2302 0.4232
C36 C 0.8729(5) 0.2229(2) 0.6345(2)
O7 O 0.8223(4) 0.21533(18) 0.67482(18)
O8 O 0.9741(4) 0.23083(16) 0.63720(18)
O9 O 0.5935(4) 0.32791(15) 0.21953(19)
O10 O 0.4464(4) 0.33063(15) 0.2640(2)
C37 C 0.5326(5) 0.3465(2) 0.2490(2)
C38 C 0.5620(5) 0.3918(2) 0.2688(3)
C39 C 0.6656(6) 0.4097(2) 0.2614(3)
H37 H 0.7162 0.3933 0.2437
C40 C 0.6918(6) 0.4508(3) 0.2799(4)
H38 H 0.7605 0.4629 0.2743
C41 C 0.6203(7) 0.4753(3) 0.3068(3)
C42 C 0.6444(7) 0.5173(3) 0.3269(4)
H39 H 0.7119 0.5302 0.3208
C43 C 0.5758(9) 0.5404(3) 0.3548(4)
C44 C 0.4766(10) 0.5214(3) 0.3635(4)
H40 H 0.4274 0.5371 0.3827
C45 C 0.4490(8) 0.4808(3) 0.3449(4)
H41 H 0.3813 0.4684 0.3517
C46 C 0.5196(6) 0.4568(2) 0.3158(3)
C47 C 0.4926(6) 0.4147(2) 0.2958(3)
H42 H 0.4242 0.4023 0.3013
C48 C 0.6039(10) 0.5837(3) 0.3809(3)
O11 O 0.5226(12) 0.6042(3) 0.3968(5)
O12 O 0.6978(9) 0.5959(3) 0.3834(4)
O13 O 0.8705(4) 0.16596(17) 0.0092(2)
O14 O 0.8500(4) 0.13515(17) -0.07305(18)
C49 C 0.9069(5) 0.1498(2) -0.0320(3)
C50 C 1.0283(5) 0.1486(2) -0.0320(3)
C51 C 1.0978(5) 0.1542(2) 0.0158(3)
H43 H 1.0684 0.1591 0.0488
C52 C 1.2120(5) 0.1525(2) 0.0158(3)
C53 C 1.2853(6) 0.1581(3) 0.0644(3)
H44 H 1.2573 0.1624 0.0980
C54 C 1.3957(5) 0.1572(3) 0.0633(3)
H45 H 1.4441 0.1607 0.0961
C55 C 1.4389(5) 0.1511(2) 0.0136(3)
C56 C 1.3703(5) 0.1446(2) -0.0339(3)
H46 H 1.4002 0.1397 -0.0668
C57 C 1.2543(5) 0.1451(2) -0.0342(3)
C58 C 1.1816(5) 0.1388(2) -0.0827(3)
H47 H 1.2095 0.1333 -0.1161
C59 C 1.0709(5) 0.1406(2) -0.0813(3)
H48 H 1.0221 0.1364 -0.1139
C60 C 1.5593(5) 0.1515(2) 0.0115(3)
O15 O 1.5956(4) 0.15999(16) -0.0315(2)
O16 O 1.6190(4) 0.14480(16) 0.0570(2)
O17 O 0.7368(5) 0.08281(19) -0.0045(3)
C61 C 0.6913(11) 0.0519(3) 0.0100(6)
H49 H 0.6321 0.0562 0.0305
N9 N 0.7189(10) 0.0120(4) -0.0008(4)
C62 C 0.6512(15) -0.0251(5) 0.0085(8)
H50 H 0.6868 -0.0518 -0.0018
H51 H 0.5793 -0.0221 -0.0135
H52 H 0.6418 -0.0264 0.0471
C63 C 0.8197(14) 0.0038(6) -0.0233(10)
H53 H 0.8279 -0.0275 -0.0287
H54 H 0.8819 0.0146 0.0020
H55 H 0.8176 0.0188 -0.0583
Zn1C Zn 1.08151(5) 0.23733(2) 0.70692(3)
Zn2C Zn 0.87930(5) 0.22904(2) 0.75387(3)
Zn3_2 Zn 1.78026(6) 0.14301(2) 0.06244(3)
Zn3A Zn 0.71974(6) 0.64301(2) 0.43756(3)
Zn4_2 Zn 1.68886(6) 0.12964(3) -0.07907(3)
Zn4B Zn 0.31114(6) -0.12964(3) 0.07907(3)
Zn4C Zn 0.18886(6) 0.37036(3) 0.42093(3)
N6C N 0.6640(4) 0.18338(17) -0.1357(2)
O3B O 0.675(2) 0.0790(8) -0.1288(8)
O7C O 0.3223(4) 0.28467(18) 0.17482(18)
O8C O 0.4741(4) 0.26917(16) 0.13720(18)
O12A O 0.8022(9) 0.0959(3) 0.1166(4)
O15_2 O 0.5956(4) 0.15999(16) -0.0315(2)
O16_2 O 0.6190(4) 0.14480(16) 0.0570(2)
C69 C 0.4705(11) 0.3732(3) 0.0432(5)
H63 H 0.4014 0.3601 0.0313
C70 C 0.5070(11) 0.3767(4) 0.0977(5)
H64 H 0.4627 0.3661 0.1236
C71 C 0.6072(11) 0.3953(3) 0.1154(5)
H65 H 0.6320 0.3973 0.1533
C72 C 0.6713(10) 0.4111(3) 0.0784(4)
H66 H 0.7399 0.4245 0.0903
C73 C 0.6339(10) 0.4072(4) 0.0228(4)
H67 H 0.6783 0.4175 -0.0032
C74 C 0.5344(10) 0.3888(3) 0.0053(4)
C75 C 0.5011(10) 0.3870(4) -0.0555(5)
H68 H 0.5466 0.4018 -0.0777
C76 C 0.4174(10) 0.3676(4) -0.0795(5)
H69 H 0.3747 0.3507 -0.0580
C77 C 0.3822(11) 0.3697(4) -0.1394(5)
C78 C 0.2769(10) 0.3548(3) -0.1581(5)
H70 H 0.2332 0.3426 -0.1330
C79 C 0.2354(10) 0.3573(3) -0.2124(5)
H71 H 0.1632 0.3472 -0.2244
C80 C 0.2977(9) 0.3745(4) -0.2495(5)
H72 H 0.2681 0.3777 -0.2867
C81 C 0.4048(10) 0.3870(4) -0.2315(4)
H73 H 0.4493 0.3975 -0.2572
C82 C 0.4484(9) 0.3845(4) -0.1776(4)
H74 H 0.5224 0.3928 -0.1663
C83 C 0.7554(11) 0.5263(3) 0.1045(5)
H75 H 0.6824 0.5329 0.0891
C84 C 0.7865(12) 0.5329(4) 0.1585(5)
H76 H 0.7356 0.5446 0.1804
C85 C 0.8928(10) 0.5227(4) 0.1822(5)
H77 H 0.9137 0.5263 0.2202
C86 C 0.9663(10) 0.5073(3) 0.1498(5)
H78 H 1.0400 0.5017 0.1649
C87 C 0.9332(11) 0.5001(3) 0.0948(5)
H79 H 0.9836 0.4879 0.0730
C88 C 0.8296(10) 0.5101(3) 0.0715(4)
C89 C 0.8029(11) 0.5006(4) 0.0107(5)
H80 H 0.8573 0.4869 -0.0073
C90 C 0.7113(11) 0.5100(4) -0.0172(5)
H81 H 0.6582 0.5247 0.0007
C91 C 0.6816(10) 0.4994(3) -0.0772(4)
C92 C 0.5826(11) 0.5138(4) -0.1026(5)
H82 H 0.5361 0.5298 -0.0822
C93 C 0.5480(10) 0.5058(4) -0.1569(5)
H83 H 0.4791 0.5166 -0.1734
C94 C 0.6138(10) 0.4821(3) -0.1873(4)
H84 H 0.5911 0.4769 -0.2249
C95 C 0.7144(10) 0.4657(4) -0.1620(5)
H85 H 0.7590 0.4487 -0.1824
C96 C 0.7485(10) 0.4742(3) -0.1084(5)
H86 H 0.8171 0.4633 -0.0917
C97 C 1.0029(11) 0.3991(3) 0.1710(4)
H87 H 0.9257 0.3949 0.1662
C98 C 1.0555(12) 0.4105(3) 0.2210(5)
H88 H 1.0149 0.4146 0.2507
C99 C 1.1701(11) 0.4162(3) 0.2285(5)
H89 H 1.2074 0.4238 0.2633
C100 C 1.2275(11) 0.4106(4) 0.1849(5)
H90 H 1.3048 0.4147 0.1896
C101 C 1.1737(10) 0.3990(4) 0.1343(5)
H91 H 1.2144 0.3948 0.1047
C102 C 1.0614(9) 0.3937(3) 0.1266(5)
C103 C 0.9951(8) 0.3835(3) 0.0728(4)
H92 H 0.9217 0.3737 0.0725
C104 C 1.0332(9) 0.3875(3) 0.0266(5)
H93 H 1.1060 0.3981 0.0275
C105 C 0.9706(9) 0.3766(3) -0.0284(4)
C106 C 0.8676(9) 0.3580(3) -0.0358(4)
H94 H 0.8323 0.3516 -0.0048
C107 C 0.8150(10) 0.3484(3) -0.0867(4)
H95 H 0.7448 0.3349 -0.0911
C108 C 0.8663(12) 0.3587(3) -0.1317(4)
H96 H 0.8302 0.3523 -0.1671
C109 C 0.9647(12) 0.3772(4) -0.1263(5)
H97 H 0.9982 0.3841 -0.1577
C110 C 1.0190(11) 0.3865(3) -0.0744(5)
H98 H 1.0895 0.3996 -0.0707
loop_
_geom_bond_atom_site_label_1
_geom_bond_atom_site_label_2
_geom_bond_site_symmetry_1
_geom_bond_site_symmetry_2
Zn1 N1 1_555 1_555
Zn2 N5 1_555 1_555
Zn3 N2 1_555 1_555
Zn4 O14 1_555 1_555
N1 C1 1_555 1_555
N2 C1 1_555 1_555
N3 C2 1_555 1_555
N4 C3 1_555 1_555
C1 H1 1_555 1_555
H2 C1 1_555 1_555
C2 N1 1_555 1_555
H3 C2 1_555 1_555
H4 C2 1_555 1_555
C3 N1 1_555 1_555
H5 C3 1_555 1_555
H6 C3 1_555 1_555
C4 N2 1_555 1_555
H7 C4 1_555 1_555
H8 C4 1_555 1_555
C5 N3 1_555 1_555
H9 C5 1_555 1_555
H10 C5 1_555 1_555
C6 N2 1_555 1_555
H11 C6 1_555 1_555
H12 C6 1_555 1_555
N5 C7 1_555 1_555
N6 C7 1_555 1_555
N7 C9 1_555 1_555
N8 C8 1_555 1_555
C7 H13 1_555 1_555
H14 C7 1_555 1_555
C8 N5 1_555 1_555
H15 C8 1_555 1_555
H16 C8 1_555 1_555
C9 N5 1_555 1_555
H17 C9 1_555 1_555
H18 C9 1_555 1_555
C10 N6 1_555 1_555
H19 C10 1_555 1_555
H20 C10 1_555 1_555
C11 N7 1_555 1_555
H21 C11 1_555 1_555
H22 C11 1_555 1_555
C12 N6 1_555 1_555
H23 C12 1_555 1_555
H24 C12 1_555 1_555
O1 Zn1 1_555 1_555
O2 Zn2 1_555 1_555
C13 O1 1_555 1_555
C14 C13 1_555 1_555
C15 C14 1_555 1_555
H25 C15 1_555 1_555
C16 C15 1_555 1_555
C17 C16 1_555 1_555
H26 C17 1_555 1_555
C18 C17 1_555 1_555
H27 C18 1_555 1_555
C19 C18 1_555 1_555
C20 C19 1_555 1_555
H28 C20 1_555 1_555
C21 C16 1_555 1_555
C22 C21 1_555 1_555
H29 C22 1_555 1_555
C23 C14 1_555 1_555
H30 C23 1_555 1_555
C24 C19 1_555 1_555
O3 C24 1_555 1_555
O4 C24 1_555 1_555
O5 Zn1 1_555 1_555
O6 Zn2 1_555 1_555
C25 O5 1_555 1_555
C26 C25 1_555 1_555
C27 C26 1_555 1_555
H31 C27 1_555 1_555
C28 C27 1_555 1_555
H32 C28 1_555 1_555
C29 C28 1_555 1_555
C30 C29 1_555 1_555
H33 C30 1_555 1_555
C31 C30 1_555 1_555
C32 C31 1_555 1_555
H34 C32 1_555 1_555
C33 C32 1_555 1_555
H35 C33 1_555 1_555
C34 C29 1_555 1_555
C35 C26 1_555 1_555
H36 C35 1_555 1_555
C36 C31 1_555 1_555
O7 C36 1_555 1_555
O8 C36 1_555 1_555
O9 Zn1 1_555 1_555
O10 Zn2 1_555 1_555
C37 O9 1_555 1_555
C38 C37 1_555 1_555
C39 C38 1_555 1_555
H37 C39 1_555 1_555
C40 C39 1_555 1_555
H38 C40 1_555 1_555
C41 C40 1_555 1_555
C42 C41 1_555 1_555
H39 C42 1_555 1_555
C43 C42 1_555 1_555
C44 C43 1_555 1_555
H40 C44 1_555 1_555
C45 C44 1_555 1_555
H41 C45 1_555 1_555
C46 C41 1_555 1_555
C47 C38 1_555 1_555
H42 C47 1_555 1_555
C48 C43 1_555 1_555
O11 C48 1_555 1_555
O12 C48 1_555 1_555
O13 Zn3 1_555 1_555
O14 C49 1_555 1_555
C49 O13 1_555 1_555
C50 C49 1_555 1_555
C51 C50 1_555 1_555
H43 C51 1_555 1_555
C52 C51 1_555 1_555
C53 C52 1_555 1_555
H44 C53 1_555 1_555
C54 C53 1_555 1_555
H45 C54 1_555 1_555
C55 C54 1_555 1_555
C56 C55 1_555 1_555
H46 C56 1_555 1_555
C57 C52 1_555 1_555
C58 C57 1_555 1_555
H47 C58 1_555 1_555
C59 C50 1_555 1_555
H48 C59 1_555 1_555
C60 C55 1_555 1_555
O15 C60 1_555 1_555
O16 C60 1_555 1_555
O17 Zn3 1_555 1_555
C61 O17 1_555 1_555
H49 C61 1_555 1_555
N9 C61 1_555 1_555
C62 N9 1_555 1_555
H50 C62 1_555 1_555
H51 C62 1_555 1_555
H52 C62 1_555 1_555
C63 N9 1_555 1_555
H53 C63 1_555 1_555
H54 C63 1_555 1_555
H55 C63 1_555 1_555
C69 H63 1_555 1_555
C70 C69 1_555 1_555
H64 C70 1_555 1_555
C71 C70 1_555 1_555
H65 C71 1_555 1_555
C72 C71 1_555 1_555
H66 C72 1_555 1_555
C73 C72 1_555 1_555
H67 C73 1_555 1_555
C74 C69 1_555 1_555
C75 C74 1_555 1_555
H68 C75 1_555 1_555
C76 C75 1_555 1_555
H69 C76 1_555 1_555
C77 C76 1_555 1_555
C78 C77 1_555 1_555
H70 C78 1_555 1_555
C79 C78 1_555 1_555
H71 C79 1_555 1_555
C80 C79 1_555 1_555
H72 C80 1_555 1_555
C81 C80 1_555 1_555
H73 C81 1_555 1_555
C82 C77 1_555 1_555
H74 C82 1_555 1_555
C83 H75 1_555 1_555
C84 C83 1_555 1_555
H76 C84 1_555 1_555
C85 C84 1_555 1_555
H77 C85 1_555 1_555
C86 C85 1_555 1_555
H78 C86 1_555 1_555
C87 C86 1_555 1_555
H79 C87 1_555 1_555
C88 C83 1_555 1_555
C89 C88 1_555 1_555
H80 C89 1_555 1_555
C90 C89 1_555 1_555
H81 C90 1_555 1_555
C91 C90 1_555 1_555
C92 C91 1_555 1_555
H82 C92 1_555 1_555
C93 C92 1_555 1_555
H83 C93 1_555 1_555
C94 C93 1_555 1_555
H84 C94 1_555 1_555
C95 C94 1_555 1_555
H85 C95 1_555 1_555
C96 C91 1_555 1_555
H86 C96 1_555 1_555
C97 H87 1_555 1_555
C98 C97 1_555 1_555
H88 C98 1_555 1_555
C99 C98 1_555 1_555
H89 C99 1_555 1_555
C100 C99 1_555 1_555
H90 C100 1_555 1_555
C101 C100 1_555 1_555
H91 C101 1_555 1_555
C102 C97 1_555 1_555
C103 C102 1_555 1_555
H92 C103 1_555 1_555
C104 C103 1_555 1_555
H93 C104 1_555 1_555
C105 C104 1_555 1_555
C106 C105 1_555 1_555
H94 C106 1_555 1_555
C107 C106 1_555 1_555
H95 C107 1_555 1_555
C108 C107 1_555 1_555
H96 C108 1_555 1_555
C109 C108 1_555 1_555
H97 C109 1_555 1_555
C110 C105 1_555 1_555
H98 C110 1_555 1_555
Zn1C O8 1_555 1_555
Zn2C O7 1_555 1_555
Zn3_2 O16 1_555 1_555
Zn3A O12 1_555 1_555
Zn4_2 O15 1_555 1_555
Zn4B O3 1_555 1_555
Zn4C N6 1_555 1_555
N6C Zn4 1_555 1_555
O3B Zn4 1_555 1_555
O7C Zn2 1_555 1_555
O8C Zn1 1_555 1_555
O12A Zn3 1_555 1_555
O15_2 Zn4 1_555 1_555
O16_2 Zn3 1_555 1_555
Zn4 O17 1_555 1_555
N3 C4 1_555 1_555
N4 C5 1_555 1_555
N4 C6 1_555 1_555
N7 C10 1_555 1_555
N8 C11 1_555 1_555
N8 C12 1_555 1_555
O2 C13 1_555 1_555
C20 C21 1_555 1_555
C22 C23 1_555 1_555
O6 C25 1_555 1_555
C33 C34 1_555 1_555
C34 C35 1_555 1_555
O10 C37 1_555 1_555
C45 C46 1_555 1_555
C46 C47 1_555 1_555
C56 C57 1_555 1_555
C58 C59 1_555 1_555
C73 C74 1_555 1_555
C81 C82 1_555 1_555
C87 C88 1_555 1_555
C95 C96 1_555 1_555
C101 C102 1_555 1_555
C109 C110 1_555 1_555

#END
