
#######################################################################
#
#                 Cambridge Crystallographic Data Centre
#                                CCDC 
#
#######################################################################
#
# If this CIF has been generated from an entry in the Cambridge 
# Structural Database, then it will include bibliographic, chemical, 
# crystal, experimental, refinement or atomic coordinate data resulting 
# from the CCDC's data processing and validation procedures.
#
#######################################################################

data_HUWDEJ
_chemical_formula_moiety         '(C24 H24 Ag1 N4 O4 Re1)n'
_symmetry_cell_setting           orthorhombic
_symmetry_space_group_name_H-M   'P n n n'
_symmetry_Int_Tables_number      48
_space_group_name_Hall           '-P 2ab 2bc'
loop_
_symmetry_equiv_pos_site_id
_symmetry_equiv_pos_as_xyz
1 x,y,z
2 1/2-x,1/2-y,z
3 1/2-x,y,1/2-z
4 x,1/2-y,1/2-z
5 -x,-y,-z
6 1/2+x,1/2+y,-z
7 1/2+x,-y,1/2+z
8 -x,1/2+y,1/2+z
_cell_length_a                   6.3716(3)
_cell_length_b                   13.1646(5)
_cell_length_c                   14.8622(6)
_cell_angle_alpha                90
_cell_angle_beta                 90
_cell_angle_gamma                90
_cell_volume                     1246.63
loop_
_atom_site_label
_atom_site_type_symbol
_atom_site_fract_x
_atom_site_fract_y
_atom_site_fract_z
Ag1 Ag 0.2500 0.7500 0.7500
N1 N 0.4482(12) 0.6447(6) 0.6586(6)
C1 C 0.5203(15) 0.5535(8) 0.6857(7)
H1 H 0.4738 0.5275 0.7404
C2 C 0.661(2) 0.4971(6) 0.6354(7)
H2 H 0.7057 0.4342 0.6564
C3 C 0.7343(13) 0.5332(8) 0.5544(7)
C4 C 0.6543(16) 0.6259(8) 0.5273(8)
H3 H 0.6953 0.6533 0.4723
C5 C 0.5166(15) 0.6776(8) 0.5799(9)
H4 H 0.4675 0.7399 0.5594
C6 C 0.8915(18) 0.4762(9) 0.4996(7)
H5 H 0.924(19) 0.408(10) 0.514(8)
H6 H 0.83(2) 0.465(9) 0.446(9)
Ag1D Ag 1.7500 0.2500 0.2500
Ag1D_2 Ag -1.2500 1.2500 0.2500
N1D N 1.5518(12) 0.3553(6) 0.3414(6)
N1A N 0.0518(12) 0.8553(6) 0.6586(6)
N1E N -1.0518(12) 1.1447(6) 0.3414(6)
N1B N 0.0518(12) 0.6447(6) 0.8414(6)
N1C N 0.4482(12) 0.8553(6) 0.8414(6)
C1D C 1.4797(15) 0.4465(8) 0.3143(7)
C1A C -0.0203(15) 0.9465(8) 0.6857(7)
C1E C -0.9797(15) 1.0535(8) 0.3143(7)
H1D H 1.5262 0.4725 0.2596
H1A H 0.0262 0.9725 0.7404
H1E H -1.0262 1.0275 0.2596
C2D C 1.339(2) 0.5029(6) 0.3646(7)
C2A C -0.161(2) 1.0029(6) 0.6354(7)
C2E C -0.839(2) 0.9971(6) 0.3646(7)
H2D H 1.2943 0.5658 0.3436
H2A H -0.2057 1.0658 0.6564
H2E H -0.7943 0.9342 0.3436
C3D C 1.2657(13) 0.4668(8) 0.4456(7)
C3A C -0.2343(13) 0.9668(8) 0.5544(7)
C3E C -0.7657(13) 1.0332(8) 0.4456(7)
C4D C 1.3457(16) 0.3741(8) 0.4727(8)
C4A C -0.1543(16) 0.8741(8) 0.5273(8)
C4E C -0.8457(16) 1.1259(8) 0.4727(8)
H3D H 1.3047 0.3467 0.5277
H3A H -0.1953 0.8467 0.4723
H3E H -0.8047 1.1533 0.5277
C5D C 1.4834(15) 0.3224(8) 0.4201(9)
C5A C -0.0166(15) 0.8224(8) 0.5799(9)
C5E C -0.9834(15) 1.1776(8) 0.4201(9)
H4D H 1.5325 0.2601 0.4406
H4A H 0.0325 0.7601 0.5594
H4E H -1.0325 1.2399 0.4406
C6D C 1.1085(18) 0.5238(9) 0.5004(7)
C6A C -0.3915(18) 1.0238(9) 0.4996(7)
C6E C -0.6085(18) 0.9762(9) 0.5004(7)
H5D H 1.076(19) 0.592(10) 0.486(8)
H5A H -0.424(19) 1.092(10) 0.514(8)
H5E H -0.576(19) 0.908(10) 0.486(8)
H6D H 1.17(2) 0.535(9) 0.554(9)
H6A H -0.33(2) 1.035(9) 0.446(9)
H6E H -0.67(2) 0.965(9) 0.554(9)
Re1 Re 0.2500 0.2500 0.7500
O1 O 0.0956(17) 0.3252(7) 0.6839(6)
O1A O 0.4044(17) 0.1748(7) 0.6839(6)
O1B O 0.4044(17) 0.3252(7) 0.8161(6)
O1C O 0.0956(17) 0.1748(7) 0.8161(6)
loop_
_geom_bond_atom_site_label_1
_geom_bond_atom_site_label_2
_geom_bond_site_symmetry_1
_geom_bond_site_symmetry_2
Ag1 N1 1_555 1_555
Re1 O1 1_555 1_555
N1 C1 1_555 1_555
C1 H1 1_555 1_555
C2 C1 1_555 1_555
H2 C2 1_555 1_555
C3 C2 1_555 1_555
C4 C3 1_555 1_555
H3 C4 1_555 1_555
C5 N1 1_555 1_555
H4 C5 1_555 1_555
C6 C3 1_555 1_555
H5 C6 1_555 1_555
H6 C6 1_555 1_555
Ag1D N1D 1_555 1_555
Ag1D_2 N1E 1_555 1_555
O1A Re1 1_555 1_555
O1B Re1 1_555 1_555
O1C Re1 1_555 1_555
N1D C1D 1_555 1_555
N1A Ag1 1_555 1_555
N1E C1E 1_555 1_555
N1B Ag1 1_555 1_555
N1C Ag1 1_555 1_555
C1D H1D 1_555 1_555
C1A N1A 1_555 1_555
C1E H1E 1_555 1_555
H1A C1A 1_555 1_555
C2D C1D 1_555 1_555
C2A C1A 1_555 1_555
C2E C1E 1_555 1_555
H2D C2D 1_555 1_555
H2A C2A 1_555 1_555
H2E C2E 1_555 1_555
C3D C2D 1_555 1_555
C3A C2A 1_555 1_555
C3E C2E 1_555 1_555
C4D C3D 1_555 1_555
C4A C3A 1_555 1_555
C4E C3E 1_555 1_555
H3D C4D 1_555 1_555
H3A C4A 1_555 1_555
H3E C4E 1_555 1_555
C5D N1D 1_555 1_555
C5A N1A 1_555 1_555
C5E N1E 1_555 1_555
H4D C5D 1_555 1_555
H4A C5A 1_555 1_555
H4E C5E 1_555 1_555
C6D C6 1_555 1_555
C6A C3A 1_555 1_555
C6E C3E 1_555 1_555
H5D C6D 1_555 1_555
H5A C6A 1_555 1_555
H5E C6E 1_555 1_555
H6D C6D 1_555 1_555
H6A C6A 1_555 1_555
H6E C6E 1_555 1_555
C4 C5 1_555 1_555
C3D C6D 1_555 1_555
C4D C5D 1_555 1_555
C4A C5A 1_555 1_555
C4E C5E 1_555 1_555
C6A C6E 1_555 1_555

#END
