
#######################################################################
#
#                 Cambridge Crystallographic Data Centre
#                                CCDC 
#
#######################################################################
#
# If this CIF has been generated from an entry in the Cambridge 
# Structural Database, then it will include bibliographic, chemical, 
# crystal, experimental, refinement or atomic coordinate data resulting 
# from the CCDC's data processing and validation procedures.
#
#######################################################################

data_JIVSIQ
_chemical_formula_moiety         '(C2 H11 N2 O8 P2 Zr1 1+)n'
_symmetry_cell_setting           orthorhombic
_symmetry_space_group_name_H-M   'P n n m'
_symmetry_Int_Tables_number      58
_space_group_name_Hall           '-P 2 2n'
loop_
_symmetry_equiv_pos_site_id
_symmetry_equiv_pos_as_xyz
1 x,y,z
2 -x,-y,z
3 1/2+x,1/2-y,1/2-z
4 1/2-x,1/2+y,1/2-z
5 -x,-y,-z
6 x,y,-z
7 1/2-x,1/2+y,1/2+z
8 1/2+x,1/2-y,1/2+z
_cell_length_a                   24.087(4)
_cell_length_b                   5.3812(1)
_cell_length_c                   6.660(1)
_cell_angle_alpha                90
_cell_angle_beta                 90
_cell_angle_gamma                90
_cell_volume                     863.249
loop_
_atom_site_label
_atom_site_type_symbol
_atom_site_fract_x
_atom_site_fract_y
_atom_site_fract_z
Zr1 Zr -0.3159(1) -0.5500(3) -0.5000
P1 P -0.2793(1) -0.5563(9) 0.0000
P2 P -0.4128(2) -0.0423(9) -0.5000
O1 O -0.2389(4) -0.3405(19) 0.0000
O2 O -0.2474(4) -0.8025(17) 0.0000
O3 O -0.3173(3) -0.5424(12) 0.1855(7)
O4 O -0.3720(4) -0.2570(19) -0.5000
O5 O -0.3824(4) 0.2050(17) -0.5000
O6 O -0.4497(5) -0.0624(29) -0.3114(8)
Zr1C Zr -0.1841(1) -1.0500(3) 0.0000
Zr1C_2 Zr -0.1841(1) -0.0500(3) 0.0000
O3E O -0.3173(3) -0.5424(12) -0.1855(7)
Zr1_2 Zr -0.3159(1) -0.5500(3) 0.5000
O1C O -0.2611(4) -0.8405(19) -0.5000
O2C O -0.2526(4) -0.3025(17) -0.5000
O3_2 O -0.3173(3) -0.5424(12) -0.8145(7)
Zr1_3 Zr -0.3159(1) 0.4500(3) -0.5000
O6E O -0.4497(5) -0.0624(29) -0.6886(8)
O5_2 O -0.3824(4) -0.7950(17) -0.5000
N1 N -0.4262(5) -0.3836(23) 0.0000
C1 C -0.4728(6) -0.5603(34) 0.0000
H5 H -0.4699 -0.6647 0.1164
C1A C -0.5272(6) -0.4397(34) 0.0000
N1A N -0.5738(5) -0.6164(23) 0.0000
H5A H -0.5301 -0.3353 0.1164
H5D H -0.5301 -0.3353 -0.1164
H5E H -0.4699 -0.6647 -0.1164
loop_
_geom_bond_atom_site_label_1
_geom_bond_atom_site_label_2
_geom_bond_site_symmetry_1
_geom_bond_site_symmetry_2
Zr1 O4 1_555 1_555
P1 O1 1_555 1_555
P2 O4 1_555 1_555
O1 Zr1C_2 1_555 1_555
O2 P1 1_555 1_555
O3 P1 1_555 1_555
O5 P2 1_555 1_555
O6 P2 1_555 1_555
N1 C1 1_555 1_555
C1 H5 1_555 1_555
Zr1C O2 1_555 1_555
O3E Zr1 1_555 1_555
Zr1_2 O3 1_555 1_555
O1C Zr1 1_555 1_555
O2C Zr1 1_555 1_555
O3_2 Zr1 1_555 1_555
Zr1_3 O5 1_555 1_555
O6E P2 1_555 1_555
O5_2 Zr1 1_555 1_555
C1A C1 1_555 1_555
N1A C1A 1_555 1_555
H5A C1A 1_555 1_555
H5D C1A 1_555 1_555
H5E C1 1_555 1_555
P1 O3E 1_555 1_555

#END
