
#######################################################################
#
#                 Cambridge Crystallographic Data Centre
#                                CCDC 
#
#######################################################################
#
# If this CIF has been generated from an entry in the Cambridge 
# Structural Database, then it will include bibliographic, chemical, 
# crystal, experimental, refinement or atomic coordinate data resulting 
# from the CCDC's data processing and validation procedures.
#
#######################################################################

data_WEVZUT
_chemical_formula_moiety         '(C48 H124 La4 N16 O76 P16)n'
_symmetry_cell_setting           triclinic
_symmetry_space_group_name_H-M   'P -1'
_symmetry_Int_Tables_number      2
_space_group_name_Hall           '-P 1'
loop_
_symmetry_equiv_pos_site_id
_symmetry_equiv_pos_as_xyz
1 x,y,z
2 -x,-y,-z
_cell_length_a                   14.3339(18)
_cell_length_b                   20.760(3)
_cell_length_c                   21.507(3)
_cell_angle_alpha                69.992(5)
_cell_angle_beta                 73.154(5)
_cell_angle_gamma                72.353(5)
_cell_volume                     5605.52
loop_
_atom_site_label
_atom_site_type_symbol
_atom_site_fract_x
_atom_site_fract_y
_atom_site_fract_z
La1 La 0.42862(2) -0.885661(14) 0.411928(13)
La2 La 0.12180(2) -0.517042(14) 0.387156(14)
La3 La 0.48990(2) -0.910770(14) 0.064080(13)
La4 La 0.56691(2) -0.548900(16) -0.132310(16)
P1 P 0.45371(11) -0.93987(7) 0.25478(6)
P2 P 0.66781(11) -0.93123(8) 0.17272(7)
P3 P 0.69640(10) -0.99779(7) -0.06017(6)
P4 P 0.63026(10) -1.09979(6) 0.07448(6)
P5 P 0.37278(9) -1.06897(6) 0.48501(6)
P6 P 0.32002(9) -0.98844(6) 0.58859(6)
P7 P -0.16238(10) -0.45954(7) 0.43778(7)
P8 P -0.07761(9) -0.60827(6) 0.50932(6)
P9 P 0.57764(10) -0.75097(7) -0.06689(6)
P10 P 0.37897(10) -0.65742(7) -0.09755(7)
P11 P 0.17288(11) -0.38210(7) 0.22106(7)
P12 P 0.33385(12) -0.42052(8) 0.30030(7)
P13 P 0.27596(10) -0.70559(7) 0.43382(7)
P14 P 0.15226(11) -0.79889(8) 0.42468(8)
P15 P 0.36562(12) -0.54178(8) 0.02846(8)
P16 P 0.34645(13) -0.40781(9) -0.09159(9)
N1 N 0.6061(4) -1.0503(2) 0.2300(2)
H1 H 0.6662 -1.0558 0.2017
H2 H 0.5605 -1.0457 0.2065
N2 N 0.6293(4) -1.1701(2) 0.2577(2)
N3 N 0.7842(3) -1.0396(2) 0.0466(2)
H3 H 0.7489 -1.0452 0.0895
H4 H 0.7746 -0.9928 0.0270
N4 N 0.9087(4) -1.0371(4) 0.0908(3)
N5 N 0.1868(3) -0.9938(2) 0.5262(2)
H5 H 0.1874 -0.9492 0.5219
H6 H 0.1957 -0.9969 0.4841
N6 N 0.0173(4) -0.9473(3) 0.5367(3)
N7 N -0.2711(3) -0.5597(3) 0.5056(3)
H7 H -0.2579 -0.5972 0.5409
H8 H -0.2964 -0.5222 0.5222
N8 N -0.4274(4) -0.5830(3) 0.5373(3)
N9 N 0.5256(4) -0.7128(2) -0.1891(2)
H9 H 0.5740 -0.6905 -0.1955
H10 H 0.4775 -0.6807 -0.2096
N10 N 0.6024(4) -0.7361(2) -0.2920(2)
N11 N 0.1686(5) -0.3149(3) 0.3105(3)
H11 H 0.1114 -0.3289 0.3195
H12 H 0.1933 -0.3346 0.3485
N12 N 0.0914(4) -0.2259(3) 0.3605(3)
N13 N 0.1870(3) -0.8012(2) 0.5407(2)
H13 H 0.1599 -0.8368 0.5453
H14 H 0.2535 -0.8188 0.5360
N14 N 0.1695(3) -0.8419(2) 0.6553(2)
N15 N 0.1889(5) -0.4540(4) 0.0043(4)
H15 H 0.1925 -0.4170 0.0157
H16 H 0.1782 -0.4879 0.0433
C1 C 0.5878(4) -0.9828(3) 0.2434(2)
H17 H 0.6096 -0.9911 0.2852
C2 C 0.6058(4) -1.1118(3) 0.2791(3)
C3 C 0.5873(4) -1.1205(3) 0.3497(3)
H18 H 0.5708 -1.0815 0.3659
C4 C 0.5938(4) -1.1862(3) 0.3933(3)
H19 H 0.5816 -1.1920 0.4396
C5 C 0.6189(5) -1.2458(3) 0.3688(3)
H20 H 0.6233 -1.2908 0.3984
C6 C 0.6364(5) -1.2355(3) 0.3014(3)
H21 H 0.6538 -1.2742 0.2845
C7 C 0.7353(4) -1.0666(3) 0.0127(2)
H22 H 0.7835 -1.1057 -0.0028
C8 C 0.8796(5) -1.0621(4) 0.0507(3)
C9 C 0.9538(6) -1.1088(5) 0.0156(5)
H23 H 0.9370 -1.1284 -0.0115
C10 C 1.0497(6) -1.1236(5) 0.0234(5)
H24 H 1.0991 -1.1530 0.0001
C11 C 1.0763(6) -1.0969(6) 0.0639(5)
H25 H 1.1426 -1.1079 0.0678
C12 C 1.0070(6) -1.0555(6) 0.0973(5)
H26 H 1.0247 -1.0384 0.1259
C13 C 0.2761(4) -1.0384(3) 0.5515(2)
H27 H 0.2576 -1.0795 0.5872
C14 C 0.0928(4) -1.0013(3) 0.5577(3)
C15 C 0.0673(5) -1.0621(4) 0.6082(3)
H28 H 0.1170 -1.1001 0.6243
C16 C -0.0320(6) -1.0636(5) 0.6330(4)
H29 H -0.0494 -1.1031 0.6663
C17 C -0.1075(5) -1.0067(5) 0.6090(4)
H30 H -0.1746 -1.0080 0.6256
C18 C -0.0806(4) -0.9510(4) 0.5622(4)
H31 H -0.1301 -0.9130 0.5460
C19 C -0.1746(4) -0.5503(3) 0.4625(3)
H32 H -0.1659 -0.5643 0.4217
C20 C -0.3466(4) -0.5682(3) 0.4861(3)
C21 C -0.3510(6) -0.5618(4) 0.4192(4)
H33 H -0.2975 -0.5529 0.3832
C22 C -0.4382(7) -0.5691(5) 0.4097(6)
H34 H -0.4431 -0.5642 0.3661
C23 C -0.5182(6) -0.5835(5) 0.4619(6)
H35 H -0.5755 -0.5886 0.4538
C24 C -0.5119(5) -0.5895(4) 0.5225(5)
H36 H -0.5662 -0.5987 0.5578
C25 C 0.4823(4) -0.7298(3) -0.1166(2)
H37 H 0.4551 -0.7715 -0.1046
C26 C 0.5654(4) -0.7609(3) -0.2246(3)
C27 C 0.5708(4) -0.8338(3) -0.1965(3)
H38 H 0.5489 -0.8525 -0.1503
C28 C 0.6091(5) -0.8765(3) -0.2388(3)
H39 H 0.6130 -0.9246 -0.2208
C29 C 0.6423(5) -0.8496(4) -0.3082(3)
H40 H 0.6657 -0.8788 -0.3366
C30 C 0.6394(5) -0.7796(4) -0.3331(3)
H41 H 0.6633 -0.7609 -0.3790
C31 C 0.2367(5) -0.3489(3) 0.2616(3)
H42 H 0.2703 -0.3138 0.2264
C32 C 0.1407(4) -0.2448(3) 0.3041(3)
C33 C 0.1608(6) -0.1920(4) 0.2438(3)
H43 H 0.1973 -0.2034 0.2040
C34 C 0.1255(7) -0.1237(4) 0.2451(4)
H44 H 0.1384 -0.0881 0.2056
C35 C 0.0701(7) -0.1057(4) 0.3048(4)
H45 H 0.0449 -0.0591 0.3056
C36 C 0.0553(6) -0.1590(4) 0.3606(3)
H46 H 0.0184 -0.1488 0.4008
C37 C 0.1717(4) -0.7502(3) 0.4752(3)
H47 H 0.1102 -0.7145 0.4835
C38 C 0.1557(4) -0.7863(3) 0.6004(3)
C39 C 0.1111(4) -0.7194(3) 0.6110(3)
H48 H 0.1010 -0.6800 0.5743
C40 C 0.0826(5) -0.7122(3) 0.6752(3)
H49 H 0.0532 -0.6679 0.6819
C41 C 0.0972(5) -0.7710(3) 0.7309(3)
H50 H 0.0773 -0.7666 0.7748
C42 C 0.1416(5) -0.8351(3) 0.7188(3)
H51 H 0.1528 -0.8748 0.7550
C43 C 0.2897(5) -0.4799(3) -0.0322(4)
H52 H 0.2823 -0.5068 -0.0593
C44 C 0.1042(4) -0.4335(4) -0.0201(4)
C45 C 0.0118(5) -0.4123(5) 0.0199(5)
H53 H 0.0079 -0.4116 0.0636
C46 C -0.0747(4) -0.3922(5) -0.0055(6)
H54 H -0.1365 -0.3780 0.0213
C47 C -0.0688(5) -0.3932(5) -0.0708(7)
H55 H -0.1267 -0.3798 -0.0877
C48 C 0.0236(7) -0.4144(5) -0.1107(5)
H56 H 0.0275 -0.4151 -0.1544
N16 N 0.1101(4) -0.4345(4) -0.0854(4)
O1 O 0.3991(3) -1.0007(2) 0.30178(19)
H57 H 0.3945 -1.0037 0.3415
O2 O 0.4327(3) -0.88440(19) 0.29050(17)
O3 O 0.4258(3) -0.9169(2) 0.18697(18)
O4 O 0.7755(3) -0.9678(3) 0.1745(2)
O5 O 0.6445(4) -0.8593(2) 0.1886(2)
H58 H 0.6135 -0.8284 0.1614
O6 O 0.6394(3) -0.9227(2) 0.10782(19)
O7 O 0.6402(3) -0.93324(19) -0.03636(19)
O8 O 0.7968(3) -0.9805(2) -0.1088(2)
H59 H 0.8271 -1.0129 -0.1257
O9 O 0.6451(3) -1.0263(2) -0.09294(18)
O10 O 0.6751(3) -1.1607(2) 0.12883(18)
O11 O 0.5776(3) -1.12240(19) 0.03662(17)
O12 O 0.5677(3) -1.03798(18) 0.10196(18)
O13 O 0.3911(3) -1.00403(18) 0.42805(18)
O14 O 0.4589(3) -1.11574(19) 0.51689(18)
O15 O 0.3252(3) -1.1090(2) 0.45666(19)
H60 H 0.3321 -1.1503 0.4792
O16 O 0.4116(3) -1.03578(19) 0.61497(19)
O17 O 0.3411(3) -0.92361(18) 0.53145(17)
O18 O 0.2324(3) -0.96884(19) 0.64418(19)
O19 O -0.2477(3) -0.4145(2) 0.3975(2)
H61 H -0.2323 -0.4209 0.3599
O20 O -0.0608(3) -0.45637(19) 0.3949(2)
O21 O -0.1898(3) -0.43718(19) 0.5019(2)
O22 O -0.1031(3) -0.58594(19) 0.57370(18)
O23 O -0.0903(3) -0.68216(19) 0.5245(2)
O24 O 0.0226(3) -0.59727(19) 0.4653(2)
O25 O 0.6698(3) -0.8022(2) -0.0998(2)
H62 H 0.6640 -0.8430 -0.0818
O26 O 0.6086(3) -0.68396(19) -0.07898(19)
O27 O 0.5384(3) -0.79031(18) 0.00437(18)
O28 O 0.4160(3) -0.59047(19) -0.1264(2)
O29 O 0.3003(3) -0.6494(2) -0.1392(2)
H63 H 0.2680 -0.6798 -0.1195
O30 O 0.3363(3) -0.6780(2) -0.02264(19)
O31 O 0.2506(3) -0.4176(2) 0.1723(2)
O32 O 0.1067(3) -0.4257(2) 0.2758(2)
O33 O 0.1035(4) -0.3162(2) 0.1806(2)
H64 H 0.1306 -0.3063 0.1405
O34 O 0.2892(3) -0.4844(2) 0.3367(2)
O35 O 0.3606(4) -0.3933(3) 0.3491(2)
O36 O 0.4194(3) -0.4284(2) 0.2405(2)
O37 O 0.3015(3) -0.6882(2) 0.4921(2)
H65 H 0.2680 -0.6493 0.4954
O38 O 0.3652(3) -0.7588(2) 0.4102(2)
O39 O 0.2410(3) -0.63806(19) 0.38289(19)
O40 O 0.2428(3) -0.8566(2) 0.4157(2)
O41 O 0.1395(4) -0.7404(3) 0.3567(2)
H66 H 0.1267 -0.7565 0.3311
O42 O 0.0571(3) -0.8246(2) 0.4581(3)
O43 O 0.4700(3) -0.5617(2) -0.01154(19)
O44 O 0.3158(3) -0.6071(2) 0.0598(2)
H67 H 0.3465 -0.6371 0.0877
O45 O 0.3545(4) -0.5092(3) 0.0832(2)
O46 O 0.4373(4) -0.4415(2) -0.1351(2)
O47 O 0.3770(4) -0.3739(2) -0.0471(3)
H68 H 0.4258 -0.4005 -0.0322
O48 O 0.2686(4) -0.3534(3) -0.1259(3)
O49 O 0.5503(4) -0.8105(2) 0.3161(2)
O50 O 0.0799(5) -0.5774(3) 0.3113(3)
O51 O 0.3372(3) -0.8039(2) 0.0796(2)
O52 O 0.6151(5) -0.4430(3) -0.2362(3)
La1A La 0.57138(2) -1.114339(14) 0.588072(13)
La2A La -0.12180(2) -0.482958(14) 0.612844(14)
La3A La 0.51010(2) -1.089230(14) -0.064080(13)
La4A La 0.43309(2) -0.451100(16) 0.132310(16)
O9A O 0.3549(3) -0.9737(2) 0.09294(18)
O11A O 0.4224(3) -0.87760(19) -0.03662(17)
O14A O 0.5411(3) -0.88426(19) 0.48311(18)
O16A O 0.5884(3) -0.96422(19) 0.38503(19)
O21A O 0.1898(3) -0.56282(19) 0.4981(2)
O22A O 0.1031(3) -0.41406(19) 0.42630(18)
O31A O 0.7494(3) -0.5824(2) -0.1723(2)
O36A O 0.5806(3) -0.5716(2) -0.2405(2)
O45A O 0.6455(4) -0.4908(3) -0.0832(2)
O53 O 0.0730(5) 0.0656(4) 0.1773(4)
O54 O 0.3227(6) -1.2403(3) 0.5060(4)
O55 O 0.1193(5) -0.0487(4) -0.2500(3)
O56 O 0.8188(4) -0.2652(3) 0.0948(4)
O57 O -0.1274(4) -0.7390(4) 0.4423(4)
O58 O 0.4502(7) -0.2485(3) -0.1099(3)
O59 O 0.1957(5) -0.2855(4) 0.0514(3)
O60 O 0.8642(10) -0.2087(5) -0.0498(6)
O61 O 0.4448(7) -1.2786(5) 0.5962(6)
O62 O 0.7645(9) -0.8254(6) 0.3021(7)
O63 O 0.7361(9) -0.5203(5) 0.1905(7)
O64 O 0.9311(9) -0.3700(9) 0.1878(9)
O65 O 0.2061(10) 0.1044(7) 0.2224(7)
O66 O 1.1755(12) -0.2350(9) -0.0882(8)
O67 O 0.1492(10) -0.5168(7) 0.1647(7)
O68 O -0.0172(13) 0.2115(11) 0.1378(12)
O69 O 0.6438(11) -0.2415(8) -0.1922(7)
O70 O -0.2251(13) -0.4194(9) 0.2764(9)
O71 O -0.4183(16) -0.4087(12) 0.3031(11)
O72 O -0.1105(18) -0.5705(13) 0.2975(12)
O73 O 0.2686(18) -0.6351(13) 0.2255(12)
O74 O 0.102(2) -0.7631(17) 0.2487(16)
O75 O 0.684(3) -0.6516(19) 0.2637(18)
O76 O 0.548(2) -0.6622(16) 0.2823(16)
loop_
_geom_bond_atom_site_label_1
_geom_bond_atom_site_label_2
_geom_bond_site_symmetry_1
_geom_bond_site_symmetry_2
La1 O2 1_555 1_555
La2 O20 1_555 1_555
La3 O3 1_555 1_555
La4 O26 1_555 1_555
P1 C1 1_555 1_555
P2 C1 1_555 1_555
P3 C7 1_555 1_555
P4 C7 1_555 1_555
P5 C13 1_555 1_555
P6 C13 1_555 1_555
P7 C19 1_555 1_555
P8 C19 1_555 1_555
P9 C25 1_555 1_555
P10 C25 1_555 1_555
P11 C31 1_555 1_555
P12 C31 1_555 1_555
P13 C37 1_555 1_555
P14 C37 1_555 1_555
P15 C43 1_555 1_555
P16 C43 1_555 1_555
N1 H1 1_555 1_555
H2 N1 1_555 1_555
N2 C2 1_555 1_555
N3 H3 1_555 1_555
H4 N3 1_555 1_555
N4 C8 1_555 1_555
N5 H5 1_555 1_555
H6 N5 1_555 1_555
N6 C14 1_555 1_555
N7 H7 1_555 1_555
H8 N7 1_555 1_555
N8 C20 1_555 1_555
N9 H9 1_555 1_555
H10 N9 1_555 1_555
N10 C26 1_555 1_555
N11 H11 1_555 1_555
H12 N11 1_555 1_555
N12 C32 1_555 1_555
N13 H13 1_555 1_555
H14 N13 1_555 1_555
N14 C38 1_555 1_555
N15 H15 1_555 1_555
H16 N15 1_555 1_555
C1 N1 1_555 1_555
H17 C1 1_555 1_555
C2 N1 1_555 1_555
C3 C2 1_555 1_555
H18 C3 1_555 1_555
C4 C3 1_555 1_555
H19 C4 1_555 1_555
C5 C4 1_555 1_555
H20 C5 1_555 1_555
C6 N2 1_555 1_555
H21 C6 1_555 1_555
C7 N3 1_555 1_555
H22 C7 1_555 1_555
C8 N3 1_555 1_555
C9 C8 1_555 1_555
H23 C9 1_555 1_555
C10 C9 1_555 1_555
H24 C10 1_555 1_555
C11 C10 1_555 1_555
H25 C11 1_555 1_555
C12 N4 1_555 1_555
H26 C12 1_555 1_555
C13 N5 1_555 1_555
H27 C13 1_555 1_555
C14 N5 1_555 1_555
C15 C14 1_555 1_555
H28 C15 1_555 1_555
C16 C15 1_555 1_555
H29 C16 1_555 1_555
C17 C16 1_555 1_555
H30 C17 1_555 1_555
C18 N6 1_555 1_555
H31 C18 1_555 1_555
C19 N7 1_555 1_555
H32 C19 1_555 1_555
C20 N7 1_555 1_555
C21 C20 1_555 1_555
H33 C21 1_555 1_555
C22 C21 1_555 1_555
H34 C22 1_555 1_555
C23 C22 1_555 1_555
H35 C23 1_555 1_555
C24 N8 1_555 1_555
H36 C24 1_555 1_555
C25 N9 1_555 1_555
H37 C25 1_555 1_555
C26 N9 1_555 1_555
C27 C26 1_555 1_555
H38 C27 1_555 1_555
C28 C27 1_555 1_555
H39 C28 1_555 1_555
C29 C28 1_555 1_555
H40 C29 1_555 1_555
C30 N10 1_555 1_555
H41 C30 1_555 1_555
C31 N11 1_555 1_555
H42 C31 1_555 1_555
C32 N11 1_555 1_555
C33 C32 1_555 1_555
H43 C33 1_555 1_555
C34 C33 1_555 1_555
H44 C34 1_555 1_555
C35 C34 1_555 1_555
H45 C35 1_555 1_555
C36 N12 1_555 1_555
H46 C36 1_555 1_555
C37 N13 1_555 1_555
H47 C37 1_555 1_555
C38 N13 1_555 1_555
C39 C38 1_555 1_555
H48 C39 1_555 1_555
C40 C39 1_555 1_555
H49 C40 1_555 1_555
C41 C40 1_555 1_555
H50 C41 1_555 1_555
C42 N14 1_555 1_555
H51 C42 1_555 1_555
C43 N15 1_555 1_555
H52 C43 1_555 1_555
C44 N15 1_555 1_555
C45 C44 1_555 1_555
H53 C45 1_555 1_555
C46 C45 1_555 1_555
H54 C46 1_555 1_555
C47 C46 1_555 1_555
H55 C47 1_555 1_555
C48 C47 1_555 1_555
H56 C48 1_555 1_555
N16 C44 1_555 1_555
O1 P1 1_555 1_555
H57 O1 1_555 1_555
O2 P1 1_555 1_555
O3 P1 1_555 1_555
O4 P2 1_555 1_555
O5 P2 1_555 1_555
H58 O5 1_555 1_555
O6 La3 1_555 1_555
O7 La3 1_555 1_555
O8 P3 1_555 1_555
H59 O8 1_555 1_555
O9 P3 1_555 1_555
O10 P4 1_555 1_555
O11 P4 1_555 1_555
O12 La3 1_555 1_555
O13 La1 1_555 1_555
O14 P5 1_555 1_555
O15 P5 1_555 1_555
H60 O15 1_555 1_555
O16 P6 1_555 1_555
O17 La1 1_555 1_555
O18 P6 1_555 1_555
O19 P7 1_555 1_555
H61 O19 1_555 1_555
O20 P7 1_555 1_555
O21 P7 1_555 1_555
O22 P8 1_555 1_555
O23 P8 1_555 1_555
O24 La2 1_555 1_555
O25 P9 1_555 1_555
H62 O25 1_555 1_555
O26 P9 1_555 1_555
O27 La3 1_555 1_555
O28 La4 1_555 1_555
O29 P10 1_555 1_555
H63 O29 1_555 1_555
O30 P10 1_555 1_555
O31 P11 1_555 1_555
O32 La2 1_555 1_555
O33 P11 1_555 1_555
H64 O33 1_555 1_555
O34 La2 1_555 1_555
O35 P12 1_555 1_555
O36 P12 1_555 1_555
O37 P13 1_555 1_555
H65 O37 1_555 1_555
O38 La1 1_555 1_555
O39 La2 1_555 1_555
O40 La1 1_555 1_555
O41 P14 1_555 1_555
H66 O41 1_555 1_555
O42 P14 1_555 1_555
O43 La4 1_555 1_555
O44 P15 1_555 1_555
H67 O44 1_555 1_555
O45 P15 1_555 1_555
O46 La4 1_555 1_555
O47 P16 1_555 1_555
H68 O47 1_555 1_555
O48 P16 1_555 1_555
O49 La1 1_555 1_555
O50 La2 1_555 1_555
O51 La3 1_555 1_555
O52 La4 1_555 1_555
La1A O14 1_555 1_555
La2A O21 1_555 1_555
La3A O9 1_555 1_555
La4A O31 1_555 1_555
O9A La3 1_555 1_555
O11A La3 1_555 1_555
O14A La1 1_555 1_555
O16A La1 1_555 1_555
O21A La2 1_555 1_555
O22A La2 1_555 1_555
O31A La4 1_555 1_555
O36A La4 1_555 1_555
O45A La4 1_555 1_555
P2 O6 1_555 1_555
P3 O7 1_555 1_555
P4 O12 1_555 1_555
P5 O13 1_555 1_555
P6 O17 1_555 1_555
P8 O24 1_555 1_555
P9 O27 1_555 1_555
P10 O28 1_555 1_555
P11 O32 1_555 1_555
P12 O34 1_555 1_555
P13 O38 1_555 1_555
P13 O39 1_555 1_555
P14 O40 1_555 1_555
P15 O43 1_555 1_555
P16 O46 1_555 1_555
C5 C6 1_555 1_555
C11 C12 1_555 1_555
C17 C18 1_555 1_555
C23 C24 1_555 1_555
C29 C30 1_555 1_555
C35 C36 1_555 1_555
C41 C42 1_555 1_555
C48 N16 1_555 1_555
O11 La3A 1_555 1_555
O16 La1A 1_555 1_555
O22 La2A 1_555 1_555
O36 La4A 1_555 1_555
O45 La4A 1_555 1_555

#END
