
#######################################################################
#
#                 Cambridge Crystallographic Data Centre
#                                CCDC 
#
#######################################################################
#
# If this CIF has been generated from an entry in the Cambridge 
# Structural Database, then it will include bibliographic, chemical, 
# crystal, experimental, refinement or atomic coordinate data resulting 
# from the CCDC's data processing and validation procedures.
#
#######################################################################

data_YUKBIP01
_chemical_formula_moiety         '(C6 H18 Al4 O18 P6)n'
_symmetry_cell_setting           trigonal
_symmetry_space_group_name_H-M   'P 3 1 c'
_symmetry_Int_Tables_number      159
_space_group_name_Hall           'P 3 -2c'
loop_
_symmetry_equiv_pos_site_id
_symmetry_equiv_pos_as_xyz
1 x,y,z
2 -y,x-y,z
3 y,x,1/2+z
4 -x+y,-x,z
5 -x,-x+y,1/2+z
6 x-y,-y,1/2+z
_cell_length_a                   13.9949(13)
_cell_length_b                   13.9949(13)
_cell_length_c                   8.5311(16)
_cell_angle_alpha                90
_cell_angle_beta                 90
_cell_angle_gamma                120
_cell_volume                     1447.02
loop_
_atom_site_label
_atom_site_type_symbol
_atom_site_fract_x
_atom_site_fract_y
_atom_site_fract_z
Al1 Al 0.6667 0.3333 0.4898
Al2 Al 0.5054(2) 0.6027(2) 0.5588(4)
P1 P 0.65201(12) 0.51772(11) 0.6997(3)
P2 P 0.81028(12) 0.52957(12) 0.2314(3)
O1 O 0.6246(5) 0.4153(5) 0.6172(7)
O2 O 0.6149(4) 0.5856(5) 0.6078(7)
O3 O 0.5941(4) 0.4905(4) 0.8607(6)
O4 O 0.7539(4) 0.4590(4) 0.3688(7)
O5 O 0.8878(5) 0.5005(5) 0.1437(8)
O6 O 0.7325(7) 0.5338(6) 0.1141(7)
C1 C 0.7963(5) 0.6016(6) 0.7305(10)
C2 C 0.8996(8) 0.6656(7) 0.2999(13)
H1 H 0.8110(7) 0.6683(21) 0.7832(55)
H2 H 0.8336(7) 0.6197(36) 0.6313(11)
H3 H 0.8221(9) 0.5624(18) 0.7936(54)
H4 H 0.9341(42) 0.7138(13) 0.2122(13)
H5 H 0.9552(34) 0.6660(12) 0.3662(61)
H6 H 0.8578(12) 0.6908(21) 0.3585(69)
P1A P 0.48228(11) 0.13429(16) 0.6997(3)
O1A O 0.5847(5) 0.2093(7) 0.6172(7)
O2A O 0.4144(5) 0.0293(6) 0.6078(7)
O3A O 0.5095(4) 0.1036(6) 0.8607(6)
C1A C 0.3984(6) 0.1947(8) 0.7305(10)
H1A H 0.3317(21) 0.1427(22) 0.7832(55)
H2A H 0.3803(36) 0.2139(37) 0.6313(11)
H3A H 0.4376(18) 0.2597(20) 0.7936(54)
P1C P 0.86571(16) 0.34799(12) 0.6997(3)
O1C O 0.7907(7) 0.3754(5) 0.6172(7)
O2C O 0.9707(6) 0.3851(4) 0.6078(7)
O3C O 0.8964(6) 0.4059(4) 0.8607(6)
C1C C 0.8053(8) 0.2037(5) 0.7305(10)
H1C H 0.8573(22) 0.1890(7) 0.7832(55)
H2C H 0.7861(37) 0.1664(7) 0.6313(11)
H3C H 0.7403(20) 0.1779(9) 0.7936(54)
P2A P 0.47043(12) 0.28071(17) 0.2314(3)
O4A O 0.5410(4) 0.2949(6) 0.3688(7)
O5A O 0.4995(5) 0.3873(7) 0.1437(8)
O6A O 0.4662(6) 0.1987(9) 0.1141(7)
C2A C 0.3344(7) 0.2340(11) 0.2999(13)
H4A H 0.2862(13) 0.2203(44) 0.2122(13)
H5A H 0.3340(12) 0.2892(36) 0.3662(61)
H6A H 0.3092(21) 0.1670(24) 0.3585(69)
P2C P 0.71929(17) 0.18972(12) 0.2314(3)
O4C O 0.7051(6) 0.2461(4) 0.3688(7)
O5C O 0.6127(7) 0.1122(5) 0.1437(8)
O6C O 0.8013(9) 0.2675(7) 0.1141(7)
C2C C 0.7660(11) 0.1004(8) 0.2999(13)
H4C H 0.7797(44) 0.0659(42) 0.2122(13)
H5C H 0.7108(36) 0.0448(34) 0.3662(61)
H6C H 0.8330(24) 0.1422(12) 0.3585(69)
Al2A Al 0.3973(2) -0.0973(3) 0.5588(4)
Al2C Al 1.0973(3) 0.4946(2) 0.5588(4)
O3B O 0.4905(4) 0.5941(4) 0.3607(6)
O5E O 0.3873(7) 0.4995(5) 0.6437(8)
O6B O 0.5338(6) 0.7325(7) 0.6141(7)
Al2B Al 0.6027(2) 0.5054(2) 1.0588(4)
Al2E Al 0.9027(3) 0.3973(2) 0.0588(4)
Al2B_2 Al 0.6027(2) 0.5054(2) 0.0588(4)
Al2D Al 0.4946(2) 0.0973(3) 1.0588(4)
Al2E_2 Al 0.9027(3) 0.3973(2) 1.0588(4)
Al2D_2 Al 0.4946(2) 0.0973(3) 0.0588(4)
O3D O 0.4059(4) -0.1036(6) 0.3607(6)
O5B O 0.5005(5) -0.1122(5) 0.6437(8)
O6D O 0.2675(7) -0.1987(9) 0.6141(7)
O3E O 1.1036(6) 0.5095(4) 0.3607(6)
O5D O 1.1122(5) 0.6127(7) 0.6437(8)
O6E O 1.1987(9) 0.4662(6) 0.6141(7)
loop_
_geom_bond_atom_site_label_1
_geom_bond_atom_site_label_2
_geom_bond_site_symmetry_1
_geom_bond_site_symmetry_2
Al1 O1 1_555 1_555
Al2 O2 1_555 1_555
P1 O1 1_555 1_555
P2 O4 1_555 1_555
O2 P1 1_555 1_555
O3 P1 1_555 1_555
O4 Al1 1_555 1_555
O5 P2 1_555 1_555
O6 P2 1_555 1_555
C1 P1 1_555 1_555
C2 P2 1_555 1_555
H1 C1 1_555 1_555
H2 C1 1_555 1_555
H3 C1 1_555 1_555
H4 C2 1_555 1_555
H5 C2 1_555 1_555
H6 C2 1_555 1_555
P1A O1A 1_555 1_555
O1A Al1 1_555 1_555
O2A P1A 1_555 1_555
O3A P1A 1_555 1_555
C1A P1A 1_555 1_555
H1A C1A 1_555 1_555
H2A C1A 1_555 1_555
H3A C1A 1_555 1_555
P1C O1C 1_555 1_555
O1C Al1 1_555 1_555
O2C P1C 1_555 1_555
O3C P1C 1_555 1_555
C1C P1C 1_555 1_555
H1C C1C 1_555 1_555
H2C C1C 1_555 1_555
H3C C1C 1_555 1_555
P2A O4A 1_555 1_555
O4A Al1 1_555 1_555
O5A P2A 1_555 1_555
O6A P2A 1_555 1_555
C2A P2A 1_555 1_555
H4A C2A 1_555 1_555
H5A C2A 1_555 1_555
H6A C2A 1_555 1_555
P2C O4C 1_555 1_555
O4C Al1 1_555 1_555
O5C P2C 1_555 1_555
O6C P2C 1_555 1_555
C2C P2C 1_555 1_555
H4C C2C 1_555 1_555
H5C C2C 1_555 1_555
H6C C2C 1_555 1_555
Al2A O2A 1_555 1_555
Al2C O2C 1_555 1_555
O3B Al2 1_555 1_555
O5E Al2 1_555 1_555
O6B Al2 1_555 1_555
Al2B O3 1_555 1_555
Al2E O5 1_555 1_555
Al2B_2 O6 1_555 1_555
Al2D O3A 1_555 1_555
Al2E_2 O3C 1_555 1_555
Al2D_2 O6A 1_555 1_555
O3D Al2A 1_555 1_555
O5B Al2A 1_555 1_555
O6D Al2A 1_555 1_555
O3E Al2C 1_555 1_555
O5D Al2C 1_555 1_555
O6E Al2C 1_555 1_555
O5A Al2B_2 1_555 1_555
O5C Al2D_2 1_555 1_555
O6C Al2E 1_555 1_555

#END
