
#######################################################################
#
#                 Cambridge Crystallographic Data Centre
#                                CCDC 
#
#######################################################################
#
# If this CIF has been generated from an entry in the Cambridge 
# Structural Database, then it will include bibliographic, chemical, 
# crystal, experimental, refinement or atomic coordinate data resulting 
# from the CCDC's data processing and validation procedures.
#
#######################################################################

data_IQILIF
_chemical_formula_moiety         '(C60 H46 Bi1 K1 N2 O10)n'
_symmetry_cell_setting           monoclinic
_symmetry_space_group_name_H-M   'C 2/c'
_symmetry_Int_Tables_number      15
_space_group_name_Hall           '-C 2yc'
loop_
_symmetry_equiv_pos_site_id
_symmetry_equiv_pos_as_xyz
1 x,y,z
2 -x,y,1/2-z
3 1/2+x,1/2+y,z
4 1/2-x,1/2+y,1/2-z
5 -x,-y,-z
6 x,-y,1/2+z
7 1/2-x,1/2-y,-z
8 1/2+x,1/2-y,1/2+z
_cell_length_a                   32.0791(13)
_cell_length_b                   11.9048(5)
_cell_length_c                   37.7384(15)
_cell_angle_alpha                90
_cell_angle_beta                 99.269(2)
_cell_angle_gamma                90
_cell_volume                     14223.9
loop_
_atom_site_label
_atom_site_type_symbol
_atom_site_fract_x
_atom_site_fract_y
_atom_site_fract_z
Bi1 Bi 0.24682(2) 0.31581(2) 0.30493(2)
C1 C 0.00540(19) -0.1556(5) 0.04282(15)
C2 C -0.03420(19) -0.1890(5) 0.04341(14)
C3 C 0.0972(2) -0.0695(6) 0.11265(17)
H1 H 0.1248 -0.0973 0.1212
C4 C 0.0716(2) -0.1250(6) 0.08532(17)
H2 H 0.0822 -0.1900 0.0752
C5 C 0.03093(18) -0.0889(5) 0.07220(14)
C6 C 0.01765(18) 0.0079(5) 0.08723(14)
H3 H -0.0099 0.0358 0.0786
C7 C 0.04265(18) 0.0652(5) 0.11405(14)
H4 H 0.0324 0.1320 0.1234
C8 C 0.08298(18) 0.0267(5) 0.12775(15)
C9 C 0.11016(18) 0.0843(5) 0.15757(16)
C10 C 0.1049(2) 0.1998(5) 0.16524(16)
H5 H 0.0837 0.2425 0.1506
C11 C 0.13007(19) 0.2498(5) 0.19343(15)
H6 H 0.1259 0.3271 0.1982
C12 C 0.16146(18) 0.1910(5) 0.21531(14)
C13 C 0.16750(19) 0.0782(5) 0.20805(17)
H7 H 0.1892 0.0372 0.2227
C14 C 0.1424(2) 0.0254(5) 0.17990(17)
H8 H 0.1468 -0.0519 0.1755
C15 C 0.18801(18) 0.2455(5) 0.24639(14)
O1 O 0.21919(11) 0.1898(3) 0.26345(9)
O2 O 0.17970(12) 0.3429(3) 0.25607(10)
C16 C 0.06070(19) -0.3185(5) -0.02341(15)
H9 H 0.0646 -0.3942 -0.0302
C17 C 0.03549(19) -0.2953(5) 0.00230(15)
H10 H 0.0221 -0.3553 0.0127
C18 C 0.02945(17) -0.1863(5) 0.01312(14)
C19 C 0.04977(18) -0.1004(5) -0.00277(16)
H11 H 0.0467 -0.0248 0.0045
C20 C 0.07409(19) -0.1234(5) -0.02859(16)
H12 H 0.0870 -0.0634 -0.0393
C21 C 0.08018(18) -0.2329(5) -0.03931(15)
C22 C 0.10841(19) -0.2557(5) -0.06636(16)
C23 C 0.1404(2) -0.3349(6) -0.05945(18)
H13 H 0.1429 -0.3796 -0.0383
C24 C 0.1687(2) -0.3492(6) -0.08337(17)
H14 H 0.1911 -0.4019 -0.0783
C25 C 0.16425(19) -0.2864(5) -0.11464(16)
C26 C 0.1319(2) -0.2112(5) -0.12217(17)
H15 H 0.1284 -0.1699 -0.1440
C27 C 0.1040(2) -0.1950(6) -0.09806(17)
H16 H 0.0818 -0.1418 -0.1033
C28 C 0.19598(19) -0.3004(5) -0.13982(15)
O3 O 0.18944(13) -0.2516(4) -0.16968(11)
O4 O 0.22821(15) -0.3591(5) -0.13035(12)
C29 C -0.1073(2) -0.4048(5) -0.00643(16)
H17 H -0.1239 -0.4657 -0.0003
C30 C -0.0843(2) -0.3421(5) 0.02025(15)
H18 H -0.0851 -0.3605 0.0446
C31 C -0.05969(18) -0.2522(5) 0.01238(15)
C32 C -0.06086(19) -0.2245(5) -0.02332(15)
H19 H -0.0454 -0.1613 -0.0294
C33 C -0.0842(2) -0.2873(5) -0.05037(15)
H20 H -0.0847 -0.2663 -0.0747
C34 C -0.1068(2) -0.3802(5) -0.04239(15)
C35 C -0.12987(19) -0.4567(5) -0.07063(15)
C36 C -0.1301(2) -0.5713(6) -0.06421(17)
H21 H -0.1156 -0.6000 -0.0421
C37 C -0.1509(2) -0.6444(5) -0.08936(16)
H22 H -0.1501 -0.7229 -0.0847
C38 C -0.17296(19) -0.6037(5) -0.12172(14)
C39 C -0.1729(2) -0.4894(5) -0.12811(16)
H23 H -0.1877 -0.4608 -0.1501
C40 C -0.1514(2) -0.4155(5) -0.10293(16)
H24 H -0.1516 -0.3372 -0.1078
C41 C -0.19576(17) -0.6866(5) -0.14716(14)
O5 O -0.22549(11) -0.6497(3) -0.17149(9)
O6 O -0.18649(13) -0.7883(3) -0.14479(11)
C42 C -0.05808(19) -0.1826(6) 0.13902(16)
H25 H -0.0438 -0.1969 0.1627
C43 C -0.03638(19) -0.1947(6) 0.11007(16)
H26 H -0.0079 -0.2200 0.1142
C44 C -0.05571(18) -0.1704(5) 0.07532(14)
C45 C -0.09775(19) -0.1391(5) 0.07000(15)
H27 H -0.1118 -0.1248 0.0463
C46 C -0.1200(2) -0.1280(5) 0.09885(16)
H28 H -0.1488 -0.1053 0.0945
C47 C -0.1003(2) -0.1498(5) 0.13391(15)
C48 C -0.1244(2) -0.1450(5) 0.16413(15)
C49 C -0.1575(2) -0.0699(5) 0.16404(16)
H29 H -0.1633 -0.0167 0.1451
C50 C -0.1824(2) -0.0708(5) 0.19097(16)
H30 H -0.2044 -0.0174 0.1907
C51 C -0.17488(19) -0.1498(5) 0.21826(14)
C52 C -0.14103(19) -0.2231(5) 0.21919(15)
H31 H -0.1346 -0.2745 0.2386
C53 C -0.1165(2) -0.2218(6) 0.19204(17)
H32 H -0.0941 -0.2742 0.1926
C54 C -0.20347(18) -0.1572(4) 0.24614(14)
O7 O -0.19318(12) -0.2229(3) 0.27230(10)
O8 O -0.23606(12) -0.0987(3) 0.24245(10)
K1 K 0.20417(4) 0.55108(11) 0.23411(3)
O9 O 0.2203(2) 0.5472(4) 0.30556(12)
C55 C 0.2038(3) 0.5760(8) 0.3318(2)
H33 H 0.1779 0.5445 0.3362
N1 N 0.2252(3) 0.6568(7) 0.3542(2)
C56 C 0.2648(5) 0.7129(16) 0.3469(5)
H34 H 0.2662 0.7085 0.3212
H35 H 0.2894 0.6750 0.3605
H36 H 0.2647 0.7919 0.3542
C57 C 0.2046(5) 0.6775(12) 0.3868(4)
H37 H 0.1774 0.6382 0.3839
H38 H 0.2000 0.7583 0.3893
H39 H 0.2230 0.6494 0.4082
O10 O 0.1248(3) 0.5483(8) 0.2019(2)
C58 C 0.1004(8) 0.564(2) 0.2245(7)
H40 H 0.0996 0.5268 0.2466
N2 N 0.0731(8) 0.657(2) 0.2071(8)
C59 C 0.0864(10) 0.726(3) 0.1769(9)
C60 C 0.0336(11) 0.680(3) 0.2255(11)
Bi1B Bi -0.25318(2) -0.18419(2) 0.30493(2)
Bi1E Bi 0.24682(2) -0.31581(2) -0.19507(2)
Bi1G Bi -0.25318(2) -0.81581(2) -0.19507(2)
O1C O 0.28081(11) 0.6898(3) 0.23655(9)
O3E O 0.18944(13) 0.2516(4) 0.33032(11)
O4E O 0.22821(15) 0.3591(5) 0.36965(12)
O5D O 0.22549(11) 0.6497(3) 0.17149(9)
O5G O 0.27451(11) 0.1497(3) 0.32851(9)
O6G O 0.31351(13) 0.2883(3) 0.35521(11)
O7A O 0.19318(12) 0.7771(3) 0.22770(10)
O7B O 0.30682(12) 0.2771(3) 0.27230(10)
O8B O 0.26394(12) 0.4013(3) 0.24245(10)
K1A K -0.20417(4) -0.44892(11) 0.26589(3)
K1B K -0.29583(4) 0.05108(11) 0.23411(3)
K1C K 0.29583(4) 0.05108(11) 0.26589(3)
K1D K -0.20417(4) -0.55108(11) -0.23411(3)
loop_
_geom_bond_atom_site_label_1
_geom_bond_atom_site_label_2
_geom_bond_site_symmetry_1
_geom_bond_site_symmetry_2
Bi1 O1 1_555 1_555
C1 C2 1_555 1_555
C2 C31 1_555 1_555
C3 H1 1_555 1_555
C4 C3 1_555 1_555
H2 C4 1_555 1_555
C5 C1 1_555 1_555
C6 C5 1_555 1_555
H3 C6 1_555 1_555
C7 C6 1_555 1_555
H4 C7 1_555 1_555
C8 C3 1_555 1_555
C9 C8 1_555 1_555
C10 C9 1_555 1_555
H5 C10 1_555 1_555
C11 C10 1_555 1_555
H6 C11 1_555 1_555
C12 C11 1_555 1_555
C13 C12 1_555 1_555
H7 C13 1_555 1_555
C14 C9 1_555 1_555
H8 C14 1_555 1_555
C15 C12 1_555 1_555
O1 C15 1_555 1_555
O2 Bi1 1_555 1_555
C16 H9 1_555 1_555
C17 C16 1_555 1_555
H10 C17 1_555 1_555
C18 C1 1_555 1_555
C19 C18 1_555 1_555
H11 C19 1_555 1_555
C20 C19 1_555 1_555
H12 C20 1_555 1_555
C21 C16 1_555 1_555
C22 C21 1_555 1_555
C23 C22 1_555 1_555
H13 C23 1_555 1_555
C24 C23 1_555 1_555
H14 C24 1_555 1_555
C25 C24 1_555 1_555
C26 C25 1_555 1_555
H15 C26 1_555 1_555
C27 C22 1_555 1_555
H16 C27 1_555 1_555
C28 C25 1_555 1_555
O3 C28 1_555 1_555
O4 C28 1_555 1_555
C29 H17 1_555 1_555
C30 C29 1_555 1_555
H18 C30 1_555 1_555
C31 C30 1_555 1_555
C32 C31 1_555 1_555
H19 C32 1_555 1_555
C33 C32 1_555 1_555
H20 C33 1_555 1_555
C34 C29 1_555 1_555
C35 C34 1_555 1_555
C36 C35 1_555 1_555
H21 C36 1_555 1_555
C37 C36 1_555 1_555
H22 C37 1_555 1_555
C38 C37 1_555 1_555
C39 C38 1_555 1_555
H23 C39 1_555 1_555
C40 C35 1_555 1_555
H24 C40 1_555 1_555
C41 C38 1_555 1_555
O5 C41 1_555 1_555
O6 C41 1_555 1_555
C42 H25 1_555 1_555
C43 C42 1_555 1_555
H26 C43 1_555 1_555
C44 C2 1_555 1_555
C45 C44 1_555 1_555
H27 C45 1_555 1_555
C46 C45 1_555 1_555
H28 C46 1_555 1_555
C47 C42 1_555 1_555
C48 C47 1_555 1_555
C49 C48 1_555 1_555
H29 C49 1_555 1_555
C50 C49 1_555 1_555
H30 C50 1_555 1_555
C51 C50 1_555 1_555
C52 C51 1_555 1_555
H31 C52 1_555 1_555
C53 C48 1_555 1_555
H32 C53 1_555 1_555
C54 C51 1_555 1_555
O7 C54 1_555 1_555
O8 C54 1_555 1_555
K1 O2 1_555 1_555
O9 Bi1 1_555 1_555
C55 O9 1_555 1_555
H33 C55 1_555 1_555
N1 C55 1_555 1_555
C56 N1 1_555 1_555
H34 C56 1_555 1_555
H35 C56 1_555 1_555
H36 C56 1_555 1_555
C57 N1 1_555 1_555
H37 C57 1_555 1_555
H38 C57 1_555 1_555
H39 C57 1_555 1_555
O10 K1 1_555 1_555
C58 O10 1_555 1_555
H40 C58 1_555 1_555
N2 C58 1_555 1_555
C59 N2 1_555 1_555
C60 N2 1_555 1_555
Bi1B O7 1_555 1_555
Bi1E O3 1_555 1_555
Bi1G O5 1_555 1_555
O1C K1 1_555 1_555
O3E Bi1 1_555 1_555
O4E Bi1 1_555 1_555
O5D K1 1_555 1_555
O5G Bi1 1_555 1_555
O6G Bi1 1_555 1_555
O7A K1 1_555 1_555
O7B Bi1 1_555 1_555
O8B Bi1 1_555 1_555
K1A O7 1_555 1_555
K1B O8 1_555 1_555
K1C O1 1_555 1_555
K1D O5 1_555 1_555
C4 C5 1_555 1_555
C7 C8 1_555 1_555
C13 C14 1_555 1_555
C15 O2 1_555 1_555
C17 C18 1_555 1_555
C20 C21 1_555 1_555
C26 C27 1_555 1_555
O4 Bi1E 1_555 1_555
C33 C34 1_555 1_555
C39 C40 1_555 1_555
O6 Bi1G 1_555 1_555
C43 C44 1_555 1_555
C46 C47 1_555 1_555
C52 C53 1_555 1_555
O8 Bi1B 1_555 1_555
K1 O9 1_555 1_555
K1 O8B 1_555 1_555
O5G K1C 1_555 1_555
O7B K1C 1_555 1_555

#END
