
#######################################################################
#
#                 Cambridge Crystallographic Data Centre
#                                CCDC 
#
#######################################################################
#
# If this CIF has been generated from an entry in the Cambridge 
# Structural Database, then it will include bibliographic, chemical, 
# crystal, experimental, refinement or atomic coordinate data resulting 
# from the CCDC's data processing and validation procedures.
#
#######################################################################

data_NOFPUT
_chemical_formula_moiety         '(C42 H81 Bi5 Na2 O50 20-)n'
_symmetry_cell_setting           cubic
_symmetry_space_group_name_H-M   'P 21 3'
_symmetry_Int_Tables_number      198
_space_group_name_Hall           'P 2ac 2ab 3'
loop_
_symmetry_equiv_pos_site_id
_symmetry_equiv_pos_as_xyz
1 x,y,z
2 z,x,y
3 y,z,x
4 1/2+x,1/2-y,-z
5 -z,1/2+x,1/2-y
6 1/2-y,-z,1/2+x
7 1/2+y,1/2-z,-x
8 1/2+z,1/2-x,-y
9 1/2-z,-x,1/2+y
10 -x,1/2+y,1/2-z
11 -y,1/2+z,1/2-x
12 1/2-x,-y,1/2+z
_cell_length_a                   21.2245(11)
_cell_length_b                   21.2245(11)
_cell_length_c                   21.2245(11)
_cell_angle_alpha                90
_cell_angle_beta                 90
_cell_angle_gamma                90
_cell_volume                     9561.2
loop_
_atom_site_label
_atom_site_type_symbol
_atom_site_fract_x
_atom_site_fract_y
_atom_site_fract_z
Bi1 Bi 0.277708(9) 0.422579(9) 0.527744(9)
Bi2 Bi 0.131815(9) 0.368185(9) 0.631815(9)
Bi3 Bi 0.406430(9) 0.406430(9) 0.406430(9)
O1 O 0.1768(2) 0.2582(2) 0.3615(2)
O2 O 0.4237(2) 0.2580(2) 0.6623(2)
O3 O 0.2427(2) 0.3984(2) 0.4325(2)
O4 O 0.3266(2) 0.3912(2) 0.6184(2)
O5 O 0.2182(2) 0.3401(2) 0.5451(2)
O6 O 0.3460(2) 0.3538(2) 0.4976(2)
O7 O 0.0856(2) 0.3404(2) 0.5452(2)
O8 O 0.4733(2) 0.3772(2) 0.4804(2)
O9 O 0.1190(2) 0.3503(2) 0.3753(2)
O10 O 0.4649(2) 0.3596(2) 0.6532(2)
O11 O 0.0205(2) 0.4275(2) 0.4138(2)
H1 H 0.0202(33) 0.4442(30) 0.4445(23)
O12 O 0.5482(2) 0.4532(2) 0.6158(2)
H2 H 0.5355(30) 0.4691(30) 0.5875(24)
C1 C 0.1803(3) 0.3238(3) 0.3714(3)
H3 H 0.2013(3) 0.3423(3) 0.3359(3)
C2 C 0.4090(3) 0.3230(3) 0.6611(2)
H4 H 0.3905(3) 0.3339(3) 0.7009(2)
C3 C 0.2214(3) 0.3349(3) 0.4298(2)
H5 H 0.2572(3) 0.3073(3) 0.4281(2)
C4 C 0.3592(3) 0.3339(3) 0.6092(2)
H6 H 0.3293(3) 0.3000(3) 0.6107(2)
C5 C 0.1838(2) 0.3208(3) 0.4900(2)
H7 H 0.1767(2) 0.2762(3) 0.4924(2)
C6 C 0.3901(2) 0.3344(2) 0.5443(2)
H8 H 0.4034(2) 0.2922(2) 0.5346(2)
C7 C 0.1196(2) 0.3542(2) 0.4891(2)
H9 H 0.1264(2) 0.3989(2) 0.4868(2)
C8 C 0.4477(2) 0.3772(2) 0.5427(2)
H10 H 0.4351(2) 0.4192(2) 0.5535(2)
C9 C 0.0835(3) 0.3332(3) 0.4310(3)
H11 H 0.0791(3) 0.2882(3) 0.4322(3)
C10 C 0.4946(2) 0.3535(2) 0.5916(2)
H12 H 0.5039(2) 0.3099(2) 0.5837(2)
C11 C 0.0184(3) 0.3624(3) 0.4242(3)
H13 H -0.0030(3) 0.3427(3) 0.3896(3)
H14 H -0.0054(3) 0.3543(3) 0.4617(3)
C12 C 0.5557(3) 0.3903(3) 0.5954(3)
H15 H 0.5837(3) 0.3690(3) 0.6238(3)
H16 H 0.5751(3) 0.3905(3) 0.5546(3)
C13 C 0.1484(4) 0.2423(4) 0.3029(3)
H17 H 0.1472(4) 0.1974(4) 0.2984(3)
H18 H 0.1725(4) 0.2602(4) 0.2691(3)
H19 H 0.1062(4) 0.2587(4) 0.3017(3)
C14 C 0.4568(4) 0.2402(4) 0.7176(4)
H20 H 0.4656(4) 0.1958(4) 0.7162(4)
H21 H 0.4315(4) 0.2494(4) 0.7540(4)
H22 H 0.4957(4) 0.2632(4) 0.7200(4)
O2A O 0.6623(2) 0.4237(2) 0.2580(2)
O4A O 0.6184(2) 0.3266(2) 0.3912(2)
O6A O 0.4976(2) 0.3460(2) 0.3538(2)
O8A O 0.4804(2) 0.4733(2) 0.3772(2)
O10A O 0.6532(2) 0.4649(2) 0.3596(2)
O12A O 0.6158(2) 0.5482(2) 0.4532(2)
H2A H 0.5875(24) 0.5355(30) 0.4691(30)
C2A C 0.6611(2) 0.4090(3) 0.3230(3)
H4A H 0.7009(2) 0.3905(3) 0.3339(3)
C4A C 0.6092(2) 0.3592(3) 0.3339(3)
H6A H 0.6107(2) 0.3293(3) 0.3000(3)
C6A C 0.5443(2) 0.3901(2) 0.3344(2)
H8A H 0.5346(2) 0.4034(2) 0.2922(2)
C8A C 0.5427(2) 0.4477(2) 0.3772(2)
H10A H 0.5535(2) 0.4351(2) 0.4192(2)
C10A C 0.5916(2) 0.4946(2) 0.3535(2)
H12A H 0.5837(2) 0.5039(2) 0.3099(2)
C12A C 0.5954(3) 0.5557(3) 0.3903(3)
H15A H 0.6238(3) 0.5837(3) 0.3690(3)
H16A H 0.5546(3) 0.5751(3) 0.3905(3)
C14A C 0.7176(4) 0.4568(4) 0.2402(4)
H20A H 0.7162(4) 0.4656(4) 0.1958(4)
H21A H 0.7540(4) 0.4315(4) 0.2494(4)
H22A H 0.7200(4) 0.4957(4) 0.2632(4)
O2B O 0.2580(2) 0.6623(2) 0.4237(2)
O4B O 0.3912(2) 0.6184(2) 0.3266(2)
O6B O 0.3538(2) 0.4976(2) 0.3460(2)
O8B O 0.3772(2) 0.4804(2) 0.4733(2)
O10B O 0.3596(2) 0.6532(2) 0.4649(2)
O12B O 0.4532(2) 0.6158(2) 0.5482(2)
H2B H 0.4691(30) 0.5875(24) 0.5355(30)
C2B C 0.3230(3) 0.6611(2) 0.4090(3)
H4B H 0.3339(3) 0.7009(2) 0.3905(3)
C4B C 0.3339(3) 0.6092(2) 0.3592(3)
H6B H 0.3000(3) 0.6107(2) 0.3293(3)
C6B C 0.3344(2) 0.5443(2) 0.3901(2)
H8B H 0.2922(2) 0.5346(2) 0.4034(2)
C8B C 0.3772(2) 0.5427(2) 0.4477(2)
H10B H 0.4192(2) 0.5535(2) 0.4351(2)
C10B C 0.3535(2) 0.5916(2) 0.4946(2)
H12B H 0.3099(2) 0.5837(2) 0.5039(2)
C12B C 0.3903(3) 0.5954(3) 0.5557(3)
H15B H 0.3690(3) 0.6238(3) 0.5837(3)
H16B H 0.3905(3) 0.5546(3) 0.5751(3)
C14B C 0.2402(4) 0.7176(4) 0.4568(4)
H20B H 0.1958(4) 0.7162(4) 0.4656(4)
H21B H 0.2494(4) 0.7540(4) 0.4315(4)
H22B H 0.2632(4) 0.7200(4) 0.4957(4)
O1E O 0.2418(2) 0.6385(2) 0.6768(2)
O3E O 0.1016(2) 0.5675(2) 0.7427(2)
O5E O 0.1599(2) 0.4549(2) 0.7182(2)
O7E O 0.1596(2) 0.4548(2) 0.5856(2)
O9E O 0.1497(2) 0.6247(2) 0.6190(2)
O11E O 0.0725(2) 0.5862(2) 0.5205(2)
H1E H 0.0558(30) 0.5555(23) 0.5202(33)
C1E C 0.1762(3) 0.6286(3) 0.6803(3)
H3E H 0.1577(3) 0.6641(3) 0.7013(3)
C3E C 0.1651(3) 0.5702(2) 0.7214(3)
H5E H 0.1927(3) 0.5719(2) 0.7572(3)
C5E C 0.1792(3) 0.5100(2) 0.6838(2)
H7E H 0.2238(3) 0.5076(2) 0.6767(2)
C7E C 0.1458(2) 0.5109(2) 0.6196(2)
H9E H 0.1011(2) 0.5132(2) 0.6264(2)
C9E C 0.1668(3) 0.5690(3) 0.5835(3)
H11E H 0.2118(3) 0.5678(3) 0.5791(3)
C11E C 0.1376(3) 0.5758(3) 0.5184(3)
H13E H 0.1573(3) 0.6104(3) 0.4970(3)
H14E H 0.1457(3) 0.5383(3) 0.4946(3)
C13E C 0.2577(4) 0.6971(3) 0.6484(4)
H17E H 0.3026(4) 0.7016(3) 0.6472(4)
H18E H 0.2398(4) 0.7309(3) 0.6725(4)
H19E H 0.2413(4) 0.6983(3) 0.6062(4)
O1G O -0.1385(2) 0.3232(2) 0.7418(2)
O3G O -0.0675(2) 0.2573(2) 0.6016(2)
O5G O 0.0451(2) 0.2818(2) 0.6599(2)
O7G O 0.0452(2) 0.4144(2) 0.6596(2)
O9G O -0.1247(2) 0.3810(2) 0.6497(2)
O11G O -0.0862(2) 0.4795(2) 0.5725(2)
H1G H -0.0555(23) 0.4798(33) 0.5558(30)
C1G C -0.1286(3) 0.3197(3) 0.6762(3)
H3G H -0.1641(3) 0.2987(3) 0.6577(3)
C3G C -0.0702(2) 0.2786(3) 0.6651(3)
H5G H -0.0719(2) 0.2428(3) 0.6927(3)
C5G C -0.0100(2) 0.3162(2) 0.6792(3)
H7G H -0.0076(2) 0.3233(2) 0.7238(3)
C7G C -0.0109(2) 0.3804(2) 0.6458(2)
H9G H -0.0132(2) 0.3736(2) 0.6011(2)
C9G C -0.0690(3) 0.4165(3) 0.6668(3)
H11G H -0.0678(3) 0.4209(3) 0.7118(3)
C11G C -0.0758(3) 0.4816(3) 0.6376(3)
H13G H -0.1104(3) 0.5030(3) 0.6573(3)
H14G H -0.0383(3) 0.5054(3) 0.6457(3)
C13G C -0.1971(3) 0.3516(4) 0.7577(4)
H17G H -0.2016(3) 0.3528(4) 0.8026(4)
H18G H -0.2309(3) 0.3275(4) 0.7398(4)
H19G H -0.1983(3) 0.3938(4) 0.7413(4)
Bi1A Bi 0.527744(9) 0.277708(9) 0.422579(9)
Bi1B Bi 0.422579(9) 0.527744(9) 0.277708(9)
Bi1E Bi 0.077421(9) 0.472256(9) 0.777708(9)
Bi1G Bi 0.027744(9) 0.222292(9) 0.577421(9)
O4G O 0.1184(2) 0.1734(2) 0.6088(2)
O6G O -0.0024(2) 0.1540(2) 0.6462(2)
O3B O 0.3984(2) 0.4325(2) 0.2427(2)
O5B O 0.3401(2) 0.5451(2) 0.2182(2)
Na1 Na 0.08647(15) 0.44965(13) 0.32479(13)
Na2 Na 0.00812(13) 0.54555(13) 0.21420(12)
O13 O 0.0215(2) 0.4785(2) 0.5215(2)
H23 H 0.0417(12) 0.4583(12) 0.5417(12)
O14 O -0.0200(2) 0.4800(2) 0.0200(2)
H24 H 0.0002(12) 0.5002(12) -0.0002(12)
O15 O 0.1894(3) 0.4804(3) 0.3502(4)
O16 O 0.1059(3) 0.5160(3) 0.1788(3)
O17 O 0.0591(4) 0.5607(3) 0.3142(3)
O18 O -0.0020(3) 0.4357(3) 0.2513(2)
O19 O 0.2526(9) 0.2474(9) 0.7526(9)
O20 O 0.3340(8) 0.1660(8) 0.8340(8)
O21 O 0.3388(8) 0.1536(8) -0.0055(12)
O22 O 0.0074(4) 0.1122(4) 0.0777(4)
O23 O -0.0774(10) 0.6032(13) 0.2690(8)
O24 O 0.7613(25) 0.3694(15) 0.0978(16)
O25 O 0.1374(5) 0.3988(5) 0.2289(4)
O26 O -0.1580(13) 0.5593(14) 0.2924(13)
loop_
_geom_bond_atom_site_label_1
_geom_bond_atom_site_label_2
_geom_bond_site_symmetry_1
_geom_bond_site_symmetry_2
Bi1 O3 1_555 1_555
Bi2 O5 1_555 1_555
Bi3 O6 1_555 1_555
O1 C1 1_555 1_555
O2 C2 1_555 1_555
O3 C3 1_555 1_555
O4 Bi1 1_555 1_555
O5 Bi1 1_555 1_555
O6 Bi1 1_555 1_555
O7 Bi2 1_555 1_555
O8 Bi3 1_555 1_555
O9 C1 1_555 1_555
O10 C2 1_555 1_555
O11 H1 1_555 1_555
O12 H2 1_555 1_555
C1 H3 1_555 1_555
C2 H4 1_555 1_555
C3 C1 1_555 1_555
H5 C3 1_555 1_555
C4 O4 1_555 1_555
H6 C4 1_555 1_555
C5 O5 1_555 1_555
H7 C5 1_555 1_555
C6 O6 1_555 1_555
H8 C6 1_555 1_555
C7 O7 1_555 1_555
H9 C7 1_555 1_555
C8 O8 1_555 1_555
H10 C8 1_555 1_555
C9 O9 1_555 1_555
H11 C9 1_555 1_555
C10 O10 1_555 1_555
H12 C10 1_555 1_555
C11 O11 1_555 1_555
H13 C11 1_555 1_555
H14 C11 1_555 1_555
C12 O12 1_555 1_555
H15 C12 1_555 1_555
H16 C12 1_555 1_555
C13 O1 1_555 1_555
H17 C13 1_555 1_555
H18 C13 1_555 1_555
H19 C13 1_555 1_555
C14 O2 1_555 1_555
H20 C14 1_555 1_555
H21 C14 1_555 1_555
H22 C14 1_555 1_555
O13 H23 1_555 1_555
O14 H24 1_555 1_555
O2A C2A 1_555 1_555
O4A C4A 1_555 1_555
O6A Bi3 1_555 1_555
O8A Bi3 1_555 1_555
O10A C2A 1_555 1_555
O12A H2A 1_555 1_555
C2A H4A 1_555 1_555
C4A C2A 1_555 1_555
H6A C4A 1_555 1_555
C6A O6A 1_555 1_555
H8A C6A 1_555 1_555
C8A O8A 1_555 1_555
H10A C8A 1_555 1_555
C10A O10A 1_555 1_555
H12A C10A 1_555 1_555
C12A O12A 1_555 1_555
H15A C12A 1_555 1_555
H16A C12A 1_555 1_555
C14A O2A 1_555 1_555
H20A C14A 1_555 1_555
H21A C14A 1_555 1_555
H22A C14A 1_555 1_555
O2B C2B 1_555 1_555
O4B C4B 1_555 1_555
O6B Bi3 1_555 1_555
O8B Bi3 1_555 1_555
O10B C2B 1_555 1_555
O12B H2B 1_555 1_555
C2B H4B 1_555 1_555
C4B C2B 1_555 1_555
H6B C4B 1_555 1_555
C6B O6B 1_555 1_555
H8B C6B 1_555 1_555
C8B O8B 1_555 1_555
H10B C8B 1_555 1_555
C10B O10B 1_555 1_555
H12B C10B 1_555 1_555
C12B O12B 1_555 1_555
H15B C12B 1_555 1_555
H16B C12B 1_555 1_555
C14B O2B 1_555 1_555
H20B C14B 1_555 1_555
H21B C14B 1_555 1_555
H22B C14B 1_555 1_555
O1E C1E 1_555 1_555
O3E C3E 1_555 1_555
O5E Bi2 1_555 1_555
O7E Bi2 1_555 1_555
O9E C1E 1_555 1_555
O11E H1E 1_555 1_555
C1E H3E 1_555 1_555
C3E C1E 1_555 1_555
H5E C3E 1_555 1_555
C5E O5E 1_555 1_555
H7E C5E 1_555 1_555
C7E O7E 1_555 1_555
H9E C7E 1_555 1_555
C9E O9E 1_555 1_555
H11E C9E 1_555 1_555
C11E O11E 1_555 1_555
H13E C11E 1_555 1_555
H14E C11E 1_555 1_555
C13E O1E 1_555 1_555
H17E C13E 1_555 1_555
H18E C13E 1_555 1_555
H19E C13E 1_555 1_555
O1G C1G 1_555 1_555
O3G C3G 1_555 1_555
O5G Bi2 1_555 1_555
O7G Bi2 1_555 1_555
O9G C1G 1_555 1_555
O11G H1G 1_555 1_555
C1G H3G 1_555 1_555
C3G C1G 1_555 1_555
H5G C3G 1_555 1_555
C5G O5G 1_555 1_555
H7G C5G 1_555 1_555
C7G O7G 1_555 1_555
H9G C7G 1_555 1_555
C9G O9G 1_555 1_555
H11G C9G 1_555 1_555
C11G O11G 1_555 1_555
H13G C11G 1_555 1_555
H14G C11G 1_555 1_555
C13G O1G 1_555 1_555
H17G C13G 1_555 1_555
H18G C13G 1_555 1_555
H19G C13G 1_555 1_555
Bi1A O4A 1_555 1_555
Bi1B O4B 1_555 1_555
Bi1E O3E 1_555 1_555
Bi1G O3G 1_555 1_555
O4G Bi1G 1_555 1_555
O6G Bi1G 1_555 1_555
O3B Bi1B 1_555 1_555
O5B Bi1B 1_555 1_555
C2 C4 1_555 1_555
C3 C5 1_555 1_555
C4 C6 1_555 1_555
C5 C7 1_555 1_555
C6 C8 1_555 1_555
C7 C9 1_555 1_555
C8 C10 1_555 1_555
C9 C11 1_555 1_555
C10 C12 1_555 1_555
O6A Bi1A 1_555 1_555
C4A C6A 1_555 1_555
C6A C8A 1_555 1_555
C8A C10A 1_555 1_555
C10A C12A 1_555 1_555
O6B Bi1B 1_555 1_555
C4B C6B 1_555 1_555
C6B C8B 1_555 1_555
C8B C10B 1_555 1_555
C10B C12B 1_555 1_555
O5E Bi1E 1_555 1_555
C3E C5E 1_555 1_555
C5E C7E 1_555 1_555
C7E C9E 1_555 1_555
C9E C11E 1_555 1_555
O5G Bi1G 1_555 1_555
C3G C5G 1_555 1_555
C5G C7G 1_555 1_555
C7G C9G 1_555 1_555
C9G C11G 1_555 1_555

#END
