
#######################################################################
#
#                 Cambridge Crystallographic Data Centre
#                                CCDC 
#
#######################################################################
#
# If this CIF has been generated from an entry in the Cambridge 
# Structural Database, then it will include bibliographic, chemical, 
# crystal, experimental, refinement or atomic coordinate data resulting 
# from the CCDC's data processing and validation procedures.
#
#######################################################################

data_BICDAU
_chemical_formula_moiety         'C88 H60 N53 O18 Zn23'
_symmetry_cell_setting           trigonal
_symmetry_space_group_name_H-M   'P 3 2 1'
_symmetry_Int_Tables_number      150
_space_group_name_Hall           'P 3 2"'
loop_
_symmetry_equiv_pos_site_id
_symmetry_equiv_pos_as_xyz
1 x,y,z
2 -y,x-y,z
3 y,x,-z
4 -x+y,-x,z
5 -x,-x+y,-z
6 x-y,-y,-z
_cell_length_a                   17.750(3)
_cell_length_b                   17.750(3)
_cell_length_c                   19.192(4)
_cell_angle_alpha                90
_cell_angle_beta                 90
_cell_angle_gamma                120
_cell_volume                     5236.58
loop_
_atom_site_label
_atom_site_type_symbol
_atom_site_fract_x
_atom_site_fract_y
_atom_site_fract_z
Zn1 Zn 0.3333 0.6667 0.73553(3)
Zn2 Zn 0.3333 0.6667 0.92204(3)
Zn3 Zn 0.12712(2) 0.63128(2) 0.672159(18)
O1 O 0.0555(4) 0.6221(4) 0.5675(4)
O2 O 0.0065(4) 0.6037(7) 0.6723(4)
C1 C -0.0123(5) 0.5968(5) 0.6190(5)
C2 C -0.1013(4) 0.5755(6) 0.5924(5)
H1 H -0.1066 0.6279 0.5943
H2 H -0.1464 0.5300 0.6215
H3 H -0.1083 0.5550 0.5441
O3 O 0.3057(7) 0.7327(8) 1.0168(6)
C3 C 0.3333 0.6667 1.0519(8)
C4 C 0.3333 0.6667 1.1273(6)
H4 H 0.3396 0.7216 1.1443
N1 N 0.25569(17) 0.49349(16) 0.64706(13)
N2 N 0.24261(16) 0.55677(16) 0.66966(14)
N3 N 0.16899(16) 0.54785(16) 0.64334(15)
C5 C 0.1327(2) 0.47645(19) 0.60253(17)
C6 C 0.1883(2) 0.4414(2) 0.60456(17)
C7 C 0.1687(2) 0.3660(2) 0.5658(2)
H5 H 0.2054 0.3413 0.5670
C8 C 0.0945(2) 0.3303(2) 0.5267(2)
H6 H 0.0794 0.2792 0.5006
C9 C 0.0385(2) 0.3669(2) 0.52327(19)
C10 C 0.0574(2) 0.4392(2) 0.56144(18)
H7 H 0.0204 0.4636 0.5602
N4 N 0.14735(15) 0.63271(16) 0.77672(14)
N5 N 0.22396(17) 0.64763(17) 0.80086(14)
N6 N 0.22334(16) 0.64164(17) 0.86958(13)
C11 C 0.0947(2) 0.6161(2) 0.83284(16)
C12 C 0.14271(19) 0.6220(2) 0.89214(16)
C13 C 0.1071(2) 0.6068(2) 0.95964(17)
H8 H 0.1405 0.6107 0.9995
C14 C 0.0219(2) 0.5860(2) 0.96517(17)
C15 C -0.02668(16) 0.58151(17) 0.90472(14)
H9 H -0.0854 0.5677 0.9103
C16 C 0.00735(16) 0.59611(17) 0.83888(14)
H10 H -0.0261 0.5930 0.7992
O3A O 0.2673(8) 0.5730(11) 1.0168(6)
H4A H 0.2784 0.6180 1.1443
O3C O 0.4270(11) 0.6943(7) 1.0168(6)
H4C H 0.3820 0.6604 1.1443
N1D N -0.25569(17) 0.23780(23) 0.35294(13)
N2D N -0.24261(16) 0.31416(23) 0.33034(14)
N3D N -0.16899(16) 0.37886(23) 0.35666(15)
C5D C -0.1327(2) 0.34375(28) 0.39747(17)
C6D C -0.1883(2) 0.2531(3) 0.39544(17)
C7D C -0.1687(2) 0.1973(3) 0.4342(2)
H5D H -0.2054 0.1359 0.4330
C8D C -0.0945(2) 0.2358(3) 0.4733(2)
H6D H -0.0794 0.1998 0.4994
C9D C -0.0385(2) 0.3284(3) 0.47673(19)
C10D C -0.0574(2) 0.3818(3) 0.43856(18)
H7D H -0.0204 0.4432 0.4398
N4D N -0.14735(15) 0.48536(22) 1.22328(14)
N5D N -0.22396(17) 0.42367(24) 1.19914(14)
N6D N -0.22334(16) 0.41830(23) 1.13042(13)
C11D C -0.0947(2) 0.5214(3) 1.16716(16)
C12D C -0.14271(19) 0.47929(28) 1.10786(16)
C13D C -0.1071(2) 0.4997(3) 1.04036(17)
H8D H -0.1405 0.4702 1.0005
C14D C -0.0219(2) 0.5641(3) 1.03483(17)
C15D C 0.02668(16) 0.60819(23) 1.09528(14)
H9D H 0.0854 0.6531 1.0897
C16D C -0.00735(16) 0.58876(23) 1.16112(14)
H10D H 0.0261 0.6191 1.2008
Zn3A Zn 0.36872(2) 0.49584(3) 0.672159(18)
O1A O 0.3779(4) 0.4334(6) 0.5675(4)
O2A O 0.3963(7) 0.4028(8) 0.6723(4)
C1A C 0.4032(5) 0.3909(7) 0.6190(5)
C2A C 0.4245(6) 0.3232(7) 0.5924(5)
H1A H 0.3721 0.2655 0.5943
H2A H 0.4700 0.3236 0.6215
H3A H 0.4450 0.3367 0.5441
N1A N 0.50651(16) 0.76220(23) 0.64706(13)
N2A N 0.44323(16) 0.68584(23) 0.66966(14)
N3A N 0.45215(16) 0.62114(23) 0.64334(15)
C5A C 0.52355(19) 0.65625(28) 0.60253(17)
C6A C 0.5586(2) 0.7469(3) 0.60456(17)
C7A C 0.6340(2) 0.8027(3) 0.5658(2)
H5A H 0.6587 0.8641 0.5670
C8A C 0.6697(2) 0.7642(3) 0.5267(2)
H6A H 0.7208 0.8002 0.5006
C9A C 0.6331(2) 0.6716(3) 0.52327(19)
C10A C 0.5608(2) 0.6182(3) 0.56144(18)
H7A H 0.5364 0.5568 0.5602
N4A N 0.36729(16) 0.51464(22) 0.77672(14)
N5A N 0.35237(17) 0.57633(24) 0.80086(14)
N6A N 0.35836(17) 0.58170(23) 0.86958(13)
C11A C 0.3839(2) 0.4786(3) 0.83284(16)
C12A C 0.3780(2) 0.52071(28) 0.89214(16)
C13A C 0.3932(2) 0.5003(3) 0.95964(17)
H8A H 0.3893 0.5298 0.9995
C14A C 0.4140(2) 0.4359(3) 0.96517(17)
C15A C 0.41849(17) 0.39181(23) 0.90472(14)
H9A H 0.4323 0.3469 0.9103
C16A C 0.40389(17) 0.41124(23) 0.83888(14)
H10A H 0.4070 0.3809 0.7992
N1E N 0.76220(23) 0.50651(16) 0.35294(13)
N2E N 0.68584(23) 0.44323(16) 0.33034(14)
N3E N 0.62114(23) 0.45215(16) 0.35666(15)
C5E C 0.65625(28) 0.52355(19) 0.39747(17)
C6E C 0.7469(3) 0.5586(2) 0.39544(17)
C7E C 0.8027(3) 0.6340(2) 0.4342(2)
H5E H 0.8641 0.6587 0.4330
C8E C 0.7642(3) 0.6697(2) 0.4733(2)
H6E H 0.8002 0.7208 0.4994
C9E C 0.6716(3) 0.6331(2) 0.47673(19)
C10E C 0.6182(3) 0.5608(2) 0.43856(18)
H7E H 0.5568 0.5364 0.4398
N4E N 0.51464(22) 0.36729(16) 1.22328(14)
N5E N 0.57633(24) 0.35237(17) 1.19914(14)
N6E N 0.58170(23) 0.35836(17) 1.13042(13)
C11E C 0.4786(3) 0.3839(2) 1.16716(16)
C12E C 0.52071(28) 0.3780(2) 1.10786(16)
C13E C 0.5003(3) 0.3932(2) 1.04036(17)
H8E H 0.5298 0.3893 1.0005
C14E C 0.4359(3) 0.4140(2) 1.03483(17)
C15E C 0.39181(23) 0.41849(17) 1.09528(14)
H9E H 0.3469 0.4323 1.0897
C16E C 0.41124(23) 0.40389(17) 1.16112(14)
H10E H 0.3809 0.4070 1.2008
Zn1B Zn 0.6667 0.3333 0.26447(3)
Zn3B Zn 0.63128(2) 0.12712(2) 0.327841(18)
O1B O 0.6221(4) 0.0555(4) 0.4325(4)
O2B O 0.6037(7) 0.0065(4) 0.3277(4)
C1B C 0.5968(5) -0.0123(5) 0.3810(5)
C2B C 0.5755(6) -0.1013(4) 0.4076(5)
H1B H 0.6279 -0.1066 0.4057
H2B H 0.5300 -0.1464 0.3785
H3B H 0.5550 -0.1083 0.4559
N1B N 0.49349(16) 0.25569(17) 0.35294(13)
N2B N 0.55677(16) 0.24261(16) 0.33034(14)
N3B N 0.54785(16) 0.16899(16) 0.35666(15)
C5B C 0.47645(19) 0.1327(2) 0.39747(17)
C6B C 0.4414(2) 0.1883(2) 0.39544(17)
C7B C 0.3660(2) 0.1687(2) 0.4342(2)
H5B H 0.3413 0.2054 0.4330
C8B C 0.3303(2) 0.0945(2) 0.4733(2)
H6B H 0.2792 0.0794 0.4994
C9B C 0.3669(2) 0.0385(2) 0.47673(19)
C10B C 0.4392(2) 0.0574(2) 0.43856(18)
H7B H 0.4636 0.0204 0.4398
N1C N 0.23780(23) -0.25569(17) 0.64706(13)
N2C N 0.31416(23) -0.24261(16) 0.66966(14)
N3C N 0.37886(23) -0.16899(16) 0.64334(15)
C5C C 0.34375(28) -0.1327(2) 0.60253(17)
C6C C 0.2531(3) -0.1883(2) 0.60456(17)
C7C C 0.1973(3) -0.1687(2) 0.5658(2)
H5C H 0.1359 -0.2054 0.5670
C8C C 0.2358(3) -0.0945(2) 0.5267(2)
H6C H 0.1998 -0.0794 0.5006
C9C C 0.3284(3) -0.0385(2) 0.52327(19)
C10C C 0.3818(3) -0.0574(2) 0.56144(18)
H7C H 0.4432 -0.0204 0.5602
Zn3B_2 Zn 0.63128(2) 0.12712(2) 1.327841(18)
O1B_2 O 0.6221(4) 0.0555(4) 1.4325(4)
O2B_2 O 0.6037(7) 0.0065(4) 1.3277(4)
C1B_2 C 0.5968(5) -0.0123(5) 1.3810(5)
C2B_2 C 0.5755(6) -0.1013(4) 1.4076(5)
H1B_2 H 0.6279 -0.1066 1.4057
H2B_2 H 0.5300 -0.1464 1.3785
H3B_2 H 0.5550 -0.1083 1.4559
N4B N 0.63271(16) 0.14735(15) 1.22328(14)
N5B N 0.64763(17) 0.22396(17) 1.19914(14)
N6B N 0.64164(17) 0.22334(16) 1.13042(13)
C11B C 0.6161(2) 0.0947(2) 1.16716(16)
C12B C 0.6220(2) 0.14271(19) 1.10786(16)
C13B C 0.6068(2) 0.1071(2) 1.04036(17)
H8B H 0.6107 0.1405 1.0005
C14B C 0.5860(2) 0.0219(2) 1.03483(17)
C15B C 0.58151(17) -0.02668(16) 1.09528(14)
H9B H 0.5677 -0.0854 1.0897
C16B C 0.59611(17) 0.00735(16) 1.16112(14)
H10B H 0.5930 -0.0261 1.2008
N4C N 0.48536(22) -0.14735(15) 0.77672(14)
N5C N 0.42367(24) -0.22396(17) 0.80086(14)
N6C N 0.41830(23) -0.22334(16) 0.86958(13)
C11C C 0.5214(3) -0.0947(2) 0.83284(16)
C12C C 0.47929(28) -0.14271(19) 0.89214(16)
C13C C 0.4997(3) -0.1071(2) 0.95964(17)
H8C H 0.4702 -0.1405 0.9995
C14C C 0.5641(3) -0.0219(2) 0.96517(17)
C15C C 0.60819(23) 0.02668(16) 0.90472(14)
H9C H 0.6531 0.0854 0.9103
C16C C 0.58876(23) -0.00735(16) 0.83888(14)
H10C H 0.6191 0.0261 0.7992
Zn3C Zn 0.50416(3) -0.12712(2) 0.672159(18)
O1C O 0.5666(6) -0.0555(4) 0.5675(4)
O2C O 0.5972(8) -0.0065(4) 0.6723(4)
C1C C 0.6091(7) 0.0123(5) 0.6190(5)
C2C C 0.6768(7) 0.1013(4) 0.5924(5)
H1C H 0.7345 0.1066 0.5943
H2C H 0.6764 0.1464 0.6215
H3C H 0.6633 0.1083 0.5441
Zn3C_2 Zn 0.50416(3) 0.87288(2) 0.672159(18)
O1C_2 O 0.5666(6) 0.9445(4) 0.5675(4)
O2C_2 O 0.5972(8) 0.9935(4) 0.6723(4)
C1C_2 C 0.6091(7) 1.0123(5) 0.6190(5)
C2C_2 C 0.6768(7) 1.1013(4) 0.5924(5)
H1C_2 H 0.7345 1.1066 0.5943
H2C_2 H 0.6764 1.1464 0.6215
H3C_2 H 0.6633 1.1083 0.5441
Zn2B Zn -0.3333 0.3333 1.07796(3)
O3B O -0.2673(8) 0.3057(7) 0.9832(6)
C3B C -0.3333 0.3333 0.9481(8)
C4B C -0.3333 0.3333 0.8727(6)
H4B H -0.2784 0.3396 0.8557
O3E O -0.4270(11) 0.2673(8) 0.9832(6)
H4E H -0.3820 0.2784 0.8557
O3D O -0.3057(7) 0.4270(11) 0.9832(6)
H4D H -0.3396 0.3820 0.8557
Zn1_2 Zn 0.3333 -0.3333 0.73553(3)
Zn1B_2 Zn -0.3333 0.3333 0.26447(3)
Zn1B_3 Zn -0.3333 0.3333 1.26447(3)
Zn1B_4 Zn 0.6667 0.3333 1.26447(3)
Zn2_2 Zn 0.3333 -0.3333 0.92204(3)
Zn2B_2 Zn 0.6667 0.3333 1.07796(3)
Zn3_2 Zn 0.12712(2) -0.36872(2) 0.672159(18)
Zn3B_3 Zn -0.36872(2) 0.12712(2) 0.327841(18)
Zn3D Zn -0.12712(2) 0.50416(3) 0.327841(18)
Zn3D_2 Zn -0.12712(2) 0.50416(3) 1.327841(18)
Zn3D_3 Zn 0.87288(2) 0.50416(3) 0.327841(18)
Zn3E Zn 0.49584(3) 0.36872(2) 0.327841(18)
Zn3E_2 Zn 0.49584(3) 0.36872(2) 1.327841(18)
N1A_2 N 0.50651(16) -0.23780(23) 0.64706(13)
N1C_2 N 0.23780(23) 0.74431(17) 0.64706(13)
N1D_2 N 0.74431(17) 0.23780(23) 0.35294(13)
N1D_3 N 0.74431(17) 0.23780(23) 1.35294(13)
N2C_2 N 0.31416(23) 0.75739(16) 0.66966(14)
N2D_2 N 0.75739(16) 0.31416(23) 0.33034(14)
N3B_2 N 0.54785(16) 0.16899(16) 1.35666(15)
N3C_2 N 0.37886(23) 0.83101(16) 0.64334(15)
N4B_2 N 0.63271(16) 0.14735(15) 0.22328(14)
N4C_2 N 0.48536(22) 0.85265(15) 0.77672(14)
N5B_2 N 0.64763(17) 0.22396(17) 0.19914(14)
N5C_2 N 0.42367(24) 0.77604(17) 0.80086(14)
N5D_2 N 0.77604(17) 0.42367(24) 0.19914(14)
N5E_2 N 0.57633(24) 0.35237(17) 0.19914(14)
N6B_2 N -0.35836(17) 0.22334(16) 1.13042(13)
N6C_2 N 0.41830(23) 0.77666(16) 0.86958(13)
N6E_2 N -0.41830(23) 0.35836(17) 1.13042(13)
loop_
_geom_bond_atom_site_label_1
_geom_bond_atom_site_label_2
_geom_bond_site_symmetry_1
_geom_bond_site_symmetry_2
Zn1 N2 1_555 1_555
Zn2 O3 1_555 1_555
Zn3 O1 1_555 1_555
O1 C1 1_555 1_555
O2 Zn3 1_555 1_555
C1 O2 1_555 1_555
C2 C1 1_555 1_555
H1 C2 1_555 1_555
H2 C2 1_555 1_555
H3 C2 1_555 1_555
O3 C3 1_555 1_555
C3 C4 1_555 1_555
C4 H4 1_555 1_555
N1 N2 1_555 1_555
N2 N3 1_555 1_555
N3 Zn3 1_555 1_555
C5 N3 1_555 1_555
C6 N1 1_555 1_555
C7 C6 1_555 1_555
H5 C7 1_555 1_555
C8 C7 1_555 1_555
H6 C8 1_555 1_555
C9 C8 1_555 1_555
C10 C5 1_555 1_555
H7 C10 1_555 1_555
N4 Zn3 1_555 1_555
N5 Zn1 1_555 1_555
N6 Zn2 1_555 1_555
C11 N4 1_555 1_555
C12 N6 1_555 1_555
C13 C12 1_555 1_555
H8 C13 1_555 1_555
C14 C13 1_555 1_555
C15 C14 1_555 1_555
H9 C15 1_555 1_555
C16 C11 1_555 1_555
H10 C16 1_555 1_555
O3A Zn2 1_555 1_555
H4A C4 1_555 1_555
O3C Zn2 1_555 1_555
H4C C4 1_555 1_555
N1D N2D 1_555 1_555
N2D N3D 1_555 1_555
N3D C5D 1_555 1_555
C5D C6D 1_555 1_555
C6D N1D 1_555 1_555
C7D C6D 1_555 1_555
H5D C7D 1_555 1_555
C8D C7D 1_555 1_555
H6D C8D 1_555 1_555
C9D C9 1_555 1_555
C10D C5D 1_555 1_555
H7D C10D 1_555 1_555
N4D N5D 1_555 1_555
N5D N6D 1_555 1_555
N6D C12D 1_555 1_555
C11D N4D 1_555 1_555
C12D C11D 1_555 1_555
C13D C12D 1_555 1_555
H8D C13D 1_555 1_555
C14D C14 1_555 1_555
C15D C14D 1_555 1_555
H9D C15D 1_555 1_555
C16D C11D 1_555 1_555
H10D C16D 1_555 1_555
Zn3A N1 1_555 1_555
O1A Zn3A 1_555 1_555
O2A Zn3A 1_555 1_555
C1A O1A 1_555 1_555
C2A C1A 1_555 1_555
H1A C2A 1_555 1_555
H2A C2A 1_555 1_555
H3A C2A 1_555 1_555
N1A N2A 1_555 1_555
N2A Zn1 1_555 1_555
N3A Zn3A 1_555 1_555
C5A N3A 1_555 1_555
C6A N1A 1_555 1_555
C7A C6A 1_555 1_555
H5A C7A 1_555 1_555
C8A C7A 1_555 1_555
H6A C8A 1_555 1_555
C9A C8A 1_555 1_555
C10A C5A 1_555 1_555
H7A C10A 1_555 1_555
N4A Zn3A 1_555 1_555
N5A Zn1 1_555 1_555
N6A Zn2 1_555 1_555
C11A N4A 1_555 1_555
C12A N6A 1_555 1_555
C13A C12A 1_555 1_555
H8A C13A 1_555 1_555
C14A C13A 1_555 1_555
C15A C14A 1_555 1_555
H9A C15A 1_555 1_555
C16A C11A 1_555 1_555
H10A C16A 1_555 1_555
N1E N2E 1_555 1_555
N2E N3E 1_555 1_555
N3E C5E 1_555 1_555
C5E C6E 1_555 1_555
C6E N1E 1_555 1_555
C7E C6E 1_555 1_555
H5E C7E 1_555 1_555
C8E C7E 1_555 1_555
H6E C8E 1_555 1_555
C9E C9A 1_555 1_555
C10E C5E 1_555 1_555
H7E C10E 1_555 1_555
N4E N5E 1_555 1_555
N5E N6E 1_555 1_555
N6E C12E 1_555 1_555
C11E N4E 1_555 1_555
C12E C11E 1_555 1_555
C13E C12E 1_555 1_555
H8E C13E 1_555 1_555
C14E C14A 1_555 1_555
C15E C14E 1_555 1_555
H9E C15E 1_555 1_555
C16E C11E 1_555 1_555
H10E C16E 1_555 1_555
Zn1B N2E 1_555 1_555
Zn3B O1B 1_555 1_555
O1B C1B 1_555 1_555
O2B Zn3B 1_555 1_555
C1B O2B 1_555 1_555
C2B C1B 1_555 1_555
H1B C2B 1_555 1_555
H2B C2B 1_555 1_555
H3B C2B 1_555 1_555
N1B N2B 1_555 1_555
N2B Zn1B 1_555 1_555
N3B Zn3B 1_555 1_555
C5B N3B 1_555 1_555
C6B N1B 1_555 1_555
C7B C6B 1_555 1_555
H5B C7B 1_555 1_555
C8B C7B 1_555 1_555
H6B C8B 1_555 1_555
C9B C8B 1_555 1_555
C10B C5B 1_555 1_555
H7B C10B 1_555 1_555
N1C N2C 1_555 1_555
N2C N3C 1_555 1_555
N3C C5C 1_555 1_555
C5C C6C 1_555 1_555
C6C N1C 1_555 1_555
C7C C6C 1_555 1_555
H5C C7C 1_555 1_555
C8C C7C 1_555 1_555
H6C C8C 1_555 1_555
C9C C9B 1_555 1_555
C10C C5C 1_555 1_555
H7C C10C 1_555 1_555
Zn3B_2 O1B_2 1_555 1_555
O1B_2 C1B_2 1_555 1_555
O2B_2 Zn3B_2 1_555 1_555
C1B_2 O2B_2 1_555 1_555
C2B_2 C1B_2 1_555 1_555
H1B_2 C2B_2 1_555 1_555
H2B_2 C2B_2 1_555 1_555
H3B_2 C2B_2 1_555 1_555
N4B Zn3B_2 1_555 1_555
N5B N4B 1_555 1_555
N6B N5B 1_555 1_555
C11B N4B 1_555 1_555
C12B N6B 1_555 1_555
C13B C12B 1_555 1_555
H8B C13B 1_555 1_555
C14B C13B 1_555 1_555
C15B C14B 1_555 1_555
H9B C15B 1_555 1_555
C16B C11B 1_555 1_555
H10B C16B 1_555 1_555
N4C N5C 1_555 1_555
N5C N6C 1_555 1_555
N6C C12C 1_555 1_555
C11C N4C 1_555 1_555
C12C C11C 1_555 1_555
C13C C12C 1_555 1_555
H8C C13C 1_555 1_555
C14C C14B 1_555 1_555
C15C C14C 1_555 1_555
H9C C15C 1_555 1_555
C16C C11C 1_555 1_555
H10C C16C 1_555 1_555
Zn3C N3C 1_555 1_555
O1C Zn3C 1_555 1_555
O2C Zn3C 1_555 1_555
C1C O1C 1_555 1_555
C2C C1C 1_555 1_555
H1C C2C 1_555 1_555
H2C C2C 1_555 1_555
H3C C2C 1_555 1_555
Zn3C_2 N1A 1_555 1_555
O1C_2 Zn3C_2 1_555 1_555
O2C_2 Zn3C_2 1_555 1_555
C1C_2 O1C_2 1_555 1_555
C2C_2 C1C_2 1_555 1_555
H1C_2 C2C_2 1_555 1_555
H2C_2 C2C_2 1_555 1_555
H3C_2 C2C_2 1_555 1_555
Zn2B N6D 1_555 1_555
O3B Zn2B 1_555 1_555
C3B O3B 1_555 1_555
C4B C3B 1_555 1_555
H4B C4B 1_555 1_555
O3E Zn2B 1_555 1_555
H4E C4B 1_555 1_555
O3D Zn2B 1_555 1_555
H4D C4B 1_555 1_555
Zn1_2 N2C 1_555 1_555
Zn1B_2 N2D 1_555 1_555
Zn1B_3 N5D 1_555 1_555
Zn1B_4 N5E 1_555 1_555
Zn2_2 N6C 1_555 1_555
Zn2B_2 N6E 1_555 1_555
Zn3_2 N1C 1_555 1_555
Zn3B_3 N1D 1_555 1_555
Zn3D N3D 1_555 1_555
Zn3D_2 N4D 1_555 1_555
Zn3D_3 N1E 1_555 1_555
Zn3E N3E 1_555 1_555
Zn3E_2 N4E 1_555 1_555
N1A_2 Zn3C 1_555 1_555
N1C_2 Zn3 1_555 1_555
N1D_2 Zn3B 1_555 1_555
N1D_3 Zn3B_2 1_555 1_555
N2C_2 Zn1 1_555 1_555
N2D_2 Zn1B 1_555 1_555
N3B_2 Zn3B_2 1_555 1_555
N3C_2 Zn3C_2 1_555 1_555
N4B_2 Zn3B 1_555 1_555
N4C_2 Zn3C_2 1_555 1_555
N5B_2 Zn1B 1_555 1_555
N5C_2 Zn1 1_555 1_555
N5D_2 Zn1B 1_555 1_555
N5E_2 Zn1B 1_555 1_555
N6B_2 Zn2B 1_555 1_555
N6C_2 Zn2 1_555 1_555
N6E_2 Zn2B 1_555 1_555
C3 O3A 1_555 1_555
C3 O3C 1_555 1_555
C5 C6 1_555 1_555
C9 C10 1_555 1_555
N4 N5 1_555 1_555
N5 N6 1_555 1_555
C11 C12 1_555 1_555
C15 C16 1_555 1_555
C8D C9D 1_555 1_555
C9D C10D 1_555 1_555
C13D C14D 1_555 1_555
C15D C16D 1_555 1_555
O2A C1A 1_555 1_555
N2A N3A 1_555 1_555
C5A C6A 1_555 1_555
C9A C10A 1_555 1_555
N4A N5A 1_555 1_555
N5A N6A 1_555 1_555
C11A C12A 1_555 1_555
C15A C16A 1_555 1_555
C8E C9E 1_555 1_555
C9E C10E 1_555 1_555
C13E C14E 1_555 1_555
C15E C16E 1_555 1_555
N1B Zn3E 1_555 1_555
N2B N3B 1_555 1_555
C5B C6B 1_555 1_555
C9B C10B 1_555 1_555
C8C C9C 1_555 1_555
C9C C10C 1_555 1_555
N5B Zn1B_4 1_555 1_555
N6B Zn2B_2 1_555 1_555
C11B C12B 1_555 1_555
C15B C16B 1_555 1_555
N4C Zn3C 1_555 1_555
N5C Zn1_2 1_555 1_555
C13C C14C 1_555 1_555
C15C C16C 1_555 1_555
O2C C1C 1_555 1_555
O2C_2 C1C_2 1_555 1_555
C3B O3E 1_555 1_555
C3B O3D 1_555 1_555
N1C_2 N2C_2 1_555 1_555
N1D_2 N2D_2 1_555 1_555
N2C_2 N3C_2 1_555 1_555
N4B_2 N5B_2 1_555 1_555
N4C_2 N5C_2 1_555 1_555
N5C_2 N6C_2 1_555 1_555

#END
