
#######################################################################
#
#                 Cambridge Crystallographic Data Centre
#                                CCDC 
#
#######################################################################
#
# If this CIF has been generated from an entry in the Cambridge 
# Structural Database, then it will include bibliographic, chemical, 
# crystal, experimental, refinement or atomic coordinate data resulting 
# from the CCDC's data processing and validation procedures.
#
#######################################################################

data_PUDTOY
_chemical_formula_moiety         'C44 H24 Co7 N6 O18'
_symmetry_cell_setting           orthorhombic
_symmetry_space_group_name_H-M   'P b a m'
_symmetry_Int_Tables_number      55
_space_group_name_Hall           '-P 2 2ab'
loop_
_symmetry_equiv_pos_site_id
_symmetry_equiv_pos_as_xyz
1 x,y,z
2 -x,-y,z
3 1/2+x,1/2-y,-z
4 1/2-x,1/2+y,-z
5 -x,-y,-z
6 x,y,-z
7 1/2-x,1/2+y,z
8 1/2+x,1/2-y,z
_cell_length_a                   11.115(2)
_cell_length_b                   20.780(4)
_cell_length_c                   9.910(2)
_cell_angle_alpha                90
_cell_angle_beta                 90
_cell_angle_gamma                90
_cell_volume                     2288.91
loop_
_atom_site_label
_atom_site_type_symbol
_atom_site_fract_x
_atom_site_fract_y
_atom_site_fract_z
C1 C 1.8672(6) 0.3018(3) 1.5000
C2 C 1.8510(6) 0.3739(3) 1.5000
C3 C 1.9541(5) 0.4126(3) 1.5000
H1 H 2.0297 0.3934 1.5000
C4 C 1.9454(5) 0.4794(3) 1.5000
C5 C 1.8313(6) 0.5059(3) 1.5000
H2 H 1.8231 0.5504 1.5000
C6 C 1.7299(7) 0.4682(3) 1.5000
H3 H 1.6544 0.4875 1.5000
C7 C 1.7388(6) 0.4008(3) 1.5000
C8 C 1.6249(9) 0.3632(4) 1.5437(11)
C9 C 1.1977(6) 0.3355(4) 1.6895(7)
H4 H 1.1660 0.2993 1.6474
C10 C 1.1272(9) 0.3700(7) 1.7831(9)
H5 H 1.0488 0.3564 1.7995
C11 C 1.1684(10) 0.4210(6) 1.8484(8)
C12 C 1.2841(12) 0.4397(5) 1.8209(9)
H6 H 1.3166 0.4752 1.8651
C13 C 1.3533(9) 0.4062(4) 1.7275(8)
H7 H 1.4316 0.4195 1.7102
C14 C 1.0850(13) 0.4638(8) 1.9364(7)
C15 C 1.0000 0.5000 1.8651(10)
H8 H 1.0000 0.5000 1.7713
Co1 Co 1.40571(7) 0.31547(4) 1.5000
N1 N 1.3085(4) 0.3542(2) 1.6612(5)
O1 O 1.9644(6) 0.2763(3) 1.5000
O2 O 1.7845(7) 0.2689(3) 1.5000
O3 O 1.6082(8) 0.3301(5) 1.6418(14)
O4 O 1.5445(7) 0.3717(4) 1.5498(9)
C1A C 2.1328(6) 0.6982(3) 1.5000
C2A C 2.1490(6) 0.6261(3) 1.5000
C3A C 2.0459(5) 0.5874(3) 1.5000
H1A H 1.9703 0.6066 1.5000
C4A C 2.0546(5) 0.5206(3) 1.5000
C5A C 2.1687(6) 0.4941(3) 1.5000
H2A H 2.1769 0.4496 1.5000
C6A C 2.2701(7) 0.5318(3) 1.5000
H3A H 2.3456 0.5125 1.5000
C7A C 2.2612(6) 0.5992(3) 1.5000
C8E C 1.6249(9) 0.3632(4) 1.4563(11)
C8A C 2.3751(9) 0.6368(4) 1.5437(11)
C8D C 2.3751(9) 0.6368(4) 1.4563(11)
C9A C 0.8023(6) 0.6645(4) 1.6895(7)
C9D C 0.8023(6) 0.6645(4) 2.3105(7)
C9E C 1.1977(6) 0.3355(4) 2.3105(7)
H4A H 0.8340 0.7007 1.6474
H4D H 0.8340 0.7007 2.3526
H4E H 1.1660 0.2993 2.3526
C10A C 0.8728(9) 0.6300(7) 1.7831(9)
C10D C 0.8728(9) 0.6300(7) 2.2169(9)
C10E C 1.1272(9) 0.3700(7) 2.2169(9)
H5A H 0.9512 0.6436 1.7995
H5D H 0.9512 0.6436 2.2005
H5E H 1.0488 0.3564 2.2005
C11A C 0.8316(10) 0.5790(6) 1.8484(8)
C11D C 0.8316(10) 0.5790(6) 2.1516(8)
C11E C 1.1684(10) 0.4210(6) 2.1516(8)
C12A C 0.7159(12) 0.5603(5) 1.8209(9)
C12D C 0.7159(12) 0.5603(5) 2.1791(9)
C12E C 1.2841(12) 0.4397(5) 2.1791(9)
H6A H 0.6834 0.5248 1.8651
H6D H 0.6834 0.5248 2.1349
H6E H 1.3166 0.4752 2.1349
C13A C 0.6467(9) 0.5938(4) 1.7275(8)
C13D C 0.6467(9) 0.5938(4) 2.2725(8)
C13E C 1.3533(9) 0.4062(4) 2.2725(8)
H7A H 0.5684 0.5805 1.7102
H7D H 0.5684 0.5805 2.2898
H7E H 1.4316 0.4195 2.2898
C14A C 0.9150(13) 0.5362(8) 1.9364(7)
C14D C 0.9150(13) 0.5362(8) 2.0636(7)
C14E C 1.0850(13) 0.4638(8) 2.0636(7)
C15D C 1.0000 0.5000 2.1349(10)
H8D H 1.0000 0.5000 2.2287
Co1A Co 0.59429(7) 0.68453(4) 1.5000
Co1B Co 1.90571(7) 0.18453(4) 1.5000
Co1C Co 2.09429(7) 0.81547(4) 1.5000
Co1A_2 Co 2.59429(7) 0.68453(4) 1.5000
Co1A_3 Co 0.59429(7) 0.68453(4) 2.5000
Co1_2 Co 1.40571(7) 0.31547(4) 2.5000
N1A N 0.6915(4) 0.6458(2) 1.6612(5)
N1D N 0.6915(4) 0.6458(2) 2.3388(5)
N1E N 1.3085(4) 0.3542(2) 2.3388(5)
N1E_2 N 1.3085(4) 0.3542(2) 1.3388(5)
N1D_2 N 0.6915(4) 0.6458(2) 1.3388(5)
O1A O 2.0356(6) 0.7237(3) 1.5000
O1B O 1.4644(6) 0.2237(3) 1.5000
O1C O 0.5356(6) 0.7763(3) 1.5000
O2A O 2.2155(7) 0.7311(3) 1.5000
O2B O 1.2845(7) 0.2311(3) 1.5000
O2C O 0.7155(7) 0.7689(3) 1.5000
O3E O 1.6082(8) 0.3301(5) 1.3582(14)
O3A O 2.3918(8) 0.6699(5) 1.6418(14)
O3D O 2.3918(8) 0.6699(5) 1.3582(14)
O4E O 1.5445(7) 0.3717(4) 1.4502(9)
O4A O 2.4555(7) 0.6283(4) 1.5498(9)
O4D O 2.4555(7) 0.6283(4) 1.4502(9)
O4A_2 O 0.4555(7) 0.6283(4) 1.5498(9)
O4D_2 O 0.4555(7) 0.6283(4) 1.4502(9)
loop_
_geom_bond_atom_site_label_1
_geom_bond_atom_site_label_2
_geom_bond_site_symmetry_1
_geom_bond_site_symmetry_2
C1 C2 1_555 1_555
C2 C3 1_555 1_555
C3 H1 1_555 1_555
C4 C3 1_555 1_555
C5 C4 1_555 1_555
H2 C5 1_555 1_555
C6 C5 1_555 1_555
H3 C6 1_555 1_555
C7 C2 1_555 1_555
C8 C7 1_555 1_555
C9 H4 1_555 1_555
C10 C9 1_555 1_555
H5 C10 1_555 1_555
C11 C10 1_555 1_555
C12 C11 1_555 1_555
H6 C12 1_555 1_555
C13 C12 1_555 1_555
H7 C13 1_555 1_555
C14 C11 1_555 1_555
C15 C14 1_555 1_555
H8 C15 1_555 1_555
Co1 N1 1_555 1_555
N1 C9 1_555 1_555
O1 C1 1_555 1_555
O2 C1 1_555 1_555
O3 C8 1_555 1_555
O4 C8 1_555 1_555
C1A C2A 1_555 1_555
C2A C3A 1_555 1_555
C3A H1A 1_555 1_555
C4A C4 1_555 1_555
C5A C4A 1_555 1_555
H2A C5A 1_555 1_555
C6A C5A 1_555 1_555
H3A C6A 1_555 1_555
C7A C2A 1_555 1_555
C8E C7 1_555 1_555
C8A C7A 1_555 1_555
C8D C7A 1_555 1_555
C9A H4A 1_555 1_555
C9D H4D 1_555 1_555
C9E H4E 1_555 1_555
C10A C9A 1_555 1_555
C10D C9D 1_555 1_555
C10E C9E 1_555 1_555
H5A C10A 1_555 1_555
H5D C10D 1_555 1_555
H5E C10E 1_555 1_555
C11A C10A 1_555 1_555
C11D C10D 1_555 1_555
C11E C10E 1_555 1_555
C12A C11A 1_555 1_555
C12D C11D 1_555 1_555
C12E C11E 1_555 1_555
H6A C12A 1_555 1_555
H6D C12D 1_555 1_555
H6E C12E 1_555 1_555
C13A C12A 1_555 1_555
C13D C12D 1_555 1_555
C13E C12E 1_555 1_555
H7A C13A 1_555 1_555
H7D C13D 1_555 1_555
H7E C13E 1_555 1_555
C14A C15 1_555 1_555
C14D C11D 1_555 1_555
C14E C14 1_555 1_555
C15D C14D 1_555 1_555
H8D C15D 1_555 1_555
Co1A N1A 1_555 1_555
Co1B O1 1_555 1_555
Co1C O1A 1_555 1_555
Co1A_2 O4A 1_555 1_555
Co1A_3 N1D 1_555 1_555
Co1_2 N1E 1_555 1_555
N1A C9A 1_555 1_555
N1D C9D 1_555 1_555
N1E C9E 1_555 1_555
N1E_2 Co1 1_555 1_555
N1D_2 Co1A 1_555 1_555
O1A C1A 1_555 1_555
O1B Co1 1_555 1_555
O1C Co1A 1_555 1_555
O2A C1A 1_555 1_555
O2B Co1 1_555 1_555
O2C Co1A 1_555 1_555
O3E C8E 1_555 1_555
O3A C8A 1_555 1_555
O3D C8D 1_555 1_555
O4E C8 1_555 1_555
O4A C8A 1_555 1_555
O4D C8A 1_555 1_555
O4A_2 Co1A 1_555 1_555
O4D_2 Co1A 1_555 1_555
C6 C7 1_555 1_555
C8 C8E 1_555 1_555
C13 N1 1_555 1_555
Co1 O4 1_555 1_555
Co1 O4E 1_555 1_555
O2 Co1B 1_555 1_555
O3 O4 1_555 1_555
O4 C8E 1_555 1_555
O4 O4E 1_555 1_555
C3A C4A 1_555 1_555
C6A C7A 1_555 1_555
C8E O4E 1_555 1_555
C8A C8D 1_555 1_555
C8D O4A 1_555 1_555
C8D O4D 1_555 1_555
C11A C14A 1_555 1_555
C11E C14E 1_555 1_555
C13A N1A 1_555 1_555
C13D N1D 1_555 1_555
C13E N1E 1_555 1_555
C14A C14D 1_555 1_555
C14E C15D 1_555 1_555
Co1C O2A 1_555 1_555
Co1A_2 O4D 1_555 1_555
O3E O4E 1_555 1_555
O3A O4A 1_555 1_555
O3D O4D 1_555 1_555
O4A O4D 1_555 1_555
O4A_2 O4D_2 1_555 1_555

#END
