
#######################################################################
#
#                 Cambridge Crystallographic Data Centre
#                                CCDC 
#
#######################################################################
#
# If this CIF has been generated from an entry in the Cambridge 
# Structural Database, then it will include bibliographic, chemical, 
# crystal, experimental, refinement or atomic coordinate data resulting 
# from the CCDC's data processing and validation procedures.
#
#######################################################################

data_CUMFEW01
_chemical_formula_moiety         'C28 H16 N6 O22 Zn7'
_symmetry_cell_setting           orthorhombic
_symmetry_space_group_name_H-M   'P b a n'
_symmetry_Int_Tables_number      50
_space_group_name_Hall           '-P 2ab 2b'
loop_
_symmetry_equiv_pos_site_id
_symmetry_equiv_pos_as_xyz
1 x,y,z
2 1/2-x,1/2-y,z
3 x,1/2-y,-z
4 1/2-x,y,-z
5 -x,-y,-z
6 1/2+x,1/2+y,-z
7 -x,1/2+y,z
8 1/2+x,-y,z
_cell_length_a                   16.2647(5)
_cell_length_b                   14.5206(5)
_cell_length_c                   9.6475(3)
_cell_angle_alpha                90
_cell_angle_beta                 90
_cell_angle_gamma                90
_cell_volume                     2278.48
loop_
_atom_site_label
_atom_site_type_symbol
_atom_site_fract_x
_atom_site_fract_y
_atom_site_fract_z
Zn1 Zn 0.7500 0.2500 0.34566(6)
O1 O 0.65564(18) 0.3384(2) 0.3861(3)
O2 O 0.67007(19) 0.3555(2) 0.6140(3)
C1 C 0.5520(3) 0.4954(3) 0.6124(5)
C2 C 0.6377(2) 0.3721(3) 0.5006(3)
C3 C 0.4860(3) 0.5562(3) 0.6128(4)
H1 H 0.4772 0.5939 0.6893
N1 N 0.7500 0.2500 0.1344(5)
C4 C 0.5670(2) 0.4389(3) 0.5006(3)
C5 C 0.6678(9) 0.2218(17) 0.0784(14)
H2 H 0.6259 0.2636 0.1127
H3 H 0.6546 0.1604 0.1111
N2 N 0.6066(9) 0.5141(12) 0.7262(14)
O3 O 0.5838(12) 0.4795(15) 0.8326(19)
O4 O 0.6743(12) 0.5395(14) 0.699(2)
H4 H 0.6530 0.3381 0.1128
C6 C 0.7483(15) 0.3454(8) 0.0786(14)
C7 C 0.6673(7) 0.2774(15) 0.0786(11)
O1D O 0.34436(18) 0.6616(2) 0.6139(3)
O2D O 0.32993(19) 0.6445(2) 0.3860(3)
C1D C 0.4480(3) 0.5046(3) 0.3876(5)
C2D C 0.3623(2) 0.6279(3) 0.4994(3)
C3D C 0.5140(3) 0.4438(3) 0.3872(4)
H1D H 0.5228 0.4061 0.3107
C4D C 0.4330(2) 0.5611(3) 0.4994(3)
N2D N 0.3934(9) 0.4859(12) 0.2738(14)
O3D O 0.4162(12) 0.5205(15) 0.1674(19)
O4D O 0.3257(12) 0.4605(14) 0.301(2)
C5A C 0.8322(9) 0.2782(17) 0.0784(14)
H2A H 0.8741 0.2364 0.1127
H3A H 0.8454 0.3396 0.1111
H4A H 0.8470 0.1619 0.1128
C6A C 0.7517(15) 0.1546(8) 0.0786(14)
C7A C 0.8327(7) 0.2226(15) 0.0786(11)
N1B N 0.7500 0.2500 -0.1344(5)
C5B C 0.6678(9) 0.2782(17) -0.0784(14)
H2B H 0.6259 0.2364 -0.1127
H3B H 0.6546 0.3396 -0.1111
H4B H 0.6530 0.1619 -0.1128
C6B C 0.7483(15) 0.1546(8) -0.0786(14)
C7B C 0.6673(7) 0.2226(15) -0.0786(11)
C5C C 0.8322(9) 0.2218(17) -0.0784(14)
H2C H 0.8741 0.2636 -0.1127
H3C H 0.8454 0.1604 -0.1111
H4C H 0.8470 0.3381 -0.1128
C6C C 0.7517(15) 0.3454(8) -0.0786(14)
C7C C 0.8327(7) 0.2774(15) -0.0786(11)
O1A O 0.84436(18) 0.1616(2) 0.3861(3)
O2A O 0.82993(19) 0.1445(2) 0.6140(3)
C1A C 0.9480(3) 0.0046(3) 0.6124(5)
C2A C 0.8623(2) 0.1279(3) 0.5006(3)
C3A C 1.0140(3) -0.0562(3) 0.6128(4)
H1A H 1.0228 -0.0939 0.6893
C4A C 0.9330(2) 0.0611(3) 0.5006(3)
N2A N 0.8934(9) -0.0141(12) 0.7262(14)
O3A O 0.9162(12) 0.0205(15) 0.8326(19)
O4A O 0.8257(12) -0.0395(14) 0.699(2)
O1E O 1.15564(18) -0.1616(2) 0.6139(3)
O2E O 1.17007(19) -0.1445(2) 0.3860(3)
C1E C 1.0520(3) -0.0046(3) 0.3876(5)
C2E C 1.1377(2) -0.1279(3) 0.4994(3)
C3E C 0.9860(3) 0.0562(3) 0.3872(4)
H1E H 0.9772 0.0939 0.3107
C4E C 1.0670(2) -0.0611(3) 0.4994(3)
N2E N 1.1066(9) 0.0141(12) 0.2738(14)
O3E O 1.0838(12) -0.0205(15) 0.1674(19)
O4E O 1.1743(12) 0.0395(14) 0.301(2)
Zn1B Zn 0.7500 0.2500 -0.34566(6)
Zn1B_2 Zn 0.7500 0.2500 0.65434(6)
Zn1D Zn 0.2500 0.7500 0.65434(6)
Zn1D_2 Zn 1.2500 -0.2500 0.65434(6)
Zn1F Zn 0.2500 0.7500 0.34566(6)
Zn1F_2 Zn 1.2500 -0.2500 0.34566(6)
O1B O 0.65564(18) 0.1616(2) -0.3861(3)
O1C O 0.84436(18) 0.3384(2) -0.3861(3)
O2_2 O 0.67007(19) 0.3555(2) -0.3860(3)
O2A_2 O 0.82993(19) 0.1445(2) -0.3860(3)
O2B O 0.67007(19) 0.1445(2) 0.3860(3)
O2C O 0.82993(19) 0.3555(2) 0.3860(3)
loop_
_geom_bond_atom_site_label_1
_geom_bond_atom_site_label_2
_geom_bond_site_symmetry_1
_geom_bond_site_symmetry_2
Zn1 O1 1_555 1_555
O1 C2 1_555 1_555
O2 C2 1_555 1_555
C1 C3 1_555 1_555
C2 C4 1_555 1_555
C3 H1 1_555 1_555
N1 Zn1 1_555 1_555
C4 C1 1_555 1_555
C5 N1 1_555 1_555
H2 C5 1_555 1_555
H3 C5 1_555 1_555
N2 C1 1_555 1_555
O3 N2 1_555 1_555
O4 N2 1_555 1_555
H4 C7 1_555 1_555
C6 N1 1_555 1_555
C7 N1 1_555 1_555
O1D C2D 1_555 1_555
O2D C2D 1_555 1_555
C1D C3D 1_555 1_555
C2D C4D 1_555 1_555
C3D C4 1_555 1_555
H1D C3D 1_555 1_555
C4D C3 1_555 1_555
N2D C1D 1_555 1_555
O3D N2D 1_555 1_555
O4D N2D 1_555 1_555
C5A N1 1_555 1_555
H2A C5A 1_555 1_555
H3A C5A 1_555 1_555
H4A C7A 1_555 1_555
C6A N1 1_555 1_555
C7A N1 1_555 1_555
N1B C5B 1_555 1_555
C5B C5 1_555 1_555
H2B C5B 1_555 1_555
H3B C5B 1_555 1_555
H4B C7B 1_555 1_555
C6B C6A 1_555 1_555
C7B C5 1_555 1_555
C5C C5A 1_555 1_555
H2C C5C 1_555 1_555
H3C C5C 1_555 1_555
H4C C7C 1_555 1_555
C6C C6 1_555 1_555
C7C C5A 1_555 1_555
O1A Zn1 1_555 1_555
O2A C2A 1_555 1_555
C1A C3A 1_555 1_555
C2A O1A 1_555 1_555
C3A H1A 1_555 1_555
C4A C1A 1_555 1_555
N2A C1A 1_555 1_555
O3A N2A 1_555 1_555
O4A N2A 1_555 1_555
O1E C2E 1_555 1_555
O2E C2E 1_555 1_555
C1E C3E 1_555 1_555
C2E C4E 1_555 1_555
C3E C4A 1_555 1_555
H1E C3E 1_555 1_555
C4E C3A 1_555 1_555
N2E C1E 1_555 1_555
O3E N2E 1_555 1_555
O4E N2E 1_555 1_555
Zn1B N1B 1_555 1_555
Zn1B_2 O2 1_555 1_555
Zn1D O1D 1_555 1_555
Zn1D_2 O1E 1_555 1_555
Zn1F O2D 1_555 1_555
Zn1F_2 O2E 1_555 1_555
O1B Zn1B 1_555 1_555
O1C Zn1B 1_555 1_555
O2_2 Zn1B 1_555 1_555
O2A_2 Zn1B 1_555 1_555
O2B Zn1 1_555 1_555
O2C Zn1 1_555 1_555
C5 C7 1_555 1_555
C5 C6A 1_555 1_555
H2 C7 1_555 1_555
C6 C7 1_555 1_555
C6 C5A 1_555 1_555
C7 C5B 1_555 1_555
C7 C7B 1_555 1_555
C1D C4D 1_555 1_555
C5A C7A 1_555 1_555
H2A C7A 1_555 1_555
C6A C7A 1_555 1_555
C7A C5C 1_555 1_555
C7A C7C 1_555 1_555
N1B C6B 1_555 1_555
N1B C7B 1_555 1_555
N1B C5C 1_555 1_555
N1B C6C 1_555 1_555
N1B C7C 1_555 1_555
C5B C7B 1_555 1_555
C5B C6C 1_555 1_555
H2B C7B 1_555 1_555
C6B C7B 1_555 1_555
C6B C5C 1_555 1_555
C5C C7C 1_555 1_555
H2C C7C 1_555 1_555
C6C C7C 1_555 1_555
O2A Zn1B_2 1_555 1_555
C2A C4A 1_555 1_555
C1E C4E 1_555 1_555

#END
