
#######################################################################
#
#                 Cambridge Crystallographic Data Centre
#                                CCDC 
#
#######################################################################
#
# If this CIF has been generated from an entry in the Cambridge 
# Structural Database, then it will include bibliographic, chemical, 
# crystal, experimental, refinement or atomic coordinate data resulting 
# from the CCDC's data processing and validation procedures.
#
#######################################################################

data_DOWBOH01
_chemical_formula_moiety         'C48 H40 N3 O12 Zn7'
_symmetry_cell_setting           tetragonal
_symmetry_space_group_name_H-M   'P 4/m b m'
_symmetry_Int_Tables_number      127
_space_group_name_Hall           '-P 4 2ab'
loop_
_symmetry_equiv_pos_site_id
_symmetry_equiv_pos_as_xyz
1 x,y,z
2 -y,x,z
3 -x,-y,z
4 y,-x,z
5 1/2+x,1/2-y,-z
6 1/2-x,1/2+y,-z
7 1/2+y,1/2+x,-z
8 1/2-y,1/2-x,-z
9 -x,-y,-z
10 y,-x,-z
11 x,y,-z
12 -y,x,-z
13 1/2-x,1/2+y,z
14 1/2+x,1/2-y,z
15 1/2-y,1/2-x,z
16 1/2+y,1/2+x,z
_cell_length_a                   15.4195(4)
_cell_length_b                   15.4195(4)
_cell_length_c                   9.6416(4)
_cell_angle_alpha                90
_cell_angle_beta                 90
_cell_angle_gamma                90
_cell_volume                     2292.4
loop_
_atom_site_label
_atom_site_type_symbol
_atom_site_fract_x
_atom_site_fract_y
_atom_site_fract_z
Zn1 Zn 1.0000 0.0000 0.15301(5)
O1 O 0.91201(15) 0.09446(15) 0.1142(3)
N1 N 1.0000 0.0000 0.3657(4)
C1 C 0.8889(2) 0.1224(2) 0.0000
C2 C 0.8235(3) 0.1951(3) 0.0000
C3 C 1.0847(9) 0.0363(13) 0.4210(11)
H1 H 1.0925 0.0951 0.3874
H2 H 1.1327 0.0015 0.3874
C4 C 0.8370(4) 0.2725(4) -0.0751(9)
C5 C 0.7512(5) 0.1866(5) 0.0822(8)
H3 H 0.7449 0.1379 0.1382
C6 C 0.9142(6) 0.2880(6) -0.1531(11)
H4 H 0.9595 0.2482 -0.1483
C7 C 0.9233(6) 0.3623(6) -0.2375(13)
H5 H 0.9722 0.3686 -0.2932
O1J O 0.91201(15) 0.09446(15) -0.1142(3)
C4J C 0.8370(4) 0.2725(4) 0.0751(9)
C5J C 0.7512(5) 0.1866(5) -0.0822(8)
H3J H 0.7449 0.1379 -0.1382
C6J C 0.9142(6) 0.2880(6) 0.1531(11)
H4J H 0.9595 0.2482 0.1483
C7J C 0.9233(6) 0.3623(6) 0.2375(13)
H5J H 0.9722 0.3686 0.2932
O1O O 0.59446(15) 0.41201(15) 0.1142(3)
C1F C 0.6224(2) 0.3889(2) 0.0000
C2F C 0.6951(3) 0.3235(3) 0.0000
C4O C 0.7725(4) 0.3370(4) -0.0751(9)
C5O C 0.6866(5) 0.2512(5) 0.0822(8)
H3O H 0.6379 0.2449 0.1382
C6O C 0.7880(6) 0.4142(6) -0.1531(11)
H4O H 0.7482 0.4595 -0.1483
C7O C 0.8623(6) 0.4233(6) -0.2375(13)
H5O H 0.8686 0.4722 -0.2932
O1F O 0.59446(15) 0.41201(15) -0.1142(3)
C4F C 0.7725(4) 0.3370(4) 0.0751(9)
C5F C 0.6866(5) 0.2512(5) -0.0822(8)
H3F H 0.6379 0.2449 -0.1382
C6F C 0.7880(6) 0.4142(6) 0.1531(11)
H4F H 0.7482 0.4595 0.1483
C7F C 0.8623(6) 0.4233(6) 0.2375(13)
H5F H 0.8686 0.4722 0.2932
C3A C 0.9637(13) 0.0847(9) 0.4210(11)
H1A H 0.9049 0.0925 0.3874
H2A H 0.9985 0.1327 0.3874
C3B C 0.9153(9) -0.0363(13) 0.4210(11)
H1B H 0.9075 -0.0951 0.3874
H2B H 0.8673 -0.0015 0.3874
C3C C 1.0363(13) -0.0847(9) 0.4210(11)
H1C H 1.0951 -0.0925 0.3874
H2C H 1.0015 -0.1327 0.3874
N1H N 1.0000 0.0000 0.6343(4)
C3H C 0.9153(9) -0.0363(13) 0.5790(11)
H1H H 0.9075 -0.0951 0.6126
H2H H 0.8673 -0.0015 0.6126
C3I C 1.0363(13) -0.0847(9) 0.5790(11)
H1I H 1.0951 -0.0925 0.6126
H2I H 1.0015 -0.1327 0.6126
C3J C 1.0847(9) 0.0363(13) 0.5790(11)
H1J H 1.0925 0.0951 0.6126
H2J H 1.1327 0.0015 0.6126
C3K C 0.9637(13) 0.0847(9) 0.5790(11)
H1K H 0.9049 0.0925 0.6126
H2K H 0.9985 0.1327 0.6126
O1A O 0.90554(15) -0.08799(15) 0.1142(3)
C1A C 0.8776(2) -0.1111(2) 0.0000
C2A C 0.8049(3) -0.1765(3) 0.0000
C4A C 0.7275(4) -0.1630(4) -0.0751(9)
C5A C 0.8134(5) -0.2488(5) 0.0822(8)
H3A H 0.8621 -0.2551 0.1382
C6A C 0.7120(6) -0.0858(6) -0.1531(11)
H4A H 0.7518 -0.0405 -0.1483
C7A C 0.6377(6) -0.0767(6) -0.2375(13)
H5A H 0.6314 -0.0278 -0.2932
O1K O 0.90554(15) -0.08799(15) -0.1142(3)
C4K C 0.7275(4) -0.1630(4) 0.0751(9)
C5K C 0.8134(5) -0.2488(5) -0.0822(8)
H3K H 0.8621 -0.2551 -0.1382
C6K C 0.7120(6) -0.0858(6) 0.1531(11)
H4K H 0.7518 -0.0405 0.1483
C7K C 0.6377(6) -0.0767(6) 0.2375(13)
H5K H 0.6314 -0.0278 0.2932
O1L O 0.58799(15) -0.40554(15) 0.1142(3)
C1E C 0.6111(2) -0.3776(2) 0.0000
C2E C 0.6765(3) -0.3049(3) 0.0000
C4L C 0.6630(4) -0.2275(4) -0.0751(9)
C5L C 0.7488(5) -0.3134(5) 0.0822(8)
H3L H 0.7551 -0.3621 0.1382
C6L C 0.5858(6) -0.2120(6) -0.1531(11)
H4L H 0.5405 -0.2518 -0.1483
C7L C 0.5767(6) -0.1377(6) -0.2375(13)
H5L H 0.5278 -0.1314 -0.2932
O1E O 0.58799(15) -0.40554(15) -0.1142(3)
C4E C 0.6630(4) -0.2275(4) 0.0751(9)
C5E C 0.7488(5) -0.3134(5) -0.0822(8)
H3E H 0.7551 -0.3621 -0.1382
C6E C 0.5858(6) -0.2120(6) 0.1531(11)
H4E H 0.5405 -0.2518 0.1483
C7E C 0.5767(6) -0.1377(6) 0.2375(13)
H5E H 0.5278 -0.1314 0.2932
Zn1H Zn 1.0000 -0.0000 -0.15301(5)
Zn1D Zn 0.5000 -0.5000 -0.15301(5)
Zn1D_2 Zn 0.5000 0.5000 -0.15301(5)
Zn1H_2 Zn 1.0000 0.0000 0.84699(5)
Zn1L Zn 0.5000 -0.5000 0.15301(5)
Zn1L_2 Zn 0.5000 0.5000 0.15301(5)
O1B O 1.08799(15) -0.09446(15) 0.1142(3)
O1C O 1.09446(15) 0.08799(15) 0.1142(3)
O1H O 1.08799(15) -0.09446(15) -0.1142(3)
O1I O 1.09446(15) 0.08799(15) -0.1142(3)
N1H_2 N 1.0000 -0.0000 -0.3657(4)
loop_
_geom_bond_atom_site_label_1
_geom_bond_atom_site_label_2
_geom_bond_site_symmetry_1
_geom_bond_site_symmetry_2
Zn1 O1 1_555 1_555
O1 C1 1_555 1_555
N1 Zn1 1_555 1_555
C1 C2 1_555 1_555
C2 C4 1_555 1_555
C3 N1 1_555 1_555
H1 C3 1_555 1_555
H2 C3 1_555 1_555
C4 C6 1_555 1_555
C5 C2 1_555 1_555
H3 C5 1_555 1_555
C6 H4 1_555 1_555
C7 C6 1_555 1_555
H5 C7 1_555 1_555
O1J C1 1_555 1_555
C4J C2 1_555 1_555
C5J C2 1_555 1_555
H3J C5J 1_555 1_555
C6J C4J 1_555 1_555
H4J C6J 1_555 1_555
C7J C6J 1_555 1_555
H5J C7J 1_555 1_555
O1O C1F 1_555 1_555
C1F C2F 1_555 1_555
C2F C4O 1_555 1_555
C4O C4 1_555 1_555
C5O C5 1_555 1_555
H3O C5O 1_555 1_555
C6O C4O 1_555 1_555
H4O C6O 1_555 1_555
C7O C7 1_555 1_555
H5O C7O 1_555 1_555
O1F C1F 1_555 1_555
C4F C4J 1_555 1_555
C5F C5J 1_555 1_555
H3F C5F 1_555 1_555
C6F C4F 1_555 1_555
H4F C6F 1_555 1_555
C7F C7J 1_555 1_555
H5F C7F 1_555 1_555
C3A N1 1_555 1_555
H1A C3A 1_555 1_555
H2A C3A 1_555 1_555
C3B N1 1_555 1_555
H1B C3B 1_555 1_555
H2B C3B 1_555 1_555
C3C N1 1_555 1_555
H1C C3C 1_555 1_555
H2C C3C 1_555 1_555
N1H C3H 1_555 1_555
C3H C3B 1_555 1_555
H1H C3H 1_555 1_555
H2H C3H 1_555 1_555
C3I C3C 1_555 1_555
H1I C3I 1_555 1_555
H2I C3I 1_555 1_555
C3J C3 1_555 1_555
H1J C3J 1_555 1_555
H2J C3J 1_555 1_555
C3K C3A 1_555 1_555
H1K C3K 1_555 1_555
H2K C3K 1_555 1_555
O1A Zn1 1_555 1_555
C1A O1A 1_555 1_555
C2A C1A 1_555 1_555
C4A C2A 1_555 1_555
C5A C2A 1_555 1_555
H3A C5A 1_555 1_555
C6A C4A 1_555 1_555
H4A C6A 1_555 1_555
C7A C6A 1_555 1_555
H5A C7A 1_555 1_555
O1K C1A 1_555 1_555
C4K C2A 1_555 1_555
C5K C2A 1_555 1_555
H3K C5K 1_555 1_555
C6K C4K 1_555 1_555
H4K C6K 1_555 1_555
C7K C6K 1_555 1_555
H5K C7K 1_555 1_555
O1L C1E 1_555 1_555
C1E C2E 1_555 1_555
C2E C4L 1_555 1_555
C4L C4A 1_555 1_555
C5L C5A 1_555 1_555
H3L C5L 1_555 1_555
C6L C4L 1_555 1_555
H4L C6L 1_555 1_555
C7L C7A 1_555 1_555
H5L C7L 1_555 1_555
O1E C1E 1_555 1_555
C4E C4K 1_555 1_555
C5E C5K 1_555 1_555
H3E C5E 1_555 1_555
C6E C4E 1_555 1_555
H4E C6E 1_555 1_555
C7E C7K 1_555 1_555
H5E C7E 1_555 1_555
Zn1H O1J 1_555 1_555
Zn1D O1E 1_555 1_555
Zn1D_2 O1F 1_555 1_555
Zn1H_2 N1H 1_555 1_555
Zn1L O1L 1_555 1_555
Zn1L_2 O1O 1_555 1_555
O1B Zn1 1_555 1_555
O1C Zn1 1_555 1_555
O1H Zn1H 1_555 1_555
O1I Zn1H 1_555 1_555
N1H_2 Zn1H 1_555 1_555
C4 C4J 1_555 1_555
C5 C5J 1_555 1_555
C2F C5O 1_555 1_555
C2F C4F 1_555 1_555
C2F C5F 1_555 1_555
C4O C4F 1_555 1_555
C5O C5F 1_555 1_555
C6O C7O 1_555 1_555
C6F C7F 1_555 1_555
N1H C3I 1_555 1_555
N1H C3J 1_555 1_555
N1H C3K 1_555 1_555
C4A C4K 1_555 1_555
C5A C5K 1_555 1_555
O1K Zn1H 1_555 1_555
C2E C5L 1_555 1_555
C2E C4E 1_555 1_555
C2E C5E 1_555 1_555
C4L C4E 1_555 1_555
C5L C5E 1_555 1_555
C6L C7L 1_555 1_555
C6E C7E 1_555 1_555

#END
