
#######################################################################
#
#                 Cambridge Crystallographic Data Centre
#                                CCDC 
#
#######################################################################
#
# If this CIF has been generated from an entry in the Cambridge 
# Structural Database, then it will include bibliographic, chemical, 
# crystal, experimental, refinement or atomic coordinate data resulting 
# from the CCDC's data processing and validation procedures.
#
#######################################################################

data_HIVRIP
_chemical_formula_moiety         'C40 H40 N10 O30 Zn7'
_symmetry_cell_setting           tetragonal
_symmetry_space_group_name_H-M   'I 4/m c m'
_symmetry_Int_Tables_number      140
_space_group_name_Hall           '-I 4 2c'
loop_
_symmetry_equiv_pos_site_id
_symmetry_equiv_pos_as_xyz
1 x,y,z
2 -y,x,z
3 -x,-y,z
4 y,-x,z
5 x,-y,1/2-z
6 -x,y,1/2-z
7 y,x,1/2-z
8 -y,-x,1/2-z
9 1/2+x,1/2+y,1/2+z
10 1/2-y,1/2+x,1/2+z
11 1/2-x,1/2-y,1/2+z
12 1/2+y,1/2-x,1/2+z
13 1/2+x,1/2-y,-z
14 1/2-x,1/2+y,-z
15 1/2+y,1/2+x,-z
16 1/2-y,1/2-x,-z
17 -x,-y,-z
18 y,-x,-z
19 x,y,-z
20 -y,x,-z
21 -x,y,1/2+z
22 x,-y,1/2+z
23 -y,-x,1/2+z
24 y,x,1/2+z
25 1/2-x,1/2-y,1/2-z
26 1/2+y,1/2-x,1/2-z
27 1/2+x,1/2+y,1/2-z
28 1/2-y,1/2+x,1/2-z
29 1/2-x,1/2+y,z
30 1/2+x,1/2-y,z
31 1/2-y,1/2-x,z
32 1/2+y,1/2+x,z
_cell_length_a                   15.25553(12)
_cell_length_b                   15.25553(12)
_cell_length_c                   19.3129(2)
_cell_angle_alpha                90
_cell_angle_beta                 90
_cell_angle_gamma                90
_cell_volume                     4494.71
loop_
_atom_site_label
_atom_site_type_symbol
_atom_site_fract_x
_atom_site_fract_y
_atom_site_fract_z
Zn1 Zn 0.0000 0.0000 0.07743(3)
O1 O 0.1101(2) 0.0700(2) 0.05710(14)
C1 C -0.026(3) -0.0881(11) 0.2103(7)
H1 H 0.0127 -0.1326 0.1912
H2 H -0.0853 -0.1015 0.1959
N1 N 0.0000 0.0000 0.1828(3)
C2 C 0.020(3) -0.0896(10) 0.2114(6)
H3 H 0.0755 -0.1100 0.1925
H4 H -0.0251 -0.1303 0.1972
C3 C 0.2144(3) 0.1554(3) 0.0000
C4 C 0.1396(3) 0.0928(3) 0.0000
C5 C 0.2658(8) 0.1698(8) 0.0565(6)
N2 N 0.269(2) 0.1032(15) 0.1113(11)
C6 C 0.2326(7) 0.2028(7) 0.0593(4)
H5 H 0.2013 0.1914 0.0997
O2 O 0.278(4) 0.0254(17) 0.098(2)
O3 O 0.259(3) 0.127(2) 0.1705(8)
O1R O 0.1101(2) 0.0700(2) -0.05710(14)
C5R C 0.2658(8) 0.1698(8) -0.0565(6)
N2R N 0.269(2) 0.1032(15) -0.1113(11)
C6R C 0.2326(7) 0.2028(7) -0.0593(4)
H5R H 0.2013 0.1914 -0.0997
O2R O 0.278(4) 0.0254(17) -0.098(2)
O3R O 0.259(3) 0.127(2) -0.1705(8)
O1DA O 0.4300(2) 0.3899(2) 0.05710(14)
C3O C 0.3446(3) 0.2856(3) 0.0000
C4O C 0.4072(3) 0.3604(3) 0.0000
C5DA C 0.3302(8) 0.2342(8) 0.0565(6)
N2DA N 0.3968(15) 0.231(2) 0.1113(11)
C6DA C 0.2972(7) 0.2674(7) 0.0593(4)
H5DA H 0.3086 0.2987 0.0997
O2DA O 0.4746(17) 0.222(4) 0.098(2)
O3DA O 0.373(2) 0.241(3) 0.1705(8)
O1O O 0.4300(2) 0.3899(2) -0.05710(14)
C5O C 0.3302(8) 0.2342(8) -0.0565(6)
N2O N 0.3968(15) 0.231(2) -0.1113(11)
C6O C 0.2972(7) 0.2674(7) -0.0593(4)
H5O H 0.3086 0.2987 -0.0997
O2O O 0.4746(17) 0.222(4) -0.098(2)
O3O O 0.373(2) 0.241(3) -0.1705(8)
C1A C 0.0881(11) -0.026(3) 0.2103(7)
H1A H 0.1326 0.0127 0.1912
H2A H 0.1015 -0.0853 0.1959
C2A C 0.0896(10) 0.020(3) 0.2114(6)
H3A H 0.1100 0.0755 0.1925
H4A H 0.1303 -0.0251 0.1972
C1B C 0.026(3) 0.0881(11) 0.2103(7)
H1B H -0.0127 0.1326 0.1912
H2B H 0.0853 0.1015 0.1959
C2B C -0.020(3) 0.0896(10) 0.2114(6)
H3B H -0.0755 0.1100 0.1925
H4B H 0.0251 0.1303 0.1972
C1C C -0.0881(11) 0.026(3) 0.2103(7)
H1C H -0.1326 -0.0127 0.1912
H2C H -0.1015 0.0853 0.1959
C2C C -0.0896(10) -0.020(3) 0.2114(6)
H3C H -0.1100 -0.0755 0.1925
H4C H -0.1303 0.0251 0.1972
C1D C -0.026(3) 0.0881(11) 0.2897(7)
H1D H 0.0127 0.1326 0.3088
H2D H -0.0853 0.1015 0.3041
N1D N 0.0000 0.0000 0.3172(3)
C2D C 0.020(3) 0.0896(10) 0.2886(6)
H3D H 0.0755 0.1100 0.3075
H4D H -0.0251 0.1303 0.3028
C1E C 0.026(3) -0.0881(11) 0.2897(7)
H1E H -0.0127 -0.1326 0.3088
H2E H 0.0853 -0.1015 0.3041
C2E C -0.020(3) -0.0896(10) 0.2886(6)
H3E H -0.0755 -0.1100 0.3075
H4E H 0.0251 -0.1303 0.3028
C1F C -0.0881(11) -0.026(3) 0.2897(7)
H1F H -0.1326 0.0127 0.3088
H2F H -0.1015 -0.0853 0.3041
C2F C -0.0896(10) 0.020(3) 0.2886(6)
H3F H -0.1100 0.0755 0.3075
H4F H -0.1303 -0.0251 0.3028
C1G C 0.0881(11) 0.026(3) 0.2897(7)
H1G H 0.1326 -0.0127 0.3088
H2G H 0.1015 0.0853 0.3041
C2G C 0.0896(10) -0.020(3) 0.2886(6)
H3G H 0.1100 -0.0755 0.3075
H4G H 0.1303 0.0251 0.3028
O1A O -0.0700(2) 0.1101(2) 0.05710(14)
C3A C -0.1554(3) 0.2144(3) 0.0000
C4A C -0.0928(3) 0.1396(3) 0.0000
C5A C -0.1698(8) 0.2658(8) 0.0565(6)
N2A N -0.1032(15) 0.269(2) 0.1113(11)
C6A C -0.2028(7) 0.2326(7) 0.0593(4)
H5A H -0.1914 0.2013 0.0997
O2A O -0.0254(17) 0.278(4) 0.098(2)
O3A O -0.127(2) 0.259(3) 0.1705(8)
O1S O -0.0700(2) 0.1101(2) -0.05710(14)
C5S C -0.1698(8) 0.2658(8) -0.0565(6)
N2S N -0.1032(15) 0.269(2) -0.1113(11)
C6S C -0.2028(7) 0.2326(7) -0.0593(4)
H5S H -0.1914 0.2013 -0.0997
O2S O -0.0254(17) 0.278(4) -0.098(2)
O3S O -0.127(2) 0.259(3) -0.1705(8)
O1CA O -0.3899(2) 0.4300(2) 0.05710(14)
C3L C -0.2856(3) 0.3446(3) 0.0000
C4L C -0.3604(3) 0.4072(3) 0.0000
C5CA C -0.2342(8) 0.3302(8) 0.0565(6)
N2CA N -0.231(2) 0.3968(15) 0.1113(11)
C6CA C -0.2674(7) 0.2972(7) 0.0593(4)
H5CA H -0.2987 0.3086 0.0997
O2CA O -0.222(4) 0.4746(17) 0.098(2)
O3CA O -0.241(3) 0.373(2) 0.1705(8)
O1L O -0.3899(2) 0.4300(2) -0.05710(14)
C5L C -0.2342(8) 0.3302(8) -0.0565(6)
N2L N -0.231(2) 0.3968(15) -0.1113(11)
C6L C -0.2674(7) 0.2972(7) -0.0593(4)
H5L H -0.2987 0.3086 -0.0997
O2L O -0.222(4) 0.4746(17) -0.098(2)
O3L O -0.241(3) 0.373(2) -0.1705(8)
Zn1D Zn 0.0000 0.0000 0.42257(3)
Zn1L Zn -0.5000 0.5000 -0.07743(3)
Zn1L_2 Zn 0.5000 0.5000 -0.07743(3)
Zn1P Zn 0.0000 0.0000 -0.07743(3)
Zn1BA Zn -0.5000 0.5000 0.07743(3)
Zn1BA_2 Zn 0.5000 0.5000 0.07743(3)
O1B O -0.1101(2) -0.0700(2) 0.05710(14)
O1C O 0.0700(2) -0.1101(2) 0.05710(14)
O1D O 0.1101(2) -0.0700(2) 0.44290(14)
O1E O -0.1101(2) 0.0700(2) 0.44290(14)
O1F O 0.0700(2) 0.1101(2) 0.44290(14)
O1G O -0.0700(2) -0.1101(2) 0.44290(14)
loop_
_geom_bond_atom_site_label_1
_geom_bond_atom_site_label_2
_geom_bond_site_symmetry_1
_geom_bond_site_symmetry_2
Zn1 O1 1_555 1_555
O1 C4 1_555 1_555
C1 H1 1_555 1_555
H1 C2 1_555 1_555
H2 C1 1_555 1_555
N1 Zn1 1_555 1_555
C2 C1 1_555 1_555
H3 C2 1_555 1_555
H4 C1 1_555 1_555
C3 C4 1_555 1_555
C4 O1R 1_555 1_555
C5 C3 1_555 1_555
N2 C5 1_555 1_555
C6 C3 1_555 1_555
H5 C5 1_555 1_555
O2 N2 1_555 1_555
O3 N2 1_555 1_555
O1R Zn1P 1_555 1_555
C5R C3 1_555 1_555
N2R C5R 1_555 1_555
C6R C3 1_555 1_555
H5R C5R 1_555 1_555
O2R N2R 1_555 1_555
O3R N2R 1_555 1_555
O1DA C4O 1_555 1_555
C3O C4O 1_555 1_555
C4O O1O 1_555 1_555
C5DA C5 1_555 1_555
N2DA C5DA 1_555 1_555
C6DA C6 1_555 1_555
H5DA C5DA 1_555 1_555
O2DA N2DA 1_555 1_555
O3DA N2DA 1_555 1_555
O1O Zn1L_2 1_555 1_555
C5O C5R 1_555 1_555
N2O C5O 1_555 1_555
C6O C6R 1_555 1_555
H5O C5O 1_555 1_555
O2O N2O 1_555 1_555
O3O N2O 1_555 1_555
C1A N1 1_555 1_555
H1A C1A 1_555 1_555
H2A C2 1_555 1_555
C2A N1 1_555 1_555
H3A C2A 1_555 1_555
H4A C1A 1_555 1_555
C1B N1 1_555 1_555
H1B C1B 1_555 1_555
H2B C2A 1_555 1_555
C2B N1 1_555 1_555
H3B C2B 1_555 1_555
H4B C1B 1_555 1_555
C1C N1 1_555 1_555
H1C C1C 1_555 1_555
H2C C2B 1_555 1_555
C2C C1 1_555 1_555
H3C C1 1_555 1_555
H4C C1C 1_555 1_555
C1D C2B 1_555 1_555
H1D C1D 1_555 1_555
H2D C1D 1_555 1_555
N1D C1D 1_555 1_555
C2D C1B 1_555 1_555
H3D C2D 1_555 1_555
H4D C1D 1_555 1_555
C1E C2 1_555 1_555
H1E C1E 1_555 1_555
H2E C1E 1_555 1_555
C2E C1 1_555 1_555
H3E C2E 1_555 1_555
H4E C1E 1_555 1_555
C1F C2C 1_555 1_555
H1F C1F 1_555 1_555
H2F C2E 1_555 1_555
C2F C1C 1_555 1_555
H3F C1D 1_555 1_555
H4F C1F 1_555 1_555
C1G C2A 1_555 1_555
H1G C1G 1_555 1_555
H2G C2D 1_555 1_555
C2G C1A 1_555 1_555
H3G C1E 1_555 1_555
H4G C1G 1_555 1_555
O1A Zn1 1_555 1_555
C3A C4A 1_555 1_555
C4A O1A 1_555 1_555
C5A C3A 1_555 1_555
N2A C5A 1_555 1_555
C6A C3A 1_555 1_555
H5A C5A 1_555 1_555
O2A N2A 1_555 1_555
O3A N2A 1_555 1_555
O1S C4A 1_555 1_555
C5S C3A 1_555 1_555
N2S C5S 1_555 1_555
C6S C3A 1_555 1_555
H5S C5S 1_555 1_555
O2S N2S 1_555 1_555
O3S N2S 1_555 1_555
O1CA C4L 1_555 1_555
C3L C4L 1_555 1_555
C4L O1L 1_555 1_555
C5CA C5A 1_555 1_555
N2CA C5CA 1_555 1_555
C6CA C6A 1_555 1_555
H5CA C5CA 1_555 1_555
O2CA N2CA 1_555 1_555
O3CA N2CA 1_555 1_555
O1L Zn1L 1_555 1_555
C5L C5S 1_555 1_555
N2L C5L 1_555 1_555
C6L C6S 1_555 1_555
H5L C5L 1_555 1_555
O2L N2L 1_555 1_555
O3L N2L 1_555 1_555
Zn1D N1D 1_555 1_555
Zn1P O1S 1_555 1_555
Zn1BA O1CA 1_555 1_555
Zn1BA_2 O1DA 1_555 1_555
O1B Zn1 1_555 1_555
O1C Zn1 1_555 1_555
O1D Zn1D 1_555 1_555
O1E Zn1D 1_555 1_555
O1F Zn1D 1_555 1_555
O1G Zn1D 1_555 1_555
C1 N1 1_555 1_555
H2 C2C 1_555 1_555
N1 C2 1_555 1_555
N1 C2C 1_555 1_555
C2 H4 1_555 1_555
C2 C1A 1_555 1_555
H3 C1A 1_555 1_555
C6 H5 1_555 1_555
C6R H5R 1_555 1_555
C3O C5DA 1_555 1_555
C3O C6DA 1_555 1_555
C3O C5O 1_555 1_555
C3O C6O 1_555 1_555
C6DA H5DA 1_555 1_555
C6O H5O 1_555 1_555
C1A H2A 1_555 1_555
C1A C2A 1_555 1_555
H1A C2A 1_555 1_555
C2A H4A 1_555 1_555
C2A C1B 1_555 1_555
H3A C1B 1_555 1_555
C1B H2B 1_555 1_555
C1B C2B 1_555 1_555
H1B C2B 1_555 1_555
C2B H4B 1_555 1_555
C2B C1C 1_555 1_555
H3B C1C 1_555 1_555
C1C H2C 1_555 1_555
C1C C2C 1_555 1_555
H1C C2C 1_555 1_555
C2C H3C 1_555 1_555
C2C H4C 1_555 1_555
C1D C2D 1_555 1_555
C1D C2F 1_555 1_555
H1D C2D 1_555 1_555
H2D C2F 1_555 1_555
N1D C2D 1_555 1_555
N1D C1E 1_555 1_555
N1D C2E 1_555 1_555
N1D C1F 1_555 1_555
N1D C2F 1_555 1_555
N1D C1G 1_555 1_555
N1D C2G 1_555 1_555
C2D H4D 1_555 1_555
C2D C1G 1_555 1_555
H3D C1G 1_555 1_555
C1E C2E 1_555 1_555
C1E C2G 1_555 1_555
H1E C2E 1_555 1_555
H2E C2G 1_555 1_555
C2E H4E 1_555 1_555
C2E C1F 1_555 1_555
H3E C1F 1_555 1_555
C1F H2F 1_555 1_555
C1F C2F 1_555 1_555
H1F C2F 1_555 1_555
C2F H3F 1_555 1_555
C2F H4F 1_555 1_555
C1G H2G 1_555 1_555
C1G C2G 1_555 1_555
H1G C2G 1_555 1_555
C2G H3G 1_555 1_555
C2G H4G 1_555 1_555
C6A H5A 1_555 1_555
C6S H5S 1_555 1_555
C3L C5CA 1_555 1_555
C3L C6CA 1_555 1_555
C3L C5L 1_555 1_555
C3L C6L 1_555 1_555
C6CA H5CA 1_555 1_555
C6L H5L 1_555 1_555

#END
