
#######################################################################
#
#                 Cambridge Crystallographic Data Centre
#                                CCDC 
#
#######################################################################
#
# If this CIF has been generated from an entry in the Cambridge 
# Structural Database, then it will include bibliographic, chemical, 
# crystal, experimental, refinement or atomic coordinate data resulting 
# from the CCDC's data processing and validation procedures.
#
#######################################################################

data_HIVSIQ
_chemical_formula_moiety         'C24 H20 Br4 N2 O14 Zn7'
_symmetry_cell_setting           orthorhombic
_symmetry_space_group_name_H-M   'P b a n'
_symmetry_Int_Tables_number      50
_space_group_name_Hall           '-P 2ab 2b'
loop_
_symmetry_equiv_pos_site_id
_symmetry_equiv_pos_as_xyz
1 x,y,z
2 1/2-x,1/2-y,z
3 x,1/2-y,-z
4 1/2-x,y,-z
5 -x,-y,-z
6 1/2+x,1/2+y,-z
7 -x,1/2+y,z
8 1/2+x,-y,z
_cell_length_a                   16.3684(4)
_cell_length_b                   14.4237(3)
_cell_length_c                   9.6406(2)
_cell_angle_alpha                90
_cell_angle_beta                 90
_cell_angle_gamma                90
_cell_volume                     2276.08
loop_
_atom_site_label
_atom_site_type_symbol
_atom_site_fract_x
_atom_site_fract_y
_atom_site_fract_z
Zn1 Zn 0.7500 0.2500 0.84645(5)
O1 O 0.66715(19) 0.1483(2) 0.8846(3)
O2 O 0.66003(18) 0.1572(2) 1.1123(3)
C1 C 0.5674(2) 0.0600(3) 0.9978(3)
C2 C 0.6373(2) 0.1272(2) 0.9985(3)
N1 N 0.7500 0.2500 0.6334(4)
C3 C 0.5522(2) 0.0003(3) 0.8887(4)
C4 C 0.5140(3) 0.0588(3) 1.1095(4)
H1 H 0.5230 0.0984 1.1841
Br1 Br 0.62259(13) -0.02047(15) 0.7330(2)
C5 C 0.7018(11) 0.3309(10) 0.5808(10)
H2 H 0.7204 0.3874 0.6250
H3 H 0.6444 0.3225 0.6024
C6 C 0.7132(11) 0.1620(8) 0.5765(11)
H4 H 0.6608 0.1509 0.6203
H5 H 0.7487 0.1101 0.5977
O1D O 0.33285(19) -0.1483(2) 1.1154(3)
C1D C 0.4326(2) -0.0600(3) 1.0022(3)
C2D C 0.3627(2) -0.1272(2) 1.0015(3)
C3D C 0.4478(2) -0.0003(3) 1.1113(4)
C4D C 0.4860(3) -0.0588(3) 0.8905(4)
H1D H 0.4770 -0.0984 0.8159
Br1D Br 0.37741(13) 0.02047(15) 1.2670(2)
O2D O 0.33997(18) -0.1572(2) 0.8877(3)
C5A C 0.7982(11) 0.1691(10) 0.5808(10)
H2A H 0.7796 0.1126 0.6250
H3A H 0.8556 0.1775 0.6024
C6A C 0.7868(11) 0.3380(8) 0.5765(11)
H4A H 0.8392 0.3491 0.6203
H5A H 0.7513 0.3899 0.5977
N1B N 0.7500 0.2500 0.3666(4)
C5B C 0.7018(11) 0.1691(10) 0.4192(10)
H2B H 0.7204 0.1126 0.3750
H3B H 0.6444 0.1775 0.3976
C6B C 0.7132(11) 0.3380(8) 0.4235(11)
H4B H 0.6608 0.3491 0.3797
H5B H 0.7487 0.3899 0.4023
C5C C 0.7982(11) 0.3309(10) 0.4192(10)
H2C H 0.7796 0.3874 0.3750
H3C H 0.8556 0.3225 0.3976
C6C C 0.7868(11) 0.1620(8) 0.4235(11)
H4C H 0.8392 0.1509 0.3797
H5C H 0.7513 0.1101 0.4023
O1A O 0.83285(19) 0.3517(2) 0.8846(3)
O2A O 0.83997(18) 0.3428(2) 1.1123(3)
C1A C 0.9326(2) 0.4400(3) 0.9978(3)
C2A C 0.8627(2) 0.3728(2) 0.9985(3)
C3A C 0.9478(2) 0.4997(3) 0.8887(4)
C4A C 0.9860(3) 0.4412(3) 1.1095(4)
H1A H 0.9770 0.4016 1.1841
Br1A Br 0.87741(13) 0.52047(15) 0.7330(2)
O1E O 1.16715(19) 0.6483(2) 1.1154(3)
C1E C 1.0674(2) 0.5600(3) 1.0022(3)
C2E C 1.1373(2) 0.6272(2) 1.0015(3)
C3E C 1.0522(2) 0.5003(3) 1.1113(4)
C4E C 1.0140(3) 0.5588(3) 0.8905(4)
H1E H 1.0230 0.5984 0.8159
Br1E Br 1.12259(13) 0.47953(15) 1.2670(2)
O2E O 1.16003(18) 0.6572(2) 0.8877(3)
Zn1B Zn 0.7500 0.2500 0.15355(5)
Zn1B_2 Zn 0.7500 0.2500 1.15355(5)
Zn1D Zn 0.2500 -0.2500 1.15355(5)
Zn1D_2 Zn 1.2500 0.7500 1.15355(5)
Zn1F Zn 0.2500 -0.2500 0.84645(5)
Zn1F_2 Zn 1.2500 0.7500 0.84645(5)
O1B O 0.66715(19) 0.3517(2) 0.1154(3)
O1C O 0.83285(19) 0.1483(2) 0.1154(3)
O2_2 O 0.66003(18) 0.1572(2) 0.1123(3)
O2A_2 O 0.83997(18) 0.3428(2) 0.1123(3)
O2B O 0.66003(18) 0.3428(2) 0.8877(3)
O2C O 0.83997(18) 0.1572(2) 0.8877(3)
loop_
_geom_bond_atom_site_label_1
_geom_bond_atom_site_label_2
_geom_bond_site_symmetry_1
_geom_bond_site_symmetry_2
Zn1 O1 1_555 1_555
O1 C2 1_555 1_555
O2 C2 1_555 1_555
C1 C2 1_555 1_555
N1 Zn1 1_555 1_555
C3 C1 1_555 1_555
C4 C1 1_555 1_555
H1 C4 1_555 1_555
Br1 C3 1_555 1_555
C5 N1 1_555 1_555
H2 C5 1_555 1_555
H3 C5 1_555 1_555
C6 N1 1_555 1_555
H4 C6 1_555 1_555
H5 C6 1_555 1_555
O1D C2D 1_555 1_555
C1D C2D 1_555 1_555
C2D O2D 1_555 1_555
C3D C4 1_555 1_555
C4D C3 1_555 1_555
H1D C4D 1_555 1_555
Br1D C3D 1_555 1_555
O2D Zn1F 1_555 1_555
C5A N1 1_555 1_555
H2A C5A 1_555 1_555
H3A C5A 1_555 1_555
C6A N1 1_555 1_555
H4A C6A 1_555 1_555
H5A C5 1_555 1_555
N1B C5B 1_555 1_555
C5B C6 1_555 1_555
H2B C5B 1_555 1_555
H3B C5B 1_555 1_555
C6B C5 1_555 1_555
H4B C6B 1_555 1_555
H5B C6B 1_555 1_555
C5C C6A 1_555 1_555
H2C C5C 1_555 1_555
H3C C5C 1_555 1_555
C6C C5A 1_555 1_555
H4C C6C 1_555 1_555
H5C C5B 1_555 1_555
O1A Zn1 1_555 1_555
O2A C2A 1_555 1_555
C1A C2A 1_555 1_555
C2A O1A 1_555 1_555
C3A C1A 1_555 1_555
C4A C1A 1_555 1_555
H1A C4A 1_555 1_555
Br1A C3A 1_555 1_555
O1E C2E 1_555 1_555
C1E C2E 1_555 1_555
C2E O2E 1_555 1_555
C3E C4A 1_555 1_555
C4E C3A 1_555 1_555
H1E C4E 1_555 1_555
Br1E C3E 1_555 1_555
O2E Zn1F_2 1_555 1_555
Zn1B N1B 1_555 1_555
Zn1B_2 O2 1_555 1_555
Zn1D O1D 1_555 1_555
Zn1D_2 O1E 1_555 1_555
O1B Zn1B 1_555 1_555
O1C Zn1B 1_555 1_555
O2_2 Zn1B 1_555 1_555
O2A_2 Zn1B 1_555 1_555
O2B Zn1 1_555 1_555
O2C Zn1 1_555 1_555
C5 C6A 1_555 1_555
C6 C5A 1_555 1_555
H5 C5A 1_555 1_555
C1D C3D 1_555 1_555
C1D C4D 1_555 1_555
C6A H5A 1_555 1_555
N1B C6B 1_555 1_555
N1B C5C 1_555 1_555
N1B C6C 1_555 1_555
C5B C6C 1_555 1_555
C6B C5C 1_555 1_555
H5B C5C 1_555 1_555
C6C H5C 1_555 1_555
O2A Zn1B_2 1_555 1_555
C1E C3E 1_555 1_555
C1E C4E 1_555 1_555

#END
