
#######################################################################
#
#                 Cambridge Crystallographic Data Centre
#                                CCDC 
#
#######################################################################
#
# If this CIF has been generated from an entry in the Cambridge 
# Structural Database, then it will include bibliographic, chemical, 
# crystal, experimental, refinement or atomic coordinate data resulting 
# from the CCDC's data processing and validation procedures.
#
#######################################################################

data_FOJPEB
_chemical_formula_moiety         '(C41 H30 Cd2 N4 O11)n'
_symmetry_cell_setting           orthorhombic
_symmetry_space_group_name_H-M   'F d d d'
_symmetry_Int_Tables_number      70
_space_group_name_Hall           '-F 2uv 2vw'
loop_
_symmetry_equiv_pos_site_id
_symmetry_equiv_pos_as_xyz
1 x,y,z
2 3/4-x,3/4-y,z
3 3/4-x,y,3/4-z
4 x,3/4-y,3/4-z
5 x,1/2+y,1/2+z
6 3/4-x,1/4-y,1/2+z
7 3/4-x,1/2+y,1/4-z
8 x,1/4-y,1/4-z
9 1/2+x,y,1/2+z
10 1/4-x,3/4-y,1/2+z
11 1/4-x,y,1/4-z
12 1/2+x,3/4-y,1/4-z
13 1/2+x,1/2+y,z
14 1/4-x,1/4-y,z
15 1/4-x,1/2+y,3/4-z
16 1/2+x,1/4-y,3/4-z
17 -x,-y,-z
18 1/4+x,1/4+y,-z
19 1/4+x,-y,1/4+z
20 -x,1/4+y,1/4+z
21 -x,1/2-y,1/2-z
22 1/4+x,3/4+y,1/2-z
23 1/4+x,1/2-y,3/4+z
24 -x,3/4+y,3/4+z
25 1/2-x,-y,1/2-z
26 3/4+x,1/4+y,1/2-z
27 3/4+x,-y,3/4+z
28 1/2-x,1/4+y,3/4+z
29 1/2-x,1/2-y,-z
30 3/4+x,3/4+y,-z
31 3/4+x,1/2-y,1/4+z
32 1/2-x,3/4+y,1/4+z
_cell_length_a                   13.529(3)
_cell_length_b                   32.896(8)
_cell_length_c                   39.785(9)
_cell_angle_alpha                90
_cell_angle_beta                 90
_cell_angle_gamma                90
_cell_volume                     17706.3
loop_
_atom_site_label
_atom_site_type_symbol
_atom_site_fract_x
_atom_site_fract_y
_atom_site_fract_z
_atom_site_U_iso_or_equiv
_atom_site_thermal_displace_type
Cd1 Cd 0.00907(4) 0.694498(15) 0.260539(11) 0.0502 Uani
N1 N 0.2349(4) 0.69912(17) 0.28652(14) 0.0507 Uani
N2 N 0.0117(5) 0.66765(18) 0.20671(13) 0.0523 Uani
O1 O 0.0979(4) 0.75518(15) 0.25421(12) 0.0597 Uani
O2 O 0.2031(5) 0.80314(18) 0.26396(17) 0.0837 Uani
O3 O 0.1763(4) 0.67984(14) 0.26554(11) 0.0547 Uani
O4 O 0.3050(4) 0.61407(15) 0.27843(12) 0.0593 Uani
O5 O 0.2402(4) 0.54339(15) 0.31663(12) 0.0653 Uani
C1 C 0.1772(6) 0.7683(2) 0.26667(18) 0.0537 Uani
C2 C 0.2419(6) 0.7407(2) 0.28755(18) 0.0543 Uani
C3 C 0.3095(6) 0.7588(3) 0.3090(2) 0.0687 Uani
H1 H 0.3158 0.7869 0.3090 0.0820 Uiso
C4 C 0.3675(7) 0.7359(3) 0.3301(3) 0.0913 Uani
H2 H 0.4120 0.7482 0.3448 0.1100 Uiso
C5 C 0.3576(7) 0.6942(3) 0.3289(2) 0.0783 Uani
H3 H 0.3969 0.6783 0.3428 0.0940 Uiso
C6 C 0.2918(6) 0.6756(2) 0.30788(17) 0.0537 Uani
C7 C 0.2799(5) 0.6305(2) 0.30623(17) 0.0497 Uani
C8 C 0.2503(5) 0.6117(2) 0.33528(18) 0.0550 Uani
H4 H 0.2393 0.6282 0.3539 0.0660 Uiso
C9 C 0.2348(6) 0.5696(2) 0.33965(17) 0.0567 Uani
C10 C 0.2104(6) 0.5537(3) 0.37355(19) 0.0640 Uani
C11 C 0.2457(7) 0.5726(4) 0.4022(2) 0.0923 Uani
H5 H 0.2810 0.5967 0.4003 0.1110 Uiso
C12 C 0.0180(6) 0.6910(2) 0.17949(18) 0.0617 Uani
H6 H 0.0245 0.7190 0.1823 0.0740 Uiso
C13 C 0.0151(6) 0.6754(2) 0.14716(17) 0.0597 Uani
H7 H 0.0218 0.6927 0.1288 0.0720 Uiso
C14 C 0.0022(6) 0.6340(2) 0.14215(16) 0.0567 Uani
C15 C -0.0055(6) 0.6101(2) 0.17100(18) 0.0620 Uani
H8 H -0.0145 0.5822 0.1691 0.0740 Uiso
C16 C 0.0001(6) 0.6277(2) 0.20234(18) 0.0620 Uani
H9 H -0.0043 0.6111 0.2212 0.0740 Uiso
C17 C 0.1711(10) 0.5224(5) 0.4369(2) 0.1250 Uani
H10 H 0.1567 0.5126 0.4583 0.1500 Uiso
C18 C 0.1534(7) 0.5187(3) 0.3764(2) 0.0747 Uani
H11 H 0.1288 0.5062 0.3572 0.0890 Uiso
C19 C 0.1329(8) 0.5023(3) 0.4083(2) 0.0880 Uani
H12 H 0.0951 0.4788 0.4105 0.1060 Uiso
C20 C 0.2295(10) 0.5562(4) 0.4333(3) 0.1267 Uani
H13 H 0.2582 0.5680 0.4521 0.1520 Uiso
N2G N 0.0117(5) 0.58235(18) 0.04329(13) 0.0523 Uani
C12G C 0.0180(6) 0.5590(2) 0.07051(18) 0.0617 Uani
H6G H 0.0245 0.5310 0.0677 0.0740 Uiso
C13G C 0.0151(6) 0.5746(2) 0.10284(17) 0.0597 Uani
H7G H 0.0218 0.5573 0.1212 0.0720 Uiso
C14G C 0.0022(6) 0.6160(2) 0.10785(16) 0.0567 Uani
C15G C -0.0055(6) 0.6399(2) 0.07900(18) 0.0620 Uani
H8G H -0.0145 0.6678 0.0809 0.0740 Uiso
C16G C 0.0001(6) 0.6223(2) 0.04766(18) 0.0620 Uani
H9G H -0.0043 0.6389 0.0288 0.0740 Uiso
Cd1G Cd 0.00907(4) 0.555502(15) -0.010539(11) 0.0502 Uani
N1G N 0.2349(4) 0.55088(17) -0.03652(14) 0.0507 Uani
O1G O 0.0979(4) 0.49482(15) -0.00421(12) 0.0597 Uani
O2G O 0.2031(5) 0.44686(18) -0.01396(17) 0.0837 Uani
O3G O 0.1763(4) 0.57016(14) -0.01554(11) 0.0547 Uani
O4G O 0.3050(4) 0.63593(15) -0.02843(12) 0.0593 Uani
O5G O 0.2402(4) 0.70661(15) -0.06663(12) 0.0653 Uani
C1G C 0.1772(6) 0.4817(2) -0.01667(18) 0.0537 Uani
C2G C 0.2419(6) 0.5093(2) -0.03755(18) 0.0543 Uani
C3G C 0.3095(6) 0.4912(3) -0.0590(2) 0.0687 Uani
H1G H 0.3158 0.4631 -0.0590 0.0820 Uiso
C4G C 0.3675(7) 0.5141(3) -0.0801(3) 0.0913 Uani
H2G H 0.4120 0.5018 -0.0948 0.1100 Uiso
C5G C 0.3576(7) 0.5558(3) -0.0789(2) 0.0783 Uani
H3G H 0.3969 0.5717 -0.0928 0.0940 Uiso
C6G C 0.2918(6) 0.5744(2) -0.05788(17) 0.0537 Uani
C7G C 0.2799(5) 0.6195(2) -0.05623(17) 0.0497 Uani
C8G C 0.2503(5) 0.6383(2) -0.08528(18) 0.0550 Uani
H4G H 0.2393 0.6218 -0.1039 0.0660 Uiso
C9G C 0.2348(6) 0.6804(2) -0.08965(17) 0.0567 Uani
C10G C 0.2104(6) 0.6963(3) -0.12355(19) 0.0640 Uani
C11G C 0.2457(7) 0.6774(4) -0.1522(2) 0.0923 Uani
H5G H 0.2810 0.6533 -0.1503 0.1110 Uiso
C17G C 0.1711(10) 0.7276(5) -0.1869(2) 0.1250 Uani
H10G H 0.1567 0.7374 -0.2083 0.1500 Uiso
C18G C 0.1534(7) 0.7313(3) -0.1264(2) 0.0747 Uani
H11G H 0.1288 0.7438 -0.1072 0.0890 Uiso
C19G C 0.1329(8) 0.7477(3) -0.1583(2) 0.0880 Uani
H12G H 0.0951 0.7712 -0.1605 0.1060 Uiso
C20G C 0.2295(10) 0.6938(4) -0.1833(3) 0.1267 Uani
H13G H 0.2582 0.6820 -0.2021 0.1520 Uiso
Cd1J Cd 0.24093(4) 0.694498(15) -0.010539(11) 0.0502 Uani
Cd1M Cd 0.24093(4) 0.555502(15) 0.260539(11) 0.0502 Uani
Cd1T Cd -0.00907(4) 0.805502(15) 0.239461(11) 0.0502 Uani
Cd1W Cd -0.00907(4) 0.444498(15) 0.010539(11) 0.0502 Uani
O1T O -0.0979(4) 0.74482(15) 0.24579(12) 0.0597 Uani
O1W O -0.0979(4) 0.50518(15) 0.00421(12) 0.0597 Uani
O4J O -0.0550(4) 0.61407(15) -0.02843(12) 0.0593 Uani
O4M O -0.0550(4) 0.63593(15) 0.27843(12) 0.0593 Uani
O5J O 0.0098(4) 0.54339(15) -0.06663(12) 0.0653 Uani
O5M O 0.0098(4) 0.70661(15) 0.31663(12) 0.0653 Uani
C21 C 0.519(3) 0.6515(13) 0.2399(12) 0.2260 Uiso
O6 O 0.527(3) 0.6300(13) 0.2096(11) 0.1590 Uiso
loop_
_atom_site_aniso_label
_atom_site_aniso_U_11
_atom_site_aniso_U_22
_atom_site_aniso_U_33
_atom_site_aniso_U_23
_atom_site_aniso_U_13
_atom_site_aniso_U_12
Cd1 0.0816(4) 0.0417(3) 0.0272(3) -0.0036(2) -0.0053(2) 0.0104(3)
N1 0.064(4) 0.050(4) 0.038(3) -0.005(3) -0.006(3) 0.006(3)
N2 0.086(4) 0.045(3) 0.026(3) -0.009(2) -0.005(3) 0.006(3)
O1 0.079(4) 0.048(3) 0.052(3) 0.006(2) -0.013(3) 0.009(3)
O2 0.108(5) 0.055(4) 0.088(5) 0.011(3) -0.025(4) -0.001(3)
O3 0.082(3) 0.045(3) 0.037(3) -0.011(2) -0.016(2) 0.011(2)
O4 0.093(4) 0.051(3) 0.034(3) -0.002(2) 0.000(3) 0.004(3)
O5 0.117(5) 0.049(3) 0.030(3) 0.005(2) 0.001(3) 0.013(3)
C1 0.078(5) 0.044(5) 0.039(4) 0.001(3) 0.000(4) 0.002(4)
C2 0.072(5) 0.042(4) 0.049(4) -0.002(3) 0.000(4) 0.005(4)
C3 0.084(6) 0.053(5) 0.069(5) -0.003(4) -0.025(5) -0.009(4)
C4 0.106(8) 0.058(6) 0.110(8) -0.006(5) -0.056(6) -0.006(5)
C5 0.095(6) 0.065(6) 0.075(6) 0.004(5) -0.044(5) 0.003(5)
C6 0.072(5) 0.048(4) 0.041(4) 0.008(3) -0.011(4) 0.009(4)
C7 0.066(5) 0.042(4) 0.041(4) 0.003(3) -0.012(4) 0.006(3)
C8 0.078(5) 0.052(4) 0.035(4) -0.007(3) -0.004(4) 0.014(4)
C9 0.076(5) 0.063(5) 0.031(4) 0.000(3) -0.005(4) 0.013(4)
C10 0.083(6) 0.071(6) 0.038(4) 0.003(4) -0.001(4) -0.002(5)
C11 0.123(8) 0.121(8) 0.033(4) 0.003(5) -0.005(5) -0.031(7)
C12 0.108(6) 0.040(4) 0.037(4) -0.008(3) -0.012(4) 0.009(4)
C13 0.104(6) 0.047(4) 0.028(3) 0.001(3) -0.008(4) 0.008(4)
C14 0.096(6) 0.048(4) 0.026(3) -0.007(3) -0.006(4) 0.004(4)
C15 0.104(6) 0.043(4) 0.039(4) -0.010(3) -0.003(4) 0.000(4)
C16 0.104(6) 0.048(5) 0.034(4) -0.002(3) -0.007(4) 0.002(4)
C17 0.164(12) 0.177(14) 0.034(5) 0.014(7) 0.003(7) -0.002(11)
C18 0.105(7) 0.075(6) 0.044(5) 0.006(4) -0.002(5) 0.011(5)
C19 0.100(7) 0.085(7) 0.079(7) 0.024(6) 0.023(6) 0.008(6)
C20 0.189(14) 0.149(12) 0.042(6) 0.014(6) -0.015(7) -0.049(10)
N2G 0.086 0.045 0.026 -0.009 0.005 -0.006
C12G 0.108 0.04 0.037 -0.008 0.012 -0.009
C13G 0.104 0.047 0.028 0.001 0.008 -0.008
C14G 0.096 0.048 0.026 -0.007 0.006 -0.004
C15G 0.104 0.043 0.039 -0.01 0.003 0
C16G 0.104 0.048 0.034 -0.002 0.007 -0.002
Cd1G 0.0816 0.0417 0.0272 -0.0036 0.0053 -0.0104
N1G 0.064 0.05 0.038 -0.005 0.006 -0.006
O1G 0.079 0.048 0.052 0.006 0.013 -0.009
O2G 0.108 0.055 0.088 0.011 0.025 0.001
O3G 0.082 0.045 0.037 -0.011 0.016 -0.011
O4G 0.093 0.051 0.034 -0.002 0 -0.004
O5G 0.117 0.049 0.03 0.005 -0.001 -0.013
C1G 0.078 0.044 0.039 0.001 0 -0.002
C2G 0.072 0.042 0.049 -0.002 0 -0.005
C3G 0.084 0.053 0.069 -0.003 0.025 0.009
C4G 0.106 0.058 0.11 -0.006 0.056 0.006
C5G 0.095 0.065 0.075 0.004 0.044 -0.003
C6G 0.072 0.048 0.041 0.008 0.011 -0.009
C7G 0.066 0.042 0.041 0.003 0.012 -0.006
C8G 0.078 0.052 0.035 -0.007 0.004 -0.014
C9G 0.076 0.063 0.031 0 0.005 -0.013
C10G 0.083 0.071 0.038 0.003 0.001 0.002
C11G 0.123 0.121 0.033 0.003 0.005 0.031
C17G 0.164 0.177 0.034 0.014 -0.003 0.002
C18G 0.105 0.075 0.044 0.006 0.002 -0.011
C19G 0.1 0.085 0.079 0.024 -0.023 -0.008
C20G 0.189 0.149 0.042 0.014 0.015 0.049
Cd1J 0.0816 0.0417 0.0272 0.0036 -0.0053 -0.0104
Cd1M 0.0816 0.0417 0.0272 0.0036 0.0053 0.0104
Cd1T 0.0816 0.0417 0.0272 -0.0036 -0.0053 0.0104
Cd1W 0.0816 0.0417 0.0272 -0.0036 0.0053 -0.0104
O1T 0.079 0.048 0.052 0.006 -0.013 0.009
O1W 0.079 0.048 0.052 0.006 0.013 -0.009
O4J 0.093 0.051 0.034 0.002 0 -0.004
O4M 0.093 0.051 0.034 0.002 0 0.004
O5J 0.117 0.049 0.03 -0.005 0.001 -0.013
O5M 0.117 0.049 0.03 -0.005 -0.001 0.013
loop_
_geom_bond_atom_site_label_1
_geom_bond_atom_site_label_2
_geom_bond_site_symmetry_1
_geom_bond_site_symmetry_2
Cd1 N2 1_555 1_555
N1 O3 1_555 1_555
N2 C12 1_555 1_555
O1 Cd1 1_555 1_555
O2 C1 1_555 1_555
O3 Cd1 1_555 1_555
O4 C7 1_555 1_555
O5 C9 1_555 1_555
C1 O1 1_555 1_555
C2 N1 1_555 1_555
C3 C2 1_555 1_555
H1 C3 1_555 1_555
C4 C3 1_555 1_555
H2 C4 1_555 1_555
C5 C4 1_555 1_555
H3 C5 1_555 1_555
C6 N1 1_555 1_555
C7 C6 1_555 1_555
C8 C7 1_555 1_555
H4 C8 1_555 1_555
C9 C8 1_555 1_555
C10 C9 1_555 1_555
C11 C10 1_555 1_555
H5 C11 1_555 1_555
C12 H6 1_555 1_555
C13 C12 1_555 1_555
H7 C13 1_555 1_555
C14 C13 1_555 1_555
C15 C14 1_555 1_555
H8 C15 1_555 1_555
C16 N2 1_555 1_555
H9 C16 1_555 1_555
C17 H10 1_555 1_555
C18 C10 1_555 1_555
H11 C18 1_555 1_555
C19 C17 1_555 1_555
H12 C19 1_555 1_555
C20 C11 1_555 1_555
H13 C20 1_555 1_555
C21 O6 1_555 1_555
N2G C12G 1_555 1_555
C12G H6G 1_555 1_555
C13G C12G 1_555 1_555
H7G C13G 1_555 1_555
C14G C14 1_555 1_555
C15G C14G 1_555 1_555
H8G C15G 1_555 1_555
C16G N2G 1_555 1_555
H9G C16G 1_555 1_555
Cd1G N2G 1_555 1_555
N1G O3G 1_555 1_555
O1G Cd1G 1_555 1_555
O2G C1G 1_555 1_555
O3G Cd1G 1_555 1_555
O4G C7G 1_555 1_555
O5G C9G 1_555 1_555
C1G O1G 1_555 1_555
C2G N1G 1_555 1_555
C3G C2G 1_555 1_555
H1G C3G 1_555 1_555
C4G C3G 1_555 1_555
H2G C4G 1_555 1_555
C5G C4G 1_555 1_555
H3G C5G 1_555 1_555
C6G N1G 1_555 1_555
C7G C6G 1_555 1_555
C8G C7G 1_555 1_555
H4G C8G 1_555 1_555
C9G C8G 1_555 1_555
C10G C9G 1_555 1_555
C11G C10G 1_555 1_555
H5G C11G 1_555 1_555
C17G H10G 1_555 1_555
C18G C10G 1_555 1_555
H11G C18G 1_555 1_555
C19G C17G 1_555 1_555
H12G C19G 1_555 1_555
C20G C11G 1_555 1_555
H13G C20G 1_555 1_555
Cd1J O4G 1_555 1_555
Cd1M O4 1_555 1_555
Cd1T O1 1_555 1_555
Cd1W O1G 1_555 1_555
O1T Cd1 1_555 1_555
O1W Cd1G 1_555 1_555
O4J Cd1G 1_555 1_555
O4M Cd1 1_555 1_555
O5J Cd1G 1_555 1_555
O5M Cd1 1_555 1_555
O5 Cd1M 1_555 1_555
C1 C2 1_555 1_555
C5 C6 1_555 1_555
C15 C16 1_555 1_555
C17 C20 1_555 1_555
C18 C19 1_555 1_555
C13G C14G 1_555 1_555
C15G C16G 1_555 1_555
O5G Cd1J 1_555 1_555
C1G C2G 1_555 1_555
C5G C6G 1_555 1_555
C17G C20G 1_555 1_555
C18G C19G 1_555 1_555
Cd1T O1T 1_555 1_555
Cd1W O1W 1_555 1_555

#END
