
#######################################################################
#
#                 Cambridge Crystallographic Data Centre
#                                CCDC 
#
#######################################################################
#
# If this CIF has been generated from an entry in the Cambridge 
# Structural Database, then it will include bibliographic, chemical, 
# crystal, experimental, refinement or atomic coordinate data resulting 
# from the CCDC's data processing and validation procedures.
#
#######################################################################

data_FUVDEH02
_chemical_formula_moiety         '(C18 H14 N2 O4 Zn1)n'
_symmetry_cell_setting           tetragonal
_symmetry_space_group_name_H-M   'I -4'
_symmetry_Int_Tables_number      82
_space_group_name_Hall           'I -4'
loop_
_symmetry_equiv_pos_site_id
_symmetry_equiv_pos_as_xyz
1 x,y,z
2 -x,-y,z
3 y,-x,-z
4 -y,x,-z
5 1/2+x,1/2+y,1/2+z
6 1/2-x,1/2-y,1/2+z
7 1/2+y,1/2-x,1/2-z
8 1/2-y,1/2+x,1/2-z
_cell_length_a                   26.564(5)
_cell_length_b                   26.564(5)
_cell_length_c                   5.0240(6)
_cell_angle_alpha                90
_cell_angle_beta                 90
_cell_angle_gamma                90
_cell_volume                     3545.17
loop_
_atom_site_label
_atom_site_type_symbol
_atom_site_fract_x
_atom_site_fract_y
_atom_site_fract_z
_atom_site_U_iso_or_equiv
_atom_site_thermal_displace_type
Zn1 Zn 0.27318(11) 0.21387(9) 0.9055(6) 0.0803 Uani
O1 O 0.2196(7) 0.2534(6) 1.078(3) 0.0953 Uani
H1 H 0.1986 0.2645 0.9643 0.1420 Uiso
N1 N 0.2571(7) 0.1407(6) 0.894(3) 0.1013 Uani
C1 C 0.2710(6) 0.1030(5) 1.044(3) 0.0823 Uani
H2 H 0.2968 0.1049 1.1687 0.0980 Uiso
N2 N 0.2436(5) 0.0608(5) 0.997(2) 0.0870 Uani
C2 C 0.2140(4) 0.1202(6) 0.725(2) 0.0963 Uani
O2 O 0.2765(7) -0.1659(6) 1.377(4) 0.0990 Uani
C3 C 0.1843(5) 0.1422(5) 0.531(3) 0.0927 Uani
H3 H 0.1891 0.1757 0.4834 0.1110 Uiso
O3 O 0.3120(16) -0.1226(15) 1.687(7) 0.1080 Uani
C4 C 0.1475(4) 0.1137(6) 0.409(2) 0.0720 Uani
C5 C 0.1173(5) 0.1347(5) 0.214(3) 0.0927 Uani
H4 H 0.1225 0.1682 0.1682 0.1110 Uiso
C6 C 0.0799(5) 0.1082(7) 0.086(2) 0.0883 Uani
H5 H 0.0599 0.1227 -0.0453 0.1060 Uiso
C7 C 0.0743(4) 0.0588(7) 0.164(2) 0.0997 Uani
H6 H 0.0496 0.0391 0.0833 0.1200 Uiso
C8 C 0.1044(5) 0.0379(6) 0.358(2) 0.0873 Uani
H7 H 0.0992 0.0044 0.4044 0.1050 Uiso
C9 C 0.1419(4) 0.0643(6) 0.4867(18) 0.0810 Uani
C10 C 0.1714(5) 0.0421(6) 0.681(2) 0.0863 Uani
H8 H 0.1673 0.0084 0.7253 0.1030 Uiso
C11 C 0.2070(7) 0.0713(6) 0.808(4) 0.0847 Uani
C12 C 0.2578(4) 0.0131(5) 1.116(3) 0.0823 Uani
C13 C 0.2843(7) -0.0773(5) 1.333(3) 0.1003 Uani
C14 C 0.2803(7) 0.0111(4) 1.364(3) 0.1010 Uani
H9 H 0.2863 0.0409 1.4556 0.1200 Uiso
C15 C 0.2939(7) -0.0340(6) 1.477(3) 0.0617 Uani
H10 H 0.3089 -0.0353 1.6439 0.0740 Uiso
C16 C 0.2619(11) -0.0770(5) 1.086(4) 0.1023 Uani
H11 H 0.2558 -0.1068 0.9941 0.1220 Uiso
C17 C 0.2490(9) -0.0310(6) 0.980(3) 0.0910 Uani
H12 H 0.2340 -0.0297 0.8125 0.1110 Uiso
C18 C 0.3022(15) -0.1275(6) 1.441(6) 0.1153 Uani
Zn1E Zn 0.22682(11) 0.28613(9) 1.4055(6) 0.0803 Uani
Zn1G Zn 0.28613(9) -0.22682(11) 1.5945(6) 0.0803 Uani
O1E O 0.2804(7) 0.2466(6) 0.578(3) 0.0953 Uani
O2F O 0.3341(6) 0.2235(7) 1.123(4) 0.0990 Uani
O5 O 0.348(3) 0.098(3) 1.553(13) 0.4800 Uiso
H17 H 0.3434 0.1118 1.7034 0.5710 Uiso
H18 H 0.3690 0.1158 1.4676 0.5710 Uiso
loop_
_atom_site_aniso_label
_atom_site_aniso_U_11
_atom_site_aniso_U_22
_atom_site_aniso_U_33
_atom_site_aniso_U_23
_atom_site_aniso_U_13
_atom_site_aniso_U_12
Zn1 0.0610(15) 0.0519(13) 0.128(2) -0.0078(14) -0.0140(14) 0.010(4)
O1 0.105(10) 0.073(7) 0.108(7) 0.012(9) 0.034(9) -0.011(13)
N1 0.118(17) 0.064(6) 0.122(11) 0.022(8) -0.038(11) -0.008(10)
C1 0.084(11) 0.050(6) 0.113(10) 0.006(8) -0.020(9) -0.003(10)
N2 0.093(14) 0.052(6) 0.116(12) 0.010(7) -0.022(9) -0.013(11)
C2 0.083(17) 0.062(10) 0.144(18) 0.005(12) -0.032(11) 0.005(15)
O2 0.070(10) 0.062(7) 0.165(12) -0.011(10) -0.022(11) 0.005(16)
C3 0.090(14) 0.069(10) 0.119(13) 0.001(10) -0.024(10) -0.002(13)
O3 0.090(14) 0.098(13) 0.136(13) -0.002(12) -0.032(13) 0.003(14)
C4 0.071(8) 0.066(6) 0.079(7) -0.009(7) 0.001(6) 0.004(8)
C5 0.101(11) 0.075(9) 0.102(10) -0.013(8) -0.019(8) 0.014(11)
C6 0.099(11) 0.070(8) 0.096(9) -0.029(8) -0.022(9) 0.027(12)
C7 0.095(14) 0.108(12) 0.096(11) 0.023(12) -0.022(10) -0.015(16)
C8 0.093(14) 0.074(10) 0.095(11) -0.009(10) -0.024(10) -0.002(14)
C9 0.100(14) 0.064(8) 0.079(10) -0.013(7) -0.015(9) -0.002(13)
C10 0.071(9) 0.087(9) 0.101(10) 0.019(9) -0.014(7) -0.016(10)
C11 0.097(17) 0.047(8) 0.110(15) -0.025(8) -0.021(10) 0.019(12)
C12 0.069(11) 0.048(6) 0.130(13) 0.010(8) -0.005(14) 0.003(12)
C13 0.086(12) 0.062(6) 0.153(15) -0.006(9) -0.037(15) -0.008(12)
C14 0.10(3) 0.069(10) 0.134(18) 0.013(14) -0.019(19) 0.01(2)
C15 0.037(14) 0.061(10) 0.087(14) 0.013(10) 0.008(12) -0.02(2)
C16 0.14(3) 0.052(10) 0.115(18) -0.005(14) -0.023(19) 0.01(2)
C17 0.09(3) 0.056(9) 0.127(18) 0.007(12) 0.002(18) 0.00(2)
C18 0.13(2) 0.068(8) 0.148(13) 0.009(13) -0.07(2) -0.012(14)
Zn1E 0.061 0.0519 0.128 0.0078 0.014 0.01
Zn1G 0.0519 0.061 0.128 0.014 -0.0078 -0.01
O1E 0.105 0.073 0.108 -0.012 -0.034 -0.011
O2F 0.062 0.07 0.165 -0.022 0.011 -0.005
loop_
_geom_bond_atom_site_label_1
_geom_bond_atom_site_label_2
_geom_bond_site_symmetry_1
_geom_bond_site_symmetry_2
Zn1 O1 1_555 1_555
O1 H1 1_555 1_555
N1 Zn1 1_555 1_555
C1 N1 1_555 1_555
H2 C1 1_555 1_555
N2 C1 1_555 1_555
C2 N1 1_555 1_555
O2 C18 1_555 1_555
C3 C2 1_555 1_555
H3 C3 1_555 1_555
O3 C18 1_555 1_555
C4 C3 1_555 1_555
C5 C4 1_555 1_555
H4 C5 1_555 1_555
C6 C5 1_555 1_555
H5 C6 1_555 1_555
C7 C6 1_555 1_555
H6 C7 1_555 1_555
C8 C7 1_555 1_555
H7 C8 1_555 1_555
C9 C4 1_555 1_555
C10 C9 1_555 1_555
H8 C10 1_555 1_555
C11 N2 1_555 1_555
C12 N2 1_555 1_555
C13 C15 1_555 1_555
C14 C12 1_555 1_555
H9 C14 1_555 1_555
C15 C14 1_555 1_555
H10 C15 1_555 1_555
C16 C13 1_555 1_555
H11 C16 1_555 1_555
C17 C12 1_555 1_555
H12 C17 1_555 1_555
C18 C13 1_555 1_555
O5 H17 1_555 1_555
H18 O5 1_555 1_555
Zn1E O1 1_555 1_555
Zn1G O2 1_555 1_555
O1E Zn1 1_555 1_555
O2F Zn1 1_555 1_555
C2 C11 1_555 1_555
C8 C9 1_555 1_555
C10 C11 1_555 1_555
C16 C17 1_555 1_555

#END
