
#######################################################################
#
#                 Cambridge Crystallographic Data Centre
#                                CCDC 
#
#######################################################################
#
# If this CIF has been generated from an entry in the Cambridge 
# Structural Database, then it will include bibliographic, chemical, 
# crystal, experimental, refinement or atomic coordinate data resulting 
# from the CCDC's data processing and validation procedures.
#
#######################################################################

data_FUVDEH04
_chemical_formula_moiety         '(C18 H14 N2 O4 Zn1)n'
_symmetry_cell_setting           tetragonal
_symmetry_space_group_name_H-M   'I -4'
_symmetry_Int_Tables_number      82
_space_group_name_Hall           'I -4'
loop_
_symmetry_equiv_pos_site_id
_symmetry_equiv_pos_as_xyz
1 x,y,z
2 -x,-y,z
3 y,-x,-z
4 -y,x,-z
5 1/2+x,1/2+y,1/2+z
6 1/2-x,1/2-y,1/2+z
7 1/2+y,1/2-x,1/2-z
8 1/2-y,1/2+x,1/2-z
_cell_length_a                   26.684(7)
_cell_length_b                   26.684(7)
_cell_length_c                   4.701(3)
_cell_angle_alpha                90
_cell_angle_beta                 90
_cell_angle_gamma                90
_cell_volume                     3347.28
loop_
_atom_site_label
_atom_site_type_symbol
_atom_site_fract_x
_atom_site_fract_y
_atom_site_fract_z
_atom_site_U_iso_or_equiv
_atom_site_thermal_displace_type
Zn1 Zn 0.27505(15) 0.21360(16) 0.8864(17) 0.1800 Uani
O1 O 0.2135(10) 0.2485(10) 1.039(4) 0.1577 Uani
H1 H 0.1923 0.2598 0.9249 0.2370 Uiso
N1 N 0.2517(8) 0.1442(7) 0.857(5) 0.1380 Uani
C1 C 0.2697(9) 0.1089(8) 1.019(5) 0.1563 Uani
H2 H 0.2967 0.1142 1.1396 0.1870 Uiso
N2 N 0.2464(5) 0.0637(9) 1.000(3) 0.1577 Uani
C2 C 0.2154(5) 0.1231(7) 0.725(3) 0.1447 Uani
O2 O 0.2714(8) -0.1600(6) 1.415(5) 0.1830 Uani
C3 C 0.1844(7) 0.1456(7) 0.527(3) 0.1327 Uani
H3 H 0.1888 0.1791 0.4789 0.1590 Uiso
O3 O 0.3021(17) -0.1340(14) 1.762(6) 0.1630 Uani
C4 C 0.1468(6) 0.1177(10) 0.403(3) 0.1510 Uani
C5 C 0.1152(7) 0.1387(8) 0.204(3) 0.1593 Uani
H4 H 0.1198 0.1722 0.1543 0.1910 Uiso
C6 C 0.0770(6) 0.1124(12) 0.074(4) 0.1630 Uani
H5 H 0.0561 0.1274 -0.0594 0.1950 Uiso
C7 C 0.0710(5) 0.0627(12) 0.151(4) 0.1560 Uani
H6 H 0.0457 0.0436 0.0695 0.1880 Uiso
C8 C 0.1027(6) 0.0415(9) 0.349(4) 0.1460 Uani
H7 H 0.0982 0.0079 0.3973 0.1750 Uiso
C9 C 0.1409(4) 0.0680(9) 0.480(3) 0.1407 Uani
C10 C 0.1717(7) 0.0457(8) 0.676(4) 0.1443 Uani
H8 H 0.1673 0.0122 0.7252 0.1730 Uiso
C11 C 0.2093(5) 0.0736(6) 0.800(3) 0.1453 Uani
C12 C 0.2580(5) 0.0172(8) 1.125(5) 0.1507 Uani
C13 C 0.2801(7) -0.0733(7) 1.359(5) 0.1507 Uani
C14 C 0.3058(5) 0.0079(8) 1.219(7) 0.1507 Uani
H9 H 0.3301 0.0327 1.2009 0.1810 Uiso
C15 C 0.3186(6) -0.0380(9) 1.340(7) 0.1507 Uani
H10 H 0.3508 -0.0447 1.4045 0.1810 Uiso
C16 C 0.2304(7) -0.0677(7) 1.271(7) 0.1507 Uani
H11 H 0.2061 -0.0924 1.2875 0.1810 Uiso
C17 C 0.2220(5) -0.0204(9) 1.153(6) 0.1507 Uani
H12 H 0.1898 -0.0133 1.0893 0.1810 Uiso
C18 C 0.2927(8) -0.1229(6) 1.498(5) 0.1443 Uani
Zn1E Zn 0.22495(15) 0.28640(16) 1.3864(17) 0.1800 Uani
Zn1G Zn 0.28640(16) -0.22495(15) 1.6136(17) 0.1800 Uani
O1E O 0.2865(10) 0.2515(10) 0.539(4) 0.1577 Uani
O2F O 0.3400(6) 0.2286(8) 1.085(5) 0.1830 Uani
O4 O 0.441(8) -0.102(7) 0.95(3) 0.8700 Uiso
H13 H 0.4186 -0.1191 1.0273 1.0470 Uiso
H14 H 0.4403 -0.0761 0.8204 1.0470 Uiso
loop_
_atom_site_aniso_label
_atom_site_aniso_U_11
_atom_site_aniso_U_22
_atom_site_aniso_U_33
_atom_site_aniso_U_23
_atom_site_aniso_U_13
_atom_site_aniso_U_12
Zn1 0.061(3) 0.069(2) 0.410(9) -0.029(4) -0.018(3) 0.010(6)
O1 0.136(15) 0.137(13) 0.200(15) 0.010(14) 0.045(13) 0.012(14)
N1 0.076(14) 0.111(8) 0.227(17) 0.009(11) 0.000(12) -0.020(10)
C1 0.16(2) 0.089(10) 0.22(2) -0.025(14) -0.048(18) 0.000(16)
N2 0.121(17) 0.125(8) 0.227(18) 0.028(11) -0.026(13) -0.028(11)
C2 0.129(17) 0.089(10) 0.216(18) -0.018(12) -0.030(13) -0.005(12)
O2 0.163(17) 0.134(10) 0.252(14) 0.020(13) 0.000(15) -0.019(15)
C3 0.143(11) 0.126(10) 0.129(11) 0.000(8) 0.010(8) -0.009(8)
O3 0.122(13) 0.183(18) 0.184(12) 0.050(12) 0.019(13) -0.003(14)
C4 0.140(11) 0.142(11) 0.171(11) 0.011(9) -0.011(8) -0.009(9)
C5 0.174(18) 0.152(15) 0.152(16) -0.008(13) -0.017(13) 0.011(13)
C6 0.160(12) 0.155(12) 0.174(12) 0.003(9) -0.012(8) 0.002(9)
C7 0.102(16) 0.146(16) 0.22(2) 0.015(19) -0.001(14) 0.031(19)
C8 0.151(17) 0.148(14) 0.139(16) 0.005(14) -0.008(12) -0.017(13)
C9 0.079(15) 0.133(15) 0.21(2) 0.008(17) 0.009(12) -0.001(16)
C10 0.143(17) 0.106(12) 0.184(18) -0.009(13) -0.018(13) -0.019(13)
C11 0.135(17) 0.105(11) 0.196(18) 0.000(13) -0.021(12) -0.020(12)
C12 0.141(10) 0.124(6) 0.187(10) 0.010(7) -0.007(8) -0.007(8)
C13 0.141(10) 0.124(6) 0.187(10) 0.010(7) -0.007(8) -0.007(8)
C14 0.141(10) 0.124(6) 0.187(10) 0.010(7) -0.007(8) -0.007(8)
C15 0.141(10) 0.124(6) 0.187(10) 0.010(7) -0.007(8) -0.007(8)
C16 0.141(10) 0.124(6) 0.187(10) 0.010(7) -0.007(8) -0.007(8)
C17 0.141(10) 0.124(6) 0.187(10) 0.010(7) -0.007(8) -0.007(8)
C18 0.138(11) 0.132(8) 0.163(10) 0.001(7) 0.000(8) 0.002(8)
Zn1E 0.061 0.069 0.41 0.029 0.018 0.01
Zn1G 0.069 0.061 0.41 0.018 -0.029 -0.01
O1E 0.136 0.137 0.2 -0.01 -0.045 0.012
O2F 0.134 0.163 0.252 0 -0.02 0.019
loop_
_geom_bond_atom_site_label_1
_geom_bond_atom_site_label_2
_geom_bond_site_symmetry_1
_geom_bond_site_symmetry_2
Zn1 O1 1_555 1_555
O1 H1 1_555 1_555
N1 Zn1 1_555 1_555
C1 N1 1_555 1_555
H2 C1 1_555 1_555
N2 C1 1_555 1_555
C2 N1 1_555 1_555
O2 C18 1_555 1_555
C3 C2 1_555 1_555
H3 C3 1_555 1_555
O3 C18 1_555 1_555
C4 C3 1_555 1_555
C5 C4 1_555 1_555
H4 C5 1_555 1_555
C6 C5 1_555 1_555
H5 C6 1_555 1_555
C7 C6 1_555 1_555
H6 C7 1_555 1_555
C8 C7 1_555 1_555
H7 C8 1_555 1_555
C9 C4 1_555 1_555
C10 C9 1_555 1_555
H8 C10 1_555 1_555
C11 N2 1_555 1_555
C12 N2 1_555 1_555
C13 C15 1_555 1_555
C14 C12 1_555 1_555
H9 C14 1_555 1_555
C15 C14 1_555 1_555
H10 C15 1_555 1_555
C16 C13 1_555 1_555
H11 C16 1_555 1_555
C17 C12 1_555 1_555
H12 C17 1_555 1_555
C18 C13 1_555 1_555
O4 H13 1_555 1_555
H14 O4 1_555 1_555
Zn1E O1 1_555 1_555
Zn1G O2 1_555 1_555
O1E Zn1 1_555 1_555
O2F Zn1 1_555 1_555
C2 C11 1_555 1_555
C8 C9 1_555 1_555
C10 C11 1_555 1_555
C16 C17 1_555 1_555

#END
