
#######################################################################
#
#                 Cambridge Crystallographic Data Centre
#                                CCDC 
#
#######################################################################
#
# If this CIF has been generated from an entry in the Cambridge 
# Structural Database, then it will include bibliographic, chemical, 
# crystal, experimental, refinement or atomic coordinate data resulting 
# from the CCDC's data processing and validation procedures.
#
#######################################################################

data_FUVDEH09
_chemical_formula_moiety         '(C18 H14 N2 O4 Zn1)n'
_symmetry_cell_setting           tetragonal
_symmetry_space_group_name_H-M   'I -4'
_symmetry_Int_Tables_number      82
_space_group_name_Hall           'I -4'
loop_
_symmetry_equiv_pos_site_id
_symmetry_equiv_pos_as_xyz
1 x,y,z
2 -x,-y,z
3 y,-x,-z
4 -y,x,-z
5 1/2+x,1/2+y,1/2+z
6 1/2-x,1/2-y,1/2+z
7 1/2+y,1/2-x,1/2-z
8 1/2-y,1/2+x,1/2-z
_cell_length_a                   26.5634(7)
_cell_length_b                   26.5634(7)
_cell_length_c                   5.1954(2)
_cell_angle_alpha                90
_cell_angle_beta                 90
_cell_angle_gamma                90
_cell_volume                     3665.95
loop_
_atom_site_label
_atom_site_type_symbol
_atom_site_fract_x
_atom_site_fract_y
_atom_site_fract_z
_atom_site_U_iso_or_equiv
_atom_site_thermal_displace_type
Zn1 Zn 0.27245(6) 0.21432(6) 0.9223(3) 0.0374 Uani
O1 O 0.2228(4) 0.2538(5) 1.0945(19) 0.0530 Uani
H1 H 0.2020 0.2648 0.9823 0.0790 Uiso
N1 N 0.2542(5) 0.1431(4) 0.907(2) 0.0473 Uani
C1 C 0.2681(4) 0.1042(3) 1.0426(19) 0.0473 Uani
H2 H 0.2934 0.1065 1.1657 0.0570 Uiso
N2 N 0.2437(3) 0.0602(4) 0.9956(14) 0.0380 Uani
C2 C 0.2139(3) 0.1205(4) 0.7457(13) 0.0430 Uani
O2 O 0.2785(6) -0.1674(4) 1.365(2) 0.0583 Uani
C3 C 0.1845(4) 0.1437(4) 0.5611(16) 0.0560 Uani
H3 H 0.1886 0.1777 0.5239 0.0670 Uiso
O3 O 0.3203(11) -0.1263(11) 1.665(5) 0.0757 Uani
C4 C 0.1487(3) 0.1151(4) 0.4324(15) 0.0620 Uani
C5 C 0.1185(4) 0.1361(4) 0.2445(18) 0.0660 Uani
H4 H 0.1224 0.1700 0.2042 0.0790 Uiso
C6 C 0.0823(4) 0.1081(6) 0.1138(18) 0.0707 Uani
H5 H 0.0623 0.1229 -0.0117 0.0850 Uiso
C7 C 0.0769(3) 0.0574(6) 0.1746(17) 0.0640 Uani
H6 H 0.0530 0.0379 0.0899 0.0770 Uiso
C8 C 0.1073(4) 0.0361(5) 0.3622(19) 0.0573 Uani
H7 H 0.1035 0.0022 0.4016 0.0690 Uiso
C9 C 0.1433(3) 0.0642(4) 0.4932(13) 0.0463 Uani
C10 C 0.1724(4) 0.0404(4) 0.6804(16) 0.0453 Uani
H8 H 0.1682 0.0065 0.7190 0.0550 Uiso
C11 C 0.2079(4) 0.0698(4) 0.807(2) 0.0383 Uani
C12 C 0.2580(3) 0.0123(4) 1.103(2) 0.0510 Uani
C13 C 0.2857(5) -0.0777(4) 1.317(2) 0.0510 Uani
C14 C 0.3076(3) 0.0043(4) 1.164(3) 0.0510 Uani
H9 H 0.3312 0.0294 1.1322 0.0610 Uiso
C15 C 0.3230(4) -0.0414(5) 1.273(3) 0.0510 Uani
H10 H 0.3566 -0.0473 1.3147 0.0610 Uiso
C16 C 0.2343(5) -0.0724(4) 1.258(3) 0.0510 Uani
H11 H 0.2105 -0.0974 1.2872 0.0610 Uiso
C17 C 0.2231(3) -0.0254(5) 1.151(3) 0.0510 Uani
H12 H 0.1897 -0.0190 1.1089 0.0610 Uiso
C18 C 0.2987(10) -0.1273(5) 1.443(5) 0.0807 Uani
Zn1E Zn 0.22755(6) 0.28568(6) 1.4223(3) 0.0374 Uani
Zn1G Zn 0.28568(6) -0.22755(6) 1.5777(3) 0.0374 Uani
O1E O 0.2772(4) 0.2462(5) 0.5945(19) 0.0530 Uani
O2F O 0.3326(4) 0.2215(6) 1.135(2) 0.0583 Uani
O5 O 0.3456(13) 0.1015(13) 1.548(6) 0.2230 Uiso
H17 H 0.3469 0.1305 1.4780 0.2680 Uiso
H18 H 0.3626 0.0891 1.6731 0.2680 Uiso
loop_
_atom_site_aniso_label
_atom_site_aniso_U_11
_atom_site_aniso_U_22
_atom_site_aniso_U_33
_atom_site_aniso_U_23
_atom_site_aniso_U_13
_atom_site_aniso_U_12
Zn1 0.0372(10) 0.0311(9) 0.0438(7) -0.0020(7) -0.0057(7) -0.009(2)
O1 0.044(5) 0.064(7) 0.051(4) -0.010(6) -0.008(5) -0.008(10)
N1 0.055(8) 0.034(4) 0.053(6) 0.008(5) -0.014(6) -0.017(8)
C1 0.040(6) 0.037(5) 0.065(6) -0.006(5) -0.029(6) -0.010(7)
N2 0.015(5) 0.032(4) 0.067(6) 0.001(5) -0.007(4) -0.016(7)
C2 0.035(9) 0.027(5) 0.067(8) 0.001(6) -0.013(6) -0.006(9)
O2 0.074(9) 0.042(5) 0.059(6) 0.007(5) -0.009(6) -0.012(11)
C3 0.058(9) 0.052(8) 0.058(7) 0.023(8) -0.019(7) -0.027(11)
O3 0.075(10) 0.070(10) 0.082(10) 0.006(9) -0.042(9) -0.008(11)
C4 0.093(13) 0.037(6) 0.056(7) -0.011(6) -0.031(8) 0.004(11)
C5 0.089(13) 0.053(8) 0.056(8) -0.006(7) -0.035(8) -0.010(14)
C6 0.076(11) 0.071(9) 0.065(9) -0.004(8) -0.022(8) -0.009(15)
C7 0.050(9) 0.068(9) 0.074(9) -0.018(9) -0.032(7) -0.017(14)
C8 0.056(10) 0.043(7) 0.073(9) -0.029(7) -0.017(7) 0.012(12)
C9 0.019(6) 0.049(7) 0.071(8) -0.004(7) -0.008(5) -0.007(11)
C10 0.050(9) 0.025(6) 0.061(7) -0.010(6) -0.011(6) -0.005(10)
C11 0.020(6) 0.040(6) 0.055(7) 0.007(7) -0.003(5) -0.015(9)
C12 0.053(4) 0.039(3) 0.061(4) -0.003(3) -0.020(4) -0.005(6)
C13 0.053(4) 0.039(3) 0.061(4) -0.003(3) -0.020(4) -0.005(6)
C14 0.053(4) 0.039(3) 0.061(4) -0.003(3) -0.020(4) -0.005(6)
C15 0.053(4) 0.039(3) 0.061(4) -0.003(3) -0.020(4) -0.005(6)
C16 0.053(4) 0.039(3) 0.061(4) -0.003(3) -0.020(4) -0.005(6)
C17 0.053(4) 0.039(3) 0.061(4) -0.003(3) -0.020(4) -0.005(6)
C18 0.094(12) 0.042(6) 0.106(12) 0.011(8) -0.068(13) -0.013(10)
Zn1E 0.0372 0.0311 0.0438 0.002 0.0057 -0.009
Zn1G 0.0311 0.0372 0.0438 0.0057 -0.002 0.009
O1E 0.044 0.064 0.051 0.01 0.008 -0.008
O2F 0.042 0.074 0.059 -0.009 -0.007 0.012
loop_
_geom_bond_atom_site_label_1
_geom_bond_atom_site_label_2
_geom_bond_site_symmetry_1
_geom_bond_site_symmetry_2
Zn1 O1 1_555 1_555
O1 H1 1_555 1_555
N1 Zn1 1_555 1_555
C1 N1 1_555 1_555
H2 C1 1_555 1_555
N2 C1 1_555 1_555
C2 N1 1_555 1_555
O2 C18 1_555 1_555
C3 C2 1_555 1_555
H3 C3 1_555 1_555
O3 C18 1_555 1_555
C4 C3 1_555 1_555
C5 C4 1_555 1_555
H4 C5 1_555 1_555
C6 C5 1_555 1_555
H5 C6 1_555 1_555
C7 C6 1_555 1_555
H6 C7 1_555 1_555
C8 C7 1_555 1_555
H7 C8 1_555 1_555
C9 C4 1_555 1_555
C10 C9 1_555 1_555
H8 C10 1_555 1_555
C11 N2 1_555 1_555
C12 N2 1_555 1_555
C13 C15 1_555 1_555
C14 C12 1_555 1_555
H9 C14 1_555 1_555
C15 C14 1_555 1_555
H10 C15 1_555 1_555
C16 C13 1_555 1_555
H11 C16 1_555 1_555
C17 C12 1_555 1_555
H12 C17 1_555 1_555
C18 C13 1_555 1_555
O5 H17 1_555 1_555
H18 O5 1_555 1_555
Zn1E O1 1_555 1_555
Zn1G O2 1_555 1_555
O1E Zn1 1_555 1_555
O2F Zn1 1_555 1_555
C2 C11 1_555 1_555
C8 C9 1_555 1_555
C10 C11 1_555 1_555
C16 C17 1_555 1_555

#END
