
#######################################################################
#
#                 Cambridge Crystallographic Data Centre
#                                CCDC 
#
#######################################################################
#
# If this CIF has been generated from an entry in the Cambridge 
# Structural Database, then it will include bibliographic, chemical, 
# crystal, experimental, refinement or atomic coordinate data resulting 
# from the CCDC's data processing and validation procedures.
#
#######################################################################

data_IFEPUG05
_chemical_formula_moiety         '(C19 H16 N2 O4 Zn1)n'
_symmetry_cell_setting           tetragonal
_symmetry_space_group_name_H-M   'I -4'
_symmetry_Int_Tables_number      82
_space_group_name_Hall           'I -4'
loop_
_symmetry_equiv_pos_site_id
_symmetry_equiv_pos_as_xyz
1 x,y,z
2 -x,-y,z
3 y,-x,-z
4 -y,x,-z
5 1/2+x,1/2+y,1/2+z
6 1/2-x,1/2-y,1/2+z
7 1/2+y,1/2-x,1/2-z
8 1/2-y,1/2+x,1/2-z
_cell_length_a                   26.1520(7)
_cell_length_b                   26.1520(7)
_cell_length_c                   5.1356(3)
_cell_angle_alpha                90
_cell_angle_beta                 90
_cell_angle_gamma                90
_cell_volume                     3512.38
loop_
_atom_site_label
_atom_site_type_symbol
_atom_site_fract_x
_atom_site_fract_y
_atom_site_fract_z
_atom_site_U_iso_or_equiv
_atom_site_thermal_displace_type
Zn1 Zn 0.27183(5) 0.21567(4) 0.8746(2) 0.0444 Uani
O1 O 0.2249(3) 0.2642(4) 1.0191(13) 0.0577 Uani
H1 H 0.2042 0.2752 0.9072 0.0690 Uiso
N1 N 0.2445(4) 0.1439(3) 0.9123(15) 0.0603 Uani
C1 C 0.2604(3) 0.1078(2) 1.0680(14) 0.0553 Uani
H2 H 0.2854 0.1127 1.1941 0.0660 Uiso
N2 N 0.2365(3) 0.0624(3) 1.0266(12) 0.0533 Uani
C2 C 0.2075(2) 0.1226(3) 0.7578(10) 0.0437 Uani
O2 O 0.2726(4) -0.1651(3) 1.4339(15) 0.0653 Uani
C3 C 0.1785(3) 0.1444(3) 0.5622(13) 0.0513 Uani
H3 H 0.1827 0.1786 0.5170 0.0620 Uiso
O3 O 0.3003(9) -0.1243(6) 1.773(3) 0.0853 Uani
C4 C 0.1428(2) 0.1139(3) 0.4346(11) 0.0457 Uani
C5 C 0.1135(3) 0.1339(3) 0.2352(13) 0.0593 Uani
H4 H 0.1179 0.1680 0.1893 0.0710 Uiso
C6 C 0.0777(3) 0.1048(3) 0.1013(14) 0.0593 Uani
H5 H 0.0581 0.1189 -0.0316 0.0710 Uiso
C7 C 0.0722(3) 0.0537(3) 0.1726(13) 0.0620 Uani
H6 H 0.0489 0.0333 0.0838 0.0750 Uiso
C8 C 0.1007(3) 0.0329(3) 0.3731(15) 0.0533 Uani
H7 H 0.0956 -0.0010 0.4206 0.0640 Uiso
C9 C 0.1372(2) 0.0624(3) 0.5061(11) 0.0440 Uani
C10 C 0.1665(3) 0.0407(3) 0.7034(13) 0.0480 Uani
H8 H 0.1631 0.0063 0.7467 0.0580 Uiso
C11 C 0.2006(3) 0.0719(3) 0.8329(17) 0.0453 Uani
C12 C 0.2495(3) 0.0155(3) 1.1457(16) 0.0603 Uani
C13 C 0.2758(4) -0.0749(3) 1.3825(19) 0.0603 Uani
C14 C 0.2704(5) 0.0149(3) 1.3930(18) 0.0603 Uani
H9 H 0.2756 0.0458 1.4786 0.0720 Uiso
C15 C 0.2837(6) -0.0299(3) 1.5168(18) 0.0603 Uani
H10 H 0.2975 -0.0298 1.6839 0.0720 Uiso
C16 C 0.2546(6) -0.0770(3) 1.138(2) 0.0603 Uani
H11 H 0.2491 -0.1081 1.0546 0.0720 Uiso
C17 C 0.2419(6) -0.0314(4) 1.0214(18) 0.0603 Uani
H12 H 0.2279 -0.0318 0.8551 0.0720 Uiso
C18 C 0.2886(9) -0.1247(4) 1.521(3) 0.0843 Uani
Zn1E Zn 0.22817(5) 0.28433(4) 1.3746(2) 0.0444 Uani
Zn1G Zn 0.28433(4) -0.22817(5) 1.6254(2) 0.0444 Uani
O1E O 0.2751(3) 0.2358(4) 0.5191(13) 0.0577 Uani
O2F O 0.3349(3) 0.2274(4) 1.0661(15) 0.0653 Uani
O5 O 0.3422(12) 0.1124(12) 1.515(4) 0.1930 Uiso
H17 H 0.3469 0.1396 1.5989 0.2310 Uiso
C23 C 0.3869(18) 0.115(2) 1.352(10) 0.2600 Uiso
H18 H 0.3860 0.1471 1.2665 0.3950 Uiso
H19 H 0.3856 0.0877 1.2244 0.3950 Uiso
H20 H 0.4179 0.1116 1.4511 0.3950 Uiso
loop_
_atom_site_aniso_label
_atom_site_aniso_U_11
_atom_site_aniso_U_22
_atom_site_aniso_U_33
_atom_site_aniso_U_23
_atom_site_aniso_U_13
_atom_site_aniso_U_12
Zn1 0.0422(7) 0.0365(6) 0.0544(5) -0.0004(5) -0.0051(6) -0.0047(14)
O1 0.047(4) 0.071(5) 0.055(3) -0.013(4) -0.018(3) 0.008(7)
N1 0.066(6) 0.046(4) 0.069(5) 0.018(4) -0.021(5) -0.029(7)
C1 0.049(6) 0.040(4) 0.077(7) 0.008(5) -0.012(5) -0.013(8)
N2 0.056(6) 0.033(3) 0.071(5) 0.014(4) -0.015(4) 0.000(7)
C2 0.044(6) 0.024(4) 0.063(5) -0.001(4) -0.011(4) -0.001(7)
O2 0.078(6) 0.036(3) 0.082(5) 0.004(3) -0.015(5) 0.000(8)
C3 0.045(6) 0.024(4) 0.085(7) 0.010(4) -0.014(5) -0.016(8)
O3 0.116(9) 0.047(6) 0.093(6) 0.003(6) -0.049(8) 0.015(9)
C4 0.033(5) 0.036(5) 0.068(6) 0.001(4) -0.014(4) -0.001(8)
C5 0.058(6) 0.046(6) 0.074(6) 0.001(5) -0.015(5) 0.008(10)
C6 0.061(7) 0.057(5) 0.060(5) -0.017(5) -0.016(6) 0.020(11)
C7 0.048(6) 0.052(6) 0.086(8) -0.016(6) -0.028(6) 0.027(10)
C8 0.055(6) 0.033(4) 0.072(5) -0.010(5) -0.014(5) -0.004(8)
C9 0.032(5) 0.036(5) 0.064(5) 0.006(4) -0.009(4) -0.017(8)
C10 0.044(5) 0.026(4) 0.074(6) -0.001(4) -0.007(4) 0.005(8)
C11 0.038(5) 0.033(4) 0.065(6) 0.005(4) -0.010(4) -0.005(7)
C12 0.075(4) 0.035(2) 0.071(3) 0.004(3) -0.024(4) 0.014(5)
C13 0.075(4) 0.035(2) 0.071(3) 0.004(3) -0.024(4) 0.014(5)
C14 0.075(4) 0.035(2) 0.071(3) 0.004(3) -0.024(4) 0.014(5)
C15 0.075(4) 0.035(2) 0.071(3) 0.004(3) -0.024(4) 0.014(5)
C16 0.075(4) 0.035(2) 0.071(3) 0.004(3) -0.024(4) 0.014(5)
C17 0.075(4) 0.035(2) 0.071(3) 0.004(3) -0.024(4) 0.014(5)
C18 0.120(10) 0.036(5) 0.097(7) 0.006(5) -0.059(9) 0.018(10)
Zn1E 0.0422 0.0365 0.0544 0.0004 0.0051 -0.0047
Zn1G 0.0365 0.0422 0.0544 0.0051 -0.0004 0.0047
O1E 0.047 0.071 0.055 0.013 0.018 0.008
O2F 0.036 0.078 0.082 -0.015 -0.004 0
loop_
_geom_bond_atom_site_label_1
_geom_bond_atom_site_label_2
_geom_bond_site_symmetry_1
_geom_bond_site_symmetry_2
Zn1 O1 1_555 1_555
O1 H1 1_555 1_555
N1 Zn1 1_555 1_555
C1 N1 1_555 1_555
H2 C1 1_555 1_555
N2 C1 1_555 1_555
C2 N1 1_555 1_555
O2 C18 1_555 1_555
C3 C2 1_555 1_555
H3 C3 1_555 1_555
O3 C18 1_555 1_555
C4 C3 1_555 1_555
C5 C4 1_555 1_555
H4 C5 1_555 1_555
C6 C5 1_555 1_555
H5 C6 1_555 1_555
C7 C6 1_555 1_555
H6 C7 1_555 1_555
C8 C7 1_555 1_555
H7 C8 1_555 1_555
C9 C4 1_555 1_555
C10 C9 1_555 1_555
H8 C10 1_555 1_555
C11 N2 1_555 1_555
C12 N2 1_555 1_555
C13 C15 1_555 1_555
C14 C12 1_555 1_555
H9 C14 1_555 1_555
C15 C14 1_555 1_555
H10 C15 1_555 1_555
C16 C13 1_555 1_555
H11 C16 1_555 1_555
C17 C12 1_555 1_555
H12 C17 1_555 1_555
C18 C13 1_555 1_555
O5 H17 1_555 1_555
C23 O5 1_555 1_555
H18 C23 1_555 1_555
H19 C23 1_555 1_555
H20 C23 1_555 1_555
Zn1E O1 1_555 1_555
Zn1G O2 1_555 1_555
O1E Zn1 1_555 1_555
O2F Zn1 1_555 1_555
C2 C11 1_555 1_555
C8 C9 1_555 1_555
C10 C11 1_555 1_555
C16 C17 1_555 1_555

#END
