
#######################################################################
#
#                 Cambridge Crystallographic Data Centre
#                                CCDC 
#
#######################################################################
#
# If this CIF has been generated from an entry in the Cambridge 
# Structural Database, then it will include bibliographic, chemical, 
# crystal, experimental, refinement or atomic coordinate data resulting 
# from the CCDC's data processing and validation procedures.
#
#######################################################################

data_IFEPUG08
_chemical_formula_moiety         '(C19 H16 N2 O4 Zn1)n'
_symmetry_cell_setting           tetragonal
_symmetry_space_group_name_H-M   'I -4'
_symmetry_Int_Tables_number      82
_space_group_name_Hall           'I -4'
loop_
_symmetry_equiv_pos_site_id
_symmetry_equiv_pos_as_xyz
1 x,y,z
2 -x,-y,z
3 y,-x,-z
4 -y,x,-z
5 1/2+x,1/2+y,1/2+z
6 1/2-x,1/2-y,1/2+z
7 1/2+y,1/2-x,1/2-z
8 1/2-y,1/2+x,1/2-z
_cell_length_a                   26.4210(11)
_cell_length_b                   26.4210(11)
_cell_length_c                   4.7117(5)
_cell_angle_alpha                90
_cell_angle_beta                 90
_cell_angle_gamma                90
_cell_volume                     3289.09
loop_
_atom_site_label
_atom_site_type_symbol
_atom_site_fract_x
_atom_site_fract_y
_atom_site_fract_z
_atom_site_U_iso_or_equiv
_atom_site_thermal_displace_type
Zn1 Zn 0.26939(9) 0.21578(8) 0.9146(4) 0.0534 Uani
O1 O 0.2291(4) 0.2737(5) 1.008(2) 0.0540 Uani
H1 H 0.2074 0.2852 0.8912 0.0650 Uiso
N1 N 0.2422(6) 0.1484(5) 0.977(3) 0.0560 Uani
C1 C 0.2553(5) 0.1099(4) 1.134(2) 0.0440 Uani
H2 H 0.2802 0.1132 1.2726 0.0530 Uiso
N2 N 0.2316(4) 0.0650(4) 1.0894(18) 0.0520 Uani
C2 C 0.2027(3) 0.1259(4) 0.7962(17) 0.0483 Uani
O2 O 0.2703(7) -0.1616(5) 1.463(4) 0.0843 Uani
C3 C 0.1737(4) 0.1473(4) 0.584(2) 0.0540 Uani
H3 H 0.1775 0.1812 0.5345 0.0650 Uiso
O3 O 0.3420(8) -0.1377(13) 1.459(7) 0.0970 Uani
C4 C 0.1385(3) 0.1167(4) 0.4451(18) 0.0420 Uani
C5 C 0.1092(4) 0.1372(4) 0.231(2) 0.0487 Uani
H4 H 0.1136 0.1711 0.1831 0.0580 Uiso
C6 C 0.0734(4) 0.1087(5) 0.085(2) 0.0570 Uani
H5 H 0.0538 0.1228 -0.0584 0.0680 Uiso
C7 C 0.0684(4) 0.0582(5) 0.1631(19) 0.0527 Uani
H6 H 0.0450 0.0380 0.0692 0.0630 Uiso
C8 C 0.0976(4) 0.0371(5) 0.378(2) 0.0613 Uani
H7 H 0.0932 0.0033 0.4258 0.0730 Uiso
C9 C 0.1334(3) 0.0660(4) 0.5238(16) 0.0337 Uani
C10 C 0.1628(4) 0.0441(5) 0.737(2) 0.0370 Uani
H8 H 0.1594 0.0102 0.7858 0.0440 Uiso
C11 C 0.1973(6) 0.0754(5) 0.874(3) 0.0557 Uani
C12 C 0.2459(3) 0.0179(4) 1.196(3) 0.0583 Uani
C13 C 0.2746(5) -0.0730(4) 1.416(3) 0.0583 Uani
C14 C 0.2954(4) 0.0113(4) 1.276(5) 0.0583 Uani
H9 H 0.3185 0.0377 1.2553 0.0700 Uiso
C15 C 0.3114(5) -0.0349(5) 1.390(5) 0.0583 Uani
H10 H 0.3448 -0.0402 1.4448 0.0700 Uiso
C16 C 0.2236(5) -0.0689(5) 1.338(5) 0.0583 Uani
H11 H 0.2003 -0.0950 1.3571 0.0700 Uiso
C17 C 0.2119(4) -0.0213(6) 1.228(4) 0.0583 Uani
H12 H 0.1786 -0.0155 1.1714 0.0700 Uiso
C18 C 0.2951(7) -0.1241(4) 1.506(5) 0.0913 Uani
Zn1E Zn 0.23061(9) 0.28422(8) 1.4146(4) 0.0534 Uani
Zn1G Zn 0.28422(8) -0.23061(9) 1.5854(4) 0.0534 Uani
O1E O 0.2709(4) 0.2263(5) 0.508(2) 0.0540 Uani
O2F O 0.3384(5) 0.2297(7) 1.037(4) 0.0843 Uani
O4 O 0.3374(11) 0.1120(10) 1.630(6) 0.1490 Uiso
H13 H 0.3405 0.1275 1.7877 0.2240 Uiso
C19 C 0.387(3) 0.091(6) 1.66(3) 0.5400 Uiso
H14 H 0.4115 0.1182 1.6493 0.8100 Uiso
H15 H 0.3937 0.0666 1.5184 0.8100 Uiso
H16 H 0.3908 0.0752 1.8472 0.8100 Uiso
loop_
_atom_site_aniso_label
_atom_site_aniso_U_11
_atom_site_aniso_U_22
_atom_site_aniso_U_33
_atom_site_aniso_U_23
_atom_site_aniso_U_13
_atom_site_aniso_U_12
Zn1 0.0432(14) 0.0344(11) 0.0827(13) 0.0040(11) -0.0009(11) -0.001(3)
O1 0.030(5) 0.053(6) 0.079(6) 0.012(6) 0.001(6) 0.012(9)
N1 0.056(9) 0.044(6) 0.068(8) 0.003(6) 0.013(7) -0.012(10)
C1 0.032(7) 0.051(6) 0.049(7) 0.010(6) 0.011(5) -0.020(9)
N2 0.044(9) 0.043(5) 0.069(7) 0.007(6) -0.011(7) -0.008(8)
C2 0.027(9) 0.038(8) 0.080(10) 0.009(8) 0.005(6) 0.004(11)
O2 0.086(10) 0.041(6) 0.126(10) 0.029(7) -0.033(10) 0.006(12)
C3 0.049(9) 0.032(7) 0.081(9) 0.012(8) 0.001(7) -0.010(11)
O3 0.091(8) 0.071(10) 0.129(9) 0.016(8) -0.039(9) 0.016(9)
C4 0.032(8) 0.031(7) 0.063(8) 0.006(7) 0.002(6) 0.011(10)
C5 0.043(8) 0.041(8) 0.062(8) -0.003(7) -0.003(6) 0.015(11)
C6 0.056(10) 0.056(8) 0.059(8) -0.010(8) -0.003(8) -0.001(13)
C7 0.044(10) 0.052(9) 0.062(9) -0.024(8) -0.010(7) 0.008(15)
C8 0.055(10) 0.052(9) 0.077(11) -0.012(9) -0.012(8) -0.002(14)
C9 0.028(8) 0.024(6) 0.049(7) -0.010(6) 0.003(5) 0.012(11)
C10 0.029(7) 0.029(6) 0.053(7) -0.004(6) 0.003(5) 0.015(9)
C11 0.052(12) 0.035(7) 0.080(11) 0.001(8) -0.025(9) 0.006(11)
C12 0.037(5) 0.050(3) 0.088(6) 0.003(5) -0.035(5) -0.010(8)
C13 0.037(5) 0.050(3) 0.088(6) 0.003(5) -0.035(5) -0.010(8)
C14 0.037(5) 0.050(3) 0.088(6) 0.003(5) -0.035(5) -0.010(8)
C15 0.037(5) 0.050(3) 0.088(6) 0.003(5) -0.035(5) -0.010(8)
C16 0.037(5) 0.050(3) 0.088(6) 0.003(5) -0.035(5) -0.010(8)
C17 0.037(5) 0.050(3) 0.088(6) 0.003(5) -0.035(5) -0.010(8)
C18 0.087(10) 0.050(6) 0.137(10) 0.007(9) -0.057(11) 0.009(9)
Zn1E 0.0432 0.0344 0.0827 -0.004 0.0009 -0.001
Zn1G 0.0344 0.0432 0.0827 0.0009 0.004 0.001
O1E 0.03 0.053 0.079 -0.012 -0.001 0.012
O2F 0.041 0.086 0.126 -0.033 -0.029 -0.006
loop_
_geom_bond_atom_site_label_1
_geom_bond_atom_site_label_2
_geom_bond_site_symmetry_1
_geom_bond_site_symmetry_2
Zn1 O1 1_555 1_555
O1 H1 1_555 1_555
N1 Zn1 1_555 1_555
C1 N1 1_555 1_555
H2 C1 1_555 1_555
N2 C1 1_555 1_555
C2 N1 1_555 1_555
O2 C18 1_555 1_555
C3 C2 1_555 1_555
H3 C3 1_555 1_555
O3 C18 1_555 1_555
C4 C3 1_555 1_555
C5 C4 1_555 1_555
H4 C5 1_555 1_555
C6 C5 1_555 1_555
H5 C6 1_555 1_555
C7 C6 1_555 1_555
H6 C7 1_555 1_555
C8 C7 1_555 1_555
H7 C8 1_555 1_555
C9 C4 1_555 1_555
C10 C9 1_555 1_555
H8 C10 1_555 1_555
C11 N2 1_555 1_555
C12 N2 1_555 1_555
C13 C15 1_555 1_555
C14 C12 1_555 1_555
H9 C14 1_555 1_555
C15 C14 1_555 1_555
H10 C15 1_555 1_555
C16 C13 1_555 1_555
H11 C16 1_555 1_555
C17 C12 1_555 1_555
H12 C17 1_555 1_555
C18 C13 1_555 1_555
O4 H13 1_555 1_555
C19 O4 1_555 1_555
H14 C19 1_555 1_555
H15 C19 1_555 1_555
H16 C19 1_555 1_555
Zn1E O1 1_555 1_555
Zn1G O2 1_555 1_555
O1E Zn1 1_555 1_555
O2F Zn1 1_555 1_555
C2 C11 1_555 1_555
C8 C9 1_555 1_555
C10 C11 1_555 1_555
C16 C17 1_555 1_555

#END
