
#######################################################################
#
#                 Cambridge Crystallographic Data Centre
#                                CCDC 
#
#######################################################################
#
# If this CIF has been generated from an entry in the Cambridge 
# Structural Database, then it will include bibliographic, chemical, 
# crystal, experimental, refinement or atomic coordinate data resulting 
# from the CCDC's data processing and validation procedures.
#
#######################################################################

data_IFEPUG09
_chemical_formula_moiety         '(C19 H16 N2 O4 Zn1)n'
_symmetry_cell_setting           tetragonal
_symmetry_space_group_name_H-M   'I -4'
_symmetry_Int_Tables_number      82
_space_group_name_Hall           'I -4'
loop_
_symmetry_equiv_pos_site_id
_symmetry_equiv_pos_as_xyz
1 x,y,z
2 -x,-y,z
3 y,-x,-z
4 -y,x,-z
5 1/2+x,1/2+y,1/2+z
6 1/2-x,1/2-y,1/2+z
7 1/2+y,1/2-x,1/2-z
8 1/2-y,1/2+x,1/2-z
_cell_length_a                   26.558(3)
_cell_length_b                   26.558(3)
_cell_length_c                   4.6212(15)
_cell_angle_alpha                90
_cell_angle_beta                 90
_cell_angle_gamma                90
_cell_volume                     3259.46
loop_
_atom_site_label
_atom_site_type_symbol
_atom_site_fract_x
_atom_site_fract_y
_atom_site_fract_z
_atom_site_U_iso_or_equiv
_atom_site_thermal_displace_type
Zn1 Zn 0.26891(7) 0.21573(7) 0.9267(5) 0.0613 Uani
O1 O 0.2286(4) 0.2767(5) 1.010(2) 0.0650 Uani
H1 H 0.2069 0.2883 0.8927 0.0780 Uiso
N1 N 0.2411(5) 0.1484(4) 0.980(3) 0.0670 Uani
C1 C 0.2556(4) 0.1109(3) 1.142(2) 0.0523 Uani
H2 H 0.2807 0.1142 1.2810 0.0630 Uiso
N2 N 0.2314(3) 0.0666(4) 1.0938(16) 0.0550 Uani
C2 C 0.2021(3) 0.1246(4) 0.8051(16) 0.0547 Uani
O2 O 0.2675(6) -0.1616(5) 1.481(3) 0.0877 Uani
C3 C 0.1729(3) 0.1460(3) 0.5907(19) 0.0497 Uani
H3 H 0.1769 0.1797 0.5411 0.0590 Uiso
O3 O 0.3401(7) -0.1318(7) 1.434(6) 0.1007 Uani
C4 C 0.1375(3) 0.1166(4) 0.4511(17) 0.0513 Uani
C5 C 0.1076(3) 0.1362(4) 0.234(2) 0.0587 Uani
H4 H 0.1117 0.1699 0.1840 0.0700 Uiso
C6 C 0.0720(3) 0.1083(4) 0.0886(19) 0.0533 Uani
H5 H 0.0522 0.1228 -0.0548 0.0640 Uiso
C7 C 0.0663(3) 0.0582(5) 0.1604(19) 0.0683 Uani
H6 H 0.0429 0.0382 0.0646 0.0820 Uiso
C8 C 0.0960(4) 0.0382(5) 0.376(2) 0.0590 Uani
H7 H 0.0917 0.0046 0.4258 0.0710 Uiso
C9 C 0.1319(3) 0.0661(4) 0.5227(16) 0.0513 Uani
C10 C 0.1614(4) 0.0447(4) 0.737(2) 0.0523 Uani
H8 H 0.1573 0.0111 0.7886 0.0630 Uiso
C11 C 0.1968(5) 0.0742(4) 0.872(2) 0.0487 Uani
C12 C 0.2453(3) 0.0189(4) 1.213(3) 0.0667 Uani
C13 C 0.2717(5) -0.0738(4) 1.431(3) 0.0667 Uani
C14 C 0.2645(6) 0.0142(3) 1.490(3) 0.0667 Uani
H9 H 0.2686 0.0430 1.6021 0.0800 Uiso
C15 C 0.2779(6) -0.0318(4) 1.604(3) 0.0667 Uani
H10 H 0.2907 -0.0345 1.7906 0.0800 Uiso
C16 C 0.2523(8) -0.0713(4) 1.154(3) 0.0667 Uani
H11 H 0.2480 -0.1002 1.0430 0.0800 Uiso
C17 C 0.2395(7) -0.0245(5) 1.048(3) 0.0667 Uani
H12 H 0.2266 -0.0219 0.8619 0.0800 Uiso
C18 C 0.2936(6) -0.1247(4) 1.508(5) 0.0980 Uani
Zn1E Zn 0.23109(7) 0.28427(7) 1.4267(5) 0.0613 Uani
Zn1G Zn 0.28427(7) -0.23109(7) 1.5733(5) 0.0613 Uani
O1E O 0.2714(4) 0.2233(5) 0.510(2) 0.0650 Uani
O2F O 0.3384(5) 0.2325(6) 1.019(3) 0.0877 Uani
O5 O 0.3389(14) 0.1098(13) 1.654(6) 0.2000 Uiso
H17 H 0.3165 0.1327 1.6515 0.3000 Uiso
C23 C 0.3824(19) 0.119(3) 1.476(10) 0.2620 Uiso
H18 H 0.3841 0.1541 1.4176 0.3930 Uiso
H19 H 0.3805 0.0983 1.3082 0.3930 Uiso
H20 H 0.4120 0.1110 1.5858 0.3930 Uiso
loop_
_atom_site_aniso_label
_atom_site_aniso_U_11
_atom_site_aniso_U_22
_atom_site_aniso_U_33
_atom_site_aniso_U_23
_atom_site_aniso_U_13
_atom_site_aniso_U_12
Zn1 0.0436(11) 0.0378(10) 0.1025(14) 0.0045(10) 0.0022(11) 0.000(2)
O1 0.050(6) 0.064(6) 0.081(7) -0.007(6) -0.003(6) 0.023(9)
N1 0.050(7) 0.056(6) 0.095(9) 0.024(7) -0.001(7) -0.018(9)
C1 0.042(8) 0.056(6) 0.059(8) 0.008(7) -0.005(6) -0.015(10)
N2 0.059(8) 0.052(5) 0.054(6) 0.017(6) 0.000(6) -0.022(8)
C2 0.072(12) 0.039(6) 0.053(7) 0.007(6) -0.005(7) -0.005(9)
O2 0.077(8) 0.048(5) 0.138(11) 0.029(7) -0.039(10) 0.019(11)
C3 0.040(6) 0.028(6) 0.081(8) -0.004(7) 0.003(6) 0.013(9)
O3 0.106(9) 0.045(7) 0.151(9) 0.017(7) -0.017(13) 0.009(9)
C4 0.044(8) 0.045(6) 0.065(8) -0.011(7) -0.003(6) 0.005(10)
C5 0.033(7) 0.055(9) 0.088(9) -0.002(8) 0.003(6) 0.010(11)
C6 0.052(8) 0.049(6) 0.059(7) -0.026(7) 0.012(6) 0.011(12)
C7 0.053(10) 0.066(9) 0.086(10) 0.005(8) -0.018(7) -0.004(13)
C8 0.043(7) 0.050(8) 0.084(10) -0.010(8) -0.007(7) -0.005(11)
C9 0.025(6) 0.063(7) 0.066(8) 0.012(7) 0.003(5) -0.022(9)
C10 0.046(8) 0.053(8) 0.058(8) 0.004(8) 0.005(6) -0.009(10)
C11 0.040(7) 0.052(7) 0.054(8) 0.009(7) 0.003(5) -0.009(10)
C12 0.057(4) 0.050(3) 0.093(5) 0.008(4) -0.021(5) -0.007(6)
C13 0.057(4) 0.050(3) 0.093(5) 0.008(4) -0.021(5) -0.007(6)
C14 0.057(4) 0.050(3) 0.093(5) 0.008(4) -0.021(5) -0.007(6)
C15 0.057(4) 0.050(3) 0.093(5) 0.008(4) -0.021(5) -0.007(6)
C16 0.057(4) 0.050(3) 0.093(5) 0.008(4) -0.021(5) -0.007(6)
C17 0.057(4) 0.050(3) 0.093(5) 0.008(4) -0.021(5) -0.007(6)
C18 0.102(11) 0.057(6) 0.135(12) 0.014(10) -0.048(11) 0.012(9)
Zn1E 0.0436 0.0378 0.1025 -0.0045 -0.0022 0
Zn1G 0.0378 0.0436 0.1025 -0.0022 0.0045 0
O1E 0.05 0.064 0.081 0.007 0.003 0.023
O2F 0.048 0.077 0.138 -0.039 -0.029 -0.019
loop_
_geom_bond_atom_site_label_1
_geom_bond_atom_site_label_2
_geom_bond_site_symmetry_1
_geom_bond_site_symmetry_2
Zn1 O1 1_555 1_555
O1 H1 1_555 1_555
N1 Zn1 1_555 1_555
C1 N1 1_555 1_555
H2 C1 1_555 1_555
N2 C1 1_555 1_555
C2 N1 1_555 1_555
O2 C18 1_555 1_555
C3 C2 1_555 1_555
H3 C3 1_555 1_555
O3 C18 1_555 1_555
C4 C3 1_555 1_555
C5 C4 1_555 1_555
H4 C5 1_555 1_555
C6 C5 1_555 1_555
H5 C6 1_555 1_555
C7 C6 1_555 1_555
H6 C7 1_555 1_555
C8 C7 1_555 1_555
H7 C8 1_555 1_555
C9 C4 1_555 1_555
C10 C9 1_555 1_555
H8 C10 1_555 1_555
C11 N2 1_555 1_555
C12 N2 1_555 1_555
C13 C15 1_555 1_555
C14 C12 1_555 1_555
H9 C14 1_555 1_555
C15 C14 1_555 1_555
H10 C15 1_555 1_555
C16 C13 1_555 1_555
H11 C16 1_555 1_555
C17 C12 1_555 1_555
H12 C17 1_555 1_555
C18 C13 1_555 1_555
O5 H17 1_555 1_555
C23 O5 1_555 1_555
H18 C23 1_555 1_555
H19 C23 1_555 1_555
H20 C23 1_555 1_555
Zn1E O1 1_555 1_555
Zn1G O2 1_555 1_555
O1E Zn1 1_555 1_555
O2F Zn1 1_555 1_555
C2 C11 1_555 1_555
C8 C9 1_555 1_555
C10 C11 1_555 1_555
C16 C17 1_555 1_555

#END
