
#######################################################################
#
#                 Cambridge Crystallographic Data Centre
#                                CCDC 
#
#######################################################################
#
# If this CIF has been generated from an entry in the Cambridge 
# Structural Database, then it will include bibliographic, chemical, 
# crystal, experimental, refinement or atomic coordinate data resulting 
# from the CCDC's data processing and validation procedures.
#
#######################################################################

data_IFEPUG10
_chemical_formula_moiety         '(C19 H16 N2 O4 Zn1)n'
_symmetry_cell_setting           tetragonal
_symmetry_space_group_name_H-M   'I -4'
_symmetry_Int_Tables_number      82
_space_group_name_Hall           'I -4'
loop_
_symmetry_equiv_pos_site_id
_symmetry_equiv_pos_as_xyz
1 x,y,z
2 -x,-y,z
3 y,-x,-z
4 -y,x,-z
5 1/2+x,1/2+y,1/2+z
6 1/2-x,1/2-y,1/2+z
7 1/2+y,1/2-x,1/2-z
8 1/2-y,1/2+x,1/2-z
_cell_length_a                   26.528(4)
_cell_length_b                   26.528(4)
_cell_length_c                   4.4980(16)
_cell_angle_alpha                90
_cell_angle_beta                 90
_cell_angle_gamma                90
_cell_volume                     3165.4
loop_
_atom_site_label
_atom_site_type_symbol
_atom_site_fract_x
_atom_site_fract_y
_atom_site_fract_z
_atom_site_U_iso_or_equiv
_atom_site_thermal_displace_type
Zn1 Zn 0.26859(13) 0.21543(12) 0.9475(6) 0.0758 Uani
O1 O 0.2260(7) 0.2783(6) 1.000(3) 0.0763 Uani
H1 H 0.2042 0.2899 0.8828 0.0910 Uiso
N1 N 0.2402(6) 0.1472(7) 0.980(3) 0.0653 Uani
C1 C 0.2567(6) 0.1116(6) 1.155(3) 0.0623 Uani
H2 H 0.2824 0.1156 1.2944 0.0750 Uiso
N2 N 0.2312(5) 0.0681(7) 1.107(3) 0.0663 Uani
C2 C 0.2006(4) 0.1239(6) 0.806(2) 0.0637 Uani
O2 O 0.2637(10) -0.1630(7) 1.493(5) 0.1160 Uani
C3 C 0.1712(5) 0.1457(5) 0.587(3) 0.0617 Uani
H3 H 0.1756 0.1793 0.5354 0.0740 Uiso
O3 O 0.3279(9) -0.1367(15) 1.409(8) 0.1160 Uani
C4 C 0.1351(4) 0.1168(5) 0.446(2) 0.0557 Uani
C5 C 0.1048(5) 0.1371(6) 0.227(3) 0.0683 Uani
H4 H 0.1091 0.1708 0.1761 0.0820 Uiso
C6 C 0.0684(5) 0.1097(6) 0.080(3) 0.0727 Uani
H5 H 0.0484 0.1239 -0.0680 0.0870 Uiso
C7 C 0.0631(5) 0.0599(6) 0.164(3) 0.0800 Uani
H6 H 0.0390 0.0398 0.0710 0.0960 Uiso
C8 C 0.0931(5) 0.0397(6) 0.383(3) 0.0707 Uani
H7 H 0.0885 0.0060 0.4342 0.0850 Uiso
C9 C 0.1298(5) 0.0670(5) 0.530(2) 0.0663 Uani
C10 C 0.1592(5) 0.0453(6) 0.748(3) 0.0700 Uani
H8 H 0.1567 0.0110 0.7893 0.0840 Uiso
C11 C 0.1924(8) 0.0753(6) 0.903(5) 0.0737 Uani
C12 C 0.2451(4) 0.0179(6) 1.215(4) 0.0850 Uani
C13 C 0.2719(5) -0.0732(5) 1.439(4) 0.0850 Uani
C14 C 0.2621(9) 0.0138(5) 1.504(4) 0.0850 Uani
H9 H 0.2642 0.0426 1.6217 0.1020 Uiso
C15 C 0.2759(9) -0.0319(6) 1.622(3) 0.0850 Uani
H10 H 0.2874 -0.0349 1.8168 0.1020 Uiso
C16 C 0.2553(10) -0.0713(6) 1.151(4) 0.0850 Uani
H11 H 0.2532 -0.1002 1.0342 0.1020 Uiso
C17 C 0.2419(10) -0.0248(7) 1.042(3) 0.0850 Uani
H12 H 0.2305 -0.0220 0.8469 0.1020 Uiso
C18 C 0.2866(7) -0.1251(5) 1.552(6) 0.0937 Uani
Zn1E Zn 0.23141(13) 0.28457(12) 1.4475(6) 0.0758 Uani
Zn1G Zn 0.28457(12) -0.23141(13) 1.5525(6) 0.0758 Uani
O1E O 0.2740(7) 0.2217(6) 0.500(3) 0.0763 Uani
O2F O 0.3370(7) 0.2363(10) 1.007(5) 0.1160 Uani
O4 O 0.3384(19) 0.1144(17) 1.634(9) 0.2210 Uiso
H13 H 0.3160 0.1373 1.6321 0.3310 Uiso
C19 C 0.386(2) 0.122(3) 1.485(13) 0.2620 Uiso
H14 H 0.3890 0.1561 1.4188 0.3930 Uiso
H15 H 0.3886 0.0996 1.3169 0.3930 Uiso
H16 H 0.4134 0.1145 1.6206 0.3930 Uiso
loop_
_atom_site_aniso_label
_atom_site_aniso_U_11
_atom_site_aniso_U_22
_atom_site_aniso_U_33
_atom_site_aniso_U_23
_atom_site_aniso_U_13
_atom_site_aniso_U_12
Zn1 0.067(2) 0.0575(19) 0.103(2) -0.0018(17) -0.0063(19) 0.010(4)
O1 0.085(10) 0.070(7) 0.074(8) -0.016(8) -0.009(9) 0.018(10)
N1 0.061(11) 0.075(7) 0.060(9) 0.015(9) 0.009(8) -0.009(11)
C1 0.044(11) 0.073(8) 0.070(10) 0.014(9) 0.011(8) 0.000(12)
N2 0.040(9) 0.081(6) 0.078(10) 0.024(8) 0.005(7) -0.007(9)
C2 0.062(12) 0.062(10) 0.067(10) 0.012(9) 0.005(8) -0.002(10)
O2 0.150(17) 0.064(8) 0.134(13) 0.016(11) -0.053(17) -0.014(17)
C3 0.071(12) 0.050(10) 0.064(10) 0.008(9) -0.001(8) -0.010(12)
O3 0.138(12) 0.090(11) 0.120(10) 0.006(8) -0.005(11) 0.018(10)
C4 0.043(9) 0.050(8) 0.074(10) -0.010(9) 0.006(7) 0.007(11)
C5 0.062(11) 0.072(11) 0.071(10) -0.013(9) -0.004(8) 0.011(12)
C6 0.076(13) 0.073(10) 0.069(10) 0.002(10) -0.007(9) -0.007(13)
C7 0.072(13) 0.074(11) 0.094(12) 0.019(11) -0.006(9) 0.001(14)
C8 0.065(12) 0.060(10) 0.087(12) -0.008(9) -0.009(9) 0.000(11)
C9 0.075(12) 0.071(9) 0.053(9) 0.012(9) 0.008(7) -0.025(11)
C10 0.066(12) 0.070(10) 0.074(10) 0.005(10) -0.001(8) -0.008(11)
C11 0.074(15) 0.050(10) 0.097(15) 0.004(11) -0.018(11) 0.006(13)
C12 0.071(8) 0.077(5) 0.107(8) 0.009(6) -0.046(7) -0.010(8)
C13 0.071(8) 0.077(5) 0.107(8) 0.009(6) -0.046(7) -0.010(8)
C14 0.071(8) 0.077(5) 0.107(8) 0.009(6) -0.046(7) -0.010(8)
C15 0.071(8) 0.077(5) 0.107(8) 0.009(6) -0.046(7) -0.010(8)
C16 0.071(8) 0.077(5) 0.107(8) 0.009(6) -0.046(7) -0.010(8)
C17 0.071(8) 0.077(5) 0.107(8) 0.009(6) -0.046(7) -0.010(8)
C18 0.084(13) 0.082(7) 0.115(11) 0.016(11) -0.038(10) -0.005(10)
Zn1E 0.067 0.0575 0.103 0.0018 0.0063 0.01
Zn1G 0.0575 0.067 0.103 0.0063 -0.0018 -0.01
O1E 0.085 0.07 0.074 0.016 0.009 0.018
O2F 0.064 0.15 0.134 -0.053 -0.016 0.014
loop_
_geom_bond_atom_site_label_1
_geom_bond_atom_site_label_2
_geom_bond_site_symmetry_1
_geom_bond_site_symmetry_2
Zn1 O1 1_555 1_555
O1 H1 1_555 1_555
N1 Zn1 1_555 1_555
C1 N1 1_555 1_555
H2 C1 1_555 1_555
N2 C1 1_555 1_555
C2 N1 1_555 1_555
O2 C18 1_555 1_555
C3 C2 1_555 1_555
H3 C3 1_555 1_555
O3 C18 1_555 1_555
C4 C3 1_555 1_555
C5 C4 1_555 1_555
H4 C5 1_555 1_555
C6 C5 1_555 1_555
H5 C6 1_555 1_555
C7 C6 1_555 1_555
H6 C7 1_555 1_555
C8 C7 1_555 1_555
H7 C8 1_555 1_555
C9 C4 1_555 1_555
C10 C9 1_555 1_555
H8 C10 1_555 1_555
C11 N2 1_555 1_555
C12 N2 1_555 1_555
C13 C15 1_555 1_555
C14 C12 1_555 1_555
H9 C14 1_555 1_555
C15 C14 1_555 1_555
H10 C15 1_555 1_555
C16 C13 1_555 1_555
H11 C16 1_555 1_555
C17 C12 1_555 1_555
H12 C17 1_555 1_555
C18 C13 1_555 1_555
O4 H13 1_555 1_555
C19 O4 1_555 1_555
H14 C19 1_555 1_555
H15 C19 1_555 1_555
H16 C19 1_555 1_555
Zn1E O1 1_555 1_555
Zn1G O2 1_555 1_555
O1E Zn1 1_555 1_555
O2F Zn1 1_555 1_555
C2 C11 1_555 1_555
C8 C9 1_555 1_555
C10 C11 1_555 1_555
C16 C17 1_555 1_555

#END
