
#######################################################################
#
#                 Cambridge Crystallographic Data Centre
#                                CCDC 
#
#######################################################################
#
# If this CIF has been generated from an entry in the Cambridge 
# Structural Database, then it will include bibliographic, chemical, 
# crystal, experimental, refinement or atomic coordinate data resulting 
# from the CCDC's data processing and validation procedures.
#
#######################################################################

data_IFEPUG07
_chemical_formula_moiety         '(C19 H16 N2 O4 Zn1)n'
_symmetry_cell_setting           tetragonal
_symmetry_space_group_name_H-M   'I -4'
_symmetry_Int_Tables_number      82
_space_group_name_Hall           'I -4'
loop_
_symmetry_equiv_pos_site_id
_symmetry_equiv_pos_as_xyz
1 x,y,z
2 -x,-y,z
3 y,-x,-z
4 -y,x,-z
5 1/2+x,1/2+y,1/2+z
6 1/2-x,1/2-y,1/2+z
7 1/2+y,1/2-x,1/2-z
8 1/2-y,1/2+x,1/2-z
_cell_length_a                   26.3388(8)
_cell_length_b                   26.3388(8)
_cell_length_c                   4.8560(4)
_cell_angle_alpha                90
_cell_angle_beta                 90
_cell_angle_gamma                90
_cell_volume                     3368.76
loop_
_atom_site_label
_atom_site_type_symbol
_atom_site_fract_x
_atom_site_fract_y
_atom_site_fract_z
_atom_site_U_iso_or_equiv
_atom_site_thermal_displace_type
Zn1 Zn 0.26997(7) 0.21596(7) 0.8982(3) 0.0482 Uani
O1 O 0.2283(3) 0.2719(4) 1.0081(17) 0.0477 Uani
N1 N 0.2419(5) 0.1470(4) 0.954(2) 0.0607 Uani
O2 O 0.3367(4) 0.2292(6) 1.053(3) 0.0770 Uani
H1 H 0.2069 0.2832 0.8925 0.0570 Uiso
C1 C 0.2575(4) 0.1101(3) 1.112(2) 0.0477 Uani
C2 C 0.2038(3) 0.1247(4) 0.7837(13) 0.0417 Uani
H2 H 0.2825 0.1146 1.2450 0.0570 Uiso
N2 N 0.2345(3) 0.0647(4) 1.0680(15) 0.0457 Uani
C3 C 0.1745(4) 0.1463(3) 0.5788(17) 0.0437 Uani
C4 C 0.1996(5) 0.0737(4) 0.859(3) 0.0490 Uani
C5 C 0.2490(3) 0.0176(4) 1.185(2) 0.0473 Uani
H3 H 0.1780 0.1804 0.5329 0.0520 Uiso
C6 C 0.1395(3) 0.1155(3) 0.4429(15) 0.0390 Uani
C7 C 0.1652(4) 0.0422(4) 0.7261(17) 0.0393 Uani
C8 C 0.2688(6) 0.0145(3) 1.448(2) 0.0473 Uani
C9 C 0.2434(6) -0.0269(5) 1.035(2) 0.0473 Uani
C10 C 0.1097(3) 0.1356(4) 0.2358(17) 0.0463 Uani
C11 C 0.1355(3) 0.0643(3) 0.5197(14) 0.0357 Uani
H4 H 0.1620 0.0081 0.7722 0.0470 Uiso
H5 H 0.2726 0.0441 1.5508 0.0570 Uiso
C12 C 0.2828(6) -0.0312(4) 1.563(2) 0.0473 Uani
C13 C 0.2568(7) -0.0733(4) 1.142(3) 0.0473 Uani
H6 H 0.2302 -0.0252 0.8577 0.0570 Uiso
H7 H 0.1133 0.1697 0.1900 0.0560 Uiso
C14 C 0.0743(3) 0.1063(5) 0.0936(19) 0.0567 Uani
C15 C 0.0999(4) 0.0345(4) 0.378(2) 0.0583 Uani
C16 C 0.2766(5) -0.0739(4) 1.404(2) 0.0473 Uani
H8 H 0.2959 -0.0332 1.7407 0.0570 Uiso
H9 H 0.2526 -0.1030 1.0411 0.0570 Uiso
H10 H 0.0543 0.1200 -0.0455 0.0680 Uiso
C17 C 0.0704(3) 0.0555(5) 0.1697(17) 0.0597 Uani
H11 H 0.0960 0.0005 0.4243 0.0700 Uiso
C18 C 0.2928(7) -0.1254(4) 1.519(3) 0.0850 Uani
H12 H 0.0473 0.0348 0.0780 0.0720 Uiso
O3 O 0.2967(11) -0.1276(8) 1.780(3) 0.0873 Uani
O1E O 0.2717(3) 0.2281(4) 0.5081(17) 0.0477 Uani
Zn1E Zn 0.23003(7) 0.28404(7) 1.3982(3) 0.0482 Uani
O2G O 0.2708(6) -0.1633(4) 1.447(3) 0.0770 Uani
Zn1G Zn 0.28404(7) -0.23003(7) 1.6018(3) 0.0482 Uani
O4 O 0.3373(11) 0.1058(9) 1.628(5) 0.1530 Uiso
H13 H 0.3148 0.1288 1.6262 0.2300 Uiso
C19 C 0.3819(16) 0.125(2) 1.494(12) 0.2620 Uiso
H14 H 0.3845 0.1612 1.5279 0.3930 Uiso
H15 H 0.3760 0.1196 1.3017 0.3930 Uiso
H16 H 0.4130 0.1091 1.5480 0.3930 Uiso
loop_
_atom_site_aniso_label
_atom_site_aniso_U_11
_atom_site_aniso_U_22
_atom_site_aniso_U_33
_atom_site_aniso_U_23
_atom_site_aniso_U_13
_atom_site_aniso_U_12
Zn1 0.0371(11) 0.0342(9) 0.0734(10) 0.0033(9) -0.0026(9) -0.009(2)
O1 0.031(5) 0.050(5) 0.062(4) 0.010(5) -0.003(4) 0.011(8)
N1 0.058(10) 0.041(5) 0.083(9) 0.022(6) -0.005(7) -0.023(10)
O2 0.027 0.092 0.112 -0.019 -0.012 -0.01
C1 0.038(8) 0.046(6) 0.059(7) 0.011(6) -0.007(6) -0.019(10)
C2 0.036(8) 0.020(5) 0.069(7) -0.008(6) -0.007(6) 0.011(8)
N2 0.029(7) 0.039(5) 0.069(7) 0.017(5) -0.002(5) -0.014(8)
C3 0.042(7) 0.024(7) 0.065(8) 0.010(7) 0.011(6) -0.011(12)
C4 0.047(10) 0.032(7) 0.068(9) -0.001(7) -0.022(7) 0.003(10)
C5 0.038(5) 0.039(3) 0.065(4) -0.005(4) -0.014(4) -0.001(7)
C6 0.027(7) 0.031(6) 0.059(7) 0.015(6) -0.012(6) 0.010(9)
C7 0.039(7) 0.013(5) 0.066(7) 0.001(6) -0.006(6) 0.011(9)
C8 0.038(5) 0.039(3) 0.065(4) -0.005(4) -0.014(4) -0.001(7)
C9 0.038(5) 0.039(3) 0.065(4) -0.005(4) -0.014(4) -0.001(7)
C10 0.037(7) 0.037(7) 0.065(7) 0.008(7) -0.005(6) 0.016(11)
C11 0.023(7) 0.028(6) 0.056(7) 0.004(6) -0.008(5) -0.001(11)
C12 0.038(5) 0.039(3) 0.065(4) -0.005(4) -0.014(4) -0.001(7)
C13 0.038(5) 0.039(3) 0.065(4) -0.005(4) -0.014(4) -0.001(7)
C14 0.052(10) 0.059(8) 0.059(7) -0.028(8) -0.018(8) 0.024(15)
C15 0.062(10) 0.035(7) 0.078(9) -0.029(7) -0.015(8) 0.009(12)
C16 0.038(5) 0.039(3) 0.065(4) -0.005(4) -0.014(4) -0.001(7)
C17 0.037(9) 0.070(9) 0.072(9) -0.018(9) -0.023(7) -0.012(15)
C18 0.100(10) 0.039(6) 0.116(9) 0.006(8) -0.057(10) 0.008(10)
O3 0.104(8) 0.050(8) 0.108(7) -0.002(7) -0.026(9) 0.022(9)
O1E 0.031 0.05 0.062 -0.01 0.003 0.011
Zn1E 0.0371 0.0342 0.0734 -0.0033 0.0026 -0.009
O2G 0.092(10) 0.027(5) 0.112(9) 0.012(6) -0.019(10) 0.010(12)
Zn1G 0.0342 0.0371 0.0734 0.0026 0.0033 0.009
loop_
_geom_bond_atom_site_label_1
_geom_bond_atom_site_label_2
_geom_bond_site_symmetry_1
_geom_bond_site_symmetry_2
Zn1 O1 1_555 1_555
O1 H1 1_555 1_555
N1 Zn1 1_555 1_555
O2 Zn1 1_555 1_555
C1 N1 1_555 1_555
C2 N1 1_555 1_555
H2 C1 1_555 1_555
N2 C1 1_555 1_555
C3 C2 1_555 1_555
C4 C2 1_555 1_555
C5 N2 1_555 1_555
H3 C3 1_555 1_555
C6 C3 1_555 1_555
C7 C4 1_555 1_555
C8 C5 1_555 1_555
C9 C5 1_555 1_555
C10 C6 1_555 1_555
C11 C6 1_555 1_555
H4 C7 1_555 1_555
H5 C8 1_555 1_555
C12 C8 1_555 1_555
C13 C9 1_555 1_555
H6 C9 1_555 1_555
H7 C10 1_555 1_555
C14 C10 1_555 1_555
C15 C11 1_555 1_555
C16 C12 1_555 1_555
H8 C12 1_555 1_555
H9 C13 1_555 1_555
H10 C14 1_555 1_555
C17 C14 1_555 1_555
H11 C15 1_555 1_555
C18 C16 1_555 1_555
H12 C17 1_555 1_555
O3 C18 1_555 1_555
O4 H13 1_555 1_555
C19 O4 1_555 1_555
H14 C19 1_555 1_555
H15 C19 1_555 1_555
H16 C19 1_555 1_555
O1E Zn1 1_555 1_555
Zn1E O1 1_555 1_555
O2G C18 1_555 1_555
Zn1G O2G 1_555 1_555
N2 C4 1_555 1_555
C7 C11 1_555 1_555
C13 C16 1_555 1_555
C15 C17 1_555 1_555

#END
