
#######################################################################
#
#                 Cambridge Crystallographic Data Centre
#                                CCDC 
#
#######################################################################
#
# If this CIF has been generated from an entry in the Cambridge 
# Structural Database, then it will include bibliographic, chemical, 
# crystal, experimental, refinement or atomic coordinate data resulting 
# from the CCDC's data processing and validation procedures.
#
#######################################################################

data_KIKFIV
_chemical_formula_moiety         '(C96 H60 Eu2 O18)n'
_symmetry_cell_setting           triclinic
_symmetry_space_group_name_H-M   'P -1'
_symmetry_Int_Tables_number      2
_space_group_name_Hall           '-P 1'
loop_
_symmetry_equiv_pos_site_id
_symmetry_equiv_pos_as_xyz
1 x,y,z
2 -x,-y,-z
_cell_length_a                   9.9355(10)
_cell_length_b                   12.1661(13)
_cell_length_c                   23.473(3)
_cell_angle_alpha                75.392(2)
_cell_angle_beta                 80.660(2)
_cell_angle_gamma                79.549(2)
_cell_volume                     2679.74
loop_
_atom_site_label
_atom_site_type_symbol
_atom_site_fract_x
_atom_site_fract_y
_atom_site_fract_z
Eu1 Eu 0.73631(3) 0.51784(3) 0.504502(10)
O1 O 0.6683(3) 0.3368(3) 0.56214(15)
O2 O -0.1227(3) -0.3937(3) 1.42055(14)
O3 O 0.6058(4) 0.4708(3) 0.44166(14)
C1 C 0.0018(6) -0.4055(5) 1.4014(2)
O4 O 0.0947(4) -0.4635(4) 1.43162(15)
O5 O 0.4191(4) 0.4413(4) 0.41138(14)
C2 C 0.5440(5) 0.4573(5) 0.4029(2)
O6 O 0.8964(3) 0.3591(3) 0.46870(14)
O7 O 0.8404(4) 0.1928(4) 0.56834(17)
O8 O 0.8027(4) 0.6920(4) 0.52698(17)
C3 C 0.8687(5) 0.4648(5) 0.0176(2)
C4 C 0.5362(6) 0.2378(5) 0.6724(2)
H1 H 0.4905 0.3036 0.6496
O9 O 0.5844(4) 0.6923(3) 0.46122(16)
C5 C 0.6175(5) 0.4612(5) 0.3419(2)
C6 C 0.0450(5) -0.3460(5) 1.3378(2)
C7 C 0.9273(5) 0.4819(5) -0.0433(2)
C8 C 0.9398(5) 0.4851(5) 0.0592(2)
C9 C 0.7488(6) 0.4864(6) 0.3270(2)
H2 H 0.7935 0.5007 0.3557
C10 C 0.4100(5) -0.1472(5) 1.0329(2)
C11 C 0.2241(6) -0.1332(5) 1.1146(2)
C12 C 0.7290(6) 0.2422(5) 0.5887(2)
C13 C 0.2614(6) 0.0364(5) 0.9560(2)
C14 C 0.3868(6) -0.0218(5) 0.9344(2)
C15 C 0.4616(5) -0.1125(5) 0.9715(2)
C16 C 0.2820(6) -0.0903(5) 1.0549(2)
C17 C 0.8768(6) 0.4775(5) 0.1202(2)
C18 C 0.8211(6) 0.4737(5) 0.1681(2)
C19 C 0.6623(6) 0.1864(5) 0.6496(2)
C20 C 0.2092(5) 0.0024(5) 1.0171(2)
C21 C 0.1749(6) -0.3768(6) 1.3111(2)
H3 H 0.2357 -0.4343 1.3320
C22 C 0.5466(7) 0.0948(5) 0.7639(2)
C23 C 0.1292(6) -0.2359(6) 1.2225(2)
C24 C 0.4912(6) -0.2358(5) 1.0692(2)
H4 H 0.4602 -0.2578 1.1094
C25 C 0.7359(6) 0.4286(5) 0.0326(3)
H5 H 0.6958 0.4166 0.0719
C26 C 0.4777(6) 0.1909(6) 0.7294(2)
H6 H 0.3919 0.2244 0.7443
C27 C 0.1773(6) -0.1763(6) 1.1625(2)
C28 C -0.0421(6) -0.2615(6) 1.3065(2)
H7 H -0.1307 -0.2407 1.3243
C29 C 0.4416(6) 0.0153(5) 0.8728(2)
C30 C 0.5879(6) -0.1731(5) 0.9509(3)
H8 H 0.6223 -0.1531 0.9110
C31 C 0.4881(6) 0.0503(5) 0.8239(2)
C32 C 0.7544(6) 0.4717(5) 0.2279(2)
C33 C 0.2158(6) -0.3229(6) 1.2534(2)
H9 H 0.3032 -0.3460 1.2352
C34 C 0.8498(6) 0.4623(5) -0.0847(2)
H10 H 0.8865 0.4733 -0.1244
C35 C 0.8166(6) 0.4912(6) 0.2709(2)
H11 H 0.9064 0.5080 0.2622
C36 C 0.0848(6) 0.0636(6) 1.0388(3)
H12 H 0.0486 0.0422 1.0784
C37 C 0.1856(6) 0.1299(5) 0.9199(3)
H13 H 0.2181 0.1524 0.8799
C38 C 0.5545(6) 0.4405(6) 0.2993(2)
H14 H 0.4654 0.4224 0.3086
C39 C -0.0019(6) -0.2063(6) 1.2493(2)
H15 H -0.0632 -0.1489 1.2286
C40 C 0.6119(6) -0.2896(5) 1.0478(3)
H16 H 0.6637 -0.3471 1.0731
C41 C 0.0689(7) 0.1869(6) 0.9413(3)
H17 H 0.0214 0.2483 0.9163
C42 C 0.6664(6) 0.4114(6) -0.0091(3)
H18 H 0.5798 0.3882 0.0020
C43 C 0.6596(6) -0.2588(6) 0.9873(3)
H19 H 0.7415 -0.2980 0.9722
C44 C 0.7282(6) 0.0892(6) 0.6831(3)
H20 H 0.8107 0.0525 0.6671
C45 C 0.6211(7) 0.4461(7) 0.2417(2)
H21 H 0.5762 0.4326 0.2128
C46 C 0.7243(6) 0.4282(6) -0.0679(3)
H22 H 0.6764 0.4158 -0.0961
C47 C 0.6727(7) 0.0447(6) 0.7409(3)
H23 H 0.7209 -0.0190 0.7642
C48 C 0.0177(6) 0.1546(6) 1.0013(3)
H24 H -0.0632 0.1956 1.0159
O3A O 1.3942(4) 0.5292(3) -0.44166(14)
O5A O 1.5809(4) 0.5587(4) -0.41138(14)
C2A C 1.4560(5) 0.5427(5) -0.4029(2)
C3A C 1.1313(5) 0.5352(5) -0.0176(2)
C5A C 1.3825(5) 0.5388(5) -0.3419(2)
C7A C 1.0727(5) 0.5181(5) 0.0433(2)
C8A C 1.0602(5) 0.5149(5) -0.0592(2)
C9A C 1.2512(6) 0.5136(6) -0.3270(2)
H2A H 1.2065 0.4993 -0.3557
C17A C 1.1232(6) 0.5225(5) -0.1202(2)
C18A C 1.1789(6) 0.5263(5) -0.1681(2)
C25A C 1.2641(6) 0.5714(5) -0.0326(3)
H5A H 1.3042 0.5834 -0.0719
C32A C 1.2456(6) 0.5283(5) -0.2279(2)
C34A C 1.1502(6) 0.5377(5) 0.0847(2)
H10A H 1.1135 0.5267 0.1244
C35A C 1.1834(6) 0.5088(6) -0.2709(2)
H11A H 1.0936 0.4920 -0.2622
C38A C 1.4455(6) 0.5595(6) -0.2993(2)
H14A H 1.5346 0.5776 -0.3086
C42A C 1.3336(6) 0.5886(6) 0.0091(3)
H18A H 1.4202 0.6118 -0.0020
C45A C 1.3789(7) 0.5539(7) -0.2417(2)
H21A H 1.4238 0.5674 -0.2128
C46A C 1.2757(6) 0.5718(6) 0.0679(3)
H22A H 1.3236 0.5842 0.0961
Eu1A Eu 0.26369(3) -0.51784(3) 1.495498(10)
O1A O 0.3317(3) -0.3368(3) 1.43786(15)
O2A O 1.1227(3) 0.3937(3) 0.57945(14)
C1A C 0.9982(6) 0.4055(5) 0.5986(2)
O4A O 0.9053(4) 0.4635(4) 0.56838(15)
O6A O 0.1036(3) -0.3591(3) 1.53130(14)
O7A O 0.1596(4) -0.1928(4) 1.43166(17)
O8A O 0.1973(4) -0.6920(4) 1.47302(17)
C4A C 0.4638(6) -0.2378(5) 1.3276(2)
H1A H 0.5095 -0.3036 1.3504
O9A O 0.4156(4) -0.6923(3) 1.53878(16)
C6A C 0.9550(5) 0.3460(5) 0.6622(2)
C10A C 0.5900(5) 0.1472(5) 0.9671(2)
C11A C 0.7759(6) 0.1332(5) 0.8854(2)
C12A C 0.2710(6) -0.2422(5) 1.4113(2)
C13A C 0.7386(6) -0.0364(5) 1.0440(2)
C14A C 0.6132(6) 0.0218(5) 1.0656(2)
C15A C 0.5384(5) 0.1125(5) 1.0285(2)
C16A C 0.7180(6) 0.0903(5) 0.9451(2)
C19A C 0.3377(6) -0.1864(5) 1.3504(2)
C20A C 0.7908(5) -0.0024(5) 0.9829(2)
C21A C 0.8251(6) 0.3768(6) 0.6889(2)
H3A H 0.7643 0.4343 0.6680
C22A C 0.4534(7) -0.0948(5) 1.2361(2)
C23A C 0.8708(6) 0.2359(6) 0.7775(2)
C24A C 0.5088(6) 0.2358(5) 0.9308(2)
H4A H 0.5398 0.2578 0.8906
C26A C 0.5223(6) -0.1909(6) 1.2706(2)
H6A H 0.6081 -0.2244 1.2557
C27A C 0.8227(6) 0.1763(6) 0.8375(2)
C28A C 1.0421(6) 0.2615(6) 0.6935(2)
H7A H 1.1307 0.2407 0.6757
C29A C 0.5584(6) -0.0153(5) 1.1272(2)
C30A C 0.4121(6) 0.1731(5) 1.0491(3)
H8A H 0.3777 0.1531 1.0890
C31A C 0.5119(6) -0.0503(5) 1.1761(2)
C33A C 0.7842(6) 0.3229(6) 0.7466(2)
H9A H 0.6968 0.3460 0.7648
C36A C 0.9152(6) -0.0636(6) 0.9612(3)
H12A H 0.9514 -0.0422 0.9216
C37A C 0.8144(6) -0.1299(5) 1.0801(3)
H13A H 0.7819 -0.1524 1.1201
C39A C 1.0019(6) 0.2063(6) 0.7507(2)
H15A H 1.0632 0.1489 0.7714
C40A C 0.3881(6) 0.2896(5) 0.9522(3)
H16A H 0.3363 0.3471 0.9269
C41A C 0.9311(7) -0.1869(6) 1.0587(3)
H17A H 0.9786 -0.2483 1.0837
C43A C 0.3404(6) 0.2588(6) 1.0127(3)
H19A H 0.2585 0.2980 1.0278
C44A C 0.2718(6) -0.0892(6) 1.3169(3)
H20A H 0.1893 -0.0525 1.3329
C47A C 0.3273(7) -0.0447(6) 1.2591(3)
H23A H 0.2791 0.0190 1.2358
C48A C 0.9823(6) -0.1546(6) 0.9987(3)
H24A H 1.0632 -0.1956 0.9841
Eu1_2 Eu -0.26369(3) -0.48216(3) 1.504502(10)
Eu1_3 Eu 1.73631(3) 0.51784(3) -0.495498(10)
Eu1A_2 Eu 0.26369(3) 0.48216(3) 0.495498(10)
Eu1A_3 Eu 1.26369(3) 0.48216(3) -0.504502(10)
Eu1A_4 Eu 1.26369(3) 0.48216(3) 0.495498(10)
O2_2 O 0.8773(3) 0.6063(3) 0.42055(14)
O2A_2 O 0.1227(3) -0.6063(3) 1.57945(14)
O3A_2 O 0.3942(4) -0.4708(3) 1.55834(14)
O5_2 O 0.4191(4) -0.5587(4) 1.41138(14)
O5A_2 O 0.5809(4) 0.5587(4) 0.58862(14)
loop_
_geom_bond_atom_site_label_1
_geom_bond_atom_site_label_2
_geom_bond_site_symmetry_1
_geom_bond_site_symmetry_2
Eu1 O1 1_555 1_555
O1 C12 1_555 1_555
O2 C1 1_555 1_555
O3 Eu1 1_555 1_555
C1 O4 1_555 1_555
O4 Eu1A 1_555 1_555
O5 C2 1_555 1_555
C2 O3 1_555 1_555
O6 Eu1 1_555 1_555
O7 C12 1_555 1_555
O8 Eu1 1_555 1_555
C3 C7 1_555 1_555
C4 H1 1_555 1_555
O9 Eu1 1_555 1_555
C5 C2 1_555 1_555
C6 C1 1_555 1_555
C7 C34 1_555 1_555
C8 C3 1_555 1_555
C9 C5 1_555 1_555
H2 C9 1_555 1_555
C10 C15 1_555 1_555
C11 C16 1_555 1_555
C12 C19 1_555 1_555
C13 C14 1_555 1_555
C14 C15 1_555 1_555
C15 C30 1_555 1_555
C16 C10 1_555 1_555
C17 C8 1_555 1_555
C18 C17 1_555 1_555
C19 C4 1_555 1_555
C20 C13 1_555 1_555
C21 C6 1_555 1_555
H3 C21 1_555 1_555
C22 C26 1_555 1_555
C23 C27 1_555 1_555
C24 C10 1_555 1_555
H4 C24 1_555 1_555
C25 C3 1_555 1_555
H5 C25 1_555 1_555
C26 C4 1_555 1_555
H6 C26 1_555 1_555
C27 C11 1_555 1_555
C28 C6 1_555 1_555
H7 C28 1_555 1_555
C29 C14 1_555 1_555
C30 H8 1_555 1_555
C31 C22 1_555 1_555
C32 C18 1_555 1_555
C33 C21 1_555 1_555
H9 C33 1_555 1_555
C34 H10 1_555 1_555
C35 C9 1_555 1_555
H11 C35 1_555 1_555
C36 C20 1_555 1_555
H12 C36 1_555 1_555
C37 C13 1_555 1_555
H13 C37 1_555 1_555
C38 C5 1_555 1_555
H14 C38 1_555 1_555
C39 C23 1_555 1_555
H15 C39 1_555 1_555
C40 C24 1_555 1_555
H16 C40 1_555 1_555
C41 C37 1_555 1_555
H17 C41 1_555 1_555
C42 C25 1_555 1_555
H18 C42 1_555 1_555
C43 C30 1_555 1_555
H19 C43 1_555 1_555
C44 C19 1_555 1_555
H20 C44 1_555 1_555
C45 C32 1_555 1_555
H21 C45 1_555 1_555
C46 C34 1_555 1_555
H22 C46 1_555 1_555
C47 C22 1_555 1_555
H23 C47 1_555 1_555
C48 C36 1_555 1_555
H24 C48 1_555 1_555
O3A C2A 1_555 1_555
O5A C2A 1_555 1_555
C2A C5A 1_555 1_555
C3A C7A 1_555 1_555
C5A C9A 1_555 1_555
C7A C8 1_555 1_555
C8A C7 1_555 1_555
C9A H2A 1_555 1_555
C17A C8A 1_555 1_555
C18A C17A 1_555 1_555
C25A C3A 1_555 1_555
H5A C25A 1_555 1_555
C32A C18A 1_555 1_555
C34A C7A 1_555 1_555
H10A C34A 1_555 1_555
C35A C9A 1_555 1_555
H11A C35A 1_555 1_555
C38A C5A 1_555 1_555
H14A C38A 1_555 1_555
C42A C25A 1_555 1_555
H18A C42A 1_555 1_555
C45A C32A 1_555 1_555
H21A C45A 1_555 1_555
C46A C34A 1_555 1_555
H22A C46A 1_555 1_555
Eu1A O1A 1_555 1_555
O1A C12A 1_555 1_555
O2A C1A 1_555 1_555
C1A O4A 1_555 1_555
O4A Eu1 1_555 1_555
O6A Eu1A 1_555 1_555
O7A C12A 1_555 1_555
O8A Eu1A 1_555 1_555
C4A H1A 1_555 1_555
O9A Eu1A 1_555 1_555
C6A C1A 1_555 1_555
C10A C15A 1_555 1_555
C11A C16A 1_555 1_555
C12A C19A 1_555 1_555
C13A C14A 1_555 1_555
C14A C15A 1_555 1_555
C15A C30A 1_555 1_555
C16A C10A 1_555 1_555
C19A C4A 1_555 1_555
C20A C13A 1_555 1_555
C21A C6A 1_555 1_555
H3A C21A 1_555 1_555
C22A C26A 1_555 1_555
C23A C27A 1_555 1_555
C24A C10A 1_555 1_555
H4A C24A 1_555 1_555
C26A C4A 1_555 1_555
H6A C26A 1_555 1_555
C27A C11A 1_555 1_555
C28A C6A 1_555 1_555
H7A C28A 1_555 1_555
C29A C14A 1_555 1_555
C30A H8A 1_555 1_555
C31A C22A 1_555 1_555
C33A C21A 1_555 1_555
H9A C33A 1_555 1_555
C36A C20A 1_555 1_555
H12A C36A 1_555 1_555
C37A C13A 1_555 1_555
H13A C37A 1_555 1_555
C39A C23A 1_555 1_555
H15A C39A 1_555 1_555
C40A C24A 1_555 1_555
H16A C40A 1_555 1_555
C41A C37A 1_555 1_555
H17A C41A 1_555 1_555
C43A C30A 1_555 1_555
H19A C43A 1_555 1_555
C44A C19A 1_555 1_555
H20A C44A 1_555 1_555
C47A C22A 1_555 1_555
H23A C47A 1_555 1_555
C48A C36A 1_555 1_555
H24A C48A 1_555 1_555
Eu1_2 O2 1_555 1_555
Eu1_3 O5A 1_555 1_555
Eu1A_2 O5 1_555 1_555
Eu1A_3 O3A 1_555 1_555
Eu1A_4 O2A 1_555 1_555
O2_2 Eu1 1_555 1_555
O2A_2 Eu1A 1_555 1_555
O3A_2 Eu1A 1_555 1_555
O5_2 Eu1A 1_555 1_555
O5A_2 Eu1 1_555 1_555
C16 C20 1_555 1_555
C23 C33 1_555 1_555
C28 C39 1_555 1_555
C29 C31 1_555 1_555
C32 C35 1_555 1_555
C38 C45 1_555 1_555
C40 C43 1_555 1_555
C41 C48 1_555 1_555
C42 C46 1_555 1_555
C44 C47 1_555 1_555
C3A C8A 1_555 1_555
C32A C35A 1_555 1_555
C38A C45A 1_555 1_555
C42A C46A 1_555 1_555
C16A C20A 1_555 1_555
C23A C33A 1_555 1_555
C28A C39A 1_555 1_555
C29A C31A 1_555 1_555
C40A C43A 1_555 1_555
C41A C48A 1_555 1_555
C44A C47A 1_555 1_555

#END
