
#######################################################################
#
#                 Cambridge Crystallographic Data Centre
#                                CCDC 
#
#######################################################################
#
# If this CIF has been generated from an entry in the Cambridge 
# Structural Database, then it will include bibliographic, chemical, 
# crystal, experimental, refinement or atomic coordinate data resulting 
# from the CCDC's data processing and validation procedures.
#
#######################################################################

data_NUNZUT
_chemical_formula_moiety         'C28 H34 Cu3 N7 O4 1-'
_symmetry_cell_setting           tetragonal
_symmetry_space_group_name_H-M   'P 4/n'
_symmetry_Int_Tables_number      85
_space_group_name_Hall           '-P 4a'
loop_
_symmetry_equiv_pos_site_id
_symmetry_equiv_pos_as_xyz
1 x,y,z
2 1/2-y,x,z
3 1/2-x,1/2-y,z
4 y,1/2-x,z
5 -x,-y,-z
6 1/2+y,-x,-z
7 1/2+x,1/2+y,-z
8 -y,1/2+x,-z
_cell_length_a                   16.417(2)
_cell_length_b                   16.417(2)
_cell_length_c                   6.598(2)
_cell_angle_alpha                90
_cell_angle_beta                 90
_cell_angle_gamma                90
_cell_volume                     1778.28
loop_
_atom_site_label
_atom_site_type_symbol
_atom_site_fract_x
_atom_site_fract_y
_atom_site_fract_z
N2 N -0.2442(12) 0.6218(8) 0.517(5)
O1 O -0.190(2) 0.612(2) 0.394(6)
O2 O -0.2390(15) 0.5938(15) 0.687(5)
O3 O -0.3055(13) 0.6606(12) 0.469(5)
O4 O -0.2572(17) 0.6457(18) -0.032(9)
Cu1 Cu 0.2500 0.7500 0.5000
N1 N 0.17140(13) 0.68652(13) 0.3194(3)
C1 C 0.19755(19) 0.62857(19) 0.1948(5)
H1 H 0.2534 0.6205 0.1839
C2 C 0.1471(2) 0.5798(2) 0.0807(5)
H2 H 0.1690 0.5393 -0.0016
C3 C 0.0643(2) 0.5911(2) 0.0891(5)
C4 C 0.03691(19) 0.6507(2) 0.2151(5)
H3 H -0.0187 0.6603 0.2268
C5 C 0.09081(18) 0.69683(17) 0.3250(5)
H4 H 0.0700 0.7376 0.4081
C6 C -0.0034(10) 0.5432(8) -0.026(3)
H5 H -0.0577 0.5642 0.0075
C7 C 0.0179(14) 0.5583(12) -0.258(2)
H6 H 0.0718 0.5386 -0.2853
H7 H 0.0152 0.6156 -0.2864
H8 H -0.0206 0.5299 -0.3414
N1D N -0.17140(13) 0.31348(13) -0.3194(3)
C1D C -0.19755(19) 0.37143(19) -0.1948(5)
H1D H -0.2534 0.3795 -0.1839
C2D C -0.1471(2) 0.4202(2) -0.0807(5)
H2D H -0.1690 0.4607 0.0016
C3D C -0.0643(2) 0.4089(2) -0.0891(5)
C4D C -0.03691(19) 0.3493(2) -0.2151(5)
H3D H 0.0187 0.3397 -0.2268
C5D C -0.09081(18) 0.30317(17) -0.3250(5)
H4D H -0.0700 0.2624 -0.4081
C6D C 0.0034(10) 0.4568(8) 0.026(3)
H5D H 0.0577 0.4358 -0.0075
C7D C -0.0179(14) 0.4417(12) 0.258(2)
H6D H -0.0718 0.4614 0.2853
H7D H -0.0152 0.3844 0.2864
H8D H 0.0206 0.4701 0.3414
N1B N 0.32860(13) 0.81348(13) 0.3194(3)
C1B C 0.30245(19) 0.87143(19) 0.1948(5)
H1B H 0.2466 0.8795 0.1839
C2B C 0.3529(2) 0.9202(2) 0.0807(5)
H2B H 0.3310 0.9607 -0.0016
C3B C 0.4357(2) 0.9089(2) 0.0891(5)
C4B C 0.46309(19) 0.8493(2) 0.2151(5)
H3B H 0.5187 0.8397 0.2268
C5B C 0.40919(18) 0.80317(17) 0.3250(5)
H4B H 0.4300 0.7624 0.4081
C6B C 0.5034(10) 0.9568(8) -0.026(3)
H5B H 0.5577 0.9358 0.0075
C7B C 0.4821(14) 0.9417(12) -0.258(2)
H6B H 0.4282 0.9614 -0.2853
H7B H 0.4848 0.8844 -0.2864
H8B H 0.5206 0.9701 -0.3414
N1F N 0.67140(13) 1.18652(13) -0.3194(3)
C1F C 0.69755(19) 1.12857(19) -0.1948(5)
H1F H 0.7534 1.1205 -0.1839
C2F C 0.6471(2) 1.0798(2) -0.0807(5)
H2F H 0.6690 1.0393 0.0016
C3F C 0.5643(2) 1.0911(2) -0.0891(5)
C4F C 0.53691(19) 1.1507(2) -0.2151(5)
H3F H 0.4813 1.1603 -0.2268
C5F C 0.59081(18) 1.19683(17) -0.3250(5)
H4F H 0.5700 1.2376 -0.4081
C6F C 0.4966(10) 1.0432(8) 0.026(3)
H5F H 0.4423 1.0642 -0.0075
C7F C 0.5179(14) 1.0583(12) 0.258(2)
H6F H 0.5718 1.0386 0.2853
H7F H 0.5152 1.1156 0.2864
H8F H 0.4794 1.0299 0.3414
Cu1A Cu -0.2500 0.2500 -0.5000
Cu1A_2 Cu 0.7500 1.2500 -0.5000
N1E N 0.18652(13) 0.82860(13) 0.6806(3)
N1G N 0.31348(13) 0.67140(13) 0.6806(3)
loop_
_geom_bond_atom_site_label_1
_geom_bond_atom_site_label_2
_geom_bond_site_symmetry_1
_geom_bond_site_symmetry_2
Cu1 N1 1_555 1_555
N1 C1 1_555 1_555
C1 H1 1_555 1_555
C2 C1 1_555 1_555
H2 C2 1_555 1_555
C3 C2 1_555 1_555
C4 C3 1_555 1_555
H3 C4 1_555 1_555
C5 N1 1_555 1_555
H4 C5 1_555 1_555
C6 C3 1_555 1_555
H5 C6 1_555 1_555
C7 C6 1_555 1_555
H6 C7 1_555 1_555
H7 C7 1_555 1_555
H8 C7 1_555 1_555
N2 O1 1_555 1_555
O2 N2 1_555 1_555
O3 N2 1_555 1_555
N1D C1D 1_555 1_555
C1D H1D 1_555 1_555
C2D C1D 1_555 1_555
H2D C2D 1_555 1_555
C3D C2D 1_555 1_555
C4D C3D 1_555 1_555
H3D C4D 1_555 1_555
C5D N1D 1_555 1_555
H4D C5D 1_555 1_555
C6D C6 1_555 1_555
H5D C6D 1_555 1_555
C7D C6D 1_555 1_555
H6D C7D 1_555 1_555
H7D C7D 1_555 1_555
H8D C7D 1_555 1_555
N1B Cu1 1_555 1_555
C1B N1B 1_555 1_555
H1B C1B 1_555 1_555
C2B C1B 1_555 1_555
H2B C2B 1_555 1_555
C3B C2B 1_555 1_555
C4B C3B 1_555 1_555
H3B C4B 1_555 1_555
C5B N1B 1_555 1_555
H4B C5B 1_555 1_555
C6B C3B 1_555 1_555
H5B C6B 1_555 1_555
C7B C6B 1_555 1_555
H6B C7B 1_555 1_555
H7B C7B 1_555 1_555
H8B C7B 1_555 1_555
N1F C1F 1_555 1_555
C1F H1F 1_555 1_555
C2F C1F 1_555 1_555
H2F C2F 1_555 1_555
C3F C2F 1_555 1_555
C4F C3F 1_555 1_555
H3F C4F 1_555 1_555
C5F N1F 1_555 1_555
H4F C5F 1_555 1_555
C6F C6B 1_555 1_555
H5F C6F 1_555 1_555
C7F C6F 1_555 1_555
H6F C7F 1_555 1_555
H7F C7F 1_555 1_555
H8F C7F 1_555 1_555
Cu1A N1D 1_555 1_555
Cu1A_2 N1F 1_555 1_555
N1E Cu1 1_555 1_555
N1G Cu1 1_555 1_555
C4 C5 1_555 1_555
C3D C6D 1_555 1_555
C4D C5D 1_555 1_555
C4B C5B 1_555 1_555
C3F C6F 1_555 1_555
C4F C5F 1_555 1_555

#END
