
#######################################################################
#
#                 Cambridge Crystallographic Data Centre
#                                CCDC 
#
#######################################################################
#
# If this CIF has been generated from an entry in the Cambridge 
# Structural Database, then it will include bibliographic, chemical, 
# crystal, experimental, refinement or atomic coordinate data resulting 
# from the CCDC's data processing and validation procedures.
#
#######################################################################

data_ELUZES
_chemical_formula_moiety         '(C26 H36 Ag5 Cd2 N11)n'
_symmetry_cell_setting           monoclinic
_symmetry_space_group_name_H-M   'C 2/c'
_symmetry_Int_Tables_number      15
_space_group_name_Hall           '-C 2yc'
loop_
_symmetry_equiv_pos_site_id
_symmetry_equiv_pos_as_xyz
1 x,y,z
2 1/2+x,1/2+y,z
3 -x,y,1/2-z
4 1/2-x,1/2+y,1/2-z
5 -x,-y,-z
6 1/2-x,1/2-y,-z
7 x,-y,1/2+z
8 1/2+x,1/2-y,1/2+z
_cell_length_a                   16.2798(2)
_cell_length_b                   13.9248(2)
_cell_length_c                   18.0439(2)
_cell_angle_alpha                90
_cell_angle_beta                 106.0823(5)
_cell_angle_gamma                90
_cell_volume                     3930.35
loop_
_atom_site_label
_atom_site_type_symbol
_atom_site_fract_x
_atom_site_fract_y
_atom_site_fract_z
_atom_site_U_iso_or_equiv
_atom_site_thermal_displace_type
Cd1 Cd 0.188556(10) 0.298112(12) 0.158345(9) 0.0170 Uani
N1 N 0.23377(14) 0.36799(16) 0.27650(12) 0.0269 Uani
C1 C 0.24464(17) 0.40816(19) 0.33350(15) 0.0270 Uani
Ag1 Ag 0.250969(13) 0.491617(15) 0.429726(11) 0.0288 Uani
C2 C 0.24325(18) 0.5706(2) 0.52439(15) 0.0283 Uani
N2 N 0.23361(15) 0.61587(17) 0.57412(13) 0.0305 Uani
N3 N 0.11421(14) 0.16754(16) 0.09809(13) 0.0269 Uani
C3 C 0.07535(17) 0.10636(19) 0.06337(15) 0.0277 Uani
Ag2 Ag 0.0000 0.0000 0.0000 0.0279 Uani
Ag3 Ag -0.072053(13) 0.525199(15) 0.176953(13) 0.0324 Uani
C4 C 0.01142(18) 0.4244(2) 0.15564(17) 0.0344 Uani
N4 N 0.06325(15) 0.37263(19) 0.14924(15) 0.0380 Uani
C5 C -0.15006(16) 0.63636(19) 0.19195(16) 0.0283 Uani
N5 N -0.19735(14) 0.69592(16) 0.19322(14) 0.0288 Uani
Cd1D Cd -0.188556(10) -0.298112(12) -0.158345(9) 0.0170 Uani
N1D N -0.23377(14) -0.36799(16) -0.27650(12) 0.0269 Uani
C1D C -0.24464(17) -0.40816(19) -0.33350(15) 0.0270 Uani
Ag1D Ag -0.250969(13) -0.491617(15) -0.429726(11) 0.0288 Uani
C2D C -0.24325(18) -0.5706(2) -0.52439(15) 0.0283 Uani
N2D N -0.23361(15) -0.61587(17) -0.57412(13) 0.0305 Uani
N3D N -0.11421(14) -0.16754(16) -0.09809(13) 0.0269 Uani
C3D C -0.07535(17) -0.10636(19) -0.06337(15) 0.0277 Uani
Ag3D Ag 0.072053(13) -0.525199(15) -0.176953(13) 0.0324 Uani
C4D C -0.01142(18) -0.4244(2) -0.15564(17) 0.0344 Uani
N4D N -0.06325(15) -0.37263(19) -0.14924(15) 0.0380 Uani
C5D C 0.15006(16) -0.63636(19) -0.19195(16) 0.0283 Uani
N5D N 0.19735(14) -0.69592(16) -0.19322(14) 0.0288 Uani
Cd1A Cd -0.311444(10) 0.798112(12) 0.158345(9) 0.0170 Uani
Cd1E Cd 0.311444(10) -0.798112(12) -0.158345(9) 0.0170 Uani
Cd1B Cd -0.188556(10) -0.701888(12) -0.658345(9) 0.0170 Uani
Cd1F Cd 0.188556(10) 0.701888(12) 0.658345(9) 0.0170 Uani
N2B N -0.23361(15) -0.38413(17) -0.07412(13) 0.0305 Uani
N2F N 0.23361(15) 0.38413(17) 0.07412(13) 0.0305 Uani
N5A N 0.30265(14) 0.19592(16) 0.19322(14) 0.0288 Uani
N5E N -0.30265(14) -0.19592(16) -0.19322(14) 0.0288 Uani
N6 N 0.5000 0.4491(2) 0.2500 0.0222 Uani
C6 C 0.56145(17) 0.51123(19) 0.31028(15) 0.0256 Uani
C7 C 0.61279(19) 0.5848(2) 0.27958(16) 0.0339 Uani
C8 C 0.6770(2) 0.6361(2) 0.34504(18) 0.0377 Uani
C9 C 0.6399(3) 0.6924(3) 0.3983(3) 0.0711 Uani
C10 C 0.44801(16) 0.38731(19) 0.29017(15) 0.0255 Uani
C11 C 0.49609(18) 0.3113(2) 0.34573(16) 0.0300 Uani
C12 C 0.43704(19) 0.2682(2) 0.38909(16) 0.0337 Uani
C13 C 0.4769(3) 0.1845(2) 0.44058(19) 0.0454 Uani
H1 H 0.6008 0.4662 0.3452 0.0301 Uiso
H2 H 0.5267 0.5458 0.3388 0.0304 Uiso
H3 H 0.6428 0.5551 0.2465 0.0391 Uiso
H4 H 0.5737 0.6318 0.2496 0.0391 Uiso
H5 H 0.7095 0.6794 0.3227 0.0439 Uiso
H6 H 0.7154 0.5891 0.3744 0.0442 Uiso
H7 H 0.6842 0.7273 0.4338 0.1020 Uiso
H8 H 0.5981 0.7358 0.3684 0.1014 Uiso
H9 H 0.6130 0.6475 0.4262 0.1019 Uiso
H10 H 0.4208 0.4298 0.3186 0.0289 Uiso
H11 H 0.4035 0.3568 0.2504 0.0294 Uiso
H12 H 0.5461 0.3415 0.3821 0.0351 Uiso
H13 H 0.5146 0.2618 0.3169 0.0354 Uiso
H14 H 0.4222 0.3189 0.4211 0.0382 Uiso
H15 H 0.3863 0.2460 0.3516 0.0377 Uiso
H16 H 0.4370 0.1624 0.4685 0.0659 Uiso
H17 H 0.5318 0.2021 0.4762 0.0665 Uiso
H18 H 0.4865 0.1318 0.4087 0.0660 Uiso
C6B C 0.43855(17) 0.51123(19) 0.18972(15) 0.0256 Uani
C7B C 0.38721(19) 0.5848(2) 0.22042(16) 0.0339 Uani
C8B C 0.3230(2) 0.6361(2) 0.15496(18) 0.0377 Uani
C9B C 0.3601(3) 0.6924(3) 0.1017(3) 0.0711 Uani
C10B C 0.55199(16) 0.38731(19) 0.20983(15) 0.0255 Uani
C11B C 0.50391(18) 0.3113(2) 0.15427(16) 0.0300 Uani
C12B C 0.56296(19) 0.2682(2) 0.11091(16) 0.0337 Uani
C13B C 0.5231(3) 0.1845(2) 0.05942(19) 0.0454 Uani
H1B H 0.3992 0.4662 0.1548 0.0301 Uiso
H2B H 0.4733 0.5458 0.1612 0.0304 Uiso
H3B H 0.3572 0.5551 0.2535 0.0391 Uiso
H4B H 0.4263 0.6318 0.2504 0.0391 Uiso
H5B H 0.2905 0.6794 0.1773 0.0439 Uiso
H6B H 0.2846 0.5891 0.1256 0.0442 Uiso
H7B H 0.3158 0.7273 0.0662 0.1020 Uiso
H8B H 0.4019 0.7358 0.1316 0.1014 Uiso
H9B H 0.3870 0.6475 0.0738 0.1019 Uiso
H10B H 0.5792 0.4298 0.1814 0.0289 Uiso
H11B H 0.5965 0.3568 0.2496 0.0294 Uiso
H12B H 0.4539 0.3415 0.1179 0.0351 Uiso
H13B H 0.4854 0.2618 0.1831 0.0354 Uiso
H14B H 0.5778 0.3189 0.0789 0.0382 Uiso
H15B H 0.6137 0.2460 0.1484 0.0377 Uiso
H16B H 0.5630 0.1624 0.0315 0.0659 Uiso
H17B H 0.4682 0.2021 0.0238 0.0665 Uiso
H18B H 0.5135 0.1318 0.0913 0.0660 Uiso
loop_
_atom_site_aniso_label
_atom_site_aniso_U_11
_atom_site_aniso_U_22
_atom_site_aniso_U_33
_atom_site_aniso_U_23
_atom_site_aniso_U_13
_atom_site_aniso_U_12
Cd1 0.01798(9) 0.01554(9) 0.01812(9) -0.00122(6) 0.00583(6) 0.00275(6)
N1 0.0275(11) 0.0294(12) 0.0236(11) -0.0049(9) 0.0066(9) 0.0057(9)
C1 0.0267(13) 0.0278(13) 0.0270(13) -0.0035(11) 0.0084(10) 0.0049(11)
Ag1 0.03309(12) 0.03237(12) 0.02009(10) -0.00758(8) 0.00612(8) 0.00443(8)
C2 0.0319(14) 0.0321(14) 0.0207(12) -0.0014(11) 0.0068(10) 0.0030(12)
N2 0.0373(13) 0.0307(12) 0.0249(11) -0.0044(9) 0.0107(10) -0.0001(10)
N3 0.0255(11) 0.0222(11) 0.0317(11) -0.0042(9) 0.0060(9) 0.0000(9)
C3 0.0291(13) 0.0251(13) 0.0297(13) -0.0011(11) 0.0095(11) 0.0014(11)
Ag2 0.03380(16) 0.02350(14) 0.02583(14) -0.00519(10) 0.00754(12) -0.00735(11)
Ag3 0.02117 0.02767 0.04574 -0.00767 0.00481 0.00946
C4 0.0271 0.0344 0.0394 -0.0078 0.0053 0.0054
N4 0.0245 0.0408 0.0448 -0.0142 0.0031 0.0112
C5 0.0217 0.0242 0.0364 -0.0049 0.0036 0.0003
N5 0.0252 0.0243 0.0341 -0.0049 0.0037 0.0081
Cd1D 0.01798 0.01554 0.01812 -0.00122 0.00583 0.00275
N1D 0.0275 0.0294 0.0236 -0.0049 0.0066 0.0057
C1D 0.0267 0.0278 0.027 -0.0035 0.0084 0.0049
Ag1D 0.03309 0.03237 0.02009 -0.00758 0.00612 0.00443
C2D 0.0319 0.0321 0.0207 -0.0014 0.0068 0.003
N2D 0.0373 0.0307 0.0249 -0.0044 0.0107 -0.0001
N3D 0.0255 0.0222 0.0317 -0.0042 0.006 0
C3D 0.0291 0.0251 0.0297 -0.0011 0.0095 0.0014
Ag3D 0.02117 0.02767 0.04574 -0.00767 0.00481 0.00946
C4D 0.0271 0.0344 0.0394 -0.0078 0.0053 0.0054
N4D 0.0245 0.0408 0.0448 -0.0142 0.0031 0.0112
C5D 0.0217 0.0242 0.0364 -0.0049 0.0036 0.0003
N5D 0.0252 0.0243 0.0341 -0.0049 0.0037 0.0081
Cd1A 0.01798 0.01554 0.01812 -0.00122 0.00583 0.00275
Cd1E 0.01798 0.01554 0.01812 -0.00122 0.00583 0.00275
Cd1B 0.01798 0.01554 0.01812 0.00122 0.00583 -0.00275
Cd1F 0.01798 0.01554 0.01812 0.00122 0.00583 -0.00275
N2B 0.0373 0.0307 0.0249 0.0044 0.0107 0.0001
N2F 0.0373 0.0307 0.0249 0.0044 0.0107 0.0001
N5A 0.0252 0.0243 0.0341 -0.0049 0.0037 0.0081
N5E 0.0252 0.0243 0.0341 -0.0049 0.0037 0.0081
N6 0.0202(14) 0.0258(15) 0.0211(14) 0.0000 0.0064(11) 0.0000
C6 0.0252(13) 0.0279(13) 0.0231(12) -0.0028(10) 0.0056(10) -0.0022(10)
C7 0.0374(15) 0.0344(15) 0.0329(14) -0.0014(12) 0.0146(12) -0.0091(12)
C8 0.0351(15) 0.0328(15) 0.0424(16) 0.0025(13) 0.0060(13) -0.0115(13)
C9 0.078(3) 0.069(3) 0.074(3) -0.036(2) 0.034(2) -0.037(2)
C10 0.0239(12) 0.0278(13) 0.0263(13) -0.0011(10) 0.0096(10) -0.0023(10)
C11 0.0296(14) 0.0302(14) 0.0316(14) 0.0023(11) 0.0108(11) 0.0029(11)
C12 0.0381(15) 0.0363(15) 0.0268(13) 0.0020(12) 0.0093(11) -0.0067(13)
C13 0.066(2) 0.0360(17) 0.0364(16) 0.0076(13) 0.0180(15) -0.0002(16)
C6B 0.0252 0.0279 0.0231 0.0028 0.0056 0.0022
C7B 0.0374 0.0344 0.0329 0.0014 0.0146 0.0091
C8B 0.0351 0.0328 0.0424 -0.0025 0.006 0.0115
C9B 0.078 0.069 0.074 0.036 0.034 0.037
C10B 0.0239 0.0278 0.0263 0.0011 0.0096 0.0023
C11B 0.0296 0.0302 0.0316 -0.0023 0.0108 -0.0029
C12B 0.0381 0.0363 0.0268 -0.002 0.0093 0.0067
C13B 0.066 0.036 0.0364 -0.0076 0.018 0.0002
loop_
_geom_bond_atom_site_label_1
_geom_bond_atom_site_label_2
_geom_bond_site_symmetry_1
_geom_bond_site_symmetry_2
Cd1 N1 1_555 1_555
N1 C1 1_555 1_555
C1 Ag1 1_555 1_555
Ag1 C2 1_555 1_555
C2 N2 1_555 1_555
N2 Cd1F 1_555 1_555
N3 Cd1 1_555 1_555
C3 N3 1_555 1_555
Ag2 C3 1_555 1_555
Ag3 C4 1_555 1_555
C4 N4 1_555 1_555
N4 Cd1 1_555 1_555
C5 Ag3 1_555 1_555
N5 C5 1_555 1_555
N6 C6 1_555 1_555
C6 C7 1_555 1_555
C7 C8 1_555 1_555
C8 C9 1_555 1_555
C9 H7 1_555 1_555
C10 N6 1_555 1_555
C11 C10 1_555 1_555
C12 C11 1_555 1_555
C13 C12 1_555 1_555
H1 C6 1_555 1_555
H2 C6 1_555 1_555
H3 C7 1_555 1_555
H4 C7 1_555 1_555
H5 C8 1_555 1_555
H6 C8 1_555 1_555
H8 C9 1_555 1_555
H9 C9 1_555 1_555
H10 C10 1_555 1_555
H11 C10 1_555 1_555
H12 C11 1_555 1_555
H13 C11 1_555 1_555
H14 C12 1_555 1_555
H15 C12 1_555 1_555
H16 C13 1_555 1_555
H17 C13 1_555 1_555
H18 C13 1_555 1_555
Cd1D N1D 1_555 1_555
N1D C1D 1_555 1_555
C1D Ag1D 1_555 1_555
Ag1D C2D 1_555 1_555
C2D N2D 1_555 1_555
N2D Cd1B 1_555 1_555
N3D Cd1D 1_555 1_555
C3D Ag2 1_555 1_555
Ag3D C4D 1_555 1_555
C4D N4D 1_555 1_555
N4D Cd1D 1_555 1_555
C5D Ag3D 1_555 1_555
N5D C5D 1_555 1_555
Cd1A N5 1_555 1_555
Cd1E N5D 1_555 1_555
N2B Cd1D 1_555 1_555
N2F Cd1 1_555 1_555
N5A Cd1 1_555 1_555
N5E Cd1D 1_555 1_555
C6B N6 1_555 1_555
C7B C6B 1_555 1_555
C8B C7B 1_555 1_555
C9B C8B 1_555 1_555
C10B N6 1_555 1_555
C11B C10B 1_555 1_555
C12B C11B 1_555 1_555
C13B C12B 1_555 1_555
H1B C6B 1_555 1_555
H2B C6B 1_555 1_555
H3B C7B 1_555 1_555
H4B C7B 1_555 1_555
H5B C8B 1_555 1_555
H6B C8B 1_555 1_555
H7B C9B 1_555 1_555
H8B C9B 1_555 1_555
H9B C9B 1_555 1_555
H10B C10B 1_555 1_555
H11B C10B 1_555 1_555
H12B C11B 1_555 1_555
H13B C11B 1_555 1_555
H14B C12B 1_555 1_555
H15B C12B 1_555 1_555
H16B C13B 1_555 1_555
H17B C13B 1_555 1_555
H18B C13B 1_555 1_555
N3D C3D 1_555 1_555

#END
