
#######################################################################
#
#                 Cambridge Crystallographic Data Centre
#                                CCDC 
#
#######################################################################
#
# If this CIF has been generated from an entry in the Cambridge 
# Structural Database, then it will include bibliographic, chemical, 
# crystal, experimental, refinement or atomic coordinate data resulting 
# from the CCDC's data processing and validation procedures.
#
#######################################################################

data_LIRTUC
_chemical_formula_moiety         'C35 H36 Cd6 N1 O18 1+'
_symmetry_cell_setting           tetragonal
_symmetry_space_group_name_H-M   'P 42 21 2'
_symmetry_Int_Tables_number      94
_space_group_name_Hall           'P 4n 2n'
loop_
_symmetry_equiv_pos_site_id
_symmetry_equiv_pos_as_xyz
1 x,y,z
2 -x,-y,z
3 1/2-y,1/2+x,1/2+z
4 1/2+y,1/2-x,1/2+z
5 1/2-x,1/2+y,1/2-z
6 1/2+x,1/2-y,1/2-z
7 y,x,-z
8 -y,-x,-z
_cell_length_a                   13.4003(2)
_cell_length_b                   13.4003(2)
_cell_length_c                   24.3669(5)
_cell_angle_alpha                90
_cell_angle_beta                 90
_cell_angle_gamma                90
_cell_volume                     4375.52
loop_
_atom_site_label
_atom_site_type_symbol
_atom_site_fract_x
_atom_site_fract_y
_atom_site_fract_z
N1 N 1.0000 0.5000 0.3148(8)
C15 C 0.950(3) 0.568(3) 0.3471(16)
C15A C 1.050(3) 0.432(3) 0.3471(16)
Cd1 Cd 0.88472(8) 0.42743(8) 0.15551(5)
O1 O 0.7253(7) 0.4221(8) 0.2031(4)
O2 O 0.8655(9) 0.4042(8) 0.2500(4)
O3 O 0.6925(10) 0.0808(9) 0.3854(4)
O4 O 0.5584(8) 0.0869(7) 0.3324(4)
O5 O 0.8439(11) 0.2732(9) 0.1238(5)
O6 O 0.9206(9) 0.3684(9) 0.0657(5)
C1 C 0.7155(10) 0.3762(10) 0.2975(6)
C2 C 0.6690(12) 0.2740(11) 0.2935(6)
C3 C 0.6388(12) 0.2446(11) 0.3508(5)
H1 H 0.5724 0.2724 0.3580
C4 C 0.7113(16) 0.2935(18) 0.3892(8)
H2 H 0.7539 0.2448 0.4070
H3 H 0.6771 0.3326 0.4170
C5 C 0.7705(14) 0.3600(16) 0.3501(7)
H4 H 0.7830 0.4239 0.3675
H5 H 0.8344 0.3291 0.3424
C6 C 0.6252(15) 0.4419(17) 0.3005(10)
H6 H 0.6457 0.5104 0.3028
H7 H 0.5868 0.4249 0.3325
H8 H 0.5851 0.4323 0.2683
C7 C 0.5806(16) 0.259(2) 0.2561(9)
H9 H 0.6014 0.2664 0.2186
H10 H 0.5304 0.3080 0.2644
H11 H 0.5538 0.1934 0.2615
C8 C 0.7333(13) 0.1967(12) 0.2674(6)
H12 H 0.7527 0.2187 0.2314
H13 H 0.6968 0.1353 0.2645
H14 H 0.7917 0.1863 0.2894
C9 C 0.7695(14) 0.4038(11) 0.2465(7)
C10 C 0.6338(16) 0.1305(12) 0.3600(7)
C11 C 0.8893(10) 0.1975(10) 0.0356(5)
C12 C 0.894(2) 0.0948(15) 0.0626(11)
C13 C 0.7281(8) 0.2719(8) 0.0000
C14 C 0.8871(14) 0.2891(15) 0.0781(6)
C16 C 0.7825(10) 0.1774(12) 0.0158(7)
C17 C 0.9552(13) 0.219(2) -0.0144(9)
C18 C 0.725(3) 0.114(2) 0.0570(16)
Cd1D Cd 0.61528(8) 0.92743(8) 0.34449(5)
Cd1D_2 Cd 0.61528(8) -0.07257(8) 0.34449(5)
Cd1E Cd 0.38472(8) 0.07257(8) 0.34449(5)
Cd1G Cd 0.57257(8) 0.11528(8) -0.15551(5)
Cd1A Cd 1.11528(8) 0.57257(8) 0.15551(5)
O1D O 0.7747(7) 0.9221(8) 0.2969(4)
O2D O 0.6345(9) 0.9042(8) 0.2500(4)
O3D O 0.8075(10) 0.5808(9) 0.1146(4)
O3_2 O 0.6925(10) 1.0808(9) 0.3854(4)
O4D O 0.9416(8) 0.5869(7) 0.1676(4)
O4E O 1.0584(8) 0.4131(7) 0.1676(4)
O4_2 O 0.5584(8) 1.0869(7) 0.3324(4)
O4A O 0.4416(8) 0.9131(7) 0.3324(4)
O5G O 0.7268(9) 0.1561(11) -0.1238(5)
O5D O 0.6561(11) 0.7732(9) 0.3762(5)
O6G O 0.6316(9) 0.0794(9) -0.0657(5)
O6D O 0.5794(9) 0.8684(9) 0.4343(5)
C1D C 0.7845(10) 0.8762(10) 0.2025(6)
C2D C 0.8310(12) 0.7740(11) 0.2065(6)
C3D C 0.8612(12) 0.7446(11) 0.1492(5)
H1D H 0.9276 0.7724 0.1420
C4D C 0.7887(16) 0.7935(18) 0.1108(8)
H2D H 0.7461 0.7448 0.0930
H3D H 0.8229 0.8326 0.0830
C5D C 0.7295(14) 0.8600(16) 0.1499(7)
H4D H 0.7170 0.9239 0.1325
H5D H 0.6656 0.8291 0.1576
C6D C 0.8748(15) 0.9419(17) 0.1995(10)
H6D H 0.8543 1.0104 0.1972
H7D H 0.9132 0.9249 0.1675
H8D H 0.9149 0.9323 0.2317
C7D C 0.9194(16) 0.759(2) 0.2439(9)
H9D H 0.8986 0.7664 0.2814
H10D H 0.9696 0.8080 0.2356
H11D H 0.9462 0.6934 0.2385
C8D C 0.7667(13) 0.6967(12) 0.2326(6)
H12D H 0.7473 0.7187 0.2686
H13D H 0.8032 0.6353 0.2355
H14D H 0.7083 0.6863 0.2106
C9D C 0.7305(14) 0.9038(11) 0.2535(7)
C10D C 0.8662(16) 0.6305(12) 0.1400(7)
C11G C 0.8025(10) 0.1107(10) -0.0356(5)
C12G C 0.9052(15) 0.106(2) -0.0626(11)
C14G C 0.7109(15) 0.1129(14) -0.0781(6)
C16G C 0.8226(12) 0.2175(10) -0.0158(7)
C17G C 0.781(2) 0.0448(13) 0.0144(9)
C18G C 0.886(2) 0.275(3) -0.0570(16)
loop_
_geom_bond_atom_site_label_1
_geom_bond_atom_site_label_2
_geom_bond_site_symmetry_1
_geom_bond_site_symmetry_2
Cd1 O1 1_555 1_555
O1 C9 1_555 1_555
O2 Cd1 1_555 1_555
O3 C10 1_555 1_555
O4 C10 1_555 1_555
O5 Cd1 1_555 1_555
O6 Cd1 1_555 1_555
N1 C15 1_555 1_555
C1 C2 1_555 1_555
C2 C3 1_555 1_555
C3 H1 1_555 1_555
C4 C3 1_555 1_555
H2 C4 1_555 1_555
H3 C4 1_555 1_555
C5 C1 1_555 1_555
H4 C5 1_555 1_555
H5 C5 1_555 1_555
C6 C1 1_555 1_555
H6 C6 1_555 1_555
H7 C6 1_555 1_555
H8 C6 1_555 1_555
C7 C2 1_555 1_555
H9 C7 1_555 1_555
H10 C7 1_555 1_555
H11 C7 1_555 1_555
C8 C2 1_555 1_555
H12 C8 1_555 1_555
H13 C8 1_555 1_555
H14 C8 1_555 1_555
C9 O2 1_555 1_555
C10 C3 1_555 1_555
C11 C12 1_555 1_555
C13 C16 1_555 1_555
C14 O5 1_555 1_555
C16 C11 1_555 1_555
C17 C11 1_555 1_555
C18 C16 1_555 1_555
Cd1D O1D 1_555 1_555
Cd1D_2 O3 1_555 1_555
Cd1E O4 1_555 1_555
Cd1G O5G 1_555 1_555
Cd1A O4D 1_555 1_555
O1D C9D 1_555 1_555
O2D Cd1D 1_555 1_555
O3D Cd1 1_555 1_555
O3_2 Cd1D 1_555 1_555
O4D Cd1 1_555 1_555
O4E Cd1 1_555 1_555
O4_2 Cd1D 1_555 1_555
O4A Cd1D 1_555 1_555
O5G C14G 1_555 1_555
O5D Cd1D 1_555 1_555
O6G Cd1G 1_555 1_555
O6D Cd1D 1_555 1_555
C1D C2D 1_555 1_555
C2D C3D 1_555 1_555
C3D H1D 1_555 1_555
C4D C3D 1_555 1_555
H2D C4D 1_555 1_555
H3D C4D 1_555 1_555
C5D C1D 1_555 1_555
H4D C5D 1_555 1_555
H5D C5D 1_555 1_555
C6D C1D 1_555 1_555
H6D C6D 1_555 1_555
H7D C6D 1_555 1_555
H8D C6D 1_555 1_555
C7D C2D 1_555 1_555
H9D C7D 1_555 1_555
H10D C7D 1_555 1_555
H11D C7D 1_555 1_555
C8D C2D 1_555 1_555
H12D C8D 1_555 1_555
H13D C8D 1_555 1_555
H14D C8D 1_555 1_555
C9D O2D 1_555 1_555
C10D O3D 1_555 1_555
C11G C16 1_555 1_555
C12G C11G 1_555 1_555
C14G O6G 1_555 1_555
C15A N1 1_555 1_555
C16G C11 1_555 1_555
C17G C18 1_555 1_555
C18G C17 1_555 1_555
O4 Cd1D_2 1_555 1_555
O6 C14 1_555 1_555
C1 C9 1_555 1_555
C4 C5 1_555 1_555
C11 C14 1_555 1_555
C13 C16G 1_555 1_555
C16 C16G 1_555 1_555
Cd1A O4E 1_555 1_555
O4D C10D 1_555 1_555
C1D C9D 1_555 1_555
C3D C10D 1_555 1_555
C4D C5D 1_555 1_555
C11G C14G 1_555 1_555
C11G C16G 1_555 1_555
C11G C17G 1_555 1_555
C16G C18G 1_555 1_555

#END
