
#######################################################################
#
#                 Cambridge Crystallographic Data Centre
#                                CCDC 
#
#######################################################################
#
# If this CIF has been generated from an entry in the Cambridge 
# Structural Database, then it will include bibliographic, chemical, 
# crystal, experimental, refinement or atomic coordinate data resulting 
# from the CCDC's data processing and validation procedures.
#
#######################################################################

data_QOXNIB
_chemical_formula_moiety         '(C5 H12 Cu4 N20 O8 S1)n'
_symmetry_cell_setting           orthorhombic
_symmetry_space_group_name_H-M   'P n n m'
_symmetry_Int_Tables_number      58
_space_group_name_Hall           '-P 2 2n'
loop_
_symmetry_equiv_pos_site_id
_symmetry_equiv_pos_as_xyz
1 x,y,z
2 -x,-y,z
3 1/2-x,1/2+y,1/2-z
4 1/2+x,1/2-y,1/2-z
5 -x,-y,-z
6 x,y,-z
7 1/2+x,1/2-y,1/2+z
8 1/2-x,1/2+y,1/2+z
_cell_length_a                   12.016(3)
_cell_length_b                   12.167(3)
_cell_length_c                   13.850(3)
_cell_angle_alpha                90
_cell_angle_beta                 90
_cell_angle_gamma                90
_cell_volume                     2024.85
loop_
_atom_site_label
_atom_site_type_symbol
_atom_site_fract_x
_atom_site_fract_y
_atom_site_fract_z
Cu1 Cu 0.46912(6) 0.66643(6) 0.88280(5)
Cu2 Cu 0.24059(6) 0.75267(5) 0.74805(5)
S1 S 0.27217(18) 0.83113(18) 1.0000
O1 O 0.3038(4) 0.7666(4) 0.9130(3)
O2 O 0.1533(6) 0.8525(6) 1.0000
O3 O 0.3350(7) 0.9347(6) 1.0000
N1 N 0.7086(4) 0.5858(4) 0.7624(3)
N2 N 0.6241(4) 0.5461(4) 0.8138(3)
N3 N 0.6314(4) 0.4391(4) 0.8127(3)
N4 N 0.7199(4) 0.4073(4) 0.7609(3)
N5 N 0.4029(4) 0.7868(4) 0.7109(4)
N6 N 0.4891(4) 0.7521(4) 0.7595(3)
N7 N 0.5816(4) 0.7827(4) 0.7141(4)
N8 N 0.4366(5) 0.8427(5) 0.6330(4)
N9 N 0.5931(4) 0.7433(4) 0.9519(4)
N10 N 0.6895(4) 0.7819(4) 0.9199(4)
C1 C 0.7666(5) 0.5005(4) 0.7308(5)
H1 H 0.8305 0.5050 0.6931
C2 C 0.5475(5) 0.8390(5) 0.6367(5)
H2 H 0.5946 0.8712 0.5916
C3 C 0.7447(7) 0.8057(8) 1.0000
H3 H 0.8156 0.8363 1.0000
O4 O 0.4385(5) 0.5894(5) 1.0000
H4 H 0.3892 0.5417 1.0000
Cu1E Cu 0.46912(6) 0.66643(6) 1.11720(5)
Cu1A Cu 0.53088(6) 0.33357(6) 0.88280(5)
Cu1C Cu -0.03088(6) 0.83357(6) 0.61720(5)
Cu2E Cu 0.24059(6) 0.75267(5) 1.25195(5)
Cu2C Cu 0.74059(6) 0.74733(5) 0.75195(5)
Cu2A Cu 0.75941(6) 0.24733(5) 0.74805(5)
Cu2F Cu 0.74059(6) 0.74733(5) 1.24805(5)
Cu2B Cu 0.25941(6) 0.25267(5) 0.75195(5)
Cu2C_2 Cu -0.25941(6) 0.74733(5) 0.75195(5)
O1E O 0.3038(4) 0.7666(4) 1.0870(3)
N1A N 0.2914(4) 0.4142(4) 0.7624(3)
N1C N 0.2086(4) 0.9142(4) 0.7376(3)
N1F N 0.2086(4) 0.9142(4) 1.2624(3)
N2A N 0.3759(4) 0.4539(4) 0.8138(3)
N2E N 0.6241(4) 0.5461(4) 1.1862(3)
N3A N 0.3686(4) 0.5609(4) 0.8127(3)
N3D N 0.3686(4) 0.5609(4) 1.1873(3)
N4A N 0.2801(4) 0.5927(4) 0.7609(3)
N4D N 0.2801(4) 0.5927(4) 1.2391(3)
N5C N -0.0971(4) 0.7132(4) 0.7891(4)
N5E N 0.4029(4) 0.7868(4) 1.2891(4)
N6C N -0.0109(4) 0.7479(4) 0.7405(3)
N6E N 0.4891(4) 0.7521(4) 1.2405(3)
N7C N 0.0816(4) 0.7173(4) 0.7859(4)
N7F N 0.0816(4) 0.7173(4) 1.2141(4)
N8C N -0.0634(5) 0.6573(5) 0.8670(4)
N9E N 0.5931(4) 0.7433(4) 1.0481(4)
N10E N 0.6895(4) 0.7819(4) 1.0801(4)
N10C N 0.1895(4) 0.7181(4) 0.5801(4)
N10F N 0.1895(4) 0.7181(4) 1.4199(4)
C1A C 0.2334(5) 0.4995(4) 0.7308(5)
H1A H 0.1695 0.4950 0.6931
C2C C 0.0475(5) 0.6610(5) 0.8633(5)
H2C H 0.0946 0.6288 0.9084
O5 O 0.2099(6) 0.5085(7) 1.0000
H5 H 0.1839 0.4749 0.9508
H5E H 0.1839 0.4749 1.0492
O6 O 0.5000 1.0000 1.1250(6)
H6 H 0.5530 1.0346 1.1022
H6A H 0.4470 0.9654 1.1022
O7 O 0.0000 1.0000 0.8887(10)
H7 H 0.0544 0.9727 0.9169
H7A H -0.0544 1.0273 0.9169
loop_
_geom_bond_atom_site_label_1
_geom_bond_atom_site_label_2
_geom_bond_site_symmetry_1
_geom_bond_site_symmetry_2
Cu1 O1 1_555 1_555
Cu2 O1 1_555 1_555
S1 O1 1_555 1_555
O2 S1 1_555 1_555
O3 S1 1_555 1_555
N1 N2 1_555 1_555
N2 Cu1 1_555 1_555
N3 N2 1_555 1_555
N4 N3 1_555 1_555
N5 Cu2 1_555 1_555
N6 Cu1 1_555 1_555
N7 N6 1_555 1_555
N8 N5 1_555 1_555
N9 Cu1 1_555 1_555
N10 N9 1_555 1_555
C1 N1 1_555 1_555
H1 C1 1_555 1_555
C2 N7 1_555 1_555
H2 C2 1_555 1_555
C3 N10 1_555 1_555
H3 C3 1_555 1_555
O4 Cu1 1_555 1_555
H4 O4 1_555 1_555
O5 H5 1_555 1_555
O6 H6 1_555 1_555
O7 H7 1_555 1_555
Cu1E O4 1_555 1_555
Cu1A N3 1_555 1_555
Cu1C N6C 1_555 1_555
Cu2E O1E 1_555 1_555
Cu2C N1 1_555 1_555
Cu2A N4 1_555 1_555
Cu2F N10E 1_555 1_555
Cu2B N1A 1_555 1_555
Cu2C_2 N5C 1_555 1_555
O1E S1 1_555 1_555
N1A N2A 1_555 1_555
N1C Cu2 1_555 1_555
N1F Cu2E 1_555 1_555
N2A Cu1A 1_555 1_555
N2E Cu1E 1_555 1_555
N3A Cu1 1_555 1_555
N3D Cu1E 1_555 1_555
N4A Cu2 1_555 1_555
N4D Cu2E 1_555 1_555
N5C N6C 1_555 1_555
N5E Cu2E 1_555 1_555
N6C N7C 1_555 1_555
N6E Cu1E 1_555 1_555
N7C Cu2 1_555 1_555
N7F Cu2E 1_555 1_555
N8C N5C 1_555 1_555
N9E N9 1_555 1_555
N10E C3 1_555 1_555
N10C Cu2 1_555 1_555
N10F Cu2E 1_555 1_555
C1A N1A 1_555 1_555
H1A C1A 1_555 1_555
C2C N7C 1_555 1_555
H2C C2C 1_555 1_555
H5E O5 1_555 1_555
H6A O6 1_555 1_555
H7A O7 1_555 1_555
N4 C1 1_555 1_555
N5 N6 1_555 1_555
N7 Cu2C 1_555 1_555
N8 C2 1_555 1_555
N10 Cu2C 1_555 1_555
Cu1E O1E 1_555 1_555
Cu1E N9E 1_555 1_555
N2A N3A 1_555 1_555
N3A N4A 1_555 1_555
N3D N4D 1_555 1_555
N4A C1A 1_555 1_555
N5E N6E 1_555 1_555
N8C C2C 1_555 1_555
N9E N10E 1_555 1_555

#END
