
#######################################################################
#
#                 Cambridge Crystallographic Data Centre
#                                CCDC 
#
#######################################################################
#
# If this CIF has been generated from an entry in the Cambridge 
# Structural Database, then it will include bibliographic, chemical, 
# crystal, experimental, refinement or atomic coordinate data resulting 
# from the CCDC's data processing and validation procedures.
#
#######################################################################

data_IBOTAU
_chemical_formula_moiety         '(C6 N1 O72 P18 Zn21 12-)n'
_symmetry_cell_setting           rhombohedral
_symmetry_space_group_name_H-M   'R -3'
_symmetry_Int_Tables_number      148
_space_group_name_Hall           '-R 3'
loop_
_symmetry_equiv_pos_site_id
_symmetry_equiv_pos_as_xyz
1 x,y,z
2 -y,x-y,z
3 -x+y,-x,z
4 2/3+x,1/3+y,1/3+z
5 2/3-y,1/3+x-y,1/3+z
6 2/3-x+y,1/3-x,1/3+z
7 1/3+x,2/3+y,2/3+z
8 2/3+y,1/3-x+y,1/3-z
9 2/3+x-y,1/3+x,1/3-z
10 -x,-y,-z
11 y,-x+y,-z
12 x-y,x,-z
13 1/3-x,2/3-y,2/3-z
14 1/3+y,2/3-x+y,2/3-z
15 1/3+x-y,2/3+x,2/3-z
16 2/3-x,1/3-y,1/3-z
17 1/3-y,2/3+x-y,2/3+z
18 1/3-x+y,2/3-x,2/3+z
_cell_length_a                   13.6086(4)
_cell_length_b                   13.6086(4)
_cell_length_c                   15.2777(8)
_cell_angle_alpha                90
_cell_angle_beta                 90
_cell_angle_gamma                120.00
_cell_volume                     2450.28
loop_
_atom_site_label
_atom_site_type_symbol
_atom_site_fract_x
_atom_site_fract_y
_atom_site_fract_z
N1 N -0.3333 0.3333 -0.0359(18)
C1 C -0.2075(45) 0.4601(45) 0.0066(41)
C2 C -0.1415(28) 0.4312(24) -0.0373(19)
C1A C -0.4601(45) 0.3324(64) 0.0066(41)
C2A C -0.4312(24) 0.4273(37) -0.0373(19)
C1B C -0.3324(64) 0.2075(45) 0.0066(41)
C2B C -0.4273(37) 0.1415(28) -0.0373(19)
Zn1 Zn 0.0000 0.0000 0.0000
Zn2 Zn -0.02804(6) 0.21547(6) 0.08991(4)
P1 P -0.22675(14) -0.02013(13) 0.10648(9)
O1 O 0.7053(6) 0.6156(6) 0.1490(4)
O2 O 0.1178(4) 0.2567(5) 0.1364(4)
O3 O -0.0243(5) 0.2733(5) -0.0281(3)
O4 O -0.0998(3) 0.0472(3) 0.0790(3)
Zn2A Zn 0.78453(6) 0.75649(8) 0.08991(4)
O1B O -0.0897(8) 0.2947(6) 0.1490(4)
P1G P 0.64654(13) 0.53995(19) 0.22685(9)
O2H O 0.5278(6) 0.4511(4) 0.1969(4)
Zn2H Zn 0.42316(8) 0.30529(6) 0.24342(4)
O1G O 0.2823(6) 0.2436(8) 0.1843(4)
P1B P 0.20662(19) 0.22675(14) 0.10648(9)
P1J P -0.02013(13) 0.20662(19) -0.10648(9)
O1F O 0.0386(6) 0.2823(6) -0.1843(4)
O2K O -0.1389(6) 0.1178(4) -0.1364(4)
O4J O 0.0472(3) 0.1470(4) -0.0790(3)
O4A O -0.0472(3) -0.1470(4) 0.0790(3)
Zn2A_2 Zn -0.21547(6) -0.24351(8) 0.08991(4)
O1_2 O -0.2947(6) -0.3844(6) 0.1490(4)
O2A O -0.2567(5) -0.1389(6) 0.1364(4)
O3A O -0.2733(5) -0.2976(7) -0.0281(3)
P1K P -0.20662(19) -0.22675(14) -0.10648(9)
O1P O -0.2823(6) -0.2436(8) -0.1843(4)
O2I O -0.1178(4) -0.2567(5) -0.1364(4)
O4K O -0.1470(4) -0.0998(3) -0.0790(3)
O4B O 0.1470(4) 0.0998(3) 0.0790(3)
Zn2B Zn 0.24351(8) 0.02804(6) 0.08991(4)
O1A O 0.3844(6) 0.0897(8) 0.1490(4)
O2B O 0.1389(6) -0.1178(4) 0.1364(4)
O3B O 0.2976(7) 0.0243(5) -0.0281(3)
P1I P 0.22675(14) 0.02013(13) -0.10648(9)
O1Q O 0.2436(8) -0.0386(6) -0.1843(4)
O2J O 0.2567(5) 0.1389(6) -0.1364(4)
O4I O 0.0998(3) -0.0472(3) -0.0790(3)
Zn2I Zn 0.02804(6) -0.21547(6) -0.08991(4)
O1K O 0.0897(8) -0.2947(6) -0.1490(4)
O3I O 0.0243(5) -0.2733(5) 0.0281(3)
P1A P 0.02013(13) -0.20662(19) 0.10648(9)
O1O O -0.0386(6) -0.2823(6) 0.1843(4)
O3J O 0.2733(5) 0.2976(7) 0.0281(3)
Zn2J Zn 0.21547(6) 0.24351(8) -0.08991(4)
O1I O 0.2947(6) 0.3844(6) -0.1490(4)
Zn2K Zn -0.24351(8) -0.02804(6) -0.08991(4)
O1J O -0.3844(6) -0.0897(8) -0.1490(4)
O3K O -0.2976(7) -0.0243(5) 0.0281(3)
O1H O -0.2436(8) 0.0386(6) 0.1843(4)
O3H O 0.3691(7) 0.3090(5) 0.3614(3)
O4H O 0.5197(4) 0.2335(3) 0.2543(3)
O3C O 0.6424(5) 0.6066(5) 0.3052(3)
O4G O 0.7139(3) 0.4803(4) 0.2543(3)
P1H P 0.46005(19) 0.10658(14) 0.22685(9)
Zn1C Zn 0.6667 0.3333 0.3333
Zn2G Zn 0.88214(6) 0.57684(8) 0.24342(4)
O4C O 0.5669(3) 0.3805(3) 0.4123(3)
O4D O 0.6195(3) 0.1863(4) 0.4123(3)
O4E O 0.8137(4) 0.4331(3) 0.4123(3)
O4O O 0.7665(3) 0.2861(3) 0.2543(3)
Zn2E Zn 0.91018(8) 0.36137(6) 0.42324(4)
P1E P 0.87329(19) 0.56008(14) 0.43981(9)
Zn2O Zn 0.69471(6) 0.11786(6) 0.24342(4)
P1O P 0.89342(14) 0.35346(13) 0.22685(9)
Zn2C Zn 0.63863(6) 0.54880(6) 0.42324(4)
P1C P 0.43992(14) 0.31320(13) 0.43981(9)
Zn2D Zn 0.45120(6) 0.08982(8) 0.42324(4)
P1D P 0.68680(13) 0.12671(19) 0.43981(9)
O1O_2 O 0.9614(6) 0.7177(6) 0.1843(4)
O2G O 0.9234(5) 0.4722(6) 0.1969(4)
O3G O 0.9400(5) 0.6309(7) 0.3614(3)
O1M O 0.9489(6) 0.5770(8) 0.5177(4)
O2C O 0.7845(4) 0.5900(5) 0.4697(4)
O1D O 1.0511(6) 0.4230(8) 0.4823(4)
O2E O 0.8056(6) 0.2155(4) 0.4697(4)
O3E O 0.9643(7) 0.3576(5) 0.3052(3)
O1L O 0.6280(6) 0.0511(6) 0.5177(4)
O3O O 0.6910(5) 0.0600(5) 0.3614(3)
O1C O 0.3720(6) -0.0511(6) 0.4823(4)
O2D O 0.4100(5) 0.1944(6) 0.4697(4)
O3D O 0.3934(5) 0.0357(7) 0.3052(3)
O1H_2 O 0.7564(8) 0.0386(6) 0.1843(4)
O2O O 0.5489(4) 0.0766(5) 0.1969(4)
O1B_2 O 0.9103(8) 0.2947(6) 0.1490(4)
O1E O 0.5770(8) 0.6280(6) 0.4823(4)
O1N O 0.4230(8) 0.3720(6) 0.5177(4)
Zn2N Zn 1.08982(8) 0.63863(6) 0.57676(4)
Zn2L Zn 0.36137(6) 0.45120(6) 0.57676(4)
P1Q P -0.46005(19) -0.10658(14) -0.22685(9)
Zn2Q Zn -0.42316(8) -0.30529(6) -0.24342(4)
Zn2G_2 Zn -0.11786(6) -0.42316(8) 0.24342(4)
Zn2M Zn 0.54880(6) -0.08982(8) 0.57676(4)
Zn2_2 Zn 0.97196(6) 0.21547(6) 0.08991(4)
Zn2P Zn 0.11786(6) 0.42316(8) -0.24342(4)
Zn2F Zn 0.30529(6) -0.11786(6) -0.24342(4)
Zn2O_2 Zn -0.30529(6) 0.11786(6) 0.24342(4)
O2F O -0.5489(4) -0.0766(5) -0.1969(4)
O3M O -0.3934(5) -0.0357(7) -0.3052(3)
O4Q O -0.5197(4) -0.2335(3) -0.2543(3)
O2Q O -0.5278(6) -0.4511(4) -0.1969(4)
O3Q O -0.3691(7) -0.3090(5) -0.3614(3)
P1P P -0.64654(13) -0.53995(19) -0.22685(9)
P1L P -0.43992(14) -0.31320(13) -0.43981(9)
Zn1F Zn -0.6667 -0.3333 -0.3333
Zn2F_2 Zn -0.69471(6) -0.11786(6) -0.24342(4)
Zn2M_2 Zn -0.45120(6) -0.08982(8) -0.42324(4)
O1I_2 O -0.7053(6) -0.6156(6) -0.1490(4)
O3L O -0.6424(5) -0.6066(5) -0.3052(3)
O4P O -0.7139(3) -0.4803(4) -0.2543(3)
O1E_2 O -0.4230(8) -0.3720(6) -0.5177(4)
O2M O -0.4100(5) -0.1944(6) -0.4697(4)
O4L O -0.5669(3) -0.3805(3) -0.4123(3)
O4F O -0.7665(3) -0.2861(3) -0.2543(3)
O4M O -0.6195(3) -0.1863(4) -0.4123(3)
O4N O -0.8137(4) -0.4331(3) -0.4123(3)
O1Q_2 O -0.7564(8) -0.0386(6) -0.1843(4)
O3F O -0.6910(5) -0.0600(5) -0.3614(3)
O1L_2 O -0.3720(6) 0.0511(6) -0.4823(4)
Zn2P_2 Zn -0.88214(6) -0.57684(8) -0.24342(4)
Zn2C_2 Zn -0.36137(6) -0.45120(6) -0.57676(4)
Zn2N_2 Zn -0.91018(8) -0.36137(6) -0.42324(4)
P1N P -0.87329(19) -0.56008(14) -0.43981(9)
P1M P -0.68680(13) -0.12671(19) -0.43981(9)
P1F P -0.89342(14) -0.35346(13) -0.22685(9)
O1F_2 O -0.9614(6) -0.7177(6) -0.1843(4)
O2P O -0.9234(5) -0.4722(6) -0.1969(4)
O3P O -0.9400(5) -0.6309(7) -0.3614(3)
O1M_2 O -1.0511(6) -0.4230(8) -0.4823(4)
O2N O -0.8056(6) -0.2155(4) -0.4697(4)
O3N O -0.9643(7) -0.3576(5) -0.3052(3)
O1D_2 O -0.9489(6) -0.5770(8) -0.5177(4)
O2L O -0.7845(4) -0.5900(5) -0.4697(4)
Zn2L_2 Zn -0.63863(6) -0.54880(6) -0.42324(4)
Zn2J_2 Zn -0.78453(6) -0.75649(8) -0.08991(4)
O1C_2 O -0.6280(6) -0.0511(6) -0.5177(4)
O1K_2 O -0.9103(8) -0.2947(6) -0.1490(4)
O1N_2 O -0.5770(8) -0.6280(6) -0.4823(4)
Zn2D_2 Zn -0.54880(6) 0.08982(8) -0.57676(4)
Zn2I_2 Zn -0.97196(6) -0.21547(6) -0.08991(4)
Zn2E_2 Zn -1.08982(8) -0.63863(6) -0.57676(4)
loop_
_geom_bond_atom_site_label_1
_geom_bond_atom_site_label_2
_geom_bond_site_symmetry_1
_geom_bond_site_symmetry_2
Zn1 O4 1_555 1_555
Zn2 O2 1_555 1_555
P1 O4 1_555 1_555
O1 Zn2A 1_555 1_555
O2 P1B 1_555 1_555
O3 Zn2 1_555 1_555
O4 Zn2 1_555 1_555
N1 C1 1_555 1_555
C1 C2 1_555 1_555
O1B Zn2 1_555 1_555
P1G O1 1_555 1_555
O2H P1G 1_555 1_555
Zn2H O2H 1_555 1_555
O1G Zn2H 1_555 1_555
P1B O1G 1_555 1_555
P1J O3 1_555 1_555
O1F P1J 1_555 1_555
O2K P1J 1_555 1_555
O4J Zn1 1_555 1_555
O4A Zn1 1_555 1_555
Zn2A_2 O4A 1_555 1_555
O1_2 Zn2A_2 1_555 1_555
O2A P1 1_555 1_555
O3A Zn2A_2 1_555 1_555
P1K O3A 1_555 1_555
O1P P1K 1_555 1_555
O2I P1K 1_555 1_555
O4K Zn1 1_555 1_555
O4B Zn1 1_555 1_555
Zn2B O4B 1_555 1_555
O1A Zn2B 1_555 1_555
O2B Zn2B 1_555 1_555
O3B Zn2B 1_555 1_555
P1I O3B 1_555 1_555
O1Q P1I 1_555 1_555
O2J P1I 1_555 1_555
O4I Zn1 1_555 1_555
Zn2I O2I 1_555 1_555
O1K Zn2I 1_555 1_555
O3I Zn2I 1_555 1_555
P1A O4A 1_555 1_555
O1O P1A 1_555 1_555
O3J P1B 1_555 1_555
Zn2J O4J 1_555 1_555
O1I Zn2J 1_555 1_555
Zn2K O2K 1_555 1_555
O1J Zn2K 1_555 1_555
O3K P1 1_555 1_555
O1H P1 1_555 1_555
O3H Zn2H 1_555 1_555
O4H Zn2H 1_555 1_555
O3C P1G 1_555 1_555
O4G P1G 1_555 1_555
C1A N1 1_555 1_555
C2A C1A 1_555 1_555
C1B N1 1_555 1_555
C2B C1B 1_555 1_555
P1H O1A 1_555 1_555
Zn1C O4H 1_555 1_555
Zn2G O4G 1_555 1_555
O4C Zn1C 1_555 1_555
O4D Zn1C 1_555 1_555
O4E Zn1C 1_555 1_555
O4O Zn1C 1_555 1_555
Zn2E O4E 1_555 1_555
P1E O4E 1_555 1_555
Zn2O O4O 1_555 1_555
P1O O4O 1_555 1_555
Zn2C O3C 1_555 1_555
P1C O3H 1_555 1_555
Zn2D O4D 1_555 1_555
P1D O4D 1_555 1_555
O1O_2 Zn2G 1_555 1_555
O2G Zn2G 1_555 1_555
O3G Zn2G 1_555 1_555
O1M P1E 1_555 1_555
O2C P1E 1_555 1_555
O1D Zn2E 1_555 1_555
O2E Zn2E 1_555 1_555
O3E Zn2E 1_555 1_555
O1L P1D 1_555 1_555
O3O Zn2O 1_555 1_555
O1C Zn2D 1_555 1_555
O2D P1C 1_555 1_555
O3D P1H 1_555 1_555
O1H_2 Zn2O 1_555 1_555
O2O P1H 1_555 1_555
O1B_2 P1O 1_555 1_555
O1E Zn2C 1_555 1_555
O1N P1C 1_555 1_555
Zn2N O1M 1_555 1_555
Zn2L O1N 1_555 1_555
P1Q O1J 1_555 1_555
Zn2Q O1P 1_555 1_555
Zn2G_2 O1O 1_555 1_555
Zn2M O1L 1_555 1_555
Zn2_2 O1B_2 1_555 1_555
Zn2P O1F 1_555 1_555
Zn2F O1Q 1_555 1_555
Zn2O_2 O1H 1_555 1_555
O2F P1Q 1_555 1_555
O3M P1Q 1_555 1_555
O4Q P1Q 1_555 1_555
O2Q Zn2Q 1_555 1_555
O3Q Zn2Q 1_555 1_555
P1P O2Q 1_555 1_555
P1L O3Q 1_555 1_555
Zn1F O4Q 1_555 1_555
Zn2F_2 O2F 1_555 1_555
Zn2M_2 O3M 1_555 1_555
O1I_2 P1P 1_555 1_555
O3L P1P 1_555 1_555
O4P P1P 1_555 1_555
O1E_2 P1L 1_555 1_555
O2M P1L 1_555 1_555
O4L P1L 1_555 1_555
O4F Zn1F 1_555 1_555
O4M Zn1F 1_555 1_555
O4N Zn1F 1_555 1_555
O1Q_2 Zn2F_2 1_555 1_555
O3F Zn2F_2 1_555 1_555
O1L_2 Zn2M_2 1_555 1_555
Zn2P_2 O4P 1_555 1_555
Zn2C_2 O1E_2 1_555 1_555
Zn2N_2 O4N 1_555 1_555
P1N O4N 1_555 1_555
P1M O4M 1_555 1_555
P1F O4F 1_555 1_555
O1F_2 Zn2P_2 1_555 1_555
O2P Zn2P_2 1_555 1_555
O3P Zn2P_2 1_555 1_555
O1M_2 Zn2N_2 1_555 1_555
O2N Zn2N_2 1_555 1_555
O3N Zn2N_2 1_555 1_555
O1D_2 P1N 1_555 1_555
O2L P1N 1_555 1_555
Zn2L_2 O3L 1_555 1_555
Zn2J_2 O1I_2 1_555 1_555
O1C_2 P1M 1_555 1_555
O1K_2 P1F 1_555 1_555
O1N_2 Zn2L_2 1_555 1_555
Zn2D_2 O1C_2 1_555 1_555
Zn2I_2 O1K_2 1_555 1_555
Zn2E_2 O1D_2 1_555 1_555
P1B O4B 1_555 1_555
P1J O4J 1_555 1_555
Zn2A_2 O2A 1_555 1_555
P1K O4K 1_555 1_555
O4K Zn2K 1_555 1_555
O2B P1A 1_555 1_555
P1I O4I 1_555 1_555
O2J Zn2J 1_555 1_555
O4I Zn2I 1_555 1_555
O3I P1A 1_555 1_555
O3J Zn2J 1_555 1_555
Zn2K O3K 1_555 1_555
O4H P1H 1_555 1_555
O4G Zn1C 1_555 1_555
O4C Zn2C 1_555 1_555
O4C P1C 1_555 1_555
P1E O3G 1_555 1_555
Zn2O O2O 1_555 1_555
P1O O2G 1_555 1_555
P1O O3E 1_555 1_555
Zn2C O2C 1_555 1_555
Zn2D O2D 1_555 1_555
Zn2D O3D 1_555 1_555
P1D O3O 1_555 1_555
P1D O2E 1_555 1_555
Zn2Q O4Q 1_555 1_555
Zn1F O4L 1_555 1_555
Zn1F O4P 1_555 1_555
Zn2F_2 O4F 1_555 1_555
Zn2M_2 O2M 1_555 1_555
Zn2M_2 O4M 1_555 1_555
O4L Zn2L_2 1_555 1_555
O3F P1M 1_555 1_555
P1N O3P 1_555 1_555
P1M O2N 1_555 1_555
P1F O2P 1_555 1_555
P1F O3N 1_555 1_555
O2L Zn2L_2 1_555 1_555

#END
