
#######################################################################
#
#                 Cambridge Crystallographic Data Centre
#                                CCDC 
#
#######################################################################
#
# If this CIF has been generated from an entry in the Cambridge 
# Structural Database, then it will include bibliographic, chemical, 
# crystal, experimental, refinement or atomic coordinate data resulting 
# from the CCDC's data processing and validation procedures.
#
#######################################################################

data_IYICUP
_chemical_formula_moiety         '(C36 H30 Co1 La1 N6 O18)n'
_symmetry_cell_setting           orthorhombic
_symmetry_space_group_name_H-M   'F d d d'
_symmetry_Int_Tables_number      70
_space_group_name_Hall           '-F 2uv 2vw'
loop_
_symmetry_equiv_pos_site_id
_symmetry_equiv_pos_as_xyz
1 x,y,z
2 1/4-x,3/4-y,1/2+z
3 x,1/4-y,1/4-z
4 1/4-x,y,1/4-z
5 x,1/2+y,1/2+z
6 1/4-x,1/4-y,z
7 x,3/4-y,3/4-z
8 1/4-x,1/2+y,3/4-z
9 1/2+x,y,1/2+z
10 3/4-x,3/4-y,z
11 1/2+x,1/4-y,3/4-z
12 3/4-x,y,3/4-z
13 1/2+x,1/2+y,z
14 3/4-x,1/4-y,1/2+z
15 1/2+x,3/4-y,1/4-z
16 3/4-x,1/2+y,1/4-z
17 -x,-y,-z
18 3/4+x,1/4+y,1/2-z
19 -x,3/4+y,3/4+z
20 3/4+x,-y,3/4+z
21 -x,1/2-y,1/2-z
22 3/4+x,3/4+y,-z
23 -x,1/4+y,1/4+z
24 3/4+x,1/2-y,1/4+z
25 1/2-x,-y,1/2-z
26 1/4+x,1/4+y,-z
27 1/2-x,3/4+y,1/4+z
28 1/4+x,-y,1/4+z
29 1/2-x,1/2-y,-z
30 1/4+x,3/4+y,1/2-z
31 1/2-x,1/4+y,3/4+z
32 1/4+x,1/2-y,3/4+z
_cell_length_a                   23.522(3)
_cell_length_b                   28.077(4)
_cell_length_c                   36.438(5)
_cell_angle_alpha                90
_cell_angle_beta                 90
_cell_angle_gamma                90
_cell_volume                     24064.6
loop_
_atom_site_label
_atom_site_type_symbol
_atom_site_fract_x
_atom_site_fract_y
_atom_site_fract_z
_atom_site_U_iso_or_equiv
_atom_site_thermal_displace_type
La1 La 0.39669(2) 0.1250 0.1250 0.0106 Uani
Co1 Co 0.1250 0.35862(5) 0.1250 0.0113 Uani
O1 O 0.3074(2) 0.16890(19) 0.10061(14) 0.0217 Uani
O2 O 0.3286(2) 0.1872(2) 0.15757(14) 0.0277 Uani
O3 O 0.2472(3) 0.3220(3) 0.29348(17) 0.0533 Uani
O4 O 0.1747(3) 0.3684(2) 0.31111(15) 0.0303 Uani
O5 O 0.4157(3) 0.2177(2) 0.1080(2) 0.0433 Uani
O6 O 0.4861(3) 0.1790(2) 0.13459(19) 0.0417 Uani
N1 N 0.1818(2) 0.3084(2) 0.12227(15) 0.0140 Uani
N2 N 0.1422(2) 0.3564(2) 0.17680(17) 0.0157 Uani
N3 N 0.5705(2) 0.3405(2) 0.12071(16) 0.0157 Uani
C1 C 0.1992(3) 0.2855(2) 0.0919(2) 0.0197 Uani
C2 C 0.2377(3) 0.2486(2) 0.0934(2) 0.0187 Uani
C3 C 0.2589(3) 0.2347(2) 0.1256(2) 0.0183 Uani
C4 C 0.2422(3) 0.2582(2) 0.1578(2) 0.0177 Uani
C5 C 0.2031(3) 0.2954(2) 0.15486(19) 0.0147 Uani
C6 C 0.1828(3) 0.3238(2) 0.18580(19) 0.0153 Uani
C7 C 0.2029(3) 0.3194(2) 0.2217(2) 0.0203 Uani
C8 C 0.1793(3) 0.3484(3) 0.24898(19) 0.0227 Uani
C9 C 0.1378(3) 0.3808(3) 0.2394(2) 0.0253 Uani
C10 C 0.1207(3) 0.3843(2) 0.2032(2) 0.0213 Uani
C11 C 0.3010(3) 0.1936(2) 0.12816(19) 0.0167 Uani
C12 C 0.2023(4) 0.3458(3) 0.2876(2) 0.0297 Uani
C13 C 0.5140(3) 0.3446(3) 0.1164(2) 0.0240 Uani
C14 C 0.4797(4) 0.3048(3) 0.1161(2) 0.0277 Uani
C15 C 0.5030(4) 0.2594(2) 0.1202(2) 0.0240 Uani
C16 C 0.5610(3) 0.2547(2) 0.1231(2) 0.0217 Uani
C17 C 0.5939(3) 0.2962(2) 0.1234(2) 0.0180 Uani
C18 C 0.4656(4) 0.2148(3) 0.1216(2) 0.0267 Uani
H1 H 0.1846 0.2950 0.0687 0.0240 Uiso
H2 H 0.2491 0.2331 0.0715 0.0220 Uiso
H3 H 0.2570 0.2490 0.1810 0.0220 Uiso
H4 H 0.2320 0.2972 0.2275 0.0250 Uiso
H5 H 0.1210 0.4005 0.2576 0.0300 Uiso
H6 H 0.0927 0.4072 0.1968 0.0250 Uiso
H7 H 0.4975 0.3753 0.1134 0.0290 Uiso
H8 H 0.4398 0.3084 0.1132 0.0330 Uiso
H9 H 0.5782 0.2242 0.1248 0.0260 Uiso
La1Q La 0.14669(2) 0.3750 0.3750 0.0106 Uani
La1C La 0.85331(2) 0.1250 0.1250 0.0106 Uani
La1AA La 0.64669(2) -0.1250 0.3750 0.0106 Uani
Co1I Co 0.6250 0.39138(5) 0.1250 0.0113 Uani
Co1Z Co 0.3750 0.10862(5) 0.3750 0.0113 Uani
O1CA O 0.5574(2) -0.08110(19) 0.39939(14) 0.0217 Uani
O1B O 0.3074(2) 0.08110(19) 0.14939(14) 0.0217 Uani
O2CA O 0.5786(2) -0.0628(2) 0.34243(14) 0.0277 Uani
O2B O 0.3286(2) 0.0628(2) 0.09243(14) 0.0277 Uani
O3CA O 0.4972(3) 0.0720(3) 0.20652(17) 0.0533 Uani
O4CA O 0.4247(3) 0.1184(2) 0.18889(15) 0.0303 Uani
O4EA O 0.4247(3) 0.1316(2) 0.06111(15) 0.0303 Uani
O5C O 0.8343(3) 0.2177(2) 0.1420(2) 0.0433 Uani
O5B O 0.4157(3) 0.0323(2) 0.1420(2) 0.0433 Uani
O6C O 0.7639(3) 0.1790(2) 0.11541(19) 0.0417 Uani
O6B O 0.4861(3) 0.0710(2) 0.11541(19) 0.0417 Uani
N1CA N 0.4318(2) 0.0584(2) 0.37773(15) 0.0140 Uani
N1C N 0.0682(2) 0.3084(2) 0.12773(15) 0.0140 Uani
N2CA N 0.3922(2) 0.1064(2) 0.32320(17) 0.0157 Uani
N2C N 0.1078(2) 0.3564(2) 0.07320(17) 0.0157 Uani
N3C N 0.6795(2) 0.3405(2) 0.12929(16) 0.0157 Uani
N3I N 0.1795(2) 0.4095(2) 0.12071(16) 0.0157 Uani
N3N N 0.0705(2) 0.4095(2) 0.12929(16) 0.0157 Uani
C1CA C 0.4492(3) 0.0355(2) 0.4081(2) 0.0197 Uani
C2CA C 0.4877(3) -0.0014(2) 0.4066(2) 0.0187 Uani
C3CA C 0.5089(3) -0.0153(2) 0.3744(2) 0.0183 Uani
C4CA C 0.4922(3) 0.0082(2) 0.3422(2) 0.0177 Uani
C5CA C 0.4531(3) 0.0454(2) 0.34514(19) 0.0147 Uani
C6CA C 0.4328(3) 0.0738(2) 0.31420(19) 0.0153 Uani
C7CA C 0.4529(3) 0.0694(2) 0.2783(2) 0.0203 Uani
C8CA C 0.4293(3) 0.0984(3) 0.25102(19) 0.0227 Uani
C9CA C 0.3878(3) 0.1308(3) 0.2606(2) 0.0253 Uani
C10CA C 0.3707(3) 0.1343(2) 0.2968(2) 0.0213 Uani
C11CA C 0.5510(3) -0.0564(2) 0.37184(19) 0.0167 Uani
C12CA C 0.4523(4) 0.0958(3) 0.2124(2) 0.0297 Uani
C13C C 0.7360(3) 0.3446(3) 0.1336(2) 0.0240 Uani
C14C C 0.7703(4) 0.3048(3) 0.1339(2) 0.0277 Uani
C15C C 0.7470(4) 0.2594(2) 0.1298(2) 0.0240 Uani
C16C C 0.6890(3) 0.2547(2) 0.1269(2) 0.0217 Uani
C17C C 0.6561(3) 0.2962(2) 0.1266(2) 0.0180 Uani
C18C C 0.7844(4) 0.2148(3) 0.1284(2) 0.0267 Uani
H1CA H 0.4346 0.0450 0.4313 0.0240 Uiso
H2CA H 0.4991 -0.0169 0.4285 0.0220 Uiso
H3CA H 0.5070 -0.0010 0.3190 0.0220 Uiso
H4CA H 0.4820 0.0472 0.2725 0.0250 Uiso
H5CA H 0.3710 0.1505 0.2424 0.0300 Uiso
H6CA H 0.3427 0.1572 0.3032 0.0250 Uiso
H7C H 0.7525 0.3753 0.1366 0.0290 Uiso
H8C H 0.8102 0.3084 0.1368 0.0330 Uiso
H9C H 0.6718 0.2242 0.1252 0.0260 Uiso
O7 O 0.3838(5) 0.2584(4) 0.0419(3) 0.0893 Uani
O8 O 0.2960(5) 0.2203(3) -0.0012(2) 0.0773 Uani
O9 O 0.3743(7) 0.9874(5) 0.0516(4) 0.1543 Uani
O10 O 0.2117(6) 0.1277(6) 0.0663(5) 0.1690 Uani
O11 O 0.4101(7) 0.8413(5) 0.0953(7) 0.2023 Uani
O12 O 0.6167(7) 0.6894(6) 0.0891(6) 0.1940 Uani
loop_
_atom_site_aniso_label
_atom_site_aniso_U_11
_atom_site_aniso_U_22
_atom_site_aniso_U_33
_atom_site_aniso_U_23
_atom_site_aniso_U_13
_atom_site_aniso_U_12
La1 0.0095(3) 0.0084(3) 0.0139(3) 0.0010(2) 0.0000 0.0000
Co1 0.0104(7) 0.0082(6) 0.0153(6) 0.0000 -0.0007(5) 0.0000
O1 0.014(2) 0.024(2) 0.027(2) -0.006(2) -0.004(2) 0.007(2)
O2 0.032(3) 0.027(3) 0.024(2) 0.000(2) -0.003(2) 0.013(2)
O3 0.047(5) 0.086(6) 0.027(3) -0.012(3) -0.009(3) 0.031(4)
O4 0.036(4) 0.038(3) 0.017(2) -0.004(2) 0.002(2) 0.009(3)
O5 0.022(3) 0.028(3) 0.080(5) -0.005(3) -0.002(3) -0.011(2)
O6 0.048(4) 0.027(3) 0.050(3) 0.013(3) -0.015(3) -0.024(3)
N1 0.015(3) 0.011(2) 0.016(2) -0.001(2) -0.001(2) 0.001(2)
N2 0.015(3) 0.013(2) 0.019(3) -0.001(2) 0.000(2) 0.001(2)
N3 0.010(3) 0.017(3) 0.020(3) 0.002(2) 0.005(2) 0.003(2)
C1 0.018(4) 0.020(3) 0.021(3) -0.004(3) 0.001(3) 0.002(3)
C2 0.022(4) 0.019(3) 0.015(3) -0.003(2) 0.005(3) 0.002(3)
C3 0.014(3) 0.015(3) 0.026(4) -0.002(3) 0.000(3) 0.003(2)
C4 0.020(4) 0.018(3) 0.015(3) -0.003(2) -0.005(3) 0.004(3)
C5 0.014(3) 0.013(3) 0.017(3) -0.004(2) -0.001(2) -0.001(2)
C6 0.012(3) 0.013(3) 0.021(3) -0.003(2) -0.001(2) 0.005(2)
C7 0.018(4) 0.019(3) 0.024(3) -0.004(3) -0.001(3) 0.009(3)
C8 0.020(4) 0.032(4) 0.016(3) -0.006(3) 0.002(3) 0.001(3)
C9 0.025(4) 0.028(4) 0.023(4) -0.010(3) 0.003(3) 0.009(3)
C10 0.021(4) 0.017(3) 0.026(4) -0.007(3) 0.001(3) 0.007(3)
C11 0.013(3) 0.017(3) 0.020(3) -0.003(2) -0.002(3) 0.003(2)
C12 0.029(5) 0.038(5) 0.022(4) -0.006(3) 0.001(3) 0.006(4)
C13 0.013(4) 0.022(4) 0.037(4) -0.003(3) 0.000(3) 0.000(3)
C14 0.015(4) 0.025(4) 0.043(4) 0.000(3) -0.002(3) -0.003(3)
C15 0.027(4) 0.012(3) 0.033(4) -0.004(3) 0.006(3) -0.013(3)
C16 0.021(4) 0.013(3) 0.031(4) 0.002(3) -0.007(3) 0.000(3)
C17 0.019(4) 0.013(3) 0.022(3) 0.000(3) 0.000(3) 0.000(2)
C18 0.026(4) 0.024(4) 0.030(4) -0.006(3) 0.006(3) -0.014(3)
La1Q 0.0095 0.0084 0.0139 -0.001 0 0
La1C 0.0095 0.0084 0.0139 -0.001 0 0
La1AA 0.0095 0.0084 0.0139 -0.001 0 0
Co1I 0.0104 0.0082 0.0153 0 0.0007 0
Co1Z 0.0104 0.0082 0.0153 0 0.0007 0
O1CA 0.014 0.024 0.027 0.006 0.004 0.007
O1B 0.014 0.024 0.027 -0.006 0.004 -0.007
O2CA 0.032 0.027 0.024 0 0.003 0.013
O2B 0.032 0.027 0.024 0 0.003 -0.013
O3CA 0.047 0.086 0.027 0.012 0.009 0.031
O4CA 0.036 0.038 0.017 0.004 -0.002 0.009
O4EA 0.036 0.038 0.017 0.004 0.002 -0.009
O5C 0.022 0.028 0.08 0.005 -0.002 0.011
O5B 0.022 0.028 0.08 -0.005 0.002 0.011
O6C 0.048 0.027 0.05 -0.013 -0.015 0.024
O6B 0.048 0.027 0.05 0.013 0.015 0.024
N1CA 0.015 0.011 0.016 0.001 0.001 0.001
N1C 0.015 0.011 0.016 0.001 -0.001 -0.001
N2CA 0.015 0.013 0.019 0.001 0 0.001
N2C 0.015 0.013 0.019 0.001 0 -0.001
N3C 0.01 0.017 0.02 -0.002 0.005 -0.003
N3I 0.01 0.017 0.02 -0.002 -0.005 0.003
N3N 0.01 0.017 0.02 0.002 -0.005 -0.003
C1CA 0.018 0.02 0.021 0.004 -0.001 0.002
C2CA 0.022 0.019 0.015 0.003 -0.005 0.002
C3CA 0.014 0.015 0.026 0.002 0 0.003
C4CA 0.02 0.018 0.015 0.003 0.005 0.004
C5CA 0.014 0.013 0.017 0.004 0.001 -0.001
C6CA 0.012 0.013 0.021 0.003 0.001 0.005
C7CA 0.018 0.019 0.024 0.004 0.001 0.009
C8CA 0.02 0.032 0.016 0.006 -0.002 0.001
C9CA 0.025 0.028 0.023 0.01 -0.003 0.009
C10CA 0.021 0.017 0.026 0.007 -0.001 0.007
C11CA 0.013 0.017 0.02 0.003 0.002 0.003
C12CA 0.029 0.038 0.022 0.006 -0.001 0.006
C13C 0.013 0.022 0.037 0.003 0 0
C14C 0.015 0.025 0.043 0 -0.002 0.003
C15C 0.027 0.012 0.033 0.004 0.006 0.013
C16C 0.021 0.013 0.031 -0.002 -0.007 0
C17C 0.019 0.013 0.022 0 0 0
C18C 0.026 0.024 0.03 0.006 0.006 0.014
O7 0.100(10) 0.072(7) 0.096(7) -0.001(6) -0.022(6) 0.022(6)
O8 0.092(9) 0.089(7) 0.051(4) 0.001(4) -0.015(5) -0.006(6)
O9 0.165(16) 0.136(13) 0.162(13) -0.098(11) 0.090(11) -0.059(11)
O10 0.053(9) 0.23(2) 0.224(19) -0.088(14) -0.013(11) -0.035(11)
O11 0.083(12) 0.104(12) 0.42(3) -0.077(15) 0.043(17) 0.010(10)
O12 0.102(14) 0.110(13) 0.37(3) -0.041(15) 0.028(17) -0.010(10)
loop_
_geom_bond_atom_site_label_1
_geom_bond_atom_site_label_2
_geom_bond_site_symmetry_1
_geom_bond_site_symmetry_2
La1 O1 1_555 1_555
Co1 N1 1_555 1_555
O1 C11 1_555 1_555
O2 La1 1_555 1_555
O3 C12 1_555 1_555
O4 C12 1_555 1_555
O5 La1 1_555 1_555
O6 La1 1_555 1_555
N1 C1 1_555 1_555
N2 Co1 1_555 1_555
N3 C13 1_555 1_555
C1 C2 1_555 1_555
C2 C3 1_555 1_555
C3 C4 1_555 1_555
C4 C5 1_555 1_555
C5 N1 1_555 1_555
C6 N2 1_555 1_555
C7 C6 1_555 1_555
C8 C7 1_555 1_555
C9 C8 1_555 1_555
C10 N2 1_555 1_555
C11 O2 1_555 1_555
C12 C8 1_555 1_555
C13 C14 1_555 1_555
C14 C15 1_555 1_555
C15 C16 1_555 1_555
C16 C17 1_555 1_555
C17 N3 1_555 1_555
C18 O5 1_555 1_555
H1 C1 1_555 1_555
H2 C2 1_555 1_555
H3 C4 1_555 1_555
H4 C7 1_555 1_555
H5 C9 1_555 1_555
H6 C10 1_555 1_555
H7 C13 1_555 1_555
H8 C14 1_555 1_555
H9 C16 1_555 1_555
La1Q O4 1_555 1_555
La1C O5C 1_555 1_555
La1AA O1CA 1_555 1_555
Co1I N3 1_555 1_555
Co1Z N1CA 1_555 1_555
O1CA C11CA 1_555 1_555
O1B La1 1_555 1_555
O2CA La1AA 1_555 1_555
O2B La1 1_555 1_555
O3CA C12CA 1_555 1_555
O4CA La1 1_555 1_555
O4EA La1 1_555 1_555
O5C C18C 1_555 1_555
O5B La1 1_555 1_555
O6C La1C 1_555 1_555
O6B La1 1_555 1_555
N1CA C1CA 1_555 1_555
N1C Co1 1_555 1_555
N2CA Co1Z 1_555 1_555
N2C Co1 1_555 1_555
N3C Co1I 1_555 1_555
N3I Co1 1_555 1_555
N3N Co1 1_555 1_555
C1CA C2CA 1_555 1_555
C2CA C3CA 1_555 1_555
C3CA C4CA 1_555 1_555
C4CA C5CA 1_555 1_555
C5CA N1CA 1_555 1_555
C6CA N2CA 1_555 1_555
C7CA C6CA 1_555 1_555
C8CA C7CA 1_555 1_555
C9CA C8CA 1_555 1_555
C10CA N2CA 1_555 1_555
C11CA O2CA 1_555 1_555
C12CA O4CA 1_555 1_555
C13C N3C 1_555 1_555
C14C C13C 1_555 1_555
C15C C14C 1_555 1_555
C16C C15C 1_555 1_555
C17C C17 1_555 1_555
C18C O6C 1_555 1_555
H1CA C1CA 1_555 1_555
H2CA C2CA 1_555 1_555
H3CA C4CA 1_555 1_555
H4CA C7CA 1_555 1_555
H5CA C9CA 1_555 1_555
H6CA C10CA 1_555 1_555
H7C C13C 1_555 1_555
H8C C14C 1_555 1_555
H9C C16C 1_555 1_555
O6 C18 1_555 1_555
C3 C11 1_555 1_555
C5 C6 1_555 1_555
C9 C10 1_555 1_555
C15 C18 1_555 1_555
N3C C17C 1_555 1_555
C3CA C11CA 1_555 1_555
C5CA C6CA 1_555 1_555
C8CA C12CA 1_555 1_555
C9CA C10CA 1_555 1_555
C15C C18C 1_555 1_555
C16C C17C 1_555 1_555

#END
