
#######################################################################
#
#                 Cambridge Crystallographic Data Centre
#                                CCDC 
#
#######################################################################
#
# If this CIF has been generated from an entry in the Cambridge 
# Structural Database, then it will include bibliographic, chemical, 
# crystal, experimental, refinement or atomic coordinate data resulting 
# from the CCDC's data processing and validation procedures.
#
#######################################################################

data_OWOQIB
_chemical_formula_moiety         'C60 Co6 N11 Nd1 O24'
_symmetry_cell_setting           cubic
_symmetry_space_group_name_H-M   'F m -3 m'
_symmetry_Int_Tables_number      225
_space_group_name_Hall           '-F 4 2 3'
loop_
_symmetry_equiv_pos_site_id
_symmetry_equiv_pos_as_xyz
1 x,y,z
2 y,z,x
3 z,x,y
4 y,-z,-x
5 z,-x,-y
6 -z,x,-y
7 -x,y,-z
8 -y,z,-x
9 x,-y,-z
10 y,x,-z
11 z,y,-x
12 x,z,-y
13 -x,-y,z
14 -y,-z,x
15 -z,-x,y
16 -y,-x,-z
17 -z,-y,-x
18 -x,-z,-y
19 z,-y,x
20 x,-z,y
21 -x,z,y
22 -y,x,z
23 -z,y,x
24 y,-x,z
25 x,1/2+y,1/2+z
26 y,1/2+z,1/2+x
27 z,1/2+x,1/2+y
28 y,1/2-z,1/2-x
29 z,1/2-x,1/2-y
30 -z,1/2+x,1/2-y
31 -x,1/2+y,1/2-z
32 -y,1/2+z,1/2-x
33 x,1/2-y,1/2-z
34 y,1/2+x,1/2-z
35 z,1/2+y,1/2-x
36 x,1/2+z,1/2-y
37 -x,1/2-y,1/2+z
38 -y,1/2-z,1/2+x
39 -z,1/2-x,1/2+y
40 -y,1/2-x,1/2-z
41 -z,1/2-y,1/2-x
42 -x,1/2-z,1/2-y
43 z,1/2-y,1/2+x
44 x,1/2-z,1/2+y
45 -x,1/2+z,1/2+y
46 -y,1/2+x,1/2+z
47 -z,1/2+y,1/2+x
48 y,1/2-x,1/2+z
49 1/2+x,y,1/2+z
50 1/2+y,z,1/2+x
51 1/2+z,x,1/2+y
52 1/2+y,-z,1/2-x
53 1/2+z,-x,1/2-y
54 1/2-z,x,1/2-y
55 1/2-x,y,1/2-z
56 1/2-y,z,1/2-x
57 1/2+x,-y,1/2-z
58 1/2+y,x,1/2-z
59 1/2+z,y,1/2-x
60 1/2+x,z,1/2-y
61 1/2-x,-y,1/2+z
62 1/2-y,-z,1/2+x
63 1/2-z,-x,1/2+y
64 1/2-y,-x,1/2-z
65 1/2-z,-y,1/2-x
66 1/2-x,-z,1/2-y
67 1/2+z,-y,1/2+x
68 1/2+x,-z,1/2+y
69 1/2-x,z,1/2+y
70 1/2-y,x,1/2+z
71 1/2-z,y,1/2+x
72 1/2+y,-x,1/2+z
73 1/2+x,1/2+y,z
74 1/2+y,1/2+z,x
75 1/2+z,1/2+x,y
76 1/2+y,1/2-z,-x
77 1/2+z,1/2-x,-y
78 1/2-z,1/2+x,-y
79 1/2-x,1/2+y,-z
80 1/2-y,1/2+z,-x
81 1/2+x,1/2-y,-z
82 1/2+y,1/2+x,-z
83 1/2+z,1/2+y,-x
84 1/2+x,1/2+z,-y
85 1/2-x,1/2-y,z
86 1/2-y,1/2-z,x
87 1/2-z,1/2-x,y
88 1/2-y,1/2-x,-z
89 1/2-z,1/2-y,-x
90 1/2-x,1/2-z,-y
91 1/2+z,1/2-y,x
92 1/2+x,1/2-z,y
93 1/2-x,1/2+z,y
94 1/2-y,1/2+x,z
95 1/2-z,1/2+y,x
96 1/2+y,1/2-x,z
97 -x,-y,-z
98 -y,-z,-x
99 -z,-x,-y
100 -y,z,x
101 -z,x,y
102 z,-x,y
103 x,-y,z
104 y,-z,x
105 -x,y,z
106 -y,-x,z
107 -z,-y,x
108 -x,-z,y
109 x,y,-z
110 y,z,-x
111 z,x,-y
112 y,x,z
113 z,y,x
114 x,z,y
115 -z,y,-x
116 -x,z,-y
117 x,-z,-y
118 y,-x,-z
119 z,-y,-x
120 -y,x,-z
121 -x,1/2-y,1/2-z
122 -y,1/2-z,1/2-x
123 -z,1/2-x,1/2-y
124 -y,1/2+z,1/2+x
125 -z,1/2+x,1/2+y
126 z,1/2-x,1/2+y
127 x,1/2-y,1/2+z
128 y,1/2-z,1/2+x
129 -x,1/2+y,1/2+z
130 -y,1/2-x,1/2+z
131 -z,1/2-y,1/2+x
132 -x,1/2-z,1/2+y
133 x,1/2+y,1/2-z
134 y,1/2+z,1/2-x
135 z,1/2+x,1/2-y
136 y,1/2+x,1/2+z
137 z,1/2+y,1/2+x
138 x,1/2+z,1/2+y
139 -z,1/2+y,1/2-x
140 -x,1/2+z,1/2-y
141 x,1/2-z,1/2-y
142 y,1/2-x,1/2-z
143 z,1/2-y,1/2-x
144 -y,1/2+x,1/2-z
145 1/2-x,-y,1/2-z
146 1/2-y,-z,1/2-x
147 1/2-z,-x,1/2-y
148 1/2-y,z,1/2+x
149 1/2-z,x,1/2+y
150 1/2+z,-x,1/2+y
151 1/2+x,-y,1/2+z
152 1/2+y,-z,1/2+x
153 1/2-x,y,1/2+z
154 1/2-y,-x,1/2+z
155 1/2-z,-y,1/2+x
156 1/2-x,-z,1/2+y
157 1/2+x,y,1/2-z
158 1/2+y,z,1/2-x
159 1/2+z,x,1/2-y
160 1/2+y,x,1/2+z
161 1/2+z,y,1/2+x
162 1/2+x,z,1/2+y
163 1/2-z,y,1/2-x
164 1/2-x,z,1/2-y
165 1/2+x,-z,1/2-y
166 1/2+y,-x,1/2-z
167 1/2+z,-y,1/2-x
168 1/2-y,x,1/2-z
169 1/2-x,1/2-y,-z
170 1/2-y,1/2-z,-x
171 1/2-z,1/2-x,-y
172 1/2-y,1/2+z,x
173 1/2-z,1/2+x,y
174 1/2+z,1/2-x,y
175 1/2+x,1/2-y,z
176 1/2+y,1/2-z,x
177 1/2-x,1/2+y,z
178 1/2-y,1/2-x,z
179 1/2-z,1/2-y,x
180 1/2-x,1/2-z,y
181 1/2+x,1/2+y,-z
182 1/2+y,1/2+z,-x
183 1/2+z,1/2+x,-y
184 1/2+y,1/2+x,z
185 1/2+z,1/2+y,x
186 1/2+x,1/2+z,y
187 1/2-z,1/2+y,-x
188 1/2-x,1/2+z,-y
189 1/2+x,1/2-z,-y
190 1/2+y,1/2-x,-z
191 1/2+z,1/2-y,-x
192 1/2-y,1/2+x,-z
_cell_length_a                   18.1481(10)
_cell_length_b                   18.1481(10)
_cell_length_c                   18.1481(10)
_cell_angle_alpha                90
_cell_angle_beta                 90
_cell_angle_gamma                90
_cell_volume                     5977.14
loop_
_atom_site_label
_atom_site_type_symbol
_atom_site_fract_x
_atom_site_fract_y
_atom_site_fract_z
Nd1 Nd 0.0000 0.0000 0.0000
Co1 Co 0.5000 0.0000 0.0000
O1 O 0.1298(12) -0.0568(12) 0.0000
N1 N 0.3956(8) 0.0000 0.0000
C1 C 0.1625(19) 0.0000 0.0000
C2 C 0.2505(14) 0.0000 0.0000
C3 C 0.273(2) 0.062(2) 0.0000
C4 C 0.3527(17) 0.058(2) 0.0000
Co1A Co 0.0000 0.0000 0.5000
Co1B Co 0.0000 0.5000 0.0000
Co1A_2 Co 0.0000 0.0000 -0.5000
Co1B_2 Co 0.0000 -0.5000 0.0000
Co1_2 Co -0.5000 0.0000 0.0000
O1H O 0.1298(12) 0.0568(12) 0.0000
O1S O 0.1298(12) -0.0000 -0.0568(12)
O1K O 0.1298(12) 0.0000 0.0568(12)
O1A O -0.0568(12) 0.0000 0.1298(12)
O1M O 0.0568(12) 0.0000 0.1298(12)
O1V O -0.0000 -0.0568(12) 0.1298(12)
O1R O 0.0000 0.0568(12) 0.1298(12)
O1B O 0.0000 0.1298(12) -0.0568(12)
O1E O 0.0000 0.1298(12) 0.0568(12)
O1I O -0.0568(12) 0.1298(12) 0.0000
O1U O 0.0568(12) 0.1298(12) 0.0000
O1C O -0.0568(12) -0.0000 -0.1298(12)
O1G O 0.0568(12) -0.0000 -0.1298(12)
O1P O 0.0000 0.0568(12) -0.1298(12)
O1J O 0.0000 -0.0568(12) -0.1298(12)
O1D O 0.0000 -0.1298(12) 0.0568(12)
O1N O -0.0000 -0.1298(12) -0.0568(12)
O1W O -0.0568(12) -0.1298(12) 0.0000
O1O O 0.0568(12) -0.1298(12) 0.0000
O1F O -0.1298(12) -0.0568(12) 0.0000
O1L O -0.1298(12) 0.0568(12) 0.0000
O1Q O -0.1298(12) 0.0000 0.0568(12)
O1T O -0.1298(12) -0.0000 -0.0568(12)
N1A N 0.0000 0.0000 0.3956(8)
N1B N 0.0000 0.3956(8) 0.0000
N1C N -0.0000 -0.0000 -0.3956(8)
N1D N -0.0000 -0.3956(8) 0.0000
N1F N -0.3956(8) 0.0000 0.0000
N1F_2 N 0.6044(8) 0.0000 0.0000
N1WA N 0.5000 -0.0000 -0.1044(8)
N1YA N 0.5000 0.0000 0.1044(8)
N1VB N 0.5000 -0.1044(8) 0.0000
N1XB N 0.5000 0.1044(8) 0.0000
C1A C 0.0000 0.0000 0.1625(19)
C1B C 0.0000 0.1625(19) 0.0000
C1C C -0.0000 -0.0000 -0.1625(19)
C1D C -0.0000 -0.1625(19) 0.0000
C1F C -0.1625(19) 0.0000 0.0000
C2A C 0.0000 0.0000 0.2505(14)
C2B C 0.0000 0.2505(14) 0.0000
C2C C -0.0000 -0.0000 -0.2505(14)
C2D C -0.0000 -0.2505(14) 0.0000
C2F C -0.2505(14) 0.0000 0.0000
C3S C 0.273(2) 0.0000 0.062(2)
C3H C 0.273(2) -0.062(2) 0.0000
C3K C 0.273(2) -0.0000 -0.062(2)
C3A C 0.062(2) 0.0000 0.273(2)
C3V C 0.0000 0.062(2) 0.273(2)
C3M C -0.062(2) 0.0000 0.273(2)
C3R C 0.0000 -0.062(2) 0.273(2)
C3B C 0.0000 0.273(2) 0.062(2)
C3I C 0.062(2) 0.273(2) 0.0000
C3E C 0.0000 0.273(2) -0.062(2)
C3U C -0.062(2) 0.273(2) 0.0000
C3C C 0.062(2) -0.0000 -0.273(2)
C3P C -0.0000 -0.062(2) -0.273(2)
C3G C -0.062(2) -0.0000 -0.273(2)
C3J C 0.0000 0.062(2) -0.273(2)
C3D C -0.0000 -0.273(2) -0.062(2)
C3W C 0.062(2) -0.273(2) 0.0000
C3N C -0.0000 -0.273(2) 0.062(2)
C3O C -0.062(2) -0.273(2) 0.0000
C3F C -0.273(2) 0.062(2) 0.0000
C3Q C -0.273(2) -0.0000 -0.062(2)
C3L C -0.273(2) -0.062(2) 0.0000
C3T C -0.273(2) 0.0000 0.062(2)
C4H C 0.3527(17) -0.058(2) 0.0000
C4K C 0.3527(17) -0.0000 -0.058(2)
C4S C 0.3527(17) 0.0000 0.058(2)
C4A C 0.058(2) 0.0000 0.3527(17)
C4M C -0.058(2) 0.0000 0.3527(17)
C4R C 0.0000 -0.058(2) 0.3527(17)
C4V C 0.0000 0.058(2) 0.3527(17)
C4B C 0.0000 0.3527(17) 0.058(2)
C4E C 0.0000 0.3527(17) -0.058(2)
C4U C -0.058(2) 0.3527(17) 0.0000
C4I C 0.058(2) 0.3527(17) 0.0000
C4C C 0.058(2) -0.0000 -0.3527(17)
C4G C -0.058(2) -0.0000 -0.3527(17)
C4J C 0.0000 0.058(2) -0.3527(17)
C4P C 0.0000 -0.058(2) -0.3527(17)
C4D C -0.0000 -0.3527(17) -0.058(2)
C4N C -0.0000 -0.3527(17) 0.058(2)
C4O C -0.058(2) -0.3527(17) 0.0000
C4W C 0.058(2) -0.3527(17) 0.0000
C4F C -0.3527(17) 0.058(2) 0.0000
C4L C -0.3527(17) -0.058(2) 0.0000
C4T C -0.3527(17) 0.0000 0.058(2)
C4Q C -0.3527(17) -0.0000 -0.058(2)
loop_
_geom_bond_atom_site_label_1
_geom_bond_atom_site_label_2
_geom_bond_site_symmetry_1
_geom_bond_site_symmetry_2
Nd1 O1 1_555 1_555
Co1 N1 1_555 1_555
O1 C1 1_555 1_555
N1 C4 1_555 1_555
C1 C2 1_555 1_555
C2 C3 1_555 1_555
C3 C4 1_555 1_555
Co1A N1A 1_555 1_555
Co1B N1B 1_555 1_555
Co1A_2 N1C 1_555 1_555
Co1B_2 N1D 1_555 1_555
Co1_2 N1F 1_555 1_555
O1H Nd1 1_555 1_555
O1S Nd1 1_555 1_555
O1K Nd1 1_555 1_555
O1A Nd1 1_555 1_555
O1M Nd1 1_555 1_555
O1V Nd1 1_555 1_555
O1R Nd1 1_555 1_555
O1B Nd1 1_555 1_555
O1E Nd1 1_555 1_555
O1I Nd1 1_555 1_555
O1U Nd1 1_555 1_555
O1C Nd1 1_555 1_555
O1G Nd1 1_555 1_555
O1P Nd1 1_555 1_555
O1J Nd1 1_555 1_555
O1D Nd1 1_555 1_555
O1N Nd1 1_555 1_555
O1W Nd1 1_555 1_555
O1O Nd1 1_555 1_555
O1F Nd1 1_555 1_555
O1L Nd1 1_555 1_555
O1Q Nd1 1_555 1_555
O1T Nd1 1_555 1_555
N1A C4A 1_555 1_555
N1B C4B 1_555 1_555
N1C C4C 1_555 1_555
N1D C4D 1_555 1_555
N1F C4F 1_555 1_555
N1F_2 Co1 1_555 1_555
N1WA Co1 1_555 1_555
N1YA Co1 1_555 1_555
N1VB Co1 1_555 1_555
N1XB Co1 1_555 1_555
C1A O1A 1_555 1_555
C1B O1B 1_555 1_555
C1C O1C 1_555 1_555
C1D O1D 1_555 1_555
C1F O1F 1_555 1_555
C2A C1A 1_555 1_555
C2B C1B 1_555 1_555
C2C C1C 1_555 1_555
C2D C1D 1_555 1_555
C2F C1F 1_555 1_555
C3S C2 1_555 1_555
C3H C2 1_555 1_555
C3K C2 1_555 1_555
C3A C2A 1_555 1_555
C3V C2A 1_555 1_555
C3M C2A 1_555 1_555
C3R C2A 1_555 1_555
C3B C2B 1_555 1_555
C3I C2B 1_555 1_555
C3E C2B 1_555 1_555
C3U C2B 1_555 1_555
C3C C2C 1_555 1_555
C3P C2C 1_555 1_555
C3G C2C 1_555 1_555
C3J C2C 1_555 1_555
C3D C2D 1_555 1_555
C3W C2D 1_555 1_555
C3N C2D 1_555 1_555
C3O C2D 1_555 1_555
C3F C2F 1_555 1_555
C3Q C2F 1_555 1_555
C3L C2F 1_555 1_555
C3T C2F 1_555 1_555
C4H N1 1_555 1_555
C4K N1 1_555 1_555
C4S N1 1_555 1_555
C4A C3A 1_555 1_555
C4M N1A 1_555 1_555
C4R N1A 1_555 1_555
C4V N1A 1_555 1_555
C4B C3B 1_555 1_555
C4E N1B 1_555 1_555
C4U N1B 1_555 1_555
C4I N1B 1_555 1_555
C4C C3C 1_555 1_555
C4G N1C 1_555 1_555
C4J N1C 1_555 1_555
C4P N1C 1_555 1_555
C4D C3D 1_555 1_555
C4N N1D 1_555 1_555
C4O N1D 1_555 1_555
C4W N1D 1_555 1_555
C4F C3F 1_555 1_555
C4L N1F 1_555 1_555
C4T N1F 1_555 1_555
C4Q N1F 1_555 1_555
C1 O1H 1_555 1_555
C1 O1S 1_555 1_555
C1 O1K 1_555 1_555
O1M C1A 1_555 1_555
O1V C1A 1_555 1_555
O1R C1A 1_555 1_555
O1E C1B 1_555 1_555
O1I C1B 1_555 1_555
O1U C1B 1_555 1_555
O1G C1C 1_555 1_555
O1P C1C 1_555 1_555
O1J C1C 1_555 1_555
O1N C1D 1_555 1_555
O1W C1D 1_555 1_555
O1O C1D 1_555 1_555
O1L C1F 1_555 1_555
O1Q C1F 1_555 1_555
O1T C1F 1_555 1_555
C3S C4S 1_555 1_555
C3H C4H 1_555 1_555
C3K C4K 1_555 1_555
C3V C4V 1_555 1_555
C3M C4M 1_555 1_555
C3R C4R 1_555 1_555
C3I C4I 1_555 1_555
C3E C4E 1_555 1_555
C3U C4U 1_555 1_555
C3P C4P 1_555 1_555
C3G C4G 1_555 1_555
C3J C4J 1_555 1_555
C3W C4W 1_555 1_555
C3N C4N 1_555 1_555
C3O C4O 1_555 1_555
C3Q C4Q 1_555 1_555
C3L C4L 1_555 1_555
C3T C4T 1_555 1_555

#END
