
#######################################################################
#
#                 Cambridge Crystallographic Data Centre
#                                CCDC 
#
#######################################################################
#
# If this CIF has been generated from an entry in the Cambridge 
# Structural Database, then it will include bibliographic, chemical, 
# crystal, experimental, refinement or atomic coordinate data resulting 
# from the CCDC's data processing and validation procedures.
#
#######################################################################

data_JASMUM
_chemical_formula_moiety         'C74 H80 N3 O24 Zn7'
_symmetry_cell_setting           tetragonal
_symmetry_space_group_name_H-M   'P 4/m m m'
_symmetry_Int_Tables_number      123
_space_group_name_Hall           '-P 4 2'
loop_
_symmetry_equiv_pos_site_id
_symmetry_equiv_pos_as_xyz
1 x,y,z
2 -y,x,z
3 y,-x,z
4 y,x,-z
5 -x,-y,z
6 -x,y,-z
7 x,-y,-z
8 -y,-x,-z
9 -x,-y,-z
10 y,-x,-z
11 -y,x,-z
12 -y,-x,z
13 x,y,-z
14 x,-y,z
15 -x,y,z
16 y,x,z
_cell_length_a                   10.8773(14)
_cell_length_b                   10.8773(14)
_cell_length_c                   13.964(3)
_cell_angle_alpha                90
_cell_angle_beta                 90
_cell_angle_gamma                90
_cell_volume                     1652.16
loop_
_atom_site_label
_atom_site_type_symbol
_atom_site_fract_x
_atom_site_fract_y
_atom_site_fract_z
Zn1 Zn 1.0000 1.0000 0.10317(6)
O1 O 0.8184(3) 0.9695(3) 0.0761(3)
N1 N 1.0000 1.0000 0.2477(4)
C1 C 0.7645(5) 1.0000 0.0000
C2 C 0.6264(5) 1.0000 0.0000
C3 C 0.5634(5) 0.9081(5) 0.0504(4)
C4 C 0.6333(6) 0.8081(6) 0.1023(5)
H1 H 0.5756 0.7520 0.1323
H2 H 0.6852 0.8448 0.1511
H3 H 0.6840 0.7634 0.0570
C5 C 0.903(3) 1.0283(15) 0.295(2)
H4 H 0.8293 1.0400 0.2614
C7 C 0.9020(17) 1.0427(15) 0.3954(7)
H6 H 0.8221 1.0758 0.3954
C8 C 1.0000 1.0000 0.4478(7)
Zn1C Zn 1.0000 1.0000 -0.10317(6)
Zn1_2 Zn -0.0000 1.0000 0.10317(6)
Zn1C_2 Zn -0.0000 1.0000 -0.10317(6)
Zn1C_3 Zn 1.0000 1.0000 0.89683(6)
Zn1_3 Zn 1.0000 -0.0000 0.10317(6)
Zn1C_4 Zn 1.0000 0.0000 -0.10317(6)
O1M O 0.8184(3) 1.0305(3) 0.0761(3)
O1L O 0.8184(3) 0.9695(3) -0.0761(3)
O1F O 0.8184(3) 1.0305(3) -0.0761(3)
O1D O 0.1816(3) 1.0305(3) 0.0761(3)
O1N O 0.1816(3) 0.9695(3) 0.0761(3)
O1H O 0.1816(3) 1.0305(3) -0.0761(3)
O1E O 0.1816(3) 0.9695(3) -0.0761(3)
O1A O 1.0305(3) 0.8184(3) 0.0761(3)
O1O O 0.9695(3) 0.8184(3) 0.0761(3)
O1J O 1.0305(3) 0.8184(3) -0.0761(3)
O1C O 0.9695(3) 0.8184(3) -0.0761(3)
O1B O 0.9695(3) 0.1816(3) 0.0761(3)
O1K O 1.0305(3) 0.1816(3) 0.0761(3)
O1I O 0.9695(3) 0.1816(3) -0.0761(3)
O1G O 1.0305(3) 0.1816(3) -0.0761(3)
O1B_2 O 0.9695(3) 1.1816(3) 0.0761(3)
O1N_2 O 1.1816(3) 0.9695(3) 0.0761(3)
O1K_2 O 1.0305(3) 1.1816(3) 0.0761(3)
O1D_2 O 1.1816(3) 1.0305(3) 0.0761(3)
O1H_2 O 1.1816(3) 1.0305(3) -0.0761(3)
O1I_2 O 0.9695(3) 1.1816(3) -0.0761(3)
O1E_2 O 1.1816(3) 0.9695(3) -0.0761(3)
O1G_2 O 1.0305(3) 1.1816(3) -0.0761(3)
N1C N 1.0000 1.0000 0.7523(4)
N1C_2 N 1.0000 1.0000 -0.2477(4)
C1N C 0.2355(5) 1.0000 0.0000
C1A C 1.0000 0.7645(5) 0.0000
C1B C 1.0000 0.2355(5) 0.0000
C2N C 0.3736(5) 1.0000 0.0000
C2A C 1.0000 0.6264(5) 0.0000
C2B C 1.0000 0.3736(5) 0.0000
C3L C 0.5634(5) 0.9081(5) -0.0504(4)
C3M C 0.5634(5) 1.0919(5) 0.0504(4)
C3F C 0.5634(5) 1.0919(5) -0.0504(4)
C3D C 0.4366(5) 1.0919(5) 0.0504(4)
C3H C 0.4366(5) 1.0919(5) -0.0504(4)
C3N C 0.4366(5) 0.9081(5) 0.0504(4)
C3E C 0.4366(5) 0.9081(5) -0.0504(4)
C3A C 1.0919(5) 0.5634(5) 0.0504(4)
C3J C 1.0919(5) 0.5634(5) -0.0504(4)
C3O C 0.9081(5) 0.5634(5) 0.0504(4)
C3C C 0.9081(5) 0.5634(5) -0.0504(4)
C3B C 0.9081(5) 0.4366(5) 0.0504(4)
C3I C 0.9081(5) 0.4366(5) -0.0504(4)
C3K C 1.0919(5) 0.4366(5) 0.0504(4)
C3G C 1.0919(5) 0.4366(5) -0.0504(4)
C4D C 0.3667(6) 1.1919(6) 0.1023(5)
C4F C 0.6333(6) 1.1919(6) -0.1023(5)
C4H C 0.3667(6) 1.1919(6) -0.1023(5)
C4N C 0.3667(6) 0.8081(6) 0.1023(5)
C4E C 0.3667(6) 0.8081(6) -0.1023(5)
C4M C 0.6333(6) 1.1919(6) 0.1023(5)
C4L C 0.6333(6) 0.8081(6) -0.1023(5)
C4A C 1.1919(6) 0.6333(6) 0.1023(5)
C4B C 0.8081(6) 0.3667(6) 0.1023(5)
C4C C 0.8081(6) 0.6333(6) -0.1023(5)
C4I C 0.8081(6) 0.3667(6) -0.1023(5)
C4K C 1.1919(6) 0.3667(6) 0.1023(5)
C4G C 1.1919(6) 0.3667(6) -0.1023(5)
C4O C 0.8081(6) 0.6333(6) 0.1023(5)
C4J C 1.1919(6) 0.6333(6) -0.1023(5)
H1D H 0.4244 1.2480 0.1323
H1F H 0.5756 1.2480 -0.1323
H1H H 0.4244 1.2480 -0.1323
H1N H 0.4244 0.7520 0.1323
H1E H 0.4244 0.7520 -0.1323
H1M H 0.5756 1.2480 0.1323
H1L H 0.5756 0.7520 -0.1323
H1A H 1.2480 0.5756 0.1323
H1B H 0.7520 0.4244 0.1323
H1C H 0.7520 0.5756 -0.1323
H1I H 0.7520 0.4244 -0.1323
H1K H 1.2480 0.4244 0.1323
H1G H 1.2480 0.4244 -0.1323
H1O H 0.7520 0.5756 0.1323
H1J H 1.2480 0.5756 -0.1323
H2D H 0.3148 1.1552 0.1511
H2F H 0.6852 1.1552 -0.1511
H2H H 0.3148 1.1552 -0.1511
H2N H 0.3148 0.8448 0.1511
H2E H 0.3148 0.8448 -0.1511
H2M H 0.6852 1.1552 0.1511
H2L H 0.6852 0.8448 -0.1511
H2A H 1.1552 0.6852 0.1511
H2B H 0.8448 0.3148 0.1511
H2C H 0.8448 0.6852 -0.1511
H2I H 0.8448 0.3148 -0.1511
H2K H 1.1552 0.3148 0.1511
H2G H 1.1552 0.3148 -0.1511
H2O H 0.8448 0.6852 0.1511
H2J H 1.1552 0.6852 -0.1511
H3D H 0.3160 1.2366 0.0570
H3F H 0.6840 1.2366 -0.0570
H3H H 0.3160 1.2366 -0.0570
H3N H 0.3160 0.7634 0.0570
H3E H 0.3160 0.7634 -0.0570
H3M H 0.6840 1.2366 0.0570
H3L H 0.6840 0.7634 -0.0570
H3A H 1.2366 0.6840 0.0570
H3B H 0.7634 0.3160 0.0570
H3C H 0.7634 0.6840 -0.0570
H3I H 0.7634 0.3160 -0.0570
H3K H 1.2366 0.3160 0.0570
H3G H 1.2366 0.3160 -0.0570
H3O H 0.7634 0.6840 0.0570
H3J H 1.2366 0.6840 -0.0570
C5A C 0.9717(15) 0.903(3) 0.295(2)
C5B C 1.0283(15) 1.097(3) 0.295(2)
C5M C 0.903(3) 0.9717(15) 0.295(2)
C5N C 1.097(3) 1.0283(15) 0.295(2)
C5O C 1.0283(15) 0.903(3) 0.295(2)
C5K C 0.9717(15) 1.097(3) 0.295(2)
C5D C 1.097(3) 0.9717(15) 0.295(2)
C5C C 1.0283(15) 0.903(3) 0.705(2)
C5F C 0.903(3) 0.9717(15) 0.705(2)
C5G C 0.9717(15) 1.097(3) 0.705(2)
C5E C 1.097(3) 1.0283(15) 0.705(2)
C5I C 1.0283(15) 1.097(3) 0.705(2)
C5J C 0.9717(15) 0.903(3) 0.705(2)
C5H C 1.097(3) 0.9717(15) 0.705(2)
C5L C 0.903(3) 1.0283(15) 0.705(2)
H4D H 1.1707 0.9600 0.2614
H4N H 1.1707 1.0400 0.2614
H4O H 1.0400 0.8293 0.2614
H4A H 0.9600 0.8293 0.2614
H4M H 0.8293 0.9600 0.2614
H4B H 1.0400 1.1707 0.2614
H4K H 0.9600 1.1707 0.2614
H4E H 1.1707 1.0400 0.7386
H4H H 1.1707 0.9600 0.7386
H4I H 1.0400 1.1707 0.7386
H4G H 0.9600 1.1707 0.7386
H4J H 0.9600 0.8293 0.7386
H4C H 1.0400 0.8293 0.7386
H4F H 0.8293 0.9600 0.7386
H4L H 0.8293 1.0400 0.7386
C7D C 1.0980(17) 0.9573(15) 0.3954(7)
C7N C 1.0980(17) 1.0427(15) 0.3954(7)
C7O C 1.0427(15) 0.9020(17) 0.3954(7)
C7A C 0.9573(15) 0.9020(17) 0.3954(7)
C7M C 0.9020(17) 0.9573(15) 0.3954(7)
C7B C 1.0427(15) 1.0980(17) 0.3954(7)
C7K C 0.9573(15) 1.0980(17) 0.3954(7)
C7C C 1.0427(15) 0.9020(17) 0.6046(7)
C7E C 1.0980(17) 1.0427(15) 0.6046(7)
C7H C 1.0980(17) 0.9573(15) 0.6046(7)
C7I C 1.0427(15) 1.0980(17) 0.6046(7)
C7G C 0.9573(15) 1.0980(17) 0.6046(7)
C7L C 0.9020(17) 1.0427(15) 0.6046(7)
C7J C 0.9573(15) 0.9020(17) 0.6046(7)
C7F C 0.9020(17) 0.9573(15) 0.6046(7)
H6O H 1.0758 0.8221 0.3954
H6A H 0.9242 0.8221 0.3954
H6K H 0.9242 1.1779 0.3954
H6M H 0.8221 0.9242 0.3954
H6B H 1.0758 1.1779 0.3954
H6N H 1.1779 1.0758 0.3954
H6D H 1.1779 0.9242 0.3954
H6I H 1.0758 1.1779 0.6046
H6E H 1.1779 1.0758 0.6046
H6H H 1.1779 0.9242 0.6046
H6L H 0.8221 1.0758 0.6046
H6J H 0.9242 0.8221 0.6046
H6C H 1.0758 0.8221 0.6046
H6F H 0.8221 0.9242 0.6046
H6G H 0.9242 1.1779 0.6046
C8C C 1.0000 1.0000 0.5522(7)
loop_
_geom_bond_atom_site_label_1
_geom_bond_atom_site_label_2
_geom_bond_site_symmetry_1
_geom_bond_site_symmetry_2
Zn1 O1 1_555 1_555
O1 C1 1_555 1_555
N1 Zn1 1_555 1_555
C1 C2 1_555 1_555
C2 C3 1_555 1_555
C3 C4 1_555 1_555
C4 H1 1_555 1_555
H2 C4 1_555 1_555
H3 C4 1_555 1_555
C5 N1 1_555 1_555
H4 C5 1_555 1_555
C7 C5 1_555 1_555
H6 C7 1_555 1_555
C8 C7 1_555 1_555
Zn1C O1L 1_555 1_555
Zn1_2 O1D 1_555 1_555
Zn1C_2 O1H 1_555 1_555
Zn1C_3 N1C 1_555 1_555
Zn1_3 O1B 1_555 1_555
Zn1C_4 O1I 1_555 1_555
O1M Zn1 1_555 1_555
O1L C1 1_555 1_555
O1F C1 1_555 1_555
O1D O1N 1_555 1_555
O1N Zn1_2 1_555 1_555
O1H O1E 1_555 1_555
O1E Zn1C_2 1_555 1_555
O1A Zn1 1_555 1_555
O1O Zn1 1_555 1_555
O1J Zn1C 1_555 1_555
O1C Zn1C 1_555 1_555
O1B O1K 1_555 1_555
O1K Zn1_3 1_555 1_555
O1I O1G 1_555 1_555
O1G Zn1C_4 1_555 1_555
O1B_2 Zn1 1_555 1_555
O1N_2 Zn1 1_555 1_555
O1K_2 Zn1 1_555 1_555
O1D_2 Zn1 1_555 1_555
O1H_2 Zn1C 1_555 1_555
O1I_2 Zn1C 1_555 1_555
O1E_2 Zn1C 1_555 1_555
O1G_2 Zn1C 1_555 1_555
N1C C5C 1_555 1_555
N1C_2 Zn1C 1_555 1_555
C1N O1D 1_555 1_555
C1A O1A 1_555 1_555
C1B O1B 1_555 1_555
C2N C1N 1_555 1_555
C2A C1A 1_555 1_555
C2B C1B 1_555 1_555
C3L C2 1_555 1_555
C3M C2 1_555 1_555
C3F C2 1_555 1_555
C3D C2N 1_555 1_555
C3H C2N 1_555 1_555
C3N C3 1_555 1_555
C3E C2N 1_555 1_555
C3A C2A 1_555 1_555
C3J C2A 1_555 1_555
C3O C2A 1_555 1_555
C3C C2A 1_555 1_555
C3B C2B 1_555 1_555
C3I C2B 1_555 1_555
C3K C2B 1_555 1_555
C3G C2B 1_555 1_555
C4D C3D 1_555 1_555
C4F C3F 1_555 1_555
C4H C3H 1_555 1_555
C4N C3N 1_555 1_555
C4E C3E 1_555 1_555
C4M C3M 1_555 1_555
C4L C3L 1_555 1_555
C4A C3A 1_555 1_555
C4B C3B 1_555 1_555
C4C C3C 1_555 1_555
C4I C3I 1_555 1_555
C4K C3K 1_555 1_555
C4G C3G 1_555 1_555
C4O C3O 1_555 1_555
C4J C3J 1_555 1_555
H1D C4D 1_555 1_555
H1F C4F 1_555 1_555
H1H C4H 1_555 1_555
H1N C4N 1_555 1_555
H1E C4E 1_555 1_555
H1M C4M 1_555 1_555
H1L C4L 1_555 1_555
H1A C4A 1_555 1_555
H1B C4B 1_555 1_555
H1C C4C 1_555 1_555
H1I C4I 1_555 1_555
H1K C4K 1_555 1_555
H1G C4G 1_555 1_555
H1O C4O 1_555 1_555
H1J C4J 1_555 1_555
H2D C4D 1_555 1_555
H2F C4F 1_555 1_555
H2H C4H 1_555 1_555
H2N C4N 1_555 1_555
H2E C4E 1_555 1_555
H2M C4M 1_555 1_555
H2L C4L 1_555 1_555
H2A C4A 1_555 1_555
H2B C4B 1_555 1_555
H2C C4C 1_555 1_555
H2I C4I 1_555 1_555
H2K C4K 1_555 1_555
H2G C4G 1_555 1_555
H2O C4O 1_555 1_555
H2J C4J 1_555 1_555
H3D C4D 1_555 1_555
H3F C4F 1_555 1_555
H3H C4H 1_555 1_555
H3N C4N 1_555 1_555
H3E C4E 1_555 1_555
H3M C4M 1_555 1_555
H3L C4L 1_555 1_555
H3A C4A 1_555 1_555
H3B C4B 1_555 1_555
H3C C4C 1_555 1_555
H3I C4I 1_555 1_555
H3K C4K 1_555 1_555
H3G C4G 1_555 1_555
H3O C4O 1_555 1_555
H3J C4J 1_555 1_555
C5A N1 1_555 1_555
C5B N1 1_555 1_555
C5M N1 1_555 1_555
C5N N1 1_555 1_555
C5O N1 1_555 1_555
C5K N1 1_555 1_555
C5D N1 1_555 1_555
C5C C5F 1_555 1_555
C5F N1C 1_555 1_555
C5G N1C 1_555 1_555
C5E N1C 1_555 1_555
C5I N1C 1_555 1_555
C5J N1C 1_555 1_555
C5H N1C 1_555 1_555
C5L N1C 1_555 1_555
H4D C5N 1_555 1_555
H4N C5N 1_555 1_555
H4O C5A 1_555 1_555
H4A C5A 1_555 1_555
H4M C5 1_555 1_555
H4B C5B 1_555 1_555
H4K C5B 1_555 1_555
H4E C5E 1_555 1_555
H4H C5E 1_555 1_555
H4I C5G 1_555 1_555
H4G C5G 1_555 1_555
H4J C5C 1_555 1_555
H4C C5C 1_555 1_555
H4F C5F 1_555 1_555
H4L C5F 1_555 1_555
C7D C8 1_555 1_555
C7N C8 1_555 1_555
C7O C8 1_555 1_555
C7A C7 1_555 1_555
C7M C5 1_555 1_555
C7B C7 1_555 1_555
C7K C5 1_555 1_555
C7C C5C 1_555 1_555
C7E C5E 1_555 1_555
C7H C5C 1_555 1_555
C7I C5G 1_555 1_555
C7G C5G 1_555 1_555
C7L C5F 1_555 1_555
C7J C5C 1_555 1_555
C7F C5F 1_555 1_555
H6O C7O 1_555 1_555
H6A C7A 1_555 1_555
H6K C7K 1_555 1_555
H6M C7M 1_555 1_555
H6B C7B 1_555 1_555
H6N C7N 1_555 1_555
H6D C7D 1_555 1_555
H6I C7I 1_555 1_555
H6E C7E 1_555 1_555
H6H C7H 1_555 1_555
H6L C7L 1_555 1_555
H6J C7J 1_555 1_555
H6C C7C 1_555 1_555
H6F C7F 1_555 1_555
H6G C7G 1_555 1_555
C8C C8 1_555 1_555
O1 O1M 1_555 1_555
C1 O1M 1_555 1_555
C3 C3L 1_555 1_555
C5 C5A 1_555 1_555
C5 C5B 1_555 1_555
C5 C5M 1_555 1_555
C5 C5K 1_555 1_555
H4 C5M 1_555 1_555
C7 C5M 1_555 1_555
C7 C5K 1_555 1_555
C7 C7M 1_555 1_555
C7 C7K 1_555 1_555
C8 C7A 1_555 1_555
C8 C7M 1_555 1_555
C8 C7B 1_555 1_555
C8 C7K 1_555 1_555
Zn1C O1F 1_555 1_555
O1L O1F 1_555 1_555
O1N C1N 1_555 1_555
O1H C1N 1_555 1_555
O1E C1N 1_555 1_555
O1A O1O 1_555 1_555
O1O C1A 1_555 1_555
O1J O1C 1_555 1_555
O1J C1A 1_555 1_555
O1C C1A 1_555 1_555
O1K C1B 1_555 1_555
O1I C1B 1_555 1_555
O1G C1B 1_555 1_555
O1B_2 O1K_2 1_555 1_555
O1N_2 O1D_2 1_555 1_555
O1H_2 O1E_2 1_555 1_555
O1I_2 O1G_2 1_555 1_555
C2N C3N 1_555 1_555
C3L C3E 1_555 1_555
C3M C3F 1_555 1_555
C3M C3D 1_555 1_555
C3F C3H 1_555 1_555
C3D C3H 1_555 1_555
C3N C3E 1_555 1_555
C3A C3J 1_555 1_555
C3A C3K 1_555 1_555
C3J C3G 1_555 1_555
C3O C3C 1_555 1_555
C3O C3B 1_555 1_555
C3C C3I 1_555 1_555
C3B C3I 1_555 1_555
C3K C3G 1_555 1_555
C5A C5M 1_555 1_555
C5A C5O 1_555 1_555
C5A C5D 1_555 1_555
C5A C7O 1_555 1_555
C5A C7A 1_555 1_555
C5A C7M 1_555 1_555
C5B C5N 1_555 1_555
C5B C5K 1_555 1_555
C5B C5D 1_555 1_555
C5B C7N 1_555 1_555
C5B C7B 1_555 1_555
C5B C7K 1_555 1_555
C5M C5O 1_555 1_555
C5M C5K 1_555 1_555
C5M H4M 1_555 1_555
C5M C7A 1_555 1_555
C5M C7M 1_555 1_555
C5N C5O 1_555 1_555
C5N C5K 1_555 1_555
C5N C5D 1_555 1_555
C5N C7D 1_555 1_555
C5N C7N 1_555 1_555
C5N C7B 1_555 1_555
C5O C5D 1_555 1_555
C5O H4O 1_555 1_555
C5O H4A 1_555 1_555
C5O C7D 1_555 1_555
C5O C7O 1_555 1_555
C5O C7A 1_555 1_555
C5K H4B 1_555 1_555
C5K H4K 1_555 1_555
C5K C7B 1_555 1_555
C5K C7K 1_555 1_555
C5D H4D 1_555 1_555
C5D H4N 1_555 1_555
C5D C7D 1_555 1_555
C5D C7N 1_555 1_555
C5D C7O 1_555 1_555
C5C C5E 1_555 1_555
C5C C5J 1_555 1_555
C5C C5H 1_555 1_555
C5F C5G 1_555 1_555
C5F C5J 1_555 1_555
C5F C5L 1_555 1_555
C5F C7J 1_555 1_555
C5G C5E 1_555 1_555
C5G C5I 1_555 1_555
C5G C5L 1_555 1_555
C5G C7L 1_555 1_555
C5E C5I 1_555 1_555
C5E C5H 1_555 1_555
C5E C7H 1_555 1_555
C5E C7I 1_555 1_555
C5I C5H 1_555 1_555
C5I C5L 1_555 1_555
C5I H4I 1_555 1_555
C5I H4G 1_555 1_555
C5I C7E 1_555 1_555
C5I C7I 1_555 1_555
C5I C7G 1_555 1_555
C5J C5H 1_555 1_555
C5J C5L 1_555 1_555
C5J H4J 1_555 1_555
C5J H4C 1_555 1_555
C5J C7C 1_555 1_555
C5J C7J 1_555 1_555
C5J C7F 1_555 1_555
C5H H4E 1_555 1_555
C5H H4H 1_555 1_555
C5H C7C 1_555 1_555
C5H C7E 1_555 1_555
C5H C7H 1_555 1_555
C5L H4F 1_555 1_555
C5L H4L 1_555 1_555
C5L C7G 1_555 1_555
C5L C7L 1_555 1_555
C5L C7F 1_555 1_555
C7D C7N 1_555 1_555
C7D C7O 1_555 1_555
C7D C7A 1_555 1_555
C7D C7B 1_555 1_555
C7N C7O 1_555 1_555
C7N C7B 1_555 1_555
C7N C7K 1_555 1_555
C7O C7A 1_555 1_555
C7O C7M 1_555 1_555
C7A C7M 1_555 1_555
C7M C7K 1_555 1_555
C7B C7K 1_555 1_555
C7C C7E 1_555 1_555
C7C C7H 1_555 1_555
C7C C7J 1_555 1_555
C7C C7F 1_555 1_555
C7C C8C 1_555 1_555
C7E C7H 1_555 1_555
C7E C7I 1_555 1_555
C7E C7G 1_555 1_555
C7E C8C 1_555 1_555
C7H C7I 1_555 1_555
C7H C7J 1_555 1_555
C7H C8C 1_555 1_555
C7I C7G 1_555 1_555
C7I C7L 1_555 1_555
C7I C8C 1_555 1_555
C7G C7L 1_555 1_555
C7G C7F 1_555 1_555
C7G C8C 1_555 1_555
C7L C7J 1_555 1_555
C7L C7F 1_555 1_555
C7L C8C 1_555 1_555
C7J C7F 1_555 1_555
C7J C8C 1_555 1_555
C7F C8C 1_555 1_555

#END
