
#######################################################################
#
#                 Cambridge Crystallographic Data Centre
#                                CCDC 
#
#######################################################################
#
# If this CIF has been generated from an entry in the Cambridge 
# Structural Database, then it will include bibliographic, chemical, 
# crystal, experimental, refinement or atomic coordinate data resulting 
# from the CCDC's data processing and validation procedures.
#
#######################################################################

data_JASMIA
_chemical_formula_moiety         'C73 N2 O28 Zn7'
_symmetry_cell_setting           tetragonal
_symmetry_space_group_name_H-M   'P 4/m m m'
_symmetry_Int_Tables_number      123
_space_group_name_Hall           '-P 4 2'
loop_
_symmetry_equiv_pos_site_id
_symmetry_equiv_pos_as_xyz
1 x,y,z
2 -y,x,z
3 y,-x,z
4 y,x,-z
5 -x,-y,z
6 -x,y,-z
7 x,-y,-z
8 -y,-x,-z
9 -x,-y,-z
10 y,-x,-z
11 -y,x,-z
12 -y,-x,z
13 x,y,-z
14 x,-y,z
15 -x,y,z
16 y,x,z
_cell_length_a                   10.9212(6)
_cell_length_b                   10.9212(6)
_cell_length_c                   9.6108(7)
_cell_angle_alpha                90
_cell_angle_beta                 90
_cell_angle_gamma                90
_cell_volume                     1146.31
loop_
_atom_site_label
_atom_site_type_symbol
_atom_site_fract_x
_atom_site_fract_y
_atom_site_fract_z
Zn1 Zn -0.0000 -0.0000 0.34834(6)
N1 N -0.0000 -0.0000 0.1344(5)
O1 O -0.1819(3) 0.0194(9) 0.3857(4)
C1 C -0.2342(4) -0.0000 0.5000
C2 C -0.3717(5) -0.0000 0.5000
C3 C -0.4351(6) -0.0961(8) 0.4325(8)
C4 C -0.3721(15) -0.205(2) 0.359(3)
C5 C -0.420(7) -0.279(11) 0.270(18)
C6 C -0.0500(13) 0.1195(14) 0.0804(14)
C6A C -0.1195(14) -0.0500(13) 0.0804(14)
C6B C 0.1195(14) 0.0500(13) 0.0804(14)
N1C N 0.0000 0.0000 -0.1344(5)
C6C C 0.1195(14) -0.0500(13) -0.0804(14)
C6D C 0.0500(13) -0.1195(14) 0.0804(14)
C6E C 0.0500(13) 0.1195(14) -0.0804(14)
C6F C -0.0500(13) -0.1195(14) -0.0804(14)
C6G C -0.1195(14) 0.0500(13) -0.0804(14)
C6H C 0.0500(13) -0.1195(14) -0.0804(14)
C6I C 0.1195(14) 0.0500(13) -0.0804(14)
C6J C -0.1195(14) -0.0500(13) -0.0804(14)
C6K C -0.1195(14) 0.0500(13) 0.0804(14)
C6L C -0.0500(13) 0.1195(14) -0.0804(14)
C6M C -0.0500(13) -0.1195(14) 0.0804(14)
C6N C 0.0500(13) 0.1195(14) 0.0804(14)
C6O C 0.1195(14) -0.0500(13) 0.0804(14)
O1F O -0.1819(3) -0.0194(9) 0.6143(4)
C3F C -0.4351(6) 0.0961(8) 0.5675(8)
C4F C -0.3721(15) 0.205(2) 0.641(3)
C5F C -0.420(7) 0.279(11) 0.730(18)
O1H O -0.8181(3) -0.0194(9) 0.6143(4)
C1D C -0.7658(4) -0.0000 0.5000
C2D C -0.6283(5) -0.0000 0.5000
C3H C -0.5649(6) 0.0961(8) 0.5675(8)
C4H C -0.6279(15) 0.205(2) 0.641(3)
C5H C -0.580(7) 0.279(11) 0.730(18)
O1L O -0.1819(3) 0.0194(9) 0.6143(4)
C3L C -0.4351(6) -0.0961(8) 0.5675(8)
C4L C -0.3721(15) -0.205(2) 0.641(3)
C5L C -0.420(7) -0.279(11) 0.730(18)
O1M O -0.1819(3) -0.0194(9) 0.3857(4)
C3M C -0.4351(6) 0.0961(8) 0.4325(8)
C4M C -0.3721(15) 0.205(2) 0.359(3)
C5M C -0.420(7) 0.279(11) 0.270(18)
O1N O -0.8181(3) 0.0194(9) 0.3857(4)
C3N C -0.5649(6) -0.0961(8) 0.4325(8)
C4N C -0.6279(15) -0.205(2) 0.359(3)
C5N C -0.580(7) -0.279(11) 0.270(18)
O1D O -0.8181(3) -0.0194(9) 0.3857(4)
C3D C -0.5649(6) 0.0961(8) 0.4325(8)
C4D C -0.6279(15) 0.205(2) 0.359(3)
C5D C -0.580(7) 0.279(11) 0.270(18)
O1E O -0.8181(3) 0.0194(9) 0.6143(4)
C3E C -0.5649(6) -0.0961(8) 0.5675(8)
C4E C -0.6279(15) -0.205(2) 0.641(3)
C5E C -0.580(7) -0.279(11) 0.730(18)
Zn1C Zn 0.0000 0.0000 -0.34834(6)
O1A O -0.0194(9) -0.1819(3) 0.3857(4)
C1A C -0.0000 -0.2342(4) 0.5000
C2A C 0.0000 -0.3717(5) 0.5000
C3A C 0.0961(8) -0.4351(6) 0.4325(8)
C4A C 0.205(2) -0.3721(15) 0.359(3)
C5A C 0.279(11) -0.420(7) 0.270(18)
O1C O 0.0194(9) -0.1819(3) 0.6143(4)
C3C C -0.0961(8) -0.4351(6) 0.5675(8)
C4C C -0.205(2) -0.3721(15) 0.641(3)
C5C C -0.279(11) -0.420(7) 0.730(18)
O1I O 0.0194(9) -0.8181(3) 0.6143(4)
C1B C -0.0000 -0.7658(4) 0.5000
C2B C 0.0000 -0.6283(5) 0.5000
C3I C -0.0961(8) -0.5649(6) 0.5675(8)
C4I C -0.205(2) -0.6279(15) 0.641(3)
C5I C -0.279(11) -0.580(7) 0.730(18)
O1J O -0.0194(9) -0.1819(3) 0.6143(4)
C3J C 0.0961(8) -0.4351(6) 0.5675(8)
C4J C 0.205(2) -0.3721(15) 0.641(3)
C5J C 0.279(11) -0.420(7) 0.730(18)
O1O O 0.0194(9) -0.1819(3) 0.3857(4)
C3O C -0.0961(8) -0.4351(6) 0.4325(8)
C4O C -0.205(2) -0.3721(15) 0.359(3)
C5O C -0.279(11) -0.420(7) 0.270(18)
O1K O -0.0194(9) -0.8181(3) 0.3857(4)
C3K C 0.0961(8) -0.5649(6) 0.4325(8)
C4K C 0.205(2) -0.6279(15) 0.359(3)
C5K C 0.279(11) -0.580(7) 0.270(18)
O1B O 0.0194(9) -0.8181(3) 0.3857(4)
C3B C -0.0961(8) -0.5649(6) 0.4325(8)
C4B C -0.205(2) -0.6279(15) 0.359(3)
C5B C -0.279(11) -0.580(7) 0.270(18)
O1G O -0.0194(9) -0.8181(3) 0.6143(4)
C3G C 0.0961(8) -0.5649(6) 0.5675(8)
C4G C 0.205(2) -0.6279(15) 0.641(3)
C5G C 0.279(11) -0.580(7) 0.730(18)
Zn1_2 Zn -1.0000 -0.0000 0.34834(6)
Zn1_3 Zn 0.0000 -1.0000 0.34834(6)
Zn1C_2 Zn -1.0000 -0.0000 0.65166(6)
Zn1C_3 Zn 0.0000 -1.0000 0.65166(6)
Zn1C_4 Zn -0.0000 -0.0000 0.65166(6)
O1B_2 O 0.0194(9) 0.1819(3) 0.3857(4)
O1C_2 O 0.0194(9) -0.1819(3) -0.3857(4)
O1D_2 O 0.1819(3) -0.0194(9) 0.3857(4)
O1E_2 O 0.1819(3) 0.0194(9) -0.3857(4)
O1F_2 O -0.1819(3) -0.0194(9) -0.3857(4)
O1G_2 O -0.0194(9) 0.1819(3) -0.3857(4)
O1H_2 O 0.1819(3) -0.0194(9) -0.3857(4)
O1I_2 O 0.0194(9) 0.1819(3) -0.3857(4)
O1J_2 O -0.0194(9) -0.1819(3) -0.3857(4)
O1K_2 O -0.0194(9) 0.1819(3) 0.3857(4)
O1L_2 O -0.1819(3) 0.0194(9) -0.3857(4)
O1N_2 O 0.1819(3) 0.0194(9) 0.3857(4)
C7 C -0.131(3) -0.0000 0.080(3)
loop_
_geom_bond_atom_site_label_1
_geom_bond_atom_site_label_2
_geom_bond_site_symmetry_1
_geom_bond_site_symmetry_2
Zn1 N1 1_555 1_555
N1 C6 1_555 1_555
O1 Zn1 1_555 1_555
C1 O1 1_555 1_555
C2 C1 1_555 1_555
C3 C2 1_555 1_555
C4 C3 1_555 1_555
C5 C4 1_555 1_555
C6 C6K 1_555 1_555
C6A N1 1_555 1_555
C6B N1 1_555 1_555
N1C C6C 1_555 1_555
C6C C6H 1_555 1_555
C6D N1 1_555 1_555
C6E N1C 1_555 1_555
C6F N1C 1_555 1_555
C6G N1C 1_555 1_555
C6H N1C 1_555 1_555
C6I C6B 1_555 1_555
C6J C6A 1_555 1_555
C6K N1 1_555 1_555
C6L C6 1_555 1_555
C6M N1 1_555 1_555
C6N N1 1_555 1_555
C6O N1 1_555 1_555
O1F C1 1_555 1_555
C3F C2 1_555 1_555
C4F C3F 1_555 1_555
C5F C4F 1_555 1_555
O1H C1D 1_555 1_555
C1D C2D 1_555 1_555
C2D C3H 1_555 1_555
C3H C3F 1_555 1_555
C4H C3H 1_555 1_555
C5H C5F 1_555 1_555
O1L C1 1_555 1_555
C3L C2 1_555 1_555
C4L C3L 1_555 1_555
C5L C4L 1_555 1_555
O1M Zn1 1_555 1_555
C3M C2 1_555 1_555
C4M C3M 1_555 1_555
C5M C4M 1_555 1_555
O1N C1D 1_555 1_555
C3N C3 1_555 1_555
C4N C3N 1_555 1_555
C5N C5 1_555 1_555
O1D C1D 1_555 1_555
C3D C2D 1_555 1_555
C4D C3D 1_555 1_555
C5D C5M 1_555 1_555
O1E C1D 1_555 1_555
C3E C2D 1_555 1_555
C4E C3E 1_555 1_555
C5E C5L 1_555 1_555
Zn1C N1C 1_555 1_555
O1A Zn1 1_555 1_555
C1A O1A 1_555 1_555
C2A C1A 1_555 1_555
C3A C2A 1_555 1_555
C4A C3A 1_555 1_555
C5A C4A 1_555 1_555
O1C C1A 1_555 1_555
C3C C2A 1_555 1_555
C4C C3C 1_555 1_555
C5C C4C 1_555 1_555
O1I C1B 1_555 1_555
C1B C2B 1_555 1_555
C2B C3I 1_555 1_555
C3I C3C 1_555 1_555
C4I C3I 1_555 1_555
C5I C5C 1_555 1_555
O1J C1A 1_555 1_555
C3J C2A 1_555 1_555
C4J C3J 1_555 1_555
C5J C4J 1_555 1_555
O1O Zn1 1_555 1_555
C3O C2A 1_555 1_555
C4O C3O 1_555 1_555
C5O C4O 1_555 1_555
O1K C1B 1_555 1_555
C3K C3A 1_555 1_555
C4K C3K 1_555 1_555
C5K C5A 1_555 1_555
O1B C1B 1_555 1_555
C3B C2B 1_555 1_555
C4B C3B 1_555 1_555
C5B C5O 1_555 1_555
O1G C1B 1_555 1_555
C3G C2B 1_555 1_555
C4G C3G 1_555 1_555
C5G C5J 1_555 1_555
Zn1_2 O1N 1_555 1_555
Zn1_3 O1K 1_555 1_555
Zn1C_2 O1H 1_555 1_555
Zn1C_3 O1I 1_555 1_555
Zn1C_4 O1F 1_555 1_555
O1B_2 Zn1 1_555 1_555
O1C_2 Zn1C 1_555 1_555
O1D_2 Zn1 1_555 1_555
O1E_2 Zn1C 1_555 1_555
O1F_2 Zn1C 1_555 1_555
O1G_2 Zn1C 1_555 1_555
O1H_2 Zn1C 1_555 1_555
O1I_2 Zn1C 1_555 1_555
O1J_2 Zn1C 1_555 1_555
O1K_2 Zn1 1_555 1_555
O1L_2 Zn1C 1_555 1_555
O1N_2 Zn1 1_555 1_555
C1 O1M 1_555 1_555
C3 C3L 1_555 1_555
C6 C6N 1_555 1_555
C6A C6K 1_555 1_555
C6A C6M 1_555 1_555
C6B C6N 1_555 1_555
C6B C6O 1_555 1_555
N1C C6I 1_555 1_555
N1C C6J 1_555 1_555
N1C C6L 1_555 1_555
C6C C6I 1_555 1_555
C6C C6O 1_555 1_555
C6D C6H 1_555 1_555
C6D C6M 1_555 1_555
C6D C6O 1_555 1_555
C6E C6I 1_555 1_555
C6E C6L 1_555 1_555
C6E C6N 1_555 1_555
C6F C6H 1_555 1_555
C6F C6J 1_555 1_555
C6F C6M 1_555 1_555
C6G C6J 1_555 1_555
C6G C6K 1_555 1_555
C6G C6L 1_555 1_555
C3F C3M 1_555 1_555
C2D C3N 1_555 1_555
C3H C3D 1_555 1_555
C4H C5H 1_555 1_555
O1L Zn1C_4 1_555 1_555
C3L C3E 1_555 1_555
C3M C3D 1_555 1_555
C3N C3E 1_555 1_555
C4N C5N 1_555 1_555
O1D Zn1_2 1_555 1_555
C4D C5D 1_555 1_555
O1E Zn1C_2 1_555 1_555
C4E C5E 1_555 1_555
C1A O1O 1_555 1_555
C3A C3J 1_555 1_555
O1C Zn1C_4 1_555 1_555
C3C C3O 1_555 1_555
C2B C3K 1_555 1_555
C3I C3B 1_555 1_555
C4I C5I 1_555 1_555
O1J Zn1C_4 1_555 1_555
C3J C3G 1_555 1_555
C3O C3B 1_555 1_555
C3K C3G 1_555 1_555
C4K C5K 1_555 1_555
O1B Zn1_3 1_555 1_555
C4B C5B 1_555 1_555
O1G Zn1C_3 1_555 1_555
C4G C5G 1_555 1_555

#END
