
#######################################################################
#
#                 Cambridge Crystallographic Data Centre
#                                CCDC 
#
#######################################################################
#
# If this CIF has been generated from an entry in the Cambridge 
# Structural Database, then it will include bibliographic, chemical, 
# crystal, experimental, refinement or atomic coordinate data resulting 
# from the CCDC's data processing and validation procedures.
#
#######################################################################

data_JASMAS
_chemical_formula_moiety         'C64 H62 N3 O16 Zn2'
_symmetry_cell_setting           tetragonal
_symmetry_space_group_name_H-M   'P 4/m m m'
_symmetry_Int_Tables_number      123
_space_group_name_Hall           '-P 4 2'
loop_
_symmetry_equiv_pos_site_id
_symmetry_equiv_pos_as_xyz
1 x,y,z
2 -y,x,z
3 y,-x,z
4 y,x,-z
5 -x,-y,z
6 -x,y,-z
7 x,-y,-z
8 -y,-x,-z
9 -x,-y,-z
10 y,-x,-z
11 -y,x,-z
12 -y,-x,z
13 x,y,-z
14 x,-y,z
15 -x,y,z
16 y,x,z
_cell_length_a                   10.8954(9)
_cell_length_b                   10.8954(9)
_cell_length_c                   9.5689(11)
_cell_angle_alpha                90
_cell_angle_beta                 90
_cell_angle_gamma                90
_cell_volume                     1135.92
loop_
_atom_site_label
_atom_site_type_symbol
_atom_site_fract_x
_atom_site_fract_y
_atom_site_fract_z
Zn1 Zn 0.5000 0.5000 0.34980(7)
N1 N 0.5000 0.5000 0.1346(6)
O1 O 0.3186(4) 0.5252(4) 0.3867(4)
C1 C 0.2653(5) 0.5000 0.5000
C2 C 0.1269(5) 0.5000 0.5000
C3 C 0.0633(11) 0.5000 0.6180(13)
H1 H 0.1055 0.5000 0.7038
C4 C 0.0634(13) 0.5953(14) 0.5617(17)
C5 C 0.1345(18) 0.7044(19) 0.633(2)
H2 H 0.0761 0.7633 0.6695
H3 H 0.1865 0.7442 0.5641
H4 H 0.1847 0.6729 0.7083
C6 C 0.4342(13) 0.3884(13) 0.0810(12)
C7 C 0.5000 0.371(2) 0.079(2)
H5 H 0.4463 0.3194 0.1216
H6 H 0.3682 0.3682 0.1258
Zn1C Zn 0.5000 0.5000 0.65020(7)
N1C N 0.5000 0.5000 -0.1346(6)
N1C_2 N 0.5000 0.5000 0.8654(6)
O1M O 0.3186(4) 0.4748(4) 0.3867(4)
O1L O 0.3186(4) 0.5252(4) 0.6133(4)
O1F O 0.3186(4) 0.4748(4) 0.6133(4)
O1A O 0.4748(4) 0.3186(4) 0.3867(4)
O1O O 0.5252(4) 0.3186(4) 0.3867(4)
O1J O 0.4748(4) 0.3186(4) 0.6133(4)
O1C O 0.5252(4) 0.3186(4) 0.6133(4)
O1B O 0.5252(4) 0.6814(4) 0.3867(4)
O1N O 0.6814(4) 0.5252(4) 0.3867(4)
O1K O 0.4748(4) 0.6814(4) 0.3867(4)
O1D O 0.6814(4) 0.4748(4) 0.3867(4)
O1H O 0.6814(4) 0.4748(4) 0.6133(4)
O1I O 0.5252(4) 0.6814(4) 0.6133(4)
O1E O 0.6814(4) 0.5252(4) 0.6133(4)
O1G O 0.4748(4) 0.6814(4) 0.6133(4)
C1A C 0.5000 0.2653(5) 0.5000
C2A C 0.5000 0.1269(5) 0.5000
C2N C -0.1269(5) 0.5000 0.5000
C2B C 0.5000 -0.1269(5) 0.5000
C3L C 0.0633(11) 0.5000 0.3820(13)
C3N C -0.0633(11) 0.5000 0.6180(13)
C3A C 0.5000 0.0633(11) 0.6180(13)
C3C C 0.5000 0.0633(11) 0.3820(13)
C3B C 0.5000 -0.0633(11) 0.6180(13)
C3H C -0.0633(11) 0.5000 0.3820(13)
C3I C 0.5000 -0.0633(11) 0.3820(13)
H1A H 0.5000 0.1055 0.7038
H1L H 0.1055 0.5000 0.2962
H1N H -0.1055 0.5000 0.7038
H1C H 0.5000 0.1055 0.2962
H1B H 0.5000 -0.1055 0.7038
H1H H -0.1055 0.5000 0.2962
H1I H 0.5000 -0.1055 0.2962
C4L C 0.0634(13) 0.5953(14) 0.4383(17)
C4M C 0.0634(13) 0.4047(14) 0.5617(17)
C4F C 0.0634(13) 0.4047(14) 0.4383(17)
C4N C -0.0634(13) 0.5953(14) 0.5617(17)
C4A C 0.4047(14) 0.0634(13) 0.5617(17)
C4J C 0.4047(14) 0.0634(13) 0.4383(17)
C4O C 0.5953(14) 0.0634(13) 0.5617(17)
C4C C 0.5953(14) 0.0634(13) 0.4383(17)
C4K C 0.4047(14) -0.0634(13) 0.5617(17)
C4E C -0.0634(13) 0.5953(14) 0.4383(17)
C4D C -0.0634(13) 0.4047(14) 0.5617(17)
C4H C -0.0634(13) 0.4047(14) 0.4383(17)
C4G C 0.4047(14) -0.0634(13) 0.4383(17)
C4B C 0.5953(14) -0.0634(13) 0.5617(17)
C4I C 0.5953(14) -0.0634(13) 0.4383(17)
C5A C 0.2956(19) 0.1345(18) 0.633(2)
C5L C 0.1345(18) 0.7044(19) 0.367(2)
C5M C 0.1345(18) 0.2956(19) 0.633(2)
C5F C 0.1345(18) 0.2956(19) 0.367(2)
C5N C -0.1345(18) 0.7044(19) 0.633(2)
C5J C 0.2956(19) 0.1345(18) 0.367(2)
C5O C 0.7044(19) 0.1345(18) 0.633(2)
C5C C 0.7044(19) 0.1345(18) 0.367(2)
C5K C 0.2956(19) -0.1345(18) 0.633(2)
H2A H 0.2367 0.0761 0.6695
H2L H 0.0761 0.7633 0.3305
H2M H 0.0761 0.2367 0.6695
H2F H 0.0761 0.2367 0.3305
H2N H -0.0761 0.7633 0.6695
H2J H 0.2367 0.0761 0.3305
H2O H 0.7633 0.0761 0.6695
H2C H 0.7633 0.0761 0.3305
H2K H 0.2367 -0.0761 0.6695
H3A H 0.2558 0.1865 0.5641
H3L H 0.1865 0.7442 0.4359
H3M H 0.1865 0.2558 0.5641
H3F H 0.1865 0.2558 0.4359
H3N H -0.1865 0.7442 0.5641
H3J H 0.2558 0.1865 0.4359
H3O H 0.7442 0.1865 0.5641
H3C H 0.7442 0.1865 0.4359
H3K H 0.2558 -0.1865 0.5641
H4A H 0.3271 0.1847 0.7083
H4L H 0.1847 0.6729 0.2917
H4M H 0.1847 0.3271 0.7083
H4F H 0.1847 0.3271 0.2917
H4N H -0.1847 0.6729 0.7083
H4J H 0.3271 0.1847 0.2917
H4O H 0.6729 0.1847 0.7083
H4C H 0.6729 0.1847 0.2917
H4K H 0.3271 -0.1847 0.7083
C6A C 0.6116(13) 0.4342(13) 0.0810(12)
C6B C 0.3884(13) 0.5658(13) 0.0810(12)
C6M C 0.4342(13) 0.6116(13) 0.0810(12)
C6N C 0.5658(13) 0.3884(13) 0.0810(12)
C6O C 0.3884(13) 0.4342(13) 0.0810(12)
C6K C 0.6116(13) 0.5658(13) 0.0810(12)
C6D C 0.5658(13) 0.6116(13) 0.0810(12)
C6C C 0.3884(13) 0.4342(13) -0.0810(12)
C6L C 0.4342(13) 0.3884(13) -0.0810(12)
C6E C 0.5658(13) 0.3884(13) -0.0810(12)
C6J C 0.6116(13) 0.4342(13) -0.0810(12)
C6I C 0.3884(13) 0.5658(13) -0.0810(12)
C6F C 0.4342(13) 0.6116(13) -0.0810(12)
C6H C 0.5658(13) 0.6116(13) -0.0810(12)
C6G C 0.6116(13) 0.5658(13) -0.0810(12)
C7A C 0.629(2) 0.5000 0.079(2)
C7B C 0.371(2) 0.5000 0.079(2)
C7M C 0.5000 0.629(2) 0.079(2)
C7L C 0.5000 0.371(2) -0.079(2)
C7J C 0.629(2) 0.5000 -0.079(2)
C7C C 0.371(2) 0.5000 -0.079(2)
C7H C 0.5000 0.629(2) -0.079(2)
H5N H 0.5537 0.3194 0.1216
H5A H 0.6806 0.4463 0.1216
H5B H 0.3194 0.5537 0.1216
H5M H 0.4463 0.6806 0.1216
H5O H 0.3194 0.4463 0.1216
H5K H 0.6806 0.5537 0.1216
H5D H 0.5537 0.6806 0.1216
H5C H 0.3194 0.4463 -0.1216
H5L H 0.4463 0.3194 -0.1216
H5E H 0.5537 0.3194 -0.1216
H5J H 0.6806 0.4463 -0.1216
H5G H 0.6806 0.5537 -0.1216
H5I H 0.3194 0.5537 -0.1216
H5F H 0.4463 0.6806 -0.1216
H5H H 0.5537 0.6806 -0.1216
H6A H 0.6318 0.3682 0.1258
H6B H 0.3682 0.6318 0.1258
H6K H 0.6318 0.6318 0.1258
H6C H 0.3682 0.3682 -0.1258
H6J H 0.6318 0.3682 -0.1258
H6I H 0.3682 0.6318 -0.1258
H6H H 0.6318 0.6318 -0.1258
loop_
_geom_bond_atom_site_label_1
_geom_bond_atom_site_label_2
_geom_bond_site_symmetry_1
_geom_bond_site_symmetry_2
Zn1 N1 1_555 1_555
N1 C6 1_555 1_555
O1 Zn1 1_555 1_555
C1 O1 1_555 1_555
C2 C1 1_555 1_555
C3 C2 1_555 1_555
H1 C3 1_555 1_555
C4 C2 1_555 1_555
C5 C4 1_555 1_555
H2 C5 1_555 1_555
H3 C5 1_555 1_555
H4 C5 1_555 1_555
C6 C7 1_555 1_555
C7 N1 1_555 1_555
H5 C6 1_555 1_555
H6 C6 1_555 1_555
Zn1C N1C_2 1_555 1_555
N1C C6C 1_555 1_555
O1M Zn1 1_555 1_555
O1L C1 1_555 1_555
O1F C1 1_555 1_555
O1A Zn1 1_555 1_555
O1O Zn1 1_555 1_555
O1J Zn1C 1_555 1_555
O1C Zn1C 1_555 1_555
O1B Zn1 1_555 1_555
O1N Zn1 1_555 1_555
O1K Zn1 1_555 1_555
O1D Zn1 1_555 1_555
O1H Zn1C 1_555 1_555
O1I Zn1C 1_555 1_555
O1E Zn1C 1_555 1_555
O1G Zn1C 1_555 1_555
C1A O1A 1_555 1_555
C2A C1A 1_555 1_555
C2N C3N 1_555 1_555
C2B C3B 1_555 1_555
C3L C2 1_555 1_555
C3N C3 1_555 1_555
C3A C2A 1_555 1_555
C3C C2A 1_555 1_555
C3B C3A 1_555 1_555
C3H C2N 1_555 1_555
C3I C2B 1_555 1_555
H1A C3A 1_555 1_555
H1L C3L 1_555 1_555
H1N C3N 1_555 1_555
H1C C3C 1_555 1_555
H1B C3B 1_555 1_555
H1H C3H 1_555 1_555
H1I C3I 1_555 1_555
C4L C2 1_555 1_555
C4M C2 1_555 1_555
C4F C2 1_555 1_555
C4N C4 1_555 1_555
C4A C2A 1_555 1_555
C4J C2A 1_555 1_555
C4O C2A 1_555 1_555
C4C C2A 1_555 1_555
C4K C2B 1_555 1_555
C4E C2N 1_555 1_555
C4D C2N 1_555 1_555
C4H C2N 1_555 1_555
C4G C2B 1_555 1_555
C4B C2B 1_555 1_555
C4I C2B 1_555 1_555
C5A C4A 1_555 1_555
C5L C4L 1_555 1_555
C5M C4M 1_555 1_555
C5F C4F 1_555 1_555
C5N C4N 1_555 1_555
C5J C4J 1_555 1_555
C5O C4O 1_555 1_555
C5C C4C 1_555 1_555
C5K C4K 1_555 1_555
H2A C5A 1_555 1_555
H2L C5L 1_555 1_555
H2M C5M 1_555 1_555
H2F C5F 1_555 1_555
H2N C5N 1_555 1_555
H2J C5J 1_555 1_555
H2O C5O 1_555 1_555
H2C C5C 1_555 1_555
H2K C5K 1_555 1_555
H3A C5A 1_555 1_555
H3L C5L 1_555 1_555
H3M C5M 1_555 1_555
H3F C5F 1_555 1_555
H3N C5N 1_555 1_555
H3J C5J 1_555 1_555
H3O C5O 1_555 1_555
H3C C5C 1_555 1_555
H3K C5K 1_555 1_555
H4A C5A 1_555 1_555
H4L C5L 1_555 1_555
H4M C5M 1_555 1_555
H4F C5F 1_555 1_555
H4N C5N 1_555 1_555
H4J C5J 1_555 1_555
H4O C5O 1_555 1_555
H4C C5C 1_555 1_555
H4K C5K 1_555 1_555
C6A N1 1_555 1_555
C6B N1 1_555 1_555
C6M N1 1_555 1_555
C6N N1 1_555 1_555
C6O N1 1_555 1_555
C6K N1 1_555 1_555
C6D N1 1_555 1_555
C6C C6 1_555 1_555
C6L C6 1_555 1_555
C6E C7 1_555 1_555
C6J N1C 1_555 1_555
C6I N1C 1_555 1_555
C6F N1C 1_555 1_555
C6H N1C 1_555 1_555
C6G N1C 1_555 1_555
C7A N1 1_555 1_555
C7B N1 1_555 1_555
C7M N1 1_555 1_555
C7L C6 1_555 1_555
C7J N1C 1_555 1_555
C7C N1C 1_555 1_555
C7H N1C 1_555 1_555
H5N C7 1_555 1_555
H5A C6A 1_555 1_555
H5B C6B 1_555 1_555
H5M C6M 1_555 1_555
H5O C6O 1_555 1_555
H5K C6K 1_555 1_555
H5D C6D 1_555 1_555
H5C C6C 1_555 1_555
H5L C6L 1_555 1_555
H5E C6E 1_555 1_555
H5J C6J 1_555 1_555
H5G C6G 1_555 1_555
H5I C6I 1_555 1_555
H5F C6F 1_555 1_555
H5H C6H 1_555 1_555
H6A C6A 1_555 1_555
H6B C6B 1_555 1_555
H6K C6K 1_555 1_555
H6C C6C 1_555 1_555
H6J C6E 1_555 1_555
H6I C6I 1_555 1_555
H6H C6H 1_555 1_555
O1 O1M 1_555 1_555
C1 O1M 1_555 1_555
C3 C4 1_555 1_555
C3 C4M 1_555 1_555
C4 C4L 1_555 1_555
C6 C6N 1_555 1_555
C6 C6O 1_555 1_555
C6 C7B 1_555 1_555
C7 H5 1_555 1_555
C7 C6A 1_555 1_555
C7 C6N 1_555 1_555
C7 C6O 1_555 1_555
C7 C6L 1_555 1_555
C7 C7L 1_555 1_555
H6 C6O 1_555 1_555
Zn1C O1L 1_555 1_555
Zn1C O1F 1_555 1_555
N1C C6L 1_555 1_555
N1C C6E 1_555 1_555
N1C C7L 1_555 1_555
O1L O1F 1_555 1_555
O1A O1O 1_555 1_555
O1O C1A 1_555 1_555
O1J O1C 1_555 1_555
O1J C1A 1_555 1_555
O1C C1A 1_555 1_555
O1B O1K 1_555 1_555
O1N O1D 1_555 1_555
O1H O1E 1_555 1_555
O1I O1G 1_555 1_555
C2N C4N 1_555 1_555
C3L C3H 1_555 1_555
C3L C4L 1_555 1_555
C3L C4F 1_555 1_555
C3N C4N 1_555 1_555
C3N C4D 1_555 1_555
C3A C4A 1_555 1_555
C3A C4O 1_555 1_555
C3C C3I 1_555 1_555
C3C C4J 1_555 1_555
C3C C4C 1_555 1_555
C3B C4K 1_555 1_555
C3B C4B 1_555 1_555
C3H C4E 1_555 1_555
C3H C4H 1_555 1_555
C3I C4G 1_555 1_555
C3I C4I 1_555 1_555
C4L C4E 1_555 1_555
C4M C4F 1_555 1_555
C4M C4D 1_555 1_555
C4F C4H 1_555 1_555
C4N C4E 1_555 1_555
C4A C4J 1_555 1_555
C4A C4K 1_555 1_555
C4J C4G 1_555 1_555
C4O C4C 1_555 1_555
C4O C4B 1_555 1_555
C4C C4I 1_555 1_555
C4K C4G 1_555 1_555
C4D C4H 1_555 1_555
C4B C4I 1_555 1_555
C6A C6N 1_555 1_555
C6A C6K 1_555 1_555
C6A C6E 1_555 1_555
C6A C6J 1_555 1_555
C6A C7A 1_555 1_555
C6A C7J 1_555 1_555
C6B C6M 1_555 1_555
C6B C6O 1_555 1_555
C6B C6I 1_555 1_555
C6B C6F 1_555 1_555
C6B C7B 1_555 1_555
C6B C7M 1_555 1_555
C6B C7C 1_555 1_555
C6M C6D 1_555 1_555
C6M C6I 1_555 1_555
C6M C6F 1_555 1_555
C6M C7B 1_555 1_555
C6M C7M 1_555 1_555
C6M C7H 1_555 1_555
C6M H6B 1_555 1_555
C6N C6E 1_555 1_555
C6N C6J 1_555 1_555
C6N C7A 1_555 1_555
C6N C7L 1_555 1_555
C6N H5N 1_555 1_555
C6N H6A 1_555 1_555
C6O C6C 1_555 1_555
C6O C6L 1_555 1_555
C6O C7B 1_555 1_555
C6O C7C 1_555 1_555
C6K C6D 1_555 1_555
C6K C6H 1_555 1_555
C6K C6G 1_555 1_555
C6K C7A 1_555 1_555
C6K C7M 1_555 1_555
C6K C7J 1_555 1_555
C6D C6H 1_555 1_555
C6D C6G 1_555 1_555
C6D C7A 1_555 1_555
C6D C7M 1_555 1_555
C6D C7H 1_555 1_555
C6D H6K 1_555 1_555
C6C C6L 1_555 1_555
C6C C6I 1_555 1_555
C6C C7B 1_555 1_555
C6C C7L 1_555 1_555
C6C C7C 1_555 1_555
C6L C6E 1_555 1_555
C6L C7L 1_555 1_555
C6L C7C 1_555 1_555
C6L H6C 1_555 1_555
C6E C6J 1_555 1_555
C6E C7L 1_555 1_555
C6E C7J 1_555 1_555
C6J C6G 1_555 1_555
C6J C7A 1_555 1_555
C6J C7L 1_555 1_555
C6J C7J 1_555 1_555
C6J H6J 1_555 1_555
C6I C6F 1_555 1_555
C6I C7B 1_555 1_555
C6I C7C 1_555 1_555
C6I C7H 1_555 1_555
C6F C6H 1_555 1_555
C6F C7M 1_555 1_555
C6F C7C 1_555 1_555
C6F C7H 1_555 1_555
C6F H6I 1_555 1_555
C6H C6G 1_555 1_555
C6H C7M 1_555 1_555
C6H C7J 1_555 1_555
C6H C7H 1_555 1_555
C6G C7A 1_555 1_555
C6G C7J 1_555 1_555
C6G C7H 1_555 1_555
C6G H6H 1_555 1_555
C7A C7J 1_555 1_555
C7A H5A 1_555 1_555
C7A H5K 1_555 1_555
C7B C7C 1_555 1_555
C7B H5B 1_555 1_555
C7B H5O 1_555 1_555
C7M C7H 1_555 1_555
C7M H5M 1_555 1_555
C7M H5D 1_555 1_555
C7L H5L 1_555 1_555
C7L H5E 1_555 1_555
C7J H5J 1_555 1_555
C7J H5G 1_555 1_555
C7C H5C 1_555 1_555
C7C H5I 1_555 1_555
C7H H5F 1_555 1_555
C7H H5H 1_555 1_555

#END
