
#######################################################################
#
#                 Cambridge Crystallographic Data Centre
#                                CCDC 
#
#######################################################################
#
# If this CIF has been generated from an entry in the Cambridge 
# Structural Database, then it will include bibliographic, chemical, 
# crystal, experimental, refinement or atomic coordinate data resulting 
# from the CCDC's data processing and validation procedures.
#
#######################################################################

data_JASMEW
_chemical_formula_moiety         'C56 H54 N3 O16 Zn2'
_symmetry_cell_setting           tetragonal
_symmetry_space_group_name_H-M   'P 4/m m m'
_symmetry_Int_Tables_number      123
_space_group_name_Hall           '-P 4 2'
loop_
_symmetry_equiv_pos_site_id
_symmetry_equiv_pos_as_xyz
1 x,y,z
2 -y,x,z
3 y,-x,z
4 y,x,-z
5 -x,-y,z
6 -x,y,-z
7 x,-y,-z
8 -y,-x,-z
9 -x,-y,-z
10 y,-x,-z
11 -y,x,-z
12 -y,-x,z
13 x,y,-z
14 x,-y,z
15 -x,y,z
16 y,x,z
_cell_length_a                   10.8691(14)
_cell_length_b                   10.8691(14)
_cell_length_c                   9.563(3)
_cell_angle_alpha                90
_cell_angle_beta                 90
_cell_angle_gamma                90
_cell_volume                     1129.75
loop_
_atom_site_label
_atom_site_type_symbol
_atom_site_fract_x
_atom_site_fract_y
_atom_site_fract_z
Zn1 Zn 0.5000 0.5000 0.15089(15)
O1 O 0.5308(5) 0.3181(5) 0.1096(5)
N1 N 0.5000 0.5000 0.3630(11)
C1 C 0.5000 0.2665(8) 0.0000
C2 C 0.5000 0.1254(8) 0.0000
C3 C 0.4064(8) 0.0642(8) 0.0721(10)
C4 C 0.3093(10) 0.1315(9) 0.1536(12)
H1 H 0.3151 0.2189 0.1345
H2 H 0.3216 0.1171 0.2528
H3 H 0.2287 0.1018 0.1263
C5 C 0.4649(17) 0.376(3) 0.429(3)
C6 C 0.409(3) 0.409(3) 0.430(4)
H4 H 0.4533 0.3285 0.3370
H5 H 0.5000 0.3186 0.3387
Zn1C Zn 0.5000 0.5000 -0.15089(15)
O1N O 0.4692(5) 0.3181(5) 0.1096(5)
O1L O 0.5308(5) 0.3181(5) -0.1096(5)
O1E O 0.4692(5) 0.3181(5) -0.1096(5)
O1A O 0.6819(5) 0.5308(5) 0.1096(5)
O1K O 0.6819(5) 0.4692(5) 0.1096(5)
O1J O 0.6819(5) 0.5308(5) -0.1096(5)
O1G O 0.6819(5) 0.4692(5) -0.1096(5)
O1B O 0.3181(5) 0.4692(5) 0.1096(5)
O1M O 0.5308(5) 0.6819(5) 0.1096(5)
O1O O 0.3181(5) 0.5308(5) 0.1096(5)
O1D O 0.4692(5) 0.6819(5) 0.1096(5)
O1C O 0.3181(5) 0.5308(5) -0.1096(5)
O1H O 0.4692(5) 0.6819(5) -0.1096(5)
O1I O 0.3181(5) 0.4692(5) -0.1096(5)
O1F O 0.5308(5) 0.6819(5) -0.1096(5)
N1C N 0.5000 0.5000 0.6370(11)
N1C_2 N 0.5000 0.5000 -0.3630(11)
C1A C 0.7335(8) 0.5000 0.0000
C2A C 0.8746(8) 0.5000 0.0000
C2M C 0.5000 -0.1254(8) 0.0000
C2B C 1.1254(8) 0.5000 0.0000
C3L C 0.4064(8) 0.0642(8) -0.0721(10)
C3N C 0.5936(8) 0.0642(8) 0.0721(10)
C3E C 0.5936(8) 0.0642(8) -0.0721(10)
C3M C 0.4064(8) -0.0642(8) 0.0721(10)
C3A C 0.9358(8) 0.4064(8) 0.0721(10)
C3J C 0.9358(8) 0.4064(8) -0.0721(10)
C3K C 0.9358(8) 0.5936(8) 0.0721(10)
C3G C 0.9358(8) 0.5936(8) -0.0721(10)
C3O C 1.0642(8) 0.4064(8) 0.0721(10)
C3F C 0.4064(8) -0.0642(8) -0.0721(10)
C3D C 0.5936(8) -0.0642(8) 0.0721(10)
C3H C 0.5936(8) -0.0642(8) -0.0721(10)
C3C C 1.0642(8) 0.4064(8) -0.0721(10)
C3B C 1.0642(8) 0.5936(8) 0.0721(10)
C3I C 1.0642(8) 0.5936(8) -0.0721(10)
C4A C 0.8685(9) 0.3093(10) 0.1536(12)
C4L C 0.3093(10) 0.1315(9) -0.1536(12)
C4N C 0.6907(10) 0.1315(9) 0.1536(12)
C4E C 0.6907(10) 0.1315(9) -0.1536(12)
C4M C 0.3093(10) -0.1315(9) 0.1536(12)
C4J C 0.8685(9) 0.3093(10) -0.1536(12)
C4K C 0.8685(9) 0.6907(10) 0.1536(12)
C4G C 0.8685(9) 0.6907(10) -0.1536(12)
C4O C 1.1315(9) 0.3093(10) 0.1536(12)
H1A H 0.7811 0.3151 0.1345
H1L H 0.3151 0.2189 -0.1345
H1N H 0.6849 0.2189 0.1345
H1E H 0.6849 0.2189 -0.1345
H1M H 0.3151 -0.2189 0.1345
H1J H 0.7811 0.3151 -0.1345
H1K H 0.7811 0.6849 0.1345
H1G H 0.7811 0.6849 -0.1345
H1O H 1.2189 0.3151 0.1345
H2A H 0.8829 0.3216 0.2528
H2L H 0.3216 0.1171 -0.2528
H2N H 0.6784 0.1171 0.2528
H2E H 0.6784 0.1171 -0.2528
H2M H 0.3216 -0.1171 0.2528
H2J H 0.8829 0.3216 -0.2528
H2K H 0.8829 0.6784 0.2528
H2G H 0.8829 0.6784 -0.2528
H2O H 1.1171 0.3216 0.2528
H3A H 0.8982 0.2287 0.1263
H3L H 0.2287 0.1018 -0.1263
H3N H 0.7713 0.1018 0.1263
H3E H 0.7713 0.1018 -0.1263
H3M H 0.2287 -0.1018 0.1263
H3J H 0.8982 0.2287 -0.1263
H3K H 0.8982 0.7713 0.1263
H3G H 0.8982 0.7713 -0.1263
H3O H 1.1018 0.2287 0.1263
C5A C 0.624(3) 0.4649(17) 0.429(3)
C5B C 0.376(3) 0.5351(17) 0.429(3)
C5M C 0.4649(17) 0.624(3) 0.429(3)
C5N C 0.5351(17) 0.376(3) 0.429(3)
C5O C 0.376(3) 0.4649(17) 0.429(3)
C5K C 0.624(3) 0.5351(17) 0.429(3)
C5D C 0.5351(17) 0.624(3) 0.429(3)
C5L C 0.4649(17) 0.376(3) 0.571(3)
C5E C 0.5351(17) 0.376(3) 0.571(3)
C5C C 0.376(3) 0.4649(17) 0.571(3)
C5J C 0.624(3) 0.4649(17) 0.571(3)
C5G C 0.624(3) 0.5351(17) 0.571(3)
C5I C 0.376(3) 0.5351(17) 0.571(3)
C5H C 0.5351(17) 0.624(3) 0.571(3)
C5F C 0.4649(17) 0.624(3) 0.571(3)
C6A C 0.591(3) 0.409(3) 0.430(4)
C6B C 0.409(3) 0.591(3) 0.430(4)
C6K C 0.591(3) 0.591(3) 0.430(4)
C6C C 0.409(3) 0.409(3) 0.570(4)
C6J C 0.591(3) 0.409(3) 0.570(4)
C6I C 0.409(3) 0.591(3) 0.570(4)
C6H C 0.591(3) 0.591(3) 0.570(4)
H4N H 0.5467 0.3285 0.3370
H4A H 0.6715 0.4533 0.3370
H4B H 0.3285 0.5467 0.3370
H4M H 0.4533 0.6715 0.3370
H4O H 0.3285 0.4533 0.3370
H4K H 0.6715 0.5467 0.3370
H4D H 0.5467 0.6715 0.3370
H4L H 0.4533 0.3285 0.6630
H4E H 0.5467 0.3285 0.6630
H4C H 0.3285 0.4533 0.6630
H4J H 0.6715 0.4533 0.6630
H4G H 0.6715 0.5467 0.6630
H4I H 0.3285 0.5467 0.6630
H4H H 0.5467 0.6715 0.6630
H4F H 0.4533 0.6715 0.6630
H5A H 0.6814 0.5000 0.3387
H5B H 0.3186 0.5000 0.3387
H5M H 0.5000 0.6814 0.3387
H5L H 0.5000 0.3186 0.6613
H5C H 0.3186 0.5000 0.6613
H5J H 0.6814 0.5000 0.6613
H5H H 0.5000 0.6814 0.6613
loop_
_geom_bond_atom_site_label_1
_geom_bond_atom_site_label_2
_geom_bond_site_symmetry_1
_geom_bond_site_symmetry_2
Zn1 O1 1_555 1_555
O1 C1 1_555 1_555
N1 Zn1 1_555 1_555
C1 C2 1_555 1_555
C2 C3 1_555 1_555
C3 C4 1_555 1_555
C4 H1 1_555 1_555
H2 C4 1_555 1_555
H3 C4 1_555 1_555
C5 N1 1_555 1_555
C6 N1 1_555 1_555
H4 C5 1_555 1_555
H5 C5 1_555 1_555
Zn1C O1L 1_555 1_555
O1N Zn1 1_555 1_555
O1L C1 1_555 1_555
O1E C1 1_555 1_555
O1A Zn1 1_555 1_555
O1K Zn1 1_555 1_555
O1J Zn1C 1_555 1_555
O1G Zn1C 1_555 1_555
O1B Zn1 1_555 1_555
O1M Zn1 1_555 1_555
O1O Zn1 1_555 1_555
O1D Zn1 1_555 1_555
O1C Zn1C 1_555 1_555
O1H Zn1C 1_555 1_555
O1I Zn1C 1_555 1_555
O1F Zn1C 1_555 1_555
N1C C5L 1_555 1_555
N1C_2 Zn1C 1_555 1_555
C1A O1A 1_555 1_555
C2A C1A 1_555 1_555
C2M C3M 1_555 1_555
C2B C3O 1_555 1_555
C3L C2 1_555 1_555
C3N C2 1_555 1_555
C3E C2 1_555 1_555
C3M C3 1_555 1_555
C3A C2A 1_555 1_555
C3J C2A 1_555 1_555
C3K C2A 1_555 1_555
C3G C2A 1_555 1_555
C3O C3A 1_555 1_555
C3F C2M 1_555 1_555
C3D C2M 1_555 1_555
C3H C2M 1_555 1_555
C3C C2B 1_555 1_555
C3B C2B 1_555 1_555
C3I C2B 1_555 1_555
C4A C3A 1_555 1_555
C4L C3L 1_555 1_555
C4N C3N 1_555 1_555
C4E C3E 1_555 1_555
C4M C3M 1_555 1_555
C4J C3J 1_555 1_555
C4K C3K 1_555 1_555
C4G C3G 1_555 1_555
C4O C3O 1_555 1_555
H1A C4A 1_555 1_555
H1L C4L 1_555 1_555
H1N C4N 1_555 1_555
H1E C4E 1_555 1_555
H1M C4M 1_555 1_555
H1J C4J 1_555 1_555
H1K C4K 1_555 1_555
H1G C4G 1_555 1_555
H1O C4O 1_555 1_555
H2A C4A 1_555 1_555
H2L C4L 1_555 1_555
H2N C4N 1_555 1_555
H2E C4E 1_555 1_555
H2M C4M 1_555 1_555
H2J C4J 1_555 1_555
H2K C4K 1_555 1_555
H2G C4G 1_555 1_555
H2O C4O 1_555 1_555
H3A C4A 1_555 1_555
H3L C4L 1_555 1_555
H3N C4N 1_555 1_555
H3E C4E 1_555 1_555
H3M C4M 1_555 1_555
H3J C4J 1_555 1_555
H3K C4K 1_555 1_555
H3G C4G 1_555 1_555
H3O C4O 1_555 1_555
C5A N1 1_555 1_555
C5B N1 1_555 1_555
C5M N1 1_555 1_555
C5N N1 1_555 1_555
C5O N1 1_555 1_555
C5K N1 1_555 1_555
C5D N1 1_555 1_555
C5L C5 1_555 1_555
C5E C5 1_555 1_555
C5C C6 1_555 1_555
C5J N1C 1_555 1_555
C5G N1C 1_555 1_555
C5I N1C 1_555 1_555
C5H N1C 1_555 1_555
C5F N1C 1_555 1_555
C6A N1 1_555 1_555
C6B N1 1_555 1_555
C6K N1 1_555 1_555
C6C C5 1_555 1_555
C6J N1C 1_555 1_555
C6I N1C 1_555 1_555
C6H N1C 1_555 1_555
H4N H5 1_555 1_555
H4A C5A 1_555 1_555
H4B C5B 1_555 1_555
H4M C5M 1_555 1_555
H4O C5O 1_555 1_555
H4K C5K 1_555 1_555
H4D C5D 1_555 1_555
H4L C5L 1_555 1_555
H4E C5E 1_555 1_555
H4C C5C 1_555 1_555
H4J C5J 1_555 1_555
H4G C5G 1_555 1_555
H4I C5I 1_555 1_555
H4H C5H 1_555 1_555
H4F C5F 1_555 1_555
H5A C5A 1_555 1_555
H5B C5B 1_555 1_555
H5M C5M 1_555 1_555
H5L C5L 1_555 1_555
H5C C5C 1_555 1_555
H5J C5J 1_555 1_555
H5H C5H 1_555 1_555
O1 O1N 1_555 1_555
C1 O1N 1_555 1_555
C3 C3L 1_555 1_555
C5 C6 1_555 1_555
C5 C5N 1_555 1_555
C5 C5O 1_555 1_555
C5 C6A 1_555 1_555
C6 C5B 1_555 1_555
C6 C5N 1_555 1_555
C6 C5O 1_555 1_555
C6 C5L 1_555 1_555
C6 C6C 1_555 1_555
H4 H5 1_555 1_555
H5 C5N 1_555 1_555
Zn1C O1E 1_555 1_555
O1L O1E 1_555 1_555
O1A O1K 1_555 1_555
O1K C1A 1_555 1_555
O1J O1G 1_555 1_555
O1J C1A 1_555 1_555
O1G C1A 1_555 1_555
O1B O1O 1_555 1_555
O1M O1D 1_555 1_555
O1C O1I 1_555 1_555
O1H O1F 1_555 1_555
N1C C5E 1_555 1_555
N1C C5C 1_555 1_555
N1C C6C 1_555 1_555
C3L C3F 1_555 1_555
C3N C3E 1_555 1_555
C3N C3D 1_555 1_555
C3E C3H 1_555 1_555
C3M C3F 1_555 1_555
C3A C3J 1_555 1_555
C3J C3C 1_555 1_555
C3K C3G 1_555 1_555
C3K C3B 1_555 1_555
C3G C3I 1_555 1_555
C3O C3C 1_555 1_555
C3D C3H 1_555 1_555
C3B C3I 1_555 1_555
C5A C5N 1_555 1_555
C5A C5K 1_555 1_555
C5A C5J 1_555 1_555
C5A C5G 1_555 1_555
C5A C6A 1_555 1_555
C5A C6K 1_555 1_555
C5A C6J 1_555 1_555
C5B C5M 1_555 1_555
C5B C5O 1_555 1_555
C5B C5C 1_555 1_555
C5B C5I 1_555 1_555
C5B C6B 1_555 1_555
C5B C6I 1_555 1_555
C5M C5D 1_555 1_555
C5M C5H 1_555 1_555
C5M C5F 1_555 1_555
C5M C6B 1_555 1_555
C5M C6K 1_555 1_555
C5M C6I 1_555 1_555
C5N C5L 1_555 1_555
C5N C5E 1_555 1_555
C5N C6A 1_555 1_555
C5N C6J 1_555 1_555
C5N H4N 1_555 1_555
C5O C5C 1_555 1_555
C5O C5I 1_555 1_555
C5O C6B 1_555 1_555
C5O C6C 1_555 1_555
C5O H5B 1_555 1_555
C5K C5D 1_555 1_555
C5K C5J 1_555 1_555
C5K C5G 1_555 1_555
C5K C6A 1_555 1_555
C5K C6K 1_555 1_555
C5K C6H 1_555 1_555
C5K H5A 1_555 1_555
C5D C5H 1_555 1_555
C5D C5F 1_555 1_555
C5D C6B 1_555 1_555
C5D C6K 1_555 1_555
C5D C6H 1_555 1_555
C5D H5M 1_555 1_555
C5L C5E 1_555 1_555
C5L C5C 1_555 1_555
C5L C6C 1_555 1_555
C5L C6J 1_555 1_555
C5E C5J 1_555 1_555
C5E C6A 1_555 1_555
C5E C6C 1_555 1_555
C5E C6J 1_555 1_555
C5E H5L 1_555 1_555
C5C C5I 1_555 1_555
C5C C6C 1_555 1_555
C5C C6I 1_555 1_555
C5J C5G 1_555 1_555
C5J C6A 1_555 1_555
C5J C6J 1_555 1_555
C5J C6H 1_555 1_555
C5G C5H 1_555 1_555
C5G C6K 1_555 1_555
C5G C6J 1_555 1_555
C5G C6H 1_555 1_555
C5G H5J 1_555 1_555
C5I C5F 1_555 1_555
C5I C6B 1_555 1_555
C5I C6C 1_555 1_555
C5I C6I 1_555 1_555
C5I H5C 1_555 1_555
C5H C5F 1_555 1_555
C5H C6K 1_555 1_555
C5H C6I 1_555 1_555
C5H C6H 1_555 1_555
C5F C6B 1_555 1_555
C5F C6I 1_555 1_555
C5F C6H 1_555 1_555
C5F H5H 1_555 1_555
C6A C6J 1_555 1_555
C6B C6I 1_555 1_555
C6K C6H 1_555 1_555
H4A H5A 1_555 1_555
H4B H5B 1_555 1_555
H4M H5M 1_555 1_555
H4O H5B 1_555 1_555
H4K H5A 1_555 1_555
H4D H5M 1_555 1_555
H4L H5L 1_555 1_555
H4E H5L 1_555 1_555
H4C H5C 1_555 1_555
H4J H5J 1_555 1_555
H4G H5J 1_555 1_555
H4I H5C 1_555 1_555
H4H H5H 1_555 1_555
H4F H5H 1_555 1_555

#END
