
#######################################################################
#
#                 Cambridge Crystallographic Data Centre
#                                CCDC 
#
#######################################################################
#
# If this CIF has been generated from an entry in the Cambridge 
# Structural Database, then it will include bibliographic, chemical, 
# crystal, experimental, refinement or atomic coordinate data resulting 
# from the CCDC's data processing and validation procedures.
#
#######################################################################

data_JASMOG
_chemical_formula_moiety         'C32 H8 F8 N3 O12 Zn7'
_symmetry_cell_setting           tetragonal
_symmetry_space_group_name_H-M   'P 4/n b m'
_symmetry_Int_Tables_number      125
_space_group_name_Hall           '-P 4a 2b'
loop_
_symmetry_equiv_pos_site_id
_symmetry_equiv_pos_as_xyz
1 x,y,z
2 1/2-y,x,z
3 y,1/2-x,z
4 y,x,-z
5 1/2-x,1/2-y,z
6 1/2-x,y,-z
7 x,1/2-y,-z
8 1/2-y,1/2-x,-z
9 -x,-y,-z
10 1/2+y,-x,-z
11 -y,1/2+x,-z
12 -y,-x,z
13 1/2+x,1/2+y,-z
14 1/2+x,-y,z
15 -x,1/2+y,z
16 1/2+y,1/2+x,z
_cell_length_a                   15.4508(7)
_cell_length_b                   15.4508(7)
_cell_length_c                   9.6198(6)
_cell_angle_alpha                90
_cell_angle_beta                 90
_cell_angle_gamma                90
_cell_volume                     2296.51
loop_
_atom_site_label
_atom_site_type_symbol
_atom_site_fract_x
_atom_site_fract_y
_atom_site_fract_z
Zn1 Zn 0.2500 0.2500 0.34663(4)
F1 F 0.11397(14) 0.49295(15) 0.7121(2)
O1 O 0.17296(11) 0.35399(11) 0.38743(17)
N1 N 0.2500 0.2500 0.1334(4)
C1 C 0.13407(14) 0.36593(14) 0.5000
C2 C 0.06487(15) 0.43513(15) 0.5000
C3 C 0.0576(2) 0.4947(2) 0.6065(3)
C4 C 0.1607(12) 0.264(5) 0.0804(13)
C6 C 0.329(4) 0.293(4) 0.079(2)
H3 H 0.1269 0.2878 0.1217
Zn1C Zn 0.2500 0.2500 0.65337(4)
Zn1L Zn -0.2500 0.7500 0.65337(4)
Zn1M Zn -0.2500 0.7500 0.34663(4)
Zn1C_2 Zn 0.2500 0.2500 -0.34663(4)
Zn1L_2 Zn -0.2500 -0.2500 0.65337(4)
Zn1M_2 Zn -0.2500 -0.2500 0.34663(4)
F1G F 0.00705(15) 0.38603(14) 0.2879(2)
F1H F -0.11397(14) 0.50705(15) 0.2879(2)
F1O F -0.00705(15) 0.61397(14) 0.7121(2)
F1A F 0.00705(15) 0.11397(14) 0.7121(2)
F1F F 0.11397(14) 0.00705(15) 0.2879(2)
F1I F -0.00705(15) -0.11397(14) 0.2879(2)
F1N F -0.11397(14) -0.00705(15) 0.7121(2)
O1G O 0.14601(11) 0.32704(11) 0.61257(17)
O1H O -0.17296(11) 0.64601(11) 0.61257(17)
O1O O -0.14601(11) 0.67296(11) 0.38743(17)
O1A O 0.14601(11) 0.17296(11) 0.38743(17)
O1F O 0.17296(11) 0.14601(11) 0.61257(17)
O1I O -0.14601(11) -0.17296(11) 0.61257(17)
O1N O -0.17296(11) -0.14601(11) 0.38743(17)
O1B O 0.35399(11) 0.32704(11) 0.38743(17)
O1D O 0.32704(11) 0.14601(11) 0.38743(17)
O1C O 0.35399(11) 0.17296(11) 0.61257(17)
O1E O 0.32704(11) 0.35399(11) 0.61257(17)
N1C N 0.2500 0.2500 -0.1334(4)
N1C_2 N 0.2500 0.2500 0.8666(4)
C1O C -0.13407(14) 0.63407(14) 0.5000
C1A C 0.13407(14) 0.13407(14) 0.5000
C1N C -0.13407(14) -0.13407(14) 0.5000
C2O C -0.06487(15) 0.56487(15) 0.5000
C2A C 0.06487(15) 0.06487(15) 0.5000
C2N C -0.06487(15) -0.06487(15) 0.5000
C3G C 0.0053(2) 0.4424(2) 0.3935(3)
C3H C -0.0576(2) 0.5053(2) 0.3935(3)
C3O C -0.0053(2) 0.5576(2) 0.6065(3)
C3A C 0.0053(2) 0.0576(2) 0.6065(3)
C3F C 0.0576(2) 0.0053(2) 0.3935(3)
C3I C -0.0053(2) -0.0576(2) 0.3935(3)
C3N C -0.0576(2) -0.0053(2) 0.6065(3)
C4F C 0.1607(12) 0.236(5) -0.0804(13)
C4G C 0.236(5) 0.3393(12) -0.0804(13)
C4B C 0.264(5) 0.3393(12) 0.0804(13)
C4A C 0.236(5) 0.1607(12) 0.0804(13)
C4C C 0.264(5) 0.1607(12) -0.0804(13)
C4E C 0.3393(12) 0.264(5) -0.0804(13)
C4D C 0.3393(12) 0.236(5) 0.0804(13)
C6A C 0.207(4) 0.329(4) 0.079(2)
C6B C 0.293(4) 0.171(4) 0.079(2)
C6C C 0.293(4) 0.329(4) -0.079(2)
C6F C 0.329(4) 0.207(4) -0.079(2)
C6G C 0.207(4) 0.171(4) -0.079(2)
C6E C 0.171(4) 0.293(4) -0.079(2)
C6D C 0.171(4) 0.207(4) 0.079(2)
H3B H 0.2878 0.3731 0.1217
H3C H 0.2878 0.1269 -0.1217
H3E H 0.3731 0.2878 -0.1217
H3D H 0.3731 0.2122 0.1217
H3F H 0.1269 0.2122 -0.1217
H3A H 0.2122 0.1269 0.1217
H3G H 0.2122 0.3731 -0.1217
loop_
_geom_bond_atom_site_label_1
_geom_bond_atom_site_label_2
_geom_bond_site_symmetry_1
_geom_bond_site_symmetry_2
Zn1 O1 1_555 1_555
F1 C3 1_555 1_555
O1 C1 1_555 1_555
N1 Zn1 1_555 1_555
C1 C2 1_555 1_555
C2 C3 1_555 1_555
C3 C3O 1_555 1_555
C4 N1 1_555 1_555
C6 N1 1_555 1_555
H3 C4 1_555 1_555
Zn1C O1G 1_555 1_555
Zn1L O1H 1_555 1_555
Zn1M O1O 1_555 1_555
Zn1C_2 N1C 1_555 1_555
Zn1L_2 O1I 1_555 1_555
Zn1M_2 O1N 1_555 1_555
F1G C3G 1_555 1_555
F1H C3H 1_555 1_555
F1O C3O 1_555 1_555
F1A C3A 1_555 1_555
F1F C3F 1_555 1_555
F1I C3I 1_555 1_555
F1N C3N 1_555 1_555
O1G C1 1_555 1_555
O1H C1O 1_555 1_555
O1O C1O 1_555 1_555
O1A Zn1 1_555 1_555
O1F Zn1C 1_555 1_555
O1I C1N 1_555 1_555
O1N C1N 1_555 1_555
O1B Zn1 1_555 1_555
O1D Zn1 1_555 1_555
O1C Zn1C 1_555 1_555
O1E Zn1C 1_555 1_555
N1C C4F 1_555 1_555
N1C_2 Zn1C 1_555 1_555
C1O C2O 1_555 1_555
C1A O1A 1_555 1_555
C1N C2N 1_555 1_555
C2O C3H 1_555 1_555
C2A C1A 1_555 1_555
C2N C3I 1_555 1_555
C3G C2 1_555 1_555
C3H C3G 1_555 1_555
C3O C2O 1_555 1_555
C3A C2A 1_555 1_555
C3F C2A 1_555 1_555
C3I C3F 1_555 1_555
C3N C2N 1_555 1_555
C4F C4 1_555 1_555
C4G N1C 1_555 1_555
C4B N1 1_555 1_555
C4A N1 1_555 1_555
C4C N1C 1_555 1_555
C4E C6 1_555 1_555
C4D N1 1_555 1_555
C6A N1 1_555 1_555
C6B N1 1_555 1_555
C6C C6 1_555 1_555
C6F N1C 1_555 1_555
C6G N1C 1_555 1_555
C6E C4 1_555 1_555
C6D N1 1_555 1_555
H3B C4B 1_555 1_555
H3C C4C 1_555 1_555
H3E C4E 1_555 1_555
H3D C4D 1_555 1_555
H3F C4F 1_555 1_555
H3A C4A 1_555 1_555
H3G C4G 1_555 1_555
C4 C6A 1_555 1_555
C4 C6D 1_555 1_555
C6 C4B 1_555 1_555
C6 C4D 1_555 1_555
O1F C1A 1_555 1_555
N1C C4E 1_555 1_555
N1C C6C 1_555 1_555
N1C C6E 1_555 1_555
C3A C3N 1_555 1_555
C4F C6G 1_555 1_555
C4F C6E 1_555 1_555
C4F C6D 1_555 1_555
C4G C4B 1_555 1_555
C4G C6A 1_555 1_555
C4G C6C 1_555 1_555
C4G C6E 1_555 1_555
C4B C6A 1_555 1_555
C4B C6C 1_555 1_555
C4A C4C 1_555 1_555
C4A C6B 1_555 1_555
C4A C6G 1_555 1_555
C4A C6D 1_555 1_555
C4C C6B 1_555 1_555
C4C C6F 1_555 1_555
C4C C6G 1_555 1_555
C4E C4D 1_555 1_555
C4E C6C 1_555 1_555
C4E C6F 1_555 1_555
C4D C6B 1_555 1_555
C4D C6F 1_555 1_555
C6A C6E 1_555 1_555
C6B C6F 1_555 1_555
C6G C6D 1_555 1_555

#END
