
#######################################################################
#
#                 Cambridge Crystallographic Data Centre
#                                CCDC 
#
#######################################################################
#
# If this CIF has been generated from an entry in the Cambridge 
# Structural Database, then it will include bibliographic, chemical, 
# crystal, experimental, refinement or atomic coordinate data resulting 
# from the CCDC's data processing and validation procedures.
#
#######################################################################

data_JASNEX
_chemical_formula_moiety         '(C34 H20 N2 O8 Zn2)n'
_symmetry_cell_setting           monoclinic
_symmetry_space_group_name_H-M   'C 2/m'
_symmetry_Int_Tables_number      12
_space_group_name_Hall           '-C 2y'
loop_
_symmetry_equiv_pos_site_id
_symmetry_equiv_pos_as_xyz
1 x,y,z
2 1/2+x,1/2+y,z
3 -x,y,-z
4 1/2-x,1/2+y,-z
5 -x,-y,-z
6 1/2-x,1/2-y,-z
7 x,-y,z
8 1/2+x,1/2-y,z
_cell_length_a                   10.458(3)
_cell_length_b                   19.896(7)
_cell_length_c                   7.753(2)
_cell_angle_alpha                90
_cell_angle_beta                 100.07(3)
_cell_angle_gamma                90
_cell_volume                     1588.33
loop_
_atom_site_label
_atom_site_type_symbol
_atom_site_fract_x
_atom_site_fract_y
_atom_site_fract_z
Zn1 Zn 0.10011(18) 0.5000 0.8876(2)
O1 O 0.1683(9) 0.4269(7) 1.0671(11)
O2 O 0.0213(8) 0.4297(6) 1.2392(11)
C1 C 0.2895(13) 0.2265(9) 1.4607(17)
C2 C 0.3111(18) 0.2426(11) 1.2876(19)
H1 H 0.3593 0.2134 1.2284
C3 C 0.2621(17) 0.2995(10) 1.2108(19)
H2 H 0.2820 0.3102 1.1003
C4 C 0.1587(13) 0.3314(10) 1.4524(16)
H3 H 0.1082 0.3611 1.5066
C5 C 0.1823(12) 0.3447(9) 1.2850(15)
C6 C 0.1200(12) 0.4046(9) 1.1930(14)
N1 N 0.2560 0.5000 0.7550
C7 C 0.3843 0.5000 0.8408
H4 H 0.4032 0.5000 0.9639
C8 C 0.4848 0.5000 0.7447
H5 H 0.5715 0.5000 0.8027
C9 C 0.4568 0.5000 0.5627
C10 C 0.3285 0.5000 0.4769
H6 H 0.3096 0.5000 0.3538
C11 C 0.2281 0.5000 0.5730
H7 H 0.1413 0.5000 0.5149
Zn1E Zn 0.39989(18) -0.0000 2.1124(2)
Zn1D Zn -0.10011(18) 0.5000 1.1124(2)
Zn1A Zn 0.60011(18) 0.0000 1.8876(2)
Zn1D_2 Zn 0.89989(18) 0.5000 0.1124(2)
Zn1E_2 Zn 0.39989(18) 1.0000 2.1124(2)
Zn1A_2 Zn 0.60011(18) 1.0000 1.8876(2)
O1E O 0.3317(9) 0.0731(7) 1.9329(11)
O1F O 0.1683(9) 0.5731(7) 1.0671(11)
O1C O 0.3317(9) 0.9269(7) 1.9329(11)
O1D O -0.1683(9) 0.5731(7) 0.9329(11)
O1B O -0.1683(9) 0.4269(7) 0.9329(11)
O2E O 0.4787(8) 0.0703(6) 1.7608(11)
O2F O 0.0213(8) 0.5703(6) 1.2392(11)
O2C O 0.4787(8) 0.9297(6) 1.7608(11)
O2D O -0.0213(8) 0.5703(6) 0.7608(11)
O2B O -0.0213(8) 0.4297(6) 0.7608(11)
C1E C 0.2105(13) 0.2735(9) 1.5393(17)
C1F C 0.2895(13) 0.7735(9) 1.4607(17)
C1C C 0.2105(13) 0.7265(9) 1.5393(17)
C2E C 0.1889(18) 0.2574(11) 1.7124(19)
C2F C 0.3111(18) 0.7574(11) 1.2876(19)
C2C C 0.1889(18) 0.7426(11) 1.7124(19)
H1E H 0.1407 0.2866 1.7716
H1F H 0.3593 0.7866 1.2284
H1C H 0.1407 0.7134 1.7716
C3E C 0.2379(17) 0.2005(10) 1.7892(19)
C3F C 0.2621(17) 0.7005(10) 1.2108(19)
C3C C 0.2379(17) 0.7995(10) 1.7892(19)
H2E H 0.2180 0.1898 1.8997
H2F H 0.2820 0.6898 1.1003
H2C H 0.2180 0.8102 1.8997
C4E C 0.3413(13) 0.1686(10) 1.5476(16)
C4F C 0.1587(13) 0.6686(10) 1.4524(16)
C4C C 0.3413(13) 0.8314(10) 1.5476(16)
H3E H 0.3918 0.1389 1.4934
H3F H 0.1082 0.6389 1.5066
H3C H 0.3918 0.8611 1.4934
C5E C 0.3177(12) 0.1553(9) 1.7150(15)
C5F C 0.1823(12) 0.6553(9) 1.2850(15)
C5C C 0.3177(12) 0.8447(9) 1.7150(15)
C6E C 0.3800(12) 0.0954(9) 1.8070(14)
C6F C 0.1200(12) 0.5954(9) 1.1930(14)
C6C C 0.3800(12) 0.9046(9) 1.8070(14)
N1D N 0.7440 0.5000 0.2450
N1D_2 N -0.2560 0.5000 1.2450
C7D C 0.6157 0.5000 0.1592
H4D H 0.5968 0.5000 0.0361
C8D C 0.5152 0.5000 0.2553
H5D H 0.4285 0.5000 0.1973
C9D C 0.5432 0.5000 0.4373
C10D C 0.6715 0.5000 0.5231
H6D H 0.6904 0.5000 0.6462
C11D C 0.7719 0.5000 0.4270
H7D H 0.8587 0.5000 0.4851
loop_
_geom_bond_atom_site_label_1
_geom_bond_atom_site_label_2
_geom_bond_site_symmetry_1
_geom_bond_site_symmetry_2
Zn1 O1 1_555 1_555
O1 C6 1_555 1_555
O2 C6 1_555 1_555
C1 C2 1_555 1_555
C2 H1 1_555 1_555
C3 C2 1_555 1_555
H2 C3 1_555 1_555
C4 H3 1_555 1_555
C5 C3 1_555 1_555
C6 C5 1_555 1_555
N1 Zn1 1_555 1_555
C7 N1 1_555 1_555
H4 C7 1_555 1_555
C8 C7 1_555 1_555
H5 C8 1_555 1_555
C9 C8 1_555 1_555
C10 C9 1_555 1_555
H6 C10 1_555 1_555
C11 N1 1_555 1_555
H7 C11 1_555 1_555
Zn1E O1E 1_555 1_555
Zn1D O2 1_555 1_555
Zn1A O2E 1_555 1_555
Zn1D_2 N1D 1_555 1_555
Zn1E_2 O1C 1_555 1_555
Zn1A_2 O2C 1_555 1_555
O1E C6E 1_555 1_555
O1F Zn1 1_555 1_555
O1C C6C 1_555 1_555
O1D Zn1D 1_555 1_555
O1B Zn1D 1_555 1_555
O2E C6E 1_555 1_555
O2F Zn1D 1_555 1_555
O2C C6C 1_555 1_555
O2D Zn1 1_555 1_555
O2B Zn1 1_555 1_555
C1E C1 1_555 1_555
C1F C1C 1_555 1_555
C1C C2C 1_555 1_555
C2E C1E 1_555 1_555
C2F C1F 1_555 1_555
C2C H1C 1_555 1_555
H1E C2E 1_555 1_555
H1F C2F 1_555 1_555
C3E C2E 1_555 1_555
C3F C2F 1_555 1_555
C3C C2C 1_555 1_555
H2E C3E 1_555 1_555
H2F C3F 1_555 1_555
H2C C3C 1_555 1_555
C4E C1 1_555 1_555
C4F C1C 1_555 1_555
C4C C1F 1_555 1_555
H3E C4E 1_555 1_555
H3F C4F 1_555 1_555
H3C C4C 1_555 1_555
C5E C3E 1_555 1_555
C5F C3F 1_555 1_555
C5C C3C 1_555 1_555
C6E C5E 1_555 1_555
C6F O1F 1_555 1_555
C6C C5C 1_555 1_555
N1D C7D 1_555 1_555
N1D_2 Zn1D 1_555 1_555
C7D H4D 1_555 1_555
C8D C7D 1_555 1_555
H5D C8D 1_555 1_555
C9D C9 1_555 1_555
C10D C9D 1_555 1_555
H6D C10D 1_555 1_555
C11D N1D 1_555 1_555
H7D C11D 1_555 1_555
C4 C5 1_555 1_555
C4 C1E 1_555 1_555
C10 C11 1_555 1_555
O2F C6F 1_555 1_555
C4E C5E 1_555 1_555
C4F C5F 1_555 1_555
C4C C5C 1_555 1_555
C5F C6F 1_555 1_555
C8D C9D 1_555 1_555
C10D C11D 1_555 1_555

#END
