
#######################################################################
#
#                 Cambridge Crystallographic Data Centre
#                                CCDC 
#
#######################################################################
#
# If this CIF has been generated from an entry in the Cambridge 
# Structural Database, then it will include bibliographic, chemical, 
# crystal, experimental, refinement or atomic coordinate data resulting 
# from the CCDC's data processing and validation procedures.
#
#######################################################################

data_JUSKIT
_chemical_formula_moiety         '(C34 H24 Ba1 O12)n'
_symmetry_cell_setting           monoclinic
_symmetry_space_group_name_H-M   'C 2/c'
_symmetry_Int_Tables_number      15
_space_group_name_Hall           '-C 2yc'
loop_
_symmetry_equiv_pos_site_id
_symmetry_equiv_pos_as_xyz
1 x,y,z
2 -x,y,1/2-z
3 1/2+x,1/2+y,z
4 1/2-x,1/2+y,1/2-z
5 -x,-y,-z
6 x,-y,1/2+z
7 1/2-x,1/2-y,-z
8 1/2+x,1/2-y,1/2+z
_cell_length_a                   32.2746(7)
_cell_length_b                   12.6358(6)
_cell_length_c                   8.9507(2)
_cell_angle_alpha                90
_cell_angle_beta                 98.533(2)
_cell_angle_gamma                90
_cell_volume                     3609.83
loop_
_atom_site_label
_atom_site_type_symbol
_atom_site_fract_x
_atom_site_fract_y
_atom_site_fract_z
Ba1 Ba -0.5000 -0.06956(5) -0.2500
O1 O -0.44233(15) -0.1748(6) -0.0545(5)
O2 O -0.42523(16) -0.1289(7) 0.6471(5)
O3 O -0.46974(16) -0.0807(4) 0.4540(6)
O4 O -0.37777(16) -0.1633(6) -0.0988(5)
H1 H -0.3889 -0.1415 -0.1815
O5 O -0.2377(2) 0.1393(7) 0.4043(11)
O6 O -0.3342(4) -0.5835(7) 0.459(2)
C1 C -0.4057(2) -0.1695(7) -0.0082(6)
C2 C -0.40417(17) -0.1441(6) 0.4053(6)
C3 C -0.38919(18) -0.1693(6) 0.1549(6)
C4 C -0.41736(17) -0.1487(6) 0.2515(6)
H2 H -0.4454 -0.1378 0.2134
C5 C -0.34730(19) -0.1895(7) 0.2109(7)
H3 H -0.3282 -0.2028 0.1448
C6 C -0.36262(18) -0.1651(6) 0.4614(6)
H4 H -0.3537 -0.1626 0.5651
C7 C -0.33418(18) -0.1899(7) 0.3651(7)
C8 C -0.43526(19) -0.1163(7) 0.5097(6)
C9 C -0.29015(19) -0.2187(7) 0.4314(6)
C10 C -0.25885(19) -0.1433(7) 0.4578(7)
C11 C -0.2825(2) -0.3256(7) 0.4733(8)
C12 C -0.2341(3) 0.0352(9) 0.4432(14)
C13 C -0.3136(3) -0.4051(9) 0.4452(13)
H5 H -0.3402 -0.3865 0.3973
C14 C -0.2653(3) -0.0353(8) 0.4147(11)
H6 H -0.2914 -0.0135 0.3664
C15 C -0.3062(3) -0.5040(11) 0.4847(15)
C16 C -0.2769(3) 0.1781(10) 0.3401(14)
H7 H -0.2760 0.2540 0.3359
H8 H -0.2977 0.1567 0.4006
H9 H -0.2841 0.1503 0.2398
C17 C -0.3736(7) -0.5596(15) 0.368(4)
H10 H -0.3691 -0.5117 0.2891
H11 H -0.3919 -0.5274 0.4304
H12 H -0.3860 -0.6237 0.3252
O1F O -0.05767(15) -0.3252(6) 1.0545(5)
O2F O -0.07477(16) -0.3711(7) 0.3529(5)
O3F O -0.03026(16) -0.4193(4) 0.5460(6)
O4F O -0.12223(16) -0.3367(6) 1.0988(5)
H1F H -0.1111 -0.3585 1.1815
O5F O -0.2623(2) -0.6393(7) 0.5957(11)
O6F O -0.1658(4) 0.0835(7) 0.541(2)
C1F C -0.0943(2) -0.3305(7) 1.0082(6)
C2F C -0.09583(17) -0.3559(6) 0.5947(6)
C3F C -0.11081(18) -0.3307(6) 0.8451(6)
C4F C -0.08264(17) -0.3513(6) 0.7485(6)
H2F H -0.0546 -0.3622 0.7866
C5F C -0.15270(19) -0.3105(7) 0.7891(7)
H3F H -0.1718 -0.2972 0.8552
C6F C -0.13738(18) -0.3349(6) 0.5386(6)
H4F H -0.1463 -0.3374 0.4349
C7F C -0.16582(18) -0.3101(7) 0.6349(7)
C8F C -0.06474(19) -0.3837(7) 0.4903(6)
C9F C -0.20985(19) -0.2813(7) 0.5686(6)
C10F C -0.24115(19) -0.3567(7) 0.5422(7)
C11F C -0.2175(2) -0.1744(7) 0.5267(8)
C12F C -0.2659(3) -0.5352(9) 0.5568(14)
C13F C -0.1864(3) -0.0949(9) 0.5548(13)
H5F H -0.1598 -0.1135 0.6027
C14F C -0.2347(3) -0.4647(8) 0.5853(11)
H6F H -0.2086 -0.4865 0.6336
C15F C -0.1938(3) 0.0040(11) 0.5153(15)
C16F C -0.2231(3) -0.6781(10) 0.6599(14)
H7F H -0.2240 -0.7540 0.6641
H8F H -0.2023 -0.6567 0.5994
H9F H -0.2159 -0.6503 0.7602
C17F C -0.1264(7) 0.0596(15) 0.632(4)
H10F H -0.1309 0.0117 0.7109
H11F H -0.1081 0.0274 0.5696
H12F H -0.1140 0.1237 0.6748
Ba1_2 Ba -0.5000 -0.06956(5) 0.7500
Ba1B Ba 0.0000 -0.56956(5) 0.7500
Ba1D Ba -0.5000 0.06956(5) 0.2500
Ba1F Ba 0.0000 -0.43044(5) 0.2500
Ba1F_2 Ba 0.0000 -0.43044(5) 1.2500
O1A O -0.55767(15) -0.1748(6) -0.4455(5)
O2_2 O -0.42523(16) -0.1289(7) -0.3529(5)
O2A O -0.57477(16) -0.1289(7) -0.1471(5)
O3_2 O -0.46974(16) -0.0807(4) -0.5460(6)
O3A O -0.53026(16) -0.0807(4) 0.0460(6)
O3D O -0.53026(16) 0.0807(4) -0.4540(6)
O3E O -0.46974(16) 0.0807(4) -0.0460(6)
loop_
_geom_bond_atom_site_label_1
_geom_bond_atom_site_label_2
_geom_bond_site_symmetry_1
_geom_bond_site_symmetry_2
Ba1 O1 1_555 1_555
O1 C1 1_555 1_555
O2 C8 1_555 1_555
O3 C8 1_555 1_555
O4 H1 1_555 1_555
O5 C12 1_555 1_555
O6 C15 1_555 1_555
C1 O4 1_555 1_555
C2 C4 1_555 1_555
C3 C1 1_555 1_555
C4 C3 1_555 1_555
H2 C4 1_555 1_555
C5 C3 1_555 1_555
H3 C5 1_555 1_555
C6 C2 1_555 1_555
H4 C6 1_555 1_555
C7 C5 1_555 1_555
C8 C2 1_555 1_555
C9 C7 1_555 1_555
C10 C9 1_555 1_555
C11 C9 1_555 1_555
C12 C14 1_555 1_555
C13 C11 1_555 1_555
H5 C13 1_555 1_555
C14 C10 1_555 1_555
H6 C14 1_555 1_555
C15 C13 1_555 1_555
C16 O5 1_555 1_555
H7 C16 1_555 1_555
H8 C16 1_555 1_555
H9 C16 1_555 1_555
C17 O6 1_555 1_555
H10 C17 1_555 1_555
H11 C17 1_555 1_555
H12 C17 1_555 1_555
O1F C1F 1_555 1_555
O2F C8F 1_555 1_555
O3F C8F 1_555 1_555
O4F H1F 1_555 1_555
O5F C12F 1_555 1_555
O6F C15F 1_555 1_555
C1F O4F 1_555 1_555
C2F C4F 1_555 1_555
C3F C1F 1_555 1_555
C4F C3F 1_555 1_555
H2F C4F 1_555 1_555
C5F C3F 1_555 1_555
H3F C5F 1_555 1_555
C6F C2F 1_555 1_555
H4F C6F 1_555 1_555
C7F C5F 1_555 1_555
C8F C2F 1_555 1_555
C9F C7F 1_555 1_555
C10F C11 1_555 1_555
C11F C10 1_555 1_555
C12F C15 1_555 1_555
C13F C11F 1_555 1_555
H5F C13F 1_555 1_555
C14F C10F 1_555 1_555
H6F C14F 1_555 1_555
C15F C12 1_555 1_555
C16F O5F 1_555 1_555
H7F C16F 1_555 1_555
H8F C16F 1_555 1_555
H9F C16F 1_555 1_555
C17F O6F 1_555 1_555
H10F C17F 1_555 1_555
H11F C17F 1_555 1_555
H12F C17F 1_555 1_555
Ba1_2 O2 1_555 1_555
Ba1B O3F 1_555 1_555
Ba1D O3 1_555 1_555
Ba1F O2F 1_555 1_555
Ba1F_2 O1F 1_555 1_555
O1A Ba1 1_555 1_555
O2_2 Ba1 1_555 1_555
O2A Ba1 1_555 1_555
O3_2 Ba1 1_555 1_555
O3A Ba1 1_555 1_555
O3D Ba1 1_555 1_555
O3E Ba1 1_555 1_555
O3 Ba1_2 1_555 1_555
C6 C7 1_555 1_555
O3F Ba1F 1_555 1_555
C6F C7F 1_555 1_555
C9F C10F 1_555 1_555
C9F C11F 1_555 1_555
C12F C14F 1_555 1_555
C13F C15F 1_555 1_555
Ba1D O3A 1_555 1_555
Ba1D O3E 1_555 1_555

#END
