
#######################################################################
#
#                 Cambridge Crystallographic Data Centre
#                                CCDC 
#
#######################################################################
#
# If this CIF has been generated from an entry in the Cambridge 
# Structural Database, then it will include bibliographic, chemical, 
# crystal, experimental, refinement or atomic coordinate data resulting 
# from the CCDC's data processing and validation procedures.
#
#######################################################################

data_BIMDEF
_chemical_formula_moiety         '(C14 H22 Cu2 O13)n'
_symmetry_cell_setting           monoclinic
_symmetry_space_group_name_H-M   'C 2/c'
_symmetry_Int_Tables_number      15
_space_group_name_Hall           '-C 2yc'
loop_
_symmetry_equiv_pos_site_id
_symmetry_equiv_pos_as_xyz
1 x,y,z
2 -x,y,1/2-z
3 1/2+x,1/2+y,z
4 1/2-x,1/2+y,1/2-z
5 -x,-y,-z
6 x,-y,1/2+z
7 1/2-x,1/2-y,-z
8 1/2+x,1/2-y,1/2+z
_cell_length_a                   12.9658(2)
_cell_length_b                   11.220
_cell_length_c                   14.3359(2)
_cell_angle_alpha                90
_cell_angle_beta                 93.8570(10)
_cell_angle_gamma                90
_cell_volume                     2080.81
loop_
_atom_site_label
_atom_site_type_symbol
_atom_site_fract_x
_atom_site_fract_y
_atom_site_fract_z
Cu1 Cu 0.1843(1) 0.1614(1) 0.4900(1)
O1 O 0.1038(2) 0.2726(2) 0.4067(2)
O2 O 0.2204(2) 0.4193(2) 0.4181(2)
O3 O -0.1063(2) 0.7784(2) 0.4049(2)
O4 O -0.2196(2) 0.6287(2) 0.3923(2)
O5 O 0.0982(3) 0.0065(3) 0.4447(4)
C1 C 0.1366(2) 0.3743(3) 0.3855(2)
C2 C 0.0687(2) 0.4506(3) 0.3168(2)
C3 C -0.0002(2) 0.5304(3) 0.3745(2)
C4 C -0.0695(2) 0.6100(2) 0.3071(2)
C5 C -0.1377(2) 0.6800(3) 0.3719(2)
C6 C 0.1375(2) 0.5312(3) 0.2597(2)
C7 C -0.0000 0.3719(4) 0.2500
C8 C -0.0000 0.6905(4) 0.2500
H1 H 0.0890(50) -0.0400(60) 0.4900(50)
H2 H 0.0640(60) 0.0100(70) 0.4090(60)
H3 H 0.0436 0.5813 0.4174
H4 H -0.0441 0.4802 0.4125
H5 H 0.1814 0.5820 0.3025
H6 H 0.1833 0.4812 0.2233
H7 H -0.0440 0.3201 0.2867
H8 H 0.0440 0.3201 0.2133
H9 H -0.0434 0.7421 0.2073
H10 H 0.0434 0.7422 0.2927
C6A C -0.1375(2) 0.5312(3) 0.2403(2)
C2A C -0.0687(2) 0.4506(3) 0.1832(2)
C1A C -0.1366(2) 0.3743(3) 0.1145(2)
O1A O -0.1038(2) 0.2726(2) 0.0933(2)
O2A O -0.2204(2) 0.4193(2) 0.0819(2)
C3A C 0.0002(2) 0.5304(3) 0.1255(2)
C4A C 0.0695(2) 0.6100(2) 0.1929(2)
C5A C 0.1377(2) 0.6800(3) 0.1281(2)
O3A O 0.1063(2) 0.7784(2) 0.0951(2)
O4A O 0.2196(2) 0.6287(2) 0.1077(2)
H3A H -0.0436 0.5813 0.0826
H4A H 0.0441 0.4802 0.0875
H5A H -0.1814 0.5820 0.1975
H6A H -0.1833 0.4812 0.2767
Cu1A Cu -0.1843(1) 0.1614(1) 0.0100(1)
O5A O -0.0982(3) 0.0065(3) 0.0553(4)
H1A H -0.0890(50) -0.0400(60) 0.0100(50)
H2A H -0.0640(60) 0.0100(70) 0.0910(60)
Cu1F Cu 0.3157(1) 0.3386(1) 0.5100(1)
O2F O 0.2796(2) 0.0807(2) 0.5819(2)
O3D O 0.1063(2) 0.2216(2) 0.5951(2)
O4B O 0.2804(2) 0.1287(2) 0.3923(2)
Cu1D Cu -0.1843(1) 0.8386(1) 0.5100(1)
Cu1B Cu -0.3157(1) 0.6614(1) 0.4900(1)
Cu1G Cu -0.3157(1) 0.3386(1) -0.0100(1)
Cu1E Cu 0.1843(1) 0.8386(1) -0.0100(1)
Cu1C Cu 0.3157(1) 0.6614(1) 0.0100(1)
O2G O -0.2796(2) 0.0807(2) -0.0819(2)
O3E O -0.1063(2) 0.2216(2) -0.0951(2)
O4C O -0.2804(2) 0.1287(2) 0.1077(2)
O6 O 0.1037(3) 0.1739(4) 0.0815(5)
O7 O 0.0637(8) -0.0104(9) 0.6797(7)
O8 O 0.2639(19) 0.3240(20) 0.0847(19)
loop_
_geom_bond_atom_site_label_1
_geom_bond_atom_site_label_2
_geom_bond_site_symmetry_1
_geom_bond_site_symmetry_2
Cu1 O1 1_555 1_555
O1 C1 1_555 1_555
O2 C1 1_555 1_555
O3 C5 1_555 1_555
O4 C5 1_555 1_555
O5 Cu1 1_555 1_555
C1 C2 1_555 1_555
C2 C3 1_555 1_555
C3 C4 1_555 1_555
C4 C5 1_555 1_555
C6 C2 1_555 1_555
C7 C2 1_555 1_555
C8 C4 1_555 1_555
H1 O5 1_555 1_555
H2 O5 1_555 1_555
H3 C3 1_555 1_555
H4 C3 1_555 1_555
H5 C6 1_555 1_555
H6 C6 1_555 1_555
H7 C7 1_555 1_555
H8 C7 1_555 1_555
H9 C8 1_555 1_555
H10 C8 1_555 1_555
C6A C4 1_555 1_555
C2A C7 1_555 1_555
C1A C2A 1_555 1_555
O1A C1A 1_555 1_555
O2A C1A 1_555 1_555
C3A C2A 1_555 1_555
C4A C6 1_555 1_555
C5A C4A 1_555 1_555
O3A C5A 1_555 1_555
O4A C5A 1_555 1_555
H3A C3A 1_555 1_555
H4A C3A 1_555 1_555
H5A C6A 1_555 1_555
H6A C6A 1_555 1_555
Cu1A O1A 1_555 1_555
O5A Cu1A 1_555 1_555
H1A O5A 1_555 1_555
H2A O5A 1_555 1_555
Cu1F Cu1 1_555 1_555
O2F Cu1 1_555 1_555
O3D Cu1 1_555 1_555
O4B Cu1 1_555 1_555
Cu1D O3 1_555 1_555
Cu1B O4 1_555 1_555
Cu1G O2A 1_555 1_555
Cu1E O3A 1_555 1_555
Cu1C O4A 1_555 1_555
O2G Cu1A 1_555 1_555
O3E Cu1A 1_555 1_555
O4C Cu1A 1_555 1_555
O2 Cu1F 1_555 1_555
C8 C4A 1_555 1_555
C6A C2A 1_555 1_555
C3A C4A 1_555 1_555
Cu1A Cu1G 1_555 1_555
Cu1D Cu1B 1_555 1_555
Cu1E Cu1C 1_555 1_555

#END
