
#######################################################################
#
#                 Cambridge Crystallographic Data Centre
#                                CCDC 
#
#######################################################################
#
# If this CIF has been generated from an entry in the Cambridge 
# Structural Database, then it will include bibliographic, chemical, 
# crystal, experimental, refinement or atomic coordinate data resulting 
# from the CCDC's data processing and validation procedures.
#
#######################################################################

data_EYUKUF
_chemical_formula_moiety         'C81 H60 Cd12 N20 O32'
_symmetry_cell_setting           tetragonal
_symmetry_space_group_name_H-M   'P 4/m n c'
_symmetry_Int_Tables_number      128
_space_group_name_Hall           '-P 4 2n'
loop_
_symmetry_equiv_pos_site_id
_symmetry_equiv_pos_as_xyz
1 x,y,z
2 -y,x,z
3 -x,-y,z
4 y,-x,z
5 1/2+x,1/2-y,1/2-z
6 1/2-x,1/2+y,1/2-z
7 1/2+y,1/2+x,1/2-z
8 1/2-y,1/2-x,1/2-z
9 -x,-y,-z
10 y,-x,-z
11 x,y,-z
12 -y,x,-z
13 1/2-x,1/2+y,1/2+z
14 1/2+x,1/2-y,1/2+z
15 1/2-y,1/2-x,1/2+z
16 1/2+y,1/2+x,1/2+z
_cell_length_a                   17.322(2)
_cell_length_b                   17.322(2)
_cell_length_c                   27.263(6)
_cell_angle_alpha                90
_cell_angle_beta                 90
_cell_angle_gamma                90
_cell_volume                     8180.31
loop_
_atom_site_label
_atom_site_type_symbol
_atom_site_fract_x
_atom_site_fract_y
_atom_site_fract_z
Cd1 Cd 0.094340(18) -0.56059(2) 0.0000
C1 C 0.1154(3) -0.4016(3) 0.0000
C2 C 0.1313(3) -0.3157(3) 0.0000
C3 C 0.0715(3) -0.2646(3) 0.0000
H1 H 0.0209 -0.2823 0.0000
C4 C 0.0867(3) -0.1861(3) 0.0000
C5 C 0.1609(3) -0.1585(3) 0.0000
H2 H 0.1704 -0.1057 0.0000
C6 C 0.2231(3) -0.2123(3) 0.0000
C7 C 0.2083(3) -0.2902(3) 0.0000
H3 H 0.2487 -0.3255 0.0000
C8 C 0.3029(3) -0.1798(3) 0.0000
C9 C 0.0188(5) -0.0677(5) -0.0309(6)
H4 H -0.0205 -0.0741 -0.0559
H5 H 0.0680 -0.0596 -0.0471
C10 C 0.0000 0.0000 0.0000
C11 C 0.0383(5) -0.6017(4) -0.1093(2)
H6 H 0.0018 -0.6294 -0.0914
C12 C 0.0363(5) -0.6056(5) -0.1606(2)
H7 H -0.0003 -0.6360 -0.1765
C13 C 0.0888(5) -0.5639(5) -0.1870(2)
C14 C 0.1393(6) -0.5209(6) -0.1627(2)
H8 H 0.1751 -0.4913 -0.1798
C15 C 0.1389(5) -0.5202(5) -0.1109(2)
H9 H 0.1748 -0.4899 -0.0944
O1 O 0.0457(2) -0.4245(2) 0.0000
O2 O 0.1703(2) -0.4485(2) 0.0000
O3 O 0.3601(2) -0.2221(3) 0.0000
O4 O 0.3095(2) -0.1071(2) 0.0000
O5 O 0.0226(3) -0.1378(3) 0.0000
N1 N 0.0897(2) -0.5607(2) -0.08531(15)
N2 N 0.0972(4) -0.5556(4) -0.2424(3)
Cd1B Cd -0.094340(18) 0.56059(2) 0.0000
Cd1A Cd 0.56059(2) 0.094340(18) 0.0000
Cd1C Cd -0.56059(2) -0.094340(18) 0.0000
Cd1B_2 Cd -0.094340(18) -0.43941(2) 0.0000
Cd1C_2 Cd 0.43941(2) -0.094340(18) 0.0000
Cd1_2 Cd 0.094340(18) 0.43941(2) 0.0000
Cd1A_2 Cd -0.43941(2) 0.094340(18) 0.0000
Cd1G Cd 0.06059(2) -0.594340(18) -0.5000
Cd1G_2 Cd 0.06059(2) -0.594340(18) 0.5000
Cd1F Cd -0.06059(2) 0.594340(18) -0.5000
Cd1F_2 Cd -0.06059(2) 0.594340(18) 0.5000
C1B C -0.1154(3) 0.4016(3) 0.0000
C1A C 0.4016(3) 0.1154(3) 0.0000
C1C C -0.4016(3) -0.1154(3) 0.0000
C2B C -0.1313(3) 0.3157(3) 0.0000
C2A C 0.3157(3) 0.1313(3) 0.0000
C2C C -0.3157(3) -0.1313(3) 0.0000
C3B C -0.0715(3) 0.2646(3) 0.0000
C3A C 0.2646(3) 0.0715(3) 0.0000
C3C C -0.2646(3) -0.0715(3) 0.0000
H1B H -0.0209 0.2823 0.0000
H1A H 0.2823 0.0209 0.0000
H1C H -0.2823 -0.0209 0.0000
C4B C -0.0867(3) 0.1861(3) 0.0000
C4A C 0.1861(3) 0.0867(3) 0.0000
C4C C -0.1861(3) -0.0867(3) 0.0000
C5B C -0.1609(3) 0.1585(3) 0.0000
C5A C 0.1585(3) 0.1609(3) 0.0000
C5C C -0.1585(3) -0.1609(3) 0.0000
H2B H -0.1704 0.1057 0.0000
H2A H 0.1057 0.1704 0.0000
H2C H -0.1057 -0.1704 0.0000
C6B C -0.2231(3) 0.2123(3) 0.0000
C6A C 0.2123(3) 0.2231(3) 0.0000
C6C C -0.2123(3) -0.2231(3) 0.0000
C7B C -0.2083(3) 0.2902(3) 0.0000
C7A C 0.2902(3) 0.2083(3) 0.0000
C7C C -0.2902(3) -0.2083(3) 0.0000
H3B H -0.2487 0.3255 0.0000
H3A H 0.3255 0.2487 0.0000
H3C H -0.3255 -0.2487 0.0000
C8B C -0.3029(3) 0.1798(3) 0.0000
C8A C 0.1798(3) 0.3029(3) 0.0000
C8C C -0.1798(3) -0.3029(3) 0.0000
C9C C -0.0677(5) -0.0188(5) -0.0309(6)
C9B C -0.0188(5) 0.0677(5) -0.0309(6)
C9A C 0.0677(5) 0.0188(5) -0.0309(6)
C9J C 0.0188(5) -0.0677(5) 0.0309(6)
C9I C -0.0677(5) -0.0188(5) 0.0309(6)
C9K C 0.0677(5) 0.0188(5) 0.0309(6)
C9H C -0.0188(5) 0.0677(5) 0.0309(6)
H4J H -0.0205 -0.0741 0.0559
H4C H -0.0741 0.0205 -0.0559
H4B H 0.0205 0.0741 -0.0559
H4A H 0.0741 -0.0205 -0.0559
H4H H 0.0205 0.0741 0.0559
H4K H 0.0741 -0.0205 0.0559
H4I H -0.0741 0.0205 0.0559
H5I H -0.0596 -0.0680 0.0471
H5B H -0.0680 0.0596 -0.0471
H5A H 0.0596 0.0680 -0.0471
H5C H -0.0596 -0.0680 -0.0471
H5K H 0.0596 0.0680 0.0471
H5J H 0.0680 -0.0596 0.0471
H5H H -0.0680 0.0596 0.0471
C11G C 0.1017(4) -0.5383(5) -0.3907(2)
C11J C 0.0383(5) -0.6017(4) 0.1093(2)
C11N C 0.1017(4) -0.5383(5) 0.3907(2)
C11B C -0.0383(5) 0.6017(4) -0.1093(2)
C11F C -0.1017(4) 0.5383(5) -0.3907(2)
C11H C -0.0383(5) 0.6017(4) 0.1093(2)
C11O C -0.1017(4) 0.5383(5) 0.3907(2)
H6G H 0.1294 -0.5018 -0.4086
H6J H 0.0018 -0.6294 0.0914
H6N H 0.1294 -0.5018 0.4086
H6B H -0.0018 0.6294 -0.0914
H6F H -0.1294 0.5018 -0.4086
H6H H -0.0018 0.6294 0.0914
H6O H -0.1294 0.5018 0.4086
C12G C 0.1056(5) -0.5363(5) -0.3394(2)
C12J C 0.0363(5) -0.6056(5) 0.1606(2)
C12N C 0.1056(5) -0.5363(5) 0.3394(2)
C12B C -0.0363(5) 0.6056(5) -0.1606(2)
C12F C -0.1056(5) 0.5363(5) -0.3394(2)
C12H C -0.0363(5) 0.6056(5) 0.1606(2)
C12O C -0.1056(5) 0.5363(5) 0.3394(2)
H7G H 0.1360 -0.4997 -0.3235
H7J H -0.0003 -0.6360 0.1765
H7N H 0.1360 -0.4997 0.3235
H7B H 0.0003 0.6360 -0.1765
H7F H -0.1360 0.4997 -0.3235
H7H H 0.0003 0.6360 0.1765
H7O H -0.1360 0.4997 0.3235
C13G C 0.0639(5) -0.5888(5) -0.3130(2)
C13J C 0.0888(5) -0.5639(5) 0.1870(2)
C13N C 0.0639(5) -0.5888(5) 0.3130(2)
C13B C -0.0888(5) 0.5639(5) -0.1870(2)
C13F C -0.0639(5) 0.5888(5) -0.3130(2)
C13H C -0.0888(5) 0.5639(5) 0.1870(2)
C13O C -0.0639(5) 0.5888(5) 0.3130(2)
C14G C 0.0209(6) -0.6393(6) -0.3373(2)
C14J C 0.1393(6) -0.5209(6) 0.1627(2)
C14N C 0.0209(6) -0.6393(6) 0.3373(2)
C14B C -0.1393(6) 0.5209(6) -0.1627(2)
C14F C -0.0209(6) 0.6393(6) -0.3373(2)
C14H C -0.1393(6) 0.5209(6) 0.1627(2)
C14O C -0.0209(6) 0.6393(6) 0.3373(2)
H8G H -0.0087 -0.6751 -0.3202
H8J H 0.1751 -0.4913 0.1798
H8N H -0.0087 -0.6751 0.3202
H8B H -0.1751 0.4913 -0.1798
H8F H 0.0087 0.6751 -0.3202
H8H H -0.1751 0.4913 0.1798
H8O H 0.0087 0.6751 0.3202
C15G C 0.0202(5) -0.6389(5) -0.3891(2)
C15J C 0.1389(5) -0.5202(5) 0.1109(2)
C15N C 0.0202(5) -0.6389(5) 0.3891(2)
C15B C -0.1389(5) 0.5202(5) -0.1109(2)
C15F C -0.0202(5) 0.6389(5) -0.3891(2)
C15H C -0.1389(5) 0.5202(5) 0.1109(2)
C15O C -0.0202(5) 0.6389(5) 0.3891(2)
H9G H -0.0101 -0.6748 -0.4056
H9J H 0.1748 -0.4899 0.0944
H9N H -0.0101 -0.6748 0.4056
H9B H -0.1748 0.4899 -0.0944
H9F H 0.0101 0.6748 -0.4056
H9H H -0.1748 0.4899 0.0944
H9O H 0.0101 0.6748 0.4056
O1B O -0.0457(2) 0.4245(2) 0.0000
O1A O 0.4245(2) 0.0457(2) 0.0000
O1C O -0.4245(2) -0.0457(2) 0.0000
O1B_2 O -0.0457(2) -0.5755(2) 0.0000
O1_2 O 0.0457(2) 0.5755(2) 0.0000
O1C_2 O 0.5755(2) -0.0457(2) 0.0000
O1A_2 O -0.5755(2) 0.0457(2) 0.0000
O2B O -0.1703(2) 0.4485(2) 0.0000
O2A O 0.4485(2) 0.1703(2) 0.0000
O2C O -0.4485(2) -0.1703(2) 0.0000
O3B O -0.3601(2) 0.2221(3) 0.0000
O3A O 0.2221(3) 0.3601(2) 0.0000
O3C O -0.2221(3) -0.3601(2) 0.0000
O3A_2 O 0.2221(3) -0.6399(2) 0.0000
O3C_2 O -0.2221(3) 0.6399(2) 0.0000
O3B_2 O 0.6399(2) 0.2221(3) 0.0000
O3_2 O -0.6399(2) -0.2221(3) 0.0000
O4B O -0.3095(2) 0.1071(2) 0.0000
O4A O 0.1071(2) 0.3095(2) 0.0000
O4C O -0.1071(2) -0.3095(2) 0.0000
O4A_2 O 0.1071(2) -0.6905(2) 0.0000
O4C_2 O -0.1071(2) 0.6905(2) 0.0000
O4B_2 O 0.6905(2) 0.1071(2) 0.0000
O4_2 O -0.6905(2) -0.1071(2) 0.0000
O5B O -0.0226(3) 0.1378(3) 0.0000
O5A O 0.1378(3) 0.0226(3) 0.0000
O5C O -0.1378(3) -0.0226(3) 0.0000
N1G N 0.0607(2) -0.5897(2) -0.41469(15)
N1J N 0.0897(2) -0.5607(2) 0.08531(15)
N1N N 0.0607(2) -0.5897(2) 0.41469(15)
N1B N -0.0897(2) 0.5607(2) -0.08531(15)
N1F N -0.0607(2) 0.5897(2) -0.41469(15)
N1H N -0.0897(2) 0.5607(2) 0.08531(15)
N1O N -0.0607(2) 0.5897(2) 0.41469(15)
N1A N 0.5607(2) 0.0897(2) -0.08531(15)
N1K N 0.5607(2) 0.0897(2) 0.08531(15)
N1I N -0.5607(2) -0.0897(2) 0.08531(15)
N1C N -0.5607(2) -0.0897(2) -0.08531(15)
N2G N 0.0556(4) -0.5972(4) -0.2576(3)
N2J N 0.0972(4) -0.5556(4) 0.2424(3)
N2N N 0.0556(4) -0.5972(4) 0.2576(3)
N2B N -0.0972(4) 0.5556(4) -0.2424(3)
N2F N -0.0556(4) 0.5972(4) -0.2576(3)
N2H N -0.0972(4) 0.5556(4) 0.2424(3)
N2O N -0.0556(4) 0.5972(4) 0.2576(3)
loop_
_geom_bond_atom_site_label_1
_geom_bond_atom_site_label_2
_geom_bond_site_symmetry_1
_geom_bond_site_symmetry_2
Cd1 O1 1_555 1_555
C1 C2 1_555 1_555
C2 C3 1_555 1_555
C3 H1 1_555 1_555
C4 C3 1_555 1_555
C5 C4 1_555 1_555
H2 C5 1_555 1_555
C6 C5 1_555 1_555
C7 C2 1_555 1_555
H3 C7 1_555 1_555
C8 C6 1_555 1_555
C9 H4 1_555 1_555
H4 H5C 1_555 1_555
H5 C9 1_555 1_555
C10 C9 1_555 1_555
C11 H6 1_555 1_555
C12 C11 1_555 1_555
H7 C12 1_555 1_555
C13 C12 1_555 1_555
C14 C13 1_555 1_555
H8 C14 1_555 1_555
C15 C14 1_555 1_555
H9 C15 1_555 1_555
O1 C1 1_555 1_555
O2 Cd1 1_555 1_555
O3 C8 1_555 1_555
O4 C8 1_555 1_555
O5 C4 1_555 1_555
N1 Cd1 1_555 1_555
N2 C13 1_555 1_555
Cd1B O1B 1_555 1_555
Cd1A O1A 1_555 1_555
Cd1C O1C 1_555 1_555
Cd1B_2 O1 1_555 1_555
Cd1C_2 O3 1_555 1_555
Cd1_2 O1B 1_555 1_555
Cd1A_2 O1C 1_555 1_555
Cd1G N1G 1_555 1_555
Cd1G_2 N1N 1_555 1_555
Cd1F N1F 1_555 1_555
Cd1F_2 N1O 1_555 1_555
C1B C2B 1_555 1_555
C1A C2A 1_555 1_555
C1C C2C 1_555 1_555
C2B C3B 1_555 1_555
C2A C3A 1_555 1_555
C2C C3C 1_555 1_555
C3B H1B 1_555 1_555
C3A H1A 1_555 1_555
C3C H1C 1_555 1_555
C4B C3B 1_555 1_555
C4A C3A 1_555 1_555
C4C C3C 1_555 1_555
C5B C4B 1_555 1_555
C5A C4A 1_555 1_555
C5C C4C 1_555 1_555
H2B C5B 1_555 1_555
H2A C5A 1_555 1_555
H2C C5C 1_555 1_555
C6B C5B 1_555 1_555
C6A C5A 1_555 1_555
C6C C5C 1_555 1_555
C7B C2B 1_555 1_555
C7A C2A 1_555 1_555
C7C C2C 1_555 1_555
H3B C7B 1_555 1_555
H3A C7A 1_555 1_555
H3C C7C 1_555 1_555
C8B C6B 1_555 1_555
C8A C6A 1_555 1_555
C8C C6C 1_555 1_555
C9C C9 1_555 1_555
C9B C10 1_555 1_555
C9A C9 1_555 1_555
C9J C9 1_555 1_555
C9I C10 1_555 1_555
C9K C10 1_555 1_555
C9H C10 1_555 1_555
H4J C9J 1_555 1_555
H4C C9C 1_555 1_555
H4B C9B 1_555 1_555
H4A H5 1_555 1_555
H4H C9H 1_555 1_555
H4K C9K 1_555 1_555
H4I C9I 1_555 1_555
H5I C9I 1_555 1_555
H5B C9B 1_555 1_555
H5A C9A 1_555 1_555
H5C C9C 1_555 1_555
H5K C9K 1_555 1_555
H5J C9J 1_555 1_555
H5H C9H 1_555 1_555
C11G H6G 1_555 1_555
C11J H6J 1_555 1_555
C11N H6N 1_555 1_555
C11B H6B 1_555 1_555
C11F H6F 1_555 1_555
C11H H6H 1_555 1_555
C11O H6O 1_555 1_555
C12G C11G 1_555 1_555
C12J C11J 1_555 1_555
C12N C11N 1_555 1_555
C12B C11B 1_555 1_555
C12F C11F 1_555 1_555
C12H C11H 1_555 1_555
C12O C11O 1_555 1_555
H7G C12G 1_555 1_555
H7J C12J 1_555 1_555
H7N C12N 1_555 1_555
H7B C12B 1_555 1_555
H7F C12F 1_555 1_555
H7H C12H 1_555 1_555
H7O C12O 1_555 1_555
C13G C12G 1_555 1_555
C13J C12J 1_555 1_555
C13N C12N 1_555 1_555
C13B C12B 1_555 1_555
C13F C12F 1_555 1_555
C13H C12H 1_555 1_555
C13O C12O 1_555 1_555
C14G C13G 1_555 1_555
C14J C13J 1_555 1_555
C14N C13N 1_555 1_555
C14B C13B 1_555 1_555
C14F C13F 1_555 1_555
C14H C13H 1_555 1_555
C14O C13O 1_555 1_555
H8G C14G 1_555 1_555
H8J C14J 1_555 1_555
H8N C14N 1_555 1_555
H8B C14B 1_555 1_555
H8F C14F 1_555 1_555
H8H C14H 1_555 1_555
H8O C14O 1_555 1_555
C15G C14G 1_555 1_555
C15J C14J 1_555 1_555
C15N C14N 1_555 1_555
C15B C14B 1_555 1_555
C15F C14F 1_555 1_555
C15H C14H 1_555 1_555
C15O C14O 1_555 1_555
H9G C15G 1_555 1_555
H9J C15J 1_555 1_555
H9N C15N 1_555 1_555
H9B C15B 1_555 1_555
H9F C15F 1_555 1_555
H9H C15H 1_555 1_555
H9O C15O 1_555 1_555
O1B C1B 1_555 1_555
O1A Cd1C_2 1_555 1_555
O1C C1C 1_555 1_555
O1B_2 Cd1 1_555 1_555
O1_2 Cd1B 1_555 1_555
O1C_2 Cd1A 1_555 1_555
O1A_2 Cd1C 1_555 1_555
O2B Cd1B 1_555 1_555
O2A Cd1A 1_555 1_555
O2C Cd1C 1_555 1_555
O3B Cd1A_2 1_555 1_555
O3A Cd1_2 1_555 1_555
O3C Cd1B_2 1_555 1_555
O3A_2 Cd1 1_555 1_555
O3C_2 Cd1B 1_555 1_555
O3B_2 Cd1A 1_555 1_555
O3_2 Cd1C 1_555 1_555
O4B Cd1A_2 1_555 1_555
O4A Cd1_2 1_555 1_555
O4C Cd1B_2 1_555 1_555
O4A_2 Cd1 1_555 1_555
O4C_2 Cd1B 1_555 1_555
O4B_2 Cd1A 1_555 1_555
O4_2 Cd1C 1_555 1_555
O5B C4B 1_555 1_555
O5A C4A 1_555 1_555
O5C C4C 1_555 1_555
N1G C11G 1_555 1_555
N1J Cd1 1_555 1_555
N1N C11N 1_555 1_555
N1B Cd1B 1_555 1_555
N1F C11F 1_555 1_555
N1H Cd1B 1_555 1_555
N1O C11O 1_555 1_555
N1A Cd1A 1_555 1_555
N1K Cd1A 1_555 1_555
N1I Cd1C 1_555 1_555
N1C Cd1C 1_555 1_555
N2G N2 1_555 1_555
N2J C13J 1_555 1_555
N2N C13N 1_555 1_555
N2B C13B 1_555 1_555
N2F C13F 1_555 1_555
N2H C13H 1_555 1_555
N2O C13O 1_555 1_555
C1 O2 1_555 1_555
C6 C7 1_555 1_555
C9 O5 1_555 1_555
C10 C9C 1_555 1_555
C10 C9A 1_555 1_555
C10 C9J 1_555 1_555
C11 N1 1_555 1_555
C15 N1 1_555 1_555
O4 Cd1C_2 1_555 1_555
O5 C9J 1_555 1_555
Cd1B_2 O1B_2 1_555 1_555
Cd1C_2 O1C_2 1_555 1_555
Cd1_2 O1_2 1_555 1_555
Cd1A_2 O1A_2 1_555 1_555
C1B O2B 1_555 1_555
C1A O1A 1_555 1_555
C1A O2A 1_555 1_555
C1C O2C 1_555 1_555
C6B C7B 1_555 1_555
C6A C7A 1_555 1_555
C6C C7C 1_555 1_555
C8B O3B 1_555 1_555
C8B O4B 1_555 1_555
C8A O3A 1_555 1_555
C8A O4A 1_555 1_555
C8C O3C 1_555 1_555
C8C O4C 1_555 1_555
C9C C9B 1_555 1_555
C9C C9I 1_555 1_555
C9C O5C 1_555 1_555
C9B C9A 1_555 1_555
C9B C9H 1_555 1_555
C9B O5B 1_555 1_555
C9A C9K 1_555 1_555
C9A H4A 1_555 1_555
C9A O5A 1_555 1_555
C9J C9I 1_555 1_555
C9J C9K 1_555 1_555
C9I C9H 1_555 1_555
C9I O5C 1_555 1_555
C9K C9H 1_555 1_555
C9K O5A 1_555 1_555
C9H O5B 1_555 1_555
H4J H5I 1_555 1_555
H4C H5B 1_555 1_555
H4B H5A 1_555 1_555
H4H H5K 1_555 1_555
H4K H5J 1_555 1_555
H4I H5H 1_555 1_555
C11J N1J 1_555 1_555
C11B N1B 1_555 1_555
C11H N1H 1_555 1_555
C13G N2G 1_555 1_555
C15G N1G 1_555 1_555
C15J N1J 1_555 1_555
C15N N1N 1_555 1_555
C15B N1B 1_555 1_555
C15F N1F 1_555 1_555
C15H N1H 1_555 1_555
C15O N1O 1_555 1_555
N2J N2N 1_555 1_555
N2B N2F 1_555 1_555
N2H N2O 1_555 1_555

#END
