
#######################################################################
#
#                 Cambridge Crystallographic Data Centre
#                                CCDC 
#
#######################################################################
#
# If this CIF has been generated from an entry in the Cambridge 
# Structural Database, then it will include bibliographic, chemical, 
# crystal, experimental, refinement or atomic coordinate data resulting 
# from the CCDC's data processing and validation procedures.
#
#######################################################################

data_EYULIU
_chemical_formula_moiety         'C89 H76 Cd12 N12 O28'
_symmetry_cell_setting           tetragonal
_symmetry_space_group_name_H-M   'P 4/m n c'
_symmetry_Int_Tables_number      128
_space_group_name_Hall           '-P 4 2n'
loop_
_symmetry_equiv_pos_site_id
_symmetry_equiv_pos_as_xyz
1 x,y,z
2 -y,x,z
3 -x,-y,z
4 y,-x,z
5 1/2+x,1/2-y,1/2-z
6 1/2-x,1/2+y,1/2-z
7 1/2+y,1/2+x,1/2-z
8 1/2-y,1/2-x,1/2-z
9 -x,-y,-z
10 y,-x,-z
11 x,y,-z
12 -y,x,-z
13 1/2-x,1/2+y,1/2+z
14 1/2+x,1/2-y,1/2+z
15 1/2-y,1/2-x,1/2+z
16 1/2+y,1/2+x,1/2+z
_cell_length_a                   17.3376(8)
_cell_length_b                   17.3376(8)
_cell_length_c                   27.957(2)
_cell_angle_alpha                90
_cell_angle_beta                 90
_cell_angle_gamma                90
_cell_volume                     8403.66
loop_
_atom_site_label
_atom_site_type_symbol
_atom_site_fract_x
_atom_site_fract_y
_atom_site_fract_z
Cd1 Cd 0.43929(3) -0.09538(3) 0.5000
C1 C 0.3039(4) -0.1815(4) 0.5000
C2 C 0.2229(4) -0.2118(4) 0.5000
C3 C 0.1602(4) -0.1588(4) 0.5000
H1 H 0.1696 -0.1060 0.5000
C4 C 0.0871(5) -0.1853(4) 0.5000
C5 C 0.0704(6) -0.2649(4) 0.5000
H2 H 0.0197 -0.2826 0.5000
C6 C 0.1311(4) -0.3153(4) 0.5000
C7 C 0.2081(5) -0.2906(5) 0.5000
H3 H 0.2483 -0.3261 0.5000
C8 C 0.1149(5) -0.4028(4) 0.5000
C9 C 0.0181(8) -0.0677(7) 0.5345(8)
H4 H -0.0227 -0.0744 0.5579
H5 H 0.0666 -0.0597 0.5510
C10 C 0.0000 0.0000 0.5000
C11 C 0.4816(9) -0.1364(9) 0.6074(4)
H6 H 0.5161 -0.1680 0.5912
C12 C 0.4799(9) -0.1407(9) 0.6587(4)
H7 H 0.5113 -0.1757 0.6747
C13 C 0.4332(9) -0.0944(9) 0.6832(5)
C14 C 0.3880(10) -0.0466(9) 0.6564(4)
H8 H 0.3529 -0.0141 0.6715
C15 C 0.3941(10) -0.0460(10) 0.6056(4)
H9 H 0.3644 -0.0108 0.5886
C16 C 0.4399(8) -0.1051(8) 0.7349(4)
H10 H 0.4934 -0.0967 0.7435
H11 H 0.4284 -0.1587 0.7418
O1 O 0.3589(4) -0.2252(3) 0.5000
O2 O 0.0226(4) -0.1373(4) 0.5000
O3 O 0.0449(3) -0.4245(3) 0.5000
O4 O 0.3101(4) -0.1083(4) 0.5000
O5 O 0.1700(3) -0.4483(3) 0.5000
N1 N 0.4379(8) -0.0910(7) 0.5823(4)
Cd1A Cd 0.09538(3) 0.43929(3) 0.5000
Cd1B Cd -0.43929(3) 0.09538(3) 0.5000
Cd1C Cd -0.09538(3) -0.43929(3) 0.5000
Cd1A_2 Cd 0.09538(3) -0.56071(3) 0.5000
Cd1B_2 Cd 0.56071(3) 0.09538(3) 0.5000
Cd1C_2 Cd -0.09538(3) 0.56071(3) 0.5000
Cd1_2 Cd -0.56071(3) -0.09538(3) 0.5000
Cd1F Cd 0.40462(3) -0.06071(3) 1.0000
Cd1F_2 Cd 0.40462(3) -0.06071(3) 0.0000
Cd1E Cd 0.06071(3) 0.40462(3) 1.0000
Cd1E_2 Cd 0.06071(3) 0.40462(3) 0.0000
C1A C 0.1815(4) 0.3039(4) 0.5000
C1B C -0.3039(4) 0.1815(4) 0.5000
C1C C -0.1815(4) -0.3039(4) 0.5000
C2A C 0.2118(4) 0.2229(4) 0.5000
C2B C -0.2229(4) 0.2118(4) 0.5000
C2C C -0.2118(4) -0.2229(4) 0.5000
C3A C 0.1588(4) 0.1602(4) 0.5000
C3B C -0.1602(4) 0.1588(4) 0.5000
C3C C -0.1588(4) -0.1602(4) 0.5000
H1A H 0.1060 0.1696 0.5000
H1B H -0.1696 0.1060 0.5000
H1C H -0.1060 -0.1696 0.5000
C4A C 0.1853(4) 0.0871(5) 0.5000
C4B C -0.0871(5) 0.1853(4) 0.5000
C4C C -0.1853(4) -0.0871(5) 0.5000
C5A C 0.2649(4) 0.0704(6) 0.5000
C5B C -0.0704(6) 0.2649(4) 0.5000
C5C C -0.2649(4) -0.0704(6) 0.5000
H2A H 0.2826 0.0197 0.5000
H2B H -0.0197 0.2826 0.5000
H2C H -0.2826 -0.0197 0.5000
C6A C 0.3153(4) 0.1311(4) 0.5000
C6B C -0.1311(4) 0.3153(4) 0.5000
C6C C -0.3153(4) -0.1311(4) 0.5000
C7A C 0.2906(5) 0.2081(5) 0.5000
C7B C -0.2081(5) 0.2906(5) 0.5000
C7C C -0.2906(5) -0.2081(5) 0.5000
H3A H 0.3261 0.2483 0.5000
H3B H -0.2483 0.3261 0.5000
H3C H -0.3261 -0.2483 0.5000
C8A C 0.4028(4) 0.1149(5) 0.5000
C8B C -0.1149(5) 0.4028(4) 0.5000
C8C C -0.4028(4) -0.1149(5) 0.5000
C9A C 0.0677(7) 0.0181(8) 0.5345(8)
C9K C 0.0677(7) 0.0181(8) 0.4655(8)
C9H C -0.0181(8) 0.0677(7) 0.4655(8)
C9B C -0.0181(8) 0.0677(7) 0.5345(8)
C9C C -0.0677(7) -0.0181(8) 0.5345(8)
C9I C -0.0677(7) -0.0181(8) 0.4655(8)
C9J C 0.0181(8) -0.0677(7) 0.4655(8)
H4J H -0.0227 -0.0744 0.4421
H4I H -0.0744 0.0227 0.4421
H4H H 0.0227 0.0744 0.4421
H4K H 0.0744 -0.0227 0.4421
H4C H -0.0744 0.0227 0.5579
H4B H 0.0227 0.0744 0.5579
H4A H 0.0744 -0.0227 0.5579
H5I H -0.0597 -0.0666 0.4490
H5H H -0.0666 0.0597 0.4490
H5K H 0.0597 0.0666 0.4490
H5J H 0.0666 -0.0597 0.4490
H5C H -0.0597 -0.0666 0.5510
H5B H -0.0666 0.0597 0.5510
H5A H 0.0597 0.0666 0.5510
C11F C 0.3636(9) -0.0184(9) 0.8926(4)
C11J C 0.4816(9) -0.1364(9) 0.3926(4)
C11O C 0.3636(9) -0.0184(9) 0.1074(4)
C11A C 0.1364(9) 0.4816(9) 0.6074(4)
C11E C 0.0184(9) 0.3636(9) 0.8926(4)
C11K C 0.1364(9) 0.4816(9) 0.3926(4)
C11L C 0.0184(9) 0.3636(9) 0.1074(4)
H6F H 0.3320 0.0161 0.9088
H6J H 0.5161 -0.1680 0.4088
H6O H 0.3320 0.0161 0.0912
H6A H 0.1680 0.5161 0.5912
H6E H -0.0161 0.3320 0.9088
H6K H 0.1680 0.5161 0.4088
H6L H -0.0161 0.3320 0.0912
C12F C 0.3593(9) -0.0201(9) 0.8413(4)
C12J C 0.4799(9) -0.1407(9) 0.3413(4)
C12O C 0.3593(9) -0.0201(9) 0.1587(4)
C12A C 0.1407(9) 0.4799(9) 0.6587(4)
C12E C 0.0201(9) 0.3593(9) 0.8413(4)
C12K C 0.1407(9) 0.4799(9) 0.3413(4)
C12L C 0.0201(9) 0.3593(9) 0.1587(4)
H7F H 0.3243 0.0113 0.8253
H7J H 0.5113 -0.1757 0.3253
H7O H 0.3243 0.0113 0.1747
H7A H 0.1757 0.5113 0.6747
H7E H -0.0113 0.3243 0.8253
H7K H 0.1757 0.5113 0.3253
H7L H -0.0113 0.3243 0.1747
C13F C 0.4056(9) -0.0668(9) 0.8168(5)
C13J C 0.4332(9) -0.0944(9) 0.3168(5)
C13O C 0.4056(9) -0.0668(9) 0.1832(5)
C13A C 0.0944(9) 0.4332(9) 0.6832(5)
C13E C 0.0668(9) 0.4056(9) 0.8168(5)
C13K C 0.0944(9) 0.4332(9) 0.3168(5)
C13L C 0.0668(9) 0.4056(9) 0.1832(5)
C14F C 0.4534(9) -0.1120(10) 0.8436(4)
C14J C 0.3880(10) -0.0466(9) 0.3436(4)
C14O C 0.4534(9) -0.1120(10) 0.1564(4)
C14A C 0.0466(9) 0.3880(10) 0.6564(4)
C14E C 0.1120(10) 0.4534(9) 0.8436(4)
C14K C 0.0466(9) 0.3880(10) 0.3436(4)
C14L C 0.1120(10) 0.4534(9) 0.1564(4)
H8F H 0.4859 -0.1471 0.8285
H8J H 0.3529 -0.0141 0.3285
H8O H 0.4859 -0.1471 0.1715
H8A H 0.0141 0.3529 0.6715
H8E H 0.1471 0.4859 0.8285
H8K H 0.0141 0.3529 0.3285
H8L H 0.1471 0.4859 0.1715
C15F C 0.4540(10) -0.1059(10) 0.8944(4)
C15J C 0.3941(10) -0.0460(10) 0.3944(4)
C15O C 0.4540(10) -0.1059(10) 0.1056(4)
C15A C 0.0460(10) 0.3941(10) 0.6056(4)
C15E C 0.1059(10) 0.4540(10) 0.8944(4)
C15K C 0.0460(10) 0.3941(10) 0.3944(4)
C15L C 0.1059(10) 0.4540(10) 0.1056(4)
H9F H 0.4892 -0.1356 0.9114
H9J H 0.3644 -0.0108 0.4114
H9O H 0.4892 -0.1356 0.0886
H9A H 0.0108 0.3644 0.5886
H9E H 0.1356 0.4892 0.9114
H9K H 0.0108 0.3644 0.4114
H9L H 0.1356 0.4892 0.0886
C16F C 0.3949(8) -0.0601(8) 0.7651(4)
C16J C 0.4399(8) -0.1051(8) 0.2651(4)
C16O C 0.3949(8) -0.0601(8) 0.2349(4)
C16A C 0.1051(8) 0.4399(8) 0.7349(4)
C16E C 0.0601(8) 0.3949(8) 0.7651(4)
C16K C 0.1051(8) 0.4399(8) 0.2651(4)
C16L C 0.0601(8) 0.3949(8) 0.2349(4)
H10F H 0.4033 -0.0066 0.7565
H10J H 0.4934 -0.0967 0.2565
H10O H 0.4033 -0.0066 0.2435
H10A H 0.0967 0.4934 0.7435
H10E H 0.0066 0.4033 0.7565
H10K H 0.0967 0.4934 0.2565
H10L H 0.0066 0.4033 0.2435
H11F H 0.3413 -0.0716 0.7582
H11J H 0.4284 -0.1587 0.2582
H11O H 0.3413 -0.0716 0.2418
H11A H 0.1587 0.4284 0.7418
H11E H 0.0716 0.3413 0.7582
H11K H 0.1587 0.4284 0.2582
H11L H 0.0716 0.3413 0.2418
O1A O 0.2252(3) 0.3589(4) 0.5000
O1B O -0.3589(4) 0.2252(3) 0.5000
O1C O -0.2252(3) -0.3589(4) 0.5000
O2A O 0.1373(4) 0.0226(4) 0.5000
O2B O -0.0226(4) 0.1373(4) 0.5000
O2C O -0.1373(4) -0.0226(4) 0.5000
O3A O 0.4245(3) 0.0449(3) 0.5000
O3B O -0.0449(3) 0.4245(3) 0.5000
O3C O -0.4245(3) -0.0449(3) 0.5000
O3C_2 O 0.5755(3) -0.0449(3) 0.5000
O3_2 O 0.0449(3) 0.5755(3) 0.5000
O3A_2 O -0.5755(3) 0.0449(3) 0.5000
O3B_2 O -0.0449(3) -0.5755(3) 0.5000
O4A O 0.1083(4) 0.3101(4) 0.5000
O4B O -0.3101(4) 0.1083(4) 0.5000
O4C O -0.1083(4) -0.3101(4) 0.5000
O5A O 0.4483(3) 0.1700(3) 0.5000
O5B O -0.1700(3) 0.4483(3) 0.5000
O5C O -0.4483(3) -0.1700(3) 0.5000
O5C_2 O 0.5517(3) -0.1700(3) 0.5000
O5_2 O 0.1700(3) 0.5517(3) 0.5000
O5A_2 O -0.5517(3) 0.1700(3) 0.5000
O5B_2 O -0.1700(3) -0.5517(3) 0.5000
N1F N 0.4090(7) -0.0621(8) 0.9177(4)
N1J N 0.4379(8) -0.0910(7) 0.4177(4)
N1O N 0.4090(7) -0.0621(8) 0.0823(4)
N1A N 0.0910(7) 0.4379(8) 0.5823(4)
N1E N 0.0621(8) 0.4090(7) 0.9177(4)
N1K N 0.0910(7) 0.4379(8) 0.4177(4)
N1L N 0.0621(8) 0.4090(7) 0.0823(4)
N1H N -0.4379(8) 0.0910(7) 0.4177(4)
N1B N -0.4379(8) 0.0910(7) 0.5823(4)
N1C N -0.0910(7) -0.4379(8) 0.5823(4)
N1I N -0.0910(7) -0.4379(8) 0.4177(4)
loop_
_geom_bond_atom_site_label_1
_geom_bond_atom_site_label_2
_geom_bond_site_symmetry_1
_geom_bond_site_symmetry_2
Cd1 O1 1_555 1_555
C1 C2 1_555 1_555
C2 C3 1_555 1_555
C3 H1 1_555 1_555
C4 C3 1_555 1_555
C5 C4 1_555 1_555
H2 C5 1_555 1_555
C6 C5 1_555 1_555
C7 C2 1_555 1_555
H3 C7 1_555 1_555
C8 C6 1_555 1_555
C9 H4 1_555 1_555
H4 H5C 1_555 1_555
H5 C9 1_555 1_555
C10 C9 1_555 1_555
C11 H6 1_555 1_555
C12 C11 1_555 1_555
H7 C12 1_555 1_555
C13 C12 1_555 1_555
C14 C13 1_555 1_555
H8 C14 1_555 1_555
C15 C14 1_555 1_555
H9 C15 1_555 1_555
C16 C13 1_555 1_555
H10 C16 1_555 1_555
H11 C16 1_555 1_555
O1 C1 1_555 1_555
O2 C4 1_555 1_555
O3 C8 1_555 1_555
O4 Cd1 1_555 1_555
O5 C8 1_555 1_555
N1 Cd1 1_555 1_555
Cd1A O1A 1_555 1_555
Cd1B O1B 1_555 1_555
Cd1C O3 1_555 1_555
Cd1A_2 O3 1_555 1_555
Cd1B_2 O3A 1_555 1_555
Cd1C_2 O3B 1_555 1_555
Cd1_2 O3C 1_555 1_555
Cd1F N1F 1_555 1_555
Cd1F_2 N1O 1_555 1_555
Cd1E N1E 1_555 1_555
Cd1E_2 N1L 1_555 1_555
C1A C2A 1_555 1_555
C1B C2B 1_555 1_555
C1C C2C 1_555 1_555
C2A C3A 1_555 1_555
C2B C3B 1_555 1_555
C2C C3C 1_555 1_555
C3A H1A 1_555 1_555
C3B H1B 1_555 1_555
C3C H1C 1_555 1_555
C4A C3A 1_555 1_555
C4B C3B 1_555 1_555
C4C C3C 1_555 1_555
C5A C4A 1_555 1_555
C5B C4B 1_555 1_555
C5C C4C 1_555 1_555
H2A C5A 1_555 1_555
H2B C5B 1_555 1_555
H2C C5C 1_555 1_555
C6A C5A 1_555 1_555
C6B C5B 1_555 1_555
C6C C5C 1_555 1_555
C7A C2A 1_555 1_555
C7B C2B 1_555 1_555
C7C C2C 1_555 1_555
H3A C7A 1_555 1_555
H3B C7B 1_555 1_555
H3C C7C 1_555 1_555
C8A C6A 1_555 1_555
C8B C6B 1_555 1_555
C8C C6C 1_555 1_555
C9A C9 1_555 1_555
C9K C10 1_555 1_555
C9H C10 1_555 1_555
C9B C10 1_555 1_555
C9C C9 1_555 1_555
C9I C10 1_555 1_555
C9J C10 1_555 1_555
H4J C9J 1_555 1_555
H4I C9I 1_555 1_555
H4H C9H 1_555 1_555
H4K C9K 1_555 1_555
H4C C9C 1_555 1_555
H4B C9B 1_555 1_555
H4A H5 1_555 1_555
H5I C9I 1_555 1_555
H5H C9H 1_555 1_555
H5K C9K 1_555 1_555
H5J C9J 1_555 1_555
H5C C9C 1_555 1_555
H5B C9B 1_555 1_555
H5A C9A 1_555 1_555
C11F H6F 1_555 1_555
C11J H6J 1_555 1_555
C11O H6O 1_555 1_555
C11A H6A 1_555 1_555
C11E H6E 1_555 1_555
C11K H6K 1_555 1_555
C11L H6L 1_555 1_555
C12F C11F 1_555 1_555
C12J C11J 1_555 1_555
C12O C11O 1_555 1_555
C12A C11A 1_555 1_555
C12E C11E 1_555 1_555
C12K C11K 1_555 1_555
C12L C11L 1_555 1_555
H7F C12F 1_555 1_555
H7J C12J 1_555 1_555
H7O C12O 1_555 1_555
H7A C12A 1_555 1_555
H7E C12E 1_555 1_555
H7K C12K 1_555 1_555
H7L C12L 1_555 1_555
C13F C12F 1_555 1_555
C13J C12J 1_555 1_555
C13O C12O 1_555 1_555
C13A C12A 1_555 1_555
C13E C12E 1_555 1_555
C13K C12K 1_555 1_555
C13L C12L 1_555 1_555
C14F C13F 1_555 1_555
C14J C13J 1_555 1_555
C14O C13O 1_555 1_555
C14A C13A 1_555 1_555
C14E C13E 1_555 1_555
C14K C13K 1_555 1_555
C14L C13L 1_555 1_555
H8F C14F 1_555 1_555
H8J C14J 1_555 1_555
H8O C14O 1_555 1_555
H8A C14A 1_555 1_555
H8E C14E 1_555 1_555
H8K C14K 1_555 1_555
H8L C14L 1_555 1_555
C15F C14F 1_555 1_555
C15J C14J 1_555 1_555
C15O C14O 1_555 1_555
C15A C14A 1_555 1_555
C15E C14E 1_555 1_555
C15K C14K 1_555 1_555
C15L C14L 1_555 1_555
H9F C15F 1_555 1_555
H9J C15J 1_555 1_555
H9O C15O 1_555 1_555
H9A C15A 1_555 1_555
H9E C15E 1_555 1_555
H9K C15K 1_555 1_555
H9L C15L 1_555 1_555
C16F C16 1_555 1_555
C16J C13J 1_555 1_555
C16O C13O 1_555 1_555
C16A C13A 1_555 1_555
C16E C13E 1_555 1_555
C16K C13K 1_555 1_555
C16L C13L 1_555 1_555
H10F C16F 1_555 1_555
H10J C16J 1_555 1_555
H10O C16O 1_555 1_555
H10A C16A 1_555 1_555
H10E C16E 1_555 1_555
H10K C16K 1_555 1_555
H10L C16L 1_555 1_555
H11F C16F 1_555 1_555
H11J C16J 1_555 1_555
H11O C16O 1_555 1_555
H11A C16A 1_555 1_555
H11E C16E 1_555 1_555
H11K C16K 1_555 1_555
H11L C16L 1_555 1_555
O1A C1A 1_555 1_555
O1B C1B 1_555 1_555
O1C Cd1C 1_555 1_555
O2A C4A 1_555 1_555
O2B C4B 1_555 1_555
O2C C4C 1_555 1_555
O3A Cd1 1_555 1_555
O3B Cd1A 1_555 1_555
O3C Cd1B 1_555 1_555
O3C_2 Cd1 1_555 1_555
O3_2 Cd1A 1_555 1_555
O3A_2 Cd1B 1_555 1_555
O3B_2 Cd1C 1_555 1_555
O4A Cd1A 1_555 1_555
O4B Cd1B 1_555 1_555
O4C Cd1C 1_555 1_555
O5A Cd1B_2 1_555 1_555
O5B Cd1C_2 1_555 1_555
O5C Cd1_2 1_555 1_555
O5C_2 Cd1 1_555 1_555
O5_2 Cd1A 1_555 1_555
O5A_2 Cd1B 1_555 1_555
O5B_2 Cd1C 1_555 1_555
N1F C11F 1_555 1_555
N1J Cd1 1_555 1_555
N1O C11O 1_555 1_555
N1A Cd1A 1_555 1_555
N1E C11E 1_555 1_555
N1K Cd1A 1_555 1_555
N1L C11L 1_555 1_555
N1H Cd1B 1_555 1_555
N1B Cd1B 1_555 1_555
N1C Cd1C 1_555 1_555
N1I Cd1C 1_555 1_555
C1 O4 1_555 1_555
C6 C7 1_555 1_555
C9 O2 1_555 1_555
C10 C9A 1_555 1_555
C10 C9C 1_555 1_555
C11 N1 1_555 1_555
C15 N1 1_555 1_555
O2 C9J 1_555 1_555
O5 Cd1A_2 1_555 1_555
Cd1A_2 O3B_2 1_555 1_555
Cd1B_2 O3C_2 1_555 1_555
Cd1C_2 O3_2 1_555 1_555
Cd1_2 O3A_2 1_555 1_555
C1A O4A 1_555 1_555
C1B O4B 1_555 1_555
C1C O1C 1_555 1_555
C1C O4C 1_555 1_555
C6A C7A 1_555 1_555
C6B C7B 1_555 1_555
C6C C7C 1_555 1_555
C8A O3A 1_555 1_555
C8A O5A 1_555 1_555
C8B O3B 1_555 1_555
C8B O5B 1_555 1_555
C8C O3C 1_555 1_555
C8C O5C 1_555 1_555
C9A C9B 1_555 1_555
C9A H4A 1_555 1_555
C9A O2A 1_555 1_555
C9K C9H 1_555 1_555
C9K C9J 1_555 1_555
C9K O2A 1_555 1_555
C9H C9I 1_555 1_555
C9H O2B 1_555 1_555
C9B C9C 1_555 1_555
C9B O2B 1_555 1_555
C9C O2C 1_555 1_555
C9I C9J 1_555 1_555
C9I O2C 1_555 1_555
H4J H5I 1_555 1_555
H4I H5H 1_555 1_555
H4H H5K 1_555 1_555
H4K H5J 1_555 1_555
H4C H5B 1_555 1_555
H4B H5A 1_555 1_555
C11J N1J 1_555 1_555
C11A N1A 1_555 1_555
C11K N1K 1_555 1_555
C13F C16F 1_555 1_555
C15F N1F 1_555 1_555
C15J N1J 1_555 1_555
C15O N1O 1_555 1_555
C15A N1A 1_555 1_555
C15E N1E 1_555 1_555
C15K N1K 1_555 1_555
C15L N1L 1_555 1_555
C16J C16O 1_555 1_555
C16A C16E 1_555 1_555
C16K C16L 1_555 1_555

#END
