
#######################################################################
#
#                 Cambridge Crystallographic Data Centre
#                                CCDC 
#
#######################################################################
#
# If this CIF has been generated from an entry in the Cambridge 
# Structural Database, then it will include bibliographic, chemical, 
# crystal, experimental, refinement or atomic coordinate data resulting 
# from the CCDC's data processing and validation procedures.
#
#######################################################################

data_EYULAM
_chemical_formula_moiety         'C81 H60 Cd12 N12 O32'
_symmetry_cell_setting           tetragonal
_symmetry_space_group_name_H-M   'P 4/m n c'
_symmetry_Int_Tables_number      128
_space_group_name_Hall           '-P 4 2n'
loop_
_symmetry_equiv_pos_site_id
_symmetry_equiv_pos_as_xyz
1 x,y,z
2 -y,x,z
3 -x,-y,z
4 y,-x,z
5 1/2+x,1/2-y,1/2-z
6 1/2-x,1/2+y,1/2-z
7 1/2+y,1/2+x,1/2-z
8 1/2-y,1/2-x,1/2-z
9 -x,-y,-z
10 y,-x,-z
11 x,y,-z
12 -y,x,-z
13 1/2-x,1/2+y,1/2+z
14 1/2+x,1/2-y,1/2+z
15 1/2-y,1/2-x,1/2+z
16 1/2+y,1/2+x,1/2+z
_cell_length_a                   17.322(2)
_cell_length_b                   17.322(2)
_cell_length_c                   23.419(5)
_cell_angle_alpha                90
_cell_angle_beta                 90
_cell_angle_gamma                90
_cell_volume                     7026.91
loop_
_atom_site_label
_atom_site_type_symbol
_atom_site_fract_x
_atom_site_fract_y
_atom_site_fract_z
Cd1 Cd -0.560143(18) 0.90437(2) 0.5000
C1 C -0.4017(3) 0.8849(3) 0.5000
C2 C -0.3168(3) 0.8687(3) 0.5000
C3 C -0.2646(3) 0.9286(3) 0.5000
H1 H -0.2822 0.9793 0.5000
C4 C -0.1859(3) 0.9134(3) 0.5000
C5 C -0.1590(3) 0.8387(3) 0.5000
H2 H -0.1062 0.8290 0.5000
C6 C -0.2119(3) 0.7771(3) 0.5000
C7 C -0.2905(3) 0.7919(3) 0.5000
H3 H -0.3257 0.7514 0.5000
C8 C -0.1796(3) 0.6962(3) 0.5000
C9 C -0.0690(5) 0.9819(5) 0.4607(7)
H4 H -0.0611 0.9334 0.4409
H5 H -0.0761 1.0225 0.4327
C10 C 0.0000 1.0000 0.5000
C11 C -0.5204(3) 0.8709(3) 0.3681(2)
H6 H -0.4852 0.8377 0.3852
C12 C -0.5243(3) 0.8722(3) 0.3088(2)
H7 H -0.4932 0.8392 0.2875
C13 C -0.5737(3) 0.9217(3) 0.2814(2)
C14 C -0.6172(5) 0.9673(4) 0.3165(2)
H8 H -0.6518 1.0026 0.3009
C15 C -0.6098(5) 0.9612(4) 0.3748(3)
H9 H -0.6404 0.9932 0.3972
O1 O -0.4248(2) 0.9548(2) 0.5000
O2 O -0.4482(2) 0.8299(2) 0.5000
O3 O -0.1379(3) 0.9769(2) 0.5000
O4 O -0.1077(2) 0.6895(2) 0.5000
O5 O -0.2227(2) 0.6403(3) 0.5000
N1 N -0.5634(3) 0.9139(3) 0.4010(2)
Cd1A Cd 0.09563(2) 0.439857(18) 0.5000
Cd1B Cd 0.560143(18) 1.09563(2) 0.5000
Cd1C Cd -0.09563(2) 1.560143(18) 0.5000
Cd1B_2 Cd -0.439857(18) 1.09563(2) 0.5000
Cd1C_2 Cd -0.09563(2) 0.560143(18) 0.5000
Cd1_2 Cd 0.439857(18) 0.90437(2) 0.5000
Cd1A_2 Cd 0.09563(2) 1.439857(18) 0.5000
Cd1F Cd -0.59563(2) 0.939857(18) 0.0000
Cd1F_2 Cd -0.59563(2) 0.939857(18) 1.0000
Cd1E Cd 0.060143(18) 0.40437(2) 0.0000
Cd1E_2 Cd 0.060143(18) 0.40437(2) 1.0000
C1A C 0.1151(3) 0.5983(3) 0.5000
C1B C 0.4017(3) 1.1151(3) 0.5000
C1C C -0.1151(3) 1.4017(3) 0.5000
C2A C 0.1313(3) 0.6832(3) 0.5000
C2B C 0.3168(3) 1.1313(3) 0.5000
C2C C -0.1313(3) 1.3168(3) 0.5000
C3A C 0.0714(3) 0.7354(3) 0.5000
C3B C 0.2646(3) 1.0714(3) 0.5000
C3C C -0.0714(3) 1.2646(3) 0.5000
H1A H 0.0207 0.7178 0.5000
H1B H 0.2822 1.0207 0.5000
H1C H -0.0207 1.2822 0.5000
C4A C 0.0866(3) 0.8141(3) 0.5000
C4B C 0.1859(3) 1.0866(3) 0.5000
C4C C -0.0866(3) 1.1859(3) 0.5000
C5A C 0.1613(3) 0.8410(3) 0.5000
C5B C 0.1590(3) 1.1613(3) 0.5000
C5C C -0.1613(3) 1.1590(3) 0.5000
H2A H 0.1710 0.8938 0.5000
H2B H 0.1062 1.1710 0.5000
H2C H -0.1710 1.1062 0.5000
C6A C 0.2229(3) 0.7881(3) 0.5000
C6B C 0.2119(3) 1.2229(3) 0.5000
C6C C -0.2229(3) 1.2119(3) 0.5000
C7A C 0.2081(3) 0.7095(3) 0.5000
C7B C 0.2905(3) 1.2081(3) 0.5000
C7C C -0.2081(3) 1.2905(3) 0.5000
H3A H 0.2486 0.6743 0.5000
H3B H 0.3257 1.2486 0.5000
H3C H -0.2486 1.3257 0.5000
C8A C 0.3038(3) 0.8204(3) 0.5000
C8B C 0.1796(3) 1.3038(3) 0.5000
C8C C -0.3038(3) 1.1796(3) 0.5000
C9A C 0.0181(5) 0.9310(5) 0.4607(7)
C9K C 0.0181(5) 0.9310(5) 0.5393(7)
C9H C 0.0690(5) 1.0181(5) 0.5393(7)
C9B C 0.0690(5) 1.0181(5) 0.4607(7)
C9C C -0.0181(5) 1.0690(5) 0.4607(7)
C9I C -0.0181(5) 1.0690(5) 0.5393(7)
C9J C -0.0690(5) 0.9819(5) 0.5393(7)
H4J H -0.0611 0.9334 0.5591
H4K H 0.0666 0.9389 0.5591
H4H H 0.0611 1.0666 0.5591
H4I H -0.0666 1.0611 0.5591
H4A H 0.0666 0.9389 0.4409
H4B H 0.0611 1.0666 0.4409
H4C H -0.0666 1.0611 0.4409
H5K H -0.0225 0.9239 0.5673
H5H H 0.0761 0.9775 0.5673
H5I H 0.0225 1.0761 0.5673
H5J H -0.0761 1.0225 0.5673
H5A H -0.0225 0.9239 0.4327
H5B H 0.0761 0.9775 0.4327
H5C H 0.0225 1.0761 0.4327
C11F C -0.6291(3) 0.9796(3) 0.1319(2)
C11J C -0.5204(3) 0.8709(3) 0.6319(2)
C11O C -0.6291(3) 0.9796(3) 0.8681(2)
C11A C 0.1291(3) 0.4796(3) 0.3681(2)
C11E C 0.0204(3) 0.3709(3) 0.1319(2)
C11K C 0.1291(3) 0.4796(3) 0.6319(2)
C11L C 0.0204(3) 0.3709(3) 0.8681(2)
H6F H -0.6623 1.0148 0.1148
H6J H -0.4852 0.8377 0.6148
H6O H -0.6623 1.0148 0.8852
H6A H 0.1623 0.5148 0.3852
H6E H -0.0148 0.3377 0.1148
H6K H 0.1623 0.5148 0.6148
H6L H -0.0148 0.3377 0.8852
C12F C -0.6278(3) 0.9757(3) 0.1912(2)
C12J C -0.5243(3) 0.8722(3) 0.6912(2)
C12O C -0.6278(3) 0.9757(3) 0.8088(2)
C12A C 0.1278(3) 0.4757(3) 0.3088(2)
C12E C 0.0243(3) 0.3722(3) 0.1912(2)
C12K C 0.1278(3) 0.4757(3) 0.6912(2)
C12L C 0.0243(3) 0.3722(3) 0.8088(2)
H7F H -0.6608 1.0068 0.2125
H7J H -0.4932 0.8392 0.7125
H7O H -0.6608 1.0068 0.7875
H7A H 0.1608 0.5068 0.2875
H7E H -0.0068 0.3392 0.2125
H7K H 0.1608 0.5068 0.7125
H7L H -0.0068 0.3392 0.7875
C13F C -0.5783(3) 0.9263(3) 0.2186(2)
C13J C -0.5737(3) 0.9217(3) 0.7186(2)
C13O C -0.5783(3) 0.9263(3) 0.7814(2)
C13A C 0.0783(3) 0.4263(3) 0.2814(2)
C13E C 0.0737(3) 0.4217(3) 0.2186(2)
C13K C 0.0783(3) 0.4263(3) 0.7186(2)
C13L C 0.0737(3) 0.4217(3) 0.7814(2)
C14F C -0.5327(4) 0.8828(5) 0.1835(2)
C14J C -0.6172(5) 0.9673(4) 0.6835(2)
C14O C -0.5327(4) 0.8828(5) 0.8165(2)
C14A C 0.0327(4) 0.3828(5) 0.3165(2)
C14E C 0.1172(5) 0.4673(4) 0.1835(2)
C14K C 0.0327(4) 0.3828(5) 0.6835(2)
C14L C 0.1172(5) 0.4673(4) 0.8165(2)
H8F H -0.4974 0.8482 0.1991
H8J H -0.6518 1.0026 0.6991
H8O H -0.4974 0.8482 0.8009
H8A H -0.0026 0.3482 0.3009
H8E H 0.1518 0.5026 0.1991
H8K H -0.0026 0.3482 0.6991
H8L H 0.1518 0.5026 0.8009
C15F C -0.5388(4) 0.8902(5) 0.1252(3)
C15J C -0.6098(5) 0.9612(4) 0.6252(3)
C15O C -0.5388(4) 0.8902(5) 0.8748(3)
C15A C 0.0388(4) 0.3902(5) 0.3748(3)
C15E C 0.1098(5) 0.4612(4) 0.1252(3)
C15K C 0.0388(4) 0.3902(5) 0.6252(3)
C15L C 0.1098(5) 0.4612(4) 0.8748(3)
H9F H -0.5068 0.8596 0.1028
H9J H -0.6404 0.9932 0.6028
H9O H -0.5068 0.8596 0.8972
H9A H 0.0068 0.3596 0.3972
H9E H 0.1404 0.4932 0.1028
H9K H 0.0068 0.3596 0.6028
H9L H 0.1404 0.4932 0.8972
O1A O 0.0452(2) 0.5752(2) 0.5000
O1B O 0.4248(2) 1.0452(2) 0.5000
O1C O -0.0452(2) 1.4248(2) 0.5000
O1B_2 O -0.5752(2) 1.0452(2) 0.5000
O1C_2 O -0.0452(2) 0.4248(2) 0.5000
O1_2 O 0.5752(2) 0.9548(2) 0.5000
O1A_2 O 0.0452(2) 1.5752(2) 0.5000
O2A O 0.1701(2) 0.5518(2) 0.5000
O2B O 0.4482(2) 1.1701(2) 0.5000
O2C O -0.1701(2) 1.4482(2) 0.5000
O3A O 0.0231(2) 0.8621(3) 0.5000
O3B O 0.1379(3) 1.0231(2) 0.5000
O3C O -0.0231(2) 1.1379(3) 0.5000
O4A O 0.3105(2) 0.8923(2) 0.5000
O4B O 0.1077(2) 1.3105(2) 0.5000
O4C O -0.3105(2) 1.1077(2) 0.5000
O4A_2 O -0.6895(2) 0.8923(2) 0.5000
O4B_2 O 0.1077(2) 0.3105(2) 0.5000
O4C_2 O 0.6895(2) 1.1077(2) 0.5000
O4_2 O -0.1077(2) 1.6895(2) 0.5000
O5A O 0.3597(3) 0.7773(2) 0.5000
O5B O 0.2227(2) 1.3597(3) 0.5000
O5C O -0.3597(3) 1.2227(2) 0.5000
O5A_2 O -0.6403(3) 0.7773(2) 0.5000
O5B_2 O 0.2227(2) 0.3597(3) 0.5000
O5C_2 O 0.6403(3) 1.2227(2) 0.5000
O5_2 O -0.2227(2) 1.6403(3) 0.5000
N1F N -0.5861(3) 0.9366(3) 0.0990(2)
N1J N -0.5634(3) 0.9139(3) 0.5990(2)
N1O N -0.5861(3) 0.9366(3) 0.9010(2)
N1A N 0.0861(3) 0.4366(3) 0.4010(2)
N1E N 0.0634(3) 0.4139(3) 0.0990(2)
N1K N 0.0861(3) 0.4366(3) 0.5990(2)
N1L N 0.0634(3) 0.4139(3) 0.9010(2)
N1H N 0.5634(3) 1.0861(3) 0.5990(2)
N1B N 0.5634(3) 1.0861(3) 0.4010(2)
N1C N -0.0861(3) 1.5634(3) 0.4010(2)
N1I N -0.0861(3) 1.5634(3) 0.5990(2)
loop_
_geom_bond_atom_site_label_1
_geom_bond_atom_site_label_2
_geom_bond_site_symmetry_1
_geom_bond_site_symmetry_2
Cd1 O1 1_555 1_555
C1 C2 1_555 1_555
C2 C3 1_555 1_555
C3 H1 1_555 1_555
C4 C3 1_555 1_555
C5 C4 1_555 1_555
H2 C5 1_555 1_555
C6 C5 1_555 1_555
C7 C2 1_555 1_555
H3 C7 1_555 1_555
C8 C6 1_555 1_555
C9 H4 1_555 1_555
H4 H5A 1_555 1_555
H5 C9 1_555 1_555
C10 C9 1_555 1_555
C11 H6 1_555 1_555
C12 C11 1_555 1_555
H7 C12 1_555 1_555
C13 C12 1_555 1_555
C14 C13 1_555 1_555
H8 C14 1_555 1_555
C15 C14 1_555 1_555
H9 C15 1_555 1_555
O1 C1 1_555 1_555
O2 Cd1 1_555 1_555
O3 C4 1_555 1_555
O4 C8 1_555 1_555
O5 C8 1_555 1_555
N1 Cd1 1_555 1_555
Cd1A O1A 1_555 1_555
Cd1B O1B 1_555 1_555
Cd1C O1C 1_555 1_555
Cd1B_2 O1 1_555 1_555
Cd1C_2 O4 1_555 1_555
Cd1_2 O1B 1_555 1_555
Cd1A_2 O1C 1_555 1_555
Cd1F N1F 1_555 1_555
Cd1F_2 N1O 1_555 1_555
Cd1E N1E 1_555 1_555
Cd1E_2 N1L 1_555 1_555
C1A C2A 1_555 1_555
C1B C2B 1_555 1_555
C1C C2C 1_555 1_555
C2A C3A 1_555 1_555
C2B C3B 1_555 1_555
C2C C3C 1_555 1_555
C3A H1A 1_555 1_555
C3B H1B 1_555 1_555
C3C H1C 1_555 1_555
C4A C3A 1_555 1_555
C4B C3B 1_555 1_555
C4C C3C 1_555 1_555
C5A C4A 1_555 1_555
C5B C4B 1_555 1_555
C5C C4C 1_555 1_555
H2A C5A 1_555 1_555
H2B C5B 1_555 1_555
H2C C5C 1_555 1_555
C6A C5A 1_555 1_555
C6B C5B 1_555 1_555
C6C C5C 1_555 1_555
C7A C2A 1_555 1_555
C7B C2B 1_555 1_555
C7C C2C 1_555 1_555
H3A C7A 1_555 1_555
H3B C7B 1_555 1_555
H3C C7C 1_555 1_555
C8A C6A 1_555 1_555
C8B C6B 1_555 1_555
C8C C6C 1_555 1_555
C9A C9 1_555 1_555
C9K C10 1_555 1_555
C9H C10 1_555 1_555
C9B C10 1_555 1_555
C9C C9 1_555 1_555
C9I C10 1_555 1_555
C9J C10 1_555 1_555
H4J C9J 1_555 1_555
H4K C9K 1_555 1_555
H4H C9H 1_555 1_555
H4I C9I 1_555 1_555
H4A C9A 1_555 1_555
H4B C9B 1_555 1_555
H4C H5 1_555 1_555
H5K C9K 1_555 1_555
H5H C9H 1_555 1_555
H5I C9I 1_555 1_555
H5J C9J 1_555 1_555
H5A C9A 1_555 1_555
H5B C9B 1_555 1_555
H5C C9C 1_555 1_555
C11F H6F 1_555 1_555
C11J H6J 1_555 1_555
C11O H6O 1_555 1_555
C11A H6A 1_555 1_555
C11E H6E 1_555 1_555
C11K H6K 1_555 1_555
C11L H6L 1_555 1_555
C12F C11F 1_555 1_555
C12J C11J 1_555 1_555
C12O C11O 1_555 1_555
C12A C11A 1_555 1_555
C12E C11E 1_555 1_555
C12K C11K 1_555 1_555
C12L C11L 1_555 1_555
H7F C12F 1_555 1_555
H7J C12J 1_555 1_555
H7O C12O 1_555 1_555
H7A C12A 1_555 1_555
H7E C12E 1_555 1_555
H7K C12K 1_555 1_555
H7L C12L 1_555 1_555
C13F C13 1_555 1_555
C13J C12J 1_555 1_555
C13O C12O 1_555 1_555
C13A C12A 1_555 1_555
C13E C12E 1_555 1_555
C13K C12K 1_555 1_555
C13L C12L 1_555 1_555
C14F C13F 1_555 1_555
C14J C13J 1_555 1_555
C14O C13O 1_555 1_555
C14A C13A 1_555 1_555
C14E C13E 1_555 1_555
C14K C13K 1_555 1_555
C14L C13L 1_555 1_555
H8F C14F 1_555 1_555
H8J C14J 1_555 1_555
H8O C14O 1_555 1_555
H8A C14A 1_555 1_555
H8E C14E 1_555 1_555
H8K C14K 1_555 1_555
H8L C14L 1_555 1_555
C15F C14F 1_555 1_555
C15J C14J 1_555 1_555
C15O C14O 1_555 1_555
C15A C14A 1_555 1_555
C15E C14E 1_555 1_555
C15K C14K 1_555 1_555
C15L C14L 1_555 1_555
H9F C15F 1_555 1_555
H9J C15J 1_555 1_555
H9O C15O 1_555 1_555
H9A C15A 1_555 1_555
H9E C15E 1_555 1_555
H9K C15K 1_555 1_555
H9L C15L 1_555 1_555
O1A Cd1C_2 1_555 1_555
O1B C1B 1_555 1_555
O1C C1C 1_555 1_555
O1B_2 Cd1 1_555 1_555
O1C_2 Cd1A 1_555 1_555
O1_2 Cd1B 1_555 1_555
O1A_2 Cd1C 1_555 1_555
O2A Cd1A 1_555 1_555
O2B Cd1B 1_555 1_555
O2C Cd1C 1_555 1_555
O3A C4A 1_555 1_555
O3B C4B 1_555 1_555
O3C C4C 1_555 1_555
O4A Cd1_2 1_555 1_555
O4B Cd1A_2 1_555 1_555
O4C Cd1B_2 1_555 1_555
O4A_2 Cd1 1_555 1_555
O4B_2 Cd1A 1_555 1_555
O4C_2 Cd1B 1_555 1_555
O4_2 Cd1C 1_555 1_555
O5A Cd1_2 1_555 1_555
O5B Cd1A_2 1_555 1_555
O5C Cd1B_2 1_555 1_555
O5A_2 Cd1 1_555 1_555
O5B_2 Cd1A 1_555 1_555
O5C_2 Cd1B 1_555 1_555
O5_2 Cd1C 1_555 1_555
N1F C11F 1_555 1_555
N1J Cd1 1_555 1_555
N1O C11O 1_555 1_555
N1A Cd1A 1_555 1_555
N1E C11E 1_555 1_555
N1K Cd1A 1_555 1_555
N1L C11L 1_555 1_555
N1H Cd1B 1_555 1_555
N1B Cd1B 1_555 1_555
N1C Cd1C 1_555 1_555
N1I Cd1C 1_555 1_555
C1 O2 1_555 1_555
C6 C7 1_555 1_555
C9 O3 1_555 1_555
C10 C9A 1_555 1_555
C10 C9C 1_555 1_555
C11 N1 1_555 1_555
C15 N1 1_555 1_555
O3 C9J 1_555 1_555
O5 Cd1C_2 1_555 1_555
Cd1B_2 O1B_2 1_555 1_555
Cd1C_2 O1C_2 1_555 1_555
Cd1_2 O1_2 1_555 1_555
Cd1A_2 O1A_2 1_555 1_555
C1A O1A 1_555 1_555
C1A O2A 1_555 1_555
C1B O2B 1_555 1_555
C1C O2C 1_555 1_555
C6A C7A 1_555 1_555
C6B C7B 1_555 1_555
C6C C7C 1_555 1_555
C8A O4A 1_555 1_555
C8A O5A 1_555 1_555
C8B O4B 1_555 1_555
C8B O5B 1_555 1_555
C8C O4C 1_555 1_555
C8C O5C 1_555 1_555
C9A C9B 1_555 1_555
C9A O3A 1_555 1_555
C9K C9H 1_555 1_555
C9K C9J 1_555 1_555
C9K O3A 1_555 1_555
C9H C9I 1_555 1_555
C9H O3B 1_555 1_555
C9B C9C 1_555 1_555
C9B O3B 1_555 1_555
C9C H4C 1_555 1_555
C9C O3C 1_555 1_555
C9I C9J 1_555 1_555
C9I O3C 1_555 1_555
H4J H5K 1_555 1_555
H4K H5H 1_555 1_555
H4H H5I 1_555 1_555
H4I H5J 1_555 1_555
H4A H5B 1_555 1_555
H4B H5C 1_555 1_555
C11J N1J 1_555 1_555
C11A N1A 1_555 1_555
C11K N1K 1_555 1_555
C12F C13F 1_555 1_555
C13J C13O 1_555 1_555
C13A C13E 1_555 1_555
C13K C13L 1_555 1_555
C15F N1F 1_555 1_555
C15J N1J 1_555 1_555
C15O N1O 1_555 1_555
C15A N1A 1_555 1_555
C15E N1E 1_555 1_555
C15K N1K 1_555 1_555
C15L N1L 1_555 1_555

#END
