
#######################################################################
#
#                 Cambridge Crystallographic Data Centre
#                                CCDC 
#
#######################################################################
#
# If this CIF has been generated from an entry in the Cambridge 
# Structural Database, then it will include bibliographic, chemical, 
# crystal, experimental, refinement or atomic coordinate data resulting 
# from the CCDC's data processing and validation procedures.
#
#######################################################################

data_EYULEQ
_chemical_formula_moiety         'C105 H76 Cd12 N12 O32'
_symmetry_cell_setting           tetragonal
_symmetry_space_group_name_H-M   'P 4/m'
_symmetry_Int_Tables_number      83
_space_group_name_Hall           '-P 4'
loop_
_symmetry_equiv_pos_site_id
_symmetry_equiv_pos_as_xyz
1 x,y,z
2 -y,x,z
3 -x,-y,z
4 y,-x,z
5 -x,-y,-z
6 y,-x,-z
7 x,y,-z
8 -y,x,-z
_cell_length_a                   17.433(5)
_cell_length_b                   17.433(5)
_cell_length_c                   16.137(7)
_cell_angle_alpha                90
_cell_angle_beta                 90
_cell_angle_gamma                90
_cell_volume                     4904.19
loop_
_atom_site_label
_atom_site_type_symbol
_atom_site_fract_x
_atom_site_fract_y
_atom_site_fract_z
Cd1 Cd 0.560489(16) -0.094658(18) 0.0000
C1 C 0.0000 0.0000 0.0000
C2 C 0.0680(4) -0.0188(5) 0.0577(9)
H1 H 0.0599 -0.0667 0.0858
H2 H 0.0747 0.0210 0.0982
C3 C 0.1854(3) -0.0864(3) 0.0000
C4 C 0.2639(3) -0.0722(3) 0.0000
H3 H 0.2809 -0.0216 0.0000
C5 C 0.3173(2) -0.1304(3) 0.0000
C6 C 0.2895(2) -0.2073(2) 0.0000
H4 H 0.3242 -0.2478 0.0000
C7 C 0.2111(3) -0.2226(3) 0.0000
C8 C 0.1581(3) -0.1612(3) 0.0000
H5 H 0.1057 -0.1708 0.0000
C9 C 0.4014(2) -0.1142(2) 0.0000
C10 C 0.1791(3) -0.3032(2) 0.0000
C11 C 0.5170(4) -0.1381(4) -0.1888(3)
H6 H 0.4857 -0.1727 -0.1608
C12 C 0.5171(4) -0.1390(4) -0.2757(3)
H7 H 0.4860 -0.1735 -0.3040
C13 C 0.5636(4) -0.0884(4) -0.3199(4)
C14 C 0.6071(4) -0.0395(4) -0.2733(3)
H8 H 0.6394 -0.0045 -0.2993
C15 C 0.6034(4) -0.0417(3) -0.1879(3)
H9 H 0.6336 -0.0071 -0.1586
C16 C 0.5649(5) -0.0884(5) -0.4123(4)
C17 C 0.6195(5) -0.0524(5) -0.4568(3)
H10 H 0.6595 -0.0258 -0.4277
C18 C 0.5067(5) -0.1242(5) -0.4558(3)
H11 H 0.4668 -0.1508 -0.4267
O1 O 0.42476(18) -0.04478(18) 0.0000
O2 O 0.44803(18) -0.1698(2) 0.0000
O3 O 0.2229(2) -0.3592(2) 0.0000
O4 O 0.1074(2) -0.3097(2) 0.0000
O5 O 0.1377(2) -0.0231(2) 0.0000
N1 N 0.56013(18) -0.08963(19) -0.1444(2)
Cd1A Cd 0.094658(18) 0.560489(16) 0.0000
Cd1B Cd -0.560489(16) 0.094658(18) 0.0000
Cd1C Cd -0.094658(18) -0.560489(16) 0.0000
Cd1B_2 Cd 0.439511(16) 0.094658(18) 0.0000
Cd1A_2 Cd 0.094658(18) -0.439511(16) 0.0000
Cd1C_2 Cd -0.094658(18) 0.439511(16) 0.0000
Cd1_2 Cd -0.439511(16) -0.094658(18) 0.0000
Cd1_3 Cd 0.560489(16) -0.094658(18) -1.0000
Cd1_4 Cd 0.560489(16) -0.094658(18) 1.0000
Cd1A_3 Cd 0.094658(18) 0.560489(16) -1.0000
Cd1A_4 Cd 0.094658(18) 0.560489(16) 1.0000
C2C C -0.0188(5) -0.0680(4) 0.0577(9)
C2A C 0.0188(5) 0.0680(4) 0.0577(9)
C2B C -0.0680(4) 0.0188(5) 0.0577(9)
C2D C -0.0680(4) 0.0188(5) -0.0577(9)
C2G C 0.0188(5) 0.0680(4) -0.0577(9)
C2E C -0.0188(5) -0.0680(4) -0.0577(9)
C2F C 0.0680(4) -0.0188(5) -0.0577(9)
H1E H -0.0667 -0.0599 -0.0858
H1D H -0.0599 0.0667 -0.0858
H1G H 0.0667 0.0599 -0.0858
H1F H 0.0599 -0.0667 -0.0858
H1C H -0.0667 -0.0599 0.0858
H1B H -0.0599 0.0667 0.0858
H1A H 0.0667 0.0599 0.0858
H2C H 0.0210 -0.0747 0.0982
H2D H -0.0747 -0.0210 -0.0982
H2G H -0.0210 0.0747 -0.0982
H2F H 0.0747 0.0210 -0.0982
H2E H 0.0210 -0.0747 -0.0982
H2B H -0.0747 -0.0210 0.0982
H2A H -0.0210 0.0747 0.0982
C3A C 0.0864(3) 0.1854(3) 0.0000
C3B C -0.1854(3) 0.0864(3) 0.0000
C3C C -0.0864(3) -0.1854(3) 0.0000
C4A C 0.0722(3) 0.2639(3) 0.0000
C4B C -0.2639(3) 0.0722(3) 0.0000
C4C C -0.0722(3) -0.2639(3) 0.0000
H3A H 0.0216 0.2809 0.0000
H3B H -0.2809 0.0216 0.0000
H3C H -0.0216 -0.2809 0.0000
C5A C 0.1304(3) 0.3173(2) 0.0000
C5B C -0.3173(2) 0.1304(3) 0.0000
C5C C -0.1304(3) -0.3173(2) 0.0000
C6A C 0.2073(2) 0.2895(2) 0.0000
C6B C -0.2895(2) 0.2073(2) 0.0000
C6C C -0.2073(2) -0.2895(2) 0.0000
H4A H 0.2478 0.3242 0.0000
H4B H -0.3242 0.2478 0.0000
H4C H -0.2478 -0.3242 0.0000
C7A C 0.2226(3) 0.2111(3) 0.0000
C7B C -0.2111(3) 0.2226(3) 0.0000
C7C C -0.2226(3) -0.2111(3) 0.0000
C8A C 0.1612(3) 0.1581(3) 0.0000
C8B C -0.1581(3) 0.1612(3) 0.0000
C8C C -0.1612(3) -0.1581(3) 0.0000
H5A H 0.1708 0.1057 0.0000
H5B H -0.1057 0.1708 0.0000
H5C H -0.1708 -0.1057 0.0000
C9A C 0.1142(2) 0.4014(2) 0.0000
C9B C -0.4014(2) 0.1142(2) 0.0000
C9C C -0.1142(2) -0.4014(2) 0.0000
C10A C 0.3032(2) 0.1791(3) 0.0000
C10B C -0.1791(3) 0.3032(2) 0.0000
C10C C -0.3032(2) -0.1791(3) 0.0000
C11F C 0.5170(4) -0.1381(4) -0.8112(3)
C11F_2 C 0.5170(4) -0.1381(4) 0.1888(3)
C11_2 C 0.5170(4) -0.1381(4) 0.8112(3)
C11A C 0.1381(4) 0.5170(4) -0.1888(3)
C11G C 0.1381(4) 0.5170(4) -0.8112(3)
C11G_2 C 0.1381(4) 0.5170(4) 0.1888(3)
C11A_2 C 0.1381(4) 0.5170(4) 0.8112(3)
H6F H 0.4857 -0.1727 -0.8392
H6F_2 H 0.4857 -0.1727 0.1608
H6_2 H 0.4857 -0.1727 0.8392
H6A H 0.1727 0.4857 -0.1608
H6G H 0.1727 0.4857 -0.8392
H6G_2 H 0.1727 0.4857 0.1608
H6A_2 H 0.1727 0.4857 0.8392
C12F C 0.5171(4) -0.1390(4) -0.7243(3)
C12F_2 C 0.5171(4) -0.1390(4) 0.2757(3)
C12_2 C 0.5171(4) -0.1390(4) 0.7243(3)
C12A C 0.1390(4) 0.5171(4) -0.2757(3)
C12G C 0.1390(4) 0.5171(4) -0.7243(3)
C12G_2 C 0.1390(4) 0.5171(4) 0.2757(3)
C12A_2 C 0.1390(4) 0.5171(4) 0.7243(3)
H7F H 0.4860 -0.1735 -0.6960
H7F_2 H 0.4860 -0.1735 0.3040
H7_2 H 0.4860 -0.1735 0.6960
H7A H 0.1735 0.4860 -0.3040
H7G H 0.1735 0.4860 -0.6960
H7G_2 H 0.1735 0.4860 0.3040
H7A_2 H 0.1735 0.4860 0.6960
C13F C 0.5636(4) -0.0884(4) -0.6801(4)
C13F_2 C 0.5636(4) -0.0884(4) 0.3199(4)
C13_2 C 0.5636(4) -0.0884(4) 0.6801(4)
C13A C 0.0884(4) 0.5636(4) -0.3199(4)
C13G C 0.0884(4) 0.5636(4) -0.6801(4)
C13G_2 C 0.0884(4) 0.5636(4) 0.3199(4)
C13A_2 C 0.0884(4) 0.5636(4) 0.6801(4)
C14F C 0.6071(4) -0.0395(4) -0.7267(3)
C14F_2 C 0.6071(4) -0.0395(4) 0.2733(3)
C14_2 C 0.6071(4) -0.0395(4) 0.7267(3)
C14A C 0.0395(4) 0.6071(4) -0.2733(3)
C14G C 0.0395(4) 0.6071(4) -0.7267(3)
C14G_2 C 0.0395(4) 0.6071(4) 0.2733(3)
C14A_2 C 0.0395(4) 0.6071(4) 0.7267(3)
H8F H 0.6394 -0.0045 -0.7007
H8F_2 H 0.6394 -0.0045 0.2993
H8_2 H 0.6394 -0.0045 0.7007
H8A H 0.0045 0.6394 -0.2993
H8G H 0.0045 0.6394 -0.7007
H8G_2 H 0.0045 0.6394 0.2993
H8A_2 H 0.0045 0.6394 0.7007
C15F C 0.6034(4) -0.0417(3) -0.8121(3)
C15F_2 C 0.6034(4) -0.0417(3) 0.1879(3)
C15_2 C 0.6034(4) -0.0417(3) 0.8121(3)
C15A C 0.0417(3) 0.6034(4) -0.1879(3)
C15G C 0.0417(3) 0.6034(4) -0.8121(3)
C15G_2 C 0.0417(3) 0.6034(4) 0.1879(3)
C15A_2 C 0.0417(3) 0.6034(4) 0.8121(3)
H9F H 0.6336 -0.0071 -0.8414
H9F_2 H 0.6336 -0.0071 0.1586
H9_2 H 0.6336 -0.0071 0.8414
H9A H 0.0071 0.6336 -0.1586
H9G H 0.0071 0.6336 -0.8414
H9G_2 H 0.0071 0.6336 0.1586
H9A_2 H 0.0071 0.6336 0.8414
C16F C 0.5649(5) -0.0884(5) -0.5877(4)
C16F_2 C 0.5649(5) -0.0884(5) 0.4123(4)
C16_2 C 0.5649(5) -0.0884(5) 0.5877(4)
C16A C 0.0884(5) 0.5649(5) -0.4123(4)
C16G C 0.0884(5) 0.5649(5) -0.5877(4)
C16G_2 C 0.0884(5) 0.5649(5) 0.4123(4)
C16A_2 C 0.0884(5) 0.5649(5) 0.5877(4)
C17F C 0.6195(5) -0.0524(5) -0.5432(3)
C17F_2 C 0.6195(5) -0.0524(5) 0.4568(3)
C17_2 C 0.6195(5) -0.0524(5) 0.5432(3)
C17A C 0.0524(5) 0.6195(5) -0.4568(3)
C17G C 0.0524(5) 0.6195(5) -0.5432(3)
C17G_2 C 0.0524(5) 0.6195(5) 0.4568(3)
C17A_2 C 0.0524(5) 0.6195(5) 0.5432(3)
H10F H 0.6595 -0.0258 -0.5723
H10F_2 H 0.6595 -0.0258 0.4277
H10_2 H 0.6595 -0.0258 0.5723
H10A H 0.0258 0.6595 -0.4277
H10G H 0.0258 0.6595 -0.5723
H10G_2 H 0.0258 0.6595 0.4277
H10A_2 H 0.0258 0.6595 0.5723
C18F C 0.5067(5) -0.1242(5) -0.5442(3)
C18F_2 C 0.5067(5) -0.1242(5) 0.4558(3)
C18_2 C 0.5067(5) -0.1242(5) 0.5442(3)
C18A C 0.1242(5) 0.5067(5) -0.4558(3)
C18G C 0.1242(5) 0.5067(5) -0.5442(3)
C18G_2 C 0.1242(5) 0.5067(5) 0.4558(3)
C18A_2 C 0.1242(5) 0.5067(5) 0.5442(3)
H11F H 0.4668 -0.1508 -0.5733
H11F_2 H 0.4668 -0.1508 0.4267
H11_2 H 0.4668 -0.1508 0.5733
H11A H 0.1508 0.4668 -0.4267
H11G H 0.1508 0.4668 -0.5733
H11G_2 H 0.1508 0.4668 0.4267
H11A_2 H 0.1508 0.4668 0.5733
O1A O 0.04478(18) 0.42476(18) 0.0000
O1B O -0.42476(18) 0.04478(18) 0.0000
O1C O -0.04478(18) -0.42476(18) 0.0000
O1B_2 O 0.57524(18) 0.04478(18) 0.0000
O1C_2 O -0.04478(18) 0.57524(18) 0.0000
O1_2 O -0.57524(18) -0.04478(18) 0.0000
O1A_2 O 0.04478(18) -0.57524(18) 0.0000
O2A O 0.1698(2) 0.44803(18) 0.0000
O2B O -0.44803(18) 0.1698(2) 0.0000
O2C O -0.1698(2) -0.44803(18) 0.0000
O3A O 0.3592(2) 0.2229(2) 0.0000
O3B O -0.2229(2) 0.3592(2) 0.0000
O3C O -0.3592(2) -0.2229(2) 0.0000
O3C_2 O 0.6408(2) -0.2229(2) 0.0000
O3_2 O 0.2229(2) 0.6408(2) 0.0000
O3A_2 O -0.6408(2) 0.2229(2) 0.0000
O3B_2 O -0.2229(2) -0.6408(2) 0.0000
O4A O 0.3097(2) 0.1074(2) 0.0000
O4B O -0.1074(2) 0.3097(2) 0.0000
O4C O -0.3097(2) -0.1074(2) 0.0000
O4C_2 O 0.6903(2) -0.1074(2) 0.0000
O4_2 O 0.1074(2) 0.6903(2) 0.0000
O4A_2 O -0.6903(2) 0.1074(2) 0.0000
O4B_2 O -0.1074(2) -0.6903(2) 0.0000
O5C O -0.0231(2) -0.1377(2) 0.0000
O5A O 0.0231(2) 0.1377(2) 0.0000
O5B O -0.1377(2) 0.0231(2) 0.0000
N1F N 0.56013(18) -0.08963(19) -0.8556(2)
N1F_2 N 0.56013(18) -0.08963(19) 0.1444(2)
N1_2 N 0.56013(18) -0.08963(19) 0.8556(2)
N1A N 0.08963(19) 0.56013(18) -0.1444(2)
N1G N 0.08963(19) 0.56013(18) -0.8556(2)
N1G_2 N 0.08963(19) 0.56013(18) 0.1444(2)
N1A_2 N 0.08963(19) 0.56013(18) 0.8556(2)
N1B N -0.56013(18) 0.08963(19) -0.1444(2)
N1D N -0.56013(18) 0.08963(19) 0.1444(2)
N1E N -0.08963(19) -0.56013(18) 0.1444(2)
N1C N -0.08963(19) -0.56013(18) -0.1444(2)
loop_
_geom_bond_atom_site_label_1
_geom_bond_atom_site_label_2
_geom_bond_site_symmetry_1
_geom_bond_site_symmetry_2
Cd1 O1 1_555 1_555
C1 C2 1_555 1_555
C2 H1 1_555 1_555
H1 H2C 1_555 1_555
H2 C2 1_555 1_555
C3 C4 1_555 1_555
C4 H3 1_555 1_555
C5 C4 1_555 1_555
C6 C5 1_555 1_555
H4 C6 1_555 1_555
C7 C6 1_555 1_555
C8 C3 1_555 1_555
H5 C8 1_555 1_555
C9 C5 1_555 1_555
C10 C7 1_555 1_555
C11 H6 1_555 1_555
C12 C11 1_555 1_555
H7 C12 1_555 1_555
C13 C12 1_555 1_555
C14 C13 1_555 1_555
H8 C14 1_555 1_555
C15 C14 1_555 1_555
H9 C15 1_555 1_555
C16 C13 1_555 1_555
C17 C16 1_555 1_555
H10 C17 1_555 1_555
C18 C16 1_555 1_555
H11 C18 1_555 1_555
O1 C9 1_555 1_555
O2 Cd1 1_555 1_555
O3 C10 1_555 1_555
O4 C10 1_555 1_555
O5 C2 1_555 1_555
N1 Cd1 1_555 1_555
Cd1A O1A 1_555 1_555
Cd1B O1B 1_555 1_555
Cd1C O1C 1_555 1_555
Cd1B_2 O1 1_555 1_555
Cd1A_2 O3 1_555 1_555
Cd1C_2 O1A 1_555 1_555
Cd1_2 O1B 1_555 1_555
Cd1_3 N1F 1_555 1_555
Cd1_4 N1_2 1_555 1_555
Cd1A_3 N1G 1_555 1_555
Cd1A_4 N1A_2 1_555 1_555
C2C C1 1_555 1_555
C2A C1 1_555 1_555
C2B C1 1_555 1_555
C2D C1 1_555 1_555
C2G C1 1_555 1_555
C2E C1 1_555 1_555
C2F C1 1_555 1_555
H1E C2E 1_555 1_555
H1D C2D 1_555 1_555
H1G C2G 1_555 1_555
H1F C2F 1_555 1_555
H1C C2C 1_555 1_555
H1B C2B 1_555 1_555
H1A H2 1_555 1_555
H2C C2C 1_555 1_555
H2D C2D 1_555 1_555
H2G C2G 1_555 1_555
H2F C2F 1_555 1_555
H2E C2E 1_555 1_555
H2B C2B 1_555 1_555
H2A C2A 1_555 1_555
C3A C4A 1_555 1_555
C3B C4B 1_555 1_555
C3C C4C 1_555 1_555
C4A H3A 1_555 1_555
C4B H3B 1_555 1_555
C4C H3C 1_555 1_555
C5A C4A 1_555 1_555
C5B C4B 1_555 1_555
C5C C4C 1_555 1_555
C6A C5A 1_555 1_555
C6B C5B 1_555 1_555
C6C C5C 1_555 1_555
H4A C6A 1_555 1_555
H4B C6B 1_555 1_555
H4C C6C 1_555 1_555
C7A C6A 1_555 1_555
C7B C6B 1_555 1_555
C7C C6C 1_555 1_555
C8A C3A 1_555 1_555
C8B C3B 1_555 1_555
C8C C3C 1_555 1_555
H5A C8A 1_555 1_555
H5B C8B 1_555 1_555
H5C C8C 1_555 1_555
C9A C5A 1_555 1_555
C9B C5B 1_555 1_555
C9C C5C 1_555 1_555
C10A C7A 1_555 1_555
C10B C7B 1_555 1_555
C10C C7C 1_555 1_555
C11F H6F 1_555 1_555
C11F_2 H6F_2 1_555 1_555
C11_2 H6_2 1_555 1_555
C11A H6A 1_555 1_555
C11G H6G 1_555 1_555
C11G_2 H6G_2 1_555 1_555
C11A_2 H6A_2 1_555 1_555
C12F C11F 1_555 1_555
C12F_2 C11F_2 1_555 1_555
C12_2 C11_2 1_555 1_555
C12A C11A 1_555 1_555
C12G C11G 1_555 1_555
C12G_2 C11G_2 1_555 1_555
C12A_2 C11A_2 1_555 1_555
H7F C12F 1_555 1_555
H7F_2 C12F_2 1_555 1_555
H7_2 C12_2 1_555 1_555
H7A C12A 1_555 1_555
H7G C12G 1_555 1_555
H7G_2 C12G_2 1_555 1_555
H7A_2 C12A_2 1_555 1_555
C13F C12F 1_555 1_555
C13F_2 C12F_2 1_555 1_555
C13_2 C12_2 1_555 1_555
C13A C12A 1_555 1_555
C13G C12G 1_555 1_555
C13G_2 C12G_2 1_555 1_555
C13A_2 C12A_2 1_555 1_555
C14F C13F 1_555 1_555
C14F_2 C13F_2 1_555 1_555
C14_2 C13_2 1_555 1_555
C14A C13A 1_555 1_555
C14G C13G 1_555 1_555
C14G_2 C13G_2 1_555 1_555
C14A_2 C13A_2 1_555 1_555
H8F C14F 1_555 1_555
H8F_2 C14F_2 1_555 1_555
H8_2 C14_2 1_555 1_555
H8A C14A 1_555 1_555
H8G C14G 1_555 1_555
H8G_2 C14G_2 1_555 1_555
H8A_2 C14A_2 1_555 1_555
C15F C14F 1_555 1_555
C15F_2 C14F_2 1_555 1_555
C15_2 C14_2 1_555 1_555
C15A C14A 1_555 1_555
C15G C14G 1_555 1_555
C15G_2 C14G_2 1_555 1_555
C15A_2 C14A_2 1_555 1_555
H9F C15F 1_555 1_555
H9F_2 C15F_2 1_555 1_555
H9_2 C15_2 1_555 1_555
H9A C15A 1_555 1_555
H9G C15G 1_555 1_555
H9G_2 C15G_2 1_555 1_555
H9A_2 C15A_2 1_555 1_555
C16F C13F 1_555 1_555
C16F_2 C13F_2 1_555 1_555
C16_2 C13_2 1_555 1_555
C16A C13A 1_555 1_555
C16G C13G 1_555 1_555
C16G_2 C13G_2 1_555 1_555
C16A_2 C13A_2 1_555 1_555
C17F C17 1_555 1_555
C17F_2 C16F_2 1_555 1_555
C17_2 C16_2 1_555 1_555
C17A C16A 1_555 1_555
C17G C16G 1_555 1_555
C17G_2 C16G_2 1_555 1_555
C17A_2 C16A_2 1_555 1_555
H10F C17F 1_555 1_555
H10F_2 C17F_2 1_555 1_555
H10_2 C17_2 1_555 1_555
H10A C17A 1_555 1_555
H10G C17G 1_555 1_555
H10G_2 C17G_2 1_555 1_555
H10A_2 C17A_2 1_555 1_555
C18F C18 1_555 1_555
C18F_2 C16F_2 1_555 1_555
C18_2 C16_2 1_555 1_555
C18A C16A 1_555 1_555
C18G C16G 1_555 1_555
C18G_2 C16G_2 1_555 1_555
C18A_2 C16A_2 1_555 1_555
H11F C18F 1_555 1_555
H11F_2 C18F_2 1_555 1_555
H11_2 C18_2 1_555 1_555
H11A C18A 1_555 1_555
H11G C18G 1_555 1_555
H11G_2 C18G_2 1_555 1_555
H11A_2 C18A_2 1_555 1_555
O1A C9A 1_555 1_555
O1B C9B 1_555 1_555
O1C Cd1A_2 1_555 1_555
O1B_2 Cd1 1_555 1_555
O1C_2 Cd1A 1_555 1_555
O1_2 Cd1B 1_555 1_555
O1A_2 Cd1C 1_555 1_555
O2A Cd1A 1_555 1_555
O2B Cd1B 1_555 1_555
O2C Cd1C 1_555 1_555
O3A Cd1B_2 1_555 1_555
O3B Cd1C_2 1_555 1_555
O3C Cd1_2 1_555 1_555
O3C_2 Cd1 1_555 1_555
O3_2 Cd1A 1_555 1_555
O3A_2 Cd1B 1_555 1_555
O3B_2 Cd1C 1_555 1_555
O4A Cd1B_2 1_555 1_555
O4B Cd1C_2 1_555 1_555
O4C Cd1_2 1_555 1_555
O4C_2 Cd1 1_555 1_555
O4_2 Cd1A 1_555 1_555
O4A_2 Cd1B 1_555 1_555
O4B_2 Cd1C 1_555 1_555
O5C C2C 1_555 1_555
O5A C2A 1_555 1_555
O5B C2B 1_555 1_555
N1F C11F 1_555 1_555
N1F_2 Cd1 1_555 1_555
N1_2 C11_2 1_555 1_555
N1A Cd1A 1_555 1_555
N1G C11G 1_555 1_555
N1G_2 Cd1A 1_555 1_555
N1A_2 C11A_2 1_555 1_555
N1B Cd1B 1_555 1_555
N1D Cd1B 1_555 1_555
N1E Cd1C 1_555 1_555
N1C Cd1C 1_555 1_555
C2 C2C 1_555 1_555
C2 C2A 1_555 1_555
C3 O5 1_555 1_555
C7 C8 1_555 1_555
C9 O2 1_555 1_555
C11 N1 1_555 1_555
C15 N1 1_555 1_555
O4 Cd1A_2 1_555 1_555
O5 C2F 1_555 1_555
Cd1B_2 O1B_2 1_555 1_555
Cd1A_2 O1A_2 1_555 1_555
Cd1C_2 O1C_2 1_555 1_555
Cd1_2 O1_2 1_555 1_555
C2C C2B 1_555 1_555
C2A C2B 1_555 1_555
C2A H1A 1_555 1_555
C2D C2G 1_555 1_555
C2D C2E 1_555 1_555
C2D O5B 1_555 1_555
C2G C2F 1_555 1_555
C2G O5A 1_555 1_555
C2E C2F 1_555 1_555
C2E O5C 1_555 1_555
H1E H2D 1_555 1_555
H1D H2G 1_555 1_555
H1G H2F 1_555 1_555
H1F H2E 1_555 1_555
H1C H2B 1_555 1_555
H1B H2A 1_555 1_555
C3A O5A 1_555 1_555
C3B O5B 1_555 1_555
C3C O5C 1_555 1_555
C7A C8A 1_555 1_555
C7B C8B 1_555 1_555
C7C C8C 1_555 1_555
C9A O2A 1_555 1_555
C9B O2B 1_555 1_555
C9C O1C 1_555 1_555
C9C O2C 1_555 1_555
C10A O3A 1_555 1_555
C10A O4A 1_555 1_555
C10B O3B 1_555 1_555
C10B O4B 1_555 1_555
C10C O3C 1_555 1_555
C10C O4C 1_555 1_555
C11F_2 N1F_2 1_555 1_555
C11A N1A 1_555 1_555
C11G_2 N1G_2 1_555 1_555
C15F N1F 1_555 1_555
C15F_2 N1F_2 1_555 1_555
C15_2 N1_2 1_555 1_555
C15A N1A 1_555 1_555
C15G N1G 1_555 1_555
C15G_2 N1G_2 1_555 1_555
C15A_2 N1A_2 1_555 1_555
C16F C17F 1_555 1_555
C16F C18F 1_555 1_555
C17F_2 C17_2 1_555 1_555
C17A C17G 1_555 1_555
C17G_2 C17A_2 1_555 1_555
C18F_2 C18_2 1_555 1_555
C18A C18G 1_555 1_555
C18G_2 C18A_2 1_555 1_555

#END
