
#######################################################################
#
#                 Cambridge Crystallographic Data Centre
#                                CCDC 
#
#######################################################################
#
# If this CIF has been generated from an entry in the Cambridge 
# Structural Database, then it will include bibliographic, chemical, 
# crystal, experimental, refinement or atomic coordinate data resulting 
# from the CCDC's data processing and validation procedures.
#
#######################################################################

data_LAPZIO
_chemical_formula_moiety         '(C72 H40 Cu4 N4 O22)n'
_symmetry_cell_setting           tetragonal
_symmetry_space_group_name_H-M   'I 4/m m m'
_symmetry_Int_Tables_number      139
_space_group_name_Hall           '-I 4 2'
loop_
_symmetry_equiv_pos_site_id
_symmetry_equiv_pos_as_xyz
1 x,y,z
2 -y,x,z
3 -x,-y,z
4 y,-x,z
5 x,-y,-z
6 -x,y,-z
7 y,x,-z
8 -y,-x,-z
9 1/2+x,1/2+y,1/2+z
10 1/2-y,1/2+x,1/2+z
11 1/2-x,1/2-y,1/2+z
12 1/2+y,1/2-x,1/2+z
13 1/2+x,1/2-y,1/2-z
14 1/2-x,1/2+y,1/2-z
15 1/2+y,1/2+x,1/2-z
16 1/2-y,1/2-x,1/2-z
17 -x,-y,-z
18 y,-x,-z
19 x,y,-z
20 -y,x,-z
21 -x,y,z
22 x,-y,z
23 -y,-x,z
24 y,x,z
25 1/2-x,1/2-y,1/2-z
26 1/2+y,1/2-x,1/2-z
27 1/2+x,1/2+y,1/2-z
28 1/2-y,1/2+x,1/2-z
29 1/2-x,1/2+y,1/2+z
30 1/2+x,1/2-y,1/2+z
31 1/2-y,1/2-x,1/2+z
32 1/2+y,1/2+x,1/2+z
_cell_length_a                   18.476(2)
_cell_length_b                   18.476(2)
_cell_length_c                   59.999(8)
_cell_angle_alpha                90
_cell_angle_beta                 90
_cell_angle_gamma                90
_cell_volume                     20481.4
loop_
_atom_site_label
_atom_site_type_symbol
_atom_site_fract_x
_atom_site_fract_y
_atom_site_fract_z
_atom_site_U_iso_or_equiv
_atom_site_thermal_displace_type
Cu1 Cu 0.28583(5) 0.28583(5) 0.23409(2) 0.1303 Uani
O1 O 0.4271(7) 0.0000 0.0000 0.3253 Uani
O2 O 0.2954(2) 0.1942(3) 0.21978(7) 0.1490 Uani
O3 O 0.2368(3) 0.1306(2) 0.24736(7) 0.1497 Uani
O4 O 0.3458(3) 0.3458(3) 0.20945(11) 0.2057 Uani
H1 H 0.3485 0.3997 0.2078 0.3080 Uiso
N1 N 0.4239(5) 0.0000 0.07823(11) 0.2057 Uani
C1 C 0.4618(5) 0.0000 0.02029(15) 0.2377 Uani
C2 C 0.4268(7) -0.0000 0.03955(13) 0.2637 Uani
H2 H 0.3765 0.0000 0.0396 0.3170 Uiso
C3 C 0.4636(5) -0.0000 0.05926(13) 0.1970 Uani
C4 C 0.4620(6) 0.0000 0.09717(14) 0.1793 Uani
C5 C 0.4189(9) -0.0000 0.11890(17) 0.1697 Uani
C6 C 0.3684(10) -0.0503(14) 0.1233(2) 0.1990 Uani
H3 H 0.3535 -0.0837 0.1127 0.2380 Uiso
C7 C 0.3389(10) -0.0493(9) 0.1453(2) 0.1527 Uani
H4 H 0.3063 -0.0854 0.1493 0.1830 Uiso
C8 C 0.3559(8) -0.0000 0.16005(17) 0.1733 Uani
C9 C 0.3223(6) -0.0000 0.18396(13) 0.1393 Uani
C10 C 0.3086(4) 0.0654(4) 0.19455(10) 0.1437 Uani
H5 H 0.3159 0.1086 0.1870 0.1730 Uiso
C11 C 0.2838(4) 0.0666(4) 0.21656(10) 0.1357 Uani
C12 C 0.2699(4) -0.0000 0.22720(16) 0.1303 Uani
H6 H 0.2512 -0.0000 0.2416 0.1560 Uiso
C13 C 0.2714(4) 0.1351(4) 0.22915(12) 0.1293 Uani
O1B O 0.5729(7) 0.0000 0.0000 0.3253 Uani
O2B O 0.7046(2) -0.1942(3) 0.21978(7) 0.1490 Uani
O3B O 0.7632(3) -0.1306(2) 0.24736(7) 0.1497 Uani
N1B N 0.5761(5) 0.0000 0.07823(11) 0.2057 Uani
C1B C 0.5382(5) 0.0000 0.02029(15) 0.2377 Uani
C2B C 0.5732(7) -0.0000 0.03955(13) 0.2637 Uani
H2B H 0.6235 0.0000 0.0396 0.3170 Uiso
C3B C 0.5364(5) -0.0000 0.05926(13) 0.1970 Uani
C4B C 0.5380(6) 0.0000 0.09717(14) 0.1793 Uani
C5B C 0.5811(9) -0.0000 0.11890(17) 0.1697 Uani
C6B C 0.6316(10) 0.0503(14) 0.1233(2) 0.1990 Uani
H3B H 0.6465 0.0837 0.1127 0.2380 Uiso
C7B C 0.6611(10) 0.0493(9) 0.1453(2) 0.1527 Uani
H4B H 0.6937 0.0854 0.1493 0.1830 Uiso
C8B C 0.6441(8) -0.0000 0.16005(17) 0.1733 Uani
C9B C 0.6777(6) -0.0000 0.18396(13) 0.1393 Uani
C10B C 0.6914(4) -0.0654(4) 0.19455(10) 0.1437 Uani
H5B H 0.6841 -0.1086 0.1870 0.1730 Uiso
C11B C 0.7162(4) -0.0666(4) 0.21656(10) 0.1357 Uani
C12B C 0.7301(4) -0.0000 0.22720(16) 0.1303 Uani
H6B H 0.7488 -0.0000 0.2416 0.1560 Uiso
C13B C 0.7286(4) -0.1351(4) 0.22915(12) 0.1293 Uani
O2D O 0.2954(2) -0.1942(3) -0.21978(7) 0.1490 Uani
O3D O 0.2368(3) -0.1306(2) -0.24736(7) 0.1497 Uani
N1D N 0.4239(5) 0.0000 -0.07823(11) 0.2057 Uani
C1D C 0.4618(5) 0.0000 -0.02029(15) 0.2377 Uani
C2D C 0.4268(7) 0.0000 -0.03955(13) 0.2637 Uani
H2D H 0.3765 0.0000 -0.0396 0.3170 Uiso
C3D C 0.4636(5) 0.0000 -0.05926(13) 0.1970 Uani
C4D C 0.4620(6) 0.0000 -0.09717(14) 0.1793 Uani
C5D C 0.4189(9) 0.0000 -0.11890(17) 0.1697 Uani
C6D C 0.3684(10) 0.0503(14) -0.1233(2) 0.1990 Uani
H3D H 0.3535 0.0837 -0.1127 0.2380 Uiso
C7D C 0.3389(10) 0.0493(9) -0.1453(2) 0.1527 Uani
H4D H 0.3063 0.0854 -0.1493 0.1830 Uiso
C8D C 0.3559(8) 0.0000 -0.16005(17) 0.1733 Uani
C9D C 0.3223(6) 0.0000 -0.18396(13) 0.1393 Uani
C10D C 0.3086(4) -0.0654(4) -0.19455(10) 0.1437 Uani
H5D H 0.3159 -0.1086 -0.1870 0.1730 Uiso
C11D C 0.2838(4) -0.0666(4) -0.21656(10) 0.1357 Uani
C12D C 0.2699(4) 0.0000 -0.22720(16) 0.1303 Uani
H6D H 0.2512 0.0000 -0.2416 0.1560 Uiso
C13D C 0.2714(4) -0.1351(4) -0.22915(12) 0.1293 Uani
O2E O 0.7046(2) 0.1942(3) -0.21978(7) 0.1490 Uani
O3E O 0.7632(3) 0.1306(2) -0.24736(7) 0.1497 Uani
N1E N 0.5761(5) 0.0000 -0.07823(11) 0.2057 Uani
C1E C 0.5382(5) 0.0000 -0.02029(15) 0.2377 Uani
C2E C 0.5732(7) 0.0000 -0.03955(13) 0.2637 Uani
H2E H 0.6235 0.0000 -0.0396 0.3170 Uiso
C3E C 0.5364(5) 0.0000 -0.05926(13) 0.1970 Uani
C4E C 0.5380(6) 0.0000 -0.09717(14) 0.1793 Uani
C5E C 0.5811(9) 0.0000 -0.11890(17) 0.1697 Uani
C6E C 0.6316(10) -0.0503(14) -0.1233(2) 0.1990 Uani
H3E H 0.6465 -0.0837 -0.1127 0.2380 Uiso
C7E C 0.6611(10) -0.0493(9) -0.1453(2) 0.1527 Uani
H4E H 0.6937 -0.0854 -0.1493 0.1830 Uiso
C8E C 0.6441(8) 0.0000 -0.16005(17) 0.1733 Uani
C9E C 0.6777(6) 0.0000 -0.18396(13) 0.1393 Uani
C10E C 0.6914(4) 0.0654(4) -0.19455(10) 0.1437 Uani
H5E H 0.6841 0.1086 -0.1870 0.1730 Uiso
C11E C 0.7162(4) 0.0666(4) -0.21656(10) 0.1357 Uani
C12E C 0.7301(4) 0.0000 -0.22720(16) 0.1303 Uani
H6E H 0.7488 0.0000 -0.2416 0.1560 Uiso
C13E C 0.7286(4) 0.1351(4) -0.22915(12) 0.1293 Uani
O2P O 0.7046(2) -0.1942(3) -0.21978(7) 0.1490 Uani
O3P O 0.7632(3) -0.1306(2) -0.24736(7) 0.1497 Uani
C6P C 0.6316(10) 0.0503(14) -0.1233(2) 0.1990 Uani
H3P H 0.6465 0.0837 -0.1127 0.2380 Uiso
C7P C 0.6611(10) 0.0493(9) -0.1453(2) 0.1527 Uani
H4P H 0.6937 0.0854 -0.1493 0.1830 Uiso
C10P C 0.6914(4) -0.0654(4) -0.19455(10) 0.1437 Uani
H5P H 0.6841 -0.1086 -0.1870 0.1730 Uiso
C11P C 0.7162(4) -0.0666(4) -0.21656(10) 0.1357 Uani
C13P C 0.7286(4) -0.1351(4) -0.22915(12) 0.1293 Uani
O2R O 0.2954(2) 0.1942(3) -0.21978(7) 0.1490 Uani
O3R O 0.2368(3) 0.1306(2) -0.24736(7) 0.1497 Uani
C6R C 0.3684(10) -0.0503(14) -0.1233(2) 0.1990 Uani
H3R H 0.3535 -0.0837 -0.1127 0.2380 Uiso
C7R C 0.3389(10) -0.0493(9) -0.1453(2) 0.1527 Uani
H4R H 0.3063 -0.0854 -0.1493 0.1830 Uiso
C10R C 0.3086(4) 0.0654(4) -0.19455(10) 0.1437 Uani
H5R H 0.3159 0.1086 -0.1870 0.1730 Uiso
C11R C 0.2838(4) 0.0666(4) -0.21656(10) 0.1357 Uani
C13R C 0.2714(4) 0.1351(4) -0.22915(12) 0.1293 Uani
O2T O 0.7046(2) 0.1942(3) 0.21978(7) 0.1490 Uani
O3T O 0.7632(3) 0.1306(2) 0.24736(7) 0.1497 Uani
C6T C 0.6316(10) -0.0503(14) 0.1233(2) 0.1990 Uani
H3T H 0.6465 -0.0837 0.1127 0.2380 Uiso
C7T C 0.6611(10) -0.0493(9) 0.1453(2) 0.1527 Uani
H4T H 0.6937 -0.0854 0.1493 0.1830 Uiso
C10T C 0.6914(4) 0.0654(4) 0.19455(10) 0.1437 Uani
H5T H 0.6841 0.1086 0.1870 0.1730 Uiso
C11T C 0.7162(4) 0.0666(4) 0.21656(10) 0.1357 Uani
C13T C 0.7286(4) 0.1351(4) 0.22915(12) 0.1293 Uani
O2U O 0.2954(2) -0.1942(3) 0.21978(7) 0.1490 Uani
O3U O 0.2368(3) -0.1306(2) 0.24736(7) 0.1497 Uani
C6U C 0.3684(10) 0.0503(14) 0.1233(2) 0.1990 Uani
H3U H 0.3535 0.0837 0.1127 0.2380 Uiso
C7U C 0.3389(10) 0.0493(9) 0.1453(2) 0.1527 Uani
H4U H 0.3063 0.0854 0.1493 0.1830 Uiso
C10U C 0.3086(4) -0.0654(4) 0.19455(10) 0.1437 Uani
H5U H 0.3159 -0.1086 0.1870 0.1730 Uiso
C11U C 0.2838(4) -0.0666(4) 0.21656(10) 0.1357 Uani
C13U C 0.2714(4) -0.1351(4) 0.22915(12) 0.1293 Uani
H1W H 0.3997 0.3485 0.2078 0.3080 Uiso
Cu1C Cu 0.28583(5) -0.28583(5) 0.23409(2) 0.1303 Uani
O4C O 0.3458(3) -0.3458(3) 0.20945(11) 0.2057 Uani
H1C H 0.3997 -0.3485 0.2078 0.3080 Uiso
H1U H 0.3485 -0.3997 0.2078 0.3080 Uiso
Cu1D Cu 0.28583(5) -0.28583(5) -0.23409(2) 0.1303 Uani
O4D O 0.3458(3) -0.3458(3) -0.20945(11) 0.2057 Uani
H1D H 0.3485 -0.3997 -0.2078 0.3080 Uiso
H1Q H 0.3997 -0.3485 -0.2078 0.3080 Uiso
Cu1O Cu 0.21417(5) 0.21417(5) 0.26591(2) 0.1303 Uani
O4O O 0.1542(3) 0.1542(3) 0.29055(11) 0.2057 Uani
H1O H 0.1003 0.1515 0.2922 0.3080 Uiso
H1X H 0.1515 0.1003 0.2922 0.3080 Uiso
Cu1A Cu 0.71417(5) 0.28583(5) 0.23409(2) 0.1303 Uani
Cu1B Cu 0.71417(5) -0.28583(5) 0.23409(2) 0.1303 Uani
Cu1E Cu 0.71417(5) 0.28583(5) -0.23409(2) 0.1303 Uani
Cu1F Cu 0.28583(5) 0.28583(5) -0.23409(2) 0.1303 Uani
Cu1G Cu 0.71417(5) -0.28583(5) -0.23409(2) 0.1303 Uani
Cu1H Cu 0.78583(5) -0.21417(5) -0.26591(2) 0.1303 Uani
Cu1I Cu 0.21417(5) -0.21417(5) -0.26591(2) 0.1303 Uani
Cu1J Cu 0.21417(5) 0.21417(5) -0.26591(2) 0.1303 Uani
Cu1K Cu 0.78583(5) 0.21417(5) -0.26591(2) 0.1303 Uani
Cu1L Cu 0.78583(5) 0.21417(5) 0.26591(2) 0.1303 Uani
Cu1M Cu 0.21417(5) -0.21417(5) 0.26591(2) 0.1303 Uani
Cu1N Cu 0.78583(5) -0.21417(5) 0.26591(2) 0.1303 Uani
O2C O 0.1942(3) -0.2954(2) 0.21978(7) 0.1490 Uani
O2O O 0.3058(3) 0.2046(2) 0.28022(7) 0.1490 Uani
O2Q O 0.1942(3) -0.2954(2) -0.21978(7) 0.1490 Uani
O2W O 0.1942(3) 0.2954(2) 0.21978(7) 0.1490 Uani
O2X O 0.2046(2) 0.3058(3) 0.28022(7) 0.1490 Uani
O3I O 0.3694(2) -0.2632(3) -0.25264(7) 0.1497 Uani
O3M O 0.2632(3) -0.3694(2) 0.25264(7) 0.1497 Uani
O3O O 0.3694(2) 0.2632(3) 0.25264(7) 0.1497 Uani
O3W O 0.1306(2) 0.2368(3) 0.24736(7) 0.1497 Uani
O3X O 0.2632(3) 0.3694(2) 0.25264(7) 0.1497 Uani
O3AA O 0.3694(2) -0.2632(3) 0.25264(7) 0.1497 Uani
O3BA O 0.2632(3) -0.3694(2) -0.25264(7) 0.1497 Uani
loop_
_atom_site_aniso_label
_atom_site_aniso_U_11
_atom_site_aniso_U_22
_atom_site_aniso_U_33
_atom_site_aniso_U_23
_atom_site_aniso_U_13
_atom_site_aniso_U_12
Cu1 0.1544(9) 0.1544(9) 0.0821(9) 0.0152(4) 0.0152(4) 0.0046(7)
O1 0.194(10) 0.72(4) 0.062(6) 0.000 0.000 0.000
O2 0.203(5) 0.152(4) 0.092(3) 0.011(3) 0.020(3) -0.003(3)
O3 0.198(4) 0.169(4) 0.082(3) 0.006(3) 0.039(3) 0.003(3)
O4 0.252(5) 0.252(5) 0.113(5) 0.035(4) 0.035(4) -0.017(7)
N1 0.216(9) 0.345(13) 0.056(4) 0.000 0.006(5) 0.000
C1 0.141(7) 0.51(2) 0.062(5) 0.000 -0.012(5) 0.000
C2 0.189(11) 0.55(3) 0.052(6) 0.000 0.007(6) 0.000
C3 0.158(8) 0.385(17) 0.048(4) 0.000 0.006(4) 0.000
C4 0.224(12) 0.241(11) 0.073(5) 0.000 0.016(6) 0.000
C5 0.205(13) 0.243(14) 0.061(7) 0.000 0.015(7) 0.000
C6 0.222(18) 0.33(3) 0.045(8) -0.008(10) -0.008(10) -0.009(16)
C7 0.198(16) 0.158(11) 0.102(11) -0.022(9) 0.020(10) -0.006(11)
C8 0.248(13) 0.188(11) 0.084(7) 0.000 0.029(8) 0.000
C9 0.180(8) 0.166(8) 0.072(5) 0.000 0.013(5) 0.000
C10 0.193(6) 0.149(5) 0.089(4) 0.002(4) 0.009(4) 0.006(4)
C11 0.173(6) 0.149(6) 0.085(4) 0.004(4) 0.010(4) 0.003(4)
C12 0.133(7) 0.156(8) 0.102(6) 0.000 0.009(5) 0.000
C13 0.173(6) 0.111(4) 0.104(5) -0.007(4) -0.004(4) 0.017(4)
O1B 0.194 0.72 0.062 0 0 0
O2B 0.203 0.152 0.092 -0.011 -0.02 -0.003
O3B 0.198 0.169 0.082 -0.006 -0.039 0.003
N1B 0.216 0.345 0.056 0 -0.006 0
C1B 0.141 0.51 0.062 0 0.012 0
C2B 0.189 0.55 0.052 0 -0.007 0
C3B 0.158 0.385 0.048 0 -0.006 0
C4B 0.224 0.241 0.073 0 -0.016 0
C5B 0.205 0.243 0.061 0 -0.015 0
C6B 0.222 0.33 0.045 0.008 0.008 -0.009
C7B 0.198 0.158 0.102 0.022 -0.02 -0.006
C8B 0.248 0.188 0.084 0 -0.029 0
C9B 0.18 0.166 0.072 0 -0.013 0
C10B 0.193 0.149 0.089 -0.002 -0.009 0.006
C11B 0.173 0.149 0.085 -0.004 -0.01 0.003
C12B 0.133 0.156 0.102 0 -0.009 0
C13B 0.173 0.111 0.104 0.007 0.004 0.017
O2D 0.203 0.152 0.092 0.011 -0.02 0.003
O3D 0.198 0.169 0.082 0.006 -0.039 -0.003
N1D 0.216 0.345 0.056 0 -0.006 0
C1D 0.141 0.51 0.062 0 0.012 0
C2D 0.189 0.55 0.052 0 -0.007 0
C3D 0.158 0.385 0.048 0 -0.006 0
C4D 0.224 0.241 0.073 0 -0.016 0
C5D 0.205 0.243 0.061 0 -0.015 0
C6D 0.222 0.33 0.045 -0.008 0.008 0.009
C7D 0.198 0.158 0.102 -0.022 -0.02 0.006
C8D 0.248 0.188 0.084 0 -0.029 0
C9D 0.18 0.166 0.072 0 -0.013 0
C10D 0.193 0.149 0.089 0.002 -0.009 -0.006
C11D 0.173 0.149 0.085 0.004 -0.01 -0.003
C12D 0.133 0.156 0.102 0 -0.009 0
C13D 0.173 0.111 0.104 -0.007 0.004 -0.017
O2E 0.203 0.152 0.092 -0.011 0.02 0.003
O3E 0.198 0.169 0.082 -0.006 0.039 -0.003
N1E 0.216 0.345 0.056 0 0.006 0
C1E 0.141 0.51 0.062 0 -0.012 0
C2E 0.189 0.55 0.052 0 0.007 0
C3E 0.158 0.385 0.048 0 0.006 0
C4E 0.224 0.241 0.073 0 0.016 0
C5E 0.205 0.243 0.061 0 0.015 0
C6E 0.222 0.33 0.045 0.008 -0.008 0.009
C7E 0.198 0.158 0.102 0.022 0.02 0.006
C8E 0.248 0.188 0.084 0 0.029 0
C9E 0.18 0.166 0.072 0 0.013 0
C10E 0.193 0.149 0.089 -0.002 0.009 -0.006
C11E 0.173 0.149 0.085 -0.004 0.01 -0.003
C12E 0.133 0.156 0.102 0 0.009 0
C13E 0.173 0.111 0.104 0.007 -0.004 -0.017
O2P 0.203 0.152 0.092 0.011 0.02 -0.003
O3P 0.198 0.169 0.082 0.006 0.039 0.003
C6P 0.222 0.33 0.045 -0.008 -0.008 -0.009
C7P 0.198 0.158 0.102 -0.022 0.02 -0.006
C10P 0.193 0.149 0.089 0.002 0.009 0.006
C11P 0.173 0.149 0.085 0.004 0.01 0.003
C13P 0.173 0.111 0.104 -0.007 -0.004 0.017
O2R 0.203 0.152 0.092 -0.011 -0.02 -0.003
O3R 0.198 0.169 0.082 -0.006 -0.039 0.003
C6R 0.222 0.33 0.045 0.008 0.008 -0.009
C7R 0.198 0.158 0.102 0.022 -0.02 -0.006
C10R 0.193 0.149 0.089 -0.002 -0.009 0.006
C11R 0.173 0.149 0.085 -0.004 -0.01 0.003
C13R 0.173 0.111 0.104 0.007 0.004 0.017
O2T 0.203 0.152 0.092 0.011 -0.02 0.003
O3T 0.198 0.169 0.082 0.006 -0.039 -0.003
C6T 0.222 0.33 0.045 -0.008 0.008 0.009
C7T 0.198 0.158 0.102 -0.022 -0.02 0.006
C10T 0.193 0.149 0.089 0.002 -0.009 -0.006
C11T 0.173 0.149 0.085 0.004 -0.01 -0.003
C13T 0.173 0.111 0.104 -0.007 0.004 -0.017
O2U 0.203 0.152 0.092 -0.011 0.02 0.003
O3U 0.198 0.169 0.082 -0.006 0.039 -0.003
C6U 0.222 0.33 0.045 0.008 -0.008 0.009
C7U 0.198 0.158 0.102 0.022 0.02 0.006
C10U 0.193 0.149 0.089 -0.002 0.009 -0.006
C11U 0.173 0.149 0.085 -0.004 0.01 -0.003
C13U 0.173 0.111 0.104 0.007 -0.004 -0.017
Cu1C 0.1544 0.1544 0.0821 -0.0152 0.0152 -0.0046
O4C 0.252 0.252 0.113 -0.035 0.035 0.017
Cu1D 0.1544 0.1544 0.0821 0.0152 -0.0152 -0.0046
O4D 0.252 0.252 0.113 0.035 -0.035 0.017
Cu1O 0.1544 0.1544 0.0821 0.0152 0.0152 0.0046
O4O 0.252 0.252 0.113 0.035 0.035 -0.017
Cu1A 0.1544 0.1544 0.0821 0.0152 -0.0152 -0.0046
Cu1B 0.1544 0.1544 0.0821 -0.0152 -0.0152 0.0046
Cu1E 0.1544 0.1544 0.0821 -0.0152 0.0152 -0.0046
Cu1F 0.1544 0.1544 0.0821 -0.0152 -0.0152 0.0046
Cu1G 0.1544 0.1544 0.0821 0.0152 0.0152 0.0046
Cu1H 0.1544 0.1544 0.0821 0.0152 0.0152 0.0046
Cu1I 0.1544 0.1544 0.0821 0.0152 -0.0152 -0.0046
Cu1J 0.1544 0.1544 0.0821 -0.0152 -0.0152 0.0046
Cu1K 0.1544 0.1544 0.0821 -0.0152 0.0152 -0.0046
Cu1L 0.1544 0.1544 0.0821 0.0152 -0.0152 -0.0046
Cu1M 0.1544 0.1544 0.0821 -0.0152 0.0152 -0.0046
Cu1N 0.1544 0.1544 0.0821 -0.0152 -0.0152 0.0046
O2C 0.152 0.203 0.092 -0.02 0.011 0.003
O2O 0.152 0.203 0.092 0.02 0.011 -0.003
O2Q 0.152 0.203 0.092 0.02 -0.011 0.003
O2W 0.152 0.203 0.092 0.02 0.011 -0.003
O2X 0.203 0.152 0.092 0.011 0.02 -0.003
O3I 0.169 0.198 0.082 0.039 -0.006 -0.003
O3M 0.198 0.169 0.082 -0.006 0.039 -0.003
O3O 0.169 0.198 0.082 0.039 0.006 0.003
O3W 0.169 0.198 0.082 0.039 0.006 0.003
O3X 0.198 0.169 0.082 0.006 0.039 0.003
O3AA 0.169 0.198 0.082 -0.039 0.006 -0.003
O3BA 0.198 0.169 0.082 0.006 -0.039 -0.003
loop_
_geom_bond_atom_site_label_1
_geom_bond_atom_site_label_2
_geom_bond_site_symmetry_1
_geom_bond_site_symmetry_2
Cu1 O2 1_555 1_555
O1 C1 1_555 1_555
O2 C13 1_555 1_555
O3 C13 1_555 1_555
O4 Cu1 1_555 1_555
H1 O4 1_555 1_555
N1 C3 1_555 1_555
C1 C2 1_555 1_555
C2 H2 1_555 1_555
C3 C2 1_555 1_555
C4 N1 1_555 1_555
C5 C4 1_555 1_555
C6 C5 1_555 1_555
H3 C6 1_555 1_555
C7 C6 1_555 1_555
H4 C7 1_555 1_555
C8 C7 1_555 1_555
C9 C8 1_555 1_555
C10 C9 1_555 1_555
H5 C10 1_555 1_555
C11 C10 1_555 1_555
C12 C11 1_555 1_555
H6 C12 1_555 1_555
C13 C11 1_555 1_555
O1B C1B 1_555 1_555
O2B C13B 1_555 1_555
O3B C13B 1_555 1_555
N1B C3B 1_555 1_555
C1B C1 1_555 1_555
C2B C1B 1_555 1_555
H2B C2B 1_555 1_555
C3B C3 1_555 1_555
C4B C4 1_555 1_555
C5B C4B 1_555 1_555
C6B C5B 1_555 1_555
H3B C6B 1_555 1_555
C7B C6B 1_555 1_555
H4B C7B 1_555 1_555
C8B C7B 1_555 1_555
C9B C8B 1_555 1_555
C10B C9B 1_555 1_555
H5B C10B 1_555 1_555
C11B C10B 1_555 1_555
C12B C11B 1_555 1_555
H6B C12B 1_555 1_555
C13B C11B 1_555 1_555
O2D C13D 1_555 1_555
O3D C13D 1_555 1_555
N1D C3D 1_555 1_555
C1D O1 1_555 1_555
C2D C1D 1_555 1_555
H2D C2D 1_555 1_555
C3D C2D 1_555 1_555
C4D N1D 1_555 1_555
C5D C4D 1_555 1_555
C6D C5D 1_555 1_555
H3D C6D 1_555 1_555
C7D C6D 1_555 1_555
H4D C7D 1_555 1_555
C8D C7D 1_555 1_555
C9D C8D 1_555 1_555
C10D C9D 1_555 1_555
H5D C10D 1_555 1_555
C11D C10D 1_555 1_555
C12D C11D 1_555 1_555
H6D C12D 1_555 1_555
C13D C11D 1_555 1_555
O2E C13E 1_555 1_555
O3E C13E 1_555 1_555
N1E C3E 1_555 1_555
C1E O1B 1_555 1_555
C2E C1E 1_555 1_555
H2E C2E 1_555 1_555
C3E C3D 1_555 1_555
C4E C4D 1_555 1_555
C5E C4E 1_555 1_555
C6E C5E 1_555 1_555
H3E C6E 1_555 1_555
C7E C6E 1_555 1_555
H4E C7E 1_555 1_555
C8E C7E 1_555 1_555
C9E C8E 1_555 1_555
C10E C9E 1_555 1_555
H5E C10E 1_555 1_555
C11E C10E 1_555 1_555
C12E C11E 1_555 1_555
H6E C12E 1_555 1_555
C13E C11E 1_555 1_555
O2P C13P 1_555 1_555
O3P C13P 1_555 1_555
C6P C5E 1_555 1_555
H3P C6P 1_555 1_555
C7P C8E 1_555 1_555
H4P C7P 1_555 1_555
C10P C9E 1_555 1_555
H5P C10P 1_555 1_555
C11P C12E 1_555 1_555
C13P C11P 1_555 1_555
O2R C13R 1_555 1_555
O3R C13R 1_555 1_555
C6R C5D 1_555 1_555
H3R C6R 1_555 1_555
C7R C8D 1_555 1_555
H4R C7R 1_555 1_555
C10R C9D 1_555 1_555
H5R C10R 1_555 1_555
C11R C12D 1_555 1_555
C13R C11R 1_555 1_555
O2T C13T 1_555 1_555
O3T C13T 1_555 1_555
C6T C5B 1_555 1_555
H3T C6T 1_555 1_555
C7T C8B 1_555 1_555
H4T C7T 1_555 1_555
C10T C9B 1_555 1_555
H5T C10T 1_555 1_555
C11T C12B 1_555 1_555
C13T C11T 1_555 1_555
O2U C13U 1_555 1_555
O3U C13U 1_555 1_555
C6U C5 1_555 1_555
H3U C6U 1_555 1_555
C7U C8 1_555 1_555
H4U C7U 1_555 1_555
C10U C9 1_555 1_555
H5U C10U 1_555 1_555
C11U C12 1_555 1_555
C13U C11U 1_555 1_555
H1W O4 1_555 1_555
Cu1C O2U 1_555 1_555
O4C Cu1C 1_555 1_555
H1C O4C 1_555 1_555
H1U O4C 1_555 1_555
Cu1D O2D 1_555 1_555
O4D Cu1D 1_555 1_555
H1D O4D 1_555 1_555
H1Q O4D 1_555 1_555
Cu1O Cu1 1_555 1_555
O4O Cu1O 1_555 1_555
H1O O4O 1_555 1_555
H1X O4O 1_555 1_555
Cu1A O2T 1_555 1_555
Cu1B O2B 1_555 1_555
Cu1E O2E 1_555 1_555
Cu1F O2R 1_555 1_555
Cu1G O2P 1_555 1_555
Cu1H O3P 1_555 1_555
Cu1I O3D 1_555 1_555
Cu1J O3R 1_555 1_555
Cu1K O3E 1_555 1_555
Cu1L O3T 1_555 1_555
Cu1M O3U 1_555 1_555
Cu1N O3B 1_555 1_555
O2C Cu1C 1_555 1_555
O2O Cu1O 1_555 1_555
O2Q Cu1D 1_555 1_555
O2W Cu1 1_555 1_555
O2X Cu1O 1_555 1_555
O3I Cu1D 1_555 1_555
O3M Cu1C 1_555 1_555
O3O Cu1 1_555 1_555
O3W Cu1O 1_555 1_555
O3X Cu1 1_555 1_555
O3AA Cu1C 1_555 1_555
O3BA Cu1D 1_555 1_555
O3 Cu1O 1_555 1_555
N1B C4B 1_555 1_555
C2B C3B 1_555 1_555
C1D C1E 1_555 1_555
N1E C4E 1_555 1_555
C2E C3E 1_555 1_555
C6P C7P 1_555 1_555
C10P C11P 1_555 1_555
C6R C7R 1_555 1_555
C10R C11R 1_555 1_555
C6T C7T 1_555 1_555
C10T C11T 1_555 1_555
C6U C7U 1_555 1_555
C10U C11U 1_555 1_555
Cu1C Cu1M 1_555 1_555
Cu1D Cu1I 1_555 1_555
Cu1A Cu1L 1_555 1_555
Cu1B Cu1N 1_555 1_555
Cu1E Cu1K 1_555 1_555
Cu1F Cu1J 1_555 1_555
Cu1G Cu1H 1_555 1_555

#END
