
#######################################################################
#
#                 Cambridge Crystallographic Data Centre
#                                CCDC 
#
#######################################################################
#
# If this CIF has been generated from an entry in the Cambridge 
# Structural Database, then it will include bibliographic, chemical, 
# crystal, experimental, refinement or atomic coordinate data resulting 
# from the CCDC's data processing and validation procedures.
#
#######################################################################

data_LAPZEK
_chemical_formula_moiety         '(C66 H38 Cu4 N4 O20)n'
_symmetry_cell_setting           tetragonal
_symmetry_space_group_name_H-M   'I 4/m m m'
_symmetry_Int_Tables_number      139
_space_group_name_Hall           '-I 4 2'
loop_
_symmetry_equiv_pos_site_id
_symmetry_equiv_pos_as_xyz
1 x,y,z
2 -y,x,z
3 -x,-y,z
4 y,-x,z
5 x,-y,-z
6 -x,y,-z
7 y,x,-z
8 -y,-x,-z
9 1/2+x,1/2+y,1/2+z
10 1/2-y,1/2+x,1/2+z
11 1/2-x,1/2-y,1/2+z
12 1/2+y,1/2-x,1/2+z
13 1/2+x,1/2-y,1/2-z
14 1/2-x,1/2+y,1/2-z
15 1/2+y,1/2+x,1/2-z
16 1/2-y,1/2-x,1/2-z
17 -x,-y,-z
18 y,-x,-z
19 x,y,-z
20 -y,x,-z
21 -x,y,z
22 x,-y,z
23 -y,-x,z
24 y,x,z
25 1/2-x,1/2-y,1/2-z
26 1/2+y,1/2-x,1/2-z
27 1/2+x,1/2+y,1/2-z
28 1/2-y,1/2+x,1/2-z
29 1/2-x,1/2+y,1/2+z
30 1/2+x,1/2-y,1/2+z
31 1/2-y,1/2-x,1/2+z
32 1/2+y,1/2+x,1/2+z
_cell_length_a                   18.6881(3)
_cell_length_b                   18.6881(3)
_cell_length_c                   50.6437(17)
_cell_angle_alpha                90
_cell_angle_beta                 90
_cell_angle_gamma                90
_cell_volume                     17687.1
loop_
_atom_site_label
_atom_site_type_symbol
_atom_site_fract_x
_atom_site_fract_y
_atom_site_fract_z
_atom_site_U_iso_or_equiv
_atom_site_thermal_displace_type
Cu1 Cu 0.71514(2) 0.28486(2) 0.73083(2) 0.0688 Uani
O1 O 0.76379(13) 0.13134(11) 0.74707(4) 0.0882 Uani
O2 O 0.70713(12) 0.18976(12) 0.71416(4) 0.0899 Uani
O3 O 0.66019(14) 0.33981(14) 0.69954(7) 0.1450 Uani
H1 H 0.6826 0.3761 0.6856 0.2170 Uiso
N1 N 0.5758(3) 0.0000 0.54741(7) 0.1394 Uani
C1 C 0.5760(6) 0.0000 0.5000 0.1530 Uani
H2 H 0.6257 0.0000 0.5000 0.1840 Uiso
C2 C 0.5379(3) 0.0000 0.52409(8) 0.1270 Uani
C3 C 0.5381(3) 0.0000 0.56953(8) 0.1179 Uani
C4 C 0.5802(4) 0.0000 0.59505(8) 0.1172 Uani
C5 C 0.6299(5) 0.0475(5) 0.60106(12) 0.1220 Uani
H3 H 0.6422 0.0822 0.5887 0.1460 Uiso
C6 C 0.6651(5) 0.0472(4) 0.62600(11) 0.1090 Uani
H4 H 0.7015 0.0800 0.6293 0.1310 Uiso
C7 C 0.6464(3) 0.0000 0.64487(8) 0.1062 Uani
C8 C 0.6758(3) 0.0000 0.67225(8) 0.0968 Uani
C9 C 0.6903(2) 0.06479(19) 0.68542(5) 0.0942 Uani
H5 H 0.6813 0.1081 0.6770 0.1130 Uiso
C10 C 0.71837(16) 0.06469(17) 0.71123(5) 0.0824 Uani
C11 C 0.7328(3) 0.0000 0.72369(8) 0.0812 Uani
H6 H 0.7524 0.0000 0.7406 0.0970 Uiso
C12 C 0.73038(18) 0.13442(18) 0.72512(6) 0.0795 Uani
O1B O 0.23621(13) -0.13134(11) 0.74707(4) 0.0882 Uani
O2B O 0.29287(12) -0.18976(12) 0.71416(4) 0.0899 Uani
N1B N 0.4242(3) 0.0000 0.54741(7) 0.1394 Uani
C1B C 0.4240(6) 0.0000 0.5000 0.1530 Uani
H2B H 0.3743 0.0000 0.5000 0.1840 Uiso
C2B C 0.4621(3) 0.0000 0.52409(8) 0.1270 Uani
C3B C 0.4619(3) 0.0000 0.56953(8) 0.1179 Uani
C4B C 0.4198(4) 0.0000 0.59505(8) 0.1172 Uani
C5B C 0.3701(5) -0.0475(5) 0.60106(12) 0.1220 Uani
H3B H 0.3578 -0.0822 0.5887 0.1460 Uiso
C6B C 0.3349(5) -0.0472(4) 0.62600(11) 0.1090 Uani
H4B H 0.2985 -0.0800 0.6293 0.1310 Uiso
C7B C 0.3536(3) 0.0000 0.64487(8) 0.1062 Uani
C8B C 0.3242(3) 0.0000 0.67225(8) 0.0968 Uani
C9B C 0.3097(2) -0.06479(19) 0.68542(5) 0.0942 Uani
H5B H 0.3187 -0.1081 0.6770 0.1130 Uiso
C10B C 0.28163(16) -0.06469(17) 0.71123(5) 0.0824 Uani
C11B C 0.2672(3) 0.0000 0.72369(8) 0.0812 Uani
H6B H 0.2476 0.0000 0.7406 0.0970 Uiso
C12B C 0.26962(18) -0.13442(18) 0.72512(6) 0.0795 Uani
O1D O 0.76379(13) -0.13134(11) 0.25293(4) 0.0882 Uani
O2D O 0.70713(12) -0.18976(12) 0.28584(4) 0.0899 Uani
N1D N 0.5758(3) 0.0000 0.45259(7) 0.1394 Uani
C2D C 0.5379(3) 0.0000 0.47591(8) 0.1270 Uani
C3D C 0.5381(3) 0.0000 0.43047(8) 0.1179 Uani
C4D C 0.5802(4) 0.0000 0.40495(8) 0.1172 Uani
C5D C 0.6299(5) -0.0475(5) 0.39894(12) 0.1220 Uani
H3D H 0.6422 -0.0822 0.4113 0.1460 Uiso
C6D C 0.6651(5) -0.0472(4) 0.37400(11) 0.1090 Uani
H4D H 0.7015 -0.0800 0.3707 0.1310 Uiso
C7D C 0.6464(3) 0.0000 0.35513(8) 0.1062 Uani
C8D C 0.6758(3) 0.0000 0.32775(8) 0.0968 Uani
C9D C 0.6903(2) -0.06479(19) 0.31458(5) 0.0942 Uani
H5D H 0.6813 -0.1081 0.3230 0.1130 Uiso
C10D C 0.71837(16) -0.06469(17) 0.28877(5) 0.0824 Uani
C11D C 0.7328(3) 0.0000 0.27631(8) 0.0812 Uani
H6D H 0.7524 0.0000 0.2594 0.0970 Uiso
C12D C 0.73038(18) -0.13442(18) 0.27488(6) 0.0795 Uani
O1E O 0.23621(13) 0.13134(11) 0.25293(4) 0.0882 Uani
O2E O 0.29287(12) 0.18976(12) 0.28584(4) 0.0899 Uani
N1E N 0.4242(3) 0.0000 0.45259(7) 0.1394 Uani
C2E C 0.4621(3) 0.0000 0.47591(8) 0.1270 Uani
C3E C 0.4619(3) 0.0000 0.43047(8) 0.1179 Uani
C4E C 0.4198(4) 0.0000 0.40495(8) 0.1172 Uani
C5E C 0.3701(5) 0.0475(5) 0.39894(12) 0.1220 Uani
H3E H 0.3578 0.0822 0.4113 0.1460 Uiso
C6E C 0.3349(5) 0.0472(4) 0.37400(11) 0.1090 Uani
H4E H 0.2985 0.0800 0.3707 0.1310 Uiso
C7E C 0.3536(3) 0.0000 0.35513(8) 0.1062 Uani
C8E C 0.3242(3) 0.0000 0.32775(8) 0.0968 Uani
C9E C 0.3097(2) 0.06479(19) 0.31458(5) 0.0942 Uani
H5E H 0.3187 0.1081 0.3230 0.1130 Uiso
C10E C 0.28163(16) 0.06469(17) 0.28877(5) 0.0824 Uani
C11E C 0.2672(3) 0.0000 0.27631(8) 0.0812 Uani
H6E H 0.2476 0.0000 0.2594 0.0970 Uiso
C12E C 0.26962(18) 0.13442(18) 0.27488(6) 0.0795 Uani
O1P O 0.23621(13) -0.13134(11) 0.25293(4) 0.0882 Uani
O2P O 0.29287(12) -0.18976(12) 0.28584(4) 0.0899 Uani
C5P C 0.3701(5) -0.0475(5) 0.39894(12) 0.1220 Uani
H3P H 0.3578 -0.0822 0.4113 0.1460 Uiso
C6P C 0.3349(5) -0.0472(4) 0.37400(11) 0.1090 Uani
H4P H 0.2985 -0.0800 0.3707 0.1310 Uiso
C9P C 0.3097(2) -0.06479(19) 0.31458(5) 0.0942 Uani
H5P H 0.3187 -0.1081 0.3230 0.1130 Uiso
C10P C 0.28163(16) -0.06469(17) 0.28877(5) 0.0824 Uani
C12P C 0.26962(18) -0.13442(18) 0.27488(6) 0.0795 Uani
O1R O 0.76379(13) 0.13134(11) 0.25293(4) 0.0882 Uani
O2R O 0.70713(12) 0.18976(12) 0.28584(4) 0.0899 Uani
C5R C 0.6299(5) 0.0475(5) 0.39894(12) 0.1220 Uani
H3R H 0.6422 0.0822 0.4113 0.1460 Uiso
C6R C 0.6651(5) 0.0472(4) 0.37400(11) 0.1090 Uani
H4R H 0.7015 0.0800 0.3707 0.1310 Uiso
C9R C 0.6903(2) 0.06479(19) 0.31458(5) 0.0942 Uani
H5R H 0.6813 0.1081 0.3230 0.1130 Uiso
C10R C 0.71837(16) 0.06469(17) 0.28877(5) 0.0824 Uani
C12R C 0.73038(18) 0.13442(18) 0.27488(6) 0.0795 Uani
O1T O 0.23621(13) 0.13134(11) 0.74707(4) 0.0882 Uani
O2T O 0.29287(12) 0.18976(12) 0.71416(4) 0.0899 Uani
C5T C 0.3701(5) 0.0475(5) 0.60106(12) 0.1220 Uani
H3T H 0.3578 0.0822 0.5887 0.1460 Uiso
C6T C 0.3349(5) 0.0472(4) 0.62600(11) 0.1090 Uani
H4T H 0.2985 0.0800 0.6293 0.1310 Uiso
C9T C 0.3097(2) 0.06479(19) 0.68542(5) 0.0942 Uani
H5T H 0.3187 0.1081 0.6770 0.1130 Uiso
C10T C 0.28163(16) 0.06469(17) 0.71123(5) 0.0824 Uani
C12T C 0.26962(18) 0.13442(18) 0.72512(6) 0.0795 Uani
O1U O 0.76379(13) -0.13134(11) 0.74707(4) 0.0882 Uani
O2U O 0.70713(12) -0.18976(12) 0.71416(4) 0.0899 Uani
C5U C 0.6299(5) -0.0475(5) 0.60106(12) 0.1220 Uani
H3U H 0.6422 -0.0822 0.5887 0.1460 Uiso
C6U C 0.6651(5) -0.0472(4) 0.62600(11) 0.1090 Uani
H4U H 0.7015 -0.0800 0.6293 0.1310 Uiso
C9U C 0.6903(2) -0.06479(19) 0.68542(5) 0.0942 Uani
H5U H 0.6813 -0.1081 0.6770 0.1130 Uiso
C10U C 0.71837(16) -0.06469(17) 0.71123(5) 0.0824 Uani
C12U C 0.73038(18) -0.13442(18) 0.72512(6) 0.0795 Uani
H1V H 0.6239 0.3174 0.6856 0.2170 Uiso
Cu1A Cu 0.71514(2) -0.28486(2) 0.73083(2) 0.0688 Uani
O3A O 0.66019(14) -0.33981(14) 0.69954(7) 0.1450 Uani
H1A H 0.6239 -0.3174 0.6856 0.2170 Uiso
H1U H 0.6826 -0.3761 0.6856 0.2170 Uiso
Cu1D Cu 0.71514(2) -0.28486(2) 0.26917(2) 0.0688 Uani
O3D O 0.66019(14) -0.33981(14) 0.30046(7) 0.1450 Uani
H1D H 0.6826 -0.3761 0.3144 0.2170 Uiso
H1S H 0.6239 -0.3174 0.3144 0.2170 Uiso
Cu1G Cu 0.71514(2) 0.28486(2) 0.26917(2) 0.0688 Uani
O3G O 0.66019(14) 0.33981(14) 0.30046(7) 0.1450 Uani
H1R H 0.6826 0.3761 0.3144 0.2170 Uiso
H1G H 0.6239 0.3174 0.3144 0.2170 Uiso
Cu1B Cu 0.28486(2) -0.28486(2) 0.73083(2) 0.0688 Uani
Cu1C Cu 0.28486(2) 0.28486(2) 0.73083(2) 0.0688 Uani
Cu1E Cu 0.28486(2) 0.28486(2) 0.26917(2) 0.0688 Uani
Cu1F Cu 0.28486(2) -0.28486(2) 0.26917(2) 0.0688 Uani
Cu1H Cu 0.21514(2) -0.21514(2) 0.23083(2) 0.0688 Uani
Cu1I Cu 0.21514(2) 0.21514(2) 0.23083(2) 0.0688 Uani
Cu1J Cu 0.78486(2) 0.21514(2) 0.23083(2) 0.0688 Uani
Cu1K Cu 0.78486(2) -0.21514(2) 0.23083(2) 0.0688 Uani
Cu1L Cu 0.21514(2) 0.21514(2) 0.76917(2) 0.0688 Uani
Cu1M Cu 0.78486(2) -0.21514(2) 0.76917(2) 0.0688 Uani
Cu1N Cu 0.78486(2) 0.21514(2) 0.76917(2) 0.0688 Uani
Cu1O Cu 0.21514(2) -0.21514(2) 0.76917(2) 0.0688 Uani
O1J O 0.73621(13) 0.36866(11) 0.24707(4) 0.0882 Uani
O1K O 0.63134(11) -0.26379(13) 0.24707(4) 0.0882 Uani
O1M O 0.73621(13) -0.36866(11) 0.75293(4) 0.0882 Uani
O1N O 0.63134(11) 0.26379(13) 0.75293(4) 0.0882 Uani
O1X O 0.73621(13) 0.36866(11) 0.75293(4) 0.0882 Uani
O1Y O 0.63134(11) -0.26379(13) 0.75293(4) 0.0882 Uani
O1BA O 0.73621(13) -0.36866(11) 0.24707(4) 0.0882 Uani
O1EA O 0.63134(11) 0.26379(13) 0.24707(4) 0.0882 Uani
O2A O 0.81024(12) -0.29287(12) 0.71416(4) 0.0899 Uani
O2G O 0.81024(12) 0.29287(12) 0.28584(4) 0.0899 Uani
O2S O 0.81024(12) -0.29287(12) 0.28584(4) 0.0899 Uani
O2V O 0.81024(12) 0.29287(12) 0.71416(4) 0.0899 Uani
loop_
_atom_site_aniso_label
_atom_site_aniso_U_11
_atom_site_aniso_U_22
_atom_site_aniso_U_33
_atom_site_aniso_U_23
_atom_site_aniso_U_13
_atom_site_aniso_U_12
Cu1 0.0747(3) 0.0747(3) 0.0569(3) 0.01604(13) -0.01604(13) -0.0056(2)
O1 0.1165(16) 0.0773(13) 0.0707(11) 0.0073(9) -0.0241(11) -0.0092(11)
O2 0.1209(17) 0.0771(12) 0.0716(11) 0.0071(10) -0.0272(10) -0.0050(11)
O3 0.179(3) 0.179(3) 0.077(2) 0.0341(14) -0.0341(14) 0.072(3)
N1 0.158(4) 0.214(5) 0.0462(18) 0.000 -0.002(2) 0.000
C1 0.167(8) 0.246(11) 0.046(3) 0.000 0.000 0.000
C2 0.146(5) 0.189(6) 0.0459(18) 0.000 0.000(2) 0.000
C3 0.159(5) 0.147(4) 0.0478(19) 0.000 -0.003(2) 0.000
C4 0.166(5) 0.144(5) 0.0416(19) 0.000 -0.007(3) 0.000
C5 0.173(8) 0.144(6) 0.049(3) 0.005(3) 0.004(4) -0.035(6)
C6 0.137(6) 0.133(5) 0.057(3) 0.013(3) -0.001(4) -0.024(5)
C7 0.153(5) 0.115(4) 0.0506(19) 0.000 -0.010(2) 0.000
C8 0.139(4) 0.096(3) 0.0554(19) 0.000 -0.012(2) 0.000
C9 0.130(3) 0.094(2) 0.0586(14) 0.0102(14) -0.0064(15) -0.002(2)
C10 0.104(2) 0.0841(19) 0.0591(13) 0.0048(13) -0.0082(13) -0.0024(15)
C11 0.103(3) 0.079(3) 0.0616(18) 0.000 -0.011(2) 0.000
C12 0.0942(19) 0.0795(18) 0.0648(14) 0.0083(13) -0.0078(13) -0.0131(15)
O1B 0.1165 0.0773 0.0707 -0.0073 0.0241 -0.0092
O2B 0.1209 0.0771 0.0716 -0.0071 0.0272 -0.005
N1B 0.158 0.214 0.0462 0 0.002 0
C1B 0.167 0.246 0.046 0 0 0
C2B 0.146 0.189 0.0459 0 0 0
C3B 0.159 0.147 0.0478 0 0.003 0
C4B 0.166 0.144 0.0416 0 0.007 0
C5B 0.173 0.144 0.049 -0.005 -0.004 -0.035
C6B 0.137 0.133 0.057 -0.013 0.001 -0.024
C7B 0.153 0.115 0.0506 0 0.01 0
C8B 0.139 0.096 0.0554 0 0.012 0
C9B 0.13 0.094 0.0586 -0.0102 0.0064 -0.002
C10B 0.104 0.0841 0.0591 -0.0048 0.0082 -0.0024
C11B 0.103 0.079 0.0616 0 0.011 0
C12B 0.0942 0.0795 0.0648 -0.0083 0.0078 -0.0131
O1D 0.1165 0.0773 0.0707 0.0073 0.0241 0.0092
O2D 0.1209 0.0771 0.0716 0.0071 0.0272 0.005
N1D 0.158 0.214 0.0462 0 0.002 0
C2D 0.146 0.189 0.0459 0 0 0
C3D 0.159 0.147 0.0478 0 0.003 0
C4D 0.166 0.144 0.0416 0 0.007 0
C5D 0.173 0.144 0.049 0.005 -0.004 0.035
C6D 0.137 0.133 0.057 0.013 0.001 0.024
C7D 0.153 0.115 0.0506 0 0.01 0
C8D 0.139 0.096 0.0554 0 0.012 0
C9D 0.13 0.094 0.0586 0.0102 0.0064 0.002
C10D 0.104 0.0841 0.0591 0.0048 0.0082 0.0024
C11D 0.103 0.079 0.0616 0 0.011 0
C12D 0.0942 0.0795 0.0648 0.0083 0.0078 0.0131
O1E 0.1165 0.0773 0.0707 -0.0073 -0.0241 0.0092
O2E 0.1209 0.0771 0.0716 -0.0071 -0.0272 0.005
N1E 0.158 0.214 0.0462 0 -0.002 0
C2E 0.146 0.189 0.0459 0 0 0
C3E 0.159 0.147 0.0478 0 -0.003 0
C4E 0.166 0.144 0.0416 0 -0.007 0
C5E 0.173 0.144 0.049 -0.005 0.004 0.035
C6E 0.137 0.133 0.057 -0.013 -0.001 0.024
C7E 0.153 0.115 0.0506 0 -0.01 0
C8E 0.139 0.096 0.0554 0 -0.012 0
C9E 0.13 0.094 0.0586 -0.0102 -0.0064 0.002
C10E 0.104 0.0841 0.0591 -0.0048 -0.0082 0.0024
C11E 0.103 0.079 0.0616 0 -0.011 0
C12E 0.0942 0.0795 0.0648 -0.0083 -0.0078 0.0131
O1P 0.1165 0.0773 0.0707 0.0073 -0.0241 -0.0092
O2P 0.1209 0.0771 0.0716 0.0071 -0.0272 -0.005
C5P 0.173 0.144 0.049 0.005 0.004 -0.035
C6P 0.137 0.133 0.057 0.013 -0.001 -0.024
C9P 0.13 0.094 0.0586 0.0102 -0.0064 -0.002
C10P 0.104 0.0841 0.0591 0.0048 -0.0082 -0.0024
C12P 0.0942 0.0795 0.0648 0.0083 -0.0078 -0.0131
O1R 0.1165 0.0773 0.0707 -0.0073 0.0241 -0.0092
O2R 0.1209 0.0771 0.0716 -0.0071 0.0272 -0.005
C5R 0.173 0.144 0.049 -0.005 -0.004 -0.035
C6R 0.137 0.133 0.057 -0.013 0.001 -0.024
C9R 0.13 0.094 0.0586 -0.0102 0.0064 -0.002
C10R 0.104 0.0841 0.0591 -0.0048 0.0082 -0.0024
C12R 0.0942 0.0795 0.0648 -0.0083 0.0078 -0.0131
O1T 0.1165 0.0773 0.0707 0.0073 0.0241 0.0092
O2T 0.1209 0.0771 0.0716 0.0071 0.0272 0.005
C5T 0.173 0.144 0.049 0.005 -0.004 0.035
C6T 0.137 0.133 0.057 0.013 0.001 0.024
C9T 0.13 0.094 0.0586 0.0102 0.0064 0.002
C10T 0.104 0.0841 0.0591 0.0048 0.0082 0.0024
C12T 0.0942 0.0795 0.0648 0.0083 0.0078 0.0131
O1U 0.1165 0.0773 0.0707 -0.0073 -0.0241 0.0092
O2U 0.1209 0.0771 0.0716 -0.0071 -0.0272 0.005
C5U 0.173 0.144 0.049 -0.005 0.004 0.035
C6U 0.137 0.133 0.057 -0.013 -0.001 0.024
C9U 0.13 0.094 0.0586 -0.0102 -0.0064 0.002
C10U 0.104 0.0841 0.0591 -0.0048 -0.0082 0.0024
C12U 0.0942 0.0795 0.0648 -0.0083 -0.0078 0.0131
Cu1A 0.0747 0.0747 0.0569 -0.01604 -0.01604 0.0056
O3A 0.179 0.179 0.077 -0.0341 -0.0341 -0.072
Cu1D 0.0747 0.0747 0.0569 0.01604 0.01604 0.0056
O3D 0.179 0.179 0.077 0.0341 0.0341 -0.072
Cu1G 0.0747 0.0747 0.0569 -0.01604 0.01604 -0.0056
O3G 0.179 0.179 0.077 -0.0341 0.0341 0.072
Cu1B 0.0747 0.0747 0.0569 -0.01604 0.01604 -0.0056
Cu1C 0.0747 0.0747 0.0569 0.01604 0.01604 0.0056
Cu1E 0.0747 0.0747 0.0569 -0.01604 -0.01604 0.0056
Cu1F 0.0747 0.0747 0.0569 0.01604 -0.01604 -0.0056
Cu1H 0.0747 0.0747 0.0569 0.01604 -0.01604 -0.0056
Cu1I 0.0747 0.0747 0.0569 -0.01604 -0.01604 0.0056
Cu1J 0.0747 0.0747 0.0569 -0.01604 0.01604 -0.0056
Cu1K 0.0747 0.0747 0.0569 0.01604 0.01604 0.0056
Cu1L 0.0747 0.0747 0.0569 0.01604 0.01604 0.0056
Cu1M 0.0747 0.0747 0.0569 -0.01604 -0.01604 0.0056
Cu1N 0.0747 0.0747 0.0569 0.01604 -0.01604 -0.0056
Cu1O 0.0747 0.0747 0.0569 -0.01604 0.01604 -0.0056
O1J 0.1165 0.0773 0.0707 -0.0073 0.0241 -0.0092
O1K 0.0773 0.1165 0.0707 0.0241 0.0073 0.0092
O1M 0.1165 0.0773 0.0707 -0.0073 -0.0241 0.0092
O1N 0.0773 0.1165 0.0707 0.0241 -0.0073 -0.0092
O1X 0.1165 0.0773 0.0707 0.0073 -0.0241 -0.0092
O1Y 0.0773 0.1165 0.0707 -0.0241 -0.0073 0.0092
O1BA 0.1165 0.0773 0.0707 0.0073 0.0241 0.0092
O1EA 0.0773 0.1165 0.0707 -0.0241 0.0073 -0.0092
O2A 0.0771 0.1209 0.0716 -0.0272 -0.0071 0.005
O2G 0.0771 0.1209 0.0716 -0.0272 0.0071 -0.005
O2S 0.0771 0.1209 0.0716 0.0272 0.0071 0.005
O2V 0.0771 0.1209 0.0716 0.0272 -0.0071 -0.005
loop_
_geom_bond_atom_site_label_1
_geom_bond_atom_site_label_2
_geom_bond_site_symmetry_1
_geom_bond_site_symmetry_2
Cu1 O2 1_555 1_555
O1 C12 1_555 1_555
O2 C12 1_555 1_555
O3 Cu1 1_555 1_555
H1 O3 1_555 1_555
N1 C2 1_555 1_555
C1 H2 1_555 1_555
C2 C1 1_555 1_555
C3 N1 1_555 1_555
C4 C3 1_555 1_555
C5 C4 1_555 1_555
H3 C5 1_555 1_555
C6 C5 1_555 1_555
H4 C6 1_555 1_555
C7 C6 1_555 1_555
C8 C7 1_555 1_555
C9 C8 1_555 1_555
H5 C9 1_555 1_555
C10 C9 1_555 1_555
C11 C10 1_555 1_555
H6 C11 1_555 1_555
C12 C10 1_555 1_555
O1B C12B 1_555 1_555
O2B C12B 1_555 1_555
N1B C2B 1_555 1_555
C1B H2B 1_555 1_555
C2B C2 1_555 1_555
C3B C3 1_555 1_555
C4B C3B 1_555 1_555
C5B C4B 1_555 1_555
H3B C5B 1_555 1_555
C6B C5B 1_555 1_555
H4B C6B 1_555 1_555
C7B C6B 1_555 1_555
C8B C7B 1_555 1_555
C9B C8B 1_555 1_555
H5B C9B 1_555 1_555
C10B C9B 1_555 1_555
C11B C10B 1_555 1_555
H6B C11B 1_555 1_555
C12B C10B 1_555 1_555
O1D C12D 1_555 1_555
O2D C12D 1_555 1_555
N1D C2D 1_555 1_555
C2D C1 1_555 1_555
C3D N1D 1_555 1_555
C4D C3D 1_555 1_555
C5D C4D 1_555 1_555
H3D C5D 1_555 1_555
C6D C5D 1_555 1_555
H4D C6D 1_555 1_555
C7D C6D 1_555 1_555
C8D C7D 1_555 1_555
C9D C8D 1_555 1_555
H5D C9D 1_555 1_555
C10D C9D 1_555 1_555
C11D C10D 1_555 1_555
H6D C11D 1_555 1_555
C12D C10D 1_555 1_555
O1E C12E 1_555 1_555
O2E C12E 1_555 1_555
N1E C2E 1_555 1_555
C2E C1B 1_555 1_555
C3E C3D 1_555 1_555
C4E C3E 1_555 1_555
C5E C4E 1_555 1_555
H3E C5E 1_555 1_555
C6E C5E 1_555 1_555
H4E C6E 1_555 1_555
C7E C6E 1_555 1_555
C8E C7E 1_555 1_555
C9E C8E 1_555 1_555
H5E C9E 1_555 1_555
C10E C9E 1_555 1_555
C11E C10E 1_555 1_555
H6E C11E 1_555 1_555
C12E C10E 1_555 1_555
O1P C12P 1_555 1_555
O2P C12P 1_555 1_555
C5P C4E 1_555 1_555
H3P C5P 1_555 1_555
C6P C7E 1_555 1_555
H4P C6P 1_555 1_555
C9P C8E 1_555 1_555
H5P C9P 1_555 1_555
C10P C11E 1_555 1_555
C12P C10P 1_555 1_555
O1R C12R 1_555 1_555
O2R C12R 1_555 1_555
C5R C4D 1_555 1_555
H3R C5R 1_555 1_555
C6R C7D 1_555 1_555
H4R C6R 1_555 1_555
C9R C8D 1_555 1_555
H5R C9R 1_555 1_555
C10R C11D 1_555 1_555
C12R C10R 1_555 1_555
O1T C12T 1_555 1_555
O2T C12T 1_555 1_555
C5T C4B 1_555 1_555
H3T C5T 1_555 1_555
C6T C7B 1_555 1_555
H4T C6T 1_555 1_555
C9T C8B 1_555 1_555
H5T C9T 1_555 1_555
C10T C11B 1_555 1_555
C12T C10T 1_555 1_555
O1U C12U 1_555 1_555
O2U C12U 1_555 1_555
C5U C4 1_555 1_555
H3U C5U 1_555 1_555
C6U C7 1_555 1_555
H4U C6U 1_555 1_555
C9U C8 1_555 1_555
H5U C9U 1_555 1_555
C10U C11 1_555 1_555
C12U C10U 1_555 1_555
H1V O3 1_555 1_555
Cu1A O2U 1_555 1_555
O3A Cu1A 1_555 1_555
H1A O3A 1_555 1_555
H1U O3A 1_555 1_555
Cu1D O2D 1_555 1_555
O3D Cu1D 1_555 1_555
H1D O3D 1_555 1_555
H1S O3D 1_555 1_555
Cu1G O2R 1_555 1_555
O3G Cu1G 1_555 1_555
H1R O3G 1_555 1_555
H1G O3G 1_555 1_555
Cu1B O2B 1_555 1_555
Cu1C O2T 1_555 1_555
Cu1E O2E 1_555 1_555
Cu1F O2P 1_555 1_555
Cu1H O1P 1_555 1_555
Cu1I O1E 1_555 1_555
Cu1J O1R 1_555 1_555
Cu1K O1D 1_555 1_555
Cu1L O1T 1_555 1_555
Cu1M O1U 1_555 1_555
Cu1N Cu1 1_555 1_555
Cu1O O1B 1_555 1_555
O1J Cu1G 1_555 1_555
O1K Cu1D 1_555 1_555
O1M Cu1A 1_555 1_555
O1N Cu1 1_555 1_555
O1X Cu1 1_555 1_555
O1Y Cu1A 1_555 1_555
O1BA Cu1D 1_555 1_555
O1EA Cu1G 1_555 1_555
O2A Cu1A 1_555 1_555
O2G Cu1G 1_555 1_555
O2S Cu1D 1_555 1_555
O2V Cu1 1_555 1_555
O1 Cu1N 1_555 1_555
N1B C3B 1_555 1_555
C1B C2B 1_555 1_555
C2D C2E 1_555 1_555
N1E C3E 1_555 1_555
C5P C6P 1_555 1_555
C9P C10P 1_555 1_555
C5R C6R 1_555 1_555
C9R C10R 1_555 1_555
C5T C6T 1_555 1_555
C9T C10T 1_555 1_555
C5U C6U 1_555 1_555
C9U C10U 1_555 1_555
Cu1A Cu1M 1_555 1_555
Cu1D Cu1K 1_555 1_555
Cu1G Cu1J 1_555 1_555
Cu1B Cu1O 1_555 1_555
Cu1C Cu1L 1_555 1_555
Cu1E Cu1I 1_555 1_555
Cu1F Cu1H 1_555 1_555

#END
