
#######################################################################
#
#                 Cambridge Crystallographic Data Centre
#                                CCDC 
#
#######################################################################
#
# If this CIF has been generated from an entry in the Cambridge 
# Structural Database, then it will include bibliographic, chemical, 
# crystal, experimental, refinement or atomic coordinate data resulting 
# from the CCDC's data processing and validation procedures.
#
#######################################################################

data_LAQNUP
_chemical_formula_moiety         'C82 H48 Cu16 O32'
_symmetry_cell_setting           tetragonal
_symmetry_space_group_name_H-M   'I 4/m m m'
_symmetry_Int_Tables_number      139
_space_group_name_Hall           '-I 4 2'
loop_
_symmetry_equiv_pos_site_id
_symmetry_equiv_pos_as_xyz
1 x,y,z
2 -y,x,z
3 -x,-y,z
4 y,-x,z
5 x,-y,-z
6 -x,y,-z
7 y,x,-z
8 -y,-x,-z
9 1/2+x,1/2+y,1/2+z
10 1/2-y,1/2+x,1/2+z
11 1/2-x,1/2-y,1/2+z
12 1/2+y,1/2-x,1/2+z
13 1/2+x,1/2-y,1/2-z
14 1/2-x,1/2+y,1/2-z
15 1/2+y,1/2+x,1/2-z
16 1/2-y,1/2-x,1/2-z
17 -x,-y,-z
18 y,-x,-z
19 x,y,-z
20 -y,x,-z
21 -x,y,z
22 x,-y,z
23 -y,-x,z
24 y,x,z
25 1/2-x,1/2-y,1/2-z
26 1/2+y,1/2-x,1/2-z
27 1/2+x,1/2+y,1/2-z
28 1/2-y,1/2+x,1/2-z
29 1/2-x,1/2+y,1/2+z
30 1/2+x,1/2-y,1/2+z
31 1/2-y,1/2-x,1/2+z
32 1/2+y,1/2+x,1/2+z
_cell_length_a                   18.5802(4)
_cell_length_b                   18.5802(4)
_cell_length_c                   45.903(3)
_cell_angle_alpha                90
_cell_angle_beta                 90
_cell_angle_gamma                90
_cell_volume                     15846.8
loop_
_atom_site_label
_atom_site_type_symbol
_atom_site_fract_x
_atom_site_fract_y
_atom_site_fract_z
_atom_site_U_iso_or_equiv
_atom_site_thermal_displace_type
Cu1 Cu 0.21546(2) 0.21546(2) 0.22885(2) 0.0556 Uani
C1 C 0.36586(17) 0.23102(18) 0.22327(7) 0.0672 Uani
O1 O 0.31040(12) 0.20720(13) 0.21121(5) 0.0754 Uani
O2 O 0.36897(11) 0.26400(13) 0.24734(5) 0.0745 Uani
C2 C 0.43546(16) 0.21930(18) 0.20773(6) 0.0672 Uani
C3 C 0.5000 0.1750(3) 0.16572(9) 0.0768 Uani
C4 C 0.5000 0.1434(3) 0.13556(10) 0.0817 Uani
C5 C 0.5000 0.2344(3) 0.22170(10) 0.0720 Uani
H1 H 0.5000 0.2546 0.2402 0.0860 Uiso
C6 C 0.5000 0.0378(4) 0.0000 0.0887 Uani
C7 C 0.5000 0.0788(4) 0.08061(10) 0.0880 Uani
C8 C 0.43527(18) 0.1908(2) 0.18009(6) 0.0761 Uani
H2 H 0.3917 0.1819 0.1708 0.0910 Uiso
C9 C 0.5000 0.0746(3) 0.02687(10) 0.0903 Uani
H3 H 0.5000 0.1246 0.0271 0.1090 Uiso
C10 C 0.5000 0.0374(3) 0.05277(9) 0.0867 Uani
C11 C 0.5562(4) 0.0630(5) 0.10079(14) 0.0927 Uani
H4 H 0.5922 0.0304 0.0959 0.1110 Uiso
C12 C 0.4524(4) 0.1284(5) 0.08821(13) 0.0910 Uani
H5 H 0.4178 0.1412 0.0745 0.1090 Uiso
C13 C 0.4504(5) 0.1625(5) 0.11499(13) 0.0910 Uani
H6 H 0.4160 0.1976 0.1189 0.1090 Uiso
C14 C 0.5566(4) 0.0964(5) 0.12757(14) 0.0883 Uani
H7 H 0.5942 0.0880 0.1405 0.1060 Uiso
O3 O 0.16186(15) 0.16186(15) 0.19392(8) 0.1333 Uani
C1B C 0.63414(17) -0.23102(18) 0.22327(7) 0.0672 Uani
O1B O 0.68960(12) -0.20720(13) 0.21121(5) 0.0754 Uani
O2B O 0.63103(11) -0.26400(13) 0.24734(5) 0.0745 Uani
C2B C 0.56454(16) -0.21930(18) 0.20773(6) 0.0672 Uani
C3B C 0.5000 -0.1750(3) 0.16572(9) 0.0768 Uani
C4B C 0.5000 -0.1434(3) 0.13556(10) 0.0817 Uani
C5B C 0.5000 -0.2344(3) 0.22170(10) 0.0720 Uani
H1B H 0.5000 -0.2546 0.2402 0.0860 Uiso
C6B C 0.5000 -0.0378(4) 0.0000 0.0887 Uani
C7B C 0.5000 -0.0788(4) 0.08061(10) 0.0880 Uani
C8B C 0.56473(18) -0.1908(2) 0.18009(6) 0.0761 Uani
H2B H 0.6083 -0.1819 0.1708 0.0910 Uiso
C9B C 0.5000 -0.0746(3) 0.02687(10) 0.0903 Uani
H3B H 0.5000 -0.1246 0.0271 0.1090 Uiso
C10B C 0.5000 -0.0374(3) 0.05277(9) 0.0867 Uani
C11B C 0.4438(4) -0.0630(5) 0.10079(14) 0.0927 Uani
H4B H 0.4078 -0.0304 0.0959 0.1110 Uiso
C12B C 0.5476(4) -0.1284(5) 0.08821(13) 0.0910 Uani
H5B H 0.5822 -0.1412 0.0745 0.1090 Uiso
C13B C 0.5496(5) -0.1625(5) 0.11499(13) 0.0910 Uani
H6B H 0.5840 -0.1976 0.1189 0.1090 Uiso
C14B C 0.4434(4) -0.0964(5) 0.12757(14) 0.0883 Uani
H7B H 0.4058 -0.0880 0.1405 0.1060 Uiso
C1D C 0.36586(17) -0.23102(18) -0.22327(7) 0.0672 Uani
O1D O 0.31040(12) -0.20720(13) -0.21121(5) 0.0754 Uani
O2D O 0.36897(11) -0.26400(13) -0.24734(5) 0.0745 Uani
C2D C 0.43546(16) -0.21930(18) -0.20773(6) 0.0672 Uani
C3D C 0.5000 -0.1750(3) -0.16572(9) 0.0768 Uani
C4D C 0.5000 -0.1434(3) -0.13556(10) 0.0817 Uani
C5D C 0.5000 -0.2344(3) -0.22170(10) 0.0720 Uani
H1D H 0.5000 -0.2546 -0.2402 0.0860 Uiso
C7D C 0.5000 -0.0788(4) -0.08061(10) 0.0880 Uani
C8D C 0.43527(18) -0.1908(2) -0.18009(6) 0.0761 Uani
H2D H 0.3917 -0.1819 -0.1708 0.0910 Uiso
C9D C 0.5000 -0.0746(3) -0.02687(10) 0.0903 Uani
H3D H 0.5000 -0.1246 -0.0271 0.1090 Uiso
C10D C 0.5000 -0.0374(3) -0.05277(9) 0.0867 Uani
C11D C 0.5562(4) -0.0630(5) -0.10079(14) 0.0927 Uani
H4D H 0.5922 -0.0304 -0.0959 0.1110 Uiso
C12D C 0.4524(4) -0.1284(5) -0.08821(13) 0.0910 Uani
H5D H 0.4178 -0.1412 -0.0745 0.1090 Uiso
C13D C 0.4504(5) -0.1625(5) -0.11499(13) 0.0910 Uani
H6D H 0.4160 -0.1976 -0.1189 0.1090 Uiso
C14D C 0.5566(4) -0.0964(5) -0.12757(14) 0.0883 Uani
H7D H 0.5942 -0.0880 -0.1405 0.1060 Uiso
C1E C 0.63414(17) 0.23102(18) -0.22327(7) 0.0672 Uani
O1E O 0.68960(12) 0.20720(13) -0.21121(5) 0.0754 Uani
O2E O 0.63103(11) 0.26400(13) -0.24734(5) 0.0745 Uani
C2E C 0.56454(16) 0.21930(18) -0.20773(6) 0.0672 Uani
C3E C 0.5000 0.1750(3) -0.16572(9) 0.0768 Uani
C4E C 0.5000 0.1434(3) -0.13556(10) 0.0817 Uani
C5E C 0.5000 0.2344(3) -0.22170(10) 0.0720 Uani
H1E H 0.5000 0.2546 -0.2402 0.0860 Uiso
C7E C 0.5000 0.0788(4) -0.08061(10) 0.0880 Uani
C8E C 0.56473(18) 0.1908(2) -0.18009(6) 0.0761 Uani
H2E H 0.6083 0.1819 -0.1708 0.0910 Uiso
C9E C 0.5000 0.0746(3) -0.02687(10) 0.0903 Uani
H3E H 0.5000 0.1246 -0.0271 0.1090 Uiso
C10E C 0.5000 0.0374(3) -0.05277(9) 0.0867 Uani
C11E C 0.4438(4) 0.0630(5) -0.10079(14) 0.0927 Uani
H4E H 0.4078 0.0304 -0.0959 0.1110 Uiso
C12E C 0.5476(4) 0.1284(5) -0.08821(13) 0.0910 Uani
H5E H 0.5822 0.1412 -0.0745 0.1090 Uiso
C13E C 0.5496(5) 0.1625(5) -0.11499(13) 0.0910 Uani
H6E H 0.5840 0.1976 -0.1189 0.1090 Uiso
C14E C 0.4434(4) 0.0964(5) -0.12757(14) 0.0883 Uani
H7E H 0.4058 0.0880 -0.1405 0.1060 Uiso
C1P C 0.63414(17) -0.23102(18) -0.22327(7) 0.0672 Uani
O1P O 0.68960(12) -0.20720(13) -0.21121(5) 0.0754 Uani
O2P O 0.63103(11) -0.26400(13) -0.24734(5) 0.0745 Uani
C2P C 0.56454(16) -0.21930(18) -0.20773(6) 0.0672 Uani
C8P C 0.56473(18) -0.1908(2) -0.18009(6) 0.0761 Uani
H2P H 0.6083 -0.1819 -0.1708 0.0910 Uiso
C11P C 0.4438(4) -0.0630(5) -0.10079(14) 0.0927 Uani
H4P H 0.4078 -0.0304 -0.0959 0.1110 Uiso
C12P C 0.5476(4) -0.1284(5) -0.08821(13) 0.0910 Uani
H5P H 0.5822 -0.1412 -0.0745 0.1090 Uiso
C13P C 0.5496(5) -0.1625(5) -0.11499(13) 0.0910 Uani
H6P H 0.5840 -0.1976 -0.1189 0.1090 Uiso
C14P C 0.4434(4) -0.0964(5) -0.12757(14) 0.0883 Uani
H7P H 0.4058 -0.0880 -0.1405 0.1060 Uiso
C1R C 0.36586(17) 0.23102(18) -0.22327(7) 0.0672 Uani
O1R O 0.31040(12) 0.20720(13) -0.21121(5) 0.0754 Uani
O2R O 0.36897(11) 0.26400(13) -0.24734(5) 0.0745 Uani
C2R C 0.43546(16) 0.21930(18) -0.20773(6) 0.0672 Uani
C8R C 0.43527(18) 0.1908(2) -0.18009(6) 0.0761 Uani
H2R H 0.3917 0.1819 -0.1708 0.0910 Uiso
C11R C 0.5562(4) 0.0630(5) -0.10079(14) 0.0927 Uani
H4R H 0.5922 0.0304 -0.0959 0.1110 Uiso
C12R C 0.4524(4) 0.1284(5) -0.08821(13) 0.0910 Uani
H5R H 0.4178 0.1412 -0.0745 0.1090 Uiso
C13R C 0.4504(5) 0.1625(5) -0.11499(13) 0.0910 Uani
H6R H 0.4160 0.1976 -0.1189 0.1090 Uiso
C14R C 0.5566(4) 0.0964(5) -0.12757(14) 0.0883 Uani
H7R H 0.5942 0.0880 -0.1405 0.1060 Uiso
C1T C 0.63414(17) 0.23102(18) 0.22327(7) 0.0672 Uani
O1T O 0.68960(12) 0.20720(13) 0.21121(5) 0.0754 Uani
O2T O 0.63103(11) 0.26400(13) 0.24734(5) 0.0745 Uani
C2T C 0.56454(16) 0.21930(18) 0.20773(6) 0.0672 Uani
C8T C 0.56473(18) 0.1908(2) 0.18009(6) 0.0761 Uani
H2T H 0.6083 0.1819 0.1708 0.0910 Uiso
C11T C 0.4438(4) 0.0630(5) 0.10079(14) 0.0927 Uani
H4T H 0.4078 0.0304 0.0959 0.1110 Uiso
C12T C 0.5476(4) 0.1284(5) 0.08821(13) 0.0910 Uani
H5T H 0.5822 0.1412 0.0745 0.1090 Uiso
C13T C 0.5496(5) 0.1625(5) 0.11499(13) 0.0910 Uani
H6T H 0.5840 0.1976 0.1189 0.1090 Uiso
C14T C 0.4434(4) 0.0964(5) 0.12757(14) 0.0883 Uani
H7T H 0.4058 0.0880 0.1405 0.1060 Uiso
C1U C 0.36586(17) -0.23102(18) 0.22327(7) 0.0672 Uani
O1U O 0.31040(12) -0.20720(13) 0.21121(5) 0.0754 Uani
O2U O 0.36897(11) -0.26400(13) 0.24734(5) 0.0745 Uani
C2U C 0.43546(16) -0.21930(18) 0.20773(6) 0.0672 Uani
C8U C 0.43527(18) -0.1908(2) 0.18009(6) 0.0761 Uani
H2U H 0.3917 -0.1819 0.1708 0.0910 Uiso
C11U C 0.5562(4) -0.0630(5) 0.10079(14) 0.0927 Uani
H4U H 0.5922 -0.0304 0.0959 0.1110 Uiso
C12U C 0.4524(4) -0.1284(5) 0.08821(13) 0.0910 Uani
H5U H 0.4178 -0.1412 0.0745 0.1090 Uiso
C13U C 0.4504(5) -0.1625(5) 0.11499(13) 0.0910 Uani
H6U H 0.4160 -0.1976 0.1189 0.1090 Uiso
C14U C 0.5566(4) -0.0964(5) 0.12757(14) 0.0883 Uani
H7U H 0.5942 -0.0880 0.1405 0.1060 Uiso
Cu1C Cu 0.21546(2) -0.21546(2) 0.22885(2) 0.0556 Uani
O3C O 0.16186(15) -0.16186(15) 0.19392(8) 0.1333 Uani
Cu1D Cu 0.21546(2) -0.21546(2) -0.22885(2) 0.0556 Uani
O3D O 0.16186(15) -0.16186(15) -0.19392(8) 0.1333 Uani
Cu1O Cu 0.28454(2) 0.28454(2) 0.27115(2) 0.0556 Uani
O3O O 0.33814(15) 0.33814(15) 0.30608(8) 0.1333 Uani
Cu1A Cu 0.78454(2) 0.21546(2) 0.22885(2) 0.0556 Uani
Cu1B Cu 0.78454(2) -0.21546(2) 0.22885(2) 0.0556 Uani
Cu1E Cu 0.78454(2) 0.21546(2) -0.22885(2) 0.0556 Uani
Cu1F Cu 0.21546(2) 0.21546(2) -0.22885(2) 0.0556 Uani
Cu1G Cu 0.78454(2) -0.21546(2) -0.22885(2) 0.0556 Uani
Cu1H Cu 0.71546(2) -0.28454(2) -0.27115(2) 0.0556 Uani
Cu1I Cu 0.28454(2) -0.28454(2) -0.27115(2) 0.0556 Uani
Cu1J Cu 0.28454(2) 0.28454(2) -0.27115(2) 0.0556 Uani
Cu1K Cu 0.71546(2) 0.28454(2) -0.27115(2) 0.0556 Uani
Cu1L Cu 0.71546(2) 0.28454(2) 0.27115(2) 0.0556 Uani
Cu1M Cu 0.28454(2) -0.28454(2) 0.27115(2) 0.0556 Uani
Cu1N Cu 0.71546(2) -0.28454(2) 0.27115(2) 0.0556 Uani
O1C O 0.20720(13) -0.31040(12) 0.21121(5) 0.0754 Uani
O1O O 0.29280(13) 0.18960(12) 0.28879(5) 0.0754 Uani
O1Q O 0.20720(13) -0.31040(12) -0.21121(5) 0.0754 Uani
O1W O 0.20720(13) 0.31040(12) 0.21121(5) 0.0754 Uani
O1X O 0.18960(12) 0.29280(13) 0.28879(5) 0.0754 Uani
O2I O 0.23600(13) -0.13103(11) -0.25266(5) 0.0745 Uani
O2M O 0.13103(11) -0.23600(13) 0.25266(5) 0.0745 Uani
O2O O 0.23600(13) 0.13103(11) 0.25266(5) 0.0745 Uani
O2W O 0.26400(13) 0.36897(11) 0.24734(5) 0.0745 Uani
O2X O 0.13103(11) 0.23600(13) 0.25266(5) 0.0745 Uani
O2AA O 0.23600(13) -0.13103(11) 0.25266(5) 0.0745 Uani
O2BA O 0.13103(11) -0.23600(13) -0.25266(5) 0.0745 Uani
loop_
_atom_site_aniso_label
_atom_site_aniso_U_11
_atom_site_aniso_U_22
_atom_site_aniso_U_33
_atom_site_aniso_U_23
_atom_site_aniso_U_13
_atom_site_aniso_U_12
Cu1 0.0598(3) 0.0598(3) 0.0471(3) -0.01262(17) -0.01262(17) 0.0053(2)
C1 0.0653(18) 0.080(2) 0.0563(15) -0.0051(14) -0.0097(13) 0.0075(13)
O1 0.0639(12) 0.1022(17) 0.0602(11) -0.0244(11) -0.0053(10) 0.0026(10)
O2 0.0607 0.0997 0.063 -0.0215 -0.0052 0.004
C2 0.0619(17) 0.084(2) 0.0557(15) -0.0122(14) -0.0044(13) 0.0011(13)
C3 0.079(3) 0.109(4) 0.0424(19) -0.011(2) 0.000 0.000
C4 0.086(3) 0.111(4) 0.048(2) -0.016(2) 0.000 0.000
C5 0.074(3) 0.086(3) 0.056(2) -0.010(2) 0.000 0.000
C6 0.103(5) 0.132(6) 0.031(2) 0.000 0.000 0.000
C7 0.096(4) 0.125(4) 0.043(2) -0.004(3) 0.000 0.000
C8 0.071(2) 0.107(3) 0.0503(15) -0.0053(16) -0.0075(14) 0.0042(16)
C9 0.116(4) 0.112(4) 0.043(2) -0.001(2) 0.000 0.000
C10 0.105(4) 0.115(4) 0.040(2) -0.004(2) 0.000 0.000
C11 0.084(5) 0.142(8) 0.052(3) -0.012(4) -0.002(3) 0.013(4)
C12 0.101(6) 0.132(7) 0.040(3) -0.006(4) -0.013(3) 0.013(5)
C13 0.116(6) 0.111(6) 0.046(3) -0.011(4) -0.003(3) -0.013(4)
C14 0.077(5) 0.140(7) 0.048(3) -0.018(4) -0.003(3) 0.012(4)
O3 0.169(3) 0.169(3) 0.062(2) -0.0267(14) -0.0267(14) -0.085(3)
C1B 0.0653 0.08 0.0563 0.0051 0.0097 0.0075
O1B 0.0639 0.1022 0.0602 0.0244 0.0053 0.0026
O2B 0.0607 0.0997 0.063 0.0215 0.0052 0.004
C2B 0.0619 0.084 0.0557 0.0122 0.0044 0.0011
C3B 0.079 0.109 0.0424 0.011 0 0
C4B 0.086 0.111 0.048 0.016 0 0
C5B 0.074 0.086 0.056 0.01 0 0
C6B 0.103 0.132 0.031 0 0 0
C7B 0.096 0.125 0.043 0.004 0 0
C8B 0.071 0.107 0.0503 0.0053 0.0075 0.0042
C9B 0.116 0.112 0.043 0.001 0 0
C10B 0.105 0.115 0.04 0.004 0 0
C11B 0.084 0.142 0.052 0.012 0.002 0.013
C12B 0.101 0.132 0.04 0.006 0.013 0.013
C13B 0.116 0.111 0.046 0.011 0.003 -0.013
C14B 0.077 0.14 0.048 0.018 0.003 0.012
C1D 0.0653 0.08 0.0563 -0.0051 0.0097 -0.0075
O1D 0.0639 0.1022 0.0602 -0.0244 0.0053 -0.0026
O2D 0.0607 0.0997 0.063 -0.0215 0.0052 -0.004
C2D 0.0619 0.084 0.0557 -0.0122 0.0044 -0.0011
C3D 0.079 0.109 0.0424 -0.011 0 0
C4D 0.086 0.111 0.048 -0.016 0 0
C5D 0.074 0.086 0.056 -0.01 0 0
C7D 0.096 0.125 0.043 -0.004 0 0
C8D 0.071 0.107 0.0503 -0.0053 0.0075 -0.0042
C9D 0.116 0.112 0.043 -0.001 0 0
C10D 0.105 0.115 0.04 -0.004 0 0
C11D 0.084 0.142 0.052 -0.012 0.002 -0.013
C12D 0.101 0.132 0.04 -0.006 0.013 -0.013
C13D 0.116 0.111 0.046 -0.011 0.003 0.013
C14D 0.077 0.14 0.048 -0.018 0.003 -0.012
C1E 0.0653 0.08 0.0563 0.0051 -0.0097 -0.0075
O1E 0.0639 0.1022 0.0602 0.0244 -0.0053 -0.0026
O2E 0.0607 0.0997 0.063 0.0215 -0.0052 -0.004
C2E 0.0619 0.084 0.0557 0.0122 -0.0044 -0.0011
C3E 0.079 0.109 0.0424 0.011 0 0
C4E 0.086 0.111 0.048 0.016 0 0
C5E 0.074 0.086 0.056 0.01 0 0
C7E 0.096 0.125 0.043 0.004 0 0
C8E 0.071 0.107 0.0503 0.0053 -0.0075 -0.0042
C9E 0.116 0.112 0.043 0.001 0 0
C10E 0.105 0.115 0.04 0.004 0 0
C11E 0.084 0.142 0.052 0.012 -0.002 -0.013
C12E 0.101 0.132 0.04 0.006 -0.013 -0.013
C13E 0.116 0.111 0.046 0.011 -0.003 0.013
C14E 0.077 0.14 0.048 0.018 -0.003 -0.012
C1P 0.0653 0.08 0.0563 -0.0051 -0.0097 0.0075
O1P 0.0639 0.1022 0.0602 -0.0244 -0.0053 0.0026
O2P 0.0607 0.0997 0.063 -0.0215 -0.0052 0.004
C2P 0.0619 0.084 0.0557 -0.0122 -0.0044 0.0011
C8P 0.071 0.107 0.0503 -0.0053 -0.0075 0.0042
C11P 0.084 0.142 0.052 -0.012 -0.002 0.013
C12P 0.101 0.132 0.04 -0.006 -0.013 0.013
C13P 0.116 0.111 0.046 -0.011 -0.003 -0.013
C14P 0.077 0.14 0.048 -0.018 -0.003 0.012
C1R 0.0653 0.08 0.0563 0.0051 0.0097 0.0075
O1R 0.0639 0.1022 0.0602 0.0244 0.0053 0.0026
O2R 0.0607 0.0997 0.063 0.0215 0.0052 0.004
C2R 0.0619 0.084 0.0557 0.0122 0.0044 0.0011
C8R 0.071 0.107 0.0503 0.0053 0.0075 0.0042
C11R 0.084 0.142 0.052 0.012 0.002 0.013
C12R 0.101 0.132 0.04 0.006 0.013 0.013
C13R 0.116 0.111 0.046 0.011 0.003 -0.013
C14R 0.077 0.14 0.048 0.018 0.003 0.012
C1T 0.0653 0.08 0.0563 -0.0051 0.0097 -0.0075
O1T 0.0639 0.1022 0.0602 -0.0244 0.0053 -0.0026
O2T 0.0607 0.0997 0.063 -0.0215 0.0052 -0.004
C2T 0.0619 0.084 0.0557 -0.0122 0.0044 -0.0011
C8T 0.071 0.107 0.0503 -0.0053 0.0075 -0.0042
C11T 0.084 0.142 0.052 -0.012 0.002 -0.013
C12T 0.101 0.132 0.04 -0.006 0.013 -0.013
C13T 0.116 0.111 0.046 -0.011 0.003 0.013
C14T 0.077 0.14 0.048 -0.018 0.003 -0.012
C1U 0.0653 0.08 0.0563 0.0051 -0.0097 -0.0075
O1U 0.0639 0.1022 0.0602 0.0244 -0.0053 -0.0026
O2U 0.0607 0.0997 0.063 0.0215 -0.0052 -0.004
C2U 0.0619 0.084 0.0557 0.0122 -0.0044 -0.0011
C8U 0.071 0.107 0.0503 0.0053 -0.0075 -0.0042
C11U 0.084 0.142 0.052 0.012 -0.002 -0.013
C12U 0.101 0.132 0.04 0.006 -0.013 -0.013
C13U 0.116 0.111 0.046 0.011 -0.003 0.013
C14U 0.077 0.14 0.048 0.018 -0.003 -0.012
Cu1C 0.0598 0.0598 0.0471 0.01262 -0.01262 -0.0053
O3C 0.169 0.169 0.062 0.0267 -0.0267 0.085
Cu1D 0.0598 0.0598 0.0471 -0.01262 0.01262 -0.0053
O3D 0.169 0.169 0.062 -0.0267 0.0267 0.085
Cu1O 0.0598 0.0598 0.0471 -0.01262 -0.01262 0.0053
O3O 0.169 0.169 0.062 -0.0267 -0.0267 -0.085
Cu1A 0.0598 0.0598 0.0471 -0.01262 0.01262 -0.0053
Cu1B 0.0598 0.0598 0.0471 0.01262 0.01262 0.0053
Cu1E 0.0598 0.0598 0.0471 0.01262 -0.01262 -0.0053
Cu1F 0.0598 0.0598 0.0471 0.01262 0.01262 0.0053
Cu1G 0.0598 0.0598 0.0471 -0.01262 -0.01262 0.0053
Cu1H 0.0598 0.0598 0.0471 -0.01262 -0.01262 0.0053
Cu1I 0.0598 0.0598 0.0471 -0.01262 0.01262 -0.0053
Cu1J 0.0598 0.0598 0.0471 0.01262 0.01262 0.0053
Cu1K 0.0598 0.0598 0.0471 0.01262 -0.01262 -0.0053
Cu1L 0.0598 0.0598 0.0471 -0.01262 0.01262 -0.0053
Cu1M 0.0598 0.0598 0.0471 0.01262 -0.01262 -0.0053
Cu1N 0.0598 0.0598 0.0471 0.01262 0.01262 0.0053
O1C 0.1022 0.0639 0.0602 0.0053 -0.0244 -0.0026
O1O 0.1022 0.0639 0.0602 -0.0053 -0.0244 0.0026
O1Q 0.1022 0.0639 0.0602 -0.0053 0.0244 -0.0026
O1W 0.1022 0.0639 0.0602 -0.0053 -0.0244 0.0026
O1X 0.0639 0.1022 0.0602 -0.0244 -0.0053 0.0026
O2I 0.0997 0.0607 0.063 -0.0052 0.0215 -0.004
O2M 0.0607 0.0997 0.063 0.0215 -0.0052 -0.004
O2O 0.0997 0.0607 0.063 -0.0052 -0.0215 0.004
O2W 0.0997 0.0607 0.063 -0.0052 -0.0215 0.004
O2X 0.0607 0.0997 0.063 -0.0215 -0.0052 0.004
O2AA 0.0997 0.0607 0.063 0.0052 -0.0215 -0.004
O2BA 0.0607 0.0997 0.063 -0.0215 0.0052 -0.004
loop_
_geom_bond_atom_site_label_1
_geom_bond_atom_site_label_2
_geom_bond_site_symmetry_1
_geom_bond_site_symmetry_2
Cu1 O1 1_555 1_555
C1 O1 1_555 1_555
O2 C1 1_555 1_555
C2 C1 1_555 1_555
C3 C4 1_555 1_555
C4 C13 1_555 1_555
C5 C2 1_555 1_555
H1 C5 1_555 1_555
C6 C9 1_555 1_555
C7 C10 1_555 1_555
C8 C2 1_555 1_555
H2 C8 1_555 1_555
C9 H3 1_555 1_555
C10 C9 1_555 1_555
C11 C7 1_555 1_555
H4 C11 1_555 1_555
C12 C7 1_555 1_555
H5 C12 1_555 1_555
C13 C12 1_555 1_555
H6 C13 1_555 1_555
C14 C4 1_555 1_555
H7 C14 1_555 1_555
O3 Cu1 1_555 1_555
C1B O1B 1_555 1_555
O1B Cu1B 1_555 1_555
O2B C1B 1_555 1_555
C2B C1B 1_555 1_555
C3B C4B 1_555 1_555
C4B C13B 1_555 1_555
C5B C2B 1_555 1_555
H1B C5B 1_555 1_555
C6B C6 1_555 1_555
C7B C10B 1_555 1_555
C8B C2B 1_555 1_555
H2B C8B 1_555 1_555
C9B C6B 1_555 1_555
H3B C9B 1_555 1_555
C10B C10 1_555 1_555
C11B C7B 1_555 1_555
H4B C11B 1_555 1_555
C12B C7B 1_555 1_555
H5B C12B 1_555 1_555
C13B C12B 1_555 1_555
H6B C13B 1_555 1_555
C14B C4B 1_555 1_555
H7B C14B 1_555 1_555
C1D O1D 1_555 1_555
O1D Cu1D 1_555 1_555
O2D C1D 1_555 1_555
C2D C1D 1_555 1_555
C3D C4D 1_555 1_555
C4D C13D 1_555 1_555
C5D C2D 1_555 1_555
H1D C5D 1_555 1_555
C7D C10D 1_555 1_555
C8D C2D 1_555 1_555
H2D C8D 1_555 1_555
C9D C6B 1_555 1_555
H3D C9D 1_555 1_555
C10D C9D 1_555 1_555
C11D C7D 1_555 1_555
H4D C11D 1_555 1_555
C12D C7D 1_555 1_555
H5D C12D 1_555 1_555
C13D C12D 1_555 1_555
H6D C13D 1_555 1_555
C14D C4D 1_555 1_555
H7D C14D 1_555 1_555
C1E O1E 1_555 1_555
O1E Cu1E 1_555 1_555
O2E C1E 1_555 1_555
C2E C1E 1_555 1_555
C3E C4E 1_555 1_555
C4E C13E 1_555 1_555
C5E C2E 1_555 1_555
H1E C5E 1_555 1_555
C7E C10E 1_555 1_555
C8E C2E 1_555 1_555
H2E C8E 1_555 1_555
C9E C6 1_555 1_555
H3E C9E 1_555 1_555
C10E C10D 1_555 1_555
C11E C7E 1_555 1_555
H4E C11E 1_555 1_555
C12E C7E 1_555 1_555
H5E C12E 1_555 1_555
C13E C12E 1_555 1_555
H6E C13E 1_555 1_555
C14E C4E 1_555 1_555
H7E C14E 1_555 1_555
C1P O1P 1_555 1_555
O1P Cu1G 1_555 1_555
O2P C1P 1_555 1_555
C2P C5D 1_555 1_555
C8P C3D 1_555 1_555
H2P C8P 1_555 1_555
C11P C7D 1_555 1_555
H4P C11P 1_555 1_555
C12P C7D 1_555 1_555
H5P C12P 1_555 1_555
C13P C4D 1_555 1_555
H6P C13P 1_555 1_555
C14P C4D 1_555 1_555
H7P C14P 1_555 1_555
C1R O1R 1_555 1_555
O1R Cu1F 1_555 1_555
O2R C1R 1_555 1_555
C2R C5E 1_555 1_555
C8R C3E 1_555 1_555
H2R C8R 1_555 1_555
C11R C7E 1_555 1_555
H4R C11R 1_555 1_555
C12R C7E 1_555 1_555
H5R C12R 1_555 1_555
C13R C4E 1_555 1_555
H6R C13R 1_555 1_555
C14R C4E 1_555 1_555
H7R C14R 1_555 1_555
C1T O1T 1_555 1_555
O1T Cu1A 1_555 1_555
O2T C1T 1_555 1_555
C2T C5 1_555 1_555
C8T C3 1_555 1_555
H2T C8T 1_555 1_555
C11T C7 1_555 1_555
H4T C11T 1_555 1_555
C12T C7 1_555 1_555
H5T C12T 1_555 1_555
C13T C4 1_555 1_555
H6T C13T 1_555 1_555
C14T C4 1_555 1_555
H7T C14T 1_555 1_555
C1U O1U 1_555 1_555
O1U Cu1C 1_555 1_555
O2U C1U 1_555 1_555
C2U C5B 1_555 1_555
C8U C3B 1_555 1_555
H2U C8U 1_555 1_555
C11U C7B 1_555 1_555
H4U C11U 1_555 1_555
C12U C7B 1_555 1_555
H5U C12U 1_555 1_555
C13U C4B 1_555 1_555
H6U C13U 1_555 1_555
C14U C4B 1_555 1_555
H7U C14U 1_555 1_555
Cu1C O3C 1_555 1_555
Cu1D O3D 1_555 1_555
Cu1O Cu1 1_555 1_555
O3O Cu1O 1_555 1_555
Cu1A Cu1L 1_555 1_555
Cu1B Cu1N 1_555 1_555
Cu1E Cu1K 1_555 1_555
Cu1F Cu1J 1_555 1_555
Cu1G Cu1H 1_555 1_555
Cu1H O2P 1_555 1_555
Cu1I O2D 1_555 1_555
Cu1J O2R 1_555 1_555
Cu1K O2E 1_555 1_555
Cu1L O2T 1_555 1_555
Cu1M O2U 1_555 1_555
Cu1N O2B 1_555 1_555
O1C Cu1C 1_555 1_555
O1O Cu1O 1_555 1_555
O1Q Cu1D 1_555 1_555
O1W Cu1 1_555 1_555
O1X Cu1O 1_555 1_555
O2I Cu1D 1_555 1_555
O2M Cu1C 1_555 1_555
O2O Cu1 1_555 1_555
O2W Cu1O 1_555 1_555
O2X Cu1 1_555 1_555
O2AA Cu1C 1_555 1_555
O2BA Cu1D 1_555 1_555
O2 Cu1O 1_555 1_555
C3 C8 1_555 1_555
C11 C14 1_555 1_555
C3B C8B 1_555 1_555
C9B C10B 1_555 1_555
C11B C14B 1_555 1_555
C3D C8D 1_555 1_555
C11D C14D 1_555 1_555
C3E C8E 1_555 1_555
C9E C10E 1_555 1_555
C11E C14E 1_555 1_555
C1P C2P 1_555 1_555
C2P C8P 1_555 1_555
C11P C14P 1_555 1_555
C12P C13P 1_555 1_555
C1R C2R 1_555 1_555
C2R C8R 1_555 1_555
C11R C14R 1_555 1_555
C12R C13R 1_555 1_555
C1T C2T 1_555 1_555
C2T C8T 1_555 1_555
C11T C14T 1_555 1_555
C12T C13T 1_555 1_555
C1U C2U 1_555 1_555
C2U C8U 1_555 1_555
C11U C14U 1_555 1_555
C12U C13U 1_555 1_555
Cu1C Cu1M 1_555 1_555
Cu1D Cu1I 1_555 1_555

#END
