
#######################################################################
#
#                 Cambridge Crystallographic Data Centre
#                                CCDC 
#
#######################################################################
#
# If this CIF has been generated from an entry in the Cambridge 
# Structural Database, then it will include bibliographic, chemical, 
# crystal, experimental, refinement or atomic coordinate data resulting 
# from the CCDC's data processing and validation procedures.
#
#######################################################################

data_LAQNID
_chemical_formula_moiety         '(C58 H36 Cu4 O20)n'
_symmetry_cell_setting           tetragonal
_symmetry_space_group_name_H-M   'I -4 2 m'
_symmetry_Int_Tables_number      121
_space_group_name_Hall           'I -4 2'
loop_
_symmetry_equiv_pos_site_id
_symmetry_equiv_pos_as_xyz
1 x,y,z
2 y,-x,-z
3 -x,-y,z
4 -y,x,-z
5 x,-y,-z
6 -x,y,-z
7 -y,-x,z
8 y,x,z
9 1/2+x,1/2+y,1/2+z
10 1/2+y,1/2-x,1/2-z
11 1/2-x,1/2-y,1/2+z
12 1/2-y,1/2+x,1/2-z
13 1/2+x,1/2-y,1/2-z
14 1/2-x,1/2+y,1/2-z
15 1/2-y,1/2-x,1/2+z
16 1/2+y,1/2+x,1/2+z
_cell_length_a                   18.69242(16)
_cell_length_b                   18.69242(16)
_cell_length_c                   35.9196(4)
_cell_angle_alpha                90
_cell_angle_beta                 90
_cell_angle_gamma                90
_cell_volume                     12550.5
loop_
_atom_site_label
_atom_site_type_symbol
_atom_site_fract_x
_atom_site_fract_y
_atom_site_fract_z
Cu1 Cu 0.22091(2) 0.77909(2) 0.72097(2)
Cu2 Cu 0.78887(2) 0.78887(2) 0.72457(2)
O1 O 0.31633(9) 0.78676(12) 0.69907(4)
O2 O 0.37393(10) 0.73049(12) 0.74553(5)
O3 O 0.69365(9) 0.79630(12) 0.70290(5)
O4 O 0.63569(9) 0.73974(11) 0.74896(5)
O5 O 0.16862(14) 0.83138(14) 0.67606(8)
O6 O 0.84176(14) 0.84176(14) 0.67950(8)
C1 C 0.5000 0.9641(2) 0.5000
C2 C 0.50521(16) 0.92233(15) 0.53538(6)
C3 C 0.55866(16) 0.93713(18) 0.56093(7)
H1 H 0.5947 0.9710 0.5549
C4 C 0.56033(15) 0.90323(18) 0.59529(7)
H2 H 0.5975 0.9140 0.6125
C5 C 0.50840(15) 0.85405(16) 0.60465(6)
C6 C 0.45653(17) 0.83556(18) 0.57823(7)
H3 H 0.4219 0.8000 0.5838
C7 C 0.45589(16) 0.86920(19) 0.54389(7)
H4 H 0.4212 0.8558 0.5259
C8 C 0.50651(16) 0.82239(15) 0.64300(6)
C9 C 0.57038(13) 0.81000(15) 0.66211(6)
H5 H 0.6148 0.8210 0.6506
C10 C 0.56948(12) 0.78176(15) 0.69770(6)
C11 C 0.50482(14) 0.76483(14) 0.71463(6)
H6 H 0.5044 0.7447 0.7389
C12 C 0.44147(13) 0.77723(16) 0.69628(6)
C13 C 0.44286(14) 0.80591(16) 0.66001(7)
H7 H 0.3992 0.8140 0.6472
C14 C 0.37165(14) 0.76381(14) 0.71482(7)
C15 C 0.63848(13) 0.77169(14) 0.71820(6)
O1B O 0.68367(9) 1.21324(12) 0.69907(4)
O2B O 0.62607(10) 1.26951(12) 0.74553(5)
O3B O 0.30635(9) 1.20370(12) 0.70290(5)
O4B O 0.36431(9) 1.26026(11) 0.74896(5)
C1B C 0.5000 1.0359(2) 0.5000
C2B C 0.49479(16) 1.07767(15) 0.53538(6)
C3B C 0.44134(16) 1.06287(18) 0.56093(7)
H1B H 0.4053 1.0290 0.5549
C4B C 0.43967(15) 1.09677(18) 0.59529(7)
H2B H 0.4025 1.0860 0.6125
C5B C 0.49160(15) 1.14595(16) 0.60465(6)
C6B C 0.54347(17) 1.16444(18) 0.57823(7)
H3B H 0.5781 1.2000 0.5838
C7B C 0.54411(16) 1.13080(19) 0.54389(7)
H4B H 0.5788 1.1442 0.5259
C8B C 0.49349(16) 1.17761(15) 0.64300(6)
C9B C 0.42962(13) 1.19000(15) 0.66211(6)
H5B H 0.3852 1.1790 0.6506
C10B C 0.43052(12) 1.21824(15) 0.69770(6)
C11B C 0.49518(14) 1.23517(14) 0.71463(6)
H6B H 0.4956 1.2553 0.7389
C12B C 0.55853(13) 1.22277(16) 0.69628(6)
C13B C 0.55714(14) 1.19409(16) 0.66001(7)
H7B H 0.6008 1.1860 0.6472
C14B C 0.62835(14) 1.23619(14) 0.71482(7)
C15B C 0.36152(13) 1.22831(14) 0.71820(6)
O1D O 0.31633(9) 1.21324(12) 0.30093(4)
O2D O 0.37393(10) 1.26951(12) 0.25447(5)
O3D O 0.69365(9) 1.20370(12) 0.29710(5)
O4D O 0.63569(9) 1.26026(11) 0.25104(5)
C2D C 0.50521(16) 1.07767(15) 0.46462(6)
C3D C 0.55866(16) 1.06287(18) 0.43907(7)
H1D H 0.5947 1.0290 0.4451
C4D C 0.56033(15) 1.09677(18) 0.40471(7)
H2D H 0.5975 1.0860 0.3875
C5D C 0.50840(15) 1.14595(16) 0.39535(6)
C6D C 0.45653(17) 1.16444(18) 0.42177(7)
H3D H 0.4219 1.2000 0.4162
C7D C 0.45589(16) 1.13080(19) 0.45611(7)
H4D H 0.4212 1.1442 0.4741
C8D C 0.50651(16) 1.17761(15) 0.35700(6)
C9D C 0.57038(13) 1.19000(15) 0.33789(6)
H5D H 0.6148 1.1790 0.3494
C10D C 0.56948(12) 1.21824(15) 0.30230(6)
C11D C 0.50482(14) 1.23517(14) 0.28537(6)
H6D H 0.5044 1.2553 0.2611
C12D C 0.44147(13) 1.22277(16) 0.30372(6)
C13D C 0.44286(14) 1.19409(16) 0.33999(7)
H7D H 0.3992 1.1860 0.3528
C14D C 0.37165(14) 1.23619(14) 0.28518(7)
C15D C 0.63848(13) 1.22831(14) 0.28180(6)
O1E O 0.68367(9) 0.78676(12) 0.30093(4)
O2E O 0.62607(10) 0.73049(12) 0.25447(5)
O3E O 0.30635(9) 0.79630(12) 0.29710(5)
O4E O 0.36431(9) 0.73974(11) 0.25104(5)
C2E C 0.49479(16) 0.92233(15) 0.46462(6)
C3E C 0.44134(16) 0.93713(18) 0.43907(7)
H1E H 0.4053 0.9710 0.4451
C4E C 0.43967(15) 0.90323(18) 0.40471(7)
H2E H 0.4025 0.9140 0.3875
C5E C 0.49160(15) 0.85405(16) 0.39535(6)
C6E C 0.54347(17) 0.83556(18) 0.42177(7)
H3E H 0.5781 0.8000 0.4162
C7E C 0.54411(16) 0.86920(19) 0.45611(7)
H4E H 0.5788 0.8558 0.4741
C8E C 0.49349(16) 0.82239(15) 0.35700(6)
C9E C 0.42962(13) 0.81000(15) 0.33789(6)
H5E H 0.3852 0.8210 0.3494
C10E C 0.43052(12) 0.78176(15) 0.30230(6)
C11E C 0.49518(14) 0.76483(14) 0.28537(6)
H6E H 0.4956 0.7447 0.2611
C12E C 0.55853(13) 0.77723(16) 0.30372(6)
C13E C 0.55714(14) 0.80591(16) 0.33999(7)
H7E H 0.6008 0.8140 0.3528
C14E C 0.62835(14) 0.76381(14) 0.28518(7)
C15E C 0.36152(13) 0.77169(14) 0.28180(6)
Cu2C Cu 0.21113(2) 0.78887(2) 0.27543(2)
O6C O 0.15824(14) 0.84176(14) 0.32050(8)
Cu1K Cu 0.72091(2) 0.72091(2) 0.77903(2)
O5K O 0.66862(14) 0.66862(14) 0.82394(8)
Cu1A Cu 0.77909(2) 0.77909(2) 0.27903(2)
Cu1B Cu 0.77909(2) 1.22091(2) 0.72097(2)
Cu1C Cu 0.22091(2) 1.22091(2) 0.27903(2)
Cu1H Cu 0.72091(2) 1.27909(2) 0.22097(2)
Cu1I Cu 0.27909(2) 1.27909(2) 0.77903(2)
Cu1J Cu 0.27909(2) 0.72091(2) 0.22097(2)
Cu2A Cu 0.78887(2) 1.21113(2) 0.27543(2)
Cu2B Cu 0.21113(2) 1.21113(2) 0.72457(2)
Cu2H Cu 0.28887(2) 1.28887(2) 0.22457(2)
Cu2I Cu 0.28887(2) 0.71113(2) 0.77543(2)
Cu2J Cu 0.71113(2) 0.71113(2) 0.22457(2)
Cu2K Cu 0.71113(2) 1.28887(2) 0.77543(2)
O1F O 0.21324(12) 0.68367(9) 0.69907(4)
O1K O 0.71324(12) 0.81633(9) 0.80093(4)
O1L O 0.81633(9) 0.71324(12) 0.80093(4)
O2J O 0.12607(10) 0.76951(12) 0.24553(5)
O2K O 0.76951(12) 0.87393(10) 0.75447(5)
O2L O 0.87393(10) 0.76951(12) 0.75447(5)
O2O O 0.23049(12) 0.87393(10) 0.24553(5)
O3C O 0.20370(12) 0.69365(9) 0.29710(5)
O3G O 0.79630(12) 0.69365(9) 0.70290(5)
O4G O 0.73974(11) 0.63569(9) 0.74896(5)
O4I O 0.23974(11) 0.86431(9) 0.75104(5)
O4L O 0.13569(9) 0.76026(11) 0.75104(5)
loop_
_geom_bond_atom_site_label_1
_geom_bond_atom_site_label_2
_geom_bond_site_symmetry_1
_geom_bond_site_symmetry_2
Cu1 O1 1_555 1_555
Cu2 O3 1_555 1_555
O1 C14 1_555 1_555
O2 C14 1_555 1_555
O3 C15 1_555 1_555
O4 C15 1_555 1_555
O5 Cu1 1_555 1_555
O6 Cu2 1_555 1_555
C1 C2 1_555 1_555
C2 C3 1_555 1_555
C3 H1 1_555 1_555
C4 C3 1_555 1_555
H2 C4 1_555 1_555
C5 C4 1_555 1_555
C6 C5 1_555 1_555
H3 C6 1_555 1_555
C7 C2 1_555 1_555
H4 C7 1_555 1_555
C8 C5 1_555 1_555
C9 C8 1_555 1_555
H5 C9 1_555 1_555
C10 C9 1_555 1_555
C11 C10 1_555 1_555
H6 C11 1_555 1_555
C12 C11 1_555 1_555
C13 C8 1_555 1_555
H7 C13 1_555 1_555
C14 C12 1_555 1_555
C15 C10 1_555 1_555
O1B C14B 1_555 1_555
O2B C14B 1_555 1_555
O3B C15B 1_555 1_555
O4B C15B 1_555 1_555
C1B C1 1_555 1_555
C2B C1B 1_555 1_555
C3B C2B 1_555 1_555
H1B C3B 1_555 1_555
C4B C3B 1_555 1_555
H2B C4B 1_555 1_555
C5B C4B 1_555 1_555
C6B C5B 1_555 1_555
H3B C6B 1_555 1_555
C7B C2B 1_555 1_555
H4B C7B 1_555 1_555
C8B C5B 1_555 1_555
C9B C8B 1_555 1_555
H5B C9B 1_555 1_555
C10B C9B 1_555 1_555
C11B C10B 1_555 1_555
H6B C11B 1_555 1_555
C12B C11B 1_555 1_555
C13B C8B 1_555 1_555
H7B C13B 1_555 1_555
C14B C12B 1_555 1_555
C15B C10B 1_555 1_555
O1D C14D 1_555 1_555
O2D C14D 1_555 1_555
O3D C15D 1_555 1_555
O4D C15D 1_555 1_555
C2D C1B 1_555 1_555
C3D C2D 1_555 1_555
H1D C3D 1_555 1_555
C4D C3D 1_555 1_555
H2D C4D 1_555 1_555
C5D C4D 1_555 1_555
C6D C5D 1_555 1_555
H3D C6D 1_555 1_555
C7D C2D 1_555 1_555
H4D C7D 1_555 1_555
C8D C5D 1_555 1_555
C9D C8D 1_555 1_555
H5D C9D 1_555 1_555
C10D C9D 1_555 1_555
C11D C10D 1_555 1_555
H6D C11D 1_555 1_555
C12D C11D 1_555 1_555
C13D C8D 1_555 1_555
H7D C13D 1_555 1_555
C14D C12D 1_555 1_555
C15D C10D 1_555 1_555
O1E C14E 1_555 1_555
O2E C14E 1_555 1_555
O3E C15E 1_555 1_555
O4E C15E 1_555 1_555
C2E C1 1_555 1_555
C3E C2E 1_555 1_555
H1E C3E 1_555 1_555
C4E C3E 1_555 1_555
H2E C4E 1_555 1_555
C5E C4E 1_555 1_555
C6E C5E 1_555 1_555
H3E C6E 1_555 1_555
C7E C2E 1_555 1_555
H4E C7E 1_555 1_555
C8E C5E 1_555 1_555
C9E C8E 1_555 1_555
H5E C9E 1_555 1_555
C10E C9E 1_555 1_555
C11E C10E 1_555 1_555
H6E C11E 1_555 1_555
C12E C11E 1_555 1_555
C13E C8E 1_555 1_555
H7E C13E 1_555 1_555
C14E C12E 1_555 1_555
C15E C10E 1_555 1_555
Cu2C O3E 1_555 1_555
O6C Cu2C 1_555 1_555
Cu1K Cu2 1_555 1_555
O5K Cu1K 1_555 1_555
Cu1A O1E 1_555 1_555
Cu1B O1B 1_555 1_555
Cu1C O1D 1_555 1_555
Cu1H O4D 1_555 1_555
Cu1I O4B 1_555 1_555
Cu1J O4E 1_555 1_555
Cu2A O3D 1_555 1_555
Cu2B O3B 1_555 1_555
Cu2H O2D 1_555 1_555
Cu2I Cu1 1_555 1_555
Cu2J O2E 1_555 1_555
Cu2K O2B 1_555 1_555
O1F Cu1 1_555 1_555
O1K Cu1K 1_555 1_555
O1L Cu1K 1_555 1_555
O2J Cu2C 1_555 1_555
O2K Cu2 1_555 1_555
O2L Cu2 1_555 1_555
O2O Cu2C 1_555 1_555
O3C Cu2C 1_555 1_555
O3G Cu2 1_555 1_555
O4G Cu1K 1_555 1_555
O4I Cu1 1_555 1_555
O4L Cu1 1_555 1_555
O2 Cu2I 1_555 1_555
O4 Cu1K 1_555 1_555
C6 C7 1_555 1_555
C12 C13 1_555 1_555
C6B C7B 1_555 1_555
C12B C13B 1_555 1_555
C6D C7D 1_555 1_555
C12D C13D 1_555 1_555
C6E C7E 1_555 1_555
C12E C13E 1_555 1_555
Cu2C Cu1J 1_555 1_555
Cu1A Cu2J 1_555 1_555
Cu1B Cu2K 1_555 1_555
Cu1C Cu2H 1_555 1_555
Cu1H Cu2A 1_555 1_555
Cu1I Cu2B 1_555 1_555

#END
