
#######################################################################
#
#                 Cambridge Crystallographic Data Centre
#                                CCDC 
#
#######################################################################
#
# If this CIF has been generated from an entry in the Cambridge 
# Structural Database, then it will include bibliographic, chemical, 
# crystal, experimental, refinement or atomic coordinate data resulting 
# from the CCDC's data processing and validation procedures.
#
#######################################################################

data_LAQNOJ
_chemical_formula_moiety         'C78 H46 Cu16 O32'
_symmetry_cell_setting           tetragonal
_symmetry_space_group_name_H-M   'I 4/m m m'
_symmetry_Int_Tables_number      139
_space_group_name_Hall           '-I 4 2'
loop_
_symmetry_equiv_pos_site_id
_symmetry_equiv_pos_as_xyz
1 x,y,z
2 -y,x,z
3 -x,-y,z
4 y,-x,z
5 x,-y,-z
6 -x,y,-z
7 y,x,-z
8 -y,-x,-z
9 1/2+x,1/2+y,1/2+z
10 1/2-y,1/2+x,1/2+z
11 1/2-x,1/2-y,1/2+z
12 1/2+y,1/2-x,1/2+z
13 1/2+x,1/2-y,1/2-z
14 1/2-x,1/2+y,1/2-z
15 1/2+y,1/2+x,1/2-z
16 1/2-y,1/2-x,1/2-z
17 -x,-y,-z
18 y,-x,-z
19 x,y,-z
20 -y,x,-z
21 -x,y,z
22 x,-y,z
23 -y,-x,z
24 y,x,z
25 1/2-x,1/2-y,1/2-z
26 1/2+y,1/2-x,1/2-z
27 1/2+x,1/2+y,1/2-z
28 1/2-y,1/2+x,1/2-z
29 1/2-x,1/2+y,1/2+z
30 1/2+x,1/2-y,1/2+z
31 1/2-y,1/2-x,1/2+z
32 1/2+y,1/2+x,1/2+z
_cell_length_a                   18.5871(5)
_cell_length_b                   18.5871(5)
_cell_length_c                   41.033(2)
_cell_angle_alpha                90
_cell_angle_beta                 90
_cell_angle_gamma                90
_cell_volume                     14176.1
loop_
_atom_site_label
_atom_site_type_symbol
_atom_site_fract_x
_atom_site_fract_y
_atom_site_fract_z
_atom_site_U_iso_or_equiv
_atom_site_thermal_displace_type
Cu1 Cu 0.28407(2) 0.28407(2) 0.22665(2) 0.0406 Uani
O1 O 0.13166(9) 0.23587(11) 0.24683(4) 0.0600 Uani
O2 O 0.18965(9) 0.29247(10) 0.20662(4) 0.0571 Uani
O3 O 0.34017(12) 0.34017(12) 0.18877(7) 0.0806 Uani
C1 C 0.0000 0.4263(3) 0.0000 0.0533 Uani
H1 H 0.0000 0.3763 0.0000 0.0640 Uiso
C2 C 0.0000 0.4628(2) 0.02950(7) 0.0506 Uani
C3 C 0.0000 0.4209(2) 0.06085(7) 0.0524 Uani
C4 C 0.0580(3) 0.4378(3) 0.08350(10) 0.0543 Uani
H2 H 0.0929 0.4717 0.0783 0.0650 Uiso
C5 C 0.0595(3) 0.4015(3) 0.11317(11) 0.0517 Uani
H3 H 0.0974 0.4084 0.1276 0.0620 Uiso
C6 C 0.0000 0.3516(2) 0.12139(8) 0.0558 Uani
C7 C -0.0453(3) 0.3351(3) 0.09858(11) 0.0560 Uani
H4 H -0.0794 0.2997 0.1027 0.0670 Uiso
C8 C -0.0450(3) 0.3682(3) 0.06830(11) 0.0557 Uani
H5 H -0.0776 0.3528 0.0526 0.0670 Uiso
C9 C 0.0000 0.3202(2) 0.15463(8) 0.0529 Uani
C10 C 0.06473(14) 0.30628(15) 0.17105(6) 0.0549 Uani
H6 H 0.1082 0.3159 0.1608 0.0660 Uiso
C11 C 0.06485(13) 0.27877(14) 0.20199(6) 0.0488 Uani
C12 C 0.0000 0.2640(2) 0.21787(8) 0.0495 Uani
H7 H 0.0000 0.2446 0.2388 0.0590 Uiso
C13 C 0.13361(14) 0.26752(15) 0.21983(6) 0.0500 Uani
O1B O -0.13166(9) 0.76413(11) 0.24683(4) 0.0600 Uani
O2B O -0.18965(9) 0.70753(10) 0.20662(4) 0.0571 Uani
C1B C 0.0000 0.5737(3) 0.0000 0.0533 Uani
H1B H 0.0000 0.6237 0.0000 0.0640 Uiso
C2B C 0.0000 0.5372(2) 0.02950(7) 0.0506 Uani
C3B C 0.0000 0.5791(2) 0.06085(7) 0.0524 Uani
C4B C -0.0580(3) 0.5622(3) 0.08350(10) 0.0543 Uani
H2B H -0.0929 0.5283 0.0783 0.0650 Uiso
C5B C -0.0595(3) 0.5985(3) 0.11317(11) 0.0517 Uani
H3B H -0.0974 0.5916 0.1276 0.0620 Uiso
C6B C 0.0000 0.6484(2) 0.12139(8) 0.0558 Uani
C7B C 0.0453(3) 0.6649(3) 0.09858(11) 0.0560 Uani
H4B H 0.0794 0.7003 0.1027 0.0670 Uiso
C8B C 0.0450(3) 0.6318(3) 0.06830(11) 0.0557 Uani
H5B H 0.0776 0.6472 0.0526 0.0670 Uiso
C9B C 0.0000 0.6798(2) 0.15463(8) 0.0529 Uani
C10B C -0.06473(14) 0.69372(15) 0.17105(6) 0.0549 Uani
H6B H -0.1082 0.6841 0.1608 0.0660 Uiso
C11B C -0.06485(13) 0.72123(14) 0.20199(6) 0.0488 Uani
C12B C 0.0000 0.7360(2) 0.21787(8) 0.0495 Uani
H7B H 0.0000 0.7554 0.2388 0.0590 Uiso
C13B C -0.13361(14) 0.73248(15) 0.21983(6) 0.0500 Uani
O1D O 0.13166(9) 0.76413(11) -0.24683(4) 0.0600 Uani
O2D O 0.18965(9) 0.70753(10) -0.20662(4) 0.0571 Uani
C2D C 0.0000 0.5372(2) -0.02950(7) 0.0506 Uani
C3D C 0.0000 0.5791(2) -0.06085(7) 0.0524 Uani
C4D C 0.0580(3) 0.5622(3) -0.08350(10) 0.0543 Uani
H2D H 0.0929 0.5283 -0.0783 0.0650 Uiso
C5D C 0.0595(3) 0.5985(3) -0.11317(11) 0.0517 Uani
H3D H 0.0974 0.5916 -0.1276 0.0620 Uiso
C6D C 0.0000 0.6484(2) -0.12139(8) 0.0558 Uani
C7D C -0.0453(3) 0.6649(3) -0.09858(11) 0.0560 Uani
H4D H -0.0794 0.7003 -0.1027 0.0670 Uiso
C8D C -0.0450(3) 0.6318(3) -0.06830(11) 0.0557 Uani
H5D H -0.0776 0.6472 -0.0526 0.0670 Uiso
C9D C 0.0000 0.6798(2) -0.15463(8) 0.0529 Uani
C10D C 0.06473(14) 0.69372(15) -0.17105(6) 0.0549 Uani
H6D H 0.1082 0.6841 -0.1608 0.0660 Uiso
C11D C 0.06485(13) 0.72123(14) -0.20199(6) 0.0488 Uani
C12D C 0.0000 0.7360(2) -0.21787(8) 0.0495 Uani
H7D H 0.0000 0.7554 -0.2388 0.0590 Uiso
C13D C 0.13361(14) 0.73248(15) -0.21983(6) 0.0500 Uani
O1E O -0.13166(9) 0.23587(11) -0.24683(4) 0.0600 Uani
O2E O -0.18965(9) 0.29247(10) -0.20662(4) 0.0571 Uani
C2E C -0.0000 0.4628(2) -0.02950(7) 0.0506 Uani
C3E C 0.0000 0.4209(2) -0.06085(7) 0.0524 Uani
C4E C -0.0580(3) 0.4378(3) -0.08350(10) 0.0543 Uani
H2E H -0.0929 0.4717 -0.0783 0.0650 Uiso
C5E C -0.0595(3) 0.4015(3) -0.11317(11) 0.0517 Uani
H3E H -0.0974 0.4084 -0.1276 0.0620 Uiso
C6E C 0.0000 0.3516(2) -0.12139(8) 0.0558 Uani
C7E C 0.0453(3) 0.3351(3) -0.09858(11) 0.0560 Uani
H4E H 0.0794 0.2997 -0.1027 0.0670 Uiso
C8E C 0.0450(3) 0.3682(3) -0.06830(11) 0.0557 Uani
H5E H 0.0776 0.3528 -0.0526 0.0670 Uiso
C9E C 0.0000 0.3202(2) -0.15463(8) 0.0529 Uani
C10E C -0.06473(14) 0.30628(15) -0.17105(6) 0.0549 Uani
H6E H -0.1082 0.3159 -0.1608 0.0660 Uiso
C11E C -0.06485(13) 0.27877(14) -0.20199(6) 0.0488 Uani
C12E C 0.0000 0.2640(2) -0.21787(8) 0.0495 Uani
H7E H 0.0000 0.2446 -0.2388 0.0590 Uiso
C13E C -0.13361(14) 0.26752(15) -0.21983(6) 0.0500 Uani
O1P O -0.13166(9) 0.76413(11) -0.24683(4) 0.0600 Uani
O2P O -0.18965(9) 0.70753(10) -0.20662(4) 0.0571 Uani
C4P C -0.0580(3) 0.5622(3) -0.08350(10) 0.0543 Uani
H2P H -0.0929 0.5283 -0.0783 0.0650 Uiso
C5P C -0.0595(3) 0.5985(3) -0.11317(11) 0.0517 Uani
H3P H -0.0974 0.5916 -0.1276 0.0620 Uiso
C7P C 0.0453(3) 0.6649(3) -0.09858(11) 0.0560 Uani
H4P H 0.0794 0.7003 -0.1027 0.0670 Uiso
C8P C 0.0450(3) 0.6318(3) -0.06830(11) 0.0557 Uani
H5P H 0.0776 0.6472 -0.0526 0.0670 Uiso
C10P C -0.06473(14) 0.69372(15) -0.17105(6) 0.0549 Uani
H6P H -0.1082 0.6841 -0.1608 0.0660 Uiso
C11P C -0.06485(13) 0.72123(14) -0.20199(6) 0.0488 Uani
C13P C -0.13361(14) 0.73248(15) -0.21983(6) 0.0500 Uani
O1R O 0.13166(9) 0.23587(11) -0.24683(4) 0.0600 Uani
O2R O 0.18965(9) 0.29247(10) -0.20662(4) 0.0571 Uani
C4R C 0.0580(3) 0.4378(3) -0.08350(10) 0.0543 Uani
H2R H 0.0929 0.4717 -0.0783 0.0650 Uiso
C5R C 0.0595(3) 0.4015(3) -0.11317(11) 0.0517 Uani
H3R H 0.0974 0.4084 -0.1276 0.0620 Uiso
C7R C -0.0453(3) 0.3351(3) -0.09858(11) 0.0560 Uani
H4R H -0.0794 0.2997 -0.1027 0.0670 Uiso
C8R C -0.0450(3) 0.3682(3) -0.06830(11) 0.0557 Uani
H5R H -0.0776 0.3528 -0.0526 0.0670 Uiso
C10R C 0.06473(14) 0.30628(15) -0.17105(6) 0.0549 Uani
H6R H 0.1082 0.3159 -0.1608 0.0660 Uiso
C11R C 0.06485(13) 0.27877(14) -0.20199(6) 0.0488 Uani
C13R C 0.13361(14) 0.26752(15) -0.21983(6) 0.0500 Uani
O1T O -0.13166(9) 0.23587(11) 0.24683(4) 0.0600 Uani
O2T O -0.18965(9) 0.29247(10) 0.20662(4) 0.0571 Uani
C4T C -0.0580(3) 0.4378(3) 0.08350(10) 0.0543 Uani
H2T H -0.0929 0.4717 0.0783 0.0650 Uiso
C5T C -0.0595(3) 0.4015(3) 0.11317(11) 0.0517 Uani
H3T H -0.0974 0.4084 0.1276 0.0620 Uiso
C7T C 0.0453(3) 0.3351(3) 0.09858(11) 0.0560 Uani
H4T H 0.0794 0.2997 0.1027 0.0670 Uiso
C8T C 0.0450(3) 0.3682(3) 0.06830(11) 0.0557 Uani
H5T H 0.0776 0.3528 0.0526 0.0670 Uiso
C10T C -0.06473(14) 0.30628(15) 0.17105(6) 0.0549 Uani
H6T H -0.1082 0.3159 0.1608 0.0660 Uiso
C11T C -0.06485(13) 0.27877(14) 0.20199(6) 0.0488 Uani
C13T C -0.13361(14) 0.26752(15) 0.21983(6) 0.0500 Uani
O1U O 0.13166(9) 0.76413(11) 0.24683(4) 0.0600 Uani
O2U O 0.18965(9) 0.70753(10) 0.20662(4) 0.0571 Uani
C4U C 0.0580(3) 0.5622(3) 0.08350(10) 0.0543 Uani
H2U H 0.0929 0.5283 0.0783 0.0650 Uiso
C5U C 0.0595(3) 0.5985(3) 0.11317(11) 0.0517 Uani
H3U H 0.0974 0.5916 0.1276 0.0620 Uiso
C7U C -0.0453(3) 0.6649(3) 0.09858(11) 0.0560 Uani
H4U H -0.0794 0.7003 0.1027 0.0670 Uiso
C8U C -0.0450(3) 0.6318(3) 0.06830(11) 0.0557 Uani
H5U H -0.0776 0.6472 0.0526 0.0670 Uiso
C10U C 0.06473(14) 0.69372(15) 0.17105(6) 0.0549 Uani
H6U H 0.1082 0.6841 0.1608 0.0660 Uiso
C11U C 0.06485(13) 0.72123(14) 0.20199(6) 0.0488 Uani
C13U C 0.13361(14) 0.73248(15) 0.21983(6) 0.0500 Uani
Cu1A Cu -0.28407(2) 0.28407(2) 0.22665(2) 0.0406 Uani
O3A O -0.34017(12) 0.34017(12) 0.18877(7) 0.0806 Uani
Cu1F Cu 0.28407(2) 0.28407(2) -0.22665(2) 0.0406 Uani
O3F O 0.34017(12) 0.34017(12) -0.18877(7) 0.0806 Uani
Cu1E Cu -0.28407(2) 0.28407(2) -0.22665(2) 0.0406 Uani
O3E O -0.34017(12) 0.34017(12) -0.18877(7) 0.0806 Uani
Cu1B Cu -0.28407(2) 0.71593(2) 0.22665(2) 0.0406 Uani
Cu1C Cu 0.28407(2) 0.71593(2) 0.22665(2) 0.0406 Uani
Cu1D Cu 0.28407(2) 0.71593(2) -0.22665(2) 0.0406 Uani
Cu1G Cu -0.28407(2) 0.71593(2) -0.22665(2) 0.0406 Uani
Cu1H Cu -0.21593(2) 0.78407(2) -0.27335(2) 0.0406 Uani
Cu1I Cu 0.21593(2) 0.78407(2) -0.27335(2) 0.0406 Uani
Cu1J Cu 0.21593(2) 0.21593(2) -0.27335(2) 0.0406 Uani
Cu1K Cu -0.21593(2) 0.21593(2) -0.27335(2) 0.0406 Uani
Cu1L Cu -0.21593(2) 0.21593(2) 0.27335(2) 0.0406 Uani
Cu1M Cu 0.21593(2) 0.78407(2) 0.27335(2) 0.0406 Uani
Cu1N Cu -0.21593(2) 0.78407(2) 0.27335(2) 0.0406 Uani
Cu1O Cu 0.21593(2) 0.21593(2) 0.27335(2) 0.0406 Uani
O1J O 0.36834(9) 0.26413(11) -0.25317(4) 0.0600 Uani
O1K O -0.26413(11) 0.36834(9) -0.25317(4) 0.0600 Uani
O1L O -0.36834(9) 0.26413(11) 0.25317(4) 0.0600 Uani
O1O O 0.26413(11) 0.36834(9) 0.25317(4) 0.0600 Uani
O1X O 0.36834(9) 0.26413(11) 0.25317(4) 0.0600 Uani
O1Y O -0.26413(11) 0.36834(9) 0.25317(4) 0.0600 Uani
O1CA O -0.36834(9) 0.26413(11) -0.25317(4) 0.0600 Uani
O1DA O 0.26413(11) 0.36834(9) -0.25317(4) 0.0600 Uani
O2A O -0.29247(10) 0.18965(9) 0.20662(4) 0.0571 Uani
O2F O 0.29247(10) 0.18965(9) -0.20662(4) 0.0571 Uani
O2S O -0.29247(10) 0.18965(9) -0.20662(4) 0.0571 Uani
O2W O 0.29247(10) 0.18965(9) 0.20662(4) 0.0571 Uani
loop_
_atom_site_aniso_label
_atom_site_aniso_U_11
_atom_site_aniso_U_22
_atom_site_aniso_U_33
_atom_site_aniso_U_23
_atom_site_aniso_U_13
_atom_site_aniso_U_12
Cu1 0.0421(2) 0.0421(2) 0.0376(3) 0.01181(13) 0.01181(13) 0.00630(19)
O1 0.0446(9) 0.0886(14) 0.0468(10) 0.0272(9) 0.0042(7) 0.0000(9)
O2 0.0422(9) 0.0751(12) 0.0539(11) 0.0260(9) 0.0072(8) 0.0066(8)
O3 0.0936(14) 0.0936(14) 0.0546(16) 0.0237(10) 0.0237(10) -0.0262(18)
C1 0.054(3) 0.075(3) 0.031(2) 0.000 0.000 0.000
C2 0.0496(18) 0.078(2) 0.0242(15) -0.0013(14) 0.000 0.000
C3 0.061(2) 0.074(2) 0.0222(15) 0.0029(15) 0.000 0.000
C4 0.053(3) 0.080(4) 0.030(2) 0.006(2) -0.001(2) -0.012(3)
C5 0.048(3) 0.072(3) 0.035(2) 0.008(2) -0.006(2) -0.010(2)
C6 0.071(2) 0.062(2) 0.0343(17) 0.0030(15) 0.000 0.000
C7 0.058(3) 0.072(3) 0.038(3) 0.006(2) -0.004(2) -0.009(3)
C8 0.062(3) 0.076(4) 0.029(2) 0.002(2) -0.010(2) -0.003(3)
C9 0.060(2) 0.064(2) 0.0346(17) 0.0081(15) 0.000 0.000
C10 0.0537(15) 0.0687(17) 0.0422(13) 0.0062(11) 0.0086(11) 0.0033(12)
C11 0.0465(13) 0.0620(15) 0.0380(12) 0.0073(10) 0.0015(10) 0.0017(11)
C12 0.0471(18) 0.062(2) 0.0393(17) 0.0086(15) 0.000 0.000
C13 0.0488(14) 0.0555(14) 0.0458(13) 0.0028(11) 0.0078(10) 0.0053(11)
O1B 0.0446 0.0886 0.0468 -0.0272 -0.0042 0
O2B 0.0422 0.0751 0.0539 -0.026 -0.0072 0.0066
C1B 0.054 0.075 0.031 0 0 0
C2B 0.0496 0.078 0.0242 0.0013 0 0
C3B 0.061 0.074 0.0222 -0.0029 0 0
C4B 0.053 0.08 0.03 -0.006 0.001 -0.012
C5B 0.048 0.072 0.035 -0.008 0.006 -0.01
C6B 0.071 0.062 0.0343 -0.003 0 0
C7B 0.058 0.072 0.038 -0.006 0.004 -0.009
C8B 0.062 0.076 0.029 -0.002 0.01 -0.003
C9B 0.06 0.064 0.0346 -0.0081 0 0
C10B 0.0537 0.0687 0.0422 -0.0062 -0.0086 0.0033
C11B 0.0465 0.062 0.038 -0.0073 -0.0015 0.0017
C12B 0.0471 0.062 0.0393 -0.0086 0 0
C13B 0.0488 0.0555 0.0458 -0.0028 -0.0078 0.0053
O1D 0.0446 0.0886 0.0468 0.0272 -0.0042 0
O2D 0.0422 0.0751 0.0539 0.026 -0.0072 -0.0066
C2D 0.0496 0.078 0.0242 -0.0013 0 0
C3D 0.061 0.074 0.0222 0.0029 0 0
C4D 0.053 0.08 0.03 0.006 0.001 0.012
C5D 0.048 0.072 0.035 0.008 0.006 0.01
C6D 0.071 0.062 0.0343 0.003 0 0
C7D 0.058 0.072 0.038 0.006 0.004 0.009
C8D 0.062 0.076 0.029 0.002 0.01 0.003
C9D 0.06 0.064 0.0346 0.0081 0 0
C10D 0.0537 0.0687 0.0422 0.0062 -0.0086 -0.0033
C11D 0.0465 0.062 0.038 0.0073 -0.0015 -0.0017
C12D 0.0471 0.062 0.0393 0.0086 0 0
C13D 0.0488 0.0555 0.0458 0.0028 -0.0078 -0.0053
O1E 0.0446 0.0886 0.0468 -0.0272 0.0042 0
O2E 0.0422 0.0751 0.0539 -0.026 0.0072 -0.0066
C2E 0.0496 0.078 0.0242 0.0013 0 0
C3E 0.061 0.074 0.0222 -0.0029 0 0
C4E 0.053 0.08 0.03 -0.006 -0.001 0.012
C5E 0.048 0.072 0.035 -0.008 -0.006 0.01
C6E 0.071 0.062 0.0343 -0.003 0 0
C7E 0.058 0.072 0.038 -0.006 -0.004 0.009
C8E 0.062 0.076 0.029 -0.002 -0.01 0.003
C9E 0.06 0.064 0.0346 -0.0081 0 0
C10E 0.0537 0.0687 0.0422 -0.0062 0.0086 -0.0033
C11E 0.0465 0.062 0.038 -0.0073 0.0015 -0.0017
C12E 0.0471 0.062 0.0393 -0.0086 0 0
C13E 0.0488 0.0555 0.0458 -0.0028 0.0078 -0.0053
O1P 0.0446 0.0886 0.0468 0.0272 0.0042 0
O2P 0.0422 0.0751 0.0539 0.026 0.0072 0.0066
C4P 0.053 0.08 0.03 0.006 -0.001 -0.012
C5P 0.048 0.072 0.035 0.008 -0.006 -0.01
C7P 0.058 0.072 0.038 0.006 -0.004 -0.009
C8P 0.062 0.076 0.029 0.002 -0.01 -0.003
C10P 0.0537 0.0687 0.0422 0.0062 0.0086 0.0033
C11P 0.0465 0.062 0.038 0.0073 0.0015 0.0017
C13P 0.0488 0.0555 0.0458 0.0028 0.0078 0.0053
O1R 0.0446 0.0886 0.0468 -0.0272 -0.0042 0
O2R 0.0422 0.0751 0.0539 -0.026 -0.0072 0.0066
C4R 0.053 0.08 0.03 -0.006 0.001 -0.012
C5R 0.048 0.072 0.035 -0.008 0.006 -0.01
C7R 0.058 0.072 0.038 -0.006 0.004 -0.009
C8R 0.062 0.076 0.029 -0.002 0.01 -0.003
C10R 0.0537 0.0687 0.0422 -0.0062 -0.0086 0.0033
C11R 0.0465 0.062 0.038 -0.0073 -0.0015 0.0017
C13R 0.0488 0.0555 0.0458 -0.0028 -0.0078 0.0053
O1T 0.0446 0.0886 0.0468 0.0272 -0.0042 0
O2T 0.0422 0.0751 0.0539 0.026 -0.0072 -0.0066
C4T 0.053 0.08 0.03 0.006 0.001 0.012
C5T 0.048 0.072 0.035 0.008 0.006 0.01
C7T 0.058 0.072 0.038 0.006 0.004 0.009
C8T 0.062 0.076 0.029 0.002 0.01 0.003
C10T 0.0537 0.0687 0.0422 0.0062 -0.0086 -0.0033
C11T 0.0465 0.062 0.038 0.0073 -0.0015 -0.0017
C13T 0.0488 0.0555 0.0458 0.0028 -0.0078 -0.0053
O1U 0.0446 0.0886 0.0468 -0.0272 0.0042 0
O2U 0.0422 0.0751 0.0539 -0.026 0.0072 -0.0066
C4U 0.053 0.08 0.03 -0.006 -0.001 0.012
C5U 0.048 0.072 0.035 -0.008 -0.006 0.01
C7U 0.058 0.072 0.038 -0.006 -0.004 0.009
C8U 0.062 0.076 0.029 -0.002 -0.01 0.003
C10U 0.0537 0.0687 0.0422 -0.0062 0.0086 -0.0033
C11U 0.0465 0.062 0.038 -0.0073 0.0015 -0.0017
C13U 0.0488 0.0555 0.0458 -0.0028 0.0078 -0.0053
Cu1A 0.0421 0.0421 0.0376 0.01181 -0.01181 -0.0063
O3A 0.0936 0.0936 0.0546 0.0237 -0.0237 0.0262
Cu1F 0.0421 0.0421 0.0376 -0.01181 -0.01181 0.0063
O3F 0.0936 0.0936 0.0546 -0.0237 -0.0237 -0.0262
Cu1E 0.0421 0.0421 0.0376 -0.01181 0.01181 -0.0063
O3E 0.0936 0.0936 0.0546 -0.0237 0.0237 0.0262
Cu1B 0.0421 0.0421 0.0376 -0.01181 -0.01181 0.0063
Cu1C 0.0421 0.0421 0.0376 -0.01181 0.01181 -0.0063
Cu1D 0.0421 0.0421 0.0376 0.01181 -0.01181 -0.0063
Cu1G 0.0421 0.0421 0.0376 0.01181 0.01181 0.0063
Cu1H 0.0421 0.0421 0.0376 0.01181 0.01181 0.0063
Cu1I 0.0421 0.0421 0.0376 0.01181 -0.01181 -0.0063
Cu1J 0.0421 0.0421 0.0376 -0.01181 -0.01181 0.0063
Cu1K 0.0421 0.0421 0.0376 -0.01181 0.01181 -0.0063
Cu1L 0.0421 0.0421 0.0376 0.01181 -0.01181 -0.0063
Cu1M 0.0421 0.0421 0.0376 -0.01181 0.01181 -0.0063
Cu1N 0.0421 0.0421 0.0376 -0.01181 -0.01181 0.0063
Cu1O 0.0421 0.0421 0.0376 0.01181 0.01181 0.0063
O1J 0.0446 0.0886 0.0468 -0.0272 -0.0042 0
O1K 0.0886 0.0446 0.0468 -0.0042 0.0272 0
O1L 0.0446 0.0886 0.0468 0.0272 -0.0042 0
O1O 0.0886 0.0446 0.0468 0.0042 0.0272 0
O1X 0.0446 0.0886 0.0468 0.0272 0.0042 0
O1Y 0.0886 0.0446 0.0468 0.0042 -0.0272 0
O1CA 0.0446 0.0886 0.0468 -0.0272 0.0042 0
O1DA 0.0886 0.0446 0.0468 -0.0042 -0.0272 0
O2A 0.0751 0.0422 0.0539 0.0072 -0.026 -0.0066
O2F 0.0751 0.0422 0.0539 -0.0072 -0.026 0.0066
O2S 0.0751 0.0422 0.0539 -0.0072 0.026 -0.0066
O2W 0.0751 0.0422 0.0539 0.0072 0.026 0.0066
loop_
_geom_bond_atom_site_label_1
_geom_bond_atom_site_label_2
_geom_bond_site_symmetry_1
_geom_bond_site_symmetry_2
Cu1 O2 1_555 1_555
O1 C13 1_555 1_555
O2 C13 1_555 1_555
O3 Cu1 1_555 1_555
C1 H1 1_555 1_555
C2 C1 1_555 1_555
C3 C2 1_555 1_555
C4 C3 1_555 1_555
H2 C4 1_555 1_555
C5 C4 1_555 1_555
H3 C5 1_555 1_555
C6 C5 1_555 1_555
C7 C6 1_555 1_555
H4 C7 1_555 1_555
C8 C3 1_555 1_555
H5 C8 1_555 1_555
C9 C6 1_555 1_555
C10 C9 1_555 1_555
H6 C10 1_555 1_555
C11 C10 1_555 1_555
C12 C11 1_555 1_555
H7 C12 1_555 1_555
C13 C11 1_555 1_555
O1B C13B 1_555 1_555
O2B C13B 1_555 1_555
C1B H1B 1_555 1_555
C2B C2 1_555 1_555
C3B C2B 1_555 1_555
C4B C3B 1_555 1_555
H2B C4B 1_555 1_555
C5B C4B 1_555 1_555
H3B C5B 1_555 1_555
C6B C5B 1_555 1_555
C7B C6B 1_555 1_555
H4B C7B 1_555 1_555
C8B C3B 1_555 1_555
H5B C8B 1_555 1_555
C9B C6B 1_555 1_555
C10B C9B 1_555 1_555
H6B C10B 1_555 1_555
C11B C10B 1_555 1_555
C12B C11B 1_555 1_555
H7B C12B 1_555 1_555
C13B C11B 1_555 1_555
O1D C13D 1_555 1_555
O2D C13D 1_555 1_555
C2D C1B 1_555 1_555
C3D C2D 1_555 1_555
C4D C3D 1_555 1_555
H2D C4D 1_555 1_555
C5D C4D 1_555 1_555
H3D C5D 1_555 1_555
C6D C5D 1_555 1_555
C7D C6D 1_555 1_555
H4D C7D 1_555 1_555
C8D C3D 1_555 1_555
H5D C8D 1_555 1_555
C9D C6D 1_555 1_555
C10D C9D 1_555 1_555
H6D C10D 1_555 1_555
C11D C10D 1_555 1_555
C12D C11D 1_555 1_555
H7D C12D 1_555 1_555
C13D C11D 1_555 1_555
O1E C13E 1_555 1_555
O2E C13E 1_555 1_555
C2E C1 1_555 1_555
C3E C2E 1_555 1_555
C4E C3E 1_555 1_555
H2E C4E 1_555 1_555
C5E C4E 1_555 1_555
H3E C5E 1_555 1_555
C6E C5E 1_555 1_555
C7E C6E 1_555 1_555
H4E C7E 1_555 1_555
C8E C3E 1_555 1_555
H5E C8E 1_555 1_555
C9E C6E 1_555 1_555
C10E C9E 1_555 1_555
H6E C10E 1_555 1_555
C11E C10E 1_555 1_555
C12E C11E 1_555 1_555
H7E C12E 1_555 1_555
C13E C11E 1_555 1_555
O1P C13P 1_555 1_555
O2P C13P 1_555 1_555
C4P C3D 1_555 1_555
H2P C4P 1_555 1_555
C5P C6D 1_555 1_555
H3P C5P 1_555 1_555
C7P C6D 1_555 1_555
H4P C7P 1_555 1_555
C8P C3D 1_555 1_555
H5P C8P 1_555 1_555
C10P C9D 1_555 1_555
H6P C10P 1_555 1_555
C11P C12D 1_555 1_555
C13P C11P 1_555 1_555
O1R C13R 1_555 1_555
O2R C13R 1_555 1_555
C4R C3E 1_555 1_555
H2R C4R 1_555 1_555
C5R C6E 1_555 1_555
H3R C5R 1_555 1_555
C7R C6E 1_555 1_555
H4R C7R 1_555 1_555
C8R C3E 1_555 1_555
H5R C8R 1_555 1_555
C10R C9E 1_555 1_555
H6R C10R 1_555 1_555
C11R C12E 1_555 1_555
C13R C11R 1_555 1_555
O1T C13T 1_555 1_555
O2T C13T 1_555 1_555
C4T C3 1_555 1_555
H2T C4T 1_555 1_555
C5T C6 1_555 1_555
H3T C5T 1_555 1_555
C7T C6 1_555 1_555
H4T C7T 1_555 1_555
C8T C3 1_555 1_555
H5T C8T 1_555 1_555
C10T C9 1_555 1_555
H6T C10T 1_555 1_555
C11T C12 1_555 1_555
C13T C11T 1_555 1_555
O1U C13U 1_555 1_555
O2U C13U 1_555 1_555
C4U C3B 1_555 1_555
H2U C4U 1_555 1_555
C5U C6B 1_555 1_555
H3U C5U 1_555 1_555
C7U C6B 1_555 1_555
H4U C7U 1_555 1_555
C8U C3B 1_555 1_555
H5U C8U 1_555 1_555
C10U C9B 1_555 1_555
H6U C10U 1_555 1_555
C11U C12B 1_555 1_555
C13U C11U 1_555 1_555
Cu1A O2T 1_555 1_555
O3A Cu1A 1_555 1_555
Cu1F O2R 1_555 1_555
O3F Cu1F 1_555 1_555
Cu1E O2E 1_555 1_555
O3E Cu1E 1_555 1_555
Cu1B O2B 1_555 1_555
Cu1C O2U 1_555 1_555
Cu1D O2D 1_555 1_555
Cu1G O2P 1_555 1_555
Cu1H O1P 1_555 1_555
Cu1I O1D 1_555 1_555
Cu1J O1R 1_555 1_555
Cu1K O1E 1_555 1_555
Cu1L O1T 1_555 1_555
Cu1M O1U 1_555 1_555
Cu1N O1B 1_555 1_555
Cu1O Cu1 1_555 1_555
O1J Cu1F 1_555 1_555
O1K Cu1E 1_555 1_555
O1L Cu1A 1_555 1_555
O1O Cu1 1_555 1_555
O1X Cu1 1_555 1_555
O1Y Cu1A 1_555 1_555
O1CA Cu1E 1_555 1_555
O1DA Cu1F 1_555 1_555
O2A Cu1A 1_555 1_555
O2F Cu1F 1_555 1_555
O2S Cu1E 1_555 1_555
O2W Cu1 1_555 1_555
O1 Cu1O 1_555 1_555
C7 C8 1_555 1_555
C1B C2B 1_555 1_555
C7B C8B 1_555 1_555
C2D C2E 1_555 1_555
C7D C8D 1_555 1_555
C7E C8E 1_555 1_555
C4P C5P 1_555 1_555
C7P C8P 1_555 1_555
C10P C11P 1_555 1_555
C4R C5R 1_555 1_555
C7R C8R 1_555 1_555
C10R C11R 1_555 1_555
C4T C5T 1_555 1_555
C7T C8T 1_555 1_555
C10T C11T 1_555 1_555
C4U C5U 1_555 1_555
C7U C8U 1_555 1_555
C10U C11U 1_555 1_555
Cu1A Cu1L 1_555 1_555
Cu1F Cu1J 1_555 1_555
Cu1E Cu1K 1_555 1_555
Cu1B Cu1N 1_555 1_555
Cu1C Cu1M 1_555 1_555
Cu1D Cu1I 1_555 1_555
Cu1G Cu1H 1_555 1_555

#END
