
#######################################################################
#
#                 Cambridge Crystallographic Data Centre
#                                CCDC 
#
#######################################################################
#
# If this CIF has been generated from an entry in the Cambridge 
# Structural Database, then it will include bibliographic, chemical, 
# crystal, experimental, refinement or atomic coordinate data resulting 
# from the CCDC's data processing and validation procedures.
#
#######################################################################

data_KORNAI
_chemical_formula_moiety         '(C38 H27 Co4 N9 O15)n'
_symmetry_cell_setting           triclinic
_symmetry_space_group_name_H-M   'P -1'
_symmetry_Int_Tables_number      2
_space_group_name_Hall           '-P 1'
loop_
_symmetry_equiv_pos_site_id
_symmetry_equiv_pos_as_xyz
1 x,y,z
2 -x,-y,-z
_cell_length_a                   12.1772(9)
_cell_length_b                   15.5314(13)
_cell_length_c                   15.8267(14)
_cell_angle_alpha                76.019(7)
_cell_angle_beta                 67.570(8)
_cell_angle_gamma                69.196(7)
_cell_volume                     2566.87
loop_
_atom_site_label
_atom_site_type_symbol
_atom_site_fract_x
_atom_site_fract_y
_atom_site_fract_z
Co1 Co 0.23510(6) 0.67961(5) 0.03105(5)
Co2 Co 0.04897(6) 0.63356(5) 0.26076(5)
Co3 Co 0.43755(6) 0.66382(5) -0.18964(5)
Co4 Co 0.04536(7) 1.03558(5) 0.21574(5)
C1 C 0.4784(5) 0.7441(4) -0.0685(4)
C2 C 0.5255(5) 0.7948(4) -0.0277(4)
C3 C 0.6161(5) 0.8375(4) -0.0792(4)
H1 H 0.6494 0.8372 -0.1427
C4 C 0.6573(5) 0.8815(4) -0.0349(4)
C5 C 0.6046(6) 0.8854(5) 0.0576(5)
H2 H 0.6323 0.9153 0.0863
C6 C 0.5107(6) 0.8456(6) 0.1092(4)
C7 C 0.4736(6) 0.7972(5) 0.0662(4)
H3 H 0.4140 0.7667 0.1007
C8 C 0.7617(6) 0.9211(4) -0.0881(5)
C9 C 0.3525(7) 0.8328(8) 0.2489(5)
H4 H 0.3688 0.7660 0.2582
H5 H 0.2959 0.8592 0.2134
C10 C 0.2918(7) 0.8686(7) 0.3403(5)
C11 C 0.3095(9) 0.9455(7) 0.3543(6)
H6 H 0.3598 0.9767 0.3064
C12 C 0.2531(8) 0.9761(6) 0.4386(6)
H7 H 0.2708 1.0258 0.4481
C13 C 0.1722(6) 0.9372(5) 0.5093(5)
C14 C 0.1502(8) 0.8617(8) 0.4944(6)
H8 H 0.0942 0.8339 0.5409
C15 C 0.2122(8) 0.8272(7) 0.4098(6)
H9 H 0.1989 0.7752 0.4006
C16 C 0.1151(7) 0.9694(6) 0.6019(5)
C17 C 0.3082(5) 0.5462(3) -0.1264(4)
C18 C 0.2351(5) 0.4787(4) -0.0805(4)
C19 C 0.1791(5) 0.4523(4) -0.1280(4)
H10 H 0.1919 0.4728 -0.1903
C20 C 0.1037(5) 0.3948(4) -0.0808(4)
C21 C 0.0849(5) 0.3634(4) 0.0116(4)
H11 H 0.0324 0.3264 0.0429
C22 C 0.1443(5) 0.3871(4) 0.0569(4)
C23 C 0.2173(5) 0.4450(4) 0.0111(4)
H12 H 0.2557 0.4619 0.0427
C24 C 0.0329(5) 0.3735(4) -0.1287(4)
C25 C 0.0503(6) 0.3120(5) 0.2049(4)
H13 H 0.0783 0.2488 0.1908
H14 H -0.0311 0.3425 0.1982
C26 C 0.0466(6) 0.3137(4) 0.3009(4)
C27 C 0.1174(8) 0.2428(5) 0.3444(5)
H15 H 0.1654 0.1889 0.3170
C28 C 0.1184(8) 0.2502(6) 0.4280(5)
H16 H 0.1673 0.2009 0.4569
C29 C 0.0507(6) 0.3270(5) 0.4700(4)
C30 C -0.0198(8) 0.3990(6) 0.4282(5)
H17 H -0.0674 0.4526 0.4563
C31 C -0.0200(8) 0.3917(5) 0.3435(5)
H18 H -0.0674 0.4417 0.3141
C32 C 0.0509(8) 0.3322(5) 0.5653(5)
C33 C 0.1433(5) 0.8662(4) 0.1156(4)
H19 H 0.1822 0.8980 0.0609
C34 C 0.0388(5) 0.8363(4) 0.2515(4)
H20 H -0.0106 0.8422 0.3126
C35 C 0.2874(5) 0.4675(4) 0.2415(4)
H21 H 0.2578 0.4315 0.2963
C36 C 0.4021(6) 0.5167(4) 0.1198(4)
H22 H 0.4723 0.5223 0.0700
C37 C 0.2014(5) 0.8252(4) -0.2153(4)
H23 H 0.2335 0.8345 -0.2793
C38 C 0.0856(5) 0.8347(4) -0.0819(4)
H24 H 0.0171 0.8528 -0.0304
N1 N 0.1476(4) 0.7791(3) 0.1238(3)
N2 N 0.0773(4) 0.7591(3) 0.2139(3)
N3 N 0.0778(4) 0.9044(3) 0.1931(3)
N4 N 0.2932(4) 0.5745(3) 0.1285(3)
N5 N 0.2165(4) 0.5423(3) 0.2094(3)
N6 N 0.4044(4) 0.4477(3) 0.1894(3)
N7 N 0.1861(4) 0.7733(3) -0.0768(3)
N8 N 0.2644(4) 0.7663(3) -0.1654(3)
N9 N 0.0878(4) 0.8712(3) -0.1687(3)
O1 O 0.4099(4) 0.6967(3) -0.0153(3)
O2 O 0.5084(4) 0.7513(3) -0.1552(3)
O3 O 0.8040(4) 0.9225(3) -0.1750(3)
O4 O 0.8097(4) 0.9496(3) -0.0469(3)
O5 O 0.0222(5) 0.9451(4) 0.6542(3)
O6 O 0.1612(6) 1.0163(5) 0.6233(4)
H25 H 0.1205 1.0291 0.6759
O7 O 0.4616(5) 0.8540(5) 0.2000(3)
O8 O 0.3292(3) 0.5855(2) -0.0753(3)
O9 O 0.3483(4) 0.5628(3) -0.2113(3)
O10 O 0.0702(3) 0.3841(3) -0.2157(3)
O11 O -0.0613(4) 0.3486(3) -0.0806(3)
O12 O 0.1320(6) 0.2789(5) 0.5947(4)
O13 O -0.0418(6) 0.3929(3) 0.6109(3)
O14 O 0.1366(4) 0.3613(3) 0.1464(3)
O15 O 0.4973(5) 0.7106(4) -0.3287(3)
H26 H 0.520(7) 0.763(3) -0.357(5)
H27 H 0.540(6) 0.654(2) -0.348(5)
Co1A Co -0.23510(6) 0.32039(5) -0.03105(5)
Co2A Co -0.04897(6) 0.36644(5) -0.26076(5)
Co2A_2 Co -0.04897(6) 0.36644(5) 0.73924(5)
Co3A Co 0.56245(6) 0.33618(5) 0.18964(5)
Co4A Co -0.04536(7) 0.96442(5) -0.21574(5)
Co4A_2 Co -0.04536(7) 0.96442(5) 0.78426(5)
Co4A_3 Co 0.95464(7) 0.96442(5) -0.21574(5)
N6A N 0.5956(4) 0.5523(3) -0.1894(3)
N9A N -0.0878(4) 1.1288(3) 0.1687(3)
O3A O 0.1960(4) 1.0775(3) 0.1750(3)
O5A O -0.0222(5) 1.0549(4) 0.3458(3)
O10A O -0.0702(3) 0.6159(3) 0.2157(3)
O11A O 0.0613(4) 0.6514(3) 0.0806(3)
O13A O 0.0418(6) 0.6071(3) 0.3891(3)
loop_
_geom_bond_atom_site_label_1
_geom_bond_atom_site_label_2
_geom_bond_site_symmetry_1
_geom_bond_site_symmetry_2
Co1 N1 1_555 1_555
Co2 N2 1_555 1_555
Co3 N8 1_555 1_555
Co4 N3 1_555 1_555
C1 C2 1_555 1_555
C2 C3 1_555 1_555
C3 H1 1_555 1_555
C4 C3 1_555 1_555
C5 C4 1_555 1_555
H2 C5 1_555 1_555
C6 C5 1_555 1_555
C7 C2 1_555 1_555
H3 C7 1_555 1_555
C8 C4 1_555 1_555
C9 H4 1_555 1_555
H5 C9 1_555 1_555
C10 C9 1_555 1_555
C11 C10 1_555 1_555
H6 C11 1_555 1_555
C12 C11 1_555 1_555
H7 C12 1_555 1_555
C13 C12 1_555 1_555
C14 C13 1_555 1_555
H8 C14 1_555 1_555
C15 C10 1_555 1_555
H9 C15 1_555 1_555
C16 C13 1_555 1_555
C17 C18 1_555 1_555
C18 C19 1_555 1_555
C19 H10 1_555 1_555
C20 C19 1_555 1_555
C21 C20 1_555 1_555
H11 C21 1_555 1_555
C22 C21 1_555 1_555
C23 C18 1_555 1_555
H12 C23 1_555 1_555
C24 C20 1_555 1_555
C25 H13 1_555 1_555
H14 C25 1_555 1_555
C26 C25 1_555 1_555
C27 C26 1_555 1_555
H15 C27 1_555 1_555
C28 C27 1_555 1_555
H16 C28 1_555 1_555
C29 C28 1_555 1_555
C30 C29 1_555 1_555
H17 C30 1_555 1_555
C31 C26 1_555 1_555
H18 C31 1_555 1_555
C32 C29 1_555 1_555
C33 H19 1_555 1_555
C34 H20 1_555 1_555
C35 H21 1_555 1_555
C36 H22 1_555 1_555
C37 H23 1_555 1_555
C38 H24 1_555 1_555
N1 C33 1_555 1_555
N2 C34 1_555 1_555
N3 C33 1_555 1_555
N4 Co1 1_555 1_555
N5 Co2 1_555 1_555
N6 C35 1_555 1_555
N7 Co1 1_555 1_555
N8 C37 1_555 1_555
N9 C37 1_555 1_555
O1 Co1 1_555 1_555
O2 Co3 1_555 1_555
O3 C8 1_555 1_555
O4 C8 1_555 1_555
O5 C16 1_555 1_555
O6 C16 1_555 1_555
H25 O6 1_555 1_555
O7 C6 1_555 1_555
O8 Co1 1_555 1_555
O9 Co3 1_555 1_555
O10 C24 1_555 1_555
O11 C24 1_555 1_555
O12 C32 1_555 1_555
O13 C32 1_555 1_555
O14 C22 1_555 1_555
O15 Co3 1_555 1_555
H26 O15 1_555 1_555
H27 O15 1_555 1_555
Co1A O11 1_555 1_555
Co2A O10 1_555 1_555
Co2A_2 O13 1_555 1_555
Co3A N6 1_555 1_555
Co4A N9 1_555 1_555
Co4A_2 O5 1_555 1_555
Co4A_3 O3 1_555 1_555
N6A Co3 1_555 1_555
N9A Co4 1_555 1_555
O3A Co4 1_555 1_555
O5A Co4 1_555 1_555
O10A Co2 1_555 1_555
O11A Co1 1_555 1_555
O13A Co2 1_555 1_555
Co3 O8 1_555 1_555
C1 O1 1_555 1_555
C1 O2 1_555 1_555
C6 C7 1_555 1_555
C9 O7 1_555 1_555
C14 C15 1_555 1_555
C17 O8 1_555 1_555
C17 O9 1_555 1_555
C22 C23 1_555 1_555
C25 O14 1_555 1_555
C30 C31 1_555 1_555
C34 N3 1_555 1_555
C35 N5 1_555 1_555
C36 N4 1_555 1_555
C36 N6 1_555 1_555
C38 N7 1_555 1_555
C38 N9 1_555 1_555
N1 N2 1_555 1_555
N4 N5 1_555 1_555
N7 N8 1_555 1_555

#END
