
#######################################################################
#
#                 Cambridge Crystallographic Data Centre
#                                CCDC 
#
#######################################################################
#
# If this CIF has been generated from an entry in the Cambridge 
# Structural Database, then it will include bibliographic, chemical, 
# crystal, experimental, refinement or atomic coordinate data resulting 
# from the CCDC's data processing and validation procedures.
#
#######################################################################

data_IYAJID
_chemical_formula_moiety         '(C52 H35 Cd3 N1 Na3 O26 3-)n'
_symmetry_cell_setting           monoclinic
_symmetry_space_group_name_H-M   'C 2/c'
_symmetry_Int_Tables_number      15
_space_group_name_Hall           '-C 2yc'
loop_
_symmetry_equiv_pos_site_id
_symmetry_equiv_pos_as_xyz
1 x,y,z
2 -x,y,1/2-z
3 1/2+x,1/2+y,z
4 1/2-x,1/2+y,1/2-z
5 -x,-y,-z
6 x,-y,1/2+z
7 1/2-x,1/2-y,-z
8 1/2+x,1/2-y,1/2+z
_cell_length_a                   18.4148(9)
_cell_length_b                   29.5574(15)
_cell_length_c                   16.3155(8)
_cell_angle_alpha                90
_cell_angle_beta                 119.2690(10)
_cell_angle_gamma                90
_cell_volume                     7746.69
loop_
_atom_site_label
_atom_site_type_symbol
_atom_site_fract_x
_atom_site_fract_y
_atom_site_fract_z
O13 O 0.0000 0.6402(5) -0.2500
O14 O 0.3366(11) 0.5750(5) 0.6265(10)
N1 N 0.2296(14) 0.5608(5) 0.6456(10)
C25 C 0.3031(18) 0.5510(6) 0.6616(14)
C26 C 0.3244(16) 0.5067(6) 0.7052(13)
H13 H 0.2939 0.4840 0.6589
H14 H 0.3097 0.5055 0.7541
H15 H 0.3830 0.5013 0.7316
C27 C 0.1900(14) 0.5978(6) 0.5977(13)
H16 H 0.1821 0.6182 0.6384
H17 H 0.1368 0.5894 0.5462
H18 H 0.2225 0.6124 0.5740
C28 C 0.1934(13) 0.5325(7) 0.6836(14)
H19 H 0.1601 0.5101 0.6381
H20 H 0.1588 0.5501 0.7005
H21 H 0.2362 0.5179 0.7386
Cd1 Cd 0.095611(17) 0.630631(10) 0.13057(2)
Cd2 Cd 0.5000 0.632537(14) 0.2500
O1 O 0.09089(19) 0.59639(10) 0.2496(2)
O2 O 0.0609(2) 0.43044(12) 0.5327(3)
O3 O -0.04112(19) 0.66197(11) 0.0841(2)
O4 O -0.29411(19) 0.82704(11) -0.2785(2)
O5 O 0.36700(18) 0.66394(11) 0.1769(2)
O6 O 0.5561(2) 0.57734(15) 0.3656(3)
O7 O 0.2137(2) 0.57013(13) 0.2782(3)
O8 O 0.1863(2) 0.40501(11) 0.5733(2)
O9 O -0.3799(2) 0.79523(12) -0.2361(3)
O10 O 0.4519(2) 0.69354(15) 0.1334(3)
O11 O 0.0259(2) 0.68179(13) 0.0095(2)
C1 C 0.2096(3) 0.5032(2) 0.3989(4)
H1 H 0.2555 0.5036 0.3895
O12 O 0.4272(2) 0.59182(13) 0.3274(3)
C2 C 0.3303(3) 0.75673(18) 0.0169(4)
H2 H 0.3844 0.7614 0.0284
C3 C -0.2484(3) 0.73994(17) -0.1047(3)
H3 H -0.2983 0.7392 -0.1033
C4 C 0.2040(3) 0.47028(19) 0.4566(4)
H4 H 0.2461 0.4489 0.4856
C5 C -0.1828(3) 0.71284(17) -0.0437(3)
H5 H -0.1889 0.6941 -0.0016
C6 C -0.3107(3) 0.79872(15) -0.2319(3)
C7 C -0.1083(3) 0.71338(16) -0.0449(3)
C8 C 0.0750(3) 0.50120(17) 0.4281(4)
H6 H 0.0292 0.5006 0.4376
C9 C 0.4309(3) 0.52751(19) 0.4571(4)
H7 H 0.3843 0.5461 0.4286
C10 C 0.1478(3) 0.53542(16) 0.3554(3)
C11 C 0.1364(3) 0.46928(16) 0.4708(3)
C12 C 0.1524(3) 0.56989(16) 0.2907(3)
C13 C 0.4959(3) 0.53374(18) 0.4387(4)
C14 C -0.1009(3) 0.74086(19) -0.1077(4)
H8 H -0.0511 0.7412 -0.1094
C15 C 0.2325(3) 0.71572(18) 0.0451(4)
H9 H 0.2208 0.6927 0.0757
C16 C 0.3140(3) 0.72205(17) 0.0626(3)
C17 C 0.5651(3) 0.5059(2) 0.4827(4)
H10 H 0.6094 0.5099 0.4712
C18 C -0.2406(3) 0.76793(16) -0.1672(3)
C19 C -0.1657(3) 0.76811(18) -0.1686(4)
H11 H -0.1593 0.7867 -0.2107
C20 C 0.3824(3) 0.69154(17) 0.1287(3)
C21 C 0.0803(3) 0.53405(17) 0.3715(4)
H12 H 0.0383 0.5555 0.3437
C22 C -0.0367(3) 0.68374(15) 0.0211(3)
C23 C 0.1281(3) 0.43241(16) 0.5305(3)
C24 C 0.4922(3) 0.57014(18) 0.3725(4)
Na1 Na 0.29578(10) 0.61398(6) 0.22518(13)
Na2 Na -0.0000 0.65814(9) 0.2500
O5F O 0.13300(18) 0.83606(11) -0.1769(2)
O10F O 0.0481(2) 0.80646(15) -0.1334(3)
C2F C 0.1697(3) 0.74327(18) -0.0169(4)
H2F H 0.1156 0.7386 -0.0284
C15F C 0.2675(3) 0.78428(18) -0.0451(4)
H9F H 0.2792 0.8073 -0.0757
C16F C 0.1860(3) 0.77795(17) -0.0626(3)
C20F C 0.1176(3) 0.80846(17) -0.1287(3)
O6D O 0.4439(2) 0.42266(15) 0.6344(3)
O12D O 0.5728(2) 0.40818(13) 0.6726(3)
C9D C 0.5691(3) 0.47249(19) 0.5429(4)
H7D H 0.6157 0.4539 0.5714
C13D C 0.5041(3) 0.46626(18) 0.5613(4)
C17D C 0.4349(3) 0.4941(2) 0.5173(4)
H10D H 0.3906 0.4901 0.5288
C24D C 0.5078(3) 0.42986(18) 0.6275(4)
Cd1A Cd -0.095611(17) 0.630631(10) 0.36943(2)
O1A O -0.09089(19) 0.59639(10) 0.2504(2)
O2A O -0.0609(2) 0.43044(12) -0.0327(3)
O3A O 0.04112(19) 0.66197(11) 0.4159(2)
O4A O 0.29411(19) 0.82704(11) 0.7785(2)
O7A O -0.2137(2) 0.57013(13) 0.2218(3)
O8A O -0.1863(2) 0.40501(11) -0.0733(2)
O9A O 0.3799(2) 0.79523(12) 0.7361(3)
O11A O -0.0259(2) 0.68179(13) 0.4905(2)
C1A C -0.2096(3) 0.5032(2) 0.1011(4)
H1A H -0.2555 0.5036 0.1105
C3A C 0.2484(3) 0.73994(17) 0.6047(3)
H3A H 0.2983 0.7392 0.6033
C4A C -0.2040(3) 0.47028(19) 0.0434(4)
H4A H -0.2461 0.4489 0.0144
C5A C 0.1828(3) 0.71284(17) 0.5437(3)
H5A H 0.1889 0.6941 0.5016
C6A C 0.3107(3) 0.79872(15) 0.7319(3)
C7A C 0.1083(3) 0.71338(16) 0.5449(3)
C8A C -0.0750(3) 0.50120(17) 0.0719(4)
H6A H -0.0292 0.5006 0.0624
C10A C -0.1478(3) 0.53542(16) 0.1446(3)
C11A C -0.1364(3) 0.46928(16) 0.0292(3)
C12A C -0.1524(3) 0.56989(16) 0.2093(3)
C14A C 0.1009(3) 0.74086(19) 0.6077(4)
H8A H 0.0511 0.7412 0.6094
C18A C 0.2406(3) 0.76793(16) 0.6672(3)
C19A C 0.1657(3) 0.76811(18) 0.6686(4)
H11A H 0.1593 0.7867 0.7107
C21A C -0.0803(3) 0.53405(17) 0.1285(4)
H12A H -0.0383 0.5555 0.1563
C22A C 0.0367(3) 0.68374(15) 0.4789(3)
C23A C -0.1281(3) 0.43241(16) -0.0305(3)
Na1A Na -0.29578(10) 0.61398(6) 0.27482(13)
Cd1D Cd -0.095611(17) 0.369369(10) -0.13057(2)
Cd1E Cd 0.095611(17) 0.369369(10) 0.63057(2)
Cd1F Cd 0.404389(17) 0.869369(10) 0.86943(2)
Cd1G Cd -0.404389(17) 0.869369(10) -0.36943(2)
Cd2D Cd 0.5000 0.367463(14) 0.7500
Cd2F Cd 0.0000 0.867463(14) -0.2500
O2D O -0.0609(2) 0.56956(12) 0.4673(3)
O2E O 0.0609(2) 0.56956(12) 0.0327(3)
O4F O -0.20589(19) 0.67296(11) 0.2785(2)
O4G O 0.20589(19) 0.67296(11) 0.2215(2)
O5A O -0.36700(18) 0.66394(11) 0.3231(2)
O5A_2 O 0.63300(18) 0.66394(11) 0.3231(2)
O6A O 0.4439(2) 0.57734(15) 0.1344(3)
O8D O -0.1863(2) 0.59499(11) 0.4267(2)
O8E O 0.1863(2) 0.59499(11) 0.0733(2)
O9F O -0.1201(2) 0.70477(12) 0.2361(3)
O9G O 0.1201(2) 0.70477(12) 0.2639(3)
O10A O 0.5481(2) 0.69354(15) 0.3666(3)
O12A O -0.4272(2) 0.59182(13) 0.1726(3)
O12A_2 O 0.5728(2) 0.59182(13) 0.1726(3)
Na1D Na -0.29578(10) 0.38602(6) -0.22518(13)
Na1D_2 Na 0.70422(10) 0.38602(6) 0.77482(13)
Na1E Na 0.29578(10) 0.38602(6) 0.72518(13)
Na1F Na 0.20422(10) 0.88602(6) -0.22518(13)
Na1F_2 Na 0.20422(10) 0.88602(6) 0.77482(13)
Na1G Na -0.20422(10) 0.88602(6) -0.27482(13)
Na2F Na -0.5000 0.84186(9) -0.2500
Na2F_2 Na 0.5000 0.84186(9) 0.7500
loop_
_geom_bond_atom_site_label_1
_geom_bond_atom_site_label_2
_geom_bond_site_symmetry_1
_geom_bond_site_symmetry_2
Cd1 O1 1_555 1_555
Cd2 O5 1_555 1_555
O1 C12 1_555 1_555
O2 C23 1_555 1_555
O3 Cd1 1_555 1_555
O4 C6 1_555 1_555
O5 C20 1_555 1_555
O6 Cd2 1_555 1_555
O7 C12 1_555 1_555
O8 C23 1_555 1_555
O9 C6 1_555 1_555
O10 Cd2 1_555 1_555
O11 Cd1 1_555 1_555
C1 H1 1_555 1_555
O12 Cd2 1_555 1_555
C2 H2 1_555 1_555
C3 H3 1_555 1_555
C4 C1 1_555 1_555
H4 C4 1_555 1_555
C5 C3 1_555 1_555
H5 C5 1_555 1_555
C6 C18 1_555 1_555
C7 C5 1_555 1_555
C8 H6 1_555 1_555
C9 H7 1_555 1_555
C10 C1 1_555 1_555
C11 C4 1_555 1_555
C12 C10 1_555 1_555
C13 C9 1_555 1_555
C14 C7 1_555 1_555
H8 C14 1_555 1_555
C15 H9 1_555 1_555
C16 C2 1_555 1_555
C17 C13 1_555 1_555
H10 C17 1_555 1_555
C18 C3 1_555 1_555
C19 C14 1_555 1_555
H11 C19 1_555 1_555
C20 O10 1_555 1_555
C21 C8 1_555 1_555
H12 C21 1_555 1_555
C22 O3 1_555 1_555
C23 C11 1_555 1_555
C24 O6 1_555 1_555
Na1 O5 1_555 1_555
Na2 O1 1_555 1_555
O14 C25 1_555 1_555
N1 C25 1_555 1_555
C25 C26 1_555 1_555
C26 H13 1_555 1_555
H14 C26 1_555 1_555
H15 C26 1_555 1_555
C27 N1 1_555 1_555
H16 C27 1_555 1_555
H17 C27 1_555 1_555
H18 C27 1_555 1_555
C28 N1 1_555 1_555
H19 C28 1_555 1_555
H20 C28 1_555 1_555
H21 C28 1_555 1_555
O5F C20F 1_555 1_555
O10F C20F 1_555 1_555
C2F C15 1_555 1_555
H2F C2F 1_555 1_555
C15F C2 1_555 1_555
H9F C15F 1_555 1_555
C16F C2F 1_555 1_555
C20F C16F 1_555 1_555
O6D C24D 1_555 1_555
O12D C24D 1_555 1_555
C9D C17 1_555 1_555
H7D C9D 1_555 1_555
C13D C9D 1_555 1_555
C17D C9 1_555 1_555
H10D C17D 1_555 1_555
C24D C13D 1_555 1_555
Cd1A O1A 1_555 1_555
O1A Na2 1_555 1_555
O2A C23A 1_555 1_555
O3A Na2 1_555 1_555
O4A C6A 1_555 1_555
O7A C12A 1_555 1_555
O8A C23A 1_555 1_555
O9A C6A 1_555 1_555
O11A Cd1A 1_555 1_555
C1A H1A 1_555 1_555
C3A H3A 1_555 1_555
C4A C1A 1_555 1_555
H4A C4A 1_555 1_555
C5A C3A 1_555 1_555
H5A C5A 1_555 1_555
C6A C18A 1_555 1_555
C7A C5A 1_555 1_555
C8A H6A 1_555 1_555
C10A C1A 1_555 1_555
C11A C4A 1_555 1_555
C12A O1A 1_555 1_555
C14A C7A 1_555 1_555
H8A C14A 1_555 1_555
C18A C3A 1_555 1_555
C19A C14A 1_555 1_555
H11A C19A 1_555 1_555
C21A C8A 1_555 1_555
H12A C21A 1_555 1_555
C22A O3A 1_555 1_555
C23A C11A 1_555 1_555
Na1A O7A 1_555 1_555
Cd1D O2A 1_555 1_555
Cd1E O2 1_555 1_555
Cd1F O4A 1_555 1_555
Cd1G O4 1_555 1_555
Cd2D O6D 1_555 1_555
Cd2F O5F 1_555 1_555
O2D Cd1A 1_555 1_555
O2E Cd1 1_555 1_555
O4F Cd1A 1_555 1_555
O4G Cd1 1_555 1_555
O5A Na1A 1_555 1_555
O5A_2 Cd2 1_555 1_555
O6A Cd2 1_555 1_555
O8D Cd1A 1_555 1_555
O8E Cd1 1_555 1_555
O9F Na2 1_555 1_555
O9G Na2 1_555 1_555
O10A Cd2 1_555 1_555
O12A Na1A 1_555 1_555
O12A_2 Cd2 1_555 1_555
Na1D O8A 1_555 1_555
Na1D_2 O12D 1_555 1_555
Na1E O8 1_555 1_555
Na1F O5F 1_555 1_555
Na1F_2 O4A 1_555 1_555
Na1G O4 1_555 1_555
Na2F O9 1_555 1_555
Na2F_2 O9A 1_555 1_555
O3 Na2 1_555 1_555
O7 Na1 1_555 1_555
O8 Cd1E 1_555 1_555
O11 C22 1_555 1_555
O12 C24 1_555 1_555
O12 Na1 1_555 1_555
C7 C22 1_555 1_555
C8 C11 1_555 1_555
C10 C21 1_555 1_555
C13 C24 1_555 1_555
C15 C16 1_555 1_555
C16 C20 1_555 1_555
C18 C19 1_555 1_555
Na1 O4G 1_555 1_555
Na1 O8E 1_555 1_555
O10F Cd2F 1_555 1_555
C15F C16F 1_555 1_555
O12D Cd2D 1_555 1_555
C13D C17D 1_555 1_555
Cd1A O3A 1_555 1_555
O8A Cd1D 1_555 1_555
O11A C22A 1_555 1_555
C7A C22A 1_555 1_555
C8A C11A 1_555 1_555
C10A C12A 1_555 1_555
C10A C21A 1_555 1_555
C18A C19A 1_555 1_555
Na1A O4F 1_555 1_555
Na1A O8D 1_555 1_555

#END
