
#######################################################################
#
#                 Cambridge Crystallographic Data Centre
#                                CCDC 
#
#######################################################################
#
# If this CIF has been generated from an entry in the Cambridge 
# Structural Database, then it will include bibliographic, chemical, 
# crystal, experimental, refinement or atomic coordinate data resulting 
# from the CCDC's data processing and validation procedures.
#
#######################################################################

data_IYAKAW
_chemical_formula_moiety         '(C52 H41 Cd3 Mg3 N1 O29)n'
_symmetry_cell_setting           monoclinic
_symmetry_space_group_name_H-M   'C 2/c'
_symmetry_Int_Tables_number      15
_space_group_name_Hall           '-C 2yc'
loop_
_symmetry_equiv_pos_site_id
_symmetry_equiv_pos_as_xyz
1 x,y,z
2 -x,y,1/2-z
3 1/2+x,1/2+y,z
4 1/2-x,1/2+y,1/2-z
5 -x,-y,-z
6 x,-y,1/2+z
7 1/2-x,1/2-y,-z
8 1/2+x,1/2-y,1/2+z
_cell_length_a                   18.5166(7)
_cell_length_b                   29.4652(8)
_cell_length_c                   16.3850(4)
_cell_angle_alpha                90
_cell_angle_beta                 119.388(3)
_cell_angle_gamma                90
_cell_volume                     7789.2
loop_
_atom_site_label
_atom_site_type_symbol
_atom_site_fract_x
_atom_site_fract_y
_atom_site_fract_z
Cd1 Cd 1.0000 0.632791(18) 0.7500
Cd2 Cd 0.59588(2) 0.630763(13) 0.63170(2)
Mg1 Mg 0.79591(14) 0.61451(9) 0.72677(18)
O1 O 0.5621(3) 0.56930(18) 0.5350(4)
O2 O 0.9446(3) 0.5777(2) 0.6347(4)
O3 O 0.4605(3) 0.66207(16) 0.5855(3)
O4 O 0.2055(3) 0.82658(15) 0.2221(3)
O5 O 0.7144(3) 0.4284(2) 0.2824(4)
O6 O 0.1209(3) 0.79479(18) 0.2655(3)
O7 O 0.5904(3) 0.40338(15) 0.2500(3)
O8 O 0.6873(3) 0.59418(17) 0.5759(3)
O9 O 0.9509(3) 0.6945(2) 0.6347(4)
O10 O 0.8665(3) 0.66396(15) 0.6777(3)
O11 O 0.5261(3) 0.68191(18) 0.5106(3)
O12 O 1.0734(3) 0.59152(19) 0.6747(4)
C1 C 0.3185(4) 0.7122(2) 0.4578(4)
H1 H 0.3126 0.6931 0.5009
C2 C 0.2521(4) 0.7395(2) 0.3957(4)
H2 H 0.2011 0.7384 0.3963
C3 C 0.3927(4) 0.7131(2) 0.4564(4)
C4 C 1.0045(4) 0.5336(2) 0.5626(4)
C5 C 0.3985(4) 0.7406(3) 0.3928(5)
H3 H 0.4486 0.7408 0.3903
C6 C 1.0685(4) 0.5276(3) 0.5426(5)
H4 H 1.1159 0.5467 0.5713
C7 C 0.1893(4) 0.7987(2) 0.2684(4)
C8 C 0.7056(5) 0.5276(3) 0.4615(6)
H5 H 0.7493 0.5488 0.4929
C9 C 0.6368(4) 0.5295(2) 0.4738(4)
C10 C 0.8302(4) 0.7567(3) 0.5167(5)
H6 H 0.8851 0.7615 0.5281
C11 C 0.9363(4) 0.5056(3) 0.5182(5)
H7 H 0.8914 0.5095 0.5301
C12 C 0.6528(4) 0.4292(2) 0.2925(5)
C13 C 0.7337(4) 0.7158(3) 0.5465(5)
H8 H 0.7221 0.6923 0.5782
C14 C 0.8140(4) 0.7220(2) 0.5638(4)
C15 C 0.2604(4) 0.7678(2) 0.3338(4)
C16 C 0.5744(4) 0.4990(3) 0.4275(5)
H9 H 0.5265 0.5004 0.4344
C17 C 1.0080(4) 0.5699(2) 0.6265(5)
C18 C 0.6286(4) 0.5666(2) 0.5324(4)
C19 C 0.4635(4) 0.6835(2) 0.5221(4)
C20 C 0.5800(4) 0.4664(3) 0.3710(5)
H10 H 0.5362 0.4451 0.3404
C21 C 0.3340(4) 0.7682(3) 0.3322(5)
H11 H 0.3404 0.7874 0.2895
C22 C 0.8822(4) 0.6921(2) 0.6301(5)
C23 C 0.7111(4) 0.4953(3) 0.4041(6)
H12 H 0.7586 0.4945 0.3962
C24 C 0.6482(4) 0.4640(2) 0.3578(4)
Mg2 Mg 0.5000 0.65793(14) 0.7500
O2D O 1.0554(3) 0.4223(2) 0.3653(4)
O12D O 0.9266(3) 0.40848(19) 0.3253(4)
C4D C 0.9955(4) 0.4664(2) 0.4374(4)
C6D C 0.9315(4) 0.4724(3) 0.4574(5)
H4D H 0.8841 0.4533 0.4287
C11D C 1.0637(4) 0.4944(3) 0.4818(5)
H7D H 1.1086 0.4905 0.4699
C17D C 0.9920(4) 0.4301(2) 0.3735(5)
O9F O 0.5491(3) 0.8055(2) 0.3653(4)
O10F O 0.6335(3) 0.83604(15) 0.3223(3)
C10F C 0.6698(4) 0.7433(3) 0.4833(5)
H6F H 0.6149 0.7385 0.4719
C13F C 0.7663(4) 0.7842(3) 0.4535(5)
H8F H 0.7779 0.8077 0.4218
C14F C 0.6860(4) 0.7780(2) 0.4362(4)
C22F C 0.6178(4) 0.8079(2) 0.3699(5)
Cd2A Cd 0.40412(2) 0.630763(13) 0.86830(2)
Mg1A Mg 0.20409(14) 0.61451(9) 0.77323(18)
O1A O 0.4379(3) 0.56930(18) 0.9650(4)
O3A O 0.5395(3) 0.66207(16) 0.9145(3)
O4A O 0.7945(3) 0.82658(15) 1.2779(3)
O5A O 0.2856(3) 0.4284(2) 1.2176(4)
O6A O 0.8791(3) 0.79479(18) 1.2345(3)
O7A O 0.4096(3) 0.40338(15) 1.2500(3)
O8A O 0.3127(3) 0.59418(17) 0.9241(3)
O11A O 0.4739(3) 0.68191(18) 0.9894(3)
C1A C 0.6815(4) 0.7122(2) 1.0422(4)
H1A H 0.6874 0.6931 0.9991
C2A C 0.7479(4) 0.7395(2) 1.1043(4)
H2A H 0.7989 0.7384 1.1037
C3A C 0.6073(4) 0.7131(2) 1.0436(4)
C5A C 0.6015(4) 0.7406(3) 1.1072(5)
H3A H 0.5514 0.7408 1.1097
C7A C 0.8107(4) 0.7987(2) 1.2316(4)
C8A C 0.2944(5) 0.5276(3) 1.0385(6)
H5A H 0.2507 0.5488 1.0071
C9A C 0.3632(4) 0.5295(2) 1.0262(4)
C12A C 0.3472(4) 0.4292(2) 1.2075(5)
C15A C 0.7396(4) 0.7678(2) 1.1662(4)
C16A C 0.4256(4) 0.4990(3) 1.0725(5)
H9A H 0.4735 0.5004 1.0656
C18A C 0.3714(4) 0.5666(2) 0.9676(4)
C19A C 0.5365(4) 0.6835(2) 0.9779(4)
C20A C 0.4200(4) 0.4664(3) 1.1290(5)
H10A H 0.4638 0.4451 1.1596
C21A C 0.6660(4) 0.7682(3) 1.1678(5)
H11A H 0.6596 0.7874 1.2105
C23A C 0.2889(4) 0.4953(3) 1.0959(6)
H12A H 0.2414 0.4945 1.1038
C24A C 0.3518(4) 0.4640(2) 1.1422(4)
Cd1D Cd 1.0000 0.367209(18) 0.2500
Cd1F Cd 0.5000 0.867209(18) 0.2500
Cd2D Cd 0.40412(2) 0.369237(13) 1.36830(2)
Cd2E Cd 0.59588(2) 0.369237(13) 0.13170(2)
Cd2F Cd 0.90412(2) 0.869237(13) 1.36830(2)
Cd2G Cd 0.09588(2) 0.869237(13) 0.13170(2)
Mg1A_2 Mg 1.20409(14) 0.61451(9) 0.77323(18)
Mg1D Mg 0.20409(14) 0.38549(9) 1.27323(18)
Mg1E Mg 0.79591(14) 0.38549(9) 0.22677(18)
Mg1F Mg 0.70409(14) 0.88549(9) 0.27323(18)
Mg1F_2 Mg 0.70409(14) 0.88549(9) 1.27323(18)
Mg1G Mg 0.29591(14) 0.88549(9) 0.22677(18)
O2A O 1.0554(3) 0.5777(2) 0.8653(4)
O4F O 0.2945(3) 0.67342(15) 0.7779(3)
O4G O 0.7055(3) 0.67342(15) 0.7221(3)
O5D O 0.2856(3) 0.5716(2) 0.7176(4)
O5E O 0.7144(3) 0.5716(2) 0.7824(4)
O7D O 0.4096(3) 0.59662(15) 0.7500(3)
O7E O 0.5904(3) 0.59662(15) 0.7500(3)
O9A O 1.0491(3) 0.6945(2) 0.8653(4)
O10A O 0.1335(3) 0.66396(15) 0.8223(3)
O10A_2 O 1.1335(3) 0.66396(15) 0.8223(3)
O12_2 O 0.0734(3) 0.59152(19) 0.6747(4)
O12A O 0.9266(3) 0.59152(19) 0.8253(4)
Mg2D Mg 0.5000 0.34207(14) 0.2500
Mg2D_2 Mg 0.5000 0.34207(14) 1.2500
N1 N 0.7293(14) 0.4390(6) 0.6472(13)
O13 O 0.8387(11) 0.4258(6) 0.6329(10)
C25 C 0.8458(17) 0.4924(9) 0.7030(17)
H13 H 0.8261 0.5166 0.6580
H14 H 0.9051 0.4904 0.7315
H15 H 0.8307 0.4983 0.7503
C26 C 0.6795(14) 0.4050(8) 0.5912(17)
H16 H 0.6678 0.3842 0.6283
H17 H 0.7077 0.3892 0.5637
H18 H 0.6285 0.4173 0.5425
C27 C 0.6874(14) 0.4659(9) 0.6797(17)
H19 H 0.6327 0.4745 0.6324
H20 H 0.7212 0.4925 0.7041
H21 H 0.6844 0.4504 0.7295
C28 C 0.8043(17) 0.4474(9) 0.6613(17)
O14 O 0.5000 0.6423(7) 0.2500
O15 O 0.7991(10) 0.6215(6) 0.4754(12)
O16 O 0.8092(11) 0.6333(6) 0.9808(12)
O17 O 0.9343(18) 0.6632(11) 0.3812(15)
loop_
_geom_bond_atom_site_label_1
_geom_bond_atom_site_label_2
_geom_bond_site_symmetry_1
_geom_bond_site_symmetry_2
Cd1 O2 1_555 1_555
Cd2 O1 1_555 1_555
Mg1 O8 1_555 1_555
O1 C18 1_555 1_555
O2 C17 1_555 1_555
O3 Cd2 1_555 1_555
O4 C7 1_555 1_555
O5 C12 1_555 1_555
O6 C7 1_555 1_555
O7 C12 1_555 1_555
O8 Cd2 1_555 1_555
O9 Cd1 1_555 1_555
O10 Cd1 1_555 1_555
O11 Cd2 1_555 1_555
O12 Cd1 1_555 1_555
C1 H1 1_555 1_555
C2 C1 1_555 1_555
H2 C2 1_555 1_555
C3 C1 1_555 1_555
C4 C6 1_555 1_555
C5 C3 1_555 1_555
H3 C5 1_555 1_555
C6 H4 1_555 1_555
C7 C15 1_555 1_555
C8 H5 1_555 1_555
C9 C8 1_555 1_555
C10 H6 1_555 1_555
C11 C4 1_555 1_555
H7 C11 1_555 1_555
C12 C24 1_555 1_555
C13 H8 1_555 1_555
C14 C10 1_555 1_555
C15 C2 1_555 1_555
C16 C9 1_555 1_555
H9 C16 1_555 1_555
C17 O12 1_555 1_555
C18 O8 1_555 1_555
C19 O3 1_555 1_555
C20 C16 1_555 1_555
H10 C20 1_555 1_555
C21 C5 1_555 1_555
H11 C21 1_555 1_555
C22 O9 1_555 1_555
C23 C8 1_555 1_555
H12 C23 1_555 1_555
C24 C20 1_555 1_555
Mg2 O3 1_555 1_555
N1 C26 1_555 1_555
O13 C28 1_555 1_555
C25 H13 1_555 1_555
H14 C25 1_555 1_555
H15 C25 1_555 1_555
C26 H16 1_555 1_555
H17 C26 1_555 1_555
H18 C26 1_555 1_555
C27 N1 1_555 1_555
H19 C27 1_555 1_555
H20 C27 1_555 1_555
H21 C27 1_555 1_555
C28 N1 1_555 1_555
O2D C17D 1_555 1_555
O12D C17D 1_555 1_555
C4D C6D 1_555 1_555
C6D C11 1_555 1_555
H4D C6D 1_555 1_555
C11D C6 1_555 1_555
H7D C11D 1_555 1_555
C17D C4D 1_555 1_555
O9F C22F 1_555 1_555
O10F C22F 1_555 1_555
C10F C13 1_555 1_555
H6F C10F 1_555 1_555
C13F C10 1_555 1_555
H8F C13F 1_555 1_555
C14F C10F 1_555 1_555
C22F C14F 1_555 1_555
Cd2A O1A 1_555 1_555
Mg1A O8A 1_555 1_555
O1A C18A 1_555 1_555
O3A Mg2 1_555 1_555
O4A C7A 1_555 1_555
O5A C12A 1_555 1_555
O6A C7A 1_555 1_555
O7A C12A 1_555 1_555
O8A Cd2A 1_555 1_555
O11A Cd2A 1_555 1_555
C1A H1A 1_555 1_555
C2A C1A 1_555 1_555
H2A C2A 1_555 1_555
C3A C1A 1_555 1_555
C5A C3A 1_555 1_555
H3A C5A 1_555 1_555
C7A C15A 1_555 1_555
C8A H5A 1_555 1_555
C9A C8A 1_555 1_555
C12A C24A 1_555 1_555
C15A C2A 1_555 1_555
C16A C9A 1_555 1_555
H9A C16A 1_555 1_555
C18A O8A 1_555 1_555
C19A O3A 1_555 1_555
C20A C16A 1_555 1_555
H10A C20A 1_555 1_555
C21A C5A 1_555 1_555
H11A C21A 1_555 1_555
C23A C8A 1_555 1_555
H12A C23A 1_555 1_555
C24A C20A 1_555 1_555
Cd1D O2D 1_555 1_555
Cd1F O9F 1_555 1_555
Cd2D O7A 1_555 1_555
Cd2E O7 1_555 1_555
Cd2F O4A 1_555 1_555
Cd2G O4 1_555 1_555
Mg1A_2 O12 1_555 1_555
Mg1D O5A 1_555 1_555
Mg1E O5 1_555 1_555
Mg1F O10F 1_555 1_555
Mg1F_2 O4A 1_555 1_555
Mg1G O4 1_555 1_555
O2A Cd1 1_555 1_555
O4F Cd2A 1_555 1_555
O4G Cd2 1_555 1_555
O5D Mg1A 1_555 1_555
O5E Mg1 1_555 1_555
O7D Mg2 1_555 1_555
O7E Cd2 1_555 1_555
O9A Cd1 1_555 1_555
O10A Mg1A 1_555 1_555
O10A_2 Cd1 1_555 1_555
O12_2 Mg1A 1_555 1_555
O12A Cd1 1_555 1_555
Mg2D O7 1_555 1_555
Mg2D_2 O7A 1_555 1_555
Mg1 O10 1_555 1_555
Mg1 O4G 1_555 1_555
Mg1 O12A 1_555 1_555
O10 C22 1_555 1_555
O11 C19 1_555 1_555
C3 C19 1_555 1_555
C4 C17 1_555 1_555
C9 C18 1_555 1_555
C13 C14 1_555 1_555
C14 C22 1_555 1_555
C15 C21 1_555 1_555
C23 C24 1_555 1_555
Mg2 O7E 1_555 1_555
C25 C28 1_555 1_555
O12D Cd1D 1_555 1_555
O12D Mg1E 1_555 1_555
C4D C11D 1_555 1_555
O10F Cd1F 1_555 1_555
C13F C14F 1_555 1_555
Cd2A O3A 1_555 1_555
Cd2A O7D 1_555 1_555
Mg1A O4F 1_555 1_555
O11A C19A 1_555 1_555
C3A C19A 1_555 1_555
C9A C18A 1_555 1_555
C15A C21A 1_555 1_555
C23A C24A 1_555 1_555
Mg1A_2 O10A_2 1_555 1_555

#END
