
#######################################################################
#
#                 Cambridge Crystallographic Data Centre
#                                CCDC 
#
#######################################################################
#
# If this CIF has been generated from an entry in the Cambridge 
# Structural Database, then it will include bibliographic, chemical, 
# crystal, experimental, refinement or atomic coordinate data resulting 
# from the CCDC's data processing and validation procedures.
#
#######################################################################

data_VEYVEC
_chemical_formula_moiety         '(C22 H24 Co2 N2 O19)n'
_symmetry_cell_setting           orthorhombic
_symmetry_space_group_name_H-M   'C m c a'
_symmetry_Int_Tables_number      64
_space_group_name_Hall           '-C 2ac 2'
loop_
_symmetry_equiv_pos_site_id
_symmetry_equiv_pos_as_xyz
1 x,y,z
2 -x,1/2-y,1/2+z
3 -x,1/2+y,1/2-z
4 x,-y,-z
5 1/2+x,1/2+y,z
6 1/2-x,-y,1/2+z
7 1/2-x,y,1/2-z
8 1/2+x,1/2-y,-z
9 -x,-y,-z
10 x,1/2+y,1/2-z
11 x,1/2-y,1/2+z
12 -x,y,z
13 1/2-x,1/2-y,-z
14 1/2+x,y,1/2-z
15 1/2+x,-y,1/2+z
16 1/2-x,1/2+y,z
_cell_length_a                   32.197(4)
_cell_length_b                   15.2214(16)
_cell_length_c                   11.3816(12)
_cell_angle_alpha                90
_cell_angle_beta                 90
_cell_angle_gamma                90
_cell_volume                     5577.93
loop_
_atom_site_label
_atom_site_type_symbol
_atom_site_fract_x
_atom_site_fract_y
_atom_site_fract_z
Co1 Co 0.0000 0.36101(3) 0.20680(4)
Co2 Co 0.119049(16) 0.5000 0.5000
O1 O 0.06414(6) 0.34757(12) 0.22601(16)
O2 O 0.13148(6) 0.32215(12) 0.20133(17)
H1 H 0.1269 0.2834 0.2523
O3 O 0.11860(6) 0.50672(12) 0.31845(16)
O4 O 0.06331(6) 0.58976(13) 0.27256(16)
O5 O 0.12962(6) 0.30062(12) -0.15541(17)
O6 O 0.07799(6) 0.26488(12) -0.03169(17)
O7 O 0.0000 0.4235(2) 0.3637(3)
O8 O -0.0000 0.22947(19) 0.2701(3)
O9 O -0.0000 0.3194(2) 0.0381(3)
O10 O -0.0000 0.4908(2) 0.1324(3)
O11 O 0.06967(6) 0.59340(13) 0.50443(18)
H2 H 0.0755(11) 0.640(2) 0.526(3)
H3 H 0.0640(11) 0.595(2) 0.441(3)
N1 N 0.16633(7) 0.59812(16) 0.5075(2)
C1 C 0.09754(8) 0.36216(17) 0.1766(2)
C2 C 0.09381(8) 0.54166(17) 0.2473(2)
C3 C 0.10282(8) 0.31755(17) -0.0776(2)
C4 C 0.10048(8) 0.43284(17) 0.0835(2)
C5 C 0.09992(8) 0.52030(17) 0.1191(2)
C6 C 0.10138(8) 0.41204(17) -0.0363(2)
C7 C 0.16944(11) 0.6588(2) 0.4268(4)
H4 H 0.1485 0.6616 0.3682
C8 C 0.20142(11) 0.7193(3) 0.4216(4)
H5 H 0.2016 0.7622 0.3610
C9 C 0.23255(9) 0.7182(2) 0.5018(3)
C10 C 0.22813(14) 0.6571(3) 0.5892(3)
H6 H 0.2481 0.6545 0.6507
C11 C 0.19528(13) 0.5993(3) 0.5893(3)
H7 H 0.1934 0.5581 0.6517
H8 H -0.0199(14) 0.422(3) 0.405(4)
H9 H -0.0198(15) 0.202(3) 0.261(4)
H10 H 0.0204(16) 0.298(3) 0.008(4)
H11 H -0.0172(15) 0.517(3) 0.159(5)
O1C O 0.06414(6) 0.65243(12) -0.22601(16)
O2C O 0.13148(6) 0.67785(12) -0.20133(17)
H1C H 0.1269 0.7166 -0.2523
O3C O 0.11860(6) 0.49328(12) -0.31845(16)
O4C O 0.06331(6) 0.41024(13) -0.27256(16)
O5C O 0.12962(6) 0.69938(12) 0.15541(17)
O6C O 0.07799(6) 0.73512(12) 0.03169(17)
C1C C 0.09754(8) 0.63784(17) -0.1766(2)
C2C C 0.09381(8) 0.45834(17) -0.2473(2)
C3C C 0.10282(8) 0.68245(17) 0.0776(2)
C4C C 0.10048(8) 0.56716(17) -0.0835(2)
C5C C 0.09992(8) 0.47970(17) -0.1191(2)
C6C C 0.10138(8) 0.58796(17) 0.0363(2)
H8K H 0.0199(14) 0.422(3) 0.405(4)
H9K H 0.0198(15) 0.202(3) 0.261(4)
H10K H -0.0204(16) 0.298(3) 0.008(4)
H11K H 0.0172(15) 0.517(3) 0.159(5)
N1L N 0.33367(7) 0.90188(16) 0.4925(2)
C7L C 0.33056(11) 0.8412(2) 0.5732(4)
H4L H 0.3515 0.8384 0.6318
C8L C 0.29858(11) 0.7807(3) 0.5784(4)
H5L H 0.2984 0.7378 0.6390
C9L C 0.26745(9) 0.7818(2) 0.4982(3)
C10L C 0.27187(14) 0.8429(3) 0.4108(3)
H6L H 0.2519 0.8455 0.3493
C11L C 0.30472(13) 0.9007(3) 0.4107(3)
H7L H 0.3066 0.9419 0.3483
O11C O 0.06967(6) 0.40660(13) 0.49557(18)
H2C H 0.0755(11) 0.360(2) 0.474(3)
H3C H 0.0640(11) 0.405(2) 0.559(3)
Co1C Co 0.0000 0.63899(3) -0.20680(4)
Co2_2 Co 0.119049(16) 0.5000 -0.5000
Co2L Co 0.380951(16) 1.0000 0.5000
O1K O -0.06414(6) 0.34757(12) 0.22601(16)
O3C_2 O 0.11860(6) 0.49328(12) 0.68155(16)
N1C N 0.16633(7) 0.40188(16) 0.4925(2)
O12 O 0.2124(7) 0.4091(13) 0.8173(18)
loop_
_geom_bond_atom_site_label_1
_geom_bond_atom_site_label_2
_geom_bond_site_symmetry_1
_geom_bond_site_symmetry_2
Co1 O1 1_555 1_555
Co2 O3 1_555 1_555
O1 C1 1_555 1_555
O2 H1 1_555 1_555
O3 C2 1_555 1_555
O4 C2 1_555 1_555
O5 C3 1_555 1_555
O6 C3 1_555 1_555
O7 Co1 1_555 1_555
O8 Co1 1_555 1_555
O9 Co1 1_555 1_555
O10 Co1 1_555 1_555
O11 Co2 1_555 1_555
H2 O11 1_555 1_555
H3 O11 1_555 1_555
N1 Co2 1_555 1_555
C1 O2 1_555 1_555
C2 C5 1_555 1_555
C3 C6 1_555 1_555
C4 C1 1_555 1_555
C5 C4 1_555 1_555
C6 C4 1_555 1_555
C7 N1 1_555 1_555
H4 C7 1_555 1_555
C8 C7 1_555 1_555
H5 C8 1_555 1_555
C9 C8 1_555 1_555
C10 C9 1_555 1_555
H6 C10 1_555 1_555
C11 N1 1_555 1_555
H7 C11 1_555 1_555
H8 O7 1_555 1_555
H9 O8 1_555 1_555
H10 O9 1_555 1_555
H11 O10 1_555 1_555
O1C C1C 1_555 1_555
O2C H1C 1_555 1_555
O3C C2C 1_555 1_555
O4C C2C 1_555 1_555
O5C C3C 1_555 1_555
O6C C3C 1_555 1_555
C1C O2C 1_555 1_555
C2C C5C 1_555 1_555
C3C C6C 1_555 1_555
C4C C1C 1_555 1_555
C5C C6 1_555 1_555
C6C C5 1_555 1_555
H8K O7 1_555 1_555
H9K O8 1_555 1_555
H10K O9 1_555 1_555
H11K O10 1_555 1_555
N1L C7L 1_555 1_555
C7L H4L 1_555 1_555
C8L C7L 1_555 1_555
H5L C8L 1_555 1_555
C9L C9 1_555 1_555
C10L C9L 1_555 1_555
H6L C10L 1_555 1_555
C11L N1L 1_555 1_555
H7L C11L 1_555 1_555
O11C Co2 1_555 1_555
H2C O11C 1_555 1_555
H3C O11C 1_555 1_555
Co1C O1C 1_555 1_555
Co2_2 O3C 1_555 1_555
Co2L N1L 1_555 1_555
O1K Co1 1_555 1_555
O3C_2 Co2 1_555 1_555
N1C Co2 1_555 1_555
C10 C11 1_555 1_555
C4C C5C 1_555 1_555
C4C C6C 1_555 1_555
C8L C9L 1_555 1_555
C10L C11L 1_555 1_555

#END
