
#######################################################################
#
#                 Cambridge Crystallographic Data Centre
#                                CCDC 
#
#######################################################################
#
# If this CIF has been generated from an entry in the Cambridge 
# Structural Database, then it will include bibliographic, chemical, 
# crystal, experimental, refinement or atomic coordinate data resulting 
# from the CCDC's data processing and validation procedures.
#
#######################################################################

data_OGAXUR
_chemical_formula_moiety         '(C19 H26 Co2 N2 O10)n'
_symmetry_cell_setting           rhombohedral
_symmetry_space_group_name_H-M   'R 3'
_symmetry_Int_Tables_number      146
_space_group_name_Hall           'R 3'
loop_
_symmetry_equiv_pos_site_id
_symmetry_equiv_pos_as_xyz
1 x,y,z
2 -y,x-y,z
3 -x+y,-x,z
4 2/3+x,1/3+y,1/3+z
5 2/3-y,1/3+x-y,1/3+z
6 2/3-x+y,1/3-x,1/3+z
7 1/3+x,2/3+y,2/3+z
8 1/3-y,2/3+x-y,2/3+z
9 1/3-x+y,2/3-x,2/3+z
_cell_length_a                   29.4556(4)
_cell_length_b                   29.4556(4)
_cell_length_c                   8.3849(4)
_cell_angle_alpha                90
_cell_angle_beta                 90
_cell_angle_gamma                120
_cell_volume                     6300.34
loop_
_atom_site_label
_atom_site_type_symbol
_atom_site_fract_x
_atom_site_fract_y
_atom_site_fract_z
Co1 Co 0.02905(5) 0.12484(5) 0.55922(11)
Co2 Co 0.30475(5) 0.54273(5) 0.72557(10)
N1 N 0.1016(3) 0.2020(3) 0.5616(9)
N2 N 0.2315(4) 0.4635(3) 0.7219(10)
O1 O 0.0713(3) 0.1143(3) 0.7411(10)
O2 O -0.0242(3) 0.0461(3) 0.5542(10)
H1 H -0.0469 0.0278 0.6242
H2 H -0.0423 0.0320 0.4709
O3 O 0.3599(3) 0.6235(3) 0.7226(10)
H3 H 0.3819 0.6444 0.6549
H4 H 0.3833 0.6339 0.7948
O4 O 0.1458(3) 0.1509(3) 0.8800(9)
O5 O 0.0735(3) 0.1152(3) 0.3829(9)
O6 O 0.1399(3) 0.1583(3) 0.2129(10)
O7 O 0.2646(3) 0.5512(3) 0.9123(9)
O8 O 0.1888(3) 0.5135(3) 1.0454(9)
O9 O 0.2591(3) 0.5528(3) 0.5531(9)
O10 O 0.1939(3) 0.5108(3) 0.3786(10)
C1 C 0.1291(3) 0.2851(3) 0.7402(12)
C2 C 0.1739(3) 0.3326(3) 0.6954(11)
C3 C 0.2039(4) 0.3703(4) 0.8072(11)
C4 C 0.1927(5) 0.3603(4) 0.9722(13)
C5 C 0.1484(5) 0.3149(4) 1.0136(14)
H5 H 0.1389 0.3094 1.1206
C6 C 0.1167(4) 0.2765(4) 0.9045(12)
C7 C 0.0681(6) 0.2289(5) 0.9647(16)
H6 H 0.0642 0.2327 1.0768
H7 H 0.0710 0.1983 0.9468
H8 H 0.0380 0.2255 0.9090
C8 C 0.2248(6) 0.3974(5) 1.1001(16)
H9 H 0.2299 0.4315 1.0770
H10 H 0.2583 0.3992 1.1054
H11 H 0.2071 0.3854 1.2005
C9 C 0.2499(3) 0.4250(3) 0.7649(13)
H12 H 0.2737 0.4386 0.8550
H13 H 0.2691 0.4219 0.6755
C10 C 0.1918(4) 0.3388(4) 0.5194(12)
H14 H 0.1845 0.3635 0.4671
H15 H 0.1732 0.3055 0.4665
H16 H 0.2288 0.3513 0.5154
C11 C 0.0945(4) 0.2470(3) 0.6187(12)
H17 H 0.0964 0.2671 0.5249
H18 H 0.0590 0.2316 0.6590
C12 C 0.1407(4) 0.1966(4) 0.6585(11)
H19 H 0.1610 0.2284 0.7200
H20 H 0.1646 0.1927 0.5878
C13 C 0.1161(4) 0.1506(4) 0.7704(12)
C14 C 0.1110(4) 0.1552(4) 0.3297(13)
C15 C 0.1189(4) 0.2087(3) 0.3879(11)
H21 H 0.1555 0.2356 0.3786
H22 H 0.0981 0.2190 0.3239
C16 C 0.1961(3) 0.4663(3) 0.8303(11)
H23 H 0.1801 0.4345 0.8937
H24 H 0.1684 0.4668 0.7693
C17 C 0.2190(4) 0.5128(4) 0.9434(13)
C18 C 0.2226(4) 0.5129(4) 0.4955(13)
C19 C 0.2155(3) 0.4595(3) 0.5535(10)
H25 H 0.1791 0.4324 0.5423
H26 H 0.2367 0.4499 0.4885
Co1G Co 0.20849(5) 0.57088(7) 0.22589(11)
Co1G_2 Co 0.20849(5) 0.57088(7) 1.22589(11)
Co2D Co 0.12394(5) 0.09535(7) 0.05890(10)
Co2D_2 Co 0.12394(5) 0.09535(7) 1.05890(10)
O4H O 0.3384(4) 0.5209(3) 0.5467(9)
O6H O 0.3517(4) 0.5268(3) 0.8796(10)
O8E O -0.0086(4) 0.1445(3) 0.3787(9)
O10E O -0.0164(4) 0.1394(3) 0.7119(10)
loop_
_geom_bond_atom_site_label_1
_geom_bond_atom_site_label_2
_geom_bond_site_symmetry_1
_geom_bond_site_symmetry_2
Co1 N1 1_555 1_555
Co2 N2 1_555 1_555
N1 C11 1_555 1_555
N2 C9 1_555 1_555
O1 Co1 1_555 1_555
O2 Co1 1_555 1_555
H1 O2 1_555 1_555
H2 O2 1_555 1_555
O3 Co2 1_555 1_555
H3 O3 1_555 1_555
H4 O3 1_555 1_555
O4 C13 1_555 1_555
O5 Co1 1_555 1_555
O6 C14 1_555 1_555
O7 Co2 1_555 1_555
O8 C17 1_555 1_555
O9 Co2 1_555 1_555
O10 C18 1_555 1_555
C1 C2 1_555 1_555
C2 C3 1_555 1_555
C3 C4 1_555 1_555
C4 C5 1_555 1_555
C5 H5 1_555 1_555
C6 C1 1_555 1_555
C7 C6 1_555 1_555
H6 C7 1_555 1_555
H7 C7 1_555 1_555
H8 C7 1_555 1_555
C8 C4 1_555 1_555
H9 C8 1_555 1_555
H10 C8 1_555 1_555
H11 C8 1_555 1_555
C9 C3 1_555 1_555
H12 C9 1_555 1_555
H13 C9 1_555 1_555
C10 C2 1_555 1_555
H14 C10 1_555 1_555
H15 C10 1_555 1_555
H16 C10 1_555 1_555
C11 C1 1_555 1_555
H17 C11 1_555 1_555
H18 C11 1_555 1_555
C12 N1 1_555 1_555
H19 C12 1_555 1_555
H20 C12 1_555 1_555
C13 O1 1_555 1_555
C14 O5 1_555 1_555
C15 N1 1_555 1_555
H21 C15 1_555 1_555
H22 C15 1_555 1_555
C16 N2 1_555 1_555
H23 C16 1_555 1_555
H24 C16 1_555 1_555
C17 O7 1_555 1_555
C18 O9 1_555 1_555
C19 N2 1_555 1_555
H25 C19 1_555 1_555
H26 C19 1_555 1_555
Co1G O10 1_555 1_555
Co1G_2 O8 1_555 1_555
Co2D O6 1_555 1_555
Co2D_2 O4 1_555 1_555
O4H Co2 1_555 1_555
O6H Co2 1_555 1_555
O8E Co1 1_555 1_555
O10E Co1 1_555 1_555
C5 C6 1_555 1_555
C12 C13 1_555 1_555
C14 C15 1_555 1_555
C16 C17 1_555 1_555
C18 C19 1_555 1_555

#END
