
#######################################################################
#
#                 Cambridge Crystallographic Data Centre
#                                CCDC 
#
#######################################################################
#
# If this CIF has been generated from an entry in the Cambridge 
# Structural Database, then it will include bibliographic, chemical, 
# crystal, experimental, refinement or atomic coordinate data resulting 
# from the CCDC's data processing and validation procedures.
#
#######################################################################

data_OGECOU
_chemical_formula_moiety         '(C19 H26 N2 Ni2 O10)n'
_symmetry_cell_setting           rhombohedral
_symmetry_space_group_name_H-M   'R 3'
_symmetry_Int_Tables_number      146
_space_group_name_Hall           'R 3'
loop_
_symmetry_equiv_pos_site_id
_symmetry_equiv_pos_as_xyz
1 x,y,z
2 -y,x-y,z
3 -x+y,-x,z
4 2/3+x,1/3+y,1/3+z
5 2/3-y,1/3+x-y,1/3+z
6 2/3-x+y,1/3-x,1/3+z
7 1/3+x,2/3+y,2/3+z
8 1/3-y,2/3+x-y,2/3+z
9 1/3-x+y,2/3-x,2/3+z
_cell_length_a                   29.269(3)
_cell_length_b                   29.269(3)
_cell_length_c                   8.3065(16)
_cell_angle_alpha                90
_cell_angle_beta                 90
_cell_angle_gamma                120
_cell_volume                     6162.61
loop_
_atom_site_label
_atom_site_type_symbol
_atom_site_fract_x
_atom_site_fract_y
_atom_site_fract_z
Ni1 Ni 0.03034(9) 0.12384(8) 0.93214(13)
Ni2 Ni 0.30255(9) 0.54215(8) 1.09983(14)
N1 N 0.0997(5) 0.2012(5) 0.9398(14)
N2 N 0.2307(5) 0.4657(5) 1.0972(15)
O1 O 0.0760(4) 0.1124(4) 1.1018(12)
O2 O -0.0257(5) 0.0458(4) 0.9325(15)
H1 H -0.0317 0.0373 1.0313
H2 H -0.0342 0.0251 0.8523
O3 O 0.3577(5) 0.6197(4) 1.1037(15)
H3 H 0.3665 0.6401 1.1848
H4 H 0.3749 0.6312 1.0164
O4 O 0.1389(4) 0.1541(4) 1.2778(13)
O5 O 0.0699(5) 0.1132(4) 0.7482(12)
O6 O 0.1448(5) 0.1497(5) 0.6112(13)
O7 O 0.1870(4) 0.5178(5) 0.7771(13)
O8 O 0.2646(4) 0.5555(4) 0.9175(12)
O9 O 0.1928(5) 0.5114(4) 1.4414(13)
O10 O 0.2590(4) 0.5549(4) 1.2654(13)
C1 C 0.1095(6) 0.1489(6) 1.1636(19)
C2 C 0.1189(5) 0.2052(5) 1.1063(16)
H5 H 0.1002 0.2166 1.1772
H6 H 0.1562 0.2310 1.1114
C3 C 0.1363(5) 0.1978(6) 0.8266(17)
H7 H 0.1646 0.1981 0.8887
H8 H 0.1520 0.2294 0.7609
C4 C 0.1143(7) 0.1504(7) 0.714(2)
C5 C 0.0834(5) 0.2409(4) 0.8986(16)
H9 H 0.0654 0.2451 0.9906
H10 H 0.0584 0.2273 0.8102
C6 C 0.1289(4) 0.2947(4) 0.8516(13)
C7 C 0.1399(6) 0.3064(5) 0.6881(15)
C8 C 0.1822(6) 0.3539(5) 0.6469(16)
H11 H 0.1884 0.3621 0.5381
C9 C 0.2163(6) 0.3904(5) 0.7563(15)
C10 C 0.2055(5) 0.3832(4) 0.9211(14)
C11 C 0.1611(6) 0.3346(5) 0.9663(14)
C12 C 0.1438(6) 0.3256(6) 1.1430(16)
H12 H 0.1060 0.3051 1.1487
H13 H 0.1558 0.3590 1.1947
H14 H 0.1588 0.3070 1.1962
C13 C 0.1061(7) 0.2684(5) 0.5493(17)
H15 H 0.0701 0.2477 0.5837
H16 H 0.1196 0.2454 0.5226
H17 H 0.1079 0.2887 0.4564
C14 C 0.2636(7) 0.4424(6) 0.6996(18)
H18 H 0.2570 0.4504 0.5930
H19 H 0.2946 0.4391 0.6987
H20 H 0.2688 0.4703 0.7716
C15 C 0.2401(5) 0.4216(4) 1.0448(15)
H21 H 0.2761 0.4377 1.0054
H22 H 0.2382 0.4016 1.1403
C16 C 0.1926(4) 0.4714(4) 0.9988(14)
H23 H 0.1717 0.4391 0.9388
H24 H 0.1690 0.4764 1.0691
C17 C 0.2167(6) 0.5152(6) 0.8867(18)
C18 C 0.2210(7) 0.5136(7) 1.323(2)
C19 C 0.2132(5) 0.4604(4) 1.2689(13)
H25 H 0.2340 0.4503 1.3357
H26 H 0.1764 0.4334 1.2783
Ni1G Ni 0.20949(8) 0.57317(12) 0.59881(13)
Ni1G_2 Ni 0.20949(8) 0.57317(12) 1.59881(13)
Ni2D Ni 0.12452(8) 0.09373(12) 0.43316(14)
Ni2D_2 Ni 0.12452(8) 0.09373(12) 1.43316(14)
O4H O 0.3485(6) 0.5278(4) 0.9445(13)
O6H O 0.3382(7) 0.5219(5) 1.2779(13)
O7E O -0.0025(6) 0.1463(4) 1.1104(13)
O9E O -0.0147(6) 0.1405(5) 0.7747(13)
loop_
_geom_bond_atom_site_label_1
_geom_bond_atom_site_label_2
_geom_bond_site_symmetry_1
_geom_bond_site_symmetry_2
Ni1 N1 1_555 1_555
Ni2 N2 1_555 1_555
N1 C2 1_555 1_555
N2 C15 1_555 1_555
O1 Ni1 1_555 1_555
O2 Ni1 1_555 1_555
H1 O2 1_555 1_555
H2 O2 1_555 1_555
O3 Ni2 1_555 1_555
H3 O3 1_555 1_555
H4 O3 1_555 1_555
O4 C1 1_555 1_555
O5 Ni1 1_555 1_555
O6 C4 1_555 1_555
O7 C17 1_555 1_555
O8 Ni2 1_555 1_555
O9 C18 1_555 1_555
O10 Ni2 1_555 1_555
C1 O1 1_555 1_555
C2 C1 1_555 1_555
H5 C2 1_555 1_555
H6 C2 1_555 1_555
C3 N1 1_555 1_555
H7 C3 1_555 1_555
H8 C3 1_555 1_555
C4 O5 1_555 1_555
C5 N1 1_555 1_555
H9 C5 1_555 1_555
H10 C5 1_555 1_555
C6 C5 1_555 1_555
C7 C6 1_555 1_555
C8 C7 1_555 1_555
H11 C8 1_555 1_555
C9 C8 1_555 1_555
C10 C9 1_555 1_555
C11 C6 1_555 1_555
C12 C11 1_555 1_555
H12 C12 1_555 1_555
H13 C12 1_555 1_555
H14 C12 1_555 1_555
C13 C7 1_555 1_555
H15 C13 1_555 1_555
H16 C13 1_555 1_555
H17 C13 1_555 1_555
C14 C9 1_555 1_555
H18 C14 1_555 1_555
H19 C14 1_555 1_555
H20 C14 1_555 1_555
C15 C10 1_555 1_555
H21 C15 1_555 1_555
H22 C15 1_555 1_555
C16 N2 1_555 1_555
H23 C16 1_555 1_555
H24 C16 1_555 1_555
C17 O8 1_555 1_555
C18 O10 1_555 1_555
C19 N2 1_555 1_555
H25 C19 1_555 1_555
H26 C19 1_555 1_555
Ni1G O7 1_555 1_555
Ni1G_2 O9 1_555 1_555
Ni2D O6 1_555 1_555
Ni2D_2 O4 1_555 1_555
O4H Ni2 1_555 1_555
O6H Ni2 1_555 1_555
O7E Ni1 1_555 1_555
O9E Ni1 1_555 1_555
C3 C4 1_555 1_555
C10 C11 1_555 1_555
C16 C17 1_555 1_555
C18 C19 1_555 1_555

#END
