
#######################################################################
#
#                 Cambridge Crystallographic Data Centre
#                                CCDC 
#
#######################################################################
#
# If this CIF has been generated from an entry in the Cambridge 
# Structural Database, then it will include bibliographic, chemical, 
# crystal, experimental, refinement or atomic coordinate data resulting 
# from the CCDC's data processing and validation procedures.
#
#######################################################################

data_IZEWIU
_chemical_formula_moiety         '(C18 H15 Rb1)n'
_symmetry_cell_setting           rhombohedral
_symmetry_space_group_name_H-M   'R -3'
_symmetry_Int_Tables_number      148
_space_group_name_Hall           '-R 3'
loop_
_symmetry_equiv_pos_site_id
_symmetry_equiv_pos_as_xyz
1 x,y,z
2 -y,x-y,z
3 -x+y,-x,z
4 2/3+x,1/3+y,1/3+z
5 2/3-y,1/3+x-y,1/3+z
6 2/3-x+y,1/3-x,1/3+z
7 1/3+x,2/3+y,2/3+z
8 1/3-y,2/3+x-y,2/3+z
9 1/3-x+y,2/3-x,2/3+z
10 -x,-y,-z
11 y,-x+y,-z
12 x-y,x,-z
13 1/3-x,2/3-y,2/3-z
14 1/3+y,2/3-x+y,2/3-z
15 1/3+x-y,2/3+x,2/3-z
16 2/3-x,1/3-y,1/3-z
17 2/3+y,1/3-x+y,1/3-z
18 2/3+x-y,1/3+x,1/3-z
_cell_length_a                   21.1577(3)
_cell_length_b                   21.1577(3)
_cell_length_c                   17.4764(2)
_cell_angle_alpha                90
_cell_angle_beta                 90
_cell_angle_gamma                120
_cell_volume                     6775.16
loop_
_atom_site_label
_atom_site_type_symbol
_atom_site_fract_x
_atom_site_fract_y
_atom_site_fract_z
_atom_site_U_iso_or_equiv
_atom_site_thermal_displace_type
Rb1 Rb 0.47755(3) 0.02783(3) 0.24875(3) 0.0404 Uani
C1 C 0.3607(3) -0.0091(3) 0.3917(3) 0.0332 Uani
C2 C 0.3143(3) 0.0160(3) 0.3491(3) 0.0339 Uani
H1 H 0.283(3) -0.019(3) 0.315(3) 0.0280 Uiso
C3 C 0.3631(3) 0.0824(3) 0.3010(3) 0.0422 Uani
H2 H 0.3469 0.0892 0.2526 0.0510 Uiso
C4 C 0.4296(4) 0.1317(3) 0.3275(4) 0.0489 Uani
H3 H 0.451(3) 0.165(3) 0.301(3) 0.0300 Uiso
C5 C 0.4615(4) 0.1169(3) 0.3911(4) 0.0461 Uani
H4 H 0.499(4) 0.148(4) 0.409(4) 0.0460 Uiso
C6 C 0.4285(3) 0.0454(3) 0.4168(3) 0.0403 Uani
H5 H 0.454(3) 0.027(3) 0.456(4) 0.0480 Uiso
C7 C 0.3297(3) -0.0859(3) 0.4105(3) 0.0340 Uani
C8 C 0.3724(3) -0.1139(3) 0.4415(3) 0.0420 Uani
H6 H 0.4228 -0.0819 0.4508 0.0510 Uiso
C9 C 0.3417(5) -0.1879(4) 0.4585(4) 0.0593 Uani
H7 H 0.371(4) -0.196(4) 0.466(4) 0.0450 Uiso
C10 C 0.2688(4) -0.2358(4) 0.4454(4) 0.0567 Uani
H8 H 0.254(4) -0.277(4) 0.462(4) 0.0700 Uiso
C11 C 0.2260(4) -0.2103(3) 0.4165(4) 0.0491 Uani
H9 H 0.187(4) -0.235(3) 0.412(4) 0.0400 Uiso
C12 C 0.2546(3) -0.1371(3) 0.4001(3) 0.0366 Uani
H10 H 0.226(3) -0.122(3) 0.383(3) 0.0400 Uiso
C13 C 0.2684(3) 0.0352(3) 0.4031(3) 0.0319 Uani
C14 C 0.2797(3) 0.0423(3) 0.4815(3) 0.0339 Uani
H11 H 0.315(3) 0.036(3) 0.501(3) 0.0460 Uiso
C15 C 0.2427(3) 0.0667(3) 0.5275(3) 0.0367 Uani
H12 H 0.249(3) 0.075(3) 0.583(3) 0.0370 Uiso
C16 C 0.1951(3) 0.0856(3) 0.4959(3) 0.0378 Uani
H13 H 0.169(3) 0.100(3) 0.526(3) 0.0270 Uiso
C17 C 0.1828(3) 0.0786(3) 0.4174(3) 0.0407 Uani
H14 H 0.149(3) 0.090(3) 0.396(3) 0.0400 Uiso
C18 C 0.2189(3) 0.0534(3) 0.3712(3) 0.0357 Uani
H15 H 0.214(4) 0.062(4) 0.307(4) 0.0700 Uiso
Rb1M Rb 0.36116(3) 0.21695(4) 0.41792(3) 0.0404 Uani
Rb1E Rb 0.21695(4) -0.14422(3) 0.58208(3) 0.0404 Uani
C4N C 0.6312(5) 0.0963(4) 0.3392(4) 0.0489 Uani
H3N H 0.619(4) 0.118(3) 0.366(3) 0.0300 Uiso
C11G C 0.5436(3) 0.1030(5) 0.0832(4) 0.0491 Uani
H9G H 0.568(3) 0.089(5) 0.079(4) 0.0400 Uiso
C12G C 0.4704(3) 0.0584(4) 0.0668(3) 0.0366 Uani
H10G H 0.455(3) 0.015(4) 0.050(3) 0.0400 Uiso
loop_
_atom_site_aniso_label
_atom_site_aniso_U_11
_atom_site_aniso_U_22
_atom_site_aniso_U_33
_atom_site_aniso_U_23
_atom_site_aniso_U_13
_atom_site_aniso_U_12
Rb1 0.0443(3) 0.0524(4) 0.0351(3) -0.0045(2) 0.0002(2) 0.0321(3)
C1 0.042(3) 0.033(2) 0.029(2) 0.0004(19) 0.001(2) 0.022(2)
C2 0.041(3) 0.035(3) 0.031(2) -0.003(2) -0.003(2) 0.023(2)
C3 0.062(4) 0.047(3) 0.032(2) 0.009(2) 0.011(2) 0.038(3)
C4 0.065(4) 0.037(3) 0.052(3) 0.008(3) 0.023(3) 0.031(3)
C5 0.042(3) 0.040(3) 0.049(3) -0.013(3) 0.009(3) 0.015(3)
C6 0.047(3) 0.045(3) 0.033(2) -0.005(2) 0.002(2) 0.026(3)
C7 0.042(3) 0.044(3) 0.026(2) -0.001(2) 0.005(2) 0.029(2)
C8 0.049(3) 0.051(3) 0.038(3) 0.000(2) 0.000(2) 0.034(3)
C9 0.079(5) 0.071(5) 0.058(4) 0.007(3) 0.004(4) 0.060(4)
C10 0.067(4) 0.034(3) 0.070(4) 0.008(3) 0.013(3) 0.026(3)
C11 0.049(4) 0.037(3) 0.054(3) -0.002(3) 0.001(3) 0.016(3)
C12 0.044(3) 0.040(3) 0.031(2) -0.003(2) -0.001(2) 0.025(2)
C13 0.038(3) 0.027(2) 0.029(2) 0.0005(19) 0.001(2) 0.015(2)
C14 0.034(3) 0.032(2) 0.035(2) 0.003(2) 0.001(2) 0.016(2)
C15 0.041(3) 0.031(2) 0.034(3) -0.001(2) 0.006(2) 0.015(2)
C16 0.040(3) 0.031(3) 0.044(3) -0.002(2) 0.008(2) 0.019(2)
C17 0.043(3) 0.035(3) 0.050(3) 0.000(2) -0.001(2) 0.024(2)
C18 0.038(3) 0.033(3) 0.039(3) 0.002(2) 0.000(2) 0.020(2)
Rb1M 0.0524 0.0325 0.0351 0.0047 0.0045 0.0203
Rb1E 0.0325 0.0443 0.0351 -0.0002 -0.0047 0.0122
C4N 0.04 0.065 0.052 -0.023 -0.015 0.034
C11G 0.037 0.054 0.054 0.003 0.002 0.021
C12G 0.04 0.034 0.031 0.002 0.003 0.015
loop_
_geom_bond_atom_site_label_1
_geom_bond_atom_site_label_2
_geom_bond_site_symmetry_1
_geom_bond_site_symmetry_2
Rb1 C1 1_555 1_555
C1 C2 1_555 1_555
C2 H1 1_555 1_555
C3 Rb1 1_555 1_555
H2 C3 1_555 1_555
C4 Rb1 1_555 1_555
H3 C4 1_555 1_555
C5 Rb1 1_555 1_555
H4 C5 1_555 1_555
C6 Rb1 1_555 1_555
H5 C6 1_555 1_555
C7 C1 1_555 1_555
C8 C7 1_555 1_555
H6 C8 1_555 1_555
C9 C8 1_555 1_555
H7 C9 1_555 1_555
C10 C9 1_555 1_555
H8 C10 1_555 1_555
C11 C10 1_555 1_555
H9 C11 1_555 1_555
C12 C7 1_555 1_555
H10 C12 1_555 1_555
C13 C2 1_555 1_555
C14 C13 1_555 1_555
H11 C14 1_555 1_555
C15 C14 1_555 1_555
H12 C15 1_555 1_555
C16 C15 1_555 1_555
H13 C16 1_555 1_555
C17 C16 1_555 1_555
H14 C17 1_555 1_555
C18 C13 1_555 1_555
H15 C18 1_555 1_555
Rb1M C4 1_555 1_555
Rb1E C11 1_555 1_555
C4N Rb1 1_555 1_555
H3N C4N 1_555 1_555
C11G Rb1 1_555 1_555
H9G C11G 1_555 1_555
C12G Rb1 1_555 1_555
H10G C12G 1_555 1_555
C1 C6 1_555 1_555
C2 C3 1_555 1_555
C3 C4 1_555 1_555
C4 C5 1_555 1_555
C5 C6 1_555 1_555
C11 C12 1_555 1_555
C12 Rb1E 1_555 1_555
C17 C18 1_555 1_555
C11G C12G 1_555 1_555

#END
