
#######################################################################
#
#                 Cambridge Crystallographic Data Centre
#                                CCDC 
#
#######################################################################
#
# If this CIF has been generated from an entry in the Cambridge 
# Structural Database, then it will include bibliographic, chemical, 
# crystal, experimental, refinement or atomic coordinate data resulting 
# from the CCDC's data processing and validation procedures.
#
#######################################################################

data_PICZAE
_chemical_formula_moiety         'C49 H24 Fe2 N4 O19 Zn9'
_symmetry_cell_setting           tetragonal
_symmetry_space_group_name_H-M   'P 4/m m m'
_symmetry_Int_Tables_number      123
_space_group_name_Hall           '-P 4 2'
loop_
_symmetry_equiv_pos_site_id
_symmetry_equiv_pos_as_xyz
1 x,y,z
2 -x,-y,z
3 -y,x,z
4 y,-x,z
5 -x,y,-z
6 x,-y,-z
7 y,x,-z
8 -y,-x,-z
9 -x,-y,-z
10 x,y,-z
11 y,-x,-z
12 -y,x,-z
13 x,-y,z
14 -x,y,z
15 -y,-x,z
16 y,x,z
_cell_length_a                   16.6651(5)
_cell_length_b                   16.6651(5)
_cell_length_c                   8.8573(11)
_cell_angle_alpha                90
_cell_angle_beta                 90
_cell_angle_gamma                90
_cell_volume                     2459.9
loop_
_atom_site_label
_atom_site_type_symbol
_atom_site_fract_x
_atom_site_fract_y
_atom_site_fract_z
Zn1 Zn 0.5000 0.5000 0.1637(3)
Fe1 Fe 0.0000 0.0000 -0.0453(19)
O1 O 0.4144(3) 0.4144(3) 0.1287(11)
O2 O 0.5000 0.5000 0.3845(12)
O3 O -0.0000 -0.0000 0.193(5)
N1 N 0.0000 0.1228(6) 0.0000
C1 C 0.0405(6) 0.2532(6) 0.0000
H1 H 0.0736 0.2982 0.0000
C2 C 0.0662(6) 0.1708(5) 0.0000
C3 C 0.1458(5) 0.1458(5) 0.0000
C4 C 0.2085(6) 0.2085(6) 0.0000
C5 C 0.2380(4) 0.2380(4) 0.131(3)
H2 H 0.2182 0.2182 0.2221
C6 C 0.2986(4) 0.2986(4) 0.135(2)
H3 H 0.3182 0.3182 0.2259
C7 C 0.3269(6) 0.3269(6) 0.0000
C8 C 0.3934(6) 0.3934(6) 0.0000
C9 C 0.5000 0.5000 0.5000
O1D O -0.4144(3) 0.4144(3) -0.1287(11)
C1D C -0.0405(6) 0.2532(6) 0.0000
H1D H -0.0736 0.2982 0.0000
C2D C -0.0662(6) 0.1708(5) 0.0000
C3B C -0.1458(5) 0.1458(5) 0.0000
C4B C -0.2085(6) 0.2085(6) 0.0000
C5D C -0.2380(4) 0.2380(4) -0.131(3)
H2D H -0.2182 0.2182 -0.2221
C6D C -0.2986(4) 0.2986(4) -0.135(2)
H3D H -0.3182 0.3182 -0.2259
C7B C -0.3269(6) 0.3269(6) 0.0000
C8B C -0.3934(6) 0.3934(6) 0.0000
O1F O 0.4144(3) 0.4144(3) -0.1287(11)
N1C N 0.1228(6) 0.0000 0.0000
C1F C 0.2532(6) 0.0405(6) 0.0000
H1F H 0.2982 0.0736 0.0000
C2F C 0.1708(5) 0.0662(6) 0.0000
C5F C 0.2380(4) 0.2380(4) -0.131(3)
H2F H 0.2182 0.2182 -0.2221
C6F C 0.2986(4) 0.2986(4) -0.135(2)
H3F H 0.3182 0.3182 -0.2259
O1B O -0.4144(3) 0.4144(3) 0.1287(11)
C5B C -0.2380(4) 0.2380(4) 0.131(3)
H2B H -0.2182 0.2182 0.2221
C6B C -0.2986(4) 0.2986(4) 0.135(2)
H3B H -0.3182 0.3182 0.2259
N1B N -0.1228(6) 0.0000 0.0000
C1B C -0.2532(6) 0.0405(6) 0.0000
H1B H -0.2982 0.0736 0.0000
C2B C -0.1708(5) 0.0662(6) 0.0000
O1C O 0.4144(3) -0.4144(3) 0.1287(11)
C1C C 0.2532(6) -0.0405(6) 0.0000
H1C H 0.2982 -0.0736 0.0000
C2C C 0.1708(5) -0.0662(6) 0.0000
C3C C 0.1458(5) -0.1458(5) 0.0000
C4C C 0.2085(6) -0.2085(6) 0.0000
C5C C 0.2380(4) -0.2380(4) 0.131(3)
H2C H 0.2182 -0.2182 0.2221
C6C C 0.2986(4) -0.2986(4) 0.135(2)
H3C H 0.3182 -0.3182 0.2259
C7C C 0.3269(6) -0.3269(6) 0.0000
C8C C 0.3934(6) -0.3934(6) 0.0000
O1G O -0.4144(3) -0.4144(3) -0.1287(11)
C1G C -0.2532(6) -0.0405(6) 0.0000
H1G H -0.2982 -0.0736 0.0000
C2G C -0.1708(5) -0.0662(6) 0.0000
C3A C -0.1458(5) -0.1458(5) 0.0000
C4A C -0.2085(6) -0.2085(6) 0.0000
C5G C -0.2380(4) -0.2380(4) -0.131(3)
H2G H -0.2182 -0.2182 -0.2221
C6G C -0.2986(4) -0.2986(4) -0.135(2)
H3G H -0.3182 -0.3182 -0.2259
C7A C -0.3269(6) -0.3269(6) 0.0000
C8A C -0.3934(6) -0.3934(6) 0.0000
O1E O 0.4144(3) -0.4144(3) -0.1287(11)
C5E C 0.2380(4) -0.2380(4) -0.131(3)
H2E H 0.2182 -0.2182 -0.2221
C6E C 0.2986(4) -0.2986(4) -0.135(2)
H3E H 0.3182 -0.3182 -0.2259
O1A O -0.4144(3) -0.4144(3) 0.1287(11)
C5A C -0.2380(4) -0.2380(4) 0.131(3)
H2A H -0.2182 -0.2182 0.2221
C6A C -0.2986(4) -0.2986(4) 0.135(2)
H3A H -0.3182 -0.3182 0.2259
N1A N 0.0000 -0.1228(6) 0.0000
C1A C -0.0405(6) -0.2532(6) 0.0000
H1A H -0.0736 -0.2982 0.0000
C2A C -0.0662(6) -0.1708(5) 0.0000
C1E C 0.0405(6) -0.2532(6) 0.0000
H1E H 0.0736 -0.2982 0.0000
C2E C 0.0662(6) -0.1708(5) 0.0000
O2D O 0.5000 0.5000 0.6155(12)
Fe1D Fe 0.0000 0.0000 0.0453(19)
O3D O 0.0000 0.0000 -0.193(5)
Zn1D Zn 0.5000 0.5000 -0.1637(3)
Zn1_2 Zn -0.5000 -0.5000 0.1637(3)
Zn1_3 Zn -0.5000 0.5000 0.1637(3)
Zn1_4 Zn 0.5000 -0.5000 0.1637(3)
Zn1D_2 Zn -0.5000 -0.5000 -0.1637(3)
Zn1D_3 Zn -0.5000 0.5000 -0.1637(3)
Zn1D_4 Zn 0.5000 -0.5000 -0.1637(3)
Zn1D_5 Zn 0.5000 0.5000 0.8363(3)
O1A_2 O 0.5856(3) 0.5856(3) 0.1287(11)
O1B_2 O 0.5856(3) 0.4144(3) 0.1287(11)
O1C_2 O 0.4144(3) 0.5856(3) 0.1287(11)
O1D_2 O 0.5856(3) 0.4144(3) -0.1287(11)
O1E_2 O 0.4144(3) 0.5856(3) -0.1287(11)
O1G_2 O 0.5856(3) 0.5856(3) -0.1287(11)
O2D_2 O 0.5000 0.5000 -0.3845(12)
loop_
_geom_bond_atom_site_label_1
_geom_bond_atom_site_label_2
_geom_bond_site_symmetry_1
_geom_bond_site_symmetry_2
Zn1 O1 1_555 1_555
Fe1 O3 1_555 1_555
O1 C8 1_555 1_555
O2 Zn1 1_555 1_555
O3 Fe1D 1_555 1_555
N1 Fe1 1_555 1_555
C1 H1 1_555 1_555
C2 N1 1_555 1_555
C3 C2 1_555 1_555
C4 C3 1_555 1_555
C5 C4 1_555 1_555
H2 C5 1_555 1_555
C6 C5 1_555 1_555
H3 C6 1_555 1_555
C7 C6 1_555 1_555
C8 C7 1_555 1_555
C9 O2 1_555 1_555
O1D C8B 1_555 1_555
C1D C1 1_555 1_555
H1D C1D 1_555 1_555
C2D N1 1_555 1_555
C3B C2D 1_555 1_555
C4B C3B 1_555 1_555
C5D C4B 1_555 1_555
H2D C5D 1_555 1_555
C6D C5D 1_555 1_555
H3D C6D 1_555 1_555
C7B C6D 1_555 1_555
C8B C7B 1_555 1_555
O1F C8 1_555 1_555
N1C Fe1 1_555 1_555
C1F H1F 1_555 1_555
C2F C3 1_555 1_555
C5F C4 1_555 1_555
H2F C5F 1_555 1_555
C6F C7 1_555 1_555
H3F C6F 1_555 1_555
O1B C8B 1_555 1_555
C5B C4B 1_555 1_555
H2B C5B 1_555 1_555
C6B C7B 1_555 1_555
H3B C6B 1_555 1_555
N1B Fe1 1_555 1_555
C1B H1B 1_555 1_555
C2B C3B 1_555 1_555
O1C C8C 1_555 1_555
C1C C1F 1_555 1_555
H1C C1C 1_555 1_555
C2C N1C 1_555 1_555
C3C C2C 1_555 1_555
C4C C3C 1_555 1_555
C5C C4C 1_555 1_555
H2C C5C 1_555 1_555
C6C C5C 1_555 1_555
H3C C6C 1_555 1_555
C7C C6C 1_555 1_555
C8C C7C 1_555 1_555
O1G C8A 1_555 1_555
C1G C1B 1_555 1_555
H1G C1G 1_555 1_555
C2G N1B 1_555 1_555
C3A C2G 1_555 1_555
C4A C3A 1_555 1_555
C5G C4A 1_555 1_555
H2G C5G 1_555 1_555
C6G C5G 1_555 1_555
H3G C6G 1_555 1_555
C7A C6G 1_555 1_555
C8A C7A 1_555 1_555
O1E C8C 1_555 1_555
C5E C4C 1_555 1_555
H2E C5E 1_555 1_555
C6E C7C 1_555 1_555
H3E C6E 1_555 1_555
O1A C8A 1_555 1_555
C5A C4A 1_555 1_555
H2A C5A 1_555 1_555
C6A C7A 1_555 1_555
H3A C6A 1_555 1_555
N1A Fe1 1_555 1_555
C1A H1A 1_555 1_555
C2A C3A 1_555 1_555
C1E C1A 1_555 1_555
H1E C1E 1_555 1_555
C2E C3C 1_555 1_555
O2D C9 1_555 1_555
Fe1D Fe1 1_555 1_555
O3D Fe1 1_555 1_555
Zn1D O1F 1_555 1_555
Zn1_2 O1A 1_555 1_555
Zn1_3 O1B 1_555 1_555
Zn1_4 O1C 1_555 1_555
Zn1D_2 O1G 1_555 1_555
Zn1D_3 O1D 1_555 1_555
Zn1D_4 O1E 1_555 1_555
Zn1D_5 O2D 1_555 1_555
O1A_2 Zn1 1_555 1_555
O1B_2 Zn1 1_555 1_555
O1C_2 Zn1 1_555 1_555
O1D_2 Zn1D 1_555 1_555
O1E_2 Zn1D 1_555 1_555
O1G_2 Zn1D 1_555 1_555
O2D_2 Zn1D 1_555 1_555
N1 Fe1D 1_555 1_555
C1 C2 1_555 1_555
C1D C2D 1_555 1_555
N1C C2F 1_555 1_555
N1C Fe1D 1_555 1_555
C1F C2F 1_555 1_555
C5F C6F 1_555 1_555
C5B C6B 1_555 1_555
N1B C2B 1_555 1_555
N1B Fe1D 1_555 1_555
C1B C2B 1_555 1_555
C1C C2C 1_555 1_555
C1G C2G 1_555 1_555
C5E C6E 1_555 1_555
C5A C6A 1_555 1_555
N1A C2A 1_555 1_555
N1A C2E 1_555 1_555
N1A Fe1D 1_555 1_555
C1A C2A 1_555 1_555
C1E C2E 1_555 1_555
Fe1D O3D 1_555 1_555

#END
