
#######################################################################
#
#                 Cambridge Crystallographic Data Centre
#                                CCDC 
#
#######################################################################
#
# If this CIF has been generated from an entry in the Cambridge 
# Structural Database, then it will include bibliographic, chemical, 
# crystal, experimental, refinement or atomic coordinate data resulting 
# from the CCDC's data processing and validation procedures.
#
#######################################################################

data_QAFDOQ
_chemical_formula_moiety         'C59 N3 Ni1 O4 Sn4'
_symmetry_cell_setting           cubic
_symmetry_space_group_name_H-M   'F d -3 c'
_symmetry_Int_Tables_number      228
_space_group_name_Hall           '-F 4ud 2vw 3'
loop_
_symmetry_equiv_pos_site_id
_symmetry_equiv_pos_as_xyz
1 x,y,z
2 1/2-y,1/4+x,1/4+z
3 x,1/4-y,1/4-z
4 z,x,y
5 1/4-x,3/4-y,1/2+z
6 1/4+y,1/4+x,1/2-z
7 1/2-x,1/4+z,1/4+y
8 3/4+y,1/2-x,3/4+z
9 1/4-x,1/2+y,3/4-z
10 1/4-z,3/4-x,1/2+y
11 -y,1/2-x,-z
12 3/4+x,1/2-z,3/4+y
13 z,1/4-x,1/4-y
14 1/2-x,-z,-y
15 1/4-z,1/2+x,3/4-y
16 3/4+x,3/4+z,1/2-y
17 y,z,x
18 1/2-z,1/4+y,1/4+x
19 3/4+z,3/4+y,1/2-x
20 1/2+y,1/4-z,3/4-x
21 -z,-y,1/2-x
22 1/4-y,z,1/4-x
23 3/4-y,1/4-z,1/2+x
24 1/4+z,1/2-y,1/4+x
25 x,1/2+y,1/2+z
26 1/2-y,3/4+x,3/4+z
27 x,3/4-y,3/4-z
28 z,1/2+x,1/2+y
29 1/4-x,1/4-y,z
30 1/4+y,3/4+x,-z
31 1/2-x,3/4+z,3/4+y
32 3/4+y,-x,1/4+z
33 1/4-x,y,1/4-z
34 1/4-z,1/4-x,y
35 -y,-x,1/2-z
36 3/4+x,-z,1/4+y
37 z,3/4-x,3/4-y
38 1/2-x,1/2-z,1/2-y
39 1/4-z,x,1/4-y
40 3/4+x,1/4+z,-y
41 y,1/2+z,1/2+x
42 1/2-z,3/4+y,3/4+x
43 3/4+z,1/4+y,-x
44 1/2+y,3/4-z,1/4-x
45 -z,1/2-y,-x
46 1/4-y,1/2+z,3/4-x
47 3/4-y,3/4-z,x
48 1/4+z,-y,3/4+x
49 1/2+x,y,1/2+z
50 -y,1/4+x,3/4+z
51 1/2+x,1/4-y,3/4-z
52 1/2+z,x,1/2+y
53 3/4-x,3/4-y,z
54 3/4+y,1/4+x,-z
55 -x,1/4+z,3/4+y
56 1/4+y,1/2-x,1/4+z
57 3/4-x,1/2+y,1/4-z
58 3/4-z,3/4-x,y
59 1/2-y,1/2-x,1/2-z
60 1/4+x,1/2-z,1/4+y
61 1/2+z,1/4-x,3/4-y
62 -x,-z,1/2-y
63 3/4-z,1/2+x,1/4-y
64 1/4+x,3/4+z,-y
65 1/2+y,z,1/2+x
66 -z,1/4+y,3/4+x
67 1/4+z,3/4+y,-x
68 y,1/4-z,1/4-x
69 1/2-z,-y,-x
70 3/4-y,z,3/4-x
71 1/4-y,1/4-z,x
72 1/2+x,1/2+y,z
73 -y,3/4+x,1/4+z
74 1/2+x,3/4-y,1/4-z
75 1/2+z,1/2+x,y
76 3/4-x,1/4-y,1/2+z
77 3/4+y,3/4+x,1/2-z
78 -x,3/4+z,1/4+y
79 1/4+y,-x,3/4+z
80 3/4-x,y,3/4-z
81 3/4-z,1/4-x,1/2+y
82 1/2-y,-x,-z
83 1/4+x,-z,3/4+y
84 1/2+z,3/4-x,1/4-y
85 -x,1/2-z,-y
86 3/4-z,x,3/4-y
87 1/4+x,1/4+z,1/2-y
88 1/2+y,1/2+z,x
89 -z,3/4+y,1/4+x
90 1/4+z,1/4+y,1/2-x
91 y,3/4-z,3/4-x
92 1/2-z,1/2-y,1/2-x
93 3/4-y,1/2+z,1/4-x
94 1/4-y,3/4-z,1/2+x
95 3/4+z,1/2-y,3/4+x
96 3/4+z,-y,1/4+x
97 -x,-y,-z
98 1/2+y,3/4-x,3/4-z
99 -x,3/4+y,3/4+z
100 -z,-x,-y
101 3/4+x,1/4+y,1/2-z
102 3/4-y,3/4-x,1/2+z
103 1/2+x,3/4-z,3/4-y
104 1/4-y,1/2+x,1/4-z
105 3/4+x,1/2-y,1/4+z
106 3/4+z,1/4+x,1/2-y
107 y,1/2+x,z
108 1/4-x,1/2+z,1/4-y
109 -z,3/4+x,3/4+y
110 1/2+x,z,y
111 3/4+z,1/2-x,1/4+y
112 1/4-x,1/4-z,1/2+y
113 -y,-z,-x
114 1/2+z,3/4-y,3/4-x
115 1/4-z,1/4-y,1/2+x
116 1/2-y,3/4+z,1/4+x
117 z,y,1/2+x
118 3/4+y,-z,3/4+x
119 1/4+y,3/4+z,1/2-x
120 3/4-z,1/2+y,3/4-x
121 -x,1/2-y,1/2-z
122 1/2+y,1/4-x,1/4-z
123 -x,1/4+y,1/4+z
124 -z,1/2-x,1/2-y
125 3/4+x,3/4+y,-z
126 3/4-y,1/4-x,z
127 1/2+x,1/4-z,1/4-y
128 1/4-y,x,3/4-z
129 3/4+x,-y,3/4+z
130 3/4+z,3/4+x,-y
131 y,x,1/2+z
132 1/4-x,z,3/4-y
133 -z,1/4+x,1/4+y
134 1/2+x,1/2+z,1/2+y
135 3/4+z,-x,3/4+y
136 1/4-x,3/4-z,y
137 -y,1/2-z,1/2-x
138 1/2+z,1/4-y,1/4-x
139 1/4-z,3/4-y,x
140 1/2-y,1/4+z,3/4+x
141 z,1/2+y,x
142 3/4+y,1/2-z,1/4+x
143 1/4+y,1/4+z,-x
144 3/4-z,y,1/4-x
145 1/2-x,-y,1/2-z
146 y,3/4-x,1/4-z
147 1/2-x,3/4+y,1/4+z
148 1/2-z,-x,1/2-y
149 1/4+x,1/4+y,-z
150 1/4-y,3/4-x,z
151 x,3/4-z,1/4-y
152 3/4-y,1/2+x,3/4-z
153 1/4+x,1/2-y,3/4+z
154 1/4+z,1/4+x,-y
155 1/2+y,1/2+x,1/2+z
156 3/4-x,1/2+z,3/4-y
157 1/2-z,3/4+x,1/4+y
158 x,z,1/2+y
159 1/4+z,1/2-x,3/4+y
160 3/4-x,1/4-z,y
161 1/2-y,-z,1/2-x
162 z,3/4-y,1/4-x
163 3/4-z,1/4-y,x
164 -y,3/4+z,3/4+x
165 1/2+z,y,x
166 1/4+y,-z,1/4+x
167 3/4+y,3/4+z,-x
168 1/2-x,1/2-y,-z
169 y,1/4-x,3/4-z
170 1/2-x,1/4+y,3/4+z
171 1/2-z,1/2-x,-y
172 1/4+x,3/4+y,1/2-z
173 1/4-y,1/4-x,1/2+z
174 x,1/4-z,3/4-y
175 3/4-y,x,1/4-z
176 1/4+x,-y,1/4+z
177 1/4+z,3/4+x,1/2-y
178 1/2+y,x,z
179 3/4-x,z,1/4-y
180 1/2-z,1/4+x,3/4+y
181 x,1/2+z,y
182 1/4+z,-x,1/4+y
183 3/4-x,3/4-z,1/2+y
184 1/2-y,1/2-z,-x
185 z,1/4-y,3/4-x
186 3/4-z,3/4-y,1/2+x
187 -y,1/4+z,1/4+x
188 1/2+z,1/2+y,1/2+x
189 1/4+y,1/2-z,3/4+x
190 3/4+y,1/4+z,1/2-x
191 1/4-z,1/2+y,1/4-x
192 1/4-z,y,3/4-x
_cell_length_a                   41.9716(13)
_cell_length_b                   41.9716(13)
_cell_length_c                   41.9716(13)
_cell_angle_alpha                90
_cell_angle_beta                 90
_cell_angle_gamma                90
_cell_volume                     73937.8
loop_
_atom_site_label
_atom_site_type_symbol
_atom_site_fract_x
_atom_site_fract_y
_atom_site_fract_z
_atom_site_U_iso_or_equiv
_atom_site_thermal_displace_type
Sn1 Sn 0.62963(3) 0.87963(3) 0.0000 0.0385 Uani
Ni1 Ni 0.6250 0.8750 0.1250 0.0373 Uani
C1 C 0.6301(5) 0.8753(4) 0.0798(8) 0.0377 Uani
N1 N 0.6331(5) 0.8758(4) 0.0532(5) 0.0707 Uani
C2 C 0.6652(3) 0.9152(3) 0.0000 0.0720 Uiso
C3 C 0.6878(4) 0.9126(4) 0.0240(3) 0.0720 Uiso
C4 C 0.7090(4) 0.9374(6) 0.0296(5) 0.0720 Uiso
C5 C 0.7076(5) 0.9648(5) 0.0111(6) 0.0720 Uiso
C6 C 0.7174(6) 0.9350(2) 0.0130(6) 0.0720 Uiso
C7 C 0.6638(5) 0.9426(2) -0.0185(3) 0.0720 Uiso
C8 C 0.6446(8) 0.8301(5) -0.0062(7) 0.0480 Uiso
C9 C 0.6648(9) 0.8221(6) -0.0313(7) 0.0480 Uiso
C10 C 0.6760(7) 0.7911(7) -0.0342(5) 0.0480 Uiso
C11 C 0.6671(6) 0.7681(5) -0.0121(6) 0.0480 Uiso
C12 C 0.6469(6) 0.7762(5) 0.0129(5) 0.0480 Uiso
C13 C 0.6357(6) 0.8072(6) 0.0158(5) 0.0480 Uiso
N1AB N 0.6258(4) 0.8831(5) -0.0532(5) 0.0707 Uani
C8AB C 0.5801(5) 0.8946(8) 0.0062(7) 0.0480 Uiso
C1FA C 0.6199(5) 0.8753(4) 0.1702(8) 0.0377 Uani
C1ID C 0.5798(8) 0.8747(4) 0.1199(5) 0.0377 Uani
C1CG C 0.6702(8) 0.8747(4) 0.1301(5) 0.0377 Uani
C3AB C 0.6626(4) 0.9378(4) -0.0240(3) 0.0720 Uiso
C7AB C 0.6926(2) 0.9138(5) 0.0185(3) 0.0720 Uiso
C5AB C 0.7148(5) 0.9576(5) -0.0111(6) 0.0720 Uiso
C6AB C 0.6850(2) 0.9674(6) -0.0130(6) 0.0720 Uiso
C4AB C 0.6874(6) 0.9590(4) -0.0296(5) 0.0720 Uiso
Sn2 Sn 0.5686(5) 0.5740(11) 0.0838(7) 0.0957 Uani
C14 C 0.5682(8) 0.5392(12) 0.1086(9) 0.1630 Uiso
C15 C 0.5794(13) 0.5102(11) 0.0975(13) 0.1630 Uiso
C16 C 0.5779(17) 0.4832(13) 0.1161(18) 0.1630 Uiso
C17 C 0.5652(17) 0.4850(15) 0.1460(18) 0.1630 Uiso
C18 C 0.5538(14) 0.5133(17) 0.1574(14) 0.1630 Uiso
C19 C 0.5551(10) 0.5403(14) 0.1389(10) 0.1630 Uiso
C20 C 0.5287(7) 0.6066(15) 0.0761(9) 0.1630 Uiso
C21 C 0.5881(6) 0.5004(18) 0.0947(12) 0.1630 Uiso
C22 C 0.5859(8) 0.4725(23) 0.1118(17) 0.1630 Uiso
C23 C 0.5715(13) 0.4726(25) 0.1411(18) 0.1630 Uiso
C24 C 0.5592(14) 0.5004(21) 0.1531(16) 0.1630 Uiso
C25 C 0.5613(11) 0.5282(16) 0.1360(12) 0.1630 Uiso
C26 C 0.5973(10) 0.5750(12) 0.0379(9) 0.1630 Uiso
C27 C 0.5850(14) 0.5090(16) 0.0846(8) 0.1630 Uiso
C28 C 0.5820(19) 0.4811(19) 0.1016(10) 0.1630 Uiso
C29 C 0.5691(20) 0.4817(18) 0.1315(14) 0.1630 Uiso
C30 C 0.5588(17) 0.5099(16) 0.1443(16) 0.1630 Uiso
C31 C 0.5617(11) 0.5378(13) 0.1274(13) 0.1630 Uiso
O1 O 0.5946(18) 0.5996(20) 0.1221(15) 0.1550 Uiso
O2 O 0.5888(37) 0.5888(37) 0.0888(37) 0.1140 Uiso
Sn2NA Sn 0.5740(11) 0.5838(7) 0.0686(5) 0.0957 Uani
Sn2YA Sn 0.5838(7) 0.5686(5) 0.0740(11) 0.0957 Uani
C14NA C 0.5392(12) 0.6086(9) 0.0682(8) 0.1630 Uiso
C14YA C 0.6086(9) 0.5682(8) 0.0392(12) 0.1630 Uiso
C20YA C 0.5761(9) 0.5287(7) 0.1066(15) 0.1630 Uiso
C26NA C 0.5750(12) 0.5379(9) 0.0973(10) 0.1630 Uiso
C26YA C 0.5379(9) 0.5973(10) 0.0750(12) 0.1630 Uiso
O1NA O 0.5996(20) 0.6221(15) 0.0946(18) 0.1550 Uiso
O1YA O 0.6221(15) 0.5946(18) 0.0996(20) 0.1550 Uiso
C21NA C 0.5004(18) 0.5947(12) 0.0881(6) 0.1630 Uiso
C25NA C 0.5282(16) 0.6360(12) 0.0613(11) 0.1630 Uiso
C27NA C 0.5090(16) 0.5846(8) 0.0850(14) 0.1630 Uiso
C31NA C 0.5378(13) 0.6274(13) 0.0617(11) 0.1630 Uiso
C15NA C 0.5102(11) 0.5975(13) 0.0794(13) 0.1630 Uiso
C19NA C 0.5403(14) 0.6389(10) 0.0551(10) 0.1630 Uiso
C27YA C 0.5846(8) 0.5850(14) 0.0090(16) 0.1630 Uiso
C31YA C 0.6274(13) 0.5617(11) 0.0378(13) 0.1630 Uiso
C15YA C 0.5975(13) 0.5794(13) 0.0102(11) 0.1630 Uiso
C20NA C 0.6066(15) 0.5761(9) 0.0287(7) 0.1630 Uiso
C21YA C 0.5947(12) 0.5881(6) 0.0004(18) 0.1630 Uiso
N2 N 0.5361(2) 0.5361(2) 0.0361(2) 0.1140 Uiso
C32 C 0.52014(14) 0.52014(14) 0.02014(14) 0.1140 Uiso
C33 C 0.5000 0.5000 0.0000 0.1140 Uiso
C32RC C 0.47986(14) 0.47986(14) -0.02014(14) 0.1140 Uiso
loop_
_atom_site_aniso_label
_atom_site_aniso_U_11
_atom_site_aniso_U_22
_atom_site_aniso_U_33
_atom_site_aniso_U_23
_atom_site_aniso_U_13
_atom_site_aniso_U_12
Sn1 0.0482(12) 0.0482(12) 0.019(3) -0.0022(7) 0.0022(7) 0.0000(8)
Ni1 0.024(4) 0.064(4) 0.024(4) 0.000 0.000 0.000
C1 0.017(14) 0.047(15) 0.049(41) -0.002(14) 0.005(16) 0.010(7)
N1 0.064(14) 0.117(16) 0.031(38) 0.008(12) 0.008(16) 0.000(8)
N1AB 0.117 0.064 0.031 -0.008 -0.008 0
C1FA 0.017 0.047 0.049 0.002 0.005 -0.01
C1ID 0.049 0.047 0.017 0.01 -0.005 0.002
C1CG 0.049 0.047 0.017 -0.01 -0.005 -0.002
Sn2 0.040(10) 0.128(15) 0.119(14) -0.002(15) 0.019(6) 0.022(6)
Sn2NA 0.128 0.119 0.04 0.019 0.022 -0.002
Sn2YA 0.119 0.04 0.128 0.022 -0.002 0.019
loop_
_geom_bond_atom_site_label_1
_geom_bond_atom_site_label_2
_geom_bond_site_symmetry_1
_geom_bond_site_symmetry_2
Sn1 N1 1_555 1_555
Ni1 C1 1_555 1_555
C1 N1 1_555 1_555
C2 Sn1 1_555 1_555
C3 C2 1_555 1_555
C4 C3 1_555 1_555
C5 C4 1_555 1_555
C6 C3 1_555 1_555
C7 C2 1_555 1_555
C8 Sn1 1_555 1_555
C9 C8 1_555 1_555
C10 C9 1_555 1_555
C11 C10 1_555 1_555
C12 C11 1_555 1_555
C13 C8 1_555 1_555
Sn2 C14 1_555 1_555
C14 C15 1_555 1_555
C15 C16 1_555 1_555
C16 C17 1_555 1_555
C17 C18 1_555 1_555
C18 C19 1_555 1_555
C19 C14 1_555 1_555
C20 Sn2 1_555 1_555
C21 C15 1_555 1_555
C22 C15 1_555 1_555
C23 C16 1_555 1_555
C24 C17 1_555 1_555
C25 C14 1_555 1_555
C26 Sn2 1_555 1_555
C27 C15 1_555 1_555
C28 C15 1_555 1_555
C29 C16 1_555 1_555
C30 C17 1_555 1_555
C31 Sn2 1_555 1_555
O1 Sn2 1_555 1_555
O2 Sn2 1_555 1_555
N2 C32 1_555 1_555
C32 C33 1_555 1_555
C33 C32RC 1_555 1_555
N1AB Sn1 1_555 1_555
C8AB Sn1 1_555 1_555
C1FA Ni1 1_555 1_555
C1ID Ni1 1_555 1_555
C1CG Ni1 1_555 1_555
C3AB C2 1_555 1_555
C7AB C2 1_555 1_555
C5AB C5 1_555 1_555
C6AB C5 1_555 1_555
C4AB C7 1_555 1_555
Sn2NA Sn2 1_555 1_555
Sn2YA Sn2 1_555 1_555
C14NA Sn2 1_555 1_555
C14YA Sn2 1_555 1_555
C20YA Sn2 1_555 1_555
C26NA Sn2 1_555 1_555
C26YA Sn2 1_555 1_555
O1NA Sn2 1_555 1_555
O1YA Sn2 1_555 1_555
C21NA C20 1_555 1_555
C25NA C20 1_555 1_555
C27NA C20 1_555 1_555
C31NA C20 1_555 1_555
C15NA C20 1_555 1_555
C19NA C20 1_555 1_555
C27YA C26 1_555 1_555
C31YA C26 1_555 1_555
C15YA C26 1_555 1_555
C20NA C26 1_555 1_555
C21YA C26 1_555 1_555
C3 C7AB 1_555 1_555
C4 C6 1_555 1_555
C4 C7AB 1_555 1_555
C5 C6 1_555 1_555
C6 C7AB 1_555 1_555
C6 C5AB 1_555 1_555
C7 C3AB 1_555 1_555
C7 C6AB 1_555 1_555
C12 C13 1_555 1_555
C14 C31 1_555 1_555
C14 Sn2NA 1_555 1_555
C14 Sn2YA 1_555 1_555
C14 C20YA 1_555 1_555
C14 C26NA 1_555 1_555
C15 C20YA 1_555 1_555
C15 C26NA 1_555 1_555
C16 C21 1_555 1_555
C16 C22 1_555 1_555
C16 C27 1_555 1_555
C16 C28 1_555 1_555
C17 C22 1_555 1_555
C17 C23 1_555 1_555
C17 C29 1_555 1_555
C18 C24 1_555 1_555
C18 C25 1_555 1_555
C18 C30 1_555 1_555
C18 C31 1_555 1_555
C19 C25 1_555 1_555
C19 C30 1_555 1_555
C19 C31 1_555 1_555
C19 C20YA 1_555 1_555
C20 Sn2NA 1_555 1_555
C20 C14NA 1_555 1_555
C20 C26YA 1_555 1_555
C21 C22 1_555 1_555
C21 C27 1_555 1_555
C21 C28 1_555 1_555
C21 C20YA 1_555 1_555
C21 C26NA 1_555 1_555
C22 C23 1_555 1_555
C22 C28 1_555 1_555
C22 C29 1_555 1_555
C23 C24 1_555 1_555
C23 C28 1_555 1_555
C23 C29 1_555 1_555
C23 C30 1_555 1_555
C24 C25 1_555 1_555
C24 C29 1_555 1_555
C24 C30 1_555 1_555
C25 C30 1_555 1_555
C25 C31 1_555 1_555
C25 C20YA 1_555 1_555
C26 Sn2NA 1_555 1_555
C26 Sn2YA 1_555 1_555
C26 C14YA 1_555 1_555
C27 C28 1_555 1_555
C27 C20YA 1_555 1_555
C27 C26NA 1_555 1_555
C28 C29 1_555 1_555
C29 C30 1_555 1_555
C30 C31 1_555 1_555
C31 C20YA 1_555 1_555
C31 C26NA 1_555 1_555
O1 O2 1_555 1_555
O1 Sn2NA 1_555 1_555
O1 Sn2YA 1_555 1_555
O1 O1NA 1_555 1_555
O1 O1YA 1_555 1_555
O2 Sn2NA 1_555 1_555
O2 Sn2YA 1_555 1_555
O2 O1NA 1_555 1_555
O2 O1YA 1_555 1_555
C3AB C6AB 1_555 1_555
C3AB C4AB 1_555 1_555
C5AB C6AB 1_555 1_555
C5AB C4AB 1_555 1_555
C6AB C4AB 1_555 1_555
Sn2NA Sn2YA 1_555 1_555
Sn2NA C14NA 1_555 1_555
Sn2NA C14YA 1_555 1_555
Sn2NA C26NA 1_555 1_555
Sn2NA C26YA 1_555 1_555
Sn2NA O1NA 1_555 1_555
Sn2NA O1YA 1_555 1_555
Sn2NA C31NA 1_555 1_555
Sn2NA C20NA 1_555 1_555
Sn2YA C14NA 1_555 1_555
Sn2YA C14YA 1_555 1_555
Sn2YA C20YA 1_555 1_555
Sn2YA C26NA 1_555 1_555
Sn2YA C26YA 1_555 1_555
Sn2YA O1NA 1_555 1_555
Sn2YA O1YA 1_555 1_555
Sn2YA C31YA 1_555 1_555
Sn2YA C20NA 1_555 1_555
C14NA C26YA 1_555 1_555
C14NA C25NA 1_555 1_555
C14NA C31NA 1_555 1_555
C14NA C15NA 1_555 1_555
C14NA C19NA 1_555 1_555
C14YA C31YA 1_555 1_555
C14YA C15YA 1_555 1_555
C14YA C20NA 1_555 1_555
C20YA C26NA 1_555 1_555
C26YA C21NA 1_555 1_555
C26YA C27NA 1_555 1_555
C26YA C31NA 1_555 1_555
C26YA C15NA 1_555 1_555
O1NA O1YA 1_555 1_555
C21NA C27NA 1_555 1_555
C21NA C15NA 1_555 1_555
C25NA C31NA 1_555 1_555
C25NA C19NA 1_555 1_555
C27NA C15NA 1_555 1_555
C31NA C19NA 1_555 1_555
C27YA C15YA 1_555 1_555
C27YA C20NA 1_555 1_555
C27YA C21YA 1_555 1_555
C31YA C20NA 1_555 1_555
C15YA C20NA 1_555 1_555
C15YA C21YA 1_555 1_555
C20NA C21YA 1_555 1_555

#END
