
#######################################################################
#
#                 Cambridge Crystallographic Data Centre
#                                CCDC 
#
#######################################################################
#
# If this CIF has been generated from an entry in the Cambridge 
# Structural Database, then it will include bibliographic, chemical, 
# crystal, experimental, refinement or atomic coordinate data resulting 
# from the CCDC's data processing and validation procedures.
#
#######################################################################

data_CAGKIG02
_chemical_formula_moiety         'C48 H16 Cd4 I2 N11'
_symmetry_cell_setting           orthorhombic
_symmetry_space_group_name_H-M   'P n n m'
_symmetry_Int_Tables_number      58
_space_group_name_Hall           '-P 2 2n'
loop_
_symmetry_equiv_pos_site_id
_symmetry_equiv_pos_as_xyz
1 x,y,z
2 -x,-y,z
3 1/2-x,1/2+y,1/2-z
4 1/2+x,1/2-y,1/2-z
5 -x,-y,-z
6 x,y,-z
7 1/2+x,1/2-y,1/2+z
8 1/2-x,1/2+y,1/2+z
_cell_length_a                   8.9939(17)
_cell_length_b                   18.270(4)
_cell_length_c                   20.380(4)
_cell_angle_alpha                90
_cell_angle_beta                 90
_cell_angle_gamma                90
_cell_volume                     3348.81
loop_
_atom_site_label
_atom_site_type_symbol
_atom_site_fract_x
_atom_site_fract_y
_atom_site_fract_z
Cd1 Cd 0.5000 0.5000 1.0000
I1 I 0.21157(5) 0.42487(2) 1.0000
N1 N 0.4266(4) 0.42981(16) 1.42801(15)
N2 N 0.5000 0.5000 1.1194(2)
N3 N 0.1306(6) 0.1182(2) 1.5000
C1 C 0.3638(5) 0.3624(2) 1.43932(18)
C2 C 0.3310(6) 0.3293(2) 1.3769(2)
H1 H 0.2868 0.2839 1.3701
C3 C 0.3767(5) 0.3766(2) 1.3298(2)
H2 H 0.3715 0.3693 1.2847
C4 C 0.4344(5) 0.4396(2) 1.3622(2)
C5 C 0.5000 0.5000 1.3298(3)
C6 C 0.5000 0.5000 1.2573(3)
C7 C 0.3697(6) 0.5030(3) 1.2211(2)
H3 H 0.2784 0.5053 1.2425
C8 C 0.3751(6) 0.5025(3) 1.1537(2)
H4 H 0.2857 0.5040 1.1308
C9 C 0.3342(7) 0.3311(3) 1.5000
C10 C 0.2642(7) 0.2559(3) 1.5000
C11 C 0.3361(10) 0.1965(4) 1.4835(4)
C12 C 0.2718(9) 0.1275(4) 1.4840(4)
C13 C 0.0556(11) 0.1760(4) 1.5203(4)
C14 C 0.1176(10) 0.2480(4) 1.5218(3)
Cd1B Cd -0.0000 0.0000 1.5000
Cd1_2 Cd 0.5000 0.5000 2.0000
Cd1B_2 Cd 1.0000 1.0000 1.5000
I1A I 0.78843(5) 0.57513(2) 1.0000
N1A N 0.5734(4) 0.57019(16) 1.42801(15)
N1D N 0.5734(4) 0.57019(16) 1.57199(15)
N1E N 0.4266(4) 0.42981(16) 1.57199(15)
N2D N 0.5000 0.5000 1.8806(2)
N2D_2 N 0.5000 0.5000 0.8806(2)
N3A N 0.8694(6) 0.8818(2) 1.5000
N3B N 0.3694(6) 0.6182(2) 1.0000
N3C N 0.6306(6) 0.3818(2) 1.0000
C1A C 0.6362(5) 0.6376(2) 1.43932(18)
C1D C 0.6362(5) 0.6376(2) 1.56068(18)
C1E C 0.3638(5) 0.3624(2) 1.56068(18)
C2A C 0.6690(6) 0.6707(2) 1.3769(2)
C2D C 0.6690(6) 0.6707(2) 1.6231(2)
C2E C 0.3310(6) 0.3293(2) 1.6231(2)
H1A H 0.7132 0.7161 1.3701
H1D H 0.7132 0.7161 1.6299
H1E H 0.2868 0.2839 1.6299
C3A C 0.6233(5) 0.6234(2) 1.3298(2)
C3D C 0.6233(5) 0.6234(2) 1.6702(2)
C3E C 0.3767(5) 0.3766(2) 1.6702(2)
H2A H 0.6285 0.6307 1.2847
H2D H 0.6285 0.6307 1.7153
H2E H 0.3715 0.3693 1.7153
C4A C 0.5656(5) 0.5604(2) 1.3622(2)
C4D C 0.5656(5) 0.5604(2) 1.6378(2)
C4E C 0.4344(5) 0.4396(2) 1.6378(2)
C5D C 0.5000 0.5000 1.6702(3)
C6D C 0.5000 0.5000 1.7427(3)
C7D C 0.6303(6) 0.4970(3) 1.7789(2)
C7E C 0.3697(6) 0.5030(3) 1.7789(2)
C7A C 0.6303(6) 0.4970(3) 1.2211(2)
H3D H 0.7216 0.4947 1.7575
H3E H 0.2784 0.5053 1.7575
H3A H 0.7216 0.4947 1.2425
C8D C 0.6249(6) 0.4975(3) 1.8463(2)
C8E C 0.3751(6) 0.5025(3) 1.8463(2)
C8A C 0.6249(6) 0.4975(3) 1.1537(2)
H4E H 0.2857 0.5040 1.8692
H4D H 0.7143 0.4960 1.8692
H4A H 0.7143 0.4960 1.1308
C9A C 0.6658(7) 0.6689(3) 1.5000
C10A C 0.7358(7) 0.7441(3) 1.5000
C11E C 0.3361(10) 0.1965(4) 1.5165(4)
C11A C 0.6639(10) 0.8035(4) 1.4835(4)
C11D C 0.6639(10) 0.8035(4) 1.5165(4)
C12E C 0.2718(9) 0.1275(4) 1.5160(4)
C12A C 0.7282(9) 0.8725(4) 1.4840(4)
C12D C 0.7282(9) 0.8725(4) 1.5160(4)
C13E C 0.0556(11) 0.1760(4) 1.4797(4)
C13A C 0.9444(11) 0.8240(4) 1.5203(4)
C13D C 0.9444(11) 0.8240(4) 1.4797(4)
C14E C 0.1176(10) 0.2480(4) 1.4782(3)
C14A C 0.8824(10) 0.7520(4) 1.5218(3)
C14D C 0.8824(10) 0.7520(4) 1.4782(3)
loop_
_geom_bond_atom_site_label_1
_geom_bond_atom_site_label_2
_geom_bond_site_symmetry_1
_geom_bond_site_symmetry_2
Cd1 I1 1_555 1_555
N1 C1 1_555 1_555
N2 Cd1 1_555 1_555
N3 C12 1_555 1_555
C1 C2 1_555 1_555
C2 H1 1_555 1_555
C3 C2 1_555 1_555
H2 C3 1_555 1_555
C4 N1 1_555 1_555
C5 C4 1_555 1_555
C6 C5 1_555 1_555
C7 C6 1_555 1_555
H3 C7 1_555 1_555
C8 N2 1_555 1_555
H4 C8 1_555 1_555
C9 C1 1_555 1_555
C10 C9 1_555 1_555
C11 C10 1_555 1_555
C12 C11 1_555 1_555
C13 N3 1_555 1_555
C14 C10 1_555 1_555
Cd1B N3 1_555 1_555
Cd1_2 N2D 1_555 1_555
Cd1B_2 N3A 1_555 1_555
I1A Cd1 1_555 1_555
N1A C1A 1_555 1_555
N1D C1D 1_555 1_555
N1E C1E 1_555 1_555
N2D C8D 1_555 1_555
N2D_2 Cd1 1_555 1_555
N3A C12A 1_555 1_555
N3B Cd1 1_555 1_555
N3C Cd1 1_555 1_555
C1A C2A 1_555 1_555
C1D C2D 1_555 1_555
C1E C9 1_555 1_555
C2A H1A 1_555 1_555
C2D H1D 1_555 1_555
C2E C1E 1_555 1_555
H1E C2E 1_555 1_555
C3A C2A 1_555 1_555
C3D C2D 1_555 1_555
C3E C2E 1_555 1_555
H2A C3A 1_555 1_555
H2D C3D 1_555 1_555
H2E C3E 1_555 1_555
C4A C5 1_555 1_555
C4D N1D 1_555 1_555
C4E N1E 1_555 1_555
C5D C4D 1_555 1_555
C6D C5D 1_555 1_555
C7D C6D 1_555 1_555
C7E C6D 1_555 1_555
C7A C6 1_555 1_555
H3D C7D 1_555 1_555
H3E C7E 1_555 1_555
H3A C7A 1_555 1_555
C8D C7D 1_555 1_555
C8E N2D 1_555 1_555
C8A N2 1_555 1_555
H4E C8E 1_555 1_555
H4D C8D 1_555 1_555
H4A C8A 1_555 1_555
C9A C1A 1_555 1_555
C10A C9A 1_555 1_555
C11E C10 1_555 1_555
C11A C10A 1_555 1_555
C11D C10A 1_555 1_555
C12E N3 1_555 1_555
C12A C11A 1_555 1_555
C12D N3A 1_555 1_555
C13E N3 1_555 1_555
C13A N3A 1_555 1_555
C13D N3A 1_555 1_555
C14E C10 1_555 1_555
C14A C10A 1_555 1_555
C14D C10A 1_555 1_555
C3 C4 1_555 1_555
C7 C8 1_555 1_555
C11 C11E 1_555 1_555
C12 C12E 1_555 1_555
C13 C14 1_555 1_555
C13 C13E 1_555 1_555
C14 C14E 1_555 1_555
N1A C4A 1_555 1_555
C1D C9A 1_555 1_555
C3A C4A 1_555 1_555
C3D C4D 1_555 1_555
C3E C4E 1_555 1_555
C4E C5D 1_555 1_555
C7E C8E 1_555 1_555
C7A C8A 1_555 1_555
C11E C12E 1_555 1_555
C11A C11D 1_555 1_555
C11D C12D 1_555 1_555
C12A C12D 1_555 1_555
C13E C14E 1_555 1_555
C13A C13D 1_555 1_555
C13A C14A 1_555 1_555
C13D C14D 1_555 1_555
C14A C14D 1_555 1_555

#END
