
#######################################################################
#
#                 Cambridge Crystallographic Data Centre
#                                CCDC 
#
#######################################################################
#
# If this CIF has been generated from an entry in the Cambridge 
# Structural Database, then it will include bibliographic, chemical, 
# crystal, experimental, refinement or atomic coordinate data resulting 
# from the CCDC's data processing and validation procedures.
#
#######################################################################

data_CAGKIG
_chemical_formula_moiety         'C48 H16 Cd4 I2 N11'
_symmetry_cell_setting           orthorhombic
_symmetry_space_group_name_H-M   'P n n m'
_symmetry_Int_Tables_number      58
_space_group_name_Hall           '-P 2 2n'
loop_
_symmetry_equiv_pos_site_id
_symmetry_equiv_pos_as_xyz
1 x,y,z
2 -x,-y,z
3 1/2-x,1/2+y,1/2-z
4 1/2+x,1/2-y,1/2-z
5 -x,-y,-z
6 x,y,-z
7 1/2+x,1/2-y,1/2+z
8 1/2-x,1/2+y,1/2+z
_cell_length_a                   8.7268(10)
_cell_length_b                   18.294(2)
_cell_length_c                   20.348(2)
_cell_angle_alpha                90
_cell_angle_beta                 90
_cell_angle_gamma                90
_cell_volume                     3248.52
loop_
_atom_site_label
_atom_site_type_symbol
_atom_site_fract_x
_atom_site_fract_y
_atom_site_fract_z
Cd1 Cd 0.5000 0.5000 1.0000
I1 I 0.20050(5) 0.42563(2) 1.0000
N1 N 0.4240(4) 0.42979(16) 1.42797(16)
N2 N 0.5000 0.5000 1.1190(2)
N3 N 0.1276(5) 0.1168(2) 1.5000
C1 C 0.3587(5) 0.36270(19) 1.43880(19)
C2 C 0.3254(6) 0.3300(2) 1.3763(2)
H1 H 0.2791 0.2836 1.3694
C3 C 0.3714(6) 0.3768(2) 1.3295(2)
H2 H 0.3640 0.3694 1.2834
C4 C 0.4334(5) 0.4398(2) 1.3615(2)
C5 C 0.5000 0.5000 1.3294(3)
C6 C 0.5000 0.5000 1.2566(3)
C7 C 0.3636(6) 0.5019(3) 1.2215(2)
H3 H 0.2680 0.5035 1.2438
C8 C 0.3690(6) 0.5016(2) 1.1531(2)
H4 H 0.2751 0.5025 1.1295
C9 C 0.3293(6) 0.3314(3) 1.5000
C10 C 0.2609(6) 0.2551(3) 1.5000
C11 C 0.3350(8) 0.1986(4) 1.4812(3)
C12 C 0.2715(8) 0.1290(4) 1.4805(3)
C13 C 0.0502(9) 0.1737(4) 1.5252(4)
C14 C 0.1114(9) 0.2446(4) 1.5263(4)
Cd1B Cd 0.0000 -0.0000 1.5000
Cd1_2 Cd 0.5000 0.5000 2.0000
Cd1B_2 Cd 1.0000 1.0000 1.5000
I1A I 0.79950(5) 0.57437(2) 1.0000
N1A N 0.5760(4) 0.57021(16) 1.42797(16)
N1D N 0.5760(4) 0.57021(16) 1.57203(16)
N1E N 0.4240(4) 0.42979(16) 1.57203(16)
N2D N 0.5000 0.5000 1.8810(2)
N2D_2 N 0.5000 0.5000 0.8810(2)
N3A N 0.8724(5) 0.8832(2) 1.5000
N3B N 0.3724(5) 0.6168(2) 1.0000
N3C N 0.6276(5) 0.3832(2) 1.0000
C1A C 0.6413(5) 0.63730(19) 1.43880(19)
C1D C 0.6413(5) 0.63730(19) 1.56120(19)
C1E C 0.3587(5) 0.36270(19) 1.56120(19)
C2A C 0.6746(6) 0.6700(2) 1.3763(2)
C2D C 0.6746(6) 0.6700(2) 1.6237(2)
C2E C 0.3254(6) 0.3300(2) 1.6237(2)
H1A H 0.7209 0.7164 1.3694
H1D H 0.7209 0.7164 1.6306
H1E H 0.2791 0.2836 1.6306
C3A C 0.6286(6) 0.6232(2) 1.3295(2)
C3D C 0.6286(6) 0.6232(2) 1.6705(2)
C3E C 0.3714(6) 0.3768(2) 1.6705(2)
H2A H 0.6360 0.6306 1.2834
H2D H 0.6360 0.6306 1.7166
H2E H 0.3640 0.3694 1.7166
C4A C 0.5666(5) 0.5602(2) 1.3615(2)
C4D C 0.5666(5) 0.5602(2) 1.6385(2)
C4E C 0.4334(5) 0.4398(2) 1.6385(2)
C5D C 0.5000 0.5000 1.6706(3)
C6D C 0.5000 0.5000 1.7434(3)
C7D C 0.6364(6) 0.4981(3) 1.7785(2)
C7E C 0.3636(6) 0.5019(3) 1.7785(2)
C7A C 0.6364(6) 0.4981(3) 1.2215(2)
H3D H 0.7320 0.4965 1.7562
H3E H 0.2680 0.5035 1.7562
H3A H 0.7320 0.4965 1.2438
C8D C 0.6310(6) 0.4984(2) 1.8469(2)
C8E C 0.3690(6) 0.5016(2) 1.8469(2)
C8A C 0.6310(6) 0.4984(2) 1.1531(2)
H4E H 0.2751 0.5025 1.8705
H4D H 0.7249 0.4975 1.8705
H4A H 0.7249 0.4975 1.1295
C9A C 0.6707(6) 0.6686(3) 1.5000
C10A C 0.7391(6) 0.7449(3) 1.5000
C11E C 0.3350(8) 0.1986(4) 1.5188(3)
C11A C 0.6650(8) 0.8014(4) 1.4812(3)
C11D C 0.6650(8) 0.8014(4) 1.5188(3)
C12E C 0.2715(8) 0.1290(4) 1.5195(3)
C12A C 0.7285(8) 0.8710(4) 1.4805(3)
C12D C 0.7285(8) 0.8710(4) 1.5195(3)
C13E C 0.0502(9) 0.1737(4) 1.4748(4)
C13A C 0.9498(9) 0.8263(4) 1.5252(4)
C13D C 0.9498(9) 0.8263(4) 1.4748(4)
C14E C 0.1114(9) 0.2446(4) 1.4737(4)
C14A C 0.8886(9) 0.7554(4) 1.5263(4)
C14D C 0.8886(9) 0.7554(4) 1.4737(4)
loop_
_geom_bond_atom_site_label_1
_geom_bond_atom_site_label_2
_geom_bond_site_symmetry_1
_geom_bond_site_symmetry_2
Cd1 I1 1_555 1_555
N1 C1 1_555 1_555
N2 Cd1 1_555 1_555
N3 C12 1_555 1_555
C1 C2 1_555 1_555
C2 H1 1_555 1_555
C3 C2 1_555 1_555
H2 C3 1_555 1_555
C4 N1 1_555 1_555
C5 C4 1_555 1_555
C6 C5 1_555 1_555
C7 C6 1_555 1_555
H3 C7 1_555 1_555
C8 N2 1_555 1_555
H4 C8 1_555 1_555
C9 C1 1_555 1_555
C10 C9 1_555 1_555
C11 C10 1_555 1_555
C12 C11 1_555 1_555
C13 N3 1_555 1_555
C14 C10 1_555 1_555
Cd1B N3 1_555 1_555
Cd1_2 N2D 1_555 1_555
Cd1B_2 N3A 1_555 1_555
I1A Cd1 1_555 1_555
N1A C1A 1_555 1_555
N1D C1D 1_555 1_555
N1E C1E 1_555 1_555
N2D C8D 1_555 1_555
N2D_2 Cd1 1_555 1_555
N3A C12A 1_555 1_555
N3B Cd1 1_555 1_555
N3C Cd1 1_555 1_555
C1A C2A 1_555 1_555
C1D C2D 1_555 1_555
C1E C9 1_555 1_555
C2A H1A 1_555 1_555
C2D H1D 1_555 1_555
C2E C1E 1_555 1_555
H1E C2E 1_555 1_555
C3A C2A 1_555 1_555
C3D C2D 1_555 1_555
C3E C2E 1_555 1_555
H2A C3A 1_555 1_555
H2D C3D 1_555 1_555
H2E C3E 1_555 1_555
C4A C5 1_555 1_555
C4D N1D 1_555 1_555
C4E N1E 1_555 1_555
C5D C4D 1_555 1_555
C6D C5D 1_555 1_555
C7D C6D 1_555 1_555
C7E C6D 1_555 1_555
C7A C6 1_555 1_555
H3D C7D 1_555 1_555
H3E C7E 1_555 1_555
H3A C7A 1_555 1_555
C8D C7D 1_555 1_555
C8E N2D 1_555 1_555
C8A N2 1_555 1_555
H4E C8E 1_555 1_555
H4D C8D 1_555 1_555
H4A C8A 1_555 1_555
C9A C1A 1_555 1_555
C10A C9A 1_555 1_555
C11E C10 1_555 1_555
C11A C10A 1_555 1_555
C11D C10A 1_555 1_555
C12E N3 1_555 1_555
C12A C11A 1_555 1_555
C12D N3A 1_555 1_555
C13E N3 1_555 1_555
C13A N3A 1_555 1_555
C13D N3A 1_555 1_555
C14E C10 1_555 1_555
C14A C10A 1_555 1_555
C14D C10A 1_555 1_555
C3 C4 1_555 1_555
C7 C8 1_555 1_555
C11 C11E 1_555 1_555
C12 C12E 1_555 1_555
C13 C14 1_555 1_555
C13 C13E 1_555 1_555
C14 C14E 1_555 1_555
N1A C4A 1_555 1_555
C1D C9A 1_555 1_555
C3A C4A 1_555 1_555
C3D C4D 1_555 1_555
C3E C4E 1_555 1_555
C4E C5D 1_555 1_555
C7E C8E 1_555 1_555
C7A C8A 1_555 1_555
C11E C12E 1_555 1_555
C11A C11D 1_555 1_555
C11D C12D 1_555 1_555
C12A C12D 1_555 1_555
C13E C14E 1_555 1_555
C13A C13D 1_555 1_555
C13A C14A 1_555 1_555
C13D C14D 1_555 1_555
C14A C14D 1_555 1_555

#END
