
#######################################################################
#
#                 Cambridge Crystallographic Data Centre
#                                CCDC 
#
#######################################################################
#
# If this CIF has been generated from an entry in the Cambridge 
# Structural Database, then it will include bibliographic, chemical, 
# crystal, experimental, refinement or atomic coordinate data resulting 
# from the CCDC's data processing and validation procedures.
#
#######################################################################

data_CAGKIG01
_chemical_formula_moiety         'C48 H16 Cd4 I2 N11'
_symmetry_cell_setting           orthorhombic
_symmetry_space_group_name_H-M   'P n n m'
_symmetry_Int_Tables_number      58
_space_group_name_Hall           '-P 2 2n'
loop_
_symmetry_equiv_pos_site_id
_symmetry_equiv_pos_as_xyz
1 x,y,z
2 -x,-y,z
3 1/2-x,1/2+y,1/2-z
4 1/2+x,1/2-y,1/2-z
5 -x,-y,-z
6 x,y,-z
7 1/2+x,1/2-y,1/2+z
8 1/2-x,1/2+y,1/2+z
_cell_length_a                   8.8045(6)
_cell_length_b                   18.2945(13)
_cell_length_c                   20.3640(15)
_cell_angle_alpha                90
_cell_angle_beta                 90
_cell_angle_gamma                90
_cell_volume                     3280.11
loop_
_atom_site_label
_atom_site_type_symbol
_atom_site_fract_x
_atom_site_fract_y
_atom_site_fract_z
Cd1 Cd 0.5000 0.5000 1.0000
I1 I 0.20362(7) 0.42572(3) 1.0000
N1 N 0.4248(6) 0.4301(2) 1.4277(2)
N2 N 0.5000 0.5000 1.1196(3)
N3 N 0.1282(7) 0.1176(3) 1.5000
C1 C 0.3593(7) 0.3633(3) 1.4389(3)
C2 C 0.3278(8) 0.3301(4) 1.3765(3)
H1 H 0.2830 0.2834 1.3698
C3 C 0.3726(8) 0.3766(4) 1.3294(3)
H2 H 0.3646 0.3692 1.2834
C4 C 0.4349(7) 0.4397(3) 1.3618(3)
C5 C 0.5000 0.5000 1.3292(4)
C6 C 0.5000 0.5000 1.2572(4)
C7 C 0.3656(8) 0.5022(4) 1.2219(3)
H3 H 0.2706 0.5037 1.2440
C8 C 0.3717(8) 0.5022(4) 1.1533(3)
H4 H 0.2787 0.5038 1.1296
C9 C 0.3305(9) 0.3311(4) 1.5000
C10 C 0.2625(9) 0.2558(5) 1.5000
C11 C 0.3351(11) 0.1972(6) 1.4824(4)
C12 C 0.2702(12) 0.1287(6) 1.4812(5)
C13 C 0.0507(14) 0.1753(7) 1.5239(5)
C14 C 0.1128(13) 0.2454(7) 1.5257(5)
Cd1B Cd -0.0000 0.0000 1.5000
Cd1_2 Cd 0.5000 0.5000 2.0000
Cd1B_2 Cd 1.0000 1.0000 1.5000
I1A I 0.79638(7) 0.57428(3) 1.0000
N1A N 0.5752(6) 0.5699(2) 1.4277(2)
N1D N 0.5752(6) 0.5699(2) 1.5723(2)
N1E N 0.4248(6) 0.4301(2) 1.5723(2)
N2D N 0.5000 0.5000 1.8804(3)
N2D_2 N 0.5000 0.5000 0.8804(3)
N3A N 0.8718(7) 0.8824(3) 1.5000
N3B N 0.3718(7) 0.6176(3) 1.0000
N3C N 0.6282(7) 0.3824(3) 1.0000
C1A C 0.6407(7) 0.6367(3) 1.4389(3)
C1D C 0.6407(7) 0.6367(3) 1.5611(3)
C1E C 0.3593(7) 0.3633(3) 1.5611(3)
C2A C 0.6722(8) 0.6699(4) 1.3765(3)
C2D C 0.6722(8) 0.6699(4) 1.6235(3)
C2E C 0.3278(8) 0.3301(4) 1.6235(3)
H1A H 0.7170 0.7166 1.3698
H1D H 0.7170 0.7166 1.6302
H1E H 0.2830 0.2834 1.6302
C3A C 0.6274(8) 0.6234(4) 1.3294(3)
C3D C 0.6274(8) 0.6234(4) 1.6706(3)
C3E C 0.3726(8) 0.3766(4) 1.6706(3)
H2A H 0.6354 0.6308 1.2834
H2D H 0.6354 0.6308 1.7166
H2E H 0.3646 0.3692 1.7166
C4A C 0.5651(7) 0.5603(3) 1.3618(3)
C4D C 0.5651(7) 0.5603(3) 1.6382(3)
C4E C 0.4349(7) 0.4397(3) 1.6382(3)
C5D C 0.5000 0.5000 1.6708(4)
C6D C 0.5000 0.5000 1.7428(4)
C7D C 0.6344(8) 0.4978(4) 1.7781(3)
C7E C 0.3656(8) 0.5022(4) 1.7781(3)
C7A C 0.6344(8) 0.4978(4) 1.2219(3)
H3D H 0.7294 0.4963 1.7560
H3E H 0.2706 0.5037 1.7560
H3A H 0.7294 0.4963 1.2440
C8D C 0.6283(8) 0.4978(4) 1.8467(3)
C8E C 0.3717(8) 0.5022(4) 1.8467(3)
C8A C 0.6283(8) 0.4978(4) 1.1533(3)
H4E H 0.2787 0.5038 1.8704
H4D H 0.7213 0.4962 1.8704
H4A H 0.7213 0.4962 1.1296
C9A C 0.6695(9) 0.6689(4) 1.5000
C10A C 0.7375(9) 0.7442(5) 1.5000
C11E C 0.3351(11) 0.1972(6) 1.5176(4)
C11A C 0.6649(11) 0.8028(6) 1.4824(4)
C11D C 0.6649(11) 0.8028(6) 1.5176(4)
C12E C 0.2702(12) 0.1287(6) 1.5188(5)
C12A C 0.7298(12) 0.8713(6) 1.4812(5)
C12D C 0.7298(12) 0.8713(6) 1.5188(5)
C13E C 0.0507(14) 0.1753(7) 1.4761(5)
C13A C 0.9493(14) 0.8247(7) 1.5239(5)
C13D C 0.9493(14) 0.8247(7) 1.4761(5)
C14E C 0.1128(13) 0.2454(7) 1.4743(5)
C14A C 0.8872(13) 0.7546(7) 1.5257(5)
C14D C 0.8872(13) 0.7546(7) 1.4743(5)
loop_
_geom_bond_atom_site_label_1
_geom_bond_atom_site_label_2
_geom_bond_site_symmetry_1
_geom_bond_site_symmetry_2
Cd1 I1 1_555 1_555
N1 C1 1_555 1_555
N2 Cd1 1_555 1_555
N3 C12 1_555 1_555
C1 C2 1_555 1_555
C2 H1 1_555 1_555
C3 C2 1_555 1_555
H2 C3 1_555 1_555
C4 N1 1_555 1_555
C5 C4 1_555 1_555
C6 C5 1_555 1_555
C7 C6 1_555 1_555
H3 C7 1_555 1_555
C8 N2 1_555 1_555
H4 C8 1_555 1_555
C9 C1 1_555 1_555
C10 C9 1_555 1_555
C11 C10 1_555 1_555
C12 C11 1_555 1_555
C13 N3 1_555 1_555
C14 C10 1_555 1_555
Cd1B N3 1_555 1_555
Cd1_2 N2D 1_555 1_555
Cd1B_2 N3A 1_555 1_555
I1A Cd1 1_555 1_555
N1A C1A 1_555 1_555
N1D C1D 1_555 1_555
N1E C1E 1_555 1_555
N2D C8D 1_555 1_555
N2D_2 Cd1 1_555 1_555
N3A C12A 1_555 1_555
N3B Cd1 1_555 1_555
N3C Cd1 1_555 1_555
C1A C2A 1_555 1_555
C1D C2D 1_555 1_555
C1E C9 1_555 1_555
C2A H1A 1_555 1_555
C2D H1D 1_555 1_555
C2E C1E 1_555 1_555
H1E C2E 1_555 1_555
C3A C2A 1_555 1_555
C3D C2D 1_555 1_555
C3E C2E 1_555 1_555
H2A C3A 1_555 1_555
H2D C3D 1_555 1_555
H2E C3E 1_555 1_555
C4A C5 1_555 1_555
C4D N1D 1_555 1_555
C4E N1E 1_555 1_555
C5D C4D 1_555 1_555
C6D C5D 1_555 1_555
C7D C6D 1_555 1_555
C7E C6D 1_555 1_555
C7A C6 1_555 1_555
H3D C7D 1_555 1_555
H3E C7E 1_555 1_555
H3A C7A 1_555 1_555
C8D C7D 1_555 1_555
C8E N2D 1_555 1_555
C8A N2 1_555 1_555
H4E C8E 1_555 1_555
H4D C8D 1_555 1_555
H4A C8A 1_555 1_555
C9A C1A 1_555 1_555
C10A C9A 1_555 1_555
C11E C10 1_555 1_555
C11A C10A 1_555 1_555
C11D C10A 1_555 1_555
C12E N3 1_555 1_555
C12A C11A 1_555 1_555
C12D N3A 1_555 1_555
C13E N3 1_555 1_555
C13A N3A 1_555 1_555
C13D N3A 1_555 1_555
C14E C10 1_555 1_555
C14A C10A 1_555 1_555
C14D C10A 1_555 1_555
C3 C4 1_555 1_555
C7 C8 1_555 1_555
C11 C11E 1_555 1_555
C12 C12E 1_555 1_555
C13 C14 1_555 1_555
C13 C13E 1_555 1_555
C14 C14E 1_555 1_555
N1A C4A 1_555 1_555
C1D C9A 1_555 1_555
C3A C4A 1_555 1_555
C3D C4D 1_555 1_555
C3E C4E 1_555 1_555
C4E C5D 1_555 1_555
C7E C8E 1_555 1_555
C7A C8A 1_555 1_555
C11E C12E 1_555 1_555
C11A C11D 1_555 1_555
C11D C12D 1_555 1_555
C12A C12D 1_555 1_555
C13E C14E 1_555 1_555
C13A C13D 1_555 1_555
C13A C14A 1_555 1_555
C13D C14D 1_555 1_555
C14A C14D 1_555 1_555

#END
