
#######################################################################
#
#                 Cambridge Crystallographic Data Centre
#                                CCDC 
#
#######################################################################
#
# If this CIF has been generated from an entry in the Cambridge 
# Structural Database, then it will include bibliographic, chemical, 
# crystal, experimental, refinement or atomic coordinate data resulting 
# from the CCDC's data processing and validation procedures.
#
#######################################################################

data_TESGUU
_chemical_formula_moiety         '(C16 H16 O25 Zn6)n'
_symmetry_cell_setting           monoclinic
_symmetry_space_group_name_H-M   'P 21/c'
_symmetry_Int_Tables_number      14
_space_group_name_Hall           '-P 2ybc'
loop_
_symmetry_equiv_pos_site_id
_symmetry_equiv_pos_as_xyz
1 x,y,z
2 -x,1/2+y,1/2-z
3 -x,-y,-z
4 x,1/2-y,1/2+z
_cell_length_a                   11.2065(3)
_cell_length_b                   9.7744(3)
_cell_length_c                   18.3348(8)
_cell_angle_alpha                90
_cell_angle_beta                 126.6100(10)
_cell_angle_gamma                90
_cell_volume                     1612.12
loop_
_atom_site_label
_atom_site_type_symbol
_atom_site_fract_x
_atom_site_fract_y
_atom_site_fract_z
Zn1 Zn 0.37661(3) 0.07901(3) 0.13235(2)
Zn2 Zn 0.57284(3) -0.10828(3) 0.31052(2)
Zn3 Zn 0.5000 0.0000 0.0000
Zn4 Zn 0.0000 0.0000 0.0000
O1 O 0.43304(19) 0.19900(17) 0.24520(13)
O2 O 0.5518(2) 0.05983(18) 0.36670(13)
O3 O 0.59168(18) -0.00515(17) 0.21830(13)
O4 O 0.6821(2) -0.00571(18) 0.13754(13)
O5 O 0.46185(19) 0.25700(17) 0.11424(13)
O6 O 0.4893(2) 0.21108(18) 0.00495(14)
O7 O 0.34483(19) -0.08479(17) 0.19325(13)
O8 O 0.0990(2) -0.10713(18) 0.12102(14)
O9 O 0.33918(19) -0.02672(17) 0.02416(13)
O10 O 0.11451(19) -0.11646(18) -0.03486(14)
O11 O 0.16372(19) 0.15566(17) 0.06095(13)
O12 O 0.20263(19) 0.38031(17) 0.09599(13)
C1 C 0.4950(3) 0.1713(3) 0.3283(2)
H1 H 0.4982 0.2425 0.3647
C2 C 0.6956(3) -0.0180(3) 0.2094(2)
H2 H 0.7920 -0.0389 0.2626
C3 C 0.4818(3) 0.2899(3) 0.0545(2)
H3 H 0.4919 0.3847 0.0478
C4 C 0.2300(3) -0.1338(3) 0.1827(2)
H4 H 0.2472 -0.1978 0.2270
C5 C 0.2285(3) -0.1061(3) -0.0295(2)
H5 H 0.2359 -0.1624 -0.0689
C6 C 0.1222(3) 0.2808(3) 0.0523(2)
H6 H 0.0194 0.2990 0.0079
Zn1B Zn 0.62339(3) -0.07901(3) -0.13235(2)
Zn1A Zn 0.62339(3) -0.42099(3) 0.36765(2)
Zn1B_2 Zn -0.37661(3) -0.07901(3) -0.13235(2)
Zn2B Zn 0.42716(3) 0.10828(3) -0.31052(2)
Zn2A Zn 0.42716(3) 0.39172(3) 0.18948(2)
Zn2C Zn 0.57284(3) -0.39172(3) -0.18948(2)
Zn2A_2 Zn 0.42716(3) -0.60828(3) 0.18948(2)
Zn2B_2 Zn -0.57284(3) 0.10828(3) -0.31052(2)
Zn4_2 Zn 1.0000 0.0000 0.0000
Zn4C Zn 1.0000 -0.5000 0.5000
O1A O 0.56696(19) -0.30100(17) 0.25480(13)
O1B O 0.56696(19) -0.19900(17) -0.24520(13)
O1C O 0.43304(19) 0.30100(17) -0.25480(13)
O2A O 0.4482(2) -0.44017(18) 0.13330(13)
O2B O 0.4482(2) -0.05983(18) -0.36670(13)
O3B O 0.40832(18) 0.00515(17) -0.21830(13)
O4B O 0.3179(2) 0.00571(18) -0.13754(13)
O5B O 0.53815(19) -0.25700(17) -0.11424(13)
O5A O 0.53815(19) -0.24300(17) 0.38576(13)
O5C O 0.46185(19) 0.24300(17) -0.38576(13)
O6B O 0.5107(2) -0.21108(18) -0.00495(14)
O7B O -0.34483(19) 0.08479(17) -0.19325(13)
O7B_2 O 0.65517(19) 0.08479(17) -0.19325(13)
O8B O -0.0990(2) 0.10713(18) -0.12102(14)
O9B O 0.66082(19) 0.02672(17) -0.02416(13)
O10B O 0.88549(19) 0.11646(18) 0.03486(14)
O10B_2 O -0.11451(19) 0.11646(18) 0.03486(14)
O11A O 0.83628(19) -0.34434(17) 0.43905(13)
O11B O -0.16372(19) -0.15566(17) -0.06095(13)
O11B_2 O 0.83628(19) -0.15566(17) -0.06095(13)
O12A O 0.79737(19) -0.11969(17) 0.40401(13)
O12C O 0.20263(19) 0.11969(17) -0.40401(13)
C1A C 0.5050(3) -0.3287(3) 0.1717(2)
H1A H 0.5018 -0.2575 0.1353
C2B C 0.3044(3) 0.0180(3) -0.2094(2)
H2B H 0.2080 0.0389 -0.2626
C3B C 0.5182(3) -0.2899(3) -0.0545(2)
H3B H 0.5081 -0.3847 -0.0478
C4B C -0.2300(3) 0.1338(3) -0.1827(2)
H4B H -0.2472 0.1978 -0.2270
C5B C 0.7715(3) 0.1061(3) 0.0295(2)
H5B H 0.7641 0.1624 0.0689
C6A C 0.8778(3) -0.2192(3) 0.4477(2)
H6A H 0.9806 -0.2010 0.4921
O13 O 0.1651(3) 0.3672(2) -0.08244(16)
C7 C 0.1540(3) 0.5058(3) -0.0955(2)
H7 H 0.1701 0.5715 -0.0524
C8 C 0.1172(4) 0.5357(4) -0.1782(3)
H8 H 0.1025 0.6242 -0.2037
C9 C 0.1049(4) 0.4086(4) -0.2198(3)
H9 H 0.0806 0.3952 -0.2786
C10 C 0.1342(4) 0.3116(4) -0.1598(2)
H10 H 0.1336 0.2162 -0.1699
loop_
_geom_bond_atom_site_label_1
_geom_bond_atom_site_label_2
_geom_bond_site_symmetry_1
_geom_bond_site_symmetry_2
Zn1 O1 1_555 1_555
Zn2 O2 1_555 1_555
Zn3 O4 1_555 1_555
Zn4 O8 1_555 1_555
O1 C1 1_555 1_555
O2 C1 1_555 1_555
O3 Zn1 1_555 1_555
O4 C2 1_555 1_555
O5 Zn1 1_555 1_555
O6 Zn3 1_555 1_555
O7 Zn1 1_555 1_555
O8 C4 1_555 1_555
O9 Zn1 1_555 1_555
O10 Zn4 1_555 1_555
O11 Zn1 1_555 1_555
O12 C6 1_555 1_555
C1 H1 1_555 1_555
C2 O3 1_555 1_555
H2 C2 1_555 1_555
C3 O5 1_555 1_555
H3 C3 1_555 1_555
C4 O7 1_555 1_555
H4 C4 1_555 1_555
C5 O9 1_555 1_555
H5 C5 1_555 1_555
C6 O11 1_555 1_555
H6 C6 1_555 1_555
O13 C7 1_555 1_555
C7 H7 1_555 1_555
C8 C7 1_555 1_555
H8 C8 1_555 1_555
C9 C8 1_555 1_555
H9 C9 1_555 1_555
C10 O13 1_555 1_555
H10 C10 1_555 1_555
Zn1B O1B 1_555 1_555
Zn1A O1A 1_555 1_555
Zn1B_2 O7B 1_555 1_555
Zn2B O1C 1_555 1_555
Zn2A O1 1_555 1_555
Zn2C O1B 1_555 1_555
Zn2A_2 O2A 1_555 1_555
Zn2B_2 O7B 1_555 1_555
Zn4_2 O10B 1_555 1_555
Zn4C O11A 1_555 1_555
O1A Zn2 1_555 1_555
O2A C1A 1_555 1_555
O2B Zn2B 1_555 1_555
O3B Zn1B 1_555 1_555
O4B Zn3 1_555 1_555
O5B Zn1B 1_555 1_555
O5A Zn2 1_555 1_555
O5C Zn2B 1_555 1_555
O6B Zn3 1_555 1_555
O7B C4B 1_555 1_555
O7B_2 Zn1B 1_555 1_555
O8B Zn4 1_555 1_555
O9B Zn3 1_555 1_555
O10B C5B 1_555 1_555
O10B_2 Zn4 1_555 1_555
O11A Zn1A 1_555 1_555
O11B Zn4 1_555 1_555
O11B_2 Zn1B 1_555 1_555
O12A Zn2 1_555 1_555
O12C Zn2B 1_555 1_555
C1A O1A 1_555 1_555
H1A C1A 1_555 1_555
C2B O3B 1_555 1_555
H2B C2B 1_555 1_555
C3B O5B 1_555 1_555
H3B C3B 1_555 1_555
C4B O8B 1_555 1_555
H4B C4B 1_555 1_555
C5B O9B 1_555 1_555
H5B C5B 1_555 1_555
C6A O11A 1_555 1_555
H6A C6A 1_555 1_555
Zn2 O3 1_555 1_555
Zn2 O7 1_555 1_555
Zn3 O9 1_555 1_555
Zn4 O11 1_555 1_555
O5 Zn2A 1_555 1_555
O6 C3 1_555 1_555
O10 C5 1_555 1_555
O12 Zn2A 1_555 1_555
C9 C10 1_555 1_555
Zn1B O9B 1_555 1_555
Zn1A O5A 1_555 1_555
Zn1B_2 O11B 1_555 1_555
Zn2B O3B 1_555 1_555
Zn2B O7B_2 1_555 1_555
Zn2C O5B 1_555 1_555
Zn4_2 O11B_2 1_555 1_555
O4B C2B 1_555 1_555
O6B C3B 1_555 1_555
O12A C6A 1_555 1_555

#END
