
#######################################################################
#
#                 Cambridge Crystallographic Data Centre
#                                CCDC 
#
#######################################################################
#
# If this CIF has been generated from an entry in the Cambridge 
# Structural Database, then it will include bibliographic, chemical, 
# crystal, experimental, refinement or atomic coordinate data resulting 
# from the CCDC's data processing and validation procedures.
#
#######################################################################

data_TEVZUQ
_chemical_formula_moiety         '(C15 H18 O25 Zn6)n'
_symmetry_cell_setting           monoclinic
_symmetry_space_group_name_H-M   'P 21/c'
_symmetry_Int_Tables_number      14
_space_group_name_Hall           '-P 2ybc'
loop_
_symmetry_equiv_pos_site_id
_symmetry_equiv_pos_as_xyz
1 x,y,z
2 -x,1/2+y,1/2-z
3 -x,-y,-z
4 x,1/2-y,1/2+z
_cell_length_a                   11.2958(3)
_cell_length_b                   9.8250(3)
_cell_length_c                   18.3296(5)
_cell_angle_alpha                90
_cell_angle_beta                 126.534(2)
_cell_angle_gamma                90
_cell_volume                     1634.52
loop_
_atom_site_label
_atom_site_type_symbol
_atom_site_fract_x
_atom_site_fract_y
_atom_site_fract_z
Zn1 Zn 0.37476(4) 0.07367(4) 0.13171(2)
Zn2 Zn 0.56620(4) -0.11504(4) 0.30792(2)
Zn3 Zn 0.5000 0.0000 0.0000
Zn4 Zn 0.0000 0.0000 0.0000
O1 O 0.4401(2) 0.1928(2) 0.24739(12)
O2 O 0.5573(2) 0.0535(2) 0.36809(13)
O3 O 0.5853(2) -0.0128(2) 0.21531(13)
O4 O 0.6798(2) -0.0036(2) 0.13760(14)
O5 O 0.4571(2) 0.2517(2) 0.11210(13)
O6 O 0.4810(2) 0.2092(2) 0.00093(13)
O7 O 0.3420(2) -0.0873(2) 0.19316(13)
O8 O 0.0985(2) -0.1185(2) 0.11630(14)
O9 O 0.3385(2) -0.0293(2) 0.02351(13)
O10 O 0.1115(2) -0.1094(2) -0.03922(14)
O11 O 0.1652(2) 0.1515(2) 0.06489(13)
O12 O 0.2081(2) 0.3734(2) 0.10186(13)
C1 C 0.5043(3) 0.1654(3) 0.3308(2)
H1 H 0.5127 0.2373 0.3682
C2 C 0.6881(4) -0.0236(3) 0.2071(2)
H2 H 0.7818 -0.0498 0.2599
C3 C 0.4754(3) 0.2873(3) 0.0521(2)
H3 H 0.4854 0.3819 0.0462
C4 C 0.2273(3) -0.1419(3) 0.1795(2)
H4 H 0.2437 -0.2074 0.2228
C5 C 0.2260(3) -0.1057(3) -0.0324(2)
H5 H 0.2330 -0.1636 -0.0712
C6 C 0.1264(4) 0.2752(3) 0.0607(2)
H6 H 0.0237 0.2935 0.0218
Zn1B Zn 0.62524(4) -0.07367(4) -0.13171(2)
Zn1A Zn 0.62524(4) -0.42633(4) 0.36829(2)
Zn1B_2 Zn -0.37476(4) -0.07367(4) -0.13171(2)
Zn2B Zn 0.43380(4) 0.11504(4) -0.30792(2)
Zn2A Zn 0.43380(4) 0.38496(4) 0.19208(2)
Zn2C Zn 0.56620(4) -0.38496(4) -0.19208(2)
Zn2A_2 Zn 0.43380(4) -0.61504(4) 0.19208(2)
Zn2B_2 Zn -0.56620(4) 0.11504(4) -0.30792(2)
Zn4_2 Zn 1.0000 0.0000 0.0000
Zn4C Zn 1.0000 -0.5000 0.5000
O1A O 0.5599(2) -0.3072(2) 0.25261(12)
O1B O 0.5599(2) -0.1928(2) -0.24739(12)
O1C O 0.4401(2) 0.3072(2) -0.25261(12)
O2A O 0.4427(2) -0.4465(2) 0.13191(13)
O2B O 0.4427(2) -0.0535(2) -0.36809(13)
O3B O 0.4147(2) 0.0128(2) -0.21531(13)
O4B O 0.3202(2) 0.0036(2) -0.13760(14)
O5B O 0.5429(2) -0.2517(2) -0.11210(13)
O5A O 0.5429(2) -0.2483(2) 0.38790(13)
O5C O 0.4571(2) 0.2483(2) -0.38790(13)
O6B O 0.5190(2) -0.2092(2) -0.00093(13)
O7B O -0.3420(2) 0.0873(2) -0.19316(13)
O7B_2 O 0.6580(2) 0.0873(2) -0.19316(13)
O8B O -0.0985(2) 0.1185(2) -0.11630(14)
O9B O 0.6615(2) 0.0293(2) -0.02351(13)
O10B O 0.8885(2) 0.1094(2) 0.03922(14)
O10B_2 O -0.1115(2) 0.1094(2) 0.03922(14)
O11A O 0.8348(2) -0.3485(2) 0.43511(13)
O11B O -0.1652(2) -0.1515(2) -0.06489(13)
O11B_2 O 0.8348(2) -0.1515(2) -0.06489(13)
O12A O 0.7919(2) -0.1266(2) 0.39814(13)
O12C O 0.2081(2) 0.1266(2) -0.39814(13)
C1A C 0.4957(3) -0.3346(3) 0.1692(2)
H1A H 0.4873 -0.2627 0.1318
C2B C 0.3119(4) 0.0236(3) -0.2071(2)
H2B H 0.2182 0.0498 -0.2599
C3B C 0.5246(3) -0.2873(3) -0.0521(2)
H3B H 0.5146 -0.3819 -0.0462
C4B C -0.2273(3) 0.1419(3) -0.1795(2)
H4B H -0.2437 0.2074 -0.2228
C5B C 0.7740(3) 0.1057(3) 0.0324(2)
H5B H 0.7670 0.1636 0.0712
C6A C 0.8736(4) -0.2248(3) 0.4393(2)
H6A H 0.9763 -0.2065 0.4782
O13 O 0.7817(5) 0.4169(5) 0.1644(2)
C7 C 0.8397(5) 0.5209(6) 0.1611(3)
C8 C 0.8837(5) 0.5162(7) 0.0996(3)
H7 H 0.9583 0.4454 0.1201
H8 H 0.9245 0.6046 0.1003
H9 H 0.7973 0.4957 0.0378
C9 C 0.8683(7) 0.6404(6) 0.2167(4)
H10 H 0.8408 0.6209 0.2572
H11 H 0.8099 0.7173 0.1772
H12 H 0.9732 0.6633 0.2528
loop_
_geom_bond_atom_site_label_1
_geom_bond_atom_site_label_2
_geom_bond_site_symmetry_1
_geom_bond_site_symmetry_2
Zn1 O1 1_555 1_555
Zn2 O2 1_555 1_555
Zn3 O4 1_555 1_555
Zn4 O8 1_555 1_555
O1 C1 1_555 1_555
O2 C1 1_555 1_555
O3 Zn1 1_555 1_555
O4 C2 1_555 1_555
O5 Zn1 1_555 1_555
O6 Zn3 1_555 1_555
O7 Zn1 1_555 1_555
O8 C4 1_555 1_555
O9 Zn1 1_555 1_555
O10 Zn4 1_555 1_555
O11 Zn1 1_555 1_555
O12 C6 1_555 1_555
C1 H1 1_555 1_555
C2 O3 1_555 1_555
H2 C2 1_555 1_555
C3 O5 1_555 1_555
H3 C3 1_555 1_555
C4 O7 1_555 1_555
H4 C4 1_555 1_555
C5 O9 1_555 1_555
H5 C5 1_555 1_555
C6 O11 1_555 1_555
H6 C6 1_555 1_555
O13 C7 1_555 1_555
C7 C8 1_555 1_555
C8 H7 1_555 1_555
H8 C8 1_555 1_555
H9 C8 1_555 1_555
C9 C7 1_555 1_555
H10 C9 1_555 1_555
H11 C9 1_555 1_555
H12 C9 1_555 1_555
Zn1B O1B 1_555 1_555
Zn1A O1A 1_555 1_555
Zn1B_2 O7B 1_555 1_555
Zn2B O1C 1_555 1_555
Zn2A O1 1_555 1_555
Zn2C O1B 1_555 1_555
Zn2A_2 O2A 1_555 1_555
Zn2B_2 O7B 1_555 1_555
Zn4_2 O10B 1_555 1_555
Zn4C O11A 1_555 1_555
O1A Zn2 1_555 1_555
O2A C1A 1_555 1_555
O2B Zn2B 1_555 1_555
O3B Zn1B 1_555 1_555
O4B Zn3 1_555 1_555
O5B Zn1B 1_555 1_555
O5A Zn2 1_555 1_555
O5C Zn2B 1_555 1_555
O6B Zn3 1_555 1_555
O7B C4B 1_555 1_555
O7B_2 Zn1B 1_555 1_555
O8B Zn4 1_555 1_555
O9B Zn3 1_555 1_555
O10B C5B 1_555 1_555
O10B_2 Zn4 1_555 1_555
O11A Zn1A 1_555 1_555
O11B Zn4 1_555 1_555
O11B_2 Zn1B 1_555 1_555
O12A Zn2 1_555 1_555
O12C Zn2B 1_555 1_555
C1A O1A 1_555 1_555
H1A C1A 1_555 1_555
C2B O3B 1_555 1_555
H2B C2B 1_555 1_555
C3B O5B 1_555 1_555
H3B C3B 1_555 1_555
C4B O8B 1_555 1_555
H4B C4B 1_555 1_555
C5B O9B 1_555 1_555
H5B C5B 1_555 1_555
C6A O11A 1_555 1_555
H6A C6A 1_555 1_555
Zn2 O3 1_555 1_555
Zn2 O7 1_555 1_555
Zn3 O9 1_555 1_555
Zn4 O11 1_555 1_555
O5 Zn2A 1_555 1_555
O6 C3 1_555 1_555
O10 C5 1_555 1_555
O12 Zn2A 1_555 1_555
Zn1B O9B 1_555 1_555
Zn1A O5A 1_555 1_555
Zn1B_2 O11B 1_555 1_555
Zn2B O3B 1_555 1_555
Zn2B O7B_2 1_555 1_555
Zn2C O5B 1_555 1_555
Zn4_2 O11B_2 1_555 1_555
O4B C2B 1_555 1_555
O6B C3B 1_555 1_555
O12A C6A 1_555 1_555

#END
