
#######################################################################
#
#                 Cambridge Crystallographic Data Centre
#                                CCDC 
#
#######################################################################
#
# If this CIF has been generated from an entry in the Cambridge 
# Structural Database, then it will include bibliographic, chemical, 
# crystal, experimental, refinement or atomic coordinate data resulting 
# from the CCDC's data processing and validation procedures.
#
#######################################################################

data_TEVZIE
_chemical_formula_moiety         '(C16 H20 O25 Zn6)n'
_symmetry_cell_setting           monoclinic
_symmetry_space_group_name_H-M   'P 21/c'
_symmetry_Int_Tables_number      14
_space_group_name_Hall           '-P 2ybc'
loop_
_symmetry_equiv_pos_site_id
_symmetry_equiv_pos_as_xyz
1 x,y,z
2 -x,1/2+y,1/2-z
3 -x,-y,-z
4 x,1/2-y,1/2+z
_cell_length_a                   11.2956(2)
_cell_length_b                   9.8486(3)
_cell_length_c                   18.3717(4)
_cell_angle_alpha                90
_cell_angle_beta                 126.619(3)
_cell_angle_gamma                90
_cell_volume                     1640.37
loop_
_atom_site_label
_atom_site_type_symbol
_atom_site_fract_x
_atom_site_fract_y
_atom_site_fract_z
Zn1 Zn 0.37549(3) 0.07668(3) 0.132347(18)
Zn2 Zn 0.56752(3) -0.11240(3) 0.308758(18)
Zn3 Zn 0.5000 0.0000 0.0000
Zn4 Zn 0.0000 0.0000 0.0000
O1 O 0.44338(17) 0.19613(18) 0.24775(10)
O2 O 0.56244(19) 0.05712(19) 0.36872(11)
O3 O 0.58625(18) -0.01248(18) 0.21531(11)
O4 O 0.67853(19) -0.01243(19) 0.13632(11)
O5 O 0.45685(17) 0.25466(18) 0.11206(10)
O6 O 0.49420(18) 0.21023(19) 0.00724(11)
O7 O 0.34214(18) -0.08282(18) 0.19456(11)
O8 O 0.09867(18) -0.11556(19) 0.11700(11)
O9 O 0.33808(18) -0.02452(18) 0.02327(11)
O10 O 0.11095(19) -0.10695(19) -0.03956(11)
O11 O 0.16473(17) 0.15265(18) 0.06596(10)
O12 O 0.20656(18) 0.37435(18) 0.10323(11)
C1 C 0.5114(3) 0.1696(3) 0.33177(16)
H1 H 0.5244 0.2424 0.3698
C2 C 0.6880(3) -0.0285(3) 0.20635(17)
H2 H 0.7814 -0.0557 0.2589
C3 C 0.4843(3) 0.2888(3) 0.05606(16)
H3 H 0.4982 0.3827 0.0516
C4 C 0.2281(3) -0.1364(3) 0.18148(16)
H4 H 0.2448 -0.1989 0.2261
C5 C 0.2256(3) -0.0993(3) -0.03266(16)
H5 H 0.2320 -0.1542 -0.0727
C6 C 0.1245(3) 0.2755(3) 0.06255(16)
H6 H 0.0214 0.2926 0.0251
Zn1B Zn 0.62451(3) -0.07668(3) -0.132347(18)
Zn1A Zn 0.62451(3) -0.42332(3) 0.367653(18)
Zn1B_2 Zn -0.37549(3) -0.07668(3) -0.132347(18)
Zn2B Zn 0.43248(3) 0.11240(3) -0.308758(18)
Zn2A Zn 0.43248(3) 0.38760(3) 0.191242(18)
Zn2C Zn 0.56752(3) -0.38760(3) -0.191242(18)
Zn2A_2 Zn 0.43248(3) -0.61240(3) 0.191242(18)
Zn2B_2 Zn -0.56752(3) 0.11240(3) -0.308758(18)
Zn4_2 Zn 1.0000 0.0000 0.0000
Zn4C Zn 1.0000 -0.5000 0.5000
O1A O 0.55662(17) -0.30387(18) 0.25225(10)
O1B O 0.55662(17) -0.19613(18) -0.24775(10)
O1C O 0.44338(17) 0.30387(18) -0.25225(10)
O2A O 0.43756(19) -0.44288(19) 0.13128(11)
O2B O 0.43756(19) -0.05712(19) -0.36872(11)
O3B O 0.41375(18) 0.01248(18) -0.21531(11)
O4B O 0.32147(19) 0.01243(19) -0.13632(11)
O5B O 0.54315(17) -0.25466(18) -0.11206(10)
O5A O 0.54315(17) -0.24534(18) 0.38794(10)
O5C O 0.45685(17) 0.24534(18) -0.38794(10)
O6B O 0.50580(18) -0.21023(19) -0.00724(11)
O7B O -0.34214(18) 0.08282(18) -0.19456(11)
O7B_2 O 0.65786(18) 0.08282(18) -0.19456(11)
O8B O -0.09867(18) 0.11556(19) -0.11700(11)
O9B O 0.66192(18) 0.02452(18) -0.02327(11)
O10B O 0.88905(19) 0.10695(19) 0.03956(11)
O10B_2 O -0.11095(19) 0.10695(19) 0.03956(11)
O11A O 0.83527(17) -0.34735(18) 0.43404(10)
O11B O -0.16473(17) -0.15265(18) -0.06596(10)
O11B_2 O 0.83527(17) -0.15265(18) -0.06596(10)
O12A O 0.79344(18) -0.12565(18) 0.39677(11)
O12C O 0.20656(18) 0.12565(18) -0.39677(11)
C1A C 0.4886(3) -0.3304(3) 0.16823(16)
H1A H 0.4756 -0.2576 0.1302
C2B C 0.3120(3) 0.0285(3) -0.20635(17)
H2B H 0.2186 0.0557 -0.2589
C3B C 0.5157(3) -0.2888(3) -0.05606(16)
H3B H 0.5018 -0.3827 -0.0516
C4B C -0.2281(3) 0.1364(3) -0.18148(16)
H4B H -0.2448 0.1989 -0.2261
C5B C 0.7744(3) 0.0993(3) 0.03266(16)
H5B H 0.7680 0.1542 0.0727
C6A C 0.8755(3) -0.2245(3) 0.43745(16)
H6A H 0.9786 -0.2074 0.4749
O13 O 0.7744(3) 0.4886(3) 0.16088(15)
C7 C 0.8226(3) 0.6173(3) 0.2054(2)
H7 H 0.8523 0.6099 0.2680
H8 H 0.7424 0.6852 0.1721
C8 C 0.9523(3) 0.6585(4) 0.2066(2)
H9 H 1.0454 0.6187 0.2591
H10 H 0.9624 0.7585 0.2079
C9 C 0.9099(3) 0.5995(3) 0.11811(19)
H11 H 0.9979 0.5841 0.1195
H12 H 0.8401 0.6594 0.0664
C10 C 0.8377(4) 0.4667(4) 0.1128(2)
H13 H 0.7600 0.4420 0.0488
H14 H 0.9116 0.3927 0.1415
loop_
_geom_bond_atom_site_label_1
_geom_bond_atom_site_label_2
_geom_bond_site_symmetry_1
_geom_bond_site_symmetry_2
Zn1 O1 1_555 1_555
Zn2 O2 1_555 1_555
Zn3 O4 1_555 1_555
Zn4 O8 1_555 1_555
O1 C1 1_555 1_555
O2 C1 1_555 1_555
O3 Zn1 1_555 1_555
O4 C2 1_555 1_555
O5 Zn1 1_555 1_555
O6 Zn3 1_555 1_555
O7 Zn1 1_555 1_555
O8 C4 1_555 1_555
O9 Zn1 1_555 1_555
O10 Zn4 1_555 1_555
O11 Zn1 1_555 1_555
O12 C6 1_555 1_555
C1 H1 1_555 1_555
C2 O3 1_555 1_555
H2 C2 1_555 1_555
C3 O5 1_555 1_555
H3 C3 1_555 1_555
C4 O7 1_555 1_555
H4 C4 1_555 1_555
C5 O9 1_555 1_555
H5 C5 1_555 1_555
C6 O11 1_555 1_555
H6 C6 1_555 1_555
O13 C7 1_555 1_555
C7 H7 1_555 1_555
H8 C7 1_555 1_555
C8 C7 1_555 1_555
H9 C8 1_555 1_555
H10 C8 1_555 1_555
C9 C8 1_555 1_555
H11 C9 1_555 1_555
H12 C9 1_555 1_555
C10 O13 1_555 1_555
H13 C10 1_555 1_555
H14 C10 1_555 1_555
Zn1B O1B 1_555 1_555
Zn1A O1A 1_555 1_555
Zn1B_2 O7B 1_555 1_555
Zn2B O1C 1_555 1_555
Zn2A O1 1_555 1_555
Zn2C O1B 1_555 1_555
Zn2A_2 O2A 1_555 1_555
Zn2B_2 O7B 1_555 1_555
Zn4_2 O10B 1_555 1_555
Zn4C O11A 1_555 1_555
O1A Zn2 1_555 1_555
O2A C1A 1_555 1_555
O2B Zn2B 1_555 1_555
O3B Zn1B 1_555 1_555
O4B Zn3 1_555 1_555
O5B Zn1B 1_555 1_555
O5A Zn2 1_555 1_555
O5C Zn2B 1_555 1_555
O6B Zn3 1_555 1_555
O7B C4B 1_555 1_555
O7B_2 Zn1B 1_555 1_555
O8B Zn4 1_555 1_555
O9B Zn3 1_555 1_555
O10B C5B 1_555 1_555
O10B_2 Zn4 1_555 1_555
O11A Zn1A 1_555 1_555
O11B Zn4 1_555 1_555
O11B_2 Zn1B 1_555 1_555
O12A Zn2 1_555 1_555
O12C Zn2B 1_555 1_555
C1A O1A 1_555 1_555
H1A C1A 1_555 1_555
C2B O3B 1_555 1_555
H2B C2B 1_555 1_555
C3B O5B 1_555 1_555
H3B C3B 1_555 1_555
C4B O8B 1_555 1_555
H4B C4B 1_555 1_555
C5B O9B 1_555 1_555
H5B C5B 1_555 1_555
C6A O11A 1_555 1_555
H6A C6A 1_555 1_555
Zn2 O3 1_555 1_555
Zn2 O7 1_555 1_555
Zn3 O9 1_555 1_555
Zn4 O11 1_555 1_555
O5 Zn2A 1_555 1_555
O6 C3 1_555 1_555
O10 C5 1_555 1_555
O12 Zn2A 1_555 1_555
C9 C10 1_555 1_555
Zn1B O9B 1_555 1_555
Zn1A O5A 1_555 1_555
Zn1B_2 O11B 1_555 1_555
Zn2B O3B 1_555 1_555
Zn2B O7B_2 1_555 1_555
Zn2C O5B 1_555 1_555
Zn4_2 O11B_2 1_555 1_555
O4B C2B 1_555 1_555
O6B C3B 1_555 1_555
O12A C6A 1_555 1_555

#END
