
#######################################################################
#
#                 Cambridge Crystallographic Data Centre
#                                CCDC 
#
#######################################################################
#
# If this CIF has been generated from an entry in the Cambridge 
# Structural Database, then it will include bibliographic, chemical, 
# crystal, experimental, refinement or atomic coordinate data resulting 
# from the CCDC's data processing and validation procedures.
#
#######################################################################

data_IQIMUS
_chemical_formula_moiety         '(C68 H44 Cd2 N8 O8)n'
_symmetry_cell_setting           monoclinic
_symmetry_space_group_name_H-M   'C 2/m'
_symmetry_Int_Tables_number      12
_space_group_name_Hall           '-C 2y'
loop_
_symmetry_equiv_pos_site_id
_symmetry_equiv_pos_as_xyz
1 x,y,z
2 -x,y,-z
3 1/2+x,1/2+y,z
4 1/2-x,1/2+y,-z
5 -x,-y,-z
6 x,-y,z
7 1/2-x,1/2-y,-z
8 1/2+x,1/2-y,z
_cell_length_a                   26.054(4)
_cell_length_b                   22.388(4)
_cell_length_c                   9.2545(14)
_cell_angle_alpha                90
_cell_angle_beta                 92.154(4)
_cell_angle_gamma                90
_cell_volume                     5394.31
loop_
_atom_site_label
_atom_site_type_symbol
_atom_site_fract_x
_atom_site_fract_y
_atom_site_fract_z
Cd1 Cd 0.29656(2) 0.0000 -0.40990(5)
C1 C 0.3729(3) 0.0000 -0.6006(9)
C2 C 0.4106(2) 0.0000 -0.7187(8)
C3 C 0.3943(3) 0.0000 -0.8617(7)
H1 H 0.3594 -0.0000 -0.8868
C4 C 0.4301(3) 0.0000 -0.9677(8)
H2 H 0.4182 0.0000 -1.0637
C5 C 0.4817(2) 0.0000 -0.9411(7)
C6 C 0.4966(3) -0.0000 -0.8028(8)
H3 H 0.5317 -0.0000 -0.7805
C7 C 0.4624(3) 0.0000 -0.6852(8)
H4 H 0.4748 0.0000 -0.5896
C8 C 0.2814(2) 0.1175(2) -0.2260(5)
H5 H 0.2462 0.1106 -0.2307
C9 C 0.3556(3) 0.1594(3) -0.1774(7)
H6 H 0.3810 0.1856 -0.1435
C10 C 0.3617(2) 0.1098(3) -0.2547(6)
H7 H 0.3932 0.0955 -0.2839
C11 C 0.2798(3) 0.1415(3) 0.1377(7)
H8 H 0.2992 0.1134 0.0895
C12 C 0.2648(2) 0.1963(2) 0.0633(6)
C13 C 0.2764(2) 0.2080(2) -0.0752(6)
C14 C 0.2627(2) 0.2607(2) -0.1444(6)
C15 C 0.2751(2) 0.2742(3) -0.2868(6)
H9 H 0.2939 0.2469 -0.3388
C16 C 0.2602(3) 0.3266(3) -0.3507(8)
H10 H 0.2677 0.3340 -0.4465
C17 C 0.2333(3) 0.3697(3) -0.2717(8)
H11 H 0.2247 0.4062 -0.3143
C18 C 0.1905(3) 0.0000 -0.4522(9)
C19 C 0.1350(3) 0.0000 -0.4678(9)
C20 C 0.1095(3) 0.0506(3) -0.4838(8)
H12 H 0.1272 0.0867 -0.4843
C21 C 0.0551(2) 0.0503(3) -0.5003(7)
H13 H 0.0378 0.0862 -0.5169
C22 C 0.0282(3) -0.0000 -0.4926(10)
N1 N 0.31567(16) 0.08287(17) -0.2853(4)
N2 N 0.3039(2) 0.16351(18) -0.1585(4)
O1 O 0.32662(19) -0.0000 -0.6340(6)
O2 O 0.39128(18) 0.0000 -0.4691(7)
O3 O 0.21591(12) 0.04623(18) -0.4496(4)
C1A C 0.6271(3) 0.0000 -1.3994(9)
C2A C 0.5894(2) 0.0000 -1.2813(8)
C3A C 0.6057(3) 0.0000 -1.1383(7)
H1A H 0.6406 0.0000 -1.1132
C4A C 0.5699(3) 0.0000 -1.0323(8)
H2A H 0.5818 0.0000 -0.9363
C5A C 0.5183(2) 0.0000 -1.0589(7)
C6A C 0.5034(3) 0.0000 -1.1972(8)
H3A H 0.4683 0.0000 -1.2195
C7A C 0.5376(3) 0.0000 -1.3148(8)
H4A H 0.5252 0.0000 -1.4104
O1A O 0.67338(19) 0.0000 -1.3660(6)
O2A O 0.60872(18) 0.0000 -1.5309(7)
C8F C 0.2186(2) 0.3825(2) 0.2260(5)
H5F H 0.2538 0.3894 0.2307
C9F C 0.1444(3) 0.3406(3) 0.1774(7)
H6F H 0.1190 0.3144 0.1435
C10F C 0.1383(2) 0.3902(3) 0.2547(6)
H7F H 0.1068 0.4045 0.2839
C11F C 0.2202(3) 0.3585(3) -0.1377(7)
H8F H 0.2008 0.3866 -0.0895
C12F C 0.2352(2) 0.3037(2) -0.0633(6)
C13F C 0.2236(2) 0.2920(2) 0.0752(6)
C14F C 0.2373(2) 0.2393(2) 0.1444(6)
C15F C 0.2249(2) 0.2258(3) 0.2868(6)
H9F H 0.2061 0.2531 0.3388
C16F C 0.2398(3) 0.1734(3) 0.3507(8)
H10F H 0.2323 0.1660 0.4465
C17F C 0.2667(3) 0.1303(3) 0.2717(8)
H11F H 0.2753 0.0938 0.3143
N1F N 0.18433(16) 0.41713(17) 0.2853(4)
N2F N 0.1961(2) 0.33649(18) 0.1585(4)
C18A C -0.1905(3) -0.0000 -0.5478(9)
C19A C -0.1350(3) 0.0000 -0.5322(9)
C20A C -0.1095(3) 0.0506(3) -0.5162(8)
H12A H -0.1272 0.0867 -0.5157
C21A C -0.0551(2) 0.0503(3) -0.4997(7)
H13A H -0.0378 0.0862 -0.4831
C22A C -0.0282(3) 0.0000 -0.5074(10)
O3A O -0.21591(12) 0.04623(18) -0.5504(4)
C20D C -0.1095(3) -0.0506(3) -0.5162(8)
H12D H -0.1272 -0.0867 -0.5157
C21D C -0.0551(2) -0.0503(3) -0.4997(7)
H13D H -0.0378 -0.0862 -0.4831
O3D O -0.21591(12) -0.04623(18) -0.5504(4)
C20E C 0.1095(3) -0.0506(3) -0.4838(8)
H12E H 0.1272 -0.0867 -0.4843
C21E C 0.0551(2) -0.0503(3) -0.5003(7)
H13E H 0.0378 -0.0862 -0.5169
O3E O 0.21591(12) -0.04623(18) -0.4496(4)
Cd1A Cd -0.29656(2) 0.0000 -0.59010(5)
C8A C -0.2814(2) 0.1175(2) -0.7740(5)
H5A H -0.2462 0.1106 -0.7693
C9A C -0.3556(3) 0.1594(3) -0.8226(7)
H6A H -0.3810 0.1856 -0.8565
C10A C -0.3617(2) 0.1098(3) -0.7453(6)
H7A H -0.3932 0.0955 -0.7161
C11A C -0.2798(3) 0.1415(3) -1.1377(7)
H8A H -0.2992 0.1134 -1.0895
C12A C -0.2648(2) 0.1963(2) -1.0633(6)
C13A C -0.2764(2) 0.2080(2) -0.9248(6)
C14A C -0.2627(2) 0.2607(2) -0.8556(6)
C15A C -0.2751(2) 0.2742(3) -0.7132(6)
H9A H -0.2939 0.2469 -0.6612
C16A C -0.2602(3) 0.3266(3) -0.6493(8)
H10A H -0.2677 0.3340 -0.5535
C17A C -0.2333(3) 0.3697(3) -0.7283(8)
H11A H -0.2247 0.4062 -0.6857
N1A N -0.31567(16) 0.08287(17) -0.7147(4)
N2A N -0.3039(2) 0.16351(18) -0.8415(4)
C8G C -0.2186(2) 0.3825(2) -1.2260(5)
H5G H -0.2538 0.3894 -1.2307
C9G C -0.1444(3) 0.3406(3) -1.1774(7)
H6G H -0.1190 0.3144 -1.1435
C10G C -0.1383(2) 0.3902(3) -1.2547(6)
H7G H -0.1068 0.4045 -1.2839
C11G C -0.2202(3) 0.3585(3) -0.8623(7)
H8G H -0.2008 0.3866 -0.9105
C12G C -0.2352(2) 0.3037(2) -0.9367(6)
C13G C -0.2236(2) 0.2920(2) -1.0752(6)
C14G C -0.2373(2) 0.2393(2) -1.1444(6)
C15G C -0.2249(2) 0.2258(3) -1.2868(6)
H9G H -0.2061 0.2531 -1.3388
C16G C -0.2398(3) 0.1734(3) -1.3507(8)
H10G H -0.2323 0.1660 -1.4465
C17G C -0.2667(3) 0.1303(3) -1.2717(8)
H11G H -0.2753 0.0938 -1.3143
N1G N -0.18433(16) 0.41713(17) -1.2853(4)
N2G N -0.1961(2) 0.33649(18) -1.1585(4)
Cd1A_2 Cd 0.70344(2) 0.0000 -1.59010(5)
Cd1B Cd -0.20344(2) 0.5000 -1.40990(5)
Cd1C Cd 0.20344(2) 0.5000 0.40990(5)
N1D N -0.31567(16) -0.08287(17) -0.7147(4)
N1E N 0.31567(16) -0.08287(17) -0.2853(4)
O1A_2 O -0.32662(19) -0.0000 -0.3660(6)
O2A_2 O -0.39128(18) 0.0000 -0.5309(7)
loop_
_geom_bond_atom_site_label_1
_geom_bond_atom_site_label_2
_geom_bond_site_symmetry_1
_geom_bond_site_symmetry_2
Cd1 N1 1_555 1_555
C1 C2 1_555 1_555
C2 C3 1_555 1_555
C3 H1 1_555 1_555
C4 C3 1_555 1_555
H2 C4 1_555 1_555
C5 C4 1_555 1_555
C6 C5 1_555 1_555
H3 C6 1_555 1_555
C7 C2 1_555 1_555
H4 C7 1_555 1_555
C8 H5 1_555 1_555
C9 H6 1_555 1_555
C10 C9 1_555 1_555
H7 C10 1_555 1_555
C11 H8 1_555 1_555
C12 C11 1_555 1_555
C13 C12 1_555 1_555
C14 C13 1_555 1_555
C15 C14 1_555 1_555
H9 C15 1_555 1_555
C16 C15 1_555 1_555
H10 C16 1_555 1_555
C17 C16 1_555 1_555
H11 C17 1_555 1_555
C18 C19 1_555 1_555
C19 C20 1_555 1_555
C20 H12 1_555 1_555
C21 C20 1_555 1_555
H13 C21 1_555 1_555
C22 C21 1_555 1_555
N1 C8 1_555 1_555
N2 C8 1_555 1_555
O1 Cd1 1_555 1_555
O2 Cd1 1_555 1_555
O3 Cd1 1_555 1_555
C1A C2A 1_555 1_555
C2A C3A 1_555 1_555
C3A H1A 1_555 1_555
C4A C3A 1_555 1_555
H2A C4A 1_555 1_555
C5A C5 1_555 1_555
C6A C5A 1_555 1_555
H3A C6A 1_555 1_555
C7A C2A 1_555 1_555
H4A C7A 1_555 1_555
O1A C1A 1_555 1_555
O2A C1A 1_555 1_555
C8F H5F 1_555 1_555
C9F H6F 1_555 1_555
C10F C9F 1_555 1_555
H7F C10F 1_555 1_555
C11F C17 1_555 1_555
H8F C11F 1_555 1_555
C12F C14 1_555 1_555
C13F C12F 1_555 1_555
C14F C12 1_555 1_555
C15F C14F 1_555 1_555
H9F C15F 1_555 1_555
C16F C15F 1_555 1_555
H10F C16F 1_555 1_555
C17F C11 1_555 1_555
H11F C17F 1_555 1_555
N1F C8F 1_555 1_555
N2F C8F 1_555 1_555
C18A C19A 1_555 1_555
C19A C20A 1_555 1_555
C20A H12A 1_555 1_555
C21A C20A 1_555 1_555
H13A C21A 1_555 1_555
C22A C22 1_555 1_555
O3A C18A 1_555 1_555
C20D C19A 1_555 1_555
H12D C20D 1_555 1_555
C21D C22A 1_555 1_555
H13D C21D 1_555 1_555
O3D C18A 1_555 1_555
C20E C19 1_555 1_555
H12E C20E 1_555 1_555
C21E C22 1_555 1_555
H13E C21E 1_555 1_555
O3E Cd1 1_555 1_555
Cd1A O3A 1_555 1_555
C8A H5A 1_555 1_555
C9A H6A 1_555 1_555
C10A C9A 1_555 1_555
H7A C10A 1_555 1_555
C11A H8A 1_555 1_555
C12A C11A 1_555 1_555
C13A C12A 1_555 1_555
C14A C13A 1_555 1_555
C15A C14A 1_555 1_555
H9A C15A 1_555 1_555
C16A C15A 1_555 1_555
H10A C16A 1_555 1_555
C17A C16A 1_555 1_555
H11A C17A 1_555 1_555
N1A Cd1A 1_555 1_555
N2A C8A 1_555 1_555
C8G H5G 1_555 1_555
C9G H6G 1_555 1_555
C10G C9G 1_555 1_555
H7G C10G 1_555 1_555
C11G C17A 1_555 1_555
H8G C11G 1_555 1_555
C12G C14A 1_555 1_555
C13G C12G 1_555 1_555
C14G C12A 1_555 1_555
C15G C14G 1_555 1_555
H9G C15G 1_555 1_555
C16G C15G 1_555 1_555
H10G C16G 1_555 1_555
C17G C11A 1_555 1_555
H11G C17G 1_555 1_555
N1G C8G 1_555 1_555
N2G C8G 1_555 1_555
Cd1A_2 O1A 1_555 1_555
Cd1B N1G 1_555 1_555
Cd1C N1F 1_555 1_555
N1D Cd1A 1_555 1_555
N1E Cd1 1_555 1_555
O1A_2 Cd1A 1_555 1_555
O2A_2 Cd1A 1_555 1_555
C1 O1 1_555 1_555
C1 O2 1_555 1_555
C6 C7 1_555 1_555
C9 N2 1_555 1_555
C10 N1 1_555 1_555
C13 N2 1_555 1_555
C18 O3 1_555 1_555
C18 O3E 1_555 1_555
C4A C5A 1_555 1_555
C6A C7A 1_555 1_555
O2A Cd1A_2 1_555 1_555
C9F N2F 1_555 1_555
C10F N1F 1_555 1_555
C11F C12F 1_555 1_555
C13F C14F 1_555 1_555
C13F N2F 1_555 1_555
C16F C17F 1_555 1_555
C21A C22A 1_555 1_555
C20D C21D 1_555 1_555
O3D Cd1A 1_555 1_555
C20E C21E 1_555 1_555
C8A N1A 1_555 1_555
C9A N2A 1_555 1_555
C10A N1A 1_555 1_555
C13A N2A 1_555 1_555
C9G N2G 1_555 1_555
C10G N1G 1_555 1_555
C11G C12G 1_555 1_555
C13G C14G 1_555 1_555
C13G N2G 1_555 1_555
C16G C17G 1_555 1_555

#END
