
#######################################################################
#
#                 Cambridge Crystallographic Data Centre
#                                CCDC 
#
#######################################################################
#
# If this CIF has been generated from an entry in the Cambridge 
# Structural Database, then it will include bibliographic, chemical, 
# crystal, experimental, refinement or atomic coordinate data resulting 
# from the CCDC's data processing and validation procedures.
#
#######################################################################

data_QOGZET
_chemical_formula_moiety         '(C3 H31 Ga8 N2 O48 P14 3-)n'
_symmetry_cell_setting           trigonal
_symmetry_space_group_name_H-M   'P -3 c 1'
_symmetry_Int_Tables_number      165
_space_group_name_Hall           '-P 3 2"c'
loop_
_symmetry_equiv_pos_site_id
_symmetry_equiv_pos_as_xyz
1 x,y,z
2 -y,x-y,z
3 -x+y,-x,z
4 y,x,1/2-z
5 x-y,-y,1/2-z
6 -x,-x+y,1/2-z
7 -x,-y,-z
8 y,-x+y,-z
9 x-y,x,-z
10 -y,-x,1/2+z
11 -x+y,y,1/2+z
12 x,x-y,1/2+z
_cell_length_a                   13.350(6)
_cell_length_b                   13.350(6)
_cell_length_c                   17.843(16)
_cell_angle_alpha                90
_cell_angle_beta                 90
_cell_angle_gamma                120
_cell_volume                     2753.98
loop_
_atom_site_label
_atom_site_type_symbol
_atom_site_fract_x
_atom_site_fract_y
_atom_site_fract_z
N1 N 0.6079(12) 0.9494(12) 0.2948(8)
H6 H 0.6094 0.9078 0.3310
C1 C 0.6911(11) 1.0000 0.2500
H7 H 0.7608 1.0000 0.2500
C2 C 0.5253(12) 0.9623(11) 0.2841(7)
H8 H 0.4568 0.9331 0.3111
N1D N 0.6585(17) 1.0506(12) 0.2052(8)
H6D H 0.7016 1.0922 0.1690
C2D C 0.5630(16) 1.0377(11) 0.2159(7)
H8D H 0.5237 1.0669 0.1889
Ga1 Ga 1.0000 0.0000 0.2500
Ga2 Ga 1.0000 0.0000 0.0000
Ga3 Ga 0.85886(5) 0.29249(5) 0.03983(4)
P1 P 0.63163(11) 0.12718(11) -0.05377(9)
H1 H 0.688(3) 0.180(3) -0.1157(11)
P2 P 0.6667 0.3333 0.1377(2)
H2 H 0.6667 0.3333 0.2110(8)
P3 P 0.97445(11) 0.16139(12) 0.12923(8)
H3 H 1.054(3) 0.258(2) 0.160(2)
O1 O 0.5714(4) -0.0005(3) -0.0731(2)
O2 O 1.0280(3) 0.1352(3) 0.0608(2)
O3 O 0.7190(3) 0.1523(3) 0.0082(3)
O4 O 0.8819(3) 0.1905(3) 0.1076(2)
O5 O 0.9256(3) 0.0668(3) 0.1881(2)
O6 O 0.5484(4) 0.1703(3) -0.0362(2)
O7 O 0.7746(3) 0.3246(3) 0.1173(3)
O8 O 0.9424(3) 0.2569(3) -0.0429(2)
H4 H 0.930(3) 0.1893(14) -0.033(3)
H5 H 1.0127(13) 0.278(4) -0.052(3)
O7A O 0.6754(3) 0.4500(4) 0.1173(3)
O7B O 0.5500(4) 0.2254(3) 0.1173(3)
Ga3A Ga 0.70751(5) -0.43363(7) 0.03983(4)
P1A P 0.87282(11) -0.49555(16) -0.05377(9)
H1A H 0.820(3) -0.492(4) -0.1157(11)
P3A P 0.83861(12) -0.18694(16) 0.12923(8)
H3A H 0.742(2) -0.204(4) 0.160(2)
O1A O 1.0005(3) -0.4281(5) -0.0731(2)
O2A O 0.8648(3) -0.1072(4) 0.0608(2)
O3A O 0.8477(3) -0.4333(4) 0.0082(3)
O4A O 0.8095(3) -0.3086(4) 0.1076(2)
O5A O 0.9332(3) -0.1412(4) 0.1881(2)
O6A O 0.8297(3) -0.6219(5) -0.0362(2)
O8A O 0.7431(3) -0.3145(4) -0.0429(2)
H4A H 0.8107(14) -0.2593(33) -0.033(3)
H5A H 0.722(4) -0.2653(42) -0.052(3)
Ga3B Ga 0.43363(7) 0.14114(5) 0.03983(4)
P1B P 0.49555(16) 0.36837(11) -0.05377(9)
H1B H 0.492(4) 0.312(3) -0.1157(11)
P3B P 0.18694(16) 0.02555(11) 0.12923(8)
H3B H 0.204(4) -0.054(3) 0.160(2)
O1B O 0.4281(5) 0.4286(4) -0.0731(2)
O2B O 0.1072(4) -0.0280(3) 0.0608(2)
O3B O 0.4333(4) 0.2810(3) 0.0082(3)
O4B O 0.3086(4) 0.1181(3) 0.1076(2)
O5B O 0.1412(4) 0.0744(3) 0.1881(2)
O6B O 0.6219(5) 0.4516(4) -0.0362(2)
O8B O 0.3145(4) 0.0576(3) -0.0429(2)
H4B H 0.2593(33) 0.070(3) -0.033(3)
H5B H 0.2653(42) -0.0127(13) -0.052(3)
Ga3F Ga 0.14114(5) -0.29249(5) -0.03983(4)
P1F P 0.36837(11) -0.12718(11) 0.05377(9)
H1F H 0.312(3) -0.180(3) 0.1157(11)
P2F P 0.3333 -0.3333 -0.1377(2)
H2F H 0.3333 -0.3333 -0.2110(8)
P3F P 0.02555(11) -0.16139(12) -0.12923(8)
H3F H -0.054(3) -0.258(2) -0.160(2)
O1F O 0.4286(4) 0.0005(3) 0.0731(2)
O2F O -0.0280(3) -0.1352(3) -0.0608(2)
O3F O 0.2810(3) -0.1523(3) -0.0082(3)
O4F O 0.1181(3) -0.1905(3) -0.1076(2)
O5F O 0.0744(3) -0.0668(3) -0.1881(2)
O6F O 0.4516(4) -0.1703(3) 0.0362(2)
O7F O 0.2254(3) -0.3246(3) -0.1173(3)
O8F O 0.0576(3) -0.2569(3) 0.0429(2)
H4F H 0.070(3) -0.1893(14) 0.033(3)
H5F H -0.0127(13) -0.278(4) 0.052(3)
O7G O 0.3246(3) -0.4500(4) -0.1173(3)
O7H O 0.4500(4) -0.2254(3) -0.1173(3)
Ga3G Ga 0.29249(5) -0.56637(7) -0.03983(4)
P1G P 0.12718(11) -0.50445(16) 0.05377(9)
H1G H 0.180(3) -0.508(4) 0.1157(11)
P3G P 0.16139(12) -0.81306(16) -0.12923(8)
H3G H 0.258(2) -0.796(4) -0.160(2)
O1G O -0.0005(3) -0.5719(5) 0.0731(2)
O2G O 0.1352(3) -0.8928(4) -0.0608(2)
O3G O 0.1523(3) -0.5667(4) -0.0082(3)
O4G O 0.1905(3) -0.6914(4) -0.1076(2)
O5G O 0.0668(3) -0.8588(4) -0.1881(2)
O6G O 0.1703(3) -0.3781(5) 0.0362(2)
O8G O 0.2569(3) -0.6855(4) 0.0429(2)
H4G H 0.1893(14) -0.7407(33) 0.033(3)
H5G H 0.278(4) -0.7347(42) 0.052(3)
Ga3H Ga 0.56637(7) -0.14114(5) -0.03983(4)
P1H P 0.50445(16) -0.36837(11) 0.05377(9)
H1H H 0.508(4) -0.312(3) 0.1157(11)
P3H P 0.81306(16) -0.02555(11) -0.12923(8)
H3H H 0.796(4) 0.054(3) -0.160(2)
O1H O 0.5719(5) -0.4286(4) 0.0731(2)
O2H O 0.8928(4) 0.0280(3) -0.0608(2)
O3H O 0.5667(4) -0.2810(3) -0.0082(3)
O4H O 0.6914(4) -0.1181(3) -0.1076(2)
O5H O 0.8588(4) -0.0744(3) -0.1881(2)
O6H O 0.3781(5) -0.4516(4) 0.0362(2)
O8H O 0.6855(4) -0.0576(3) 0.0429(2)
H4H H 0.7407(33) -0.070(3) 0.033(3)
H5H H 0.7347(42) 0.0127(13) 0.052(3)
Ga1_2 Ga 0.0000 0.0000 0.2500
Ga1F Ga 0.0000 -1.0000 -0.2500
Ga1F_2 Ga 0.0000 0.0000 -0.2500
Ga1F_3 Ga 1.0000 0.0000 -0.2500
Ga2_2 Ga 0.0000 -1.0000 0.0000
Ga2_3 Ga 0.0000 0.0000 0.0000
Ga3_2 Ga -0.14114(5) -0.70751(5) 0.03983(4)
Ga3_3 Ga 0.85886(5) -0.70751(5) 0.03983(4)
Ga3A_2 Ga 0.70751(5) 0.56637(7) 0.03983(4)
Ga3F_2 Ga 1.14114(5) -0.29249(5) -0.03983(4)
Ga3G_2 Ga 0.29249(5) 0.43363(7) -0.03983(4)
O1A_2 O 0.0005(3) -0.4281(5) -0.0731(2)
O1B_2 O 0.4281(5) -0.5714(4) -0.0731(2)
O1G_2 O 0.9995(3) 0.4281(5) 0.0731(2)
O2B_2 O 1.1072(4) -0.0280(3) 0.0608(2)
O2F_2 O 0.9720(3) -0.1352(3) -0.0608(2)
O2G_2 O 1.1352(3) 0.1072(4) -0.0608(2)
O5B_2 O 1.1412(4) 0.0744(3) 0.1881(2)
O5C O 1.0668(3) -0.0744(3) 0.3119(2)
O5D O 0.8588(4) -0.0668(3) 0.3119(2)
O5E O 1.0744(3) 0.1412(4) 0.3119(2)
O6A_2 O 0.8297(3) 0.3781(5) -0.0362(2)
O6B_2 O 0.6219(5) -0.5484(4) -0.0362(2)
O7A_2 O 0.6754(3) -0.5500(4) 0.1173(3)
loop_
_geom_bond_atom_site_label_1
_geom_bond_atom_site_label_2
_geom_bond_site_symmetry_1
_geom_bond_site_symmetry_2
Ga1 O5 1_555 1_555
Ga2 O2 1_555 1_555
Ga3 O3 1_555 1_555
P1 H1 1_555 1_555
P2 H2 1_555 1_555
P3 H3 1_555 1_555
O1 P1 1_555 1_555
O2 P3 1_555 1_555
O3 P1 1_555 1_555
O4 Ga3 1_555 1_555
O5 P3 1_555 1_555
O6 P1 1_555 1_555
O7 Ga3 1_555 1_555
O8 Ga3 1_555 1_555
H4 O8 1_555 1_555
H5 O8 1_555 1_555
N1 H6 1_555 1_555
C1 N1 1_555 1_555
H7 C1 1_555 1_555
C2 N1 1_555 1_555
H8 C2 1_555 1_555
O7A P2 1_555 1_555
O7B P2 1_555 1_555
Ga3A O3A 1_555 1_555
P1A H1A 1_555 1_555
P3A H3A 1_555 1_555
O1A P1A 1_555 1_555
O2A Ga2 1_555 1_555
O3A P1A 1_555 1_555
O4A Ga3A 1_555 1_555
O5A Ga1 1_555 1_555
O6A P1A 1_555 1_555
O8A Ga3A 1_555 1_555
H4A O8A 1_555 1_555
H5A O8A 1_555 1_555
Ga3B O6 1_555 1_555
P1B H1B 1_555 1_555
P3B H3B 1_555 1_555
O1B P1B 1_555 1_555
O2B P3B 1_555 1_555
O3B Ga3B 1_555 1_555
O4B Ga3B 1_555 1_555
O5B P3B 1_555 1_555
O6B P1B 1_555 1_555
O8B Ga3B 1_555 1_555
H4B O8B 1_555 1_555
H5B O8B 1_555 1_555
Ga3F O3F 1_555 1_555
P1F H1F 1_555 1_555
P2F H2F 1_555 1_555
P3F H3F 1_555 1_555
O1F Ga3B 1_555 1_555
O2F P3F 1_555 1_555
O3F P1F 1_555 1_555
O4F Ga3F 1_555 1_555
O5F P3F 1_555 1_555
O6F P1F 1_555 1_555
O7F Ga3F 1_555 1_555
O8F Ga3F 1_555 1_555
H4F O8F 1_555 1_555
H5F O8F 1_555 1_555
O7G P2F 1_555 1_555
O7H P2F 1_555 1_555
Ga3G O7G 1_555 1_555
P1G H1G 1_555 1_555
P3G H3G 1_555 1_555
O1G P1G 1_555 1_555
O2G P3G 1_555 1_555
O3G Ga3G 1_555 1_555
O4G Ga3G 1_555 1_555
O5G P3G 1_555 1_555
O6G Ga3F 1_555 1_555
O8G Ga3G 1_555 1_555
H4G O8G 1_555 1_555
H5G O8G 1_555 1_555
Ga3H O1 1_555 1_555
P1H H1H 1_555 1_555
P3H H3H 1_555 1_555
O1H Ga3A 1_555 1_555
O2H Ga2 1_555 1_555
O3H Ga3H 1_555 1_555
O4H Ga3H 1_555 1_555
O5H P3H 1_555 1_555
O6H Ga3G 1_555 1_555
O8H Ga3H 1_555 1_555
H4H O8H 1_555 1_555
H5H O8H 1_555 1_555
Ga1_2 O5B 1_555 1_555
Ga1F O5G 1_555 1_555
Ga1F_2 O5F 1_555 1_555
Ga1F_3 O5H 1_555 1_555
Ga2_2 O2G 1_555 1_555
Ga2_3 O2B 1_555 1_555
Ga3_2 O1G 1_555 1_555
Ga3_3 O6A 1_555 1_555
Ga3A_2 O7A 1_555 1_555
Ga3F_2 O1A 1_555 1_555
Ga3G_2 O1B 1_555 1_555
O1A_2 Ga3F 1_555 1_555
O1B_2 Ga3G 1_555 1_555
O1G_2 Ga3 1_555 1_555
O2B_2 Ga2 1_555 1_555
O2F_2 Ga2 1_555 1_555
O2G_2 Ga2 1_555 1_555
O5B_2 Ga1 1_555 1_555
O5C Ga1 1_555 1_555
O5D Ga1 1_555 1_555
O5E Ga1 1_555 1_555
O6A_2 Ga3 1_555 1_555
O6B_2 Ga3A 1_555 1_555
O7A_2 Ga3A 1_555 1_555
N1D C1 1_555 1_555
H6D N1D 1_555 1_555
C2D C2 1_555 1_555
H8D C2D 1_555 1_555
P2 O7 1_555 1_555
P3 O4 1_555 1_555
O7B Ga3B 1_555 1_555
P3A O2A 1_555 1_555
P3A O4A 1_555 1_555
P3A O5A 1_555 1_555
P1B O3B 1_555 1_555
P3B O4B 1_555 1_555
O6B Ga3A_2 1_555 1_555
P1F O1F 1_555 1_555
P2F O7F 1_555 1_555
P3F O4F 1_555 1_555
O2F Ga2_3 1_555 1_555
O6F Ga3H 1_555 1_555
O7H Ga3H 1_555 1_555
P1G O3G 1_555 1_555
P1G O6G 1_555 1_555
P3G O4G 1_555 1_555
P1H O1H 1_555 1_555
P1H O3H 1_555 1_555
P1H O6H 1_555 1_555
P3H O2H 1_555 1_555
P3H O4H 1_555 1_555
N1D C2D 1_555 1_555

#END
