
#######################################################################
#
#                 Cambridge Crystallographic Data Centre
#                                CCDC 
#
#######################################################################
#
# If this CIF has been generated from an entry in the Cambridge 
# Structural Database, then it will include bibliographic, chemical, 
# crystal, experimental, refinement or atomic coordinate data resulting 
# from the CCDC's data processing and validation procedures.
#
#######################################################################

data_EHIHOU
_chemical_formula_moiety         '(C24 H22 Ag2 N5 O14 Pr1)n'
_symmetry_cell_setting           monoclinic
_symmetry_space_group_name_H-M   'P 21/c'
_symmetry_Int_Tables_number      14
_space_group_name_Hall           '-P 2ybc'
loop_
_symmetry_equiv_pos_site_id
_symmetry_equiv_pos_as_xyz
1 x,y,z
2 -x,1/2+y,1/2-z
3 -x,-y,-z
4 x,1/2-y,1/2+z
_cell_length_a                   16.9915(13)
_cell_length_b                   24.7990(19)
_cell_length_c                   6.7833(5)
_cell_angle_alpha                90
_cell_angle_beta                 95.7840(10)
_cell_angle_gamma                90
_cell_volume                     2843.74
loop_
_atom_site_label
_atom_site_type_symbol
_atom_site_fract_x
_atom_site_fract_y
_atom_site_fract_z
Pr1 Pr 0.230714(10) 0.662128(7) 0.38240(3)
Ag1 Ag -0.270601(16) 0.771294(14) 0.50981(5)
Ag2 Ag -0.265120(18) 0.510545(14) 0.59660(6)
N1 N -0.14913(17) 0.52911(12) 0.4992(5)
N2 N -0.14433(17) 0.77221(12) 0.5008(5)
N3 N 0.61316(17) 0.53713(12) 0.6248(5)
N4 N 0.60317(16) 0.77207(12) 0.5167(5)
O1 O 0.11470(15) 0.60646(10) 0.3979(4)
O2 O 0.08681(15) 0.55666(11) 0.1260(4)
O3 O 0.13823(15) 0.73028(10) 0.4580(4)
O4 O 0.14559(13) 0.81468(9) 0.5687(3)
O5 O 0.33440(16) 0.60208(12) 0.5271(4)
O6 O 0.34975(15) 0.58336(11) 0.8509(4)
O7 O 0.31686(15) 0.73056(11) 0.5489(4)
O8 O 0.32798(14) 0.81560(10) 0.6545(4)
O9 O 0.21819(17) 0.64755(12) 0.7408(4)
H1 H 0.2168 0.6157 0.7867
H2 H 0.2148 0.6745 0.8171
O10 O 0.24082(14) 0.57809(9) 0.1624(4)
H3 H 0.2392 0.5468 0.2129
H4 H 0.2457 0.5816 0.0395
C1 C 0.0711(2) 0.57562(13) 0.2865(5)
C2 C -0.0078(2) 0.56064(13) 0.3586(5)
C3 C -0.0265(2) 0.57669(13) 0.5445(5)
H5 H 0.0083 0.5982 0.6246
C4 C -0.0971(2) 0.56045(15) 0.6091(6)
H6 H -0.1092 0.5716 0.7334
C5 C -0.1302(2) 0.51363(15) 0.3207(6)
H7 H -0.1653 0.4915 0.2440
C6 C -0.0614(2) 0.52885(14) 0.2455(5)
H8 H -0.0511 0.5178 0.1196
C7 C 0.10834(18) 0.77273(13) 0.5136(5)
C8 C 0.01968(18) 0.77320(13) 0.5079(5)
C9 C -0.0228(2) 0.82071(14) 0.5106(5)
H9 H 0.0034 0.8537 0.5160
C10 C -0.1033(2) 0.81897(15) 0.5054(6)
H10 H -0.1310 0.8513 0.5050
C11 C -0.1032(2) 0.72614(15) 0.4974(6)
H11 H -0.1305 0.6936 0.4939
C12 C -0.0224(2) 0.72515(13) 0.4990(5)
H12 H 0.0040 0.6924 0.4941
C13 C 0.3733(2) 0.58667(13) 0.6838(5)
C14 C 0.4584(2) 0.57084(13) 0.6651(5)
C15 C 0.5060(2) 0.54937(14) 0.8219(5)
H13 H 0.4870 0.5462 0.9453
C16 C 0.5815(2) 0.53262(15) 0.7967(6)
H14 H 0.6119 0.5174 0.9043
C17 C 0.5677(2) 0.55959(15) 0.4728(6)
H15 H 0.5891 0.5642 0.3529
C18 C 0.4910(2) 0.57614(14) 0.4861(5)
H16 H 0.4613 0.5907 0.3763
C19 C 0.35459(19) 0.77296(14) 0.5869(5)
C20 C 0.44112(19) 0.77290(13) 0.5531(5)
C21 C 0.4830(2) 0.82057(14) 0.5425(5)
H17 H 0.4575 0.8536 0.5488
C22 C 0.5626(2) 0.81848(15) 0.5227(6)
H18 H 0.5898 0.8508 0.5128
C23 C 0.5619(2) 0.72601(14) 0.5248(5)
H19 H 0.5886 0.6934 0.5194
C24 C 0.4818(2) 0.72512(14) 0.5406(5)
H20 H 0.4552 0.6924 0.5428
Pr1C Pr 0.230714(10) 0.837872(7) 0.88240(3)
Ag1_2 Ag 0.729399(16) 0.771294(14) 0.50981(5)
Ag2_2 Ag 0.734880(18) 0.510545(14) 0.59660(6)
N3_2 N -0.38684(17) 0.53713(12) 0.6248(5)
N4_2 N -0.39683(16) 0.77207(12) 0.5167(5)
O4C O 0.14559(13) 0.68532(9) 0.0687(3)
O8C O 0.32798(14) 0.68440(10) 0.1545(4)
N5 N 0.2671(2) 0.41296(18) 0.8980(6)
O11 O 0.2588(3) 0.37044(17) 0.7997(6)
O12 O 0.2412(2) 0.41545(19) 1.0605(5)
O13 O 0.2992(2) 0.45129(17) 0.8271(5)
O14 O 0.2702(2) 0.34414(12) 0.4044(6)
H21 H 0.2720 0.3269 0.2967
H22 H 0.2727 0.3273 0.5140
loop_
_geom_bond_atom_site_label_1
_geom_bond_atom_site_label_2
_geom_bond_site_symmetry_1
_geom_bond_site_symmetry_2
Pr1 O1 1_555 1_555
Ag1 N2 1_555 1_555
Ag2 N1 1_555 1_555
N1 C4 1_555 1_555
N2 C10 1_555 1_555
N3 C16 1_555 1_555
N4 C22 1_555 1_555
O1 C1 1_555 1_555
O2 C1 1_555 1_555
O3 Pr1 1_555 1_555
O4 C7 1_555 1_555
O5 Pr1 1_555 1_555
O6 C13 1_555 1_555
O7 Pr1 1_555 1_555
O8 C19 1_555 1_555
O9 Pr1 1_555 1_555
H1 O9 1_555 1_555
H2 O9 1_555 1_555
O10 Pr1 1_555 1_555
H3 O10 1_555 1_555
H4 O10 1_555 1_555
C1 C2 1_555 1_555
C2 C3 1_555 1_555
C3 H5 1_555 1_555
C4 C3 1_555 1_555
H6 C4 1_555 1_555
C5 N1 1_555 1_555
H7 C5 1_555 1_555
C6 C2 1_555 1_555
H8 C6 1_555 1_555
C7 O3 1_555 1_555
C8 C7 1_555 1_555
C9 C8 1_555 1_555
H9 C9 1_555 1_555
C10 C9 1_555 1_555
H10 C10 1_555 1_555
C11 N2 1_555 1_555
H11 C11 1_555 1_555
C12 C8 1_555 1_555
H12 C12 1_555 1_555
C13 O5 1_555 1_555
C14 C13 1_555 1_555
C15 C14 1_555 1_555
H13 C15 1_555 1_555
C16 C15 1_555 1_555
H14 C16 1_555 1_555
C17 N3 1_555 1_555
H15 C17 1_555 1_555
C18 C14 1_555 1_555
H16 C18 1_555 1_555
C19 O7 1_555 1_555
C20 C19 1_555 1_555
C21 C20 1_555 1_555
H17 C21 1_555 1_555
C22 C21 1_555 1_555
H18 C22 1_555 1_555
C23 N4 1_555 1_555
H19 C23 1_555 1_555
C24 C20 1_555 1_555
H20 C24 1_555 1_555
N5 O11 1_555 1_555
O12 N5 1_555 1_555
O13 N5 1_555 1_555
O14 H21 1_555 1_555
H22 O14 1_555 1_555
Pr1C O4 1_555 1_555
Ag1_2 N4 1_555 1_555
Ag2_2 N3 1_555 1_555
N3_2 Ag2 1_555 1_555
N4_2 Ag1 1_555 1_555
O4C Pr1 1_555 1_555
O8C Pr1 1_555 1_555
O8 Pr1C 1_555 1_555
C5 C6 1_555 1_555
C11 C12 1_555 1_555
C17 C18 1_555 1_555
C23 C24 1_555 1_555

#END
