
#######################################################################
#
#                 Cambridge Crystallographic Data Centre
#                                CCDC 
#
#######################################################################
#
# If this CIF has been generated from an entry in the Cambridge 
# Structural Database, then it will include bibliographic, chemical, 
# crystal, experimental, refinement or atomic coordinate data resulting 
# from the CCDC's data processing and validation procedures.
#
#######################################################################

data_DUXZIG01
_chemical_formula_moiety         '(C4 N4 Ni1 Zn1)n'
_symmetry_cell_setting           tetragonal
_symmetry_space_group_name_H-M   'P 42/m m c'
_symmetry_Int_Tables_number      131
_space_group_name_Hall           '-P 4c 2'
loop_
_symmetry_equiv_pos_site_id
_symmetry_equiv_pos_as_xyz
1 x,y,z
2 -y,x,1/2+z
3 -x,-y,z
4 y,-x,1/2+z
5 x,-y,-z
6 -x,y,-z
7 y,x,1/2-z
8 -y,-x,1/2-z
9 -x,-y,-z
10 y,-x,1/2-z
11 x,y,-z
12 -y,x,1/2-z
13 -x,y,z
14 x,-y,z
15 -y,-x,1/2+z
16 y,x,1/2+z
_cell_length_a                   7.4474(12)
_cell_length_b                   7.4474(12)
_cell_length_c                   13.050(4)
_cell_angle_alpha                90
_cell_angle_beta                 90
_cell_angle_gamma                90
_cell_volume                     723.802
loop_
_atom_site_label
_atom_site_type_symbol
_atom_site_fract_x
_atom_site_fract_y
_atom_site_fract_z
Zn1 Zn -0.0000 -0.0000 0.2500
Ni1 Ni 0.5000 0.0000 0.0000
N1 N 0.2112(3) 0.0000 0.16015(14)
C1 C 0.3228(3) -0.0000 0.10002(16)
Zn1A Zn 0.0000 0.0000 -0.2500
Ni1_2 Ni -0.5000 0.0000 0.0000
Ni1A Ni -0.0000 -0.5000 0.5000
N1B N -0.2112(3) 0.0000 0.16015(14)
N1D N 0.2112(3) 0.0000 -0.16015(14)
N1G N -0.0000 -0.2112(3) 0.33985(14)
N1F N -0.0000 0.2112(3) 0.33985(14)
C1B C -0.3228(3) -0.0000 0.10002(16)
C1D C 0.3228(3) 0.0000 -0.10002(16)
C1G C -0.0000 -0.3228(3) 0.39998(16)
C1B_2 C 0.6772(3) -0.0000 0.10002(16)
C1E C 0.6772(3) 0.0000 -0.10002(16)
loop_
_geom_bond_atom_site_label_1
_geom_bond_atom_site_label_2
_geom_bond_site_symmetry_1
_geom_bond_site_symmetry_2
Zn1 N1 1_555 1_555
Ni1 C1 1_555 1_555
N1 C1 1_555 1_555
Zn1A N1D 1_555 1_555
Ni1_2 C1B 1_555 1_555
Ni1A C1G 1_555 1_555
N1B Zn1 1_555 1_555
N1D C1D 1_555 1_555
N1G Zn1 1_555 1_555
N1F Zn1 1_555 1_555
C1B N1B 1_555 1_555
C1D Ni1 1_555 1_555
C1G N1G 1_555 1_555
C1B_2 Ni1 1_555 1_555
C1E Ni1 1_555 1_555

#END
