
#######################################################################
#
#                 Cambridge Crystallographic Data Centre
#                                CCDC 
#
#######################################################################
#
# If this CIF has been generated from an entry in the Cambridge 
# Structural Database, then it will include bibliographic, chemical, 
# crystal, experimental, refinement or atomic coordinate data resulting 
# from the CCDC's data processing and validation procedures.
#
#######################################################################

data_EBELUU
_chemical_formula_moiety         '(C15 H17 N7 Ni1 O5 Zn1)n'
_symmetry_cell_setting           monoclinic
_symmetry_space_group_name_H-M   'P 21/m'
_symmetry_Int_Tables_number      11
_space_group_name_Hall           '-P 2yb'
loop_
_symmetry_equiv_pos_site_id
_symmetry_equiv_pos_as_xyz
1 x,y,z
2 -x,1/2+y,-z
3 -x,-y,-z
4 x,1/2-y,z
_cell_length_a                   7.3620(18)
_cell_length_b                   12.946(2)
_cell_length_c                   13.6280(13)
_cell_angle_alpha                90
_cell_angle_beta                 91.312(3)
_cell_angle_gamma                90
_cell_volume                     1298.52
loop_
_atom_site_label
_atom_site_type_symbol
_atom_site_fract_x
_atom_site_fract_y
_atom_site_fract_z
C1 C 0.1723(6) 0.9218(4) -0.0464(4)
C2 C -0.1995(6) 0.9083(4) -0.0378(4)
C3 C -0.5306(6) 0.6582(4) 0.1233(3)
H1 H -0.5211 0.5956 0.0903
C4 C -0.5517(6) 0.6586(4) 0.2253(3)
H2 H -0.5636 0.5965 0.2588
C5 C -0.5547(9) 0.7500 0.2761(5)
C6 C -0.5758(11) 0.7500 0.3850(6)
C7 C -0.4593(10) 0.7500 0.5513(5)
C8 C -0.4690(6) 0.6575(4) 0.5998(4)
H3 H -0.4587 0.5952 0.5663
C9 C -0.4948(6) 0.6593(4) 0.7010(4)
H4 H -0.5047 0.5973 0.7349
N1 N -0.3055(5) 0.8602(3) -0.0765(3)
N2 N 0.2897(5) 0.8664(3) -0.0777(3)
N3 N -0.5238(8) 0.7500 0.0710(5)
N4 N -0.4397(8) 0.7500 0.4410(4)
N5 N -0.5057(8) 0.7500 0.7511(4)
Ni1 Ni 0.0000 1.0000 0.0000
O1 O -0.7312(7) 0.7500 0.4226(4)
O2 O -0.1001(4) 1.0919(3) -0.1144(3)
H5 H -0.0244 1.0864 -0.1612
H6 H -0.0931 1.1540 -0.0944
Zn1 Zn -0.50024(10) 0.7500 -0.08624(7)
C1B C -0.1723(6) 1.0782(4) 0.0464(4)
C1C C -0.8277(6) 0.5782(4) -0.0464(4)
C2B C 0.1995(6) 1.0917(4) 0.0378(4)
C3C C -0.5306(6) 0.8418(4) 0.1233(3)
H1C H -0.5211 0.9044 0.0903
C4C C -0.5517(6) 0.8414(4) 0.2253(3)
H2C H -0.5636 0.9035 0.2588
C8C C -0.4690(6) 0.8425(4) 0.5998(4)
H3C H -0.4587 0.9048 0.5663
C9C C -0.4948(6) 0.8407(4) 0.7010(4)
H4C H -0.5047 0.9027 0.7349
N1C N -0.3055(5) 0.6398(3) -0.0765(3)
N2B N -0.2897(5) 1.1336(3) 0.0777(3)
N2C N -0.7103(5) 0.6336(3) -0.0777(3)
N2_2 N -0.7103(5) 0.8664(3) -0.0777(3)
N5_2 N -0.5057(8) 0.7500 -0.2489(4)
Ni1A Ni -1.0000 0.5000 0.0000
O2B O 0.1001(4) 0.9081(3) 0.1144(3)
H5B H 0.0244 0.9136 0.1612
H6B H 0.0931 0.8460 0.0944
Zn1_2 Zn 0.49976(10) 0.7500 -0.08624(7)
Zn1_3 Zn -0.50024(10) 0.7500 0.91376(7)
Zn1A Zn -0.49976(10) 1.2500 0.08624(7)
O4 O 0.0379(10) 0.7500 0.7238(6)
O5 O 0.916(2) 0.4959(14) 0.6618(12)
H11 H 0.9978 0.5410 0.6515
H12 H 0.9105 0.4548 0.6132
loop_
_geom_bond_atom_site_label_1
_geom_bond_atom_site_label_2
_geom_bond_site_symmetry_1
_geom_bond_site_symmetry_2
C1 N2 1_555 1_555
C2 N1 1_555 1_555
C3 H1 1_555 1_555
C4 C3 1_555 1_555
H2 C4 1_555 1_555
C5 C4 1_555 1_555
C6 C5 1_555 1_555
C7 C8 1_555 1_555
C8 H3 1_555 1_555
C9 C8 1_555 1_555
H4 C9 1_555 1_555
N1 Zn1 1_555 1_555
N2 Zn1_2 1_555 1_555
N3 C3 1_555 1_555
N4 C6 1_555 1_555
N5 C9 1_555 1_555
Ni1 C1 1_555 1_555
O1 C6 1_555 1_555
O2 Ni1 1_555 1_555
H5 O2 1_555 1_555
H6 O2 1_555 1_555
O5 H11 1_555 1_555
H12 O5 1_555 1_555
Zn1 N3 1_555 1_555
C1B Ni1 1_555 1_555
C1C N2C 1_555 1_555
C2B Ni1 1_555 1_555
C3C N3 1_555 1_555
H1C C3C 1_555 1_555
C4C C5 1_555 1_555
H2C C4C 1_555 1_555
C8C C7 1_555 1_555
H3C C8C 1_555 1_555
C9C N5 1_555 1_555
H4C C9C 1_555 1_555
N1C Zn1 1_555 1_555
N2B C1B 1_555 1_555
N2C Zn1 1_555 1_555
N2_2 Zn1 1_555 1_555
N5_2 Zn1 1_555 1_555
Ni1A C1C 1_555 1_555
O2B Ni1 1_555 1_555
H5B O2B 1_555 1_555
H6B O2B 1_555 1_555
Zn1_3 N5 1_555 1_555
Zn1A N2B 1_555 1_555
C2 Ni1 1_555 1_555
C7 N4 1_555 1_555
C3C C4C 1_555 1_555
C8C C9C 1_555 1_555

#END
