
#######################################################################
#
#                 Cambridge Crystallographic Data Centre
#                                CCDC 
#
#######################################################################
#
# If this CIF has been generated from an entry in the Cambridge 
# Structural Database, then it will include bibliographic, chemical, 
# crystal, experimental, refinement or atomic coordinate data resulting 
# from the CCDC's data processing and validation procedures.
#
#######################################################################

data_EBEMEF
_chemical_formula_moiety         '(C6 H3 N5 Ni1 Zn1)n'
_symmetry_cell_setting           monoclinic
_symmetry_space_group_name_H-M   'C 2/c'
_symmetry_Int_Tables_number      15
_space_group_name_Hall           '-C 2yc'
loop_
_symmetry_equiv_pos_site_id
_symmetry_equiv_pos_as_xyz
1 x,y,z
2 -x,y,1/2-z
3 1/2+x,1/2+y,z
4 1/2-x,1/2+y,1/2-z
5 -x,-y,-z
6 x,-y,1/2+z
7 1/2-x,1/2-y,-z
8 1/2+x,1/2-y,1/2+z
_cell_length_a                   12.6429(19)
_cell_length_b                   7.9421(12)
_cell_length_c                   12.4142(19)
_cell_angle_alpha                90
_cell_angle_beta                 99.785(2)
_cell_angle_gamma                90
_cell_volume                     1228.39
loop_
_atom_site_label
_atom_site_type_symbol
_atom_site_fract_x
_atom_site_fract_y
_atom_site_fract_z
_atom_site_U_iso_or_equiv
_atom_site_thermal_displace_type
Zn1 Zn 0.0000 0.12315(5) 0.2500 0.0143 Uani
Ni1 Ni -0.2500 -0.2500 0.0000 0.0157 Uani
N1 N -0.09686(16) -0.0296(3) 0.15003(17) 0.0214 Uani
N2 N 0.09895(17) 0.2221(3) 0.16178(17) 0.0186 Uani
C1 C -0.15540(19) -0.1150(3) 0.09398(19) 0.0177 Uani
C2 C 0.1579(2) 0.2344(3) 0.1021(2) 0.0166 Uani
Ni1B Ni 0.2500 0.2500 0.0000 0.0157 Uani
Ni1C Ni -0.2500 0.2500 0.5000 0.0157 Uani
Ni1A Ni 0.2500 -0.2500 0.5000 0.0157 Uani
N1A N 0.09686(16) -0.0296(3) 0.34997(17) 0.0214 Uani
N2A N -0.09895(17) 0.2221(3) 0.33822(17) 0.0186 Uani
C1A C 0.15540(19) -0.1150(3) 0.40602(19) 0.0177 Uani
C1F C -0.34460(19) -0.3850(3) -0.09398(19) 0.0177 Uani
C2A C -0.1579(2) 0.2344(3) 0.3979(2) 0.0166 Uani
C2B C -0.3421(2) -0.2656(3) 0.1021(2) 0.0166 Uani
C2D C -0.1579(2) -0.2344(3) -0.1021(2) 0.0166 Uani
N3 N -0.3659(2) 0.0838(4) -0.0802(3) 0.0561 Uani
C3 C -0.3746(3) 0.1916(5) 0.1151(3) 0.0621 Uani
H1 H -0.4468 0.2237 0.1199 0.0930 Uiso
H2 H -0.3279 0.2868 0.1320 0.0930 Uiso
H3 H -0.3520 0.1027 0.1663 0.0930 Uiso
C4 C -0.3699(3) 0.1332(4) 0.0047(3) 0.0434 Uani
loop_
_atom_site_aniso_label
_atom_site_aniso_U_11
_atom_site_aniso_U_22
_atom_site_aniso_U_33
_atom_site_aniso_U_23
_atom_site_aniso_U_13
_atom_site_aniso_U_12
Zn1 0.0115(2) 0.0194(2) 0.0131(2) 0.000 0.00513(15) 0.000
Ni1 0.0127(2) 0.0225(3) 0.0132(2) -0.00239(17) 0.00584(18) -0.00482(18)
N1 0.0185(11) 0.0253(13) 0.0216(11) -0.0030(9) 0.0070(9) -0.0022(10)
N2 0.0171(11) 0.0215(11) 0.0182(11) 0.0005(9) 0.0060(9) -0.0013(9)
C1 0.0148(12) 0.0234(14) 0.0165(12) 0.0018(11) 0.0076(10) 0.0008(11)
C2 0.0142 0.0179 0.0168 -0.0004 0.0003 -0.0025
Ni1B 0.0127 0.0225 0.0132 -0.00239 0.00584 -0.00482
Ni1C 0.0127 0.0225 0.0132 0.00239 0.00584 0.00482
Ni1A 0.0127 0.0225 0.0132 0.00239 0.00584 0.00482
N1A 0.0185 0.0253 0.0216 0.003 0.007 0.0022
N2A 0.0171 0.0215 0.0182 -0.0005 0.006 0.0013
C1A 0.0148 0.0234 0.0165 -0.0018 0.0076 -0.0008
C1F 0.0148 0.0234 0.0165 0.0018 0.0076 0.0008
C2A 0.0142 0.0179 0.0168 0.0004 0.0003 0.0025
C2B 0.0142 0.0179 0.0168 -0.0004 0.0003 -0.0025
C2D 0.0142 0.0179 0.0168 -0.0004 0.0003 -0.0025
N3 0.0469(19) 0.058(2) 0.060(2) 0.0112(17) -0.0004(16) 0.0030(16)
C3 0.049(2) 0.054(2) 0.086(3) -0.019(2) 0.019(2) 0.010(2)
C4 0.0249(17) 0.0342(19) 0.069(3) 0.0075(18) 0.0016(17) 0.0091(14)
loop_
_geom_bond_atom_site_label_1
_geom_bond_atom_site_label_2
_geom_bond_site_symmetry_1
_geom_bond_site_symmetry_2
Zn1 N1 1_555 1_555
Ni1 C1 1_555 1_555
N1 C1 1_555 1_555
N2 Zn1 1_555 1_555
N3 C4 1_555 1_555
C2 N2 1_555 1_555
C3 H1 1_555 1_555
H2 C3 1_555 1_555
H3 C3 1_555 1_555
C4 C3 1_555 1_555
Ni1B C2 1_555 1_555
Ni1C C2A 1_555 1_555
Ni1A C1A 1_555 1_555
N1A Zn1 1_555 1_555
N2A Zn1 1_555 1_555
C1A N1A 1_555 1_555
C1F Ni1 1_555 1_555
C2A N2A 1_555 1_555
C2B Ni1 1_555 1_555
C2D Ni1 1_555 1_555

#END
