
#######################################################################
#
#                 Cambridge Crystallographic Data Centre
#                                CCDC 
#
#######################################################################
#
# If this CIF has been generated from an entry in the Cambridge 
# Structural Database, then it will include bibliographic, chemical, 
# crystal, experimental, refinement or atomic coordinate data resulting 
# from the CCDC's data processing and validation procedures.
#
#######################################################################

data_IFAGON
_chemical_formula_moiety         '(C32 H42 N4 O10 Zn2)n'
_symmetry_cell_setting           tetragonal
_symmetry_space_group_name_H-M   'I 41/a c d'
_symmetry_Int_Tables_number      142
_space_group_name_Hall           '-I 4bd 2c'
loop_
_symmetry_equiv_pos_site_id
_symmetry_equiv_pos_as_xyz
1 x,y,z
2 1/4-y,3/4+x,1/4+z
3 -x,1/2-y,z
4 1/4+y,1/4-x,3/4+z
5 x,-y,1/2-z
6 1/2-x,y,-z
7 3/4+y,1/4+x,1/4-z
8 1/4-y,1/4-x,1/4-z
9 1/2+x,1/2+y,1/2+z
10 3/4-y,1/4+x,3/4+z
11 1/2-x,-y,1/2+z
12 3/4+y,3/4-x,1/4+z
13 1/2+x,1/2-y,-z
14 -x,1/2+y,1/2-z
15 1/4+y,3/4+x,3/4-z
16 3/4-y,3/4-x,3/4-z
17 -x,-y,-z
18 3/4+y,1/4-x,3/4-z
19 x,1/2+y,-z
20 3/4-y,3/4+x,1/4-z
21 -x,y,1/2+z
22 1/2+x,-y,z
23 1/4-y,3/4-x,3/4+z
24 3/4+y,3/4+x,3/4+z
25 1/2-x,1/2-y,1/2-z
26 1/4+y,3/4-x,1/4-z
27 1/2+x,y,1/2-z
28 1/4-y,1/4+x,3/4-z
29 1/2-x,1/2+y,z
30 x,1/2-y,1/2+z
31 3/4-y,1/4-x,1/4+z
32 1/4+y,1/4+x,1/4+z
_cell_length_a                   21.624(9)
_cell_length_b                   21.624(9)
_cell_length_c                   38.385(9)
_cell_angle_alpha                90
_cell_angle_beta                 90
_cell_angle_gamma                90
_cell_volume                     17948.7
loop_
_atom_site_label
_atom_site_type_symbol
_atom_site_fract_x
_atom_site_fract_y
_atom_site_fract_z
_atom_site_U_iso_or_equiv
_atom_site_thermal_displace_type
Zn1 Zn 0.228824(12) 0.027058(12) 0.086574(7) 0.0183 Uani
O1 O 0.24484(9) -0.06566(8) 0.09236(5) 0.0264 Uani
O2 O 0.26035(8) -0.38674(8) 0.15704(4) 0.0242 Uani
O3 O 0.20994(8) -0.06900(8) 0.14758(5) 0.0256 Uani
O4 O 0.28645(8) -0.38360(8) 0.10016(5) 0.0237 Uani
C1 C 0.19026(12) -0.00295(13) 0.01537(7) 0.0291 Uani
H1 H 0.1502 0.0161 0.0217 0.0350 Uiso
H2 H 0.1896 -0.0466 0.0232 0.0350 Uiso
C2 C 0.24379(14) 0.09488(11) 0.01962(6) 0.0290 Uani
H3 H 0.2768 0.1183 0.0317 0.0350 Uiso
H4 H 0.2039 0.1157 0.0243 0.0350 Uiso
C3 C 0.30135(12) -0.00062(13) 0.02419(7) 0.0286 Uani
H5 H 0.3014 -0.0432 0.0337 0.0340 Uiso
H6 H 0.3363 0.0222 0.0348 0.0340 Uiso
N1 N 0.24169(9) 0.03072(9) 0.03342(6) 0.0206 Uani
C4 C 0.23049(11) -0.09368(12) 0.12017(7) 0.0231 Uani
C5 C 0.23978(12) -0.16276(11) 0.12113(6) 0.0241 Uani
C6 C 0.25779(13) -0.18840(12) 0.15282(7) 0.0278 Uani
H7 H 0.2625 -0.1617 0.1723 0.0330 Uiso
C7 C 0.23285(13) -0.20096(12) 0.09137(7) 0.0279 Uani
C8 C 0.21463(17) -0.17718(13) 0.05578(7) 0.0407 Uani
H8 H 0.2502 -0.1569 0.0449 0.0610 Uiso
H9 H 0.1807 -0.1474 0.0582 0.0610 Uiso
H10 H 0.2011 -0.2119 0.0412 0.0610 Uiso
C9 C 0.27054(10) -0.35871(12) 0.12872(6) 0.0226 Uani
C10 C 0.26162(12) -0.28952(12) 0.12791(6) 0.0240 Uani
C11 C 0.24374(13) -0.26359(12) 0.09605(7) 0.0276 Uani
H11 H 0.2388 -0.2903 0.0766 0.0330 Uiso
C12 C 0.26930(12) -0.25136(12) 0.15735(7) 0.0274 Uani
C13 C 0.28952(17) -0.27422(13) 0.19291(7) 0.0407 Uani
H12 H 0.2544 -0.2936 0.2047 0.0610 Uiso
H13 H 0.3228 -0.3045 0.1902 0.0610 Uiso
H14 H 0.3044 -0.2392 0.2068 0.0610 Uiso
C1E C 0.30974(12) -0.00295(13) -0.01537(7) 0.0291 Uani
H1E H 0.3498 0.0161 -0.0217 0.0350 Uiso
H2E H 0.3104 -0.0466 -0.0232 0.0350 Uiso
C2E C 0.25621(14) 0.09488(11) -0.01962(6) 0.0290 Uani
H3E H 0.2232 0.1183 -0.0317 0.0350 Uiso
H4E H 0.2961 0.1157 -0.0243 0.0350 Uiso
C3E C 0.19865(12) -0.00062(13) -0.02419(7) 0.0286 Uani
H5E H 0.1986 -0.0432 -0.0337 0.0340 Uiso
H6E H 0.1637 0.0222 -0.0348 0.0340 Uiso
N1E N 0.25831(9) 0.03072(9) -0.03342(6) 0.0206 Uani
Zn1E Zn 0.271176(12) 0.027058(12) -0.086574(7) 0.0183 Uani
O1E O 0.25516(9) -0.06566(8) -0.09236(5) 0.0264 Uani
O2E O 0.23965(8) -0.38674(8) -0.15704(4) 0.0242 Uani
O3E O 0.29006(8) -0.06900(8) -0.14758(5) 0.0256 Uani
O4E O 0.21355(8) -0.38360(8) -0.10016(5) 0.0237 Uani
C4E C 0.26951(11) -0.09368(12) -0.12017(7) 0.0231 Uani
C5E C 0.26022(12) -0.16276(11) -0.12113(6) 0.0241 Uani
C6E C 0.24221(13) -0.18840(12) -0.15282(7) 0.0278 Uani
H7E H 0.2375 -0.1617 -0.1723 0.0330 Uiso
C7E C 0.26715(13) -0.20096(12) -0.09137(7) 0.0279 Uani
C8E C 0.28537(17) -0.17718(13) -0.05578(7) 0.0407 Uani
H8E H 0.2498 -0.1569 -0.0449 0.0610 Uiso
H9E H 0.3193 -0.1474 -0.0582 0.0610 Uiso
H10E H 0.2989 -0.2119 -0.0412 0.0610 Uiso
C9E C 0.22946(10) -0.35871(12) -0.12872(6) 0.0226 Uani
C10E C 0.23838(12) -0.28952(12) -0.12791(6) 0.0240 Uani
C11E C 0.25626(13) -0.26359(12) -0.09605(7) 0.0276 Uani
H11E H 0.2612 -0.2903 -0.0766 0.0330 Uiso
C12E C 0.23070(12) -0.25136(12) -0.15735(7) 0.0274 Uani
C13E C 0.21048(17) -0.27422(13) -0.19291(7) 0.0407 Uani
H12E H 0.2456 -0.2936 -0.2047 0.0610 Uiso
H13E H 0.1772 -0.3045 -0.1902 0.0610 Uiso
H14E H 0.1956 -0.2392 -0.2068 0.0610 Uiso
Zn1C Zn 0.277058(12) 0.021176(12) -0.163426(7) 0.0183 Uani
Zn1G Zn 0.222942(12) 0.021176(12) 0.163426(7) 0.0183 Uani
Zn1R Zn 0.228824(12) -0.472942(12) -0.086574(7) 0.0183 Uani
Zn1V Zn 0.222942(12) -0.478824(12) -0.163426(7) 0.0183 Uani
Zn1Y Zn 0.277058(12) -0.478824(12) 0.163426(7) 0.0183 Uani
Zn1BA Zn 0.271176(12) -0.472942(12) 0.086574(7) 0.0183 Uani
O2S O 0.13674(8) 0.01035(8) 0.09296(4) 0.0242 Uani
O2W O 0.36326(8) 0.01035(8) -0.09296(4) 0.0242 Uani
O3C O 0.18100(8) 0.04006(8) -0.10242(5) 0.0256 Uani
O3G O 0.31900(8) 0.04006(8) 0.10242(5) 0.0256 Uani
O4R O 0.28645(8) 0.11640(8) -0.10016(5) 0.0237 Uani
O4BA O 0.21355(8) 0.11640(8) 0.10016(5) 0.0237 Uani
C14 C 0.4037(2) -0.2820(2) 0.05884(17) 0.0913 Uani
H15 H 0.3977 -0.3056 0.0373 0.1370 Uiso
H16 H 0.3728 -0.2948 0.0761 0.1370 Uiso
H17 H 0.4452 -0.2899 0.0680 0.1370 Uiso
N2 N 0.39676(16) -0.21699(16) 0.05170(9) 0.0604 Uani
C15 C 0.3926(2) -0.1931(3) 0.02038(14) 0.0837 Uani
H18 H 0.3916 -0.2207 0.0011 0.1000 Uiso
C16 C 0.3960(3) -0.1760(3) 0.08187(14) 0.0943 Uani
H19 H 0.4384 -0.1691 0.0899 0.1420 Uiso
H20 H 0.3717 -0.1950 0.1006 0.1420 Uiso
H21 H 0.3773 -0.1364 0.0753 0.1420 Uiso
O5 O 0.38994(17) -0.13455(17) 0.01412(11) 0.0887 Uani
C17 C 0.4543(2) 0.1265(2) 0.02780(11) 0.0727 Uani
H22 H 0.4845 0.1125 0.0117 0.0870 Uiso
N3 N 0.47367(16) 0.14236(15) 0.05955(8) 0.0560 Uani
C18 C 0.5387(2) 0.1388(2) 0.06901(13) 0.0773 Uani
H23 H 0.5626 0.1234 0.0491 0.1160 Uiso
H24 H 0.5437 0.1105 0.0888 0.1160 Uiso
H25 H 0.5537 0.1800 0.0755 0.1160 Uiso
C19 C 0.4293(3) 0.1607(2) 0.08540(14) 0.0933 Uani
H26 H 0.3876 0.1508 0.0772 0.1400 Uiso
H27 H 0.4326 0.2053 0.0895 0.1400 Uiso
H28 H 0.4375 0.1385 0.1072 0.1400 Uiso
O6 O 0.40059(16) 0.1285(2) 0.01780(10) 0.1100 Uani
loop_
_atom_site_aniso_label
_atom_site_aniso_U_11
_atom_site_aniso_U_22
_atom_site_aniso_U_33
_atom_site_aniso_U_23
_atom_site_aniso_U_13
_atom_site_aniso_U_12
Zn1 0.02068(17) 0.02053(17) 0.0138(2) 0.00023(9) 0.00046(9) 0.00013(9)
O1 0.0329(9) 0.0229(8) 0.0235(9) 0.0017(7) 0.0047(7) 0.0014(7)
O2 0.031 0.0232 0.0183 0.0017 0.0019 0.0015
O3 0.0316 0.0232 0.022 0.0001 0.0019 0.0013
O4 0.0287 0.022 0.0203 -0.0005 0.0024 0
C1 0.0285(12) 0.0407(14) 0.0180(12) -0.0019(10) 0.0024(10) -0.0110(11)
C2 0.0457(15) 0.0237(12) 0.0177(13) -0.0005(9) 0.0037(11) 0.0004(10)
C3 0.0263(12) 0.0393(14) 0.0203(13) 0.0027(11) 0.0015(10) 0.0098(11)
N1 0.0219(9) 0.0230(10) 0.0170(10) -0.0006(7) 0.0019(8) 0.0007(7)
C4 0.0254(11) 0.0225(11) 0.0213(13) 0.0020(9) -0.0021(9) 0.0003(9)
C5 0.0306(12) 0.0210(11) 0.0207(13) -0.0012(9) 0.0007(9) 0.0003(9)
C6 0.0383(14) 0.0250(12) 0.0200(13) -0.0024(10) -0.0014(10) 0.0006(10)
C7 0.0387(14) 0.0241(12) 0.0208(13) -0.0001(10) -0.0040(10) 0.0018(10)
C8 0.073(2) 0.0269(13) 0.0223(15) 0.0014(11) -0.0128(14) 0.0024(13)
C9 0.0228 0.0238 0.0211 -0.001 -0.0012 -0.0005
C10 0.0296 0.0222 0.0202 -0.0014 0.001 0.0011
C11 0.0377 0.0242 0.021 -0.002 -0.0034 0.0009
C12 0.0374 0.0247 0.02 0 -0.0028 0.001
C13 0.074 0.0272 0.0208 -0.0002 -0.0121 0.0019
C1E 0.0285 0.0407 0.018 0.0019 0.0024 0.011
C2E 0.0457 0.0237 0.0177 0.0005 0.0037 -0.0004
C3E 0.0263 0.0393 0.0203 -0.0027 0.0015 -0.0098
N1E 0.0219 0.023 0.017 0.0006 0.0019 -0.0007
Zn1E 0.02068 0.02053 0.0138 -0.00023 0.00046 -0.00013
O1E 0.0329 0.0229 0.0235 -0.0017 0.0047 -0.0014
O2E 0.031 0.0232 0.0183 -0.0017 0.0019 -0.0015
O3E 0.0316 0.0232 0.022 -0.0001 0.0019 -0.0013
O4E 0.0287 0.022 0.0203 0.0005 0.0024 0
C4E 0.0254 0.0225 0.0213 -0.002 -0.0021 -0.0003
C5E 0.0306 0.021 0.0207 0.0012 0.0007 -0.0003
C6E 0.0383 0.025 0.02 0.0024 -0.0014 -0.0006
C7E 0.0387 0.0241 0.0208 0.0001 -0.004 -0.0018
C8E 0.073 0.0269 0.0223 -0.0014 -0.0128 -0.0024
C9E 0.0228 0.0238 0.0211 0.001 -0.0012 0.0005
C10E 0.0296 0.0222 0.0202 0.0014 0.001 -0.0011
C11E 0.0377 0.0242 0.021 0.002 -0.0034 -0.0009
C12E 0.0374 0.0247 0.02 0 -0.0028 -0.001
C13E 0.074 0.0272 0.0208 0.0002 -0.0121 -0.0019
Zn1C 0.02053 0.02068 0.0138 -0.00046 0.00023 -0.00013
Zn1G 0.02053 0.02068 0.0138 0.00046 0.00023 0.00013
Zn1R 0.02068 0.02053 0.0138 -0.00023 -0.00046 0.00013
Zn1V 0.02053 0.02068 0.0138 -0.00046 -0.00023 0.00013
Zn1Y 0.02053 0.02068 0.0138 0.00046 -0.00023 -0.00013
Zn1BA 0.02068 0.02053 0.0138 0.00023 -0.00046 -0.00013
O2S 0.0232 0.031 0.0183 -0.0019 0.0017 -0.0015
O2W 0.0232 0.031 0.0183 0.0019 0.0017 0.0015
O3C 0.0232 0.0316 0.022 -0.0019 0.0001 -0.0013
O3G 0.0232 0.0316 0.022 0.0019 0.0001 0.0013
O4R 0.0287 0.022 0.0203 0.0005 -0.0024 0
O4BA 0.0287 0.022 0.0203 -0.0005 -0.0024 0
C14 0.068(3) 0.085(4) 0.121(5) 0.009(3) 0.007(3) -0.006(3)
N2 0.0562(18) 0.065(2) 0.060(2) -0.0168(17) -0.0033(16) -0.0062(15)
C15 0.076(3) 0.106(4) 0.069(3) -0.008(3) -0.009(3) -0.003(3)
C16 0.085(4) 0.111(4) 0.087(4) -0.036(3) 0.011(3) -0.021(3)
O5 0.091(2) 0.082(2) 0.093(3) 0.009(2) -0.006(2) 0.009(2)
C17 0.068(3) 0.104(4) 0.046(2) 0.004(2) -0.0002(19) -0.029(2)
N3 0.072(2) 0.0573(18) 0.0387(17) 0.0009(13) -0.0020(14) -0.0151(15)
C18 0.090(3) 0.067(3) 0.075(3) 0.001(2) -0.027(3) -0.018(2)
C19 0.127(5) 0.067(3) 0.086(4) -0.013(3) 0.041(3) -0.020(3)
O6 0.072(2) 0.187(4) 0.071(2) 0.035(3) -0.0199(18) -0.056(2)
loop_
_geom_bond_atom_site_label_1
_geom_bond_atom_site_label_2
_geom_bond_site_symmetry_1
_geom_bond_site_symmetry_2
Zn1 O1 1_555 1_555
O1 C4 1_555 1_555
O2 C9 1_555 1_555
O3 C4 1_555 1_555
O4 C9 1_555 1_555
C1 H1 1_555 1_555
H2 C1 1_555 1_555
C2 H3 1_555 1_555
H4 C2 1_555 1_555
C3 H5 1_555 1_555
H6 C3 1_555 1_555
N1 Zn1 1_555 1_555
C4 C5 1_555 1_555
C5 C6 1_555 1_555
C6 H7 1_555 1_555
C7 C5 1_555 1_555
C8 C7 1_555 1_555
H8 C8 1_555 1_555
H9 C8 1_555 1_555
H10 C8 1_555 1_555
C9 C10 1_555 1_555
C10 C11 1_555 1_555
C11 C7 1_555 1_555
H11 C11 1_555 1_555
C12 C6 1_555 1_555
C13 C12 1_555 1_555
H12 C13 1_555 1_555
H13 C13 1_555 1_555
H14 C13 1_555 1_555
C14 H15 1_555 1_555
H16 C14 1_555 1_555
H17 C14 1_555 1_555
N2 C14 1_555 1_555
C15 N2 1_555 1_555
H18 C15 1_555 1_555
C16 N2 1_555 1_555
H19 C16 1_555 1_555
H20 C16 1_555 1_555
H21 C16 1_555 1_555
O5 C15 1_555 1_555
C17 H22 1_555 1_555
N3 C17 1_555 1_555
C18 N3 1_555 1_555
H23 C18 1_555 1_555
H24 C18 1_555 1_555
H25 C18 1_555 1_555
C19 N3 1_555 1_555
H26 C19 1_555 1_555
H27 C19 1_555 1_555
H28 C19 1_555 1_555
O6 C17 1_555 1_555
C1E C3 1_555 1_555
H1E C1E 1_555 1_555
H2E C1E 1_555 1_555
C2E C2 1_555 1_555
H3E C2E 1_555 1_555
H4E C2E 1_555 1_555
C3E C1 1_555 1_555
H5E C3E 1_555 1_555
H6E C3E 1_555 1_555
N1E C1E 1_555 1_555
Zn1E N1E 1_555 1_555
O1E Zn1E 1_555 1_555
O2E C9E 1_555 1_555
O3E C4E 1_555 1_555
O4E C9E 1_555 1_555
C4E O1E 1_555 1_555
C5E C4E 1_555 1_555
C6E C5E 1_555 1_555
H7E C6E 1_555 1_555
C7E C5E 1_555 1_555
C8E C7E 1_555 1_555
H8E C8E 1_555 1_555
H9E C8E 1_555 1_555
H10E C8E 1_555 1_555
C9E C10E 1_555 1_555
C10E C11E 1_555 1_555
C11E C7E 1_555 1_555
H11E C11E 1_555 1_555
C12E C6E 1_555 1_555
C13E C12E 1_555 1_555
H12E C13E 1_555 1_555
H13E C13E 1_555 1_555
H14E C13E 1_555 1_555
Zn1C O3E 1_555 1_555
Zn1G O3 1_555 1_555
Zn1R O4E 1_555 1_555
Zn1V O2E 1_555 1_555
Zn1Y O2 1_555 1_555
Zn1BA O4 1_555 1_555
O2S Zn1 1_555 1_555
O2W Zn1E 1_555 1_555
O3C Zn1E 1_555 1_555
O3G Zn1 1_555 1_555
O4R Zn1E 1_555 1_555
O4BA Zn1 1_555 1_555
C1 N1 1_555 1_555
C2 N1 1_555 1_555
C3 N1 1_555 1_555
C10 C12 1_555 1_555
C2E N1E 1_555 1_555
C3E N1E 1_555 1_555
C10E C12E 1_555 1_555

#END
