
#######################################################################
#
#                 Cambridge Crystallographic Data Centre
#                                CCDC 
#
#######################################################################
#
# If this CIF has been generated from an entry in the Cambridge 
# Structural Database, then it will include bibliographic, chemical, 
# crystal, experimental, refinement or atomic coordinate data resulting 
# from the CCDC's data processing and validation procedures.
#
#######################################################################

data_TURBOY
_chemical_formula_moiety         'C80 H42 Cl2 La12 N8 Ni5 O74'
_symmetry_cell_setting           cubic
_symmetry_space_group_name_H-M   'P m -3 m'
_symmetry_Int_Tables_number      221
_space_group_name_Hall           '-P 4 2 3'
loop_
_symmetry_equiv_pos_site_id
_symmetry_equiv_pos_as_xyz
1 x,y,z
2 -x,-y,z
3 -x,y,-z
4 x,-y,-z
5 z,x,y
6 z,-x,-y
7 -z,-x,y
8 -z,x,-y
9 y,z,x
10 -y,z,-x
11 y,-z,-x
12 -y,-z,x
13 y,x,-z
14 -y,-x,-z
15 y,-x,z
16 -y,x,z
17 x,z,-y
18 -x,z,y
19 -x,-z,-y
20 x,-z,y
21 z,y,-x
22 z,-y,x
23 -z,y,x
24 -z,-y,-x
25 -x,-y,-z
26 x,y,-z
27 x,-y,z
28 -x,y,z
29 -z,-x,-y
30 -z,x,y
31 z,x,-y
32 z,-x,y
33 -y,-z,-x
34 y,-z,x
35 -y,z,x
36 y,z,-x
37 -y,-x,z
38 y,x,z
39 -y,x,-z
40 y,-x,-z
41 -x,-z,y
42 x,-z,-y
43 x,z,y
44 -x,z,-y
45 -z,-y,x
46 -z,y,-x
47 z,-y,-x
48 z,y,x
_cell_length_a                   21.0408(13)
_cell_length_b                   21.0408(13)
_cell_length_c                   21.0408(13)
_cell_angle_alpha                90
_cell_angle_beta                 90
_cell_angle_gamma                90
_cell_volume                     9315.08
loop_
_atom_site_label
_atom_site_type_symbol
_atom_site_fract_x
_atom_site_fract_y
_atom_site_fract_z
Cl1 Cl 0.21739(8) 0.21739(8) 0.21739(8)
O3 O 0.1789(4) 0.1789(4) 0.2548(5)
O4 O 0.2543(8) 0.2543(8) 0.2543(8)
O3D O 0.2548(5) 0.1789(4) 0.1789(4)
O3H O 0.1789(4) 0.2548(5) 0.1789(4)
Cl2 Cl 0.3885(2) 0.0000 0.0000
O5 O 0.4092(10) 0.0398(5) 0.0398(5)
O5C O 0.4092(10) -0.0398(5) -0.0398(5)
O5P O 0.4092(10) 0.0398(5) -0.0398(5)
O5S O 0.4092(10) -0.0398(5) 0.0398(5)
La1 La 0.5000 0.79356(2) 0.20644(2)
Ni2 Ni 0.32548(5) 0.67452(5) 0.0000
N1 N 0.3222(3) 0.7704(3) 0.0000
C1 C 0.2529(5) 0.7854(5) -0.0245(4)
C2 C 0.2371(7) 0.8569(5) -0.0221(5)
C3 C 0.1660(6) 0.8676(7) -0.0299(6)
O6 O 0.5000(3) 0.8842 0.1158(3)
O7 O 0.5000(5) 0.7769 0.3292(4)
O8 O 0.3933(4) 0.7507(3) 0.2493(3)
C4 C 0.3518(6) 0.8019(5) 0.0444(5)
C5 C 0.3742(4) 0.7573(6) 0.0933(5)
H1 H 0.3227 0.8335 0.0637
H2 H 0.3884 0.8250 0.0259
O9 O 0.4061(3) 0.7803(4) 0.1354(3)
O10 O 0.3572(4) 0.7000(4) 0.0877(3)
La1E La 0.20644(2) 0.5000 0.20644(2)
La1D La 0.20644(2) 0.5000 -0.20644(2)
La1B La 0.5000 0.79356(2) -0.20644(2)
La1J La 0.79356(2) 0.79356(2) 0.5000
La1H La 0.79356(2) 1.20644(2) -0.5000
La1C La 0.5000 1.20644(2) -0.20644(2)
La1H_2 La 0.79356(2) 1.20644(2) 0.5000
La1J_2 La 0.79356(2) 0.79356(2) -0.5000
La1A La 0.5000 1.20644(2) 0.20644(2)
La1G La 0.79356(2) 1.5000 0.20644(2)
La1F La 0.79356(2) 1.5000 -0.20644(2)
Ni2H Ni 0.67452(5) 1.0000 0.32548(5)
Ni2J Ni 0.67452(5) 1.0000 -0.32548(5)
Ni2A Ni 0.67452(5) 1.32548(5) 0.0000
N1M N 0.2296(3) 0.6778(3) 0.0000
N1Q N 0.6778(3) 1.0000 -0.2296(3)
N1R N 0.6778(3) 1.0000 0.2296(3)
N1H N 0.7704(3) 1.0000 0.3222(3)
N1J N 0.7704(3) 1.0000 -0.3222(3)
N1A N 0.6778(3) 1.2296(3) 0.0000
N1L N 0.7704(3) 1.3222(3) 0.0000
C1Y C 0.2529(5) 0.7854(5) 0.0245(4)
C1M C 0.2146(5) 0.7471(5) 0.0245(4)
C1JA C 0.2146(5) 0.7471(5) -0.0245(4)
C1R C 0.7471(5) 1.0245(4) 0.2146(5)
C1QA C 0.7471(5) 0.9755(4) 0.2146(5)
C1Q C 0.7471(5) 0.9755(4) -0.2146(5)
C1NA C 0.7471(5) 1.0245(4) -0.2146(5)
C1H C 0.7854(5) 0.9755(4) 0.2529(5)
C1GA C 0.7854(5) 1.0245(4) 0.2529(5)
C1J C 0.7854(5) 1.0245(4) -0.2529(5)
C1IA C 0.7854(5) 0.9755(4) -0.2529(5)
C1A C 0.7471(5) 1.2146(5) -0.0245(4)
C1X C 0.7471(5) 1.2146(5) 0.0245(4)
C1L C 0.7854(5) 1.2529(5) 0.0245(4)
C1KA C 0.7854(5) 1.2529(5) -0.0245(4)
C2Y C 0.2371(7) 0.8569(5) 0.0221(5)
C2M C 0.1431(5) 0.7629(7) 0.0221(5)
C2JA C 0.1431(5) 0.7629(7) -0.0221(5)
C2Q C 0.7629(7) 0.9779(5) -0.1431(5)
C2NA C 0.7629(7) 1.0221(5) -0.1431(5)
C2IA C 0.8569(5) 0.9779(5) -0.2371(7)
C2J C 0.8569(5) 1.0221(5) -0.2371(7)
C2H C 0.8569(5) 0.9779(5) 0.2371(7)
C2GA C 0.8569(5) 1.0221(5) 0.2371(7)
C2R C 0.7629(7) 1.0221(5) 0.1431(5)
C2QA C 0.7629(7) 0.9779(5) 0.1431(5)
C2KA C 0.8569(5) 1.2371(7) -0.0221(5)
C2L C 0.8569(5) 1.2371(7) 0.0221(5)
C2X C 0.7629(7) 1.1431(5) 0.0221(5)
C2A C 0.7629(7) 1.1431(5) -0.0221(5)
C3M C 0.1324(7) 0.8340(6) 0.0299(6)
C3Y C 0.1660(6) 0.8676(7) 0.0299(6)
C3JA C 0.1324(7) 0.8340(6) -0.0299(6)
C3Q C 0.8340(6) 0.9701(6) -0.1324(7)
C3NA C 0.8340(6) 1.0299(6) -0.1324(7)
C3J C 0.8676(7) 1.0299(6) -0.1660(6)
C3IA C 0.8676(7) 0.9701(6) -0.1660(6)
C3R C 0.8340(6) 1.0299(6) 0.1324(7)
C3H C 0.8676(7) 0.9701(6) 0.1660(6)
C3GA C 0.8676(7) 1.0299(6) 0.1660(6)
C3QA C 0.8340(6) 0.9701(6) 0.1324(7)
C3L C 0.8676(7) 1.1660(6) 0.0299(6)
C3KA C 0.8676(7) 1.1660(6) -0.0299(6)
C3X C 0.8340(6) 1.1324(7) 0.0299(6)
C3A C 0.8340(6) 1.1324(7) -0.0299(6)
O6B O 0.5000(3) 0.8842 -0.1158(3)
O6C O 0.5000(3) 1.1158 -0.1158(3)
O6A O 0.5000(3) 1.1158 0.1158(3)
O7R O 0.5000(5) 0.6708(4) 0.2231
O7B O 0.5000(5) 0.7769 -0.3292(4)
O7S O 0.5000(5) 0.6708(4) -0.2231
O7C O 0.5000(5) 1.2231 -0.3292(4)
O7Q O 0.5000(5) 1.3292(4) -0.2231
O7A O 0.5000(5) 1.2231 0.3292(4)
O7P O 0.5000(5) 1.3292(4) 0.2231
O8R O 0.6067(4) 0.7507(3) 0.2493(3)
O8B O 0.6067(4) 0.7507(3) -0.2493(3)
O8S O 0.3933(4) 0.7507(3) -0.2493(3)
O8C O 0.3933(4) 1.2493(3) -0.2493(3)
O8Q O 0.6067(4) 1.2493(3) -0.2493(3)
O8A O 0.6067(4) 1.2493(3) 0.2493(3)
O8P O 0.3933(4) 1.2493(3) 0.2493(3)
C4Y C 0.3518(6) 0.8019(5) -0.0444(5)
C4M C 0.1981(5) 0.6482(6) -0.0444(5)
C4JA C 0.1981(5) 0.6482(6) 0.0444(5)
C4NA C 0.6482(6) 0.9556(5) -0.1981(5)
C4R C 0.6482(6) 0.9556(5) 0.1981(5)
C4QA C 0.6482(6) 1.0444(5) 0.1981(5)
C4Q C 0.6482(6) 1.0444(5) -0.1981(5)
C4H C 0.8019(5) 1.0444(5) 0.3518(6)
C4GA C 0.8019(5) 0.9556(5) 0.3518(6)
C4J C 0.8019(5) 0.9556(5) -0.3518(6)
C4IA C 0.8019(5) 1.0444(5) -0.3518(6)
C4A C 0.6482(6) 1.1981(5) 0.0444(5)
C4X C 0.6482(6) 1.1981(5) -0.0444(5)
C4L C 0.8019(5) 1.3518(6) -0.0444(5)
C4KA C 0.8019(5) 1.3518(6) 0.0444(5)
C5JA C 0.2427(6) 0.6258(4) 0.0933(5)
C5M C 0.2427(6) 0.6258(4) -0.0933(5)
C5Y C 0.3742(4) 0.7573(6) -0.0933(5)
C5NA C 0.6258(4) 0.9067(5) -0.2427(6)
C5R C 0.6258(4) 0.9067(5) 0.2427(6)
C5GA C 0.7573(6) 0.9067(5) 0.3742(4)
C5H C 0.7573(6) 1.0933(5) 0.3742(4)
C5QA C 0.6258(4) 1.0933(5) 0.2427(6)
C5IA C 0.7573(6) 1.0933(5) -0.3742(4)
C5Q C 0.6258(4) 1.0933(5) -0.2427(6)
C5J C 0.7573(6) 0.9067(5) -0.3742(4)
C5A C 0.6258(4) 1.2427(6) 0.0933(5)
C5X C 0.6258(4) 1.2427(6) -0.0933(5)
C5KA C 0.7573(6) 1.3742(4) 0.0933(5)
C5L C 0.7573(6) 1.3742(4) -0.0933(5)
H1JA H 0.1665 0.6773 0.0637
H1M H 0.1665 0.6773 -0.0637
H1Y H 0.3227 0.8335 -0.0637
H1NA H 0.6773 0.9363 -0.1665
H1R H 0.6773 0.9363 0.1665
H1QA H 0.6773 1.0637 0.1665
H1GA H 0.8335 0.9363 0.3227
H1H H 0.8335 1.0637 0.3227
H1IA H 0.8335 1.0637 -0.3227
H1A H 0.6773 1.1665 0.0637
H1X H 0.6773 1.1665 -0.0637
H1KA H 0.8335 1.3227 0.0637
H1L H 0.8335 1.3227 -0.0637
H1J H 0.8335 0.9363 -0.3227
H2JA H 0.1750 0.6116 0.0259
H2M H 0.1750 0.6116 -0.0259
H2Y H 0.3884 0.8250 -0.0259
H2NA H 0.6116 0.9741 -0.1750
H2R H 0.6116 0.9741 0.1750
H2QA H 0.6116 1.0259 0.1750
H2GA H 0.8250 0.9741 0.3884
H2H H 0.8250 1.0259 0.3884
H2IA H 0.8250 1.0259 -0.3884
H2A H 0.6116 1.1750 0.0259
H2X H 0.6116 1.1750 -0.0259
H2KA H 0.8250 1.3884 0.0259
H2L H 0.8250 1.3884 -0.0259
H2J H 0.8250 0.9741 -0.3884
O9R O 0.5939(3) 0.8646(3) 0.2197(4)
O9AA O 0.5939(3) 0.7803(4) 0.1354(3)
O9OA O 0.4061(3) 0.8646(3) 0.2197(4)
O9M O 0.2197(4) 0.5939(3) -0.1354(3)
O9JA O 0.2197(4) 0.5939(3) 0.1354(3)
O9Y O 0.4061(3) 0.7803(4) -0.1354(3)
O9B O 0.5939(3) 0.7803(4) -0.1354(3)
O9S O 0.4061(3) 0.8646(3) -0.2197(4)
O9NA O 0.5939(3) 0.8646(3) -0.2197(4)
O9J O 0.7803(4) 0.8646(3) -0.4061(3)
O9IA O 0.7803(4) 1.1354(3) -0.4061(3)
O9H O 0.7803(4) 1.1354(3) 0.4061(3)
O9GA O 0.7803(4) 0.8646(3) 0.4061(3)
O9Q O 0.5939(3) 1.1354(3) -0.2197(4)
O9QA O 0.5939(3) 1.1354(3) 0.2197(4)
O9C O 0.4061(3) 1.2197(4) -0.1354(3)
O9X O 0.5939(3) 1.2197(4) -0.1354(3)
O9PA O 0.4061(3) 1.1354(3) -0.2197(4)
O9A O 0.5939(3) 1.2197(4) 0.1354(3)
O9P O 0.4061(3) 1.1354(3) 0.2197(4)
O9Z O 0.4061(3) 1.2197(4) 0.1354(3)
O9KA O 0.7803(4) 1.4061(3) 0.1354(3)
O9L O 0.7803(4) 1.4061(3) -0.1354(3)
O10M O 0.3000(4) 0.6428(4) -0.0877(3)
O10Y O 0.3572(4) 0.7000(4) -0.0877(3)
O10JA O 0.3000(4) 0.6428(4) 0.0877(3)
O10NA O 0.6428(4) 0.9123(3) -0.3000(4)
O10R O 0.6428(4) 0.9123(3) 0.3000(4)
O10H O 0.7000(4) 1.0877(3) 0.3572(4)
O10GA O 0.7000(4) 0.9123(3) 0.3572(4)
O10QA O 0.6428(4) 1.0877(3) 0.3000(4)
O10J O 0.7000(4) 0.9123(3) -0.3572(4)
O10Q O 0.6428(4) 1.0877(3) -0.3000(4)
O10IA O 0.7000(4) 1.0877(3) -0.3572(4)
O10A O 0.6428(4) 1.3000(4) 0.0877(3)
O10X O 0.6428(4) 1.3000(4) -0.0877(3)
O10L O 0.7000(4) 1.3572(4) -0.0877(3)
O10KA O 0.7000(4) 1.3572(4) 0.0877(3)
Ni1 Ni 0.5000 0.5000 0.0000
O1 O 0.5000 0.5000 0.1066(4)
O2 O 0.5000 0.6116(16) 0.0000
O1B O 0.5000 0.5000 -0.1066(4)
O2A O 0.5000 0.3884(16) 0.0000
O2L O 0.6116(16) 0.5000 0.0000
O2M O 0.3884(16) 0.5000 0.0000
loop_
_geom_bond_atom_site_label_1
_geom_bond_atom_site_label_2
_geom_bond_site_symmetry_1
_geom_bond_site_symmetry_2
Ni1 O1 1_555 1_555
O2 Ni1 1_555 1_555
Cl1 O3 1_555 1_555
O4 Cl1 1_555 1_555
Cl2 O5 1_555 1_555
La1 O6 1_555 1_555
Ni2 N1 1_555 1_555
N1 C1 1_555 1_555
C1 C2 1_555 1_555
C2 C3 1_555 1_555
C3 C3M 1_555 1_555
O7 La1 1_555 1_555
O8 La1 1_555 1_555
C4 N1 1_555 1_555
C5 C4 1_555 1_555
H1 C4 1_555 1_555
H2 C4 1_555 1_555
O9 La1 1_555 1_555
O10 Ni2 1_555 1_555
O1B Ni1 1_555 1_555
O2A Ni1 1_555 1_555
O2L Ni1 1_555 1_555
O2M Ni1 1_555 1_555
O3D Cl1 1_555 1_555
O3H Cl1 1_555 1_555
O5C Cl2 1_555 1_555
O5P Cl2 1_555 1_555
O5S Cl2 1_555 1_555
La1E O9JA 1_555 1_555
La1D O9M 1_555 1_555
La1B O6B 1_555 1_555
La1J O9GA 1_555 1_555
La1H O9IA 1_555 1_555
La1C O6C 1_555 1_555
La1H_2 O9H 1_555 1_555
La1J_2 O9J 1_555 1_555
La1A O6A 1_555 1_555
La1G O9KA 1_555 1_555
La1F O9L 1_555 1_555
Ni2H N1R 1_555 1_555
Ni2J N1Q 1_555 1_555
Ni2A N1A 1_555 1_555
N1M Ni2 1_555 1_555
N1Q C1Q 1_555 1_555
N1R C1R 1_555 1_555
N1H Ni2H 1_555 1_555
N1J Ni2J 1_555 1_555
N1A C1A 1_555 1_555
N1L Ni2A 1_555 1_555
C1Y N1 1_555 1_555
C1M C1 1_555 1_555
C1JA C1 1_555 1_555
C1R C1QA 1_555 1_555
C1QA N1R 1_555 1_555
C1Q C1NA 1_555 1_555
C1NA N1Q 1_555 1_555
C1H N1H 1_555 1_555
C1GA N1H 1_555 1_555
C1J N1J 1_555 1_555
C1IA N1J 1_555 1_555
C1A C1X 1_555 1_555
C1X N1A 1_555 1_555
C1L N1L 1_555 1_555
C1KA N1L 1_555 1_555
C2Y C2 1_555 1_555
C2M C1M 1_555 1_555
C2JA C1JA 1_555 1_555
C2Q C1Q 1_555 1_555
C2NA C1NA 1_555 1_555
C2IA C1IA 1_555 1_555
C2J C1J 1_555 1_555
C2H C1H 1_555 1_555
C2GA C1GA 1_555 1_555
C2R C1R 1_555 1_555
C2QA C1QA 1_555 1_555
C2KA C1KA 1_555 1_555
C2L C1L 1_555 1_555
C2X C1X 1_555 1_555
C2A C1A 1_555 1_555
C3M C2M 1_555 1_555
C3Y C3 1_555 1_555
C3JA C3 1_555 1_555
C3Q C2Q 1_555 1_555
C3NA C2NA 1_555 1_555
C3J C2J 1_555 1_555
C3IA C2IA 1_555 1_555
C3R C2R 1_555 1_555
C3H C2H 1_555 1_555
C3GA C2GA 1_555 1_555
C3QA C2QA 1_555 1_555
C3L C2L 1_555 1_555
C3KA C2KA 1_555 1_555
C3X C2X 1_555 1_555
C3A C2A 1_555 1_555
O7R La1 1_555 1_555
O7B La1B 1_555 1_555
O7S La1B 1_555 1_555
O7C La1C 1_555 1_555
O7Q La1C 1_555 1_555
O7A La1A 1_555 1_555
O7P La1A 1_555 1_555
O8R La1 1_555 1_555
O8B La1B 1_555 1_555
O8S La1B 1_555 1_555
O8C La1C 1_555 1_555
O8Q La1C 1_555 1_555
O8A La1A 1_555 1_555
O8P La1A 1_555 1_555
C4Y N1 1_555 1_555
C4M N1M 1_555 1_555
C4JA N1M 1_555 1_555
C4NA N1Q 1_555 1_555
C4R N1R 1_555 1_555
C4QA N1R 1_555 1_555
C4Q N1Q 1_555 1_555
C4H N1H 1_555 1_555
C4GA N1H 1_555 1_555
C4J N1J 1_555 1_555
C4IA N1J 1_555 1_555
C4A N1A 1_555 1_555
C4X N1A 1_555 1_555
C4L N1L 1_555 1_555
C4KA N1L 1_555 1_555
C5JA C4JA 1_555 1_555
C5M C4M 1_555 1_555
C5Y C4Y 1_555 1_555
C5NA C4NA 1_555 1_555
C5R C4R 1_555 1_555
C5GA C4GA 1_555 1_555
C5H C4H 1_555 1_555
C5QA C4QA 1_555 1_555
C5IA C4IA 1_555 1_555
C5Q C4Q 1_555 1_555
C5J C4J 1_555 1_555
C5A C4A 1_555 1_555
C5X C4X 1_555 1_555
C5KA C4KA 1_555 1_555
C5L C4L 1_555 1_555
H1JA C4JA 1_555 1_555
H1M C4M 1_555 1_555
H1Y C4Y 1_555 1_555
H1NA C4NA 1_555 1_555
H1R C4R 1_555 1_555
H1QA C4QA 1_555 1_555
H1GA C4GA 1_555 1_555
H1H C4H 1_555 1_555
H1IA C4IA 1_555 1_555
H1A C4A 1_555 1_555
H1X C4X 1_555 1_555
H1KA C4KA 1_555 1_555
H1L C4L 1_555 1_555
H1J C4J 1_555 1_555
H2JA C4JA 1_555 1_555
H2M C4M 1_555 1_555
H2Y C4Y 1_555 1_555
H2NA C4NA 1_555 1_555
H2R C4R 1_555 1_555
H2QA C4QA 1_555 1_555
H2GA C4GA 1_555 1_555
H2H C4H 1_555 1_555
H2IA C4IA 1_555 1_555
H2A C4A 1_555 1_555
H2X C4X 1_555 1_555
H2KA C4KA 1_555 1_555
H2L C4L 1_555 1_555
H2J C4J 1_555 1_555
O9R La1 1_555 1_555
O9AA La1 1_555 1_555
O9OA La1 1_555 1_555
O9M C5M 1_555 1_555
O9JA C5JA 1_555 1_555
O9Y La1B 1_555 1_555
O9B La1B 1_555 1_555
O9S La1B 1_555 1_555
O9NA La1B 1_555 1_555
O9J C5J 1_555 1_555
O9IA C5IA 1_555 1_555
O9H C5H 1_555 1_555
O9GA C5GA 1_555 1_555
O9Q La1C 1_555 1_555
O9QA La1A 1_555 1_555
O9C La1C 1_555 1_555
O9X La1C 1_555 1_555
O9PA La1C 1_555 1_555
O9A La1A 1_555 1_555
O9P La1A 1_555 1_555
O9Z La1A 1_555 1_555
O9KA C5KA 1_555 1_555
O9L C5L 1_555 1_555
O10M Ni2 1_555 1_555
O10Y Ni2 1_555 1_555
O10JA Ni2 1_555 1_555
O10NA Ni2J 1_555 1_555
O10R Ni2H 1_555 1_555
O10H Ni2H 1_555 1_555
O10GA Ni2H 1_555 1_555
O10QA Ni2H 1_555 1_555
O10J Ni2J 1_555 1_555
O10Q Ni2J 1_555 1_555
O10IA Ni2J 1_555 1_555
O10A Ni2A 1_555 1_555
O10X Ni2A 1_555 1_555
O10L Ni2A 1_555 1_555
O10KA Ni2A 1_555 1_555
C1 C1Y 1_555 1_555
C5 O9 1_555 1_555
C5 O10 1_555 1_555
N1M C1M 1_555 1_555
N1M C1JA 1_555 1_555
C1Y C1M 1_555 1_555
C1Y C1JA 1_555 1_555
C1Y C2Y 1_555 1_555
C1M C1JA 1_555 1_555
C1R C1H 1_555 1_555
C1R C1GA 1_555 1_555
C1QA C1H 1_555 1_555
C1QA C1GA 1_555 1_555
C1Q C1J 1_555 1_555
C1Q C1IA 1_555 1_555
C1NA C1J 1_555 1_555
C1NA C1IA 1_555 1_555
C1H C1GA 1_555 1_555
C1A C1L 1_555 1_555
C1A C1KA 1_555 1_555
C1X C1L 1_555 1_555
C1X C1KA 1_555 1_555
C1L C1KA 1_555 1_555
C2Y C3Y 1_555 1_555
C2M C2JA 1_555 1_555
C2JA C3JA 1_555 1_555
C2Q C2NA 1_555 1_555
C2IA C2J 1_555 1_555
C2H C2GA 1_555 1_555
C2R C2QA 1_555 1_555
C2KA C2L 1_555 1_555
C2X C2A 1_555 1_555
C3M C3Y 1_555 1_555
C3M C3JA 1_555 1_555
C3Y C3JA 1_555 1_555
C3Q C3NA 1_555 1_555
C3Q C3J 1_555 1_555
C3Q C3IA 1_555 1_555
C3NA C3J 1_555 1_555
C3NA C3IA 1_555 1_555
C3J C3IA 1_555 1_555
C3R C3H 1_555 1_555
C3R C3GA 1_555 1_555
C3R C3QA 1_555 1_555
C3H C3GA 1_555 1_555
C3H C3QA 1_555 1_555
C3GA C3QA 1_555 1_555
C3L C3KA 1_555 1_555
C3L C3X 1_555 1_555
C3L C3A 1_555 1_555
C3KA C3X 1_555 1_555
C3KA C3A 1_555 1_555
C3X C3A 1_555 1_555
C5JA O10JA 1_555 1_555
C5M O10M 1_555 1_555
C5Y O9Y 1_555 1_555
C5Y O10Y 1_555 1_555
C5NA O9NA 1_555 1_555
C5NA O10NA 1_555 1_555
C5R O9R 1_555 1_555
C5R O10R 1_555 1_555
C5GA O10GA 1_555 1_555
C5H O10H 1_555 1_555
C5QA O9QA 1_555 1_555
C5QA O10QA 1_555 1_555
C5IA O10IA 1_555 1_555
C5Q O9Q 1_555 1_555
C5Q O10Q 1_555 1_555
C5J O10J 1_555 1_555
C5A O9A 1_555 1_555
C5A O10A 1_555 1_555
C5X O9X 1_555 1_555
C5X O10X 1_555 1_555
C5KA O10KA 1_555 1_555
C5L O10L 1_555 1_555

#END
