
#######################################################################
#
#                 Cambridge Crystallographic Data Centre
#                                CCDC 
#
#######################################################################
#
# If this CIF has been generated from an entry in the Cambridge 
# Structural Database, then it will include bibliographic, chemical, 
# crystal, experimental, refinement or atomic coordinate data resulting 
# from the CCDC's data processing and validation procedures.
#
#######################################################################

data_WEVRUK
_chemical_formula_moiety         '(C24 H42 Cu3 O39 Pr2)n'
_symmetry_cell_setting           hexagonal
_symmetry_space_group_name_H-M   'P 6/m c c'
_symmetry_Int_Tables_number      192
_space_group_name_Hall           '-P 6 2c'
loop_
_symmetry_equiv_pos_site_id
_symmetry_equiv_pos_as_xyz
1 x,y,z
2 -y,x-y,z
3 -x+y,-x,z
4 y,-x+y,z
5 x-y,x,z
6 -x+y,y,1/2+z
7 x,x-y,1/2+z
8 y,x,1/2+z
9 x-y,-y,1/2+z
10 -x,-x+y,1/2+z
11 x,y,-z
12 y,x,1/2-z
13 -x,-y,-z
14 y,-x+y,-z
15 x-y,x,-z
16 -y,x-y,-z
17 -x+y,-x,-z
18 x-y,-y,1/2-z
19 -x,-x+y,1/2-z
20 -y,-x,1/2-z
21 -x+y,y,1/2-z
22 x,x-y,1/2-z
23 -x,-y,z
24 -y,-x,1/2+z
_cell_length_a                   15.199(2)
_cell_length_b                   15.199(2)
_cell_length_c                   14.584(3)
_cell_angle_alpha                90
_cell_angle_beta                 90
_cell_angle_gamma                120
_cell_volume                     2917.68
loop_
_atom_site_label
_atom_site_type_symbol
_atom_site_fract_x
_atom_site_fract_y
_atom_site_fract_z
Pr1 Pr -0.3333 0.3333 -0.2500
Cu1 Cu -0.5000 0.0000 0.0000
O1 O -0.1920(3) 0.4229(2) -0.3593(2)
O2 O -0.0483(3) 0.5580(3) -0.4064(3)
O3 O 0.23619(17) 0.4724(3) 0.2500
C1 C -0.1275(4) 0.5155(4) -0.3598(3)
C2 C 0.1456(4) 0.4147(4) 0.2995(4)
H1 H 0.2139 0.3646 0.1632
H2 H 0.2900 0.3792 0.2426
O4 O -0.1553(5) 0.5245(5) 0.0000
H3 H -0.179(7) 0.476(7) 0.046(5)
O1A O -0.4229(2) 0.3851(4) -0.3593(2)
C1A C -0.5155(4) 0.3570(6) -0.3598(3)
O2A O -0.5580(3) 0.3937(4) -0.4064(3)
Cu1F Cu -0.5000 0.5000 -0.5000
Cu1E Cu -0.5000 0.0000 -0.5000
O2B O -0.3937(4) 0.0483(3) -0.4064(3)
C1B C -0.3570(6) 0.1275(4) -0.3598(3)
O1B O -0.3851(4) 0.1920(3) -0.3593(2)
O1S O -0.4229(2) 0.1920(3) -0.1407(2)
C1S C -0.5155(4) 0.1275(4) -0.1402(3)
O2S O -0.5580(3) 0.0483(3) -0.0936(3)
Cu1G Cu 0.0000 0.5000 -0.5000
O2W O -0.5580(3) 0.0483(3) 0.0936(3)
O2E O -0.3937(4) 0.5580(3) 0.0936(3)
Cu1B Cu -0.5000 0.5000 0.0000
O2T O -0.3937(4) 0.5580(3) -0.0936(3)
C1T C -0.3570(6) 0.5155(4) -0.1402(3)
O1T O -0.3851(4) 0.4229(2) -0.1407(2)
O1U O -0.1920(3) 0.3851(4) -0.1407(2)
C1U C -0.1275(4) 0.3570(6) -0.1402(3)
O2U O -0.0483(3) 0.3937(4) -0.0936(3)
Cu1A Cu 0.0000 0.5000 0.0000
O2F O -0.0483(3) 0.3937(4) 0.0936(3)
O2I O 0.0483(3) 0.6063(4) 0.0936(3)
C1I C 0.1275(4) 0.6430(6) 0.1402(3)
O1I O 0.1920(3) 0.6149(4) 0.1407(2)
Pr1G Pr 0.3333 0.6667 0.2500
O1G O 0.4229(2) 0.8080(3) 0.1407(2)
C1G C 0.5155(4) 0.8725(4) 0.1402(3)
O2G O 0.5580(3) 0.9517(3) 0.0936(3)
Cu1_2 Cu 0.5000 1.0000 0.0000
Cu1B_2 Cu 0.5000 0.5000 0.0000
O2H O 0.3937(4) 0.4420(3) 0.0936(3)
C1H C 0.3570(6) 0.4845(4) 0.1402(3)
O1H O 0.3851(4) 0.5771(2) 0.1407(2)
O1M O 0.4229(2) 0.6149(4) 0.3593(2)
C1M C 0.5155(4) 0.6430(6) 0.3598(3)
O2M O 0.5580(3) 0.6063(4) 0.4064(3)
Cu1F_2 Cu 0.5000 0.5000 0.5000
Cu1E_2 Cu 0.5000 1.0000 0.5000
O2N O 0.3937(4) 0.9517(3) 0.4064(3)
C1N C 0.3570(6) 0.8725(4) 0.3598(3)
O1N O 0.3851(4) 0.8080(3) 0.3593(2)
O1L O 0.1920(3) 0.5771(2) 0.3593(2)
C1L C 0.1275(4) 0.4845(4) 0.3598(3)
O2L O 0.0483(3) 0.4420(3) 0.4064(3)
Cu1G_2 Cu -0.0000 0.5000 0.5000
C2T C 0.2691(6) 0.4147(4) 0.2005(4)
H1T H 0.1507 0.3646 0.3368
H2T H 0.0892 0.3792 0.2574
O3B O 0.23621(34) 0.76381(17) 0.2500
O3A O 0.5276(3) 0.76379(34) 0.2500
C2B C 0.2691(6) 0.8544(4) 0.2995(4)
C2U C 0.1456(4) 0.7309(6) 0.2005(4)
H1B H 0.1507 0.7861 0.1632
H2B H 0.0892 0.7100 0.2426
H1U H 0.2139 0.8493 0.3368
H2U H 0.2900 0.9108 0.2574
C2A C 0.5853(4) 0.7309(6) 0.2995(4)
C2S C 0.5853(4) 0.8544(4) 0.2005(4)
H1A H 0.6354 0.8493 0.1632
H2A H 0.6208 0.9108 0.2426
H1S H 0.6354 0.7861 0.3368
H2S H 0.6208 0.7100 0.2574
O2R O 0.0483(3) 0.6063(4) -0.0936(3)
O4L O 0.1553(5) 0.4755(5) 0.0000
C2I C -0.1456(4) 0.2691(6) -0.2005(4)
O3I O -0.23619(17) 0.23621(34) -0.2500
C2N C -0.2691(6) 0.1456(4) -0.2995(4)
H1I H -0.2139 0.1507 -0.3368
H2I H -0.2900 0.0892 -0.2574
H1N H -0.1507 0.2139 -0.1632
H2N H -0.0892 0.2900 -0.2426
O3H O -0.23621(34) 0.5276(3) -0.2500
O3G O -0.5276(3) 0.23619(17) -0.2500
C2H C -0.2691(6) 0.5853(4) -0.2005(4)
C2L C -0.1456(4) 0.5853(4) -0.2995(4)
H1H H -0.1507 0.6354 -0.3368
H2H H -0.0892 0.6208 -0.2574
H1L H -0.2139 0.6354 -0.1632
H2L H -0.2900 0.6208 -0.2426
O2Q O -0.6063(4) 0.4420(3) -0.0936(3)
O2H_2 O -0.6063(4) 0.4420(3) 0.0936(3)
O4A O -0.5245(5) 0.3202(7) 0.0000
O4C O -0.4755(5) 0.6798(7) 0.0000
O2G_2 O -0.4420(3) -0.0483(3) 0.0936(3)
O2K O -0.4420(3) -0.0483(3) -0.0936(3)
O4B O -0.3202(7) 0.1553(5) 0.0000
O4D O -0.6798(7) -0.1553(5) 0.0000
C2G C -0.5853(4) 0.1456(4) -0.2005(4)
C2M C -0.5853(4) 0.2691(6) -0.2995(4)
H1G H -0.6354 0.2139 -0.3368
H2G H -0.6208 0.2900 -0.2574
H1M H -0.6354 0.1507 -0.1632
H2M H -0.6208 0.0892 -0.2426
H3J H -0.179(7) 0.476(7) -0.046(5)
H3V H 0.179(7) 0.524(7) 0.046(5)
H3L H 0.179(7) 0.524(7) -0.046(5)
H3A H -0.476(7) 0.345(10) 0.046(5)
H3O H -0.476(7) 0.345(10) -0.046(5)
H3C H -0.524(7) 0.655(10) 0.046(5)
H3M H -0.524(7) 0.655(10) -0.046(5)
H3P H -0.345(10) 0.179(7) -0.046(5)
H3B H -0.345(10) 0.179(7) 0.046(5)
H3D H -0.655(10) -0.179(7) 0.046(5)
H3N H -0.655(10) -0.179(7) -0.046(5)
O5 O -0.725(4) 0.158(4) -1.0000
O7 O -0.160(5) 0.890(6) -0.615(4)
O11 O 0.0000 1.0000 -0.5000
loop_
_geom_bond_atom_site_label_1
_geom_bond_atom_site_label_2
_geom_bond_site_symmetry_1
_geom_bond_site_symmetry_2
Pr1 O1 1_555 1_555
Cu1 O2S 1_555 1_555
O1 C1 1_555 1_555
O2 C1 1_555 1_555
O3 C2 1_555 1_555
C1 C2L 1_555 1_555
C2 C1L 1_555 1_555
H1 C2T 1_555 1_555
H2 C2T 1_555 1_555
O4 H3 1_555 1_555
O1A Pr1 1_555 1_555
C1A O1A 1_555 1_555
O2A C1A 1_555 1_555
Cu1F O2A 1_555 1_555
Cu1E O2B 1_555 1_555
O2B C1B 1_555 1_555
C1B O1B 1_555 1_555
O1B Pr1 1_555 1_555
O1S Pr1 1_555 1_555
C1S O1S 1_555 1_555
O2S C1S 1_555 1_555
Cu1G O2 1_555 1_555
O2W Cu1 1_555 1_555
O2E Cu1B 1_555 1_555
Cu1B O2T 1_555 1_555
O2T C1T 1_555 1_555
C1T O1T 1_555 1_555
O1T Pr1 1_555 1_555
O1U Pr1 1_555 1_555
C1U O1U 1_555 1_555
O2U C1U 1_555 1_555
Cu1A O4 1_555 1_555
O2F Cu1A 1_555 1_555
O2I Cu1A 1_555 1_555
C1I O2I 1_555 1_555
O1I C1I 1_555 1_555
Pr1G O3 1_555 1_555
O1G Pr1G 1_555 1_555
C1G O1G 1_555 1_555
O2G C1G 1_555 1_555
Cu1_2 O2G 1_555 1_555
Cu1B_2 O2H 1_555 1_555
O2H C1H 1_555 1_555
C1H O1H 1_555 1_555
O1H Pr1G 1_555 1_555
O1M Pr1G 1_555 1_555
C1M O1M 1_555 1_555
O2M C1M 1_555 1_555
Cu1F_2 O2M 1_555 1_555
Cu1E_2 O2N 1_555 1_555
O2N C1N 1_555 1_555
C1N O1N 1_555 1_555
O1N Pr1G 1_555 1_555
O1L Pr1G 1_555 1_555
C1L O1L 1_555 1_555
O2L C1L 1_555 1_555
Cu1G_2 O2L 1_555 1_555
C2T O3 1_555 1_555
H1T C2 1_555 1_555
H2T C2 1_555 1_555
O3B Pr1G 1_555 1_555
O3A Pr1G 1_555 1_555
C2B C1N 1_555 1_555
C2U C1I 1_555 1_555
H1B C2U 1_555 1_555
H2B C2U 1_555 1_555
H1U C2B 1_555 1_555
H2U C2B 1_555 1_555
C2A C1M 1_555 1_555
C2S C1G 1_555 1_555
H1A C2S 1_555 1_555
H2A C2S 1_555 1_555
H1S C2A 1_555 1_555
H2S C2A 1_555 1_555
O2R Cu1A 1_555 1_555
O4L Cu1A 1_555 1_555
C2I C1U 1_555 1_555
O3I Pr1 1_555 1_555
C2N C1B 1_555 1_555
H1I C2N 1_555 1_555
H2I C2N 1_555 1_555
H1N C2I 1_555 1_555
H2N C2I 1_555 1_555
O3H Pr1 1_555 1_555
O3G Pr1 1_555 1_555
C2H C1T 1_555 1_555
C2L O3H 1_555 1_555
H1H C2L 1_555 1_555
H2H C2L 1_555 1_555
H1L C2H 1_555 1_555
H2L C2H 1_555 1_555
O2Q Cu1B 1_555 1_555
O2H_2 Cu1B 1_555 1_555
O4A Cu1B 1_555 1_555
O4C Cu1B 1_555 1_555
O2G_2 Cu1 1_555 1_555
O2K Cu1 1_555 1_555
O4B Cu1 1_555 1_555
O4D Cu1 1_555 1_555
C2G C1S 1_555 1_555
C2M C1A 1_555 1_555
H1G C2M 1_555 1_555
H2G C2M 1_555 1_555
H1M C2G 1_555 1_555
H2M C2G 1_555 1_555
H3J O4 1_555 1_555
H3V O4L 1_555 1_555
H3L O4L 1_555 1_555
H3A O4A 1_555 1_555
H3O O4A 1_555 1_555
H3C O4C 1_555 1_555
H3M O4C 1_555 1_555
H3P O4B 1_555 1_555
H3B O4B 1_555 1_555
H3D O4D 1_555 1_555
H3N O4D 1_555 1_555
O2U Cu1A 1_555 1_555
O1I Pr1G 1_555 1_555
C1H C2T 1_555 1_555
O3B C2U 1_555 1_555
O3B C2B 1_555 1_555
O3A C2S 1_555 1_555
O3A C2A 1_555 1_555
C2I O3I 1_555 1_555
O3I C2N 1_555 1_555
O3H C2H 1_555 1_555
O3G C2M 1_555 1_555
O3G C2G 1_555 1_555

#END
