
#######################################################################
#
#                 Cambridge Crystallographic Data Centre
#                                CCDC 
#
#######################################################################
#
# If this CIF has been generated from an entry in the Cambridge 
# Structural Database, then it will include bibliographic, chemical, 
# crystal, experimental, refinement or atomic coordinate data resulting 
# from the CCDC's data processing and validation procedures.
#
#######################################################################

data_IDEBOI
_chemical_formula_moiety         '(C12 H21 Cr1 K1 Mn1 N10 1+)n'
_symmetry_cell_setting           hexagonal
_symmetry_space_group_name_H-M   'P 61'
_symmetry_Int_Tables_number      169
_space_group_name_Hall           'P 61'
loop_
_symmetry_equiv_pos_site_id
_symmetry_equiv_pos_as_xyz
1 x,y,z
2 -y,x-y,1/3+z
3 -x+y,-x,2/3+z
4 -x,-y,1/2+z
5 y,-x+y,5/6+z
6 x-y,x,1/6+z
_cell_length_a                   14.7672(4)
_cell_length_b                   14.7672(4)
_cell_length_c                   17.5731(7)
_cell_angle_alpha                90
_cell_angle_beta                 90
_cell_angle_gamma                120
_cell_volume                     3318.76
loop_
_atom_site_label
_atom_site_type_symbol
_atom_site_fract_x
_atom_site_fract_y
_atom_site_fract_z
K1 K 0.7866(5) 0.9015(5) 0.1292(4)
N10 N 0.836(2) 0.822(2) 0.2136(16)
N11 N 0.643(2) 0.772(2) 0.2135(16)
C11 C 0.7325(16) 0.7185(15) 0.2288(12)
H9 H 0.6954 0.6805 0.1855
H10 H 0.7482 0.6755 0.2619
C12 C 0.6682(17) 0.7407(17) 0.2850(14)
H11 H 0.707(11) 0.803(12) 0.310(8)
C13 C 0.5501(17) 0.6733(17) 0.2907(15)
H12 H 0.5187 0.6775 0.2449
H13 H 0.5402 0.6972 0.3325
H14 H 0.5505 0.6078 0.2925
Mn1 Mn 0.56484(7) 0.34744(8) 0.22693(5)
Cr1 Cr 0.52081(9) 0.55227(9) 0.00210(6)
N1 N 0.5580(5) 0.4762(5) 0.1634(4)
N2 N 0.5290(6) 0.3947(5) 0.3358(4)
N3 N 0.7357(5) 0.4299(5) 0.2285(4)
N4 N 0.5615(6) 0.2057(6) 0.2762(4)
N5 N 0.3016(9) 0.3397(8) 0.0048(7)
N7 N 0.753(2) 0.742(2) -0.0119(14)
N8 N 0.3925(6) 0.2377(7) 0.2029(5)
N9 N 0.5681(6) 0.2831(5) 0.1091(4)
C1 C 0.5451(5) 0.5102(5) 0.1099(4)
C2 C 0.5086(6) 0.4132(6) 0.3935(4)
C3 C 0.8185(6) 0.4584(6) 0.2118(4)
C4 C 0.5273(7) 0.1213(6) 0.2954(4)
C5 C 0.3807(7) 0.4184(8) 0.0035(5)
C6 C 0.6686(8) 0.6855(9) 0.0009(7)
C7 C 0.3819(8) 0.1661(9) 0.1431(8)
H1 H 0.403(9) 0.119(10) 0.165(7)
C8 C 0.4544(10) 0.2246(8) 0.0805(6)
H2 H 0.440(8) 0.277(8) 0.065(7)
C10 C 0.4363(15) 0.1563(12) 0.0127(10)
H6 H 0.4745 0.1216 0.0154
H7 H 0.4567 0.2014 -0.0318
H8 H 0.3623 0.1076 0.0095
C2C C 0.4914(6) 0.5868(6) -0.1065(4)
C3D C 0.4584(6) 0.6399(8) 0.0451(4)
C4B C 0.5940(9) 0.4727(7) -0.0379(4)
Cr1C Cr 0.47919(9) 0.44773(9) 0.50210(6)
Cr1E Cr 0.96854(13) 0.52081(9) 0.16877(6)
Cr1A Cr 0.44773(9) -0.03146(13) 0.33543(6)
loop_
_geom_bond_atom_site_label_1
_geom_bond_atom_site_label_2
_geom_bond_site_symmetry_1
_geom_bond_site_symmetry_2
Mn1 N1 1_555 1_555
Cr1 C1 1_555 1_555
N1 C1 1_555 1_555
N2 Mn1 1_555 1_555
N3 Mn1 1_555 1_555
N4 Mn1 1_555 1_555
N5 C5 1_555 1_555
N7 C6 1_555 1_555
N8 Mn1 1_555 1_555
N9 Mn1 1_555 1_555
N10 C11 1_555 1_555
N11 C12 1_555 1_555
C2 N2 1_555 1_555
C3 N3 1_555 1_555
C4 N4 1_555 1_555
C5 Cr1 1_555 1_555
C6 Cr1 1_555 1_555
C7 N8 1_555 1_555
H1 C7 1_555 1_555
C8 N9 1_555 1_555
H2 C8 1_555 1_555
C10 C8 1_555 1_555
H6 C10 1_555 1_555
H7 C10 1_555 1_555
H8 C10 1_555 1_555
C11 H9 1_555 1_555
H10 C11 1_555 1_555
C12 C11 1_555 1_555
H11 C12 1_555 1_555
C13 C12 1_555 1_555
H12 C13 1_555 1_555
H13 C13 1_555 1_555
H14 C13 1_555 1_555
C2C Cr1 1_555 1_555
C3D Cr1 1_555 1_555
C4B Cr1 1_555 1_555
Cr1C C2 1_555 1_555
Cr1E C3 1_555 1_555
Cr1A C4 1_555 1_555
C7 C8 1_555 1_555

#END
