
#######################################################################
#
#                 Cambridge Crystallographic Data Centre
#                                CCDC 
#
#######################################################################
#
# If this CIF has been generated from an entry in the Cambridge 
# Structural Database, then it will include bibliographic, chemical, 
# crystal, experimental, refinement or atomic coordinate data resulting 
# from the CCDC's data processing and validation procedures.
#
#######################################################################

data_XADDOX
_chemical_formula_moiety         '(C40 H62 Co6 O42)n'
_symmetry_cell_setting           orthorhombic
_symmetry_space_group_name_H-M   'P 21 21 2'
_symmetry_Int_Tables_number      18
_space_group_name_Hall           'P 2 2ab'
loop_
_symmetry_equiv_pos_site_id
_symmetry_equiv_pos_as_xyz
1 x,y,z
2 -x,-y,z
3 1/2-x,1/2+y,-z
4 1/2+x,1/2-y,-z
_cell_length_a                   21.024(2)
_cell_length_b                   28.741(3)
_cell_length_c                   10.8969(12)
_cell_angle_alpha                90
_cell_angle_beta                 90
_cell_angle_gamma                90
_cell_volume                     6584.46
loop_
_atom_site_label
_atom_site_type_symbol
_atom_site_fract_x
_atom_site_fract_y
_atom_site_fract_z
Co1 Co 0.46503(4) -0.29630(2) 0.15189(7)
Co2 Co 0.04333(4) -0.29318(2) -0.28964(7)
Co3 Co 0.45650(5) -0.11956(3) -0.56844(8)
Co4 Co 0.54329(6) -0.38625(3) 0.02182(9)
Co5 Co 0.41736(5) -0.16201(3) 0.15107(9)
Co6 Co 0.60443(4) -0.33614(3) 0.29572(9)
O1 O 0.5514(2) -0.32974(13) 0.1396(4)
H1 H 0.5766 -0.3078 0.0909
O2 O -0.0467(2) -0.32450(13) -0.3114(4)
H2 H -0.0744 -0.3011 -0.3492
O3 O 0.4549(3) -0.40250(16) 0.0906(5)
O4 O 0.4229(3) -0.35224(13) 0.2326(4)
O5 O 0.4148(4) -0.56768(17) 0.1415(7)
O6 O 0.3866(3) -0.59512(16) 0.3181(6)
O7 O 0.3826(2) -0.25562(17) 0.1690(5)
O8 O 0.3386(3) -0.19195(16) 0.1021(7)
O9 O 0.1803(3) -0.19267(18) -0.2178(5)
O10 O 0.1297(2) -0.2555(2) -0.2701(5)
O11 O 0.5073(3) -0.35037(16) -0.1249(4)
O12 O 0.4438(2) -0.29822(15) -0.0307(4)
O13 O 0.4888(2) -0.27111(13) -0.6669(4)
O14 O 0.5409(3) -0.32724(15) -0.5715(4)
O15 O 0.5232(2) -0.23132(13) 0.1083(4)
O16 O 0.4729(3) -0.17464(16) 0.0103(5)
O17 O 0.5684(2) -0.20178(16) -0.5330(4)
O18 O 0.4960(3) -0.15880(19) -0.4325(4)
O19 O 0.0748(3) -0.35364(14) -0.2171(5)
O20 O 0.0419(3) -0.40300(15) -0.3610(5)
O21 O 0.0950(3) -0.59582(15) -0.1233(6)
O22 O 0.0883(4) -0.57190(18) -0.3158(6)
C1 C 0.4284(4) -0.3935(2) 0.1911(7)
C2 C 0.4017(4) -0.4322(2) 0.2635(8)
C3 C 0.3712(6) -0.4239(3) 0.3760(11)
H3 H 0.3657 -0.3937 0.4043
C4 C 0.3492(8) -0.4616(3) 0.4452(12)
H4 H 0.3295 -0.4566 0.5204
C5 C 0.3571(6) -0.5067(3) 0.4012(10)
H5 H 0.3410 -0.5317 0.4459
C6 C 0.3878(4) -0.5148(2) 0.2938(8)
C7 C 0.4108(3) -0.4773(2) 0.2269(7)
H6 H 0.4332 -0.4830 0.1548
C8 C 0.3979(4) -0.5629(2) 0.2470(7)
C9 C 0.3437(3) -0.2360(2) 0.1065(6)
C10 C 0.2966(3) -0.2626(2) 0.0269(7)
C11 C 0.2957(4) -0.3117(2) 0.0312(8)
H7 H 0.3227 -0.3278 0.0837
C12 C 0.2547(4) -0.3347(2) -0.0429(8)
H8 H 0.2530 -0.3670 -0.0382
C13 C 0.2143(4) -0.3118(2) -0.1270(9)
H9 H 0.1872 -0.3285 -0.1779
C14 C 0.2164(3) -0.2634(2) -0.1314(7)
C15 C 0.2572(3) -0.2391(2) -0.0521(6)
H10 H 0.2575 -0.2067 -0.0531
C16 C 0.1725(3) -0.2365(2) -0.2120(7)
C17 C 0.4668(3) -0.3172(2) -0.1244(6)
C18 C 0.4444(3) -0.3000(2) -0.2457(6)
C19 C 0.3885(4) -0.2739(3) -0.2534(7)
H11 H 0.3654 -0.2672 -0.1828
C20 C 0.3680(4) -0.2581(4) -0.3645(9)
H12 H 0.3299 -0.2418 -0.3695
C21 C 0.4033(4) -0.2660(3) -0.4706(7)
H13 H 0.3891 -0.2546 -0.5457
C22 C 0.4581(3) -0.2903(2) -0.4642(5)
C23 C 0.4787(3) -0.30801(19) -0.3508(6)
H14 H 0.5160 -0.3253 -0.3469
C24 C 0.4988(3) -0.2965(2) -0.5752(5)
C25 C 0.5130(3) -0.2068(2) 0.0121(6)
C26 C 0.5503(3) -0.2164(2) -0.1002(6)
C27 C 0.6019(4) -0.2459(3) -0.0984(6)
H15 H 0.6145 -0.2597 -0.0251
C28 C 0.6349(4) -0.2550(3) -0.2043(8)
H16 H 0.6711 -0.2736 -0.2010
C29 C 0.6157(4) -0.2374(3) -0.3141(7)
H17 H 0.6369 -0.2455 -0.3860
C30 C 0.5637(3) -0.2069(2) -0.3179(6)
C31 C 0.5312(3) -0.1965(2) -0.2112(6)
H18 H 0.4966 -0.1763 -0.2133
C32 C 0.5418(4) -0.1873(2) -0.4380(6)
C33 C 0.0685(3) -0.3938(2) -0.2615(7)
C34 C 0.0923(4) -0.4336(2) -0.1840(7)
C35 C 0.1216(6) -0.4264(2) -0.0748(10)
H19 H 0.1296 -0.3961 -0.0486
C36 C 0.1392(7) -0.4622(3) -0.0042(11)
H20 H 0.1547 -0.4565 0.0743
C37 C 0.1348(6) -0.5081(3) -0.0458(11)
H21 H 0.1510 -0.5326 0.0003
C38 C 0.1055(4) -0.5159(2) -0.1586(8)
C39 C 0.0854(3) -0.4784(2) -0.2278(7)
H22 H 0.0670 -0.4834 -0.3044
C40 C 0.0951(4) -0.5653(2) -0.2050(9)
O23 O 0.3646(4) -0.1402(3) -0.5004(8)
H23 H 0.3519 -0.1640 -0.5397
H24 H 0.3679 -0.1469 -0.4246
O24 O 0.4567(5) -0.0656(2) -0.4399(8)
H25 H 0.4909 -0.0502 -0.4485
H26 H 0.4250 -0.0478 -0.4523
O25 O 0.6704(4) -0.3370(3) 0.4642(8)
H27 H 0.6587 -0.3586 0.5124
H28 H 0.6681 -0.3110 0.5012
O26 O 0.6322(4) -0.3696(3) -0.0490(9)
H29 H 0.6575 -0.3921 -0.0369
H30 H 0.6286 -0.3647 -0.1257
O27 O 0.5375(4) -0.4455(2) -0.0970(7)
H31 H 0.5394 -0.4364 -0.1712
H32 H 0.5683 -0.4638 -0.0824
Co1_2 Co 0.46503(4) -0.29630(2) -0.84811(7)
Co2C Co 0.54333(4) -0.20682(2) -0.71036(7)
Co2C_2 Co 0.54333(4) -0.20682(2) 0.28964(7)
Co3C Co -0.04350(5) -0.38044(3) -0.43156(8)
Co3B Co 0.04350(5) -0.61956(3) -0.43156(8)
Co4A Co 0.45671(6) -0.61375(3) 0.02182(9)
Co5C Co -0.08264(5) -0.33799(3) -0.15107(9)
Co5B Co 0.08264(5) -0.66201(3) -0.15107(9)
Co6A Co 0.39557(4) -0.66386(3) 0.29572(9)
Co6C Co 0.10443(4) -0.16386(3) -0.29572(9)
Co6_2 Co 0.60443(4) -0.33614(3) -0.70428(9)
O2C O 0.4533(2) -0.17550(13) -0.6886(4)
O2C_2 O 0.4533(2) -0.17550(13) 0.3114(4)
H2C H 0.4256 -0.1989 -0.6508
H2C_2 H 0.4256 -0.1989 0.3492
O5A O 0.5852(4) -0.43232(17) 0.1415(7)
O6A O 0.6134(3) -0.40488(16) 0.3181(6)
O9C O 0.6803(3) -0.30733(18) 0.2178(5)
O13_2 O 0.4888(2) -0.27111(13) 0.3331(4)
O13C O -0.0112(2) -0.22889(13) -0.3331(4)
O14_2 O 0.5409(3) -0.32724(15) 0.4285(4)
O15C O 0.0232(2) -0.26868(13) -0.1083(4)
O17C O 0.0684(2) -0.29822(16) -0.4670(4)
O20C O 0.5419(3) -0.09700(15) -0.6390(5)
O21B O 0.4050(3) -0.09582(15) 0.1233(6)
O22B O 0.4117(4) -0.07190(18) -0.6842(6)
O28 O 0.3754(7) 0.3873(5) 0.6699(15)
H33 H 0.3532 0.3656 0.7015
H34 H 0.4139 0.4082 0.6571
O29 O 0.7158(8) 0.3038(5) -0.6586(18)
H35 H 0.7120 0.3182 -0.5909
H36 H 0.6887 0.2908 -0.7052
O30 O 0.4787(18) 0.4262(13) -0.465(4)
H37 H 0.4919 0.4503 -0.5020
H38 H 0.4338 0.4115 -0.4869
O31 O 0.2310(8) 0.2923(6) 0.5967(19)
H39 H 0.2484 0.2692 0.5596
H40 H 0.2232 0.3185 0.6294
O32 O 0.3043(11) -0.0251(7) 0.455(3)
H41 H 0.3189 -0.0213 0.5273
O33 O 0.6957(16) 0.5252(11) -0.001(4)
H42 H 0.7081 0.5102 0.0620
O34 O 0.7298(15) 0.5525(11) 0.697(3)
H43 H 0.6992 0.5515 0.7481
O35 O 0.7989(13) 0.3396(9) -0.457(3)
H44 H 0.7623 0.3483 -0.4328
O36 O 0.4164(19) 0.0786(12) 0.733(4)
H45 H 0.4503 0.0790 0.7750
O37 O 0.5683(17) 0.4242(11) -0.295(4)
H46 H 0.6037 0.4104 -0.3043
O38 O 0.7341(13) 0.0925(10) 0.553(3)
H47 H 0.7624 0.1135 0.5450
O39 O 0.3160(15) 0.1217(11) -0.236(3)
H48 H 0.3199 0.1432 -0.1830
O40 O 0.2452(12) 0.3940(9) -0.030(3)
H49 H 0.2521 0.3834 -0.1014
O41 O 0.6054(10) 0.4666(7) -0.073(2)
H50 H 0.5775 0.4461 -0.0572
O42 O 0.7370(18) 0.1084(14) 0.827(4)
H51 H 0.7534 0.0867 0.8703
loop_
_geom_bond_atom_site_label_1
_geom_bond_atom_site_label_2
_geom_bond_site_symmetry_1
_geom_bond_site_symmetry_2
Co1 O1 1_555 1_555
Co2 O2 1_555 1_555
Co3 O18 1_555 1_555
Co4 O1 1_555 1_555
Co5 O8 1_555 1_555
Co6 O1 1_555 1_555
O1 H1 1_555 1_555
O2 H2 1_555 1_555
O3 Co4 1_555 1_555
O4 Co1 1_555 1_555
O5 C8 1_555 1_555
O6 C8 1_555 1_555
O7 Co1 1_555 1_555
O8 C9 1_555 1_555
O9 C16 1_555 1_555
O10 Co2 1_555 1_555
O11 Co4 1_555 1_555
O12 Co1 1_555 1_555
O13 C24 1_555 1_555
O14 C24 1_555 1_555
O15 Co1 1_555 1_555
O16 Co5 1_555 1_555
O17 C32 1_555 1_555
O18 C32 1_555 1_555
O19 Co2 1_555 1_555
O20 C33 1_555 1_555
O21 C40 1_555 1_555
O22 C40 1_555 1_555
C1 O3 1_555 1_555
C2 C1 1_555 1_555
C3 C2 1_555 1_555
H3 C3 1_555 1_555
C4 C3 1_555 1_555
H4 C4 1_555 1_555
C5 C4 1_555 1_555
H5 C5 1_555 1_555
C6 C5 1_555 1_555
C7 C2 1_555 1_555
H6 C7 1_555 1_555
C8 C6 1_555 1_555
C9 O7 1_555 1_555
C10 C9 1_555 1_555
C11 C10 1_555 1_555
H7 C11 1_555 1_555
C12 C11 1_555 1_555
H8 C12 1_555 1_555
C13 C12 1_555 1_555
H9 C13 1_555 1_555
C14 C13 1_555 1_555
C15 C10 1_555 1_555
H10 C15 1_555 1_555
C16 O10 1_555 1_555
C17 O11 1_555 1_555
C18 C17 1_555 1_555
C19 C18 1_555 1_555
H11 C19 1_555 1_555
C20 C19 1_555 1_555
H12 C20 1_555 1_555
C21 C20 1_555 1_555
H13 C21 1_555 1_555
C22 C21 1_555 1_555
C23 C18 1_555 1_555
H14 C23 1_555 1_555
C24 C22 1_555 1_555
C25 O15 1_555 1_555
C26 C25 1_555 1_555
C27 C26 1_555 1_555
H15 C27 1_555 1_555
C28 C27 1_555 1_555
H16 C28 1_555 1_555
C29 C28 1_555 1_555
H17 C29 1_555 1_555
C30 C29 1_555 1_555
C31 C26 1_555 1_555
H18 C31 1_555 1_555
C32 C30 1_555 1_555
C33 O19 1_555 1_555
C34 C33 1_555 1_555
C35 C34 1_555 1_555
H19 C35 1_555 1_555
C36 C35 1_555 1_555
H20 C36 1_555 1_555
C37 C36 1_555 1_555
H21 C37 1_555 1_555
C38 C37 1_555 1_555
C39 C34 1_555 1_555
H22 C39 1_555 1_555
C40 C38 1_555 1_555
O23 Co3 1_555 1_555
H23 O23 1_555 1_555
H24 O23 1_555 1_555
O24 Co3 1_555 1_555
H25 O24 1_555 1_555
H26 O24 1_555 1_555
O25 Co6 1_555 1_555
H27 O25 1_555 1_555
H28 O25 1_555 1_555
O26 Co4 1_555 1_555
H29 O26 1_555 1_555
H30 O26 1_555 1_555
O27 Co4 1_555 1_555
H31 O27 1_555 1_555
H32 O27 1_555 1_555
O28 H33 1_555 1_555
H34 O28 1_555 1_555
O29 H35 1_555 1_555
H36 O29 1_555 1_555
O30 H37 1_555 1_555
H38 O30 1_555 1_555
O31 H39 1_555 1_555
H40 O31 1_555 1_555
O32 H41 1_555 1_555
O33 H42 1_555 1_555
O34 H43 1_555 1_555
O35 H44 1_555 1_555
O36 H45 1_555 1_555
O37 H46 1_555 1_555
O38 H47 1_555 1_555
O39 H48 1_555 1_555
O40 H49 1_555 1_555
O41 H50 1_555 1_555
O42 H51 1_555 1_555
Co1_2 O13 1_555 1_555
Co2C O13 1_555 1_555
Co2C_2 O15 1_555 1_555
Co3C O2 1_555 1_555
Co3B O22 1_555 1_555
Co4A O5 1_555 1_555
Co5C O2 1_555 1_555
Co5B O21 1_555 1_555
Co6A O6 1_555 1_555
Co6C O9 1_555 1_555
Co6_2 O14 1_555 1_555
O2C Co3 1_555 1_555
O2C_2 Co5 1_555 1_555
H2C O2C 1_555 1_555
H2C_2 O2C_2 1_555 1_555
O5A Co4 1_555 1_555
O6A Co6 1_555 1_555
O9C Co6 1_555 1_555
O13_2 Co1 1_555 1_555
O13C Co2 1_555 1_555
O14_2 Co6 1_555 1_555
O15C Co2 1_555 1_555
O17C Co2 1_555 1_555
O20C Co3 1_555 1_555
O21B Co5 1_555 1_555
O22B Co3 1_555 1_555
O4 C1 1_555 1_555
O12 C17 1_555 1_555
O16 C25 1_555 1_555
O17 Co2C 1_555 1_555
O20 Co3C 1_555 1_555
C6 C7 1_555 1_555
C14 C15 1_555 1_555
C14 C16 1_555 1_555
C22 C23 1_555 1_555
C30 C31 1_555 1_555
C38 C39 1_555 1_555
Co2C O2C 1_555 1_555
Co2C_2 O2C_2 1_555 1_555
Co2C_2 O13_2 1_555 1_555

#END
