
#######################################################################
#
#                 Cambridge Crystallographic Data Centre
#                                CCDC 
#
#######################################################################
#
# If this CIF has been generated from an entry in the Cambridge 
# Structural Database, then it will include bibliographic, chemical, 
# crystal, experimental, refinement or atomic coordinate data resulting 
# from the CCDC's data processing and validation procedures.
#
#######################################################################

data_XADDUD
_chemical_formula_moiety         'C79 H72 Co20 O59'
_symmetry_cell_setting           tetragonal
_symmetry_space_group_name_H-M   'I 41/a'
_symmetry_Int_Tables_number      88
_space_group_name_Hall           '-I 4ad'
loop_
_symmetry_equiv_pos_site_id
_symmetry_equiv_pos_as_xyz
1 x,y,z
2 1/2-x,-y,1/2+z
3 3/4-y,1/4+x,1/4+z
4 3/4+y,3/4-x,3/4+z
5 1/2+x,1/2+y,1/2+z
6 -x,1/2-y,z
7 1/4-y,3/4+x,3/4+z
8 1/4+y,1/4-x,1/4+z
9 -x,-y,-z
10 1/2+x,y,1/2-z
11 1/4+y,3/4-x,3/4-z
12 1/4-y,1/4+x,1/4-z
13 1/2-x,1/2-y,1/2-z
14 x,1/2+y,-z
15 3/4+y,1/4-x,1/4-z
16 3/4-y,3/4+x,3/4-z
_cell_length_a                   30.530(2)
_cell_length_b                   30.530(2)
_cell_length_c                   11.2072(9)
_cell_angle_alpha                90
_cell_angle_beta                 90
_cell_angle_gamma                90
_cell_volume                     10446
loop_
_atom_site_label
_atom_site_type_symbol
_atom_site_fract_x
_atom_site_fract_y
_atom_site_fract_z
O11 O 0.70223(13) 0.73050(11) -0.1100(4)
H19 H 0.6830 0.7220 -0.1597
C20 C 0.6693(4) 0.6650(3) -0.0388(11)
H21 H 0.6756 0.6519 -0.1147
H22 H 0.6406 0.6778 -0.0408
H23 H 0.6704 0.6430 0.0223
C21 C 0.7019(2) 0.6992(2) -0.0133(7)
H24 H 0.7306 0.6848 -0.0141
C22 C 0.6988(4) 0.7218(3) 0.0988(8)
H25 H 0.7220 0.7429 0.1047
H26 H 0.7012 0.7011 0.1629
H27 H 0.6711 0.7366 0.1036
O14 O 0.530(2) 0.733(3) -0.358(6)
O14N O 0.483(3) 0.720(2) -0.392(6)
O14E O 0.470(2) 0.767(3) -0.358(6)
O14K O 0.517(3) 0.780(2) -0.392(6)
Co1 Co 0.732412(13) 0.864133(13) -0.17193(4)
Co2 Co 0.665670(12) 0.935710(12) -0.31961(4)
O1 O 0.71531(8) 0.83980(8) -0.3292(2)
O2 O 0.65585(7) 0.87519(7) -0.3924(2)
O3 O 0.72183(8) 0.68312(7) -0.3511(3)
O4 O 0.68328(7) 0.64685(6) -0.4880(2)
O5 O 0.78114(7) 0.90716(6) -0.2436(2)
O6 O 0.72994(7) 0.94285(8) -0.3479(2)
O7 O 0.75993(7) 1.08606(7) -0.5244(2)
O8 O 0.81621(7) 1.08652(7) -0.6447(2)
C1 C 0.68003(10) 0.84224(10) -0.3861(3)
C2 C 0.66713(11) 0.80157(10) -0.4524(3)
C3 C 0.63694(16) 0.80250(12) -0.5446(5)
H1 H 0.6239 0.8288 -0.5671
C4 C 0.6263(2) 0.76410(15) -0.6027(5)
H2 H 0.6068 0.7648 -0.6664
C5 C 0.64423(17) 0.72462(13) -0.5676(5)
H3 H 0.6360 0.6988 -0.6057
C6 C 0.67438(11) 0.72362(10) -0.4757(3)
C7 C 0.68607(10) 0.76218(10) -0.4195(3)
H4 H 0.7069 0.7617 -0.3589
C8 C 0.69457(10) 0.68122(10) -0.4352(3)
C9 C 0.76890(9) 0.93630(9) -0.3182(3)
C10 C 0.80163(9) 0.96522(9) -0.3787(3)
C11 C 0.84565(10) 0.95426(11) -0.3893(3)
H5 H 0.8563 0.9290 -0.3534
C12 C 0.87361(11) 0.98125(12) -0.4538(4)
H6 H 0.9031 0.9740 -0.4603
C13 C 0.85807(10) 1.01900(11) -0.5086(3)
H7 H 0.8768 1.0364 -0.5535
C14 C 0.81428(10) 1.03046(9) -0.4957(3)
C15 C 0.78655(10) 1.00360(10) -0.4308(3)
H8 H 0.7573 1.0114 -0.4221
C16 C 0.79549(10) 1.06933(10) -0.5569(3)
O9 O 0.68896(11) 0.82057(9) -0.0839(3)
H9 H 0.6988 0.8178 -0.0133
H10 H 0.6922 0.7958 -0.1174
C17 C 0.6317(4) 0.8405(4) 0.0503(11)
H12 H 0.6009 0.8458 0.0611
H13 H 0.6478 0.8668 0.0676
H14 H 0.6409 0.8176 0.1031
C18 C 0.6397(3) 0.8276(3) -0.0706(10)
C19 C 0.6127(3) 0.7938(4) -0.1262(12)
H16 H 0.5824 0.8014 -0.1183
H17 H 0.6180 0.7662 -0.0875
H18 H 0.6201 0.7915 -0.2092
Co1L Co 0.767588(13) 0.635867(13) -0.32807(4)
Co1A Co 0.767588(13) 1.135867(13) 0.32807(4)
Co1A_2 Co 0.767588(13) 1.135867(13) -0.67193(4)
Co1K Co 0.385867(13) 0.982412(13) -0.57807(4)
Co1C Co 0.614133(13) 1.017588(13) -0.42193(4)
Co1B Co 0.885867(13) 0.982412(13) -0.92193(4)
Co1B_2 Co 0.885867(13) 0.982412(13) 0.07807(4)
Co1M Co 0.732412(13) 1.364133(13) 0.17193(4)
Co2L Co 0.834330(12) 0.564290(12) -0.18039(4)
Co2N Co 0.685710(12) 0.584330(12) -0.43039(4)
Co2B Co 0.814290(12) 0.915670(12) -0.06961(4)
Co2C Co 0.685710(12) 1.084330(12) -0.56961(4)
Co2A Co 0.834330(12) 1.064290(12) -0.81961(4)
Co2C_2 Co 0.685710(12) 1.084330(12) 0.43039(4)
Co2A_2 Co 0.834330(12) 1.064290(12) 0.18039(4)
Co2K Co 0.314290(12) 0.915670(12) -0.43039(4)
Co2B_2 Co 0.814290(12) 0.915670(12) -1.06961(4)
Co2O Co 0.814290(12) 1.415670(12) 0.06961(4)
O1L O 0.78469(8) 0.66020(8) -0.1708(2)
O1K O 0.41020(8) 0.96531(8) -0.4208(2)
O1A O 0.78469(8) 1.16020(8) 0.1708(2)
O1A_2 O 0.78469(8) 1.16020(8) -0.8292(2)
O2L O 0.84415(7) 0.62481(7) -0.1076(2)
O2K O 0.37481(7) 0.90585(7) -0.3576(2)
O2A O 0.84415(7) 1.12481(7) 0.1076(2)
O2N O 0.62519(7) 0.59415(7) -0.3576(2)
O2B O 0.87481(7) 0.90585(7) -0.1424(2)
O3L O 0.77817(8) 0.81688(7) -0.1489(3)
O3K O 0.56688(7) 0.97183(8) -0.3989(3)
O3A O 0.77817(8) 1.31688(7) 0.1489(3)
O3M O 0.72183(8) 1.18312(7) 0.3511(3)
O3M_2 O 0.72183(8) 1.18312(7) -0.6489(3)
O4L O 0.81672(7) 0.85315(6) -0.0120(2)
O4K O 0.60315(6) 0.93328(7) -0.2620(2)
O4A O 0.81672(7) 1.35315(6) 0.0120(2)
O4G O 0.89685(6) 0.56672(7) -0.2380(2)
O5A O 0.71886(7) 1.09284(6) 0.2564(2)
O5C O 0.65716(6) 0.96886(7) -0.4936(2)
O5B O 0.84284(6) 1.03114(7) 0.0064(2)
O5L O 0.71886(7) 0.59284(6) -0.2564(2)
O5A_2 O 0.71886(7) 1.09284(6) -0.7436(2)
O5O O 0.84284(6) 0.53114(7) -0.0064(2)
O6A O 0.77006(7) 1.05715(8) 0.1521(2)
O6C O 0.69285(8) 1.02006(7) -0.5979(2)
O6B O 0.80715(8) 0.97994(7) -0.0979(2)
O6L O 0.77006(7) 0.55715(8) -0.1521(2)
O6N O 0.69285(8) 0.52006(7) -0.4021(2)
O7A O 0.74007(7) 0.91394(7) -0.0244(2)
O7C O 0.83606(7) 0.99007(7) -0.7744(2)
O7B O 0.66394(7) 1.00993(7) -0.2744(2)
O7M O 0.75993(7) 0.58606(7) -0.4756(2)
O7_2 O 0.75993(7) 1.08606(7) 0.4756(2)
O7N O 0.83606(7) 0.49007(7) -0.2256(2)
O8A O 0.68379(7) 0.91348(7) -0.1447(2)
O8C O 0.83652(7) 0.93379(7) -0.8947(2)
O8B O 0.66348(7) 1.06621(7) -0.3947(2)
O8M O 0.81621(7) 0.58652(7) -0.3553(2)
O8_2 O 0.81621(7) 1.08652(7) 0.3553(2)
O8O O 0.66348(7) 0.56621(7) -0.6053(2)
O8C_2 O 0.83652(7) 0.93379(7) 0.1053(2)
C1L C 0.81997(10) 0.65776(10) -0.1139(3)
C1K C 0.40776(10) 0.93003(10) -0.3639(3)
C1A C 0.81997(10) 1.15776(10) 0.1139(3)
C2L C 0.83287(11) 0.69843(10) -0.0476(3)
C2K C 0.44843(10) 0.91713(11) -0.2976(3)
C2A C 0.83287(11) 1.19843(10) 0.0476(3)
C3L C 0.86306(16) 0.69750(12) 0.0446(5)
C3K C 0.44750(12) 0.88694(16) -0.2054(5)
C3A C 0.86306(16) 1.19750(12) -0.0446(5)
H1L H 0.8761 0.6712 0.0671
H1K H 0.4212 0.8739 -0.1829
H1A H 0.8761 1.1712 -0.0671
C4L C 0.8737(2) 0.73590(15) 0.1027(5)
C4K C 0.48590(15) 0.8763(2) -0.1473(5)
C4A C 0.8737(2) 1.23590(15) -0.1027(5)
H2L H 0.8932 0.7352 0.1664
H2K H 0.4852 0.8568 -0.0836
H2A H 0.8932 1.2352 -0.1664
C5L C 0.85577(17) 0.77538(13) 0.0676(5)
C5K C 0.52538(13) 0.89423(17) -0.1824(5)
C5A C 0.85577(17) 1.27538(13) -0.0676(5)
H3L H 0.8640 0.8012 0.1057
H3K H 0.5512 0.8860 -0.1443
H3A H 0.8640 1.3012 -0.1057
C6L C 0.82562(11) 0.77638(10) -0.0243(3)
C6K C 0.52638(10) 0.92438(11) -0.2743(3)
C6A C 0.82562(11) 1.27638(10) 0.0243(3)
C7L C 0.81393(10) 0.73782(10) -0.0805(3)
C7K C 0.48782(10) 0.93607(10) -0.3305(3)
C7A C 0.81393(10) 1.23782(10) 0.0805(3)
H4L H 0.7931 0.7383 -0.1411
H4K H 0.4883 0.9569 -0.3911
H4A H 0.7931 1.2383 0.1411
C8L C 0.80543(10) 0.81878(10) -0.0648(3)
C8K C 0.56878(10) 0.94457(10) -0.3148(3)
C8A C 0.80543(10) 1.31878(10) 0.0648(3)
C9A C 0.73110(9) 1.06370(9) 0.1818(3)
C9C C 0.68630(9) 0.98110(9) -0.5682(3)
C9B C 0.81370(9) 1.01890(9) -0.0682(3)
C10A C 0.69837(9) 1.03478(9) 0.1213(3)
C10C C 0.71522(9) 0.94837(9) -0.6287(3)
C10B C 0.78478(9) 1.05163(9) -0.1287(3)
C11A C 0.65435(10) 1.04574(11) 0.1107(3)
C11C C 0.70426(11) 0.90435(10) -0.6393(3)
C11B C 0.79574(11) 1.09565(10) -0.1393(3)
H5A H 0.6437 1.0710 0.1466
H5C H 0.6790 0.8937 -0.6034
H5B H 0.8210 1.1063 -0.1034
C12A C 0.62639(11) 1.01875(12) 0.0462(4)
C12C C 0.73125(12) 0.87639(11) -0.7038(4)
C12B C 0.76875(12) 1.12361(11) -0.2038(4)
H6A H 0.5969 1.0260 0.0397
H6C H 0.7240 0.8469 -0.7103
H6B H 0.7760 1.1531 -0.2103
C13A C 0.64193(10) 0.98100(11) -0.0086(3)
C13C C 0.76900(11) 0.89193(10) -0.7586(3)
C13B C 0.73100(11) 1.10807(10) -0.2586(3)
H7A H 0.6232 0.9636 -0.0535
H7C H 0.7864 0.8732 -0.8035
H7B H 0.7136 1.1268 -0.3035
C14A C 0.68572(10) 0.96954(9) 0.0043(3)
C14C C 0.78046(9) 0.93572(10) -0.7457(3)
C14B C 0.71954(9) 1.06428(10) -0.2457(3)
C15A C 0.71345(10) 0.99640(10) 0.0692(3)
C15C C 0.75360(10) 0.96345(10) -0.6808(3)
C15B C 0.74640(10) 1.03655(10) -0.1808(3)
H8A H 0.7427 0.9886 0.0779
H8C H 0.7614 0.9927 -0.6721
H8B H 0.7386 1.0073 -0.1721
C16A C 0.70451(10) 0.93067(10) -0.0569(3)
C16C C 0.81933(10) 0.95451(10) -0.8069(3)
C16B C 0.68067(10) 1.04549(10) -0.3069(3)
O9L O 0.81104(11) 0.67943(9) -0.4161(3)
O9A O 0.81104(11) 1.17943(9) 0.4161(3)
O9A_2 O 0.81104(11) 1.17943(9) -0.5839(3)
H9L H 0.8012 0.6822 -0.4867
H9A H 0.8012 1.1822 0.4867
H9A_2 H 0.8012 1.1822 -0.5133
H10L H 0.8078 0.7042 -0.3826
H10A H 0.8078 1.2042 0.3826
H10A_2 H 0.8078 1.2042 -0.6174
C17L C 0.8683(4) 0.6595(4) -0.5503(11)
C17A C 0.8683(4) 1.1595(4) 0.5503(11)
C17A_2 C 0.8683(4) 1.1595(4) -0.4497(11)
H12L H 0.8991 0.6542 -0.5611
H12A H 0.8991 1.1542 0.5611
H12A_2 H 0.8991 1.1542 -0.4389
H13L H 0.8522 0.6332 -0.5676
H13A H 0.8522 1.1332 0.5676
H13A_2 H 0.8522 1.1332 -0.4324
H14L H 0.8591 0.6824 -0.6031
H14A H 0.8591 1.1824 0.6031
H14A_2 H 0.8591 1.1824 -0.3969
C18L C 0.8603(3) 0.6724(3) -0.4294(10)
C18A C 0.8603(3) 1.1724(3) 0.4294(10)
C18A_2 C 0.8603(3) 1.1724(3) -0.5706(10)
C19L C 0.8873(3) 0.7062(4) -0.3738(12)
C19A C 0.8873(3) 1.2062(4) 0.3738(12)
C19A_2 C 0.8873(3) 1.2062(4) -0.6262(12)
H16L H 0.9176 0.6986 -0.3817
H16A H 0.9176 1.1986 0.3817
H16A_2 H 0.9176 1.1986 -0.6183
H17L H 0.8820 0.7338 -0.4125
H17A H 0.8820 1.2338 0.4125
H17A_2 H 0.8820 1.2338 -0.5875
H18L H 0.8799 0.7085 -0.2908
H18A H 0.8799 1.2085 0.2908
H18A_2 H 0.8799 1.2085 -0.7092
loop_
_geom_bond_atom_site_label_1
_geom_bond_atom_site_label_2
_geom_bond_site_symmetry_1
_geom_bond_site_symmetry_2
Co1 O1 1_555 1_555
Co2 O2 1_555 1_555
O1 C1 1_555 1_555
O2 C1 1_555 1_555
O3 C8 1_555 1_555
O4 C8 1_555 1_555
O5 Co1 1_555 1_555
O6 Co2 1_555 1_555
O7 C16 1_555 1_555
O8 C16 1_555 1_555
C1 C2 1_555 1_555
C2 C3 1_555 1_555
C3 H1 1_555 1_555
C4 C3 1_555 1_555
H2 C4 1_555 1_555
C5 C4 1_555 1_555
H3 C5 1_555 1_555
C6 C5 1_555 1_555
C7 C2 1_555 1_555
H4 C7 1_555 1_555
C8 C6 1_555 1_555
C9 O5 1_555 1_555
C10 C9 1_555 1_555
C11 C10 1_555 1_555
H5 C11 1_555 1_555
C12 C11 1_555 1_555
H6 C12 1_555 1_555
C13 C12 1_555 1_555
H7 C13 1_555 1_555
C14 C13 1_555 1_555
C15 C10 1_555 1_555
H8 C15 1_555 1_555
C16 C14 1_555 1_555
O9 Co1 1_555 1_555
H9 O9 1_555 1_555
H10 O9 1_555 1_555
C17 H12 1_555 1_555
H13 C17 1_555 1_555
H14 C17 1_555 1_555
C18 O9 1_555 1_555
C19 C18 1_555 1_555
H16 C19 1_555 1_555
H17 C19 1_555 1_555
H18 C19 1_555 1_555
O11 H19 1_555 1_555
C20 H21 1_555 1_555
H22 C20 1_555 1_555
H23 C20 1_555 1_555
C21 O11 1_555 1_555
H24 C21 1_555 1_555
C22 C21 1_555 1_555
H25 C22 1_555 1_555
H26 C22 1_555 1_555
H27 C22 1_555 1_555
O14 O14N 1_555 1_555
Co1L O3 1_555 1_555
Co1A O1A 1_555 1_555
Co1A_2 O7 1_555 1_555
Co1K O1K 1_555 1_555
Co1C O3K 1_555 1_555
Co1B O7C 1_555 1_555
Co1B_2 O5B 1_555 1_555
Co1M O3A 1_555 1_555
Co2L O2L 1_555 1_555
Co2N O4 1_555 1_555
Co2B O5 1_555 1_555
Co2C O7 1_555 1_555
Co2A O8 1_555 1_555
Co2C_2 O5A 1_555 1_555
Co2A_2 O2A 1_555 1_555
Co2K O2K 1_555 1_555
Co2B_2 O8C 1_555 1_555
Co2O O4A 1_555 1_555
O1L Co1L 1_555 1_555
O1K C1K 1_555 1_555
O1A C1A 1_555 1_555
O1A_2 Co1A_2 1_555 1_555
O2L C1L 1_555 1_555
O2K C1K 1_555 1_555
O2A C1A 1_555 1_555
O2N Co2N 1_555 1_555
O2B Co2B 1_555 1_555
O3L Co1 1_555 1_555
O3K C8K 1_555 1_555
O3A C8A 1_555 1_555
O3M Co1A 1_555 1_555
O3M_2 Co1A_2 1_555 1_555
O4L Co2B 1_555 1_555
O4K Co2 1_555 1_555
O4A C8A 1_555 1_555
O4G Co2L 1_555 1_555
O5A Co1A 1_555 1_555
O5C Co2 1_555 1_555
O5B Co2A_2 1_555 1_555
O5L Co1L 1_555 1_555
O5A_2 Co1A_2 1_555 1_555
O5O Co2L 1_555 1_555
O6A Co2A_2 1_555 1_555
O6C Co2C 1_555 1_555
O6B Co2B 1_555 1_555
O6L Co2L 1_555 1_555
O6N Co2N 1_555 1_555
O7A Co1 1_555 1_555
O7C Co2A 1_555 1_555
O7B Co2 1_555 1_555
O7M Co1L 1_555 1_555
O7_2 Co1A 1_555 1_555
O7N Co2L 1_555 1_555
O8A Co1 1_555 1_555
O8C Co1B 1_555 1_555
O8B Co1C 1_555 1_555
O8M Co1L 1_555 1_555
O8_2 Co1A 1_555 1_555
O8O Co2N 1_555 1_555
O8C_2 Co1B_2 1_555 1_555
C1L O1L 1_555 1_555
C1K C2K 1_555 1_555
C1A C2A 1_555 1_555
C2L C1L 1_555 1_555
C2K C3K 1_555 1_555
C2A C3A 1_555 1_555
C3L C2L 1_555 1_555
C3K H1K 1_555 1_555
C3A H1A 1_555 1_555
H1L C3L 1_555 1_555
C4L C3L 1_555 1_555
C4K C3K 1_555 1_555
C4A C3A 1_555 1_555
H2L C4L 1_555 1_555
H2K C4K 1_555 1_555
H2A C4A 1_555 1_555
C5L C4L 1_555 1_555
C5K C4K 1_555 1_555
C5A C4A 1_555 1_555
H3L C5L 1_555 1_555
H3K C5K 1_555 1_555
H3A C5A 1_555 1_555
C6L C5L 1_555 1_555
C6K C5K 1_555 1_555
C6A C5A 1_555 1_555
C7L C2L 1_555 1_555
C7K C2K 1_555 1_555
C7A C2A 1_555 1_555
H4L C7L 1_555 1_555
H4K C7K 1_555 1_555
H4A C7A 1_555 1_555
C8L O3L 1_555 1_555
C8K O4K 1_555 1_555
C8A C6A 1_555 1_555
C9A O5A 1_555 1_555
C9C O5C 1_555 1_555
C9B O5B 1_555 1_555
C10A C9A 1_555 1_555
C10C C9C 1_555 1_555
C10B C9B 1_555 1_555
C11A C10A 1_555 1_555
C11C C10C 1_555 1_555
C11B C10B 1_555 1_555
H5A C11A 1_555 1_555
H5C C11C 1_555 1_555
H5B C11B 1_555 1_555
C12A C11A 1_555 1_555
C12C C11C 1_555 1_555
C12B C11B 1_555 1_555
H6A C12A 1_555 1_555
H6C C12C 1_555 1_555
H6B C12B 1_555 1_555
C13A C12A 1_555 1_555
C13C C12C 1_555 1_555
C13B C12B 1_555 1_555
H7A C13A 1_555 1_555
H7C C13C 1_555 1_555
H7B C13B 1_555 1_555
C14A C13A 1_555 1_555
C14C C13C 1_555 1_555
C14B C13B 1_555 1_555
C15A C10A 1_555 1_555
C15C C10C 1_555 1_555
C15B C10B 1_555 1_555
H8A C15A 1_555 1_555
H8C C15C 1_555 1_555
H8B C15B 1_555 1_555
C16A O7A 1_555 1_555
C16C O7C 1_555 1_555
C16B O7B 1_555 1_555
O9L Co1L 1_555 1_555
O9A Co1A 1_555 1_555
O9A_2 Co1A_2 1_555 1_555
H9L O9L 1_555 1_555
H9A O9A 1_555 1_555
H9A_2 O9A_2 1_555 1_555
H10L O9L 1_555 1_555
H10A O9A 1_555 1_555
H10A_2 O9A_2 1_555 1_555
C17L H12L 1_555 1_555
C17A H12A 1_555 1_555
C17A_2 H12A_2 1_555 1_555
H13L C17L 1_555 1_555
H13A C17A 1_555 1_555
H13A_2 C17A_2 1_555 1_555
H14L C17L 1_555 1_555
H14A C17A 1_555 1_555
H14A_2 C17A_2 1_555 1_555
C18L O9L 1_555 1_555
C18A O9A 1_555 1_555
C18A_2 O9A_2 1_555 1_555
C19L C18L 1_555 1_555
C19A C18A 1_555 1_555
C19A_2 C18A_2 1_555 1_555
H16L C19L 1_555 1_555
H16A C19A 1_555 1_555
H16A_2 C19A_2 1_555 1_555
H17L C19L 1_555 1_555
H17A C19A 1_555 1_555
H17A_2 C19A_2 1_555 1_555
H18L C19L 1_555 1_555
H18A C19A 1_555 1_555
H18A_2 C19A_2 1_555 1_555
O14N O14E 1_555 1_555
O14E O14K 1_555 1_555
O14K O14 1_555 1_555
Co2 O8A 1_555 1_555
O6 C9 1_555 1_555
O8 Co1A_2 1_555 1_555
C6 C7 1_555 1_555
C14 C15 1_555 1_555
C17 C18 1_555 1_555
C20 C21 1_555 1_555
Co1C O5C 1_555 1_555
Co1C O7B 1_555 1_555
Co2L O8M 1_555 1_555
Co2N O5L 1_555 1_555
Co2N O7M 1_555 1_555
Co2B O7A 1_555 1_555
Co2B O8C_2 1_555 1_555
Co2C O5A_2 1_555 1_555
Co2C O8B 1_555 1_555
Co2C_2 O7_2 1_555 1_555
Co2A_2 O8_2 1_555 1_555
O4L C8L 1_555 1_555
O6A C9A 1_555 1_555
O6C C9C 1_555 1_555
O6B C9B 1_555 1_555
O8A C16A 1_555 1_555
O8C C16C 1_555 1_555
O8B C16B 1_555 1_555
C6L C7L 1_555 1_555
C6L C8L 1_555 1_555
C6K C7K 1_555 1_555
C6K C8K 1_555 1_555
C6A C7A 1_555 1_555
C14A C15A 1_555 1_555
C14A C16A 1_555 1_555
C14C C15C 1_555 1_555
C14C C16C 1_555 1_555
C14B C15B 1_555 1_555
C14B C16B 1_555 1_555
C17L C18L 1_555 1_555
C17A C18A 1_555 1_555
C17A_2 C18A_2 1_555 1_555

#END
