
#######################################################################
#
#                 Cambridge Crystallographic Data Centre
#                                CCDC 
#
#######################################################################
#
# If this CIF has been generated from an entry in the Cambridge 
# Structural Database, then it will include bibliographic, chemical, 
# crystal, experimental, refinement or atomic coordinate data resulting 
# from the CCDC's data processing and validation procedures.
#
#######################################################################

data_ASIVEF
_chemical_formula_moiety         '(C92 H60 Cu6 N8 O26)n'
_symmetry_cell_setting           orthorhombic
_symmetry_space_group_name_H-M   'I m m m'
_symmetry_Int_Tables_number      71
_space_group_name_Hall           '-I 2 2'
loop_
_symmetry_equiv_pos_site_id
_symmetry_equiv_pos_as_xyz
1 x,y,z
2 -x,-y,z
3 x,-y,-z
4 -x,y,-z
5 1/2+x,1/2+y,1/2+z
6 1/2-x,1/2-y,1/2+z
7 1/2+x,1/2-y,1/2-z
8 1/2-x,1/2+y,1/2-z
9 -x,-y,-z
10 x,y,-z
11 -x,y,z
12 x,-y,z
13 1/2-x,1/2-y,1/2-z
14 1/2+x,1/2+y,1/2-z
15 1/2-x,1/2+y,1/2+z
16 1/2+x,1/2-y,1/2+z
_cell_length_a                   34.1668(10)
_cell_length_b                   34.1668(10)
_cell_length_c                   19.3425(9)
_cell_angle_alpha                90
_cell_angle_beta                 90
_cell_angle_gamma                90
_cell_volume                     22579.9
loop_
_atom_site_label
_atom_site_type_symbol
_atom_site_fract_x
_atom_site_fract_y
_atom_site_fract_z
Cu1 Cu 0.5000 0.03849(9) 0.5000
Cu2 Cu 0.24755(4) 0.24618(4) 0.81631(6)
Cu3 Cu 0.53790(7) 0.5000 1.0000
O1 O 0.27576(16) 0.19798(19) 0.8037(3)
O2 O 0.53306(14) 0.45959(18) 0.9262(3)
O3 O 0.45863(15) 0.03549(19) 0.5683(3)
O4 O 0.30309(16) 0.28098(16) 0.6982(3)
O5 O 0.2793(2) 0.20243(19) 0.6869(3)
O6 O 0.29839(16) 0.27229(19) 0.8137(3)
C1 C 0.5000 0.4097(4) 0.8653(8)
C2 C 0.4642(2) 0.3613(3) 0.8038(6)
C3 C 0.3142(2) 0.2844(3) 0.7579(5)
O7 O 0.6039(3) 0.5000 1.0000
C4 C 0.3965(3) 0.0352(3) 0.6571(6)
H1 H 0.4099 0.0582 0.6471
C5 C 0.3403(3) 0.0761(3) 0.7126(5)
C6 C 0.3602(3) 0.0349(3) 0.6942(6)
C7 C 0.2855(2) 0.1851(3) 0.7444(6)
C8 C 0.4045(3) 0.3291(3) 0.8462(6)
H2 H 0.4141 0.3326 0.8907
C9 C 0.3309(3) 0.0964(4) 0.6581(6)
H3 H 0.3350 0.0864 0.6140
N1 N 0.3087(4) 0.0000 0.7586(7)
C10 C 0.4097(5) 0.0000 0.6378(9)
C11 C 0.5000 0.4450(4) 0.9111(9)
C12 C 0.4449(3) 0.0000 0.5844(8)
N2 N 0.5000 0.3069(4) 0.7458(8)
H4 H 0.4763 0.3000 0.7329
C13 C 0.4249(3) 0.3401(3) 0.7929(5)
C14 C 0.4659(2) 0.3947(3) 0.8449(6)
H5 H 0.4428 0.4068 0.8585
C15 C 0.3136(4) 0.1354(3) 0.6675(6)
H6 H 0.3092 0.1521 0.6302
C16 C 0.3045(4) 0.1460(4) 0.7330(8)
C17 C 0.3304(3) 0.0868(4) 0.7753(7)
H7 H 0.3340 0.0700 0.8126
C18 C 0.3133(3) 0.1268(4) 0.7856(7)
H8 H 0.3094 0.1370 0.8297
C19 C 0.3666(4) 0.3114(3) 0.8351(5)
H9 H 0.3509 0.3047 0.8726
C20 C 0.5000 0.3430(5) 0.7793(8)
C21 C 0.3414(4) 0.0000 0.7192(8)
C22 C 0.3538(3) 0.3046(3) 0.7680(7)
C23 C 0.4124(3) 0.3342(3) 0.7249(6)
H10 H 0.4280 0.3422 0.6882
C24 C 0.3738(3) 0.3149(3) 0.7110(6)
H11 H 0.3644 0.3105 0.6665
N3 N 0.2465(3) 0.2440(2) 0.9278(3)
C25 C 0.2581(6) 0.2122(4) 0.95776(8)
H12 H 0.2661 0.1905 0.9325
C26 C 0.2231(4) 0.2623(4) 0.9600(2)
H13 H 0.2044 0.2769 0.9365
H14 H 0.2996(19) -0.022(2) 0.777(4)
O8 O 0.5000 0.1038(8) 0.5000
O1K O 0.27576(16) -0.19798(19) 0.8037(3)
O3K O 0.45863(15) -0.03549(19) 0.5683(3)
O5K O 0.2793(2) -0.20243(19) 0.6869(3)
C4K C 0.3965(3) -0.0352(3) 0.6571(6)
H1K H 0.4099 -0.0582 0.6471
C5K C 0.3403(3) -0.0761(3) 0.7126(5)
C6K C 0.3602(3) -0.0349(3) 0.6942(6)
C7K C 0.2855(2) -0.1851(3) 0.7444(6)
C9K C 0.3309(3) -0.0964(4) 0.6581(6)
H3K H 0.3350 -0.0864 0.6140
C15K C 0.3136(4) -0.1354(3) 0.6675(6)
H6K H 0.3092 -0.1521 0.6302
C16K C 0.3045(4) -0.1460(4) 0.7330(8)
C17K C 0.3304(3) -0.0868(4) 0.7753(7)
H7K H 0.3340 -0.0700 0.8126
C18K C 0.3133(3) -0.1268(4) 0.7856(7)
H8K H 0.3094 -0.1370 0.8297
H14K H 0.2996(19) 0.022(2) 0.777(4)
O2J O 0.46694(14) 0.45959(18) 0.9262(3)
O4J O 0.69691(16) 0.28098(16) 0.6982(3)
O6J O 0.70161(16) 0.27229(19) 0.8137(3)
C2J C 0.5358(2) 0.3613(3) 0.8038(6)
C3J C 0.6858(2) 0.2844(3) 0.7579(5)
C8J C 0.5955(3) 0.3291(3) 0.8462(6)
H2J H 0.5859 0.3326 0.8907
H4J H 0.5237 0.3000 0.7329
C13J C 0.5751(3) 0.3401(3) 0.7929(5)
C14J C 0.5341(2) 0.3947(3) 0.8449(6)
H5J H 0.5572 0.4068 0.8585
C19J C 0.6334(4) 0.3114(3) 0.8351(5)
H9J H 0.6491 0.3047 0.8726
C22J C 0.6462(3) 0.3046(3) 0.7680(7)
C23J C 0.5876(3) 0.3342(3) 0.7249(6)
H10J H 0.5720 0.3422 0.6882
C24J C 0.6262(3) 0.3149(3) 0.7110(6)
H11J H 0.6356 0.3105 0.6665
N3I N 0.2465(3) 0.2440(2) 1.0722(3)
C25I C 0.2581(6) 0.2122(4) 1.04224(8)
H12I H 0.2661 0.1905 1.0675
C26I C 0.2231(4) 0.2623(4) 1.0400(2)
H13I H 0.2044 0.2769 1.0635
Cu2A Cu 0.75245(4) -0.24618(4) 0.81631(6)
O1A O 0.72424(16) -0.19798(19) 0.8037(3)
O2A O 0.46694(14) -0.45959(18) 0.9262(3)
O3A O 0.54137(15) -0.03549(19) 0.5683(3)
O4A O 0.69691(16) -0.28098(16) 0.6982(3)
O5A O 0.7207(2) -0.20243(19) 0.6869(3)
O6A O 0.70161(16) -0.27229(19) 0.8137(3)
C1A C 0.5000 -0.4097(4) 0.8653(8)
C2A C 0.5358(2) -0.3613(3) 0.8038(6)
C3A C 0.6858(2) -0.2844(3) 0.7579(5)
C4A C 0.6035(3) -0.0352(3) 0.6571(6)
H1A H 0.5901 -0.0582 0.6471
C5A C 0.6597(3) -0.0761(3) 0.7126(5)
C6A C 0.6398(3) -0.0349(3) 0.6942(6)
C7A C 0.7145(2) -0.1851(3) 0.7444(6)
C8A C 0.5955(3) -0.3291(3) 0.8462(6)
H2A H 0.5859 -0.3326 0.8907
C9A C 0.6691(3) -0.0964(4) 0.6581(6)
H3A H 0.6650 -0.0864 0.6140
N1A N 0.6913(4) 0.0000 0.7586(7)
C10A C 0.5903(5) 0.0000 0.6378(9)
C11A C 0.5000 -0.4450(4) 0.9111(9)
C12A C 0.5551(3) 0.0000 0.5844(8)
N2A N 0.5000 -0.3069(4) 0.7458(8)
H4A H 0.5237 -0.3000 0.7329
C13A C 0.5751(3) -0.3401(3) 0.7929(5)
C14A C 0.5341(2) -0.3947(3) 0.8449(6)
H5A H 0.5572 -0.4068 0.8585
C15A C 0.6864(4) -0.1354(3) 0.6675(6)
H6A H 0.6908 -0.1521 0.6302
C16A C 0.6955(4) -0.1460(4) 0.7330(8)
C17A C 0.6696(3) -0.0868(4) 0.7753(7)
H7A H 0.6660 -0.0700 0.8126
C18A C 0.6867(3) -0.1268(4) 0.7856(7)
H8A H 0.6906 -0.1370 0.8297
C19A C 0.6334(4) -0.3114(3) 0.8351(5)
H9A H 0.6491 -0.3047 0.8726
C20A C 0.5000 -0.3430(5) 0.7793(8)
C21A C 0.6586(4) 0.0000 0.7192(8)
C22A C 0.6462(3) -0.3046(3) 0.7680(7)
C23A C 0.5876(3) -0.3342(3) 0.7249(6)
H10A H 0.5720 -0.3422 0.6882
C24A C 0.6262(3) -0.3149(3) 0.7110(6)
H11A H 0.6356 -0.3105 0.6665
N3A N 0.7535(3) -0.2440(2) 0.9278(3)
C25A C 0.7419(6) -0.2122(4) 0.95776(8)
H12A H 0.7339 -0.1905 0.9325
C26A C 0.7769(4) -0.2623(4) 0.9600(2)
H13A H 0.7956 -0.2769 0.9365
H14A H 0.7004(19) 0.022(2) 0.777(4)
O1J O 0.72424(16) 0.19798(19) 0.8037(3)
O3J O 0.54137(15) 0.03549(19) 0.5683(3)
O5J O 0.7207(2) 0.20243(19) 0.6869(3)
C4J C 0.6035(3) 0.0352(3) 0.6571(6)
H1J H 0.5901 0.0582 0.6471
C5J C 0.6597(3) 0.0761(3) 0.7126(5)
C6J C 0.6398(3) 0.0349(3) 0.6942(6)
C7J C 0.7145(2) 0.1851(3) 0.7444(6)
C9J C 0.6691(3) 0.0964(4) 0.6581(6)
H3J H 0.6650 0.0864 0.6140
C15J C 0.6864(4) 0.1354(3) 0.6675(6)
H6J H 0.6908 0.1521 0.6302
C16J C 0.6955(4) 0.1460(4) 0.7330(8)
C17J C 0.6696(3) 0.0868(4) 0.7753(7)
H7J H 0.6660 0.0700 0.8126
C18J C 0.6867(3) 0.1268(4) 0.7856(7)
H8J H 0.6906 0.1370 0.8297
H14J H 0.7004(19) -0.022(2) 0.777(4)
O2K O 0.53306(14) -0.45959(18) 0.9262(3)
O4K O 0.30309(16) -0.28098(16) 0.6982(3)
O6K O 0.29839(16) -0.27229(19) 0.8137(3)
C2K C 0.4642(2) -0.3613(3) 0.8038(6)
C3K C 0.3142(2) -0.2844(3) 0.7579(5)
C8K C 0.4045(3) -0.3291(3) 0.8462(6)
H2K H 0.4141 -0.3326 0.8907
H4K H 0.4763 -0.3000 0.7329
C13K C 0.4249(3) -0.3401(3) 0.7929(5)
C14K C 0.4659(2) -0.3947(3) 0.8449(6)
H5K H 0.4428 -0.4068 0.8585
C19K C 0.3666(4) -0.3114(3) 0.8351(5)
H9K H 0.3509 -0.3047 0.8726
C22K C 0.3538(3) -0.3046(3) 0.7680(7)
C23K C 0.4124(3) -0.3342(3) 0.7249(6)
H10K H 0.4280 -0.3422 0.6882
C24K C 0.3738(3) -0.3149(3) 0.7110(6)
H11K H 0.3644 -0.3105 0.6665
N3H N 0.7535(3) -0.2440(2) 1.0722(3)
C25H C 0.7419(6) -0.2122(4) 1.04224(8)
H12H H 0.7339 -0.1905 1.0675
C26H C 0.7769(4) -0.2623(4) 1.0400(2)
H13H H 0.7956 -0.2769 1.0635
Cu2L Cu 0.25245(4) 0.25382(4) 0.68369(6)
Cu2K Cu 0.24755(4) -0.24618(4) 0.81631(6)
Cu1A Cu 0.5000 -0.03849(9) 0.5000
Cu2F Cu 0.74755(4) 0.25382(4) 0.68369(6)
Cu2G Cu 0.25245(4) -0.25382(4) 0.68369(6)
Cu2H Cu 0.75245(4) -0.24618(4) 1.18369(6)
Cu2I Cu 0.24755(4) 0.24618(4) 1.18369(6)
Cu2J Cu 0.75245(4) 0.24618(4) 0.81631(6)
Cu2M Cu 0.74755(4) -0.25382(4) 0.68369(6)
Cu3_2 Cu 0.53790(7) -0.5000 1.0000
Cu3A Cu 0.46210(7) -0.5000 1.0000
Cu3A_2 Cu 0.46210(7) 0.5000 1.0000
O1L O 0.22424(16) 0.30202(19) 0.6963(3)
O2B O 0.53306(14) 0.54041(18) 1.0738(3)
O2I O 0.53306(14) 0.45959(18) 1.0738(3)
O2K_2 O 0.53306(14) 0.54041(18) 0.9262(3)
O3C O 0.54137(15) 0.03549(19) 0.4317(3)
O3I O 0.45863(15) 0.03549(19) 0.4317(3)
O4G O 0.19691(16) -0.21902(16) 0.8018(3)
O4L O 0.19691(16) 0.21902(16) 0.8018(3)
O4M O 0.80309(16) -0.21902(16) 0.8018(3)
O5G O 0.2207(2) -0.29757(19) 0.8131(3)
O5L O 0.2207(2) 0.29757(19) 0.8131(3)
O5M O 0.7793(2) -0.29757(19) 0.8131(3)
O6L O 0.20161(16) 0.22771(19) 0.6863(3)
N3K N 0.2465(3) -0.2440(2) 0.9278(3)
N3L N 0.2535(3) 0.2560(2) 0.5722(3)
loop_
_geom_bond_atom_site_label_1
_geom_bond_atom_site_label_2
_geom_bond_site_symmetry_1
_geom_bond_site_symmetry_2
Cu1 O3 1_555 1_555
Cu2 O1 1_555 1_555
Cu3 O2 1_555 1_555
O1 C7 1_555 1_555
O2 C11 1_555 1_555
O3 C12 1_555 1_555
O4 C3 1_555 1_555
O5 C7 1_555 1_555
O6 Cu2 1_555 1_555
C1 C11 1_555 1_555
C2 C13 1_555 1_555
C3 O6 1_555 1_555
O7 Cu3 1_555 1_555
C4 H1 1_555 1_555
C5 C6 1_555 1_555
C6 C4 1_555 1_555
C7 C16 1_555 1_555
C8 H2 1_555 1_555
C9 C5 1_555 1_555
H3 C9 1_555 1_555
N1 C21 1_555 1_555
C10 C4 1_555 1_555
C11 O2J 1_555 1_555
C12 C10 1_555 1_555
N2 H4 1_555 1_555
C13 C8 1_555 1_555
C14 C1 1_555 1_555
H5 C14 1_555 1_555
C15 C9 1_555 1_555
H6 C15 1_555 1_555
C16 C15 1_555 1_555
C17 C5 1_555 1_555
H7 C17 1_555 1_555
C18 C16 1_555 1_555
H8 C18 1_555 1_555
C19 C8 1_555 1_555
H9 C19 1_555 1_555
C20 C2 1_555 1_555
C21 C6 1_555 1_555
C22 C3 1_555 1_555
C23 C13 1_555 1_555
H10 C23 1_555 1_555
C24 C22 1_555 1_555
H11 C24 1_555 1_555
N3 Cu2 1_555 1_555
C25 N3 1_555 1_555
H12 C25 1_555 1_555
C26 N3 1_555 1_555
H13 C26 1_555 1_555
H14 N1 1_555 1_555
O8 Cu1 1_555 1_555
O1K C7K 1_555 1_555
O3K C12 1_555 1_555
O5K C7K 1_555 1_555
C4K C10 1_555 1_555
H1K C4K 1_555 1_555
C5K C6K 1_555 1_555
C6K C21 1_555 1_555
C7K C16K 1_555 1_555
C9K C5K 1_555 1_555
H3K C9K 1_555 1_555
C15K C9K 1_555 1_555
H6K C15K 1_555 1_555
C16K C15K 1_555 1_555
C17K C5K 1_555 1_555
H7K C17K 1_555 1_555
C18K C16K 1_555 1_555
H8K C18K 1_555 1_555
H14K N1 1_555 1_555
O2J Cu3A_2 1_555 1_555
O4J C3J 1_555 1_555
O6J C3J 1_555 1_555
C2J C20 1_555 1_555
C3J C22J 1_555 1_555
C8J H2J 1_555 1_555
H4J N2 1_555 1_555
C13J C2J 1_555 1_555
C14J C1 1_555 1_555
H5J C14J 1_555 1_555
C19J C8J 1_555 1_555
H9J C19J 1_555 1_555
C22J C19J 1_555 1_555
C23J C13J 1_555 1_555
H10J C23J 1_555 1_555
C24J C22J 1_555 1_555
H11J C24J 1_555 1_555
N3I C25I 1_555 1_555
C25I C25 1_555 1_555
H12I C25I 1_555 1_555
C26I C26 1_555 1_555
H13I C26I 1_555 1_555
Cu2A O1A 1_555 1_555
O1A C7A 1_555 1_555
O2A C11A 1_555 1_555
O3A C12A 1_555 1_555
O4A C3A 1_555 1_555
O5A C7A 1_555 1_555
O6A Cu2A 1_555 1_555
C1A C11A 1_555 1_555
C2A C13A 1_555 1_555
C3A O6A 1_555 1_555
C4A H1A 1_555 1_555
C5A C6A 1_555 1_555
C6A C4A 1_555 1_555
C7A C16A 1_555 1_555
C8A H2A 1_555 1_555
C9A C5A 1_555 1_555
H3A C9A 1_555 1_555
N1A C21A 1_555 1_555
C10A C4A 1_555 1_555
C11A O2K 1_555 1_555
C12A C10A 1_555 1_555
N2A H4A 1_555 1_555
C13A C8A 1_555 1_555
C14A C1A 1_555 1_555
H5A C14A 1_555 1_555
C15A C9A 1_555 1_555
H6A C15A 1_555 1_555
C16A C15A 1_555 1_555
C17A C5A 1_555 1_555
H7A C17A 1_555 1_555
C18A C16A 1_555 1_555
H8A C18A 1_555 1_555
C19A C8A 1_555 1_555
H9A C19A 1_555 1_555
C20A C2A 1_555 1_555
C21A C6A 1_555 1_555
C22A C3A 1_555 1_555
C23A C13A 1_555 1_555
H10A C23A 1_555 1_555
C24A C22A 1_555 1_555
H11A C24A 1_555 1_555
N3A Cu2A 1_555 1_555
C25A N3A 1_555 1_555
H12A C25A 1_555 1_555
C26A N3A 1_555 1_555
H13A C26A 1_555 1_555
H14A N1A 1_555 1_555
O1J C7J 1_555 1_555
O3J Cu1 1_555 1_555
O5J C7J 1_555 1_555
C4J C10A 1_555 1_555
H1J C4J 1_555 1_555
C5J C6J 1_555 1_555
C6J C21A 1_555 1_555
C7J C16J 1_555 1_555
C9J C5J 1_555 1_555
H3J C9J 1_555 1_555
C15J C9J 1_555 1_555
H6J C15J 1_555 1_555
C16J C15J 1_555 1_555
C17J C5J 1_555 1_555
H7J C17J 1_555 1_555
C18J C16J 1_555 1_555
H8J C18J 1_555 1_555
H14J N1A 1_555 1_555
O2K Cu3_2 1_555 1_555
O4K C3K 1_555 1_555
O6K C3K 1_555 1_555
C2K C20A 1_555 1_555
C3K C22K 1_555 1_555
C8K H2K 1_555 1_555
H4K N2A 1_555 1_555
C13K C2K 1_555 1_555
C14K C1A 1_555 1_555
H5K C14K 1_555 1_555
C19K C8K 1_555 1_555
H9K C19K 1_555 1_555
C22K C19K 1_555 1_555
C23K C13K 1_555 1_555
H10K C23K 1_555 1_555
C24K C22K 1_555 1_555
H11K C24K 1_555 1_555
N3H C25H 1_555 1_555
C25H C25A 1_555 1_555
H12H C25H 1_555 1_555
C26H C26A 1_555 1_555
H13H C26H 1_555 1_555
Cu2L O4 1_555 1_555
Cu2K O1K 1_555 1_555
Cu1A O3K 1_555 1_555
Cu2F O4J 1_555 1_555
Cu2G O5K 1_555 1_555
Cu2H N3H 1_555 1_555
Cu2I N3I 1_555 1_555
Cu2J O6J 1_555 1_555
Cu2M O4A 1_555 1_555
Cu3A O2A 1_555 1_555
O1L Cu2L 1_555 1_555
O2B Cu3 1_555 1_555
O2I Cu3 1_555 1_555
O2K_2 Cu3 1_555 1_555
O3C Cu1 1_555 1_555
O3I Cu1 1_555 1_555
O4G Cu2K 1_555 1_555
O4L Cu2 1_555 1_555
O4M Cu2A 1_555 1_555
O5G Cu2K 1_555 1_555
O5L Cu2 1_555 1_555
O5M Cu2A 1_555 1_555
O6L Cu2L 1_555 1_555
N3K Cu2K 1_555 1_555
N3L Cu2L 1_555 1_555
O5 Cu2L 1_555 1_555
C2 C14 1_555 1_555
N2 C20 1_555 1_555
C17 C18 1_555 1_555
C19 C22 1_555 1_555
C23 C24 1_555 1_555
C4K C6K 1_555 1_555
C17K C18K 1_555 1_555
C2J C14J 1_555 1_555
C8J C13J 1_555 1_555
C23J C24J 1_555 1_555
N3I C26I 1_555 1_555
O3A Cu1A 1_555 1_555
O5A Cu2M 1_555 1_555
C2A C14A 1_555 1_555
C12A O3J 1_555 1_555
N2A C20A 1_555 1_555
C17A C18A 1_555 1_555
C19A C22A 1_555 1_555
C23A C24A 1_555 1_555
O1J Cu2J 1_555 1_555
O5J Cu2F 1_555 1_555
C4J C6J 1_555 1_555
C17J C18J 1_555 1_555
O4K Cu2G 1_555 1_555
O6K Cu2K 1_555 1_555
C2K C14K 1_555 1_555
C8K C13K 1_555 1_555
C23K C24K 1_555 1_555
N3H C26H 1_555 1_555

#END
