
#######################################################################
#
#                 Cambridge Crystallographic Data Centre
#                                CCDC 
#
#######################################################################
#
# If this CIF has been generated from an entry in the Cambridge 
# Structural Database, then it will include bibliographic, chemical, 
# crystal, experimental, refinement or atomic coordinate data resulting 
# from the CCDC's data processing and validation procedures.
#
#######################################################################

data_ASIVAB
_chemical_formula_moiety         '(C84 H60 Cu6 N4 O30)n'
_symmetry_cell_setting           orthorhombic
_symmetry_space_group_name_H-M   'I m m m'
_symmetry_Int_Tables_number      71
_space_group_name_Hall           '-I 2 2'
loop_
_symmetry_equiv_pos_site_id
_symmetry_equiv_pos_as_xyz
1 x,y,z
2 -x,-y,z
3 x,-y,-z
4 -x,y,-z
5 1/2+x,1/2+y,1/2+z
6 1/2-x,1/2-y,1/2+z
7 1/2+x,1/2-y,1/2-z
8 1/2-x,1/2+y,1/2-z
9 -x,-y,-z
10 x,y,-z
11 -x,y,z
12 x,-y,z
13 1/2-x,1/2-y,1/2-z
14 1/2+x,1/2+y,1/2-z
15 1/2-x,1/2+y,1/2+z
16 1/2+x,1/2-y,1/2+z
_cell_length_a                   34.1449(7)
_cell_length_b                   34.1449(7)
_cell_length_c                   19.8843(12)
_cell_angle_alpha                90
_cell_angle_beta                 90
_cell_angle_gamma                90
_cell_volume                     23182.6
loop_
_atom_site_label
_atom_site_type_symbol
_atom_site_fract_x
_atom_site_fract_y
_atom_site_fract_z
Cu1 Cu 0.03829(3) 0.5000 0.0000
Cu2 Cu 0.24658(2) 0.25458(2) 0.31462(4)
Cu3 Cu 0.5000 0.46178(4) 0.0000
O1 O 0.1021(2) 0.5000 0.0000
O2 O 0.5000 0.3972(2) 0.0000
O3 O 0.19785(12) 0.28048(13) 0.3007(3)
O4 O 0.45842(11) 0.46701(10) 0.0660(2)
C1 C 0.1346(2) 0.3124(2) 0.1569(5)
H1 H 0.1500 0.3055 0.1201
C2 C 0.3156(3) 0.3646(2) 0.1542(6)
H2 H 0.3117 0.3484 0.1173
C3 C 0.07428(18) 0.34107(19) 0.2023(4)
C4 C 0.0978(2) 0.3312(2) 0.1511(4)
H3 H 0.0892 0.3373 0.1079
C5 C 0.3318(3) 0.4035(2) 0.1513(5)
H4 H 0.3364 0.4135 0.1085
C6 C 0.34134(19) 0.4273(2) 0.2035(5)
O5 O 0.03312(9) 0.45924(11) 0.0677(2)
C7 C 0.3131(2) 0.3757(2) 0.2848(8)
H5 H 0.3079 0.3681 0.3289
O6 O 0.2418(2) 0.2583(2) 0.4209(3)
H6 H 0.2607 0.2540 0.4496
H7 H 0.2205 0.2645 0.4429
N1 N 0.0000 0.3087(3) 0.2486(8)
N2 N 0.3083(3) 0.5000 0.2520(7)
O7 O 0.27389(14) 0.30299(15) 0.3037(4)
C8 C 0.3051(2) 0.3534(2) 0.2302(8)
O8 O 0.28161(19) 0.29761(15) 0.1917(4)
C9 C 0.03465(16) 0.39326(17) 0.1510(4)
H8 H 0.0581 0.4047 0.1376
C10 C 0.3597(2) 0.46448(18) 0.1931(4)
C11 C 0.39457(18) 0.46422(16) 0.1499(4)
C12 C 0.03591(17) 0.3594(2) 0.1903(4)
C13 C 0.4116(3) 0.5000 0.1314(5)
C14 C 0.12319(19) 0.3149(2) 0.2796(4)
H9 H 0.1308 0.3108 0.3240
O9 O 0.20407(17) 0.27237(17) 0.1832(3)
C15 C 0.3425(2) 0.5000 0.2097(5)
C16 C 0.0867(2) 0.3318(2) 0.2608(6)
H10 H 0.0696 0.3369 0.2960
C17 C 0.14583(18) 0.30511(17) 0.2256(5)
C18 C -0.0000 0.4103(2) 0.1315(5)
C19 C 0.0000 0.3423(3) 0.2134(6)
C20 C 0.3312(3) 0.41360(19) 0.2660(6)
H11 H 0.3363 0.4305 0.3015
C21 C 0.2852(2) 0.3143(2) 0.2386(8)
C22 C 0.18616(18) 0.28434(18) 0.2419(6)
C23 C -0.0000 0.4468(2) 0.0874(5)
C24 C 0.4469(3) 0.5000 0.0906(9)
H12 H 0.022(2) 0.307(2) 0.266(4)
H13 H 0.306(2) 0.473(2) 0.274(4)
H14 H 0.4101(9) 0.4422(4) 0.147(4)
O3J O -0.19785(12) 0.28048(13) 0.3007(3)
C1J C -0.1346(2) 0.3124(2) 0.1569(5)
H1J H -0.1500 0.3055 0.1201
C3J C -0.07428(18) 0.34107(19) 0.2023(4)
C4J C -0.0978(2) 0.3312(2) 0.1511(4)
H3J H -0.0892 0.3373 0.1079
O5J O -0.03312(9) 0.45924(11) 0.0677(2)
C9J C -0.03465(16) 0.39326(17) 0.1510(4)
H8J H -0.0581 0.4047 0.1376
C12J C -0.03591(17) 0.3594(2) 0.1903(4)
C14J C -0.12319(19) 0.3149(2) 0.2796(4)
H9J H -0.1308 0.3108 0.3240
O9J O -0.20407(17) 0.27237(17) 0.1832(3)
C16J C -0.0867(2) 0.3318(2) 0.2608(6)
H10J H -0.0696 0.3369 0.2960
C17J C -0.14583(18) 0.30511(17) 0.2256(5)
C22J C -0.18616(18) 0.28434(18) 0.2419(6)
H12J H -0.022(2) 0.307(2) 0.266(4)
O4K O 0.45842(11) 0.53299(10) 0.0660(2)
C2K C 0.3156(3) 0.6354(2) 0.1542(6)
H2K H 0.3117 0.6516 0.1173
C5K C 0.3318(3) 0.5965(2) 0.1513(5)
H4K H 0.3364 0.5865 0.1085
C6K C 0.34134(19) 0.5727(2) 0.2035(5)
C7K C 0.3131(2) 0.6243(2) 0.2848(8)
H5K H 0.3079 0.6319 0.3289
O7K O 0.27389(14) 0.69701(15) 0.3037(4)
C8K C 0.3051(2) 0.6466(2) 0.2302(8)
O8K O 0.28161(19) 0.70239(15) 0.1917(4)
C10K C 0.3597(2) 0.53552(18) 0.1931(4)
C11K C 0.39457(18) 0.53578(16) 0.1499(4)
C20K C 0.3312(3) 0.58640(19) 0.2660(6)
H11K H 0.3363 0.5695 0.3015
C21K C 0.2852(2) 0.6857(2) 0.2386(8)
H13K H 0.306(2) 0.527(2) 0.274(4)
H14K H 0.4101(9) 0.5578(4) 0.147(4)
Cu2A Cu -0.24658(2) 0.74542(2) 0.31462(4)
O3A O -0.19785(12) 0.71952(13) 0.3007(3)
O4A O -0.45842(11) 0.53299(10) 0.0660(2)
C1A C -0.1346(2) 0.6876(2) 0.1569(5)
H1A H -0.1500 0.6945 0.1201
C2A C -0.3156(3) 0.6354(2) 0.1542(6)
H2A H -0.3117 0.6516 0.1173
C3A C -0.07428(18) 0.65893(19) 0.2023(4)
C4A C -0.0978(2) 0.6688(2) 0.1511(4)
H3A H -0.0892 0.6627 0.1079
C5A C -0.3318(3) 0.5965(2) 0.1513(5)
H4A H -0.3364 0.5865 0.1085
C6A C -0.34134(19) 0.5727(2) 0.2035(5)
O5A O -0.03312(9) 0.54076(11) 0.0677(2)
C7A C -0.3131(2) 0.6243(2) 0.2848(8)
H5A H -0.3079 0.6319 0.3289
O6A O -0.2418(2) 0.7417(2) 0.4209(3)
H6A H -0.2607 0.7460 0.4496
H7A H -0.2205 0.7355 0.4429
N1A N 0.0000 0.6913(3) 0.2486(8)
N2A N -0.3083(3) 0.5000 0.2520(7)
O7A O -0.27389(14) 0.69701(15) 0.3037(4)
C8A C -0.3051(2) 0.6466(2) 0.2302(8)
O8A O -0.28161(19) 0.70239(15) 0.1917(4)
C9A C -0.03465(16) 0.60674(17) 0.1510(4)
H8A H -0.0581 0.5953 0.1376
C10A C -0.3597(2) 0.53552(18) 0.1931(4)
C11A C -0.39457(18) 0.53578(16) 0.1499(4)
C12A C -0.03591(17) 0.6406(2) 0.1903(4)
C13A C -0.4116(3) 0.5000 0.1314(5)
C14A C -0.12319(19) 0.6851(2) 0.2796(4)
H9A H -0.1308 0.6892 0.3240
O9A O -0.20407(17) 0.72763(17) 0.1832(3)
C15A C -0.3425(2) 0.5000 0.2097(5)
C16A C -0.0867(2) 0.6682(2) 0.2608(6)
H10A H -0.0696 0.6631 0.2960
C17A C -0.14583(18) 0.69489(17) 0.2256(5)
C18A C -0.0000 0.5897(2) 0.1315(5)
C19A C 0.0000 0.6577(3) 0.2134(6)
C20A C -0.3312(3) 0.58640(19) 0.2660(6)
H11A H -0.3363 0.5695 0.3015
C21A C -0.2852(2) 0.6857(2) 0.2386(8)
C22A C -0.18616(18) 0.71566(18) 0.2419(6)
C23A C 0.0000 0.5532(2) 0.0874(5)
C24A C -0.4469(3) 0.5000 0.0906(9)
H12A H -0.022(2) 0.693(2) 0.266(4)
H13A H -0.306(2) 0.527(2) 0.274(4)
H14A H -0.4101(9) 0.5578(4) 0.147(4)
O3K O 0.19785(12) 0.71952(13) 0.3007(3)
C1K C 0.1346(2) 0.6876(2) 0.1569(5)
H1K H 0.1500 0.6945 0.1201
C3K C 0.07428(18) 0.65893(19) 0.2023(4)
C4K C 0.0978(2) 0.6688(2) 0.1511(4)
H3K H 0.0892 0.6627 0.1079
O5K O 0.03312(9) 0.54076(11) 0.0677(2)
C9K C 0.03465(16) 0.60674(17) 0.1510(4)
H8K H 0.0581 0.5953 0.1376
C12K C 0.03591(17) 0.6406(2) 0.1903(4)
C14K C 0.12319(19) 0.6851(2) 0.2796(4)
H9K H 0.1308 0.6892 0.3240
O9K O 0.20407(17) 0.72763(17) 0.1832(3)
C16K C 0.0867(2) 0.6682(2) 0.2608(6)
H10K H 0.0696 0.6631 0.2960
C17K C 0.14583(18) 0.69489(17) 0.2256(5)
C22K C 0.18616(18) 0.71566(18) 0.2419(6)
H12K H 0.022(2) 0.693(2) 0.266(4)
O4J O -0.45842(11) 0.46701(10) 0.0660(2)
C2J C -0.3156(3) 0.3646(2) 0.1542(6)
H2J H -0.3117 0.3484 0.1173
C5J C -0.3318(3) 0.4035(2) 0.1513(5)
H4J H -0.3364 0.4135 0.1085
C6J C -0.34134(19) 0.4273(2) 0.2035(5)
C7J C -0.3131(2) 0.3757(2) 0.2848(8)
H5J H -0.3079 0.3681 0.3289
O7J O -0.27389(14) 0.30299(15) 0.3037(4)
C8J C -0.3051(2) 0.3534(2) 0.2302(8)
O8J O -0.28161(19) 0.29761(15) 0.1917(4)
C10J C -0.3597(2) 0.46448(18) 0.1931(4)
C11J C -0.39457(18) 0.46422(16) 0.1499(4)
C20J C -0.3312(3) 0.41360(19) 0.2660(6)
H11J H -0.3363 0.4305 0.3015
C21J C -0.2852(2) 0.3143(2) 0.2386(8)
H13J H -0.306(2) 0.473(2) 0.274(4)
H14J H -0.4101(9) 0.4422(4) 0.147(4)
Cu2L Cu 0.25342(2) 0.24542(2) 0.18538(4)
O6L O 0.2582(2) 0.2417(2) 0.0791(3)
H6L H 0.2393 0.2460 0.0504
H7L H 0.2795 0.2355 0.0571
Cu2J Cu -0.24658(2) 0.25458(2) 0.31462(4)
O6J O -0.2418(2) 0.2583(2) 0.4209(3)
H6J H -0.2607 0.2540 0.4496
H7J H -0.2205 0.2645 0.4429
Cu1A Cu -0.03829(3) 0.5000 0.0000
Cu2F Cu -0.25342(2) 0.24542(2) 0.18538(4)
Cu2G Cu 0.25342(2) 0.75458(2) 0.18538(4)
Cu2K Cu 0.24658(2) 0.74542(2) 0.31462(4)
Cu2M Cu -0.25342(2) 0.75458(2) 0.18538(4)
Cu3_2 Cu -0.5000 0.46178(4) 0.0000
Cu3A Cu -0.5000 0.53822(4) 0.0000
Cu3A_2 Cu 0.5000 0.53822(4) 0.0000
O3L O 0.30215(12) 0.21952(13) 0.1993(3)
O4C O 0.54158(11) 0.46701(10) -0.0660(2)
O4I O 0.45842(11) 0.46701(10) -0.0660(2)
O4J_2 O 0.54158(11) 0.46701(10) 0.0660(2)
O5B O 0.03312(9) 0.54076(11) -0.0677(2)
O5I O 0.03312(9) 0.45924(11) -0.0677(2)
O7L O 0.22611(14) 0.19701(15) 0.1963(4)
O8F O -0.21839(19) 0.20239(15) 0.3083(4)
O8L O 0.21839(19) 0.20239(15) 0.3083(4)
O8M O -0.21839(19) 0.79761(15) 0.3083(4)
O9F O -0.29593(17) 0.22763(17) 0.3168(3)
O9L O 0.29593(17) 0.22763(17) 0.3168(3)
O9M O -0.29593(17) 0.77237(17) 0.3168(3)
loop_
_geom_bond_atom_site_label_1
_geom_bond_atom_site_label_2
_geom_bond_site_symmetry_1
_geom_bond_site_symmetry_2
Cu1 O1 1_555 1_555
Cu2 O3 1_555 1_555
Cu3 O2 1_555 1_555
O3 C22 1_555 1_555
O4 Cu3 1_555 1_555
C1 H1 1_555 1_555
C2 H2 1_555 1_555
C3 C4 1_555 1_555
C4 C1 1_555 1_555
H3 C4 1_555 1_555
C5 C2 1_555 1_555
H4 C5 1_555 1_555
C6 C5 1_555 1_555
O5 Cu1 1_555 1_555
C7 H5 1_555 1_555
O6 Cu2 1_555 1_555
H6 O6 1_555 1_555
H7 O6 1_555 1_555
N1 C19 1_555 1_555
N2 C15 1_555 1_555
O7 Cu2 1_555 1_555
C8 C2 1_555 1_555
O8 C21 1_555 1_555
C9 H8 1_555 1_555
C10 C6 1_555 1_555
C11 C10 1_555 1_555
C12 C3 1_555 1_555
C13 C11 1_555 1_555
C14 H9 1_555 1_555
O9 C22 1_555 1_555
C15 C10 1_555 1_555
C16 C3 1_555 1_555
H10 C16 1_555 1_555
C17 C1 1_555 1_555
C18 C9 1_555 1_555
C19 C12 1_555 1_555
C20 C6 1_555 1_555
H11 C20 1_555 1_555
C21 O7 1_555 1_555
C22 C17 1_555 1_555
C23 O5 1_555 1_555
C24 O4 1_555 1_555
H12 N1 1_555 1_555
H13 N2 1_555 1_555
H14 C11 1_555 1_555
O3J C22J 1_555 1_555
C1J H1J 1_555 1_555
C3J C4J 1_555 1_555
C4J C1J 1_555 1_555
H3J C4J 1_555 1_555
O5J C23 1_555 1_555
C9J C18 1_555 1_555
H8J C9J 1_555 1_555
C12J C19 1_555 1_555
C14J H9J 1_555 1_555
O9J C22J 1_555 1_555
C16J C3J 1_555 1_555
H10J C16J 1_555 1_555
C17J C1J 1_555 1_555
C22J C17J 1_555 1_555
H12J N1 1_555 1_555
O4K C24 1_555 1_555
C2K H2K 1_555 1_555
C5K C2K 1_555 1_555
H4K C5K 1_555 1_555
C6K C5K 1_555 1_555
C7K H5K 1_555 1_555
O7K C21K 1_555 1_555
C8K C2K 1_555 1_555
O8K C21K 1_555 1_555
C10K C15 1_555 1_555
C11K C13 1_555 1_555
C20K C6K 1_555 1_555
H11K C20K 1_555 1_555
C21K C8K 1_555 1_555
H13K N2 1_555 1_555
H14K C11K 1_555 1_555
Cu2A O3A 1_555 1_555
O3A C22A 1_555 1_555
O4A C24A 1_555 1_555
C1A H1A 1_555 1_555
C2A H2A 1_555 1_555
C3A C4A 1_555 1_555
C4A C1A 1_555 1_555
H3A C4A 1_555 1_555
C5A C2A 1_555 1_555
H4A C5A 1_555 1_555
C6A C5A 1_555 1_555
O5A C23A 1_555 1_555
C7A H5A 1_555 1_555
O6A Cu2A 1_555 1_555
H6A O6A 1_555 1_555
H7A O6A 1_555 1_555
N1A C19A 1_555 1_555
N2A C15A 1_555 1_555
O7A Cu2A 1_555 1_555
C8A C2A 1_555 1_555
O8A C21A 1_555 1_555
C9A H8A 1_555 1_555
C10A C6A 1_555 1_555
C11A C10A 1_555 1_555
C12A C3A 1_555 1_555
C13A C11A 1_555 1_555
C14A H9A 1_555 1_555
O9A C22A 1_555 1_555
C15A C10A 1_555 1_555
C16A C3A 1_555 1_555
H10A C16A 1_555 1_555
C17A C1A 1_555 1_555
C18A C9A 1_555 1_555
C19A C12A 1_555 1_555
C20A C6A 1_555 1_555
H11A C20A 1_555 1_555
C21A O7A 1_555 1_555
C22A C17A 1_555 1_555
C23A C18A 1_555 1_555
C24A C13A 1_555 1_555
H12A N1A 1_555 1_555
H13A N2A 1_555 1_555
H14A C11A 1_555 1_555
O3K C22K 1_555 1_555
C1K H1K 1_555 1_555
C3K C4K 1_555 1_555
C4K C1K 1_555 1_555
H3K C4K 1_555 1_555
O5K Cu1 1_555 1_555
C9K C18A 1_555 1_555
H8K C9K 1_555 1_555
C12K C19A 1_555 1_555
C14K H9K 1_555 1_555
O9K C22K 1_555 1_555
C16K C3K 1_555 1_555
H10K C16K 1_555 1_555
C17K C1K 1_555 1_555
C22K C17K 1_555 1_555
H12K N1A 1_555 1_555
O4J C24A 1_555 1_555
C2J H2J 1_555 1_555
C5J C2J 1_555 1_555
H4J C5J 1_555 1_555
C6J C5J 1_555 1_555
C7J H5J 1_555 1_555
O7J C21J 1_555 1_555
C8J C2J 1_555 1_555
O8J C21J 1_555 1_555
C10J C15A 1_555 1_555
C11J C13A 1_555 1_555
C20J C6J 1_555 1_555
H11J C20J 1_555 1_555
C21J C8J 1_555 1_555
H13J N2A 1_555 1_555
H14J C11J 1_555 1_555
Cu2L O8 1_555 1_555
O6L Cu2L 1_555 1_555
H6L O6L 1_555 1_555
H7L O6L 1_555 1_555
Cu2J O3J 1_555 1_555
O6J Cu2J 1_555 1_555
H6J O6J 1_555 1_555
H7J O6J 1_555 1_555
Cu1A O5J 1_555 1_555
Cu2F O9J 1_555 1_555
Cu2G O8K 1_555 1_555
Cu2K O7K 1_555 1_555
Cu2M O8A 1_555 1_555
Cu3_2 O4J 1_555 1_555
Cu3A O4A 1_555 1_555
Cu3A_2 O4K 1_555 1_555
O3L Cu2L 1_555 1_555
O4C Cu3 1_555 1_555
O4I Cu3 1_555 1_555
O4J_2 Cu3 1_555 1_555
O5B Cu1 1_555 1_555
O5I Cu1 1_555 1_555
O7L Cu2L 1_555 1_555
O8F Cu2J 1_555 1_555
O8L Cu2 1_555 1_555
O8M Cu2A 1_555 1_555
O9F Cu2J 1_555 1_555
O9L Cu2 1_555 1_555
O9M Cu2A 1_555 1_555
C7 C8 1_555 1_555
C7 C20 1_555 1_555
C8 C21 1_555 1_555
C9 C12 1_555 1_555
C13 C24 1_555 1_555
C14 C16 1_555 1_555
C14 C17 1_555 1_555
O9 Cu2L 1_555 1_555
C18 C23 1_555 1_555
C3J C12J 1_555 1_555
C9J C12J 1_555 1_555
C14J C16J 1_555 1_555
C14J C17J 1_555 1_555
C6K C10K 1_555 1_555
C7K C8K 1_555 1_555
C7K C20K 1_555 1_555
C10K C11K 1_555 1_555
O5A Cu1A 1_555 1_555
C7A C8A 1_555 1_555
C7A C20A 1_555 1_555
C8A C21A 1_555 1_555
C9A C12A 1_555 1_555
C14A C16A 1_555 1_555
C14A C17A 1_555 1_555
O9A Cu2M 1_555 1_555
C23A O5K 1_555 1_555
O3K Cu2K 1_555 1_555
C3K C12K 1_555 1_555
C9K C12K 1_555 1_555
C14K C16K 1_555 1_555
C14K C17K 1_555 1_555
O9K Cu2G 1_555 1_555
C6J C10J 1_555 1_555
C7J C8J 1_555 1_555
C7J C20J 1_555 1_555
O7J Cu2J 1_555 1_555
O8J Cu2F 1_555 1_555
C10J C11J 1_555 1_555

#END
