
#######################################################################
#
#                 Cambridge Crystallographic Data Centre
#                                CCDC 
#
#######################################################################
#
# If this CIF has been generated from an entry in the Cambridge 
# Structural Database, then it will include bibliographic, chemical, 
# crystal, experimental, refinement or atomic coordinate data resulting 
# from the CCDC's data processing and validation procedures.
#
#######################################################################

data_EQOCES01
_chemical_formula_moiety         '(C18 H24 Co2 N8 O1)n'
_symmetry_cell_setting           orthorhombic
_symmetry_space_group_name_H-M   'P b c a'
_symmetry_Int_Tables_number      61
_space_group_name_Hall           '-P 2ac 2ab'
loop_
_symmetry_equiv_pos_site_id
_symmetry_equiv_pos_as_xyz
1 x,y,z
2 1/2+x,y,1/2-z
3 x,1/2-y,1/2+z
4 1/2-x,1/2+y,z
5 -x,-y,-z
6 1/2-x,-y,1/2+z
7 -x,1/2+y,1/2-z
8 1/2+x,1/2-y,-z
_cell_length_a                   15.9712(18)
_cell_length_b                   15.9253(19)
_cell_length_c                   18.475(2)
_cell_angle_alpha                90
_cell_angle_beta                 90
_cell_angle_gamma                90
_cell_volume                     4699.05
loop_
_atom_site_label
_atom_site_type_symbol
_atom_site_fract_x
_atom_site_fract_y
_atom_site_fract_z
_atom_site_U_iso_or_equiv
_atom_site_thermal_displace_type
Co1 Co 0.31203(3) 0.13639(3) 0.60097(3) 0.0561 Uani
Co2 Co 0.00494(3) 0.32136(3) 0.67494(2) 0.0563 Uani
N1 N 0.19034(18) 0.1553(2) 0.61272(15) 0.0623 Uani
N2 N 0.07288(19) 0.2264(2) 0.63945(15) 0.0617 Uani
N3 N 0.34213(17) 0.13422(19) 0.49770(15) 0.0582 Uani
N4 N 0.41535(17) 0.14988(19) 0.39452(16) 0.0583 Uani
N5 N 0.34307(18) 0.03100(19) 0.65094(16) 0.0600 Uani
N6 N 0.41642(17) -0.08258(19) 0.68436(16) 0.0590 Uani
N7 N 0.44973(16) 0.2974(2) 0.73175(15) 0.0577 Uani
N8 N 0.37437(16) 0.2295(2) 0.64759(16) 0.0593 Uani
C1 C 0.1222(3) 0.1055(3) 0.6007(3) 0.1053 Uani
C2 C 0.0527(3) 0.1495(4) 0.6163(3) 0.1050 Uani
C3 C 0.1559(3) 0.2253(3) 0.6358(2) 0.0597 Uani
C4 C 0.2963(3) 0.1065(3) 0.4407(3) 0.0813 Uani
C5 C 0.3397(3) 0.1146(3) 0.3793(3) 0.0830 Uani
C6 C 0.4114(2) 0.1602(3) 0.4648(2) 0.0643 Uani
C7 C 0.3058(3) -0.0071(3) 0.7079(3) 0.0957 Uani
C8 C 0.3496(3) -0.0737(4) 0.7285(3) 0.0977 Uani
C9 C 0.4087(2) -0.0188(3) 0.6402(2) 0.0600 Uani
C10 C 0.4307(3) 0.3504(3) 0.6773(3) 0.0913 Uani
C11 C 0.3862(3) 0.3101(3) 0.6268(3) 0.0890 Uani
C12 C 0.4139(2) 0.2266(3) 0.7109(2) 0.0573 Uani
H1 H 0.131(2) 0.054(2) 0.5815(18) 0.0880 Uiso
H2 H 0.003(2) 0.134(3) 0.610(2) 0.1070 Uiso
H3 H 0.1843(17) 0.2687(19) 0.6443(15) 0.0490 Uiso
H4 H 0.2519(19) 0.086(2) 0.4489(18) 0.0700 Uiso
H5 H 0.3301(18) 0.103(2) 0.3348(16) 0.0650 Uiso
H6 H 0.4515(15) 0.1807(16) 0.4907(13) 0.0310 Uiso
H7 H 0.2606(19) 0.011(2) 0.7239(17) 0.0760 Uiso
H8 H 0.337(2) -0.110(2) 0.7611(19) 0.0900 Uiso
H9 H 0.4410(16) -0.0058(18) 0.6040(15) 0.0490 Uiso
H10 H 0.452(2) 0.402(2) 0.6802(18) 0.0780 Uiso
H11 H 0.366(2) 0.329(3) 0.586(2) 0.1140 Uiso
H12 H 0.4162(16) 0.1783(19) 0.7346(15) 0.0510 Uiso
N4G N -0.08465(17) 0.35012(19) 0.60548(16) 0.0583 Uani
N6C N 0.08358(17) 0.41742(19) 0.68436(16) 0.0590 Uani
N7A N -0.05027(16) 0.2974(2) 0.76825(15) 0.0577 Uani
Co2G Co 0.50494(3) 0.17864(3) 0.32506(2) 0.0563 Uani
Co2C Co 0.49506(3) -0.17864(3) 0.67494(2) 0.0563 Uani
Co2A Co 0.50494(3) 0.32136(3) 0.82506(2) 0.0563 Uani
C13 C 0.2808(5) 0.8652(5) 0.4641(4) 0.1543 Uani
H13 H 0.2686 0.8078 0.4798 0.1850 Uiso
C14 C 0.3674(4) 0.8648(5) 0.4598(3) 0.2153 Uani
H14 H 0.3893 0.8425 0.5049 0.2590 Uiso
H15 H 0.3865 0.9225 0.4559 0.2590 Uiso
C15 C 0.4023(4) 0.8189(5) 0.4026(4) 0.2357 Uani
H16 H 0.4007 0.7599 0.4154 0.2830 Uiso
H17 H 0.4608 0.8347 0.3981 0.2830 Uiso
C16 C 0.3635(4) 0.8287(6) 0.3333(4) 0.2800 Uani
H18 H 0.3796 0.8828 0.3135 0.3360 Uiso
H19 H 0.3849 0.7857 0.3011 0.3360 Uiso
C17 C 0.2786(5) 0.8240(4) 0.3341(3) 0.1603 Uani
H20 H 0.2630 0.7652 0.3374 0.1920 Uiso
H21 H 0.2579 0.8448 0.2881 0.1920 Uiso
C18 C 0.2352(4) 0.8703(5) 0.3930(5) 0.1587 Uani
H22 H 0.2415 0.9293 0.3789 0.1910 Uiso
O2 O 0.1633(7) 0.8629(8) 0.4016(7) 0.3537 Uani
H24 H 0.1394 0.8653 0.3624 0.5300 Uiso
loop_
_atom_site_aniso_label
_atom_site_aniso_U_11
_atom_site_aniso_U_22
_atom_site_aniso_U_33
_atom_site_aniso_U_23
_atom_site_aniso_U_13
_atom_site_aniso_U_12
Co1 0.0477(3) 0.0597(4) 0.0609(3) -0.0037(3) 0.0002(2) 0.0038(3)
Co2 0.0469(3) 0.0628(4) 0.0593(3) 0.0044(3) 0.0045(3) 0.0003(3)
N1 0.051(2) 0.057(2) 0.079(2) -0.0080(18) 0.0016(17) 0.0031(18)
N2 0.047(2) 0.064(3) 0.074(2) -0.0042(18) 0.0055(16) -0.0045(17)
N3 0.0435(19) 0.068(2) 0.063(2) -0.0085(17) -0.0014(16) -0.0059(16)
N4 0.051(2) 0.069(2) 0.055(2) -0.0029(17) -0.0074(16) -0.0071(15)
N5 0.049(2) 0.061(2) 0.070(2) -0.0013(18) 0.0096(16) 0.0063(17)
N6 0.056(2) 0.062(2) 0.059(2) 0.0064(18) 0.0055(16) 0.0020(16)
N7 0.057 0.059 0.057 0.0008 -0.004 -0.003
N8 0.053 0.066 0.059 0.0029 -0.0089 0.0001
C1 0.056(3) 0.073(4) 0.187(5) -0.055(4) 0.017(3) -0.007(3)
C2 0.043(3) 0.098(5) 0.174(5) -0.043(4) 0.006(3) -0.011(3)
C3 0.051(3) 0.059(3) 0.069(3) 0.000(2) 0.000(2) -0.007(2)
C4 0.062(3) 0.102(4) 0.080(4) -0.015(3) 0.012(3) -0.033(3)
C5 0.081(4) 0.114(5) 0.054(3) -0.012(3) 0.000(3) -0.031(3)
C6 0.043(3) 0.083(3) 0.067(3) -0.005(2) -0.015(2) -0.007(2)
C7 0.085(4) 0.086(4) 0.116(4) 0.015(3) 0.050(3) 0.024(3)
C8 0.112(4) 0.083(4) 0.098(4) 0.037(3) 0.053(3) 0.029(3)
C9 0.053(3) 0.071(3) 0.056(3) 0.005(2) 0.009(2) -0.003(2)
C10 0.111 0.065 0.098 0.01 -0.038 -0.023
C11 0.108 0.079 0.08 0.018 -0.045 -0.016
C12 0.061 0.056 0.055 0.007 0 0.001
N4G 0.051 0.069 0.055 -0.0029 0.0074 0.0071
N6C 0.056 0.062 0.059 0.0064 -0.0055 -0.002
N7A 0.057(2) 0.059(2) 0.057(2) -0.0008(18) 0.0040(15) -0.0030(16)
Co2G 0.0469 0.0628 0.0593 0.0044 -0.0045 -0.0003
Co2C 0.0469 0.0628 0.0593 0.0044 -0.0045 -0.0003
Co2A 0.0469 0.0628 0.0593 -0.0044 -0.0045 0.0003
C13 0.142(7) 0.222(8) 0.099(5) 0.000(5) 0.035(6) 0.020(6)
C14 0.117(6) 0.430(13) 0.099(5) -0.055(6) -0.019(4) 0.092(7)
C15 0.162(6) 0.427(13) 0.118(6) -0.105(7) -0.040(5) 0.117(7)
C16 0.107(6) 0.601(18) 0.132(6) -0.144(8) -0.036(5) 0.100(8)
C17 0.155(6) 0.200(8) 0.126(5) -0.037(5) -0.033(5) 0.027(6)
C18 0.047(4) 0.213(8) 0.216(10) -0.015(7) -0.003(5) 0.001(4)
O2 0.143(11) 0.47(2) 0.448(19) 0.045(14) -0.027(11) -0.053(11)
loop_
_geom_bond_atom_site_label_1
_geom_bond_atom_site_label_2
_geom_bond_site_symmetry_1
_geom_bond_site_symmetry_2
Co1 N1 1_555 1_555
Co2 N2 1_555 1_555
N1 C1 1_555 1_555
N2 C2 1_555 1_555
N3 Co1 1_555 1_555
N4 C5 1_555 1_555
N5 Co1 1_555 1_555
N6 C8 1_555 1_555
N7 C10 1_555 1_555
N8 Co1 1_555 1_555
C1 C2 1_555 1_555
C2 H2 1_555 1_555
C3 N1 1_555 1_555
C4 N3 1_555 1_555
C5 C4 1_555 1_555
C6 N3 1_555 1_555
C7 N5 1_555 1_555
C8 C7 1_555 1_555
C9 N5 1_555 1_555
C10 C11 1_555 1_555
C11 N8 1_555 1_555
C12 N7 1_555 1_555
H1 C1 1_555 1_555
H3 C3 1_555 1_555
H4 C4 1_555 1_555
H5 C5 1_555 1_555
H6 C6 1_555 1_555
H7 C7 1_555 1_555
H8 C8 1_555 1_555
H9 C9 1_555 1_555
H10 C10 1_555 1_555
H11 C11 1_555 1_555
H12 C12 1_555 1_555
C13 H13 1_555 1_555
C14 C13 1_555 1_555
H14 C14 1_555 1_555
H15 C14 1_555 1_555
C15 C14 1_555 1_555
H16 C15 1_555 1_555
H17 C15 1_555 1_555
C16 C15 1_555 1_555
H18 C16 1_555 1_555
H19 C16 1_555 1_555
C17 C16 1_555 1_555
H20 C17 1_555 1_555
H21 C17 1_555 1_555
C18 C13 1_555 1_555
H22 C18 1_555 1_555
O2 C18 1_555 1_555
H24 O2 1_555 1_555
N4G Co2 1_555 1_555
N6C Co2 1_555 1_555
N7A Co2 1_555 1_555
Co2G N4 1_555 1_555
Co2C N6 1_555 1_555
Co2A N7 1_555 1_555
N2 C3 1_555 1_555
N4 C6 1_555 1_555
N6 C9 1_555 1_555
N8 C12 1_555 1_555
C17 C18 1_555 1_555

#END
