
#######################################################################
#
#                 Cambridge Crystallographic Data Centre
#                                CCDC 
#
#######################################################################
#
# If this CIF has been generated from an entry in the Cambridge 
# Structural Database, then it will include bibliographic, chemical, 
# crystal, experimental, refinement or atomic coordinate data resulting 
# from the CCDC's data processing and validation procedures.
#
#######################################################################

data_FOJLOH
_chemical_formula_moiety         '(C33 H30 O10 Zn1)n'
_symmetry_cell_setting           monoclinic
_symmetry_space_group_name_H-M   'C 2/c'
_symmetry_Int_Tables_number      15
_space_group_name_Hall           '-C 2yc'
loop_
_symmetry_equiv_pos_site_id
_symmetry_equiv_pos_as_xyz
1 x,y,z
2 -x,y,1/2-z
3 1/2+x,1/2+y,z
4 1/2-x,1/2+y,1/2-z
5 -x,-y,-z
6 x,-y,1/2+z
7 1/2-x,1/2-y,-z
8 1/2+x,1/2-y,1/2+z
_cell_length_a                   36.991(14)
_cell_length_b                   8.394(3)
_cell_length_c                   36.940(15)
_cell_angle_alpha                90
_cell_angle_beta                 116.750(5)
_cell_angle_gamma                90
_cell_volume                     10242.4
loop_
_atom_site_label
_atom_site_type_symbol
_atom_site_fract_x
_atom_site_fract_y
_atom_site_fract_z
_atom_site_U_iso_or_equiv
_atom_site_thermal_displace_type
Zn1 Zn 0.830746(17) 0.03267(7) 0.177017(16) 0.0437 Uani
O1 O 0.59234(9) 0.1970(4) 0.02214(11) 0.0438 Uani
O2 O 0.41362(13) 0.0465(4) -0.12169(10) 0.0578 Uani
O3 O 0.42730(11) 0.3209(4) 0.02048(11) 0.0477 Uani
O4 O 0.76270(12) -0.1237(5) 0.13257(14) 0.0693 Uani
O5 O 0.77862(10) 0.1320(5) 0.14470(11) 0.0505 Uani
O6 O 0.34648(13) -0.3625(5) -0.28289(12) 0.0651 Uani
O7 O 0.3221(4) -0.4881(12) -0.2497(3) 0.1865 Uani
O8 O 0.35552(13) 0.4597(5) 0.14270(13) 0.0588 Uani
O9 O 0.3636(2) 0.7183(4) 0.1277(2) 0.1138 Uani
O10 O 0.86066(13) 0.2210(5) 0.21049(13) 0.0710 Uani
C1 C 0.50161(15) 0.1537(5) -0.05664(15) 0.0398 Uani
C2 C 0.46296(14) 0.2197(5) -0.07809(13) 0.0365 Uani
C3 C 0.44450(13) 0.3055(5) -0.05836(13) 0.0351 Uani
C4 C 0.46558(12) 0.3270(5) -0.01622(12) 0.0303 Uani
C5 C 0.50302(13) 0.2538(5) 0.00574(13) 0.0309 Uani
C6 C 0.52061(13) 0.1622(5) -0.01515(14) 0.0352 Uani
C7 C 0.5226(2) 0.0768(7) -0.0795(2) 0.0596 Uani
H1 H 0.5050 0.0805 -0.1081 0.0900 Uiso
H2 H 0.5290 -0.0321 -0.0710 0.0900 Uiso
H3 H 0.5472 0.1336 -0.0737 0.0900 Uiso
C8 C 0.40203(16) 0.3698(6) -0.08151(17) 0.0533 Uani
H4 H 0.3920 0.3453 -0.1098 0.0800 Uiso
H5 H 0.4023 0.4832 -0.0780 0.0800 Uiso
H6 H 0.3848 0.3217 -0.0714 0.0800 Uiso
C9 C 0.52452(16) 0.2696(6) 0.05139(14) 0.0437 Uani
H7 H 0.5497 0.2130 0.0618 0.0660 Uiso
H8 H 0.5079 0.2257 0.0627 0.0660 Uiso
H9 H 0.5296 0.3801 0.0586 0.0660 Uiso
C10 C 0.56014(13) 0.0769(6) 0.00913(17) 0.0430 Uani
H10 H 0.5599 0.0253 0.0325 0.0520 Uiso
H11 H 0.5644 -0.0037 -0.0074 0.0520 Uiso
C11 C 0.63061(14) 0.1438(6) 0.04721(14) 0.0393 Uani
C12 C 0.65991(16) 0.2629(6) 0.06288(17) 0.0505 Uani
H12 H 0.6529 0.3691 0.0563 0.0610 Uiso
C13 C 0.69953(17) 0.2209(6) 0.08839(17) 0.0529 Uani
H13 H 0.7193 0.2996 0.0985 0.0640 Uiso
C14 C 0.71007(15) 0.0640(6) 0.09905(16) 0.0460 Uani
C15 C 0.68069(17) -0.0530(6) 0.08166(17) 0.0503 Uani
H14 H 0.6879 -0.1594 0.0878 0.0600 Uiso
C16 C 0.64167(17) -0.0154(6) 0.05589(18) 0.0500 Uani
H15 H 0.6225 -0.0955 0.0442 0.0600 Uiso
C17 C 0.75348(17) 0.0149(6) 0.12749(17) 0.0499 Uani
C18 C 0.43883(19) 0.1768(7) -0.12220(14) 0.0552 Uani
H16 H 0.4565 0.1439 -0.1339 0.0660 Uiso
H17 H 0.4225 0.2661 -0.1376 0.0660 Uiso
C19 C 0.39647(19) -0.0510(6) -0.15538(15) 0.0518 Uani
C20 C 0.3759(2) -0.1826(8) -0.1507(2) 0.0713 Uani
H18 H 0.3732 -0.1970 -0.1271 0.0860 Uiso
C21 C 0.3598(3) -0.2894(9) -0.1818(2) 0.0886 Uani
H19 H 0.3476 -0.3810 -0.1784 0.1060 Uiso
C22 C 0.36119(19) -0.2664(9) -0.21777(19) 0.0732 Uani
C23 C 0.3801(2) -0.1354(9) -0.22235(17) 0.0691 Uani
H20 H 0.3813 -0.1191 -0.2467 0.0830 Uiso
C24 C 0.3976(2) -0.0259(8) -0.19150(18) 0.0659 Uani
H21 H 0.4102 0.0644 -0.1952 0.0790 Uiso
C25 C 0.3437(3) -0.3857(14) -0.2522(3) 0.1334 Uani
C26 C 0.44799(15) 0.4251(5) 0.00534(15) 0.0374 Uani
H22 H 0.4693 0.4820 0.0276 0.0450 Uiso
H23 H 0.4292 0.5024 -0.0131 0.0450 Uiso
C27 C 0.41323(17) 0.3905(6) 0.04511(18) 0.0491 Uani
C28 C 0.41233(19) 0.5524(6) 0.05169(18) 0.0505 Uani
H24 H 0.4225 0.6241 0.0393 0.0610 Uiso
C29 C 0.3962(2) 0.6073(7) 0.0769(2) 0.0627 Uani
H25 H 0.3945 0.7163 0.0804 0.0750 Uiso
C30 C 0.3824(2) 0.4996(6) 0.0971(2) 0.0599 Uani
C31 C 0.3828(3) 0.3421(8) 0.0902(3) 0.0856 Uani
H26 H 0.3723 0.2710 0.1024 0.1030 Uiso
C32 C 0.3989(2) 0.2844(6) 0.0646(2) 0.0730 Uani
H27 H 0.3999 0.1753 0.0607 0.0880 Uiso
C33 C 0.3662(2) 0.5633(7) 0.1254(2) 0.0683 Uani
H28 H 0.8763 0.2901 0.2277 0.0800 Uiso
H29 H 0.8393 0.2717 0.1947 0.0800 Uiso
H30 H 0.3790 0.8033 0.1214 0.2000 Uiso
Zn1B Zn 0.330746(17) 0.53267(7) 0.177017(16) 0.0437 Uani
Zn1G Zn 0.330746(17) -0.53267(7) -0.322983(16) 0.0437 Uani
O6G O 0.84648(13) -0.1375(5) 0.21711(12) 0.0651 Uani
O8B O 0.85552(13) -0.0403(5) 0.14270(13) 0.0588 Uani
loop_
_atom_site_aniso_label
_atom_site_aniso_U_11
_atom_site_aniso_U_22
_atom_site_aniso_U_33
_atom_site_aniso_U_23
_atom_site_aniso_U_13
_atom_site_aniso_U_12
Zn1 0.0474(4) 0.0459(4) 0.0380(3) 0.0093(2) 0.0194(3) 0.0162(3)
O1 0.0349(16) 0.0299(16) 0.067(2) 0.0041(15) 0.0233(16) -0.0041(13)
O2 0.085 0.053 0.036 -0.0129 0.0277 -0.027
O3 0.068 0.0246 0.075 -0.0015 0.054 -0.003
O4 0.056(2) 0.047(2) 0.083(3) 0.019(2) 0.012(2) 0.0202(19)
O5 0.0377(18) 0.055(2) 0.0514(19) 0.0038(16) 0.0134(15) 0.0100(16)
O6 0.067 0.078 0.05 -0.025 0.026 -0.011
O7 0.265 0.199 0.144 -0.096 0.135 -0.161
O8 0.079 0.053 0.067 0.0096 0.053 0.0107
O9 0.212 0.055 0.164 -0.001 0.164 0.001
O10 0.068(3) 0.062(3) 0.065(2) 0.004(2) 0.014(2) 0.001(2)
C1 0.052(3) 0.025(2) 0.052(3) -0.0081(18) 0.032(2) -0.008(2)
C2 0.045(2) 0.028(2) 0.035(2) -0.0090(17) 0.0166(19) -0.0096(19)
C3 0.036(2) 0.026(2) 0.038(2) -0.0001(16) 0.0120(18) -0.0051(18)
C4 0.033(2) 0.0195(19) 0.038(2) -0.0032(16) 0.0155(18) -0.0074(16)
C5 0.038(2) 0.0193(19) 0.040(2) -0.0009(16) 0.0217(19) -0.0028(17)
C6 0.034(2) 0.025(2) 0.050(2) 0.0068(17) 0.022(2) 0.0019(17)
C7 0.091(4) 0.039(3) 0.079(4) -0.011(3) 0.065(4) 0.000(3)
C8 0.047(3) 0.037(3) 0.061(3) 0.005(2) 0.011(2) 0.000(2)
C9 0.053(3) 0.036(2) 0.040(2) 0.0041(19) 0.019(2) -0.007(2)
C10 0.031(2) 0.032(2) 0.068(3) -0.001(2) 0.024(2) -0.0087(19)
C11 0.041(2) 0.036(2) 0.045(2) 0.0075(19) 0.023(2) 0.002(2)
C12 0.045(3) 0.031(2) 0.070(3) 0.009(2) 0.021(3) 0.006(2)
C13 0.055(3) 0.031(3) 0.063(3) 0.000(2) 0.018(3) -0.002(2)
C14 0.039(3) 0.043(3) 0.053(3) 0.002(2) 0.018(2) 0.007(2)
C15 0.058(3) 0.033(3) 0.063(3) 0.013(2) 0.030(3) 0.012(2)
C16 0.052(3) 0.030(2) 0.067(3) -0.003(2) 0.026(3) -0.006(2)
C17 0.051(3) 0.041(3) 0.059(3) 0.006(2) 0.026(3) 0.011(2)
C18 0.074 0.054 0.034 -0.002 0.021 -0.016
C19 0.073 0.042 0.039 -0.012 0.024 -0.01
C20 0.099 0.068 0.065 -0.021 0.053 -0.043
C21 0.126 0.079 0.086 -0.038 0.07 -0.065
C22 0.063 0.097 0.068 -0.05 0.037 -0.039
C23 0.074 0.093 0.037 -0.011 0.022 -0.022
C24 0.095 0.06 0.048 -0.007 0.037 -0.021
C25 0.155 0.168 0.122 -0.107 0.102 -0.134
C26 0.047 0.0191 0.056 -0.0002 0.032 -0.002
C27 0.062 0.033 0.076 0.001 0.052 0.003
C28 0.078 0.029 0.07 -0.001 0.056 -0.001
C29 0.086 0.039 0.094 0.007 0.068 0.008
C30 0.087 0.036 0.095 0.019 0.075 0.016
C31 0.131 0.055 0.137 0.021 0.119 0.018
C32 0.113 0.026 0.13 0.006 0.099 0.006
C33 0.103 0.041 0.106 0.012 0.087 0.018
Zn1B 0.0474 0.0459 0.038 0.0093 0.0194 0.0162
Zn1G 0.0474 0.0459 0.038 -0.0093 0.0194 -0.0162
O6G 0.067 0.078 0.05 0.025 0.026 0.011
O8B 0.079 0.053 0.067 0.0096 0.053 0.0107
loop_
_geom_bond_atom_site_label_1
_geom_bond_atom_site_label_2
_geom_bond_site_symmetry_1
_geom_bond_site_symmetry_2
Zn1 O5 1_555 1_555
O1 C10 1_555 1_555
O2 C18 1_555 1_555
O3 C26 1_555 1_555
O4 C17 1_555 1_555
O5 C17 1_555 1_555
O6 C25 1_555 1_555
O7 C25 1_555 1_555
O8 C33 1_555 1_555
O9 C33 1_555 1_555
O10 Zn1 1_555 1_555
C1 C2 1_555 1_555
C2 C3 1_555 1_555
C3 C4 1_555 1_555
C4 C5 1_555 1_555
C5 C6 1_555 1_555
C6 C1 1_555 1_555
C7 C1 1_555 1_555
H1 C7 1_555 1_555
H2 C7 1_555 1_555
H3 C7 1_555 1_555
C8 C3 1_555 1_555
H4 C8 1_555 1_555
H5 C8 1_555 1_555
H6 C8 1_555 1_555
C9 C5 1_555 1_555
H7 C9 1_555 1_555
H8 C9 1_555 1_555
H9 C9 1_555 1_555
C10 C6 1_555 1_555
H10 C10 1_555 1_555
H11 C10 1_555 1_555
C11 O1 1_555 1_555
C12 C11 1_555 1_555
H12 C12 1_555 1_555
C13 C12 1_555 1_555
H13 C13 1_555 1_555
C14 C13 1_555 1_555
C15 C14 1_555 1_555
H14 C15 1_555 1_555
C16 C11 1_555 1_555
H15 C16 1_555 1_555
C17 C14 1_555 1_555
C18 C2 1_555 1_555
H16 C18 1_555 1_555
H17 C18 1_555 1_555
C19 O2 1_555 1_555
C20 C19 1_555 1_555
H18 C20 1_555 1_555
C21 C20 1_555 1_555
H19 C21 1_555 1_555
C22 C21 1_555 1_555
C23 C22 1_555 1_555
H20 C23 1_555 1_555
C24 C19 1_555 1_555
H21 C24 1_555 1_555
C25 C22 1_555 1_555
C26 C4 1_555 1_555
H22 C26 1_555 1_555
H23 C26 1_555 1_555
C27 O3 1_555 1_555
C28 C27 1_555 1_555
H24 C28 1_555 1_555
C29 C28 1_555 1_555
H25 C29 1_555 1_555
C30 C29 1_555 1_555
C31 C30 1_555 1_555
H26 C31 1_555 1_555
C32 C27 1_555 1_555
H27 C32 1_555 1_555
C33 C30 1_555 1_555
H28 O10 1_555 1_555
H29 O10 1_555 1_555
H30 O9 1_555 1_555
Zn1B O8 1_555 1_555
Zn1G O6 1_555 1_555
O6G Zn1 1_555 1_555
O8B Zn1 1_555 1_555
C15 C16 1_555 1_555
C23 C24 1_555 1_555
C31 C32 1_555 1_555

#END
