
#######################################################################
#
#                 Cambridge Crystallographic Data Centre
#                                CCDC 
#
#######################################################################
#
# If this CIF has been generated from an entry in the Cambridge 
# Structural Database, then it will include bibliographic, chemical, 
# crystal, experimental, refinement or atomic coordinate data resulting 
# from the CCDC's data processing and validation procedures.
#
#######################################################################

data_JOHSIJ
_chemical_formula_moiety         '(C10 H19 Al6 N4 O28 P7)n'
_symmetry_cell_setting           triclinic
_symmetry_space_group_name_H-M   'P -1'
_symmetry_Int_Tables_number      2
_space_group_name_Hall           '-P 1'
loop_
_symmetry_equiv_pos_site_id
_symmetry_equiv_pos_as_xyz
1 x,y,z
2 -x,-y,-z
_cell_length_a                   9.0150(5)
_cell_length_b                   9.4739(6)
_cell_length_c                   19.7373(11)
_cell_angle_alpha                88.9640(10)
_cell_angle_beta                 78.9380(10)
_cell_angle_gamma                85.4890(10)
_cell_volume                     1649.25
loop_
_atom_site_label
_atom_site_type_symbol
_atom_site_fract_x
_atom_site_fract_y
_atom_site_fract_z
Al1 Al 0.15988(15) 0.63639(14) 0.02591(7)
Al2 Al -0.27551(15) 0.88045(14) 0.10985(7)
Al3 Al 0.14973(15) 0.84515(14) 0.29312(7)
Al4 Al 0.26612(14) 0.89300(13) 0.49047(7)
Al5 Al 0.14981(14) 0.32512(13) 0.45137(7)
Al6 Al 0.29180(15) 1.05933(14) 0.09872(7)
P1 P 0.44837(13) 1.15512(12) 0.43532(6)
P2 P -0.55860(13) 0.94901(13) 0.21998(6)
P3 P 0.13438(13) 0.64856(12) 0.42451(6)
P4 P 0.03316(12) 1.06567(12) 0.39997(6)
P5 P 0.37925(13) 0.85852(12) -0.03117(6)
P6 P 0.04227(12) 0.83409(12) 0.15265(6)
P7 P -0.15795(13) 0.68875(11) -0.02040(6)
O1 O 0.4671(5) 1.1970(4) 0.35883(18)
O2 O -0.4450(4) 0.8571(4) 0.16661(18)
O3 O -0.4724(4) 1.0353(4) 0.25997(19)
O4 O 0.1153(4) 0.9655(4) 0.12468(19)
O5 O 0.3723(4) 0.9232(3) 0.03888(17)
O6 O -0.6662(4) 1.0389(4) 0.18345(16)
O7 O 0.3173(4) 1.2537(4) 0.47329(19)
O8 O -0.2492(4) 0.7478(4) 0.04766(17)
O9 O 0.2798(4) 0.9540(4) -0.07188(19)
O10 O 0.0102(4) 0.6669(4) -0.01669(18)
O11 O 0.0638(4) 0.7984(3) 0.22631(16)
O12 O 0.1827(4) 0.4898(3) 0.41535(17)
O13 O -0.1285(4) 0.8541(4) 0.15539(17)
O14 O -0.6550(4) 0.8456(4) 0.26769(18)
O15 O 0.2514(4) 0.7197(3) 0.45547(17)
O16 O -0.0210(4) 0.6627(4) 0.47151(17)
O17 O 0.1245(4) 0.9747(3) 0.44213(17)
O18 O 0.0845(4) 1.2174(3) 0.39460(17)
O19 O 0.0597(4) 1.0061(3) 0.32650(16)
O20 O 0.1067(4) 0.7026(3) 0.10929(17)
O21 O -0.1756(4) 0.7878(3) -0.07962(16)
O22 O 0.4088(4) 1.0026(3) 0.44482(17)
O23 O 0.3125(4) 0.7143(3) -0.02248(17)
O24 O -0.2124(4) 0.5440(3) -0.03204(17)
O25 O -0.1373(3) 1.0729(3) 0.42909(16)
O26 O 0.5891(3) 1.1856(3) 0.46128(17)
O27 O 0.1200(4) 0.7091(3) 0.35397(16)
O28 O 0.5387(4) 0.8359(3) -0.07181(17)
H2 H 0.528(13) 1.108(7) 0.341(6)
Al1A Al -0.15988(15) 0.36361(14) -0.02591(7)
Al2A Al 0.27551(15) 1.11955(14) -0.10985(7)
Al3_2 Al -0.85027(15) 0.84515(14) 0.29312(7)
Al4A Al -0.26612(14) 1.10700(13) 0.50953(7)
Al4A_2 Al 0.73388(14) 1.10700(13) 0.50953(7)
Al5_2 Al 0.14981(14) 1.32512(13) 0.45137(7)
Al5A Al -0.14981(14) 0.67488(13) 0.54863(7)
Al6_2 Al -0.70820(15) 1.05933(14) 0.09872(7)
Al6A Al -0.29180(15) 0.94067(14) -0.09872(7)
Al6A_2 Al 0.70820(15) 0.94067(14) -0.09872(7)
O6_2 O 0.3338(4) 1.0389(4) 0.18345(16)
O7_2 O 0.3173(4) 0.2537(4) 0.47329(19)
O9A O -0.2798(4) 1.0460(4) 0.07188(19)
O14_2 O 0.3450(4) 0.8456(4) 0.26769(18)
O16A O 0.0210(4) 0.3373(4) 0.52849(17)
O18_2 O 0.0845(4) 0.2174(3) 0.39460(17)
O21A O 0.1756(4) 1.2122(3) 0.07962(16)
O24A O 0.2124(4) 0.4560(3) 0.03204(17)
O25A O 0.1373(3) 0.9271(3) 0.57091(16)
O26A O 0.4109(3) 0.8144(3) 0.53872(17)
O28A O 0.4613(4) 1.1641(3) 0.07181(17)
N1 N -0.7582(14) 1.6769(11) 0.8063(5)
N2 N -0.539(2) 1.5677(10) 0.8193(5)
C2 C -0.6058(15) 1.6869(10) 0.8024(5)
H6 H -0.5563 1.7684 0.7893
C5 C -0.8663(17) 1.7956(16) 0.7899(9)
H9 H -0.9670 1.7646 0.7977
H10 H -0.8371 1.8231 0.7425
H11 H -0.8639 1.8749 0.8192
C7 C -0.793(3) 1.543(2) 0.8232(13)
H13 H -0.8852 1.5026 0.8282
C8 C -0.397(3) 1.537(2) 0.8326(13)
H14 H -0.3834 1.4372 0.8440
H15 H -0.3832 1.5919 0.8716
C9 C -0.636(4) 1.4744(19) 0.8319(13)
H16 H -0.6156 1.3807 0.8443
C10 C -0.286(4) 1.570(4) 0.7716(13)
H17 H -0.1861 1.5598 0.7823
H18 H -0.3073 1.6657 0.7574
H19 H -0.2912 1.5064 0.7350
N3 N -0.7058(8) 1.3519(7) 0.6452(4)
N4 N -0.653(2) 1.538(2) 0.5932(10)
H1 H -0.6198 1.5948 0.5603
C1 C -0.7011(14) 1.1961(10) 0.6566(5)
H3 H -0.7846 1.1740 0.6923
H4 H -0.6075 1.1641 0.6704
H5 H -0.7081 1.1497 0.6147
C3 C -0.8401(13) 1.4290(13) 0.6881(10)
H7 H -0.9164 1.4037 0.7240
C4 C -0.570(2) 1.383(2) 0.6053(14)
H8 H -0.4739 1.3372 0.5915
C6 C -0.801(2) 1.5729(16) 0.6477(10)
H12 H -0.8550 1.6606 0.6552
loop_
_geom_bond_atom_site_label_1
_geom_bond_atom_site_label_2
_geom_bond_site_symmetry_1
_geom_bond_site_symmetry_2
Al1 O10 1_555 1_555
Al2 O2 1_555 1_555
Al3 O11 1_555 1_555
Al4 O15 1_555 1_555
Al5 O12 1_555 1_555
Al6 O4 1_555 1_555
P1 O1 1_555 1_555
P2 O2 1_555 1_555
P3 O12 1_555 1_555
P4 O17 1_555 1_555
P5 O5 1_555 1_555
P6 O4 1_555 1_555
P7 O8 1_555 1_555
O1 H2 1_555 1_555
O3 P2 1_555 1_555
O5 Al6 1_555 1_555
O6 P2 1_555 1_555
O7 P1 1_555 1_555
O8 Al2 1_555 1_555
O9 P5 1_555 1_555
O10 P7 1_555 1_555
O11 P6 1_555 1_555
O13 Al2 1_555 1_555
O14 P2 1_555 1_555
O15 P3 1_555 1_555
O16 P3 1_555 1_555
O17 Al4 1_555 1_555
O18 P4 1_555 1_555
O19 Al3 1_555 1_555
O20 Al1 1_555 1_555
O21 P7 1_555 1_555
O22 Al4 1_555 1_555
O23 Al1 1_555 1_555
O24 P7 1_555 1_555
O25 P4 1_555 1_555
O26 P1 1_555 1_555
O27 Al3 1_555 1_555
O28 P5 1_555 1_555
N1 C2 1_555 1_555
N2 C2 1_555 1_555
N3 C1 1_555 1_555
N4 H1 1_555 1_555
C1 H3 1_555 1_555
H4 C1 1_555 1_555
H5 C1 1_555 1_555
C2 H6 1_555 1_555
C3 N3 1_555 1_555
H7 C3 1_555 1_555
C4 N3 1_555 1_555
H8 C4 1_555 1_555
C5 N1 1_555 1_555
H9 C5 1_555 1_555
H10 C5 1_555 1_555
H11 C5 1_555 1_555
C6 N4 1_555 1_555
H12 C6 1_555 1_555
C7 N1 1_555 1_555
H13 C7 1_555 1_555
C8 N2 1_555 1_555
H14 C8 1_555 1_555
H15 C8 1_555 1_555
C9 N2 1_555 1_555
H16 C9 1_555 1_555
C10 C8 1_555 1_555
H17 C10 1_555 1_555
H18 C10 1_555 1_555
H19 C10 1_555 1_555
Al1A O24 1_555 1_555
Al2A O9 1_555 1_555
Al3_2 O14 1_555 1_555
Al4A O25 1_555 1_555
Al4A_2 O26 1_555 1_555
Al5_2 O7 1_555 1_555
Al5A O16 1_555 1_555
Al6_2 O6 1_555 1_555
Al6A O21 1_555 1_555
Al6A_2 O28 1_555 1_555
O6_2 Al6 1_555 1_555
O7_2 Al5 1_555 1_555
O9A Al2 1_555 1_555
O14_2 Al3 1_555 1_555
O16A Al5 1_555 1_555
O18_2 Al5 1_555 1_555
O21A Al6 1_555 1_555
O24A Al1 1_555 1_555
O25A Al4 1_555 1_555
O26A Al4 1_555 1_555
O28A Al6 1_555 1_555
P1 O22 1_555 1_555
P3 O27 1_555 1_555
P4 O19 1_555 1_555
P5 O23 1_555 1_555
P6 O13 1_555 1_555
P6 O20 1_555 1_555
O18 Al5_2 1_555 1_555
N4 C4 1_555 1_555
C3 C6 1_555 1_555
C7 C9 1_555 1_555

#END
