
#######################################################################
#
#                 Cambridge Crystallographic Data Centre
#                                CCDC 
#
#######################################################################
#
# If this CIF has been generated from an entry in the Cambridge 
# Structural Database, then it will include bibliographic, chemical, 
# crystal, experimental, refinement or atomic coordinate data resulting 
# from the CCDC's data processing and validation procedures.
#
#######################################################################

data_CADPII
_chemical_formula_moiety         '(C27 H24 O27 Zn6)n'
_symmetry_cell_setting           rhombohedral
_symmetry_space_group_name_H-M   'R 3 c'
_symmetry_Int_Tables_number      161
_space_group_name_Hall           'R 3 -2"c'
loop_
_symmetry_equiv_pos_site_id
_symmetry_equiv_pos_as_xyz
1 x,y,z
2 -y,x-y,z
3 -x+y,-x,z
4 -y,-x,1/2+z
5 -x+y,y,1/2+z
6 x,x-y,1/2+z
7 2/3+x,1/3+y,1/3+z
8 2/3-y,1/3+x-y,1/3+z
9 2/3-x+y,1/3-x,1/3+z
10 2/3-y,1/3-x,5/6+z
11 2/3-x+y,1/3+y,5/6+z
12 2/3+x,1/3+x-y,5/6+z
13 1/3+x,2/3+y,2/3+z
14 1/3-y,2/3+x-y,2/3+z
15 1/3-x+y,2/3-x,2/3+z
16 1/3-y,2/3-x,1/6+z
17 1/3-x+y,2/3+y,1/6+z
18 1/3+x,2/3+x-y,1/6+z
_cell_length_a                   30.159(4)
_cell_length_b                   30.159(4)
_cell_length_c                   6.9280(14)
_cell_angle_alpha                90
_cell_angle_beta                 90
_cell_angle_gamma                120
_cell_volume                     5457.23
loop_
_atom_site_label
_atom_site_type_symbol
_atom_site_fract_x
_atom_site_fract_y
_atom_site_fract_z
Zn1 Zn 0.524053(16) 0.757202(23) 0.02198(7)
Zn2 Zn 0.60096(2) 0.73746(3) 0.30520(10)
O1 O 0.55980(11) 0.77743(16) 0.2753(5)
H1 H 0.5853 0.8139 0.2669
O2 O 0.47947(17) 0.78866(12) 0.0210(5)
O3 O 0.55324(18) 0.86285(13) 0.0297(6)
O4 O 0.31682(18) 0.79335(12) 0.0168(6)
O5 O 0.31815(16) 0.86518(21) 0.0963(6)
O6 O 0.64323(23) 0.69953(16) 0.3325(7)
H2 H 0.6304 0.6699 0.3721
O7 O 0.48352(15) 1.02363(21) 0.2175(7)
O8 O 0.55346(20) 1.01574(15) 0.2545(7)
C1 C 0.39760(21) 0.86676(15) 0.0778(6)
C2 C 0.47615(20) 0.86473(14) 0.0715(5)
C3 C 0.47761(20) 0.94352(14) 0.1476(6)
C4 C 0.42312(22) 0.83975(16) 0.0498(6)
H3 H 0.4051 0.8053 0.0168
C5 C 0.50357(19) 0.91658(13) 0.1214(6)
H4 H 0.5389 0.9330 0.1371
C6 C 0.50520(21) 0.83689(15) 0.0395(6)
C7 C 0.42433(21) 0.91837(15) 0.1258(6)
H5 H 0.4069 0.9362 0.1435
C8 C 0.50605(23) 0.99829(16) 0.2094(8)
C9 C 0.34027(22) 0.84024(16) 0.0633(6)
Zn1E Zn 0.524053(16) 0.766851(28) 0.52198(7)
Zn1A Zn 0.242798(23) 0.766851(28) 0.02198(7)
Zn1E_2 Zn 0.524053(16) 0.766851(28) -0.47802(7)
Zn1_2 Zn 0.524053(16) 0.757202(23) 1.02198(7)
Zn1D Zn 0.233149(28) 0.757202(23) -0.47802(7)
Zn1B Zn 0.233149(28) 0.475947(16) 0.02198(7)
Zn2E Zn 0.60096(2) 0.86350(4) -0.19480(10)
Zn2A Zn 0.26254(3) 0.86350(4) 0.30520(10)
Zn2N Zn 0.46983(4) 1.06571(2) -0.02813(10)
Zn2O Zn 0.59587(3) 1.06571(2) 0.47187(10)
Zn2E_2 Zn 0.60096(2) 0.86350(4) 0.80520(10)
Zn2A_2 Zn 0.26254(3) 0.86350(4) -0.69480(10)
Zn2O_2 Zn 0.59587(3) 1.06571(2) -0.52813(10)
Zn2C Zn 0.26254(3) 0.39904(2) -0.19480(10)
Zn2M Zn 0.59587(3) 0.53017(4) -0.02813(10)
Zn2P Zn 0.46983(4) 0.40413(3) 0.47187(10)
O1E O 0.55980(11) 0.78237(19) -0.2247(5)
O1E_2 O 0.55980(11) 0.78237(19) 0.7753(5)
O1A O 0.22257(16) 0.78237(19) 0.2753(5)
O1_2 O 0.55980(11) 0.77743(16) -0.7247(5)
H1E H 0.5853 0.7714 -0.2331
H1E_2 H 0.5853 0.7714 0.7669
H1A H 0.1861 0.7714 0.2669
H1_2 H 0.5853 0.8139 -0.7331
O2E O 0.47947(17) 0.69081(21) 0.5210(5)
O2E_2 O 0.47947(17) 0.69081(21) -0.4790(5)
O2D O 0.30919(21) 0.78866(12) -0.4790(5)
O2B O 0.30919(21) 0.52053(17) 0.0210(5)
O3E O 0.55324(18) 0.69039(22) 0.5297(6)
O3D O 0.30961(22) 0.86285(13) 0.5297(6)
O3D_2 O 0.30961(22) 0.86285(13) -0.4703(6)
O3B O 0.30961(22) 0.44676(18) 0.0297(6)
O4B O 0.47653(22) 0.68318(18) 0.0168(6)
O4D O 0.47653(22) 0.79335(12) 0.5168(6)
O4D_2 O 0.47653(22) 0.79335(12) -0.4832(6)
O5B O 0.54703(26) 0.68185(16) 0.0963(6)
O5D O 0.54703(26) 0.86518(21) -0.4037(6)
O6E O 0.64323(23) 0.94370(28) -0.1675(7)
O6A O 0.30047(16) 0.94370(28) 0.3325(7)
H2E H 0.6304 0.9605 -0.1279
H2A H 0.3301 0.9605 0.3721
O7G O 0.64304(21) 0.79322(26) 0.5508(7)
O7I O 0.64304(21) 0.84981(15) 0.0508(7)
O7H O 0.20678(26) 0.84981(15) 0.5508(7)
O7D O 0.54011(26) 1.02363(21) -0.2825(7)
O7B O 0.54011(26) 0.51648(15) 0.2175(7)
O8I O 0.65093(15) 0.77987(20) 0.0878(7)
O8G O 0.65093(15) 0.87105(25) -0.4122(7)
O8K O 0.22013(20) 0.87105(25) 0.0878(7)
O8D O 0.46228(25) 1.01574(15) -0.2455(7)
O8B O 0.46228(25) 0.44654(20) 0.2545(7)
C1B C 0.46916(26) 0.60240(21) 0.0778(6)
C1D C 0.46916(26) 0.86676(15) -0.4222(6)
C2B C 0.38858(24) 0.52385(20) 0.0715(5)
C2D C 0.38858(24) 0.86473(14) -0.4285(5)
C3D C 0.46591(24) 0.94352(14) -0.3524(6)
C3B C 0.46591(24) 0.52239(20) 0.1476(6)
C4B C 0.41663(27) 0.57688(22) 0.0498(6)
C4D C 0.41663(27) 0.83975(16) -0.4502(6)
H3B H 0.4002 0.5949 0.0168
H3D H 0.4002 0.8053 -0.4832
C5D C 0.41301(23) 0.91658(13) -0.3786(6)
C5B C 0.41301(23) 0.49643(19) 0.1214(6)
H4D H 0.3941 0.9330 -0.3629
H4B H 0.3941 0.4611 0.1371
C6D C 0.33169(26) 0.83689(15) -0.4605(6)
C6B C 0.33169(26) 0.49480(21) 0.0395(6)
C7B C 0.49404(26) 0.57567(21) 0.1258(6)
C7D C 0.49404(26) 0.91837(15) -0.3742(6)
H5B H 0.5293 0.5931 0.1435
H5D H 0.5293 0.9362 -0.3565
C8D C 0.49224(28) 0.99829(16) -0.2906(8)
C8B C 0.49224(28) 0.49395(23) 0.2094(8)
C9B C 0.49997(27) 0.65973(22) 0.0633(6)
C9D C 0.49997(27) 0.84024(16) -0.4367(6)
O9 O 0.2851(6) 0.6102(4) -0.219(5)
H6 H 0.2731 0.5849 -0.1491
H7 H 0.3158 0.6225 -0.2394
O10 O -0.0323(3) 0.6944(2) -0.3584(8)
H8 H -0.0591 0.6818 -0.4196
H9 H -0.0322 0.7153 -0.2823
O11 O 0.3333 0.6667 0.0222
loop_
_geom_bond_atom_site_label_1
_geom_bond_atom_site_label_2
_geom_bond_site_symmetry_1
_geom_bond_site_symmetry_2
Zn1 O1 1_555 1_555
Zn2 O1 1_555 1_555
O1 H1 1_555 1_555
O2 Zn1 1_555 1_555
O3 C6 1_555 1_555
O4 C9 1_555 1_555
O5 C9 1_555 1_555
O6 Zn2 1_555 1_555
H2 O6 1_555 1_555
O7 C8 1_555 1_555
O8 C8 1_555 1_555
C1 C4 1_555 1_555
C2 C4 1_555 1_555
C3 C5 1_555 1_555
C4 H3 1_555 1_555
C5 C2 1_555 1_555
H4 C5 1_555 1_555
C6 O2 1_555 1_555
C7 C1 1_555 1_555
H5 C7 1_555 1_555
C8 C3 1_555 1_555
C9 C1 1_555 1_555
O9 H6 1_555 1_555
H7 O9 1_555 1_555
O10 H8 1_555 1_555
H9 O10 1_555 1_555
Zn1E O1 1_555 1_555
Zn1A O4 1_555 1_555
Zn1E_2 O1E 1_555 1_555
Zn1_2 O1E_2 1_555 1_555
Zn1D O2D 1_555 1_555
Zn1B O2B 1_555 1_555
Zn2E O3 1_555 1_555
Zn2A O5 1_555 1_555
Zn2N O7 1_555 1_555
Zn2O O8 1_555 1_555
Zn2E_2 O1E_2 1_555 1_555
Zn2A_2 O3D_2 1_555 1_555
Zn2O_2 O7D 1_555 1_555
Zn2C O3B 1_555 1_555
Zn2M O7B 1_555 1_555
Zn2P O8B 1_555 1_555
O1E Zn1 1_555 1_555
O1E_2 Zn1E 1_555 1_555
O1A Zn1A 1_555 1_555
O1_2 Zn1E_2 1_555 1_555
H1E O1E 1_555 1_555
H1E_2 O1E_2 1_555 1_555
H1A O1A 1_555 1_555
H1_2 O1_2 1_555 1_555
O2E Zn1E 1_555 1_555
O2E_2 Zn1E_2 1_555 1_555
O2D C6D 1_555 1_555
O2B C6B 1_555 1_555
O3E Zn2 1_555 1_555
O3D Zn2A 1_555 1_555
O3D_2 C6D 1_555 1_555
O3B C6B 1_555 1_555
O4B Zn1 1_555 1_555
O4D Zn1E 1_555 1_555
O4D_2 Zn1E_2 1_555 1_555
O5B Zn2 1_555 1_555
O5D Zn2E 1_555 1_555
O6E Zn2E 1_555 1_555
O6A Zn2A 1_555 1_555
H2E O6E 1_555 1_555
H2A O6A 1_555 1_555
O7G Zn2 1_555 1_555
O7I Zn2E 1_555 1_555
O7H Zn2A 1_555 1_555
O7D C8D 1_555 1_555
O7B C8B 1_555 1_555
O8I Zn2 1_555 1_555
O8G Zn2E 1_555 1_555
O8K Zn2A 1_555 1_555
O8D Zn2N 1_555 1_555
O8B C8B 1_555 1_555
C1B C4B 1_555 1_555
C1D C4D 1_555 1_555
C2B C4B 1_555 1_555
C2D C4D 1_555 1_555
C3D C5D 1_555 1_555
C3B C5B 1_555 1_555
C4B H3B 1_555 1_555
C4D H3D 1_555 1_555
C5D C2D 1_555 1_555
C5B C2B 1_555 1_555
H4D C5D 1_555 1_555
H4B C5B 1_555 1_555
C6D C2D 1_555 1_555
C6B C2B 1_555 1_555
C7B C1B 1_555 1_555
C7D C1D 1_555 1_555
H5B C7B 1_555 1_555
H5D C7D 1_555 1_555
C8D O8D 1_555 1_555
C8B C3B 1_555 1_555
C9B O4B 1_555 1_555
C9D O4D_2 1_555 1_555
C2 C6 1_555 1_555
C3 C7 1_555 1_555
Zn2E O1E 1_555 1_555
Zn2A O1A 1_555 1_555
O5B C9B 1_555 1_555
O5D C9D 1_555 1_555
C1B C9B 1_555 1_555
C1D C9D 1_555 1_555
C3D C7D 1_555 1_555
C3D C8D 1_555 1_555
C3B C7B 1_555 1_555

#END
