
#######################################################################
#
#                 Cambridge Crystallographic Data Centre
#                                CCDC 
#
#######################################################################
#
# If this CIF has been generated from an entry in the Cambridge 
# Structural Database, then it will include bibliographic, chemical, 
# crystal, experimental, refinement or atomic coordinate data resulting 
# from the CCDC's data processing and validation procedures.
#
#######################################################################

data_EXERUW
_chemical_formula_moiety         'C78 H48 Co9 N36 S6'
_symmetry_cell_setting           cubic
_symmetry_space_group_name_H-M   'F m -3 m'
_symmetry_Int_Tables_number      225
_space_group_name_Hall           '-F 4 2 3'
loop_
_symmetry_equiv_pos_site_id
_symmetry_equiv_pos_as_xyz
1 x,y,z
2 -x,-y,z
3 -x,y,-z
4 x,-y,-z
5 z,x,y
6 z,-x,-y
7 -z,-x,y
8 -z,x,-y
9 y,z,x
10 -y,z,-x
11 y,-z,-x
12 -y,-z,x
13 y,x,-z
14 -y,-x,-z
15 y,-x,z
16 -y,x,z
17 x,z,-y
18 -x,z,y
19 -x,-z,-y
20 x,-z,y
21 z,y,-x
22 z,-y,x
23 -z,y,x
24 -z,-y,-x
25 x,1/2+y,1/2+z
26 -x,1/2-y,1/2+z
27 -x,1/2+y,1/2-z
28 x,1/2-y,1/2-z
29 z,1/2+x,1/2+y
30 z,1/2-x,1/2-y
31 -z,1/2-x,1/2+y
32 -z,1/2+x,1/2-y
33 y,1/2+z,1/2+x
34 -y,1/2+z,1/2-x
35 y,1/2-z,1/2-x
36 -y,1/2-z,1/2+x
37 y,1/2+x,1/2-z
38 -y,1/2-x,1/2-z
39 y,1/2-x,1/2+z
40 -y,1/2+x,1/2+z
41 x,1/2+z,1/2-y
42 -x,1/2+z,1/2+y
43 -x,1/2-z,1/2-y
44 x,1/2-z,1/2+y
45 z,1/2+y,1/2-x
46 z,1/2-y,1/2+x
47 -z,1/2+y,1/2+x
48 -z,1/2-y,1/2-x
49 1/2+x,y,1/2+z
50 1/2-x,-y,1/2+z
51 1/2-x,y,1/2-z
52 1/2+x,-y,1/2-z
53 1/2+z,x,1/2+y
54 1/2+z,-x,1/2-y
55 1/2-z,-x,1/2+y
56 1/2-z,x,1/2-y
57 1/2+y,z,1/2+x
58 1/2-y,z,1/2-x
59 1/2+y,-z,1/2-x
60 1/2-y,-z,1/2+x
61 1/2+y,x,1/2-z
62 1/2-y,-x,1/2-z
63 1/2+y,-x,1/2+z
64 1/2-y,x,1/2+z
65 1/2+x,z,1/2-y
66 1/2-x,z,1/2+y
67 1/2-x,-z,1/2-y
68 1/2+x,-z,1/2+y
69 1/2+z,y,1/2-x
70 1/2+z,-y,1/2+x
71 1/2-z,y,1/2+x
72 1/2-z,-y,1/2-x
73 1/2+x,1/2+y,z
74 1/2-x,1/2-y,z
75 1/2-x,1/2+y,-z
76 1/2+x,1/2-y,-z
77 1/2+z,1/2+x,y
78 1/2+z,1/2-x,-y
79 1/2-z,1/2-x,y
80 1/2-z,1/2+x,-y
81 1/2+y,1/2+z,x
82 1/2-y,1/2+z,-x
83 1/2+y,1/2-z,-x
84 1/2-y,1/2-z,x
85 1/2+y,1/2+x,-z
86 1/2-y,1/2-x,-z
87 1/2+y,1/2-x,z
88 1/2-y,1/2+x,z
89 1/2+x,1/2+z,-y
90 1/2-x,1/2+z,y
91 1/2-x,1/2-z,-y
92 1/2+x,1/2-z,y
93 1/2+z,1/2+y,-x
94 1/2+z,1/2-y,x
95 1/2-z,1/2+y,x
96 1/2-z,1/2-y,-x
97 -x,-y,-z
98 x,y,-z
99 x,-y,z
100 -x,y,z
101 -z,-x,-y
102 -z,x,y
103 z,x,-y
104 z,-x,y
105 -y,-z,-x
106 y,-z,x
107 -y,z,x
108 y,z,-x
109 -y,-x,z
110 y,x,z
111 -y,x,-z
112 y,-x,-z
113 -x,-z,y
114 x,-z,-y
115 x,z,y
116 -x,z,-y
117 -z,-y,x
118 -z,y,-x
119 z,-y,-x
120 z,y,x
121 -x,1/2-y,1/2-z
122 x,1/2+y,1/2-z
123 x,1/2-y,1/2+z
124 -x,1/2+y,1/2+z
125 -z,1/2-x,1/2-y
126 -z,1/2+x,1/2+y
127 z,1/2+x,1/2-y
128 z,1/2-x,1/2+y
129 -y,1/2-z,1/2-x
130 y,1/2-z,1/2+x
131 -y,1/2+z,1/2+x
132 y,1/2+z,1/2-x
133 -y,1/2-x,1/2+z
134 y,1/2+x,1/2+z
135 -y,1/2+x,1/2-z
136 y,1/2-x,1/2-z
137 -x,1/2-z,1/2+y
138 x,1/2-z,1/2-y
139 x,1/2+z,1/2+y
140 -x,1/2+z,1/2-y
141 -z,1/2-y,1/2+x
142 -z,1/2+y,1/2-x
143 z,1/2-y,1/2-x
144 z,1/2+y,1/2+x
145 1/2-x,-y,1/2-z
146 1/2+x,y,1/2-z
147 1/2+x,-y,1/2+z
148 1/2-x,y,1/2+z
149 1/2-z,-x,1/2-y
150 1/2-z,x,1/2+y
151 1/2+z,x,1/2-y
152 1/2+z,-x,1/2+y
153 1/2-y,-z,1/2-x
154 1/2+y,-z,1/2+x
155 1/2-y,z,1/2+x
156 1/2+y,z,1/2-x
157 1/2-y,-x,1/2+z
158 1/2+y,x,1/2+z
159 1/2-y,x,1/2-z
160 1/2+y,-x,1/2-z
161 1/2-x,-z,1/2+y
162 1/2+x,-z,1/2-y
163 1/2+x,z,1/2+y
164 1/2-x,z,1/2-y
165 1/2-z,-y,1/2+x
166 1/2-z,y,1/2-x
167 1/2+z,-y,1/2-x
168 1/2+z,y,1/2+x
169 1/2-x,1/2-y,-z
170 1/2+x,1/2+y,-z
171 1/2+x,1/2-y,z
172 1/2-x,1/2+y,z
173 1/2-z,1/2-x,-y
174 1/2-z,1/2+x,y
175 1/2+z,1/2+x,-y
176 1/2+z,1/2-x,y
177 1/2-y,1/2-z,-x
178 1/2+y,1/2-z,x
179 1/2-y,1/2+z,x
180 1/2+y,1/2+z,-x
181 1/2-y,1/2-x,z
182 1/2+y,1/2+x,z
183 1/2-y,1/2+x,-z
184 1/2+y,1/2-x,-z
185 1/2-x,1/2-z,y
186 1/2+x,1/2-z,-y
187 1/2+x,1/2+z,y
188 1/2-x,1/2+z,-y
189 1/2-z,1/2-y,x
190 1/2-z,1/2+y,-x
191 1/2+z,1/2-y,-x
192 1/2+z,1/2+y,x
_cell_length_a                   36.793(10)
_cell_length_b                   36.793(10)
_cell_length_c                   36.793(10)
_cell_angle_alpha                90
_cell_angle_beta                 90
_cell_angle_gamma                90
_cell_volume                     49807.6
loop_
_atom_site_label
_atom_site_type_symbol
_atom_site_fract_x
_atom_site_fract_y
_atom_site_fract_z
C1 C 0.2327(2) 0.0523(3) 0.1915(2)
H1 H 0.2546 0.0429 0.1817
C2 C 0.2132(3) 0.0798(2) 0.1728(2)
H2 H 0.2230 0.0885 0.1505
C3 C 0.1838(2) 0.0935(2) 0.1838(2)
C4 C 0.1854(3) 0.0000 0.3146(3)
Co1 Co 0.2500 0.0000 0.2500
N1 N 0.22082(14) 0.0405(2) 0.22082(14)
N2 N 0.1632(2) 0.1194(2) 0.1632(2)
C5 C 0.1799(3) 0.1320(2) 0.1320(2)
N3 N 0.2086(2) 0.0000 0.2914(2)
S1 S 0.15796(9) 0.0000 0.34204(9)
C1D C 0.1915(2) 0.2327(2) 0.0523(3)
H1D H 0.1817 0.2546 0.0429
C2D C 0.1728(2) 0.2132(3) 0.0798(2)
H2D H 0.1505 0.2230 0.0885
C3D C 0.1838(2) 0.1838(2) 0.0935(2)
N1D N 0.22082(14) 0.22082(14) 0.0405(2)
N2D N 0.1632(2) 0.1632(2) 0.1194(2)
C5D C 0.1320(2) 0.1799(3) 0.1320(2)
C1H C 0.0523(3) 0.1915(2) 0.2327(2)
H1H H 0.0429 0.1817 0.2546
C2H C 0.0798(2) 0.1728(2) 0.2132(3)
H2H H 0.0885 0.1505 0.2230
C3H C 0.0935(2) 0.1838(2) 0.1838(2)
N1H N 0.0405(2) 0.22082(14) 0.22082(14)
N2H N 0.1194(2) 0.1632(2) 0.1632(2)
C5H C 0.1320(2) 0.1320(2) 0.1799(3)
C1ED C 0.0523(3) 0.2327(2) 0.1915(2)
H1ED H 0.0429 0.2546 0.1817
C2ED C 0.0798(2) 0.2132(3) 0.1728(2)
H2ED H 0.0885 0.2230 0.1505
C1JD C 0.2327(2) 0.1915(2) 0.0523(3)
H1JD H 0.2546 0.1817 0.0429
C2JD C 0.2132(3) 0.1728(2) 0.0798(2)
H2JD H 0.2230 0.1505 0.0885
C1OD C 0.1915(2) 0.0523(3) 0.2327(2)
H1OD H 0.1817 0.0429 0.2546
C2OD C 0.1728(2) 0.0798(2) 0.2132(3)
H2OD H 0.1505 0.0885 0.2230
Co1D Co 0.2500 0.2500 0.0000
Co1H Co 0.0000 0.2500 0.2500
C1L C 0.0523(3) 0.2327(2) -0.1915(2)
H1L H 0.0429 0.2546 -0.1817
C2L C 0.0798(2) 0.2132(3) -0.1728(2)
H2L H 0.0885 0.2230 -0.1505
C3L C 0.0935(2) 0.1838(2) -0.1838(2)
N1L N 0.0405(2) 0.22082(14) -0.22082(14)
N2L N 0.1194(2) 0.1632(2) -0.1632(2)
C5L C 0.1320(2) 0.1799(3) -0.1320(2)
C1P C 0.2327(2) 0.1915(2) -0.0523(3)
H1P H 0.2546 0.1817 -0.0429
C2P C 0.2132(3) 0.1728(2) -0.0798(2)
H2P H 0.2230 0.1505 -0.0885
C3P C 0.1838(2) 0.1838(2) -0.0935(2)
N1P N 0.22082(14) 0.22082(14) -0.0405(2)
N2P N 0.1632(2) 0.1632(2) -0.1194(2)
C5P C 0.1799(3) 0.1320(2) -0.1320(2)
C1T C 0.1915(2) 0.0523(3) -0.2327(2)
H1T H 0.1817 0.0429 -0.2546
C2T C 0.1728(2) 0.0798(2) -0.2132(3)
H2T H 0.1505 0.0885 -0.2230
C3T C 0.1838(2) 0.0935(2) -0.1838(2)
N1T N 0.22082(14) 0.0405(2) -0.22082(14)
N2T N 0.1632(2) 0.1194(2) -0.1632(2)
C5T C 0.1320(2) 0.1320(2) -0.1799(3)
C1SC C 0.2327(2) 0.0523(3) -0.1915(2)
H1SC H 0.2546 0.0429 -0.1817
C2SC C 0.2132(3) 0.0798(2) -0.1728(2)
H2SC H 0.2230 0.0885 -0.1505
C1XC C 0.1915(2) 0.2327(2) -0.0523(3)
H1XC H 0.1817 0.2546 -0.0429
C2XC C 0.1728(2) 0.2132(3) -0.0798(2)
H2XC H 0.1505 0.2230 -0.0885
C1CD C 0.0523(3) 0.1915(2) -0.2327(2)
H1CD H 0.0429 0.1817 -0.2546
C2CD C 0.0798(2) 0.1728(2) -0.2132(3)
H2CD H 0.0885 0.1505 -0.2230
C1N C 0.0523(3) -0.2327(2) 0.1915(2)
H1N H 0.0429 -0.2546 0.1817
C2N C 0.0798(2) -0.2132(3) 0.1728(2)
H2N H 0.0885 -0.2230 0.1505
C3N C 0.0935(2) -0.1838(2) 0.1838(2)
N1N N 0.0405(2) -0.22082(14) 0.22082(14)
N2N N 0.1194(2) -0.1632(2) 0.1632(2)
C5N C 0.1320(2) -0.1799(3) 0.1320(2)
C1S C 0.2327(2) -0.1915(2) 0.0523(3)
H1S H 0.2546 -0.1817 0.0429
C2S C 0.2132(3) -0.1728(2) 0.0798(2)
H2S H 0.2230 -0.1505 0.0885
C3S C 0.1838(2) -0.1838(2) 0.0935(2)
N1S N 0.22082(14) -0.22082(14) 0.0405(2)
N2S N 0.1632(2) -0.1632(2) 0.1194(2)
C5S C 0.1799(3) -0.1320(2) 0.1320(2)
C1U C 0.1915(2) -0.0523(3) 0.2327(2)
H1U H 0.1817 -0.0429 0.2546
C2U C 0.1728(2) -0.0798(2) 0.2132(3)
H2U H 0.1505 -0.0885 0.2230
C3U C 0.1838(2) -0.0935(2) 0.1838(2)
N1U N 0.22082(14) -0.0405(2) 0.22082(14)
N2U N 0.1632(2) -0.1194(2) 0.1632(2)
C5U C 0.1320(2) -0.1320(2) 0.1799(3)
C1TC C 0.2327(2) -0.0523(3) 0.1915(2)
H1TC H 0.2546 -0.0429 0.1817
C2TC C 0.2132(3) -0.0798(2) 0.1728(2)
H2TC H 0.2230 -0.0885 0.1505
C1YC C 0.1915(2) -0.2327(2) 0.0523(3)
H1YC H 0.1817 -0.2546 0.0429
C2YC C 0.1728(2) -0.2132(3) 0.0798(2)
H2YC H 0.1505 -0.2230 0.0885
C1AD C 0.0523(3) -0.1915(2) 0.2327(2)
H1AD H 0.0429 -0.1817 0.2546
C2AD C 0.0798(2) -0.1728(2) 0.2132(3)
H2AD H 0.0885 -0.1505 0.2230
C1O C -0.0523(3) 0.2327(2) 0.1915(2)
H1O H -0.0429 0.2546 0.1817
C2O C -0.0798(2) 0.2132(3) 0.1728(2)
H2O H -0.0885 0.2230 0.1505
C3O C -0.0935(2) 0.1838(2) 0.1838(2)
C4O C 0.0000 0.1854(3) 0.3146(3)
N1O N -0.0405(2) 0.22082(14) 0.22082(14)
N2O N -0.1194(2) 0.1632(2) 0.1632(2)
C5O C -0.1320(2) 0.1799(3) 0.1320(2)
N3O N -0.0000 0.2086(2) 0.2914(2)
S1O S -0.0000 0.15796(9) 0.34204(9)
C1Q C -0.2327(2) 0.1915(2) 0.0523(3)
H1Q H -0.2546 0.1817 0.0429
C2Q C -0.2132(3) 0.1728(2) 0.0798(2)
H2Q H -0.2230 0.1505 0.0885
C3Q C -0.1838(2) 0.1838(2) 0.0935(2)
N1Q N -0.22082(14) 0.22082(14) 0.0405(2)
N2Q N -0.1632(2) 0.1632(2) 0.1194(2)
C5Q C -0.1799(3) 0.1320(2) 0.1320(2)
C1V C -0.1915(2) 0.0523(3) 0.2327(2)
H1V H -0.1817 0.0429 0.2546
C2V C -0.1728(2) 0.0798(2) 0.2132(3)
H2V H -0.1505 0.0885 0.2230
C3V C -0.1838(2) 0.0935(2) 0.1838(2)
N1V N -0.22082(14) 0.0405(2) 0.22082(14)
N2V N -0.1632(2) 0.1194(2) 0.1632(2)
C5V C -0.1320(2) 0.1320(2) 0.1799(3)
C1UC C -0.2327(2) 0.0523(3) 0.1915(2)
H1UC H -0.2546 0.0429 0.1817
C2UC C -0.2132(3) 0.0798(2) 0.1728(2)
H2UC H -0.2230 0.0885 0.1505
C1WC C -0.1915(2) 0.2327(2) 0.0523(3)
H1WC H -0.1817 0.2546 0.0429
C2WC C -0.1728(2) 0.2132(3) 0.0798(2)
H2WC H -0.1505 0.2230 0.0885
C1BD C -0.0523(3) 0.1915(2) 0.2327(2)
H1BD H -0.0429 0.1817 0.2546
C2BD C -0.0798(2) 0.1728(2) 0.2132(3)
H2BD H -0.0885 0.1505 0.2230
C4P C 0.1854(3) 0.3146(3) 0.0000
N3P N 0.2086(2) 0.2914(2) 0.0000
S1P S 0.15796(9) 0.34204(9) 0.0000
C4U C 0.3146(3) 0.0000 0.1854(3)
N3U N 0.2914(2) -0.0000 0.2086(2)
S1U S 0.34204(9) -0.0000 0.15796(9)
C4D C 0.3146(3) 0.1854(3) 0.0000
N3D N 0.2914(2) 0.2086(2) 0.0000
S1D S 0.34204(9) 0.15796(9) 0.0000
C4H C 0.0000 0.3146(3) 0.1854(3)
N3H N 0.0000 0.2914(2) 0.2086(2)
S1H S -0.0000 0.34204(9) 0.15796(9)
Co1A Co -0.2500 0.0000 0.2500
Co1C Co 0.2500 0.0000 -0.2500
Co1E Co 0.2500 -0.2500 0.0000
Co1G Co -0.2500 0.2500 0.0000
Co1I Co 0.0000 0.2500 -0.2500
Co1K Co 0.0000 -0.2500 0.2500
N1HA N 0.0405(2) 0.27918(14) 0.27918(14)
N1KA N -0.0405(2) 0.27918(14) 0.27918(14)
N1XA N 0.27918(14) 0.0405(2) 0.27918(14)
N1SB N 0.27918(14) -0.0405(2) 0.27918(14)
N1ZB N 0.27918(14) 0.27918(14) 0.0405(2)
N1LC N 0.27918(14) 0.27918(14) -0.0405(2)
loop_
_geom_bond_atom_site_label_1
_geom_bond_atom_site_label_2
_geom_bond_site_symmetry_1
_geom_bond_site_symmetry_2
C1 H1 1_555 1_555
C2 C1 1_555 1_555
H2 C2 1_555 1_555
C3 C2 1_555 1_555
C4 N3 1_555 1_555
Co1 N1 1_555 1_555
N1 C1 1_555 1_555
N2 C3 1_555 1_555
C5 N2 1_555 1_555
N3 Co1 1_555 1_555
S1 C4 1_555 1_555
C1D H1D 1_555 1_555
C2D C1D 1_555 1_555
H2D C2D 1_555 1_555
C3D C2D 1_555 1_555
N1D C1D 1_555 1_555
N2D C5 1_555 1_555
C5D N2D 1_555 1_555
C1H H1H 1_555 1_555
C2H C1H 1_555 1_555
H2H C2H 1_555 1_555
C3H C2H 1_555 1_555
N1H C1H 1_555 1_555
N2H C5D 1_555 1_555
C5H N2 1_555 1_555
C1ED N1H 1_555 1_555
H1ED C1ED 1_555 1_555
C2ED C3H 1_555 1_555
H2ED C2ED 1_555 1_555
C1JD N1D 1_555 1_555
H1JD C1JD 1_555 1_555
C2JD C3D 1_555 1_555
H2JD C2JD 1_555 1_555
C1OD N1 1_555 1_555
H1OD C1OD 1_555 1_555
C2OD C3 1_555 1_555
H2OD C2OD 1_555 1_555
Co1D N1D 1_555 1_555
Co1H N1H 1_555 1_555
C1L H1L 1_555 1_555
C2L C1L 1_555 1_555
H2L C2L 1_555 1_555
C3L C2L 1_555 1_555
N1L C1L 1_555 1_555
N2L C3L 1_555 1_555
C5L N2L 1_555 1_555
C1P H1P 1_555 1_555
C2P C1P 1_555 1_555
H2P C2P 1_555 1_555
C3P C2P 1_555 1_555
N1P Co1D 1_555 1_555
N2P C5L 1_555 1_555
C5P N2P 1_555 1_555
C1T H1T 1_555 1_555
C2T C1T 1_555 1_555
H2T C2T 1_555 1_555
C3T C2T 1_555 1_555
N1T C1T 1_555 1_555
N2T C5P 1_555 1_555
C5T N2L 1_555 1_555
C1SC N1T 1_555 1_555
H1SC C1SC 1_555 1_555
C2SC C3T 1_555 1_555
H2SC C2SC 1_555 1_555
C1XC N1P 1_555 1_555
H1XC C1XC 1_555 1_555
C2XC C3P 1_555 1_555
H2XC C2XC 1_555 1_555
C1CD N1L 1_555 1_555
H1CD C1CD 1_555 1_555
C2CD C3L 1_555 1_555
H2CD C2CD 1_555 1_555
C1N H1N 1_555 1_555
C2N C1N 1_555 1_555
H2N C2N 1_555 1_555
C3N C2N 1_555 1_555
N1N C1N 1_555 1_555
N2N C3N 1_555 1_555
C5N N2N 1_555 1_555
C1S H1S 1_555 1_555
C2S C1S 1_555 1_555
H2S C2S 1_555 1_555
C3S C2S 1_555 1_555
N1S C1S 1_555 1_555
N2S C5N 1_555 1_555
C5S N2S 1_555 1_555
C1U H1U 1_555 1_555
C2U C1U 1_555 1_555
H2U C2U 1_555 1_555
C3U C2U 1_555 1_555
N1U Co1 1_555 1_555
N2U C5S 1_555 1_555
C5U N2N 1_555 1_555
C1TC N1U 1_555 1_555
H1TC C1TC 1_555 1_555
C2TC C3U 1_555 1_555
H2TC C2TC 1_555 1_555
C1YC N1S 1_555 1_555
H1YC C1YC 1_555 1_555
C2YC C3S 1_555 1_555
H2YC C2YC 1_555 1_555
C1AD N1N 1_555 1_555
H1AD C1AD 1_555 1_555
C2AD C3N 1_555 1_555
H2AD C2AD 1_555 1_555
C1O H1O 1_555 1_555
C2O C1O 1_555 1_555
H2O C2O 1_555 1_555
C3O C2O 1_555 1_555
C4O N3O 1_555 1_555
N1O Co1H 1_555 1_555
N2O C3O 1_555 1_555
C5O N2O 1_555 1_555
N3O Co1H 1_555 1_555
S1O C4O 1_555 1_555
C1Q H1Q 1_555 1_555
C2Q C1Q 1_555 1_555
H2Q C2Q 1_555 1_555
C3Q C2Q 1_555 1_555
N1Q C1Q 1_555 1_555
N2Q C5O 1_555 1_555
C5Q N2Q 1_555 1_555
C1V H1V 1_555 1_555
C2V C1V 1_555 1_555
H2V C2V 1_555 1_555
C3V C2V 1_555 1_555
N1V C1V 1_555 1_555
N2V C5Q 1_555 1_555
C5V N2O 1_555 1_555
C1UC N1V 1_555 1_555
H1UC C1UC 1_555 1_555
C2UC C3V 1_555 1_555
H2UC C2UC 1_555 1_555
C1WC N1Q 1_555 1_555
H1WC C1WC 1_555 1_555
C2WC C3Q 1_555 1_555
H2WC C2WC 1_555 1_555
C1BD N1O 1_555 1_555
H1BD C1BD 1_555 1_555
C2BD C3O 1_555 1_555
H2BD C2BD 1_555 1_555
C4P N3P 1_555 1_555
N3P Co1D 1_555 1_555
S1P C4P 1_555 1_555
C4U N3U 1_555 1_555
N3U Co1 1_555 1_555
S1U C4U 1_555 1_555
C4D N3D 1_555 1_555
N3D Co1D 1_555 1_555
S1D C4D 1_555 1_555
C4H N3H 1_555 1_555
N3H Co1H 1_555 1_555
S1H C4H 1_555 1_555
Co1A N1V 1_555 1_555
Co1C N1T 1_555 1_555
Co1E N1S 1_555 1_555
Co1G N1Q 1_555 1_555
Co1I N1L 1_555 1_555
Co1K N1N 1_555 1_555
N1HA Co1H 1_555 1_555
N1KA Co1H 1_555 1_555
N1XA Co1 1_555 1_555
N1SB Co1 1_555 1_555
N1ZB Co1D 1_555 1_555
N1LC Co1D 1_555 1_555
C3D N2D 1_555 1_555
C3H N2H 1_555 1_555
N2H C5H 1_555 1_555
C1ED C2ED 1_555 1_555
C1JD C2JD 1_555 1_555
C1OD C2OD 1_555 1_555
C1P N1P 1_555 1_555
C3P N2P 1_555 1_555
C3T N2T 1_555 1_555
N2T C5T 1_555 1_555
C1SC C2SC 1_555 1_555
C1XC C2XC 1_555 1_555
C1CD C2CD 1_555 1_555
C3S N2S 1_555 1_555
C1U N1U 1_555 1_555
C3U N2U 1_555 1_555
N2U C5U 1_555 1_555
C1TC C2TC 1_555 1_555
C1YC C2YC 1_555 1_555
C1AD C2AD 1_555 1_555
C1O N1O 1_555 1_555
C3Q N2Q 1_555 1_555
C3V N2V 1_555 1_555
N2V C5V 1_555 1_555
C1UC C2UC 1_555 1_555
C1WC C2WC 1_555 1_555
C1BD C2BD 1_555 1_555

#END
