
#######################################################################
#
#                 Cambridge Crystallographic Data Centre
#                                CCDC 
#
#######################################################################
#
# If this CIF has been generated from an entry in the Cambridge 
# Structural Database, then it will include bibliographic, chemical, 
# crystal, experimental, refinement or atomic coordinate data resulting 
# from the CCDC's data processing and validation procedures.
#
#######################################################################

data_ZOTKAW
_chemical_formula_moiety         '(C44 H33 Er1 N8 O10)n'
_symmetry_cell_setting           orthorhombic
_symmetry_space_group_name_H-M   'P c c n'
_symmetry_Int_Tables_number      56
_space_group_name_Hall           '-P 2ab 2ac'
loop_
_symmetry_equiv_pos_site_id
_symmetry_equiv_pos_as_xyz
1 x,y,z
2 1/2-x,1/2-y,z
3 1/2+x,-y,1/2-z
4 -x,1/2+y,1/2-z
5 -x,-y,-z
6 1/2+x,1/2+y,-z
7 1/2-x,y,1/2+z
8 x,1/2-y,1/2+z
_cell_length_a                   13.138(3)
_cell_length_b                   33.947(7)
_cell_length_c                   10.013(2)
_cell_angle_alpha                90
_cell_angle_beta                 90
_cell_angle_gamma                90
_cell_volume                     4465.75
loop_
_atom_site_label
_atom_site_type_symbol
_atom_site_fract_x
_atom_site_fract_y
_atom_site_fract_z
Er1 Er 0.2500 0.2500 0.03191(3)
O1 O 0.1841(3) 0.29039(11) 0.1882(4)
O2 O 0.1026(3) 0.27308(12) -0.0866(4)
O3 O 0.2091(3) 0.30406(10) 0.4011(4)
O4 O -0.1035(3) 0.71638(12) 0.3692(3)
C1 C 0.1897(4) 0.31405(16) 0.2849(5)
H1 H 0.1069 0.2794 -0.1675
H2 H 0.0601 0.2547 -0.0796
C2 C 0.1713(4) 0.35669(15) 0.2558(5)
C3 C 0.1638(4) 0.37040(16) 0.1258(5)
C4 C 0.1674(4) 0.38392(15) 0.3617(5)
C5 C 0.1540(4) 0.41055(16) 0.0999(5)
H3 H 0.1652 0.3522 0.0536
H4 H 0.1717 0.3750 0.4514
C6 C 0.1575(4) 0.42346(15) 0.3352(5)
C7 C 0.1507(4) 0.43718(15) 0.2041(5)
H5 H 0.1497 0.4196 0.0104
H6 H 0.1552 0.4417 0.4071
N1 N 0.1393(3) 0.47812(13) 0.1858(5)
H7 H 0.1285 0.4943 0.2556
C8 C 0.1315(4) 0.50006(17) 0.0725(6)
N2 N 0.1329(3) 0.48493(14) -0.0465(5)
C9 C 0.1199(4) 0.54264(17) 0.1003(7)
C10 C 0.1212(4) 0.51104(17) -0.1525(6)
N3 N 0.1094(4) 0.56651(14) -0.0055(5)
N4 N 0.1041(13) 0.5532(11) 0.231(4)
C11 C 0.1215(5) 0.4956(2) -0.2834(6)
C12 C 0.1081(4) 0.55144(17) -0.1356(6)
H8 H 0.1033 0.5921 0.0071
C13 C 0.0881(5) 0.59217(18) 0.2639(6)
H9 H 0.1312 0.4682 -0.2976
C14 C 0.1075(5) 0.5205(2) -0.3907(7)
C15 C 0.0941(5) 0.5763(2) -0.2445(7)
C16 C -0.0099(5) 0.6052(2) 0.2329(6)
C17 C 0.1512(5) 0.61623(19) 0.3419(6)
H10 H 0.1066 0.5100 -0.4786
C18 C 0.0948(5) 0.5605(2) -0.3721(7)
H11 H 0.0841 0.6037 -0.2315
H12 H -0.0528 0.5895 0.1781
C19 C -0.0447(4) 0.64082(19) 0.2814(5)
C20 C 0.1144(4) 0.65148(19) 0.3906(6)
H13 H 0.2190 0.6083 0.3611
H14 H 0.0866 0.5773 -0.4472
H15 H -0.1117 0.6493 0.2601
C21 C 0.0167(4) 0.66437(16) 0.3605(5)
H16 H 0.1568 0.6673 0.4458
C22 C -0.0221(5) 0.70221(18) 0.4189(6)
O5 O 0.0257(3) 0.71693(15) 0.5140(4)
O1A O 0.3159(3) 0.20961(11) 0.1882(4)
O2A O 0.3974(3) 0.22692(12) -0.0866(4)
O3A O 0.2909(3) 0.19594(10) 0.4011(4)
O4A O 0.6035(3) -0.21638(12) 0.3692(3)
C1A C 0.3103(4) 0.18595(16) 0.2849(5)
H1A H 0.3931 0.2206 -0.1675
H2A H 0.4399 0.2453 -0.0796
C2A C 0.3287(4) 0.14331(15) 0.2558(5)
C3A C 0.3362(4) 0.12960(16) 0.1258(5)
C4A C 0.3326(4) 0.11608(15) 0.3617(5)
C5A C 0.3460(4) 0.08945(16) 0.0999(5)
H3A H 0.3348 0.1478 0.0536
H4A H 0.3283 0.1250 0.4514
C6A C 0.3425(4) 0.07654(15) 0.3352(5)
C7A C 0.3493(4) 0.06282(15) 0.2041(5)
H5A H 0.3503 0.0804 0.0104
H6A H 0.3448 0.0583 0.4071
N1A N 0.3607(3) 0.02188(13) 0.1858(5)
H7A H 0.3715 0.0057 0.2556
C8A C 0.3685(4) -0.00006(17) 0.0725(6)
N2A N 0.3671(3) 0.01507(14) -0.0465(5)
C9A C 0.3801(4) -0.04264(17) 0.1003(7)
C10A C 0.3788(4) -0.01104(17) -0.1525(6)
N3A N 0.3906(4) -0.06651(14) -0.0055(5)
N4A N 0.3959(13) -0.0532(11) 0.231(4)
C11A C 0.3785(5) 0.0044(2) -0.2834(6)
C12A C 0.3919(4) -0.05144(17) -0.1356(6)
H8A H 0.3967 -0.0921 0.0071
C13A C 0.4119(5) -0.09217(18) 0.2639(6)
H9A H 0.3688 0.0318 -0.2976
C14A C 0.3925(5) -0.0205(2) -0.3907(7)
C15A C 0.4059(5) -0.0763(2) -0.2445(7)
C16A C 0.5099(5) -0.1052(2) 0.2329(6)
C17A C 0.3488(5) -0.11623(19) 0.3419(6)
H10A H 0.3934 -0.0100 -0.4786
C18A C 0.4052(5) -0.0605(2) -0.3721(7)
H11A H 0.4159 -0.1037 -0.2315
H12A H 0.5528 -0.0895 0.1781
C19A C 0.5447(4) -0.14082(19) 0.2814(5)
C20A C 0.3856(4) -0.15148(19) 0.3906(6)
H13A H 0.2810 -0.1083 0.3611
H14A H 0.4134 -0.0773 -0.4472
H15A H 0.6117 -0.1493 0.2601
C21A C 0.4833(4) -0.16437(16) 0.3605(5)
H16A H 0.3432 -0.1673 0.4458
C22A C 0.5221(5) -0.20221(18) 0.4189(6)
O5A O 0.4743(3) -0.21693(15) 0.5140(4)
Er1B Er -0.2500 0.7500 0.46809(3)
Er1B_2 Er 0.7500 -0.2500 0.46809(3)
Er1F Er 0.2500 0.2500 0.53191(3)
O3F O 0.2909(3) 0.30406(10) -0.0989(4)
O3G O 0.2091(3) 0.19594(10) -0.0989(4)
O4B O 0.3965(3) 0.28362(12) 0.1308(3)
O4C O 0.1035(3) 0.21638(12) 0.1308(3)
loop_
_geom_bond_atom_site_label_1
_geom_bond_atom_site_label_2
_geom_bond_site_symmetry_1
_geom_bond_site_symmetry_2
Er1 O1 1_555 1_555
O1 C1 1_555 1_555
O2 Er1 1_555 1_555
O3 C1 1_555 1_555
O4 C22 1_555 1_555
C1 C2 1_555 1_555
H1 O2 1_555 1_555
H2 O2 1_555 1_555
C2 C3 1_555 1_555
C3 C5 1_555 1_555
C4 C2 1_555 1_555
C5 C7 1_555 1_555
H3 C3 1_555 1_555
H4 C4 1_555 1_555
C6 C4 1_555 1_555
C7 C6 1_555 1_555
H5 C5 1_555 1_555
H6 C6 1_555 1_555
N1 C7 1_555 1_555
H7 N1 1_555 1_555
C8 N1 1_555 1_555
N2 C8 1_555 1_555
C9 C8 1_555 1_555
C10 N2 1_555 1_555
N3 C9 1_555 1_555
N4 C9 1_555 1_555
C11 C10 1_555 1_555
C12 C10 1_555 1_555
H8 N3 1_555 1_555
C13 N4 1_555 1_555
H9 C11 1_555 1_555
C14 C11 1_555 1_555
C15 C12 1_555 1_555
C16 C13 1_555 1_555
C17 C13 1_555 1_555
H10 C14 1_555 1_555
C18 C14 1_555 1_555
H11 C15 1_555 1_555
H12 C16 1_555 1_555
C19 C16 1_555 1_555
C20 C17 1_555 1_555
H13 C17 1_555 1_555
H14 C18 1_555 1_555
H15 C19 1_555 1_555
C21 C19 1_555 1_555
H16 C20 1_555 1_555
C22 C21 1_555 1_555
O5 C22 1_555 1_555
O1A Er1 1_555 1_555
O2A Er1 1_555 1_555
O3A C1A 1_555 1_555
O4A C22A 1_555 1_555
C1A O1A 1_555 1_555
H1A O2A 1_555 1_555
H2A O2A 1_555 1_555
C2A C1A 1_555 1_555
C3A C2A 1_555 1_555
C4A C2A 1_555 1_555
C5A C3A 1_555 1_555
H3A C3A 1_555 1_555
H4A C4A 1_555 1_555
C6A C4A 1_555 1_555
C7A C5A 1_555 1_555
H5A C5A 1_555 1_555
H6A C6A 1_555 1_555
N1A C7A 1_555 1_555
H7A N1A 1_555 1_555
C8A N1A 1_555 1_555
N2A C8A 1_555 1_555
C9A C8A 1_555 1_555
C10A N2A 1_555 1_555
N3A C9A 1_555 1_555
N4A C9A 1_555 1_555
C11A C10A 1_555 1_555
C12A C10A 1_555 1_555
H8A N3A 1_555 1_555
C13A N4A 1_555 1_555
H9A C11A 1_555 1_555
C14A C11A 1_555 1_555
C15A C12A 1_555 1_555
C16A C13A 1_555 1_555
C17A C13A 1_555 1_555
H10A C14A 1_555 1_555
C18A C14A 1_555 1_555
H11A C15A 1_555 1_555
H12A C16A 1_555 1_555
C19A C16A 1_555 1_555
C20A C17A 1_555 1_555
H13A C17A 1_555 1_555
H14A C18A 1_555 1_555
H15A C19A 1_555 1_555
C21A C19A 1_555 1_555
H16A C20A 1_555 1_555
C22A C21A 1_555 1_555
O5A C22A 1_555 1_555
Er1B O4 1_555 1_555
Er1B_2 O4A 1_555 1_555
Er1F O3 1_555 1_555
O3F Er1 1_555 1_555
O3G Er1 1_555 1_555
O4B Er1 1_555 1_555
O4C Er1 1_555 1_555
N3 C12 1_555 1_555
C15 C18 1_555 1_555
C20 C21 1_555 1_555
O3A Er1F 1_555 1_555
C6A C7A 1_555 1_555
N3A C12A 1_555 1_555
C15A C18A 1_555 1_555
C20A C21A 1_555 1_555

#END
