
#######################################################################
#
#                 Cambridge Crystallographic Data Centre
#                                CCDC 
#
#######################################################################
#
# If this CIF has been generated from an entry in the Cambridge 
# Structural Database, then it will include bibliographic, chemical, 
# crystal, experimental, refinement or atomic coordinate data resulting 
# from the CCDC's data processing and validation procedures.
#
#######################################################################

data_GAMTOE
_chemical_formula_moiety         '(C24 H28 La2 O17)n'
_symmetry_cell_setting           triclinic
_symmetry_space_group_name_H-M   'P -1'
_symmetry_Int_Tables_number      2
_space_group_name_Hall           '-P 1'
loop_
_symmetry_equiv_pos_site_id
_symmetry_equiv_pos_as_xyz
1 x,y,z
2 -x,-y,-z
_cell_length_a                   11.857(8)
_cell_length_b                   12.554(8)
_cell_length_c                   12.515(8)
_cell_angle_alpha                119.12(5)
_cell_angle_beta                 98.44(6)
_cell_angle_gamma                108.27(4)
_cell_volume                     1441.28
loop_
_atom_site_label
_atom_site_type_symbol
_atom_site_fract_x
_atom_site_fract_y
_atom_site_fract_z
La1 La 0.479746(15) 0.011026(15) 0.177948(15)
La2 La 0.802850(16) 0.235930(16) 0.756100(15)
O1 O 0.5926(2) 0.1615(2) 0.4158(2)
O2 O 0.6685(2) 0.2830(2) 0.63228(19)
O3 O 0.5724(2) 0.8020(2) 0.7965(2)
O4 O 0.5290(2) 0.8867(2) 0.9768(2)
O5 O 1.2666(2) 0.8535(2) 0.9971(2)
O6 O 1.1098(2) 0.7267(2) 1.0243(2)
O7 O 0.3050(2) -0.0002(2) 0.2782(2)
O8 O 0.1159(2) -0.0498(2) 0.2940(2)
O9 O 0.3949(2) 0.1109(2) 0.7649(2)
O10 O 0.6017(2) 0.1983(2) 0.8124(2)
O11 O -0.0597(2) 0.3609(3) 0.6671(2)
O12 O 0.0433(2) 0.3682(2) 0.8336(2)
O13 O 0.6966(2) 0.1742(2) 0.2245(2)
O14 O 0.8369(2) 0.4777(2) 0.9100(2)
O15 O 0.7443(3) 0.0646(3) 0.5137(2)
C1 C 0.7335(3) 0.5332(3) 0.6668(3)
C2 C 0.6562(3) 0.5723(3) 0.7364(3)
H1 H 0.5664 0.5190 0.6962
C3 C 0.7090(3) 0.6890(3) 0.8646(3)
C4 C 0.8407(3) 0.7667(3) 0.9218(3)
H2 H 0.8775 0.8447 1.0097
C5 C 0.9189(3) 0.7319(3) 0.8524(3)
C6 C 0.8646(3) 0.6138(3) 0.7253(3)
H3 H 0.9178 0.5880 0.6782
C7 C 0.6732(4) 0.4026(3) 0.5298(3)
H4 H 0.5934 0.3954 0.4828
H5 H 0.7316 0.4082 0.4817
C8 C 0.6430(3) 0.2745(3) 0.5269(3)
C9 C 0.6238(3) 0.7336(3) 0.9372(3)
H6 H 0.6727 0.7917 1.0327
H7 H 0.5518 0.6522 0.9175
C10 C 0.5720(3) 0.8119(3) 0.9001(3)
C11 C 1.0602(3) 0.8251(4) 0.9112(4)
H8 H 1.0727 0.9188 0.9740
H9 H 1.0872 0.8242 0.8397
C12 C 1.1499(3) 0.7968(3) 0.9815(3)
C13 C 0.2722(3) 0.2594(3) 0.5127(3)
C14 C 0.3633(3) 0.2559(3) 0.5936(3)
H10 H 0.4064 0.2031 0.5561
C15 C 0.3921(3) 0.3290(3) 0.7291(3)
C16 C 0.3270(3) 0.4045(3) 0.7825(3)
H11 H 0.3431 0.4511 0.8739
C17 C 0.2387(3) 0.4130(3) 0.7043(3)
C18 C 0.2119(3) 0.3407(3) 0.5699(3)
H12 H 0.1520 0.3465 0.5161
C19 C 0.2413(3) 0.1806(3) 0.3652(3)
H13 H 0.1645 0.1815 0.3228
H14 H 0.3129 0.2258 0.3466
C20 C 0.2181(3) 0.0345(3) 0.3078(3)
C21 C 0.5011(3) 0.3383(3) 0.8182(3)
H15 H 0.5063 0.3956 0.9095
H16 H 0.5810 0.3865 0.8117
C22 C 0.4964(3) 0.2059(3) 0.7935(3)
C23 C 0.1681(3) 0.4961(3) 0.7634(3)
H17 H 0.2204 0.5709 0.8564
H18 H 0.1520 0.5367 0.7155
C24 C 0.0432(3) 0.4041(3) 0.7540(3)
La1A La 0.520254(15) 0.988974(15) 0.822052(15)
La1_2 La 0.479746(15) 1.011026(15) 1.177948(15)
La1_3 La 1.479746(15) 1.011026(15) 1.177948(15)
La1A_2 La 0.520254(15) -0.011026(15) 0.822052(15)
La2A La 1.197150(16) 0.764070(16) 1.243900(15)
La2A_2 La 0.197150(16) -0.235930(16) 0.243900(15)
La2_2 La -0.197150(16) 0.235930(16) 0.756100(15)
O3A O 0.4276(2) 0.1980(2) 0.2035(2)
O4_2 O 0.5290(2) -0.1133(2) -0.0232(2)
O4A O 0.4710(2) 0.1133(2) 0.0232(2)
O5_2 O 0.2666(2) -0.1465(2) -0.0029(2)
O6A O 0.8902(2) 0.2733(2) 0.9757(2)
O7A O 0.6950(2) 0.0002(2) 0.7218(2)
O8A O 0.8841(2) 0.0498(2) 0.7060(2)
O9A O 0.6051(2) -0.1109(2) 0.2351(2)
O10A O 0.3983(2) -0.1983(2) 0.1876(2)
O11_2 O 0.9403(2) 0.3609(3) 0.6671(2)
O12_2 O 1.0433(2) 0.3682(2) 0.8336(2)
O17 O 0.9056(3) 0.2389(4) 0.4012(3)
O18 O 0.1084(4) 0.0202(4) 0.6683(5)
loop_
_geom_bond_atom_site_label_1
_geom_bond_atom_site_label_2
_geom_bond_site_symmetry_1
_geom_bond_site_symmetry_2
La1 O1 1_555 1_555
La2 O2 1_555 1_555
O1 C8 1_555 1_555
O2 C8 1_555 1_555
O3 C10 1_555 1_555
O4 C10 1_555 1_555
O5 C12 1_555 1_555
O6 C12 1_555 1_555
O7 La1 1_555 1_555
O8 C20 1_555 1_555
O9 C22 1_555 1_555
O10 La2 1_555 1_555
O11 C24 1_555 1_555
O12 C24 1_555 1_555
O13 La1 1_555 1_555
O14 La2 1_555 1_555
O15 La2 1_555 1_555
C1 C2 1_555 1_555
C2 H1 1_555 1_555
C3 C2 1_555 1_555
C4 C3 1_555 1_555
H2 C4 1_555 1_555
C5 C4 1_555 1_555
C6 C1 1_555 1_555
H3 C6 1_555 1_555
C7 C1 1_555 1_555
H4 C7 1_555 1_555
H5 C7 1_555 1_555
C8 C7 1_555 1_555
C9 C3 1_555 1_555
H6 C9 1_555 1_555
H7 C9 1_555 1_555
C10 C9 1_555 1_555
C11 C5 1_555 1_555
H8 C11 1_555 1_555
H9 C11 1_555 1_555
C12 C11 1_555 1_555
C13 C14 1_555 1_555
C14 H10 1_555 1_555
C15 C14 1_555 1_555
C16 C15 1_555 1_555
H11 C16 1_555 1_555
C17 C16 1_555 1_555
C18 C13 1_555 1_555
H12 C18 1_555 1_555
C19 C13 1_555 1_555
H13 C19 1_555 1_555
H14 C19 1_555 1_555
C20 O7 1_555 1_555
C21 C15 1_555 1_555
H15 C21 1_555 1_555
H16 C21 1_555 1_555
C22 O10 1_555 1_555
C23 C17 1_555 1_555
H17 C23 1_555 1_555
H18 C23 1_555 1_555
C24 C23 1_555 1_555
La1A O3 1_555 1_555
La1_2 O4 1_555 1_555
La1_3 O5 1_555 1_555
La1A_2 O9 1_555 1_555
La2A O6 1_555 1_555
La2A_2 O7 1_555 1_555
La2_2 O11 1_555 1_555
O3A La1 1_555 1_555
O4_2 La1 1_555 1_555
O4A La1 1_555 1_555
O5_2 La1 1_555 1_555
O6A La2 1_555 1_555
O7A La2 1_555 1_555
O8A La2 1_555 1_555
O9A La1 1_555 1_555
O10A La1 1_555 1_555
O11_2 La2 1_555 1_555
O12_2 La2 1_555 1_555
O4 La1A 1_555 1_555
O8 La2A_2 1_555 1_555
O10 La1A_2 1_555 1_555
O12 La2_2 1_555 1_555
C5 C6 1_555 1_555
C17 C18 1_555 1_555
C19 C20 1_555 1_555
C21 C22 1_555 1_555
La1A_2 O7A 1_555 1_555
La2A_2 O10A 1_555 1_555

#END
