
#######################################################################
#
#                 Cambridge Crystallographic Data Centre
#                                CCDC 
#
#######################################################################
#
# If this CIF has been generated from an entry in the Cambridge 
# Structural Database, then it will include bibliographic, chemical, 
# crystal, experimental, refinement or atomic coordinate data resulting 
# from the CCDC's data processing and validation procedures.
#
#######################################################################

data_FEZCIX
_chemical_formula_moiety         '(C78 H140 Cu12 La2 N38 O20)n'
_symmetry_cell_setting           monoclinic
_symmetry_space_group_name_H-M   'P 21/c'
_symmetry_Int_Tables_number      14
_space_group_name_Hall           '-P 2ybc'
loop_
_symmetry_equiv_pos_site_id
_symmetry_equiv_pos_as_xyz
1 x,y,z
2 -x,1/2+y,1/2-z
3 -x,-y,-z
4 x,1/2-y,1/2+z
_cell_length_a                   27.1120(10)
_cell_length_b                   17.0697(10)
_cell_length_c                   27.5614(10)
_cell_angle_alpha                90.00
_cell_angle_beta                 101.518(10)
_cell_angle_gamma                90.00
_cell_volume                     12498.4
loop_
_atom_site_label
_atom_site_type_symbol
_atom_site_fract_x
_atom_site_fract_y
_atom_site_fract_z
O1 O 0.29446(14) -1.4449(2) 0.67591(15)
C1 C 0.3165(2) -1.4947(4) 0.7051(2)
H1 H 0.3488 -1.4814 0.7237
N1 N 0.29857(19) -1.5651(3) 0.71233(18)
C2 C 0.3278(3) -1.6219(5) 0.7449(3)
H2 H 0.3080 -1.6698 0.7454
H3 H 0.3366 -1.6003 0.7785
H4 H 0.3587 -1.6341 0.7330
C3 C 0.2500(3) -1.5906(4) 0.6848(2)
H5 H 0.2429 -1.6435 0.6954
H6 H 0.2504 -1.5910 0.6493
H7 H 0.2238 -1.5546 0.6911
O2 O 0.25217(15) -1.2931(2) 0.65340(15)
C4 C 0.2163(2) -1.3281(4) 0.6654(2)
H8 H 0.1894 -1.3439 0.6396
N2 N 0.21298(18) -1.3450(3) 0.71140(18)
C5 C 0.1706(3) -1.3894(4) 0.7223(3)
H9 H 0.1749 -1.3965 0.7582
H10 H 0.1692 -1.4408 0.7062
H11 H 0.1393 -1.3609 0.7100
C6 C 0.2540(3) -1.3276(5) 0.7525(3)
H12 H 0.2448 -1.3445 0.7835
H13 H 0.2605 -1.2711 0.7538
H14 H 0.2843 -1.3555 0.7480
O3 O 0.27931(16) -1.4159(3) 0.57143(15)
C7 C 0.2480(3) -1.4678(5) 0.5656(2)
H15 H 0.2156 -1.4540 0.5712
N3 N 0.25344(19) -1.5405(3) 0.55237(18)
C8 C 0.3033(3) -1.5678(6) 0.5466(4)
H16 H 0.3010 -1.6225 0.5355
H17 H 0.3270 -1.5639 0.5784
H18 H 0.3153 -1.5353 0.5220
C9 C 0.2142(4) -1.5976(5) 0.5442(3)
H19 H 0.2274 -1.6474 0.5345
H20 H 0.1869 -1.5796 0.5177
H21 H 0.2013 -1.6049 0.5747
O4 O 0.38515(15) -1.4606(2) 0.64141(16)
C10 C 0.4179(2) -1.4836(4) 0.6196(2)
H22 H 0.4242 -1.4527 0.5928
N4 N 0.44473(17) -1.5476(3) 0.63065(19)
C11 C 0.4832(3) -1.5697(5) 0.6029(3)
H23 H 0.5000 -1.6179 0.6169
H24 H 0.5081 -1.5275 0.6050
H25 H 0.4674 -1.5786 0.5681
C12 C 0.4386(3) -1.5963(5) 0.6712(3)
H26 H 0.4624 -1.6400 0.6742
H27 H 0.4042 -1.6166 0.6654
H28 H 0.4451 -1.5655 0.7018
O5 O 0.36577(16) -1.3278(3) 0.72430(15)
C13 C 0.3929(2) -1.2835(4) 0.7543(3)
H29 H 0.3862 -1.2289 0.7520
N5 N 0.42984(17) -1.3077(3) 0.78865(17)
C14 C 0.4406(3) -1.3920(5) 0.7915(3)
H30 H 0.4693 -1.4022 0.8185
H31 H 0.4486 -1.4098 0.7601
H32 H 0.4110 -1.4203 0.7976
C15 C 0.4608(2) -1.2578(4) 0.8246(3)
H33 H 0.4863 -1.2895 0.8462
H34 H 0.4396 -1.2314 0.8446
H35 H 0.4774 -1.2185 0.8075
O6 O 0.35007(18) -1.1904(2) 0.65944(17)
C16 C 0.3447(2) -1.1249(4) 0.6403(2)
H36 H 0.3674 -1.1100 0.6199
N6 N 0.31017(19) -1.0746(3) 0.64583(19)
C17 C 0.2742(3) -1.0917(5) 0.6762(3)
H37 H 0.2520 -1.0465 0.6764
H38 H 0.2920 -1.1029 0.7101
H39 H 0.2541 -1.1374 0.6628
C18 C 0.3064(3) -0.9967(4) 0.6229(3)
H40 H 0.2778 -0.9684 0.6314
H41 H 0.3013 -1.0023 0.5868
H42 H 0.3375 -0.9674 0.6350
O7 O 0.29429(15) -1.2384(3) 0.56516(15)
C19 C 0.2537(2) -1.2032(4) 0.5536(2)
H43 H 0.2265 -1.2205 0.5679
N7 N 0.24562(18) -1.1434(3) 0.52263(18)
C20 C 0.2864(3) -1.1139(5) 0.4999(3)
H44 H 0.2741 -1.0697 0.4781
H45 H 0.2979 -1.1558 0.4805
H46 H 0.3144 -1.0965 0.5258
C21 C 0.1977(2) -1.1037(4) 0.5111(3)
H47 H 0.1993 -1.0615 0.4874
H48 H 0.1899 -1.0815 0.5415
H49 H 0.1714 -1.1411 0.4967
O8 O 0.37639(15) -1.3426(3) 0.55689(16)
C22 C 0.3973(3) -1.2884(4) 0.5389(3)
H50 H 0.3894 -1.2364 0.5471
N8 N 0.4294(2) -1.2969(4) 0.5094(2)
C23 C 0.4429(3) -1.3743(5) 0.4952(3)
H51 H 0.4670 -1.3698 0.4731
H52 H 0.4127 -1.4016 0.4780
H53 H 0.4583 -1.4038 0.5248
C24 C 0.4521(4) -1.2310(6) 0.4898(3)
H54 H 0.4749 -1.2497 0.4688
H55 H 0.4711 -1.1999 0.5171
H56 H 0.4257 -1.1985 0.4700
O9 O 0.43077(17) -1.3039(3) 0.64958(19)
C25 C 0.4660(3) -1.2729(4) 0.6781(3)
H57 H 0.4583 -1.2261 0.6938
N9 N 0.51205(19) -1.2960(3) 0.6893(2)
C26 C 0.5283(3) -1.3665(6) 0.6675(5)
H58 H 0.5644 -1.3746 0.6801
H59 H 0.5221 -1.3608 0.6314
H60 H 0.5095 -1.4116 0.6762
C27 C 0.5506(3) -1.2564(5) 0.7252(3)
H61 H 0.5825 -1.2848 0.7285
H62 H 0.5404 -1.2549 0.7574
H63 H 0.5549 -1.2028 0.7140
La1 La 0.33540(2) -1.33095(5) 0.63273(3)
O10 O 0.12348(15) 0.3695(3) 0.44009(16)
C28 C 0.1063(3) 0.3154(4) 0.4609(3)
H64 H 0.1184 0.2642 0.4563
N10 N 0.0725(2) 0.3220(4) 0.4890(2)
C29 C 0.0538(4) 0.2546(6) 0.5121(3)
H65 H 0.0288 0.2719 0.5309
H66 H 0.0818 0.2290 0.5344
H67 H 0.0383 0.2175 0.4864
C30 C 0.0531(4) 0.3980(6) 0.4987(4)
H68 H 0.0284 0.3920 0.5200
H69 H 0.0369 0.4223 0.4673
H70 H 0.0809 0.4313 0.5152
O11 O 0.08029(16) 0.2958(3) 0.35285(17)
C31 C 0.0360(2) 0.3112(4) 0.3332(3)
H71 H 0.0305 0.3552 0.3117
N11 N -0.00330(18) 0.2724(3) 0.3397(2)
C32 C 0.0025(3) 0.2054(5) 0.3738(4)
H72 H -0.0307 0.1837 0.3750
H73 H 0.0190 0.2227 0.4070
H74 H 0.0231 0.1651 0.3621
C33 C -0.0539(3) 0.2925(5) 0.3167(3)
H75 H -0.0774 0.2567 0.3282
H76 H -0.0580 0.2881 0.2807
H77 H -0.0610 0.3464 0.3254
O12 O 0.10612(16) 0.4738(3) 0.34992(17)
C34 C 0.0776(3) 0.5032(4) 0.3748(3)
H78 H 0.0693 0.4718 0.4005
N12 N 0.05795(19) 0.5733(3) 0.3692(2)
C35 C 0.0677(3) 0.6220(4) 0.3305(3)
H79 H 0.0505 0.6723 0.3314
H80 H 0.0553 0.5964 0.2985
H81 H 0.1040 0.6309 0.3347
C36 C 0.0244(3) 0.6026(5) 0.4008(3)
H82 H 0.0142 0.6563 0.3911
H83 H 0.0421 0.6019 0.4354
H84 H -0.0055 0.5691 0.3969
O13 O 0.13096(16) 0.3515(2) 0.27390(15)
C37 C 0.1098(2) 0.3543(3) 0.2301(2)
H85 H 0.1158 0.3994 0.2119
N13 N 0.07952(18) 0.3004(3) 0.20608(19)
C38 C 0.0552(2) 0.3111(4) 0.1546(3)
H86 H 0.0346 0.2650 0.1431
H87 H 0.0808 0.3179 0.1344
H88 H 0.0336 0.3577 0.1515
C39 C 0.0686(3) 0.2296(5) 0.2296(3)
H89 H 0.0459 0.1971 0.2057
H90 H 0.0524 0.2424 0.2574
H91 H 0.0999 0.2010 0.2419
O14 O 0.20431(15) 0.4726(2) 0.31980(15)
C40 C 0.1816(2) 0.5236(4) 0.2922(2)
H92 H 0.1486 0.5120 0.2746
N14 N 0.20060(18) 0.5935(3) 0.28582(18)
C41 C 0.1714(3) 0.6535(4) 0.2544(3)
H93 H 0.1920 0.7007 0.2546
H94 H 0.1412 0.6661 0.2672
H95 H 0.1617 0.6336 0.2205
C42 C 0.2504(2) 0.6167(4) 0.3125(2)
H96 H 0.2577 0.6701 0.3029
H97 H 0.2756 0.5807 0.3043
H98 H 0.2513 0.6150 0.3482
O15 O 0.25299(15) 0.3284(3) 0.34979(17)
C43 C 0.2875(2) 0.3531(4) 0.3303(2)
H99 H 0.3164 0.3740 0.3517
N15 N 0.28761(18) 0.3528(3) 0.28307(19)
C44 C 0.3291(3) 0.3878(5) 0.2643(3)
H100 H 0.3227 0.3829 0.2281
H101 H 0.3605 0.3607 0.2786
H102 H 0.3321 0.4433 0.2735
C45 C 0.2455(3) 0.3234(6) 0.2476(3)
H103 H 0.2525 0.3284 0.2142
H104 H 0.2153 0.3537 0.2499
H105 H 0.2401 0.2682 0.2546
O16 O 0.21417(18) 0.4527(3) 0.42398(16)
C46 C 0.2489(3) 0.5009(4) 0.4304(2)
H106 H 0.2808 0.4834 0.4254
N16 N 0.24538(19) 0.5740(3) 0.44333(18)
C47 C 0.1970(3) 0.6066(6) 0.4486(4)
H107 H 0.2013 0.6617 0.4585
H108 H 0.1840 0.5772 0.4739
H109 H 0.1731 0.6027 0.4169
C48 C 0.2876(3) 0.6272(5) 0.4523(3)
H110 H 0.2765 0.6787 0.4617
H111 H 0.3014 0.6323 0.4222
H112 H 0.3137 0.6067 0.4792
O17 O 0.20875(17) 0.2724(3) 0.43572(17)
C49 C 0.2495(2) 0.2372(4) 0.4448(2)
H113 H 0.2764 0.2574 0.4312
N17 N 0.25762(19) 0.1742(3) 0.4719(2)
C50 C 0.2180(3) 0.1393(5) 0.4941(3)
H114 H 0.2310 0.0922 0.5127
H115 H 0.1893 0.1252 0.4680
H116 H 0.2072 0.1772 0.5166
C51 C 0.3062(3) 0.1344(4) 0.4825(3)
H117 H 0.3041 0.0886 0.5035
H118 H 0.3320 0.1704 0.4999
H119 H 0.3152 0.1175 0.4514
O18 O 0.1708(2) 0.2155(3) 0.3385(2)
C52 C 0.1580(3) 0.1529(5) 0.3505(3)
H120 H 0.1287 0.1515 0.3645
N18 N 0.1804(3) 0.0859(3) 0.3464(2)
C53 C 0.1595(7) 0.0138(6) 0.3571(6)
H121 H 0.1804 -0.0293 0.3492
H122 H 0.1254 0.0088 0.3371
H123 H 0.1580 0.0119 0.3923
C54 C 0.2258(6) 0.0781(10) 0.3311(7)
H124 H 0.2345 0.0224 0.3302
H125 H 0.2522 0.1057 0.3542
H126 H 0.2228 0.1005 0.2979
La2 La 0.16668(4) 0.36005(6) 0.36356(4)
Cu1 Cu 0.19521(9) -0.79798(13) 0.62084(9)
Cu2 Cu 0.37714(7) -0.78738(11) 0.61144(8)
Cu3 Cu 0.45309(4) -1.02291(5) 0.70650(3)
Cu4 Cu 0.39503(4) -0.65354(8) 0.45865(4)
Cu5 Cu 0.60214(5) -1.10033(7) 0.63723(4)
Cu6 Cu 0.38132(5) -0.41493(8) 0.35398(4)
Cu7 Cu -0.31018(4) -0.84744(8) 0.62558(4)
Cu8 Cu -0.12857(12) -0.80362(16) 0.62188(12)
Cu9 Cu -0.01324(5) -0.97856(7) 0.73042(5)
Cu10 Cu 0.11188(7) -0.30422(12) 0.54185(7)
Cu11 Cu 0.10326(9) -0.54953(13) 0.63472(10)
Cu12 Cu 0.12033(7) -1.05944(12) 0.64026(6)
C55 C 0.3086(2) -0.7769(4) 0.6192(3)
N19 N 0.2659(3) -0.7828(4) 0.6208(3)
C56 C 0.1338(2) -0.6478(4) 0.6276(2)
N20 N 0.1550(2) -0.7064(4) 0.6243(2)
C57 C 0.4129(2) -0.8685(4) 0.6507(3)
N21 N 0.4285(2) -0.9246(4) 0.6723(2)
C58 C 0.3983(3) -0.6940(4) 0.5227(3)
N22 N 0.3946(2) -0.7256(4) 0.5594(3)
C59 C 0.5111(3) -1.0645(4) 0.6870(3)
N23 N 0.5480(3) -1.0799(3) 0.6727(2)
N24 N 0.3897(3) -0.7996(5) 0.3919(3)
C60 C 0.3894(3) -0.7417(4) 0.4130(3)
C61 C 0.3915(3) -0.5585(4) 0.4250(3)
N25 N 0.3871(2) -0.5029(4) 0.3995(3)
N26 N 0.4015(3) -1.0627(4) 0.7920(3)
C62 C 0.4194(3) -1.0507(4) 0.7570(3)
C63 C 0.3456(2) -0.2485(4) 0.3726(3)
N27 N 0.3609(2) -0.3110(5) 0.3680(2)
N28 N 0.6601(3) -0.9474(5) 0.6293(2)
C64 C 0.6394(3) -1.0080(4) 0.6328(3)
N29 N -0.1994(3) -0.8120(4) 0.6236(2)
C65 C -0.2416(2) -0.8260(4) 0.6235(2)
C66 C -0.0780(2) -0.8474(4) 0.6709(3)
N30 N -0.0486(2) -0.8855(4) 0.6978(2)
C67 C 0.1104(2) -0.2682(4) 0.4773(2)
N31 N 0.1144(2) -0.2428(4) 0.4396(2)
C68 C 0.1058(3) -0.4033(4) 0.5700(2)
N32 N 0.1049(2) -0.4613(4) 0.5914(2)
C69 C 0.1251(2) -1.1605(4) 0.6125(2)
N33 N 0.1246(2) -1.2181(3) 0.59023(19)
C70 C 0.0390(2) -1.0191(4) 0.7015(2)
N34 N 0.0710(2) -1.0391(3) 0.6823(2)
C71 C 0.1527(2) -0.9655(3) 0.6286(2)
N35 N 0.1692(2) -0.9046(4) 0.6229(2)
N36 N 0.0693(2) -0.5267(3) 0.6887(2)
C72 C 0.0460(2) -0.5096(4) 0.7185(2)
Cu5B Cu 0.39786(5) -0.89967(7) 0.36277(4)
Cu6C Cu 0.38132(5) -1.08507(8) 0.85398(4)
Cu7B Cu 0.31018(4) -0.15256(8) 0.37442(4)
Cu7_2 Cu 0.68982(4) -0.84744(8) 0.62558(4)
Cu8B Cu 0.12857(12) -0.19638(16) 0.37812(12)
Cu9A Cu 0.01324(5) -0.47856(7) 0.76958(5)
Cu10_2 Cu 0.11188(7) -1.30422(12) 0.54185(7)
N24B N 0.6103(3) -1.2004(5) 0.6081(3)
N26C N 0.4015(3) -0.4373(4) 0.2920(3)
C63B C -0.3456(2) -0.7515(4) 0.6274(3)
N28_2 N -0.3399(3) -0.9474(5) 0.6293(2)
N31B N -0.1144(2) -0.7572(4) 0.5604(2)
N33_2 N 0.1246(2) -0.2181(3) 0.59023(19)
C72A C -0.0460(2) -1.0096(4) 0.7815(2)
N37 N 0.4573(2) -0.9688(3) 0.5423(2)
O19 O 0.4026(2) -1.0695(4) 0.5429(2)
C73 C 0.4407(3) -1.0321(5) 0.5608(3)
H127 H 0.4602 -1.0511 0.5911
C74 C 0.4318(3) -0.9314(6) 0.4982(3)
H128 H 0.4510 -0.8855 0.4915
H129 H 0.3982 -0.9149 0.5024
H130 H 0.4284 -0.9682 0.4704
C75 C 0.5022(3) -0.9285(5) 0.5693(3)
H131 H 0.5096 -0.8833 0.5500
H132 H 0.5308 -0.9646 0.5746
H133 H 0.4961 -0.9105 0.6014
N38 N 0.0571(2) -1.0164(4) 0.4649(3)
O20 O 0.0952(3) -0.9020(4) 0.4501(3)
C76 C 0.0899(4) -0.9534(9) 0.4804(4)
H134 H 0.1078 -0.9503 0.5137
C77 C 0.0573(4) -1.0717(7) 0.5030(4)
H135 H 0.0808 -1.0547 0.5329
H136 H 0.0679 -1.1228 0.4925
H137 H 0.0234 -1.0760 0.5100
C78 C 0.0285(5) -1.0245(11) 0.4210(4)
H138 H 0.0094 -1.0734 0.4198
H139 H 0.0495 -1.0257 0.3959
H140 H 0.0050 -0.9802 0.4144
loop_
_geom_bond_atom_site_label_1
_geom_bond_atom_site_label_2
_geom_bond_site_symmetry_1
_geom_bond_site_symmetry_2
O1 C1 1_555 1_555
C1 H1 1_555 1_555
N1 C1 1_555 1_555
C2 N1 1_555 1_555
H2 C2 1_555 1_555
H3 C2 1_555 1_555
H4 C2 1_555 1_555
C3 N1 1_555 1_555
H5 C3 1_555 1_555
H6 C3 1_555 1_555
H7 C3 1_555 1_555
O2 C4 1_555 1_555
C4 H8 1_555 1_555
N2 C4 1_555 1_555
C5 N2 1_555 1_555
H9 C5 1_555 1_555
H10 C5 1_555 1_555
H11 C5 1_555 1_555
C6 N2 1_555 1_555
H12 C6 1_555 1_555
H13 C6 1_555 1_555
H14 C6 1_555 1_555
O3 C7 1_555 1_555
C7 H15 1_555 1_555
N3 C7 1_555 1_555
C8 N3 1_555 1_555
H16 C8 1_555 1_555
H17 C8 1_555 1_555
H18 C8 1_555 1_555
C9 N3 1_555 1_555
H19 C9 1_555 1_555
H20 C9 1_555 1_555
H21 C9 1_555 1_555
O4 C10 1_555 1_555
C10 H22 1_555 1_555
N4 C10 1_555 1_555
C11 N4 1_555 1_555
H23 C11 1_555 1_555
H24 C11 1_555 1_555
H25 C11 1_555 1_555
C12 N4 1_555 1_555
H26 C12 1_555 1_555
H27 C12 1_555 1_555
H28 C12 1_555 1_555
O5 C13 1_555 1_555
C13 H29 1_555 1_555
N5 C13 1_555 1_555
C14 N5 1_555 1_555
H30 C14 1_555 1_555
H31 C14 1_555 1_555
H32 C14 1_555 1_555
C15 N5 1_555 1_555
H33 C15 1_555 1_555
H34 C15 1_555 1_555
H35 C15 1_555 1_555
O6 C16 1_555 1_555
C16 H36 1_555 1_555
N6 C16 1_555 1_555
C17 N6 1_555 1_555
H37 C17 1_555 1_555
H38 C17 1_555 1_555
H39 C17 1_555 1_555
C18 N6 1_555 1_555
H40 C18 1_555 1_555
H41 C18 1_555 1_555
H42 C18 1_555 1_555
O7 C19 1_555 1_555
C19 H43 1_555 1_555
N7 C19 1_555 1_555
C20 N7 1_555 1_555
H44 C20 1_555 1_555
H45 C20 1_555 1_555
H46 C20 1_555 1_555
C21 N7 1_555 1_555
H47 C21 1_555 1_555
H48 C21 1_555 1_555
H49 C21 1_555 1_555
O8 C22 1_555 1_555
C22 H50 1_555 1_555
N8 C22 1_555 1_555
C23 N8 1_555 1_555
H51 C23 1_555 1_555
H52 C23 1_555 1_555
H53 C23 1_555 1_555
C24 N8 1_555 1_555
H54 C24 1_555 1_555
H55 C24 1_555 1_555
H56 C24 1_555 1_555
O9 C25 1_555 1_555
C25 H57 1_555 1_555
N9 C25 1_555 1_555
C26 N9 1_555 1_555
H58 C26 1_555 1_555
H59 C26 1_555 1_555
H60 C26 1_555 1_555
C27 N9 1_555 1_555
H61 C27 1_555 1_555
H62 C27 1_555 1_555
H63 C27 1_555 1_555
O10 C28 1_555 1_555
C28 H64 1_555 1_555
N10 C28 1_555 1_555
C29 N10 1_555 1_555
H65 C29 1_555 1_555
H66 C29 1_555 1_555
H67 C29 1_555 1_555
C30 N10 1_555 1_555
H68 C30 1_555 1_555
H69 C30 1_555 1_555
H70 C30 1_555 1_555
O11 C31 1_555 1_555
C31 H71 1_555 1_555
N11 C31 1_555 1_555
C32 N11 1_555 1_555
H72 C32 1_555 1_555
H73 C32 1_555 1_555
H74 C32 1_555 1_555
C33 N11 1_555 1_555
H75 C33 1_555 1_555
H76 C33 1_555 1_555
H77 C33 1_555 1_555
O12 C34 1_555 1_555
C34 H78 1_555 1_555
N12 C34 1_555 1_555
C35 N12 1_555 1_555
H79 C35 1_555 1_555
H80 C35 1_555 1_555
H81 C35 1_555 1_555
C36 N12 1_555 1_555
H82 C36 1_555 1_555
H83 C36 1_555 1_555
H84 C36 1_555 1_555
O13 C37 1_555 1_555
C37 H85 1_555 1_555
N13 C37 1_555 1_555
C38 N13 1_555 1_555
H86 C38 1_555 1_555
H87 C38 1_555 1_555
H88 C38 1_555 1_555
C39 N13 1_555 1_555
H89 C39 1_555 1_555
H90 C39 1_555 1_555
H91 C39 1_555 1_555
O14 C40 1_555 1_555
C40 H92 1_555 1_555
N14 C40 1_555 1_555
C41 N14 1_555 1_555
H93 C41 1_555 1_555
H94 C41 1_555 1_555
H95 C41 1_555 1_555
C42 N14 1_555 1_555
H96 C42 1_555 1_555
H97 C42 1_555 1_555
H98 C42 1_555 1_555
O15 C43 1_555 1_555
C43 H99 1_555 1_555
N15 C43 1_555 1_555
C44 N15 1_555 1_555
H100 C44 1_555 1_555
H101 C44 1_555 1_555
H102 C44 1_555 1_555
C45 N15 1_555 1_555
H103 C45 1_555 1_555
H104 C45 1_555 1_555
H105 C45 1_555 1_555
O16 C46 1_555 1_555
C46 H106 1_555 1_555
N16 C46 1_555 1_555
C47 N16 1_555 1_555
H107 C47 1_555 1_555
H108 C47 1_555 1_555
H109 C47 1_555 1_555
C48 N16 1_555 1_555
H110 C48 1_555 1_555
H111 C48 1_555 1_555
H112 C48 1_555 1_555
O17 C49 1_555 1_555
C49 H113 1_555 1_555
N17 C49 1_555 1_555
C50 N17 1_555 1_555
H114 C50 1_555 1_555
H115 C50 1_555 1_555
H116 C50 1_555 1_555
C51 N17 1_555 1_555
H117 C51 1_555 1_555
H118 C51 1_555 1_555
H119 C51 1_555 1_555
O18 C52 1_555 1_555
C52 H120 1_555 1_555
N18 C52 1_555 1_555
C53 N18 1_555 1_555
H121 C53 1_555 1_555
H122 C53 1_555 1_555
H123 C53 1_555 1_555
C54 N18 1_555 1_555
H124 C54 1_555 1_555
H125 C54 1_555 1_555
H126 C54 1_555 1_555
La1 O1 1_555 1_555
La2 O10 1_555 1_555
Cu1 N19 1_555 1_555
Cu2 C55 1_555 1_555
Cu3 N21 1_555 1_555
Cu4 C58 1_555 1_555
Cu5 N23 1_555 1_555
Cu6 N25 1_555 1_555
Cu7 C65 1_555 1_555
Cu8 N29 1_555 1_555
Cu9 N30 1_555 1_555
Cu10 C67 1_555 1_555
Cu11 C56 1_555 1_555
Cu12 C69 1_555 1_555
C55 N19 1_555 1_555
C56 N20 1_555 1_555
N20 Cu1 1_555 1_555
C57 Cu2 1_555 1_555
N21 C57 1_555 1_555
C58 N22 1_555 1_555
N22 Cu2 1_555 1_555
C59 Cu3 1_555 1_555
N23 C59 1_555 1_555
N24 C60 1_555 1_555
C60 Cu4 1_555 1_555
C61 Cu4 1_555 1_555
N25 C61 1_555 1_555
N26 C62 1_555 1_555
C62 Cu3 1_555 1_555
C63 N27 1_555 1_555
N27 Cu6 1_555 1_555
N28 C64 1_555 1_555
C64 Cu5 1_555 1_555
N29 C65 1_555 1_555
C66 Cu8 1_555 1_555
N30 C66 1_555 1_555
C67 N31 1_555 1_555
N31 Cu8B 1_555 1_555
C68 Cu10 1_555 1_555
N32 Cu11 1_555 1_555
C69 N33 1_555 1_555
N33 Cu10_2 1_555 1_555
C70 Cu9 1_555 1_555
N34 Cu12 1_555 1_555
C71 Cu12 1_555 1_555
N35 Cu1 1_555 1_555
N36 Cu11 1_555 1_555
C72 N36 1_555 1_555
N37 C73 1_555 1_555
O19 C73 1_555 1_555
C73 H127 1_555 1_555
C74 N37 1_555 1_555
H128 C74 1_555 1_555
H129 C74 1_555 1_555
H130 C74 1_555 1_555
C75 N37 1_555 1_555
H131 C75 1_555 1_555
H132 C75 1_555 1_555
H133 C75 1_555 1_555
N38 C76 1_555 1_555
O20 C76 1_555 1_555
C76 H134 1_555 1_555
C77 N38 1_555 1_555
H135 C77 1_555 1_555
H136 C77 1_555 1_555
H137 C77 1_555 1_555
C78 N38 1_555 1_555
H138 C78 1_555 1_555
H139 C78 1_555 1_555
H140 C78 1_555 1_555
Cu5B N24 1_555 1_555
Cu6C N26 1_555 1_555
Cu7B C63 1_555 1_555
Cu7_2 N28 1_555 1_555
Cu9A C72 1_555 1_555
N24B Cu5 1_555 1_555
N26C Cu6 1_555 1_555
C63B Cu7 1_555 1_555
N28_2 Cu7 1_555 1_555
N31B Cu8 1_555 1_555
N33_2 Cu10 1_555 1_555
C72A Cu9 1_555 1_555
O2 La1 1_555 1_555
O3 La1 1_555 1_555
O4 La1 1_555 1_555
O5 La1 1_555 1_555
O6 La1 1_555 1_555
O7 La1 1_555 1_555
O8 La1 1_555 1_555
O9 La1 1_555 1_555
O11 La2 1_555 1_555
O12 La2 1_555 1_555
O13 La2 1_555 1_555
O14 La2 1_555 1_555
O15 La2 1_555 1_555
O16 La2 1_555 1_555
O17 La2 1_555 1_555
O18 La2 1_555 1_555
C68 N32 1_555 1_555
C70 N34 1_555 1_555
C71 N35 1_555 1_555

#END
