
#######################################################################
#
#                 Cambridge Crystallographic Data Centre
#                                CCDC 
#
#######################################################################
#
# If this CIF has been generated from an entry in the Cambridge 
# Structural Database, then it will include bibliographic, chemical, 
# crystal, experimental, refinement or atomic coordinate data resulting 
# from the CCDC's data processing and validation procedures.
#
#######################################################################

data_OGEBAF01
_chemical_formula_moiety         '(C34 H20 Cu3 O15)n'
_symmetry_cell_setting           hexagonal
_symmetry_space_group_name_H-M   'P 63/m m c'
_symmetry_Int_Tables_number      194
_space_group_name_Hall           '-P 6c 2c'
loop_
_symmetry_equiv_pos_site_id
_symmetry_equiv_pos_as_xyz
1 x,y,z
2 -y,x-y,z
3 -x+y,-x,z
4 -x,-y,1/2+z
5 y,-x+y,1/2+z
6 x-y,x,1/2+z
7 y,x,-z
8 x-y,-y,-z
9 -x,-x+y,-z
10 -y,-x,1/2-z
11 -x+y,y,1/2-z
12 x,x-y,1/2-z
13 -x,-y,-z
14 y,-x+y,-z
15 x-y,x,-z
16 x,y,1/2-z
17 -y,x-y,1/2-z
18 -x+y,-x,1/2-z
19 -y,-x,z
20 -x+y,y,z
21 x,x-y,z
22 y,x,1/2+z
23 x-y,-y,1/2+z
24 -x,-x+y,1/2+z
_cell_length_a                   18.8028(8)
_cell_length_b                   18.8028(8)
_cell_length_c                   51.883(3)
_cell_angle_alpha                90
_cell_angle_beta                 90
_cell_angle_gamma                120
_cell_volume                     15885.5
loop_
_atom_site_label
_atom_site_type_symbol
_atom_site_fract_x
_atom_site_fract_y
_atom_site_fract_z
Cu1 Cu 0.05991(7) 0.11982(15) 0.2500
Cu2 Cu 0.52293(3) 0.04586(5) -0.021203(18)
O1 O 0.1377(3) 0.1270(3) 0.22288(9)
O2 O 0.1255(5) 0.2510(11) 0.2500
O3 O 0.4832(2) 0.1114(2) -0.00332(8)
O4 O 0.5572(2) 0.1145(4) -0.05757(12)
O5 O 0.4429(3) 0.0325(2) 0.03258(7)
C1 C 0.1563(7) 0.0782(3) 0.21379(19)
C2 C 0.1960(8) 0.0980(4) 0.1884(2)
C3 C 0.2149(7) 0.1694(6) 0.17554(17)
H1 H 0.2026 0.2061 0.1836
C4 C 0.2518(8) 0.1902(6) 0.15099(18)
H2 H 0.2615 0.2381 0.1427
C5 C 0.2733(9) 0.1367(5) 0.1394(2)
C6 C 0.3091(10) 0.1545(5) 0.1139(2)
C7 C 0.3401(9) 0.1701(4) 0.0939(2)
C8 C 0.3777(6) 0.1888(3) 0.06831(17)
C9 C 0.3965(4) 0.1353(4) 0.05595(13)
H3 H 0.3853 0.0867 0.0641
C10 C 0.4318(3) 0.1520(3) 0.03168(11)
C11 C 0.4481(5) 0.2241(2) 0.01956(16)
H4 H 0.4704 0.2352 0.0031
C12 C 0.4544(3) 0.0931(3) 0.01864(11)
O1T O 0.1377(3) 0.0107(4) 0.22288(9)
O3T O 0.4832(2) 0.3718(3) -0.00332(8)
O5T O 0.4429(3) 0.4104(4) 0.03258(7)
C3T C 0.2149(7) 0.0455(9) 0.17554(17)
H1T H 0.2026 -0.0035 0.1836
C4T C 0.2518(8) 0.0616(10) 0.15099(18)
H2T H 0.2615 0.0234 0.1427
C9T C 0.3965(4) 0.2612(6) 0.05595(13)
H3T H 0.3853 0.2986 0.0641
C10T C 0.4318(3) 0.2798(4) 0.03168(11)
C12T C 0.4544(3) 0.3613(4) 0.01864(11)
O1A O -0.1270(3) 0.0107(4) 0.22288(9)
O3A O -0.1114(2) 0.3718(3) -0.00332(8)
O5A O -0.0325(2) 0.4104(4) 0.03258(7)
C1A C -0.0782(3) 0.0781(8) 0.21379(19)
C2A C -0.0980(4) 0.0980(9) 0.1884(2)
C3A C -0.1694(6) 0.0455(9) 0.17554(17)
H1A H -0.2061 -0.0035 0.1836
C4A C -0.1902(6) 0.0616(10) 0.15099(18)
H2A H -0.2381 0.0234 0.1427
C5A C -0.1367(5) 0.1366(10) 0.1394(2)
C6A C -0.1545(5) 0.1546(11) 0.1139(2)
C7A C -0.1701(4) 0.1700(10) 0.0939(2)
C8A C -0.1888(3) 0.1889(7) 0.06831(17)
C9A C -0.1353(4) 0.2612(6) 0.05595(13)
H3A H -0.0867 0.2986 0.0641
C10A C -0.1520(3) 0.2798(4) 0.03168(11)
C11A C -0.2241(2) 0.2240(5) 0.01956(16)
H4A H -0.2352 0.2352 0.0031
C12A C -0.0931(3) 0.3613(4) 0.01864(11)
O1S O -0.0107(4) 0.1270(3) 0.22288(9)
O3S O -0.3718(3) 0.1114(2) -0.00332(8)
O5S O -0.4104(4) 0.0325(2) 0.03258(7)
C3S C -0.0455(9) 0.1694(6) 0.17554(17)
H1S H 0.0035 0.2061 0.1836
C4S C -0.0616(10) 0.1902(6) 0.15099(18)
H2S H -0.0234 0.2381 0.1427
C9S C -0.2612(6) 0.1353(4) 0.05595(13)
H3S H -0.2986 0.0867 0.0641
C10S C -0.2798(4) 0.1520(3) 0.03168(11)
C12S C -0.3613(4) 0.0931(3) 0.01864(11)
Cu2F Cu 0.04586(5) 0.52293(3) 0.021203(18)
O4F O 0.1145(4) 0.5572(2) 0.05757(12)
Cu1A Cu -0.11982(15) -0.05991(17) 0.2500
Cu1B Cu 0.05991(17) -0.05991(7) 0.2500
Cu2_2 Cu -0.47707(3) 0.04586(5) -0.021203(18)
Cu2A Cu -0.04586(5) 0.47707(6) -0.021203(18)
Cu2B Cu 0.52293(6) 0.47707(3) -0.021203(18)
Cu2G Cu -0.52293(6) -0.04586(5) 0.021203(18)
Cu2G_2 Cu 0.47707(6) -0.04586(5) 0.021203(18)
Cu2H Cu 0.47707(3) 0.52293(6) 0.021203(18)
O1J O -0.0107(4) 0.1270(3) 0.27712(9)
O1O O 0.1377(3) 0.1270(3) 0.27712(9)
O3F O 0.1114(2) 0.4832(2) 0.00332(8)
O3M O 0.1114(2) 0.6282(3) 0.00332(8)
O3S_2 O 0.6282(3) 0.1114(2) -0.00332(8)
O5G O 0.4104(4) -0.0325(2) -0.03258(7)
O5L O 0.5571(3) -0.0325(2) -0.03258(7)
O5R O -0.0325(2) 0.5571(3) 0.03258(7)
loop_
_geom_bond_atom_site_label_1
_geom_bond_atom_site_label_2
_geom_bond_site_symmetry_1
_geom_bond_site_symmetry_2
Cu1 O1 1_555 1_555
Cu2 O3 1_555 1_555
O1 C1 1_555 1_555
O2 Cu1 1_555 1_555
O3 C12 1_555 1_555
O4 Cu2 1_555 1_555
O5 C12 1_555 1_555
C1 C2 1_555 1_555
C2 C3 1_555 1_555
C3 H1 1_555 1_555
C4 C3 1_555 1_555
H2 C4 1_555 1_555
C5 C4 1_555 1_555
C6 C5 1_555 1_555
C7 C6 1_555 1_555
C8 C7 1_555 1_555
C9 C8 1_555 1_555
H3 C9 1_555 1_555
C10 C9 1_555 1_555
C11 C10 1_555 1_555
H4 C11 1_555 1_555
C12 C10 1_555 1_555
O1T C1 1_555 1_555
O3T C12T 1_555 1_555
O5T C12T 1_555 1_555
C3T C2 1_555 1_555
H1T C3T 1_555 1_555
C4T C5 1_555 1_555
H2T C4T 1_555 1_555
C9T C8 1_555 1_555
H3T C9T 1_555 1_555
C10T C11 1_555 1_555
C12T C10T 1_555 1_555
O1A C1A 1_555 1_555
O3A C12A 1_555 1_555
O5A C12A 1_555 1_555
C1A C2A 1_555 1_555
C2A C3A 1_555 1_555
C3A H1A 1_555 1_555
C4A C3A 1_555 1_555
H2A C4A 1_555 1_555
C5A C4A 1_555 1_555
C6A C5A 1_555 1_555
C7A C6A 1_555 1_555
C8A C7A 1_555 1_555
C9A C8A 1_555 1_555
H3A C9A 1_555 1_555
C10A C9A 1_555 1_555
C11A C10A 1_555 1_555
H4A C11A 1_555 1_555
C12A C10A 1_555 1_555
O1S Cu1 1_555 1_555
O3S C12S 1_555 1_555
O5S C12S 1_555 1_555
C3S C2A 1_555 1_555
H1S C3S 1_555 1_555
C4S C5A 1_555 1_555
H2S C4S 1_555 1_555
C9S C8A 1_555 1_555
H3S C9S 1_555 1_555
C10S C11A 1_555 1_555
C12S C10S 1_555 1_555
Cu2F O5A 1_555 1_555
O4F Cu2F 1_555 1_555
Cu1A O1A 1_555 1_555
Cu1B O1T 1_555 1_555
Cu2_2 O3S 1_555 1_555
Cu2A O3A 1_555 1_555
Cu2B O3T 1_555 1_555
Cu2G O5S 1_555 1_555
Cu2G_2 O5 1_555 1_555
Cu2H O5T 1_555 1_555
O1J Cu1 1_555 1_555
O1O Cu1 1_555 1_555
O3F Cu2F 1_555 1_555
O3M Cu2F 1_555 1_555
O3S_2 Cu2 1_555 1_555
O5G Cu2 1_555 1_555
O5L Cu2 1_555 1_555
O5R Cu2F 1_555 1_555
C3T C4T 1_555 1_555
C9T C10T 1_555 1_555
C1A O1S 1_555 1_555
C3S C4S 1_555 1_555
C9S C10S 1_555 1_555

#END
