
#######################################################################
#
#                 Cambridge Crystallographic Data Centre
#                                CCDC 
#
#######################################################################
#
# If this CIF has been generated from an entry in the Cambridge 
# Structural Database, then it will include bibliographic, chemical, 
# crystal, experimental, refinement or atomic coordinate data resulting 
# from the CCDC's data processing and validation procedures.
#
#######################################################################

data_XEJXER
_chemical_formula_moiety         '(C20 H22 N2 Ni2 O12)n'
_symmetry_cell_setting           orthorhombic
_symmetry_space_group_name_H-M   'P 21 21 2'
_symmetry_Int_Tables_number      18
_space_group_name_Hall           'P 2 2ab'
loop_
_symmetry_equiv_pos_site_id
_symmetry_equiv_pos_as_xyz
1 x,y,z
2 -x,-y,z
3 1/2-x,1/2+y,-z
4 1/2+x,1/2-y,-z
_cell_length_a                   23.6987(6)
_cell_length_b                   9.6879(2)
_cell_length_c                   10.4569(3)
_cell_angle_alpha                90
_cell_angle_beta                 90
_cell_angle_gamma                90
_cell_volume                     2400.81
loop_
_atom_site_label
_atom_site_type_symbol
_atom_site_fract_x
_atom_site_fract_y
_atom_site_fract_z
Ni1 Ni 0.787523(9) -0.61685(2) -0.50533(2)
Ni2 Ni 0.713600(10) -0.64239(2) -0.99506(2)
O1 O 0.76351(6) -0.66620(15) -0.69221(13)
O2 O 0.68323(6) -0.66056(16) -0.80759(13)
C1 C 0.71007(8) -0.66583(19) -0.70470(18)
C2 C 0.67496(8) -0.6714(2) -0.58164(18)
H1 H 0.6450 -0.7434 -0.5916
O3 O 0.70897(6) -0.70526(14) -0.47329(13)
H2 H 0.7211(10) -0.7881(18) -0.474(2)
C3 C 0.64690(8) -0.5335(2) -0.5543(2)
H3 H 0.6217 -0.5447 -0.4795
H4 H 0.6231 -0.5085 -0.6285
C4 C 0.68717(8) -0.4147(2) -0.52753(18)
O4 O 0.73986(6) -0.43820(14) -0.52419(15)
O5 O 0.66581(6) -0.29797(13) -0.51167(16)
O6 O 0.74509(6) -0.45160(16) 0.05052(15)
O7 O 0.82451(6) -0.33162(15) 0.01843(14)
C5 C 0.79685(9) -0.4425(2) 0.03175(18)
C6 C 0.83007(8) -0.5791(2) 0.02151(18)
H5 H 0.8653 -0.5726 0.0739
O8 O 0.79627(6) -0.69219(15) 0.06680(13)
H6 H 0.7922(11) -0.692(3) 0.1531(16)
C7 C 0.84554(9) -0.6089(2) -0.11710(19)
H7 H 0.8637 -0.7009 -0.1211
H8 H 0.8738 -0.5401 -0.1450
C8 C 0.79646(9) -0.6068(2) -0.21190(19)
O9 O 0.74711(6) -0.63256(17) -0.17623(15)
O10 O 0.81110(6) -0.58056(18) -0.32473(14)
N1 N 0.85646(7) -0.50242(17) -0.56539(15)
C9 C 0.90153(8) -0.4780(2) -0.4911(2)
H9 H 0.9026 -0.5185 -0.4084
C10 C 0.94659(8) -0.3968(2) -0.5290(2)
H10 H 0.9771 -0.3803 -0.4720
C11 C 0.94701(9) -0.3394(2) -0.6508(2)
C12 C 0.89921(10) -0.3602(2) -0.7265(2)
H11 H 0.8967 -0.3195 -0.8090
C13 C 0.85551(9) -0.4404(2) -0.6803(2)
H12 H 0.8231 -0.4524 -0.7325
C14 C 0.99594(10) -0.2583(3) -0.6933(2)
H13 H 1.0229 -0.2329 -0.6303
C15 C 1.00567(10) -0.2175(3) -0.8131(2)
H14 H 0.9792 -0.2447 -0.8765
C16 C 1.10451(9) -0.0156(2) -1.0215(2)
H15 H 1.1082 0.0055 -1.1099
C17 C 1.06011(9) -0.1003(2) -0.9835(2)
H16 H 1.0341 -0.1347 -1.0449
C18 C 1.05404(10) -0.1341(2) -0.8551(2)
C19 C 1.09506(12) -0.0835(3) -0.7706(2)
H17 H 1.0938 -0.1075 -0.6826
C20 C 1.13747(10) 0.0018(3) -0.8165(2)
H18 H 1.1645 0.0368 -0.7577
N2 N 1.14216(7) 0.03735(18) -0.94037(17)
Ni1B Ni 0.712477(9) -0.11685(2) -0.49467(2)
Ni2_2 Ni 0.713600(10) -0.64239(2) 0.00494(2)
Ni2B Ni 0.786400(10) -0.14239(2) -0.00494(2)
Ni2C Ni 1.213600(10) 0.14239(2) -1.00494(2)
O5B O 0.83419(6) -0.79797(13) -0.48833(16)
O6_2 O 0.74509(6) -0.45160(16) -0.94948(15)
O7B O 0.67549(6) -0.83162(15) -1.01843(14)
O8_2 O 0.79627(6) -0.69219(15) -0.93320(13)
H6_2 H 0.7922(11) -0.692(3) -0.8469(16)
O9_2 O 0.74711(6) -0.63256(17) -1.17623(15)
N2C N 0.64216(7) -0.53735(18) -1.05963(17)
O11 O 1.43067(10) -0.1960(3) -0.8824(3)
O12 O 0.55853(13) -0.2768(3) -0.6558(3)
loop_
_geom_bond_atom_site_label_1
_geom_bond_atom_site_label_2
_geom_bond_site_symmetry_1
_geom_bond_site_symmetry_2
Ni1 O1 1_555 1_555
Ni2 O2 1_555 1_555
O1 C1 1_555 1_555
O2 C1 1_555 1_555
C1 C2 1_555 1_555
C2 H1 1_555 1_555
O3 Ni1 1_555 1_555
H2 O3 1_555 1_555
C3 C2 1_555 1_555
H3 C3 1_555 1_555
H4 C3 1_555 1_555
C4 C3 1_555 1_555
O4 Ni1 1_555 1_555
O5 C4 1_555 1_555
O6 C5 1_555 1_555
O7 C5 1_555 1_555
C5 C6 1_555 1_555
C6 H5 1_555 1_555
O8 C6 1_555 1_555
H6 O8 1_555 1_555
C7 C6 1_555 1_555
H7 C7 1_555 1_555
H8 C7 1_555 1_555
C8 C7 1_555 1_555
O9 C8 1_555 1_555
O10 Ni1 1_555 1_555
N1 Ni1 1_555 1_555
C9 N1 1_555 1_555
H9 C9 1_555 1_555
C10 C9 1_555 1_555
H10 C10 1_555 1_555
C11 C10 1_555 1_555
C12 C11 1_555 1_555
H11 C12 1_555 1_555
C13 N1 1_555 1_555
H12 C13 1_555 1_555
C14 C11 1_555 1_555
H13 C14 1_555 1_555
C15 C14 1_555 1_555
H14 C15 1_555 1_555
C16 H15 1_555 1_555
C17 C16 1_555 1_555
H16 C17 1_555 1_555
C18 C15 1_555 1_555
C19 C18 1_555 1_555
H17 C19 1_555 1_555
C20 C19 1_555 1_555
H18 C20 1_555 1_555
N2 C16 1_555 1_555
Ni1B O5 1_555 1_555
Ni2_2 O6 1_555 1_555
Ni2B O7 1_555 1_555
Ni2C N2 1_555 1_555
O5B Ni1 1_555 1_555
O6_2 Ni2 1_555 1_555
O7B Ni2 1_555 1_555
O8_2 Ni2 1_555 1_555
H6_2 O8_2 1_555 1_555
O9_2 Ni2 1_555 1_555
N2C Ni2 1_555 1_555
C2 O3 1_555 1_555
C4 O4 1_555 1_555
O8 Ni2_2 1_555 1_555
C8 O10 1_555 1_555
O9 Ni2_2 1_555 1_555
C12 C13 1_555 1_555
C17 C18 1_555 1_555
C20 N2 1_555 1_555

#END
