
#######################################################################
#
#                 Cambridge Crystallographic Data Centre
#                                CCDC 
#
#######################################################################
#
# If this CIF has been generated from an entry in the Cambridge 
# Structural Database, then it will include bibliographic, chemical, 
# crystal, experimental, refinement or atomic coordinate data resulting 
# from the CCDC's data processing and validation procedures.
#
#######################################################################

data_PUVGIY
_chemical_formula_moiety         'C24 H16 N3 O14 Zn7'
_symmetry_cell_setting           tetragonal
_symmetry_space_group_name_H-M   'I 4/m c m'
_symmetry_Int_Tables_number      140
_space_group_name_Hall           '-I 4 2c'
loop_
_symmetry_equiv_pos_site_id
_symmetry_equiv_pos_as_xyz
1 x,y,z
2 -y,x,z
3 -x,-y,z
4 y,-x,z
5 x,-y,1/2-z
6 -x,y,1/2-z
7 y,x,1/2-z
8 -y,-x,1/2-z
9 1/2+x,1/2+y,1/2+z
10 1/2-y,1/2+x,1/2+z
11 1/2-x,1/2-y,1/2+z
12 1/2+y,1/2-x,1/2+z
13 1/2+x,1/2-y,-z
14 1/2-x,1/2+y,-z
15 1/2+y,1/2+x,-z
16 1/2-y,1/2-x,-z
17 -x,-y,-z
18 y,-x,-z
19 x,y,-z
20 -y,x,-z
21 -x,y,1/2+z
22 x,-y,1/2+z
23 -y,-x,1/2+z
24 y,x,1/2+z
25 1/2-x,1/2-y,1/2-z
26 1/2+y,1/2-x,1/2-z
27 1/2+x,1/2+y,1/2-z
28 1/2-y,1/2+x,1/2-z
29 1/2-x,1/2+y,z
30 1/2+x,1/2-y,z
31 1/2-y,1/2-x,z
32 1/2+y,1/2+x,z
_cell_length_a                   15.0210(4)
_cell_length_b                   15.0210(4)
_cell_length_c                   19.2220(8)
_cell_angle_alpha                90
_cell_angle_beta                 90
_cell_angle_gamma                90
_cell_volume                     4337.07
loop_
_atom_site_label
_atom_site_type_symbol
_atom_site_fract_x
_atom_site_fract_y
_atom_site_fract_z
Zn1 Zn 0.0000 0.0000 0.07679(4)
O1 O 0.12057(19) 0.0544(2) 0.05707(15)
N1 N 0.245(2) 0.133(2) -0.1245(11)
N2 N 0.0000 0.0000 0.1829(3)
C1 C 0.1509(3) 0.0766(3) 0.0000
C2 C 0.2301(3) 0.1387(3) 0.0000
C3 C 0.2650(2) 0.1699(2) -0.06166(17)
C4 C 0.0902(7) 0.0194(10) 0.2104(6)
H1 H 0.1017 0.0843 0.2103
H2 H 0.1363 -0.0105 0.1820
O1R O 0.12057(19) 0.0544(2) -0.05707(15)
C3R C 0.2650(2) 0.1699(2) 0.06166(17)
O1DA O 0.4456(2) 0.37943(19) 0.05707(15)
C1O C 0.4234(3) 0.3491(3) 0.0000
C2O C 0.3613(3) 0.2699(3) 0.0000
C3DA C 0.3301(2) 0.2350(2) -0.06166(17)
O1O O 0.4456(2) 0.37943(19) -0.05707(15)
C3O C 0.3301(2) 0.2350(2) 0.06166(17)
C4A C -0.0194(10) 0.0902(7) 0.2104(6)
H1A H -0.0843 0.1017 0.2103
H2A H 0.0105 0.1363 0.1820
C4B C -0.0902(7) -0.0194(10) 0.2104(6)
H1B H -0.1017 -0.0843 0.2103
H2B H -0.1363 0.0105 0.1820
C4C C 0.0194(10) -0.0902(7) 0.2104(6)
H1C H 0.0843 -0.1017 0.2103
H2C H -0.0105 -0.1363 0.1820
N2D N 0.0000 0.0000 0.3171(3)
C4D C 0.0902(7) -0.0194(10) 0.2896(6)
H1D H 0.1017 -0.0843 0.2897
H2D H 0.1363 0.0105 0.3180
C4E C -0.0902(7) 0.0194(10) 0.2896(6)
H1E H -0.1017 0.0843 0.2897
H2E H -0.1363 -0.0105 0.3180
C4F C 0.0194(10) 0.0902(7) 0.2896(6)
H1F H 0.0843 0.1017 0.2897
H2F H -0.0105 0.1363 0.3180
C4G C -0.0194(10) -0.0902(7) 0.2896(6)
H1G H -0.0843 -0.1017 0.2897
H2G H 0.0105 -0.1363 0.3180
O1A O -0.0544(2) 0.12057(19) 0.05707(15)
C1A C -0.0766(3) 0.1509(3) 0.0000
C2A C -0.1387(3) 0.2301(3) 0.0000
C3A C -0.1699(2) 0.2650(2) -0.06166(17)
O1S O -0.0544(2) 0.12057(19) -0.05707(15)
C3S C -0.1699(2) 0.2650(2) 0.06166(17)
O1CA O -0.37943(19) 0.4456(2) 0.05707(15)
C1L C -0.3491(3) 0.4234(3) 0.0000
C2L C -0.2699(3) 0.3613(3) 0.0000
C3CA C -0.2350(2) 0.3301(2) -0.06166(17)
O1L O -0.37943(19) 0.4456(2) -0.05707(15)
C3L C -0.2350(2) 0.3301(2) 0.06166(17)
Zn1D Zn 0.0000 0.0000 0.42321(4)
Zn1L Zn -0.5000 0.5000 -0.07679(4)
Zn1L_2 Zn 0.5000 0.5000 -0.07679(4)
Zn1P Zn 0.0000 0.0000 -0.07679(4)
Zn1BA Zn -0.5000 0.5000 0.07679(4)
Zn1BA_2 Zn 0.5000 0.5000 0.07679(4)
O1B O -0.12057(19) -0.0544(2) 0.05707(15)
O1C O 0.0544(2) -0.12057(19) 0.05707(15)
O1D O 0.12057(19) -0.0544(2) 0.44293(15)
O1E O -0.12057(19) 0.0544(2) 0.44293(15)
O1F O 0.0544(2) 0.12057(19) 0.44293(15)
O1G O -0.0544(2) -0.12057(19) 0.44293(15)
loop_
_geom_bond_atom_site_label_1
_geom_bond_atom_site_label_2
_geom_bond_site_symmetry_1
_geom_bond_site_symmetry_2
Zn1 O1 1_555 1_555
O1 C1 1_555 1_555
N1 C3 1_555 1_555
N2 Zn1 1_555 1_555
C1 C2 1_555 1_555
C2 C3 1_555 1_555
C3 C3DA 1_555 1_555
C4 N2 1_555 1_555
H1 C4 1_555 1_555
H2 C4 1_555 1_555
O1R C1 1_555 1_555
C3R C2 1_555 1_555
O1DA C1O 1_555 1_555
C1O C2O 1_555 1_555
C2O C3DA 1_555 1_555
O1O C1O 1_555 1_555
C3O C3R 1_555 1_555
C4A N2 1_555 1_555
H1A C4A 1_555 1_555
H2A C4A 1_555 1_555
C4B N2 1_555 1_555
H1B C4B 1_555 1_555
H2B C4B 1_555 1_555
C4C N2 1_555 1_555
H1C C4C 1_555 1_555
H2C C4C 1_555 1_555
N2D C4D 1_555 1_555
C4D C4 1_555 1_555
H1D C4D 1_555 1_555
H2D C4D 1_555 1_555
C4E C4B 1_555 1_555
H1E C4E 1_555 1_555
H2E C4E 1_555 1_555
C4F C4A 1_555 1_555
H1F C4F 1_555 1_555
H2F C4F 1_555 1_555
C4G C4C 1_555 1_555
H1G C4G 1_555 1_555
H2G C4G 1_555 1_555
O1A Zn1 1_555 1_555
C1A O1A 1_555 1_555
C2A C1A 1_555 1_555
C3A C2A 1_555 1_555
O1S C1A 1_555 1_555
C3S C2A 1_555 1_555
O1CA C1L 1_555 1_555
C1L C2L 1_555 1_555
C2L C3CA 1_555 1_555
C3CA C3A 1_555 1_555
O1L C1L 1_555 1_555
C3L C3S 1_555 1_555
Zn1D N2D 1_555 1_555
Zn1L O1L 1_555 1_555
Zn1L_2 O1O 1_555 1_555
Zn1P O1R 1_555 1_555
Zn1BA O1CA 1_555 1_555
Zn1BA_2 O1DA 1_555 1_555
O1B Zn1 1_555 1_555
O1C Zn1 1_555 1_555
O1D Zn1D 1_555 1_555
O1E Zn1D 1_555 1_555
O1F Zn1D 1_555 1_555
O1G Zn1D 1_555 1_555
C2O C3O 1_555 1_555
N2D C4E 1_555 1_555
N2D C4F 1_555 1_555
N2D C4G 1_555 1_555
O1S Zn1P 1_555 1_555
C2L C3L 1_555 1_555

#END
