
#######################################################################
#
#                 Cambridge Crystallographic Data Centre
#                                CCDC 
#
#######################################################################
#
# If this CIF has been generated from an entry in the Cambridge 
# Structural Database, then it will include bibliographic, chemical, 
# crystal, experimental, refinement or atomic coordinate data resulting 
# from the CCDC's data processing and validation procedures.
#
#######################################################################

data_PUVGUK
_chemical_formula_moiety         'C22 H14 N6 O14 Zn8'
_symmetry_cell_setting           monoclinic
_symmetry_space_group_name_H-M   'I 2/a'
_symmetry_Int_Tables_number      15
_space_group_name_Hall           '-I 2ya'
loop_
_symmetry_equiv_pos_site_id
_symmetry_equiv_pos_as_xyz
1 x,y,z
2 1/2-x,y,-z
3 1/2+x,1/2+y,1/2+z
4 -x,1/2+y,1/2-z
5 -x,-y,-z
6 1/2+x,-y,z
7 1/2-x,1/2-y,1/2-z
8 x,1/2-y,1/2+z
_cell_length_a                   15.3434(4)
_cell_length_b                   14.7669(3)
_cell_length_c                   19.2363(4)
_cell_angle_alpha                90
_cell_angle_beta                 94.7265(19)
_cell_angle_gamma                90
_cell_volume                     4343.63
loop_
_atom_site_label
_atom_site_type_symbol
_atom_site_fract_x
_atom_site_fract_y
_atom_site_fract_z
Zn1 Zn 0.24269(2) 0.25080(2) 0.17309(2)
O1 O 0.12412(14) 0.19352(17) 0.18486(12)
O2 O 0.13746(15) 0.19414(18) 0.30077(12)
O3 O -0.18809(16) -0.12636(15) 0.31139(12)
O4 O -0.20325(17) -0.12697(16) 0.19577(12)
N1 N 0.24676(16) 0.25102(14) 0.06659(14)
N2 N -0.0072(7) 0.1020(7) 0.1191(4)
N3 N -0.1029(6) 0.0123(7) 0.3749(4)
C1 C 0.10030(18) 0.1708(2) 0.24306(15)
C2 C 0.02245(18) 0.11044(19) 0.24429(15)
C3 C -0.0074(2) 0.0862(2) 0.30810(16)
C4 C -0.0735(2) 0.0226(2) 0.31185(16)
C5 C -0.10947(19) -0.01839(19) 0.25091(15)
C6 C -0.0824(2) 0.0095(2) 0.18723(15)
H1 H -0.1093 -0.0160 0.1455
C7 C -0.0176(2) 0.0732(2) 0.18319(15)
C8 C -0.17165(19) -0.0956(2) 0.25306(16)
C9 C 0.1913(7) 0.1785(7) 0.0345(4)
H2 H 0.1404 0.1643 0.0609
H3 H 0.2244 0.1227 0.0256
C10 C 0.3389(7) 0.2471(8) 0.0480(5)
H4 H 0.3780 0.2141 0.0828
H5 H 0.3634 0.3074 0.0384
C11 C 0.2138(8) 0.3379(6) 0.0337(4)
H6 H 0.2230 0.3904 0.0655
H7 H 0.1516 0.3343 0.0156
N1A N 0.25324(16) 0.25102(14) -0.06659(14)
C9A C 0.3087(7) 0.1785(7) -0.0345(4)
H2A H 0.3596 0.1643 -0.0609
H3A H 0.2756 0.1227 -0.0256
C10A C 0.1611(7) 0.2471(8) -0.0480(5)
H4A H 0.1220 0.2141 -0.0828
H5A H 0.1366 0.3074 -0.0384
C11A C 0.2862(8) 0.3379(6) -0.0337(4)
H6A H 0.2770 0.3904 -0.0655
H7A H 0.3484 0.3343 -0.0156
Zn1A Zn 0.25731(2) 0.25080(2) -0.17309(2)
O1A O 0.37588(14) 0.19352(17) -0.18486(12)
O2A O 0.36254(15) 0.19414(18) -0.30077(12)
O3A O 0.68809(16) -0.12636(15) -0.31139(12)
O4A O 0.70325(17) -0.12697(16) -0.19577(12)
N2A N 0.5072(7) 0.1020(7) -0.1191(4)
N3A N 0.6029(6) 0.0123(7) -0.3749(4)
C1A C 0.39970(18) 0.1708(2) -0.24306(15)
C2A C 0.47755(18) 0.11044(19) -0.24429(15)
C3A C 0.5074(2) 0.0862(2) -0.30810(16)
C4A C 0.5735(2) 0.0226(2) -0.31185(16)
C5A C 0.60947(19) -0.01839(19) -0.25091(15)
C6A C 0.5824(2) 0.0095(2) -0.18723(15)
H1A H 0.6093 -0.0160 -0.1455
C7A C 0.5176(2) 0.0732(2) -0.18319(15)
C8A C 0.67165(19) -0.0956(2) -0.25306(16)
Zn1B Zn 0.74269(2) -0.24920(2) -0.32691(2)
Zn1C Zn -0.24269(2) -0.24920(2) 0.32691(2)
Zn1D Zn 0.75731(2) -0.25080(2) -0.17309(2)
Zn1E Zn -0.25731(2) -0.25080(2) 0.17309(2)
Zn1F Zn 0.25731(2) 0.24920(2) 0.32691(2)
Zn1G Zn 0.24269(2) 0.24920(2) -0.32691(2)
O2F O 0.36254(15) 0.30586(18) 0.19923(12)
O2G O 0.13746(15) 0.30586(18) -0.19923(12)
O3B O 0.31191(16) 0.37364(15) -0.18861(12)
O3C O 0.18809(16) 0.37364(15) 0.18861(12)
O4D O 0.20325(17) 0.12697(16) -0.19577(12)
O4E O 0.29675(17) 0.12697(16) 0.19577(12)
loop_
_geom_bond_atom_site_label_1
_geom_bond_atom_site_label_2
_geom_bond_site_symmetry_1
_geom_bond_site_symmetry_2
Zn1 O1 1_555 1_555
O1 C1 1_555 1_555
O2 C1 1_555 1_555
O3 C8 1_555 1_555
O4 C8 1_555 1_555
N1 Zn1 1_555 1_555
N2 C7 1_555 1_555
N3 C4 1_555 1_555
C1 C2 1_555 1_555
C2 C3 1_555 1_555
C3 C4 1_555 1_555
C4 C5 1_555 1_555
C5 C6 1_555 1_555
C6 H1 1_555 1_555
C7 C2 1_555 1_555
C8 C5 1_555 1_555
C9 N1 1_555 1_555
H2 C9 1_555 1_555
H3 C9 1_555 1_555
C10 N1 1_555 1_555
H4 C10 1_555 1_555
H5 C10 1_555 1_555
C11 N1 1_555 1_555
H6 C11 1_555 1_555
H7 C11 1_555 1_555
N1A C9A 1_555 1_555
C9A C10 1_555 1_555
H2A C9A 1_555 1_555
H3A C9A 1_555 1_555
C10A C9 1_555 1_555
H4A C10A 1_555 1_555
H5A C10A 1_555 1_555
C11A C11 1_555 1_555
H6A C11A 1_555 1_555
H7A C11A 1_555 1_555
Zn1A N1A 1_555 1_555
O1A Zn1A 1_555 1_555
O2A C1A 1_555 1_555
O3A C8A 1_555 1_555
O4A C8A 1_555 1_555
N2A C7A 1_555 1_555
N3A C4A 1_555 1_555
C1A O1A 1_555 1_555
C2A C1A 1_555 1_555
C3A C2A 1_555 1_555
C4A C3A 1_555 1_555
C5A C4A 1_555 1_555
C6A C5A 1_555 1_555
H1A C6A 1_555 1_555
C7A C2A 1_555 1_555
C8A C5A 1_555 1_555
Zn1B O3A 1_555 1_555
Zn1C O3 1_555 1_555
Zn1D O4A 1_555 1_555
Zn1E O4 1_555 1_555
Zn1F O2 1_555 1_555
Zn1G O2A 1_555 1_555
O2F Zn1 1_555 1_555
O2G Zn1A 1_555 1_555
O3B Zn1A 1_555 1_555
O3C Zn1 1_555 1_555
O4D Zn1A 1_555 1_555
O4E Zn1 1_555 1_555
C6 C7 1_555 1_555
N1A C10A 1_555 1_555
N1A C11A 1_555 1_555
C6A C7A 1_555 1_555

#END
