
#######################################################################
#
#                 Cambridge Crystallographic Data Centre
#                                CCDC 
#
#######################################################################
#
# If this CIF has been generated from an entry in the Cambridge 
# Structural Database, then it will include bibliographic, chemical, 
# crystal, experimental, refinement or atomic coordinate data resulting 
# from the CCDC's data processing and validation procedures.
#
#######################################################################

data_PUVGOE
_chemical_formula_moiety         'C24 H16 N5 O12 Zn7'
_symmetry_cell_setting           tetragonal
_symmetry_space_group_name_H-M   'P 4/n c c'
_symmetry_Int_Tables_number      130
_space_group_name_Hall           '-P 4a 2ac'
loop_
_symmetry_equiv_pos_site_id
_symmetry_equiv_pos_as_xyz
1 x,y,z
2 1/2-y,x,z
3 1/2-x,1/2-y,z
4 y,1/2-x,z
5 1/2+x,-y,1/2-z
6 -x,1/2+y,1/2-z
7 1/2+y,1/2+x,1/2-z
8 -y,-x,1/2-z
9 -x,-y,-z
10 1/2+y,-x,-z
11 1/2+x,1/2+y,-z
12 -y,1/2+x,-z
13 1/2-x,y,1/2+z
14 x,1/2-y,1/2+z
15 1/2-y,1/2-x,1/2+z
16 y,x,1/2+z
_cell_length_a                   14.9813(3)
_cell_length_b                   14.9813(3)
_cell_length_c                   19.2011(6)
_cell_angle_alpha                90
_cell_angle_beta                 90
_cell_angle_gamma                90
_cell_volume                     4309.48
loop_
_atom_site_label
_atom_site_type_symbol
_atom_site_fract_x
_atom_site_fract_y
_atom_site_fract_z
Zn1 Zn 0.2500 0.2500 0.31887(5)
Zn2 Zn 0.2500 0.2500 0.16567(5)
N1 N 0.2500 0.2500 0.0589(3)
N2 N 0.2500 0.2500 -0.0755(3)
O1 O 0.20914(18) 0.12268(16) 0.29864(13)
O2 O 0.18489(19) 0.13359(17) 0.18480(13)
C1 C 0.1740(2) 0.0967(2) 0.24321(17)
C2 C 0.3064(14) 0.1765(12) 0.0313(6)
H1 H 0.2808 0.1184 0.0456
H2 H 0.3671 0.1810 0.0514
C3 C 0.3122(15) 0.1806(14) -0.0478(7)
H3 H 0.2965 0.1217 -0.0676
H4 H 0.3741 0.1950 -0.0619
C4 C 0.1121(2) 0.0187(2) 0.24666(16)
C5 C 0.0834(2) -0.0134(2) 0.31125(17)
C6 C 0.0780(2) -0.0182(2) 0.18548(17)
N3 N 0.1136(19) 0.0062(19) 0.1235(7)
N4 N 0.113(2) 0.027(2) 0.3700(7)
C2A C 0.3235(12) 0.3064(14) 0.0313(6)
H1A H 0.3816 0.2808 0.0456
H2A H 0.3190 0.3671 0.0514
C3A C 0.3194(14) 0.3122(15) -0.0478(7)
H3A H 0.3783 0.2965 -0.0676
H4A H 0.3050 0.3741 -0.0619
C2B C 0.1936(14) 0.3235(12) 0.0313(6)
H1B H 0.2192 0.3816 0.0456
H2B H 0.1329 0.3190 0.0514
C3B C 0.1878(15) 0.3194(14) -0.0478(7)
H3B H 0.2035 0.3783 -0.0676
H4B H 0.1259 0.3050 -0.0619
C2C C 0.1765(12) 0.1936(14) 0.0313(6)
H1C H 0.1184 0.2192 0.0456
H2C H 0.1810 0.1329 0.0514
C3C C 0.1806(14) 0.1878(15) -0.0478(7)
H3C H 0.1217 0.2035 -0.0676
H4C H 0.1950 0.1259 -0.0619
O1G O -0.12268(16) -0.20914(18) 0.20136(13)
O2G O -0.13359(17) -0.18489(19) 0.31520(13)
C1G C -0.0967(2) -0.1740(2) 0.25679(17)
C4G C -0.0187(2) -0.1121(2) 0.25334(16)
C5G C 0.0134(2) -0.0834(2) 0.18875(17)
C6G C 0.0182(2) -0.0780(2) 0.31452(17)
O1A O 0.37732(16) 0.20914(18) 0.29864(13)
O2A O 0.36641(17) 0.18489(19) 0.18480(13)
C1A C 0.4033(2) 0.1740(2) 0.24321(17)
C4A C 0.4813(2) 0.1121(2) 0.24666(16)
C5A C 0.5134(2) 0.0834(2) 0.31125(17)
C6A C 0.5182(2) 0.0780(2) 0.18548(17)
O1D O 0.70914(18) -0.12268(16) 0.20136(13)
O2D O 0.68489(19) -0.13359(17) 0.31520(13)
C1D C 0.6740(2) -0.0967(2) 0.25679(17)
C4D C 0.6121(2) -0.0187(2) 0.25334(16)
C5D C 0.5834(2) 0.0134(2) 0.18875(17)
C6D C 0.5780(2) 0.0182(2) 0.31452(17)
Zn1D Zn -0.2500 -0.2500 0.18113(5)
Zn1D_2 Zn 0.7500 -0.2500 0.18113(5)
Zn1L Zn 0.2500 0.2500 -0.18113(5)
Zn2D Zn -0.2500 -0.2500 0.33433(5)
Zn2D_2 Zn 0.7500 -0.2500 0.33433(5)
N2L N 0.2500 0.2500 0.4245(3)
O1B O 0.29086(18) 0.37732(16) 0.29864(13)
O1C O 0.12268(16) 0.29086(18) 0.29864(13)
O2B O 0.31511(19) 0.36641(17) 0.18480(13)
O2C O 0.13359(17) 0.31511(19) 0.18480(13)
loop_
_geom_bond_atom_site_label_1
_geom_bond_atom_site_label_2
_geom_bond_site_symmetry_1
_geom_bond_site_symmetry_2
Zn1 O1 1_555 1_555
Zn2 N1 1_555 1_555
N1 C2 1_555 1_555
N2 C3 1_555 1_555
O1 C1 1_555 1_555
O2 Zn2 1_555 1_555
C1 O2 1_555 1_555
C2 H1 1_555 1_555
H2 C2 1_555 1_555
C3 C2 1_555 1_555
H3 C3 1_555 1_555
H4 C3 1_555 1_555
C4 C1 1_555 1_555
C5 C4 1_555 1_555
C6 C4 1_555 1_555
N3 C6 1_555 1_555
N4 C5 1_555 1_555
C2A N1 1_555 1_555
H1A C2A 1_555 1_555
H2A C2A 1_555 1_555
C3A N2 1_555 1_555
H3A C3A 1_555 1_555
H4A C3A 1_555 1_555
C2B N1 1_555 1_555
H1B C2B 1_555 1_555
H2B C2B 1_555 1_555
C3B N2 1_555 1_555
H3B C3B 1_555 1_555
H4B C3B 1_555 1_555
C2C N1 1_555 1_555
H1C C2C 1_555 1_555
H2C C2C 1_555 1_555
C3C N2 1_555 1_555
H3C C3C 1_555 1_555
H4C C3C 1_555 1_555
O1G C1G 1_555 1_555
O2G C1G 1_555 1_555
C1G C4G 1_555 1_555
C4G C5G 1_555 1_555
C5G C6 1_555 1_555
C6G C5 1_555 1_555
O1A Zn1 1_555 1_555
O2A Zn2 1_555 1_555
C1A O1A 1_555 1_555
C4A C1A 1_555 1_555
C5A C4A 1_555 1_555
C6A C4A 1_555 1_555
O1D C1D 1_555 1_555
O2D C1D 1_555 1_555
C1D C4D 1_555 1_555
C4D C5D 1_555 1_555
C5D C6A 1_555 1_555
C6D C5A 1_555 1_555
Zn1D O1G 1_555 1_555
Zn1D_2 O1D 1_555 1_555
Zn1L N2 1_555 1_555
Zn2D O2G 1_555 1_555
Zn2D_2 O2D 1_555 1_555
N2L Zn1 1_555 1_555
O1B Zn1 1_555 1_555
O1C Zn1 1_555 1_555
O2B Zn2 1_555 1_555
O2C Zn2 1_555 1_555
C2A C3A 1_555 1_555
C2B C3B 1_555 1_555
C2C C3C 1_555 1_555
C4G C6G 1_555 1_555
O2A C1A 1_555 1_555
C4D C6D 1_555 1_555

#END
