
#######################################################################
#
#                 Cambridge Crystallographic Data Centre
#                                CCDC 
#
#######################################################################
#
# If this CIF has been generated from an entry in the Cambridge 
# Structural Database, then it will include bibliographic, chemical, 
# crystal, experimental, refinement or atomic coordinate data resulting 
# from the CCDC's data processing and validation procedures.
#
#######################################################################

data_PUVHAR
_chemical_formula_moiety         'C20 H8 Br4 I4 N3 O12 Zn7'
_symmetry_cell_setting           orthorhombic
_symmetry_space_group_name_H-M   'P n c b'
_symmetry_Int_Tables_number      50
_space_group_name_Hall           '-P 2b 2bc'
loop_
_symmetry_equiv_pos_site_id
_symmetry_equiv_pos_as_xyz
1 x,y,z
2 -x,1/2-y,z
3 x,1/2-y,1/2-z
4 -x,y,1/2-z
5 -x,-y,-z
6 x,1/2+y,-z
7 -x,1/2+y,1/2+z
8 x,-y,1/2+z
_cell_length_a                   9.6270(3)
_cell_length_b                   13.2670(4)
_cell_length_c                   17.2190(5)
_cell_angle_alpha                90
_cell_angle_beta                 90
_cell_angle_gamma                90
_cell_volume                     2199.23
loop_
_atom_site_label
_atom_site_type_symbol
_atom_site_fract_x
_atom_site_fract_y
_atom_site_fract_z
Zn1 Zn 0.65369(11) 0.2500 0.7500
O1 O 0.6117(6) 0.3521(6) 0.6654(4)
O2 O 0.3862(6) 0.3571(6) 0.6689(4)
N1 N 0.8659(8) 0.2500 0.7500
C1 C 0.4998(9) 0.3794(6) 0.6418(5)
C2 C 0.4968(7) 0.4438(7) 0.5688(4)
C3 C 0.9228(16) 0.2639(13) 0.6709(8)
H1 H 0.9112 0.3349 0.6544
H2 H 0.8720 0.2205 0.6337
C4 C 0.3883(10) 0.5100(8) 0.5507(6)
C5 C 0.6103(10) 0.4346(9) 0.5183(6)
Br1 Br 0.2166(14) 0.5332(10) 0.6159(8)
I1 I 0.769(3) 0.333(2) 0.5109(19)
O1D O 0.3883(6) 0.6479(6) 0.3346(4)
O2D O 0.6138(6) 0.6429(6) 0.3311(4)
C1D C 0.5002(9) 0.6206(6) 0.3582(5)
C2D C 0.5032(7) 0.5562(7) 0.4312(4)
C4D C 0.6117(10) 0.4900(8) 0.4493(6)
C5D C 0.3897(10) 0.5654(9) 0.4817(6)
Br1D Br 0.7834(14) 0.4668(10) 0.3841(8)
I1D I 0.231(3) 0.667(2) 0.4891(19)
N1A N 1.1341(8) 0.2500 0.7500
C3A C 1.0772(16) 0.2361(13) 0.6709(8)
H1A H 1.0888 0.1651 0.6544
H2A H 1.1280 0.2795 0.6337
C3B C 0.9228(16) 0.2361(13) 0.8291(8)
H1B H 0.9112 0.1651 0.8456
H2B H 0.8720 0.2795 0.8663
C3C C 1.0772(16) 0.2639(13) 0.8291(8)
H1C H 1.0888 0.3349 0.8456
H2C H 1.1280 0.2205 0.8663
Zn1A Zn 0.34631(11) 0.2500 0.7500
O1A O 0.3883(6) 0.1479(6) 0.6654(4)
O2A O 0.6138(6) 0.1429(6) 0.6689(4)
C1A C 0.5002(9) 0.1206(6) 0.6418(5)
C2A C 0.5032(7) 0.0562(7) 0.5688(4)
C4A C 0.6117(10) -0.0100(8) 0.5507(6)
C5A C 0.3897(10) 0.0654(9) 0.5183(6)
Br1A Br 0.7834(14) -0.0332(10) 0.6159(8)
I1A I 0.231(3) 0.167(2) 0.5109(19)
O1E O 0.6117(6) -0.1479(6) 0.3346(4)
O2E O 0.3862(6) -0.1429(6) 0.3311(4)
C1E C 0.4998(9) -0.1206(6) 0.3582(5)
C2E C 0.4968(7) -0.0562(7) 0.4312(4)
C4E C 0.3883(10) 0.0100(8) 0.4493(6)
C5E C 0.6103(10) -0.0654(9) 0.4817(6)
Br1E Br 0.2166(14) 0.0332(10) 0.3841(8)
I1E I 0.769(3) -0.167(2) 0.4891(19)
Zn1A_2 Zn 1.34631(11) 0.2500 0.7500
Zn1D Zn 0.34631(11) -0.2500 0.2500
Zn1D_2 Zn 0.34631(11) 0.7500 0.2500
Zn1E Zn 0.65369(11) -0.2500 0.2500
Zn1E_2 Zn 0.65369(11) 0.7500 0.2500
O1B O 0.6117(6) 0.1479(6) 0.8346(4)
O1C O 0.3883(6) 0.3521(6) 0.8346(4)
O2B O 0.3862(6) 0.1429(6) 0.8311(4)
O2C O 0.6138(6) 0.3571(6) 0.8311(4)
N1A_2 N 0.1341(8) 0.2500 0.7500
loop_
_geom_bond_atom_site_label_1
_geom_bond_atom_site_label_2
_geom_bond_site_symmetry_1
_geom_bond_site_symmetry_2
Zn1 O1 1_555 1_555
O1 C1 1_555 1_555
O2 C1 1_555 1_555
N1 Zn1 1_555 1_555
C1 C2 1_555 1_555
C2 C4 1_555 1_555
C3 N1 1_555 1_555
H1 C3 1_555 1_555
H2 C3 1_555 1_555
C4 Br1 1_555 1_555
C5 C2 1_555 1_555
I1 C5 1_555 1_555
O1D C1D 1_555 1_555
O2D C1D 1_555 1_555
C1D C2D 1_555 1_555
C2D C4D 1_555 1_555
C4D C5 1_555 1_555
C5D C4 1_555 1_555
Br1D C4D 1_555 1_555
I1D C5D 1_555 1_555
N1A C3A 1_555 1_555
C3A C3 1_555 1_555
H1A C3A 1_555 1_555
H2A C3A 1_555 1_555
C3B N1 1_555 1_555
H1B C3B 1_555 1_555
H2B C3B 1_555 1_555
C3C N1A 1_555 1_555
H1C C3C 1_555 1_555
H2C C3C 1_555 1_555
Zn1A O2 1_555 1_555
O1A Zn1A 1_555 1_555
O2A Zn1 1_555 1_555
C1A O1A 1_555 1_555
C2A C1A 1_555 1_555
C4A C2A 1_555 1_555
C5A C2A 1_555 1_555
Br1A C4A 1_555 1_555
I1A C5A 1_555 1_555
O1E C1E 1_555 1_555
O2E C1E 1_555 1_555
C1E C2E 1_555 1_555
C2E C4E 1_555 1_555
C4E C5A 1_555 1_555
C5E C4A 1_555 1_555
Br1E C4E 1_555 1_555
I1E C5E 1_555 1_555
Zn1A_2 N1A 1_555 1_555
Zn1D O2E 1_555 1_555
Zn1D_2 O1D 1_555 1_555
Zn1E O1E 1_555 1_555
Zn1E_2 O2D 1_555 1_555
O1B Zn1 1_555 1_555
O1C Zn1A 1_555 1_555
O2B Zn1A 1_555 1_555
O2C Zn1 1_555 1_555
N1A_2 Zn1A 1_555 1_555
C2D C5D 1_555 1_555
C3B C3C 1_555 1_555
O2A C1A 1_555 1_555
C2E C5E 1_555 1_555

#END
