
#######################################################################
#
#                 Cambridge Crystallographic Data Centre
#                                CCDC 
#
#######################################################################
#
# If this CIF has been generated from an entry in the Cambridge 
# Structural Database, then it will include bibliographic, chemical, 
# crystal, experimental, refinement or atomic coordinate data resulting 
# from the CCDC's data processing and validation procedures.
#
#######################################################################

data_ETEJIX01
_chemical_formula_moiety         '(C39 H47 La2 N5 O23)n'
_symmetry_cell_setting           triclinic
_symmetry_space_group_name_H-M   'P -1'
_symmetry_Int_Tables_number      2
_space_group_name_Hall           '-P 1'
loop_
_symmetry_equiv_pos_site_id
_symmetry_equiv_pos_as_xyz
1 x,y,z
2 -x,-y,-z
_cell_length_a                   10.4340(9)
_cell_length_b                   11.1630(9)
_cell_length_c                   12.4220(9)
_cell_angle_alpha                102.676(6)
_cell_angle_beta                 106.313(6)
_cell_angle_gamma                99.415(7)
_cell_volume                     1314.98
loop_
_atom_site_label
_atom_site_type_symbol
_atom_site_fract_x
_atom_site_fract_y
_atom_site_fract_z
La1 La -0.40366(5) 0.54306(4) 0.18365(4)
O1 O -0.1426(6) 0.4022(7) -0.2365(5)
O2 O -0.5388(6) 0.3229(5) 0.0876(5)
O3 O -0.2405(6) 0.4055(5) 0.2352(5)
O4 O -0.4495(6) 0.4689(5) 0.3484(5)
O5 O -0.5964(5) 0.2665(5) -0.1076(4)
O6 O -0.3219(6) 0.7540(5) 0.3518(5)
O7 O -0.1604(6) 0.6842(5) 0.2920(5)
O8 O -0.5687(7) 0.0473(5) -0.2162(5)
O9 O -0.3557(5) 0.4813(5) -0.0023(4)
O10 O -0.3620(6) 0.4237(5) -0.1857(4)
N1 N -0.5227(8) 0.2913(7) 0.3983(6)
N2 N -0.0643(8) 0.3354(7) 0.3347(6)
C1 C 0.0820(10) 0.3660(10) 0.4055(9)
H1 H 0.1206 0.4549 0.4221
H2 H 0.1302 0.3188 0.3631
H3 H 0.0907 0.3444 0.4774
C2 C -0.1407(8) 0.9885(7) 0.4851(7)
C3 C -0.0743(8) 0.4506(8) -0.1187(7)
C4 C 0.0430(8) 0.9005(7) 0.4428(7)
C5 C -0.0652(8) 0.5318(8) 0.0791(7)
H4 H -0.1100 0.5542 0.1327
C6 C -0.0953(8) 0.8886(7) 0.4277(6)
C7 C -0.5403(9) 0.3698(8) 0.3321(7)
C8 C -0.4027(12) 0.3138(12) 0.4975(10)
H5 H -0.3415 0.3927 0.5077
H6 H -0.3570 0.2465 0.4855
H7 H -0.4289 0.3172 0.5661
C9 C -0.6295(11) 0.1777(8) 0.3729(9)
H8 H -0.7066 0.1750 0.3075
H9 H -0.6583 0.1786 0.4399
H10 H -0.5940 0.1045 0.3545
C10 C -0.1189(9) 0.4233(8) 0.2975(7)
C11 C -0.1423(12) 0.2071(9) 0.3043(10)
H11 H -0.1603 0.1901 0.3718
H12 H -0.0908 0.1504 0.2773
H13 H -0.2278 0.1952 0.2436
C12 C -0.5287(8) 0.1169(6) -0.0065(7)
C13 C -0.2947(8) 0.4614(7) -0.0780(7)
C14 C -0.1432(8) 0.4812(7) -0.0395(6)
C15 C -0.1980(8) 0.7699(7) 0.3544(6)
C16 C -0.5559(8) 0.2436(8) -0.0082(7)
C17 C -0.4935(9) 0.0875(7) 0.1007(7)
H14 H -0.4889 0.1468 0.1682
C18 C -0.5342(8) 0.0275(7) -0.1077(6)
O12 O 0.1009(8) 0.8094(7) 0.3965(7)
La1A La -0.59634(5) -0.54306(4) -0.18365(4)
La1A_2 La -0.59634(5) 0.45694(4) -0.18365(4)
La1_2 La -0.40366(5) -0.45694(4) 0.18365(4)
La1A_3 La 0.40366(5) 1.45694(4) 0.81635(4)
La1_3 La 0.59634(5) 0.54306(4) 0.18365(4)
La1A_4 La 0.40366(5) 0.45694(4) -0.18365(4)
O1A O 0.1426(6) 0.5978(7) 0.2365(5)
O2A O -0.4612(6) -0.3229(5) -0.0876(5)
O3A O -0.7595(6) -0.4055(5) -0.2352(5)
O4A O -0.5505(6) -0.4689(5) -0.3484(5)
O5A O -0.4036(5) -0.2665(5) 0.1076(4)
O5A_2 O -0.4036(5) 0.7335(5) 0.1076(4)
O5_2 O -0.5964(5) -0.7335(5) -0.1076(4)
O6A O 0.3219(6) 1.2460(5) 0.6482(5)
O6A_2 O -0.6781(6) -0.7540(5) -0.3518(5)
O7A O 0.1604(6) 1.3158(5) 0.7080(5)
O7A_2 O -0.8396(6) -0.6842(5) -0.2920(5)
O8A O -0.4313(7) -0.0473(5) 0.2162(5)
O9A O -0.6443(5) 0.5187(5) 0.0023(4)
O9_2 O -0.3557(5) -0.5187(5) -0.0023(4)
O9A_2 O -0.6443(5) -0.4813(5) 0.0023(4)
O9A_3 O 0.3557(5) 0.5187(5) 0.0023(4)
O10_2 O -0.3620(6) -0.5763(5) -0.1857(4)
O10A O -0.6380(6) 0.5763(5) 0.1857(4)
O10A_2 O 0.3620(6) 0.5763(5) 0.1857(4)
N1A N -0.4773(8) -0.2913(7) -0.3983(6)
N2A N -0.9357(8) -0.3354(7) -0.3347(6)
C1A C -1.0820(10) -0.3660(10) -0.4055(9)
H1A H -1.1206 -0.4549 -0.4221
H2A H -1.1302 -0.3188 -0.3631
H3A H -1.0907 -0.3444 -0.4774
C2A C 0.1407(8) 1.0115(7) 0.5149(7)
C3A C 0.0743(8) 0.5494(8) 0.1187(7)
C4A C -0.0430(8) 1.0995(7) 0.5572(7)
C5A C 0.0652(8) 0.4682(8) -0.0791(7)
H4A H 0.1100 0.4458 -0.1327
C6A C 0.0953(8) 1.1114(7) 0.5723(6)
C7A C -0.4597(9) -0.3698(8) -0.3321(7)
C8A C -0.5973(12) -0.3138(12) -0.4975(10)
H5A H -0.6585 -0.3927 -0.5077
H6A H -0.6430 -0.2465 -0.4855
H7A H -0.5711 -0.3172 -0.5661
C9A C -0.3705(11) -0.1777(8) -0.3729(9)
H8A H -0.2934 -0.1750 -0.3075
H9A H -0.3417 -0.1786 -0.4399
H10A H -0.4060 -0.1045 -0.3545
C10A C -0.8811(9) -0.4233(8) -0.2975(7)
C11A C -0.8577(12) -0.2071(9) -0.3043(10)
H11A H -0.8397 -0.1901 -0.3718
H12A H -0.9092 -0.1504 -0.2773
H13A H -0.7722 -0.1952 -0.2436
C12A C -0.4713(8) -0.1169(6) 0.0065(7)
C13A C 0.2947(8) 0.5386(7) 0.0780(7)
C14A C 0.1432(8) 0.5188(7) 0.0395(6)
C15A C 0.1980(8) 1.2301(7) 0.6456(6)
C16A C -0.4441(8) -0.2436(8) 0.0082(7)
C17A C -0.5065(9) -0.0875(7) -0.1007(7)
H14A H -0.5111 -0.1468 -0.1682
C18A C -0.4658(8) -0.0275(7) 0.1077(6)
O12A O -0.1009(8) 1.1906(7) 0.6035(7)
O11 O -1.1052(10) 0.7754(9) -0.1538(7)
N3 N -0.9758(10) 0.8454(8) 0.0390(7)
C19 C -1.016(3) 0.8805(16) 0.136(2)
C20 C -0.841(2) 0.8595(16) 0.051(4)
C21 C -1.099(2) 0.8133(19) -0.0536(16)
loop_
_geom_bond_atom_site_label_1
_geom_bond_atom_site_label_2
_geom_bond_site_symmetry_1
_geom_bond_site_symmetry_2
La1 O2 1_555 1_555
O1 C3 1_555 1_555
O2 C16 1_555 1_555
O3 La1 1_555 1_555
O4 La1 1_555 1_555
O5 C16 1_555 1_555
O6 La1 1_555 1_555
O7 La1 1_555 1_555
O8 C18 1_555 1_555
O9 La1 1_555 1_555
O10 C13 1_555 1_555
N1 C7 1_555 1_555
N2 C1 1_555 1_555
C1 H1 1_555 1_555
H2 C1 1_555 1_555
H3 C1 1_555 1_555
C2 C6 1_555 1_555
C3 C14 1_555 1_555
C4 C6 1_555 1_555
C5 H4 1_555 1_555
C6 C15 1_555 1_555
C7 O4 1_555 1_555
C8 N1 1_555 1_555
H5 C8 1_555 1_555
H6 C8 1_555 1_555
H7 C8 1_555 1_555
C9 N1 1_555 1_555
H8 C9 1_555 1_555
H9 C9 1_555 1_555
H10 C9 1_555 1_555
C10 O3 1_555 1_555
C11 N2 1_555 1_555
H11 C11 1_555 1_555
H12 C11 1_555 1_555
H13 C11 1_555 1_555
C12 C16 1_555 1_555
C13 O9 1_555 1_555
C14 C5 1_555 1_555
C15 O6 1_555 1_555
C17 C12 1_555 1_555
H14 C17 1_555 1_555
C18 C12 1_555 1_555
O11 C21 1_555 1_555
N3 C19 1_555 1_555
C20 N3 1_555 1_555
C21 N3 1_555 1_555
O12 C4 1_555 1_555
La1A O2A 1_555 1_555
La1A_2 O5 1_555 1_555
La1_2 O5A 1_555 1_555
La1A_3 O6A 1_555 1_555
La1_3 O9A_3 1_555 1_555
La1A_4 O9A_3 1_555 1_555
O1A C3A 1_555 1_555
O2A C16A 1_555 1_555
O3A La1A 1_555 1_555
O4A La1A 1_555 1_555
O5A C16A 1_555 1_555
O5A_2 La1 1_555 1_555
O5_2 La1A 1_555 1_555
O6A C15A 1_555 1_555
O6A_2 La1A 1_555 1_555
O7A La1A_3 1_555 1_555
O7A_2 La1A 1_555 1_555
O8A C18A 1_555 1_555
O9A La1 1_555 1_555
O9_2 La1A 1_555 1_555
O9A_2 La1A 1_555 1_555
O9A_3 C13A 1_555 1_555
O10_2 La1A 1_555 1_555
O10A La1 1_555 1_555
O10A_2 La1_3 1_555 1_555
N1A C7A 1_555 1_555
N2A C1A 1_555 1_555
C1A H1A 1_555 1_555
H2A C1A 1_555 1_555
H3A C1A 1_555 1_555
C2A C4 1_555 1_555
C3A C5 1_555 1_555
C4A C2 1_555 1_555
C5A C3 1_555 1_555
H4A C5A 1_555 1_555
C6A C2A 1_555 1_555
C7A O4A 1_555 1_555
C8A N1A 1_555 1_555
H5A C8A 1_555 1_555
H6A C8A 1_555 1_555
H7A C8A 1_555 1_555
C9A N1A 1_555 1_555
H8A C9A 1_555 1_555
H9A C9A 1_555 1_555
H10A C9A 1_555 1_555
C10A O3A 1_555 1_555
C11A N2A 1_555 1_555
H11A C11A 1_555 1_555
H12A C11A 1_555 1_555
H13A C11A 1_555 1_555
C12A C16A 1_555 1_555
C13A O10A_2 1_555 1_555
C14A C3A 1_555 1_555
C15A O7A 1_555 1_555
C17A C18 1_555 1_555
H14A C17A 1_555 1_555
C18A C17 1_555 1_555
O12A C4A 1_555 1_555
O7 C15 1_555 1_555
O9 La1A_2 1_555 1_555
O10 La1A_2 1_555 1_555
N2 C10 1_555 1_555
C13 C14 1_555 1_555
La1A_2 O9A 1_555 1_555
La1_2 O9_2 1_555 1_555
La1_2 O9A_2 1_555 1_555
N2A C10A 1_555 1_555
C4A C6A 1_555 1_555
C5A C14A 1_555 1_555
C6A C15A 1_555 1_555
C12A C17A 1_555 1_555
C12A C18A 1_555 1_555
C13A C14A 1_555 1_555

#END
