
#######################################################################
#
#                 Cambridge Crystallographic Data Centre
#                                CCDC 
#
#######################################################################
#
# If this CIF has been generated from an entry in the Cambridge 
# Structural Database, then it will include bibliographic, chemical, 
# crystal, experimental, refinement or atomic coordinate data resulting 
# from the CCDC's data processing and validation procedures.
#
#######################################################################

data_ETEJOD01
_chemical_formula_moiety         '(C39 H47 N5 Nd2 O23)n'
_symmetry_cell_setting           triclinic
_symmetry_space_group_name_H-M   'P -1'
_symmetry_Int_Tables_number      2
_space_group_name_Hall           '-P 1'
loop_
_symmetry_equiv_pos_site_id
_symmetry_equiv_pos_as_xyz
1 x,y,z
2 -x,-y,-z
_cell_length_a                   10.4195(4)
_cell_length_b                   11.1743(4)
_cell_length_c                   12.5690(4)
_cell_angle_alpha                102.198(3)
_cell_angle_beta                 108.537(3)
_cell_angle_gamma                98.944(3)
_cell_volume                     1316.45
loop_
_atom_site_label
_atom_site_type_symbol
_atom_site_fract_x
_atom_site_fract_y
_atom_site_fract_z
Nd1 Nd -0.39829(2) 0.044400(19) -0.319270(19)
O1 O -0.2269(5) -0.0798(5) -0.2623(4)
O2 O -0.4338(5) -0.0296(4) -0.1575(3)
O3 O -0.5223(4) -0.1740(3) -0.4097(3)
O4 O -0.5845(4) -0.2288(3) -0.6043(3)
O5 O -0.5565(6) -0.4450(4) -0.7120(4)
H1 H -0.5687 -0.3736 -0.7069
O6 O -0.3212(4) 0.2473(4) -0.1537(3)
O7 O -0.3528(3) -0.0091(3) -0.4973(3)
O8 O -0.3710(4) -0.0719(4) -0.6810(3)
O9 O -0.1570(4) -0.1028(5) -0.7344(3)
H2 H -0.2391 -0.1022 -0.7474
O10 O -0.1607(4) 0.1908(4) -0.2173(3)
C1 C -0.5281(7) -0.1215(6) -0.1704(5)
N2 N -0.5175(7) -0.1952(6) -0.1001(5)
C2 C -0.3987(12) -0.1706(13) 0.0037(9)
H3 H -0.3516 -0.0830 0.0281
H4 H -0.3365 -0.2213 -0.0112
H5 H -0.4279 -0.1911 0.0642
C3 C -0.6305(10) -0.3037(8) -0.1220(8)
H6 H -0.7062 -0.3103 -0.1925
H7 H -0.6624 -0.2927 -0.0577
H8 H -0.5971 -0.3792 -0.1303
C4 C -0.5456(5) -0.2514(4) -0.5061(4)
C5 C -0.5249(5) -0.3817(4) -0.5057(4)
C6 C -0.4963(6) -0.4148(5) -0.4016(4)
H9 H -0.4943 -0.3577 -0.3351
C7 C -0.5292(6) -0.4685(5) -0.6049(4)
C8 C -0.1388(5) 0.4827(5) -0.0110(4)
C9 C 0.0435(5) 0.4069(5) -0.0636(4)
C10 C -0.0958(5) 0.3890(4) -0.0744(4)
C11 C -0.2001(5) 0.2692(4) -0.1534(4)
C12 C -0.2974(5) -0.0338(4) -0.5729(5)
C13 C -0.1443(5) -0.0157(4) -0.5362(4)
C14 C -0.0824(5) -0.0521(5) -0.6184(4)
C15 C -0.0605(5) 0.0364(5) -0.4192(4)
H10 H -0.1014 0.0614 -0.3651
O12 O 0.1009(6) 0.3241(6) -0.1178(6)
N3 N -0.0655(8) -0.1633(7) -0.1643(6)
C19 C -0.1136(9) -0.0729(10) -0.2035(8)
C20 C 0.0835(14) -0.1254(13) -0.0864(13)
H11 H 0.1330 -0.1816 -0.1158
H12 H 0.0908 -0.1293 -0.0091
H13 H 0.1231 -0.0408 -0.0837
C21 C -0.1305(16) -0.2957(18) -0.1911(15)
H14 H -0.1507 -0.3117 -0.1253
H15 H -0.0683 -0.3453 -0.2079
H16 H -0.2155 -0.3178 -0.2578
H17 H -0.594(8) -0.165(8) -0.247(4)
H18 H -0.074(8) 0.016(3) -0.179(7)
Nd1A Nd -0.60171(2) -1.044400(19) -0.680730(19)
Nd1A_2 Nd -0.60171(2) -0.044400(19) -0.680730(19)
Nd1_2 Nd -0.39829(2) -0.955600(19) -0.319270(19)
Nd1A_3 Nd 0.39829(2) 0.955600(19) 0.319270(19)
Nd1_3 Nd 0.60171(2) 0.044400(19) -0.319270(19)
Nd1A_4 Nd 0.39829(2) -0.044400(19) -0.680730(19)
O1A O -0.7731(5) -0.9202(5) -0.7377(4)
O2A O -0.5662(5) -0.9704(4) -0.8425(3)
O3A O -0.4777(4) -0.8260(3) -0.5903(3)
O4A O -0.4155(4) -0.7712(3) -0.3957(3)
O4A_2 O -0.4155(4) 0.2288(3) -0.3957(3)
O4_2 O -0.5845(4) -1.2288(3) -0.6043(3)
O5A O -0.4435(6) -0.5550(4) -0.2880(4)
H1A H -0.4313 -0.6264 -0.2931
O6A O 0.3212(4) 0.7527(4) 0.1537(3)
O6A_2 O -0.6788(4) -1.2473(4) -0.8463(3)
O7A O -0.6472(3) 0.0091(3) -0.5027(3)
O7_2 O -0.3528(3) -1.0091(3) -0.4973(3)
O7A_2 O -0.6472(3) -0.9909(3) -0.5027(3)
O7A_3 O 0.3528(3) 0.0091(3) -0.5027(3)
O8_2 O -0.3710(4) -1.0719(4) -0.6810(3)
O8A O -0.6290(4) 0.0719(4) -0.3190(3)
O8A_2 O 0.3710(4) 0.0719(4) -0.3190(3)
O9A O 0.1570(4) 0.1028(5) -0.2656(3)
H2A H 0.2391 0.1022 -0.2526
O10A O 0.1607(4) 0.8092(4) 0.2173(3)
O10A_2 O -0.8393(4) -1.1908(4) -0.7827(3)
C1A C -0.4719(7) -0.8785(6) -0.8296(5)
N2A N -0.4825(7) -0.8048(6) -0.8999(5)
C2A C -0.6013(12) -0.8294(13) -1.0037(9)
H3A H -0.6484 -0.9170 -1.0281
H4A H -0.6635 -0.7787 -0.9888
H5A H -0.5721 -0.8089 -1.0642
C3A C -0.3695(10) -0.6963(8) -0.8780(8)
H6A H -0.2938 -0.6897 -0.8075
H7A H -0.3376 -0.7073 -0.9423
H8A H -0.4029 -0.6208 -0.8697
C4A C -0.4544(5) -0.7486(4) -0.4939(4)
C5A C -0.4751(5) -0.6183(4) -0.4943(4)
C6A C -0.5037(6) -0.5852(5) -0.5984(4)
H9A H -0.5057 -0.6423 -0.6649
C7A C -0.4708(6) -0.5315(5) -0.3951(4)
C8A C 0.1388(5) 0.5173(5) 0.0110(4)
C9A C -0.0435(5) 0.5931(5) 0.0636(4)
C10A C 0.0958(5) 0.6110(4) 0.0744(4)
C11A C 0.2001(5) 0.7308(4) 0.1534(4)
C12A C 0.2974(5) 0.0338(4) -0.4271(5)
C13A C 0.1443(5) 0.0157(4) -0.4638(4)
C14A C 0.0824(5) 0.0521(5) -0.3816(4)
C15A C 0.0605(5) -0.0364(5) -0.5808(4)
H10A H 0.1014 -0.0614 -0.6349
O12A O -0.1009(6) 0.6759(6) 0.1178(6)
N3A N -0.9345(8) -0.8367(7) -0.8357(6)
C19A C -0.8864(9) -0.9271(10) -0.7965(8)
C20A C -1.0835(14) -0.8746(13) -0.9136(13)
H11A H -1.1330 -0.8184 -0.8842
H12A H -1.0908 -0.8707 -0.9909
H13A H -1.1231 -0.9592 -0.9163
C21A C -0.8695(16) -0.7043(18) -0.8089(15)
H14A H -0.8493 -0.6883 -0.8747
H15A H -0.9317 -0.6547 -0.7921
H16A H -0.7845 -0.6822 -0.7422
H17A H -0.406(8) -0.835(8) -0.753(4)
H18A H -0.926(8) -1.016(3) -0.821(7)
O11 O -0.8871(9) 0.7404(9) -0.3468(7)
N1 N -1.0230(8) 0.6582(7) -0.5374(7)
C16 C -1.1700(19) 0.6327(16) -0.6221(16)
C17 C -0.916(2) 0.634(2) -0.570(2)
C18 C -1.0056(18) 0.7276(17) -0.4197(14)
loop_
_geom_bond_atom_site_label_1
_geom_bond_atom_site_label_2
_geom_bond_site_symmetry_1
_geom_bond_site_symmetry_2
Nd1 O1 1_555 1_555
O1 C19 1_555 1_555
O2 Nd1 1_555 1_555
O3 Nd1 1_555 1_555
O4 C4 1_555 1_555
O5 H1 1_555 1_555
O6 Nd1 1_555 1_555
O7 Nd1 1_555 1_555
O8 C12 1_555 1_555
O9 H2 1_555 1_555
O10 Nd1 1_555 1_555
O11 C18 1_555 1_555
N1 C16 1_555 1_555
C1 O2 1_555 1_555
N2 C1 1_555 1_555
C2 N2 1_555 1_555
H3 C2 1_555 1_555
H4 C2 1_555 1_555
H5 C2 1_555 1_555
C3 N2 1_555 1_555
H6 C3 1_555 1_555
H7 C3 1_555 1_555
H8 C3 1_555 1_555
C4 O3 1_555 1_555
C5 C4 1_555 1_555
C6 C5 1_555 1_555
H9 C6 1_555 1_555
C7 O5 1_555 1_555
C8 C10 1_555 1_555
C9 C10 1_555 1_555
C10 C11 1_555 1_555
C11 O6 1_555 1_555
C12 O7 1_555 1_555
C13 C12 1_555 1_555
C14 O9 1_555 1_555
C15 C13 1_555 1_555
H10 C15 1_555 1_555
C17 N1 1_555 1_555
C18 N1 1_555 1_555
O12 C9 1_555 1_555
N3 C19 1_555 1_555
C19 H18 1_555 1_555
C20 N3 1_555 1_555
H11 C20 1_555 1_555
H12 C20 1_555 1_555
H13 C20 1_555 1_555
C21 N3 1_555 1_555
H14 C21 1_555 1_555
H15 C21 1_555 1_555
H16 C21 1_555 1_555
H17 C1 1_555 1_555
Nd1A O1A 1_555 1_555
Nd1A_2 O4 1_555 1_555
Nd1_2 O4A 1_555 1_555
Nd1A_3 O6A 1_555 1_555
Nd1_3 O7A_3 1_555 1_555
Nd1A_4 O7A_3 1_555 1_555
O1A C19A 1_555 1_555
O2A Nd1A 1_555 1_555
O3A Nd1A 1_555 1_555
O4A C4A 1_555 1_555
O4A_2 Nd1 1_555 1_555
O4_2 Nd1A 1_555 1_555
O5A H1A 1_555 1_555
O6A C11A 1_555 1_555
O6A_2 Nd1A 1_555 1_555
O7A Nd1 1_555 1_555
O7_2 Nd1A 1_555 1_555
O7A_2 Nd1A 1_555 1_555
O7A_3 C12A 1_555 1_555
O8_2 Nd1A 1_555 1_555
O8A Nd1 1_555 1_555
O8A_2 Nd1_3 1_555 1_555
O9A H2A 1_555 1_555
O10A Nd1A_3 1_555 1_555
O10A_2 Nd1A 1_555 1_555
C1A O2A 1_555 1_555
N2A C1A 1_555 1_555
C2A N2A 1_555 1_555
H3A C2A 1_555 1_555
H4A C2A 1_555 1_555
H5A C2A 1_555 1_555
C3A N2A 1_555 1_555
H6A C3A 1_555 1_555
H7A C3A 1_555 1_555
H8A C3A 1_555 1_555
C4A O3A 1_555 1_555
C5A C4A 1_555 1_555
C6A C7 1_555 1_555
H9A C6A 1_555 1_555
C7A C6 1_555 1_555
C8A C9 1_555 1_555
C9A C8 1_555 1_555
C10A C8A 1_555 1_555
C11A O10A 1_555 1_555
C12A O8A_2 1_555 1_555
C13A C12A 1_555 1_555
C14A C15 1_555 1_555
C15A C14 1_555 1_555
H10A C15A 1_555 1_555
O12A C9A 1_555 1_555
N3A C19A 1_555 1_555
C19A H18A 1_555 1_555
C20A N3A 1_555 1_555
H11A C20A 1_555 1_555
H12A C20A 1_555 1_555
H13A C20A 1_555 1_555
C21A N3A 1_555 1_555
H14A C21A 1_555 1_555
H15A C21A 1_555 1_555
H16A C21A 1_555 1_555
H17A C1A 1_555 1_555
O7 Nd1A_2 1_555 1_555
O8 Nd1A_2 1_555 1_555
O10 C11 1_555 1_555
C5 C7 1_555 1_555
C13 C14 1_555 1_555
Nd1A_2 O7A 1_555 1_555
Nd1_2 O7_2 1_555 1_555
Nd1_2 O7A_2 1_555 1_555
O5A C7A 1_555 1_555
O9A C14A 1_555 1_555
C5A C6A 1_555 1_555
C5A C7A 1_555 1_555
C9A C10A 1_555 1_555
C10A C11A 1_555 1_555
C13A C14A 1_555 1_555
C13A C15A 1_555 1_555

#END
