
#######################################################################
#
#                 Cambridge Crystallographic Data Centre
#                                CCDC 
#
#######################################################################
#
# If this CIF has been generated from an entry in the Cambridge 
# Structural Database, then it will include bibliographic, chemical, 
# crystal, experimental, refinement or atomic coordinate data resulting 
# from the CCDC's data processing and validation procedures.
#
#######################################################################

data_KUDYUE
_chemical_formula_moiety         '(C12 H51 N9 O32 P8 Zn6)n'
_symmetry_cell_setting           monoclinic
_symmetry_space_group_name_H-M   'P 21/c'
_symmetry_Int_Tables_number      14
_space_group_name_Hall           '-P 2ybc'
loop_
_symmetry_equiv_pos_site_id
_symmetry_equiv_pos_as_xyz
1 x,y,z
2 -x,1/2+y,1/2-z
3 -x,-y,-z
4 x,1/2-y,1/2+z
_cell_length_a                   31.9204(3)
_cell_length_b                   8.3759(2)
_cell_length_c                   15.7894(3)
_cell_angle_alpha                90
_cell_angle_beta                 97.062(1)
_cell_angle_gamma                90
_cell_volume                     4189.46
loop_
_atom_site_label
_atom_site_type_symbol
_atom_site_fract_x
_atom_site_fract_y
_atom_site_fract_z
Zn1 Zn 0.49334(2) -0.24227(10) 1.01305(5)
Zn2 Zn -0.00914(2) -0.23962(9) 0.51140(4)
Zn3 Zn 0.25491(2) -0.47586(9) 0.63152(4)
Zn4 Zn 0.25168(2) -0.49903(9) 0.89113(4)
Zn5 Zn 0.12716(2) -0.29090(9) 0.59003(5)
Zn6 Zn 0.37176(2) -0.72054(10) 0.93842(5)
P1 P 0.21759(6) -0.1615(2) 0.55380(11)
P2 P 0.05745(5) -0.0189(2) 0.62731(10)
P3 P 0.56253(5) -0.0213(2) 1.10912(10)
P4 P 0.06318(5) -0.4580(2) 0.43905(10)
P5 P 0.44334(5) -0.5524(2) 1.07850(10)
P6 P 0.17671(5) -0.5288(2) 0.72547(10)
P7 P 0.28112(5) -0.7872(2) 1.00601(11)
P8 P 0.33093(5) -0.4705(2) 0.79394(10)
O1 O 0.24242(15) -0.1543(6) 0.4783(3)
O2 O 0.15100(16) -0.6799(6) 0.7450(3)
O3 O 0.02784(15) -0.3352(6) 0.4368(3)
O4 O 0.45933(16) -0.3790(6) 1.0789(3)
O5 O 0.27014(15) -0.6927(6) 1.0835(3)
O6 O 0.56010(15) 0.0677(6) 1.1961(3)
H1 H 0.5669 0.0063 1.2358
O7 O 0.24295(15) -0.2484(5) 0.6283(3)
O8 O 0.36505(15) -0.3467(6) 0.7849(3)
O9 O 0.20941(16) 0.0116(6) 0.5854(4)
H2 H 0.2306 0.0662 0.5834
O10 O 0.25735(15) -0.7206(6) 0.9230(3)
O11 O 0.41378(15) -0.5799(6) 0.9962(3)
O12 O 0.04533(15) -0.6270(5) 0.4272(3)
O13 O 0.48190(14) -0.6644(6) 1.0810(3)
O14 O 0.20316(15) -0.5810(6) 0.6558(3)
O15 O 0.32884(15) -0.7790(7) 1.0067(3)
O16 O 0.35156(16) -0.6264(6) 0.8290(3)
O17 O 0.20403(16) -0.4718(7) 0.8058(3)
O18 O 0.05787(15) 0.0419(6) 0.7201(3)
O19 O 0.09411(14) -0.4467(6) 0.5194(3)
O20 O 0.30527(15) -0.5120(6) 0.7088(3)
O21 O 0.14609(14) -0.3930(6) 0.6980(3)
O22 O 0.60845(14) -0.0724(6) 1.1040(3)
O23 O 0.26845(15) -0.9620(5) 1.0173(3)
O24 O 0.53419(15) -0.1670(6) 1.1058(3)
O25 O 0.54932(16) 0.0984(7) 1.0395(3)
O26 O 0.10011(15) -0.0929(6) 0.6159(3)
O27 O 0.02106(15) -0.1391(6) 0.6112(3)
O28 O 0.30212(14) -0.4019(6) 0.8570(3)
O29 O 0.17452(14) -0.2404(6) 0.5277(3)
O30 O 0.08694(15) -0.4233(6) 0.3604(3)
H3 H 0.0747 -0.4678 0.3181
O31 O 0.05000(15) 0.1259(6) 0.5682(3)
O32 O 0.42136(15) -0.5757(6) 1.1579(3)
Zn1B Zn 0.50666(2) -0.75773(10) 0.98695(5)
Zn1B_2 Zn 0.50666(2) 0.24227(10) 0.98695(5)
Zn2B Zn 0.00914(2) -0.76038(9) 0.48860(4)
Zn2B_2 Zn 0.00914(2) 0.23962(9) 0.48860(4)
Zn3C Zn 0.25491(2) -1.02414(9) 1.13152(4)
Zn4C Zn 0.25168(2) -0.00097(9) 0.39113(4)
Zn6B Zn 0.62824(2) -0.27946(10) 1.06158(5)
O1C O 0.24242(15) -0.3457(6) 0.9783(3)
O12B O -0.04533(15) -0.3730(5) 0.5728(3)
O13B O 0.51810(14) -0.3356(6) 0.9190(3)
O22B O 0.39155(14) -0.9276(6) 0.8960(3)
O23C O 0.26845(15) -0.5380(5) 0.5173(3)
O25B O 0.45068(16) -0.0984(7) 0.9605(3)
O31B O -0.05000(15) -0.1259(6) 0.4318(3)
N1 N 0.01551(18) 0.3230(7) 0.7273(3)
H4 H 0.0024 0.2975 0.6761
H5 H -0.0035 0.3485 0.7618
H6 H 0.0307 0.2400 0.7489
C1 C 0.0438(2) 0.4609(9) 0.7193(4)
H7 H 0.0273 0.5505 0.6948
H8 H 0.0642 0.4334 0.6809
C2 C 0.0666(2) 0.5084(8) 0.8036(4)
H9 H 0.0837 0.6018 0.7963
H10 H 0.0462 0.5369 0.8418
N2 N 0.09384(17) 0.3788(7) 0.8424(3)
H11 H 0.0777 0.2939 0.8516
H12 H 0.1119 0.3489 0.8058
C3 C 0.1180(2) 0.4270(9) 0.9234(4)
H13 H 0.0988 0.4632 0.9624
H14 H 0.1365 0.5151 0.9134
C4 C 0.1444(2) 0.2869(9) 0.9636(4)
H15 H 0.1343 0.1878 0.9365
H16 H 0.1737 0.3009 0.9546
N3 N 0.1412(2) 0.2787(8) 1.0556(4)
H17 H 0.1566 0.1973 1.0783
H18 H 0.1144 0.2646 1.0637
H19 H 0.1508 0.3692 1.0804
N4 N 0.3337(2) 0.8401(9) 0.9660(4)
H20 H 0.3191 0.7599 0.9398
H21 H 0.3514 0.8795 0.9320
H22 H 0.3160 0.9163 0.9783
C5 C 0.3574(3) 0.7824(10) 1.0441(5)
H23 H 0.3763 0.6979 1.0305
H24 H 0.3381 0.7377 1.0806
C6 C 0.3830(3) 0.9141(10) 1.0916(5)
H25 H 0.3975 0.9750 1.0518
H26 H 0.3641 0.9860 1.1169
N5 N 0.41414(19) 0.8479(8) 1.1591(4)
H27 H 0.4246 0.7572 1.1396
H28 H 0.4007 0.8218 1.2040
C7 C 0.4501(4) 0.9547(16) 1.1897(6)
H29 H 0.4753 0.8889 1.1942
H30 H 0.4526 1.0303 1.1441
C8 C 0.4525(5) 1.036(2) 1.2581(6)
H31 H 0.4336 1.1261 1.2460
H32 H 0.4809 1.0792 1.2670
N6 N 0.4441(2) 0.9736(9) 1.3387(4)
H33 H 0.4477 1.0504 1.3779
H34 H 0.4618 0.8937 1.3539
H35 H 0.4177 0.9381 1.3344
N7 N 0.65729(18) -0.3578(7) 0.7999(4)
H36 H 0.6387 -0.3788 0.8361
H37 H 0.6441 -0.3124 0.7531
H38 H 0.6770 -0.2917 0.8244
C9 C 0.6772(3) -0.5068(9) 0.7768(5)
H39 H 0.6555 -0.5793 0.7512
H40 H 0.6911 -0.5570 0.8281
C10 C 0.7086(4) -0.4791(17) 0.7161(7)
N8 N 0.7474(4) -0.416(3) 0.7332(9)
C11 C 0.7763(10) -0.556(4) 0.673(2)
C12 C 0.8130(9) -0.5397(19) 0.686(2)
N9 N 0.8319(2) -0.6704(9) 0.6464(5)
H41 H 0.8598 -0.6614 0.6553
H42 H 0.8234 -0.6692 0.5905
H43 H 0.8241 -0.7619 0.6685
loop_
_geom_bond_atom_site_label_1
_geom_bond_atom_site_label_2
_geom_bond_site_symmetry_1
_geom_bond_site_symmetry_2
Zn1 O4 1_555 1_555
Zn2 O3 1_555 1_555
Zn3 O7 1_555 1_555
Zn4 O10 1_555 1_555
Zn5 O19 1_555 1_555
Zn6 O11 1_555 1_555
P1 O1 1_555 1_555
P2 O18 1_555 1_555
P3 O6 1_555 1_555
P4 O3 1_555 1_555
P5 O4 1_555 1_555
P6 O2 1_555 1_555
P7 O5 1_555 1_555
P8 O8 1_555 1_555
O1 Zn4C 1_555 1_555
O6 H1 1_555 1_555
O7 P1 1_555 1_555
O9 P1 1_555 1_555
H2 O9 1_555 1_555
O10 P7 1_555 1_555
O11 P5 1_555 1_555
O12 P4 1_555 1_555
O13 P5 1_555 1_555
O14 Zn3 1_555 1_555
O15 Zn6 1_555 1_555
O16 Zn6 1_555 1_555
O17 Zn4 1_555 1_555
O19 P4 1_555 1_555
O20 Zn3 1_555 1_555
O21 Zn5 1_555 1_555
O22 P3 1_555 1_555
O23 P7 1_555 1_555
O24 Zn1 1_555 1_555
O25 P3 1_555 1_555
O26 Zn5 1_555 1_555
O27 Zn2 1_555 1_555
O28 Zn4 1_555 1_555
O29 Zn5 1_555 1_555
O30 P4 1_555 1_555
H3 O30 1_555 1_555
O31 P2 1_555 1_555
O32 P5 1_555 1_555
N1 H4 1_555 1_555
H5 N1 1_555 1_555
H6 N1 1_555 1_555
C1 N1 1_555 1_555
H7 C1 1_555 1_555
H8 C1 1_555 1_555
C2 C1 1_555 1_555
H9 C2 1_555 1_555
H10 C2 1_555 1_555
N2 C2 1_555 1_555
H11 N2 1_555 1_555
H12 N2 1_555 1_555
C3 N2 1_555 1_555
H13 C3 1_555 1_555
H14 C3 1_555 1_555
C4 C3 1_555 1_555
H15 C4 1_555 1_555
H16 C4 1_555 1_555
N3 C4 1_555 1_555
H17 N3 1_555 1_555
H18 N3 1_555 1_555
H19 N3 1_555 1_555
N4 H20 1_555 1_555
H21 N4 1_555 1_555
H22 N4 1_555 1_555
C5 N4 1_555 1_555
H23 C5 1_555 1_555
H24 C5 1_555 1_555
C6 C5 1_555 1_555
H25 C6 1_555 1_555
H26 C6 1_555 1_555
N5 C6 1_555 1_555
H27 N5 1_555 1_555
H28 N5 1_555 1_555
C7 N5 1_555 1_555
H29 C7 1_555 1_555
H30 C7 1_555 1_555
C8 C7 1_555 1_555
H31 C8 1_555 1_555
H32 C8 1_555 1_555
N6 C8 1_555 1_555
H33 N6 1_555 1_555
H34 N6 1_555 1_555
H35 N6 1_555 1_555
N7 H36 1_555 1_555
H37 N7 1_555 1_555
H38 N7 1_555 1_555
C9 N7 1_555 1_555
H39 C9 1_555 1_555
H40 C9 1_555 1_555
C10 C9 1_555 1_555
N8 C10 1_555 1_555
C11 N8 1_555 1_555
C12 C11 1_555 1_555
N9 C12 1_555 1_555
H41 N9 1_555 1_555
H42 N9 1_555 1_555
H43 N9 1_555 1_555
Zn1B O13 1_555 1_555
Zn1B_2 O25 1_555 1_555
Zn2B O12 1_555 1_555
Zn2B_2 O31 1_555 1_555
Zn3C O23 1_555 1_555
Zn6B O22 1_555 1_555
O1C Zn4 1_555 1_555
O12B Zn2 1_555 1_555
O13B Zn1 1_555 1_555
O22B Zn6 1_555 1_555
O23C Zn3 1_555 1_555
O25B Zn1 1_555 1_555
O31B Zn2 1_555 1_555
P1 O29 1_555 1_555
P2 O26 1_555 1_555
P2 O27 1_555 1_555
P3 O24 1_555 1_555
P6 O14 1_555 1_555
P6 O17 1_555 1_555
P6 O21 1_555 1_555
P7 O15 1_555 1_555
P8 O16 1_555 1_555
P8 O20 1_555 1_555
P8 O28 1_555 1_555

#END
