
#######################################################################
#
#                 Cambridge Crystallographic Data Centre
#                                CCDC 
#
#######################################################################
#
# If this CIF has been generated from an entry in the Cambridge 
# Structural Database, then it will include bibliographic, chemical, 
# crystal, experimental, refinement or atomic coordinate data resulting 
# from the CCDC's data processing and validation procedures.
#
#######################################################################

data_IWAHIZ
_chemical_formula_moiety         '(C8 H23 Al6 N2 O29 P7)n'
_symmetry_cell_setting           triclinic
_symmetry_space_group_name_H-M   'P -1'
_symmetry_Int_Tables_number      2
_space_group_name_Hall           '-P 1'
loop_
_symmetry_equiv_pos_site_id
_symmetry_equiv_pos_as_xyz
1 x,y,z
2 -x,-y,-z
_cell_length_a                   9.0642(8)
_cell_length_b                   9.4507(3)
_cell_length_c                   19.8580(4)
_cell_angle_alpha                89.346(3)
_cell_angle_beta                 79.495(5)
_cell_angle_gamma                86.028(2)
_cell_volume                     1668.57
loop_
_atom_site_label
_atom_site_type_symbol
_atom_site_fract_x
_atom_site_fract_y
_atom_site_fract_z
Al1 Al -0.26781(13) 0.60809(13) 0.50734(6)
Al2 Al -0.15014(13) 0.17980(13) 0.54609(6)
Al3 Al 0.15234(14) 0.34285(13) 0.29298(6)
Al4 Al 0.29532(14) 0.56018(13) 0.09902(6)
Al5 Al 0.72431(14) 0.37902(14) 0.11011(6)
Al6 Al 1.15960(14) 0.13616(13) 0.02662(6)
P1 P -0.44920(12) 0.34872(11) 0.56690(5)
P2 P 0.13101(12) 0.14563(11) 0.42498(5)
P3 P 0.02963(12) 0.55824(11) 0.40146(5)
P4 P 0.04195(12) 0.33533(11) 0.15391(5)
P5 P 0.44772(12) 0.44925(12) 0.21966(5)
P6 P 0.61995(12) 0.64291(11) 0.03069(5)
P7 P 0.84301(12) 0.18807(11) -0.02035(5)
O1 O -0.4564(4) 0.3060(3) 0.64274(15)
H1 H -0.4865 0.3750 0.6673
O2 O -0.5942(3) 0.3155(3) 0.54395(15)
O3 O -0.4120(3) 0.5036(3) 0.55588(15)
O4 O -0.3188(3) 0.2513(3) 0.52618(16)
O5 O -0.1391(3) 0.5568(3) 0.42867(14)
O6 O -0.0287(3) 0.1618(3) 0.46694(15)
O7 O 0.1776(3) -0.0136(3) 0.41586(15)
O8 O 0.2444(3) 0.2150(3) 0.46042(15)
O9 O 0.1256(3) 0.2053(3) 0.35314(14)
O10 O 0.1258(3) 0.4677(3) 0.44240(15)
O11 O 0.0724(3) 0.7151(3) 0.39912(15)
O12 O 0.0597(3) 0.5039(3) 0.32656(14)
O13 O 0.0615(4) 0.2933(3) 0.22725(15)
O14 O 0.1004(4) 0.2050(3) 0.10864(15)
O15 O 0.1199(4) 0.4661(3) 0.12930(18)
O16 O 0.3466(3) 0.3486(3) 0.26695(16)
O17 O 0.5386(4) 0.5321(4) 0.26008(17)
O18 O 0.3447(4) 0.5448(3) 0.18262(15)
O19 O 0.5567(3) 0.3519(3) 0.16731(15)
O20 O 0.4607(3) 0.6684(3) 0.06912(16)
O21 O 0.6268(4) 0.5796(3) -0.04020(15)
O22 O 0.6898(3) 0.7878(3) 0.02310(15)
O23 O 0.7163(4) 0.5447(3) 0.07174(17)
O24 O -0.1287(3) 0.3616(3) 0.15590(16)
O25 O 0.7561(4) 0.2429(3) 0.04891(16)
O26 O 0.7870(3) 0.0437(3) -0.03466(16)
O27 O 0.8260(3) 0.2921(3) -0.07777(15)
O28 O 1.0115(3) 0.1635(3) -0.01832(16)
Al1A Al -0.73219(13) 0.39191(13) 0.49266(6)
Al1A_2 Al 0.26781(13) 0.39191(13) 0.49266(6)
Al2A Al 0.15014(13) -0.17980(13) 0.45391(6)
Al2A_2 Al 0.15014(13) 0.82020(13) 0.45391(6)
Al4A Al 0.70468(14) 0.43982(13) -0.09902(6)
Al5_2 Al -0.27569(14) 0.37902(14) 0.11011(6)
Al6_2 Al 0.15960(14) 0.13616(13) 0.02662(6)
Al6A Al 0.84040(14) -0.13616(13) -0.02662(6)
Al6A_2 Al 0.84040(14) 0.86384(13) -0.02662(6)
O2A O -0.4058(3) 0.6845(3) 0.45605(15)
O7A O -0.1776(3) 0.0136(3) 0.58414(15)
O8A O -0.2444(3) 0.7850(3) 0.53958(15)
O10A O -0.1258(3) 0.5323(3) 0.55760(15)
O11A O -0.0724(3) 0.2849(3) 0.60088(15)
O14_2 O 1.1004(4) 0.2050(3) 0.10864(15)
O21A O 0.3732(4) 0.4204(3) 0.04020(15)
O22A O 1.3102(3) 0.2122(3) -0.02310(15)
O24_2 O 0.8713(3) 0.3616(3) 0.15590(16)
O26A O 1.2130(3) -0.0437(3) 0.03466(16)
O27A O 0.1740(3) 0.7079(3) 0.07777(15)
C1 C 0.7456(8) 0.0995(7) 0.2528(3)
H2 H 0.8404 0.1425 0.2509
H3 H 0.6811 0.1640 0.2309
C2 C 0.7750(8) -0.0384(7) 0.2124(3)
H4 H 0.6793 -0.0735 0.2078
H5 H 0.8288 -0.0189 0.1667
C3 C 0.7665(7) -0.0308(7) 0.3567(3)
H6 H 0.8641 0.0038 0.3584
H7 H 0.7179 -0.0491 0.4034
C4 C 0.7889(7) -0.1670(7) 0.3173(3)
H8 H 0.6921 -0.2059 0.3190
H9 H 0.8508 -0.2343 0.3392
C5 C 0.6708(9) 0.2240(8) 0.3606(4)
H10 H 0.7719 0.2502 0.3587
H11 H 0.6216 0.2182 0.4076
H12 H 0.6170 0.2942 0.3373
C6 C 0.5130(7) 0.0446(7) 0.3307(4)
H13 H 0.5122 -0.0453 0.3089
H14 H 0.4595 0.1161 0.3080
H15 H 0.4652 0.0389 0.3779
C7 C 1.0275(7) -0.1187(9) 0.2394(4)
H16 H 1.0327 -0.0299 0.2616
H17 H 1.0753 -0.1134 0.1922
H18 H 1.0778 -0.1931 0.2617
C8 C 0.8611(8) -0.2914(7) 0.2081(4)
H19 H 0.7591 -0.3151 0.2102
H20 H 0.9138 -0.3638 0.2307
H21 H 0.9097 -0.2848 0.1611
N1 N 0.6735(5) 0.0828(5) 0.3267(2)
N2 N 0.8623(5) -0.1500(5) 0.2436(2)
O29 O 0.4357(11) 0.8753(11) 0.1921(6)
loop_
_geom_bond_atom_site_label_1
_geom_bond_atom_site_label_2
_geom_bond_site_symmetry_1
_geom_bond_site_symmetry_2
Al1 O3 1_555 1_555
Al2 O4 1_555 1_555
Al3 O9 1_555 1_555
Al4 O15 1_555 1_555
Al5 O19 1_555 1_555
Al6 O28 1_555 1_555
P1 O1 1_555 1_555
P2 O6 1_555 1_555
P3 O5 1_555 1_555
P4 O13 1_555 1_555
P5 O16 1_555 1_555
P6 O20 1_555 1_555
P7 O25 1_555 1_555
O1 H1 1_555 1_555
O2 P1 1_555 1_555
O3 P1 1_555 1_555
O4 P1 1_555 1_555
O5 Al1 1_555 1_555
O6 Al2 1_555 1_555
O7 P2 1_555 1_555
O8 P2 1_555 1_555
O9 P2 1_555 1_555
O10 P3 1_555 1_555
O11 P3 1_555 1_555
O12 Al3 1_555 1_555
O13 Al3 1_555 1_555
O14 P4 1_555 1_555
O15 P4 1_555 1_555
O16 Al3 1_555 1_555
O17 P5 1_555 1_555
O18 Al4 1_555 1_555
O19 P5 1_555 1_555
O20 Al4 1_555 1_555
O21 P6 1_555 1_555
O22 P6 1_555 1_555
O23 Al5 1_555 1_555
O24 P4 1_555 1_555
O25 Al5 1_555 1_555
O26 P7 1_555 1_555
O27 P7 1_555 1_555
O28 P7 1_555 1_555
C1 H2 1_555 1_555
H3 C1 1_555 1_555
C2 C1 1_555 1_555
H4 C2 1_555 1_555
H5 C2 1_555 1_555
C3 H6 1_555 1_555
H7 C3 1_555 1_555
C4 C3 1_555 1_555
H8 C4 1_555 1_555
H9 C4 1_555 1_555
C5 H10 1_555 1_555
H11 C5 1_555 1_555
H12 C5 1_555 1_555
C6 H13 1_555 1_555
H14 C6 1_555 1_555
H15 C6 1_555 1_555
C7 H16 1_555 1_555
H17 C7 1_555 1_555
H18 C7 1_555 1_555
C8 H19 1_555 1_555
H20 C8 1_555 1_555
H21 C8 1_555 1_555
N1 C1 1_555 1_555
N2 C2 1_555 1_555
Al1A O2 1_555 1_555
Al1A_2 O8 1_555 1_555
Al2A O7 1_555 1_555
Al2A_2 O11 1_555 1_555
Al4A O21 1_555 1_555
Al5_2 O24 1_555 1_555
Al6_2 O14 1_555 1_555
Al6A O26 1_555 1_555
Al6A_2 O22 1_555 1_555
O2A Al1 1_555 1_555
O7A Al2 1_555 1_555
O8A Al1 1_555 1_555
O10A Al1 1_555 1_555
O11A Al2 1_555 1_555
O14_2 Al6 1_555 1_555
O21A Al4 1_555 1_555
O22A Al6 1_555 1_555
O24_2 Al5 1_555 1_555
O26A Al6 1_555 1_555
O27A Al4 1_555 1_555
P3 O12 1_555 1_555
P5 O18 1_555 1_555
P6 O23 1_555 1_555
O10 Al1A_2 1_555 1_555
O27 Al4A 1_555 1_555
C3 N1 1_555 1_555
C4 N2 1_555 1_555
C5 N1 1_555 1_555
C6 N1 1_555 1_555
C7 N2 1_555 1_555
C8 N2 1_555 1_555

#END
