
#######################################################################
#
#                 Cambridge Crystallographic Data Centre
#                                CCDC 
#
#######################################################################
#
# If this CIF has been generated from an entry in the Cambridge 
# Structural Database, then it will include bibliographic, chemical, 
# crystal, experimental, refinement or atomic coordinate data resulting 
# from the CCDC's data processing and validation procedures.
#
#######################################################################

data_IGUCEU
_chemical_formula_moiety         'C51 H48 Gd11 N42'
_symmetry_cell_setting           monoclinic
_symmetry_space_group_name_H-M   'C 2/c'
_symmetry_Int_Tables_number      15
_space_group_name_Hall           '-C 2yc'
loop_
_symmetry_equiv_pos_site_id
_symmetry_equiv_pos_as_xyz
1 x,y,z
2 -x,y,1/2-z
3 1/2+x,1/2+y,z
4 1/2-x,1/2+y,1/2-z
5 -x,-y,-z
6 x,-y,1/2+z
7 1/2-x,1/2-y,-z
8 1/2+x,1/2-y,1/2+z
_cell_length_a                   23.518(5)
_cell_length_b                   13.291(3)
_cell_length_c                   22.581(5)
_cell_angle_alpha                90
_cell_angle_beta                 106.66(3)
_cell_angle_gamma                90
_cell_volume                     6762.03
loop_
_atom_site_label
_atom_site_type_symbol
_atom_site_fract_x
_atom_site_fract_y
_atom_site_fract_z
C25 C 0.4840(9) 0.6249(16) 0.5505(11)
H23 H 0.4543 0.5762 0.5500
N17 N 0.5270(8) 0.6581(14) 0.6016(10)
C26 C 0.5638(10) 0.7113(19) 0.5800(12)
H24 H 0.5999 0.7410 0.6036
C27 C 0.5391(9) 0.7160(17) 0.5144(11)
H25 H 0.5572 0.7467 0.4863
N18 N 0.4917(7) 0.6747(13) 0.5006(9)
H26 H 0.4658 0.6764 0.4638
Gd1 Gd 0.242041(12) 0.60648(2) 0.293516(15)
Gd2 Gd 0.5000 0.79527(3) 0.2500
Gd3 Gd 0.2500 0.7500 0.0000
N1 N 0.2755(3) 0.4362(4) 0.2766(3)
N2 N 0.2810(3) 0.2823(4) 0.2375(3)
N3 N 0.3432(2) 0.6724(4) 0.3161(3)
N4 N 0.4245(2) 0.7411(5) 0.3006(3)
N5 N 0.1448(3) 0.5294(5) 0.2523(3)
N6 N 0.0613(3) 0.4453(5) 0.2483(3)
N7 N 0.2848(3) 0.5313(5) 0.3978(3)
N8 N 0.2844(3) 0.4013(5) 0.4612(3)
N9 N 0.2400(3) 0.6067(4) 0.1818(3)
N10 N 0.2360(3) 0.6514(5) 0.0847(3)
N11 N 0.1845(3) 0.6760(5) 0.3635(4)
N12 N 0.1221(4) 0.7111(8) 0.4124(5)
H1 H 0.0907 0.7066 0.4260
N13 N 0.4320(2) 0.7925(5) 0.1445(3)
N14 N 0.3492(2) 0.7847(5) 0.0646(3)
C1 C 0.2464(3) 0.3555(5) 0.2493(4)
H2 H 0.2044 0.3498 0.2389
C2 C 0.3355(4) 0.3192(6) 0.2607(5)
H3 H 0.3711 0.2865 0.2599
C3 C 0.3793(3) 0.6791(5) 0.2810(4)
H4 H 0.3731 0.6416 0.2439
C4 C 0.3653(3) 0.7416(7) 0.3613(4)
H5 H 0.3492 0.7570 0.3944
C5 C 0.4140(3) 0.7849(6) 0.3513(4)
H6 H 0.4370 0.8370 0.3756
C6 C 0.1192(3) 0.4538(5) 0.2730(4)
H7 H 0.1412 0.4085 0.3037
C7 C 0.0993(4) 0.5721(6) 0.2096(4)
H8 H 0.1023 0.6274 0.1839
C8 C 0.0486(4) 0.5239(6) 0.2089(4)
H9 H 0.0099 0.5424 0.1844
C9 C 0.2549(3) 0.4608(6) 0.4159(4)
H10 H 0.2135 0.4526 0.3972
C10 C 0.3319(4) 0.4118(6) 0.2861(5)
H11 H 0.3648 0.4521 0.3072
C11 C 0.3383(4) 0.4440(8) 0.4746(5)
H12 H 0.3720 0.4215 0.5062
C12 C 0.2642(8) 0.5573(10) 0.0970(7)
H13 H 0.2770 0.5181 0.0680
C13 C 0.2703(7) 0.5312(8) 0.1568(7)
H14 H 0.2907 0.4741 0.1779
C14 C 0.2043(5) 0.7552(8) 0.4017(5)
H15 H 0.2400 0.7904 0.4040
C15 C 0.1323(4) 0.6538(9) 0.3659(6)
H16 H 0.1057 0.6069 0.3405
C16 C 0.3383(4) 0.5227(7) 0.4376(5)
H17 H 0.3712 0.5653 0.4395
C17 C 0.4963(8) 0.5632(15) 0.1773(12)
N15 N 0.4969(14) 0.6083(10) 0.2346(9)
C18 C 0.5115(10) 0.5402(15) 0.2854(12)
C19 C 0.5202(8) 0.4471(13) 0.2622(12)
N16 N 0.5096(8) 0.4640(12) 0.1952(9)
C20 C 0.2315(3) 0.6775(5) 0.1404(3)
H18 H 0.2225 0.7445 0.1493
C21 C 0.1692(5) 0.7776(8) 0.4349(5)
H19 H 0.1743 0.8269 0.4664
C22 C 0.3811(3) 0.7465(6) 0.1186(3)
H20 H 0.3681 0.6902 0.1371
C23 C 0.4330(3) 0.8681(7) 0.1029(4)
H21 H 0.4640 0.9157 0.1072
C24 C 0.3829(3) 0.8639(7) 0.0554(4)
H22 H 0.3727 0.9086 0.0211
C17A C 0.5037(8) 0.5632(15) 0.3227(12)
N15A N 0.5031(14) 0.6083(10) 0.2654(9)
C18A C 0.4885(10) 0.5402(15) 0.2146(12)
C19A C 0.4798(8) 0.4471(13) 0.2378(12)
N16A N 0.4904(8) 0.4640(12) 0.3048(9)
Gd1A Gd 0.757959(12) 0.60648(2) 0.206484(15)
N1A N 0.7245(3) 0.4362(4) 0.2234(3)
N2A N 0.7190(3) 0.2823(4) 0.2625(3)
N3A N 0.6568(2) 0.6724(4) 0.1839(3)
N4A N 0.5755(2) 0.7411(5) 0.1994(3)
N5A N 0.8552(3) 0.5294(5) 0.2477(3)
N6A N 0.9387(3) 0.4453(5) 0.2517(3)
N7A N 0.7152(3) 0.5313(5) 0.1022(3)
N8A N 0.7156(3) 0.4013(5) 0.0388(3)
N9A N 0.7600(3) 0.6067(4) 0.3182(3)
N10A N 0.7640(3) 0.6514(5) 0.4153(3)
N11A N 0.8155(3) 0.6760(5) 0.1365(4)
N12A N 0.8779(4) 0.7111(8) 0.0876(5)
H1A H 0.9093 0.7066 0.0740
N13A N 0.5680(2) 0.7925(5) 0.3555(3)
N14A N 0.6508(2) 0.7847(5) 0.4354(3)
C1A C 0.7536(3) 0.3555(5) 0.2507(4)
H2A H 0.7956 0.3498 0.2611
C2A C 0.6645(4) 0.3192(6) 0.2393(5)
H3A H 0.6289 0.2865 0.2401
C3A C 0.6207(3) 0.6791(5) 0.2190(4)
H4A H 0.6269 0.6416 0.2561
C4A C 0.6347(3) 0.7416(7) 0.1387(4)
H5A H 0.6508 0.7570 0.1056
C5A C 0.5860(3) 0.7849(6) 0.1487(4)
H6A H 0.5630 0.8370 0.1244
C6A C 0.8808(3) 0.4538(5) 0.2270(4)
H7A H 0.8588 0.4085 0.1963
C7A C 0.9007(4) 0.5721(6) 0.2904(4)
H8A H 0.8977 0.6274 0.3161
C8A C 0.9514(4) 0.5239(6) 0.2911(4)
H9A H 0.9901 0.5424 0.3156
C9A C 0.7451(3) 0.4608(6) 0.0841(4)
H10A H 0.7865 0.4526 0.1028
C10A C 0.6681(4) 0.4118(6) 0.2139(5)
H11A H 0.6352 0.4521 0.1928
C11A C 0.6617(4) 0.4440(8) 0.0254(5)
H12A H 0.6280 0.4215 -0.0062
C12A C 0.7358(8) 0.5573(10) 0.4030(7)
H13A H 0.7230 0.5181 0.4320
C13A C 0.7297(7) 0.5312(8) 0.3432(7)
H14A H 0.7093 0.4741 0.3221
C14A C 0.7957(5) 0.7552(8) 0.0983(5)
H15A H 0.7600 0.7904 0.0960
C15A C 0.8677(4) 0.6538(9) 0.1341(6)
H16A H 0.8943 0.6069 0.1595
C16A C 0.6617(4) 0.5227(7) 0.0624(5)
H17A H 0.6288 0.5653 0.0605
C20A C 0.7685(3) 0.6775(5) 0.3596(3)
H18A H 0.7775 0.7445 0.3507
C21A C 0.8308(5) 0.7776(8) 0.0651(5)
H19A H 0.8257 0.8269 0.0336
C22A C 0.6189(3) 0.7465(6) 0.3814(3)
H20A H 0.6319 0.6902 0.3629
C23A C 0.5670(3) 0.8681(7) 0.3971(4)
H21A H 0.5360 0.9157 0.3928
C24A C 0.6171(3) 0.8639(7) 0.4446(4)
H22A H 0.6273 0.9086 0.4789
Gd1B Gd 0.742041(12) 0.10648(2) 0.293516(15)
Gd1C Gd 0.257959(12) 0.10648(2) 0.206484(15)
Gd2B Gd -0.0000 0.29527(3) 0.2500
Gd2B_2 Gd 1.0000 0.29527(3) 0.2500
Gd3A Gd 0.7500 0.7500 0.5000
Gd3B Gd 0.7500 0.2500 0.0000
Gd3C Gd 0.2500 0.2500 0.5000
N2B N 0.7810(3) 0.7823(4) 0.2375(3)
N2C N 0.2190(3) 0.7823(4) 0.2625(3)
N6B N 0.5613(3) 0.9453(5) 0.2483(3)
N6C N 0.4387(3) 0.9453(5) 0.2517(3)
N8C N 0.2156(3) 0.9013(5) 0.0388(3)
N8E N 0.2844(3) 0.5987(5) -0.0388(3)
N10F N 0.2640(3) 0.8486(5) -0.0847(3)
N14F N 0.1508(2) 0.7153(5) -0.0646(3)
loop_
_geom_bond_atom_site_label_1
_geom_bond_atom_site_label_2
_geom_bond_site_symmetry_1
_geom_bond_site_symmetry_2
Gd1 N1 1_555 1_555
Gd2 N4 1_555 1_555
Gd3 N10 1_555 1_555
N1 C1 1_555 1_555
N2 C1 1_555 1_555
N3 Gd1 1_555 1_555
N4 C3 1_555 1_555
N5 Gd1 1_555 1_555
N6 C6 1_555 1_555
N7 Gd1 1_555 1_555
N8 C9 1_555 1_555
N9 Gd1 1_555 1_555
N10 C12 1_555 1_555
N11 Gd1 1_555 1_555
N12 H1 1_555 1_555
N13 Gd2 1_555 1_555
N14 Gd3 1_555 1_555
C1 H2 1_555 1_555
C2 N2 1_555 1_555
H3 C2 1_555 1_555
C3 N3 1_555 1_555
H4 C3 1_555 1_555
C4 N3 1_555 1_555
H5 C4 1_555 1_555
C5 N4 1_555 1_555
H6 C5 1_555 1_555
C6 N5 1_555 1_555
H7 C6 1_555 1_555
C7 N5 1_555 1_555
H8 C7 1_555 1_555
C8 N6 1_555 1_555
H9 C8 1_555 1_555
C9 N7 1_555 1_555
H10 C9 1_555 1_555
C10 N1 1_555 1_555
H11 C10 1_555 1_555
C11 N8 1_555 1_555
H12 C11 1_555 1_555
C12 H13 1_555 1_555
C13 N9 1_555 1_555
H14 C13 1_555 1_555
C14 N11 1_555 1_555
H15 C14 1_555 1_555
C15 N11 1_555 1_555
H16 C15 1_555 1_555
C16 N7 1_555 1_555
H17 C16 1_555 1_555
C17 N15 1_555 1_555
N15 Gd2 1_555 1_555
C18 C19 1_555 1_555
C19 N16 1_555 1_555
N16 C17 1_555 1_555
C20 N9 1_555 1_555
H18 C20 1_555 1_555
C21 N12 1_555 1_555
H19 C21 1_555 1_555
C22 N13 1_555 1_555
H20 C22 1_555 1_555
C23 N13 1_555 1_555
H21 C23 1_555 1_555
C24 N14 1_555 1_555
H22 C24 1_555 1_555
C25 H23 1_555 1_555
N17 C25 1_555 1_555
C26 N17 1_555 1_555
H24 C26 1_555 1_555
C27 C26 1_555 1_555
H25 C27 1_555 1_555
N18 C25 1_555 1_555
H26 N18 1_555 1_555
C17A C18 1_555 1_555
N15A Gd2 1_555 1_555
C18A C17 1_555 1_555
C19A C18 1_555 1_555
N16A C18 1_555 1_555
Gd1A N1A 1_555 1_555
N1A C1A 1_555 1_555
N2A C1A 1_555 1_555
N3A Gd1A 1_555 1_555
N4A Gd2 1_555 1_555
N5A Gd1A 1_555 1_555
N6A C6A 1_555 1_555
N7A Gd1A 1_555 1_555
N8A C9A 1_555 1_555
N9A Gd1A 1_555 1_555
N10A C12A 1_555 1_555
N11A Gd1A 1_555 1_555
N12A H1A 1_555 1_555
N13A Gd2 1_555 1_555
N14A C22A 1_555 1_555
C1A H2A 1_555 1_555
C2A N2A 1_555 1_555
H3A C2A 1_555 1_555
C3A N3A 1_555 1_555
H4A C3A 1_555 1_555
C4A N3A 1_555 1_555
H5A C4A 1_555 1_555
C5A N4A 1_555 1_555
H6A C5A 1_555 1_555
C6A N5A 1_555 1_555
H7A C6A 1_555 1_555
C7A N5A 1_555 1_555
H8A C7A 1_555 1_555
C8A N6A 1_555 1_555
H9A C8A 1_555 1_555
C9A N7A 1_555 1_555
H10A C9A 1_555 1_555
C10A N1A 1_555 1_555
H11A C10A 1_555 1_555
C11A N8A 1_555 1_555
H12A C11A 1_555 1_555
C12A H13A 1_555 1_555
C13A N9A 1_555 1_555
H14A C13A 1_555 1_555
C14A N11A 1_555 1_555
H15A C14A 1_555 1_555
C15A N11A 1_555 1_555
H16A C15A 1_555 1_555
C16A N7A 1_555 1_555
H17A C16A 1_555 1_555
C20A N9A 1_555 1_555
H18A C20A 1_555 1_555
C21A N12A 1_555 1_555
H19A C21A 1_555 1_555
C22A N13A 1_555 1_555
H20A C22A 1_555 1_555
C23A N13A 1_555 1_555
H21A C23A 1_555 1_555
C24A N14A 1_555 1_555
H22A C24A 1_555 1_555
Gd1B N2A 1_555 1_555
Gd1C N2 1_555 1_555
Gd2B N6 1_555 1_555
Gd2B_2 N6A 1_555 1_555
Gd3A N10A 1_555 1_555
Gd3B N8A 1_555 1_555
Gd3C N8 1_555 1_555
N2B Gd1A 1_555 1_555
N2C Gd1 1_555 1_555
N6B Gd2 1_555 1_555
N6C Gd2 1_555 1_555
N8C Gd3 1_555 1_555
N8E Gd3 1_555 1_555
N10F Gd3 1_555 1_555
N14F Gd3 1_555 1_555
N10 C20 1_555 1_555
N12 C15 1_555 1_555
N14 C22 1_555 1_555
C2 C10 1_555 1_555
C4 C5 1_555 1_555
C7 C8 1_555 1_555
C11 C16 1_555 1_555
C12 C13 1_555 1_555
C14 C21 1_555 1_555
N15 N15A 1_555 1_555
C18 C18A 1_555 1_555
C19 C18A 1_555 1_555
C19 C19A 1_555 1_555
C19 N16A 1_555 1_555
N16 C18A 1_555 1_555
N16 C19A 1_555 1_555
C23 C24 1_555 1_555
C27 N18 1_555 1_555
C17A N15A 1_555 1_555
C17A N16A 1_555 1_555
C18A C19A 1_555 1_555
C19A N16A 1_555 1_555
N4A C3A 1_555 1_555
N10A C20A 1_555 1_555
N12A C15A 1_555 1_555
N14A Gd3A 1_555 1_555
C2A C10A 1_555 1_555
C4A C5A 1_555 1_555
C7A C8A 1_555 1_555
C11A C16A 1_555 1_555
C12A C13A 1_555 1_555
C14A C21A 1_555 1_555
C23A C24A 1_555 1_555

#END
