
#######################################################################
#
#                 Cambridge Crystallographic Data Centre
#                                CCDC 
#
#######################################################################
#
# If this CIF has been generated from an entry in the Cambridge 
# Structural Database, then it will include bibliographic, chemical, 
# crystal, experimental, refinement or atomic coordinate data resulting 
# from the CCDC's data processing and validation procedures.
#
#######################################################################

data_OQERUY
_chemical_formula_moiety         '(C48 H26 Cd3 N4 O9 Pd1)n'
_symmetry_cell_setting           monoclinic
_symmetry_space_group_name_H-M   'C 2/c'
_symmetry_Int_Tables_number      15
_space_group_name_Hall           '-C 2yc'
loop_
_symmetry_equiv_pos_site_id
_symmetry_equiv_pos_as_xyz
1 x,y,z
2 -x,y,1/2-z
3 1/2+x,1/2+y,z
4 1/2-x,1/2+y,1/2-z
5 -x,-y,-z
6 x,-y,1/2+z
7 1/2-x,1/2-y,-z
8 1/2+x,1/2-y,1/2+z
_cell_length_a                   7.2172(15)
_cell_length_b                   25.613(5)
_cell_length_c                   30.660(3)
_cell_angle_alpha                90
_cell_angle_beta                 96.392(13)
_cell_angle_gamma                90
_cell_volume                     5632.4
loop_
_atom_site_label
_atom_site_type_symbol
_atom_site_fract_x
_atom_site_fract_y
_atom_site_fract_z
Cd2 Cd 0.5000 0.4560(2) 0.2500
O1 O 0.3108(15) 0.3831(5) 0.2725(3)
Cd2F Cd -1.0000 0.0440(2) -0.2500
Cd1 Cd 1.0000 0.40505(6) 0.2500
Pd1 Pd -0.2500 0.2500 0.0000
O2 O 0.895(2) 0.3433(5) 0.1945(3)
O3 O -0.642(5) -0.0126(13) 0.2012(11)
O4 O -0.349(5) -0.0451(7) 0.1953(5)
N1 N -0.138(2) 0.2202(5) 0.0592(3)
N2 N -0.0456(17) 0.2985(5) -0.0007(3)
C1 C -0.204(2) 0.1807(7) 0.0810(5)
C2 C -0.084(3) 0.1764(9) 0.1239(5)
H1 H -0.1011 0.1536 0.1468
C3 C 0.046(3) 0.2101(9) 0.1230(5)
H2 H 0.1441 0.2136 0.1452
C4 C 0.024(3) 0.2435(9) 0.0827(5)
C5 C 0.140(3) 0.2806(8) 0.0709(4)
C6 C 0.110(3) 0.3048(7) 0.0318(5)
C7 C 0.226(3) 0.3449(9) 0.0200(6)
H3 H 0.3366 0.3553 0.0361
C8 C 0.149(3) 0.3671(8) -0.0202(5)
H4 H 0.1942 0.3949 -0.0354
C9 C -0.015(3) 0.3365(7) -0.0320(5)
C10 C -0.363(3) 0.1545(7) 0.0709(4)
C11 C 0.291(3) 0.2988(7) 0.1034(5)
C12 C 0.255(3) 0.3275(9) 0.1409(6)
H5 H 0.1338 0.3376 0.1441
C13 C 0.392(3) 0.3404(9) 0.1714(5)
H6 H 0.3633 0.3562 0.1972
C14 C 0.574(3) 0.3308(7) 0.1659(4)
C15 C 0.620(2) 0.3030(7) 0.1299(5)
H7 H 0.7430 0.2954 0.1260
C16 C 0.473(3) 0.2871(7) 0.1000(4)
H8 H 0.5003 0.2672 0.0761
C17 C 0.731(3) 0.3547(8) 0.1982(5)
C18 C -0.403(3) 0.1112(6) 0.0997(4)
C19 C -0.556(2) 0.1119(6) 0.1235(6)
H9 H -0.6392 0.1398 0.1207
C20 C -0.585(2) 0.0708(9) 0.1516(5)
H10 H -0.6877 0.0713 0.1676
C21 C -0.462(3) 0.0291(6) 0.1559(5)
C22 C -0.309(3) 0.0284(6) 0.1320(6)
H11 H -0.2259 0.0005 0.1348
C23 C -0.280(2) 0.0695(8) 0.1039(5)
H12 H -0.1774 0.0690 0.0880
C24 C -0.490(4) -0.0130(11) 0.1893(9)
Cd1B Cd -0.5000 -0.09495(6) 0.2500
Cd1D Cd -0.0000 0.59495(6) -0.2500
Cd1F Cd -1.5000 0.09495(6) -0.2500
O1A O 0.6892(15) 0.3831(5) 0.2275(3)
O1G O -1.1892(15) 0.1169(5) -0.2275(3)
O1_2 O 1.3108(15) 0.3831(5) 0.2725(3)
O2F O -1.395(2) 0.1567(5) -0.1945(3)
O2A O 1.105(2) 0.3433(5) 0.3055(3)
O3F O 0.142(5) 0.5126(13) -0.2012(11)
O3B O 0.858(5) 0.4874(13) 0.2012(11)
O3C O 1.142(5) 0.4874(13) 0.2988(11)
O4F O -0.151(5) 0.5451(7) -0.1953(5)
O4B O 1.151(5) 0.4549(7) 0.1953(5)
O4C O 0.849(5) 0.4549(7) 0.3047(5)
N1F N -0.362(2) 0.2798(5) -0.0592(3)
N2F N -0.4544(17) 0.2015(5) 0.0007(3)
C1F C -0.296(2) 0.3193(7) -0.0810(5)
C2F C -0.416(3) 0.3236(9) -0.1239(5)
H1F H -0.3989 0.3464 -0.1468
C3F C -0.546(3) 0.2899(9) -0.1230(5)
H2F H -0.6441 0.2864 -0.1452
C4F C -0.524(3) 0.2565(9) -0.0827(5)
C5F C -0.640(3) 0.2194(8) -0.0709(4)
C6F C -0.610(3) 0.1952(7) -0.0318(5)
C7F C -0.726(3) 0.1551(9) -0.0200(6)
H3F H -0.8366 0.1447 -0.0361
C8F C -0.649(3) 0.1329(8) 0.0202(5)
H4F H -0.6942 0.1051 0.0354
C9F C -0.485(3) 0.1635(7) 0.0320(5)
C10F C -0.137(3) 0.3455(7) -0.0709(4)
C11F C -0.791(3) 0.2012(7) -0.1034(5)
C12F C -0.755(3) 0.1725(9) -0.1409(6)
H5F H -0.6338 0.1624 -0.1441
C13F C -0.892(3) 0.1596(9) -0.1714(5)
H6F H -0.8633 0.1438 -0.1972
C14F C -1.074(3) 0.1692(7) -0.1659(4)
C15F C -1.120(2) 0.1970(7) -0.1299(5)
H7F H -1.2430 0.2046 -0.1260
C16F C -0.973(3) 0.2129(7) -0.1000(4)
H8F H -1.0003 0.2328 -0.0761
C17F C -1.231(3) 0.1453(8) -0.1982(5)
C18F C -0.097(3) 0.3888(6) -0.0997(4)
C19F C 0.056(2) 0.3881(6) -0.1235(6)
H9F H 0.1392 0.3602 -0.1207
C20F C 0.085(2) 0.4292(9) -0.1516(5)
H10F H 0.1877 0.4287 -0.1676
C21F C -0.038(3) 0.4709(6) -0.1559(5)
C22F C -0.191(3) 0.4716(6) -0.1320(6)
H11F H -0.2741 0.4995 -0.1348
C23F C -0.220(2) 0.4305(8) -0.1039(5)
H12F H -0.3226 0.4310 -0.0880
C24F C -0.010(4) 0.5130(11) -0.1893(9)
loop_
_geom_bond_atom_site_label_1
_geom_bond_atom_site_label_2
_geom_bond_site_symmetry_1
_geom_bond_site_symmetry_2
Cd1 O2 1_555 1_555
Pd1 N1 1_555 1_555
O2 C17 1_555 1_555
O3 C24 1_555 1_555
O4 C24 1_555 1_555
N1 C1 1_555 1_555
N2 Pd1 1_555 1_555
C1 C2 1_555 1_555
C2 H1 1_555 1_555
C3 C2 1_555 1_555
H2 C3 1_555 1_555
C4 N1 1_555 1_555
C5 C4 1_555 1_555
C6 N2 1_555 1_555
C7 C6 1_555 1_555
H3 C7 1_555 1_555
C8 C7 1_555 1_555
H4 C8 1_555 1_555
C9 N2 1_555 1_555
C10 C1 1_555 1_555
C11 C5 1_555 1_555
C12 C11 1_555 1_555
H5 C12 1_555 1_555
C13 C12 1_555 1_555
H6 C13 1_555 1_555
C14 C13 1_555 1_555
C15 C14 1_555 1_555
H7 C15 1_555 1_555
C16 C11 1_555 1_555
H8 C16 1_555 1_555
C17 C14 1_555 1_555
C18 C10 1_555 1_555
C19 C18 1_555 1_555
H9 C19 1_555 1_555
C20 C19 1_555 1_555
H10 C20 1_555 1_555
C21 C20 1_555 1_555
C22 C21 1_555 1_555
H11 C22 1_555 1_555
C23 C18 1_555 1_555
H12 C23 1_555 1_555
C24 C21 1_555 1_555
Cd1B O3 1_555 1_555
Cd1D O3F 1_555 1_555
Cd1F O1G 1_555 1_555
O1A Cd1 1_555 1_555
O1G C17F 1_555 1_555
O1_2 Cd1 1_555 1_555
O2F Cd1F 1_555 1_555
O2A Cd1 1_555 1_555
O3F C24F 1_555 1_555
O3B Cd1 1_555 1_555
O3C Cd1 1_555 1_555
O4F Cd1D 1_555 1_555
O4B Cd1 1_555 1_555
O4C Cd1 1_555 1_555
N1F Pd1 1_555 1_555
N2F Pd1 1_555 1_555
C1F N1F 1_555 1_555
C2F C1F 1_555 1_555
H1F C2F 1_555 1_555
C3F C2F 1_555 1_555
H2F C3F 1_555 1_555
C4F N1F 1_555 1_555
C5F C4F 1_555 1_555
C6F N2F 1_555 1_555
C7F C6F 1_555 1_555
H3F C7F 1_555 1_555
C8F C7F 1_555 1_555
H4F C8F 1_555 1_555
C9F C10 1_555 1_555
C10F C9 1_555 1_555
C11F C5F 1_555 1_555
C12F C11F 1_555 1_555
H5F C12F 1_555 1_555
C13F C12F 1_555 1_555
H6F C13F 1_555 1_555
C14F C13F 1_555 1_555
C15F C14F 1_555 1_555
H7F C15F 1_555 1_555
C16F C11F 1_555 1_555
H8F C16F 1_555 1_555
C17F O2F 1_555 1_555
C18F C10F 1_555 1_555
C19F C18F 1_555 1_555
H9F C19F 1_555 1_555
C20F C19F 1_555 1_555
H10F C20F 1_555 1_555
C21F C20F 1_555 1_555
C22F C21F 1_555 1_555
H11F C22F 1_555 1_555
C23F C18F 1_555 1_555
H12F C23F 1_555 1_555
C24F O4F 1_555 1_555
O4 Cd1B 1_555 1_555
C3 C4 1_555 1_555
C5 C6 1_555 1_555
C8 C9 1_555 1_555
C15 C16 1_555 1_555
C17 O1A 1_555 1_555
C22 C23 1_555 1_555
N2F C9F 1_555 1_555
C1F C10F 1_555 1_555
C3F C4F 1_555 1_555
C5F C6F 1_555 1_555
C8F C9F 1_555 1_555
C14F C17F 1_555 1_555
C15F C16F 1_555 1_555
C21F C24F 1_555 1_555
C22F C23F 1_555 1_555

#END
