
#######################################################################
#
#                 Cambridge Crystallographic Data Centre
#                                CCDC 
#
#######################################################################
#
# If this CIF has been generated from an entry in the Cambridge 
# Structural Database, then it will include bibliographic, chemical, 
# crystal, experimental, refinement or atomic coordinate data resulting 
# from the CCDC's data processing and validation procedures.
#
#######################################################################

data_NUZCER
_chemical_formula_moiety         'C24 H24 N49 Ni15 O19 S12'
_symmetry_cell_setting           rhombohedral
_symmetry_space_group_name_H-M   'R -3 c'
_symmetry_Int_Tables_number      167
_space_group_name_Hall           '-R 3 2"c'
loop_
_symmetry_equiv_pos_site_id
_symmetry_equiv_pos_as_xyz
1 x,y,z
2 -y,x-y,z
3 -x+y,-x,z
4 y,x,1/2-z
5 x-y,-y,1/2-z
6 -x,-x+y,1/2-z
7 2/3+x,1/3+y,1/3+z
8 2/3-y,1/3+x-y,1/3+z
9 2/3-x+y,1/3-x,1/3+z
10 2/3+y,1/3+x,5/6-z
11 2/3+x-y,1/3-y,5/6-z
12 2/3-x,1/3-x+y,5/6-z
13 1/3+x,2/3+y,2/3+z
14 1/3-y,2/3+x-y,2/3+z
15 1/3-x+y,2/3-x,2/3+z
16 1/3+y,2/3+x,1/6-z
17 1/3+x-y,2/3-y,1/6-z
18 1/3-x,2/3-x+y,1/6-z
19 -x,-y,-z
20 y,-x+y,-z
21 x-y,x,-z
22 -y,-x,1/2+z
23 -x+y,y,1/2+z
24 x,x-y,1/2+z
25 1/3-x,2/3-y,2/3-z
26 1/3+y,2/3-x+y,2/3-z
27 1/3+x-y,2/3+x,2/3-z
28 1/3-y,2/3-x,1/6+z
29 1/3-x+y,2/3+y,1/6+z
30 1/3+x,2/3+x-y,1/6+z
31 2/3-x,1/3-y,1/3-z
32 2/3+y,1/3-x+y,1/3-z
33 2/3+x-y,1/3+x,1/3-z
34 2/3-y,1/3-x,5/6+z
35 2/3-x+y,1/3+y,5/6+z
36 2/3+x,1/3+x-y,5/6+z
_cell_length_a                   24.342(3)
_cell_length_b                   24.342(3)
_cell_length_c                   18.303(4)
_cell_angle_alpha                90
_cell_angle_beta                 90
_cell_angle_gamma                120
_cell_volume                     9392.16
loop_
_atom_site_label
_atom_site_type_symbol
_atom_site_fract_x
_atom_site_fract_y
_atom_site_fract_z
O2 O 0.4230(2) 0.7415(2) 0.7760(2)
O3 O 0.3333 0.6667 0.6667
Ni1 Ni 0.410430(25) 0.373122(18) 1.164134(19)
S1 S 0.43445(6) 0.51856(4) 1.00768(4)
S2 S 0.51633(6) 0.60489(4) 1.13440(4)
O4 O 0.42075(15) 0.46167(10) 1.15930(12)
O5 O 0.40719(10) 0.48977(15) 1.27229(12)
N1 N 0.54303(17) 0.61819(12) 0.99363(14)
N2 N 0.52426(17) 0.59326(12) 0.92396(13)
C1 C 0.42079(21) 0.49917(15) 1.20560(17)
C2 C 0.43910(21) 0.56586(15) 1.17674(16)
H1 H 0.4388 0.5916 1.2170
H2 H 0.4077 0.5620 1.1414
C3 C 0.50099(21) 0.58419(15) 1.04281(16)
C4 C 0.46875(21) 0.54255(15) 0.92347(16)
H3 H 0.4492 0.5209 0.8807
N3 N 0.34753(14) 0.34749(14) 1.2500
N4 N 0.33998(15) 0.3333 1.0833
N5 N 0.2986 0.29853(19) 1.2500
N6 N 0.2840(3) 0.3060(3) 1.1012(3)
N7 N 0.2584(3) 0.2453(3) 1.2707(4)
N8 N 0.2310(3) 0.2817(4) 1.1171(4)
Ni1C Ni 0.373122(18) 0.410430(25) 1.335866(19)
Ni1BA Ni 0.296025(31) 0.039789(18) 1.330801(19)
Ni1R Ni 0.589570(25) 0.626878(18) 0.835866(19)
Ni1Z Ni 0.370641(31) 0.077097(25) 1.502533(19)
Ni1U Ni 0.626878(18) 0.589570(25) 0.664134(19)
Ni1HA Ni 0.629359(31) 0.706455(18) 0.997467(19)
Ni1P Ni 0.370641(31) 0.293545(18) 1.002533(19)
Ni1Y Ni 0.706455(18) 0.629359(31) 1.502533(19)
Ni1U_2 Ni 0.626878(18) 0.589570(25) 1.664134(19)
Ni1EA Ni 0.039789(18) 0.296025(31) 1.169199(19)
Ni1IA Ni 0.077097(25) 0.370641(31) 0.997467(19)
Ni1G Ni 0.293545(18) 0.370641(31) 1.497467(19)
Ni1R_2 Ni 0.589570(25) 0.626878(18) 1.835866(19)
Ni1DA Ni 0.256237(25) -0.039789(18) 1.169199(19)
S1C S 0.51856(4) 0.43445(6) 1.49232(4)
S1BA S 0.41744(7) 0.18523(4) 1.17435(4)
S1R S 0.56555(6) 0.48144(4) 0.99232(4)
S1EA S 0.18523(4) 0.41744(7) 1.32565(4)
S1U S 0.48144(4) 0.56555(6) 1.50768(4)
S2C S 0.60489(4) 0.51633(6) 1.36560(4)
S2BA S 0.42189(7) 0.27156(4) 1.30107(4)
S2R S 0.48367(6) 0.39511(4) 0.86560(4)
S2EA S 0.27156(4) 0.42189(7) 1.19893(4)
S2U S 0.39511(4) 0.48367(6) 1.63440(4)
O4C O 0.46167(10) 0.42075(15) 1.34070(12)
O4BA O 0.37425(18) 0.12834(10) 1.32597(12)
O4R O 0.57925(15) 0.53833(10) 0.84070(12)
O4EA O 0.12834(10) 0.37425(18) 1.17403(12)
O4U O 0.53833(10) 0.57925(15) 1.65930(12)
O4Z O 0.29241(18) 0.08742(15) 1.50737(12)
O4U_2 O 0.53833(10) 0.57925(15) 0.65930(12)
O5C O 0.48977(15) 0.40719(10) 1.22771(12)
O5BA O 0.41591(18) 0.15644(15) 1.43896(12)
O5R O 0.59281(10) 0.51023(15) 0.72771(12)
O5EA O 0.15644(15) 0.41591(18) 1.06104(12)
O5U O 0.51023(15) 0.59281(10) 1.77229(12)
O5Z O 0.25075(18) 0.07386(10) 1.39438(12)
O5U_2 O 0.51023(15) 0.59281(10) 0.77229(12)
N1C N 0.61819(12) 0.54303(17) 1.50637(14)
N1BA N 0.40849(21) 0.28486(12) 1.16030(14)
N1R N 0.45697(17) 0.38181(12) 1.00637(14)
N1EA N 0.28486(12) 0.40849(21) 1.33970(14)
N1U N 0.38181(12) 0.45697(17) 1.49363(14)
N1F N 0.20970(17) -0.04848(12) 1.32696(14)
N1J N 0.59151(21) 0.71514(12) 0.83970(14)
N1E N 0.45697(17) 0.07516(21) 1.50637(14)
N1M N 0.71514(12) 0.59151(21) 0.66030(14)
N2C N 0.59326(12) 0.52426(17) 1.57604(13)
N2BA N 0.40233(21) 0.25993(12) 1.09063(13)
N2R N 0.47574(17) 0.40674(12) 1.07604(13)
N2EA N 0.25993(12) 0.40233(21) 1.40937(13)
N2U N 0.40674(12) 0.47574(17) 1.42396(13)
N2P N 0.26433(21) 0.07341(12) 1.24271(13)
N2N N 0.40233(21) 0.14241(17) 1.59063(13)
N2C_2 N 0.59326(12) 0.52426(17) 0.57604(13)
C1C C 0.49917(15) 0.42079(21) 1.29440(17)
C1BA C 0.41171(26) 0.16584(15) 1.37227(17)
C1R C 0.57921(21) 0.50083(15) 0.79440(17)
C1EA C 0.16584(15) 0.41171(26) 1.12773(17)
C1U C 0.50083(15) 0.57921(21) 1.70560(17)
C2C C 0.56586(15) 0.43910(21) 1.32326(16)
C2BA C 0.46009(26) 0.23253(15) 1.34341(16)
C2R C 0.56090(21) 0.43414(15) 0.82326(16)
C2EA C 0.23253(15) 0.46009(26) 1.15659(16)
C2U C 0.43414(15) 0.56090(21) 1.67674(16)
H1C H 0.5916 0.4388 1.2830
H1BA H 0.4861 0.2583 1.3837
H1R H 0.5612 0.4084 0.7830
H1EA H 0.2583 0.4861 1.1163
H1U H 0.4084 0.5612 1.7170
H2C H 0.5620 0.4077 1.3586
H2BA H 0.4876 0.2287 1.3081
H2R H 0.5923 0.4380 0.8586
H2EA H 0.2287 0.4876 1.1919
H2U H 0.4380 0.5923 1.6414
C3C C 0.58419(15) 0.50099(21) 1.45719(16)
C3BA C 0.41653(26) 0.25086(15) 1.20948(16)
C3R C 0.49901(21) 0.41581(15) 0.95719(16)
C3EA C 0.25086(15) 0.41653(26) 1.29052(16)
C3U C 0.41581(15) 0.49901(21) 1.54281(16)
C4C C 0.54255(15) 0.46875(21) 1.57653(16)
C4BA C 0.40713(26) 0.20922(15) 1.09014(16)
C4R C 0.53125(21) 0.45745(15) 1.07653(16)
C4EA C 0.20922(15) 0.40713(26) 1.40986(16)
C4U C 0.45745(15) 0.53125(21) 1.42347(16)
H3C H 0.5209 0.4492 1.6193
H3BA H 0.4050 0.1876 1.0474
H3R H 0.5508 0.4791 1.1193
H3EA H 0.1876 0.4050 1.4526
H3U H 0.4791 0.5508 1.3807
N3Z N 0.33337(20) 0.01420(14) 1.4167
N3R N 0.65247(14) 0.65251(14) 0.7500
N4C N 0.3333 0.33998(15) 1.4167
N4BA N 0.32665(15) -0.0000 1.2500
N4R N 0.66002(15) 0.6667 0.9167
N4W N 0.33998(15) 0.00668(15) 1.5833
N4U N 0.6667 0.66002(15) 0.5833
N5Z N 0.33340(19) -0.0347 1.4167
N5R N 0.7014 0.70147(19) 0.7500
N6P N 0.3113(4) 0.3607(3) 1.0655(3)
N6C N 0.3060(3) 0.2840(3) 1.3988(3)
N6G N 0.3607(3) 0.3113(4) 1.4345(3)
N6BA N 0.3553(4) -0.0273(3) 1.2679(3)
N6DA N 0.3827(3) 0.0273(3) 1.2321(3)
N7C N 0.2453(3) 0.2584(3) 1.2293(4)
N7BA N 0.3202(4) -0.0880(3) 1.4374(4)
N7Z N 0.3464(4) -0.0749(3) 1.3960(4)
N7R N 0.7416(3) 0.7547(3) 0.7293(4)
N7U N 0.7547(3) 0.7416(3) 0.7707(4)
N8P N 0.2826(5) 0.3850(4) 1.0496(4)
N8C N 0.2817(4) 0.2310(3) 1.3829(4)
N8G N 0.3850(4) 0.2826(5) 1.4504(4)
N8BA N 0.3840(5) -0.0516(4) 1.2838(4)
N8DA N 0.4357(3) 0.0516(4) 1.2162(4)
O1 O 0.45743(15) 0.77050(15) 0.49019(17)
loop_
_geom_bond_atom_site_label_1
_geom_bond_atom_site_label_2
_geom_bond_site_symmetry_1
_geom_bond_site_symmetry_2
Ni1 O4 1_555 1_555
S1 C3 1_555 1_555
S2 C2 1_555 1_555
O4 C1 1_555 1_555
O5 C1 1_555 1_555
N1 N2 1_555 1_555
N2 C4 1_555 1_555
C1 C2 1_555 1_555
C2 H1 1_555 1_555
H2 C2 1_555 1_555
C3 S2 1_555 1_555
C4 S1 1_555 1_555
H3 C4 1_555 1_555
N3 Ni1 1_555 1_555
N4 Ni1 1_555 1_555
N5 N3 1_555 1_555
N6 N4 1_555 1_555
N7 N5 1_555 1_555
N8 N6 1_555 1_555
Ni1C O5 1_555 1_555
Ni1BA O4BA 1_555 1_555
Ni1R N2 1_555 1_555
Ni1Z O4Z 1_555 1_555
Ni1U O4U_2 1_555 1_555
Ni1HA N1 1_555 1_555
Ni1P N4 1_555 1_555
Ni1Y N1C 1_555 1_555
Ni1U_2 O4U 1_555 1_555
Ni1EA O4EA 1_555 1_555
Ni1IA O5EA 1_555 1_555
Ni1G N1U 1_555 1_555
Ni1R_2 O5U 1_555 1_555
Ni1DA N4BA 1_555 1_555
S1C C3C 1_555 1_555
S1BA C3BA 1_555 1_555
S1R C3R 1_555 1_555
S1EA C3EA 1_555 1_555
S1U C3U 1_555 1_555
S2C C2C 1_555 1_555
S2BA C2BA 1_555 1_555
S2R C2R 1_555 1_555
S2EA C2EA 1_555 1_555
S2U C2U 1_555 1_555
O4C Ni1C 1_555 1_555
O4BA C1BA 1_555 1_555
O4R Ni1R 1_555 1_555
O4EA C1EA 1_555 1_555
O4U C1U 1_555 1_555
O5C Ni1 1_555 1_555
O5BA Ni1Z 1_555 1_555
O5R Ni1U 1_555 1_555
O5EA C1EA 1_555 1_555
O5U C1U 1_555 1_555
O5Z Ni1BA 1_555 1_555
O5U_2 Ni1R 1_555 1_555
N1C N2C 1_555 1_555
N1BA Ni1 1_555 1_555
N1R Ni1P 1_555 1_555
N1EA Ni1C 1_555 1_555
N1U N2U 1_555 1_555
N1F Ni1BA 1_555 1_555
N1J Ni1R 1_555 1_555
N1E Ni1Z 1_555 1_555
N1M Ni1U 1_555 1_555
N2C Ni1U_2 1_555 1_555
N2BA Ni1P 1_555 1_555
N2R Ni1 1_555 1_555
N2EA Ni1G 1_555 1_555
N2U Ni1C 1_555 1_555
N2P Ni1BA 1_555 1_555
N2N Ni1Z 1_555 1_555
N2C_2 Ni1U 1_555 1_555
C1C O4C 1_555 1_555
C1BA O5BA 1_555 1_555
C1R O4R 1_555 1_555
C1EA C2EA 1_555 1_555
C1U C2U 1_555 1_555
C2C C1C 1_555 1_555
C2BA C1BA 1_555 1_555
C2R C1R 1_555 1_555
C2EA H1EA 1_555 1_555
C2U H1U 1_555 1_555
H1C C2C 1_555 1_555
H1BA C2BA 1_555 1_555
H1R C2R 1_555 1_555
H2C C2C 1_555 1_555
H2BA C2BA 1_555 1_555
H2R C2R 1_555 1_555
H2EA C2EA 1_555 1_555
H2U C2U 1_555 1_555
C3C S2C 1_555 1_555
C3BA S2BA 1_555 1_555
C3R S2R 1_555 1_555
C3EA S2EA 1_555 1_555
C3U S2U 1_555 1_555
C4C S1C 1_555 1_555
C4BA S1BA 1_555 1_555
C4R S1R 1_555 1_555
C4EA S1EA 1_555 1_555
C4U S1U 1_555 1_555
H3C C4C 1_555 1_555
H3BA C4BA 1_555 1_555
H3R C4R 1_555 1_555
H3EA C4EA 1_555 1_555
H3U C4U 1_555 1_555
N3Z Ni1BA 1_555 1_555
N3R Ni1R 1_555 1_555
N4C Ni1C 1_555 1_555
N4BA Ni1BA 1_555 1_555
N4R Ni1R 1_555 1_555
N4W Ni1Z 1_555 1_555
N4U Ni1U 1_555 1_555
N5Z N3Z 1_555 1_555
N5R N3R 1_555 1_555
N6P N4 1_555 1_555
N6C N4C 1_555 1_555
N6G N4C 1_555 1_555
N6BA N4BA 1_555 1_555
N6DA N4BA 1_555 1_555
N7C N5 1_555 1_555
N7BA N5Z 1_555 1_555
N7Z N5Z 1_555 1_555
N7R N5R 1_555 1_555
N7U N5R 1_555 1_555
N8P N6P 1_555 1_555
N8C N6C 1_555 1_555
N8G N6G 1_555 1_555
N8BA N6BA 1_555 1_555
N8DA N6DA 1_555 1_555
N1 C3 1_555 1_555
N3 Ni1C 1_555 1_555
N6 N6P 1_555 1_555
N7 N7C 1_555 1_555
Ni1Z N3Z 1_555 1_555
Ni1U N3R 1_555 1_555
Ni1HA N4R 1_555 1_555
Ni1G N4C 1_555 1_555
O5C C1C 1_555 1_555
O5R C1R 1_555 1_555
N1C C3C 1_555 1_555
N1BA N2BA 1_555 1_555
N1BA C3BA 1_555 1_555
N1R N2R 1_555 1_555
N1R C3R 1_555 1_555
N1EA N2EA 1_555 1_555
N1EA C3EA 1_555 1_555
N1U C3U 1_555 1_555
N2C C4C 1_555 1_555
N2BA C4BA 1_555 1_555
N2R C4R 1_555 1_555
N2EA C4EA 1_555 1_555
N2U C4U 1_555 1_555
N6C N6G 1_555 1_555
N6BA N6DA 1_555 1_555
N7BA N7Z 1_555 1_555
N7R N7U 1_555 1_555

#END
