
#######################################################################
#
#                 Cambridge Crystallographic Data Centre
#                                CCDC 
#
#######################################################################
#
# If this CIF has been generated from an entry in the Cambridge 
# Structural Database, then it will include bibliographic, chemical, 
# crystal, experimental, refinement or atomic coordinate data resulting 
# from the CCDC's data processing and validation procedures.
#
#######################################################################

data_KAVJEX
_chemical_formula_moiety         '(C48 H37 N6 Nd3 O26)n'
_symmetry_cell_setting           cubic
_symmetry_space_group_name_H-M   'I a -3'
_symmetry_Int_Tables_number      206
_space_group_name_Hall           '-I 2b 2c 3'
loop_
_symmetry_equiv_pos_site_id
_symmetry_equiv_pos_as_xyz
1 x,y,z
2 z,x,y
3 y,z,x
4 1/2+x,1/2+y,1/2+z
5 1/2+z,1/2+x,1/2+y
6 1/2+y,1/2+z,1/2+x
7 1/2-x,-y,1/2+z
8 -x,1/2+y,1/2-z
9 1/2+x,1/2-y,-z
10 1/2+z,1/2-x,-y
11 1/2-z,-x,1/2+y
12 -z,1/2+x,1/2-y
13 -y,1/2+z,1/2-x
14 1/2+y,1/2-z,-x
15 1/2-y,-z,1/2+x
16 -x,1/2-y,z
17 1/2-x,y,-z
18 x,-y,1/2-z
19 z,-x,1/2-y
20 -z,1/2-x,y
21 1/2-z,x,-y
22 1/2-y,z,-x
23 y,-z,1/2-x
24 -y,1/2-z,x
25 -x,-y,-z
26 -z,-x,-y
27 -y,-z,-x
28 1/2-x,1/2-y,1/2-z
29 1/2-z,1/2-x,1/2-y
30 1/2-y,1/2-z,1/2-x
31 1/2+x,y,1/2-z
32 x,1/2-y,1/2+z
33 1/2-x,1/2+y,z
34 1/2-z,1/2+x,y
35 1/2+z,x,1/2-y
36 z,1/2-x,1/2+y
37 y,1/2-z,1/2+x
38 1/2-y,1/2+z,x
39 1/2+y,z,1/2-x
40 x,1/2+y,-z
41 1/2+x,-y,z
42 -x,y,1/2+z
43 -z,x,1/2+y
44 z,1/2+x,-y
45 1/2+z,-x,y
46 1/2+y,-z,x
47 -y,z,1/2+x
48 y,1/2+z,-x
_cell_length_a                   26.865(7)
_cell_length_b                   26.865(7)
_cell_length_c                   26.865(7)
_cell_angle_alpha                90
_cell_angle_beta                 90
_cell_angle_gamma                90
_cell_volume                     19389.2
loop_
_atom_site_label
_atom_site_type_symbol
_atom_site_fract_x
_atom_site_fract_y
_atom_site_fract_z
_atom_site_U_iso_or_equiv
_atom_site_thermal_displace_type
Nd1 Nd 0.915249(16) 0.415249(16) 0.084751(16) 0.0251 Uani
Nd2 Nd 1.0000 0.5000 0.0000 0.0232 Uani
O1 O 0.9469(2) 0.5011(2) 0.0834(2) 0.0323 Uani
O2 O 1.0216(2) 0.5302(3) 0.0897(2) 0.0443 Uani
O3 O 0.9715(3) 0.5834(3) 0.3409(2) 0.0437 Uani
O4 O 0.8923(2) 0.5802(3) 0.3257(2) 0.0470 Uani
C1 C 0.9807(3) 0.5232(3) 0.1084(3) 0.0280 Uani
C2 C 0.9690(4) 0.5403(3) 0.1595(3) 0.0320 Uani
C3 C 1.0076(4) 0.5514(4) 0.1917(3) 0.0433 Uani
C4 C 0.9971(4) 0.5648(4) 0.2414(4) 0.0463 Uani
C5 C 0.9478(4) 0.5680(3) 0.2572(3) 0.0347 Uani
C6 C 0.9098(4) 0.5576(4) 0.2239(4) 0.0423 Uani
C7 C 0.9214(4) 0.5439(4) 0.1761(3) 0.0420 Uani
H1 H 0.8956 0.5367 0.1541 0.0510 Uiso
C8 C 0.9360(4) 0.5778(3) 0.3112(3) 0.0317 Uani
N1 N 1.0375(11) 0.5786(15) 0.2684(11) 0.0937 Uani
H2 H 1.0337 0.5905 0.2979 0.1130 Uiso
H3 H 1.0669 0.5755 0.2561 0.1130 Uiso
Nd1IA Nd 1.084751(16) 0.584751(16) -0.084751(16) 0.0251 Uani
Nd1E Nd 0.915249(16) 0.584751(16) 0.415249(16) 0.0251 Uani
Nd1NA Nd 1.415249(16) 0.584751(16) 0.084751(16) 0.0251 Uani
Nd1MA Nd 0.915249(16) 0.915249(16) -0.084751(16) 0.0251 Uani
Nd1OA Nd 1.084751(16) 0.415249(16) -0.415249(16) 0.0251 Uani
Nd1D Nd 0.584751(16) 0.415249(16) -0.084751(16) 0.0251 Uani
Nd1O Nd 1.084751(16) 0.084751(16) 0.084751(16) 0.0251 Uani
O1IA O 1.0834(2) 0.5531(2) 0.0011(2) 0.0323 Uani
O1KA O 0.9989(2) 0.5834(2) -0.0531(2) 0.0323 Uani
O1X O 1.0531(2) 0.4989(2) -0.0834(2) 0.0323 Uani
O1K O 0.9166(2) 0.4469(2) -0.0011(2) 0.0323 Uani
O1M O 1.0011(2) 0.4166(2) 0.0531(2) 0.0323 Uani
O2IA O 1.0897(2) 0.4784(2) 0.0302(3) 0.0443 Uani
O2KA O 0.9698(3) 0.5897(2) 0.0216(2) 0.0443 Uani
O2X O 0.9784(2) 0.4698(3) -0.0897(2) 0.0443 Uani
O2K O 0.9103(2) 0.5216(2) -0.0302(3) 0.0443 Uani
O2M O 1.0302(3) 0.4103(2) -0.0216(2) 0.0443 Uani
O3IA O 1.3409(2) 0.5285(3) 0.0834(3) 0.0437 Uani
O3KA O 0.9166(3) 0.8409(2) -0.0285(3) 0.0437 Uani
O3X O 1.0285(3) 0.4166(3) -0.3409(2) 0.0437 Uani
O3K O 0.6591(2) 0.4715(3) -0.0834(3) 0.0437 Uani
O3M O 1.0834(3) 0.1591(2) 0.0285(3) 0.0437 Uani
O3D O 0.8409(2) 0.4715(3) 0.0834(3) 0.0437 Uani
O3Q O 0.9715(3) 0.4166(3) 0.1591(2) 0.0437 Uani
O3U O 0.9166(3) 0.3409(2) 0.0285(3) 0.0437 Uani
O3OA O 1.0285(3) 0.5834(3) -0.1591(2) 0.0437 Uani
O3SA O 1.0834(3) 0.6591(2) -0.0285(3) 0.0437 Uani
O3BA O 1.1591(2) 0.5285(3) -0.0834(3) 0.0437 Uani
O4IA O 1.3257(2) 0.6077(2) 0.0802(3) 0.0470 Uani
O4KA O 0.9198(3) 0.8257(2) -0.1077(2) 0.0470 Uani
O4X O 1.1077(2) 0.4198(3) -0.3257(2) 0.0470 Uani
O4K O 0.6743(2) 0.3923(2) -0.0802(3) 0.0470 Uani
O4M O 1.0802(3) 0.1743(2) 0.1077(2) 0.0470 Uani
O4D O 0.8257(2) 0.3923(2) 0.0802(3) 0.0470 Uani
O4Q O 0.8923(2) 0.4198(3) 0.1743(2) 0.0470 Uani
O4U O 0.9198(3) 0.3257(2) 0.1077(2) 0.0470 Uani
O4OA O 1.1077(2) 0.5802(3) -0.1743(2) 0.0470 Uani
O4SA O 1.0802(3) 0.6743(2) -0.1077(2) 0.0470 Uani
O4BA O 1.1743(2) 0.6077(2) -0.0802(3) 0.0470 Uani
C1IA C 1.1084(3) 0.5193(3) 0.0232(3) 0.0280 Uani
C1KA C 0.9768(3) 0.6084(3) -0.0193(3) 0.0280 Uani
C1X C 1.0193(3) 0.4768(3) -0.1084(3) 0.0280 Uani
C1K C 0.8916(3) 0.4807(3) -0.0232(3) 0.0280 Uani
C1M C 1.0232(3) 0.3916(3) 0.0193(3) 0.0280 Uani
C2IA C 1.1595(3) 0.5310(4) 0.0403(3) 0.0320 Uani
C2KA C 0.9597(3) 0.6595(3) -0.0310(4) 0.0320 Uani
C2X C 1.0310(4) 0.4597(3) -0.1595(3) 0.0320 Uani
C2K C 0.8405(3) 0.4690(4) -0.0403(3) 0.0320 Uani
C2M C 1.0403(3) 0.3405(3) 0.0310(4) 0.0320 Uani
C3IA C 1.1917(3) 0.4924(4) 0.0514(4) 0.0433 Uani
C3KA C 0.9486(4) 0.6917(3) 0.0076(4) 0.0433 Uani
C3X C 0.9924(4) 0.4486(4) -0.1917(3) 0.0433 Uani
C3K C 0.8083(3) 0.5076(4) -0.0514(4) 0.0433 Uani
C3M C 1.0514(4) 0.3083(3) -0.0076(4) 0.0433 Uani
C4IA C 1.2414(4) 0.5029(4) 0.0648(4) 0.0463 Uani
C4KA C 0.9352(4) 0.7414(4) -0.0029(4) 0.0463 Uani
C4X C 1.0029(4) 0.4352(4) -0.2414(4) 0.0463 Uani
C4K C 0.7586(4) 0.4971(4) -0.0648(4) 0.0463 Uani
C4M C 1.0648(4) 0.2586(4) 0.0029(4) 0.0463 Uani
C5IA C 1.2572(3) 0.5522(4) 0.0680(3) 0.0347 Uani
C5KA C 0.9320(3) 0.7572(3) -0.0522(4) 0.0347 Uani
C5X C 1.0522(4) 0.4320(3) -0.2572(3) 0.0347 Uani
C5K C 0.7428(3) 0.4478(4) -0.0680(3) 0.0347 Uani
C5M C 1.0680(3) 0.2428(3) 0.0522(4) 0.0347 Uani
C6IA C 1.2239(4) 0.5902(4) 0.0576(4) 0.0423 Uani
C6KA C 0.9424(4) 0.7239(4) -0.0902(4) 0.0423 Uani
C6X C 1.0902(4) 0.4424(4) -0.2239(4) 0.0423 Uani
C6K C 0.7761(4) 0.4098(4) -0.0576(4) 0.0423 Uani
C6M C 1.0576(4) 0.2761(4) 0.0902(4) 0.0423 Uani
C7IA C 1.1761(3) 0.5786(4) 0.0439(4) 0.0420 Uani
C7KA C 0.9561(4) 0.6761(3) -0.0786(4) 0.0420 Uani
C7X C 1.0786(4) 0.4561(4) -0.1761(3) 0.0420 Uani
C7K C 0.8239(3) 0.4214(4) -0.0439(4) 0.0420 Uani
C7M C 1.0439(4) 0.3239(3) 0.0786(4) 0.0420 Uani
H1IA H 1.1541 0.6044 0.0367 0.0510 Uiso
H1KA H 0.9633 0.6541 -0.1044 0.0510 Uiso
H1X H 1.1044 0.4633 -0.1541 0.0510 Uiso
H1K H 0.8459 0.3956 -0.0367 0.0510 Uiso
H1M H 1.0367 0.3459 0.1044 0.0510 Uiso
C8IA C 1.3112(3) 0.5640(4) 0.0778(3) 0.0317 Uani
C8KA C 0.9222(3) 0.8112(3) -0.0640(4) 0.0317 Uani
C8X C 1.0640(4) 0.4222(3) -0.3112(3) 0.0317 Uani
C8K C 0.6888(3) 0.4360(4) -0.0778(3) 0.0317 Uani
C8M C 1.0778(3) 0.1888(3) 0.0640(4) 0.0317 Uani
N1IA N 1.2684(11) 0.4625(11) 0.0786(15) 0.0937 Uani
N1KA N 0.9214(15) 0.7684(11) 0.0375(11) 0.0937 Uani
N1X N 0.9625(11) 0.4214(15) -0.2684(11) 0.0937 Uani
N1K N 0.7316(11) 0.5375(11) -0.0786(15) 0.0937 Uani
N1M N 1.0786(15) 0.2316(11) -0.0375(11) 0.0937 Uani
H2IA H 1.2979 0.4663 0.0905 0.1130 Uiso
H2KA H 0.9095 0.7979 0.0337 0.1130 Uiso
H2X H 0.9663 0.4095 -0.2979 0.1130 Uiso
H2K H 0.7021 0.5337 -0.0905 0.1130 Uiso
H2M H 1.0905 0.2021 -0.0337 0.1130 Uiso
H3IA H 1.2561 0.4331 0.0755 0.1130 Uiso
H3KA H 0.9245 0.7561 0.0669 0.1130 Uiso
H3X H 0.9331 0.4245 -0.2561 0.1130 Uiso
H3K H 0.7439 0.5669 -0.0755 0.1130 Uiso
H3M H 1.0755 0.2439 -0.0669 0.1130 Uiso
O5 O 0.0585(5) 0.6343(5) 0.0812(5) 0.1243 Uani
O6 O 0.1477(13) 0.6959(13) 0.2200(13) 0.1780 Uani
loop_
_atom_site_aniso_label
_atom_site_aniso_U_11
_atom_site_aniso_U_22
_atom_site_aniso_U_33
_atom_site_aniso_U_23
_atom_site_aniso_U_13
_atom_site_aniso_U_12
Nd1 0.0251(3) 0.0251(3) 0.0251(3) -0.0017(2) -0.0017(2) 0.0017(2)
Nd2 0.0232(3) 0.0232(3) 0.0232(3) -0.0008(3) -0.0008(3) 0.0008(3)
O1 0.038(4) 0.030(3) 0.029(3) -0.003(3) -0.001(3) 0.002(3)
O2 0.039(4) 0.072(5) 0.022(3) -0.008(3) 0.002(3) -0.013(3)
O3 0.049(4) 0.054(4) 0.028(4) -0.006(3) 0.003(3) -0.001(4)
O4 0.038(4) 0.072(5) 0.031(4) -0.007(3) 0.004(3) 0.007(4)
C1 0.035(5) 0.026(5) 0.023(5) 0.000(4) 0.000(4) -0.001(4)
C2 0.041(6) 0.028(5) 0.027(5) -0.005(4) 0.003(4) -0.006(4)
C3 0.037(6) 0.067(7) 0.026(5) -0.012(5) -0.001(4) 0.001(5)
C4 0.038(5) 0.058(7) 0.043(6) -0.019(5) 0.001(5) -0.008(5)
C5 0.045(6) 0.030(5) 0.029(5) 0.000(4) 0.004(4) 0.004(4)
C6 0.039(6) 0.059(7) 0.029(5) -0.012(5) 0.000(4) -0.001(5)
C7 0.039(6) 0.057(6) 0.030(5) -0.008(5) -0.010(5) -0.009(5)
C8 0.041(5) 0.032(5) 0.022(5) -0.005(4) -0.003(4) -0.001(4)
N1 0.056(19) 0.18(4) 0.045(18) -0.08(2) 0.012(15) -0.02(2)
Nd1IA 0.0251 0.0251 0.0251 -0.0017 -0.0017 0.0017
Nd1E 0.0251 0.0251 0.0251 -0.0017 0.0017 -0.0017
Nd1NA 0.0251 0.0251 0.0251 0.0017 -0.0017 -0.0017
Nd1MA 0.0251 0.0251 0.0251 0.0017 0.0017 0.0017
Nd1OA 0.0251 0.0251 0.0251 -0.0017 0.0017 -0.0017
Nd1D 0.0251 0.0251 0.0251 0.0017 -0.0017 -0.0017
Nd1O 0.0251 0.0251 0.0251 0.0017 0.0017 0.0017
O1IA 0.029 0.038 0.03 -0.002 -0.003 0.001
O1KA 0.03 0.029 0.038 -0.001 -0.002 0.003
O1X 0.038 0.03 0.029 -0.003 -0.001 0.002
O1K 0.029 0.038 0.03 -0.002 -0.003 0.001
O1M 0.03 0.029 0.038 -0.001 -0.002 0.003
O2IA 0.022 0.039 0.072 0.013 -0.008 -0.002
O2KA 0.072 0.022 0.039 0.002 0.013 0.008
O2X 0.039 0.072 0.022 -0.008 0.002 -0.013
O2K 0.022 0.039 0.072 0.013 -0.008 -0.002
O2M 0.072 0.022 0.039 0.002 0.013 0.008
O3IA 0.028 0.049 0.054 0.001 -0.006 -0.003
O3KA 0.054 0.028 0.049 0.003 0.001 0.006
O3X 0.049 0.054 0.028 -0.006 0.003 -0.001
O3K 0.028 0.049 0.054 0.001 -0.006 -0.003
O3M 0.054 0.028 0.049 0.003 0.001 0.006
O3D 0.028 0.049 0.054 -0.001 -0.006 0.003
O3Q 0.049 0.054 0.028 -0.006 -0.003 0.001
O3U 0.054 0.028 0.049 -0.003 -0.001 0.006
O3OA 0.049 0.054 0.028 -0.006 -0.003 0.001
O3SA 0.054 0.028 0.049 -0.003 -0.001 0.006
O3BA 0.028 0.049 0.054 -0.001 -0.006 0.003
O4IA 0.031 0.038 0.072 -0.007 -0.007 -0.004
O4KA 0.072 0.031 0.038 0.004 -0.007 0.007
O4X 0.038 0.072 0.031 -0.007 0.004 0.007
O4K 0.031 0.038 0.072 -0.007 -0.007 -0.004
O4M 0.072 0.031 0.038 0.004 -0.007 0.007
O4D 0.031 0.038 0.072 0.007 -0.007 0.004
O4Q 0.038 0.072 0.031 -0.007 -0.004 -0.007
O4U 0.072 0.031 0.038 -0.004 0.007 0.007
O4OA 0.038 0.072 0.031 -0.007 -0.004 -0.007
O4SA 0.072 0.031 0.038 -0.004 0.007 0.007
O4BA 0.031 0.038 0.072 0.007 -0.007 0.004
C1IA 0.023 0.035 0.026 0.001 0 0
C1KA 0.026 0.023 0.035 0 0.001 0
C1X 0.035 0.026 0.023 0 0 -0.001
C1K 0.023 0.035 0.026 0.001 0 0
C1M 0.026 0.023 0.035 0 0.001 0
C2IA 0.027 0.041 0.028 0.006 -0.005 -0.003
C2KA 0.028 0.027 0.041 0.003 0.006 0.005
C2X 0.041 0.028 0.027 -0.005 0.003 -0.006
C2K 0.027 0.041 0.028 0.006 -0.005 -0.003
C2M 0.028 0.027 0.041 0.003 0.006 0.005
C3IA 0.026 0.037 0.067 -0.001 -0.012 0.001
C3KA 0.067 0.026 0.037 -0.001 -0.001 0.012
C3X 0.037 0.067 0.026 -0.012 -0.001 0.001
C3K 0.026 0.037 0.067 -0.001 -0.012 0.001
C3M 0.067 0.026 0.037 -0.001 -0.001 0.012
C4IA 0.043 0.038 0.058 0.008 -0.019 -0.001
C4KA 0.058 0.043 0.038 0.001 0.008 0.019
C4X 0.038 0.058 0.043 -0.019 0.001 -0.008
C4K 0.043 0.038 0.058 0.008 -0.019 -0.001
C4M 0.058 0.043 0.038 0.001 0.008 0.019
C5IA 0.029 0.045 0.03 -0.004 0 -0.004
C5KA 0.03 0.029 0.045 0.004 -0.004 0
C5X 0.045 0.03 0.029 0 0.004 0.004
C5K 0.029 0.045 0.03 -0.004 0 -0.004
C5M 0.03 0.029 0.045 0.004 -0.004 0
C6IA 0.029 0.039 0.059 0.001 -0.012 0
C6KA 0.059 0.029 0.039 0 0.001 0.012
C6X 0.039 0.059 0.029 -0.012 0 -0.001
C6K 0.029 0.039 0.059 0.001 -0.012 0
C6M 0.059 0.029 0.039 0 0.001 0.012
C7IA 0.03 0.039 0.057 0.009 -0.008 0.01
C7KA 0.057 0.03 0.039 -0.01 0.009 0.008
C7X 0.039 0.057 0.03 -0.008 -0.01 -0.009
C7K 0.03 0.039 0.057 0.009 -0.008 0.01
C7M 0.057 0.03 0.039 -0.01 0.009 0.008
C8IA 0.022 0.041 0.032 0.001 -0.005 0.003
C8KA 0.032 0.022 0.041 -0.003 0.001 0.005
C8X 0.041 0.032 0.022 -0.005 -0.003 -0.001
C8K 0.022 0.041 0.032 0.001 -0.005 0.003
C8M 0.032 0.022 0.041 -0.003 0.001 0.005
N1IA 0.045 0.056 0.18 0.02 -0.08 -0.012
N1KA 0.18 0.045 0.056 0.012 0.02 0.08
N1X 0.056 0.18 0.045 -0.08 0.012 -0.02
N1K 0.045 0.056 0.18 0.02 -0.08 -0.012
N1M 0.18 0.045 0.056 0.012 0.02 0.08
O5 0.124(4) 0.124(4) 0.125(4) -0.0007(10) 0.0002(10) -0.0002(10)
O6 0.178(12) 0.178(12) 0.178(12) -0.0004(10) -0.0001(10) 0.0001(10)
loop_
_geom_bond_atom_site_label_1
_geom_bond_atom_site_label_2
_geom_bond_site_symmetry_1
_geom_bond_site_symmetry_2
Nd1 O1 1_555 1_555
Nd2 O1 1_555 1_555
O1 C1 1_555 1_555
O2 Nd2 1_555 1_555
O3 C8 1_555 1_555
O4 C8 1_555 1_555
C1 O2 1_555 1_555
C2 C1 1_555 1_555
C3 C2 1_555 1_555
C4 C3 1_555 1_555
C5 C4 1_555 1_555
C6 C5 1_555 1_555
C7 C2 1_555 1_555
H1 C7 1_555 1_555
C8 C5 1_555 1_555
N1 C4 1_555 1_555
H2 N1 1_555 1_555
H3 N1 1_555 1_555
Nd1IA O1IA 1_555 1_555
Nd1E O3 1_555 1_555
Nd1NA O3IA 1_555 1_555
Nd1MA O3KA 1_555 1_555
Nd1OA O3X 1_555 1_555
Nd1D O3K 1_555 1_555
Nd1O O3M 1_555 1_555
O1IA Nd2 1_555 1_555
O1KA Nd2 1_555 1_555
O1X Nd2 1_555 1_555
O1K Nd1 1_555 1_555
O1M Nd1 1_555 1_555
O2IA Nd2 1_555 1_555
O2KA Nd2 1_555 1_555
O2X Nd2 1_555 1_555
O2K Nd2 1_555 1_555
O2M Nd2 1_555 1_555
O3IA C8IA 1_555 1_555
O3KA C8KA 1_555 1_555
O3X C8X 1_555 1_555
O3K C8K 1_555 1_555
O3M C8M 1_555 1_555
O3D Nd1 1_555 1_555
O3Q Nd1 1_555 1_555
O3U Nd1 1_555 1_555
O3OA Nd1IA 1_555 1_555
O3SA Nd1IA 1_555 1_555
O3BA Nd1IA 1_555 1_555
O4IA Nd1NA 1_555 1_555
O4KA Nd1MA 1_555 1_555
O4X Nd1OA 1_555 1_555
O4K Nd1D 1_555 1_555
O4M Nd1O 1_555 1_555
O4D Nd1 1_555 1_555
O4Q Nd1 1_555 1_555
O4U Nd1 1_555 1_555
O4OA Nd1IA 1_555 1_555
O4SA Nd1IA 1_555 1_555
O4BA Nd1IA 1_555 1_555
C1IA O1IA 1_555 1_555
C1KA O1KA 1_555 1_555
C1X O1X 1_555 1_555
C1K O1K 1_555 1_555
C1M O1M 1_555 1_555
C2IA C1IA 1_555 1_555
C2KA C1KA 1_555 1_555
C2X C1X 1_555 1_555
C2K C1K 1_555 1_555
C2M C1M 1_555 1_555
C3IA C2IA 1_555 1_555
C3KA C2KA 1_555 1_555
C3X C2X 1_555 1_555
C3K C2K 1_555 1_555
C3M C2M 1_555 1_555
C4IA C3IA 1_555 1_555
C4KA C3KA 1_555 1_555
C4X C3X 1_555 1_555
C4K C3K 1_555 1_555
C4M C3M 1_555 1_555
C5IA C4IA 1_555 1_555
C5KA C4KA 1_555 1_555
C5X C4X 1_555 1_555
C5K C4K 1_555 1_555
C5M C4M 1_555 1_555
C6IA C5IA 1_555 1_555
C6KA C5KA 1_555 1_555
C6X C5X 1_555 1_555
C6K C5K 1_555 1_555
C6M C5M 1_555 1_555
C7IA C2IA 1_555 1_555
C7KA C2KA 1_555 1_555
C7X C2X 1_555 1_555
C7K C2K 1_555 1_555
C7M C2M 1_555 1_555
H1IA C7IA 1_555 1_555
H1KA C7KA 1_555 1_555
H1X C7X 1_555 1_555
H1K C7K 1_555 1_555
H1M C7M 1_555 1_555
C8IA O4IA 1_555 1_555
C8KA O4KA 1_555 1_555
C8X O4X 1_555 1_555
C8K O4K 1_555 1_555
C8M O4M 1_555 1_555
N1IA C4IA 1_555 1_555
N1KA C4KA 1_555 1_555
N1X C4X 1_555 1_555
N1K C4K 1_555 1_555
N1M C4M 1_555 1_555
H2IA N1IA 1_555 1_555
H2KA N1KA 1_555 1_555
H2X N1X 1_555 1_555
H2K N1K 1_555 1_555
H2M N1M 1_555 1_555
H3IA N1IA 1_555 1_555
H3KA N1KA 1_555 1_555
H3X N1X 1_555 1_555
H3K N1K 1_555 1_555
H3M N1M 1_555 1_555
Nd2 O1K 1_555 1_555
Nd2 O1M 1_555 1_555
O4 Nd1E 1_555 1_555
C6 C7 1_555 1_555
Nd1IA O1KA 1_555 1_555
Nd1IA O1X 1_555 1_555
O2IA C1IA 1_555 1_555
O2KA C1KA 1_555 1_555
O2X C1X 1_555 1_555
O2K C1K 1_555 1_555
O2M C1M 1_555 1_555
C5IA C8IA 1_555 1_555
C5KA C8KA 1_555 1_555
C5X C8X 1_555 1_555
C5K C8K 1_555 1_555
C5M C8M 1_555 1_555
C6IA C7IA 1_555 1_555
C6KA C7KA 1_555 1_555
C6X C7X 1_555 1_555
C6K C7K 1_555 1_555
C6M C7M 1_555 1_555

#END
