
#######################################################################
#
#                 Cambridge Crystallographic Data Centre
#                                CCDC 
#
#######################################################################
#
# If this CIF has been generated from an entry in the Cambridge 
# Structural Database, then it will include bibliographic, chemical, 
# crystal, experimental, refinement or atomic coordinate data resulting 
# from the CCDC's data processing and validation procedures.
#
#######################################################################

data_RIZNIY
_chemical_formula_moiety         '(C48 H42 Cl1 Cu3 N6 O17 1+)n'
_symmetry_cell_setting           monoclinic
_symmetry_space_group_name_H-M   'C 2/c'
_symmetry_Int_Tables_number      15
_space_group_name_Hall           '-C 2yc'
loop_
_symmetry_equiv_pos_site_id
_symmetry_equiv_pos_as_xyz
1 x,y,z
2 1/2+x,1/2+y,z
3 -x,y,1/2-z
4 1/2-x,1/2+y,1/2-z
5 -x,-y,-z
6 1/2-x,1/2-y,-z
7 x,-y,1/2+z
8 1/2+x,1/2-y,1/2+z
_cell_length_a                   19.0999(18)
_cell_length_b                   22.8762(18)
_cell_length_c                   13.3876(10)
_cell_angle_alpha                90
_cell_angle_beta                 112.928(2)
_cell_angle_gamma                90
_cell_volume                     5387.35
loop_
_atom_site_label
_atom_site_type_symbol
_atom_site_fract_x
_atom_site_fract_y
_atom_site_fract_z
_atom_site_U_iso_or_equiv
_atom_site_thermal_displace_type
Cu1 Cu 0.49754(4) 0.76429(3) 0.55779(5) 0.0450 Uani
Cu2 Cu 0.5000 0.86772(4) 0.7500 0.0386 Uani
N1 N 0.4692(3) 0.67879(19) 0.5462(4) 0.0547 Uani
N2 N 0.4075(3) 0.7677(2) 0.4167(4) 0.0522 Uani
N3 N 0.5744(2) 0.93385(18) 0.8026(3) 0.0394 Uani
O1 O 0.5129(2) 0.84840(15) 0.5659(3) 0.0449 Uani
O2 O 0.6216(2) 0.84811(19) 0.5410(4) 0.0694 Uani
O3 O 0.5810(2) 0.74775(16) 0.6939(3) 0.0582 Uani
O4 O 0.5790(2) 0.81081(16) 0.8200(3) 0.0500 Uani
C1 C 0.5029(5) 0.6355(3) 0.6129(6) 0.0746 Uani
H1 H 0.5421 0.6440 0.6791 0.0890 Uiso
C2 C 0.4809(6) 0.5771(3) 0.5864(10) 0.0993 Uani
H2 H 0.5061 0.5473 0.6343 0.1190 Uiso
C3 C 0.4241(6) 0.5642(4) 0.4927(10) 0.1081 Uani
H3 H 0.4087 0.5256 0.4761 0.1290 Uiso
C4 C 0.3872(5) 0.6093(3) 0.4189(8) 0.0837 Uani
C5 C 0.3251(6) 0.6013(5) 0.3147(10) 0.1176 Uani
H4 H 0.3065 0.5639 0.2930 0.1410 Uiso
C6 C 0.2942(6) 0.6458(5) 0.2498(8) 0.1132 Uani
H5 H 0.2552 0.6388 0.1829 0.1360 Uiso
C7 C 0.3189(4) 0.7044(4) 0.2793(6) 0.0795 Uani
C8 C 0.2889(5) 0.7543(5) 0.2165(6) 0.1029 Uani
H6 H 0.2496 0.7507 0.1485 0.1230 Uiso
C9 C 0.3165(4) 0.8068(4) 0.2540(6) 0.0941 Uani
H7 H 0.2958 0.8397 0.2122 0.1130 Uiso
C10 C 0.3753(4) 0.8134(3) 0.3542(5) 0.0661 Uani
H8 H 0.3929 0.8507 0.3785 0.0790 Uiso
C11 C 0.3783(4) 0.7136(3) 0.3805(5) 0.0574 Uani
C12 C 0.4122(4) 0.6659(3) 0.4505(5) 0.0584 Uani
C13 C 0.6487(3) 0.9320(3) 0.8570(4) 0.0527 Uani
H9 H 0.6729 0.8959 0.8741 0.0640 Uiso
C14 C 0.6918(4) 0.9832(3) 0.8895(5) 0.0662 Uani
H10 H 0.7441 0.9808 0.9275 0.0790 Uiso
C15 C 0.6579(4) 1.0359(3) 0.8661(5) 0.0638 Uani
H11 H 0.6866 1.0697 0.8890 0.0760 Uiso
C16 C 0.5802(4) 1.0396(2) 0.8078(4) 0.0512 Uani
C17 C 0.5379(4) 1.0930(2) 0.7779(5) 0.0607 Uani
H12 H 0.5634 1.1285 0.7975 0.0730 Uiso
C18 C 0.5399(3) 0.9873(2) 0.7786(4) 0.0380 Uani
C19 C 0.5680(3) 0.8733(2) 0.5526(4) 0.0456 Uani
C20 C 0.5658(3) 0.9385(2) 0.5460(4) 0.0431 Uani
H13 H 0.6116 0.9587 0.5693 0.0510 Uiso
C21 C 0.5019(3) 0.9688(2) 0.5088(4) 0.0386 Uani
H14 H 0.4565 0.9486 0.4930 0.0460 Uiso
C22 C 0.6055(3) 0.7684(2) 0.7863(4) 0.0422 Uani
C23 C 0.6744(3) 0.7401(2) 0.8667(4) 0.0467 Uani
H15 H 0.6891 0.7041 0.8493 0.0570 Uiso
C24 C 0.7157(3) 0.7633(2) 0.9612(4) 0.0469 Uani
H16 H 0.7001 0.7988 0.9794 0.0560 Uiso
O5 O 0.5794(3) 0.7412(2) 0.4626(4) 0.0771 Uani
H17 H 0.614(2) 0.7153(19) 0.485(2) 0.0600 Uiso
H18 H 0.563(2) 0.740(2) 0.3939(6) 0.0600 Uiso
Cu1D Cu 0.50246(4) 1.23571(3) 0.44221(5) 0.0450 Uani
Cu1E Cu 1.00246(4) 0.73571(3) 1.44221(5) 0.0450 Uani
Cu2F Cu 0.5000 1.13228(4) 0.2500 0.0386 Uani
Cu2G Cu 1.0000 0.63228(4) 1.2500 0.0386 Uani
N1D N 0.5308(3) 1.32121(19) 0.4538(4) 0.0547 Uani
N2D N 0.5925(3) 1.2323(2) 0.5833(4) 0.0522 Uani
N3B N 0.4256(2) 0.93385(18) 0.6974(3) 0.0394 Uani
O1D O 0.4871(2) 1.15160(15) 0.4341(3) 0.0449 Uani
O1B O 0.4871(2) 0.84840(15) 0.9341(3) 0.0449 Uani
O2D O 0.3784(2) 1.15189(19) 0.4590(4) 0.0694 Uani
O3E O 0.9190(2) 0.75225(16) 1.3061(3) 0.0582 Uani
O3D O 0.4190(2) 1.25225(16) 0.3061(3) 0.0582 Uani
O4E O 0.9210(2) 0.68919(16) 1.1800(3) 0.0500 Uani
O4B O 0.4210(2) 0.81081(16) 0.6800(3) 0.0500 Uani
C1D C 0.4971(5) 1.3645(3) 0.3871(6) 0.0746 Uani
H1D H 0.4579 1.3560 0.3209 0.0890 Uiso
C2D C 0.5191(6) 1.4229(3) 0.4136(10) 0.0993 Uani
H2D H 0.4939 1.4527 0.3657 0.1190 Uiso
C3D C 0.5759(6) 1.4358(4) 0.5073(10) 0.1081 Uani
H3D H 0.5913 1.4744 0.5239 0.1290 Uiso
C4D C 0.6128(5) 1.3907(3) 0.5811(8) 0.0837 Uani
C5D C 0.6749(6) 1.3987(5) 0.6853(10) 0.1176 Uani
H4D H 0.6935 1.4361 0.7070 0.1410 Uiso
C6D C 0.7058(6) 1.3542(5) 0.7502(8) 0.1132 Uani
H5D H 0.7448 1.3612 0.8171 0.1360 Uiso
C7D C 0.6811(4) 1.2956(4) 0.7207(6) 0.0795 Uani
C8D C 0.7111(5) 1.2457(5) 0.7835(6) 0.1029 Uani
H6D H 0.7504 1.2493 0.8515 0.1230 Uiso
C9D C 0.6835(4) 1.1932(4) 0.7460(6) 0.0941 Uani
H7D H 0.7042 1.1603 0.7878 0.1130 Uiso
C10D C 0.6247(4) 1.1866(3) 0.6458(5) 0.0661 Uani
H8D H 0.6071 1.1493 0.6215 0.0790 Uiso
C11D C 0.6217(4) 1.2864(3) 0.6195(5) 0.0574 Uani
C12D C 0.5878(4) 1.3341(3) 0.5495(5) 0.0584 Uani
C13B C 0.3513(3) 0.9320(3) 0.6430(4) 0.0527 Uani
H9B H 0.3271 0.8959 0.6259 0.0640 Uiso
C14B C 0.3082(4) 0.9832(3) 0.6105(5) 0.0662 Uani
H10B H 0.2559 0.9808 0.5725 0.0790 Uiso
C15B C 0.3421(4) 1.0359(3) 0.6339(5) 0.0638 Uani
H11B H 0.3134 1.0697 0.6110 0.0760 Uiso
C16B C 0.4198(4) 1.0396(2) 0.6922(4) 0.0512 Uani
C17B C 0.4621(4) 1.0930(2) 0.7221(5) 0.0607 Uani
H12B H 0.4366 1.1285 0.7025 0.0730 Uiso
C18B C 0.4601(3) 0.9873(2) 0.7214(4) 0.0380 Uani
C19D C 0.4320(3) 1.1267(2) 0.4474(4) 0.0456 Uani
C20D C 0.4342(3) 1.0615(2) 0.4540(4) 0.0431 Uani
H13D H 0.3884 1.0413 0.4307 0.0510 Uiso
C21D C 0.4981(3) 1.0312(2) 0.4912(4) 0.0386 Uani
H14D H 0.5435 1.0514 0.5070 0.0460 Uiso
C22E C 0.8945(3) 0.7316(2) 1.2137(4) 0.0422 Uani
C23E C 0.8256(3) 0.7599(2) 1.1333(4) 0.0467 Uani
H15E H 0.8109 0.7959 1.1507 0.0570 Uiso
C24E C 0.7843(3) 0.7367(2) 1.0388(4) 0.0469 Uani
H16E H 0.7999 0.7012 1.0206 0.0560 Uiso
O5D O 0.4206(3) 1.2588(2) 0.5374(4) 0.0771 Uani
H17D H 0.386(2) 1.2847(19) 0.515(2) 0.0600 Uiso
H18D H 0.437(2) 1.260(2) 0.6061(6) 0.0600 Uiso
O6 O 0.5000 0.7045(4) 0.2500 0.1300 Uani
H19 H 0.4673(4) 0.6820(5) 0.2582(9) 0.0600 Uiso
H19B H 0.5327(4) 0.6820(5) 0.2418(9) 0.0600 Uiso
O7 O 0.5684(7) 0.5648(5) 0.3483(9) 0.2248 Uani
H20 H 0.573(4) 0.5988(11) 0.326(6) 0.0600 Uiso
H21 H 0.603(3) 0.544(2) 0.339(6) 0.0600 Uiso
O8 O 0.6584(4) 0.6362(3) 0.5253(6) 0.1286 Uani
H22 H 0.6162(19) 0.622(2) 0.483(3) 0.0600 Uiso
H23 H 0.672(3) 0.616(2) 0.583(2) 0.0600 Uiso
Cl1 Cl 0.71507(13) 0.55798(8) 0.82362(15) 0.0852 Uani
O9 O 0.6728(9) 0.5077(5) 0.8520(11) 0.0990 Uiso
O10 O 0.7203(9) 0.5982(5) 0.9096(10) 0.0990 Uiso
O11 O 0.6629(7) 0.5785(6) 0.7253(9) 0.0990 Uiso
O12 O 0.7812(7) 0.5362(7) 0.8263(11) 0.0990 Uiso
loop_
_atom_site_aniso_label
_atom_site_aniso_U_11
_atom_site_aniso_U_22
_atom_site_aniso_U_33
_atom_site_aniso_U_23
_atom_site_aniso_U_13
_atom_site_aniso_U_12
Cu1 0.0610(5) 0.0315(4) 0.0347(4) 0.0002(3) 0.0103(3) -0.0032(3)
Cu2 0.0360(5) 0.0322(5) 0.0389(5) 0.000 0.0050(4) 0.000
N1 0.080(4) 0.032(2) 0.064(3) -0.001(2) 0.041(3) -0.003(2)
N2 0.058(3) 0.058(3) 0.039(2) -0.004(2) 0.017(2) -0.016(2)
N3 0.037(2) 0.044(2) 0.034(2) -0.0029(18) 0.0103(19) -0.0046(19)
O1 0.050(2) 0.0322(19) 0.049(2) 0.0021(15) 0.0156(18) -0.0037(16)
O2 0.062(3) 0.057(3) 0.095(3) 0.001(2) 0.037(3) 0.010(2)
O3 0.082(3) 0.044(2) 0.035(2) -0.0028(17) 0.008(2) 0.017(2)
O4 0.052(2) 0.047(2) 0.042(2) -0.0032(17) 0.0085(18) 0.0199(18)
C1 0.103(6) 0.041(4) 0.098(5) 0.009(3) 0.059(5) 0.007(3)
C2 0.121(8) 0.037(4) 0.176(10) 0.013(5) 0.097(8) 0.003(4)
C3 0.122(8) 0.046(5) 0.199(12) -0.031(6) 0.109(9) -0.021(5)
C4 0.097(6) 0.062(5) 0.125(7) -0.043(5) 0.079(6) -0.033(4)
C5 0.118(9) 0.111(8) 0.162(11) -0.096(8) 0.096(9) -0.075(7)
C6 0.095(7) 0.153(10) 0.099(7) -0.075(7) 0.046(6) -0.071(7)
C7 0.065(4) 0.124(7) 0.054(4) -0.031(4) 0.028(4) -0.044(5)
C8 0.066(5) 0.187(10) 0.042(4) -0.002(5) 0.006(4) -0.044(6)
C9 0.069(5) 0.144(8) 0.053(4) 0.032(5) 0.006(4) -0.026(5)
C10 0.060(4) 0.076(4) 0.053(4) 0.021(3) 0.012(3) -0.013(3)
C11 0.063(4) 0.072(4) 0.050(3) -0.021(3) 0.036(3) -0.028(3)
C12 0.072(4) 0.053(4) 0.066(4) -0.026(3) 0.044(4) -0.023(3)
C13 0.046(3) 0.058(4) 0.049(3) -0.003(3) 0.013(3) -0.002(3)
C14 0.047(4) 0.088(5) 0.060(4) -0.011(4) 0.017(3) -0.025(3)
C15 0.073(5) 0.062(4) 0.064(4) -0.017(3) 0.035(4) -0.033(4)
C16 0.071(4) 0.049(3) 0.041(3) -0.009(2) 0.030(3) -0.018(3)
C17 0.103(5) 0.037(3) 0.056(4) -0.005(3) 0.046(4) -0.014(3)
C18 0.054(3) 0.034(3) 0.031(3) -0.001(2) 0.022(2) -0.005(2)
C19 0.054(3) 0.043(3) 0.031(3) -0.001(2) 0.007(3) 0.002(3)
C20 0.052(3) 0.042(3) 0.036(3) -0.002(2) 0.018(3) -0.007(2)
C21 0.052(3) 0.036(3) 0.032(3) -0.004(2) 0.021(2) -0.008(2)
C22 0.049(3) 0.038(3) 0.034(3) 0.005(2) 0.010(2) 0.006(2)
C23 0.059(4) 0.040(3) 0.040(3) 0.004(2) 0.018(3) 0.022(3)
C24 0.056(3) 0.044(3) 0.040(3) 0.005(2) 0.018(3) 0.018(3)
O5 0.095(4) 0.078(3) 0.060(3) 0.001(2) 0.032(3) 0.017(3)
Cu1D 0.061 0.0315 0.0347 0.0002 0.0103 -0.0032
Cu1E 0.061 0.0315 0.0347 0.0002 0.0103 -0.0032
Cu2F 0.036 0.0322 0.0389 0 0.005 0
Cu2G 0.036 0.0322 0.0389 0 0.005 0
N1D 0.08 0.032 0.064 -0.001 0.041 -0.003
N2D 0.058 0.058 0.039 -0.004 0.017 -0.016
N3B 0.037 0.044 0.034 0.0029 0.0103 0.0046
O1D 0.05 0.0322 0.049 0.0021 0.0156 -0.0037
O1B 0.05 0.0322 0.049 -0.0021 0.0156 0.0037
O2D 0.062 0.057 0.095 0.001 0.037 0.01
O3E 0.082 0.044 0.035 -0.0028 0.008 0.017
O3D 0.082 0.044 0.035 -0.0028 0.008 0.017
O4E 0.052 0.047 0.042 -0.0032 0.0085 0.0199
O4B 0.052 0.047 0.042 0.0032 0.0085 -0.0199
C1D 0.103 0.041 0.098 0.009 0.059 0.007
C2D 0.121 0.037 0.176 0.013 0.097 0.003
C3D 0.122 0.046 0.199 -0.031 0.109 -0.021
C4D 0.097 0.062 0.125 -0.043 0.079 -0.033
C5D 0.118 0.111 0.162 -0.096 0.096 -0.075
C6D 0.095 0.153 0.099 -0.075 0.046 -0.071
C7D 0.065 0.124 0.054 -0.031 0.028 -0.044
C8D 0.066 0.187 0.042 -0.002 0.006 -0.044
C9D 0.069 0.144 0.053 0.032 0.006 -0.026
C10D 0.06 0.076 0.053 0.021 0.012 -0.013
C11D 0.063 0.072 0.05 -0.021 0.036 -0.028
C12D 0.072 0.053 0.066 -0.026 0.044 -0.023
C13B 0.046 0.058 0.049 0.003 0.013 0.002
C14B 0.047 0.088 0.06 0.011 0.017 0.025
C15B 0.073 0.062 0.064 0.017 0.035 0.033
C16B 0.071 0.049 0.041 0.009 0.03 0.018
C17B 0.103 0.037 0.056 0.005 0.046 0.014
C18B 0.054 0.034 0.031 0.001 0.022 0.005
C19D 0.054 0.043 0.031 -0.001 0.007 0.002
C20D 0.052 0.042 0.036 -0.002 0.018 -0.007
C21D 0.052 0.036 0.032 -0.004 0.021 -0.008
C22E 0.049 0.038 0.034 0.005 0.01 0.006
C23E 0.059 0.04 0.04 0.004 0.018 0.022
C24E 0.056 0.044 0.04 0.005 0.018 0.018
O5D 0.095 0.078 0.06 0.001 0.032 0.017
O6 0.158(9) 0.160(9) 0.090(6) 0.000 0.068(7) 0.000
O7 0.284(12) 0.191(10) 0.289(13) -0.094(9) 0.209(12) -0.102(9)
O8 0.130(6) 0.126(6) 0.102(5) 0.011(4) 0.015(4) 0.020(4)
Cl1 0.1082(16) 0.0662(11) 0.0727(12) -0.0010(9) 0.0260(11) 0.0201(10)
loop_
_geom_bond_atom_site_label_1
_geom_bond_atom_site_label_2
_geom_bond_site_symmetry_1
_geom_bond_site_symmetry_2
Cu1 N1 1_555 1_555
Cu2 N3 1_555 1_555
N1 C1 1_555 1_555
N2 Cu1 1_555 1_555
N3 C13 1_555 1_555
O1 Cu1 1_555 1_555
O2 C19 1_555 1_555
O3 Cu1 1_555 1_555
O4 Cu2 1_555 1_555
C1 H1 1_555 1_555
C2 C1 1_555 1_555
H2 C2 1_555 1_555
C3 C2 1_555 1_555
H3 C3 1_555 1_555
C4 C3 1_555 1_555
C5 C4 1_555 1_555
H4 C5 1_555 1_555
C6 C5 1_555 1_555
H5 C6 1_555 1_555
C7 C6 1_555 1_555
C8 C7 1_555 1_555
H6 C8 1_555 1_555
C9 C8 1_555 1_555
H7 C9 1_555 1_555
C10 N2 1_555 1_555
H8 C10 1_555 1_555
C11 N2 1_555 1_555
C12 N1 1_555 1_555
C13 H9 1_555 1_555
C14 C13 1_555 1_555
H10 C14 1_555 1_555
C15 C14 1_555 1_555
H11 C15 1_555 1_555
C16 C15 1_555 1_555
C17 C16 1_555 1_555
H12 C17 1_555 1_555
C18 N3 1_555 1_555
C19 O1 1_555 1_555
C20 C19 1_555 1_555
H13 C20 1_555 1_555
C21 C20 1_555 1_555
H14 C21 1_555 1_555
C22 O3 1_555 1_555
C23 C22 1_555 1_555
H15 C23 1_555 1_555
C24 C23 1_555 1_555
H16 C24 1_555 1_555
O5 Cu1 1_555 1_555
H17 O5 1_555 1_555
H18 O5 1_555 1_555
O6 H19 1_555 1_555
O7 H20 1_555 1_555
H21 O7 1_555 1_555
O8 H22 1_555 1_555
H23 O8 1_555 1_555
Cl1 O9 1_555 1_555
O10 Cl1 1_555 1_555
O11 Cl1 1_555 1_555
O12 Cl1 1_555 1_555
Cu1D N1D 1_555 1_555
Cu1E O3E 1_555 1_555
Cu2F O1D 1_555 1_555
Cu2G O4E 1_555 1_555
N1D C1D 1_555 1_555
N2D Cu1D 1_555 1_555
N3B Cu2 1_555 1_555
O1D Cu1D 1_555 1_555
O1B Cu2 1_555 1_555
O2D C19D 1_555 1_555
O3E C22E 1_555 1_555
O3D Cu1D 1_555 1_555
O4E C22E 1_555 1_555
O4B Cu2 1_555 1_555
C1D H1D 1_555 1_555
C2D C1D 1_555 1_555
H2D C2D 1_555 1_555
C3D C2D 1_555 1_555
H3D C3D 1_555 1_555
C4D C3D 1_555 1_555
C5D C4D 1_555 1_555
H4D C5D 1_555 1_555
C6D C5D 1_555 1_555
H5D C6D 1_555 1_555
C7D C6D 1_555 1_555
C8D C7D 1_555 1_555
H6D C8D 1_555 1_555
C9D C8D 1_555 1_555
H7D C9D 1_555 1_555
C10D N2D 1_555 1_555
H8D C10D 1_555 1_555
C11D N2D 1_555 1_555
C12D N1D 1_555 1_555
C13B N3B 1_555 1_555
H9B C13B 1_555 1_555
C14B C13B 1_555 1_555
H10B C14B 1_555 1_555
C15B C14B 1_555 1_555
H11B C15B 1_555 1_555
C16B C15B 1_555 1_555
C17B C17 1_555 1_555
H12B C17B 1_555 1_555
C18B C18 1_555 1_555
C19D O1D 1_555 1_555
C20D C19D 1_555 1_555
H13D C20D 1_555 1_555
C21D C21 1_555 1_555
H14D C21D 1_555 1_555
C22E C23E 1_555 1_555
C23E H15E 1_555 1_555
C24E C24 1_555 1_555
H16E C24E 1_555 1_555
O5D Cu1D 1_555 1_555
H17D O5D 1_555 1_555
H18D O5D 1_555 1_555
H19B O6 1_555 1_555
Cu2 O1 1_555 1_555
O4 C22 1_555 1_555
C4 C12 1_555 1_555
C7 C11 1_555 1_555
C9 C10 1_555 1_555
C11 C12 1_555 1_555
C16 C18 1_555 1_555
N3B C18B 1_555 1_555
C4D C12D 1_555 1_555
C7D C11D 1_555 1_555
C9D C10D 1_555 1_555
C11D C12D 1_555 1_555
C16B C17B 1_555 1_555
C16B C18B 1_555 1_555
C20D C21D 1_555 1_555
C23E C24E 1_555 1_555

#END
