
#######################################################################
#
#                 Cambridge Crystallographic Data Centre
#                                CCDC 
#
#######################################################################
#
# If this CIF has been generated from an entry in the Cambridge 
# Structural Database, then it will include bibliographic, chemical, 
# crystal, experimental, refinement or atomic coordinate data resulting 
# from the CCDC's data processing and validation procedures.
#
#######################################################################

data_CAYDOX06
_chemical_formula_moiety         '(C6 H8 Cu1 N8 O1)n'
_symmetry_cell_setting           tetragonal
_symmetry_space_group_name_H-M   'P 41'
_symmetry_Int_Tables_number      76
_space_group_name_Hall           'P 4w'
loop_
_symmetry_equiv_pos_site_id
_symmetry_equiv_pos_as_xyz
1 x,y,z
2 -y,x,1/4+z
3 -x,-y,1/2+z
4 y,-x,3/4+z
_cell_length_a                   12.414(4)
_cell_length_b                   12.414(4)
_cell_length_c                   7.944(3)
_cell_angle_alpha                90
_cell_angle_beta                 90
_cell_angle_gamma                90
_cell_volume                     1224.23
loop_
_atom_site_label
_atom_site_type_symbol
_atom_site_fract_x
_atom_site_fract_y
_atom_site_fract_z
_atom_site_U_iso_or_equiv
_atom_site_thermal_displace_type
Cu1 Cu 0.82284(12) 0.51407(12) 0.4122(2) 0.0282 Uani
C1 C 0.6468(15) 0.6665(12) 0.4924(16) 0.0390 Uani
C2 C 0.6187(12) 0.6764(12) 0.3088(16) 0.0337 Uani
H1 H 0.5993 0.6058 0.2660 0.0410 Uiso
H2 H 0.5562 0.7227 0.2975 0.0410 Uiso
C3 C 0.7079(12) 0.7207(11) 0.2043(19) 0.0473 Uani
H3 H 0.6840 0.7278 0.0886 0.0570 Uiso
H4 H 0.7273 0.7918 0.2451 0.0570 Uiso
C4 C 0.8838(12) 0.6811(11) 0.0963(16) 0.0423 Uani
H5 H 0.8901 0.7590 0.0944 0.0500 Uiso
H6 H 0.8640 0.6576 -0.0160 0.0500 Uiso
C5 C 0.9913(11) 0.6332(10) 0.1414(19) 0.0333 Uani
H7 H 1.0143 0.6623 0.2489 0.0400 Uiso
H8 H 1.0439 0.6548 0.0575 0.0400 Uiso
C6 C 0.9898(10) 0.5117(11) 0.153(2) 0.0327 Uani
N1 N 0.7244(9) 0.5999(8) 0.5495(12) 0.0250 Uani
N2 N 0.7256(9) 0.6044(10) 0.7181(13) 0.0363 Uani
N3 N 0.6465(11) 0.6752(10) 0.7640(16) 0.0450 Uani
N4 N 0.5963(9) 0.7106(8) 0.6208(13) 0.0307 Uani
N5 N 0.9217(8) 0.4532(9) 0.2417(13) 0.0317 Uani
N6 N 0.9433(9) 0.3511(10) 0.2134(15) 0.0383 Uani
N7 N 1.0221(10) 0.3436(9) 0.1066(14) 0.0307 Uani
N8 N 1.0512(8) 0.4473(9) 0.0593(14) 0.0327 Uani
O1 O 0.8001(8) 0.6513(7) 0.2113(10) 0.0370 Uani
Cu1A Cu 0.48593(12) 0.82284(12) 0.6622(2) 0.0282 Uani
Cu1B Cu 1.17716(12) 0.48593(12) -0.0878(2) 0.0282 Uani
N4C N 0.7106(8) 0.4037(9) 0.3708(13) 0.0307 Uani
N8B N 0.9488(8) 0.5527(9) 0.5593(14) 0.0327 Uani
loop_
_atom_site_aniso_label
_atom_site_aniso_U_11
_atom_site_aniso_U_22
_atom_site_aniso_U_33
_atom_site_aniso_U_23
_atom_site_aniso_U_13
_atom_site_aniso_U_12
Cu1 0.0242(9) 0.0314(10) 0.0290(8) -0.0062(8) -0.0007(8) 0.0017(8)
C1 0.069(11) 0.027(8) 0.021(8) 0.015(7) -0.013(8) 0.004(8)
C2 0.035(9) 0.036(9) 0.030(8) -0.010(7) -0.003(7) 0.014(7)
C3 0.060(10) 0.033(8) 0.049(11) -0.006(7) -0.008(8) 0.033(8)
C4 0.072(12) 0.026(8) 0.029(9) 0.019(6) -0.006(8) -0.008(8)
C5 0.036(8) 0.031(7) 0.033(8) -0.024(7) 0.008(8) 0.008(6)
C6 0.031(7) 0.041(8) 0.026(7) -0.017(7) 0.008(7) -0.006(6)
N1 0.040(7) 0.015(6) 0.020(6) 0.006(5) -0.012(5) -0.002(5)
N2 0.037(7) 0.053(8) 0.019(6) 0.003(5) 0.007(5) 0.013(6)
N3 0.048(9) 0.042(9) 0.045(9) 0.000(7) -0.002(7) 0.020(7)
N4 0.042(7) 0.026(6) 0.024(7) -0.009(5) -0.005(5) 0.002(5)
N5 0.030(7) 0.034(7) 0.031(6) -0.001(5) -0.004(5) 0.010(6)
N6 0.019(6) 0.044(8) 0.052(10) 0.009(6) 0.012(6) -0.009(6)
N7 0.037(7) 0.018(6) 0.037(8) 0.002(5) 0.007(6) 0.005(5)
N8 0.029(7) 0.032(7) 0.037(7) 0.007(5) 0.005(5) 0.002(6)
O1 0.049(6) 0.040(6) 0.022(5) 0.013(4) 0.010(4) 0.015(5)
Cu1A 0.0314 0.0242 0.029 -0.0007 0.0062 -0.0017
Cu1B 0.0242 0.0314 0.029 0.0062 0.0007 0.0017
N4C 0.026 0.042 0.024 0.005 -0.009 -0.002
N8B 0.029 0.032 0.037 -0.007 -0.005 0.002
loop_
_geom_bond_atom_site_label_1
_geom_bond_atom_site_label_2
_geom_bond_site_symmetry_1
_geom_bond_site_symmetry_2
Cu1 N1 1_555 1_555
C1 C2 1_555 1_555
C2 H1 1_555 1_555
H2 C2 1_555 1_555
C3 C2 1_555 1_555
H3 C3 1_555 1_555
H4 C3 1_555 1_555
C4 H5 1_555 1_555
H6 C4 1_555 1_555
C5 C4 1_555 1_555
H7 C5 1_555 1_555
H8 C5 1_555 1_555
C6 C5 1_555 1_555
N1 C1 1_555 1_555
N2 N1 1_555 1_555
N3 N2 1_555 1_555
N4 C1 1_555 1_555
N5 Cu1 1_555 1_555
N6 N5 1_555 1_555
N7 N6 1_555 1_555
N8 C6 1_555 1_555
O1 Cu1 1_555 1_555
Cu1A N4 1_555 1_555
Cu1B N8 1_555 1_555
N4C Cu1 1_555 1_555
N8B Cu1 1_555 1_555
C3 O1 1_555 1_555
C4 O1 1_555 1_555
C6 N5 1_555 1_555
N3 N4 1_555 1_555
N7 N8 1_555 1_555

#END
