
#######################################################################
#
#                 Cambridge Crystallographic Data Centre
#                                CCDC 
#
#######################################################################
#
# If this CIF has been generated from an entry in the Cambridge 
# Structural Database, then it will include bibliographic, chemical, 
# crystal, experimental, refinement or atomic coordinate data resulting 
# from the CCDC's data processing and validation procedures.
#
#######################################################################

data_CAYDOX04
_chemical_formula_moiety         '(C6 H8 Cu1 N8 O1)n'
_symmetry_cell_setting           tetragonal
_symmetry_space_group_name_H-M   'P 41'
_symmetry_Int_Tables_number      76
_space_group_name_Hall           'P 4w'
loop_
_symmetry_equiv_pos_site_id
_symmetry_equiv_pos_as_xyz
1 x,y,z
2 -y,x,1/4+z
3 -x,-y,1/2+z
4 y,-x,3/4+z
_cell_length_a                   12.3933(3)
_cell_length_b                   12.3933(3)
_cell_length_c                   7.9318(3)
_cell_angle_alpha                90
_cell_angle_beta                 90
_cell_angle_gamma                90
_cell_volume                     1218.28
loop_
_atom_site_label
_atom_site_type_symbol
_atom_site_fract_x
_atom_site_fract_y
_atom_site_fract_z
_atom_site_U_iso_or_equiv
_atom_site_thermal_displace_type
Cu1 Cu 0.51421(10) 0.82271(10) -0.07160(15) 0.0261 Uani
C1 C 0.6651(10) 0.6448(10) -0.1510(14) 0.0280 Uani
C2 C 0.6752(12) 0.6180(11) 0.0319(15) 0.0387 Uani
H1 H 0.7219 0.5556 0.0437 0.0460 Uiso
H2 H 0.6046 0.5982 0.0747 0.0460 Uiso
C3 C 0.7196(11) 0.7085(10) 0.1388(16) 0.0437 Uani
H3 H 0.7261 0.6846 0.2548 0.0520 Uiso
H4 H 0.7909 0.7282 0.0988 0.0520 Uiso
C4 C 0.6804(10) 0.8893(11) 0.2459(16) 0.0440 Uani
H5 H 0.6574 0.8716 0.3595 0.0530 Uiso
H6 H 0.7582 0.8973 0.2469 0.0530 Uiso
C5 C 0.6318(9) 0.9899(10) 0.1956(19) 0.0377 Uani
H7 H 0.6578 1.0083 0.0840 0.0450 Uiso
H8 H 0.6560 1.0459 0.2722 0.0450 Uiso
C6 C 0.5126(9) 0.9904(8) 0.1925(18) 0.0263 Uani
N1 N 0.5980(8) 0.7253(8) -0.2061(11) 0.0293 Uani
N2 N 0.6053(9) 0.7245(9) -0.3790(12) 0.0387 Uani
N3 N 0.6719(9) 0.6455(10) -0.4228(13) 0.0420 Uani
N4 N 0.7115(7) 0.5939(8) -0.2797(11) 0.0273 Uani
N5 N 0.4549(7) 0.9232(7) 0.0971(12) 0.0293 Uani
N6 N 0.3504(8) 0.9461(8) 0.1268(12) 0.0297 Uani
N7 N 0.3465(9) 1.0233(9) 0.2353(14) 0.0383 Uani
N8 N 0.4483(7) 1.0528(7) 0.2780(11) 0.0273 Uani
O1 O 0.6506(6) 0.7993(7) 0.1307(9) 0.0397 Uani
Cu1B Cu 0.48579(10) 1.17729(10) 0.42840(15) 0.0261 Uani
Cu1C Cu 0.82271(10) 0.48579(10) -0.32160(15) 0.0261 Uani
N4A N 0.4061(8) 0.7115(7) -0.0297(11) 0.0273 Uani
N8B N 0.5517(7) 0.9472(7) -0.2220(11) 0.0273 Uani
loop_
_atom_site_aniso_label
_atom_site_aniso_U_11
_atom_site_aniso_U_22
_atom_site_aniso_U_33
_atom_site_aniso_U_23
_atom_site_aniso_U_13
_atom_site_aniso_U_12
Cu1 0.0286(7) 0.0229(7) 0.0268(7) 0.0002(6) 0.0041(7) 0.0005(7)
C1 0.028(6) 0.022(6) 0.034(7) 0.007(6) -0.006(6) -0.008(6)
C2 0.050(8) 0.039(8) 0.027(7) 0.002(6) 0.006(6) 0.000(7)
C3 0.049(8) 0.054(8) 0.028(8) 0.000(6) -0.007(6) 0.015(7)
C4 0.028(6) 0.069(10) 0.035(8) -0.021(7) -0.006(6) -0.005(7)
C5 0.033(6) 0.040(7) 0.040(8) -0.014(7) 0.003(7) -0.001(6)
C6 0.039(6) 0.015(5) 0.025(6) 0.004(5) -0.009(6) -0.005(5)
N1 0.033(6) 0.029(5) 0.026(5) 0.003(4) -0.005(4) 0.002(5)
N2 0.045(6) 0.048(6) 0.023(5) 0.001(5) -0.003(5) 0.011(6)
N3 0.043(7) 0.055(8) 0.028(6) -0.005(6) 0.003(5) 0.008(7)
N4 0.024(5) 0.040(6) 0.018(5) -0.003(4) 0.002(4) 0.005(5)
N5 0.029(5) 0.028(5) 0.031(5) 0.000(5) -0.001(4) -0.001(5)
N6 0.024(5) 0.028(5) 0.037(7) -0.006(5) -0.001(5) 0.004(5)
N7 0.031(6) 0.039(6) 0.045(7) -0.007(5) 0.002(5) 0.009(6)
N8 0.031(6) 0.018(5) 0.033(6) -0.006(4) 0.002(5) 0.003(5)
O1 0.034(4) 0.052(5) 0.033(5) -0.009(4) -0.009(4) 0.017(5)
Cu1B 0.0286 0.0229 0.0268 -0.0002 -0.0041 0.0005
Cu1C 0.0229 0.0286 0.0268 -0.0041 0.0002 -0.0005
N4A 0.04 0.024 0.018 0.002 0.003 -0.005
N8B 0.031 0.018 0.033 0.006 -0.002 0.003
loop_
_geom_bond_atom_site_label_1
_geom_bond_atom_site_label_2
_geom_bond_site_symmetry_1
_geom_bond_site_symmetry_2
Cu1 N1 1_555 1_555
C1 C2 1_555 1_555
C2 H1 1_555 1_555
H2 C2 1_555 1_555
C3 C2 1_555 1_555
H3 C3 1_555 1_555
H4 C3 1_555 1_555
C4 H5 1_555 1_555
H6 C4 1_555 1_555
C5 C4 1_555 1_555
H7 C5 1_555 1_555
H8 C5 1_555 1_555
C6 C5 1_555 1_555
N1 C1 1_555 1_555
N2 N1 1_555 1_555
N3 N2 1_555 1_555
N4 C1 1_555 1_555
N5 Cu1 1_555 1_555
N6 N5 1_555 1_555
N7 N6 1_555 1_555
N8 C6 1_555 1_555
O1 Cu1 1_555 1_555
Cu1B N8 1_555 1_555
Cu1C N4 1_555 1_555
N4A Cu1 1_555 1_555
N8B Cu1 1_555 1_555
C3 O1 1_555 1_555
C4 O1 1_555 1_555
C6 N5 1_555 1_555
N3 N4 1_555 1_555
N7 N8 1_555 1_555

#END
