
#######################################################################
#
#                 Cambridge Crystallographic Data Centre
#                                CCDC 
#
#######################################################################
#
# If this CIF has been generated from an entry in the Cambridge 
# Structural Database, then it will include bibliographic, chemical, 
# crystal, experimental, refinement or atomic coordinate data resulting 
# from the CCDC's data processing and validation procedures.
#
#######################################################################

data_CAYGIU
_chemical_formula_moiety         '(C6 H8 Cu1 N8 O1)n'
_symmetry_cell_setting           tetragonal
_symmetry_space_group_name_H-M   'P 43'
_symmetry_Int_Tables_number      78
_space_group_name_Hall           'P 4cw'
loop_
_symmetry_equiv_pos_site_id
_symmetry_equiv_pos_as_xyz
1 x,y,z
2 -y,x,3/4+z
3 -x,-y,1/2+z
4 y,-x,1/4+z
_cell_length_a                   12.37510(10)
_cell_length_b                   12.37510(10)
_cell_length_c                   7.92260(10)
_cell_angle_alpha                90
_cell_angle_beta                 90
_cell_angle_gamma                90
_cell_volume                     1213.29
loop_
_atom_site_label
_atom_site_type_symbol
_atom_site_fract_x
_atom_site_fract_y
_atom_site_fract_z
_atom_site_U_iso_or_equiv
_atom_site_thermal_displace_type
Cu1 Cu 0.82295(4) 0.51425(4) 0.07073(7) 0.0252 Uani
C1 C 0.6458(4) 0.6649(4) -0.0085(7) 0.0277 Uani
C2 C 0.6182(5) 0.6770(5) 0.1739(7) 0.0360 Uani
H1 H 0.5972 0.6070 0.2180 0.0440 Uiso
H2 H 0.5564 0.7248 0.1838 0.0440 Uiso
C3 C 0.7084(5) 0.7210(5) 0.2808(7) 0.0440 Uani
H3 H 0.7284 0.7924 0.2411 0.0530 Uiso
H4 H 0.6844 0.7274 0.3969 0.0530 Uiso
C4 C 0.8846(5) 0.6817(5) 0.3892(8) 0.0430 Uani
H5 H 0.8659 0.6575 0.5019 0.0520 Uiso
H6 H 0.8912 0.7598 0.3914 0.0520 Uiso
C5 C 0.9900(5) 0.6330(4) 0.3378(9) 0.0383 Uani
H7 H 1.0087 0.6594 0.2264 0.0460 Uiso
H8 H 1.0455 0.6572 0.4154 0.0460 Uiso
C6 C 0.9900(4) 0.5127(4) 0.3344(8) 0.0277 Uani
N1 N 0.7248(4) 0.6000(4) -0.0649(6) 0.0290 Uani
N2 N 0.7242(4) 0.6071(4) -0.2351(6) 0.0370 Uani
N3 N 0.6461(4) 0.6725(4) -0.2806(6) 0.0393 Uani
N4 N 0.5964(3) 0.7102(3) -0.1384(5) 0.0280 Uani
N5 N 0.9229(3) 0.4542(3) 0.2390(6) 0.0293 Uani
N6 N 0.9458(4) 0.3510(3) 0.2693(6) 0.0320 Uani
N7 N 1.0239(4) 0.3458(4) 0.3780(7) 0.0353 Uani
N8 N 1.0523(3) 0.4481(4) 0.4206(6) 0.0293 Uani
O1 O 0.8002(3) 0.6509(3) 0.2727(5) 0.0387 Uani
Cu1A Cu 0.48575(4) 0.82295(4) -0.17927(7) 0.0252 Uani
Cu1B Cu 1.17705(4) 0.48575(4) 0.57073(7) 0.0252 Uani
N4C N 0.7102(3) 0.4036(3) 0.1116(5) 0.0280 Uani
N8B N 0.9477(3) 0.5519(4) -0.0794(6) 0.0293 Uani
loop_
_atom_site_aniso_label
_atom_site_aniso_U_11
_atom_site_aniso_U_22
_atom_site_aniso_U_33
_atom_site_aniso_U_23
_atom_site_aniso_U_13
_atom_site_aniso_U_12
Cu1 0.0212(3) 0.0277(3) 0.0266(3) 0.0045(3) 0.0000(2) 0.0008(2)
C1 0.023(3) 0.029(3) 0.031(3) 0.000(3) 0.001(2) 0.000(2)
C2 0.033(3) 0.048(4) 0.027(3) 0.004(3) 0.004(2) 0.014(3)
C3 0.053(4) 0.053(4) 0.026(3) -0.008(3) -0.003(3) 0.024(3)
C4 0.058(4) 0.033(3) 0.038(3) -0.010(3) -0.011(3) 0.006(3)
C5 0.040(3) 0.029(3) 0.046(4) 0.004(3) -0.014(3) -0.005(2)
C6 0.022(2) 0.033(3) 0.028(2) 0.000(2) -0.002(2) -0.0016(19)
N1 0.028(2) 0.034(2) 0.025(2) 0.0026(19) 0.0019(18) 0.0049(19)
N2 0.040(3) 0.045(3) 0.026(2) -0.002(2) 0.002(2) 0.014(2)
N3 0.047(3) 0.045(3) 0.026(3) 0.002(2) -0.001(2) 0.016(2)
N4 0.032(2) 0.028(2) 0.024(2) -0.0012(17) -0.0019(17) 0.0087(17)
N5 0.024(2) 0.030(2) 0.034(2) 0.0021(19) -0.0032(19) -0.0034(18)
N6 0.031(2) 0.025(2) 0.040(3) 0.0013(19) -0.006(2) 0.0022(19)
N7 0.036(3) 0.026(2) 0.044(3) 0.001(2) -0.010(2) 0.003(2)
N8 0.023(2) 0.033(2) 0.032(2) -0.0025(19) -0.0046(19) 0.0018(18)
O1 0.042(2) 0.038(2) 0.036(2) -0.0115(17) -0.0093(17) 0.0140(17)
Cu1A 0.0277 0.0212 0.0266 0 -0.0045 -0.0008
Cu1B 0.0212 0.0277 0.0266 -0.0045 0 0.0008
N4C 0.028 0.032 0.024 0.0019 -0.0012 -0.0087
N8B 0.023 0.033 0.032 0.0025 0.0046 0.0018
loop_
_geom_bond_atom_site_label_1
_geom_bond_atom_site_label_2
_geom_bond_site_symmetry_1
_geom_bond_site_symmetry_2
Cu1 N1 1_555 1_555
C1 C2 1_555 1_555
C2 H1 1_555 1_555
H2 C2 1_555 1_555
C3 C2 1_555 1_555
H3 C3 1_555 1_555
H4 C3 1_555 1_555
C4 H5 1_555 1_555
H6 C4 1_555 1_555
C5 C4 1_555 1_555
H7 C5 1_555 1_555
H8 C5 1_555 1_555
C6 C5 1_555 1_555
N1 C1 1_555 1_555
N2 N1 1_555 1_555
N3 N2 1_555 1_555
N4 C1 1_555 1_555
N5 Cu1 1_555 1_555
N6 N5 1_555 1_555
N7 N6 1_555 1_555
N8 C6 1_555 1_555
O1 Cu1 1_555 1_555
Cu1A N4 1_555 1_555
Cu1B N8 1_555 1_555
N4C Cu1 1_555 1_555
N8B Cu1 1_555 1_555
C3 O1 1_555 1_555
C4 O1 1_555 1_555
C6 N5 1_555 1_555
N3 N4 1_555 1_555
N7 N8 1_555 1_555

#END
