
#######################################################################
#
#                 Cambridge Crystallographic Data Centre
#                                CCDC 
#
#######################################################################
#
# If this CIF has been generated from an entry in the Cambridge 
# Structural Database, then it will include bibliographic, chemical, 
# crystal, experimental, refinement or atomic coordinate data resulting 
# from the CCDC's data processing and validation procedures.
#
#######################################################################

data_EDOYOL
_chemical_formula_moiety         '(C12 H56 Co10 N8 O43 P10)n'
_symmetry_cell_setting           monoclinic
_symmetry_space_group_name_H-M   'P n'
_symmetry_Int_Tables_number      7
_space_group_name_Hall           'P -2yac'
loop_
_symmetry_equiv_pos_site_id
_symmetry_equiv_pos_as_xyz
1 x,y,z
2 1/2+x,-y,1/2+z
_cell_length_a                   13.0469(14)
_cell_length_b                   14.1260(16)
_cell_length_c                   14.2105(16)
_cell_angle_alpha                90
_cell_angle_beta                 91.110(2)
_cell_angle_gamma                90
_cell_volume                     2618.51
loop_
_atom_site_label
_atom_site_type_symbol
_atom_site_fract_x
_atom_site_fract_y
_atom_site_fract_z
Co1 Co 0.23061(6) 0.12332(6) 0.26302(6)
Co2 Co -0.05662(7) -0.00097(6) 0.31871(7)
Co3 Co 0.24346(7) -0.12783(6) 0.28350(6)
Co4 Co 0.15621(6) 0.00824(6) 0.67085(7)
Co5 Co 0.61457(6) 0.02064(6) 0.41433(6)
Co6 Co -0.25370(6) -0.37530(6) 0.31763(6)
Co7 Co -0.22103(6) 0.37874(6) 0.30324(6)
Co8 Co 0.05276(6) 0.53225(7) 0.27137(7)
Co9 Co 0.34079(7) 0.48494(6) 0.41552(7)
Co10 Co 0.37790(7) 0.48211(7) 0.16890(7)
P1 P 0.09689(15) -0.01613(13) 0.14303(14)
P2 P 0.14257(14) -0.00223(13) 0.43721(14)
P3 P -0.22859(13) 0.14551(13) 0.30124(14)
P4 P 0.43707(14) 0.01270(14) 0.26139(15)
P5 P -0.25037(13) -0.14133(12) 0.33134(13)
P6 P -0.14574(13) 0.53381(13) 0.14634(13)
P7 P -0.09925(14) 0.50924(13) 0.43940(14)
P8 P 0.56060(14) 0.48275(13) 0.31834(15)
P9 P 0.25166(14) -0.35548(12) 0.28721(14)
P10 P 0.22016(13) 0.36006(12) 0.25666(14)
O1 O 0.1396(4) -0.1092(4) 0.1841(4)
O2 O 0.1764(4) 0.0635(4) 0.1471(4)
O3 O -0.0010(4) 0.0110(4) 0.1947(4)
O4 O 0.2046(5) -0.0899(5) 0.4069(4)
O5 O 0.1577(5) 0.0803(5) 0.3706(4)
O6 O 0.0288(4) -0.0285(5) 0.4311(4)
O7 O 0.1747(4) 0.0246(4) 0.5371(4)
O8 O -0.2410(4) 0.0833(4) 0.2124(4)
O9 O -0.3214(4) 0.1369(4) 0.3661(4)
O10 O -0.1317(4) 0.1105(4) 0.3561(4)
O11 O -0.2141(4) 0.2472(3) 0.2710(4)
O12 O 0.5155(4) 0.0264(4) 0.1837(4)
O13 O 0.4859(4) -0.0147(4) 0.3551(4)
O14 O 0.3780(4) 0.1058(4) 0.2721(5)
O15 O 0.3626(4) -0.0657(4) 0.2294(4)
O16 O -0.3163(4) -0.1222(3) 0.2420(4)
O17 O 0.0663(4) -0.0337(4) 0.0401(4)
O18 O -0.2832(4) -0.0804(4) 0.4140(4)
O19 O -0.1349(4) -0.1218(4) 0.3127(4)
O20 O -0.2604(4) -0.2453(3) 0.3616(4)
O21 O -0.1980(4) 0.5667(4) 0.4301(4)
O22 O -0.1779(4) 0.6227(4) 0.2025(4)
O23 O -0.1851(4) 0.5437(4) 0.0452(4)
O24 O -0.0289(4) 0.5282(5) 0.1510(4)
O25 O -0.1963(5) 0.4475(4) 0.1876(4)
O26 O -0.1134(4) 0.4122(4) 0.3923(4)
O27 O -0.0112(4) 0.5623(4) 0.3906(4)
O28 O 0.6441(3) 0.4106(4) 0.3477(4)
O29 O 0.4879(4) 0.4897(4) 0.4005(5)
O30 O 0.6066(4) 0.5802(4) 0.2996(4)
O31 O 0.5074(4) 0.4459(4) 0.2287(4)
O32 O -0.0689(4) 0.4984(4) 0.5424(4)
O33 O 0.3210(5) -0.4023(4) 0.2158(5)
O34 O 0.1402(4) -0.3561(4) 0.2514(5)
O35 O 0.2905(5) -0.2535(4) 0.2973(5)
O36 O 0.2589(4) -0.4064(4) 0.3822(4)
O37 O 0.3030(4) 0.3781(4) 0.3315(4)
O38 O 0.1208(4) 0.4118(4) 0.2792(4)
O39 O 0.1939(4) 0.2551(4) 0.2516(4)
O40 O 0.2621(4) 0.3915(4) 0.1607(4)
O8A O 0.2590(4) -0.0833(4) 0.7124(4)
O12A O 0.0155(4) -0.0264(4) 0.6837(4)
O16A O 0.1837(4) 0.1222(3) 0.7420(4)
O9_2 O 0.6786(4) 0.1369(4) 0.3661(4)
O17A O 0.5663(4) 0.0337(4) 0.5401(4)
O18_2 O 0.7168(4) -0.0804(4) 0.4140(4)
O21_2 O -0.1980(4) -0.4333(4) 0.4301(4)
O22_2 O -0.1779(4) -0.3773(4) 0.2025(4)
O30_2 O -0.3934(4) -0.4198(4) 0.2996(4)
O28_2 O -0.3559(3) 0.4106(4) 0.3477(4)
O34_2 O 0.1402(4) 0.6439(4) 0.2514(5)
O23A O 0.3149(4) 0.4563(4) 0.5452(4)
O36_2 O 0.2589(4) 0.5936(4) 0.3822(4)
O32A O 0.4311(4) 0.5016(4) 0.0424(4)
O33_2 O 0.3210(5) 0.5977(4) 0.2158(5)
Co4A Co -0.34379(6) -0.00824(6) 0.17085(7)
Co5_2 Co -0.38543(6) 0.02064(6) 0.41433(6)
Co4A_2 Co 0.65621(6) -0.00824(6) 0.17085(7)
Co5A Co 0.11457(6) -0.02064(6) -0.08567(6)
Co6_2 Co -0.25370(6) 0.62470(6) 0.31763(6)
Co9A Co -0.15921(7) 0.51506(6) -0.08448(7)
Co7_2 Co 0.77897(6) 0.37874(6) 0.30324(6)
Co6_3 Co 0.74630(6) 0.62470(6) 0.31763(6)
Co10A Co -0.12210(7) 0.51789(7) 0.66890(7)
Co10_2 Co 0.37790(7) -0.51789(7) 0.16890(7)
Co8_2 Co 0.05276(6) -0.46775(7) 0.27137(7)
Co9_2 Co 0.34079(7) -0.51506(6) 0.41552(7)
O41 O 0.1578(5) 0.5604(5) 0.0498(5)
O42 O 0.3533(5) 0.9747(5) 0.0377(5)
O43 O 0.7242(6) 0.2364(5) 0.5410(6)
C1 C 0.4755(6) 0.2428(6) 0.4540(5)
H1 H 0.5047 0.2975 0.4859
H2 H 0.5185 0.1886 0.4687
C2 C 0.3661(6) 0.2248(6) 0.4905(6)
H3 H 0.3316 0.2849 0.4991
H4 H 0.3272 0.1886 0.4441
C3 C 0.3691(7) 0.1716(6) 0.5825(6)
H5 H 0.3959 0.1085 0.5719
H6 H 0.2997 0.1650 0.6051
N1 N 0.4750(5) 0.2594(5) 0.3510(5)
H7 H 0.4605 0.2056 0.3211
H8 H 0.5365 0.2799 0.3340
H9 H 0.4279 0.3027 0.3361
N2 N 0.4339(6) 0.2198(5) 0.6572(6)
H10 H 0.4993 0.2188 0.6406
H11 H 0.4273 0.1896 0.7117
H12 H 0.4134 0.2795 0.6635
C4 C 0.1589(6) 0.6904(6) 0.5609(6)
H13 H 0.1833 0.7082 0.4994
H14 H 0.2147 0.6997 0.6060
C5 C 0.0713(8) 0.7541(7) 0.5863(7)
H15 H 0.0969 0.8186 0.5894
H16 H 0.0494 0.7372 0.6489
C6 C -0.0219(8) 0.7527(7) 0.5210(8)
H17 H -0.0572 0.6928 0.5278
H18 H -0.0685 0.8027 0.5392
N3 N 0.1310(5) 0.5898(5) 0.5594(5)
H19 H 0.0876 0.5779 0.6055
H20 H 0.1872 0.5547 0.5675
H21 H 0.1013 0.5757 0.5042
N4 N 0.0051(7) 0.7657(5) 0.4220(6)
H22 H 0.0420 0.8183 0.4162
H23 H -0.0519 0.7704 0.3869
H24 H 0.0416 0.7162 0.4030
C7 C -0.0658(10) 0.1945(9) 0.0695(11)
H25 H -0.1141 0.2386 0.0966
H26 H -0.0132 0.1807 0.1167
C8 C -0.0195(10) 0.2370(9) -0.0126(8)
H27 H -0.0710 0.2680 -0.0519
H28 H 0.0149 0.1894 -0.0497
C9 C 0.0593(7) 0.3107(7) 0.0279(9)
H29 H 0.0653 0.3636 -0.0152
H30 H 0.0361 0.3348 0.0877
N5 N -0.1229(5) 0.1007(5) 0.0406(5)
H31 H -0.1661 0.1124 -0.0071
H32 H -0.1575 0.0790 0.0894
H33 H -0.0772 0.0577 0.0233
N6 N 0.1613(5) 0.2632(5) 0.0409(5)
H34 H 0.1530 0.2079 0.0697
H35 H 0.2026 0.2999 0.0757
H36 H 0.1891 0.2536 -0.0151
C10 C 0.0662(12) 0.2879(10) 0.6152(15)
H37 H 0.0683 0.3555 0.6035
H38 H 0.1352 0.2622 0.6144
C11 C 0.0076(10) 0.2463(9) 0.5595(17)
H39 H -0.0599 0.2748 0.5543
H40 H 0.0026 0.1788 0.5710
C12 C 0.0835(10) 0.2737(10) 0.4715(8)
H41 H 0.1063 0.3389 0.4765
H42 H 0.1431 0.2327 0.4713
N7 N -0.0002(5) 0.2591(5) 0.7266(5)
H43 H -0.0672 0.2697 0.7191
H44 H 0.0246 0.2954 0.7729
H45 H 0.0101 0.1985 0.7410
N8 N 0.0220(6) 0.2601(5) 0.3884(6)
H46 H -0.0122 0.2059 0.3927
H47 H 0.0621 0.2583 0.3385
H48 H -0.0223 0.3078 0.3822
loop_
_geom_bond_atom_site_label_1
_geom_bond_atom_site_label_2
_geom_bond_site_symmetry_1
_geom_bond_site_symmetry_2
Co1 O2 1_555 1_555
Co2 O3 1_555 1_555
Co3 O1 1_555 1_555
Co4 O7 1_555 1_555
Co5 O13 1_555 1_555
Co6 O20 1_555 1_555
Co7 O11 1_555 1_555
Co8 O24 1_555 1_555
Co9 O29 1_555 1_555
Co10 O31 1_555 1_555
P1 O1 1_555 1_555
P2 O4 1_555 1_555
P3 O8 1_555 1_555
P4 O12 1_555 1_555
P5 O16 1_555 1_555
P6 O22 1_555 1_555
P7 O21 1_555 1_555
P8 O28 1_555 1_555
P9 O33 1_555 1_555
P10 O37 1_555 1_555
O2 P1 1_555 1_555
O3 P1 1_555 1_555
O4 Co3 1_555 1_555
O5 Co1 1_555 1_555
O6 Co2 1_555 1_555
O7 P2 1_555 1_555
O8 Co4A 1_555 1_555
O9 P3 1_555 1_555
O10 Co2 1_555 1_555
O11 P3 1_555 1_555
O12 Co4A_2 1_555 1_555
O13 P4 1_555 1_555
O14 Co1 1_555 1_555
O15 Co3 1_555 1_555
O16 Co4A 1_555 1_555
O17 P1 1_555 1_555
O18 P5 1_555 1_555
O19 Co2 1_555 1_555
O20 P5 1_555 1_555
O21 Co6_2 1_555 1_555
O22 Co6_2 1_555 1_555
O23 P6 1_555 1_555
O24 P6 1_555 1_555
O25 Co7 1_555 1_555
O26 Co7 1_555 1_555
O27 Co8 1_555 1_555
O28 Co7_2 1_555 1_555
O29 P8 1_555 1_555
O30 P8 1_555 1_555
O31 P8 1_555 1_555
O32 P7 1_555 1_555
O33 Co10_2 1_555 1_555
O34 P9 1_555 1_555
O35 Co3 1_555 1_555
O36 P9 1_555 1_555
O37 Co9 1_555 1_555
O38 Co8 1_555 1_555
O39 Co1 1_555 1_555
O40 Co10 1_555 1_555
C1 H1 1_555 1_555
H2 C1 1_555 1_555
C2 C1 1_555 1_555
H3 C2 1_555 1_555
H4 C2 1_555 1_555
C3 C2 1_555 1_555
H5 C3 1_555 1_555
H6 C3 1_555 1_555
N1 C1 1_555 1_555
H7 N1 1_555 1_555
H8 N1 1_555 1_555
H9 N1 1_555 1_555
N2 C3 1_555 1_555
H10 N2 1_555 1_555
H11 N2 1_555 1_555
H12 N2 1_555 1_555
C4 H13 1_555 1_555
H14 C4 1_555 1_555
C5 C4 1_555 1_555
H15 C5 1_555 1_555
H16 C5 1_555 1_555
C6 C5 1_555 1_555
H17 C6 1_555 1_555
H18 C6 1_555 1_555
N3 C4 1_555 1_555
H19 N3 1_555 1_555
H20 N3 1_555 1_555
H21 N3 1_555 1_555
N4 C6 1_555 1_555
H22 N4 1_555 1_555
H23 N4 1_555 1_555
H24 N4 1_555 1_555
C7 H25 1_555 1_555
H26 C7 1_555 1_555
C8 C7 1_555 1_555
H27 C8 1_555 1_555
H28 C8 1_555 1_555
C9 C8 1_555 1_555
H29 C9 1_555 1_555
H30 C9 1_555 1_555
N5 C7 1_555 1_555
H31 N5 1_555 1_555
H32 N5 1_555 1_555
H33 N5 1_555 1_555
N6 C9 1_555 1_555
H34 N6 1_555 1_555
H35 N6 1_555 1_555
H36 N6 1_555 1_555
C10 H37 1_555 1_555
H38 C10 1_555 1_555
C11 C10 1_555 1_555
H39 C11 1_555 1_555
H40 C11 1_555 1_555
C12 C11 1_555 1_555
H41 C12 1_555 1_555
H42 C12 1_555 1_555
N7 C10 1_555 1_555
H43 N7 1_555 1_555
H44 N7 1_555 1_555
H45 N7 1_555 1_555
N8 C12 1_555 1_555
H46 N8 1_555 1_555
H47 N8 1_555 1_555
H48 N8 1_555 1_555
O8A Co4 1_555 1_555
O12A Co4 1_555 1_555
O16A Co4 1_555 1_555
O9_2 Co5 1_555 1_555
O17A Co5 1_555 1_555
O18_2 Co5 1_555 1_555
O21_2 Co6 1_555 1_555
O22_2 Co6 1_555 1_555
O30_2 Co6 1_555 1_555
O28_2 Co7 1_555 1_555
O34_2 Co8 1_555 1_555
O23A Co9 1_555 1_555
O36_2 Co9 1_555 1_555
O32A Co10 1_555 1_555
O33_2 Co10 1_555 1_555
Co5_2 O9 1_555 1_555
Co5A O17 1_555 1_555
Co9A O23 1_555 1_555
Co6_3 O30 1_555 1_555
Co10A O32 1_555 1_555
Co8_2 O34 1_555 1_555
Co9_2 O36 1_555 1_555
P2 O5 1_555 1_555
P2 O6 1_555 1_555
P3 O10 1_555 1_555
P4 O14 1_555 1_555
P4 O15 1_555 1_555
P5 O19 1_555 1_555
P6 O25 1_555 1_555
P7 O26 1_555 1_555
P7 O27 1_555 1_555
P9 O35 1_555 1_555
P10 O38 1_555 1_555
P10 O39 1_555 1_555
P10 O40 1_555 1_555
O18 Co5_2 1_555 1_555

#END
