
#######################################################################
#
#                 Cambridge Crystallographic Data Centre
#                                CCDC 
#
#######################################################################
#
# If this CIF has been generated from an entry in the Cambridge 
# Structural Database, then it will include bibliographic, chemical, 
# crystal, experimental, refinement or atomic coordinate data resulting 
# from the CCDC's data processing and validation procedures.
#
#######################################################################

data_FAVGOB
_chemical_formula_moiety         '(C26 H34 O22 Sm2)n'
_symmetry_cell_setting           monoclinic
_symmetry_space_group_name_H-M   'P 21'
_symmetry_Int_Tables_number      4
_space_group_name_Hall           'P 2yb'
loop_
_symmetry_equiv_pos_site_id
_symmetry_equiv_pos_as_xyz
1 x,y,z
2 -x,1/2+y,-z
_cell_length_a                   11.900(2)
_cell_length_b                   12.494(3)
_cell_length_c                   12.539(3)
_cell_angle_alpha                90
_cell_angle_beta                 98.76(3)
_cell_angle_gamma                90
_cell_volume                     1842.53
loop_
_atom_site_label
_atom_site_type_symbol
_atom_site_fract_x
_atom_site_fract_y
_atom_site_fract_z
C1 C 0.5155(6) 0.6598(5) 0.5095(5)
C2 C 0.6112(5) 0.6258(5) 0.4700(5)
H1 H 0.6741 0.6004 0.5162
C3 C 0.6116(5) 0.6305(5) 0.3598(5)
C4 C 0.5171(5) 0.6659(5) 0.2894(5)
H2 H 0.5189 0.6695 0.2156
C5 C 0.4202(5) 0.6956(5) 0.3308(5)
C6 C 0.4194(5) 0.6972(5) 0.4414(5)
H3 H 0.3566 0.7226 0.4696
C7 C 0.5130(5) 0.6590(5) 0.6287(4)
C8 C 0.7210(5) 0.6202(5) 0.2157(5)
H4 H 0.6975 0.6940 0.1976
C9 C 0.6422(4) 0.5439(5) 0.1411(4)
C10 C 0.8441(6) 0.6082(7) 0.2021(6)
H5 H 0.8891 0.6599 0.2464
H6 H 0.8519 0.6196 0.1279
H7 H 0.8698 0.5374 0.2234
C11 C 0.3078(5) 0.7043(5) 0.1559(5)
H8 H 0.3390 0.6333 0.1451
C12 C 0.3678(4) 0.7851(5) 0.0951(4)
C13 C 0.1811(6) 0.7021(6) 0.1159(6)
H9 H 0.1455 0.6505 0.1566
H10 H 0.1681 0.6827 0.0409
H11 H 0.1494 0.7716 0.1247
C14 C -0.0208(5) 0.4540(5) 0.9091(5)
C15 C 0.0375(5) 0.4513(5) 1.0123(5)
H12 H -0.0003 0.4651 1.0705
C16 C 0.1533(5) 0.4280(5) 1.0298(5)
C17 C 0.2100(5) 0.4093(5) 0.9431(5)
H13 H 0.2877 0.3951 0.9540
C18 C 0.1480(5) 0.4121(5) 0.8377(5)
C19 C 0.0333(5) 0.4339(5) 0.8208(5)
H14 H -0.0072 0.4352 0.7513
C20 C -0.1449(5) 0.4810(5) 0.8917(4)
C21 C 0.3132(5) 0.4269(5) 0.7512(6)
H15 H 0.3633 0.3797 0.7994
C22 C 0.3275(5) 0.5420(5) 0.7913(5)
C23 C 0.3417(7) 0.4192(6) 0.6384(6)
H16 H 0.3247 0.3484 0.6107
H17 H 0.4212 0.4336 0.6398
H18 H 0.2976 0.4705 0.5929
C24 C 0.3180(5) 0.3999(5) 1.1629(6)
H19 H 0.3658 0.4468 1.1261
C25 C 0.3381(5) 0.2839(5) 1.1357(4)
C26 C 0.3468(7) 0.4143(7) 1.2851(6)
H20 H 0.3299 0.4864 1.3039
H21 H 0.4261 0.4002 1.3076
H22 H 0.3023 0.3654 1.3205
O1 O 0.4362(4) 0.7143(4) 0.6623(3)
O2 O 0.5838(4) 0.6023(4) 0.6864(3)
O3 O 0.7117(4) 0.6019(4) 0.3254(3)
O4 O 0.6202(5) 0.4549(4) 0.1744(4)
O5 O 0.6095(4) 0.5789(4) 0.0467(3)
O6 O 0.3211(4) 0.7250(4) 0.2674(3)
O7 O 0.3745(4) 0.7627(5) -0.0020(3)
O8 O 0.4071(5) 0.8714(4) 0.1403(4)
O9 O -0.1973(4) 0.5034(4) 0.7994(4)
O10 O -0.1985(3) 0.4783(4) 0.9730(3)
O11 O 0.2021(4) 0.4297(4) 1.1359(4)
O12 O 0.2579(4) 0.2182(3) 1.1230(4)
O13 O 0.4387(4) 0.2546(4) 1.1295(3)
O14 O 0.1976(4) 0.3943(3) 0.7483(4)
O15 O 0.2504(4) 0.6089(4) 0.7685(4)
O16 O 0.4238(4) 0.5689(4) 0.8445(3)
O17 O 0.1761(4) 0.8233(4) 0.8604(4)
H23 H 0.1756 0.8731 0.9073
H24 H 0.1152 0.7863 0.8560
O18 O 0.2360(5) 0.8321(6) 0.6503(4)
H25 H 0.2282 0.8891 0.6864
H26 H 0.1951 0.8369 0.5880
Sm1 Sm 0.62739(2) 0.55430(2) 0.868458(19)
Sm2 Sm 0.35887(2) 0.77064(2) 0.81305(2)
O4A O 0.3798(5) 0.9549(4) 0.8256(4)
O5_2 O 0.6095(4) 0.5789(4) 1.0467(3)
O7_2 O 0.3745(4) 0.7627(5) 0.9980(3)
O8A O 0.5929(5) 0.3714(4) 0.8597(4)
O9_2 O 0.8027(4) 0.5034(4) 0.7994(4)
O10_2 O 0.8015(3) 0.4783(4) 0.9730(3)
O12A O 0.7421(4) 0.7182(3) 0.8770(4)
O13A O 0.5613(4) 0.7546(4) 0.8705(3)
Sm1_2 Sm -0.37261(2) 0.55430(2) 0.868458(19)
Sm1_3 Sm 0.62739(2) 0.55430(2) -0.131542(19)
Sm1A Sm 0.37261(2) 0.05430(2) 1.131542(19)
Sm1A_2 Sm 0.37261(2) 1.05430(2) 0.131542(19)
Sm2_2 Sm 0.35887(2) 0.77064(2) -0.18695(2)
Sm2A Sm 0.64113(2) 0.27064(2) 0.18695(2)
Sm2A_2 Sm 0.64113(2) 0.27064(2) 1.18695(2)
O19 O -0.0470(8) 0.7335(8) 0.7896(8)
H27 H -0.0287 0.7983 0.7807
H28 H 0.0092 0.6945 0.7801
O20 O 0.2106(13) 0.8888(11) 0.4143(11)
H29 H 0.1491 0.8616 0.4278
H30 H 0.2614 0.8784 0.4686
O21 O -0.091(4) 0.616(4) 0.588(4)
H31 H -0.0367 0.6106 0.6392
H32 H -0.0832 0.6854 0.5652
O22 O -0.030(3) 0.907(3) 0.628(3)
H33 H 0.0305 0.8987 0.6175
H34 H -0.0659 0.9493 0.5680
loop_
_geom_bond_atom_site_label_1
_geom_bond_atom_site_label_2
_geom_bond_site_symmetry_1
_geom_bond_site_symmetry_2
C1 C2 1_555 1_555
C2 H1 1_555 1_555
C3 C2 1_555 1_555
C4 C3 1_555 1_555
H2 C4 1_555 1_555
C5 C4 1_555 1_555
C6 C1 1_555 1_555
H3 C6 1_555 1_555
C7 C1 1_555 1_555
C8 H4 1_555 1_555
C9 C8 1_555 1_555
C10 C8 1_555 1_555
H5 C10 1_555 1_555
H6 C10 1_555 1_555
H7 C10 1_555 1_555
C11 H8 1_555 1_555
C12 C11 1_555 1_555
C13 C11 1_555 1_555
H9 C13 1_555 1_555
H10 C13 1_555 1_555
H11 C13 1_555 1_555
C14 C15 1_555 1_555
C15 H12 1_555 1_555
C16 C15 1_555 1_555
C17 C16 1_555 1_555
H13 C17 1_555 1_555
C18 C17 1_555 1_555
C19 C14 1_555 1_555
H14 C19 1_555 1_555
C20 C14 1_555 1_555
C21 H15 1_555 1_555
C22 C21 1_555 1_555
C23 C21 1_555 1_555
H16 C23 1_555 1_555
H17 C23 1_555 1_555
H18 C23 1_555 1_555
C24 H19 1_555 1_555
C25 C24 1_555 1_555
C26 C24 1_555 1_555
H20 C26 1_555 1_555
H21 C26 1_555 1_555
H22 C26 1_555 1_555
O1 C7 1_555 1_555
O2 C7 1_555 1_555
O3 C3 1_555 1_555
O4 C9 1_555 1_555
O5 C9 1_555 1_555
O6 C5 1_555 1_555
O7 C12 1_555 1_555
O8 C12 1_555 1_555
O9 C20 1_555 1_555
O10 C20 1_555 1_555
O11 C16 1_555 1_555
O12 C25 1_555 1_555
O13 C25 1_555 1_555
O14 C18 1_555 1_555
O15 C22 1_555 1_555
O16 C22 1_555 1_555
O17 H23 1_555 1_555
H24 O17 1_555 1_555
O18 H25 1_555 1_555
H26 O18 1_555 1_555
Sm1 O2 1_555 1_555
Sm2 O1 1_555 1_555
O19 H27 1_555 1_555
H28 O19 1_555 1_555
O20 H29 1_555 1_555
H30 O20 1_555 1_555
O21 H31 1_555 1_555
H32 O21 1_555 1_555
O22 H33 1_555 1_555
H34 O22 1_555 1_555
O4A Sm2 1_555 1_555
O5_2 Sm1 1_555 1_555
O7_2 Sm2 1_555 1_555
O8A Sm1 1_555 1_555
O9_2 Sm1 1_555 1_555
O10_2 Sm1 1_555 1_555
O12A Sm1 1_555 1_555
O13A Sm1 1_555 1_555
Sm1_2 O9 1_555 1_555
Sm1_3 O5 1_555 1_555
Sm1A O12 1_555 1_555
Sm1A_2 O8 1_555 1_555
Sm2_2 O7 1_555 1_555
Sm2A O4 1_555 1_555
Sm2A_2 O13 1_555 1_555
C5 C6 1_555 1_555
C8 O3 1_555 1_555
C11 O6 1_555 1_555
C18 C19 1_555 1_555
C21 O14 1_555 1_555
C24 O11 1_555 1_555
O10 Sm1_2 1_555 1_555
O13 Sm1A 1_555 1_555
O15 Sm2 1_555 1_555
O16 Sm1 1_555 1_555
O16 Sm2 1_555 1_555
O17 Sm2 1_555 1_555
O18 Sm2 1_555 1_555
Sm2 O13A 1_555 1_555

#END
