
#######################################################################
#
#                 Cambridge Crystallographic Data Centre
#                                CCDC 
#
#######################################################################
#
# If this CIF has been generated from an entry in the Cambridge 
# Structural Database, then it will include bibliographic, chemical, 
# crystal, experimental, refinement or atomic coordinate data resulting 
# from the CCDC's data processing and validation procedures.
#
#######################################################################

data_FAVGAN
_chemical_formula_moiety         '(C52 H64 Nd4 O42)n'
_symmetry_cell_setting           orthorhombic
_symmetry_space_group_name_H-M   'P 21 21 2'
_symmetry_Int_Tables_number      18
_space_group_name_Hall           'P 2 2ab'
loop_
_symmetry_equiv_pos_site_id
_symmetry_equiv_pos_as_xyz
1 x,y,z
2 -x,-y,z
3 1/2+x,1/2-y,-z
4 1/2-x,1/2+y,-z
_cell_length_a                   12.8414(4)
_cell_length_b                   24.1086(6)
_cell_length_c                   12.3488(3)
_cell_angle_alpha                90
_cell_angle_beta                 90
_cell_angle_gamma                90
_cell_volume                     3823.04
loop_
_atom_site_label
_atom_site_type_symbol
_atom_site_fract_x
_atom_site_fract_y
_atom_site_fract_z
C1 C 0.2789(7) 0.6686(3) 0.9917(9)
C2 C 0.2997(7) 0.7277(3) 0.9854(8)
H1 H 0.3016 0.7456 0.9187
C3 C 0.3163(7) 0.7561(3) 1.0772(8)
C4 C 0.3117(9) 0.7309(4) 1.1769(9)
H2 H 0.3220 0.7516 1.2396
C5 C 0.2913(8) 0.6735(4) 1.1835(9)
C6 C 0.2731(8) 0.6426(3) 1.0887(9)
H3 H 0.2573 0.6050 1.0927
C7 C 0.2364(7) 0.5866(3) 0.8897(8)
H4 H 0.2844 0.5638 0.9324
C8 C 0.1269(7) 0.5804(3) 0.9337(8)
C9 C 0.2412(8) 0.5694(4) 0.7739(9)
H5 H 0.1902 0.5897 0.7331
H6 H 0.2270 0.5304 0.7684
H7 H 0.3093 0.5770 0.7456
C10 C 0.2764(8) 0.5951(4) 1.3053(9)
H8 H 0.2116 0.5835 1.2701
C11 C 0.3665(10) 0.5624(4) 1.2577(9)
C12 C 0.2674(10) 0.5857(5) 1.4239(10)
H9 H 0.3279 0.6004 1.4596
H10 H 0.2622 0.5467 1.4381
H11 H 0.2063 0.6042 1.4507
C13 C 0.3398(8) 0.8179(3) 1.0697(8)
C14 C -0.0000 1.0000 1.1774(11)
H12 H 0.0000 1.0000 1.1021
C15 C 0.0263(7) 0.9518(4) 1.2361(7)
C16 C 0.0276(8) 0.9528(4) 1.3496(8)
H13 H 0.0471 0.9212 1.3879
C17 C -0.0000 1.0000 1.4044(10)
C18 C -0.0000 1.0000 1.5257(11)
C19 C 0.0505(7) 0.8958(4) 1.0760(8)
H14 H -0.0150 0.9111 1.0484
C20 C 0.1412(7) 0.9249(4) 1.0174(7)
C21 C 0.0508(9) 0.8335(4) 1.0549(11)
H15 H 0.1156 0.8180 1.0791
H16 H 0.0427 0.8268 0.9788
H17 H -0.0056 0.8166 1.0936
C22 C 0.5000 1.0000 1.3968(13)
C23 C 0.5128(8) 1.0500(4) 1.4528(9)
H18 H 0.5212 1.0835 1.4164
C24 C 0.5125(9) 1.0474(4) 1.5624(8)
C25 C 0.5000 1.0000 1.6209(13)
H19 H 0.5000 1.0000 1.6962
C26 C 0.5000 1.0000 1.2736(12)
C27 C 0.5104(9) 1.1051(5) 1.7257(9)
H20 H 0.4469 1.0862 1.7498
C28 C 0.6054(9) 1.0783(4) 1.7795(8)
C29 C 0.5040(11) 1.1668(5) 1.7547(11)
H21 H 0.5696 1.1843 1.7398
H22 H 0.4879 1.1707 1.8303
H23 H 0.4504 1.1842 1.7124
Nd1 Nd 0.39822(4) 0.931798(16) 1.05460(4)
Nd2 Nd 0.62488(4) 0.582311(19) 1.27481(4)
O1 O 0.2920(7) 0.6534(3) 1.2870(7)
O2 O 0.4467(6) 0.5857(5) 1.2313(8)
O3 O 0.3464(10) 0.5107(3) 1.2535(9)
O4 O 0.2693(5) 0.6435(2) 0.8933(6)
O5 O 0.0979(5) 0.5325(2) 0.9595(6)
O6 O 0.0681(5) 0.6207(2) 0.9351(7)
O7 O 0.3342(6) 0.8411(2) 0.9796(5)
O8 O 0.3623(6) 0.8441(2) 1.1544(5)
O9 O 0.0520(6) 0.9025(3) 1.1906(5)
O10 O 0.2156(5) 0.9397(3) 1.0721(6)
O11 O 0.1331(6) 0.9266(3) 0.9179(6)
O12 O 0.0416(6) 0.9606(3) 1.5722(5)
O13 O 0.5879(8) 1.0587(3) 1.8708(5)
O14 O 0.6890(6) 1.0791(5) 1.7342(8)
O15 O 0.5196(8) 1.1007(3) 1.6089(6)
O16 O 0.4537(6) 0.9607(3) 1.2279(6)
O17 O 0.6876(7) 0.6713(3) 1.1966(6)
H24 H 0.7191 0.6817 1.1385
H25 H 0.6815 0.7010 1.2355
O18 O 0.7254(8) 0.6103(5) 1.4435(8)
H26 H 0.7383 0.6173 1.5096
H27 H 0.7823 0.6125 1.4087
O19 O 0.5328(9) 0.6626(4) 1.3638(9)
H28 H 0.4817 0.6817 1.3412
H29 H 0.5749 0.6845 1.3953
C15A C -0.0263(7) 1.0482(4) 1.2361(7)
C16A C -0.0276(8) 1.0472(4) 1.3496(8)
H13A H -0.0471 1.0788 1.3879
C19A C -0.0505(7) 1.1042(4) 1.0760(8)
H14A H 0.0150 1.0889 1.0484
C20A C -0.1412(7) 1.0751(4) 1.0174(7)
C21A C -0.0508(9) 1.1665(4) 1.0549(11)
H15A H -0.1156 1.1820 1.0791
H16A H -0.0427 1.1732 0.9788
H17A H 0.0056 1.1834 1.0936
O9A O -0.0520(6) 1.0975(3) 1.1906(5)
O10A O -0.2156(5) 1.0603(3) 1.0721(6)
O11A O -0.1331(6) 1.0734(3) 0.9179(6)
O12A O -0.0416(6) 1.0394(3) 1.5722(5)
C23A C 0.4872(8) 0.9500(4) 1.4528(9)
H18A H 0.4788 0.9165 1.4164
C24A C 0.4875(9) 0.9526(4) 1.5624(8)
O15A O 0.4804(8) 0.8993(3) 1.6089(6)
O16A O 0.5463(6) 1.0393(3) 1.2279(6)
C27A C 0.4896(9) 0.8949(5) 1.7257(9)
H20A H 0.5531 0.9138 1.7498
C28A C 0.3946(9) 0.9217(4) 1.7795(8)
C29A C 0.4960(11) 0.8332(5) 1.7547(11)
H21A H 0.4304 0.8157 1.7398
H22A H 0.5121 0.8293 1.8303
H23A H 0.5496 0.8158 1.7124
O13A O 0.4121(8) 0.9413(3) 1.8708(5)
O14A O 0.3110(6) 0.9209(5) 1.7342(8)
C1A C -0.2789(7) 1.3314(3) 0.9917(9)
C2A C -0.2997(7) 1.2723(3) 0.9854(8)
H1A H -0.3016 1.2544 0.9187
C3A C -0.3163(7) 1.2439(3) 1.0772(8)
C4A C -0.3117(9) 1.2691(4) 1.1769(9)
H2A H -0.3220 1.2484 1.2396
C5A C -0.2913(8) 1.3265(4) 1.1835(9)
C6A C -0.2731(8) 1.3574(3) 1.0887(9)
H3A H -0.2573 1.3950 1.0927
C7A C -0.2364(7) 1.4134(3) 0.8897(8)
H4A H -0.2844 1.4362 0.9324
C8A C -0.1269(7) 1.4196(3) 0.9337(8)
C9A C -0.2412(8) 1.4306(4) 0.7739(9)
H5A H -0.1902 1.4103 0.7331
H6A H -0.2270 1.4696 0.7684
H7A H -0.3093 1.4230 0.7456
C10A C -0.2764(8) 1.4049(4) 1.3053(9)
H8A H -0.2116 1.4165 1.2701
C11A C -0.3665(10) 1.4376(4) 1.2577(9)
C12A C -0.2674(10) 1.4143(5) 1.4239(10)
H9A H -0.3279 1.3996 1.4596
H10A H -0.2622 1.4533 1.4381
H11A H -0.2063 1.3958 1.4507
C13A C -0.3398(8) 1.1821(3) 1.0697(8)
Nd1A Nd -0.39822(4) 1.068202(16) 1.05460(4)
Nd2A Nd -0.62488(4) 1.417689(19) 1.27481(4)
O1A O -0.2920(7) 1.3466(3) 1.2870(7)
O2A O -0.4467(6) 1.4143(5) 1.2313(8)
O3A O -0.3464(10) 1.4893(3) 1.2535(9)
O4A O -0.2693(5) 1.3565(2) 0.8933(6)
O5A O -0.0979(5) 1.4675(2) 0.9595(6)
O6A O -0.0681(5) 1.3793(2) 0.9351(7)
O7A O -0.3342(6) 1.1589(2) 0.9796(5)
O8A O -0.3623(6) 1.1559(2) 1.1544(5)
O17A O -0.6876(7) 1.3287(3) 1.1966(6)
H24A H -0.7191 1.3183 1.1385
H25A H -0.6815 1.2990 1.2355
O18A O -0.7254(8) 1.3897(5) 1.4435(8)
H26A H -0.7383 1.3827 1.5096
H27A H -0.7823 1.3875 1.4087
O19A O -0.5328(9) 1.3374(4) 1.3638(9)
H28A H -0.4817 1.3183 1.3412
H29A H -0.5749 1.3155 1.3953
Nd1_2 Nd 0.39822(4) 0.931798(16) 2.05460(4)
Nd1A_2 Nd 0.60178(4) 1.068202(16) 1.05460(4)
Nd1A_3 Nd 0.60178(4) 1.068202(16) 2.05460(4)
Nd1B Nd -0.10178(4) 0.568202(16) 0.94540(4)
Nd1B_2 Nd -0.10178(4) 1.568202(16) 0.94540(4)
Nd1C Nd 0.10178(4) 0.431798(16) 0.94540(4)
Nd1C_2 Nd 0.10178(4) 1.431798(16) 0.94540(4)
Nd2_2 Nd -0.37512(4) 1.582311(19) 1.27481(4)
Nd2A_2 Nd 0.37512(4) 0.417689(19) 1.27481(4)
Nd2B Nd 0.12488(4) 0.917689(19) 0.72519(4)
Nd2B_2 Nd 0.12488(4) 0.917689(19) 1.72519(4)
Nd2C Nd -0.12488(4) 1.082311(19) 0.72519(4)
Nd2C_2 Nd -0.12488(4) 1.082311(19) 1.72519(4)
Nd2C_3 Nd 0.87512(4) 1.082311(19) 1.72519(4)
O3_2 O -0.6536(10) 1.5107(3) 1.2535(9)
O3A_2 O 0.6536(10) 0.4893(3) 1.2535(9)
O5B O -0.4021(5) 0.9675(2) 1.0405(6)
O5B_2 O 0.5979(5) 0.9675(2) 1.0405(6)
O5C O -0.5979(5) 1.0325(2) 1.0405(6)
O5C_2 O 0.4021(5) 1.0325(2) 1.0405(6)
O6B O 0.5681(5) 0.8793(2) 1.0649(7)
O6C O -0.5681(5) 1.1207(2) 1.0649(7)
O11B O 0.6331(6) 0.5734(3) 1.0821(6)
O11C O -0.6331(6) 1.4266(3) 1.0821(6)
O12B O 0.5416(6) 0.5394(3) 1.4278(5)
O12C O -0.5416(6) 1.4606(3) 1.4278(5)
O13_2 O -0.4121(8) 1.0587(3) 0.8708(5)
O13A_2 O 0.4121(8) 0.9413(3) 0.8708(5)
O14B O -0.8110(6) 1.4209(5) 1.2658(8)
O14C O 0.8110(6) 0.5791(5) 1.2658(8)
O16A_2 O -0.4537(6) 1.0393(3) 1.2279(6)
O20 O 0.5924(11) 0.7812(5) 0.2100(12)
H30 H 0.5377 0.7988 0.2057
H31 H 0.5814 0.7536 0.2556
O21 O 0.2198(12) 0.8613(6) 0.3385(13)
H32 H 0.2663 0.8538 0.2920
H33 H 0.1666 0.8730 0.3060
O22 O 0.251(3) 0.7255(17) 0.631(3)
H34 H 0.2251 0.7197 0.6880
H35 H 0.2839 0.7511 0.6184
O23 O 0.587(2) 0.7136(12) 1.548(3)
H36 H 0.5893 0.7515 1.5526
H37 H 0.5616 0.6998 1.5896
loop_
_geom_bond_atom_site_label_1
_geom_bond_atom_site_label_2
_geom_bond_site_symmetry_1
_geom_bond_site_symmetry_2
C1 C2 1_555 1_555
C2 H1 1_555 1_555
C3 C2 1_555 1_555
C4 C3 1_555 1_555
H2 C4 1_555 1_555
C5 C4 1_555 1_555
C6 C1 1_555 1_555
H3 C6 1_555 1_555
C7 H4 1_555 1_555
C8 C7 1_555 1_555
C9 C7 1_555 1_555
H5 C9 1_555 1_555
H6 C9 1_555 1_555
H7 C9 1_555 1_555
C10 H8 1_555 1_555
C11 C10 1_555 1_555
C12 C10 1_555 1_555
H9 C12 1_555 1_555
H10 C12 1_555 1_555
H11 C12 1_555 1_555
C13 C3 1_555 1_555
C14 H12 1_555 1_555
C15 C14 1_555 1_555
C16 C15 1_555 1_555
H13 C16 1_555 1_555
C17 C16 1_555 1_555
C18 C17 1_555 1_555
C19 H14 1_555 1_555
C20 C19 1_555 1_555
C21 C19 1_555 1_555
H15 C21 1_555 1_555
H16 C21 1_555 1_555
H17 C21 1_555 1_555
C22 C23 1_555 1_555
C23 H18 1_555 1_555
C24 C23 1_555 1_555
C25 C24 1_555 1_555
H19 C25 1_555 1_555
C26 C22 1_555 1_555
C27 H20 1_555 1_555
C28 C27 1_555 1_555
C29 C27 1_555 1_555
H21 C29 1_555 1_555
H22 C29 1_555 1_555
H23 C29 1_555 1_555
Nd1 O7 1_555 1_555
Nd2 O2 1_555 1_555
O1 C5 1_555 1_555
O2 C11 1_555 1_555
O3 C11 1_555 1_555
O4 C1 1_555 1_555
O5 C8 1_555 1_555
O6 C8 1_555 1_555
O7 C13 1_555 1_555
O8 C13 1_555 1_555
O9 C15 1_555 1_555
O10 C20 1_555 1_555
O11 C20 1_555 1_555
O12 C18 1_555 1_555
O13 C28 1_555 1_555
O14 C28 1_555 1_555
O15 C24 1_555 1_555
O16 C26 1_555 1_555
O17 Nd2 1_555 1_555
H24 O17 1_555 1_555
H25 O17 1_555 1_555
O18 Nd2 1_555 1_555
H26 O18 1_555 1_555
H27 O18 1_555 1_555
O19 Nd2 1_555 1_555
H28 O19 1_555 1_555
H29 O19 1_555 1_555
O20 H30 1_555 1_555
H31 O20 1_555 1_555
O21 H32 1_555 1_555
H33 O21 1_555 1_555
O22 H34 1_555 1_555
H35 O22 1_555 1_555
O23 H36 1_555 1_555
H37 O23 1_555 1_555
C15A C14 1_555 1_555
C16A C17 1_555 1_555
H13A C16A 1_555 1_555
C19A H14A 1_555 1_555
C20A C19A 1_555 1_555
C21A C19A 1_555 1_555
H15A C21A 1_555 1_555
H16A C21A 1_555 1_555
H17A C21A 1_555 1_555
O9A C15A 1_555 1_555
O10A C20A 1_555 1_555
O11A C20A 1_555 1_555
O12A C18 1_555 1_555
C23A C22 1_555 1_555
H18A C23A 1_555 1_555
C24A C25 1_555 1_555
O15A C24A 1_555 1_555
O16A C26 1_555 1_555
C27A O15A 1_555 1_555
H20A C27A 1_555 1_555
C28A C27A 1_555 1_555
C29A C27A 1_555 1_555
H21A C29A 1_555 1_555
H22A C29A 1_555 1_555
H23A C29A 1_555 1_555
O13A C28A 1_555 1_555
O14A C28A 1_555 1_555
C1A C2A 1_555 1_555
C2A H1A 1_555 1_555
C3A C2A 1_555 1_555
C4A C3A 1_555 1_555
H2A C4A 1_555 1_555
C5A C4A 1_555 1_555
C6A C1A 1_555 1_555
H3A C6A 1_555 1_555
C7A H4A 1_555 1_555
C8A C7A 1_555 1_555
C9A C7A 1_555 1_555
H5A C9A 1_555 1_555
H6A C9A 1_555 1_555
H7A C9A 1_555 1_555
C10A H8A 1_555 1_555
C11A C10A 1_555 1_555
C12A C10A 1_555 1_555
H9A C12A 1_555 1_555
H10A C12A 1_555 1_555
H11A C12A 1_555 1_555
C13A C3A 1_555 1_555
Nd1A O10A 1_555 1_555
Nd2A O2A 1_555 1_555
O1A C5A 1_555 1_555
O2A C11A 1_555 1_555
O3A C11A 1_555 1_555
O4A C1A 1_555 1_555
O5A C8A 1_555 1_555
O6A C8A 1_555 1_555
O7A C13A 1_555 1_555
O8A C13A 1_555 1_555
O17A Nd2A 1_555 1_555
H24A O17A 1_555 1_555
H25A O17A 1_555 1_555
O18A Nd2A 1_555 1_555
H26A O18A 1_555 1_555
H27A O18A 1_555 1_555
O19A Nd2A 1_555 1_555
H28A O19A 1_555 1_555
H29A O19A 1_555 1_555
Nd1_2 O13A 1_555 1_555
Nd1A_2 O16A 1_555 1_555
Nd1A_3 O13 1_555 1_555
Nd1B O5 1_555 1_555
Nd1B_2 O5A 1_555 1_555
Nd1C O5 1_555 1_555
Nd1C_2 O5A 1_555 1_555
Nd2_2 O3A 1_555 1_555
Nd2A_2 O3 1_555 1_555
Nd2B O11 1_555 1_555
Nd2B_2 O12 1_555 1_555
Nd2C O11A 1_555 1_555
Nd2C_2 O12A 1_555 1_555
Nd2C_3 O14 1_555 1_555
O3_2 Nd2A 1_555 1_555
O3A_2 Nd2 1_555 1_555
O5B Nd1A 1_555 1_555
O5B_2 Nd1 1_555 1_555
O5C Nd1A 1_555 1_555
O5C_2 Nd1 1_555 1_555
O6B Nd1 1_555 1_555
O6C Nd1A 1_555 1_555
O11B Nd2 1_555 1_555
O11C Nd2A 1_555 1_555
O12B Nd2 1_555 1_555
O12C Nd2A 1_555 1_555
O13_2 Nd1A 1_555 1_555
O13A_2 Nd1 1_555 1_555
O14B Nd2A 1_555 1_555
O14C Nd2 1_555 1_555
O16A_2 Nd1A 1_555 1_555
C5 C6 1_555 1_555
C7 O4 1_555 1_555
C10 O1 1_555 1_555
C19 O9 1_555 1_555
C27 O15 1_555 1_555
Nd1 O8 1_555 1_555
Nd1 O10 1_555 1_555
Nd1 O16 1_555 1_555
O6 Nd1B 1_555 1_555
C15A C16A 1_555 1_555
C19A O9A 1_555 1_555
C23A C24A 1_555 1_555
O14A Nd2B_2 1_555 1_555
C5A C6A 1_555 1_555
C7A O4A 1_555 1_555
C10A O1A 1_555 1_555
Nd1A O7A 1_555 1_555
Nd1A O8A 1_555 1_555
O6A Nd1C_2 1_555 1_555
Nd1A_2 O5B_2 1_555 1_555
Nd1A_2 O5C_2 1_555 1_555

#END
