
#######################################################################
#
#                 Cambridge Crystallographic Data Centre
#                                CCDC 
#
#######################################################################
#
# If this CIF has been generated from an entry in the Cambridge 
# Structural Database, then it will include bibliographic, chemical, 
# crystal, experimental, refinement or atomic coordinate data resulting 
# from the CCDC's data processing and validation procedures.
#
#######################################################################

data_FAVHIW
_chemical_formula_moiety         '(C26 H34 O22 Tb2)n'
_symmetry_cell_setting           monoclinic
_symmetry_space_group_name_H-M   'P 21'
_symmetry_Int_Tables_number      4
_space_group_name_Hall           'P 2yb'
loop_
_symmetry_equiv_pos_site_id
_symmetry_equiv_pos_as_xyz
1 x,y,z
2 -x,1/2+y,-z
_cell_length_a                   11.878(2)
_cell_length_b                   12.419(3)
_cell_length_c                   12.489(3)
_cell_angle_alpha                90
_cell_angle_beta                 98.63(3)
_cell_angle_gamma                90
_cell_volume                     1821.43
loop_
_atom_site_label
_atom_site_type_symbol
_atom_site_fract_x
_atom_site_fract_y
_atom_site_fract_z
C1 C 0.5179(4) 0.6605(4) 0.5117(3)
C2 C 0.6136(4) 0.6252(4) 0.4699(3)
H1 H 0.6766 0.5989 0.5156
C3 C 0.6132(4) 0.6300(4) 0.3591(3)
C4 C 0.5194(4) 0.6658(3) 0.2894(3)
H2 H 0.5209 0.6693 0.2152
C5 C 0.4224(4) 0.6964(4) 0.3323(3)
C6 C 0.4224(4) 0.6979(4) 0.4426(3)
H3 H 0.3595 0.7236 0.4708
C7 C 0.5151(4) 0.6591(4) 0.6309(3)
C8 C 0.7213(4) 0.6189(4) 0.2131(3)
H4 H 0.6978 0.6932 0.1955
C9 C 0.6435(3) 0.5422(4) 0.1374(3)
C10 C 0.8445(4) 0.6065(5) 0.1986(4)
H5 H 0.8893 0.6610 0.2396
H6 H 0.8513 0.6140 0.1233
H7 H 0.8714 0.5367 0.2236
C11 C 0.3099(4) 0.7052(4) 0.1572(3)
H8 H 0.3422 0.6341 0.1465
C12 C 0.3694(3) 0.7884(4) 0.0939(3)
C13 C 0.1832(4) 0.7011(4) 0.1184(4)
H9 H 0.1498 0.6445 0.1555
H10 H 0.1698 0.6874 0.0418
H11 H 0.1494 0.7687 0.1330
C14 C -0.0228(4) 0.4532(4) 0.9074(4)
C15 C 0.0354(4) 0.4501(3) 1.0116(4)
H12 H -0.0027 0.4628 1.0703
C16 C 0.1507(4) 0.4281(3) 1.0281(4)
C17 C 0.2078(4) 0.4102(4) 0.9400(4)
H13 H 0.2855 0.3960 0.9510
C18 C 0.1477(4) 0.4138(3) 0.8357(4)
C19 C 0.0325(4) 0.4347(3) 0.8182(4)
H14 H -0.0076 0.4364 0.7482
C20 C -0.1477(3) 0.4797(3) 0.8892(4)
C21 C 0.3137(4) 0.4285(4) 0.7501(4)
H15 H 0.3624 0.3796 0.7982
C22 C 0.3311(4) 0.5436(4) 0.7913(4)
C23 C 0.3444(5) 0.4214(5) 0.6354(4)
H16 H 0.3260 0.3509 0.6063
H17 H 0.4244 0.4344 0.6378
H18 H 0.3020 0.4744 0.5901
C24 C 0.3166(4) 0.4004(4) 1.1610(4)
H19 H 0.3639 0.4473 1.1230
C25 C 0.3364(4) 0.2827(4) 1.1338(3)
C26 C 0.3458(5) 0.4161(5) 1.2814(5)
H20 H 0.3264 0.4881 1.2998
H21 H 0.4260 0.4048 1.3031
H22 H 0.3038 0.3656 1.3181
O1 O 0.4404(3) 0.7157(3) 0.6647(2)
O2 O 0.5873(3) 0.6020(3) 0.6881(2)
O3 O 0.7124(3) 0.5995(3) 0.3233(2)
O4 O 0.6186(3) 0.4531(3) 0.1718(3)
O5 O 0.6099(3) 0.5780(3) 0.0447(2)
O6 O 0.3237(3) 0.7270(3) 0.2706(2)
O7 O 0.3764(3) 0.7628(3) -0.0012(2)
O8 O 0.4075(3) 0.8732(3) 0.1406(3)
O9 O -0.1987(3) 0.5041(3) 0.7977(3)
O10 O -0.2007(2) 0.4779(3) 0.9714(2)
O11 O 0.2003(3) 0.4286(3) 1.1334(3)
O12 O 0.2571(3) 0.2174(3) 1.1214(3)
O13 O 0.4381(3) 0.2550(3) 1.1280(2)
O14 O 0.1981(3) 0.3971(3) 0.7447(3)
O15 O 0.2533(3) 0.6115(3) 0.7684(3)
O16 O 0.4264(2) 0.5693(3) 0.8444(2)
O17 O 0.1801(3) 0.8226(3) 0.8615(3)
H23 H 0.1796 0.8723 0.9083
H24 H 0.1193 0.7856 0.8571
O18 O 0.2469(4) 0.8394(4) 0.6534(3)
H25 H 0.2391 0.8962 0.6895
H26 H 0.2062 0.8441 0.5915
Tb1 Tb 0.628144(14) 0.554389(13) 0.867998(13)
Tb2 Tb 0.361930(15) 0.770526(14) 0.814993(14)
O4A O 0.3814(3) 0.9531(3) 0.8282(3)
O5_2 O 0.6099(3) 0.5780(3) 1.0447(2)
O7_2 O 0.3764(3) 0.7628(3) 0.9988(2)
O8A O 0.5925(3) 0.3732(3) 0.8594(3)
O9_2 O 0.8013(3) 0.5041(3) 0.7977(3)
O10_2 O 0.7993(2) 0.4779(3) 0.9714(2)
O12A O 0.7429(3) 0.7174(3) 0.8786(3)
O13A O 0.5619(3) 0.7550(3) 0.8720(2)
Tb1_2 Tb -0.371856(14) 0.554389(13) 0.867998(13)
Tb1_3 Tb 0.628144(14) 0.554389(13) -0.132002(13)
Tb1A Tb 0.371856(14) 0.054389(13) 1.132002(13)
Tb1A_2 Tb 0.371856(14) 1.054389(13) 0.132002(13)
Tb2_2 Tb 0.361930(15) 0.770526(14) -0.185007(14)
Tb2A Tb 0.638070(15) 0.270526(14) 0.185007(14)
Tb2A_2 Tb 0.638070(15) 0.270526(14) 1.185007(14)
O19 O -0.0353(6) 0.7288(6) 0.7958(6)
H27 H -0.0379 0.7923 0.8207
H28 H 0.0146 0.7278 0.7538
O20 O 0.2066(13) 0.8885(12) 0.4065(10)
H29 H 0.2476 0.8625 0.3612
H30 H 0.2518 0.8993 0.4653
O21 O 0.087(3) 0.598(3) 0.462(3)
H31 H 0.0685 0.5738 0.5224
H32 H 0.0759 0.5603 0.4043
O22 O 0.046(7) 0.640(6) 0.633(3)
H33 H 0.0337 0.7007 0.5974
H34 H 0.1121 0.6249 0.6651
loop_
_geom_bond_atom_site_label_1
_geom_bond_atom_site_label_2
_geom_bond_site_symmetry_1
_geom_bond_site_symmetry_2
C1 C2 1_555 1_555
C2 H1 1_555 1_555
C3 C2 1_555 1_555
C4 C3 1_555 1_555
H2 C4 1_555 1_555
C5 C4 1_555 1_555
C6 C1 1_555 1_555
H3 C6 1_555 1_555
C7 C1 1_555 1_555
C8 H4 1_555 1_555
C9 C8 1_555 1_555
C10 C8 1_555 1_555
H5 C10 1_555 1_555
H6 C10 1_555 1_555
H7 C10 1_555 1_555
C11 H8 1_555 1_555
C12 C11 1_555 1_555
C13 C11 1_555 1_555
H9 C13 1_555 1_555
H10 C13 1_555 1_555
H11 C13 1_555 1_555
C14 C15 1_555 1_555
C15 H12 1_555 1_555
C16 C15 1_555 1_555
C17 C16 1_555 1_555
H13 C17 1_555 1_555
C18 C17 1_555 1_555
C19 C14 1_555 1_555
H14 C19 1_555 1_555
C20 C14 1_555 1_555
C21 H15 1_555 1_555
C22 C21 1_555 1_555
C23 C21 1_555 1_555
H16 C23 1_555 1_555
H17 C23 1_555 1_555
H18 C23 1_555 1_555
C24 H19 1_555 1_555
C25 C24 1_555 1_555
C26 C24 1_555 1_555
H20 C26 1_555 1_555
H21 C26 1_555 1_555
H22 C26 1_555 1_555
O1 C7 1_555 1_555
O2 C7 1_555 1_555
O3 C3 1_555 1_555
O4 C9 1_555 1_555
O5 C9 1_555 1_555
O6 C5 1_555 1_555
O7 C12 1_555 1_555
O8 C12 1_555 1_555
O9 C20 1_555 1_555
O10 C20 1_555 1_555
O11 C16 1_555 1_555
O12 C25 1_555 1_555
O13 C25 1_555 1_555
O14 C18 1_555 1_555
O15 C22 1_555 1_555
O16 C22 1_555 1_555
O17 H23 1_555 1_555
H24 O17 1_555 1_555
O18 H25 1_555 1_555
H26 O18 1_555 1_555
Tb1 O2 1_555 1_555
Tb2 O1 1_555 1_555
O19 H27 1_555 1_555
H28 O19 1_555 1_555
O20 H29 1_555 1_555
H30 O20 1_555 1_555
O21 H31 1_555 1_555
H32 O21 1_555 1_555
O22 H33 1_555 1_555
H34 O22 1_555 1_555
O4A Tb2 1_555 1_555
O5_2 Tb1 1_555 1_555
O7_2 Tb2 1_555 1_555
O8A Tb1 1_555 1_555
O9_2 Tb1 1_555 1_555
O10_2 Tb1 1_555 1_555
O12A Tb1 1_555 1_555
O13A Tb1 1_555 1_555
Tb1_2 O9 1_555 1_555
Tb1_3 O5 1_555 1_555
Tb1A O12 1_555 1_555
Tb1A_2 O8 1_555 1_555
Tb2_2 O7 1_555 1_555
Tb2A O4 1_555 1_555
Tb2A_2 O13 1_555 1_555
C5 C6 1_555 1_555
C8 O3 1_555 1_555
C11 O6 1_555 1_555
C18 C19 1_555 1_555
C21 O14 1_555 1_555
C24 O11 1_555 1_555
O10 Tb1_2 1_555 1_555
O13 Tb1A 1_555 1_555
O15 Tb2 1_555 1_555
O16 Tb1 1_555 1_555
O16 Tb2 1_555 1_555
O17 Tb2 1_555 1_555
O18 Tb2 1_555 1_555
Tb2 O13A 1_555 1_555

#END
