
#######################################################################
#
#                 Cambridge Crystallographic Data Centre
#                                CCDC 
#
#######################################################################
#
# If this CIF has been generated from an entry in the Cambridge 
# Structural Database, then it will include bibliographic, chemical, 
# crystal, experimental, refinement or atomic coordinate data resulting 
# from the CCDC's data processing and validation procedures.
#
#######################################################################

data_LOBHAM
_chemical_formula_moiety         '(C30 H52 N12 Ni3 O27)n'
_symmetry_cell_setting           monoclinic
_symmetry_space_group_name_H-M   'P 21/c'
_symmetry_Int_Tables_number      14
_space_group_name_Hall           '-P 2ybc'
loop_
_symmetry_equiv_pos_site_id
_symmetry_equiv_pos_as_xyz
1 x,y,z
2 -x,1/2+y,1/2-z
3 -x,-y,-z
4 x,1/2-y,1/2+z
_cell_length_a                   13.9111(2)
_cell_length_b                   13.5328(2)
_cell_length_c                   17.7634(3)
_cell_angle_alpha                90
_cell_angle_beta                 111.2920(10)
_cell_angle_gamma                90
_cell_volume                     3115.81
loop_
_atom_site_label
_atom_site_type_symbol
_atom_site_fract_x
_atom_site_fract_y
_atom_site_fract_z
Ni1 Ni 0.26145(2) -0.01711(2) 0.077238(18)
Ni2 Ni 0.0000 0.0000 0.0000
O1 O 0.12030(12) -0.09969(13) 0.03378(11)
H1 H 0.140(2) -0.139(2) -0.0021(19)
H2 H 0.136(2) -0.135(2) 0.077(2)
C1 C 0.22768(19) 0.1101(2) -0.07528(16)
H3 H 0.2978 0.1145 -0.0685
N1 N 0.19197(15) 0.06689(16) -0.02523(13)
N2 N 0.08590(15) 0.07649(15) -0.05636(13)
C2 C 0.0620(2) 0.1249(2) -0.12421(16)
H4 H -0.0054 0.1415 -0.1582
N3 N 0.14838(17) 0.14770(17) -0.13856(14)
C3 C 0.1542(2) 0.2014(2) -0.20878(18)
H5 H 0.1002 0.1776 -0.2582
H6 H 0.2213 0.1893 -0.2135
C4 C 0.1404(2) 0.3109(2) -0.19878(18)
H7 H 0.1975 0.3358 -0.1517
H8 H 0.0758 0.3225 -0.1898
N4 N 0.13809(17) 0.36312(17) -0.27174(14)
C5 C 0.0543(2) 0.3843(2) -0.33733(16)
H9 H -0.0138 0.3682 -0.3435
N5 N 0.08124(15) 0.43045(15) -0.39115(12)
N6 N 0.18722(15) 0.43960(16) -0.35916(13)
C6 C 0.2192(2) 0.3985(2) -0.28787(16)
H10 H 0.2885 0.3943 -0.2529
C7 C 0.32926(19) -0.18450(19) -0.10578(16)
C8 C 0.42984(19) -0.15254(19) -0.09100(16)
H11 H 0.4625 -0.1095 -0.0477
C9 C 0.48162(19) -0.18421(19) -0.14024(16)
C10 C 0.43345(19) -0.24738(19) -0.20475(16)
H12 H 0.4701 -0.2718 -0.2361
C11 C 0.33081(19) -0.2744(2) -0.22287(16)
C12 C 0.27953(19) -0.24249(19) -0.17296(16)
H13 H 0.2103 -0.2605 -0.1850
C13 C 0.27430(18) -0.15330(19) -0.05061(16)
O2 O 0.32333(13) -0.10222(13) 0.00992(11)
O3 O 0.18107(14) -0.18025(15) -0.06966(12)
C14 C 0.59080(19) -0.1500(2) -0.12280(17)
O4 O 0.60564(13) -0.05855(13) -0.11238(12)
O5 O 0.65725(17) -0.21264(18) -0.1187(2)
C15 C 0.27401(19) -0.3333(2) -0.29673(16)
O6 O 0.32427(13) -0.39064(14) -0.32428(11)
O7 O 0.17701(13) -0.31960(15) -0.32810(12)
Ni1B Ni -0.26145(2) 0.01711(2) -0.077238(18)
Ni1C Ni 0.26145(2) 0.51711(2) -0.422762(18)
Ni1B_2 Ni 0.73855(2) 0.01711(2) -0.077238(18)
Ni1C_2 Ni 0.26145(2) -0.48289(2) -0.422762(18)
Ni1A Ni -0.26145(2) -0.51711(2) 0.422762(18)
Ni1A_2 Ni 0.73855(2) 0.48289(2) 0.422762(18)
Ni2C Ni 0.0000 0.5000 -0.5000
Ni2C_2 Ni -0.0000 -0.5000 0.5000
O1B O -0.12030(12) 0.09969(13) -0.03378(11)
H1B H -0.140(2) 0.139(2) 0.0021(19)
H2B H -0.136(2) 0.135(2) -0.077(2)
C1B C -0.22768(19) -0.1101(2) 0.07528(16)
H3B H -0.2978 -0.1145 0.0685
N1B N -0.19197(15) -0.06689(16) 0.02523(13)
N2B N -0.08590(15) -0.07649(15) 0.05636(13)
C2B C -0.0620(2) -0.1249(2) 0.12421(16)
H4B H 0.0054 -0.1415 0.1582
N3B N -0.14838(17) -0.14770(17) 0.13856(14)
C3B C -0.1542(2) -0.2014(2) 0.20878(18)
H5B H -0.1002 -0.1776 0.2582
H6B H -0.2213 -0.1893 0.2135
C4B C -0.1404(2) -0.3109(2) 0.19878(18)
H7B H -0.1975 -0.3358 0.1517
H8B H -0.0758 -0.3225 0.1898
N4B N -0.13809(17) -0.36312(17) 0.27174(14)
C5B C -0.0543(2) -0.3843(2) 0.33733(16)
H9B H 0.0138 -0.3682 0.3435
N5B N -0.08124(15) -0.43045(15) 0.39115(12)
N5C N 0.08124(15) 0.06955(15) 0.10885(12)
N5A N -0.08124(15) -0.06955(15) -0.10885(12)
N6B N -0.18722(15) -0.43960(16) 0.35916(13)
N6C N 0.18722(15) 0.06040(16) 0.14084(13)
N6A N -0.18722(15) -0.06040(16) -0.14084(13)
C6B C -0.2192(2) -0.3985(2) 0.28787(16)
H10B H -0.2885 -0.3943 0.2529
C7B C 0.67074(19) 0.18450(19) 0.10578(16)
C8B C 0.57016(19) 0.15254(19) 0.09100(16)
H11B H 0.5375 0.1095 0.0477
C9B C 0.51838(19) 0.18421(19) 0.14024(16)
C10B C 0.56655(19) 0.24738(19) 0.20475(16)
H12B H 0.5299 0.2718 0.2361
C11B C 0.66919(19) 0.2744(2) 0.22287(16)
C12B C 0.72047(19) 0.24249(19) 0.17296(16)
H13B H 0.7897 0.2605 0.1850
C13B C 0.72570(18) 0.15330(19) 0.05061(16)
O2B O 0.67667(13) 0.10222(13) -0.00992(11)
O2B_2 O -0.32333(13) 0.10222(13) -0.00992(11)
O3B O 0.81893(14) 0.18025(15) 0.06966(12)
C14B C 0.40920(19) 0.1500(2) 0.12280(17)
O4B O 0.39436(13) 0.05855(13) 0.11238(12)
O4_2 O -0.39436(13) -0.05855(13) -0.11238(12)
O5B O 0.34275(17) 0.21264(18) 0.1187(2)
C15B C 0.72599(19) 0.3333(2) 0.29673(16)
O6B O 0.67573(13) 0.39064(14) 0.32428(11)
O6C O 0.32427(13) -0.10936(14) 0.17572(11)
O6A O -0.32427(13) 0.10936(14) -0.17572(11)
O7B O 0.82299(13) 0.31960(15) 0.32810(12)
O8 O 0.0023(3) -0.3975(3) -0.0001(2)
O9 O 0.1141(4) -0.3762(3) 0.1625(3)
O10 O -0.0058(4) -0.0112(3) 0.2800(3)
O11 O 0.4380(3) 0.0998(5) -0.1299(3)
O12 O 0.1163(5) -0.1260(3) 0.4040(4)
O13 O 0.8238(4) -0.3225(4) -0.1149(3)
O14 O 0.4756(5) 0.0150(4) 0.3060(3)
O15 O 0.7076(7) -0.4834(5) -0.2141(5)
O16 O 0.4198(5) 0.1968(6) 0.3691(5)
O17 O 0.8207(8) -0.3081(7) -0.0055(7)
O19 O 0.3977(11) 0.1118(11) 0.5421(9)
O21 O 0.2750(9) -0.0038(8) 0.4452(11)
O22 O 0.5481(12) 0.0626(11) 0.5606(9)
loop_
_geom_bond_atom_site_label_1
_geom_bond_atom_site_label_2
_geom_bond_site_symmetry_1
_geom_bond_site_symmetry_2
Ni1 O1 1_555 1_555
Ni2 O1 1_555 1_555
O1 H1 1_555 1_555
H2 O1 1_555 1_555
C1 H3 1_555 1_555
N1 Ni1 1_555 1_555
N2 Ni2 1_555 1_555
C2 N2 1_555 1_555
H4 C2 1_555 1_555
N3 C1 1_555 1_555
C3 N3 1_555 1_555
H5 C3 1_555 1_555
H6 C3 1_555 1_555
C4 C3 1_555 1_555
H7 C4 1_555 1_555
H8 C4 1_555 1_555
N4 C4 1_555 1_555
C5 N4 1_555 1_555
H9 C5 1_555 1_555
N5 C5 1_555 1_555
N6 N5 1_555 1_555
C6 N4 1_555 1_555
H10 C6 1_555 1_555
C7 C8 1_555 1_555
C8 H11 1_555 1_555
C9 C8 1_555 1_555
C10 C9 1_555 1_555
H12 C10 1_555 1_555
C11 C10 1_555 1_555
C12 C7 1_555 1_555
H13 C12 1_555 1_555
C13 C7 1_555 1_555
O2 Ni1 1_555 1_555
O3 C13 1_555 1_555
C14 C9 1_555 1_555
O4 C14 1_555 1_555
O5 C14 1_555 1_555
C15 C11 1_555 1_555
O6 C15 1_555 1_555
O7 C15 1_555 1_555
Ni1B O1B 1_555 1_555
Ni1C N6 1_555 1_555
Ni1B_2 O4 1_555 1_555
Ni1C_2 O6 1_555 1_555
Ni1A N6B 1_555 1_555
Ni1A_2 O6B 1_555 1_555
Ni2C N5 1_555 1_555
Ni2C_2 N5B 1_555 1_555
O1B Ni2 1_555 1_555
H1B O1B 1_555 1_555
H2B O1B 1_555 1_555
C1B H3B 1_555 1_555
N1B Ni1B 1_555 1_555
N2B Ni2 1_555 1_555
C2B N2B 1_555 1_555
H4B C2B 1_555 1_555
N3B C1B 1_555 1_555
C3B N3B 1_555 1_555
H5B C3B 1_555 1_555
H6B C3B 1_555 1_555
C4B C3B 1_555 1_555
H7B C4B 1_555 1_555
H8B C4B 1_555 1_555
N4B C4B 1_555 1_555
C5B N4B 1_555 1_555
H9B C5B 1_555 1_555
N5B C5B 1_555 1_555
N5C Ni2 1_555 1_555
N5A Ni2 1_555 1_555
N6B N5B 1_555 1_555
N6C Ni1 1_555 1_555
N6A Ni1B 1_555 1_555
C6B N4B 1_555 1_555
H10B C6B 1_555 1_555
C7B C8B 1_555 1_555
C8B H11B 1_555 1_555
C9B C8B 1_555 1_555
C10B C9B 1_555 1_555
H12B C10B 1_555 1_555
C11B C10B 1_555 1_555
C12B C7B 1_555 1_555
H13B C12B 1_555 1_555
C13B C7B 1_555 1_555
O2B Ni1B_2 1_555 1_555
O2B_2 Ni1B 1_555 1_555
O3B C13B 1_555 1_555
C14B C9B 1_555 1_555
O4B Ni1 1_555 1_555
O4_2 Ni1B 1_555 1_555
O5B C14B 1_555 1_555
C15B C11B 1_555 1_555
O6B C15B 1_555 1_555
O6C Ni1 1_555 1_555
O6A Ni1B 1_555 1_555
O7B C15B 1_555 1_555
C1 N1 1_555 1_555
N1 N2 1_555 1_555
C2 N3 1_555 1_555
N6 C6 1_555 1_555
C11 C12 1_555 1_555
C13 O2 1_555 1_555
C1B N1B 1_555 1_555
N1B N2B 1_555 1_555
C2B N3B 1_555 1_555
N5C N6C 1_555 1_555
N5A N6A 1_555 1_555
N6B C6B 1_555 1_555
C11B C12B 1_555 1_555
C13B O2B 1_555 1_555
C14B O4B 1_555 1_555

#END
