
#######################################################################
#
#                 Cambridge Crystallographic Data Centre
#                                CCDC 
#
#######################################################################
#
# If this CIF has been generated from an entry in the Cambridge 
# Structural Database, then it will include bibliographic, chemical, 
# crystal, experimental, refinement or atomic coordinate data resulting 
# from the CCDC's data processing and validation procedures.
#
#######################################################################

data_IQEKUM
_chemical_formula_moiety         '(C39 H37 N12 O16 Zn3)n'
_symmetry_cell_setting           monoclinic
_symmetry_space_group_name_H-M   'C 2/c'
_symmetry_Int_Tables_number      15
_space_group_name_Hall           '-C 2yc'
loop_
_symmetry_equiv_pos_site_id
_symmetry_equiv_pos_as_xyz
1 x,y,z
2 -x,y,1/2-z
3 1/2+x,1/2+y,z
4 1/2-x,1/2+y,1/2-z
5 -x,-y,-z
6 x,-y,1/2+z
7 1/2-x,1/2-y,-z
8 1/2+x,1/2-y,1/2+z
_cell_length_a                   18.206(5)
_cell_length_b                   18.320(5)
_cell_length_c                   14.765(4)
_cell_angle_alpha                90
_cell_angle_beta                 92.161(5)
_cell_angle_gamma                90
_cell_volume                     4921.13
loop_
_atom_site_label
_atom_site_type_symbol
_atom_site_fract_x
_atom_site_fract_y
_atom_site_fract_z
Zn1 Zn 0.0000 0.38173(7) 0.7500
Zn2 Zn 0.32735(5) 0.26152(5) 0.77448(6)
C1 C 0.1541(4) 0.3014(4) 0.8024(5)
C2 C 0.1498(4) 0.2832(5) 0.8980(5)
C3 C 0.1703(4) 0.2152(4) 0.9308(5)
H1 H 0.1819 0.1774 0.8897
C4 C 0.1311(4) 0.3345(4) 0.9625(6)
H2 H 0.1146 0.3813 0.9432
C5 C 0.1738(4) 0.2019(4) 1.0221(5)
H3 H 0.1877 0.1546 1.0430
C6 C 0.1360(4) 0.3191(4) 1.0518(5)
H4 H 0.1232 0.3557 1.0939
C7 C 0.1993(4) 0.3119(4) 0.6707(5)
C8 C 0.1304(4) 0.3404(4) 0.6662(5)
C9 C 0.0853(4) 0.3731(4) 0.5910(5)
C10 C 0.2555(4) 0.3076(4) 0.6027(5)
C11 C 0.4109(4) 0.3972(5) 0.7655(6)
C12 C 0.4620(4) 0.3384(4) 0.7554(6)
C13 C 0.5000 0.2274(6) 0.7500
C14 C 0.4757(4) 0.0333(4) 0.6772(5)
H5 H 0.4592 0.0074 0.6245
C15 C 0.4734(4) 0.1086(4) 0.6746(5)
H6 H 0.4540 0.1335 0.6225
C16 C 0.5000 0.1472(5) 0.7500
C17 C 0.2338(8) 0.0147(6) 0.6077(7)
H7 H 0.2208 0.0525 0.5630
H8 H 0.1894 -0.0113 0.6245
H9 H 0.2683 -0.0198 0.5815
C18 C 0.2873(6) 0.0028(6) 0.7630(9)
H10 H 0.2954 0.0326 0.8175
H11 H 0.3324 -0.0241 0.7506
H12 H 0.2473 -0.0318 0.7724
C19 C 0.2823(4) 0.1183(5) 0.6938(6)
H13 H 0.2689 0.1473 0.6425
N1 N 0.1582(3) 0.2535(3) 1.0832(4)
N2 N 0.2153(3) 0.2867(3) 0.7557(4)
N3 N 0.1008(3) 0.3347(3) 0.7510(4)
N4 N 0.4396(3) 0.2681(3) 0.7566(4)
N5 N 0.5000 -0.0059(5) 0.7500
N6 N 0.2683(4) 0.0487(4) 0.6883(6)
O1 O 0.1139(3) 0.3817(3) 0.5163(4)
O2 O 0.3114(3) 0.1501(3) 0.7596(4)
O3 O 0.0200(3) 0.3883(3) 0.6085(3)
O4 O 0.2419(3) 0.3341(3) 0.5228(4)
H14 H 0.2009 0.3553 0.5216
O5 O 0.3160(3) 0.2793(3) 0.6245(4)
O6 O 0.3452(3) 0.3807(3) 0.7799(4)
O7 O 0.4333(3) 0.4635(3) 0.7601(4)
C11A C 0.5891(4) 0.3972(5) 0.7345(6)
C12A C 0.5380(4) 0.3384(4) 0.7446(6)
N4A N 0.5604(3) 0.2681(3) 0.7434(4)
O6A O 0.6548(3) 0.3807(3) 0.7201(4)
O7A O 0.5667(3) 0.4635(3) 0.7399(4)
C14A C 0.5243(4) 0.0333(4) 0.8228(5)
H5A H 0.5408 0.0074 0.8755
C15A C 0.5266(4) 0.1086(4) 0.8254(5)
H6A H 0.5460 0.1335 0.8775
Zn2A Zn -0.32735(5) 0.26152(5) 0.72552(6)
C1A C -0.1541(4) 0.3014(4) 0.6976(5)
C2A C -0.1498(4) 0.2832(5) 0.6020(5)
C3A C -0.1703(4) 0.2152(4) 0.5692(5)
H1A H -0.1819 0.1774 0.6103
C4A C -0.1311(4) 0.3345(4) 0.5375(6)
H2A H -0.1146 0.3813 0.5568
C5A C -0.1738(4) 0.2019(4) 0.4779(5)
H3A H -0.1877 0.1546 0.4570
C6A C -0.1360(4) 0.3191(4) 0.4482(5)
H4A H -0.1232 0.3557 0.4061
C7A C -0.1993(4) 0.3119(4) 0.8293(5)
C8A C -0.1304(4) 0.3404(4) 0.8338(5)
C9A C -0.0853(4) 0.3731(4) 0.9090(5)
C10A C -0.2555(4) 0.3076(4) 0.8973(5)
C17A C -0.2338(8) 0.0147(6) 0.8923(7)
H7A H -0.2208 0.0525 0.9370
H8A H -0.1894 -0.0113 0.8755
H9A H -0.2683 -0.0198 0.9185
C18A C -0.2873(6) 0.0028(6) 0.7370(9)
H10A H -0.2954 0.0326 0.6825
H11A H -0.3324 -0.0241 0.7494
H12A H -0.2473 -0.0318 0.7276
C19A C -0.2823(4) 0.1183(5) 0.8062(6)
H13A H -0.2689 0.1473 0.8575
N1A N -0.1582(3) 0.2535(3) 0.4168(4)
N2A N -0.2153(3) 0.2867(3) 0.7443(4)
N3A N -0.1008(3) 0.3347(3) 0.7490(4)
N6A N -0.2683(4) 0.0487(4) 0.8117(6)
O1A O -0.1139(3) 0.3817(3) 0.9837(4)
O2A O -0.3114(3) 0.1501(3) 0.7404(4)
O3A O -0.0200(3) 0.3883(3) 0.8915(3)
O4A O -0.2419(3) 0.3341(3) 0.9772(4)
H14A H -0.2009 0.3553 0.9784
O5A O -0.3160(3) 0.2793(3) 0.8755(4)
Zn1B Zn 0.5000 -0.11827(7) 0.7500
Zn2A_2 Zn 0.67265(5) 0.26152(5) 0.72552(6)
Zn2F Zn 0.17265(5) 0.23848(5) 1.22552(6)
Zn2G Zn -0.17265(5) 0.23848(5) 0.27448(6)
N1F N 0.3418(3) 0.2465(3) 0.9168(4)
N1G N -0.3418(3) 0.2465(3) 0.5832(4)
N4A_2 N -0.4396(3) 0.2681(3) 0.7434(4)
N5B N 0.0000 0.4941(5) 0.7500
O6A_2 O -0.3452(3) 0.3807(3) 0.7201(4)
C20 C 0.9738(6) 0.1999(6) 1.0006(8)
H15 H 1.0072 0.1892 1.0524
H16 H 0.9245 0.2097 1.0222
H17 H 0.9915 0.2429 0.9685
C21 C 0.9271(12) 0.1421(9) 0.8637(13)
H18 H 0.9233 0.0931 0.8372
H19 H 0.9487 0.1754 0.8201
H20 H 0.8781 0.1594 0.8783
C22 C 1.0099(11) 0.0821(10) 0.9496(13)
H21 H 1.0021 0.0436 0.9072
N7 N 0.9711(6) 0.1396(5) 0.9413(7)
O8 O 1.0592(6) 0.0741(5) 1.0133(8)
O9 O 0.1609(14) 0.0276(13) 0.9044(17)
loop_
_geom_bond_atom_site_label_1
_geom_bond_atom_site_label_2
_geom_bond_site_symmetry_1
_geom_bond_site_symmetry_2
Zn1 N3 1_555 1_555
Zn2 N2 1_555 1_555
C1 C2 1_555 1_555
C2 C3 1_555 1_555
C3 H1 1_555 1_555
C4 C2 1_555 1_555
H2 C4 1_555 1_555
C5 C3 1_555 1_555
H3 C5 1_555 1_555
C6 C4 1_555 1_555
H4 C6 1_555 1_555
C7 C8 1_555 1_555
C8 C9 1_555 1_555
C9 O1 1_555 1_555
C10 C7 1_555 1_555
C11 C12 1_555 1_555
C12 N4 1_555 1_555
C13 C16 1_555 1_555
C14 H5 1_555 1_555
C15 C14 1_555 1_555
H6 C15 1_555 1_555
C16 C15 1_555 1_555
C17 H7 1_555 1_555
H8 C17 1_555 1_555
H9 C17 1_555 1_555
C18 H10 1_555 1_555
H11 C18 1_555 1_555
H12 C18 1_555 1_555
C19 H13 1_555 1_555
N1 C5 1_555 1_555
N2 C1 1_555 1_555
N3 C1 1_555 1_555
N4 Zn2 1_555 1_555
N5 C14 1_555 1_555
N6 C17 1_555 1_555
O2 Zn2 1_555 1_555
O3 Zn1 1_555 1_555
O4 C10 1_555 1_555
H14 O4 1_555 1_555
O5 Zn2 1_555 1_555
O6 Zn2 1_555 1_555
O7 C11 1_555 1_555
C20 H15 1_555 1_555
H16 C20 1_555 1_555
H17 C20 1_555 1_555
C21 H18 1_555 1_555
H19 C21 1_555 1_555
H20 C21 1_555 1_555
C22 H21 1_555 1_555
N7 C20 1_555 1_555
O8 C22 1_555 1_555
C11A C12A 1_555 1_555
C12A C12 1_555 1_555
N4A C13 1_555 1_555
O6A C11A 1_555 1_555
O7A C11A 1_555 1_555
C14A N5 1_555 1_555
H5A C14A 1_555 1_555
C15A C16 1_555 1_555
H6A C15A 1_555 1_555
Zn2A N2A 1_555 1_555
C1A C2A 1_555 1_555
C2A C3A 1_555 1_555
C3A H1A 1_555 1_555
C4A C2A 1_555 1_555
H2A C4A 1_555 1_555
C5A C3A 1_555 1_555
H3A C5A 1_555 1_555
C6A C4A 1_555 1_555
H4A C6A 1_555 1_555
C7A C8A 1_555 1_555
C8A C9A 1_555 1_555
C9A O1A 1_555 1_555
C10A C7A 1_555 1_555
C17A H7A 1_555 1_555
H8A C17A 1_555 1_555
H9A C17A 1_555 1_555
C18A H10A 1_555 1_555
H11A C18A 1_555 1_555
H12A C18A 1_555 1_555
C19A H13A 1_555 1_555
N1A C5A 1_555 1_555
N2A C1A 1_555 1_555
N3A Zn1 1_555 1_555
N6A C17A 1_555 1_555
O2A Zn2A 1_555 1_555
O3A Zn1 1_555 1_555
O4A C10A 1_555 1_555
H14A O4A 1_555 1_555
O5A Zn2A 1_555 1_555
Zn1B N5 1_555 1_555
Zn2A_2 N4A 1_555 1_555
Zn2F N1 1_555 1_555
Zn2G N1A 1_555 1_555
N1F Zn2 1_555 1_555
N1G Zn2A 1_555 1_555
N4A_2 Zn2A 1_555 1_555
N5B Zn1 1_555 1_555
O6A_2 Zn2A 1_555 1_555
C6 N1 1_555 1_555
C7 N2 1_555 1_555
C8 N3 1_555 1_555
C9 O3 1_555 1_555
C10 O5 1_555 1_555
C11 O6 1_555 1_555
C13 N4 1_555 1_555
C18 N6 1_555 1_555
C19 N6 1_555 1_555
C19 O2 1_555 1_555
C21 N7 1_555 1_555
C22 N7 1_555 1_555
C12A N4A 1_555 1_555
O6A Zn2A_2 1_555 1_555
C14A C15A 1_555 1_555
C1A N3A 1_555 1_555
C6A N1A 1_555 1_555
C7A N2A 1_555 1_555
C8A N3A 1_555 1_555
C9A O3A 1_555 1_555
C10A O5A 1_555 1_555
C18A N6A 1_555 1_555
C19A N6A 1_555 1_555
C19A O2A 1_555 1_555

#END
