
#######################################################################
#
#                 Cambridge Crystallographic Data Centre
#                                CCDC 
#
#######################################################################
#
# If this CIF has been generated from an entry in the Cambridge 
# Structural Database, then it will include bibliographic, chemical, 
# crystal, experimental, refinement or atomic coordinate data resulting 
# from the CCDC's data processing and validation procedures.
#
#######################################################################

data_PURJAO
_chemical_formula_moiety         '(C33 H24 O12 Zn1)n'
_symmetry_cell_setting           orthorhombic
_symmetry_space_group_name_H-M   'P b c n'
_symmetry_Int_Tables_number      60
_space_group_name_Hall           '-P 2n 2ab'
loop_
_symmetry_equiv_pos_site_id
_symmetry_equiv_pos_as_xyz
1 x,y,z
2 1/2-x,1/2-y,1/2+z
3 1/2+x,1/2-y,-z
4 -x,y,1/2-z
5 -x,-y,-z
6 1/2+x,1/2+y,1/2-z
7 1/2-x,1/2+y,z
8 x,-y,1/2+z
_cell_length_a                   24.4646(19)
_cell_length_b                   15.2591(11)
_cell_length_c                   33.563(3)
_cell_angle_alpha                90
_cell_angle_beta                 90
_cell_angle_gamma                90
_cell_volume                     12529.3
loop_
_atom_site_label
_atom_site_type_symbol
_atom_site_fract_x
_atom_site_fract_y
_atom_site_fract_z
Zn1 Zn 0.697592(19) 0.24503(3) 0.097955(13)
O1 O 0.57569(10) -0.37961(17) 0.25296(7)
C1 C 0.6370(2) 0.0980(3) 0.12793(14)
O2 O 0.63234(11) -0.1550(2) 0.25114(8)
C2 C 0.63582(19) 0.0295(3) 0.16093(12)
O3 O 0.67117(12) -0.26694(18) 0.54394(8)
C3 C 0.68230(19) -0.0094(3) 0.17477(14)
H1 H 0.7164 0.0063 0.1633
O4 O 0.63608(12) -0.29660(19) 0.35841(8)
C4 C 0.68117(19) -0.0703(3) 0.20463(14)
H2 H 0.7140 -0.0970 0.2136
O5 O 0.67355(14) -0.6642(2) 0.13523(8)
C5 C 0.63054(18) -0.0929(3) 0.22180(12)
O6 O 0.52443(12) -0.21509(19) 0.34236(8)
C6 C 0.58399(18) -0.0547(3) 0.20869(12)
H3 H 0.5498 -0.0687 0.2205
O7 O 0.72457(16) -0.1575(2) 0.52439(8)
C7 C 0.5871(2) 0.0060(3) 0.17738(14)
H4 H 0.5544 0.0313 0.1674
C8 C 0.58373(16) -0.1845(3) 0.26745(11)
H5 H 0.5593 -0.2051 0.2459
H6 H 0.5653 -0.1354 0.2813
C9 C 0.59369(17) -0.2587(3) 0.29675(12)
O8 O 0.68441(15) 0.12787(19) 0.12027(9)
C10 C 0.61828(17) -0.3384(3) 0.27537(11)
H7 H 0.6481 -0.3195 0.2574
H8 H 0.6336 -0.3800 0.2951
C11 C 0.59029(18) -0.4462(3) 0.22766(11)
O9 O 0.29570(13) -0.1287(2) 0.42261(9)
C12 C 0.54830(17) -0.4844(3) 0.20735(12)
H9 H 0.5117 -0.4663 0.2120
C13 C 0.55940(18) -0.5501(3) 0.17964(13)
H10 H 0.5299 -0.5767 0.1657
O10 O 0.27603(13) -0.25465(19) 0.39177(10)
C14 C 0.61239(17) -0.5779(3) 0.17187(11)
C15 C 0.65392(18) -0.5388(3) 0.19340(12)
H11 H 0.6905 -0.5568 0.1887
C16 C 0.64401(16) -0.4735(3) 0.22195(11)
H12 H 0.6731 -0.4486 0.2369
C17 C 0.6235(2) -0.6448(3) 0.14057(13)
C18 C 0.63508(18) -0.2286(3) 0.32838(12)
H13 H 0.6718 -0.2211 0.3164
H14 H 0.6236 -0.1721 0.3402
C19 C 0.65177(19) -0.2738(3) 0.39629(12)
C20 C 0.63329(17) -0.3278(3) 0.42575(11)
H15 H 0.6114 -0.3772 0.4194
O11 O 0.59591(18) 0.1180(3) 0.10968(13)
C21 C 0.64685(18) -0.3099(3) 0.46542(11)
H16 H 0.6343 -0.3477 0.4860
C22 C 0.6779(2) -0.2388(3) 0.47490(13)
C23 C 0.6969(2) -0.1844(3) 0.44400(13)
H17 H 0.7199 -0.1360 0.4501
C24 C 0.6826(2) -0.2005(4) 0.40521(12)
H18 H 0.6937 -0.1617 0.3846
C25 C 0.6934(2) -0.2175(3) 0.51728(13)
C26 C 0.53916(17) -0.2842(3) 0.31568(11)
H19 H 0.5108 -0.2915 0.2949
H20 H 0.5429 -0.3402 0.3304
C27 C 0.47082(18) -0.2174(3) 0.35692(12)
C28 C 0.4584(2) -0.1504(3) 0.38358(12)
H21 H 0.4857 -0.1098 0.3916
C29 C 0.40619(19) -0.1440(3) 0.39816(12)
H22 H 0.3974 -0.0976 0.4159
C30 C 0.36636(17) -0.2029(3) 0.38771(11)
C31 C 0.38046(17) -0.2693(3) 0.36084(12)
H23 H 0.3533 -0.3098 0.3524
C32 C 0.43263(17) -0.2770(3) 0.34648(11)
H24 H 0.4419 -0.3241 0.3293
C33 C 0.3090(2) -0.1934(4) 0.40230(12)
O12 O 0.58649(16) -0.6753(3) 0.12202(12)
Zn1G Zn 0.697592(19) -0.24503(3) 0.597955(13)
Zn1_2 Zn 0.697592(19) -0.75497(3) 0.097955(13)
Zn1E Zn 0.197592(19) -0.25497(3) 0.402045(13)
O3G O 0.67117(12) 0.26694(18) 0.04394(8)
O5_2 O 0.67355(14) 0.3358(2) 0.13523(8)
O10E O 0.77603(13) 0.24535(19) 0.10823(10)
loop_
_geom_bond_atom_site_label_1
_geom_bond_atom_site_label_2
_geom_bond_site_symmetry_1
_geom_bond_site_symmetry_2
Zn1 O8 1_555 1_555
O1 C10 1_555 1_555
C1 C2 1_555 1_555
O2 C5 1_555 1_555
C2 C3 1_555 1_555
O3 C25 1_555 1_555
C3 H1 1_555 1_555
O4 C18 1_555 1_555
C4 C3 1_555 1_555
H2 C4 1_555 1_555
O5 C17 1_555 1_555
C5 C4 1_555 1_555
O6 C26 1_555 1_555
C6 C5 1_555 1_555
H3 C6 1_555 1_555
O7 C25 1_555 1_555
C7 C2 1_555 1_555
H4 C7 1_555 1_555
C8 O2 1_555 1_555
H5 C8 1_555 1_555
H6 C8 1_555 1_555
C9 C8 1_555 1_555
O8 C1 1_555 1_555
C10 C9 1_555 1_555
H7 C10 1_555 1_555
H8 C10 1_555 1_555
C11 O1 1_555 1_555
O9 C33 1_555 1_555
C12 C11 1_555 1_555
H9 C12 1_555 1_555
C13 C12 1_555 1_555
H10 C13 1_555 1_555
O10 C33 1_555 1_555
C14 C13 1_555 1_555
C15 C14 1_555 1_555
H11 C15 1_555 1_555
C16 C11 1_555 1_555
H12 C16 1_555 1_555
C17 C14 1_555 1_555
C18 C9 1_555 1_555
H13 C18 1_555 1_555
H14 C18 1_555 1_555
C19 O4 1_555 1_555
C20 C19 1_555 1_555
H15 C20 1_555 1_555
O11 C1 1_555 1_555
C21 C20 1_555 1_555
H16 C21 1_555 1_555
C22 C21 1_555 1_555
C23 C22 1_555 1_555
H17 C23 1_555 1_555
C24 C19 1_555 1_555
H18 C24 1_555 1_555
C25 C22 1_555 1_555
C26 C9 1_555 1_555
H19 C26 1_555 1_555
H20 C26 1_555 1_555
C27 O6 1_555 1_555
C28 C27 1_555 1_555
H21 C28 1_555 1_555
C29 C28 1_555 1_555
H22 C29 1_555 1_555
C30 C29 1_555 1_555
C31 C30 1_555 1_555
H23 C31 1_555 1_555
C32 C27 1_555 1_555
H24 C32 1_555 1_555
C33 C30 1_555 1_555
O12 C17 1_555 1_555
Zn1G O3 1_555 1_555
Zn1_2 O5 1_555 1_555
Zn1E O10 1_555 1_555
O3G Zn1 1_555 1_555
O5_2 Zn1 1_555 1_555
O10E Zn1 1_555 1_555
C6 C7 1_555 1_555
C15 C16 1_555 1_555
C23 C24 1_555 1_555
C31 C32 1_555 1_555

#END
