
#######################################################################
#
#                 Cambridge Crystallographic Data Centre
#                                CCDC 
#
#######################################################################
#
# If this CIF has been generated from an entry in the Cambridge 
# Structural Database, then it will include bibliographic, chemical, 
# crystal, experimental, refinement or atomic coordinate data resulting 
# from the CCDC's data processing and validation procedures.
#
#######################################################################

data_PURJIW
_chemical_formula_moiety         '(C36 H32 N1 O13 Zn2)n'
_symmetry_cell_setting           monoclinic
_symmetry_space_group_name_H-M   'C 2/c'
_symmetry_Int_Tables_number      15
_space_group_name_Hall           '-C 2yc'
loop_
_symmetry_equiv_pos_site_id
_symmetry_equiv_pos_as_xyz
1 x,y,z
2 -x,y,1/2-z
3 1/2+x,1/2+y,z
4 1/2-x,1/2+y,1/2-z
5 -x,-y,-z
6 x,-y,1/2+z
7 1/2-x,1/2-y,-z
8 1/2+x,1/2-y,1/2+z
_cell_length_a                   32.084(6)
_cell_length_b                   12.458(2)
_cell_length_c                   30.972(6)
_cell_angle_alpha                90
_cell_angle_beta                 116.899(5)
_cell_angle_gamma                90
_cell_volume                     11040.2
loop_
_atom_site_label
_atom_site_type_symbol
_atom_site_fract_x
_atom_site_fract_y
_atom_site_fract_z
Zn1 Zn 0.154048(13) 0.56650(3) 0.171792(13)
Zn2 Zn 0.656470(14) 0.13981(3) 0.743780(13)
O1 O 0.65261(10) 0.2408(2) 0.79011(10)
O2 O 0.21968(8) 0.53940(19) 0.21960(9)
O3 O 0.62645(9) 0.12596(19) 0.21147(9)
O4 O 0.43725(8) 0.47009(17) 0.32835(8)
O5 O 0.63860(10) 0.07987(19) 0.64505(9)
O6 O 0.62360(9) 0.21569(18) 0.68237(8)
O7 O 0.57158(8) 0.5718(2) 0.42738(8)
O8 O 0.59186(12) 0.8727(3) 0.60242(11)
O9 O 0.53990(8) 0.39722(19) 0.46878(7)
O10 O 0.61810(10) -0.0242(2) 0.24682(10)
O11 O 0.66517(11) 0.8328(2) 0.62662(9)
O12 O 0.22090(8) 0.3914(2) 0.26193(9)
O13 O 0.53000(9) 0.29437(18) 0.33858(8)
C1 C 0.61332(13) 0.0756(3) 0.23868(13)
C2 C 0.58979(13) 0.1369(3) 0.26308(12)
C3 C 0.58510(13) 0.2477(3) 0.25899(12)
H1 H 0.5961 0.2853 0.2395
C4 C 0.56455(12) 0.3046(3) 0.28298(12)
H2 H 0.5608 0.3802 0.2795
C5 C 0.54960(12) 0.2484(3) 0.31214(11)
C6 C 0.55331(16) 0.1372(3) 0.31626(15)
H3 H 0.5419 0.0993 0.3354
C7 C 0.57409(15) 0.0826(3) 0.29181(14)
H4 H 0.5775 0.0069 0.2949
C8 C 0.53271(13) 0.4081(3) 0.34539(12)
H5 H 0.5120 0.4452 0.3149
H6 H 0.5651 0.4336 0.3561
C9 C 0.51686(11) 0.4295(2) 0.38446(11)
C10 C 0.24058(12) 0.4646(3) 0.24839(12)
C11 C 0.29230(12) 0.4620(3) 0.26947(12)
C12 C 0.31896(12) 0.3847(3) 0.30346(12)
H7 H 0.3035 0.3312 0.3128
C13 C 0.36684(12) 0.3843(3) 0.32368(12)
H8 H 0.3842 0.3314 0.3470
C14 C 0.38968(11) 0.4606(3) 0.31013(11)
C15 C 0.36388(12) 0.5393(3) 0.27547(13)
H9 H 0.3794 0.5923 0.2660
C16 C 0.31556(12) 0.5382(3) 0.25547(13)
H10 H 0.2980 0.5902 0.2318
C17 C 0.62331(16) 0.8261(3) 0.59703(15)
C18 C 0.60959(15) 0.7570(3) 0.55145(14)
C19 C 0.64127(15) 0.6928(4) 0.54559(16)
H11 H 0.6727 0.6907 0.5702
C20 C 0.62797(15) 0.6295(4) 0.50358(16)
H12 H 0.6499 0.5839 0.4999
C21 C 0.58255(13) 0.6357(3) 0.46816(12)
C22 C 0.55138(15) 0.7020(3) 0.47423(15)
H13 H 0.5201 0.7067 0.4494
C23 C 0.56479(17) 0.7611(4) 0.51545(16)
H14 H 0.5426 0.8058 0.5191
C24 C 0.62200(12) 0.1713(3) 0.64521(12)
C25 C 0.59760(15) 0.1824(3) 0.55666(13)
H15 H 0.6087 0.1112 0.5581
C26 C 0.57893(15) 0.2367(3) 0.51327(13)
H16 H 0.5779 0.2036 0.4852
C27 C 0.56165(12) 0.3398(3) 0.51062(12)
C28 C 0.56487(13) 0.3887(3) 0.55211(12)
H17 H 0.5538 0.4600 0.5506
C29 C 0.58402(13) 0.3343(3) 0.59567(12)
H18 H 0.5859 0.3684 0.6239
C30 C 0.54583(12) 0.3592(3) 0.42768(11)
H19 H 0.5354 0.2836 0.4205
H20 H 0.5792 0.3628 0.4350
C31 C 0.52274(12) 0.5493(3) 0.39775(12)
H21 H 0.5107 0.5934 0.3680
H22 H 0.5048 0.5675 0.4157
C32 C 0.46554(11) 0.3987(3) 0.36663(11)
H23 H 0.4604 0.3237 0.3547
H24 H 0.4570 0.4041 0.3935
C33 C 0.60046(12) 0.2309(3) 0.59860(12)
C34 C 0.6707(4) 0.2497(11) 0.8332(3)
H25 H 0.6971 0.1987 0.8429
H26 H 0.6853 0.3215 0.8376
C35 C 0.6965(6) 0.2534(15) 0.9240(5)
H27 H 0.7274 0.2635 0.9254
H28 H 0.6892 0.3151 0.9389
H29 H 0.6965 0.1878 0.9414
N1 N 0.6610(5) 0.2442(12) 0.8729(4)
C36 C 0.6258(8) 0.326(2) 0.8536(10)
H30 H 0.6061 0.3133 0.8191
H31 H 0.6064 0.3246 0.8707
H32 H 0.6408 0.3967 0.8581
Zn1B Zn 0.654048(13) 0.06650(3) 0.171792(13)
Zn1G Zn 0.654048(13) -0.06650(3) 0.671792(13)
Zn1G_2 Zn 0.654048(13) 0.93350(3) 0.671792(13)
Zn2E Zn 0.656470(14) -0.13981(3) 0.243780(13)
Zn2G Zn 0.156470(14) 0.36019(3) 0.243780(13)
O3B O 0.12645(9) 0.62596(19) 0.21147(9)
O5G O 0.13860(10) 0.42013(19) 0.14505(9)
O8G O 0.09186(12) 0.6273(3) 0.10242(11)
O10E O 0.61810(10) 0.0242(2) 0.74682(10)
O11G O 0.16517(11) 0.6672(2) 0.12662(9)
O12G O 0.72090(8) 0.1086(2) 0.76193(9)
loop_
_geom_bond_atom_site_label_1
_geom_bond_atom_site_label_2
_geom_bond_site_symmetry_1
_geom_bond_site_symmetry_2
Zn1 O2 1_555 1_555
Zn2 O1 1_555 1_555
O1 C34 1_555 1_555
O2 C10 1_555 1_555
O3 C1 1_555 1_555
O4 C14 1_555 1_555
O5 C24 1_555 1_555
O6 Zn2 1_555 1_555
O7 C21 1_555 1_555
O8 C17 1_555 1_555
O9 C27 1_555 1_555
O10 C1 1_555 1_555
O11 C17 1_555 1_555
O12 C10 1_555 1_555
O13 C5 1_555 1_555
C1 C2 1_555 1_555
C2 C3 1_555 1_555
C3 H1 1_555 1_555
C4 C3 1_555 1_555
H2 C4 1_555 1_555
C5 C4 1_555 1_555
C6 C5 1_555 1_555
H3 C6 1_555 1_555
C7 C2 1_555 1_555
H4 C7 1_555 1_555
C8 O13 1_555 1_555
H5 C8 1_555 1_555
H6 C8 1_555 1_555
C9 C8 1_555 1_555
C10 C11 1_555 1_555
C11 C12 1_555 1_555
C12 H7 1_555 1_555
C13 C12 1_555 1_555
H8 C13 1_555 1_555
C14 C13 1_555 1_555
C15 C14 1_555 1_555
H9 C15 1_555 1_555
C16 C11 1_555 1_555
H10 C16 1_555 1_555
C17 C18 1_555 1_555
C18 C19 1_555 1_555
C19 H11 1_555 1_555
C20 C19 1_555 1_555
H12 C20 1_555 1_555
C21 C20 1_555 1_555
C22 C21 1_555 1_555
H13 C22 1_555 1_555
C23 C18 1_555 1_555
H14 C23 1_555 1_555
C24 O6 1_555 1_555
C25 H15 1_555 1_555
C26 C25 1_555 1_555
H16 C26 1_555 1_555
C27 C26 1_555 1_555
C28 C27 1_555 1_555
H17 C28 1_555 1_555
C29 C28 1_555 1_555
H18 C29 1_555 1_555
C30 O9 1_555 1_555
H19 C30 1_555 1_555
H20 C30 1_555 1_555
C31 O7 1_555 1_555
H21 C31 1_555 1_555
H22 C31 1_555 1_555
C32 O4 1_555 1_555
H23 C32 1_555 1_555
H24 C32 1_555 1_555
C33 C24 1_555 1_555
C34 H25 1_555 1_555
H26 C34 1_555 1_555
C35 H27 1_555 1_555
H28 C35 1_555 1_555
H29 C35 1_555 1_555
N1 C34 1_555 1_555
C36 N1 1_555 1_555
H30 C36 1_555 1_555
H31 C36 1_555 1_555
H32 C36 1_555 1_555
Zn1B O3 1_555 1_555
Zn1G O5 1_555 1_555
Zn1G_2 O8 1_555 1_555
Zn2E O10 1_555 1_555
Zn2G O12 1_555 1_555
O3B Zn1 1_555 1_555
O5G Zn1 1_555 1_555
O8G Zn1 1_555 1_555
O10E Zn2 1_555 1_555
O11G Zn1 1_555 1_555
O12G Zn2 1_555 1_555
O11 Zn1G_2 1_555 1_555
C6 C7 1_555 1_555
C9 C30 1_555 1_555
C9 C31 1_555 1_555
C9 C32 1_555 1_555
C15 C16 1_555 1_555
C22 C23 1_555 1_555
C25 C33 1_555 1_555
C29 C33 1_555 1_555
C35 N1 1_555 1_555

#END
