
#######################################################################
#
#                 Cambridge Crystallographic Data Centre
#                                CCDC 
#
#######################################################################
#
# If this CIF has been generated from an entry in the Cambridge 
# Structural Database, then it will include bibliographic, chemical, 
# crystal, experimental, refinement or atomic coordinate data resulting 
# from the CCDC's data processing and validation procedures.
#
#######################################################################

data_ECNPYR01
_chemical_formula_moiety         'C19 Cd2 N18 Ni4'
_symmetry_cell_setting           tetragonal
_symmetry_space_group_name_H-M   'P 4/m m m'
_symmetry_Int_Tables_number      123
_space_group_name_Hall           '-P 4 2'
loop_
_symmetry_equiv_pos_site_id
_symmetry_equiv_pos_as_xyz
1 x,y,z
2 -y,x,z
3 y,x,-z
4 y,-x,z
5 -x,y,z
6 x,y,-z
7 x,-y,z
8 y,x,z
9 -x,-y,-z
10 y,-x,-z
11 -y,-x,z
12 -y,x,-z
13 x,-y,-z
14 -x,-y,z
15 -x,y,-z
16 -y,-x,-z
_cell_length_a                   7.590(1)
_cell_length_b                   7.590(1)
_cell_length_c                   7.725(2)
_cell_angle_alpha                90
_cell_angle_beta                 90
_cell_angle_gamma                90
_cell_volume                     445.023
loop_
_atom_site_label
_atom_site_type_symbol
_atom_site_fract_x
_atom_site_fract_y
_atom_site_fract_z
Cd1 Cd 0.0000 0.0000 0.000
Ni1 Ni 0.5000 0.5000 0.000
N1 N 0.2210(4) 0.2210(4) 0.000
C1 C 0.3279(3) 0.3279(3) 0.000
N2 N 0.033(6) 0.0000 0.299(1)
C2 C -0.108(4) 0.0000 0.402(1)
N2A N 0.0000 0.033(6) 0.299(1)
N2M N -0.033(6) 0.0000 0.299(1)
N2C N 0.0000 -0.033(6) 0.299(1)
C2M C 0.108(4) 0.0000 0.402(1)
C2C C 0.0000 0.108(4) 0.402(1)
C2A C 0.0000 -0.108(4) 0.402(1)
C2K C 0.0000 -0.108(4) 0.598(1)
N2K N 0.0000 0.033(6) 0.701(1)
N2H N -0.033(6) 0.0000 0.701(1)
N2E N 0.033(6) 0.0000 0.701(1)
N2O N -0.0000 -0.033(6) 0.701(1)
C2H C 0.108(4) 0.0000 0.598(1)
C2E C -0.108(4) 0.0000 0.598(1)
C2O C 0.0000 0.108(4) 0.598(1)
N1A N -0.2210(4) 0.2210(4) 0.000
C1A C -0.3279(3) 0.3279(3) 0.000
N1C N 0.2210(4) -0.2210(4) 0.000
C1C C 0.3279(3) -0.3279(3) 0.000
N1H N -0.2210(4) -0.2210(4) 0.000
C1H C -0.3279(3) -0.3279(3) 0.000
N2B N 0.0000 0.033(6) -0.299(1)
N2E_2 N 0.033(6) 0.0000 -0.299(1)
N2H_2 N -0.033(6) 0.0000 -0.299(1)
N2I N 0.0000 -0.033(6) -0.299(1)
C1A_2 C 0.6721(3) 0.3279(3) 0.000
C1C_2 C 0.3279(3) 0.6721(3) 0.000
C1H_2 C 0.6721(3) 0.6721(3) 0.000
Cd1_2 Cd 0.0000 0.0000 1.000
Ni1_2 Ni -0.5000 0.5000 0.000
Ni1_3 Ni 0.5000 -0.5000 0.000
Ni1_4 Ni -0.5000 -0.5000 0.000
N3 N 0.0000 0.5000 0.326(3)
C3 C 0.124(2) 0.5000 0.415(1)
C3E C 0.124(2) 0.5000 0.585(1)
N3E N 0.0000 0.5000 0.674(3)
C3N C -0.124(2) 0.5000 0.585(1)
C3D C -0.124(2) 0.5000 0.415(1)
loop_
_geom_bond_atom_site_label_1
_geom_bond_atom_site_label_2
_geom_bond_site_symmetry_1
_geom_bond_site_symmetry_2
Cd1 N1 1_555 1_555
Ni1 C1 1_555 1_555
N1 C1 1_555 1_555
N2 Cd1 1_555 1_555
C2 N2 1_555 1_555
N3 C3 1_555 1_555
C3 C3E 1_555 1_555
N2A Cd1 1_555 1_555
N2M Cd1 1_555 1_555
N2C Cd1 1_555 1_555
C2M N2 1_555 1_555
C2C N2 1_555 1_555
C2A N2 1_555 1_555
C2K C2A 1_555 1_555
N2K C2K 1_555 1_555
N2H C2K 1_555 1_555
N2E C2K 1_555 1_555
N2O C2K 1_555 1_555
C2H C2M 1_555 1_555
C2E C2 1_555 1_555
C2O C2C 1_555 1_555
C3E N3E 1_555 1_555
N3E C3N 1_555 1_555
C3N C3D 1_555 1_555
C3D N3 1_555 1_555
N1A Cd1 1_555 1_555
C1A N1A 1_555 1_555
N1C Cd1 1_555 1_555
C1C N1C 1_555 1_555
N1H Cd1 1_555 1_555
C1H N1H 1_555 1_555
N2B Cd1 1_555 1_555
N2E_2 Cd1 1_555 1_555
N2H_2 Cd1 1_555 1_555
N2I Cd1 1_555 1_555
C1A_2 Ni1 1_555 1_555
C1C_2 Ni1 1_555 1_555
C1H_2 Ni1 1_555 1_555
Cd1_2 N2K 1_555 1_555
Ni1_2 C1A 1_555 1_555
Ni1_3 C1C 1_555 1_555
Ni1_4 C1H 1_555 1_555
N2 N2A 1_555 1_555
N2 N2C 1_555 1_555
N2 N2M 1_555 1_555
C2 N2A 1_555 1_555
C2 N2C 1_555 1_555
C2 N2M 1_555 1_555
C2 C2A 1_555 1_555
C2 C2C 1_555 1_555
C2 C2M 1_555 1_555
N2A N2M 1_555 1_555
N2A C2M 1_555 1_555
N2A N2C 1_555 1_555
N2A C2A 1_555 1_555
N2A C2C 1_555 1_555
N2M N2C 1_555 1_555
N2M C2M 1_555 1_555
N2M C2A 1_555 1_555
N2M C2C 1_555 1_555
N2C C2C 1_555 1_555
N2C C2A 1_555 1_555
N2C C2M 1_555 1_555
C2M C2A 1_555 1_555
C2M C2C 1_555 1_555
C2C C2A 1_555 1_555
C2K C2E 1_555 1_555
C2K C2O 1_555 1_555
C2K C2H 1_555 1_555
N2K N2H 1_555 1_555
N2K N2E 1_555 1_555
N2K N2O 1_555 1_555
N2K C2H 1_555 1_555
N2K C2O 1_555 1_555
N2K C2E 1_555 1_555
N2H C2H 1_555 1_555
N2H N2O 1_555 1_555
N2H N2E 1_555 1_555
N2H C2O 1_555 1_555
N2H C2E 1_555 1_555
N2H Cd1_2 1_555 1_555
N2E C2E 1_555 1_555
N2E N2O 1_555 1_555
N2E C2O 1_555 1_555
N2E C2H 1_555 1_555
N2E Cd1_2 1_555 1_555
N2O C2O 1_555 1_555
N2O C2E 1_555 1_555
N2O C2H 1_555 1_555
N2O Cd1_2 1_555 1_555
C2H C2E 1_555 1_555
C2H C2O 1_555 1_555
C2E C2O 1_555 1_555
N2B N2E_2 1_555 1_555
N2B N2H_2 1_555 1_555
N2B N2I 1_555 1_555
N2E_2 N2H_2 1_555 1_555
N2E_2 N2I 1_555 1_555
N2H_2 N2I 1_555 1_555

#END
