
#######################################################################
#
#                 Cambridge Crystallographic Data Centre
#                                CCDC 
#
#######################################################################
#
# If this CIF has been generated from an entry in the Cambridge 
# Structural Database, then it will include bibliographic, chemical, 
# crystal, experimental, refinement or atomic coordinate data resulting 
# from the CCDC's data processing and validation procedures.
#
#######################################################################

data_KUYPIF
_chemical_formula_moiety         'C19 H9 N7 O11 Zn7'
_symmetry_cell_setting           orthorhombic
_symmetry_space_group_name_H-M   'C m c m'
_symmetry_Int_Tables_number      63
_space_group_name_Hall           '-C 2c 2'
loop_
_symmetry_equiv_pos_site_id
_symmetry_equiv_pos_as_xyz
1 x,y,z
2 -x,-y,1/2+z
3 x,-y,-z
4 -x,y,1/2-z
5 1/2+x,1/2+y,z
6 1/2-x,1/2-y,1/2+z
7 1/2+x,1/2-y,-z
8 1/2-x,1/2+y,1/2-z
9 -x,-y,-z
10 x,y,1/2-z
11 -x,y,z
12 x,-y,1/2+z
13 1/2-x,1/2-y,-z
14 1/2+x,1/2+y,1/2-z
15 1/2-x,1/2+y,z
16 1/2+x,1/2-y,1/2+z
_cell_length_a                   10.280(2)
_cell_length_b                   32.067(6)
_cell_length_c                   6.9403(14)
_cell_angle_alpha                90
_cell_angle_beta                 90
_cell_angle_gamma                90
_cell_volume                     2287.86
loop_
_atom_site_label
_atom_site_type_symbol
_atom_site_fract_x
_atom_site_fract_y
_atom_site_fract_z
O5 O 1.0000 0.597(4) 0.2500
Zn1 Zn 0.5000 0.40383(5) 0.2500
Zn2 Zn 0.5000 0.5000 0.0000
O1 O 0.1623(14) 0.1304(4) 0.7500
O2 O 0.261(2) 0.0723(4) 0.7500
O3 O 0.5000 0.4663(5) 0.2500
O4 O 0.7134(18) 0.5000 0.0000
H1 H 0.7400 0.5224 -0.0413
N1 N 0.5000 0.4047(2) 0.5911(14)
N2 N 0.5000 0.4439(2) 0.6613(14)
C1 C 0.5000 0.1132(7) 0.7500
H2 H 0.5000 0.0842 0.7500
C2 C 0.388(2) 0.1349(4) 0.7500
C3 C 0.265(2) 0.1113(5) 0.7500
C4 C 0.3859(15) 0.1796(4) 0.7500
H3 H 0.3071 0.1938 0.7500
C5 C 0.5000 0.2009(4) 0.7500
C6 C 0.5000 0.2482(4) 0.7500
C7 C 0.4303(18) 0.2706(4) 0.890(3)
C8 C 0.431(2) 0.3144(5) 0.891(3)
C9 C 0.5000 0.3351(4) 0.7500
C10 C 0.5000 0.3812(4) 0.7500
O1C O 0.8377(14) 0.1304(4) 0.7500
O2C O 0.739(2) 0.0723(4) 0.7500
N1C N 0.5000 0.4047(2) 0.9089(14)
N2C N 0.5000 0.4439(2) 0.8387(14)
C2C C 0.612(2) 0.1349(4) 0.7500
C3C C 0.735(2) 0.1113(5) 0.7500
C4C C 0.6141(15) 0.1796(4) 0.7500
H3C H 0.6929 0.1938 0.7500
C7C C 0.5697(18) 0.2706(4) 0.610(3)
C8C C 0.569(2) 0.3144(5) 0.609(3)
C7I C 0.4303(18) 0.2706(4) 0.610(3)
C8I C 0.431(2) 0.3144(5) 0.609(3)
C7J C 0.5697(18) 0.2706(4) 0.890(3)
C8J C 0.569(2) 0.3144(5) 0.891(3)
H1B H 0.7400 0.4776 0.0413
O4H O 0.2866(18) 0.5000 0.0000
H1H H 0.2600 0.4776 0.0413
H1J H 0.2600 0.5224 -0.0413
Zn1_2 Zn 0.5000 0.40383(5) 1.2500
Zn1E Zn 0.0000 0.09617(5) 0.7500
Zn1E_2 Zn 1.0000 0.09617(5) 0.7500
Zn2_2 Zn 0.5000 0.5000 1.0000
Zn2A Zn 0.5000 0.5000 0.5000
O1E O 0.3377(14) 0.3696(4) 0.2500
O1F O 0.6623(14) 0.3696(4) 0.2500
O3A O 0.5000 0.5337(5) -0.2500
N1C_2 N 0.5000 0.4047(2) -0.0911(14)
N2A N 0.5000 0.5561(2) 0.1613(14)
N2C_2 N 0.5000 0.4439(2) -0.1613(14)
loop_
_geom_bond_atom_site_label_1
_geom_bond_atom_site_label_2
_geom_bond_site_symmetry_1
_geom_bond_site_symmetry_2
Zn1 O3 1_555 1_555
Zn2 O3 1_555 1_555
O1 C3 1_555 1_555
O2 C3 1_555 1_555
O3 Zn2A 1_555 1_555
O4 Zn2 1_555 1_555
H1 O4 1_555 1_555
N1 Zn1 1_555 1_555
N2 N1 1_555 1_555
C1 H2 1_555 1_555
C2 C1 1_555 1_555
C3 C2 1_555 1_555
C4 C2 1_555 1_555
H3 C4 1_555 1_555
C5 C4 1_555 1_555
C6 C5 1_555 1_555
C7 C6 1_555 1_555
C8 C7 1_555 1_555
C9 C8 1_555 1_555
C10 N1 1_555 1_555
O1C C3C 1_555 1_555
O2C C3C 1_555 1_555
N1C C10 1_555 1_555
N2C N2 1_555 1_555
C2C C1 1_555 1_555
C3C C2C 1_555 1_555
C4C C5 1_555 1_555
H3C C4C 1_555 1_555
C7C C6 1_555 1_555
C8C C9 1_555 1_555
C7I C6 1_555 1_555
C8I C9 1_555 1_555
C7J C6 1_555 1_555
C8J C8 1_555 1_555
H1B O4 1_555 1_555
O4H Zn2 1_555 1_555
H1H O4H 1_555 1_555
H1J O4H 1_555 1_555
Zn1_2 N1C 1_555 1_555
Zn1E O1 1_555 1_555
Zn1E_2 O1C 1_555 1_555
Zn2_2 N2C 1_555 1_555
Zn2A N2 1_555 1_555
O1E Zn1 1_555 1_555
O1F Zn1 1_555 1_555
O3A Zn2 1_555 1_555
N1C_2 Zn1 1_555 1_555
N2A Zn2 1_555 1_555
N2C_2 Zn2 1_555 1_555
C7 C7J 1_555 1_555
C9 C10 1_555 1_555
C9 C8J 1_555 1_555
N1C N2C 1_555 1_555
C2C C4C 1_555 1_555
C7C C8C 1_555 1_555
C7C C7I 1_555 1_555
C8C C8I 1_555 1_555
C7I C8I 1_555 1_555
C7J C8J 1_555 1_555
N1C_2 N2C_2 1_555 1_555

#END
