
#######################################################################
#
#                 Cambridge Crystallographic Data Centre
#                                CCDC 
#
#######################################################################
#
# If this CIF has been generated from an entry in the Cambridge 
# Structural Database, then it will include bibliographic, chemical, 
# crystal, experimental, refinement or atomic coordinate data resulting 
# from the CCDC's data processing and validation procedures.
#
#######################################################################

data_OSOYUR
_chemical_formula_moiety         '(C21 H17 Ca1 N1 O15 Zn2)n'
_symmetry_cell_setting           orthorhombic
_symmetry_space_group_name_H-M   'C 2 2 21'
_symmetry_Int_Tables_number      20
_space_group_name_Hall           'C 2c 2'
loop_
_symmetry_equiv_pos_site_id
_symmetry_equiv_pos_as_xyz
1 x,y,z
2 -x,-y,1/2+z
3 -x,y,1/2-z
4 x,-y,-z
5 1/2+x,1/2+y,z
6 1/2-x,1/2-y,1/2+z
7 1/2-x,1/2+y,1/2-z
8 1/2+x,1/2-y,-z
_cell_length_a                   13.167(15)
_cell_length_b                   17.558(19)
_cell_length_c                   13.564(16)
_cell_angle_alpha                90
_cell_angle_beta                 90
_cell_angle_gamma                90
_cell_volume                     3135.81
loop_
_atom_site_label
_atom_site_type_symbol
_atom_site_fract_x
_atom_site_fract_y
_atom_site_fract_z
Zn1 Zn 0.80260(3) 0.60470(2) 0.92918(3)
Ca1 Ca 1.0000 0.67476(5) 0.7500
C1 C 0.7298(3) 0.8289(2) 0.8502(3)
C2 C 0.6551(3) 0.8266(2) 0.9220(3)
H1 H 0.6524 0.7856 0.9655
C3 C 0.5845(3) 0.88456(18) 0.9295(3)
C4 C 0.5890(3) 0.94678(19) 0.8658(3)
H2 H 0.5412 0.9856 0.8706
C5 C 0.6653(3) 0.9504(2) 0.7951(3)
C6 C 0.7369(3) 0.8916(2) 0.7870(3)
H3 H 0.7884 0.8943 0.7402
C7 C 0.7986(4) 0.7613(2) 0.8383(3)
C8 C 0.5032(3) 0.87749(19) 1.0067(3)
C9 C 0.6692(3) 1.01756(19) 0.7271(3)
O1 O 0.87071(10) 0.76344(7) 0.78003(10)
O2 O 0.79492(9) 0.71359(7) 0.90125(11)
O3 O 0.51939(13) 0.83731(8) 1.08062(9)
O4 O 0.42076(10) 0.91264(7) 0.98912(13)
O5 O 0.61177(12) 1.07224(7) 0.73966(10)
O6 O 0.73200(11) 1.01615(7) 0.65540(9)
O8 O 0.70135(10) 0.59650(7) 1.03844(11)
H11 H 0.6395 0.6114 1.0325
H12 H 0.7118 0.5779 1.0885
Zn1B Zn 1.19740(3) 0.60470(2) 0.57082(3)
Zn1D Zn 1.30260(3) 1.10470(2) 0.92918(3)
Zn1E Zn 1.69740(3) 0.89530(2) 0.42918(3)
Zn1F Zn 0.69740(3) 1.10470(2) 0.57082(3)
Zn1G Zn 0.30260(3) 0.89530(2) 1.07082(3)
Ca1D Ca 0.5000 1.17476(5) 0.7500
Ca1D_2 Ca 1.5000 1.17476(5) 0.7500
Ca1E Ca 0.5000 0.82524(5) 1.2500
Ca1E_2 Ca 1.5000 0.82524(5) 0.2500
C1B C 1.2702(3) 0.8289(2) 0.6498(3)
C2B C 1.3449(3) 0.8266(2) 0.5780(3)
H1B H 1.3476 0.7856 0.5345
C3B C 1.4155(3) 0.88456(18) 0.5705(3)
C4B C 1.4110(3) 0.94678(19) 0.6342(3)
H2B H 1.4588 0.9856 0.6294
C5B C 1.3347(3) 0.9504(2) 0.7049(3)
C6B C 1.2631(3) 0.8916(2) 0.7130(3)
H3B H 1.2116 0.8943 0.7598
C7B C 1.2014(4) 0.7613(2) 0.6617(3)
C8B C 1.4968(3) 0.87749(19) 0.4933(3)
C9B C 1.3308(3) 1.01756(19) 0.7729(3)
O1B O 1.12929(10) 0.76344(7) 0.71997(10)
O2B O 1.20508(9) 0.71359(7) 0.59875(11)
O3B O 1.48061(13) 0.83731(8) 0.41938(9)
O3E O 0.98061(13) 0.66269(8) 0.58062(9)
O3G O 1.01939(13) 0.66269(8) 0.91938(9)
O4B O 1.57924(10) 0.91264(7) 0.51088(13)
O4E O 1.07924(10) 0.58736(7) 0.48912(13)
O4G O 0.92076(10) 0.58736(7) 1.01088(13)
O5B O 1.38823(12) 1.07224(7) 0.76034(10)
O5D O 1.11177(12) 0.57224(7) 0.73966(10)
O5F O 0.88823(12) 0.57224(7) 0.76034(10)
O6B O 1.26800(11) 1.01615(7) 0.84460(9)
O6D O 1.23200(11) 0.51615(7) 0.65540(9)
O6F O 0.76800(11) 0.51615(7) 0.84460(9)
O8B O 1.29865(10) 0.59650(7) 0.46156(11)
H11B H 1.3605 0.6114 0.4675
H12B H 1.2882 0.5779 0.4115
C10 C 0.4624(6) 0.6530(7) 0.9635(9)
H4 H 0.4878 0.7003 0.9819
C11 C 0.3430(12) 0.7263(7) 0.8779(8)
H5 H 0.3749 0.7678 0.9122
H6 H 0.2721 0.7250 0.8941
H7 H 0.3508 0.7334 0.8081
C12 C 0.33738(9) 0.58258(7) 0.88950(9)
H8 H 0.3441 0.5685 0.8214
H9 H 0.2668 0.5878 0.9057
H10 H 0.3672 0.5438 0.9302
N1 N 0.38987(9) 0.65572(7) 0.90681(9)
O7 O 0.50940(11) 0.59585(7) 1.00175(10)
loop_
_geom_bond_atom_site_label_1
_geom_bond_atom_site_label_2
_geom_bond_site_symmetry_1
_geom_bond_site_symmetry_2
Zn1 O2 1_555 1_555
Ca1 O1 1_555 1_555
C1 C2 1_555 1_555
C2 H1 1_555 1_555
C3 C2 1_555 1_555
C4 C3 1_555 1_555
H2 C4 1_555 1_555
C5 C4 1_555 1_555
C6 C1 1_555 1_555
H3 C6 1_555 1_555
C7 C1 1_555 1_555
C8 C3 1_555 1_555
C9 C5 1_555 1_555
C10 H4 1_555 1_555
C11 H5 1_555 1_555
H6 C11 1_555 1_555
H7 C11 1_555 1_555
C12 H8 1_555 1_555
H9 C12 1_555 1_555
H10 C12 1_555 1_555
N1 C10 1_555 1_555
O1 C7 1_555 1_555
O2 C7 1_555 1_555
O3 C8 1_555 1_555
O4 C8 1_555 1_555
O5 C9 1_555 1_555
O6 C9 1_555 1_555
O7 C10 1_555 1_555
O8 Zn1 1_555 1_555
H11 O8 1_555 1_555
H12 O8 1_555 1_555
Zn1B O2B 1_555 1_555
Zn1D O6B 1_555 1_555
Zn1E O4B 1_555 1_555
Zn1F O6 1_555 1_555
Zn1G O4 1_555 1_555
Ca1D O5 1_555 1_555
Ca1D_2 O5B 1_555 1_555
Ca1E O3 1_555 1_555
Ca1E_2 O3B 1_555 1_555
C1B C2B 1_555 1_555
C2B H1B 1_555 1_555
C3B C2B 1_555 1_555
C4B C3B 1_555 1_555
H2B C4B 1_555 1_555
C5B C4B 1_555 1_555
C6B C1B 1_555 1_555
H3B C6B 1_555 1_555
C7B C1B 1_555 1_555
C8B C3B 1_555 1_555
C9B C5B 1_555 1_555
O1B Ca1 1_555 1_555
O2B C7B 1_555 1_555
O3B C8B 1_555 1_555
O3E Ca1 1_555 1_555
O3G Ca1 1_555 1_555
O4B C8B 1_555 1_555
O4E Zn1B 1_555 1_555
O4G Zn1 1_555 1_555
O5B C9B 1_555 1_555
O5D Ca1 1_555 1_555
O5F Ca1 1_555 1_555
O6B C9B 1_555 1_555
O6D Zn1B 1_555 1_555
O6F Zn1 1_555 1_555
O8B Zn1B 1_555 1_555
H11B O8B 1_555 1_555
H12B O8B 1_555 1_555
C5 C6 1_555 1_555
C11 N1 1_555 1_555
C12 N1 1_555 1_555
C5B C6B 1_555 1_555
C7B O1B 1_555 1_555

#END
