
#######################################################################
#
#                 Cambridge Crystallographic Data Centre
#                                CCDC 
#
#######################################################################
#
# If this CIF has been generated from an entry in the Cambridge 
# Structural Database, then it will include bibliographic, chemical, 
# crystal, experimental, refinement or atomic coordinate data resulting 
# from the CCDC's data processing and validation procedures.
#
#######################################################################

data_GUBKUL
_chemical_formula_moiety         '(C12 H30 Ba3 O27)n'
_symmetry_cell_setting           monoclinic
_symmetry_space_group_name_H-M   'I 2/a'
_symmetry_Int_Tables_number      15
_space_group_name_Hall           '-I 2ya'
loop_
_symmetry_equiv_pos_site_id
_symmetry_equiv_pos_as_xyz
1 x,y,z
2 1/2-x,y,-z
3 1/2+x,1/2+y,1/2+z
4 -x,1/2+y,1/2-z
5 -x,-y,-z
6 1/2+x,-y,z
7 1/2-x,1/2-y,1/2-z
8 x,1/2-y,1/2+z
_cell_length_a                   13.4109(2)
_cell_length_b                   16.2568(4)
_cell_length_c                   27.9028(6)
_cell_angle_alpha                90
_cell_angle_beta                 98.984(2)
_cell_angle_gamma                90
_cell_volume                     6008.69
loop_
_atom_site_label
_atom_site_type_symbol
_atom_site_fract_x
_atom_site_fract_y
_atom_site_fract_z
_atom_site_U_iso_or_equiv
_atom_site_thermal_displace_type
Ba1 Ba 0.37181(2) 0.74371(2) 0.820152(12) 0.0121 Uani
Ba2 Ba 0.65078(2) 0.86001(2) 0.768072(13) 0.0134 Uani
Ba3 Ba 0.38622(2) 0.59438(2) 0.959000(12) 0.0135 Uani
C1 C 0.6125(4) 0.5877(3) 0.81462(19) 0.0104 Uani
C2 C 0.6209(4) 0.6738(3) 0.7962(2) 0.0119 Uani
O1 O 0.6856(3) 0.6874(3) 0.76950(17) 0.0168 Uani
O2 O 0.5653(3) 0.7285(3) 0.81014(17) 0.0169 Uani
C3 C 0.6048(4) 0.5728(3) 0.86295(18) 0.0095 Uani
C4 C 0.5905(4) 0.6443(3) 0.8952(2) 0.0138 Uani
O3 O 0.5025(3) 0.6664(3) 0.89923(16) 0.0187 Uani
O4 O 0.6698(4) 0.6784(3) 0.91671(17) 0.0222 Uani
C5 C 0.6211(4) 0.4936(3) 0.88182(18) 0.0095 Uani
C6 C 0.6221(4) 0.4777(3) 0.93467(19) 0.0105 Uani
O5 O 0.5621(3) 0.5150(3) 0.95718(15) 0.0159 Uani
O6 O 0.6836(3) 0.4239(3) 0.95419(15) 0.0137 Uani
C7 C 0.6392(4) 0.4291(3) 0.85146(19) 0.0101 Uani
C8 C 0.6702(4) 0.3449(3) 0.87279(19) 0.0128 Uani
O7 O 0.6012(3) 0.2966(3) 0.87956(16) 0.0178 Uani
O8 O 0.7620(3) 0.3301(3) 0.88096(15) 0.0153 Uani
C9 C 0.6307(4) 0.4419(3) 0.80130(19) 0.0103 Uani
C10 C 0.6260(4) 0.3713(3) 0.76689(19) 0.0115 Uani
O9 O 0.6866(3) 0.3120(3) 0.77463(15) 0.0152 Uani
O10 O 0.5553(3) 0.3743(3) 0.73114(14) 0.0131 Uani
C11 C 0.6193(4) 0.5218(3) 0.78326(19) 0.0108 Uani
C12 C 0.6154(4) 0.5399(4) 0.7295(2) 0.0154 Uani
O11 O 0.6919(4) 0.5256(3) 0.71034(17) 0.0221 Uani
O12 O 0.5345(4) 0.5728(3) 0.70863(18) 0.0249 Uani
O13 O 0.4760(6) 0.8523(5) 0.8916(2) 0.0487 Uani
O14 O 0.2554(5) 0.8829(4) 0.8274(2) 0.0383 Uani
O15 O 0.7713(4) 0.7990(3) 0.85956(19) 0.0272 Uani
O16 O 0.5986(4) 0.9582(4) 0.84435(19) 0.0298 Uani
O17 O 0.6222(4) 0.9570(4) 0.6860(2) 0.0342 Uani
O18 O 0.5652(4) 0.7589(4) 0.6853(2) 0.0381 Uani
O19 O 0.3464(4) 0.4342(4) 0.9161(2) 0.0327 Uani
O20 O 0.5088(3) 0.6754(3) 1.0395(2) 0.0267 Uani
O21 O 0.3322(6) 0.7605(4) 0.9730(3) 0.0515 Uani
O22 O 0.3836(4) 0.6053(4) 0.7613(2) 0.0299 Uani
Ba1C Ba 0.62819(2) 0.24371(2) 0.679848(12) 0.0121 Uani
Ba1E Ba 0.87181(2) 0.25629(2) 0.820152(12) 0.0121 Uani
Ba2C Ba 0.34922(2) 0.36001(2) 0.731928(13) 0.0134 Uani
Ba2F Ba 0.84922(2) 0.63999(2) 0.731928(13) 0.0134 Uani
Ba3D Ba 0.61378(2) 0.40562(2) 1.041000(12) 0.0135 Uani
Ba3E Ba 0.88622(2) 0.40562(2) 0.959000(12) 0.0135 Uani
O1F O 0.8144(3) 0.8126(3) 0.73050(17) 0.0168 Uani
O5D O 0.4379(3) 0.4850(3) 1.04282(15) 0.0159 Uani
O6D O 0.3164(3) 0.5761(3) 1.04581(15) 0.0137 Uani
O6E O 0.1836(3) 0.5761(3) 0.95419(15) 0.0137 Uani
O8E O 0.2620(3) 0.6699(3) 0.88096(15) 0.0153 Uani
O9C O 0.3134(3) 0.8120(3) 0.72537(15) 0.0152 Uani
O9E O 0.1866(3) 0.6880(3) 0.77463(15) 0.0152 Uani
O10C O 0.4447(3) 0.8743(3) 0.76886(14) 0.0131 Uani
O11F O 0.8081(4) 0.9744(3) 0.78966(17) 0.0221 Uani
O23 O 0.2312(11) 0.4578(15) 0.5884(6) 0.1871 Uani
O24 O 0.1919(8) 0.8482(7) 0.9113(4) 0.0824 Uani
O25 O 0.0851(9) 0.2914(6) 0.4787(4) 0.0867 Uani
O26 O 0.250 0.3955(9) 0.500 0.1010 Uani
O27 O 0.0599(11) 0.9778(9) 1.0465(5) 0.0507 Uani
loop_
_atom_site_aniso_label
_atom_site_aniso_U_11
_atom_site_aniso_U_22
_atom_site_aniso_U_33
_atom_site_aniso_U_23
_atom_site_aniso_U_13
_atom_site_aniso_U_12
Ba1 0.00981(12) 0.01361(14) 0.01319(14) 0.00369(10) 0.00303(10) 0.00025(10)
Ba2 0.01084(13) 0.01320(14) 0.01700(15) 0.00141(11) 0.00475(11) 0.00065(10)
Ba3 0.00954(12) 0.02086(16) 0.01075(13) 0.00475(11) 0.00335(10) 0.00228(11)
C1 0.0092(19) 0.010(2) 0.012(2) 0.0018(16) 0.0019(16) -0.0007(15)
C2 0.0076(19) 0.015(2) 0.013(2) 0.0021(17) 0.0012(17) 0.0003(16)
O1 0.0163(18) 0.0101(18) 0.027(2) 0.0014(15) 0.0131(17) 0.0003(14)
O2 0.0158(18) 0.0140(19) 0.023(2) 0.0039(15) 0.0099(16) 0.0025(14)
C3 0.0063(18) 0.013(2) 0.009(2) 0.0008(16) 0.0007(16) 0.0019(15)
C4 0.018(2) 0.011(2) 0.013(2) 0.0025(17) 0.0046(19) 0.0005(18)
O3 0.0210(19) 0.018(2) 0.020(2) 0.0078(16) 0.0124(17) 0.0091(16)
O4 0.024(2) 0.022(2) 0.020(2) -0.0031(17) 0.0020(18) -0.0041(17)
C5 0.012(2) 0.009(2) 0.008(2) 0.0001(15) 0.0027(17) 0.0009(16)
C6 0.011(2) 0.010(2) 0.011(2) -0.0011(16) 0.0037(17) -0.0020(16)
O5 0.0188(18) 0.0173(19) 0.0135(18) 0.0018(14) 0.0086(15) 0.0075(15)
O6 0.0114(16) 0.0180(19) 0.0125(17) 0.0038(14) 0.0039(14) 0.0068(14)
C7 0.0082(18) 0.012(2) 0.010(2) -0.0013(16) 0.0009(16) 0.0010(16)
C8 0.012(2) 0.015(2) 0.011(2) -0.0023(17) 0.0009(17) 0.0009(17)
O7 0.024(2) 0.0105(18) 0.018(2) 0.0016(14) 0.0004(16) -0.0041(15)
O8 0.0134(17) 0.021(2) 0.0112(17) -0.0001(14) 0.0006(14) 0.0074(15)
C9 0.0084(19) 0.011(2) 0.012(2) 0.0006(16) 0.0031(17) -0.0010(16)
C10 0.013(2) 0.012(2) 0.010(2) -0.0046(16) 0.0029(17) -0.0019(16)
O9 0.0146(17) 0.0135(18) 0.0161(19) -0.0042(14) -0.0016(15) 0.0056(14)
O10 0.0131(16) 0.0156(19) 0.0095(17) -0.0012(13) -0.0016(14) 0.0007(13)
C11 0.013(2) 0.011(2) 0.009(2) 0.0027(16) 0.0037(17) 0.0011(17)
C12 0.020(2) 0.018(3) 0.009(2) -0.0013(18) 0.0046(19) -0.0021(19)
O11 0.025(2) 0.026(2) 0.018(2) -0.0045(17) 0.0116(18) -0.0118(18)
O12 0.026(2) 0.028(3) 0.018(2) 0.0073(18) -0.0048(18) 0.0037(19)
O13 0.060(4) 0.052(4) 0.033(3) -0.008(3) 0.004(3) -0.018(3)
O14 0.042(3) 0.025(3) 0.049(4) 0.002(2) 0.011(3) 0.008(2)
O15 0.027(2) 0.028(3) 0.025(2) -0.0006(19) -0.001(2) -0.001(2)
O16 0.029(3) 0.038(3) 0.022(2) -0.006(2) 0.003(2) 0.003(2)
O17 0.031(3) 0.038(3) 0.034(3) 0.012(2) 0.006(2) 0.002(2)
O18 0.032(3) 0.054(4) 0.026(3) 0.000(2) -0.003(2) 0.010(3)
O19 0.021(2) 0.035(3) 0.039(3) -0.009(2) -0.005(2) 0.006(2)
O20 0.0137(19) 0.032(3) 0.034(3) -0.004(2) 0.0025(19) -0.0023(18)
O21 0.059(4) 0.041(4) 0.058(5) 0.006(3) 0.020(4) 0.017(3)
O22 0.023(2) 0.035(3) 0.030(3) -0.009(2) -0.001(2) 0.003(2)
Ba1C 0.00981 0.01361 0.01319 -0.00369 0.00303 -0.00025
Ba1E 0.00981 0.01361 0.01319 -0.00369 0.00303 -0.00025
Ba2C 0.01084 0.0132 0.017 -0.00141 0.00475 -0.00065
Ba2F 0.01084 0.0132 0.017 0.00141 0.00475 0.00065
Ba3D 0.00954 0.02086 0.01075 0.00475 0.00335 0.00228
Ba3E 0.00954 0.02086 0.01075 -0.00475 0.00335 -0.00228
O1F 0.0163 0.0101 0.027 0.0014 0.0131 0.0003
O5D 0.0188 0.0173 0.0135 0.0018 0.0086 0.0075
O6D 0.0114 0.018 0.0125 0.0038 0.0039 0.0068
O6E 0.0114 0.018 0.0125 -0.0038 0.0039 -0.0068
O8E 0.0134 0.021 0.0112 0.0001 0.0006 -0.0074
O9C 0.0146 0.0135 0.0161 0.0042 -0.0016 -0.0056
O9E 0.0146 0.0135 0.0161 0.0042 -0.0016 -0.0056
O10C 0.0131 0.0156 0.0095 0.0012 -0.0016 -0.0007
O11F 0.025 0.026 0.018 -0.0045 0.0116 -0.0118
O23 0.095(10) 0.31(3) 0.132(13) -0.052(15) -0.058(10) 0.031(13)
O24 0.091(7) 0.091(8) 0.071(6) -0.027(5) 0.031(6) -0.027(6)
O25 0.140(9) 0.064(6) 0.067(6) -0.022(5) 0.050(6) -0.040(6)
O26 0.115(13) 0.051(9) 0.134(15) 0 0.010(11) 0
O27 0.061(9) 0.053(9) 0.039(7) 0.015(6) 0.011(7) -0.002(7)
loop_
_geom_bond_atom_site_label_1
_geom_bond_atom_site_label_2
_geom_bond_site_symmetry_1
_geom_bond_site_symmetry_2
Ba1 O2 1_555 1_555
Ba2 O1 1_555 1_555
Ba3 O3 1_555 1_555
C1 C2 1_555 1_555
C2 O1 1_555 1_555
O1 Ba2F 1_555 1_555
O2 Ba2 1_555 1_555
C3 C1 1_555 1_555
C4 C3 1_555 1_555
O3 Ba1 1_555 1_555
O4 C4 1_555 1_555
C5 C3 1_555 1_555
C6 C5 1_555 1_555
O5 Ba3 1_555 1_555
O6 C6 1_555 1_555
C7 C5 1_555 1_555
C8 C7 1_555 1_555
O7 C8 1_555 1_555
O8 C8 1_555 1_555
C9 C7 1_555 1_555
C10 C9 1_555 1_555
O9 C10 1_555 1_555
O10 C10 1_555 1_555
C11 C1 1_555 1_555
C12 C11 1_555 1_555
O11 C12 1_555 1_555
O12 C12 1_555 1_555
O13 Ba1 1_555 1_555
O14 Ba1 1_555 1_555
O15 Ba2 1_555 1_555
O16 Ba2 1_555 1_555
O17 Ba2 1_555 1_555
O18 Ba2 1_555 1_555
O19 Ba3 1_555 1_555
O20 Ba3 1_555 1_555
O21 Ba3 1_555 1_555
O22 Ba1 1_555 1_555
Ba1C O9 1_555 1_555
Ba1E O8 1_555 1_555
Ba2C O10 1_555 1_555
Ba2F O11 1_555 1_555
Ba3D O5 1_555 1_555
Ba3E O6 1_555 1_555
O1F Ba2 1_555 1_555
O5D Ba3 1_555 1_555
O6D Ba3 1_555 1_555
O6E Ba3 1_555 1_555
O8E Ba1 1_555 1_555
O9C Ba1 1_555 1_555
O9E Ba1 1_555 1_555
O10C Ba1 1_555 1_555
O11F Ba2 1_555 1_555
Ba2 O10C 1_555 1_555
Ba3 O8E 1_555 1_555
C2 O2 1_555 1_555
C4 O3 1_555 1_555
C6 O5 1_555 1_555
O6 Ba3D 1_555 1_555
O8 Ba3E 1_555 1_555
C9 C11 1_555 1_555
O9 Ba1E 1_555 1_555
O10 Ba1C 1_555 1_555
Ba2F O1F 1_555 1_555
Ba3D O5D 1_555 1_555

#END
