
#######################################################################
#
#                 Cambridge Crystallographic Data Centre
#                                CCDC 
#
#######################################################################
#
# If this CIF has been generated from an entry in the Cambridge 
# Structural Database, then it will include bibliographic, chemical, 
# crystal, experimental, refinement or atomic coordinate data resulting 
# from the CCDC's data processing and validation procedures.
#
#######################################################################

data_TISWEZ
_chemical_formula_moiety         '(C12 H19 Gd2 N3 O14)n'
_symmetry_cell_setting           tetragonal
_symmetry_space_group_name_H-M   'I 41/a'
_symmetry_Int_Tables_number      88
_space_group_name_Hall           '-I 4ad'
loop_
_symmetry_equiv_pos_site_id
_symmetry_equiv_pos_as_xyz
1 x,y,z
2 1/2-x,-y,1/2+z
3 3/4-y,1/4+x,1/4+z
4 3/4+y,3/4-x,3/4+z
5 1/2+x,1/2+y,1/2+z
6 -x,1/2-y,z
7 1/4-y,3/4+x,3/4+z
8 1/4+y,1/4-x,1/4+z
9 -x,-y,-z
10 1/2+x,y,1/2-z
11 1/4+y,3/4-x,3/4-z
12 1/4-y,1/4+x,1/4-z
13 1/2-x,1/2-y,1/2-z
14 x,1/2+y,-z
15 3/4+y,1/4-x,1/4-z
16 3/4-y,3/4+x,3/4-z
_cell_length_a                   25.830(4)
_cell_length_b                   25.830(4)
_cell_length_c                   11.945(2)
_cell_angle_alpha                90
_cell_angle_beta                 90
_cell_angle_gamma                90
_cell_volume                     7969.57
loop_
_atom_site_label
_atom_site_type_symbol
_atom_site_fract_x
_atom_site_fract_y
_atom_site_fract_z
_atom_site_U_iso_or_equiv
_atom_site_thermal_displace_type
Gd1 Gd 0.29228(3) 0.81340(3) 0.75543(7) 0.0067 Uani
Gd2 Gd 0.21795(3) 0.91917(3) 0.59671(6) 0.0049 Uani
O1 O 0.1688(4) 0.7538(5) 0.6325(10) 0.0123 Uani
O2 O 0.2741(5) 0.8982(5) 0.2543(10) 0.0133 Uani
O3 O 0.2483(4) 0.8962(4) 0.7793(10) 0.0100 Uiso
O4 O 0.2500(4) 0.9301(4) 0.4167(9) 0.0070 Uiso
O5 O 0.2314(4) 0.9667(4) 0.8783(10) 0.0090 Uiso
O6 O 0.2164(4) 0.8254(4) 0.6332(9) 0.0040 Uiso
O7 O 0.2228(4) 0.7670(4) 0.8489(10) 0.0100 Uiso
N1 N 0.1732(5) 0.8640(5) 0.4492(12) 0.0060 Uiso
H1 H 0.147(7) 0.883(7) 0.419(16) 0.0080 Uiso
O8 O 0.3503(5) 0.8895(4) 0.4399(10) 0.0100 Uani
O9 O 0.3063(4) 0.8702(5) 0.5954(10) 0.0110 Uani
N2 N 0.2795(6) 0.8421(6) 0.9603(13) 0.0140 Uiso
H2 H 0.307(8) 0.831(8) 1.001(18) 0.0170 Uiso
C1 C 0.1495(6) 0.8166(7) 0.4983(15) 0.0100 Uiso
H3 H 0.1475 0.7900 0.4411 0.0000 Uiso
H4 H 0.1145 0.8244 0.5223 0.0400 Uiso
C2 C 0.2468(7) 0.8964(7) 0.3385(15) 0.0110 Uiso
C3 C 0.2506(6) 0.9233(6) 0.8696(14) 0.0090 Uiso
O10 O 0.3678(6) 0.8568(5) 0.8239(14) 0.0293 Uani
C4 C 0.1796(6) 0.7963(6) 0.5959(14) 0.0100 Uiso
N3 N 0.3787(7) 0.7946(7) 0.6529(15) 0.0220 Uiso
H5 H 0.376(9) 0.763(9) 0.62(2) 0.0270 Uiso
C5 C 0.2791(7) 0.8996(7) 0.9650(16) 0.0160 Uiso
H6 H 0.3145 0.9121 0.9646 0.0000 Uiso
H7 H 0.2632 0.9105 1.0346 0.0800 Uiso
O11 O 0.1953(7) 0.7362(6) 1.0115(14) 0.0370 Uiso
C6 C 0.2097(6) 0.8520(6) 0.3593(14) 0.0087 Uani
H8 H 0.1906 0.8446 0.2911 0.1100 Uiso
H9 H 0.2292 0.8212 0.3790 0.0500 Uiso
C7 C 0.3451(7) 0.8671(7) 0.5325(15) 0.0150 Uiso
C8 C 0.3912(9) 0.8327(9) 0.565(2) 0.0320 Uiso
H10 H 0.4031 0.8144 0.4987 0.2000 Uiso
H11 H 0.4193 0.8546 0.5906 2.0000 Uiso
C9 C 0.2318(7) 0.8218(8) 1.0122(17) 0.0190 Uiso
H12 H 0.2042 0.8470 1.0047 0.0000 Uiso
H13 H 0.2377 0.8158 1.0913 0.2000 Uiso
O12 O 0.4423(10) 0.8312(12) 0.911(3) 0.1060 Uani
C10 C 0.2158(7) 0.7707(7) 0.9551(15) 0.0120 Uiso
C11 C 0.4097(11) 0.8317(11) 0.833(2) 0.0470 Uiso
C12 C 0.4202(8) 0.7907(9) 0.736(2) 0.0310 Uani
H14 H 0.4534 0.7976 0.7015 0.0600 Uiso
H15 H 0.4211 0.7560 0.7676 0.0100 Uiso
Gd1L Gd 0.20772(3) 0.68660(3) 0.74457(7) 0.0067 Uani
Gd2F Gd 0.33083(3) 0.96795(3) 0.34671(6) 0.0049 Uani
Gd2G Gd 0.16917(3) 1.03205(3) 0.84671(6) 0.0049 Uani
O1L O 0.3312(4) 0.7462(5) 0.8675(10) 0.0123 Uani
O2G O 0.1482(5) 0.9759(5) 0.5043(10) 0.0133 Uani
O4G O 0.1801(4) 1.0000(4) 0.6667(9) 0.0070 Uiso
O5F O 0.2833(4) 0.9814(4) 0.6283(10) 0.0090 Uiso
O7L O 0.2772(4) 0.7330(4) 0.6511(10) 0.0100 Uiso
O8G O 0.1395(4) 0.8997(5) 0.6899(10) 0.0100 Uani
O13 O 0.4943(10) 0.5929(12) 0.9805(18) 0.0777 Uani
H16 H 0.4848 0.5612 0.9904 0.0200 Uiso
H17 H 0.4793 0.6142 0.9388 0.0600 Uiso
O14 O 0.4287(5) 0.6145(6) 0.1472(13) 0.0300 Uani
H18 H 0.4592 0.6118 0.1208 0.0900 Uiso
H19 H 0.4092 0.6381 0.1214 0.0700 Uiso
loop_
_atom_site_aniso_label
_atom_site_aniso_U_11
_atom_site_aniso_U_22
_atom_site_aniso_U_33
_atom_site_aniso_U_23
_atom_site_aniso_U_13
_atom_site_aniso_U_12
Gd1 0.0081(4) 0.0045(4) 0.0076(4) 0.0016(3) -0.0026(3) -0.0003(3)
Gd2 0.0058(4) 0.0048(4) 0.0040(4) 0.0002(3) -0.0003(3) 0.0002(3)
O1 0.008 0.011 0.018 0.006 -0.003 -0.002
O2 0.015 0.016 0.009 -0.002 0.002 -0.005
O8 0.013 0.009 0.008 0.001 0.006 0.004
O9 0.004(5) 0.012(6) 0.017(6) 0.010(5) -0.003(5) -0.003(4)
O10 0.030(8) 0.017(7) 0.041(9) 0.011(7) -0.013(7) -0.016(6)
C6 0.005 0.011 0.01 -0.002 0.002 -0.003
O12 0.058(16) 0.10(2) 0.16(3) -0.05(2) -0.076(18) 0.011(14)
C12 0.021(11) 0.024(11) 0.048(15) 0.021(10) -0.016(10) -0.001(8)
Gd1L 0.0081 0.0045 0.0076 0.0016 -0.0026 -0.0003
Gd2F 0.0048 0.0058 0.004 -0.0003 -0.0002 -0.0002
Gd2G 0.0048 0.0058 0.004 0.0003 0.0002 -0.0002
O1L 0.008 0.011 0.018 0.006 -0.003 -0.002
O2G 0.016 0.015 0.009 -0.002 -0.002 0.005
O8G 0.009 0.013 0.008 -0.006 0.001 -0.004
O13 0.070(16) 0.13(2) 0.033(12) 0.005(14) 0.022(11) -0.027(16)
O14 0.011(7) 0.044(9) 0.035(9) 0.018(8) -0.011(6) 0.002(6)
loop_
_geom_bond_atom_site_label_1
_geom_bond_atom_site_label_2
_geom_bond_site_symmetry_1
_geom_bond_site_symmetry_2
Gd1 O3 1_555 1_555
Gd2 O3 1_555 1_555
O1 C4 1_555 1_555
O2 C2 1_555 1_555
O3 C3 1_555 1_555
O4 Gd2 1_555 1_555
O5 C3 1_555 1_555
O6 Gd1 1_555 1_555
O7 Gd1 1_555 1_555
N1 Gd2 1_555 1_555
H1 N1 1_555 1_555
O8 C7 1_555 1_555
O9 Gd1 1_555 1_555
N2 Gd1 1_555 1_555
H2 N2 1_555 1_555
C1 N1 1_555 1_555
H3 C1 1_555 1_555
H4 C1 1_555 1_555
C2 O4 1_555 1_555
C3 C5 1_555 1_555
O10 Gd1 1_555 1_555
C4 O6 1_555 1_555
N3 Gd1 1_555 1_555
H5 N3 1_555 1_555
C5 N2 1_555 1_555
H6 C5 1_555 1_555
H7 C5 1_555 1_555
O11 C10 1_555 1_555
C6 N1 1_555 1_555
H8 C6 1_555 1_555
H9 C6 1_555 1_555
C7 O9 1_555 1_555
C8 N3 1_555 1_555
H10 C8 1_555 1_555
H11 C8 1_555 1_555
C9 N2 1_555 1_555
H12 C9 1_555 1_555
H13 C9 1_555 1_555
O12 C11 1_555 1_555
C10 O7 1_555 1_555
C11 O10 1_555 1_555
C12 N3 1_555 1_555
H14 C12 1_555 1_555
H15 C12 1_555 1_555
O13 H16 1_555 1_555
H17 O13 1_555 1_555
O14 H18 1_555 1_555
H19 O14 1_555 1_555
Gd1L O1 1_555 1_555
Gd2F O2 1_555 1_555
Gd2G O5 1_555 1_555
O1L Gd1 1_555 1_555
O2G Gd2 1_555 1_555
O4G Gd2 1_555 1_555
O5F Gd2 1_555 1_555
O7L Gd1 1_555 1_555
O8G Gd2 1_555 1_555
Gd2 O6 1_555 1_555
Gd2 O9 1_555 1_555
O4 Gd2F 1_555 1_555
O7 Gd1L 1_555 1_555
O8 Gd2F 1_555 1_555
C1 C4 1_555 1_555
C2 C6 1_555 1_555
C7 C8 1_555 1_555
C9 C10 1_555 1_555
C11 C12 1_555 1_555
Gd1L O7L 1_555 1_555
Gd2G O4G 1_555 1_555

#END
