
#######################################################################
#
#                 Cambridge Crystallographic Data Centre
#                                CCDC 
#
#######################################################################
#
# If this CIF has been generated from an entry in the Cambridge 
# Structural Database, then it will include bibliographic, chemical, 
# crystal, experimental, refinement or atomic coordinate data resulting 
# from the CCDC's data processing and validation procedures.
#
#######################################################################

data_RAZYIC
_chemical_formula_moiety         '(C20 H18 Cu2 I2 N4)n'
_symmetry_cell_setting           tetragonal
_symmetry_space_group_name_H-M   'I 41/a m d'
_symmetry_Int_Tables_number      141
_space_group_name_Hall           '-I 4bd 2'
loop_
_symmetry_equiv_pos_site_id
_symmetry_equiv_pos_as_xyz
1 x,y,z
2 1/2-x,-y,1/2+z
3 1/4-y,3/4+x,1/4+z
4 1/4+y,1/4-x,3/4+z
5 1/2-x,y,1/2-z
6 x,-y,-z
7 1/4+y,3/4+x,1/4-z
8 1/4-y,1/4-x,3/4-z
9 1/2+x,1/2+y,1/2+z
10 -x,1/2-y,z
11 3/4-y,1/4+x,3/4+z
12 3/4+y,3/4-x,1/4+z
13 -x,1/2+y,-z
14 1/2+x,1/2-y,1/2-z
15 3/4+y,1/4+x,3/4-z
16 3/4-y,3/4-x,1/4-z
17 -x,-y,-z
18 1/2+x,y,1/2-z
19 3/4+y,1/4-x,3/4-z
20 3/4-y,3/4+x,1/4-z
21 1/2+x,-y,1/2+z
22 -x,y,z
23 3/4-y,1/4-x,3/4+z
24 3/4+y,3/4+x,1/4+z
25 1/2-x,1/2-y,1/2-z
26 x,1/2+y,-z
27 1/4+y,3/4-x,1/4-z
28 1/4-y,1/4+x,3/4-z
29 x,1/2-y,z
30 1/2-x,1/2+y,1/2+z
31 1/4-y,3/4-x,1/4+z
32 1/4+y,1/4+x,3/4+z
_cell_length_a                   22.3792(2)
_cell_length_b                   22.3792(2)
_cell_length_c                   13.1261(3)
_cell_angle_alpha                90
_cell_angle_beta                 90
_cell_angle_gamma                90
_cell_volume                     6573.93
loop_
_atom_site_label
_atom_site_type_symbol
_atom_site_fract_x
_atom_site_fract_y
_atom_site_fract_z
_atom_site_U_iso_or_equiv
_atom_site_thermal_displace_type
Cu1 Cu 0.25805(3) 0.49195(3) 0.1250 0.0409 Uani
I1 I 0.16722(3) 0.5000 0.0000 0.0733 Uani
N1 N 0.34030(18) 0.4946(2) 0.0530(3) 0.0420 Uani
C1 C 0.3911(2) 0.4894(3) 0.1027(4) 0.0530 Uani
C2 C 0.4468(2) 0.4941(3) 0.0528(4) 0.0503 Uani
C3 C 0.5000 0.4885(5) 0.1078(5) 0.0597 Uani
C4 C 0.5000 0.4772(7) 0.2205(6) 0.0847 Uani
H1 H 0.5000 0.4349 0.2271 0.1020 Uiso
C5 C 0.3884(3) 0.4773(4) 0.2141(4) 0.0787 Uani
H3 H 0.3816 0.4359 0.2257 0.0940 Uiso
H4 H 0.3553 0.4988 0.2415 0.0940 Uiso
C6 C 0.4431(3) 0.4984(7) 0.2686(5) 0.0763 Uani
H7 H 0.4432 0.5408 0.2733 0.0920 Uiso
H8 H 0.4418 0.4832 0.3370 0.0920 Uiso
Cu1D Cu 0.24195(3) 0.49195(3) 0.3750 0.0409 Uani
Cu1E Cu 0.25805(3) 0.50805(3) -0.1250 0.0409 Uani
Cu1U Cu 0.74195(3) 0.49195(3) 0.1250 0.0409 Uani
Cu1P Cu 0.74195(3) 0.50805(3) -0.1250 0.0409 Uani
I1K I 0.2500 0.58278(3) 0.2500 0.0733 Uani
I1J I 0.2500 0.41722(3) -0.2500 0.0733 Uani
N1E N 0.34030(18) 0.5054(2) -0.0530(3) 0.0420 Uani
N1U N 0.65970(18) 0.4946(2) 0.0530(3) 0.0420 Uani
N1P N 0.65970(18) 0.5054(2) -0.0530(3) 0.0420 Uani
N1O N 0.2554(2) 0.40970(18) 0.1970(3) 0.0420 Uani
N1J N 0.2554(2) 0.59030(18) -0.1970(3) 0.0420 Uani
C1E C 0.3911(2) 0.5106(3) -0.1027(4) 0.0530 Uani
C1U C 0.6089(2) 0.4894(3) 0.1027(4) 0.0530 Uani
C1P C 0.6089(2) 0.5106(3) -0.1027(4) 0.0530 Uani
C2E C 0.4468(2) 0.5059(3) -0.0528(4) 0.0503 Uani
C2U C 0.5532(2) 0.4941(3) 0.0528(4) 0.0503 Uani
C2P C 0.5532(2) 0.5059(3) -0.0528(4) 0.0503 Uani
C3E C 0.5000 0.5115(5) -0.1078(5) 0.0597 Uani
C4E C 0.5000 0.5228(7) -0.2205(6) 0.0847 Uani
H1E H 0.5000 0.5651 -0.2271 0.1020 Uiso
C5U C 0.6116(3) 0.4773(4) 0.2141(4) 0.0787 Uani
C5P C 0.6116(3) 0.5227(4) -0.2141(4) 0.0787 Uani
C5E C 0.3884(3) 0.5227(4) -0.2141(4) 0.0787 Uani
H3U H 0.6184 0.4359 0.2257 0.0940 Uiso
H3P H 0.6184 0.5641 -0.2257 0.0940 Uiso
H3E H 0.3816 0.5641 -0.2257 0.0940 Uiso
H4U H 0.6447 0.4988 0.2415 0.0940 Uiso
H4P H 0.6447 0.5012 -0.2415 0.0940 Uiso
H4E H 0.3553 0.5012 -0.2415 0.0940 Uiso
C6U C 0.5569(3) 0.4984(7) 0.2686(5) 0.0763 Uani
C6P C 0.5569(3) 0.5016(7) -0.2686(5) 0.0763 Uani
C6E C 0.4431(3) 0.5016(7) -0.2686(5) 0.0763 Uani
H7U H 0.5568 0.5408 0.2733 0.0920 Uiso
H7E H 0.4432 0.4592 -0.2733 0.0920 Uiso
H7P H 0.5568 0.4592 -0.2733 0.0920 Uiso
H8U H 0.5582 0.4832 0.3370 0.0920 Uiso
H8E H 0.4418 0.5168 -0.3370 0.0920 Uiso
H8P H 0.5582 0.5168 -0.3370 0.0920 Uiso
loop_
_atom_site_aniso_label
_atom_site_aniso_U_11
_atom_site_aniso_U_22
_atom_site_aniso_U_33
_atom_site_aniso_U_23
_atom_site_aniso_U_13
_atom_site_aniso_U_12
Cu1 0.0454(4) 0.0454(4) 0.0320(5) 0.0027(3) 0.0027(3) -0.0004(4)
I1 0.0441(4) 0.1452(8) 0.0307(3) 0.0000(4) 0.000 0.000
N1 0.035(2) 0.067(3) 0.024(2) 0.009(2) -0.0012(18) -0.002(2)
C1 0.040(3) 0.091(5) 0.028(3) 0.010(3) 0.003(2) 0.005(3)
C2 0.037(3) 0.089(5) 0.025(2) 0.011(3) 0.000(2) 0.000(3)
C3 0.030(4) 0.122(8) 0.027(4) 0.013(5) 0.000 0.000
C4 0.036(5) 0.191(13) 0.027(4) 0.018(6) 0.000 0.000
C5 0.046(4) 0.159(8) 0.031(3) 0.021(4) 0.001(3) 0.007(4)
C6 0.041(4) 0.162(13) 0.026(4) 0.002(7) 0.005(3) 0.005(8)
Cu1D 0.0454 0.0454 0.032 -0.0027 0.0027 0.0004
Cu1E 0.0454 0.0454 0.032 0.0027 -0.0027 0.0004
Cu1U 0.0454 0.0454 0.032 0.0027 -0.0027 0.0004
Cu1P 0.0454 0.0454 0.032 0.0027 0.0027 -0.0004
I1K 0.1452 0.0441 0.0307 0 0 0
I1J 0.1452 0.0441 0.0307 0 0 0
N1E 0.035 0.067 0.024 0.009 0.0012 0.002
N1U 0.035 0.067 0.024 0.009 0.0012 0.002
N1P 0.035 0.067 0.024 0.009 -0.0012 -0.002
N1O 0.067 0.035 0.024 -0.0012 0.009 -0.002
N1J 0.067 0.035 0.024 -0.0012 -0.009 0.002
C1E 0.04 0.091 0.028 0.01 -0.003 -0.005
C1U 0.04 0.091 0.028 0.01 -0.003 -0.005
C1P 0.04 0.091 0.028 0.01 0.003 0.005
C2E 0.037 0.089 0.025 0.011 0 0
C2U 0.037 0.089 0.025 0.011 0 0
C2P 0.037 0.089 0.025 0.011 0 0
C3E 0.03 0.122 0.027 0.013 0 0
C4E 0.036 0.191 0.027 0.018 0 0
C5U 0.046 0.159 0.031 0.021 -0.001 -0.007
C5P 0.046 0.159 0.031 0.021 0.001 0.007
C5E 0.046 0.159 0.031 0.021 -0.001 -0.007
C6U 0.041 0.162 0.026 0.002 -0.005 -0.005
C6P 0.041 0.162 0.026 0.002 0.005 0.005
C6E 0.041 0.162 0.026 0.002 -0.005 -0.005
loop_
_geom_bond_atom_site_label_1
_geom_bond_atom_site_label_2
_geom_bond_site_symmetry_1
_geom_bond_site_symmetry_2
Cu1 I1 1_555 1_555
I1 Cu1E 1_555 1_555
N1 Cu1 1_555 1_555
C1 N1 1_555 1_555
C2 C1 1_555 1_555
C3 C2 1_555 1_555
C4 C3 1_555 1_555
H1 C4 1_555 1_555
C5 C1 1_555 1_555
H3 C5 1_555 1_555
H4 C5 1_555 1_555
C6 C4 1_555 1_555
H7 C6 1_555 1_555
H8 C6 1_555 1_555
Cu1D I1K 1_555 1_555
Cu1E I1J 1_555 1_555
Cu1U N1U 1_555 1_555
Cu1P N1P 1_555 1_555
I1K Cu1 1_555 1_555
N1E N1 1_555 1_555
N1U N1P 1_555 1_555
N1P C1P 1_555 1_555
N1O Cu1 1_555 1_555
N1J Cu1E 1_555 1_555
C1E N1E 1_555 1_555
C1U N1U 1_555 1_555
C1P C2P 1_555 1_555
C2E C2 1_555 1_555
C2U C3 1_555 1_555
C2P C2U 1_555 1_555
C3E C2E 1_555 1_555
C4E C3E 1_555 1_555
H1E C4E 1_555 1_555
C5U C1U 1_555 1_555
C5P C1P 1_555 1_555
C5E C1E 1_555 1_555
H3U C5U 1_555 1_555
H3P C5P 1_555 1_555
H3E C5E 1_555 1_555
H4U C5U 1_555 1_555
H4P C5P 1_555 1_555
H4E C5E 1_555 1_555
C6U C4 1_555 1_555
C6P C4E 1_555 1_555
C6E C4E 1_555 1_555
H7U C6U 1_555 1_555
H7E C6E 1_555 1_555
H7P C6P 1_555 1_555
H8U C6U 1_555 1_555
H8E C6E 1_555 1_555
H8P C6P 1_555 1_555
C5 C6 1_555 1_555
Cu1E N1E 1_555 1_555
C1E C2E 1_555 1_555
C1U C2U 1_555 1_555
C2P C3E 1_555 1_555
C5U C6U 1_555 1_555
C5P C6P 1_555 1_555
C5E C6E 1_555 1_555

#END
