
#######################################################################
#
#                 Cambridge Crystallographic Data Centre
#                                CCDC 
#
#######################################################################
#
# If this CIF has been generated from an entry in the Cambridge 
# Structural Database, then it will include bibliographic, chemical, 
# crystal, experimental, refinement or atomic coordinate data resulting 
# from the CCDC's data processing and validation procedures.
#
#######################################################################

data_OWIYUP
_chemical_formula_moiety         'C86 H44 Cu14 N4 O32'
_symmetry_cell_setting           orthorhombic
_symmetry_space_group_name_H-M   'F d d d'
_symmetry_Int_Tables_number      70
_space_group_name_Hall           '-F 2uv 2vw'
loop_
_symmetry_equiv_pos_site_id
_symmetry_equiv_pos_as_xyz
1 x,y,z
2 3/4-x,3/4-y,z
3 3/4-x,y,3/4-z
4 x,3/4-y,3/4-z
5 x,1/2+y,1/2+z
6 3/4-x,1/4-y,1/2+z
7 3/4-x,1/2+y,1/4-z
8 x,1/4-y,1/4-z
9 1/2+x,y,1/2+z
10 1/4-x,3/4-y,1/2+z
11 1/4-x,y,1/4-z
12 1/2+x,3/4-y,1/4-z
13 1/2+x,1/2+y,z
14 1/4-x,1/4-y,z
15 1/4-x,1/2+y,3/4-z
16 1/2+x,1/4-y,3/4-z
17 -x,-y,-z
18 1/4+x,1/4+y,-z
19 1/4+x,-y,1/4+z
20 -x,1/4+y,1/4+z
21 -x,1/2-y,1/2-z
22 1/4+x,3/4+y,1/2-z
23 1/4+x,1/2-y,3/4+z
24 -x,3/4+y,3/4+z
25 1/2-x,-y,1/2-z
26 3/4+x,1/4+y,1/2-z
27 3/4+x,-y,3/4+z
28 1/2-x,1/4+y,3/4+z
29 1/2-x,1/2-y,-z
30 3/4+x,3/4+y,-z
31 3/4+x,1/2-y,1/4+z
32 1/2-x,3/4+y,1/4+z
_cell_length_a                   13.8325(14)
_cell_length_b                   40.435(4)
_cell_length_c                   60.962(6)
_cell_angle_alpha                90
_cell_angle_beta                 90
_cell_angle_gamma                90
_cell_volume                     34097.1
loop_
_atom_site_label
_atom_site_type_symbol
_atom_site_fract_x
_atom_site_fract_y
_atom_site_fract_z
O1 O 0.0440(10) -0.4638(3) 0.5276(2)
O2 O 0.0665(11) -0.4540(4) 0.4843(2)
C1 C -0.2114(6) -0.29858(19) 0.37632(19)
C2 C -0.2238(7) -0.2801(2) 0.39533(16)
H1 H -0.1893 -0.2854 0.4079
C3 C -0.2880(8) -0.2536(2) 0.39551(17)
H2 H -0.2963 -0.2412 0.4082
C4 C -0.3396(6) -0.2457(2) 0.3767(2)
C5 C -0.3272(7) -0.2642(3) 0.35767(18)
H3 H -0.3617 -0.2588 0.3451
C6 C -0.2630(8) -0.2906(2) 0.35749(15)
H4 H -0.2547 -0.3030 0.3448
Cu1 Cu 0.08789(19) -0.49070(5) 0.50401(3)
C7 C -0.2183(7) -0.4301(2) 0.57602(12)
C8 C -0.3053(7) -0.44206(17) 0.58418(14)
H5 H -0.3312 -0.4616 0.5787
C9 C -0.3536(5) -0.4249(2) 0.60061(15)
H6 H -0.4118 -0.4329 0.6061
C10 C -0.3148(6) -0.3957(2) 0.60888(12)
C11 C -0.2278(7) -0.38373(16) 0.60071(14)
H7 H -0.2018 -0.3642 0.6062
C12 C -0.1795(5) -0.4009(2) 0.58428(14)
H8 H -0.1212 -0.3929 0.5788
Cu2 Cu -0.6250 -0.1250 0.39606(6)
C13 C -0.1163(9) -0.34739(19) 0.39461(14)
C14 C -0.0289(7) -0.3635(2) 0.39816(16)
H9 H 0.0240 -0.3590 0.3893
C15 C -0.0207(7) -0.3865(2) 0.41502(18)
H10 H 0.0377 -0.3973 0.4174
C16 C -0.0998(9) -0.3933(2) 0.42834(14)
C17 C -0.1872(7) -0.3772(3) 0.42479(17)
H11 H -0.2401 -0.3817 0.4337
C18 C -0.1954(7) -0.3542(2) 0.40793(19)
H12 H -0.2538 -0.3434 0.4056
C19 C -0.1250 -0.3230(4) 0.3750
C20 C -0.0877(13) -0.4461(4) 0.5516(2)
H13 H -0.0458 -0.4331 0.5598
O3 O 0.2368(11) -0.4776(3) 0.5096(2)
C21 C -0.0896(15) -0.4178(4) 0.4464(3)
H14 H -0.1465 -0.4281 0.4508
C22 C -0.3750 -0.3750 0.6250
C23 C -0.1772(12) -0.4471(4) 0.5571(3)
H15 H -0.2189 -0.4596 0.5484
C24 C -0.6250 -0.1250 0.4441(6)
C25 C -0.3980(14) -0.2159(4) 0.3774(4)
C26 C -0.0103(16) -0.4270(4) 0.4571(3)
H16 H 0.0470 -0.4164 0.4534
N1 N -0.6250 -0.1250 0.4664(7)
N2 N 0.339(2) -0.4580(10) 0.5387(5)
C27 C 0.337(2) -0.4324(9) 0.5557(6)
C28 C 0.428(3) -0.4678(13) 0.5273(9)
C29 C -0.0451(18) -0.4663(5) 0.5312(3)
C30 C -0.0050(19) -0.4531(6) 0.4748(4)
O4 O -0.1168(9) -0.4809(3) 0.52094(18)
O5 O -0.0875(10) -0.4700(3) 0.47612(17)
C31 C -0.506(2) -0.1706(6) 0.3720(6)
O6 O -0.5084(10) -0.1567(3) 0.3913(3)
O7 O -0.5440(11) -0.1621(4) 0.3572(2)
C32 C -0.714(2) -0.1239(7) 0.4807(5)
O8 O -0.6731(16) -0.1245(7) 0.4305(4)
C33 C 0.254(2) -0.4641(9) 0.5269(5)
C34 C -0.449(2) -0.2007(7) 0.3665(6)
O1P O -0.0440(10) -0.5362(3) 0.4724(2)
O1G O 0.0440(10) -0.2862(3) 0.7224(2)
O1J O -0.7940(10) -0.4638(3) 0.7224(2)
O1M O -0.7940(10) -0.2862(3) 0.5276(2)
O2P O -0.0665(11) -0.5460(4) 0.5157(2)
O2B O -0.3165(11) -0.4540(4) 0.2657(2)
C1B C -0.0386(6) -0.29858(19) 0.37368(19)
C2B C -0.0262(7) -0.2801(2) 0.35467(16)
H1B H -0.0607 -0.2854 0.3421
C3B C 0.0380(8) -0.2536(2) 0.35449(17)
H2B H 0.0463 -0.2412 0.3418
C4B C 0.0896(6) -0.2457(2) 0.3733(2)
C5B C 0.0772(7) -0.2642(3) 0.39233(18)
H3B H 0.1117 -0.2588 0.4049
C6B C 0.0130(8) -0.2906(2) 0.39251(15)
H4B H 0.0047 -0.3030 0.4052
Cu1P Cu -0.08789(19) -0.50930(5) 0.49599(3)
Cu1B Cu -0.33789(19) -0.49070(5) 0.24599(3)
Cu1Z Cu -0.16211(19) -0.50930(5) 0.25401(3)
Cu1G Cu 0.08789(19) -0.25930(5) 0.74599(3)
Cu1S Cu -0.08789(19) -0.24070(5) 0.75401(3)
Cu1R Cu -0.66211(19) -0.50930(5) 0.75401(3)
Cu1J Cu -0.83789(19) -0.49070(5) 0.74599(3)
Cu1Q Cu -0.66211(19) -0.24070(5) 0.49599(3)
Cu1M Cu -0.83789(19) -0.25930(5) 0.50401(3)
C7G C -0.2183(7) -0.3199(2) 0.67398(12)
C7J C -0.5317(7) -0.4301(2) 0.67398(12)
C7M C -0.5317(7) -0.3199(2) 0.57602(12)
C8M C -0.4447(7) -0.30794(17) 0.58418(14)
C8G C -0.3053(7) -0.30794(17) 0.66582(14)
C8J C -0.4447(7) -0.44206(17) 0.66582(14)
H5G H -0.3312 -0.2884 0.6713
H5J H -0.4188 -0.4616 0.6713
H5M H -0.4188 -0.2884 0.5787
C9M C -0.3964(5) -0.3251(2) 0.60061(15)
C9J C -0.3964(5) -0.4249(2) 0.64939(15)
C9G C -0.3536(5) -0.3251(2) 0.64939(15)
H6M H -0.3382 -0.3171 0.6061
H6G H -0.4118 -0.3171 0.6439
H6J H -0.3382 -0.4329 0.6439
C10G C -0.3148(6) -0.3543(2) 0.64112(12)
C10J C -0.4352(6) -0.3957(2) 0.64112(12)
C10M C -0.4352(6) -0.3543(2) 0.60888(12)
C11M C -0.5222(7) -0.36627(16) 0.60071(14)
C11J C -0.5222(7) -0.38373(16) 0.64929(14)
C11G C -0.2278(7) -0.36627(16) 0.64929(14)
H7M H -0.5482 -0.3858 0.6062
H7G H -0.2018 -0.3858 0.6438
H7J H -0.5482 -0.3642 0.6438
C12M C -0.5705(5) -0.3491(2) 0.58428(14)
C12G C -0.1795(5) -0.3491(2) 0.66572(14)
C12J C -0.5705(5) -0.4009(2) 0.66572(14)
H8G H -0.1212 -0.3571 0.6712
H8J H -0.6288 -0.3929 0.6712
H8M H -0.6288 -0.3571 0.5788
Cu2B Cu -0.6250 -0.1250 0.35394(6)
Cu2B_2 Cu 0.3750 -0.1250 0.35394(6)
Cu2_2 Cu 0.3750 -0.1250 0.39606(6)
C13B C -0.1337(9) -0.34739(19) 0.35539(14)
C14B C -0.2211(7) -0.3635(2) 0.35184(16)
H9B H -0.2740 -0.3590 0.3607
C15B C -0.2293(7) -0.3865(2) 0.33498(18)
H10B H -0.2877 -0.3973 0.3326
C16B C -0.1502(9) -0.3933(2) 0.32166(14)
C17B C -0.0628(7) -0.3772(3) 0.32521(17)
H11B H -0.0099 -0.3817 0.3163
C18B C -0.0546(7) -0.3542(2) 0.34207(19)
H12B H 0.0038 -0.3434 0.3444
C20G C -0.0877(13) -0.3039(4) 0.6984(2)
C20J C -0.6623(13) -0.4461(4) 0.6984(2)
C20M C -0.6623(13) -0.3039(4) 0.5516(2)
H13G H -0.0458 -0.3169 0.6902
H13J H -0.7042 -0.4331 0.6902
H13M H -0.7042 -0.3169 0.5598
O3P O -0.2368(11) -0.5224(3) 0.4904(2)
C21B C -0.1604(15) -0.4178(4) 0.3036(3)
H14B H -0.1035 -0.4281 0.2992
C23G C -0.1772(12) -0.3029(4) 0.6929(3)
C23J C -0.5728(12) -0.4471(4) 0.6929(3)
C23M C -0.5728(12) -0.3029(4) 0.5571(3)
H15G H -0.2189 -0.2904 0.7016
H15J H -0.5311 -0.4596 0.7016
H15M H -0.5311 -0.2904 0.5484
C24B C -0.6250 -0.1250 0.3059(6)
C25B C 0.1480(14) -0.2159(4) 0.3726(4)
C26B C -0.2397(16) -0.4270(4) 0.2929(3)
H16B H -0.2970 -0.4164 0.2966
N1B N -0.6250 -0.1250 0.2836(7)
N2P N -0.339(2) -0.5420(10) 0.4613(5)
C27P C -0.337(2) -0.5676(9) 0.4443(6)
C28P C -0.428(3) -0.5322(13) 0.4727(9)
C29G C -0.0451(18) -0.2837(5) 0.7188(3)
C29J C -0.7049(18) -0.4663(5) 0.7188(3)
C29M C -0.7049(18) -0.2837(5) 0.5312(3)
C30B C -0.2450(19) -0.4531(6) 0.2752(4)
O4P O 0.1168(9) -0.5191(3) 0.47906(18)
O4G O -0.1168(9) -0.2691(3) 0.72906(18)
O4J O -0.6332(9) -0.4809(3) 0.72906(18)
O4M O -0.6332(9) -0.2691(3) 0.52094(18)
O5P O 0.0875(10) -0.5300(3) 0.52388(17)
O5B O -0.1625(10) -0.4700(3) 0.27388(17)
C31B C 0.256(2) -0.1706(6) 0.3780(6)
O6A O -0.7416(10) -0.0933(3) 0.3913(3)
O6B O -0.7416(10) -0.1567(3) 0.3587(3)
O6C O -0.5084(10) -0.0933(3) 0.3587(3)
O6B_2 O 0.2584(10) -0.1567(3) 0.3587(3)
O7B O -0.7060(11) -0.1621(4) 0.3928(2)
O7C O -0.5440(11) -0.0879(4) 0.3928(2)
O7A O -0.7060(11) -0.0879(4) 0.3572(2)
O7B_2 O 0.2940(11) -0.1621(4) 0.3928(2)
C32A C -0.536(2) -0.1261(7) 0.4807(5)
C32B C -0.536(2) -0.1239(7) 0.2693(5)
C32C C -0.714(2) -0.1261(7) 0.2693(5)
O8A O -0.5769(16) -0.1255(7) 0.4305(4)
O8B O -0.5769(16) -0.1245(7) 0.3195(4)
O8C O -0.6731(16) -0.1255(7) 0.3195(4)
C33P C -0.254(2) -0.5359(9) 0.4731(5)
C34B C 0.199(2) -0.2007(7) 0.3835(6)
loop_
_geom_bond_atom_site_label_1
_geom_bond_atom_site_label_2
_geom_bond_site_symmetry_1
_geom_bond_site_symmetry_2
O1 Cu1 1_555 1_555
O2 Cu1 1_555 1_555
C1 C2 1_555 1_555
C2 H1 1_555 1_555
C3 C2 1_555 1_555
H2 C3 1_555 1_555
C4 C3 1_555 1_555
C5 C4 1_555 1_555
H3 C5 1_555 1_555
C6 C1 1_555 1_555
H4 C6 1_555 1_555
Cu1 O3 1_555 1_555
C7 C8 1_555 1_555
C8 H5 1_555 1_555
C9 C8 1_555 1_555
H6 C9 1_555 1_555
C10 C9 1_555 1_555
C11 C10 1_555 1_555
H7 C11 1_555 1_555
C12 C7 1_555 1_555
H8 C12 1_555 1_555
Cu2 O6 1_555 1_555
C13 C14 1_555 1_555
C14 H9 1_555 1_555
C15 C14 1_555 1_555
H10 C15 1_555 1_555
C16 C15 1_555 1_555
C17 C16 1_555 1_555
H11 C17 1_555 1_555
C18 C13 1_555 1_555
H12 C18 1_555 1_555
C19 C1 1_555 1_555
C20 H13 1_555 1_555
O3 C33 1_555 1_555
C21 C16 1_555 1_555
H14 C21 1_555 1_555
C22 C10 1_555 1_555
C23 C7 1_555 1_555
H15 C23 1_555 1_555
C24 N1 1_555 1_555
C25 C4 1_555 1_555
C26 C21 1_555 1_555
H16 C26 1_555 1_555
N1 C32 1_555 1_555
N2 C27 1_555 1_555
C28 N2 1_555 1_555
C29 O1 1_555 1_555
C30 O2 1_555 1_555
O4 C29 1_555 1_555
O5 C30 1_555 1_555
C31 O6 1_555 1_555
O7 C31 1_555 1_555
O8 Cu2 1_555 1_555
C33 N2 1_555 1_555
C34 C25 1_555 1_555
O1P Cu1P 1_555 1_555
O1G Cu1G 1_555 1_555
O1J Cu1J 1_555 1_555
O1M Cu1M 1_555 1_555
O2P Cu1P 1_555 1_555
O2B Cu1B 1_555 1_555
C1B C19 1_555 1_555
C2B C1B 1_555 1_555
H1B C2B 1_555 1_555
C3B C2B 1_555 1_555
H2B C3B 1_555 1_555
C4B C3B 1_555 1_555
C5B C4B 1_555 1_555
H3B C5B 1_555 1_555
C6B C1B 1_555 1_555
H4B C6B 1_555 1_555
Cu1P Cu1 1_555 1_555
Cu1B Cu1Z 1_555 1_555
Cu1Z O5B 1_555 1_555
Cu1G Cu1S 1_555 1_555
Cu1S O4G 1_555 1_555
Cu1R Cu1J 1_555 1_555
Cu1Q Cu1M 1_555 1_555
C7G C8G 1_555 1_555
C7J C8J 1_555 1_555
C7M C8M 1_555 1_555
C8M H5M 1_555 1_555
C8G H5G 1_555 1_555
C8J H5J 1_555 1_555
C9M C8M 1_555 1_555
C9J C8J 1_555 1_555
C9G C8G 1_555 1_555
H6M C9M 1_555 1_555
H6G C9G 1_555 1_555
H6J C9J 1_555 1_555
C10G C22 1_555 1_555
C10J C22 1_555 1_555
C10M C22 1_555 1_555
C11M C10M 1_555 1_555
C11J C10J 1_555 1_555
C11G C10G 1_555 1_555
H7M C11M 1_555 1_555
H7G C11G 1_555 1_555
H7J C11J 1_555 1_555
C12M C7M 1_555 1_555
C12G C7G 1_555 1_555
C12J C7J 1_555 1_555
H8G C12G 1_555 1_555
H8J C12J 1_555 1_555
H8M C12M 1_555 1_555
Cu2B Cu2 1_555 1_555
Cu2B_2 Cu2_2 1_555 1_555
Cu2_2 O7B_2 1_555 1_555
C13B C19 1_555 1_555
C14B C13B 1_555 1_555
H9B C14B 1_555 1_555
C15B C14B 1_555 1_555
H10B C15B 1_555 1_555
C16B C15B 1_555 1_555
C17B C16B 1_555 1_555
H11B C17B 1_555 1_555
C18B C13B 1_555 1_555
H12B C18B 1_555 1_555
C20G H13G 1_555 1_555
C20J H13J 1_555 1_555
C20M H13M 1_555 1_555
O3P Cu1P 1_555 1_555
C21B C16B 1_555 1_555
H14B C21B 1_555 1_555
C23G C7G 1_555 1_555
C23J C7J 1_555 1_555
C23M C7M 1_555 1_555
H15G C23G 1_555 1_555
H15J C23J 1_555 1_555
H15M C23M 1_555 1_555
C24B N1B 1_555 1_555
C25B C4B 1_555 1_555
C26B C21B 1_555 1_555
H16B C26B 1_555 1_555
N1B C32B 1_555 1_555
N2P C27P 1_555 1_555
C28P N2P 1_555 1_555
C29G O1G 1_555 1_555
C29J O1J 1_555 1_555
C29M O1M 1_555 1_555
C30B O2B 1_555 1_555
O4P Cu1 1_555 1_555
O4G C29G 1_555 1_555
O4J Cu1R 1_555 1_555
O4M Cu1Q 1_555 1_555
O5P Cu1 1_555 1_555
O5B C30B 1_555 1_555
C31B O6B_2 1_555 1_555
O6A Cu2 1_555 1_555
O6B Cu2B 1_555 1_555
O6C Cu2B 1_555 1_555
O6B_2 Cu2B_2 1_555 1_555
O7B Cu2 1_555 1_555
O7C Cu2 1_555 1_555
O7A Cu2B 1_555 1_555
O7B_2 C31B 1_555 1_555
C32A N1 1_555 1_555
C32C N1B 1_555 1_555
O8A Cu2 1_555 1_555
O8B Cu2B 1_555 1_555
O8C Cu2B 1_555 1_555
C33P O3P 1_555 1_555
C34B C25B 1_555 1_555
C5 C6 1_555 1_555
C11 C12 1_555 1_555
C13 C19 1_555 1_555
C17 C18 1_555 1_555
C20 C23 1_555 1_555
C20 C29 1_555 1_555
C24 O8 1_555 1_555
C24 O8A 1_555 1_555
C26 C30 1_555 1_555
O4 Cu1P 1_555 1_555
O5 Cu1P 1_555 1_555
C31 C34 1_555 1_555
O7 Cu2B 1_555 1_555
O8 O8A 1_555 1_555
C5B C6B 1_555 1_555
C9M C10M 1_555 1_555
C9J C10J 1_555 1_555
C9G C10G 1_555 1_555
C11M C12M 1_555 1_555
C11J C12J 1_555 1_555
C11G C12G 1_555 1_555
C17B C18B 1_555 1_555
C20G C23G 1_555 1_555
C20G C29G 1_555 1_555
C20J C23J 1_555 1_555
C20J C29J 1_555 1_555
C20M C23M 1_555 1_555
C20M C29M 1_555 1_555
C24B O8B 1_555 1_555
C24B O8C 1_555 1_555
C26B C30B 1_555 1_555
N2P C33P 1_555 1_555
C29J O4J 1_555 1_555
C29M O4M 1_555 1_555
C31B C34B 1_555 1_555
O8B O8C 1_555 1_555

#END
