
#######################################################################
#
#                 Cambridge Crystallographic Data Centre
#                                CCDC 
#
#######################################################################
#
# If this CIF has been generated from an entry in the Cambridge 
# Structural Database, then it will include bibliographic, chemical, 
# crystal, experimental, refinement or atomic coordinate data resulting 
# from the CCDC's data processing and validation procedures.
#
#######################################################################

data_OWIZAW
_chemical_formula_moiety         '(C61 H36 Cu2 O10)n'
_symmetry_cell_setting           monoclinic
_symmetry_space_group_name_H-M   'C 2/c'
_symmetry_Int_Tables_number      15
_space_group_name_Hall           '-C 2yc'
loop_
_symmetry_equiv_pos_site_id
_symmetry_equiv_pos_as_xyz
1 x,y,z
2 -x,y,1/2-z
3 1/2+x,1/2+y,z
4 1/2-x,1/2+y,1/2-z
5 -x,-y,-z
6 x,-y,1/2+z
7 1/2-x,1/2-y,-z
8 1/2+x,1/2-y,1/2+z
_cell_length_a                   26.537(9)
_cell_length_b                   29.791(10)
_cell_length_c                   45.448(15)
_cell_angle_alpha                90
_cell_angle_beta                 95.146(6)
_cell_angle_gamma                90
_cell_volume                     35784.7
loop_
_atom_site_label
_atom_site_type_symbol
_atom_site_fract_x
_atom_site_fract_y
_atom_site_fract_z
_atom_site_U_iso_or_equiv
_atom_site_thermal_displace_type
Cu1 Cu 0.30943(9) 0.78315(11) 0.68550(5) 0.1207 Uani
Cu2 Cu 0.38838(9) 0.72668(10) 0.69457(5) 0.1187 Uani
C1 C 0.2901(5) 0.6752(4) 0.62528(18) 0.1257 Uani
C2 C 0.2439(4) 0.6865(3) 0.6102(3) 0.1506 Uani
H1 H 0.2261 0.7113 0.6161 0.1810 Uiso
C3 C 0.2243(3) 0.6606(4) 0.5864(2) 0.1540 Uani
H2 H 0.1934 0.6681 0.5764 0.1860 Uiso
C4 C 0.2509(5) 0.6234(4) 0.57770(19) 0.1425 Uani
C5 C 0.2971(4) 0.6121(3) 0.5928(3) 0.1422 Uani
H3 H 0.3149 0.5873 0.5869 0.1700 Uiso
C6 C 0.3167(3) 0.6380(4) 0.6165(2) 0.1371 Uani
H4 H 0.3476 0.6305 0.6266 0.1650 Uiso
O1 O 0.2830(4) 0.7357(4) 0.6580(2) 0.1080 Uani
C7 C 0.1371(4) 0.4993(4) 0.46246(18) 0.0937 Uani
C8 C 0.1177(3) 0.5402(5) 0.4709(2) 0.1099 Uani
H5 H 0.0873 0.5508 0.4617 0.1320 Uiso
C9 C 0.1437(5) 0.5653(3) 0.4931(3) 0.1099 Uani
H6 H 0.1307 0.5927 0.4988 0.1310 Uiso
C10 C 0.1891(5) 0.5495(4) 0.50693(19) 0.1335 Uani
C11 C 0.2086(3) 0.5087(5) 0.4985(2) 0.1390 Uani
H7 H 0.2390 0.4981 0.5077 0.1660 Uiso
C12 C 0.1826(5) 0.4836(3) 0.4762(3) 0.1230 Uani
H8 H 0.1956 0.4562 0.4706 0.1470 Uiso
O2 O 0.3557(4) 0.6916(4) 0.6609(2) 0.1175 Uani
C13 C -0.0902(4) 0.3124(4) 0.62336(19) 0.1133 Uani
C14 C -0.0387(4) 0.3076(4) 0.6208(2) 0.1205 Uani
H9 H -0.0184 0.2927 0.6355 0.1440 Uiso
C15 C -0.0174(3) 0.3251(4) 0.5964(3) 0.1368 Uani
H10 H 0.0171 0.3218 0.5947 0.1640 Uiso
C16 C -0.0476(4) 0.3474(4) 0.5746(2) 0.1419 Uani
C17 C -0.0992(4) 0.3522(4) 0.5771(2) 0.1347 Uani
H11 H -0.1194 0.3672 0.5624 0.1620 Uiso
C18 C -0.1204(3) 0.3347(4) 0.6015(2) 0.1355 Uani
H12 H -0.1549 0.3380 0.6032 0.1630 Uiso
O3 O -0.0835(4) 0.2677(4) 0.6649(2) 0.1142 Uani
C19 C 0.0742(4) 0.4411(4) 0.46072(17) 0.0861 Uani
C20 C 0.0961(3) 0.4038(4) 0.4751(2) 0.0993 Uani
H13 H 0.1273 0.3933 0.4702 0.1190 Uiso
C21 C 0.0714(4) 0.3821(3) 0.4968(2) 0.1047 Uani
H14 H 0.0861 0.3572 0.5064 0.1260 Uiso
C22 C 0.0248(4) 0.3978(4) 0.50410(18) 0.0980 Uani
C23 C 0.0029(3) 0.4351(4) 0.4897(2) 0.0832 Uani
H15 H -0.0283 0.4456 0.4946 0.0990 Uiso
C24 C 0.0276(4) 0.4567(3) 0.4680(2) 0.0885 Uani
H16 H 0.0129 0.4817 0.4584 0.1060 Uiso
O4 O -0.1603(4) 0.3090(4) 0.6527(2) 0.1116 Uani
C25 C -0.0869(4) 0.6648(4) 0.25497(18) 0.1157 Uani
C26 C -0.1082(3) 0.6233(4) 0.2603(2) 0.1453 Uani
H17 H -0.1361 0.6132 0.2483 0.1740 Uiso
C27 C -0.0877(4) 0.5969(3) 0.2836(3) 0.1540 Uani
H18 H -0.1020 0.5691 0.2872 0.1850 Uiso
C28 C -0.0460(4) 0.6120(4) 0.30157(19) 0.1258 Uani
C29 C -0.0247(3) 0.6535(4) 0.2962(2) 0.1361 Uani
H19 H 0.0032 0.6636 0.3083 0.1640 Uiso
C30 C -0.0452(4) 0.6799(3) 0.2729(2) 0.1146 Uani
H20 H -0.0309 0.7077 0.2694 0.1370 Uiso
O5 O -0.1516(4) 0.6781(4) 0.2129(2) 0.1260 Uani
C31 C 0.2850(4) 0.3048(4) 0.25731(18) 0.1268 Uani
C32 C 0.3021(3) 0.3462(4) 0.2681(2) 0.1484 Uani
H21 H 0.3256 0.3623 0.2583 0.1780 Uiso
C33 C 0.2841(4) 0.3637(3) 0.2935(2) 0.1436 Uani
H22 H 0.2956 0.3915 0.3007 0.1730 Uiso
C34 C 0.2490(4) 0.3397(4) 0.30813(18) 0.1477 Uani
C35 C 0.2319(4) 0.2983(4) 0.2974(2) 0.1604 Uani
H23 H 0.2085 0.2822 0.3072 0.1930 Uiso
C36 C 0.2499(4) 0.2808(3) 0.2720(2) 0.1521 Uani
H24 H 0.2385 0.2530 0.2648 0.1830 Uiso
O6 O -0.0910(4) 0.7306(4) 0.2253(2) 0.0970 Uani
C37 C 0.1383(4) 0.4399(4) 0.42031(18) 0.0996 Uani
C38 C 0.1817(4) 0.4583(3) 0.4103(2) 0.1282 Uani
H25 H 0.1938 0.4858 0.4176 0.1540 Uiso
C39 C 0.2070(3) 0.4357(4) 0.3892(2) 0.1354 Uani
H26 H 0.2360 0.4480 0.3825 0.1620 Uiso
C40 C 0.1888(4) 0.3946(4) 0.3783(2) 0.1452 Uani
C41 C 0.1454(4) 0.3762(3) 0.3883(2) 0.1383 Uani
H27 H 0.1333 0.3487 0.3810 0.1660 Uiso
C42 C 0.1201(3) 0.3989(4) 0.4094(2) 0.1213 Uani
H28 H 0.0911 0.3865 0.4161 0.1450 Uiso
O7 O 0.2855(3) 0.2483(4) 0.2192(2) 0.1281 Uani
C43 C 0.0740(4) 0.4944(4) 0.41567(16) 0.1020 Uani
C44 C 0.0927(3) 0.5347(4) 0.4057(2) 0.1022 Uani
H29 H 0.1228 0.5465 0.4146 0.1230 Uiso
C45 C 0.0665(4) 0.5574(3) 0.3824(2) 0.1188 Uani
H30 H 0.0790 0.5844 0.3757 0.1420 Uiso
C46 C 0.0216(4) 0.5398(4) 0.36901(18) 0.1154 Uani
C47 C 0.0029(3) 0.4995(4) 0.3790(2) 0.1217 Uani
H31 H -0.0271 0.4878 0.3701 0.1460 Uiso
C48 C 0.0291(5) 0.4769(3) 0.4023(2) 0.1082 Uani
H32 H 0.0166 0.4499 0.4090 0.1300 Uiso
C49 C 0.1050(5) 0.4686(4) 0.4397(3) 0.0906 Uani
C50 C 0.3102(6) 0.7041(5) 0.6500(3) 0.1031 Uani
C51 C -0.1144(6) 0.2951(5) 0.6500(3) 0.0919 Uani
C52 C -0.1114(6) 0.6927(5) 0.2294(3) 0.0968 Uani
C53 C 0.3069(6) 0.2840(5) 0.2311(3) 0.0975 Uani
C54 C 0.2098(7) 0.5772(7) 0.5308(4) 0.1422 Uani
C55 C 0.2280(6) 0.5970(6) 0.5521(4) 0.1406 Uani
C56 C -0.0040(5) 0.3817(6) 0.5278(3) 0.1037 Uani
C57 C -0.0234(6) 0.3661(7) 0.5492(3) 0.1308 Uani
C58 C 0.2325(6) 0.3548(7) 0.3356(4) 0.1573 Uani
C59 C 0.2090(7) 0.3753(7) 0.3531(4) 0.1660 Uani
C60 C -0.0074(6) 0.5622(6) 0.3445(4) 0.1314 Uani
C61 C -0.0264(7) 0.5852(6) 0.3246(4) 0.1291 Uani
O8 O 0.3461(4) 0.3031(4) 0.2221(2) 0.1183 Uani
O9 O 0.4592(4) 0.6884(3) 0.69975(18) 0.1292 Uani
O10 O 0.2473(4) 0.8288(4) 0.6786(2) 0.1463 Uani
Cu1B Cu -0.19057(9) 0.28315(11) 0.68550(5) 0.1207 Uani
Cu1G Cu -0.19057(9) 0.71685(11) 0.18550(5) 0.1207 Uani
Cu1E Cu 0.30943(9) 0.21685(11) 0.18550(5) 0.1207 Uani
Cu2B Cu -0.11162(9) 0.22668(10) 0.69457(5) 0.1187 Uani
Cu2G Cu -0.11162(9) 0.77332(10) 0.19457(5) 0.1187 Uani
Cu2E Cu 0.38838(9) 0.27332(10) 0.19457(5) 0.1187 Uani
O3B O 0.4165(4) 0.7677(4) 0.6649(2) 0.1142 Uani
O4B O 0.3397(4) 0.8090(4) 0.6527(2) 0.1116 Uani
O5G O 0.3484(4) 0.8219(4) 0.7129(2) 0.1260 Uani
O6G O 0.4090(4) 0.7694(4) 0.7253(2) 0.0970 Uani
O7E O 0.2855(3) 0.7517(4) 0.7192(2) 0.1281 Uani
O8E O 0.3461(4) 0.6969(4) 0.7221(2) 0.1183 Uani
loop_
_atom_site_aniso_label
_atom_site_aniso_U_11
_atom_site_aniso_U_22
_atom_site_aniso_U_33
_atom_site_aniso_U_23
_atom_site_aniso_U_13
_atom_site_aniso_U_12
Cu1 0.109(2) 0.168(3) 0.084(2) -0.001(2) 0.002(2) -0.023(2)
Cu2 0.116(2) 0.155(3) 0.084(2) 0.009(2) 0.0028(19) -0.017(2)
C1 0.128(14) 0.181(17) 0.067(13) 0.010(9) 0.002(9) -0.016(12)
C2 0.152(15) 0.196(18) 0.097(15) -0.021(11) -0.026(9) -0.001(13)
C3 0.123(13) 0.19(2) 0.143(16) -0.042(11) -0.021(10) -0.011(12)
C4 0.128(16) 0.162(19) 0.129(16) -0.022(11) -0.036(11) -0.020(13)
C5 0.134(15) 0.175(17) 0.108(16) -0.007(10) -0.042(10) -0.016(12)
C6 0.137(13) 0.165(18) 0.101(15) -0.012(10) -0.036(11) -0.017(11)
O1 0.096(7) 0.135(11) 0.094(9) 0.031(7) 0.014(6) -0.036(7)
C7 0.088(13) 0.137(15) 0.059(10) -0.025(9) 0.022(8) -0.008(9)
C8 0.120(12) 0.140(17) 0.071(14) -0.025(10) 0.016(9) 0.002(11)
C9 0.110(14) 0.139(15) 0.086(15) -0.029(10) 0.038(9) -0.038(11)
C10 0.143(16) 0.152(18) 0.103(15) -0.025(11) -0.002(11) -0.035(13)
C11 0.142(12) 0.18(2) 0.088(15) -0.024(11) -0.029(9) 0.001(12)
C12 0.111(14) 0.178(16) 0.077(14) -0.040(11) -0.008(9) 0.016(11)
O2 0.107(9) 0.149(10) 0.099(9) 0.016(7) 0.023(6) -0.032(7)
C13 0.107(12) 0.133(16) 0.101(13) 0.036(10) 0.016(10) -0.062(13)
C14 0.139(11) 0.153(17) 0.077(12) 0.021(10) 0.051(10) -0.017(14)
C15 0.129(11) 0.17(2) 0.119(15) 0.043(12) 0.053(10) -0.005(13)
C16 0.148(13) 0.188(18) 0.097(15) 0.049(11) 0.051(11) -0.010(16)
C17 0.121(12) 0.183(18) 0.106(13) 0.046(11) 0.043(11) -0.024(15)
C18 0.144(12) 0.180(19) 0.086(14) 0.055(12) 0.029(10) -0.031(13)
O3 0.106(9) 0.177(15) 0.058(8) 0.011(7) -0.002(7) -0.028(8)
C19 0.059(12) 0.133(15) 0.071(11) -0.035(8) 0.031(9) 0.006(9)
C20 0.061(10) 0.135(16) 0.110(15) -0.018(9) 0.053(9) 0.014(10)
C21 0.070(13) 0.145(16) 0.107(14) -0.008(9) 0.052(10) 0.035(11)
C22 0.074(14) 0.125(16) 0.101(14) 0.014(10) 0.041(10) 0.006(11)
C23 0.031(9) 0.122(17) 0.098(14) -0.006(9) 0.013(8) 0.006(9)
C24 0.048(12) 0.145(15) 0.072(13) 0.014(9) 0.003(8) 0.002(10)
O4 0.103(10) 0.121(12) 0.109(9) 0.004(8) 0.000(8) -0.047(9)
C25 0.113(16) 0.145(16) 0.089(13) 0.006(11) 0.009(9) 0.041(12)
C26 0.138(14) 0.183(19) 0.109(14) 0.042(11) -0.021(11) -0.006(13)
C27 0.140(17) 0.203(17) 0.114(17) 0.059(11) -0.017(10) -0.004(13)
C28 0.116(16) 0.167(18) 0.093(16) 0.031(11) 0.002(10) 0.023(13)
C29 0.139(14) 0.156(19) 0.109(14) 0.038(11) -0.013(10) 0.028(12)
C30 0.119(15) 0.134(15) 0.089(15) 0.005(10) 0.000(9) 0.042(11)
O5 0.127(11) 0.149(13) 0.101(10) -0.026(9) 0.004(7) 0.036(9)
C31 0.118(15) 0.208(17) 0.059(12) -0.011(10) 0.033(9) 0.042(12)
C32 0.108(13) 0.234(18) 0.110(15) -0.050(11) 0.047(11) 0.025(13)
C33 0.099(15) 0.223(17) 0.115(15) -0.054(12) 0.044(10) 0.012(11)
C34 0.133(16) 0.197(18) 0.123(15) -0.038(12) 0.066(11) 0.025(12)
C35 0.177(15) 0.220(19) 0.098(14) -0.032(11) 0.089(12) -0.003(13)
C36 0.152(15) 0.216(18) 0.101(14) -0.032(12) 0.082(10) 0.033(12)
O6 0.094(8) 0.122(13) 0.073(8) -0.029(8) -0.003(6) 0.063(8)
C37 0.107(13) 0.146(15) 0.053(11) -0.030(9) 0.047(9) -0.002(9)
C38 0.132(15) 0.159(16) 0.107(15) -0.030(11) 0.085(10) -0.014(11)
C39 0.117(13) 0.159(19) 0.145(17) -0.019(11) 0.093(11) 0.014(11)
C40 0.135(16) 0.160(18) 0.152(16) -0.036(12) 0.076(12) 0.036(12)
C41 0.113(16) 0.174(17) 0.134(16) -0.082(11) 0.044(10) -0.001(11)
C42 0.098(12) 0.163(17) 0.109(15) -0.055(11) 0.043(10) -0.009(11)
O7 0.064(8) 0.225(16) 0.090(10) -0.020(8) -0.022(7) 0.031(8)
C43 0.091(13) 0.151(16) 0.065(11) -0.029(9) 0.013(8) -0.005(9)
C44 0.070(11) 0.163(17) 0.071(14) -0.022(9) -0.008(9) -0.014(11)
C45 0.109(15) 0.179(16) 0.064(14) -0.022(9) -0.016(9) 0.001(11)
C46 0.095(15) 0.176(18) 0.073(14) 0.019(10) -0.005(9) 0.005(12)
C47 0.096(11) 0.176(19) 0.093(14) 0.007(10) 0.008(9) 0.005(11)
C48 0.084(13) 0.177(16) 0.067(13) 0.024(10) 0.025(7) -0.020(11)
C49 0.073(11) 0.150(12) 0.052(13) -0.032(6) 0.024(6) -0.004(9)
C50 0.110(14) 0.134(16) 0.065(13) 0.027(9) 0.006(11) -0.032(11)
C51 0.089(14) 0.121(18) 0.064(12) 0.027(10) -0.002(11) -0.067(12)
C52 0.110(17) 0.111(17) 0.070(14) -0.022(11) 0.011(10) 0.070(11)
C53 0.084(16) 0.170(18) 0.040(12) 0.007(10) 0.014(11) 0.062(11)
C54 0.168(17) 0.154(19) 0.10(2) -0.018(10) -0.014(11) -0.004(16)
C55 0.122(15) 0.17(2) 0.12(2) -0.015(11) -0.043(11) -0.011(15)
C56 0.054(12) 0.158(18) 0.106(19) 0.012(11) 0.045(9) -0.001(13)
C57 0.096(13) 0.19(2) 0.111(19) 0.044(14) 0.035(10) -0.011(15)
C58 0.140(17) 0.21(2) 0.133(18) -0.057(11) 0.073(11) -0.008(15)
C59 0.149(17) 0.22(2) 0.14(2) -0.050(12) 0.073(11) 0.035(16)
C60 0.086(15) 0.17(2) 0.13(2) 0.022(11) -0.035(11) 0.017(15)
C61 0.124(17) 0.16(2) 0.10(2) 0.034(10) -0.009(11) 0.008(16)
O8 0.104(10) 0.170(13) 0.082(9) -0.027(8) 0.015(7) 0.035(8)
O9 0.200(9) 0.077(10) 0.098(8) 0.011(7) -0.056(7) 0.009(7)
O10 0.131(9) 0.160(12) 0.147(10) -0.006(8) 0.008(7) -0.007(7)
Cu1B 0.109 0.168 0.084 -0.001 0.002 -0.023
Cu1G 0.109 0.168 0.084 0.001 0.002 0.023
Cu1E 0.109 0.168 0.084 0.001 0.002 0.023
Cu2B 0.116 0.155 0.084 0.009 0.0028 -0.017
Cu2G 0.116 0.155 0.084 -0.009 0.0028 0.017
Cu2E 0.116 0.155 0.084 -0.009 0.0028 0.017
O3B 0.106 0.177 0.058 0.011 -0.002 -0.028
O4B 0.103 0.121 0.109 0.004 0 -0.047
O5G 0.127 0.149 0.101 0.026 0.004 -0.036
O6G 0.094 0.122 0.073 0.029 -0.003 -0.063
O7E 0.064 0.225 0.09 0.02 -0.022 -0.031
O8E 0.104 0.17 0.082 0.027 0.015 -0.035
loop_
_geom_bond_atom_site_label_1
_geom_bond_atom_site_label_2
_geom_bond_site_symmetry_1
_geom_bond_site_symmetry_2
Cu1 Cu2 1_555 1_555
Cu2 O2 1_555 1_555
C1 C2 1_555 1_555
C2 H1 1_555 1_555
C3 C2 1_555 1_555
H2 C3 1_555 1_555
C4 C3 1_555 1_555
C5 C4 1_555 1_555
H3 C5 1_555 1_555
C6 C1 1_555 1_555
H4 C6 1_555 1_555
O1 Cu1 1_555 1_555
C7 C8 1_555 1_555
C8 H5 1_555 1_555
C9 C8 1_555 1_555
H6 C9 1_555 1_555
C10 C9 1_555 1_555
C11 C10 1_555 1_555
H7 C11 1_555 1_555
C12 C7 1_555 1_555
H8 C12 1_555 1_555
O2 C50 1_555 1_555
C13 C14 1_555 1_555
C14 H9 1_555 1_555
C15 C14 1_555 1_555
H10 C15 1_555 1_555
C16 C15 1_555 1_555
C17 C16 1_555 1_555
H11 C17 1_555 1_555
C18 C13 1_555 1_555
H12 C18 1_555 1_555
O3 C51 1_555 1_555
C19 C20 1_555 1_555
C20 H13 1_555 1_555
C21 C20 1_555 1_555
H14 C21 1_555 1_555
C22 C21 1_555 1_555
C23 C22 1_555 1_555
H15 C23 1_555 1_555
C24 C19 1_555 1_555
H16 C24 1_555 1_555
O4 C51 1_555 1_555
C25 C26 1_555 1_555
C26 H17 1_555 1_555
C27 C26 1_555 1_555
H18 C27 1_555 1_555
C28 C27 1_555 1_555
C29 C28 1_555 1_555
H19 C29 1_555 1_555
C30 C25 1_555 1_555
H20 C30 1_555 1_555
O5 C52 1_555 1_555
C31 C32 1_555 1_555
C32 H21 1_555 1_555
C33 C32 1_555 1_555
H22 C33 1_555 1_555
C34 C33 1_555 1_555
C35 C34 1_555 1_555
H23 C35 1_555 1_555
C36 C31 1_555 1_555
H24 C36 1_555 1_555
O6 C52 1_555 1_555
C37 C38 1_555 1_555
C38 H25 1_555 1_555
C39 C38 1_555 1_555
H26 C39 1_555 1_555
C40 C39 1_555 1_555
C41 C40 1_555 1_555
H27 C41 1_555 1_555
C42 C37 1_555 1_555
H28 C42 1_555 1_555
O7 C53 1_555 1_555
C43 C44 1_555 1_555
C44 H29 1_555 1_555
C45 C44 1_555 1_555
H30 C45 1_555 1_555
C46 C45 1_555 1_555
C47 C46 1_555 1_555
H31 C47 1_555 1_555
C48 C43 1_555 1_555
H32 C48 1_555 1_555
C49 C7 1_555 1_555
C50 C1 1_555 1_555
C51 C13 1_555 1_555
C52 C25 1_555 1_555
C53 C31 1_555 1_555
C54 C10 1_555 1_555
C55 C4 1_555 1_555
C56 C22 1_555 1_555
C57 C16 1_555 1_555
C58 C34 1_555 1_555
C59 C40 1_555 1_555
C60 C46 1_555 1_555
C61 C28 1_555 1_555
O8 C53 1_555 1_555
O9 Cu2 1_555 1_555
O10 Cu1 1_555 1_555
Cu1B O4 1_555 1_555
Cu1G O5 1_555 1_555
Cu1E O7 1_555 1_555
Cu2B O3 1_555 1_555
Cu2G O6 1_555 1_555
Cu2E O8 1_555 1_555
O3B Cu2 1_555 1_555
O4B Cu1 1_555 1_555
O5G Cu1 1_555 1_555
O6G Cu2 1_555 1_555
O7E Cu1 1_555 1_555
O8E Cu2 1_555 1_555
C5 C6 1_555 1_555
O1 C50 1_555 1_555
C11 C12 1_555 1_555
C17 C18 1_555 1_555
C19 C49 1_555 1_555
C23 C24 1_555 1_555
C29 C30 1_555 1_555
C35 C36 1_555 1_555
C37 C49 1_555 1_555
C41 C42 1_555 1_555
C43 C49 1_555 1_555
C47 C48 1_555 1_555
C54 C55 1_555 1_555
C56 C57 1_555 1_555
C58 C59 1_555 1_555
C60 C61 1_555 1_555
Cu1B Cu2B 1_555 1_555
Cu1G Cu2G 1_555 1_555
Cu1E Cu2E 1_555 1_555

#END
