
#######################################################################
#
#                 Cambridge Crystallographic Data Centre
#                                CCDC 
#
#######################################################################
#
# If this CIF has been generated from an entry in the Cambridge 
# Structural Database, then it will include bibliographic, chemical, 
# crystal, experimental, refinement or atomic coordinate data resulting 
# from the CCDC's data processing and validation procedures.
#
#######################################################################

data_EXOGAB
_chemical_formula_moiety         '(C28 H18 Cu2 O12)n'
_symmetry_cell_setting           rhombohedral
_symmetry_space_group_name_H-M   'R -3'
_symmetry_Int_Tables_number      148
_space_group_name_Hall           '-R 3'
loop_
_symmetry_equiv_pos_site_id
_symmetry_equiv_pos_as_xyz
1 x,y,z
2 -y,x-y,z
3 -x+y,-x,z
4 2/3+x,1/3+y,1/3+z
5 2/3-y,1/3+x-y,1/3+z
6 2/3-x+y,1/3-x,1/3+z
7 1/3+x,2/3+y,2/3+z
8 1/3-y,2/3+x-y,2/3+z
9 1/3-x+y,2/3-x,2/3+z
10 -x,-y,-z
11 y,-x+y,-z
12 x-y,x,-z
13 1/3-x,2/3-y,2/3-z
14 1/3+y,2/3-x+y,2/3-z
15 1/3+x-y,2/3+x,2/3-z
16 2/3-x,1/3-y,1/3-z
17 2/3+y,1/3-x+y,1/3-z
18 2/3+x-y,1/3+x,1/3-z
_cell_length_a                   18.611(11)
_cell_length_b                   18.611(11)
_cell_length_c                   52.08(3)
_cell_angle_alpha                90
_cell_angle_beta                 90
_cell_angle_gamma                120
_cell_volume                     15622.2
loop_
_atom_site_label
_atom_site_type_symbol
_atom_site_fract_x
_atom_site_fract_y
_atom_site_fract_z
O11 O 0.9188(13) 0.2204(12) -0.0238(3)
O12 O 0.7772(11) 0.0783(14) -0.0232(3)
Cu1 Cu 1.2871(8) 0.1335(6) 0.0493(2)
O1 O 1.5631(17) -0.1520(20) -0.2671(3)
Cu2 Cu 1.3810(6) 0.1792(4) 0.09115(16)
O2 O 1.2117(14) 0.0911(15) 0.0169(5)
O3 O 1.3620(9) 0.0952(8) 0.0377(3)
O4 O 1.7485(10) 0.1048(16) 0.0384(3)
O5 O 1.3084(21) -0.1372(27) -0.2669(3)
C1 C 1.5822(16) -0.1182(19) -0.2450(3)
O6 O 1.6403(17) -0.1157(19) -0.2307(4)
O7 O 1.451(2) 0.2160(18) 0.1270(4)
O8 O 1.4407(9) 0.1354(7) 0.0719(2)
O9 O 1.6997(9) 0.1326(16) 0.0730(3)
O10 O 1.2699(20) -0.0976(26) -0.2319(4)
C2 C 1.4275(9) 0.1157(9) 0.0496(3)
C3 C 1.6949(8) 0.1169(14) 0.0502(3)
C4 C 1.3206(19) -0.1077(25) -0.2442(3)
C5 C 1.4930(7) 0.1074(6) 0.0352(2)
C6 C 1.4877(6) 0.0950(6) 0.0088(2)
C7 C 1.5605(8) 0.1139(7) 0.04865(17)
C8 C 1.5499(5) 0.0891(7) -0.00416(17)
H1 H 1.4416 0.0906 -0.0004
C9 C 1.6227(8) 0.1080(7) 0.0357(2)
H2 H 1.5641 0.1224 0.0667
C10 C 1.5431(3) 0.0718(4) -0.03371(15)
C11 C 1.6173(6) 0.0956(6) 0.0093(2)
C12 C 1.4768(6) 0.0669(5) -0.04745(19)
C13 C 1.6064(6) 0.0675(5) -0.04650(18)
H3 H 1.6599 0.0916 0.0005
C14 C 1.4738(6) 0.0578(7) -0.07398(18)
H4 H 1.4335 0.0698 -0.0387
H5 H 1.6517 0.0708 -0.0371
C15 C 1.6034(6) 0.0584(7) -0.07303(19)
H6 H 1.4285 0.0545 -0.0834
C16 C 1.5370(5) 0.0535(8) -0.08677(15)
H7 H 1.6467 0.0555 -0.0818
C17 C 1.5220(2) 0.0327(4) -0.11478(15)
C18 C 1.5547(7) -0.0139(4) -0.12499(18)
C19 C 1.4779(8) 0.0576(4) -0.1304(2)
C20 C 1.5432(7) -0.0356(6) -0.15082(18)
H8 H 1.5849 -0.0309 -0.1143
C21 C 1.4664(9) 0.0359(6) -0.1562(2)
H9 H 1.4555 0.0894 -0.1234
C22 C 1.4991(5) -0.0107(8) -0.16644(15)
H10 H 1.5656 -0.0674 -0.1578
H11 H 1.4362 0.0529 -0.1669
C23 C 1.4938(5) -0.0419(6) -0.19479(16)
C24 C 1.5479(8) -0.0597(6) -0.2080(2)
C25 C 1.4206(7) -0.0558(6) -0.2064(2)
C26 C 1.5290(11) -0.0912(7) -0.2328(2)
H12 H 1.5979 -0.0502 -0.2001
C27 C 1.4017(9) -0.0873(7) -0.2312(2)
H13 H 1.3836 -0.0436 -0.1974
C28 C 1.4558(11) -0.1051(8) -0.2444(2)
H14 H 1.4429 -0.1266 -0.2614
Cu1A Cu 1.8665(6) 0.1536(10) 0.0493(2)
Cu1F Cu 1.6204(8) -0.1998(6) -0.2840(2)
Cu1G Cu 1.1998(6) -0.1797(10) -0.2840(2)
O1C O 1.2298(17) 0.1813(20) 0.0662(3)
Cu2A Cu 1.8208(4) 0.2018(7) 0.09115(16)
Cu2F Cu 1.7143(6) -0.1541(4) -0.24218(16)
Cu2G Cu 1.1541(4) -0.1315(7) -0.24218(16)
O4B O 1.3563(19) 0.2515(10) 0.0384(3)
O5E O 1.2211(34) 0.0249(21) 0.0664(3)
O6C O 1.3070(17) 0.2176(19) 0.1026(4)
O9B O 1.4329(18) 0.3003(9) 0.0730(3)
O10E O 1.2992(33) 0.0634(20) 0.1014(4)
loop_
_geom_bond_atom_site_label_1
_geom_bond_atom_site_label_2
_geom_bond_site_symmetry_1
_geom_bond_site_symmetry_2
Cu1 Cu2 1_555 1_555
O1 C1 1_555 1_555
Cu2 O7 1_555 1_555
O2 Cu1 1_555 1_555
O3 Cu1 1_555 1_555
O4 C3 1_555 1_555
O5 C4 1_555 1_555
C1 O6 1_555 1_555
O6 Cu2F 1_555 1_555
O8 Cu2 1_555 1_555
O9 C3 1_555 1_555
O10 C4 1_555 1_555
C2 O3 1_555 1_555
C3 C9 1_555 1_555
C4 C27 1_555 1_555
C5 C2 1_555 1_555
C6 C5 1_555 1_555
C7 C5 1_555 1_555
C8 C6 1_555 1_555
H1 C6 1_555 1_555
C9 C7 1_555 1_555
H2 C7 1_555 1_555
C10 C8 1_555 1_555
C11 C8 1_555 1_555
C12 C10 1_555 1_555
C13 C10 1_555 1_555
H3 C11 1_555 1_555
C14 C12 1_555 1_555
H4 C12 1_555 1_555
H5 C13 1_555 1_555
C15 C13 1_555 1_555
H6 C14 1_555 1_555
C16 C14 1_555 1_555
H7 C15 1_555 1_555
C17 C16 1_555 1_555
C18 C17 1_555 1_555
C19 C17 1_555 1_555
C20 C18 1_555 1_555
H8 C18 1_555 1_555
C21 C19 1_555 1_555
H9 C19 1_555 1_555
C22 C20 1_555 1_555
H10 C20 1_555 1_555
H11 C21 1_555 1_555
C23 C22 1_555 1_555
C24 C23 1_555 1_555
C25 C23 1_555 1_555
C26 C1 1_555 1_555
H12 C24 1_555 1_555
C27 C25 1_555 1_555
H13 C25 1_555 1_555
C28 C26 1_555 1_555
H14 C28 1_555 1_555
Cu1A O4 1_555 1_555
Cu1F O1 1_555 1_555
Cu1G O5 1_555 1_555
O1C Cu1 1_555 1_555
Cu2A O9 1_555 1_555
Cu2F Cu1F 1_555 1_555
Cu2G O10 1_555 1_555
O4B Cu1 1_555 1_555
O5E Cu1 1_555 1_555
O6C Cu2 1_555 1_555
O9B Cu2 1_555 1_555
O10E Cu2 1_555 1_555
O8 C2 1_555 1_555
C9 C11 1_555 1_555
C15 C16 1_555 1_555
C21 C22 1_555 1_555
C24 C26 1_555 1_555
C27 C28 1_555 1_555
Cu1A Cu2A 1_555 1_555
Cu1G Cu2G 1_555 1_555

#END
