
#######################################################################
#
#                 Cambridge Crystallographic Data Centre
#                                CCDC 
#
#######################################################################
#
# If this CIF has been generated from an entry in the Cambridge 
# Structural Database, then it will include bibliographic, chemical, 
# crystal, experimental, refinement or atomic coordinate data resulting 
# from the CCDC's data processing and validation procedures.
#
#######################################################################

data_MUVMOG
_chemical_formula_moiety         '(C6 H37 Ga15 N2 O84 P20 2-)n'
_symmetry_cell_setting           trigonal
_symmetry_space_group_name_H-M   'P -3'
_symmetry_Int_Tables_number      147
_space_group_name_Hall           '-P 3'
loop_
_symmetry_equiv_pos_site_id
_symmetry_equiv_pos_as_xyz
1 x,y,z
2 -y,x-y,z
3 -x+y,-x,z
4 -x,-y,-z
5 y,-x+y,-z
6 x-y,x,-z
_cell_length_a                   19.046(3)
_cell_length_b                   19.046(3)
_cell_length_c                   8.3306(17)
_cell_angle_alpha                90
_cell_angle_beta                 90
_cell_angle_gamma                120
_cell_volume                     2617.06
loop_
_atom_site_label
_atom_site_type_symbol
_atom_site_fract_x
_atom_site_fract_y
_atom_site_fract_z
O16 O 0.0000 0.0000 -1.1026(16)
O16C O 0.0000 0.0000 -0.8974(16)
N1 N -0.3601 0.0582 -1.3474(16)
H8 H -0.4001 0.0574 -1.4085
C1 C -0.3423(13) -0.005(2) -1.427(5)
H9 H -0.2924 0.0003 -1.3841
H10 H -0.3860 -0.0597 -1.4031
C2 C -0.388(4) 0.046(4) -1.199(8)
H11 H -0.4347 -0.0075 -1.1908
H12 H -0.4043 0.0853 -1.1734
H13 H -0.3472 0.0514 -1.1260
C3 C -0.278(3) 0.153(3) -1.375(6)
H14 H -0.2892 0.1924 -1.3269
H15 H -0.2688 0.1638 -1.4878
H16 H -0.2315 0.1559 -1.3256
C4 C -0.3355(19) 0.006(2) -1.588(4)
C5 C -0.428(2) -0.148(2) -1.633(5)
C6 C -0.426(3) -0.042(3) -1.802(6)
N2 N -0.4173(19) -0.0623(18) -1.655(4)
Ga1 Ga 0.6667 0.3333 -0.51622(15)
Ga2 Ga 0.73698(4) 0.26313(4) -0.87410(11)
Ga3 Ga 0.81344(5) 0.00000(5) -1.0000(2)
Ga4 Ga 1.0000 0.0000 -0.5000
P1 P 0.82167(15) -0.0892(2) -0.6815(7)
P2 P 0.83171(11) 0.16840(12) -0.8992(5)
H1 H 0.840(5) 0.184(5) -0.743(3)
P3 P 0.6667 0.3333 -1.1172(3)
P4 P 0.58257(10) 0.16498(10) -0.6682(2)
O1 O 0.7762(7) -0.1127(13) -0.506(3)
H3 H 0.7647 -0.0727 -0.4285
O2 O 0.9115(7) -0.0450(11) -0.652(2)
O3 O 0.7968(6) -0.0356(5) -0.7713(15)
O4 O 0.7967(5) -0.1670(5) -0.7721(14)
O5 O 0.7082(6) 0.2894(6) -1.0608(10)
O6 O 0.7863(4) 0.0820(4) -0.9519(14)
O7 O 0.9187(5) 0.2141(5) -0.9464(10)
O8 O 0.5403(3) 0.0802(3) -0.6042(8)
O9 O 0.6531(4) 0.1785(4) -0.7720(12)
O10 O 0.6110(6) 0.2243(4) -0.5263(8)
O11 O 0.5262(4) 0.1788(4) -0.7715(13)
O12 O 0.6667 0.3333 -0.7713(8)
O13 O 0.6667 0.3333 -1.2957(11)
O14 O 0.7883(3) 0.2119(3) -0.9595(8)
O15 O 0.8529(3) -0.0733(3) -1.0524(12)
H4 H 0.9042(16) -0.050(7) -1.062(16)
Ga1E Ga 0.3334 -0.3333 -1.48378(15)
Ga1_2 Ga 0.6667 0.3333 -1.51622(15)
Ga1E_2 Ga 0.3334 -0.3333 -0.48378(15)
Ga1A Ga 0.6667 -0.6666 -0.51622(15)
Ga2E Ga 0.47385(6) -0.26302(4) -1.12590(11)
Ga2A Ga 0.73687(4) -0.52615(6) -0.87410(11)
Ga2C Ga 1.26302(4) -0.26313(4) -1.12590(11)
Ga2B Ga 1.52615(6) 0.26302(4) -0.87410(11)
Ga2D Ga 1.26313(4) 0.52615(6) -1.12590(11)
Ga2B_2 Ga 0.52615(6) 0.26302(4) -0.87410(11)
Ga2A_2 Ga 0.73687(4) 0.47385(6) -0.87410(11)
Ga2D_2 Ga 0.26313(4) -0.47385(6) -1.12590(11)
Ga2C_2 Ga 0.26302(4) -0.26313(4) -1.12590(11)
Ga2_2 Ga 0.73698(4) -0.73687(4) -0.87410(11)
Ga2B_3 Ga 0.52615(6) -0.73698(4) -0.87410(11)
Ga3A Ga 1.00000(5) -0.18656(7) -1.0000(2)
Ga3B Ga 1.18656(7) 0.18656(5) -1.0000(2)
Ga3C Ga 1.18656(5) 0.00000(5) 0.0000(2)
Ga3D Ga 1.00000(5) 0.18656(7) 0.0000(2)
Ga3E Ga 0.81344(7) -0.18656(5) 0.0000(2)
Ga3E_2 Ga 0.81344(7) -0.18656(5) -1.0000(2)
Ga3D_2 Ga 1.00000(5) 0.18656(7) -1.0000(2)
Ga3C_2 Ga 1.18656(5) 0.00000(5) -1.0000(2)
Ga3B_2 Ga 1.18656(7) 0.18656(5) 0.0000(2)
Ga3_2 Ga 0.81344(5) 0.00000(5) 0.0000(2)
Ga3A_2 Ga 1.00000(5) -0.18656(7) 0.0000(2)
P1A P 1.0892(2) -0.08913(25) -0.6815(7)
P1B P 1.08913(25) 0.17833(15) -0.6815(7)
P1C P 1.17833(15) 0.0892(2) -0.3185(7)
P1D P 0.9108(2) 0.08913(25) -0.3185(7)
P1E P 0.91087(25) -0.17833(15) -0.3185(7)
P2E P 0.66331(16) -0.16829(11) -1.1008(5)
P2A P 0.83160(12) -0.33669(16) -0.8992(5)
P2C P 1.16829(11) -0.16840(12) -1.1008(5)
P2B P 1.33669(16) 0.16829(11) -0.8992(5)
P2D P 1.16840(12) 0.33669(16) -1.1008(5)
H1E H 0.656(7) -0.160(5) -1.257(3)
H1A H 0.816(5) -0.344(7) -0.743(3)
H1C H 1.160(5) -0.184(5) -1.257(3)
H1B H 1.344(7) 0.160(5) -0.743(3)
H1D H 1.184(5) 0.344(7) -1.257(3)
P3E P 0.3334 -0.3333 -0.8828(3)
P4A P 0.83502(10) 0.41759(14) -0.6682(2)
P4E P 0.41759(14) -0.41743(10) -1.3318(2)
P4C P 0.41743(10) -0.16498(10) -1.3318(2)
P4A_2 P 0.83502(10) -0.58241(14) -0.6682(2)
P4B P 0.58241(14) -0.58257(10) -0.6682(2)
O1A O 1.1127(13) -0.1111(15) -0.506(3)
O1B O 1.1111(15) 0.2238(7) -0.506(3)
O1C O 1.2238(7) 0.1127(13) -0.494(3)
O1D O 0.8873(13) 0.1111(15) -0.494(3)
O1E O 0.8889(15) -0.2238(7) -0.494(3)
H3A H 1.0727 -0.1626 -0.4285
H3B H 1.1626 0.2353 -0.4285
H3C H 1.2353 0.0727 -0.5715
H3D H 0.9273 0.1626 -0.5715
H3E H 0.8374 -0.2353 -0.5715
O2A O 1.0450(11) -0.0435(13) -0.652(2)
O2B O 1.0435(13) 0.0885(7) -0.652(2)
O2C O 1.0885(7) 0.0450(11) -0.348(2)
O2D O 0.9550(11) 0.0435(13) -0.348(2)
O2E O 0.9565(13) -0.0885(7) -0.348(2)
O3A O 1.0356(5) -0.1676(8) -0.7713(15)
O3B O 1.1676(8) 0.2032(6) -0.7713(15)
O3C O 1.2032(6) 0.0356(5) -0.2287(15)
O3D O 0.9644(5) 0.1676(8) -0.2287(15)
O3E O 0.8324(8) -0.2032(6) -0.2287(15)
O4A O 1.1670(5) -0.0363(7) -0.7721(14)
O4B O 1.0363(7) 0.2033(5) -0.7721(14)
O4C O 1.2033(5) 0.1670(5) -0.2279(14)
O4D O 0.8330(5) 0.0363(7) -0.2279(14)
O4E O 0.9637(7) -0.2033(5) -0.2279(14)
O4D_2 O 0.8330(5) 0.0363(7) -1.2279(14)
O4E_2 O 0.9637(7) -0.2033(5) -1.2279(14)
O4C_2 O 1.2033(5) 0.1670(5) -1.2279(14)
O4A_2 O 1.1670(5) -0.0363(7) 0.2279(14)
O4B_2 O 1.0363(7) 0.2033(5) 0.2279(14)
O4_2 O 0.7967(5) -0.1670(5) 0.2279(14)
O5A O 0.7106(6) 0.4188(8) -1.0608(10)
O5B O 0.5812(8) 0.2918(6) -1.0608(10)
O5E O 0.4188(8) -0.2918(6) -0.9392(10)
O5C O 0.2918(6) -0.2894(6) -0.9392(10)
O5D O 0.2894(6) -0.4188(8) -0.9392(10)
O5A_2 O 0.7106(6) -0.5812(8) -1.0608(10)
O5C_2 O 1.2918(6) -0.2894(6) -0.9392(10)
O5B_2 O 1.5812(8) 0.2918(6) -1.0608(10)
O5D_2 O 1.2894(6) 0.5812(8) -0.9392(10)
O6E O 0.7043(6) -0.2137(4) -1.0481(14)
O6A O 0.9180(4) -0.2957(6) -0.9519(14)
O6C O 1.2137(4) -0.0820(4) -1.0481(14)
O6B O 1.2957(6) 0.2137(4) -0.9519(14)
O6D O 1.0820(4) 0.2957(6) -1.0481(14)
O6C_2 O 1.2137(4) -0.0820(4) -0.0481(14)
O6D_2 O 1.0820(4) 0.2957(6) -0.0481(14)
O6E_2 O 0.7043(6) -0.2137(4) -0.0481(14)
O7E O 0.7046(7) -0.0813(5) -1.0536(10)
O7A O 0.7859(5) -0.2954(7) -0.9464(10)
O7C O 1.0813(5) -0.2141(5) -1.0536(10)
O7B O 1.2954(7) 0.0813(5) -0.9464(10)
O7D O 1.2141(5) 0.2954(7) -1.0536(10)
O7B_2 O 1.2954(7) 0.0813(5) 0.0536(10)
O7_2 O 0.9187(5) 0.2141(5) 0.0536(10)
O7A_2 O 0.7859(5) -0.2954(7) 0.0536(10)
O8A O 0.9198(3) 0.4601(4) -0.6042(8)
O8E O 0.4601(4) -0.4597(3) -1.3958(8)
O8C O 0.4597(3) -0.0802(3) -1.3958(8)
O8A_2 O 0.9198(3) -0.5399(4) -0.6042(8)
O8B O 0.5399(4) -0.5403(3) -0.6042(8)
O9A O 0.8215(4) 0.4746(6) -0.7720(12)
O9E O 0.4746(6) -0.3469(4) -1.2280(12)
O9C O 0.3469(4) -0.1785(4) -1.2280(12)
O9A_2 O 0.8215(4) -0.5254(6) -0.7720(12)
O9B O 0.5254(6) -0.6531(4) -0.7720(12)
O9C_2 O 1.3469(4) -0.1785(4) -1.2280(12)
O9B_2 O 1.5254(6) 0.3469(4) -0.7720(12)
O9D O 1.1785(4) 0.5254(6) -1.2280(12)
O10A O 0.7757(4) 0.3867(7) -0.5263(8)
O10E O 0.3867(7) -0.3890(6) -1.4737(8)
O10C O 0.3890(6) -0.2243(4) -1.4737(8)
O10A_2 O 0.7757(4) -0.6133(7) -0.5263(8)
O10B O 0.6133(7) -0.6110(6) -0.5263(8)
O10B_2 O 0.6133(7) 0.3890(6) -0.5263(8)
O10D O 0.2243(4) -0.3867(7) -1.4737(8)
O11A O 0.8212(4) 0.3474(6) -0.7715(13)
O11E O 0.3474(6) -0.4738(4) -1.2285(13)
O11C O 0.4738(4) -0.1788(4) -1.2285(13)
O11A_2 O 0.8212(4) -0.6526(6) -0.7715(13)
O11B O 0.6526(6) -0.5262(4) -0.7715(13)
O11D O 1.1788(4) -0.3474(6) -1.2285(13)
O11_2 O 1.5262(4) 0.1788(4) -0.7715(13)
O11E_2 O 1.3474(6) 0.5262(4) -1.2285(13)
O12E O 0.3334 -0.3333 -1.2287(8)
O13E O 0.3334 -0.3333 -0.7043(11)
O13_2 O 0.6667 0.3333 -0.2957(11)
O13E_2 O 0.3334 -0.3333 -1.7043(11)
O14E O 0.5764(4) -0.2117(3) -1.0405(8)
O14A O 0.7881(3) -0.4236(4) -0.9595(8)
O14C O 1.2117(3) -0.2119(3) -1.0405(8)
O14B O 1.4236(4) 0.2117(3) -0.9595(8)
O14D O 1.2119(3) 0.4236(4) -1.0405(8)
O15D O 0.9267(3) 0.0738(4) -0.9476(12)
O15A O 1.0733(3) -0.0738(4) -1.0524(12)
O15E O 0.9262(4) -0.1471(3) -0.9476(12)
O15B O 1.0738(4) 0.1471(3) -1.0524(12)
O15C O 1.1471(3) 0.0733(3) -0.9476(12)
O15C_2 O 1.1471(3) 0.0733(3) 0.0524(12)
O15A_2 O 1.0733(3) -0.0738(4) -0.0524(12)
O15D_2 O 0.9267(3) 0.0738(4) 0.0524(12)
O15B_2 O 1.0738(4) 0.1471(3) -0.0524(12)
O15E_2 O 0.9262(4) -0.1471(3) 0.0524(12)
O15_2 O 0.8529(3) -0.0733(3) -0.0524(12)
H4D H 0.950(7) 0.0458(72) -0.938(16)
H4A H 1.050(7) -0.0458(72) -1.062(16)
H4E H 0.9542(72) -0.0958(16) -0.938(16)
H4B H 1.0458(72) 0.0958(16) -1.062(16)
H4C H 1.0958(16) 0.050(7) -0.938(16)
H4C_2 H 1.0958(16) 0.050(7) 0.062(16)
H4A_2 H 1.050(7) -0.0458(72) -0.062(16)
H4D_2 H 0.950(7) 0.0458(72) 0.062(16)
H4B_2 H 1.0458(72) 0.0958(16) -0.062(16)
H4E_2 H 0.9542(72) -0.0958(16) 0.062(16)
H4_2 H 0.9042(16) -0.050(7) -0.062(16)
loop_
_geom_bond_atom_site_label_1
_geom_bond_atom_site_label_2
_geom_bond_site_symmetry_1
_geom_bond_site_symmetry_2
Ga1 O10 1_555 1_555
Ga2 O5 1_555 1_555
Ga3 O3 1_555 1_555
Ga4 O2 1_555 1_555
P1 O1 1_555 1_555
P2 H1 1_555 1_555
P3 O5 1_555 1_555
P4 O8 1_555 1_555
O1 H3 1_555 1_555
O2 P1 1_555 1_555
O3 P1 1_555 1_555
O4 P1 1_555 1_555
O6 Ga3 1_555 1_555
O7 P2 1_555 1_555
O9 Ga2 1_555 1_555
O10 P4 1_555 1_555
O11 P4 1_555 1_555
O12 Ga1 1_555 1_555
O13 P3 1_555 1_555
O14 Ga2 1_555 1_555
O15 Ga3 1_555 1_555
H4 O15 1_555 1_555
O16 O16C 1_555 1_555
N1 H8 1_555 1_555
C1 N1 1_555 1_555
H9 C1 1_555 1_555
H10 C1 1_555 1_555
C2 N1 1_555 1_555
H11 C2 1_555 1_555
H12 C2 1_555 1_555
H13 C2 1_555 1_555
C3 N1 1_555 1_555
H14 C3 1_555 1_555
H15 C3 1_555 1_555
H16 C3 1_555 1_555
C4 C1 1_555 1_555
C5 N2 1_555 1_555
C6 N2 1_555 1_555
N2 C4 1_555 1_555
Ga1E O10E 1_555 1_555
Ga1_2 O13 1_555 1_555
Ga1E_2 O13E 1_555 1_555
Ga1A O10A_2 1_555 1_555
Ga2E O5E 1_555 1_555
Ga2A O5A_2 1_555 1_555
Ga2C O5C_2 1_555 1_555
Ga2B O5B_2 1_555 1_555
Ga2D O5D_2 1_555 1_555
Ga2B_2 O11 1_555 1_555
Ga2A_2 O5A 1_555 1_555
Ga2D_2 O5D 1_555 1_555
Ga2C_2 O5C 1_555 1_555
Ga2_2 O11A_2 1_555 1_555
Ga2B_3 O9B 1_555 1_555
Ga3A O3A 1_555 1_555
Ga3B O3B 1_555 1_555
Ga3C O3C 1_555 1_555
Ga3D O3D 1_555 1_555
Ga3E O3E 1_555 1_555
Ga3E_2 O4 1_555 1_555
Ga3D_2 O7 1_555 1_555
Ga3C_2 O4A 1_555 1_555
Ga3B_2 O4C 1_555 1_555
Ga3_2 O4D 1_555 1_555
Ga3A_2 O4E 1_555 1_555
P1A O1A 1_555 1_555
P1B O1B 1_555 1_555
P1C O1C 1_555 1_555
P1D O1D 1_555 1_555
P1E O1E 1_555 1_555
P2E H1E 1_555 1_555
P2A H1A 1_555 1_555
P2C H1C 1_555 1_555
P2B H1B 1_555 1_555
P2D H1D 1_555 1_555
P3E O5E 1_555 1_555
P4A O8A 1_555 1_555
P4E O8E 1_555 1_555
P4C O8C 1_555 1_555
P4A_2 O8A_2 1_555 1_555
P4B O8B 1_555 1_555
O1A H3A 1_555 1_555
O1B H3B 1_555 1_555
O1C H3C 1_555 1_555
O1D H3D 1_555 1_555
O1E H3E 1_555 1_555
O2A Ga4 1_555 1_555
O2B Ga4 1_555 1_555
O2C Ga4 1_555 1_555
O2D Ga4 1_555 1_555
O2E Ga4 1_555 1_555
O3A P1A 1_555 1_555
O3B P1B 1_555 1_555
O3C P1C 1_555 1_555
O3D P1D 1_555 1_555
O3E P1E 1_555 1_555
O4A P1A 1_555 1_555
O4B Ga3D_2 1_555 1_555
O4C P1C 1_555 1_555
O4D P1D 1_555 1_555
O4E P1E 1_555 1_555
O4D_2 Ga3 1_555 1_555
O4E_2 Ga3A 1_555 1_555
O4C_2 Ga3B 1_555 1_555
O4A_2 Ga3C 1_555 1_555
O4B_2 Ga3D 1_555 1_555
O4_2 Ga3E 1_555 1_555
O5A P3 1_555 1_555
O5B P3 1_555 1_555
O5C P3E 1_555 1_555
O5D P3E 1_555 1_555
O6E Ga3E_2 1_555 1_555
O6A Ga3A 1_555 1_555
O6C Ga3C_2 1_555 1_555
O6B Ga3B 1_555 1_555
O6D Ga3D_2 1_555 1_555
O6C_2 Ga3C 1_555 1_555
O6D_2 Ga3D 1_555 1_555
O6E_2 Ga3E 1_555 1_555
O7E Ga3 1_555 1_555
O7A Ga3E_2 1_555 1_555
O7C Ga3A 1_555 1_555
O7B Ga3C_2 1_555 1_555
O7D Ga3B 1_555 1_555
O7B_2 Ga3C 1_555 1_555
O7_2 Ga3D 1_555 1_555
O7A_2 Ga3E 1_555 1_555
O9A Ga2A_2 1_555 1_555
O9E Ga2E 1_555 1_555
O9C Ga2C_2 1_555 1_555
O9A_2 Ga2A 1_555 1_555
O9B P4B 1_555 1_555
O9C_2 Ga2C 1_555 1_555
O9B_2 Ga2B 1_555 1_555
O9D Ga2D 1_555 1_555
O10A Ga1 1_555 1_555
O10E P4E 1_555 1_555
O10C Ga1E 1_555 1_555
O10A_2 P4A_2 1_555 1_555
O10B Ga1A 1_555 1_555
O10B_2 Ga1 1_555 1_555
O10D Ga1E 1_555 1_555
O11A Ga2 1_555 1_555
O11E Ga2D_2 1_555 1_555
O11C Ga2E 1_555 1_555
O11A_2 P4A_2 1_555 1_555
O11B Ga2A 1_555 1_555
O11D Ga2C 1_555 1_555
O11_2 Ga2B 1_555 1_555
O11E_2 Ga2D 1_555 1_555
O12E Ga1E 1_555 1_555
O13E P3E 1_555 1_555
O13_2 Ga1 1_555 1_555
O13E_2 Ga1E 1_555 1_555
O14E Ga2E 1_555 1_555
O14A Ga2A 1_555 1_555
O14C Ga2C 1_555 1_555
O14B Ga2B 1_555 1_555
O14D Ga2D 1_555 1_555
O15D Ga3 1_555 1_555
O15A Ga3A 1_555 1_555
O15E Ga3A 1_555 1_555
O15B Ga3B 1_555 1_555
O15C Ga3B 1_555 1_555
O15C_2 Ga3C 1_555 1_555
O15A_2 Ga3C 1_555 1_555
O15D_2 Ga3D 1_555 1_555
O15B_2 Ga3D 1_555 1_555
O15E_2 Ga3E 1_555 1_555
O15_2 Ga3E 1_555 1_555
H4D O15D 1_555 1_555
H4A O15A 1_555 1_555
H4E O15E 1_555 1_555
H4B O15B 1_555 1_555
H4C O15C 1_555 1_555
H4C_2 O15C_2 1_555 1_555
H4A_2 O15A_2 1_555 1_555
H4D_2 O15D_2 1_555 1_555
H4B_2 O15B_2 1_555 1_555
H4E_2 O15E_2 1_555 1_555
H4_2 O15_2 1_555 1_555
P2 O6 1_555 1_555
P2 O14 1_555 1_555
P4 O9 1_555 1_555
O15 Ga3E_2 1_555 1_555
Ga2B_2 O5B 1_555 1_555
Ga3E_2 O15E 1_555 1_555
Ga3D_2 O15D 1_555 1_555
Ga3D_2 O15B 1_555 1_555
Ga3C_2 O15A 1_555 1_555
Ga3C_2 O15C 1_555 1_555
Ga3B_2 O15C_2 1_555 1_555
Ga3B_2 O15B_2 1_555 1_555
Ga3_2 O15D_2 1_555 1_555
Ga3_2 O15_2 1_555 1_555
Ga3A_2 O15A_2 1_555 1_555
Ga3A_2 O15E_2 1_555 1_555
P1A O2A 1_555 1_555
P1B O2B 1_555 1_555
P1B O4B 1_555 1_555
P1C O2C 1_555 1_555
P1D O2D 1_555 1_555
P1E O2E 1_555 1_555
P2E O6E 1_555 1_555
P2E O7E 1_555 1_555
P2E O14E 1_555 1_555
P2A O6A 1_555 1_555
P2A O7A 1_555 1_555
P2A O14A 1_555 1_555
P2C O6C 1_555 1_555
P2C O7C 1_555 1_555
P2C O14C 1_555 1_555
P2B O6B 1_555 1_555
P2B O7B 1_555 1_555
P2B O14B 1_555 1_555
P2D O6D 1_555 1_555
P2D O7D 1_555 1_555
P2D O14D 1_555 1_555
P4A O9A 1_555 1_555
P4A O10A 1_555 1_555
P4A O11A 1_555 1_555
P4E O9E 1_555 1_555
P4E O11E 1_555 1_555
P4C O9C 1_555 1_555
P4C O10C 1_555 1_555
P4C O11C 1_555 1_555
P4A_2 O9A_2 1_555 1_555
P4B O10B 1_555 1_555
P4B O11B 1_555 1_555

#END
