
#######################################################################
#
#                 Cambridge Crystallographic Data Centre
#                                CCDC 
#
#######################################################################
#
# If this CIF has been generated from an entry in the Cambridge 
# Structural Database, then it will include bibliographic, chemical, 
# crystal, experimental, refinement or atomic coordinate data resulting 
# from the CCDC's data processing and validation procedures.
#
#######################################################################

data_PAMHIW
_chemical_formula_moiety         '(C14 H10 Cu1 N2 O4)n'
_symmetry_cell_setting           rhombohedral
_symmetry_space_group_name_H-M   'R -3 c'
_symmetry_Int_Tables_number      167
_space_group_name_Hall           '-R 3 2"c'
loop_
_symmetry_equiv_pos_site_id
_symmetry_equiv_pos_as_xyz
1 x,y,z
2 -y,x-y,z
3 -x+y,-x,z
4 y,x,1/2-z
5 x-y,-y,1/2-z
6 -x,-x+y,1/2-z
7 2/3+x,1/3+y,1/3+z
8 2/3-y,1/3+x-y,1/3+z
9 2/3-x+y,1/3-x,1/3+z
10 2/3+y,1/3+x,5/6-z
11 2/3+x-y,1/3-y,5/6-z
12 2/3-x,1/3-x+y,5/6-z
13 1/3+x,2/3+y,2/3+z
14 1/3-y,2/3+x-y,2/3+z
15 1/3-x+y,2/3-x,2/3+z
16 1/3+y,2/3+x,1/6-z
17 1/3+x-y,2/3-y,1/6-z
18 1/3-x,2/3-x+y,1/6-z
19 -x,-y,-z
20 y,-x+y,-z
21 x-y,x,-z
22 -y,-x,1/2+z
23 -x+y,y,1/2+z
24 x,x-y,1/2+z
25 1/3-x,2/3-y,2/3-z
26 1/3+y,2/3-x+y,2/3-z
27 1/3+x-y,2/3+x,2/3-z
28 1/3-y,2/3-x,1/6+z
29 1/3-x+y,2/3+y,1/6+z
30 1/3+x,2/3+x-y,1/6+z
31 2/3-x,1/3-y,1/3-z
32 2/3+y,1/3-x+y,1/3-z
33 2/3+x-y,1/3+x,1/3-z
34 2/3-y,1/3-x,5/6+z
35 2/3-x+y,1/3+y,5/6+z
36 2/3+x,1/3+x-y,5/6+z
_cell_length_a                   18.621(3)
_cell_length_b                   18.621(3)
_cell_length_c                   69.793(14)
_cell_angle_alpha                90
_cell_angle_beta                 90
_cell_angle_gamma                120
_cell_volume                     20957.9
loop_
_atom_site_label
_atom_site_type_symbol
_atom_site_fract_x
_atom_site_fract_y
_atom_site_fract_z
Cu1 Cu 1.17582(3) 0.38052(2) 0.067821(5)
O1 O 1.13686(16) 0.44606(14) 0.08092(3)
O2 O 1.09462(19) 0.36677(15) 0.10734(4)
O3 O 1.16107(17) 0.71905(15) 0.08194(4)
O4 O 1.1218(2) 0.75986(17) 0.10807(4)
N1 N 0.88464(17) 0.4629(2) 0.20809(4)
C1 C 1.1080(2) 0.42944(19) 0.09792(5)
C2 C 1.0878(2) 0.4900(2) 0.10696(5)
C3 C 1.1159(2) 0.5671(2) 0.09837(5)
H1 H 1.1456 0.5803 0.0866
C4 C 1.0997(2) 0.6246(2) 0.10722(5)
C5 C 1.0544(3) 0.6039(3) 0.12426(6)
H2 H 1.0444 0.6437 0.1304
C6 C 1.0238(3) 0.5258(3) 0.13244(7)
C7 C 1.0420(3) 0.4697(3) 0.12386(6)
H3 H 1.0230 0.4169 0.1296
C8 C 1.1303(2) 0.7072(2) 0.09842(5)
N2 N 0.9763(4) 0.5060(3) 0.14915(8)
H4 H 0.9762 0.5473 0.1553
C9 C 0.9318(6) 0.4317(6) 0.15665(11)
H5 H 0.9685 0.4102 0.1607
H6 H 0.8923 0.3933 0.1470
C10 C 0.8846(6) 0.4365(6) 0.17384(12)
C11 C 0.9196(5) 0.4474(5) 0.19185(10)
H7 H 0.9687 0.4442 0.1933
C12 C 0.814(2) 0.437(3) 0.1721(4)
H8 H 0.7885 0.4261 0.1599
C13 C 0.7706(4) 0.4533(6) 0.18979(10)
H9 H 0.7243 0.4615 0.1888
C14 C 0.8093(3) 0.4544(4) 0.20687(7)
H10 H 0.7801 0.4487 0.2185
Cu1P Cu 1.12863(4) 0.28615(2) 0.098846(5)
Cu1B Cu 1.20470(4) 0.82418(3) 0.067821(5)
Cu1Q Cu 1.15751(3) 0.87137(4) 0.098846(5)
Cu1AA Cu 0.95281(2) 0.49085(3) 0.234488(5)
O2P O 1.06118(24) 0.29990(15) 0.05933(4)
O3A O 1.28095(15) 0.44202(23) 0.08194(4)
O4Q O 1.2115(2) 0.30473(26) 0.05860(4)
N1GA N 1.2038(2) 0.44869(17) 0.04142(4)
loop_
_geom_bond_atom_site_label_1
_geom_bond_atom_site_label_2
_geom_bond_site_symmetry_1
_geom_bond_site_symmetry_2
Cu1 O1 1_555 1_555
O1 C1 1_555 1_555
O2 C1 1_555 1_555
O3 C8 1_555 1_555
O4 C8 1_555 1_555
N1 C11 1_555 1_555
C1 C2 1_555 1_555
C2 C3 1_555 1_555
C3 H1 1_555 1_555
C4 C3 1_555 1_555
C5 C4 1_555 1_555
H2 C5 1_555 1_555
C6 C5 1_555 1_555
C7 C2 1_555 1_555
H3 C7 1_555 1_555
C8 C4 1_555 1_555
N2 C6 1_555 1_555
H4 N2 1_555 1_555
C9 N2 1_555 1_555
H5 C9 1_555 1_555
H6 C9 1_555 1_555
C10 C9 1_555 1_555
C11 C10 1_555 1_555
H7 C11 1_555 1_555
C12 C10 1_555 1_555
H8 C12 1_555 1_555
C13 C12 1_555 1_555
H9 C13 1_555 1_555
C14 N1 1_555 1_555
H10 C14 1_555 1_555
Cu1P Cu1 1_555 1_555
Cu1B O3 1_555 1_555
Cu1Q O4 1_555 1_555
Cu1AA N1 1_555 1_555
O2P Cu1 1_555 1_555
O3A Cu1 1_555 1_555
O4Q Cu1 1_555 1_555
N1GA Cu1 1_555 1_555
O2 Cu1P 1_555 1_555
C6 C7 1_555 1_555
C13 C14 1_555 1_555
Cu1B Cu1Q 1_555 1_555

#END
