
#######################################################################
#
#                 Cambridge Crystallographic Data Centre
#                                CCDC 
#
#######################################################################
#
# If this CIF has been generated from an entry in the Cambridge 
# Structural Database, then it will include bibliographic, chemical, 
# crystal, experimental, refinement or atomic coordinate data resulting 
# from the CCDC's data processing and validation procedures.
#
#######################################################################

data_VIXTUT
_chemical_formula_moiety         '(C16 H22 N2 O7 Zn1)n'
_symmetry_cell_setting           monoclinic
_symmetry_space_group_name_H-M   'P 21/n'
_symmetry_Int_Tables_number      14
_space_group_name_Hall           '-P 2yn'
loop_
_symmetry_equiv_pos_site_id
_symmetry_equiv_pos_as_xyz
1 x,y,z
2 1/2-x,1/2+y,1/2-z
3 -x,-y,-z
4 1/2+x,1/2-y,1/2+z
_cell_length_a                   10.895(2)
_cell_length_b                   13.052(3)
_cell_length_c                   13.536(3)
_cell_angle_alpha                90
_cell_angle_beta                 95.74(3)
_cell_angle_gamma                90
_cell_volume                     1915.19
loop_
_atom_site_label
_atom_site_type_symbol
_atom_site_fract_x
_atom_site_fract_y
_atom_site_fract_z
Zn1 Zn 0.70101(2) 1.119754(16) 0.172661(15)
O1 O 0.55348(14) 1.18921(11) 0.10485(10)
O2 O 0.69802(14) 1.24314(12) 0.01614(11)
O3 O 0.28733(14) 1.27399(11) -0.24516(11)
O4 O 0.39965(15) 1.41014(12) -0.20400(12)
N1 N 0.60439(16) 1.02958(12) 0.26353(12)
N2 N 0.27946(15) 0.48666(13) 0.58858(12)
C1 C 0.5897(2) 1.24413(16) 0.03526(14)
C2 C 0.4959(2) 1.30787(18) -0.02553(15)
H1 H 0.5318 1.3754 -0.0396
H2 H 0.4234 1.3194 0.0118
C3 C 0.4561(2) 1.25288(17) -0.12227(17)
H3 H 0.5306 1.2315 -0.1533
H4 H 0.4101 1.1902 -0.1076
C4 C 0.3766(2) 1.31755(17) -0.19480(15)
C5 C 0.6538(2) 0.99447(18) 0.35139(16)
H5 H 0.7355 1.0144 0.3747
C6 C 0.5908(3) 0.9306(2) 0.40928(18)
H6 H 0.6290 0.9080 0.4716
C7 C 0.4735(2) 0.89935(16) 0.37807(18)
C8 C 0.4221(2) 0.93656(18) 0.28777(18)
H7 H 0.3406 0.9175 0.2631
C9 C 0.4890(2) 1.00106(17) 0.23393(17)
H8 H 0.4514 1.0267 0.1725
C10 C 0.4081(3) 0.82414(18) 0.4377(2)
H9 H 0.3182 0.8280 0.4178
H10 H 0.4226 0.8421 0.5089
C11 C 0.4525(2) 0.71642(18) 0.42235(18)
H11 H 0.4380 0.6994 0.3509
H12 H 0.5425 0.7136 0.4414
C12 C 0.3908(2) 0.63674(16) 0.48053(17)
C13 C 0.3385(3) 0.55091(18) 0.43577(16)
H13 H 0.3398 0.5417 0.3663
C14 C 0.2842(2) 0.47817(18) 0.49037(16)
H14 H 0.2486 0.4195 0.4572
C15 C 0.3308(2) 0.57013(17) 0.63185(16)
H15 H 0.3286 0.5779 0.7014
C16 C 0.3864(2) 0.64511(18) 0.58163(17)
H16 H 0.4220 0.7029 0.6163
Zn1C Zn 0.20101(2) 0.380246(16) 0.672661(15)
Zn1C_2 Zn 0.20101(2) 1.380246(16) -0.327339(15)
O3C O 0.78733(14) 1.22601(11) 0.25484(11)
N2C N 0.77946(15) 1.01334(13) 0.08858(12)
O5 O 0.12816(17) 0.99541(14) 0.31756(17)
H17 H 0.0540(10) 1.019(2) 0.315(2)
H18 H 0.130(3) 0.9304(4) 0.308(2)
O6 O 0.7827(2) 0.33444(16) 0.85135(15)
H19 H 0.749(3) 0.305(2) 0.8986(16)
H20 H 0.745(3) 0.3917(13) 0.840(2)
O7 O 0.3767(2) 0.28627(15) 0.21304(17)
H21 H 0.354(3) 0.252(2) 0.2624(16)
H22 H 0.430(2) 0.253(2) 0.183(2)
loop_
_geom_bond_atom_site_label_1
_geom_bond_atom_site_label_2
_geom_bond_site_symmetry_1
_geom_bond_site_symmetry_2
Zn1 O1 1_555 1_555
O1 C1 1_555 1_555
O2 C1 1_555 1_555
O3 C4 1_555 1_555
O4 C4 1_555 1_555
N1 Zn1 1_555 1_555
N2 C14 1_555 1_555
C1 C2 1_555 1_555
C2 H1 1_555 1_555
H2 C2 1_555 1_555
C3 C2 1_555 1_555
H3 C3 1_555 1_555
H4 C3 1_555 1_555
C4 C3 1_555 1_555
C5 N1 1_555 1_555
H5 C5 1_555 1_555
C6 C5 1_555 1_555
H6 C6 1_555 1_555
C7 C6 1_555 1_555
C8 C7 1_555 1_555
H7 C8 1_555 1_555
C9 N1 1_555 1_555
H8 C9 1_555 1_555
C10 C7 1_555 1_555
H9 C10 1_555 1_555
H10 C10 1_555 1_555
C11 C10 1_555 1_555
H11 C11 1_555 1_555
H12 C11 1_555 1_555
C12 C11 1_555 1_555
C13 C12 1_555 1_555
H13 C13 1_555 1_555
C14 C13 1_555 1_555
H14 C14 1_555 1_555
C15 N2 1_555 1_555
H15 C15 1_555 1_555
C16 C12 1_555 1_555
H16 C16 1_555 1_555
O5 H17 1_555 1_555
H18 O5 1_555 1_555
O6 H19 1_555 1_555
H20 O6 1_555 1_555
O7 H21 1_555 1_555
H22 O7 1_555 1_555
Zn1C N2 1_555 1_555
Zn1C_2 O3 1_555 1_555
O3C Zn1 1_555 1_555
N2C Zn1 1_555 1_555
C8 C9 1_555 1_555
C15 C16 1_555 1_555

#END
