
#######################################################################
#
#                 Cambridge Crystallographic Data Centre
#                                CCDC 
#
#######################################################################
#
# If this CIF has been generated from an entry in the Cambridge 
# Structural Database, then it will include bibliographic, chemical, 
# crystal, experimental, refinement or atomic coordinate data resulting 
# from the CCDC's data processing and validation procedures.
#
#######################################################################

data_QERZUI01
_chemical_formula_moiety         '(C14 H14 Cu1 N2 O5)n'
_symmetry_cell_setting           monoclinic
_symmetry_space_group_name_H-M   'C c'
_symmetry_Int_Tables_number      9
_space_group_name_Hall           'C -2yc'
loop_
_symmetry_equiv_pos_site_id
_symmetry_equiv_pos_as_xyz
1 x,y,z
2 x,-y,1/2+z
3 1/2+x,1/2+y,z
4 1/2+x,1/2-y,1/2+z
_cell_length_a                   5.1186(3)
_cell_length_b                   24.6268(13)
_cell_length_c                   11.3254(6)
_cell_angle_alpha                90
_cell_angle_beta                 100.021(1)
_cell_angle_gamma                90
_cell_volume                     1405.84
loop_
_atom_site_label
_atom_site_type_symbol
_atom_site_fract_x
_atom_site_fract_y
_atom_site_fract_z
Cu1 Cu 0.05733(4) 0.112972(9) 0.78349(3)
O1 O -0.1311(5) 0.17175(11) 0.6831(2)
O2 O 0.1840(5) 0.16005(9) 0.5723(3)
O3 O 0.2962(4) 0.05916(8) 0.8739(2)
O4 O 0.6901(4) 0.09977(8) 0.8763(2)
N1 N -0.2941(5) 0.32623(12) 0.3935(3)
N2 N 0.8959(5) -0.05543(11) 1.1661(2)
C1 C -0.4011(7) 0.31063(14) 0.4868(3)
H1 H -0.5411 0.3314 0.5070
C2 C -0.3171(7) 0.26532(13) 0.5559(4)
H2 H -0.3966 0.2561 0.6220
C3 C -0.1142(6) 0.23401(13) 0.5259(3)
C4 C -0.0019(5) 0.24992(11) 0.4279(3)
H3 H 0.1371 0.2296 0.4056
C5 C -0.0949(5) 0.29567(11) 0.3635(3)
H4 H -0.0183 0.3059 0.2972
C6 C -0.0102(6) 0.18417(13) 0.5981(3)
C7 C 0.6582(6) -0.06380(10) 1.0981(3)
H5 H 0.5687 -0.0964 1.1078
C8 C 0.5380(6) -0.02665(11) 1.0141(3)
H6 H 0.3692 -0.0338 0.9692
C9 C 0.6695(5) 0.02149(11) 0.9966(3)
C10 C 0.9173(5) 0.02991(11) 1.0663(3)
H7 H 1.0132 0.0617 1.0565
C11 C 1.0220(5) -0.00834(11) 1.1497(3)
H8 H 1.1882 -0.0015 1.1975
C12 C 0.5471(5) 0.06395(10) 0.9084(3)
O4_2 O -0.3099(4) 0.09977(8) 0.8763(2)
N1C N 0.2059(5) 0.17377(12) 0.8935(3)
N2A N -0.1041(5) 0.05543(11) 0.6661(2)
Cu1_2 Cu 1.05733(4) 0.112972(9) 0.78349(3)
Cu1C Cu -0.44267(4) 0.387028(9) 0.28349(3)
Cu1A Cu 1.05733(4) -0.112972(9) 1.28349(3)
O5 O 0.7388(8) 0.37413(18) 0.8382(5)
H9 H 0.7118 0.3624 0.9151
C13 C 0.9914(17) 0.3531(5) 0.8147(9)
H10 H 0.9698 0.3161 0.7879
H11 H 1.1205 0.3538 0.8871
C14 C 1.086(3) 0.3871(5) 0.7206(16)
H12 H 1.2522 0.3731 0.7054
H13 H 0.9573 0.3859 0.6480
H14 H 1.1093 0.4239 0.7481
loop_
_geom_bond_atom_site_label_1
_geom_bond_atom_site_label_2
_geom_bond_site_symmetry_1
_geom_bond_site_symmetry_2
Cu1 O1 1_555 1_555
O1 C6 1_555 1_555
O2 C6 1_555 1_555
O3 Cu1 1_555 1_555
O4 C12 1_555 1_555
N1 C1 1_555 1_555
N2 C7 1_555 1_555
C1 H1 1_555 1_555
C2 C1 1_555 1_555
H2 C2 1_555 1_555
C3 C2 1_555 1_555
C4 C3 1_555 1_555
H3 C4 1_555 1_555
C5 N1 1_555 1_555
H4 C5 1_555 1_555
C6 C3 1_555 1_555
C7 H5 1_555 1_555
C8 C7 1_555 1_555
H6 C8 1_555 1_555
C9 C8 1_555 1_555
C10 C9 1_555 1_555
H7 C10 1_555 1_555
C11 N2 1_555 1_555
H8 C11 1_555 1_555
C12 O3 1_555 1_555
O5 H9 1_555 1_555
C13 O5 1_555 1_555
H10 C13 1_555 1_555
H11 C13 1_555 1_555
C14 C13 1_555 1_555
H12 C14 1_555 1_555
H13 C14 1_555 1_555
H14 C14 1_555 1_555
O4_2 Cu1 1_555 1_555
N1C Cu1 1_555 1_555
N2A Cu1 1_555 1_555
Cu1_2 O4 1_555 1_555
Cu1C N1 1_555 1_555
Cu1A N2 1_555 1_555
C4 C5 1_555 1_555
C9 C12 1_555 1_555
C10 C11 1_555 1_555

#END
