
#######################################################################
#
#                 Cambridge Crystallographic Data Centre
#                                CCDC 
#
#######################################################################
#
# If this CIF has been generated from an entry in the Cambridge 
# Structural Database, then it will include bibliographic, chemical, 
# crystal, experimental, refinement or atomic coordinate data resulting 
# from the CCDC's data processing and validation procedures.
#
#######################################################################

data_GISZUD
_chemical_formula_moiety         'C10 H6 Cd1 O2'
_symmetry_cell_setting           orthorhombic
_symmetry_space_group_name_H-M   'P n m a'
_symmetry_Int_Tables_number      62
_space_group_name_Hall           '-P 2ac 2n'
loop_
_symmetry_equiv_pos_site_id
_symmetry_equiv_pos_as_xyz
1 x,y,z
2 1/2-x,-y,1/2+z
3 1/2+x,1/2-y,1/2-z
4 -x,1/2+y,-z
5 -x,-y,-z
6 1/2+x,y,1/2-z
7 1/2-x,1/2+y,1/2+z
8 x,1/2-y,z
_cell_length_a                   8.497(4)
_cell_length_b                   9.167(4)
_cell_length_c                   12.570(4)
_cell_angle_alpha                90
_cell_angle_beta                 90
_cell_angle_gamma                90
_cell_volume                     979.102
loop_
_atom_site_label
_atom_site_type_symbol
_atom_site_fract_x
_atom_site_fract_y
_atom_site_fract_z
O1 O 0.3231(15) 0.2500 0.4517(11)
O2 O 0.5272(33) 0.2500 0.4125(17)
C4 C 0.4156(32) 0.2500 0.3691(18)
C5 C 0.3432(47) 0.2500 0.2661(20)
C6 C 0.6008(27) 0.2500 0.5119(25)
Cd1 Cd 0.5936(1) 0.2500 0.8956(1)
C1 C 0.5185(8) 0.4453(8) 0.9790(5)
C2 C 0.3866(11) 0.2500 0.7785(9)
C3 C 0.7864(13) 0.2500 0.7820(7)
C1G C 0.5185(8) 0.0547(8) 0.9790(5)
C1D C 0.4815(8) 0.5547(8) 1.0210(5)
C3B C 0.2864(13) 0.2500 0.7180(7)
C2B C 0.8866(11) 0.2500 0.7215(9)
loop_
_geom_bond_atom_site_label_1
_geom_bond_atom_site_label_2
_geom_bond_site_symmetry_1
_geom_bond_site_symmetry_2
Cd1 C1 1_555 1_555
C1 C1D 1_555 1_555
C2 Cd1 1_555 1_555
C3 Cd1 1_555 1_555
O1 C4 1_555 1_555
O2 C4 1_555 1_555
C4 C5 1_555 1_555
C6 O2 1_555 1_555
C1G Cd1 1_555 1_555
C3B C2 1_555 1_555
C2B C3 1_555 1_555

#END
