
#######################################################################
#
#                 Cambridge Crystallographic Data Centre
#                                CCDC 
#
#######################################################################
#
# If this CIF has been generated from an entry in the Cambridge 
# Structural Database, then it will include bibliographic, chemical, 
# crystal, experimental, refinement or atomic coordinate data resulting 
# from the CCDC's data processing and validation procedures.
#
#######################################################################

data_YUJNIB
_chemical_formula_moiety         '(C8 H20 N16 O18 Sr4)n'
_symmetry_cell_setting           monoclinic
_symmetry_space_group_name_H-M   'P 21/c'
_symmetry_Int_Tables_number      14
_space_group_name_Hall           '-P 2ybc'
loop_
_symmetry_equiv_pos_site_id
_symmetry_equiv_pos_as_xyz
1 x,y,z
2 -x,1/2+y,1/2-z
3 -x,-y,-z
4 x,1/2-y,1/2+z
_cell_length_a                   17.5090(6)
_cell_length_b                   9.2732(3)
_cell_length_c                   18.4285(7)
_cell_angle_alpha                90
_cell_angle_beta                 106.031(4)
_cell_angle_gamma                90
_cell_volume                     2875.78
loop_
_atom_site_label
_atom_site_type_symbol
_atom_site_fract_x
_atom_site_fract_y
_atom_site_fract_z
Sr1 Sr 0.13307(3) 0.66290(7) 0.32518(3)
Sr2 Sr 0.37767(3) 0.15876(7) 0.17620(4)
Sr3 Sr 0.41182(3) 0.49522(7) 0.32657(3)
Sr4 Sr -0.07572(3) 0.49752(7) 0.33674(3)
O1 O 0.0473(2) 0.4245(4) 0.2951(3)
O2 O 0.0198(2) 0.2208(4) 0.2251(3)
O3 O 0.4754(2) 0.7066(4) 0.2586(3)
O4 O 0.4581(2) 0.9180(4) 0.1973(3)
O5 O 0.4765(2) 0.3637(4) 0.4634(2)
O6 O 0.4719(2) 0.3488(4) 0.5834(2)
O7 O 0.0551(2) 0.6286(4) 0.4244(2)
O8 O 0.0404(2) 0.6622(5) 0.5403(2)
O9 O 0.11866(5) 0.95211(8) 0.31043(5)
H1 H 0.0861 0.9919 0.3346
H2 H 0.1567 0.9866 0.3207
O10 O 0.09235(5) 0.71178(8) 0.18234(5)
H3 H 0.0505 0.6666 0.1678
H4 H 0.1475 0.6799 0.1654
O11 O 0.38442(5) 0.43884(8) 0.17328(5)
H5 H 0.3428 0.5005 0.1456
H6 H 0.4126 0.4512 0.1555
O12 O -0.11176(5) 0.62062(8) 0.45094(5)
H7 H -0.0713 0.6163 0.4787
H8 H -0.1509 0.6079 0.4729
O13 O 0.39035(5) 0.20473(8) 0.31805(5)
H9 H 0.4313 0.1516 0.3496
H10 H 0.3550 0.1838 0.3328
N1 N 0.19361(5) 0.44207(8) 0.26240(5)
N2 N 0.25822(5) 0.40417(8) 0.24149(5)
N3 N 0.24592(5) 0.27388(8) 0.20849(5)
N4 N 0.17352(5) 0.22613(8) 0.20754(5)
N5 N 0.32459(5) 0.73407(8) 0.27937(5)
N6 N 0.24993(5) 0.78191(8) 0.27338(5)
N7 N 0.23705(5) 0.89665(8) 0.22955(5)
N8 N 0.30173(5) 0.92865(8) 0.20797(5)
N9 N 0.32104(5) 0.47550(8) 0.42406(5)
N10 N 0.24563(5) 0.49389(8) 0.42653(5)
N11 N 0.23732(5) 0.44502(8) 0.49046(5)
N12 N 0.30777(5) 0.39490(8) 0.53252(5)
N13 N 0.19313(5) 0.79310(8) 0.46377(5)
N14 N 0.25647(5) 0.87057(8) 0.50341(5)
N15 N 0.25197(5) 0.88554(8) 0.57304(5)
N16 N 0.18663(5) 0.81770(8) 0.57968(5)
C1 C 0.14421(5) 0.33015(8) 0.24112(5)
C2 C 0.06378(5) 0.32513(8) 0.25586(5)
C3 C 0.35431(5) 0.82549(8) 0.23984(5)
C4 C 0.43496(5) 0.81436(8) 0.23092(5)
C5 C 0.35686(5) 0.41656(8) 0.49038(5)
C6 C 0.44184(5) 0.37339(8) 0.51367(5)
C7 C 0.15353(5) 0.76308(8) 0.51282(5)
C8 C 0.07575(5) 0.67643(8) 0.49042(5)
Sr1A Sr -0.13307(3) 0.16290(7) 0.17482(3)
Sr2A Sr 0.62233(3) 0.65876(7) 0.32380(4)
Sr2_2 Sr 0.37767(3) 1.15876(7) 0.17620(4)
Sr2C Sr 0.37767(3) 0.34124(7) 0.67620(4)
Sr3A Sr 0.58818(3) 0.99522(7) 0.17343(3)
Sr3B Sr 0.58818(3) 0.50478(7) 0.67343(3)
Sr4A Sr 0.07572(3) -0.00248(7) 0.16326(3)
Sr4B Sr 0.07572(3) 0.50248(7) 0.66326(3)
Sr4A_2 Sr 0.07572(3) 0.99752(7) 0.16326(3)
O2A O -0.0198(2) 0.7208(4) 0.2749(3)
O3A O 0.5246(2) 0.2066(4) 0.2414(3)
O4_2 O 0.4581(2) -0.0820(4) 0.1973(3)
O4A O 0.5419(2) 0.4180(4) 0.3027(3)
O6C O 0.4719(2) 0.1512(4) 0.0834(2)
O6B O 0.5281(2) 0.6512(4) 0.4166(2)
O8B O -0.0404(2) 0.3378(5) 0.4597(2)
O9A O -0.11866(5) 0.45211(8) 0.18957(5)
H1A H -0.0861 0.4919 0.1654
H2A H -0.1567 0.4866 0.1793
O10A O -0.09235(5) 0.21178(8) 0.31766(5)
H3A H -0.0505 0.1666 0.3322
H4A H -0.1475 0.1799 0.3346
N4A N -0.17352(5) 0.72613(8) 0.29246(5)
N7A N -0.23705(5) 0.39665(8) 0.27045(5)
N8_2 N 0.30173(5) -0.07135(8) 0.20797(5)
N12C N 0.30777(5) 0.10510(8) 0.03252(5)
O14 O 0.26303(5) 0.11485(8) 0.39408(5)
H11 H 0.2278 0.1370 0.4199
H12 H 0.3035 0.0539 0.3957
O15 O 0.50066(5) 0.50789(8) 0.10436(5)
H13 H 0.5286 0.4556 0.0917
H14 H 0.4733 0.5479 0.0548
O16 O 0.58714(5) 0.34836(8) 0.01927(5)
H15 H 0.6371 0.3542 0.0154
H16 H 0.5715 0.2609 -0.0002
O17 O 0.02675(5) 0.02923(8) 0.40248(5)
H17 H -0.0001 -0.0435 0.4164
H18 H 0.0468 0.0438 0.4524
O18 O 0.09926(5) 0.40571(8) 0.05358(5)
H19 H 0.1405 0.4603 0.0788
H20 H 0.1151 0.3135 0.0620
loop_
_geom_bond_atom_site_label_1
_geom_bond_atom_site_label_2
_geom_bond_site_symmetry_1
_geom_bond_site_symmetry_2
Sr1 O1 1_555 1_555
Sr2 O11 1_555 1_555
Sr3 O3 1_555 1_555
Sr4 O1 1_555 1_555
O1 C2 1_555 1_555
O2 C2 1_555 1_555
O3 C4 1_555 1_555
O4 C4 1_555 1_555
O5 Sr3 1_555 1_555
O6 C6 1_555 1_555
O7 Sr1 1_555 1_555
O8 C8 1_555 1_555
O9 Sr1 1_555 1_555
H1 O9 1_555 1_555
H2 O9 1_555 1_555
O10 Sr1 1_555 1_555
H3 O10 1_555 1_555
H4 O10 1_555 1_555
O11 Sr3 1_555 1_555
H5 O11 1_555 1_555
H6 O11 1_555 1_555
O12 Sr4 1_555 1_555
H7 O12 1_555 1_555
H8 O12 1_555 1_555
O13 Sr2 1_555 1_555
H9 O13 1_555 1_555
H10 O13 1_555 1_555
N1 Sr1 1_555 1_555
N2 Sr3 1_555 1_555
N3 Sr2 1_555 1_555
N4 N3 1_555 1_555
N5 Sr3 1_555 1_555
N6 Sr1 1_555 1_555
N7 N6 1_555 1_555
N8 N7 1_555 1_555
N9 Sr3 1_555 1_555
N10 Sr1 1_555 1_555
N11 N10 1_555 1_555
N12 N11 1_555 1_555
N13 Sr1 1_555 1_555
N14 N13 1_555 1_555
N15 N14 1_555 1_555
N16 N15 1_555 1_555
C1 N1 1_555 1_555
C2 C1 1_555 1_555
C3 N5 1_555 1_555
C4 C3 1_555 1_555
C5 N9 1_555 1_555
C6 O5 1_555 1_555
C7 N13 1_555 1_555
C8 O7 1_555 1_555
O14 H11 1_555 1_555
H12 O14 1_555 1_555
O15 H13 1_555 1_555
H14 O15 1_555 1_555
O16 H15 1_555 1_555
H16 O16 1_555 1_555
O17 H17 1_555 1_555
H18 O17 1_555 1_555
O18 H19 1_555 1_555
H20 O18 1_555 1_555
Sr1A O2 1_555 1_555
Sr2A O3 1_555 1_555
Sr2_2 O4 1_555 1_555
Sr2C O6 1_555 1_555
Sr3A O4 1_555 1_555
Sr3B O6 1_555 1_555
Sr4A O2 1_555 1_555
Sr4B O8 1_555 1_555
Sr4A_2 O9 1_555 1_555
O2A Sr1 1_555 1_555
O3A Sr2 1_555 1_555
O4_2 Sr2 1_555 1_555
O4A Sr3 1_555 1_555
O6C Sr2 1_555 1_555
O6B Sr3 1_555 1_555
O8B Sr4 1_555 1_555
O9A Sr4 1_555 1_555
H1A O9A 1_555 1_555
H2A O9A 1_555 1_555
O10A Sr4 1_555 1_555
H3A O10A 1_555 1_555
H4A O10A 1_555 1_555
N4A Sr4 1_555 1_555
N7A Sr4 1_555 1_555
N8_2 Sr2 1_555 1_555
N12C Sr2 1_555 1_555
Sr3 O13 1_555 1_555
Sr4 O7 1_555 1_555
Sr4 O2A 1_555 1_555
O10 Sr4A_2 1_555 1_555
N1 N2 1_555 1_555
N2 N3 1_555 1_555
N4 C1 1_555 1_555
N4 Sr4A 1_555 1_555
N5 N6 1_555 1_555
N7 Sr4A_2 1_555 1_555
N8 C3 1_555 1_555
N8 Sr2_2 1_555 1_555
N9 N10 1_555 1_555
N12 C5 1_555 1_555
N12 Sr2C 1_555 1_555
N16 C7 1_555 1_555
C5 C6 1_555 1_555
C7 C8 1_555 1_555
Sr1A O9A 1_555 1_555
Sr1A O10A 1_555 1_555
Sr2A O4A 1_555 1_555
Sr2A O6B 1_555 1_555

#END
