
#######################################################################
#
#                 Cambridge Crystallographic Data Centre
#                                CCDC 
#
#######################################################################
#
# If this CIF has been generated from an entry in the Cambridge 
# Structural Database, then it will include bibliographic, chemical, 
# crystal, experimental, refinement or atomic coordinate data resulting 
# from the CCDC's data processing and validation procedures.
#
#######################################################################

data_FEBPUY
_chemical_formula_moiety         '(C32 H36 Cu3 N5 O22 1-)n'
_symmetry_cell_setting           orthorhombic
_symmetry_space_group_name_H-M   'P b c a'
_symmetry_Int_Tables_number      61
_space_group_name_Hall           '-P 2ac 2ab'
loop_
_symmetry_equiv_pos_site_id
_symmetry_equiv_pos_as_xyz
1 x,y,z
2 1/2-x,-y,1/2+z
3 -x,1/2+y,1/2-z
4 1/2+x,1/2-y,-z
5 -x,-y,-z
6 1/2+x,y,1/2-z
7 x,1/2-y,1/2+z
8 1/2-x,1/2+y,z
_cell_length_a                   13.6680(10)
_cell_length_b                   17.525(2)
_cell_length_c                   19.059(2)
_cell_angle_alpha                90
_cell_angle_beta                 90
_cell_angle_gamma                90
_cell_volume                     4565.23
loop_
_atom_site_label
_atom_site_type_symbol
_atom_site_fract_x
_atom_site_fract_y
_atom_site_fract_z
Cu1 Cu 0.43001(3) 0.13977(2) 0.60977(2)
Cu2 Cu 0.5000 0.0000 1.0000
O1 O 0.52401(18) 0.11773(14) 0.68530(12)
O2 O 0.5621(2) -0.00430(16) 0.66380(14)
O3 O 0.56942(18) 0.04848(15) 0.92371(12)
O4 O 0.49020(19) 0.01612(16) 0.82526(13)
O5 O 0.33732(18) 0.31384(14) 1.04337(12)
O6 O 0.3164(2) 0.21848(16) 1.11941(14)
O7 O 0.2527(2) 0.02286(16) 0.99433(15)
O8 O 0.3697(2) 0.11169(16) 0.99723(14)
O9 O 0.4228(2) 0.02821(16) 0.54687(15)
H1 H 0.3658 0.0104 0.5322
H2 H 0.4446 0.0012 0.5919
O10 O 0.4046(2) -0.04966(14) 0.93666(13)
H3 H 0.4227 -0.0297 0.8948
H4 H 0.3486 -0.0324 0.9512
N1 N 0.8196(2) 0.10564(16) 0.82728(14)
N2 N 0.0434(2) 0.18052(17) 0.94702(14)
C1 C 0.7356(3) 0.08211(19) 0.85602(17)
H9 H 0.7328 0.0776 0.9046
C2 C 0.6525(3) 0.06405(19) 0.81799(17)
C3 C 0.5618(3) 0.0404(2) 0.85782(18)
C4 C 0.6576(3) 0.06804(19) 0.74465(17)
C5 C 0.5723(3) 0.0568(2) 0.69495(17)
C6 C 0.7466(3) 0.0896(2) 0.71525(18)
H10 H 0.7532 0.0912 0.6667
C7 C 0.8250(3) 0.1087(2) 0.75688(18)
H11 H 0.8832 0.1240 0.7359
C8 C 0.1187(3) 0.1325(2) 0.95771(17)
H12 H 0.1136 0.0832 0.9399
C9 C 0.2036(3) 0.1517(2) 0.99374(17)
C10 C 0.2831(3) 0.0912(2) 0.99696(18)
C11 C 0.2110(3) 0.2258(2) 1.02048(17)
C12 C 0.2966(3) 0.2524(2) 1.06544(18)
C13 C 0.1328(3) 0.2752(2) 1.00949(18)
H13 H 0.1358 0.3249 1.0264
C14 C 0.05111(18) 0.25105(13) 0.97374(13)
H14 H -0.0007 0.2849 0.9679
Cu1D Cu 0.56999(3) -0.13977(2) 1.39023(2)
Cu1F Cu 0.43001(3) 0.36023(2) 1.10977(2)
Cu1E Cu 0.93001(3) 0.13977(2) 0.89023(2)
Cu1E_2 Cu -0.06999(3) 0.13977(2) 0.89023(2)
Cu1A Cu 0.06999(3) -0.13977(2) 1.10977(2)
Cu1B Cu 0.56999(3) -0.36023(2) 0.89023(2)
Cu1A_2 Cu 1.06999(3) -0.13977(2) 1.10977(2)
O1D O 0.47599(18) -0.11773(14) 1.31470(12)
O2D O 0.4379(2) 0.00430(16) 1.33620(14)
O3D O 0.43058(18) -0.04848(15) 1.07629(12)
O4D O 0.50980(19) -0.01612(16) 1.17474(13)
O5D O 0.66268(18) -0.31384(14) 0.95663(12)
O5F O 0.33732(18) 0.18616(14) 0.54337(12)
O5B O 0.66268(18) -0.18616(14) 1.45663(12)
O6D O 0.6836(2) -0.21848(16) 0.88059(14)
O7D O 0.7473(2) -0.02286(16) 1.00567(15)
O8D O 0.6303(2) -0.11169(16) 1.00277(14)
O9D O 0.5772(2) -0.02821(16) 1.45313(15)
H1D H 0.6342 -0.0104 1.4678
H2D H 0.5554 -0.0012 1.4081
O10D O 0.5954(2) 0.04966(14) 1.06334(13)
H3D H 0.5773 0.0297 1.1052
H4D H 0.6514 0.0324 1.0488
N1D N 0.1804(2) -0.10564(16) 1.17272(14)
N1E N 0.3196(2) 0.10564(16) 0.67272(14)
N1A N 0.6804(2) -0.10564(16) 1.32728(14)
N2D N 0.9566(2) -0.18052(17) 1.05298(14)
N2E N 0.5434(2) 0.18052(17) 0.55298(14)
N2A N 0.4566(2) -0.18052(17) 1.44702(14)
C1D C 0.2644(3) -0.08211(19) 1.14398(17)
H9D H 0.2672 -0.0776 1.0954
C2D C 0.3475(3) -0.06405(19) 1.18201(17)
C3D C 0.4382(3) -0.0404(2) 1.14218(18)
C4D C 0.3424(3) -0.06804(19) 1.25535(17)
C5D C 0.4277(3) -0.0568(2) 1.30505(17)
C6D C 0.2534(3) -0.0896(2) 1.28475(18)
H10D H 0.2468 -0.0912 1.3333
C7D C 0.1750(3) -0.1087(2) 1.24312(18)
H11D H 0.1168 -0.1240 1.2641
C8D C 0.8813(3) -0.1325(2) 1.04229(17)
H12D H 0.8864 -0.0832 1.0601
C9D C 0.7964(3) -0.1517(2) 1.00626(17)
C10D C 0.7169(3) -0.0912(2) 1.00304(18)
C11D C 0.7890(3) -0.2258(2) 0.97952(17)
C12D C 0.7034(3) -0.2524(2) 0.93456(18)
C13D C 0.8672(3) -0.2752(2) 0.99051(18)
H13D H 0.8642 -0.3249 0.9736
C14D C 0.94889(18) -0.25105(13) 1.02626(13)
H14D H 1.0007 -0.2849 1.0321
O11 O 0.8988(4) 0.2073(3) 0.6260(2)
H5 H 0.8834 0.2593 0.6140
H6 H 0.9031 0.1917 0.5792
O12 O 0.6546(4) -0.1364(2) 0.6022(2)
H7 H 0.6564 -0.1510 0.5597
H8 H 0.6510 -0.0790 0.6201
N3 N 0.39570(18) -0.17116(13) 0.74560(13)
C15 C 0.49309(18) -0.16308(13) 0.78189(13)
H15 H 0.5274 -0.2108 0.7801
H16 H 0.4828 -0.1487 0.8299
H17 H 0.5311 -0.1245 0.7587
C16 C 0.32741(18) -0.22459(13) 0.78195(13)
H18 H 0.3556 -0.2747 0.7831
H19 H 0.2663 -0.2262 0.7571
H20 H 0.3163 -0.2072 0.8290
C17 C 0.34074(18) -0.09527(13) 0.74828(13)
H21 H 0.2787 -0.1006 0.7251
H22 H 0.3786 -0.0566 0.7251
H23 H 0.3303 -0.0809 0.7963
C18 C 0.41897(18) -0.18824(13) 0.67195(13)
H24 H 0.4536 -0.2358 0.6693
H25 H 0.4591 -0.1482 0.6530
H26 H 0.3595 -0.1918 0.6454
loop_
_geom_bond_atom_site_label_1
_geom_bond_atom_site_label_2
_geom_bond_site_symmetry_1
_geom_bond_site_symmetry_2
Cu1 O1 1_555 1_555
Cu2 O3 1_555 1_555
O1 C5 1_555 1_555
O2 C5 1_555 1_555
O3 C3 1_555 1_555
O4 C3 1_555 1_555
O5 C12 1_555 1_555
O6 C12 1_555 1_555
O7 C10 1_555 1_555
O8 Cu2 1_555 1_555
O9 Cu1 1_555 1_555
H1 O9 1_555 1_555
H2 O9 1_555 1_555
O10 Cu2 1_555 1_555
H3 O10 1_555 1_555
H4 O10 1_555 1_555
O11 H5 1_555 1_555
H6 O11 1_555 1_555
O12 H7 1_555 1_555
H8 O12 1_555 1_555
N1 C1 1_555 1_555
N2 C8 1_555 1_555
C1 H9 1_555 1_555
C2 C1 1_555 1_555
C3 C2 1_555 1_555
C4 C2 1_555 1_555
C5 C4 1_555 1_555
C6 C4 1_555 1_555
H10 C6 1_555 1_555
C7 N1 1_555 1_555
H11 C7 1_555 1_555
C8 H12 1_555 1_555
C9 C8 1_555 1_555
C10 O8 1_555 1_555
C11 C9 1_555 1_555
C12 C11 1_555 1_555
C13 C11 1_555 1_555
H13 C13 1_555 1_555
C14 N2 1_555 1_555
H14 C14 1_555 1_555
N3 C15 1_555 1_555
C15 H15 1_555 1_555
H16 C15 1_555 1_555
H17 C15 1_555 1_555
C16 N3 1_555 1_555
H18 C16 1_555 1_555
H19 C16 1_555 1_555
H20 C16 1_555 1_555
C17 N3 1_555 1_555
H21 C17 1_555 1_555
H22 C17 1_555 1_555
H23 C17 1_555 1_555
C18 N3 1_555 1_555
H24 C18 1_555 1_555
H25 C18 1_555 1_555
H26 C18 1_555 1_555
Cu1D O1D 1_555 1_555
Cu1F O5 1_555 1_555
Cu1E N1 1_555 1_555
Cu1E_2 N2 1_555 1_555
Cu1A N1D 1_555 1_555
Cu1B O5D 1_555 1_555
Cu1A_2 N2D 1_555 1_555
O1D C5D 1_555 1_555
O2D C5D 1_555 1_555
O3D Cu2 1_555 1_555
O4D C3D 1_555 1_555
O5D C12D 1_555 1_555
O5F Cu1 1_555 1_555
O5B Cu1D 1_555 1_555
O6D C12D 1_555 1_555
O7D C10D 1_555 1_555
O8D Cu2 1_555 1_555
O9D Cu1D 1_555 1_555
H1D O9D 1_555 1_555
H2D O9D 1_555 1_555
O10D Cu2 1_555 1_555
H3D O10D 1_555 1_555
H4D O10D 1_555 1_555
N1D C1D 1_555 1_555
N1E Cu1 1_555 1_555
N1A Cu1D 1_555 1_555
N2D C8D 1_555 1_555
N2E Cu1 1_555 1_555
N2A Cu1D 1_555 1_555
C1D H9D 1_555 1_555
C2D C1D 1_555 1_555
C3D O3D 1_555 1_555
C4D C2D 1_555 1_555
C5D C4D 1_555 1_555
C6D C4D 1_555 1_555
H10D C6D 1_555 1_555
C7D N1D 1_555 1_555
H11D C7D 1_555 1_555
C8D H12D 1_555 1_555
C9D C8D 1_555 1_555
C10D O8D 1_555 1_555
C11D C9D 1_555 1_555
C12D C11D 1_555 1_555
C13D C11D 1_555 1_555
H13D C13D 1_555 1_555
C14D N2D 1_555 1_555
H14D C14D 1_555 1_555
C6 C7 1_555 1_555
C9 C10 1_555 1_555
C13 C14 1_555 1_555
C2D C3D 1_555 1_555
C6D C7D 1_555 1_555
C9D C10D 1_555 1_555
C13D C14D 1_555 1_555

#END
