
#######################################################################
#
#                 Cambridge Crystallographic Data Centre
#                                CCDC 
#
#######################################################################
#
# If this CIF has been generated from an entry in the Cambridge 
# Structural Database, then it will include bibliographic, chemical, 
# crystal, experimental, refinement or atomic coordinate data resulting 
# from the CCDC's data processing and validation procedures.
#
#######################################################################

data_UYEBIL
_chemical_formula_moiety         '(C24 H20 Co2 N4 O8)n'
_symmetry_cell_setting           tetragonal
_symmetry_space_group_name_H-M   'I 41/a c d'
_symmetry_Int_Tables_number      142
_space_group_name_Hall           '-I 4bd 2c'
loop_
_symmetry_equiv_pos_site_id
_symmetry_equiv_pos_as_xyz
1 x,y,z
2 1/2-x,-y,1/2+z
3 1/4-y,3/4+x,1/4+z
4 1/4+y,1/4-x,3/4+z
5 1/2-x,y,-z
6 x,-y,1/2-z
7 1/4+y,3/4+x,3/4-z
8 1/4-y,1/4-x,1/4-z
9 1/2+x,1/2+y,1/2+z
10 -x,1/2-y,z
11 3/4-y,1/4+x,3/4+z
12 3/4+y,3/4-x,1/4+z
13 -x,1/2+y,1/2-z
14 1/2+x,1/2-y,-z
15 3/4+y,1/4+x,1/4-z
16 3/4-y,3/4-x,3/4-z
17 -x,-y,-z
18 1/2+x,y,1/2-z
19 3/4+y,1/4-x,3/4-z
20 3/4-y,3/4+x,1/4-z
21 1/2+x,-y,z
22 -x,y,1/2+z
23 3/4-y,1/4-x,1/4+z
24 3/4+y,3/4+x,3/4+z
25 1/2-x,1/2-y,1/2-z
26 x,1/2+y,-z
27 1/4+y,3/4-x,1/4-z
28 1/4-y,1/4+x,3/4-z
29 x,1/2-y,1/2+z
30 1/2-x,1/2+y,z
31 1/4-y,3/4-x,3/4+z
32 1/4+y,1/4+x,1/4+z
_cell_length_a                   23.0299(11)
_cell_length_b                   23.0299(11)
_cell_length_c                   24.3973(16)
_cell_angle_alpha                90
_cell_angle_beta                 90
_cell_angle_gamma                90
_cell_volume                     12939.7
loop_
_atom_site_label
_atom_site_type_symbol
_atom_site_fract_x
_atom_site_fract_y
_atom_site_fract_z
Co1 Co 0.72621(5) 0.52379(5) 0.6250
Co2 Co 0.7500 0.43353(8) 0.5000
O1 O 0.7289(2) 0.5155(2) 0.5395(2)
O2 O 0.7084(2) 0.4372(2) 0.6344(2)
O3 O 0.7483(2) 0.3838(2) 0.5677(2)
O4 O 0.6361(3) 0.5464(3) 0.6199(3)
N1 N 0.6771(3) 0.0918(3) 0.7572(3)
N2 N 0.6790(3) 0.1830(4) 0.7346(3)
C1 C 0.7246(4) 0.3911(4) 0.6133(4)
C2 C 0.7500 0.5439(5) 0.5000
C3 C 0.6441(4) 0.1796(4) 0.7765(4)
H1 H 0.6241 0.2096 0.7937
C4 C 0.6894(4) 0.2366(5) 0.7049(3)
C5 C 0.7124(4) 0.3355(4) 0.6458(3)
C6 C 0.6825(4) 0.3389(4) 0.6938(4)
H2 H 0.6697 0.3746 0.7070
C7 C 0.7500 0.6098(4) 0.5000
C8 C 0.7000(4) 0.1295(5) 0.7234(4)
H3 H 0.7266 0.1208 0.6959
C9 C 0.6714(4) 0.2880(5) 0.7226(4)
H4 H 0.6508 0.2901 0.7554
C10 C 0.6436(4) 0.1248(5) 0.7888(4)
H5 H 0.6216 0.1098 0.8174
C11 C 0.6517(5) 0.5983(5) 0.6250
C12 C 0.7220(5) 0.2333(4) 0.6576(4)
H6 H 0.7368 0.1978 0.6459
C13 C 0.7324(4) 0.2827(4) 0.6280(4)
H7 H 0.7533 0.2804 0.5954
C14 C 0.6045(4) 0.6455(4) 0.6250
O1D O 0.7711(2) 0.5155(2) 0.4605(2)
O4G O 0.7036(3) 0.6139(3) 0.6301(3)
O2D O 0.7916(2) 0.4372(2) 0.3656(2)
O3D O 0.7517(2) 0.3838(2) 0.4323(2)
N1D N 0.8229(3) 0.0918(3) 0.2428(3)
N2D N 0.8210(3) 0.1830(4) 0.2654(3)
C1D C 0.7754(4) 0.3911(4) 0.3867(4)
C3D C 0.8559(4) 0.1796(4) 0.2235(4)
H1D H 0.8759 0.2096 0.2063
C4D C 0.8106(4) 0.2366(5) 0.2951(3)
C5D C 0.7876(4) 0.3355(4) 0.3542(3)
C6D C 0.8175(4) 0.3389(4) 0.3062(4)
H2D H 0.8303 0.3746 0.2930
C8D C 0.8000(4) 0.1295(5) 0.2766(4)
H3D H 0.7734 0.1208 0.3041
C9D C 0.8286(4) 0.2880(5) 0.2774(4)
H4D H 0.8492 0.2901 0.2446
C10D C 0.8564(4) 0.1248(5) 0.2112(4)
H5D H 0.8784 0.1098 0.1826
C12D C 0.7780(5) 0.2333(4) 0.3424(4)
H6D H 0.7632 0.1978 0.3541
C13D C 0.7676(4) 0.2827(4) 0.3720(4)
H7D H 0.7467 0.2804 0.4046
Co1C Co 0.77379(5) 0.52379(5) 0.3750
Co2Z Co 0.68353(8) 0.0000 0.7500
Co2AA Co 0.81647(8) 0.0000 0.2500
O1G O 0.7345(2) 0.5211(2) 0.7105(2)
O2G O 0.8128(2) 0.5416(2) 0.6156(2)
N1S N 0.6582(3) 0.4271(3) 0.4928(3)
N1W N 0.8418(3) 0.4271(3) 0.5072(3)
loop_
_geom_bond_atom_site_label_1
_geom_bond_atom_site_label_2
_geom_bond_site_symmetry_1
_geom_bond_site_symmetry_2
Co1 O1 1_555 1_555
Co2 O1 1_555 1_555
O1 C2 1_555 1_555
O2 Co1 1_555 1_555
O3 Co2 1_555 1_555
O4 Co1 1_555 1_555
N1 C8 1_555 1_555
N2 C3 1_555 1_555
C1 O2 1_555 1_555
C2 C7 1_555 1_555
C3 H1 1_555 1_555
C4 N2 1_555 1_555
C5 C1 1_555 1_555
C6 C5 1_555 1_555
H2 C6 1_555 1_555
C8 N2 1_555 1_555
H3 C8 1_555 1_555
C9 C4 1_555 1_555
H4 C9 1_555 1_555
C10 N1 1_555 1_555
H5 C10 1_555 1_555
C11 O4 1_555 1_555
C12 C4 1_555 1_555
H6 C12 1_555 1_555
C13 C5 1_555 1_555
H7 C13 1_555 1_555
C14 C11 1_555 1_555
O1D Co2 1_555 1_555
O4G Co1 1_555 1_555
O2D C1D 1_555 1_555
O3D Co2 1_555 1_555
N1D C8D 1_555 1_555
N2D C3D 1_555 1_555
C1D O3D 1_555 1_555
C3D H1D 1_555 1_555
C4D N2D 1_555 1_555
C5D C1D 1_555 1_555
C6D C5D 1_555 1_555
H2D C6D 1_555 1_555
C8D N2D 1_555 1_555
H3D C8D 1_555 1_555
C9D C4D 1_555 1_555
H4D C9D 1_555 1_555
C10D N1D 1_555 1_555
H5D C10D 1_555 1_555
C12D C4D 1_555 1_555
H6D C12D 1_555 1_555
C13D C5D 1_555 1_555
H7D C13D 1_555 1_555
Co1C O1D 1_555 1_555
Co2Z N1 1_555 1_555
Co2AA N1D 1_555 1_555
O1G Co1 1_555 1_555
O2G Co1 1_555 1_555
N1S Co2 1_555 1_555
N1W Co2 1_555 1_555
O3 C1 1_555 1_555
C2 O1D 1_555 1_555
C3 C10 1_555 1_555
C6 C9 1_555 1_555
C11 O4G 1_555 1_555
C12 C13 1_555 1_555
O2D Co1C 1_555 1_555
C3D C10D 1_555 1_555
C6D C9D 1_555 1_555
C12D C13D 1_555 1_555

#END
