
#######################################################################
#
#                 Cambridge Crystallographic Data Centre
#                                CCDC 
#
#######################################################################
#
# If this CIF has been generated from an entry in the Cambridge 
# Structural Database, then it will include bibliographic, chemical, 
# crystal, experimental, refinement or atomic coordinate data resulting 
# from the CCDC's data processing and validation procedures.
#
#######################################################################

data_HIDBON
_chemical_formula_moiety         '(C28 H26 Cd2 N12 O8)n'
_symmetry_cell_setting           monoclinic
_symmetry_space_group_name_H-M   'P 21/c'
_symmetry_Int_Tables_number      14
_space_group_name_Hall           '-P 2ybc'
loop_
_symmetry_equiv_pos_site_id
_symmetry_equiv_pos_as_xyz
1 x,y,z
2 -x,1/2+y,1/2-z
3 -x,-y,-z
4 x,1/2-y,1/2+z
_cell_length_a                   10.2783(7)
_cell_length_b                   9.3993(7)
_cell_length_c                   17.5516(12)
_cell_angle_alpha                90
_cell_angle_beta                 103.0550(10)
_cell_angle_gamma                90
_cell_volume                     1651.81
loop_
_atom_site_label
_atom_site_type_symbol
_atom_site_fract_x
_atom_site_fract_y
_atom_site_fract_z
Cd1 Cd 0.77405(2) 0.838954(19) 0.249801(9)
C1 C 1.1149(3) 0.6549(2) 0.35997(16)
C2 C 1.1582(3) 0.7841(3) 0.39423(16)
H1 H 1.1533 0.8657 0.3638
C3 C 1.2094(3) 0.7909(3) 0.47484(17)
H2 H 1.2382 0.8776 0.4982
C4 C 1.2176(3) 0.6693(3) 0.52040(17)
H3 H 1.2525 0.6750 0.5740
C5 C 1.1740(3) 0.5384(3) 0.48645(14)
C6 C 1.1223(3) 0.5329(3) 0.40602(14)
H4 H 1.0923 0.4465 0.3826
C7 C 1.0670(3) 0.6438(3) 0.27436(16)
C8 C 1.1819(2) 0.4106(3) 0.53465(14)
C9 C 1.2249(3) 0.3891(3) 0.61339(15)
H5 H 1.2613 0.4589 0.6495
C10 C 1.1520(3) 0.1874(3) 0.56425(16)
H6 H 1.1277 0.0920 0.5589
C11 C 0.5553(3) 0.6320(3) -0.00871(17)
H7 H 0.5924 0.7204 -0.0146
C12 C 0.5622(3) 0.5772(3) 0.06586(15)
C13 C 0.5068(3) 0.4453(3) 0.07403(16)
H8 H 0.5114 0.4083 0.1237
C14 C 0.6319(4) 0.6603(3) 0.13653(19)
N1 N 1.1151(3) 0.5489(2) 0.23066(13)
N2 N 1.0553(3) 0.5787(3) 0.15549(13)
N3 N 0.9757(3) 0.6851(3) 0.15481(14)
N4 N 0.9796(3) 0.7290(2) 0.22921(13)
N5 N 1.1362(2) 0.2796(2) 0.50477(12)
H9 H 1.1032 0.2604 0.4563
N6 N 1.2065(2) 0.2489(3) 0.63149(13)
O1 O 0.6774(2) 0.7816(2) 0.12605(12)
O2 O 0.6405(4) 0.6101(3) 0.20256(14)
O3 O 0.5706(4) 0.9770(5) 0.2357(2)
C11B C 0.4447(3) 0.3680(3) 0.00871(17)
H7B H 0.4076 0.2796 0.0146
C12B C 0.4378(3) 0.4228(3) -0.06586(15)
C13B C 0.4932(3) 0.5547(3) -0.07403(16)
H8B H 0.4886 0.5917 -0.1237
C14B C 0.3681(4) 0.3397(3) -0.13653(19)
O1B O 0.3226(2) 0.2184(2) -0.12605(12)
O2B O 0.3595(4) 0.3899(3) -0.20256(14)
Cd1B Cd 0.22595(2) 0.161046(19) -0.249801(9)
C1B C -0.1149(3) 0.3451(2) -0.35997(16)
C2B C -0.1582(3) 0.2159(3) -0.39423(16)
H1B H -0.1533 0.1343 -0.3638
C3B C -0.2094(3) 0.2091(3) -0.47484(17)
H2B H -0.2382 0.1224 -0.4982
C4B C -0.2176(3) 0.3307(3) -0.52040(17)
H3B H -0.2525 0.3250 -0.5740
C5B C -0.1740(3) 0.4616(3) -0.48645(14)
C6B C -0.1223(3) 0.4671(3) -0.40602(14)
H4B H -0.0923 0.5535 -0.3826
C7B C -0.0670(3) 0.3562(3) -0.27436(16)
C8B C -0.1819(2) 0.5894(3) -0.53465(14)
C9B C -0.2249(3) 0.6109(3) -0.61339(15)
H5B H -0.2613 0.5411 -0.6495
C10B C -0.1520(3) 0.8126(3) -0.56425(16)
H6B H -0.1277 0.9080 -0.5589
N1B N -0.1151(3) 0.4511(2) -0.23066(13)
N2B N -0.0553(3) 0.4213(3) -0.15549(13)
N3B N 0.0243(3) 0.3149(3) -0.15481(14)
N4B N 0.0204(3) 0.2710(2) -0.22921(13)
N5B N -0.1362(2) 0.7204(2) -0.50477(12)
H9B H -0.1032 0.7396 -0.4563
N6B N -0.2065(2) 0.7511(3) -0.63149(13)
O3B O 0.4294(4) 0.0230(5) -0.2357(2)
Cd1_2 Cd -0.22595(2) 0.838954(19) -0.750199(9)
Cd1A Cd 1.22595(2) 0.338954(19) 0.250199(9)
Cd1B_2 Cd 1.22595(2) 0.161046(19) 0.750199(9)
Cd1C Cd -0.22595(2) 0.661046(19) -0.250199(9)
N1A N 0.8849(3) 1.0489(2) 0.26934(13)
N1C N 0.1151(3) -0.0489(2) -0.26934(13)
N6_2 N 0.2065(2) 0.2489(3) -0.36851(13)
N6B_2 N 0.7935(2) 0.7511(3) 0.36851(13)
O4 O 0.5395(5) 0.0407(7) 0.0806(4)
O5 O 0.3406(12) 0.7992(11) 0.2290(5)
loop_
_geom_bond_atom_site_label_1
_geom_bond_atom_site_label_2
_geom_bond_site_symmetry_1
_geom_bond_site_symmetry_2
Cd1 N4 1_555 1_555
C1 C2 1_555 1_555
C2 H1 1_555 1_555
C3 C2 1_555 1_555
H2 C3 1_555 1_555
C4 C3 1_555 1_555
H3 C4 1_555 1_555
C5 C4 1_555 1_555
C6 C1 1_555 1_555
H4 C6 1_555 1_555
C7 C1 1_555 1_555
C8 C5 1_555 1_555
C9 C8 1_555 1_555
H5 C9 1_555 1_555
C10 H6 1_555 1_555
C11 H7 1_555 1_555
C12 C11 1_555 1_555
C13 C12 1_555 1_555
H8 C13 1_555 1_555
C14 C12 1_555 1_555
N1 C7 1_555 1_555
N2 N1 1_555 1_555
N3 N2 1_555 1_555
N4 C7 1_555 1_555
N5 C8 1_555 1_555
H9 N5 1_555 1_555
N6 C9 1_555 1_555
O1 Cd1 1_555 1_555
O2 Cd1 1_555 1_555
O3 Cd1 1_555 1_555
C11B C13 1_555 1_555
H7B C11B 1_555 1_555
C12B C11B 1_555 1_555
C13B C11 1_555 1_555
H8B C13B 1_555 1_555
C14B C12B 1_555 1_555
O1B C14B 1_555 1_555
O2B C14B 1_555 1_555
Cd1B O1B 1_555 1_555
C1B C2B 1_555 1_555
C2B H1B 1_555 1_555
C3B C2B 1_555 1_555
H2B C3B 1_555 1_555
C4B C3B 1_555 1_555
H3B C4B 1_555 1_555
C5B C4B 1_555 1_555
C6B C1B 1_555 1_555
H4B C6B 1_555 1_555
C7B C1B 1_555 1_555
C8B C5B 1_555 1_555
C9B C8B 1_555 1_555
H5B C9B 1_555 1_555
C10B H6B 1_555 1_555
N1B C7B 1_555 1_555
N2B N1B 1_555 1_555
N3B N2B 1_555 1_555
N4B Cd1B 1_555 1_555
N5B C8B 1_555 1_555
H9B N5B 1_555 1_555
N6B C9B 1_555 1_555
O3B Cd1B 1_555 1_555
Cd1_2 N6B 1_555 1_555
Cd1A N1 1_555 1_555
Cd1B_2 N6 1_555 1_555
Cd1C N1B 1_555 1_555
N1A Cd1 1_555 1_555
N1C Cd1B 1_555 1_555
N6_2 Cd1B 1_555 1_555
N6B_2 Cd1 1_555 1_555
C5 C6 1_555 1_555
C10 N5 1_555 1_555
C10 N6 1_555 1_555
C14 O1 1_555 1_555
C14 O2 1_555 1_555
N3 N4 1_555 1_555
C12B C13B 1_555 1_555
O2B Cd1B 1_555 1_555
C5B C6B 1_555 1_555
C7B N4B 1_555 1_555
C10B N5B 1_555 1_555
C10B N6B 1_555 1_555
N3B N4B 1_555 1_555

#END
