
#######################################################################
#
#                 Cambridge Crystallographic Data Centre
#                                CCDC 
#
#######################################################################
#
# If this CIF has been generated from an entry in the Cambridge 
# Structural Database, then it will include bibliographic, chemical, 
# crystal, experimental, refinement or atomic coordinate data resulting 
# from the CCDC's data processing and validation procedures.
#
#######################################################################

data_DIBJEF
_chemical_formula_moiety         '(C44 H38 Eu3 N4 O18 S4)n'
_symmetry_cell_setting           monoclinic
_symmetry_space_group_name_H-M   'C 2/c'
_symmetry_Int_Tables_number      15
_space_group_name_Hall           '-C 2yc'
loop_
_symmetry_equiv_pos_site_id
_symmetry_equiv_pos_as_xyz
1 x,y,z
2 -x,y,1/2-z
3 1/2+x,1/2+y,z
4 1/2-x,1/2+y,1/2-z
5 -x,-y,-z
6 x,-y,1/2+z
7 1/2-x,1/2-y,-z
8 1/2+x,1/2-y,1/2+z
_cell_length_a                   45.950(2)
_cell_length_b                   9.1496(5)
_cell_length_c                   31.3267(15)
_cell_angle_alpha                90
_cell_angle_beta                 124.2110(10)
_cell_angle_gamma                90
_cell_volume                     10891.6
loop_
_atom_site_label
_atom_site_type_symbol
_atom_site_fract_x
_atom_site_fract_y
_atom_site_fract_z
_atom_site_U_iso_or_equiv
_atom_site_thermal_displace_type
Eu1 Eu 0.197367(6) 0.42375(3) 0.427156(8) 0.0159 Uani
Eu2 Eu 0.201471(6) 0.05456(3) 0.481495(9) 0.0186 Uani
Eu3 Eu 0.252440(6) 0.11664(3) 0.424381(9) 0.0179 Uani
S1 S 0.11654(3) 0.78011(15) -0.11592(5) 0.0244 Uani
S2 S 0.18565(3) 0.29976(15) 0.30841(5) 0.0228 Uani
S3 S -0.18131(3) -0.32252(14) -0.00305(4) 0.0192 Uani
S4 S -0.19548(3) 0.18878(14) -0.38201(4) 0.0197 Uani
O1 O 0.21210(8) 0.1917(4) 0.43571(13) 0.0288 Uani
O2 O 0.24474(7) 0.5241(4) 0.50651(11) 0.0183 Uani
O3 O 0.24722(8) 0.1100(4) 0.56928(12) 0.0220 Uani
O4 O 0.30400(8) 0.1937(4) 0.50204(12) 0.0220 Uani
O5 O 0.27570(18) 0.1815(9) 0.3729(3) 0.0397 Uani
O6 O 0.17656(18) 0.0693(9) 0.5379(3) 0.0397 Uani
O7 O 0.13724(7) 0.6597(4) -0.11737(12) 0.0251 Uani
O8 O 0.13941(8) 0.8852(4) -0.07505(14) 0.0301 Uani
O9 O 0.09289(9) 0.8488(5) -0.16493(14) 0.0406 Uani
O10 O 0.20139(10) 0.1606(4) 0.33382(13) 0.0345 Uani
O11 O 0.20680(9) 0.3757(5) 0.29474(14) 0.0406 Uani
O12 O 0.17705(8) 0.3903(4) 0.33815(12) 0.0223 Uani
O13 O -0.19788(8) -0.4228(4) -0.04708(12) 0.0228 Uani
O14 O -0.16914(8) -0.3949(4) 0.04564(12) 0.0225 Uani
O15 O -0.20398(8) -0.1968(4) -0.01205(12) 0.0241 Uani
O16 O -0.20453(8) 0.3387(4) -0.40037(12) 0.0225 Uani
O17 O -0.22551(8) 0.1147(4) -0.38755(12) 0.0230 Uani
O18 O -0.18027(8) 0.1081(4) -0.40547(12) 0.0235 Uani
N1 N -0.02660(9) 0.3332(5) -0.09373(14) 0.0218 Uani
H1 H -0.0244 0.3093 -0.0649 0.0260 Uiso
C1 C -0.00193(11) 0.4098(6) -0.09650(18) 0.0236 Uani
C2 C -0.01498(13) 0.4183(6) -0.14945(19) 0.0301 Uani
H2 H -0.0031 0.4612 -0.1633 0.0360 Uiso
C3 C -0.04762(13) 0.3545(7) -0.17758(19) 0.0315 Uani
H3 H -0.0626 0.3483 -0.2141 0.0380 Uiso
C4 C -0.05503(12) 0.2992(6) -0.14223(17) 0.0229 Uani
C5 C 0.02918(12) 0.4682(6) -0.05413(18) 0.0248 Uani
C6 C 0.04238(11) 0.4375(6) -0.00313(18) 0.0220 Uani
N2 N 0.02834(9) 0.3348(5) 0.01301(14) 0.0209 Uani
C7 C 0.05078(11) 0.3295(6) 0.06621(18) 0.0213 Uani
C8 C 0.07869(12) 0.4385(6) 0.08390(19) 0.0267 Uani
H4 H 0.0973 0.4581 0.1186 0.0320 Uiso
C9 C 0.07280(12) 0.5060(6) 0.04122(19) 0.0285 Uani
H5 H 0.0862 0.5840 0.0405 0.0350 Uiso
C10 C 0.04940(12) 0.2334(6) 0.09929(17) 0.0218 Uani
C11 C 0.02122(11) 0.1377(6) 0.08540(18) 0.0231 Uani
N3 N -0.01015(9) 0.1320(5) 0.03823(14) 0.0205 Uani
H6 H -0.0155 0.1839 0.0111 0.0240 Uiso
C12 C -0.03227(12) 0.0324(6) 0.03954(17) 0.0211 Uani
C13 C -0.01331(12) -0.0292(6) 0.08977(19) 0.0271 Uani
H7 H -0.0217 -0.1018 0.1020 0.0330 Uiso
C14 C 0.01910(12) 0.0342(6) 0.11744(19) 0.0270 Uani
H8 H 0.0373 0.0128 0.1523 0.0330 Uiso
C15 C -0.06777(11) 0.0110(6) -0.00063(18) 0.0214 Uani
C16 C -0.08412(12) 0.0826(6) -0.04878(18) 0.0231 Uani
N4 N -0.06691(9) 0.1477(5) -0.06816(14) 0.0201 Uani
C17 C -0.09249(11) 0.1810(6) -0.11824(18) 0.0225 Uani
C18 C -0.12709(11) 0.1469(7) -0.13033(19) 0.0274 Uani
H9 H -0.1490 0.1627 -0.1623 0.0330 Uiso
C19 C -0.12199(12) 0.0881(6) -0.08720(19) 0.0273 Uani
H10 H -0.1398 0.0563 -0.0827 0.0330 Uiso
C20 C -0.08579(12) 0.2352(6) -0.15411(18) 0.0222 Uani
C21 C 0.05095(12) 0.5554(7) -0.06660(19) 0.0283 Uani
C22 C 0.03626(12) 0.6740(7) -0.1024(2) 0.0331 Uani
H11 H 0.0129 0.7056 -0.1157 0.0390 Uiso
C23 C 0.05584(13) 0.7441(7) -0.1180(2) 0.0355 Uani
H12 H 0.0459 0.8215 -0.1424 0.0430 Uiso
C24 C 0.09076(11) 0.6971(6) -0.09665(19) 0.0262 Uani
C25 C 0.10467(15) 0.5888(7) -0.0615(2) 0.0451 Uani
H13 H 0.1284 0.5598 -0.0464 0.0550 Uiso
C26 C 0.08445(14) 0.5188(7) -0.0472(2) 0.0417 Uani
H14 H 0.0948 0.4419 -0.0226 0.0500 Uiso
C27 C 0.08121(12) 0.2305(6) 0.15371(18) 0.0240 Uani
C28 C 0.11295(12) 0.1842(7) 0.1618(2) 0.0298 Uani
H15 H 0.1129 0.1414 0.1342 0.0360 Uiso
C29 C 0.14457(13) 0.1998(7) 0.20978(19) 0.0311 Uani
H16 H 0.1660 0.1693 0.2147 0.0370 Uiso
C30 C 0.14465(11) 0.2598(6) 0.25021(17) 0.0216 Uani
C31 C 0.11296(12) 0.2968(7) 0.24356(18) 0.0276 Uani
H17 H 0.1127 0.3327 0.2718 0.0330 Uiso
C32 C 0.08184(12) 0.2808(7) 0.1952(2) 0.0290 Uani
H18 H 0.0603 0.3057 0.1909 0.0350 Uiso
C33 C -0.09094(11) -0.0889(6) 0.00504(18) 0.0212 Uani
C34 C -0.11255(12) -0.1849(6) -0.03522(19) 0.0251 Uani
H19 H -0.1087 -0.1993 -0.0618 0.0300 Uiso
C35 C -0.13959(12) -0.2603(6) -0.03725(18) 0.0248 Uani
H20 H -0.1550 -0.3205 -0.0661 0.0300 Uiso
C36 C -0.14397(11) -0.2477(6) 0.00224(17) 0.0189 Uani
C37 C -0.12064(11) -0.1637(6) 0.04546(18) 0.0227 Uani
H21 H -0.1228 -0.1595 0.0738 0.0270 Uiso
C38 C -0.09425(12) -0.0864(6) 0.04678(18) 0.0266 Uani
H22 H -0.0781 -0.0307 0.0766 0.0320 Uiso
C39 C -0.11422(12) 0.2210(6) -0.21045(17) 0.0223 Uani
C40 C -0.14267(12) 0.3110(6) -0.23405(19) 0.0267 Uani
H23 H -0.1454 0.3821 -0.2144 0.0320 Uiso
C41 C -0.16817(12) 0.2992(6) -0.28760(19) 0.0268 Uani
H24 H -0.1885 0.3599 -0.3041 0.0320 Uiso
C42 C -0.16322(12) 0.1991(6) -0.31532(17) 0.0191 Uani
C43 C -0.13471(12) 0.1061(6) -0.29248(19) 0.0260 Uani
H25 H -0.1318 0.0363 -0.3123 0.0310 Uiso
C44 C -0.11032(12) 0.1178(7) -0.23949(19) 0.0286 Uani
H26 H -0.0906 0.0540 -0.2228 0.0340 Uiso
Eu1A Eu -0.197367(6) -0.57625(3) 0.072844(8) 0.0159 Uani
Eu1D Eu -0.197367(6) 0.57625(3) -0.427156(8) 0.0159 Uani
Eu1E Eu 0.197367(6) 0.57625(3) -0.072844(8) 0.0159 Uani
Eu1F Eu 0.302633(6) 0.07625(3) 0.572844(8) 0.0159 Uani
Eu2A Eu -0.201471(6) 0.05456(3) 0.018505(9) 0.0186 Uani
Eu2D Eu -0.201471(6) -0.05456(3) -0.481495(9) 0.0186 Uani
Eu2E Eu 0.201471(6) 0.94544(3) -0.018505(9) 0.0186 Uani
Eu2F Eu 0.298529(6) 0.44544(3) 0.518505(9) 0.0186 Uani
Eu3D Eu -0.252440(6) -0.11664(3) -0.424381(9) 0.0179 Uani
Eu3F Eu 0.247560(6) 0.38336(3) 0.575619(9) 0.0179 Uani
Eu3G Eu -0.247560(6) -0.61664(3) -0.075619(9) 0.0179 Uani
O2F O 0.25526(7) -0.0241(4) 0.49349(11) 0.0183 Uani
O3F O 0.25278(8) 0.3900(4) 0.43072(12) 0.0220 Uani
O4F O 0.19600(8) 0.3063(4) 0.49796(12) 0.0220 Uani
O7E O 0.13724(7) 0.3403(4) 0.38263(12) 0.0251 Uani
O8E O 0.13941(8) 0.1148(4) 0.42495(14) 0.0301 Uani
O13G O 0.30212(8) -0.0772(4) 0.45292(12) 0.0228 Uani
O14A O 0.16914(8) 0.6051(4) 0.45436(12) 0.0225 Uani
O15A O 0.20398(8) -0.1968(4) 0.51205(12) 0.0241 Uani
O16D O 0.20453(8) 0.6613(4) 0.40037(12) 0.0225 Uani
O17D O 0.22551(8) -0.1147(4) 0.38755(12) 0.0230 Uani
O18D O 0.18027(8) -0.1081(4) 0.40547(12) 0.0235 Uani
loop_
_atom_site_aniso_label
_atom_site_aniso_U_11
_atom_site_aniso_U_22
_atom_site_aniso_U_33
_atom_site_aniso_U_23
_atom_site_aniso_U_13
_atom_site_aniso_U_12
Eu1 0.01467(8) 0.01467(12) 0.01606(9) -0.00052(9) 0.00732(7) 0.00063(9)
Eu2 0.01725(9) 0.01504(13) 0.02022(10) -0.00113(9) 0.00849(7) -0.00007(10)
Eu3 0.01734(9) 0.01635(13) 0.01697(9) -0.00072(9) 0.00777(7) 0.00073(10)
S1 0.0152(4) 0.0266(7) 0.0304(5) 0.0085(5) 0.0123(4) 0.0013(5)
S2 0.0193(5) 0.0260(7) 0.0181(5) -0.0027(5) 0.0074(4) 0.0019(5)
S3 0.0183(4) 0.0183(6) 0.0230(5) -0.0013(5) 0.0129(3) -0.0020(5)
S4 0.0208(5) 0.0162(6) 0.0169(5) -0.0003(5) 0.0075(4) -0.0007(5)
O1 0.0363(13) 0.0196(19) 0.0444(15) 0.0080(14) 0.0312(11) 0.0102(15)
O2 0.0145(12) 0.0224(19) 0.0136(13) -0.0019(13) 0.0053(10) 0.0011(13)
O3 0.0192(14) 0.0173(18) 0.0194(14) -0.0050(13) 0.0047(11) 0.0015(14)
O4 0.0226(14) 0.0169(18) 0.0222(14) -0.0022(13) 0.0099(11) -0.0038(14)
O5 0.054(2) 0.039(4) 0.049(2) 0.007(2) 0.0428(16) 0.000(3)
O6 0.054(2) 0.039(4) 0.049(2) 0.007(2) 0.0428(16) 0.000(3)
O7 0.0145(12) 0.030(2) 0.0317(15) -0.0016(15) 0.0135(10) 0.0015(14)
O8 0.0227(14) 0.019(2) 0.0449(18) -0.0013(15) 0.0168(12) -0.0022(15)
O9 0.0271(15) 0.058(3) 0.0331(17) 0.0227(18) 0.0148(12) 0.0100(19)
O10 0.0383(18) 0.026(2) 0.0189(16) -0.0023(15) 0.0037(14) 0.0101(17)
O11 0.0324(15) 0.053(3) 0.0405(17) -0.0100(18) 0.0230(12) -0.0126(18)
O12 0.0195(13) 0.0219(19) 0.0205(14) -0.0043(14) 0.0082(10) 0.0000(14)
O13 0.0264(13) 0.0160(18) 0.0265(14) -0.0041(13) 0.0151(10) -0.0030(14)
O14 0.0199(13) 0.0201(19) 0.0260(14) 0.0004(14) 0.0119(10) -0.0018(14)
O15 0.0247(14) 0.0170(18) 0.0298(15) -0.0031(14) 0.0149(11) 0.0001(14)
O16 0.0317(15) 0.0132(18) 0.0182(14) 0.0061(13) 0.0113(11) 0.0048(14)
O17 0.0220(13) 0.0236(19) 0.0175(14) -0.0017(14) 0.0075(10) -0.0063(14)
O18 0.0237(13) 0.0208(19) 0.0230(14) -0.0051(14) 0.0113(10) -0.0005(14)
N1 0.0189(15) 0.029(2) 0.0171(16) -0.0029(16) 0.0098(12) -0.0057(17)
C1 0.0224(18) 0.026(3) 0.025(2) -0.001(2) 0.0149(14) -0.005(2)
C2 0.035(2) 0.029(3) 0.031(2) 0.003(2) 0.0215(16) -0.005(2)
C3 0.031(2) 0.038(3) 0.020(2) 0.003(2) 0.0110(17) -0.005(2)
C4 0.024(2) 0.026(3) 0.0130(19) -0.0014(19) 0.0069(15) 0.000(2)
C5 0.0271(19) 0.025(3) 0.026(2) -0.001(2) 0.0171(15) 0.000(2)
C6 0.0181(18) 0.019(3) 0.030(2) -0.002(2) 0.0141(15) 0.001(2)
N2 0.0120(15) 0.029(2) 0.0199(16) -0.0005(17) 0.0079(12) -0.0040(17)
C7 0.0122(17) 0.026(3) 0.022(2) -0.001(2) 0.0074(14) 0.001(2)
C8 0.0152(19) 0.032(3) 0.027(2) -0.007(2) 0.0083(16) -0.007(2)
C9 0.024(2) 0.027(3) 0.034(2) -0.009(2) 0.0160(16) -0.007(2)
C10 0.0198(19) 0.027(3) 0.0134(19) -0.005(2) 0.0062(14) 0.001(2)
C11 0.0155(18) 0.032(3) 0.020(2) 0.001(2) 0.0089(14) 0.000(2)
N3 0.0154(15) 0.023(2) 0.0190(16) 0.0020(16) 0.0071(12) -0.0020(17)
C12 0.0274(19) 0.018(3) 0.0224(19) -0.0026(19) 0.0168(14) -0.004(2)
C13 0.027(2) 0.031(3) 0.025(2) 0.004(2) 0.0156(15) 0.000(2)
C14 0.024(2) 0.026(3) 0.023(2) 0.006(2) 0.0084(17) 0.007(2)
C15 0.0180(18) 0.022(3) 0.024(2) -0.006(2) 0.0116(14) -0.007(2)
C16 0.0224(19) 0.022(3) 0.025(2) -0.002(2) 0.0134(15) -0.005(2)
N4 0.0172(15) 0.022(2) 0.0206(16) 0.0005(16) 0.0104(12) -0.0029(17)
C17 0.0169(18) 0.022(3) 0.027(2) 0.000(2) 0.0113(15) -0.005(2)
C18 0.0102(18) 0.043(3) 0.023(2) 0.000(2) 0.0057(15) -0.003(2)
C19 0.0136(18) 0.035(3) 0.030(2) 0.002(2) 0.0102(15) 0.001(2)
C20 0.0204(19) 0.024(3) 0.019(2) -0.008(2) 0.0091(15) -0.003(2)
C21 0.0200(19) 0.040(3) 0.026(2) 0.003(2) 0.0136(15) 0.001(2)
C22 0.0224(19) 0.040(4) 0.043(2) 0.003(2) 0.0221(16) 0.000(2)
C23 0.028(2) 0.033(3) 0.043(3) 0.011(3) 0.0184(19) 0.006(2)
C24 0.0131(18) 0.028(3) 0.034(2) -0.001(2) 0.0112(16) -0.006(2)
C25 0.032(3) 0.037(4) 0.060(3) 0.017(3) 0.022(2) 0.004(3)
C26 0.040(3) 0.036(4) 0.048(3) 0.018(3) 0.024(2) 0.009(3)
C27 0.0211(19) 0.028(3) 0.024(2) -0.007(2) 0.0134(15) -0.006(2)
C28 0.021(2) 0.042(3) 0.024(2) -0.009(2) 0.0111(16) 0.002(2)
C29 0.017(2) 0.043(4) 0.028(2) -0.005(2) 0.0094(16) 0.006(2)
C30 0.0150(18) 0.031(3) 0.0144(19) -0.001(2) 0.0055(14) -0.002(2)
C31 0.0246(19) 0.041(3) 0.020(2) -0.009(2) 0.0142(15) 0.002(2)
C32 0.0108(18) 0.040(3) 0.031(2) -0.003(2) 0.0086(16) -0.001(2)
C33 0.0134(18) 0.025(3) 0.019(2) 0.002(2) 0.0053(14) 0.002(2)
C34 0.0249(19) 0.028(3) 0.027(2) -0.004(2) 0.0173(15) -0.002(2)
C35 0.027(2) 0.024(3) 0.026(2) -0.012(2) 0.0164(15) -0.003(2)
C36 0.0225(18) 0.013(2) 0.0260(19) 0.0043(18) 0.0165(14) 0.0013(19)
C37 0.0202(18) 0.032(3) 0.0191(19) 0.003(2) 0.0130(14) 0.000(2)
C38 0.0183(19) 0.038(3) 0.021(2) -0.004(2) 0.0095(15) -0.006(2)
C39 0.0197(19) 0.026(3) 0.016(2) 0.004(2) 0.0068(15) -0.003(2)
C40 0.027(2) 0.028(3) 0.019(2) 0.000(2) 0.0092(16) 0.002(2)
C41 0.022(2) 0.027(3) 0.023(2) 0.006(2) 0.0076(17) 0.007(2)
C42 0.017(2) 0.020(3) 0.0091(19) -0.0031(19) 0.0005(15) -0.003(2)
C43 0.026(2) 0.024(3) 0.026(2) -0.004(2) 0.0134(16) 0.002(2)
C44 0.020(2) 0.034(3) 0.024(2) 0.003(2) 0.0076(16) 0.009(2)
Eu1A 0.01467 0.01467 0.01606 0.00052 0.00732 -0.00063
Eu1D 0.01467 0.01467 0.01606 -0.00052 0.00732 0.00063
Eu1E 0.01467 0.01467 0.01606 0.00052 0.00732 -0.00063
Eu1F 0.01467 0.01467 0.01606 -0.00052 0.00732 0.00063
Eu2A 0.01725 0.01504 0.02022 0.00113 0.00849 7e-05
Eu2D 0.01725 0.01504 0.02022 -0.00113 0.00849 -7e-05
Eu2E 0.01725 0.01504 0.02022 0.00113 0.00849 7e-05
Eu2F 0.01725 0.01504 0.02022 -0.00113 0.00849 -7e-05
Eu3D 0.01734 0.01635 0.01697 -0.00072 0.00777 0.00073
Eu3F 0.01734 0.01635 0.01697 -0.00072 0.00777 0.00073
Eu3G 0.01734 0.01635 0.01697 0.00072 0.00777 -0.00073
O2F 0.0145 0.0224 0.0136 -0.0019 0.0053 0.0011
O3F 0.0192 0.0173 0.0194 -0.005 0.0047 0.0015
O4F 0.0226 0.0169 0.0222 -0.0022 0.0099 -0.0038
O7E 0.0145 0.03 0.0317 0.0016 0.0135 -0.0015
O8E 0.0227 0.019 0.0449 0.0013 0.0168 0.0022
O13G 0.0264 0.016 0.0265 0.0041 0.0151 0.003
O14A 0.0199 0.0201 0.026 -0.0004 0.0119 0.0018
O15A 0.0247 0.017 0.0298 0.0031 0.0149 -0.0001
O16D 0.0317 0.0132 0.0182 0.0061 0.0113 0.0048
O17D 0.022 0.0236 0.0175 -0.0017 0.0075 -0.0063
O18D 0.0237 0.0208 0.023 -0.0051 0.0113 -0.0005
loop_
_geom_bond_atom_site_label_1
_geom_bond_atom_site_label_2
_geom_bond_site_symmetry_1
_geom_bond_site_symmetry_2
Eu1 O1 1_555 1_555
Eu2 O1 1_555 1_555
Eu3 O1 1_555 1_555
S1 O7 1_555 1_555
S2 O10 1_555 1_555
S3 O13 1_555 1_555
S4 O16 1_555 1_555
O2 Eu1 1_555 1_555
O3 Eu2 1_555 1_555
O4 Eu3 1_555 1_555
O5 Eu3 1_555 1_555
O6 Eu2 1_555 1_555
O7 Eu1E 1_555 1_555
O8 S1 1_555 1_555
O9 S1 1_555 1_555
O10 Eu3 1_555 1_555
O11 S2 1_555 1_555
O12 Eu1 1_555 1_555
O13 Eu3G 1_555 1_555
O14 S3 1_555 1_555
O15 S3 1_555 1_555
O16 Eu1D 1_555 1_555
O17 S4 1_555 1_555
O18 S4 1_555 1_555
N1 H1 1_555 1_555
C1 N1 1_555 1_555
C2 C1 1_555 1_555
H2 C2 1_555 1_555
C3 C2 1_555 1_555
H3 C3 1_555 1_555
C4 N1 1_555 1_555
C5 C1 1_555 1_555
C6 C5 1_555 1_555
N2 C6 1_555 1_555
C7 N2 1_555 1_555
C8 C7 1_555 1_555
H4 C8 1_555 1_555
C9 C6 1_555 1_555
H5 C9 1_555 1_555
C10 C7 1_555 1_555
C11 C10 1_555 1_555
N3 C11 1_555 1_555
H6 N3 1_555 1_555
C12 N3 1_555 1_555
C13 C12 1_555 1_555
H7 C13 1_555 1_555
C14 C11 1_555 1_555
H8 C14 1_555 1_555
C15 C12 1_555 1_555
C16 C15 1_555 1_555
N4 C16 1_555 1_555
C17 N4 1_555 1_555
C18 C17 1_555 1_555
H9 C18 1_555 1_555
C19 C16 1_555 1_555
H10 C19 1_555 1_555
C20 C4 1_555 1_555
C21 C5 1_555 1_555
C22 C21 1_555 1_555
H11 C22 1_555 1_555
C23 C22 1_555 1_555
H12 C23 1_555 1_555
C24 S1 1_555 1_555
C25 C24 1_555 1_555
H13 C25 1_555 1_555
C26 C21 1_555 1_555
H14 C26 1_555 1_555
C27 C10 1_555 1_555
C28 C27 1_555 1_555
H15 C28 1_555 1_555
C29 C28 1_555 1_555
H16 C29 1_555 1_555
C30 S2 1_555 1_555
C31 C30 1_555 1_555
H17 C31 1_555 1_555
C32 C27 1_555 1_555
H18 C32 1_555 1_555
C33 C15 1_555 1_555
C34 C33 1_555 1_555
H19 C34 1_555 1_555
C35 C34 1_555 1_555
H20 C35 1_555 1_555
C36 S3 1_555 1_555
C37 C36 1_555 1_555
H21 C37 1_555 1_555
C38 C33 1_555 1_555
H22 C38 1_555 1_555
C39 C20 1_555 1_555
C40 C39 1_555 1_555
H23 C40 1_555 1_555
C41 C40 1_555 1_555
H24 C41 1_555 1_555
C42 S4 1_555 1_555
C43 C42 1_555 1_555
H25 C43 1_555 1_555
C44 C39 1_555 1_555
H26 C44 1_555 1_555
Eu1A O14 1_555 1_555
Eu1F O3 1_555 1_555
Eu2A O15 1_555 1_555
Eu2D O18 1_555 1_555
Eu2E O8 1_555 1_555
Eu2F O2 1_555 1_555
Eu3D O17 1_555 1_555
Eu3F O2 1_555 1_555
O2F Eu2 1_555 1_555
O3F Eu1 1_555 1_555
O4F Eu1 1_555 1_555
O7E Eu1 1_555 1_555
O8E Eu2 1_555 1_555
O13G Eu3 1_555 1_555
O14A Eu1 1_555 1_555
O15A Eu2 1_555 1_555
O16D Eu1 1_555 1_555
O17D Eu3 1_555 1_555
O18D Eu2 1_555 1_555
Eu2 O4F 1_555 1_555
Eu3 O2F 1_555 1_555
Eu3 O3F 1_555 1_555
S2 O12 1_555 1_555
O3 Eu3F 1_555 1_555
O4 Eu1F 1_555 1_555
O4 Eu2F 1_555 1_555
C3 C4 1_555 1_555
C8 C9 1_555 1_555
C13 C14 1_555 1_555
C17 C20 1_555 1_555
C18 C19 1_555 1_555
C23 C24 1_555 1_555
C25 C26 1_555 1_555
C29 C30 1_555 1_555
C31 C32 1_555 1_555
C35 C36 1_555 1_555
C37 C38 1_555 1_555
C41 C42 1_555 1_555
C43 C44 1_555 1_555
Eu1F O2F 1_555 1_555
Eu2F O3F 1_555 1_555
Eu3F O4F 1_555 1_555

#END
