
#######################################################################
#
#                 Cambridge Crystallographic Data Centre
#                                CCDC 
#
#######################################################################
#
# If this CIF has been generated from an entry in the Cambridge 
# Structural Database, then it will include bibliographic, chemical, 
# crystal, experimental, refinement or atomic coordinate data resulting 
# from the CCDC's data processing and validation procedures.
#
#######################################################################

data_QOSXUS
_chemical_formula_moiety         'C77 N38 Zn16'
_symmetry_cell_setting           monoclinic
_symmetry_space_group_name_H-M   'C 2/c'
_symmetry_Int_Tables_number      15
_space_group_name_Hall           '-C 2yc'
loop_
_symmetry_equiv_pos_site_id
_symmetry_equiv_pos_as_xyz
1 x,y,z
2 -x,y,1/2-z
3 1/2+x,1/2+y,z
4 1/2-x,1/2+y,1/2-z
5 -x,-y,-z
6 x,-y,1/2+z
7 1/2-x,1/2-y,-z
8 1/2+x,1/2-y,1/2+z
_cell_length_a                   25.9164(10)
_cell_length_b                   24.8826(10)
_cell_length_c                   17.9542(6)
_cell_angle_alpha                90
_cell_angle_beta                 93.206(3)
_cell_angle_gamma                90
_cell_volume                     11560
loop_
_atom_site_label
_atom_site_type_symbol
_atom_site_fract_x
_atom_site_fract_y
_atom_site_fract_z
Zn1 Zn 0.21027(9) 0.13804(8) 0.76309(11)
Zn2 Zn 0.09535(9) 0.33216(9) 0.84810(12)
Zn3 Zn 0.20773(9) -0.05517(9) 0.57225(12)
Zn4 Zn 0.40615(9) 0.25032(11) 0.84401(14)
N1 N 0.1081(7) 0.2596(7) 0.8169(11)
N2 N 0.1542(8) 0.1863(7) 0.7827(11)
C1 C 0.1482(7) 0.2355(8) 0.7997(10)
C2 C 0.0740(12) 0.2132(9) 0.8265(11)
C3 C 0.0248(11) 0.2087(11) 0.8532(12)
C4 C 0.0040(8) 0.1582(16) 0.8655(14)
C5 C 0.0322(15) 0.1123(10) 0.8512(15)
C6 C 0.0814(14) 0.1168(10) 0.8245(15)
C7 C 0.1022(8) 0.1672(15) 0.8122(13)
C8 C 0.010(3) 0.053(3) 0.869(4)
N3 N 0.2711(6) 0.1900(5) 0.7540(8)
N4 N 0.3119(6) 0.1914(4) 0.8019(7)
C9 C 0.3423(4) 0.2311(4) 0.7820(6)
C10 C 0.3202(6) 0.2543(5) 0.7219(6)
C11 C 0.2763(7) 0.2289(5) 0.7046(8)
N5 N 0.1357(6) -0.1004(5) 0.5702(7)
N6 N 0.1475(5) -0.1455(4) 0.6119(6)
C12 C 0.1051(4) -0.1787(4) 0.6079(6)
C13 C 0.0670(6) -0.1542(6) 0.5637(9)
C14 C 0.0859(7) -0.1057(6) 0.5404(8)
N7 N 0.2321(8) 0.4158(8) 0.8675(10)
N8 N 0.1566(7) 0.3766(6) 0.8429(12)
C15 C 0.1931(9) 0.3935(8) 0.8827(11)
C16 C 0.2326(13) 0.4061(9) 0.7852(13)
C17 C 0.2686(8) 0.4102(10) 0.731(2)
C18 C 0.2586(14) 0.3870(15) 0.6613(18)
C19 C 0.2125(17) 0.3595(13) 0.6458(13)
C20 C 0.1765(10) 0.3553(9) 0.700(2)
C21 C 0.1865(10) 0.3786(11) 0.7696(17)
N9 N 0.1969(4) 0.0920(4) 0.6770(6)
N10 N 0.1956(4) 0.0163(4) 0.6029(7)
C22 C 0.1698(6) 0.1064(4) 0.6182(8)
C23 C 0.1660(5) 0.0548(4) 0.5757(6)
C24 C 0.2097(4) 0.0405(4) 0.6648(5)
N11 N 0.0848(4) 0.3096(6) 1.0750(6)
N12 N 0.0894(4) 0.2926(5) 1.0049(7)
C25 C 0.0868(4) 0.3355(6) 0.9600(6)
C26 C 0.0806(5) 0.3791(5) 1.0023(8)
C27 C 0.0793(3) 0.3631(6) 1.0733(7)
N13 N 0.478(2) 0.238(2) 0.786(4)
C28 C 0.5000 0.250(2) 0.7500
N15 N 0.2208(8) 0.0640(8) 0.9609(13)
N16 N 0.2270(7) 0.0914(7) 0.8505(10)
C29 C 0.2059(8) 0.0938(8) 0.9127(12)
C30 C 0.2703(9) 0.0400(9) 0.9348(13)
C31 C 0.3115(13) 0.0098(10) 0.9651(11)
C32 C 0.3528(10) -0.0027(11) 0.922(2)
C33 C 0.3529(10) 0.0151(13) 0.849(2)
C34 C 0.3118(12) 0.0452(11) 0.8183(10)
C35 C 0.2705(8) 0.0577(7) 0.8614(14)
C36 C 0.399(2) -0.033(2) 0.966(3)
N17 N 0.0359(6) 0.3606(6) 0.7866(10)
C37 C 0.0199(12) 0.4137(13) 0.7822(17)
C38 C 0.0000 0.3318(13) 0.7500
Zn1E Zn 0.21027(9) -0.13804(8) 1.26309(11)
Zn1E_2 Zn 0.21027(9) -0.13804(8) 0.26309(11)
Zn2A Zn -0.09535(9) 0.33216(9) 0.65190(12)
Zn2C Zn 0.40465(9) -0.16784(9) 0.65190(12)
Zn2F Zn 0.40465(9) 0.16784(9) 1.15190(12)
Zn2E Zn 0.09535(9) -0.33216(9) 1.34810(12)
Zn3E Zn 0.20773(9) 0.05517(9) 1.07225(12)
Zn3C Zn 0.29227(9) 0.44483(9) 0.92775(12)
Zn4A Zn 0.59385(9) 0.25032(11) 0.65599(14)
Zn4C Zn 0.09385(9) -0.24968(11) 0.65599(14)
Zn4F Zn 0.09385(9) 0.24968(11) 1.15599(14)
Zn4E Zn 0.40615(9) -0.25032(11) 1.34401(14)
N1E N 0.1081(7) -0.2596(7) 1.3169(11)
N1A N -0.1081(7) 0.2596(7) 0.6831(11)
N2E N 0.1542(8) -0.1863(7) 1.2827(11)
C1E C 0.1482(7) -0.2355(8) 1.2997(10)
C2E C 0.0740(12) -0.2132(9) 1.3265(11)
C3E C 0.0248(11) -0.2087(11) 1.3532(12)
C4E C 0.0040(8) -0.1582(16) 1.3655(14)
C5E C 0.0322(15) -0.1123(10) 1.3512(15)
C6E C 0.0814(14) -0.1168(10) 1.3245(15)
C7E C 0.1022(8) -0.1672(15) 1.3122(13)
C8E C 0.010(3) -0.053(3) 1.369(4)
N3E N 0.2711(6) -0.1900(5) 1.2540(8)
N4E N 0.3119(6) -0.1914(4) 1.3019(7)
C9E C 0.3423(4) -0.2311(4) 1.2820(6)
C9A C 0.6577(4) 0.2311(4) 0.7180(6)
C10E C 0.3202(6) -0.2543(5) 1.2219(6)
C11E C 0.2763(7) -0.2289(5) 1.2046(8)
N5C N 0.3643(6) 0.3996(5) 0.9298(7)
N5E N 0.1357(6) 0.1004(5) 1.0702(7)
N6C N 0.3525(5) 0.3545(4) 0.8881(6)
C12C C 0.3949(4) 0.3213(4) 0.8921(6)
C12B C 0.6051(4) 0.3213(4) 0.6079(6)
C13C C 0.4330(6) 0.3458(6) 0.9363(9)
C14C C 0.4141(7) 0.3943(6) 0.9596(8)
N7C N 0.2679(8) -0.0842(8) 0.6325(10)
N7F N 0.2679(8) 0.0842(8) 1.1325(10)
N8C N 0.3434(7) -0.1234(6) 0.6571(12)
N8A N -0.1566(7) 0.3766(6) 0.6571(12)
C15C C 0.3069(9) -0.1065(8) 0.6173(11)
C16C C 0.2674(13) -0.0939(9) 0.7148(13)
C17C C 0.2314(8) -0.0898(10) 0.769(2)
C18C C 0.2414(14) -0.1130(15) 0.8387(18)
C19C C 0.2875(17) -0.1405(13) 0.8542(13)
C20C C 0.3235(10) -0.1447(9) 0.800(2)
C21C C 0.3135(10) -0.1214(11) 0.7304(17)
N9E N 0.1969(4) -0.0920(4) 1.1770(6)
N10E N 0.1956(4) -0.0163(4) 1.1029(7)
C22E C 0.1698(6) -0.1064(4) 1.1182(8)
C23E C 0.1660(5) -0.0548(4) 1.0757(6)
C24E C 0.2097(4) -0.0405(4) 1.1648(5)
N11F N 0.4152(4) 0.1904(6) 0.9250(6)
N11G N 0.5848(4) 0.1904(6) 0.5750(6)
N12F N 0.4106(4) 0.2074(5) 0.9951(7)
C25F C 0.4132(4) 0.1645(6) 1.0400(6)
C25A C -0.0868(4) 0.3355(6) 0.5400(6)
C26F C 0.4194(5) 0.1209(5) 0.9977(8)
C27F C 0.4207(3) 0.1369(6) 0.9267(7)
N13A N 0.522(2) 0.238(2) 0.714(4)
N15E N 0.2208(8) -0.0640(8) 0.4609(13)
N16E N 0.2270(7) -0.0914(7) 0.3505(10)
N16E_2 N 0.2270(7) -0.0914(7) 1.3505(10)
C29E C 0.2059(8) -0.0938(8) 0.4127(12)
C30E C 0.2703(9) -0.0400(9) 0.4348(13)
C31E C 0.3115(13) -0.0098(10) 0.4651(11)
C32E C 0.3528(10) 0.0027(11) 0.422(2)
C33E C 0.3529(10) -0.0151(13) 0.349(2)
C34E C 0.3118(12) -0.0452(11) 0.3183(10)
C35E C 0.2705(8) -0.0577(7) 0.3614(14)
C36E C 0.399(2) 0.033(2) 0.466(3)
N17A N -0.0359(6) 0.3606(6) 0.7134(10)
C37A C -0.0199(12) 0.4137(13) 0.7178(17)
loop_
_geom_bond_atom_site_label_1
_geom_bond_atom_site_label_2
_geom_bond_site_symmetry_1
_geom_bond_site_symmetry_2
Zn1 N2 1_555 1_555
Zn2 N1 1_555 1_555
Zn3 N5 1_555 1_555
Zn4 C9 1_555 1_555
N1 C1 1_555 1_555
N2 C1 1_555 1_555
C2 N1 1_555 1_555
C3 C2 1_555 1_555
C4 C3 1_555 1_555
C5 C4 1_555 1_555
C6 C5 1_555 1_555
C7 N2 1_555 1_555
C8 C5 1_555 1_555
N3 Zn1 1_555 1_555
N4 N3 1_555 1_555
C9 N4 1_555 1_555
C10 C9 1_555 1_555
C11 N3 1_555 1_555
N5 N6 1_555 1_555
N6 C12 1_555 1_555
C12 C13 1_555 1_555
C13 C14 1_555 1_555
C14 N5 1_555 1_555
N7 C15 1_555 1_555
N8 Zn2 1_555 1_555
C15 N8 1_555 1_555
C16 N7 1_555 1_555
C17 C16 1_555 1_555
C18 C17 1_555 1_555
C19 C18 1_555 1_555
C20 C19 1_555 1_555
C21 N8 1_555 1_555
N9 Zn1 1_555 1_555
N10 Zn3 1_555 1_555
C22 N9 1_555 1_555
C23 N10 1_555 1_555
C24 N9 1_555 1_555
N11 N12 1_555 1_555
N12 C25 1_555 1_555
C25 Zn2 1_555 1_555
C26 C25 1_555 1_555
C27 N11 1_555 1_555
N13 Zn4 1_555 1_555
C28 N13 1_555 1_555
N15 C29 1_555 1_555
N16 Zn1 1_555 1_555
C29 N16 1_555 1_555
C30 N15 1_555 1_555
C31 C30 1_555 1_555
C32 C31 1_555 1_555
C33 C32 1_555 1_555
C34 C33 1_555 1_555
C35 N16 1_555 1_555
C36 C32 1_555 1_555
N17 Zn2 1_555 1_555
C37 N17 1_555 1_555
C38 N17 1_555 1_555
Zn1E N2E 1_555 1_555
Zn1E_2 N16E 1_555 1_555
Zn2A N1A 1_555 1_555
Zn2C N8C 1_555 1_555
Zn2F C25F 1_555 1_555
Zn2E N1E 1_555 1_555
Zn3E N15 1_555 1_555
Zn3C N7 1_555 1_555
Zn4A C9A 1_555 1_555
Zn4C C12 1_555 1_555
Zn4F N11 1_555 1_555
Zn4E C9E 1_555 1_555
N1E C1E 1_555 1_555
N2E C1E 1_555 1_555
C2E N1E 1_555 1_555
C3E C2E 1_555 1_555
C4E C3E 1_555 1_555
C5E C4E 1_555 1_555
C6E C5E 1_555 1_555
C7E N2E 1_555 1_555
C8E C5E 1_555 1_555
N3E Zn1E 1_555 1_555
N4E N3E 1_555 1_555
C9E N4E 1_555 1_555
C10E C9E 1_555 1_555
C11E N3E 1_555 1_555
N5C Zn3C 1_555 1_555
N5E Zn3E 1_555 1_555
N6C N5C 1_555 1_555
C12C Zn4 1_555 1_555
C12B Zn4A 1_555 1_555
C13C C12C 1_555 1_555
C14C N5C 1_555 1_555
N7C Zn3 1_555 1_555
N7F Zn3E 1_555 1_555
N8C C15C 1_555 1_555
N8A Zn2A 1_555 1_555
C15C N7C 1_555 1_555
C16C N7C 1_555 1_555
C17C C16C 1_555 1_555
C18C C17C 1_555 1_555
C19C C18C 1_555 1_555
C20C C19C 1_555 1_555
C21C N8C 1_555 1_555
N9E Zn1E 1_555 1_555
N10E Zn3E 1_555 1_555
C22E N9E 1_555 1_555
C23E N10E 1_555 1_555
C24E N9E 1_555 1_555
N11F Zn4 1_555 1_555
N11G Zn4A 1_555 1_555
N12F N11F 1_555 1_555
C25F N12F 1_555 1_555
C25A Zn2A 1_555 1_555
C26F C25F 1_555 1_555
C27F N11F 1_555 1_555
N13A C28 1_555 1_555
N15E Zn3 1_555 1_555
N16E C29E 1_555 1_555
N16E_2 Zn1E 1_555 1_555
C29E N15E 1_555 1_555
C30E N15E 1_555 1_555
C31E C30E 1_555 1_555
C32E C31E 1_555 1_555
C33E C32E 1_555 1_555
C34E C33E 1_555 1_555
C35E N16E 1_555 1_555
C36E C32E 1_555 1_555
N17A C38 1_555 1_555
C37A C37 1_555 1_555
C2 C7 1_555 1_555
C6 C7 1_555 1_555
C10 C11 1_555 1_555
C16 C21 1_555 1_555
C20 C21 1_555 1_555
N10 C24 1_555 1_555
C22 C23 1_555 1_555
C26 C27 1_555 1_555
C30 C35 1_555 1_555
C34 C35 1_555 1_555
Zn2A N17A 1_555 1_555
Zn4A N13A 1_555 1_555
C2E C7E 1_555 1_555
C6E C7E 1_555 1_555
C10E C11E 1_555 1_555
N6C C12C 1_555 1_555
C13C C14C 1_555 1_555
C16C C21C 1_555 1_555
C20C C21C 1_555 1_555
N10E C24E 1_555 1_555
C22E C23E 1_555 1_555
C26F C27F 1_555 1_555
C30E C35E 1_555 1_555
C34E C35E 1_555 1_555
N17A C37A 1_555 1_555

#END
