
#######################################################################
#
#                 Cambridge Crystallographic Data Centre
#                                CCDC 
#
#######################################################################
#
# If this CIF has been generated from an entry in the Cambridge 
# Structural Database, then it will include bibliographic, chemical, 
# crystal, experimental, refinement or atomic coordinate data resulting 
# from the CCDC's data processing and validation procedures.
#
#######################################################################

data_AXUHIL
_chemical_formula_moiety         '(C117 H157 Cd4 N7 O30 S8)n'
_symmetry_cell_setting           monoclinic
_symmetry_space_group_name_H-M   'P 21/n'
_symmetry_Int_Tables_number      14
_space_group_name_Hall           '-P 2yn'
loop_
_symmetry_equiv_pos_site_id
_symmetry_equiv_pos_as_xyz
1 x,y,z
2 1/2-x,1/2+y,1/2-z
3 -x,-y,-z
4 1/2+x,1/2-y,1/2+z
_cell_length_a                   20.3454(16)
_cell_length_b                   14.9971(12)
_cell_length_c                   22.4622(17)
_cell_angle_alpha                90
_cell_angle_beta                 103.852(5)
_cell_angle_gamma                90
_cell_volume                     6654.39
loop_
_atom_site_label
_atom_site_type_symbol
_atom_site_fract_x
_atom_site_fract_y
_atom_site_fract_z
Cd1 Cd 0.90141(4) 0.22896(6) 0.79383(4)
Cd2 Cd 1.01017(4) 0.28437(5) 0.68638(4)
S1 S 0.93542(12) 0.36311(17) 0.50154(12)
S2 S 0.73909(13) 0.43452(16) 0.29207(11)
S3 S 0.54965(11) 0.50374(15) 0.43086(11)
S4 S 0.74793(14) 0.41861(18) 0.64348(11)
O1 O 0.8410(4) 0.3031(4) 0.5675(3)
O2 O 0.8977(4) 0.2902(5) 0.6900(3)
O3 O 0.8146(4) 0.2106(5) 0.7063(4)
O4 O 0.8602(3) 0.4742(4) 0.3951(3)
O5 O 0.9135(4) 0.6360(5) 0.3728(4)
O6 O 0.9690(4) 0.5745(5) 0.3124(4)
O7 O 0.6463(3) 0.3807(4) 0.3694(3)
O8 O 0.5930(4) 0.3039(5) 0.2547(3)
O9 O 0.5136(3) 0.2394(5) 0.2894(3)
O10 O 0.6757(3) 0.5410(4) 0.5409(3)
O11 O 0.6725(4) 0.6250(6) 0.6533(4)
O12 O 0.5843(4) 0.6998(5) 0.6079(3)
C1 C 0.8444(5) 0.3948(6) 0.5728(4)
C2 C 0.8090(5) 0.4509(6) 0.6033(4)
C3 C 0.8222(5) 0.5425(7) 0.6030(4)
H1 H 0.7982 0.5804 0.6243
C4 C 0.8671(5) 0.5815(6) 0.5743(5)
C5 C 0.9011(4) 0.5237(6) 0.5434(5)
H2 H 0.9327 0.5475 0.5227
C6 C 0.8900(5) 0.4322(6) 0.5421(4)
C7 C 0.8367(4) 0.3868(6) 0.3956(4)
C8 C 0.8679(4) 0.3274(6) 0.4409(4)
C9 C 0.8451(5) 0.2400(6) 0.4369(5)
H3 H 0.8662 0.1990 0.4679
C10 C 0.7927(5) 0.2101(6) 0.3896(5)
C11 C 0.7607(5) 0.2722(6) 0.3464(4)
H4 H 0.7237 0.2541 0.3143
C12 C 0.7821(5) 0.3602(6) 0.3497(4)
C13 C 0.6485(4) 0.4718(6) 0.3641(4)
C14 C 0.6961(4) 0.5049(6) 0.3341(4)
C15 C 0.7073(5) 0.5958(6) 0.3310(4)
H5 H 0.7411 0.6163 0.3116
C16 C 0.6706(5) 0.6574(6) 0.3556(4)
C17 C 0.6242(5) 0.6245(6) 0.3861(4)
H6 H 0.5985 0.6656 0.4034
C18 C 0.6137(4) 0.5330(6) 0.3925(4)
C19 C 0.6461(4) 0.4597(6) 0.5396(4)
C20 C 0.5898(4) 0.4328(6) 0.4919(4)
C21 C 0.5613(4) 0.3488(6) 0.4942(4)
H7 H 0.5223 0.3326 0.4635
C22 C 0.5885(5) 0.2877(6) 0.5402(5)
C23 C 0.6454(5) 0.3134(7) 0.5844(5)
H8 H 0.6649 0.2723 0.6159
C24 C 0.6748(5) 0.3965(6) 0.5844(4)
C25 C 0.8110(5) 0.2461(7) 0.6039(5)
H9 H 0.8130 0.1840 0.5894
H10 H 0.7627 0.2623 0.5977
C26 C 0.8439(6) 0.2498(7) 0.6709(5)
C27 C 0.9084(5) 0.4781(7) 0.3585(5)
H11 H 0.8886 0.4501 0.3182
H12 H 0.9489 0.4432 0.3787
C28 C 0.9296(5) 0.5714(7) 0.3482(4)
C29 C 0.5841(5) 0.3355(7) 0.3563(5)
H13 H 0.5484 0.3784 0.3602
H14 H 0.5861 0.2891 0.3881
C30 C 0.5630(5) 0.2921(6) 0.2955(5)
C31 C 0.6352(5) 0.6176(6) 0.5449(4)
H15 H 0.5885 0.6053 0.5212
H16 H 0.6526 0.6680 0.5246
C32 C 0.6321(5) 0.6472(7) 0.6077(5)
C33 C 0.8769(5) 0.6822(7) 0.5719(5)
C34 C 0.8368(6) 0.7326(7) 0.6106(7)
H17 H 0.8439 0.7969 0.6072
H18 H 0.8523 0.7143 0.6536
H19 H 0.7885 0.7190 0.5959
C35 C 0.9505(6) 0.7073(7) 0.5969(6)
H20 H 0.9555 0.7721 0.5947
H21 H 0.9783 0.6781 0.5725
H22 H 0.9652 0.6878 0.6397
C36 C 0.8526(7) 0.7096(8) 0.5053(6)
H23 H 0.8575 0.7743 0.5017
H24 H 0.8049 0.6932 0.4903
H25 H 0.8797 0.6791 0.4808
C37 C 0.7715(6) 0.1120(7) 0.3850(6)
C38 C 0.8246(8) 0.0584(11) 0.3587(8)
H26 H 0.8262 0.0827 0.3185
H27 H 0.8114 -0.0045 0.3542
H28 H 0.8694 0.0636 0.3868
C39 C 0.7063(6) 0.0960(7) 0.3380(7)
H29 H 0.7102 0.1197 0.2983
H30 H 0.6692 0.1261 0.3507
H31 H 0.6972 0.0318 0.3343
C40 C 0.7714(9) 0.0741(12) 0.4434(8)
H32 H 0.8151 0.0855 0.4721
H33 H 0.7639 0.0097 0.4390
H34 H 0.7352 0.1013 0.4592
C41 C 0.6802(6) 0.7588(7) 0.3472(5)
C42 C 0.6735(7) 0.8101(7) 0.4041(6)
H35 H 0.7087 0.7902 0.4395
H36 H 0.6288 0.7988 0.4117
H37 H 0.6788 0.8740 0.3976
C43 C 0.7507(7) 0.7786(7) 0.3391(6)
H38 H 0.7844 0.7582 0.3753
H39 H 0.7557 0.8429 0.3339
H40 H 0.7575 0.7473 0.3027
C44 C 0.6278(7) 0.7898(8) 0.2933(7)
H41 H 0.5828 0.7768 0.2996
H42 H 0.6336 0.7588 0.2564
H43 H 0.6325 0.8542 0.2881
C45 C 0.5594(5) 0.1944(6) 0.5399(5)
C46 C 0.5566(9) 0.1495(11) 0.4817(8)
H44 H 0.6025 0.1438 0.4755
H45 H 0.5288 0.1845 0.4481
H46 H 0.5368 0.0901 0.4823
C47 C 0.4890(7) 0.1979(10) 0.5461(8)
H47 H 0.4876 0.2280 0.5845
H48 H 0.4714 0.1371 0.5465
H49 H 0.4611 0.2309 0.5115
C48 C 0.5986(8) 0.1336(10) 0.5892(8)
H50 H 0.6000 0.1595 0.6295
H51 H 0.6449 0.1267 0.5841
H52 H 0.5765 0.0752 0.5860
N1 N 0.9885(4) 0.1858(6) 0.6106(4)
H53 H 0.9627 0.1402 0.6204
H54 H 0.9641 0.2128 0.5755
C49 C 1.0513(6) 0.1489(7) 0.5994(5)
H55 H 1.0701 0.1056 0.6324
H56 H 1.0845 0.1979 0.6023
C50 C 1.0439(6) 0.1032(8) 0.5387(6)
H57 H 1.0241 0.1459 0.5057
H58 H 1.0895 0.0868 0.5339
C51 C 1.0019(6) 0.0235(8) 0.5311(6)
H59 H 0.9557 0.0399 0.5339
H60 H 1.0206 -0.0187 0.5648
O13 O 0.9428(4) 0.0936(6) 0.7671(4)
N2 N 0.9571(5) -0.0542(7) 0.7634(5)
C52 C 0.9289(6) 0.0189(9) 0.7804(5)
H61 H 0.8963 0.0119 0.8041
C53 C 1.0071(7) -0.0510(10) 0.7289(6)
H62 H 1.0207 -0.1118 0.7212
H63 H 1.0466 -0.0179 0.7519
H64 H 0.9885 -0.0210 0.6897
C54 C 0.9360(9) -0.1409(10) 0.7800(8)
H65 H 0.9611 -0.1874 0.7641
H66 H 0.8874 -0.1485 0.7623
H67 H 0.9452 -0.1456 0.8247
O14 O 0.8937(5) 0.3764(6) 0.8162(4)
N3 N 0.9513(5) 0.4949(7) 0.7894(5)
C55 C 0.9002(7) 0.4448(9) 0.7853(6)
H68 H 0.8612 0.4611 0.7546
C56 C 1.0166(7) 0.4740(10) 0.8302(6)
H69 H 1.0492 0.5209 0.8273
H70 H 1.0328 0.4167 0.8185
H71 H 1.0116 0.4704 0.8725
C57 C 0.9497(7) 0.5718(8) 0.7497(6)
H72 H 0.9937 0.6020 0.7603
H73 H 0.9143 0.6131 0.7551
H74 H 0.9401 0.5521 0.7068
Cd1B Cd 1.09859(4) -0.22896(6) 0.20617(4)
Cd1A Cd 0.59859(4) 0.72896(6) 0.70617(4)
Cd1A_2 Cd 1.59859(4) -0.27104(6) 0.70617(4)
Cd1C Cd 0.40141(4) 0.27104(6) 0.29383(4)
Cd1C_2 Cd 1.40141(4) -0.72896(6) 0.29383(4)
Cd2B Cd 0.98983(4) -0.28437(5) 0.31362(4)
Cd2_2 Cd 1.01017(4) -0.71563(5) 0.68638(4)
Cd2A Cd 1.48983(4) -0.21563(5) 0.81362(4)
Cd2B_2 Cd 0.98983(4) 0.71563(5) 0.31362(4)
Cd2C Cd 0.51017(4) 0.21563(5) 0.18638(4)
S1B S 1.06458(12) -0.36311(17) 0.49846(12)
S2B S 1.26091(13) -0.43452(16) 0.70793(11)
S3B S 1.45035(11) -0.50374(15) 0.56914(11)
S4B S 1.25207(14) -0.41861(18) 0.35652(11)
O1B O 1.1590(4) -0.3031(4) 0.4325(3)
O2B O 1.1023(4) -0.2902(5) 0.3100(3)
O3B O 1.1854(4) -0.2106(5) 0.2937(4)
O4B O 1.1398(3) -0.4742(4) 0.6049(3)
O5B O 1.0865(4) -0.6360(5) 0.6272(4)
O5_2 O 0.9135(4) -0.3640(5) 0.3728(4)
O5B_2 O 1.0865(4) 0.3640(5) 0.6272(4)
O6B O 1.0310(4) -0.5745(5) 0.6876(4)
O6_2 O 0.9690(4) -0.4255(5) 0.3124(4)
O6B_2 O 1.0310(4) 0.4255(5) 0.6876(4)
O7B O 1.3537(3) -0.3807(4) 0.6306(3)
O8B O 1.4070(4) -0.3039(5) 0.7453(3)
O8A O 0.9070(4) -0.1961(5) 0.2453(3)
O8C O 1.0930(4) 0.1961(5) 0.7547(3)
O9B O 1.4864(3) -0.2394(5) 0.7106(3)
O9A O 0.9864(3) -0.2606(5) 0.2106(3)
O9C O 1.0136(3) 0.2606(5) 0.7894(3)
O10B O 1.3243(3) -0.5410(4) 0.4591(3)
O11B O 1.3275(4) -0.6250(6) 0.3467(4)
O11A O 0.8275(4) 0.1250(6) 0.8467(4)
O11C O 1.1725(4) -0.1250(6) 0.1533(4)
O12B O 1.4157(4) -0.6998(5) 0.3921(3)
O12A O 0.9157(4) 0.1998(5) 0.8921(3)
O12C O 1.0843(4) -0.1998(5) 0.1079(3)
C1B C 1.1556(5) -0.3948(6) 0.4272(4)
C2B C 1.1910(5) -0.4509(6) 0.3967(4)
C3B C 1.1778(5) -0.5425(7) 0.3970(4)
H1B H 1.2018 -0.5804 0.3757
C4B C 1.1329(5) -0.5815(6) 0.4257(5)
C5B C 1.0989(4) -0.5237(6) 0.4566(5)
H2B H 1.0673 -0.5475 0.4773
C6B C 1.1100(5) -0.4322(6) 0.4579(4)
C7B C 1.1633(4) -0.3868(6) 0.6044(4)
C8B C 1.1321(4) -0.3274(6) 0.5591(4)
C9B C 1.1549(5) -0.2400(6) 0.5631(5)
H3B H 1.1338 -0.1990 0.5321
C10B C 1.2073(5) -0.2101(6) 0.6104(5)
C11B C 1.2393(5) -0.2722(6) 0.6536(4)
H4B H 1.2763 -0.2541 0.6857
C12B C 1.2179(5) -0.3602(6) 0.6503(4)
C13B C 1.3515(4) -0.4718(6) 0.6359(4)
C14B C 1.3039(4) -0.5049(6) 0.6659(4)
C15B C 1.2927(5) -0.5958(6) 0.6690(4)
H5B H 1.2589 -0.6163 0.6884
C16B C 1.3294(5) -0.6574(6) 0.6444(4)
C17B C 1.3758(5) -0.6245(6) 0.6139(4)
H6B H 1.4015 -0.6656 0.5966
C18B C 1.3863(4) -0.5330(6) 0.6075(4)
C19B C 1.3539(4) -0.4597(6) 0.4604(4)
C20B C 1.4102(4) -0.4328(6) 0.5081(4)
C21B C 1.4387(4) -0.3488(6) 0.5058(4)
H7B H 1.4777 -0.3326 0.5365
C22B C 1.4115(5) -0.2877(6) 0.4598(5)
C23B C 1.3546(5) -0.3134(7) 0.4156(5)
H8B H 1.3351 -0.2723 0.3841
C24B C 1.3252(5) -0.3965(6) 0.4156(4)
C25B C 1.1890(5) -0.2461(7) 0.3961(5)
H9B H 1.1870 -0.1840 0.4106
H10B H 1.2373 -0.2623 0.4023
C26B C 1.1561(6) -0.2498(7) 0.3291(5)
C27B C 1.0916(5) -0.4781(7) 0.6415(5)
H11B H 1.1114 -0.4501 0.6818
H12B H 1.0511 -0.4432 0.6213
C28B C 1.0704(5) -0.5714(7) 0.6518(4)
C28_2 C 0.9296(5) -0.4286(7) 0.3482(4)
C28B_2 C 1.0704(5) 0.4286(7) 0.6518(4)
C29B C 1.4159(5) -0.3355(7) 0.6437(5)
H13B H 1.4516 -0.3784 0.6398
H14B H 1.4139 -0.2891 0.6119
C30B C 1.4370(5) -0.2921(6) 0.7045(5)
C30A C 0.9370(5) -0.2079(6) 0.2045(5)
C30C C 1.0630(5) 0.2079(6) 0.7955(5)
C31B C 1.3648(5) -0.6176(6) 0.4551(4)
H15B H 1.4115 -0.6053 0.4788
H16B H 1.3474 -0.6680 0.4754
C32B C 1.3679(5) -0.6472(7) 0.3923(5)
C32A C 0.8679(5) 0.1472(7) 0.8923(5)
C32C C 1.1321(5) -0.1472(7) 0.1077(5)
C33B C 1.1231(5) -0.6822(7) 0.4281(5)
C34B C 1.1632(6) -0.7326(7) 0.3894(7)
H17B H 1.1561 -0.7969 0.3928
H18B H 1.1477 -0.7143 0.3464
H19B H 1.2115 -0.7190 0.4041
C35B C 1.0495(6) -0.7073(7) 0.4031(6)
H20B H 1.0445 -0.7721 0.4053
H21B H 1.0217 -0.6781 0.4275
H22B H 1.0348 -0.6878 0.3603
C36B C 1.1474(7) -0.7096(8) 0.4947(6)
H23B H 1.1425 -0.7743 0.4983
H24B H 1.1951 -0.6932 0.5097
H25B H 1.1203 -0.6791 0.5192
C37B C 1.2285(6) -0.1120(7) 0.6150(6)
C38B C 1.1754(8) -0.0584(11) 0.6413(8)
H26B H 1.1738 -0.0827 0.6815
H27B H 1.1886 0.0045 0.6458
H28B H 1.1306 -0.0636 0.6132
C39B C 1.2937(6) -0.0960(7) 0.6620(7)
H29B H 1.2898 -0.1197 0.7017
H30B H 1.3308 -0.1261 0.6493
H31B H 1.3028 -0.0318 0.6657
C40B C 1.2286(9) -0.0741(12) 0.5566(8)
H32B H 1.1849 -0.0855 0.5279
H33B H 1.2361 -0.0097 0.5610
H34B H 1.2648 -0.1013 0.5408
C41B C 1.3198(6) -0.7588(7) 0.6528(5)
C42B C 1.3265(7) -0.8101(7) 0.5959(6)
H35B H 1.2913 -0.7902 0.5605
H36B H 1.3712 -0.7988 0.5883
H37B H 1.3212 -0.8740 0.6024
C43B C 1.2493(7) -0.7786(7) 0.6609(6)
H38B H 1.2156 -0.7582 0.6247
H39B H 1.2443 -0.8429 0.6661
H40B H 1.2425 -0.7473 0.6973
C44B C 1.3722(7) -0.7898(8) 0.7067(7)
H41B H 1.4172 -0.7768 0.7004
H42B H 1.3664 -0.7588 0.7436
H43B H 1.3675 -0.8542 0.7119
C45B C 1.4406(5) -0.1944(6) 0.4601(5)
C46B C 1.4434(9) -0.1495(11) 0.5183(8)
H44B H 1.3975 -0.1438 0.5245
H45B H 1.4712 -0.1845 0.5519
H46B H 1.4632 -0.0901 0.5177
C47B C 1.5110(7) -0.1979(10) 0.4539(8)
H47B H 1.5124 -0.2280 0.4155
H48B H 1.5286 -0.1371 0.4535
H49B H 1.5389 -0.2309 0.4885
C48B C 1.4014(8) -0.1336(10) 0.4108(8)
H50B H 1.4000 -0.1595 0.3705
H51B H 1.3551 -0.1267 0.4159
H52B H 1.4235 -0.0752 0.4140
N1B N 1.0115(4) -0.1858(6) 0.3894(4)
H53B H 1.0373 -0.1402 0.3796
H54B H 1.0359 -0.2128 0.4245
C49B C 0.9487(6) -0.1489(7) 0.4006(5)
H55B H 0.9299 -0.1056 0.3676
H56B H 0.9155 -0.1979 0.3977
C50B C 0.9561(6) -0.1032(8) 0.4613(6)
H57B H 0.9759 -0.1459 0.4943
H58B H 0.9105 -0.0868 0.4661
C51B C 0.9981(6) -0.0235(8) 0.4689(6)
H59B H 1.0443 -0.0399 0.4661
H60B H 0.9794 0.0187 0.4352
O13B O 1.0572(4) -0.0936(6) 0.2329(4)
N2B N 1.0429(5) 0.0542(7) 0.2366(5)
C52B C 1.0711(6) -0.0189(9) 0.2196(5)
H61B H 1.1037 -0.0119 0.1959
C53B C 0.9929(7) 0.0510(10) 0.2711(6)
H62B H 0.9793 0.1118 0.2788
H63B H 0.9534 0.0179 0.2481
H64B H 1.0115 0.0210 0.3103
C54B C 1.0640(9) 0.1409(10) 0.2200(8)
H65B H 1.0389 0.1874 0.2359
H66B H 1.1126 0.1485 0.2377
H67B H 1.0548 0.1456 0.1753
O14B O 1.1063(5) -0.3764(6) 0.1838(4)
N3B N 1.0487(5) -0.4949(7) 0.2106(5)
C55B C 1.0998(7) -0.4448(9) 0.2147(6)
H68B H 1.1388 -0.4611 0.2454
C56B C 0.9834(7) -0.4740(10) 0.1698(6)
H69B H 0.9508 -0.5209 0.1727
H70B H 0.9672 -0.4167 0.1815
H71B H 0.9884 -0.4704 0.1275
C57B C 1.0503(7) -0.5718(8) 0.2503(6)
H72B H 1.0063 -0.6020 0.2397
H73B H 1.0857 -0.6131 0.2449
H74B H 1.0599 -0.5521 0.2932
O15 O 0.8668(5) 0.0297(7) 0.6075(6)
N4 N 0.7691(6) -0.0380(7) 0.6139(6)
C58 C 0.8189(11) -0.0178(15) 0.5892(11)
H75 H 0.8169 -0.0450 0.5506
C59 C 0.7132(9) -0.0886(11) 0.5793(9)
H76 H 0.6799 -0.0975 0.6038
H77 H 0.7294 -0.1467 0.5687
H78 H 0.6922 -0.0563 0.5417
C60 C 0.7623(9) -0.0150(13) 0.6714(9)
H79 H 0.7195 -0.0386 0.6775
H80 H 0.7625 0.0502 0.6751
H81 H 0.8000 -0.0400 0.7024
O16 O 0.7044(7) 0.1594(10) 0.7521(6)
H82 H 0.7160 0.2019 0.7315
H83 H 0.7409 0.1337 0.7721
loop_
_geom_bond_atom_site_label_1
_geom_bond_atom_site_label_2
_geom_bond_site_symmetry_1
_geom_bond_site_symmetry_2
Cd1 O2 1_555 1_555
Cd2 O2 1_555 1_555
S1 C6 1_555 1_555
S2 C12 1_555 1_555
S3 C18 1_555 1_555
S4 C2 1_555 1_555
O1 C1 1_555 1_555
O2 C26 1_555 1_555
O3 Cd1 1_555 1_555
O4 C7 1_555 1_555
O5 C28 1_555 1_555
O6 C28 1_555 1_555
O7 C13 1_555 1_555
O8 C30 1_555 1_555
O9 C30 1_555 1_555
O10 C19 1_555 1_555
O11 C32 1_555 1_555
O12 C32 1_555 1_555
C1 C2 1_555 1_555
C2 C3 1_555 1_555
C3 H1 1_555 1_555
C4 C3 1_555 1_555
C5 C4 1_555 1_555
H2 C5 1_555 1_555
C6 C1 1_555 1_555
C7 C8 1_555 1_555
C8 S1 1_555 1_555
C9 C8 1_555 1_555
H3 C9 1_555 1_555
C10 C9 1_555 1_555
C11 C10 1_555 1_555
H4 C11 1_555 1_555
C12 C7 1_555 1_555
C13 C14 1_555 1_555
C14 S2 1_555 1_555
C15 C14 1_555 1_555
H5 C15 1_555 1_555
C16 C15 1_555 1_555
C17 C16 1_555 1_555
H6 C17 1_555 1_555
C18 C13 1_555 1_555
C19 C20 1_555 1_555
C20 S3 1_555 1_555
C21 C20 1_555 1_555
H7 C21 1_555 1_555
C22 C21 1_555 1_555
C23 C22 1_555 1_555
H8 C23 1_555 1_555
C24 S4 1_555 1_555
C25 O1 1_555 1_555
H9 C25 1_555 1_555
H10 C25 1_555 1_555
C26 O3 1_555 1_555
C27 O4 1_555 1_555
H11 C27 1_555 1_555
H12 C27 1_555 1_555
C28 C27 1_555 1_555
C29 O7 1_555 1_555
H13 C29 1_555 1_555
H14 C29 1_555 1_555
C30 C29 1_555 1_555
C31 O10 1_555 1_555
H15 C31 1_555 1_555
H16 C31 1_555 1_555
C32 C31 1_555 1_555
C33 C4 1_555 1_555
C34 C33 1_555 1_555
H17 C34 1_555 1_555
H18 C34 1_555 1_555
H19 C34 1_555 1_555
C35 C33 1_555 1_555
H20 C35 1_555 1_555
H21 C35 1_555 1_555
H22 C35 1_555 1_555
C36 C33 1_555 1_555
H23 C36 1_555 1_555
H24 C36 1_555 1_555
H25 C36 1_555 1_555
C37 C10 1_555 1_555
C38 C37 1_555 1_555
H26 C38 1_555 1_555
H27 C38 1_555 1_555
H28 C38 1_555 1_555
C39 C37 1_555 1_555
H29 C39 1_555 1_555
H30 C39 1_555 1_555
H31 C39 1_555 1_555
C40 C37 1_555 1_555
H32 C40 1_555 1_555
H33 C40 1_555 1_555
H34 C40 1_555 1_555
C41 C16 1_555 1_555
C42 C41 1_555 1_555
H35 C42 1_555 1_555
H36 C42 1_555 1_555
H37 C42 1_555 1_555
C43 C41 1_555 1_555
H38 C43 1_555 1_555
H39 C43 1_555 1_555
H40 C43 1_555 1_555
C44 C41 1_555 1_555
H41 C44 1_555 1_555
H42 C44 1_555 1_555
H43 C44 1_555 1_555
C45 C22 1_555 1_555
C46 C45 1_555 1_555
H44 C46 1_555 1_555
H45 C46 1_555 1_555
H46 C46 1_555 1_555
C47 C45 1_555 1_555
H47 C47 1_555 1_555
H48 C47 1_555 1_555
H49 C47 1_555 1_555
C48 C45 1_555 1_555
H50 C48 1_555 1_555
H51 C48 1_555 1_555
H52 C48 1_555 1_555
N1 Cd2 1_555 1_555
H53 N1 1_555 1_555
H54 N1 1_555 1_555
C49 N1 1_555 1_555
H55 C49 1_555 1_555
H56 C49 1_555 1_555
C50 C49 1_555 1_555
H57 C50 1_555 1_555
H58 C50 1_555 1_555
C51 C50 1_555 1_555
H59 C51 1_555 1_555
H60 C51 1_555 1_555
O13 Cd1 1_555 1_555
N2 C52 1_555 1_555
C52 O13 1_555 1_555
H61 C52 1_555 1_555
C53 N2 1_555 1_555
H62 C53 1_555 1_555
H63 C53 1_555 1_555
H64 C53 1_555 1_555
C54 N2 1_555 1_555
H65 C54 1_555 1_555
H66 C54 1_555 1_555
H67 C54 1_555 1_555
O14 Cd1 1_555 1_555
N3 C55 1_555 1_555
C55 O14 1_555 1_555
H68 C55 1_555 1_555
C56 N3 1_555 1_555
H69 C56 1_555 1_555
H70 C56 1_555 1_555
H71 C56 1_555 1_555
C57 N3 1_555 1_555
H72 C57 1_555 1_555
H73 C57 1_555 1_555
H74 C57 1_555 1_555
O15 C58 1_555 1_555
N4 C58 1_555 1_555
C58 H75 1_555 1_555
C59 N4 1_555 1_555
H76 C59 1_555 1_555
H77 C59 1_555 1_555
H78 C59 1_555 1_555
C60 N4 1_555 1_555
H79 C60 1_555 1_555
H80 C60 1_555 1_555
H81 C60 1_555 1_555
O16 H82 1_555 1_555
H83 O16 1_555 1_555
Cd1B O2B 1_555 1_555
Cd1A O11 1_555 1_555
Cd1A_2 O9B 1_555 1_555
Cd1C O9 1_555 1_555
Cd1C_2 O11B 1_555 1_555
Cd2B O2B 1_555 1_555
Cd2_2 O5B 1_555 1_555
Cd2A O8B 1_555 1_555
Cd2B_2 O5 1_555 1_555
Cd2C O8 1_555 1_555
S1B C6B 1_555 1_555
S2B C12B 1_555 1_555
S3B C18B 1_555 1_555
S4B C2B 1_555 1_555
O1B C1B 1_555 1_555
O2B C26B 1_555 1_555
O3B Cd1B 1_555 1_555
O4B C7B 1_555 1_555
O5B C28B 1_555 1_555
O5_2 Cd2B 1_555 1_555
O5B_2 Cd2 1_555 1_555
O6B Cd2_2 1_555 1_555
O6_2 Cd2B 1_555 1_555
O6B_2 Cd2 1_555 1_555
O7B C13B 1_555 1_555
O8B C30B 1_555 1_555
O8A Cd2B 1_555 1_555
O8C Cd2 1_555 1_555
O9B Cd2A 1_555 1_555
O9A Cd1B 1_555 1_555
O9C Cd1 1_555 1_555
O10B C19B 1_555 1_555
O11B C32B 1_555 1_555
O11A Cd1 1_555 1_555
O11C Cd1B 1_555 1_555
O12B Cd1C_2 1_555 1_555
O12A Cd1 1_555 1_555
O12C Cd1B 1_555 1_555
C1B C2B 1_555 1_555
C2B C3B 1_555 1_555
C3B H1B 1_555 1_555
C4B C3B 1_555 1_555
C5B C4B 1_555 1_555
H2B C5B 1_555 1_555
C6B C1B 1_555 1_555
C7B C8B 1_555 1_555
C8B S1B 1_555 1_555
C9B C8B 1_555 1_555
H3B C9B 1_555 1_555
C10B C9B 1_555 1_555
C11B C10B 1_555 1_555
H4B C11B 1_555 1_555
C12B C7B 1_555 1_555
C13B C14B 1_555 1_555
C14B S2B 1_555 1_555
C15B C14B 1_555 1_555
H5B C15B 1_555 1_555
C16B C15B 1_555 1_555
C17B C16B 1_555 1_555
H6B C17B 1_555 1_555
C18B C13B 1_555 1_555
C19B C20B 1_555 1_555
C20B S3B 1_555 1_555
C21B C20B 1_555 1_555
H7B C21B 1_555 1_555
C22B C21B 1_555 1_555
C23B C22B 1_555 1_555
H8B C23B 1_555 1_555
C24B S4B 1_555 1_555
C25B O1B 1_555 1_555
H9B C25B 1_555 1_555
H10B C25B 1_555 1_555
C26B O3B 1_555 1_555
C27B O4B 1_555 1_555
H11B C27B 1_555 1_555
H12B C27B 1_555 1_555
C28B O6B 1_555 1_555
C28_2 O5_2 1_555 1_555
C28B_2 O5B_2 1_555 1_555
C29B O7B 1_555 1_555
H13B C29B 1_555 1_555
H14B C29B 1_555 1_555
C30B O9B 1_555 1_555
C30A O8A 1_555 1_555
C30C O8C 1_555 1_555
C31B O10B 1_555 1_555
H15B C31B 1_555 1_555
H16B C31B 1_555 1_555
C32B O12B 1_555 1_555
C32A O11A 1_555 1_555
C32C O11C 1_555 1_555
C33B C4B 1_555 1_555
C34B C33B 1_555 1_555
H17B C34B 1_555 1_555
H18B C34B 1_555 1_555
H19B C34B 1_555 1_555
C35B C33B 1_555 1_555
H20B C35B 1_555 1_555
H21B C35B 1_555 1_555
H22B C35B 1_555 1_555
C36B C33B 1_555 1_555
H23B C36B 1_555 1_555
H24B C36B 1_555 1_555
H25B C36B 1_555 1_555
C37B C10B 1_555 1_555
C38B C37B 1_555 1_555
H26B C38B 1_555 1_555
H27B C38B 1_555 1_555
H28B C38B 1_555 1_555
C39B C37B 1_555 1_555
H29B C39B 1_555 1_555
H30B C39B 1_555 1_555
H31B C39B 1_555 1_555
C40B C37B 1_555 1_555
H32B C40B 1_555 1_555
H33B C40B 1_555 1_555
H34B C40B 1_555 1_555
C41B C16B 1_555 1_555
C42B C41B 1_555 1_555
H35B C42B 1_555 1_555
H36B C42B 1_555 1_555
H37B C42B 1_555 1_555
C43B C41B 1_555 1_555
H38B C43B 1_555 1_555
H39B C43B 1_555 1_555
H40B C43B 1_555 1_555
C44B C41B 1_555 1_555
H41B C44B 1_555 1_555
H42B C44B 1_555 1_555
H43B C44B 1_555 1_555
C45B C22B 1_555 1_555
C46B C45B 1_555 1_555
H44B C46B 1_555 1_555
H45B C46B 1_555 1_555
H46B C46B 1_555 1_555
C47B C45B 1_555 1_555
H47B C47B 1_555 1_555
H48B C47B 1_555 1_555
H49B C47B 1_555 1_555
C48B C45B 1_555 1_555
H50B C48B 1_555 1_555
H51B C48B 1_555 1_555
H52B C48B 1_555 1_555
N1B Cd2B 1_555 1_555
H53B N1B 1_555 1_555
H54B N1B 1_555 1_555
C49B N1B 1_555 1_555
H55B C49B 1_555 1_555
H56B C49B 1_555 1_555
C50B C49B 1_555 1_555
H57B C50B 1_555 1_555
H58B C50B 1_555 1_555
C51B C51 1_555 1_555
H59B C51B 1_555 1_555
H60B C51B 1_555 1_555
O13B Cd1B 1_555 1_555
N2B C52B 1_555 1_555
C52B O13B 1_555 1_555
H61B C52B 1_555 1_555
C53B N2B 1_555 1_555
H62B C53B 1_555 1_555
H63B C53B 1_555 1_555
H64B C53B 1_555 1_555
C54B N2B 1_555 1_555
H65B C54B 1_555 1_555
H66B C54B 1_555 1_555
H67B C54B 1_555 1_555
O14B Cd1B 1_555 1_555
N3B C55B 1_555 1_555
C55B O14B 1_555 1_555
H68B C55B 1_555 1_555
C56B N3B 1_555 1_555
H69B C56B 1_555 1_555
H70B C56B 1_555 1_555
H71B C56B 1_555 1_555
C57B N3B 1_555 1_555
H72B C57B 1_555 1_555
H73B C57B 1_555 1_555
H74B C57B 1_555 1_555
Cd2 O9C 1_555 1_555
O6 Cd2B_2 1_555 1_555
O9 Cd2C 1_555 1_555
O12 Cd1A 1_555 1_555
C5 C6 1_555 1_555
C11 C12 1_555 1_555
C17 C18 1_555 1_555
C19 C24 1_555 1_555
C23 C24 1_555 1_555
C25 C26 1_555 1_555
Cd2B O9A 1_555 1_555
O6_2 C28_2 1_555 1_555
O6B_2 C28B_2 1_555 1_555
O9A C30A 1_555 1_555
O9C C30C 1_555 1_555
O12A C32A 1_555 1_555
O12C C32C 1_555 1_555
C5B C6B 1_555 1_555
C11B C12B 1_555 1_555
C17B C18B 1_555 1_555
C19B C24B 1_555 1_555
C23B C24B 1_555 1_555
C25B C26B 1_555 1_555
C27B C28B 1_555 1_555
C29B C30B 1_555 1_555
C31B C32B 1_555 1_555
C50B C51B 1_555 1_555

#END
