
#######################################################################
#
#                 Cambridge Crystallographic Data Centre
#                                CCDC 
#
#######################################################################
#
# If this CIF has been generated from an entry in the Cambridge 
# Structural Database, then it will include bibliographic, chemical, 
# crystal, experimental, refinement or atomic coordinate data resulting 
# from the CCDC's data processing and validation procedures.
#
#######################################################################

data_AXUHEH
_chemical_formula_moiety         '(C138 H155 Co3 N10 Na2 O34 S8)n'
_symmetry_cell_setting           monoclinic
_symmetry_space_group_name_H-M   'P 21/c'
_symmetry_Int_Tables_number      14
_space_group_name_Hall           '-P 2ybc'
loop_
_symmetry_equiv_pos_site_id
_symmetry_equiv_pos_as_xyz
1 x,y,z
2 -x,1/2+y,1/2-z
3 -x,-y,-z
4 x,1/2-y,1/2+z
_cell_length_a                   12.7259(2)
_cell_length_b                   36.7932(6)
_cell_length_c                   20.4626(4)
_cell_angle_alpha                90
_cell_angle_beta                 116.1040(10)
_cell_angle_gamma                90
_cell_volume                     8603.83
loop_
_atom_site_label
_atom_site_type_symbol
_atom_site_fract_x
_atom_site_fract_y
_atom_site_fract_z
N5 N 0.8487(4) 0.84795(11) 0.2761(2)
O16 O 0.8415(4) 0.90995(11) 0.2653(3)
C67 C 0.8006(10) 0.8791(3) 0.2445(6)
H69 H 0.7281 0.8777 0.2021
C68 C 0.7957(14) 0.8129(3) 0.2355(9)
H70 H 0.7262 0.8185 0.1904
H71 H 0.7735 0.7972 0.2662
H72 H 0.8533 0.8003 0.2240
C69 C 0.9396(15) 0.8434(6) 0.3446(9)
H73 H 0.9687 0.8673 0.3664
H74 H 1.0030 0.8298 0.3409
H75 H 0.9118 0.8299 0.3752
H82 H 0.1805 0.9406 0.2907
O18 O 0.1843(10) 0.0308(3) 0.2280(6)
N7 N 0.4179(10) 0.0944(3) 0.2529(8)
O19 O 0.2920(12) 0.0515(4) 0.1945(8)
C73 C 0.3014(13) 0.0828(4) 0.2217(8)
H83 H 0.2379 0.0967 0.2210
C74 C 0.4461(10) 0.1311(4) 0.2615(6)
H84 H 0.3772 0.1452 0.2556
H85 H 0.4714 0.1387 0.2247
H86 H 0.5096 0.1353 0.3101
C75 C 0.5243(13) 0.0707(4) 0.2607(9)
H87 H 0.5965 0.0848 0.2848
H88 H 0.5144 0.0632 0.2123
H89 H 0.5288 0.0490 0.2898
O20 O 0.784(3) 0.9984(10) 0.3945(19)
Co1 Co 1.0000 0.0000 0.0000
Co2 Co 0.24838(4) 0.289310(14) -0.17109(3)
Na1 Na 0.98520(15) 0.15389(4) 0.01926(9)
S1 S 0.58509(8) 0.13994(3) -0.10682(5)
S2 S 0.80816(9) 0.24292(3) 0.10617(5)
S3 S 1.14528(8) 0.25788(3) 0.00509(5)
S4 S 0.91092(8) 0.15733(3) -0.21360(5)
O1 O 0.8292(2) 0.13544(7) -0.10038(13)
O2 O 0.8889(3) 0.04210(8) -0.05975(16)
O3 O 0.9750(3) 0.09216(8) 0.00226(16)
O4 O 0.6533(2) 0.21723(7) -0.04509(14)
O5 O 0.3688(3) 0.25266(9) -0.13747(18)
O6 O 0.5378(3) 0.27942(9) -0.1165(2)
O7 O 1.0109(2) 0.21607(6) 0.07403(13)
O8 O 1.2205(2) 0.18108(8) 0.24405(14)
O9 O 1.1288(3) 0.15629(8) 0.13461(16)
O10 O 0.9441(2) 0.23082(7) -0.12986(13)
O11 O 1.1211(2) 0.25715(8) -0.17839(16)
O12 O 1.0135(3) 0.30603(9) -0.19261(18)
O13 O 1.1031(3) 0.03618(9) 0.08211(18)
H1 H 1.0744 0.0600 0.0623
H2 H 1.1384 0.0289 0.1316
C1 C 0.7488(3) 0.15612(10) -0.15713(18)
C2 C 0.7803(3) 0.17062(10) -0.20892(19)
C3 C 0.7027(3) 0.19386(11) -0.26228(19)
H3 H 0.7241 0.2034 -0.2979
C4 C 0.5947(3) 0.20352(11) -0.26507(19)
C5 C 0.5641(3) 0.18718(11) -0.2146(2)
H4 H 0.4898 0.1924 -0.2163
C6 C 0.6392(3) 0.16349(10) -0.16172(18)
C7 C 0.7033(3) 0.18925(10) 0.00414(19)
C8 C 0.6811(3) 0.15309(11) -0.01657(19)
C9 C 0.7273(4) 0.12577(11) 0.0354(2)
H5 H 0.7109 0.1011 0.0205
C10 C 0.7967(4) 0.13344(11) 0.1083(2)
C11 C 0.8239(3) 0.16990(11) 0.1273(2)
H6 H 0.8746 0.1760 0.1763
C12 C 0.7786(3) 0.19739(10) 0.0763(2)
C13 C 0.9635(3) 0.24941(9) 0.04446(19)
C14 C 0.8654(3) 0.26306(10) 0.04963(19)
C15 C 0.8151(3) 0.29586(11) 0.0158(2)
H7 H 0.7472 0.3046 0.0190
C16 C 0.8620(3) 0.31590(11) -0.0223(2)
C17 C 0.9595(3) 0.30155(11) -0.0274(2)
H8 H 0.9917 0.3144 -0.0546
C18 C 1.0104(3) 0.26951(10) 0.00566(19)
C19 C 1.0319(3) 0.20577(10) -0.10014(19)
C20 C 1.1260(3) 0.21420(9) -0.03385(19)
C21 C 1.2159(3) 0.18938(10) -0.0002(2)
H9 H 1.2794 0.1958 0.0448
C22 C 1.2163(3) 0.15539(10) -0.0300(2)
C23 C 1.1168(3) 0.14654(10) -0.0944(2)
H10 H 1.1115 0.1230 -0.1148
C24 C 1.0258(3) 0.17105(10) -0.12921(19)
C25 C 0.8166(4) 0.09703(11) -0.1156(2)
H11 H 0.8309 0.0919 -0.1585
H12 H 0.7357 0.0894 -0.1272
C26 C 0.9007(3) 0.07595(11) -0.0519(2)
C27 C 0.5355(3) 0.22361(13) -0.0571(2)
H13 H 0.5343 0.2286 -0.0099
H14 H 0.4886 0.2014 -0.0779
C28 C 0.4799(3) 0.25526(12) -0.1082(2)
C29 C 1.0951(3) 0.21862(11) 0.14981(19)
H15 H 1.0555 0.2270 0.1793
H16 H 1.1564 0.2365 0.1552
C30 C 1.1500(3) 0.18208(12) 0.1764(2)
C31 C 0.9268(3) 0.24855(12) -0.1965(2)
H17 H 0.8543 0.2632 -0.2142
H18 H 0.9160 0.2298 -0.2336
C32 C 1.0272(3) 0.27295(11) -0.18834(19)
C33 C 0.5184(3) 0.23279(13) -0.3187(2)
C34 C 0.4056(4) 0.23930(18) -0.3121(3)
H19 H 0.3599 0.2168 -0.3233
H20 H 0.3601 0.2583 -0.3465
H21 H 0.4240 0.2470 -0.2624
C35 C 0.4895(4) 0.22211(18) -0.3962(2)
H22 H 0.4460 0.1992 -0.4081
H23 H 0.5622 0.2191 -0.4012
H24 H 0.4417 0.2411 -0.4295
C36 C 0.5883(5) 0.26792(15) -0.3020(3)
H25 H 0.5412 0.2870 -0.3357
H26 H 0.6600 0.2641 -0.3078
H27 H 0.6088 0.2754 -0.2519
C37 C 0.8433(5) 0.10322(12) 0.1654(2)
C38 C 0.9139(9) 0.0757(2) 0.1440(4)
H28 H 0.9853 0.0874 0.1472
H29 H 0.8665 0.0674 0.0941
H30 H 0.9350 0.0549 0.1772
C39 C 0.7298(8) 0.0802(2) 0.1599(5)
H31 H 0.6582 0.0911 0.1226
H32 H 0.7271 0.0807 0.2070
H33 H 0.7360 0.0550 0.1466
C40 C 0.9087(13) 0.1149(2) 0.2402(4)
H34 H 0.8553 0.1178 0.2627
H35 H 0.9468 0.1382 0.2413
H36 H 0.9682 0.0967 0.2671
C41 C 0.8067(4) 0.35123(12) -0.0629(3)
C42 C 0.7192(5) 0.36619(14) -0.0380(4)
H37 H 0.7600 0.3728 0.0136
H38 H 0.6600 0.3477 -0.0448
H39 H 0.6813 0.3878 -0.0668
C43 C 0.7426(6) 0.34196(18) -0.1437(3)
H40 H 0.7984 0.3321 -0.1602
H41 H 0.7063 0.3640 -0.1714
H42 H 0.6819 0.3238 -0.1513
C44 C 0.8991(5) 0.37944(15) -0.0517(4)
H43 H 0.9415 0.3852 0.0002
H44 H 0.8618 0.4015 -0.0788
H45 H 0.9539 0.3700 -0.0693
C45 C 1.3155(3) 0.12801(11) 0.0087(2)
C46 C 1.3577(4) 0.11317(13) -0.0453(3)
H46 H 1.3881 0.1332 -0.0637
H47 H 1.2922 0.1015 -0.0861
H48 H 1.4199 0.0953 -0.0209
C47 C 1.4186(4) 0.14473(14) 0.0723(3)
H49 H 1.4498 0.1649 0.0550
H50 H 1.4796 0.1263 0.0950
H51 H 1.3931 0.1538 0.1080
C48 C 1.2667(4) 0.09676(13) 0.0368(3)
H52 H 1.3285 0.0788 0.0614
H53 H 1.2015 0.0852 -0.0043
H54 H 1.2390 0.1063 0.0711
N1 N 0.8946(3) -0.01067(9) 0.05468(19)
N2 N 0.6911(4) -0.03460(10) 0.1635(2)
H55 H 0.7267 -0.0487 0.2017
N3 N 0.5654(4) -0.10379(14) 0.4099(3)
H56 H 0.5024 -0.0918 0.4048
N4 N 0.6999(3) -0.17335(10) 0.58966(19)
C49 C 0.7059(4) -0.01089(12) 0.0549(2)
H57 H 0.6247 -0.0056 0.0297
C50 C 0.7797(4) -0.00426(11) 0.0236(2)
H58 H 0.7463 0.0057 -0.0241
C51 C 0.9390(4) -0.02476(12) 0.1224(2)
H59 H 1.0208 -0.0294 0.1465
C52 C 0.8743(4) -0.03271(12) 0.1578(2)
H60 H 0.9104 -0.0431 0.2051
C53 C 0.7537(4) -0.02566(12) 0.1251(2)
C54 C 0.5800(5) -0.02391(15) 0.1484(3)
C55 C 0.5312(4) -0.03629(13) 0.1992(2)
C56 C 0.4254(4) -0.02210(13) 0.1898(2)
H61 H 0.3859 -0.0053 0.1514
C57 C 0.3760(5) -0.03167(15) 0.2348(3)
H62 H 0.3039 -0.0211 0.2282
C58 C 0.4300(5) -0.05641(16) 0.2891(3)
H63 H 0.3946 -0.0635 0.3195
C59 C 0.5385(5) -0.07137(15) 0.3000(3)
C60 C 0.5864(5) -0.06133(14) 0.2547(3)
H64 H 0.6588 -0.0717 0.2612
C61 C 0.6035(6) -0.09758(19) 0.3589(4)
C62 C 0.6141(5) -0.12691(16) 0.4696(3)
C63 C 0.7268(5) -0.14010(16) 0.4983(3)
H65 H 0.7773 -0.1338 0.4769
C64 C 0.7653(4) -0.16240(14) 0.5580(3)
H66 H 0.8442 -0.1705 0.5780
C65 C 0.5891(4) -0.16040(15) 0.5608(3)
H67 H 0.5394 -0.1679 0.5819
C66 C 0.5448(5) -0.13704(18) 0.5027(3)
H68 H 0.4673 -0.1279 0.4855
O14 O 0.5252(4) -0.00313(14) 0.0980(2)
O15 O 0.6924(5) -0.11265(15) 0.3618(3)
Co2B Co 1.75162(4) -0.289310(14) 0.17109(3)
Co2C Co 1.24838(4) 0.210690(14) 0.32891(3)
Co2_2 Co 1.24838(4) 0.289310(14) -0.17109(3)
Co2A Co 0.75162(4) -0.210690(14) 0.67109(3)
Co2A_2 Co 0.75162(4) -0.210690(14) -0.32891(3)
Co2B_2 Co 0.75162(4) -0.289310(14) 0.17109(3)
Co2C_2 Co 1.24838(4) 0.210690(14) -0.67109(3)
Na1B Na 1.01480(15) -0.15389(4) -0.01926(9)
S1B S 1.41491(8) -0.13994(3) 0.10682(5)
S2B S 1.19184(9) -0.24292(3) -0.10617(5)
S3B S 0.85472(8) -0.25788(3) -0.00509(5)
S4B S 1.08908(8) -0.15733(3) 0.21360(5)
O1B O 1.1708(2) -0.13544(7) 0.10038(13)
O2B O 1.1111(3) -0.04210(8) 0.05975(16)
O3B O 1.0250(3) -0.09216(8) -0.00226(16)
O4B O 1.3467(2) -0.21723(7) 0.04509(14)
O5B O 1.6312(3) -0.25266(9) 0.13747(18)
O6B O 1.4622(3) -0.27942(9) 0.1165(2)
O7B O 0.9891(2) -0.21607(6) -0.07403(13)
O8B O 0.7795(2) -0.18108(8) -0.24405(14)
O8C O 0.2205(2) 0.31892(8) -0.25595(14)
O8A O 1.7795(2) -0.31892(8) 0.25595(14)
O9B O 0.8712(3) -0.15629(8) -0.13461(16)
O10B O 1.0559(2) -0.23082(7) 0.12986(13)
O11B O 0.8789(2) -0.25715(8) 0.17839(16)
O11_2 O 0.1211(2) 0.25715(8) -0.17839(16)
O11B_2 O 1.8789(2) -0.25715(8) 0.17839(16)
O12B O 0.9865(3) -0.30603(9) 0.19261(18)
O13B O 0.8969(3) -0.03618(9) -0.08211(18)
H1B H 0.9256 -0.0600 -0.0623
H2B H 0.8616 -0.0289 -0.1316
C1B C 1.2512(3) -0.15612(10) 0.15713(18)
C2B C 1.2197(3) -0.17062(10) 0.20892(19)
C3B C 1.2973(3) -0.19386(11) 0.26228(19)
H3B H 1.2759 -0.2034 0.2979
C4B C 1.4053(3) -0.20352(11) 0.26507(19)
C5B C 1.4359(3) -0.18718(11) 0.2146(2)
H4B H 1.5102 -0.1924 0.2163
C6B C 1.3608(3) -0.16349(10) 0.16172(18)
C7B C 1.2967(3) -0.18925(10) -0.00414(19)
C8B C 1.3189(3) -0.15309(11) 0.01657(19)
C9B C 1.2727(4) -0.12577(11) -0.0354(2)
H5B H 1.2891 -0.1011 -0.0205
C10B C 1.2033(4) -0.13344(11) -0.1083(2)
C11B C 1.1761(3) -0.16990(11) -0.1273(2)
H6B H 1.1254 -0.1760 -0.1763
C12B C 1.2214(3) -0.19739(10) -0.0763(2)
C13B C 1.0365(3) -0.24941(9) -0.04446(19)
C14B C 1.1346(3) -0.26306(10) -0.04963(19)
C15B C 1.1849(3) -0.29586(11) -0.0158(2)
H7B H 1.2528 -0.3046 -0.0190
C16B C 1.1380(3) -0.31590(11) 0.0223(2)
C17B C 1.0405(3) -0.30155(11) 0.0274(2)
H8B H 1.0083 -0.3144 0.0546
C18B C 0.9896(3) -0.26951(10) -0.00566(19)
C19B C 0.9681(3) -0.20577(10) 0.10014(19)
C20B C 0.8740(3) -0.21420(9) 0.03385(19)
C21B C 0.7841(3) -0.18938(10) 0.0002(2)
H9B H 0.7206 -0.1958 -0.0448
C22B C 0.7837(3) -0.15539(10) 0.0300(2)
C23B C 0.8832(3) -0.14654(10) 0.0944(2)
H10B H 0.8885 -0.1230 0.1148
C24B C 0.9742(3) -0.17105(10) 0.12921(19)
C25B C 1.1834(4) -0.09703(11) 0.1156(2)
H11B H 1.1691 -0.0919 0.1585
H12B H 1.2643 -0.0894 0.1272
C26B C 1.0993(3) -0.07595(11) 0.0519(2)
C27B C 1.4645(3) -0.22361(13) 0.0571(2)
H13B H 1.4657 -0.2286 0.0099
H14B H 1.5114 -0.2014 0.0779
C28B C 1.5201(3) -0.25526(12) 0.1082(2)
C29B C 0.9049(3) -0.21862(11) -0.14981(19)
H15B H 0.9445 -0.2270 -0.1793
H16B H 0.8436 -0.2365 -0.1552
C30B C 0.8500(3) -0.18208(12) -0.1764(2)
C31B C 1.0732(3) -0.24855(12) 0.1965(2)
H17B H 1.1457 -0.2632 0.2142
H18B H 1.0840 -0.2298 0.2336
C32B C 0.9728(3) -0.27295(11) 0.18834(19)
C33B C 1.4816(3) -0.23279(13) 0.3187(2)
C34B C 1.5944(4) -0.23930(18) 0.3121(3)
H19B H 1.6401 -0.2168 0.3233
H20B H 1.6399 -0.2583 0.3465
H21B H 1.5760 -0.2470 0.2624
C35B C 1.5105(4) -0.22211(18) 0.3962(2)
H22B H 1.5540 -0.1992 0.4081
H23B H 1.4378 -0.2191 0.4012
H24B H 1.5583 -0.2411 0.4295
C36B C 1.4117(5) -0.26792(15) 0.3020(3)
H25B H 1.4588 -0.2870 0.3357
H26B H 1.3400 -0.2641 0.3078
H27B H 1.3912 -0.2754 0.2519
C37B C 1.1567(5) -0.10322(12) -0.1654(2)
C38B C 1.0861(9) -0.0757(2) -0.1440(4)
H28B H 1.0147 -0.0874 -0.1472
H29B H 1.1335 -0.0674 -0.0941
H30B H 1.0650 -0.0549 -0.1772
C39B C 1.2702(8) -0.0802(2) -0.1599(5)
H31B H 1.3418 -0.0911 -0.1226
H32B H 1.2729 -0.0807 -0.2070
H33B H 1.2640 -0.0550 -0.1466
C40B C 1.0913(13) -0.1149(2) -0.2402(4)
H34B H 1.1447 -0.1178 -0.2627
H35B H 1.0532 -0.1382 -0.2413
H36B H 1.0318 -0.0967 -0.2671
C41B C 1.1933(4) -0.35123(12) 0.0629(3)
C42B C 1.2808(5) -0.36619(14) 0.0380(4)
H37B H 1.2400 -0.3728 -0.0136
H38B H 1.3400 -0.3477 0.0448
H39B H 1.3187 -0.3878 0.0668
C43B C 1.2574(6) -0.34196(18) 0.1437(3)
H40B H 1.2016 -0.3321 0.1602
H41B H 1.2937 -0.3640 0.1714
H42B H 1.3181 -0.3238 0.1513
C44B C 1.1009(5) -0.37944(15) 0.0517(4)
H43B H 1.0585 -0.3852 -0.0002
H44B H 1.1382 -0.4015 0.0788
H45B H 1.0461 -0.3700 0.0693
C45B C 0.6845(3) -0.12801(11) -0.0087(2)
C46B C 0.6423(4) -0.11317(13) 0.0453(3)
H46B H 0.6119 -0.1332 0.0637
H47B H 0.7078 -0.1015 0.0861
H48B H 0.5801 -0.0953 0.0209
C47B C 0.5814(4) -0.14473(14) -0.0723(3)
H49B H 0.5502 -0.1649 -0.0550
H50B H 0.5204 -0.1263 -0.0950
H51B H 0.6069 -0.1538 -0.1080
C48B C 0.7333(4) -0.09676(13) -0.0368(3)
H52B H 0.6715 -0.0788 -0.0614
H53B H 0.7985 -0.0852 0.0043
H54B H 0.7610 -0.1063 -0.0711
N1B N 1.1054(3) 0.01067(9) -0.05468(19)
N2B N 1.3089(4) 0.03460(10) -0.1635(2)
H55B H 1.2733 0.0487 -0.2017
N3B N 1.4346(4) 0.10379(14) -0.4099(3)
H56B H 1.4976 0.0918 -0.4048
N4B N 1.3001(3) 0.17335(10) -0.58966(19)
N4A N 0.3001(3) 0.32665(10) -0.08966(19)
N4C N 1.6999(3) -0.32665(10) 0.08966(19)
C49B C 1.2941(4) 0.01089(12) -0.0549(2)
H57B H 1.3753 0.0056 -0.0297
C50B C 1.2203(4) 0.00426(11) -0.0236(2)
H58B H 1.2537 -0.0057 0.0241
C51B C 1.0610(4) 0.02476(12) -0.1224(2)
H59B H 0.9792 0.0294 -0.1465
C52B C 1.1257(4) 0.03271(12) -0.1578(2)
H60B H 1.0896 0.0431 -0.2051
C53B C 1.2463(4) 0.02566(12) -0.1251(2)
C54B C 1.4200(5) 0.02391(15) -0.1484(3)
C55B C 1.4688(4) 0.03629(13) -0.1992(2)
C56B C 1.5746(4) 0.02210(13) -0.1898(2)
H61B H 1.6141 0.0053 -0.1514
C57B C 1.6240(5) 0.03167(15) -0.2348(3)
H62B H 1.6961 0.0211 -0.2282
C58B C 1.5700(5) 0.05641(16) -0.2891(3)
H63B H 1.6054 0.0635 -0.3195
C59B C 1.4615(5) 0.07137(15) -0.3000(3)
C60B C 1.4136(5) 0.06133(14) -0.2547(3)
H64B H 1.3412 0.0717 -0.2612
C61B C 1.3965(6) 0.09758(19) -0.3589(4)
C62B C 1.3859(5) 0.12691(16) -0.4696(3)
C63B C 1.2732(5) 0.14010(16) -0.4983(3)
H65B H 1.2227 0.1338 -0.4769
C64B C 1.2347(4) 0.16240(14) -0.5580(3)
H66B H 1.1558 0.1705 -0.5780
C65B C 1.4109(4) 0.16040(15) -0.5608(3)
H67B H 1.4606 0.1679 -0.5819
C66B C 1.4552(5) 0.13704(18) -0.5027(3)
H68B H 1.5327 0.1279 -0.4855
O14B O 1.4748(4) 0.00313(14) -0.0980(2)
O15B O 1.3076(5) 0.11265(15) -0.3618(3)
loop_
_geom_bond_atom_site_label_1
_geom_bond_atom_site_label_2
_geom_bond_site_symmetry_1
_geom_bond_site_symmetry_2
Co1 O2 1_555 1_555
Co2 O5 1_555 1_555
Na1 O1 1_555 1_555
S1 C6 1_555 1_555
S2 C12 1_555 1_555
S3 C18 1_555 1_555
S4 C2 1_555 1_555
O1 C1 1_555 1_555
O2 C26 1_555 1_555
O3 Na1 1_555 1_555
O4 C7 1_555 1_555
O5 C28 1_555 1_555
O6 C28 1_555 1_555
O7 Na1 1_555 1_555
O8 C30 1_555 1_555
O9 Na1 1_555 1_555
O10 C19 1_555 1_555
O11 C32 1_555 1_555
O12 C32 1_555 1_555
O13 Co1 1_555 1_555
H1 O13 1_555 1_555
H2 O13 1_555 1_555
C1 C2 1_555 1_555
C2 C3 1_555 1_555
C3 H3 1_555 1_555
C4 C3 1_555 1_555
C5 C4 1_555 1_555
H4 C5 1_555 1_555
C6 C1 1_555 1_555
C7 C8 1_555 1_555
C8 S1 1_555 1_555
C9 C8 1_555 1_555
H5 C9 1_555 1_555
C10 C9 1_555 1_555
C11 C10 1_555 1_555
H6 C11 1_555 1_555
C12 C7 1_555 1_555
C13 O7 1_555 1_555
C14 S2 1_555 1_555
C15 C14 1_555 1_555
H7 C15 1_555 1_555
C16 C15 1_555 1_555
C17 C16 1_555 1_555
H8 C17 1_555 1_555
C18 C13 1_555 1_555
C19 C20 1_555 1_555
C20 S3 1_555 1_555
C21 C20 1_555 1_555
H9 C21 1_555 1_555
C22 C21 1_555 1_555
C23 C22 1_555 1_555
H10 C23 1_555 1_555
C24 S4 1_555 1_555
C25 O1 1_555 1_555
H11 C25 1_555 1_555
H12 C25 1_555 1_555
C26 O3 1_555 1_555
C27 O4 1_555 1_555
H13 C27 1_555 1_555
H14 C27 1_555 1_555
C28 C27 1_555 1_555
C29 O7 1_555 1_555
H15 C29 1_555 1_555
H16 C29 1_555 1_555
C30 O9 1_555 1_555
C31 O10 1_555 1_555
H17 C31 1_555 1_555
H18 C31 1_555 1_555
C32 C31 1_555 1_555
C33 C4 1_555 1_555
C34 C33 1_555 1_555
H19 C34 1_555 1_555
H20 C34 1_555 1_555
H21 C34 1_555 1_555
C35 C33 1_555 1_555
H22 C35 1_555 1_555
H23 C35 1_555 1_555
H24 C35 1_555 1_555
C36 C33 1_555 1_555
H25 C36 1_555 1_555
H26 C36 1_555 1_555
H27 C36 1_555 1_555
C37 C10 1_555 1_555
C38 C37 1_555 1_555
H28 C38 1_555 1_555
H29 C38 1_555 1_555
H30 C38 1_555 1_555
C39 C37 1_555 1_555
H31 C39 1_555 1_555
H32 C39 1_555 1_555
H33 C39 1_555 1_555
C40 C37 1_555 1_555
H34 C40 1_555 1_555
H35 C40 1_555 1_555
H36 C40 1_555 1_555
C41 C16 1_555 1_555
C42 C41 1_555 1_555
H37 C42 1_555 1_555
H38 C42 1_555 1_555
H39 C42 1_555 1_555
C43 C41 1_555 1_555
H40 C43 1_555 1_555
H41 C43 1_555 1_555
H42 C43 1_555 1_555
C44 C41 1_555 1_555
H43 C44 1_555 1_555
H44 C44 1_555 1_555
H45 C44 1_555 1_555
C45 C22 1_555 1_555
C46 C45 1_555 1_555
H46 C46 1_555 1_555
H47 C46 1_555 1_555
H48 C46 1_555 1_555
C47 C45 1_555 1_555
H49 C47 1_555 1_555
H50 C47 1_555 1_555
H51 C47 1_555 1_555
C48 C45 1_555 1_555
H52 C48 1_555 1_555
H53 C48 1_555 1_555
H54 C48 1_555 1_555
N1 Co1 1_555 1_555
N2 H55 1_555 1_555
N3 H56 1_555 1_555
N4 C64 1_555 1_555
C49 H57 1_555 1_555
C50 N1 1_555 1_555
H58 C50 1_555 1_555
C51 N1 1_555 1_555
H59 C51 1_555 1_555
C52 C51 1_555 1_555
H60 C52 1_555 1_555
C53 N2 1_555 1_555
C54 N2 1_555 1_555
C55 C54 1_555 1_555
C56 C55 1_555 1_555
H61 C56 1_555 1_555
C57 C56 1_555 1_555
H62 C57 1_555 1_555
C58 C57 1_555 1_555
H63 C58 1_555 1_555
C59 C58 1_555 1_555
C60 C55 1_555 1_555
H64 C60 1_555 1_555
C61 N3 1_555 1_555
C62 N3 1_555 1_555
C63 C62 1_555 1_555
H65 C63 1_555 1_555
C64 C63 1_555 1_555
H66 C64 1_555 1_555
C65 N4 1_555 1_555
H67 C65 1_555 1_555
C66 C62 1_555 1_555
H68 C66 1_555 1_555
O14 C54 1_555 1_555
O15 C61 1_555 1_555
N5 C67 1_555 1_555
O16 C67 1_555 1_555
C67 H69 1_555 1_555
C68 N5 1_555 1_555
H70 C68 1_555 1_555
H71 C68 1_555 1_555
H72 C68 1_555 1_555
C69 N5 1_555 1_555
H73 C69 1_555 1_555
H74 C69 1_555 1_555
H75 C69 1_555 1_555
N7 C73 1_555 1_555
O19 C73 1_555 1_555
C73 H83 1_555 1_555
C74 N7 1_555 1_555
H84 C74 1_555 1_555
H85 C74 1_555 1_555
H86 C74 1_555 1_555
C75 N7 1_555 1_555
H87 C75 1_555 1_555
H88 C75 1_555 1_555
H89 C75 1_555 1_555
Co2B O5B 1_555 1_555
Co2C O8 1_555 1_555
Co2_2 O11 1_555 1_555
Co2A N4 1_555 1_555
Co2A_2 O8B 1_555 1_555
Co2B_2 O11B 1_555 1_555
Co2C_2 N4B 1_555 1_555
Na1B O1B 1_555 1_555
S1B C6B 1_555 1_555
S2B C12B 1_555 1_555
S3B C18B 1_555 1_555
S4B C2B 1_555 1_555
O1B C1B 1_555 1_555
O2B Co1 1_555 1_555
O3B Na1B 1_555 1_555
O4B C7B 1_555 1_555
O5B C28B 1_555 1_555
O6B C28B 1_555 1_555
O7B Na1B 1_555 1_555
O8B C30B 1_555 1_555
O8C Co2 1_555 1_555
O8A Co2B 1_555 1_555
O9B Na1B 1_555 1_555
O10B C19B 1_555 1_555
O11B C32B 1_555 1_555
O11_2 Co2 1_555 1_555
O11B_2 Co2B 1_555 1_555
O12B C32B 1_555 1_555
O13B Co1 1_555 1_555
H1B O13B 1_555 1_555
H2B O13B 1_555 1_555
C1B C2B 1_555 1_555
C2B C3B 1_555 1_555
C3B H3B 1_555 1_555
C4B C3B 1_555 1_555
C5B C4B 1_555 1_555
H4B C5B 1_555 1_555
C6B C1B 1_555 1_555
C7B C8B 1_555 1_555
C8B S1B 1_555 1_555
C9B C8B 1_555 1_555
H5B C9B 1_555 1_555
C10B C9B 1_555 1_555
C11B C10B 1_555 1_555
H6B C11B 1_555 1_555
C12B C7B 1_555 1_555
C13B O7B 1_555 1_555
C14B S2B 1_555 1_555
C15B C14B 1_555 1_555
H7B C15B 1_555 1_555
C16B C15B 1_555 1_555
C17B C16B 1_555 1_555
H8B C17B 1_555 1_555
C18B C13B 1_555 1_555
C19B C20B 1_555 1_555
C20B S3B 1_555 1_555
C21B C20B 1_555 1_555
H9B C21B 1_555 1_555
C22B C21B 1_555 1_555
C23B C22B 1_555 1_555
H10B C23B 1_555 1_555
C24B S4B 1_555 1_555
C25B O1B 1_555 1_555
H11B C25B 1_555 1_555
H12B C25B 1_555 1_555
C26B O2B 1_555 1_555
C27B O4B 1_555 1_555
H13B C27B 1_555 1_555
H14B C27B 1_555 1_555
C28B C27B 1_555 1_555
C29B O7B 1_555 1_555
H15B C29B 1_555 1_555
H16B C29B 1_555 1_555
C30B O9B 1_555 1_555
C31B O10B 1_555 1_555
H17B C31B 1_555 1_555
H18B C31B 1_555 1_555
C32B C31B 1_555 1_555
C33B C4B 1_555 1_555
C34B C33B 1_555 1_555
H19B C34B 1_555 1_555
H20B C34B 1_555 1_555
H21B C34B 1_555 1_555
C35B C33B 1_555 1_555
H22B C35B 1_555 1_555
H23B C35B 1_555 1_555
H24B C35B 1_555 1_555
C36B C33B 1_555 1_555
H25B C36B 1_555 1_555
H26B C36B 1_555 1_555
H27B C36B 1_555 1_555
C37B C10B 1_555 1_555
C38B C37B 1_555 1_555
H28B C38B 1_555 1_555
H29B C38B 1_555 1_555
H30B C38B 1_555 1_555
C39B C37B 1_555 1_555
H31B C39B 1_555 1_555
H32B C39B 1_555 1_555
H33B C39B 1_555 1_555
C40B C37B 1_555 1_555
H34B C40B 1_555 1_555
H35B C40B 1_555 1_555
H36B C40B 1_555 1_555
C41B C16B 1_555 1_555
C42B C41B 1_555 1_555
H37B C42B 1_555 1_555
H38B C42B 1_555 1_555
H39B C42B 1_555 1_555
C43B C41B 1_555 1_555
H40B C43B 1_555 1_555
H41B C43B 1_555 1_555
H42B C43B 1_555 1_555
C44B C41B 1_555 1_555
H43B C44B 1_555 1_555
H44B C44B 1_555 1_555
H45B C44B 1_555 1_555
C45B C22B 1_555 1_555
C46B C45B 1_555 1_555
H46B C46B 1_555 1_555
H47B C46B 1_555 1_555
H48B C46B 1_555 1_555
C47B C45B 1_555 1_555
H49B C47B 1_555 1_555
H50B C47B 1_555 1_555
H51B C47B 1_555 1_555
C48B C45B 1_555 1_555
H52B C48B 1_555 1_555
H53B C48B 1_555 1_555
H54B C48B 1_555 1_555
N1B Co1 1_555 1_555
N2B H55B 1_555 1_555
N3B H56B 1_555 1_555
N4B C64B 1_555 1_555
N4A Co2 1_555 1_555
N4C Co2B 1_555 1_555
C49B H57B 1_555 1_555
C50B N1B 1_555 1_555
H58B C50B 1_555 1_555
C51B N1B 1_555 1_555
H59B C51B 1_555 1_555
C52B C51B 1_555 1_555
H60B C52B 1_555 1_555
C53B N2B 1_555 1_555
C54B N2B 1_555 1_555
C55B C54B 1_555 1_555
C56B C55B 1_555 1_555
H61B C56B 1_555 1_555
C57B C56B 1_555 1_555
H62B C57B 1_555 1_555
C58B C57B 1_555 1_555
H63B C58B 1_555 1_555
C59B C58B 1_555 1_555
C60B C55B 1_555 1_555
H64B C60B 1_555 1_555
C61B N3B 1_555 1_555
C62B N3B 1_555 1_555
C63B C62B 1_555 1_555
H65B C63B 1_555 1_555
C64B C63B 1_555 1_555
H66B C64B 1_555 1_555
C65B N4B 1_555 1_555
H67B C65B 1_555 1_555
C66B C62B 1_555 1_555
H68B C66B 1_555 1_555
O14B C54B 1_555 1_555
O15B C61B 1_555 1_555
C5 C6 1_555 1_555
C11 C12 1_555 1_555
C13 C14 1_555 1_555
C17 C18 1_555 1_555
C19 C24 1_555 1_555
C23 C24 1_555 1_555
C25 C26 1_555 1_555
C29 C30 1_555 1_555
C49 C50 1_555 1_555
C49 C53 1_555 1_555
C52 C53 1_555 1_555
C59 C60 1_555 1_555
C59 C61 1_555 1_555
C65 C66 1_555 1_555
O3B C26B 1_555 1_555
C5B C6B 1_555 1_555
C11B C12B 1_555 1_555
C13B C14B 1_555 1_555
C17B C18B 1_555 1_555
C19B C24B 1_555 1_555
C23B C24B 1_555 1_555
C25B C26B 1_555 1_555
C29B C30B 1_555 1_555
C49B C50B 1_555 1_555
C49B C53B 1_555 1_555
C52B C53B 1_555 1_555
C59B C60B 1_555 1_555
C59B C61B 1_555 1_555
C65B C66B 1_555 1_555

#END
