
#######################################################################
#
#                 Cambridge Crystallographic Data Centre
#                                CCDC 
#
#######################################################################
#
# If this CIF has been generated from an entry in the Cambridge 
# Structural Database, then it will include bibliographic, chemical, 
# crystal, experimental, refinement or atomic coordinate data resulting 
# from the CCDC's data processing and validation procedures.
#
#######################################################################

data_AXUHAD
_chemical_formula_moiety         '(C68 H76 Co2 N4 O16 S4)n'
_symmetry_cell_setting           tetragonal
_symmetry_space_group_name_H-M   'I 41/a c d'
_symmetry_Int_Tables_number      142
_space_group_name_Hall           '-I 4bd 2c'
loop_
_symmetry_equiv_pos_site_id
_symmetry_equiv_pos_as_xyz
1 x,y,z
2 1/2-x,-y,1/2+z
3 1/4-y,3/4+x,1/4+z
4 1/4+y,1/4-x,3/4+z
5 1/2-x,y,-z
6 x,-y,1/2-z
7 1/4+y,3/4+x,3/4-z
8 1/4-y,1/4-x,1/4-z
9 1/2+x,1/2+y,1/2+z
10 -x,1/2-y,z
11 3/4-y,1/4+x,3/4+z
12 3/4+y,3/4-x,1/4+z
13 -x,1/2+y,1/2-z
14 1/2+x,1/2-y,-z
15 3/4+y,1/4+x,1/4-z
16 3/4-y,3/4-x,3/4-z
17 -x,-y,-z
18 1/2+x,y,1/2-z
19 3/4+y,1/4-x,3/4-z
20 3/4-y,3/4+x,1/4-z
21 1/2+x,-y,z
22 -x,y,1/2+z
23 3/4-y,1/4-x,1/4+z
24 3/4+y,3/4+x,3/4+z
25 1/2-x,1/2-y,1/2-z
26 x,1/2+y,-z
27 1/4+y,3/4-x,1/4-z
28 1/4-y,1/4+x,3/4-z
29 x,1/2-y,1/2+z
30 1/2-x,1/2+y,z
31 1/4-y,3/4-x,3/4+z
32 1/4+y,1/4+x,1/4+z
_cell_length_a                   22.6129(3)
_cell_length_b                   22.6129(3)
_cell_length_c                   45.2251(6)
_cell_angle_alpha                90
_cell_angle_beta                 90
_cell_angle_gamma                90
_cell_volume                     23125.5
loop_
_atom_site_label
_atom_site_type_symbol
_atom_site_fract_x
_atom_site_fract_y
_atom_site_fract_z
Co1 Co 0.557929(14) 0.5000 0.7500
S1 S 0.64486(2) 0.34282(2) 0.625897(10)
O1 O 0.52541(5) 0.36630(5) 0.65177(2)
O2 O 0.55754(5) 0.47387(7) 0.70664(3)
O3 O 0.54207(9) 0.37664(8) 0.71001(3)
C1 C 0.52592(8) 0.36739(7) 0.62141(4)
C2 C 0.57834(8) 0.35633(8) 0.60612(4)
C3 C 0.57923(9) 0.35992(8) 0.57546(4)
H1 H 0.6150 0.3516 0.5653
C4 C 0.52956(9) 0.37519(9) 0.55932(4)
C5 C 0.47697(9) 0.38241(8) 0.57477(4)
H2 H 0.4416 0.3899 0.5641
C6 C 0.62903(8) 0.27533(8) 0.64452(4)
C7 C 0.53588(10) 0.42404(9) 0.66340(4)
H3 H 0.5015 0.4496 0.6589
H4 H 0.5710 0.4413 0.6536
C8 C 0.54571(8) 0.42303(11) 0.69623(4)
C9 C 0.53233(11) 0.38136(12) 0.52557(5)
C10 C 0.4775(4) 0.3882(5) 0.5095(2)
H5 H 0.4522 0.4169 0.5197
H6 H 0.4571 0.3500 0.5085
H7 H 0.4859 0.4022 0.4894
C11 C 0.5752(4) 0.3384(4) 0.51146(14)
H8 H 0.6118 0.3372 0.5231
H9 H 0.5842 0.3514 0.4913
H10 H 0.5575 0.2989 0.5109
C12 C 0.5692(3) 0.4401(3) 0.51966(11)
H11 H 0.6079 0.4370 0.5294
H12 H 0.5477 0.4741 0.5276
H13 H 0.5749 0.4453 0.4983
N1 N 0.96370(9) 0.5000 0.7500
N2 N 0.65195(8) 0.5000 0.7500
C13 C 0.93335(8) 0.51951(11) 0.77323(4)
H14 H 0.9547 0.5333 0.7900
C14 C 0.87228(8) 0.52070(10) 0.77414(4)
H15 H 0.8523 0.5355 0.7911
C15 C 0.84062(10) 0.5000 0.7500
C16 C 0.77495(10) 0.5000 0.7500
C17 C 0.74358(8) 0.54468(9) 0.76337(5)
H16 H 0.7637 0.5763 0.7729
C18 C 0.68280(8) 0.54316(9) 0.76282(5)
H17 H 0.6617 0.5745 0.7720
O4 O 0.55748(6) 0.41077(7) 0.76534(3)
H18 H 0.5579 0.3907 0.7502
H19 H 0.5385 0.3927 0.7787
Co1S Co 0.2500 0.307929(14) 0.5000
Co1Q Co 1.057929(14) 0.5000 0.7500
Co1I Co 0.442071(14) -0.0000 0.7500
Co1Z Co 0.7500 0.192071(14) 0.5000
Co1Q_2 Co 0.057929(14) 0.5000 0.7500
S1S S 0.40718(2) 0.39486(2) 0.624103(10)
S1I S 0.35514(2) 0.15718(2) 0.625897(10)
S1Z S 0.59282(2) 0.10514(2) 0.624103(10)
O1S O 0.38370(5) 0.27541(5) 0.59823(2)
O1I O 0.47459(5) 0.13370(5) 0.65177(2)
O1Z O 0.61630(5) 0.22459(5) 0.59823(2)
O2S O 0.27613(7) 0.30754(5) 0.54336(3)
O2I O 0.44246(5) 0.02613(7) 0.70664(3)
O2Z O 0.72387(7) 0.19246(5) 0.54336(3)
O2E O 0.55754(5) 0.52613(7) 0.79336(3)
O2W O 0.22387(7) 0.30754(5) 0.45664(3)
O3S O 0.37336(8) 0.29207(9) 0.53999(3)
O3I O 0.45793(9) 0.12336(8) 0.71001(3)
O3Z O 0.62664(8) 0.20793(9) 0.53999(3)
C1S C 0.38261(7) 0.27592(8) 0.62859(4)
C1I C 0.47408(8) 0.13261(7) 0.62141(4)
C1Z C 0.61739(7) 0.22408(8) 0.62859(4)
C2S C 0.39367(8) 0.32834(8) 0.64388(4)
C2I C 0.42166(8) 0.14367(8) 0.60612(4)
C2Z C 0.60633(8) 0.17166(8) 0.64388(4)
C3Z C 0.60992(8) 0.17077(9) 0.67454(4)
C3I C 0.42077(9) 0.14008(8) 0.57546(4)
C3S C 0.39008(8) 0.32923(9) 0.67454(4)
H1Z H 0.6016 0.1350 0.6847
H1I H 0.3850 0.1484 0.5653
H1S H 0.3984 0.3650 0.6847
C4Z C 0.62519(9) 0.22044(9) 0.69068(4)
C4I C 0.47044(9) 0.12481(9) 0.55932(4)
C4S C 0.37481(9) 0.27956(9) 0.69068(4)
C5Z C 0.63241(8) 0.27303(9) 0.67523(4)
C5I C 0.52303(9) 0.11759(8) 0.57477(4)
C5S C 0.36759(8) 0.22697(9) 0.67523(4)
H2Z H 0.6399 0.3084 0.6859
H2I H 0.5584 0.1101 0.5641
H2S H 0.3601 0.1916 0.6859
C6S C 0.47467(8) 0.37903(8) 0.60548(4)
C6I C 0.37097(8) 0.22467(8) 0.64452(4)
C6Z C 0.52533(8) 0.12097(8) 0.60548(4)
C7S C 0.32596(9) 0.28588(10) 0.58660(4)
C7I C 0.46412(10) 0.07596(9) 0.66340(4)
C7Z C 0.67404(9) 0.21412(10) 0.58660(4)
H3S H 0.3004 0.2515 0.5911
H3I H 0.4985 0.0504 0.6589
H3Z H 0.6996 0.2485 0.5911
H4S H 0.3087 0.3210 0.5964
H4I H 0.4290 0.0587 0.6536
H4Z H 0.6913 0.1790 0.5964
C8S C 0.32697(11) 0.29571(8) 0.55377(4)
C8I C 0.45429(8) 0.07697(11) 0.69623(4)
C8Z C 0.67303(11) 0.20429(8) 0.55377(4)
C9Z C 0.63136(12) 0.21767(11) 0.72443(5)
C9I C 0.46767(11) 0.11864(12) 0.52557(5)
C9S C 0.36864(12) 0.28233(11) 0.72443(5)
C10Z C 0.6382(5) 0.2725(4) 0.7405(2)
C10I C 0.5225(4) 0.1118(5) 0.5095(2)
C10S C 0.3618(5) 0.2275(4) 0.7405(2)
H5Z H 0.6669 0.2978 0.7303
H5I H 0.5478 0.0831 0.5197
H5S H 0.3331 0.2022 0.7303
H6Z H 0.6000 0.2929 0.7415
H6I H 0.5429 0.1500 0.5085
H6S H 0.4000 0.2071 0.7415
H7Z H 0.6522 0.2641 0.7606
H7I H 0.5141 0.0978 0.4894
H7S H 0.3478 0.2359 0.7606
C11Z C 0.5884(4) 0.1748(4) 0.73854(14)
C11I C 0.4248(4) 0.1616(4) 0.51146(14)
C11S C 0.4116(4) 0.3252(4) 0.73854(14)
H8Z H 0.5872 0.1382 0.7269
H8I H 0.3882 0.1628 0.5231
H8S H 0.4128 0.3618 0.7269
H9Z H 0.6014 0.1658 0.7587
H9I H 0.4158 0.1486 0.4913
H9S H 0.3986 0.3342 0.7587
H10Z H 0.5489 0.1925 0.7391
H10I H 0.4425 0.2011 0.5109
H10S H 0.4511 0.3075 0.7391
C12Z C 0.6901(3) 0.1808(3) 0.73034(11)
C12I C 0.4308(3) 0.0599(3) 0.51966(11)
C12S C 0.3099(3) 0.3192(3) 0.73034(11)
H11Z H 0.6870 0.1421 0.7206
H11I H 0.3921 0.0630 0.5294
H11S H 0.3130 0.3579 0.7206
H12Z H 0.7241 0.2023 0.7224
H12I H 0.4523 0.0259 0.5276
H12S H 0.2759 0.2977 0.7224
H13Z H 0.6953 0.1751 0.7517
H13I H 0.4251 0.0547 0.4983
H13S H 0.3047 0.3249 0.7517
N1Q N 0.46370(9) 0.5000 0.7500
N1J N 0.2500 0.21370(9) 0.5000
N2Q N 0.15195(8) 0.5000 0.7500
N2S N 0.2500 0.40195(8) 0.5000
C13E C 0.93335(8) 0.48049(11) 0.72677(4)
C13Q C 0.43335(8) 0.51951(11) 0.72677(4)
C13T C 0.43335(8) 0.48049(11) 0.77323(4)
H14E H 0.9547 0.4667 0.7100
H14Q H 0.4547 0.5333 0.7100
H14T H 0.4547 0.4667 0.7900
C14E C 0.87228(8) 0.47930(10) 0.72586(4)
C14Q C 0.37228(8) 0.52070(10) 0.72586(4)
C14T C 0.37228(8) 0.47930(10) 0.77414(4)
H15E H 0.8523 0.4645 0.7089
H15Q H 0.3523 0.5355 0.7089
H15T H 0.3523 0.4645 0.7911
C15Q C 0.34062(10) 0.5000 0.7500
C16Q C 0.27495(10) 0.5000 0.7500
C17E C 0.74358(8) 0.45532(9) 0.73663(5)
C17Q C 0.24358(8) 0.54468(9) 0.73663(5)
C17T C 0.24358(8) 0.45532(9) 0.76337(5)
H16E H 0.7637 0.4237 0.7271
H16Q H 0.2637 0.5763 0.7271
H16T H 0.2637 0.4237 0.7729
C18E C 0.68280(8) 0.45684(9) 0.73718(5)
C18Q C 0.18280(8) 0.54316(9) 0.73718(5)
C18T C 0.18280(8) 0.45684(9) 0.76282(5)
H17E H 0.6617 0.4255 0.7280
H17Q H 0.1617 0.5745 0.7280
H17T H 0.1617 0.4255 0.7720
O4E O 0.55748(6) 0.58923(7) 0.73466(3)
O4S O 0.33923(7) 0.30748(6) 0.48466(3)
O4W O 0.16077(7) 0.30748(6) 0.51534(3)
H18E H 0.5579 0.6093 0.7498
H18S H 0.3593 0.3079 0.4998
H18W H 0.1407 0.3079 0.5002
H19E H 0.5385 0.6073 0.7213
H19S H 0.3573 0.2885 0.4713
H19W H 0.1427 0.2885 0.5287
loop_
_geom_bond_atom_site_label_1
_geom_bond_atom_site_label_2
_geom_bond_site_symmetry_1
_geom_bond_site_symmetry_2
Co1 O2 1_555 1_555
S1 C2 1_555 1_555
O1 C1 1_555 1_555
O2 C8 1_555 1_555
O3 C8 1_555 1_555
C1 C2 1_555 1_555
C2 C3 1_555 1_555
C3 H1 1_555 1_555
C4 C3 1_555 1_555
C5 C4 1_555 1_555
H2 C5 1_555 1_555
C6 S1 1_555 1_555
C7 O1 1_555 1_555
H3 C7 1_555 1_555
H4 C7 1_555 1_555
C8 C7 1_555 1_555
C9 C4 1_555 1_555
C10 C9 1_555 1_555
H5 C10 1_555 1_555
H6 C10 1_555 1_555
H7 C10 1_555 1_555
C11 C9 1_555 1_555
H8 C11 1_555 1_555
H9 C11 1_555 1_555
H10 C11 1_555 1_555
C12 C9 1_555 1_555
H11 C12 1_555 1_555
H12 C12 1_555 1_555
H13 C12 1_555 1_555
N1 C13 1_555 1_555
N2 Co1 1_555 1_555
C13 H14 1_555 1_555
C14 C13 1_555 1_555
H15 C14 1_555 1_555
C15 C14 1_555 1_555
C16 C15 1_555 1_555
C17 C16 1_555 1_555
H16 C17 1_555 1_555
C18 N2 1_555 1_555
H17 C18 1_555 1_555
O4 Co1 1_555 1_555
H18 O4 1_555 1_555
H19 O4 1_555 1_555
Co1S O2S 1_555 1_555
Co1Q N1 1_555 1_555
Co1I O2I 1_555 1_555
Co1Z O2Z 1_555 1_555
Co1Q_2 N2Q 1_555 1_555
S1S C2S 1_555 1_555
S1I C2I 1_555 1_555
S1Z C2Z 1_555 1_555
O1S C1S 1_555 1_555
O1I C1I 1_555 1_555
O1Z C1Z 1_555 1_555
O2S C8S 1_555 1_555
O2I C8I 1_555 1_555
O2Z C8Z 1_555 1_555
O2E Co1 1_555 1_555
O2W Co1S 1_555 1_555
O3S C8S 1_555 1_555
O3I C8I 1_555 1_555
O3Z C8Z 1_555 1_555
C1S C2S 1_555 1_555
C1I C2I 1_555 1_555
C1Z C6 1_555 1_555
C2S C3S 1_555 1_555
C2I C3I 1_555 1_555
C2Z C1Z 1_555 1_555
C3Z C2Z 1_555 1_555
C3I H1I 1_555 1_555
C3S H1S 1_555 1_555
H1Z C3Z 1_555 1_555
C4Z C3Z 1_555 1_555
C4I C3I 1_555 1_555
C4S C3S 1_555 1_555
C5Z C6 1_555 1_555
C5I C4I 1_555 1_555
C5S C4S 1_555 1_555
H2Z C5Z 1_555 1_555
H2I C5I 1_555 1_555
H2S C5S 1_555 1_555
C6S C1 1_555 1_555
C6I S1I 1_555 1_555
C6Z S1Z 1_555 1_555
C7S O1S 1_555 1_555
C7I O1I 1_555 1_555
C7Z O1Z 1_555 1_555
H3S C7S 1_555 1_555
H3I C7I 1_555 1_555
H3Z C7Z 1_555 1_555
H4S C7S 1_555 1_555
H4I C7I 1_555 1_555
H4Z C7Z 1_555 1_555
C8S C7S 1_555 1_555
C8I C7I 1_555 1_555
C8Z C7Z 1_555 1_555
C9Z C4Z 1_555 1_555
C9I C4I 1_555 1_555
C9S C4S 1_555 1_555
C10Z C9Z 1_555 1_555
C10I C9I 1_555 1_555
C10S C9S 1_555 1_555
H5Z C10Z 1_555 1_555
H5I C10I 1_555 1_555
H5S C10S 1_555 1_555
H6Z C10Z 1_555 1_555
H6I C10I 1_555 1_555
H6S C10S 1_555 1_555
H7Z C10Z 1_555 1_555
H7I C10I 1_555 1_555
H7S C10S 1_555 1_555
C11Z C9Z 1_555 1_555
C11I C9I 1_555 1_555
C11S C9S 1_555 1_555
H8Z C11Z 1_555 1_555
H8I C11I 1_555 1_555
H8S C11S 1_555 1_555
H9Z C11Z 1_555 1_555
H9I C11I 1_555 1_555
H9S C11S 1_555 1_555
H10Z C11Z 1_555 1_555
H10I C11I 1_555 1_555
H10S C11S 1_555 1_555
C12Z C9Z 1_555 1_555
C12I C9I 1_555 1_555
C12S C9S 1_555 1_555
H11Z C12Z 1_555 1_555
H11I C12I 1_555 1_555
H11S C12S 1_555 1_555
H12Z C12Z 1_555 1_555
H12I C12I 1_555 1_555
H12S C12S 1_555 1_555
H13Z C12Z 1_555 1_555
H13I C12I 1_555 1_555
H13S C12S 1_555 1_555
N1Q Co1 1_555 1_555
N1J Co1S 1_555 1_555
N2Q C18Q 1_555 1_555
N2S Co1S 1_555 1_555
C13E N1 1_555 1_555
C13Q N1Q 1_555 1_555
C13T N1Q 1_555 1_555
H14E C13E 1_555 1_555
H14Q C13Q 1_555 1_555
H14T C13T 1_555 1_555
C14E C15 1_555 1_555
C14Q C13Q 1_555 1_555
C14T C13T 1_555 1_555
H15E C14E 1_555 1_555
H15Q C14Q 1_555 1_555
H15T C14T 1_555 1_555
C15Q C14Q 1_555 1_555
C16Q C15Q 1_555 1_555
C17E C16 1_555 1_555
C17Q C16Q 1_555 1_555
C17T C16Q 1_555 1_555
H16E C17E 1_555 1_555
H16Q C17Q 1_555 1_555
H16T C17T 1_555 1_555
C18E N2 1_555 1_555
C18Q C17Q 1_555 1_555
C18T N2Q 1_555 1_555
H17E C18E 1_555 1_555
H17Q C18Q 1_555 1_555
H17T C18T 1_555 1_555
O4E Co1 1_555 1_555
O4S Co1S 1_555 1_555
O4W Co1S 1_555 1_555
H18E O4E 1_555 1_555
H18S O4S 1_555 1_555
H18W O4W 1_555 1_555
H19E O4E 1_555 1_555
H19S O4S 1_555 1_555
H19W O4W 1_555 1_555
C5 C6S 1_555 1_555
C17 C18 1_555 1_555
S1S C6S 1_555 1_555
C1S C6I 1_555 1_555
C1I C6Z 1_555 1_555
C4Z C5Z 1_555 1_555
C5I C6Z 1_555 1_555
C5S C6I 1_555 1_555
C13E C14E 1_555 1_555
C14T C15Q 1_555 1_555
C17E C18E 1_555 1_555
C17T C18T 1_555 1_555

#END
