
#######################################################################
#
#                 Cambridge Crystallographic Data Centre
#                                CCDC 
#
#######################################################################
#
# If this CIF has been generated from an entry in the Cambridge 
# Structural Database, then it will include bibliographic, chemical, 
# crystal, experimental, refinement or atomic coordinate data resulting 
# from the CCDC's data processing and validation procedures.
#
#######################################################################

data_CABJOH
_chemical_formula_moiety         '(C58 H42 N14 Ni4 O1 S1)n'
_symmetry_cell_setting           monoclinic
_symmetry_space_group_name_H-M   'P 21/c'
_symmetry_Int_Tables_number      14
_space_group_name_Hall           '-P 2ybc'
loop_
_symmetry_equiv_pos_site_id
_symmetry_equiv_pos_as_xyz
1 x,y,z
2 -x,1/2+y,1/2-z
3 -x,-y,-z
4 x,1/2-y,1/2+z
_cell_length_a                   6.7883(3)
_cell_length_b                   14.4840(7)
_cell_length_c                   28.9167(13)
_cell_angle_alpha                90
_cell_angle_beta                 93.2950(10)
_cell_angle_gamma                90
_cell_volume                     2838.44
loop_
_atom_site_label
_atom_site_type_symbol
_atom_site_fract_x
_atom_site_fract_y
_atom_site_fract_z
Ni1 Ni -0.00136(8) 0.77426(4) 0.25358(2)
Ni2 Ni 0.50360(8) 0.52446(4) 0.24623(2)
N1 N 0.8026(5) 0.3731(3) 0.26627(13)
N2 N 0.8602(5) 0.7270(2) 0.68631(12)
N3 N 0.7988(5) 0.6743(3) 0.27261(13)
N4 N 0.1379(5) 0.7730(3) 0.32082(13)
C1 C 0.6873(6) 0.4320(3) 0.26188(15)
N5 N 0.1912(5) 0.6719(3) 0.23576(13)
N6 N 0.6335(6) 0.5277(3) 0.17196(13)
N7 N 0.1940(6) 0.3771(3) 0.22871(13)
C2 C 0.8142(7) 0.5142(3) 0.08726(17)
C3 C 0.3345(7) 0.7745(3) 0.32818(15)
H1 H 0.4136 0.7790 0.3022
C4 C 0.6637(7) 0.7245(3) 0.67867(15)
H2 H 0.5840 0.7197 0.7045
C5 C 0.3172(7) 0.7903(3) 0.49668(16)
H3 H 0.1911 0.8185 0.4923
C6 C 0.4095(7) 0.7560(3) 0.45837(15)
C7 C 0.6827(7) 0.7075(4) 0.51037(17)
H4 H 0.8082 0.6788 0.5147
C8 C 0.5920(7) 0.7419(3) 0.54845(16)
C9 C 0.8219(7) 0.5457(3) 0.00206(16)
H5 H 0.6998 0.5774 0.0033
C10 C 0.3149(7) 0.7620(3) 0.41103(15)
C11 C 0.5721(7) 0.7288(3) 0.63483(17)
H6 H 0.4322 0.7271 0.6310
C12 C 0.9101(7) 0.5376(3) -0.03971(17)
H7 H 0.8471 0.5635 -0.0669
C13 C 0.6852(7) 0.7355(3) 0.59596(15)
C14 C 0.0310(7) 0.7666(3) 0.35795(16)
H8 H -0.1086 0.7659 0.3532
C15 C 0.4270(7) 0.7698(4) 0.37193(17)
H9 H 0.5669 0.7718 0.3755
C16 C 0.8286(7) 0.5294(4) 0.16996(17)
H10 H 0.9071 0.5353 0.1981
C17 C 0.9681(7) 0.7330(4) 0.64918(16)
H11 H 1.1077 0.7346 0.6541
C18 C 0.5279(7) 0.5192(4) 0.13165(17)
H12 H 0.3882 0.5179 0.1323
C19 C 0.9230(8) 0.5230(4) 0.12885(18)
H13 H 1.0630 0.5246 0.1293
C20 C 0.4054(7) 0.7839(3) 0.54072(16)
H14 H 0.3398 0.8082 0.5662
C21 C 0.9102(7) 0.5077(3) 0.04242(16)
C22 C 0.5948(7) 0.7139(4) 0.46605(16)
H15 H 0.6606 0.6896 0.4406
C23 C 0.6096(7) 0.5122(4) 0.08921(17)
H16 H 0.5274 0.5062 0.0617
C24 C 0.8891(7) 0.7368(4) 0.60434(16)
H17 H 0.9732 0.7402 0.5792
C25 C 0.1110(7) 0.7609(4) 0.40270(16)
H18 H 0.0272 0.7563 0.4278
C26 C 0.3104(6) 0.6150(3) 0.23815(15)
C27 C 0.6839(6) 0.6159(3) 0.26577(15)
C28 C 0.3117(6) 0.4341(3) 0.23398(14)
N6B N 1.3665(6) 0.4723(3) -0.17196(13)
C2B C 1.1858(7) 0.4858(3) -0.08726(17)
C9B C 1.1781(7) 0.4543(3) -0.00206(16)
H5B H 1.3002 0.4226 -0.0033
C12B C 1.0899(7) 0.4624(3) 0.03971(17)
H7B H 1.1529 0.4365 0.0669
C16B C 1.1714(7) 0.4706(4) -0.16996(17)
H10B H 1.0929 0.4647 -0.1981
C18B C 1.4721(7) 0.4808(4) -0.13165(17)
H12B H 1.6118 0.4821 -0.1323
C19B C 1.0770(8) 0.4770(4) -0.12885(18)
H13B H 0.9370 0.4754 -0.1293
C21B C 1.0898(7) 0.4923(3) -0.04242(16)
C23B C 1.3904(7) 0.4878(4) -0.08921(17)
H16B H 1.4726 0.4938 -0.0617
Ni1B Ni 2.00136(8) 0.22574(4) -0.25358(2)
Ni2B Ni 1.49640(8) 0.47554(4) -0.24623(2)
N1B N 1.1974(5) 0.6269(3) -0.26627(13)
N2B N 1.1398(5) 0.2730(2) -0.68631(12)
N3B N 1.2012(5) 0.3257(3) -0.27261(13)
N4B N 1.8621(5) 0.2270(3) -0.32082(13)
C1B C 1.3127(6) 0.5680(3) -0.26188(15)
N5B N 1.8088(5) 0.3281(3) -0.23576(13)
N7B N 1.8060(6) 0.6229(3) -0.22871(13)
C3B C 1.6655(7) 0.2255(3) -0.32818(15)
H1B H 1.5864 0.2210 -0.3022
C4B C 1.3363(7) 0.2755(3) -0.67867(15)
H2B H 1.4160 0.2803 -0.7045
C5B C 1.6828(7) 0.2097(3) -0.49668(16)
H3B H 1.8089 0.1815 -0.4923
C6B C 1.5905(7) 0.2440(3) -0.45837(15)
C7B C 1.3173(7) 0.2925(4) -0.51037(17)
H4B H 1.1918 0.3212 -0.5147
C8B C 1.4080(7) 0.2581(3) -0.54845(16)
C10B C 1.6851(7) 0.2380(3) -0.41103(15)
C11B C 1.4279(7) 0.2712(3) -0.63483(17)
H6B H 1.5678 0.2729 -0.6310
C13B C 1.3148(7) 0.2645(3) -0.59596(15)
C14B C 1.9690(7) 0.2334(3) -0.35795(16)
H8B H 2.1086 0.2341 -0.3532
C15B C 1.5730(7) 0.2302(4) -0.37193(17)
H9B H 1.4331 0.2282 -0.3755
C17B C 1.0319(7) 0.2670(4) -0.64918(16)
H11B H 0.8923 0.2654 -0.6541
C20B C 1.5946(7) 0.2161(3) -0.54072(16)
H14B H 1.6602 0.1918 -0.5662
C22B C 1.4052(7) 0.2861(4) -0.46605(16)
H15B H 1.3394 0.3104 -0.4406
C24B C 1.1109(7) 0.2632(4) -0.60434(16)
H17B H 1.0268 0.2598 -0.5792
C25B C 1.8890(7) 0.2391(4) -0.40270(16)
H18B H 1.9728 0.2437 -0.4278
C26B C 1.6896(6) 0.3850(3) -0.23815(15)
C27B C 1.3161(6) 0.3841(3) -0.26577(15)
C28B C 1.6883(6) 0.5659(3) -0.23398(14)
Ni1_2 Ni 0.99864(8) 0.77426(4) 0.25358(2)
Ni1A Ni 0.00136(8) 0.27426(4) 0.24642(2)
Ni1A_2 Ni 1.00136(8) 0.27426(4) -0.75358(2)
Ni1A_3 Ni 1.00136(8) 0.27426(4) 0.24642(2)
Ni1B_2 Ni 1.00136(8) 0.22574(4) -0.25358(2)
Ni1C Ni 0.99864(8) 0.72574(4) -0.24642(2)
Ni1C_2 Ni 0.99864(8) 0.72574(4) 0.75358(2)
Ni1C_3 Ni 1.99864(8) 0.72574(4) -0.24642(2)
N1A N 0.1974(5) 0.8731(3) 0.23373(13)
N1C N 1.8026(5) 0.1269(3) -0.23373(13)
N2A N 2.1398(5) 0.2270(2) -0.18631(12)
N2C N -0.1398(5) 0.7730(2) 0.18631(12)
N3_2 N -0.2012(5) 0.6743(3) 0.27261(13)
N3B_2 N 2.2012(5) 0.3257(3) -0.27261(13)
N7A N -0.1940(6) 0.8771(3) 0.27129(13)
N7C N 2.1940(6) 0.1229(3) -0.27129(13)
S1 S 1.0479(10) 0.4935(4) 0.58953(15)
C29 C 0.895(2) 0.4799(8) 0.6373(5)
H19 H 0.9064 0.5348 0.6571
H20 H 0.7578 0.4719 0.6258
H21 H 0.9381 0.4254 0.6553
C30 C 1.308(3) 0.4954(12) 0.6196(5)
H22 H 1.3148 0.5437 0.6434
H23 H 1.3363 0.4353 0.6340
H24 H 1.4051 0.5082 0.5966
O1 O 1.055(2) 0.4256(13) 0.5579(5)
loop_
_geom_bond_atom_site_label_1
_geom_bond_atom_site_label_2
_geom_bond_site_symmetry_1
_geom_bond_site_symmetry_2
Ni1 N4 1_555 1_555
Ni2 C1 1_555 1_555
N1 C1 1_555 1_555
N2 C4 1_555 1_555
N3 C27 1_555 1_555
N4 C3 1_555 1_555
N5 Ni1 1_555 1_555
N6 Ni2 1_555 1_555
N7 C28 1_555 1_555
C2 C19 1_555 1_555
C3 H1 1_555 1_555
C4 H2 1_555 1_555
C5 H3 1_555 1_555
C6 C5 1_555 1_555
C7 H4 1_555 1_555
C8 C7 1_555 1_555
C9 H5 1_555 1_555
C10 C6 1_555 1_555
C11 C4 1_555 1_555
H6 C11 1_555 1_555
C12 C9 1_555 1_555
H7 C12 1_555 1_555
C13 C8 1_555 1_555
C14 N4 1_555 1_555
H8 C14 1_555 1_555
C15 C3 1_555 1_555
H9 C15 1_555 1_555
C16 N6 1_555 1_555
H10 C16 1_555 1_555
C17 N2 1_555 1_555
H11 C17 1_555 1_555
C18 N6 1_555 1_555
H12 C18 1_555 1_555
C19 C16 1_555 1_555
H13 C19 1_555 1_555
C20 C5 1_555 1_555
H14 C20 1_555 1_555
C21 C2 1_555 1_555
C22 C6 1_555 1_555
H15 C22 1_555 1_555
C23 C2 1_555 1_555
H16 C23 1_555 1_555
C24 C13 1_555 1_555
H17 C24 1_555 1_555
C25 C10 1_555 1_555
H18 C25 1_555 1_555
C26 Ni2 1_555 1_555
C27 Ni2 1_555 1_555
C28 Ni2 1_555 1_555
S1 C29 1_555 1_555
C29 H19 1_555 1_555
H20 C29 1_555 1_555
H21 C29 1_555 1_555
C30 S1 1_555 1_555
H22 C30 1_555 1_555
H23 C30 1_555 1_555
H24 C30 1_555 1_555
O1 S1 1_555 1_555
N6B C16B 1_555 1_555
C2B C19B 1_555 1_555
C9B H5B 1_555 1_555
C12B C21 1_555 1_555
H7B C12B 1_555 1_555
C16B H10B 1_555 1_555
C18B N6B 1_555 1_555
H12B C18B 1_555 1_555
C19B C16B 1_555 1_555
H13B C19B 1_555 1_555
C21B C12 1_555 1_555
C23B C2B 1_555 1_555
H16B C23B 1_555 1_555
Ni1B N4B 1_555 1_555
Ni2B N6B 1_555 1_555
N1B C1B 1_555 1_555
N2B C4B 1_555 1_555
N3B C27B 1_555 1_555
N4B C3B 1_555 1_555
C1B Ni2B 1_555 1_555
N5B Ni1B 1_555 1_555
N7B C28B 1_555 1_555
C3B H1B 1_555 1_555
C4B H2B 1_555 1_555
C5B H3B 1_555 1_555
C6B C5B 1_555 1_555
C7B H4B 1_555 1_555
C8B C7B 1_555 1_555
C10B C6B 1_555 1_555
C11B C4B 1_555 1_555
H6B C11B 1_555 1_555
C13B C8B 1_555 1_555
C14B N4B 1_555 1_555
H8B C14B 1_555 1_555
C15B C3B 1_555 1_555
H9B C15B 1_555 1_555
C17B N2B 1_555 1_555
H11B C17B 1_555 1_555
C20B C5B 1_555 1_555
H14B C20B 1_555 1_555
C22B C6B 1_555 1_555
H15B C22B 1_555 1_555
C24B C13B 1_555 1_555
H17B C24B 1_555 1_555
C25B C10B 1_555 1_555
H18B C25B 1_555 1_555
C26B Ni2B 1_555 1_555
C27B Ni2B 1_555 1_555
C28B Ni2B 1_555 1_555
Ni1_2 N3 1_555 1_555
Ni1A N7 1_555 1_555
Ni1A_2 N2B 1_555 1_555
Ni1A_3 N1 1_555 1_555
Ni1B_2 N3B 1_555 1_555
Ni1C N1B 1_555 1_555
Ni1C_2 N2 1_555 1_555
Ni1C_3 N7B 1_555 1_555
N1A Ni1 1_555 1_555
N1C Ni1B 1_555 1_555
N2A Ni1B 1_555 1_555
N2C Ni1 1_555 1_555
N3_2 Ni1 1_555 1_555
N3B_2 Ni1B 1_555 1_555
N7A Ni1 1_555 1_555
N7C Ni1B 1_555 1_555
N5 C26 1_555 1_555
C7 C22 1_555 1_555
C8 C20 1_555 1_555
C9 C21 1_555 1_555
C10 C15 1_555 1_555
C11 C13 1_555 1_555
C14 C25 1_555 1_555
C17 C24 1_555 1_555
C18 C23 1_555 1_555
C2B C21B 1_555 1_555
C9B C12B 1_555 1_555
C9B C21B 1_555 1_555
C18B C23B 1_555 1_555
N5B C26B 1_555 1_555
C7B C22B 1_555 1_555
C8B C20B 1_555 1_555
C10B C15B 1_555 1_555
C11B C13B 1_555 1_555
C14B C25B 1_555 1_555
C17B C24B 1_555 1_555

#END
