
#######################################################################
#
#                 Cambridge Crystallographic Data Centre
#                                CCDC 
#
#######################################################################
#
# If this CIF has been generated from an entry in the Cambridge 
# Structural Database, then it will include bibliographic, chemical, 
# crystal, experimental, refinement or atomic coordinate data resulting 
# from the CCDC's data processing and validation procedures.
#
#######################################################################

data_CEBDOD
_chemical_formula_moiety         '(C4 H24 Ba3 N2 O18 P4)n'
_symmetry_cell_setting           monoclinic
_symmetry_space_group_name_H-M   'C 2/c'
_symmetry_Int_Tables_number      15
_space_group_name_Hall           '-C 2yc'
loop_
_symmetry_equiv_pos_site_id
_symmetry_equiv_pos_as_xyz
1 x,y,z
2 1/2+x,1/2+y,z
3 -x,y,1/2-z
4 1/2-x,1/2+y,1/2-z
5 -x,-y,-z
6 1/2-x,1/2-y,-z
7 x,-y,1/2+z
8 1/2+x,1/2-y,1/2+z
_cell_length_a                   23.287(2)
_cell_length_b                   13.5995(7)
_cell_length_c                   7.1862(6)
_cell_angle_alpha                90
_cell_angle_beta                 98.732(10)
_cell_angle_gamma                90
_cell_volume                     2249.43
loop_
_atom_site_label
_atom_site_type_symbol
_atom_site_fract_x
_atom_site_fract_y
_atom_site_fract_z
Ba1 Ba -0.0000 0.10062(3) 0.7500
Ba2 Ba -0.258450(11) -0.409740(17) -0.10959(3)
P1 P -0.20727(5) -0.35295(8) 0.35466(15)
P2 P -0.11569(5) -0.08153(8) 0.89795(15)
O1 O -0.23983(14) -0.2838(2) 0.2099(4)
O2 O -0.24181(14) -0.3819(2) 0.5100(4)
O3 O -0.18443(14) -0.4430(2) 0.2618(5)
O4 O -0.17075(13) -0.0223(2) 0.8525(4)
O5 O -0.06002(13) -0.0215(2) 0.9291(4)
O6 O -0.11771(15) -0.1517(2) 1.0631(4)
N1 N -0.15718(16) -0.2145(3) 0.6100(5)
C1 C -0.1433(2) -0.2875(4) 0.4688(7)
H1 H -0.135(2) -0.259(4) 0.378(9)
H2 H -0.116(3) -0.326(4) 0.527(8)
C2 C -0.10615(19) -0.1550(3) 0.6925(6)
H3 H -0.073(2) -0.199(4) 0.730(8)
H4 H -0.097(2) -0.111(4) 0.601(8)
O7 O -0.1364(2) -0.3368(3) -0.0554(6)
O9 O 0.0020(3) 0.2926(6) 0.9450(18)
Ba1F Ba 0.0000 -0.10062(3) 1.2500
Ba1F_2 Ba -0.0000 -0.10062(3) 0.2500
Ba2F Ba -0.258450(11) 0.409740(17) -0.60959(3)
Ba2E Ba -0.241550(11) -0.090260(17) 0.10959(3)
Ba2_2 Ba -0.258450(11) -0.409740(17) 0.89041(3)
Ba2F_2 Ba -0.258450(11) -0.590260(17) 0.39041(3)
Ba2E_2 Ba -0.241550(11) -0.090260(17) 1.10959(3)
Ba2C Ba -0.241550(11) 0.090260(17) 0.60959(3)
Ba2C_2 Ba -0.241550(11) 0.090260(17) -0.39041(3)
Ba2_3 Ba -0.258450(11) 0.590260(17) -0.10959(3)
Ba2F_3 Ba -0.258450(11) 0.409740(17) 0.39041(3)
P1F P -0.20727(5) 0.35295(8) -0.14534(15)
P2F P -0.11569(5) 0.08153(8) 0.39795(15)
O1F O -0.23983(14) 0.2838(2) -0.2901(4)
O1E O -0.26017(14) -0.2162(2) -0.2099(4)
O1C O -0.26017(14) 0.2162(2) -0.7099(4)
O2F O -0.24181(14) 0.3819(2) 0.0100(4)
O2_2 O -0.24181(14) -0.3819(2) -0.4900(4)
O2F_2 O -0.24181(14) -0.6181(2) 0.0100(4)
O2_3 O -0.24181(14) 0.6181(2) -0.4900(4)
O2F_3 O -0.24181(14) 0.3819(2) -0.9900(4)
O3F O -0.18443(14) 0.4430(2) -0.2382(5)
O3F_2 O -0.18443(14) -0.5570(2) -0.2382(5)
O3_2 O -0.18443(14) 0.5570(2) -0.7382(5)
O4F O -0.17075(13) 0.0223(2) 0.3525(4)
O4E O -0.32925(13) -0.4777(2) 0.1475(4)
O4C O -0.32925(13) -0.5223(2) -0.3525(4)
O4E_2 O -0.32925(13) 0.5223(2) -0.8525(4)
O4C_2 O -0.32925(13) 0.4777(2) -0.3525(4)
O5F O -0.06002(13) 0.0215(2) 0.4291(4)
O5D O 0.06002(13) 0.0215(2) 1.0709(4)
O5B O 0.06002(13) -0.0215(2) 0.5709(4)
O6F O -0.11771(15) 0.1517(2) 0.5631(4)
O6D O 0.11771(15) 0.1517(2) 0.9369(4)
O6E O -0.38229(15) -0.3483(2) -0.0631(4)
O6C O -0.38229(15) 0.3483(2) -0.5631(4)
N1F N -0.15718(16) 0.2145(3) 0.1100(5)
C1F C -0.1433(2) 0.2875(4) -0.0312(7)
H1F H -0.135(2) 0.259(4) -0.122(9)
H2F H -0.116(3) 0.326(4) 0.027(8)
C2F C -0.10615(19) 0.1550(3) 0.1925(6)
H3F H -0.073(2) 0.199(4) 0.230(8)
H4F H -0.097(2) 0.111(4) 0.101(8)
O7F O -0.1364(2) 0.3368(3) -0.5554(6)
O9B O -0.0020(3) 0.2926(6) 0.5550(18)
O8 O 0.4274(3) 0.0392(6) 1.2659(18)
O10 O 0.0000 0.3899(13) 1.2500
loop_
_geom_bond_atom_site_label_1
_geom_bond_atom_site_label_2
_geom_bond_site_symmetry_1
_geom_bond_site_symmetry_2
Ba1 O5 1_555 1_555
Ba2 O1 1_555 1_555
P1 O1 1_555 1_555
P2 O4 1_555 1_555
O1 Ba2E 1_555 1_555
O2 P1 1_555 1_555
O3 Ba2 1_555 1_555
O4 Ba2E_2 1_555 1_555
O5 P2 1_555 1_555
O6 P2 1_555 1_555
N1 C1 1_555 1_555
C1 P1 1_555 1_555
H1 C1 1_555 1_555
H2 C1 1_555 1_555
C2 P2 1_555 1_555
H3 C2 1_555 1_555
H4 C2 1_555 1_555
O7 Ba2 1_555 1_555
O9 Ba1 1_555 1_555
Ba1F O5 1_555 1_555
Ba1F_2 O5F 1_555 1_555
Ba2F O1F 1_555 1_555
Ba2E O1E 1_555 1_555
Ba2_2 O2 1_555 1_555
Ba2F_2 O2 1_555 1_555
Ba2E_2 O6 1_555 1_555
Ba2C O4 1_555 1_555
Ba2C_2 O1F 1_555 1_555
Ba2_3 O2F 1_555 1_555
Ba2F_3 O2F 1_555 1_555
P1F O1F 1_555 1_555
P2F O4F 1_555 1_555
O1E Ba2 1_555 1_555
O1C Ba2F 1_555 1_555
O2F P1F 1_555 1_555
O2_2 Ba2 1_555 1_555
O2F_2 Ba2 1_555 1_555
O2_3 Ba2F 1_555 1_555
O2F_3 Ba2F 1_555 1_555
O3F Ba2F 1_555 1_555
O3F_2 Ba2 1_555 1_555
O3_2 Ba2F 1_555 1_555
O4F Ba2E 1_555 1_555
O4E Ba2 1_555 1_555
O4C Ba2 1_555 1_555
O4E_2 Ba2F 1_555 1_555
O4C_2 Ba2F 1_555 1_555
O5F Ba1 1_555 1_555
O5D Ba1 1_555 1_555
O5B Ba1 1_555 1_555
O6F Ba1 1_555 1_555
O6D Ba1 1_555 1_555
O6E Ba2 1_555 1_555
O6C Ba2F 1_555 1_555
N1F C1F 1_555 1_555
C1F P1F 1_555 1_555
H1F C1F 1_555 1_555
H2F C1F 1_555 1_555
C2F P2F 1_555 1_555
H3F C2F 1_555 1_555
H4F C2F 1_555 1_555
O7F Ba2F 1_555 1_555
O9B Ba1 1_555 1_555
P1 O3 1_555 1_555
O3 Ba2F_2 1_555 1_555
O6 Ba1F 1_555 1_555
N1 C2 1_555 1_555
Ba1F O5D 1_555 1_555
Ba1F_2 O5B 1_555 1_555
Ba2F_2 O2F_2 1_555 1_555
Ba2F_2 O4E 1_555 1_555
Ba2C O4F 1_555 1_555
Ba2C O6F 1_555 1_555
Ba2C_2 O1C 1_555 1_555
Ba2_3 O2_3 1_555 1_555
Ba2_3 O3F 1_555 1_555
Ba2_3 O4C_2 1_555 1_555
P1F O3F 1_555 1_555
P2F O5F 1_555 1_555
P2F O6F 1_555 1_555
N1F C2F 1_555 1_555

#END
