
#######################################################################
#
#                 Cambridge Crystallographic Data Centre
#                                CCDC 
#
#######################################################################
#
# If this CIF has been generated from an entry in the Cambridge 
# Structural Database, then it will include bibliographic, chemical, 
# crystal, experimental, refinement or atomic coordinate data resulting 
# from the CCDC's data processing and validation procedures.
#
#######################################################################

data_HOBBEF
_chemical_formula_moiety         '(C12 H18 Ag1 F6 N6 P1)n'
_symmetry_cell_setting           monoclinic
_symmetry_space_group_name_H-M   'P 21/n'
_symmetry_Int_Tables_number      14
_space_group_name_Hall           '-P 2yn'
loop_
_symmetry_equiv_pos_site_id
_symmetry_equiv_pos_as_xyz
1 x,y,z
2 1/2-x,1/2+y,1/2-z
3 -x,-y,-z
4 1/2+x,1/2-y,1/2+z
_cell_length_a                   10.652(9)
_cell_length_b                   15.400(9)
_cell_length_c                   10.924(6)
_cell_angle_alpha                90
_cell_angle_beta                 92.14(6)
_cell_angle_gamma                90
_cell_volume                     1790.73
loop_
_atom_site_label
_atom_site_type_symbol
_atom_site_fract_x
_atom_site_fract_y
_atom_site_fract_z
Ag1 Ag 0.2332(1) 0.7326(1) 0.2393(1)
N1 N 0.3040(3) 0.5818(2) 0.3086(3)
C1 C 0.4062(4) 0.5863(3) 0.4038(4)
C2 C 0.4668(4) 0.6756(3) 0.4113(4)
N2 N 0.3758(3) 0.7467(2) 0.4279(3)
C3 C 0.3048(4) 0.7394(3) 0.5413(4)
C4 C 0.1636(4) 0.7486(3) 0.5190(4)
N3 N 0.1114(3) 0.6898(2) 0.4246(3)
C5 C 0.1286(4) 0.5962(3) 0.4532(4)
C6 C 0.1855(4) 0.5444(3) 0.3502(4)
C7 C 0.3445(4) 0.5397(3) 0.1973(4)
C8 C 0.3671(4) 0.4446(3) 0.2176(4)
N4 N 0.3796(4) 0.3728(3) 0.2395(4)
C9 C 0.4340(4) 0.8317(3) 0.4154(4)
C10 C 0.5303(4) 0.8461(3) 0.5156(4)
N5 N 0.6001(4) 0.8485(3) 0.5966(4)
C11 C -0.0188(4) 0.7109(3) 0.3910(4)
C12 C -0.0997(4) 0.7072(3) 0.4985(5)
N6 N -0.1535(4) 0.7059(3) 0.5853(4)
H1 H 0.4711 0.5426 0.3856
H2 H 0.3720 0.5716 0.4843
H3 H 0.5294 0.6763 0.4806
H4 H 0.5122 0.6862 0.3353
H5 H 0.3343 0.7849 0.5995
H6 H 0.3228 0.6823 0.5797
H7 H 0.1216 0.7373 0.5967
H8 H 0.1445 0.8092 0.4944
H9 H 0.0460 0.5707 0.4715
H10 H 0.1837 0.5906 0.5278
H11 H 0.2013 0.4842 0.3788
H12 H 0.1241 0.5417 0.2800
H13 H 0.4228 0.5674 0.1707
H14 H 0.2793 0.5475 0.1313
H15 H 0.3688 0.8774 0.4184
H16 H 0.4739 0.8356 0.3352
H17 H -0.0508 0.6694 0.3280
H18 H -0.0228 0.7699 0.3551
N5C N 0.1001(4) 0.6515(3) 0.0966(4)
Ag1C Ag 0.7332(1) 0.7674(1) 0.7393(1)
Ag1A Ag 0.2668(1) 0.2326(1) 0.2607(1)
Ag1C_2 Ag -0.2668(1) 0.7674(1) 0.7393(1)
N6C N 0.3465(4) 0.7941(3) 0.0853(4)
N4A N 0.1204(4) 0.8728(3) 0.2605(4)
P1 P 0.2458(1) 0.0069(1) 0.6938(1)
F1 F 0.3287(4) -0.0155(3) 0.5794(3)
F2 F 0.1612(3) 0.0301(2) 0.8063(3)
F3 F 0.3245(7) 0.0937(4) 0.7217(7)
F4 F 0.1512(7) 0.0610(6) 0.6039(6)
F5 F 0.3368(8) -0.0427(6) 0.7878(7)
F6 F 0.1620(8) -0.0784(5) 0.6738(7)
loop_
_geom_bond_atom_site_label_1
_geom_bond_atom_site_label_2
_geom_bond_site_symmetry_1
_geom_bond_site_symmetry_2
Ag1 N1 1_555 1_555
N1 C1 1_555 1_555
C1 C2 1_555 1_555
C2 N2 1_555 1_555
N2 Ag1 1_555 1_555
C3 N2 1_555 1_555
C4 C3 1_555 1_555
N3 Ag1 1_555 1_555
C5 N3 1_555 1_555
C6 N1 1_555 1_555
C7 N1 1_555 1_555
C8 C7 1_555 1_555
N4 C8 1_555 1_555
C9 N2 1_555 1_555
C10 C9 1_555 1_555
N5 C10 1_555 1_555
C11 N3 1_555 1_555
C12 C11 1_555 1_555
N6 C12 1_555 1_555
P1 F1 1_555 1_555
F2 P1 1_555 1_555
F3 P1 1_555 1_555
F4 P1 1_555 1_555
F5 P1 1_555 1_555
F6 P1 1_555 1_555
H1 C1 1_555 1_555
H2 C1 1_555 1_555
H3 C2 1_555 1_555
H4 C2 1_555 1_555
H5 C3 1_555 1_555
H6 C3 1_555 1_555
H7 C4 1_555 1_555
H8 C4 1_555 1_555
H9 C5 1_555 1_555
H10 C5 1_555 1_555
H11 C6 1_555 1_555
H12 C6 1_555 1_555
H13 C7 1_555 1_555
H14 C7 1_555 1_555
H15 C9 1_555 1_555
H16 C9 1_555 1_555
H17 C11 1_555 1_555
H18 C11 1_555 1_555
N5C Ag1 1_555 1_555
Ag1C N5 1_555 1_555
Ag1A N4 1_555 1_555
Ag1C_2 N6 1_555 1_555
N6C Ag1 1_555 1_555
N4A Ag1 1_555 1_555
C4 N3 1_555 1_555
C5 C6 1_555 1_555

#END
