
#######################################################################
#
#                 Cambridge Crystallographic Data Centre
#                                CCDC 
#
#######################################################################
#
# If this CIF has been generated from an entry in the Cambridge 
# Structural Database, then it will include bibliographic, chemical, 
# crystal, experimental, refinement or atomic coordinate data resulting 
# from the CCDC's data processing and validation procedures.
#
#######################################################################

data_YEGCUJ
_chemical_formula_moiety         '(C9 H11 N5 O4 Pd1)n'
_symmetry_cell_setting           cubic
_symmetry_space_group_name_H-M   'P n -3 m'
_symmetry_Int_Tables_number      224
_space_group_name_Hall           '-P 4bc 2bc 3'
loop_
_symmetry_equiv_pos_site_id
_symmetry_equiv_pos_as_xyz
1 x,y,z
2 1/2-x,y,1/2-z
3 1/2-x,1/2-y,z
4 x,1/2-y,1/2-z
5 -y,1/2+x,1/2+z
6 1/2+y,-x,1/2+z
7 1/2+z,1/2+y,-x
8 -z,1/2+y,1/2+x
9 -y,-x,-z
10 1/2+y,1/2+x,-z
11 z,x,y
12 y,z,x
13 -z,-y,-x
14 -x,-z,-y
15 z,1/2-x,1/2-y
16 y,1/2-z,1/2-x
17 1/2-z,x,1/2-y
18 1/2-y,z,1/2-x
19 1/2-z,1/2-x,y
20 1/2-y,1/2-z,x
21 -x,1/2+z,1/2+y
22 1/2+x,-z,1/2+y
23 1/2+z,-y,1/2+x
24 1/2+x,1/2+z,-y
25 -x,-y,-z
26 1/2+x,-y,1/2+z
27 1/2+x,1/2+y,-z
28 -x,1/2+y,1/2+z
29 y,1/2-x,1/2-z
30 1/2-y,x,1/2-z
31 1/2-z,1/2-y,x
32 z,1/2-y,1/2-x
33 y,x,z
34 1/2-y,1/2-x,z
35 -z,-x,-y
36 -y,-z,-x
37 z,y,x
38 x,z,y
39 -z,1/2+x,1/2+y
40 -y,1/2+z,1/2+x
41 1/2+z,-x,1/2+y
42 1/2+y,-z,1/2+x
43 1/2+z,1/2+x,-y
44 1/2+y,1/2+z,-x
45 x,1/2-z,1/2-y
46 1/2-x,z,1/2-y
47 1/2-z,y,1/2-x
48 1/2-x,1/2-z,y
_cell_length_a                   16.2792(12)
_cell_length_b                   16.2792(12)
_cell_length_c                   16.2792(12)
_cell_angle_alpha                90
_cell_angle_beta                 90
_cell_angle_gamma                90
_cell_volume                     4314.19
loop_
_atom_site_label
_atom_site_type_symbol
_atom_site_fract_x
_atom_site_fract_y
_atom_site_fract_z
O2 O -0.08344(58) -0.08344(58) 0.9996(14)
O3 O 0.14716(89) 0.14716(89) 0.2281(24)
C1F C 0.880890 0.209670 0.392530
N1PA N 0.805550 0.081910 0.315610
H1F H 0.907200 0.254300 0.419400
Pd1 Pd 0.50000 0.75000 0.25000
N1 N 0.581910 0.684390 0.305550
C1 C 0.607470 0.709670 0.380890
C2 C 0.620460 0.620660 0.267730
C3 C 0.671200 0.671120 0.418710
O1 O 0.597170 0.597420 0.198350
H1 H 0.580600 0.754300 0.407200
H2 H 0.688860 0.688820 0.471440
N1FA N 0.684390 0.581910 0.305550
C1FA C 0.709670 0.607470 0.380890
H1FA H 0.754300 0.580600 0.407200
N1C N 0.581910 0.815610 0.194450
C1C C 0.607470 0.790330 0.119110
C2C C 0.620460 0.879340 0.232270
C3C C 0.671200 0.828880 0.081290
O1C O 0.597170 0.902580 0.301650
H1C H 0.580600 0.745700 0.092800
H2C H 0.688860 0.811180 0.028560
N1BA N 0.684390 0.918090 0.194450
C1BA C 0.709670 0.892530 0.119110
H1BA H 0.754300 0.919400 0.092800
Pd1BA Pd 0.75000 1.00000 0.25000
Pd1CA Pd 0.75000 0.50000 0.25000
N1M N 0.418090 0.694450 0.315610
N1T N 0.418090 0.805550 0.184390
loop_
_geom_bond_atom_site_label_1
_geom_bond_atom_site_label_2
_geom_bond_site_symmetry_1
_geom_bond_site_symmetry_2
Pd1 N1 1_555 1_555
N1 C1 1_555 1_555
C1 C3 1_555 1_555
C2 N1 1_555 1_555
C3 H2 1_555 1_555
O1 C2 1_555 1_555
H1 C1 1_555 1_555
N1FA C2 1_555 1_555
C1FA C3 1_555 1_555
H1FA C1FA 1_555 1_555
N1C Pd1 1_555 1_555
C1C N1C 1_555 1_555
C2C N1C 1_555 1_555
C3C C1C 1_555 1_555
O1C C2C 1_555 1_555
H1C C1C 1_555 1_555
H2C C3C 1_555 1_555
N1BA C2C 1_555 1_555
C1BA C3C 1_555 1_555
H1BA C1BA 1_555 1_555
Pd1BA N1BA 1_555 1_555
Pd1CA N1FA 1_555 1_555
N1M Pd1 1_555 1_555
N1T Pd1 1_555 1_555
N1FA C1FA 1_555 1_555
N1BA C1BA 1_555 1_555

#END
