
#######################################################################
#
#                 Cambridge Crystallographic Data Centre
#                                CCDC 
#
#######################################################################
#
# If this CIF has been generated from an entry in the Cambridge 
# Structural Database, then it will include bibliographic, chemical, 
# crystal, experimental, refinement or atomic coordinate data resulting 
# from the CCDC's data processing and validation procedures.
#
#######################################################################

data_NUNSOG
_chemical_formula_moiety         '(C15 H22 Ag1 Cl1 N4 O5)n'
_symmetry_cell_setting           orthorhombic
_symmetry_space_group_name_H-M   'F d d d'
_symmetry_Int_Tables_number      70
_space_group_name_Hall           '-F 2uv 2vw'
loop_
_symmetry_equiv_pos_site_id
_symmetry_equiv_pos_as_xyz
1 x,y,z
2 1/4-x,1/4-y,z
3 x,1/4-y,1/4-z
4 1/4-x,y,1/4-z
5 x,1/2+y,1/2+z
6 1/4-x,3/4-y,1/2+z
7 x,3/4-y,3/4-z
8 1/4-x,1/2+y,3/4-z
9 1/2+x,y,1/2+z
10 3/4-x,1/4-y,1/2+z
11 1/2+x,1/4-y,3/4-z
12 3/4-x,y,3/4-z
13 1/2+x,1/2+y,z
14 3/4-x,3/4-y,z
15 1/2+x,3/4-y,1/4-z
16 3/4-x,1/2+y,1/4-z
17 -x,-y,-z
18 3/4+x,3/4+y,-z
19 -x,3/4+y,3/4+z
20 3/4+x,-y,3/4+z
21 -x,1/2-y,1/2-z
22 3/4+x,1/4+y,1/2-z
23 -x,1/4+y,1/4+z
24 3/4+x,1/2-y,1/4+z
25 1/2-x,-y,1/2-z
26 1/4+x,3/4+y,1/2-z
27 1/2-x,3/4+y,1/4+z
28 1/4+x,-y,1/4+z
29 1/2-x,1/2-y,-z
30 1/4+x,1/4+y,-z
31 1/2-x,1/4+y,3/4+z
32 1/4+x,1/2-y,3/4+z
_cell_length_a                   24.3650(18)
_cell_length_b                   8.6123(7)
_cell_length_c                   36.092(3)
_cell_angle_alpha                90
_cell_angle_beta                 90
_cell_angle_gamma                90
_cell_volume                     7573.5
loop_
_atom_site_label
_atom_site_type_symbol
_atom_site_fract_x
_atom_site_fract_y
_atom_site_fract_z
_atom_site_U_iso_or_equiv
_atom_site_thermal_displace_type
Ag1 Ag -0.3750 -0.3750 0.042628(15) 0.0440 Uani
N1 N -0.32501(18) -0.1713(6) 0.01329(13) 0.0523 Uani
N2 N -0.18506(15) 0.0609(4) -0.07107(10) 0.0341 Uani
H1 H -0.2075(16) 0.016(5) -0.0861(11) 0.0510 Uiso
C1 C -0.3362(2) -0.1149(7) -0.02036(17) 0.0597 Uani
H2 H -0.3681 -0.1483 -0.0320 0.0720 Uiso
C2 C -0.3034(2) -0.0106(7) -0.03887(15) 0.0517 Uani
H3 H -0.3135 0.0254 -0.0622 0.0620 Uiso
C3 C -0.25578(19) 0.0399(5) -0.02263(14) 0.0400 Uani
C4 C -0.2443(2) -0.0155(6) 0.01227(14) 0.0430 Uani
H4 H -0.2126 0.0171 0.0244 0.0520 Uiso
C5 C -0.2792(2) -0.1189(6) 0.02932(15) 0.0460 Uani
H5 H -0.2705 -0.1537 0.0530 0.0560 Uiso
C6 C -0.2177(2) 0.1485(6) -0.04327(15) 0.0450 Uani
H6 H -0.2390 0.2283 -0.0556 0.0540 Uiso
H7 H -0.1932 0.1990 -0.0259 0.0540 Uiso
C7 C -0.1543(2) 0.1665(5) -0.09569(14) 0.0393 Uani
H8 H -0.1278 0.2253 -0.0813 0.0470 Uiso
H9 H -0.1793 0.2393 -0.1073 0.0470 Uiso
C8 C -0.1250 0.0741(8) -0.1250 0.0383 Uani
H10 H -0.1515 0.0082 -0.1369 0.0460 Uiso
N1K N 0.07501(18) -0.1713(6) -0.26329(13) 0.0523 Uani
N2K N -0.06494(15) 0.0609(4) -0.17893(10) 0.0341 Uani
H1K H -0.0425(16) 0.016(5) -0.1639(11) 0.0510 Uiso
C1K C 0.0862(2) -0.1149(7) -0.22964(17) 0.0597 Uani
H2K H 0.1181 -0.1483 -0.2180 0.0720 Uiso
C2K C 0.0534(2) -0.0106(7) -0.21113(15) 0.0517 Uani
H3K H 0.0635 0.0254 -0.1878 0.0620 Uiso
C3K C 0.00578(19) 0.0399(5) -0.22737(14) 0.0400 Uani
C4K C -0.0057(2) -0.0155(6) -0.26227(14) 0.0430 Uani
H4K H -0.0374 0.0171 -0.2744 0.0520 Uiso
C5K C 0.0292(2) -0.1189(6) -0.27932(15) 0.0460 Uani
H5K H 0.0205 -0.1537 -0.3030 0.0560 Uiso
C6K C -0.0323(2) 0.1485(6) -0.20673(15) 0.0450 Uani
H6K H -0.0110 0.2283 -0.1944 0.0540 Uiso
H7K H -0.0568 0.1990 -0.2241 0.0540 Uiso
C7K C -0.0957(2) 0.1665(5) -0.15431(14) 0.0393 Uani
H8K H -0.1222 0.2253 -0.1687 0.0470 Uiso
H9K H -0.0707 0.2393 -0.1427 0.0470 Uiso
H10K H -0.0985 0.0082 -0.1131 0.0460 Uiso
Ag1J Ag 0.1250 -0.3750 -0.292628(15) 0.0440 Uani
Ag1BA Ag -0.1250 -0.1250 -0.042628(15) 0.0440 Uani
Ag1DA Ag -0.1250 -0.1250 -0.207372(15) 0.0440 Uani
N1A N -0.42499(18) -0.5787(6) 0.01329(13) 0.0523 Uani
N2Q N -0.43506(15) -0.1891(4) 0.07107(10) 0.0341 Uani
N2BA N -0.31494(15) -0.5609(4) 0.07107(10) 0.0341 Uani
Cl1 Cl -0.31484(16) -0.6250 -0.1250 0.1897 Uani
O1 O -0.2799(5) -0.483(3) -0.1133(4) 0.3573 Uani
O2 O -0.3410(6) -0.6726(15) -0.0971(3) 0.2543 Uani
O1F O -0.2799(5) -0.767(3) -0.1367(4) 0.3573 Uani
O2F O -0.3410(6) -0.5774(15) -0.1529(3) 0.2543 Uani
O3 O -0.2641(4) -0.1250 -0.1250 0.2083 Uani
H11 H -0.2843 -0.2047 -0.1225 0.3120 Uiso
H11F H -0.2843 -0.0453 -0.1275 0.3120 Uiso
loop_
_atom_site_aniso_label
_atom_site_aniso_U_11
_atom_site_aniso_U_22
_atom_site_aniso_U_33
_atom_site_aniso_U_23
_atom_site_aniso_U_13
_atom_site_aniso_U_12
Ag1 0.0480(4) 0.0381(3) 0.0460(4) 0.000 0.000 0.0027(2)
N1 0.044(2) 0.067(3) 0.046(3) 0.006(2) 0.004(2) -0.001(2)
N2 0.039(2) 0.0284(18) 0.035(2) 0.0014(17) 0.0037(18) 0.0005(16)
C1 0.039(3) 0.089(5) 0.051(3) 0.011(3) -0.005(3) -0.009(3)
C2 0.040(3) 0.076(4) 0.039(3) 0.010(3) 0.000(3) -0.003(3)
C3 0.038(2) 0.038(2) 0.044(3) -0.002(2) 0.015(2) 0.006(2)
C4 0.039(2) 0.047(3) 0.043(3) -0.005(2) 0.008(2) -0.001(2)
C5 0.049(3) 0.052(3) 0.037(3) 0.006(2) -0.004(3) 0.001(3)
C6 0.048(3) 0.039(3) 0.048(3) -0.002(2) 0.013(3) 0.007(2)
C7 0.042(3) 0.029(2) 0.047(3) 0.000(2) 0.012(2) 0.0032(19)
C8 0.047(4) 0.029(3) 0.039(4) 0.000 0.008(3) 0.000
N1K 0.044 0.067 0.046 -0.006 0.004 0.001
N2K 0.039 0.0284 0.035 -0.0014 0.0037 -0.0005
C1K 0.039 0.089 0.051 -0.011 -0.005 0.009
C2K 0.04 0.076 0.039 -0.01 0 0.003
C3K 0.038 0.038 0.044 0.002 0.015 -0.006
C4K 0.039 0.047 0.043 0.005 0.008 0.001
C5K 0.049 0.052 0.037 -0.006 -0.004 -0.001
C6K 0.048 0.039 0.048 0.002 0.013 -0.007
C7K 0.042 0.029 0.047 0 0.012 -0.0032
Ag1J 0.048 0.0381 0.046 0 0 -0.0027
Ag1BA 0.048 0.0381 0.046 0 0 0.0027
Ag1DA 0.048 0.0381 0.046 0 0 -0.0027
N1A 0.044 0.067 0.046 -0.006 -0.004 -0.001
N2Q 0.039 0.0284 0.035 -0.0014 -0.0037 0.0005
N2BA 0.039 0.0284 0.035 0.0014 0.0037 0.0005
Cl1 0.071(2) 0.404(9) 0.094(2) 0.118(4) 0.000 0.000
O1 0.164(9) 0.63(3) 0.278(17) -0.034(19) -0.012(10) -0.176(16)
O2 0.308(14) 0.305(13) 0.150(8) 0.073(9) 0.130(9) 0.002(12)
O1F 0.164 0.63 0.278 -0.034 0.012 0.176
O2F 0.308 0.305 0.15 0.073 -0.13 -0.002
O3 0.075(6) 0.43(2) 0.120(8) -0.154(11) 0.000 0.000
loop_
_geom_bond_atom_site_label_1
_geom_bond_atom_site_label_2
_geom_bond_site_symmetry_1
_geom_bond_site_symmetry_2
Ag1 N1 1_555 1_555
N1 C1 1_555 1_555
N2 H1 1_555 1_555
C1 H2 1_555 1_555
C2 C1 1_555 1_555
H3 C2 1_555 1_555
C3 C2 1_555 1_555
C4 C3 1_555 1_555
H4 C4 1_555 1_555
C5 N1 1_555 1_555
H5 C5 1_555 1_555
C6 N2 1_555 1_555
H6 C6 1_555 1_555
H7 C6 1_555 1_555
C7 N2 1_555 1_555
H8 C7 1_555 1_555
H9 C7 1_555 1_555
C8 C7 1_555 1_555
H10 C8 1_555 1_555
Cl1 O1 1_555 1_555
O2 Cl1 1_555 1_555
O3 H11 1_555 1_555
N1K C1K 1_555 1_555
N2K H1K 1_555 1_555
C1K H2K 1_555 1_555
C2K C1K 1_555 1_555
H3K C2K 1_555 1_555
C3K C2K 1_555 1_555
C4K C3K 1_555 1_555
H4K C4K 1_555 1_555
C5K N1K 1_555 1_555
H5K C5K 1_555 1_555
C6K N2K 1_555 1_555
H6K C6K 1_555 1_555
H7K C6K 1_555 1_555
C7K C8 1_555 1_555
H8K C7K 1_555 1_555
H9K C7K 1_555 1_555
H10K C8 1_555 1_555
Ag1J N1K 1_555 1_555
Ag1BA N2 1_555 1_555
Ag1DA N2K 1_555 1_555
N1A Ag1 1_555 1_555
N2Q Ag1 1_555 1_555
N2BA Ag1 1_555 1_555
O1F Cl1 1_555 1_555
O2F Cl1 1_555 1_555
H11F O3 1_555 1_555
C3 C6 1_555 1_555
C4 C5 1_555 1_555
N2K C7K 1_555 1_555
C3K C6K 1_555 1_555
C4K C5K 1_555 1_555

#END
