
#######################################################################
#
#                 Cambridge Crystallographic Data Centre
#                                CCDC 
#
#######################################################################
#
# If this CIF has been generated from an entry in the Cambridge 
# Structural Database, then it will include bibliographic, chemical, 
# crystal, experimental, refinement or atomic coordinate data resulting 
# from the CCDC's data processing and validation procedures.
#
#######################################################################

data_NUNSIA
_chemical_formula_moiety         '(C15 H22 Ag1 N5 O4)n'
_symmetry_cell_setting           orthorhombic
_symmetry_space_group_name_H-M   'F d d d'
_symmetry_Int_Tables_number      70
_space_group_name_Hall           '-F 2uv 2vw'
loop_
_symmetry_equiv_pos_site_id
_symmetry_equiv_pos_as_xyz
1 x,y,z
2 1/4-x,1/4-y,z
3 x,1/4-y,1/4-z
4 1/4-x,y,1/4-z
5 x,1/2+y,1/2+z
6 1/4-x,3/4-y,1/2+z
7 x,3/4-y,3/4-z
8 1/4-x,1/2+y,3/4-z
9 1/2+x,y,1/2+z
10 3/4-x,1/4-y,1/2+z
11 1/2+x,1/4-y,3/4-z
12 3/4-x,y,3/4-z
13 1/2+x,1/2+y,z
14 3/4-x,3/4-y,z
15 1/2+x,3/4-y,1/4-z
16 3/4-x,1/2+y,1/4-z
17 -x,-y,-z
18 3/4+x,3/4+y,-z
19 -x,3/4+y,3/4+z
20 3/4+x,-y,3/4+z
21 -x,1/2-y,1/2-z
22 3/4+x,1/4+y,1/2-z
23 -x,1/4+y,1/4+z
24 3/4+x,1/2-y,1/4+z
25 1/2-x,-y,1/2-z
26 1/4+x,3/4+y,1/2-z
27 1/2-x,3/4+y,1/4+z
28 1/4+x,-y,1/4+z
29 1/2-x,1/2-y,-z
30 1/4+x,1/4+y,-z
31 1/2-x,1/4+y,3/4+z
32 1/4+x,1/2-y,3/4+z
_cell_length_a                   8.6068(3)
_cell_length_b                   24.6534(10)
_cell_length_c                   35.7404(16)
_cell_angle_alpha                90
_cell_angle_beta                 90
_cell_angle_gamma                90
_cell_volume                     7583.64
loop_
_atom_site_label
_atom_site_type_symbol
_atom_site_fract_x
_atom_site_fract_y
_atom_site_fract_z
Ag1 Ag 0.3750 0.3750 0.29155(2)
N1 N 0.5774(8) 0.3275(3) 0.2615(2)
N2 N 0.8093(6) 0.1855(2) 0.17883(16)
H1 H 0.7563 0.2076 0.1643
C1 C 0.6275(10) 0.2812(4) 0.2781(2)
H2 H 0.5896 0.2726 0.3017
C2 C 0.7329(9) 0.2460(3) 0.2614(2)
H3 H 0.7648 0.2148 0.2739
C3 C 0.7894(9) 0.2574(3) 0.2266(2)
C4 C 0.7417(10) 0.3044(4) 0.2101(2)
H4 H 0.7789 0.3138 0.1865
C5 C 0.6392(11) 0.3377(4) 0.2282(3)
H5 H 0.6107 0.3697 0.2163
C6 C 0.8985(10) 0.2196(4) 0.2059(3)
H6 H 0.9760 0.2406 0.1926
H7 H 0.9517 0.1964 0.2237
C7 C 0.9185(8) 0.1549(3) 0.1547(2)
H8 H 0.9771 0.1291 0.1695
H9 H 0.9911 0.1795 0.1428
C8 C 0.8227(11) 0.1250 0.1250
H10 H 0.7561 0.0989 0.1375
N1B N 0.5774(8) -0.0775(3) -0.0115(2)
N2B N 0.8093(6) 0.0645(2) 0.07117(16)
H1B H 0.7563 0.0424 0.0857
C1B C 0.6275(10) -0.0312(4) -0.0281(2)
H2B H 0.5896 -0.0226 -0.0517
C2B C 0.7329(9) 0.0040(3) -0.0114(2)
H3B H 0.7648 0.0352 -0.0239
C3B C 0.7894(9) -0.0074(3) 0.0234(2)
C4B C 0.7417(10) -0.0544(4) 0.0399(2)
H4B H 0.7789 -0.0638 0.0635
C5B C 0.6392(11) -0.0877(4) 0.0218(3)
H5B H 0.6107 -0.1197 0.0337
C6B C 0.8985(10) 0.0304(4) 0.0441(3)
H6B H 0.9760 0.0094 0.0574
H7B H 0.9517 0.0536 0.0263
C7B C 0.9185(8) 0.0951(3) 0.0953(2)
H8B H 0.9771 0.1209 0.0805
H9B H 0.9911 0.0705 0.1072
H10B H 0.7561 0.1511 0.1125
Ag1B Ag 0.3750 -0.1250 -0.04155(2)
Ag1R Ag 0.6250 0.1250 0.04155(2)
Ag1T Ag 0.6250 0.1250 0.20845(2)
N1M N 0.1726(8) 0.4225(3) 0.2615(2)
N2T N 0.1907(6) 0.3145(2) 0.32117(16)
N2U N 0.5593(6) 0.4355(2) 0.32117(16)
O1 O 0.6250 0.2567(4) 0.1250
H11 H 0.6950 0.2760 0.1154
H11C H 0.5550 0.2760 0.1346
O2 O 0.8856(14) 0.3171(7) 0.0971(5)
O3 O 1.0454(17) 0.2717(6) 0.1282(5)
O4 O 1.1211(16) 0.3385(7) 0.0984(5)
N3 N 1.0158(14) 0.3091(5) 0.1078(3)
loop_
_geom_bond_atom_site_label_1
_geom_bond_atom_site_label_2
_geom_bond_site_symmetry_1
_geom_bond_site_symmetry_2
Ag1 N1 1_555 1_555
N1 C1 1_555 1_555
N2 H1 1_555 1_555
C1 H2 1_555 1_555
C2 C1 1_555 1_555
H3 C2 1_555 1_555
C3 C2 1_555 1_555
C4 C3 1_555 1_555
H4 C4 1_555 1_555
C5 N1 1_555 1_555
H5 C5 1_555 1_555
C6 N2 1_555 1_555
H6 C6 1_555 1_555
H7 C6 1_555 1_555
C7 N2 1_555 1_555
H8 C7 1_555 1_555
H9 C7 1_555 1_555
C8 C7 1_555 1_555
H10 C8 1_555 1_555
O1 H11 1_555 1_555
O2 N3 1_555 1_555
O3 N3 1_555 1_555
O4 N3 1_555 1_555
N1B C1B 1_555 1_555
N2B H1B 1_555 1_555
C1B H2B 1_555 1_555
C2B C1B 1_555 1_555
H3B C2B 1_555 1_555
C3B C2B 1_555 1_555
C4B C3B 1_555 1_555
H4B C4B 1_555 1_555
C5B N1B 1_555 1_555
H5B C5B 1_555 1_555
C6B N2B 1_555 1_555
H6B C6B 1_555 1_555
H7B C6B 1_555 1_555
C7B C8 1_555 1_555
H8B C7B 1_555 1_555
H9B C7B 1_555 1_555
H10B C8 1_555 1_555
Ag1B N1B 1_555 1_555
Ag1R N2B 1_555 1_555
Ag1T N2 1_555 1_555
N1M Ag1 1_555 1_555
N2T Ag1 1_555 1_555
N2U Ag1 1_555 1_555
H11C O1 1_555 1_555
C3 C6 1_555 1_555
C4 C5 1_555 1_555
N2B C7B 1_555 1_555
C3B C6B 1_555 1_555
C4B C5B 1_555 1_555

#END
