
#######################################################################
#
#                 Cambridge Crystallographic Data Centre
#                                CCDC 
#
#######################################################################
#
# If this CIF has been generated from an entry in the Cambridge 
# Structural Database, then it will include bibliographic, chemical, 
# crystal, experimental, refinement or atomic coordinate data resulting 
# from the CCDC's data processing and validation procedures.
#
#######################################################################

data_FIWJIG
_chemical_formula_moiety         '(C44 H76 Cu3 N4 O17)n'
_symmetry_cell_setting           tetragonal
_symmetry_space_group_name_H-M   'P 4 21 2'
_symmetry_Int_Tables_number      90
_space_group_name_Hall           'P 4ab 2ab'
loop_
_symmetry_equiv_pos_site_id
_symmetry_equiv_pos_as_xyz
1 x,y,z
2 1/2-y,1/2+x,z
3 -x,-y,z
4 1/2+y,1/2-x,z
5 1/2+x,1/2-y,-z
6 1/2-x,1/2+y,-z
7 y,x,-z
8 -y,-x,-z
_cell_length_a                   21.5599(3)
_cell_length_b                   21.5599(3)
_cell_length_c                   12.8974(3)
_cell_angle_alpha                90
_cell_angle_beta                 90
_cell_angle_gamma                90
_cell_volume                     5995.09
loop_
_atom_site_label
_atom_site_type_symbol
_atom_site_fract_x
_atom_site_fract_y
_atom_site_fract_z
Cu1 Cu 0.20947(2) 0.20947(2) 0.5000
Cu2 Cu 0.05812(2) 0.31314(2) 0.68584(4)
O1 O 0.14595(13) 0.26221(13) 0.5602(2)
O2 O 0.05305(13) 0.30172(14) 0.5316(2)
O3 O 0.02492(13) 0.23006(14) 0.7015(2)
O4 O 0.10965(16) 0.18659(15) 0.7674(3)
O5 O 0.09439(13) 0.39404(13) -0.3346(2)
O6 O 0.28232(14) 0.28232(14) 0.5000
N1 N 0.16338(15) 0.22898(15) 0.3652(2)
H1 H 0.1632 0.1935 0.3243
N2 N 0.09811(14) 0.31818(14) -0.1739(2)
H2 H 0.1213 0.2820 -0.1673
C1 C 0.09960(17) 0.27183(17) 0.5021(3)
C2 C 0.09797(19) 0.2431(2) 0.3957(3)
H3 H 0.0793 0.2730 0.3452
C3 C 0.0597(3) 0.1843(3) 0.3989(4)
C4 C 0.19123(19) 0.2805(2) 0.3038(3)
H4 H 0.2353 0.2708 0.2894
H5 H 0.1900 0.3191 0.3455
C5 C 0.15759(18) 0.2914(2) 0.2020(3)
C6 C 0.1541(2) 0.2461(2) 0.1272(3)
H6 H 0.1751 0.2079 0.1379
C7 C 0.1213(3) 0.2545(2) 0.0380(3)
H7 H 0.1192 0.2218 -0.0113
C8 C 0.09101(19) 0.3095(2) 0.0179(3)
C9 C 0.0959(3) 0.3562(2) 0.0923(3)
H8 H 0.0761 0.3949 0.0807
C10 C 0.1285(2) 0.3470(2) 0.1814(3)
H9 H 0.1313 0.3798 0.2305
C11 C 0.0557(2) 0.1851(2) 0.7371(4)
C12 C 0.0205(4) 0.1228(3) 0.7330(8)
H10 H -0.0217 0.1299 0.7072
H11 H 0.0186 0.1048 0.8027
H12 H 0.0422 0.0942 0.6864
C13 C 0.12908(18) 0.41378(18) -0.2632(3)
C14 C 0.14388(17) 0.36931(18) -0.1740(3)
H13 H 0.1412 0.3923 -0.1068
C15 C 0.20992(19) 0.3430(2) -0.1870(4)
H14 H 0.2128 0.3040 -0.1466
H15 H 0.2159 0.3321 -0.2609
C16 C 0.2625(2) 0.3846(3) -0.1544(5)
H16 H 0.2577 0.4248 -0.1922
C17 C 0.2627(3) 0.3987(3) -0.0406(5)
H17 H 0.2979 0.4259 -0.0243
H18 H 0.2666 0.3600 -0.0013
H19 H 0.2239 0.4195 -0.0217
C18 C 0.3234(2) 0.3565(3) -0.1875(7)
H20 H 0.3575 0.3837 -0.1661
H21 H 0.3239 0.3519 -0.2631
H22 H 0.3284 0.3158 -0.1549
C19 C 0.0563(2) 0.3193(2) -0.0825(3)
H23 H 0.0246 0.2865 -0.0902
H24 H 0.0347 0.3598 -0.0800
O7 O 0.15396(15) 0.46528(15) -0.2619(2)
C20 C 0.0242(5) 0.1667(4) 0.3035(7)
H25 H 0.0564 0.1509 0.2544
C21 C -0.0108(6) 0.2162(6) 0.2418(10)
H26 H -0.0399 0.2378 0.2877
H27 H -0.0337 0.1965 0.1851
H28 H 0.0189 0.2461 0.2132
C22 C -0.0190(6) 0.1115(6) 0.3207(13)
H29 H 0.0027 0.0795 0.3608
H30 H -0.0316 0.0943 0.2535
H31 H -0.0559 0.1251 0.3589
Cu2F Cu 0.31314(2) 0.05812(2) 0.31416(4)
O1F O 0.26221(13) 0.14595(13) 0.4398(2)
O2F O 0.30172(14) 0.05305(13) 0.4684(2)
O3F O 0.23006(14) 0.02492(13) 0.2985(2)
O4F O 0.18659(15) 0.10965(16) 0.2326(3)
O5F O 0.39404(13) 0.09439(13) 1.3346(2)
N1F N 0.22898(15) 0.16338(15) 0.6348(2)
H1F H 0.1935 0.1632 0.6757
N2F N 0.31818(14) 0.09811(14) 1.1739(2)
H2F H 0.2820 0.1213 1.1673
C1F C 0.27183(17) 0.09960(17) 0.4979(3)
C2F C 0.2431(2) 0.09797(19) 0.6043(3)
H3F H 0.2730 0.0793 0.6548
C3F C 0.1843(3) 0.0597(3) 0.6011(4)
C4F C 0.2805(2) 0.19123(19) 0.6962(3)
H4F H 0.2708 0.2353 0.7106
H5F H 0.3191 0.1900 0.6545
C5F C 0.2914(2) 0.15759(18) 0.7980(3)
C6F C 0.2461(2) 0.1541(2) 0.8728(3)
H6F H 0.2079 0.1751 0.8621
C7F C 0.2545(2) 0.1213(3) 0.9620(3)
H7F H 0.2218 0.1192 1.0113
C8F C 0.3095(2) 0.09101(19) 0.9821(3)
C9F C 0.3562(2) 0.0959(3) 0.9077(3)
H8F H 0.3949 0.0761 0.9193
C10F C 0.3470(2) 0.1285(2) 0.8186(3)
H9F H 0.3798 0.1313 0.7695
C11F C 0.1851(2) 0.0557(2) 0.2629(4)
C12F C 0.1228(3) 0.0205(4) 0.2670(8)
H10F H 0.1299 -0.0217 0.2928
H11F H 0.1048 0.0186 0.1973
H12F H 0.0942 0.0422 0.3136
C13F C 0.41378(18) 0.12908(18) 1.2632(3)
C14F C 0.36931(18) 0.14388(17) 1.1740(3)
H13F H 0.3923 0.1412 1.1068
C15F C 0.3430(2) 0.20992(19) 1.1870(4)
H14F H 0.3040 0.2128 1.1466
H15F H 0.3321 0.2159 1.2609
C16F C 0.3846(3) 0.2625(2) 1.1544(5)
H16F H 0.4248 0.2577 1.1922
C17F C 0.3987(3) 0.2627(3) 1.0406(5)
H17F H 0.4259 0.2979 1.0243
H18F H 0.3600 0.2666 1.0013
H19F H 0.4195 0.2239 1.0217
C18F C 0.3565(3) 0.3234(2) 1.1875(7)
H20F H 0.3837 0.3575 1.1661
H21F H 0.3519 0.3239 1.2631
H22F H 0.3158 0.3284 1.1549
C19F C 0.3193(2) 0.0563(2) 1.0825(3)
H23F H 0.2865 0.0246 1.0902
H24F H 0.3598 0.0347 1.0800
O7F O 0.46528(15) 0.15396(15) 1.2619(2)
C20F C 0.1667(4) 0.0242(5) 0.6965(7)
H25F H 0.1509 0.0564 0.7456
C21F C 0.2162(6) -0.0108(6) 0.7582(10)
H26F H 0.2378 -0.0399 0.7123
H27F H 0.1965 -0.0337 0.8149
H28F H 0.2461 0.0189 0.7868
C22F C 0.1115(6) -0.0190(6) 0.6793(13)
H29F H 0.0795 0.0027 0.6392
H30F H 0.0943 -0.0316 0.7465
H31F H 0.1251 -0.0559 0.6411
Cu2_2 Cu 0.05812(2) 0.31314(2) -0.31416(4)
Cu2A Cu 0.18686(2) 0.55812(2) -0.31416(4)
Cu2D Cu 0.55812(2) 0.18686(2) 1.31416(4)
Cu2F_2 Cu 0.31314(2) 0.05812(2) 1.31416(4)
O5_2 O 0.09439(13) 0.39404(13) 0.6654(2)
O5F_2 O 0.39404(13) 0.09439(13) 0.3346(2)
N2_2 N 0.09811(14) 0.31818(14) 0.8261(2)
N2F_2 N 0.31818(14) 0.09811(14) 0.1739(2)
O7C O -0.03472(15) 0.34604(15) 0.7381(2)
O7E O 0.34604(15) -0.03472(15) 0.2619(2)
O8 O 0.2546(3) 0.4039(2) 0.5601(5)
O9 O 0.1400(3) 0.4306(3) 0.4631(5)
O10 O 0.0000 0.5000 -0.2154(12)
O11 O 0.0000 0.5000 -0.066(2)
loop_
_geom_bond_atom_site_label_1
_geom_bond_atom_site_label_2
_geom_bond_site_symmetry_1
_geom_bond_site_symmetry_2
Cu1 O1 1_555 1_555
Cu2 O1 1_555 1_555
O1 C1 1_555 1_555
O2 Cu2 1_555 1_555
O3 Cu2 1_555 1_555
O4 C11 1_555 1_555
O5 C13 1_555 1_555
O6 Cu1 1_555 1_555
N1 Cu1 1_555 1_555
H1 N1 1_555 1_555
N2 H2 1_555 1_555
C1 O2 1_555 1_555
C2 N1 1_555 1_555
H3 C2 1_555 1_555
C3 C2 1_555 1_555
C4 N1 1_555 1_555
H4 C4 1_555 1_555
H5 C4 1_555 1_555
C5 C4 1_555 1_555
C6 C5 1_555 1_555
H6 C6 1_555 1_555
C7 C6 1_555 1_555
H7 C7 1_555 1_555
C8 C7 1_555 1_555
C9 C8 1_555 1_555
H8 C9 1_555 1_555
C10 C5 1_555 1_555
H9 C10 1_555 1_555
C11 O3 1_555 1_555
C12 C11 1_555 1_555
H10 C12 1_555 1_555
H11 C12 1_555 1_555
H12 C12 1_555 1_555
C13 C14 1_555 1_555
C14 N2 1_555 1_555
H13 C14 1_555 1_555
C15 C14 1_555 1_555
H14 C15 1_555 1_555
H15 C15 1_555 1_555
C16 C15 1_555 1_555
H16 C16 1_555 1_555
C17 C16 1_555 1_555
H17 C17 1_555 1_555
H18 C17 1_555 1_555
H19 C17 1_555 1_555
C18 C16 1_555 1_555
H20 C18 1_555 1_555
H21 C18 1_555 1_555
H22 C18 1_555 1_555
C19 N2 1_555 1_555
H23 C19 1_555 1_555
H24 C19 1_555 1_555
O7 C13 1_555 1_555
C20 C3 1_555 1_555
H25 C20 1_555 1_555
C21 C20 1_555 1_555
H26 C21 1_555 1_555
H27 C21 1_555 1_555
H28 C21 1_555 1_555
C22 C20 1_555 1_555
H29 C22 1_555 1_555
H30 C22 1_555 1_555
H31 C22 1_555 1_555
Cu2F O1F 1_555 1_555
O1F Cu1 1_555 1_555
O2F Cu2F 1_555 1_555
O3F Cu2F 1_555 1_555
O4F C11F 1_555 1_555
O5F C13F 1_555 1_555
N1F Cu1 1_555 1_555
H1F N1F 1_555 1_555
N2F H2F 1_555 1_555
C1F O1F 1_555 1_555
C2F N1F 1_555 1_555
H3F C2F 1_555 1_555
C3F C2F 1_555 1_555
C4F N1F 1_555 1_555
H4F C4F 1_555 1_555
H5F C4F 1_555 1_555
C5F C4F 1_555 1_555
C6F C5F 1_555 1_555
H6F C6F 1_555 1_555
C7F C6F 1_555 1_555
H7F C7F 1_555 1_555
C8F C7F 1_555 1_555
C9F C8F 1_555 1_555
H8F C9F 1_555 1_555
C10F C5F 1_555 1_555
H9F C10F 1_555 1_555
C11F O3F 1_555 1_555
C12F C11F 1_555 1_555
H10F C12F 1_555 1_555
H11F C12F 1_555 1_555
H12F C12F 1_555 1_555
C13F C14F 1_555 1_555
C14F N2F 1_555 1_555
H13F C14F 1_555 1_555
C15F C14F 1_555 1_555
H14F C15F 1_555 1_555
H15F C15F 1_555 1_555
C16F C15F 1_555 1_555
H16F C16F 1_555 1_555
C17F C16F 1_555 1_555
H17F C17F 1_555 1_555
H18F C17F 1_555 1_555
H19F C17F 1_555 1_555
C18F C16F 1_555 1_555
H20F C18F 1_555 1_555
H21F C18F 1_555 1_555
H22F C18F 1_555 1_555
C19F N2F 1_555 1_555
H23F C19F 1_555 1_555
H24F C19F 1_555 1_555
O7F C13F 1_555 1_555
C20F C3F 1_555 1_555
H25F C20F 1_555 1_555
C21F C20F 1_555 1_555
H26F C21F 1_555 1_555
H27F C21F 1_555 1_555
H28F C21F 1_555 1_555
C22F C20F 1_555 1_555
H29F C22F 1_555 1_555
H30F C22F 1_555 1_555
H31F C22F 1_555 1_555
Cu2_2 O5 1_555 1_555
Cu2A O7 1_555 1_555
Cu2D O7F 1_555 1_555
Cu2F_2 O5F 1_555 1_555
O5_2 Cu2 1_555 1_555
O5F_2 Cu2F 1_555 1_555
N2_2 Cu2 1_555 1_555
N2F_2 Cu2F 1_555 1_555
O7C Cu2 1_555 1_555
O7E Cu2F 1_555 1_555
N2 Cu2_2 1_555 1_555
C1 C2 1_555 1_555
C8 C19 1_555 1_555
C9 C10 1_555 1_555
O2F C1F 1_555 1_555
N2F Cu2F_2 1_555 1_555
C1F C2F 1_555 1_555
C8F C19F 1_555 1_555
C9F C10F 1_555 1_555

#END
