
#######################################################################
#
#                 Cambridge Crystallographic Data Centre
#                                CCDC 
#
#######################################################################
#
# If this CIF has been generated from an entry in the Cambridge 
# Structural Database, then it will include bibliographic, chemical, 
# crystal, experimental, refinement or atomic coordinate data resulting 
# from the CCDC's data processing and validation procedures.
#
#######################################################################

data_NUTQEZ
_chemical_formula_moiety         '(C18 H10 Cu2 O10)n'
_symmetry_cell_setting           rhombohedral
_symmetry_space_group_name_H-M   'R -3 m'
_symmetry_Int_Tables_number      166
_space_group_name_Hall           '-R 3 2"'
loop_
_symmetry_equiv_pos_site_id
_symmetry_equiv_pos_as_xyz
1 x,y,z
2 -y,x-y,z
3 -x+y,-x,z
4 x-y,-y,-z
5 -x,-x+y,-z
6 y,x,-z
7 2/3+x,1/3+y,1/3+z
8 2/3-y,1/3+x-y,1/3+z
9 2/3-x+y,1/3-x,1/3+z
10 2/3+x-y,1/3-y,1/3-z
11 2/3-x,1/3-x+y,1/3-z
12 2/3+y,1/3+x,1/3-z
13 1/3+x,2/3+y,2/3+z
14 1/3-y,2/3+x-y,2/3+z
15 1/3-x+y,2/3-x,2/3+z
16 1/3+x-y,2/3-y,2/3-z
17 1/3-x,2/3-x+y,2/3-z
18 1/3+y,2/3+x,2/3-z
19 -x,-y,-z
20 y,-x+y,-z
21 x-y,x,-z
22 -x+y,y,z
23 x,x-y,z
24 -y,-x,z
25 1/3-x,2/3-y,2/3-z
26 1/3+y,2/3-x+y,2/3-z
27 1/3+x-y,2/3+x,2/3-z
28 1/3-x+y,2/3+y,2/3+z
29 1/3+x,2/3+x-y,2/3+z
30 1/3-y,2/3-x,2/3+z
31 2/3-x,1/3-y,1/3-z
32 2/3+y,1/3-x+y,1/3-z
33 2/3+x-y,1/3+x,1/3-z
34 2/3-x+y,1/3+y,1/3+z
35 2/3+x,1/3+x-y,1/3+z
36 2/3-y,1/3-x,1/3+z
_cell_length_a                   23.773(3)
_cell_length_b                   23.773(3)
_cell_length_c                   19.072(4)
_cell_angle_alpha                90
_cell_angle_beta                 90
_cell_angle_gamma                120
_cell_volume                     9334.58
loop_
_atom_site_label
_atom_site_type_symbol
_atom_site_fract_x
_atom_site_fract_y
_atom_site_fract_z
_atom_site_U_iso_or_equiv
_atom_site_thermal_displace_type
Cu1 Cu 0.26999(4) 0.13499(2) 0.15502(5) 0.0362 Uani
O1 O 0.27067(19) 0.1941(2) 0.2268(2) 0.0532 Uani
C1 C 0.3215(3) 0.2380(3) 0.2535(3) 0.0494 Uani
O2 O 0.37750(19) 0.2468(2) 0.2467(2) 0.0521 Uani
C2 C 0.3145(3) 0.2859(3) 0.2966(4) 0.0552 Uani
O3 O 0.1678(3) 0.08390(14) 0.1439(4) 0.0710 Uani
C3 C 0.3669(3) 0.3333 0.3333 0.0507 Uani
H1 H 0.4069 0.3333 0.3333 0.0600 Uiso
C4 C 0.2566(3) 0.2858(3) 0.2966(4) 0.0653 Uani
H2 H 0.2204 0.2532 0.2715 0.0780 Uiso
C5 C 0.2510(4) 0.3333 0.3333 0.0728 Uani
C6 C 0.1914(4) 0.3333 0.3333 0.0814 Uani
Cu1O Cu 0.46833(4) 0.53168(2) 0.51165(5) 0.0362 Uani
Cu1J Cu 0.39668(4) 0.19833(4) 0.17831(5) 0.0362 Uani
Cu1G Cu 0.53168(2) 0.46833(4) 0.48835(5) 0.0362 Uani
Cu1U Cu -0.13500(4) 0.13499(2) 0.15502(5) 0.0362 Uani
Cu1EA Cu -0.19834(2) 0.19833(4) 0.17831(5) 0.0362 Uani
Cu1X Cu 0.06334(4) 0.53168(2) 0.51165(5) 0.0362 Uani
Cu1HA Cu -0.06334(4) 0.46833(4) 0.48835(5) 0.0362 Uani
O1O O 0.40990(28) 0.4726(2) 0.4399(2) 0.0532 Uani
O1U O -0.07657(28) 0.1941(2) 0.2268(2) 0.0532 Uani
O1X O 0.06266(19) 0.4726(2) 0.4399(2) 0.0532 Uani
O1V O 0.27067(19) 0.07657(28) 0.2268(2) 0.0532 Uani
O1Y O 0.5274(2) 0.59010(28) 0.4399(2) 0.0532 Uani
C1O C 0.4168(4) 0.4287(3) 0.4132(3) 0.0494 Uani
C1U C -0.0835(4) 0.2380(3) 0.2535(3) 0.0494 Uani
C1X C 0.0118(3) 0.4287(3) 0.4132(3) 0.0494 Uani
O2O O 0.46403(28) 0.4199(2) 0.4200(2) 0.0521 Uani
O2U O -0.13070(28) 0.2468(2) 0.2467(2) 0.0521 Uani
O2X O -0.04417(19) 0.4199(2) 0.4200(2) 0.0521 Uani
O2J O 0.28917(19) 0.20263(28) 0.0866(2) 0.0521 Uani
O2DA O 0.28917(19) 0.0865(2) 0.0866(2) 0.0521 Uani
O2G O 0.4199(2) 0.46403(28) 0.5800(2) 0.0521 Uani
O2GA O 0.53597(28) 0.5801(2) 0.5800(2) 0.0521 Uani
C2O C 0.3619(4) 0.3808(3) 0.3701(4) 0.0552 Uani
C2U C -0.0286(4) 0.2859(3) 0.2966(4) 0.0552 Uani
C2X C 0.0188(3) 0.3808(3) 0.3701(4) 0.0552 Uani
O3O O 0.41723(33) 0.58277(14) 0.5228(4) 0.0710 Uani
C3U C -0.0336(3) 0.3333 0.3333 0.0507 Uani
H1U H -0.0736 0.3333 0.3333 0.0600 Uiso
C4O C 0.3041(4) 0.3809(3) 0.3701(4) 0.0653 Uani
C4U C 0.0292(4) 0.2858(3) 0.2966(4) 0.0653 Uani
C4X C 0.0767(3) 0.3809(3) 0.3701(4) 0.0653 Uani
H2O H 0.3005 0.4135 0.3952 0.0780 Uiso
H2X H 0.1129 0.4135 0.3952 0.0780 Uiso
H2U H 0.0328 0.2532 0.2715 0.0780 Uiso
C5U C 0.0823(4) 0.3333 0.3333 0.0728 Uani
C6U C 0.1419(4) 0.3333 0.3333 0.0814 Uani
loop_
_atom_site_aniso_label
_atom_site_aniso_U_11
_atom_site_aniso_U_22
_atom_site_aniso_U_33
_atom_site_aniso_U_23
_atom_site_aniso_U_13
_atom_site_aniso_U_12
Cu1 0.0359(7) 0.0288(6) 0.0462(8) -0.00602(19) -0.0120(4) 0.0179(4)
O1 0.042(2) 0.050(2) 0.070(3) -0.0254(19) -0.0144(18) 0.0249(18)
C1 0.045(3) 0.044(3) 0.063(4) -0.015(3) -0.015(2) 0.025(2)
O2 0.041(2) 0.049(2) 0.067(2) -0.0216(19) -0.0098(17) 0.0230(16)
C2 0.046(3) 0.057(3) 0.067(4) -0.028(3) -0.014(3) 0.029(3)
O3 0.031(3) 0.071(3) 0.098(5) -0.0086(15) -0.017(3) 0.0157(13)
C3 0.042(3) 0.047(4) 0.064(5) -0.024(4) -0.012(2) 0.023(2)
C4 0.044(3) 0.068(4) 0.088(5) -0.045(4) -0.027(3) 0.031(3)
C5 0.049(3) 0.084(7) 0.097(8) -0.055(6) -0.028(3) 0.042(3)
C6 0.053(3) 0.077(7) 0.123(9) -0.066(7) -0.033(3) 0.039(3)
Cu1O 0.0289 0.0288 0.0462 -0.00602 0.00598 0.0109
Cu1J 0.0359 0.0289 0.0462 -0.00598 -0.012 0.018
Cu1G 0.0288 0.0289 0.0462 -0.00598 0.00602 0.0109
Cu1U 0.0288 0.0289 0.0462 -0.00598 0.00602 0.0109
Cu1EA 0.0289 0.0288 0.0462 -0.00602 0.00598 0.0109
Cu1X 0.0359 0.0289 0.0462 -0.00598 -0.012 0.018
Cu1HA 0.0359 0.0288 0.0462 -0.00602 -0.012 0.0179
O1O 0.0422 0.05 0.07 -0.0254 -0.011 0.0251
O1U 0.0422 0.05 0.07 -0.0254 -0.011 0.0251
O1X 0.042 0.05 0.07 -0.0254 -0.0144 0.0249
O1V 0.042 0.0422 0.07 0.011 -0.0144 0.0171
O1Y 0.05 0.0422 0.07 0.011 0.0254 0.0251
C1O 0.039 0.044 0.063 -0.015 0 0.019
C1U 0.039 0.044 0.063 -0.015 0 0.019
C1X 0.045 0.044 0.063 -0.015 -0.015 0.025
O2O 0.044 0.049 0.067 -0.0216 -0.0118 0.026
O2U 0.044 0.049 0.067 -0.0216 -0.0118 0.026
O2X 0.041 0.049 0.067 -0.0216 -0.0098 0.023
O2J 0.041 0.044 0.067 0.0118 -0.0098 0.018
O2DA 0.041 0.049 0.067 -0.0216 -0.0098 0.023
O2G 0.049 0.044 0.067 0.0118 0.0216 0.026
O2GA 0.044 0.049 0.067 -0.0216 -0.0118 0.026
C2O 0.045 0.057 0.067 -0.028 -0.014 0.028
C2U 0.045 0.057 0.067 -0.028 -0.014 0.028
C2X 0.046 0.057 0.067 -0.028 -0.014 0.029
O3O 0.0706 0.071 0.098 -0.0086 0.0084 0.0553
C3U 0.043 0.047 0.064 -0.024 -0.012 0.024
C4O 0.05 0.068 0.088 -0.045 -0.018 0.037
C4U 0.05 0.068 0.088 -0.045 -0.018 0.037
C4X 0.044 0.068 0.088 -0.045 -0.027 0.031
C5U 0.049 0.084 0.097 -0.055 -0.027 0.042
C6U 0.052 0.077 0.123 -0.066 -0.033 0.038
loop_
_geom_bond_atom_site_label_1
_geom_bond_atom_site_label_2
_geom_bond_site_symmetry_1
_geom_bond_site_symmetry_2
Cu1 O1 1_555 1_555
O1 C1 1_555 1_555
C1 O2 1_555 1_555
O2 Cu1J 1_555 1_555
C2 C1 1_555 1_555
O3 Cu1 1_555 1_555
C3 C2 1_555 1_555
H1 C3 1_555 1_555
C4 C2 1_555 1_555
H2 C4 1_555 1_555
C5 C4 1_555 1_555
C6 C5 1_555 1_555
Cu1O O1O 1_555 1_555
Cu1G O2O 1_555 1_555
Cu1U O1U 1_555 1_555
Cu1EA O2U 1_555 1_555
Cu1X O1X 1_555 1_555
Cu1HA O2X 1_555 1_555
O1O C1O 1_555 1_555
O1U C1U 1_555 1_555
O1X C1X 1_555 1_555
O1V Cu1 1_555 1_555
O1Y Cu1O 1_555 1_555
C1O O2O 1_555 1_555
C1U O2U 1_555 1_555
C1X O2X 1_555 1_555
O2J Cu1 1_555 1_555
O2DA Cu1 1_555 1_555
O2G Cu1O 1_555 1_555
O2GA Cu1O 1_555 1_555
C2O C3 1_555 1_555
C2U C1U 1_555 1_555
C2X C1X 1_555 1_555
O3O Cu1O 1_555 1_555
C3U C2U 1_555 1_555
H1U C3U 1_555 1_555
C4O C5 1_555 1_555
C4U C2U 1_555 1_555
C4X C2X 1_555 1_555
H2O C4O 1_555 1_555
H2X C4X 1_555 1_555
H2U C4U 1_555 1_555
C5U C4U 1_555 1_555
C6U C6 1_555 1_555
C1O C2O 1_555 1_555
C2O C4O 1_555 1_555
C2X C3U 1_555 1_555
C4X C5U 1_555 1_555
C5U C6U 1_555 1_555

#END
