
#######################################################################
#
#                 Cambridge Crystallographic Data Centre
#                                CCDC 
#
#######################################################################
#
# If this CIF has been generated from an entry in the Cambridge 
# Structural Database, then it will include bibliographic, chemical, 
# crystal, experimental, refinement or atomic coordinate data resulting 
# from the CCDC's data processing and validation procedures.
#
#######################################################################

data_NUTQAV
_chemical_formula_moiety         '(C18 H10 Cu2 O10)n'
_symmetry_cell_setting           rhombohedral
_symmetry_space_group_name_H-M   'R -3 m'
_symmetry_Int_Tables_number      166
_space_group_name_Hall           '-R 3 2"'
loop_
_symmetry_equiv_pos_site_id
_symmetry_equiv_pos_as_xyz
1 x,y,z
2 -y,x-y,z
3 -x+y,-x,z
4 x-y,-y,-z
5 -x,-x+y,-z
6 y,x,-z
7 2/3+x,1/3+y,1/3+z
8 2/3-y,1/3+x-y,1/3+z
9 2/3-x+y,1/3-x,1/3+z
10 2/3+x-y,1/3-y,1/3-z
11 2/3-x,1/3-x+y,1/3-z
12 2/3+y,1/3+x,1/3-z
13 1/3+x,2/3+y,2/3+z
14 1/3-y,2/3+x-y,2/3+z
15 1/3-x+y,2/3-x,2/3+z
16 1/3+x-y,2/3-y,2/3-z
17 1/3-x,2/3-x+y,2/3-z
18 1/3+y,2/3+x,2/3-z
19 -x,-y,-z
20 y,-x+y,-z
21 x-y,x,-z
22 -x+y,y,z
23 x,x-y,z
24 -y,-x,z
25 1/3-x,2/3-y,2/3-z
26 1/3+y,2/3-x+y,2/3-z
27 1/3+x-y,2/3+x,2/3-z
28 1/3-x+y,2/3+y,2/3+z
29 1/3+x,2/3+x-y,2/3+z
30 1/3-y,2/3-x,2/3+z
31 2/3-x,1/3-y,1/3-z
32 2/3+y,1/3-x+y,1/3-z
33 2/3+x-y,1/3+x,1/3-z
34 2/3-x+y,1/3+y,1/3+z
35 2/3+x,1/3+x-y,1/3+z
36 2/3-y,1/3-x,1/3+z
_cell_length_a                   18.837(8)
_cell_length_b                   18.837(8)
_cell_length_c                   32.120(18)
_cell_angle_alpha                90
_cell_angle_beta                 90
_cell_angle_gamma                120
_cell_volume                     9870.28
loop_
_atom_site_label
_atom_site_type_symbol
_atom_site_fract_x
_atom_site_fract_y
_atom_site_fract_z
_atom_site_U_iso_or_equiv
_atom_site_thermal_displace_type
Cu1 Cu -0.04498(2) 0.477511(12) 0.465271(12) 0.0419 Uani
O1 O 0.03412(11) 0.59006(12) 0.44910(6) 0.0644 Uani
O2 O 0.11082(11) 0.62753(11) 0.50701(6) 0.0621 Uani
O3 O -0.1048(3) 0.44760(13) 0.40630(10) 0.1195 Uani
C1 C 0.1738(2) 0.8262(2) 0.35011(16) 0.0927 Uani
C2 C 0.22499(13) 0.77501(13) 0.47028(12) 0.0584 Uani
H1 H 0.2364 0.7636 0.4971 0.0700 Uiso
C3 C 0.15297(17) 0.71960(17) 0.45075(9) 0.0595 Uani
C4 C 0.19051(16) 0.80949(16) 0.39104(15) 0.0797 Uani
C5 C 0.13502(19) 0.73630(19) 0.41130(9) 0.0748 Uani
H2 H 0.0858 0.6987 0.3981 0.0900 Uiso
C6 C 0.09436(16) 0.64038(17) 0.47101(9) 0.0551 Uani
Cu1Q Cu -0.189156(12) 0.62169(2) 0.201396(12) 0.0419 Uani
Cu1D Cu 0.04498(2) 0.522491(23) 0.534729(12) 0.0419 Uani
Cu1N Cu -0.144176(23) 0.71165(2) 0.131938(12) 0.0419 Uani
Cu1X Cu 0.37831(2) 1.189156(12) 0.201396(12) 0.0419 Uani
Cu1BA Cu 0.28835(2) 1.144176(23) 0.131938(12) 0.0419 Uani
Cu1W Cu 0.522489(12) 1.04498(2) 0.465271(12) 0.0419 Uani
Cu1T Cu 0.477509(23) 0.95502(2) 0.534729(12) 0.0419 Uani
O1Q O -0.07661(12) 0.70079(11) 0.21757(6) 0.0644 Uani
O1X O 0.29921(11) 1.07661(12) 0.21757(6) 0.0644 Uani
O1W O 0.40994(12) 0.96588(11) 0.44910(6) 0.0644 Uani
O1V O 0.03412(11) 0.44406(16) 0.44910(6) 0.0644 Uani
O1Z O -0.22261(16) 0.70079(11) 0.21757(6) 0.0644 Uani
O2Q O -0.03914(11) 0.77749(11) 0.15966(6) 0.0621 Uani
O2X O 0.22251(11) 1.03914(11) 0.15966(6) 0.0621 Uani
O2W O 0.37247(11) 0.88918(11) 0.50701(6) 0.0621 Uani
O2D O -0.11082(11) 0.51671(16) 0.49299(6) 0.0621 Uani
O2R O -0.11082(11) 0.37247(11) 0.49299(6) 0.0621 Uani
O2N O -0.14996(16) 0.55585(11) 0.17368(6) 0.0621 Uani
O2CA O -0.29420(11) 0.55585(11) 0.17368(6) 0.0621 Uani
O3Q O -0.21907(13) 0.5619(3) 0.26037(10) 0.1195 Uani
C1Q C 0.1595(2) 0.8405(2) 0.31656(16) 0.0927 Uani
C2Q C 0.10834(13) 0.89166(13) 0.19639(12) 0.0584 Uani
H1Q H 0.0969 0.9031 0.1696 0.0700 Uiso
C3W C 0.28040(17) 0.84703(17) 0.45075(9) 0.0595 Uani
C3X C 0.18036(17) 0.94707(17) 0.21592(9) 0.0595 Uani
C3Q C 0.05293(17) 0.81964(17) 0.21592(9) 0.0595 Uani
C4Q C 0.14282(16) 0.85718(16) 0.27563(15) 0.0797 Uani
C5W C 0.26370(19) 0.86498(19) 0.41130(9) 0.0748 Uani
C5X C 0.19831(19) 0.93037(19) 0.25537(9) 0.0748 Uani
C5Q C 0.06963(19) 0.80169(19) 0.25537(9) 0.0748 Uani
H2Q H 0.0320 0.7525 0.2686 0.0900 Uiso
H2X H 0.2475 0.9680 0.2686 0.0900 Uiso
H2W H 0.3013 0.9142 0.3981 0.0900 Uiso
C6Q C -0.02629(17) 0.76103(16) 0.19566(9) 0.0551 Uani
C6X C 0.23897(16) 1.02629(17) 0.19566(9) 0.0551 Uani
C6W C 0.35962(17) 0.90564(16) 0.47101(9) 0.0551 Uani
loop_
_atom_site_aniso_label
_atom_site_aniso_U_11
_atom_site_aniso_U_22
_atom_site_aniso_U_33
_atom_site_aniso_U_23
_atom_site_aniso_U_13
_atom_site_aniso_U_12
Cu1 0.0277(2) 0.0498(2) 0.0407(2) -0.00213(9) -0.00427(18) 0.01384(12)
O1 0.0465(11) 0.0572(12) 0.0621(11) 0.0067(10) -0.0087(9) 0.0054(10)
O2 0.0500(12) 0.0538(12) 0.0604(11) 0.0086(9) -0.0054(9) 0.0094(9)
O3 0.124(3) 0.144(3) 0.084(2) -0.0316(11) -0.063(2) 0.0622(16)
C1 0.078(2) 0.078(2) 0.082(3) 0.0207(17) -0.0207(17) 0.009(3)
C2 0.0531(17) 0.0531(17) 0.063(2) 0.0029(10) -0.0029(10) 0.022(2)
C3 0.0495(17) 0.0476(16) 0.0645(17) 0.0067(14) -0.0058(14) 0.0115(14)
C4 0.068(2) 0.068(2) 0.071(3) 0.0162(14) -0.0162(14) 0.010(2)
C5 0.0521(18) 0.0572(19) 0.078(2) 0.0120(16) -0.0164(16) -0.0005(15)
C6 0.0399(15) 0.0515(16) 0.0649(17) 0.0008(14) 0.0057(13) 0.0161(14)
Cu1Q 0.0498 0.0277 0.0407 0.00427 0.00213 0.01384
Cu1D 0.0277 0.04982 0.0407 -0.00214 -0.00427 0.01386
Cu1N 0.04982 0.0277 0.0407 0.00427 0.00214 0.01386
Cu1X 0.0277 0.04982 0.0407 -0.00214 -0.00427 0.01386
Cu1BA 0.0277 0.0498 0.0407 -0.00213 -0.00427 0.01384
Cu1W 0.04982 0.0277 0.0407 0.00427 0.00214 0.01386
Cu1T 0.0498 0.0277 0.0407 0.00427 0.00213 0.01384
O1Q 0.0572 0.0465 0.0621 0.0087 -0.0067 0.0054
O1X 0.0465 0.0572 0.0621 0.0067 -0.0087 0.0054
O1W 0.0572 0.0465 0.0621 0.0087 -0.0067 0.0054
O1V 0.0465 0.0929 0.0621 -0.0154 -0.0087 0.0411
O1Z 0.0929 0.0465 0.0621 0.0087 0.0154 0.0411
O2Q 0.0538 0.05 0.0604 0.0054 -0.0086 0.0094
O2X 0.05 0.0538 0.0604 0.0086 -0.0054 0.0094
O2W 0.0538 0.05 0.0604 0.0054 -0.0086 0.0094
O2D 0.05 0.085 0.0604 -0.014 -0.0054 0.0406
O2R 0.05 0.0538 0.0604 0.0086 -0.0054 0.0094
O2N 0.085 0.05 0.0604 0.0054 0.014 0.0406
O2CA 0.0538 0.05 0.0604 0.0054 -0.0086 0.0094
O3Q 0.144 0.124 0.084 0.063 0.0316 0.0622
C1Q 0.078 0.078 0.082 0.0207 -0.0207 0.009
C2Q 0.0531 0.0531 0.063 0.0029 -0.0029 0.022
C3W 0.0476 0.0495 0.0645 0.0058 -0.0067 0.0115
C3X 0.0495 0.0476 0.0645 0.0067 -0.0058 0.0115
C3Q 0.0476 0.0495 0.0645 0.0058 -0.0067 0.0115
C4Q 0.068 0.068 0.071 0.0162 -0.0162 0.01
C5W 0.0572 0.0521 0.078 0.0164 -0.012 -0.0005
C5X 0.0521 0.0572 0.078 0.012 -0.0164 -0.0005
C5Q 0.0572 0.0521 0.078 0.0164 -0.012 -0.0005
C6Q 0.0515 0.0399 0.0649 -0.0057 -0.0008 0.0161
C6X 0.0399 0.0515 0.0649 0.0008 0.0057 0.0161
C6W 0.0515 0.0399 0.0649 -0.0057 -0.0008 0.0161
loop_
_geom_bond_atom_site_label_1
_geom_bond_atom_site_label_2
_geom_bond_site_symmetry_1
_geom_bond_site_symmetry_2
Cu1 O1 1_555 1_555
O1 C6 1_555 1_555
O2 C6 1_555 1_555
O3 Cu1 1_555 1_555
C1 C4 1_555 1_555
C2 H1 1_555 1_555
C3 C2 1_555 1_555
C4 C5 1_555 1_555
C5 C3 1_555 1_555
H2 C5 1_555 1_555
C6 C3 1_555 1_555
Cu1Q O1Q 1_555 1_555
Cu1D O2 1_555 1_555
Cu1N O2Q 1_555 1_555
Cu1X O1X 1_555 1_555
Cu1BA O2X 1_555 1_555
Cu1W O1W 1_555 1_555
Cu1T O2W 1_555 1_555
O1Q C6Q 1_555 1_555
O1X C6X 1_555 1_555
O1W C6W 1_555 1_555
O1V Cu1 1_555 1_555
O1Z Cu1Q 1_555 1_555
O2Q C6Q 1_555 1_555
O2X C6X 1_555 1_555
O2W C6W 1_555 1_555
O2D Cu1 1_555 1_555
O2R Cu1 1_555 1_555
O2N Cu1Q 1_555 1_555
O2CA Cu1Q 1_555 1_555
O3Q Cu1Q 1_555 1_555
C1Q C1 1_555 1_555
C2Q H1Q 1_555 1_555
C3W C2 1_555 1_555
C3X C2Q 1_555 1_555
C3Q C2Q 1_555 1_555
C4Q C1Q 1_555 1_555
C5W C4 1_555 1_555
C5X C3X 1_555 1_555
C5Q C3Q 1_555 1_555
H2Q C5Q 1_555 1_555
H2X C5X 1_555 1_555
H2W C5W 1_555 1_555
C6Q C3Q 1_555 1_555
C6X C3X 1_555 1_555
C6W C3W 1_555 1_555
C3W C5W 1_555 1_555
C4Q C5X 1_555 1_555
C4Q C5Q 1_555 1_555

#END
