
#######################################################################
#
#                 Cambridge Crystallographic Data Centre
#                                CCDC 
#
#######################################################################
#
# If this CIF has been generated from an entry in the Cambridge 
# Structural Database, then it will include bibliographic, chemical, 
# crystal, experimental, refinement or atomic coordinate data resulting 
# from the CCDC's data processing and validation procedures.
#
#######################################################################

data_COKMUM
_chemical_formula_moiety         '(C9 H2 Mn2 O8)n'
_symmetry_cell_setting           rhombohedral
_symmetry_space_group_name_H-M   'R -3'
_symmetry_Int_Tables_number      148
_space_group_name_Hall           '-R 3'
loop_
_symmetry_equiv_pos_site_id
_symmetry_equiv_pos_as_xyz
1 x,y,z
2 -y,x-y,z
3 -x+y,-x,z
4 2/3+x,1/3+y,1/3+z
5 2/3-y,1/3+x-y,1/3+z
6 2/3-x+y,1/3-x,1/3+z
7 1/3+x,2/3+y,2/3+z
8 1/3-y,2/3+x-y,2/3+z
9 1/3-x+y,2/3-x,2/3+z
10 -x,-y,-z
11 y,-x+y,-z
12 x-y,x,-z
13 1/3-x,2/3-y,2/3-z
14 1/3+y,2/3-x+y,2/3-z
15 1/3+x-y,2/3+x,2/3-z
16 2/3-x,1/3-y,1/3-z
17 2/3+y,1/3-x+y,1/3-z
18 2/3+x-y,1/3+x,1/3-z
_cell_length_a                   26.3262(16)
_cell_length_b                   26.3262
_cell_length_c                   7.0440(5)
_cell_angle_alpha                90
_cell_angle_beta                 90
_cell_angle_gamma                120
_cell_volume                     4227.92
loop_
_atom_site_label
_atom_site_type_symbol
_atom_site_fract_x
_atom_site_fract_y
_atom_site_fract_z
_atom_site_U_iso_or_equiv
_atom_site_thermal_displace_type
Mn1 Mn 0.3856(10) 0.3609(11) 0.142(4) 0.0330 Uiso
O1 O 0.3292(6) 0.2945(6) 0.3615(19) 0.0188 Uiso
O2 O 0.3007(7) 0.2278(7) 0.5889(19) 0.0188 Uiso
O3 O 0.3572(6) 0.2768(7) 0.0107(23) 0.0188 Uiso
C1 C 0.3202(5) 0.2457(5) 0.4193(15) 0.0171 Uiso
C2 C 0.3288(6) 0.2053(5) 0.2876(17) 0.0171 Uiso
C3 C 0.3453(6) 0.2235(6) 0.0898(15) 0.0171 Uiso
C4 C 0.3524(6) 0.1832(6) -0.0210(15) 0.0171 Uiso
H1 H 0.3609(10) 0.1919(8) -0.1612(27) 0.0040 Uiso
O1O O 0.3375(6) 0.0388(6) -0.0282(19) 0.0188 Uiso
O2O O 0.3660(7) 0.1055(7) -0.2556(19) 0.0188 Uiso
O3O O 0.3095(6) 0.0565(7) 0.3226(23) 0.0188 Uiso
C1O C 0.3465(5) 0.0876(5) -0.0860(15) 0.0171 Uiso
C2O C 0.3379(6) 0.1280(5) 0.0457(17) 0.0171 Uiso
C3O C 0.3214(6) 0.1098(6) 0.2435(15) 0.0171 Uiso
C4O C 0.3143(6) 0.1501(6) 0.3543(15) 0.0171 Uiso
H1O H 0.3058(10) 0.1414(8) 0.4945(27) 0.0040 Uiso
Mn1J Mn 0.3609(11) -0.0247(15) -0.142(4) 0.0330 Uiso
Mn1D Mn 0.3058(11) 0.3580(15) 0.475(4) 0.0330 Uiso
Mn1H Mn 0.3086(15) 0.2811(10) -0.191(4) 0.0330 Uiso
Mn1H_2 Mn 0.3086(15) 0.2811(10) 0.809(4) 0.0330 Uiso
Mn1O Mn 0.2811(10) -0.0276(11) 0.191(4) 0.0330 Uiso
Mn1N Mn 0.3580(15) 0.0523(10) -0.475(4) 0.0330 Uiso
Mn1N_2 Mn 0.3580(15) 0.0523(10) 0.525(4) 0.0330 Uiso
O1H O 0.2986(8) 0.3375(6) 0.0282(19) 0.0188 Uiso
O1J O 0.2945(6) -0.0347(8) -0.3615(19) 0.0188 Uiso
O2D O 0.4389(7) 0.4062(10) -0.0778(19) 0.0188 Uiso
O2N O 0.4062(10) -0.0326(7) 0.0778(19) 0.0188 Uiso
O3D O 0.3899(7) 0.4137(9) 0.3440(23) 0.0188 Uiso
O3J O 0.2768(7) -0.0804(9) -0.0107(23) 0.0188 Uiso
O3N O 0.4137(9) 0.0239(6) -0.3440(23) 0.0188 Uiso
O4 O 0.2342(16) 0.7771(16) 0.470(5) 0.0540 Uiso
C5 C 0.1914(11) 0.7383(12) 0.5291(35) 0.0300 Uiso
O5 O 0.1460(11) 0.7000(9) 0.5831(35) 0.0050 Uiso
loop_
_geom_bond_atom_site_label_1
_geom_bond_atom_site_label_2
_geom_bond_site_symmetry_1
_geom_bond_site_symmetry_2
Mn1 O1 1_555 1_555
O1 C1 1_555 1_555
O2 C1 1_555 1_555
O3 Mn1 1_555 1_555
C1 C2 1_555 1_555
C2 C3 1_555 1_555
C3 O3 1_555 1_555
C4 C3 1_555 1_555
H1 C4 1_555 1_555
O4 C5 1_555 1_555
C5 O5 1_555 1_555
O1O C1O 1_555 1_555
O2O C1O 1_555 1_555
O3O C3O 1_555 1_555
C1O C2O 1_555 1_555
C2O C4 1_555 1_555
C3O C2O 1_555 1_555
C4O C2 1_555 1_555
H1O C4O 1_555 1_555
Mn1J O1O 1_555 1_555
Mn1D O1 1_555 1_555
Mn1H O3 1_555 1_555
Mn1H_2 O2 1_555 1_555
Mn1O O1O 1_555 1_555
Mn1N O2O 1_555 1_555
Mn1N_2 O3O 1_555 1_555
O1H Mn1 1_555 1_555
O1J Mn1J 1_555 1_555
O2D Mn1 1_555 1_555
O2N Mn1J 1_555 1_555
O3D Mn1 1_555 1_555
O3J Mn1J 1_555 1_555
O3N Mn1J 1_555 1_555
O3O Mn1O 1_555 1_555
C3O C4O 1_555 1_555
Mn1D O3D 1_555 1_555
Mn1H O1H 1_555 1_555
Mn1O O3J 1_555 1_555
Mn1N O1J 1_555 1_555
Mn1N O3N 1_555 1_555

#END
