
#######################################################################
#
#                 Cambridge Crystallographic Data Centre
#                                CCDC 
#
#######################################################################
#
# If this CIF has been generated from an entry in the Cambridge 
# Structural Database, then it will include bibliographic, chemical, 
# crystal, experimental, refinement or atomic coordinate data resulting 
# from the CCDC's data processing and validation procedures.
#
#######################################################################

data_COKNUN
_chemical_formula_moiety         '(C8 H2 Mn2 O6)n'
_symmetry_cell_setting           rhombohedral
_symmetry_space_group_name_H-M   'R -3'
_symmetry_Int_Tables_number      148
_space_group_name_Hall           '-R 3'
loop_
_symmetry_equiv_pos_site_id
_symmetry_equiv_pos_as_xyz
1 x,y,z
2 -y,x-y,z
3 -x+y,-x,z
4 2/3+x,1/3+y,1/3+z
5 2/3-y,1/3+x-y,1/3+z
6 2/3-x+y,1/3-x,1/3+z
7 1/3+x,2/3+y,2/3+z
8 1/3-y,2/3+x-y,2/3+z
9 1/3-x+y,2/3-x,2/3+z
10 -x,-y,-z
11 y,-x+y,-z
12 x-y,x,-z
13 1/3-x,2/3-y,2/3-z
14 1/3+y,2/3-x+y,2/3-z
15 1/3+x-y,2/3+x,2/3-z
16 2/3-x,1/3-y,1/3-z
17 2/3+y,1/3-x+y,1/3-z
18 2/3+x-y,1/3+x,1/3-z
_cell_length_a                   26.3331(17)
_cell_length_b                   26.3331
_cell_length_c                   7.0477(5)
_cell_angle_alpha                90
_cell_angle_beta                 90
_cell_angle_gamma                120
_cell_volume                     4232.35
loop_
_atom_site_label
_atom_site_type_symbol
_atom_site_fract_x
_atom_site_fract_y
_atom_site_fract_z
_atom_site_U_iso_or_equiv
_atom_site_thermal_displace_type
Mn1 Mn 0.3854(7) 0.3606(9) 0.1424(28) 0.0070 Uiso
O1 O 0.3280(6) 0.2935(6) 0.3604(22) 0.0233 Uiso
O2 O 0.2999(7) 0.2282(7) 0.5913(19) 0.0233 Uiso
O3 O 0.3544(7) 0.2745(7) 0.0142(25) 0.0233 Uiso
C1 C 0.3186(5) 0.2441(5) 0.4201(15) 0.0141 Uiso
C2 C 0.3289(5) 0.2055(5) 0.2882(15) 0.0141 Uiso
C3 C 0.3443(6) 0.2219(5) 0.0886(14) 0.0141 Uiso
C4 C 0.3523(5) 0.1841(5) -0.0183(14) 0.0141 Uiso
H1 H 0.3599(9) 0.1921(8) -0.1565(27) 0.0100 Uiso
O1O O 0.3387(6) 0.0398(6) -0.0271(22) 0.0233 Uiso
O2O O 0.3668(7) 0.1051(7) -0.2580(19) 0.0233 Uiso
O3O O 0.3123(7) 0.0588(7) 0.3191(25) 0.0233 Uiso
C1O C 0.3481(5) 0.0892(5) -0.0868(15) 0.0141 Uiso
C2O C 0.3378(5) 0.1278(5) 0.0451(15) 0.0141 Uiso
C3O C 0.3224(6) 0.1114(5) 0.2447(14) 0.0141 Uiso
C4O C 0.3144(5) 0.1492(5) 0.3516(14) 0.0141 Uiso
H1O H 0.3068(9) 0.1412(8) 0.4898(27) 0.0100 Uiso
Mn1J Mn 0.3606(9) -0.0248(11) -0.1424(28) 0.0070 Uiso
Mn1D Mn 0.3061(9) 0.3581(11) 0.4757(28) 0.0070 Uiso
Mn1H Mn 0.3085(11) 0.2813(7) -0.1909(28) 0.0070 Uiso
Mn1H_2 Mn 0.3085(11) 0.2813(7) 0.8091(28) 0.0070 Uiso
Mn1O Mn 0.2813(7) -0.0273(9) 0.1909(28) 0.0070 Uiso
Mn1N Mn 0.3581(11) 0.0521(7) -0.4757(28) 0.0070 Uiso
Mn1N_2 Mn 0.3581(11) 0.0521(7) 0.5243(28) 0.0070 Uiso
O1H O 0.2988(8) 0.3387(6) 0.0271(22) 0.0233 Uiso
O1J O 0.2935(6) -0.0345(8) -0.3604(22) 0.0233 Uiso
O2D O 0.4385(7) 0.4050(10) -0.0754(19) 0.0233 Uiso
O2N O 0.4050(10) -0.0334(7) 0.0754(19) 0.0233 Uiso
O3D O 0.3922(7) 0.4132(10) 0.3475(25) 0.0233 Uiso
O3J O 0.2745(7) -0.0799(10) -0.0142(25) 0.0233 Uiso
O3N O 0.4132(10) 0.0211(7) -0.3475(25) 0.0233 Uiso
loop_
_geom_bond_atom_site_label_1
_geom_bond_atom_site_label_2
_geom_bond_site_symmetry_1
_geom_bond_site_symmetry_2
Mn1 O1 1_555 1_555
O1 C1 1_555 1_555
O2 C1 1_555 1_555
O3 Mn1 1_555 1_555
C1 C2 1_555 1_555
C2 C3 1_555 1_555
C3 O3 1_555 1_555
C4 C3 1_555 1_555
H1 C4 1_555 1_555
O1O C1O 1_555 1_555
O2O C1O 1_555 1_555
O3O C3O 1_555 1_555
C1O C2O 1_555 1_555
C2O C4 1_555 1_555
C3O C2O 1_555 1_555
C4O C2 1_555 1_555
H1O C4O 1_555 1_555
Mn1J O1O 1_555 1_555
Mn1D O1 1_555 1_555
Mn1H O3 1_555 1_555
Mn1H_2 O2 1_555 1_555
Mn1O O1O 1_555 1_555
Mn1N O2O 1_555 1_555
Mn1N_2 O3O 1_555 1_555
O1H Mn1 1_555 1_555
O1J Mn1J 1_555 1_555
O2D Mn1 1_555 1_555
O2N Mn1J 1_555 1_555
O3D Mn1 1_555 1_555
O3J Mn1J 1_555 1_555
O3N Mn1J 1_555 1_555
O3O Mn1O 1_555 1_555
C3O C4O 1_555 1_555
Mn1D O3D 1_555 1_555
Mn1H O1H 1_555 1_555
Mn1O O3J 1_555 1_555
Mn1N O1J 1_555 1_555
Mn1N O3N 1_555 1_555

#END
