
#######################################################################
#
#                 Cambridge Crystallographic Data Centre
#                                CCDC 
#
#######################################################################
#
# If this CIF has been generated from an entry in the Cambridge 
# Structural Database, then it will include bibliographic, chemical, 
# crystal, experimental, refinement or atomic coordinate data resulting 
# from the CCDC's data processing and validation procedures.
#
#######################################################################

data_COKPUP
_chemical_formula_moiety         '(C11 H2 O12 Zn2)n'
_symmetry_cell_setting           rhombohedral
_symmetry_space_group_name_H-M   'R -3'
_symmetry_Int_Tables_number      148
_space_group_name_Hall           '-R 3'
loop_
_symmetry_equiv_pos_site_id
_symmetry_equiv_pos_as_xyz
1 x,y,z
2 -y,x-y,z
3 -x+y,-x,z
4 2/3+x,1/3+y,1/3+z
5 2/3-y,1/3+x-y,1/3+z
6 2/3-x+y,1/3-x,1/3+z
7 1/3+x,2/3+y,2/3+z
8 1/3-y,2/3+x-y,2/3+z
9 1/3-x+y,2/3-x,2/3+z
10 -x,-y,-z
11 y,-x+y,-z
12 x-y,x,-z
13 1/3-x,2/3-y,2/3-z
14 1/3+y,2/3-x+y,2/3-z
15 1/3+x-y,2/3+x,2/3-z
16 2/3-x,1/3-y,1/3-z
17 2/3+y,1/3-x+y,1/3-z
18 2/3+x-y,1/3+x,1/3-z
_cell_length_a                   25.8504(20)
_cell_length_b                   25.8504
_cell_length_c                   6.8072(8)
_cell_angle_alpha                90
_cell_angle_beta                 90
_cell_angle_gamma                120
_cell_volume                     3939.43
loop_
_atom_site_label
_atom_site_type_symbol
_atom_site_fract_x
_atom_site_fract_y
_atom_site_fract_z
Zn1 Zn 0.3819(10) 0.3509(10) 0.1454(24)
O1 O 0.3325(8) 0.2955(9) 0.3719(32)
O2 O 0.3558(10) 0.2742(9) 0.0095(32)
O3 O 0.4670(17) 0.3472(14) 0.282(4)
O4 O 0.4387(9) 0.4093(12) -0.0672(27)
C1 C 0.3165(10) 0.2452(10) 0.4291(24)
C2 C 0.3456(8) 0.2212(9) 0.0966(27)
C3 C 0.5161(18) 0.3778(16) 0.285(5)
C4 C 0.3269(10) 0.2081(8) 0.2879(24)
C5 C 0.3503(9) 0.1816(11) -0.0305(28)
O5 O 0.5667(34) 0.4134(32) 0.293(8)
H1 H 0.3633(17) 0.1905(14) -0.155(6)
O1H O 0.2963(12) 0.3342(8) 0.0386(32)
O2D O 0.3925(9) 0.4149(13) 0.3428(32)
Zn1D Zn 0.3158(10) 0.3643(14) 0.4787(24)
Zn1H Zn 0.3023(14) 0.2848(10) -0.1879(24)
O4H O 0.3039(15) 0.2280(9) 0.5995(27)
Zn1H_2 Zn 0.3023(14) 0.2848(10) 0.8121(24)
C5O C 0.3164(9) 0.1517(11) 0.3638(28)
C4O C 0.3398(10) 0.1252(8) 0.0454(24)
C2O C 0.3211(8) 0.1121(9) 0.2367(27)
H1O H 0.3034(17) 0.1428(14) 0.488(6)
C1O C 0.3502(10) 0.0881(10) -0.0958(24)
O2O O 0.3109(10) 0.0591(9) 0.3238(32)
O1O O 0.3342(8) 0.0378(9) -0.0386(32)
O4N O 0.3627(15) 0.1054(9) -0.2661(27)
Zn1O Zn 0.2848(10) -0.0176(10) 0.1879(24)
Zn1N Zn 0.3643(14) 0.0486(10) 0.5213(24)
Zn1J Zn 0.3509(10) -0.0310(14) -0.1454(24)
Zn1N_2 Zn 0.3643(14) 0.0486(10) -0.4787(24)
O2J O 0.2742(9) -0.0816(13) -0.0095(32)
O3J O 0.3472(14) -0.1198(22) -0.282(4)
O1J O 0.2955(9) -0.0370(12) -0.3719(32)
O4J O 0.4093(12) -0.0294(15) 0.0672(27)
O2N O 0.4149(13) 0.0225(10) -0.3428(32)
C3J C 0.3778(16) -0.1383(24) -0.285(5)
O5J O 0.4134(32) -0.1533(47) -0.293(8)
O6 O 0.2029(24) 0.0238(26) 0.690(9)
C6 C 0.1812(17) 0.0251(19) 0.530(6)
O7 O 0.1605(20) 0.0278(22) 0.389(9)
loop_
_geom_bond_atom_site_label_1
_geom_bond_atom_site_label_2
_geom_bond_site_symmetry_1
_geom_bond_site_symmetry_2
Zn1 O1 1_555 1_555
O1 C1 1_555 1_555
O2 Zn1 1_555 1_555
O3 Zn1 1_555 1_555
O4 Zn1 1_555 1_555
C1 C4 1_555 1_555
C2 O2 1_555 1_555
C3 O3 1_555 1_555
C4 C2 1_555 1_555
C5 C2 1_555 1_555
O5 C3 1_555 1_555
H1 C5 1_555 1_555
O6 C6 1_555 1_555
C6 O7 1_555 1_555
O1H Zn1 1_555 1_555
O2D Zn1 1_555 1_555
Zn1D O1 1_555 1_555
Zn1H O2 1_555 1_555
O4H C1 1_555 1_555
Zn1H_2 O4H 1_555 1_555
C5O C4 1_555 1_555
C4O C5 1_555 1_555
C2O C5O 1_555 1_555
H1O C5O 1_555 1_555
C1O C4O 1_555 1_555
O2O C2O 1_555 1_555
O1O C1O 1_555 1_555
O4N C1O 1_555 1_555
Zn1O O2O 1_555 1_555
Zn1N O2O 1_555 1_555
Zn1J O1O 1_555 1_555
Zn1N_2 O4N 1_555 1_555
O2J Zn1O 1_555 1_555
O3J Zn1J 1_555 1_555
O1J Zn1J 1_555 1_555
O4J Zn1J 1_555 1_555
O2N Zn1J 1_555 1_555
C3J O3J 1_555 1_555
O5J C3J 1_555 1_555
O1H Zn1H 1_555 1_555
O2D Zn1D 1_555 1_555
C4O C2O 1_555 1_555
O1O Zn1O 1_555 1_555
Zn1J O2J 1_555 1_555
Zn1N_2 O1J 1_555 1_555
Zn1N_2 O2N 1_555 1_555

#END
