
#######################################################################
#
#                 Cambridge Crystallographic Data Centre
#                                CCDC 
#
#######################################################################
#
# If this CIF has been generated from an entry in the Cambridge 
# Structural Database, then it will include bibliographic, chemical, 
# crystal, experimental, refinement or atomic coordinate data resulting 
# from the CCDC's data processing and validation procedures.
#
#######################################################################

data_COKPID
_chemical_formula_moiety         '(C11 H2 Fe2 O12)n'
_symmetry_cell_setting           rhombohedral
_symmetry_space_group_name_H-M   'R -3'
_symmetry_Int_Tables_number      148
_space_group_name_Hall           '-R 3'
loop_
_symmetry_equiv_pos_site_id
_symmetry_equiv_pos_as_xyz
1 x,y,z
2 -y,x-y,z
3 -x+y,-x,z
4 2/3+x,1/3+y,1/3+z
5 2/3-y,1/3+x-y,1/3+z
6 2/3-x+y,1/3-x,1/3+z
7 1/3+x,2/3+y,2/3+z
8 1/3-y,2/3+x-y,2/3+z
9 1/3-x+y,2/3-x,2/3+z
10 -x,-y,-z
11 y,-x+y,-z
12 x-y,x,-z
13 1/3-x,2/3-y,2/3-z
14 1/3+y,2/3-x+y,2/3-z
15 1/3+x-y,2/3+x,2/3-z
16 2/3-x,1/3-y,1/3-z
17 2/3+y,1/3-x+y,1/3-z
18 2/3+x-y,1/3+x,1/3-z
_cell_length_a                   26.0010(5)
_cell_length_b                   26.001
_cell_length_c                   6.86071(20)
_cell_angle_alpha                90
_cell_angle_beta                 90
_cell_angle_gamma                120
_cell_volume                     4016.8
loop_
_atom_site_label
_atom_site_type_symbol
_atom_site_fract_x
_atom_site_fract_y
_atom_site_fract_z
Fe1 Fe 0.38556(19) 0.35294(20) 0.1427(6)
O1 O 0.32553(31) 0.29320(32) 0.3521(11)
O2 O 0.30331(33) 0.22615(35) 0.6000(11)
O3 O 0.3534(4) 0.27077(31) 0.0078(11)
C1 C 0.31607(29) 0.24472(28) 0.4228(9)
C2 C 0.32541(31) 0.20360(29) 0.2909(9)
C3 C 0.34290(26) 0.22086(27) 0.0961(9)
C4 C 0.35142(30) 0.18284(30) -0.0248(9)
H1 H 0.3606(5) 0.1954(5) -0.1713(19)
O4 O 0.5546(4) 0.4233(5) 0.2187(24)
C5 C 0.50791(27) 0.3827(4) 0.2473(16)
O5 O 0.46135(28) 0.3463(4) 0.2815(13)
O1O O 0.34114(31) 0.04013(32) -0.0188(11)
O2O O 0.36336(33) 0.10718(35) -0.2667(11)
O3O O 0.3133(4) 0.06256(31) 0.3255(11)
C1O C 0.35060(29) 0.08861(28) -0.0895(9)
C2O C 0.34126(31) 0.12973(29) 0.0424(9)
C3O C 0.32377(26) 0.11247(27) 0.2372(9)
C4O C 0.31525(30) 0.15049(30) 0.3581(9)
H1O H 0.3061(5) 0.1379(5) 0.5046(19)
Fe1J Fe 0.35294(20) -0.03262(28) -0.1427(6)
O4J O 0.4233(5) -0.1313(6) -0.2187(24)
C5J C 0.3827(4) -0.12521(48) -0.2473(16)
O5J O 0.3463(4) -0.11505(49) -0.2815(13)
Fe1D Fe 0.31373(20) 0.36595(28) 0.4760(6)
Fe1H Fe 0.30071(28) 0.28111(19) -0.1906(6)
Fe1H_2 Fe 0.30071(28) 0.28111(19) 0.8094(6)
Fe1O Fe 0.28111(19) -0.01961(20) 0.1906(6)
Fe1N Fe 0.36595(28) 0.05223(19) -0.4760(6)
Fe1N_2 Fe 0.36595(28) 0.05223(19) 0.5240(6)
O1H O 0.30100(45) 0.34114(31) 0.0188(11)
O1J O 0.29320(32) -0.03233(45) -0.3521(11)
O2D O 0.44052(35) 0.41049(48) -0.0667(11)
O2N O 0.41049(48) -0.03002(33) 0.0667(11)
O3D O 0.39590(31) 0.41596(51) 0.3411(11)
O3J O 0.27077(31) -0.08263(51) -0.0078(11)
O3N O 0.41596(51) 0.0201(4) -0.3411(11)
O6 O 0.2006(8) 0.0157(4) 0.6776(20)
C6 C 0.18481(24) 0.02087(23) 0.5237(14)
O7 O 0.1699(7) 0.0267(4) 0.3742(19)
loop_
_geom_bond_atom_site_label_1
_geom_bond_atom_site_label_2
_geom_bond_site_symmetry_1
_geom_bond_site_symmetry_2
Fe1 O1 1_555 1_555
O1 C1 1_555 1_555
O2 C1 1_555 1_555
O3 Fe1 1_555 1_555
C1 C2 1_555 1_555
C2 C3 1_555 1_555
C3 O3 1_555 1_555
C4 C3 1_555 1_555
H1 C4 1_555 1_555
O4 C5 1_555 1_555
C5 O5 1_555 1_555
O5 Fe1 1_555 1_555
O6 C6 1_555 1_555
C6 O7 1_555 1_555
O1O C1O 1_555 1_555
O2O C1O 1_555 1_555
O3O C3O 1_555 1_555
C1O C2O 1_555 1_555
C2O C4 1_555 1_555
C3O C2O 1_555 1_555
C4O C2 1_555 1_555
H1O C4O 1_555 1_555
Fe1J O1O 1_555 1_555
O4J C5J 1_555 1_555
C5J O5J 1_555 1_555
O5J Fe1J 1_555 1_555
Fe1D O1 1_555 1_555
Fe1H O3 1_555 1_555
Fe1H_2 O2 1_555 1_555
Fe1O O1O 1_555 1_555
Fe1N O2O 1_555 1_555
Fe1N_2 O3O 1_555 1_555
O1H Fe1 1_555 1_555
O1J Fe1J 1_555 1_555
O2D Fe1 1_555 1_555
O2N Fe1J 1_555 1_555
O3D Fe1 1_555 1_555
O3J Fe1J 1_555 1_555
O3N Fe1J 1_555 1_555
O3O Fe1O 1_555 1_555
C3O C4O 1_555 1_555
Fe1D O3D 1_555 1_555
Fe1H O1H 1_555 1_555
Fe1O O3J 1_555 1_555
Fe1N O1J 1_555 1_555
Fe1N O3N 1_555 1_555

#END
