
#######################################################################
#
#                 Cambridge Crystallographic Data Centre
#                                CCDC 
#
#######################################################################
#
# If this CIF has been generated from an entry in the Cambridge 
# Structural Database, then it will include bibliographic, chemical, 
# crystal, experimental, refinement or atomic coordinate data resulting 
# from the CCDC's data processing and validation procedures.
#
#######################################################################

data_COKQEA
_chemical_formula_moiety         '(C11 H2 Co2 O12)n'
_symmetry_cell_setting           rhombohedral
_symmetry_space_group_name_H-M   'R -3'
_symmetry_Int_Tables_number      148
_space_group_name_Hall           '-R 3'
loop_
_symmetry_equiv_pos_site_id
_symmetry_equiv_pos_as_xyz
1 x,y,z
2 -y,x-y,z
3 -x+y,-x,z
4 2/3+x,1/3+y,1/3+z
5 2/3-y,1/3+x-y,1/3+z
6 2/3-x+y,1/3-x,1/3+z
7 1/3+x,2/3+y,2/3+z
8 1/3-y,2/3+x-y,2/3+z
9 1/3-x+y,2/3-x,2/3+z
10 -x,-y,-z
11 y,-x+y,-z
12 x-y,x,-z
13 1/3-x,2/3-y,2/3-z
14 1/3+y,2/3-x+y,2/3-z
15 1/3+x-y,2/3+x,2/3-z
16 2/3-x,1/3-y,1/3-z
17 2/3+y,1/3-x+y,1/3-z
18 2/3+x-y,1/3+x,1/3-z
_cell_length_a                   25.994(7)
_cell_length_b                   25.994(7)
_cell_length_c                   6.8127(18)
_cell_angle_alpha                90
_cell_angle_beta                 90
_cell_angle_gamma                120
_cell_volume                     3986.54
loop_
_atom_site_label
_atom_site_type_symbol
_atom_site_fract_x
_atom_site_fract_y
_atom_site_fract_z
Co1 Co 0.94947(5) 0.63467(5) 0.01866(17)
O1 O 0.8953(3) 0.6335(3) 0.2350(9)
O2 O 0.8710(5) 0.5537(4) -0.1137(17)
O3 O 0.9407(2) 0.6902(3) -0.1691(8)
O4 O 1.0073(3) 0.6367(4) -0.1970(9)
C1 C 0.8198(19) 0.5347(21) -0.106(8)
C2 C 0.9890(4) 0.5445(4) 0.0760(12)
C3 C 1.0157(4) 0.5954(4) -0.2588(13)
O5 O 0.770(3) 0.5210(34) -0.077(10)
C4 C 0.9835(4) 0.4978(4) 0.1916(13)
C5 C 1.0057(4) 0.5465(4) -0.1194(13)
H1 H 0.9720 0.4959 0.3250
O3D O 0.9765(3) 0.5838(4) 0.1642(8)
O4D O 1.0300(4) 0.7039(5) 0.1363(9)
Co1H Co 1.01853(7) 0.71720(5) -0.31467(17)
Co1D Co 1.03200(5) 0.64813(7) 0.35199(17)
O1D O 1.0332(3) 0.5951(4) -0.4317(9)
C5I C 0.9943(4) 0.4535(4) 0.1194(13)
C4I C 1.0165(4) 0.5022(4) -0.1916(13)
Co1D_2 Co 1.03200(5) 0.64813(7) -0.64801(17)
C2I C 1.0110(4) 0.4555(4) -0.0760(12)
C3I C 0.9843(4) 0.4046(4) 0.2588(13)
H1I H 1.0280 0.5041 -0.3250
O3M O 1.0235(3) 0.4162(4) -0.1642(8)
O4I O 0.9927(3) 0.3633(4) 0.1970(9)
O1M O 0.9668(3) 0.4049(4) 0.4317(9)
Co1I Co 1.05053(5) 0.36533(5) -0.01866(17)
Co1M Co 0.96800(5) 0.35187(7) -0.35199(17)
Co1Q Co 0.98147(7) 0.28280(5) 0.31467(17)
Co1M_2 Co 0.96800(5) 0.35187(7) 0.64801(17)
O3I O 1.0593(2) 0.3098(3) 0.1691(8)
O2Q O 0.9840(6) 0.2043(5) 0.4470(17)
O3Q O 0.9172(4) 0.2740(2) 0.5024(8)
O4Q O 1.0373(5) 0.3406(3) 0.5303(9)
O1Q O 0.9285(4) 0.2286(3) 0.0983(9)
C1Q C 0.9518(28) 0.1531(19) 0.439(8)
O5Q O 0.9157(45) 0.103(3) 0.410(10)
O6 O 0.8821(18) 0.5177(17) 0.502(6)
O7 O 0.8144(18) 0.4811(18) 0.245(5)
C6 C 0.851(2) 0.496(2) 0.368(7)
loop_
_geom_bond_atom_site_label_1
_geom_bond_atom_site_label_2
_geom_bond_site_symmetry_1
_geom_bond_site_symmetry_2
Co1 O1 1_555 1_555
O2 Co1 1_555 1_555
O3 Co1 1_555 1_555
O4 Co1 1_555 1_555
C1 O2 1_555 1_555
C2 C4 1_555 1_555
C3 O4 1_555 1_555
O5 C1 1_555 1_555
C4 H1 1_555 1_555
C5 C2 1_555 1_555
O6 C6 1_555 1_555
O7 C6 1_555 1_555
O3D Co1 1_555 1_555
O4D Co1 1_555 1_555
Co1H O3 1_555 1_555
Co1D O3D 1_555 1_555
O1D C3 1_555 1_555
C5I C4 1_555 1_555
C4I C5 1_555 1_555
Co1D_2 O1D 1_555 1_555
C2I C5I 1_555 1_555
C3I C5I 1_555 1_555
H1I C4I 1_555 1_555
O3M C2I 1_555 1_555
O4I C3I 1_555 1_555
O1M C3I 1_555 1_555
Co1I O3M 1_555 1_555
Co1M O3M 1_555 1_555
Co1Q O4I 1_555 1_555
Co1M_2 O1M 1_555 1_555
O3I Co1I 1_555 1_555
O2Q Co1Q 1_555 1_555
O3Q Co1Q 1_555 1_555
O4Q Co1Q 1_555 1_555
O1Q Co1Q 1_555 1_555
C1Q O2Q 1_555 1_555
O5Q C1Q 1_555 1_555
O4 Co1H 1_555 1_555
C2 O3D 1_555 1_555
C3 C5 1_555 1_555
O4D Co1D 1_555 1_555
C4I C2I 1_555 1_555
O4I Co1I 1_555 1_555
Co1Q O3I 1_555 1_555
Co1M_2 O3Q 1_555 1_555
Co1M_2 O4Q 1_555 1_555

#END
