
#######################################################################
#
#                 Cambridge Crystallographic Data Centre
#                                CCDC 
#
#######################################################################
#
# If this CIF has been generated from an entry in the Cambridge 
# Structural Database, then it will include bibliographic, chemical, 
# crystal, experimental, refinement or atomic coordinate data resulting 
# from the CCDC's data processing and validation procedures.
#
#######################################################################

data_PEGCIP
_chemical_formula_moiety         '(C42 H40 N2 O13 S4 Zn2)n'
_symmetry_cell_setting           hexagonal
_symmetry_space_group_name_H-M   'P 65'
_symmetry_Int_Tables_number      170
_space_group_name_Hall           'P 65'
loop_
_symmetry_equiv_pos_site_id
_symmetry_equiv_pos_as_xyz
1 x,y,z
2 -y,x-y,2/3+z
3 -x+y,-x,1/3+z
4 -x,-y,1/2+z
5 y,-x+y,1/6+z
6 x-y,x,5/6+z
_cell_length_a                   19.293(3)
_cell_length_b                   19.293(3)
_cell_length_c                   20.838(3)
_cell_angle_alpha                90
_cell_angle_beta                 90
_cell_angle_gamma                120
_cell_volume                     6717.17
loop_
_atom_site_label
_atom_site_type_symbol
_atom_site_fract_x
_atom_site_fract_y
_atom_site_fract_z
C1 C -0.0881(2) -0.0024(2) 0.09567(17)
C2 C -0.0870(2) -0.0700(2) 0.10314(16)
S1 S -0.00042(5) 0.09057(5) 0.08589(5)
S2 S -0.17664(5) 0.00204(6) 0.09366(5)
S3 S -0.17354(5) -0.16505(5) 0.10927(5)
S4 S 0.00250(5) -0.07296(5) 0.10690(4)
C3 C -0.0482(2) 0.1482(2) 0.08672(18)
C4 C -0.1284(2) 0.1074(2) 0.09047(17)
C5 C -0.1225(2) -0.2183(2) 0.12540(18)
C6 C -0.0423(2) -0.1749(2) 0.12576(17)
C7 C 0.1201(2) 0.3976(2) 0.07438(17)
C8 C 0.0587(2) 0.3699(2) 0.11969(18)
H1 H 0.0555 0.4066 0.1482
C9 C 0.0670(2) 0.2636(2) 0.03517(18)
H2 H 0.0699 0.2272 0.0062
C10 C 0.0068(2) 0.2357(2) 0.08122(17)
C11 C 0.0027(2) 0.2897(2) 0.12328(19)
H3 H -0.0387 0.2711 0.1545
C12 C 0.12267(7) 0.34458(7) 0.03141(6)
H4 H 0.1628 0.3636 -0.0009
C13 C 0.18523(7) 0.48396(7) 0.07199(6)
O1 O 0.18233(7) 0.53382(7) 0.10875(6)
O2 O 0.24154(7) 0.50005(7) 0.03327(6)
C14 C -0.28502(7) 0.20364(7) 0.09510(6)
C15 C -0.22234(7) 0.23362(7) 0.05161(6)
H5 H -0.2145 0.2753 0.0231
C16 C -0.1709(2) 0.2027(2) 0.04970(18)
H6 H -0.1277 0.2235 0.0200
C17 C -0.1827(2) 0.1409(2) 0.09165(17)
C18 C -0.2457(2) 0.1114(2) 0.13557(19)
H7 H -0.2535 0.0701 0.1645
C19 C -0.2969(2) 0.1422(2) 0.13712(18)
H8 H -0.3401 0.1216 0.1668
C20 C -0.3411(2) 0.2352(2) 0.09793(18)
O3 O -0.39328(15) 0.21220(16) 0.14146(12)
O4 O -0.33547(15) 0.28747(15) 0.05751(12)
C21 C -0.2756(2) -0.4721(2) 0.14578(17)
C22 C -0.2080(2) -0.4315(2) 0.18398(17)
H9 H -0.1957 -0.4604 0.2145
C23 C -0.1583(2) -0.3495(2) 0.17819(17)
H10 H -0.1125 -0.3226 0.2049
C24 C -0.1750(2) -0.3060(2) 0.13342(17)
C25 C -0.2440(2) -0.3469(2) 0.09587(18)
H11 H -0.2572 -0.3180 0.0660
C26 C -0.2933(2) -0.4285(2) 0.10165(18)
H12 H -0.3396 -0.4553 0.0754
C27 C -0.3280(2) -0.5606(2) 0.15091(17)
O5 O -0.38503(15) -0.59535(15) 0.11017(12)
O6 O -0.31534(13) -0.59924(13) 0.19351(12)
C28 C 0.1305(2) -0.2463(2) 0.16457(17)
C29 C 0.1349(2) -0.1798(2) 0.19379(17)
H13 H 0.1770 -0.1495 0.2232
C30 C 0.0789(2) -0.1568(2) 0.18082(18)
H14 H 0.0833 -0.1105 0.2006
C31 C 0.0167(2) -0.2016(2) 0.13892(17)
C32 C 0.0125(2) -0.2675(2) 0.10833(18)
H15 H -0.0290 -0.2974 0.0784
C33 C 0.0693(2) -0.2893(2) 0.12173(19)
H16 H 0.0661 -0.3348 0.1010
C34 C 0.1900(2) -0.2717(2) 0.18030(18)
O7 O 0.19245(14) -0.32255(14) 0.14533(12)
O8 O 0.23346(14) -0.23898(15) 0.22982(12)
Zn1 Zn -0.43569(2) 0.28715(2) 0.12013(2)
Zn2 Zn -0.36887(2) 0.27772(2) -0.04281(2)
O9 O -0.39145(16) 0.37230(15) -0.02442(13)
H17 H -0.382(2) 0.388(2) 0.0145(11)
H18 H -0.369(2) 0.4015(19) -0.0544(13)
O10 O -0.25123(16) 0.36809(16) -0.05698(13)
H19 H -0.239(2) 0.362(2) -0.0934(12)
H20 H -0.245(2) 0.4144(15) -0.048(2)
O1E O -0.35149(10) 0.18233(7) -0.05792(6)
O2D O -0.49995(7) 0.25851(10) 0.19994(6)
O5_2 O -0.38503(15) 0.40465(15) 0.11017(12)
O6A O -0.40076(13) 0.28390(18) -0.13982(12)
O7E O -0.48500(20) 0.19245(14) -0.02134(12)
O8E O -0.52756(21) 0.23346(14) 0.06315(12)
Zn1E Zn 0.27716(3) 0.56431(2) -0.04654(2)
Zn1_2 Zn -0.43569(2) -0.71285(2) 0.12013(2)
Zn1D Zn 0.28715(2) -0.27716(3) 0.28680(2)
Zn2D Zn 0.27772(2) 0.64659(3) 0.12386(2)
Zn2B Zn -0.35341(3) -0.63113(2) 0.29052(2)
Zn2D_2 Zn 0.27772(2) -0.35341(3) 0.12386(2)
O11 O 0.35888(18) -0.10396(16) 0.13600(13)
C35 C 0.3779(3) -0.0712(2) 0.1880(2)
H21 H 0.3913 -0.0969 0.2206
N1 N 0.3817(3) -0.0019(3) 0.2031(2)
C36 C 0.4051(5) 0.0331(3) 0.2663(3)
H22 H 0.3591 0.0315 0.2878
H23 H 0.4483 0.0888 0.2624
H24 H 0.4238 0.0028 0.2916
C37 C 0.3599(4) 0.0383(4) 0.1558(3)
H25 H 0.3388 0.0045 0.1176
H26 H 0.4072 0.0892 0.1441
H27 H 0.3188 0.0486 0.1736
O12 O -0.3345(3) -0.4309(2) -0.0535(2)
C38 C -0.4019(4) -0.4549(4) -0.0754(3)
H28 H -0.4366 -0.4423 -0.0523
N2 N -0.4304(2) -0.4980(2) -0.13011(18)
C39 C -0.3808(4) -0.5185(4) -0.1650(3)
H29 H -0.3281 -0.4946 -0.1445
H30 H -0.3749 -0.4983 -0.2090
H31 H -0.4049 -0.5768 -0.1658
C40 C -0.5085(3) -0.5221(4) -0.1514(4)
H32 H -0.5400 -0.5807 -0.1526
H33 H -0.5062 -0.5007 -0.1945
H34 H -0.5337 -0.5017 -0.1218
O13 O -0.22368(18) 0.51780(17) -0.03343(19)
H35 H -0.2557 0.5345 -0.0402
C41 C -0.1472(3) 0.5835(3) -0.0165(3)
H36 H -0.1511 0.6083 0.0240
H37 H -0.1274 0.6246 -0.0507
C42 C -0.0911(3) 0.5511(4) -0.0081(3)
H38 H -0.0381 0.5946 0.0046
H39 H -0.0867 0.5279 -0.0487
H40 H -0.1119 0.5097 0.0252
loop_
_geom_bond_atom_site_label_1
_geom_bond_atom_site_label_2
_geom_bond_site_symmetry_1
_geom_bond_site_symmetry_2
C1 C2 1_555 1_555
C2 S3 1_555 1_555
S1 C1 1_555 1_555
S2 C1 1_555 1_555
S3 C5 1_555 1_555
S4 C2 1_555 1_555
C3 S1 1_555 1_555
C4 S2 1_555 1_555
C5 C6 1_555 1_555
C6 S4 1_555 1_555
C7 C8 1_555 1_555
C8 H1 1_555 1_555
C9 H2 1_555 1_555
C10 C3 1_555 1_555
C11 C8 1_555 1_555
H3 C11 1_555 1_555
C12 C7 1_555 1_555
H4 C12 1_555 1_555
C13 C7 1_555 1_555
O1 C13 1_555 1_555
O2 C13 1_555 1_555
C14 C15 1_555 1_555
C15 H5 1_555 1_555
C16 C15 1_555 1_555
H6 C16 1_555 1_555
C17 C4 1_555 1_555
C18 C17 1_555 1_555
H7 C18 1_555 1_555
C19 C14 1_555 1_555
H8 C19 1_555 1_555
C20 C14 1_555 1_555
O3 C20 1_555 1_555
O4 C20 1_555 1_555
C21 C22 1_555 1_555
C22 H9 1_555 1_555
C23 C22 1_555 1_555
H10 C23 1_555 1_555
C24 C5 1_555 1_555
C25 C24 1_555 1_555
H11 C25 1_555 1_555
C26 C21 1_555 1_555
H12 C26 1_555 1_555
C27 C21 1_555 1_555
O5 C27 1_555 1_555
O6 C27 1_555 1_555
C28 C29 1_555 1_555
C29 H13 1_555 1_555
C30 C29 1_555 1_555
H14 C30 1_555 1_555
C31 C6 1_555 1_555
C32 C31 1_555 1_555
H15 C32 1_555 1_555
C33 C28 1_555 1_555
H16 C33 1_555 1_555
C34 C28 1_555 1_555
O7 C34 1_555 1_555
O8 C34 1_555 1_555
Zn1 O3 1_555 1_555
Zn2 O4 1_555 1_555
O9 Zn2 1_555 1_555
H17 O9 1_555 1_555
H18 O9 1_555 1_555
O10 Zn2 1_555 1_555
H19 O10 1_555 1_555
H20 O10 1_555 1_555
O11 C35 1_555 1_555
C35 H21 1_555 1_555
N1 C35 1_555 1_555
C36 N1 1_555 1_555
H22 C36 1_555 1_555
H23 C36 1_555 1_555
H24 C36 1_555 1_555
C37 N1 1_555 1_555
H25 C37 1_555 1_555
H26 C37 1_555 1_555
H27 C37 1_555 1_555
O12 C38 1_555 1_555
C38 H28 1_555 1_555
N2 C38 1_555 1_555
C39 N2 1_555 1_555
H29 C39 1_555 1_555
H30 C39 1_555 1_555
H31 C39 1_555 1_555
C40 N2 1_555 1_555
H32 C40 1_555 1_555
H33 C40 1_555 1_555
H34 C40 1_555 1_555
O13 H35 1_555 1_555
C41 O13 1_555 1_555
H36 C41 1_555 1_555
H37 C41 1_555 1_555
C42 C41 1_555 1_555
H38 C42 1_555 1_555
H39 C42 1_555 1_555
H40 C42 1_555 1_555
O1E Zn2 1_555 1_555
O2D Zn1 1_555 1_555
O5_2 Zn1 1_555 1_555
O6A Zn2 1_555 1_555
O7E Zn2 1_555 1_555
O8E Zn1 1_555 1_555
Zn1E O2 1_555 1_555
Zn1_2 O5 1_555 1_555
Zn1D O8 1_555 1_555
Zn2D O1 1_555 1_555
Zn2B O6 1_555 1_555
Zn2D_2 O7 1_555 1_555
C3 C4 1_555 1_555
C9 C10 1_555 1_555
C9 C12 1_555 1_555
C10 C11 1_555 1_555
C16 C17 1_555 1_555
C18 C19 1_555 1_555
O4 Zn1 1_555 1_555
C23 C24 1_555 1_555
C25 C26 1_555 1_555
C30 C31 1_555 1_555
C32 C33 1_555 1_555

#END
