
#######################################################################
#
#                 Cambridge Crystallographic Data Centre
#                                CCDC 
#
#######################################################################
#
# If this CIF has been generated from an entry in the Cambridge 
# Structural Database, then it will include bibliographic, chemical, 
# crystal, experimental, refinement or atomic coordinate data resulting 
# from the CCDC's data processing and validation procedures.
#
#######################################################################

data_AFOVAT
_chemical_formula_moiety         '(C44 H28 La2 O16)n'
_symmetry_cell_setting           monoclinic
_symmetry_space_group_name_H-M   'C 2'
_symmetry_Int_Tables_number      5
_space_group_name_Hall           'C 2y'
loop_
_symmetry_equiv_pos_site_id
_symmetry_equiv_pos_as_xyz
1 x,y,z
2 -x,y,-z
3 1/2+x,1/2+y,z
4 1/2-x,1/2+y,-z
_cell_length_a                   27.615(10)
_cell_length_b                   8.842(3)
_cell_length_c                   14.318(5)
_cell_angle_alpha                90
_cell_angle_beta                 114.311(4)
_cell_angle_gamma                90
_cell_volume                     3186.04
loop_
_atom_site_label
_atom_site_type_symbol
_atom_site_fract_x
_atom_site_fract_y
_atom_site_fract_z
La1 La 0.225711(19) 0.7273(2) -0.00353(3)
C1 C 0.2127(5) 0.4010(17) 0.1378(9)
C2 C 0.2062(6) 0.4059(17) 0.2386(9)
C3 C 0.1797(5) 0.5282(17) 0.2617(10)
H1 H 0.1650 0.6059 0.2147
C4 C 0.1763(5) 0.5298(16) 0.3524(9)
H2 H 0.1592 0.6108 0.3673
C5 C 0.1971(5) 0.4160(17) 0.4255(9)
C6 C 0.2207(7) 0.290(2) 0.4000(11)
H3 H 0.2335 0.2102 0.4456
C7 C 0.2249(6) 0.2867(18) 0.3068(10)
H4 H 0.2404 0.2036 0.2900
C8 C 0.1935(6) 0.4254(15) 0.5261(9)
C9 C 0.1527(5) 0.4996(17) 0.5374(9)
H5 H 0.1238 0.5320 0.4793
C10 C 0.1535(5) 0.5279(17) 0.6347(9)
H6 H 0.1273 0.5868 0.6417
C11 C 0.1945(5) 0.4657(15) 0.7205(9)
C12 C 0.2325(6) 0.3835(17) 0.7090(10)
H7 H 0.2591 0.3402 0.7665
C13 C 0.2331(6) 0.3614(17) 0.6139(10)
H8 H 0.2599 0.3037 0.6082
C14 C 0.1981(5) 0.5088(16) 0.8264(9)
C15 C 0.3380(5) 0.5491(17) 0.1622(10)
C16 C 0.3869(6) 0.5531(17) 0.2613(11)
C17 C 0.4077(7) 0.683(2) 0.3118(12)
H9 H 0.3921 0.7745 0.2830
C18 C 0.4506(7) 0.684(3) 0.4031(14)
H10 H 0.4630 0.7758 0.4355
C19 C 0.4768(7) 0.551(2) 0.4505(14)
C20 C 0.4526(9) 0.414(3) 0.4029(17)
H11 H 0.4651 0.3217 0.4353
C21 C 0.4102(7) 0.4173(19) 0.3082(14)
H12 H 0.3968 0.3267 0.2745
C22 C 0.1404(7) 0.9572(17) 0.0549(14)
H13 H 0.1662 1.0176 0.1032
O1 O 0.2054(4) 0.5268(12) 0.0899(7)
O2 O 0.2250(4) 0.2794(11) 0.1100(7)
O3 O 0.2381(3) 0.4669(11) 0.9042(6)
O4 O 0.1624(4) 0.5906(12) 0.8323(7)
O5 O 0.3152(4) 0.6763(11) 0.1285(6)
O6 O 0.3214(4) 0.4298(13) 0.1193(8)
O7 O 0.1547(5) 0.8249(14) 0.0489(9)
O8 O 0.0951(6) 1.024(2) 0.0040(13)
H14 H 0.0754 1.0239 -0.0594
La1C La 0.274289(19) 1.2273(2) 0.00353(3)
La1C_2 La 0.274289(19) 0.2273(2) 0.00353(3)
La1_2 La 0.225711(19) 0.7273(2) 0.99647(3)
La1C_3 La 0.274289(19) 0.2273(2) 1.00353(3)
La1A La 0.774289(19) 0.7273(2) 1.00353(3)
La1B La 0.725711(19) 0.2273(2) 0.99647(3)
La1_3 La 0.225711(19) 0.7273(2) -1.00353(3)
La1C_4 La 0.274289(19) 1.2273(2) -0.99647(3)
C1C C 0.2873(5) 0.9010(17) -0.1378(9)
C2C C 0.2938(6) 0.9059(17) -0.2386(9)
C3C C 0.3203(5) 1.0282(17) -0.2617(10)
H1C H 0.3350 1.1059 -0.2147
C4C C 0.3237(5) 1.0298(16) -0.3524(9)
H2C H 0.3408 1.1108 -0.3673
C5C C 0.3029(5) 0.9160(17) -0.4255(9)
C6C C 0.2793(7) 0.790(2) -0.4000(11)
H3C H 0.2665 0.7102 -0.4456
C7C C 0.2751(6) 0.7867(18) -0.3068(10)
H4C H 0.2596 0.7036 -0.2900
C8C C 0.3065(6) 0.9254(15) -0.5261(9)
C9C C 0.3473(5) 0.9996(17) -0.5374(9)
H5C H 0.3762 1.0320 -0.4793
C10C C 0.3465(5) 1.0279(17) -0.6347(9)
H6C H 0.3727 1.0868 -0.6417
C11C C 0.3055(5) 0.9657(15) -0.7205(9)
C12C C 0.2675(6) 0.8835(17) -0.7090(10)
H7C H 0.2409 0.8402 -0.7665
C13C C 0.2669(6) 0.8614(17) -0.6139(10)
H8C H 0.2401 0.8037 -0.6082
C14C C 0.3019(5) 1.0088(16) -0.8264(9)
C15A C 0.6620(5) 0.5491(17) 0.8378(10)
C16A C 0.6131(6) 0.5531(17) 0.7387(11)
C17A C 0.5923(7) 0.683(2) 0.6882(12)
H9A H 0.6079 0.7745 0.7170
C18A C 0.5494(7) 0.684(3) 0.5969(14)
H10A H 0.5370 0.7758 0.5645
C19A C 0.5232(7) 0.551(2) 0.5495(14)
C20A C 0.5474(9) 0.414(3) 0.5971(17)
H11A H 0.5349 0.3217 0.5647
C21A C 0.5898(7) 0.4173(19) 0.6918(14)
H12A H 0.6032 0.3267 0.7255
C22C C 0.3596(7) 1.4572(17) -0.0549(14)
H13C H 0.3338 1.5176 -0.1032
O1C O 0.2946(4) 1.0268(12) -0.0899(7)
O2C O 0.2750(4) 0.7794(11) -0.1100(7)
O2_2 O 0.2250(4) 1.2794(11) 0.1100(7)
O3C O 0.2619(3) 0.9669(11) -0.9042(6)
O3_2 O 0.2381(3) 0.4669(11) -0.0958(6)
O3C_2 O 0.2619(3) 0.9669(11) 0.0958(6)
O3_3 O 0.2381(3) 1.4669(11) -0.0958(6)
O4C O 0.3376(4) 1.0906(12) -0.8323(7)
O4_2 O 0.1624(4) 0.5906(12) -0.1677(7)
O4C_2 O 0.3376(4) 1.0906(12) 0.1677(7)
O5A O 0.6848(4) 0.6763(11) 0.8715(6)
O5C O 0.1848(4) 1.1763(11) -0.1285(6)
O6A O 0.6786(4) 0.4298(13) 0.8807(8)
O6C O 0.1786(4) 0.9298(13) -0.1193(8)
O6_2 O 0.3214(4) 1.4298(13) 0.1193(8)
O7C O 0.3453(5) 1.3249(14) -0.0489(9)
O8C O 0.4049(6) 1.524(2) -0.0040(13)
H14C H 0.4246 1.5239 0.0594
loop_
_geom_bond_atom_site_label_1
_geom_bond_atom_site_label_2
_geom_bond_site_symmetry_1
_geom_bond_site_symmetry_2
La1 O1 1_555 1_555
C1 C2 1_555 1_555
C2 C3 1_555 1_555
C3 H1 1_555 1_555
C4 C3 1_555 1_555
H2 C4 1_555 1_555
C5 C4 1_555 1_555
C6 C5 1_555 1_555
H3 C6 1_555 1_555
C7 C2 1_555 1_555
H4 C7 1_555 1_555
C8 C5 1_555 1_555
C9 C8 1_555 1_555
H5 C9 1_555 1_555
C10 C9 1_555 1_555
H6 C10 1_555 1_555
C11 C10 1_555 1_555
C12 C11 1_555 1_555
H7 C12 1_555 1_555
C13 C8 1_555 1_555
H8 C13 1_555 1_555
C14 C11 1_555 1_555
C15 C16 1_555 1_555
C16 C17 1_555 1_555
C17 H9 1_555 1_555
C18 C17 1_555 1_555
H10 C18 1_555 1_555
C19 C18 1_555 1_555
C20 C19 1_555 1_555
H11 C20 1_555 1_555
C21 C16 1_555 1_555
H12 C21 1_555 1_555
C22 H13 1_555 1_555
O1 C1 1_555 1_555
O2 C1 1_555 1_555
O3 C14 1_555 1_555
O4 C14 1_555 1_555
O5 La1 1_555 1_555
O6 C15 1_555 1_555
O7 La1 1_555 1_555
O8 C22 1_555 1_555
H14 O8 1_555 1_555
La1C O1C 1_555 1_555
La1C_2 O2 1_555 1_555
La1_2 O3 1_555 1_555
La1C_3 O3 1_555 1_555
La1A O5A 1_555 1_555
La1B O6A 1_555 1_555
La1_3 O3C 1_555 1_555
La1C_4 O3C 1_555 1_555
C1C C2C 1_555 1_555
C2C C3C 1_555 1_555
C3C H1C 1_555 1_555
C4C C3C 1_555 1_555
H2C C4C 1_555 1_555
C5C C4C 1_555 1_555
C6C C5C 1_555 1_555
H3C C6C 1_555 1_555
C7C C2C 1_555 1_555
H4C C7C 1_555 1_555
C8C C5C 1_555 1_555
C9C C8C 1_555 1_555
H5C C9C 1_555 1_555
C10C C9C 1_555 1_555
H6C C10C 1_555 1_555
C11C C10C 1_555 1_555
C12C C11C 1_555 1_555
H7C C12C 1_555 1_555
C13C C8C 1_555 1_555
H8C C13C 1_555 1_555
C14C C11C 1_555 1_555
C15A C16A 1_555 1_555
C16A C17A 1_555 1_555
C17A H9A 1_555 1_555
C18A C17A 1_555 1_555
H10A C18A 1_555 1_555
C19A C19 1_555 1_555
C20A C19A 1_555 1_555
H11A C20A 1_555 1_555
C21A C16A 1_555 1_555
H12A C21A 1_555 1_555
C22C H13C 1_555 1_555
O1C C1C 1_555 1_555
O2C La1 1_555 1_555
O2_2 La1C 1_555 1_555
O3C C14C 1_555 1_555
O3_2 La1 1_555 1_555
O3C_2 La1 1_555 1_555
O3_3 La1C 1_555 1_555
O4C La1C_4 1_555 1_555
O4_2 La1 1_555 1_555
O4C_2 La1C 1_555 1_555
O5A C15A 1_555 1_555
O5C La1C 1_555 1_555
O6A C15A 1_555 1_555
O6C La1 1_555 1_555
O6_2 La1C 1_555 1_555
O7C La1C 1_555 1_555
O8C C22C 1_555 1_555
H14C O8C 1_555 1_555
C6 C7 1_555 1_555
C12 C13 1_555 1_555
C15 O5 1_555 1_555
C20 C21 1_555 1_555
C22 O7 1_555 1_555
O4 La1_2 1_555 1_555
O6 La1C_2 1_555 1_555
La1C O3C_2 1_555 1_555
La1C_2 O3_2 1_555 1_555
C1C O2C 1_555 1_555
C6C C7C 1_555 1_555
C12C C13C 1_555 1_555
C14C O4C 1_555 1_555
C18A C19A 1_555 1_555
C20A C21A 1_555 1_555
C22C O7C 1_555 1_555

#END
