
#######################################################################
#
#                 Cambridge Crystallographic Data Centre
#                                CCDC 
#
#######################################################################
#
# If this CIF has been generated from an entry in the Cambridge 
# Structural Database, then it will include bibliographic, chemical, 
# crystal, experimental, refinement or atomic coordinate data resulting 
# from the CCDC's data processing and validation procedures.
#
#######################################################################

data_AFOVEX
_chemical_formula_moiety         '(C44 H28 Ce2 O16)n'
_symmetry_cell_setting           monoclinic
_symmetry_space_group_name_H-M   'C 2'
_symmetry_Int_Tables_number      5
_space_group_name_Hall           'C 2y'
loop_
_symmetry_equiv_pos_site_id
_symmetry_equiv_pos_as_xyz
1 x,y,z
2 -x,y,-z
3 1/2+x,1/2+y,z
4 1/2-x,1/2+y,-z
_cell_length_a                   28.912(8)
_cell_length_b                   8.789(2)
_cell_length_c                   14.257(4)
_cell_angle_alpha                90
_cell_angle_beta                 116.141(7)
_cell_angle_gamma                90
_cell_volume                     3252.24
loop_
_atom_site_label
_atom_site_type_symbol
_atom_site_fract_x
_atom_site_fract_y
_atom_site_fract_z
Ce1 Ce 0.226731(15) 0.73188(15) -0.00501(3)
C1 C 0.2131(5) 0.4086(15) 0.1328(10)
C2 C 0.2066(5) 0.4097(14) 0.2319(9)
C3 C 0.1806(5) 0.5314(15) 0.2498(10)
H1 H 0.1664 0.6088 0.2009
C4 C 0.1765(5) 0.5326(15) 0.3460(9)
H2 H 0.1595 0.6127 0.3602
C5 C 0.1971(5) 0.4178(15) 0.4183(10)
C6 C 0.2205(7) 0.2961(19) 0.3962(12)
H3 H 0.2334 0.2158 0.4431
C7 C 0.2245(7) 0.2950(18) 0.3018(11)
H4 H 0.2401 0.2122 0.2867
C8 C 0.1951(5) 0.4278(15) 0.5225(9)
C9 C 0.1552(5) 0.5097(17) 0.5291(9)
H5 H 0.1284 0.5493 0.4693
C10 C 0.1563(5) 0.5316(16) 0.6301(9)
H6 H 0.1304 0.5873 0.6364
C11 C 0.1949(5) 0.4709(14) 0.7155(9)
C12 C 0.2320(6) 0.3811(18) 0.7063(10)
H7 H 0.2565 0.3315 0.7646
C13 C 0.2325(6) 0.3651(17) 0.6094(11)
H8 H 0.2589 0.3106 0.6045
C14 C 0.1991(4) 0.5122(14) 0.8228(9)
C15 C 0.3354(4) 0.5553(13) 0.1666(9)
C16 C 0.3835(5) 0.5578(16) 0.2657(10)
C17 C 0.4057(6) 0.6901(17) 0.3142(12)
H9 H 0.3894 0.7812 0.2847
C18 C 0.4506(7) 0.696(3) 0.4038(15)
H10 H 0.4650 0.7889 0.4334
C19 C 0.4758(5) 0.5536(18) 0.4523(11)
C20 C 0.4552(6) 0.4260(17) 0.3989(14)
H11 H 0.4730 0.3350 0.4228
C21 C 0.4087(6) 0.4232(17) 0.3095(12)
H12 H 0.3943 0.3306 0.2789
C22 C 0.1455(6) 0.9563(15) 0.0522(14)
H13 H 0.1713 1.0300 0.0751
O1 O 0.2072(4) 0.5307(10) 0.0854(7)
O2 O 0.2241(4) 0.2852(10) 0.1035(7)
O3 O 0.2383(3) 0.4707(10) 0.9024(6)
O4 O 0.1659(3) 0.5966(11) 0.8283(7)
O5 O 0.3132(3) 0.6781(11) 0.1310(7)
O6 O 0.3195(4) 0.4317(13) 0.1228(9)
O7 O 0.1582(4) 0.8237(12) 0.0439(9)
O8 O 0.0991(5) 0.9995(19) 0.0314(13)
H14 H 0.0818 1.0039 -0.0329
Ce1C Ce 0.273269(15) 1.23188(15) 0.00501(3)
Ce1C_2 Ce 0.273269(15) 0.23188(15) 0.00501(3)
Ce1_2 Ce 0.226731(15) 0.73188(15) 0.99499(3)
Ce1C_3 Ce 0.273269(15) 0.23188(15) 1.00501(3)
Ce1A Ce 0.773269(15) 0.73188(15) 1.00501(3)
Ce1B Ce 0.726731(15) 0.23188(15) 0.99499(3)
Ce1_3 Ce 0.226731(15) 0.73188(15) -1.00501(3)
Ce1C_4 Ce 0.273269(15) 1.23188(15) -0.99499(3)
C1C C 0.2869(5) 0.9086(15) -0.1328(10)
C2C C 0.2934(5) 0.9097(14) -0.2319(9)
C3C C 0.3194(5) 1.0314(15) -0.2498(10)
H1C H 0.3336 1.1088 -0.2009
C4C C 0.3235(5) 1.0326(15) -0.3460(9)
H2C H 0.3405 1.1127 -0.3602
C5C C 0.3029(5) 0.9178(15) -0.4183(10)
C6C C 0.2795(7) 0.7961(19) -0.3962(12)
H3C H 0.2666 0.7158 -0.4431
C7C C 0.2755(7) 0.7950(18) -0.3018(11)
H4C H 0.2599 0.7122 -0.2867
C8C C 0.3049(5) 0.9278(15) -0.5225(9)
C9C C 0.3448(5) 1.0097(17) -0.5291(9)
H5C H 0.3716 1.0493 -0.4693
C10C C 0.3437(5) 1.0316(16) -0.6301(9)
H6C H 0.3696 1.0873 -0.6364
C11C C 0.3051(5) 0.9709(14) -0.7155(9)
C12C C 0.2680(6) 0.8811(18) -0.7063(10)
H7C H 0.2435 0.8315 -0.7646
C13C C 0.2675(6) 0.8651(17) -0.6094(11)
H8C H 0.2411 0.8106 -0.6045
C14C C 0.3009(4) 1.0122(14) -0.8228(9)
C15A C 0.6646(4) 0.5553(13) 0.8334(9)
C16A C 0.6165(5) 0.5578(16) 0.7343(10)
C17A C 0.5943(6) 0.6901(17) 0.6858(12)
H9A H 0.6106 0.7812 0.7153
C18A C 0.5494(7) 0.696(3) 0.5962(15)
H10A H 0.5350 0.7889 0.5666
C19A C 0.5242(5) 0.5536(18) 0.5477(11)
C20A C 0.5448(6) 0.4260(17) 0.6011(14)
H11A H 0.5270 0.3350 0.5772
C21A C 0.5913(6) 0.4232(17) 0.6905(12)
H12A H 0.6057 0.3306 0.7211
C22C C 0.3545(6) 1.4563(15) -0.0522(14)
H13C H 0.3287 1.5300 -0.0751
O1C O 0.2928(4) 1.0307(10) -0.0854(7)
O2C O 0.2759(4) 0.7852(10) -0.1035(7)
O2_2 O 0.2241(4) 1.2852(10) 0.1035(7)
O3C O 0.2617(3) 0.9707(10) -0.9024(6)
O3_2 O 0.2383(3) 0.4707(10) -0.0976(6)
O3C_2 O 0.2617(3) 0.9707(10) 0.0976(6)
O3_3 O 0.2383(3) 1.4707(10) -0.0976(6)
O4C O 0.3341(3) 1.0966(11) -0.8283(7)
O4_2 O 0.1659(3) 0.5966(11) -0.1717(7)
O4C_2 O 0.3341(3) 1.0966(11) 0.1717(7)
O5A O 0.6868(3) 0.6781(11) 0.8690(7)
O5C O 0.1868(3) 1.1781(11) -0.1310(7)
O6A O 0.6805(4) 0.4317(13) 0.8772(9)
O6C O 0.1805(4) 0.9317(13) -0.1228(9)
O6_2 O 0.3195(4) 1.4317(13) 0.1228(9)
O7C O 0.3418(4) 1.3237(12) -0.0439(9)
O8C O 0.4009(5) 1.4995(19) -0.0314(13)
H14C H 0.4182 1.5039 0.0329
loop_
_geom_bond_atom_site_label_1
_geom_bond_atom_site_label_2
_geom_bond_site_symmetry_1
_geom_bond_site_symmetry_2
Ce1 O1 1_555 1_555
C1 C2 1_555 1_555
C2 C3 1_555 1_555
C3 H1 1_555 1_555
C4 C3 1_555 1_555
H2 C4 1_555 1_555
C5 C4 1_555 1_555
C6 C5 1_555 1_555
H3 C6 1_555 1_555
C7 C2 1_555 1_555
H4 C7 1_555 1_555
C8 C5 1_555 1_555
C9 C8 1_555 1_555
H5 C9 1_555 1_555
C10 C9 1_555 1_555
H6 C10 1_555 1_555
C11 C10 1_555 1_555
C12 C11 1_555 1_555
H7 C12 1_555 1_555
C13 C8 1_555 1_555
H8 C13 1_555 1_555
C14 C11 1_555 1_555
C15 C16 1_555 1_555
C16 C17 1_555 1_555
C17 H9 1_555 1_555
C18 C17 1_555 1_555
H10 C18 1_555 1_555
C19 C18 1_555 1_555
C20 C19 1_555 1_555
H11 C20 1_555 1_555
C21 C16 1_555 1_555
H12 C21 1_555 1_555
C22 H13 1_555 1_555
O1 C1 1_555 1_555
O2 C1 1_555 1_555
O3 C14 1_555 1_555
O4 C14 1_555 1_555
O5 Ce1 1_555 1_555
O6 C15 1_555 1_555
O7 Ce1 1_555 1_555
O8 C22 1_555 1_555
H14 O8 1_555 1_555
Ce1C O1C 1_555 1_555
Ce1C_2 O2 1_555 1_555
Ce1_2 O3 1_555 1_555
Ce1C_3 O3 1_555 1_555
Ce1A O5A 1_555 1_555
Ce1B O6A 1_555 1_555
Ce1_3 O3C 1_555 1_555
Ce1C_4 O3C 1_555 1_555
C1C C2C 1_555 1_555
C2C C3C 1_555 1_555
C3C H1C 1_555 1_555
C4C C3C 1_555 1_555
H2C C4C 1_555 1_555
C5C C4C 1_555 1_555
C6C C5C 1_555 1_555
H3C C6C 1_555 1_555
C7C C2C 1_555 1_555
H4C C7C 1_555 1_555
C8C C5C 1_555 1_555
C9C C8C 1_555 1_555
H5C C9C 1_555 1_555
C10C C9C 1_555 1_555
H6C C10C 1_555 1_555
C11C C10C 1_555 1_555
C12C C11C 1_555 1_555
H7C C12C 1_555 1_555
C13C C8C 1_555 1_555
H8C C13C 1_555 1_555
C14C C11C 1_555 1_555
C15A C16A 1_555 1_555
C16A C17A 1_555 1_555
C17A H9A 1_555 1_555
C18A C17A 1_555 1_555
H10A C18A 1_555 1_555
C19A C19 1_555 1_555
C20A C19A 1_555 1_555
H11A C20A 1_555 1_555
C21A C16A 1_555 1_555
H12A C21A 1_555 1_555
C22C H13C 1_555 1_555
O1C C1C 1_555 1_555
O2C Ce1 1_555 1_555
O2_2 Ce1C 1_555 1_555
O3C C14C 1_555 1_555
O3_2 Ce1 1_555 1_555
O3C_2 Ce1 1_555 1_555
O3_3 Ce1C 1_555 1_555
O4C Ce1C_4 1_555 1_555
O4_2 Ce1 1_555 1_555
O4C_2 Ce1C 1_555 1_555
O5A C15A 1_555 1_555
O5C Ce1C 1_555 1_555
O6A C15A 1_555 1_555
O6C Ce1 1_555 1_555
O6_2 Ce1C 1_555 1_555
O7C Ce1C 1_555 1_555
O8C C22C 1_555 1_555
H14C O8C 1_555 1_555
C6 C7 1_555 1_555
C12 C13 1_555 1_555
C15 O5 1_555 1_555
C20 C21 1_555 1_555
C22 O7 1_555 1_555
O4 Ce1_2 1_555 1_555
O6 Ce1C_2 1_555 1_555
Ce1C O3C_2 1_555 1_555
Ce1C_2 O3_2 1_555 1_555
C1C O2C 1_555 1_555
C6C C7C 1_555 1_555
C12C C13C 1_555 1_555
C14C O4C 1_555 1_555
C18A C19A 1_555 1_555
C20A C21A 1_555 1_555
C22C O7C 1_555 1_555

#END
