
#######################################################################
#
#                 Cambridge Crystallographic Data Centre
#                                CCDC 
#
#######################################################################
#
# If this CIF has been generated from an entry in the Cambridge 
# Structural Database, then it will include bibliographic, chemical, 
# crystal, experimental, refinement or atomic coordinate data resulting 
# from the CCDC's data processing and validation procedures.
#
#######################################################################

data_GACYER
_chemical_formula_moiety         'C56 H28 N3 O25 Zn10'
_symmetry_cell_setting           orthorhombic
_symmetry_space_group_name_H-M   'P n n m'
_symmetry_Int_Tables_number      58
_space_group_name_Hall           '-P 2 2n'
loop_
_symmetry_equiv_pos_site_id
_symmetry_equiv_pos_as_xyz
1 x,y,z
2 -x,-y,z
3 1/2+x,1/2-y,1/2-z
4 1/2-x,1/2+y,1/2-z
5 -x,-y,-z
6 x,y,-z
7 1/2-x,1/2+y,1/2+z
8 1/2+x,1/2-y,1/2+z
_cell_length_a                   17.256(4)
_cell_length_b                   23.227(6)
_cell_length_c                   25.426(6)
_cell_angle_alpha                90
_cell_angle_beta                 90
_cell_angle_gamma                90
_cell_volume                     10190.9
loop_
_atom_site_label
_atom_site_type_symbol
_atom_site_fract_x
_atom_site_fract_y
_atom_site_fract_z
Zn1 Zn 0.29128(6) -0.58348(4) 0.0000
Zn2 Zn 0.29801(6) -0.72083(5) 0.0000
Zn3 Zn 0.16391(5) -0.65747(3) -0.06221(3)
O1 O 0.2300(3) -0.65296(19) 0.0000
O2 O 0.2742(3) -0.53456(19) 0.06099(17)
O3 O 0.1850(3) -0.58559(19) 0.10325(18)
C1 C 0.2307(4) -0.5425(3) 0.0991(3)
C2 C 0.2302(4) -0.4999(3) 0.1415(3)
C3 C 0.2323(5) -0.4198(3) 0.2255(3)
C4 C 0.2871(11) -0.4606(7) 0.1467(7)
H1 H 0.3291 -0.4614 0.1238
C5 C 0.2836(9) -0.4183(6) 0.1865(6)
H2 H 0.3188 -0.3880 0.1854
C6 C 0.1726(11) -0.4596(6) 0.2234(6)
H3 H 0.1323 -0.4575 0.2476
C7 C 0.1725(11) -0.5043(7) 0.1838(6)
H4 H 0.1373 -0.5346 0.1851
C8 C 0.2361(6) -0.3795(3) 0.2685(3)
C9 C 0.2881(7) -0.3344(5) 0.2654(5)
H5 H 0.3197 -0.3311 0.2360
C10 C 0.2946(7) -0.2911(5) 0.3078(5)
H6 H 0.3301 -0.2610 0.3063
C11 C 0.2418(5) -0.2983(4) 0.3523(3)
C12 C 0.1939(5) -0.3458(4) 0.3542(4)
H7 H 0.1636 -0.3527 0.3837
C13 C 0.1912(6) -0.3840(5) 0.3110(4)
H8 H 0.1559 -0.4141 0.3123
C14 C 0.2465(6) -0.2564(5) 0.3958(4)
O4 O 0.2056(3) -0.2686(3) 0.4378(2)
O5 O 0.2919(7) -0.2136(3) 0.3897(2)
O6 O 0.4035(3) -0.5944(3) 0.0000
O7 O 0.4049(4) -0.6927(3) 0.0000
C15 C 0.4384(6) -0.6445(5) 0.0000
C16 C 0.5225(5) -0.6416(4) 0.0000
C17 C 0.5664(6) -0.6933(6) 0.0000
H9 H 0.5407 -0.7285 0.0000
C18 C 0.6443(9) -0.6926(7) 0.0000
H10 H 0.6708 -0.7274 0.0000
C19 C 0.6872(5) -0.6410(4) 0.0000
C20 C 0.6474(5) -0.5938(5) 0.0000
H11 H 0.6741 -0.5590 0.0000
C21 C 0.5661(6) -0.5920(5) 0.0000
H12 H 0.5411 -0.5566 0.0000
C22 C 0.7746(6) -0.6430(4) 0.0000
C23 C 0.9363(5) -0.6465(4) 0.0000
C24 C 1.0239(8) -0.6441(5) 0.0000
O8 O 1.0567(3) -0.6462(4) 0.0421(4)
C25 C 0.8176(8) -0.6121(6) 0.0318(6)
H13 H 0.7942 -0.5874 0.0557
C26 C 0.8958(10) -0.6160(7) 0.0301(7)
H14 H 0.9227 -0.5933 0.0541
C27 C 0.8956(7) -0.6754(5) -0.0447(5)
H15 H 0.9220 -0.6934 -0.0720
C28 C 0.8133(8) -0.6731(6) -0.0421(6)
H16 H 0.7840 -0.6912 -0.0680
O9 O 0.1331(7) -0.7455(5) -0.0250(4)
C29 C 0.080(2) -0.7648(9) 0.0022(16)
O10 O 0.0794(9) -0.6776(7) -0.1253(6)
N1 N 0.0506(9) -0.8167(6) 0.0000
C30 C -0.0271(11) -0.838(2) 0.0000
C31 C 0.1162(15) -0.8543(15) 0.0000
O8E O 1.0567(3) -0.6462(4) -0.0421(4)
C25E C 0.8176(8) -0.6121(6) -0.0318(6)
H13E H 0.7942 -0.5874 -0.0557
C26E C 0.8958(10) -0.6160(7) -0.0301(7)
H14E H 0.9227 -0.5933 -0.0541
C27E C 0.8956(7) -0.6754(5) 0.0447(5)
H15E H 0.9220 -0.6934 0.0720
C28E C 0.8133(8) -0.6731(6) 0.0421(6)
H16E H 0.7840 -0.6912 0.0680
O9E O 0.1331(7) -0.7455(5) 0.0250(4)
C29E C 0.080(2) -0.7648(9) -0.0022(16)
Zn3E Zn 0.16391(5) -0.65747(3) 0.06221(3)
O2E O 0.2742(3) -0.53456(19) -0.06099(17)
O3E O 0.1850(3) -0.58559(19) -0.10325(18)
C1E C 0.2307(4) -0.5425(3) -0.0991(3)
C2E C 0.2302(4) -0.4999(3) -0.1415(3)
C3E C 0.2323(5) -0.4198(3) -0.2255(3)
C4E C 0.2871(11) -0.4606(7) -0.1467(7)
H1E H 0.3291 -0.4614 -0.1238
C5E C 0.2836(9) -0.4183(6) -0.1865(6)
H2E H 0.3188 -0.3880 -0.1854
C6E C 0.1726(11) -0.4596(6) -0.2234(6)
H3E H 0.1323 -0.4575 -0.2476
C7E C 0.1725(11) -0.5043(7) -0.1838(6)
H4E H 0.1373 -0.5346 -0.1851
C8E C 0.2361(6) -0.3795(3) -0.2685(3)
C9E C 0.2881(7) -0.3344(5) -0.2654(5)
H5E H 0.3197 -0.3311 -0.2360
C10E C 0.2946(7) -0.2911(5) -0.3078(5)
H6E H 0.3301 -0.2610 -0.3063
C11E C 0.2418(5) -0.2983(4) -0.3523(3)
C12E C 0.1939(5) -0.3458(4) -0.3542(4)
H7E H 0.1636 -0.3527 -0.3837
C13E C 0.1912(6) -0.3840(5) -0.3110(4)
H8E H 0.1559 -0.4141 -0.3123
C14E C 0.2465(6) -0.2564(5) -0.3958(4)
O4E O 0.2056(3) -0.2686(3) -0.4378(2)
O5E O 0.2919(7) -0.2136(3) -0.3897(2)
O10E O 0.0794(9) -0.6776(7) 0.1253(6)
Zn2C Zn 0.20199(6) -0.22083(5) -0.5000
Zn2C_2 Zn 0.20199(6) -0.22083(5) 0.5000
Zn3_2 Zn 1.16391(5) -0.65747(3) -0.06221(3)
Zn3C Zn 0.33609(5) -0.15747(3) -0.43779(3)
Zn3E_2 Zn 1.16391(5) -0.65747(3) 0.06221(3)
Zn3F Zn 0.33609(5) -0.15747(3) 0.43779(3)
O4C O 0.2944(3) -0.7686(3) 0.0622(2)
O4F O 0.2944(3) -0.7686(3) -0.0622(2)
O5C O 0.2081(7) -0.7136(3) 0.1103(2)
O5F O 0.2081(7) -0.7136(3) -0.1103(2)
O8_2 O 0.0567(3) -0.6462(4) 0.0421(4)
O8E_2 O 0.0567(3) -0.6462(4) -0.0421(4)
O11 O 0.0218(12) -0.5460(9) -0.2036(6)
C32 C 0.0286(18) -0.5356(7) -0.1564(7)
N2 N 0.0319(8) -0.4883(6) -0.1284(5)
C33 C 0.016(2) -0.4355(8) -0.1554(11)
C34 C 0.0368(11) -0.4927(9) -0.0724(5)
O11A O -0.0218(12) -0.4540(9) -0.2036(6)
C32A C -0.0286(18) -0.4644(7) -0.1564(7)
N2A N -0.0319(8) -0.5117(6) -0.1284(5)
C33A C -0.016(2) -0.5645(8) -0.1554(11)
C34A C -0.0368(11) -0.5073(9) -0.0724(5)
loop_
_geom_bond_atom_site_label_1
_geom_bond_atom_site_label_2
_geom_bond_site_symmetry_1
_geom_bond_site_symmetry_2
Zn1 O1 1_555 1_555
Zn2 O1 1_555 1_555
Zn3 O1 1_555 1_555
O1 Zn3E 1_555 1_555
O2 Zn1 1_555 1_555
O3 C1 1_555 1_555
C1 O2 1_555 1_555
C2 C1 1_555 1_555
C3 C5 1_555 1_555
C4 C2 1_555 1_555
H1 C4 1_555 1_555
C5 C4 1_555 1_555
H2 C5 1_555 1_555
C6 C3 1_555 1_555
H3 C6 1_555 1_555
C7 C2 1_555 1_555
H4 C7 1_555 1_555
C8 C3 1_555 1_555
C9 C8 1_555 1_555
H5 C9 1_555 1_555
C10 C9 1_555 1_555
H6 C10 1_555 1_555
C11 C10 1_555 1_555
C12 C11 1_555 1_555
H7 C12 1_555 1_555
C13 C8 1_555 1_555
H8 C13 1_555 1_555
C14 C11 1_555 1_555
O4 C14 1_555 1_555
O5 C14 1_555 1_555
O6 Zn1 1_555 1_555
O7 Zn2 1_555 1_555
C15 O6 1_555 1_555
C16 C15 1_555 1_555
C17 C16 1_555 1_555
H9 C17 1_555 1_555
C18 C17 1_555 1_555
H10 C18 1_555 1_555
C19 C18 1_555 1_555
C20 C19 1_555 1_555
H11 C20 1_555 1_555
C21 C16 1_555 1_555
H12 C21 1_555 1_555
C22 C19 1_555 1_555
C23 C24 1_555 1_555
C24 O8 1_555 1_555
O8 Zn3E_2 1_555 1_555
C25 C22 1_555 1_555
H13 C25 1_555 1_555
C26 C23 1_555 1_555
H14 C26 1_555 1_555
C27 C23 1_555 1_555
H15 C27 1_555 1_555
C28 C22 1_555 1_555
H16 C28 1_555 1_555
O9 Zn3 1_555 1_555
C29 O9 1_555 1_555
O10 Zn3 1_555 1_555
N1 C29 1_555 1_555
C30 N1 1_555 1_555
C31 N1 1_555 1_555
O11 C32 1_555 1_555
C32 N2 1_555 1_555
N2 C33 1_555 1_555
C33 O11A 1_555 1_555
C34 N2 1_555 1_555
O8E C24 1_555 1_555
C25E C22 1_555 1_555
H13E C25E 1_555 1_555
C26E C23 1_555 1_555
H14E C26E 1_555 1_555
C27E C23 1_555 1_555
H15E C27E 1_555 1_555
C28E C22 1_555 1_555
H16E C28E 1_555 1_555
O9E O9 1_555 1_555
C29E O9 1_555 1_555
Zn3E O3 1_555 1_555
O2E Zn1 1_555 1_555
O3E Zn3 1_555 1_555
C1E O2E 1_555 1_555
C2E C1E 1_555 1_555
C3E C5E 1_555 1_555
C4E C2E 1_555 1_555
H1E C4E 1_555 1_555
C5E C4E 1_555 1_555
H2E C5E 1_555 1_555
C6E C3E 1_555 1_555
H3E C6E 1_555 1_555
C7E C2E 1_555 1_555
H4E C7E 1_555 1_555
C8E C3E 1_555 1_555
C9E C8E 1_555 1_555
H5E C9E 1_555 1_555
C10E C9E 1_555 1_555
H6E C10E 1_555 1_555
C11E C10E 1_555 1_555
C12E C11E 1_555 1_555
H7E C12E 1_555 1_555
C13E C8E 1_555 1_555
H8E C13E 1_555 1_555
C14E C11E 1_555 1_555
O4E C14E 1_555 1_555
O5E C14E 1_555 1_555
O10E Zn3E 1_555 1_555
Zn2C O4E 1_555 1_555
Zn2C_2 O4 1_555 1_555
Zn3_2 O8E 1_555 1_555
Zn3C O5E 1_555 1_555
Zn3F O5 1_555 1_555
O4C Zn2 1_555 1_555
O4F Zn2 1_555 1_555
O5C Zn3E 1_555 1_555
O5F Zn3 1_555 1_555
O8_2 Zn3E 1_555 1_555
O8E_2 Zn3 1_555 1_555
O11A C32A 1_555 1_555
C32A N2 1_555 1_555
N2A C32 1_555 1_555
C33A O11 1_555 1_555
C34A C34 1_555 1_555
C6 C7 1_555 1_555
C12 C13 1_555 1_555
O7 C15 1_555 1_555
C20 C21 1_555 1_555
C25 C26 1_555 1_555
C25 C25E 1_555 1_555
C25 C28E 1_555 1_555
C26 C26E 1_555 1_555
C26 C27E 1_555 1_555
C27 C28 1_555 1_555
C27 C26E 1_555 1_555
C28 C25E 1_555 1_555
C29 O9E 1_555 1_555
N1 C29E 1_555 1_555
C32 C33A 1_555 1_555
N2 N2A 1_555 1_555
C33 C32A 1_555 1_555
C25E C26E 1_555 1_555
C27E C28E 1_555 1_555
O9E C29E 1_555 1_555
O9E Zn3E 1_555 1_555
O3E C1E 1_555 1_555
C6E C7E 1_555 1_555
C12E C13E 1_555 1_555
C32A N2A 1_555 1_555
N2A C33A 1_555 1_555
N2A C34A 1_555 1_555

#END
