
#######################################################################
#
#                 Cambridge Crystallographic Data Centre
#                                CCDC 
#
#######################################################################
#
# If this CIF has been generated from an entry in the Cambridge 
# Structural Database, then it will include bibliographic, chemical, 
# crystal, experimental, refinement or atomic coordinate data resulting 
# from the CCDC's data processing and validation procedures.
#
#######################################################################

data_GADMUW
_chemical_formula_moiety         '(C54 H34 N4 O12 Zn3)n'
_symmetry_cell_setting           monoclinic
_symmetry_space_group_name_H-M   'C 2/c'
_symmetry_Int_Tables_number      15
_space_group_name_Hall           '-C 2yc'
loop_
_symmetry_equiv_pos_site_id
_symmetry_equiv_pos_as_xyz
1 x,y,z
2 -x,y,1/2-z
3 1/2+x,1/2+y,z
4 1/2-x,1/2+y,1/2-z
5 -x,-y,-z
6 x,-y,1/2+z
7 1/2-x,1/2-y,-z
8 1/2+x,1/2-y,1/2+z
_cell_length_a                   47.928(4)
_cell_length_b                   13.828(1)
_cell_length_c                   26.187(2)
_cell_angle_alpha                90
_cell_angle_beta                 114.491(2)
_cell_angle_gamma                90
_cell_volume                     15793.9
loop_
_atom_site_label
_atom_site_type_symbol
_atom_site_fract_x
_atom_site_fract_y
_atom_site_fract_z
Zn1 Zn 0.64456(2) 0.24638(3) 0.54705(2)
Zn2 Zn 0.72092(2) 0.23642(3) 0.60915(2)
Zn3 Zn 0.56605(2) -0.73682(3) 0.48314(2)
O1 O 0.66663(5) 0.34479(18) 0.51860(10)
O2 O 0.71670(5) 0.31775(19) 0.54563(9)
C1 C 0.69110(8) 0.3541(2) 0.51315(13)
C2 C 0.69057(8) 0.4111(3) 0.46474(13)
C3 C 0.66320(9) 0.4428(3) 0.42319(14)
H1 H 0.6450 0.4324 0.4269
C4 C 0.66267(9) 0.4897(3) 0.37637(16)
H2 H 0.6440 0.5110 0.3493
C5 C 0.68913(8) 0.5060(3) 0.36848(14)
C6 C 0.71695(8) 0.4750(3) 0.41186(14)
H3 H 0.7353 0.4865 0.4087
C7 C 0.71751(8) 0.4286(3) 0.45824(13)
H4 H 0.7362 0.4084 0.4859
C8 C 0.68884(8) 0.5509(3) 0.31694(13)
C9 C 0.66212(12) 0.5649(4) 0.2704(2)
H5 H 0.6438 0.5418 0.2702
C10 C 0.66169(11) 0.6133(5) 0.2231(2)
H6 H 0.6430 0.6303 0.1944
C11 C 0.68778(8) 0.6354(3) 0.21843(13)
C12 C 0.71426(10) 0.6125(5) 0.2625(2)
H7 H 0.7328 0.6259 0.2605
C13 C 0.71462(10) 0.5704(5) 0.3098(2)
H8 H 0.7334 0.5543 0.3385
C14 C 0.68776(8) 0.6812(2) 0.16696(13)
O3 O 0.66234(5) 0.7045(2) 0.12895(9)
O4 O 0.71347(5) 0.6926(2) 0.16551(10)
O5 O 0.68319(5) 0.14635(16) 0.56571(9)
O6 O 0.71912(6) 0.08524(19) 0.64124(13)
C15 C 0.69389(8) 0.0750(3) 0.59949(14)
C16 C 0.67768(8) -0.0182(2) 0.58906(14)
C17 C 0.65183(8) -0.0340(3) 0.53990(15)
H9 H 0.6439 0.0157 0.5140
C18 C 0.63787(9) -0.1238(3) 0.52944(16)
H10 H 0.6212 -0.1342 0.4954
C19 C 0.64801(8) -0.1993(3) 0.56826(16)
C20 C 0.67404(9) -0.1817(3) 0.61817(16)
H11 H 0.6817 -0.2304 0.6449
C21 C 0.68844(9) -0.0927(3) 0.62807(16)
H12 H 0.7056 -0.0825 0.6614
C22 C 0.63391(9) -0.2965(3) 0.55638(15)
C23 C 0.60275(9) -0.3069(3) 0.52080(18)
H13 H 0.5907 -0.2522 0.5063
C24 C 0.58981(9) -0.3974(3) 0.50719(18)
H14 H 0.5692 -0.4031 0.4829
C25 C 0.60692(8) -0.4801(3) 0.52895(15)
C26 C 0.63730(9) -0.4701(3) 0.56556(16)
H15 H 0.6489 -0.5247 0.5817
C27 C 0.65063(9) -0.3793(3) 0.57845(16)
H16 H 0.6713 -0.3740 0.6025
C28 C 0.59298(8) -0.5775(3) 0.51305(15)
O7 O 0.56443(6) -0.58485(19) 0.48266(12)
O8 O 0.60856(5) -0.65267(16) 0.53005(10)
O9 O 0.57105(6) -0.8183(2) 0.54607(10)
O10 O 0.62092(6) -0.85229(18) 0.57188(10)
C29 C 0.59645(8) -0.8577(3) 0.57782(13)
C30 C 0.59685(8) -0.9152(3) 0.62667(14)
C31 C 0.57082(9) -0.9233(4) 0.63671(17)
H17 H 0.5525 -0.8963 0.6113
C32 C 0.57130(9) -0.9703(4) 0.68352(17)
H18 H 0.5534 -0.9748 0.6892
C33 C 0.59827(9) -1.0111(3) 0.72235(15)
C34 C 0.62430(9) -1.0067(3) 0.71077(16)
H19 H 0.6423 -1.0368 0.7347
C35 C 0.62336(9) -0.9579(3) 0.66399(16)
H20 H 0.6410 -0.9538 0.6577
C36 C 0.59945(8) -1.0572(3) 0.77432(14)
C37 C 0.57407(9) -1.1049(3) 0.77439(15)
H21 H 0.5563 -1.1087 0.7414
C38 C 0.57469(8) -1.1470(3) 0.82290(13)
H22 H 0.5575 -1.1796 0.8221
C39 C 0.60110(8) -1.1404(3) 0.87299(13)
C40 C 0.62625(8) -1.0928(3) 0.87289(14)
H23 H 0.6440 -1.0889 0.9059
C41 C 0.62550(8) -1.0508(3) 0.82441(14)
H24 H 0.6426 -1.0178 0.8254
C42 C 0.60165(8) -1.1848(3) 0.92589(13)
O11 O 0.57602(6) -1.2148(2) 0.92307(9)
O12 O 0.62679(5) -1.18845(19) 0.96728(9)
N1 N 0.76762(6) 0.2309(2) 0.64543(11)
C43 C 0.78122(8) 0.1990(3) 0.69872(14)
H25 H 0.7691 0.1781 0.7166
C44 C 0.81238(8) 0.1967(3) 0.72712(15)
H26 H 0.8214 0.1754 0.7641
C45 C 0.83046(8) 0.2262(3) 0.70041(16)
C46 C 0.81627(8) 0.2570(3) 0.64586(16)
H27 H 0.8280 0.2763 0.6268
C47 C 0.78481(8) 0.2596(3) 0.61927(15)
H28 H 0.7754 0.2816 0.5825
C48 C 0.86437(8) 0.2263(3) 0.72981(17)
H29 H 0.8763 0.2352 0.7097
N2 N 0.87701(7) 0.2143(3) 0.78247(16)
N3 N 0.90939(8) 0.2162(3) 0.80306(15)
C49 C 0.92167(9) 0.2363(4) 0.85401(19)
H30 H 0.9096 0.2475 0.8736
C50 C 0.95558(9) 0.2424(4) 0.88342(17)
C51 C 1.00118(9) 0.2555(3) 0.96809(17)
H31 H 1.0102 0.2627 1.0069
C52 C 0.96948(9) 0.2545(4) 0.94035(18)
H32 H 0.9576 0.2620 0.9605
N4 N 1.01870(6) 0.2468(2) 0.94138(11)
C53 C 1.00565(9) 0.2337(3) 0.88597(16)
H33 H 1.0181 0.2261 0.8669
C54 C 0.97454(9) 0.2309(4) 0.85632(17)
H34 H 0.9662 0.2213 0.8177
Zn1_2 Zn 0.64456(2) -0.75362(3) 0.54705(2)
Zn1E Zn 0.64456(2) -1.24638(3) 1.04705(2)
Zn1E_2 Zn 0.64456(2) 0.75362(3) 0.04705(2)
Zn2E Zn 0.72092(2) 0.76358(3) 0.10915(2)
Zn3E Zn 0.56605(2) -1.26318(3) 0.98314(2)
Zn3G Zn 1.06605(2) 0.23682(3) 0.98314(2)
O3E O 0.66234(5) 0.2955(2) 0.62895(9)
O4E O 0.71347(5) 0.3074(2) 0.66551(10)
O8_2 O 0.60856(5) 0.34733(16) 0.53005(10)
O10_2 O 0.62092(6) 0.14771(18) 0.57188(10)
O11E O 0.57602(6) -0.7852(2) 0.42307(9)
O12E O 0.62679(5) 0.18845(19) 0.46728(9)
N4G N 0.51870(6) -0.7468(2) 0.44138(11)
loop_
_geom_bond_atom_site_label_1
_geom_bond_atom_site_label_2
_geom_bond_site_symmetry_1
_geom_bond_site_symmetry_2
Zn1 O1 1_555 1_555
Zn2 O2 1_555 1_555
Zn3 O7 1_555 1_555
O1 C1 1_555 1_555
O2 C1 1_555 1_555
C1 C2 1_555 1_555
C2 C3 1_555 1_555
C3 H1 1_555 1_555
C4 C3 1_555 1_555
H2 C4 1_555 1_555
C5 C4 1_555 1_555
C6 C5 1_555 1_555
H3 C6 1_555 1_555
C7 C2 1_555 1_555
H4 C7 1_555 1_555
C8 C5 1_555 1_555
C9 C8 1_555 1_555
H5 C9 1_555 1_555
C10 C9 1_555 1_555
H6 C10 1_555 1_555
C11 C10 1_555 1_555
C12 C11 1_555 1_555
H7 C12 1_555 1_555
C13 C8 1_555 1_555
H8 C13 1_555 1_555
C14 C11 1_555 1_555
O3 C14 1_555 1_555
O4 C14 1_555 1_555
O5 Zn1 1_555 1_555
O6 Zn2 1_555 1_555
C15 O5 1_555 1_555
C16 C15 1_555 1_555
C17 C16 1_555 1_555
H9 C17 1_555 1_555
C18 C17 1_555 1_555
H10 C18 1_555 1_555
C19 C18 1_555 1_555
C20 C19 1_555 1_555
H11 C20 1_555 1_555
C21 C16 1_555 1_555
H12 C21 1_555 1_555
C22 C19 1_555 1_555
C23 C22 1_555 1_555
H13 C23 1_555 1_555
C24 C23 1_555 1_555
H14 C24 1_555 1_555
C25 C24 1_555 1_555
C26 C25 1_555 1_555
H15 C26 1_555 1_555
C27 C22 1_555 1_555
H16 C27 1_555 1_555
C28 C25 1_555 1_555
O7 C28 1_555 1_555
O8 Zn3 1_555 1_555
O9 Zn3 1_555 1_555
O10 C29 1_555 1_555
C29 O9 1_555 1_555
C30 C29 1_555 1_555
C31 C30 1_555 1_555
H17 C31 1_555 1_555
C32 C31 1_555 1_555
H18 C32 1_555 1_555
C33 C32 1_555 1_555
C34 C33 1_555 1_555
H19 C34 1_555 1_555
C35 C30 1_555 1_555
H20 C35 1_555 1_555
C36 C33 1_555 1_555
C37 C36 1_555 1_555
H21 C37 1_555 1_555
C38 C37 1_555 1_555
H22 C38 1_555 1_555
C39 C38 1_555 1_555
C40 C39 1_555 1_555
H23 C40 1_555 1_555
C41 C36 1_555 1_555
H24 C41 1_555 1_555
C42 C39 1_555 1_555
O11 C42 1_555 1_555
O12 C42 1_555 1_555
N1 Zn2 1_555 1_555
C43 N1 1_555 1_555
H25 C43 1_555 1_555
C44 C43 1_555 1_555
H26 C44 1_555 1_555
C45 C44 1_555 1_555
C46 C45 1_555 1_555
H27 C46 1_555 1_555
C47 N1 1_555 1_555
H28 C47 1_555 1_555
C48 C45 1_555 1_555
H29 C48 1_555 1_555
N2 C48 1_555 1_555
N3 N2 1_555 1_555
C49 N3 1_555 1_555
H30 C49 1_555 1_555
C50 C49 1_555 1_555
C51 H31 1_555 1_555
C52 C50 1_555 1_555
H32 C52 1_555 1_555
N4 C51 1_555 1_555
C53 N4 1_555 1_555
H33 C53 1_555 1_555
C54 C50 1_555 1_555
H34 C54 1_555 1_555
Zn1_2 O8 1_555 1_555
Zn1E O12 1_555 1_555
Zn1E_2 O3 1_555 1_555
Zn2E O4 1_555 1_555
Zn3E O11 1_555 1_555
Zn3G N4 1_555 1_555
O3E Zn1 1_555 1_555
O4E Zn2 1_555 1_555
O8_2 Zn1 1_555 1_555
O10_2 Zn1 1_555 1_555
O11E Zn3 1_555 1_555
O12E Zn1 1_555 1_555
N4G Zn3 1_555 1_555
Zn2 O5 1_555 1_555
C6 C7 1_555 1_555
C12 C13 1_555 1_555
O6 C15 1_555 1_555
C20 C21 1_555 1_555
C26 C27 1_555 1_555
C28 O8 1_555 1_555
O10 Zn1_2 1_555 1_555
C34 C35 1_555 1_555
C40 C41 1_555 1_555
C46 C47 1_555 1_555
C51 C52 1_555 1_555
C53 C54 1_555 1_555

#END
