
#######################################################################
#
#                 Cambridge Crystallographic Data Centre
#                                CCDC 
#
#######################################################################
#
# If this CIF has been generated from an entry in the Cambridge 
# Structural Database, then it will include bibliographic, chemical, 
# crystal, experimental, refinement or atomic coordinate data resulting 
# from the CCDC's data processing and validation procedures.
#
#######################################################################

data_LIZZAX
_chemical_formula_moiety         'C48 H56 Cd5 N8 O14'
_symmetry_cell_setting           orthorhombic
_symmetry_space_group_name_H-M   'C m c a'
_symmetry_Int_Tables_number      64
_space_group_name_Hall           '-C 2ac 2'
loop_
_symmetry_equiv_pos_site_id
_symmetry_equiv_pos_as_xyz
1 x,y,z
2 -x,1/2-y,1/2+z
3 x,-y,-z
4 -x,1/2+y,1/2-z
5 1/2+x,1/2+y,z
6 1/2-x,-y,1/2+z
7 1/2+x,1/2-y,-z
8 1/2-x,y,1/2-z
9 -x,-y,-z
10 x,1/2+y,1/2-z
11 -x,y,z
12 x,1/2-y,1/2+z
13 1/2-x,1/2-y,-z
14 1/2+x,y,1/2-z
15 1/2-x,1/2+y,z
16 1/2+x,-y,1/2+z
_cell_length_a                   21.722(4)
_cell_length_b                   39.084(8)
_cell_length_c                   17.966(4)
_cell_angle_alpha                90
_cell_angle_beta                 90
_cell_angle_gamma                90
_cell_volume                     15252.8
loop_
_atom_site_label
_atom_site_type_symbol
_atom_site_fract_x
_atom_site_fract_y
_atom_site_fract_z
Cd1 Cd 0.5000 0.656938(13) 0.53724(2)
Cd2 Cd 0.0000 0.578761(17) 0.65755(4)
N1 N 0.5098(6) 0.5991(2) 0.5047(4)
C1 C 0.4600(7) 0.5795(4) 0.5496(8)
H1 H 0.4555 0.5566 0.5298
H2 H 0.4727 0.5776 0.6012
C2 C 0.3986(7) 0.5980(4) 0.5454(10)
H3 H 0.3844 0.5980 0.4942
H4 H 0.3685 0.5857 0.5750
N2 N 0.4021(8) 0.6339(4) 0.5723(8)
C3 C 0.4029(4) 0.6374(4) 0.6559(6)
H5 H 0.4294 0.6198 0.6766
H6 H 0.3617 0.6336 0.6749
C4 C 0.4256(10) 0.6725(5) 0.6821(13)
H7 H 0.3984 0.6901 0.6629
H8 H 0.4241 0.6734 0.7360
N3 N 0.4866(4) 0.6791(2) 0.6578(4)
C5 C 0.5301(5) 0.6610(3) 0.7025(6)
H9 H 0.5167 0.6375 0.7079
H10 H 0.5312 0.6712 0.7517
C6 C 0.5920(8) 0.6613(5) 0.6713(11)
H11 H 0.6199 0.6500 0.7055
H12 H 0.6056 0.6849 0.6661
N4 N 0.5956(9) 0.6430(4) 0.5923(8)
C7 C 0.5941(5) 0.6060(4) 0.6011(10)
H13 H 0.5661 0.6000 0.6412
H14 H 0.6348 0.5978 0.6145
C8 C 0.5729(8) 0.5883(4) 0.5280(10)
H15 H 0.6018 0.5938 0.4886
H16 H 0.5734 0.5637 0.5350
C9 C 0.5000 0.5959(2) 0.4240(5)
H17 H 0.5371(9) 0.6075(12) 0.414(4)
C10 C 0.5000 0.5597(2) 0.3899(5)
C11 C 0.4460(4) 0.5452(3) 0.3716(6)
H18 H 0.4089 0.5567 0.3777
C12 C 0.4482(5) 0.5111(3) 0.3421(7)
H19 H 0.4124 0.4980 0.3420
C13 C 0.5000 0.4973(3) 0.3147(8)
C14 C 0.5000 0.4634(5) 0.2725(7)
O1 O 0.5462(6) 0.4505(3) 0.2618(6)
C15 C 0.3520(2) 0.65447(18) 0.5420(3)
H20 H 0.360(3) 0.6488(16) 0.4916(16)
H21 H 0.354(3) 0.6793(6) 0.543(3)
C16 C 0.2877(2) 0.64284(18) 0.5610(3)
C17 C 0.2590(3) 0.6187(2) 0.5189(4)
H22 H 0.2790 0.6099 0.4772
C18 C 0.2002(3) 0.6067(2) 0.5367(4)
H23 H 0.1817 0.5898 0.5079
C19 C 0.1697(2) 0.62023(16) 0.5974(3)
C20 C 0.1981(2) 0.64479(17) 0.6403(3)
H24 H 0.1776 0.6538 0.6813
C21 C 0.2571(2) 0.65639(17) 0.6232(4)
H25 H 0.2759 0.6729 0.6526
C22 C 0.1073(2) 0.60721(18) 0.6176(4)
O2 O 0.0824(2) 0.58419(16) 0.5774(3)
O3 O 0.08101(19) 0.61850(12) 0.6738(3)
C23 C 0.5000 0.7161(2) 0.6526(4)
H26 H 0.5327(9) 0.7329(10) 0.640(3)
C24 C 0.5000 0.7358(2) 0.7273(5)
C25 C 0.5542(4) 0.7457(2) 0.7616(6)
H27 H 0.5917 0.7392 0.7412
C26 C 0.5531(4) 0.7652(3) 0.8266(5)
H28 H 0.5900 0.7703 0.8505
C27 C 0.5000 0.7770(2) 0.8554(4)
C28 C 0.5000 0.7996(2) 0.9237(4)
O4 O 0.4546(7) 0.8010(5) 0.9644(8)
N1J N 0.4902(6) 0.5991(2) 0.5047(4)
C1J C 0.5400(7) 0.5795(4) 0.5496(8)
H1J H 0.5445 0.5566 0.5298
H2J H 0.5273 0.5776 0.6012
C2J C 0.6014(7) 0.5980(4) 0.5454(10)
H3J H 0.6156 0.5980 0.4942
H4J H 0.6315 0.5857 0.5750
N2J N 0.5979(8) 0.6339(4) 0.5723(8)
C3J C 0.5971(4) 0.6374(4) 0.6559(6)
H5J H 0.5706 0.6198 0.6766
H6J H 0.6383 0.6336 0.6749
C4J C 0.5744(10) 0.6725(5) 0.6821(13)
H7J H 0.6016 0.6901 0.6629
H8J H 0.5759 0.6734 0.7360
N3J N 0.5134(4) 0.6791(2) 0.6578(4)
C5J C 0.4699(5) 0.6610(3) 0.7025(6)
H9J H 0.4833 0.6375 0.7079
H10J H 0.4688 0.6712 0.7517
C6J C 0.4080(8) 0.6613(5) 0.6713(11)
H11J H 0.3801 0.6500 0.7055
H12J H 0.3944 0.6849 0.6661
N4J N 0.4044(9) 0.6430(4) 0.5923(8)
C7J C 0.4059(5) 0.6060(4) 0.6011(10)
H13J H 0.4339 0.6000 0.6412
H14J H 0.3652 0.5978 0.6145
C8J C 0.4271(8) 0.5883(4) 0.5280(10)
H15J H 0.3982 0.5938 0.4886
H16J H 0.4266 0.5637 0.5350
H17J H 0.4629(9) 0.6075(12) 0.414(4)
C11J C 0.5540(4) 0.5452(3) 0.3716(6)
H18J H 0.5911 0.5567 0.3777
C12J C 0.5518(5) 0.5111(3) 0.3421(7)
H19J H 0.5876 0.4980 0.3420
O1J O 0.4538(6) 0.4505(3) 0.2618(6)
C15J C 0.6480(2) 0.65447(18) 0.5420(3)
H20J H 0.640(3) 0.6488(16) 0.4916(16)
H21J H 0.646(3) 0.6793(6) 0.543(3)
C16J C 0.7123(2) 0.64284(18) 0.5610(3)
C17J C 0.7410(3) 0.6187(2) 0.5189(4)
H22J H 0.7210 0.6099 0.4772
C18J C 0.7998(3) 0.6067(2) 0.5367(4)
H23J H 0.8183 0.5898 0.5079
C19J C 0.8303(2) 0.62023(16) 0.5974(3)
C20J C 0.8019(2) 0.64479(17) 0.6403(3)
H24J H 0.8224 0.6538 0.6813
C21J C 0.7429(2) 0.65639(17) 0.6232(4)
H25J H 0.7241 0.6729 0.6526
C22J C 0.8927(2) 0.60721(18) 0.6176(4)
O2J O 0.9176(2) 0.58419(16) 0.5774(3)
O3J O 0.91899(19) 0.61850(12) 0.6738(3)
H26J H 0.4673(9) 0.7329(10) 0.640(3)
C25J C 0.4458(4) 0.7457(2) 0.7616(6)
H27J H 0.4083 0.7392 0.7412
C26J C 0.4469(4) 0.7652(3) 0.8266(5)
H28J H 0.4100 0.7703 0.8505
O4J O 0.5454(7) 0.8010(5) 0.9644(8)
Cd1A Cd 0.5000 0.843062(13) 1.03724(2)
Cd2_2 Cd 1.0000 0.578761(17) 0.65755(4)
Cd2E Cd 0.5000 0.421239(17) 0.15755(4)
O1E O -0.0462(6) 0.5495(3) 0.7618(6)
O1O O 0.0462(6) 0.5495(3) 0.7618(6)
O2J_2 O -0.0824(2) 0.58419(16) 0.5774(3)
O3J_2 O -0.08101(19) 0.61850(12) 0.6738(3)
O4A O 0.5454(7) 0.6990(5) 0.4644(8)
O4K O 0.4546(7) 0.6990(5) 0.4644(8)
loop_
_geom_bond_atom_site_label_1
_geom_bond_atom_site_label_2
_geom_bond_site_symmetry_1
_geom_bond_site_symmetry_2
Cd1 N1 1_555 1_555
Cd2 O2 1_555 1_555
N1 C1 1_555 1_555
C1 H1 1_555 1_555
H2 C1 1_555 1_555
C2 C1 1_555 1_555
H3 C2 1_555 1_555
H4 C2 1_555 1_555
N2 Cd1 1_555 1_555
C3 N2 1_555 1_555
H5 C3 1_555 1_555
H6 C3 1_555 1_555
C4 C3 1_555 1_555
H7 C4 1_555 1_555
H8 C4 1_555 1_555
N3 Cd1 1_555 1_555
C5 N3 1_555 1_555
H9 C5 1_555 1_555
H10 C5 1_555 1_555
C6 C5 1_555 1_555
H11 C6 1_555 1_555
H12 C6 1_555 1_555
N4 Cd1 1_555 1_555
C7 N4 1_555 1_555
H13 C7 1_555 1_555
H14 C7 1_555 1_555
C8 N1 1_555 1_555
H15 C8 1_555 1_555
H16 C8 1_555 1_555
C9 N1 1_555 1_555
H17 C9 1_555 1_555
C10 C9 1_555 1_555
C11 C10 1_555 1_555
H18 C11 1_555 1_555
C12 C11 1_555 1_555
H19 C12 1_555 1_555
C13 C12 1_555 1_555
C14 C13 1_555 1_555
O1 C14 1_555 1_555
C15 N2 1_555 1_555
H20 C15 1_555 1_555
H21 C15 1_555 1_555
C16 C15 1_555 1_555
C17 C16 1_555 1_555
H22 C17 1_555 1_555
C18 C17 1_555 1_555
H23 C18 1_555 1_555
C19 C18 1_555 1_555
C20 C19 1_555 1_555
H24 C20 1_555 1_555
C21 C16 1_555 1_555
H25 C21 1_555 1_555
C22 C19 1_555 1_555
O2 C22 1_555 1_555
O3 Cd2 1_555 1_555
C23 N3 1_555 1_555
H26 C23 1_555 1_555
C24 C23 1_555 1_555
C25 C24 1_555 1_555
H27 C25 1_555 1_555
C26 C25 1_555 1_555
H28 C26 1_555 1_555
C27 C26 1_555 1_555
C28 C27 1_555 1_555
O4 C28 1_555 1_555
N1J Cd1 1_555 1_555
C1J N1 1_555 1_555
H1J C1J 1_555 1_555
H2J C1J 1_555 1_555
C2J C7 1_555 1_555
H3J C2J 1_555 1_555
H4J C2J 1_555 1_555
N2J Cd1 1_555 1_555
C3J C6 1_555 1_555
H5J C3J 1_555 1_555
H6J C3J 1_555 1_555
C4J C5 1_555 1_555
H7J C4J 1_555 1_555
H8J C4J 1_555 1_555
N3J Cd1 1_555 1_555
C5J C4 1_555 1_555
H9J C5J 1_555 1_555
H10J C5J 1_555 1_555
C6J C3 1_555 1_555
H11J C6J 1_555 1_555
H12J C6J 1_555 1_555
N4J Cd1 1_555 1_555
C7J C2 1_555 1_555
H13J C7J 1_555 1_555
H14J C7J 1_555 1_555
C8J C1 1_555 1_555
H15J C8J 1_555 1_555
H16J C8J 1_555 1_555
H17J C9 1_555 1_555
C11J C10 1_555 1_555
H18J C11J 1_555 1_555
C12J C13 1_555 1_555
H19J C12J 1_555 1_555
O1J C14 1_555 1_555
C15J N4 1_555 1_555
H20J C15J 1_555 1_555
H21J C15J 1_555 1_555
C16J C15J 1_555 1_555
C17J C16J 1_555 1_555
H22J C17J 1_555 1_555
C18J C17J 1_555 1_555
H23J C18J 1_555 1_555
C19J C18J 1_555 1_555
C20J C19J 1_555 1_555
H24J C20J 1_555 1_555
C21J C16J 1_555 1_555
H25J C21J 1_555 1_555
C22J C19J 1_555 1_555
O2J C22J 1_555 1_555
O3J C22J 1_555 1_555
H26J C23 1_555 1_555
C25J C24 1_555 1_555
H27J C25J 1_555 1_555
C26J C27 1_555 1_555
H28J C26J 1_555 1_555
O4J C28 1_555 1_555
Cd1A O4 1_555 1_555
Cd2_2 O2J 1_555 1_555
Cd2E O1 1_555 1_555
O1E Cd2 1_555 1_555
O1O Cd2 1_555 1_555
O2J_2 Cd2 1_555 1_555
O3J_2 Cd2 1_555 1_555
O4A Cd1 1_555 1_555
O4K Cd1 1_555 1_555
C1 N1J 1_555 1_555
C2 C8J 1_555 1_555
N2 C7J 1_555 1_555
C3 N4J 1_555 1_555
C4 C6J 1_555 1_555
N3 C5J 1_555 1_555
C5 N3J 1_555 1_555
C6 C4J 1_555 1_555
N4 C3J 1_555 1_555
C7 C8 1_555 1_555
C7 N2J 1_555 1_555
C8 C1J 1_555 1_555
C8 C2J 1_555 1_555
C9 N1J 1_555 1_555
C15 N4J 1_555 1_555
C20 C21 1_555 1_555
C22 O3 1_555 1_555
C23 N3J 1_555 1_555
N1J C1J 1_555 1_555
N1J C8J 1_555 1_555
C1J C2J 1_555 1_555
N2J C3J 1_555 1_555
N2J C15J 1_555 1_555
C3J C4J 1_555 1_555
N3J C5J 1_555 1_555
C5J C6J 1_555 1_555
N4J C7J 1_555 1_555
C7J C8J 1_555 1_555
C11J C12J 1_555 1_555
O1J Cd2E 1_555 1_555
C20J C21J 1_555 1_555
O3J Cd2_2 1_555 1_555
C25J C26J 1_555 1_555
O4J Cd1A 1_555 1_555

#END
