
#######################################################################
#
#                 Cambridge Crystallographic Data Centre
#                                CCDC 
#
#######################################################################
#
# If this CIF has been generated from an entry in the Cambridge 
# Structural Database, then it will include bibliographic, chemical, 
# crystal, experimental, refinement or atomic coordinate data resulting 
# from the CCDC's data processing and validation procedures.
#
#######################################################################

data_MAFMOY
_chemical_formula_moiety         '(C20 H12 N6 O8 Zn3)n'
_symmetry_cell_setting           monoclinic
_symmetry_space_group_name_H-M   'P 21/c'
_symmetry_Int_Tables_number      14
_space_group_name_Hall           '-P 2ybc'
loop_
_symmetry_equiv_pos_site_id
_symmetry_equiv_pos_as_xyz
1 x,y,z
2 -x,1/2+y,1/2-z
3 -x,-y,-z
4 x,1/2-y,1/2+z
_cell_length_a                   8.6854(5)
_cell_length_b                   19.7877(8)
_cell_length_c                   7.9849(5)
_cell_angle_alpha                90
_cell_angle_beta                 113.775(7)
_cell_angle_gamma                90
_cell_volume                     1255.86
loop_
_atom_site_label
_atom_site_type_symbol
_atom_site_fract_x
_atom_site_fract_y
_atom_site_fract_z
Zn1 Zn 1.0000 0.5000 0.5000
Zn2 Zn 0.72176(6) 0.48055(2) 0.03582(8)
O1 O 0.9759(4) 0.04365(15) 0.2335(5)
O2 O 0.8116(4) 0.39021(14) 0.0772(4)
O3 O 0.9607(4) 0.40631(14) 0.3771(5)
O4 O 1.1902(4) 0.06845(15) 0.4959(5)
N1 N 0.2586(4) 0.47600(17) -0.3983(5)
N2 N 0.3639(4) 0.49175(17) -0.2294(5)
N3 N 0.5160(4) 0.46660(18) -0.1996(5)
C1 C 0.8419(5) 0.2484(2) 0.1436(6)
H1 H 0.7477 0.2621 0.0421
C2 C 0.8789(5) 0.18053(19) 0.1754(6)
H2 H 0.8079 0.1487 0.0958
C3 C 1.0873(5) 0.2751(2) 0.4138(6)
H3 H 1.1569 0.3070 0.4944
C4 C 1.1251(5) 0.2072(2) 0.4439(6)
H4 H 1.2206 0.1937 0.5440
C5 C 0.9038(5) 0.37001(19) 0.2377(6)
C6 C 1.0633(5) 0.0855(2) 0.3514(7)
C7 C 0.9456(5) 0.29607(19) 0.2633(6)
C8 C 1.0210(5) 0.15890(19) 0.3252(6)
C9 C 0.3405(5) 0.4414(3) -0.4769(7)
H5 H 0.2960 0.4244 -0.5956
C10 C 0.5051(5) 0.4349(3) -0.3506(7)
H6 H 0.5917 0.4126 -0.3682
Zn2B Zn 0.27824(6) 0.51945(2) -0.03582(8)
O1B O 0.0241(4) 0.95635(15) -0.2335(5)
O2B O 0.1884(4) 0.60979(14) -0.0772(4)
O3B O 0.0393(4) 0.59369(14) -0.3771(5)
O4B O -0.1902(4) 0.93155(15) -0.4959(5)
N1B N 0.7414(4) 0.52400(17) 0.3983(5)
N2B N 0.6361(4) 0.50825(17) 0.2294(5)
N3B N 0.4840(4) 0.53340(18) 0.1996(5)
C1B C 0.1581(5) 0.7516(2) -0.1436(6)
H1B H 0.2523 0.7379 -0.0421
C2B C 0.1211(5) 0.81947(19) -0.1754(6)
H2B H 0.1921 0.8513 -0.0958
C3B C -0.0873(5) 0.7249(2) -0.4138(6)
H3B H -0.1569 0.6930 -0.4944
C4B C -0.1251(5) 0.7928(2) -0.4439(6)
H4B H -0.2206 0.8063 -0.5440
C5B C 0.0962(5) 0.62999(19) -0.2377(6)
C6B C -0.0633(5) 0.9145(2) -0.3514(7)
C7B C 0.0544(5) 0.70393(19) -0.2633(6)
C8B C -0.0210(5) 0.84110(19) -0.3252(6)
C9B C 0.6595(5) 0.5586(3) 0.4769(7)
H5B H 0.7040 0.5756 0.5956
C10B C 0.4949(5) 0.5651(3) 0.3506(7)
H6B H 0.4083 0.5874 0.3682
Zn1_2 Zn 0.0000 0.5000 -0.5000
Zn1A Zn 0.0000 1.0000 0.0000
Zn1A_2 Zn 1.0000 0.0000 0.0000
Zn2A Zn 1.27824(6) -0.01945(2) 0.46418(8)
Zn2C Zn -0.27824(6) 1.01945(2) -0.46418(8)
O1A O 1.0241(4) 0.54365(15) 0.2665(5)
O1C O 0.9759(4) 0.45635(15) 0.7335(5)
O3B_2 O 1.0393(4) 0.59369(14) 0.6229(5)
O4A O 0.8098(4) 0.56845(15) 0.0041(5)
O4C O 0.1902(4) 0.43155(15) -0.0041(5)
N1_2 N 1.2586(4) 0.47600(17) 0.6017(5)
loop_
_geom_bond_atom_site_label_1
_geom_bond_atom_site_label_2
_geom_bond_site_symmetry_1
_geom_bond_site_symmetry_2
Zn1 O3 1_555 1_555
Zn2 O2 1_555 1_555
O1 C6 1_555 1_555
O2 C5 1_555 1_555
O3 C5 1_555 1_555
O4 C6 1_555 1_555
N1 N2 1_555 1_555
N2 N3 1_555 1_555
N3 Zn2 1_555 1_555
C1 H1 1_555 1_555
C2 C1 1_555 1_555
H2 C2 1_555 1_555
C3 H3 1_555 1_555
C4 C3 1_555 1_555
H4 C4 1_555 1_555
C5 C7 1_555 1_555
C6 C8 1_555 1_555
C7 C1 1_555 1_555
C8 C2 1_555 1_555
C9 N1 1_555 1_555
H5 C9 1_555 1_555
C10 N3 1_555 1_555
H6 C10 1_555 1_555
Zn2B N2 1_555 1_555
O1B C6B 1_555 1_555
O2B Zn2B 1_555 1_555
O3B C5B 1_555 1_555
O4B C6B 1_555 1_555
N1B Zn1 1_555 1_555
N2B Zn2 1_555 1_555
N3B Zn2B 1_555 1_555
C1B H1B 1_555 1_555
C2B C1B 1_555 1_555
H2B C2B 1_555 1_555
C3B H3B 1_555 1_555
C4B C3B 1_555 1_555
H4B C4B 1_555 1_555
C5B O2B 1_555 1_555
C6B C8B 1_555 1_555
C7B C1B 1_555 1_555
C8B C2B 1_555 1_555
C9B N1B 1_555 1_555
H5B C9B 1_555 1_555
C10B N3B 1_555 1_555
H6B C10B 1_555 1_555
Zn1_2 N1 1_555 1_555
Zn1A O1B 1_555 1_555
Zn1A_2 O1 1_555 1_555
Zn2A O4 1_555 1_555
Zn2C O4B 1_555 1_555
O1A Zn1 1_555 1_555
O1C Zn1 1_555 1_555
O3B_2 Zn1 1_555 1_555
O4A Zn2 1_555 1_555
O4C Zn2B 1_555 1_555
N1_2 Zn1 1_555 1_555
C3 C7 1_555 1_555
C4 C8 1_555 1_555
C9 C10 1_555 1_555
O3B Zn1_2 1_555 1_555
N1B N2B 1_555 1_555
N2B N3B 1_555 1_555
C3B C7B 1_555 1_555
C4B C8B 1_555 1_555
C5B C7B 1_555 1_555
C9B C10B 1_555 1_555

#END
