
#######################################################################
#
#                 Cambridge Crystallographic Data Centre
#                                CCDC 
#
#######################################################################
#
# If this CIF has been generated from an entry in the Cambridge 
# Structural Database, then it will include bibliographic, chemical, 
# crystal, experimental, refinement or atomic coordinate data resulting 
# from the CCDC's data processing and validation procedures.
#
#######################################################################

data_MAFMIS
_chemical_formula_moiety         '(C20 H12 N6 O8 Zn3)n'
_symmetry_cell_setting           monoclinic
_symmetry_space_group_name_H-M   'C 2/m'
_symmetry_Int_Tables_number      12
_space_group_name_Hall           '-C 2y'
loop_
_symmetry_equiv_pos_site_id
_symmetry_equiv_pos_as_xyz
1 x,y,z
2 -x,y,-z
3 1/2+x,1/2+y,z
4 1/2-x,1/2+y,-z
5 -x,-y,-z
6 x,-y,z
7 1/2-x,1/2-y,-z
8 1/2+x,1/2-y,z
_cell_length_a                   12.1742(4)
_cell_length_b                   18.9858(5)
_cell_length_c                   9.1980(3)
_cell_angle_alpha                90
_cell_angle_beta                 108.810(4)
_cell_angle_gamma                90
_cell_volume                     2012.45
loop_
_atom_site_label
_atom_site_type_symbol
_atom_site_fract_x
_atom_site_fract_y
_atom_site_fract_z
Zn1 Zn 0.5000 0.0000 0.0000
Zn2 Zn 0.38367(3) 0.0000 0.31148(3)
O1 O 0.31199(14) 0.08656(8) 0.21823(18)
O2 O 0.39177(18) 0.07976(9) 0.03411(19)
N1 N 0.55573(16) -0.0000 0.3467(2)
N2 N 0.6392(2) 0.0000 0.4810(2)
N3 N 0.6001(2) -0.0000 0.2333(2)
C1 C 0.3155(3) 0.21344(13) -0.0715(3)
H1 H 0.3598 0.1890 -0.1203
C2 C 0.2248(2) 0.21986(13) 0.1212(3)
H2 H 0.2075 0.1998 0.2035
C3 C 0.29029(19) 0.18292(11) 0.0499(2)
C4 C 0.33518(18) 0.11054(10) 0.1033(2)
C5 C 0.7392(3) -0.0000 0.4516(4)
H3 H 0.8128 -0.0000 0.5244
C6 C 0.7155(3) 0.0000 0.2979(4)
H4 H 0.7697 0.0000 0.2462
O1F O 0.18801(14) 0.41344(8) -0.21823(18)
O2F O 0.10823(18) 0.42024(9) -0.03411(19)
C1F C 0.1845(3) 0.28656(13) 0.0715(3)
H1F H 0.1402 0.3110 0.1203
C2F C 0.2752(2) 0.28014(13) -0.1212(3)
H2F H 0.2925 0.3002 -0.2035
C3F C 0.20971(19) 0.31708(11) -0.0499(2)
C4F C 0.16482(18) 0.38946(10) -0.1033(2)
Zn2A Zn 0.61633(3) -0.0000 -0.31148(3)
O1A O 0.68801(14) 0.08656(8) -0.21823(18)
O2A O 0.60823(18) 0.07976(9) -0.03411(19)
N1A N 0.44427(16) 0.0000 -0.3467(2)
N2A N 0.3608(2) 0.0000 -0.4810(2)
N3A N 0.3999(2) 0.0000 -0.2333(2)
C1A C 0.6845(3) 0.21344(13) 0.0715(3)
H1A H 0.6402 0.1890 0.1203
C2A C 0.7752(2) 0.21986(13) -0.1212(3)
H2A H 0.7925 0.1998 -0.2035
C3A C 0.70971(19) 0.18292(11) -0.0499(2)
C4A C 0.66482(18) 0.11054(10) -0.1033(2)
C5A C 0.2608(3) 0.0000 -0.4516(4)
H3A H 0.1872 0.0000 -0.5244
C6A C 0.2845(3) 0.0000 -0.2979(4)
H4A H 0.2303 0.0000 -0.2462
O1G O 0.81199(14) 0.41344(8) 0.21823(18)
O2G O 0.89177(18) 0.42024(9) 0.03411(19)
C1G C 0.8155(3) 0.28656(13) -0.0715(3)
H1G H 0.8598 0.3110 -0.1203
C2G C 0.7248(2) 0.28014(13) 0.1212(3)
H2G H 0.7075 0.3002 0.2035
C3G C 0.79029(19) 0.31708(11) 0.0499(2)
C4G C 0.83518(18) 0.38946(10) 0.1033(2)
Zn1B Zn 0.0000 0.5000 0.0000
Zn1B_2 Zn 1.0000 0.5000 0.0000
Zn2_2 Zn 0.38367(3) 0.0000 -0.68852(3)
Zn2A_2 Zn 0.61633(3) 0.0000 0.68852(3)
Zn2B Zn 0.88367(3) 0.5000 0.31148(3)
Zn2C Zn 0.11633(3) 0.5000 -0.31148(3)
O1D O 0.68801(14) -0.08656(8) -0.21823(18)
O1E O 0.31199(14) -0.08656(8) 0.21823(18)
O2D O 0.60823(18) -0.07976(9) -0.03411(19)
O2E O 0.39177(18) -0.07976(9) 0.03411(19)
N2_2 N 0.6392(2) 0.0000 -0.5190(2)
N2A_2 N 0.3608(2) 0.0000 0.5190(2)
loop_
_geom_bond_atom_site_label_1
_geom_bond_atom_site_label_2
_geom_bond_site_symmetry_1
_geom_bond_site_symmetry_2
Zn1 O2 1_555 1_555
Zn2 O1 1_555 1_555
O1 C4 1_555 1_555
O2 C4 1_555 1_555
N1 Zn2 1_555 1_555
N2 N1 1_555 1_555
N3 Zn1 1_555 1_555
C1 H1 1_555 1_555
C2 H2 1_555 1_555
C3 C1 1_555 1_555
C4 C3 1_555 1_555
C5 N2 1_555 1_555
H3 C5 1_555 1_555
C6 N3 1_555 1_555
H4 C6 1_555 1_555
O1F C4F 1_555 1_555
O2F C4F 1_555 1_555
C1F C2 1_555 1_555
H1F C1F 1_555 1_555
C2F C1 1_555 1_555
H2F C2F 1_555 1_555
C3F C1F 1_555 1_555
C4F C3F 1_555 1_555
Zn2A O1A 1_555 1_555
O1A C4A 1_555 1_555
O2A Zn1 1_555 1_555
N1A Zn2A 1_555 1_555
N2A N1A 1_555 1_555
N3A Zn1 1_555 1_555
C1A H1A 1_555 1_555
C2A H2A 1_555 1_555
C3A C1A 1_555 1_555
C4A O2A 1_555 1_555
C5A N2A 1_555 1_555
H3A C5A 1_555 1_555
C6A N3A 1_555 1_555
H4A C6A 1_555 1_555
O1G C4G 1_555 1_555
O2G C4G 1_555 1_555
C1G C2A 1_555 1_555
H1G C1G 1_555 1_555
C2G C1A 1_555 1_555
H2G C2G 1_555 1_555
C3G C1G 1_555 1_555
C4G C3G 1_555 1_555
Zn1B O2F 1_555 1_555
Zn1B_2 O2G 1_555 1_555
Zn2_2 N2A 1_555 1_555
Zn2A_2 N2 1_555 1_555
Zn2B O1G 1_555 1_555
Zn2C O1F 1_555 1_555
O1D Zn2A 1_555 1_555
O1E Zn2 1_555 1_555
O2D Zn1 1_555 1_555
O2E Zn1 1_555 1_555
N2_2 Zn2A 1_555 1_555
N2A_2 Zn2 1_555 1_555
N1 N3 1_555 1_555
C2 C3 1_555 1_555
C5 C6 1_555 1_555
C2F C3F 1_555 1_555
N1A N3A 1_555 1_555
C2A C3A 1_555 1_555
C3A C4A 1_555 1_555
C5A C6A 1_555 1_555
C2G C3G 1_555 1_555

#END
