
#######################################################################
#
#                 Cambridge Crystallographic Data Centre
#                                CCDC 
#
#######################################################################
#
# If this CIF has been generated from an entry in the Cambridge 
# Structural Database, then it will include bibliographic, chemical, 
# crystal, experimental, refinement or atomic coordinate data resulting 
# from the CCDC's data processing and validation procedures.
#
#######################################################################

data_DEYLUQ
_chemical_formula_moiety         '(C92 H52 Br16 Cd4 N24 O18)n'
_symmetry_cell_setting           triclinic
_symmetry_space_group_name_H-M   'P -1'
_symmetry_Int_Tables_number      2
_space_group_name_Hall           '-P 1'
loop_
_symmetry_equiv_pos_site_id
_symmetry_equiv_pos_as_xyz
1 x,y,z
2 -x,-y,-z
_cell_length_a                   13.5703(10)
_cell_length_b                   14.4080(11)
_cell_length_c                   19.4879(15)
_cell_angle_alpha                93.9370(10)
_cell_angle_beta                 109.8560(10)
_cell_angle_gamma                93.5050(10)
_cell_volume                     3560.8
loop_
_atom_site_label
_atom_site_type_symbol
_atom_site_fract_x
_atom_site_fract_y
_atom_site_fract_z
Cd1 Cd 1.05790(4) 0.54529(4) 0.79859(3)
Cd2 Cd 0.52834(5) 1.11492(4) 0.40842(3)
C1 C 0.8819(7) 0.5829(6) 0.8750(5)
H1 H 0.8279 0.5659 0.8306
C2 C 1.0337(7) 0.6006(8) 0.9605(5)
H2 H 1.1051 0.5972 0.9855
C3 C 0.9665(7) 0.6399(8) 0.9917(5)
H3 H 0.9828 0.6680 1.0392
C4 C 0.7740(6) 0.6674(6) 0.9375(5)
C5 C 0.7532(6) 0.6729(6) 1.0044(4)
H4 H 0.7980 0.6496 1.0459
C6 C 0.6620(6) 0.7151(6) 1.0059(4)
C7 C 0.5919(6) 0.7466(6) 0.9422(5)
H5 H 0.5319 0.7733 0.9437
C8 C 0.6126(6) 0.7378(6) 0.8768(5)
C9 C 0.7038(6) 0.6977(6) 0.8738(5)
H6 H 0.7170 0.6916 0.8300
C10 C 0.5645(7) 0.8116(6) 0.7561(4)
H7 H 0.6327 0.8244 0.7565
C11 C 0.4301(6) 0.7634(7) 0.7900(5)
H8 H 0.3898 0.7400 0.8162
C12 C 0.3931(7) 0.7994(7) 0.7228(5)
H9 H 0.3224 0.8018 0.6952
C13 C 0.7086(8) 0.7108(8) 1.1423(5)
H10 H 0.7742 0.6887 1.1504
C14 C 0.5710(9) 0.7598(9) 1.1573(6)
H11 H 0.5236 0.7798 1.1789
C15 C 0.5534(9) 0.7547(10) 1.0854(6)
H12 H 0.4922 0.7683 1.0493
C16 C 0.8851(7) 0.5999(7) 0.6429(5)
H13 H 0.9087 0.5522 0.6196
C17 C 0.8664(7) 0.6982(6) 0.7270(5)
H14 H 0.8757 0.7302 0.7722
C18 C 0.7987(7) 0.7186(6) 0.6595(5)
H15 H 0.7530 0.7655 0.6518
C19 C 0.7652(7) 0.4308(6) 0.3619(5)
H16 H 0.7335 0.3991 0.3901
C20 C 0.8116(7) 0.3937(6) 0.3163(5)
H17 H 0.8168 0.3301 0.3081
C21 C 0.8268(6) 0.5445(6) 0.3097(4)
H18 H 0.8433 0.6031 0.2972
C22 C 0.7532(6) 0.6010(6) 0.4037(4)
C23 C 0.7774(6) 0.5879(6) 0.4800(4)
H19 H 0.7964 0.5309 0.4977
C24 C 0.7713(6) 0.6638(6) 0.5263(4)
C25 C 0.7379(6) 0.7504(6) 0.5009(4)
H20 H 0.7348 0.8003 0.5328
C26 C 0.7094(6) 0.7575(6) 0.4241(4)
C27 C 0.7165(6) 0.6836(6) 0.3765(4)
H21 H 0.6966 0.6896 0.3265
C28 C 0.6284(7) 0.9116(7) 0.4270(5)
H22 H 0.6103 0.9043 0.4684
C29 C 0.6885(7) 0.8838(6) 0.3374(5)
H23 H 0.7187 0.8557 0.3060
C30 C 0.6498(7) 0.9691(6) 0.3312(5)
H24 H 0.6487 1.0084 0.2951
C31 C 0.5351(7) 1.3066(6) 0.4590(5)
C32 C 0.5173(7) 1.4063(6) 0.4801(5)
C33 C 0.4820(7) 1.4703(6) 0.4263(5)
C34 C 0.4656(7) 1.5634(6) 0.4460(5)
C35 C 1.3017(7) 0.5808(7) 0.9147(5)
C36 C 1.4045(5) 0.5372(6) 0.9594(4)
C37 C 1.4722(6) 0.5070(6) 0.9247(4)
C38 C 1.5668(6) 0.4692(6) 0.9648(5)
C39 C 0.9791(8) 0.3331(8) 0.7654(7)
C40 C 0.9038(6) 0.2465(6) 0.7315(5)
C41 C 0.8150(7) 0.2304(6) 0.7511(5)
C42 C 0.7272(16) 0.1618(15) 0.7021(12)
C43 C 0.7316(12) 0.1118(11) 0.6430(10)
C44 C 0.8315(16) 0.1234(14) 0.6269(12)
C45 C 0.9223(8) 0.1813(8) 0.6805(7)
C46 C 0.6409(11) 0.0438(9) 0.5914(8)
N1 N 0.9828(5) 0.5670(5) 0.8881(4)
N2 N 0.8683(5) 0.6278(5) 0.9356(4)
N3 N 0.6416(5) 0.7258(5) 1.0743(4)
N4 N 0.6700(7) 0.7312(6) 1.1961(4)
N5 N 0.5396(5) 0.7691(5) 0.8110(4)
N6 N 0.4775(5) 0.8318(5) 0.7024(4)
N7 N 0.9189(6) 0.6200(5) 0.7150(4)
N8 N 0.8108(5) 0.6577(5) 0.6062(3)
N9 N 0.7754(5) 0.5283(4) 0.3575(3)
N10 N 0.8506(5) 0.4625(4) 0.2830(3)
N11 N 0.6763(5) 0.8456(5) 0.3968(4)
N12 N 0.6115(6) 0.9869(5) 0.3895(4)
O1 O 1.2190(4) 0.5274(4) 0.8921(3)
O2 O 1.1220(5) 0.7169(5) 0.8284(4)
H25 H 1.0852 0.7440 0.8500
H26 H 1.1862 0.7226 0.8561
O3 O 1.3126(5) 0.6679(5) 0.9102(4)
O4 O 0.9599(7) 0.4041(5) 0.7297(6)
O5 O 1.0493(6) 0.3280(7) 0.8279(5)
O6 O 0.4563(5) 1.2464(4) 0.4393(4)
O7 O 0.6263(5) 1.2891(5) 0.4612(4)
O8 O 0.6327(5) -0.0337(5) 0.6131(4)
O9 O 0.5922(9) 0.0842(9) 0.5339(7)
Br1 Br 0.46257(10) 1.42973(8) 0.32622(6)
Br2 Br 0.42159(10) 1.65020(8) 0.37358(6)
Br3 Br 1.43528(7) 0.51498(7) 0.82020(5)
Br4 Br 1.65911(7) 0.42373(8) 0.91599(5)
Br5 Br 1.04481(9) 0.20150(9) 0.65475(9)
Br6 Br 0.8438(2) 0.0412(3) 0.5487(2)
Br7 Br 0.79206(9) 0.31693(9) 0.82032(7)
Br8 Br 0.6036(3) 0.1404(3) 0.72929(16)
C31A C 0.4649(7) 1.6934(6) 0.5410(5)
C32A C 0.4827(7) 1.5937(6) 0.5199(5)
C33A C 0.5180(7) 1.5297(6) 0.5737(5)
C34A C 0.5344(7) 1.4366(6) 0.5540(5)
O6A O 0.5437(5) 1.7536(4) 0.5607(4)
O7A O 0.3737(5) 1.7109(5) 0.5388(4)
Br1A Br 0.53743(10) 1.57027(8) 0.67378(6)
Br2A Br 0.57841(10) 1.34980(8) 0.62642(6)
C35A C 1.6983(7) 0.4192(7) 1.0853(5)
C36A C 1.5955(5) 0.4628(6) 1.0406(4)
C37A C 1.5278(6) 0.4930(6) 1.0753(4)
C38A C 1.4332(6) 0.5308(6) 1.0352(5)
O1A O 1.7810(4) 0.4726(4) 1.1079(3)
O3A O 1.6874(5) 0.3321(5) 1.0898(4)
Br3A Br 1.56472(7) 0.48502(7) 1.17980(5)
Br4A Br 1.34089(7) 0.57627(8) 1.08401(5)
Cd1A Cd -0.05790(4) 0.45471(4) 0.20141(3)
Cd2A Cd 0.47166(5) -0.11492(4) 0.59158(3)
C1A C 0.1181(7) 0.4171(6) 0.1250(5)
H1A H 0.1721 0.4341 0.1694
C2A C -0.0337(7) 0.3994(8) 0.0395(5)
H2A H -0.1051 0.4028 0.0145
C3A C 0.0335(7) 0.3601(8) 0.0083(5)
H3A H 0.0172 0.3320 -0.0392
C4A C 0.2260(6) 0.3326(6) 0.0625(5)
C5A C 0.2468(6) 0.3271(6) -0.0044(4)
H4A H 0.2020 0.3504 -0.0459
C6A C 0.3380(6) 0.2849(6) -0.0059(4)
C7A C 0.4081(6) 0.2534(6) 0.0578(5)
H5A H 0.4681 0.2267 0.0563
C8A C 0.3874(6) 0.2622(6) 0.1232(5)
C9A C 0.2962(6) 0.3023(6) 0.1262(5)
H6A H 0.2830 0.3084 0.1700
C10A C 0.4355(7) 0.1884(6) 0.2439(4)
H7A H 0.3673 0.1756 0.2435
C11A C 0.5699(6) 0.2366(7) 0.2100(5)
H8A H 0.6102 0.2600 0.1838
C12A C 0.6069(7) 0.2006(7) 0.2772(5)
H9A H 0.6776 0.1982 0.3048
C13A C 0.2914(8) 0.2892(8) -0.1423(5)
H10A H 0.2258 0.3113 -0.1504
C14A C 0.4290(9) 0.2402(9) -0.1573(6)
H11A H 0.4764 0.2202 -0.1789
C15A C 0.4466(9) 0.2453(10) -0.0854(6)
H12A H 0.5078 0.2317 -0.0493
C16A C 0.1149(7) 0.4001(7) 0.3571(5)
H13A H 0.0913 0.4478 0.3804
C17A C 0.1336(7) 0.3018(6) 0.2730(5)
H14A H 0.1243 0.2698 0.2278
C18A C 0.2013(7) 0.2814(6) 0.3405(5)
H15A H 0.2470 0.2345 0.3482
C19A C 0.2348(7) 0.5692(6) 0.6381(5)
H16A H 0.2665 0.6009 0.6099
C20A C 0.1884(7) 0.6063(6) 0.6837(5)
H17A H 0.1832 0.6699 0.6919
C21A C 0.1732(6) 0.4555(6) 0.6903(4)
H18A H 0.1567 0.3969 0.7028
C22A C 0.2468(6) 0.3990(6) 0.5963(4)
C23A C 0.2226(6) 0.4121(6) 0.5200(4)
H19A H 0.2036 0.4691 0.5023
C24A C 0.2287(6) 0.3362(6) 0.4737(4)
C25A C 0.2621(6) 0.2496(6) 0.4991(4)
H20A H 0.2652 0.1997 0.4672
C26A C 0.2906(6) 0.2425(6) 0.5759(4)
C27A C 0.2835(6) 0.3164(6) 0.6235(4)
H21A H 0.3034 0.3104 0.6735
C28A C 0.3716(7) 0.0884(7) 0.5730(5)
H22A H 0.3897 0.0957 0.5316
C29A C 0.3115(7) 0.1162(6) 0.6626(5)
H23A H 0.2813 0.1443 0.6940
C30A C 0.3502(7) 0.0309(6) 0.6688(5)
H24A H 0.3513 -0.0084 0.7049
C39A C 0.0209(8) 0.6669(8) 0.2346(7)
C40A C 0.0962(6) 0.7535(6) 0.2685(5)
C41A C 0.1850(7) 0.7696(6) 0.2489(5)
C42A C 0.2728(16) 0.8382(15) 0.2979(12)
C43A C 0.2684(12) 0.8882(11) 0.3570(10)
C44A C 0.1685(16) 0.8766(14) 0.3731(12)
C45A C 0.0777(8) 0.8187(8) 0.3195(7)
C46A C 0.3591(11) 0.9562(9) 0.4086(8)
N1A N 0.0172(5) 0.4330(5) 0.1119(4)
N2A N 0.1317(5) 0.3722(5) 0.0644(4)
N3A N 0.3584(5) 0.2742(5) -0.0743(4)
N4A N 0.3300(7) 0.2688(6) -0.1961(4)
N5A N 0.4604(5) 0.2309(5) 0.1890(4)
N6A N 0.5225(5) 0.1682(5) 0.2976(4)
N7A N 0.0811(6) 0.3800(5) 0.2850(4)
N8A N 0.1892(5) 0.3423(5) 0.3938(3)
N9A N 0.2246(5) 0.4717(4) 0.6425(3)
N10A N 0.1494(5) 0.5375(4) 0.7170(3)
N11A N 0.3237(5) 0.1544(5) 0.6032(4)
N12A N 0.3885(6) 0.0131(5) 0.6105(4)
O2A O -0.1220(5) 0.2831(5) 0.1716(4)
H25A H -0.0852 0.2560 0.1500
H26A H -0.1862 0.2774 0.1439
O4A O 0.0401(7) 0.5959(5) 0.2703(6)
O5A O -0.0493(6) 0.6720(7) 0.1721(5)
O8A O 0.3673(5) 1.0337(5) 0.3869(4)
O9A O 0.4078(9) 0.9158(9) 0.4661(7)
Br5A Br -0.04481(9) 0.79850(9) 0.34525(9)
Br6A Br 0.1562(2) 0.9588(3) 0.4513(2)
Br7A Br 0.20794(9) 0.68307(9) 0.17968(7)
Br8A Br 0.3964(3) 0.8596(3) 0.27071(16)
Cd1_2 Cd 0.05790(4) 0.54529(4) 0.79859(3)
Cd1A_2 Cd 0.94210(4) 0.45471(4) 0.20141(3)
Cd1A_3 Cd 1.94210(4) 0.45471(4) 1.20141(3)
Cd2_2 Cd 0.52834(5) 0.11492(4) 0.40842(3)
Cd2A_2 Cd 0.47166(5) 0.88508(4) 0.59158(3)
Cd2A_3 Cd 0.47166(5) 1.88508(4) 0.59158(3)
N6_2 N 0.4775(5) -0.1682(5) 0.7024(4)
N6A_2 N 0.5225(5) 1.1682(5) 0.2976(4)
N10_2 N -0.1494(5) 0.4625(4) 0.2830(3)
N10A_2 N 1.1494(5) 0.5375(4) 0.7170(3)
O1A_2 O -0.2190(4) 0.4726(4) 0.1079(3)
O6A_2 O 0.5437(5) -0.2464(4) 0.5607(4)
O7A_2 O 0.3737(5) -0.2891(5) 0.5388(4)
O9_2 O 0.5922(9) 1.0842(9) 0.5339(7)
O9A_2 O 0.4078(9) -0.0842(9) 0.4661(7)
loop_
_geom_bond_atom_site_label_1
_geom_bond_atom_site_label_2
_geom_bond_site_symmetry_1
_geom_bond_site_symmetry_2
Cd1 N1 1_555 1_555
Cd2 N12 1_555 1_555
C1 H1 1_555 1_555
C2 H2 1_555 1_555
C3 C2 1_555 1_555
H3 C3 1_555 1_555
C4 C5 1_555 1_555
C5 H4 1_555 1_555
C6 C5 1_555 1_555
C7 C6 1_555 1_555
H5 C7 1_555 1_555
C8 C7 1_555 1_555
C9 C4 1_555 1_555
H6 C9 1_555 1_555
C10 H7 1_555 1_555
C11 H8 1_555 1_555
C12 C11 1_555 1_555
H9 C12 1_555 1_555
C13 H10 1_555 1_555
C14 H11 1_555 1_555
C15 C14 1_555 1_555
H12 C15 1_555 1_555
C16 H13 1_555 1_555
C17 H14 1_555 1_555
C18 C17 1_555 1_555
H15 C18 1_555 1_555
C19 H16 1_555 1_555
C20 C19 1_555 1_555
H17 C20 1_555 1_555
C21 H18 1_555 1_555
C22 C23 1_555 1_555
C23 H19 1_555 1_555
C24 C23 1_555 1_555
C25 C24 1_555 1_555
H20 C25 1_555 1_555
C26 C25 1_555 1_555
C27 C22 1_555 1_555
H21 C27 1_555 1_555
C28 H22 1_555 1_555
C29 H23 1_555 1_555
C30 C29 1_555 1_555
H24 C30 1_555 1_555
C31 C32 1_555 1_555
C32 C33 1_555 1_555
C33 C34 1_555 1_555
C34 Br2 1_555 1_555
C35 C36 1_555 1_555
C36 C37 1_555 1_555
C37 C38 1_555 1_555
C38 Br4 1_555 1_555
C39 C40 1_555 1_555
C40 C41 1_555 1_555
C41 C42 1_555 1_555
C42 C43 1_555 1_555
C43 C44 1_555 1_555
C44 C45 1_555 1_555
C45 C40 1_555 1_555
C46 C43 1_555 1_555
N1 C1 1_555 1_555
N2 C1 1_555 1_555
N3 C6 1_555 1_555
N4 C13 1_555 1_555
N5 C8 1_555 1_555
N6 C10 1_555 1_555
N7 Cd1 1_555 1_555
N8 C16 1_555 1_555
N9 C19 1_555 1_555
N10 C20 1_555 1_555
N11 C26 1_555 1_555
N12 C28 1_555 1_555
O1 Cd1 1_555 1_555
O2 Cd1 1_555 1_555
H25 O2 1_555 1_555
H26 O2 1_555 1_555
O3 C35 1_555 1_555
O4 Cd1 1_555 1_555
O5 C39 1_555 1_555
O6 Cd2 1_555 1_555
O7 Cd2 1_555 1_555
O8 C46 1_555 1_555
O9 C46 1_555 1_555
Br1 C33 1_555 1_555
Br3 C37 1_555 1_555
Br5 C45 1_555 1_555
Br6 C44 1_555 1_555
Br7 C41 1_555 1_555
Br8 C42 1_555 1_555
C31A C32A 1_555 1_555
C32A C34 1_555 1_555
C33A C32A 1_555 1_555
C34A C32 1_555 1_555
O6A C31A 1_555 1_555
O7A C31A 1_555 1_555
Br1A C33A 1_555 1_555
Br2A C34A 1_555 1_555
C35A C36A 1_555 1_555
C36A C38 1_555 1_555
C37A C36A 1_555 1_555
C38A C36 1_555 1_555
O1A C35A 1_555 1_555
O3A C35A 1_555 1_555
Br3A C37A 1_555 1_555
Br4A C38A 1_555 1_555
Cd1A N1A 1_555 1_555
Cd2A O8 1_555 1_555
C1A H1A 1_555 1_555
C2A H2A 1_555 1_555
C3A C2A 1_555 1_555
H3A C3A 1_555 1_555
C4A C5A 1_555 1_555
C5A H4A 1_555 1_555
C6A C5A 1_555 1_555
C7A C6A 1_555 1_555
H5A C7A 1_555 1_555
C8A C7A 1_555 1_555
C9A C4A 1_555 1_555
H6A C9A 1_555 1_555
C10A H7A 1_555 1_555
C11A H8A 1_555 1_555
C12A C11A 1_555 1_555
H9A C12A 1_555 1_555
C13A H10A 1_555 1_555
C14A H11A 1_555 1_555
C15A C14A 1_555 1_555
H12A C15A 1_555 1_555
C16A H13A 1_555 1_555
C17A H14A 1_555 1_555
C18A C17A 1_555 1_555
H15A C18A 1_555 1_555
C19A H16A 1_555 1_555
C20A C19A 1_555 1_555
H17A C20A 1_555 1_555
C21A H18A 1_555 1_555
C22A C23A 1_555 1_555
C23A H19A 1_555 1_555
C24A C23A 1_555 1_555
C25A C24A 1_555 1_555
H20A C25A 1_555 1_555
C26A C25A 1_555 1_555
C27A C22A 1_555 1_555
H21A C27A 1_555 1_555
C28A H22A 1_555 1_555
C29A H23A 1_555 1_555
C30A C29A 1_555 1_555
H24A C30A 1_555 1_555
C39A C40A 1_555 1_555
C40A C41A 1_555 1_555
C41A C42A 1_555 1_555
C42A C43A 1_555 1_555
C43A C44A 1_555 1_555
C44A C45A 1_555 1_555
C45A C40A 1_555 1_555
C46A C43A 1_555 1_555
N1A C1A 1_555 1_555
N2A C1A 1_555 1_555
N3A C6A 1_555 1_555
N4A C13A 1_555 1_555
N5A C8A 1_555 1_555
N6A C10A 1_555 1_555
N7A Cd1A 1_555 1_555
N8A C16A 1_555 1_555
N9A C19A 1_555 1_555
N10A C20A 1_555 1_555
N11A C26A 1_555 1_555
N12A Cd2A 1_555 1_555
O2A Cd1A 1_555 1_555
H25A O2A 1_555 1_555
H26A O2A 1_555 1_555
O4A Cd1A 1_555 1_555
O5A C39A 1_555 1_555
O8A Cd2 1_555 1_555
O9A C46A 1_555 1_555
Br5A C45A 1_555 1_555
Br6A C44A 1_555 1_555
Br7A C41A 1_555 1_555
Br8A C42A 1_555 1_555
Cd1_2 N10A 1_555 1_555
Cd1A_2 N10 1_555 1_555
Cd1A_3 O1A 1_555 1_555
Cd2_2 O9 1_555 1_555
Cd2A_2 N6 1_555 1_555
Cd2A_3 O6A 1_555 1_555
N6_2 Cd2A 1_555 1_555
N6A_2 Cd2 1_555 1_555
N10_2 Cd1A 1_555 1_555
N10A_2 Cd1 1_555 1_555
O1A_2 Cd1A 1_555 1_555
O6A_2 Cd2A 1_555 1_555
O7A_2 Cd2A 1_555 1_555
O9_2 Cd2 1_555 1_555
O9A_2 Cd2A 1_555 1_555
C2 N1 1_555 1_555
C3 N2 1_555 1_555
C4 N2 1_555 1_555
C8 C9 1_555 1_555
C10 N5 1_555 1_555
C11 N5 1_555 1_555
C12 N6 1_555 1_555
C13 N3 1_555 1_555
C14 N4 1_555 1_555
C15 N3 1_555 1_555
C16 N7 1_555 1_555
C17 N7 1_555 1_555
C18 N8 1_555 1_555
C21 N9 1_555 1_555
C21 N10 1_555 1_555
C22 N9 1_555 1_555
C24 N8 1_555 1_555
C26 C27 1_555 1_555
C28 N11 1_555 1_555
C29 N11 1_555 1_555
C30 N12 1_555 1_555
C31 O6 1_555 1_555
C31 O7 1_555 1_555
C35 O1 1_555 1_555
C39 O4 1_555 1_555
C33A C34A 1_555 1_555
O7A Cd2A_3 1_555 1_555
C37A C38A 1_555 1_555
C2A N1A 1_555 1_555
C3A N2A 1_555 1_555
C4A N2A 1_555 1_555
C8A C9A 1_555 1_555
C10A N5A 1_555 1_555
C11A N5A 1_555 1_555
C12A N6A 1_555 1_555
C13A N3A 1_555 1_555
C14A N4A 1_555 1_555
C15A N3A 1_555 1_555
C16A N7A 1_555 1_555
C17A N7A 1_555 1_555
C18A N8A 1_555 1_555
C21A N9A 1_555 1_555
C21A N10A 1_555 1_555
C22A N9A 1_555 1_555
C24A N8A 1_555 1_555
C26A C27A 1_555 1_555
C28A N11A 1_555 1_555
C28A N12A 1_555 1_555
C29A N11A 1_555 1_555
C30A N12A 1_555 1_555
C39A O4A 1_555 1_555
C46A O8A 1_555 1_555
N6A Cd2_2 1_555 1_555
O9A Cd2A_2 1_555 1_555

#END
