
#######################################################################
#
#                 Cambridge Crystallographic Data Centre
#                                CCDC 
#
#######################################################################
#
# If this CIF has been generated from an entry in the Cambridge 
# Structural Database, then it will include bibliographic, chemical, 
# crystal, experimental, refinement or atomic coordinate data resulting 
# from the CCDC's data processing and validation procedures.
#
#######################################################################

data_GUBBAG
_chemical_formula_moiety         'C35 H20 Cd4 N16 O1 2+'
_symmetry_cell_setting           monoclinic
_symmetry_space_group_name_H-M   'P 21/n'
_symmetry_Int_Tables_number      14
_space_group_name_Hall           '-P 2yn'
loop_
_symmetry_equiv_pos_site_id
_symmetry_equiv_pos_as_xyz
1 x,y,z
2 1/2-x,1/2+y,1/2-z
3 -x,-y,-z
4 1/2+x,1/2-y,1/2+z
_cell_length_a                   8.166(5)
_cell_length_b                   22.154(6)
_cell_length_c                   18.475(7)
_cell_angle_alpha                90
_cell_angle_beta                 98.70(5)
_cell_angle_gamma                90
_cell_volume                     3303.85
loop_
_atom_site_label
_atom_site_type_symbol
_atom_site_fract_x
_atom_site_fract_y
_atom_site_fract_z
C11 C 0.046(1) 0.1178(4) 0.2333(5)
C12 C 0.0059(9) 0.1750(4) 0.2561(4)
C13 C 0.0242(9) 0.1872(3) 0.3309(4)
C14 C 0.081(1) 0.1420(4) 0.3811(5)
C15 C 0.118(1) 0.0864(4) 0.3546(5)
C16 C -0.125(1) 0.3481(4) 0.3335(4)
C17 C -0.114(1) 0.2879(4) 0.3123(4)
C18 C -0.0059(9) 0.2490(3) 0.3566(4)
C19 C 0.083(1) 0.2712(4) 0.4223(4)
C20 C 0.065(1) 0.3313(4) 0.4399(5)
C21 C 0.149(2) 0.0148(4) 0.2559(7)
C22 C -0.045(1) 0.4339(4) 0.4147(6)
N9 N 0.1022(9) 0.0761(3) 0.2819(4)
N10 N -0.0347(8) 0.3686(3) 0.3959(4)
C23 C 0.558(2) 0.2371(6) 0.4380(6)
C24 C 0.628(2) 0.2692(5) 0.4965(7)
C25 C 0.747(2) 0.2440(9) 0.5454(7)
C26 C 0.799(2) 0.184(1) 0.5350(9)
C27 C 0.721(2) 0.1524(5) 0.4741(9)
C28 C 0.601(2) 0.1803(6) 0.4266(6)
Cd1 Cd 0.00000 0.00000 0.00000
Cd2 Cd -0.44087(6) 0.12350(2) 0.16896(3)
Cd3 Cd -0.28953(6) -0.04100(2) 0.40147(2)
Cd4 Cd -0.15148(6) 0.15978(2) -0.24252(3)
C1 C -0.0546(8) -0.0079(3) 0.4802(4)
C2 C -0.4617(9) -0.0086(4) 0.4792(4)
C3 C -0.090(1) 0.1126(3) -0.1339(4)
N1 N -0.057(1) 0.0815(3) -0.0887(4)
C4 C -0.182(1) 0.0470(5) 0.0704(5)
N2 N -0.243(1) 0.0636(4) 0.0913(6)
C5 C -0.6655(9) 0.0830(3) 0.1022(4)
N3 N 0.2283(8) 0.0587(3) 0.0692(4)
C6 C -0.3497(9) 0.0699(3) 0.2682(4)
N4 N -0.3136(9) 0.0388(3) 0.3175(4)
C7 C 0.0388(9) 0.1191(4) -0.3031(4)
N5 N -0.1241(8) -0.0948(3) 0.3329(4)
C8 C -0.329(1) 0.2066(3) 0.1310(4)
N6 N -0.272(1) 0.2481(3) 0.1112(4)
C9 C -0.1301(9) 0.2590(3) -0.2486(4)
N7 N -0.6058(9) 0.1931(3) 0.2405(4)
C10 C -0.3854(9) 0.1169(4) -0.2941(4)
N8 N -0.5120(8) -0.0890(3) 0.3229(4)
O1 O -0.3044(7) -0.1428(2) 0.4605(3)
N1B N 0.057(1) -0.0815(3) 0.0887(4)
C4B C 0.182(1) -0.0470(5) -0.0704(5)
N3B N -0.2283(8) -0.0587(3) -0.0692(4)
C1B C 0.0546(8) 0.0079(3) 0.5198(4)
C2B C -0.5383(9) 0.0086(4) 0.5208(4)
N3_2 N -0.7717(8) 0.0587(3) 0.0692(4)
C5_2 C 0.3345(9) 0.0830(3) 0.1022(4)
N5B N 0.1241(8) 0.0948(3) -0.3329(4)
C7B C -0.0388(9) -0.1191(4) 0.3031(4)
N7C N -0.1058(9) 0.3069(3) -0.2595(4)
C9C C -0.6301(9) 0.2410(3) 0.2514(4)
N8B N -0.4880(8) 0.0890(3) -0.3229(4)
C10B C -0.6146(9) -0.1169(4) 0.2941(4)
loop_
_geom_bond_atom_site_label_1
_geom_bond_atom_site_label_2
_geom_bond_site_symmetry_1
_geom_bond_site_symmetry_2
Cd1 N1 1_555 1_555
Cd2 N2 1_555 1_555
Cd3 C1 1_555 1_555
Cd4 C3 1_555 1_555
C1 C1B 1_555 1_555
C2 Cd3 1_555 1_555
C3 N1 1_555 1_555
C4 Cd1 1_555 1_555
N2 C4 1_555 1_555
C5 Cd2 1_555 1_555
N3 Cd1 1_555 1_555
C6 Cd2 1_555 1_555
N4 Cd3 1_555 1_555
C7 Cd4 1_555 1_555
N5 Cd3 1_555 1_555
C8 Cd2 1_555 1_555
N6 C8 1_555 1_555
C9 Cd4 1_555 1_555
N7 Cd2 1_555 1_555
C10 Cd4 1_555 1_555
N8 Cd3 1_555 1_555
O1 Cd3 1_555 1_555
C11 C12 1_555 1_555
C12 C13 1_555 1_555
C13 C14 1_555 1_555
C14 C15 1_555 1_555
C15 N9 1_555 1_555
C16 C17 1_555 1_555
C17 C18 1_555 1_555
C18 C13 1_555 1_555
C19 C18 1_555 1_555
C20 C19 1_555 1_555
C21 N9 1_555 1_555
C22 N10 1_555 1_555
N9 C11 1_555 1_555
N10 C16 1_555 1_555
C23 C24 1_555 1_555
C24 C25 1_555 1_555
C25 C26 1_555 1_555
C26 C27 1_555 1_555
C27 C28 1_555 1_555
C28 C23 1_555 1_555
N1B Cd1 1_555 1_555
C4B Cd1 1_555 1_555
N3B Cd1 1_555 1_555
C2B C2 1_555 1_555
N3_2 C5 1_555 1_555
C5_2 N3 1_555 1_555
N5B C7 1_555 1_555
C7B N5 1_555 1_555
N7C C9 1_555 1_555
C9C N7 1_555 1_555
N8B C10 1_555 1_555
C10B N8 1_555 1_555
C6 N4 1_555 1_555
C20 N10 1_555 1_555

#END
