
#######################################################################
#
#                 Cambridge Crystallographic Data Centre
#                                CCDC 
#
#######################################################################
#
# If this CIF has been generated from an entry in the Cambridge 
# Structural Database, then it will include bibliographic, chemical, 
# crystal, experimental, refinement or atomic coordinate data resulting 
# from the CCDC's data processing and validation procedures.
#
#######################################################################

data_SOMJOV
_chemical_formula_moiety         '(C6 H5 Fe1 N4 O1)n'
_symmetry_cell_setting           orthorhombic
_symmetry_space_group_name_H-M   'I m m a'
_symmetry_Int_Tables_number      74
_space_group_name_Hall           '-I 2b 2'
loop_
_symmetry_equiv_pos_site_id
_symmetry_equiv_pos_as_xyz
1 x,y,z
2 x,-y,-z
3 -x,1/2+y,-z
4 -x,1/2-y,z
5 1/2+x,1/2+y,1/2+z
6 1/2+x,1/2-y,1/2-z
7 1/2-x,y,1/2-z
8 1/2-x,-y,1/2+z
9 -x,-y,-z
10 -x,y,z
11 x,1/2-y,z
12 x,1/2+y,-z
13 1/2-x,1/2-y,1/2-z
14 1/2-x,1/2+y,1/2+z
15 1/2+x,-y,1/2+z
16 1/2+x,y,1/2-z
_cell_length_a                   14.8424(19)
_cell_length_b                   6.6238(9)
_cell_length_c                   11.7467(18)
_cell_angle_alpha                90
_cell_angle_beta                 90
_cell_angle_gamma                90
_cell_volume                     1154.85
loop_
_atom_site_label
_atom_site_type_symbol
_atom_site_fract_x
_atom_site_fract_y
_atom_site_fract_z
Fe1 Fe 0.5000 0.5000 0.5000
C1 C 0.6652(2) 0.5855(6) 0.6651(3)
H1 H 0.6794 0.4481 0.6797
C2 C 0.7118(4) 0.7500 0.7114(4)
N1 N 0.59844(19) 0.6469(4) 0.5982(2)
O1 O 0.5000 0.2500 0.5929(4)
H2 H 0.5000 0.2500 0.6738
C1F C 0.8348(2) 0.5855(6) 0.8349(3)
H1F H 0.8206 0.4481 0.8203
C2F C 0.7882(4) 0.7500 0.7886(4)
N1F N 0.90156(19) 0.6469(4) 0.9018(2)
C1J C 0.6652(2) 0.9145(6) 0.6651(3)
H1J H 0.6794 1.0519 0.6797
N1J N 0.59844(19) 0.8531(4) 0.5982(2)
C1L C 0.8348(2) 0.9145(6) 0.8349(3)
H1L H 0.8206 1.0519 0.8203
N1L N 0.90156(19) 0.8531(4) 0.9018(2)
Fe1B Fe 0.5000 0.0000 0.5000
Fe1B_2 Fe 0.5000 1.0000 0.5000
Fe1D Fe 1.0000 1.0000 1.0000
Fe1F Fe 1.0000 0.5000 1.0000
N1A N 0.59844(19) 0.3531(4) 0.4018(2)
N1H N 0.40156(19) 0.3531(4) 0.4018(2)
N1I N 0.40156(19) 0.6469(4) 0.5982(2)
O1A O 0.5000 0.7500 0.4071(4)
loop_
_geom_bond_atom_site_label_1
_geom_bond_atom_site_label_2
_geom_bond_site_symmetry_1
_geom_bond_site_symmetry_2
Fe1 N1 1_555 1_555
C1 H1 1_555 1_555
C2 C1 1_555 1_555
N1 C1 1_555 1_555
O1 Fe1 1_555 1_555
H2 O1 1_555 1_555
C1F H1F 1_555 1_555
C2F C2 1_555 1_555
N1F C1F 1_555 1_555
C1J C2 1_555 1_555
H1J C1J 1_555 1_555
N1J N1 1_555 1_555
C1L C2F 1_555 1_555
H1L C1L 1_555 1_555
N1L N1F 1_555 1_555
Fe1B O1 1_555 1_555
Fe1B_2 N1J 1_555 1_555
Fe1D N1L 1_555 1_555
Fe1F N1F 1_555 1_555
N1A Fe1 1_555 1_555
N1H Fe1 1_555 1_555
N1I Fe1 1_555 1_555
O1A Fe1 1_555 1_555
C1F C2F 1_555 1_555
C1J N1J 1_555 1_555
C1L N1L 1_555 1_555
Fe1B_2 O1A 1_555 1_555

#END
