
#######################################################################
#
#                 Cambridge Crystallographic Data Centre
#                                CCDC 
#
#######################################################################
#
# If this CIF has been generated from an entry in the Cambridge 
# Structural Database, then it will include bibliographic, chemical, 
# crystal, experimental, refinement or atomic coordinate data resulting 
# from the CCDC's data processing and validation procedures.
#
#######################################################################

data_LUFBUL
_chemical_formula_moiety         '(C18 H16 Cu1 N6 O6)n'
_symmetry_cell_setting           orthorhombic
_symmetry_space_group_name_H-M   'P n n a'
_symmetry_Int_Tables_number      52
_space_group_name_Hall           '-P 2a 2bc'
loop_
_symmetry_equiv_pos_site_id
_symmetry_equiv_pos_as_xyz
1 x,y,z
2 1/2-x,-y,z
3 1/2-x,1/2+y,1/2-z
4 x,1/2-y,1/2-z
5 -x,-y,-z
6 1/2+x,y,-z
7 1/2+x,1/2-y,1/2+z
8 -x,1/2+y,1/2+z
_cell_length_a                   13.063(2)
_cell_length_b                   9.9017(18)
_cell_length_c                   17.472(3)
_cell_angle_alpha                90
_cell_angle_beta                 90
_cell_angle_gamma                90
_cell_volume                     2259.93
loop_
_atom_site_label
_atom_site_type_symbol
_atom_site_fract_x
_atom_site_fract_y
_atom_site_fract_z
Cu1 Cu 0.7500 0.5000 0.33823(5)
O1 O 1.1501(3) 0.0524(5) -0.0823(2)
O2 O 1.2262(3) 0.2404(5) -0.1185(3)
N1 N 0.8619(4) 0.5045(5) 0.2606(3)
N2 N 1.0127(5) 0.5490(8) 0.2070(4)
N3 N 0.9637(4) 0.4513(6) 0.1672(3)
C1 C 0.9484(6) 0.5773(9) 0.2634(5)
H1 H 0.9619 0.6412 0.3011
C2 C 0.8747(5) 0.4286(7) 0.1991(3)
H2 H 0.8268 0.3671 0.1809
C3 C 1.0118(5) 0.3851(6) 0.1043(3)
C4 C 1.0951(6) 0.4424(8) 0.0699(4)
H3 H 1.1202 0.5251 0.0868
C5 C 0.9757(5) 0.2637(7) 0.0806(4)
H4 H 0.9182 0.2261 0.1036
C6 C 1.1412(6) 0.3757(7) 0.0098(4)
H5 H 1.1957 0.4168 -0.0153
C7 C 1.0253(5) 0.1955(7) 0.0212(4)
H6 H 1.0014 0.1116 0.0053
C8 C 1.1095(5) 0.2520(6) -0.0137(3)
C9 C 1.1656(4) 0.1783(7) -0.0746(3)
O1A O 0.3499(3) 0.9476(5) -0.0823(2)
O2A O 0.2738(3) 0.7596(5) -0.1185(3)
N1A N 0.6381(4) 0.4955(5) 0.2606(3)
N2A N 0.4873(5) 0.4510(8) 0.2070(4)
N3A N 0.5363(4) 0.5487(6) 0.1672(3)
C1A C 0.5516(6) 0.4227(9) 0.2634(5)
H1A H 0.5381 0.3588 0.3011
C2A C 0.6253(5) 0.5714(7) 0.1991(3)
H2A H 0.6732 0.6329 0.1809
C3A C 0.4882(5) 0.6149(6) 0.1043(3)
C4A C 0.4049(6) 0.5576(8) 0.0699(4)
H3A H 0.3798 0.4749 0.0868
C5A C 0.5243(5) 0.7363(7) 0.0806(4)
H4A H 0.5818 0.7739 0.1036
C6A C 0.3588(6) 0.6243(7) 0.0098(4)
H5A H 0.3043 0.5832 -0.0153
C7A C 0.4747(5) 0.8045(7) 0.0212(4)
H6A H 0.4986 0.8884 0.0053
C8A C 0.3905(5) 0.7480(6) -0.0137(3)
C9A C 0.3344(4) 0.8217(7) -0.0746(3)
Cu1F Cu 0.2500 1.0000 -0.16177(5)
Cu1F_2 Cu 1.2500 0.0000 -0.16177(5)
O1F O 0.6501(3) 0.4476(5) 0.4177(2)
O1G O 0.8499(3) 0.5524(5) 0.4177(2)
O2F O 0.7262(3) 0.2596(5) 0.3815(3)
O2G O 0.7738(3) 0.7404(5) 0.3815(3)
O3 O 1.245(2) 0.561(3) 0.3539(15)
O3A O 1.255(2) 0.439(3) 0.3539(15)
loop_
_geom_bond_atom_site_label_1
_geom_bond_atom_site_label_2
_geom_bond_site_symmetry_1
_geom_bond_site_symmetry_2
Cu1 N1 1_555 1_555
O1 C9 1_555 1_555
O2 C9 1_555 1_555
N1 C1 1_555 1_555
N2 N3 1_555 1_555
N3 C2 1_555 1_555
C1 N2 1_555 1_555
H1 C1 1_555 1_555
C2 N1 1_555 1_555
H2 C2 1_555 1_555
C3 N3 1_555 1_555
C4 C3 1_555 1_555
H3 C4 1_555 1_555
C5 C3 1_555 1_555
H4 C5 1_555 1_555
C6 C4 1_555 1_555
H5 C6 1_555 1_555
C7 C5 1_555 1_555
H6 C7 1_555 1_555
C8 C6 1_555 1_555
C9 C8 1_555 1_555
O1A C9A 1_555 1_555
O2A C9A 1_555 1_555
N1A Cu1 1_555 1_555
N2A N3A 1_555 1_555
N3A C2A 1_555 1_555
C1A N1A 1_555 1_555
H1A C1A 1_555 1_555
C2A N1A 1_555 1_555
H2A C2A 1_555 1_555
C3A N3A 1_555 1_555
C4A C3A 1_555 1_555
H3A C4A 1_555 1_555
C5A C3A 1_555 1_555
H4A C5A 1_555 1_555
C6A C4A 1_555 1_555
H5A C6A 1_555 1_555
C7A C5A 1_555 1_555
H6A C7A 1_555 1_555
C8A C6A 1_555 1_555
C9A C8A 1_555 1_555
Cu1F O1A 1_555 1_555
Cu1F_2 O1 1_555 1_555
O1F Cu1 1_555 1_555
O1G Cu1 1_555 1_555
O2F Cu1 1_555 1_555
O2G Cu1 1_555 1_555
O2 Cu1F_2 1_555 1_555
C7 C8 1_555 1_555
O2A Cu1F 1_555 1_555
N2A C1A 1_555 1_555
C7A C8A 1_555 1_555

#END
