
#######################################################################
#
#                 Cambridge Crystallographic Data Centre
#                                CCDC 
#
#######################################################################
#
# If this CIF has been generated from an entry in the Cambridge 
# Structural Database, then it will include bibliographic, chemical, 
# crystal, experimental, refinement or atomic coordinate data resulting 
# from the CCDC's data processing and validation procedures.
#
#######################################################################

data_RIYBAE
_chemical_formula_moiety         '(C61 H46 I6 N16 O1 Pd1 S2 Zn3)n'
_symmetry_cell_setting           orthorhombic
_symmetry_space_group_name_H-M   'P b c a'
_symmetry_Int_Tables_number      61
_space_group_name_Hall           '-P 2ac 2ab'
loop_
_symmetry_equiv_pos_site_id
_symmetry_equiv_pos_as_xyz
1 x,y,z
2 1/2-x,-y,1/2+z
3 -x,1/2+y,1/2-z
4 1/2+x,1/2-y,-z
5 -x,-y,-z
6 1/2+x,y,1/2-z
7 x,1/2-y,1/2+z
8 1/2-x,1/2+y,z
_cell_length_a                   27.774(3)
_cell_length_b                   13.8933(16)
_cell_length_c                   44.585(5)
_cell_angle_alpha                90
_cell_angle_beta                 90
_cell_angle_gamma                90
_cell_volume                     17204.1
loop_
_atom_site_label
_atom_site_type_symbol
_atom_site_fract_x
_atom_site_fract_y
_atom_site_fract_z
_atom_site_U_iso_or_equiv
_atom_site_thermal_displace_type
C1 C 0.2685(18) 0.721(3) 0.5773(10) 0.2500 Uani
H1 H 0.2404 0.7295 0.5903 0.3760 Uiso
H2 H 0.2978 0.7187 0.5895 0.3760 Uiso
H3 H 0.2652 0.6605 0.5661 0.3760 Uiso
C2 C 0.2715(12) 0.802(3) 0.5561(7) 0.1633 Uani
N1 N 0.2872(11) 0.848(3) 0.5369(7) 0.1833 Uani
C3 C 0.2963(12) 0.608(3) 0.4540(6) 0.1913 Uani
H4 H 0.2630 0.6300 0.4517 0.2830 Uiso
H5 H 0.2965 0.5449 0.4639 0.2830 Uiso
H6 H 0.3114 0.6025 0.4342 0.2830 Uiso
C4 C 0.3228(16) 0.676(3) 0.4720(8) 0.1700 Uani
N2 N 0.3407(16) 0.729(3) 0.4880(9) 0.2233 Uani
C5 C -0.7082(14) 0.063(3) 0.5062(9) 0.1900 Uani
H7 H -0.7405 0.0883 0.5025 0.2890 Uiso
H8 H -0.6846 0.1150 0.5055 0.2890 Uiso
H9 H -0.7073 0.0321 0.5260 0.2890 Uiso
C6 C -0.6965(8) -0.009(3) 0.4833(4) 0.1043 Uani
N3 N -0.6828(15) -0.067(3) 0.4673(13) 0.2600 Uani
C26 C -0.7405(3) -0.2240(8) 0.32279(17) 0.0357 Uani
C27 C -0.7743(3) -0.2473(7) 0.3010(2) 0.0537 Uani
C28 C -0.7592(4) -0.2742(7) 0.2724(2) 0.0610 Uani
H23 H -0.7823 -0.2902 0.2575 0.0730 Uiso
C29 C -0.7104(4) -0.2778(8) 0.26574(17) 0.0560 Uani
H24 H -0.7001 -0.2962 0.2462 0.0670 Uiso
C30 C -0.6766(3) -0.2545(8) 0.2876(2) 0.0597 Uani
H25 H -0.6432 -0.2569 0.2830 0.0710 Uiso
C31 C -0.6917(3) -0.2276(7) 0.31609(19) 0.0443 Uani
C32 C -0.6565(4) -0.2025(12) 0.3412(2) 0.0520 Uani
C33 C -0.6070(5) -0.2050(11) 0.3363(3) 0.0647 Uani
H26 H -0.5948 -0.2194 0.3170 0.0780 Uiso
C34 C -0.5755(3) -0.1866(12) 0.3599(4) 0.0690 Uani
H27 H -0.5418 -0.1883 0.3566 0.0830 Uiso
C35 C -0.5935(5) -0.1655(13) 0.3882(3) 0.0733 Uani
H28 H -0.5720 -0.1529 0.4043 0.0880 Uiso
C36 C -0.6429(5) -0.1630(12) 0.3931(2) 0.0603 Uani
H29 H -0.6552 -0.1487 0.4125 0.0720 Uiso
C37 C -0.6744(3) -0.1815(12) 0.3695(3) 0.0430 Uani
C38 C -0.7277(3) -0.1771(7) 0.3754(2) 0.0400 Uani
C39 C -0.7490(4) -0.1511(7) 0.40239(17) 0.0467 Uani
H30 H -0.7295 -0.1373 0.4194 0.0560 Uiso
C40 C -0.7988(4) -0.1452(8) 0.40458(18) 0.0597 Uani
H31 H -0.8134 -0.1275 0.4231 0.0720 Uiso
C41 C -0.8274(3) -0.1654(8) 0.3798(2) 0.0593 Uani
H32 H -0.8614 -0.1614 0.3813 0.0710 Uiso
N5 N -0.8061(3) -0.1914(8) 0.35273(19) 0.0533 Uani
C42 C -0.7563(3) -0.1972(7) 0.35053(16) 0.0433 Uani
C43 C -0.9356(7) -0.251(2) 0.2957(4) 0.1320 Uani
C44 C -1.0192(10) -0.260(4) 0.3059(8) 0.2033 Uani
H33 H -1.0485 -0.2812 0.2957 0.3040 Uiso
H34 H -1.0226 -0.1919 0.3116 0.3040 Uiso
H35 H -1.0141 -0.2987 0.3239 0.3040 Uiso
O2 O -0.9791(7) -0.270(2) 0.2863(5) 0.1737 Uani
Pd2 Pd -0.84267(7) -0.23027(10) 0.31616(4) 0.0744 Uani
S3 S -0.9259(3) -0.2115(5) 0.33094(18) 0.1137 Uani
S4 S -0.8868(3) -0.2819(7) 0.27418(19) 0.1327 Uani
Zn1 Zn 0.25844(4) 0.32326(7) 0.18005(2) 0.0450 Uani
Zn2 Zn 0.52501(4) 0.62037(7) 0.41474(3) 0.0456 Uani
Zn3 Zn 0.04854(4) 0.64696(8) 0.41340(2) 0.0440 Uani
I1 I 0.16846(3) 0.32309(7) 0.16770(2) 0.0777 Uani
I2 I 0.30023(3) 0.16057(4) 0.18576(2) 0.0630 Uani
I3 I 0.57558(3) 0.70797(7) 0.37588(3) 0.1011 Uani
I4 I 0.50552(3) 0.69580(5) 0.46582(2) 0.0626 Uani
I5 I -0.01689(2) 0.56306(6) 0.38314(2) 0.0649 Uani
I6 I 0.05705(3) 0.82852(5) 0.42067(2) 0.0783 Uani
C49 C 0.2318(4) 0.4377(6) 0.23299(18) 0.0427 Uani
H42 H 0.2014 0.4386 0.2232 0.0510 Uiso
C50 C 0.2356(3) 0.4752(6) 0.26143(19) 0.0417 Uani
H43 H 0.2079 0.4998 0.2713 0.0500 Uiso
C51 C 0.2802(3) 0.4768(5) 0.27561(17) 0.0347 Uani
C52 C 0.3196(4) 0.4433(7) 0.2600(2) 0.0473 Uani
H44 H 0.3509 0.4465 0.2685 0.0570 Uiso
C53 C 0.3126(4) 0.4047(8) 0.2317(2) 0.0540 Uani
H45 H 0.3396 0.3804 0.2211 0.0650 Uiso
C54 C 0.4595(3) 0.5649(7) 0.36444(19) 0.0433 Uani
H46 H 0.4891 0.5593 0.3539 0.0520 Uiso
C55 C 0.4176(3) 0.5492(7) 0.3493(2) 0.0447 Uani
H47 H 0.4186 0.5312 0.3288 0.0540 Uiso
C56 C 0.3732(3) 0.5594(5) 0.36376(18) 0.0367 Uani
C57 C 0.3752(3) 0.5817(6) 0.3940(2) 0.0410 Uani
H48 H 0.3462 0.5873 0.4052 0.0490 Uiso
C58 C 0.4188(3) 0.5960(6) 0.40824(18) 0.0397 Uani
H49 H 0.4189 0.6120 0.4290 0.0470 Uiso
C59 C 0.1553(3) 0.6150(6) 0.40908(19) 0.0390 Uani
H50 H 0.1550 0.6375 0.4292 0.0470 Uiso
C60 C 0.1987(3) 0.5964(6) 0.39592(19) 0.0407 Uani
H51 H 0.2277 0.6030 0.4071 0.0490 Uiso
C61 C 0.2002(3) 0.5678(5) 0.36629(17) 0.0317 Uani
C62 C 0.1563(3) 0.5551(6) 0.35135(18) 0.0367 Uani
H52 H 0.1555 0.5344 0.3310 0.0440 Uiso
C63 C 0.1145(3) 0.5730(6) 0.36660(19) 0.0390 Uani
H53 H 0.0848 0.5635 0.3564 0.0470 Uiso
C64 C 0.2843(3) 0.5096(5) 0.30744(17) 0.0343 Uani
C65 C 0.3276(3) 0.5471(5) 0.34845(18) 0.0353 Uani
C66 C 0.2457(3) 0.5513(5) 0.35017(16) 0.0307 Uani
C67 C 0.0441(3) 0.4900(7) 0.4587(2) 0.0450 Uani
H54 H 0.0295 0.4557 0.4427 0.0540 Uiso
C68 C 0.0558(3) 0.4419(6) 0.4851(2) 0.0413 Uani
H55 H 0.0493 0.3751 0.4870 0.0500 Uiso
C69 C 0.0766(3) 0.4903(6) 0.50806(17) 0.0347 Uani
C70 C 0.0839(3) 0.5892(6) 0.5054(2) 0.0463 Uani
H56 H 0.0970 0.6255 0.5215 0.0560 Uiso
C71 C 0.0717(3) 0.6321(6) 0.4790(2) 0.0427 Uani
H57 H 0.0766 0.6996 0.4772 0.0510 Uiso
C72 C 0.1889(6) 0.6389(7) 0.6240(3) 0.0830 Uani
H58 H 0.1927 0.7066 0.6222 0.1000 Uiso
C73 C 0.1667(6) 0.5909(7) 0.6009(3) 0.0837 Uani
H59 H 0.1572 0.6239 0.5832 0.1000 Uiso
C74 C 0.1585(3) 0.4933(6) 0.60404(19) 0.0377 Uani
C75 C 0.1729(4) 0.4497(6) 0.6295(2) 0.0500 Uani
H60 H 0.1672 0.3830 0.6326 0.0600 Uiso
C76 C 0.1964(4) 0.5043(6) 0.65119(19) 0.0487 Uani
H61 H 0.2065 0.4727 0.6690 0.0580 Uiso
C77 C 0.0736(3) 0.0649(6) 0.5998(2) 0.0420 Uani
H62 H 0.0761 0.0364 0.6191 0.0510 Uiso
C78 C 0.0892(3) 0.1587(6) 0.5958(2) 0.0473 Uani
H63 H 0.1025 0.1939 0.6121 0.0570 Uiso
C79 C 0.0851(3) 0.2003(6) 0.5679(2) 0.0430 Uani
C80 C 0.0653(4) 0.1476(6) 0.5444(2) 0.0480 Uani
H64 H 0.0618 0.1753 0.5250 0.0580 Uiso
C81 C 0.0512(4) 0.0552(7) 0.5498(2) 0.0503 Uani
H65 H 0.0380 0.0188 0.5338 0.0610 Uiso
C82 C 0.0928(3) 0.4399(6) 0.5356(2) 0.0403 Uani
C83 C 0.1324(3) 0.4390(6) 0.57956(18) 0.0370 Uani
C84 C 0.0988(3) 0.3033(6) 0.5631(2) 0.0433 Uani
N8 N 0.2693(3) 0.4005(5) 0.21880(14) 0.0407 Uani
N9 N 0.4607(3) 0.5880(5) 0.39394(17) 0.0400 Uani
N10 N 0.1133(3) 0.6032(5) 0.39507(15) 0.0363 Uani
N11 N 0.3276(3) 0.5209(4) 0.31940(14) 0.0357 Uani
N12 N 0.2875(2) 0.5642(4) 0.36446(14) 0.0333 Uani
N13 N 0.2424(3) 0.5235(4) 0.32123(14) 0.0330 Uani
N14 N 0.0533(3) 0.5850(5) 0.45551(15) 0.0383 Uani
N15 N 0.2056(3) 0.5971(5) 0.64862(15) 0.0420 Uani
N16 N 0.0550(3) 0.0131(5) 0.57710(17) 0.0423 Uani
N17 N 0.1182(3) 0.4908(5) 0.55616(15) 0.0393 Uani
N18 N 0.1244(3) 0.3464(5) 0.58441(16) 0.0403 Uani
N19 N 0.0816(3) 0.3467(5) 0.53802(15) 0.0397 Uani
Zn1A Zn 0.24156(4) 0.67674(7) 0.68005(2) 0.0450 Uani
Zn2C Zn 0.02501(4) -0.12037(7) 0.58526(3) 0.0456 Uani
N15A N 0.2944(3) 0.4029(5) 0.14862(15) 0.0420 Uani
N16C N 0.5550(3) 0.4869(5) 0.42290(17) 0.0423 Uani
loop_
_atom_site_aniso_label
_atom_site_aniso_U_11
_atom_site_aniso_U_22
_atom_site_aniso_U_33
_atom_site_aniso_U_23
_atom_site_aniso_U_13
_atom_site_aniso_U_12
C1 0.22(4) 0.36(6) 0.17(4) 0.07(4) 0.02(3) -0.15(4)
C2 0.18(3) 0.19(3) 0.12(2) 0.10(2) -0.11(2) -0.11(2)
N1 0.16(3) 0.20(3) 0.19(3) 0.05(3) -0.11(3) -0.01(2)
C3 0.13(3) 0.37(6) 0.074(18) 0.00(3) 0.022(17) -0.13(3)
C4 0.15(3) 0.26(5) 0.10(2) 0.04(3) 0.01(2) -0.08(3)
N2 0.25(4) 0.21(4) 0.21(4) -0.02(3) -0.14(3) -0.04(3)
C5 0.13 0.29 0.15 0.02 0.04 -0.14
C6 0.055 0.23 0.028 -0.025 0.026 -0.03
N3 0.09 0.4 0.29 -0.03 0.07 -0.12
C26 0.051 0.021 0.035 0.01 -0.005 0.002
C27 0.103 0.01 0.048 0.013 -0.021 -0.008
C28 0.106 0.024 0.053 0.015 -0.02 -0.002
C29 0.108 0.02 0.04 0.003 0.002 0.012
C30 0.105 0.021 0.053 0.01 -0.003 0.015
C31 0.084 0.012 0.037 0.01 -0.004 0.009
C32 0.07 0.02 0.066 0.016 0.006 0.002
C33 0.08 0.035 0.079 0.012 0.008 0.011
C34 0.074 0.036 0.097 0.005 -0.026 0.006
C35 0.089 0.039 0.092 0 -0.037 -0.007
C36 0.085 0.021 0.075 0.004 -0.026 0.001
C37 0.071 0.013 0.045 0.002 -0.027 -0.008
C38 0.06 0.011 0.049 0.009 -0.006 -0.003
C39 0.048 0.043 0.049 0.001 -0.028 -0.012
C40 0.087 0.034 0.058 0.016 0.011 0.002
C41 0.073 0.029 0.076 0.024 -0.002 -0.008
N5 0.07 0.024 0.066 0.019 -0.01 -0.01
C42 0.059 0.024 0.047 0.012 -0.004 0.006
C43 0.135 0.14 0.121 0.057 -0.065 -0.073
C44 0.18 0.27 0.16 0.08 -0.02 -0.07
O2 0.163 0.204 0.154 0.063 -0.047 -0.071
Pd2 0.1008 0.0442 0.0783 0.0278 -0.0378 -0.026
S3 0.129 0.092 0.12 0.053 -0.052 -0.033
S4 0.146 0.14 0.112 0.05 -0.065 -0.078
Zn1 0.0745(8) 0.0344(5) 0.0261(4) 0.0026(4) 0.0055(5) -0.0075(5)
Zn2 0.0356(5) 0.0325(5) 0.0688(7) -0.0043(5) 0.0014(5) 0.0019(4)
Zn3 0.0398(5) 0.0411(5) 0.0511(6) 0.0038(4) -0.0015(5) 0.0059(4)
I1 0.0814(6) 0.0828(6) 0.0690(5) -0.0284(4) -0.0188(4) -0.0031(4)
I2 0.1096(6) 0.0330(3) 0.0463(4) 0.0063(3) 0.0144(4) 0.0022(3)
I3 0.0693(6) 0.0754(6) 0.1587(10) 0.0365(6) 0.0390(6) -0.0054(5)
I4 0.0538(4) 0.0474(4) 0.0865(5) -0.0351(3) -0.0099(3) 0.0085(3)
I5 0.0427(3) 0.0847(5) 0.0672(5) -0.0129(4) -0.0049(3) 0.0010(3)
I6 0.0688(5) 0.0367(3) 0.1293(8) 0.0129(4) -0.0144(5) 0.0109(3)
C49 0.067(6) 0.033(4) 0.028(4) 0.007(3) 0.001(4) 0.005(4)
C50 0.061(6) 0.025(4) 0.039(4) 0.009(3) -0.003(4) 0.008(4)
C51 0.053(5) 0.020(3) 0.031(4) 0.006(3) 0.000(4) -0.001(3)
C52 0.055(6) 0.049(5) 0.038(5) -0.004(4) 0.004(4) -0.009(4)
C53 0.056(6) 0.062(6) 0.044(5) -0.007(4) 0.011(5) 0.003(5)
C54 0.041(5) 0.050(5) 0.039(5) 0.009(4) 0.009(4) 0.012(4)
C55 0.050(5) 0.049(5) 0.035(4) 0.000(4) 0.002(4) 0.009(4)
C56 0.052(5) 0.020(3) 0.038(4) 0.011(3) 0.010(4) 0.008(3)
C57 0.040(5) 0.035(4) 0.048(5) 0.006(4) 0.003(4) 0.010(4)
C58 0.049(5) 0.039(4) 0.031(4) -0.005(3) -0.001(4) 0.007(4)
C59 0.048(5) 0.034(4) 0.035(4) 0.000(3) 0.003(4) 0.000(4)
C60 0.051(5) 0.037(4) 0.034(4) 0.006(3) -0.009(4) 0.002(4)
C61 0.043(4) 0.019(3) 0.033(4) 0.007(3) -0.003(3) 0.003(3)
C62 0.046(5) 0.033(4) 0.031(4) 0.008(3) -0.004(4) -0.002(4)
C63 0.039(5) 0.038(4) 0.040(5) 0.007(4) -0.007(4) -0.002(4)
C64 0.049(5) 0.021(3) 0.033(4) 0.002(3) -0.001(4) 0.001(3)
C65 0.042(5) 0.025(4) 0.039(4) 0.010(3) 0.000(4) -0.004(3)
C66 0.045(4) 0.022(3) 0.025(3) 0.007(3) -0.003(3) -0.001(3)
C67 0.047(5) 0.047(5) 0.041(5) -0.015(4) 0.003(4) 0.002(4)
C68 0.047(5) 0.033(4) 0.044(5) 0.000(4) 0.002(4) -0.005(4)
C69 0.035(4) 0.039(4) 0.030(4) -0.005(3) 0.007(3) 0.001(3)
C70 0.057(6) 0.035(4) 0.047(5) -0.018(4) 0.000(4) 0.000(4)
C71 0.049(5) 0.032(4) 0.047(5) -0.004(4) 0.005(4) 0.003(4)
C72 0.161(13) 0.021(4) 0.067(7) -0.002(4) -0.059(8) -0.006(6)
C73 0.169(14) 0.025(4) 0.057(6) -0.004(4) -0.061(8) -0.002(6)
C74 0.045(5) 0.028(4) 0.040(4) -0.009(3) -0.002(4) 0.002(3)
C75 0.073(7) 0.030(4) 0.047(5) -0.002(4) 0.001(5) -0.010(4)
C76 0.082(7) 0.032(4) 0.032(4) -0.004(3) -0.016(4) 0.000(4)
C77 0.044(5) 0.040(5) 0.042(5) 0.003(4) -0.006(4) -0.002(4)
C78 0.046(5) 0.040(5) 0.056(6) -0.011(4) -0.008(4) -0.011(4)
C79 0.046(5) 0.029(4) 0.054(5) -0.011(4) 0.008(4) -0.002(4)
C80 0.070(6) 0.036(4) 0.038(5) -0.006(4) 0.006(4) -0.012(4)
C81 0.061(6) 0.045(5) 0.045(5) -0.012(4) -0.001(5) -0.004(5)
C82 0.036(4) 0.038(4) 0.047(5) -0.004(4) 0.011(4) -0.002(4)
C83 0.046(5) 0.034(4) 0.031(4) -0.009(3) 0.000(4) -0.002(4)
C84 0.047(5) 0.044(5) 0.039(5) -0.005(4) 0.005(4) -0.008(4)
N8 0.065(5) 0.034(4) 0.023(3) 0.003(3) 0.001(3) -0.005(3)
N9 0.041(4) 0.029(3) 0.050(4) 0.001(3) 0.003(3) 0.003(3)
N10 0.040(4) 0.038(4) 0.031(3) 0.004(3) -0.002(3) 0.000(3)
N11 0.055(4) 0.023(3) 0.029(3) 0.006(3) 0.001(3) -0.001(3)
N12 0.045(4) 0.021(3) 0.034(3) 0.006(3) 0.002(3) 0.006(3)
N13 0.050(4) 0.022(3) 0.027(3) 0.005(2) 0.001(3) 0.000(3)
N14 0.044(4) 0.034(3) 0.037(4) -0.006(3) 0.009(3) 0.004(3)
N15 0.068(5) 0.027(3) 0.031(4) 0.002(3) -0.006(3) 0.001(3)
N16 0.038(4) 0.038(4) 0.051(4) -0.003(3) -0.004(3) -0.005(3)
N17 0.047(4) 0.032(3) 0.039(4) -0.011(3) -0.006(3) 0.000(3)
N18 0.045(4) 0.033(4) 0.043(4) -0.005(3) -0.002(3) -0.001(3)
N19 0.051(4) 0.036(4) 0.032(4) -0.008(3) 0.003(3) -0.011(3)
Zn1A 0.0745 0.0344 0.0261 -0.0026 -0.0055 -0.0075
Zn2C 0.0356 0.0325 0.0688 -0.0043 -0.0014 -0.0019
N15A 0.068 0.027 0.031 -0.002 0.006 0.001
N16C 0.038 0.038 0.051 -0.003 0.004 0.005
loop_
_geom_bond_atom_site_label_1
_geom_bond_atom_site_label_2
_geom_bond_site_symmetry_1
_geom_bond_site_symmetry_2
C1 H1 1_555 1_555
H2 C1 1_555 1_555
H3 C1 1_555 1_555
C2 C1 1_555 1_555
N1 C2 1_555 1_555
C3 H4 1_555 1_555
H5 C3 1_555 1_555
H6 C3 1_555 1_555
C4 C3 1_555 1_555
N2 C4 1_555 1_555
C5 H7 1_555 1_555
H8 C5 1_555 1_555
H9 C5 1_555 1_555
C6 C5 1_555 1_555
N3 C6 1_555 1_555
C26 C27 1_555 1_555
C27 C28 1_555 1_555
C28 H23 1_555 1_555
C29 C28 1_555 1_555
H24 C29 1_555 1_555
C30 C29 1_555 1_555
H25 C30 1_555 1_555
C31 C26 1_555 1_555
C32 C31 1_555 1_555
C33 C32 1_555 1_555
H26 C33 1_555 1_555
C34 C33 1_555 1_555
H27 C34 1_555 1_555
C35 C34 1_555 1_555
H28 C35 1_555 1_555
C36 C35 1_555 1_555
H29 C36 1_555 1_555
C37 C32 1_555 1_555
C38 C37 1_555 1_555
C39 C38 1_555 1_555
H30 C39 1_555 1_555
C40 C39 1_555 1_555
H31 C40 1_555 1_555
C41 C40 1_555 1_555
H32 C41 1_555 1_555
N5 C41 1_555 1_555
C42 C26 1_555 1_555
C43 O2 1_555 1_555
C44 H33 1_555 1_555
H34 C44 1_555 1_555
H35 C44 1_555 1_555
O2 C44 1_555 1_555
Pd2 C27 1_555 1_555
S3 C43 1_555 1_555
S4 C43 1_555 1_555
Zn1 I1 1_555 1_555
Zn2 I3 1_555 1_555
Zn3 I5 1_555 1_555
I2 Zn1 1_555 1_555
I4 Zn2 1_555 1_555
I6 Zn3 1_555 1_555
C49 H42 1_555 1_555
C50 C49 1_555 1_555
H43 C50 1_555 1_555
C51 C50 1_555 1_555
C52 C51 1_555 1_555
H44 C52 1_555 1_555
C53 C52 1_555 1_555
H45 C53 1_555 1_555
C54 H46 1_555 1_555
C55 C54 1_555 1_555
H47 C55 1_555 1_555
C56 C55 1_555 1_555
C57 C56 1_555 1_555
H48 C57 1_555 1_555
C58 C57 1_555 1_555
H49 C58 1_555 1_555
C59 H50 1_555 1_555
C60 C59 1_555 1_555
H51 C60 1_555 1_555
C61 C60 1_555 1_555
C62 C61 1_555 1_555
H52 C62 1_555 1_555
C63 C62 1_555 1_555
H53 C63 1_555 1_555
C64 C51 1_555 1_555
C65 C56 1_555 1_555
C66 C61 1_555 1_555
C67 H54 1_555 1_555
C68 C67 1_555 1_555
H55 C68 1_555 1_555
C69 C68 1_555 1_555
C70 C69 1_555 1_555
H56 C70 1_555 1_555
C71 C70 1_555 1_555
H57 C71 1_555 1_555
C72 H58 1_555 1_555
C73 C72 1_555 1_555
H59 C73 1_555 1_555
C74 C73 1_555 1_555
C75 C74 1_555 1_555
H60 C75 1_555 1_555
C76 C75 1_555 1_555
H61 C76 1_555 1_555
C77 H62 1_555 1_555
C78 C77 1_555 1_555
H63 C78 1_555 1_555
C79 C78 1_555 1_555
C80 C79 1_555 1_555
H64 C80 1_555 1_555
C81 C80 1_555 1_555
H65 C81 1_555 1_555
C82 C69 1_555 1_555
C83 C74 1_555 1_555
C84 C79 1_555 1_555
N8 Zn1 1_555 1_555
N9 Zn2 1_555 1_555
N10 Zn3 1_555 1_555
N11 C64 1_555 1_555
N12 C65 1_555 1_555
N13 C64 1_555 1_555
N14 Zn3 1_555 1_555
N15 C72 1_555 1_555
N16 C77 1_555 1_555
N17 C82 1_555 1_555
N18 C83 1_555 1_555
N19 C82 1_555 1_555
Zn1A N15 1_555 1_555
Zn2C N16 1_555 1_555
N15A Zn1 1_555 1_555
N16C Zn2 1_555 1_555
C30 C31 1_555 1_555
C36 C37 1_555 1_555
C38 C42 1_555 1_555
N5 C42 1_555 1_555
N5 Pd2 1_555 1_555
Pd2 S3 1_555 1_555
Pd2 S4 1_555 1_555
C49 N8 1_555 1_555
C53 N8 1_555 1_555
C54 N9 1_555 1_555
C58 N9 1_555 1_555
C59 N10 1_555 1_555
C63 N10 1_555 1_555
C65 N11 1_555 1_555
C66 N12 1_555 1_555
C66 N13 1_555 1_555
C67 N14 1_555 1_555
C71 N14 1_555 1_555
C76 N15 1_555 1_555
C81 N16 1_555 1_555
C83 N17 1_555 1_555
C84 N18 1_555 1_555
C84 N19 1_555 1_555

#END
