
#######################################################################
#
#                 Cambridge Crystallographic Data Centre
#                                CCDC 
#
#######################################################################
#
# If this CIF has been generated from an entry in the Cambridge 
# Structural Database, then it will include bibliographic, chemical, 
# crystal, experimental, refinement or atomic coordinate data resulting 
# from the CCDC's data processing and validation procedures.
#
#######################################################################

data_BOSHIC
_chemical_formula_moiety         'C42 H10 Cu8 O16'
_symmetry_cell_setting           rhombohedral
_symmetry_space_group_name_H-M   'R -3 m'
_symmetry_Int_Tables_number      166
_space_group_name_Hall           '-R 3 2"'
loop_
_symmetry_equiv_pos_site_id
_symmetry_equiv_pos_as_xyz
1 x,y,z
2 -y,x-y,z
3 -x+y,-x,z
4 y,x,-z
5 x-y,-y,-z
6 -x,-x+y,-z
7 2/3+x,1/3+y,1/3+z
8 2/3-y,1/3+x-y,1/3+z
9 2/3-x+y,1/3-x,1/3+z
10 2/3+y,1/3+x,1/3-z
11 2/3+x-y,1/3-y,1/3-z
12 2/3-x,1/3-x+y,1/3-z
13 1/3+x,2/3+y,2/3+z
14 1/3-y,2/3+x-y,2/3+z
15 1/3-x+y,2/3-x,2/3+z
16 1/3+y,2/3+x,2/3-z
17 1/3+x-y,2/3-y,2/3-z
18 1/3-x,2/3-x+y,2/3-z
19 -x,-y,-z
20 y,-x+y,-z
21 x-y,x,-z
22 -y,-x,z
23 -x+y,y,z
24 x,x-y,z
25 1/3-x,2/3-y,2/3-z
26 1/3+y,2/3-x+y,2/3-z
27 1/3+x-y,2/3+x,2/3-z
28 1/3-y,2/3-x,2/3+z
29 1/3-x+y,2/3+y,2/3+z
30 1/3+x,2/3+x-y,2/3+z
31 2/3-x,1/3-y,1/3-z
32 2/3+y,1/3-x+y,1/3-z
33 2/3+x-y,1/3+x,1/3-z
34 2/3-y,1/3-x,1/3+z
35 2/3-x+y,1/3+y,1/3+z
36 2/3+x,1/3+x-y,1/3+z
_cell_length_a                   18.6843(7)
_cell_length_b                   18.6843(7)
_cell_length_c                   38.6052(12)
_cell_angle_alpha                90
_cell_angle_beta                 90
_cell_angle_gamma                120
_cell_volume                     11671.6
loop_
_atom_site_label
_atom_site_type_symbol
_atom_site_fract_x
_atom_site_fract_y
_atom_site_fract_z
_atom_site_U_iso_or_equiv
_atom_site_thermal_displace_type
Cu1 Cu 0.856781(13) 0.143219(13) 0.138424(11) 0.0348 Uani
O1 O 0.96190(13) 0.18490(14) 0.16312(5) 0.0517 Uani
O2 O 0.92264(14) 0.22492(16) 0.21064(6) 0.0563 Uani
O3 O 0.89202(18) 0.10798(18) 0.09151(13) 0.1200 Uani
H1 H 0.8852 0.1148 0.0703 0.1440 Uiso
H2 H 0.9177 0.0823 0.0962 0.1440 Uiso
C1 C 0.9731(2) 0.2139(2) 0.19338(8) 0.0462 Uani
C2 C 1.10996(15) 0.2199(3) 0.19394(11) 0.0486 Uani
H3 H 1.1001 0.2001 0.1713 0.0580 Uiso
C3 C 1.0530(2) 0.2345(2) 0.21053(8) 0.0512 Uani
C4 C 1.0680(2) 0.2645(3) 0.24441(10) 0.0721 Uani
H4 H 1.0300 0.2748 0.2556 0.0870 Uiso
C5 C 1.1395(2) 0.2790(5) 0.26151(15) 0.0887 Uani
C6 C 1.1535(3) 0.3071(6) 0.29884(18) 0.1092 Uani
C7 C 1.0974(5) 0.2521(7) 0.32573(18) 0.1346 Uani
C8 C 1.0332(8) 0.1742(8) 0.3167(3) 0.1637 Uani
C9 C 0.9834(9) 0.1197(7) 0.3424(4) 0.1856 Uani
C10 C 0.9979(11) 0.1432(8) 0.3770(4) 0.1911 Uani
C11 C 1.0621(9) 0.2210(9) 0.38597(19) 0.1280 Uani
C12 C 1.1119(5) 0.2755(6) 0.3603(2) 0.1436 Uani
O1P O 1.11033(19) 0.48177(14) 0.50355(5) 0.0517 Uani
O2P O 1.03105(21) 0.44175(16) 0.45603(6) 0.0563 Uani
C1P C 1.0925(3) 0.4528(2) 0.47329(8) 0.0462 Uani
C2P C 1.22339(34) 0.4468(3) 0.47273(11) 0.0486 Uani
H3P H 1.2333 0.4666 0.4954 0.0580 Uiso
C3P C 1.1518(3) 0.4322(2) 0.45614(8) 0.0512 Uani
C4P C 1.1368(4) 0.4022(3) 0.42226(10) 0.0721 Uani
H4P H 1.0885 0.3919 0.4111 0.0870 Uiso
C5P C 1.1938(5) 0.3877(5) 0.40516(15) 0.0887 Uani
C6P C 1.1797(7) 0.3596(6) 0.36783(18) 0.1092 Uani
C7P C 1.1786(9) 0.4146(7) 0.34094(18) 0.1346 Uani
C8P C 1.1923(11) 0.4925(8) 0.3500(3) 0.1637 Uani
C9P C 1.1970(11) 0.5470(7) 0.3243(4) 0.1856 Uani
C10P C 1.1880(14) 0.5235(8) 0.2897(4) 0.1911 Uani
C11P C 1.1744(13) 0.4457(9) 0.28070(19) 0.1280 Uani
C12P C 1.1697(8) 0.3912(6) 0.3064(2) 0.1436 Uani
O1V O 1.22300(19) 0.18490(14) 0.16312(5) 0.0517 Uani
O2V O 1.30228(21) 0.22492(16) 0.21064(6) 0.0563 Uani
C1V C 1.2408(3) 0.2139(2) 0.19338(8) 0.0462 Uani
C3V C 1.1815(3) 0.2345(2) 0.21053(8) 0.0512 Uani
C4V C 1.1965(4) 0.2645(3) 0.24441(10) 0.0721 Uani
H4V H 1.2448 0.2748 0.2556 0.0870 Uiso
C7V C 1.1547(9) 0.2521(7) 0.32573(18) 0.1346 Uani
C8V C 1.1410(11) 0.1742(8) 0.3167(3) 0.1637 Uani
C9V C 1.1363(11) 0.1197(7) 0.3424(4) 0.1856 Uani
C10V C 1.1453(14) 0.1432(8) 0.3770(4) 0.1911 Uani
C11V C 1.1589(13) 0.2210(9) 0.38597(19) 0.1280 Uani
C12V C 1.1636(8) 0.2755(6) 0.3603(2) 0.1436 Uani
O1X O 1.37143(13) 0.48177(14) 0.50355(5) 0.0517 Uani
O2X O 1.41069(14) 0.44175(16) 0.45603(6) 0.0563 Uani
C1X C 1.3602(2) 0.4528(2) 0.47329(8) 0.0462 Uani
C3X C 1.2803(2) 0.4322(2) 0.45614(8) 0.0512 Uani
C4X C 1.2653(2) 0.4022(3) 0.42226(10) 0.0721 Uani
H4X H 1.3033 0.3919 0.4111 0.0870 Uiso
C7X C 1.2359(5) 0.4146(7) 0.34094(18) 0.1346 Uani
C8X C 1.3001(8) 0.4925(8) 0.3500(3) 0.1637 Uani
C9X C 1.3499(9) 0.5470(7) 0.3243(4) 0.1856 Uani
C10X C 1.3354(11) 0.5235(8) 0.2897(4) 0.1911 Uani
C11X C 1.2712(9) 0.4457(9) 0.28070(19) 0.1280 Uani
C12X C 1.2214(5) 0.3912(6) 0.3064(2) 0.1436 Uani
Cu1I Cu 0.809886(13) 0.190114(13) 0.194909(11) 0.0348 Uani
O3I O 0.77465(18) 0.22535(18) 0.24182(13) 0.1200 Uani
H1I H 0.7815 0.2185 0.2630 0.1440 Uiso
H2I H 0.7490 0.2510 0.2371 0.1440 Uiso
Cu1B Cu 1.286438(18) 0.143219(13) 0.138424(11) 0.0348 Uani
Cu1F Cu 1.523448(13) 0.476552(13) 0.471757(11) 0.0348 Uani
Cu1H Cu 0.953105(18) 0.476552(13) 0.471757(11) 0.0348 Uani
Cu1J Cu 1.380229(18) 0.190114(13) 0.194909(11) 0.0348 Uani
Cu1O Cu 1.476552(13) 0.523448(13) 0.528243(11) 0.0348 Uani
Cu1P Cu 1.046895(18) 0.523448(13) 0.528243(11) 0.0348 Uani
O1I O 0.85157(14) 0.29523(13) 0.17021(5) 0.0517 Uani
O1U O 0.81510(14) 0.03810(13) 0.16312(5) 0.0517 Uani
O1DA O 0.70477(13) 0.14843(14) 0.17021(5) 0.0517 Uani
O2I O 0.89159(16) 0.25597(14) 0.12269(6) 0.0563 Uani
O2U O 0.77508(16) 0.07736(14) 0.21064(6) 0.0563 Uani
O2DA O 0.74403(14) 0.10841(16) 0.12269(6) 0.0563 Uani
loop_
_atom_site_aniso_label
_atom_site_aniso_U_11
_atom_site_aniso_U_22
_atom_site_aniso_U_33
_atom_site_aniso_U_23
_atom_site_aniso_U_13
_atom_site_aniso_U_12
Cu1 0.0450(3) 0.0450(3) 0.0270(3) -0.00101(9) 0.00101(9) 0.0320(2)
O1 0.0471(13) 0.0732(15) 0.0432(12) -0.0112(11) -0.0081(10) 0.0364(11)
O2 0.0517(13) 0.0833(17) 0.0499(12) -0.0166(12) -0.0114(11) 0.0457(13)
O3 0.136(3) 0.136(3) 0.088(3) -0.0405(16) 0.0405(16) 0.068(4)
C1 0.0482(18) 0.0558(19) 0.0454(17) -0.0031(14) -0.0038(14) 0.0340(16)
C2 0.0493(18) 0.063(3) 0.038(2) -0.007(2) -0.0033(10) 0.0315(14)
C3 0.0481(18) 0.069(2) 0.0451(17) -0.0108(15) -0.0094(14) 0.0358(17)
C4 0.062(2) 0.121(4) 0.059(2) -0.035(2) -0.0159(18) 0.065(3)
C5 0.074(2) 0.164(7) 0.058(3) -0.054(4) -0.0268(19) 0.082(3)
C6 0.082(3) 0.218(9) 0.073(4) -0.081(6) -0.040(3) 0.109(5)
C7 0.083(7) 0.256(17) 0.085(7) -0.101(9) -0.037(6) 0.100(9)
C8 0.22(4) 0.31(5) 0.051(11) -0.01(2) 0.006(17) 0.20(4)
C9 0.22(3) 0.16(3) 0.21(3) -0.15(3) -0.11(3) 0.12(3)
C10 0.18(3) 0.18(3) 0.12(2) -0.03(2) 0.06(2) 0.02(2)
C11 0.14(2) 0.16(2) 0.080(13) -0.091(15) -0.022(13) 0.072(18)
C12 0.097(8) 0.287(19) 0.084(7) -0.097(10) -0.035(6) 0.124(11)
O1P 0.0475 0.0732 0.0432 -0.0112 -0.0031 0.0368
O2P 0.0436 0.0833 0.0499 -0.0166 -0.0052 0.0376
C1P 0.036 0.0558 0.0454 -0.0031 0.0007 0.0218
C2P 0.0493 0.063 0.038 -0.007 -0.0037 0.0315
C3P 0.0455 0.069 0.0451 -0.0108 -0.0014 0.0332
C4P 0.053 0.121 0.059 -0.035 -0.0191 0.056
C5P 0.074 0.164 0.058 -0.054 -0.0272 0.082
C6P 0.082 0.218 0.073 -0.081 -0.041 0.109
C7P 0.139 0.256 0.085 -0.101 -0.064 0.156
C8P 0.13 0.31 0.051 -0.01 -0.016 0.11
C9P 0.14 0.16 0.21 -0.15 -0.04 0.04
C10P 0.32 0.18 0.12 -0.03 -0.09 0.16
C11P 0.156 0.16 0.08 -0.091 -0.069 0.088
C12P 0.136 0.287 0.084 -0.097 -0.062 0.163
O1V 0.0475 0.0732 0.0432 -0.0112 -0.0031 0.0368
O2V 0.0436 0.0833 0.0499 -0.0166 -0.0052 0.0376
C1V 0.036 0.0558 0.0454 -0.0031 0.0007 0.0218
C3V 0.0455 0.069 0.0451 -0.0108 -0.0014 0.0332
C4V 0.053 0.121 0.059 -0.035 -0.0191 0.056
C7V 0.139 0.256 0.085 -0.101 -0.064 0.156
C8V 0.13 0.31 0.051 -0.01 -0.016 0.11
C9V 0.14 0.16 0.21 -0.15 -0.04 0.04
C10V 0.32 0.18 0.12 -0.03 -0.09 0.16
C11V 0.156 0.16 0.08 -0.091 -0.069 0.088
C12V 0.136 0.287 0.084 -0.097 -0.062 0.163
O1X 0.0471 0.0732 0.0432 -0.0112 -0.0081 0.0364
O2X 0.0517 0.0833 0.0499 -0.0166 -0.0114 0.0457
C1X 0.0482 0.0558 0.0454 -0.0031 -0.0038 0.034
C3X 0.0481 0.069 0.0451 -0.0108 -0.0094 0.0358
C4X 0.062 0.121 0.059 -0.035 -0.0159 0.065
C7X 0.083 0.256 0.085 -0.101 -0.037 0.1
C8X 0.22 0.31 0.051 -0.01 0.006 0.2
C9X 0.22 0.16 0.21 -0.15 -0.11 0.12
C10X 0.18 0.18 0.12 -0.03 0.06 0.02
C11X 0.14 0.16 0.08 -0.091 -0.022 0.072
C12X 0.097 0.287 0.084 -0.097 -0.035 0.124
Cu1I 0.045 0.045 0.027 -0.00101 0.00101 0.032
O3I 0.136 0.136 0.088 -0.0405 0.0405 0.068
Cu1B 0.026 0.045 0.027 -0.00101 -0.00202 0.013
Cu1F 0.045 0.045 0.027 -0.00101 0.00101 0.032
Cu1H 0.026 0.045 0.027 -0.00101 -0.00202 0.013
Cu1J 0.026 0.045 0.027 -0.00101 -0.00202 0.013
Cu1O 0.045 0.045 0.027 -0.00101 0.00101 0.032
Cu1P 0.026 0.045 0.027 -0.00101 -0.00202 0.013
O1I 0.0732 0.0471 0.0432 0.0081 0.0112 0.0364
O1U 0.0732 0.0471 0.0432 0.0081 0.0112 0.0364
O1DA 0.0471 0.0732 0.0432 -0.0112 -0.0081 0.0364
O2I 0.0833 0.0517 0.0499 0.0114 0.0166 0.0457
O2U 0.0833 0.0517 0.0499 0.0114 0.0166 0.0457
O2DA 0.0517 0.0833 0.0499 -0.0166 -0.0114 0.0457
loop_
_geom_bond_atom_site_label_1
_geom_bond_atom_site_label_2
_geom_bond_site_symmetry_1
_geom_bond_site_symmetry_2
Cu1 O1 1_555 1_555
O1 C1 1_555 1_555
O2 C1 1_555 1_555
O3 Cu1 1_555 1_555
H1 O3 1_555 1_555
H2 O3 1_555 1_555
C1 C3 1_555 1_555
C2 H3 1_555 1_555
C3 C2 1_555 1_555
C4 C3 1_555 1_555
H4 C4 1_555 1_555
C5 C4 1_555 1_555
C6 C5 1_555 1_555
C7 C6 1_555 1_555
C8 C7 1_555 1_555
C9 C8 1_555 1_555
C10 C9 1_555 1_555
C11 C10 1_555 1_555
C12 C7 1_555 1_555
O1P C1P 1_555 1_555
O2P C1P 1_555 1_555
C1P C3P 1_555 1_555
C2P H3P 1_555 1_555
C3P C2P 1_555 1_555
C4P C3P 1_555 1_555
H4P C4P 1_555 1_555
C5P C4P 1_555 1_555
C6P C12 1_555 1_555
C7P C6P 1_555 1_555
C8P C7P 1_555 1_555
C9P C8P 1_555 1_555
C10P C9P 1_555 1_555
C11P C10P 1_555 1_555
C12P C6 1_555 1_555
O1V C1V 1_555 1_555
O2V C1V 1_555 1_555
C1V C3V 1_555 1_555
C3V C2 1_555 1_555
C4V C5 1_555 1_555
H4V C4V 1_555 1_555
C7V C6 1_555 1_555
C8V C7V 1_555 1_555
C9V C8V 1_555 1_555
C10V C9V 1_555 1_555
C11V C11 1_555 1_555
C12V C7 1_555 1_555
O1X C1X 1_555 1_555
O2X C1X 1_555 1_555
C1X C3X 1_555 1_555
C3X C2P 1_555 1_555
C4X C5P 1_555 1_555
H4X C4X 1_555 1_555
C7X C6P 1_555 1_555
C8X C7X 1_555 1_555
C9X C8X 1_555 1_555
C10X C9X 1_555 1_555
C11X C11P 1_555 1_555
C12X C6 1_555 1_555
Cu1I Cu1 1_555 1_555
O3I Cu1I 1_555 1_555
H1I O3I 1_555 1_555
H2I O3I 1_555 1_555
Cu1B O1V 1_555 1_555
Cu1F O2X 1_555 1_555
Cu1H O2P 1_555 1_555
Cu1J O2V 1_555 1_555
Cu1O O1X 1_555 1_555
Cu1P O1P 1_555 1_555
O1I Cu1I 1_555 1_555
O1U Cu1 1_555 1_555
O1DA Cu1I 1_555 1_555
O2I Cu1 1_555 1_555
O2U Cu1I 1_555 1_555
O2DA Cu1 1_555 1_555
O2 Cu1I 1_555 1_555
C7 C7V 1_555 1_555
C11 C12 1_555 1_555
C12 C7V 1_555 1_555
C12 C12V 1_555 1_555
C5P C6P 1_555 1_555
C6P C12V 1_555 1_555
C7P C12P 1_555 1_555
C7P C7X 1_555 1_555
C7P C12X 1_555 1_555
C11P C12P 1_555 1_555
C12P C7X 1_555 1_555
C12P C12X 1_555 1_555
C3V C4V 1_555 1_555
C7V C12V 1_555 1_555
C10V C11V 1_555 1_555
C11V C12V 1_555 1_555
C3X C4X 1_555 1_555
C7X C12X 1_555 1_555
C10X C11X 1_555 1_555
C11X C12X 1_555 1_555
Cu1B Cu1J 1_555 1_555
Cu1F Cu1O 1_555 1_555
Cu1H Cu1P 1_555 1_555

#END
