
#######################################################################
#
#                 Cambridge Crystallographic Data Centre
#                                CCDC 
#
#######################################################################
#
# If this CIF has been generated from an entry in the Cambridge 
# Structural Database, then it will include bibliographic, chemical, 
# crystal, experimental, refinement or atomic coordinate data resulting 
# from the CCDC's data processing and validation procedures.
#
#######################################################################

data_MEJQID
_chemical_formula_moiety         '(C15 H17 N7 O3 Zn1)n'
_symmetry_cell_setting           orthorhombic
_symmetry_space_group_name_H-M   'P n a 21'
_symmetry_Int_Tables_number      33
_space_group_name_Hall           'P 2c -2n'
loop_
_symmetry_equiv_pos_site_id
_symmetry_equiv_pos_as_xyz
1 x,y,z
2 -x,-y,1/2+z
3 1/2+x,1/2-y,z
4 1/2-x,1/2+y,1/2+z
_cell_length_a                   18.6627(5)
_cell_length_b                   10.5533(4)
_cell_length_c                   8.9082(3)
_cell_angle_alpha                90
_cell_angle_beta                 90
_cell_angle_gamma                90
_cell_volume                     1754.5
loop_
_atom_site_label
_atom_site_type_symbol
_atom_site_fract_x
_atom_site_fract_y
_atom_site_fract_z
_atom_site_U_iso_or_equiv
_atom_site_thermal_displace_type
Zn1 Zn -0.39907(5) 0.01529(10) 0.1295(3) 0.0246 Uani
C1 C -0.4974(8) 0.0235(11) -0.1303(19) 0.0290 Uani
H1 H -0.4700 -0.0376 -0.1788 0.0350 Uiso
N1 N -0.4782(5) 0.0749(9) 0.0039(11) 0.0290 Uani
N2 N -0.5361(5) 0.2312(9) 0.1567(13) 0.0397 Uani
C2 C -0.5948(6) 0.3059(11) 0.1564(18) 0.0437 Uani
H2 H -0.6004 0.3587 0.2392 0.0520 Uiso
N3 N -0.5593(5) 0.0684(9) -0.1873(12) 0.0303 Uani
C3 C -0.6402(6) 0.2391(11) -0.0652(17) 0.0367 Uani
N4 N -0.6438(5) 0.3128(10) 0.0559(12) 0.0377 Uani
C4 C -0.5812(6) 0.1569(10) -0.0796(14) 0.0280 Uani
C5 C -0.5323(6) 0.1598(10) 0.0332(13) 0.0270 Uani
N5 N -0.6932(5) 0.2490(11) -0.1709(14) 0.0503 Uani
H3 H -0.7277 0.3019 -0.1582 0.0600 Uiso
H4 H -0.6919 0.2022 -0.2499 0.0600 Uiso
O1 O -0.3387(4) -0.1152(8) 0.0368(10) 0.0373 Uani
N6 N -0.1659(5) -0.3503(9) -0.2800(12) 0.0317 Uani
O2 O -0.3060(5) 0.0332(8) -0.1271(12) 0.0490 Uani
C6 C -0.3043(6) -0.0753(11) -0.0776(14) 0.0293 Uani
C7 C -0.2570(6) -0.2980(11) -0.1048(14) 0.0363 Uani
H5 H -0.2870 -0.3239 -0.0271 0.0430 Uiso
C8 C -0.2560(6) -0.1725(11) -0.1543(15) 0.0320 Uani
C9 C -0.2111(7) -0.3833(12) -0.1772(18) 0.0437 Uani
H6 H -0.2132 -0.4683 -0.1498 0.0530 Uiso
C10 C -0.1662(6) -0.2302(12) -0.3287(16) 0.0463 Uani
H7 H -0.1362 -0.2072 -0.4076 0.0560 Uiso
C11 C -0.2104(6) -0.1388(12) -0.2634(16) 0.0413 Uani
H8 H -0.2083 -0.0550 -0.2956 0.0500 Uiso
Zn1A Zn -0.60093(5) -0.01529(10) -0.3705(3) 0.0246 Uani
Zn1C Zn -0.10093(5) -0.48471(10) -0.3705(3) 0.0246 Uani
N3A N -0.4407(5) -0.0684(9) 0.3127(12) 0.0303 Uani
N6C N -0.3341(5) 0.1497(9) 0.2200(12) 0.0317 Uani
O3 O -0.0611(10) -0.086(2) -0.620(3) 0.1500 Uiso
C12 C 0.0463(12) -0.044(2) -0.787(3) 0.1340 Uiso
H9 H 0.0341 -0.0091 -0.6902 0.2010 Uiso
H10 H 0.0516 0.0240 -0.8578 0.2010 Uiso
H11 H 0.0905 -0.0897 -0.7791 0.2010 Uiso
N7 N -0.0146(12) -0.135(2) -0.840(3) 0.1980 Uiso
C13 C -0.1532(15) -0.207(4) -0.737(4) 0.2700 Uiso
H12 H -0.1784 -0.1844 -0.6469 0.4030 Uiso
H13 H -0.1470 -0.2974 -0.7404 0.4030 Uiso
H14 H -0.1802 -0.1800 -0.8228 0.4030 Uiso
C14 C -0.0290(14) -0.221(3) -0.978(3) 0.1990 Uiso
H15 H -0.0753 -0.2599 -0.9685 0.2980 Uiso
H16 H 0.0072 -0.2854 -0.9839 0.2980 Uiso
H17 H -0.0279 -0.1705 -1.0679 0.2980 Uiso
C15 C -0.0791(14) -0.142(2) -0.738(3) 0.1690 Uiso
loop_
_atom_site_aniso_label
_atom_site_aniso_U_11
_atom_site_aniso_U_22
_atom_site_aniso_U_33
_atom_site_aniso_U_23
_atom_site_aniso_U_13
_atom_site_aniso_U_12
Zn1 0.0191 0.0334 0.0214 -0.002 -0.001 0.0013
C1 0.025 0.04 0.022 0.003 -0.003 0.004
N1 0.028 0.033 0.026 -0.005 -0.007 0.009
N2 0.042 0.042 0.035 -0.011 0.005 -0.003
C2 0.05 0.043 0.038 -0.015 -0.002 0.01
N3 0.025 0.036 0.03 0.001 -0.006 0.006
C3 0.024 0.035 0.051 0.009 0.006 0.004
N4 0.032 0.047 0.034 -0.015 -0.003 0.018
C4 0.025 0.026 0.033 0 0 0.002
C5 0.027 0.032 0.022 0.004 -0.003 -0.005
N5 0.038 0.069 0.044 -0.016 -0.015 0.024
O1 0.029 0.047 0.036 -0.003 0.012 0.009
N6 0.028 0.035 0.032 -0.003 0.009 0.002
O2 0.052 0.036 0.059 0.011 0.015 0.015
C6 0.025 0.036 0.027 -0.001 0.001 0.004
C7 0.037 0.037 0.035 0.004 0.025 0.003
C8 0.025 0.036 0.035 -0.003 -0.001 0.005
C9 0.041 0.038 0.052 0 0.006 0.006
C10 0.039 0.048 0.052 0.004 0.018 0
C11 0.041 0.033 0.05 0 0.011 0
Zn1A 0.0191 0.0334 0.0214 0.002 0.001 0.0013
Zn1C 0.0191 0.0334 0.0214 -0.002 0.001 -0.0013
N3A 0.025 0.036 0.03 -0.001 0.006 0.006
N6C 0.028 0.035 0.032 -0.003 -0.009 -0.002
loop_
_geom_bond_atom_site_label_1
_geom_bond_atom_site_label_2
_geom_bond_site_symmetry_1
_geom_bond_site_symmetry_2
Zn1 N1 1_555 1_555
C1 H1 1_555 1_555
N1 C1 1_555 1_555
N2 C2 1_555 1_555
C2 H2 1_555 1_555
N3 C1 1_555 1_555
C3 N4 1_555 1_555
N4 C2 1_555 1_555
C4 N3 1_555 1_555
C5 N1 1_555 1_555
N5 C3 1_555 1_555
H3 N5 1_555 1_555
H4 N5 1_555 1_555
O1 Zn1 1_555 1_555
N6 C9 1_555 1_555
O2 C6 1_555 1_555
C6 O1 1_555 1_555
C7 H5 1_555 1_555
C8 C6 1_555 1_555
C9 C7 1_555 1_555
H6 C9 1_555 1_555
C10 N6 1_555 1_555
H7 C10 1_555 1_555
C11 C8 1_555 1_555
H8 C11 1_555 1_555
O3 C15 1_555 1_555
C12 H9 1_555 1_555
H10 C12 1_555 1_555
H11 C12 1_555 1_555
N7 C12 1_555 1_555
C13 H12 1_555 1_555
H13 C13 1_555 1_555
H14 C13 1_555 1_555
C14 N7 1_555 1_555
H15 C14 1_555 1_555
H16 C14 1_555 1_555
H17 C14 1_555 1_555
C15 N7 1_555 1_555
Zn1A N3 1_555 1_555
Zn1C N6 1_555 1_555
N3A Zn1 1_555 1_555
N6C Zn1 1_555 1_555
N2 C5 1_555 1_555
C3 C4 1_555 1_555
C4 C5 1_555 1_555
C7 C8 1_555 1_555
C10 C11 1_555 1_555
C13 C15 1_555 1_555

#END
