
#######################################################################
#
#                 Cambridge Crystallographic Data Centre
#                                CCDC 
#
#######################################################################
#
# If this CIF has been generated from an entry in the Cambridge 
# Structural Database, then it will include bibliographic, chemical, 
# crystal, experimental, refinement or atomic coordinate data resulting 
# from the CCDC's data processing and validation procedures.
#
#######################################################################

data_IBOCIO
_chemical_formula_moiety         '(C18 H18 N7 O9 P3 Zn3)n'
_symmetry_cell_setting           triclinic
_symmetry_space_group_name_H-M   'P -1'
_symmetry_Int_Tables_number      2
_space_group_name_Hall           '-P 1'
loop_
_symmetry_equiv_pos_site_id
_symmetry_equiv_pos_as_xyz
1 x,y,z
2 -x,-y,-z
_cell_length_a                   8.621(5)
_cell_length_b                   15.529(8)
_cell_length_c                   16.001(7)
_cell_angle_alpha                62.121(12)
_cell_angle_beta                 76.294(19)
_cell_angle_gamma                88.84(2)
_cell_volume                     1829.34
loop_
_atom_site_label
_atom_site_type_symbol
_atom_site_fract_x
_atom_site_fract_y
_atom_site_fract_z
C1 C 0.4109(3) 0.2669(2) 0.5693(2)
H1 H 0.3818 0.2188 0.6381
H2 H 0.4038 0.3315 0.5644
C2 C 0.1526(3) 0.3015(2) 0.5271(2)
H3 H 0.1211 0.2985 0.5908
H4 H 0.0650 0.2693 0.5201
C3 C 0.2566(3) 0.1445(2) 0.5585(2)
H5 H 0.1667 0.1199 0.6161
H6 H 0.3477 0.1097 0.5773
C4 C 0.6233(3) 0.5780(3) 0.2994(2)
H7 H 0.5245 0.5664 0.3439
C5 C 0.6541(3) 0.6363(3) 0.2016(2)
H8 H 0.5825 0.6727 0.1667
C6 C 0.8732(3) 0.5724(3) 0.2397(2)
H9 H 0.9791 0.5578 0.2343
C7 C 1.4092(5) 0.5432(3) -0.1264(3)
H10 H 1.4651 0.4887 -0.1156
C8 C 1.2856(5) 0.5491(3) -0.0587(3)
H11 H 1.2418 0.5006 0.0053
C9 C 1.3339(4) 0.6851(3) -0.1954(2)
H12 H 1.3261 0.7487 -0.2418
C10 C 0.7906(6) 1.0353(4) -0.2407(3)
H13 H 0.7428 1.0926 -0.2520
C11 C 0.8197(6) 0.9706(4) -0.1552(3)
H14 H 0.7960 0.9752 -0.0977
C12 C 0.9028(4) 0.9211(3) -0.2623(2)
H15 H 0.9491 0.8835 -0.2909
C13 C 1.1096(3) 0.6831(3) -0.0670(2)
C14 C 1.0674(4) 0.7719(3) -0.1327(2)
H16 H 1.1258 0.8044 -0.1978
C15 C 0.9380(4) 0.8103(3) -0.0991(2)
C16 C 0.8526(4) 0.7660(3) -0.0010(2)
H17 H 0.7672 0.7942 0.0210
C17 C 0.8990(4) 0.6792(3) 0.0624(2)
C18 C 1.0270(4) 0.6354(3) 0.0316(2)
H18 H 1.0562 0.5765 0.0753
N1 N 0.7612(3) 0.5384(2) 0.32264(17)
N2 N 1.4390(3) 0.6291(2) -0.21264(18)
N3 N 0.8424(3) 1.0035(2) -0.30892(19)
N4 N 0.8141(3) 0.6310(2) 0.16388(18)
N5 N 1.2394(3) 0.6412(2) -0.10426(18)
N6 N 0.8897(3) 0.8977(2) -0.16836(19)
N7 N 0.2968(2) 0.25070(18) 0.52008(17)
O1 O 0.6494(2) 0.15043(16) 0.55953(17)
O2 O 0.7266(2) 0.31723(16) 0.53357(15)
O3 O 0.6266(2) 0.30056(18) 0.40482(15)
O4 O 0.2327(3) 0.01661(18) 0.49253(19)
O5 O 0.0300(2) 0.14143(17) 0.46329(15)
O6 O 0.3214(2) 0.19515(18) 0.36873(16)
O7 O 0.0364(2) 0.47052(17) 0.41235(15)
O8 O 0.2832(2) 0.48604(16) 0.46433(15)
O9 O 0.2983(2) 0.42767(16) 0.34012(14)
P1 P 0.61696(8) 0.25692(6) 0.51338(5)
P2 P 0.20503(8) 0.12303(6) 0.46496(6)
P3 P 0.19245(8) 0.42996(5) 0.43104(5)
Zn1 Zn 0.80531(3) 0.45544(2) 0.45335(2)
Zn2 Zn 0.42854(3) 0.31814(3) 0.35522(2)
Zn3 Zn 0.82266(4) 0.07120(2) 0.55355(2)
N2A N 0.5610(3) 0.3709(2) 0.21264(18)
N3_2 N 0.8424(3) 0.0035(2) 0.69108(19)
O4A O 0.7673(3) -0.01661(18) 0.50747(19)
O5_2 O 1.0300(2) 0.14143(17) 0.46329(15)
O7_2 O 1.0364(2) 0.47052(17) 0.41235(15)
O8A O 0.7168(2) 0.51396(16) 0.53567(15)
Zn1_2 Zn -0.19469(3) 0.45544(2) 0.45335(2)
Zn1A Zn 0.19469(3) 0.54456(2) 0.54665(2)
Zn2A Zn 1.57146(3) 0.68186(3) -0.35522(2)
Zn3_2 Zn -0.17734(4) 0.07120(2) 0.55355(2)
Zn3_3 Zn 0.82266(4) 1.07120(2) -0.44645(2)
Zn3A Zn 0.17734(4) -0.07120(2) 0.44645(2)
loop_
_geom_bond_atom_site_label_1
_geom_bond_atom_site_label_2
_geom_bond_site_symmetry_1
_geom_bond_site_symmetry_2
C1 H1 1_555 1_555
H2 C1 1_555 1_555
C2 H3 1_555 1_555
H4 C2 1_555 1_555
C3 H5 1_555 1_555
H6 C3 1_555 1_555
C4 H7 1_555 1_555
C5 C4 1_555 1_555
H8 C5 1_555 1_555
C6 H9 1_555 1_555
C7 H10 1_555 1_555
C8 C7 1_555 1_555
H11 C8 1_555 1_555
C9 H12 1_555 1_555
C10 H13 1_555 1_555
C11 C10 1_555 1_555
H14 C11 1_555 1_555
C12 H15 1_555 1_555
C13 C14 1_555 1_555
C14 H16 1_555 1_555
C15 C14 1_555 1_555
C16 C15 1_555 1_555
H17 C16 1_555 1_555
C17 C16 1_555 1_555
C18 C13 1_555 1_555
H18 C18 1_555 1_555
N1 C4 1_555 1_555
N2 C7 1_555 1_555
N3 C10 1_555 1_555
N4 C5 1_555 1_555
N5 C8 1_555 1_555
N6 C11 1_555 1_555
N7 C1 1_555 1_555
O1 P1 1_555 1_555
O2 P1 1_555 1_555
O3 P1 1_555 1_555
O4 P2 1_555 1_555
O5 P2 1_555 1_555
O6 P2 1_555 1_555
O7 P3 1_555 1_555
O8 P3 1_555 1_555
O9 P3 1_555 1_555
P1 C1 1_555 1_555
P2 C3 1_555 1_555
P3 C2 1_555 1_555
Zn1 N1 1_555 1_555
Zn2 N7 1_555 1_555
Zn3 O1 1_555 1_555
N2A Zn2 1_555 1_555
N3_2 Zn3 1_555 1_555
O4A Zn3 1_555 1_555
O5_2 Zn3 1_555 1_555
O7_2 Zn1 1_555 1_555
O8A Zn1 1_555 1_555
Zn1_2 O7 1_555 1_555
Zn1A O8 1_555 1_555
Zn2A N2 1_555 1_555
Zn3_2 O5 1_555 1_555
Zn3_3 N3 1_555 1_555
Zn3A O4 1_555 1_555
C2 N7 1_555 1_555
C3 N7 1_555 1_555
C6 N1 1_555 1_555
C6 N4 1_555 1_555
C9 N2 1_555 1_555
C9 N5 1_555 1_555
C12 N3 1_555 1_555
C12 N6 1_555 1_555
C13 N5 1_555 1_555
C15 N6 1_555 1_555
C17 C18 1_555 1_555
C17 N4 1_555 1_555
O2 Zn1 1_555 1_555
O3 Zn2 1_555 1_555
O6 Zn2 1_555 1_555
O9 Zn2 1_555 1_555

#END
