
#######################################################################
#
#                 Cambridge Crystallographic Data Centre
#                                CCDC 
#
#######################################################################
#
# If this CIF has been generated from an entry in the Cambridge 
# Structural Database, then it will include bibliographic, chemical, 
# crystal, experimental, refinement or atomic coordinate data resulting 
# from the CCDC's data processing and validation procedures.
#
#######################################################################

data_GALFAB
_chemical_formula_moiety         'C34 H27 Co3 N9 O4 S6'
_symmetry_cell_setting           monoclinic
_symmetry_space_group_name_H-M   'C 2/c'
_symmetry_Int_Tables_number      15
_space_group_name_Hall           '-C 2yc'
loop_
_symmetry_equiv_pos_site_id
_symmetry_equiv_pos_as_xyz
1 x,y,z
2 1/2+x,1/2+y,z
3 -x,y,1/2-z
4 1/2-x,1/2+y,1/2-z
5 -x,-y,-z
6 1/2-x,1/2-y,-z
7 x,-y,1/2+z
8 1/2+x,1/2-y,1/2+z
_cell_length_a                   22.65(4)
_cell_length_b                   16.34(2)
_cell_length_c                   12.57(5)
_cell_angle_alpha                90
_cell_angle_beta                 118.60(4)
_cell_angle_gamma                90
_cell_volume                     4084.53
loop_
_atom_site_label
_atom_site_type_symbol
_atom_site_fract_x
_atom_site_fract_y
_atom_site_fract_z
_atom_site_U_iso_or_equiv
_atom_site_thermal_displace_type
O3 O 0.1083(4) 0.1694(4) 0.4115(7) 0.1145 Uani
N4 N 0.1607(5) 0.2867(4) 0.4921(8) 0.0966 Uani
C17 C 0.1174(15) 0.2447(11) 0.397(2) 0.1290 Uani
C19 C 0.2063(14) 0.2303(16) 0.608(2) 0.1279 Uani
C21 C 0.1931(12) 0.3665(12) 0.5197(19) 0.0896 Uani
Co1 Co 0.2500 0.2500 0.0000 0.0356 Uani
S1 S 0.07841(6) -0.02947(7) 0.14012(12) 0.0325 Uani
S2 S -0.03558(10) 0.35970(13) -0.4858(2) 0.0890 Uani
S3 S 0.20098(12) 0.44765(18) 0.2331(2) 0.1041 Uani
O1 O 0.0000 -0.0923(3) 0.2500 0.0377 Uani
O2 O -0.0251(7) 0.5842(9) -0.3648(13) 0.1088 Uani
N1 N 0.1896(2) 0.1589(3) 0.0359(4) 0.0392 Uani
N2 N 0.1591(2) 0.2893(3) -0.1582(4) 0.0374 Uani
N3 N 0.2338(2) 0.3380(3) 0.1036(4) 0.0407 Uani
C1 C 0.1554(3) 0.1812(3) 0.0915(6) 0.0458 Uani
H1 H 0.1556 0.2375 0.1103 0.0550 Uiso
C2 C 0.1200(3) 0.1292(3) 0.1239(6) 0.0488 Uani
H2 H 0.0965 0.1495 0.1639 0.0590 Uiso
C3 C 0.1826(3) 0.0808(3) 0.0007(5) 0.0436 Uani
H3 H 0.2024 0.0639 -0.0473 0.0520 Uiso
C4 C 0.1482(3) 0.0234(3) 0.0300(5) 0.0407 Uani
H4 H 0.1452 -0.0316 0.0032 0.0490 Uiso
C5 C 0.1182(2) 0.0462(3) 0.0984(5) 0.0316 Uani
C6 C 0.0356(3) 0.0328(3) 0.1996(5) 0.0313 Uani
H5 H 0.0685 0.0686 0.2643 0.0370 Uiso
H6 H 0.0025 0.0682 0.1344 0.0370 Uiso
C7 C 0.0000 -0.0188(4) 0.2500 0.0288 Uani
C8 C 0.1146(4) 0.2386(4) -0.2286(8) 0.0940 Uani
H7 H 0.1232 0.1821 -0.2102 0.1120 Uiso
C9 C 0.0557(4) 0.2592(4) -0.3280(8) 0.0885 Uani
H8 H 0.0252 0.2174 -0.3751 0.1060 Uiso
C10 C 0.1433(5) 0.3633(5) -0.1803(10) 0.1276 Uani
H9 H 0.1725 0.4028 -0.1245 0.1540 Uiso
C11 C 0.0877(6) 0.3902(5) -0.2783(11) 0.1707 Uani
H10 H 0.0797 0.4471 -0.2937 0.2050 Uiso
C12 C 0.0415(3) 0.3322(4) -0.3579(6) 0.0609 Uani
C13 C -0.0189(7) 0.4674(9) -0.5126(15) 0.0671 Uani
C14 C -0.0638(7) 0.4530(11) -0.4398(17) 0.0900 Uani
C15 C -0.0225(7) 0.5246(9) -0.4293(14) 0.0653 Uani
C16 C 0.2187(3) 0.3829(4) 0.1557(5) 0.0434 Uani
Co1G Co -0.2500 0.2500 0.5000 0.0356 Uani
Co1A Co -0.2500 0.7500 -1.0000 0.0356 Uani
S1B S -0.07841(6) -0.02947(7) 0.35988(12) 0.0325 Uani
S2D S 0.03558(10) 0.64030(13) -0.5142(2) 0.0890 Uani
S3E S 0.29902(12) 0.05235(18) -0.2331(2) 0.1041 Uani
O2D O 0.0251(7) 0.4158(9) -0.6352(13) 0.1088 Uani
N1B N -0.1896(2) 0.1589(3) 0.4641(4) 0.0392 Uani
N1E N 0.3104(2) 0.3411(3) -0.0359(4) 0.0392 Uani
N2D N -0.1591(2) 0.7107(3) -0.8418(4) 0.0374 Uani
N2E N 0.3409(2) 0.2107(3) 0.1582(4) 0.0374 Uani
N3E N 0.2662(2) 0.1620(3) -0.1036(4) 0.0407 Uani
C1B C -0.1554(3) 0.1812(3) 0.4085(6) 0.0458 Uani
H1B H -0.1556 0.2375 0.3897 0.0550 Uiso
C2B C -0.1200(3) 0.1292(3) 0.3761(6) 0.0488 Uani
H2B H -0.0965 0.1495 0.3361 0.0590 Uiso
C3B C -0.1826(3) 0.0808(3) 0.4993(5) 0.0436 Uani
H3B H -0.2024 0.0639 0.5473 0.0520 Uiso
C4B C -0.1482(3) 0.0234(3) 0.4700(5) 0.0407 Uani
H4B H -0.1452 -0.0316 0.4968 0.0490 Uiso
C5B C -0.1182(2) 0.0462(3) 0.4016(5) 0.0316 Uani
C6B C -0.0356(3) 0.0328(3) 0.3004(5) 0.0313 Uani
H5B H -0.0685 0.0686 0.2357 0.0370 Uiso
H6B H -0.0025 0.0682 0.3656 0.0370 Uiso
C8D C -0.1146(4) 0.7614(4) -0.7714(8) 0.0940 Uani
H7D H -0.1232 0.8179 -0.7898 0.1120 Uiso
C9D C -0.0557(4) 0.7408(4) -0.6720(8) 0.0885 Uani
H8D H -0.0252 0.7826 -0.6249 0.1060 Uiso
C10D C -0.1433(5) 0.6367(5) -0.8197(10) 0.1276 Uani
H9D H -0.1725 0.5972 -0.8755 0.1540 Uiso
C11D C -0.0877(6) 0.6098(5) -0.7217(11) 0.1707 Uani
H10D H -0.0797 0.5529 -0.7063 0.2050 Uiso
C12D C -0.0415(3) 0.6678(4) -0.6421(6) 0.0609 Uani
C13D C 0.0189(7) 0.5326(9) -0.4874(15) 0.0671 Uani
C14D C 0.0638(7) 0.5470(11) -0.5602(17) 0.0900 Uani
C15D C 0.0225(7) 0.4754(9) -0.5707(14) 0.0653 Uani
C16E C 0.2813(3) 0.1171(4) -0.1557(5) 0.0434 Uani
loop_
_atom_site_aniso_label
_atom_site_aniso_U_11
_atom_site_aniso_U_22
_atom_site_aniso_U_33
_atom_site_aniso_U_23
_atom_site_aniso_U_13
_atom_site_aniso_U_12
O3 0.131(6) 0.061(4) 0.126(6) -0.032(4) 0.041(5) -0.005(4)
N4 0.161(8) 0.056(4) 0.114(6) -0.024(4) 0.099(6) -0.028(5)
C17 0.18(3) 0.11(2) 0.091(16) -0.011(15) 0.060(17) 0.041(18)
C19 0.16(2) 0.13(2) 0.092(15) 0.046(14) 0.059(16) 0.049(18)
C21 0.125(16) 0.061(11) 0.082(13) -0.020(10) 0.049(13) -0.025(11)
Co1 0.0382(7) 0.0268(6) 0.0562(7) -0.0023(4) 0.0341(6) -0.0045(4)
S1 0.0400(8) 0.0222(7) 0.0490(8) 0.0018(5) 0.0323(7) 0.0004(5)
S2 0.0553(12) 0.0620(13) 0.0985(16) 0.0256(11) -0.0045(11) -0.0142(9)
S3 0.0764(14) 0.127(2) 0.1016(17) -0.0691(16) 0.0368(13) 0.0036(14)
O1 0.047(3) 0.024(3) 0.057(3) 0.000 0.037(3) 0.000
O2 0.090(9) 0.113(11) 0.110(10) -0.010(9) 0.037(8) 0.007(8)
N1 0.043(3) 0.030(3) 0.060(3) -0.004(2) 0.037(2) -0.007(2)
N2 0.036(2) 0.029(3) 0.052(3) -0.001(2) 0.025(2) -0.005(2)
N3 0.044(3) 0.032(2) 0.058(3) -0.003(2) 0.034(3) -0.006(2)
C1 0.059(4) 0.023(3) 0.077(4) -0.008(3) 0.050(3) -0.007(3)
C2 0.066(4) 0.029(3) 0.082(4) -0.008(3) 0.060(4) -0.007(3)
C3 0.048(3) 0.039(3) 0.060(4) -0.005(3) 0.039(3) -0.006(3)
C4 0.047(3) 0.028(3) 0.058(3) -0.008(2) 0.034(3) -0.003(2)
C5 0.029(3) 0.030(3) 0.040(3) 0.000(2) 0.020(2) -0.003(2)
C6 0.039(3) 0.026(3) 0.041(3) -0.002(2) 0.029(3) -0.001(2)
C7 0.035(4) 0.023(4) 0.034(4) 0.000 0.021(3) 0.000
C8 0.089(6) 0.036(4) 0.094(6) -0.010(4) -0.007(5) -0.009(4)
C9 0.077(6) 0.040(4) 0.093(6) 0.000(4) -0.004(5) -0.013(4)
C10 0.088(6) 0.043(5) 0.130(8) 0.020(5) -0.046(6) -0.013(4)
C11 0.129(9) 0.046(5) 0.167(11) 0.024(6) -0.066(8) -0.016(6)
C12 0.037(3) 0.064(5) 0.067(4) 0.014(3) 0.013(3) -0.014(3)
C13 0.052(8) 0.050(8) 0.081(10) 0.024(8) 0.017(8) 0.010(6)
C14 0.047(9) 0.084(12) 0.104(13) 0.023(10) 0.008(9) -0.007(8)
C15 0.050(8) 0.049(8) 0.071(9) 0.010(7) 0.008(7) 0.001(6)
C16 0.041(3) 0.038(3) 0.052(3) -0.008(3) 0.023(3) -0.007(3)
Co1G 0.0382 0.0268 0.0562 0.0023 0.0341 0.0045
Co1A 0.0382 0.0268 0.0562 -0.0023 0.0341 -0.0045
S1B 0.04 0.0222 0.049 -0.0018 0.0323 -0.0004
S2D 0.0553 0.062 0.0985 0.0256 -0.0045 -0.0142
S3E 0.0764 0.127 0.1016 -0.0691 0.0368 0.0036
O2D 0.09 0.113 0.11 -0.01 0.037 0.007
N1B 0.043 0.03 0.06 0.004 0.037 0.007
N1E 0.043 0.03 0.06 -0.004 0.037 -0.007
N2D 0.036 0.029 0.052 -0.001 0.025 -0.005
N2E 0.036 0.029 0.052 -0.001 0.025 -0.005
N3E 0.044 0.032 0.058 -0.003 0.034 -0.006
C1B 0.059 0.023 0.077 0.008 0.05 0.007
C2B 0.066 0.029 0.082 0.008 0.06 0.007
C3B 0.048 0.039 0.06 0.005 0.039 0.006
C4B 0.047 0.028 0.058 0.008 0.034 0.003
C5B 0.029 0.03 0.04 0 0.02 0.003
C6B 0.039 0.026 0.041 0.002 0.029 0.001
C8D 0.089 0.036 0.094 -0.01 -0.007 -0.009
C9D 0.077 0.04 0.093 0 -0.004 -0.013
C10D 0.088 0.043 0.13 0.02 -0.046 -0.013
C11D 0.129 0.046 0.167 0.024 -0.066 -0.016
C12D 0.037 0.064 0.067 0.014 0.013 -0.014
C13D 0.052 0.05 0.081 0.024 0.017 0.01
C14D 0.047 0.084 0.104 0.023 0.008 -0.007
C15D 0.05 0.049 0.071 0.01 0.008 0.001
C16E 0.041 0.038 0.052 -0.008 0.023 -0.007
loop_
_geom_bond_atom_site_label_1
_geom_bond_atom_site_label_2
_geom_bond_site_symmetry_1
_geom_bond_site_symmetry_2
Co1 N1 1_555 1_555
S1 C5 1_555 1_555
S2 C12 1_555 1_555
S3 C16 1_555 1_555
O1 C7 1_555 1_555
O2 C15 1_555 1_555
O3 C17 1_555 1_555
N1 C1 1_555 1_555
N2 Co1 1_555 1_555
N3 Co1 1_555 1_555
N4 C17 1_555 1_555
C1 H1 1_555 1_555
C2 C1 1_555 1_555
H2 C2 1_555 1_555
C3 N1 1_555 1_555
H3 C3 1_555 1_555
C4 C3 1_555 1_555
H4 C4 1_555 1_555
C5 C2 1_555 1_555
C6 S1 1_555 1_555
H5 C6 1_555 1_555
H6 C6 1_555 1_555
C7 C6 1_555 1_555
C8 N2 1_555 1_555
H7 C8 1_555 1_555
C9 C8 1_555 1_555
H8 C9 1_555 1_555
C10 N2 1_555 1_555
H9 C10 1_555 1_555
C11 C10 1_555 1_555
H10 C11 1_555 1_555
C12 C9 1_555 1_555
C13 S2 1_555 1_555
C14 S2 1_555 1_555
C15 C13 1_555 1_555
C16 N3 1_555 1_555
C19 N4 1_555 1_555
C21 N4 1_555 1_555
Co1G N1B 1_555 1_555
Co1A N2D 1_555 1_555
S1B C5B 1_555 1_555
S2D C12D 1_555 1_555
S3E C16E 1_555 1_555
O2D C15D 1_555 1_555
N1B C1B 1_555 1_555
N1E Co1 1_555 1_555
N2D C8D 1_555 1_555
N2E Co1 1_555 1_555
N3E Co1 1_555 1_555
C1B H1B 1_555 1_555
C2B C1B 1_555 1_555
H2B C2B 1_555 1_555
C3B N1B 1_555 1_555
H3B C3B 1_555 1_555
C4B C3B 1_555 1_555
H4B C4B 1_555 1_555
C5B C2B 1_555 1_555
C6B C7 1_555 1_555
H5B C6B 1_555 1_555
H6B C6B 1_555 1_555
C8D H7D 1_555 1_555
C9D C8D 1_555 1_555
H8D C9D 1_555 1_555
C10D N2D 1_555 1_555
H9D C10D 1_555 1_555
C11D C10D 1_555 1_555
H10D C11D 1_555 1_555
C12D C9D 1_555 1_555
C13D C13 1_555 1_555
C14D S2D 1_555 1_555
C15D C13 1_555 1_555
C16E N3E 1_555 1_555
C4 C5 1_555 1_555
C11 C12 1_555 1_555
C13 C14 1_555 1_555
C14 C15 1_555 1_555
C15 C13D 1_555 1_555
S1B C6B 1_555 1_555
S2D C13D 1_555 1_555
C4B C5B 1_555 1_555
C11D C12D 1_555 1_555
C13D C14D 1_555 1_555
C13D C15D 1_555 1_555
C14D C15D 1_555 1_555

#END
