
#######################################################################
#
#                 Cambridge Crystallographic Data Centre
#                                CCDC 
#
#######################################################################
#
# If this CIF has been generated from an entry in the Cambridge 
# Structural Database, then it will include bibliographic, chemical, 
# crystal, experimental, refinement or atomic coordinate data resulting 
# from the CCDC's data processing and validation procedures.
#
#######################################################################

data_TEQTAM
_chemical_formula_moiety         '(C20 H14 Cd1 N4 O4 S2)n'
_symmetry_cell_setting           monoclinic
_symmetry_space_group_name_H-M   'P 21/c'
_symmetry_Int_Tables_number      14
_space_group_name_Hall           '-P 2ybc'
loop_
_symmetry_equiv_pos_site_id
_symmetry_equiv_pos_as_xyz
1 x,y,z
2 -x,1/2+y,1/2-z
3 -x,-y,-z
4 x,1/2-y,1/2+z
_cell_length_a                   9.2067(18)
_cell_length_b                   19.017(4)
_cell_length_c                   16.825(3)
_cell_angle_alpha                90
_cell_angle_beta                 100.56(3)
_cell_angle_gamma                90
_cell_volume                     2895.89
loop_
_atom_site_label
_atom_site_type_symbol
_atom_site_fract_x
_atom_site_fract_y
_atom_site_fract_z
_atom_site_U_iso_or_equiv
_atom_site_thermal_displace_type
Cd1 Cd 0.18226(3) 0.440270(13) 0.017154(16) 0.0245 Uani
S1 S -0.03125(12) 0.33444(5) 0.18486(6) 0.0358 Uani
S2 S 0.42510(13) 0.23636(5) 0.20953(6) 0.0390 Uani
O1 O -0.0517(3) 0.44821(13) 0.06179(14) 0.0339 Uani
O2 O -0.2579(3) 0.49689(12) 0.08532(15) 0.0344 Uani
O3 O 0.2544(3) 0.35116(13) 0.11539(17) 0.0458 Uani
O4 O 0.3970(3) 0.36343(13) 0.02319(17) 0.0455 Uani
N1 N 0.0625(4) 0.13751(15) 0.42045(18) 0.0306 Uani
N2 N -0.2275(4) 0.34286(16) 0.27558(19) 0.0379 Uani
N3 N 0.7183(4) 0.02351(15) 0.38731(17) 0.0271 Uani
N4 N 0.6429(4) 0.18966(16) 0.14847(19) 0.0376 Uani
C1 C 0.1052(5) 0.1467(2) 0.3488(3) 0.0420 Uani
H1 H 0.1744 0.1159 0.3344 0.0800 Uiso
C2 C 0.0507(5) 0.1999(2) 0.2958(2) 0.0429 Uani
H2 H 0.0830 0.2045 0.2468 0.0800 Uiso
C3 C -0.0522(5) 0.24655(19) 0.3160(2) 0.0301 Uani
C4 C -0.1005(5) 0.2361(2) 0.3879(3) 0.0491 Uani
H3 H -0.1715 0.2655 0.4031 0.0800 Uiso
C5 C -0.0414(6) 0.1810(2) 0.4370(3) 0.0520 Uani
H4 H -0.0765 0.1739 0.4848 0.0800 Uiso
C6 C -0.1114(4) 0.30602(18) 0.2640(2) 0.0292 Uani
C7 C -0.1628(4) 0.40036(18) 0.1664(2) 0.0281 Uani
C8 C -0.2576(5) 0.39648(19) 0.2205(2) 0.0351 Uani
C9 C -0.1570(4) 0.45189(18) 0.0998(2) 0.0254 Uani
C10 C -0.3887(5) 0.4433(2) 0.2240(3) 0.0568 Uani
H5 H -0.3548 0.4894 0.2415 0.0800 Uiso
H6 H -0.4495 0.4462 0.1712 0.0800 Uiso
H7 H -0.4453 0.4240 0.2614 0.0800 Uiso
C11 C 0.6135(5) 0.06949(19) 0.3985(2) 0.0309 Uani
H8 H 0.5744 0.0667 0.4456 0.0800 Uiso
C12 C 0.5614(5) 0.12101(19) 0.3423(2) 0.0342 Uani
H9 H 0.4891 0.1523 0.3520 0.0800 Uiso
C13 C 0.6180(5) 0.12576(18) 0.2711(2) 0.0311 Uani
C14 C 0.7239(5) 0.0760(2) 0.2590(2) 0.0405 Uani
H10 H 0.7615 0.0759 0.2113 0.0800 Uiso
C15 C 0.7721(5) 0.0269(2) 0.3185(2) 0.0372 Uani
H11 H 0.8446 -0.0051 0.3106 0.0800 Uiso
C16 C 0.5720(5) 0.18003(18) 0.2090(2) 0.0322 Uani
C17 C 0.4609(5) 0.27531(19) 0.1231(2) 0.0344 Uani
C18 C 0.5802(5) 0.2438(2) 0.0999(2) 0.0383 Uani
C19 C 0.3653(5) 0.3342(2) 0.0846(2) 0.0350 Uani
C20 C 0.6451(6) 0.2609(2) 0.0262(3) 0.0599 Uani
H12 H 0.5983 0.2326 -0.0184 0.0800 Uiso
H13 H 0.7492 0.2514 0.0372 0.0800 Uiso
H14 H 0.6291 0.3097 0.0130 0.0800 Uiso
Cd1B Cd -0.18226(3) 0.559730(13) -0.017154(16) 0.0245 Uani
Cd1C Cd 0.18226(3) 0.059730(13) 0.517154(16) 0.0245 Uani
Cd1A Cd 0.81774(3) -0.059730(13) 0.482846(16) 0.0245 Uani
O2B O 0.2579(3) 0.50311(12) -0.08532(15) 0.0344 Uani
N1C N 0.0625(4) 0.36249(15) -0.07955(18) 0.0306 Uani
N3A N 0.2817(4) 0.52351(15) 0.11269(17) 0.0271 Uani
loop_
_atom_site_aniso_label
_atom_site_aniso_U_11
_atom_site_aniso_U_22
_atom_site_aniso_U_33
_atom_site_aniso_U_23
_atom_site_aniso_U_13
_atom_site_aniso_U_12
Cd1 0.03211(17) 0.01777(14) 0.02202(15) -0.00004(13) 0.00105(11) 0.00031(14)
S1 0.0425 0.0329 0.0352 0.0149 0.0157 0.0094
S2 0.0429(8) 0.0358(6) 0.0418(6) 0.0153(5) 0.0167(6) 0.0142(5)
O1 0.0403 0.0357 0.0287 0.0074 0.0144 0.0018
O2 0.0374 0.0301 0.0361 0.0117 0.0081 0.0067
O3 0.046(2) 0.0404(17) 0.0550(19) 0.0192(14) 0.0201(17) 0.0188(15)
O4 0.049(2) 0.0406(17) 0.0489(18) 0.0236(14) 0.0142(16) 0.0152(15)
N1 0.037 0.0294 0.0266 0.0095 0.0088 0.0072
N2 0.04 0.038 0.04 0.0184 0.0186 0.0113
N3 0.032(2) 0.0263(17) 0.0208(17) 0.0016(14) -0.0007(15) -0.0023(15)
N4 0.043(2) 0.0363(19) 0.036(2) 0.0113(16) 0.0139(18) 0.0151(17)
C1 0.049 0.039 0.041 0.013 0.016 0.016
C2 0.055 0.042 0.038 0.02 0.025 0.012
C3 0.033 0.028 0.03 0.0105 0.008 0.0077
C4 0.057 0.052 0.046 0.024 0.03 0.029
C5 0.07 0.053 0.041 0.021 0.031 0.027
C6 0.027 0.032 0.028 0.0134 0.0034 0.0081
C7 0.034 0.019 0.031 0.0047 0.005 0.0014
C8 0.039 0.033 0.035 0.0113 0.011 0.005
C9 0.029 0.023 0.022 -0.0019 -0.001 -0.0007
C10 0.063 0.057 0.055 0.028 0.023 0.031
C11 0.035(3) 0.028(2) 0.030(2) 0.0019(18) 0.0066(19) 0.0043(19)
C12 0.035(3) 0.029(2) 0.038(2) 0.0049(19) 0.005(2) 0.0068(19)
C13 0.035(3) 0.027(2) 0.031(2) 0.0066(18) 0.005(2) 0.0077(19)
C14 0.050(3) 0.037(2) 0.036(2) 0.0094(19) 0.012(2) 0.019(2)
C15 0.042(3) 0.035(2) 0.034(2) 0.0065(19) 0.005(2) 0.017(2)
C16 0.037(3) 0.028(2) 0.032(2) 0.0059(18) 0.007(2) 0.0081(19)
C17 0.036(3) 0.031(2) 0.036(2) 0.0121(18) 0.006(2) 0.001(2)
C18 0.042(3) 0.037(2) 0.038(3) 0.015(2) 0.013(2) 0.006(2)
C19 0.038(3) 0.029(2) 0.035(2) 0.0047(19) -0.001(2) 0.003(2)
C20 0.065(4) 0.067(3) 0.057(3) 0.025(3) 0.036(3) 0.021(3)
Cd1B 0.03211 0.01777 0.02202 -4e-05 0.00105 0.00031
Cd1C 0.03211 0.01777 0.02202 4e-05 0.00105 -0.00031
Cd1A 0.03211 0.01777 0.02202 4e-05 0.00105 -0.00031
O2B 0.0374(19) 0.0301(14) 0.0361(16) 0.0117(12) 0.0081(14) 0.0067(14)
N1C 0.037 0.0294 0.0266 -0.0095 0.0088 -0.0072
N3A 0.032 0.0263 0.0208 -0.0016 -0.0007 0.0023
loop_
_geom_bond_atom_site_label_1
_geom_bond_atom_site_label_2
_geom_bond_site_symmetry_1
_geom_bond_site_symmetry_2
Cd1 O1 1_555 1_555
S1 C6 1_555 1_555
S2 C16 1_555 1_555
O1 C9 1_555 1_555
O2 C9 1_555 1_555
O3 Cd1 1_555 1_555
O4 Cd1 1_555 1_555
N1 C1 1_555 1_555
N2 C6 1_555 1_555
N3 C11 1_555 1_555
N4 C16 1_555 1_555
C1 H1 1_555 1_555
C2 C1 1_555 1_555
H2 C2 1_555 1_555
C3 C2 1_555 1_555
C4 C3 1_555 1_555
H3 C4 1_555 1_555
C5 N1 1_555 1_555
H4 C5 1_555 1_555
C6 C3 1_555 1_555
C7 S1 1_555 1_555
C8 N2 1_555 1_555
C9 C7 1_555 1_555
C10 C8 1_555 1_555
H5 C10 1_555 1_555
H6 C10 1_555 1_555
H7 C10 1_555 1_555
C11 H8 1_555 1_555
C12 C11 1_555 1_555
H9 C12 1_555 1_555
C13 C12 1_555 1_555
C14 C13 1_555 1_555
H10 C14 1_555 1_555
C15 N3 1_555 1_555
H11 C15 1_555 1_555
C16 C13 1_555 1_555
C17 S2 1_555 1_555
C18 N4 1_555 1_555
C19 O3 1_555 1_555
C20 C18 1_555 1_555
H12 C20 1_555 1_555
H13 C20 1_555 1_555
H14 C20 1_555 1_555
Cd1B O2 1_555 1_555
Cd1C N1 1_555 1_555
Cd1A N3 1_555 1_555
O2B Cd1 1_555 1_555
N1C Cd1 1_555 1_555
N3A Cd1 1_555 1_555
O4 C19 1_555 1_555
C4 C5 1_555 1_555
C7 C8 1_555 1_555
C14 C15 1_555 1_555
C17 C18 1_555 1_555
C17 C19 1_555 1_555

#END
