
#######################################################################
#
#                 Cambridge Crystallographic Data Centre
#                                CCDC 
#
#######################################################################
#
# If this CIF has been generated from an entry in the Cambridge 
# Structural Database, then it will include bibliographic, chemical, 
# crystal, experimental, refinement or atomic coordinate data resulting 
# from the CCDC's data processing and validation procedures.
#
#######################################################################

data_KAWHEY
_chemical_formula_moiety         '(C132 H78 N36 O27 Zn6)n'
_symmetry_cell_setting           orthorhombic
_symmetry_space_group_name_H-M   'C 2 2 21'
_symmetry_Int_Tables_number      20
_space_group_name_Hall           'C 2c 2'
loop_
_symmetry_equiv_pos_site_id
_symmetry_equiv_pos_as_xyz
1 x,y,z
2 -x,-y,1/2+z
3 -x,y,1/2-z
4 x,-y,-z
5 1/2+x,1/2+y,z
6 1/2-x,1/2-y,1/2+z
7 1/2-x,1/2+y,1/2-z
8 1/2+x,1/2-y,-z
_cell_length_a                   29.72(6)
_cell_length_b                   37.891(16)
_cell_length_c                   37.65(3)
_cell_angle_alpha                90
_cell_angle_beta                 90
_cell_angle_gamma                90
_cell_volume                     42398.4
loop_
_atom_site_label
_atom_site_type_symbol
_atom_site_fract_x
_atom_site_fract_y
_atom_site_fract_z
Zn1 Zn 0.53681(6) 0.66911(5) 0.78633(4)
Zn2 Zn 0.60698(6) 0.61645(5) 0.84238(4)
Zn3 Zn 0.67757(8) 0.56404(5) 0.89820(5)
O1 O 0.5000 0.6976(3) 0.7500
O2 O 0.3918(3) 0.3936(2) 1.2886(2)
O3 O 0.5359(3) 0.6171(3) 0.8451(2)
O4 O 0.1159(3) 0.82980(19) 1.1578(2)
O5 O 0.3871(4) 0.3742(2) 0.3974(2)
O6 O 0.8247(2) 0.1124(2) 0.6614(2)
O7 O 0.5012(3) 0.6657(2) 0.82881(15)
O8 O 0.3672(4) 0.4182(3) 0.4326(2)
O9 O 0.6002(4) 0.5625(3) 0.8517(2)
O10 O 0.6600(4) 0.5288(2) 0.8621(2)
O11 O 0.7150(5) 0.5315(3) 0.9300(3)
O12 O 0.4496(3) 0.3720(2) 1.25768(17)
O13 O 0.0887(4) 0.8011(2) 1.2046(2)
O14 O 0.7827(3) 0.1037(3) 0.6150(3)
C1 C 0.5074(6) 0.6412(4) 0.8512(3)
C2 C 0.4778(3) 0.6400(2) 0.88256(16)
C3 C 0.4496(3) 0.6680(2) 0.89092(19)
H1 H 0.4487 0.6878 0.8763
C4 C 0.4228(3) 0.6666(2) 0.9211(2)
H2 H 0.4040 0.6854 0.9267
C5 C 0.4242(3) 0.6370(3) 0.94301(17)
C6 C 0.4524(3) 0.6090(2) 0.9346(2)
H3 H 0.4534 0.5892 0.9493
C7 C 0.4792(3) 0.6104(2) 0.9044(2)
H4 H 0.4981 0.5916 0.8988
N1 N 0.3981(3) 0.6347(2) 0.97338(19)
C8 C 0.4021(4) 0.6172(3) 1.0044(2)
H5 H 0.4234 0.6000 1.0096
C9 C 0.3698(4) 0.6290(3) 1.0265(2)
N2 N 0.3459(3) 0.6539(3) 1.0092(2)
N3 N 0.3633(3) 0.6573(3) 0.9764(2)
C10 C 0.3558(3) 0.6177(2) 1.06061(17)
C11 C 0.3718(3) 0.5864(2) 1.0752(2)
H6 H 0.3914 0.5722 1.0623
C12 C 0.3586(3) 0.5764(2) 1.1092(2)
C13 C 0.3294(3) 0.5977(3) 1.12851(18)
H7 H 0.3206 0.5910 1.1512
C14 C 0.3133(3) 0.6289(2) 1.1139(2)
C15 C 0.3265(3) 0.6389(2) 1.0799(2)
H8 H 0.3158 0.6598 1.0701
C16 C 0.3740(4) 0.5409(3) 1.1240(2)
N4 N 0.4028(4) 0.5210(3) 1.1047(2)
N5 N 0.4163(3) 0.4936(3) 1.1251(2)
N6 N 0.3958(4) 0.4966(3) 1.1571(2)
C17 C 0.3696(4) 0.5258(3) 1.1564(2)
H9 H 0.3518 0.5340 1.1749
C18 C 0.4000(3) 0.4712(2) 1.18214(19)
C19 C 0.4376(3) 0.4493(2) 1.18188(19)
H10 H 0.4594 0.4520 1.1644
C20 C 0.4425(3) 0.4235(2) 1.2078(2)
H11 H 0.4677 0.4089 1.2076
C21 C 0.4100(3) 0.4195(2) 1.2340(2)
C22 C 0.3724(3) 0.4414(3) 1.2342(2)
H12 H 0.3506 0.4387 1.2518
C23 C 0.3674(3) 0.4672(2) 1.2083(2)
H13 H 0.3423 0.4818 1.2085
C24 C 0.4172(5) 0.3943(4) 1.2629(3)
C25 C 0.2826(4) 0.6510(3) 1.1350(3)
C26 C 0.2604(4) 0.6822(3) 1.1281(3)
H14 H 0.2631 0.6957 1.1076
N7 N 0.2334(4) 0.6897(3) 1.1569(3)
N8 N 0.2389(4) 0.6632(3) 1.1814(2)
N9 N 0.2693(4) 0.6393(3) 1.1680(3)
C27 C 0.2054(3) 0.7175(2) 1.1615(3)
C28 C 0.1808(4) 0.7185(2) 1.1929(2)
H15 H 0.1838 0.7005 1.2095
C29 C 0.1517(4) 0.7465(3) 1.1995(2)
H16 H 0.1353 0.7472 1.2205
C30 C 0.1472(3) 0.7734(2) 1.1747(3)
C31 C 0.1717(4) 0.7724(2) 1.1433(2)
H17 H 0.1687 0.7904 1.1267
C32 C 0.2008(3) 0.7444(3) 1.1367(2)
H18 H 0.2173 0.7437 1.1157
C33 C 0.1144(6) 0.8029(4) 1.1785(4)
C34 C 0.6232(6) 0.5353(4) 0.8462(4)
C35 C 0.6106(4) 0.5099(3) 0.8181(2)
C36 C 0.6415(3) 0.4848(3) 0.8068(3)
H19 H 0.6693 0.4829 0.8180
C37 C 0.6309(4) 0.4625(3) 0.7786(3)
H20 H 0.6516 0.4457 0.7711
C38 C 0.5894(4) 0.4653(3) 0.7618(2)
C39 C 0.5585(3) 0.4905(3) 0.7732(3)
H21 H 0.5308 0.4924 0.7619
C40 C 0.5691(3) 0.5127(3) 0.8013(3)
H22 H 0.5484 0.5295 0.8089
N10 N 0.5793(4) 0.4408(3) 0.7351(2)
C41 C 0.5956(4) 0.4106(3) 0.7240(3)
H23 H 0.6192 0.3982 0.7342
C42 C 0.5727(4) 0.4010(3) 0.6959(3)
N11 N 0.5422(3) 0.4252(3) 0.6896(2)
N12 N 0.5462(3) 0.4499(2) 0.7139(3)
C43 C 0.5767(4) 0.3693(2) 0.6746(3)
C44 C 0.6034(4) 0.3413(3) 0.6856(2)
H24 H 0.6181 0.3423 0.7074
C45 C 0.6083(4) 0.3117(2) 0.6642(3)
C46 C 0.5863(4) 0.3101(2) 0.6316(3)
H25 H 0.5896 0.2903 0.6172
C47 C 0.5596(4) 0.3381(3) 0.6205(2)
C48 C 0.5547(3) 0.3677(2) 0.6420(3)
H26 H 0.5368 0.3864 0.6346
N13 N 0.6581(4) 0.2802(3) 0.7065(3)
N14 N 0.6856(4) 0.2514(3) 0.7072(3)
N15 N 0.6845(4) 0.2361(3) 0.6745(3)
C49 C 0.6565(5) 0.2554(3) 0.6535(3)
H27 H 0.6497 0.2508 0.6299
C50 C 0.6402(4) 0.2827(3) 0.6733(3)
C51 C 0.7047(2) 0.2035(2) 0.6680(2)
C52 C 0.7021(3) 0.1856(2) 0.6359(2)
H28 H 0.6804 0.1920 0.6192
C53 C 0.7317(3) 0.1582(3) 0.6286(2)
H29 H 0.7300 0.1462 0.6071
C54 C 0.7641(2) 0.1486(2) 0.6535(3)
C55 C 0.7667(3) 0.1666(2) 0.6857(2)
H30 H 0.7884 0.1602 0.7023
C56 C 0.7371(3) 0.1940(2) 0.6929(2)
H31 H 0.7388 0.2060 0.7144
C57 C 0.7885(5) 0.1159(5) 0.6453(4)
C58 C 0.5371(4) 0.3354(3) 0.5842(2)
C59 C 0.5126(4) 0.3577(3) 0.5675(3)
H32 H 0.5047 0.3801 0.5754
N16 N 0.5008(4) 0.3436(3) 0.5380(3)
N17 N 0.5179(4) 0.3126(3) 0.5365(3)
N18 N 0.5405(4) 0.3076(3) 0.5651(3)
C60 C 0.4731(3) 0.3548(3) 0.5094(2)
C61 C 0.4669(3) 0.3337(2) 0.4796(3)
H33 H 0.4812 0.3119 0.4781
C62 C 0.4395(3) 0.3451(3) 0.4520(2)
H34 H 0.4353 0.3310 0.4321
C63 C 0.4182(3) 0.3777(3) 0.4542(2)
C64 C 0.4244(3) 0.3989(2) 0.4840(3)
H35 H 0.4102 0.4207 0.4855
C65 C 0.4519(3) 0.3874(3) 0.5116(2)
H36 H 0.4560 0.4015 0.5315
C66 C 0.3917(6) 0.3912(5) 0.4249(4)
Zn1B Zn 0.46319(6) 0.66911(5) 0.71367(4)
Zn2B Zn 0.39302(6) 0.61645(5) 0.65762(4)
Zn3B Zn 0.32243(8) 0.56404(5) 0.60180(5)
O2B O 0.6082(3) 0.3936(2) 0.2114(2)
O3B O 0.4641(3) 0.6171(3) 0.6549(2)
O4B O 0.8841(3) 0.82980(19) 0.3422(2)
O5B O 0.6129(4) 0.3742(2) 1.1026(2)
O6B O 0.1753(2) 0.1124(2) 0.8386(2)
O7B O 0.4988(3) 0.6657(2) 0.67119(15)
O8B O 0.6328(4) 0.4182(3) 1.0674(2)
O9B O 0.3998(4) 0.5625(3) 0.6483(2)
O10B O 0.3400(4) 0.5288(2) 0.6379(2)
O11B O 0.2850(5) 0.5315(3) 0.5700(3)
O12B O 0.5504(3) 0.3720(2) 0.24232(17)
O13B O 0.9113(4) 0.8011(2) 0.2954(2)
O14B O 0.2173(3) 0.1037(3) 0.8850(3)
C1B C 0.4926(6) 0.6412(4) 0.6488(3)
C2B C 0.5222(3) 0.6400(2) 0.61744(16)
C3B C 0.5504(3) 0.6680(2) 0.60908(19)
H1B H 0.5513 0.6878 0.6237
C4B C 0.5772(3) 0.6666(2) 0.5789(2)
H2B H 0.5960 0.6854 0.5733
C5B C 0.5758(3) 0.6370(3) 0.55699(17)
C6B C 0.5476(3) 0.6090(2) 0.5654(2)
H3B H 0.5466 0.5892 0.5507
C7B C 0.5208(3) 0.6104(2) 0.5956(2)
H4B H 0.5019 0.5916 0.6012
N1B N 0.6019(3) 0.6347(2) 0.52662(19)
C8B C 0.5979(4) 0.6172(3) 0.4956(2)
H5B H 0.5766 0.6000 0.4904
C9B C 0.6302(4) 0.6290(3) 0.4735(2)
N2B N 0.6541(3) 0.6539(3) 0.4908(2)
N3B N 0.6367(3) 0.6573(3) 0.5236(2)
C10B C 0.6442(3) 0.6177(2) 0.43939(17)
C11B C 0.6282(3) 0.5864(2) 0.4248(2)
H6B H 0.6086 0.5722 0.4377
C12B C 0.6414(3) 0.5764(2) 0.3908(2)
C13B C 0.6706(3) 0.5977(3) 0.37149(18)
H7B H 0.6794 0.5910 0.3488
C14B C 0.6867(3) 0.6289(2) 0.3861(2)
C15B C 0.6735(3) 0.6389(2) 0.4201(2)
H8B H 0.6842 0.6598 0.4299
C16B C 0.6260(4) 0.5409(3) 0.3760(2)
N4B N 0.5972(4) 0.5210(3) 0.3953(2)
N5B N 0.5837(3) 0.4936(3) 0.3749(2)
N6B N 0.6042(4) 0.4966(3) 0.3429(2)
C17B C 0.6304(4) 0.5258(3) 0.3436(2)
H9B H 0.6482 0.5340 0.3251
C18B C 0.6000(3) 0.4712(2) 0.31786(19)
C19B C 0.5624(3) 0.4493(2) 0.31812(19)
H10B H 0.5406 0.4520 0.3356
C20B C 0.5575(3) 0.4235(2) 0.2922(2)
H11B H 0.5323 0.4089 0.2924
C21B C 0.5900(3) 0.4195(2) 0.2660(2)
C22B C 0.6276(3) 0.4414(3) 0.2658(2)
H12B H 0.6494 0.4387 0.2482
C23B C 0.6326(3) 0.4672(2) 0.2917(2)
H13B H 0.6577 0.4818 0.2915
C24B C 0.5828(5) 0.3943(4) 0.2371(3)
C25B C 0.7174(4) 0.6510(3) 0.3650(3)
C26B C 0.7396(4) 0.6822(3) 0.3719(3)
H14B H 0.7369 0.6957 0.3924
N7B N 0.7666(4) 0.6897(3) 0.3431(3)
N8B N 0.7611(4) 0.6632(3) 0.3186(2)
N9B N 0.7307(4) 0.6393(3) 0.3320(3)
C27B C 0.7946(3) 0.7175(2) 0.3385(3)
C28B C 0.8192(4) 0.7185(2) 0.3071(2)
H15B H 0.8162 0.7005 0.2905
C29B C 0.8483(4) 0.7465(3) 0.3005(2)
H16B H 0.8647 0.7472 0.2795
C30B C 0.8528(3) 0.7734(2) 0.3253(3)
C31B C 0.8283(4) 0.7724(2) 0.3567(2)
H17B H 0.8313 0.7904 0.3733
C32B C 0.7992(3) 0.7444(3) 0.3633(2)
H18B H 0.7827 0.7437 0.3843
C33B C 0.8856(6) 0.8029(4) 0.3215(4)
C34B C 0.3768(6) 0.5353(4) 0.6538(4)
C35B C 0.3894(4) 0.5099(3) 0.6819(2)
C36B C 0.3585(3) 0.4848(3) 0.6932(3)
H19B H 0.3307 0.4829 0.6820
C37B C 0.3691(4) 0.4625(3) 0.7214(3)
H20B H 0.3484 0.4457 0.7289
C38B C 0.4106(4) 0.4653(3) 0.7382(2)
C39B C 0.4415(3) 0.4905(3) 0.7268(3)
H21B H 0.4692 0.4924 0.7381
C40B C 0.4309(3) 0.5127(3) 0.6987(3)
H22B H 0.4516 0.5295 0.6911
N10B N 0.4207(4) 0.4408(3) 0.7649(2)
C41B C 0.4044(4) 0.4106(3) 0.7760(3)
H23B H 0.3808 0.3982 0.7658
C42B C 0.4273(4) 0.4010(3) 0.8041(3)
N11B N 0.4578(3) 0.4252(3) 0.8104(2)
N12B N 0.4538(3) 0.4499(2) 0.7861(3)
C43B C 0.4233(4) 0.3693(2) 0.8254(3)
C44B C 0.3966(4) 0.3413(3) 0.8144(2)
H24B H 0.3819 0.3423 0.7926
C45B C 0.3917(4) 0.3117(2) 0.8358(3)
C46B C 0.4137(4) 0.3101(2) 0.8684(3)
H25B H 0.4104 0.2903 0.8828
C47B C 0.4404(4) 0.3381(3) 0.8795(2)
C48B C 0.4453(3) 0.3677(2) 0.8580(3)
H26B H 0.4632 0.3864 0.8654
N13B N 0.3419(4) 0.2802(3) 0.7935(3)
N14B N 0.3144(4) 0.2514(3) 0.7928(3)
N15B N 0.3155(4) 0.2361(3) 0.8255(3)
C49B C 0.3435(5) 0.2554(3) 0.8465(3)
H27B H 0.3503 0.2508 0.8701
C50B C 0.3598(4) 0.2827(3) 0.8267(3)
C51B C 0.2953(2) 0.2035(2) 0.8320(2)
C52B C 0.2979(3) 0.1856(2) 0.8641(2)
H28B H 0.3196 0.1920 0.8808
C53B C 0.2683(3) 0.1582(3) 0.8714(2)
H29B H 0.2700 0.1462 0.8929
C54B C 0.2359(2) 0.1486(2) 0.8465(3)
C55B C 0.2333(3) 0.1666(2) 0.8143(2)
H30B H 0.2116 0.1602 0.7977
C56B C 0.2629(3) 0.1940(2) 0.8071(2)
H31B H 0.2612 0.2060 0.7856
C57B C 0.2115(5) 0.1159(5) 0.8547(4)
C58B C 0.4629(4) 0.3354(3) 0.9158(2)
C59B C 0.4874(4) 0.3577(3) 0.9325(3)
H32B H 0.4953 0.3801 0.9246
N16B N 0.4992(4) 0.3436(3) 0.9620(3)
N17B N 0.4821(4) 0.3126(3) 0.9635(3)
N18B N 0.4595(4) 0.3076(3) 0.9349(3)
C60B C 0.5269(3) 0.3548(3) 0.9906(2)
C61B C 0.5331(3) 0.3337(2) 1.0204(3)
H33B H 0.5188 0.3119 1.0219
C62B C 0.5605(3) 0.3451(3) 1.0480(2)
H34B H 0.5647 0.3310 1.0679
C63B C 0.5818(3) 0.3777(3) 1.0458(2)
C64B C 0.5756(3) 0.3989(2) 1.0160(3)
H35B H 0.5898 0.4207 1.0145
C65B C 0.5481(3) 0.3874(3) 0.9884(2)
H36B H 0.5440 0.4015 0.9685
C66B C 0.6083(6) 0.3912(5) 1.0751(4)
Zn1A Zn 0.46319(6) 0.33089(5) 1.28633(4)
Zn1C Zn 0.53681(6) 0.33089(5) 0.21367(4)
Zn1E Zn 0.96319(6) 0.83089(5) 0.28633(4)
Zn1G Zn 0.03681(6) 0.83089(5) 1.21367(4)
Zn2A Zn 0.39302(6) 0.38355(5) 0.34238(4)
Zn2A_2 Zn 0.39302(6) 0.38355(5) 1.34238(4)
Zn2C Zn 0.60698(6) 0.38355(5) 0.15762(4)
Zn2C_2 Zn 0.60698(6) 0.38355(5) 1.15762(4)
Zn2D Zn 0.10698(6) 0.11645(5) 0.84238(4)
Zn2E Zn 0.89302(6) 0.88355(5) 0.34238(4)
Zn2F Zn 0.89302(6) 0.11645(5) 0.65762(4)
Zn2G Zn 0.10698(6) 0.88355(5) 1.15762(4)
Zn3A Zn 0.32243(8) 0.43596(5) 0.39820(5)
Zn3C Zn 0.67757(8) 0.43596(5) 1.10180(5)
Zn3D Zn 0.17757(8) 0.06404(5) 0.89820(5)
Zn3F Zn 0.82243(8) 0.06404(5) 0.60180(5)
O2A O 0.6082(3) 0.6064(2) 0.7886(2)
O2C O 0.3918(3) 0.6064(2) 0.7114(2)
O4E O 0.3841(3) 0.67020(19) 0.6578(2)
O4G O 0.6159(3) 0.67020(19) 0.8422(2)
O5A O 0.6129(4) 0.6258(2) 0.8974(2)
O5C O 0.3871(4) 0.6258(2) 0.6026(2)
O6D O 0.3247(2) 0.6124(2) 0.6614(2)
O6F O 0.6753(2) 0.6124(2) 0.8386(2)
O8A O 0.6328(4) 0.5818(3) 0.9326(2)
O8C O 0.3672(4) 0.5818(3) 0.5674(2)
O12A O 0.5504(3) 0.6280(2) 0.75768(17)
O12C O 0.4496(3) 0.6280(2) 0.74232(17)
O13E O 0.4113(4) 0.6989(2) 0.7046(2)
O13G O 0.5887(4) 0.6989(2) 0.7954(2)
O14D O 0.2827(3) 0.6037(3) 0.6150(3)
O14F O 0.7173(3) 0.6037(3) 0.8850(3)
loop_
_geom_bond_atom_site_label_1
_geom_bond_atom_site_label_2
_geom_bond_site_symmetry_1
_geom_bond_site_symmetry_2
Zn1 O1 1_555 1_555
Zn2 O3 1_555 1_555
Zn3 O10 1_555 1_555
O1 Zn1B 1_555 1_555
O2 C24 1_555 1_555
O3 C1 1_555 1_555
O4 C33 1_555 1_555
O5 C66 1_555 1_555
O6 C57 1_555 1_555
O7 Zn1 1_555 1_555
O8 C66 1_555 1_555
O9 Zn2 1_555 1_555
O10 C34 1_555 1_555
O11 Zn3 1_555 1_555
O12 C24 1_555 1_555
O13 C33 1_555 1_555
O14 C57 1_555 1_555
C1 O7 1_555 1_555
C2 C1 1_555 1_555
C3 C2 1_555 1_555
H1 C3 1_555 1_555
C4 C3 1_555 1_555
H2 C4 1_555 1_555
C5 C4 1_555 1_555
C6 C5 1_555 1_555
H3 C6 1_555 1_555
C7 C2 1_555 1_555
H4 C7 1_555 1_555
N1 C5 1_555 1_555
C8 N1 1_555 1_555
H5 C8 1_555 1_555
C9 C8 1_555 1_555
N2 C9 1_555 1_555
N3 N1 1_555 1_555
C10 C9 1_555 1_555
C11 C10 1_555 1_555
H6 C11 1_555 1_555
C12 C11 1_555 1_555
C13 C12 1_555 1_555
H7 C13 1_555 1_555
C14 C13 1_555 1_555
C15 C10 1_555 1_555
H8 C15 1_555 1_555
C16 C12 1_555 1_555
N4 C16 1_555 1_555
N5 N4 1_555 1_555
N6 N5 1_555 1_555
C17 C16 1_555 1_555
H9 C17 1_555 1_555
C18 N6 1_555 1_555
C19 C18 1_555 1_555
H10 C19 1_555 1_555
C20 C19 1_555 1_555
H11 C20 1_555 1_555
C21 C20 1_555 1_555
C22 C21 1_555 1_555
H12 C22 1_555 1_555
C23 C18 1_555 1_555
H13 C23 1_555 1_555
C24 C21 1_555 1_555
C25 C14 1_555 1_555
C26 C25 1_555 1_555
H14 C26 1_555 1_555
N7 C26 1_555 1_555
N8 N7 1_555 1_555
N9 C25 1_555 1_555
C27 N7 1_555 1_555
C28 C27 1_555 1_555
H15 C28 1_555 1_555
C29 C28 1_555 1_555
H16 C29 1_555 1_555
C30 C29 1_555 1_555
C31 C30 1_555 1_555
H17 C31 1_555 1_555
C32 C27 1_555 1_555
H18 C32 1_555 1_555
C33 C30 1_555 1_555
C34 O9 1_555 1_555
C35 C34 1_555 1_555
C36 C35 1_555 1_555
H19 C36 1_555 1_555
C37 C36 1_555 1_555
H20 C37 1_555 1_555
C38 C37 1_555 1_555
C39 C38 1_555 1_555
H21 C39 1_555 1_555
C40 C35 1_555 1_555
H22 C40 1_555 1_555
N10 C38 1_555 1_555
C41 N10 1_555 1_555
H23 C41 1_555 1_555
C42 C41 1_555 1_555
N11 C42 1_555 1_555
N12 N10 1_555 1_555
C43 C42 1_555 1_555
C44 C43 1_555 1_555
H24 C44 1_555 1_555
C45 C44 1_555 1_555
C46 C45 1_555 1_555
H25 C46 1_555 1_555
C47 C46 1_555 1_555
C48 C43 1_555 1_555
H26 C48 1_555 1_555
N13 N14 1_555 1_555
N14 N15 1_555 1_555
N15 C49 1_555 1_555
C49 H27 1_555 1_555
C50 C45 1_555 1_555
C51 N15 1_555 1_555
C52 C51 1_555 1_555
H28 C52 1_555 1_555
C53 C52 1_555 1_555
H29 C53 1_555 1_555
C54 C53 1_555 1_555
C55 C54 1_555 1_555
H30 C55 1_555 1_555
C56 C51 1_555 1_555
H31 C56 1_555 1_555
C57 C54 1_555 1_555
C58 C47 1_555 1_555
C59 C58 1_555 1_555
H32 C59 1_555 1_555
N16 C59 1_555 1_555
N17 N16 1_555 1_555
N18 C58 1_555 1_555
C60 N16 1_555 1_555
C61 C60 1_555 1_555
H33 C61 1_555 1_555
C62 C61 1_555 1_555
H34 C62 1_555 1_555
C63 C62 1_555 1_555
C64 C63 1_555 1_555
H35 C64 1_555 1_555
C65 C60 1_555 1_555
H36 C65 1_555 1_555
C66 C63 1_555 1_555
Zn1B O7B 1_555 1_555
Zn2B O3B 1_555 1_555
Zn3B O10B 1_555 1_555
O2B C24B 1_555 1_555
O3B C1B 1_555 1_555
O4B C33B 1_555 1_555
O5B C66B 1_555 1_555
O6B C57B 1_555 1_555
O7B C1B 1_555 1_555
O8B C66B 1_555 1_555
O9B Zn2B 1_555 1_555
O10B C34B 1_555 1_555
O11B Zn3B 1_555 1_555
O12B C24B 1_555 1_555
O13B C33B 1_555 1_555
O14B C57B 1_555 1_555
C1B C2B 1_555 1_555
C2B C3B 1_555 1_555
C3B H1B 1_555 1_555
C4B C3B 1_555 1_555
H2B C4B 1_555 1_555
C5B C4B 1_555 1_555
C6B C5B 1_555 1_555
H3B C6B 1_555 1_555
C7B C2B 1_555 1_555
H4B C7B 1_555 1_555
N1B C5B 1_555 1_555
C8B N1B 1_555 1_555
H5B C8B 1_555 1_555
C9B C8B 1_555 1_555
N2B C9B 1_555 1_555
N3B N1B 1_555 1_555
C10B C9B 1_555 1_555
C11B C10B 1_555 1_555
H6B C11B 1_555 1_555
C12B C11B 1_555 1_555
C13B C12B 1_555 1_555
H7B C13B 1_555 1_555
C14B C13B 1_555 1_555
C15B C10B 1_555 1_555
H8B C15B 1_555 1_555
C16B C12B 1_555 1_555
N4B C16B 1_555 1_555
N5B N4B 1_555 1_555
N6B N5B 1_555 1_555
C17B C16B 1_555 1_555
H9B C17B 1_555 1_555
C18B N6B 1_555 1_555
C19B C18B 1_555 1_555
H10B C19B 1_555 1_555
C20B C19B 1_555 1_555
H11B C20B 1_555 1_555
C21B C20B 1_555 1_555
C22B C21B 1_555 1_555
H12B C22B 1_555 1_555
C23B C18B 1_555 1_555
H13B C23B 1_555 1_555
C24B C21B 1_555 1_555
C25B C14B 1_555 1_555
C26B C25B 1_555 1_555
H14B C26B 1_555 1_555
N7B C26B 1_555 1_555
N8B N7B 1_555 1_555
N9B C25B 1_555 1_555
C27B N7B 1_555 1_555
C28B C27B 1_555 1_555
H15B C28B 1_555 1_555
C29B C28B 1_555 1_555
H16B C29B 1_555 1_555
C30B C29B 1_555 1_555
C31B C30B 1_555 1_555
H17B C31B 1_555 1_555
C32B C27B 1_555 1_555
H18B C32B 1_555 1_555
C33B C30B 1_555 1_555
C34B O9B 1_555 1_555
C35B C34B 1_555 1_555
C36B C35B 1_555 1_555
H19B C36B 1_555 1_555
C37B C36B 1_555 1_555
H20B C37B 1_555 1_555
C38B C37B 1_555 1_555
C39B C38B 1_555 1_555
H21B C39B 1_555 1_555
C40B C35B 1_555 1_555
H22B C40B 1_555 1_555
N10B C38B 1_555 1_555
C41B N10B 1_555 1_555
H23B C41B 1_555 1_555
C42B C41B 1_555 1_555
N11B C42B 1_555 1_555
N12B N10B 1_555 1_555
C43B C42B 1_555 1_555
C44B C43B 1_555 1_555
H24B C44B 1_555 1_555
C45B C44B 1_555 1_555
C46B C45B 1_555 1_555
H25B C46B 1_555 1_555
C47B C46B 1_555 1_555
C48B C43B 1_555 1_555
H26B C48B 1_555 1_555
N13B N14B 1_555 1_555
N14B N15B 1_555 1_555
N15B C49B 1_555 1_555
C49B H27B 1_555 1_555
C50B C45B 1_555 1_555
C51B N15B 1_555 1_555
C52B C51B 1_555 1_555
H28B C52B 1_555 1_555
C53B C52B 1_555 1_555
H29B C53B 1_555 1_555
C54B C53B 1_555 1_555
C55B C54B 1_555 1_555
H30B C55B 1_555 1_555
C56B C51B 1_555 1_555
H31B C56B 1_555 1_555
C57B C54B 1_555 1_555
C58B C47B 1_555 1_555
C59B C58B 1_555 1_555
H32B C59B 1_555 1_555
N16B C59B 1_555 1_555
N17B N16B 1_555 1_555
N18B C58B 1_555 1_555
C60B N16B 1_555 1_555
C61B C60B 1_555 1_555
H33B C61B 1_555 1_555
C62B C61B 1_555 1_555
H34B C62B 1_555 1_555
C63B C62B 1_555 1_555
C64B C63B 1_555 1_555
H35B C64B 1_555 1_555
C65B C60B 1_555 1_555
H36B C65B 1_555 1_555
C66B C63B 1_555 1_555
Zn1A O12 1_555 1_555
Zn1C O12B 1_555 1_555
Zn1E O13B 1_555 1_555
Zn1G O13 1_555 1_555
Zn2A O5 1_555 1_555
Zn2A_2 O2 1_555 1_555
Zn2C O2B 1_555 1_555
Zn2C_2 O5B 1_555 1_555
Zn2D O6B 1_555 1_555
Zn2E O4B 1_555 1_555
Zn2F O6 1_555 1_555
Zn2G O4 1_555 1_555
Zn3A O8 1_555 1_555
Zn3C O8B 1_555 1_555
Zn3D O14B 1_555 1_555
Zn3F O14 1_555 1_555
O2A Zn2 1_555 1_555
O2C Zn2B 1_555 1_555
O4E Zn2B 1_555 1_555
O4G Zn2 1_555 1_555
O5A Zn2 1_555 1_555
O5C Zn2B 1_555 1_555
O6D Zn2B 1_555 1_555
O6F Zn2 1_555 1_555
O8A Zn3 1_555 1_555
O8C Zn3B 1_555 1_555
O12A Zn1 1_555 1_555
O12C Zn1B 1_555 1_555
O13E Zn1B 1_555 1_555
O13G Zn1 1_555 1_555
O14D Zn3B 1_555 1_555
O14F Zn3 1_555 1_555
C6 C7 1_555 1_555
N2 N3 1_555 1_555
C14 C15 1_555 1_555
N6 C17 1_555 1_555
C22 C23 1_555 1_555
N8 N9 1_555 1_555
C31 C32 1_555 1_555
C39 C40 1_555 1_555
N11 N12 1_555 1_555
C47 C48 1_555 1_555
N13 C50 1_555 1_555
C49 C50 1_555 1_555
C55 C56 1_555 1_555
N17 N18 1_555 1_555
C64 C65 1_555 1_555
C6B C7B 1_555 1_555
N2B N3B 1_555 1_555
C14B C15B 1_555 1_555
N6B C17B 1_555 1_555
C22B C23B 1_555 1_555
N8B N9B 1_555 1_555
C31B C32B 1_555 1_555
C39B C40B 1_555 1_555
N11B N12B 1_555 1_555
C47B C48B 1_555 1_555
N13B C50B 1_555 1_555
C49B C50B 1_555 1_555
C55B C56B 1_555 1_555
N17B N18B 1_555 1_555
C64B C65B 1_555 1_555

#END
