
#######################################################################
#
#                 Cambridge Crystallographic Data Centre
#                                CCDC 
#
#######################################################################
#
# If this CIF has been generated from an entry in the Cambridge 
# Structural Database, then it will include bibliographic, chemical, 
# crystal, experimental, refinement or atomic coordinate data resulting 
# from the CCDC's data processing and validation procedures.
#
#######################################################################

data_NIMQAD
_chemical_formula_moiety         '(C36 H24 Cu4 N2 O22)n'
_symmetry_cell_setting           cubic
_symmetry_space_group_name_H-M   'F m -3 m'
_symmetry_Int_Tables_number      225
_space_group_name_Hall           '-F 4 2 3'
loop_
_symmetry_equiv_pos_site_id
_symmetry_equiv_pos_as_xyz
1 x,y,z
2 -y,x,z
3 -x,-y,z
4 y,-x,z
5 x,-y,-z
6 y,x,-z
7 -x,y,-z
8 -y,-x,-z
9 z,x,y
10 -x,z,y
11 -z,-x,y
12 x,-z,y
13 z,-x,-y
14 x,z,-y
15 -z,x,-y
16 -x,-z,-y
17 y,z,x
18 -z,-y,-x
19 -z,y,x
20 z,y,-x
21 z,-y,x
22 y,-z,-x
23 -y,-z,x
24 -y,z,-x
25 x,1/2+y,1/2+z
26 -y,1/2+x,1/2+z
27 -x,1/2-y,1/2+z
28 y,1/2-x,1/2+z
29 x,1/2-y,1/2-z
30 y,1/2+x,1/2-z
31 -x,1/2+y,1/2-z
32 -y,1/2-x,1/2-z
33 z,1/2+x,1/2+y
34 -x,1/2+z,1/2+y
35 -z,1/2-x,1/2+y
36 x,1/2-z,1/2+y
37 z,1/2-x,1/2-y
38 x,1/2+z,1/2-y
39 -z,1/2+x,1/2-y
40 -x,1/2-z,1/2-y
41 y,1/2+z,1/2+x
42 -z,1/2-y,1/2-x
43 -z,1/2+y,1/2+x
44 z,1/2+y,1/2-x
45 z,1/2-y,1/2+x
46 y,1/2-z,1/2-x
47 -y,1/2-z,1/2+x
48 -y,1/2+z,1/2-x
49 1/2+x,y,1/2+z
50 1/2-y,x,1/2+z
51 1/2-x,-y,1/2+z
52 1/2+y,-x,1/2+z
53 1/2+x,-y,1/2-z
54 1/2+y,x,1/2-z
55 1/2-x,y,1/2-z
56 1/2-y,-x,1/2-z
57 1/2+z,x,1/2+y
58 1/2-x,z,1/2+y
59 1/2-z,-x,1/2+y
60 1/2+x,-z,1/2+y
61 1/2+z,-x,1/2-y
62 1/2+x,z,1/2-y
63 1/2-z,x,1/2-y
64 1/2-x,-z,1/2-y
65 1/2+y,z,1/2+x
66 1/2-z,-y,1/2-x
67 1/2-z,y,1/2+x
68 1/2+z,y,1/2-x
69 1/2+z,-y,1/2+x
70 1/2+y,-z,1/2-x
71 1/2-y,-z,1/2+x
72 1/2-y,z,1/2-x
73 1/2+x,1/2+y,z
74 1/2-y,1/2+x,z
75 1/2-x,1/2-y,z
76 1/2+y,1/2-x,z
77 1/2+x,1/2-y,-z
78 1/2+y,1/2+x,-z
79 1/2-x,1/2+y,-z
80 1/2-y,1/2-x,-z
81 1/2+z,1/2+x,y
82 1/2-x,1/2+z,y
83 1/2-z,1/2-x,y
84 1/2+x,1/2-z,y
85 1/2+z,1/2-x,-y
86 1/2+x,1/2+z,-y
87 1/2-z,1/2+x,-y
88 1/2-x,1/2-z,-y
89 1/2+y,1/2+z,x
90 1/2-z,1/2-y,-x
91 1/2-z,1/2+y,x
92 1/2+z,1/2+y,-x
93 1/2+z,1/2-y,x
94 1/2+y,1/2-z,-x
95 1/2-y,1/2-z,x
96 1/2-y,1/2+z,-x
97 -x,-y,-z
98 y,-x,-z
99 x,y,-z
100 -y,x,-z
101 -x,y,z
102 -y,-x,z
103 x,-y,z
104 y,x,z
105 -z,-x,-y
106 x,-z,-y
107 z,x,-y
108 -x,z,-y
109 -z,x,y
110 -x,-z,y
111 z,-x,y
112 x,z,y
113 -y,-z,-x
114 z,y,x
115 z,-y,-x
116 -z,-y,x
117 -z,y,-x
118 -y,z,x
119 y,z,-x
120 y,-z,x
121 -x,1/2-y,1/2-z
122 y,1/2-x,1/2-z
123 x,1/2+y,1/2-z
124 -y,1/2+x,1/2-z
125 -x,1/2+y,1/2+z
126 -y,1/2-x,1/2+z
127 x,1/2-y,1/2+z
128 y,1/2+x,1/2+z
129 -z,1/2-x,1/2-y
130 x,1/2-z,1/2-y
131 z,1/2+x,1/2-y
132 -x,1/2+z,1/2-y
133 -z,1/2+x,1/2+y
134 -x,1/2-z,1/2+y
135 z,1/2-x,1/2+y
136 x,1/2+z,1/2+y
137 -y,1/2-z,1/2-x
138 z,1/2+y,1/2+x
139 z,1/2-y,1/2-x
140 -z,1/2-y,1/2+x
141 -z,1/2+y,1/2-x
142 -y,1/2+z,1/2+x
143 y,1/2+z,1/2-x
144 y,1/2-z,1/2+x
145 1/2-x,-y,1/2-z
146 1/2+y,-x,1/2-z
147 1/2+x,y,1/2-z
148 1/2-y,x,1/2-z
149 1/2-x,y,1/2+z
150 1/2-y,-x,1/2+z
151 1/2+x,-y,1/2+z
152 1/2+y,x,1/2+z
153 1/2-z,-x,1/2-y
154 1/2+x,-z,1/2-y
155 1/2+z,x,1/2-y
156 1/2-x,z,1/2-y
157 1/2-z,x,1/2+y
158 1/2-x,-z,1/2+y
159 1/2+z,-x,1/2+y
160 1/2+x,z,1/2+y
161 1/2-y,-z,1/2-x
162 1/2+z,y,1/2+x
163 1/2+z,-y,1/2-x
164 1/2-z,-y,1/2+x
165 1/2-z,y,1/2-x
166 1/2-y,z,1/2+x
167 1/2+y,z,1/2-x
168 1/2+y,-z,1/2+x
169 1/2-x,1/2-y,-z
170 1/2+y,1/2-x,-z
171 1/2+x,1/2+y,-z
172 1/2-y,1/2+x,-z
173 1/2-x,1/2+y,z
174 1/2-y,1/2-x,z
175 1/2+x,1/2-y,z
176 1/2+y,1/2+x,z
177 1/2-z,1/2-x,-y
178 1/2+x,1/2-z,-y
179 1/2+z,1/2+x,-y
180 1/2-x,1/2+z,-y
181 1/2-z,1/2+x,y
182 1/2-x,1/2-z,y
183 1/2+z,1/2-x,y
184 1/2+x,1/2+z,y
185 1/2-y,1/2-z,-x
186 1/2+z,1/2+y,x
187 1/2+z,1/2-y,-x
188 1/2-z,1/2-y,x
189 1/2-z,1/2+y,-x
190 1/2-y,1/2+z,x
191 1/2+y,1/2+z,-x
192 1/2+y,1/2-z,x
_cell_length_a                   40.0928(17)
_cell_length_b                   40.0928(17)
_cell_length_c                   40.0928(17)
_cell_angle_alpha                90
_cell_angle_beta                 90
_cell_angle_gamma                90
_cell_volume                     64446.5
loop_
_atom_site_label
_atom_site_type_symbol
_atom_site_fract_x
_atom_site_fract_y
_atom_site_fract_z
Cu1 Cu 0.0000 0.359171(12) 0.140829(12)
Cu2 Cu 0.0000 0.312783(12) 0.187217(12)
O1 O 0.03459(6) 0.33126(6) 0.12055(6)
O2 O 0.03433(7) 0.29177(7) 0.15953(7)
O3 O 0.12025(15) 0.20957(17) 0.12025(15)
C1 C 0.04503(10) 0.30509(9) 0.13328(9)
C2 C 0.07348(11) 0.28767(10) 0.11599(11)
C3 C 0.08503(14) 0.25740(13) 0.12646(14)
H1 H 0.0749 0.2470 0.1445
C4 C 0.11102(18) 0.2423(2) 0.11102(18)
C5 C 0.08829(10) 0.30304(14) 0.08829(10)
H2 H 0.0799 0.3230 0.0799
N1 N -0.0000 0.27456(8) 0.22544(8)
C6 C 0.0000 0.24257(18) 0.21916(17)
H3 H -0.0000 0.2358 0.1970
O4 O 0.0000 0.39692(12) 0.10308(12)
H4 H 0.0296 0.3987 0.1013
H5 H 0.1351 0.2104 0.1343
O1ID O 0.12055(6) 0.33126(6) 0.03459(6)
O2ID O 0.15953(7) 0.29177(7) 0.03433(7)
C1ID C 0.13328(9) 0.30509(9) 0.04503(10)
C2ID C 0.11599(11) 0.28767(10) 0.07348(11)
C3ID C 0.12646(14) 0.25740(13) 0.08503(14)
H1ID H 0.1445 0.2470 0.0749
N1I N -0.0000 0.22544(8) 0.27456(8)
C6I C 0.0000 0.21916(17) 0.24257(18)
H3I H 0.0000 0.1970 0.2358
C6MA C 0.0000 0.28084(17) 0.25743(18)
H3MA H -0.0000 0.3030 0.2642
C6BA C 0.0000 0.25743(18) 0.28084(17)
H3BA H -0.0000 0.2642 0.3030
H4MA H -0.0296 0.3987 0.1013
Cu1I Cu -0.0000 0.140829(12) 0.359171(12)
Cu2I Cu -0.0000 0.187217(12) 0.312783(12)
O1I O -0.03459(6) 0.12055(6) 0.33126(6)
O2I O -0.03433(7) 0.15953(7) 0.29177(7)
O3I O -0.12025(15) 0.12025(15) 0.20957(17)
C1I C -0.04503(10) 0.13328(9) 0.30509(9)
C2I C -0.07348(11) 0.11599(11) 0.28767(10)
C3I C -0.08503(14) 0.12646(14) 0.25740(13)
H1I H -0.0749 0.1445 0.2470
C4I C -0.11102(18) 0.11102(18) 0.2423(2)
C5I C -0.08829(10) 0.08829(10) 0.30304(14)
H2I H -0.0799 0.0799 0.3230
O4I O 0.0000 0.10308(12) 0.39692(12)
H4I H -0.0296 0.1013 0.3987
H5I H -0.1351 0.1343 0.2104
O1DD O -0.12055(6) 0.03459(6) 0.33126(6)
O2DD O -0.15953(7) 0.03433(7) 0.29177(7)
C1DD C -0.13328(9) 0.04503(10) 0.30509(9)
C2DD C -0.11599(11) 0.07348(11) 0.28767(10)
C3DD C -0.12646(14) 0.08503(14) 0.25740(13)
H1DD H -0.1445 0.0749 0.2470
H4BA H 0.0296 0.1013 0.3987
O1R O -0.12055(6) 0.33126(6) 0.03459(6)
O2R O -0.15953(7) 0.29177(7) 0.03433(7)
O3R O -0.12025(15) 0.20957(17) 0.12025(15)
C1R C -0.13328(9) 0.30509(9) 0.04503(10)
C2R C -0.11599(11) 0.28767(10) 0.07348(11)
C3R C -0.12646(14) 0.25740(13) 0.08503(14)
H1R H -0.1445 0.2470 0.0749
C4R C -0.11102(18) 0.2423(2) 0.11102(18)
C5R C -0.08829(10) 0.30304(14) 0.08829(10)
H2R H -0.0799 0.3230 0.0799
H5R H -0.1343 0.2104 0.1351
O1VC O -0.03459(6) 0.33126(6) 0.12055(6)
O2VC O -0.03433(7) 0.29177(7) 0.15953(7)
C1VC C -0.04503(10) 0.30509(9) 0.13328(9)
C2VC C -0.07348(11) 0.28767(10) 0.11599(11)
C3VC C -0.08503(14) 0.25740(13) 0.12646(14)
H1VC H -0.0749 0.2470 0.1445
O1MA O -0.03459(6) 0.37945(6) 0.16874(6)
O2MA O -0.03433(7) 0.34047(7) 0.20823(7)
O3MA O -0.12025(15) 0.37975(15) 0.29043(17)
C1MA C -0.04503(10) 0.36672(9) 0.19491(9)
C2MA C -0.07348(11) 0.38401(11) 0.21233(10)
C3MA C -0.08503(14) 0.37354(14) 0.24260(13)
H1MA H -0.0749 0.3555 0.2530
C4MA C -0.11102(18) 0.38898(18) 0.2577(2)
C5MA C -0.08829(10) 0.41171(10) 0.19696(14)
H2MA H -0.0799 0.4201 0.1770
H5MA H -0.1351 0.3657 0.2896
O1XD O -0.12055(6) 0.46541(6) 0.16874(6)
O2XD O -0.15953(7) 0.46567(7) 0.20823(7)
C1XD C -0.13328(9) 0.45497(10) 0.19491(9)
C2XD C -0.11599(11) 0.42652(11) 0.21233(10)
C3XD C -0.12646(14) 0.41497(14) 0.24260(13)
H1XD H -0.1445 0.4251 0.2530
Cu1J Cu -0.140829(12) -0.0000 0.359171(12)
Cu1R Cu -0.140829(12) 0.359171(12) 0.0000
Cu1S Cu 0.140829(12) 0.359171(12) 0.0000
Cu1LA Cu -0.140829(12) 0.5000 0.140829(12)
Cu2J Cu -0.187217(12) 0.0000 0.312783(12)
Cu2R Cu -0.187217(12) 0.312783(12) 0.0000
Cu2S Cu 0.187217(12) 0.312783(12) 0.0000
Cu2LA Cu -0.187217(12) 0.5000 0.187217(12)
O1BA O 0.03459(6) 0.16874(6) 0.37945(6)
O1GD O 0.03459(6) 0.12055(6) 0.33126(6)
O1PD O -0.03459(6) 0.16874(6) 0.37945(6)
O1YD O 0.03459(6) 0.37945(6) 0.16874(6)
O2BA O 0.03433(7) 0.20823(7) 0.34047(7)
O2GD O 0.03433(7) 0.15953(7) 0.29177(7)
O2PD O -0.03433(7) 0.20823(7) 0.34047(7)
O2YD O 0.03433(7) 0.34047(7) 0.20823(7)
loop_
_geom_bond_atom_site_label_1
_geom_bond_atom_site_label_2
_geom_bond_site_symmetry_1
_geom_bond_site_symmetry_2
Cu1 O1 1_555 1_555
Cu2 O2 1_555 1_555
O1 C1 1_555 1_555
O2 C1 1_555 1_555
O3 C4 1_555 1_555
C1 C2 1_555 1_555
C2 C3 1_555 1_555
C3 H1 1_555 1_555
C4 C3 1_555 1_555
C5 C2 1_555 1_555
H2 C5 1_555 1_555
N1 Cu2 1_555 1_555
C6 N1 1_555 1_555
H3 C6 1_555 1_555
O4 Cu1 1_555 1_555
H4 O4 1_555 1_555
H5 O3 1_555 1_555
O1ID C1ID 1_555 1_555
O2ID C1ID 1_555 1_555
C1ID C2ID 1_555 1_555
C2ID C5 1_555 1_555
C3ID C4 1_555 1_555
H1ID C3ID 1_555 1_555
N1I C6I 1_555 1_555
C6I C6 1_555 1_555
H3I C6I 1_555 1_555
C6MA N1 1_555 1_555
H3MA C6MA 1_555 1_555
C6BA N1I 1_555 1_555
H3BA C6BA 1_555 1_555
H4MA O4 1_555 1_555
Cu1I O1I 1_555 1_555
Cu2I N1I 1_555 1_555
O1I C1I 1_555 1_555
O2I Cu2I 1_555 1_555
O3I C4I 1_555 1_555
C1I O2I 1_555 1_555
C2I C1I 1_555 1_555
C3I C2I 1_555 1_555
H1I C3I 1_555 1_555
C4I C3I 1_555 1_555
C5I C2I 1_555 1_555
H2I C5I 1_555 1_555
O4I Cu1I 1_555 1_555
H4I O4I 1_555 1_555
H5I O3I 1_555 1_555
O1DD C1DD 1_555 1_555
O2DD C1DD 1_555 1_555
C1DD C2DD 1_555 1_555
C2DD C5I 1_555 1_555
C3DD C4I 1_555 1_555
H1DD C3DD 1_555 1_555
H4BA O4I 1_555 1_555
O1R C1R 1_555 1_555
O2R C1R 1_555 1_555
O3R C4R 1_555 1_555
C1R C2R 1_555 1_555
C2R C3R 1_555 1_555
C3R H1R 1_555 1_555
C4R C3R 1_555 1_555
C5R C2R 1_555 1_555
H2R C5R 1_555 1_555
H5R O3R 1_555 1_555
O1VC Cu1 1_555 1_555
O2VC Cu2 1_555 1_555
C1VC O1VC 1_555 1_555
C2VC C5R 1_555 1_555
C3VC C4R 1_555 1_555
H1VC C3VC 1_555 1_555
O1MA Cu1 1_555 1_555
O2MA Cu2 1_555 1_555
O3MA C4MA 1_555 1_555
C1MA O1MA 1_555 1_555
C2MA C1MA 1_555 1_555
C3MA C2MA 1_555 1_555
H1MA C3MA 1_555 1_555
C4MA C3MA 1_555 1_555
C5MA C2MA 1_555 1_555
H2MA C5MA 1_555 1_555
H5MA O3MA 1_555 1_555
O1XD C1XD 1_555 1_555
O2XD C1XD 1_555 1_555
C1XD C2XD 1_555 1_555
C2XD C5MA 1_555 1_555
C3XD C4MA 1_555 1_555
H1XD C3XD 1_555 1_555
Cu1J O1DD 1_555 1_555
Cu1R O1R 1_555 1_555
Cu1S O1ID 1_555 1_555
Cu1LA O1XD 1_555 1_555
Cu2J O2DD 1_555 1_555
Cu2R O2R 1_555 1_555
Cu2S O2ID 1_555 1_555
Cu2LA O2XD 1_555 1_555
O1BA Cu1I 1_555 1_555
O1GD Cu1I 1_555 1_555
O1PD Cu1I 1_555 1_555
O1YD Cu1 1_555 1_555
O2BA Cu2I 1_555 1_555
O2GD Cu2I 1_555 1_555
O2PD Cu2I 1_555 1_555
O2YD Cu2 1_555 1_555
C2ID C3ID 1_555 1_555
C6MA C6BA 1_555 1_555
C2DD C3DD 1_555 1_555
O2VC C1VC 1_555 1_555
C1VC C2VC 1_555 1_555
C2VC C3VC 1_555 1_555
O2MA C1MA 1_555 1_555
C2XD C3XD 1_555 1_555

#END
