
#######################################################################
#
#                 Cambridge Crystallographic Data Centre
#                                CCDC 
#
#######################################################################
#
# If this CIF has been generated from an entry in the Cambridge 
# Structural Database, then it will include bibliographic, chemical, 
# crystal, experimental, refinement or atomic coordinate data resulting 
# from the CCDC's data processing and validation procedures.
#
#######################################################################

data_NIMQEH
_chemical_formula_moiety         '(C42 H28 Cu4 N2 O22)n'
_symmetry_cell_setting           cubic
_symmetry_space_group_name_H-M   'F m -3 m'
_symmetry_Int_Tables_number      225
_space_group_name_Hall           '-F 4 2 3'
loop_
_symmetry_equiv_pos_site_id
_symmetry_equiv_pos_as_xyz
1 x,y,z
2 -x,-y,z
3 x,-y,-z
4 -x,y,-z
5 z,x,y
6 y,z,x
7 -z,-x,y
8 -y,z,-x
9 z,-x,-y
10 -y,-z,x
11 -z,x,-y
12 y,-z,-x
13 -y,-x,-z
14 y,x,-z
15 y,-x,z
16 -y,x,z
17 -x,-z,-y
18 -z,-y,-x
19 x,z,-y
20 -z,y,x
21 x,-z,y
22 z,y,-x
23 -x,z,y
24 z,-y,x
25 x,1/2+y,1/2+z
26 -x,1/2-y,1/2+z
27 x,1/2-y,1/2-z
28 -x,1/2+y,1/2-z
29 z,1/2+x,1/2+y
30 y,1/2+z,1/2+x
31 -z,1/2-x,1/2+y
32 -y,1/2+z,1/2-x
33 z,1/2-x,1/2-y
34 -y,1/2-z,1/2+x
35 -z,1/2+x,1/2-y
36 y,1/2-z,1/2-x
37 -y,1/2-x,1/2-z
38 y,1/2+x,1/2-z
39 y,1/2-x,1/2+z
40 -y,1/2+x,1/2+z
41 -x,1/2-z,1/2-y
42 -z,1/2-y,1/2-x
43 x,1/2+z,1/2-y
44 -z,1/2+y,1/2+x
45 x,1/2-z,1/2+y
46 z,1/2+y,1/2-x
47 -x,1/2+z,1/2+y
48 z,1/2-y,1/2+x
49 1/2+x,y,1/2+z
50 1/2-x,-y,1/2+z
51 1/2+x,-y,1/2-z
52 1/2-x,y,1/2-z
53 1/2+z,x,1/2+y
54 1/2+y,z,1/2+x
55 1/2-z,-x,1/2+y
56 1/2-y,z,1/2-x
57 1/2+z,-x,1/2-y
58 1/2-y,-z,1/2+x
59 1/2-z,x,1/2-y
60 1/2+y,-z,1/2-x
61 1/2-y,-x,1/2-z
62 1/2+y,x,1/2-z
63 1/2+y,-x,1/2+z
64 1/2-y,x,1/2+z
65 1/2-x,-z,1/2-y
66 1/2-z,-y,1/2-x
67 1/2+x,z,1/2-y
68 1/2-z,y,1/2+x
69 1/2+x,-z,1/2+y
70 1/2+z,y,1/2-x
71 1/2-x,z,1/2+y
72 1/2+z,-y,1/2+x
73 1/2+x,1/2+y,z
74 1/2-x,1/2-y,z
75 1/2+x,1/2-y,-z
76 1/2-x,1/2+y,-z
77 1/2+z,1/2+x,y
78 1/2+y,1/2+z,x
79 1/2-z,1/2-x,y
80 1/2-y,1/2+z,-x
81 1/2+z,1/2-x,-y
82 1/2-y,1/2-z,x
83 1/2-z,1/2+x,-y
84 1/2+y,1/2-z,-x
85 1/2-y,1/2-x,-z
86 1/2+y,1/2+x,-z
87 1/2+y,1/2-x,z
88 1/2-y,1/2+x,z
89 1/2-x,1/2-z,-y
90 1/2-z,1/2-y,-x
91 1/2+x,1/2+z,-y
92 1/2-z,1/2+y,x
93 1/2+x,1/2-z,y
94 1/2+z,1/2+y,-x
95 1/2-x,1/2+z,y
96 1/2+z,1/2-y,x
97 -x,-y,-z
98 x,y,-z
99 -x,y,z
100 x,-y,z
101 -z,-x,-y
102 -y,-z,-x
103 z,x,-y
104 y,-z,x
105 -z,x,y
106 y,z,-x
107 z,-x,y
108 -y,z,x
109 y,x,z
110 -y,-x,z
111 -y,x,-z
112 y,-x,-z
113 x,z,y
114 z,y,x
115 -x,-z,y
116 z,-y,-x
117 -x,z,-y
118 -z,-y,x
119 x,-z,-y
120 -z,y,-x
121 -x,1/2-y,1/2-z
122 x,1/2+y,1/2-z
123 -x,1/2+y,1/2+z
124 x,1/2-y,1/2+z
125 -z,1/2-x,1/2-y
126 -y,1/2-z,1/2-x
127 z,1/2+x,1/2-y
128 y,1/2-z,1/2+x
129 -z,1/2+x,1/2+y
130 y,1/2+z,1/2-x
131 z,1/2-x,1/2+y
132 -y,1/2+z,1/2+x
133 y,1/2+x,1/2+z
134 -y,1/2-x,1/2+z
135 -y,1/2+x,1/2-z
136 y,1/2-x,1/2-z
137 x,1/2+z,1/2+y
138 z,1/2+y,1/2+x
139 -x,1/2-z,1/2+y
140 z,1/2-y,1/2-x
141 -x,1/2+z,1/2-y
142 -z,1/2-y,1/2+x
143 x,1/2-z,1/2-y
144 -z,1/2+y,1/2-x
145 1/2-x,-y,1/2-z
146 1/2+x,y,1/2-z
147 1/2-x,y,1/2+z
148 1/2+x,-y,1/2+z
149 1/2-z,-x,1/2-y
150 1/2-y,-z,1/2-x
151 1/2+z,x,1/2-y
152 1/2+y,-z,1/2+x
153 1/2-z,x,1/2+y
154 1/2+y,z,1/2-x
155 1/2+z,-x,1/2+y
156 1/2-y,z,1/2+x
157 1/2+y,x,1/2+z
158 1/2-y,-x,1/2+z
159 1/2-y,x,1/2-z
160 1/2+y,-x,1/2-z
161 1/2+x,z,1/2+y
162 1/2+z,y,1/2+x
163 1/2-x,-z,1/2+y
164 1/2+z,-y,1/2-x
165 1/2-x,z,1/2-y
166 1/2-z,-y,1/2+x
167 1/2+x,-z,1/2-y
168 1/2-z,y,1/2-x
169 1/2-x,1/2-y,-z
170 1/2+x,1/2+y,-z
171 1/2-x,1/2+y,z
172 1/2+x,1/2-y,z
173 1/2-z,1/2-x,-y
174 1/2-y,1/2-z,-x
175 1/2+z,1/2+x,-y
176 1/2+y,1/2-z,x
177 1/2-z,1/2+x,y
178 1/2+y,1/2+z,-x
179 1/2+z,1/2-x,y
180 1/2-y,1/2+z,x
181 1/2+y,1/2+x,z
182 1/2-y,1/2-x,z
183 1/2-y,1/2+x,-z
184 1/2+y,1/2-x,-z
185 1/2+x,1/2+z,y
186 1/2+z,1/2+y,x
187 1/2-x,1/2-z,y
188 1/2+z,1/2-y,-x
189 1/2-x,1/2+z,-y
190 1/2-z,1/2-y,x
191 1/2+x,1/2-z,-y
192 1/2-z,1/2+y,-x
_cell_length_a                   46.173
_cell_length_b                   46.173
_cell_length_c                   46.173
_cell_angle_alpha                90
_cell_angle_beta                 90
_cell_angle_gamma                90
_cell_volume                     98438.3
loop_
_atom_site_label
_atom_site_type_symbol
_atom_site_fract_x
_atom_site_fract_y
_atom_site_fract_z
C1 C 0.2396(3) 0.2396(3) 0.0000
C2 C 0.2222(3) 0.1908(4) 0.0000
H1 H 0.2277 0.1714 0.0000
C3 C 0.2461(4) 0.2129(3) 0.0000
H2 H 0.2654 0.2071 0.0000
C4 C 0.07702(15) 0.17108(18) 0.07702(15)
H3 H 0.0702 0.1534 0.0702
C5 C 0.11639(17) 0.16943(15) 0.03884(16)
C6 C 0.1096(2) 0.2111(2) 0.0728(2)
H4 H 0.1242 0.2213 0.0635
C7 C 0.10069(16) 0.18378(13) 0.06309(16)
C8 C 0.0961(2) 0.2220(3) 0.0961(2)
O1 O 0.10489(8) 0.14631(8) 0.03010(8)
O2 O 0.13870(10) 0.18096(10) 0.02991(10)
O3 O 0.08875(13) 0.08875(13) 0.0000
O4 O 0.1074(3) 0.2496(4) 0.1074(3)
Cu1 Cu 0.122381(16) 0.122381(16) 0.0000
Cu2 Cu 0.163048(18) 0.163048(18) 0.0000
N1 N 0.19593(14) 0.19593(14) 0.0000
H5 H 0.0990 0.2631 0.0996
C2M C 0.1908(4) 0.2222(3) 0.0000
H1M H 0.1714 0.2277 0.0000
C3M C 0.2129(3) 0.2461(4) 0.0000
H2M H 0.2071 0.2654 0.0000
C1UB C 0.2604(3) 0.2604(3) 0.0000
C2UB C 0.2778(3) 0.3092(4) 0.0000
H1UB H 0.2723 0.3286 0.0000
C3UB C 0.2539(4) 0.2871(3) 0.0000
H2UB H 0.2346 0.2929 0.0000
N1UB N 0.30407(14) 0.30407(14) 0.0000
C2FC C 0.3092(4) 0.2778(3) 0.0000
H1FC H 0.3286 0.2723 0.0000
C3FC C 0.2871(3) 0.2539(4) 0.0000
H2FC H 0.2929 0.2346 0.0000
C5ID C 0.03884(16) 0.16943(15) 0.11639(17)
C6ID C 0.0728(2) 0.2111(2) 0.1096(2)
H4ID H 0.0635 0.2213 0.1242
C7ID C 0.06309(16) 0.18378(13) 0.10069(16)
O1ID O 0.03010(8) 0.14631(8) 0.10489(8)
O2ID O 0.02991(10) 0.18096(10) 0.13870(10)
C4D C 0.07702(15) 0.07702(15) 0.17108(18)
H3D H 0.0702 0.0702 0.1534
C5D C 0.03884(16) 0.11639(17) 0.16943(15)
C6D C 0.0728(2) 0.1096(2) 0.2111(2)
H4D H 0.0635 0.1242 0.2213
C7D C 0.06309(16) 0.10069(16) 0.18378(13)
C8D C 0.0961(2) 0.0961(2) 0.2220(3)
O1D O 0.03010(8) 0.10489(8) 0.14631(8)
O2D O 0.02991(10) 0.13870(10) 0.18096(10)
O3D O -0.0000 0.08875(13) 0.08875(13)
O4D O 0.1074(3) 0.1074(3) 0.2496(4)
Cu1D Cu -0.0000 0.122381(16) 0.122381(16)
Cu2D Cu -0.0000 0.163048(18) 0.163048(18)
H5D H 0.0996 0.0990 0.2631
C5HD C 0.11639(17) 0.03884(16) 0.16943(15)
C6HD C 0.1096(2) 0.0728(2) 0.2111(2)
H4HD H 0.1242 0.0635 0.2213
C7HD C 0.10069(16) 0.06309(16) 0.18378(13)
O1HD O 0.10489(8) 0.03010(8) 0.14631(8)
O2HD O 0.13870(10) 0.02991(10) 0.18096(10)
C4E C 0.17108(18) 0.07702(15) 0.07702(15)
H3E H 0.1534 0.0702 0.0702
C5E C 0.16943(15) 0.03884(16) 0.11639(17)
C6E C 0.2111(2) 0.0728(2) 0.1096(2)
H4E H 0.2213 0.0635 0.1242
C7E C 0.18378(13) 0.06309(16) 0.10069(16)
C8E C 0.2220(3) 0.0961(2) 0.0961(2)
O1E O 0.14631(8) 0.03010(8) 0.10489(8)
O2E O 0.18096(10) 0.02991(10) 0.13870(10)
O4E O 0.2496(4) 0.1074(3) 0.1074(3)
H5E H 0.2631 0.0996 0.0990
C5DD C 0.16943(15) 0.11639(17) 0.03884(16)
C6DD C 0.2111(2) 0.1096(2) 0.0728(2)
H4DD H 0.2213 0.1242 0.0635
C7DD C 0.18378(13) 0.10069(16) 0.06309(16)
O1DD O 0.14631(8) 0.10489(8) 0.03010(8)
O2DD O 0.18096(10) 0.13870(10) 0.02991(10)
C4M C 0.17108(18) 0.07702(15) -0.07702(15)
H3M H 0.1534 0.0702 -0.0702
C5M C 0.16943(15) 0.11639(17) -0.03884(16)
C6M C 0.2111(2) 0.1096(2) -0.0728(2)
H4M H 0.2213 0.1242 -0.0635
C7M C 0.18378(13) 0.10069(16) -0.06309(16)
C8M C 0.2220(3) 0.0961(2) -0.0961(2)
O1M O 0.14631(8) 0.10489(8) -0.03010(8)
O2M O 0.18096(10) 0.13870(10) -0.02991(10)
O4M O 0.2496(4) 0.1074(3) -0.1074(3)
H5M H 0.2631 0.0990 -0.0996
C5AD C 0.16943(15) 0.03884(16) -0.11639(17)
C6AD C 0.2111(2) 0.0728(2) -0.1096(2)
H4AD H 0.2213 0.0635 -0.1242
C7AD C 0.18378(13) 0.06309(16) -0.10069(16)
O1AD O 0.14631(8) 0.03010(8) -0.10489(8)
O2AD O 0.18096(10) 0.02991(10) -0.13870(10)
O1S O -0.03010(8) 0.14631(8) 0.10489(8)
O1SC O 0.10489(8) 0.14631(8) -0.03010(8)
O1ZC O -0.03010(8) 0.10489(8) 0.14631(8)
O2S O -0.02991(10) 0.18096(10) 0.13870(10)
O2SC O 0.13870(10) 0.18096(10) -0.02991(10)
O2ZC O -0.02991(10) 0.13870(10) 0.18096(10)
Cu1E Cu 0.122381(16) -0.0000 0.122381(16)
Cu1K Cu 0.122381(16) 0.0000 -0.122381(16)
Cu2E Cu 0.163048(18) 0.0000 0.163048(18)
Cu2K Cu 0.163048(18) 0.0000 -0.163048(18)
Cu2UB Cu 0.336952(18) 0.336952(18) 0.0000
N1D N -0.0000 0.19593(14) 0.19593(14)
loop_
_geom_bond_atom_site_label_1
_geom_bond_atom_site_label_2
_geom_bond_site_symmetry_1
_geom_bond_site_symmetry_2
C1 C3 1_555 1_555
C2 H1 1_555 1_555
C3 C2 1_555 1_555
H2 C3 1_555 1_555
C4 H3 1_555 1_555
C5 C7 1_555 1_555
C6 H4 1_555 1_555
C7 C4 1_555 1_555
C8 C6 1_555 1_555
O1 C5 1_555 1_555
O2 C5 1_555 1_555
O3 Cu1 1_555 1_555
O4 C8 1_555 1_555
Cu1 O1 1_555 1_555
Cu2 O2 1_555 1_555
N1 C2 1_555 1_555
H5 O4 1_555 1_555
C2M N1 1_555 1_555
H1M C2M 1_555 1_555
C3M C1 1_555 1_555
H2M C3M 1_555 1_555
C1UB C1 1_555 1_555
C2UB H1UB 1_555 1_555
C3UB C1UB 1_555 1_555
H2UB C3UB 1_555 1_555
N1UB C2UB 1_555 1_555
C2FC N1UB 1_555 1_555
H1FC C2FC 1_555 1_555
C3FC C1UB 1_555 1_555
H2FC C3FC 1_555 1_555
C5ID C7ID 1_555 1_555
C6ID C8 1_555 1_555
H4ID C6ID 1_555 1_555
C7ID C4 1_555 1_555
O1ID C5ID 1_555 1_555
O2ID C5ID 1_555 1_555
C4D H3D 1_555 1_555
C5D C7D 1_555 1_555
C6D H4D 1_555 1_555
C7D C4D 1_555 1_555
C8D C6D 1_555 1_555
O1D C5D 1_555 1_555
O2D C5D 1_555 1_555
O3D Cu1D 1_555 1_555
O4D C8D 1_555 1_555
Cu1D O1ID 1_555 1_555
Cu2D O2ID 1_555 1_555
H5D O4D 1_555 1_555
C5HD C7HD 1_555 1_555
C6HD C8D 1_555 1_555
H4HD C6HD 1_555 1_555
C7HD C4D 1_555 1_555
O1HD C5HD 1_555 1_555
O2HD C5HD 1_555 1_555
C4E H3E 1_555 1_555
C5E C7E 1_555 1_555
C6E H4E 1_555 1_555
C7E C4E 1_555 1_555
C8E C6E 1_555 1_555
O1E C5E 1_555 1_555
O2E C5E 1_555 1_555
O4E C8E 1_555 1_555
H5E O4E 1_555 1_555
C5DD C7DD 1_555 1_555
C6DD C8E 1_555 1_555
H4DD C6DD 1_555 1_555
C7DD C4E 1_555 1_555
O1DD Cu1 1_555 1_555
O2DD Cu2 1_555 1_555
C4M H3M 1_555 1_555
C5M C7M 1_555 1_555
C6M H4M 1_555 1_555
C7M C4M 1_555 1_555
C8M C6M 1_555 1_555
O1M Cu1 1_555 1_555
O2M Cu2 1_555 1_555
O4M C8M 1_555 1_555
H5M O4M 1_555 1_555
C5AD C7AD 1_555 1_555
C6AD C8M 1_555 1_555
H4AD C6AD 1_555 1_555
C7AD C4M 1_555 1_555
O1AD C5AD 1_555 1_555
O2AD C5AD 1_555 1_555
O1S Cu1D 1_555 1_555
O1SC Cu1 1_555 1_555
O1ZC Cu1D 1_555 1_555
O2S Cu2D 1_555 1_555
O2SC Cu2 1_555 1_555
O2ZC Cu2D 1_555 1_555
Cu1E O1HD 1_555 1_555
Cu1K O1AD 1_555 1_555
Cu2E O2HD 1_555 1_555
Cu2K O2AD 1_555 1_555
Cu2UB N1UB 1_555 1_555
N1D Cu2D 1_555 1_555
C6 C7 1_555 1_555
Cu2 N1 1_555 1_555
C2M C3M 1_555 1_555
C2UB C3UB 1_555 1_555
C2FC C3FC 1_555 1_555
C6ID C7ID 1_555 1_555
C6D C7D 1_555 1_555
O1D Cu1D 1_555 1_555
O2D Cu2D 1_555 1_555
C6HD C7HD 1_555 1_555
C6E C7E 1_555 1_555
O1E Cu1E 1_555 1_555
O2E Cu2E 1_555 1_555
C5DD O1DD 1_555 1_555
C5DD O2DD 1_555 1_555
C6DD C7DD 1_555 1_555
C5M O1M 1_555 1_555
C5M O2M 1_555 1_555
C6M C7M 1_555 1_555
C6AD C7AD 1_555 1_555

#END
