
#######################################################################
#
#                 Cambridge Crystallographic Data Centre
#                                CCDC 
#
#######################################################################
#
# If this CIF has been generated from an entry in the Cambridge 
# Structural Database, then it will include bibliographic, chemical, 
# crystal, experimental, refinement or atomic coordinate data resulting 
# from the CCDC's data processing and validation procedures.
#
#######################################################################

data_OKIPOO
_chemical_formula_moiety         '(C26 H20 Co1 N4 O6)n'
_symmetry_cell_setting           tetragonal
_symmetry_space_group_name_H-M   'I 41/a c d'
_symmetry_Int_Tables_number      142
_space_group_name_Hall           '-I 4bd 2c'
loop_
_symmetry_equiv_pos_site_id
_symmetry_equiv_pos_as_xyz
1 x,y,z
2 1/4-y,3/4+x,1/4+z
3 -x,1/2-y,z
4 1/4+y,1/4-x,3/4+z
5 x,-y,1/2-z
6 1/2-x,y,-z
7 3/4+y,1/4+x,1/4-z
8 1/4-y,1/4-x,1/4-z
9 1/2+x,1/2+y,1/2+z
10 3/4-y,1/4+x,3/4+z
11 1/2-x,-y,1/2+z
12 3/4+y,3/4-x,1/4+z
13 1/2+x,1/2-y,-z
14 -x,1/2+y,1/2-z
15 1/4+y,3/4+x,3/4-z
16 3/4-y,3/4-x,3/4-z
17 -x,-y,-z
18 3/4+y,1/4-x,3/4-z
19 x,1/2+y,-z
20 3/4-y,3/4+x,1/4-z
21 -x,y,1/2+z
22 1/2+x,-y,z
23 1/4-y,3/4-x,3/4+z
24 3/4+y,3/4+x,3/4+z
25 1/2-x,1/2-y,1/2-z
26 1/4+y,3/4-x,1/4-z
27 1/2+x,y,1/2-z
28 1/4-y,1/4+x,3/4-z
29 1/2-x,1/2+y,z
30 x,1/2-y,1/2+z
31 3/4-y,1/4-x,1/4+z
32 1/4+y,1/4+x,1/4+z
_cell_length_a                   18.4905(17)
_cell_length_b                   18.4905(17)
_cell_length_c                   61.775(8)
_cell_angle_alpha                90
_cell_angle_beta                 90
_cell_angle_gamma                90
_cell_volume                     21120.8
loop_
_atom_site_label
_atom_site_type_symbol
_atom_site_fract_x
_atom_site_fract_y
_atom_site_fract_z
O6 O 0.5608(4) 0.4462(2) 0.00517(9)
H19 H 0.5161 0.4453 0.0020
H20 H 0.5631 0.4463 0.0189
C1 C 1.0289(3) 0.5783(3) 0.06463(9)
C2 C 0.9581(3) 0.5400(3) 0.06655(9)
C3 C 0.9350(3) 0.4934(3) 0.05042(9)
H1 H 0.9645 0.4852 0.0381
C4 C 0.8686(3) 0.4584(3) 0.05230(11)
H2 H 0.8527 0.4272 0.0410
C5 C 0.8264(3) 0.4681(3) 0.06986(11)
C6 C 0.8495(3) 0.5148(4) 0.08616(11)
H3 H 0.8199 0.5221 0.0985
C7 C 0.9146(3) 0.5503(3) 0.08455(10)
H4 H 0.9297 0.5820 0.0958
C8 C 0.7562(4) 0.4283(4) 0.07239(16)
C9 C 1.1252(3) 0.7157(3) 0.02159(8)
H5 H 1.1417 0.6717 0.0154
C10 C 1.1027(3) 0.7784(3) -0.01310(8)
C11 C 1.1461(3) 0.7353(3) -0.02544(8)
H6 H 1.1785 0.7022 -0.0188
C12 C 1.1427(4) 0.7403(3) -0.04768(8)
H7 H 1.1714 0.7092 -0.0564
C13 C 1.0590(4) 0.8259(3) -0.02304(9)
H8 H 1.0282 0.8553 -0.0144
C14 C 1.0569(4) 0.8338(3) -0.04501(9)
H9 H 1.0271 0.8695 -0.0515
C15 C 1.0983(3) 0.7896(3) -0.05720(9)
C16 C 1.0752(4) 0.8501(3) -0.09089(8)
C17 C 1.0100(4) 0.8522(3) -0.10079(10)
H10 H 0.9764 0.8140 -0.0987
C18 C 1.1225(4) 0.9057(4) -0.09309(9)
H11 H 1.1671 0.9048 -0.0855
C19 C 0.9823(3) 1.0193(3) -0.14892(9)
H12 H 0.9605 0.9760 -0.1540
C20 C 1.0150(3) 1.1282(4) -0.14613(8)
H13 H 1.0205 1.1784 -0.1489
C21 C 1.0459(3) 1.0932(4) -0.12962(8)
H14 H 1.0768 1.1131 -0.1189
C22 C 1.0411(3) 0.9637(3) -0.11709(7)
C23 C 1.1062(3) 0.9640(4) -0.10645(9)
H15 H 1.1392 1.0030 -0.1082
C24 C 0.9923(3) 0.9097(4) -0.11388(9)
H16 H 0.9463 0.9116 -0.1207
Co1 Co 1.14310(4) 0.65507(4) 0.066750(10)
N1 N 1.1214(3) 0.7258(2) 0.04234(7)
N2 N 1.1044(3) 0.7711(3) 0.00995(7)
N3 N 0.9746(3) 1.0824(2) -0.15835(7)
N4 N 1.0241(2) 1.0228(2) -0.13136(6)
O1 O 1.0451(2) 0.6249(2) 0.07862(6)
O2 O 1.0710(2) 0.5647(2) 0.04949(7)
O3 O 0.7205(3) 0.4340(3) 0.08911(11)
O4 O 0.7361(2) 0.3879(2) 0.05694(9)
O5 O 1.0969(3) 0.7882(2) -0.07975(6)
C25 C 1.0624(13) 0.8107(11) 0.0242(2)
H17 H 1.0300 0.8490 0.0208
C26 C 1.0772(12) 0.7833(10) 0.0439(2)
H18 H 1.0589 0.8020 0.0571
Co1C Co 0.90507(4) 1.10690(4) -0.183250(10)
Co1U Co 0.64310(4) 0.34493(4) 0.066750(10)
N3A N 1.1676(2) 0.7246(3) 0.09165(7)
O4U O 1.2361(2) 0.6121(2) 0.05694(9)
loop_
_geom_bond_atom_site_label_1
_geom_bond_atom_site_label_2
_geom_bond_site_symmetry_1
_geom_bond_site_symmetry_2
C1 C2 1_555 1_555
C2 C3 1_555 1_555
C3 H1 1_555 1_555
C4 C3 1_555 1_555
H2 C4 1_555 1_555
C5 C4 1_555 1_555
C6 C5 1_555 1_555
H3 C6 1_555 1_555
C7 C2 1_555 1_555
H4 C7 1_555 1_555
C8 C5 1_555 1_555
C9 H5 1_555 1_555
C10 C11 1_555 1_555
C11 H6 1_555 1_555
C12 C11 1_555 1_555
H7 C12 1_555 1_555
C13 C10 1_555 1_555
H8 C13 1_555 1_555
C14 C13 1_555 1_555
H9 C14 1_555 1_555
C15 C12 1_555 1_555
C16 C17 1_555 1_555
C17 H10 1_555 1_555
C18 C16 1_555 1_555
H11 C18 1_555 1_555
C19 H12 1_555 1_555
C20 H13 1_555 1_555
C21 C20 1_555 1_555
H14 C21 1_555 1_555
C22 C23 1_555 1_555
C23 C18 1_555 1_555
H15 C23 1_555 1_555
C24 C17 1_555 1_555
H16 C24 1_555 1_555
Co1 N1 1_555 1_555
N1 C9 1_555 1_555
N2 C9 1_555 1_555
N3 C19 1_555 1_555
N4 C19 1_555 1_555
O1 C1 1_555 1_555
O2 C1 1_555 1_555
O3 C8 1_555 1_555
O4 C8 1_555 1_555
O5 C15 1_555 1_555
C25 N2 1_555 1_555
H17 C25 1_555 1_555
C26 N1 1_555 1_555
H18 C26 1_555 1_555
O6 H19 1_555 1_555
H20 O6 1_555 1_555
Co1C N3 1_555 1_555
Co1U O4 1_555 1_555
N3A Co1 1_555 1_555
O4U Co1 1_555 1_555
C6 C7 1_555 1_555
C10 N2 1_555 1_555
C14 C15 1_555 1_555
C16 O5 1_555 1_555
C20 N3 1_555 1_555
C21 N4 1_555 1_555
C22 C24 1_555 1_555
C22 N4 1_555 1_555
Co1 O1 1_555 1_555
Co1 O2 1_555 1_555
C25 C26 1_555 1_555

#END
