
#######################################################################
#
#                 Cambridge Crystallographic Data Centre
#                                CCDC 
#
#######################################################################
#
# If this CIF has been generated from an entry in the Cambridge 
# Structural Database, then it will include bibliographic, chemical, 
# crystal, experimental, refinement or atomic coordinate data resulting 
# from the CCDC's data processing and validation procedures.
#
#######################################################################

data_OKIQAB
_chemical_formula_moiety         '(C26 H20 N4 O6 Zn1)n'
_symmetry_cell_setting           tetragonal
_symmetry_space_group_name_H-M   'I 41/a c d'
_symmetry_Int_Tables_number      142
_space_group_name_Hall           '-I 4bd 2c'
loop_
_symmetry_equiv_pos_site_id
_symmetry_equiv_pos_as_xyz
1 x,y,z
2 1/4-y,3/4+x,1/4+z
3 -x,1/2-y,z
4 1/4+y,1/4-x,3/4+z
5 x,-y,1/2-z
6 1/2-x,y,-z
7 3/4+y,1/4+x,1/4-z
8 1/4-y,1/4-x,1/4-z
9 1/2+x,1/2+y,1/2+z
10 3/4-y,1/4+x,3/4+z
11 1/2-x,-y,1/2+z
12 3/4+y,3/4-x,1/4+z
13 1/2+x,1/2-y,-z
14 -x,1/2+y,1/2-z
15 1/4+y,3/4+x,3/4-z
16 3/4-y,3/4-x,3/4-z
17 -x,-y,-z
18 3/4+y,1/4-x,3/4-z
19 x,1/2+y,-z
20 3/4-y,3/4+x,1/4-z
21 -x,y,1/2+z
22 1/2+x,-y,z
23 1/4-y,3/4-x,3/4+z
24 3/4+y,3/4+x,3/4+z
25 1/2-x,1/2-y,1/2-z
26 1/4+y,3/4-x,1/4-z
27 1/2+x,y,1/2-z
28 1/4-y,1/4+x,3/4-z
29 1/2-x,1/2+y,z
30 x,1/2-y,1/2+z
31 3/4-y,1/4-x,1/4+z
32 1/4+y,1/4+x,1/4+z
_cell_length_a                   18.3863(17)
_cell_length_b                   18.3863(17)
_cell_length_c                   61.935(12)
_cell_angle_alpha                90
_cell_angle_beta                 90
_cell_angle_gamma                90
_cell_volume                     20937.5
loop_
_atom_site_label
_atom_site_type_symbol
_atom_site_fract_x
_atom_site_fract_y
_atom_site_fract_z
_atom_site_U_iso_or_equiv
_atom_site_thermal_displace_type
O6 O 0.5572(4) 0.5508(4) 0.49583(10) 0.1447 Uani
H1 H 0.5512 0.5567 0.4823 0.1740 Uiso
H2 H 0.5583 0.5056 0.4987 0.2170 Uiso
Zn1 Zn 0.14486(4) 0.33811(4) 0.432701(12) 0.0513 Uani
O1 O 0.2352(2) 0.3884(3) 0.43939(9) 0.0723 Uani
O2 O 0.2306(3) 0.4289(3) 0.40581(12) 0.1120 Uani
O3 O 0.5707(3) 0.5630(3) 0.45215(10) 0.0843 Uani
O4 O 0.5504(2) 0.6228(3) 0.42246(7) 0.0600 Uani
O5 O 0.4625(3) 0.1520(3) 0.32919(8) 0.0910 Uani
N1 N 0.1669(3) 0.2682(3) 0.40782(9) 0.0567 Uani
N2 N 0.2269(3) 0.2202(3) 0.38091(8) 0.0553 Uani
N3 N 0.5205(3) 0.1232(3) 0.20763(9) 0.0617 Uani
N4 N 0.4778(3) 0.1432(3) 0.24025(9) 0.0650 Uani
C1 C 0.1207(4) 0.2286(4) 0.39541(11) 0.0617 Uani
H3 H 0.0703 0.2222 0.3982 0.0740 Uiso
C2 C 0.1565(4) 0.2000(4) 0.37882(12) 0.0647 Uani
H4 H 0.1364 0.1709 0.3676 0.0780 Uiso
C3 C 0.2299(4) 0.2611(4) 0.39860(12) 0.0607 Uani
H5 H 0.2733 0.2826 0.4039 0.0730 Uiso
C4 C 0.2861(4) 0.2045(4) 0.36658(10) 0.0563 Uani
C5 C 0.2881(4) 0.1396(5) 0.35582(12) 0.0747 Uani
H6 H 0.2499 0.1054 0.3576 0.0900 Uiso
C6 C 0.3459(5) 0.1241(5) 0.34245(12) 0.0803 Uani
H7 H 0.3474 0.0795 0.3347 0.0960 Uiso
C7 C 0.3413(4) 0.2537(4) 0.36340(12) 0.0710 Uani
H8 H 0.3388 0.2999 0.3702 0.0850 Uiso
C8 C 0.3996(4) 0.2379(5) 0.35067(13) 0.0767 Uani
H9 H 0.4385 0.2714 0.3490 0.0920 Uiso
C9 C 0.4004(4) 0.1731(6) 0.34049(12) 0.0737 Uani
C10 C 0.4606(4) 0.1500(5) 0.30696(11) 0.0697 Uani
C11 C 0.4530(4) 0.1459(4) 0.20608(12) 0.0807 Uani
H10 H 0.4265 0.1502 0.1930 0.0970 Uiso
C12 C 0.4267(5) 0.1623(4) 0.22615(12) 0.0903 Uani
H11 H 0.3808 0.1833 0.2294 0.1090 Uiso
C13 C 0.5316(4) 0.1207(4) 0.22832(11) 0.0577 Uani
H12 H 0.5759 0.1035 0.2343 0.0690 Uiso
C14 C 0.4709(4) 0.1446(4) 0.26296(11) 0.0570 Uani
C15 C 0.5153(4) 0.1016(4) 0.27515(11) 0.0630 Uani
H13 H 0.5489 0.0696 0.2684 0.0750 Uiso
C16 C 0.5112(4) 0.1047(4) 0.29702(12) 0.0713 Uani
H14 H 0.5429 0.0759 0.3056 0.0860 Uiso
C17 C 0.4211(4) 0.1906(4) 0.27284(12) 0.0747 Uani
H15 H 0.3908 0.2211 0.2643 0.0900 Uiso
C18 C 0.4158(4) 0.1919(4) 0.29461(12) 0.0760 Uani
H16 H 0.3807 0.2223 0.3013 0.0910 Uiso
C19 C 0.2591(4) 0.4263(4) 0.42397(17) 0.0720 Uani
C20 C 0.3286(4) 0.4677(4) 0.42760(13) 0.0610 Uani
C21 C 0.3546(4) 0.5136(4) 0.41194(14) 0.0753 Uani
H17 H 0.3279 0.5207 0.3990 0.0900 Uiso
C22 C 0.4192(4) 0.5492(4) 0.41507(13) 0.0677 Uani
H18 H 0.4362 0.5817 0.4043 0.0810 Uiso
C23 C 0.3675(4) 0.4574(4) 0.44617(13) 0.0673 Uani
H19 H 0.3491 0.4263 0.4571 0.0810 Uiso
C24 C 0.4336(4) 0.4923(4) 0.44907(12) 0.0633 Uani
H20 H 0.4608 0.4839 0.4619 0.0760 Uiso
C25 C 0.4603(4) 0.5391(3) 0.43346(12) 0.0527 Uani
C26 C 0.5317(4) 0.5759(4) 0.43649(13) 0.0573 Uani
Zn1U Zn 0.64486(4) 0.66189(4) 0.432701(12) 0.0513 Uani
Zn1C Zn 0.58811(4) 0.10514(4) 0.182701(12) 0.0513 Uani
O4U O 0.0504(2) 0.3772(3) 0.42246(7) 0.0600 Uani
N3A N 0.1268(3) 0.2705(3) 0.45763(9) 0.0617 Uani
loop_
_atom_site_aniso_label
_atom_site_aniso_U_11
_atom_site_aniso_U_22
_atom_site_aniso_U_33
_atom_site_aniso_U_23
_atom_site_aniso_U_13
_atom_site_aniso_U_12
O6 0.191(7) 0.160(7) 0.083(5) 0.017(5) 0.008(5) 0.003(6)
Zn1 0.0495(5) 0.0629(6) 0.0414(5) 0.0065(4) 0.0055(4) 0.0007(4)
O1 0.055(3) 0.070(4) 0.092(4) 0.013(3) 0.006(3) -0.011(3)
O2 0.081(4) 0.109(5) 0.146(6) 0.051(5) -0.039(4) -0.030(4)
O3 0.067(4) 0.105(5) 0.081(4) 0.007(4) -0.005(3) -0.014(3)
O4 0.058(3) 0.070(3) 0.052(3) -0.008(3) 0.012(3) -0.016(3)
O5 0.067(4) 0.160(6) 0.046(3) -0.012(3) 0.002(3) 0.046(4)
N1 0.053(4) 0.074(4) 0.043(3) -0.005(3) 0.004(3) 0.006(3)
N2 0.057(4) 0.071(4) 0.038(3) -0.009(3) 0.005(3) 0.001(3)
N3 0.045 0.091 0.049 0.005 0.011 0.025
N4 0.054 0.103 0.038 0.006 -0.003 0.04
C1 0.052(5) 0.085(6) 0.048(5) 0.002(4) 0.011(4) -0.003(4)
C2 0.055(5) 0.094(6) 0.045(4) -0.004(4) -0.001(4) -0.018(4)
C3 0.048(5) 0.079(5) 0.055(5) -0.014(4) 0.003(4) 0.004(4)
C4 0.054(5) 0.076(5) 0.039(4) -0.005(4) 0.002(4) 0.012(4)
C5 0.076(6) 0.085(6) 0.063(5) -0.011(5) 0.003(5) -0.007(5)
C6 0.078(6) 0.113(7) 0.050(5) -0.034(5) 0.002(5) 0.027(6)
C7 0.061(5) 0.077(6) 0.075(6) -0.013(5) 0.006(5) -0.001(5)
C8 0.052(5) 0.112(7) 0.066(5) -0.012(5) 0.015(4) 0.005(5)
C9 0.051(5) 0.126(8) 0.044(5) -0.010(5) 0.002(4) 0.021(6)
C10 0.058(5) 0.112(7) 0.039(4) -0.007(5) 0.006(4) 0.020(5)
C11 0.083 0.109 0.05 -0.032 0.012 0.04
C12 0.077 0.146 0.048 -0.006 0.029 0.036
C13 0.047 0.082 0.044 -0.006 -0.002 0.013
C14 0.054 0.074 0.043 -0.001 0.002 0.015
C15 0.06 0.081 0.048 -0.001 0.004 0.033
C16 0.063 0.103 0.048 0.008 0.002 0.043
C17 0.076 0.095 0.053 0.004 -0.003 0.046
C18 0.077 0.097 0.054 -0.009 0.006 0.043
C19 0.055(6) 0.063(5) 0.098(7) 0.013(5) -0.003(5) 0.007(5)
C20 0.046(5) 0.055(5) 0.082(6) 0.018(4) -0.001(4) 0.004(4)
C21 0.058(5) 0.072(5) 0.096(7) 0.025(5) -0.008(5) -0.004(4)
C22 0.059(5) 0.069(5) 0.075(6) 0.021(5) 0.013(5) -0.005(4)
C23 0.058(5) 0.066(5) 0.078(6) 0.020(5) 0.015(5) -0.004(4)
C24 0.062(5) 0.067(5) 0.061(5) 0.005(4) 0.001(4) -0.003(4)
C25 0.049(4) 0.046(4) 0.063(5) -0.002(4) 0.013(4) 0.001(4)
C26 0.054(5) 0.061(5) 0.057(5) -0.014(4) 0.014(4) 0.001(4)
Zn1U 0.0495 0.0629 0.0414 -0.0065 0.0055 -0.0007
Zn1C 0.0629 0.0495 0.0414 -0.0055 0.0065 -0.0007
O4U 0.058 0.07 0.052 0.008 0.012 0.016
N3A 0.091 0.045 0.049 0.011 -0.005 -0.025
loop_
_geom_bond_atom_site_label_1
_geom_bond_atom_site_label_2
_geom_bond_site_symmetry_1
_geom_bond_site_symmetry_2
Zn1 O1 1_555 1_555
O1 C19 1_555 1_555
O2 C19 1_555 1_555
O3 C26 1_555 1_555
O4 C26 1_555 1_555
O5 C9 1_555 1_555
O6 H1 1_555 1_555
H2 O6 1_555 1_555
N1 Zn1 1_555 1_555
N2 C2 1_555 1_555
N3 C11 1_555 1_555
N4 C12 1_555 1_555
C1 N1 1_555 1_555
H3 C1 1_555 1_555
C2 C1 1_555 1_555
H4 C2 1_555 1_555
C3 N1 1_555 1_555
H5 C3 1_555 1_555
C4 N2 1_555 1_555
C5 C4 1_555 1_555
H6 C5 1_555 1_555
C6 C5 1_555 1_555
H7 C6 1_555 1_555
C7 C4 1_555 1_555
H8 C7 1_555 1_555
C8 C7 1_555 1_555
H9 C8 1_555 1_555
C9 C6 1_555 1_555
C10 O5 1_555 1_555
C11 H10 1_555 1_555
C12 C11 1_555 1_555
H11 C12 1_555 1_555
C13 N3 1_555 1_555
H12 C13 1_555 1_555
C14 N4 1_555 1_555
C15 C14 1_555 1_555
H13 C15 1_555 1_555
C16 C10 1_555 1_555
H14 C16 1_555 1_555
C17 C14 1_555 1_555
H15 C17 1_555 1_555
C18 C10 1_555 1_555
H16 C18 1_555 1_555
C19 C20 1_555 1_555
C20 C21 1_555 1_555
C21 H17 1_555 1_555
C22 C21 1_555 1_555
H18 C22 1_555 1_555
C23 C20 1_555 1_555
H19 C23 1_555 1_555
C24 C23 1_555 1_555
H20 C24 1_555 1_555
C25 C22 1_555 1_555
C26 C25 1_555 1_555
Zn1U O4 1_555 1_555
Zn1C N3 1_555 1_555
O4U Zn1 1_555 1_555
N3A Zn1 1_555 1_555
N2 C3 1_555 1_555
N4 C13 1_555 1_555
C8 C9 1_555 1_555
C15 C16 1_555 1_555
C17 C18 1_555 1_555
C24 C25 1_555 1_555

#END
