
#######################################################################
#
#                 Cambridge Crystallographic Data Centre
#                                CCDC 
#
#######################################################################
#
# If this CIF has been generated from an entry in the Cambridge 
# Structural Database, then it will include bibliographic, chemical, 
# crystal, experimental, refinement or atomic coordinate data resulting 
# from the CCDC's data processing and validation procedures.
#
#######################################################################

data_WEZCIO
_chemical_formula_moiety         '(C48 H72 Co6 La4 O72)n'
_symmetry_cell_setting           hexagonal
_symmetry_space_group_name_H-M   'P 6/m c c'
_symmetry_Int_Tables_number      192
_space_group_name_Hall           '-P 6 2c'
loop_
_symmetry_equiv_pos_site_id
_symmetry_equiv_pos_as_xyz
1 x,y,z
2 x-y,x,z
3 -y,x-y,z
4 -x+y,-x,z
5 y,-x+y,z
6 x,x-y,1/2-z
7 y,x,1/2-z
8 -x+y,y,1/2-z
9 -x,-y,z
10 -y,-x,1/2-z
11 x-y,-y,1/2-z
12 -x,-x+y,1/2-z
13 -x,-y,-z
14 -x+y,-x,-z
15 y,-x+y,-z
16 x-y,x,-z
17 -y,x-y,-z
18 -x,-x+y,1/2+z
19 -y,-x,1/2+z
20 x-y,-y,1/2+z
21 x,y,-z
22 y,x,1/2+z
23 -x+y,y,1/2+z
24 x,x-y,1/2+z
_cell_length_a                   15.3090(5)
_cell_length_b                   15.3090(5)
_cell_length_c                   15.1797(6)
_cell_angle_alpha                90
_cell_angle_beta                 90
_cell_angle_gamma                120
_cell_volume                     3080.97
loop_
_atom_site_label
_atom_site_type_symbol
_atom_site_fract_x
_atom_site_fract_y
_atom_site_fract_z
La1 La 0.33333 0.66667 0.25000
Co1 Co 0.50000 0.50000 0.00000
O1 O 0.5090(3) 0.6451(3) 0.00000
O2 O 0.23545(15) 0.4709(3) 0.25000
O3 O 0.3884(3) 0.4401(2) 0.0954(2)
O4 O 0.3812(2) 0.5743(2) 0.14180(19)
C1 C 0.3524(3) 0.4812(3) 0.1413(3)
C2 C 0.2665(4) 0.4133(4) 0.2000(4)
H1 H 0.47800 0.61710 0.04740
H2 H 0.21060 0.36430 0.16470
H3 H 0.28740 0.37700 0.23920
La1T La 0.33333 0.66667 -0.25000
La1U La 0.66667 0.33333 -0.25000
La1F La 0.66667 0.33333 0.25000
La1T_2 La 0.33333 0.66667 0.75000
La1U_2 La -0.33333 0.33333 0.75000
La1A La -0.33334 0.33333 0.25000
La1U_3 La 0.66667 1.33333 -0.25000
La1A_2 La 0.66666 1.33333 0.25000
Co1G Co -0.00000 0.50000 0.50000
Co1B Co 0.50000 1.00000 0.00000
Co1F Co 0.50000 0.50000 0.50000
Co1A Co 0.00000 0.50000 0.00000
Co1E Co 0.50000 1.00000 0.50000
Co1G_2 Co 0.00000 0.50000 -0.50000
Co1G_3 Co 1.00000 0.50000 -0.50000
Co1G_4 Co 1.00000 0.50000 0.50000
Co1_2 Co 0.50000 0.50000 1.00000
Co1_3 Co -0.50000 0.50000 1.00000
Co1_4 Co -0.50000 0.50000 0.00000
Co1F_2 Co 0.50000 0.50000 -0.50000
Co1F_3 Co 0.50000 1.50000 -0.50000
Co1F_4 Co 0.50000 1.50000 0.50000
O1L O 0.4910(3) 0.3549(3) 0.00000
O1G O 0.1361(4) 0.6451(3) 0.50000
O1S O -0.1361(4) 0.3549(3) 0.50000
O1B O 0.3549(3) 0.8639(4) 0.00000
O1D O 0.6451(3) 1.1361(4) 0.00000
O1R O 0.3549(3) 0.4910(3) 0.50000
O1F O 0.6451(3) 0.5090(3) 0.50000
O1C O 0.1361(4) 0.4910(3) 0.00000
O1A O -0.1361(4) 0.5090(3) 0.00000
O1E O 0.5090(3) 0.8639(4) 0.50000
O1Q O 0.4910(3) 1.1361(4) 0.50000
O2B O 0.5291(3) 0.76455(34) 0.25000
O2C O 0.23545(34) 0.76455(15) 0.25000
O2T O 0.23545(15) 0.4709(3) -0.25000
O2L O 0.76455(15) 0.5291(3) -0.25000
O2H O 0.76455(15) 0.5291(3) 0.25000
O2T_2 O 0.23545(15) 0.4709(3) 0.75000
O2L_2 O -0.23545(15) 0.5291(3) 0.75000
O2H_2 O -0.23545(15) 0.5291(3) 0.25000
O2P O 0.5291(3) 0.76455(34) -0.25000
O2U O 0.4709(3) 1.23545(15) -0.25000
O2D O 0.4709(3) 1.23545(34) 0.25000
O2W O 0.23545(15) 0.76455(34) -0.25000
O2U_2 O 0.4709(3) 0.23545(15) -0.25000
O2O O 0.76455(34) 0.23545(15) -0.25000
O2A O 0.76455(34) 0.23545(15) 0.25000
O2D_2 O 0.4709(3) 0.23545(34) 0.25000
O3G O 0.0517(4) 0.4401(2) 0.4046(2)
O3B O 0.5599(2) 0.9483(4) 0.0954(2)
O3I O 0.5599(2) 0.6116(3) 0.4046(2)
O3C O 0.0517(4) 0.6116(3) 0.0954(2)
O3E O 0.3884(3) 0.9483(4) 0.4046(2)
O3T O 0.3884(3) 0.4401(2) -0.0954(2)
O3V O 0.0517(4) 0.4401(2) -0.4046(2)
O3L O 0.6116(3) 0.5599(2) -0.0954(2)
O3S O 0.9483(4) 0.5599(2) -0.4046(2)
O3H O 0.6116(3) 0.5599(2) 0.0954(2)
O3J O 0.9483(4) 0.5599(2) 0.4046(2)
O3V_2 O 0.0517(4) 0.4401(2) 0.5954(2)
O3T_2 O 0.3884(3) 0.4401(2) 0.9046(2)
O3S_2 O -0.0517(4) 0.5599(2) 0.5954(2)
O3L_2 O -0.3884(3) 0.5599(2) 0.9046(2)
O3J_2 O -0.0517(4) 0.5599(2) 0.4046(2)
O3H_2 O -0.3884(3) 0.5599(2) 0.0954(2)
O3P O 0.5599(2) 0.9483(4) -0.0954(2)
O3R O 0.5599(2) 0.6116(3) -0.4046(2)
O3N O 0.4401(2) 1.0517(4) -0.0954(2)
O3U O 0.4401(2) 1.3884(3) -0.4046(2)
O3D O 0.4401(2) 1.0517(4) 0.0954(2)
O3F O 0.4401(2) 1.3884(3) 0.4046(2)
O3F_2 O 0.4401(2) 0.3884(3) 0.4046(2)
O3U_2 O 0.4401(2) 0.3884(3) 0.5954(2)
O3R_2 O 0.5599(2) 0.6116(3) 0.5954(2)
O3A O -0.0517(4) 0.3884(3) 0.0954(2)
O3M O 0.0517(4) 0.6116(3) -0.0954(2)
O3O O -0.0517(4) 0.3884(3) -0.0954(2)
O3W O 0.3884(3) 0.9483(4) 0.5954(2)
O3Q O 0.6116(3) 1.0517(4) 0.5954(2)
O3K O 0.6116(3) 1.0517(4) 0.4046(2)
O4G O 0.1931(3) 0.5743(2) 0.35820(19)
O4B O 0.4257(2) 0.8069(3) 0.14180(19)
O4I O 0.4257(2) 0.6188(2) 0.35820(19)
O4C O 0.1931(3) 0.6188(2) 0.14180(19)
O4E O 0.3812(2) 0.8069(3) 0.35820(19)
O4T O 0.3812(2) 0.5743(2) -0.14180(19)
O4V O 0.1931(3) 0.5743(2) -0.35820(19)
O4L O 0.6188(2) 0.4257(2) -0.14180(19)
O4S O 0.8069(3) 0.4257(2) -0.35820(19)
O4H O 0.6188(2) 0.4257(2) 0.14180(19)
O4J O 0.8069(3) 0.4257(2) 0.35820(19)
O4V_2 O 0.1931(3) 0.5743(2) 0.64180(19)
O4T_2 O 0.3812(2) 0.5743(2) 0.85820(19)
O4S_2 O -0.1931(3) 0.4257(2) 0.64180(19)
O4L_2 O -0.3812(2) 0.4257(2) 0.85820(19)
O4J_2 O -0.1931(3) 0.4257(2) 0.35820(19)
O4H_2 O -0.3812(2) 0.4257(2) 0.14180(19)
O4P O 0.4257(2) 0.8069(3) -0.14180(19)
O4R O 0.4257(2) 0.6188(2) -0.35820(19)
O4N O 0.5743(2) 1.1931(3) -0.14180(19)
O4U O 0.5743(2) 1.3812(2) -0.35820(19)
O4D O 0.5743(2) 1.1931(3) 0.14180(19)
O4F O 0.5743(2) 1.3812(2) 0.35820(19)
O4W O 0.3812(2) 0.8069(3) -0.35820(19)
O4M O 0.1931(3) 0.6188(2) -0.14180(19)
O4U_2 O 0.5743(2) 0.3812(2) -0.35820(19)
O4N_2 O 0.5743(2) 0.1931(3) -0.14180(19)
O4O O 0.8069(3) 0.3812(2) -0.14180(19)
O4Q O 0.6188(2) 0.1931(3) -0.35820(19)
O4A O 0.8069(3) 0.3812(2) 0.14180(19)
O4D_2 O 0.5743(2) 0.1931(3) 0.14180(19)
O4F_2 O 0.5743(2) 0.3812(2) 0.35820(19)
O4K O 0.6188(2) 0.1931(3) 0.35820(19)
C1G C 0.1288(4) 0.4812(3) 0.3587(3)
C1B C 0.5188(3) 0.8712(4) 0.1413(3)
C1I C 0.5188(3) 0.6476(3) 0.3587(3)
C1C C 0.1288(4) 0.6476(3) 0.1413(3)
C1E C 0.3524(3) 0.8712(4) 0.3587(3)
C1T C 0.3524(3) 0.4812(3) -0.1413(3)
C1V C 0.1288(4) 0.4812(3) -0.3587(3)
C1L C 0.6476(3) 0.5188(3) -0.1413(3)
C1S C 0.8712(4) 0.5188(3) -0.3587(3)
C1H C 0.6476(3) 0.5188(3) 0.1413(3)
C1J C 0.8712(4) 0.5188(3) 0.3587(3)
C1V_2 C 0.1288(4) 0.4812(3) 0.6413(3)
C1T_2 C 0.3524(3) 0.4812(3) 0.8587(3)
C1S_2 C -0.1288(4) 0.5188(3) 0.6413(3)
C1L_2 C -0.3524(3) 0.5188(3) 0.8587(3)
C1J_2 C -0.1288(4) 0.5188(3) 0.3587(3)
C1H_2 C -0.3524(3) 0.5188(3) 0.1413(3)
C1P C 0.5188(3) 0.8712(4) -0.1413(3)
C1R C 0.5188(3) 0.6476(3) -0.3587(3)
C1N C 0.4812(3) 1.1288(4) -0.1413(3)
C1U C 0.4812(3) 1.3524(3) -0.3587(3)
C1D C 0.4812(3) 1.1288(4) 0.1413(3)
C1F C 0.4812(3) 1.3524(3) 0.3587(3)
C2G C 0.1468(6) 0.4133(4) 0.3000(4)
C2B C 0.5867(4) 0.8532(6) 0.2000(4)
C2I C 0.5867(4) 0.7335(4) 0.3000(4)
C2C C 0.1468(6) 0.7335(4) 0.2000(4)
C2E C 0.2665(4) 0.8532(6) 0.3000(4)
C2T C 0.2665(4) 0.4133(4) -0.2000(4)
C2V C 0.1468(6) 0.4133(4) -0.3000(4)
C2L C 0.7335(4) 0.5867(4) -0.2000(4)
C2S C 0.8532(6) 0.5867(4) -0.3000(4)
C2H C 0.7335(4) 0.5867(4) 0.2000(4)
C2J C 0.8532(6) 0.5867(4) 0.3000(4)
C2V_2 C 0.1468(6) 0.4133(4) 0.7000(4)
C2T_2 C 0.2665(4) 0.4133(4) 0.8000(4)
C2S_2 C -0.1468(6) 0.5867(4) 0.7000(4)
C2L_2 C -0.2665(4) 0.5867(4) 0.8000(4)
C2J_2 C -0.1468(6) 0.5867(4) 0.3000(4)
C2H_2 C -0.2665(4) 0.5867(4) 0.2000(4)
C2P C 0.5867(4) 0.8532(6) -0.2000(4)
C2R C 0.5867(4) 0.7335(4) -0.3000(4)
C2N C 0.4133(4) 1.1468(6) -0.2000(4)
C2U C 0.4133(4) 1.2665(4) -0.3000(4)
C2D C 0.4133(4) 1.1468(6) 0.2000(4)
C2F C 0.4133(4) 1.2665(4) 0.3000(4)
H1T H 0.47800 0.61710 -0.04740
H1L H 0.52200 0.38290 -0.04740
H1H H 0.52200 0.38290 0.04740
H1G H 0.13910 0.61710 0.45260
H1V H 0.13910 0.61710 0.54740
H1S H -0.13910 0.38290 0.54740
H1J H -0.13910 0.38290 0.45260
H1B H 0.38290 0.86090 0.04740
H1P H 0.38290 0.86090 -0.04740
H1N H 0.61710 1.13910 -0.04740
H1D H 0.61710 1.13910 0.04740
H1I H 0.38290 0.52200 0.45260
H1R H 0.38290 0.52200 0.54740
H1U H 0.61710 0.47800 0.54740
H1F H 0.61710 0.47800 0.45260
H1C H 0.13910 0.52200 0.04740
H1M H 0.13910 0.52200 -0.04740
H1O H -0.13910 0.47800 -0.04740
H1A H -0.13910 0.47800 0.04740
H1E H 0.47800 0.86090 0.45260
H1W H 0.47800 0.86090 0.54740
H1Q H 0.52200 1.13910 0.54740
H1K H 0.52200 1.13910 0.45260
H2G H 0.15370 0.36430 0.33530
H2B H 0.63570 0.84630 0.16470
H2I H 0.63570 0.78940 0.33530
H2C H 0.15370 0.78940 0.16470
H2E H 0.21060 0.84630 0.33530
H2T H 0.21060 0.36430 -0.16470
H2V H 0.15370 0.36430 -0.33530
H2L H 0.78940 0.63570 -0.16470
H2S H 0.84630 0.63570 -0.33530
H2H H 0.78940 0.63570 0.16470
H2J H 0.84630 0.63570 0.33530
H2V_2 H 0.15370 0.36430 0.66470
H2T_2 H 0.21060 0.36430 0.83530
H2S_2 H -0.15370 0.63570 0.66470
H2L_2 H -0.21060 0.63570 0.83530
H2J_2 H -0.15370 0.63570 0.33530
H2H_2 H -0.21060 0.63570 0.16470
H2P H 0.63570 0.84630 -0.16470
H2R H 0.63570 0.78940 -0.33530
H2N H 0.36430 1.15370 -0.16470
H2U H 0.36430 1.21060 -0.33530
H2D H 0.36430 1.15370 0.16470
H2F H 0.36430 1.21060 0.33530
H3G H 0.08960 0.37700 0.26080
H3B H 0.62300 0.91040 0.23920
H3I H 0.62300 0.71260 0.26080
H3C H 0.08960 0.71260 0.23920
H3E H 0.28740 0.91040 0.26080
H3T H 0.28740 0.37700 -0.23920
H3V H 0.08960 0.37700 -0.26080
H3L H 0.71260 0.62300 -0.23920
H3S H 0.91040 0.62300 -0.26080
H3H H 0.71260 0.62300 0.23920
H3J H 0.91040 0.62300 0.26080
H3V_2 H 0.08960 0.37700 0.73920
H3T_2 H 0.28740 0.37700 0.76080
H3S_2 H -0.08960 0.62300 0.73920
H3L_2 H -0.28740 0.62300 0.76080
H3J_2 H -0.08960 0.62300 0.26080
H3H_2 H -0.28740 0.62300 0.23920
H3P H 0.62300 0.91040 -0.23920
H3R H 0.62300 0.71260 -0.26080
H3N H 0.37700 1.08960 -0.23920
H3U H 0.37700 1.28740 -0.26080
H3D H 0.37700 1.08960 0.23920
H3F H 0.37700 1.28740 0.26080
loop_
_geom_bond_atom_site_label_1
_geom_bond_atom_site_label_2
_geom_bond_site_symmetry_1
_geom_bond_site_symmetry_2
La1 O2 1_555 1_555
Co1 O1 1_555 1_555
O1 H1 1_555 1_555
O2 C2 1_555 1_555
O3 Co1 1_555 1_555
O4 La1 1_555 1_555
C1 O3 1_555 1_555
C2 C1 1_555 1_555
H2 C2 1_555 1_555
H3 C2 1_555 1_555
La1T O2T 1_555 1_555
La1U O2L 1_555 1_555
La1F O2H 1_555 1_555
La1T_2 O2T_2 1_555 1_555
La1U_2 O2L_2 1_555 1_555
La1A O2H_2 1_555 1_555
La1U_3 O2U 1_555 1_555
La1A_2 O2D 1_555 1_555
Co1G O1G 1_555 1_555
Co1B O1B 1_555 1_555
Co1F O1R 1_555 1_555
Co1A O1C 1_555 1_555
Co1E O1E 1_555 1_555
Co1G_2 O3V 1_555 1_555
Co1G_3 O3S 1_555 1_555
Co1G_4 O3J 1_555 1_555
Co1_2 O3T_2 1_555 1_555
Co1_3 O3L_2 1_555 1_555
Co1_4 O3H_2 1_555 1_555
Co1F_2 O3R 1_555 1_555
Co1F_3 O3U 1_555 1_555
Co1F_4 O3F 1_555 1_555
O1L Co1 1_555 1_555
O1G H1G 1_555 1_555
O1S Co1G 1_555 1_555
O1B H1B 1_555 1_555
O1D Co1B 1_555 1_555
O1R H1I 1_555 1_555
O1F Co1F 1_555 1_555
O1C H1C 1_555 1_555
O1A Co1A 1_555 1_555
O1E H1E 1_555 1_555
O1Q Co1E 1_555 1_555
O2B La1 1_555 1_555
O2C La1 1_555 1_555
O2T C2T 1_555 1_555
O2L C2L 1_555 1_555
O2H C2H 1_555 1_555
O2T_2 C2V_2 1_555 1_555
O2L_2 C2S_2 1_555 1_555
O2H_2 C2J_2 1_555 1_555
O2P La1T 1_555 1_555
O2U C2N 1_555 1_555
O2D C2D 1_555 1_555
O2W La1T 1_555 1_555
O2U_2 La1U 1_555 1_555
O2O La1U 1_555 1_555
O2A La1F 1_555 1_555
O2D_2 La1F 1_555 1_555
O3G Co1G 1_555 1_555
O3B Co1B 1_555 1_555
O3I Co1F 1_555 1_555
O3C Co1A 1_555 1_555
O3E Co1E 1_555 1_555
O3T Co1 1_555 1_555
O3V C1V 1_555 1_555
O3L Co1 1_555 1_555
O3S C1S 1_555 1_555
O3H Co1 1_555 1_555
O3J C1J 1_555 1_555
O3V_2 Co1G 1_555 1_555
O3T_2 C1T_2 1_555 1_555
O3S_2 Co1G 1_555 1_555
O3L_2 C1L_2 1_555 1_555
O3J_2 Co1G 1_555 1_555
O3H_2 C1H_2 1_555 1_555
O3P Co1B 1_555 1_555
O3R C1R 1_555 1_555
O3N Co1B 1_555 1_555
O3U C1U 1_555 1_555
O3D Co1B 1_555 1_555
O3F C1F 1_555 1_555
O3F_2 Co1F 1_555 1_555
O3U_2 Co1F 1_555 1_555
O3R_2 Co1F 1_555 1_555
O3A Co1A 1_555 1_555
O3M Co1A 1_555 1_555
O3O Co1A 1_555 1_555
O3W Co1E 1_555 1_555
O3Q Co1E 1_555 1_555
O3K Co1E 1_555 1_555
O4G La1 1_555 1_555
O4B La1 1_555 1_555
O4I La1 1_555 1_555
O4C La1 1_555 1_555
O4E La1 1_555 1_555
O4T La1T 1_555 1_555
O4V La1T 1_555 1_555
O4L La1U 1_555 1_555
O4S La1U 1_555 1_555
O4H La1F 1_555 1_555
O4J La1F 1_555 1_555
O4V_2 La1T_2 1_555 1_555
O4T_2 La1T_2 1_555 1_555
O4S_2 La1U_2 1_555 1_555
O4L_2 La1U_2 1_555 1_555
O4J_2 La1A 1_555 1_555
O4H_2 La1A 1_555 1_555
O4P La1T 1_555 1_555
O4R La1T 1_555 1_555
O4N La1U_3 1_555 1_555
O4U La1U_3 1_555 1_555
O4D La1A_2 1_555 1_555
O4F La1A_2 1_555 1_555
O4W La1T 1_555 1_555
O4M La1T 1_555 1_555
O4U_2 La1U 1_555 1_555
O4N_2 La1U 1_555 1_555
O4O La1U 1_555 1_555
O4Q La1U 1_555 1_555
O4A La1F 1_555 1_555
O4D_2 La1F 1_555 1_555
O4F_2 La1F 1_555 1_555
O4K La1F 1_555 1_555
C1G O3G 1_555 1_555
C1B O3B 1_555 1_555
C1I O3I 1_555 1_555
C1C O3C 1_555 1_555
C1E O3E 1_555 1_555
C1T O3T 1_555 1_555
C1V O4V 1_555 1_555
C1L O3L 1_555 1_555
C1S O4S 1_555 1_555
C1H O3H 1_555 1_555
C1J O4J 1_555 1_555
C1V_2 O3V_2 1_555 1_555
C1T_2 O4T_2 1_555 1_555
C1S_2 O3S_2 1_555 1_555
C1L_2 O4L_2 1_555 1_555
C1J_2 O3J_2 1_555 1_555
C1H_2 O4H_2 1_555 1_555
C1P O3P 1_555 1_555
C1R O4R 1_555 1_555
C1N O3N 1_555 1_555
C1U O4U 1_555 1_555
C1D O3D 1_555 1_555
C1F O4F 1_555 1_555
C2G O2 1_555 1_555
C2B O2B 1_555 1_555
C2I O2B 1_555 1_555
C2C O2C 1_555 1_555
C2E O2C 1_555 1_555
C2T C1T 1_555 1_555
C2V O2T 1_555 1_555
C2L C1L 1_555 1_555
C2S O2L 1_555 1_555
C2H C1H 1_555 1_555
C2J O2H 1_555 1_555
C2V_2 C1V_2 1_555 1_555
C2T_2 O2T_2 1_555 1_555
C2S_2 C1S_2 1_555 1_555
C2L_2 O2L_2 1_555 1_555
C2J_2 C1J_2 1_555 1_555
C2H_2 O2H_2 1_555 1_555
C2P O2P 1_555 1_555
C2R O2P 1_555 1_555
C2N C1N 1_555 1_555
C2U O2U 1_555 1_555
C2D C1D 1_555 1_555
C2F O2D 1_555 1_555
H1T O1 1_555 1_555
H1L O1L 1_555 1_555
H1H O1L 1_555 1_555
H1V O1G 1_555 1_555
H1S O1S 1_555 1_555
H1J O1S 1_555 1_555
H1P O1B 1_555 1_555
H1N O1D 1_555 1_555
H1D O1D 1_555 1_555
H1R O1R 1_555 1_555
H1U O1F 1_555 1_555
H1F O1F 1_555 1_555
H1M O1C 1_555 1_555
H1O O1A 1_555 1_555
H1A O1A 1_555 1_555
H1W O1E 1_555 1_555
H1Q O1Q 1_555 1_555
H1K O1Q 1_555 1_555
H2G C2G 1_555 1_555
H2B C2B 1_555 1_555
H2I C2I 1_555 1_555
H2C C2C 1_555 1_555
H2E C2E 1_555 1_555
H2T C2T 1_555 1_555
H2V C2V 1_555 1_555
H2L C2L 1_555 1_555
H2S C2S 1_555 1_555
H2H C2H 1_555 1_555
H2J C2J 1_555 1_555
H2V_2 C2V_2 1_555 1_555
H2T_2 C2T_2 1_555 1_555
H2S_2 C2S_2 1_555 1_555
H2L_2 C2L_2 1_555 1_555
H2J_2 C2J_2 1_555 1_555
H2H_2 C2H_2 1_555 1_555
H2P C2P 1_555 1_555
H2R C2R 1_555 1_555
H2N C2N 1_555 1_555
H2U C2U 1_555 1_555
H2D C2D 1_555 1_555
H2F C2F 1_555 1_555
H3G C2G 1_555 1_555
H3B C2B 1_555 1_555
H3I C2I 1_555 1_555
H3C C2C 1_555 1_555
H3E C2E 1_555 1_555
H3T C2T 1_555 1_555
H3V C2V 1_555 1_555
H3L C2L 1_555 1_555
H3S C2S 1_555 1_555
H3H C2H 1_555 1_555
H3J C2J 1_555 1_555
H3V_2 C2V_2 1_555 1_555
H3T_2 C2T_2 1_555 1_555
H3S_2 C2S_2 1_555 1_555
H3L_2 C2L_2 1_555 1_555
H3J_2 C2J_2 1_555 1_555
H3H_2 C2H_2 1_555 1_555
H3P C2P 1_555 1_555
H3R C2R 1_555 1_555
H3N C2N 1_555 1_555
H3U C2U 1_555 1_555
H3D C2D 1_555 1_555
H3F C2F 1_555 1_555
O4 C1 1_555 1_555
O4G C1G 1_555 1_555
O4B C1B 1_555 1_555
O4I C1I 1_555 1_555
O4C C1C 1_555 1_555
O4E C1E 1_555 1_555
O4T C1T 1_555 1_555
O4L C1L 1_555 1_555
O4H C1H 1_555 1_555
O4V_2 C1V_2 1_555 1_555
O4S_2 C1S_2 1_555 1_555
O4J_2 C1J_2 1_555 1_555
O4P C1P 1_555 1_555
O4N C1N 1_555 1_555
O4D C1D 1_555 1_555
C1G C2G 1_555 1_555
C1B C2B 1_555 1_555
C1I C2I 1_555 1_555
C1C C2C 1_555 1_555
C1E C2E 1_555 1_555
C1V C2V 1_555 1_555
C1S C2S 1_555 1_555
C1J C2J 1_555 1_555
C1T_2 C2T_2 1_555 1_555
C1L_2 C2L_2 1_555 1_555
C1H_2 C2H_2 1_555 1_555
C1P C2P 1_555 1_555
C1R C2R 1_555 1_555
C1U C2U 1_555 1_555
C1F C2F 1_555 1_555

#END
