
#######################################################################
#
#                 Cambridge Crystallographic Data Centre
#                                CCDC 
#
#######################################################################
#
# If this CIF has been generated from an entry in the Cambridge 
# Structural Database, then it will include bibliographic, chemical, 
# crystal, experimental, refinement or atomic coordinate data resulting 
# from the CCDC's data processing and validation procedures.
#
#######################################################################

data_KOFPEB
_chemical_formula_moiety         '(C24 H34 Cu3 La2 N6 O26)n'
_symmetry_cell_setting           trigonal
_symmetry_space_group_name_H-M   'P -3 c 1'
_symmetry_Int_Tables_number      165
_space_group_name_Hall           '-P 3 2"c'
loop_
_symmetry_equiv_pos_site_id
_symmetry_equiv_pos_as_xyz
1 x,y,z
2 -y,x-y,z
3 -x+y,-x,z
4 y,x,1/2-z
5 x-y,-y,1/2-z
6 -x,-x+y,1/2-z
7 -x,-y,-z
8 y,-x+y,-z
9 x-y,x,-z
10 -y,-x,1/2+z
11 -x+y,y,1/2+z
12 x,x-y,1/2+z
_cell_length_a                   13.5136(19)
_cell_length_b                   13.5136(19)
_cell_length_c                   14.795(3)
_cell_angle_alpha                90
_cell_angle_beta                 90
_cell_angle_gamma                120
_cell_volume                     2339.85
loop_
_atom_site_label
_atom_site_type_symbol
_atom_site_fract_x
_atom_site_fract_y
_atom_site_fract_z
H1 H 0.2002 0.3401 0.4652
H2 H 0.2470 0.2889 0.5450
H3 H 0.2749 0.4635 0.3784
H4 H 0.3295 0.3982 0.3139
H5 H 0.3530 0.3282 0.4225
C1 C 0.2734 0.4536 0.5647
C2 C 0.2569 0.3516 0.5085
C3 C 0.3339 0.4468 0.3623
C4 C 0.4409 0.5611 0.3415
N1 N 0.3501 0.3889 0.4411
O1 O 0.3638 0.5479 0.5527
O2 O 0.1998 0.4404 0.6220
O3 O 0.5255 0.5958 0.3932
O4 O 0.4379 0.6140 0.2739
Cu1 Cu 0.5000 0.5000 0.5000
La1 La 0.3333 0.6667 0.6670
H1A H 0.6599 0.8601 0.4652
H1B H 0.1399 0.7998 0.4652
H1J H 0.1399 0.3401 0.9652
H1K H 0.2002 0.8601 0.9652
H1I H 0.6599 0.7998 0.9652
H2A H 0.7111 0.9581 0.5450
H2B H 0.0419 0.7530 0.5450
H2J H 0.0419 0.2889 1.0450
H2K H 0.2470 0.9581 1.0450
H2I H 0.7111 0.7530 1.0450
H3A H 0.5365 0.8114 0.3784
H3B H 0.1886 0.7251 0.3784
H3J H 0.1886 0.4635 0.8784
H3K H 0.2749 0.8114 0.8784
H3I H 0.5365 0.7251 0.8784
H4A H 0.6018 0.9313 0.3139
H4B H 0.0687 0.6705 0.3139
H4J H 0.0687 0.3982 0.8139
H4K H 0.3295 0.9313 0.8139
H4I H 0.6018 0.6705 0.8139
H5A H 0.6718 1.0248 0.4225
H5B H -0.0248 0.6470 0.4225
H5J H -0.0248 0.3282 0.9225
H5K H 0.3530 1.0248 0.9225
H5I H 0.6718 0.6470 0.9225
H5F H 0.6470 0.6718 0.5775
H5G H 0.3282 0.9752 0.5775
H5H H 0.0248 0.3530 0.5775
C1A C 0.5464 0.8198 0.5647
C1B C 0.1802 0.7266 0.5647
C1J C 0.1802 0.4536 1.0647
C1K C 0.2734 0.8198 1.0647
C1I C 0.5464 0.7266 1.0647
C2A C 0.6484 0.9053 0.5085
C2B C 0.0947 0.7431 0.5085
C2J C 0.0947 0.3516 1.0085
C2K C 0.2569 0.9053 1.0085
C2I C 0.6484 0.7431 1.0085
C3A C 0.5532 0.8871 0.3623
C3B C 0.1129 0.6661 0.3623
C3J C 0.1129 0.4468 0.8623
C3K C 0.3339 0.8871 0.8623
C3I C 0.5532 0.6661 0.8623
C4A C 0.4389 0.8798 0.3415
C4B C 0.1202 0.5591 0.3415
C4J C 0.1202 0.5611 0.8415
C4K C 0.4409 0.8798 0.8415
C4I C 0.4389 0.5591 0.8415
N1A N 0.6111 0.9612 0.4411
N1B N 0.0388 0.6499 0.4411
N1J N 0.0388 0.3889 0.9411
N1K N 0.3501 0.9612 0.9411
N1I N 0.6111 0.6499 0.9411
N1F N 0.6499 0.6111 0.5589
N1G N 0.3889 1.0388 0.5589
N1H N -0.0388 0.3501 0.5589
O1A O 0.4521 0.8159 0.5527
O1B O 0.1841 0.6362 0.5527
O1J O 0.1841 0.5479 1.0527
O1K O 0.3638 0.8159 1.0527
O1I O 0.4521 0.6362 1.0527
O1F O 0.6362 0.4521 0.4473
O1G O 0.5479 1.1841 0.4473
O1H O -0.1841 0.3638 0.4473
O2A O 0.5596 0.7594 0.6220
O2B O 0.2406 0.8002 0.6220
O2J O 0.2406 0.4404 1.1220
O2K O 0.1998 0.7594 1.1220
O2I O 0.5596 0.8002 1.1220
O3A O 0.4042 0.9297 0.3932
O3B O 0.0703 0.4745 0.3932
O3J O 0.0703 0.5958 0.8932
O3K O 0.5255 0.9297 0.8932
O3I O 0.4042 0.4745 0.8932
O3F O 0.4745 0.4042 0.6068
O3G O 0.5958 1.0703 0.6068
O3H O -0.0703 0.5255 0.6068
O4A O 0.3860 0.8239 0.2739
O4B O 0.1761 0.5621 0.2739
O4J O 0.1761 0.6140 0.7739
O4K O 0.4379 0.8239 0.7739
O4I O 0.3860 0.5621 0.7739
O4_2 O 0.4379 0.6140 1.2739
O4A_2 O 0.3860 0.8239 1.2739
O4B_2 O 0.1761 0.5621 1.2739
Cu1A Cu 0.5000 1.0000 0.5000
Cu1B Cu 0.0000 0.5000 0.5000
Cu1J Cu 0.0000 0.5000 1.0000
Cu1K Cu 0.5000 1.0000 1.0000
Cu1C Cu 0.5000 0.5000 1.0000
La1J La 0.3334 0.6667 1.1670
La1J_2 La 0.3334 0.6667 0.1670
O5 O -0.0000 -0.0000 0.0904
O6 O 0.2019 0.1329 0.1715
loop_
_geom_bond_atom_site_label_1
_geom_bond_atom_site_label_2
_geom_bond_site_symmetry_1
_geom_bond_site_symmetry_2
H1 C2 1_555 1_555
H2 C2 1_555 1_555
H3 C3 1_555 1_555
H4 C3 1_555 1_555
H5 N1 1_555 1_555
C1 C2 1_555 1_555
C2 N1 1_555 1_555
C3 C4 1_555 1_555
C4 O3 1_555 1_555
N1 C3 1_555 1_555
O1 C1 1_555 1_555
O2 C1 1_555 1_555
O3 Cu1 1_555 1_555
O4 C4 1_555 1_555
Cu1 N1 1_555 1_555
La1 O1 1_555 1_555
H1A C2A 1_555 1_555
H1B C2B 1_555 1_555
H1J C2J 1_555 1_555
H1K C2K 1_555 1_555
H1I C2I 1_555 1_555
H2A C2A 1_555 1_555
H2B C2B 1_555 1_555
H2J C2J 1_555 1_555
H2K C2K 1_555 1_555
H2I C2I 1_555 1_555
H3A C3A 1_555 1_555
H3B C3B 1_555 1_555
H3J C3J 1_555 1_555
H3K C3K 1_555 1_555
H3I C3I 1_555 1_555
H4A C3A 1_555 1_555
H4B C3B 1_555 1_555
H4J C3J 1_555 1_555
H4K C3K 1_555 1_555
H4I C3I 1_555 1_555
H5A N1A 1_555 1_555
H5B N1B 1_555 1_555
H5J N1J 1_555 1_555
H5K N1K 1_555 1_555
H5I N1I 1_555 1_555
H5F N1F 1_555 1_555
H5G N1G 1_555 1_555
H5H N1H 1_555 1_555
C1A C2A 1_555 1_555
C1B C2B 1_555 1_555
C1J C2J 1_555 1_555
C1K C2K 1_555 1_555
C1I C2I 1_555 1_555
C2A N1A 1_555 1_555
C2B N1B 1_555 1_555
C2J N1J 1_555 1_555
C2K N1K 1_555 1_555
C2I N1I 1_555 1_555
C3A C4A 1_555 1_555
C3B C4B 1_555 1_555
C3J C4J 1_555 1_555
C3K C4K 1_555 1_555
C3I C4I 1_555 1_555
C4A O3A 1_555 1_555
C4B O3B 1_555 1_555
C4J O3J 1_555 1_555
C4K O3K 1_555 1_555
C4I O3I 1_555 1_555
N1A C3A 1_555 1_555
N1B C3B 1_555 1_555
N1J C3J 1_555 1_555
N1K C3K 1_555 1_555
N1I C3I 1_555 1_555
N1F Cu1 1_555 1_555
N1G Cu1A 1_555 1_555
N1H Cu1B 1_555 1_555
O1A La1 1_555 1_555
O1B La1 1_555 1_555
O1J C1J 1_555 1_555
O1K C1K 1_555 1_555
O1I C1I 1_555 1_555
O1F Cu1 1_555 1_555
O1G Cu1A 1_555 1_555
O1H Cu1B 1_555 1_555
O2A La1 1_555 1_555
O2B La1 1_555 1_555
O2J C1J 1_555 1_555
O2K C1K 1_555 1_555
O2I C1I 1_555 1_555
O3A Cu1A 1_555 1_555
O3B Cu1B 1_555 1_555
O3J Cu1J 1_555 1_555
O3K Cu1K 1_555 1_555
O3I Cu1C 1_555 1_555
O3F Cu1 1_555 1_555
O3G Cu1A 1_555 1_555
O3H Cu1B 1_555 1_555
O4A C4A 1_555 1_555
O4B C4B 1_555 1_555
O4J La1 1_555 1_555
O4K La1 1_555 1_555
O4I La1 1_555 1_555
O4_2 La1J 1_555 1_555
O4A_2 La1J 1_555 1_555
O4B_2 La1J 1_555 1_555
Cu1A N1A 1_555 1_555
Cu1B N1B 1_555 1_555
Cu1J N1J 1_555 1_555
Cu1K N1K 1_555 1_555
Cu1C N1I 1_555 1_555
La1J O1J 1_555 1_555
La1J_2 O4 1_555 1_555
O1 Cu1 1_555 1_555
O2 La1 1_555 1_555
C1A O1A 1_555 1_555
C1A O2A 1_555 1_555
C1B O1B 1_555 1_555
C1B O2B 1_555 1_555
C4J O4J 1_555 1_555
C4K O4K 1_555 1_555
C4I O4I 1_555 1_555
O1A Cu1A 1_555 1_555
O1B Cu1B 1_555 1_555
O1J Cu1J 1_555 1_555
O1K Cu1K 1_555 1_555
O1K La1J 1_555 1_555
O1I Cu1C 1_555 1_555
O1I La1J 1_555 1_555
O2J La1J 1_555 1_555
O2K La1J 1_555 1_555
O2I La1J 1_555 1_555
O4A La1J_2 1_555 1_555
O4B La1J_2 1_555 1_555

#END
