
#######################################################################
#
#                 Cambridge Crystallographic Data Centre
#                                CCDC 
#
#######################################################################
#
# If this CIF has been generated from an entry in the Cambridge 
# Structural Database, then it will include bibliographic, chemical, 
# crystal, experimental, refinement or atomic coordinate data resulting 
# from the CCDC's data processing and validation procedures.
#
#######################################################################

data_RUYQIN01
_chemical_formula_moiety         '(C21 H14 La1 N1 O7)n'
_symmetry_cell_setting           rhombohedral
_symmetry_space_group_name_H-M   'R 3 2'
_symmetry_Int_Tables_number      155
_space_group_name_Hall           'R 3 2"'
loop_
_symmetry_equiv_pos_site_id
_symmetry_equiv_pos_as_xyz
1 x,y,z
2 -y,x-y,z
3 -x+y,-x,z
4 y,x,-z
5 x-y,-y,-z
6 -x,-x+y,-z
7 2/3+x,1/3+y,1/3+z
8 2/3-y,1/3+x-y,1/3+z
9 2/3-x+y,1/3-x,1/3+z
10 2/3+y,1/3+x,1/3-z
11 2/3+x-y,1/3-y,1/3-z
12 2/3-x,1/3-x+y,1/3-z
13 1/3+x,2/3+y,2/3+z
14 1/3-y,2/3+x-y,2/3+z
15 1/3-x+y,2/3-x,2/3+z
16 1/3+y,2/3+x,2/3-z
17 1/3+x-y,2/3-y,2/3-z
18 1/3-x,2/3-x+y,2/3-z
_cell_length_a                   24.1970(6)
_cell_length_b                   24.1970(6)
_cell_length_c                   13.1426(4)
_cell_angle_alpha                90
_cell_angle_beta                 90
_cell_angle_gamma                120
_cell_volume                     6664
loop_
_atom_site_label
_atom_site_type_symbol
_atom_site_fract_x
_atom_site_fract_y
_atom_site_fract_z
La1 La 0.648280(18) -0.018387(18) 0.1667
O1 O 0.76426(17) 0.0356(2) 0.1084(3)
O2 O 0.71559(27) 0.06953(18) 0.0017(3)
O3 O 0.9936(3) 0.5675(4) 0.0842(4)
O4 O 0.5418(4) -0.1249(4) 0.1667
N1 N 1.0000 0.3100(3) 0.0000
C1 C 0.9416(3) 0.2522(3) 0.0124(5)
C2 C 0.8844(3) 0.2467(3) -0.0239(5)
H1 H 0.8844 0.2812 -0.0546
C3 C 0.8275(3) 0.1885(3) -0.0132(5)
H2 H 0.7901 0.1849 -0.0387
C4 C 0.8253(3) 0.1379(3) 0.0328(5)
C5 C 0.9406(3) 0.2002(3) 0.0623(5)
H3 H 0.9778 0.2037 0.0884
C6 C 0.8821(3) 0.1430(3) 0.0721(5)
H4 H 0.8807 0.1082 0.1046
C7 C 0.7661(3) 0.0763(3) 0.0486(5)
C8 C 1.0000 0.3697(3) 0.0000
C9 C 0.9727(3) 0.3840(4) 0.0789(5)
H5 H 0.9530 0.3550 0.1315
C10 C 0.9747(3) 0.4418(4) 0.0798(5)
H6 H 0.9586 0.4528 0.1355
C11 C 1.0000 0.4835(3) 0.0000
C12 C 1.0000 0.5457(4) 0.0000
O1E O 1.23574(17) 0.27134(26) -0.1084(3)
C1E C 1.0584(3) 0.3106(4) -0.0124(5)
C2E C 1.1156(3) 0.3623(4) 0.0239(5)
H1E H 1.1156 0.3968 0.0546
C3E C 1.1725(3) 0.3610(4) 0.0132(5)
H2E H 1.2099 0.3948 0.0387
C4E C 1.1747(3) 0.3126(4) -0.0328(5)
C5E C 1.0594(3) 0.2596(4) -0.0623(5)
H3E H 1.0222 0.2259 -0.0884
C6E C 1.1179(3) 0.2609(4) -0.0721(5)
H4E H 1.1193 0.2275 -0.1046
C7E C 1.2339(3) 0.3102(4) -0.0486(5)
O3E O 1.0064(3) 0.5739(5) -0.0842(4)
C9E C 1.0273(3) 0.4113(5) -0.0789(5)
H5E H 1.0470 0.4020 -0.1315
C10E C 1.0253(3) 0.4671(5) -0.0798(5)
H6E H 1.0414 0.4942 -0.1355
O2E O 1.28441(27) 0.35394(32) -0.0017(3)
La1A La 1.018387(18) 0.666667(25) 0.1667
La1B La 1.333333(25) 0.351720(18) 0.1667
La1C La 0.981613(18) 0.648280(18) -0.1667
La1D La 0.666667(25) 0.018387(18) -0.1667
La1E La 1.351720(18) 0.333333(25) -0.1667
O1I O 0.7023(2) 0.09759(17) 0.2249(3)
O2D O 0.64606(32) -0.06953(18) -0.0017(3)
O2G O 0.59714(18) -0.02061(32) 0.3350(3)
O2I O 0.73620(18) 0.04892(27) 0.3316(3)
O3B O 0.5739(5) 0.0064(3) 0.0842(4)
O3K O 0.6731(3) -0.0928(5) 0.2491(4)
loop_
_geom_bond_atom_site_label_1
_geom_bond_atom_site_label_2
_geom_bond_site_symmetry_1
_geom_bond_site_symmetry_2
La1 O1 1_555 1_555
O1 C7 1_555 1_555
O2 La1 1_555 1_555
O3 C12 1_555 1_555
O4 La1 1_555 1_555
N1 C1 1_555 1_555
C1 C2 1_555 1_555
C2 H1 1_555 1_555
C3 C2 1_555 1_555
H2 C3 1_555 1_555
C4 C3 1_555 1_555
C5 C1 1_555 1_555
H3 C5 1_555 1_555
C6 C4 1_555 1_555
H4 C6 1_555 1_555
C7 O2 1_555 1_555
C8 N1 1_555 1_555
C9 C8 1_555 1_555
H5 C9 1_555 1_555
C10 C9 1_555 1_555
H6 C10 1_555 1_555
C11 C10 1_555 1_555
C12 C11 1_555 1_555
O1E C7E 1_555 1_555
C1E N1 1_555 1_555
C2E C1E 1_555 1_555
H1E C2E 1_555 1_555
C3E C2E 1_555 1_555
H2E C3E 1_555 1_555
C4E C3E 1_555 1_555
C5E C1E 1_555 1_555
H3E C5E 1_555 1_555
C6E C4E 1_555 1_555
H4E C6E 1_555 1_555
C7E C4E 1_555 1_555
O3E C12 1_555 1_555
C9E C8 1_555 1_555
H5E C9E 1_555 1_555
C10E C11 1_555 1_555
H6E C10E 1_555 1_555
O2E C7E 1_555 1_555
La1A O3 1_555 1_555
La1B O2E 1_555 1_555
La1C O3E 1_555 1_555
La1D O2 1_555 1_555
La1E O1E 1_555 1_555
O1I La1 1_555 1_555
O2D La1 1_555 1_555
O2G La1 1_555 1_555
O2I La1 1_555 1_555
O3B La1 1_555 1_555
O3K La1 1_555 1_555
C4 C7 1_555 1_555
C5 C6 1_555 1_555
C5E C6E 1_555 1_555
C9E C10E 1_555 1_555
O2E La1E 1_555 1_555
La1D O2D 1_555 1_555

#END
