
#######################################################################
#
#                 Cambridge Crystallographic Data Centre
#                                CCDC 
#
#######################################################################
#
# If this CIF has been generated from an entry in the Cambridge 
# Structural Database, then it will include bibliographic, chemical, 
# crystal, experimental, refinement or atomic coordinate data resulting 
# from the CCDC's data processing and validation procedures.
#
#######################################################################

data_RUYQIN03
_chemical_formula_moiety         '(C21 H14 La1 N1 O7)n'
_symmetry_cell_setting           rhombohedral
_symmetry_space_group_name_H-M   'R 3 2'
_symmetry_Int_Tables_number      155
_space_group_name_Hall           'R 3 2"'
loop_
_symmetry_equiv_pos_site_id
_symmetry_equiv_pos_as_xyz
1 x,y,z
2 -y,x-y,z
3 -x+y,-x,z
4 y,x,-z
5 x-y,-y,-z
6 -x,-x+y,-z
7 2/3+x,1/3+y,1/3+z
8 2/3-y,1/3+x-y,1/3+z
9 2/3-x+y,1/3-x,1/3+z
10 2/3+y,1/3+x,1/3-z
11 2/3+x-y,1/3-y,1/3-z
12 2/3-x,1/3-x+y,1/3-z
13 1/3+x,2/3+y,2/3+z
14 1/3-y,2/3+x-y,2/3+z
15 1/3-x+y,2/3-x,2/3+z
16 1/3+y,2/3+x,2/3-z
17 1/3+x-y,2/3-y,2/3-z
18 1/3-x,2/3-x+y,2/3-z
_cell_length_a                   24.2372(12)
_cell_length_b                   24.2372(12)
_cell_length_c                   13.2135(11)
_cell_angle_alpha                90
_cell_angle_beta                 90
_cell_angle_gamma                120
_cell_volume                     6722.23
loop_
_atom_site_label
_atom_site_type_symbol
_atom_site_fract_x
_atom_site_fract_y
_atom_site_fract_z
La1 La 0.65071(2) -0.01596(2) 0.1667
O1 O 0.7653(2) 0.0376(3) 0.1081(4)
O2 O 0.7166(4) 0.0698(2) -0.0012(3)
O3 O 0.9940(3) 0.5690(4) 0.0838(4)
O4 O 0.5397(5) -0.1270(5) 0.1667
N1 N 1.0000 0.3108(4) 0.0000
C1 C 0.9407(2) 0.2527(2) 0.0129(4)
C2 C 0.8846(3) 0.2468(2) -0.0256(3)
H1 H 0.8852 0.2812 -0.0581
C3 C 0.8277(2) 0.1896(3) -0.0157(4)
H2 H 0.7902 0.1856 -0.0415
C4 C 0.8268(2) 0.1383(2) 0.0329(4)
C5 C 0.8829(3) 0.1442(2) 0.0714(3)
H3 H 0.8823 0.1099 0.1039
C6 C 0.9398(2) 0.2014(3) 0.0615(3)
H4 H 0.9773 0.2054 0.0873
C7 C 0.7670(4) 0.0771(4) 0.0461(6)
C8 C 1.0000 0.3715(5) 0.0000
C9 C 0.9721(4) 0.3856(6) 0.0773(6)
H5 H 0.9529 0.3569 0.1301
C10 C 0.9725(4) 0.4417(6) 0.0770(6)
H6 H 0.9536 0.4514 0.1302
C11 C 1.0000 0.4841(4) 0.0000
C12 C 1.0000 0.5484(5) 0.0000
O1E O 1.2347(2) 0.2723(4) -0.1081(4)
C1E C 1.0593(2) 0.3120(3) -0.0129(4)
C2E C 1.1154(3) 0.3622(4) 0.0256(3)
H1E H 1.1148 0.3960 0.0581
C3E C 1.1723(2) 0.3619(4) 0.0157(4)
H2E H 1.2098 0.3954 0.0415
C4E C 1.1732(2) 0.3115(3) -0.0329(4)
C5E C 1.1171(3) 0.2613(4) -0.0714(3)
H3E H 1.1177 0.2276 -0.1039
C6E C 1.0602(2) 0.2616(4) -0.0615(3)
H4E H 1.0227 0.2281 -0.0873
C7E C 1.2330(4) 0.3101(6) -0.0461(6)
O3E O 1.0060(3) 0.5750(5) -0.0838(4)
C9E C 1.0279(4) 0.4135(7) -0.0773(6)
H5E H 1.0471 0.4040 -0.1301
C10E C 1.0275(4) 0.4692(7) -0.0770(6)
H6E H 1.0464 0.4978 -0.1302
O2E O 1.2834(4) 0.3532(4) 0.0012(3)
La1A La 1.01596(2) 0.66667(3) 0.1667
La1B La 1.33333(3) 0.34929(2) 0.1667
La1C La 0.98404(2) 0.65071(2) -0.1667
La1D La 0.66667(3) 0.01596(2) -0.1667
La1E La 1.34929(2) 0.33333(3) -0.1667
O1I O 0.7043(3) 0.0986(2) 0.2252(4)
O2D O 0.6468(4) -0.0698(2) 0.0012(3)
O2G O 0.5969(2) -0.0199(4) 0.3321(3)
O2I O 0.7365(2) 0.0499(4) 0.3345(3)
O3B O 0.5750(5) 0.0060(3) 0.0838(4)
O3K O 0.6727(3) -0.0917(5) 0.2495(4)
loop_
_geom_bond_atom_site_label_1
_geom_bond_atom_site_label_2
_geom_bond_site_symmetry_1
_geom_bond_site_symmetry_2
La1 O1 1_555 1_555
O1 C7 1_555 1_555
O2 La1 1_555 1_555
O3 C12 1_555 1_555
O4 La1 1_555 1_555
N1 C1 1_555 1_555
C1 C2 1_555 1_555
C2 H1 1_555 1_555
C3 C2 1_555 1_555
H2 C3 1_555 1_555
C4 C3 1_555 1_555
C5 C4 1_555 1_555
H3 C5 1_555 1_555
C6 C1 1_555 1_555
H4 C6 1_555 1_555
C7 O2 1_555 1_555
C8 N1 1_555 1_555
C9 C8 1_555 1_555
H5 C9 1_555 1_555
C10 C9 1_555 1_555
H6 C10 1_555 1_555
C11 C10 1_555 1_555
C12 C11 1_555 1_555
O1E C7E 1_555 1_555
C1E N1 1_555 1_555
C2E C1E 1_555 1_555
H1E C2E 1_555 1_555
C3E C2E 1_555 1_555
H2E C3E 1_555 1_555
C4E C3E 1_555 1_555
C5E C4E 1_555 1_555
H3E C5E 1_555 1_555
C6E C1E 1_555 1_555
H4E C6E 1_555 1_555
C7E C4E 1_555 1_555
O3E C12 1_555 1_555
C9E C8 1_555 1_555
H5E C9E 1_555 1_555
C10E C11 1_555 1_555
H6E C10E 1_555 1_555
O2E C7E 1_555 1_555
La1A O3 1_555 1_555
La1B O2E 1_555 1_555
La1C O3E 1_555 1_555
La1D O2 1_555 1_555
La1E O1E 1_555 1_555
O1I La1 1_555 1_555
O2D La1 1_555 1_555
O2G La1 1_555 1_555
O2I La1 1_555 1_555
O3B La1 1_555 1_555
O3K La1 1_555 1_555
C4 C7 1_555 1_555
C5 C6 1_555 1_555
C5E C6E 1_555 1_555
C9E C10E 1_555 1_555
O2E La1E 1_555 1_555
La1D O2D 1_555 1_555

#END
