
#######################################################################
#
#                 Cambridge Crystallographic Data Centre
#                                CCDC 
#
#######################################################################
#
# If this CIF has been generated from an entry in the Cambridge 
# Structural Database, then it will include bibliographic, chemical, 
# crystal, experimental, refinement or atomic coordinate data resulting 
# from the CCDC's data processing and validation procedures.
#
#######################################################################

data_RUYTUC
_chemical_formula_moiety         '(C21 H14 La1 N1 O7)n'
_symmetry_cell_setting           rhombohedral
_symmetry_space_group_name_H-M   'R 3 2'
_symmetry_Int_Tables_number      155
_space_group_name_Hall           'R 3 2"'
loop_
_symmetry_equiv_pos_site_id
_symmetry_equiv_pos_as_xyz
1 x,y,z
2 -y,x-y,z
3 -x+y,-x,z
4 y,x,-z
5 x-y,-y,-z
6 -x,-x+y,-z
7 2/3+x,1/3+y,1/3+z
8 2/3-y,1/3+x-y,1/3+z
9 2/3-x+y,1/3-x,1/3+z
10 2/3+y,1/3+x,1/3-z
11 2/3+x-y,1/3-y,1/3-z
12 2/3-x,1/3-x+y,1/3-z
13 1/3+x,2/3+y,2/3+z
14 1/3-y,2/3+x-y,2/3+z
15 1/3-x+y,2/3-x,2/3+z
16 1/3+y,2/3+x,2/3-z
17 1/3+x-y,2/3-y,2/3-z
18 1/3-x,2/3-x+y,2/3-z
_cell_length_a                   24.1719(12)
_cell_length_b                   24.1719(12)
_cell_length_c                   13.0110(12)
_cell_angle_alpha                90
_cell_angle_beta                 90
_cell_angle_gamma                120
_cell_volume                     6583.59
loop_
_atom_site_label
_atom_site_type_symbol
_atom_site_fract_x
_atom_site_fract_y
_atom_site_fract_z
La1 La 0.6667 0.01807(3) 0.3333
O1 O 0.5691(4) -0.0619(3) 0.0578(4)
O2 O 0.6178(3) 0.0196(3) 0.1636(4)
O3 O 0.3219(3) 0.2320(3) 0.2490(5)
O4 O 0.6667 0.1231(4) 0.3333
N1 N 0.3333 -0.0245(4) 0.1667
C1 C 0.3916(2) -0.0232(2) 0.1538(4)
C2 C 0.4479(3) 0.0276(2) 0.1917(4)
H1 H 0.4473 0.0615 0.2243
C3 C 0.5051(2) 0.0277(2) 0.1808(4)
H2 H 0.5428 0.0617 0.2062
C4 C 0.50610(18) -0.0230(2) 0.1321(4)
C5 C 0.4498(2) -0.0738(2) 0.0942(4)
H3 H 0.4504 -0.1077 0.0616
C6 C 0.39253(19) -0.0739(2) 0.1051(4)
H4 H 0.3549 -0.1079 0.0797
C7 C 0.5669(4) -0.0253(5) 0.1200(6)
C8 C 0.3333 0.0342(5) 0.1667
C9 C 0.3660(4) 0.0813(4) 0.0907(6)
H5 H 0.3890 0.0742 0.0403
C10 C 0.3645(4) 0.1375(4) 0.0895(6)
H6 H 0.3846 0.1665 0.0365
C11 C 0.3333 0.1514(5) 0.1667
C12 C 0.3333 0.2130(5) 0.1667
O2K O 0.0489(3) -0.2649(4) 0.1697(4)
C1K C 0.2751(2) -0.0815(3) 0.1795(4)
C2K C 0.2188(3) -0.0870(4) 0.1416(4)
H1K H 0.2194 -0.0525 0.1090
C3K C 0.1616(2) -0.1441(3) 0.1525(4)
H2K H 0.1239 -0.1478 0.1271
C4K C 0.16057(18) -0.19577(27) 0.2012(4)
C5K C 0.2169(2) -0.1903(3) 0.2391(4)
H3K H 0.2163 -0.2248 0.2717
C6K C 0.27414(19) -0.13310(28) 0.2282(4)
H4K H 0.3118 -0.1295 0.2536
C7K C 0.0998(4) -0.2589(6) 0.2133(6)
C9K C 0.3007(4) 0.0486(6) 0.2426(6)
H5K H 0.2777 0.0185 0.2930
O3K O 0.3448(3) 0.2434(4) 0.0843(5)
C10K C 0.3022(4) 0.1063(6) 0.2438(6)
H6K H 0.2821 0.1152 0.2968
O1K O 0.0976(4) -0.2977(5) 0.2755(4)
La1A La -0.01807(3) -0.35137(3) 0.3333
La1B La 0.35137(3) 0.3333 0.3333
La1I La 0.68474(3) 0.0000 0.0000
La1J La 0.31530(3) 0.31526(3) 0.0000
La1K La -0.0000 -0.31530(3) 0.0000
O1G O 0.7286(3) -0.0357(5) 0.3911(4)
O1I O 0.6048(3) -0.0976(4) 0.2755(4)
O2G O 0.6471(3) -0.0685(4) 0.4969(4)
O2I O 0.6863(3) -0.0489(3) 0.1697(4)
O2Q O 0.7155(3) 0.0685(4) 0.5031(4)
O3A O 0.7680(3) 0.0899(4) 0.2490(5)
O3O O 0.5653(3) -0.0114(3) 0.4177(5)
loop_
_geom_bond_atom_site_label_1
_geom_bond_atom_site_label_2
_geom_bond_site_symmetry_1
_geom_bond_site_symmetry_2
La1 O2 1_555 1_555
O1 C7 1_555 1_555
O2 C7 1_555 1_555
O3 C12 1_555 1_555
O4 La1 1_555 1_555
N1 C1 1_555 1_555
C1 C2 1_555 1_555
C2 H1 1_555 1_555
C3 C2 1_555 1_555
H2 C3 1_555 1_555
C4 C3 1_555 1_555
C5 C4 1_555 1_555
H3 C5 1_555 1_555
C6 C1 1_555 1_555
H4 C6 1_555 1_555
C7 C4 1_555 1_555
C8 N1 1_555 1_555
C9 C8 1_555 1_555
H5 C9 1_555 1_555
C10 C9 1_555 1_555
H6 C10 1_555 1_555
C11 C10 1_555 1_555
C12 C11 1_555 1_555
O2K C7K 1_555 1_555
C1K N1 1_555 1_555
C2K C1K 1_555 1_555
H1K C2K 1_555 1_555
C3K C2K 1_555 1_555
H2K C3K 1_555 1_555
C4K C3K 1_555 1_555
C5K C4K 1_555 1_555
H3K C5K 1_555 1_555
C6K C1K 1_555 1_555
H4K C6K 1_555 1_555
C7K C4K 1_555 1_555
C9K C8 1_555 1_555
H5K C9K 1_555 1_555
O3K C12 1_555 1_555
C10K C11 1_555 1_555
H6K C10K 1_555 1_555
O1K C7K 1_555 1_555
La1A O2K 1_555 1_555
La1B O3 1_555 1_555
La1I O1 1_555 1_555
La1J O3K 1_555 1_555
La1K O2K 1_555 1_555
O1G La1 1_555 1_555
O1I La1 1_555 1_555
O2G La1 1_555 1_555
O2I La1 1_555 1_555
O2Q La1 1_555 1_555
O3A La1 1_555 1_555
O3O La1 1_555 1_555
O2 La1I 1_555 1_555
C5 C6 1_555 1_555
C5K C6K 1_555 1_555
C9K C10K 1_555 1_555
O1K La1A 1_555 1_555
La1I O2I 1_555 1_555

#END
