
#######################################################################
#
#                 Cambridge Crystallographic Data Centre
#                                CCDC 
#
#######################################################################
#
# If this CIF has been generated from an entry in the Cambridge 
# Structural Database, then it will include bibliographic, chemical, 
# crystal, experimental, refinement or atomic coordinate data resulting 
# from the CCDC's data processing and validation procedures.
#
#######################################################################

data_RUYTOW
_chemical_formula_moiety         '(C21 H12 La1 N1 O6)n'
_symmetry_cell_setting           rhombohedral
_symmetry_space_group_name_H-M   'R 3 2'
_symmetry_Int_Tables_number      155
_space_group_name_Hall           'R 3 2"'
loop_
_symmetry_equiv_pos_site_id
_symmetry_equiv_pos_as_xyz
1 x,y,z
2 -y,x-y,z
3 -x+y,-x,z
4 y,x,-z
5 x-y,-y,-z
6 -x,-x+y,-z
7 2/3+x,1/3+y,1/3+z
8 2/3-y,1/3+x-y,1/3+z
9 2/3-x+y,1/3-x,1/3+z
10 2/3+y,1/3+x,1/3-z
11 2/3+x-y,1/3-y,1/3-z
12 2/3-x,1/3-x+y,1/3-z
13 1/3+x,2/3+y,2/3+z
14 1/3-y,2/3+x-y,2/3+z
15 1/3-x+y,2/3-x,2/3+z
16 1/3+y,2/3+x,2/3-z
17 1/3+x-y,2/3-y,2/3-z
18 1/3-x,2/3-x+y,2/3-z
_cell_length_a                   24.250(9)
_cell_length_b                   24.250(9)
_cell_length_c                   13.093(12)
_cell_angle_alpha                90
_cell_angle_beta                 90
_cell_angle_gamma                120
_cell_volume                     6667.96
loop_
_atom_site_label
_atom_site_type_symbol
_atom_site_fract_x
_atom_site_fract_y
_atom_site_fract_z
_atom_site_U_iso_or_equiv
_atom_site_thermal_displace_type
La1 La 0.65560(4) -0.01107(4) 0.1667 0.0820 Uani
O1 O 0.7224(6) -0.0424(5) -0.1057(8) 0.1079 Uani
O2 O 0.6468(5) -0.0716(5) 0.0079(9) 0.1290 Uani
O3 O 0.4253(8) -0.5753(5) 0.0852(9) 0.1156 Uani
N1 N 0.6849(7) -0.3151(7) 0.0000 0.0794 Uani
C1 C 0.6851(6) -0.2557(4) -0.0096(8) 0.0768 Uani
C2 C 0.6339(4) -0.2510(5) 0.0273(7) 0.0936 Uani
H1 H 0.6000 -0.2858 0.0589 0.1130 Uiso
C3 C 0.6332(5) -0.1943(7) 0.0168(8) 0.1048 Uani
H2 H 0.5989 -0.1911 0.0414 0.1260 Uiso
C4 C 0.6838(6) -0.1423(5) -0.0305(8) 0.0780 Uani
C5 C 0.7351(5) -0.1470(5) -0.0674(6) 0.0820 Uani
H3 H 0.7689 -0.1122 -0.0990 0.0980 Uiso
C6 C 0.7357(4) -0.2037(6) -0.0569(7) 0.0942 Uani
H4 H 0.7700 -0.2068 -0.0815 0.1130 Uiso
C7 C 0.6860(9) -0.0778(9) -0.0404(16) 0.1053 Uani
C8 C 0.6239(7) -0.3761(7) 0.0000 0.0762 Uani
C9 C 0.5798(8) -0.3901(6) -0.0779(8) 0.1029 Uani
H5 H 0.5886 -0.3609 -0.1302 0.1240 Uiso
C10 C 0.5244(9) -0.4461(6) -0.0776(8) 0.1029 Uani
H6 H 0.4952 -0.4555 -0.1302 0.1240 Uiso
C11 C 0.5108(7) -0.4892(7) 0.0000 0.0719 Uani
C12 C 0.4473(12) -0.5527(12) 0.0000 0.1078 Uani
O2C O 0.9284(5) -0.3532(5) -0.0079(9) 0.1290 Uani
C1C C 0.7443(4) -0.3149(6) 0.0096(8) 0.0768 Uani
C2C C 0.7490(5) -0.3661(4) -0.0273(7) 0.0936 Uani
H1C H 0.7142 -0.4000 -0.0589 0.1130 Uiso
C3C C 0.8057(7) -0.3668(5) -0.0168(8) 0.1048 Uani
H2C H 0.8089 -0.4011 -0.0414 0.1260 Uiso
C4C C 0.8577(5) -0.3162(6) 0.0305(8) 0.0780 Uani
C5C C 0.8530(5) -0.2649(5) 0.0674(6) 0.0820 Uani
H3C H 0.8878 -0.2311 0.0990 0.0980 Uiso
C6C C 0.7963(6) -0.2643(4) 0.0569(7) 0.0942 Uani
H4C H 0.7932 -0.2300 0.0815 0.1130 Uiso
C7C C 0.9222(9) -0.3140(9) 0.0404(16) 0.1053 Uani
O3C O 0.4247(5) -0.5747(8) -0.0852(9) 0.1156 Uani
C9C C 0.6099(6) -0.4202(8) 0.0779(8) 0.1029 Uani
H5C H 0.6391 -0.4114 0.1302 0.1240 Uiso
C10C C 0.5539(6) -0.4756(9) 0.0776(8) 0.1029 Uani
H6C H 0.5445 -0.5048 0.1302 0.1240 Uiso
O1C O 0.9576(5) -0.2776(6) 0.1057(8) 0.1079 Uani
La1A La 1.01107(4) -0.33333(6) 0.1667 0.0820 Uani
La1B La 0.33333(6) -0.65560(4) 0.1667 0.0820 Uani
La1C La 0.98893(4) -0.34440(4) -0.1667 0.0820 Uani
La1D La 0.66667(6) 0.01107(4) -0.1667 0.0820 Uani
La1E La 0.34440(4) -0.66667(6) -0.1667 0.0820 Uani
O1D O 0.7648(8) 0.0424(5) 0.1057(8) 0.1079 Uani
O1G O 0.7091(5) 0.0981(8) 0.2276(8) 0.1079 Uani
O2D O 0.7184(7) 0.0716(5) -0.0079(9) 0.1290 Uani
O2G O 0.7383(5) 0.0517(7) 0.3412(9) 0.1290 Uani
O2I O 0.5951(5) -0.0199(5) 0.3254(9) 0.1290 Uani
O3A O 0.5753(5) 0.0006(9) 0.0852(9) 0.1156 Uani
O3J O 0.6673(9) -0.0914(5) 0.2481(9) 0.1156 Uani
loop_
_atom_site_aniso_label
_atom_site_aniso_U_11
_atom_site_aniso_U_22
_atom_site_aniso_U_33
_atom_site_aniso_U_23
_atom_site_aniso_U_13
_atom_site_aniso_U_12
La1 0.0772(7) 0.0772(7) 0.0940(8) 0.0003(4) -0.0003(4) 0.0405(9)
O1 0.153 0.063 0.113 0.009 0.012 0.058
O2 0.083(9) 0.115(8) 0.171(12) -0.011(7) 0.029(8) 0.036(8)
O3 0.079 0.09 0.132 0.012 0.006 0.008
N1 0.086(9) 0.086(9) 0.073(12) 0.009(5) -0.009(5) 0.048(12)
C1 0.090(12) 0.065(12) 0.085(12) -0.025(10) -0.036(9) 0.046(11)
C2 0.090(12) 0.105(13) 0.118(14) -0.004(9) 0.022(9) 0.073(11)
C3 0.111(15) 0.099(13) 0.141(15) -0.037(12) -0.018(12) 0.080(13)
C4 0.064(11) 0.078(13) 0.086(13) -0.022(9) -0.029(9) 0.031(10)
C5 0.119(13) 0.077(12) 0.066(11) -0.001(8) -0.003(9) 0.061(10)
C6 0.069(11) 0.049(10) 0.140(15) 0.005(9) 0.020(9) 0.011(10)
C7 0.097(16) 0.119(15) 0.140(19) 0.043(13) 0.034(12) 0.084(13)
C8 0.061 0.061 0.11 -0.001 1.16453e-19 0.033
C9 0.053 0.105 0.102 0.015 -0.036 0.003
C10 0.053 0.105 0.102 0.015 -0.036 0.003
C11 0.085 0.084 0.049 0.006 -0.006 0.044
C12 0.088 0.089 0.15 0.019 -0.021 0.047
O2C 0.115 0.083 0.171 -0.029 0.011 0.036
C1C 0.065 0.09 0.085 0.036 0.025 0.046
C2C 0.105 0.09 0.118 -0.022 0.004 0.073
C3C 0.099 0.111 0.141 0.018 0.037 0.08
C4C 0.078 0.064 0.086 0.029 0.022 0.031
C5C 0.077 0.119 0.066 0.003 0.001 0.061
C6C 0.049 0.069 0.14 -0.02 -0.005 0.011
C7C 0.119 0.097 0.14 -0.034 -0.043 0.084
O3C 0.09 0.079 0.132 -0.006 -0.012 0.008
C9C 0.105 0.053 0.102 0.036 -0.015 0.003
C10C 0.105 0.053 0.102 0.036 -0.015 0.003
O1C 0.063 0.153 0.113 -0.012 -0.009 0.058
La1A 0.0772 0.0734 0.094 -0.0006 -0.0003 0.0367
La1B 0.0734 0.0772 0.094 0.0003 0.0006 0.0367
La1C 0.0772 0.0772 0.094 0.0003 -0.0003 0.0405
La1D 0.0734 0.0772 0.094 0.0003 0.0006 0.0367
La1E 0.0772 0.0734 0.094 -0.0006 -0.0003 0.0367
O1D 0.1 0.063 0.113 0.009 -0.003 0.005
O1G 0.063 0.1 0.113 0.003 -0.009 0.005
O2D 0.126 0.115 0.171 -0.011 -0.04 0.079
O2G 0.115 0.126 0.171 0.04 0.011 0.079
O2I 0.115 0.083 0.171 -0.029 0.011 0.036
O3A 0.09 0.153 0.132 -0.006 -0.012 0.082
O3J 0.153 0.09 0.132 0.012 0.006 0.082
loop_
_geom_bond_atom_site_label_1
_geom_bond_atom_site_label_2
_geom_bond_site_symmetry_1
_geom_bond_site_symmetry_2
La1 O2 1_555 1_555
O1 C7 1_555 1_555
O2 C7 1_555 1_555
O3 C12 1_555 1_555
N1 C1 1_555 1_555
C1 C2 1_555 1_555
C2 H1 1_555 1_555
C3 C2 1_555 1_555
H2 C3 1_555 1_555
C4 C3 1_555 1_555
C5 C4 1_555 1_555
H3 C5 1_555 1_555
C6 C1 1_555 1_555
H4 C6 1_555 1_555
C7 C4 1_555 1_555
C8 N1 1_555 1_555
C9 C8 1_555 1_555
H5 C9 1_555 1_555
C10 C9 1_555 1_555
H6 C10 1_555 1_555
C11 C10 1_555 1_555
C12 C11 1_555 1_555
O2C C7C 1_555 1_555
C1C N1 1_555 1_555
C2C C1C 1_555 1_555
H1C C2C 1_555 1_555
C3C C2C 1_555 1_555
H2C C3C 1_555 1_555
C4C C3C 1_555 1_555
C5C C4C 1_555 1_555
H3C C5C 1_555 1_555
C6C C1C 1_555 1_555
H4C C6C 1_555 1_555
C7C C4C 1_555 1_555
O3C C12 1_555 1_555
C9C C8 1_555 1_555
H5C C9C 1_555 1_555
C10C C11 1_555 1_555
H6C C10C 1_555 1_555
O1C C7C 1_555 1_555
La1A O2C 1_555 1_555
La1B O3 1_555 1_555
La1C O2C 1_555 1_555
La1D O1 1_555 1_555
La1E O3C 1_555 1_555
O1D La1 1_555 1_555
O1G La1 1_555 1_555
O2D La1 1_555 1_555
O2G La1 1_555 1_555
O2I La1 1_555 1_555
O3A La1 1_555 1_555
O3J La1 1_555 1_555
O2 La1D 1_555 1_555
C5 C6 1_555 1_555
C5C C6C 1_555 1_555
C9C C10C 1_555 1_555
O1C La1A 1_555 1_555
La1D O2D 1_555 1_555

#END
