
#######################################################################
#
#                 Cambridge Crystallographic Data Centre
#                                CCDC 
#
#######################################################################
#
# If this CIF has been generated from an entry in the Cambridge 
# Structural Database, then it will include bibliographic, chemical, 
# crystal, experimental, refinement or atomic coordinate data resulting 
# from the CCDC's data processing and validation procedures.
#
#######################################################################

data_RUYTIQ
_chemical_formula_moiety         '(C21 H14 La1 N1 O7)n'
_symmetry_cell_setting           rhombohedral
_symmetry_space_group_name_H-M   'R 3 2'
_symmetry_Int_Tables_number      155
_space_group_name_Hall           'R 3 2"'
loop_
_symmetry_equiv_pos_site_id
_symmetry_equiv_pos_as_xyz
1 x,y,z
2 -y,x-y,z
3 -x+y,-x,z
4 y,x,-z
5 x-y,-y,-z
6 -x,-x+y,-z
7 2/3+x,1/3+y,1/3+z
8 2/3-y,1/3+x-y,1/3+z
9 2/3-x+y,1/3-x,1/3+z
10 2/3+y,1/3+x,1/3-z
11 2/3+x-y,1/3-y,1/3-z
12 2/3-x,1/3-x+y,1/3-z
13 1/3+x,2/3+y,2/3+z
14 1/3-y,2/3+x-y,2/3+z
15 1/3-x+y,2/3-x,2/3+z
16 1/3+y,2/3+x,2/3-z
17 1/3+x-y,2/3-y,2/3-z
18 1/3-x,2/3-x+y,2/3-z
_cell_length_a                   24.313(2)
_cell_length_b                   24.313(2)
_cell_length_c                   13.184(2)
_cell_angle_alpha                90
_cell_angle_beta                 90
_cell_angle_gamma                120
_cell_volume                     6749.24
loop_
_atom_site_label
_atom_site_type_symbol
_atom_site_fract_x
_atom_site_fract_y
_atom_site_fract_z
La1 La 0.65366(3) -0.01301(3) 0.1667
O1 O 0.7674(3) 0.0383(3) 0.1053(5)
O2 O 0.7192(5) 0.0724(3) -0.0026(5)
O3 O 0.9992(4) 0.5715(6) 0.0850(6)
N1 N 1.0000 0.3136(4) 0.0000
C1 C 0.9424(2) 0.2557(3) 0.0132(5)
C2 C 0.8868(3) 0.2505(3) -0.0257(5)
H1 H 0.8878 0.2852 -0.0573
C3 C 0.8298(3) 0.1935(3) -0.0174(5)
H2 H 0.7927 0.1901 -0.0434
C4 C 0.8284(3) 0.1417(3) 0.0298(5)
C5 C 0.8840(3) 0.1469(3) 0.0687(4)
H3 H 0.8830 0.1122 0.1003
C6 C 0.9409(3) 0.2039(3) 0.0604(5)
H4 H 0.9781 0.2074 0.0863
C7 C 0.7705(5) 0.0791(6) 0.0459(9)
C8 C 1.0000 0.3693(6) 0.0000
C9 C 0.9729(5) 0.3851(7) 0.0755(8)
H5 H 0.9536 0.3567 0.1287
C10 C 0.9728(5) 0.4424(7) 0.0768(8)
H6 H 0.9537 0.4507 0.1311
C11 C 1.0000 0.4878(5) 0.0000
C12 C 1.0000 0.5506(6) 0.0000
O1E O 1.2326(3) 0.2709(4) -0.1053(5)
C1E C 1.0576(2) 0.3133(4) -0.0132(5)
C2E C 1.1132(3) 0.3637(4) 0.0257(5)
H1E H 1.1122 0.3974 0.0573
C3E C 1.1702(3) 0.3637(4) 0.0174(5)
H2E H 1.2073 0.3974 0.0434
C4E C 1.1716(3) 0.3133(4) -0.0298(5)
C5E C 1.1160(3) 0.2629(4) -0.0687(4)
H3E H 1.1170 0.2292 -0.1003
C6E C 1.0591(3) 0.2630(4) -0.0604(5)
H4E H 1.0219 0.2293 -0.0863
C7E C 1.2295(5) 0.3086(8) -0.0459(9)
O3E O 1.0008(4) 0.5723(7) -0.0850(6)
C9E C 1.0271(5) 0.4122(9) -0.0755(8)
H5E H 1.0464 0.4031 -0.1287
C10E C 1.0272(5) 0.4696(9) -0.0768(8)
H6E H 1.0463 0.4970 -0.1311
O2E O 1.2808(5) 0.3532(6) 0.0026(5)
La1A La 1.01301(3) 0.66667(4) 0.1667
La1B La 1.33333(4) 0.34634(3) 0.1667
La1C La 0.98699(3) 0.65366(3) -0.1667
La1D La 0.66667(4) 0.01301(3) -0.1667
La1E La 1.34634(3) 0.33333(4) -0.1667
O1I O 0.7050(3) 0.1007(3) 0.2280(5)
O2D O 0.6468(6) -0.0724(3) 0.0026(5)
O2G O 0.5943(3) -0.0199(6) 0.3307(5)
O2I O 0.7391(3) 0.0525(5) 0.3359(5)
O3B O 0.5723(7) 0.0008(4) 0.0850(6)
O3K O 0.6675(4) -0.0944(7) 0.2483(6)
O4 O 0.5221(16) -0.1446(16) 0.1667
loop_
_geom_bond_atom_site_label_1
_geom_bond_atom_site_label_2
_geom_bond_site_symmetry_1
_geom_bond_site_symmetry_2
La1 O1 1_555 1_555
O1 C7 1_555 1_555
O2 La1 1_555 1_555
O3 C12 1_555 1_555
N1 C1 1_555 1_555
C1 C2 1_555 1_555
C2 H1 1_555 1_555
C3 C2 1_555 1_555
H2 C3 1_555 1_555
C4 C3 1_555 1_555
C5 C4 1_555 1_555
H3 C5 1_555 1_555
C6 C1 1_555 1_555
H4 C6 1_555 1_555
C7 O2 1_555 1_555
C8 N1 1_555 1_555
C9 C8 1_555 1_555
H5 C9 1_555 1_555
C10 C9 1_555 1_555
H6 C10 1_555 1_555
C11 C10 1_555 1_555
C12 C11 1_555 1_555
O1E C7E 1_555 1_555
C1E N1 1_555 1_555
C2E C1E 1_555 1_555
H1E C2E 1_555 1_555
C3E C2E 1_555 1_555
H2E C3E 1_555 1_555
C4E C3E 1_555 1_555
C5E C4E 1_555 1_555
H3E C5E 1_555 1_555
C6E C1E 1_555 1_555
H4E C6E 1_555 1_555
C7E C4E 1_555 1_555
O3E C12 1_555 1_555
C9E C8 1_555 1_555
H5E C9E 1_555 1_555
C10E C11 1_555 1_555
H6E C10E 1_555 1_555
O2E C7E 1_555 1_555
La1A O3 1_555 1_555
La1B O2E 1_555 1_555
La1C O3E 1_555 1_555
La1D O2 1_555 1_555
La1E O1E 1_555 1_555
O1I La1 1_555 1_555
O2D La1 1_555 1_555
O2G La1 1_555 1_555
O2I La1 1_555 1_555
O3B La1 1_555 1_555
O3K La1 1_555 1_555
C4 C7 1_555 1_555
C5 C6 1_555 1_555
C5E C6E 1_555 1_555
C9E C10E 1_555 1_555
O2E La1E 1_555 1_555
La1D O2D 1_555 1_555

#END
