
#######################################################################
#
#                 Cambridge Crystallographic Data Centre
#                                CCDC 
#
#######################################################################
#
# If this CIF has been generated from an entry in the Cambridge 
# Structural Database, then it will include bibliographic, chemical, 
# crystal, experimental, refinement or atomic coordinate data resulting 
# from the CCDC's data processing and validation procedures.
#
#######################################################################

data_RUYVEO
_chemical_formula_moiety         '(C26 H33 La1 N1 O15)n'
_symmetry_cell_setting           rhombohedral
_symmetry_space_group_name_H-M   'R 3 2'
_symmetry_Int_Tables_number      155
_space_group_name_Hall           'R 3 2"'
loop_
_symmetry_equiv_pos_site_id
_symmetry_equiv_pos_as_xyz
1 x,y,z
2 -y,x-y,z
3 -x+y,-x,z
4 y,x,-z
5 x-y,-y,-z
6 -x,-x+y,-z
7 2/3+x,1/3+y,1/3+z
8 2/3-y,1/3+x-y,1/3+z
9 2/3-x+y,1/3-x,1/3+z
10 2/3+y,1/3+x,1/3-z
11 2/3+x-y,1/3-y,1/3-z
12 2/3-x,1/3-x+y,1/3-z
13 1/3+x,2/3+y,2/3+z
14 1/3-y,2/3+x-y,2/3+z
15 1/3-x+y,2/3-x,2/3+z
16 1/3+y,2/3+x,2/3-z
17 1/3+x-y,2/3-y,2/3-z
18 1/3-x,2/3-x+y,2/3-z
_cell_length_a                   28.320(5)
_cell_length_b                   28.320(5)
_cell_length_c                   12.835(3)
_cell_angle_alpha                90
_cell_angle_beta                 90
_cell_angle_gamma                120
_cell_volume                     8914.83
loop_
_atom_site_label
_atom_site_type_symbol
_atom_site_fract_x
_atom_site_fract_y
_atom_site_fract_z
_atom_site_U_iso_or_equiv
_atom_site_thermal_displace_type
La1 La 0.322447 0.000 0.000 0.0279 Uiso
O1 O 0.313523 0.067595 0.242087 0.0496 Uiso
O2 O 0.042933 0.310245 0.197117 0.0496 Uiso
O3 O 0.081963 0.386175 0.105837 0.0496 Uiso
O4 O 0.234108 0.000 0.000 0.0496 Uiso
C1 C 0.333333 0.099565 0.166667 0.0575 Uiso
C2 C 0.333333 0.151475 0.166667 0.0575 Uiso
C3 C 0.295383 0.156685 0.224027 0.0575 Uiso
C4 C 0.295383 0.205055 0.224027 0.0575 Uiso
C5 C 0.333333 0.248225 0.166667 0.0575 Uiso
C6 C 0.333333 0.299775 0.166667 0.0575 Uiso
C7 C 0.284983 0.299775 0.163957 0.0575 Uiso
C8 C 0.284983 0.348165 0.163957 0.0575 Uiso
N1 N 0.333333 0.396525 0.166667 0.0575 Uiso
C9 C 0.233453 0.348175 0.161067 0.0575 Uiso
C10 C 0.188433 0.307675 0.210297 0.0575 Uiso
C11 C 0.140083 0.307685 0.207587 0.0575 Uiso
C12 C 0.136743 0.348195 0.155637 0.0575 Uiso
C13 C 0.181753 0.388685 0.106407 0.0575 Uiso
C14 C 0.230113 0.388675 0.109117 0.0575 Uiso
C15 C 0.084863 0.348205 0.152727 0.0575 Uiso
H1 H 0.267683 0.125175 0.265907 0.0575 Uiso
H2 H 0.267683 0.208865 0.265907 0.0575 Uiso
H3 H 0.249683 0.264485 0.161967 0.0575 Uiso
H4 H 0.333333 0.431835 0.166667 0.0575 Uiso
H5 H 0.190873 0.278115 0.248217 0.0575 Uiso
H6 H 0.107223 0.278135 0.243527 0.0575 Uiso
H7 H 0.179313 0.418245 0.068487 0.0575 Uiso
H8 H 0.262963 0.418235 0.073177 0.0575 Uiso
O1K O 0.353144 0.087405 0.091246 0.0496 Uiso
O2K O 0.623734 0.600645 0.136216 0.0496 Uiso
O3K O 0.584704 0.637545 0.227496 0.0496 Uiso
C3K C 0.371284 0.194635 0.109306 0.0575 Uiso
C4K C 0.371284 0.243005 0.109306 0.0575 Uiso
C7K C 0.381684 0.348125 0.169376 0.0575 Uiso
C8K C 0.381684 0.396515 0.169376 0.0575 Uiso
C9K C 0.433214 0.448055 0.172266 0.0575 Uiso
C10K C 0.478234 0.452575 0.123036 0.0575 Uiso
C11K C 0.526584 0.500935 0.125746 0.0575 Uiso
C12K C 0.529924 0.544785 0.177696 0.0575 Uiso
C13K C 0.484914 0.540265 0.226926 0.0575 Uiso
C14K C 0.436554 0.491895 0.224216 0.0575 Uiso
C15K C 0.581804 0.596675 0.180606 0.0575 Uiso
H1K H 0.398984 0.190825 0.067426 0.0575 Uiso
H2K H 0.398984 0.274515 0.067426 0.0575 Uiso
H3K H 0.416984 0.348135 0.171366 0.0575 Uiso
H5K H 0.475794 0.420575 0.085116 0.0575 Uiso
H6K H 0.559444 0.504245 0.089806 0.0575 Uiso
H7K H 0.487354 0.572265 0.264846 0.0575 Uiso
H8K H 0.403704 0.488605 0.260156 0.0575 Uiso
La1A La -0.000 0.322447 0.000 0.0279 Uiso
La1B La 0.677553 0.677553 0.000 0.0279 Uiso
La1F La -0.010886 0.333333 0.333333 0.0279 Uiso
La1G La 0.666667 0.655780 0.333333 0.0279 Uiso
La1H La 0.344220 0.010886 0.333333 0.0279 Uiso
O1M O 0.265738 -0.087405 -0.091246 0.0496 Uiso
O2B O 0.267312 -0.042933 0.197117 0.0496 Uiso
O2C O 0.310245 0.042933 -0.197117 0.0496 Uiso
O2J O 0.399355 0.023088 0.136216 0.0496 Uiso
O2L O 0.376266 -0.023088 -0.136216 0.0496 Uiso
O3B O 0.304212 -0.081963 0.105837 0.0496 Uiso
O3C O 0.386175 0.081963 -0.105837 0.0496 Uiso
O5 O 0.473331 0.230835 -0.503233 0.0800 Uiso
O6 O 0.175122 0.665346 2.006226 0.0800 Uiso
O7 O -1.018759 0.930341 -0.712812 0.0800 Uiso
O8 O 0.543863 0.72222 0.812826 0.0800 Uiso
O9 O -0.419868 0.380144 0.398995 0.0800 Uiso
O10 O 0.766796 0.274083 1.85842 0.0800 Uiso
O11 O -0.786575 0.036947 -0.331771 0.0800 Uiso
O12 O -0.178673 0.067741 1.017846 0.0800 Uiso
loop_
_geom_bond_atom_site_label_1
_geom_bond_atom_site_label_2
_geom_bond_site_symmetry_1
_geom_bond_site_symmetry_2
La1 O4 1_555 1_555
O1 C1 1_555 1_555
O2 C15 1_555 1_555
O3 C15 1_555 1_555
C1 C2 1_555 1_555
C2 C3 1_555 1_555
C3 C4 1_555 1_555
C4 C5 1_555 1_555
C5 C6 1_555 1_555
C6 C7 1_555 1_555
C7 C8 1_555 1_555
C8 N1 1_555 1_555
N1 H4 1_555 1_555
C9 C8 1_555 1_555
C10 C9 1_555 1_555
C11 C10 1_555 1_555
C12 C11 1_555 1_555
C13 C12 1_555 1_555
C14 C9 1_555 1_555
C15 C12 1_555 1_555
H1 C3 1_555 1_555
H2 C4 1_555 1_555
H3 C7 1_555 1_555
H5 C10 1_555 1_555
H6 C11 1_555 1_555
H7 C13 1_555 1_555
H8 C14 1_555 1_555
O1K La1 1_555 1_555
O2K C15K 1_555 1_555
O3K C15K 1_555 1_555
C3K C2 1_555 1_555
C4K C5 1_555 1_555
C7K C6 1_555 1_555
C8K N1 1_555 1_555
C9K C8K 1_555 1_555
C10K C9K 1_555 1_555
C11K C10K 1_555 1_555
C12K C11K 1_555 1_555
C13K C12K 1_555 1_555
C14K C9K 1_555 1_555
C15K C12K 1_555 1_555
H1K C3K 1_555 1_555
H2K C4K 1_555 1_555
H3K C7K 1_555 1_555
H5K C10K 1_555 1_555
H6K C11K 1_555 1_555
H7K C13K 1_555 1_555
H8K C14K 1_555 1_555
La1A O2 1_555 1_555
La1B O2K 1_555 1_555
La1F O2 1_555 1_555
La1G O2K 1_555 1_555
La1H O1 1_555 1_555
O1M La1 1_555 1_555
O2B La1 1_555 1_555
O2C La1 1_555 1_555
O2J La1 1_555 1_555
O2L La1 1_555 1_555
O3B La1 1_555 1_555
O3C La1 1_555 1_555
O3 La1A 1_555 1_555
C1 O1K 1_555 1_555
C13 C14 1_555 1_555
O3K La1G 1_555 1_555
C3K C4K 1_555 1_555
C7K C8K 1_555 1_555
C13K C14K 1_555 1_555
La1H O2B 1_555 1_555
La1H O2J 1_555 1_555

#END
