
#######################################################################
#
#                 Cambridge Crystallographic Data Centre
#                                CCDC 
#
#######################################################################
#
# If this CIF has been generated from an entry in the Cambridge 
# Structural Database, then it will include bibliographic, chemical, 
# crystal, experimental, refinement or atomic coordinate data resulting 
# from the CCDC's data processing and validation procedures.
#
#######################################################################

data_RUYVAK
_chemical_formula_moiety         '(C21 H14 Ce1 N1 O7)n'
_symmetry_cell_setting           rhombohedral
_symmetry_space_group_name_H-M   'R 3 2'
_symmetry_Int_Tables_number      155
_space_group_name_Hall           'R 3 2"'
loop_
_symmetry_equiv_pos_site_id
_symmetry_equiv_pos_as_xyz
1 x,y,z
2 -y,x-y,z
3 -x+y,-x,z
4 y,x,-z
5 x-y,-y,-z
6 -x,-x+y,-z
7 2/3+x,1/3+y,1/3+z
8 2/3-y,1/3+x-y,1/3+z
9 2/3-x+y,1/3-x,1/3+z
10 2/3+y,1/3+x,1/3-z
11 2/3+x-y,1/3-y,1/3-z
12 2/3-x,1/3-x+y,1/3-z
13 1/3+x,2/3+y,2/3+z
14 1/3-y,2/3+x-y,2/3+z
15 1/3-x+y,2/3-x,2/3+z
16 1/3+y,2/3+x,2/3-z
17 1/3+x-y,2/3-y,2/3-z
18 1/3-x,2/3-x+y,2/3-z
_cell_length_a                   24.1880(9)
_cell_length_b                   24.1880(9)
_cell_length_c                   13.1489(11)
_cell_angle_alpha                90
_cell_angle_beta                 90
_cell_angle_gamma                120
_cell_volume                     6662.24
loop_
_atom_site_label
_atom_site_type_symbol
_atom_site_fract_x
_atom_site_fract_y
_atom_site_fract_z
Ce1 Ce 0.68414(2) 0.0000 0.0000
O1 O 0.5690(2) -0.0616(3) 0.0592(4)
O2 O 0.6175(3) 0.0203(3) 0.1672(4)
O3 O 0.3421(4) 0.2432(3) 0.0827(5)
O4 O 0.7859(4) 0.0000 0.0000
N1 N 0.3333 -0.0231(4) 0.1667
C1 C 0.3918(4) -0.0217(4) 0.1541(5)
C2 C 0.5042(4) 0.0280(3) 0.1804(6)
H1 H 0.5416 0.0621 0.2057
C3 C 0.4480(4) 0.0292(4) 0.1926(7)
H2 H 0.4477 0.0630 0.2255
C4 C 0.5080(4) -0.0193(4) 0.1345(6)
C5 C 0.4518(4) -0.0699(4) 0.0941(6)
H3 H 0.4533 -0.1027 0.0595
C6 C 0.3923(4) -0.0717(4) 0.1056(7)
H4 H 0.3548 -0.1059 0.0808
C7 C 0.5669(4) -0.0218(4) 0.1191(7)
C8 C 0.3333(6) 0.0374(4) 0.1667
C9 C 0.3601(6) 0.0806(4) 0.0840(7)
H5 H 0.3798 0.0717 0.0308
C10 C 0.3568(6) 0.1352(4) 0.0833(7)
H6 H 0.3704 0.1613 0.0262
C11 C 0.3333(6) 0.1525(4) 0.1667
C12 C 0.3333(7) 0.2148(5) 0.1667
O1K O 0.0977(2) -0.2973(4) 0.2741(4)
C1K C 0.2749(4) -0.0802(6) 0.1792(5)
C2K C 0.1625(4) -0.1429(5) 0.1529(6)
H1K H 0.1251 -0.1462 0.1276
C3K C 0.2187(4) -0.0855(6) 0.1407(7)
H2K H 0.2190 -0.0514 0.1078
C4K C 0.1587(4) -0.1940(6) 0.1988(6)
C5K C 0.2149(4) -0.1884(6) 0.2392(6)
H3K H 0.2134 -0.2227 0.2738
C6K C 0.2744(4) -0.1307(6) 0.2277(7)
H4K H 0.3119 -0.1274 0.2525
C7K C 0.0998(4) -0.2554(6) 0.2142(7)
O3K O 0.3246(4) 0.2344(5) 0.2506(5)
C9K C 0.3066(6) 0.0538(7) 0.2493(7)
H5K H 0.2869 0.0252 0.3025
C10K C 0.3099(6) 0.1117(7) 0.2500(7)
H6K H 0.2963 0.1242 0.3071
O2K O 0.0492(3) -0.2639(4) 0.1661(4)
Ce1A Ce 0.0000 -0.31586(2) 0.0000
Ce1B Ce 0.31586(2) 0.31586(2) 0.0000
Ce1F Ce 0.35081(2) 0.3333 0.3333
Ce1G Ce 0.6667 0.01747(2) 0.3333
Ce1H Ce -0.01747(2) -0.35081(2) 0.3333
O1D O 0.6306(4) 0.0616(3) -0.0592(4)
O2D O 0.5972(4) -0.0203(3) -0.1672(4)
O2I O 0.6870(3) -0.0492(3) 0.1661(4)
O2N O 0.7361(4) 0.0492(3) -0.1661(4)
O3A O 0.7568(3) 0.0989(5) 0.0827(5)
O3E O 0.6579(4) -0.0989(5) -0.0827(5)
loop_
_geom_bond_atom_site_label_1
_geom_bond_atom_site_label_2
_geom_bond_site_symmetry_1
_geom_bond_site_symmetry_2
Ce1 O1 1_555 1_555
O1 C7 1_555 1_555
O2 Ce1 1_555 1_555
O3 C12 1_555 1_555
O4 Ce1 1_555 1_555
N1 C1 1_555 1_555
C1 C3 1_555 1_555
C2 H1 1_555 1_555
C3 C2 1_555 1_555
H2 C3 1_555 1_555
C4 C2 1_555 1_555
C5 C4 1_555 1_555
H3 C5 1_555 1_555
C6 C1 1_555 1_555
H4 C6 1_555 1_555
C7 O2 1_555 1_555
C8 N1 1_555 1_555
C9 C8 1_555 1_555
H5 C9 1_555 1_555
C10 C9 1_555 1_555
H6 C10 1_555 1_555
C11 C10 1_555 1_555
C12 C11 1_555 1_555
O1K C7K 1_555 1_555
C1K N1 1_555 1_555
C2K H1K 1_555 1_555
C3K C1K 1_555 1_555
H2K C3K 1_555 1_555
C4K C2K 1_555 1_555
C5K C4K 1_555 1_555
H3K C5K 1_555 1_555
C6K C1K 1_555 1_555
H4K C6K 1_555 1_555
C7K C4K 1_555 1_555
O3K C12 1_555 1_555
C9K C8 1_555 1_555
H5K C9K 1_555 1_555
C10K C11 1_555 1_555
H6K C10K 1_555 1_555
O2K C7K 1_555 1_555
Ce1A O2K 1_555 1_555
Ce1B O3 1_555 1_555
Ce1F O3K 1_555 1_555
Ce1G O2 1_555 1_555
Ce1H O1K 1_555 1_555
O1D Ce1 1_555 1_555
O2D Ce1 1_555 1_555
O2I Ce1 1_555 1_555
O2N Ce1 1_555 1_555
O3A Ce1 1_555 1_555
O3E Ce1 1_555 1_555
C4 C7 1_555 1_555
C5 C6 1_555 1_555
C2K C3K 1_555 1_555
C5K C6K 1_555 1_555
C9K C10K 1_555 1_555
O2K Ce1H 1_555 1_555
Ce1G O2I 1_555 1_555

#END
