
#######################################################################
#
#                 Cambridge Crystallographic Data Centre
#                                CCDC 
#
#######################################################################
#
# If this CIF has been generated from an entry in the Cambridge 
# Structural Database, then it will include bibliographic, chemical, 
# crystal, experimental, refinement or atomic coordinate data resulting 
# from the CCDC's data processing and validation procedures.
#
#######################################################################

data_RUYVIS
_chemical_formula_moiety         '(C33 H33 Eu1 O15)n'
_symmetry_cell_setting           rhombohedral
_symmetry_space_group_name_H-M   'R 3 2'
_symmetry_Int_Tables_number      155
_space_group_name_Hall           'R 3 2"'
loop_
_symmetry_equiv_pos_site_id
_symmetry_equiv_pos_as_xyz
1 x,y,z
2 -y,x-y,z
3 -x+y,-x,z
4 y,x,-z
5 x-y,-y,-z
6 -x,-x+y,-z
7 2/3+x,1/3+y,1/3+z
8 2/3-y,1/3+x-y,1/3+z
9 2/3-x+y,1/3-x,1/3+z
10 2/3+y,1/3+x,1/3-z
11 2/3+x-y,1/3-y,1/3-z
12 2/3-x,1/3-x+y,1/3-z
13 1/3+x,2/3+y,2/3+z
14 1/3-y,2/3+x-y,2/3+z
15 1/3-x+y,2/3-x,2/3+z
16 1/3+y,2/3+x,2/3-z
17 1/3+x-y,2/3-y,2/3-z
18 1/3-x,2/3-x+y,2/3-z
_cell_length_a                   35.2420(19)
_cell_length_b                   35.2420(19)
_cell_length_c                   13.493(5)
_cell_angle_alpha                90
_cell_angle_beta                 90
_cell_angle_gamma                120
_cell_volume                     14513.1
loop_
_atom_site_label
_atom_site_type_symbol
_atom_site_fract_x
_atom_site_fract_y
_atom_site_fract_z
_atom_site_U_iso_or_equiv
_atom_site_thermal_displace_type
Eu1 Eu 0.32428 0.000 0.000 0.0076 Uiso
O1 O 0.250479 0.000 0.000 0.0351 Uiso
O2 O 0.313019 0.053908 0.100002 0.0351 Uiso
O3 O 0.043376 0.32977 0.16509 0.0351 Uiso
O4 O 0.066735 0.384438 0.27937 0.0351 Uiso
C1 C 0.333333 0.08134 0.166667 0.0631 Uiso
C2 C 0.333333 0.12306 0.166667 0.0631 Uiso
C3 C 0.35355 0.15054 0.24313 0.0631 Uiso
C4 C 0.35355 0.18942 0.24313 0.0631 Uiso
C5 C 0.333333 0.20029 0.166667 0.0631 Uiso
C6 C 0.333333 0.24067 0.166667 0.0631 Uiso
C7 C 0.333333 0.27359 0.166667 0.0631 Uiso
C8 C 0.333333 0.31396 0.166667 0.0631 Uiso
C9 C 0.29433 0.31479 0.1689 0.0631 Uiso
C10 C 0.29433 0.35311 0.1689 0.0631 Uiso
C11 C 0.333333 0.39116 0.166667 0.0631 Uiso
C12 C 0.254372 0.355257 0.175986 0.0631 Uiso
C13 C 0.222899 0.356949 0.181568 0.0631 Uiso
C14 C 0.183762 0.359052 0.188509 0.0631 Uiso
C15 C 0.146791 0.32799 0.13891 0.0631 Uiso
C16 C 0.109297 0.330005 0.14556 0.0631 Uiso
C17 C 0.109868 0.363023 0.201614 0.0631 Uiso
C18 C 0.146839 0.394085 0.251212 0.0631 Uiso
C19 C 0.184333 0.39207 0.244563 0.0631 Uiso
C20 C 0.06991 0.36517 0.2087 0.0631 Uiso
H1 H 0.368307 0.142409 0.298943 0.0758 Uiso
H2 H 0.368307 0.209668 0.298943 0.0758 Uiso
H3 H 0.26586 0.28702 0.17053 0.0758 Uiso
H4 H 0.333333 0.41954 0.166667 0.0758 Uiso
H5 H 0.146774 0.303868 0.097924 0.0758 Uiso
H6 H 0.081911 0.307354 0.109427 0.0758 Uiso
H7 H 0.146856 0.418207 0.292199 0.0758 Uiso
H8 H 0.211719 0.414721 0.280696 0.0758 Uiso
O2K O 0.353648 0.074222 0.233331 0.0351 Uiso
O3K O 0.623291 0.619727 0.16824 0.0351 Uiso
O4K O 0.599932 0.651036 0.05396 0.0351 Uiso
C3K C 0.31312 0.13032 0.09020 0.0631 Uiso
C4K C 0.31312 0.16920 0.09020 0.0631 Uiso
C9K C 0.37234 0.35379 0.1644 0.0631 Uiso
C10K C 0.37234 0.39211 0.1644 0.0631 Uiso
C12K C 0.412295 0.434218 0.157347 0.0631 Uiso
C13K C 0.443768 0.467383 0.151765 0.0631 Uiso
C14K C 0.482905 0.508623 0.144824 0.0631 Uiso
C15K C 0.519876 0.514532 0.19442 0.0631 Uiso
C16K C 0.557370 0.554041 0.18777 0.0631 Uiso
C17K C 0.556799 0.586488 0.131719 0.0631 Uiso
C18K C 0.519828 0.580579 0.082121 0.0631 Uiso
C19K C 0.482334 0.541070 0.088770 0.0631 Uiso
C20K C 0.59676 0.62859 0.1246 0.0631 Uiso
H1K H 0.298360 0.107435 0.034390 0.0758 Uiso
H2K H 0.298360 0.174694 0.034390 0.0758 Uiso
H3K H 0.40081 0.35449 0.16280 0.0758 Uiso
H5K H 0.519893 0.490427 0.235409 0.0758 Uiso
H6K H 0.584756 0.558776 0.223906 0.0758 Uiso
H7K H 0.519811 0.604684 0.041134 0.0758 Uiso
H8K H 0.454948 0.536335 0.052637 0.0758 Uiso
Eu1A Eu 0.000 0.32428 0.000 0.0076 Uiso
Eu1B Eu 0.67572 0.67572 0.000 0.0076 Uiso
Eu1F Eu -0.00905 0.333333 0.333333 0.0076 Uiso
Eu1G Eu 0.666667 0.65761 0.333333 0.0076 Uiso
Eu1H Eu 0.34239 0.00905 0.333333 0.0076 Uiso
O2D O 0.259111 -0.053908 -0.100002 0.0351 Uiso
O3B O 0.286394 -0.043376 0.16509 0.0351 Uiso
O3C O 0.32977 0.043376 -0.16509 0.0351 Uiso
O4J O 0.348964 -0.051105 0.05396 0.0351 Uiso
O4L O 0.400068 0.051105 -0.05396 0.0351 Uiso
O5 O 0.349624 0.472673 0.275048 0.0896 Uiso
O6 O 0.465579 0.628004 0.2199 0.0896 Uiso
O7 O 0.121354 0.053242 0.799929 0.0896 Uiso
O8 O 0.741874 0.859831 0.729814 0.0896 Uiso
O9 O 0.926127 0.48172 0.289043 0.0896 Uiso
O10 O 0.381365 0.885602 0.557156 0.0896 Uiso
O11 O 0.661617 0.241953 0.705141 0.0896 Uiso
O12 O 0.125434 0.613668 0.443903 0.0896 Uiso
loop_
_geom_bond_atom_site_label_1
_geom_bond_atom_site_label_2
_geom_bond_site_symmetry_1
_geom_bond_site_symmetry_2
Eu1 O1 1_555 1_555
O2 Eu1 1_555 1_555
O3 C20 1_555 1_555
O4 C20 1_555 1_555
C1 O2 1_555 1_555
C2 C1 1_555 1_555
C3 C2 1_555 1_555
C4 C3 1_555 1_555
C5 C4 1_555 1_555
C6 C5 1_555 1_555
C7 C6 1_555 1_555
C8 C7 1_555 1_555
C9 C8 1_555 1_555
C10 C9 1_555 1_555
C11 C10 1_555 1_555
C12 C10 1_555 1_555
C13 C12 1_555 1_555
C14 C13 1_555 1_555
C15 C14 1_555 1_555
C16 C15 1_555 1_555
C17 C16 1_555 1_555
C18 C17 1_555 1_555
C19 C14 1_555 1_555
C20 C17 1_555 1_555
H1 C3 1_555 1_555
H2 C4 1_555 1_555
H3 C9 1_555 1_555
H4 C11 1_555 1_555
H5 C15 1_555 1_555
H6 C16 1_555 1_555
H7 C18 1_555 1_555
H8 C19 1_555 1_555
O2K C1 1_555 1_555
O3K C20K 1_555 1_555
O4K C20K 1_555 1_555
C3K C2 1_555 1_555
C4K C5 1_555 1_555
C9K C8 1_555 1_555
C10K C11 1_555 1_555
C12K C10K 1_555 1_555
C13K C12K 1_555 1_555
C14K C13K 1_555 1_555
C15K C14K 1_555 1_555
C16K C15K 1_555 1_555
C17K C16K 1_555 1_555
C18K C17K 1_555 1_555
C19K C14K 1_555 1_555
C20K C17K 1_555 1_555
H1K C3K 1_555 1_555
H2K C4K 1_555 1_555
H3K C9K 1_555 1_555
H5K C15K 1_555 1_555
H6K C16K 1_555 1_555
H7K C18K 1_555 1_555
H8K C19K 1_555 1_555
Eu1A O3 1_555 1_555
Eu1B O4K 1_555 1_555
Eu1F O4 1_555 1_555
Eu1G O3K 1_555 1_555
Eu1H O2K 1_555 1_555
O2D Eu1 1_555 1_555
O3B Eu1 1_555 1_555
O3C Eu1 1_555 1_555
O4J Eu1 1_555 1_555
O4L Eu1 1_555 1_555
C18 C19 1_555 1_555
C3K C4K 1_555 1_555
C9K C10K 1_555 1_555
C18K C19K 1_555 1_555

#END
