
#######################################################################
#
#                 Cambridge Crystallographic Data Centre
#                                CCDC 
#
#######################################################################
#
# If this CIF has been generated from an entry in the Cambridge 
# Structural Database, then it will include bibliographic, chemical, 
# crystal, experimental, refinement or atomic coordinate data resulting 
# from the CCDC's data processing and validation procedures.
#
#######################################################################

data_LOJNAA
_chemical_formula_moiety         '(C48 H66 Mo5 N24 Ni2 O31 P2)n'
_symmetry_cell_setting           orthorhombic
_symmetry_space_group_name_H-M   'P 21 21 21'
_symmetry_Int_Tables_number      19
_space_group_name_Hall           'P 2ac 2ab'
loop_
_symmetry_equiv_pos_site_id
_symmetry_equiv_pos_as_xyz
1 x,y,z
2 1/2-x,-y,1/2+z
3 1/2+x,1/2-y,-z
4 -x,1/2+y,1/2-z
_cell_length_a                   18.577(4)
_cell_length_b                   20.125(4)
_cell_length_c                   20.895(4)
_cell_angle_alpha                90
_cell_angle_beta                 90
_cell_angle_gamma                90
_cell_volume                     7811.85
loop_
_atom_site_label
_atom_site_type_symbol
_atom_site_fract_x
_atom_site_fract_y
_atom_site_fract_z
Mo1 Mo 0.66824(5) 0.79407(4) 0.82108(4)
Mo2 Mo 0.68693(5) 0.79047(5) 0.65863(4)
Mo3 Mo 0.63483(5) 0.93784(5) 0.59863(4)
Mo4 Mo 0.60750(5) 1.04602(5) 0.72409(4)
Mo5 Mo 0.59104(5) 0.94139(5) 0.86260(4)
Ni1 Ni 0.54969(7) 0.64203(7) 0.81292(6)
Ni2 Ni 0.71964(7) 0.00815(7) 0.98713(6)
P1 P 0.73136(13) 0.93130(13) 0.74439(13)
P2 P 0.53961(14) 0.87730(14) 0.72347(13)
C1 C 0.6528(6) 0.6042(6) 0.9209(6)
H1 H 0.6853 0.6358 0.9062
C2 C 0.5646(8) 0.5457(8) 0.9266(7)
H2 H 0.5208 0.5252 0.9179
C3 C 0.6037(10) 0.4669(9) 1.0129(9)
H3 H 0.6152 0.4793 1.0566
H4 H 0.5550 0.4495 1.0123
C4 C 0.6549(12) 0.4145(8) 0.9906(10)
C5 C 0.7071(10) 0.3913(11) 1.0297(9)
H5 H 0.7122 0.4087 1.0707
C6 C 0.7516(11) 0.3436(10) 1.0096(12)
H6 H 0.7883 0.3287 1.0363
C7 C 0.7433(13) 0.3156(8) 0.9482(12)
C8 C 0.6902(15) 0.3376(9) 0.9083(14)
H7 H 0.6836 0.3202 0.8675
C9 C 0.6464(14) 0.3876(11) 0.9327(13)
H8 H 0.6091 0.4033 0.9072
C10 C 0.7980(12) 0.2647(9) 0.9248(11)
H9 H 0.8171 0.2795 0.8840
H10 H 0.8377 0.2633 0.9550
C11 C 0.7277(8) 0.1125(7) 0.8769(6)
H11 H 0.7081 0.0836 0.8468
C12 C 0.7553(9) 0.1523(7) 0.9620(7)
H12 H 0.7618 0.1607 1.0054
C13 C 0.4674(6) 0.7577(6) 0.8753(6)
H13 H 0.4979 0.7891 0.8571
C14 C 0.4157(7) 0.6711(6) 0.9005(6)
H14 H 0.4036 0.6263 0.9020
C15 C 0.3923(7) 0.8371(6) 0.9392(7)
H15 H 0.3410 0.8432 0.9331
H16 H 0.4172 0.8712 0.9149
C16 C 0.4099(7) 0.8443(6) 1.0081(7)
C17 C 0.3580(9) 0.8301(10) 1.0561(8)
H17 H 0.3138 0.8126 1.0439
C18 C 0.3707(10) 0.8414(12) 1.1198(8)
H18 H 0.3345 0.8355 1.1500
C19 C 0.4409(10) 0.8625(10) 1.1386(7)
C20 C 0.4925(8) 0.8727(9) 1.0943(8)
H19 H 0.5389 0.8836 1.1073
C21 C 0.4768(7) 0.8669(8) 1.0293(7)
H20 H 0.5117 0.8784 0.9994
C22 C 0.4526(13) 0.8727(14) 1.2078(8)
H21 H 0.4122 0.8972 1.2253
H22 H 0.4542 0.8298 1.2290
C23 C 0.6243(10) 0.9182(9) 1.2447(8)
H23 H 0.6722 0.9089 1.2539
C24 C 0.5378(8) 0.9720(9) 1.2205(8)
H24 H 0.5063 1.0066 1.2113
C25 C 1.0649(6) 0.4521(7) 0.9806(6)
H25 H 1.0466 0.4744 1.0161
C26 C 1.1320(7) 0.4167(7) 0.9074(6)
H26 H 1.1732 0.4098 0.8829
C27 C 0.9499(7) 0.3946(8) 0.9428(8)
H27 H 0.9299 0.4107 0.9828
H28 H 0.9483 0.3465 0.9443
C28 C 0.9021(8) 0.4167(9) 0.8906(7)
C29 C 0.8567(8) 0.4670(11) 0.8985(9)
H29 H 0.8604 0.4952 0.9336
C30 C 0.8054(13) 0.4757(14) 0.8541(10)
H30 H 0.7713 0.5092 0.8595
C31 C 0.8027(11) 0.4376(12) 0.8032(13)
C32 C 0.8545(11) 0.3927(14) 0.7919(12)
H31 H 0.8542 0.3683 0.7541
C33 C 0.9058(8) 0.3834(11) 0.8344(9)
H32 H 0.9437 0.3545 0.8260
C34 C 0.741(2) 0.4422(10) 0.7560(13)
H33 H 0.7065 0.4082 0.7676
H34 H 0.7601 0.4302 0.7143
C35 C 0.6307(11) 0.5231(7) 0.7614(8)
H35 H 0.5920 0.4943 0.7668
C36 C 0.6967(7) 0.6056(7) 0.7496(6)
H36 H 0.7109 0.6499 0.7496
C37 C 0.7239(6) -0.0946(7) 1.0983(5)
H37 H 0.7372 -0.0615 1.1269
C38 C 0.6918(6) -0.1413(6) 1.0163(5)
H38 H 0.6765 -0.1501 0.9748
C39 C 0.6891(7) -0.2568(6) 1.0550(7)
H39 H 0.7267 -0.2783 1.0797
H40 H 0.6952 -0.2700 1.0106
C40 C 0.6159(6) -0.2823(6) 1.0785(7)
C41 C 0.5624(8) -0.2954(9) 1.0378(7)
H41 H 0.5688 -0.2867 0.9945
C42 C 0.4972(8) -0.3217(7) 1.0588(6)
H42 H 0.4630 -0.3354 1.0292
C43 C 0.4830(7) -0.3278(7) 1.1242(7)
C44 C 0.5362(9) -0.3047(9) 1.1640(6)
H43 H 0.5277 -0.3062 1.2079
C45 C 0.5998(9) -0.2799(10) 1.1440(7)
H44 H 0.6323 -0.2617 1.1730
C46 C 0.4123(7) -0.3499(8) 1.1481(7)
H45 H 0.4166 -0.3609 1.1931
H46 H 0.3784 -0.3134 1.1445
C47 C 0.3202(7) -0.4103(7) 1.0859(6)
H47 H 0.2877 -0.3753 1.0827
C48 C 0.3710(6) -0.5048(7) 1.0795(6)
H48 H 0.3803 -0.5490 1.0695
N1 N 0.5890(5) 0.5977(5) 0.8954(5)
N2 N 0.6689(6) 0.5641(6) 0.9680(5)
N3 N 0.6082(6) 0.5267(6) 0.9708(6)
N4 N 0.7316(5) 0.0954(5) 0.9390(4)
N5 N 0.7521(7) 0.1707(5) 0.8598(5)
N6 N 0.7689(7) 0.1957(6) 0.9169(6)
N7 N 0.4706(5) 0.6934(4) 0.8656(4)
N8 N 0.3792(6) 0.7168(5) 0.9329(5)
N9 N 0.4137(5) 0.7707(5) 0.9155(5)
N10 N 0.6038(7) 0.9796(7) 1.2337(6)
H49 H 0.6287 1.0156 1.2350
N11 N 0.5777(11) 0.8716(8) 1.2427(8)
N12 N 0.5195(10) 0.9090(9) 1.2216(7)
N13 N 1.1308(5) 0.4529(4) 0.9633(4)
N14 N 1.0681(6) 0.3931(6) 0.8926(6)
N15 N 1.0254(5) 0.4147(5) 0.9402(5)
N16 N 0.6293(5) 0.5890(5) 0.7652(5)
N17 N 0.7418(8) 0.5596(8) 0.7347(6)
N18 N 0.7003(10) 0.5062(8) 0.7481(7)
N19 N 0.7095(5) -0.0803(5) 1.0379(4)
N20 N 0.7192(5) -0.1567(5) 1.1168(5)
N21 N 0.6985(5) -0.1851(5) 1.0596(4)
N22 N 0.3102(5) -0.4724(5) 1.0624(4)
N23 N 0.4166(5) -0.4660(6) 1.1126(5)
N24 N 0.3831(5) -0.4077(6) 1.1138(5)
O1 O 0.7333(4) 0.7825(4) 0.8771(4)
O2 O 0.6202(4) 0.7211(3) 0.8252(3)
O3 O 0.6040(4) 0.8467(4) 0.8719(4)
O4 O 0.7218(4) 0.7785(3) 0.7454(3)
O5 O 0.5900(4) 0.8177(3) 0.7283(3)
O6 O 0.6913(4) 0.8985(3) 0.7998(3)
O7 O 0.7662(4) 0.7827(5) 0.6189(4)
O8 O 0.6474(4) 0.7156(4) 0.6459(4)
O9 O 0.6333(4) 0.8423(4) 0.5989(4)
O10 O 0.7107(4) 0.8989(4) 0.6806(3)
O11 O 0.7119(4) 0.9515(4) 0.5546(3)
O12 O 0.5668(4) 0.9498(5) 0.5470(4)
O13 O 0.6371(5) 1.0215(5) 0.6407(4)
O14 O 0.5200(4) 1.0656(4) 0.7052(4)
O15 O 0.6440(5) 1.1208(4) 0.7342(4)
O16 O 0.5738(5) 0.9348(5) 0.6884(5)
O17 O 0.5191(5) 0.8997(5) 0.7915(5)
O18 O 0.7162(4) 1.0040(3) 0.7434(4)
O19 O 0.5929(5) 1.0150(5) 0.8089(4)
O20 O 0.5138(4) 0.9551(4) 0.9033(4)
O21 O 0.6548(4) 0.9676(4) 0.9165(3)
O22 O 0.4707(5) 0.8567(6) 0.6890(5)
O23 O 0.8126(4) 0.9198(4) 0.7569(5)
O24 O 0.5153(4) 0.6892(5) 0.7302(4)
Ni1C Ni 0.45031(7) 1.14203(7) 0.68708(6)
Ni2B Ni 1.21964(7) 0.49185(7) 1.01287(6)
Ni2B_2 Ni 0.21964(7) -0.50815(7) 1.01287(6)
Ni2A Ni 0.78036(7) 0.99185(7) 0.48713(6)
Ni2_2 Ni 0.71964(7) 1.00815(7) 0.98713(6)
N13B N 0.6308(5) 0.0471(4) 1.0367(4)
N22B N 0.8102(5) -0.0276(5) 0.9376(4)
O11A O 0.7881(4) 0.0485(4) 1.0546(3)
O14C O 0.4800(4) 0.5656(4) 0.7948(4)
O21_2 O 0.6548(4) -0.0324(4) 0.9165(3)
O25 O 0.7484(5) 0.2395(5) 0.7358(5)
O26 O 0.6235(11) 0.5590(16) 0.5971(10)
O27 O 0.4964(8) 0.6221(8) 0.6250(6)
O28 O 0.5392(11) 0.7809(11) 0.5096(11)
O29 O 0.7637(9) 0.5492(10) 0.0803(8)
O30 O 0.3879(6) 0.7662(6) 0.7320(9)
O31 O 0.4273(12) 0.7144(12) 0.5574(14)
loop_
_geom_bond_atom_site_label_1
_geom_bond_atom_site_label_2
_geom_bond_site_symmetry_1
_geom_bond_site_symmetry_2
Mo1 O1 1_555 1_555
Mo2 O4 1_555 1_555
Mo3 O9 1_555 1_555
Mo4 O13 1_555 1_555
Mo5 O3 1_555 1_555
Ni1 N1 1_555 1_555
Ni2 N4 1_555 1_555
P1 O6 1_555 1_555
P2 O5 1_555 1_555
C1 H1 1_555 1_555
C2 H2 1_555 1_555
C3 H3 1_555 1_555
H4 C3 1_555 1_555
C4 C3 1_555 1_555
C5 C4 1_555 1_555
H5 C5 1_555 1_555
C6 C5 1_555 1_555
H6 C6 1_555 1_555
C7 C6 1_555 1_555
C8 C7 1_555 1_555
H7 C8 1_555 1_555
C9 C4 1_555 1_555
H8 C9 1_555 1_555
C10 C7 1_555 1_555
H9 C10 1_555 1_555
H10 C10 1_555 1_555
C11 H11 1_555 1_555
C12 H12 1_555 1_555
C13 H13 1_555 1_555
C14 H14 1_555 1_555
C15 H15 1_555 1_555
H16 C15 1_555 1_555
C16 C15 1_555 1_555
C17 C16 1_555 1_555
H17 C17 1_555 1_555
C18 C17 1_555 1_555
H18 C18 1_555 1_555
C19 C18 1_555 1_555
C20 C19 1_555 1_555
H19 C20 1_555 1_555
C21 C16 1_555 1_555
H20 C21 1_555 1_555
C22 C19 1_555 1_555
H21 C22 1_555 1_555
H22 C22 1_555 1_555
C23 H23 1_555 1_555
C24 H24 1_555 1_555
C25 H25 1_555 1_555
C26 H26 1_555 1_555
C27 H27 1_555 1_555
H28 C27 1_555 1_555
C28 C27 1_555 1_555
C29 C28 1_555 1_555
H29 C29 1_555 1_555
C30 C29 1_555 1_555
H30 C30 1_555 1_555
C31 C30 1_555 1_555
C32 C31 1_555 1_555
H31 C32 1_555 1_555
C33 C28 1_555 1_555
H32 C33 1_555 1_555
C34 C31 1_555 1_555
H33 C34 1_555 1_555
H34 C34 1_555 1_555
C35 H35 1_555 1_555
C36 H36 1_555 1_555
C37 H37 1_555 1_555
C38 H38 1_555 1_555
C39 H39 1_555 1_555
H40 C39 1_555 1_555
C40 C39 1_555 1_555
C41 C40 1_555 1_555
H41 C41 1_555 1_555
C42 C41 1_555 1_555
H42 C42 1_555 1_555
C43 C42 1_555 1_555
C44 C43 1_555 1_555
H43 C44 1_555 1_555
C45 C40 1_555 1_555
H44 C45 1_555 1_555
C46 C43 1_555 1_555
H45 C46 1_555 1_555
H46 C46 1_555 1_555
C47 H47 1_555 1_555
C48 H48 1_555 1_555
N1 C1 1_555 1_555
N2 C1 1_555 1_555
N3 C2 1_555 1_555
N4 C11 1_555 1_555
N5 C11 1_555 1_555
N6 C10 1_555 1_555
N7 Ni1 1_555 1_555
N8 C14 1_555 1_555
N9 C13 1_555 1_555
N10 C23 1_555 1_555
H49 N10 1_555 1_555
N11 C23 1_555 1_555
N12 C22 1_555 1_555
N13 C25 1_555 1_555
N14 C26 1_555 1_555
N15 C25 1_555 1_555
N16 Ni1 1_555 1_555
N17 C36 1_555 1_555
N18 C34 1_555 1_555
N19 Ni2 1_555 1_555
N20 C37 1_555 1_555
N21 C38 1_555 1_555
N22 C47 1_555 1_555
N23 C48 1_555 1_555
N24 C46 1_555 1_555
O2 Mo1 1_555 1_555
O3 Mo1 1_555 1_555
O4 Mo1 1_555 1_555
O5 Mo1 1_555 1_555
O6 Mo1 1_555 1_555
O7 Mo2 1_555 1_555
O8 Mo2 1_555 1_555
O9 Mo2 1_555 1_555
O10 Mo2 1_555 1_555
O11 Mo3 1_555 1_555
O12 Mo3 1_555 1_555
O13 Mo3 1_555 1_555
O14 Mo4 1_555 1_555
O15 Mo4 1_555 1_555
O16 Mo3 1_555 1_555
O17 Mo5 1_555 1_555
O18 Mo4 1_555 1_555
O19 Mo4 1_555 1_555
O20 Mo5 1_555 1_555
O21 Mo5 1_555 1_555
O22 P2 1_555 1_555
O23 P1 1_555 1_555
O24 Ni1 1_555 1_555
Ni1C O14 1_555 1_555
Ni2B N13 1_555 1_555
Ni2B_2 N22 1_555 1_555
Ni2A O11 1_555 1_555
Ni2_2 O21 1_555 1_555
N13B Ni2 1_555 1_555
N22B Ni2 1_555 1_555
O11A Ni2 1_555 1_555
O14C Ni1 1_555 1_555
O21_2 Ni2 1_555 1_555
Mo2 O5 1_555 1_555
Mo3 O10 1_555 1_555
Mo4 O16 1_555 1_555
Mo5 O6 1_555 1_555
Mo5 O19 1_555 1_555
Ni1 O2 1_555 1_555
P1 O10 1_555 1_555
P1 O18 1_555 1_555
P2 O16 1_555 1_555
P2 O17 1_555 1_555
C2 N1 1_555 1_555
C3 N3 1_555 1_555
C8 C9 1_555 1_555
C12 N4 1_555 1_555
C12 N6 1_555 1_555
C13 N7 1_555 1_555
C14 N7 1_555 1_555
C15 N9 1_555 1_555
C20 C21 1_555 1_555
C24 N10 1_555 1_555
C24 N12 1_555 1_555
C26 N13 1_555 1_555
C27 N15 1_555 1_555
C32 C33 1_555 1_555
C35 N16 1_555 1_555
C35 N18 1_555 1_555
C36 N16 1_555 1_555
C37 N19 1_555 1_555
C38 N19 1_555 1_555
C39 N21 1_555 1_555
C44 C45 1_555 1_555
C47 N24 1_555 1_555
C48 N22 1_555 1_555
N2 N3 1_555 1_555
N5 N6 1_555 1_555
N8 N9 1_555 1_555
N11 N12 1_555 1_555
N14 N15 1_555 1_555
N17 N18 1_555 1_555
N20 N21 1_555 1_555
N23 N24 1_555 1_555

#END
