
#######################################################################
#
#                 Cambridge Crystallographic Data Centre
#                                CCDC 
#
#######################################################################
#
# If this CIF has been generated from an entry in the Cambridge 
# Structural Database, then it will include bibliographic, chemical, 
# crystal, experimental, refinement or atomic coordinate data resulting 
# from the CCDC's data processing and validation procedures.
#
#######################################################################

data_EGAFOJ
_chemical_formula_moiety         '(C21 H39 La2 N1 O17 S6)n'
_symmetry_cell_setting           triclinic
_symmetry_space_group_name_H-M   'P -1'
_symmetry_Int_Tables_number      2
_space_group_name_Hall           '-P 1'
loop_
_symmetry_equiv_pos_site_id
_symmetry_equiv_pos_as_xyz
1 x,y,z
2 -x,-y,-z
_cell_length_a                   9.1258(3)
_cell_length_b                   11.1380(4)
_cell_length_c                   11.3262(4)
_cell_angle_alpha                77.317(3)
_cell_angle_beta                 68.681(4)
_cell_angle_gamma                79.250(3)
_cell_volume                     1039.05
loop_
_atom_site_label
_atom_site_type_symbol
_atom_site_fract_x
_atom_site_fract_y
_atom_site_fract_z
La1 La 1.234632(18) 0.519220(16) -0.481599(16)
S1 S 1.19640(11) 0.61900(9) -0.00391(8)
S2 S 1.41181(12) 0.23535(9) -0.06025(9)
S3 S 1.34838(19) 0.05074(13) -0.62364(18)
O1 O 1.0675(3) 0.5467(2) 0.3764(2)
O2 O 1.4169(3) 0.4003(2) -0.6683(2)
O3 O 0.9277(3) 0.5756(3) 0.2498(2)
O4 O 1.2794(3) 0.6349(3) -0.3305(3)
O5 O 1.2367(3) 0.2927(2) -0.5177(3)
O6 O 1.0356(3) 0.7118(3) -0.4361(3)
O7 O 1.6481(3) 0.3083(2) -0.3342(3)
O8 O 1.4534(3) 0.3952(2) -0.4049(2)
C1 C 1.4135(7) 0.0126(6) -0.4826(7)
H1 H 1.3759 0.0811 -0.4349
H2 H 1.3661 -0.0597 -0.4269
C2 C 1.2060(4) 0.6003(3) 0.1546(3)
H3 H 1.2885 0.5334 0.1627
H4 H 1.2382 0.6755 0.1628
C3 C 1.3811(4) 0.3979(4) -0.0471(4)
H5 H 1.4189 0.4070 0.0198
H6 H 1.4452 0.4427 -0.1274
C4 C 1.2105(4) 0.4577(4) -0.0172(4)
H7 H 1.1446 0.4138 0.0628
H8 H 1.1720 0.4520 -0.0849
C5 C 1.3920(4) 0.2431(4) -0.2148(4)
H9 H 1.4084 0.1596 -0.2331
H10 H 1.2846 0.2775 -0.2100
C6 C 1.4156(7) 0.1962(4) -0.6980(5)
H11 H 1.5300 0.1857 -0.7217
H12 H 1.3911 0.2209 -0.7770
C7 C 1.0560(4) 0.5733(3) 0.2654(3)
C8 C 1.3504(4) 0.3021(3) -0.6215(4)
C9 C 1.5060(4) 0.3200(3) -0.3246(3)
S3A S 1.65162(19) -0.05074(13) -0.37636(18)
O2A O 1.5831(3) -0.4003(2) -0.3317(2)
O5A O 1.7633(3) -0.2927(2) -0.4823(3)
C1A C 1.5865(7) -0.0126(6) -0.5174(7)
H1A H 1.6241 -0.0811 -0.5651
H2A H 1.6339 0.0597 -0.5731
C6A C 1.5844(7) -0.1962(4) -0.3020(5)
H11A H 1.4700 -0.1857 -0.2783
H12A H 1.6089 -0.2209 -0.2230
C8A C 1.6496(4) -0.3021(3) -0.3785(4)
La1A La 0.765368(18) 0.480780(16) 0.481599(16)
S1A S 0.80360(11) 0.38100(9) 0.00391(8)
S2A S 0.58819(12) 0.76465(9) 0.06025(9)
O1A O 0.9325(3) 0.4533(2) -0.3764(2)
O3A O 1.0723(3) 0.4244(3) -0.2498(2)
O4A O 0.7206(3) 0.3651(3) 0.3305(3)
O6A O 0.9644(3) 0.2882(3) 0.4361(3)
O7A O 0.3519(3) 0.6917(2) 0.3342(3)
O8A O 0.5466(3) 0.6048(2) 0.4049(2)
C2A C 0.7940(4) 0.3997(3) -0.1546(3)
H3A H 0.7115 0.4666 -0.1627
H4A H 0.7618 0.3245 -0.1628
C3A C 0.6189(4) 0.6021(4) 0.0471(4)
H5A H 0.5811 0.5930 -0.0198
H6A H 0.5548 0.5573 0.1274
C4A C 0.7895(4) 0.5423(4) 0.0172(4)
H7A H 0.8554 0.5862 -0.0628
H8A H 0.8280 0.5480 0.0849
C5A C 0.6080(4) 0.7569(4) 0.2148(4)
H9A H 0.5916 0.8404 0.2331
H10A H 0.7154 0.7225 0.2100
C7A C 0.9440(4) 0.4267(3) -0.2654(3)
C9A C 0.4940(4) 0.6800(3) 0.3246(3)
La1_2 La 0.234632(18) 0.519220(16) 0.518401(16)
La1_3 La 1.234632(18) 0.519220(16) 0.518401(16)
La1A_2 La 0.765368(18) 0.480780(16) -0.518401(16)
La1A_3 La 1.765368(18) -0.519220(16) -0.518401(16)
La1A_4 La 1.765368(18) 0.480780(16) -0.518401(16)
O1_2 O 1.0675(3) 0.5467(2) -0.6236(2)
O1A_2 O 0.9325(3) 0.4533(2) 0.6236(2)
O2A_2 O 0.5831(3) 0.5997(2) 0.6683(2)
O5A_2 O 0.7633(3) 0.7073(2) 0.5177(3)
O7_2 O 0.6481(3) 0.3083(2) 0.6658(3)
O7A_2 O 1.3519(3) 0.6917(2) -0.6658(3)
O8_2 O 0.4534(3) 0.3952(2) 0.5951(2)
O8A_2 O 1.5466(3) 0.6048(2) -0.5951(2)
O9 O 1.0826(6) 0.8426(4) -0.2721(4)
N1 N 0.9283(5) 0.9970(3) -0.1722(4)
C10 C 0.9896(6) 0.8824(4) -0.1746(6)
H13 H 0.9620 0.8265 -0.0980
C11 C 0.8203(8) 1.0383(6) -0.0541(7)
H14 H 0.8064 0.9695 0.0154
H15 H 0.7198 1.0713 -0.0642
H16 H 0.8635 1.1014 -0.0355
C12 C 0.9616(10) 1.0890(6) -0.2883(7)
H17 H 1.0320 1.0506 -0.3597
H18 H 1.0103 1.1536 -0.2780
H19 H 0.8645 1.1237 -0.3039
loop_
_geom_bond_atom_site_label_1
_geom_bond_atom_site_label_2
_geom_bond_site_symmetry_1
_geom_bond_site_symmetry_2
La1 O2 1_555 1_555
S1 C2 1_555 1_555
S2 C3 1_555 1_555
S3 C1 1_555 1_555
O1 C7 1_555 1_555
O2 C8 1_555 1_555
O3 C7 1_555 1_555
O4 La1 1_555 1_555
O5 La1 1_555 1_555
O6 La1 1_555 1_555
O7 C9 1_555 1_555
O8 La1 1_555 1_555
C1 H1 1_555 1_555
H2 C1 1_555 1_555
C2 H3 1_555 1_555
H4 C2 1_555 1_555
C3 H5 1_555 1_555
H6 C3 1_555 1_555
C4 S1 1_555 1_555
H7 C4 1_555 1_555
H8 C4 1_555 1_555
C5 S2 1_555 1_555
H9 C5 1_555 1_555
H10 C5 1_555 1_555
C6 S3 1_555 1_555
H11 C6 1_555 1_555
H12 C6 1_555 1_555
C7 C2 1_555 1_555
C8 O5 1_555 1_555
C9 O8 1_555 1_555
O9 C10 1_555 1_555
N1 C10 1_555 1_555
C10 H13 1_555 1_555
C11 N1 1_555 1_555
H14 C11 1_555 1_555
H15 C11 1_555 1_555
H16 C11 1_555 1_555
C12 N1 1_555 1_555
H17 C12 1_555 1_555
H18 C12 1_555 1_555
H19 C12 1_555 1_555
S3A C1A 1_555 1_555
O2A C8A 1_555 1_555
O5A C8A 1_555 1_555
C1A C1 1_555 1_555
H1A C1A 1_555 1_555
H2A C1A 1_555 1_555
C6A S3A 1_555 1_555
H11A C6A 1_555 1_555
H12A C6A 1_555 1_555
C8A C6A 1_555 1_555
La1A O1 1_555 1_555
S1A C2A 1_555 1_555
S2A C3A 1_555 1_555
O1A La1 1_555 1_555
O3A La1 1_555 1_555
O4A La1A 1_555 1_555
O6A La1A 1_555 1_555
O7A C9A 1_555 1_555
O8A La1A 1_555 1_555
C2A H3A 1_555 1_555
H4A C2A 1_555 1_555
C3A H5A 1_555 1_555
H6A C3A 1_555 1_555
C4A S1A 1_555 1_555
H7A C4A 1_555 1_555
H8A C4A 1_555 1_555
C5A S2A 1_555 1_555
H9A C5A 1_555 1_555
H10A C5A 1_555 1_555
C7A O1A 1_555 1_555
C9A O8A 1_555 1_555
La1_2 O7A 1_555 1_555
La1_3 O1 1_555 1_555
La1A_2 O1A 1_555 1_555
La1A_3 O2A 1_555 1_555
La1A_4 O7 1_555 1_555
O1_2 La1 1_555 1_555
O1A_2 La1A 1_555 1_555
O2A_2 La1A 1_555 1_555
O5A_2 La1A 1_555 1_555
O7_2 La1A 1_555 1_555
O7A_2 La1 1_555 1_555
O8_2 La1A 1_555 1_555
O8A_2 La1 1_555 1_555
O3 La1A 1_555 1_555
O8 La1A_4 1_555 1_555
C3 C4 1_555 1_555
C5 C9 1_555 1_555
C6 C8 1_555 1_555
O5A La1A_3 1_555 1_555
O3A C7A 1_555 1_555
O8A La1_2 1_555 1_555
C2A C7A 1_555 1_555
C3A C4A 1_555 1_555
C5A C9A 1_555 1_555
La1_2 O8_2 1_555 1_555
La1_3 O1A_2 1_555 1_555
La1A_2 O1_2 1_555 1_555
La1A_4 O8A_2 1_555 1_555

#END
