
#######################################################################
#
#                 Cambridge Crystallographic Data Centre
#                                CCDC 
#
#######################################################################
#
# If this CIF has been generated from an entry in the Cambridge 
# Structural Database, then it will include bibliographic, chemical, 
# crystal, experimental, refinement or atomic coordinate data resulting 
# from the CCDC's data processing and validation procedures.
#
#######################################################################

data_IBIYUO
_chemical_formula_moiety         '(C60 H48 Cu8 I6 N12 S8 W2)n'
_symmetry_cell_setting           tetragonal
_symmetry_space_group_name_H-M   'I 41/a c d'
_symmetry_Int_Tables_number      142
_space_group_name_Hall           '-I 4bd 2c'
loop_
_symmetry_equiv_pos_site_id
_symmetry_equiv_pos_as_xyz
1 x,y,z
2 1/2+x,1/2+y,1/2+z
3 1/4-y,3/4+x,1/4+z
4 1/4+y,1/4-x,3/4+z
5 3/4+y,1/4+x,1/4-z
6 3/4-y,1/4+x,3/4+z
7 1/2-x,-y,1/2+z
8 -x,1/2-y,z
9 3/4+y,3/4-x,1/4+z
10 x,-y,1/2-z
11 1/2+x,1/2-y,-z
12 1/4-y,1/4-x,1/4-z
13 3/4-y,3/4-x,3/4-z
14 1/2-x,y,-z
15 -x,1/2+y,1/2-z
16 1/4+y,3/4+x,3/4-z
17 -x,-y,-z
18 1/2-x,1/2-y,1/2-z
19 3/4+y,1/4-x,3/4-z
20 3/4-y,3/4+x,1/4-z
21 1/4-y,3/4-x,3/4+z
22 1/4+y,3/4-x,1/4-z
23 1/2+x,y,1/2-z
24 x,1/2+y,-z
25 1/4-y,1/4+x,3/4-z
26 -x,y,1/2+z
27 1/2-x,1/2+y,z
28 3/4+y,3/4+x,3/4+z
29 1/4+y,1/4+x,1/4+z
30 1/2+x,-y,z
31 x,1/2-y,1/2+z
32 3/4-y,1/4-x,1/4+z
_cell_length_a                   24.803(2)
_cell_length_b                   24.803(2)
_cell_length_c                   28.412(3)
_cell_angle_alpha                90
_cell_angle_beta                 90
_cell_angle_gamma                90
_cell_volume                     17478.7
loop_
_atom_site_label
_atom_site_type_symbol
_atom_site_fract_x
_atom_site_fract_y
_atom_site_fract_z
_atom_site_U_iso_or_equiv
_atom_site_thermal_displace_type
W1 W -0.0000 0.2500 0.1250 0.0161 Uani
Cu1 Cu 0.07677(12) 0.32677(12) 0.1250 0.0240 Uani
Cu2 Cu -0.07678(13) 0.32678(13) 0.1250 0.0253 Uani
S1 S -0.0002(3) 0.3239(3) 0.0803(2) 0.0233 Uani
N1 N 0.1397(8) 0.3323(8) 0.0784(8) 0.0243 Uani
N2 N -0.0773(9) 0.3913(8) 0.1709(8) 0.0283 Uani
C1 C 0.1342(11) 0.3167(10) 0.0338(10) 0.0333 Uani
C2 C 0.1781(11) 0.3184(12) 0.0043(11) 0.0400 Uani
C3 C 0.2268(10) 0.3340(9) 0.0156(11) 0.0273 Uani
C4 C 0.2306(11) 0.3517(11) 0.0632(10) 0.0367 Uani
C5 C 0.1878(10) 0.3495(11) 0.0906(12) 0.0367 Uani
C6 C -0.0665(13) 0.4417(11) 0.1564(10) 0.0433 Uani
C7 C -0.0633(13) 0.4836(10) 0.1844(10) 0.0390 Uani
C8 C -0.0727(10) 0.4770(10) 0.2329(9) 0.0257 Uani
C9 C -0.0828(12) 0.4242(10) 0.2463(11) 0.0467 Uani
C10 C -0.0864(12) 0.3846(11) 0.2152(11) 0.0400 Uani
H1 H 0.1003(11) 0.3031(10) 0.0238(10) 0.0420 Uiso
H2 H 0.1720(11) 0.3076(12) -0.0273(11) 0.0470 Uiso
H3 H 0.2643(11) 0.3647(11) 0.0743(10) 0.0410 Uiso
H4 H 0.1923(10) 0.3603(11) 0.1225(12) 0.0460 Uiso
H5 H -0.0614(13) 0.4470(11) 0.1236(10) 0.0510 Uiso
H6 H -0.0547(13) 0.5184(10) 0.1725(10) 0.0470 Uiso
H7 H -0.0879(12) 0.4168(10) 0.2788(11) 0.0510 Uiso
H8 H -0.0953(12) 0.3494(11) 0.2260(11) 0.0460 Uiso
C3M C 0.2732(10) 0.3340(9) -0.0156(11) 0.0273 Uani
C2M C 0.3219(11) 0.3184(12) -0.0043(11) 0.0400 Uani
C1M C 0.3658(11) 0.3167(10) -0.0338(10) 0.0333 Uani
N1M N 0.3603(8) 0.3323(8) -0.0784(8) 0.0243 Uani
C5M C 0.3122(10) 0.3495(11) -0.0906(12) 0.0367 Uani
C4M C 0.2694(11) 0.3517(11) -0.0632(10) 0.0367 Uani
H3M H 0.2357(11) 0.3647(11) -0.0743(10) 0.0410 Uiso
H4M H 0.3077(10) 0.3603(11) -0.1225(12) 0.0460 Uiso
H1M H 0.3997(11) 0.3031(10) -0.0238(10) 0.0420 Uiso
H2M H 0.3280(11) 0.3076(12) 0.0273(11) 0.0470 Uiso
C8I C -0.0727(10) 0.5230(10) 0.2671(9) 0.0257 Uani
C7I C -0.0633(13) 0.5164(10) 0.3156(10) 0.0390 Uani
C6I C -0.0665(13) 0.5583(11) 0.3436(10) 0.0433 Uani
N2I N -0.0773(9) 0.6087(8) 0.3291(8) 0.0283 Uani
C10I C -0.0864(12) 0.6154(11) 0.2848(11) 0.0400 Uani
C9I C -0.0828(12) 0.5758(10) 0.2537(11) 0.0467 Uani
H7I H -0.0879(12) 0.5832(10) 0.2212(11) 0.0510 Uiso
H8I H -0.0953(12) 0.6506(11) 0.2740(11) 0.0460 Uiso
H5I H -0.0614(13) 0.5530(11) 0.3764(10) 0.0510 Uiso
H6I H -0.0547(13) 0.4816(10) 0.3275(10) 0.0470 Uiso
S1D S 0.0739(3) 0.2498(3) 0.1697(2) 0.0233 Uani
S1G S 0.0002(3) 0.1761(3) 0.0803(2) 0.0233 Uani
S1K S -0.0739(3) 0.2502(3) 0.1697(2) 0.0233 Uani
Cu1G Cu -0.07677(12) 0.17323(12) 0.1250 0.0240 Uani
Cu2D Cu 0.07678(13) 0.17322(13) 0.1250 0.0253 Uani
N1D N 0.0823(8) 0.3897(8) 0.1716(8) 0.0243 Uani
C1D C 0.0667(10) 0.3842(11) 0.2162(10) 0.0333 Uani
C2D C 0.0684(12) 0.4281(11) 0.2457(11) 0.0400 Uani
C3D C 0.0840(9) 0.4768(10) 0.2344(11) 0.0273 Uani
C4D C 0.1017(11) 0.4806(11) 0.1868(10) 0.0367 Uani
C5D C 0.0995(11) 0.4378(10) 0.1594(12) 0.0367 Uani
H1D H 0.0531(10) 0.3503(11) 0.2262(10) 0.0420 Uiso
H2D H 0.0576(12) 0.4220(11) 0.2773(11) 0.0470 Uiso
H3D H 0.1147(11) 0.5143(11) 0.1757(10) 0.0410 Uiso
H4D H 0.1103(11) 0.4423(10) 0.1275(12) 0.0460 Uiso
C3H C 0.0840(9) 0.5232(10) 0.2656(11) 0.0273 Uani
C2H C 0.0684(12) 0.5719(11) 0.2543(11) 0.0400 Uani
C1H C 0.0667(10) 0.6158(11) 0.2838(10) 0.0333 Uani
N1H N 0.0823(8) 0.6103(8) 0.3284(8) 0.0243 Uani
C5H C 0.0995(11) 0.5622(10) 0.3406(12) 0.0367 Uani
C4H C 0.1017(11) 0.5194(11) 0.3132(10) 0.0367 Uani
H3H H 0.1147(11) 0.4857(11) 0.3243(10) 0.0410 Uiso
H4H H 0.1103(11) 0.5577(10) 0.3725(12) 0.0460 Uiso
H1H H 0.0531(10) 0.6497(11) 0.2738(10) 0.0420 Uiso
H2H H 0.0576(12) 0.5780(11) 0.2227(11) 0.0470 Uiso
N2K N -0.1413(8) 0.3273(9) 0.0791(8) 0.0283 Uani
C6K C -0.1917(11) 0.3165(13) 0.0936(10) 0.0433 Uani
C7K C -0.2336(10) 0.3133(13) 0.0656(10) 0.0390 Uani
C8K C -0.2270(10) 0.3227(10) 0.0171(9) 0.0257 Uani
C9K C -0.1742(10) 0.3328(12) 0.0037(11) 0.0467 Uani
C10K C -0.1346(11) 0.3364(12) 0.0348(11) 0.0400 Uani
H5K H -0.1970(11) 0.3114(13) 0.1264(10) 0.0510 Uiso
H6K H -0.2684(10) 0.3047(13) 0.0775(10) 0.0470 Uiso
H7K H -0.1668(10) 0.3379(12) -0.0288(11) 0.0510 Uiso
H8K H -0.0994(11) 0.3453(12) 0.0240(11) 0.0460 Uiso
C8C C -0.2730(10) 0.3227(10) -0.0171(9) 0.0257 Uani
C7C C -0.2664(10) 0.3133(13) -0.0656(10) 0.0390 Uani
C6C C -0.3083(11) 0.3165(13) -0.0936(10) 0.0433 Uani
N2C N -0.3587(8) 0.3273(9) -0.0791(8) 0.0283 Uani
C10C C -0.3654(11) 0.3364(12) -0.0348(11) 0.0400 Uani
C9C C -0.3258(10) 0.3328(12) -0.0037(11) 0.0467 Uani
H7C H -0.3332(10) 0.3379(12) 0.0288(11) 0.0510 Uiso
H8C H -0.4006(11) 0.3453(12) -0.0240(11) 0.0460 Uiso
H5C H -0.3030(11) 0.3114(13) -0.1264(10) 0.0510 Uiso
H6C H -0.2316(10) 0.3047(13) -0.0775(10) 0.0470 Uiso
Cu1E Cu 0.42323(12) 0.32677(12) -0.1250 0.0240 Uani
Cu2B Cu -0.07678(13) 0.67322(13) 0.3750 0.0253 Uani
N1G N -0.1397(8) 0.1677(8) 0.0784(8) 0.0243 Uani
N1K N -0.0823(8) 0.1103(8) 0.1716(8) 0.0243 Uani
N2D N 0.1413(8) 0.1727(9) 0.0791(8) 0.0283 Uani
N2G N 0.0773(9) 0.1087(8) 0.1709(8) 0.0283 Uani
Cu1H Cu 0.07677(12) 0.67323(12) 0.3750 0.0240 Uani
Cu2C Cu -0.42322(13) 0.32678(13) -0.1250 0.0253 Uani
W2 W 0.5000 0.2500 0.1250 0.0188 Uani
I1 I 0.33892(7) 0.13411(7) 0.15176(7) 0.0351 Uani
Cu3 Cu 0.42986(13) 0.16700(12) 0.11801(12) 0.0263 Uani
S2 S 0.4269(3) 0.2489(3) 0.0791(2) 0.0297 Uani
N3 N 0.4517(9) 0.1054(8) 0.0718(8) 0.0350 Uani
C11 C 0.4862(10) 0.1159(11) 0.0366(9) 0.0300 Uani
C12 C 0.5053(12) 0.0740(9) 0.0086(7) 0.0253 Uani
C13 C 0.491(1) 0.0214(11) 0.0145(11) 0.0567 Uani
C14 C 0.473(2) 0.009(2) 0.066(2) 0.0250 Uiso
C15 C 0.457(2) 0.057(2) 0.091(2) 0.0400 Uiso
C13P C 0.509(1) -0.0214(11) -0.0145(11) 0.0567 Uani
C12P C 0.4947(12) -0.0740(9) -0.0086(7) 0.0253 Uani
C11P C 0.5138(10) -0.1159(11) -0.0366(9) 0.0300 Uani
N3P N 0.5483(9) -0.1054(8) -0.0718(8) 0.0350 Uani
C15P C 0.543(2) -0.057(2) -0.091(2) 0.0400 Uiso
C14P C 0.527(2) -0.009(2) -0.066(2) 0.0250 Uiso
S2U S 0.4989(3) 0.3231(3) 0.1709(2) 0.0297 Uani
S2G S 0.5731(3) 0.2511(3) 0.0791(2) 0.0297 Uani
S2S S 0.5011(3) 0.1769(3) 0.1709(2) 0.0297 Uani
Cu3U Cu 0.41700(12) 0.32014(13) 0.13199(12) 0.0263 Uani
Cu3G Cu 0.57014(13) 0.33300(12) 0.11801(12) 0.0263 Uani
Cu3S Cu 0.58300(12) 0.17986(13) 0.13199(12) 0.0263 Uani
I1U I 0.38411(7) 0.41108(7) 0.09824(7) 0.0351 Uani
N3U N 0.3554(8) 0.2983(9) 0.1782(8) 0.0350 Uani
C11U C 0.3659(11) 0.2638(10) 0.2134(9) 0.0300 Uani
C12U C 0.3240(9) 0.2447(12) 0.2414(7) 0.0253 Uani
C13U C 0.2714(11) 0.259(1) 0.2355(11) 0.0567 Uani
C14U C 0.259(2) 0.277(2) 0.184(2) 0.0250 Uiso
C15U C 0.307(2) 0.293(2) 0.159(2) 0.0400 Uiso
C13B C 0.2286(11) 0.241(1) 0.2645(11) 0.0567 Uani
C12B C 0.1760(9) 0.2553(12) 0.2586(7) 0.0253 Uani
C11B C 0.1341(11) 0.2362(10) 0.2866(9) 0.0300 Uani
N3B N 0.1446(8) 0.2017(9) 0.3218(8) 0.0350 Uani
C15B C 0.193(2) 0.207(2) 0.341(2) 0.0400 Uiso
C14B C 0.241(2) 0.223(2) 0.316(2) 0.0250 Uiso
I1G I 0.66108(7) 0.36589(7) 0.15176(7) 0.0351 Uani
I1S I 0.61589(7) 0.08892(7) 0.09824(7) 0.0351 Uani
Cu3P Cu 0.57014(13) -0.16700(12) -0.11801(12) 0.0263 Uani
N3G N 0.5483(9) 0.3946(8) 0.0718(8) 0.0350 Uani
N3S N 0.6446(8) 0.2017(9) 0.1782(8) 0.0350 Uani
Cu3B Cu 0.08300(12) 0.17986(13) 0.36801(12) 0.0263 Uani
I2 I 0.3399(2) -0.0262(2) -0.0080(2) 0.0800 Uiso
I3 I 0.3137(3) 0.0345(3) 0.0690(3) 0.1100 Uiso
loop_
_atom_site_aniso_label
_atom_site_aniso_U_11
_atom_site_aniso_U_22
_atom_site_aniso_U_33
_atom_site_aniso_U_23
_atom_site_aniso_U_13
_atom_site_aniso_U_12
W1 0.0166(6) 0.0166(6) 0.0152(10) 0.0000 0.0000 0.0007(9)
Cu1 0.023(2) 0.023(2) 0.026(3) -0.005(2) 0.005(2) -0.001(2)
Cu2 0.026(2) 0.026(2) 0.024(3) 0.004(2) 0.004(2) 0.002(2)
S1 0.020(3) 0.029(4) 0.021(3) 0.010(3) 0.003(3) -0.001(3)
N1 0.032(13) 0.014(11) 0.027(13) -0.006(10) 0.000(11) -0.004(9)
N2 0.033(13) 0.022(12) 0.03(2) -0.015(11) 0.001(11) -0.009(10)
C1 0.02(2) 0.03(2) 0.05(2) -0.02(2) 0.03(1) 0.005(12)
C2 0.04(2) 0.06(2) 0.02(2) 0.01(2) -0.01(2) 0.01(1)
C3 0.018(13) 0.004(12) 0.06(2) 0.009(13) 0.010(13) 0.006(10)
C4 0.02(1) 0.05(2) 0.04(2) 0.00(2) -0.004(13) 0.001(12)
C5 0.02(2) 0.03(2) 0.06(2) 0.00(2) 0.02(2) 0.000(12)
C6 0.07(2) 0.03(2) 0.03(2) 0.01(1) -0.01(2) -0.01(2)
C7 0.08(2) 0.007(13) 0.03(2) -0.003(12) 0.02(2) 0.007(13)
C8 0.017(13) 0.03(2) 0.03(2) -0.002(12) 0.004(12) 0.003(11)
C9 0.07(2) 0.03(2) 0.04(2) -0.01(2) 0.03(2) 0.00(1)
C10 0.06(2) 0.02(2) 0.04(2) 0.01(1) 0.01(2) 0.00(1)
C3M 0.018 0.004 0.06 -0.009 0.01 -0.006
C2M 0.04 0.06 0.02 -0.01 -0.01 -0.01
C1M 0.02 0.03 0.05 0.02 0.03 -0.005
N1M 0.032 0.014 0.027 0.006 0 0.004
C5M 0.02 0.03 0.06 0 0.02 0
C4M 0.02 0.05 0.04 0 -0.004 -0.001
C8I 0.017 0.03 0.03 -0.002 -0.004 -0.003
C7I 0.08 0.007 0.03 -0.003 -0.02 -0.007
C6I 0.07 0.03 0.03 0.01 0.01 0.01
N2I 0.033 0.022 0.03 -0.015 -0.001 0.009
C10I 0.06 0.02 0.04 0.01 -0.01 0
C9I 0.07 0.03 0.04 -0.01 -0.03 0
S1D 0.029 0.02 0.021 -0.003 -0.01 -0.001
S1G 0.02 0.029 0.021 -0.01 -0.003 -0.001
S1K 0.029 0.02 0.021 0.003 0.01 -0.001
Cu1G 0.023 0.023 0.026 0.005 -0.005 -0.001
Cu2D 0.026 0.026 0.024 -0.004 -0.004 0.002
N1D 0.014 0.032 0.027 0 0.006 -0.004
C1D 0.03 0.02 0.05 -0.03 0.02 0.005
C2D 0.06 0.04 0.02 0.01 -0.01 0.01
C3D 0.004 0.018 0.06 -0.01 -0.009 0.006
C4D 0.05 0.02 0.04 0.004 0 0.001
C5D 0.03 0.02 0.06 -0.02 0 0
C3H 0.004 0.018 0.06 -0.01 0.009 -0.006
C2H 0.06 0.04 0.02 0.01 0.01 -0.01
C1H 0.03 0.02 0.05 -0.03 -0.02 -0.005
N1H 0.014 0.032 0.027 0 -0.006 0.004
C5H 0.03 0.02 0.06 -0.02 0 0
C4H 0.05 0.02 0.04 0.004 0 -0.001
N2K 0.022 0.033 0.03 0.001 -0.015 -0.009
C6K 0.03 0.07 0.03 -0.01 0.01 -0.01
C7K 0.007 0.08 0.03 0.02 -0.003 0.007
C8K 0.03 0.017 0.03 0.004 -0.002 0.003
C9K 0.03 0.07 0.04 0.03 -0.01 0
C10K 0.02 0.06 0.04 0.01 0.01 0
C8C 0.03 0.017 0.03 -0.004 -0.002 -0.003
C7C 0.007 0.08 0.03 -0.02 -0.003 -0.007
C6C 0.03 0.07 0.03 0.01 0.01 0.01
N2C 0.022 0.033 0.03 -0.001 -0.015 0.009
C10C 0.02 0.06 0.04 -0.01 0.01 0
C9C 0.03 0.07 0.04 -0.03 -0.01 0
Cu1E 0.023 0.023 0.026 0.005 0.005 0.001
Cu2B 0.026 0.026 0.024 0.004 -0.004 -0.002
N1G 0.032 0.014 0.027 0.006 0 -0.004
N1K 0.014 0.032 0.027 0 -0.006 -0.004
N2D 0.022 0.033 0.03 -0.001 0.015 -0.009
N2G 0.033 0.022 0.03 0.015 -0.001 -0.009
Cu1H 0.023 0.023 0.026 -0.005 -0.005 0.001
Cu2C 0.026 0.026 0.024 -0.004 0.004 -0.002
W2 0.0188(6) 0.0188(6) 0.0187(10) 0.0000 0.0000 0.0000
I1 0.0285 0.0303 0.0465 -0.0034 0.0083 -0.0037
Cu3 0.026(2) 0.019(2) 0.034(2) -0.003(1) 0.006(2) 0.000(1)
S2 0.032(4) 0.028(4) 0.029(4) 0.001(4) -0.007(3) -0.003(4)
N3 0.04(1) 0.015(11) 0.05(2) -0.015(11) 0.024(12) -0.005(10)
C11 0.02(1) 0.05(2) 0.02(1) 0.00(1) 0.004(12) 0.002(11)
C12 0.06(2) 0.013(11) 0.003(13) -0.002(9) 0.002(13) -0.001(13)
C13 0.07(2) 0.03(2) 0.07(2) 0.00(2) 0.05(2) -0.01(2)
C13P 0.07 0.03 0.07 0 0.05 -0.01
C12P 0.06 0.013 0.003 -0.002 0.002 -0.001
C11P 0.02 0.05 0.02 0 0.004 0.002
N3P 0.04 0.015 0.05 -0.015 0.024 -0.005
S2U 0.028 0.032 0.029 -0.007 -0.001 0.003
S2G 0.032 0.028 0.029 -0.001 0.007 -0.003
S2S 0.028 0.032 0.029 0.007 0.001 0.003
Cu3U 0.019 0.026 0.034 0.006 0.003 0
Cu3G 0.026 0.019 0.034 0.003 -0.006 0
Cu3S 0.019 0.026 0.034 -0.006 -0.003 0
I1U 0.0303 0.0285 0.0465 0.0083 0.0034 0.0037
N3U 0.015 0.04 0.05 0.024 0.015 0.005
C11U 0.05 0.02 0.02 0.004 0 -0.002
C12U 0.013 0.06 0.003 0.002 0.002 0.001
C13U 0.03 0.07 0.07 0.05 0 0.01
C13B 0.03 0.07 0.07 0.05 0 0.01
C12B 0.013 0.06 0.003 0.002 0.002 0.001
C11B 0.05 0.02 0.02 0.004 0 -0.002
N3B 0.015 0.04 0.05 0.024 0.015 0.005
I1G 0.0285 0.0303 0.0465 0.0034 -0.0083 -0.0037
I1S 0.0303 0.0285 0.0465 -0.0083 -0.0034 0.0037
Cu3P 0.026 0.019 0.034 -0.003 0.006 0
N3G 0.04 0.015 0.05 0.015 -0.024 -0.005
N3S 0.015 0.04 0.05 -0.024 -0.015 0.005
Cu3B 0.019 0.026 0.034 0.006 0.003 0
loop_
_geom_bond_atom_site_label_1
_geom_bond_atom_site_label_2
_geom_bond_site_symmetry_1
_geom_bond_site_symmetry_2
W1 S1 1_555 1_555
Cu1 S1 1_555 1_555
Cu2 S1 1_555 1_555
N1 Cu1 1_555 1_555
N2 Cu2 1_555 1_555
C1 N1 1_555 1_555
C2 C1 1_555 1_555
C3 C2 1_555 1_555
C4 C3 1_555 1_555
C5 N1 1_555 1_555
C6 N2 1_555 1_555
C7 C6 1_555 1_555
C8 C7 1_555 1_555
C9 C8 1_555 1_555
C10 N2 1_555 1_555
H1 C1 1_555 1_555
H2 C2 1_555 1_555
H3 C4 1_555 1_555
H4 C5 1_555 1_555
H5 C6 1_555 1_555
H6 C7 1_555 1_555
H7 C9 1_555 1_555
H8 C10 1_555 1_555
W2 S2 1_555 1_555
I1 Cu3 1_555 1_555
Cu3 S2 1_555 1_555
S2 Cu3U 1_555 1_555
N3 Cu3 1_555 1_555
C11 N3 1_555 1_555
C12 C11 1_555 1_555
C13 C12 1_555 1_555
C14 C13 1_555 1_555
C15 N3 1_555 1_555
I2 I3 1_555 1_555
C3M C3 1_555 1_555
C2M C3M 1_555 1_555
C1M C2M 1_555 1_555
N1M C1M 1_555 1_555
C5M N1M 1_555 1_555
C4M C3M 1_555 1_555
H3M C4M 1_555 1_555
H4M C5M 1_555 1_555
H1M C1M 1_555 1_555
H2M C2M 1_555 1_555
C8I C8 1_555 1_555
C7I C8I 1_555 1_555
C6I C7I 1_555 1_555
N2I C6I 1_555 1_555
C10I N2I 1_555 1_555
C9I C8I 1_555 1_555
H7I C9I 1_555 1_555
H8I C10I 1_555 1_555
H5I C6I 1_555 1_555
H6I C7I 1_555 1_555
S1D W1 1_555 1_555
S1G W1 1_555 1_555
S1K W1 1_555 1_555
Cu1G S1G 1_555 1_555
Cu2D S1D 1_555 1_555
N1D Cu1 1_555 1_555
C1D N1D 1_555 1_555
C2D C1D 1_555 1_555
C3D C2D 1_555 1_555
C4D C3D 1_555 1_555
C5D N1D 1_555 1_555
H1D C1D 1_555 1_555
H2D C2D 1_555 1_555
H3D C4D 1_555 1_555
H4D C5D 1_555 1_555
C3H C3D 1_555 1_555
C2H C3H 1_555 1_555
C1H C2H 1_555 1_555
N1H C1H 1_555 1_555
C5H N1H 1_555 1_555
C4H C3H 1_555 1_555
H3H C4H 1_555 1_555
H4H C5H 1_555 1_555
H1H C1H 1_555 1_555
H2H C2H 1_555 1_555
N2K Cu2 1_555 1_555
C6K N2K 1_555 1_555
C7K C6K 1_555 1_555
C8K C7K 1_555 1_555
C9K C8K 1_555 1_555
C10K N2K 1_555 1_555
H5K C6K 1_555 1_555
H6K C7K 1_555 1_555
H7K C9K 1_555 1_555
H8K C10K 1_555 1_555
C8C C8K 1_555 1_555
C7C C8C 1_555 1_555
C6C C7C 1_555 1_555
N2C C6C 1_555 1_555
C10C N2C 1_555 1_555
C9C C8C 1_555 1_555
H7C C9C 1_555 1_555
H8C C10C 1_555 1_555
H5C C6C 1_555 1_555
H6C C7C 1_555 1_555
Cu1E N1M 1_555 1_555
Cu2B N2I 1_555 1_555
N1G Cu1G 1_555 1_555
N1K Cu1G 1_555 1_555
N2D Cu2D 1_555 1_555
N2G Cu2D 1_555 1_555
Cu1H N1H 1_555 1_555
Cu2C N2C 1_555 1_555
C13P C13 1_555 1_555
C12P C13P 1_555 1_555
C11P C12P 1_555 1_555
N3P C11P 1_555 1_555
C15P N3P 1_555 1_555
C14P C13P 1_555 1_555
S2U W2 1_555 1_555
S2G W2 1_555 1_555
S2S W2 1_555 1_555
Cu3U S2U 1_555 1_555
Cu3G S2U 1_555 1_555
Cu3S S2G 1_555 1_555
I1U Cu3U 1_555 1_555
N3U Cu3U 1_555 1_555
C11U N3U 1_555 1_555
C12U C11U 1_555 1_555
C13U C12U 1_555 1_555
C14U C13U 1_555 1_555
C15U N3U 1_555 1_555
C13B C13U 1_555 1_555
C12B C13B 1_555 1_555
C11B C12B 1_555 1_555
N3B C11B 1_555 1_555
C15B N3B 1_555 1_555
C14B C13B 1_555 1_555
I1G Cu3G 1_555 1_555
I1S Cu3S 1_555 1_555
Cu3P N3P 1_555 1_555
N3G Cu3G 1_555 1_555
N3S Cu3S 1_555 1_555
Cu3B N3B 1_555 1_555
Cu1 S1D 1_555 1_555
Cu2 S1K 1_555 1_555
C4 C5 1_555 1_555
C9 C10 1_555 1_555
Cu3 S2S 1_555 1_555
C14 C15 1_555 1_555
C5M C4M 1_555 1_555
C10I C9I 1_555 1_555
S1G Cu2D 1_555 1_555
S1K Cu1G 1_555 1_555
C4D C5D 1_555 1_555
C5H C4H 1_555 1_555
C9K C10K 1_555 1_555
C10C C9C 1_555 1_555
C15P C14P 1_555 1_555
S2G Cu3G 1_555 1_555
S2S Cu3S 1_555 1_555
C14U C15U 1_555 1_555
C15B C14B 1_555 1_555

#END
