
#######################################################################
#
#                 Cambridge Crystallographic Data Centre
#                                CCDC 
#
#######################################################################
#
# If this CIF has been generated from an entry in the Cambridge 
# Structural Database, then it will include bibliographic, chemical, 
# crystal, experimental, refinement or atomic coordinate data resulting 
# from the CCDC's data processing and validation procedures.
#
#######################################################################

data_CEYPUT01
_chemical_formula_moiety         '(C15 H15 Co1 N3 O5)n'
_symmetry_cell_setting           monoclinic
_symmetry_space_group_name_H-M   'P n'
_symmetry_Int_Tables_number      7
_space_group_name_Hall           'P -2yac'
loop_
_symmetry_equiv_pos_site_id
_symmetry_equiv_pos_as_xyz
1 x,y,z
2 1/2+x,-y,1/2+z
_cell_length_a                   6.2081(12)
_cell_length_b                   12.681(3)
_cell_length_c                   10.414(2)
_cell_angle_alpha                90
_cell_angle_beta                 91.21(3)
_cell_angle_gamma                90
_cell_volume                     819.658
loop_
_atom_site_label
_atom_site_type_symbol
_atom_site_fract_x
_atom_site_fract_y
_atom_site_fract_z
Co1 Co 0.1658(2) 0.74660(6) 0.27566(14)
O1 O -0.0963(8) 1.1532(4) -0.1579(5)
N1 N 0.0180(10) 0.8546(4) 0.1511(6)
O2 O -0.4094(8) 1.1428(4) -0.0633(5)
O3 O 0.4364(8) 0.3649(4) -0.1781(5)
C1 C -0.1349(12) 1.0237(5) 0.0066(6)
N2 N 0.3146(10) 0.6574(4) 0.1370(6)
O4 O 0.7537(8) 0.3847(4) -0.0867(5)
C2 C 0.6030(11) 0.5441(5) 0.0779(6)
H1 H 0.7432 0.5212 0.0938
C3 C 0.0647(12) 0.9816(6) -0.0156(7)
H2 H 0.1496 1.0090 -0.0801
C4 C 0.2742(12) 0.5413(6) -0.0437(7)
H3 H 0.1876 0.5145 -0.1100
C5 C 0.5642(11) 0.4111(5) -0.0992(6)
C6 C 0.5115(12) 0.6213(6) 0.1538(7)
H4 H 0.5948 0.6491 0.2209
C7 C 0.4784(12) 0.5014(6) -0.0240(7)
C8 C 0.1396(13) 0.8971(5) 0.0596(7)
H5 H 0.2763 0.8699 0.0459
C9 C -0.1765(11) 0.8969(5) 0.1747(7)
H6 H -0.2587 0.8685 0.2398
C10 C 0.1957(12) 0.6208(6) 0.0336(7)
H7 H 0.0608 0.6497 0.0153
C11 C -0.2575(12) 0.9818(5) 0.1043(7)
H8 H -0.3918 1.0101 0.1223
C12 C -0.2220(12) 1.1151(6) -0.0734(7)
Co1A Co -0.3342(2) 1.25340(6) -0.22434(14)
Co1A_2 Co 0.6658(2) 0.25340(6) -0.22434(14)
O1A O 0.4037(8) 0.8468(4) 0.3421(5)
O2A O 0.0906(8) 0.8572(4) 0.4367(5)
O3A O -0.0636(8) 0.6351(4) 0.3219(5)
O4A O 0.2537(8) 0.6153(4) 0.4133(5)
N3 N 0.5588(13) 0.7687(6) 0.7062(8)
O5 O 0.2296(11) 0.7869(6) 0.7950(7)
C13 C 0.3461(17) 0.7520(7) 0.7142(10)
H9 H 0.2825 0.7093 0.6515
C14 C 0.666(2) 0.8344(10) 0.7988(11)
H10 H 0.5773 0.8944 0.8168
H11 H 0.8008 0.8578 0.7655
H12 H 0.6918 0.7951 0.8765
C15 C 0.6835(17) 0.7214(9) 0.6061(10)
H13 H 0.5984 0.6688 0.5624
H14 H 0.8102 0.6893 0.6432
H15 H 0.7249 0.7748 0.5461
loop_
_geom_bond_atom_site_label_1
_geom_bond_atom_site_label_2
_geom_bond_site_symmetry_1
_geom_bond_site_symmetry_2
Co1 N1 1_555 1_555
O1 C12 1_555 1_555
N1 C8 1_555 1_555
O2 C12 1_555 1_555
O3 C5 1_555 1_555
C1 C3 1_555 1_555
N2 Co1 1_555 1_555
O4 C5 1_555 1_555
C2 H1 1_555 1_555
C3 H2 1_555 1_555
C4 H3 1_555 1_555
C5 C7 1_555 1_555
C6 N2 1_555 1_555
H4 C6 1_555 1_555
C7 C2 1_555 1_555
C8 C3 1_555 1_555
H5 C8 1_555 1_555
C9 N1 1_555 1_555
H6 C9 1_555 1_555
C10 N2 1_555 1_555
H7 C10 1_555 1_555
C11 C1 1_555 1_555
H8 C11 1_555 1_555
C12 C1 1_555 1_555
N3 C13 1_555 1_555
O5 C13 1_555 1_555
C13 H9 1_555 1_555
C14 N3 1_555 1_555
H10 C14 1_555 1_555
H11 C14 1_555 1_555
H12 C14 1_555 1_555
C15 N3 1_555 1_555
H13 C15 1_555 1_555
H14 C15 1_555 1_555
H15 C15 1_555 1_555
Co1A O1 1_555 1_555
Co1A_2 O3 1_555 1_555
O1A Co1 1_555 1_555
O2A Co1 1_555 1_555
O3A Co1 1_555 1_555
O4A Co1 1_555 1_555
O2 Co1A 1_555 1_555
O4 Co1A_2 1_555 1_555
C2 C6 1_555 1_555
C4 C7 1_555 1_555
C4 C10 1_555 1_555
C9 C11 1_555 1_555

#END
