
#######################################################################
#
#                 Cambridge Crystallographic Data Centre
#                                CCDC 
#
#######################################################################
#
# If this CIF has been generated from an entry in the Cambridge 
# Structural Database, then it will include bibliographic, chemical, 
# crystal, experimental, refinement or atomic coordinate data resulting 
# from the CCDC's data processing and validation procedures.
#
#######################################################################

data_LABPUB
_chemical_formula_moiety         '(C27 H42 N3 O21 P3 Sm2)n'
_symmetry_cell_setting           monoclinic
_symmetry_space_group_name_H-M   'P 21/c'
_symmetry_Int_Tables_number      14
_space_group_name_Hall           '-P 2ybc'
loop_
_symmetry_equiv_pos_site_id
_symmetry_equiv_pos_as_xyz
1 x,y,z
2 -x,1/2+y,1/2-z
3 -x,-y,-z
4 x,1/2-y,1/2+z
_cell_length_a                   20.910(7)
_cell_length_b                   7.090(2)
_cell_length_c                   27.823(9)
_cell_angle_alpha                90
_cell_angle_beta                 107.611(4)
_cell_angle_gamma                90
_cell_volume                     3931.49
loop_
_atom_site_label
_atom_site_type_symbol
_atom_site_fract_x
_atom_site_fract_y
_atom_site_fract_z
Sm1 Sm 0.089646(12) 0.12723(3) 0.338510(8)
Sm2 Sm 0.253050(12) -0.08665(4) 0.793250(9)
P1 P 0.08221(6) 0.04063(18) 0.72728(4)
P2 P 0.24953(7) 0.08636(18) 0.32049(5)
P3 P 0.13668(6) 0.62247(17) 0.37369(4)
N1 N 0.0458(2) 0.3429(6) 0.66469(15)
H1 H 0.0125 0.3499 0.6767
N2 N 0.3862(2) 0.0827(7) 0.33277(18)
H2 H 0.3793 0.1880 0.3138
H3 H 0.3804 -0.0170 0.3119
N3 N 0.2276(2) 0.8230(7) 0.44445(16)
H4 H 0.2348 0.8395 0.4145
H5 H 0.2061 0.9261 0.4504
C1 C 0.0979(3) 0.1914(8) 0.6792(2)
H6 H 0.0969 0.1166 0.6498
H7 H 0.1421 0.2480 0.6920
C2 C 0.0571(3) 0.4817(8) 0.62721(18)
H8 H 0.0194 0.5680 0.6174
H9 H 0.0970 0.5550 0.6433
C3 C 0.0653(3) 0.3900(7) 0.58054(18)
C4 C 0.1264(3) 0.3931(9) 0.5716(2)
H10 H 0.1630 0.4485 0.5950
C5 C 0.1343(3) 0.3138(10) 0.5275(2)
H11 H 0.1761 0.3161 0.5221
C6 C 0.0806(3) 0.2331(8) 0.49219(19)
C7 C 0.0188(3) 0.2328(9) 0.5009(2)
H12 H -0.0182 0.1818 0.4768
C8 C 0.0112(3) 0.3070(9) 0.5449(2)
H13 H -0.0303 0.3013 0.5506
C9 C 0.0878(3) 0.1552(8) 0.4434(2)
C10 C 0.3359(3) 0.0740(8) 0.3613(2)
H14 H 0.3440 0.1777 0.3851
H15 H 0.3421 -0.0427 0.3803
C11 C 0.4574(3) 0.0827(11) 0.3676(2)
H16 H 0.4650 -0.0293 0.3887
H17 H 0.4645 0.1923 0.3895
C12 C 0.5064(3) 0.0861(10) 0.3369(2)
C13 C 0.5222(3) 0.2525(10) 0.3177(3)
H18 H 0.5067 0.3664 0.3264
C14 C 0.5612(3) 0.2505(10) 0.2854(3)
H19 H 0.5715 0.3638 0.2726
C15 C 0.5850(3) 0.0846(8) 0.2718(2)
C16 C 0.5735(4) -0.0806(11) 0.2947(3)
H20 H 0.5923 -0.1931 0.2883
C17 C 0.5344(4) -0.0800(10) 0.3268(3)
H21 H 0.5269 -0.1918 0.3418
C18 C 0.6230(3) 0.0819(8) 0.2341(2)
C19 C 0.2549(3) 0.7219(10) 0.6794(2)
C20 C 0.2665(3) 0.7405(10) 0.6290(2)
C21 C 0.2512(5) 0.9094(11) 0.6039(3)
H22 H 0.2342 1.0086 0.6182
C22 C 0.2613(5) 0.9316(11) 0.5572(2)
H23 H 0.2515 1.0463 0.5404
C23 C 0.2857(3) 0.7845(9) 0.5357(2)
C24 C 0.2939(3) 0.8111(10) 0.4841(2)
H24 H 0.3192 0.7061 0.4768
H25 H 0.3191 0.9257 0.4838
C25 C 0.1826(3) 0.6577(8) 0.44049(18)
H26 H 0.2088 0.5463 0.4540
H27 H 0.1514 0.6804 0.4595
C26 C 0.3019(4) 0.6182(10) 0.5613(2)
H28 H 0.3196 0.5200 0.5471
C27 C 0.2924(4) 0.5940(10) 0.6082(2)
H29 H 0.3034 0.4802 0.6253
O1 O 0.0368(2) 0.1251(6) 0.40765(15)
O2 O 0.1468(2) 0.1303(6) 0.44059(16)
O3 O 0.02018(18) -0.0721(6) 0.70169(15)
O4 O 0.14289(18) -0.0873(5) 0.74388(14)
O5 O 0.0714(2) 0.1707(5) 0.76684(13)
O6 O 0.20699(18) 0.0728(5) 0.35547(14)
O7 O 0.2410(2) 0.2683(5) 0.29134(14)
O8 O 0.24109(19) -0.0812(5) 0.28484(14)
O9 O 0.6369(2) 0.2339(6) 0.21645(16)
O10 O 0.6448(2) -0.0729(6) 0.22298(18)
O11 O 0.2546(3) 0.5466(7) 0.69482(17)
H30 H 0.2501 0.5456 0.7231
O12 O 0.2473(2) 0.8589(7) 0.70303(15)
O13 O 0.0985(2) 0.4394(5) 0.36995(14)
O14 O 0.09069(18) 0.7924(5) 0.35830(13)
O15 O 0.19385(19) 0.6191(5) 0.35087(14)
O16 O 0.0787(2) -0.0689(5) 0.25523(13)
H31 H 0.0914 -0.0017 0.2345
H32 H 0.1031 -0.1669 0.2627
O17 O 0.3413(3) -0.0796(6) 0.88287(16)
H33 H 0.3209 -0.0784 0.9051
H34 H 0.3650 0.0197 0.8856
Sm1B Sm -0.089646(12) -0.12723(3) 0.661490(8)
Sm1C Sm 0.089646(12) 0.37277(3) 0.838510(8)
Sm1_2 Sm 0.089646(12) 1.12723(3) 0.338510(8)
Sm2C Sm 0.253050(12) 0.58665(4) 0.293250(9)
Sm2C_2 Sm 0.253050(12) -0.41335(4) 0.293250(9)
Sm2B Sm 0.746950(12) 0.08665(4) 0.206750(9)
Sm2_2 Sm 0.253050(12) 0.91335(4) 0.793250(9)
O3B O -0.02018(18) 0.0721(6) 0.29831(15)
O5C O 0.0714(2) 0.3293(5) 0.26684(13)
O7C O 0.2410(2) 0.2317(5) 0.79134(14)
O8C O 0.24109(19) -0.4188(5) 0.78484(14)
O9B O 0.3631(2) -0.2339(6) 0.78355(16)
O10B O 0.3552(2) 0.0729(6) 0.77702(18)
O12_2 O 0.2473(2) -0.1411(7) 0.70303(15)
O14_2 O 0.09069(18) -0.2076(5) 0.35830(13)
O15C O 0.19385(19) -0.1191(5) 0.85087(14)
O18 O 0.51295(17) 0.0764(5) 0.08573(13)
H35 H 0.4883 -0.0210 0.0827
H36 H 0.5052 0.1307 0.0573
O19 O 0.7046(4) -0.1678(10) 0.0513(3)
H37 H 0.7272 -0.2520 0.0709
H38 H 0.6675 -0.2145 0.0339
O20 O 0.4515(6) -0.260(2) 0.0086(4)
H39 H 0.4820 -0.3431 0.0172
H40 H 0.4190 -0.2915 0.0193
O21 O 0.5951(7) -0.3393(19) -0.0150(6)
H41 H 0.5584 -0.3350 -0.0079
H42 H 0.5905 -0.2851 -0.0431
loop_
_geom_bond_atom_site_label_1
_geom_bond_atom_site_label_2
_geom_bond_site_symmetry_1
_geom_bond_site_symmetry_2
Sm1 O1 1_555 1_555
Sm2 O4 1_555 1_555
P1 C1 1_555 1_555
P2 C10 1_555 1_555
P3 C25 1_555 1_555
N1 H1 1_555 1_555
N2 H2 1_555 1_555
H3 N2 1_555 1_555
N3 H4 1_555 1_555
H5 N3 1_555 1_555
C1 N1 1_555 1_555
H6 C1 1_555 1_555
H7 C1 1_555 1_555
C2 N1 1_555 1_555
H8 C2 1_555 1_555
H9 C2 1_555 1_555
C3 C2 1_555 1_555
C4 C3 1_555 1_555
H10 C4 1_555 1_555
C5 C4 1_555 1_555
H11 C5 1_555 1_555
C6 C5 1_555 1_555
C7 C6 1_555 1_555
H12 C7 1_555 1_555
C8 C3 1_555 1_555
H13 C8 1_555 1_555
C9 C6 1_555 1_555
C10 N2 1_555 1_555
H14 C10 1_555 1_555
H15 C10 1_555 1_555
C11 N2 1_555 1_555
H16 C11 1_555 1_555
H17 C11 1_555 1_555
C12 C11 1_555 1_555
C13 C12 1_555 1_555
H18 C13 1_555 1_555
C14 C13 1_555 1_555
H19 C14 1_555 1_555
C15 C14 1_555 1_555
C16 C15 1_555 1_555
H20 C16 1_555 1_555
C17 C12 1_555 1_555
H21 C17 1_555 1_555
C18 C15 1_555 1_555
C19 C20 1_555 1_555
C20 C21 1_555 1_555
C21 H22 1_555 1_555
C22 C21 1_555 1_555
H23 C22 1_555 1_555
C23 C22 1_555 1_555
C24 N3 1_555 1_555
H24 C24 1_555 1_555
H25 C24 1_555 1_555
C25 N3 1_555 1_555
H26 C25 1_555 1_555
H27 C25 1_555 1_555
C26 C23 1_555 1_555
H28 C26 1_555 1_555
C27 C20 1_555 1_555
H29 C27 1_555 1_555
O1 C9 1_555 1_555
O2 Sm1 1_555 1_555
O3 P1 1_555 1_555
O4 P1 1_555 1_555
O5 P1 1_555 1_555
O6 Sm1 1_555 1_555
O7 P2 1_555 1_555
O8 P2 1_555 1_555
O9 C18 1_555 1_555
O10 C18 1_555 1_555
O11 C19 1_555 1_555
H30 O11 1_555 1_555
O12 C19 1_555 1_555
O13 Sm1 1_555 1_555
O14 P3 1_555 1_555
O15 P3 1_555 1_555
O16 Sm1 1_555 1_555
H31 O16 1_555 1_555
H32 O16 1_555 1_555
O17 Sm2 1_555 1_555
H33 O17 1_555 1_555
H34 O17 1_555 1_555
O18 H35 1_555 1_555
H36 O18 1_555 1_555
O19 H37 1_555 1_555
H38 O19 1_555 1_555
O20 H39 1_555 1_555
H40 O20 1_555 1_555
O21 H41 1_555 1_555
H42 O21 1_555 1_555
Sm1B O3 1_555 1_555
Sm1C O5 1_555 1_555
Sm1_2 O14 1_555 1_555
Sm2C O7 1_555 1_555
Sm2C_2 O8 1_555 1_555
Sm2B O9 1_555 1_555
Sm2_2 O12 1_555 1_555
O3B Sm1 1_555 1_555
O5C Sm1 1_555 1_555
O7C Sm2 1_555 1_555
O8C Sm2 1_555 1_555
O9B Sm2 1_555 1_555
O10B Sm2 1_555 1_555
O12_2 Sm2 1_555 1_555
O14_2 Sm1 1_555 1_555
O15C Sm2 1_555 1_555
P2 O6 1_555 1_555
P3 O13 1_555 1_555
C7 C8 1_555 1_555
C9 O2 1_555 1_555
C16 C17 1_555 1_555
C23 C24 1_555 1_555
C26 C27 1_555 1_555
O10 Sm2B 1_555 1_555
O15 Sm2C 1_555 1_555

#END
