
#######################################################################
#
#                 Cambridge Crystallographic Data Centre
#                                CCDC 
#
#######################################################################
#
# If this CIF has been generated from an entry in the Cambridge 
# Structural Database, then it will include bibliographic, chemical, 
# crystal, experimental, refinement or atomic coordinate data resulting 
# from the CCDC's data processing and validation procedures.
#
#######################################################################

data_QIRYAS
_chemical_formula_moiety         '(C14 H20 Co3 N2 O16)n'
_symmetry_cell_setting           triclinic
_symmetry_space_group_name_H-M   'P -1'
_symmetry_Int_Tables_number      2
_space_group_name_Hall           '-P 1'
loop_
_symmetry_equiv_pos_site_id
_symmetry_equiv_pos_as_xyz
1 x,y,z
2 -x,-y,-z
_cell_length_a                   11.1193(12)
_cell_length_b                   11.2473(12)
_cell_length_c                   11.3620(12)
_cell_angle_alpha                75.651(2)
_cell_angle_beta                 66.119(1)
_cell_angle_gamma                76.991(2)
_cell_volume                     1246.22
loop_
_atom_site_label
_atom_site_type_symbol
_atom_site_fract_x
_atom_site_fract_y
_atom_site_fract_z
Co1 Co 0.10894(6) 0.38861(5) 0.49877(5)
Co2 Co 0.02891(6) 0.56873(5) 0.71005(5)
Co3 Co 0.00083(6) 0.35774(5) 1.00891(5)
O1 O 0.0489(3) 0.3755(3) 0.7003(3)
O2 O -0.0353(3) 0.2540(3) 0.8957(3)
O3 O 0.0365(3) -0.2440(3) 0.6776(3)
O4 O -0.0393(3) -0.1916(3) 0.8764(3)
O5 O 0.1616(3) 0.4056(3) 0.3004(3)
O6 O 0.3232(3) 0.4352(4) 0.1038(3)
O7 O 0.7981(3) 0.3589(3) 0.1375(3)
O8 O 0.7748(3) 0.4580(3) 0.2972(3)
O9 O -0.0506(3) 0.5289(3) 0.9059(3)
H1 H -0.1268 0.5239 0.9219
O10 O -0.0817(3) 0.4257(3) 0.4903(3)
O11 O 0.2062(3) 0.3223(3) 0.8828(3)
N1 N 0.1048(4) 0.1967(3) 0.5707(4)
N2 N 0.3191(4) 0.3674(3) 0.4272(4)
C1 C 0.0150(5) 0.2735(4) 0.7734(4)
C2 C 0.0450(4) 0.1677(4) 0.7013(4)
C3 C 0.0147(5) 0.0502(4) 0.7649(4)
H2 H -0.0278 0.0325 0.8573
C4 C 0.0481(5) -0.0416(4) 0.6900(4)
C5 C 0.1145(5) -0.0126(4) 0.5558(5)
H3 H 0.1418 -0.0745 0.5030
C6 C 0.1403(5) 0.1072(4) 0.5000(4)
H4 H 0.1850 0.1267 0.4080
C7 C 0.0122(5) -0.1707(4) 0.7537(4)
C8 C 0.2818(5) 0.4138(4) 0.2244(5)
C9 C 0.3768(4) 0.3932(4) 0.2955(4)
C10 C 0.5103(5) 0.4026(4) 0.2311(5)
H5 H 0.5481 0.4196 0.1383
C11 C 0.5883(5) 0.3867(4) 0.3050(5)
C12 C 0.5297(5) 0.3596(5) 0.4407(5)
H6 H 0.5808 0.3489 0.4933
C13 C 0.3952(5) 0.3484(5) 0.4978(5)
H7 H 0.3560 0.3265 0.5902
C14 C 0.7330(5) 0.4022(4) 0.2404(4)
Co1A Co -0.10894(6) 0.61139(5) 0.50123(5)
Co2_2 Co 0.02891(6) -0.43127(5) 0.71005(5)
Co2A Co -0.02891(6) 0.43127(5) 0.28995(5)
Co2A_2 Co 0.97109(6) 0.43127(5) 0.28995(5)
Co3A Co -0.00083(6) -0.35774(5) 0.99109(5)
Co3_2 Co 1.00083(6) 0.35774(5) 0.00891(5)
Co3A_2 Co -0.00083(6) 0.64226(5) 0.99109(5)
O3_2 O 0.0365(3) 0.7560(3) 0.6776(3)
O4A O 0.0393(3) 0.1916(3) 1.1236(3)
O5A O -0.1616(3) 0.5944(3) 0.6996(3)
O7_2 O -0.2019(3) 0.3589(3) 1.1375(3)
O8A O 0.2252(3) 0.5420(3) 0.7028(3)
O9A O 0.0506(3) 0.4711(3) 1.0941(3)
H1A H 0.1268 0.4761 1.0781
O10A O 0.0817(3) 0.5743(3) 0.5097(3)
O12 O -0.2672(7) 0.1543(7) 1.0731(7)
O13 O -0.3152(9) -0.1037(8) 1.2053(9)
O14 O 0.5232(9) 0.2598(10) -0.0360(10)
O16 O 0.3091(9) 0.1072(12) 0.1397(14)
O18 O 0.5798(14) 0.1255(16) -0.2468(14)
loop_
_geom_bond_atom_site_label_1
_geom_bond_atom_site_label_2
_geom_bond_site_symmetry_1
_geom_bond_site_symmetry_2
Co1 O1 1_555 1_555
Co2 O1 1_555 1_555
Co3 O2 1_555 1_555
O1 C1 1_555 1_555
O2 C1 1_555 1_555
O3 C7 1_555 1_555
O4 C7 1_555 1_555
O5 Co1 1_555 1_555
O6 C8 1_555 1_555
O7 C14 1_555 1_555
O8 C14 1_555 1_555
O9 Co2 1_555 1_555
H1 O9 1_555 1_555
O10 Co1 1_555 1_555
O11 Co3 1_555 1_555
N1 Co1 1_555 1_555
N2 Co1 1_555 1_555
C1 C2 1_555 1_555
C2 N1 1_555 1_555
C3 C2 1_555 1_555
H2 C3 1_555 1_555
C4 C3 1_555 1_555
C5 C4 1_555 1_555
H3 C5 1_555 1_555
C6 N1 1_555 1_555
H4 C6 1_555 1_555
C7 C4 1_555 1_555
C8 O5 1_555 1_555
C9 N2 1_555 1_555
C10 C9 1_555 1_555
H5 C10 1_555 1_555
C11 C10 1_555 1_555
C12 C11 1_555 1_555
H6 C12 1_555 1_555
C13 N2 1_555 1_555
H7 C13 1_555 1_555
C14 C11 1_555 1_555
Co1A O10 1_555 1_555
Co2_2 O3 1_555 1_555
Co2A O5 1_555 1_555
Co2A_2 O8 1_555 1_555
Co3A O4 1_555 1_555
Co3_2 O7 1_555 1_555
Co3A_2 O9 1_555 1_555
O3_2 Co2 1_555 1_555
O4A Co3 1_555 1_555
O5A Co2 1_555 1_555
O7_2 Co3 1_555 1_555
O8A Co2 1_555 1_555
O9A Co3 1_555 1_555
H1A O9A 1_555 1_555
O10A Co1 1_555 1_555
Co2 O10A 1_555 1_555
Co3 O9 1_555 1_555
O10 Co2A 1_555 1_555
C5 C6 1_555 1_555
C8 C9 1_555 1_555
C12 C13 1_555 1_555
Co1A O5A 1_555 1_555
Co1A O10A 1_555 1_555
Co3A_2 O9A 1_555 1_555

#END
