
#######################################################################
#
#                 Cambridge Crystallographic Data Centre
#                                CCDC 
#
#######################################################################
#
# If this CIF has been generated from an entry in the Cambridge 
# Structural Database, then it will include bibliographic, chemical, 
# crystal, experimental, refinement or atomic coordinate data resulting 
# from the CCDC's data processing and validation procedures.
#
#######################################################################

data_KUTKUH
_chemical_formula_moiety         'C97 H70 Cd4 N12 O26'
_symmetry_cell_setting           monoclinic
_symmetry_space_group_name_H-M   'C 2/c'
_symmetry_Int_Tables_number      15
_space_group_name_Hall           '-C 2yc'
loop_
_symmetry_equiv_pos_site_id
_symmetry_equiv_pos_as_xyz
1 x,y,z
2 -x,y,1/2-z
3 1/2+x,1/2+y,z
4 1/2-x,1/2+y,1/2-z
5 -x,-y,-z
6 x,-y,1/2+z
7 1/2-x,1/2-y,-z
8 1/2+x,1/2-y,1/2+z
_cell_length_a                   15.456(2)
_cell_length_b                   33.898(4)
_cell_length_c                   17.976(4)
_cell_angle_alpha                90
_cell_angle_beta                 96.038(18)
_cell_angle_gamma                90
_cell_volume                     9365.87
loop_
_atom_site_label
_atom_site_type_symbol
_atom_site_fract_x
_atom_site_fract_y
_atom_site_fract_z
O10 O 0.5000 0.2087(6) 0.7500
O11 O 0.0000 0.3252(9) 0.7500
O12 O 0.5000 0.5373(4) 0.7500
C1 C 0.6950(18) 0.1451(3) 0.6520(16)
C2 C 0.6681(14) 0.1067(4) 0.6170(11)
C3 C 0.6772(12) 0.0909(5) 0.5469(11)
C4 C 0.6580(14) 0.0514(5) 0.5325(13)
H1 H 0.6641 0.0409 0.4855
C5 C 0.6298(18) 0.0277(3) 0.5882(16)
C6 C 0.621(2) 0.0434(6) 0.6583(14)
H2 H 0.6019 0.0276 0.6956
C7 C 0.6399(18) 0.0829(6) 0.6727(10)
H3 H 0.6338 0.0935 0.7196
C8 C 0.8973(6) 0.2412(4) 0.6294(7)
C9 C 0.9845(5) 0.2465(3) 0.6021(6)
C10 C 1.0492(7) 0.2229(3) 0.6264(8)
H4 H 1.0413 0.2044 0.6633
C11 C 1.1296(8) 0.2253(4) 0.5973(11)
H5 H 1.1752 0.2091 0.6165
C12 C 1.1421(8) 0.2514(6) 0.5402(10)
C13 C 1.0744(11) 0.2767(5) 0.5172(8)
H6 H 1.0812 0.2955 0.4805
C14 C 0.9957(8) 0.2742(4) 0.5488(8)
H7 H 0.9506 0.2915 0.5333
C15 C 1.2209(7) 0.2553(7) 0.4998(11)
C16 C 0.5606(7) 0.2743(3) 0.6151(6)
H8 H 0.5299 0.2595 0.6472
C17 C 0.6600(6) 0.2922(3) 0.5503(5)
H9 H 0.7108 0.2937 0.5270
C18 C 0.5851(7) 0.3512(3) 0.4957(4)
H10 H 0.5364 0.3474 0.4577
H11 H 0.6369 0.3547 0.4703
C19 C 0.5699(6) 0.3878(2) 0.5385(4)
C20 C 0.6358(6) 0.4042(2) 0.5848(4)
C21 C 0.6287(6) 0.4399(2) 0.6240(4)
C22 C 0.5463(6) 0.4570(2) 0.6166(4)
H12 H 0.5376 0.4797 0.6441
C23 C 0.4777(6) 0.4421(2) 0.5709(4)
C24 C 0.4914(6) 0.4070(2) 0.5335(4)
C25 C 0.3891(6) 0.4605(2) 0.5648(4)
H13 H 0.3598 0.4533 0.5157
C26 C 0.3642(7) 0.3669(3) 0.5203(5)
H14 H 0.3926 0.3559 0.5664
H15 H 0.3451 0.3452 0.4874
C27 C 0.3370(5) 0.4414(2) 0.6241(4)
C28 C 0.3369(5) 0.4574(2) 0.6937(4)
H16 H 0.3656 0.4812 0.7046
C29 C 0.2950(5) 0.4389(2) 0.7483(4)
C30 C 0.2534(5) 0.4037(2) 0.7314(4)
C31 C 0.2507(5) 0.3871(3) 0.6618(4)
C32 C 0.2941(5) 0.4066(2) 0.6075(4)
C33 C 0.7023(6) 0.4569(3) 0.6724(4)
H17 H 0.7551 0.4477 0.6521
C34 C 0.2619(6) 0.3637(3) 0.8405(5)
H18 H 0.3149 0.3551 0.8209
H19 H 0.2303 0.3402 0.8527
N1 N 0.5952(5) 0.3169(2) 0.5409(4)
N2 N 0.5294(5) 0.3062(2) 0.5819(5)
N3 N 0.6414(5) 0.2645(2) 0.5989(4)
O1 O 0.701(3) 0.1659(7) 0.7135(15)
O2 O 0.714(4) 0.1664(11) 0.596(2)
O3 O 0.8392(5) 0.2655(3) 0.6089(5)
O4 O 0.8834(5) 0.2113(3) 0.6659(6)
O5 O 0.7152(4) 0.38510(18) 0.5928(3)
O6 O 0.4239(4) 0.39062(17) 0.4859(3)
O7 O 0.2893(4) 0.38998(18) 0.5366(3)
O8 O 0.2114(3) 0.38440(18) 0.7844(3)
Cd1 Cd 0.73753(4) 0.221215(18) 0.66190(4)
C35 C 0.1989(6) 0.3504(3) 0.6416(5)
H20 H 0.1415 0.3530 0.6585
H21 H 0.1916 0.3474 0.5877
C36 C 0.3344(7) 0.2720(3) 0.7014(6)
H22 H 0.3856 0.2575 0.7028
C37 C 0.2092(8) 0.2891(3) 0.7202(5)
H23 H 0.1541 0.2898 0.7365
N4 N 0.2409(5) 0.3159(2) 0.6750(4)
N5 N 0.3212(6) 0.3051(3) 0.6623(4)
N6 N 0.2686(6) 0.2617(2) 0.7379(4)
C38 C 0.592(4) -0.0133(9) 0.583(4)
C39 C 0.584(3) -0.0365(11) 0.522(3)
C40 C 0.5270(15) -0.0727(6) 0.5221(12)
C41 C 0.4451(17) -0.0816(6) 0.5427(11)
H24 H 0.4235 -0.0680 0.5816
C42 C 0.4275(11) -0.1315(4) 0.4468(10)
C43 C 0.5094(12) -0.1225(4) 0.4263(12)
H25 H 0.5310 -0.1362 0.3873
C44 C 0.5592(9) -0.0932(5) 0.4639(15)
H26 H 0.6141 -0.0872 0.4501
C45 C 0.3953(12) -0.1110(5) 0.5050(12)
C46 C 0.7060(7) 0.5016(3) 0.6704(5)
H27 H 0.7554 0.5106 0.7028
H28 H 0.6538 0.5123 0.6870
H29 H 0.7112 0.5102 0.6202
C47 C 0.3765(15) -0.1652(5) 0.4095(13)
O9 O 0.4011(10) -0.1820(4) 0.3542(9)
C48 C 0.3907(6) 0.5059(2) 0.5688(5)
H30 H 0.3322 0.5157 0.5652
H31 H 0.4196 0.5161 0.5282
H32 H 0.4214 0.5140 0.6154
C1D C 0.3050(18) -0.1451(3) 0.3480(16)
C2D C 0.3319(14) -0.1067(4) 0.3830(11)
C3D C 0.3228(12) -0.0909(5) 0.4531(11)
C4D C 0.3420(14) -0.0514(5) 0.4675(13)
H1D H 0.3359 -0.0409 0.5145
C5D C 0.3702(18) -0.0277(3) 0.4118(16)
C6D C 0.379(2) -0.0434(6) 0.3417(14)
H2D H 0.3981 -0.0276 0.3044
C7D C 0.3601(18) -0.0829(6) 0.3273(10)
H3D H 0.3662 -0.0935 0.2804
O1D O 0.299(3) -0.1659(7) 0.2865(15)
O2D O 0.286(4) -0.1664(11) 0.404(2)
C38D C 0.408(4) 0.0133(9) 0.417(4)
C39D C 0.416(3) 0.0365(11) 0.478(3)
C40D C 0.4730(15) 0.0727(6) 0.4779(12)
C41D C 0.5549(17) 0.0816(6) 0.4573(11)
H24D H 0.5765 0.0680 0.4184
C42D C 0.5725(11) 0.1315(4) 0.5532(10)
C43D C 0.4906(12) 0.1225(4) 0.5737(12)
H25D H 0.4690 0.1362 0.6127
C44D C 0.4408(9) 0.0932(5) 0.5361(15)
H26D H 0.3859 0.0872 0.5499
C45D C 0.6047(12) 0.1110(5) 0.4950(12)
C47D C 0.6235(15) 0.1652(5) 0.5905(13)
O9D O 0.5989(10) 0.1820(4) 0.6458(9)
C8F C 1.6027(6) 0.2588(4) 0.3706(7)
C9F C 1.5155(5) 0.2535(3) 0.3979(6)
C10F C 1.4508(7) 0.2771(3) 0.3736(8)
H4F H 1.4587 0.2956 0.3367
C11F C 1.3704(8) 0.2747(4) 0.4027(11)
H5F H 1.3248 0.2909 0.3835
C12F C 1.3579(8) 0.2486(6) 0.4598(10)
C13F C 1.4256(11) 0.2233(5) 0.4828(8)
H6F H 1.4188 0.2045 0.5195
C14F C 1.5043(8) 0.2258(4) 0.4512(8)
H7F H 1.5494 0.2085 0.4667
C15F C 1.2791(7) 0.2447(7) 0.5002(11)
O3F O 1.6608(5) 0.2345(3) 0.3911(5)
O4F O 1.6166(5) 0.2887(3) 0.3341(6)
C16A C 0.4394(7) 0.2743(3) 0.8849(6)
H8A H 0.4701 0.2595 0.8528
C17A C 0.3400(6) 0.2922(3) 0.9497(5)
H9A H 0.2892 0.2937 0.9730
C18A C 0.4149(7) 0.3512(3) 1.0043(4)
H10A H 0.4636 0.3474 1.0423
H11A H 0.3631 0.3547 1.0297
C19A C 0.4301(6) 0.3878(2) 0.9615(4)
C20A C 0.3642(6) 0.4042(2) 0.9152(4)
C21A C 0.3713(6) 0.4399(2) 0.8760(4)
C22A C 0.4537(6) 0.4570(2) 0.8834(4)
H12A H 0.4624 0.4797 0.8559
C23A C 0.5223(6) 0.4421(2) 0.9291(4)
C24A C 0.5086(6) 0.4070(2) 0.9665(4)
C25A C 0.6109(6) 0.4605(2) 0.9352(4)
H13A H 0.6402 0.4533 0.9843
C26A C 0.6358(7) 0.3669(3) 0.9797(5)
H14A H 0.6074 0.3559 0.9336
H15A H 0.6549 0.3452 1.0126
C27A C 0.6630(5) 0.4414(2) 0.8759(4)
C28A C 0.6631(5) 0.4574(2) 0.8063(4)
H16A H 0.6344 0.4812 0.7954
C29A C 0.7050(5) 0.4389(2) 0.7517(4)
C30A C 0.7466(5) 0.4037(2) 0.7686(4)
C31A C 0.7493(5) 0.3871(3) 0.8382(4)
C32A C 0.7059(5) 0.4066(2) 0.8925(4)
C33A C 0.2977(6) 0.4569(3) 0.8276(4)
H17A H 0.2449 0.4477 0.8479
C34A C 0.7381(6) 0.3637(3) 0.6595(5)
H18A H 0.6851 0.3551 0.6791
H19A H 0.7697 0.3402 0.6473
N1A N 0.4048(5) 0.3169(2) 0.9591(4)
N2A N 0.4706(5) 0.3062(2) 0.9181(5)
N3A N 0.3586(5) 0.2645(2) 0.9011(4)
O5A O 0.2848(4) 0.38510(18) 0.9072(3)
O6A O 0.5761(4) 0.39062(17) 1.0141(3)
O7A O 0.7107(4) 0.38998(18) 0.9634(3)
O8A O 0.7886(3) 0.38440(18) 0.7156(3)
C35A C 0.8011(6) 0.3504(3) 0.8584(5)
H20A H 0.8585 0.3530 0.8415
H21A H 0.8084 0.3474 0.9123
C36A C 0.6656(7) 0.2720(3) 0.7986(6)
H22A H 0.6144 0.2575 0.7972
C37A C 0.7908(8) 0.2891(3) 0.7798(5)
H23A H 0.8459 0.2898 0.7635
N4A N 0.7591(5) 0.3159(2) 0.8250(4)
N5A N 0.6788(6) 0.3051(3) 0.8377(4)
N6A N 0.7314(6) 0.2617(2) 0.7621(4)
C46A C 0.2940(7) 0.5016(3) 0.8296(5)
H27A H 0.2446 0.5106 0.7972
H28A H 0.3462 0.5123 0.8130
H29A H 0.2888 0.5102 0.8798
C48A C 0.6093(6) 0.5059(2) 0.9312(5)
H30A H 0.6678 0.5157 0.9348
H31A H 0.5804 0.5161 0.9718
H32A H 0.5786 0.5140 0.8846
Cd1A Cd 0.26247(4) 0.221215(18) 0.83810(4)
O1A O 0.299(3) 0.1659(7) 0.7865(15)
O2A O 0.286(4) 0.1664(11) 0.904(2)
O3A O 0.1608(5) 0.2655(3) 0.8911(5)
O4A O 0.1166(5) 0.2113(3) 0.8341(6)
Cd1D Cd 0.26247(4) -0.221215(18) 0.33810(4)
Cd1F Cd 1.76247(4) 0.278785(18) 0.33810(4)
C47E C 0.3765(15) 0.1652(5) 0.9095(13)
O9E O 0.4011(10) 0.1820(4) 0.8542(9)
loop_
_geom_bond_atom_site_label_1
_geom_bond_atom_site_label_2
_geom_bond_site_symmetry_1
_geom_bond_site_symmetry_2
C1 C2 1_555 1_555
C2 C3 1_555 1_555
C3 C4 1_555 1_555
C4 H1 1_555 1_555
C5 C4 1_555 1_555
C6 C5 1_555 1_555
H2 C6 1_555 1_555
C7 C2 1_555 1_555
H3 C7 1_555 1_555
C8 C9 1_555 1_555
C9 C10 1_555 1_555
C10 H4 1_555 1_555
C11 C10 1_555 1_555
H5 C11 1_555 1_555
C12 C11 1_555 1_555
C13 C12 1_555 1_555
H6 C13 1_555 1_555
C14 C9 1_555 1_555
H7 C14 1_555 1_555
C15 C12 1_555 1_555
C16 H8 1_555 1_555
C17 H9 1_555 1_555
C18 H10 1_555 1_555
H11 C18 1_555 1_555
C19 C18 1_555 1_555
C20 C19 1_555 1_555
C21 C20 1_555 1_555
C22 C21 1_555 1_555
H12 C22 1_555 1_555
C23 C22 1_555 1_555
C24 C19 1_555 1_555
C25 C23 1_555 1_555
H13 C25 1_555 1_555
C26 H14 1_555 1_555
H15 C26 1_555 1_555
C27 C25 1_555 1_555
C28 C27 1_555 1_555
H16 C28 1_555 1_555
C29 C28 1_555 1_555
C30 C29 1_555 1_555
C31 C30 1_555 1_555
C32 C27 1_555 1_555
C33 C21 1_555 1_555
H17 C33 1_555 1_555
C34 H18 1_555 1_555
H19 C34 1_555 1_555
N1 C17 1_555 1_555
N2 C16 1_555 1_555
N3 C16 1_555 1_555
O1 C1 1_555 1_555
O2 C1 1_555 1_555
O3 C8 1_555 1_555
O4 C8 1_555 1_555
O5 C20 1_555 1_555
O6 C24 1_555 1_555
O7 C26 1_555 1_555
O8 C30 1_555 1_555
Cd1 N3 1_555 1_555
C35 C31 1_555 1_555
H20 C35 1_555 1_555
H21 C35 1_555 1_555
C36 H22 1_555 1_555
C37 H23 1_555 1_555
N4 C35 1_555 1_555
N5 C36 1_555 1_555
N6 C36 1_555 1_555
C38 C5 1_555 1_555
C39 C38 1_555 1_555
C40 C39 1_555 1_555
C41 C40 1_555 1_555
H24 C41 1_555 1_555
C42 C43 1_555 1_555
C43 H25 1_555 1_555
C44 C40 1_555 1_555
H26 C44 1_555 1_555
C45 C41 1_555 1_555
C46 C33 1_555 1_555
H27 C46 1_555 1_555
H28 C46 1_555 1_555
H29 C46 1_555 1_555
C47 C42 1_555 1_555
O9 C47 1_555 1_555
C48 C25 1_555 1_555
H30 C48 1_555 1_555
H31 C48 1_555 1_555
H32 C48 1_555 1_555
C1D C47 1_555 1_555
C2D C1D 1_555 1_555
C3D C45 1_555 1_555
C4D C3D 1_555 1_555
H1D C4D 1_555 1_555
C5D C4D 1_555 1_555
C6D C5D 1_555 1_555
H2D C6D 1_555 1_555
C7D C2D 1_555 1_555
H3D C7D 1_555 1_555
O1D C1D 1_555 1_555
O2D C47 1_555 1_555
C38D C5D 1_555 1_555
C39D C38D 1_555 1_555
C40D C39D 1_555 1_555
C41D C40D 1_555 1_555
H24D C41D 1_555 1_555
C42D C43D 1_555 1_555
C43D H25D 1_555 1_555
C44D C40D 1_555 1_555
H26D C44D 1_555 1_555
C45D C3 1_555 1_555
C47D C1 1_555 1_555
O9D Cd1 1_555 1_555
C8F C9F 1_555 1_555
C9F C10F 1_555 1_555
C10F H4F 1_555 1_555
C11F C10F 1_555 1_555
H5F C11F 1_555 1_555
C12F C11F 1_555 1_555
C13F C12F 1_555 1_555
H6F C13F 1_555 1_555
C14F C9F 1_555 1_555
H7F C14F 1_555 1_555
C15F C15 1_555 1_555
O3F C8F 1_555 1_555
O4F C8F 1_555 1_555
C16A H8A 1_555 1_555
C17A H9A 1_555 1_555
C18A H10A 1_555 1_555
H11A C18A 1_555 1_555
C19A C18A 1_555 1_555
C20A C19A 1_555 1_555
C21A C20A 1_555 1_555
C22A C21A 1_555 1_555
H12A C22A 1_555 1_555
C23A C22A 1_555 1_555
C24A C19A 1_555 1_555
C25A C23A 1_555 1_555
H13A C25A 1_555 1_555
C26A H14A 1_555 1_555
H15A C26A 1_555 1_555
C27A C25A 1_555 1_555
C28A C27A 1_555 1_555
H16A C28A 1_555 1_555
C29A C33 1_555 1_555
C30A C29A 1_555 1_555
C31A C30A 1_555 1_555
C32A C27A 1_555 1_555
C33A C29 1_555 1_555
H17A C33A 1_555 1_555
C34A O5 1_555 1_555
H18A C34A 1_555 1_555
H19A C34A 1_555 1_555
N1A C17A 1_555 1_555
N2A C16A 1_555 1_555
N3A C16A 1_555 1_555
O5A C34 1_555 1_555
O6A C24A 1_555 1_555
O7A C26A 1_555 1_555
O8A C30A 1_555 1_555
C35A C31A 1_555 1_555
H20A C35A 1_555 1_555
H21A C35A 1_555 1_555
C36A H22A 1_555 1_555
C37A H23A 1_555 1_555
N4A C35A 1_555 1_555
N5A C36A 1_555 1_555
N6A Cd1 1_555 1_555
C46A C33A 1_555 1_555
H27A C46A 1_555 1_555
H28A C46A 1_555 1_555
H29A C46A 1_555 1_555
C48A C25A 1_555 1_555
H30A C48A 1_555 1_555
H31A C48A 1_555 1_555
H32A C48A 1_555 1_555
Cd1A N6 1_555 1_555
O1A Cd1A 1_555 1_555
O2A Cd1A 1_555 1_555
O3A Cd1A 1_555 1_555
O4A Cd1A 1_555 1_555
Cd1D C47 1_555 1_555
Cd1F O3F 1_555 1_555
C47E Cd1A 1_555 1_555
O9E Cd1A 1_555 1_555
C6 C7 1_555 1_555
C13 C14 1_555 1_555
C17 N3 1_555 1_555
C18 N1 1_555 1_555
C23 C24 1_555 1_555
C26 O6 1_555 1_555
C31 C32 1_555 1_555
C32 O7 1_555 1_555
C34 O8 1_555 1_555
N1 N2 1_555 1_555
O1 Cd1 1_555 1_555
O2 Cd1 1_555 1_555
O2 C47D 1_555 1_555
O3 Cd1 1_555 1_555
O4 Cd1 1_555 1_555
Cd1 C47D 1_555 1_555
C37 N4 1_555 1_555
C37 N6 1_555 1_555
N4 N5 1_555 1_555
C42 C45 1_555 1_555
C43 C44 1_555 1_555
O9 Cd1D 1_555 1_555
C1D O2D 1_555 1_555
C2D C3D 1_555 1_555
C6D C7D 1_555 1_555
O1D Cd1D 1_555 1_555
O2D Cd1D 1_555 1_555
C41D C45D 1_555 1_555
C42D C45D 1_555 1_555
C42D C47D 1_555 1_555
C43D C44D 1_555 1_555
C47D O9D 1_555 1_555
C12F C15F 1_555 1_555
C13F C14F 1_555 1_555
O4F Cd1F 1_555 1_555
C17A N3A 1_555 1_555
C18A N1A 1_555 1_555
C20A O5A 1_555 1_555
C21A C33A 1_555 1_555
C23A C24A 1_555 1_555
C26A O6A 1_555 1_555
C28A C29A 1_555 1_555
C31A C32A 1_555 1_555
C32A O7A 1_555 1_555
C34A O8A 1_555 1_555
N1A N2A 1_555 1_555
N3A Cd1A 1_555 1_555
C36A N6A 1_555 1_555
C37A N4A 1_555 1_555
C37A N6A 1_555 1_555
N4A N5A 1_555 1_555
O2A C47E 1_555 1_555
C47E O9E 1_555 1_555

#END
