
#######################################################################
#
#                 Cambridge Crystallographic Data Centre
#                                CCDC 
#
#######################################################################
#
# If this CIF has been generated from an entry in the Cambridge 
# Structural Database, then it will include bibliographic, chemical, 
# crystal, experimental, refinement or atomic coordinate data resulting 
# from the CCDC's data processing and validation procedures.
#
#######################################################################

data_DOQRUW
_chemical_formula_moiety         '(C38 H32 Mn2 N6 O10)n'
_symmetry_cell_setting           monoclinic
_symmetry_space_group_name_H-M   'P 21/c'
_symmetry_Int_Tables_number      14
_space_group_name_Hall           '-P 2ybc'
loop_
_symmetry_equiv_pos_site_id
_symmetry_equiv_pos_as_xyz
1 x,y,z
2 x,1/2-y,1/2+z
3 -x,-y,-z
4 -x,1/2+y,1/2-z
_cell_length_a                   11.6612(14)
_cell_length_b                   8.6480(10)
_cell_length_c                   18.493(2)
_cell_angle_alpha                90
_cell_angle_beta                 102.037(2)
_cell_angle_gamma                90
_cell_volume                     1823.94
loop_
_atom_site_label
_atom_site_type_symbol
_atom_site_fract_x
_atom_site_fract_y
_atom_site_fract_z
Mn1 Mn 0.05837(4) 0.20622(6) 0.83420(3)
O1 O 0.09134(19) 0.1975(3) 0.95399(13)
O2 O 0.1541(2) 0.4344(3) 0.99109(14)
O3 O 0.02423(19) 0.2704(3) 1.21411(12)
O4 O -0.05279(19) 0.0374(3) 1.18785(12)
O5 O 0.0765(3) 0.4563(3) 0.84799(16)
N1 N 0.2531(2) 0.1966(4) 0.83188(16)
N2 N 0.8631(2) 0.2011(4) 0.83384(16)
C1 C 0.1137(3) 0.3041(5) 1.0020(2)
C2 C 0.0904(3) 0.2758(5) 1.07688(19)
C3 C 0.0234(3) 0.1670(4) 1.0956(2)
C4 C -0.0035(3) 0.1572(4) 1.17108(19)
C5 C 0.3273(3) 0.2924(5) 0.8731(2)
C6 C 0.4453(3) 0.2975(5) 0.8739(2)
C7 C 0.4935(3) 0.1985(4) 0.83042(19)
C8 C 0.4160(3) 0.0995(5) 0.7861(3)
C9 C 0.2988(3) 0.1013(5) 0.7889(2)
C10 C 0.8174(3) 0.2865(5) 0.8807(2)
C11 C 0.7001(3) 0.2902(5) 0.8807(2)
C12 C 0.6214(3) 0.1992(4) 0.83169(19)
C13 C 0.6704(3) 0.1093(5) 0.7843(2)
C14 C 0.7893(3) 0.1131(5) 0.7867(2)
H1 H 0.102(3) 0.468(4) 0.900(2)
H2 H 0.039(3) 0.523(5) 0.826(2)
H3 H 0.120(3) 0.349(5) 1.114(2)
H4 H -0.017(3) 0.092(5) 1.063(2)
H5 H 0.297(3) 0.362(4) 0.9038(18)
H6 H 0.491(2) 0.362(4) 0.9024(16)
H7 H 0.436(3) 0.030(4) 0.757(2)
H8 H 0.248(3) 0.033(4) 0.760(2)
H9 H 0.872(3) 0.350(4) 0.922(2)
H10 H 0.675(3) 0.355(4) 0.9164(19)
H11 H 0.628(3) 0.050(4) 0.7504(19)
H12 H 0.825(3) 0.053(4) 0.752(2)
O3A O 0.02423(19) 0.2296(3) 0.71411(12)
O1B O -0.09134(19) -0.1975(3) 1.04601(13)
O2B O -0.1541(2) -0.4344(3) 1.00891(14)
O3B O -0.02423(19) -0.2704(3) 0.78589(12)
O4B O 0.05279(19) -0.0374(3) 0.81215(12)
C1B C -0.1137(3) -0.3041(5) 0.9980(2)
C2B C -0.0904(3) -0.2758(5) 0.92312(19)
C3B C -0.0234(3) -0.1670(4) 0.9044(2)
C4B C 0.0035(3) -0.1572(4) 0.82892(19)
H3B H -0.120(3) -0.349(5) 0.886(2)
H4B H 0.017(3) -0.092(5) 0.937(2)
N1_2 N -0.7469(2) 0.1966(4) 0.83188(16)
N2_2 N -0.1369(2) 0.2011(4) 0.83384(16)
C5_2 C -0.6727(3) 0.2924(5) 0.8731(2)
C6_2 C -0.5547(3) 0.2975(5) 0.8739(2)
C7_2 C -0.5065(3) 0.1985(4) 0.83042(19)
C8_2 C -0.5840(3) 0.0995(5) 0.7861(3)
C9_2 C -0.7012(3) 0.1013(5) 0.7889(2)
C10_2 C -0.1826(3) 0.2865(5) 0.8807(2)
C11_2 C -0.2999(3) 0.2902(5) 0.8807(2)
C12_2 C -0.3786(3) 0.1992(4) 0.83169(19)
C13_2 C -0.3296(3) 0.1093(5) 0.7843(2)
C14_2 C -0.2107(3) 0.1131(5) 0.7867(2)
H5_2 H -0.703(3) 0.362(4) 0.9038(18)
H6_2 H -0.509(2) 0.362(4) 0.9024(16)
H7_2 H -0.564(3) 0.030(4) 0.757(2)
H8_2 H -0.752(3) 0.033(4) 0.760(2)
H9_2 H -0.128(3) 0.350(4) 0.922(2)
H10_2 H -0.325(3) 0.355(4) 0.9164(19)
H11_2 H -0.372(3) 0.050(4) 0.7504(19)
H12_2 H -0.175(3) 0.053(4) 0.752(2)
Mn1B Mn -0.05837(4) -0.20622(6) 1.16580(3)
Mn1A Mn 0.05837(4) 0.29378(6) 1.33420(3)
Mn1C Mn -0.05837(4) -0.29378(6) 0.66580(3)
Mn1_2 Mn -0.94163(4) 0.20622(6) 0.83420(3)
Mn1_3 Mn 1.05837(4) 0.20622(6) 0.83420(3)
O3C O -0.02423(19) -0.2296(3) 1.28589(12)
O5B O -0.0765(3) -0.4563(3) 1.15201(16)
H1B H -0.102(3) -0.468(4) 1.100(2)
H2B H -0.039(3) -0.523(5) 1.174(2)
N1B N -0.2531(2) -0.1966(4) 1.16812(16)
N2B N 0.1369(2) -0.2011(4) 1.16616(16)
N3 N 0.5233(6) 0.3252(6) 0.1182(3)
C15 C 0.6168(7) 0.2687(10) 0.0981(4)
C16 C 0.6150(6) 0.1372(8) 0.0516(3)
C17 C 0.5056(5) 0.0686(5) 0.0250(2)
C18 C 0.4093(6) 0.1309(7) 0.0488(3)
C19 C 0.4216(7) 0.2551(8) 0.0943(4)
H13 H 0.700(4) 0.303(6) 0.108(3)
H14 H 0.697(4) 0.102(6) 0.034(3)
H15 H 0.328(4) 0.072(6) 0.036(3)
H16 H 0.358(5) 0.327(8) 0.101(4)
C17B C 0.4944(5) -0.0686(5) -0.0250(2)
C16B C 0.3850(6) -0.1372(8) -0.0516(3)
C15B C 0.3832(7) -0.2687(10) -0.0981(4)
N3B N 0.4767(6) -0.3252(6) -0.1182(3)
C19B C 0.5784(7) -0.2551(8) -0.0943(4)
C18B C 0.5907(6) -0.1309(7) -0.0488(3)
H15B H 0.672(4) -0.072(6) -0.036(3)
H16B H 0.642(5) -0.327(8) -0.101(4)
H13B H 0.300(4) -0.303(6) -0.108(3)
H14B H 0.303(4) -0.102(6) -0.034(3)
loop_
_geom_bond_atom_site_label_1
_geom_bond_atom_site_label_2
_geom_bond_site_symmetry_1
_geom_bond_site_symmetry_2
Mn1 O1 1_555 1_555
O1 C1 1_555 1_555
O2 C1 1_555 1_555
O3 C4 1_555 1_555
O4 C4 1_555 1_555
O5 Mn1 1_555 1_555
N1 Mn1 1_555 1_555
N2 C10 1_555 1_555
N3 C15 1_555 1_555
C1 C2 1_555 1_555
C2 C3 1_555 1_555
C3 C4 1_555 1_555
C5 N1 1_555 1_555
C6 C5 1_555 1_555
C7 C6 1_555 1_555
C8 C7 1_555 1_555
C9 N1 1_555 1_555
C10 C11 1_555 1_555
C11 C12 1_555 1_555
C12 C7 1_555 1_555
C13 C12 1_555 1_555
C14 N2 1_555 1_555
C15 C16 1_555 1_555
C16 C17 1_555 1_555
C17 C18 1_555 1_555
C18 C19 1_555 1_555
C19 N3 1_555 1_555
H1 O5 1_555 1_555
H2 O5 1_555 1_555
H3 C2 1_555 1_555
H4 C3 1_555 1_555
H5 C5 1_555 1_555
H6 C6 1_555 1_555
H7 C8 1_555 1_555
H8 C9 1_555 1_555
H9 C10 1_555 1_555
H10 C11 1_555 1_555
H11 C13 1_555 1_555
H12 C14 1_555 1_555
H13 C15 1_555 1_555
H14 C16 1_555 1_555
H15 C18 1_555 1_555
H16 C19 1_555 1_555
C17B C17 1_555 1_555
C16B C17B 1_555 1_555
C15B C16B 1_555 1_555
N3B C15B 1_555 1_555
C19B N3B 1_555 1_555
C18B C17B 1_555 1_555
H15B C18B 1_555 1_555
H16B C19B 1_555 1_555
H13B C15B 1_555 1_555
H14B C16B 1_555 1_555
O3A Mn1 1_555 1_555
O1B C1B 1_555 1_555
O2B C1B 1_555 1_555
O3B C4B 1_555 1_555
O4B Mn1 1_555 1_555
C1B C2B 1_555 1_555
C2B C3B 1_555 1_555
C3B C4B 1_555 1_555
C4B O4B 1_555 1_555
H3B C2B 1_555 1_555
H4B C3B 1_555 1_555
N1_2 C5_2 1_555 1_555
N2_2 Mn1 1_555 1_555
C5_2 C6_2 1_555 1_555
C6_2 C7_2 1_555 1_555
C7_2 C8_2 1_555 1_555
C8_2 C9_2 1_555 1_555
C9_2 N1_2 1_555 1_555
C10_2 N2_2 1_555 1_555
C11_2 C10_2 1_555 1_555
C12_2 C7_2 1_555 1_555
C13_2 C12_2 1_555 1_555
C14_2 N2_2 1_555 1_555
H5_2 C5_2 1_555 1_555
H6_2 C6_2 1_555 1_555
H7_2 C8_2 1_555 1_555
H8_2 C9_2 1_555 1_555
H9_2 C10_2 1_555 1_555
H10_2 C11_2 1_555 1_555
H11_2 C13_2 1_555 1_555
H12_2 C14_2 1_555 1_555
Mn1B O4 1_555 1_555
Mn1A O3 1_555 1_555
Mn1C O3B 1_555 1_555
Mn1_2 N1_2 1_555 1_555
Mn1_3 N2 1_555 1_555
O3C Mn1B 1_555 1_555
O5B Mn1B 1_555 1_555
H1B O5B 1_555 1_555
H2B O5B 1_555 1_555
N1B Mn1B 1_555 1_555
N2B Mn1B 1_555 1_555
C8 C9 1_555 1_555
C13 C14 1_555 1_555
C19B C18B 1_555 1_555
O1B Mn1B 1_555 1_555
C11_2 C12_2 1_555 1_555
C13_2 C14_2 1_555 1_555

#END
