
#######################################################################
#
#                 Cambridge Crystallographic Data Centre
#                                CCDC 
#
#######################################################################
#
# If this CIF has been generated from an entry in the Cambridge 
# Structural Database, then it will include bibliographic, chemical, 
# crystal, experimental, refinement or atomic coordinate data resulting 
# from the CCDC's data processing and validation procedures.
#
#######################################################################

data_BUTPIR
_chemical_formula_moiety         '(C66 H74 N4 O16 Zn4)n'
_symmetry_cell_setting           orthorhombic
_symmetry_space_group_name_H-M   'I 2 2 2'
_symmetry_Int_Tables_number      23
_space_group_name_Hall           'I 2 2'
loop_
_symmetry_equiv_pos_site_id
_symmetry_equiv_pos_as_xyz
1 x,y,z
2 -x,-y,z
3 -x,y,-z
4 x,-y,-z
5 1/2+x,1/2+y,1/2+z
6 1/2-x,1/2-y,1/2+z
7 1/2-x,1/2+y,1/2-z
8 1/2+x,1/2-y,1/2-z
_cell_length_a                   18.4486(11)
_cell_length_b                   19.2044(12)
_cell_length_c                   31.3758(18)
_cell_angle_alpha                90
_cell_angle_beta                 90
_cell_angle_gamma                90
_cell_volume                     11116.3
loop_
_atom_site_label
_atom_site_type_symbol
_atom_site_fract_x
_atom_site_fract_y
_atom_site_fract_z
Zn1 Zn 0.22487(3) 0.76158(4) 0.70747(2)
Zn2 Zn 0.26579(3) 0.75939(4) 0.79606(2)
O1 O 0.3466(3) 0.8096(3) 0.76285(15)
O2 O 0.3155(3) 0.3512(3) 0.76820(14)
O3 O 0.6477(3) 0.7914(3) 0.75772(16)
N1 N 0.1738(3) 0.7460(3) 0.35128(13)
N2 N 0.1662(3) 0.7621(3) 0.65269(13)
O4 O 0.2855(3) 0.3510(3) 0.70076(14)
O5 O 0.3010(3) 0.6680(3) 0.77111(15)
O6 O 0.2759(3) 0.6711(3) 0.70177(14)
O7 O 0.6707(3) 0.7883(3) 0.68707(15)
O8 O 0.3187(3) 0.8093(3) 0.69340(14)
C1 C 0.3463(4) 0.5761(4) 0.7280(3)
H1 H 0.3765 0.5823 0.7026
C2 C 0.4319(3) 0.8570(5) 0.7128(3)
H2 H 0.4255 0.8854 0.6871
C3 C 0.3604(3) 0.8220(4) 0.7241(2)
C4 C 0.0372(3) 0.7565(5) 0.53958(14)
C5 C 0.3036(4) 0.6433(4) 0.7338(2)
C6 C 0.6335(4) 0.8066(4) 0.7195(2)
C7 C 0.0852(3) 0.7537(5) 0.42219(15)
C8 C 0.0397(3) 0.7580(5) 0.46161(14)
C9 C 0.3138(4) 0.3773(4) 0.7321(2)
C10 C 0.0795(3) 0.7606(5) 0.57955(15)
C11 C 0.5626(3) 0.8495(4) 0.7108(2)
C12 C 0.3527(4) 0.4498(4) 0.7271(2)
C13 C 0.0747(3) 0.7585(4) 0.50061(14)
H3 H 0.1250 0.7602 0.5010
C14 C 0.4958(4) 0.7425(4) 0.7359(4)
H4 H 0.5004 0.7608 0.7643
H5 H 0.4511 0.7171 0.7335
H6 H 0.5357 0.7120 0.7300
C15 C 0.2958(4) 0.5122(4) 0.7191(3)
C16 C 0.2337(4) 0.5103(5) 0.7505(2)
H7 H 0.2034 0.4708 0.7445
H8 H 0.2525 0.5066 0.7789
H9 H 0.2057 0.5522 0.7480
C17 C 0.1362(4) 0.7146(5) 0.58460(18)
H10 H 0.1471 0.6827 0.5633
C18 C 0.1821(4) 0.7959(4) 0.37935(19)
H11 H 0.2188 0.8284 0.3752
C19 C 0.4959(4) 0.8009(5) 0.7047(3)
C20 C 0.1769(4) 0.7164(4) 0.62195(19)
H12 H 0.2136 0.6837 0.6254
C21 C 0.1385(4) 0.8021(5) 0.41491(19)
H13 H 0.1452 0.8389 0.4338
C22 C 0.0783(4) 0.7030(5) 0.3936(2)
H14 H 0.0423 0.6696 0.3975
C23 C 0.3963(6) 0.5571(5) 0.7639(3)
H15 H 0.3804 0.5779 0.7905
H16 H 0.4455 0.5722 0.7580
C24 C 0.0673(4) 0.8068(5) 0.61185(18)
H17 H 0.0290 0.8382 0.6097
C25 C 0.3914(5) 0.4752(5) 0.7659(3)
H18 H 0.4397 0.4553 0.7670
H19 H 0.3653 0.4610 0.7913
C26 C 0.5444(5) 0.8938(6) 0.7527(3)
H20 H 0.5575 0.8687 0.7784
H21 H 0.5689 0.9385 0.7525
C27 C 0.4605(5) 0.9023(5) 0.7486(3)
H22 H 0.4375 0.8892 0.7752
H23 H 0.4488 0.9507 0.7429
C28 C 0.4040(5) 0.4445(5) 0.6878(3)
H24 H 0.3771 0.4280 0.6636
H25 H 0.4238 0.4896 0.6815
H26 H 0.4427 0.4126 0.6939
C29 C 0.2640(6) 0.5105(5) 0.6729(3)
H27 H 0.3030 0.5117 0.6526
H28 H 0.2364 0.4685 0.6690
H29 H 0.2331 0.5501 0.6686
C30 C 0.5770(5) 0.8973(7) 0.6722(4)
H30 H 0.6186 0.9258 0.6779
H31 H 0.5858 0.8693 0.6474
H32 H 0.5355 0.9264 0.6674
C31 C 0.4888(5) 0.7731(7) 0.6611(3)
H33 H 0.4889 0.8109 0.6410
H34 H 0.5288 0.7426 0.6552
H35 H 0.4442 0.7477 0.6587
C32 C 0.1221(4) 0.6984(5) 0.3591(2)
H36 H 0.1162 0.6614 0.3403
C33 C 0.1109(4) 0.8074(5) 0.6475(2)
H37 H 0.1020 0.8401 0.6688
N1B N -0.1738(3) 0.7460(3) 0.64872(13)
N2B N -0.1662(3) 0.7621(3) 0.34731(13)
C4B C -0.0372(3) 0.7565(5) 0.46042(14)
C7B C -0.0852(3) 0.7537(5) 0.57781(15)
C8B C -0.0397(3) 0.7580(5) 0.53839(14)
C10B C -0.0795(3) 0.7606(5) 0.42045(15)
C13B C -0.0747(3) 0.7585(4) 0.49939(14)
H3B H -0.1250 0.7602 0.4990
C17B C -0.1362(4) 0.7146(5) 0.41540(18)
H10B H -0.1471 0.6827 0.4367
C18B C -0.1821(4) 0.7959(4) 0.62065(19)
H11B H -0.2188 0.8284 0.6248
C20B C -0.1769(4) 0.7164(4) 0.37805(19)
H12B H -0.2136 0.6837 0.3746
C21B C -0.1385(4) 0.8021(5) 0.58509(19)
H13B H -0.1452 0.8389 0.5662
C22B C -0.0783(4) 0.7030(5) 0.6064(2)
H14B H -0.0423 0.6696 0.6025
C24B C -0.0673(4) 0.8068(5) 0.38815(18)
H17B H -0.0290 0.8382 0.3903
C32B C -0.1221(4) 0.6984(5) 0.6409(2)
H36B H -0.1162 0.6614 0.6597
C33B C -0.1109(4) 0.8074(5) 0.3525(2)
H37B H -0.1020 0.8401 0.3312
Zn1B Zn -0.22487(3) 0.76158(4) 0.29253(2)
Zn2B Zn -0.26579(3) 0.75939(4) 0.20394(2)
O1B O -0.3466(3) 0.8096(3) 0.23715(15)
O2B O -0.3155(3) 0.3512(3) 0.23180(14)
O3B O -0.6477(3) 0.7914(3) 0.24228(16)
O4B O -0.2855(3) 0.3510(3) 0.29924(14)
O5B O -0.3010(3) 0.6680(3) 0.22889(15)
O6B O -0.2759(3) 0.6711(3) 0.29823(14)
O7B O -0.6707(3) 0.7883(3) 0.31293(15)
O8B O -0.3187(3) 0.8093(3) 0.30660(14)
C1B C -0.3463(4) 0.5761(4) 0.2720(3)
H1B H -0.3765 0.5823 0.2974
C2B C -0.4319(3) 0.8570(5) 0.2872(3)
H2B H -0.4255 0.8854 0.3129
C3B C -0.3604(3) 0.8220(4) 0.2759(2)
C5B C -0.3036(4) 0.6433(4) 0.2662(2)
C6B C -0.6335(4) 0.8066(4) 0.2805(2)
C9B C -0.3138(4) 0.3773(4) 0.2679(2)
C11B C -0.5626(3) 0.8495(4) 0.2892(2)
C12B C -0.3527(4) 0.4498(4) 0.2729(2)
C14B C -0.4958(4) 0.7425(4) 0.2641(4)
H4B H -0.5004 0.7608 0.2357
H5B H -0.4511 0.7171 0.2665
H6B H -0.5357 0.7120 0.2700
C15B C -0.2958(4) 0.5122(4) 0.2809(3)
C16B C -0.2337(4) 0.5103(5) 0.2495(2)
H7B H -0.2034 0.4708 0.2555
H8B H -0.2525 0.5066 0.2211
H9B H -0.2057 0.5522 0.2520
C19B C -0.4959(4) 0.8009(5) 0.2953(3)
C23B C -0.3963(6) 0.5571(5) 0.2361(3)
H15B H -0.3804 0.5779 0.2095
H16B H -0.4455 0.5722 0.2420
C25B C -0.3914(5) 0.4752(5) 0.2341(3)
H18B H -0.4397 0.4553 0.2330
H19B H -0.3653 0.4610 0.2087
C26B C -0.5444(5) 0.8938(6) 0.2473(3)
H20B H -0.5575 0.8687 0.2216
H21B H -0.5689 0.9385 0.2475
C27B C -0.4605(5) 0.9023(5) 0.2514(3)
H22B H -0.4375 0.8892 0.2248
H23B H -0.4488 0.9507 0.2571
C28B C -0.4040(5) 0.4445(5) 0.3122(3)
H24B H -0.3771 0.4280 0.3364
H25B H -0.4238 0.4896 0.3185
H26B H -0.4427 0.4126 0.3061
C29B C -0.2640(6) 0.5105(5) 0.3271(3)
H27B H -0.3030 0.5117 0.3474
H28B H -0.2364 0.4685 0.3310
H29B H -0.2331 0.5501 0.3314
C30B C -0.5770(5) 0.8973(7) 0.3278(4)
H30B H -0.6186 0.9258 0.3221
H31B H -0.5858 0.8693 0.3526
H32B H -0.5355 0.9264 0.3326
C31B C -0.4888(5) 0.7731(7) 0.3389(3)
H33B H -0.4889 0.8109 0.3590
H34B H -0.5288 0.7426 0.3448
H35B H -0.4442 0.7477 0.3413
Zn1D Zn -0.27513(3) 0.26158(4) 0.20747(2)
Zn1E Zn -0.72487(3) 0.73842(4) 0.20747(2)
Zn1F Zn 0.27513(3) 0.26158(4) 0.79253(2)
Zn1G Zn 0.72487(3) 0.73842(4) 0.79253(2)
Zn2D Zn -0.23421(3) 0.25939(4) 0.29606(2)
Zn2E Zn -0.76579(3) 0.74061(4) 0.29606(2)
Zn2E_2 Zn 0.23421(3) 0.74061(4) 0.29606(2)
Zn2F Zn 0.23421(3) 0.25939(4) 0.70394(2)
Zn2G Zn -0.23421(3) 0.74061(4) 0.70394(2)
Zn2G_2 Zn 0.76579(3) 0.74061(4) 0.70394(2)
O2D O -0.1845(3) 0.8512(3) 0.26820(14)
O2F O 0.1845(3) 0.8512(3) 0.73180(14)
O3E O -0.1477(3) 0.7086(3) 0.25772(16)
O3G O 0.1477(3) 0.7086(3) 0.74228(16)
N1E N 0.3262(3) 0.7540(3) 0.85128(13)
N1G N -0.3262(3) 0.7540(3) 0.14872(13)
O4D O -0.2145(3) 0.8510(3) 0.20076(14)
O4F O 0.2145(3) 0.8510(3) 0.79924(14)
O7E O -0.1707(3) 0.7117(3) 0.18707(15)
O7G O 0.1707(3) 0.7117(3) 0.81293(15)
loop_
_geom_bond_atom_site_label_1
_geom_bond_atom_site_label_2
_geom_bond_site_symmetry_1
_geom_bond_site_symmetry_2
Zn1 N2 1_555 1_555
Zn2 O1 1_555 1_555
O1 C3 1_555 1_555
O2 C9 1_555 1_555
O3 C6 1_555 1_555
N1 C18 1_555 1_555
N2 C20 1_555 1_555
O4 C9 1_555 1_555
O5 Zn2 1_555 1_555
O6 Zn1 1_555 1_555
O7 C6 1_555 1_555
O8 Zn1 1_555 1_555
C1 H1 1_555 1_555
C2 H2 1_555 1_555
C3 O8 1_555 1_555
C4 C10 1_555 1_555
C5 O5 1_555 1_555
C6 C11 1_555 1_555
C7 C8 1_555 1_555
C8 C13 1_555 1_555
C9 C12 1_555 1_555
C10 C17 1_555 1_555
C11 C19 1_555 1_555
C12 C15 1_555 1_555
C13 C4 1_555 1_555
H3 C13 1_555 1_555
C14 H4 1_555 1_555
H5 C14 1_555 1_555
H6 C14 1_555 1_555
C15 C1 1_555 1_555
C16 C15 1_555 1_555
H7 C16 1_555 1_555
H8 C16 1_555 1_555
H9 C16 1_555 1_555
C17 H10 1_555 1_555
C18 H11 1_555 1_555
C19 C2 1_555 1_555
C20 C17 1_555 1_555
H12 C20 1_555 1_555
C21 C7 1_555 1_555
H13 C21 1_555 1_555
C22 C7 1_555 1_555
H14 C22 1_555 1_555
C23 C1 1_555 1_555
H15 C23 1_555 1_555
H16 C23 1_555 1_555
C24 C10 1_555 1_555
H17 C24 1_555 1_555
C25 C12 1_555 1_555
H18 C25 1_555 1_555
H19 C25 1_555 1_555
C26 C11 1_555 1_555
H20 C26 1_555 1_555
H21 C26 1_555 1_555
C27 C2 1_555 1_555
H22 C27 1_555 1_555
H23 C27 1_555 1_555
C28 C12 1_555 1_555
H24 C28 1_555 1_555
H25 C28 1_555 1_555
H26 C28 1_555 1_555
C29 C15 1_555 1_555
H27 C29 1_555 1_555
H28 C29 1_555 1_555
H29 C29 1_555 1_555
C30 C11 1_555 1_555
H30 C30 1_555 1_555
H31 C30 1_555 1_555
H32 C30 1_555 1_555
C31 C19 1_555 1_555
H33 C31 1_555 1_555
H34 C31 1_555 1_555
H35 C31 1_555 1_555
C32 N1 1_555 1_555
H36 C32 1_555 1_555
C33 N2 1_555 1_555
H37 C33 1_555 1_555
N1B C18B 1_555 1_555
N2B C20B 1_555 1_555
C4B C8 1_555 1_555
C7B C8B 1_555 1_555
C8B C4 1_555 1_555
C10B C4B 1_555 1_555
C13B C4B 1_555 1_555
H3B C13B 1_555 1_555
C17B C10B 1_555 1_555
H10B C17B 1_555 1_555
C18B H11B 1_555 1_555
C20B C17B 1_555 1_555
H12B C20B 1_555 1_555
C21B C7B 1_555 1_555
H13B C21B 1_555 1_555
C22B C7B 1_555 1_555
H14B C22B 1_555 1_555
C24B C10B 1_555 1_555
H17B C24B 1_555 1_555
C32B N1B 1_555 1_555
H36B C32B 1_555 1_555
C33B N2B 1_555 1_555
H37B C33B 1_555 1_555
Zn1B N2B 1_555 1_555
Zn2B O1B 1_555 1_555
O1B C3B 1_555 1_555
O2B C9B 1_555 1_555
O3B C6B 1_555 1_555
O4B C9B 1_555 1_555
O5B Zn2B 1_555 1_555
O6B Zn1B 1_555 1_555
O7B C6B 1_555 1_555
O8B Zn1B 1_555 1_555
C1B H1B 1_555 1_555
C2B H2B 1_555 1_555
C3B O8B 1_555 1_555
C5B O5B 1_555 1_555
C6B C11B 1_555 1_555
C9B C12B 1_555 1_555
C11B C19B 1_555 1_555
C12B C15B 1_555 1_555
C14B H4B 1_555 1_555
H5B C14B 1_555 1_555
H6B C14B 1_555 1_555
C15B C1B 1_555 1_555
C16B C15B 1_555 1_555
H7B C16B 1_555 1_555
H8B C16B 1_555 1_555
H9B C16B 1_555 1_555
C19B C2B 1_555 1_555
C23B C1B 1_555 1_555
H15B C23B 1_555 1_555
H16B C23B 1_555 1_555
C25B C12B 1_555 1_555
H18B C25B 1_555 1_555
H19B C25B 1_555 1_555
C26B C11B 1_555 1_555
H20B C26B 1_555 1_555
H21B C26B 1_555 1_555
C27B C2B 1_555 1_555
H22B C27B 1_555 1_555
H23B C27B 1_555 1_555
C28B C12B 1_555 1_555
H24B C28B 1_555 1_555
H25B C28B 1_555 1_555
H26B C28B 1_555 1_555
C29B C15B 1_555 1_555
H27B C29B 1_555 1_555
H28B C29B 1_555 1_555
H29B C29B 1_555 1_555
C30B C11B 1_555 1_555
H30B C30B 1_555 1_555
H31B C30B 1_555 1_555
H32B C30B 1_555 1_555
C31B C19B 1_555 1_555
H33B C31B 1_555 1_555
H34B C31B 1_555 1_555
H35B C31B 1_555 1_555
Zn1D O2B 1_555 1_555
Zn1E O3B 1_555 1_555
Zn1F O2 1_555 1_555
Zn1G O3 1_555 1_555
Zn2D O4B 1_555 1_555
Zn2E O7B 1_555 1_555
Zn2E_2 N1 1_555 1_555
Zn2F O4 1_555 1_555
Zn2G N1B 1_555 1_555
Zn2G_2 O7 1_555 1_555
O2D Zn1B 1_555 1_555
O2F Zn1 1_555 1_555
O3E Zn1B 1_555 1_555
O3G Zn1 1_555 1_555
N1E Zn2 1_555 1_555
N1G Zn2B 1_555 1_555
O4D Zn2B 1_555 1_555
O4F Zn2 1_555 1_555
O7E Zn2B 1_555 1_555
O7G Zn2 1_555 1_555
O6 C5 1_555 1_555
C1 C5 1_555 1_555
C2 C3 1_555 1_555
C14 C19 1_555 1_555
C18 C21 1_555 1_555
C22 C32 1_555 1_555
C23 C25 1_555 1_555
C24 C33 1_555 1_555
C26 C27 1_555 1_555
C8B C13B 1_555 1_555
C18B C21B 1_555 1_555
C22B C32B 1_555 1_555
C24B C33B 1_555 1_555
O6B C5B 1_555 1_555
C1B C5B 1_555 1_555
C2B C3B 1_555 1_555
C14B C19B 1_555 1_555
C23B C25B 1_555 1_555
C26B C27B 1_555 1_555

#END
