
#######################################################################
#
#                 Cambridge Crystallographic Data Centre
#                                CCDC 
#
#######################################################################
#
# If this CIF has been generated from an entry in the Cambridge 
# Structural Database, then it will include bibliographic, chemical, 
# crystal, experimental, refinement or atomic coordinate data resulting 
# from the CCDC's data processing and validation procedures.
#
#######################################################################

data_OLOPIQ
_chemical_formula_moiety         '(C42 H30 N4 O10 Zn2)n'
_symmetry_cell_setting           monoclinic
_symmetry_space_group_name_H-M   'C 2/c'
_symmetry_Int_Tables_number      15
_space_group_name_Hall           '-C 2yc'
loop_
_symmetry_equiv_pos_site_id
_symmetry_equiv_pos_as_xyz
1 x,y,z
2 -x,y,1/2-z
3 1/2+x,1/2+y,z
4 1/2-x,1/2+y,1/2-z
5 -x,-y,-z
6 x,-y,1/2+z
7 1/2-x,1/2-y,-z
8 1/2+x,1/2-y,1/2+z
_cell_length_a                   27.221(7)
_cell_length_b                   8.1040(19)
_cell_length_c                   23.537(6)
_cell_angle_alpha                90
_cell_angle_beta                 98.906(4)
_cell_angle_gamma                90
_cell_volume                     5129.64
loop_
_atom_site_label
_atom_site_type_symbol
_atom_site_fract_x
_atom_site_fract_y
_atom_site_fract_z
O1 O -0.01436(9) 0.7334(3) 0.54160(11)
N1 N 0.09422(10) 0.8039(3) 0.51471(12)
C1 C -0.05423(13) 0.6846(4) 0.55552(14)
O2 O -0.07453(10) 0.5487(3) 0.54231(12)
N2 N 0.23372(13) 1.1832(4) 0.49834(17)
C2 C -0.08021(13) 0.8001(5) 0.59162(15)
O3 O -0.14732(11) 1.1114(5) 0.69625(15)
C3 C -0.06233(14) 0.9565(5) 0.60275(16)
H1 H -0.0351 0.9930 0.5868
O4 O -0.06148(10) 1.4945(3) 0.92357(10)
C4 C -0.08456(16) 1.0598(6) 0.63755(18)
H2 H -0.0727 1.1667 0.6445
O5 O -0.00140(10) 1.3067(3) 0.92362(10)
C5 C -0.12435(15) 1.0055(6) 0.66208(18)
C6 C -0.14339(17) 0.8545(6) 0.6495(2)
H3 H -0.1712 0.8199 0.6647
C7 C -0.12218(16) 0.7524(6) 0.61460(19)
H4 H -0.1359 0.6487 0.6059
C8 C -0.11867(16) 1.1752(7) 0.74552(18)
C9 C -0.07668(17) 1.0987(6) 0.77181(18)
H5 H -0.0650 1.0040 0.7560
C10 C -0.05133(15) 1.1652(5) 0.82304(17)
H6 H -0.0229 1.1128 0.8416
C11 C -0.06791(13) 1.3078(5) 0.84653(15)
C12 C -0.11094(17) 1.3803(5) 0.81799(18)
H7 H -0.1231 1.4747 0.8334
C13 C -0.13581(18) 1.3177(7) 0.7682(2)
H8 H -0.1642 1.3702 0.7496
C14 C -0.04137(14) 1.3751(5) 0.90180(15)
C15 C 0.13488(14) 0.7930(5) 0.49049(17)
H9 H 0.1397 0.6983 0.4697
C16 C 0.17069(15) 0.9159(5) 0.4946(2)
H10 H 0.1989 0.9032 0.4772
C17 C 0.16360(13) 1.0593(5) 0.52531(15)
C18 C 0.12132(15) 1.0690(5) 0.55093(19)
H11 H 0.1153 1.1615 0.5722
C19 C 0.08811(15) 0.9389(5) 0.54437(17)
H12 H 0.0598 0.9468 0.5618
C20 C 0.19879(14) 1.2008(5) 0.52727(19)
C21 C 0.1900(2) 1.3507(6) 0.5611(4)
H13 H 0.2030 1.3327 0.6010
H14 H 0.1550 1.3723 0.5571
H15 H 0.2065 1.4435 0.5472
Zn1 Zn 0.03961(9) 0.6257(3) 0.50188(11)
N1F N 0.40578(10) 1.6961(3) 0.48529(12)
N2F N 0.26628(13) 1.3168(4) 0.50166(17)
C15F C 0.36512(14) 1.7070(5) 0.50951(17)
H9F H 0.3603 1.8017 0.5303
C16F C 0.32931(15) 1.5841(5) 0.5054(2)
H10F H 0.3011 1.5968 0.5228
C17F C 0.33640(13) 1.4407(5) 0.47469(15)
C18F C 0.37868(15) 1.4310(5) 0.44907(19)
H11F H 0.3847 1.3385 0.4278
C19F C 0.41189(15) 1.5611(5) 0.45563(17)
H12F H 0.4402 1.5532 0.4382
C20F C 0.30121(14) 1.2992(5) 0.47273(19)
C21F C 0.3100(2) 1.1493(6) 0.4389(4)
H13F H 0.2970 1.1673 0.3990
H14F H 0.3450 1.1277 0.4429
H15F H 0.2935 1.0565 0.4528
O1D O 0.01436(9) 0.2666(3) 0.45840(11)
C1D C 0.05423(13) 0.3154(4) 0.44448(14)
O2D O 0.07453(10) 0.4513(3) 0.45769(12)
C2D C 0.08021(13) 0.1999(5) 0.40838(15)
O3D O 0.14732(11) -0.1114(5) 0.30375(15)
C3D C 0.06233(14) 0.0435(5) 0.39725(16)
H1D H 0.0351 0.0070 0.4132
O4D O 0.06148(10) -0.4945(3) 0.07643(10)
C4D C 0.08456(16) -0.0598(6) 0.36245(18)
H2D H 0.0727 -0.1667 0.3555
O5D O 0.00140(10) -0.3067(3) 0.07638(10)
C5D C 0.12435(15) -0.0055(6) 0.33792(18)
C6D C 0.14339(17) 0.1455(6) 0.3505(2)
H3D H 0.1712 0.1801 0.3353
C7D C 0.12218(16) 0.2476(6) 0.38540(19)
H4D H 0.1359 0.3513 0.3941
C8D C 0.11867(16) -0.1752(7) 0.25448(18)
C9D C 0.07668(17) -0.0987(6) 0.22819(18)
H5D H 0.0650 -0.0040 0.2440
C10D C 0.05133(15) -0.1652(5) 0.17696(17)
H6D H 0.0229 -0.1128 0.1584
C11D C 0.06791(13) -0.3078(5) 0.15347(15)
C12D C 0.11094(17) -0.3803(5) 0.18201(18)
H7D H 0.1231 -0.4747 0.1666
C13D C 0.13581(18) -0.3177(7) 0.2318(2)
H8D H 0.1642 -0.3702 0.2504
C14D C 0.04137(14) -0.3751(5) 0.09820(15)
Zn1D Zn -0.03961(9) 0.3743(3) 0.49812(11)
N1D N -0.09422(10) 0.1961(3) 0.48529(12)
O4A O 0.06148(10) 0.4945(3) 0.57643(10)
O4E O -0.06148(10) 0.5055(3) 0.42357(10)
O5A O 0.00140(10) 0.3067(3) 0.57638(10)
O5E O -0.00140(10) 0.6933(3) 0.42362(10)
Zn1A Zn -0.03961(9) -0.3743(3) -0.00188(11)
Zn1A_2 Zn -0.03961(9) 1.6257(3) 0.99812(11)
Zn1E Zn 0.03961(9) -0.6257(3) 0.00188(11)
Zn1E_2 Zn 0.03961(9) 1.3743(3) 1.00188(11)
Zn1F Zn 0.46039(9) 1.8743(3) 0.49812(11)
loop_
_geom_bond_atom_site_label_1
_geom_bond_atom_site_label_2
_geom_bond_site_symmetry_1
_geom_bond_site_symmetry_2
O1 C1 1_555 1_555
N1 C15 1_555 1_555
C1 O2 1_555 1_555
O2 Zn1D 1_555 1_555
N2 C20 1_555 1_555
C2 C1 1_555 1_555
O3 C5 1_555 1_555
C3 C2 1_555 1_555
H1 C3 1_555 1_555
O4 C14 1_555 1_555
C4 C3 1_555 1_555
H2 C4 1_555 1_555
O5 C14 1_555 1_555
C5 C4 1_555 1_555
C6 C5 1_555 1_555
H3 C6 1_555 1_555
C7 C2 1_555 1_555
H4 C7 1_555 1_555
C8 O3 1_555 1_555
C9 C8 1_555 1_555
H5 C9 1_555 1_555
C10 C9 1_555 1_555
H6 C10 1_555 1_555
C11 C10 1_555 1_555
C12 C11 1_555 1_555
H7 C12 1_555 1_555
C13 C8 1_555 1_555
H8 C13 1_555 1_555
C14 C11 1_555 1_555
C15 H9 1_555 1_555
C16 C15 1_555 1_555
H10 C16 1_555 1_555
C17 C16 1_555 1_555
C18 C17 1_555 1_555
H11 C18 1_555 1_555
C19 N1 1_555 1_555
H12 C19 1_555 1_555
C20 C17 1_555 1_555
C21 C20 1_555 1_555
H13 C21 1_555 1_555
H14 C21 1_555 1_555
H15 C21 1_555 1_555
Zn1 O1 1_555 1_555
N1F C15F 1_555 1_555
N2F N2 1_555 1_555
C15F H9F 1_555 1_555
C16F C15F 1_555 1_555
H10F C16F 1_555 1_555
C17F C16F 1_555 1_555
C18F C17F 1_555 1_555
H11F C18F 1_555 1_555
C19F N1F 1_555 1_555
H12F C19F 1_555 1_555
C20F N2F 1_555 1_555
C21F C20F 1_555 1_555
H13F C21F 1_555 1_555
H14F C21F 1_555 1_555
H15F C21F 1_555 1_555
O1D C1D 1_555 1_555
C1D O2D 1_555 1_555
O2D Zn1 1_555 1_555
C2D C1D 1_555 1_555
O3D C5D 1_555 1_555
C3D C2D 1_555 1_555
H1D C3D 1_555 1_555
O4D C14D 1_555 1_555
C4D C3D 1_555 1_555
H2D C4D 1_555 1_555
O5D C14D 1_555 1_555
C5D C4D 1_555 1_555
C6D C5D 1_555 1_555
H3D C6D 1_555 1_555
C7D C2D 1_555 1_555
H4D C7D 1_555 1_555
C8D O3D 1_555 1_555
C9D C8D 1_555 1_555
H5D C9D 1_555 1_555
C10D C9D 1_555 1_555
H6D C10D 1_555 1_555
C11D C10D 1_555 1_555
C12D C11D 1_555 1_555
H7D C12D 1_555 1_555
C13D C8D 1_555 1_555
H8D C13D 1_555 1_555
C14D C11D 1_555 1_555
Zn1D O1D 1_555 1_555
N1D Zn1D 1_555 1_555
O4A Zn1 1_555 1_555
O4E Zn1D 1_555 1_555
O5A Zn1D 1_555 1_555
O5E Zn1 1_555 1_555
Zn1A O5D 1_555 1_555
Zn1A_2 O4 1_555 1_555
Zn1E O4D 1_555 1_555
Zn1E_2 O5 1_555 1_555
Zn1F N1F 1_555 1_555
N1 Zn1 1_555 1_555
C6 C7 1_555 1_555
C12 C13 1_555 1_555
C18 C19 1_555 1_555
C17F C20F 1_555 1_555
C18F C19F 1_555 1_555
C6D C7D 1_555 1_555
C12D C13D 1_555 1_555

#END
