
#######################################################################
#
#                 Cambridge Crystallographic Data Centre
#                                CCDC 
#
#######################################################################
#
# If this CIF has been generated from an entry in the Cambridge 
# Structural Database, then it will include bibliographic, chemical, 
# crystal, experimental, refinement or atomic coordinate data resulting 
# from the CCDC's data processing and validation procedures.
#
#######################################################################

data_IGIZUV
_chemical_formula_moiety         '(C10 H34 N1 O30 P8 Sr3 1-)n'
_symmetry_cell_setting           monoclinic
_symmetry_space_group_name_H-M   'C 2/c'
_symmetry_Int_Tables_number      15
_space_group_name_Hall           '-C 2yc'
loop_
_symmetry_equiv_pos_site_id
_symmetry_equiv_pos_as_xyz
1 x,y,z
2 -x,y,1/2-z
3 1/2+x,1/2+y,z
4 1/2-x,1/2+y,1/2-z
5 -x,-y,-z
6 x,-y,1/2+z
7 1/2-x,1/2-y,-z
8 1/2+x,1/2-y,1/2+z
_cell_length_a                   22.2858(7)
_cell_length_b                   17.3710(5)
_cell_length_c                   10.1701(3)
_cell_angle_alpha                90
_cell_angle_beta                 110.425(2)
_cell_angle_gamma                90
_cell_volume                     3689.59
loop_
_atom_site_label
_atom_site_type_symbol
_atom_site_fract_x
_atom_site_fract_y
_atom_site_fract_z
Sr1 Sr 0.5000 0.01286(3) 0.7500
Sr2 Sr 0.33399(3) 0.09999(4) 0.52781(6)
P1 P 0.47612(7) 0.15303(8) 0.46067(16)
O1 O 0.4577(2) 0.1231(3) 0.5809(5)
O2 O 0.3261(2) 0.0878(3) 0.2753(5)
H1 H 0.2987 0.0550 0.2283
H2 H 0.3643 0.0781 0.2807
C1 C 0.5617(3) 0.1732(3) 0.5173(6)
P2 P 0.60918(7) 0.08554(8) 0.57937(16)
O3 O 0.4592(2) 0.1005(3) 0.3351(5)
C2 C 0.5788(3) 0.2324(4) 0.6360(7)
H3 H 0.5703 0.2111 0.7149
H4 H 0.5534 0.2779 0.6043
H5 H 0.6233 0.2454 0.6633
P3 P 0.19124(8) 0.17668(9) 0.5916(2)
O4 O 0.4459(2) 0.2339(3) 0.4125(6)
H6 H 0.4112 0.2397 0.4283
C3 C 0.1646(3) 0.1101(4) 0.4426(7)
P4 P 0.18634(10) 0.00981(12) 0.4834(3)
O5 O 0.5994(2) 0.0626(2) 0.7132(4)
C4 C 0.0925(3) 0.1167(5) 0.3624(8)
H7 H 0.0813 0.1698 0.3411
H8 H 0.0695 0.0967 0.4190
H9 H 0.0814 0.0878 0.2767
O6 O 0.5926(2) 0.0278(2) 0.4629(5)
O7 O 0.6803(2) 0.1107(3) 0.6102(5)
O8 O 0.2565(2) 0.0050(3) 0.5590(6)
O9 O 0.1619(3) 0.2539(3) 0.5411(7)
O10 O 0.2016(3) 0.1325(5) 0.3557(6)
H10 H 0.1944 0.1777 0.3325
O11 O 0.1621(3) 0.1489(4) 0.7029(7)
H11 H 0.1734 0.1044 0.7258
O12 O 0.1463(3) -0.0202(4) 0.5684(12)
H12 H 0.1597 -0.0016 0.6474
O13 O 0.2635(2) 0.1749(3) 0.6483(5)
O14 O 0.5761(2) 0.2067(3) 0.4028(5)
H13 H 0.5658 0.1762 0.3331
O15 O 0.1687(4) -0.0216(5) 0.3370(5)
Sr2A Sr 0.66601(3) 0.09999(4) 0.97219(6)
P1A P 0.52388(7) 0.15303(8) 1.03933(16)
O1A O 0.5423(2) 0.1231(3) 0.9191(5)
O2A O 0.6739(2) 0.0878(3) 1.2247(5)
H1A H 0.7013 0.0550 1.2717
H2A H 0.6357 0.0781 1.2193
C1A C 0.4383(3) 0.1732(3) 0.9827(6)
P2A P 0.39082(7) 0.08554(8) 0.92063(16)
O3A O 0.5408(2) 0.1005(3) 1.1649(5)
C2A C 0.4212(3) 0.2324(4) 0.8640(7)
H3A H 0.4297 0.2111 0.7851
H4A H 0.4466 0.2779 0.8957
H5A H 0.3767 0.2454 0.8367
P3A P 0.80876(8) 0.17668(9) 0.9084(2)
O4A O 0.5541(2) 0.2339(3) 1.0875(6)
H6A H 0.5888 0.2397 1.0717
C3A C 0.8354(3) 0.1101(4) 1.0574(7)
P4A P 0.81366(10) 0.00981(12) 1.0166(3)
O5A O 0.4006(2) 0.0626(2) 0.7868(4)
C4A C 0.9075(3) 0.1167(5) 1.1376(8)
H7A H 0.9187 0.1698 1.1589
H8A H 0.9305 0.0967 1.0810
H9A H 0.9186 0.0878 1.2233
O6A O 0.4074(2) 0.0278(2) 1.0371(5)
O7A O 0.3197(2) 0.1107(3) 0.8898(5)
O8A O 0.7435(2) 0.0050(3) 0.9410(6)
O9A O 0.8381(3) 0.2539(3) 0.9589(7)
O10A O 0.7984(3) 0.1325(5) 1.1443(6)
H10A H 0.8056 0.1777 1.1675
O11A O 0.8379(3) 0.1489(4) 0.7971(7)
H11A H 0.8266 0.1044 0.7742
O12A O 0.8537(3) -0.0202(4) 0.9316(12)
H12A H 0.8403 -0.0016 0.8526
O13A O 0.7365(2) 0.1749(3) 0.8517(5)
O14A O 0.4239(2) 0.2067(3) 1.0972(5)
H13A H 0.4342 0.1762 1.1669
O15A O 0.8313(4) -0.0216(5) 1.1630(5)
Sr1D Sr 0.5000 -0.01286(3) 0.2500
Sr1D_2 Sr 0.5000 -0.01286(3) 1.2500
Sr2D Sr 0.66601(3) -0.09999(4) 0.47219(6)
Sr2E Sr 0.33399(3) -0.09999(4) 1.02781(6)
Sr2F Sr 0.16601(3) 0.40001(4) 0.47219(6)
Sr2G Sr 0.83399(3) 0.40001(4) 1.02781(6)
O3D O 0.5408(2) -0.1005(3) 0.6649(5)
O3E O 0.4592(2) -0.1005(3) 0.8351(5)
O6D O 0.4074(2) -0.0278(2) 0.5371(5)
O6E O 0.5926(2) -0.0278(2) 0.9629(5)
O9F O 0.3381(3) 0.2461(3) 0.4589(7)
O9G O 0.6619(3) 0.2461(3) 1.0411(7)
C5 C 0.5042(10) 0.3994(7) 0.3766(14)
H14 H 0.5068 0.3648 0.4519
H15 H 0.4668 0.4312 0.3569
H16 H 0.5417 0.4314 0.4031
N1 N 0.5000 0.3548(13) 0.2500
H17 H 0.4654 0.3240 0.2288
C5A C 0.4958(10) 0.3994(7) 0.1234(14)
H14A H 0.4932 0.3648 0.0481
H15A H 0.5332 0.4312 0.1431
H16A H 0.4583 0.4314 0.0969
H17A H 0.5346 0.3240 0.2712
loop_
_geom_bond_atom_site_label_1
_geom_bond_atom_site_label_2
_geom_bond_site_symmetry_1
_geom_bond_site_symmetry_2
Sr1 O1 1_555 1_555
Sr2 O1 1_555 1_555
P1 O1 1_555 1_555
O2 Sr2 1_555 1_555
H1 O2 1_555 1_555
H2 O2 1_555 1_555
C1 P1 1_555 1_555
P2 C1 1_555 1_555
O3 P1 1_555 1_555
C2 C1 1_555 1_555
H3 C2 1_555 1_555
H4 C2 1_555 1_555
H5 C2 1_555 1_555
P3 C3 1_555 1_555
O4 P1 1_555 1_555
H6 O4 1_555 1_555
C3 P4 1_555 1_555
P4 O8 1_555 1_555
O5 Sr1 1_555 1_555
C4 C3 1_555 1_555
H7 C4 1_555 1_555
H8 C4 1_555 1_555
H9 C4 1_555 1_555
O6 P2 1_555 1_555
O7 P2 1_555 1_555
O8 Sr2 1_555 1_555
O9 P3 1_555 1_555
O10 Sr2 1_555 1_555
H10 O10 1_555 1_555
O11 P3 1_555 1_555
H11 O11 1_555 1_555
O12 P4 1_555 1_555
H12 O12 1_555 1_555
O13 Sr2 1_555 1_555
O14 C1 1_555 1_555
H13 O14 1_555 1_555
O15 P4 1_555 1_555
C5 H14 1_555 1_555
H15 C5 1_555 1_555
H16 C5 1_555 1_555
N1 C5 1_555 1_555
H17 N1 1_555 1_555
Sr2A O5 1_555 1_555
P1A O1A 1_555 1_555
O1A Sr1 1_555 1_555
O2A Sr2A 1_555 1_555
H1A O2A 1_555 1_555
H2A O2A 1_555 1_555
C1A P1A 1_555 1_555
P2A C1A 1_555 1_555
O3A P1A 1_555 1_555
C2A C1A 1_555 1_555
H3A C2A 1_555 1_555
H4A C2A 1_555 1_555
H5A C2A 1_555 1_555
P3A C3A 1_555 1_555
O4A P1A 1_555 1_555
H6A O4A 1_555 1_555
C3A P4A 1_555 1_555
P4A O8A 1_555 1_555
O5A Sr1 1_555 1_555
C4A C3A 1_555 1_555
H7A C4A 1_555 1_555
H8A C4A 1_555 1_555
H9A C4A 1_555 1_555
O6A P2A 1_555 1_555
O7A P2A 1_555 1_555
O8A Sr2A 1_555 1_555
O9A P3A 1_555 1_555
O10A Sr2A 1_555 1_555
H10A O10A 1_555 1_555
O11A P3A 1_555 1_555
H11A O11A 1_555 1_555
O12A P4A 1_555 1_555
H12A O12A 1_555 1_555
O13A Sr2A 1_555 1_555
O14A C1A 1_555 1_555
H13A O14A 1_555 1_555
O15A P4A 1_555 1_555
Sr1D O3 1_555 1_555
Sr1D_2 O3A 1_555 1_555
Sr2D O6 1_555 1_555
Sr2E O6A 1_555 1_555
Sr2F O9 1_555 1_555
Sr2G O9A 1_555 1_555
O3D Sr1 1_555 1_555
O3E Sr1 1_555 1_555
O6D Sr1 1_555 1_555
O6E Sr1 1_555 1_555
O9F Sr2 1_555 1_555
O9G Sr2A 1_555 1_555
C5A N1 1_555 1_555
H14A C5A 1_555 1_555
H15A C5A 1_555 1_555
H16A C5A 1_555 1_555
H17A N1 1_555 1_555
Sr2 O5A 1_555 1_555
Sr2 O6D 1_555 1_555
P2 O5 1_555 1_555
P3 O13 1_555 1_555
C3 O10 1_555 1_555
O6 Sr1D 1_555 1_555
Sr2A O1A 1_555 1_555
Sr2A O6E 1_555 1_555
P2A O5A 1_555 1_555
P3A O13A 1_555 1_555
C3A O10A 1_555 1_555
O6A Sr1D_2 1_555 1_555

#END
