
#######################################################################
#
#                 Cambridge Crystallographic Data Centre
#                                CCDC 
#
#######################################################################
#
# If this CIF has been generated from an entry in the Cambridge 
# Structural Database, then it will include bibliographic, chemical, 
# crystal, experimental, refinement or atomic coordinate data resulting 
# from the CCDC's data processing and validation procedures.
#
#######################################################################

data_IGIZEF
_chemical_formula_moiety         '(C10 H36 N1 O30 P8 Sr3 1-)n'
_symmetry_cell_setting           monoclinic
_symmetry_space_group_name_H-M   'C 2/c'
_symmetry_Int_Tables_number      15
_space_group_name_Hall           '-C 2yc'
loop_
_symmetry_equiv_pos_site_id
_symmetry_equiv_pos_as_xyz
1 x,y,z
2 -x,y,1/2-z
3 1/2+x,1/2+y,z
4 1/2-x,1/2+y,1/2-z
5 -x,-y,-z
6 x,-y,1/2+z
7 1/2-x,1/2-y,-z
8 1/2+x,1/2-y,1/2+z
_cell_length_a                   22.5561(8)
_cell_length_b                   17.4368(6)
_cell_length_c                   10.1995(4)
_cell_angle_alpha                90
_cell_angle_beta                 109.4020(10)
_cell_angle_gamma                90
_cell_volume                     3783.72
loop_
_atom_site_label
_atom_site_type_symbol
_atom_site_fract_x
_atom_site_fract_y
_atom_site_fract_z
Sr1 Sr 0.5000 0.013847(19) 0.7500
Sr2 Sr 0.338283(11) 0.102701(14) 0.52899(3)
P1 P 0.47658(3) 0.15600(4) 0.45982(7)
P2 P 0.60911(3) 0.08730(4) 0.57917(7)
P3 P 0.19428(3) 0.17905(4) 0.59832(7)
P4 P 0.19190(3) 0.01526(4) 0.47234(8)
O1 O 0.45668(9) 0.12889(11) 0.5789(2)
O2 O 0.32727(10) 0.08639(13) 0.2730(2)
H1 H 0.3629 0.0762 0.2659
H2 H 0.3018 0.0500 0.2385
O3 O 0.45797(9) 0.10558(10) 0.3329(2)
O4 O 0.44930(9) 0.23979(11) 0.4148(2)
H3 H 0.4145 0.2435 0.4234
O5 O 0.60113(9) 0.06688(11) 0.7158(2)
O6 O 0.59407(9) 0.02782(11) 0.4673(2)
O7 O 0.67846(8) 0.11579(12) 0.6040(2)
H4 H 0.6927 0.1351 0.6815
O8 O 0.25973(10) 0.01137(11) 0.5596(2)
O9 O 0.16331(9) 0.25586(11) 0.5526(2)
O10 O 0.20536(10) 0.14282(12) 0.3579(2)
H5 H 0.2135 0.1900 0.3560
O11 O 0.17254(11) -0.02035(12) 0.3297(2)
O12 O 0.16537(10) 0.14785(12) 0.7082(2)
H6 H 0.1768 0.1035 0.7281
O13 O 0.14908(10) -0.02083(12) 0.5515(2)
H7 H 0.1603 -0.0048 0.6316
O14 O 0.26522(9) 0.18041(12) 0.6529(2)
O15 O 0.57597(9) 0.20595(11) 0.3989(2)
H8 H 0.5655 0.1755 0.3340
C1 C 0.56128(12) 0.17413(15) 0.5156(3)
C2 C 0.57783(13) 0.23388(16) 0.6323(3)
C3 C 0.16867(12) 0.11680(15) 0.4439(3)
C4 C 0.09789(14) 0.12302(19) 0.3677(4)
Sr2A Sr 0.661717(11) 0.102701(14) 0.97101(3)
P1A P 0.52342(3) 0.15600(4) 1.04018(7)
P2A P 0.39089(3) 0.08730(4) 0.92083(7)
P3A P 0.80572(3) 0.17905(4) 0.90168(7)
P4A P 0.80810(3) 0.01526(4) 1.02766(8)
O1A O 0.54332(9) 0.12889(11) 0.9211(2)
O2A O 0.67273(10) 0.08639(13) 1.2270(2)
H1A H 0.6371 0.0762 1.2341
H2A H 0.6982 0.0500 1.2615
O3A O 0.54203(9) 0.10558(10) 1.1671(2)
O4A O 0.55070(9) 0.23979(11) 1.0852(2)
H3A H 0.5855 0.2435 1.0766
O5A O 0.39887(9) 0.06688(11) 0.7842(2)
O6A O 0.40593(9) 0.02782(11) 1.0327(2)
O7A O 0.32154(8) 0.11579(12) 0.8960(2)
H4A H 0.3073 0.1351 0.8185
O8A O 0.74027(10) 0.01137(11) 0.9404(2)
O9A O 0.83669(9) 0.25586(11) 0.9474(2)
O10A O 0.79464(10) 0.14282(12) 1.1421(2)
H5A H 0.7865 0.1900 1.1440
O11A O 0.82746(11) -0.02035(12) 1.1703(2)
O12A O 0.83463(10) 0.14785(12) 0.7918(2)
H6A H 0.8232 0.1035 0.7719
O13A O 0.85092(10) -0.02083(12) 0.9485(2)
H7A H 0.8397 -0.0048 0.8684
O14A O 0.73478(9) 0.18041(12) 0.8471(2)
O15A O 0.42403(9) 0.20595(11) 1.1011(2)
H8A H 0.4345 0.1755 1.1660
C1A C 0.43872(12) 0.17413(15) 0.9844(3)
C2A C 0.42217(13) 0.23388(16) 0.8677(3)
C3A C 0.83133(12) 0.11680(15) 1.0561(3)
C4A C 0.90211(14) 0.12302(19) 1.1323(4)
Sr1D Sr 0.5000 -0.013847(19) 0.2500
Sr1D_2 Sr 0.5000 -0.013847(19) 1.2500
Sr2D Sr 0.661717(11) -0.102701(14) 0.47101(3)
Sr2E Sr 0.338283(11) -0.102701(14) 1.02899(3)
Sr2F Sr 0.161717(11) 0.397299(14) 0.47101(3)
Sr2G Sr 0.838283(11) 0.397299(14) 1.02899(3)
O3D O 0.54203(9) -0.10558(10) 0.6671(2)
O3E O 0.45797(9) -0.10558(10) 0.8329(2)
O6D O 0.40593(9) -0.02782(11) 0.5327(2)
O6E O 0.59407(9) -0.02782(11) 0.9673(2)
O9F O 0.33669(9) 0.24414(11) 0.4474(2)
O9G O 0.66331(9) 0.24414(11) 1.0526(2)
N1 N 0.5000 0.3406(2) 0.2500
H9 H 0.4799 0.3102 0.2928
C5 C 0.5460(2) 0.3879(3) 0.3525(6)
H10 H 0.5755 0.3555 0.4190
H11 H 0.5249 0.4200 0.3994
H12 H 0.5680 0.4194 0.3065
H9A H 0.5201 0.3102 0.2072
C5A C 0.4540(2) 0.3879(3) 0.1475(6)
H10A H 0.4245 0.3555 0.0810
H11A H 0.4751 0.4200 0.1006
H12A H 0.4320 0.4194 0.1935
loop_
_geom_bond_atom_site_label_1
_geom_bond_atom_site_label_2
_geom_bond_site_symmetry_1
_geom_bond_site_symmetry_2
Sr1 O1 1_555 1_555
Sr2 O1 1_555 1_555
P1 O1 1_555 1_555
P2 O5 1_555 1_555
P3 O9 1_555 1_555
P4 O8 1_555 1_555
O2 Sr2 1_555 1_555
H1 O2 1_555 1_555
H2 O2 1_555 1_555
O3 P1 1_555 1_555
O4 P1 1_555 1_555
H3 O4 1_555 1_555
O5 Sr1 1_555 1_555
O6 P2 1_555 1_555
O7 P2 1_555 1_555
H4 O7 1_555 1_555
O8 Sr2 1_555 1_555
O9 Sr2F 1_555 1_555
O10 Sr2 1_555 1_555
H5 O10 1_555 1_555
O11 P4 1_555 1_555
O12 P3 1_555 1_555
H6 O12 1_555 1_555
O13 P4 1_555 1_555
H7 O13 1_555 1_555
O14 Sr2 1_555 1_555
O15 H8 1_555 1_555
C1 P1 1_555 1_555
C2 C1 1_555 1_555
C3 P3 1_555 1_555
C4 C3 1_555 1_555
N1 H9 1_555 1_555
C5 N1 1_555 1_555
H10 C5 1_555 1_555
H11 C5 1_555 1_555
H12 C5 1_555 1_555
Sr2A O5 1_555 1_555
P1A O1A 1_555 1_555
P2A O5A 1_555 1_555
P3A O9A 1_555 1_555
P4A O8A 1_555 1_555
O1A Sr1 1_555 1_555
O2A Sr2A 1_555 1_555
H1A O2A 1_555 1_555
H2A O2A 1_555 1_555
O3A P1A 1_555 1_555
O4A P1A 1_555 1_555
H3A O4A 1_555 1_555
O5A Sr1 1_555 1_555
O6A P2A 1_555 1_555
O7A P2A 1_555 1_555
H4A O7A 1_555 1_555
O8A Sr2A 1_555 1_555
O9A Sr2G 1_555 1_555
O10A Sr2A 1_555 1_555
H5A O10A 1_555 1_555
O11A P4A 1_555 1_555
O12A P3A 1_555 1_555
H6A O12A 1_555 1_555
O13A P4A 1_555 1_555
H7A O13A 1_555 1_555
O14A Sr2A 1_555 1_555
O15A H8A 1_555 1_555
C1A P1A 1_555 1_555
C2A C1A 1_555 1_555
C3A P3A 1_555 1_555
C4A C3A 1_555 1_555
Sr1D O3 1_555 1_555
Sr1D_2 O3A 1_555 1_555
Sr2D O6 1_555 1_555
Sr2E O6A 1_555 1_555
O3D Sr1 1_555 1_555
O3E Sr1 1_555 1_555
O6D Sr1 1_555 1_555
O6E Sr1 1_555 1_555
O9F Sr2 1_555 1_555
O9G Sr2A 1_555 1_555
H9A N1 1_555 1_555
C5A N1 1_555 1_555
H10A C5A 1_555 1_555
H11A C5A 1_555 1_555
H12A C5A 1_555 1_555
Sr2 O5A 1_555 1_555
Sr2 O6D 1_555 1_555
P2 C1 1_555 1_555
P3 O14 1_555 1_555
P4 C3 1_555 1_555
O6 Sr1D 1_555 1_555
O10 C3 1_555 1_555
O15 C1 1_555 1_555
Sr2A O1A 1_555 1_555
Sr2A O6E 1_555 1_555
P2A C1A 1_555 1_555
P3A O14A 1_555 1_555
P4A C3A 1_555 1_555
O6A Sr1D_2 1_555 1_555
O10A C3A 1_555 1_555
O15A C1A 1_555 1_555

#END
