
#######################################################################
#
#                 Cambridge Crystallographic Data Centre
#                                CCDC 
#
#######################################################################
#
# If this CIF has been generated from an entry in the Cambridge 
# Structural Database, then it will include bibliographic, chemical, 
# crystal, experimental, refinement or atomic coordinate data resulting 
# from the CCDC's data processing and validation procedures.
#
#######################################################################

data_IGIZOP
_chemical_formula_moiety         '(C10 H34 N1 O30 P8 Sr3 1-)n'
_symmetry_cell_setting           monoclinic
_symmetry_space_group_name_H-M   'C 2/c'
_symmetry_Int_Tables_number      15
_space_group_name_Hall           '-C 2yc'
loop_
_symmetry_equiv_pos_site_id
_symmetry_equiv_pos_as_xyz
1 x,y,z
2 -x,y,1/2-z
3 1/2+x,1/2+y,z
4 1/2-x,1/2+y,1/2-z
5 -x,-y,-z
6 x,-y,1/2+z
7 1/2-x,1/2-y,-z
8 1/2+x,1/2-y,1/2+z
_cell_length_a                   22.3119(7)
_cell_length_b                   17.3774(5)
_cell_length_c                   10.1854(3)
_cell_angle_alpha                90
_cell_angle_beta                 110.2950(10)
_cell_angle_gamma                90
_cell_volume                     3703.95
loop_
_atom_site_label
_atom_site_type_symbol
_atom_site_fract_x
_atom_site_fract_y
_atom_site_fract_z
Sr1 Sr 0.5000 0.01304(3) 0.7500
Sr2 Sr 0.33446(2) 0.10099(3) 0.52804(5)
P1 P 0.47608(6) 0.15365(7) 0.46018(13)
O1 O 0.45743(18) 0.1242(2) 0.5803(4)
O2 O 0.3262(2) 0.0873(3) 0.2759(5)
H1 H 0.2988 0.0544 0.2290
H2 H 0.3644 0.0775 0.2814
C1 C 0.5617(2) 0.1733(3) 0.5168(5)
P2 P 0.60921(6) 0.08607(7) 0.57914(13)
O3 O 0.45905(18) 0.1017(2) 0.3348(4)
C2 C 0.5785(3) 0.2330(3) 0.6346(6)
H3 H 0.5702 0.2119 0.7137
H4 H 0.5530 0.2783 0.6026
H5 H 0.6230 0.2461 0.6615
P3 P 0.19184(7) 0.17692(8) 0.59334(16)
O4 O 0.4462(2) 0.2351(2) 0.4131(5)
H6 H 0.4115 0.2408 0.4289
C3 C 0.1656(3) 0.1115(3) 0.4428(6)
P4 P 0.18730(8) 0.01105(10) 0.4796(2)
O5 O 0.59940(17) 0.0635(2) 0.7135(4)
C4 C 0.0935(3) 0.1183(4) 0.3639(7)
H7 H 0.0824 0.1714 0.3427
H8 H 0.0708 0.0984 0.4212
H9 H 0.0822 0.0893 0.2785
O6 O 0.59294(17) 0.0277(2) 0.4640(4)
O7 O 0.68002(17) 0.1116(2) 0.6090(4)
O8 O 0.2569(2) 0.0060(2) 0.5584(5)
O9 O 0.1622(2) 0.2543(2) 0.5445(5)
O10 O 0.2027(2) 0.1356(4) 0.3565(5)
H10 H 0.1950 0.1808 0.3341
O11 O 0.1627(3) 0.1482(3) 0.7037(5)
H11 H 0.1742 0.1038 0.7261
O12 O 0.1463(3) -0.0209(3) 0.5624(9)
H12 H 0.1591 -0.0029 0.6418
O13 O 0.26408(19) 0.1757(3) 0.6494(5)
O14 O 0.57606(18) 0.2065(2) 0.4016(4)
H13 H 0.5657 0.1760 0.3319
O15 O 0.1687(3) -0.0213(4) 0.3339(4)
Sr2A Sr 0.66554(2) 0.10099(3) 0.97196(5)
P1A P 0.52392(6) 0.15365(7) 1.03982(13)
O1A O 0.54257(18) 0.1242(2) 0.9197(4)
O2A O 0.6738(2) 0.0873(3) 1.2241(5)
H1A H 0.7012 0.0544 1.2710
H2A H 0.6356 0.0775 1.2186
C1A C 0.4383(2) 0.1733(3) 0.9832(5)
P2A P 0.39079(6) 0.08607(7) 0.92086(13)
O3A O 0.54095(18) 0.1017(2) 1.1652(4)
C2A C 0.4215(3) 0.2330(3) 0.8654(6)
H3A H 0.4298 0.2119 0.7863
H4A H 0.4470 0.2783 0.8974
H5A H 0.3770 0.2461 0.8385
P3A P 0.80816(7) 0.17692(8) 0.90666(16)
O4A O 0.5538(2) 0.2351(2) 1.0869(5)
H6A H 0.5885 0.2408 1.0711
C3A C 0.8344(3) 0.1115(3) 1.0572(6)
P4A P 0.81270(8) 0.01105(10) 1.0204(2)
O5A O 0.40060(17) 0.0635(2) 0.7865(4)
C4A C 0.9065(3) 0.1183(4) 1.1361(7)
H7A H 0.9176 0.1714 1.1573
H8A H 0.9292 0.0984 1.0788
H9A H 0.9178 0.0893 1.2215
O6A O 0.40706(17) 0.0277(2) 1.0360(4)
O7A O 0.31998(17) 0.1116(2) 0.8910(4)
O8A O 0.7431(2) 0.0060(2) 0.9416(5)
O9A O 0.8378(2) 0.2543(2) 0.9555(5)
O10A O 0.7973(2) 0.1356(4) 1.1435(5)
H10A H 0.8050 0.1808 1.1659
O11A O 0.8373(3) 0.1482(3) 0.7963(5)
H11A H 0.8258 0.1038 0.7739
O12A O 0.8537(3) -0.0209(3) 0.9376(9)
H12A H 0.8409 -0.0029 0.8582
O13A O 0.73592(19) 0.1757(3) 0.8506(5)
O14A O 0.42394(18) 0.2065(2) 1.0984(4)
H13A H 0.4343 0.1760 1.1681
O15A O 0.8313(3) -0.0213(4) 1.1661(4)
Sr1D Sr 0.5000 -0.01304(3) 0.2500
Sr1D_2 Sr 0.5000 -0.01304(3) 1.2500
Sr2D Sr 0.66554(2) -0.10099(3) 0.47196(5)
Sr2E Sr 0.33446(2) -0.10099(3) 1.02804(5)
Sr2F Sr 0.16554(2) 0.39901(3) 0.47196(5)
Sr2G Sr 0.83446(2) 0.39901(3) 1.02804(5)
O3D O 0.54095(18) -0.1017(2) 0.6652(4)
O3E O 0.45905(18) -0.1017(2) 0.8348(4)
O6D O 0.40706(17) -0.0277(2) 0.5360(4)
O6E O 0.59294(17) -0.0277(2) 0.9640(4)
O9F O 0.3378(2) 0.2457(2) 0.4555(5)
O9G O 0.6622(2) 0.2457(2) 1.0445(5)
C5 C 0.5072(10) 0.3990(6) 0.3734(13)
H14 H 0.5099 0.3669 0.4520
H15 H 0.4709 0.4324 0.3535
H16 H 0.5453 0.4293 0.3948
N1 N 0.5000 0.3502(11) 0.2500
H17 H 0.4654 0.3195 0.2288
C5A C 0.4928(10) 0.3990(6) 0.1266(13)
H14A H 0.4901 0.3669 0.0480
H15A H 0.5291 0.4324 0.1465
H16A H 0.4547 0.4293 0.1052
H17A H 0.5346 0.3195 0.2712
loop_
_geom_bond_atom_site_label_1
_geom_bond_atom_site_label_2
_geom_bond_site_symmetry_1
_geom_bond_site_symmetry_2
Sr1 O1 1_555 1_555
Sr2 O1 1_555 1_555
P1 O1 1_555 1_555
O2 Sr2 1_555 1_555
H1 O2 1_555 1_555
H2 O2 1_555 1_555
C1 P1 1_555 1_555
P2 C1 1_555 1_555
O3 P1 1_555 1_555
C2 C1 1_555 1_555
H3 C2 1_555 1_555
H4 C2 1_555 1_555
H5 C2 1_555 1_555
P3 C3 1_555 1_555
O4 P1 1_555 1_555
H6 O4 1_555 1_555
C3 P4 1_555 1_555
P4 O8 1_555 1_555
O5 Sr1 1_555 1_555
C4 C3 1_555 1_555
H7 C4 1_555 1_555
H8 C4 1_555 1_555
H9 C4 1_555 1_555
O6 P2 1_555 1_555
O7 P2 1_555 1_555
O8 Sr2 1_555 1_555
O9 P3 1_555 1_555
O10 Sr2 1_555 1_555
H10 O10 1_555 1_555
O11 P3 1_555 1_555
H11 O11 1_555 1_555
O12 P4 1_555 1_555
H12 O12 1_555 1_555
O13 Sr2 1_555 1_555
O14 C1 1_555 1_555
H13 O14 1_555 1_555
O15 P4 1_555 1_555
C5 H14 1_555 1_555
H15 C5 1_555 1_555
H16 C5 1_555 1_555
N1 C5 1_555 1_555
H17 N1 1_555 1_555
Sr2A O5 1_555 1_555
P1A O1A 1_555 1_555
O1A Sr1 1_555 1_555
O2A Sr2A 1_555 1_555
H1A O2A 1_555 1_555
H2A O2A 1_555 1_555
C1A P1A 1_555 1_555
P2A C1A 1_555 1_555
O3A P1A 1_555 1_555
C2A C1A 1_555 1_555
H3A C2A 1_555 1_555
H4A C2A 1_555 1_555
H5A C2A 1_555 1_555
P3A C3A 1_555 1_555
O4A P1A 1_555 1_555
H6A O4A 1_555 1_555
C3A P4A 1_555 1_555
P4A O8A 1_555 1_555
O5A Sr1 1_555 1_555
C4A C3A 1_555 1_555
H7A C4A 1_555 1_555
H8A C4A 1_555 1_555
H9A C4A 1_555 1_555
O6A P2A 1_555 1_555
O7A P2A 1_555 1_555
O8A Sr2A 1_555 1_555
O9A P3A 1_555 1_555
O10A Sr2A 1_555 1_555
H10A O10A 1_555 1_555
O11A P3A 1_555 1_555
H11A O11A 1_555 1_555
O12A P4A 1_555 1_555
H12A O12A 1_555 1_555
O13A Sr2A 1_555 1_555
O14A C1A 1_555 1_555
H13A O14A 1_555 1_555
O15A P4A 1_555 1_555
Sr1D O3 1_555 1_555
Sr1D_2 O3A 1_555 1_555
Sr2D O6 1_555 1_555
Sr2E O6A 1_555 1_555
Sr2F O9 1_555 1_555
Sr2G O9A 1_555 1_555
O3D Sr1 1_555 1_555
O3E Sr1 1_555 1_555
O6D Sr1 1_555 1_555
O6E Sr1 1_555 1_555
O9F Sr2 1_555 1_555
O9G Sr2A 1_555 1_555
C5A N1 1_555 1_555
H14A C5A 1_555 1_555
H15A C5A 1_555 1_555
H16A C5A 1_555 1_555
H17A N1 1_555 1_555
Sr2 O5A 1_555 1_555
Sr2 O6D 1_555 1_555
P2 O5 1_555 1_555
P3 O13 1_555 1_555
C3 O10 1_555 1_555
O6 Sr1D 1_555 1_555
Sr2A O1A 1_555 1_555
Sr2A O6E 1_555 1_555
P2A O5A 1_555 1_555
P3A O13A 1_555 1_555
C3A O10A 1_555 1_555
O6A Sr1D_2 1_555 1_555

#END
