
#######################################################################
#
#                 Cambridge Crystallographic Data Centre
#                                CCDC 
#
#######################################################################
#
# If this CIF has been generated from an entry in the Cambridge 
# Structural Database, then it will include bibliographic, chemical, 
# crystal, experimental, refinement or atomic coordinate data resulting 
# from the CCDC's data processing and validation procedures.
#
#######################################################################

data_FEFVES
_chemical_formula_moiety         '(C19 H21 Cl1 N4 O7 Zn1)n'
_symmetry_cell_setting           monoclinic
_symmetry_space_group_name_H-M   'C c'
_symmetry_Int_Tables_number      9
_space_group_name_Hall           'C -2yc'
loop_
_symmetry_equiv_pos_site_id
_symmetry_equiv_pos_as_xyz
1 x,y,z
2 x,-y,1/2+z
3 1/2+x,1/2+y,z
4 1/2+x,1/2-y,1/2+z
_cell_length_a                   14.7857(12)
_cell_length_b                   16.5284(13)
_cell_length_c                   10.2302(8)
_cell_angle_alpha                90
_cell_angle_beta                 119.1040(10)
_cell_angle_gamma                90
_cell_volume                     2184.43
loop_
_atom_site_label
_atom_site_type_symbol
_atom_site_fract_x
_atom_site_fract_y
_atom_site_fract_z
_atom_site_U_iso_or_equiv
_atom_site_thermal_displace_type
Zn1 Zn 0.04693(4) 0.04566(3) -0.31685(5) 0.0354 Uani
C1 C 0.1235(3) -0.1124(3) -0.1623(5) 0.0347 Uani
C2 C 0.1682(4) -0.1883(3) -0.1194(6) 0.0446 Uani
C3 C 0.1980(5) -0.1890(4) -0.3151(7) 0.0511 Uani
C4 C 0.1537(4) -0.1137(4) -0.3594(6) 0.0459 Uani
C5 C 0.0812(4) -0.0661(3) -0.0765(5) 0.0340 Uani
N1 N 0.2060(4) -0.2273(3) -0.1965(6) 0.0511 Uani
N2 N 0.1154(3) -0.0752(3) -0.2834(4) 0.0363 Uani
O1 O 0.0963(3) -0.0949(2) 0.0450(4) 0.0406 Uani
O2 O 0.0347(3) -0.0017(2) -0.1344(4) 0.0413 Uani
N3 N -0.1058(3) 0.0225(3) -0.4813(5) 0.0387 Uani
N4 N -0.4866(3) -0.3392(2) -1.2606(4) 0.0377 Uani
C6 C -0.1531(4) 0.0763(3) -0.5911(7) 0.0445 Uani
C7 C -0.2498(5) 0.0652(4) -0.7119(7) 0.0466 Uani
C8 C -0.3040(4) -0.0058(3) -0.7207(6) 0.0471 Uani
C9 C -0.2562(5) -0.0605(4) -0.6031(8) 0.0546 Uani
C10 C -0.1585(5) -0.0450(3) -0.4880(7) 0.0492 Uani
C11 C -0.4469(6) -0.2710(3) -1.2817(7) 0.0533 Uani
C12 C -0.4572(6) -0.1978(4) -1.2275(9) 0.0609 Uani
C13 C -0.5093(4) -0.1912(3) -1.1482(6) 0.0436 Uani
C14 C -0.5528(4) -0.2611(3) -1.1311(7) 0.0450 Uani
C15 C -0.5409(4) -0.3331(3) -1.1902(6) 0.0441 Uani
C16 C -0.4095(5) -0.0215(4) -0.8508(8) 0.0575 Uani
C17 C -0.4078(5) -0.0955(4) -0.9396(7) 0.0562 Uani
C18 C -0.5132(5) -0.1131(4) -1.0745(7) 0.0527 Uani
C19 C 0.3076(8) 0.0446(6) -0.0273(15) 0.0860 Uani
O3 O 0.2225(4) 0.0840(3) -0.1348(6) 0.0657 Uani
H1 H 0.160(4) -0.219(3) -0.030(6) 0.0300 Uiso
H2 H 0.213(4) -0.219(3) -0.375(6) 0.0300 Uiso
H3 H 0.149(5) -0.091(4) -0.441(7) 0.0400 Uiso
H4 H -0.388(4) -0.147(3) -0.867(6) 0.0310 Uiso
H5 H -0.568(6) -0.114(4) -1.047(8) 0.0530 Uiso
H6 H -0.360(7) -0.088(5) -0.954(9) 0.0600 Uiso
H7 H -0.470(8) -0.025(5) -0.833(13) 0.0800 Uiso
H8 H -0.446(8) 0.032(6) -0.927(12) 0.0900 Uiso
H9 H -0.570(5) -0.382(4) -1.180(8) 0.0500 Uiso
H10 H -0.597(5) -0.266(4) -1.075(8) 0.0510 Uiso
H11 H -0.542(9) -0.075(8) -1.140(14) 0.1000 Uiso
H12 H -0.438(9) -0.152(7) -1.240(11) 0.1000 Uiso
H13 H -0.395(6) -0.273(5) -1.322(8) 0.0600 Uiso
H14 H -0.134(5) -0.079(4) -0.415(8) 0.0420 Uiso
H15 H -0.290(6) -0.111(5) -0.588(9) 0.0700 Uiso
H16 H -0.279(5) 0.099(4) -0.776(8) 0.0400 Uiso
H17 H -0.116(5) 0.123(4) -0.592(6) 0.0370 Uiso
H18 H 0.294(6) 0.016(5) 0.047(9) 0.0560 Uiso
H19 H 0.356(8) 0.048(4) 0.064(12) 0.0560 Uiso
H20 H 0.329(6) 0.029(5) -0.096(9) 0.0560 Uiso
H21 H 0.233(9) 0.115(7) -0.204(13) 0.1000 Uiso
Zn1A Zn 0.04693(4) -0.04566(3) 0.18315(5) 0.0354 Uani
Zn1B Zn -0.45307(4) -0.45434(3) -1.31685(5) 0.0354 Uani
O1A O 0.0963(3) 0.0949(2) -0.4550(4) 0.0406 Uani
N4B N 0.0134(3) 0.1608(2) -0.2606(4) 0.0377 Uani
Cl1 Cl 0.41144(15) 0.19534(14) -0.2238(2) 0.0755 Uani
O4 O 0.5065(8) 0.1758(7) -0.0973(11) 0.1459 Uani
O5 O 0.3766(9) 0.1275(7) -0.3147(14) 0.1620 Uani
O6 O 0.3357(10) 0.2124(6) -0.1838(16) 0.1543 Uani
O7 O 0.4224(9) 0.2632(8) -0.2968(13) 0.1511 Uani
loop_
_atom_site_aniso_label
_atom_site_aniso_U_11
_atom_site_aniso_U_22
_atom_site_aniso_U_33
_atom_site_aniso_U_23
_atom_site_aniso_U_13
_atom_site_aniso_U_12
Zn1 0.0495(3) 0.0315(2) 0.0318(2) 0.0004(2) 0.02503(19) 0.0023(3)
C1 0.036 0.036 0.034 -0.0045 0.0184 -0.0029
C2 0.051 0.04 0.046 0.003 0.026 0.005
C3 0.055 0.058 0.044 -0.006 0.027 0.013
C4 0.053 0.057 0.033 0.001 0.025 0.007
C5 0.041 0.033 0.033 -0.0006 0.0219 -0.0021
N1 0.058 0.046 0.055 0 0.032 0.01
N2 0.041 0.039 0.0322 -0.0017 0.0203 -0.0007
O1 0.054 0.0399 0.0368 0.0062 0.0291 0.0063
O2 0.061 0.0339 0.0402 0.0041 0.0335 0.0089
N3 0.046(2) 0.0373(19) 0.038(2) -0.0021(17) 0.0246(18) -0.0016(17)
N4 0.048 0.0323 0.0362 -0.0029 0.0232 -0.0014
C6 0.043(3) 0.041(3) 0.050(3) 0.002(2) 0.023(2) -0.004(2)
C7 0.051(3) 0.042(3) 0.045(3) 0.007(2) 0.022(3) 0.005(2)
C8 0.053(3) 0.041(3) 0.045(3) -0.012(2) 0.022(2) 0.003(2)
C9 0.060(3) 0.041(3) 0.059(3) -0.008(2) 0.026(3) -0.015(2)
C10 0.062(3) 0.038(3) 0.044(3) 0.002(2) 0.023(3) -0.004(2)
C11 0.08 0.039 0.062 -0.008 0.051 -0.011
C12 0.089 0.038 0.078 -0.012 0.058 -0.013
C13 0.045 0.041 0.04 -0.01 0.017 0.001
C14 0.044 0.045 0.052 0 0.028 0.005
C15 0.048 0.037 0.052 -0.002 0.028 -0.001
C16 0.051(3) 0.050(3) 0.059(3) -0.019(3) 0.017(3) 0.001(3)
C17 0.052(3) 0.050(3) 0.057(3) -0.018(3) 0.019(3) 0.003(2)
C18 0.054(3) 0.041(3) 0.053(3) -0.015(2) 0.018(3) 0.004(2)
C19 0.059(5) 0.095(7) 0.083(6) 0.012(5) 0.018(5) 0.005(4)
O3 0.053(2) 0.068(3) 0.068(3) 0.013(2) 0.023(2) -0.004(2)
Zn1A 0.0495 0.0315 0.0318 -0.0004 0.02503 -0.0023
Zn1B 0.0495 0.0315 0.0318 0.0004 0.02503 0.0023
O1A 0.054(2) 0.0399(17) 0.0368(16) -0.0062(14) 0.0291(15) -0.0063(14)
N4B 0.048 0.0323 0.0362 -0.0029 0.0232 -0.0014
Cl1 0.0792(11) 0.0870(12) 0.0675(10) -0.0163(9) 0.0414(9) -0.0284(9)
O4 0.132(8) 0.153(9) 0.100(6) 0.008(6) 0.015(5) -0.037(6)
O5 0.142(8) 0.143(8) 0.154(8) -0.077(7) 0.035(7) 0.001(6)
O6 0.211(11) 0.104(6) 0.244(13) -0.007(7) 0.186(12) -0.001(6)
O7 0.152(8) 0.174(10) 0.142(8) 0.048(7) 0.083(7) -0.028(7)
loop_
_geom_bond_atom_site_label_1
_geom_bond_atom_site_label_2
_geom_bond_site_symmetry_1
_geom_bond_site_symmetry_2
Zn1 N2 1_555 1_555
C1 C2 1_555 1_555
C2 N1 1_555 1_555
C3 C4 1_555 1_555
C4 N2 1_555 1_555
C5 C1 1_555 1_555
N1 C3 1_555 1_555
N2 C1 1_555 1_555
O1 C5 1_555 1_555
O2 Zn1 1_555 1_555
N3 Zn1 1_555 1_555
N4 C11 1_555 1_555
C6 N3 1_555 1_555
C7 C6 1_555 1_555
C8 C7 1_555 1_555
C9 C8 1_555 1_555
C10 N3 1_555 1_555
C11 C12 1_555 1_555
C12 C13 1_555 1_555
C13 C14 1_555 1_555
C14 C15 1_555 1_555
C15 N4 1_555 1_555
C16 C8 1_555 1_555
C17 C16 1_555 1_555
C18 C13 1_555 1_555
C19 O3 1_555 1_555
O3 Zn1 1_555 1_555
H1 C2 1_555 1_555
H2 C3 1_555 1_555
H3 C4 1_555 1_555
H4 C17 1_555 1_555
H5 C18 1_555 1_555
H6 C17 1_555 1_555
H7 C16 1_555 1_555
H8 C16 1_555 1_555
H9 C15 1_555 1_555
H10 C14 1_555 1_555
H11 C18 1_555 1_555
H12 C12 1_555 1_555
H13 C11 1_555 1_555
H14 C10 1_555 1_555
H15 C9 1_555 1_555
H16 C7 1_555 1_555
H17 C6 1_555 1_555
H18 C19 1_555 1_555
H19 C19 1_555 1_555
H20 C19 1_555 1_555
H21 O3 1_555 1_555
Cl1 O4 1_555 1_555
O5 Cl1 1_555 1_555
O6 Cl1 1_555 1_555
O7 Cl1 1_555 1_555
Zn1A O1 1_555 1_555
Zn1B N4 1_555 1_555
O1A Zn1 1_555 1_555
N4B Zn1 1_555 1_555
C5 O2 1_555 1_555
C9 C10 1_555 1_555
C17 C18 1_555 1_555

#END
