
#######################################################################
#
#                 Cambridge Crystallographic Data Centre
#                                CCDC 
#
#######################################################################
#
# If this CIF has been generated from an entry in the Cambridge 
# Structural Database, then it will include bibliographic, chemical, 
# crystal, experimental, refinement or atomic coordinate data resulting 
# from the CCDC's data processing and validation procedures.
#
#######################################################################

data_BIHMUC
_chemical_formula_moiety         '(C52 H48 Co3 N10 O22)n'
_symmetry_cell_setting           triclinic
_symmetry_space_group_name_H-M   'P -1'
_symmetry_Int_Tables_number      2
_space_group_name_Hall           '-P 1'
loop_
_symmetry_equiv_pos_site_id
_symmetry_equiv_pos_as_xyz
1 x,y,z
2 -x,-y,-z
_cell_length_a                   10.0406(15)
_cell_length_b                   11.2142(16)
_cell_length_c                   14.310(2)
_cell_angle_alpha                87.454(3)
_cell_angle_beta                 84.296(3)
_cell_angle_gamma                68.867(2)
_cell_volume                     1495.4
loop_
_atom_site_label
_atom_site_type_symbol
_atom_site_fract_x
_atom_site_fract_y
_atom_site_fract_z
C1 C 0.1093(4) 0.0832(4) 1.3814(3)
C2 C 0.2135(4) 0.1349(4) 1.3310(3)
C3 C 0.3515(4) 0.1027(4) 1.3599(3)
H1 H 0.3787 0.0470 1.4105
C4 C 0.4477(4) 0.1527(4) 1.3142(3)
C5 C 0.5935(5) 0.1193(4) 1.3489(3)
C6 C 0.4074(4) 0.2368(5) 1.2388(3)
H2 H 0.4728 0.2694 1.2075
C7 C 0.2707(5) 0.2724(5) 1.2102(3)
C8 C 0.2230(5) 0.3670(5) 1.1309(4)
C9 C 0.1733(5) 0.2198(5) 1.2560(3)
H3 H 0.0820 0.2419 1.2361
C10 C -0.1608(7) 0.7729(6) 1.0679(5)
H4 H -0.0955 0.7871 1.0221
C11 C -0.2602(9) 0.8769(7) 1.1154(6)
H5 H -0.2589 0.9587 1.1037
C12 C -0.3611(8) 0.8571(6) 1.1804(6)
H6 H -0.4321 0.9256 1.2111
C13 C -0.3546(6) 0.7341(6) 1.1988(4)
C14 C -0.2485(6) 0.6346(5) 1.1496(4)
H7 H -0.2434 0.5512 1.1629
C15 C -0.4688(7) 0.6125(6) 1.3062(5)
C16 C -0.5860(6) 0.6270(5) 1.3838(4)
C17 C -0.6443(5) 0.7373(5) 1.4357(4)
H8 H -0.6143 0.8053 1.4186
C18 C -0.7851(5) 0.6535(5) 1.5331(4)
H9 H -0.8534 0.6624 1.5838
C19 C -0.7320(6) 0.5382(5) 1.4850(4)
C20 C -0.6296(7) 0.5264(6) 1.4083(4)
H10 H -0.5918 0.4509 1.3743
C21 C -0.7829(10) 0.4310(7) 1.5113(6)
C22 C -0.9090(5) 0.3376(5) 1.6283(4)
C23 C -1.0142(7) 0.3731(6) 1.7021(4)
H11 H -1.0486 0.4563 1.7247
C24 C -1.0672(7) 0.2839(6) 1.7419(5)
H12 H -1.1380 0.3060 1.7918
C25 C -1.0153(6) 0.1614(5) 1.7075(4)
H13 H -1.0521 0.1016 1.7349
C26 C -0.8616(5) 0.2141(5) 1.5980(4)
H14 H -0.7897 0.1896 1.5488
N1 N -0.1545(4) 0.6539(4) 1.0846(3)
N2 N -0.4595(7) 0.7157(5) 1.2665(4)
H15 H -0.5285 0.7849 1.2841
N3 N -0.7429(4) 0.7522(4) 1.5102(3)
N4 N -0.8533(6) 0.4288(4) 1.5879(4)
H16 H -0.8710 0.4947 1.6222
N5 N -0.9143(4) 0.1258(4) 1.6363(3)
O1 O 0.1473(3) 0.0072(3) 1.4481(2)
O2 O 0.1438(4) 0.6012(4) 0.9887(3)
H17 H 0.2257 0.5511 1.0032
H18 H 0.1128 0.6644 1.0260
O3 O -0.0145(3) 0.1183(3) 1.3529(2)
O4 O 0.0929(3) 0.4043(3) 1.1170(2)
O5 O 0.3155(4) 0.4006(4) 1.0835(3)
O6 O 0.6189(3) 0.0599(3) 1.4254(2)
O7 O 0.6900(3) 0.1504(4) 1.3023(3)
O8 O -0.6566(10) 0.3097(8) 1.5074(7)
O9 O -0.3654(6) 0.5078(5) 1.2955(4)
Co1 Co -0.82873(6) -0.06391(6) 1.57983(4)
Co2 Co 0.0000 0.5000 1.0000
C1A C -1.1093(4) -0.0832(4) 1.6186(3)
C2A C -1.2135(4) -0.1349(4) 1.6690(3)
C3A C -1.3515(4) -0.1027(4) 1.6401(3)
H1A H -1.3787 -0.0470 1.5895
C4A C -1.4477(4) -0.1527(4) 1.6858(3)
C5A C -1.5935(5) -0.1193(4) 1.6511(3)
C6A C -1.4074(4) -0.2368(5) 1.7612(3)
H2A H -1.4728 -0.2694 1.7925
C7A C -1.2707(5) -0.2724(5) 1.7898(3)
C8A C -1.2230(5) -0.3670(5) 1.8691(4)
C9A C -1.1733(5) -0.2198(5) 1.7440(3)
H3A H -1.0820 -0.2419 1.7639
C10A C -0.8392(7) -0.7729(6) 1.9321(5)
H4A H -0.9045 -0.7871 1.9779
C11A C -0.7398(9) -0.8769(7) 1.8846(6)
H5A H -0.7411 -0.9587 1.8963
C12A C -0.6389(8) -0.8571(6) 1.8196(6)
H6A H -0.5679 -0.9256 1.7889
C13A C -0.6454(6) -0.7341(6) 1.8012(4)
C14A C -0.7515(6) -0.6346(5) 1.8504(4)
H7A H -0.7566 -0.5512 1.8371
C15A C -0.5312(7) -0.6125(6) 1.6938(5)
C16A C -0.4140(6) -0.6270(5) 1.6162(4)
C17A C -0.3557(5) -0.7373(5) 1.5643(4)
H8A H -0.3857 -0.8053 1.5814
C18A C -0.2149(5) -0.6535(5) 1.4669(4)
H9A H -0.1466 -0.6624 1.4162
C19A C -0.2680(6) -0.5382(5) 1.5150(4)
C20A C -0.3704(7) -0.5264(6) 1.5917(4)
H10A H -0.4082 -0.4509 1.6257
C21A C -0.2171(10) -0.4310(7) 1.4887(6)
C22A C -0.0910(5) -0.3376(5) 1.3717(4)
C23A C 0.0142(7) -0.3731(6) 1.2979(4)
H11A H 0.0486 -0.4563 1.2753
C24A C 0.0672(7) -0.2839(6) 1.2581(5)
H12A H 0.1380 -0.3060 1.2082
C25A C 0.0153(6) -0.1614(5) 1.2925(4)
H13A H 0.0521 -0.1016 1.2651
C26A C -0.1384(5) -0.2141(5) 1.4020(4)
H14A H -0.2103 -0.1896 1.4512
N1A N -0.8455(4) -0.6539(4) 1.9154(3)
N2A N -0.5405(7) -0.7157(5) 1.7335(4)
H15A H -0.4715 -0.7849 1.7159
N3A N -0.2571(4) -0.7522(4) 1.4898(3)
N4A N -0.1467(6) -0.4288(4) 1.4121(4)
H16A H -0.1290 -0.4947 1.3778
N5A N -0.0857(4) -0.1258(4) 1.3637(3)
O1A O -1.1473(3) -0.0072(3) 1.5519(2)
O3A O -0.9855(3) -0.1183(3) 1.6471(2)
O4A O -1.0929(3) -0.4043(3) 1.8830(2)
O5A O -1.3155(4) -0.4006(4) 1.9165(3)
O6A O -1.6189(3) -0.0599(3) 1.5746(2)
O7A O -1.6900(3) -0.1504(4) 1.6977(3)
O8A O -0.3434(10) -0.3097(8) 1.4926(7)
O9A O -0.6346(6) -0.5078(5) 1.7045(4)
Co1A Co -0.17127(6) 0.06391(6) 1.42017(4)
O2A O -0.1438(4) 0.3988(4) 1.0113(3)
H17A H -0.2257 0.4489 0.9968
H18A H -0.1128 0.3356 0.9740
N1A_2 N 0.1545(4) 0.3461(4) 0.9154(3)
N3_2 N -0.7429(4) -0.2478(4) 1.5102(3)
N3A_2 N -0.2571(4) 0.2478(4) 1.4898(3)
O1_2 O -0.8527(3) 0.0072(3) 1.4481(2)
O1A_2 O -0.1473(3) -0.0072(3) 1.5519(2)
O4A_2 O -0.0929(3) 0.5957(3) 0.8830(2)
O6_2 O -0.3811(3) 0.0599(3) 1.4254(2)
O6A_2 O -0.6189(3) -0.0599(3) 1.5746(2)
O7_2 O -0.3100(3) 0.1504(4) 1.3023(3)
O7A_2 O -0.6900(3) -0.1504(4) 1.6977(3)
Co1_2 Co -1.82873(6) -0.06391(6) 1.57983(4)
Co1_3 Co -0.82873(6) 0.93609(6) 1.57983(4)
Co1_4 Co 0.17127(6) -0.06391(6) 1.57983(4)
Co1A_2 Co -1.17127(6) 0.06391(6) 1.42017(4)
Co1A_3 Co -0.17127(6) -0.93609(6) 1.42017(4)
Co1A_4 Co 0.82873(6) 0.06391(6) 1.42017(4)
Co2_2 Co -1.0000 -0.5000 2.0000
O10 O -0.5854(3) 0.7539(3) 1.0023(2)
H19 H -0.5071 0.7661 1.0047
H20 H -0.6304 0.7987 0.9581
O11 O 0.2330(4) 0.7467(4) 0.8597(3)
H21 H 0.2307 0.6975 0.9062
H22 H 0.2825 0.7025 0.8131
O12 O 0.9717(3) 0.9625(3) 0.9104(2)
H23 H 1.0010 0.9953 0.9527
H24 H 1.0433 0.9128 0.8769
O13 O 0.7071(10) 0.0974(10) 0.8401(7)
H25 H 0.6707 0.1501 0.8847
H26 H 0.7625 0.0271 0.8616
loop_
_geom_bond_atom_site_label_1
_geom_bond_atom_site_label_2
_geom_bond_site_symmetry_1
_geom_bond_site_symmetry_2
C1 C2 1_555 1_555
C2 C3 1_555 1_555
C3 H1 1_555 1_555
C4 C3 1_555 1_555
C5 C4 1_555 1_555
C6 C4 1_555 1_555
H2 C6 1_555 1_555
C7 C6 1_555 1_555
C8 C7 1_555 1_555
C9 C2 1_555 1_555
H3 C9 1_555 1_555
C10 H4 1_555 1_555
C11 C10 1_555 1_555
H5 C11 1_555 1_555
C12 C11 1_555 1_555
H6 C12 1_555 1_555
C13 C12 1_555 1_555
C14 C13 1_555 1_555
H7 C14 1_555 1_555
C15 C16 1_555 1_555
C16 C17 1_555 1_555
C17 H8 1_555 1_555
C18 H9 1_555 1_555
C19 C18 1_555 1_555
C20 C16 1_555 1_555
H10 C20 1_555 1_555
C21 C19 1_555 1_555
C22 C23 1_555 1_555
C23 H11 1_555 1_555
C24 C23 1_555 1_555
H12 C24 1_555 1_555
C25 C24 1_555 1_555
H13 C25 1_555 1_555
C26 C22 1_555 1_555
H14 C26 1_555 1_555
N1 C10 1_555 1_555
N2 C13 1_555 1_555
H15 N2 1_555 1_555
N3 C17 1_555 1_555
N4 C21 1_555 1_555
H16 N4 1_555 1_555
N5 C25 1_555 1_555
O1 C1 1_555 1_555
O2 H17 1_555 1_555
H18 O2 1_555 1_555
O3 C1 1_555 1_555
O4 C8 1_555 1_555
O5 C8 1_555 1_555
O6 C5 1_555 1_555
O7 C5 1_555 1_555
O8 C21 1_555 1_555
O9 C15 1_555 1_555
Co1 N5 1_555 1_555
Co2 N1 1_555 1_555
O10 H19 1_555 1_555
H20 O10 1_555 1_555
O11 H21 1_555 1_555
H22 O11 1_555 1_555
O12 H23 1_555 1_555
H24 O12 1_555 1_555
O13 H25 1_555 1_555
H26 O13 1_555 1_555
C1A C2A 1_555 1_555
C2A C3A 1_555 1_555
C3A H1A 1_555 1_555
C4A C3A 1_555 1_555
C5A C4A 1_555 1_555
C6A C4A 1_555 1_555
H2A C6A 1_555 1_555
C7A C6A 1_555 1_555
C8A C7A 1_555 1_555
C9A C2A 1_555 1_555
H3A C9A 1_555 1_555
C10A H4A 1_555 1_555
C11A C10A 1_555 1_555
H5A C11A 1_555 1_555
C12A C11A 1_555 1_555
H6A C12A 1_555 1_555
C13A C12A 1_555 1_555
C14A C13A 1_555 1_555
H7A C14A 1_555 1_555
C15A C16A 1_555 1_555
C16A C17A 1_555 1_555
C17A H8A 1_555 1_555
C18A H9A 1_555 1_555
C19A C18A 1_555 1_555
C20A C16A 1_555 1_555
H10A C20A 1_555 1_555
C21A C19A 1_555 1_555
C22A C23A 1_555 1_555
C23A H11A 1_555 1_555
C24A C23A 1_555 1_555
H12A C24A 1_555 1_555
C25A C24A 1_555 1_555
H13A C25A 1_555 1_555
C26A C22A 1_555 1_555
H14A C26A 1_555 1_555
N1A C10A 1_555 1_555
N2A C13A 1_555 1_555
H15A N2A 1_555 1_555
N3A C17A 1_555 1_555
N4A C21A 1_555 1_555
H16A N4A 1_555 1_555
N5A C25A 1_555 1_555
O1A C1A 1_555 1_555
O3A Co1 1_555 1_555
O4A C8A 1_555 1_555
O5A C8A 1_555 1_555
O6A C5A 1_555 1_555
O7A C5A 1_555 1_555
O8A C21A 1_555 1_555
O9A C15A 1_555 1_555
Co1A O3 1_555 1_555
O2A Co2 1_555 1_555
H17A O2A 1_555 1_555
H18A O2A 1_555 1_555
N1A_2 Co2 1_555 1_555
N3_2 Co1 1_555 1_555
N3A_2 Co1A 1_555 1_555
O1_2 Co1 1_555 1_555
O1A_2 Co1A 1_555 1_555
O4A_2 Co2 1_555 1_555
O6_2 Co1A 1_555 1_555
O6A_2 Co1 1_555 1_555
O7_2 Co1A 1_555 1_555
O7A_2 Co1 1_555 1_555
Co1_2 O6A 1_555 1_555
Co1_3 N3 1_555 1_555
Co1_4 O1 1_555 1_555
Co1A_2 O1A 1_555 1_555
Co1A_3 N3A 1_555 1_555
Co1A_4 O6 1_555 1_555
Co2_2 N1A 1_555 1_555
C7 C9 1_555 1_555
C14 N1 1_555 1_555
C15 N2 1_555 1_555
C18 N3 1_555 1_555
C19 C20 1_555 1_555
C22 N4 1_555 1_555
C26 N5 1_555 1_555
O2 Co2 1_555 1_555
O4 Co2 1_555 1_555
O7 Co1A_4 1_555 1_555
C1A O3A 1_555 1_555
C7A C9A 1_555 1_555
C14A N1A 1_555 1_555
C15A N2A 1_555 1_555
C18A N3A 1_555 1_555
C19A C20A 1_555 1_555
C22A N4A 1_555 1_555
C26A N5A 1_555 1_555
N5A Co1A 1_555 1_555
O4A Co2_2 1_555 1_555
O7A Co1_2 1_555 1_555

#END
