
#######################################################################
#
#                 Cambridge Crystallographic Data Centre
#                                CCDC 
#
#######################################################################
#
# If this CIF has been generated from an entry in the Cambridge 
# Structural Database, then it will include bibliographic, chemical, 
# crystal, experimental, refinement or atomic coordinate data resulting 
# from the CCDC's data processing and validation procedures.
#
#######################################################################

data_HUDMIE
_chemical_formula_moiety         'C48 H40 N12 O8 Zn10'
_symmetry_cell_setting           tetragonal
_symmetry_space_group_name_H-M   'P 42/m c m'
_symmetry_Int_Tables_number      132
_space_group_name_Hall           '-P 4c 2c'
loop_
_symmetry_equiv_pos_site_id
_symmetry_equiv_pos_as_xyz
1 x,y,z
2 -x,-y,z
3 -y,x,1/2+z
4 y,-x,1/2+z
5 -x,y,1/2-z
6 x,-y,1/2-z
7 y,x,-z
8 -y,-x,-z
9 -x,-y,-z
10 x,y,-z
11 y,-x,1/2-z
12 -y,x,1/2-z
13 x,-y,1/2+z
14 -x,y,1/2+z
15 -y,-x,z
16 y,x,z
_cell_length_a                   11.5382(14)
_cell_length_b                   11.5382(14)
_cell_length_c                   25.813(3)
_cell_angle_alpha                90
_cell_angle_beta                 90
_cell_angle_gamma                90
_cell_volume                     3436.49
loop_
_atom_site_label
_atom_site_type_symbol
_atom_site_fract_x
_atom_site_fract_y
_atom_site_fract_z
Zn1 Zn 0.59879(4) 0.40121(4) 0.20797(2)
O1 O 0.5000 0.5000 0.2500
O2 O 0.5697(3) 0.4303(3) 0.13443(16)
N1 N 0.5391(3) 0.2475(3) 0.22966(13)
C1 C 0.5624(4) 0.1366(4) 0.21756(17)
C2 C 0.5000 0.0649(5) 0.2500
C3 C 0.6436(6) 0.1073(4) 0.1750(2)
H1 H 0.6517 0.1734 0.1520
H2 H 0.6136 0.0417 0.1556
H3 H 0.7187 0.0875 0.1894
C4 C 0.5000 0.5000 0.0536(4)
C5 C 0.5000 0.5000 0.1128(3)
C6 C 0.6066(11) 0.4867(13) 0.0277(3)
C7 C 0.7215(15) 0.490(3) 0.0533(6)
H4 H 0.7228 0.4962 0.0897
C8 C 0.8307(15) 0.485(4) 0.0270(8)
H5 H 0.9005 0.4813 0.0457
O2A O 0.4303(3) 0.5697(3) 0.13443(16)
C6A C 0.3934(11) 0.5133(13) 0.0277(3)
C7A C 0.2785(15) 0.510(3) 0.0533(6)
H4A H 0.2772 0.5038 0.0897
C8A C 0.1693(15) 0.515(4) 0.0270(8)
H5A H 0.0995 0.5187 0.0457
O2F O 0.4303(3) 0.5697(3) -0.13443(16)
C4F C 0.5000 0.5000 -0.0536(4)
C5F C 0.5000 0.5000 -0.1128(3)
C6H C 0.3934(11) 0.5133(13) -0.0277(3)
C7H C 0.2785(15) 0.510(3) -0.0533(6)
H4H H 0.2772 0.5038 -0.0897
C8H C 0.1693(15) 0.515(4) -0.0270(8)
H5H H 0.0995 0.5187 -0.0457
O2G O 0.5697(3) 0.4303(3) -0.13443(16)
C6I C 0.6066(11) 0.4867(13) -0.0277(3)
C7I C 0.7215(15) 0.490(3) -0.0533(6)
H4I H 0.7228 0.4962 -0.0897
C8I C 0.8307(15) 0.485(4) -0.0270(8)
H5I H 0.9005 0.4813 -0.0457
C6N C 0.5133(13) 0.3934(11) 0.0277(3)
C7N C 0.510(3) 0.2785(15) 0.0533(6)
H4N H 0.5038 0.2772 0.0897
C8N C 0.515(4) 0.1693(15) 0.0270(8)
H5N H 0.5187 0.0995 0.0457
C6O C 0.4867(13) 0.6066(11) 0.0277(3)
C7O C 0.490(3) 0.7215(15) 0.0533(6)
H4O H 0.4962 0.7228 0.0897
C8O C 0.485(4) 0.8307(15) 0.0270(8)
H5O H 0.4813 0.9005 0.0457
C6F C 0.4867(13) 0.6066(11) -0.0277(3)
C7F C 0.490(3) 0.7215(15) -0.0533(6)
H4F H 0.4962 0.7228 -0.0897
C8F C 0.485(4) 0.8307(15) -0.0270(8)
H5F H 0.4813 0.9005 -0.0457
C6G C 0.5133(13) 0.3934(11) -0.0277(3)
C7G C 0.510(3) 0.2785(15) -0.0533(6)
H4G H 0.5038 0.2772 -0.0897
C8G C 0.515(4) 0.1693(15) -0.0270(8)
H5G H 0.5187 0.0995 -0.0457
N1A N 0.4609(3) -0.2475(3) 0.22966(13)
C1A C 0.4376(4) -0.1366(4) 0.21756(17)
C2A C 0.5000 -0.0649(5) 0.2500
C3A C 0.3564(6) -0.1073(4) 0.1750(2)
H1A H 0.3483 -0.1734 0.1520
H2A H 0.3864 -0.0417 0.1556
H3A H 0.2813 -0.0875 0.1894
N1D N 0.4609(3) 0.2475(3) 0.27034(13)
C1D C 0.4376(4) 0.1366(4) 0.28244(17)
C3D C 0.3564(6) 0.1073(4) 0.3250(2)
H1D H 0.3483 0.1734 0.3480
H2D H 0.3864 0.0417 0.3444
H3D H 0.2813 0.0875 0.3106
N1E N 0.5391(3) -0.2475(3) 0.27034(13)
C1E C 0.5624(4) -0.1366(4) 0.28244(17)
C3E C 0.6436(6) -0.1073(4) 0.3250(2)
H1E H 0.6517 -0.1734 0.3480
H2E H 0.6136 -0.0417 0.3444
H3E H 0.7187 -0.0875 0.3106
Zn1A Zn 0.40121(4) 0.59879(4) 0.20797(2)
N1A_2 N 0.4609(3) 0.7525(3) 0.22966(13)
C1A_2 C 0.4376(4) 0.8634(4) 0.21756(17)
C2A_2 C 0.5000 0.9351(5) 0.2500
C3A_2 C 0.3564(6) 0.8927(4) 0.1750(2)
H1A_2 H 0.3483 0.8266 0.1520
H2A_2 H 0.3864 0.9583 0.1556
H3A_2 H 0.2813 0.9125 0.1894
N1_2 N 0.5391(3) 1.2475(3) 0.22966(13)
C1_2 C 0.5624(4) 1.1366(4) 0.21756(17)
C2_2 C 0.5000 1.0649(5) 0.2500
C3_2 C 0.6436(6) 1.1073(4) 0.1750(2)
H1_2 H 0.6517 1.1734 0.1520
H2_2 H 0.6136 1.0417 0.1556
H3_2 H 0.7187 1.0875 0.1894
N1E_2 N 0.5391(3) 0.7525(3) 0.27034(13)
C1E_2 C 0.5624(4) 0.8634(4) 0.28244(17)
C3E_2 C 0.6436(6) 0.8927(4) 0.3250(2)
H1E_2 H 0.6517 0.8266 0.3480
H2E_2 H 0.6136 0.9583 0.3444
H3E_2 H 0.7187 0.9125 0.3106
N1D_2 N 0.4609(3) 1.2475(3) 0.27034(13)
C1D_2 C 0.4376(4) 1.1366(4) 0.28244(17)
C3D_2 C 0.3564(6) 1.1073(4) 0.3250(2)
H1D_2 H 0.3483 1.1734 0.3480
H2D_2 H 0.3864 1.0417 0.3444
H3D_2 H 0.2813 1.0875 0.3106
Zn1D Zn 0.40121(4) 0.40121(4) 0.29203(2)
Zn1E Zn 0.59879(4) -0.40121(4) 0.29203(2)
Zn1_2 Zn 0.59879(4) 1.40121(4) 0.20797(2)
Zn1A_2 Zn 0.40121(4) -0.40121(4) 0.20797(2)
Zn1D_2 Zn 0.40121(4) 1.40121(4) 0.29203(2)
Zn1E_2 Zn 0.59879(4) 0.59879(4) 0.29203(2)
Zn1F Zn 0.40121(4) 0.59879(4) -0.20797(2)
Zn1G Zn 0.59879(4) 0.40121(4) -0.20797(2)
O1_2 O 0.5000 -0.5000 0.2500
O2D O 0.4303(3) 0.4303(3) 0.36557(16)
O2E O 0.5697(3) -0.4303(3) 0.36557(16)
N1J N 0.2475(3) 0.4609(3) 0.27034(13)
N1K N 0.7525(3) -0.4609(3) 0.27034(13)
N1N N 0.7525(3) 0.4609(3) 0.22966(13)
N1O N 0.2475(3) 0.5391(3) 0.22966(13)
loop_
_geom_bond_atom_site_label_1
_geom_bond_atom_site_label_2
_geom_bond_site_symmetry_1
_geom_bond_site_symmetry_2
Zn1 O1 1_555 1_555
O1 Zn1A 1_555 1_555
O2 Zn1 1_555 1_555
N1 Zn1 1_555 1_555
C1 N1 1_555 1_555
C2 C1 1_555 1_555
C3 C1 1_555 1_555
H1 C3 1_555 1_555
H2 C3 1_555 1_555
H3 C3 1_555 1_555
C4 C5 1_555 1_555
C5 O2 1_555 1_555
C6 C4 1_555 1_555
C7 C6 1_555 1_555
H4 C7 1_555 1_555
C8 C7 1_555 1_555
H5 C8 1_555 1_555
O2A C5 1_555 1_555
C6A C4 1_555 1_555
C7A C6A 1_555 1_555
H4A C7A 1_555 1_555
C8A C7A 1_555 1_555
H5A C8A 1_555 1_555
O2F C5F 1_555 1_555
C4F C5F 1_555 1_555
C5F O2G 1_555 1_555
C6H C6A 1_555 1_555
C7H C6H 1_555 1_555
H4H C7H 1_555 1_555
C8H C8A 1_555 1_555
H5H C8H 1_555 1_555
O2G Zn1G 1_555 1_555
C6I C6 1_555 1_555
C7I C6I 1_555 1_555
H4I C7I 1_555 1_555
C8I C8 1_555 1_555
H5I C8I 1_555 1_555
C6N C4 1_555 1_555
C7N C6N 1_555 1_555
H4N C7N 1_555 1_555
C8N C7N 1_555 1_555
H5N C8N 1_555 1_555
C6O C4 1_555 1_555
C7O C6O 1_555 1_555
H4O C7O 1_555 1_555
C8O C7O 1_555 1_555
H5O C8O 1_555 1_555
C6F C4F 1_555 1_555
C7F C6F 1_555 1_555
H4F C7F 1_555 1_555
C8F C8O 1_555 1_555
H5F C8F 1_555 1_555
C6G C4F 1_555 1_555
C7G C6G 1_555 1_555
H4G C7G 1_555 1_555
C8G C8N 1_555 1_555
H5G C8G 1_555 1_555
N1A C1A 1_555 1_555
C1A C2A 1_555 1_555
C2A C2 1_555 1_555
C3A C1A 1_555 1_555
H1A C3A 1_555 1_555
H2A C3A 1_555 1_555
H3A C3A 1_555 1_555
N1D N1 1_555 1_555
C1D C2 1_555 1_555
C3D C1D 1_555 1_555
H1D C3D 1_555 1_555
H2D C3D 1_555 1_555
H3D C3D 1_555 1_555
N1E N1A 1_555 1_555
C1E C2A 1_555 1_555
C3E C1E 1_555 1_555
H1E C3E 1_555 1_555
H2E C3E 1_555 1_555
H3E C3E 1_555 1_555
Zn1A O2A 1_555 1_555
N1A_2 Zn1A 1_555 1_555
C1A_2 N1A_2 1_555 1_555
C2A_2 C1A_2 1_555 1_555
C3A_2 C1A_2 1_555 1_555
H1A_2 C3A_2 1_555 1_555
H2A_2 C3A_2 1_555 1_555
H3A_2 C3A_2 1_555 1_555
N1_2 C1_2 1_555 1_555
C1_2 C2_2 1_555 1_555
C2_2 C2A_2 1_555 1_555
C3_2 C1_2 1_555 1_555
H1_2 C3_2 1_555 1_555
H2_2 C3_2 1_555 1_555
H3_2 C3_2 1_555 1_555
N1E_2 N1A_2 1_555 1_555
C1E_2 C2A_2 1_555 1_555
C3E_2 C1E_2 1_555 1_555
H1E_2 C3E_2 1_555 1_555
H2E_2 C3E_2 1_555 1_555
H3E_2 C3E_2 1_555 1_555
N1D_2 N1_2 1_555 1_555
C1D_2 C2_2 1_555 1_555
C3D_2 C1D_2 1_555 1_555
H1D_2 C3D_2 1_555 1_555
H2D_2 C3D_2 1_555 1_555
H3D_2 C3D_2 1_555 1_555
Zn1D O1 1_555 1_555
Zn1E N1E 1_555 1_555
Zn1_2 N1_2 1_555 1_555
Zn1A_2 N1A 1_555 1_555
Zn1D_2 N1D_2 1_555 1_555
Zn1E_2 O1 1_555 1_555
Zn1F O2F 1_555 1_555
O1_2 Zn1E 1_555 1_555
O2D Zn1D 1_555 1_555
O2E Zn1E 1_555 1_555
N1J Zn1D 1_555 1_555
N1K Zn1E 1_555 1_555
N1N Zn1 1_555 1_555
N1O Zn1A 1_555 1_555
C4F C6H 1_555 1_555
C4F C6I 1_555 1_555
C7H C8H 1_555 1_555
C7I C8I 1_555 1_555
C6N C6G 1_555 1_555
C6O C6F 1_555 1_555
C7F C8F 1_555 1_555
C7G C8G 1_555 1_555
N1D C1D 1_555 1_555
N1D Zn1D 1_555 1_555
N1E C1E 1_555 1_555
N1E_2 C1E_2 1_555 1_555
N1E_2 Zn1E_2 1_555 1_555
N1D_2 C1D_2 1_555 1_555
Zn1A_2 O1_2 1_555 1_555
N1J N1O 1_555 1_555

#END
