
#######################################################################
#
#                 Cambridge Crystallographic Data Centre
#                                CCDC 
#
#######################################################################
#
# If this CIF has been generated from an entry in the Cambridge 
# Structural Database, then it will include bibliographic, chemical, 
# crystal, experimental, refinement or atomic coordinate data resulting 
# from the CCDC's data processing and validation procedures.
#
#######################################################################

data_ROFGUQ
_chemical_formula_moiety         'C92 H64 Cd7 N7 O16 S2'
_symmetry_cell_setting           triclinic
_symmetry_space_group_name_H-M   'P -1'
_symmetry_Int_Tables_number      2
_space_group_name_Hall           '-P 1'
loop_
_symmetry_equiv_pos_site_id
_symmetry_equiv_pos_as_xyz
1 x,y,z
2 -x,-y,-z
_cell_length_a                   7.4493(18)
_cell_length_b                   15.362(4)
_cell_length_c                   15.558(4)
_cell_angle_alpha                85.950(19)
_cell_angle_beta                 87.333(18)
_cell_angle_gamma                82.947(18)
_cell_volume                     1761.22
loop_
_atom_site_label
_atom_site_type_symbol
_atom_site_fract_x
_atom_site_fract_y
_atom_site_fract_z
Cd1 Cd 0.15124(9) 0.63913(4) 0.86678(4)
S1 S 0.0962(4) 0.20853(18) 0.53733(16)
O1 O 0.1688(8) 0.4813(4) 0.8530(4)
O2 O 0.0539(9) 0.5767(5) 0.7515(4)
O3 O 0.7880(10) 0.2406(6) 0.2498(5)
O4 O 0.5786(9) 0.3317(5) 0.1861(4)
O5 O -0.0820(9) 0.2192(5) 0.5041(4)
O6 O 0.1614(10) 0.1264(5) 0.5841(4)
N1 N 0.241(2) 0.6164(8) 1.0061(5)
C1 C 0.238(2) 0.6919(7) 1.0507(6)
H1 H 0.2049 0.7480 1.0224
C2 C 0.2842(19) 0.6853(5) 1.1367(5)
H2 H 0.2822 0.7369 1.1671
C3 C 0.3330(16) 0.6032(5) 1.1781(4)
C4 C 0.3360(16) 0.5277(5) 1.1335(5)
H3 H 0.3694 0.4716 1.1619
C5 C 0.290(2) 0.5343(7) 1.0476(6)
H4 H 0.2920 0.4827 1.0171
C6 C 0.384(2) 0.5971(7) 1.2693(5)
H5 H 0.4066 0.6518 1.2889
C7 C 0.403(3) 0.5364(7) 1.3249(4)
H6 H 0.3653 0.4845 1.3057
C8 C 0.4678(12) 0.5219(7) 1.4116(4)
C9 C 0.4164(13) 0.5818(7) 1.4751(5)
H7 H 0.3593 0.6387 1.4581
C10 C 0.5543(14) 0.4392(6) 1.4403(6)
H8 H 0.5931 0.3971 1.3994
N2 N -0.0947(10) 0.7288(5) 0.9104(5)
C11 C -0.1438(12) 0.8053(6) 0.8641(6)
H9 H -0.0855 0.8155 0.8094
C12 C -0.2781(11) 0.8707(6) 0.8937(6)
H10 H -0.3134 0.9227 0.8589
C13 C -0.3579(12) 0.8563(7) 0.9765(6)
C14 C -0.3104(13) 0.7777(6) 1.0216(7)
H11 H -0.3660 0.7653 1.0766
C15 C -0.1818(14) 0.7169(6) 0.9868(6)
H12 H -0.1526 0.6626 1.0192
C16 C -0.4816(12) 0.9278(6) 1.0154(6)
H13 H -0.5474 0.9035 1.0674
C17 C -0.6121(12) 0.9889(6) 0.9607(6)
H14 H -0.5846 0.9783 0.8985
C18 C -0.8144(13) 0.9916(7) 0.9791(7)
C19 C -0.9289(14) 1.0448(7) 0.9297(7)
H15 H -0.8829 1.0775 0.8813
C20 C -0.8839(14) 0.9471(7) 1.0516(7)
H16 H -0.8041 0.9108 1.0888
C21 C 0.1127(12) 0.4990(7) 0.7770(6)
C22 C 0.1097(11) 0.4267(6) 0.7186(5)
C23 C 0.1767(12) 0.3426(6) 0.7435(5)
H17 H 0.2250 0.3307 0.7992
C24 C 0.1766(12) 0.2729(7) 0.6894(6)
H18 H 0.2212 0.2143 0.7078
C25 C 0.1087(12) 0.2935(6) 0.6083(5)
C26 C 0.0418(13) 0.3797(7) 0.5834(6)
H19 H -0.0026 0.3932 0.5271
C27 C 0.0391(13) 0.4451(6) 0.6387(5)
H20 H -0.0117 0.5032 0.6218
C28 C 0.6326(16) 0.2751(7) 0.2463(7)
C29 C 0.4964(13) 0.2555(6) 0.3165(6)
C30 C 0.5558(13) 0.2108(6) 0.3913(6)
H21 H 0.6797 0.1880 0.3957
C31 C 0.4348(14) 0.1986(6) 0.4607(6)
H22 H 0.4755 0.1709 0.5140
C32 C 0.2505(13) 0.2285(6) 0.4497(6)
C33 C 0.1917(13) 0.2738(6) 0.3736(6)
H23 H 0.0680 0.2964 0.3679
C34 C 0.3137(13) 0.2850(6) 0.3082(6)
H24 H 0.2738 0.3137 0.2552
N1A N 0.759(2) 0.3836(8) 1.9939(5)
C1A C 0.762(2) 0.3081(7) 1.9493(6)
H1A H 0.7951 0.2520 1.9776
C2A C 0.7158(19) 0.3147(5) 1.8633(5)
H2A H 0.7178 0.2631 1.8329
C3A C 0.6670(16) 0.3968(5) 1.8219(4)
C4A C 0.6640(16) 0.4723(5) 1.8665(5)
H3A H 0.6306 0.5284 1.8381
C5A C 0.710(2) 0.4657(7) 1.9524(6)
H4A H 0.7080 0.5173 1.9829
C6A C 0.616(2) 0.4029(7) 1.7307(5)
H5A H 0.5934 0.3482 1.7111
C7A C 0.597(3) 0.4636(7) 1.6751(4)
H6A H 0.6347 0.5155 1.6943
C8A C 0.5322(12) 0.4781(7) 1.5884(4)
C9A C 0.5836(13) 0.4182(7) 1.5249(5)
H7A H 0.6407 0.3613 1.5419
C10A C 0.4457(14) 0.5608(6) 1.5597(6)
H8A H 0.4069 0.6029 1.6006
N2A N -1.9053(10) 1.2712(5) 1.0896(5)
C11A C -1.8562(12) 1.1947(6) 1.1359(6)
H9A H -1.9145 1.1845 1.1906
C12A C -1.7219(11) 1.1293(6) 1.1063(6)
H10A H -1.6866 1.0773 1.1411
C13A C -1.6421(12) 1.1437(7) 1.0235(6)
C14A C -1.6896(13) 1.2223(6) 0.9784(7)
H11A H -1.6340 1.2347 0.9234
C15A C -1.8182(14) 1.2831(6) 1.0132(6)
H12A H -1.8474 1.3374 0.9808
C16A C -1.5184(12) 1.0722(6) 0.9846(6)
H13A H -1.4526 1.0965 0.9326
C17A C -1.3879(12) 1.0111(6) 1.0393(6)
H14A H -1.4154 1.0217 1.1015
C18A C -1.1856(13) 1.0084(7) 1.0209(7)
C19A C -1.0711(14) 0.9552(7) 1.0703(7)
H15A H -1.1171 0.9225 1.1187
C20A C -1.1161(14) 1.0529(7) 0.9484(7)
H16A H -1.1959 1.0892 0.9112
Cd1A Cd -3.15124(9) 1.36087(4) 1.13322(4)
S1A S -3.0962(4) 1.79147(18) 1.46267(16)
O1A O -3.1688(8) 1.5187(4) 1.1470(4)
O2A O -3.0539(9) 1.4233(5) 1.2485(4)
O3A O -3.7880(10) 1.7594(6) 1.7502(5)
O4A O -3.5786(9) 1.6683(5) 1.8139(4)
O5A O -2.9180(9) 1.7808(5) 1.4959(4)
O6A O -3.1614(10) 1.8736(5) 1.4159(4)
N2A_2 N -2.9053(10) 1.2712(5) 1.0896(5)
C11A_2 C -2.8562(12) 1.1947(6) 1.1359(6)
H9A_2 H -2.9145 1.1845 1.1906
C12A_2 C -2.7219(11) 1.1293(6) 1.1063(6)
H10A_2 H -2.6866 1.0773 1.1411
C13A_2 C -2.6421(12) 1.1437(7) 1.0235(6)
C14A_2 C -2.6896(13) 1.2223(6) 0.9784(7)
H11A_2 H -2.6340 1.2347 0.9234
C15A_2 C -2.8182(14) 1.2831(6) 1.0132(6)
H12A_2 H -2.8474 1.3374 0.9808
C16A_2 C -2.5184(12) 1.0722(6) 0.9846(6)
H13A_2 H -2.4526 1.0965 0.9326
C17A_2 C -2.3879(12) 1.0111(6) 1.0393(6)
H14A_2 H -2.4154 1.0217 1.1015
C18A_2 C -2.1856(13) 1.0084(7) 1.0209(7)
C19A_2 C -2.0711(14) 0.9552(7) 1.0703(7)
H15A_2 H -2.1171 0.9225 1.1187
C20A_2 C -2.1161(14) 1.0529(7) 0.9484(7)
H16A_2 H -2.1959 1.0892 0.9112
C21A C -3.1127(12) 1.5010(7) 1.2230(6)
C22A C -3.1097(11) 1.5733(6) 1.2814(5)
C23A C -3.1767(12) 1.6574(6) 1.2565(5)
H17A H -3.2250 1.6693 1.2008
C24A C -3.1766(12) 1.7271(7) 1.3106(6)
H18A H -3.2212 1.7857 1.2922
C25A C -3.1087(12) 1.7065(6) 1.3917(5)
C26A C -3.0418(13) 1.6203(7) 1.4166(6)
H19A H -2.9974 1.6068 1.4729
C27A C -3.0391(13) 1.5549(6) 1.3613(5)
H20A H -2.9883 1.4968 1.3782
C28A C -3.6326(16) 1.7249(7) 1.7537(7)
C29A C -3.4964(13) 1.7445(6) 1.6835(6)
C30A C -3.5558(13) 1.7892(6) 1.6087(6)
H21A H -3.6797 1.8120 1.6043
C31A C -3.4348(14) 1.8014(6) 1.5393(6)
H22A H -3.4755 1.8291 1.4860
C32A C -3.2505(13) 1.7715(6) 1.5503(6)
C33A C -3.1917(13) 1.7262(6) 1.6264(6)
H23A H -3.0680 1.7036 1.6321
C34A C -3.3137(13) 1.7150(6) 1.6918(6)
H24A H -3.2738 1.6863 1.7448
N2_2 N -1.0947(10) 0.7288(5) 0.9104(5)
C11_2 C -1.1438(12) 0.8053(6) 0.8641(6)
H9_2 H -1.0855 0.8155 0.8094
C12_2 C -1.2781(11) 0.8707(6) 0.8937(6)
H10_2 H -1.3134 0.9227 0.8589
C13_2 C -1.3579(12) 0.8563(7) 0.9765(6)
C14_2 C -1.3104(13) 0.7777(6) 1.0216(7)
H11_2 H -1.3660 0.7653 1.0766
C15_2 C -1.1818(14) 0.7169(6) 0.9868(6)
H12_2 H -1.1526 0.6626 1.0192
C16_2 C -1.4816(12) 0.9278(6) 1.0154(6)
H13_2 H -1.5474 0.9035 1.0674
C17_2 C -1.6121(12) 0.9889(6) 0.9607(6)
H14_2 H -1.5846 0.9783 0.8985
C18_2 C -1.8144(13) 0.9916(7) 0.9791(7)
C19_2 C -1.9289(14) 1.0448(7) 0.9297(7)
H15_2 H -1.8829 1.0775 0.8813
C20_2 C -1.8839(14) 0.9471(7) 1.0516(7)
H16_2 H -1.8041 0.9108 1.0888
Cd1_2 Cd -3.84876(9) 1.63913(4) 1.86678(4)
Cd1_3 Cd -0.84876(9) 0.63913(4) 0.86678(4)
Cd1A_2 Cd -2.15124(9) 1.36087(4) 1.13322(4)
Cd1A_3 Cd 0.84876(9) 0.36087(4) 0.13322(4)
Cd1A_4 Cd 0.84876(9) 0.36087(4) 2.13322(4)
O3_2 O -3.2120(10) 1.2406(6) 1.2498(5)
O3A_2 O 0.2120(10) 0.7594(6) 0.7502(5)
O4_2 O -3.4214(9) 1.3317(5) 1.1861(4)
O4A_2 O 0.4214(9) 0.6683(5) 0.8139(4)
N1A_2 N -3.241(2) 1.3836(8) 0.9939(5)
C16_3 C -2.4816(12) 0.9278(6) 1.0154(6)
C16A_3 C -0.5184(12) 1.0722(6) 0.9846(6)
C17_3 C -2.6121(12) 0.9889(6) 0.9607(6)
C17A_3 C -0.3879(12) 1.0111(6) 1.0393(6)
loop_
_geom_bond_atom_site_label_1
_geom_bond_atom_site_label_2
_geom_bond_site_symmetry_1
_geom_bond_site_symmetry_2
Cd1 O1 1_555 1_555
S1 O5 1_555 1_555
O1 C21 1_555 1_555
O2 Cd1 1_555 1_555
O3 C28 1_555 1_555
O4 C28 1_555 1_555
O6 S1 1_555 1_555
N1 Cd1 1_555 1_555
C1 N1 1_555 1_555
H1 C1 1_555 1_555
C2 C1 1_555 1_555
H2 C2 1_555 1_555
C3 C2 1_555 1_555
C4 C3 1_555 1_555
H3 C4 1_555 1_555
C5 N1 1_555 1_555
H4 C5 1_555 1_555
C6 C3 1_555 1_555
H5 C6 1_555 1_555
C7 C6 1_555 1_555
H6 C7 1_555 1_555
C8 C7 1_555 1_555
C9 C8 1_555 1_555
H7 C9 1_555 1_555
C10 C8 1_555 1_555
H8 C10 1_555 1_555
N2 Cd1 1_555 1_555
C11 N2 1_555 1_555
H9 C11 1_555 1_555
C12 C11 1_555 1_555
H10 C12 1_555 1_555
C13 C12 1_555 1_555
C14 C13 1_555 1_555
H11 C14 1_555 1_555
C15 N2 1_555 1_555
H12 C15 1_555 1_555
C16 C13 1_555 1_555
H13 C16 1_555 1_555
C17 C16 1_555 1_555
H14 C17 1_555 1_555
C18 C17 1_555 1_555
C19 C18 1_555 1_555
H15 C19 1_555 1_555
C20 C18 1_555 1_555
H16 C20 1_555 1_555
C21 O2 1_555 1_555
C22 C21 1_555 1_555
C23 C22 1_555 1_555
H17 C23 1_555 1_555
C24 C23 1_555 1_555
H18 C24 1_555 1_555
C25 S1 1_555 1_555
C26 C25 1_555 1_555
H19 C26 1_555 1_555
C27 C22 1_555 1_555
H20 C27 1_555 1_555
C28 C29 1_555 1_555
C29 C30 1_555 1_555
C30 H21 1_555 1_555
C31 C30 1_555 1_555
H22 C31 1_555 1_555
C32 S1 1_555 1_555
C33 C32 1_555 1_555
H23 C33 1_555 1_555
C34 C29 1_555 1_555
H24 C34 1_555 1_555
N1A C1A 1_555 1_555
C1A H1A 1_555 1_555
C2A C1A 1_555 1_555
H2A C2A 1_555 1_555
C3A C2A 1_555 1_555
C4A C3A 1_555 1_555
H3A C4A 1_555 1_555
C5A N1A 1_555 1_555
H4A C5A 1_555 1_555
C6A C3A 1_555 1_555
H5A C6A 1_555 1_555
C7A C6A 1_555 1_555
H6A C7A 1_555 1_555
C8A C7A 1_555 1_555
C9A C10 1_555 1_555
H7A C9A 1_555 1_555
C10A C9 1_555 1_555
H8A C10A 1_555 1_555
N2A C11A 1_555 1_555
C11A H9A 1_555 1_555
C12A C11A 1_555 1_555
H10A C12A 1_555 1_555
C13A C12A 1_555 1_555
C14A C13A 1_555 1_555
H11A C14A 1_555 1_555
C15A N2A 1_555 1_555
H12A C15A 1_555 1_555
C16A C13A 1_555 1_555
H13A C16A 1_555 1_555
C17A C16A 1_555 1_555
H14A C17A 1_555 1_555
C18A C17A 1_555 1_555
C19A C20 1_555 1_555
H15A C19A 1_555 1_555
C20A C19 1_555 1_555
H16A C20A 1_555 1_555
Cd1A O1A 1_555 1_555
S1A O5A 1_555 1_555
O1A C21A 1_555 1_555
O2A Cd1A 1_555 1_555
O3A C28A 1_555 1_555
O4A C28A 1_555 1_555
O6A S1A 1_555 1_555
N2A_2 Cd1A 1_555 1_555
C11A_2 N2A_2 1_555 1_555
H9A_2 C11A_2 1_555 1_555
C12A_2 C11A_2 1_555 1_555
H10A_2 C12A_2 1_555 1_555
C13A_2 C12A_2 1_555 1_555
C14A_2 C13A_2 1_555 1_555
H11A_2 C14A_2 1_555 1_555
C15A_2 N2A_2 1_555 1_555
H12A_2 C15A_2 1_555 1_555
C16A_2 C13A_2 1_555 1_555
H13A_2 C16A_2 1_555 1_555
C17A_2 C16A_2 1_555 1_555
H14A_2 C17A_2 1_555 1_555
C18A_2 C17A_2 1_555 1_555
C19A_2 C18A_2 1_555 1_555
H15A_2 C19A_2 1_555 1_555
C20A_2 C18A_2 1_555 1_555
H16A_2 C20A_2 1_555 1_555
C21A O2A 1_555 1_555
C22A C21A 1_555 1_555
C23A C22A 1_555 1_555
H17A C23A 1_555 1_555
C24A C23A 1_555 1_555
H18A C24A 1_555 1_555
C25A S1A 1_555 1_555
C26A C25A 1_555 1_555
H19A C26A 1_555 1_555
C27A C22A 1_555 1_555
H20A C27A 1_555 1_555
C28A C29A 1_555 1_555
C29A C30A 1_555 1_555
C30A H21A 1_555 1_555
C31A C30A 1_555 1_555
H22A C31A 1_555 1_555
C32A S1A 1_555 1_555
C33A C32A 1_555 1_555
H23A C33A 1_555 1_555
C34A C29A 1_555 1_555
H24A C34A 1_555 1_555
N2_2 C11_2 1_555 1_555
C11_2 H9_2 1_555 1_555
C12_2 C11_2 1_555 1_555
H10_2 C12_2 1_555 1_555
C13_2 C12_2 1_555 1_555
C14_2 C13_2 1_555 1_555
H11_2 C14_2 1_555 1_555
C15_2 N2_2 1_555 1_555
H12_2 C15_2 1_555 1_555
C16_2 C17A 1_555 1_555
H13_2 C16_2 1_555 1_555
C17_2 C16A 1_555 1_555
H14_2 C17_2 1_555 1_555
C18_2 C17_2 1_555 1_555
C19_2 C20A_2 1_555 1_555
H15_2 C19_2 1_555 1_555
C20_2 C19A_2 1_555 1_555
H16_2 C20_2 1_555 1_555
Cd1_2 O3A 1_555 1_555
Cd1_3 N2_2 1_555 1_555
Cd1A_2 N2A 1_555 1_555
Cd1A_3 O3 1_555 1_555
Cd1A_4 N1A 1_555 1_555
O3_2 Cd1A 1_555 1_555
O3A_2 Cd1 1_555 1_555
O4_2 Cd1A 1_555 1_555
O4A_2 Cd1 1_555 1_555
N1A_2 Cd1A 1_555 1_555
C16_3 C17A_2 1_555 1_555
C16A_3 C17 1_555 1_555
C17_3 C16A_2 1_555 1_555
C17A_3 C16 1_555 1_555
O4 Cd1A_3 1_555 1_555
C4 C5 1_555 1_555
C14 C15 1_555 1_555
C24 C25 1_555 1_555
C26 C27 1_555 1_555
C31 C32 1_555 1_555
C33 C34 1_555 1_555
C4A C5A 1_555 1_555
C8A C9A 1_555 1_555
C8A C10A 1_555 1_555
C14A C15A 1_555 1_555
C18A C19A 1_555 1_555
C18A C20A 1_555 1_555
O4A Cd1_2 1_555 1_555
C14A_2 C15A_2 1_555 1_555
C24A C25A 1_555 1_555
C26A C27A 1_555 1_555
C31A C32A 1_555 1_555
C33A C34A 1_555 1_555
C13_2 C16_2 1_555 1_555
C14_2 C15_2 1_555 1_555
C16_2 C17_2 1_555 1_555
C18_2 C19_2 1_555 1_555
C18_2 C20_2 1_555 1_555
C16_3 C17_3 1_555 1_555
C16A_3 C17A_3 1_555 1_555

#END
