
#######################################################################
#
#                 Cambridge Crystallographic Data Centre
#                                CCDC 
#
#######################################################################
#
# If this CIF has been generated from an entry in the Cambridge 
# Structural Database, then it will include bibliographic, chemical, 
# crystal, experimental, refinement or atomic coordinate data resulting 
# from the CCDC's data processing and validation procedures.
#
#######################################################################

data_OWUWOU
_chemical_formula_moiety         '(C84 H88 Cd2 Fe2 N4 Na1 O30 1-)n'
_symmetry_cell_setting           monoclinic
_symmetry_space_group_name_H-M   'P 21/c'
_symmetry_Int_Tables_number      14
_space_group_name_Hall           '-P 2ybc'
loop_
_symmetry_equiv_pos_site_id
_symmetry_equiv_pos_as_xyz
1 x,y,z
2 -x,1/2+y,1/2-z
3 -x,-y,-z
4 x,1/2-y,1/2+z
_cell_length_a                   24.5760(19)
_cell_length_b                   12.4160(10)
_cell_length_c                   18.0940(10)
_cell_angle_alpha                90
_cell_angle_beta                 102.534(6)
_cell_angle_gamma                90
_cell_volume                     5389.54
loop_
_atom_site_label
_atom_site_type_symbol
_atom_site_fract_x
_atom_site_fract_y
_atom_site_fract_z
Fe1 Fe 0.13949(4) 0.26931(8) 0.07877(4)
Cd1 Cd 0.63076(3) 0.32710(8) 0.71056(5)
Na1 Na 0.5000 0.5000 0.5000
C1 C -0.1663(3) 0.6540(6) -0.4787(4)
C2 C -0.1742(3) 0.5830(6) -0.4132(3)
C3 C -0.2244(3) 0.5376(6) -0.4122(4)
H1 H -0.2554 0.5524 -0.4506
C4 C -0.2291(3) 0.4677(6) -0.3524(4)
C5 C -0.1832(3) 0.4512(6) -0.2936(3)
H2 H -0.1860 0.4049 -0.2542
C6 C -0.1328(3) 0.5033(6) -0.2930(3)
C7 C -0.1288(3) 0.5680(5) -0.3542(3)
H3 H -0.0952 0.6016 -0.3554
C8 C -0.2818(4) 0.4184(9) -0.3455(5)
C9 C -0.0835(3) 0.4904(6) -0.2285(3)
H4 H -0.0520 0.4634 -0.2473
H5 H -0.0734 0.5598 -0.2050
C10 C -0.0538(3) 0.3951(5) -0.1133(3)
C11 C -0.0683(3) 0.3263(5) -0.0594(3)
H6 H -0.1047 0.3008 -0.0672
C12 C -0.0301(3) 0.2947(5) 0.0053(3)
C13 C 0.0257(3) 0.3294(5) 0.0145(3)
C14 C 0.0398(3) 0.3997(5) -0.0406(3)
C15 C 0.0001(3) 0.4327(5) -0.1038(3)
H7 H 0.0098 0.4793 -0.1391
C16 C -0.0479(3) 0.2176(5) 0.0627(3)
C17 C -0.1111(3) 0.1990(7) 0.0453(4)
H8 H -0.1204 0.1509 0.0822
H9 H -0.1227 0.1680 -0.0043
H10 H -0.1298 0.2665 0.0470
C18 C -0.0200(4) 0.1083(6) 0.0580(5)
H11 H -0.0308 0.0592 0.0932
H12 H 0.0198 0.1171 0.0702
H13 H -0.0314 0.0802 0.0076
C19 C -0.0312(3) 0.2619(6) 0.1441(4)
H14 H -0.0430 0.2125 0.1784
H15 H -0.0488 0.3304 0.1467
H16 H 0.0085 0.2703 0.1580
C20 C 0.0951(3) 0.4431(5) -0.0327(3)
H17 H 0.0991 0.5039 -0.0611
C21 C 0.1913(3) 0.4616(6) 0.0220(4)
H18 H 0.1866 0.5312 -0.0029
H19 H 0.2184 0.4203 0.0022
C22 C 0.2104(3) 0.4754(6) 0.1075(4)
H20 H 0.2495 0.4952 0.1206
H21 H 0.1889 0.5316 0.1252
C23 C 0.2340(3) 0.3457(6) 0.2070(3)
H22 H 0.2616 0.3951 0.2274
C24 C 0.2315(3) 0.2496(6) 0.2497(3)
C25 C 0.1928(3) 0.1659(6) 0.2258(3)
C26 C 0.1957(3) 0.0705(6) 0.2687(3)
C27 C 0.2362(3) 0.0656(6) 0.3344(4)
H23 H 0.2386 0.0034 0.3636
C28 C 0.2734(3) 0.1481(7) 0.3595(4)
C29 C 0.2718(3) 0.2414(7) 0.3178(4)
H24 H 0.2967 0.2974 0.3342
C30 C 0.1542(3) -0.0234(7) 0.2430(4)
C31 C 0.1595(5) -0.0601(8) 0.1627(5)
H25 H 0.1342 -0.1184 0.1461
H26 H 0.1970 -0.0836 0.1644
H27 H 0.1507 -0.0009 0.1280
C32 C 0.0967(4) 0.0147(9) 0.2436(5)
H28 H 0.0706 -0.0427 0.2277
H29 H 0.0874 0.0746 0.2097
H30 H 0.0950 0.0367 0.2939
C33 C 0.1672(4) -0.1189(8) 0.2968(5)
H31 H 0.1411 -0.1759 0.2795
H32 H 0.1642 -0.0971 0.3467
H33 H 0.2043 -0.1438 0.2981
C34 C 0.3420(5) 0.2206(9) 0.4597(5)
H34 H 0.3176 0.2772 0.4703
H35 H 0.3635 0.2483 0.4248
C35 C 0.3805(4) 0.1831(8) 0.5324(5)
C36 C 0.3658(4) 0.1088(9) 0.5801(5)
H36 H 0.3308 0.0770 0.5669
C37 C 0.4012(3) 0.0792(9) 0.6472(4)
C38 C 0.4517(3) 0.1311(8) 0.6692(5)
H37 H 0.4752 0.1142 0.7153
C39 C 0.4674(4) 0.2073(8) 0.6235(5)
C40 C 0.4324(4) 0.2333(8) 0.5547(5)
H38 H 0.4435 0.2843 0.5234
C41 C 0.3854(4) -0.0081(10) 0.6947(5)
C42 C 0.5235(5) 0.2568(11) 0.6479(6)
N1 N 0.1389(2) 0.4053(5) 0.0098(3)
N2 N 0.2015(2) 0.3708(4) 0.1428(3)
O1 O -0.2831(3) 0.3501(6) -0.2949(4)
O2 O -0.2063(2) 0.6948(5) -0.5225(3)
O3 O 0.4796(3) 0.4736(7) 0.3804(4)
O4 O -0.1175(2) 0.6673(4) -0.4897(3)
O5 O -0.09597(19) 0.4185(4) -0.1747(2)
O6 O 0.06369(18) 0.3001(4) 0.0758(2)
O7 O 0.15381(19) 0.1776(4) 0.1630(2)
O8 O 0.3106(3) 0.1304(5) 0.4283(3)
O9 O 0.3518(4) -0.0797(8) 0.6680(5)
O10 O 0.5513(4) 0.2391(8) 0.7117(6)
O11 O 0.6692(8) 0.1654(19) 0.7888(13)
O12 O 0.4228(3) 0.5309(8) 0.4722(5)
O13 O 0.5385(3) 0.3161(6) 0.6037(4)
O14 O -0.3222(3) 0.4426(8) -0.3870(5)
O15 O 0.4078(3) -0.0183(7) 0.7575(4)
Fe1B Fe 0.86051(4) 0.73069(8) 0.92123(4)
Cd1B Cd 0.36924(3) 0.67290(8) 0.28944(5)
C1B C 1.1663(3) 0.3460(6) 1.4787(4)
C2B C 1.1742(3) 0.4170(6) 1.4132(3)
C3B C 1.2244(3) 0.4624(6) 1.4122(4)
H1B H 1.2554 0.4476 1.4506
C4B C 1.2291(3) 0.5323(6) 1.3524(4)
C5B C 1.1832(3) 0.5488(6) 1.2936(3)
H2B H 1.1860 0.5951 1.2542
C6B C 1.1328(3) 0.4967(6) 1.2930(3)
C7B C 1.1288(3) 0.4320(5) 1.3542(3)
H3B H 1.0952 0.3984 1.3554
C8B C 1.2818(4) 0.5816(9) 1.3455(5)
C9B C 1.0835(3) 0.5096(6) 1.2285(3)
H4B H 1.0520 0.5366 1.2473
H5B H 1.0734 0.4402 1.2050
C10B C 1.0538(3) 0.6049(5) 1.1133(3)
C11B C 1.0683(3) 0.6737(5) 1.0594(3)
H6B H 1.1047 0.6992 1.0672
C12B C 1.0301(3) 0.7053(5) 0.9947(3)
C13B C 0.9743(3) 0.6706(5) 0.9855(3)
C14B C 0.9602(3) 0.6003(5) 1.0406(3)
C15B C 0.9999(3) 0.5673(5) 1.1038(3)
H7B H 0.9902 0.5207 1.1391
C16B C 1.0479(3) 0.7824(5) 0.9373(3)
C17B C 1.1111(3) 0.8010(7) 0.9547(4)
H8B H 1.1204 0.8491 0.9178
H9B H 1.1227 0.8320 1.0043
H10B H 1.1298 0.7335 0.9530
C18B C 1.0200(4) 0.8917(6) 0.9420(5)
H11B H 1.0308 0.9408 0.9068
H12B H 0.9802 0.8829 0.9298
H13B H 1.0314 0.9198 0.9924
C19B C 1.0312(3) 0.7381(6) 0.8559(4)
H14B H 1.0430 0.7875 0.8216
H15B H 1.0488 0.6696 0.8533
H16B H 0.9915 0.7297 0.8420
C20B C 0.9049(3) 0.5569(5) 1.0327(3)
H17B H 0.9009 0.4961 1.0611
C21B C 0.8087(3) 0.5384(6) 0.9780(4)
H18B H 0.8134 0.4688 1.0029
H19B H 0.7816 0.5797 0.9978
C22B C 0.7896(3) 0.5246(6) 0.8925(4)
H20B H 0.7505 0.5048 0.8794
H21B H 0.8111 0.4684 0.8748
C23B C 0.7660(3) 0.6543(6) 0.7930(3)
H22B H 0.7384 0.6049 0.7726
C24B C 0.7685(3) 0.7504(6) 0.7503(3)
C25B C 0.8072(3) 0.8341(6) 0.7742(3)
C26B C 0.8043(3) 0.9295(6) 0.7313(3)
C27B C 0.7638(3) 0.9344(6) 0.6656(4)
H23B H 0.7614 0.9966 0.6364
C28B C 0.7266(3) 0.8519(7) 0.6405(4)
C29B C 0.7282(3) 0.7586(7) 0.6822(4)
H24B H 0.7033 0.7026 0.6658
C30B C 0.8458(3) 1.0234(7) 0.7570(4)
C31B C 0.8405(5) 1.0601(8) 0.8373(5)
H25B H 0.8658 1.1184 0.8539
H26B H 0.8030 1.0836 0.8356
H27B H 0.8493 1.0009 0.8720
C32B C 0.9033(4) 0.9853(9) 0.7564(5)
H28B H 0.9294 1.0427 0.7723
H29B H 0.9126 0.9254 0.7903
H30B H 0.9050 0.9633 0.7061
C33B C 0.8328(4) 1.1189(8) 0.7032(5)
H31B H 0.8589 1.1759 0.7205
H32B H 0.8358 1.0971 0.6533
H33B H 0.7957 1.1438 0.7019
C34B C 0.6580(5) 0.7794(9) 0.5403(5)
H34B H 0.6824 0.7228 0.5297
H35B H 0.6365 0.7517 0.5752
C35B C 0.6195(4) 0.8169(8) 0.4676(5)
C36B C 0.6342(4) 0.8912(9) 0.4199(5)
H36B H 0.6692 0.9230 0.4331
C37B C 0.5988(3) 0.9208(9) 0.3528(4)
C38B C 0.5483(3) 0.8689(8) 0.3308(5)
H37B H 0.5248 0.8858 0.2847
C39B C 0.5326(4) 0.7927(8) 0.3765(5)
C40B C 0.5676(4) 0.7667(8) 0.4453(5)
H38B H 0.5565 0.7157 0.4766
C41B C 0.6146(4) 1.0081(10) 0.3053(5)
C42B C 0.4765(5) 0.7432(11) 0.3521(6)
N1B N 0.8611(2) 0.5947(5) 0.9902(3)
N2B N 0.7985(2) 0.6292(4) 0.8572(3)
O1B O 1.2831(3) 0.6499(6) 1.2949(4)
O2B O 1.2063(2) 0.3052(5) 1.5225(3)
O3B O 0.5204(3) 0.5264(7) 0.6196(4)
O4B O 1.1175(2) 0.3327(4) 1.4897(3)
O5B O 1.09597(19) 0.5815(4) 1.1747(2)
O6B O 0.93631(18) 0.6999(4) 0.9242(2)
O7B O 0.84619(19) 0.8224(4) 0.8370(2)
O8B O 0.6894(3) 0.8696(5) 0.5717(3)
O9B O 0.6482(4) 1.0797(8) 0.3320(5)
O10B O 0.4487(4) 0.7609(8) 0.2883(6)
O11B O 0.3308(8) 0.8346(19) 0.2112(13)
O12B O 0.5772(3) 0.4691(8) 0.5278(5)
O13B O 0.4615(3) 0.6839(6) 0.3963(4)
O14B O 1.3222(3) 0.5574(8) 1.3870(5)
O15B O 0.5922(3) 1.0183(7) 0.2425(4)
Fe1A Fe -0.13949(4) 0.76931(8) -0.57877(4)
Fe1C Fe 1.13949(4) 0.23069(8) 1.57877(4)
Cd1_2 Cd -0.36924(3) 0.32710(8) -0.28944(5)
Cd1A Cd 0.36924(3) -0.17290(8) 0.78944(5)
Cd1B_2 Cd 1.36924(3) 0.67290(8) 1.28944(5)
Cd1C Cd 0.63076(3) 1.17290(8) 0.21056(5)
O1_2 O 0.7169(3) 0.3501(6) 0.7051(4)
O1B_2 O 0.2831(3) 0.6499(6) 0.2949(4)
O2A O 0.2063(2) 0.1948(5) 0.0225(3)
O2C O 0.7937(2) 0.8052(5) 0.9775(3)
O4A O 0.1175(2) 0.1673(4) -0.0103(3)
O4C O 0.8825(2) 0.8327(4) 1.0103(3)
O9A O 0.6482(4) 0.4203(8) 0.8320(5)
O9C O 0.3518(4) 0.5797(8) 0.1680(5)
O14_2 O 0.6778(3) 0.4426(8) 0.6130(5)
O14B_2 O 0.3222(3) 0.5574(8) 0.3870(5)
O15A O 0.5922(3) 0.4817(7) 0.7425(4)
O15C O 0.4078(3) 0.5183(7) 0.2575(4)
loop_
_geom_bond_atom_site_label_1
_geom_bond_atom_site_label_2
_geom_bond_site_symmetry_1
_geom_bond_site_symmetry_2
Fe1 N1 1_555 1_555
Cd1 O10 1_555 1_555
Na1 O3 1_555 1_555
C1 C2 1_555 1_555
C2 C3 1_555 1_555
C3 H1 1_555 1_555
C4 C3 1_555 1_555
C5 C4 1_555 1_555
H2 C5 1_555 1_555
C6 C5 1_555 1_555
C7 C2 1_555 1_555
H3 C7 1_555 1_555
C8 C4 1_555 1_555
C9 C6 1_555 1_555
H4 C9 1_555 1_555
H5 C9 1_555 1_555
C10 C11 1_555 1_555
C11 H6 1_555 1_555
C12 C11 1_555 1_555
C13 C12 1_555 1_555
C14 C13 1_555 1_555
C15 C10 1_555 1_555
H7 C15 1_555 1_555
C16 C12 1_555 1_555
C17 C16 1_555 1_555
H8 C17 1_555 1_555
H9 C17 1_555 1_555
H10 C17 1_555 1_555
C18 C16 1_555 1_555
H11 C18 1_555 1_555
H12 C18 1_555 1_555
H13 C18 1_555 1_555
C19 C16 1_555 1_555
H14 C19 1_555 1_555
H15 C19 1_555 1_555
H16 C19 1_555 1_555
C20 C14 1_555 1_555
H17 C20 1_555 1_555
C21 H18 1_555 1_555
H19 C21 1_555 1_555
C22 C21 1_555 1_555
H20 C22 1_555 1_555
H21 C22 1_555 1_555
C23 H22 1_555 1_555
C24 C23 1_555 1_555
C25 C24 1_555 1_555
C26 C25 1_555 1_555
C27 C26 1_555 1_555
H23 C27 1_555 1_555
C28 C27 1_555 1_555
C29 C24 1_555 1_555
H24 C29 1_555 1_555
C30 C26 1_555 1_555
C31 C30 1_555 1_555
H25 C31 1_555 1_555
H26 C31 1_555 1_555
H27 C31 1_555 1_555
C32 C30 1_555 1_555
H28 C32 1_555 1_555
H29 C32 1_555 1_555
H30 C32 1_555 1_555
C33 C30 1_555 1_555
H31 C33 1_555 1_555
H32 C33 1_555 1_555
H33 C33 1_555 1_555
C34 H34 1_555 1_555
H35 C34 1_555 1_555
C35 C34 1_555 1_555
C36 C35 1_555 1_555
H36 C36 1_555 1_555
C37 C36 1_555 1_555
C38 C37 1_555 1_555
H37 C38 1_555 1_555
C39 C38 1_555 1_555
C40 C35 1_555 1_555
H38 C40 1_555 1_555
C41 C37 1_555 1_555
C42 C39 1_555 1_555
N1 C20 1_555 1_555
N2 Fe1 1_555 1_555
O1 C8 1_555 1_555
O2 C1 1_555 1_555
O4 C1 1_555 1_555
O5 C9 1_555 1_555
O6 Fe1 1_555 1_555
O7 Fe1 1_555 1_555
O8 C28 1_555 1_555
O9 C41 1_555 1_555
O10 C42 1_555 1_555
O11 Cd1 1_555 1_555
O12 Na1 1_555 1_555
O13 Cd1 1_555 1_555
O14 C8 1_555 1_555
O15 C41 1_555 1_555
Fe1B N1B 1_555 1_555
Cd1B O10B 1_555 1_555
C1B C2B 1_555 1_555
C2B C3B 1_555 1_555
C3B H1B 1_555 1_555
C4B C3B 1_555 1_555
C5B C4B 1_555 1_555
H2B C5B 1_555 1_555
C6B C5B 1_555 1_555
C7B C2B 1_555 1_555
H3B C7B 1_555 1_555
C8B C4B 1_555 1_555
C9B C6B 1_555 1_555
H4B C9B 1_555 1_555
H5B C9B 1_555 1_555
C10B C11B 1_555 1_555
C11B H6B 1_555 1_555
C12B C11B 1_555 1_555
C13B C12B 1_555 1_555
C14B C13B 1_555 1_555
C15B C10B 1_555 1_555
H7B C15B 1_555 1_555
C16B C12B 1_555 1_555
C17B C16B 1_555 1_555
H8B C17B 1_555 1_555
H9B C17B 1_555 1_555
H10B C17B 1_555 1_555
C18B C16B 1_555 1_555
H11B C18B 1_555 1_555
H12B C18B 1_555 1_555
H13B C18B 1_555 1_555
C19B C16B 1_555 1_555
H14B C19B 1_555 1_555
H15B C19B 1_555 1_555
H16B C19B 1_555 1_555
C20B C14B 1_555 1_555
H17B C20B 1_555 1_555
C21B H18B 1_555 1_555
H19B C21B 1_555 1_555
C22B C21B 1_555 1_555
H20B C22B 1_555 1_555
H21B C22B 1_555 1_555
C23B H22B 1_555 1_555
C24B C23B 1_555 1_555
C25B C24B 1_555 1_555
C26B C25B 1_555 1_555
C27B C26B 1_555 1_555
H23B C27B 1_555 1_555
C28B C27B 1_555 1_555
C29B C24B 1_555 1_555
H24B C29B 1_555 1_555
C30B C26B 1_555 1_555
C31B C30B 1_555 1_555
H25B C31B 1_555 1_555
H26B C31B 1_555 1_555
H27B C31B 1_555 1_555
C32B C30B 1_555 1_555
H28B C32B 1_555 1_555
H29B C32B 1_555 1_555
H30B C32B 1_555 1_555
C33B C30B 1_555 1_555
H31B C33B 1_555 1_555
H32B C33B 1_555 1_555
H33B C33B 1_555 1_555
C34B H34B 1_555 1_555
H35B C34B 1_555 1_555
C35B C34B 1_555 1_555
C36B C35B 1_555 1_555
H36B C36B 1_555 1_555
C37B C36B 1_555 1_555
C38B C37B 1_555 1_555
H37B C38B 1_555 1_555
C39B C38B 1_555 1_555
C40B C35B 1_555 1_555
H38B C40B 1_555 1_555
C41B C37B 1_555 1_555
C42B C39B 1_555 1_555
N1B C20B 1_555 1_555
N2B Fe1B 1_555 1_555
O1B C8B 1_555 1_555
O2B C1B 1_555 1_555
O3B Na1 1_555 1_555
O4B C1B 1_555 1_555
O5B C9B 1_555 1_555
O6B Fe1B 1_555 1_555
O7B Fe1B 1_555 1_555
O8B C28B 1_555 1_555
O9B C41B 1_555 1_555
O10B C42B 1_555 1_555
O11B Cd1B 1_555 1_555
O12B Na1 1_555 1_555
O13B Na1 1_555 1_555
O14B C8B 1_555 1_555
O15B C41B 1_555 1_555
Fe1A O2 1_555 1_555
Fe1C O2B 1_555 1_555
Cd1_2 O1 1_555 1_555
Cd1A O9 1_555 1_555
Cd1B_2 O1B 1_555 1_555
Cd1C O9B 1_555 1_555
O1_2 Cd1 1_555 1_555
O1B_2 Cd1B 1_555 1_555
O2A Fe1 1_555 1_555
O2C Fe1B 1_555 1_555
O4A Fe1 1_555 1_555
O4C Fe1B 1_555 1_555
O9A Cd1 1_555 1_555
O9C Cd1B 1_555 1_555
O14_2 Cd1 1_555 1_555
O14B_2 Cd1B 1_555 1_555
O15A Cd1 1_555 1_555
O15C Cd1B 1_555 1_555
Na1 O13 1_555 1_555
C6 C7 1_555 1_555
C10 O5 1_555 1_555
C13 O6 1_555 1_555
C14 C15 1_555 1_555
C21 N1 1_555 1_555
C22 N2 1_555 1_555
C23 N2 1_555 1_555
C25 O7 1_555 1_555
C28 C29 1_555 1_555
C34 O8 1_555 1_555
C39 C40 1_555 1_555
C42 O13 1_555 1_555
O4 Fe1A 1_555 1_555
O14 Cd1_2 1_555 1_555
O15 Cd1A 1_555 1_555
Cd1B O13B 1_555 1_555
C6B C7B 1_555 1_555
C10B O5B 1_555 1_555
C13B O6B 1_555 1_555
C14B C15B 1_555 1_555
C21B N1B 1_555 1_555
C22B N2B 1_555 1_555
C23B N2B 1_555 1_555
C25B O7B 1_555 1_555
C28B C29B 1_555 1_555
C34B O8B 1_555 1_555
C39B C40B 1_555 1_555
C42B O13B 1_555 1_555
O4B Fe1C 1_555 1_555
O14B Cd1B_2 1_555 1_555
O15B Cd1C 1_555 1_555

#END
