
#######################################################################
#
#                 Cambridge Crystallographic Data Centre
#                                CCDC 
#
#######################################################################
#
# If this CIF has been generated from an entry in the Cambridge 
# Structural Database, then it will include bibliographic, chemical, 
# crystal, experimental, refinement or atomic coordinate data resulting 
# from the CCDC's data processing and validation procedures.
#
#######################################################################

data_IYIGEC
_chemical_formula_moiety         '(C22 H46 Ag4 N8 O13 S4)n'
_symmetry_cell_setting           tetragonal
_symmetry_space_group_name_H-M   'I 41/a'
_symmetry_Int_Tables_number      88
_space_group_name_Hall           '-I 4ad'
loop_
_symmetry_equiv_pos_site_id
_symmetry_equiv_pos_as_xyz
1 x,y,z
2 3/4-y,1/4+x,1/4+z
3 1/2+x,1/2+y,1/2+z
4 1/4-y,3/4+x,3/4+z
5 1/4+y,1/4-x,1/4+z
6 1/2+x,y,1/2-z
7 1/4-y,1/4+x,1/4-z
8 x,1/2+y,-z
9 -x,-y,-z
10 1/4+y,3/4-x,3/4-z
11 1/2-x,1/2-y,1/2-z
12 3/4+y,1/4-x,1/4-z
13 3/4-y,3/4+x,3/4-z
14 1/2-x,-y,1/2+z
15 3/4+y,3/4-x,3/4+z
16 -x,1/2-y,z
_cell_length_a                   23.1184(5)
_cell_length_b                   23.1184(5)
_cell_length_c                   6.7338(2)
_cell_angle_alpha                90
_cell_angle_beta                 90
_cell_angle_gamma                90
_cell_volume                     3598.95
loop_
_atom_site_label
_atom_site_type_symbol
_atom_site_fract_x
_atom_site_fract_y
_atom_site_fract_z
S1 S 0.63441(13) 0.87169(14) 0.6819(5)
Ag1 Ag 0.63676(3) 0.74580(3) 0.44692(11)
O1 O 0.6319(5) 0.8092(4) 0.7210(14)
O3 O 0.6435(5) 0.9015(4) 0.8639(16)
O4 O 0.5854(5) 0.8936(7) 0.5742(16)
C1 C 0.6935(9) 0.8853(6) 0.523(4)
H1 H 0.6816 0.9193 0.4488
H2 H 0.7236 0.8987 0.6121
C2 C 0.7183(9) 0.8575(7) 0.406(5)
H3 H 0.7585 0.8669 0.4323
H4 H 0.7092 0.8765 0.2817
C3 C 0.7711(5) 0.7687(7) 0.4338(17)
H5 H 0.7694 0.7703 0.5776
H6 H 0.8056 0.7892 0.3911
C4 C 0.7254(5) 0.7929(6) 0.132(2)
H7 H 0.7596 0.8135 0.0879
H8 H 0.6919 0.8112 0.0713
C5 C 0.5540(4) 0.8001(4) 0.1246(13)
H9 H 0.5559 0.8344 0.2073
H10 H 0.5884 0.7993 0.0420
C6 C 0.5000 0.7500 0.3776(17)
H11 H 0.502(3) 0.788(3) 0.456(12)
N1 N 0.7207(4) 0.7964(4) 0.3513(16)
N2 N 0.5532(3) 0.7478(3) 0.2533(11)
C4J C 0.7746(5) 0.7071(6) 0.368(2)
H7J H 0.7404 0.6865 0.4121
H8J H 0.8081 0.6888 0.4287
N1J N 0.7793(4) 0.7036(4) 0.1487(16)
C2J C 0.7817(9) 0.6425(7) 0.094(5)
C1J C 0.8065(9) 0.6147(6) -0.023(4)
S1J S 0.86559(13) 0.62831(14) -0.1819(5)
O1J O 0.8681(5) 0.6908(4) -0.2210(14)
O3J O 0.8565(5) 0.5985(4) -0.3639(16)
O4J O 0.9146(5) 0.6064(7) -0.0742(16)
H1J H 0.8184 0.5807 0.0512
H2J H 0.7764 0.6013 -0.1121
H3J H 0.7415 0.6331 0.0677
H4J H 0.7908 0.6235 0.2183
C3J C 0.7289(5) 0.7313(7) 0.0662(17)
H5J H 0.7306 0.7297 -0.0776
H6J H 0.6944 0.7108 0.1089
C5K C 0.5501(4) 0.6960(4) 0.1254(13)
H9K H 0.5844 0.6941 0.0427
H10K H 0.5493 0.6616 0.2080
N2K N 0.4978(3) 0.6968(3) -0.0033(11)
C5O C 0.4460(4) 0.6999(4) 0.1246(13)
H9O H 0.4441 0.6656 0.2073
H10O H 0.4116 0.7007 0.0420
N2O N 0.4468(3) 0.7522(3) 0.2533(11)
C5F C 0.4499(4) 0.8040(4) 0.1254(13)
H9F H 0.4156 0.8059 0.0427
H10F H 0.4507 0.8384 0.2080
N2F N 0.5022(3) 0.8032(3) -0.0033(11)
C6F C 0.5000 0.7500 -0.1276(17)
H11F H 0.462(3) 0.752(3) -0.206(12)
H11K H 0.538(3) 0.748(3) -0.206(12)
H11O H 0.498(3) 0.712(3) 0.456(12)
S1K S 0.62169(14) 0.61559(13) 0.5681(5)
O1K O 0.5592(4) 0.6181(5) 0.5290(14)
O3K O 0.6515(4) 0.6065(5) 0.3861(16)
O4K O 0.6436(7) 0.6646(5) 0.6758(16)
C1K C 0.6353(6) 0.5565(9) 0.727(4)
H1K H 0.6693 0.5684 0.8012
H2K H 0.6487 0.5264 0.6379
C2K C 0.6075(7) 0.5317(9) 0.844(5)
H3K H 0.6169 0.4915 0.8177
H4K H 0.6265 0.5408 0.9683
C3K C 0.5187(7) 0.4789(5) 0.8162(17)
H5K H 0.5203 0.4806 0.6724
H6K H 0.5392 0.4444 0.8589
C4K C 0.5429(6) 0.5246(5) 1.118(2)
H7K H 0.5635 0.4904 1.1621
H8K H 0.5612 0.5581 1.1787
N1K N 0.5464(4) 0.5293(4) 0.8987(16)
C4C C 0.4571(6) 0.4754(5) 0.882(2)
H7C H 0.4365 0.5096 0.8379
H8C H 0.4388 0.4419 0.8213
N1C N 0.4536(4) 0.4707(4) 1.1013(16)
C2C C 0.3925(7) 0.4683(9) 1.156(5)
C1C C 0.3647(6) 0.4435(9) 1.273(4)
S1C S 0.37831(14) 0.38441(13) 1.4319(5)
O1C O 0.4408(4) 0.3819(5) 1.4710(14)
O3C O 0.3485(4) 0.3935(5) 1.6139(16)
O4C O 0.3564(7) 0.3354(5) 1.3242(16)
H1C H 0.3307 0.4316 1.1988
H2C H 0.3513 0.4736 1.3621
H3C H 0.3831 0.5085 1.1823
H4C H 0.3735 0.4592 1.0317
C3C C 0.4813(7) 0.5211(5) 1.1838(17)
H5C H 0.4797 0.5194 1.3276
H6C H 0.4608 0.5556 1.1411
Ag1J Ag 0.86324(3) 0.75420(3) 0.05308(11)
Ag1K Ag 0.49580(3) 0.61324(3) 0.80308(11)
Ag1C Ag 0.50420(3) 0.38676(3) 1.19692(11)
Ag1F Ag 0.50420(3) 0.88676(3) 0.80308(11)
Ag1D Ag 0.99580(3) 0.61324(3) -0.30308(11)
Ag1K_2 Ag 0.49580(3) 0.61324(3) -0.19692(11)
Ag1O Ag 0.36324(3) 0.75420(3) 0.44692(11)
Ag1F_2 Ag 0.50420(3) 0.88676(3) -0.19692(11)
Ag1H Ag 0.36324(3) 0.25420(3) 1.55308(11)
O4A O 0.8564(7) 0.8354(5) -0.1758(16)
N2J N 0.9468(3) 0.7522(3) 0.2467(11)
O4O O 0.4146(5) 0.6064(7) 0.5742(16)
N2K_2 N 0.4978(3) 0.6968(3) 0.9967(11)
O4G O 0.5854(5) 0.3936(7) 1.4258(16)
N2C N 0.5022(3) 0.3032(3) 1.0033(11)
O2 O 0.752(3) 0.977(2) 1.152(10)
loop_
_geom_bond_atom_site_label_1
_geom_bond_atom_site_label_2
_geom_bond_site_symmetry_1
_geom_bond_site_symmetry_2
S1 O1 1_555 1_555
Ag1 O1 1_555 1_555
O3 S1 1_555 1_555
O4 S1 1_555 1_555
C1 S1 1_555 1_555
H1 C1 1_555 1_555
H2 C1 1_555 1_555
C2 C1 1_555 1_555
H3 C2 1_555 1_555
H4 C2 1_555 1_555
C3 H5 1_555 1_555
H6 C3 1_555 1_555
C4 H7 1_555 1_555
H8 C4 1_555 1_555
C5 H9 1_555 1_555
H10 C5 1_555 1_555
C6 H11 1_555 1_555
N1 Ag1 1_555 1_555
N2 Ag1 1_555 1_555
C4J C3 1_555 1_555
H7J C4J 1_555 1_555
H8J C4J 1_555 1_555
N1J C4J 1_555 1_555
C2J N1J 1_555 1_555
C1J C2J 1_555 1_555
S1J C1J 1_555 1_555
O1J S1J 1_555 1_555
O3J S1J 1_555 1_555
O4J S1J 1_555 1_555
H1J C1J 1_555 1_555
H2J C1J 1_555 1_555
H3J C2J 1_555 1_555
H4J C2J 1_555 1_555
C3J C4 1_555 1_555
H5J C3J 1_555 1_555
H6J C3J 1_555 1_555
C5K N2 1_555 1_555
H9K C5K 1_555 1_555
H10K C5K 1_555 1_555
N2K C5K 1_555 1_555
C5O N2K 1_555 1_555
H9O C5O 1_555 1_555
H10O C5O 1_555 1_555
N2O C6 1_555 1_555
C5F N2O 1_555 1_555
H9F C5F 1_555 1_555
H10F C5F 1_555 1_555
N2F C5 1_555 1_555
C6F N2K 1_555 1_555
H11F C6F 1_555 1_555
H11K C6F 1_555 1_555
H11O C6 1_555 1_555
S1K O1K 1_555 1_555
O1K Ag1K 1_555 1_555
O3K S1K 1_555 1_555
O4K Ag1 1_555 1_555
C1K S1K 1_555 1_555
H1K C1K 1_555 1_555
H2K C1K 1_555 1_555
C2K C1K 1_555 1_555
H3K C2K 1_555 1_555
H4K C2K 1_555 1_555
C3K H5K 1_555 1_555
H6K C3K 1_555 1_555
C4K H7K 1_555 1_555
H8K C4K 1_555 1_555
N1K C2K 1_555 1_555
C4C C3K 1_555 1_555
H7C C4C 1_555 1_555
H8C C4C 1_555 1_555
N1C C4C 1_555 1_555
C2C N1C 1_555 1_555
C1C C2C 1_555 1_555
S1C C1C 1_555 1_555
O1C S1C 1_555 1_555
O3C S1C 1_555 1_555
O4C S1C 1_555 1_555
H1C C1C 1_555 1_555
H2C C1C 1_555 1_555
H3C C2C 1_555 1_555
H4C C2C 1_555 1_555
C3C C4K 1_555 1_555
H5C C3C 1_555 1_555
H6C C3C 1_555 1_555
Ag1J N1J 1_555 1_555
Ag1K N1K 1_555 1_555
Ag1C N1C 1_555 1_555
Ag1F O4 1_555 1_555
Ag1D O4J 1_555 1_555
Ag1K_2 N2K 1_555 1_555
Ag1O N2O 1_555 1_555
Ag1F_2 N2F 1_555 1_555
Ag1H O4C 1_555 1_555
O4A Ag1J 1_555 1_555
N2J Ag1J 1_555 1_555
O4O Ag1K 1_555 1_555
N2K_2 Ag1K 1_555 1_555
O4G Ag1C 1_555 1_555
N2C Ag1C 1_555 1_555
C2 N1 1_555 1_555
C3 N1 1_555 1_555
C4 N1 1_555 1_555
C5 N2 1_555 1_555
C6 N2 1_555 1_555
N1J C3J 1_555 1_555
O1J Ag1J 1_555 1_555
C5O N2O 1_555 1_555
C5F N2F 1_555 1_555
N2F C6F 1_555 1_555
S1K O4K 1_555 1_555
C3K N1K 1_555 1_555
C4K N1K 1_555 1_555
N1C C3C 1_555 1_555
O1C Ag1C 1_555 1_555

#END
