
#######################################################################
#
#                 Cambridge Crystallographic Data Centre
#                                CCDC 
#
#######################################################################
#
# If this CIF has been generated from an entry in the Cambridge 
# Structural Database, then it will include bibliographic, chemical, 
# crystal, experimental, refinement or atomic coordinate data resulting 
# from the CCDC's data processing and validation procedures.
#
#######################################################################

data_CAZGIT
_chemical_formula_moiety         '(C40 H24 Cu3 Mo3 N8 O11)n'
_symmetry_cell_setting           monoclinic
_symmetry_space_group_name_H-M   'P 21/c'
_symmetry_Int_Tables_number      14
_space_group_name_Hall           '-P 2ybc'
loop_
_symmetry_equiv_pos_site_id
_symmetry_equiv_pos_as_xyz
1 x,y,z
2 x,1/2-y,1/2+z
3 -x,-y,-z
4 -x,1/2+y,1/2-z
_cell_length_a                   21.8453(4)
_cell_length_b                   21.84440(10)
_cell_length_c                   9.5879(2)
_cell_angle_alpha                90
_cell_angle_beta                 98.7850(10)
_cell_angle_gamma                90
_cell_volume                     4521.65
loop_
_atom_site_label
_atom_site_type_symbol
_atom_site_fract_x
_atom_site_fract_y
_atom_site_fract_z
Mo1 Mo 0.35066(3) 0.32692(3) 0.11982(8)
Mo2 Mo 0.15959(3) 0.33687(3) 0.45561(8)
Mo3 Mo 0.26029(3) 0.24908(3) 0.31172(8)
Cu1 Cu 0.14841(5) 0.31015(4) 0.05379(12)
Cu2 Cu 0.32838(5) 0.32818(5) 0.54624(12)
Cu3 Cu -0.25211(5) 0.23960(5) -0.49684(11)
O1 O 0.3194(3) 0.3956(3) 0.0583(7)
O2 O 0.3420(3) 0.3121(3) 0.3044(7)
O3 O 0.1506(3) 0.4077(3) 0.5316(8)
O4 O 0.2963(3) 0.1874(3) 0.2452(7)
O5 O 0.2286(3) 0.2941(3) 0.1635(7)
O6 O 0.1954(3) 0.2156(3) 0.3633(7)
O7 O 0.1176(3) 0.3374(3) 0.2842(8)
O8 O 0.4287(3) 0.3326(3) 0.1187(8)
O9 O 0.1301(3) 0.2214(3) 0.0621(7)
O10 O 0.3227(3) 0.2613(3) -0.0001(7)
O11 O 0.2424(3) 0.3277(3) 0.4464(6)
C1 C 0.0141(4) 0.3285(4) 0.0015(9)
H1 H 0.0189 0.3436 0.0932
C2 C 0.0562(5) 0.3022(5) -0.1948(11)
H2 H 0.0916 0.2998 -0.2376
C3 C -0.0451(5) 0.3168(5) -0.0724(11)
H3 H -0.0793 0.3241 -0.0280
C4 C -0.0003(5) 0.2893(5) -0.2723(12)
H4 H -0.0035 0.2768 -0.3659
C5 C -0.0541(4) 0.2954(4) -0.2056(10)
C6 C -0.1798(4) -0.0609(4) -0.6227(9)
H5 H -0.1789 -0.0729 -0.7154
C7 C -0.1701(4) -0.0810(4) -0.3909(9)
H6 H -0.1621 -0.1088 -0.3170
C8 C -0.1835(4) -0.0189(4) -0.3553(9)
H7 H -0.1836 -0.0066 -0.2625
C9 C -0.1940(4) 0.0024(4) -0.5919(9)
H8 H -0.2016 0.0301 -0.6663
C10 C -0.1965(4) 0.0214(4) -0.4677(9)
C11 C -0.5046(5) 0.1756(5) -0.6632(12)
H9 H -0.4941 0.1709 -0.5661
C12 C -0.5667(5) 0.1706(5) -0.7335(12)
H10 H -0.5981 0.1632 -0.6801
C13 C -0.4604(4) 0.1882(4) -0.7512(9)
C14 C -0.5394(4) 0.1835(4) -0.9522(10)
H11 H -0.5513 0.1850 -1.0495
C15 C -0.4752(4) 0.1895(4) -0.8949(9)
H12 H -0.4450 0.1941 -0.9528
C16 C -0.3193(4) 0.5552(4) -0.6879(10)
H13 H -0.3228 0.5785 -0.7699
C17 C -0.3189(4) 0.5496(4) -0.4367(10)
H14 H -0.3238 0.5692 -0.3531
C18 C -0.2999(4) 0.4586(4) -0.5634(8)
C19 C -0.3089(4) 0.4905(4) -0.6924(10)
H15 H -0.3082 0.4703 -0.7775
C20 C -0.3063(4) 0.4870(4) -0.4414(9)
H16 H -0.3022 0.4643 -0.3584
C21 C -0.1153(4) 0.2777(4) -0.2937(9)
C22 C -0.1313(4) 0.2173(4) -0.3048(9)
C23 C -0.0904(4) 0.1680(4) -0.2357(10)
H17 H -0.0542 0.1722 -0.1715
C24 C -0.1185(4) 0.1149(4) -0.2884(9)
H18 H -0.1036 0.0755 -0.2691
C25 C -0.1752(4) 0.1308(4) -0.3789(9)
C26 C -0.2161(3) 0.0873(3) -0.4520(8)
C27 C -0.2755(4) 0.1025(4) -0.5226(9)
C28 C -0.3224(4) 0.0599(4) -0.5788(9)
H19 H -0.3182 0.0175 -0.5767
C29 C -0.3727(4) 0.0900(4) -0.6341(9)
H20 H -0.4109 0.0734 -0.6713
C30 C -0.3552(4) 0.1565(4) -0.6242(9)
C31 C -0.3944(3) 0.2025(3) -0.6804(8)
C32 C -0.3760(4) 0.2634(4) -0.6791(9)
C33 C -0.4173(4) 0.3120(4) -0.7370(10)
H21 H -0.4564 0.3075 -0.7897
C34 C -0.3875(4) 0.3651(4) -0.6993(9)
H22 H -0.4027 0.4044 -0.7193
C35 C -0.3269(4) 0.3490(4) -0.6210(9)
C36 C -0.2826(4) 0.3903(4) -0.5665(9)
C37 C -0.2265(4) 0.3758(4) -0.4824(9)
C38 C -0.1788(4) 0.4185(5) -0.4336(10)
H23 H -0.1802 0.4604 -0.4506
C39 C -0.1323(4) 0.3884(4) -0.3601(10)
H24 H -0.0956 0.4050 -0.3133
C40 C -0.1494(4) 0.3254(4) -0.3667(9)
N1 N 0.0616(4) 0.3182(4) -0.0582(8)
N2 N -0.1681(3) -0.1015(3) -0.5187(8)
N3 N -0.5813(3) 0.1761(3) -0.8717(7)
N4 N -0.3236(3) 0.5812(3) -0.5664(7)
N5 N -0.2974(3) 0.1616(3) -0.5480(7)
N6 N -0.3216(3) 0.2866(3) -0.6063(7)
N7 N -0.2087(3) 0.3187(3) -0.4409(7)
N8 N -0.1836(3) 0.1929(3) -0.3863(7)
O9A O 0.1301(3) 0.2786(3) 0.5621(7)
O10A O 0.3227(3) 0.2387(3) 0.4999(7)
O6A O 0.1954(3) 0.2844(3) -0.1367(7)
O4A O 0.2963(3) 0.3126(3) 0.7452(7)
Cu2A Cu 0.32838(5) 0.17182(5) 0.04624(12)
Cu1A Cu 0.14841(5) 0.18985(4) 0.55379(12)
Mo2A Mo 0.15959(3) 0.16313(3) -0.04439(8)
Mo3A Mo 0.26029(3) 0.25092(3) -0.18828(8)
N2C N 0.1681(3) 0.3985(3) 0.0187(8)
N3A N 0.4187(3) 0.3239(3) 0.6283(7)
N4B N 0.3236(3) 0.4188(3) 0.5664(7)
Cu1C Cu -0.14841(5) -0.18985(4) -0.55379(12)
Cu2A_2 Cu -0.67162(5) 0.17182(5) -0.95376(12)
Cu2B Cu -0.32838(5) 0.67182(5) -0.54624(12)
loop_
_geom_bond_atom_site_label_1
_geom_bond_atom_site_label_2
_geom_bond_site_symmetry_1
_geom_bond_site_symmetry_2
Mo1 O1 1_555 1_555
Mo2 O3 1_555 1_555
Mo3 Cu2 1_555 1_555
Cu1 O5 1_555 1_555
Cu2 O2 1_555 1_555
Cu3 N5 1_555 1_555
O2 Mo1 1_555 1_555
O4 Mo3 1_555 1_555
O5 Mo3 1_555 1_555
O6 Mo3 1_555 1_555
O7 Mo2 1_555 1_555
O8 Mo1 1_555 1_555
O9 Cu1 1_555 1_555
O10 Mo1 1_555 1_555
O11 Mo2 1_555 1_555
C1 H1 1_555 1_555
C2 H2 1_555 1_555
C3 C1 1_555 1_555
H3 C3 1_555 1_555
C4 C2 1_555 1_555
H4 C4 1_555 1_555
C5 C3 1_555 1_555
C6 H5 1_555 1_555
C7 H6 1_555 1_555
C8 C7 1_555 1_555
H7 C8 1_555 1_555
C9 C6 1_555 1_555
H8 C9 1_555 1_555
C10 C8 1_555 1_555
C11 H9 1_555 1_555
C12 C11 1_555 1_555
H10 C12 1_555 1_555
C13 C11 1_555 1_555
C14 H11 1_555 1_555
C15 C13 1_555 1_555
H12 C15 1_555 1_555
C16 H13 1_555 1_555
C17 H14 1_555 1_555
C18 C19 1_555 1_555
C19 C16 1_555 1_555
H15 C19 1_555 1_555
C20 C17 1_555 1_555
H16 C20 1_555 1_555
C21 C5 1_555 1_555
C22 C21 1_555 1_555
C23 C22 1_555 1_555
H17 C23 1_555 1_555
C24 C23 1_555 1_555
H18 C24 1_555 1_555
C25 C24 1_555 1_555
C26 C10 1_555 1_555
C27 C26 1_555 1_555
C28 C27 1_555 1_555
H19 C28 1_555 1_555
C29 C28 1_555 1_555
H20 C29 1_555 1_555
C30 C29 1_555 1_555
C31 C13 1_555 1_555
C32 C31 1_555 1_555
C33 C32 1_555 1_555
H21 C33 1_555 1_555
C34 C33 1_555 1_555
H22 C34 1_555 1_555
C35 C34 1_555 1_555
C36 C18 1_555 1_555
C37 C36 1_555 1_555
C38 C37 1_555 1_555
H23 C38 1_555 1_555
C39 C38 1_555 1_555
H24 C39 1_555 1_555
C40 C21 1_555 1_555
N1 Cu1 1_555 1_555
N2 C6 1_555 1_555
N3 C12 1_555 1_555
N4 C16 1_555 1_555
N5 C27 1_555 1_555
N6 Cu3 1_555 1_555
N7 Cu3 1_555 1_555
N8 Cu3 1_555 1_555
O9A Mo2 1_555 1_555
O10A Mo3 1_555 1_555
O6A Cu1 1_555 1_555
O4A Cu2 1_555 1_555
Cu2A O4 1_555 1_555
Cu1A O6 1_555 1_555
Mo2A O9 1_555 1_555
Mo3A O10 1_555 1_555
N2C Cu1 1_555 1_555
N3A Cu2 1_555 1_555
N4B Cu2 1_555 1_555
Cu1C N2 1_555 1_555
Cu2A_2 N3 1_555 1_555
Cu2B N4 1_555 1_555
Mo3 O2 1_555 1_555
Mo3 O11 1_555 1_555
Cu1 O7 1_555 1_555
Cu2 O10A 1_555 1_555
Cu2 O11 1_555 1_555
O10 Cu2A 1_555 1_555
C1 N1 1_555 1_555
C2 N1 1_555 1_555
C4 C5 1_555 1_555
C7 N2 1_555 1_555
C9 C10 1_555 1_555
C14 C15 1_555 1_555
C14 N3 1_555 1_555
C17 N4 1_555 1_555
C18 C20 1_555 1_555
C22 N8 1_555 1_555
C25 C26 1_555 1_555
C25 N8 1_555 1_555
C30 C31 1_555 1_555
C30 N5 1_555 1_555
C32 N6 1_555 1_555
C35 C36 1_555 1_555
C35 N6 1_555 1_555
C37 N7 1_555 1_555
C39 C40 1_555 1_555
C40 N7 1_555 1_555
O9A Cu1A 1_555 1_555
O6A Mo3A 1_555 1_555
Cu2A Mo3A 1_555 1_555

#END
