
#######################################################################
#
#                 Cambridge Crystallographic Data Centre
#                                CCDC 
#
#######################################################################
#
# If this CIF has been generated from an entry in the Cambridge 
# Structural Database, then it will include bibliographic, chemical, 
# crystal, experimental, refinement or atomic coordinate data resulting 
# from the CCDC's data processing and validation procedures.
#
#######################################################################

data_CAZGOZ
_chemical_formula_moiety         '(C120 H72 Fe4 Mo6 N24 O19 2+)n'
_symmetry_cell_setting           cubic
_symmetry_space_group_name_H-M   'P n -3'
_symmetry_Int_Tables_number      201
_space_group_name_Hall           '-P 2ab 2bc 3'
loop_
_symmetry_equiv_pos_site_id
_symmetry_equiv_pos_as_xyz
1 x,y,z
2 1/2-x,1/2-y,z
3 x,1/2-y,1/2-z
4 z,x,y
5 1/2-x,y,1/2-z
6 1/2-z,1/2-x,y
7 z,1/2-x,1/2-y
8 1/2-z,x,1/2-y
9 y,z,x
10 y,1/2-z,1/2-x
11 1/2-y,z,1/2-x
12 1/2-y,1/2-z,x
13 -x,-y,-z
14 1/2+x,1/2+y,-z
15 -x,1/2+y,1/2+z
16 -z,-x,-y
17 1/2+x,-y,1/2+z
18 1/2+z,1/2+x,-y
19 -z,1/2+x,1/2+y
20 1/2+z,-x,1/2+y
21 -y,-z,-x
22 -y,1/2+z,1/2+x
23 1/2+y,-z,1/2+x
24 1/2+y,1/2+z,-x
_cell_length_a                   19.66600(10)
_cell_length_b                   19.66600(10)
_cell_length_c                   19.66600(10)
_cell_angle_alpha                90
_cell_angle_beta                 90
_cell_angle_gamma                90
_cell_volume                     7605.86
loop_
_atom_site_label
_atom_site_type_symbol
_atom_site_fract_x
_atom_site_fract_y
_atom_site_fract_z
Mo1 Mo 0.61621(4) -0.48506(4) 0.01317(4)
O1 O 0.7014(3) -0.4765(4) 0.0210(4)
O2 O 0.5848(3) -0.3964(3) -0.0009(3)
O3 O 0.5000 -0.5000 0.0000
O4 O 0.5846(3) -0.4812(3) 0.1027(3)
Mo1G Mo 0.48683(4) -0.38379(4) -0.01494(4)
Mo1I Mo 0.51494(4) -0.51317(4) -0.11621(4)
Mo1S Mo 0.51317(4) -0.61621(4) 0.01494(4)
Mo1U Mo 0.48506(4) -0.48683(4) 0.11621(4)
Mo1L Mo 0.38379(4) -0.51494(4) -0.01317(4)
O1G O 0.4790(4) -0.2986(3) -0.0235(4)
O2G O 0.5009(3) -0.4152(3) -0.1036(3)
O1I O 0.5235(4) -0.5210(4) -0.2014(3)
O2I O 0.6036(3) -0.4991(3) -0.0848(3)
O4I O 0.5188(3) -0.6027(3) -0.0846(3)
O1S O 0.5210(4) -0.7014(3) 0.0235(4)
O2S O 0.4991(3) -0.5848(3) 0.1036(3)
O1U O 0.4765(4) -0.4790(4) 0.2014(3)
O2U O 0.3964(3) -0.5009(3) 0.0848(3)
O1L O 0.2986(3) -0.5235(4) -0.0210(4)
O2L O 0.4152(3) -0.6036(3) 0.0009(3)
O4G O 0.3973(3) -0.4154(3) -0.0188(3)
O4U O 0.4812(3) -0.3973(3) 0.0846(3)
O4S O 0.6027(3) -0.5846(3) 0.0188(3)
O4L O 0.4154(3) -0.5188(3) -0.1027(3)
Fe1 Fe 0.2500 -0.2500 0.2500
Fe2 Fe 0.2500 -0.7500 0.2500
N1 N 0.2500 -0.2500(4) 0.6458
N2 N 0.2500(4) -0.6399 0.2500
N3 N 0.2498(3) -0.3204(3) 0.3224(3)
C1 C 0.1939(9) -0.2559(5) 0.6097(5)
H1 H 0.1527 -0.2592 0.6328
C2 C 0.1927(10) -0.2576(5) 0.5391(5)
H2 H 0.1515 -0.2641 0.5167
C3 C 0.2500 -0.2500(5) 0.5025
C4 C 0.2500 -0.2500(5) 0.4265
C5 C 0.2484(4) -0.3122(3) 0.3925(4)
C6 C 0.2476(4) -0.3772(4) 0.4261(5)
H3 H 0.2468 -0.3847 0.4728
C7 C 0.2484(4) -0.4245(4) 0.3776(5)
H4 H 0.2474 -0.4713 0.3844
C8 C 0.2511(3) -0.3903(3) 0.3126(4)
C9 C 0.2500(5) -0.4225 0.2500
C10 C 0.2500(5) -0.4975 0.2500
C11 C 0.3068(5) -0.5333(11) 0.2457(5)
H5 H 0.3481 -0.5106 0.2411
C12 C 0.3064(5) -0.6031(10) 0.2479(5)
H6 H 0.3479 -0.6257 0.2479
C2A C 0.3073(10) -0.2424(5) 0.5391(5)
C1A C 0.3061(9) -0.2441(5) 0.6097(5)
H1A H 0.3473 -0.2408 0.6328
H2A H 0.3485 -0.2359 0.5167
C8D C 0.2489(3) -0.3903(3) 0.1874(4)
N3D N 0.2502(3) -0.3204(3) 0.1776(3)
C5D C 0.2516(4) -0.3122(3) 0.1075(4)
C4B C 0.2500 -0.2500(5) 0.0735
C3B C 0.2500 -0.2500(5) -0.0025
C2D C 0.3073(10) -0.2576(5) -0.0391(5)
C1D C 0.3061(9) -0.2559(5) -0.1097(5)
N1B N 0.2500 -0.2500(4) -0.1458
C1B C 0.1939(9) -0.2441(5) -0.1097(5)
H1B H 0.1527 -0.2408 -0.1328
C2B C 0.1927(10) -0.2424(5) -0.0391(5)
H2B H 0.1515 -0.2359 -0.0167
H1D H 0.3473 -0.2592 -0.1328
H2D H 0.3485 -0.2641 -0.0167
C5B C 0.2484(4) -0.1878(3) 0.1075(4)
N3B N 0.2498(3) -0.1796(3) 0.1776(3)
C8B C 0.2511(3) -0.1097(3) 0.1874(4)
C7B C 0.2484(4) -0.0755(4) 0.1224(5)
C6B C 0.2476(4) -0.1228(4) 0.0739(5)
H3B H 0.2468 -0.1153 0.0272
H4B H 0.2474 -0.0287 0.1156
C9A C 0.2500(5) -0.0775 0.2500
C8A C 0.2489(3) -0.1097(3) 0.3126(4)
N3A N 0.2502(3) -0.1796(3) 0.3224(3)
C5A C 0.2516(4) -0.1878(3) 0.3925(4)
C6A C 0.2524(4) -0.1228(4) 0.4261(5)
H3A H 0.2532 -0.1153 0.4728
C7A C 0.2516(4) -0.0755(4) 0.3776(5)
H4A H 0.2526 -0.0287 0.3844
C10A C 0.2500(5) -0.0025 0.2500
C11B C 0.3068(5) 0.0333(11) 0.2543(5)
H5B H 0.3481 0.0106 0.2589
C12B C 0.3064(5) 0.1031(10) 0.2521(5)
N2A N 0.2500(4) 0.1399 0.2500
C12A C 0.1936(5) 0.1031(10) 0.2479(5)
C11A C 0.1932(5) 0.0333(11) 0.2457(5)
H5A H 0.1519 0.0106 0.2411
H6A H 0.1521 0.1257 0.2479
H6B H 0.3479 0.1257 0.2521
C6D C 0.2524(4) -0.3772(4) 0.0739(5)
H3D H 0.2532 -0.3847 0.0272
C7D C 0.2516(4) -0.4245(4) 0.1224(5)
H4D H 0.2526 -0.4713 0.1156
C12D C 0.1936(5) -0.6031(10) 0.2521(5)
C11D C 0.1932(5) -0.5333(11) 0.2543(5)
H5D H 0.1519 -0.5106 0.2589
H6D H 0.1521 -0.6257 0.2521
N1_2 N 0.2500 -1.2500(4) 0.6458
N2A_2 N 0.2500(4) -0.8601 0.2500
N3A_2 N 0.2502(3) -1.1796(3) 0.3224(3)
C1A_2 C 0.3061(9) -1.2441(5) 0.6097(5)
H1A_2 H 0.3473 -1.2408 0.6328
C2A_2 C 0.3073(10) -1.2424(5) 0.5391(5)
H2A_2 H 0.3485 -1.2359 0.5167
C3_2 C 0.2500 -1.2500(5) 0.5025
C4_2 C 0.2500 -1.2500(5) 0.4265
C5A_2 C 0.2516(4) -1.1878(3) 0.3925(4)
C6A_2 C 0.2524(4) -1.1228(4) 0.4261(5)
H3A_2 H 0.2532 -1.1153 0.4728
C7A_2 C 0.2516(4) -1.0755(4) 0.3776(5)
H4A_2 H 0.2526 -1.0287 0.3844
C8A_2 C 0.2489(3) -1.1097(3) 0.3126(4)
C9A_2 C 0.2500(5) -1.0775 0.2500
C10A_2 C 0.2500(5) -1.0025 0.2500
C11A_2 C 0.1932(5) -0.9667(11) 0.2457(5)
H5A_2 H 0.1519 -0.9894 0.2411
C12A_2 C 0.1936(5) -0.8969(10) 0.2479(5)
H6A_2 H 0.1521 -0.8743 0.2479
C2_2 C 0.1927(10) -1.2576(5) 0.5391(5)
C1_2 C 0.1939(9) -1.2559(5) 0.6097(5)
H1_2 H 0.1527 -1.2592 0.6328
H2_2 H 0.1515 -1.2641 0.5167
C8B_2 C 0.2511(3) -1.1097(3) 0.1874(4)
N3B_2 N 0.2498(3) -1.1796(3) 0.1776(3)
C5B_2 C 0.2484(4) -1.1878(3) 0.1075(4)
C4B_2 C 0.2500 -1.2500(5) 0.0735
C3B_2 C 0.2500 -1.2500(5) -0.0025
C2B_2 C 0.1927(10) -1.2424(5) -0.0391(5)
C1B_2 C 0.1939(9) -1.2441(5) -0.1097(5)
N1B_2 N 0.2500 -1.2500(4) -0.1458
C1D_2 C 0.3061(9) -1.2559(5) -0.1097(5)
H1D_2 H 0.3473 -1.2592 -0.1328
C2D_2 C 0.3073(10) -1.2576(5) -0.0391(5)
H2D_2 H 0.3485 -1.2641 -0.0167
H1B_2 H 0.1527 -1.2408 -0.1328
H2B_2 H 0.1515 -1.2359 -0.0167
C5D_2 C 0.2516(4) -1.3122(3) 0.1075(4)
N3D_2 N 0.2502(3) -1.3204(3) 0.1776(3)
C8D_2 C 0.2489(3) -1.3903(3) 0.1874(4)
C7D_2 C 0.2516(4) -1.4245(4) 0.1224(5)
C6D_2 C 0.2524(4) -1.3772(4) 0.0739(5)
H3D_2 H 0.2532 -1.3847 0.0272
H4D_2 H 0.2526 -1.4713 0.1156
C9_2 C 0.2500(5) -1.4225 0.2500
C8_2 C 0.2511(3) -1.3903(3) 0.3126(4)
N3_2 N 0.2498(3) -1.3204(3) 0.3224(3)
C5_2 C 0.2484(4) -1.3122(3) 0.3925(4)
C6_2 C 0.2476(4) -1.3772(4) 0.4261(5)
H3_2 H 0.2468 -1.3847 0.4728
C7_2 C 0.2484(4) -1.4245(4) 0.3776(5)
H4_2 H 0.2474 -1.4713 0.3844
C10_2 C 0.2500(5) -1.4975 0.2500
C11D_2 C 0.1932(5) -1.5333(11) 0.2543(5)
H5D_2 H 0.1519 -1.5106 0.2589
C12D_2 C 0.1936(5) -1.6031(10) 0.2521(5)
N2_2 N 0.2500(4) -1.6399 0.2500
C12_2 C 0.3064(5) -1.6031(10) 0.2479(5)
C11_2 C 0.3068(5) -1.5333(11) 0.2457(5)
H5_2 H 0.3481 -1.5106 0.2411
H6_2 H 0.3479 -1.6257 0.2479
H6D_2 H 0.1521 -1.6257 0.2521
C6B_2 C 0.2476(4) -1.1228(4) 0.0739(5)
H3B_2 H 0.2468 -1.1153 0.0272
C7B_2 C 0.2484(4) -1.0755(4) 0.1224(5)
H4B_2 H 0.2474 -1.0287 0.1156
C12B_2 C 0.3064(5) -0.8969(10) 0.2521(5)
C11B_2 C 0.3068(5) -0.9667(11) 0.2543(5)
H5B_2 H 0.3481 -0.9894 0.2589
H6B_2 H 0.3479 -0.8743 0.2521
N1C N 0.6458 -0.7500 0.7500(4)
N2C N 0.2500 -0.7500(4) 0.3601
N3C N 0.3224(3) -0.7502(3) 0.6796(3)
C1C C 0.6097(5) -0.8061(9) 0.7441(5)
H1C H 0.6328 -0.8473 0.7408
C2C C 0.5391(5) -0.8073(10) 0.7424(5)
H2C H 0.5167 -0.8485 0.7359
C3C C 0.5025 -0.7500 0.7500(5)
C4C C 0.4265 -0.7500 0.7500(5)
C5C C 0.3925(4) -0.7516(4) 0.6878(3)
C6C C 0.4261(5) -0.7524(4) 0.6228(4)
H3C H 0.4728 -0.7532 0.6153
C7C C 0.3776(5) -0.7516(4) 0.5755(4)
H4C H 0.3844 -0.7526 0.5287
C8C C 0.3126(4) -0.7489(3) 0.6097(3)
C9C C 0.2500 -0.7500(5) 0.5775
C10C C 0.2500 -0.7500(5) 0.5025
C11C C 0.2457(5) -0.6932(5) 0.4667(11)
H5C H 0.2411 -0.6519 0.4894
C12C C 0.2479(5) -0.6936(5) 0.3969(10)
H6C H 0.2479 -0.6521 0.3743
C2F C 0.5391(5) -0.6927(10) 0.7576(5)
C1F C 0.6097(5) -0.6939(9) 0.7559(5)
H1F H 0.6328 -0.6527 0.7592
H2F H 0.5167 -0.6515 0.7641
C8E C 0.1874(4) -0.7511(3) 0.6097(3)
N3E N 0.1776(3) -0.7498(3) 0.6796(3)
C5E C 0.1075(4) -0.7484(4) 0.6878(3)
C4E C 0.0735 -0.7500 0.7500(5)
C3E C -0.0025 -0.7500 0.7500(5)
C2E C -0.0391(5) -0.6927(10) 0.7424(5)
C1E C -0.1097(5) -0.6939(9) 0.7441(5)
N1E N -0.1458 -0.7500 0.7500(4)
C1G C -0.1097(5) -0.8061(9) 0.7559(5)
H1G H -0.1328 -0.8473 0.7592
C2G C -0.0391(5) -0.8073(10) 0.7576(5)
H2G H -0.0167 -0.8485 0.7641
H1E H -0.1328 -0.6527 0.7408
H2E H -0.0167 -0.6515 0.7359
C5G C 0.1075(4) -0.7516(4) 0.8122(3)
N3G N 0.1776(3) -0.7502(3) 0.8204(3)
C8G C 0.1874(4) -0.7489(3) 0.8903(3)
C7G C 0.1224(5) -0.7516(4) 0.9245(4)
C6G C 0.0739(5) -0.7524(4) 0.8772(4)
H3G H 0.0272 -0.7532 0.8847
H4G H 0.1156 -0.7526 0.9713
C9F C 0.2500 -0.7500(5) 0.9225
C8F C 0.3126(4) -0.7511(3) 0.8903(3)
N3F N 0.3224(3) -0.7498(3) 0.8204(3)
C5F C 0.3925(4) -0.7484(4) 0.8122(3)
C6F C 0.4261(5) -0.7476(4) 0.8772(4)
H3F H 0.4728 -0.7468 0.8847
C7F C 0.3776(5) -0.7484(4) 0.9245(4)
H4F H 0.3844 -0.7474 0.9713
C10F C 0.2500 -0.7500(5) 0.9975
C11G C 0.2543(5) -0.6932(5) 1.0333(11)
H5G H 0.2589 -0.6519 1.0106
C12G C 0.2521(5) -0.6936(5) 1.1031(10)
N2F N 0.2500 -0.7500(4) 1.1399
C12F C 0.2479(5) -0.8064(5) 1.1031(10)
C11F C 0.2457(5) -0.8068(5) 1.0333(11)
H5F H 0.2411 -0.8481 1.0106
H6F H 0.2479 -0.8479 1.1257
H6G H 0.2521 -0.6521 1.1257
C6E C 0.0739(5) -0.7476(4) 0.6228(4)
H3E H 0.0272 -0.7468 0.6153
C7E C 0.1224(5) -0.7484(4) 0.5755(4)
H4E H 0.1156 -0.7474 0.5287
C12E C 0.2521(5) -0.8064(5) 0.3969(10)
C11E C 0.2543(5) -0.8068(5) 0.4667(11)
H5E H 0.2589 -0.8481 0.4894
H6E H 0.2521 -0.8479 0.3743
N2F_2 N 0.2500 -0.7500(4) 0.1399
N2H N 0.3601 -0.7500 0.2500(4)
N2J N 0.1399 -0.7500 0.2500(4)
Fe2_2 Fe 0.2500 0.2500 0.2500
Fe2_3 Fe 0.2500 -1.7500 0.2500
Fe2_4 Fe 0.2500 -0.7500 1.2500
Fe1T Fe 0.2500 -0.2500 -0.2500
Fe1T_2 Fe 0.2500 -1.2500 0.7500
Fe1T_3 Fe 0.2500 -1.2500 -0.2500
Fe1L Fe 0.7500 -0.7500 0.7500
Fe1L_2 Fe -0.2500 -0.7500 0.7500
Fe1T_4 Fe 0.2500 -0.2500 0.7500
Fe1_2 Fe 0.2500 -1.2500 0.2500
Fe1C Fe 0.2500 -0.7500 0.7500
N1T N 0.2500(4) -0.6458 0.7500
N1O N 0.3542 -0.2500 0.2500(4)
N1Q N 0.1458 -0.2500 0.2500(4)
N1O_2 N 0.3542 -1.2500 0.2500(4)
N1Q_2 N 0.1458 -1.2500 0.2500(4)
N1U N 0.2500(4) -0.8542 0.7500
loop_
_geom_bond_atom_site_label_1
_geom_bond_atom_site_label_2
_geom_bond_site_symmetry_1
_geom_bond_site_symmetry_2
Fe1 N3 1_555 1_555
Fe2 N2 1_555 1_555
N1 C1 1_555 1_555
N2 C12 1_555 1_555
N3 C5 1_555 1_555
C1 H1 1_555 1_555
C2 C1 1_555 1_555
H2 C2 1_555 1_555
C3 C2 1_555 1_555
C4 C3 1_555 1_555
C5 C4 1_555 1_555
C6 C5 1_555 1_555
H3 C6 1_555 1_555
C7 C6 1_555 1_555
H4 C7 1_555 1_555
C8 N3 1_555 1_555
C9 C8 1_555 1_555
C10 C9 1_555 1_555
C11 C10 1_555 1_555
H5 C11 1_555 1_555
C12 C11 1_555 1_555
H6 C12 1_555 1_555
Mo1 O1 1_555 1_555
O2 Mo1 1_555 1_555
O3 Mo1 1_555 1_555
O4 Mo1 1_555 1_555
C2A C3 1_555 1_555
C1A N1 1_555 1_555
H1A C1A 1_555 1_555
H2A C2A 1_555 1_555
C8D C9 1_555 1_555
N3D Fe1 1_555 1_555
C5D N3D 1_555 1_555
C4B C5D 1_555 1_555
C3B C4B 1_555 1_555
C2D C3B 1_555 1_555
C1D C2D 1_555 1_555
N1B C1D 1_555 1_555
C1B N1B 1_555 1_555
H1B C1B 1_555 1_555
C2B C3B 1_555 1_555
H2B C2B 1_555 1_555
H1D C1D 1_555 1_555
H2D C2D 1_555 1_555
C5B C4B 1_555 1_555
N3B Fe1 1_555 1_555
C8B N3B 1_555 1_555
C7B C8B 1_555 1_555
C6B C5B 1_555 1_555
H3B C6B 1_555 1_555
H4B C7B 1_555 1_555
C9A C8B 1_555 1_555
C8A C9A 1_555 1_555
N3A Fe1 1_555 1_555
C5A C4 1_555 1_555
C6A C5A 1_555 1_555
H3A C6A 1_555 1_555
C7A C8A 1_555 1_555
H4A C7A 1_555 1_555
C10A C9A 1_555 1_555
C11B C10A 1_555 1_555
H5B C11B 1_555 1_555
C12B C11B 1_555 1_555
N2A C12B 1_555 1_555
C12A N2A 1_555 1_555
C11A C10A 1_555 1_555
H5A C11A 1_555 1_555
H6A C12A 1_555 1_555
H6B C12B 1_555 1_555
C6D C5D 1_555 1_555
H3D C6D 1_555 1_555
C7D C8D 1_555 1_555
H4D C7D 1_555 1_555
C12D N2 1_555 1_555
C11D C10 1_555 1_555
H5D C11D 1_555 1_555
H6D C12D 1_555 1_555
N1_2 C1A_2 1_555 1_555
N2A_2 Fe2 1_555 1_555
N3A_2 C5A_2 1_555 1_555
C1A_2 H1A_2 1_555 1_555
C2A_2 C1A_2 1_555 1_555
H2A_2 C2A_2 1_555 1_555
C3_2 C2A_2 1_555 1_555
C4_2 C3_2 1_555 1_555
C5A_2 C4_2 1_555 1_555
C6A_2 C5A_2 1_555 1_555
H3A_2 C6A_2 1_555 1_555
C7A_2 C6A_2 1_555 1_555
H4A_2 C7A_2 1_555 1_555
C8A_2 N3A_2 1_555 1_555
C9A_2 C8A_2 1_555 1_555
C10A_2 C9A_2 1_555 1_555
C11A_2 C10A_2 1_555 1_555
H5A_2 C11A_2 1_555 1_555
C12A_2 N2A_2 1_555 1_555
H6A_2 C12A_2 1_555 1_555
C2_2 C3_2 1_555 1_555
C1_2 N1_2 1_555 1_555
H1_2 C1_2 1_555 1_555
H2_2 C2_2 1_555 1_555
C8B_2 C9A_2 1_555 1_555
N3B_2 C8B_2 1_555 1_555
C5B_2 N3B_2 1_555 1_555
C4B_2 C5B_2 1_555 1_555
C3B_2 C4B_2 1_555 1_555
C2B_2 C3B_2 1_555 1_555
C1B_2 C2B_2 1_555 1_555
N1B_2 C1B_2 1_555 1_555
C1D_2 N1B_2 1_555 1_555
H1D_2 C1D_2 1_555 1_555
C2D_2 C3B_2 1_555 1_555
H2D_2 C2D_2 1_555 1_555
H1B_2 C1B_2 1_555 1_555
H2B_2 C2B_2 1_555 1_555
C5D_2 C4B_2 1_555 1_555
N3D_2 C5D_2 1_555 1_555
C8D_2 N3D_2 1_555 1_555
C7D_2 C8D_2 1_555 1_555
C6D_2 C5D_2 1_555 1_555
H3D_2 C6D_2 1_555 1_555
H4D_2 C7D_2 1_555 1_555
C9_2 C8D_2 1_555 1_555
C8_2 C9_2 1_555 1_555
N3_2 C8_2 1_555 1_555
C5_2 C4_2 1_555 1_555
C6_2 C5_2 1_555 1_555
H3_2 C6_2 1_555 1_555
C7_2 C8_2 1_555 1_555
H4_2 C7_2 1_555 1_555
C10_2 C9_2 1_555 1_555
C11D_2 C10_2 1_555 1_555
H5D_2 C11D_2 1_555 1_555
C12D_2 C11D_2 1_555 1_555
N2_2 C12D_2 1_555 1_555
C12_2 N2_2 1_555 1_555
C11_2 C10_2 1_555 1_555
H5_2 C11_2 1_555 1_555
H6_2 C12_2 1_555 1_555
H6D_2 C12D_2 1_555 1_555
C6B_2 C5B_2 1_555 1_555
H3B_2 C6B_2 1_555 1_555
C7B_2 C8B_2 1_555 1_555
H4B_2 C7B_2 1_555 1_555
C12B_2 N2A_2 1_555 1_555
C11B_2 C10A_2 1_555 1_555
H5B_2 C11B_2 1_555 1_555
H6B_2 C12B_2 1_555 1_555
N1C C1C 1_555 1_555
N2C Fe2 1_555 1_555
N3C C5C 1_555 1_555
C1C H1C 1_555 1_555
C2C C1C 1_555 1_555
H2C C2C 1_555 1_555
C3C C2C 1_555 1_555
C4C C3C 1_555 1_555
C5C C4C 1_555 1_555
C6C C5C 1_555 1_555
H3C C6C 1_555 1_555
C7C C6C 1_555 1_555
H4C C7C 1_555 1_555
C8C N3C 1_555 1_555
C9C C8C 1_555 1_555
C10C C9C 1_555 1_555
C11C C10C 1_555 1_555
H5C C11C 1_555 1_555
C12C N2C 1_555 1_555
H6C C12C 1_555 1_555
C2F C3C 1_555 1_555
C1F N1C 1_555 1_555
H1F C1F 1_555 1_555
H2F C2F 1_555 1_555
C8E C9C 1_555 1_555
N3E C8E 1_555 1_555
C5E N3E 1_555 1_555
C4E C5E 1_555 1_555
C3E C4E 1_555 1_555
C2E C3E 1_555 1_555
C1E C2E 1_555 1_555
N1E C1E 1_555 1_555
C1G N1E 1_555 1_555
H1G C1G 1_555 1_555
C2G C3E 1_555 1_555
H2G C2G 1_555 1_555
H1E C1E 1_555 1_555
H2E C2E 1_555 1_555
C5G C4E 1_555 1_555
N3G C5G 1_555 1_555
C8G N3G 1_555 1_555
C7G C8G 1_555 1_555
C6G C5G 1_555 1_555
H3G C6G 1_555 1_555
H4G C7G 1_555 1_555
C9F C8G 1_555 1_555
C8F C9F 1_555 1_555
N3F C8F 1_555 1_555
C5F C4C 1_555 1_555
C6F C5F 1_555 1_555
H3F C6F 1_555 1_555
C7F C8F 1_555 1_555
H4F C7F 1_555 1_555
C10F C9F 1_555 1_555
C11G C10F 1_555 1_555
H5G C11G 1_555 1_555
C12G C11G 1_555 1_555
N2F C12G 1_555 1_555
C12F N2F 1_555 1_555
C11F C10F 1_555 1_555
H5F C11F 1_555 1_555
H6F C12F 1_555 1_555
H6G C12G 1_555 1_555
C6E C5E 1_555 1_555
H3E C6E 1_555 1_555
C7E C8E 1_555 1_555
H4E C7E 1_555 1_555
C12E N2C 1_555 1_555
C11E C10C 1_555 1_555
H5E C11E 1_555 1_555
H6E C12E 1_555 1_555
N2F_2 Fe2 1_555 1_555
N2H Fe2 1_555 1_555
N2J Fe2 1_555 1_555
Fe2_2 N2A 1_555 1_555
Fe2_3 N2_2 1_555 1_555
Fe2_4 N2F 1_555 1_555
Fe1T N1B 1_555 1_555
Fe1T_2 N1_2 1_555 1_555
Fe1T_3 N1B_2 1_555 1_555
Fe1L N1C 1_555 1_555
Fe1L_2 N1E 1_555 1_555
Fe1T_4 N1 1_555 1_555
Fe1_2 N3A_2 1_555 1_555
Fe1C N3C 1_555 1_555
N1T Fe1C 1_555 1_555
N1O Fe1 1_555 1_555
N1Q Fe1 1_555 1_555
N1O_2 Fe1_2 1_555 1_555
N1Q_2 Fe1_2 1_555 1_555
N1U Fe1C 1_555 1_555
Mo1G Mo1 1_555 1_555
Mo1I Mo1 1_555 1_555
Mo1S Mo1 1_555 1_555
Mo1U Mo1 1_555 1_555
Mo1L O3 1_555 1_555
O1G Mo1G 1_555 1_555
O2G Mo1G 1_555 1_555
O1I Mo1I 1_555 1_555
O2I Mo1 1_555 1_555
O4I Mo1I 1_555 1_555
O1S Mo1S 1_555 1_555
O2S Mo1S 1_555 1_555
O1U Mo1U 1_555 1_555
O2U Mo1U 1_555 1_555
O1L Mo1L 1_555 1_555
O2L Mo1S 1_555 1_555
O4G Mo1G 1_555 1_555
O4U Mo1G 1_555 1_555
O4S Mo1 1_555 1_555
O4L Mo1I 1_555 1_555
C7 C8 1_555 1_555
O2 Mo1G 1_555 1_555
O3 Mo1G 1_555 1_555
O3 Mo1I 1_555 1_555
O3 Mo1S 1_555 1_555
O3 Mo1U 1_555 1_555
O4 Mo1U 1_555 1_555
C2A C1A 1_555 1_555
C8D N3D 1_555 1_555
C1B C2B 1_555 1_555
C5B N3B 1_555 1_555
C7B C6B 1_555 1_555
C8A N3A 1_555 1_555
N3A C5A 1_555 1_555
C6A C7A 1_555 1_555
C12A C11A 1_555 1_555
C6D C7D 1_555 1_555
C12D C11D 1_555 1_555
C7A_2 C8A_2 1_555 1_555
C11A_2 C12A_2 1_555 1_555
C2_2 C1_2 1_555 1_555
N3B_2 Fe1_2 1_555 1_555
C1D_2 C2D_2 1_555 1_555
N3D_2 Fe1_2 1_555 1_555
C7D_2 C6D_2 1_555 1_555
N3_2 C5_2 1_555 1_555
N3_2 Fe1_2 1_555 1_555
C6_2 C7_2 1_555 1_555
C12_2 C11_2 1_555 1_555
C6B_2 C7B_2 1_555 1_555
C12B_2 C11B_2 1_555 1_555
C7C C8C 1_555 1_555
C11C C12C 1_555 1_555
C2F C1F 1_555 1_555
N3E Fe1C 1_555 1_555
C1G C2G 1_555 1_555
N3G Fe1C 1_555 1_555
C7G C6G 1_555 1_555
N3F C5F 1_555 1_555
N3F Fe1C 1_555 1_555
C6F C7F 1_555 1_555
C12F C11F 1_555 1_555
C6E C7E 1_555 1_555
C12E C11E 1_555 1_555
Mo1G Mo1I 1_555 1_555
Mo1G Mo1U 1_555 1_555
Mo1G Mo1L 1_555 1_555
Mo1I Mo1S 1_555 1_555
Mo1I Mo1L 1_555 1_555
Mo1I O2G 1_555 1_555
Mo1I O2I 1_555 1_555
Mo1S Mo1U 1_555 1_555
Mo1S Mo1L 1_555 1_555
Mo1S O4I 1_555 1_555
Mo1S O4S 1_555 1_555
Mo1U Mo1L 1_555 1_555
Mo1U O2S 1_555 1_555
Mo1U O4U 1_555 1_555
Mo1L O2U 1_555 1_555
Mo1L O2L 1_555 1_555
Mo1L O4G 1_555 1_555
Mo1L O4L 1_555 1_555

#END
