
#######################################################################
#
#                 Cambridge Crystallographic Data Centre
#                                CCDC 
#
#######################################################################
#
# If this CIF has been generated from an entry in the Cambridge 
# Structural Database, then it will include bibliographic, chemical, 
# crystal, experimental, refinement or atomic coordinate data resulting 
# from the CCDC's data processing and validation procedures.
#
#######################################################################

data_ARAHIM01
_chemical_formula_moiety         'C8 H10 F7 N6 Nb2 Ni3 O1'
_symmetry_cell_setting           tetragonal
_symmetry_space_group_name_H-M   'I 4/m c m'
_symmetry_Int_Tables_number      140
_space_group_name_Hall           '-I 4 2c'
loop_
_symmetry_equiv_pos_site_id
_symmetry_equiv_pos_as_xyz
1 x,y,z
2 -y,x,z
3 y,-x,z
4 x,-y,1/2-z
5 -x,y,1/2-z
6 -x,-y,z
7 y,x,1/2-z
8 -y,-x,1/2-z
9 1/2+x,1/2+y,1/2+z
10 1/2-y,1/2+x,1/2+z
11 1/2+y,1/2-x,1/2+z
12 1/2+x,1/2-y,-z
13 1/2-x,1/2+y,-z
14 1/2-x,1/2-y,1/2+z
15 1/2+y,1/2+x,-z
16 1/2-y,1/2-x,-z
17 -x,-y,-z
18 y,-x,-z
19 -y,x,-z
20 -x,y,1/2+z
21 x,-y,1/2+z
22 x,y,-z
23 -y,-x,1/2+z
24 y,x,1/2+z
25 1/2-x,1/2-y,1/2-z
26 1/2+y,1/2-x,1/2-z
27 1/2-y,1/2+x,1/2-z
28 1/2-x,1/2+y,z
29 1/2+x,1/2-y,z
30 1/2+x,1/2+y,1/2-z
31 1/2-y,1/2-x,z
32 1/2+y,1/2+x,z
_cell_length_a                   9.8884(4)
_cell_length_b                   9.8884(4)
_cell_length_c                   15.7829(13)
_cell_angle_alpha                90
_cell_angle_beta                 90
_cell_angle_gamma                90
_cell_volume                     1543.26
loop_
_atom_site_label
_atom_site_type_symbol
_atom_site_fract_x
_atom_site_fract_y
_atom_site_fract_z
O1 O 0.411(2) 0.911(2) 0.0803(18)
Nb1 Nb 0.0000 0.0000 0.0000
Ni1 Ni -0.0000 -0.0000 0.2500
F1 F -0.0000 -0.0000 0.1223(3)
F2 F 0.1920(6) 0.0193(7) 0.0000
C1 C 0.2434(4) 0.1571(4) 0.1887(2)
H1 H 0.2410 0.0937 0.1452
N1 N 0.1518(4) 0.1518(4) 0.2500
C1F C 0.1571(4) 0.2434(4) 0.3113(2)
H1F H 0.0937 0.2410 0.3548
C1DA C 0.3429(4) 0.2566(4) 0.1887(2)
H1DA H 0.4063 0.2590 0.1452
N1X N 0.3482(4) 0.3482(4) 0.2500
C1X C 0.2566(4) 0.3429(4) 0.3113(2)
H1X H 0.2590 0.4063 0.3548
F2A F -0.0193(7) 0.1920(6) 0.0000
C1A C -0.1571(4) 0.2434(4) 0.1887(2)
H1A H -0.0937 0.2410 0.1452
N1A N -0.1518(4) 0.1518(4) 0.2500
C1D C -0.2434(4) 0.1571(4) 0.3113(2)
H1D H -0.2410 0.0937 0.3548
C1BA C -0.2566(4) 0.3429(4) 0.1887(2)
H1BA H -0.2590 0.4063 0.1452
N1Y N -0.3482(4) 0.3482(4) 0.2500
C1Y C -0.3429(4) 0.2566(4) 0.3113(2)
H1Y H -0.4063 0.2590 0.3548
F2B F 0.0193(7) -0.1920(6) 0.0000
F1C F -0.0000 -0.0000 0.3777(3)
F2E F -0.1920(6) -0.0193(7) 0.0000
Nb1C Nb -0.0000 -0.0000 0.5000
Ni1X Ni -0.5000 0.5000 0.2500
Ni1X_2 Ni 0.5000 0.5000 0.2500
F1P F 0.0000 0.0000 -0.1223(3)
N1B N 0.1518(4) -0.1518(4) 0.2500
N1E N -0.1518(4) -0.1518(4) 0.2500
loop_
_geom_bond_atom_site_label_1
_geom_bond_atom_site_label_2
_geom_bond_site_symmetry_1
_geom_bond_site_symmetry_2
Nb1 F1 1_555 1_555
Ni1 F1 1_555 1_555
F2 Nb1 1_555 1_555
C1 H1 1_555 1_555
N1 Ni1 1_555 1_555
C1F N1 1_555 1_555
H1F C1F 1_555 1_555
C1DA C1 1_555 1_555
H1DA C1DA 1_555 1_555
N1X C1DA 1_555 1_555
C1X C1F 1_555 1_555
H1X C1X 1_555 1_555
F2A Nb1 1_555 1_555
C1A H1A 1_555 1_555
N1A Ni1 1_555 1_555
C1D N1A 1_555 1_555
H1D C1D 1_555 1_555
C1BA C1A 1_555 1_555
H1BA C1BA 1_555 1_555
N1Y C1BA 1_555 1_555
C1Y C1D 1_555 1_555
H1Y C1Y 1_555 1_555
F2B Nb1 1_555 1_555
F1C Ni1 1_555 1_555
F2E Nb1 1_555 1_555
Nb1C F1C 1_555 1_555
Ni1X N1Y 1_555 1_555
Ni1X_2 N1X 1_555 1_555
F1P Nb1 1_555 1_555
N1B Ni1 1_555 1_555
N1E Ni1 1_555 1_555
C1 N1 1_555 1_555
N1X C1X 1_555 1_555
C1A N1A 1_555 1_555
N1Y C1Y 1_555 1_555

#END
