
#######################################################################
#
#                 Cambridge Crystallographic Data Centre
#                                CCDC 
#
#######################################################################
#
# If this CIF has been generated from an entry in the Cambridge 
# Structural Database, then it will include bibliographic, chemical, 
# crystal, experimental, refinement or atomic coordinate data resulting 
# from the CCDC's data processing and validation procedures.
#
#######################################################################

data_ADOBIF
_chemical_formula_moiety         '(C56 H34 Cl1 Co2 N10 O39 V16)n'
_symmetry_cell_setting           tetragonal
_symmetry_space_group_name_H-M   'P -4 n 2'
_symmetry_Int_Tables_number      118
_space_group_name_Hall           'P -4 -2n'
loop_
_symmetry_equiv_pos_site_id
_symmetry_equiv_pos_as_xyz
1 x,y,z
2 -x,-y,z
3 y,-x,-z
4 -y,x,-z
5 1/2+x,1/2-y,1/2+z
6 1/2-x,1/2+y,1/2+z
7 1/2+y,1/2+x,1/2-z
8 1/2-y,1/2-x,1/2-z
_cell_length_a                   17.066(3)
_cell_length_b                   17.066(3)
_cell_length_c                   14.625(3)
_cell_angle_alpha                90
_cell_angle_beta                 90
_cell_angle_gamma                90
_cell_volume                     4259.51
loop_
_atom_site_label
_atom_site_type_symbol
_atom_site_fract_x
_atom_site_fract_y
_atom_site_fract_z
C11 C 0.4936(17) 0.0658(12) 0.6025(14)
C12 C 0.495(2) 0.0645(12) 0.5102(15)
C13 C 0.5000 0.0000 0.4531(12)
C14 C 0.5000 0.0000 0.3554(13)
C15 C 0.5390(15) -0.0424(14) 0.2970(12)
N4 N 0.5000 0.0000 0.6577(17)
C11A C 0.5064(17) -0.0658(12) 0.6025(14)
C11F C 0.5658(12) -0.0064(17) -0.1025(14)
C11G C 0.4342(12) 0.0064(17) -0.1025(14)
C12A C 0.505(2) -0.0645(12) 0.5102(15)
C12F C 0.5645(12) -0.005(2) -0.0102(15)
C12G C 0.4355(12) 0.005(2) -0.0102(15)
C13F C 0.5000 0.0000 0.0469(12)
C14F C 0.5000 -0.0000 0.1446(13)
C15A C 0.4610(15) 0.0424(14) 0.2970(12)
C15G C 0.5424(14) -0.0390(15) 0.2030(12)
C15F C 0.4576(14) 0.0390(15) 0.2030(12)
N4F N 0.5000 0.0000 -0.1577(17)
Cl1 Cl 0.0000 0.0000 0.0000
O13 O 0.418(3) 0.593(3) 0.053(3)
V1 V 0.38949(9) 0.37923(9) 0.62762(10)
V2 V 0.46786(10) 0.31311(10) 0.41377(15)
V3 V 0.57029(19) 0.43535(17) 0.73354(18)
V4 V 0.55121(11) 0.31810(10) 0.58822(15)
C1 C 0.3052(7) 0.1629(6) 0.5705(8)
H1 H 0.3177 0.2134 0.5513
C2 C 0.3058(7) 0.1053(7) 0.5083(8)
H2 H 0.3157 0.1177 0.4475
C3 C 0.2924(6) 0.0292(6) 0.5311(9)
C4 C 0.2767(7) 0.0134(6) 0.6265(8)
H3 H 0.2696 -0.0376 0.6475
C5 C 0.2725(7) 0.0774(6) 0.6862(8)
H4 H 0.2588 0.0686 0.7469
C6 C 0.3049(6) -0.1716(7) 0.4258(8)
H5 H 0.3196 -0.2219 0.4432
C7 C 0.3108(7) -0.1125(7) 0.4900(9)
H6 H 0.3281 -0.1232 0.5490
C8 C 0.2905(6) -0.0368(6) 0.4646(7)
C9 C 0.2637(7) -0.0253(9) 0.3780(9)
H7 H 0.2477 0.0241 0.3586
C10 C 0.2610(7) -0.0880(9) 0.3203(10)
H8 H 0.2444 -0.0783 0.2608
Co1 Co 0.25480(7) 0.24520(7) 0.7500
N1 N 0.2878(5) 0.1521(5) 0.6587(6)
N2 N 0.1610(5) 0.2795(5) 0.6596(6)
O1 O 0.3323(4) 0.3194(4) 0.6824(4)
O2 O 0.4429(5) 0.3145(4) 0.5382(6)
O3 O 0.4943(4) 0.3753(5) 0.6776(6)
O4 O 0.3222(4) 0.4246(5) 0.5376(6)
O5 O 0.3749(5) 0.4813(5) 0.6791(6)
O6 O 0.5697(5) 0.2323(5) 0.6281(7)
O7 O 0.6142(7) 0.3993(8) 0.8222(7)
O8 O 0.4605(5) 0.2262(5) 0.3775(6)
O9 O 0.5000 0.5000 0.7980(12)
O10 O 0.3792(4) 0.3645(4) 0.3771(6)
V1C V 0.62077(9) 0.38949(9) 0.37238(10)
V1A V 0.61051(9) 0.62077(9) 0.62762(10)
V1B V 0.37923(9) 0.61051(9) 0.37238(10)
V2B V 0.31311(10) 0.53214(10) 0.58623(15)
V2C V 0.68689(10) 0.46786(10) 0.58623(15)
V2A V 0.53214(10) 0.68689(10) 0.41377(15)
V3A V 0.42971(19) 0.56465(17) 0.73354(18)
V3B V 0.43535(17) 0.42971(19) 0.26646(18)
V3C V 0.56465(17) 0.57029(19) 0.26646(18)
V4B V 0.31810(10) 0.44879(11) 0.41178(15)
V4A V 0.44879(11) 0.68190(10) 0.58822(15)
V4C V 0.68190(10) 0.55121(11) 0.41178(15)
C1C C -0.1629(6) 0.3052(7) 0.4295(8)
C1D C 0.8052(7) 0.3371(6) 1.0705(8)
C1F C 0.6629(6) 0.8052(7) 0.9295(8)
H1C H -0.2134 0.3177 0.4487
H1D H 0.8177 0.2866 1.0513
H1F H 0.7134 0.8177 0.9487
C2C C -0.1053(7) 0.3058(7) 0.4917(8)
C2D C 0.8058(7) 0.3947(7) 1.0083(8)
C2F C 0.6053(7) 0.8058(7) 0.9917(8)
H2C H -0.1177 0.3157 0.5525
H2D H 0.8157 0.3823 0.9475
H2F H 0.6177 0.8157 1.0525
C3C C -0.0292(6) 0.2924(6) 0.4689(9)
C3D C 0.7924(6) 0.4708(6) 1.0311(9)
C3F C 0.5292(6) 0.7924(6) 0.9689(9)
C4C C -0.0134(6) 0.2767(7) 0.3735(8)
C4D C 0.7767(7) 0.4866(6) 1.1265(8)
C4F C 0.5134(6) 0.7767(7) 0.8735(8)
H3C H 0.0376 0.2696 0.3525
H3D H 0.7696 0.5376 1.1475
H3F H 0.4624 0.7696 0.8525
C5C C -0.0774(6) 0.2725(7) 0.3138(8)
C5D C 0.7725(7) 0.4226(6) 1.1862(8)
C5F C 0.5774(6) 0.7725(7) 0.8138(8)
H4C H -0.0686 0.2588 0.2531
H4D H 0.7588 0.4314 1.2469
H4F H 0.5686 0.7588 0.7531
C6C C 0.1716(7) 0.3049(6) 0.5742(8)
C6F C 0.3284(7) 0.8049(6) 1.0742(8)
C6D C 0.8049(6) 0.6716(7) 0.9258(8)
H5C H 0.2219 0.3196 0.5568
H5F H 0.2781 0.8196 1.0568
H5D H 0.8196 0.7219 0.9432
C7C C 0.1125(7) 0.3108(7) 0.5100(9)
C7F C 0.3875(7) 0.8108(7) 1.0100(9)
C7D C 0.8108(7) 0.6125(7) 0.9900(9)
H6C H 0.1232 0.3281 0.4510
H6F H 0.3768 0.8281 0.9510
H6D H 0.8281 0.6232 1.0490
C8C C 0.0368(6) 0.2905(6) 0.5354(7)
C8F C 0.4632(6) 0.7905(6) 1.0354(7)
C8D C 0.7905(6) 0.5368(6) 0.9646(7)
C9C C 0.0253(9) 0.2637(7) 0.6220(9)
C9F C 0.4747(9) 0.7637(7) 1.1220(9)
C9D C 0.7637(7) 0.5253(9) 0.8780(9)
H7C H -0.0241 0.2477 0.6414
H7F H 0.5241 0.7477 1.1414
H7D H 0.7477 0.4759 0.8586
C10C C 0.0880(9) 0.2610(7) 0.6797(10)
C10F C 0.4120(9) 0.7610(7) 1.1797(10)
C10D C 0.7610(7) 0.5880(9) 0.8203(10)
H8C H 0.0783 0.2444 0.7392
H8F H 0.4217 0.7444 1.2392
H8D H 0.7444 0.5783 0.7608
Co1B Co 0.24520(7) -0.25480(7) 0.2500
Co1C Co -0.24520(7) 0.25480(7) 0.2500
Co1C_2 Co 0.75480(7) 0.25480(7) 1.2500
Co1B_2 Co 0.24520(7) 0.74520(7) 1.2500
Co1C_3 Co 0.75480(7) 0.25480(7) 0.2500
Co1A Co 0.74520(7) 0.75480(7) 0.7500
Co1B_3 Co 0.24520(7) 0.74520(7) 0.2500
N1G N 0.3479(5) 0.2122(5) 0.8413(6)
N1C N -0.1521(5) 0.2878(5) 0.3413(6)
N1D N 0.7878(5) 0.3479(5) 1.1587(6)
N1A N 0.7122(5) 0.8479(5) 0.6587(6)
N1F N 0.6521(5) 0.7878(5) 0.8413(6)
N2B N 0.2795(5) -0.1610(5) 0.3404(6)
N2G N 0.2205(5) 0.3390(5) 0.8404(6)
N2E N 0.3390(5) 0.7795(5) 1.1596(6)
N2A N 0.8390(5) 0.7205(5) 0.6596(6)
N2F N 0.7795(5) 0.6610(5) 0.8404(6)
O1G O 0.1806(4) 0.1677(4) 0.8176(4)
O1C O 0.6806(4) 0.3323(4) 0.3176(4)
O1A O 0.6677(4) 0.6806(4) 0.6824(4)
O1B O 0.3194(4) 0.6677(4) 0.3176(4)
O1F O 0.8194(4) 0.8323(4) 0.8176(4)
O2B O 0.3145(4) 0.5571(5) 0.4618(6)
O2C O 0.6855(4) 0.4429(5) 0.4618(6)
O2A O 0.5571(5) 0.6855(4) 0.5382(6)
O3B O 0.3753(5) 0.5057(4) 0.3224(6)
O3A O 0.5057(4) 0.6247(5) 0.6776(6)
O3C O 0.6247(5) 0.4943(4) 0.3224(6)
O4C O 0.5754(5) 0.3222(4) 0.4624(6)
O4A O 0.6778(4) 0.5754(5) 0.5376(6)
O4B O 0.4246(5) 0.6778(4) 0.4624(6)
O5C O 0.5187(5) 0.3749(5) 0.3209(6)
O5A O 0.6251(5) 0.5187(5) 0.6791(6)
O5B O 0.4813(5) 0.6251(5) 0.3209(6)
O6B O 0.2323(5) 0.4303(5) 0.3719(7)
O6A O 0.4303(5) 0.7677(5) 0.6281(7)
O6C O 0.7677(5) 0.5697(5) 0.3719(7)
O7A O 0.3858(7) 0.6007(8) 0.8222(7)
O7B O 0.3993(8) 0.3858(7) 0.1778(7)
O7C O 0.6007(8) 0.6142(7) 0.1778(7)
O8B O 0.2262(5) 0.5395(5) 0.6225(6)
O8C O 0.7738(5) 0.4605(5) 0.6225(6)
O8A O 0.5395(5) 0.7738(5) 0.3775(6)
O9B O 0.5000 0.5000 0.2020(12)
O10C O 0.6355(4) 0.3792(4) 0.6229(6)
O10B O 0.3645(4) 0.6208(4) 0.6229(6)
O10A O 0.6208(4) 0.6355(4) 0.3771(6)
loop_
_geom_bond_atom_site_label_1
_geom_bond_atom_site_label_2
_geom_bond_site_symmetry_1
_geom_bond_site_symmetry_2
V1 O1 1_555 1_555
V2 O2 1_555 1_555
V3 O3 1_555 1_555
V4 O2 1_555 1_555
C1 H1 1_555 1_555
C2 C1 1_555 1_555
H2 C2 1_555 1_555
C3 C2 1_555 1_555
C4 C3 1_555 1_555
H3 C4 1_555 1_555
C5 C4 1_555 1_555
H4 C5 1_555 1_555
C6 H5 1_555 1_555
C7 C6 1_555 1_555
H6 C7 1_555 1_555
C8 C3 1_555 1_555
C9 C8 1_555 1_555
H7 C9 1_555 1_555
C10 C9 1_555 1_555
H8 C10 1_555 1_555
C11 C12 1_555 1_555
C12 C13 1_555 1_555
C13 C14 1_555 1_555
C14 C15 1_555 1_555
C15 C15G 1_555 1_555
Co1 N1 1_555 1_555
N1 C1 1_555 1_555
N2 Co1 1_555 1_555
N4 C11 1_555 1_555
O1 Co1 1_555 1_555
O2 V1 1_555 1_555
O3 V1 1_555 1_555
O4 V1 1_555 1_555
O5 V1 1_555 1_555
O6 V4 1_555 1_555
O7 V3 1_555 1_555
O8 V2 1_555 1_555
O9 V3 1_555 1_555
O10 V2 1_555 1_555
V1C O1C 1_555 1_555
V1A O1A 1_555 1_555
V1B O1B 1_555 1_555
V2B O4 1_555 1_555
V2C O2C 1_555 1_555
V2A O2A 1_555 1_555
V3A O5 1_555 1_555
V3B O10 1_555 1_555
V3C O3C 1_555 1_555
V4B O4 1_555 1_555
V4A O2A 1_555 1_555
V4C O2C 1_555 1_555
C1C H1C 1_555 1_555
C1D H1D 1_555 1_555
C1F H1F 1_555 1_555
C2C C1C 1_555 1_555
C2D C1D 1_555 1_555
C2F C1F 1_555 1_555
H2C C2C 1_555 1_555
H2D C2D 1_555 1_555
H2F C2F 1_555 1_555
C3C C2C 1_555 1_555
C3D C2D 1_555 1_555
C3F C2F 1_555 1_555
C4C C3C 1_555 1_555
C4D C3D 1_555 1_555
C4F C3F 1_555 1_555
H3C C4C 1_555 1_555
H3D C4D 1_555 1_555
H3F C4F 1_555 1_555
C5C C4C 1_555 1_555
C5D C4D 1_555 1_555
C5F C4F 1_555 1_555
H4C C5C 1_555 1_555
H4D C5D 1_555 1_555
H4F C5F 1_555 1_555
C6C N2 1_555 1_555
C6F H5F 1_555 1_555
C6D H5D 1_555 1_555
H5C C6C 1_555 1_555
C7C C6C 1_555 1_555
C7F C6F 1_555 1_555
C7D C6D 1_555 1_555
H6C C7C 1_555 1_555
H6F C7F 1_555 1_555
H6D C7D 1_555 1_555
C8C C3C 1_555 1_555
C8F C3F 1_555 1_555
C8D C3D 1_555 1_555
C9C C8C 1_555 1_555
C9F C8F 1_555 1_555
C9D C8D 1_555 1_555
H7C C9C 1_555 1_555
H7F C9F 1_555 1_555
H7D C9D 1_555 1_555
C10C N2 1_555 1_555
C10F C9F 1_555 1_555
C10D C9D 1_555 1_555
H8C C10C 1_555 1_555
H8F C10F 1_555 1_555
H8D C10D 1_555 1_555
C11A N4 1_555 1_555
C11F C12F 1_555 1_555
C11G C12G 1_555 1_555
C12A C13 1_555 1_555
C12F C13F 1_555 1_555
C12G C13F 1_555 1_555
C13F C14F 1_555 1_555
C14F C15G 1_555 1_555
C15A C14 1_555 1_555
C15F C14F 1_555 1_555
Co1B N2B 1_555 1_555
Co1C N1C 1_555 1_555
Co1C_2 N1D 1_555 1_555
Co1B_2 N2E 1_555 1_555
Co1C_3 O1C 1_555 1_555
Co1A N1A 1_555 1_555
Co1B_3 O1B 1_555 1_555
N1G Co1 1_555 1_555
N1C C1C 1_555 1_555
N1D C1D 1_555 1_555
N1F C1F 1_555 1_555
N2B C6 1_555 1_555
N2G Co1 1_555 1_555
N2E C6F 1_555 1_555
N2A Co1A 1_555 1_555
N2F C6D 1_555 1_555
N4F C11F 1_555 1_555
O1G Co1 1_555 1_555
O1A Co1A 1_555 1_555
O1F Co1A 1_555 1_555
O2B V1B 1_555 1_555
O2C V1C 1_555 1_555
O2A V1A 1_555 1_555
O3B V1B 1_555 1_555
O3A V1A 1_555 1_555
O3C V1C 1_555 1_555
O4C V2 1_555 1_555
O4A V1A 1_555 1_555
O4B V1B 1_555 1_555
O5C V2 1_555 1_555
O5A V3 1_555 1_555
O5B V1B 1_555 1_555
O6B V4B 1_555 1_555
O6A V4A 1_555 1_555
O6C V4C 1_555 1_555
O7A V3A 1_555 1_555
O7B V3B 1_555 1_555
O7C V3C 1_555 1_555
O8B V2B 1_555 1_555
O8C V2C 1_555 1_555
O8A V2A 1_555 1_555
O9B V3B 1_555 1_555
O10C V3 1_555 1_555
O10B V2B 1_555 1_555
O10A V2A 1_555 1_555
V4 O3 1_555 1_555
V4 O4C 1_555 1_555
V4 O10C 1_555 1_555
C5 N1 1_555 1_555
C7 C8 1_555 1_555
C10 N2B 1_555 1_555
O5 V2B 1_555 1_555
O9 V3A 1_555 1_555
O10 V4B 1_555 1_555
V1C O4C 1_555 1_555
V1C O5C 1_555 1_555
V1A O5A 1_555 1_555
V2B O2B 1_555 1_555
V2C O4A 1_555 1_555
V2C O5A 1_555 1_555
V2C O10C 1_555 1_555
V2A O4B 1_555 1_555
V2A O5B 1_555 1_555
V3A O3A 1_555 1_555
V3A O10B 1_555 1_555
V3B O3B 1_555 1_555
V3B O5C 1_555 1_555
V3C O5B 1_555 1_555
V3C O9B 1_555 1_555
V3C O10A 1_555 1_555
V4B O2B 1_555 1_555
V4B O3B 1_555 1_555
V4A O3A 1_555 1_555
V4A O4B 1_555 1_555
V4A O10B 1_555 1_555
V4C O3C 1_555 1_555
V4C O4A 1_555 1_555
V4C O10A 1_555 1_555
C5C N1C 1_555 1_555
C5D N1D 1_555 1_555
C5F N1F 1_555 1_555
C7C C8C 1_555 1_555
C7F C8F 1_555 1_555
C7D C8D 1_555 1_555
C9C C10C 1_555 1_555
C10F N2E 1_555 1_555
C10D N2F 1_555 1_555
C11A C12A 1_555 1_555
C11G N4F 1_555 1_555
C15A C15F 1_555 1_555
Co1A N1F 1_555 1_555
Co1A N2F 1_555 1_555

#END
