
#######################################################################
#
#                 Cambridge Crystallographic Data Centre
#                                CCDC 
#
#######################################################################
#
# If this CIF has been generated from an entry in the Cambridge 
# Structural Database, then it will include bibliographic, chemical, 
# crystal, experimental, refinement or atomic coordinate data resulting 
# from the CCDC's data processing and validation procedures.
#
#######################################################################

data_VIYZIO
_chemical_formula_moiety         '(C37 H29 N3 O10 Zn2)n'
_symmetry_cell_setting           triclinic
_symmetry_space_group_name_H-M   'P -1'
_symmetry_Int_Tables_number      2
_space_group_name_Hall           '-P 1'
loop_
_symmetry_equiv_pos_site_id
_symmetry_equiv_pos_as_xyz
1 x,y,z
2 -x,-y,-z
_cell_length_a                   10.239(2)
_cell_length_b                   12.191(2)
_cell_length_c                   13.910(3)
_cell_angle_alpha                94.60(3)
_cell_angle_beta                 93.75(3)
_cell_angle_gamma                99.87(3)
_cell_volume                     1699.54
loop_
_atom_site_label
_atom_site_type_symbol
_atom_site_fract_x
_atom_site_fract_y
_atom_site_fract_z
C1 C 0.7932(6) 0.0116(5) 0.6472(4)
C2 C 0.8287(6) -0.0777(5) 0.5967(4)
H1 H 0.8625 -0.0692 0.5367
C3 C 0.8150(6) -0.1821(5) 0.6340(5)
H2 H 0.8387 -0.2420 0.5976
C4 C 0.7672(5) -0.1987(5) 0.7231(4)
C5 C 0.6907(7) -0.1125(6) 0.8748(4)
H3 H 0.6799 -0.1808 0.9013
C6 C 0.6647(8) -0.0216(6) 0.9268(5)
H4 H 0.6362 -0.0285 0.9885
C7 C 0.6795(8) 0.0820(6) 0.8901(5)
H5 H 0.6619 0.1436 0.9276
C8 C 0.7197(6) 0.0940(6) 0.7991(5)
H6 H 0.7289 0.1637 0.7751
C9 C 0.7478(5) 0.0001(5) 0.7407(4)
C10 C 0.7346(5) -0.1054(5) 0.7795(4)
C11 C 0.7553(5) -0.3129(5) 0.7555(5)
C12 C 0.8044(6) 0.1179(5) 0.5970(4)
C13 C 1.1133(5) 0.3713(4) 0.6572(4)
C14 C 1.1792(5) 0.4047(4) 0.5788(4)
H7 H 1.1335 0.4306 0.5278
C15 C 1.3147(5) 0.4002(5) 0.5747(4)
H8 H 1.3573 0.4220 0.5205
C16 C 1.3849(5) 0.3643(4) 0.6495(3)
C17 C 1.3824(5) 0.2704(5) 0.8033(4)
H9 H 1.4728 0.2687 0.8023
C18 C 1.3145(6) 0.2254(6) 0.8762(5)
H10 H 1.3592 0.1959 0.9256
C19 C 1.1782(6) 0.2238(6) 0.8767(5)
H11 H 1.1320 0.1911 0.9256
C20 C 1.1118(6) 0.2689(5) 0.8070(4)
H12 H 1.0205 0.2654 0.8082
C21 C 1.1788(5) 0.3215(4) 0.7320(4)
C22 C 1.3178(5) 0.3195(5) 0.7293(4)
C23 C 0.9732(5) 0.3938(4) 0.6621(4)
C24 C 1.5329(5) 0.3750(4) 0.6449(4)
C25 C 0.8484(5) 0.3121(5) 0.3524(4)
H13 H 0.9234 0.2988 0.3878
C26 C 0.8588(5) 0.3345(5) 0.2577(4)
H14 H 0.9387 0.3339 0.2297
C27 C 0.7494(5) 0.3581(5) 0.2038(4)
C28 C 0.6313(5) 0.3506(5) 0.2483(4)
H15 H 0.5544 0.3616 0.2139
C29 C 0.6278(5) 0.3270(5) 0.3427(4)
H16 H 0.5478 0.3236 0.3714
C30 C 0.7588(5) 0.3887(5) 0.1037(4)
C31 C 0.8496(7) 0.3521(6) 0.0445(4)
H17 H 0.9056 0.3055 0.0668
C32 C 0.8559(6) 0.3852(6) -0.0473(4)
H18 H 0.9184 0.3606 -0.0853
C33 C 0.6945(7) 0.4882(6) -0.0275(4)
H19 H 0.6420 0.5370 -0.0507
C34 C 0.6815(7) 0.4585(7) 0.0660(4)
H20 H 0.6201 0.4862 0.1033
N1 N 0.7349(4) 0.3086(4) 0.3958(3)
N2 N 0.7778(4) 0.4506(4) -0.0854(3)
O1 O 0.8247(4) -0.3784(4) 0.7165(4)
O2 O 0.6763(5) -0.3484(4) 0.8157(4)
O3 O 0.8946(5) 0.1466(4) 0.5476(3)
O4 O 0.7074(4) 0.1719(4) 0.6069(3)
O5 O 0.9087(3) 0.4020(3) 0.5838(2)
O6 O 0.9306(3) 0.4062(3) 0.7440(2)
O7 O 1.5764(3) 0.3670(3) 0.5629(3)
O8 O 1.6046(3) 0.3959(4) 0.7231(3)
Zn1 Zn 0.77798(5) -0.51909(5) 0.77175(4)
Zn2 Zn 0.73892(5) 0.30381(5) 0.53952(4)
N2_2 N 0.7778(4) -0.5494(4) 0.9146(3)
O6_2 O 0.9306(3) -0.5938(3) 0.7440(2)
O7_2 O 0.5764(3) 0.3670(3) 0.5629(3)
O8_2 O 0.6046(3) -0.6041(4) 0.7231(3)
Zn1_2 Zn 0.77798(5) 0.48091(5) -0.22825(4)
Zn1_3 Zn 0.77798(5) 0.48091(5) 0.77175(4)
Zn1_4 Zn 1.77798(5) 0.48091(5) 0.77175(4)
Zn2_2 Zn 1.73892(5) 0.30381(5) 0.53952(4)
C35 C 0.6616(9) 0.0598(7) 0.2154(7)
H21 H 0.5725 0.0660 0.2066
C36 C 0.8378(8) 0.0070(9) 0.3171(7)
H22 H 0.8911 0.0393 0.2688
H23 H 0.8412 -0.0713 0.3159
H24 H 0.8714 0.0434 0.3798
C37 C 0.6083(9) -0.0123(9) 0.3693(7)
H25 H 0.5233 0.0064 0.3512
H26 H 0.6421 0.0260 0.4312
H27 H 0.5988 -0.0915 0.3729
N3 N 0.7005(6) 0.0216(6) 0.2972(5)
O9 O 0.7315(7) 0.0877(6) 0.1504(5)
O10 O 0.9755(8) 0.1117(9) 0.0705(8)
H28 H 0.9902 0.0458 0.0614
H29 H 0.9057 0.1131 0.0994
loop_
_geom_bond_atom_site_label_1
_geom_bond_atom_site_label_2
_geom_bond_site_symmetry_1
_geom_bond_site_symmetry_2
C1 C2 1_555 1_555
C2 H1 1_555 1_555
C3 C2 1_555 1_555
H2 C3 1_555 1_555
C4 C3 1_555 1_555
C5 H3 1_555 1_555
C6 C5 1_555 1_555
H4 C6 1_555 1_555
C7 C6 1_555 1_555
H5 C7 1_555 1_555
C8 C7 1_555 1_555
H6 C8 1_555 1_555
C9 C1 1_555 1_555
C10 C4 1_555 1_555
C11 C4 1_555 1_555
C12 C1 1_555 1_555
C13 C14 1_555 1_555
C14 H7 1_555 1_555
C15 C14 1_555 1_555
H8 C15 1_555 1_555
C16 C15 1_555 1_555
C17 H9 1_555 1_555
C18 C17 1_555 1_555
H10 C18 1_555 1_555
C19 C18 1_555 1_555
H11 C19 1_555 1_555
C20 C19 1_555 1_555
H12 C20 1_555 1_555
C21 C13 1_555 1_555
C22 C16 1_555 1_555
C23 C13 1_555 1_555
C24 C16 1_555 1_555
C25 H13 1_555 1_555
C26 C25 1_555 1_555
H14 C26 1_555 1_555
C27 C26 1_555 1_555
C28 C27 1_555 1_555
H15 C28 1_555 1_555
C29 C28 1_555 1_555
H16 C29 1_555 1_555
C30 C27 1_555 1_555
C31 C30 1_555 1_555
H17 C31 1_555 1_555
C32 C31 1_555 1_555
H18 C32 1_555 1_555
C33 H19 1_555 1_555
C34 C30 1_555 1_555
H20 C34 1_555 1_555
N1 C25 1_555 1_555
N2 C32 1_555 1_555
O1 C11 1_555 1_555
O2 C11 1_555 1_555
O3 C12 1_555 1_555
O4 C12 1_555 1_555
O5 C23 1_555 1_555
O6 C23 1_555 1_555
O7 C24 1_555 1_555
O8 C24 1_555 1_555
Zn1 O1 1_555 1_555
Zn2 N1 1_555 1_555
C35 H21 1_555 1_555
C36 H22 1_555 1_555
H23 C36 1_555 1_555
H24 C36 1_555 1_555
C37 H25 1_555 1_555
H26 C37 1_555 1_555
H27 C37 1_555 1_555
N3 C35 1_555 1_555
O9 C35 1_555 1_555
O10 H28 1_555 1_555
H29 O10 1_555 1_555
N2_2 Zn1 1_555 1_555
O6_2 Zn1 1_555 1_555
O7_2 Zn2 1_555 1_555
O8_2 Zn1 1_555 1_555
Zn1_2 N2 1_555 1_555
Zn1_3 O6 1_555 1_555
Zn1_4 O8 1_555 1_555
Zn2_2 O7 1_555 1_555
C5 C10 1_555 1_555
C8 C9 1_555 1_555
C9 C10 1_555 1_555
C17 C22 1_555 1_555
C20 C21 1_555 1_555
C21 C22 1_555 1_555
C29 N1 1_555 1_555
C33 C34 1_555 1_555
C33 N2 1_555 1_555
O2 Zn1 1_555 1_555
O4 Zn2 1_555 1_555
O5 Zn2 1_555 1_555
C36 N3 1_555 1_555
C37 N3 1_555 1_555

#END
