
#######################################################################
#
#                 Cambridge Crystallographic Data Centre
#                                CCDC 
#
#######################################################################
#
# If this CIF has been generated from an entry in the Cambridge 
# Structural Database, then it will include bibliographic, chemical, 
# crystal, experimental, refinement or atomic coordinate data resulting 
# from the CCDC's data processing and validation procedures.
#
#######################################################################

data_HUYFAJ
_chemical_formula_moiety         'C96 H26 Cu18 N4 O44'
_symmetry_cell_setting           tetragonal
_symmetry_space_group_name_H-M   'I 4/m m m'
_symmetry_Int_Tables_number      139
_space_group_name_Hall           '-I 4 2'
loop_
_symmetry_equiv_pos_site_id
_symmetry_equiv_pos_as_xyz
1 x,y,z
2 -x,-y,z
3 -y,x,z
4 y,-x,z
5 -x,y,-z
6 x,-y,-z
7 y,x,-z
8 -y,-x,-z
9 1/2+x,1/2+y,1/2+z
10 1/2-x,1/2-y,1/2+z
11 1/2-y,1/2+x,1/2+z
12 1/2+y,1/2-x,1/2+z
13 1/2-x,1/2+y,1/2-z
14 1/2+x,1/2-y,1/2-z
15 1/2+y,1/2+x,1/2-z
16 1/2-y,1/2-x,1/2-z
17 -x,-y,-z
18 x,y,-z
19 y,-x,-z
20 -y,x,-z
21 x,-y,z
22 -x,y,z
23 -y,-x,z
24 y,x,z
25 1/2-x,1/2-y,1/2-z
26 1/2+x,1/2+y,1/2-z
27 1/2+y,1/2-x,1/2-z
28 1/2-y,1/2+x,1/2-z
29 1/2+x,1/2-y,1/2+z
30 1/2-x,1/2+y,1/2+z
31 1/2-y,1/2-x,1/2+z
32 1/2+y,1/2+x,1/2+z
_cell_length_a                   30.630(8)
_cell_length_b                   30.630(8)
_cell_length_c                   27.811(13)
_cell_angle_alpha                90
_cell_angle_beta                 90
_cell_angle_gamma                90
_cell_volume                     26092.2
loop_
_atom_site_label
_atom_site_type_symbol
_atom_site_fract_x
_atom_site_fract_y
_atom_site_fract_z
Cu1 Cu 0.175138(17) -0.175138(17) 0.73940(3)
Cu2 Cu 0.133765(17) -0.133765(17) 0.80999(3)
Cu3 Cu 0.3570 0.00000(3) 1.0000
Cu4 Cu 0.2702 0.00000(3) 1.0000
O1 O 0.22714(13) -0.16376(11) 0.77744(12)
O2 O 0.19273(12) -0.12939(11) 0.83729(13)
O3 O 0.27645(13) -0.04440(11) 0.95079(14)
O4 O 0.34991(12) -0.04503(11) 0.94989(13)
O5 O 0.11622(16) -0.18043(12) 0.71313(14)
O6 O 0.08088(12) -0.14563(11) 0.77206(13)
O7 O 0.20737(12) -0.20737(12) 0.68130(18)
O8 O 0.10024(17) -0.10024(17) 0.8667(3)
O9 O 0.4271 0.0000(2) 1.0000
O10 O 0.2001 0.0000(3) 1.0000
C1 C 0.22607(15) -0.14329(15) 0.81677(17)
C2 C 0.26933(15) -0.13257(15) 0.83928(17)
C3 C 0.27167(15) -0.10357(16) 0.87747(17)
H1 H 0.2456 -0.0926 0.8914
C4 C 0.31177(16) -0.09055(16) 0.89542(17)
C5 C 0.34971(18) -0.10640(17) 0.87553(18)
H2 H 0.3771 -0.0970 0.8877
C6 C 0.34834(16) -0.13639(16) 0.83730(18)
C7 C 0.30723(16) -0.14910(15) 0.81940(17)
H3 H 0.3056 -0.1692 0.7935
C8 C 0.31281(15) -0.05817(17) 0.93542(17)
C9 C 0.38763(17) -0.15214(17) 0.8161(2)
C10 C 0.4205(2) -0.16510(18) 0.7972(2)
C11 C 0.46014(17) -0.17919(16) 0.7763(2)
C12 C 0.5000(3) -0.1651 0.7953(3)
H4 H 0.5000 -0.1454 0.8217
C13 C 0.4610(2) -0.20700(19) 0.7366(2)
H5 H 0.4344 -0.2157 0.7221
C14 C 0.5000(3) -0.2220 0.7182(3)
H6 H 0.5000 -0.2428 0.6929
C15 C 0.08198(17) -0.16764(19) 0.7339(2)
C16 C 0.03951(15) -0.18184(18) 0.71292(19)
C17 C 0.0000 -0.1667(2) 0.7321(3)
H7 H -0.0000 -0.1464 0.7578
C18 C 0.03906(18) -0.2122(2) 0.67588(19)
H8 H 0.0660 -0.2230 0.6637
C19 C 0.0000 -0.2274(3) 0.6561(3)
C20 C 0.0000 -0.2580(3) 0.6190(3)
C21 C -0.0152(3) -0.2851(4) 0.5865(4)
C22 C -0.0222(4) -0.3073(4) 0.5432(4)
C23 C -0.0126(4) -0.2878(5) 0.5000
C24 C -0.0514(10) -0.3484(6) 0.5421(7)
C25 C -0.0654(8) -0.3657(5) 0.5000
N1 N 0.2543(4) -0.2071(5) 0.6186(4)
C26 C 0.2322(4) -0.1873(4) 0.6523(5)
C27 C 0.2554(2) -0.2554(2) 0.6187(5)
C28 C 0.2780(6) -0.1782(8) 0.5842(6)
Cu1C Cu 0.824862(17) -0.175138(17) 0.73940(3)
Cu1C_2 Cu -0.175138(17) -0.175138(17) 0.73940(3)
Cu1G Cu 0.175138(17) -0.175138(17) 0.26060(3)
Cu1D Cu -0.175138(17) -0.175138(17) 0.26060(3)
Cu1E Cu 0.175138(17) 0.175138(17) 1.26060(3)
Cu1F Cu 0.824862(17) 0.175138(17) 1.26060(3)
Cu2C Cu 0.866235(17) -0.133765(17) 0.80999(3)
Cu2C_2 Cu -0.133765(17) -0.133765(17) 0.80999(3)
Cu2G Cu 0.133765(17) -0.133765(17) 0.19001(3)
Cu2D Cu -0.133765(17) -0.133765(17) 0.19001(3)
Cu2E Cu 0.133765(17) 0.133765(17) 1.19001(3)
Cu2F Cu 0.866235(17) 0.133765(17) 1.19001(3)
Cu3A Cu 0.6430 0.00000(3) 1.0000
Cu4A Cu 0.7298 0.00000(3) 1.0000
O1U O 0.77286(13) -0.16376(11) 0.77744(12)
O1E O 0.22714(13) 0.16376(11) 1.22256(12)
O1P O 0.77286(13) 0.16376(11) 1.22256(12)
O1V O 0.16376(11) -0.22714(13) 0.77744(12)
O1C O 0.83624(11) -0.22714(13) 0.77744(12)
O2U O 0.80727(12) -0.12939(11) 0.83729(13)
O2E O 0.19273(12) 0.12939(11) 1.16271(13)
O2P O 0.80727(12) 0.12939(11) 1.16271(13)
O2V O 0.12939(11) -0.19273(12) 0.83729(13)
O2C O 0.87061(11) -0.19273(12) 0.83729(13)
O3U O 0.72355(13) -0.04440(11) 0.95079(14)
O3E O 0.27645(13) 0.04440(11) 1.04921(14)
O3P O 0.72355(13) 0.04440(11) 1.04921(14)
O3Q O 0.27645(13) -0.04440(11) 1.04921(14)
O3T O 0.27645(13) 0.04440(11) 0.95079(14)
O4U O 0.65009(12) -0.04503(11) 0.94989(13)
O4E O 0.34991(12) 0.04503(11) 1.05011(13)
O4P O 0.65009(12) 0.04503(11) 1.05011(13)
O4Q O 0.34991(12) -0.04503(11) 1.05011(13)
O4T O 0.34991(12) 0.04503(11) 0.94989(13)
O5U O -0.11622(16) -0.18043(12) 0.71313(14)
O5Q O 0.11622(16) -0.18043(12) 0.28687(14)
O5D O -0.11622(16) -0.18043(12) 0.28687(14)
O5V O 0.18043(12) -0.11622(16) 0.71313(14)
O5U_2 O 0.88378(16) -0.18043(12) 0.71313(14)
O5C O 0.81957(12) -0.11622(16) 0.71313(14)
O6U O -0.08088(12) -0.14563(11) 0.77206(13)
O6Q O 0.08088(12) -0.14563(11) 0.22794(13)
O6D O -0.08088(12) -0.14563(11) 0.22794(13)
O6V O 0.14563(11) -0.08088(12) 0.77206(13)
O6U_2 O 0.91912(12) -0.14563(11) 0.77206(13)
O6C O 0.85437(11) -0.08088(12) 0.77206(13)
O7C O 0.79263(12) -0.20737(12) 0.68130(18)
O8C O 0.89976(17) -0.10024(17) 0.8667(3)
C1U C 0.77393(15) -0.14329(15) 0.81677(17)
C1E C 0.22607(15) 0.14329(15) 1.18323(17)
C1P C 0.77393(15) 0.14329(15) 1.18323(17)
C2U C 0.73067(15) -0.13257(15) 0.83928(17)
C2E C 0.26933(15) 0.13257(15) 1.16072(17)
C2P C 0.73067(15) 0.13257(15) 1.16072(17)
C3U C 0.72833(15) -0.10357(16) 0.87747(17)
C3E C 0.27167(15) 0.10357(16) 1.12253(17)
C3P C 0.72833(15) 0.10357(16) 1.12253(17)
H1U H 0.7544 -0.0926 0.8914
H1E H 0.2456 0.0926 1.1086
H1P H 0.7544 0.0926 1.1086
C4U C 0.68823(16) -0.09055(16) 0.89542(17)
C4E C 0.31177(16) 0.09055(16) 1.10458(17)
C4P C 0.68823(16) 0.09055(16) 1.10458(17)
C5U C 0.65029(18) -0.10640(17) 0.87553(18)
C5E C 0.34971(18) 0.10640(17) 1.12447(18)
C5P C 0.65029(18) 0.10640(17) 1.12447(18)
H2U H 0.6229 -0.0970 0.8877
H2E H 0.3771 0.0970 1.1123
H2P H 0.6229 0.0970 1.1123
C6U C 0.65166(16) -0.13639(16) 0.83730(18)
C6E C 0.34834(16) 0.13639(16) 1.16270(18)
C6P C 0.65166(16) 0.13639(16) 1.16270(18)
C7U C 0.69277(16) -0.14910(15) 0.81940(17)
C7E C 0.30723(16) 0.14910(15) 1.18060(17)
C7P C 0.69277(16) 0.14910(15) 1.18060(17)
H3U H 0.6944 -0.1692 0.7935
H3E H 0.3056 0.1692 1.2065
H3P H 0.6944 0.1692 1.2065
C8U C 0.68719(15) -0.05817(17) 0.93542(17)
C8E C 0.31281(15) 0.05817(17) 1.06458(17)
C8P C 0.68719(15) 0.05817(17) 1.06458(17)
C9U C 0.61237(17) -0.15214(17) 0.8161(2)
C9E C 0.38763(17) 0.15214(17) 1.1839(2)
C9P C 0.61237(17) 0.15214(17) 1.1839(2)
C10U C 0.5795(2) -0.16510(18) 0.7972(2)
C10E C 0.4205(2) 0.16510(18) 1.2028(2)
C10P C 0.5795(2) 0.16510(18) 1.2028(2)
C11U C 0.53986(17) -0.17919(16) 0.7763(2)
C11E C 0.46014(17) 0.17919(16) 1.2237(2)
C11P C 0.53986(17) 0.17919(16) 1.2237(2)
C12E C 0.5000(3) 0.1651 1.2047(3)
H4E H 0.5000 0.1454 1.1783
C13U C 0.5390(2) -0.20700(19) 0.7366(2)
C13E C 0.4610(2) 0.20700(19) 1.2634(2)
C13P C 0.5390(2) 0.20700(19) 1.2634(2)
H5U H 0.5656 -0.2157 0.7221
H5E H 0.4344 0.2157 1.2779
H5P H 0.5656 0.2157 1.2779
C14E C 0.5000(3) 0.2220 1.2818(3)
H6E H 0.5000 0.2428 1.3071
C15U C -0.08198(17) -0.16764(19) 0.7339(2)
C15Q C 0.08198(17) -0.16764(19) 0.2661(2)
C15D C -0.08198(17) -0.16764(19) 0.2661(2)
C16U C -0.03951(15) -0.18184(18) 0.71292(19)
C16Q C 0.03951(15) -0.18184(18) 0.28708(19)
C16D C -0.03951(15) -0.18184(18) 0.28708(19)
C17D C 0.0000 -0.1667(2) 0.2679(3)
H7D H 0.0000 -0.1464 0.2422
C18U C -0.03906(18) -0.2122(2) 0.67588(19)
C18Q C 0.03906(18) -0.2122(2) 0.32412(19)
C18D C -0.03906(18) -0.2122(2) 0.32412(19)
H8U H -0.0660 -0.2230 0.6637
H8D H -0.0660 -0.2230 0.3363
H8Q H 0.0660 -0.2230 0.3363
C19D C 0.0000 -0.2274(3) 0.3439(3)
C20D C 0.0000 -0.2580(3) 0.3810(3)
C21U C 0.0152(3) -0.2851(4) 0.5865(4)
C21Q C -0.0152(3) -0.2851(4) 0.4135(4)
C21D C 0.0152(3) -0.2851(4) 0.4135(4)
C22U C 0.0222(4) -0.3073(4) 0.5432(4)
C22Q C -0.0222(4) -0.3073(4) 0.4568(4)
C22D C 0.0222(4) -0.3073(4) 0.4568(4)
C23D C 0.0126(4) -0.2878(5) 0.5000
C24U C 0.0514(10) -0.3484(6) 0.5421(7)
C24D C 0.0514(10) -0.3484(6) 0.4579(7)
C24Q C -0.0514(10) -0.3484(6) 0.4579(7)
C25D C 0.0654(8) -0.3657(5) 0.5000
N1V N 0.2071(5) -0.2543(4) 0.6186(4)
N1U N 0.7457(4) -0.2071(5) 0.6186(4)
N1C N 0.7929(5) -0.2543(4) 0.6186(4)
C26V C 0.1873(4) -0.2322(4) 0.6523(5)
C26U C 0.7678(4) -0.1873(4) 0.6523(5)
C26C C 0.8127(4) -0.2322(4) 0.6523(5)
C27C C 0.7446(2) -0.2554(2) 0.6187(5)
C28V C 0.1782(8) -0.2780(6) 0.5842(6)
C28U C 0.7220(6) -0.1782(8) 0.5842(6)
C28C C 0.8218(8) -0.2780(6) 0.5842(6)
loop_
_geom_bond_atom_site_label_1
_geom_bond_atom_site_label_2
_geom_bond_site_symmetry_1
_geom_bond_site_symmetry_2
Cu1 Cu2 1_555 1_555
Cu2 O2 1_555 1_555
Cu3 Cu4 1_555 1_555
Cu4 O3 1_555 1_555
O1 Cu1 1_555 1_555
O2 C1 1_555 1_555
O3 C8 1_555 1_555
O4 Cu3 1_555 1_555
O5 Cu1 1_555 1_555
O6 Cu2 1_555 1_555
O7 Cu1 1_555 1_555
O8 Cu2 1_555 1_555
O9 Cu3 1_555 1_555
O10 Cu4 1_555 1_555
C1 O1 1_555 1_555
C2 C1 1_555 1_555
C3 C2 1_555 1_555
H1 C3 1_555 1_555
C4 C3 1_555 1_555
C5 C4 1_555 1_555
H2 C5 1_555 1_555
C6 C5 1_555 1_555
C7 C2 1_555 1_555
H3 C7 1_555 1_555
C8 O4 1_555 1_555
C9 C6 1_555 1_555
C10 C9 1_555 1_555
C11 C10 1_555 1_555
C12 C11 1_555 1_555
H4 C12 1_555 1_555
C13 C11 1_555 1_555
H5 C13 1_555 1_555
C14 C13 1_555 1_555
H6 C14 1_555 1_555
C15 O5 1_555 1_555
C16 C15 1_555 1_555
C17 C16 1_555 1_555
H7 C17 1_555 1_555
C18 C16 1_555 1_555
H8 C18 1_555 1_555
C19 C18 1_555 1_555
C20 C19 1_555 1_555
C21 C20 1_555 1_555
C22 C21 1_555 1_555
C23 C22 1_555 1_555
C24 C22 1_555 1_555
C25 C24 1_555 1_555
N1 C26 1_555 1_555
C26 O7 1_555 1_555
C27 N1 1_555 1_555
C28 N1 1_555 1_555
Cu1C Cu2C 1_555 1_555
Cu1C_2 Cu2C_2 1_555 1_555
Cu1G Cu2G 1_555 1_555
Cu1D Cu2D 1_555 1_555
Cu1E Cu2E 1_555 1_555
Cu1F Cu2F 1_555 1_555
Cu2C O2U 1_555 1_555
Cu2C_2 O6U 1_555 1_555
Cu2G O6Q 1_555 1_555
Cu2D O6D 1_555 1_555
Cu2E O2E 1_555 1_555
Cu2F O2P 1_555 1_555
Cu3A Cu4A 1_555 1_555
Cu4A O3U 1_555 1_555
O1U Cu1C 1_555 1_555
O1E Cu1E 1_555 1_555
O1P Cu1F 1_555 1_555
O1V Cu1 1_555 1_555
O1C Cu1C 1_555 1_555
O2U C1U 1_555 1_555
O2E C1E 1_555 1_555
O2P C1P 1_555 1_555
O2V Cu2 1_555 1_555
O2C Cu2C 1_555 1_555
O3U C8U 1_555 1_555
O3E Cu4 1_555 1_555
O3P Cu4A 1_555 1_555
O3Q Cu4 1_555 1_555
O3T Cu4 1_555 1_555
O4U Cu3A 1_555 1_555
O4E Cu3 1_555 1_555
O4P Cu3A 1_555 1_555
O4Q Cu3 1_555 1_555
O4T Cu3 1_555 1_555
O5U Cu1C_2 1_555 1_555
O5Q Cu1G 1_555 1_555
O5D Cu1D 1_555 1_555
O5V Cu1 1_555 1_555
O5U_2 Cu1C 1_555 1_555
O5C Cu1C 1_555 1_555
O6U C15U 1_555 1_555
O6Q C15Q 1_555 1_555
O6D C15D 1_555 1_555
O6V Cu2 1_555 1_555
O6U_2 Cu2C 1_555 1_555
O6C Cu2C 1_555 1_555
O7C Cu1C 1_555 1_555
O8C Cu2C 1_555 1_555
C1U O1U 1_555 1_555
C1E O1E 1_555 1_555
C1P O1P 1_555 1_555
C2U C1U 1_555 1_555
C2E C1E 1_555 1_555
C2P C1P 1_555 1_555
C3U C2U 1_555 1_555
C3E C2E 1_555 1_555
C3P C2P 1_555 1_555
H1U C3U 1_555 1_555
H1E C3E 1_555 1_555
H1P C3P 1_555 1_555
C4U C3U 1_555 1_555
C4E C3E 1_555 1_555
C4P C3P 1_555 1_555
C5U C4U 1_555 1_555
C5E C4E 1_555 1_555
C5P C4P 1_555 1_555
H2U C5U 1_555 1_555
H2E C5E 1_555 1_555
H2P C5P 1_555 1_555
C6U C5U 1_555 1_555
C6E C5E 1_555 1_555
C6P C5P 1_555 1_555
C7U C2U 1_555 1_555
C7E C2E 1_555 1_555
C7P C2P 1_555 1_555
H3U C7U 1_555 1_555
H3E C7E 1_555 1_555
H3P C7P 1_555 1_555
C8U O4U 1_555 1_555
C8E O3E 1_555 1_555
C8P O3P 1_555 1_555
C9U C6U 1_555 1_555
C9E C6E 1_555 1_555
C9P C6P 1_555 1_555
C10U C9U 1_555 1_555
C10E C9E 1_555 1_555
C10P C9P 1_555 1_555
C11U C12 1_555 1_555
C11E C10E 1_555 1_555
C11P C10P 1_555 1_555
C12E C11E 1_555 1_555
H4E C12E 1_555 1_555
C13U C14 1_555 1_555
C13E C11E 1_555 1_555
C13P C11P 1_555 1_555
H5U C13U 1_555 1_555
H5E C13E 1_555 1_555
H5P C13P 1_555 1_555
C14E C13E 1_555 1_555
H6E C14E 1_555 1_555
C15U O5U 1_555 1_555
C15Q O5Q 1_555 1_555
C15D O5D 1_555 1_555
C16U C17 1_555 1_555
C16Q C15Q 1_555 1_555
C16D C15D 1_555 1_555
C17D C16Q 1_555 1_555
H7D C17D 1_555 1_555
C18U C19 1_555 1_555
C18Q C16Q 1_555 1_555
C18D C16D 1_555 1_555
H8U C18U 1_555 1_555
H8D C18D 1_555 1_555
H8Q C18Q 1_555 1_555
C19D C18Q 1_555 1_555
C20D C19D 1_555 1_555
C21U C20 1_555 1_555
C21Q C20D 1_555 1_555
C21D C20D 1_555 1_555
C22U C21 1_555 1_555
C22Q C23 1_555 1_555
C22D C23 1_555 1_555
C23D C22 1_555 1_555
C24U C22U 1_555 1_555
C24D C22D 1_555 1_555
C24Q C25 1_555 1_555
C25D C24U 1_555 1_555
N1V C27 1_555 1_555
N1U C26U 1_555 1_555
N1C C26C 1_555 1_555
C26V O7 1_555 1_555
C26U O7C 1_555 1_555
C26C O7C 1_555 1_555
C27C N1U 1_555 1_555
C28V N1V 1_555 1_555
C28U N1U 1_555 1_555
C28C N1C 1_555 1_555
O6 C15 1_555 1_555
C4 C8 1_555 1_555
C6 C7 1_555 1_555
C21 C21U 1_555 1_555
C22 C21U 1_555 1_555
C22 C22U 1_555 1_555
C23 C22U 1_555 1_555
C23 C23D 1_555 1_555
O4E C8E 1_555 1_555
O4P C8P 1_555 1_555
C4U C8U 1_555 1_555
C4E C8E 1_555 1_555
C4P C8P 1_555 1_555
C6U C7U 1_555 1_555
C6E C7E 1_555 1_555
C6P C7P 1_555 1_555
C10U C11U 1_555 1_555
C11U C13U 1_555 1_555
C11P C12E 1_555 1_555
C13P C14E 1_555 1_555
C15U C16U 1_555 1_555
C16U C18U 1_555 1_555
C16D C17D 1_555 1_555
C18D C19D 1_555 1_555
C21U C22U 1_555 1_555
C21Q C21D 1_555 1_555
C21Q C22Q 1_555 1_555
C21Q C22D 1_555 1_555
C21D C22Q 1_555 1_555
C21D C22D 1_555 1_555
C22U C23D 1_555 1_555
C22Q C22D 1_555 1_555
C22Q C23D 1_555 1_555
C22Q C24Q 1_555 1_555
C22D C23D 1_555 1_555
C24D C25D 1_555 1_555
N1V C26V 1_555 1_555
N1C C27C 1_555 1_555

#END
