
#######################################################################
#
#                 Cambridge Crystallographic Data Centre
#                                CCDC 
#
#######################################################################
#
# If this CIF has been generated from an entry in the Cambridge 
# Structural Database, then it will include bibliographic, chemical, 
# crystal, experimental, refinement or atomic coordinate data resulting 
# from the CCDC's data processing and validation procedures.
#
#######################################################################

data_RUWYIT
_chemical_formula_moiety         '(C61 H84 N12 Ni2 O12)n'
_symmetry_cell_setting           orthorhombic
_symmetry_space_group_name_H-M   'P n n a'
_symmetry_Int_Tables_number      52
_space_group_name_Hall           '-P 2a 2bc'
loop_
_symmetry_equiv_pos_site_id
_symmetry_equiv_pos_as_xyz
1 x,y,z
2 1/2-x,-y,z
3 1/2-x,1/2+y,1/2-z
4 x,1/2-y,1/2-z
5 -x,-y,-z
6 1/2+x,y,-z
7 1/2+x,1/2-y,1/2+z
8 -x,1/2+y,1/2+z
_cell_length_a                   11.817(2)
_cell_length_b                   24.760(5)
_cell_length_c                   32.256(7)
_cell_angle_alpha                90
_cell_angle_beta                 90
_cell_angle_gamma                90
_cell_volume                     9437.75
loop_
_atom_site_label
_atom_site_type_symbol
_atom_site_fract_x
_atom_site_fract_y
_atom_site_fract_z
_atom_site_U_iso_or_equiv
_atom_site_thermal_displace_type
O1 O -0.0040(5) 1.16958(17) 0.15347(14) 0.0785 Uani
C1 C -0.0239(7) 1.1227(3) 0.1658(2) 0.0785 Uani
O2 O -0.0921(8) 1.0891(2) 0.1478(2) 0.1363 Uani
Ni1 Ni 0.08192(9) 0.72399(3) 0.61150(2) 0.0713 Uani
C2 C 0.2500 1.0000 0.3674(2) 0.0433 Uani
C3 C 0.2846(5) 0.90505(19) 0.45496(15) 0.0490 Uani
C4 C 0.1332(6) 1.0721(2) 0.27953(16) 0.0573 Uani
C5 C 0.2160(4) 0.95228(19) 0.39629(14) 0.0440 Uani
H1 H 0.1508 0.9623 0.4129 0.0530 Uiso
H2 H 0.1959 0.9210 0.3797 0.0530 Uiso
C6 C 0.2683(5) 0.8373(2) 0.52415(16) 0.0550 Uani
C7 C 0.1241(6) 1.1337(2) 0.22234(17) 0.0640 Uani
H3 H 0.1493 1.1650 0.2093 0.0770 Uiso
C8 C 0.1769(5) 0.8429(2) 0.49539(15) 0.0497 Uani
H4 H 0.1093 0.8246 0.5000 0.0600 Uiso
C9 C 0.3773(5) 0.89824(19) 0.48311(14) 0.0490 Uani
H5 H 0.4448 0.9167 0.4787 0.0590 Uiso
C10 C 0.1757(5) 1.1169(2) 0.25835(16) 0.0583 Uani
H6 H 0.2386 1.1352 0.2685 0.0700 Uiso
C11 C 0.3665(6) 0.8645(2) 0.51641(16) 0.0587 Uani
H7 H 0.4276 0.8600 0.5343 0.0710 Uiso
C12 C 0.1524(5) 1.0153(2) 0.34013(15) 0.0520 Uani
H8 H 0.1334 0.9856 0.3218 0.0620 Uiso
H9 H 0.0865 1.0237 0.3569 0.0620 Uiso
C13 C 0.0330(7) 1.1042(2) 0.20493(19) 0.0707 Uani
C14 C 0.0422(7) 1.0437(3) 0.26365(19) 0.0727 Uani
H10 H 0.0159 1.0134 0.2776 0.0870 Uiso
C15 C 0.2561(6) 0.8010(2) 0.56086(18) 0.0667 Uani
C16 C 0.1882(5) 0.87520(19) 0.46086(15) 0.0490 Uani
H11 H 0.1301 0.8768 0.4414 0.0590 Uiso
C17 C -0.0097(7) 1.0594(3) 0.2278(2) 0.0753 Uani
H12 H -0.0730 1.0409 0.2183 0.0900 Uiso
O3 O 0.1852(4) 1.06113(14) 0.31673(11) 0.0610 Uani
O4 O 0.3085(4) 0.93962(14) 0.42247(11) 0.0558 Uani
N1 N 0.2240(6) 0.7286(2) 0.64667(15) 0.0787 Uani
H13 H 0.2689 0.7589 0.6361 0.0950 Uiso
N2 N -0.0010(6) 0.7884(2) 0.6441(2) 0.0860 Uani
N3 N 0.1647(8) 0.6603(3) 0.5794(2) 0.1143 Uani
H14 H 0.1351 0.6271 0.5919 0.1370 Uiso
N4 N -0.0694(8) 0.7191(3) 0.5748(2) 0.1113 Uani
N5 N 0.1295(8) 0.7840(3) 0.7006(2) 0.1007 Uani
N6 N 0.0203(11) 0.6756(5) 0.5201(3) 0.1623 Uani
C18 C 0.0150(8) 0.7781(3) 0.6884(3) 0.0920 Uani
H15 H -0.0314 0.8031 0.7042 0.1100 Uiso
H16 H -0.0101 0.7418 0.6948 0.1100 Uiso
C19 C 0.1286(12) 0.6578(6) 0.5339(3) 0.1553 Uani
H17 H 0.1843 0.6781 0.5182 0.1860 Uiso
H18 H 0.1360 0.6204 0.5253 0.1860 Uiso
C20 C -0.1216(9) 0.7812(4) 0.6306(3) 0.1117 Uani
H19 H -0.1645 0.8137 0.6364 0.1340 Uiso
H20 H -0.1559 0.7515 0.6456 0.1340 Uiso
C21 C 0.0360(9) 0.8459(3) 0.6335(3) 0.1023 Uani
H21 H -0.0170 0.8716 0.6452 0.1230 Uiso
H22 H 0.0367 0.8506 0.6036 0.1230 Uiso
C22 C 0.2015(8) 0.7397(4) 0.6933(2) 0.0970 Uani
H23 H 0.1682 0.7077 0.7056 0.1160 Uiso
H24 H 0.2733 0.7463 0.7070 0.1160 Uiso
C23 C 0.1554(9) 0.8562(4) 0.6511(3) 0.1103 Uani
H25 H 0.2095 0.8377 0.6335 0.1320 Uiso
H26 H 0.1709 0.8946 0.6490 0.1320 Uiso
C24 C -0.1230(11) 0.7693(4) 0.5833(4) 0.1230 Uani
H27 H -0.2005 0.7682 0.5735 0.1480 Uiso
H28 H -0.0839 0.7980 0.5686 0.1480 Uiso
C25 C -0.0448(12) 0.7215(5) 0.5310(3) 0.1497 Uani
H29 H -0.1147 0.7219 0.5152 0.1800 Uiso
H30 H -0.0030 0.7542 0.5246 0.1800 Uiso
C26 C 0.1774(11) 0.8390(4) 0.6956(3) 0.1240 Uani
H31 H 0.2581 0.8387 0.7012 0.1490 Uiso
H32 H 0.1414 0.8639 0.7147 0.1490 Uiso
C27 C 0.2857(10) 0.6635(4) 0.5936(3) 0.1187 Uani
H33 H 0.3257 0.6903 0.5773 0.1420 Uiso
H34 H 0.3222 0.6289 0.5893 0.1420 Uiso
C28 C 0.2914(9) 0.6789(4) 0.6403(3) 0.1077 Uani
H35 H 0.2611 0.6497 0.6571 0.1290 Uiso
H36 H 0.3693 0.6850 0.6484 0.1290 Uiso
O5 O 0.1565(4) 0.78072(16) 0.56751(12) 0.0667 Uani
O6 O 0.3406(5) 0.7936(2) 0.58307(15) 0.0880 Uani
C29 C -0.1164(11) 0.6229(5) 0.5669(3) 0.1413 Uani
H37 H -0.1757 0.5959 0.5684 0.1700 Uiso
H38 H -0.0556 0.6118 0.5852 0.1700 Uiso
C30 C -0.1597(10) 0.6739(4) 0.5801(3) 0.1277 Uani
H39 H -0.1821 0.6716 0.6090 0.1530 Uiso
H40 H -0.2263 0.6828 0.5639 0.1530 Uiso
C31 C -0.0736(12) 0.6263(5) 0.5241(3) 0.1510 Uani
H41 H -0.1361 0.6331 0.5053 0.1810 Uiso
H42 H -0.0389 0.5923 0.5163 0.1810 Uiso
O1A O 0.5040(5) 0.83042(17) 0.15347(14) 0.0785 Uani
C1A C 0.5239(7) 0.8773(3) 0.1658(2) 0.0785 Uani
O2A O 0.5921(8) 0.9109(2) 0.1478(2) 0.1363 Uani
C3A C 0.2154(5) 1.09495(19) 0.45496(15) 0.0490 Uani
C4A C 0.3668(6) 0.9279(2) 0.27953(16) 0.0573 Uani
C5A C 0.2840(4) 1.04772(19) 0.39629(14) 0.0440 Uani
H1A H 0.3492 1.0377 0.4129 0.0530 Uiso
H2A H 0.3041 1.0790 0.3797 0.0530 Uiso
C6A C 0.2317(5) 1.1627(2) 0.52415(16) 0.0550 Uani
C7A C 0.3759(6) 0.8663(2) 0.22234(17) 0.0640 Uani
H3A H 0.3507 0.8350 0.2093 0.0770 Uiso
C8A C 0.3231(5) 1.1571(2) 0.49539(15) 0.0497 Uani
H4A H 0.3907 1.1754 0.5000 0.0600 Uiso
C9A C 0.1227(5) 1.10176(19) 0.48311(14) 0.0490 Uani
H5A H 0.0552 1.0833 0.4787 0.0590 Uiso
C10A C 0.3243(5) 0.8831(2) 0.25835(16) 0.0583 Uani
H6A H 0.2614 0.8648 0.2685 0.0700 Uiso
C11A C 0.1335(6) 1.1355(2) 0.51641(16) 0.0587 Uani
H7A H 0.0724 1.1400 0.5343 0.0710 Uiso
C12A C 0.3476(5) 0.9847(2) 0.34013(15) 0.0520 Uani
H8A H 0.3666 1.0144 0.3218 0.0620 Uiso
H9A H 0.4135 0.9763 0.3569 0.0620 Uiso
C13A C 0.4670(7) 0.8958(2) 0.20493(19) 0.0707 Uani
C14A C 0.4578(7) 0.9563(3) 0.26365(19) 0.0727 Uani
H10A H 0.4841 0.9866 0.2776 0.0870 Uiso
C15A C 0.2439(6) 1.1990(2) 0.56086(18) 0.0667 Uani
C16A C 0.3118(5) 1.12480(19) 0.46086(15) 0.0490 Uani
H11A H 0.3699 1.1232 0.4414 0.0590 Uiso
C17A C 0.5097(7) 0.9406(3) 0.2278(2) 0.0753 Uani
H12A H 0.5730 0.9591 0.2183 0.0900 Uiso
O3A O 0.3148(4) 0.93887(14) 0.31673(11) 0.0610 Uani
O4A O 0.1915(4) 1.06038(14) 0.42247(11) 0.0558 Uani
O5A O 0.3435(4) 1.21928(16) 0.56751(12) 0.0667 Uani
O6A O 0.1594(5) 1.2064(2) 0.58307(15) 0.0880 Uani
Ni1A Ni 0.41808(9) 1.27601(3) 0.61150(2) 0.0713 Uani
N1A N 0.2760(6) 1.2714(2) 0.64667(15) 0.0787 Uani
H13A H 0.2311 1.2411 0.6361 0.0950 Uiso
N2A N 0.5010(6) 1.2116(2) 0.6441(2) 0.0860 Uani
N3A N 0.3353(8) 1.3397(3) 0.5794(2) 0.1143 Uani
H14A H 0.3649 1.3729 0.5919 0.1370 Uiso
N4A N 0.5694(8) 1.2809(3) 0.5748(2) 0.1113 Uani
N5A N 0.3705(8) 1.2160(3) 0.7006(2) 0.1007 Uani
N6A N 0.4797(11) 1.3244(5) 0.5201(3) 0.1623 Uani
C18A C 0.4850(8) 1.2219(3) 0.6884(3) 0.0920 Uani
H15A H 0.5314 1.1969 0.7042 0.1100 Uiso
H16A H 0.5101 1.2582 0.6948 0.1100 Uiso
C19A C 0.3714(12) 1.3422(6) 0.5339(3) 0.1553 Uani
H17A H 0.3157 1.3219 0.5182 0.1860 Uiso
H18A H 0.3640 1.3796 0.5253 0.1860 Uiso
C20A C 0.6216(9) 1.2188(4) 0.6306(3) 0.1117 Uani
H19A H 0.6645 1.1863 0.6364 0.1340 Uiso
H20A H 0.6559 1.2485 0.6456 0.1340 Uiso
C21A C 0.4640(9) 1.1541(3) 0.6335(3) 0.1023 Uani
H21A H 0.5170 1.1284 0.6452 0.1230 Uiso
H22A H 0.4633 1.1494 0.6036 0.1230 Uiso
C22A C 0.2985(8) 1.2603(4) 0.6933(2) 0.0970 Uani
H23A H 0.3318 1.2923 0.7056 0.1160 Uiso
H24A H 0.2267 1.2537 0.7070 0.1160 Uiso
C23A C 0.3446(9) 1.1438(4) 0.6511(3) 0.1103 Uani
H25A H 0.2905 1.1623 0.6335 0.1320 Uiso
H26A H 0.3291 1.1054 0.6490 0.1320 Uiso
C24A C 0.6230(11) 1.2307(4) 0.5833(4) 0.1230 Uani
H27A H 0.7005 1.2318 0.5735 0.1480 Uiso
H28A H 0.5839 1.2020 0.5686 0.1480 Uiso
C25A C 0.5448(12) 1.2785(5) 0.5310(3) 0.1497 Uani
H29A H 0.6147 1.2781 0.5152 0.1800 Uiso
H30A H 0.5030 1.2458 0.5246 0.1800 Uiso
C26A C 0.3226(11) 1.1610(4) 0.6956(3) 0.1240 Uani
H31A H 0.2419 1.1613 0.7012 0.1490 Uiso
H32A H 0.3586 1.1361 0.7147 0.1490 Uiso
C27A C 0.2143(10) 1.3365(4) 0.5936(3) 0.1187 Uani
H33A H 0.1743 1.3097 0.5773 0.1420 Uiso
H34A H 0.1778 1.3711 0.5893 0.1420 Uiso
C28A C 0.2086(9) 1.3211(4) 0.6403(3) 0.1077 Uani
H35A H 0.2389 1.3503 0.6571 0.1290 Uiso
H36A H 0.1307 1.3150 0.6484 0.1290 Uiso
C29A C 0.6164(11) 1.3771(5) 0.5669(3) 0.1413 Uani
H37A H 0.6757 1.4041 0.5684 0.1700 Uiso
H38A H 0.5556 1.3882 0.5852 0.1700 Uiso
C30A C 0.6597(10) 1.3261(4) 0.5801(3) 0.1277 Uani
H39A H 0.6821 1.3284 0.6090 0.1530 Uiso
H40A H 0.7263 1.3172 0.5639 0.1530 Uiso
C31A C 0.5736(12) 1.3737(5) 0.5241(3) 0.1510 Uani
H41A H 0.6361 1.3669 0.5053 0.1810 Uiso
H42A H 0.5389 1.4077 0.5163 0.1810 Uiso
O1F O 0.4960(5) 1.33042(17) 0.65347(14) 0.0785 Uani
O1G O 0.0040(5) 0.66958(17) 0.65347(14) 0.0785 Uani
Ni1F Ni 0.58192(9) 0.77601(3) 0.11150(2) 0.0713 Uani
Ni1G Ni -0.08192(9) 1.22399(3) 0.11150(2) 0.0713 Uani
loop_
_atom_site_aniso_label
_atom_site_aniso_U_11
_atom_site_aniso_U_22
_atom_site_aniso_U_33
_atom_site_aniso_U_23
_atom_site_aniso_U_13
_atom_site_aniso_U_12
O1 0.108(3) 0.0624(19) 0.065(2) 0.0097(16) -0.015(2) -0.006(2)
C1 0.108(3) 0.0624(19) 0.065(2) 0.0097(16) -0.015(2) -0.006(2)
O2 0.222(9) 0.082(4) 0.105(5) 0.016(3) -0.060(5) -0.013(4)
Ni1 0.1046(8) 0.0586(5) 0.0506(5) 0.0069(3) 0.0041(4) 0.0038(4)
C2 0.052(3) 0.038(3) 0.040(3) 0.000 0.000 0.002(3)
C3 0.0649(18) 0.0440(14) 0.0381(13) 0.0034(11) -0.0025(12) 0.0006(12)
C4 0.081(3) 0.048(2) 0.043(2) 0.005(2) -0.004(2) 0.002(2)
C5 0.050(3) 0.044(2) 0.038(2) -0.0021(18) 0.0005(19) 0.002(2)
C6 0.071(3) 0.050(2) 0.044(2) 0.003(2) -0.004(2) 0.000(2)
C7 0.088(4) 0.055(3) 0.049(3) 0.005(2) -0.005(3) -0.003(3)
C8 0.062(3) 0.046(2) 0.041(2) 0.0081(19) 0.004(2) -0.007(2)
C9 0.0649(18) 0.0440(14) 0.0381(13) 0.0034(11) -0.0025(12) 0.0006(12)
C10 0.077(3) 0.049(2) 0.049(3) 0.004(2) -0.009(2) -0.002(2)
C11 0.075(3) 0.056(3) 0.045(2) 0.001(2) -0.007(2) 0.003(2)
C12 0.071(3) 0.047(3) 0.038(2) -0.0021(19) -0.001(2) 0.002(2)
C13 0.097(4) 0.061(3) 0.054(3) 0.007(2) -0.010(3) -0.003(3)
C14 0.094(4) 0.067(3) 0.057(3) 0.012(3) -0.006(3) -0.003(3)
C15 0.086(2) 0.0594(18) 0.0547(17) 0.0080(14) -0.0029(17) 0.0020(17)
C16 0.0649(18) 0.0440(14) 0.0381(13) 0.0034(11) -0.0025(12) 0.0006(12)
C17 0.103(4) 0.061(3) 0.062(3) 0.006(2) -0.018(3) -0.014(3)
O3 0.087(3) 0.050(2) 0.0459(19) 0.0059(16) -0.0127(19) 0.0008(19)
O4 0.075(3) 0.0499(19) 0.0425(18) 0.0023(15) -0.0022(17) 0.0039(18)
N1 0.104(5) 0.084(4) 0.048(3) 0.012(2) 0.003(3) 0.010(3)
N2 0.107(5) 0.066(3) 0.085(4) 0.009(3) 0.012(4) 0.012(3)
N3 0.170(6) 0.086(4) 0.087(4) 0.005(3) 0.044(5) 0.002(5)
N4 0.142(7) 0.105(5) 0.087(5) 0.029(4) 0.001(4) -0.019(5)
N5 0.135(7) 0.092(5) 0.075(4) -0.002(3) 0.011(4) -0.003(5)
N6 0.229(10) 0.176(8) 0.082(5) 0.005(5) 0.026(6) -0.058(8)
C18 0.115(6) 0.077(4) 0.084(5) 0.004(3) 0.018(4) 0.003(4)
C19 0.216(9) 0.146(7) 0.104(6) 0.017(5) 0.040(6) -0.020(7)
C20 0.116(6) 0.093(5) 0.126(5) 0.025(4) 0.009(5) 0.012(4)
C21 0.122(5) 0.084(4) 0.101(5) 0.007(4) 0.027(4) 0.009(4)
C22 0.109(6) 0.111(5) 0.071(4) 0.010(4) 0.003(4) -0.008(5)
C23 0.135(5) 0.089(4) 0.107(4) 0.002(4) 0.016(4) 0.003(4)
C24 0.129(6) 0.113(5) 0.127(5) 0.030(5) -0.001(5) -0.004(5)
C25 0.165(8) 0.150(8) 0.134(8) 0.016(6) -0.018(7) -0.022(7)
C26 0.145(6) 0.112(5) 0.115(5) -0.004(5) 0.009(5) 0.008(5)
C27 0.152(5) 0.096(4) 0.108(4) 0.012(4) 0.035(5) 0.020(5)
C28 0.128(6) 0.096(5) 0.099(4) 0.021(4) 0.018(4) 0.020(4)
O5 0.086(2) 0.0594(18) 0.0547(17) 0.0080(14) -0.0029(17) 0.0020(17)
O6 0.100(4) 0.099(3) 0.065(3) 0.022(3) -0.005(3) 0.014(3)
C29 0.160(6) 0.139(5) 0.125(5) 0.009(5) -0.002(5) -0.027(5)
C30 0.134(6) 0.136(6) 0.113(5) 0.019(5) -0.007(5) -0.017(5)
C31 0.172(7) 0.148(6) 0.133(6) 0.009(6) -0.005(6) -0.018(6)
O1A 0.108 0.0624 0.065 -0.0097 0.015 -0.006
C1A 0.108 0.0624 0.065 -0.0097 0.015 -0.006
O2A 0.222 0.082 0.105 -0.016 0.06 -0.013
C3A 0.0649 0.044 0.0381 -0.0034 0.0025 0.0006
C4A 0.081 0.048 0.043 -0.005 0.004 0.002
C5A 0.05 0.044 0.038 0.0021 -0.0005 0.002
C6A 0.071 0.05 0.044 -0.003 0.004 0
C7A 0.088 0.055 0.049 -0.005 0.005 -0.003
C8A 0.062 0.046 0.041 -0.0081 -0.004 -0.007
C9A 0.0649 0.044 0.0381 -0.0034 0.0025 0.0006
C10A 0.077 0.049 0.049 -0.004 0.009 -0.002
C11A 0.075 0.056 0.045 -0.001 0.007 0.003
C12A 0.071 0.047 0.038 0.0021 0.001 0.002
C13A 0.097 0.061 0.054 -0.007 0.01 -0.003
C14A 0.094 0.067 0.057 -0.012 0.006 -0.003
C15A 0.086 0.0594 0.0547 -0.008 0.0029 0.002
C16A 0.0649 0.044 0.0381 -0.0034 0.0025 0.0006
C17A 0.103 0.061 0.062 -0.006 0.018 -0.014
O3A 0.087 0.05 0.0459 -0.0059 0.0127 0.0008
O4A 0.075 0.0499 0.0425 -0.0023 0.0022 0.0039
O5A 0.086 0.0594 0.0547 -0.008 0.0029 0.002
O6A 0.1 0.099 0.065 -0.022 0.005 0.014
Ni1A 0.1046 0.0586 0.0506 -0.0069 -0.0041 0.0038
N1A 0.104 0.084 0.048 -0.012 -0.003 0.01
N2A 0.107 0.066 0.085 -0.009 -0.012 0.012
N3A 0.17 0.086 0.087 -0.005 -0.044 0.002
N4A 0.142 0.105 0.087 -0.029 -0.001 -0.019
N5A 0.135 0.092 0.075 0.002 -0.011 -0.003
N6A 0.229 0.176 0.082 -0.005 -0.026 -0.058
C18A 0.115 0.077 0.084 -0.004 -0.018 0.003
C19A 0.216 0.146 0.104 -0.017 -0.04 -0.02
C20A 0.116 0.093 0.126 -0.025 -0.009 0.012
C21A 0.122 0.084 0.101 -0.007 -0.027 0.009
C22A 0.109 0.111 0.071 -0.01 -0.003 -0.008
C23A 0.135 0.089 0.107 -0.002 -0.016 0.003
C24A 0.129 0.113 0.127 -0.03 0.001 -0.004
C25A 0.165 0.15 0.134 -0.016 0.018 -0.022
C26A 0.145 0.112 0.115 0.004 -0.009 0.008
C27A 0.152 0.096 0.108 -0.012 -0.035 0.02
C28A 0.128 0.096 0.099 -0.021 -0.018 0.02
C29A 0.16 0.139 0.125 -0.009 0.002 -0.027
C30A 0.134 0.136 0.113 -0.019 0.007 -0.017
C31A 0.172 0.148 0.133 -0.009 0.005 -0.018
O1F 0.108 0.0624 0.065 -0.0097 -0.015 0.006
O1G 0.108 0.0624 0.065 0.0097 0.015 0.006
Ni1F 0.1046 0.0586 0.0506 -0.0069 0.0041 -0.0038
Ni1G 0.1046 0.0586 0.0506 0.0069 -0.0041 -0.0038
loop_
_geom_bond_atom_site_label_1
_geom_bond_atom_site_label_2
_geom_bond_site_symmetry_1
_geom_bond_site_symmetry_2
O1 C1 1_555 1_555
C1 O2 1_555 1_555
Ni1 N1 1_555 1_555
C2 C5 1_555 1_555
C3 C9 1_555 1_555
C4 C10 1_555 1_555
C5 H1 1_555 1_555
H2 C5 1_555 1_555
C6 C8 1_555 1_555
C7 H3 1_555 1_555
C8 H4 1_555 1_555
C9 H5 1_555 1_555
C10 C7 1_555 1_555
H6 C10 1_555 1_555
C11 C6 1_555 1_555
H7 C11 1_555 1_555
C12 C2 1_555 1_555
H8 C12 1_555 1_555
H9 C12 1_555 1_555
C13 C1 1_555 1_555
C14 C4 1_555 1_555
H10 C14 1_555 1_555
C15 C6 1_555 1_555
C16 C3 1_555 1_555
H11 C16 1_555 1_555
C17 C13 1_555 1_555
H12 C17 1_555 1_555
O3 C4 1_555 1_555
O4 C3 1_555 1_555
N1 H13 1_555 1_555
N2 Ni1 1_555 1_555
N3 Ni1 1_555 1_555
H14 N3 1_555 1_555
N4 Ni1 1_555 1_555
N5 C18 1_555 1_555
N6 C19 1_555 1_555
C18 N2 1_555 1_555
H15 C18 1_555 1_555
H16 C18 1_555 1_555
C19 N3 1_555 1_555
H17 C19 1_555 1_555
H18 C19 1_555 1_555
C20 N2 1_555 1_555
H19 C20 1_555 1_555
H20 C20 1_555 1_555
C21 N2 1_555 1_555
H21 C21 1_555 1_555
H22 C21 1_555 1_555
C22 N1 1_555 1_555
H23 C22 1_555 1_555
H24 C22 1_555 1_555
C23 C21 1_555 1_555
H25 C23 1_555 1_555
H26 C23 1_555 1_555
C24 N4 1_555 1_555
H27 C24 1_555 1_555
H28 C24 1_555 1_555
C25 N4 1_555 1_555
H29 C25 1_555 1_555
H30 C25 1_555 1_555
C26 N5 1_555 1_555
H31 C26 1_555 1_555
H32 C26 1_555 1_555
C27 N3 1_555 1_555
H33 C27 1_555 1_555
H34 C27 1_555 1_555
C28 N1 1_555 1_555
H35 C28 1_555 1_555
H36 C28 1_555 1_555
O5 Ni1 1_555 1_555
O6 C15 1_555 1_555
C29 H37 1_555 1_555
H38 C29 1_555 1_555
C30 N4 1_555 1_555
H39 C30 1_555 1_555
H40 C30 1_555 1_555
C31 N6 1_555 1_555
H41 C31 1_555 1_555
H42 C31 1_555 1_555
O1A C1A 1_555 1_555
C1A O2A 1_555 1_555
C3A C9A 1_555 1_555
C4A C10A 1_555 1_555
C5A C2 1_555 1_555
H1A C5A 1_555 1_555
H2A C5A 1_555 1_555
C6A C8A 1_555 1_555
C7A H3A 1_555 1_555
C8A H4A 1_555 1_555
C9A H5A 1_555 1_555
C10A C7A 1_555 1_555
H6A C10A 1_555 1_555
C11A C6A 1_555 1_555
H7A C11A 1_555 1_555
C12A C2 1_555 1_555
H8A C12A 1_555 1_555
H9A C12A 1_555 1_555
C13A C1A 1_555 1_555
C14A C4A 1_555 1_555
H10A C14A 1_555 1_555
C15A C6A 1_555 1_555
C16A C3A 1_555 1_555
H11A C16A 1_555 1_555
C17A C13A 1_555 1_555
H12A C17A 1_555 1_555
O3A C4A 1_555 1_555
O4A C3A 1_555 1_555
O5A C15A 1_555 1_555
O6A C15A 1_555 1_555
Ni1A O5A 1_555 1_555
N1A Ni1A 1_555 1_555
H13A N1A 1_555 1_555
N2A Ni1A 1_555 1_555
N3A Ni1A 1_555 1_555
H14A N3A 1_555 1_555
N4A Ni1A 1_555 1_555
N5A C18A 1_555 1_555
N6A C19A 1_555 1_555
C18A N2A 1_555 1_555
H15A C18A 1_555 1_555
H16A C18A 1_555 1_555
C19A N3A 1_555 1_555
H17A C19A 1_555 1_555
H18A C19A 1_555 1_555
C20A N2A 1_555 1_555
H19A C20A 1_555 1_555
H20A C20A 1_555 1_555
C21A N2A 1_555 1_555
H21A C21A 1_555 1_555
H22A C21A 1_555 1_555
C22A N1A 1_555 1_555
H23A C22A 1_555 1_555
H24A C22A 1_555 1_555
C23A C21A 1_555 1_555
H25A C23A 1_555 1_555
H26A C23A 1_555 1_555
C24A N4A 1_555 1_555
H27A C24A 1_555 1_555
H28A C24A 1_555 1_555
C25A N4A 1_555 1_555
H29A C25A 1_555 1_555
H30A C25A 1_555 1_555
C26A N5A 1_555 1_555
H31A C26A 1_555 1_555
H32A C26A 1_555 1_555
C27A N3A 1_555 1_555
H33A C27A 1_555 1_555
H34A C27A 1_555 1_555
C28A N1A 1_555 1_555
H35A C28A 1_555 1_555
H36A C28A 1_555 1_555
C29A H37A 1_555 1_555
H38A C29A 1_555 1_555
C30A N4A 1_555 1_555
H39A C30A 1_555 1_555
H40A C30A 1_555 1_555
C31A N6A 1_555 1_555
H41A C31A 1_555 1_555
H42A C31A 1_555 1_555
O1F Ni1A 1_555 1_555
O1G Ni1 1_555 1_555
Ni1F O1A 1_555 1_555
Ni1G O1 1_555 1_555
C5 O4 1_555 1_555
C7 C13 1_555 1_555
C8 C16 1_555 1_555
C9 C11 1_555 1_555
C12 O3 1_555 1_555
C14 C17 1_555 1_555
C15 O5 1_555 1_555
N5 C22 1_555 1_555
N6 C25 1_555 1_555
C20 C24 1_555 1_555
C23 C26 1_555 1_555
C27 C28 1_555 1_555
C29 C30 1_555 1_555
C29 C31 1_555 1_555
C5A O4A 1_555 1_555
C7A C13A 1_555 1_555
C8A C16A 1_555 1_555
C9A C11A 1_555 1_555
C12A O3A 1_555 1_555
C14A C17A 1_555 1_555
N5A C22A 1_555 1_555
N6A C25A 1_555 1_555
C20A C24A 1_555 1_555
C23A C26A 1_555 1_555
C27A C28A 1_555 1_555
C29A C30A 1_555 1_555
C29A C31A 1_555 1_555

#END
