
#######################################################################
#
#                 Cambridge Crystallographic Data Centre
#                                CCDC 
#
#######################################################################
#
# If this CIF has been generated from an entry in the Cambridge 
# Structural Database, then it will include bibliographic, chemical, 
# crystal, experimental, refinement or atomic coordinate data resulting 
# from the CCDC's data processing and validation procedures.
#
#######################################################################

data_RUWYOZ
_chemical_formula_moiety         '(C63 H88 N12 Ni2 O12)n'
_symmetry_cell_setting           orthorhombic
_symmetry_space_group_name_H-M   'P n n a'
_symmetry_Int_Tables_number      52
_space_group_name_Hall           '-P 2a 2bc'
loop_
_symmetry_equiv_pos_site_id
_symmetry_equiv_pos_as_xyz
1 x,y,z
2 1/2-x,-y,z
3 1/2-x,1/2+y,1/2-z
4 x,1/2-y,1/2-z
5 -x,-y,-z
6 1/2+x,y,-z
7 1/2+x,1/2-y,1/2+z
8 -x,1/2+y,1/2+z
_cell_length_a                   12.0122(8)
_cell_length_b                   25.0230(18)
_cell_length_c                   31.873(3)
_cell_angle_alpha                90
_cell_angle_beta                 90
_cell_angle_gamma                90
_cell_volume                     9580.43
loop_
_atom_site_label
_atom_site_type_symbol
_atom_site_fract_x
_atom_site_fract_y
_atom_site_fract_z
_atom_site_U_iso_or_equiv
_atom_site_thermal_displace_type
O1 O -0.0113(3) 0.32337(15) 0.15556(11) 0.0663 Uani
C1 C -0.0304(5) 0.3712(2) 0.16714(16) 0.0557 Uani
O2 O -0.0956(4) 0.40161(16) 0.14884(12) 0.0763 Uani
Ni1 Ni 0.08646(6) 0.76829(3) 0.61275(2) 0.0550 Uani
C2 C 0.2838(4) 0.59328(17) 0.45286(12) 0.0328 Uani
C3 C 0.2500 0.5000 0.36531(16) 0.0280 Uani
C4 C 0.2621(4) 0.65827(19) 0.52323(13) 0.0377 Uani
C5 C 0.3725(4) 0.59881(19) 0.48023(13) 0.0397 Uani
H1 H 0.4388 0.5806 0.4753 0.0480 Uiso
C6 C 0.2126(4) 0.54607(18) 0.39343(12) 0.0333 Uani
H2 H 0.1903 0.5764 0.3765 0.0400 Uiso
H3 H 0.1497 0.5352 0.4105 0.0400 Uiso
C7 C 0.1857(4) 0.61900(19) 0.45975(14) 0.0420 Uani
H4 H 0.1266 0.6146 0.4412 0.0500 Uiso
C8 C 0.1552(4) 0.48417(18) 0.33801(13) 0.0383 Uani
H5 H 0.0913 0.4747 0.3551 0.0460 Uiso
H6 H 0.1345 0.5136 0.3199 0.0460 Uiso
C9 C 0.1745(4) 0.6521(2) 0.49491(14) 0.0417 Uani
H7 H 0.1080 0.6702 0.4994 0.0500 Uiso
C10 C 0.1349(4) 0.42628(19) 0.27784(14) 0.0397 Uani
C11 C 0.3619(4) 0.63168(19) 0.51497(14) 0.0413 Uani
H8 H 0.4220 0.6361 0.5330 0.0500 Uiso
C12 C 0.1722(4) 0.38168(19) 0.25689(14) 0.0460 Uani
H9 H 0.2344 0.3636 0.2669 0.0560 Uiso
C13 C 0.0287(4) 0.3893(2) 0.20478(14) 0.0450 Uani
C14 C -0.0062(4) 0.4361(2) 0.22512(15) 0.0550 Uani
H10 H -0.0644 0.4559 0.2137 0.0660 Uiso
C15 C 0.1199(4) 0.3635(2) 0.22169(16) 0.0493 Uani
H11 H 0.1463 0.3327 0.2087 0.0590 Uiso
C16 C 0.2506(5) 0.6929(2) 0.56066(14) 0.0453 Uani
C17 C 0.0440(5) 0.4539(2) 0.26202(16) 0.0540 Uani
H12 H 0.0168 0.4839 0.2759 0.0650 Uiso
O3 O 0.3039(3) 0.56008(13) 0.41942(9) 0.0424 Uani
O4 O 0.1567(3) 0.71192(16) 0.56844(11) 0.0600 Uani
O5 O 0.1898(3) 0.43864(12) 0.31303(9) 0.0468 Uani
N1 N 0.1616(4) 0.82864(18) 0.58110(13) 0.0613 Uani
H13 H 0.1291 0.8621 0.5915 0.0740 Uiso
N2 N 0.2273(4) 0.76416(19) 0.64721(13) 0.0610 Uani
H14 H 0.2721 0.7347 0.6360 0.0730 Uiso
N3 N 0.0096(6) 0.7054(2) 0.6458(2) 0.0993 Uani
N4 N -0.0598(5) 0.7741(3) 0.5760(2) 0.1043 Uani
N5 N 0.0285(7) 0.8217(4) 0.52052(18) 0.1247 Uani
C18 C 0.2890(5) 0.8148(3) 0.63854(19) 0.0657 Uani
H15 H 0.2576 0.8436 0.6551 0.0790 Uiso
H16 H 0.3665 0.8107 0.6465 0.0790 Uiso
C19 C 0.2818(5) 0.8278(3) 0.5952(2) 0.0697 Uani
H17 H 0.3216 0.8005 0.5791 0.0840 Uiso
C20 C -0.0272(9) 0.7758(5) 0.5315(3) 0.1400 Uani
H18 H 0.0200 0.7453 0.5255 0.1680 Uiso
H19 H -0.0935 0.7727 0.5143 0.1680 Uiso
C21 C -0.1165(6) 0.7211(3) 0.5900(3) 0.1043 Uani
H20 H -0.1953 0.7228 0.5835 0.1250 Uiso
H21 H -0.0849 0.6916 0.5742 0.1250 Uiso
C22 C -0.0409(9) 0.8692(5) 0.5270(3) 0.1603 Uani
H22 H -0.0980 0.8704 0.5055 0.1930 Uiso
H23 H 0.0049 0.9009 0.5240 0.1930 Uiso
C23 C 0.1407(7) 0.8268(3) 0.5350(2) 0.0973 Uani
H24 H 0.1713 0.8592 0.5229 0.1170 Uiso
H25 H 0.1829 0.7971 0.5237 0.1170 Uiso
C24 C -0.1368(7) 0.8182(4) 0.5824(3) 0.1167 Uani
H26 H -0.2044 0.8109 0.5668 0.1400 Uiso
H27 H -0.1566 0.8194 0.6119 0.1400 Uiso
C25 C -0.1023(7) 0.7105(3) 0.6354(3) 0.1123 Uani
H28 H -0.1348 0.7395 0.6514 0.1350 Uiso
H29 H -0.1412 0.6778 0.6428 0.1350 Uiso
C26 C -0.0965(8) 0.8698(5) 0.5703(3) 0.1373 Uani
H30 H -0.0433 0.8822 0.5910 0.1650 Uiso
H31 H -0.1582 0.8949 0.5699 0.1650 Uiso
C27 C 0.0462(9) 0.6493(3) 0.6369(3) 0.1207 Uani
H32 H -0.0048 0.6246 0.6505 0.1450 Uiso
H33 H 0.0425 0.6429 0.6069 0.1450 Uiso
C28 C 0.1812(9) 0.6565(4) 0.6970(3) 0.1393 Uani
H34 H 0.1440 0.6326 0.7164 0.1670 Uiso
H35 H 0.2607 0.6542 0.7022 0.1670 Uiso
C29 C 0.0330(9) 0.7142(3) 0.6930(3) 0.1167 Uani
H36 H 0.0050 0.7491 0.7009 0.1400 Uiso
H37 H -0.0084 0.6878 0.7089 0.1400 Uiso
N6 N 0.1438(9) 0.7110(3) 0.7045(2) 0.1207 Uani
C30 C 0.2094(7) 0.7534(3) 0.69428(19) 0.0933 Uani
H38 H 0.2817 0.7481 0.7072 0.1120 Uiso
H39 H 0.1771 0.7852 0.7067 0.1120 Uiso
C31 C 0.3260(9) 0.8849(4) 0.5814(3) 0.1563 Uani
H40 H 0.2990 0.9115 0.6006 0.2350 Uiso
H41 H 0.2998 0.8929 0.5536 0.2350 Uiso
H42 H 0.4059 0.8850 0.5816 0.2350 Uiso
C32 C 0.1563(9) 0.6387(4) 0.6512(3) 0.1303 Uani
H43 H 0.2082 0.6566 0.6326 0.1560 Uiso
H44 H 0.1699 0.6006 0.6490 0.1560 Uiso
O6 O 0.3369(3) 0.70072(16) 0.58279(12) 0.0700 Uani
O1A O 0.5113(3) 0.67663(15) 0.15556(11) 0.0663 Uani
C1A C 0.5304(5) 0.6288(2) 0.16714(16) 0.0557 Uani
O2A O 0.5956(4) 0.59839(16) 0.14884(12) 0.0763 Uani
C2A C 0.2162(4) 0.40672(17) 0.45286(12) 0.0328 Uani
C4A C 0.2379(4) 0.34173(19) 0.52323(13) 0.0377 Uani
C5A C 0.1275(4) 0.40119(19) 0.48023(13) 0.0397 Uani
H1A H 0.0612 0.4194 0.4753 0.0480 Uiso
C6A C 0.2874(4) 0.45393(18) 0.39343(12) 0.0333 Uani
H2A H 0.3097 0.4236 0.3765 0.0400 Uiso
H3A H 0.3503 0.4648 0.4105 0.0400 Uiso
C7A C 0.3143(4) 0.38100(19) 0.45975(14) 0.0420 Uani
H4A H 0.3734 0.3854 0.4412 0.0500 Uiso
C8A C 0.3448(4) 0.51583(18) 0.33801(13) 0.0383 Uani
H5A H 0.4087 0.5253 0.3551 0.0460 Uiso
H6A H 0.3655 0.4864 0.3199 0.0460 Uiso
C9A C 0.3255(4) 0.3479(2) 0.49491(14) 0.0417 Uani
H7A H 0.3920 0.3298 0.4994 0.0500 Uiso
C10A C 0.3651(4) 0.57372(19) 0.27784(14) 0.0397 Uani
C11A C 0.1381(4) 0.36832(19) 0.51497(14) 0.0413 Uani
H8A H 0.0780 0.3639 0.5330 0.0500 Uiso
C12A C 0.3278(4) 0.61832(19) 0.25689(14) 0.0460 Uani
H9A H 0.2656 0.6364 0.2669 0.0560 Uiso
C13A C 0.4713(4) 0.6107(2) 0.20478(14) 0.0450 Uani
C14A C 0.5062(4) 0.5639(2) 0.22512(15) 0.0550 Uani
H10A H 0.5644 0.5441 0.2137 0.0660 Uiso
C15A C 0.3801(4) 0.6365(2) 0.22169(16) 0.0493 Uani
H11A H 0.3537 0.6673 0.2087 0.0590 Uiso
C16A C 0.2494(5) 0.3071(2) 0.56066(14) 0.0453 Uani
C17A C 0.4560(5) 0.5461(2) 0.26202(16) 0.0540 Uani
H12A H 0.4832 0.5161 0.2759 0.0650 Uiso
O3A O 0.1961(3) 0.43992(13) 0.41942(9) 0.0424 Uani
O4A O 0.3433(3) 0.28808(16) 0.56844(11) 0.0600 Uani
O5A O 0.3102(3) 0.56136(12) 0.31303(9) 0.0468 Uani
O6A O 0.1631(3) 0.29928(16) 0.58279(12) 0.0700 Uani
Ni1A Ni 0.41354(6) 0.23171(3) 0.61275(2) 0.0550 Uani
N1A N 0.3384(4) 0.17136(18) 0.58110(13) 0.0613 Uani
H13A H 0.3709 0.1379 0.5915 0.0740 Uiso
N2A N 0.2727(4) 0.23584(19) 0.64721(13) 0.0610 Uani
H14A H 0.2279 0.2653 0.6360 0.0730 Uiso
N3A N 0.4904(6) 0.2946(2) 0.6458(2) 0.0993 Uani
N4A N 0.5598(5) 0.2259(3) 0.5760(2) 0.1043 Uani
N5A N 0.4715(7) 0.1783(4) 0.52052(18) 0.1247 Uani
C18A C 0.2110(5) 0.1852(3) 0.63854(19) 0.0657 Uani
H15A H 0.2424 0.1564 0.6551 0.0790 Uiso
H16A H 0.1335 0.1893 0.6465 0.0790 Uiso
C19A C 0.2182(5) 0.1722(3) 0.5952(2) 0.0697 Uani
H17A H 0.1784 0.1995 0.5791 0.0840 Uiso
C20A C 0.5272(9) 0.2242(5) 0.5315(3) 0.1400 Uani
H18A H 0.4800 0.2547 0.5255 0.1680 Uiso
H19A H 0.5935 0.2273 0.5143 0.1680 Uiso
C21A C 0.6165(6) 0.2789(3) 0.5900(3) 0.1043 Uani
H20A H 0.6953 0.2772 0.5835 0.1250 Uiso
H21A H 0.5849 0.3084 0.5742 0.1250 Uiso
C22A C 0.5409(9) 0.1308(5) 0.5270(3) 0.1603 Uani
H22A H 0.5980 0.1296 0.5055 0.1930 Uiso
H23A H 0.4951 0.0991 0.5240 0.1930 Uiso
C23A C 0.3593(7) 0.1732(3) 0.5350(2) 0.0973 Uani
H24A H 0.3287 0.1408 0.5229 0.1170 Uiso
H25A H 0.3171 0.2029 0.5237 0.1170 Uiso
C24A C 0.6368(7) 0.1818(4) 0.5824(3) 0.1167 Uani
H26A H 0.7044 0.1891 0.5668 0.1400 Uiso
H27A H 0.6566 0.1806 0.6119 0.1400 Uiso
C25A C 0.6023(7) 0.2895(3) 0.6354(3) 0.1123 Uani
H28A H 0.6348 0.2605 0.6514 0.1350 Uiso
H29A H 0.6412 0.3222 0.6428 0.1350 Uiso
C26A C 0.5965(8) 0.1302(5) 0.5703(3) 0.1373 Uani
H30A H 0.5433 0.1178 0.5910 0.1650 Uiso
H31A H 0.6582 0.1051 0.5699 0.1650 Uiso
C27A C 0.4538(9) 0.3507(3) 0.6369(3) 0.1207 Uani
H32A H 0.5048 0.3754 0.6505 0.1450 Uiso
H33A H 0.4575 0.3571 0.6069 0.1450 Uiso
C28A C 0.3188(9) 0.3435(4) 0.6970(3) 0.1393 Uani
H34A H 0.3560 0.3674 0.7164 0.1670 Uiso
H35A H 0.2393 0.3458 0.7022 0.1670 Uiso
C29A C 0.4670(9) 0.2858(3) 0.6930(3) 0.1167 Uani
H36A H 0.4950 0.2509 0.7009 0.1400 Uiso
H37A H 0.5084 0.3122 0.7089 0.1400 Uiso
N6A N 0.3562(9) 0.2890(3) 0.7045(2) 0.1207 Uani
C30A C 0.2906(7) 0.2466(3) 0.69428(19) 0.0933 Uani
H38A H 0.2183 0.2519 0.7072 0.1120 Uiso
H39A H 0.3229 0.2148 0.7067 0.1120 Uiso
C31A C 0.1740(9) 0.1151(4) 0.5814(3) 0.1563 Uani
H40A H 0.2010 0.0885 0.6006 0.2350 Uiso
H41A H 0.2002 0.1071 0.5536 0.2350 Uiso
H42A H 0.0941 0.1150 0.5816 0.2350 Uiso
C32A C 0.3437(9) 0.3613(4) 0.6512(3) 0.1303 Uani
H43A H 0.2918 0.3434 0.6326 0.1560 Uiso
H44A H 0.3301 0.3994 0.6490 0.1560 Uiso
O1F O 0.4887(3) 0.17663(15) 0.65556(11) 0.0663 Uani
O1G O 0.0113(3) 0.82337(15) 0.65556(11) 0.0663 Uani
Ni1F Ni 0.58646(6) 0.73171(3) 0.11275(2) 0.0550 Uani
Ni1G Ni -0.08646(6) 0.26829(3) 0.11275(2) 0.0550 Uani
loop_
_atom_site_aniso_label
_atom_site_aniso_U_11
_atom_site_aniso_U_22
_atom_site_aniso_U_33
_atom_site_aniso_U_23
_atom_site_aniso_U_13
_atom_site_aniso_U_12
O1 0.079(3) 0.064(3) 0.056(2) -0.031(2) -0.030(2) 0.016(2)
C1 0.068(3) 0.055(3) 0.044(3) -0.019(2) -0.012(2) 0.014(3)
O2 0.102(3) 0.062(3) 0.065(3) -0.021(2) -0.047(2) 0.015(2)
Ni1 0.0606(5) 0.0627(5) 0.0416(4) -0.0290(3) 0.0152(3) -0.0117(4)
C2 0.041(3) 0.035(2) 0.0225(19) -0.0097(17) 0.0054(18) -0.003(2)
C3 0.036(3) 0.028(3) 0.020(2) 0.000 0.000 -0.001(3)
C4 0.043(3) 0.043(2) 0.027(2) -0.0095(18) 0.0045(19) -0.004(2)
C5 0.040(3) 0.047(3) 0.032(2) -0.014(2) 0.0031(19) -0.001(2)
C6 0.036(3) 0.040(2) 0.024(2) -0.0037(18) -0.0012(18) 0.000(2)
C7 0.044(3) 0.052(3) 0.030(2) -0.016(2) -0.008(2) -0.001(2)
C8 0.053(3) 0.038(3) 0.024(2) -0.0075(18) -0.005(2) 0.008(2)
C9 0.043(3) 0.048(3) 0.034(2) -0.016(2) 0.0038(19) 0.004(2)
C10 0.045(3) 0.040(2) 0.034(2) -0.0113(19) -0.015(2) 0.001(2)
C11 0.044(3) 0.052(3) 0.028(2) -0.0099(19) -0.0022(19) -0.004(2)
C12 0.052(3) 0.046(3) 0.040(2) -0.011(2) -0.012(2) 0.010(2)
C13 0.051(3) 0.046(3) 0.038(2) -0.013(2) -0.008(2) 0.002(2)
C14 0.063(3) 0.057(3) 0.045(3) -0.018(2) -0.023(2) 0.016(3)
C15 0.052(3) 0.050(3) 0.046(3) -0.019(2) -0.007(2) 0.010(2)
C16 0.050(3) 0.053(3) 0.033(2) -0.015(2) -0.003(2) 0.000(3)
C17 0.065(3) 0.050(3) 0.047(3) -0.021(2) -0.015(2) 0.013(2)
O3 0.051(2) 0.049(2) 0.0272(16) -0.0138(14) -0.0043(14) 0.0000(17)
O4 0.055(3) 0.080(3) 0.045(2) -0.036(2) 0.0034(18) -0.008(2)
O5 0.066(2) 0.0417(19) 0.0327(17) -0.0153(14) -0.0150(16) 0.0126(17)
N1 0.083(4) 0.059(3) 0.042(3) 0.000(2) 0.022(2) 0.018(3)
N2 0.080(3) 0.064(3) 0.039(2) -0.020(2) -0.010(2) 0.001(3)
N3 0.116(4) 0.073(4) 0.109(4) -0.053(3) 0.060(4) -0.041(4)
N4 0.056(2) 0.141(4) 0.116(3) -0.077(3) -0.0078(15) 0.010(2)
N5 0.139(7) 0.190(8) 0.045(3) -0.014(4) -0.008(4) 0.120(7)
C18 0.050(3) 0.077(4) 0.070(3) -0.032(3) -0.005(3) -0.004(3)
C19 0.065(4) 0.074(4) 0.070(3) -0.029(3) 0.029(3) -0.016(3)
C20 0.134(7) 0.191(8) 0.095(6) -0.052(6) -0.034(5) 0.057(6)
C21 0.056(2) 0.141(4) 0.116(3) -0.077(3) -0.0078(15) 0.010(2)
C22 0.169(6) 0.193(6) 0.119(5) -0.003(5) -0.011(5) 0.096(5)
C23 0.134(6) 0.107(5) 0.051(4) -0.002(3) 0.031(4) 0.045(5)
C24 0.077(4) 0.165(6) 0.108(5) -0.072(5) -0.018(4) 0.052(5)
C25 0.110(4) 0.107(4) 0.120(4) -0.059(4) 0.045(4) -0.041(4)
C26 0.127(5) 0.172(6) 0.113(5) -0.033(5) -0.007(4) 0.089(5)
C27 0.180(6) 0.070(4) 0.112(5) -0.037(4) 0.061(5) -0.052(5)
C28 0.222(6) 0.095(5) 0.101(5) -0.004(4) 0.037(5) 0.011(5)
C29 0.200(7) 0.063(4) 0.087(5) -0.021(4) 0.083(5) -0.028(5)
N6 0.237(8) 0.059(4) 0.066(4) -0.003(3) 0.059(5) -0.004(6)
C30 0.139(6) 0.091(5) 0.050(3) -0.020(3) 0.001(4) 0.015(5)
C31 0.173(8) 0.135(7) 0.161(8) -0.024(6) 0.049(7) -0.057(6)
C32 0.212(6) 0.075(4) 0.104(5) -0.014(4) 0.047(5) -0.007(5)
O6 0.079(3) 0.079(3) 0.052(2) -0.038(2) -0.021(2) 0.011(2)
O1A 0.079 0.064 0.056 0.031 0.03 0.016
C1A 0.068 0.055 0.044 0.019 0.012 0.014
O2A 0.102 0.062 0.065 0.021 0.047 0.015
C2A 0.041 0.035 0.0225 0.0097 -0.0054 -0.003
C4A 0.043 0.043 0.027 0.0095 -0.0045 -0.004
C5A 0.04 0.047 0.032 0.014 -0.0031 -0.001
C6A 0.036 0.04 0.024 0.0037 0.0012 0
C7A 0.044 0.052 0.03 0.016 0.008 -0.001
C8A 0.053 0.038 0.024 0.0075 0.005 0.008
C9A 0.043 0.048 0.034 0.016 -0.0038 0.004
C10A 0.045 0.04 0.034 0.0113 0.015 0.001
C11A 0.044 0.052 0.028 0.0099 0.0022 -0.004
C12A 0.052 0.046 0.04 0.011 0.012 0.01
C13A 0.051 0.046 0.038 0.013 0.008 0.002
C14A 0.063 0.057 0.045 0.018 0.023 0.016
C15A 0.052 0.05 0.046 0.019 0.007 0.01
C16A 0.05 0.053 0.033 0.015 0.003 0
C17A 0.065 0.05 0.047 0.021 0.015 0.013
O3A 0.051 0.049 0.0272 0.0138 0.0043 0
O4A 0.055 0.08 0.045 0.036 -0.0034 -0.008
O5A 0.066 0.0417 0.0327 0.0153 0.015 0.0126
O6A 0.079 0.079 0.052 0.038 0.021 0.011
Ni1A 0.0606 0.0627 0.0416 0.029 -0.0152 -0.0117
N1A 0.083 0.059 0.042 0 -0.022 0.018
N2A 0.08 0.064 0.039 0.02 0.01 0.001
N3A 0.116 0.073 0.109 0.053 -0.06 -0.041
N4A 0.056 0.141 0.116 0.077 0.0078 0.01
N5A 0.139 0.19 0.045 0.014 0.008 0.12
C18A 0.05 0.077 0.07 0.032 0.005 -0.004
C19A 0.065 0.074 0.07 0.029 -0.029 -0.016
C20A 0.134 0.191 0.095 0.052 0.034 0.057
C21A 0.056 0.141 0.116 0.077 0.0078 0.01
C22A 0.169 0.193 0.119 0.003 0.011 0.096
C23A 0.134 0.107 0.051 0.002 -0.031 0.045
C24A 0.077 0.165 0.108 0.072 0.018 0.052
C25A 0.11 0.107 0.12 0.059 -0.045 -0.041
C26A 0.127 0.172 0.113 0.033 0.007 0.089
C27A 0.18 0.07 0.112 0.037 -0.061 -0.052
C28A 0.222 0.095 0.101 0.004 -0.037 0.011
C29A 0.2 0.063 0.087 0.021 -0.083 -0.028
N6A 0.237 0.059 0.066 0.003 -0.059 -0.004
C30A 0.139 0.091 0.05 0.02 -0.001 0.015
C31A 0.173 0.135 0.161 0.024 -0.049 -0.057
C32A 0.212 0.075 0.104 0.014 -0.047 -0.007
O1F 0.079 0.064 0.056 0.031 -0.03 -0.016
O1G 0.079 0.064 0.056 -0.031 0.03 -0.016
Ni1F 0.0606 0.0627 0.0416 0.029 0.0152 0.0117
Ni1G 0.0606 0.0627 0.0416 -0.029 -0.0152 0.0117
loop_
_geom_bond_atom_site_label_1
_geom_bond_atom_site_label_2
_geom_bond_site_symmetry_1
_geom_bond_site_symmetry_2
O1 C1 1_555 1_555
C1 O2 1_555 1_555
Ni1 O4 1_555 1_555
C2 C5 1_555 1_555
C3 C6 1_555 1_555
C4 C9 1_555 1_555
C5 H1 1_555 1_555
C6 H2 1_555 1_555
H3 C6 1_555 1_555
C7 C2 1_555 1_555
H4 C7 1_555 1_555
C8 C3 1_555 1_555
H5 C8 1_555 1_555
H6 C8 1_555 1_555
C9 C7 1_555 1_555
H7 C9 1_555 1_555
C10 C12 1_555 1_555
C11 C4 1_555 1_555
H8 C11 1_555 1_555
C12 H9 1_555 1_555
C13 C1 1_555 1_555
C14 C13 1_555 1_555
H10 C14 1_555 1_555
C15 C12 1_555 1_555
H11 C15 1_555 1_555
C16 C4 1_555 1_555
C17 C10 1_555 1_555
H12 C17 1_555 1_555
O3 C2 1_555 1_555
O4 C16 1_555 1_555
O5 C8 1_555 1_555
N1 Ni1 1_555 1_555
H13 N1 1_555 1_555
N2 Ni1 1_555 1_555
H14 N2 1_555 1_555
N3 Ni1 1_555 1_555
N4 Ni1 1_555 1_555
N5 C20 1_555 1_555
C18 N2 1_555 1_555
H15 C18 1_555 1_555
H16 C18 1_555 1_555
C19 N1 1_555 1_555
H17 C19 1_555 1_555
C20 N4 1_555 1_555
H18 C20 1_555 1_555
H19 C20 1_555 1_555
C21 N4 1_555 1_555
H20 C21 1_555 1_555
H21 C21 1_555 1_555
C22 N5 1_555 1_555
H22 C22 1_555 1_555
H23 C22 1_555 1_555
C23 N1 1_555 1_555
H24 C23 1_555 1_555
H25 C23 1_555 1_555
C24 N4 1_555 1_555
H26 C24 1_555 1_555
H27 C24 1_555 1_555
C25 N3 1_555 1_555
H28 C25 1_555 1_555
H29 C25 1_555 1_555
C26 C22 1_555 1_555
H30 C26 1_555 1_555
H31 C26 1_555 1_555
C27 N3 1_555 1_555
H32 C27 1_555 1_555
H33 C27 1_555 1_555
C28 H34 1_555 1_555
H35 C28 1_555 1_555
C29 N3 1_555 1_555
H36 C29 1_555 1_555
H37 C29 1_555 1_555
N6 C28 1_555 1_555
C30 N2 1_555 1_555
H38 C30 1_555 1_555
H39 C30 1_555 1_555
C31 C19 1_555 1_555
H40 C31 1_555 1_555
H41 C31 1_555 1_555
H42 C31 1_555 1_555
C32 C27 1_555 1_555
H43 C32 1_555 1_555
H44 C32 1_555 1_555
O6 C16 1_555 1_555
O1A C1A 1_555 1_555
C1A O2A 1_555 1_555
C2A C5A 1_555 1_555
C4A C9A 1_555 1_555
C5A H1A 1_555 1_555
C6A C3 1_555 1_555
H2A C6A 1_555 1_555
H3A C6A 1_555 1_555
C7A C2A 1_555 1_555
H4A C7A 1_555 1_555
C8A C3 1_555 1_555
H5A C8A 1_555 1_555
H6A C8A 1_555 1_555
C9A C7A 1_555 1_555
H7A C9A 1_555 1_555
C10A C12A 1_555 1_555
C11A C4A 1_555 1_555
H8A C11A 1_555 1_555
C12A H9A 1_555 1_555
C13A C1A 1_555 1_555
C14A C13A 1_555 1_555
H10A C14A 1_555 1_555
C15A C12A 1_555 1_555
H11A C15A 1_555 1_555
C16A C4A 1_555 1_555
C17A C10A 1_555 1_555
H12A C17A 1_555 1_555
O3A C2A 1_555 1_555
O4A C16A 1_555 1_555
O5A C8A 1_555 1_555
O6A C16A 1_555 1_555
Ni1A O4A 1_555 1_555
N1A Ni1A 1_555 1_555
H13A N1A 1_555 1_555
N2A Ni1A 1_555 1_555
H14A N2A 1_555 1_555
N3A Ni1A 1_555 1_555
N4A Ni1A 1_555 1_555
N5A C20A 1_555 1_555
C18A N2A 1_555 1_555
H15A C18A 1_555 1_555
H16A C18A 1_555 1_555
C19A N1A 1_555 1_555
H17A C19A 1_555 1_555
C20A N4A 1_555 1_555
H18A C20A 1_555 1_555
H19A C20A 1_555 1_555
C21A N4A 1_555 1_555
H20A C21A 1_555 1_555
H21A C21A 1_555 1_555
C22A N5A 1_555 1_555
H22A C22A 1_555 1_555
H23A C22A 1_555 1_555
C23A N1A 1_555 1_555
H24A C23A 1_555 1_555
H25A C23A 1_555 1_555
C24A N4A 1_555 1_555
H26A C24A 1_555 1_555
H27A C24A 1_555 1_555
C25A N3A 1_555 1_555
H28A C25A 1_555 1_555
H29A C25A 1_555 1_555
C26A C22A 1_555 1_555
H30A C26A 1_555 1_555
H31A C26A 1_555 1_555
C27A N3A 1_555 1_555
H32A C27A 1_555 1_555
H33A C27A 1_555 1_555
C28A H34A 1_555 1_555
H35A C28A 1_555 1_555
C29A N3A 1_555 1_555
H36A C29A 1_555 1_555
H37A C29A 1_555 1_555
N6A C28A 1_555 1_555
C30A N2A 1_555 1_555
H38A C30A 1_555 1_555
H39A C30A 1_555 1_555
C31A C19A 1_555 1_555
H40A C31A 1_555 1_555
H41A C31A 1_555 1_555
H42A C31A 1_555 1_555
C32A C27A 1_555 1_555
H43A C32A 1_555 1_555
H44A C32A 1_555 1_555
O1F Ni1A 1_555 1_555
O1G Ni1 1_555 1_555
Ni1F O1A 1_555 1_555
Ni1G O1 1_555 1_555
C5 C11 1_555 1_555
C6 O3 1_555 1_555
C10 O5 1_555 1_555
C13 C15 1_555 1_555
C14 C17 1_555 1_555
N5 C23 1_555 1_555
C18 C19 1_555 1_555
C21 C25 1_555 1_555
C24 C26 1_555 1_555
C28 C32 1_555 1_555
C29 N6 1_555 1_555
N6 C30 1_555 1_555
C5A C11A 1_555 1_555
C6A O3A 1_555 1_555
C10A O5A 1_555 1_555
C13A C15A 1_555 1_555
C14A C17A 1_555 1_555
N5A C23A 1_555 1_555
C18A C19A 1_555 1_555
C21A C25A 1_555 1_555
C24A C26A 1_555 1_555
C28A C32A 1_555 1_555
C29A N6A 1_555 1_555
N6A C30A 1_555 1_555

#END
