
#######################################################################
#
#                 Cambridge Crystallographic Data Centre
#                                CCDC 
#
#######################################################################
#
# If this CIF has been generated from an entry in the Cambridge 
# Structural Database, then it will include bibliographic, chemical, 
# crystal, experimental, refinement or atomic coordinate data resulting 
# from the CCDC's data processing and validation procedures.
#
#######################################################################

data_RUWZUG
_chemical_formula_moiety         '(C61 H102 N12 Ni2 O21)n'
_symmetry_cell_setting           monoclinic
_symmetry_space_group_name_H-M   'C 2/c'
_symmetry_Int_Tables_number      15
_space_group_name_Hall           '-C 2yc'
loop_
_symmetry_equiv_pos_site_id
_symmetry_equiv_pos_as_xyz
1 x,y,z
2 -x,y,1/2-z
3 1/2+x,1/2+y,z
4 1/2-x,1/2+y,1/2-z
5 -x,-y,-z
6 x,-y,1/2+z
7 1/2-x,1/2-y,-z
8 1/2+x,1/2-y,1/2+z
_cell_length_a                   37.352(4)
_cell_length_b                   8.8340(10)
_cell_length_c                   29.562(3)
_cell_angle_alpha                90
_cell_angle_beta                 126.838(2)
_cell_angle_gamma                90
_cell_volume                     7806.86
loop_
_atom_site_label
_atom_site_type_symbol
_atom_site_fract_x
_atom_site_fract_y
_atom_site_fract_z
_atom_site_U_iso_or_equiv
_atom_site_thermal_displace_type
O1 O 0.17422(15) 0.8761(5) 0.73309(18) 0.0739 Uani
H1 H 0.1654 0.8003 0.7419 0.1110 Uiso
H2 H 0.1989 0.8463 0.7402 0.1110 Uiso
O2 O 0.19594(14) 0.1305(5) 0.80495(18) 0.0656 Uani
H3 H 0.1814 0.2137 0.7891 0.0980 Uiso
H4 H 0.1964 0.0576 0.7860 0.0980 Uiso
O3 O 0.1448(2) 0.0457(7) 0.6389(2) 0.1422 Uani
H5 H 0.1585 0.0629 0.6246 0.2140 Uiso
H6 H 0.1296 0.1245 0.6328 0.2140 Uiso
Ni1 Ni 0.0000 -0.5000 0.5000 0.0178 Uani
Ni2 Ni 0.2500 1.2500 0.5000 0.0165 Uani
O4 O 0.19847(9) 1.0807(3) 0.45298(12) 0.0219 Uani
O5 O 0.16439(10) 1.0533(4) 0.49413(14) 0.0277 Uani
O6 O -0.08587(10) -0.2791(4) 0.37838(13) 0.0243 Uani
O7 O -0.01231(10) -0.3153(3) 0.44343(13) 0.0218 Uani
O8 O 0.00165(9) 0.1768(4) 0.30251(13) 0.0226 Uani
O9 O 0.05666(10) 0.5756(3) 0.29425(13) 0.0212 Uani
N1 N 0.18898(12) 1.3747(4) 0.36722(16) 0.0246 Uani
N2 N 0.20098(12) 1.4235(4) 0.45692(16) 0.0216 Uani
N3 N 0.24033(11) 1.2623(4) 0.56070(15) 0.0190 Uani
H7 H 0.2206 1.1784 0.5543 0.0230 Uiso
N4 N -0.06177(12) -0.4069(5) 0.54267(16) 0.0243 Uani
N5 N -0.06699(11) -0.5191(4) 0.46174(15) 0.0200 Uani
H8 H -0.0815 -0.4303 0.4374 0.0240 Uiso
N6 N 0.00939(12) -0.3436(4) 0.56065(15) 0.0199 Uani
C1 C 0.0000 0.3830(7) 0.2500 0.0145 Uani
C2 C -0.02875(13) 0.2815(5) 0.25900(18) 0.0180 Uani
H9 H -0.0437 0.3416 0.2706 0.0220 Uiso
H10 H -0.0512 0.2282 0.2244 0.0220 Uiso
C3 C 0.02990(13) 0.4807(5) 0.30258(17) 0.0168 Uani
H11 H 0.0117 0.5425 0.3087 0.0200 Uiso
H12 H 0.0490 0.4169 0.3355 0.0200 Uiso
C4 C -0.01417(15) 0.0673(5) 0.31916(19) 0.0200 Uani
C5 C 0.01880(15) -0.0289(5) 0.3605(2) 0.0251 Uani
H13 H 0.0479 -0.0219 0.3716 0.0300 Uiso
C6 C 0.00837(15) -0.1345(5) 0.3850(2) 0.0244 Uani
H14 H 0.0307 -0.1969 0.4135 0.0290 Uiso
C7 C -0.03563(14) -0.1492(5) 0.36765(19) 0.0204 Uani
C8 C -0.06808(15) -0.0576(5) 0.32378(19) 0.0209 Uani
H15 H -0.0977 -0.0699 0.3103 0.0250 Uiso
C9 C -0.05814(15) 0.0517(5) 0.29916(19) 0.0215 Uani
H16 H -0.0805 0.1125 0.2700 0.0250 Uiso
C10 C 0.08329(13) 0.6817(5) 0.33546(19) 0.0191 Uani
C11 C 0.09035(13) 0.6878(5) 0.38684(18) 0.0183 Uani
H17 H 0.0770 0.6174 0.3958 0.0220 Uiso
C12 C 0.11771(13) 0.8003(5) 0.42498(19) 0.0196 Uani
H18 H 0.1217 0.8065 0.4592 0.0240 Uiso
C13 C 0.13913(14) 0.9033(5) 0.41365(19) 0.0192 Uani
C14 C 0.16975(14) 1.0214(5) 0.45707(19) 0.0203 Uani
C15 C 0.13231(15) 0.8919(5) 0.3621(2) 0.0245 Uani
H19 H 0.1469 0.9590 0.3538 0.0300 Uiso
C16 C 0.10457(15) 0.7839(5) 0.3231(2) 0.0248 Uani
H20 H 0.1000 0.7791 0.2885 0.0290 Uiso
C17 C -0.04512(15) -0.2552(5) 0.39880(19) 0.0213 Uani
C18 C -0.08209(15) -0.6537(5) 0.4243(2) 0.0241 Uani
H21 H -0.1143 -0.6500 0.3957 0.0290 Uiso
H22 H -0.0748 -0.7454 0.4462 0.0290 Uiso
C19 C 0.05877(14) -0.3455(5) 0.60394(19) 0.0233 Uani
H23 H 0.0674 -0.4348 0.6275 0.0280 Uiso
H24 H 0.0680 -0.2571 0.6280 0.0280 Uiso
C20 C -0.00483(15) -0.1834(5) 0.5444(2) 0.0260 Uani
H25 H 0.0083 -0.1427 0.5268 0.0310 Uiso
H26 H 0.0063 -0.1244 0.5781 0.0310 Uiso
C21 C -0.05571(15) -0.1680(6) 0.5034(2) 0.0292 Uani
H27 H -0.0636 -0.0617 0.4991 0.0350 Uiso
H28 H -0.0660 -0.2063 0.4666 0.0350 Uiso
C22 C -0.01394(14) -0.4028(6) 0.58410(19) 0.0256 Uani
H29 H -0.0032 -0.5042 0.5986 0.0310 Uiso
H30 H -0.0065 -0.3393 0.6154 0.0310 Uiso
C23 C -0.08024(15) -0.5245(5) 0.50048(19) 0.0238 Uani
H31 H -0.1126 -0.5192 0.4778 0.0290 Uiso
H32 H -0.0712 -0.6217 0.5196 0.0290 Uiso
C24 C -0.07943(16) -0.2535(6) 0.5233(2) 0.0307 Uani
H33 H -0.0760 -0.1978 0.5539 0.0370 Uiso
H34 H -0.1111 -0.2594 0.4925 0.0370 Uiso
C25 C 0.16849(15) 1.3783(5) 0.39604(19) 0.0249 Uani
H35 H 0.1565 1.2789 0.3939 0.0300 Uiso
H36 H 0.1438 1.4494 0.3770 0.0300 Uiso
C26 C 0.20470(16) 1.5260(5) 0.3667(2) 0.0288 Uani
H37 H 0.1790 1.5907 0.3421 0.0350 Uiso
H38 H 0.2211 1.5192 0.3509 0.0350 Uiso
C27 C 0.23447(16) 1.5986(5) 0.4247(2) 0.0264 Uani
H39 H 0.2380 1.7053 0.4205 0.0320 Uiso
H40 H 0.2638 1.5521 0.4459 0.0320 Uiso
C28 C 0.21517(16) 1.5814(5) 0.4573(2) 0.0268 Uani
H41 H 0.2375 1.6128 0.4961 0.0310 Uiso
H42 H 0.1896 1.6481 0.4410 0.0310 Uiso
C29 C 0.17995(15) 1.4195(6) 0.4863(2) 0.0262 Uani
H43 H 0.1594 1.3346 0.4725 0.0310 Uiso
H44 H 0.1630 1.5117 0.4782 0.0310 Uiso
C30 C 0.21538(15) 1.4043(5) 0.54964(19) 0.0243 Uani
H45 H 0.2356 1.4900 0.5639 0.0300 Uiso
H46 H 0.2014 1.4022 0.5686 0.0300 Uiso
C31 C 0.28146(15) 1.2507(6) 0.62038(19) 0.0256 Uani
H47 H 0.2983 1.3439 0.6299 0.0310 Uiso
H48 H 0.2723 1.2429 0.6449 0.0310 Uiso
O4A O -0.19847(9) 1.0807(3) 0.04702(12) 0.0219 Uani
O5A O -0.16439(10) 1.0533(4) 0.00587(14) 0.0277 Uani
O6A O 0.08587(10) -0.2791(4) 0.12162(13) 0.0243 Uani
O7A O 0.01231(10) -0.3153(3) 0.05657(13) 0.0218 Uani
O8A O -0.00165(9) 0.1768(4) 0.19749(13) 0.0226 Uani
O9A O -0.05666(10) 0.5756(3) 0.20575(13) 0.0212 Uani
C2A C 0.02875(13) 0.2815(5) 0.24100(18) 0.0180 Uani
H9A H 0.0437 0.3416 0.2294 0.0220 Uiso
H10A H 0.0512 0.2282 0.2756 0.0220 Uiso
C3A C -0.02990(13) 0.4807(5) 0.19742(17) 0.0168 Uani
H11A H -0.0117 0.5425 0.1913 0.0200 Uiso
H12A H -0.0490 0.4169 0.1645 0.0200 Uiso
C4A C 0.01417(15) 0.0673(5) 0.18084(19) 0.0200 Uani
C5A C -0.01880(15) -0.0289(5) 0.1395(2) 0.0251 Uani
H13A H -0.0479 -0.0219 0.1284 0.0300 Uiso
C6A C -0.00837(15) -0.1345(5) 0.1150(2) 0.0244 Uani
H14A H -0.0307 -0.1969 0.0865 0.0290 Uiso
C7A C 0.03563(14) -0.1492(5) 0.13235(19) 0.0204 Uani
C8A C 0.06808(15) -0.0576(5) 0.17622(19) 0.0209 Uani
H15A H 0.0977 -0.0699 0.1897 0.0250 Uiso
C9A C 0.05814(15) 0.0517(5) 0.20084(19) 0.0215 Uani
H16A H 0.0805 0.1125 0.2300 0.0250 Uiso
C10A C -0.08329(13) 0.6817(5) 0.16454(19) 0.0191 Uani
C11A C -0.09035(13) 0.6878(5) 0.11316(18) 0.0183 Uani
H17A H -0.0770 0.6174 0.1042 0.0220 Uiso
C12A C -0.11771(13) 0.8003(5) 0.07502(19) 0.0196 Uani
H18A H -0.1217 0.8065 0.0408 0.0240 Uiso
C13A C -0.13913(14) 0.9033(5) 0.08635(19) 0.0192 Uani
C14A C -0.16975(14) 1.0214(5) 0.04293(19) 0.0203 Uani
C15A C -0.13231(15) 0.8919(5) 0.1379(2) 0.0245 Uani
H19A H -0.1469 0.9590 0.1462 0.0300 Uiso
C16A C -0.10457(15) 0.7839(5) 0.1769(2) 0.0248 Uani
H20A H -0.1000 0.7791 0.2115 0.0290 Uiso
C17A C 0.04512(15) -0.2552(5) 0.10120(19) 0.0213 Uani
N1F N 0.31102(12) 1.1253(4) 0.63278(16) 0.0246 Uani
N2F N 0.29902(12) 1.0765(4) 0.54308(16) 0.0216 Uani
N3F N 0.25967(11) 1.2377(4) 0.43930(15) 0.0190 Uani
H7F H 0.2794 1.3216 0.4457 0.0230 Uiso
C25F C 0.33151(15) 1.1217(5) 0.60396(19) 0.0249 Uani
H35F H 0.3435 1.2211 0.6061 0.0300 Uiso
H36F H 0.3562 1.0506 0.6230 0.0300 Uiso
C26F C 0.29530(16) 0.9740(5) 0.6333(2) 0.0288 Uani
H37F H 0.3210 0.9093 0.6579 0.0350 Uiso
H38F H 0.2789 0.9808 0.6491 0.0350 Uiso
C27F C 0.26553(16) 0.9014(5) 0.5753(2) 0.0264 Uani
H39F H 0.2620 0.7947 0.5795 0.0320 Uiso
H40F H 0.2362 0.9479 0.5541 0.0320 Uiso
C28F C 0.28483(16) 0.9186(5) 0.5427(2) 0.0268 Uani
H41F H 0.2625 0.8872 0.5039 0.0310 Uiso
H42F H 0.3104 0.8519 0.5590 0.0310 Uiso
C29F C 0.32005(15) 1.0805(6) 0.5137(2) 0.0262 Uani
H43F H 0.3406 1.1654 0.5275 0.0310 Uiso
H44F H 0.3370 0.9883 0.5218 0.0310 Uiso
C30F C 0.28462(15) 1.0957(5) 0.45036(19) 0.0243 Uani
H45F H 0.2644 1.0100 0.4361 0.0300 Uiso
H46F H 0.2986 1.0978 0.4314 0.0300 Uiso
C31F C 0.21854(15) 1.2493(6) 0.37962(19) 0.0256 Uani
H47F H 0.2017 1.1561 0.3701 0.0310 Uiso
H48F H 0.2277 1.2571 0.3551 0.0310 Uiso
N4D N 0.06177(12) -0.5931(5) 0.45733(16) 0.0243 Uani
N5D N 0.06699(11) -0.4809(4) 0.53826(15) 0.0200 Uani
H8D H 0.0815 -0.5697 0.5626 0.0240 Uiso
N6D N -0.00939(12) -0.6564(4) 0.43935(15) 0.0199 Uani
C18D C 0.08209(15) -0.3463(5) 0.5757(2) 0.0241 Uani
H21D H 0.1143 -0.3500 0.6043 0.0290 Uiso
H22D H 0.0748 -0.2546 0.5538 0.0290 Uiso
C19D C -0.05877(14) -0.6545(5) 0.39606(19) 0.0233 Uani
H23D H -0.0674 -0.5652 0.3725 0.0280 Uiso
H24D H -0.0680 -0.7429 0.3720 0.0280 Uiso
C20D C 0.00483(15) -0.8166(5) 0.4556(2) 0.0260 Uani
H25D H -0.0083 -0.8573 0.4732 0.0310 Uiso
H26D H -0.0063 -0.8756 0.4219 0.0310 Uiso
C21D C 0.05571(15) -0.8320(6) 0.4966(2) 0.0292 Uani
H27D H 0.0636 -0.9383 0.5009 0.0350 Uiso
H28D H 0.0660 -0.7937 0.5334 0.0350 Uiso
C22D C 0.01394(14) -0.5972(6) 0.41590(19) 0.0256 Uani
H29D H 0.0032 -0.4958 0.4014 0.0310 Uiso
H30D H 0.0065 -0.6607 0.3846 0.0310 Uiso
C23D C 0.08024(15) -0.4755(5) 0.49952(19) 0.0238 Uani
H31D H 0.1126 -0.4808 0.5222 0.0290 Uiso
H32D H 0.0712 -0.3783 0.4804 0.0290 Uiso
C24D C 0.07943(16) -0.7465(6) 0.4767(2) 0.0307 Uani
H33D H 0.0760 -0.8022 0.4461 0.0370 Uiso
H34D H 0.1111 -0.7406 0.5075 0.0370 Uiso
Ni1A Ni 0.0000 -0.5000 0.0000 0.0178 Uani
Ni2A Ni -0.2500 1.2500 0.0000 0.0165 Uani
O4F O 0.30153(9) 1.4193(3) 0.54702(12) 0.0219 Uani
O7D O 0.01231(10) -0.6847(3) 0.55657(13) 0.0218 Uani
O10 O 0.15292(16) 0.8942(6) 0.5653(2) 0.0816 Uani
H49 H 0.1515 0.9335 0.5377 0.1230 Uiso
H50 H 0.1675 0.8207 0.5882 0.1230 Uiso
O11 O 0.21225(16) 0.6765(6) 0.6380(2) 0.0990 Uani
H51 H 0.2042 0.5989 0.6467 0.1490 Uiso
H52 H 0.2398 0.6712 0.6528 0.1490 Uiso
O12 O 0.2118(3) 0.4853(15) 0.7107(6) 0.2082 Uani
O15 O 0.2291(7) 0.173(2) 0.6858(13) 0.1442 Uani
O16 O 0.15143(13) 0.3750(4) 0.72651(16) 0.0582 Uani
H53 H 0.1321 0.3513 0.6927 0.0870 Uiso
H54 H 0.1740 0.4055 0.7301 0.0870 Uiso
O17 O 0.12932(12) 0.3474(5) 0.24829(16) 0.0611 Uani
H55 H 0.1370 0.4188 0.2365 0.0930 Uiso
H56 H 0.1418 0.3666 0.2829 0.0930 Uiso
loop_
_atom_site_aniso_label
_atom_site_aniso_U_11
_atom_site_aniso_U_22
_atom_site_aniso_U_33
_atom_site_aniso_U_23
_atom_site_aniso_U_13
_atom_site_aniso_U_12
O1 0.100(4) 0.053(3) 0.062(3) 0.015(3) 0.045(3) 0.029(3)
O2 0.080(3) 0.055(3) 0.060(3) 0.000(2) 0.041(3) 0.015(2)
O3 0.221(7) 0.170(7) 0.098(4) 0.087(4) 0.129(5) 0.158(6)
Ni1 0.0200(4) 0.0171(5) 0.0175(5) 0.0005(4) 0.0119(4) -0.0010(4)
Ni2 0.0169(4) 0.0138(4) 0.0177(5) -0.0013(4) 0.0098(4) -0.0012(3)
O4 0.0209(17) 0.0178(18) 0.0227(19) -0.0027(15) 0.0107(15) -0.0052(14)
O5 0.0295(18) 0.028(2) 0.031(2) -0.0104(17) 0.0211(17) -0.0082(15)
O6 0.0209(17) 0.028(2) 0.0233(19) 0.0055(15) 0.0129(15) -0.0006(14)
O7 0.0256(17) 0.0201(18) 0.0212(19) 0.0077(15) 0.0149(16) 0.0037(14)
O8 0.0223(17) 0.0208(18) 0.0272(19) 0.0117(15) 0.0161(15) 0.0053(14)
O9 0.0268(17) 0.0191(18) 0.0226(18) -0.0067(15) 0.0174(15) -0.0112(14)
N1 0.030(2) 0.022(2) 0.020(2) 0.0023(19) 0.014(2) -0.0026(18)
N2 0.024(2) 0.020(2) 0.019(2) -0.0015(18) 0.0120(19) 0.0002(17)
N3 0.0196(19) 0.014(2) 0.022(2) -0.0007(18) 0.0117(17) -0.0026(16)
N4 0.025(2) 0.029(2) 0.022(2) -0.001(2) 0.0157(19) 0.0012(18)
N5 0.024(2) 0.018(2) 0.023(2) 0.0028(18) 0.0167(18) -0.0003(16)
N6 0.024(2) 0.019(2) 0.018(2) 0.0005(18) 0.0133(18) 0.0007(17)
C1 0.020(3) 0.011(3) 0.014(3) 0.000 0.011(3) 0.000
C2 0.021(2) 0.016(3) 0.019(3) 0.001(2) 0.013(2) 0.0026(18)
C3 0.019(2) 0.018(3) 0.015(2) 0.001(2) 0.011(2) -0.0005(19)
C4 0.026(3) 0.013(2) 0.028(3) 0.001(2) 0.020(2) -0.0020(19)
C5 0.023(2) 0.023(3) 0.032(3) 0.011(2) 0.018(2) 0.010(2)
C6 0.028(3) 0.017(3) 0.032(3) 0.010(2) 0.020(2) 0.009(2)
C7 0.024(2) 0.018(3) 0.024(3) 0.000(2) 0.017(2) -0.001(2)
C8 0.024(2) 0.017(3) 0.022(3) -0.002(2) 0.014(2) 0.000(2)
C9 0.028(3) 0.015(2) 0.018(3) 0.000(2) 0.012(2) -0.003(2)
C10 0.016(2) 0.016(2) 0.020(3) -0.004(2) 0.008(2) 0.0007(19)
C11 0.016(2) 0.016(2) 0.021(3) 0.001(2) 0.010(2) 0.0003(19)
C12 0.018(2) 0.024(3) 0.015(3) -0.001(2) 0.009(2) 0.001(2)
C13 0.015(2) 0.021(3) 0.018(3) 0.002(2) 0.008(2) 0.0034(19)
C14 0.016(2) 0.020(3) 0.021(3) -0.001(2) 0.009(2) -0.001(2)
C15 0.030(3) 0.018(3) 0.032(3) 0.000(2) 0.022(2) -0.006(2)
C16 0.033(3) 0.022(3) 0.021(3) 0.000(2) 0.017(2) -0.005(2)
C17 0.031(3) 0.016(2) 0.020(3) -0.003(2) 0.017(2) -0.003(2)
C18 0.024(3) 0.021(3) 0.028(3) -0.001(2) 0.016(2) -0.003(2)
C19 0.024(3) 0.019(3) 0.023(3) -0.003(2) 0.012(2) 0.000(2)
C20 0.036(3) 0.016(3) 0.030(3) 0.000(2) 0.022(3) 0.003(2)
C21 0.032(3) 0.025(3) 0.032(3) 0.005(2) 0.020(3) 0.008(2)
C22 0.028(3) 0.028(3) 0.020(3) 0.000(2) 0.014(2) 0.001(2)
C23 0.023(2) 0.029(3) 0.027(3) 0.008(2) 0.019(2) 0.002(2)
C24 0.032(3) 0.030(3) 0.039(3) 0.002(3) 0.026(3) 0.007(2)
C25 0.022(2) 0.025(3) 0.023(3) -0.001(2) 0.011(2) -0.002(2)
C26 0.038(3) 0.019(3) 0.028(3) 0.005(2) 0.019(2) -0.001(2)
C27 0.033(3) 0.016(3) 0.029(3) 0.004(2) 0.018(2) 0.000(2)
C28 0.030(3) 0.019(3) 0.031(3) 0.002(2) 0.018(2) 0.003(2)
C29 0.023(3) 0.025(3) 0.033(3) 0.006(2) 0.018(2) 0.005(2)
C30 0.028(3) 0.020(3) 0.031(3) 0.000(2) 0.021(2) 0.001(2)
C31 0.031(3) 0.026(3) 0.022(3) -0.004(2) 0.017(2) -0.004(2)
O4A 0.0209 0.0178 0.0227 0.0027 0.0107 0.0052
O5A 0.0295 0.028 0.031 0.0104 0.0211 0.0082
O6A 0.0209 0.028 0.0233 -0.0055 0.0129 0.0006
O7A 0.0256 0.0201 0.0212 -0.0077 0.0149 -0.0037
O8A 0.0223 0.0208 0.0272 -0.0117 0.0161 -0.0053
O9A 0.0268 0.0191 0.0226 0.0067 0.0174 0.0112
C2A 0.021 0.016 0.019 -0.001 0.013 -0.0026
C3A 0.019 0.018 0.015 -0.001 0.011 0.0005
C4A 0.026 0.013 0.028 -0.001 0.02 0.002
C5A 0.023 0.023 0.032 -0.011 0.018 -0.01
C6A 0.028 0.017 0.032 -0.01 0.02 -0.009
C7A 0.024 0.018 0.024 0 0.017 0.001
C8A 0.024 0.017 0.022 0.002 0.014 0
C9A 0.028 0.015 0.018 0 0.012 0.003
C10A 0.016 0.016 0.02 0.004 0.008 -0.0007
C11A 0.016 0.016 0.021 -0.001 0.01 -0.0003
C12A 0.018 0.024 0.015 0.001 0.009 -0.001
C13A 0.015 0.021 0.018 -0.002 0.008 -0.0034
C14A 0.016 0.02 0.021 0.001 0.009 0.001
C15A 0.03 0.018 0.032 0 0.022 0.006
C16A 0.033 0.022 0.021 0 0.017 0.005
C17A 0.031 0.016 0.02 0.003 0.017 0.003
N1F 0.03 0.022 0.02 0.0023 0.014 -0.0026
N2F 0.024 0.02 0.019 -0.0015 0.012 0.0002
N3F 0.0196 0.014 0.022 -0.0007 0.0117 -0.0026
C25F 0.022 0.025 0.023 -0.001 0.011 -0.002
C26F 0.038 0.019 0.028 0.005 0.019 -0.001
C27F 0.033 0.016 0.029 0.004 0.018 0
C28F 0.03 0.019 0.031 0.002 0.018 0.003
C29F 0.023 0.025 0.033 0.006 0.018 0.005
C30F 0.028 0.02 0.031 0 0.021 0.001
C31F 0.031 0.026 0.022 -0.004 0.017 -0.004
N4D 0.025 0.029 0.022 -0.001 0.0157 0.0012
N5D 0.024 0.018 0.023 0.0028 0.0167 -0.0003
N6D 0.024 0.019 0.018 0.0005 0.0133 0.0007
C18D 0.024 0.021 0.028 -0.001 0.016 -0.003
C19D 0.024 0.019 0.023 -0.003 0.012 0
C20D 0.036 0.016 0.03 0 0.022 0.003
C21D 0.032 0.025 0.032 0.005 0.02 0.008
C22D 0.028 0.028 0.02 0 0.014 0.001
C23D 0.023 0.029 0.027 0.008 0.019 0.002
C24D 0.032 0.03 0.039 0.002 0.026 0.007
Ni1A 0.02 0.0171 0.0175 -0.0005 0.0119 0.001
Ni2A 0.0169 0.0138 0.0177 0.0013 0.0098 0.0012
O4F 0.0209 0.0178 0.0227 -0.0027 0.0107 -0.0052
O7D 0.0256 0.0201 0.0212 0.0077 0.0149 0.0037
O10 0.112(4) 0.085(4) 0.085(4) 0.036(3) 0.079(4) 0.018(3)
O11 0.088(4) 0.093(4) 0.129(5) 0.037(4) 0.072(4) 0.027(3)
O12 0.099(7) 0.287(15) 0.194(15) 0.109(12) 0.064(8) -0.044(8)
O15 0.126 0.172 0.21 0.008 0.141 0.005
O16 0.051(2) 0.051(3) 0.039(3) -0.012(2) 0.009(2) -0.002(2)
O17 0.066(3) 0.056(3) 0.030(2) -0.005(2) 0.012(2) -0.026(2)
loop_
_geom_bond_atom_site_label_1
_geom_bond_atom_site_label_2
_geom_bond_site_symmetry_1
_geom_bond_site_symmetry_2
O1 H1 1_555 1_555
H2 O1 1_555 1_555
O2 H3 1_555 1_555
H4 O2 1_555 1_555
O3 H5 1_555 1_555
H6 O3 1_555 1_555
Ni1 O7 1_555 1_555
Ni2 O4 1_555 1_555
O4 C14 1_555 1_555
O5 C14 1_555 1_555
O6 C17 1_555 1_555
O7 C17 1_555 1_555
O8 C2 1_555 1_555
O9 C3 1_555 1_555
N1 C25 1_555 1_555
N2 Ni2 1_555 1_555
N3 Ni2 1_555 1_555
H7 N3 1_555 1_555
N4 C22 1_555 1_555
N5 Ni1 1_555 1_555
H8 N5 1_555 1_555
N6 Ni1 1_555 1_555
C1 C2 1_555 1_555
C2 H9 1_555 1_555
H10 C2 1_555 1_555
C3 C1 1_555 1_555
H11 C3 1_555 1_555
H12 C3 1_555 1_555
C4 O8 1_555 1_555
C5 C4 1_555 1_555
H13 C5 1_555 1_555
C6 C5 1_555 1_555
H14 C6 1_555 1_555
C7 C6 1_555 1_555
C8 C7 1_555 1_555
H15 C8 1_555 1_555
C9 C4 1_555 1_555
H16 C9 1_555 1_555
C10 O9 1_555 1_555
C11 C10 1_555 1_555
H17 C11 1_555 1_555
C12 C11 1_555 1_555
H18 C12 1_555 1_555
C13 C12 1_555 1_555
C14 C13 1_555 1_555
C15 C13 1_555 1_555
H19 C15 1_555 1_555
C16 C10 1_555 1_555
H20 C16 1_555 1_555
C17 C7 1_555 1_555
C18 N5 1_555 1_555
H21 C18 1_555 1_555
H22 C18 1_555 1_555
C19 N6 1_555 1_555
H23 C19 1_555 1_555
H24 C19 1_555 1_555
C20 N6 1_555 1_555
H25 C20 1_555 1_555
H26 C20 1_555 1_555
C21 C20 1_555 1_555
H27 C21 1_555 1_555
H28 C21 1_555 1_555
C22 N6 1_555 1_555
H29 C22 1_555 1_555
H30 C22 1_555 1_555
C23 N4 1_555 1_555
H31 C23 1_555 1_555
H32 C23 1_555 1_555
C24 N4 1_555 1_555
H33 C24 1_555 1_555
H34 C24 1_555 1_555
C25 N2 1_555 1_555
H35 C25 1_555 1_555
H36 C25 1_555 1_555
C26 N1 1_555 1_555
H37 C26 1_555 1_555
H38 C26 1_555 1_555
C27 C26 1_555 1_555
H39 C27 1_555 1_555
H40 C27 1_555 1_555
C28 N2 1_555 1_555
H41 C28 1_555 1_555
H42 C28 1_555 1_555
C29 N2 1_555 1_555
H43 C29 1_555 1_555
H44 C29 1_555 1_555
C30 N3 1_555 1_555
H45 C30 1_555 1_555
H46 C30 1_555 1_555
C31 N3 1_555 1_555
H47 C31 1_555 1_555
H48 C31 1_555 1_555
O10 H49 1_555 1_555
H50 O10 1_555 1_555
O11 H51 1_555 1_555
H52 O11 1_555 1_555
O16 H53 1_555 1_555
H54 O16 1_555 1_555
O17 H55 1_555 1_555
H56 O17 1_555 1_555
O4A C14A 1_555 1_555
O5A C14A 1_555 1_555
O6A C17A 1_555 1_555
O7A C17A 1_555 1_555
O8A C2A 1_555 1_555
O9A C3A 1_555 1_555
C2A C1 1_555 1_555
H9A C2A 1_555 1_555
H10A C2A 1_555 1_555
C3A C1 1_555 1_555
H11A C3A 1_555 1_555
H12A C3A 1_555 1_555
C4A O8A 1_555 1_555
C5A C4A 1_555 1_555
H13A C5A 1_555 1_555
C6A C5A 1_555 1_555
H14A C6A 1_555 1_555
C7A C6A 1_555 1_555
C8A C7A 1_555 1_555
H15A C8A 1_555 1_555
C9A C4A 1_555 1_555
H16A C9A 1_555 1_555
C10A O9A 1_555 1_555
C11A C10A 1_555 1_555
H17A C11A 1_555 1_555
C12A C11A 1_555 1_555
H18A C12A 1_555 1_555
C13A C12A 1_555 1_555
C14A C13A 1_555 1_555
C15A C13A 1_555 1_555
H19A C15A 1_555 1_555
C16A C10A 1_555 1_555
H20A C16A 1_555 1_555
C17A C7A 1_555 1_555
N1F C31 1_555 1_555
N2F Ni2 1_555 1_555
N3F Ni2 1_555 1_555
H7F N3F 1_555 1_555
C25F N1F 1_555 1_555
H35F C25F 1_555 1_555
H36F C25F 1_555 1_555
C26F N1F 1_555 1_555
H37F C26F 1_555 1_555
H38F C26F 1_555 1_555
C27F C26F 1_555 1_555
H39F C27F 1_555 1_555
H40F C27F 1_555 1_555
C28F N2F 1_555 1_555
H41F C28F 1_555 1_555
H42F C28F 1_555 1_555
C29F N2F 1_555 1_555
H43F C29F 1_555 1_555
H44F C29F 1_555 1_555
C30F N3F 1_555 1_555
H45F C30F 1_555 1_555
H46F C30F 1_555 1_555
C31F N1 1_555 1_555
H47F C31F 1_555 1_555
H48F C31F 1_555 1_555
N4D C22D 1_555 1_555
N5D Ni1 1_555 1_555
H8D N5D 1_555 1_555
N6D Ni1 1_555 1_555
C18D C19 1_555 1_555
H21D C18D 1_555 1_555
H22D C18D 1_555 1_555
C19D C18 1_555 1_555
H23D C19D 1_555 1_555
H24D C19D 1_555 1_555
C20D N6D 1_555 1_555
H25D C20D 1_555 1_555
H26D C20D 1_555 1_555
C21D C20D 1_555 1_555
H27D C21D 1_555 1_555
H28D C21D 1_555 1_555
C22D N6D 1_555 1_555
H29D C22D 1_555 1_555
H30D C22D 1_555 1_555
C23D N4D 1_555 1_555
H31D C23D 1_555 1_555
H32D C23D 1_555 1_555
C24D N4D 1_555 1_555
H33D C24D 1_555 1_555
H34D C24D 1_555 1_555
Ni1A O7A 1_555 1_555
Ni2A O4A 1_555 1_555
O4F Ni2 1_555 1_555
O7D Ni1 1_555 1_555
N5 C23 1_555 1_555
C8 C9 1_555 1_555
C15 C16 1_555 1_555
C21 C24 1_555 1_555
C27 C28 1_555 1_555
C29 C30 1_555 1_555
C8A C9A 1_555 1_555
C15A C16A 1_555 1_555
N2F C25F 1_555 1_555
N3F C31F 1_555 1_555
C27F C28F 1_555 1_555
C29F C30F 1_555 1_555
N5D C18D 1_555 1_555
N5D C23D 1_555 1_555
N6D C19D 1_555 1_555
C21D C24D 1_555 1_555

#END
