
#######################################################################
#
#                 Cambridge Crystallographic Data Centre
#                                CCDC 
#
#######################################################################
#
# If this CIF has been generated from an entry in the Cambridge 
# Structural Database, then it will include bibliographic, chemical, 
# crystal, experimental, refinement or atomic coordinate data resulting 
# from the CCDC's data processing and validation procedures.
#
#######################################################################

data_RUWZOA
_chemical_formula_moiety         '(C57 H94 N12 Ni2 O21)n'
_symmetry_cell_setting           monoclinic
_symmetry_space_group_name_H-M   'C 2/c'
_symmetry_Int_Tables_number      15
_space_group_name_Hall           '-C 2yc'
loop_
_symmetry_equiv_pos_site_id
_symmetry_equiv_pos_as_xyz
1 x,y,z
2 -x,y,1/2-z
3 1/2+x,1/2+y,z
4 1/2-x,1/2+y,1/2-z
5 -x,-y,-z
6 x,-y,1/2+z
7 1/2-x,1/2-y,-z
8 1/2+x,1/2-y,1/2+z
_cell_length_a                   37.153(3)
_cell_length_b                   8.9381(8)
_cell_length_c                   29.414(3)
_cell_angle_alpha                90
_cell_angle_beta                 127.964(2)
_cell_angle_gamma                90
_cell_volume                     7700.85
loop_
_atom_site_label
_atom_site_type_symbol
_atom_site_fract_x
_atom_site_fract_y
_atom_site_fract_z
_atom_site_U_iso_or_equiv
_atom_site_thermal_displace_type
Ni1 Ni 0.0000 1.0000 0.0000 0.0196 Uani
Ni2 Ni 0.2500 -0.7500 0.5000 0.0177 Uani
O1 O 0.19939(10) -0.5773(3) 0.45408(12) 0.0229 Uani
O2 O 0.17308(12) -0.5313(4) 0.50336(14) 0.0342 Uani
O3 O 0.05683(10) -0.0715(3) 0.29470(12) 0.0231 Uani
O4 O -0.00309(10) 0.3196(3) 0.19460(12) 0.0241 Uani
O5 O 0.08402(11) 0.7727(4) 0.11962(14) 0.0321 Uani
O6 O 0.01006(11) 0.8236(3) 0.05682(13) 0.0274 Uani
N1 N 0.24105(12) -0.7632(4) 0.56145(14) 0.0217 Uani
H1 H 0.2195 -0.6840 0.5529 0.0260 Uiso
N2 N 0.19766(12) -0.9104(4) 0.45422(15) 0.0237 Uani
N3 N 0.18819(13) -0.8824(5) 0.36933(16) 0.0309 Uani
N4 N -0.00582(14) 0.8449(4) -0.05767(15) 0.0264 Uani
N5 N 0.06819(13) 1.0234(4) 0.04391(16) 0.0254 Uani
H2 H 0.0829 0.9440 0.0731 0.0310 Uiso
N6 N 0.06642(15) 0.8883(5) -0.03136(17) 0.0334 Uani
C1 C 0.01827(17) 0.9037(6) -0.0795(2) 0.0303 Uani
H3 H 0.0105 0.8461 -0.1124 0.0360 Uiso
H4 H 0.0104 1.0077 -0.0908 0.0360 Uiso
C2 C 0.06836(19) 0.7400(6) -0.0072(2) 0.0396 Uani
H5 H 0.0882 0.7441 0.0346 0.0480 Uiso
H6 H 0.0800 0.6648 -0.0190 0.0480 Uiso
C3 C 0.01870(18) 0.7017(5) -0.0313(2) 0.0326 Uani
H7 H 0.0061 0.6226 -0.0598 0.0390 Uiso
H8 H 0.0174 0.6715 -0.0006 0.0390 Uiso
C4 C 0.08564(17) 1.0098(6) 0.0098(2) 0.0336 Uani
H9 H 0.0795 1.1029 -0.0108 0.0400 Uiso
H10 H 0.1185 0.9971 0.0364 0.0400 Uiso
C5 C 0.07996(17) 1.1676(6) 0.0755(2) 0.0326 Uani
H11 H 0.0702 1.2509 0.0492 0.0390 Uiso
H12 H 0.1127 1.1747 0.1053 0.0390 Uiso
C6 C -0.05580(17) 0.8272(6) -0.1024(2) 0.0318 Uani
H13 H -0.0621 0.7324 -0.1221 0.0390 Uiso
H14 H -0.0673 0.9066 -0.1307 0.0390 Uiso
C7 C 0.16426(16) -0.8595(6) 0.39376(19) 0.0294 Uani
H15 H 0.1365 -0.9186 0.3735 0.0360 Uiso
H16 H 0.1566 -0.7549 0.3921 0.0360 Uiso
C8 C 0.21074(17) -1.0563(5) 0.4441(2) 0.0313 Uani
H17 H 0.1886 -1.1330 0.4345 0.0370 Uiso
H18 H 0.2406 -1.0877 0.4780 0.0370 Uiso
C9 C 0.21150(18) -1.0278(5) 0.3940(2) 0.0330 Uani
H19 H 0.2427 -1.0231 0.4072 0.0400 Uiso
H20 H 0.1955 -1.1067 0.3655 0.0400 Uiso
C10 C 0.28215(16) -0.7414(6) 0.62209(18) 0.0294 Uani
H21 H 0.2724 -0.7232 0.6456 0.0350 Uiso
H22 H 0.2998 -0.8332 0.6357 0.0350 Uiso
C11 C 0.21744(17) -0.9069(5) 0.5508(2) 0.0288 Uani
H23 H 0.2053 -0.9106 0.5720 0.0350 Uiso
H24 H 0.2387 -0.9893 0.5635 0.0350 Uiso
C12 C 0.17906(17) -0.9198(6) 0.4869(2) 0.0331 Uani
H25 H 0.1634 -1.0145 0.4788 0.0390 Uiso
H26 H 0.1572 -0.8399 0.4747 0.0390 Uiso
C13 C 0.17389(15) -0.5093(5) 0.46209(19) 0.0224 Uani
C14 C 0.14194(14) -0.3947(5) 0.41726(17) 0.0194 Uani
C15 C 0.13502(15) -0.3817(5) 0.36513(18) 0.0241 Uani
H27 H 0.1504 -0.4462 0.3575 0.0300 Uiso
C16 C 0.10628(16) -0.2765(5) 0.32502(19) 0.0259 Uani
H28 H 0.1016 -0.2713 0.2902 0.0300 Uiso
C17 C 0.08414(14) -0.1776(5) 0.33658(18) 0.0176 Uani
C18 C 0.09054(14) -0.1854(5) 0.38817(17) 0.0186 Uani
H29 H 0.0759 -0.1182 0.3961 0.0220 Uiso
C19 C 0.11902(14) -0.2948(5) 0.42763(18) 0.0201 Uani
H30 H 0.1230 -0.3017 0.4620 0.0250 Uiso
C20 C 0.03084(14) 0.0240(5) 0.30333(17) 0.0169 Uani
H31 H 0.0511 0.0864 0.3370 0.0200 Uiso
H32 H 0.0125 -0.0355 0.3097 0.0200 Uiso
C21 C 0.0000 0.1218(6) 0.2500 0.0139 Uani
C22 C 0.02869(14) 0.2204(5) 0.24087(17) 0.0178 Uani
H33 H 0.0511 0.2764 0.2756 0.0210 Uiso
H34 H 0.0445 0.1600 0.2307 0.0210 Uiso
C23 C 0.01217(16) 0.4280(5) 0.17746(18) 0.0220 Uani
C24 C -0.02236(16) 0.5163(5) 0.1324(2) 0.0279 Uani
H35 H -0.0524 0.5036 0.1184 0.0330 Uiso
C25 C -0.01155(16) 0.6229(5) 0.1088(2) 0.0273 Uani
H36 H -0.0347 0.6807 0.0782 0.0330 Uiso
C26 C 0.03332(16) 0.6460(5) 0.12966(18) 0.0226 Uani
C27 C 0.06717(16) 0.5617(5) 0.17609(18) 0.0241 Uani
H37 H 0.0975 0.5790 0.1918 0.0280 Uiso
C28 C 0.05702(16) 0.4505(5) 0.20024(18) 0.0243 Uani
H38 H 0.0801 0.3931 0.2311 0.0290 Uiso
C29 C 0.04341(16) 0.7562(5) 0.10026(19) 0.0229 Uani
O1A O -0.19939(10) -0.5773(3) 0.04592(12) 0.0229 Uani
O2A O -0.17308(12) -0.5313(4) -0.00336(14) 0.0342 Uani
O3A O -0.05683(10) -0.0715(3) 0.20530(12) 0.0231 Uani
O4A O 0.00309(10) 0.3196(3) 0.30540(12) 0.0241 Uani
O5A O -0.08402(11) 0.7727(4) 0.38038(14) 0.0321 Uani
O6A O -0.01006(11) 0.8236(3) 0.44318(13) 0.0274 Uani
C13A C -0.17389(15) -0.5093(5) 0.03791(19) 0.0224 Uani
C14A C -0.14194(14) -0.3947(5) 0.08274(17) 0.0194 Uani
C15A C -0.13502(15) -0.3817(5) 0.13487(18) 0.0241 Uani
H27A H -0.1504 -0.4462 0.1425 0.0300 Uiso
C16A C -0.10628(16) -0.2765(5) 0.17498(19) 0.0259 Uani
H28A H -0.1016 -0.2713 0.2098 0.0300 Uiso
C17A C -0.08414(14) -0.1776(5) 0.16342(18) 0.0176 Uani
C18A C -0.09054(14) -0.1854(5) 0.11183(17) 0.0186 Uani
H29A H -0.0759 -0.1182 0.1039 0.0220 Uiso
C19A C -0.11902(14) -0.2948(5) 0.07237(18) 0.0201 Uani
H30A H -0.1230 -0.3017 0.0380 0.0250 Uiso
C20A C -0.03084(14) 0.0240(5) 0.19667(17) 0.0169 Uani
H31A H -0.0511 0.0864 0.1630 0.0200 Uiso
H32A H -0.0125 -0.0355 0.1903 0.0200 Uiso
C22A C -0.02869(14) 0.2204(5) 0.25913(17) 0.0178 Uani
H33A H -0.0511 0.2764 0.2244 0.0210 Uiso
H34A H -0.0445 0.1600 0.2693 0.0210 Uiso
C23A C -0.01217(16) 0.4280(5) 0.32254(18) 0.0220 Uani
C24A C 0.02236(16) 0.5163(5) 0.3676(2) 0.0279 Uani
H35A H 0.0524 0.5036 0.3816 0.0330 Uiso
C25A C 0.01155(16) 0.6229(5) 0.3912(2) 0.0273 Uani
H36A H 0.0347 0.6807 0.4218 0.0330 Uiso
C26A C -0.03332(16) 0.6460(5) 0.37034(18) 0.0226 Uani
C27A C -0.06717(16) 0.5617(5) 0.32391(18) 0.0241 Uani
H37A H -0.0975 0.5790 0.3082 0.0280 Uiso
C28A C -0.05702(16) 0.4505(5) 0.29976(18) 0.0243 Uani
H38A H -0.0801 0.3931 0.2689 0.0290 Uiso
C29A C -0.04341(16) 0.7562(5) 0.39974(19) 0.0229 Uani
N1F N 0.25895(12) -0.7368(4) 0.43855(14) 0.0217 Uani
H1F H 0.2805 -0.8160 0.4471 0.0260 Uiso
N2F N 0.30234(12) -0.5896(4) 0.54578(15) 0.0237 Uani
N3F N 0.31181(13) -0.6176(5) 0.63067(16) 0.0309 Uani
C7F C 0.33574(16) -0.6405(6) 0.60624(19) 0.0294 Uani
H15F H 0.3635 -0.5814 0.6265 0.0360 Uiso
H16F H 0.3434 -0.7451 0.6079 0.0360 Uiso
C8F C 0.28926(17) -0.4437(5) 0.5559(2) 0.0313 Uani
H17F H 0.3114 -0.3670 0.5655 0.0370 Uiso
H18F H 0.2594 -0.4123 0.5220 0.0370 Uiso
C9F C 0.28850(18) -0.4722(5) 0.6060(2) 0.0330 Uani
H19F H 0.2573 -0.4769 0.5928 0.0400 Uiso
H20F H 0.3045 -0.3933 0.6345 0.0400 Uiso
C10F C 0.21785(16) -0.7586(6) 0.37791(18) 0.0294 Uani
H21F H 0.2276 -0.7768 0.3544 0.0350 Uiso
H22F H 0.2002 -0.6668 0.3643 0.0350 Uiso
C11F C 0.28256(17) -0.5931(5) 0.4492(2) 0.0288 Uani
H23F H 0.2947 -0.5894 0.4280 0.0350 Uiso
H24F H 0.2613 -0.5107 0.4365 0.0350 Uiso
C12F C 0.32094(17) -0.5802(6) 0.5131(2) 0.0331 Uani
H25F H 0.3366 -0.4855 0.5212 0.0390 Uiso
H26F H 0.3428 -0.6601 0.5253 0.0390 Uiso
N4D N 0.00582(14) 1.1551(4) 0.05767(15) 0.0264 Uani
N5D N -0.06819(13) 0.9766(4) -0.04391(16) 0.0254 Uani
H2D H -0.0829 1.0560 -0.0731 0.0310 Uiso
N6D N -0.06642(15) 1.1117(5) 0.03136(17) 0.0334 Uani
C1D C -0.01827(17) 1.0963(6) 0.0795(2) 0.0303 Uani
H3D H -0.0105 1.1539 0.1124 0.0360 Uiso
H4D H -0.0104 0.9923 0.0908 0.0360 Uiso
C2D C -0.06836(19) 1.2600(6) 0.0072(2) 0.0396 Uani
H5D H -0.0882 1.2559 -0.0346 0.0480 Uiso
H6D H -0.0800 1.3352 0.0190 0.0480 Uiso
C3D C -0.01870(18) 1.2983(5) 0.0313(2) 0.0326 Uani
H7D H -0.0061 1.3774 0.0598 0.0390 Uiso
H8D H -0.0174 1.3285 0.0006 0.0390 Uiso
C4D C -0.08564(17) 0.9902(6) -0.0098(2) 0.0336 Uani
H9D H -0.0795 0.8971 0.0108 0.0400 Uiso
H10D H -0.1185 1.0029 -0.0364 0.0400 Uiso
C5D C -0.07996(17) 0.8324(6) -0.0755(2) 0.0326 Uani
H11D H -0.0702 0.7491 -0.0492 0.0390 Uiso
H12D H -0.1127 0.8253 -0.1053 0.0390 Uiso
C6D C 0.05580(17) 1.1728(6) 0.1024(2) 0.0318 Uani
H13D H 0.0621 1.2676 0.1221 0.0390 Uiso
H14D H 0.0673 1.0934 0.1307 0.0390 Uiso
Ni1A Ni 0.0000 1.0000 0.5000 0.0196 Uani
Ni2A Ni -0.2500 -0.7500 0.0000 0.0177 Uani
O1F O 0.30061(10) -0.9227(3) 0.54592(12) 0.0229 Uani
O6D O -0.01006(11) 1.1764(3) -0.05682(13) 0.0274 Uani
O7 O 0.1337(3) 0.5196(6) 0.1297(3) 0.1264 Uani
H39 H 0.1601 0.5535 0.1524 0.1900 Uiso
H40 H 0.1163 0.5804 0.1300 0.1900 Uiso
O8 O 0.21300(18) 0.1556(6) 0.1425(2) 0.0945 Uani
H41 H 0.1950 0.2253 0.1180 0.1420 Uiso
H42 H 0.2305 0.1451 0.1321 0.1420 Uiso
O9 O 0.2761(6) 0.143(2) 0.3250(9) 0.1881 Uani
O11 O 0.2096(7) 0.965(3) 0.2052(11) 0.2504 Uani
O12 O 0.12700(14) 0.1267(5) 0.24779(15) 0.0591 Uani
H43 H 0.1313 0.1150 0.2795 0.0880 Uiso
H44 H 0.1501 0.1685 0.2542 0.0880 Uiso
O13 O 0.1573(2) 0.3839(6) 0.0700(3) 0.1128 Uani
H45 H 0.1628 0.4132 0.0471 0.1690 Uiso
H46 H 0.1398 0.4369 0.0730 0.1690 Uiso
O14 O 0.16878(17) 0.3606(5) 0.23195(18) 0.0709 Uani
H47 H 0.1481 0.4198 0.2048 0.1070 Uiso
H48 H 0.1973 0.3765 0.2434 0.1070 Uiso
O15 O 0.15238(15) 0.8580(5) 0.22971(18) 0.0702 Uani
H49 H 0.1711 0.9226 0.2294 0.1060 Uiso
H50 H 0.1290 0.8328 0.1960 0.1060 Uiso
O16 O 0.19566(15) 0.6106(5) 0.30631(17) 0.0654 Uani
H51 H 0.1823 0.6958 0.2904 0.0980 Uiso
H52 H 0.1712 0.5613 0.2826 0.0980 Uiso
loop_
_atom_site_aniso_label
_atom_site_aniso_U_11
_atom_site_aniso_U_22
_atom_site_aniso_U_33
_atom_site_aniso_U_23
_atom_site_aniso_U_13
_atom_site_aniso_U_12
Ni1 0.0274(4) 0.0162(4) 0.0185(4) 0.0003(3) 0.0158(4) -0.0026(3)
Ni2 0.0193(4) 0.0151(4) 0.0162(4) 0.0012(3) 0.0097(3) 0.0014(3)
O1 0.0259(17) 0.0204(17) 0.0230(16) 0.0041(13) 0.0153(14) 0.0070(14)
O2 0.046(2) 0.035(2) 0.0309(18) 0.0162(15) 0.0283(17) 0.0227(17)
O3 0.0306(17) 0.0203(17) 0.0216(16) 0.0054(13) 0.0176(14) 0.0103(14)
O4 0.0280(17) 0.0182(17) 0.0275(17) 0.0123(14) 0.0178(15) 0.0032(14)
O5 0.037(2) 0.030(2) 0.0334(18) 0.0085(15) 0.0237(16) -0.0002(16)
O6 0.0368(19) 0.0239(18) 0.0270(17) 0.0076(15) 0.0224(16) 0.0006(15)
N1 0.026(2) 0.020(2) 0.0182(18) 0.0006(16) 0.0131(16) 0.0030(16)
N2 0.024(2) 0.021(2) 0.0221(19) -0.0014(16) 0.0122(17) -0.0013(16)
N3 0.029(2) 0.032(2) 0.020(2) -0.0044(18) 0.0092(18) -0.0023(19)
N4 0.039(2) 0.021(2) 0.023(2) -0.0023(16) 0.0210(19) -0.0042(18)
N5 0.032(2) 0.024(2) 0.024(2) 0.0014(17) 0.0192(18) -0.0051(17)
N6 0.045(3) 0.034(3) 0.033(2) 0.0051(19) 0.030(2) 0.005(2)
C1 0.045(3) 0.029(3) 0.028(3) 0.000(2) 0.028(2) -0.002(2)
C2 0.054(4) 0.032(3) 0.038(3) 0.005(2) 0.031(3) 0.012(3)
C3 0.056(3) 0.017(2) 0.036(3) -0.002(2) 0.034(3) -0.001(2)
C4 0.032(3) 0.037(3) 0.036(3) 0.005(2) 0.023(2) -0.003(2)
C5 0.035(3) 0.030(3) 0.033(3) -0.009(2) 0.021(2) -0.010(2)
C6 0.048(3) 0.027(3) 0.024(2) -0.007(2) 0.024(2) -0.011(2)
C7 0.024(2) 0.030(3) 0.022(2) -0.002(2) 0.008(2) -0.001(2)
C8 0.032(3) 0.018(2) 0.036(3) -0.005(2) 0.017(2) -0.007(2)
C9 0.040(3) 0.024(3) 0.035(3) -0.012(2) 0.023(2) -0.005(2)
C10 0.029(3) 0.035(3) 0.020(2) 0.003(2) 0.013(2) 0.000(2)
C11 0.037(3) 0.022(3) 0.035(3) -0.002(2) 0.026(2) -0.005(2)
C12 0.032(3) 0.030(3) 0.043(3) -0.004(2) 0.026(2) -0.008(2)
C13 0.021(2) 0.017(2) 0.025(2) 0.0018(19) 0.012(2) 0.0044(19)
C14 0.020(2) 0.014(2) 0.019(2) 0.0003(17) 0.0094(19) -0.0006(18)
C15 0.027(2) 0.019(2) 0.027(2) 0.000(2) 0.017(2) 0.008(2)
C16 0.033(3) 0.024(3) 0.020(2) 0.0021(19) 0.016(2) 0.007(2)
C17 0.020(2) 0.010(2) 0.024(2) 0.0032(18) 0.0141(19) 0.0034(17)
C18 0.021(2) 0.016(2) 0.021(2) -0.0009(18) 0.0141(19) 0.0015(18)
C19 0.021(2) 0.020(2) 0.020(2) 0.0024(18) 0.0129(19) 0.0006(19)
C20 0.021(2) 0.014(2) 0.018(2) 0.0011(17) 0.0132(19) 0.0011(18)
C21 0.018(3) 0.010(3) 0.014(3) 0.000 0.010(2) 0.000
C22 0.020(2) 0.016(2) 0.015(2) 0.0009(17) 0.0096(18) -0.0003(17)
C23 0.032(3) 0.014(2) 0.025(2) 0.0045(19) 0.020(2) 0.004(2)
C24 0.028(3) 0.021(3) 0.038(3) 0.012(2) 0.022(2) 0.008(2)
C25 0.035(3) 0.020(3) 0.033(3) 0.010(2) 0.024(2) 0.009(2)
C26 0.034(3) 0.016(2) 0.024(2) 0.0026(19) 0.021(2) 0.003(2)
C27 0.028(2) 0.022(2) 0.023(2) -0.0009(19) 0.016(2) -0.003(2)
C28 0.029(3) 0.022(2) 0.021(2) 0.0058(19) 0.015(2) 0.001(2)
C29 0.032(3) 0.017(2) 0.026(2) 0.002(2) 0.021(2) -0.003(2)
O1A 0.0259 0.0204 0.023 -0.0041 0.0153 -0.007
O2A 0.046 0.035 0.0309 -0.0162 0.0283 -0.0227
O3A 0.0306 0.0203 0.0216 -0.0054 0.0176 -0.0103
O4A 0.028 0.0182 0.0275 -0.0123 0.0178 -0.0032
O5A 0.037 0.03 0.0334 -0.0085 0.0237 0.0002
O6A 0.0368 0.0239 0.027 -0.0076 0.0224 -0.0006
C13A 0.021 0.017 0.025 -0.0018 0.012 -0.0044
C14A 0.02 0.014 0.019 -0.0003 0.0094 0.0006
C15A 0.027 0.019 0.027 0 0.017 -0.008
C16A 0.033 0.024 0.02 -0.0021 0.016 -0.007
C17A 0.02 0.01 0.024 -0.0032 0.0141 -0.0034
C18A 0.021 0.016 0.021 0.0009 0.0141 -0.0015
C19A 0.021 0.02 0.02 -0.0024 0.0129 -0.0006
C20A 0.021 0.014 0.018 -0.0011 0.0132 -0.0011
C22A 0.02 0.016 0.015 -0.0009 0.0096 0.0003
C23A 0.032 0.014 0.025 -0.0045 0.02 -0.004
C24A 0.028 0.021 0.038 -0.012 0.022 -0.008
C25A 0.035 0.02 0.033 -0.01 0.024 -0.009
C26A 0.034 0.016 0.024 -0.0026 0.021 -0.003
C27A 0.028 0.022 0.023 0.0009 0.016 0.003
C28A 0.029 0.022 0.021 -0.0058 0.015 -0.001
C29A 0.032 0.017 0.026 -0.002 0.021 0.003
N1F 0.026 0.02 0.0182 0.0006 0.0131 0.003
N2F 0.024 0.021 0.0221 -0.0014 0.0122 -0.0013
N3F 0.029 0.032 0.02 -0.0044 0.0092 -0.0023
C7F 0.024 0.03 0.022 -0.002 0.008 -0.001
C8F 0.032 0.018 0.036 -0.005 0.017 -0.007
C9F 0.04 0.024 0.035 -0.012 0.023 -0.005
C10F 0.029 0.035 0.02 0.003 0.013 0
C11F 0.037 0.022 0.035 -0.002 0.026 -0.005
C12F 0.032 0.03 0.043 -0.004 0.026 -0.008
N4D 0.039 0.021 0.023 -0.0023 0.021 -0.0042
N5D 0.032 0.024 0.024 0.0014 0.0192 -0.0051
N6D 0.045 0.034 0.033 0.0051 0.03 0.005
C1D 0.045 0.029 0.028 0 0.028 -0.002
C2D 0.054 0.032 0.038 0.005 0.031 0.012
C3D 0.056 0.017 0.036 -0.002 0.034 -0.001
C4D 0.032 0.037 0.036 0.005 0.023 -0.003
C5D 0.035 0.03 0.033 -0.009 0.021 -0.01
C6D 0.048 0.027 0.024 -0.007 0.024 -0.011
Ni1A 0.0274 0.0162 0.0185 -0.0003 0.0158 0.0026
Ni2A 0.0193 0.0151 0.0162 -0.0012 0.0097 -0.0014
O1F 0.0259 0.0204 0.023 0.0041 0.0153 0.007
O6D 0.0368 0.0239 0.027 0.0076 0.0224 0.0006
O7 0.228(8) 0.112(5) 0.119(5) 0.064(4) 0.147(6) 0.108(5)
O8 0.079(4) 0.115(5) 0.102(4) 0.021(4) 0.062(3) 0.030(3)
O9 0.152(12) 0.260(16) 0.213(14) 0.020(12) 0.143(11) 0.064(11)
O11 0.187(14) 0.262(17) 0.357(19) 0.139(14) 0.195(14) -0.018(12)
O12 0.055(3) 0.065(3) 0.028(2) -0.001(2) 0.0108(19) 0.012(2)
O13 0.195(7) 0.091(4) 0.158(5) 0.047(4) 0.162(6) 0.044(4)
O14 0.090(4) 0.058(3) 0.053(3) 0.015(2) 0.038(3) 0.021(3)
O15 0.063(3) 0.046(3) 0.059(3) -0.011(2) 0.016(2) -0.011(2)
O16 0.070(3) 0.070(3) 0.054(3) 0.002(2) 0.037(2) 0.002(3)
loop_
_geom_bond_atom_site_label_1
_geom_bond_atom_site_label_2
_geom_bond_site_symmetry_1
_geom_bond_site_symmetry_2
Ni1 O6 1_555 1_555
Ni2 O1 1_555 1_555
O1 C13 1_555 1_555
O2 C13 1_555 1_555
O3 C17 1_555 1_555
O4 C22 1_555 1_555
O5 C29 1_555 1_555
O6 C29 1_555 1_555
N1 Ni2 1_555 1_555
H1 N1 1_555 1_555
N2 Ni2 1_555 1_555
N3 C7 1_555 1_555
N4 Ni1 1_555 1_555
N5 Ni1 1_555 1_555
H2 N5 1_555 1_555
N6 C1 1_555 1_555
C1 N4 1_555 1_555
H3 C1 1_555 1_555
H4 C1 1_555 1_555
C2 N6 1_555 1_555
H5 C2 1_555 1_555
H6 C2 1_555 1_555
C3 N4 1_555 1_555
H7 C3 1_555 1_555
H8 C3 1_555 1_555
C4 N5 1_555 1_555
H9 C4 1_555 1_555
H10 C4 1_555 1_555
C5 N5 1_555 1_555
H11 C5 1_555 1_555
H12 C5 1_555 1_555
C6 N4 1_555 1_555
H13 C6 1_555 1_555
H14 C6 1_555 1_555
C7 N2 1_555 1_555
H15 C7 1_555 1_555
H16 C7 1_555 1_555
C8 N2 1_555 1_555
H17 C8 1_555 1_555
H18 C8 1_555 1_555
C9 N3 1_555 1_555
H19 C9 1_555 1_555
H20 C9 1_555 1_555
C10 N1 1_555 1_555
H21 C10 1_555 1_555
H22 C10 1_555 1_555
C11 N1 1_555 1_555
H23 C11 1_555 1_555
H24 C11 1_555 1_555
C12 N2 1_555 1_555
H25 C12 1_555 1_555
H26 C12 1_555 1_555
C13 C14 1_555 1_555
C14 C15 1_555 1_555
C15 H27 1_555 1_555
C16 C15 1_555 1_555
H28 C16 1_555 1_555
C17 C16 1_555 1_555
C18 C17 1_555 1_555
H29 C18 1_555 1_555
C19 C14 1_555 1_555
H30 C19 1_555 1_555
C20 O3 1_555 1_555
H31 C20 1_555 1_555
H32 C20 1_555 1_555
C21 C20 1_555 1_555
C22 C21 1_555 1_555
H33 C22 1_555 1_555
H34 C22 1_555 1_555
C23 O4 1_555 1_555
C24 C23 1_555 1_555
H35 C24 1_555 1_555
C25 C24 1_555 1_555
H36 C25 1_555 1_555
C26 C25 1_555 1_555
C27 C26 1_555 1_555
H37 C27 1_555 1_555
C28 C23 1_555 1_555
H38 C28 1_555 1_555
C29 C26 1_555 1_555
O7 H39 1_555 1_555
H40 O7 1_555 1_555
O8 H41 1_555 1_555
H42 O8 1_555 1_555
O12 H43 1_555 1_555
H44 O12 1_555 1_555
O13 H45 1_555 1_555
H46 O13 1_555 1_555
O14 H47 1_555 1_555
H48 O14 1_555 1_555
O15 H49 1_555 1_555
H50 O15 1_555 1_555
O16 H51 1_555 1_555
H52 O16 1_555 1_555
O1A C13A 1_555 1_555
O2A C13A 1_555 1_555
O3A C17A 1_555 1_555
O4A C22A 1_555 1_555
O5A C29A 1_555 1_555
O6A C29A 1_555 1_555
C13A C14A 1_555 1_555
C14A C15A 1_555 1_555
C15A H27A 1_555 1_555
C16A C15A 1_555 1_555
H28A C16A 1_555 1_555
C17A C16A 1_555 1_555
C18A C17A 1_555 1_555
H29A C18A 1_555 1_555
C19A C14A 1_555 1_555
H30A C19A 1_555 1_555
C20A C21 1_555 1_555
H31A C20A 1_555 1_555
H32A C20A 1_555 1_555
C22A C21 1_555 1_555
H33A C22A 1_555 1_555
H34A C22A 1_555 1_555
C23A O4A 1_555 1_555
C24A C23A 1_555 1_555
H35A C24A 1_555 1_555
C25A C24A 1_555 1_555
H36A C25A 1_555 1_555
C26A C25A 1_555 1_555
C27A C26A 1_555 1_555
H37A C27A 1_555 1_555
C28A C23A 1_555 1_555
H38A C28A 1_555 1_555
C29A C26A 1_555 1_555
N1F Ni2 1_555 1_555
H1F N1F 1_555 1_555
N2F Ni2 1_555 1_555
N3F C10 1_555 1_555
C7F N2F 1_555 1_555
H15F C7F 1_555 1_555
H16F C7F 1_555 1_555
C8F N2F 1_555 1_555
H17F C8F 1_555 1_555
H18F C8F 1_555 1_555
C9F N3F 1_555 1_555
H19F C9F 1_555 1_555
H20F C9F 1_555 1_555
C10F N3 1_555 1_555
H21F C10F 1_555 1_555
H22F C10F 1_555 1_555
C11F N1F 1_555 1_555
H23F C11F 1_555 1_555
H24F C11F 1_555 1_555
C12F N2F 1_555 1_555
H25F C12F 1_555 1_555
H26F C12F 1_555 1_555
N4D Ni1 1_555 1_555
N5D Ni1 1_555 1_555
H2D N5D 1_555 1_555
N6D C1D 1_555 1_555
C1D N4D 1_555 1_555
H3D C1D 1_555 1_555
H4D C1D 1_555 1_555
C2D N6D 1_555 1_555
H5D C2D 1_555 1_555
H6D C2D 1_555 1_555
C3D N4D 1_555 1_555
H7D C3D 1_555 1_555
H8D C3D 1_555 1_555
C4D N5D 1_555 1_555
H9D C4D 1_555 1_555
H10D C4D 1_555 1_555
C5D C6 1_555 1_555
H11D C5D 1_555 1_555
H12D C5D 1_555 1_555
C6D C5 1_555 1_555
H13D C6D 1_555 1_555
H14D C6D 1_555 1_555
Ni1A O6A 1_555 1_555
Ni2A O1A 1_555 1_555
O1F Ni2 1_555 1_555
O6D Ni1 1_555 1_555
N6 C4 1_555 1_555
C2 C3 1_555 1_555
C8 C9 1_555 1_555
C11 C12 1_555 1_555
C18 C19 1_555 1_555
C27 C28 1_555 1_555
O3A C20A 1_555 1_555
C18A C19A 1_555 1_555
C27A C28A 1_555 1_555
N1F C10F 1_555 1_555
N3F C7F 1_555 1_555
C8F C9F 1_555 1_555
C11F C12F 1_555 1_555
N4D C6D 1_555 1_555
N5D C5D 1_555 1_555
N6D C4D 1_555 1_555
C2D C3D 1_555 1_555

#END
