
#######################################################################
#
#                 Cambridge Crystallographic Data Centre
#                                CCDC 
#
#######################################################################
#
# If this CIF has been generated from an entry in the Cambridge 
# Structural Database, then it will include bibliographic, chemical, 
# crystal, experimental, refinement or atomic coordinate data resulting 
# from the CCDC's data processing and validation procedures.
#
#######################################################################

data_RUWZIU
_chemical_formula_moiety         '(C53 H94 N12 Ni2 O21)n'
_symmetry_cell_setting           monoclinic
_symmetry_space_group_name_H-M   'C 2/c'
_symmetry_Int_Tables_number      15
_space_group_name_Hall           '-C 2yc'
loop_
_symmetry_equiv_pos_site_id
_symmetry_equiv_pos_as_xyz
1 x,y,z
2 -x,y,1/2-z
3 1/2+x,1/2+y,z
4 1/2-x,1/2+y,1/2-z
5 -x,-y,-z
6 x,-y,1/2+z
7 1/2-x,1/2-y,-z
8 1/2+x,1/2-y,1/2+z
_cell_length_a                   37.526(8)
_cell_length_b                   8.8468(18)
_cell_length_c                   29.720(6)
_cell_angle_alpha                90
_cell_angle_beta                 127.61(3)
_cell_angle_gamma                90
_cell_volume                     7816.15
loop_
_atom_site_label
_atom_site_type_symbol
_atom_site_fract_x
_atom_site_fract_y
_atom_site_fract_z
O1 O 0.34748(16) 0.3690(5) 0.93730(18)
H1 H 0.3356 0.4306 0.9099
H2 H 0.3415 0.4118 0.9585
Ni1 Ni 0.2500 1.7500 0.0000
Ni2 Ni 0.5000 0.0000 0.0000
N1 N 0.25887(11) 1.7609(4) -0.06196(13)
H3 H 0.2796 1.6797 -0.0546
N2 N 0.20350(11) 1.5772(4) -0.03946(14)
H4 H 0.2198 1.4820 -0.0312
N3 N 0.19239(12) 1.6044(4) -0.12945(14)
C1 C 0.21710(14) 1.7413(5) -0.12054(17)
H5 H 0.1976 1.8274 -0.1301
H6 H 0.2247 1.7412 -0.1464
C2 C 0.17129(15) 1.5950(6) -0.10197(18)
H7 H 0.1507 1.5099 -0.1177
H8 H 0.1537 1.6859 -0.1106
C3 C 0.28185(16) 1.9067(5) -0.05300(19)
H9 H 0.2604 1.9892 -0.0678
H10 H 0.2951 1.9062 -0.0726
C4 C 0.18154(16) 1.5732(6) -0.0108(2)
H11 H 0.1663 1.4774 -0.0183
H12 H 0.1595 1.6537 -0.0253
C5 C 0.21569(19) 1.4648(6) -0.1250(2)
H13 H 0.2408 1.4474 -0.0860
H14 H 0.2263 1.4749 -0.1472
H15 H 0.1952 1.3811 -0.1390
N4 N 0.56865(11) -0.0317(4) 0.04884(13)
H16 H 0.5829 0.0568 0.0736
N5 N 0.49785(11) 0.1423(4) -0.05659(13)
H17 H 0.5074 0.2429 -0.0392
N6 N 0.57524(13) 0.0808(4) -0.02152(16)
C6 C 0.44976(15) 0.1523(5) -0.10652(18)
H18 H 0.4412 0.0633 -0.1302
H19 H 0.4449 0.2405 -0.1290
C7 C 0.52873(16) 0.0947(5) -0.07020(18)
H20 H 0.5185 -0.0018 -0.0897
H21 H 0.5265 0.1679 -0.0961
C8 C 0.57849(15) -0.1635(5) 0.08578(19)
H22 H 0.6102 -0.1647 0.1180
H23 H 0.5715 -0.2565 0.0646
C9 C 0.58657(15) -0.0449(5) 0.0158(2)
H24 H 0.6191 -0.0539 0.0422
H25 H 0.5749 -0.1368 -0.0066
C10 C 0.59670(17) 0.2241(6) 0.0067(2)
H26 H 0.5824 0.2661 0.0218
H27 H 0.5938 0.2933 -0.0203
H28 H 0.6280 0.2072 0.0370
O2 O 0.49527(9) 0.6881(3) 0.19101(12)
C11 C 0.5000 0.8792(5) 0.2500
C12 C 0.52778(12) 0.7784(4) 0.23971(15)
H29 H 0.5451 0.8394 0.2322
H30 H 0.5482 0.7148 0.2725
O3 O 0.50766(9) 0.1943(3) 0.04795(11)
O4 O 0.58124(9) 0.2372(3) 0.11302(12)
O5 O 0.30148(9) 1.5836(3) 0.04808(11)
C13 C 0.52963(13) 0.3729(4) 0.11982(16)
C14 C 0.46914(12) 0.9781(4) 0.19741(14)
H31 H 0.4868 1.0346 0.1894
H32 H 0.4480 0.9152 0.1648
C15 C 0.41771(12) 1.1839(4) 0.16621(15)
C16 C 0.38174(13) 1.2989(4) 0.07464(16)
H33 H 0.3778 1.3054 0.0406
C17 C 0.35793(12) 1.3968(4) 0.08410(16)
C18 C 0.56357(13) 0.4420(4) 0.17067(16)
H34 H 0.5934 0.4168 0.1877
C19 C 0.50953(13) 0.5833(4) 0.17138(16)
C20 C 0.55414(13) 0.5482(4) 0.19684(16)
H35 H 0.5773 0.5945 0.2306
C21 C 0.41126(12) 1.1918(4) 0.11455(15)
H36 H 0.4265 1.1264 0.1071
C22 C 0.54024(14) 0.2604(4) 0.09120(17)
O6 O 0.32640(12) 1.5310(4) -0.00190(14)
C23 C 0.39452(14) 1.2814(5) 0.17649(17)
H37 H 0.3990 1.2767 0.2109
C24 C 0.36479(14) 1.3853(5) 0.13595(17)
H38 H 0.3490 1.4488 0.1431
C25 C 0.48518(14) 0.4101(5) 0.09538(19)
H39 H 0.4620 0.3643 0.0615
C26 C 0.32596(13) 1.5112(4) 0.03972(17)
C27 C 0.47499(14) 0.5133(5) 0.1204(2)
H40 H 0.4451 0.5368 0.1036
O7 O 0.44539(9) 1.0797(3) 0.20785(10)
N1F N 0.24113(11) 1.7391(4) 0.06196(13)
H3F H 0.2204 1.8203 0.0546
N2F N 0.29650(11) 1.9228(4) 0.03946(14)
H4F H 0.2802 2.0180 0.0312
N3F N 0.30761(12) 1.8956(4) 0.12945(14)
C1F C 0.28290(14) 1.7587(5) 0.12054(17)
H5F H 0.3024 1.6726 0.1301
H6F H 0.2753 1.7588 0.1464
C2F C 0.32871(15) 1.9050(6) 0.10197(18)
H7F H 0.3493 1.9901 0.1177
H8F H 0.3463 1.8141 0.1106
C3F C 0.21815(16) 1.5933(5) 0.05300(19)
H9F H 0.2396 1.5108 0.0678
H10F H 0.2049 1.5938 0.0726
C4F C 0.31846(16) 1.9268(6) 0.0108(2)
H11F H 0.3337 2.0226 0.0183
H12F H 0.3405 1.8463 0.0253
C5F C 0.28431(19) 2.0352(6) 0.1250(2)
H13F H 0.2592 2.0526 0.0860
H14F H 0.2737 2.0251 0.1472
H15F H 0.3048 2.1189 0.1390
N4D N 0.43135(11) 0.0317(4) -0.04884(13)
H16D H 0.4171 -0.0568 -0.0736
N5D N 0.50215(11) -0.1423(4) 0.05659(13)
H17D H 0.4926 -0.2429 0.0392
N6D N 0.42476(13) -0.0808(4) 0.02152(16)
C6D C 0.55024(15) -0.1523(5) 0.10652(18)
H18D H 0.5588 -0.0633 0.1302
H19D H 0.5551 -0.2405 0.1290
C7D C 0.47127(16) -0.0947(5) 0.07020(18)
H20D H 0.4815 0.0018 0.0897
H21D H 0.4735 -0.1679 0.0961
C8D C 0.42151(15) 0.1635(5) -0.08578(19)
H22D H 0.3898 0.1647 -0.1180
H23D H 0.4285 0.2565 -0.0646
C9D C 0.41343(15) 0.0449(5) -0.0158(2)
H24D H 0.3809 0.0539 -0.0422
H25D H 0.4251 0.1368 0.0066
C10D C 0.40330(17) -0.2241(6) -0.0067(2)
H26D H 0.4176 -0.2661 -0.0218
H27D H 0.4062 -0.2933 0.0203
H28D H 0.3720 -0.2072 -0.0370
O2A O 0.50473(9) 0.6881(3) 0.30899(12)
C12A C 0.47222(12) 0.7784(4) 0.26029(15)
H29A H 0.4549 0.8394 0.2678
H30A H 0.4518 0.7148 0.2275
O3A O 0.49234(9) 0.1943(3) 0.45205(11)
O4A O 0.41876(9) 0.2372(3) 0.38698(12)
O5A O 0.69852(9) 1.5836(3) 0.45192(11)
C13A C 0.47037(13) 0.3729(4) 0.38018(16)
C14A C 0.53086(12) 0.9781(4) 0.30259(14)
H31A H 0.5132 1.0346 0.3106
H32A H 0.5520 0.9152 0.3352
C15A C 0.58229(12) 1.1839(4) 0.33379(15)
C16A C 0.61826(13) 1.2989(4) 0.42536(16)
H33A H 0.6222 1.3054 0.4594
C17A C 0.64207(12) 1.3968(4) 0.41590(16)
C18A C 0.43643(13) 0.4420(4) 0.32933(16)
H34A H 0.4066 0.4168 0.3123
C19A C 0.49047(13) 0.5833(4) 0.32862(16)
C20A C 0.44586(13) 0.5482(4) 0.30316(16)
H35A H 0.4227 0.5945 0.2694
C21A C 0.58874(12) 1.1918(4) 0.38545(15)
H36A H 0.5735 1.1264 0.3929
C22A C 0.45976(14) 0.2604(4) 0.40880(17)
O6A O 0.67360(12) 1.5310(4) 0.50190(14)
C23A C 0.60548(14) 1.2814(5) 0.32351(17)
H37A H 0.6010 1.2767 0.2891
C24A C 0.63521(14) 1.3853(5) 0.36405(17)
H38A H 0.6510 1.4488 0.3569
C25A C 0.51482(14) 0.4101(5) 0.40462(19)
H39A H 0.5380 0.3643 0.4385
C26A C 0.67404(13) 1.5112(4) 0.46028(17)
C27A C 0.52501(14) 0.5133(5) 0.3796(2)
H40A H 0.5549 0.5368 0.3964
O7A O 0.55461(9) 1.0797(3) 0.29215(10)
Ni1A Ni 0.7500 1.7500 0.5000
Ni2A Ni 0.5000 -0.0000 0.5000
O3D O 0.49234(9) -0.1943(3) -0.04795(11)
O5F O 0.19852(9) 1.9164(3) -0.04808(11)
O8 O 0.62582(12) 0.8666(4) 0.25019(14)
H41 H 0.6414 0.8708 0.2853
H42 H 0.6287 0.9478 0.2391
O9 O 0.63794(17) 0.4730(5) 0.13168(19)
H43 H 0.6129 0.4304 0.1177
H44 H 0.6562 0.4478 0.1656
O10 O 0.64666(12) 0.1325(4) 0.22091(16)
H45 H 0.6570 0.1189 0.2024
H46 H 0.6291 0.1788 0.1895
O11 O 0.7199(4) 0.3314(18) 0.1719(6)
O12 O 0.71760(17) 0.8224(7) 0.1464(2)
H47 H 0.7131 0.9161 0.1472
H48 H 0.7097 0.8069 0.1131
O13 O 0.66416(15) 0.6391(4) 0.22827(16)
H49 H 0.6651 0.7034 0.2502
H50 H 0.6727 0.5546 0.2454
O14 O 0.69066(14) 0.3816(5) 0.29818(17)
H51 H 0.7185 0.3618 0.3170
H52 H 0.6777 0.3069 0.2752
O15 O 0.7079(4) -0.002(2) 0.2106(8)
loop_
_geom_bond_atom_site_label_1
_geom_bond_atom_site_label_2
_geom_bond_site_symmetry_1
_geom_bond_site_symmetry_2
O1 H1 1_555 1_555
H2 O1 1_555 1_555
Ni1 N1 1_555 1_555
Ni2 N4 1_555 1_555
N1 H3 1_555 1_555
N2 Ni1 1_555 1_555
H4 N2 1_555 1_555
N3 C1 1_555 1_555
C1 N1 1_555 1_555
H5 C1 1_555 1_555
H6 C1 1_555 1_555
C2 N2 1_555 1_555
H7 C2 1_555 1_555
H8 C2 1_555 1_555
C3 N1 1_555 1_555
H9 C3 1_555 1_555
H10 C3 1_555 1_555
C4 N2 1_555 1_555
H11 C4 1_555 1_555
H12 C4 1_555 1_555
C5 N3 1_555 1_555
H13 C5 1_555 1_555
H14 C5 1_555 1_555
H15 C5 1_555 1_555
N4 H16 1_555 1_555
N5 Ni2 1_555 1_555
H17 N5 1_555 1_555
N6 C7 1_555 1_555
C6 N5 1_555 1_555
H18 C6 1_555 1_555
H19 C6 1_555 1_555
C7 N5 1_555 1_555
H20 C7 1_555 1_555
H21 C7 1_555 1_555
C8 N4 1_555 1_555
H22 C8 1_555 1_555
H23 C8 1_555 1_555
C9 N4 1_555 1_555
H24 C9 1_555 1_555
H25 C9 1_555 1_555
C10 N6 1_555 1_555
H26 C10 1_555 1_555
H27 C10 1_555 1_555
H28 C10 1_555 1_555
O2 C12 1_555 1_555
C11 C12 1_555 1_555
C12 H29 1_555 1_555
H30 C12 1_555 1_555
O3 Ni2 1_555 1_555
O4 C22 1_555 1_555
O5 Ni1 1_555 1_555
C13 C18 1_555 1_555
C14 C11 1_555 1_555
H31 C14 1_555 1_555
H32 C14 1_555 1_555
C15 C21 1_555 1_555
C16 H33 1_555 1_555
C17 C16 1_555 1_555
C18 H34 1_555 1_555
C19 O2 1_555 1_555
C20 C18 1_555 1_555
H35 C20 1_555 1_555
C21 C16 1_555 1_555
H36 C21 1_555 1_555
C22 O3 1_555 1_555
O6 C26 1_555 1_555
C23 C15 1_555 1_555
H37 C23 1_555 1_555
C24 C17 1_555 1_555
H38 C24 1_555 1_555
C25 C13 1_555 1_555
H39 C25 1_555 1_555
C26 O5 1_555 1_555
C27 C19 1_555 1_555
H40 C27 1_555 1_555
O7 C14 1_555 1_555
O8 H41 1_555 1_555
H42 O8 1_555 1_555
O9 H43 1_555 1_555
H44 O9 1_555 1_555
O10 H45 1_555 1_555
H46 O10 1_555 1_555
O12 H47 1_555 1_555
H48 O12 1_555 1_555
O13 H49 1_555 1_555
H50 O13 1_555 1_555
O14 H51 1_555 1_555
H52 O14 1_555 1_555
N1F Ni1 1_555 1_555
H3F N1F 1_555 1_555
N2F Ni1 1_555 1_555
H4F N2F 1_555 1_555
N3F C1F 1_555 1_555
C1F N1F 1_555 1_555
H5F C1F 1_555 1_555
H6F C1F 1_555 1_555
C2F N2F 1_555 1_555
H7F C2F 1_555 1_555
H8F C2F 1_555 1_555
C3F C4 1_555 1_555
H9F C3F 1_555 1_555
H10F C3F 1_555 1_555
C4F C3 1_555 1_555
H11F C4F 1_555 1_555
H12F C4F 1_555 1_555
C5F N3F 1_555 1_555
H13F C5F 1_555 1_555
H14F C5F 1_555 1_555
H15F C5F 1_555 1_555
N4D Ni2 1_555 1_555
H16D N4D 1_555 1_555
N5D Ni2 1_555 1_555
H17D N5D 1_555 1_555
N6D C7D 1_555 1_555
C6D C8 1_555 1_555
H18D C6D 1_555 1_555
H19D C6D 1_555 1_555
C7D N5D 1_555 1_555
H20D C7D 1_555 1_555
H21D C7D 1_555 1_555
C8D C6 1_555 1_555
H22D C8D 1_555 1_555
H23D C8D 1_555 1_555
C9D N4D 1_555 1_555
H24D C9D 1_555 1_555
H25D C9D 1_555 1_555
C10D N6D 1_555 1_555
H26D C10D 1_555 1_555
H27D C10D 1_555 1_555
H28D C10D 1_555 1_555
O2A C12A 1_555 1_555
C12A C11 1_555 1_555
H29A C12A 1_555 1_555
H30A C12A 1_555 1_555
O3A C22A 1_555 1_555
O4A C22A 1_555 1_555
O5A C26A 1_555 1_555
C13A C18A 1_555 1_555
C14A C11 1_555 1_555
H31A C14A 1_555 1_555
H32A C14A 1_555 1_555
C15A C21A 1_555 1_555
C16A H33A 1_555 1_555
C17A C16A 1_555 1_555
C18A H34A 1_555 1_555
C19A O2A 1_555 1_555
C20A C18A 1_555 1_555
H35A C20A 1_555 1_555
C21A C16A 1_555 1_555
H36A C21A 1_555 1_555
C22A C13A 1_555 1_555
O6A C26A 1_555 1_555
C23A C15A 1_555 1_555
H37A C23A 1_555 1_555
C24A C17A 1_555 1_555
H38A C24A 1_555 1_555
C25A C13A 1_555 1_555
H39A C25A 1_555 1_555
C26A C17A 1_555 1_555
C27A C19A 1_555 1_555
H40A C27A 1_555 1_555
O7A C14A 1_555 1_555
Ni1A O5A 1_555 1_555
Ni2A O3A 1_555 1_555
O3D Ni2 1_555 1_555
O5F Ni1 1_555 1_555
N3 C2 1_555 1_555
N6 C9 1_555 1_555
C13 C22 1_555 1_555
C15 O7 1_555 1_555
C17 C26 1_555 1_555
C19 C20 1_555 1_555
C23 C24 1_555 1_555
C25 C27 1_555 1_555
N1F C3F 1_555 1_555
N2F C4F 1_555 1_555
N3F C2F 1_555 1_555
N4D C8D 1_555 1_555
N5D C6D 1_555 1_555
N6D C9D 1_555 1_555
C15A O7A 1_555 1_555
C19A C20A 1_555 1_555
C23A C24A 1_555 1_555
C25A C27A 1_555 1_555

#END
