
#######################################################################
#
#                 Cambridge Crystallographic Data Centre
#                                CCDC 
#
#######################################################################
#
# If this CIF has been generated from an entry in the Cambridge 
# Structural Database, then it will include bibliographic, chemical, 
# crystal, experimental, refinement or atomic coordinate data resulting 
# from the CCDC's data processing and validation procedures.
#
#######################################################################

data_RUXBAP
_chemical_formula_moiety         '(C57 H76 N12 Ni2 O12)n'
_symmetry_cell_setting           orthorhombic
_symmetry_space_group_name_H-M   'P n n a'
_symmetry_Int_Tables_number      52
_space_group_name_Hall           '-P 2a 2bc'
loop_
_symmetry_equiv_pos_site_id
_symmetry_equiv_pos_as_xyz
1 x,y,z
2 1/2-x,-y,z
3 x,1/2-y,1/2-z
4 1/2-x,1/2+y,1/2-z
5 -x,-y,-z
6 1/2+x,y,-z
7 -x,1/2+y,1/2+z
8 1/2+x,1/2-y,1/2+z
_cell_length_a                   11.579(2)
_cell_length_b                   25.062(5)
_cell_length_c                   31.421(6)
_cell_angle_alpha                90
_cell_angle_beta                 90
_cell_angle_gamma                90
_cell_volume                     9118.15
loop_
_atom_site_label
_atom_site_type_symbol
_atom_site_fract_x
_atom_site_fract_y
_atom_site_fract_z
_atom_site_U_iso_or_equiv
_atom_site_thermal_displace_type
Ni1 Ni 1.12001(4) 0.77665(2) 0.88883(2) 0.0514 Uani
O1 O 1.1468(3) 0.91111(11) 0.84932(9) 0.0791 Uani
O2 O 1.0498(2) 0.83375(10) 0.84627(8) 0.0633 Uani
O3 O 0.6439(3) 1.18691(12) 0.40782(8) 0.0720 Uani
O4 O 0.8099(2) 1.22057(9) 0.43348(7) 0.0562 Uani
O5 O 0.6791(2) 1.05824(9) 0.58052(7) 0.0492 Uani
O6 O 0.8291(3) 0.94112(9) 0.68540(7) 0.0606 Uani
N1 N 1.0837(4) 0.84475(16) 0.97526(11) 0.0870 Uani
N2 N 0.9835(3) 0.78731(13) 0.93174(11) 0.0687 Uani
N3 N 1.0155(4) 0.71931(12) 0.85941(12) 0.0745 Uani
N4 N 1.2567(3) 0.76155(13) 0.84998(9) 0.0629 Uani
H1 H 1.2976 0.7314 0.8629 0.0760 Uiso
N5 N 1.1378(6) 0.70717(18) 0.80167(12) 0.1003 Uani
N6 N 1.2188(3) 0.83631(12) 0.91428(9) 0.0614 Uani
H2 H 1.1951 0.8692 0.8999 0.0740 Uiso
C1 C 0.7500 1.0000 0.63442(12) 0.0375 Uani
C2 C 0.8546(3) 0.98875(12) 0.66205(9) 0.0478 Uani
H3 H 0.9227 0.9837 0.6445 0.0570 Uiso
H4 H 0.8686 1.0182 0.6814 0.0570 Uiso
C3 C 0.7789(3) 1.04764(12) 0.60650(9) 0.0411 Uani
H5 H 0.7970 1.0785 0.6240 0.0490 Uiso
H6 H 0.8453 1.0397 0.5887 0.0490 Uiso
C4 C 0.8943(3) 0.92877(12) 0.72029(10) 0.0479 Uani
C5 C 0.8540(3) 0.88566(14) 0.74381(11) 0.0549 Uani
H7 H 0.7882 0.8673 0.7352 0.0660 Uiso
C6 C 0.9121(3) 0.87036(14) 0.78001(12) 0.0583 Uani
H8 H 0.8844 0.8419 0.7960 0.0700 Uiso
C7 C 1.0125(3) 0.89697(13) 0.79313(10) 0.0506 Uani
C8 C 1.0495(4) 0.93978(14) 0.76884(11) 0.0572 Uani
H9 H 1.1149 0.9584 0.7774 0.0690 Uiso
C9 C 0.9933(3) 0.95565(14) 0.73260(11) 0.0580 Uani
H10 H 1.0212 0.9840 0.7165 0.0700 Uiso
C10 C 0.6936(3) 1.09241(13) 0.54672(9) 0.0434 Uani
C11 C 0.7900(3) 1.12427(13) 0.54137(10) 0.0459 Uani
H11 H 0.8492 1.1242 0.5614 0.0550 Uiso
C12 C 0.7965(3) 1.15624(12) 0.50562(10) 0.0469 Uani
H12 H 0.8610 1.1778 0.5019 0.0560 Uiso
C13 C 0.7102(3) 1.15714(13) 0.47529(9) 0.0439 Uani
C14 C 0.6139(3) 1.12627(16) 0.48204(11) 0.0564 Uani
H13 H 0.5537 1.1271 0.4625 0.0680 Uiso
C15 C 0.6056(3) 1.09401(15) 0.51739(11) 0.0556 Uani
H14 H 0.5400 1.0732 0.5215 0.0670 Uiso
C16 C 0.7217(3) 1.19102(14) 0.43609(10) 0.0531 Uani
C17 C 1.0741(4) 0.88001(15) 0.83260(12) 0.0623 Uani
C18 C 0.9201(5) 0.83868(19) 0.92825(16) 0.0840 Uani
H15 H 0.8463 0.8369 0.9427 0.1010 Uiso
H16 H 0.9074 0.8483 0.8987 0.1010 Uiso
C19 C 1.0008(5) 0.8783(2) 0.94999(15) 0.0910 Uani
H17 H 1.0417 0.8996 0.9291 0.1090 Uiso
H18 H 0.9577 0.9020 0.9685 0.1090 Uiso
C20 C 1.0320(5) 0.79245(18) 0.97483(12) 0.0787 Uani
H19 H 0.9718 0.7897 0.9962 0.0950 Uiso
H20 H 1.0894 0.7651 0.9801 0.0950 Uiso
C21 C 1.2055(5) 0.84647(19) 0.96024(13) 0.0843 Uani
H21 H 1.2499 0.8201 0.9758 0.1010 Uiso
H22 H 1.2376 0.8813 0.9667 0.1010 Uiso
C22 C 1.3385(4) 0.82567(19) 0.90038(15) 0.0757 Uani
H23 H 1.3723 0.7978 0.9178 0.0910 Uiso
H24 H 1.3850 0.8576 0.9035 0.0910 Uiso
C23 C 1.3360(4) 0.80840(18) 0.85408(14) 0.0757 Uani
H25 H 1.3089 0.8375 0.8364 0.0910 Uiso
H26 H 1.4131 0.7987 0.8448 0.0910 Uiso
C24 C 1.2311(5) 0.7453(2) 0.80593(12) 0.0843 Uani
H27 H 1.2118 0.7769 0.7896 0.1010 Uiso
H28 H 1.3003 0.7300 0.7936 0.1010 Uiso
C25 C 1.0242(6) 0.7267(2) 0.81222(15) 0.0940 Uani
H29 H 0.9650 0.7064 0.7976 0.1130 Uiso
H30 H 1.0165 0.7641 0.8046 0.1130 Uiso
C26 C 1.0584(6) 0.66270(17) 0.86263(18) 0.0967 Uani
H31 H 0.9964 0.6376 0.8573 0.1160 Uiso
H32 H 1.0906 0.6558 0.8906 0.1160 Uiso
C27 C 1.1503(6) 0.6586(2) 0.82879(17) 0.1037 Uani
H33 H 1.2264 0.6574 0.8416 0.1240 Uiso
H34 H 1.1393 0.6265 0.8119 0.1240 Uiso
C28 C 0.8991(5) 0.7286(2) 0.8778(2) 0.0960 Uani
H35 H 0.8509 0.6974 0.8733 0.1150 Uiso
H36 H 0.8628 0.7587 0.8638 0.1150 Uiso
C29 C 0.9100(4) 0.7395(2) 0.92458(18) 0.0907 Uani
H37 H 0.8340 0.7454 0.9367 0.1090 Uiso
H38 H 0.9441 0.7088 0.9386 0.1090 Uiso
O1A O 0.3532(3) 1.08889(11) 0.84932(9) 0.0791 Uani
O2A O 0.4502(2) 1.16625(10) 0.84627(8) 0.0633 Uani
O3A O 0.8561(3) 0.81309(12) 0.40782(8) 0.0720 Uani
O4A O 0.6901(2) 0.77943(9) 0.43348(7) 0.0562 Uani
O5A O 0.8209(2) 0.94176(9) 0.58052(7) 0.0492 Uani
O6A O 0.6709(3) 1.05888(9) 0.68540(7) 0.0606 Uani
C2A C 0.6454(3) 1.01125(12) 0.66205(9) 0.0478 Uani
H3A H 0.5773 1.0163 0.6445 0.0570 Uiso
H4A H 0.6314 0.9818 0.6814 0.0570 Uiso
C3A C 0.7211(3) 0.95236(12) 0.60650(9) 0.0411 Uani
H5A H 0.7030 0.9215 0.6240 0.0490 Uiso
H6A H 0.6547 0.9603 0.5887 0.0490 Uiso
C4A C 0.6057(3) 1.07123(12) 0.72029(10) 0.0479 Uani
C5A C 0.6460(3) 1.11434(14) 0.74381(11) 0.0549 Uani
H7A H 0.7118 1.1327 0.7352 0.0660 Uiso
C6A C 0.5879(3) 1.12964(14) 0.78001(12) 0.0583 Uani
H8A H 0.6156 1.1581 0.7960 0.0700 Uiso
C7A C 0.4875(3) 1.10303(13) 0.79313(10) 0.0506 Uani
C8A C 0.4505(4) 1.06022(14) 0.76884(11) 0.0572 Uani
H9A H 0.3851 1.0416 0.7774 0.0690 Uiso
C9A C 0.5067(3) 1.04435(14) 0.73260(11) 0.0580 Uani
H10A H 0.4788 1.0160 0.7165 0.0700 Uiso
C10A C 0.8064(3) 0.90759(13) 0.54672(9) 0.0434 Uani
C11A C 0.7100(3) 0.87573(13) 0.54137(10) 0.0459 Uani
H11A H 0.6508 0.8758 0.5614 0.0550 Uiso
C12A C 0.7035(3) 0.84376(12) 0.50562(10) 0.0469 Uani
H12A H 0.6390 0.8222 0.5019 0.0560 Uiso
C13A C 0.7898(3) 0.84286(13) 0.47529(9) 0.0439 Uani
C14A C 0.8861(3) 0.87373(16) 0.48204(11) 0.0564 Uani
H13A H 0.9463 0.8729 0.4625 0.0680 Uiso
C15A C 0.8944(3) 0.90599(15) 0.51739(11) 0.0556 Uani
H14A H 0.9600 0.9268 0.5215 0.0670 Uiso
C16A C 0.7783(3) 0.80898(14) 0.43609(10) 0.0531 Uani
C17A C 0.4259(4) 1.11999(15) 0.83260(12) 0.0623 Uani
Ni1A Ni 0.37999(4) 1.22335(2) 0.88883(2) 0.0514 Uani
N1A N 0.4163(4) 1.15525(16) 0.97526(11) 0.0870 Uani
N2A N 0.5165(3) 1.21269(13) 0.93174(11) 0.0687 Uani
N3A N 0.4845(4) 1.28069(12) 0.85941(12) 0.0745 Uani
N4A N 0.2433(3) 1.23845(13) 0.84998(9) 0.0629 Uani
H1A H 0.2024 1.2686 0.8629 0.0760 Uiso
N5A N 0.3622(6) 1.29283(18) 0.80167(12) 0.1003 Uani
N6A N 0.2812(3) 1.16369(12) 0.91428(9) 0.0614 Uani
H2A H 0.3049 1.1308 0.8999 0.0740 Uiso
C18A C 0.5799(5) 1.16132(19) 0.92825(16) 0.0840 Uani
H15A H 0.6537 1.1631 0.9427 0.1010 Uiso
H16A H 0.5926 1.1517 0.8987 0.1010 Uiso
C19A C 0.4992(5) 1.1217(2) 0.94999(15) 0.0910 Uani
H17A H 0.4583 1.1004 0.9291 0.1090 Uiso
H18A H 0.5423 1.0980 0.9685 0.1090 Uiso
C20A C 0.4680(5) 1.20755(18) 0.97483(12) 0.0787 Uani
H19A H 0.5282 1.2103 0.9962 0.0950 Uiso
H20A H 0.4106 1.2349 0.9801 0.0950 Uiso
C21A C 0.2945(5) 1.15353(19) 0.96024(13) 0.0843 Uani
H21A H 0.2501 1.1799 0.9758 0.1010 Uiso
H22A H 0.2624 1.1187 0.9667 0.1010 Uiso
C22A C 0.1615(4) 1.17433(19) 0.90038(15) 0.0757 Uani
H23A H 0.1277 1.2022 0.9178 0.0910 Uiso
H24A H 0.1150 1.1424 0.9035 0.0910 Uiso
C23A C 0.1640(4) 1.19160(18) 0.85408(14) 0.0757 Uani
H25A H 0.1911 1.1625 0.8364 0.0910 Uiso
H26A H 0.0869 1.2013 0.8448 0.0910 Uiso
C24A C 0.2689(5) 1.2547(2) 0.80593(12) 0.0843 Uani
H27A H 0.2882 1.2231 0.7896 0.1010 Uiso
H28A H 0.1997 1.2700 0.7936 0.1010 Uiso
C25A C 0.4758(6) 1.2733(2) 0.81222(15) 0.0940 Uani
H29A H 0.5350 1.2936 0.7976 0.1130 Uiso
H30A H 0.4835 1.2359 0.8046 0.1130 Uiso
C26A C 0.4416(6) 1.33730(17) 0.86263(18) 0.0967 Uani
H31A H 0.5036 1.3624 0.8573 0.1160 Uiso
H32A H 0.4094 1.3442 0.8906 0.1160 Uiso
C27A C 0.3497(6) 1.3414(2) 0.82879(17) 0.1037 Uani
H33A H 0.2736 1.3426 0.8416 0.1240 Uiso
H34A H 0.3607 1.3735 0.8119 0.1240 Uiso
C28A C 0.6009(5) 1.2714(2) 0.8778(2) 0.0960 Uani
H35A H 0.6491 1.3026 0.8733 0.1150 Uiso
H36A H 0.6372 1.2413 0.8638 0.1150 Uiso
C29A C 0.5900(4) 1.2605(2) 0.92458(18) 0.0907 Uani
H37A H 0.6660 1.2546 0.9367 0.1090 Uiso
H38A H 0.5559 1.2912 0.9386 0.1090 Uiso
Ni1F Ni 0.87999(4) 1.27665(2) 0.38883(2) 0.0514 Uani
Ni1G Ni 0.62001(4) 0.72335(2) 0.38883(2) 0.0514 Uani
O4F O 1.1901(2) 0.72057(9) 0.93348(7) 0.0562 Uani
O4G O 0.3099(2) 1.27943(9) 0.93348(7) 0.0562 Uani
loop_
_atom_site_aniso_label
_atom_site_aniso_U_11
_atom_site_aniso_U_22
_atom_site_aniso_U_33
_atom_site_aniso_U_23
_atom_site_aniso_U_13
_atom_site_aniso_U_12
Ni1 0.0742(3) 0.0441(3) 0.0360(2) 0.01387(17) -0.0075(2) 0.0031(2)
O1 0.112(2) 0.0558(16) 0.0695(18) 0.0210(14) -0.0410(17) -0.0146(16)
O2 0.0810(18) 0.0534(15) 0.0556(15) 0.0234(12) -0.0216(13) -0.0008(13)
O3 0.088(2) 0.0788(19) 0.0492(15) 0.0302(14) -0.0197(14) -0.0252(16)
O4 0.0756(17) 0.0524(14) 0.0407(12) 0.0173(10) -0.0012(12) -0.0151(13)
O5 0.0550(13) 0.0545(13) 0.0382(11) 0.0183(10) -0.0018(10) -0.0042(11)
O6 0.102(2) 0.0405(12) 0.0393(12) 0.0126(10) -0.0225(13) -0.0132(13)
N1 0.132(3) 0.076(2) 0.053(2) -0.0004(18) -0.008(2) 0.038(2)
N2 0.077(2) 0.064(2) 0.065(2) 0.0261(17) 0.0027(17) 0.0147(17)
N3 0.103(3) 0.0484(18) 0.072(2) 0.0168(16) -0.025(2) -0.0071(18)
N4 0.089(2) 0.0642(19) 0.0355(14) 0.0190(14) 0.0024(15) 0.0088(18)
N5 0.177(5) 0.077(3) 0.047(2) -0.0070(19) -0.026(3) 0.021(3)
N6 0.086(2) 0.0509(17) 0.0473(16) 0.0118(14) -0.0189(16) 0.0025(16)
C1 0.060(3) 0.0279(19) 0.0247(18) 0.000 0.000 0.0009(18)
C2 0.081(2) 0.0337(16) 0.0286(14) 0.0031(12) -0.0056(15) -0.0040(16)
C3 0.0597(19) 0.0370(16) 0.0266(13) 0.0053(12) -0.0015(13) 0.0012(14)
C4 0.074(2) 0.0365(16) 0.0333(15) 0.0058(13) -0.0040(15) 0.0051(16)
C5 0.069(2) 0.0469(19) 0.0489(19) 0.0125(16) -0.0089(17) -0.0023(17)
C6 0.075(2) 0.049(2) 0.051(2) 0.0250(17) -0.0021(18) 0.0005(18)
C7 0.067(2) 0.0454(18) 0.0394(17) 0.0125(14) -0.0048(16) 0.0030(16)
C8 0.075(2) 0.0465(19) 0.0501(19) 0.0115(16) -0.0162(18) -0.0055(17)
C9 0.083(3) 0.0443(18) 0.0468(19) 0.0153(15) -0.0111(18) -0.0079(18)
C10 0.0556(19) 0.0446(17) 0.0301(14) 0.0129(13) 0.0042(13) 0.0011(15)
C11 0.0565(19) 0.0461(17) 0.0351(15) 0.0084(13) -0.0068(14) -0.0060(15)
C12 0.060(2) 0.0425(16) 0.0383(16) 0.0120(14) -0.0022(15) -0.0110(15)
C13 0.0565(19) 0.0438(17) 0.0315(15) 0.0099(13) -0.0010(14) 0.0005(15)
C14 0.054(2) 0.070(2) 0.0452(19) 0.0240(18) -0.0090(15) -0.0083(18)
C15 0.053(2) 0.064(2) 0.0497(19) 0.0262(17) -0.0022(15) -0.0095(17)
C16 0.070(2) 0.0483(19) 0.0410(18) 0.0146(15) 0.0010(17) -0.0067(18)
C17 0.082(3) 0.052(2) 0.053(2) 0.0211(17) -0.012(2) 0.004(2)
C18 0.097(3) 0.078(3) 0.077(3) 0.025(3) 0.011(3) 0.038(3)
C19 0.133(5) 0.074(3) 0.066(3) -0.001(2) -0.006(3) 0.043(3)
C20 0.113(4) 0.078(3) 0.045(2) 0.018(2) 0.014(2) 0.037(3)
C21 0.133(4) 0.070(3) 0.050(2) -0.005(2) -0.026(2) 0.021(3)
C22 0.076(3) 0.071(3) 0.080(3) 0.021(2) -0.021(2) -0.003(2)
C23 0.082(3) 0.080(3) 0.065(3) 0.041(2) 0.003(2) 0.005(2)
C24 0.126(4) 0.091(3) 0.0360(19) 0.011(2) 0.000(2) 0.025(3)
C25 0.149(5) 0.067(3) 0.066(3) 0.002(2) -0.045(3) -0.005(3)
C26 0.156(5) 0.042(2) 0.092(4) 0.009(2) -0.039(4) -0.007(3)
C27 0.168(6) 0.060(3) 0.083(4) -0.012(3) -0.029(4) 0.007(3)
C28 0.092(4) 0.076(3) 0.120(5) 0.034(3) -0.029(3) -0.021(3)
C29 0.079(3) 0.085(3) 0.108(4) 0.049(3) 0.003(3) 0.000(3)
O1A 0.112 0.0558 0.0695 -0.021 0.041 -0.0146
O2A 0.081 0.0534 0.0556 -0.0234 0.0216 -0.0008
O3A 0.088 0.0788 0.0492 -0.0302 0.0197 -0.0252
O4A 0.0756 0.0524 0.0407 -0.0173 0.0012 -0.0151
O5A 0.055 0.0545 0.0382 -0.0183 0.0018 -0.0042
O6A 0.102 0.0405 0.0393 -0.0126 0.0225 -0.0132
C2A 0.081 0.0337 0.0286 -0.0031 0.0056 -0.004
C3A 0.0597 0.037 0.0266 -0.0053 0.0015 0.0012
C4A 0.074 0.0365 0.0333 -0.0058 0.004 0.0051
C5A 0.069 0.0469 0.0489 -0.0125 0.0089 -0.0023
C6A 0.075 0.049 0.051 -0.025 0.0021 0.0005
C7A 0.067 0.0454 0.0394 -0.0125 0.0048 0.003
C8A 0.075 0.0465 0.0501 -0.0115 0.0162 -0.0055
C9A 0.083 0.0443 0.0468 -0.0153 0.0111 -0.0079
C10A 0.0556 0.0446 0.0301 -0.0129 -0.0042 0.0011
C11A 0.0565 0.0461 0.0351 -0.0084 0.0068 -0.006
C12A 0.06 0.0425 0.0383 -0.012 0.0022 -0.011
C13A 0.0565 0.0438 0.0315 -0.0099 0.001 0.0005
C14A 0.054 0.07 0.0452 -0.024 0.009 -0.0083
C15A 0.053 0.064 0.0497 -0.0262 0.0022 -0.0095
C16A 0.07 0.0483 0.041 -0.0146 -0.001 -0.0067
C17A 0.082 0.052 0.053 -0.0211 0.012 0.004
Ni1A 0.0742 0.0441 0.036 -0.01387 0.0075 0.0031
N1A 0.132 0.076 0.053 0.0004 0.008 0.038
N2A 0.077 0.064 0.065 -0.0261 -0.0027 0.0147
N3A 0.103 0.0484 0.072 -0.0168 0.025 -0.0071
N4A 0.089 0.0642 0.0355 -0.019 -0.0024 0.0088
N5A 0.177 0.077 0.047 0.007 0.026 0.021
N6A 0.086 0.0509 0.0473 -0.0118 0.0189 0.0025
C18A 0.097 0.078 0.077 -0.025 -0.011 0.038
C19A 0.133 0.074 0.066 0.001 0.006 0.043
C20A 0.113 0.078 0.045 -0.018 -0.014 0.037
C21A 0.133 0.07 0.05 0.005 0.026 0.021
C22A 0.076 0.071 0.08 -0.021 0.021 -0.003
C23A 0.082 0.08 0.065 -0.041 -0.003 0.005
C24A 0.126 0.091 0.036 -0.011 0 0.025
C25A 0.149 0.067 0.066 -0.002 0.045 -0.005
C26A 0.156 0.042 0.092 -0.009 0.039 -0.007
C27A 0.168 0.06 0.083 0.012 0.029 0.007
C28A 0.092 0.076 0.12 -0.034 0.029 -0.021
C29A 0.079 0.085 0.108 -0.049 -0.003 0
Ni1F 0.0742 0.0441 0.036 0.01387 0.0075 -0.0031
Ni1G 0.0742 0.0441 0.036 -0.01387 -0.0075 -0.0031
O4F 0.0756 0.0524 0.0407 0.0173 0.0012 0.0151
O4G 0.0756 0.0524 0.0407 -0.0173 -0.0012 0.0151
loop_
_geom_bond_atom_site_label_1
_geom_bond_atom_site_label_2
_geom_bond_site_symmetry_1
_geom_bond_site_symmetry_2
Ni1 O2 1_555 1_555
O1 C17 1_555 1_555
O2 C17 1_555 1_555
O3 C16 1_555 1_555
O4 C16 1_555 1_555
O5 C3 1_555 1_555
O6 C2 1_555 1_555
N1 C19 1_555 1_555
N2 Ni1 1_555 1_555
N3 Ni1 1_555 1_555
N4 Ni1 1_555 1_555
H1 N4 1_555 1_555
N5 C24 1_555 1_555
N6 Ni1 1_555 1_555
H2 N6 1_555 1_555
C1 C2 1_555 1_555
C2 H3 1_555 1_555
H4 C2 1_555 1_555
C3 C1 1_555 1_555
H5 C3 1_555 1_555
H6 C3 1_555 1_555
C4 O6 1_555 1_555
C5 C4 1_555 1_555
H7 C5 1_555 1_555
C6 C5 1_555 1_555
H8 C6 1_555 1_555
C7 C6 1_555 1_555
C8 C7 1_555 1_555
H9 C8 1_555 1_555
C9 C4 1_555 1_555
H10 C9 1_555 1_555
C10 O5 1_555 1_555
C11 C10 1_555 1_555
H11 C11 1_555 1_555
C12 C11 1_555 1_555
H12 C12 1_555 1_555
C13 C12 1_555 1_555
C14 C13 1_555 1_555
H13 C14 1_555 1_555
C15 C10 1_555 1_555
H14 C15 1_555 1_555
C16 C13 1_555 1_555
C17 C7 1_555 1_555
C18 N2 1_555 1_555
H15 C18 1_555 1_555
H16 C18 1_555 1_555
C19 C18 1_555 1_555
H17 C19 1_555 1_555
H18 C19 1_555 1_555
C20 N1 1_555 1_555
H19 C20 1_555 1_555
H20 C20 1_555 1_555
C21 N1 1_555 1_555
H21 C21 1_555 1_555
H22 C21 1_555 1_555
C22 N6 1_555 1_555
H23 C22 1_555 1_555
H24 C22 1_555 1_555
C23 N4 1_555 1_555
H25 C23 1_555 1_555
H26 C23 1_555 1_555
C24 N4 1_555 1_555
H27 C24 1_555 1_555
H28 C24 1_555 1_555
C25 N3 1_555 1_555
H29 C25 1_555 1_555
H30 C25 1_555 1_555
C26 N3 1_555 1_555
H31 C26 1_555 1_555
H32 C26 1_555 1_555
C27 N5 1_555 1_555
H33 C27 1_555 1_555
H34 C27 1_555 1_555
C28 N3 1_555 1_555
H35 C28 1_555 1_555
H36 C28 1_555 1_555
C29 N2 1_555 1_555
H37 C29 1_555 1_555
H38 C29 1_555 1_555
O1A C17A 1_555 1_555
O2A C17A 1_555 1_555
O3A C16A 1_555 1_555
O4A C16A 1_555 1_555
O5A C3A 1_555 1_555
O6A C2A 1_555 1_555
C2A C1 1_555 1_555
H3A C2A 1_555 1_555
H4A C2A 1_555 1_555
C3A C1 1_555 1_555
H5A C3A 1_555 1_555
H6A C3A 1_555 1_555
C4A O6A 1_555 1_555
C5A C4A 1_555 1_555
H7A C5A 1_555 1_555
C6A C5A 1_555 1_555
H8A C6A 1_555 1_555
C7A C6A 1_555 1_555
C8A C7A 1_555 1_555
H9A C8A 1_555 1_555
C9A C4A 1_555 1_555
H10A C9A 1_555 1_555
C10A O5A 1_555 1_555
C11A C10A 1_555 1_555
H11A C11A 1_555 1_555
C12A C11A 1_555 1_555
H12A C12A 1_555 1_555
C13A C12A 1_555 1_555
C14A C13A 1_555 1_555
H13A C14A 1_555 1_555
C15A C10A 1_555 1_555
H14A C15A 1_555 1_555
C16A C13A 1_555 1_555
C17A C7A 1_555 1_555
Ni1A O2A 1_555 1_555
N1A C19A 1_555 1_555
N2A Ni1A 1_555 1_555
N3A Ni1A 1_555 1_555
N4A Ni1A 1_555 1_555
H1A N4A 1_555 1_555
N5A C24A 1_555 1_555
N6A Ni1A 1_555 1_555
H2A N6A 1_555 1_555
C18A N2A 1_555 1_555
H15A C18A 1_555 1_555
H16A C18A 1_555 1_555
C19A C18A 1_555 1_555
H17A C19A 1_555 1_555
H18A C19A 1_555 1_555
C20A N1A 1_555 1_555
H19A C20A 1_555 1_555
H20A C20A 1_555 1_555
C21A N1A 1_555 1_555
H21A C21A 1_555 1_555
H22A C21A 1_555 1_555
C22A N6A 1_555 1_555
H23A C22A 1_555 1_555
H24A C22A 1_555 1_555
C23A N4A 1_555 1_555
H25A C23A 1_555 1_555
H26A C23A 1_555 1_555
C24A N4A 1_555 1_555
H27A C24A 1_555 1_555
H28A C24A 1_555 1_555
C25A N3A 1_555 1_555
H29A C25A 1_555 1_555
H30A C25A 1_555 1_555
C26A N3A 1_555 1_555
H31A C26A 1_555 1_555
H32A C26A 1_555 1_555
C27A N5A 1_555 1_555
H33A C27A 1_555 1_555
H34A C27A 1_555 1_555
C28A N3A 1_555 1_555
H35A C28A 1_555 1_555
H36A C28A 1_555 1_555
C29A N2A 1_555 1_555
H37A C29A 1_555 1_555
H38A C29A 1_555 1_555
Ni1F O4 1_555 1_555
Ni1G O4A 1_555 1_555
O4F Ni1 1_555 1_555
O4G Ni1A 1_555 1_555
N2 C20 1_555 1_555
N5 C25 1_555 1_555
N6 C21 1_555 1_555
C8 C9 1_555 1_555
C14 C15 1_555 1_555
C22 C23 1_555 1_555
C26 C27 1_555 1_555
C28 C29 1_555 1_555
C8A C9A 1_555 1_555
C14A C15A 1_555 1_555
N2A C20A 1_555 1_555
N5A C25A 1_555 1_555
N6A C21A 1_555 1_555
C22A C23A 1_555 1_555
C26A C27A 1_555 1_555
C28A C29A 1_555 1_555

#END
