
#######################################################################
#
#                 Cambridge Crystallographic Data Centre
#                                CCDC 
#
#######################################################################
#
# If this CIF has been generated from an entry in the Cambridge 
# Structural Database, then it will include bibliographic, chemical, 
# crystal, experimental, refinement or atomic coordinate data resulting 
# from the CCDC's data processing and validation procedures.
#
#######################################################################

data_RUXBET
_chemical_formula_moiety         '(C59 H80 N12 Ni2 O12)n'
_symmetry_cell_setting           orthorhombic
_symmetry_space_group_name_H-M   'P n n a'
_symmetry_Int_Tables_number      52
_space_group_name_Hall           '-P 2a 2bc'
loop_
_symmetry_equiv_pos_site_id
_symmetry_equiv_pos_as_xyz
1 x,y,z
2 1/2-x,-y,z
3 1/2-x,1/2+y,1/2-z
4 x,1/2-y,1/2-z
5 -x,-y,-z
6 1/2+x,y,-z
7 1/2+x,1/2-y,1/2+z
8 -x,1/2+y,1/2+z
_cell_length_a                   11.7659(7)
_cell_length_b                   25.7333(15)
_cell_length_c                   31.1417(19)
_cell_angle_alpha                90
_cell_angle_beta                 90
_cell_angle_gamma                90
_cell_volume                     9428.94
loop_
_atom_site_label
_atom_site_type_symbol
_atom_site_fract_x
_atom_site_fract_y
_atom_site_fract_z
_atom_site_U_iso_or_equiv
_atom_site_thermal_displace_type
O1 O 0.4683(3) 0.32145(12) 0.15392(10) 0.0773 Uani
C1 C 0.4473(5) 0.3673(2) 0.16471(15) 0.0737 Uani
O2 O 0.3790(4) 0.39752(13) 0.14597(12) 0.1150 Uani
Ni1 Ni 0.60377(6) 0.76583(2) 0.61131(2) 0.0691 Uani
O3 O 0.8120(2) 0.55756(9) 0.41593(8) 0.0490 Uani
O4 O 0.6823(2) 0.44038(9) 0.31024(9) 0.0593 Uani
O5 O 0.6729(3) 0.70965(12) 0.56689(9) 0.0676 Uani
O6 O 0.8410(3) 0.68237(13) 0.59057(11) 0.0847 Uani
C2 C 0.7500 0.5000 0.36195(15) 0.0347 Uani
C3 C 0.7946(3) 0.58956(14) 0.45046(12) 0.0407 Uani
C4 C 0.7744(4) 0.65186(14) 0.52330(12) 0.0483 Uani
C5 C 0.7169(3) 0.54600(13) 0.38948(11) 0.0407 Uani
H1 H 0.6981 0.5756 0.3716 0.0490 Uiso
H2 H 0.6513 0.5375 0.4070 0.0490 Uiso
C6 C 0.6856(4) 0.64817(15) 0.49386(13) 0.0523 Uani
H3 H 0.6192 0.6670 0.4986 0.0630 Uiso
C7 C 0.6198(4) 0.42547(14) 0.27530(13) 0.0490 Uani
C8 C 0.6606(4) 0.38178(15) 0.25402(14) 0.0593 Uani
H4 H 0.7259 0.3652 0.2637 0.0710 Uiso
C9 C 0.6942(3) 0.61666(14) 0.45736(12) 0.0483 Uani
H5 H 0.6340 0.6139 0.4381 0.0580 Uiso
C10 C 0.6500(3) 0.48567(13) 0.33374(11) 0.0447 Uani
H6 H 0.5835 0.4786 0.3512 0.0530 Uiso
H7 H 0.6323 0.5139 0.3142 0.0530 Uiso
C11 C 0.8831(4) 0.59247(16) 0.47936(14) 0.0570 Uani
H8 H 0.9498 0.5740 0.4744 0.0690 Uiso
C12 C 0.8724(4) 0.62295(16) 0.51568(13) 0.0567 Uani
H9 H 0.9318 0.6242 0.5354 0.0680 Uiso
C13 C 0.7617(5) 0.68425(16) 0.56352(14) 0.0597 Uani
C14 C 0.6040(4) 0.36319(17) 0.21857(14) 0.0623 Uani
H10 H 0.6306 0.3336 0.2046 0.0740 Uiso
C15 C 0.4690(4) 0.43147(15) 0.22443(14) 0.0660 Uani
H11 H 0.4055 0.4489 0.2141 0.0790 Uiso
C16 C 0.5241(4) 0.44928(15) 0.26089(13) 0.0597 Uani
H12 H 0.4952 0.4778 0.2756 0.0720 Uiso
C17 C 0.5084(4) 0.38794(16) 0.20355(13) 0.0607 Uani
N1 N 0.7437(4) 0.75689(15) 0.64717(11) 0.0763 Uani
H13 H 0.7844 0.7276 0.6343 0.0910 Uiso
N2 N 0.6904(6) 0.82260(16) 0.58190(14) 0.0983 Uani
H14 H 0.6653 0.8544 0.5964 0.1180 Uiso
N3 N 0.5172(5) 0.70949(17) 0.6466(2) 0.1103 Uani
N4 N 0.4649(5) 0.7703(3) 0.57141(19) 0.1390 Uani
C18 C 0.5306(7) 0.7181(2) 0.6935(2) 0.1207 Uani
H15 H 0.5163 0.7541 0.7009 0.1450 Uiso
H16 H 0.4793 0.6961 0.7097 0.1450 Uiso
C19 C 0.7309(6) 0.7430(3) 0.69331(17) 0.1133 Uani
H17 H 0.8035 0.7307 0.7040 0.1360 Uiso
H18 H 0.7114 0.7742 0.7093 0.1360 Uiso
C20 C 0.8176(5) 0.8038(2) 0.6386(2) 0.1057 Uani
H19 H 0.7929 0.8326 0.6563 0.1270 Uiso
H20 H 0.8959 0.7959 0.6458 0.1270 Uiso
C21 C 0.5698(7) 0.6555(2) 0.6442(3) 0.1317 Uani
H21 H 0.5144 0.6291 0.6515 0.1580 Uiso
H22 H 0.5988 0.6486 0.6156 0.1580 Uiso
C22 C 0.6684(8) 0.8330(3) 0.5347(2) 0.1490 Uani
H23 H 0.6899 0.8686 0.5282 0.1790 Uiso
H24 H 0.7160 0.8102 0.5176 0.1790 Uiso
C23 C 0.6635(8) 0.6566(2) 0.6759(3) 0.1527 Uani
H25 H 0.7366 0.6573 0.6615 0.1830 Uiso
H26 H 0.6604 0.6261 0.6943 0.1830 Uiso
C24 C 0.4007(7) 0.7230(4) 0.5810(4) 0.1953 Uani
H27 H 0.4328 0.6939 0.5654 0.2340 Uiso
H28 H 0.3223 0.7272 0.5721 0.2340 Uiso
C25 C 0.4995(8) 0.7746(3) 0.5268(2) 0.1623 Uani
H29 H 0.4341 0.7721 0.5080 0.1950 Uiso
H30 H 0.5527 0.7473 0.5195 0.1950 Uiso
C26 C 0.4066(8) 0.7117(3) 0.6337(3) 0.1697 Uani
H31 H 0.3675 0.7392 0.6490 0.2040 Uiso
H32 H 0.3690 0.6791 0.6402 0.2040 Uiso
C27 C 0.8095(8) 0.8178(2) 0.5935(3) 0.1150 Uani
H33 H 0.8398 0.7884 0.5771 0.1380 Uiso
C28 C 0.8752(8) 0.8650(3) 0.5797(3) 0.2040 Uani
H34 H 0.8399 0.8801 0.5549 0.3060 Uiso
H35 H 0.9518 0.8552 0.5729 0.3060 Uiso
H36 H 0.8760 0.8900 0.6026 0.3060 Uiso
N5 N 0.6469(7) 0.7044(2) 0.70149(17) 0.1193 Uani
N6 N 0.5530(8) 0.8254(3) 0.5229(2) 0.1567 Uani
C29 C 0.3932(7) 0.8190(3) 0.5736(3) 0.1580 Uani
H37 H 0.3210 0.8144 0.5590 0.1900 Uiso
H38 H 0.3796 0.8296 0.6030 0.1900 Uiso
C30 C 0.4662(7) 0.8562(3) 0.5509(2) 0.1573 Uani
H39 H 0.5064 0.8777 0.5715 0.1890 Uiso
H40 H 0.4204 0.8786 0.5328 0.1890 Uiso
O1A O 1.0317(3) 0.67855(12) 0.15392(10) 0.0773 Uani
C1A C 1.0527(5) 0.6327(2) 0.16471(15) 0.0737 Uani
O2A O 1.1210(4) 0.60248(13) 0.14597(12) 0.1150 Uani
O3A O 0.6880(2) 0.44244(9) 0.41593(8) 0.0490 Uani
O4A O 0.8177(2) 0.55962(9) 0.31024(9) 0.0593 Uani
O5A O 0.8271(3) 0.29035(12) 0.56689(9) 0.0676 Uani
O6A O 0.6590(3) 0.31763(13) 0.59057(11) 0.0847 Uani
C3A C 0.7054(3) 0.41044(14) 0.45046(12) 0.0407 Uani
C4A C 0.7256(4) 0.34814(14) 0.52330(12) 0.0483 Uani
C5A C 0.7831(3) 0.45400(13) 0.38948(11) 0.0407 Uani
H1A H 0.8019 0.4244 0.3716 0.0490 Uiso
H2A H 0.8487 0.4625 0.4070 0.0490 Uiso
C6A C 0.8144(4) 0.35183(15) 0.49386(13) 0.0523 Uani
H3A H 0.8808 0.3330 0.4986 0.0630 Uiso
C7A C 0.8802(4) 0.57453(14) 0.27530(13) 0.0490 Uani
C8A C 0.8394(4) 0.61822(15) 0.25402(14) 0.0593 Uani
H4A H 0.7741 0.6348 0.2637 0.0710 Uiso
C9A C 0.8058(3) 0.38334(14) 0.45736(12) 0.0483 Uani
H5A H 0.8660 0.3861 0.4381 0.0580 Uiso
C10A C 0.8500(3) 0.51433(13) 0.33374(11) 0.0447 Uani
H6A H 0.9165 0.5214 0.3512 0.0530 Uiso
H7A H 0.8677 0.4861 0.3142 0.0530 Uiso
C11A C 0.6169(4) 0.40753(16) 0.47936(14) 0.0570 Uani
H8A H 0.5502 0.4260 0.4744 0.0690 Uiso
C12A C 0.6276(4) 0.37705(16) 0.51568(13) 0.0567 Uani
H9A H 0.5682 0.3758 0.5354 0.0680 Uiso
C13A C 0.7383(5) 0.31575(16) 0.56352(14) 0.0597 Uani
C14A C 0.8960(4) 0.63681(17) 0.21857(14) 0.0623 Uani
H10A H 0.8694 0.6664 0.2046 0.0740 Uiso
C15A C 1.0310(4) 0.56853(15) 0.22443(14) 0.0660 Uani
H11A H 1.0945 0.5511 0.2141 0.0790 Uiso
C16A C 0.9759(4) 0.55072(15) 0.26089(13) 0.0597 Uani
H12A H 1.0048 0.5222 0.2756 0.0720 Uiso
C17A C 0.9916(4) 0.61206(16) 0.20355(13) 0.0607 Uani
Ni1A Ni 0.89623(6) 0.23417(2) 0.61131(2) 0.0691 Uani
N1A N 0.7563(4) 0.24311(15) 0.64717(11) 0.0763 Uani
H13A H 0.7156 0.2724 0.6343 0.0910 Uiso
N2A N 0.8096(6) 0.17740(16) 0.58190(14) 0.0983 Uani
H14A H 0.8347 0.1456 0.5964 0.1180 Uiso
N3A N 0.9828(5) 0.29051(17) 0.6466(2) 0.1103 Uani
N4A N 1.0351(5) 0.2297(3) 0.57141(19) 0.1390 Uani
C18A C 0.9694(7) 0.2819(2) 0.6935(2) 0.1207 Uani
H15A H 0.9837 0.2459 0.7009 0.1450 Uiso
H16A H 1.0207 0.3039 0.7097 0.1450 Uiso
C19A C 0.7691(6) 0.2570(3) 0.69331(17) 0.1133 Uani
H17A H 0.6965 0.2693 0.7040 0.1360 Uiso
H18A H 0.7886 0.2258 0.7093 0.1360 Uiso
C20A C 0.6824(5) 0.1962(2) 0.6386(2) 0.1057 Uani
H19A H 0.7071 0.1674 0.6563 0.1270 Uiso
H20A H 0.6041 0.2041 0.6458 0.1270 Uiso
C21A C 0.9302(7) 0.3445(2) 0.6442(3) 0.1317 Uani
H21A H 0.9856 0.3709 0.6515 0.1580 Uiso
H22A H 0.9012 0.3514 0.6156 0.1580 Uiso
C22A C 0.8316(8) 0.1670(3) 0.5347(2) 0.1490 Uani
H23A H 0.8101 0.1314 0.5282 0.1790 Uiso
H24A H 0.7840 0.1898 0.5176 0.1790 Uiso
C23A C 0.8365(8) 0.3434(2) 0.6759(3) 0.1527 Uani
H25A H 0.7634 0.3427 0.6615 0.1830 Uiso
H26A H 0.8396 0.3739 0.6943 0.1830 Uiso
C24A C 1.0993(7) 0.2770(4) 0.5810(4) 0.1953 Uani
H27A H 1.0672 0.3061 0.5654 0.2340 Uiso
H28A H 1.1777 0.2728 0.5721 0.2340 Uiso
C25A C 1.0005(8) 0.2254(3) 0.5268(2) 0.1623 Uani
H29A H 1.0659 0.2279 0.5080 0.1950 Uiso
H30A H 0.9473 0.2527 0.5195 0.1950 Uiso
C26A C 1.0934(8) 0.2883(3) 0.6337(3) 0.1697 Uani
H31A H 1.1325 0.2608 0.6490 0.2040 Uiso
H32A H 1.1310 0.3209 0.6402 0.2040 Uiso
C27A C 0.6905(8) 0.1822(2) 0.5935(3) 0.1150 Uani
H33A H 0.6602 0.2116 0.5771 0.1380 Uiso
C28A C 0.6248(8) 0.1350(3) 0.5797(3) 0.2040 Uani
H34A H 0.6601 0.1199 0.5549 0.3060 Uiso
H35A H 0.5482 0.1448 0.5729 0.3060 Uiso
H36A H 0.6240 0.1100 0.6026 0.3060 Uiso
N5A N 0.8531(7) 0.2956(2) 0.70149(17) 0.1193 Uani
N6A N 0.9470(8) 0.1746(3) 0.5229(2) 0.1567 Uani
C29A C 1.1068(7) 0.1810(3) 0.5736(3) 0.1580 Uani
H37A H 1.1790 0.1856 0.5590 0.1900 Uiso
H38A H 1.1204 0.1704 0.6030 0.1900 Uiso
C30A C 1.0338(7) 0.1438(3) 0.5509(2) 0.1573 Uani
H39A H 0.9936 0.1223 0.5715 0.1890 Uiso
H40A H 1.0796 0.1214 0.5328 0.1890 Uiso
O1F O 0.9683(3) 0.17855(12) 0.65392(10) 0.0773 Uani
O1G O 0.5317(3) 0.82145(12) 0.65392(10) 0.0773 Uani
Ni1F Ni 1.10377(6) 0.73417(2) 0.11131(2) 0.0691 Uani
Ni1G Ni 0.39623(6) 0.26583(2) 0.11131(2) 0.0691 Uani
loop_
_atom_site_aniso_label
_atom_site_aniso_U_11
_atom_site_aniso_U_22
_atom_site_aniso_U_33
_atom_site_aniso_U_23
_atom_site_aniso_U_13
_atom_site_aniso_U_12
O1 0.112(3) 0.057(2) 0.063(2) -0.0327(16) -0.019(2) 0.0006(18)
C1 0.097(4) 0.070(4) 0.054(3) -0.013(3) -0.020(3) -0.009(3)
O2 0.189(4) 0.064(2) 0.092(3) -0.019(2) -0.090(3) 0.010(2)
Ni1 0.0999(5) 0.0635(4) 0.0440(4) -0.0247(3) 0.0058(4) 0.0086(3)
O3 0.0539(18) 0.0533(17) 0.0398(16) -0.0218(13) 0.0011(14) 0.0014(14)
O4 0.091(2) 0.0405(16) 0.0463(18) -0.0215(14) -0.0209(16) 0.0095(15)
O5 0.082(2) 0.076(2) 0.0447(19) -0.0296(16) -0.0022(17) 0.0218(19)
O6 0.101(3) 0.100(3) 0.053(2) -0.0359(19) -0.028(2) 0.024(2)
C2 0.052(4) 0.027(3) 0.025(3) 0.000 0.000 0.010(2)
C3 0.050(3) 0.039(2) 0.033(2) -0.0097(18) 0.009(2) -0.0033(19)
C4 0.065(3) 0.047(2) 0.033(2) -0.0085(18) -0.003(2) -0.005(2)
C5 0.056(3) 0.037(2) 0.029(2) -0.0034(17) -0.007(2) -0.0005(18)
C6 0.060(3) 0.055(3) 0.042(3) -0.015(2) -0.004(2) 0.013(2)
C7 0.074(3) 0.035(2) 0.038(2) -0.0066(19) -0.011(2) -0.001(2)
C8 0.068(3) 0.050(3) 0.060(3) -0.019(2) -0.008(2) 0.005(2)
C9 0.054(3) 0.052(2) 0.039(2) -0.016(2) -0.003(2) 0.002(2)
C10 0.077(3) 0.028(2) 0.029(2) -0.0024(16) -0.008(2) 0.0051(19)
C11 0.051(3) 0.069(3) 0.051(3) -0.027(2) -0.002(2) 0.012(2)
C12 0.049(3) 0.073(3) 0.048(3) -0.023(2) -0.010(2) 0.012(2)
C13 0.083(4) 0.053(3) 0.043(3) -0.022(2) 0.006(3) 0.008(3)
C14 0.081(4) 0.058(3) 0.048(3) -0.026(2) -0.003(3) -0.002(3)
C15 0.095(4) 0.047(3) 0.056(3) -0.013(2) -0.031(3) 0.008(2)
C16 0.088(4) 0.039(2) 0.052(3) -0.019(2) -0.014(3) 0.002(2)
C17 0.091(4) 0.054(3) 0.037(3) -0.016(2) -0.012(3) -0.008(3)
N1 0.115(3) 0.073(3) 0.041(2) -0.0216(19) 0.007(2) -0.007(2)
N2 0.164(5) 0.071(3) 0.060(3) -0.004(2) 0.037(3) 0.028(3)
N3 0.114(5) 0.065(3) 0.152(6) -0.054(3) 0.046(4) -0.027(3)
N4 0.132(5) 0.179(6) 0.106(5) -0.101(5) -0.040(4) 0.077(5)
C18 0.170(8) 0.100(5) 0.092(5) -0.029(4) 0.072(5) -0.045(5)
C19 0.167(7) 0.123(5) 0.050(4) -0.034(3) -0.002(4) 0.018(5)
C20 0.118(5) 0.083(4) 0.116(6) -0.046(4) 0.010(4) -0.001(4)
C21 0.184(8) 0.062(4) 0.149(7) -0.042(4) 0.078(6) -0.042(5)
C22 0.244(8) 0.137(5) 0.066(5) -0.007(4) 0.057(5) 0.055(6)
C23 0.264(11) 0.061(4) 0.133(7) -0.001(5) 0.063(7) 0.005(6)
C24 0.112(7) 0.225(11) 0.249(13) -0.170(10) -0.076(7) 0.044(7)
C25 0.226(8) 0.184(6) 0.077(4) -0.053(5) -0.051(5) 0.103(6)
C26 0.136(8) 0.126(6) 0.247(12) -0.112(7) 0.029(8) -0.020(6)
C27 0.170(8) 0.067(4) 0.108(6) -0.020(4) 0.067(6) -0.022(5)
C28 0.269(10) 0.142(7) 0.201(9) -0.034(6) 0.137(8) -0.055(7)
N5 0.183(6) 0.098(4) 0.077(4) -0.002(3) 0.047(4) -0.005(4)
N6 0.234(6) 0.156(4) 0.080(3) -0.013(4) -0.008(4) 0.098(5)
C29 0.155(6) 0.175(7) 0.144(6) -0.082(5) -0.009(5) 0.081(5)
C30 0.205(7) 0.160(6) 0.107(5) -0.043(5) -0.023(5) 0.108(6)
O1A 0.112 0.057 0.063 0.0327 0.019 0.0006
C1A 0.097 0.07 0.054 0.013 0.02 -0.009
O2A 0.189 0.064 0.092 0.019 0.09 0.01
O3A 0.0539 0.0533 0.0398 0.0218 -0.0011 0.0014
O4A 0.091 0.0405 0.0463 0.0215 0.0209 0.0095
O5A 0.082 0.076 0.0447 0.0296 0.0022 0.0218
O6A 0.101 0.1 0.053 0.0359 0.028 0.024
C3A 0.05 0.039 0.033 0.0097 -0.009 -0.0033
C4A 0.065 0.047 0.033 0.0085 0.003 -0.005
C5A 0.056 0.037 0.029 0.0034 0.007 -0.0005
C6A 0.06 0.055 0.042 0.015 0.004 0.013
C7A 0.074 0.035 0.038 0.0066 0.011 -0.001
C8A 0.068 0.05 0.06 0.019 0.008 0.005
C9A 0.054 0.052 0.039 0.016 0.003 0.002
C10A 0.077 0.028 0.029 0.0024 0.008 0.0051
C11A 0.051 0.069 0.051 0.027 0.002 0.012
C12A 0.049 0.073 0.048 0.023 0.01 0.012
C13A 0.083 0.053 0.043 0.022 -0.006 0.008
C14A 0.081 0.058 0.048 0.026 0.003 -0.002
C15A 0.095 0.047 0.056 0.013 0.031 0.008
C16A 0.088 0.039 0.052 0.019 0.014 0.002
C17A 0.091 0.054 0.037 0.016 0.012 -0.008
Ni1A 0.0999 0.0635 0.044 0.0247 -0.0058 0.0086
N1A 0.115 0.073 0.041 0.0216 -0.007 -0.007
N2A 0.164 0.071 0.06 0.004 -0.037 0.028
N3A 0.114 0.065 0.152 0.054 -0.046 -0.027
N4A 0.132 0.179 0.106 0.101 0.04 0.077
C18A 0.17 0.1 0.092 0.029 -0.072 -0.045
C19A 0.167 0.123 0.05 0.034 0.002 0.018
C20A 0.118 0.083 0.116 0.046 -0.01 -0.001
C21A 0.184 0.062 0.149 0.042 -0.078 -0.042
C22A 0.244 0.137 0.066 0.007 -0.057 0.055
C23A 0.264 0.061 0.133 0.001 -0.063 0.005
C24A 0.112 0.225 0.249 0.17 0.076 0.044
C25A 0.226 0.184 0.077 0.053 0.051 0.103
C26A 0.136 0.126 0.247 0.112 -0.029 -0.02
C27A 0.17 0.067 0.108 0.02 -0.067 -0.022
C28A 0.269 0.142 0.201 0.034 -0.137 -0.055
N5A 0.183 0.098 0.077 0.002 -0.047 -0.005
N6A 0.234 0.156 0.08 0.013 0.008 0.098
C29A 0.155 0.175 0.144 0.082 0.009 0.081
C30A 0.205 0.16 0.107 0.043 0.023 0.108
O1F 0.112 0.057 0.063 0.0327 -0.019 -0.0006
O1G 0.112 0.057 0.063 -0.0327 0.019 -0.0006
Ni1F 0.0999 0.0635 0.044 0.0247 0.0058 -0.0086
Ni1G 0.0999 0.0635 0.044 -0.0247 -0.0058 -0.0086
loop_
_geom_bond_atom_site_label_1
_geom_bond_atom_site_label_2
_geom_bond_site_symmetry_1
_geom_bond_site_symmetry_2
O1 C1 1_555 1_555
C1 O2 1_555 1_555
Ni1 O5 1_555 1_555
O3 C3 1_555 1_555
O4 C7 1_555 1_555
O5 C13 1_555 1_555
O6 C13 1_555 1_555
C2 C5 1_555 1_555
C3 C9 1_555 1_555
C4 C6 1_555 1_555
C5 O3 1_555 1_555
H1 C5 1_555 1_555
H2 C5 1_555 1_555
C6 H3 1_555 1_555
C7 C8 1_555 1_555
C8 H4 1_555 1_555
C9 C6 1_555 1_555
H5 C9 1_555 1_555
C10 O4 1_555 1_555
H6 C10 1_555 1_555
H7 C10 1_555 1_555
C11 C3 1_555 1_555
H8 C11 1_555 1_555
C12 C4 1_555 1_555
H9 C12 1_555 1_555
C13 C4 1_555 1_555
C14 C8 1_555 1_555
H10 C14 1_555 1_555
C15 H11 1_555 1_555
C16 C7 1_555 1_555
H12 C16 1_555 1_555
C17 C1 1_555 1_555
N1 Ni1 1_555 1_555
H13 N1 1_555 1_555
N2 Ni1 1_555 1_555
H14 N2 1_555 1_555
N3 Ni1 1_555 1_555
N4 Ni1 1_555 1_555
C18 N3 1_555 1_555
H15 C18 1_555 1_555
H16 C18 1_555 1_555
C19 N1 1_555 1_555
H17 C19 1_555 1_555
H18 C19 1_555 1_555
C20 N1 1_555 1_555
H19 C20 1_555 1_555
H20 C20 1_555 1_555
C21 N3 1_555 1_555
H21 C21 1_555 1_555
H22 C21 1_555 1_555
C22 N2 1_555 1_555
H23 C22 1_555 1_555
H24 C22 1_555 1_555
C23 C21 1_555 1_555
H25 C23 1_555 1_555
H26 C23 1_555 1_555
C24 N4 1_555 1_555
H27 C24 1_555 1_555
H28 C24 1_555 1_555
C25 N4 1_555 1_555
H29 C25 1_555 1_555
H30 C25 1_555 1_555
C26 N3 1_555 1_555
H31 C26 1_555 1_555
H32 C26 1_555 1_555
C27 N2 1_555 1_555
H33 C27 1_555 1_555
C28 C27 1_555 1_555
H34 C28 1_555 1_555
H35 C28 1_555 1_555
H36 C28 1_555 1_555
N5 C18 1_555 1_555
N6 C22 1_555 1_555
C29 N4 1_555 1_555
H37 C29 1_555 1_555
H38 C29 1_555 1_555
C30 N6 1_555 1_555
H39 C30 1_555 1_555
H40 C30 1_555 1_555
O1A C1A 1_555 1_555
C1A O2A 1_555 1_555
O3A C3A 1_555 1_555
O4A C7A 1_555 1_555
O5A C13A 1_555 1_555
O6A C13A 1_555 1_555
C3A C9A 1_555 1_555
C4A C6A 1_555 1_555
C5A C2 1_555 1_555
H1A C5A 1_555 1_555
H2A C5A 1_555 1_555
C6A H3A 1_555 1_555
C7A C8A 1_555 1_555
C8A H4A 1_555 1_555
C9A C6A 1_555 1_555
H5A C9A 1_555 1_555
C10A C2 1_555 1_555
H6A C10A 1_555 1_555
H7A C10A 1_555 1_555
C11A C3A 1_555 1_555
H8A C11A 1_555 1_555
C12A C4A 1_555 1_555
H9A C12A 1_555 1_555
C13A C4A 1_555 1_555
C14A C8A 1_555 1_555
H10A C14A 1_555 1_555
C15A H11A 1_555 1_555
C16A C7A 1_555 1_555
H12A C16A 1_555 1_555
C17A C1A 1_555 1_555
Ni1A O5A 1_555 1_555
N1A Ni1A 1_555 1_555
H13A N1A 1_555 1_555
N2A Ni1A 1_555 1_555
H14A N2A 1_555 1_555
N3A Ni1A 1_555 1_555
N4A Ni1A 1_555 1_555
C18A N3A 1_555 1_555
H15A C18A 1_555 1_555
H16A C18A 1_555 1_555
C19A N1A 1_555 1_555
H17A C19A 1_555 1_555
H18A C19A 1_555 1_555
C20A N1A 1_555 1_555
H19A C20A 1_555 1_555
H20A C20A 1_555 1_555
C21A N3A 1_555 1_555
H21A C21A 1_555 1_555
H22A C21A 1_555 1_555
C22A N2A 1_555 1_555
H23A C22A 1_555 1_555
H24A C22A 1_555 1_555
C23A C21A 1_555 1_555
H25A C23A 1_555 1_555
H26A C23A 1_555 1_555
C24A N4A 1_555 1_555
H27A C24A 1_555 1_555
H28A C24A 1_555 1_555
C25A N4A 1_555 1_555
H29A C25A 1_555 1_555
H30A C25A 1_555 1_555
C26A N3A 1_555 1_555
H31A C26A 1_555 1_555
H32A C26A 1_555 1_555
C27A N2A 1_555 1_555
H33A C27A 1_555 1_555
C28A C27A 1_555 1_555
H34A C28A 1_555 1_555
H35A C28A 1_555 1_555
H36A C28A 1_555 1_555
N5A C18A 1_555 1_555
N6A C22A 1_555 1_555
C29A N4A 1_555 1_555
H37A C29A 1_555 1_555
H38A C29A 1_555 1_555
C30A N6A 1_555 1_555
H39A C30A 1_555 1_555
H40A C30A 1_555 1_555
O1F Ni1A 1_555 1_555
O1G Ni1 1_555 1_555
Ni1F O1A 1_555 1_555
Ni1G O1 1_555 1_555
C2 C10 1_555 1_555
C11 C12 1_555 1_555
C14 C17 1_555 1_555
C15 C16 1_555 1_555
C15 C17 1_555 1_555
C19 N5 1_555 1_555
C20 C27 1_555 1_555
C23 N5 1_555 1_555
C24 C26 1_555 1_555
C25 N6 1_555 1_555
C29 C30 1_555 1_555
O3A C5A 1_555 1_555
O4A C10A 1_555 1_555
C11A C12A 1_555 1_555
C14A C17A 1_555 1_555
C15A C16A 1_555 1_555
C15A C17A 1_555 1_555
C19A N5A 1_555 1_555
C20A C27A 1_555 1_555
C23A N5A 1_555 1_555
C24A C26A 1_555 1_555
C25A N6A 1_555 1_555
C29A C30A 1_555 1_555

#END
