
#######################################################################
#
#                 Cambridge Crystallographic Data Centre
#                                CCDC 
#
#######################################################################
#
# If this CIF has been generated from an entry in the Cambridge 
# Structural Database, then it will include bibliographic, chemical, 
# crystal, experimental, refinement or atomic coordinate data resulting 
# from the CCDC's data processing and validation procedures.
#
#######################################################################

data_OCEGOV
_chemical_formula_moiety         'C16 H16 F7 N6 Ni4 Si1 Xe1'
_symmetry_cell_setting           tetragonal
_symmetry_space_group_name_H-M   'P 4/m m m'
_symmetry_Int_Tables_number      123
_space_group_name_Hall           '-P 4 2'
loop_
_symmetry_equiv_pos_site_id
_symmetry_equiv_pos_as_xyz
1 x,y,z
2 -y,x,z
3 -x,-y,z
4 y,-x,z
5 x,-y,-z
6 y,x,-z
7 -x,y,-z
8 -y,-x,-z
9 -x,-y,-z
10 y,-x,-z
11 x,y,-z
12 -y,x,-z
13 -x,y,z
14 -y,-x,z
15 x,-y,z
16 y,x,z
_cell_length_a                   7.0187(4)
_cell_length_b                   7.0187
_cell_length_c                   7.5098(5)
_cell_angle_alpha                90
_cell_angle_beta                 90
_cell_angle_gamma                90
_cell_volume                     369.949
loop_
_atom_site_label
_atom_site_type_symbol
_atom_site_fract_x
_atom_site_fract_y
_atom_site_fract_z
_atom_site_U_iso_or_equiv
_atom_site_thermal_displace_type
Xe1 Xe 0.000 0.000 0.1646(11) 0.2330 Uiso
Ni1 Ni 0.500 0.500 0.500 0.0063 Uiso
Si1 Si 0.500 0.500 1.0 0.0480 Uiso
F1 F 0.500 0.500 0.7634(11) 0.0114 Uiso
F2 F 0.6640(6) 0.6640(6) 1.0 0.0920 Uiso
N1 N 0.8045(6) 0.500 0.500 0.0500 Uiso
C1 C 0.90081(9) 0.4541(14) 0.6479(4) 0.0730 Uiso
H1 H 0.8156(11) 0.4173(25) 0.7667(8) 0.0880 Uiso
F2A F 0.3360(6) 0.6640(6) 1.0 0.0920 Uiso
F2B F 0.3360(6) 0.3360(6) 1.0 0.0920 Uiso
F2C F 0.6640(6) 0.3360(6) 1.0 0.0920 Uiso
F1H F 0.500 0.500 1.2366(11) 0.0114 Uiso
N1B N 1.1955(6) 0.500 0.500 0.0500 Uiso
C1B C 1.09919(9) 0.5459(14) 0.6479(4) 0.0730 Uiso
H1B H 1.1844(11) 0.5827(25) 0.7667(8) 0.0880 Uiso
C1L C 1.09919(9) 0.4541(14) 0.6479(4) 0.0730 Uiso
H1L H 1.1844(11) 0.4173(25) 0.7667(8) 0.0880 Uiso
C1N C 0.90081(9) 0.5459(14) 0.6479(4) 0.0730 Uiso
H1N H 0.8156(11) 0.5827(25) 0.7667(8) 0.0880 Uiso
C1H C 1.09919(9) 0.5459(14) 0.3521(4) 0.0730 Uiso
H1H H 1.1844(11) 0.5827(25) 0.2333(8) 0.0880 Uiso
C1J C 0.90081(9) 0.4541(14) 0.3521(4) 0.0730 Uiso
H1J H 0.8156(11) 0.4173(25) 0.2333(8) 0.0880 Uiso
C1D C 0.90081(9) 0.5459(14) 0.3521(4) 0.0730 Uiso
H1D H 0.8156(11) 0.5827(25) 0.2333(8) 0.0880 Uiso
C1F C 1.09919(9) 0.4541(14) 0.3521(4) 0.0730 Uiso
H1F H 1.1844(11) 0.4173(25) 0.2333(8) 0.0880 Uiso
N1A N 0.500 -0.1955(6) 0.500 0.0500 Uiso
C1A C 0.5459(14) -0.09919(9) 0.6479(4) 0.0730 Uiso
H1A H 0.5827(25) -0.1844(11) 0.7667(8) 0.0880 Uiso
N1C N 0.500 0.1955(6) 0.500 0.0500 Uiso
C1C C 0.4541(14) 0.09919(9) 0.6479(4) 0.0730 Uiso
H1C H 0.4173(25) 0.1844(11) 0.7667(8) 0.0880 Uiso
C1M C 0.5459(14) 0.09919(9) 0.6479(4) 0.0730 Uiso
H1M H 0.5827(25) 0.1844(11) 0.7667(8) 0.0880 Uiso
C1O C 0.4541(14) -0.09919(9) 0.6479(4) 0.0730 Uiso
H1O H 0.4173(25) -0.1844(11) 0.7667(8) 0.0880 Uiso
C1I C 0.4541(14) 0.09919(9) 0.3521(4) 0.0730 Uiso
H1I H 0.4173(25) 0.1844(11) 0.2333(8) 0.0880 Uiso
C1K C 0.5459(14) -0.09919(9) 0.3521(4) 0.0730 Uiso
H1K H 0.5827(25) -0.1844(11) 0.2333(8) 0.0880 Uiso
C1E C 0.4541(14) -0.09919(9) 0.3521(4) 0.0730 Uiso
H1E H 0.4173(25) -0.1844(11) 0.2333(8) 0.0880 Uiso
C1G C 0.5459(14) 0.09919(9) 0.3521(4) 0.0730 Uiso
H1G H 0.5827(25) 0.1844(11) 0.2333(8) 0.0880 Uiso
Ni1_2 Ni 0.500 -0.500 0.500 0.0063 Uiso
Ni1_3 Ni 0.500 0.500 1.500 0.0063 Uiso
Ni1_4 Ni 1.500 0.500 0.500 0.0063 Uiso
F1H_2 F 0.500 0.500 0.2366(11) 0.0114 Uiso
N1A_2 N 0.500 0.8045(6) 0.500 0.0500 Uiso
N1B_2 N 0.1955(6) 0.500 0.500 0.0500 Uiso
loop_
_geom_bond_atom_site_label_1
_geom_bond_atom_site_label_2
_geom_bond_site_symmetry_1
_geom_bond_site_symmetry_2
Ni1 F1 1_555 1_555
Si1 F1 1_555 1_555
F2 Si1 1_555 1_555
N1 Ni1 1_555 1_555
C1 N1 1_555 1_555
H1 C1 1_555 1_555
F2A Si1 1_555 1_555
F2B Si1 1_555 1_555
F2C Si1 1_555 1_555
F1H Si1 1_555 1_555
N1B C1B 1_555 1_555
C1B C1 1_555 1_555
H1B C1B 1_555 1_555
C1L C1 1_555 1_555
H1L H1B 1_555 1_555
C1N N1 1_555 1_555
H1N H1 1_555 1_555
C1H N1B 1_555 1_555
H1H C1H 1_555 1_555
C1J N1 1_555 1_555
H1J C1J 1_555 1_555
C1D N1 1_555 1_555
H1D H1J 1_555 1_555
C1F N1B 1_555 1_555
H1F H1H 1_555 1_555
N1A C1A 1_555 1_555
C1A H1A 1_555 1_555
H1A H1O 1_555 1_555
N1C Ni1 1_555 1_555
C1C C1A 1_555 1_555
H1C C1C 1_555 1_555
C1M C1A 1_555 1_555
H1M H1C 1_555 1_555
C1O N1A 1_555 1_555
H1O C1O 1_555 1_555
C1I N1C 1_555 1_555
H1I C1I 1_555 1_555
C1K N1A 1_555 1_555
H1K C1K 1_555 1_555
C1E N1A 1_555 1_555
H1E H1K 1_555 1_555
C1G N1C 1_555 1_555
H1G H1I 1_555 1_555
Ni1_2 N1A 1_555 1_555
Ni1_3 F1H 1_555 1_555
Ni1_4 N1B 1_555 1_555
F1H_2 Ni1 1_555 1_555
N1A_2 Ni1 1_555 1_555
N1B_2 Ni1 1_555 1_555
C1 C1N 1_555 1_555
N1B C1L 1_555 1_555
C1B C1L 1_555 1_555
C1B C1N 1_555 1_555
C1L H1L 1_555 1_555
C1L C1N 1_555 1_555
C1N H1N 1_555 1_555
C1H C1J 1_555 1_555
C1H C1D 1_555 1_555
C1H C1F 1_555 1_555
C1J C1D 1_555 1_555
C1J C1F 1_555 1_555
C1D H1D 1_555 1_555
C1D C1F 1_555 1_555
C1F H1F 1_555 1_555
C1A C1O 1_555 1_555
N1C C1C 1_555 1_555
N1C C1M 1_555 1_555
C1C C1M 1_555 1_555
C1C C1O 1_555 1_555
C1M H1M 1_555 1_555
C1M C1O 1_555 1_555
C1I C1K 1_555 1_555
C1I C1E 1_555 1_555
C1I C1G 1_555 1_555
C1K C1E 1_555 1_555
C1K C1G 1_555 1_555
C1E H1E 1_555 1_555
C1E C1G 1_555 1_555
C1G H1G 1_555 1_555

#END
