
#######################################################################
#
#                 Cambridge Crystallographic Data Centre
#                                CCDC 
#
#######################################################################
#
# If this CIF has been generated from an entry in the Cambridge 
# Structural Database, then it will include bibliographic, chemical, 
# crystal, experimental, refinement or atomic coordinate data resulting 
# from the CCDC's data processing and validation procedures.
#
#######################################################################

data_MOXNUJ
_chemical_formula_moiety         '(C33 H50 Cu2 N4 O19)n'
_symmetry_cell_setting           tetragonal
_symmetry_space_group_name_H-M   'I 41/a'
_symmetry_Int_Tables_number      88
_space_group_name_Hall           '-I 4ad'
loop_
_symmetry_equiv_pos_site_id
_symmetry_equiv_pos_as_xyz
1 x,y,z
2 3/4-y,1/4+x,1/4+z
3 1/2-x,-y,1/2+z
4 3/4+y,3/4-x,3/4+z
5 1/2+x,1/2+y,1/2+z
6 1/4-y,3/4+x,3/4+z
7 -x,1/2-y,z
8 1/4+y,1/4-x,1/4+z
9 -x,-y,-z
10 1/4+y,3/4-x,3/4-z
11 1/2+x,y,1/2-z
12 1/4-y,1/4+x,1/4-z
13 1/2-x,1/2-y,1/2-z
14 3/4+y,1/4-x,1/4-z
15 x,1/2+y,-z
16 3/4-y,3/4+x,3/4-z
_cell_length_a                   22.782(3)
_cell_length_b                   22.782(3)
_cell_length_c                   9.804(4)
_cell_angle_alpha                90
_cell_angle_beta                 90
_cell_angle_gamma                90
_cell_volume                     5088.47
loop_
_atom_site_label
_atom_site_type_symbol
_atom_site_fract_x
_atom_site_fract_y
_atom_site_fract_z
_atom_site_U_iso_or_equiv
_atom_site_thermal_displace_type
Cu1 Cu -0.5000 0.0000 0.0000 0.0706 Uani
N1 N -0.49491(5) 0.06631(4) -0.13578(11) 0.0834 Uani
C1 C -0.53542(5) 0.07177(5) -0.23142(12) 0.0805 Uani
H1 H -0.5678 0.0470 -0.2287 0.0970 Uiso
C2 C -0.53186(4) 0.11214(4) -0.33414(9) 0.0667 Uani
H2 H -0.5615 0.1151 -0.3991 0.0800 Uiso
C3 C -0.48411(4) 0.14803(4) -0.33949(8) 0.0618 Uani
C4 C -0.44242(5) 0.14394(5) -0.23852(10) 0.0756 Uani
H3 H -0.4097 0.1684 -0.2383 0.0910 Uiso
C5 C -0.45042(6) 0.10294(7) -0.13852(14) 0.0899 Uani
H4 H -0.4229 0.1009 -0.0687 0.1080 Uiso
O1 O -0.47399(3) 0.18890(3) -0.43690(7) 0.0625 Uani
C6 C -0.51922(3) 0.19831(3) -0.53585(7) 0.0545 Uani
H5 H -0.5561 0.2072 -0.4909 0.0650 Uiso
H6 H -0.5245 0.1634 -0.5912 0.0650 Uiso
C7 C -0.5000 0.2500 -0.6250 0.0496 Uani
O2 O -0.41533(5) -0.01603(6) -0.02034(14) 0.1125 Uani
C8 C -0.38849(8) -0.04184(8) -0.1065(2) 0.1088 Uani
O3 O -0.41093(4) -0.06343(4) -0.21274(12) 0.0974 Uani
C9 C -0.32200(8) -0.04836(9) -0.1028(2) 0.1175 Uani
H7 H -0.3105 -0.0660 -0.0181 0.1760 Uiso
H8 H -0.3041 -0.0104 -0.1110 0.1760 Uiso
H9 H -0.3095 -0.0728 -0.1772 0.1760 Uiso
O4 O -0.52259(5) -0.07756(4) -0.18584(10) 0.1084 Uani
H10 H -0.4883 -0.0894 -0.2017 0.1630 Uiso
H11 H -0.5450 -0.1075 -0.1767 0.1630 Uiso
Cu1F Cu -0.5000 0.5000 0.0000 0.0706 Uani
Cu1C Cu -0.2500 0.2500 -1.2500 0.0706 Uani
Cu1E Cu -0.7500 0.2500 -1.2500 0.0706 Uani
N1F N -0.50509(5) 0.43369(4) -0.13578(11) 0.0834 Uani
N1O N -0.31631(4) 0.25509(5) -1.11422(11) 0.0834 Uani
N1I N -0.68369(4) 0.24491(5) -1.11422(11) 0.0834 Uani
N1H N -0.50509(5) -0.06631(4) 0.13578(11) 0.0834 Uani
N1N N -0.49491(5) 0.56631(4) 0.13578(11) 0.0834 Uani
C1F C -0.46458(5) 0.42823(5) -0.23142(12) 0.0805 Uani
C1O C -0.32177(5) 0.21458(5) -1.01858(12) 0.0805 Uani
C1I C -0.67823(5) 0.28542(5) -1.01858(12) 0.0805 Uani
H1F H -0.4322 0.4530 -0.2287 0.0970 Uiso
H1O H -0.2970 0.1822 -1.0213 0.0970 Uiso
H1I H -0.7030 0.3178 -1.0213 0.0970 Uiso
C2F C -0.46814(4) 0.38786(4) -0.33414(9) 0.0667 Uani
C2O C -0.36214(4) 0.21814(4) -0.91586(9) 0.0667 Uani
C2I C -0.63786(4) 0.28186(4) -0.91586(9) 0.0667 Uani
H2F H -0.4385 0.3849 -0.3991 0.0800 Uiso
H2O H -0.3651 0.1885 -0.8509 0.0800 Uiso
H2I H -0.6349 0.3115 -0.8509 0.0800 Uiso
C3F C -0.51589(4) 0.35197(4) -0.33949(8) 0.0618 Uani
C3O C -0.39803(4) 0.26589(4) -0.91051(8) 0.0618 Uani
C3I C -0.60197(4) 0.23411(4) -0.91051(8) 0.0618 Uani
C4F C -0.55758(5) 0.35606(5) -0.23852(10) 0.0756 Uani
C4O C -0.39394(5) 0.30758(5) -1.01148(10) 0.0756 Uani
C4I C -0.60606(5) 0.19242(5) -1.01148(10) 0.0756 Uani
H3F H -0.5903 0.3316 -0.2383 0.0910 Uiso
H3O H -0.4184 0.3403 -1.0117 0.0910 Uiso
H3I H -0.5816 0.1597 -1.0117 0.0910 Uiso
C5F C -0.54958(6) 0.39706(7) -0.13852(14) 0.0899 Uani
C5O C -0.35294(7) 0.29958(6) -1.11148(14) 0.0899 Uani
C5I C -0.64706(7) 0.20042(6) -1.11148(14) 0.0899 Uani
H4F H -0.5771 0.3991 -0.0687 0.1080 Uiso
H4O H -0.3509 0.3271 -1.1813 0.1080 Uiso
H4I H -0.6491 0.1729 -1.1813 0.1080 Uiso
O1F O -0.52601(3) 0.31110(3) -0.43690(7) 0.0625 Uani
O1O O -0.43890(3) 0.27601(3) -0.81310(7) 0.0625 Uani
O1I O -0.56110(3) 0.22399(3) -0.81310(7) 0.0625 Uani
C6F C -0.48078(3) 0.30169(3) -0.53585(7) 0.0545 Uani
C6O C -0.44831(3) 0.23078(3) -0.71415(7) 0.0545 Uani
C6I C -0.55169(3) 0.26922(3) -0.71415(7) 0.0545 Uani
H5F H -0.4439 0.2928 -0.4909 0.0650 Uiso
H5O H -0.4572 0.1939 -0.7591 0.0650 Uiso
H5I H -0.5428 0.3061 -0.7591 0.0650 Uiso
H6F H -0.4755 0.3366 -0.5912 0.0650 Uiso
H6O H -0.4134 0.2255 -0.6588 0.0650 Uiso
H6I H -0.5866 0.2745 -0.6588 0.0650 Uiso
O2H O -0.58467(5) 0.01603(6) 0.02034(14) 0.1125 Uani
O2F O -0.58467(5) 0.51603(6) -0.02034(14) 0.1125 Uani
O2N O -0.41533(5) 0.48397(6) 0.02034(14) 0.1125 Uani
C8H C -0.61151(8) 0.04184(8) 0.1065(2) 0.1088 Uani
C8F C -0.61151(8) 0.54184(8) -0.1065(2) 0.1088 Uani
C8N C -0.38849(8) 0.45816(8) 0.1065(2) 0.1088 Uani
O3H O -0.58907(4) 0.06343(4) 0.21274(12) 0.0974 Uani
O3F O -0.58907(4) 0.56343(4) -0.21274(12) 0.0974 Uani
O3N O -0.41093(4) 0.43657(4) 0.21274(12) 0.0974 Uani
C9H C -0.67800(8) 0.04836(9) 0.1028(2) 0.1175 Uani
C9F C -0.67800(8) 0.54836(9) -0.1028(2) 0.1175 Uani
C9N C -0.32200(8) 0.45164(9) 0.1028(2) 0.1175 Uani
H7H H -0.6895 0.0660 0.0181 0.1760 Uiso
H7F H -0.6895 0.5660 -0.0181 0.1760 Uiso
H7N H -0.3105 0.4340 0.0181 0.1760 Uiso
H8H H -0.6959 0.0104 0.1110 0.1760 Uiso
H8F H -0.6959 0.5104 -0.1110 0.1760 Uiso
H8N H -0.3041 0.4896 0.1110 0.1760 Uiso
H9H H -0.6905 0.0728 0.1772 0.1760 Uiso
H9F H -0.6905 0.5728 -0.1772 0.1760 Uiso
H9N H -0.3095 0.4272 0.1772 0.1760 Uiso
O4H O -0.47741(5) 0.07756(4) 0.18584(10) 0.1084 Uani
O4F O -0.47741(5) 0.57756(4) -0.18584(10) 0.1084 Uani
O4N O -0.52259(5) 0.42244(4) 0.18584(10) 0.1084 Uani
H10H H -0.5117 0.0894 0.2017 0.1630 Uiso
H10F H -0.5117 0.5894 -0.2017 0.1630 Uiso
H10N H -0.4883 0.4106 0.2017 0.1630 Uiso
H11H H -0.4550 0.1075 0.1767 0.1630 Uiso
H11F H -0.4550 0.6075 -0.1767 0.1630 Uiso
H11N H -0.5450 0.3925 0.1767 0.1630 Uiso
O5 O -0.61282(4) -0.08951(5) -0.37016(13) 0.1022 Uani
H12 H -0.6234 -0.1189 -0.4177 0.1530 Uiso
H13 H -0.5874 -0.0856 -0.3152 0.1530 Uiso
O6 O -0.56492(4) -0.00135(4) -0.52825(11) 0.0903 Uani
H14 H -0.5738 0.0163 -0.6043 0.1350 Uiso
H15 H -0.5802 -0.0267 -0.4820 0.1350 Uiso
O7 O -0.67719(5) -0.05204(6) -0.15102(13) 0.1179 Uani
H16 H -0.6589 -0.0621 -0.2168 0.1770 Uiso
H17 H -0.6534 -0.0330 -0.0963 0.1770 Uiso
loop_
_atom_site_aniso_label
_atom_site_aniso_U_11
_atom_site_aniso_U_22
_atom_site_aniso_U_33
_atom_site_aniso_U_23
_atom_site_aniso_U_13
_atom_site_aniso_U_12
Cu1 0.0705(3) 0.0723(3) 0.0689(3) -0.01336(7) -0.03226(8) 0.00785(6)
N1 0.0883(6) 0.0862(6) 0.0758(6) 0.0318(4) -0.0140(4) -0.0053(4)
C1 0.0826(7) 0.0768(6) 0.0822(7) 0.0198(5) -0.0092(4) -0.0074(4)
C2 0.0690(5) 0.0669(5) 0.0641(6) 0.0153(3) -0.0074(3) -0.0144(3)
C3 0.0705(5) 0.0610(4) 0.0540(5) 0.0065(3) 0.0003(3) 0.0062(3)
C4 0.0797(6) 0.0804(6) 0.0667(6) 0.0223(4) -0.0176(4) -0.0149(4)
C5 0.0853(7) 0.1038(8) 0.0807(7) 0.0332(6) -0.0208(5) -0.0165(5)
O1 0.0598(4) 0.0720(4) 0.0556(4) 0.0164(3) -0.0070(2) -0.0066(2)
C6 0.0587(4) 0.0573(4) 0.0476(5) 0.0015(2) -0.0073(3) -0.0051(2)
C7 0.0547(5) 0.0547(5) 0.0395(6) 0.000 0.000 0.000
O2 0.1038(7) 0.1075(7) 0.1262(10) 0.0339(6) -0.0396(6) 0.0170(5)
C8 0.1026(9) 0.0894(8) 0.1344(13) -0.0199(8) -0.0309(9) 0.0245(7)
O3 0.0969(6) 0.0938(6) 0.1015(8) 0.0260(5) -0.0425(5) -0.0200(4)
C9 0.1054(10) 0.1284(12) 0.1188(12) 0.0548(11) -0.0089(8) -0.0263(9)
O4 0.1008(6) 0.1129(7) 0.1115(8) 0.0352(6) -0.0421(6) -0.0220(5)
Cu1F 0.0705 0.0723 0.0689 0.01336 0.03226 0.00785
Cu1C 0.0723 0.0705 0.0689 0.03226 -0.01336 -0.00785
Cu1E 0.0723 0.0705 0.0689 -0.03226 0.01336 -0.00785
N1F 0.0883 0.0862 0.0758 -0.0318 0.014 -0.0053
N1O 0.0862 0.0883 0.0758 0.014 0.0318 0.0053
N1I 0.0862 0.0883 0.0758 -0.014 -0.0318 0.0053
N1H 0.0883 0.0862 0.0758 0.0318 -0.014 -0.0053
N1N 0.0883 0.0862 0.0758 -0.0318 0.014 -0.0053
C1F 0.0826 0.0768 0.0822 -0.0198 0.0092 -0.0074
C1O 0.0768 0.0826 0.0822 0.0092 0.0198 0.0074
C1I 0.0768 0.0826 0.0822 -0.0092 -0.0198 0.0074
C2F 0.069 0.0669 0.0641 -0.0153 0.0074 -0.0144
C2O 0.0669 0.069 0.0641 0.0074 0.0153 0.0144
C2I 0.0669 0.069 0.0641 -0.0074 -0.0153 0.0144
C3F 0.0705 0.061 0.054 -0.0065 -0.0003 0.0062
C3O 0.061 0.0705 0.054 -0.0003 0.0065 -0.0062
C3I 0.061 0.0705 0.054 0.0003 -0.0065 -0.0062
C4F 0.0797 0.0804 0.0667 -0.0223 0.0176 -0.0149
C4O 0.0804 0.0797 0.0667 0.0176 0.0223 0.0149
C4I 0.0804 0.0797 0.0667 -0.0176 -0.0223 0.0149
C5F 0.0853 0.1038 0.0807 -0.0332 0.0208 -0.0165
C5O 0.1038 0.0853 0.0807 0.0208 0.0332 0.0165
C5I 0.1038 0.0853 0.0807 -0.0208 -0.0332 0.0165
O1F 0.0598 0.072 0.0556 -0.0164 0.007 -0.0066
O1O 0.072 0.0598 0.0556 0.007 0.0164 0.0066
O1I 0.072 0.0598 0.0556 -0.007 -0.0164 0.0066
C6F 0.0587 0.0573 0.0476 -0.0015 0.0073 -0.0051
C6O 0.0573 0.0587 0.0476 0.0073 0.0015 0.0051
C6I 0.0573 0.0587 0.0476 -0.0073 -0.0015 0.0051
O2H 0.1038 0.1075 0.1262 0.0339 -0.0396 0.017
O2F 0.1038 0.1075 0.1262 -0.0339 0.0396 0.017
O2N 0.1038 0.1075 0.1262 -0.0339 0.0396 0.017
C8H 0.1026 0.0894 0.1344 -0.0199 -0.0309 0.0245
C8F 0.1026 0.0894 0.1344 0.0199 0.0309 0.0245
C8N 0.1026 0.0894 0.1344 0.0199 0.0309 0.0245
O3H 0.0969 0.0938 0.1015 0.026 -0.0425 -0.02
O3F 0.0969 0.0938 0.1015 -0.026 0.0425 -0.02
O3N 0.0969 0.0938 0.1015 -0.026 0.0425 -0.02
C9H 0.1054 0.1284 0.1188 0.0548 -0.0089 -0.0263
C9F 0.1054 0.1284 0.1188 -0.0548 0.0089 -0.0263
C9N 0.1054 0.1284 0.1188 -0.0548 0.0089 -0.0263
O4H 0.1008 0.1129 0.1115 0.0352 -0.0421 -0.022
O4F 0.1008 0.1129 0.1115 -0.0352 0.0421 -0.022
O4N 0.1008 0.1129 0.1115 -0.0352 0.0421 -0.022
O5 0.0821(5) 0.0901(6) 0.1344(7) -0.0205(5) -0.0289(5) -0.0251(4)
O6 0.0932(5) 0.0856(5) 0.0921(7) 0.0193(4) -0.0080(4) -0.0072(4)
O7 0.1046(7) 0.1287(9) 0.1204(9) 0.0455(7) -0.0492(6) -0.0370(7)
loop_
_geom_bond_atom_site_label_1
_geom_bond_atom_site_label_2
_geom_bond_site_symmetry_1
_geom_bond_site_symmetry_2
Cu1 N1 1_555 1_555
N1 C1 1_555 1_555
C1 H1 1_555 1_555
C2 C1 1_555 1_555
H2 C2 1_555 1_555
C3 C2 1_555 1_555
C4 C3 1_555 1_555
H3 C4 1_555 1_555
C5 N1 1_555 1_555
H4 C5 1_555 1_555
O1 C3 1_555 1_555
C6 O1 1_555 1_555
H5 C6 1_555 1_555
H6 C6 1_555 1_555
C7 C6 1_555 1_555
O2 Cu1 1_555 1_555
C8 O2 1_555 1_555
O3 C8 1_555 1_555
C9 C8 1_555 1_555
H7 C9 1_555 1_555
H8 C9 1_555 1_555
H9 C9 1_555 1_555
O4 Cu1 1_555 1_555
H10 O4 1_555 1_555
H11 O4 1_555 1_555
O5 H12 1_555 1_555
H13 O5 1_555 1_555
O6 H14 1_555 1_555
H15 O6 1_555 1_555
O7 H16 1_555 1_555
H17 O7 1_555 1_555
Cu1F N1F 1_555 1_555
Cu1C N1O 1_555 1_555
Cu1E N1I 1_555 1_555
N1F C1F 1_555 1_555
N1O C1O 1_555 1_555
N1I C1I 1_555 1_555
N1H Cu1 1_555 1_555
N1N Cu1F 1_555 1_555
C1F H1F 1_555 1_555
C1O H1O 1_555 1_555
C1I H1I 1_555 1_555
C2F C1F 1_555 1_555
C2O C1O 1_555 1_555
C2I C1I 1_555 1_555
H2F C2F 1_555 1_555
H2O C2O 1_555 1_555
H2I C2I 1_555 1_555
C3F C2F 1_555 1_555
C3O C2O 1_555 1_555
C3I C2I 1_555 1_555
C4F C3F 1_555 1_555
C4O C3O 1_555 1_555
C4I C3I 1_555 1_555
H3F C4F 1_555 1_555
H3O C4O 1_555 1_555
H3I C4I 1_555 1_555
C5F N1F 1_555 1_555
C5O N1O 1_555 1_555
C5I N1I 1_555 1_555
H4F C5F 1_555 1_555
H4O C5O 1_555 1_555
H4I C5I 1_555 1_555
O1F C3F 1_555 1_555
O1O C3O 1_555 1_555
O1I C3I 1_555 1_555
C6F C7 1_555 1_555
C6O C7 1_555 1_555
C6I C7 1_555 1_555
H5F C6F 1_555 1_555
H5O C6O 1_555 1_555
H5I C6I 1_555 1_555
H6F C6F 1_555 1_555
H6O C6O 1_555 1_555
H6I C6I 1_555 1_555
O2H Cu1 1_555 1_555
O2F Cu1F 1_555 1_555
O2N Cu1F 1_555 1_555
C8H O2H 1_555 1_555
C8F O2F 1_555 1_555
C8N O2N 1_555 1_555
O3H C8H 1_555 1_555
O3F C8F 1_555 1_555
O3N C8N 1_555 1_555
C9H C8H 1_555 1_555
C9F C8F 1_555 1_555
C9N C8N 1_555 1_555
H7H C9H 1_555 1_555
H7F C9F 1_555 1_555
H7N C9N 1_555 1_555
H8H C9H 1_555 1_555
H8F C9F 1_555 1_555
H8N C9N 1_555 1_555
H9H C9H 1_555 1_555
H9F C9F 1_555 1_555
H9N C9N 1_555 1_555
O4H Cu1 1_555 1_555
O4F Cu1F 1_555 1_555
O4N Cu1F 1_555 1_555
H10H O4H 1_555 1_555
H10F O4F 1_555 1_555
H10N O4N 1_555 1_555
H11H O4H 1_555 1_555
H11F O4F 1_555 1_555
H11N O4N 1_555 1_555
C4 C5 1_555 1_555
C4F C5F 1_555 1_555
C4O C5O 1_555 1_555
C4I C5I 1_555 1_555
O1F C6F 1_555 1_555
O1O C6O 1_555 1_555
O1I C6I 1_555 1_555

#END
