
#######################################################################
#
#                 Cambridge Crystallographic Data Centre
#                                CCDC 
#
#######################################################################
#
# If this CIF has been generated from an entry in the Cambridge 
# Structural Database, then it will include bibliographic, chemical, 
# crystal, experimental, refinement or atomic coordinate data resulting 
# from the CCDC's data processing and validation procedures.
#
#######################################################################

data_MOXPUL
_chemical_formula_moiety         '(C69 H72 Cu4 N4 O20)n'
_symmetry_cell_setting           tetragonal
_symmetry_space_group_name_H-M   'P 42/n'
_symmetry_Int_Tables_number      86
_space_group_name_Hall           '-P 4bc'
loop_
_symmetry_equiv_pos_site_id
_symmetry_equiv_pos_as_xyz
1 x,y,z
2 1/2-x,1/2-y,z
3 -y,1/2+x,1/2+z
4 1/2+y,-x,1/2+z
5 -x,-y,-z
6 1/2+x,1/2+y,-z
7 y,1/2-x,1/2-z
8 1/2-y,x,1/2-z
_cell_length_a                   30.337(5)
_cell_length_b                   30.337(5)
_cell_length_c                   7.4230(5)
_cell_angle_alpha                90
_cell_angle_beta                 90
_cell_angle_gamma                90
_cell_volume                     6831.64
loop_
_atom_site_label
_atom_site_type_symbol
_atom_site_fract_x
_atom_site_fract_y
_atom_site_fract_z
_atom_site_U_iso_or_equiv
_atom_site_thermal_displace_type
Cu1 Cu 0.474095(19) 0.474187(19) 0.09665(7) 0.0725 Uani
N1 N 0.43362(11) 0.43351(11) 0.2752(4) 0.0775 Uani
O1 O 0.52943(11) 0.46349(11) 0.2332(4) 0.0989 Uani
O2 O 0.49176(12) 0.42773(10) -0.0753(4) 0.0997 Uani
O3 O 0.57219(10) 0.50832(11) 0.0751(4) 0.1000 Uani
O4 O 0.53659(11) 0.47085(11) -0.2346(4) 0.1005 Uani
C1 C 0.2500 0.2500 1.2500 0.0310 Uani
C2 C 0.38679(13) 0.38626(13) 0.5332(5) 0.0643 Uani
C3 C 0.43916(16) 0.43911(16) 0.4506(5) 0.0923 Uani
H1 H 0.4599 0.4602 0.4885 0.1110 Uiso
C4 C 0.41646(16) 0.41607(16) 0.5812(5) 0.0930 Uani
H2 H 0.4220 0.4215 0.7038 0.1110 Uiso
C5 C 0.38111(14) 0.38100(14) 0.3456(5) 0.0823 Uani
H3 H 0.3604 0.3605 0.3030 0.0990 Uiso
C6 C 0.40417(14) 0.40417(14) 0.2288(5) 0.0787 Uani
H4 H 0.3992 0.3994 0.1054 0.0950 Uiso
C7 C 0.36040(13) 0.36058(13) 0.6697(5) 0.0710 Uani
C8 C 0.31417(16) 0.31420(16) 0.9252(6) 0.1067 Uani
C15 C 0.3806(2) 0.33657(18) 0.8079(7) 0.0787 Uani
C16 C 0.4275(3) 0.3259(3) 0.8190(12) 0.0957 Uani
H13 H 0.4433 0.3413 0.7245 0.1430 Uiso
H14 H 0.4315 0.2944 0.8045 0.1430 Uiso
H15 H 0.4388 0.3350 0.9355 0.1430 Uiso
C17 C 0.3587(2) 0.3128(2) 0.9396(9) 0.0973 Uani
H16 H 0.3734 0.2971 1.0308 0.1170 Uiso
C18 C 0.2926(3) 0.3381(2) 0.7891(9) 0.1063 Uani
H17 H 0.2617 0.3392 0.7814 0.1280 Uiso
C19 C 0.3193(3) 0.3602(2) 0.6666(10) 0.0907 Uani
H18 H 0.3053 0.3760 0.5741 0.1080 Uiso
O6 O 0.2760(3) 0.3021(3) 1.0316(11) 0.1217 Uani
C20 C 0.2856(4) 0.2640(3) 1.1222(15) 0.0937 Uani
H19 H 0.3130 0.2682 1.1898 0.1130 Uiso
H20 H 0.2906 0.2404 1.0344 0.1130 Uiso
C21 C 0.5335(2) 0.39694(19) -0.3104(8) 0.1427 Uani
H21 H 0.5178 0.3706 -0.2738 0.2140 Uiso
H22 H 0.5269 0.4034 -0.4355 0.2140 Uiso
H23 H 0.5650 0.3923 -0.2967 0.2140 Uiso
C22 C 0.51975(18) 0.43395(16) -0.1978(6) 0.0887 Uani
C23 C 0.56614(17) 0.48059(18) 0.1989(6) 0.0913 Uani
C24 C 0.60320(19) 0.4661(2) 0.3107(8) 0.1430 Uani
H24 H 0.6295 0.4824 0.2770 0.2150 Uiso
H25 H 0.6082 0.4349 0.2925 0.2150 Uiso
H26 H 0.5965 0.4716 0.4365 0.2150 Uiso
Cu1A Cu 0.025905(19) 0.025813(19) 0.09665(7) 0.0725 Uani
Cu1F Cu 0.474187(19) 0.025905(19) 2.40335(7) 0.0725 Uani
Cu1G Cu 0.025813(19) 0.474095(19) 2.40335(7) 0.0725 Uani
Cu1D Cu 0.525905(19) 0.525813(19) -0.09665(7) 0.0725 Uani
Cu1E Cu -0.025905(19) -0.025813(19) -0.09665(7) 0.0725 Uani
N1A N 0.06638(11) 0.06649(11) 0.2752(4) 0.0775 Uani
N1F N 0.43351(11) 0.06638(11) 2.2248(4) 0.0775 Uani
N1G N 0.06649(11) 0.43362(11) 2.2248(4) 0.0775 Uani
O1D O 0.47057(11) 0.53651(11) -0.2332(4) 0.0989 Uani
O1A O -0.02943(11) 0.03651(11) 0.2332(4) 0.0989 Uani
O1E O 0.02943(11) -0.03651(11) -0.2332(4) 0.0989 Uani
O1F O 0.46349(11) -0.02943(11) 2.2668(4) 0.0989 Uani
O1G O 0.03651(11) 0.52943(11) 2.2668(4) 0.0989 Uani
O2D O 0.50824(12) 0.57227(10) 0.0753(4) 0.0997 Uani
O2A O 0.00824(12) 0.07227(10) -0.0753(4) 0.0997 Uani
O2E O -0.00824(12) -0.07227(10) 0.0753(4) 0.0997 Uani
O2F O 0.42773(10) 0.00824(12) 2.5753(4) 0.0997 Uani
O2G O 0.07227(10) 0.49176(12) 2.5753(4) 0.0997 Uani
O3D O 0.42781(10) 0.49168(11) -0.0751(4) 0.1000 Uani
O3A O -0.07219(10) -0.00832(11) 0.0751(4) 0.1000 Uani
O3E O 0.07219(10) 0.00832(11) -0.0751(4) 0.1000 Uani
O3B O 0.49168(11) 0.07219(10) 2.5751(4) 0.1000 Uani
O3C O 0.00832(11) 0.42781(10) 2.5751(4) 0.1000 Uani
O4D O 0.46341(11) 0.52915(11) 0.2346(4) 0.1005 Uani
O4A O -0.03659(11) 0.02915(11) -0.2346(4) 0.1005 Uani
O4E O 0.03659(11) -0.02915(11) 0.2346(4) 0.1005 Uani
O4B O 0.52915(11) 0.03659(11) 2.2654(4) 0.1005 Uani
O4C O -0.02915(11) 0.46341(11) 2.2654(4) 0.1005 Uani
C2A C 0.11321(13) 0.11374(13) 0.5332(5) 0.0643 Uani
C2F C 0.38626(13) 0.11321(13) 1.9668(5) 0.0643 Uani
C2G C 0.11374(13) 0.38679(13) 1.9668(5) 0.0643 Uani
C3A C 0.06084(16) 0.06089(16) 0.4506(5) 0.0923 Uani
C3F C 0.43911(16) 0.06084(16) 2.0494(5) 0.0923 Uani
C3G C 0.06089(16) 0.43916(16) 2.0494(5) 0.0923 Uani
H1A H 0.0401 0.0398 0.4885 0.1110 Uiso
H1F H 0.4602 0.0401 2.0115 0.1110 Uiso
H1G H 0.0398 0.4599 2.0115 0.1110 Uiso
C4A C 0.08354(16) 0.08393(16) 0.5812(5) 0.0930 Uani
C4F C 0.41607(16) 0.08354(16) 1.9188(5) 0.0930 Uani
C4G C 0.08393(16) 0.41646(16) 1.9188(5) 0.0930 Uani
H2A H 0.0780 0.0785 0.7038 0.1110 Uiso
H2F H 0.4215 0.0780 1.7962 0.1110 Uiso
H2G H 0.0785 0.4220 1.7962 0.1110 Uiso
C5A C 0.11889(14) 0.11900(14) 0.3456(5) 0.0823 Uani
C5F C 0.38100(14) 0.11889(14) 2.1544(5) 0.0823 Uani
C5G C 0.11900(14) 0.38111(14) 2.1544(5) 0.0823 Uani
H3A H 0.1396 0.1395 0.3030 0.0990 Uiso
H3F H 0.3605 0.1396 2.1970 0.0990 Uiso
H3G H 0.1395 0.3604 2.1970 0.0990 Uiso
C6A C 0.09583(14) 0.09583(14) 0.2288(5) 0.0787 Uani
C6F C 0.40417(14) 0.09583(14) 2.2712(5) 0.0787 Uani
C6G C 0.09583(14) 0.40417(14) 2.2712(5) 0.0787 Uani
H4A H 0.1008 0.1006 0.1054 0.0950 Uiso
H4F H 0.3994 0.1008 2.3946 0.0950 Uiso
H4G H 0.1006 0.3992 2.3946 0.0950 Uiso
C7A C 0.13960(13) 0.13942(13) 0.6697(5) 0.0710 Uani
C7F C 0.36058(13) 0.13960(13) 1.8303(5) 0.0710 Uani
C7G C 0.13942(13) 0.36040(13) 1.8303(5) 0.0710 Uani
C8A C 0.18583(16) 0.18580(16) 0.9252(6) 0.1067 Uani
C8F C 0.31420(16) 0.18583(16) 1.5748(6) 0.1067 Uani
C8G C 0.18580(16) 0.31417(16) 1.5748(6) 0.1067 Uani
C15A C 0.1194(2) 0.16343(18) 0.8079(7) 0.0787 Uani
C15F C 0.33657(18) 0.1194(2) 1.6921(7) 0.0787 Uani
C15G C 0.16343(18) 0.3806(2) 1.6921(7) 0.0787 Uani
C16A C 0.0725(3) 0.1741(3) 0.8190(12) 0.0957 Uani
C16F C 0.3259(3) 0.0725(3) 1.6810(12) 0.0957 Uani
C16G C 0.1741(3) 0.4275(3) 1.6810(12) 0.0957 Uani
H13A H 0.0567 0.1587 0.7245 0.1430 Uiso
H13F H 0.3413 0.0567 1.7755 0.1430 Uiso
H13G H 0.1587 0.4433 1.7755 0.1430 Uiso
H14A H 0.0685 0.2056 0.8045 0.1430 Uiso
H14F H 0.2944 0.0685 1.6955 0.1430 Uiso
H14G H 0.2056 0.4315 1.6955 0.1430 Uiso
H15A H 0.0612 0.1650 0.9355 0.1430 Uiso
H15F H 0.3350 0.0612 1.5645 0.1430 Uiso
H15G H 0.1650 0.4388 1.5645 0.1430 Uiso
C17A C 0.1413(2) 0.1872(2) 0.9396(9) 0.0973 Uani
C17F C 0.3128(2) 0.1413(2) 1.5604(9) 0.0973 Uani
C17G C 0.1872(2) 0.3587(2) 1.5604(9) 0.0973 Uani
H16A H 0.1266 0.2029 1.0308 0.1170 Uiso
H16F H 0.2971 0.1266 1.4692 0.1170 Uiso
H16G H 0.2029 0.3734 1.4692 0.1170 Uiso
C18A C 0.2074(3) 0.1619(2) 0.7891(9) 0.1063 Uani
C18F C 0.3381(2) 0.2074(3) 1.7109(9) 0.1063 Uani
C18G C 0.1619(2) 0.2926(3) 1.7109(9) 0.1063 Uani
H17A H 0.2383 0.1608 0.7814 0.1280 Uiso
H17F H 0.3392 0.2383 1.7186 0.1280 Uiso
H17G H 0.1608 0.2617 1.7186 0.1280 Uiso
C19A C 0.1807(3) 0.1398(2) 0.6666(10) 0.0907 Uani
C19F C 0.3602(2) 0.1807(3) 1.8334(10) 0.0907 Uani
C19G C 0.1398(2) 0.3193(3) 1.8334(10) 0.0907 Uani
H18A H 0.1947 0.1240 0.5741 0.1080 Uiso
H18F H 0.3760 0.1947 1.9259 0.1080 Uiso
H18G H 0.1240 0.3053 1.9259 0.1080 Uiso
O6A O 0.2240(3) 0.1979(3) 1.0316(11) 0.1217 Uani
O6F O 0.3021(3) 0.2240(3) 1.4684(11) 0.1217 Uani
O6G O 0.1979(3) 0.2760(3) 1.4684(11) 0.1217 Uani
C20A C 0.2144(4) 0.2360(3) 1.1222(15) 0.0937 Uani
C20F C 0.2640(3) 0.2144(4) 1.3778(15) 0.0937 Uani
C20G C 0.2360(3) 0.2856(4) 1.3778(15) 0.0937 Uani
H19A H 0.1870 0.2318 1.1898 0.1130 Uiso
H19F H 0.2682 0.1870 1.3102 0.1130 Uiso
H19G H 0.2318 0.3130 1.3102 0.1130 Uiso
H20A H 0.2094 0.2596 1.0344 0.1130 Uiso
H20F H 0.2404 0.2094 1.4656 0.1130 Uiso
H20G H 0.2596 0.2906 1.4656 0.1130 Uiso
C21D C 0.4665(2) 0.60306(19) 0.3104(8) 0.1427 Uani
C21A C -0.0335(2) 0.10306(19) -0.3104(8) 0.1427 Uani
C21E C 0.0335(2) -0.10306(19) 0.3104(8) 0.1427 Uani
H21D H 0.4822 0.6294 0.2738 0.2140 Uiso
H21A H -0.0178 0.1294 -0.2738 0.2140 Uiso
H21E H 0.0178 -0.1294 0.2738 0.2140 Uiso
H22D H 0.4731 0.5966 0.4355 0.2140 Uiso
H22A H -0.0269 0.0966 -0.4355 0.2140 Uiso
H22E H 0.0269 -0.0966 0.4355 0.2140 Uiso
H23D H 0.4350 0.6077 0.2967 0.2140 Uiso
H23A H -0.0650 0.1077 -0.2967 0.2140 Uiso
H23E H 0.0650 -0.1077 0.2967 0.2140 Uiso
C22D C 0.48025(18) 0.56605(16) 0.1978(6) 0.0887 Uani
C22A C -0.01975(18) 0.06605(16) -0.1978(6) 0.0887 Uani
C22E C 0.01975(18) -0.06605(16) 0.1978(6) 0.0887 Uani
C23D C 0.43386(17) 0.51941(18) -0.1989(6) 0.0913 Uani
C23A C -0.06614(17) 0.01941(18) 0.1989(6) 0.0913 Uani
C23E C 0.06614(17) -0.01941(18) -0.1989(6) 0.0913 Uani
C24D C 0.39680(19) 0.5339(2) -0.3107(8) 0.1430 Uani
C24A C -0.10320(19) 0.0339(2) 0.3107(8) 0.1430 Uani
C24E C 0.10320(19) -0.0339(2) -0.3107(8) 0.1430 Uani
H24D H 0.3705 0.5176 -0.2770 0.2150 Uiso
H24A H -0.1295 0.0176 0.2770 0.2150 Uiso
H24E H 0.1295 -0.0176 -0.2770 0.2150 Uiso
H25D H 0.3918 0.5651 -0.2925 0.2150 Uiso
H25A H -0.1082 0.0651 0.2925 0.2150 Uiso
H25E H 0.1082 -0.0651 -0.2925 0.2150 Uiso
H26D H 0.4035 0.5284 -0.4365 0.2150 Uiso
H26A H -0.0965 0.0284 0.4365 0.2150 Uiso
H26E H 0.0965 -0.0284 -0.4365 0.2150 Uiso
loop_
_atom_site_aniso_label
_atom_site_aniso_U_11
_atom_site_aniso_U_22
_atom_site_aniso_U_33
_atom_site_aniso_U_23
_atom_site_aniso_U_13
_atom_site_aniso_U_12
Cu1 0.0933(5) 0.0925(5) 0.0316(4) 0.0045(3) 0.0042(3) -0.0400(3)
N1 0.101(3) 0.104(3) 0.0275(17) 0.0082(17) 0.0060(17) -0.031(2)
O1 0.119(3) 0.134(3) 0.0437(18) 0.0186(17) -0.0105(18) -0.040(2)
O2 0.136 0.105 0.058 -0.0037 0.0074 -0.0463
O3 0.106 0.133 0.061 0.011 -0.0056 -0.0463
O4 0.14 0.117 0.0446 -0.0047 0.0167 -0.043
C1 0.036(2) 0.036(2) 0.021(3) 0.000 0.000 0.000
C2 0.076(3) 0.076(3) 0.041(2) 0.0037(19) 0.002(2) -0.027(2)
C3 0.119(4) 0.121(4) 0.037(2) -0.004(2) -0.003(2) -0.073(3)
C4 0.122(4) 0.121(4) 0.036(2) 0.001(2) -0.001(2) -0.081(3)
C5 0.099(3) 0.098(3) 0.050(2) -0.001(2) -0.002(2) -0.059(3)
C6 0.101(3) 0.104(3) 0.031(2) 0.000(2) -0.004(2) -0.063(3)
C7 0.078(3) 0.078(3) 0.057(2) -0.0034(19) -0.0045(19) -0.012(2)
C8 0.126(3) 0.126(3) 0.068(3) 0.019(2) 0.021(2) -0.028(3)
C15 0.084(3) 0.087(3) 0.065(3) 0.000(2) 0.001(2) -0.010(2)
C16 0.098(3) 0.099(3) 0.090(3) 0.002(3) 0.001(3) -0.009(3)
C17 0.107(3) 0.107(3) 0.078(3) 0.007(2) 0.009(2) -0.012(3)
C18 0.105(3) 0.103(3) 0.111(3) 0.016(2) 0.016(2) -0.013(2)
C19 0.091(3) 0.091(3) 0.090(3) 0.012(2) 0.012(2) -0.001(2)
O6 0.098(5) 0.133(6) 0.134(4) 0.075(4) 0.053(4) 0.010(3)
C20 0.102(8) 0.062(7) 0.117(6) 0.024(6) 0.028(6) 0.024(4)
C21 0.19 0.124 0.114 -0.029 0.029 -0.02
C22 0.134 0.087 0.045 -0.007 0.021 -0.036
C23 0.090(4) 0.136(4) 0.048(3) 0.023(3) -0.012(3) -0.049(3)
C24 0.135(5) 0.178(6) 0.116(5) 0.024(4) -0.045(4) -0.030(4)
Cu1A 0.0933 0.0925 0.0316 -0.0045 -0.0042 -0.04
Cu1F 0.0925 0.0933 0.0316 0.0042 -0.0045 0.04
Cu1G 0.0925 0.0933 0.0316 -0.0042 0.0045 0.04
Cu1D 0.0933 0.0925 0.0316 0.0045 0.0042 -0.04
Cu1E 0.0933 0.0925 0.0316 -0.0045 -0.0042 -0.04
N1A 0.101 0.104 0.0275 -0.0082 -0.006 -0.031
N1F 0.104 0.101 0.0275 0.006 -0.0082 0.031
N1G 0.104 0.101 0.0275 -0.006 0.0082 0.031
O1D 0.119 0.134 0.0437 0.0186 -0.0105 -0.04
O1A 0.119 0.134 0.0437 -0.0186 0.0105 -0.04
O1E 0.119 0.134 0.0437 -0.0186 0.0105 -0.04
O1F 0.134 0.119 0.0437 -0.0105 -0.0186 0.04
O1G 0.134 0.119 0.0437 0.0105 0.0186 0.04
O2D 0.136 0.105 0.058 -0.0037 0.0074 -0.0463
O2A 0.136 0.105 0.058 0.0037 -0.0074 -0.0463
O2E 0.136 0.105 0.058 0.0037 -0.0074 -0.0463
O2F 0.105 0.136 0.058 0.0074 0.0037 0.0463
O2G 0.105 0.136 0.058 -0.0074 -0.0037 0.0463
O3D 0.106 0.133 0.061 0.011 -0.0056 -0.0463
O3A 0.106 0.133 0.061 -0.011 0.0056 -0.0463
O3E 0.106 0.133 0.061 -0.011 0.0056 -0.0463
O3B 0.133 0.106 0.061 -0.0056 -0.011 0.0463
O3C 0.133 0.106 0.061 0.0056 0.011 0.0463
O4D 0.140(3) 0.117(3) 0.0446(18) -0.0047(18) 0.0167(17) -0.043(2)
O4A 0.14 0.117 0.0446 0.0047 -0.0167 -0.043
O4E 0.14 0.117 0.0446 0.0047 -0.0167 -0.043
O4B 0.117 0.14 0.0446 0.0167 0.0047 0.043
O4C 0.117 0.14 0.0446 -0.0167 -0.0047 0.043
C2A 0.076 0.076 0.041 -0.0037 -0.002 -0.027
C2F 0.076 0.076 0.041 0.002 -0.0037 0.027
C2G 0.076 0.076 0.041 -0.002 0.0037 0.027
C3A 0.119 0.121 0.037 0.004 0.003 -0.073
C3F 0.121 0.119 0.037 -0.003 0.004 0.073
C3G 0.121 0.119 0.037 0.003 -0.004 0.073
C4A 0.122 0.121 0.036 -0.001 0.001 -0.081
C4F 0.121 0.122 0.036 -0.001 -0.001 0.081
C4G 0.121 0.122 0.036 0.001 0.001 0.081
C5A 0.099 0.098 0.05 0.001 0.002 -0.059
C5F 0.098 0.099 0.05 -0.002 0.001 0.059
C5G 0.098 0.099 0.05 0.002 -0.001 0.059
C6A 0.101 0.104 0.031 0 0.004 -0.063
C6F 0.104 0.101 0.031 -0.004 0 0.063
C6G 0.104 0.101 0.031 0.004 0 0.063
C7A 0.078 0.078 0.057 0.0034 0.0045 -0.012
C7F 0.078 0.078 0.057 -0.0045 0.0034 0.012
C7G 0.078 0.078 0.057 0.0045 -0.0034 0.012
C8A 0.126 0.126 0.068 -0.019 -0.021 -0.028
C8F 0.126 0.126 0.068 0.021 -0.019 0.028
C8G 0.126 0.126 0.068 -0.021 0.019 0.028
C15A 0.084 0.087 0.065 0 -0.001 -0.01
C15F 0.087 0.084 0.065 0.001 0 0.01
C15G 0.087 0.084 0.065 -0.001 0 0.01
C16A 0.098 0.099 0.09 -0.002 -0.001 -0.009
C16F 0.099 0.098 0.09 0.001 -0.002 0.009
C16G 0.099 0.098 0.09 -0.001 0.002 0.009
C17A 0.107 0.107 0.078 -0.007 -0.009 -0.012
C17F 0.107 0.107 0.078 0.009 -0.007 0.012
C17G 0.107 0.107 0.078 -0.009 0.007 0.012
C18A 0.105 0.103 0.111 -0.016 -0.016 -0.013
C18F 0.103 0.105 0.111 0.016 -0.016 0.013
C18G 0.103 0.105 0.111 -0.016 0.016 0.013
C19A 0.091 0.091 0.09 -0.012 -0.012 -0.001
C19F 0.091 0.091 0.09 0.012 -0.012 0.001
C19G 0.091 0.091 0.09 -0.012 0.012 0.001
O6A 0.098 0.133 0.134 -0.075 -0.053 0.01
O6F 0.133 0.098 0.134 0.053 -0.075 -0.01
O6G 0.133 0.098 0.134 -0.053 0.075 -0.01
C20A 0.102 0.062 0.117 -0.024 -0.028 0.024
C20F 0.062 0.102 0.117 0.028 -0.024 -0.024
C20G 0.062 0.102 0.117 -0.028 0.024 -0.024
C21D 0.190(6) 0.124(5) 0.114(5) -0.029(4) 0.029(4) -0.020(4)
C21A 0.19 0.124 0.114 0.029 -0.029 -0.02
C21E 0.19 0.124 0.114 0.029 -0.029 -0.02
C22D 0.134(4) 0.087(4) 0.045(3) -0.007(3) 0.021(3) -0.036(3)
C22A 0.134 0.087 0.045 0.007 -0.021 -0.036
C22E 0.134 0.087 0.045 0.007 -0.021 -0.036
C23D 0.09 0.136 0.048 0.023 -0.012 -0.049
C23A 0.09 0.136 0.048 -0.023 0.012 -0.049
C23E 0.09 0.136 0.048 -0.023 0.012 -0.049
C24D 0.135 0.178 0.116 0.024 -0.045 -0.03
C24A 0.135 0.178 0.116 -0.024 0.045 -0.03
C24E 0.135 0.178 0.116 -0.024 0.045 -0.03
loop_
_geom_bond_atom_site_label_1
_geom_bond_atom_site_label_2
_geom_bond_site_symmetry_1
_geom_bond_site_symmetry_2
Cu1 N1 1_555 1_555
N1 C3 1_555 1_555
O1 Cu1 1_555 1_555
O2 Cu1 1_555 1_555
O3 C23 1_555 1_555
O4 C22 1_555 1_555
C1 C20 1_555 1_555
C2 C4 1_555 1_555
C3 H1 1_555 1_555
C4 C3 1_555 1_555
H2 C4 1_555 1_555
C5 C2 1_555 1_555
H3 C5 1_555 1_555
C6 N1 1_555 1_555
H4 C6 1_555 1_555
C7 C2 1_555 1_555
C8 C17 1_555 1_555
C15 C7 1_555 1_555
C16 C15 1_555 1_555
H13 C16 1_555 1_555
H14 C16 1_555 1_555
H15 C16 1_555 1_555
C17 C15 1_555 1_555
H16 C17 1_555 1_555
C18 C8 1_555 1_555
H17 C18 1_555 1_555
C19 C7 1_555 1_555
H18 C19 1_555 1_555
O6 C8 1_555 1_555
C20 O6 1_555 1_555
H19 C20 1_555 1_555
H20 C20 1_555 1_555
C21 H21 1_555 1_555
H22 C21 1_555 1_555
H23 C21 1_555 1_555
C22 O2 1_555 1_555
C23 O1 1_555 1_555
C24 C23 1_555 1_555
H24 C24 1_555 1_555
H25 C24 1_555 1_555
H26 C24 1_555 1_555
Cu1A N1A 1_555 1_555
Cu1F N1F 1_555 1_555
Cu1G N1G 1_555 1_555
Cu1D O3 1_555 1_555
Cu1E O1E 1_555 1_555
N1A C3A 1_555 1_555
N1F C3F 1_555 1_555
N1G C3G 1_555 1_555
O1D Cu1D 1_555 1_555
O1A Cu1A 1_555 1_555
O1E C23E 1_555 1_555
O1F Cu1F 1_555 1_555
O1G Cu1G 1_555 1_555
O2D Cu1D 1_555 1_555
O2A Cu1A 1_555 1_555
O2E Cu1E 1_555 1_555
O2F Cu1F 1_555 1_555
O2G Cu1G 1_555 1_555
O3D Cu1 1_555 1_555
O3A Cu1E 1_555 1_555
O3E Cu1A 1_555 1_555
O3B Cu1F 1_555 1_555
O3C Cu1G 1_555 1_555
O4D Cu1 1_555 1_555
O4A Cu1E 1_555 1_555
O4E Cu1A 1_555 1_555
O4B Cu1F 1_555 1_555
O4C Cu1G 1_555 1_555
C2A C4A 1_555 1_555
C2F C4F 1_555 1_555
C2G C4G 1_555 1_555
C3A H1A 1_555 1_555
C3F H1F 1_555 1_555
C3G H1G 1_555 1_555
C4A C3A 1_555 1_555
C4F C3F 1_555 1_555
C4G C3G 1_555 1_555
H2A C4A 1_555 1_555
H2F C4F 1_555 1_555
H2G C4G 1_555 1_555
C5A C2A 1_555 1_555
C5F C2F 1_555 1_555
C5G C2G 1_555 1_555
H3A C5A 1_555 1_555
H3F C5F 1_555 1_555
H3G C5G 1_555 1_555
C6A N1A 1_555 1_555
C6F N1F 1_555 1_555
C6G N1G 1_555 1_555
H4A C6A 1_555 1_555
H4F C6F 1_555 1_555
H4G C6G 1_555 1_555
C7A C2A 1_555 1_555
C7F C2F 1_555 1_555
C7G C2G 1_555 1_555
C8A C17A 1_555 1_555
C8F C17F 1_555 1_555
C8G C17G 1_555 1_555
C15A C7A 1_555 1_555
C15F C7F 1_555 1_555
C15G C7G 1_555 1_555
C16A C15A 1_555 1_555
C16F C15F 1_555 1_555
C16G C15G 1_555 1_555
H13A C16A 1_555 1_555
H13F C16F 1_555 1_555
H13G C16G 1_555 1_555
H14A C16A 1_555 1_555
H14F C16F 1_555 1_555
H14G C16G 1_555 1_555
H15A C16A 1_555 1_555
H15F C16F 1_555 1_555
H15G C16G 1_555 1_555
C17A C15A 1_555 1_555
C17F C15F 1_555 1_555
C17G C15G 1_555 1_555
H16A C17A 1_555 1_555
H16F C17F 1_555 1_555
H16G C17G 1_555 1_555
C18A C8A 1_555 1_555
C18F C8F 1_555 1_555
C18G C8G 1_555 1_555
H17A C18A 1_555 1_555
H17F C18F 1_555 1_555
H17G C18G 1_555 1_555
C19A C7A 1_555 1_555
C19F C7F 1_555 1_555
C19G C7G 1_555 1_555
H18A C19A 1_555 1_555
H18F C19F 1_555 1_555
H18G C19G 1_555 1_555
O6A C8A 1_555 1_555
O6F C8F 1_555 1_555
O6G C8G 1_555 1_555
C20A C1 1_555 1_555
C20F C1 1_555 1_555
C20G C1 1_555 1_555
H19A C20A 1_555 1_555
H19F C20F 1_555 1_555
H19G C20G 1_555 1_555
H20A C20A 1_555 1_555
H20F C20F 1_555 1_555
H20G C20G 1_555 1_555
C21D H21D 1_555 1_555
C21A H21A 1_555 1_555
C21E H21E 1_555 1_555
H22D C21D 1_555 1_555
H22A C21A 1_555 1_555
H22E C21E 1_555 1_555
H23D C21D 1_555 1_555
H23A C21A 1_555 1_555
H23E C21E 1_555 1_555
C22D O2D 1_555 1_555
C22A O2A 1_555 1_555
C22E O2E 1_555 1_555
C23D O1D 1_555 1_555
C23A O1A 1_555 1_555
C23E O3E 1_555 1_555
C24D C23D 1_555 1_555
C24A C23A 1_555 1_555
C24E C23E 1_555 1_555
H24D C24D 1_555 1_555
H24A C24A 1_555 1_555
H24E C24E 1_555 1_555
H25D C24D 1_555 1_555
H25A C24A 1_555 1_555
H25E C24E 1_555 1_555
H26D C24D 1_555 1_555
H26A C24A 1_555 1_555
H26E C24E 1_555 1_555
O4 Cu1D 1_555 1_555
C5 C6 1_555 1_555
C18 C19 1_555 1_555
C21 C22 1_555 1_555
O3D C23D 1_555 1_555
O3A C23A 1_555 1_555
O4D C22D 1_555 1_555
O4A C22A 1_555 1_555
O4E C22E 1_555 1_555
C5A C6A 1_555 1_555
C5F C6F 1_555 1_555
C5G C6G 1_555 1_555
C18A C19A 1_555 1_555
C18F C19F 1_555 1_555
C18G C19G 1_555 1_555
O6A C20A 1_555 1_555
O6F C20F 1_555 1_555
O6G C20G 1_555 1_555
C21D C22D 1_555 1_555
C21A C22A 1_555 1_555
C21E C22E 1_555 1_555

#END
