
#######################################################################
#
#                 Cambridge Crystallographic Data Centre
#                                CCDC 
#
#######################################################################
#
# If this CIF has been generated from an entry in the Cambridge 
# Structural Database, then it will include bibliographic, chemical, 
# crystal, experimental, refinement or atomic coordinate data resulting 
# from the CCDC's data processing and validation procedures.
#
#######################################################################

data_GETXAG01
_chemical_formula_moiety         '(C28 H30 Co3 N20 O4)n'
_symmetry_cell_setting           monoclinic
_symmetry_space_group_name_H-M   'P 21/n'
_symmetry_Int_Tables_number      14
_space_group_name_Hall           '-P 2yn'
loop_
_symmetry_equiv_pos_site_id
_symmetry_equiv_pos_as_xyz
1 x,y,z
2 1/2-x,1/2+y,1/2-z
3 -x,-y,-z
4 1/2+x,1/2-y,1/2+z
_cell_length_a                   6.6673(5)
_cell_length_b                   21.2751(15)
_cell_length_c                   13.0771(9)
_cell_angle_alpha                90
_cell_angle_beta                 102.492(2)
_cell_angle_gamma                90
_cell_volume                     1811.04
loop_
_atom_site_label
_atom_site_type_symbol
_atom_site_fract_x
_atom_site_fract_y
_atom_site_fract_z
Co1 Co 1.5000 0.5000 1.0000
Co2 Co 0.98249(3) 0.56695(2) 0.95344(2)
O1 O 1.21342(16) 0.51220(5) 1.05013(8)
H1 H 1.234(3) 0.5249(9) 1.1087(12)
O2 O 0.76923(18) 0.60969(6) 0.82694(9)
H2 H 0.666(3) 0.5882(9) 0.8080(16)
H3 H 0.827(3) 0.6065(10) 0.7793(14)
N1 N 1.2364(3) 0.58064(8) 0.25847(12)
H4 H 1.127(3) 0.6013(10) 0.2196(16)
H5 H 1.360(3) 0.5897(10) 0.2415(16)
N2 N 1.0758(2) 0.56393(7) 0.73302(11)
N3 N 1.1414(2) 0.54858(7) 0.83340(11)
N4 N 1.4103(2) 0.54462(7) 0.76477(11)
N5 N 1.3453(2) 0.53847(7) 0.85363(11)
N6 N 0.8158(2) 0.60539(6) 1.06103(10)
N7 N 0.6325(2) 0.58591(6) 1.06858(10)
N8 N 0.8684(2) 0.65639(6) 1.12200(11)
N9 N 0.5602(2) 0.62281(7) 1.13546(11)
N10 N 0.6601(2) 0.84430(6) 1.48558(11)
H6 H 0.784(2) 0.8538(9) 1.5208(14)
H7 H 0.597(3) 0.8261(9) 1.5286(14)
C1 C 1.2396(3) 0.58029(9) 0.36583(14)
C2 C 1.0561(3) 0.58174(10) 0.40109(14)
H8 H 0.9290 0.5859 0.3520
C3 C 1.4237(3) 0.57632(11) 0.43946(15)
H9 H 1.5499 0.5770 0.4169
C4 C 1.0582(3) 0.57715(10) 0.50691(15)
H10 H 0.9323 0.5783 0.5297
C5 C 1.4256(3) 0.57141(11) 0.54540(15)
H11 H 1.5530 0.5683 0.5945
C6 C 1.2426(3) 0.57091(9) 0.58060(14)
C7 C 1.2437(3) 0.56099(8) 0.69131(13)
C8 C 0.7083(2) 0.66605(8) 1.16696(12)
C9 C 0.6961(3) 0.71522(8) 1.24459(13)
C10 C 0.8614(3) 0.75462(8) 1.28424(14)
H12 H 0.9823 0.7521 1.2571
C11 C 0.5176(3) 0.72077(8) 1.28335(14)
H13 H 0.4020 0.6952 1.2551
C12 C 0.8512(3) 0.79749(8) 1.36306(13)
H14 H 0.9646 0.8243 1.3893
C13 C 0.5069(3) 0.76306(8) 1.36243(14)
H15 H 0.3850 0.7661 1.3886
C14 C 0.6749(3) 0.80112(7) 1.40355(12)
Co2B Co 1.01751(3) 0.43305(2) 1.04656(2)
O1B O 0.78658(16) 0.48780(5) 0.94987(8)
H1B H 0.766(3) 0.4751(9) 0.8913(12)
O2B O 1.23077(18) 0.39031(6) 1.17306(9)
H2B H 1.334(3) 0.4118(9) 1.1920(16)
H3B H 1.173(3) 0.3935(10) 1.2207(14)
N1B N 0.7636(3) 0.41936(8) 1.74153(12)
H4B H 0.873(3) 0.3987(10) 1.7804(16)
H5B H 0.640(3) 0.4103(10) 1.7585(16)
N2B N 0.9242(2) 0.43607(7) 1.26698(11)
N3B N 0.8586(2) 0.45142(7) 1.16660(11)
N4B N 0.5897(2) 0.45538(7) 1.23523(11)
N5B N 0.6547(2) 0.46153(7) 1.14637(11)
N6B N 1.1842(2) 0.39461(6) 0.93897(10)
N7B N 1.3675(2) 0.41409(6) 0.93142(10)
N8B N 1.1316(2) 0.34361(6) 0.87800(11)
N9B N 1.4398(2) 0.37719(7) 0.86454(11)
N10B N 1.3399(2) 0.15570(6) 0.51442(11)
H6B H 1.216(2) 0.1462(9) 0.4792(14)
H7B H 1.403(3) 0.1739(9) 0.4714(14)
C1B C 0.7604(3) 0.41971(9) 1.63417(14)
C2B C 0.9439(3) 0.41826(10) 1.59891(14)
H8B H 1.0710 0.4141 1.6480
C3B C 0.5763(3) 0.42368(11) 1.56054(15)
H9B H 0.4501 0.4230 1.5831
C4B C 0.9418(3) 0.42285(10) 1.49309(15)
H10B H 1.0677 0.4217 1.4703
C5B C 0.5744(3) 0.42859(11) 1.45460(15)
H11B H 0.4470 0.4317 1.4055
C6B C 0.7574(3) 0.42909(9) 1.41940(14)
C7B C 0.7563(3) 0.43901(8) 1.30869(13)
C8B C 1.2917(2) 0.33395(8) 0.83304(12)
C9B C 1.3039(3) 0.28478(8) 0.75541(13)
C10B C 1.1386(3) 0.24538(8) 0.71576(14)
H12B H 1.0177 0.2479 0.7429
C11B C 1.4824(3) 0.27923(8) 0.71665(14)
H13B H 1.5980 0.3048 0.7449
C12B C 1.1488(3) 0.20251(8) 0.63694(13)
H14B H 1.0354 0.1757 0.6107
C13B C 1.4931(3) 0.23694(8) 0.63757(14)
H15B H 1.6150 0.2339 0.6114
C14B C 1.3251(3) 0.19888(7) 0.59645(12)
Co1_2 Co 0.5000 0.5000 1.0000
Co2A Co 1.51751(3) 0.06695(2) 0.54656(2)
Co2C Co 0.48249(3) 0.93305(2) 1.45344(2)
O1B_2 O 1.78658(16) 0.48780(5) 0.94987(8)
N5B_2 N 1.6547(2) 0.46153(7) 1.14637(11)
N7_2 N 1.6325(2) 0.58591(6) 1.06858(10)
N10A N 0.8399(2) 0.34430(6) 1.01442(11)
N10C N 1.1601(2) 0.65570(6) 0.98558(11)
loop_
_geom_bond_atom_site_label_1
_geom_bond_atom_site_label_2
_geom_bond_site_symmetry_1
_geom_bond_site_symmetry_2
Co1 O1 1_555 1_555
Co2 O1 1_555 1_555
O1 H1 1_555 1_555
O2 Co2 1_555 1_555
H2 O2 1_555 1_555
H3 O2 1_555 1_555
N1 H4 1_555 1_555
H5 N1 1_555 1_555
N2 N3 1_555 1_555
N3 Co2 1_555 1_555
N4 N5 1_555 1_555
N5 Co1 1_555 1_555
N6 Co2 1_555 1_555
N7 N6 1_555 1_555
N8 N6 1_555 1_555
N9 N7 1_555 1_555
N10 H6 1_555 1_555
H7 N10 1_555 1_555
C1 N1 1_555 1_555
C2 C1 1_555 1_555
H8 C2 1_555 1_555
C3 C1 1_555 1_555
H9 C3 1_555 1_555
C4 C2 1_555 1_555
H10 C4 1_555 1_555
C5 C3 1_555 1_555
H11 C5 1_555 1_555
C6 C4 1_555 1_555
C7 N2 1_555 1_555
C8 N8 1_555 1_555
C9 C8 1_555 1_555
C10 C9 1_555 1_555
H12 C10 1_555 1_555
C11 C9 1_555 1_555
H13 C11 1_555 1_555
C12 C10 1_555 1_555
H14 C12 1_555 1_555
C13 C11 1_555 1_555
H15 C13 1_555 1_555
C14 N10 1_555 1_555
Co2B O1 1_555 1_555
O1B Co2 1_555 1_555
H1B O1B 1_555 1_555
O2B Co2B 1_555 1_555
H2B O2B 1_555 1_555
H3B O2B 1_555 1_555
N1B H4B 1_555 1_555
H5B N1B 1_555 1_555
N2B N3B 1_555 1_555
N3B Co2B 1_555 1_555
N4B N5B 1_555 1_555
N5B N3B 1_555 1_555
N6B Co2B 1_555 1_555
N7B Co1 1_555 1_555
N8B N6B 1_555 1_555
N9B N7B 1_555 1_555
N10B H6B 1_555 1_555
H7B N10B 1_555 1_555
C1B N1B 1_555 1_555
C2B C1B 1_555 1_555
H8B C2B 1_555 1_555
C3B C1B 1_555 1_555
H9B C3B 1_555 1_555
C4B C2B 1_555 1_555
H10B C4B 1_555 1_555
C5B C3B 1_555 1_555
H11B C5B 1_555 1_555
C6B C4B 1_555 1_555
C7B N2B 1_555 1_555
C8B N8B 1_555 1_555
C9B C8B 1_555 1_555
C10B C9B 1_555 1_555
H12B C10B 1_555 1_555
C11B C9B 1_555 1_555
H13B C11B 1_555 1_555
C12B C10B 1_555 1_555
H14B C12B 1_555 1_555
C13B C11B 1_555 1_555
H15B C13B 1_555 1_555
C14B N10B 1_555 1_555
Co1_2 N7 1_555 1_555
Co2A N10B 1_555 1_555
Co2C N10 1_555 1_555
O1B_2 Co1 1_555 1_555
N5B_2 Co1 1_555 1_555
N7_2 Co1 1_555 1_555
N10A Co2B 1_555 1_555
N10C Co2 1_555 1_555
N3 N5 1_555 1_555
N4 C7 1_555 1_555
N9 C8 1_555 1_555
C5 C6 1_555 1_555
C6 C7 1_555 1_555
C12 C14 1_555 1_555
C13 C14 1_555 1_555
Co2B O1B 1_555 1_555
O1B Co1_2 1_555 1_555
N4B C7B 1_555 1_555
N5B Co1_2 1_555 1_555
N6B N7B 1_555 1_555
N9B C8B 1_555 1_555
C5B C6B 1_555 1_555
C6B C7B 1_555 1_555
C12B C14B 1_555 1_555
C13B C14B 1_555 1_555

#END
