
#######################################################################
#
#                 Cambridge Crystallographic Data Centre
#                                CCDC 
#
#######################################################################
#
# If this CIF has been generated from an entry in the Cambridge 
# Structural Database, then it will include bibliographic, chemical, 
# crystal, experimental, refinement or atomic coordinate data resulting 
# from the CCDC's data processing and validation procedures.
#
#######################################################################

data_QUJJUC
_chemical_formula_moiety         '(C31 H30 Br6 Cr2 N1 O12 1-)n'
_symmetry_cell_setting           cubic
_symmetry_space_group_name_H-M   'I -4 3 d'
_symmetry_Int_Tables_number      220
_space_group_name_Hall           'I -4bd 2c 3'
loop_
_symmetry_equiv_pos_site_id
_symmetry_equiv_pos_as_xyz
1 x,y,z
2 1/2-x,-y,1/2+z
3 -x,1/2+y,1/2-z
4 1/2+x,1/2-y,-z
5 z,x,y
6 1/2+z,1/2-x,-y
7 1/2-z,-x,1/2+y
8 -z,1/2+x,1/2-y
9 y,z,x
10 -y,1/2+z,1/2-x
11 1/2+y,1/2-z,-x
12 1/2-y,-z,1/2+x
13 1/4+y,1/4+x,1/4+z
14 1/4-y,3/4-x,3/4+z
15 3/4+y,1/4-x,3/4-z
16 3/4-y,3/4+x,1/4-z
17 1/4+x,1/4+z,1/4+y
18 3/4-x,3/4+z,1/4-y
19 1/4-x,3/4-z,3/4+y
20 3/4+x,1/4-z,3/4-y
21 1/4+z,1/4+y,1/4+x
22 3/4+z,1/4-y,3/4-x
23 3/4-z,3/4+y,1/4-x
24 1/4-z,3/4-y,3/4+x
25 1/2+x,1/2+y,1/2+z
26 -x,1/2-y,z
27 1/2-x,y,-z
28 x,-y,1/2-z
29 1/2+z,1/2+x,1/2+y
30 z,-x,1/2-y
31 -z,1/2-x,y
32 1/2-z,x,-y
33 1/2+y,1/2+z,1/2+x
34 1/2-y,z,-x
35 y,-z,1/2-x
36 -y,1/2-z,x
37 3/4+y,3/4+x,3/4+z
38 3/4-y,1/4-x,1/4+z
39 1/4+y,3/4-x,1/4-z
40 1/4-y,1/4+x,3/4-z
41 3/4+x,3/4+z,3/4+y
42 1/4-x,1/4+z,3/4-y
43 3/4-x,1/4-z,1/4+y
44 1/4+x,3/4-z,1/4-y
45 3/4+z,3/4+y,3/4+x
46 1/4+z,3/4-y,1/4-x
47 1/4-z,1/4+y,3/4-x
48 3/4-z,1/4-y,1/4+x
_cell_length_a                   22.4250(9)
_cell_length_b                   22.4250(9)
_cell_length_c                   22.4250(9)
_cell_angle_alpha                90
_cell_angle_beta                 90
_cell_angle_gamma                90
_cell_volume                     11277.1
loop_
_atom_site_label
_atom_site_type_symbol
_atom_site_fract_x
_atom_site_fract_y
_atom_site_fract_z
Br1 Br 0.66427(5) 0.42066(5) 0.12080(5)
C1 C 0.7120(4) 0.4173(4) 0.0522(5)
C2 C 0.6850(4) 0.4160(3) -0.0029(4)
C3 C 0.7740(4) 0.4152(4) 0.0598(5)
O1 O 0.6298(3) 0.4156(2) -0.0124(3)
O2 O 0.8024(3) 0.4112(3) 0.1083(3)
Cr1 Cr 0.60353(8) 0.39647(8) -0.10353(8)
Br1Z Br 0.83573(5) 0.42066(5) -0.12080(5)
C1Z C 0.7880(4) 0.4173(4) -0.0522(5)
C2Z C 0.8150(4) 0.4160(3) 0.0029(4)
C3Z C 0.7260(4) 0.4152(4) -0.0598(5)
O1Z O 0.8702(3) 0.4156(2) 0.0124(3)
O2Z O 0.6976(3) 0.4112(3) -0.1083(3)
Br1F Br 0.37920(5) 0.33573(5) -0.07934(5)
C1F C 0.4478(5) 0.2880(4) -0.0827(4)
C2F C 0.5029(4) 0.3150(4) -0.0840(3)
C3F C 0.4402(5) 0.2260(4) -0.0848(4)
O1F O 0.5124(3) 0.3702(3) -0.0844(2)
O2F O 0.3917(3) 0.1976(3) -0.0888(3)
Br1BA Br 0.62080(5) 0.16427(5) -0.07934(5)
C1BA C 0.5522(5) 0.2120(4) -0.0827(4)
C2BA C 0.4971(4) 0.1850(4) -0.0840(3)
C3BA C 0.5598(5) 0.2740(4) -0.0848(4)
O1BA O 0.4876(3) 0.1298(3) -0.0844(2)
O2BA O 0.6083(3) 0.3024(3) -0.0888(3)
Br1I Br 0.57934(5) 0.62080(5) -0.16427(5)
C1I C 0.5827(4) 0.5522(5) -0.2120(4)
C2I C 0.5840(3) 0.4971(4) -0.1850(4)
C3I C 0.5848(4) 0.5598(5) -0.2740(4)
O1I O 0.5844(2) 0.4876(3) -0.1298(3)
O2I O 0.5888(3) 0.6083(3) -0.3024(3)
Br1IA Br 0.57934(5) 0.37920(5) -0.33573(5)
C1IA C 0.5827(4) 0.4478(5) -0.2880(4)
C2IA C 0.5840(3) 0.5029(4) -0.3150(4)
C3IA C 0.5848(4) 0.4402(5) -0.2260(4)
O1IA O 0.5844(2) 0.5124(3) -0.3702(3)
O2IA O 0.5888(3) 0.3917(3) -0.1976(3)
Cr1Z Cr 0.89647(8) 0.39647(8) 0.10353(8)
O1CA O 0.9876(3) 0.3702(3) 0.0844(2)
O1FA O 0.9156(2) 0.4876(3) 0.1298(3)
O2G O 0.8917(3) 0.3024(3) 0.0888(3)
O2J O 0.9112(3) 0.3917(3) 0.1976(3)
Cr1Y Cr 0.39647(8) 0.10353(8) -0.10353(8)
Cr1AA Cr 0.60353(8) 0.60353(8) -0.39647(8)
N1 N 0.7644(3) 0.2644(3) 0.2356(3)
C4 C 0.8035(5) 0.3035(5) 0.1965(5)
H1 H 0.7825 0.3408 0.1876
C5 C 0.7006(5) 0.2658(4) 0.2146(5)
H2 H 0.6827 0.3042 0.2270
H3 H 0.6785 0.2336 0.2352
C6 C 0.6913(5) 0.2585(5) 0.1478(5)
H4 H 0.7094 0.2927 0.1266
H5 H 0.7111 0.2216 0.1340
C7 C 0.6253(5) 0.2555(6) 0.1337(5)
H6 H 0.6087 0.2196 0.1532
H7 H 0.6057 0.2906 0.1518
C8 C 0.6094(8) 0.2535(7) 0.0697(6)
H8 H 0.6174 0.2924 0.0515
H9 H 0.5669 0.2440 0.0655
H10 H 0.6332 0.2228 0.0497
H1G H 0.8124 0.2825 0.1592
C5G C 0.7854(5) 0.2006(5) 0.2342(4)
H2G H 0.7730 0.1827 0.1958
H3G H 0.7648 0.1785 0.2664
C6G C 0.8522(5) 0.1913(5) 0.2415(5)
H4G H 0.8734 0.2094 0.2073
H5G H 0.8660 0.2111 0.2784
C7G C 0.8663(5) 0.1253(5) 0.2445(6)
H6G H 0.8468 0.1087 0.2804
H7G H 0.8482 0.1057 0.2094
C8G C 0.9303(6) 0.1094(8) 0.2465(7)
H8G H 0.9485 0.1174 0.2076
H9G H 0.9345 0.0669 0.2560
H10G H 0.9503 0.1332 0.2772
H1J H 0.8408 0.3124 0.2175
C5J C 0.7658(4) 0.2854(5) 0.2994(5)
H2J H 0.8042 0.2730 0.3173
H3J H 0.7336 0.2648 0.3215
C6J C 0.7585(5) 0.3522(5) 0.3087(5)
H4J H 0.7927 0.3734 0.2906
H5J H 0.7216 0.3660 0.2889
C7J C 0.7555(6) 0.3663(5) 0.3747(5)
H6J H 0.7196 0.3468 0.3913
H7J H 0.7906 0.3482 0.3943
C8J C 0.7535(7) 0.4303(6) 0.3906(8)
H8J H 0.7924 0.4485 0.3826
H9J H 0.7440 0.4345 0.4331
H10J H 0.7228 0.4503 0.3668
loop_
_geom_bond_atom_site_label_1
_geom_bond_atom_site_label_2
_geom_bond_site_symmetry_1
_geom_bond_site_symmetry_2
Br1 C1 1_555 1_555
C1 C2 1_555 1_555
C2 O1 1_555 1_555
C3 C1 1_555 1_555
O1 Cr1 1_555 1_555
O2 C3 1_555 1_555
Cr1 O2Z 1_555 1_555
N1 C4 1_555 1_555
C4 H1 1_555 1_555
C5 N1 1_555 1_555
H2 C5 1_555 1_555
H3 C5 1_555 1_555
C6 C5 1_555 1_555
H4 C6 1_555 1_555
H5 C6 1_555 1_555
C7 C6 1_555 1_555
H6 C7 1_555 1_555
H7 C7 1_555 1_555
C8 C7 1_555 1_555
H8 C8 1_555 1_555
H9 C8 1_555 1_555
H10 C8 1_555 1_555
Br1Z C1Z 1_555 1_555
C1Z C2Z 1_555 1_555
C2Z C3 1_555 1_555
C3Z C2 1_555 1_555
O1Z C2Z 1_555 1_555
O2Z C3Z 1_555 1_555
Br1F C1F 1_555 1_555
C1F C2F 1_555 1_555
C2F O1F 1_555 1_555
C3F C1F 1_555 1_555
O1F Cr1 1_555 1_555
O2F C3F 1_555 1_555
Br1BA C1BA 1_555 1_555
C1BA C2BA 1_555 1_555
C2BA C3F 1_555 1_555
C3BA C2F 1_555 1_555
O1BA C2BA 1_555 1_555
O2BA Cr1 1_555 1_555
Br1I C1I 1_555 1_555
C1I C2I 1_555 1_555
C2I O1I 1_555 1_555
C3I C1I 1_555 1_555
O1I Cr1 1_555 1_555
O2I C3I 1_555 1_555
Br1IA C1IA 1_555 1_555
C1IA C2IA 1_555 1_555
C2IA C3I 1_555 1_555
C3IA C2I 1_555 1_555
O1IA C2IA 1_555 1_555
O2IA Cr1 1_555 1_555
Cr1Z O2 1_555 1_555
O1CA Cr1Z 1_555 1_555
O1FA Cr1Z 1_555 1_555
O2G Cr1Z 1_555 1_555
O2J Cr1Z 1_555 1_555
Cr1Y O2F 1_555 1_555
Cr1AA O2I 1_555 1_555
H1G C4 1_555 1_555
C5G N1 1_555 1_555
H2G C5G 1_555 1_555
H3G C5G 1_555 1_555
C6G C5G 1_555 1_555
H4G C6G 1_555 1_555
H5G C6G 1_555 1_555
C7G C6G 1_555 1_555
H6G C7G 1_555 1_555
H7G C7G 1_555 1_555
C8G C7G 1_555 1_555
H8G C8G 1_555 1_555
H9G C8G 1_555 1_555
H10G C8G 1_555 1_555
H1J C4 1_555 1_555
C5J N1 1_555 1_555
H2J C5J 1_555 1_555
H3J C5J 1_555 1_555
C6J C5J 1_555 1_555
H4J C6J 1_555 1_555
H5J C6J 1_555 1_555
C7J C6J 1_555 1_555
H6J C7J 1_555 1_555
H7J C7J 1_555 1_555
C8J C7J 1_555 1_555
H8J C8J 1_555 1_555
H9J C8J 1_555 1_555
H10J C8J 1_555 1_555
C1Z C3Z 1_555 1_555
O1Z Cr1Z 1_555 1_555
C1BA C3BA 1_555 1_555
C3BA O2BA 1_555 1_555
O1BA Cr1Y 1_555 1_555
C1IA C3IA 1_555 1_555
C3IA O2IA 1_555 1_555
O1IA Cr1AA 1_555 1_555

#END
