
#######################################################################
#
#                 Cambridge Crystallographic Data Centre
#                                CCDC 
#
#######################################################################
#
# If this CIF has been generated from an entry in the Cambridge 
# Structural Database, then it will include bibliographic, chemical, 
# crystal, experimental, refinement or atomic coordinate data resulting 
# from the CCDC's data processing and validation procedures.
#
#######################################################################

data_QEWDON
_chemical_formula_moiety         '(C40 H24 N2 O14 Zn4)n'
_symmetry_cell_setting           tetragonal
_symmetry_space_group_name_H-M   'P 4/n c c'
_symmetry_Int_Tables_number      130
_space_group_name_Hall           '-P 4a 2ac'
loop_
_symmetry_equiv_pos_site_id
_symmetry_equiv_pos_as_xyz
1 x,y,z
2 1/2-x,1/2-y,z
3 1/2-y,x,z
4 y,1/2-x,z
5 -x,1/2+y,1/2-z
6 1/2+x,-y,1/2-z
7 1/2+y,1/2+x,1/2-z
8 -y,-x,1/2-z
9 -x,-y,-z
10 1/2+x,1/2+y,-z
11 1/2+y,-x,-z
12 -y,1/2+x,-z
13 x,1/2-y,1/2+z
14 1/2-x,y,1/2+z
15 1/2-y,1/2-x,1/2+z
16 y,x,1/2+z
_cell_length_a                   16.2782(3)
_cell_length_b                   16.2782(3)
_cell_length_c                   30.4992(12)
_cell_angle_alpha                90
_cell_angle_beta                 90
_cell_angle_gamma                90
_cell_volume                     8081.67
loop_
_atom_site_label
_atom_site_type_symbol
_atom_site_fract_x
_atom_site_fract_y
_atom_site_fract_z
_atom_site_U_iso_or_equiv
_atom_site_thermal_displace_type
C1 C 0.5919(3) 0.0062(3) 0.15390(16) 0.0160 Uani
C2 C 0.6377(3) 0.0058(3) 0.11526(16) 0.0187 Uani
H1 H 0.6124 0.0215 0.0885 0.0220 Uiso
C3 C 0.7200(3) -0.0172(3) 0.11537(17) 0.0217 Uani
C4 C 0.7544(3) -0.0425(3) 0.15474(15) 0.0217 Uani
H2 H 0.8103 -0.0594 0.1553 0.0260 Uiso
C5 C 0.7086(3) -0.0436(3) 0.19395(15) 0.0177 Uani
C6 C 0.6278(3) -0.0184(3) 0.19312(16) 0.0160 Uani
H3 H 0.5965 -0.0179 0.2194 0.0190 Uiso
C7 C 0.7489(3) -0.0668(3) 0.23584(16) 0.0190 Uani
C8 C 0.7690(3) -0.0124(3) 0.07415(17) 0.0230 Uani
C9 C 0.7353(3) -0.0336(3) 0.03414(17) 0.0247 Uani
H4 H 0.6801 -0.0522 0.0329 0.0290 Uiso
C10 C 0.7807(3) -0.0281(3) -0.00433(17) 0.0237 Uani
C11 C 0.8617(3) 0.0005(4) -0.00265(18) 0.0293 Uani
H5 H 0.8933 0.0047 -0.0288 0.0350 Uiso
C12 C 0.8955(3) 0.0224(4) 0.03725(18) 0.0327 Uani
H6 H 0.9504 0.0420 0.0385 0.0400 Uiso
C13 C 0.8504(3) 0.0160(4) 0.07521(18) 0.0307 Uani
H7 H 0.8745 0.0311 0.1024 0.0370 Uiso
C14 C 0.7435(3) -0.0540(3) -0.04660(17) 0.0257 Uani
C15 C 0.3709(3) -0.1085(4) 0.1938(2) 0.0377 Uani
H8 H 0.4255 -0.0982 0.2033 0.0450 Uiso
C16 C 0.3452(3) -0.1878(4) 0.1924(2) 0.0390 Uani
H9 H 0.3815 -0.2305 0.2010 0.0470 Uiso
C17 C 0.2663(3) -0.2068(3) 0.1784(2) 0.0317 Uani
C18 C 0.2189(4) -0.1408(4) 0.1666(3) 0.0507 Uani
H10 H 0.1640 -0.1495 0.1570 0.0610 Uiso
C19 C 0.2497(4) -0.0619(4) 0.1684(2) 0.0410 Uani
H11 H 0.2155 -0.0181 0.1588 0.0490 Uiso
N1 N 0.3245(3) -0.0440(3) 0.18266(15) 0.0283 Uani
O1 O 0.7084(2) -0.0902(2) 0.26816(12) 0.0268 Uani
O2 O 0.8268(2) -0.0585(2) 0.23707(11) 0.0235 Uani
O3 O 0.6663(2) -0.0611(2) -0.04762(11) 0.0285 Uani
O4 O 0.7859(2) -0.0670(3) -0.07984(12) 0.0387 Uani
O5 O 0.32258(19) 0.14940(19) 0.15299(10) 0.0136 Uani
H12 H 0.2714(13) 0.151(4) 0.1566(17) 0.0260 Uiso
C20 C 0.5060(3) 0.0394(3) 0.15408(16) 0.0160 Uani
O6 O 0.47562(19) 0.0563(2) 0.19043(11) 0.0225 Uani
O7 O 0.4714(2) 0.0477(2) 0.11728(11) 0.0224 Uani
Zn1 Zn 0.36117(3) 0.09004(4) 0.20387(2) 0.0245 Uani
Zn2 Zn 0.37532(3) 0.11400(4) 0.100303(19) 0.0220 Uani
C15A C 0.1291(3) -0.3915(4) 0.1938(2) 0.0377 Uani
H8A H 0.0745 -0.4018 0.2033 0.0450 Uiso
C16A C 0.1548(3) -0.3122(4) 0.1924(2) 0.0390 Uani
H9A H 0.1185 -0.2695 0.2010 0.0470 Uiso
C17A C 0.2337(3) -0.2932(3) 0.1784(2) 0.0317 Uani
C18A C 0.2811(4) -0.3592(4) 0.1666(3) 0.0507 Uani
H10A H 0.3360 -0.3505 0.1570 0.0610 Uiso
C19A C 0.2503(4) -0.4381(4) 0.1684(2) 0.0410 Uani
H11A H 0.2845 -0.4819 0.1588 0.0490 Uiso
N1A N 0.1755(3) -0.4560(3) 0.18266(15) 0.0283 Uani
C1A C -0.0919(3) -0.5062(3) 0.15390(16) 0.0160 Uani
C2A C -0.1377(3) -0.5058(3) 0.11526(16) 0.0187 Uani
H1A H -0.1124 -0.5215 0.0885 0.0220 Uiso
C3A C -0.2200(3) -0.4828(3) 0.11537(17) 0.0217 Uani
C4A C -0.2544(3) -0.4575(3) 0.15474(15) 0.0217 Uani
H2A H -0.3103 -0.4406 0.1553 0.0260 Uiso
C5A C -0.2086(3) -0.4564(3) 0.19395(15) 0.0177 Uani
C6A C -0.1278(3) -0.4816(3) 0.19312(16) 0.0160 Uani
H3A H -0.0965 -0.4821 0.2194 0.0190 Uiso
C7A C -0.2489(3) -0.4332(3) 0.23584(16) 0.0190 Uani
C8A C -0.2690(3) -0.4876(3) 0.07415(17) 0.0230 Uani
C9A C -0.2353(3) -0.4664(3) 0.03414(17) 0.0247 Uani
H4A H -0.1801 -0.4478 0.0329 0.0290 Uiso
C10A C -0.2807(3) -0.4719(3) -0.00433(17) 0.0237 Uani
C11A C -0.3617(3) -0.5005(4) -0.00265(18) 0.0293 Uani
H5A H -0.3933 -0.5047 -0.0288 0.0350 Uiso
C12A C -0.3955(3) -0.5224(4) 0.03725(18) 0.0327 Uani
H6A H -0.4504 -0.5420 0.0385 0.0400 Uiso
C13A C -0.3504(3) -0.5160(4) 0.07521(18) 0.0307 Uani
H7A H -0.3745 -0.5311 0.1024 0.0370 Uiso
C14A C -0.2435(3) -0.4460(3) -0.04660(17) 0.0257 Uani
O1A O -0.2084(2) -0.4098(2) 0.26816(12) 0.0268 Uani
O2A O -0.3268(2) -0.4415(2) 0.23707(11) 0.0235 Uani
O3A O -0.1663(2) -0.4389(2) -0.04762(11) 0.0285 Uani
O4A O -0.2859(2) -0.4330(3) -0.07984(12) 0.0387 Uani
O5A O 0.17742(19) -0.64940(19) 0.15299(10) 0.0136 Uani
H12A H 0.2286(13) -0.651(4) 0.1566(17) 0.0260 Uiso
C20A C -0.0060(3) -0.5394(3) 0.15408(16) 0.0160 Uani
O6A O 0.02438(19) -0.5563(2) 0.19043(11) 0.0225 Uani
O7A O 0.0286(2) -0.5477(2) 0.11728(11) 0.0224 Uani
Zn1A Zn 0.13883(3) -0.59004(4) 0.20387(2) 0.0245 Uani
Zn2A Zn 0.12468(3) -0.61400(4) 0.100303(19) 0.0220 Uani
O1F O 0.4098(2) 0.2084(2) 0.23184(12) 0.0268 Uani
O1G O 0.0902(2) -0.7084(2) 0.23184(12) 0.0268 Uani
O2D O 0.1732(2) -0.5585(2) 0.26293(11) 0.0235 Uani
O2E O 0.3268(2) 0.0585(2) 0.26293(11) 0.0235 Uani
O3H O 0.3337(2) 0.0611(2) 0.04762(11) 0.0285 Uani
O3I O 0.1663(2) -0.5611(2) 0.04762(11) 0.0285 Uani
O4J O 0.4330(3) 0.2141(2) 0.07984(12) 0.0387 Uani
O4K O 0.0670(3) -0.7141(2) 0.07984(12) 0.0387 Uani
Zn1D Zn -0.36117(3) -0.40996(4) 0.29613(2) 0.0245 Uani
Zn1E Zn 0.86117(3) -0.09004(4) 0.29613(2) 0.0245 Uani
Zn1F Zn 0.59004(4) -0.13883(3) 0.29613(2) 0.0245 Uani
Zn1G Zn -0.09004(4) -0.36117(3) 0.29613(2) 0.0245 Uani
Zn2H Zn 0.62468(3) -0.11400(4) -0.100303(19) 0.0220 Uani
Zn2I Zn -0.12468(3) -0.38600(4) -0.100303(19) 0.0220 Uani
Zn2J Zn -0.38600(4) -0.37532(3) -0.100303(19) 0.0220 Uani
Zn2K Zn 0.88600(4) -0.12468(3) -0.100303(19) 0.0220 Uani
loop_
_atom_site_aniso_label
_atom_site_aniso_U_11
_atom_site_aniso_U_22
_atom_site_aniso_U_33
_atom_site_aniso_U_23
_atom_site_aniso_U_13
_atom_site_aniso_U_12
C1 0.015(2) 0.018(2) 0.015(3) 0.0013(19) -0.0042(19) 0.0007(18)
C2 0.021(2) 0.025(2) 0.010(3) 0.0013(19) -0.0007(19) 0.0002(19)
C3 0.020(2) 0.032(3) 0.013(3) -0.002(2) 0.001(2) 0.001(2)
C4 0.014(2) 0.035(3) 0.016(3) -0.002(2) -0.004(2) 0.002(2)
C5 0.020(2) 0.020(2) 0.013(3) -0.0015(19) -0.0008(19) -0.0022(19)
C6 0.019(2) 0.016(2) 0.013(3) 0.0005(18) 0.0016(19) -0.0018(18)
C7 0.022(2) 0.016(2) 0.019(3) -0.0006(19) 0.000(2) 0.004(2)
C8 0.017(3) 0.035(3) 0.017(3) -0.001(2) -0.004(2) 0.000(2)
C9 0.014(2) 0.040(3) 0.020(3) -0.003(2) 0.001(2) -0.002(2)
C10 0.021(2) 0.037(3) 0.013(3) -0.001(2) -0.001(2) 0.002(2)
C11 0.022(3) 0.050(3) 0.016(3) -0.007(2) 0.005(2) -0.003(2)
C12 0.017(3) 0.058(4) 0.023(3) -0.002(3) 0.004(2) -0.008(3)
C13 0.022(3) 0.053(4) 0.017(3) -0.008(3) -0.006(2) -0.001(2)
C14 0.022(3) 0.039(3) 0.016(3) -0.003(2) -0.003(2) 0.000(2)
C15 0.023(3) 0.042(3) 0.048(4) 0.011(3) -0.006(3) -0.001(2)
C16 0.026(3) 0.035(3) 0.056(5) 0.013(3) -0.001(3) 0.003(2)
C17 0.024(3) 0.029(3) 0.042(4) -0.001(3) 0.000(2) 0.006(2)
C18 0.032(3) 0.035(3) 0.085(6) -0.008(3) -0.021(3) 0.007(3)
C19 0.032(3) 0.027(3) 0.064(5) -0.010(3) -0.014(3) 0.009(2)
N1 0.024(2) 0.033(2) 0.028(3) 0.005(2) 0.003(2) 0.0054(19)
O1 0.0274(19) 0.035(2) 0.018(2) 0.0081(16) -0.0006(16) -0.0007(16)
O2 0.0186(18) 0.037(2) 0.015(2) 0.0014(15) -0.0028(14) 0.0049(15)
O3 0.0185(18) 0.053(2) 0.014(2) -0.0113(17) -0.0020(14) 0.0007(16)
O4 0.025(2) 0.077(3) 0.014(2) -0.013(2) 0.0038(17) 0.006(2)
O5 0.0129(16) 0.0187(16) 0.0091(18) -0.0012(12) -0.0012(13) -0.0003(13)
C20 0.017(2) 0.015(2) 0.016(3) 0.0025(19) 0.001(2) 0.0001(17)
O6 0.0185(17) 0.0309(19) 0.018(2) -0.0026(15) 0.0023(14) 0.0031(14)
O7 0.0224(18) 0.0306(19) 0.0142(19) -0.0007(15) -0.0020(14) 0.0108(15)
Zn1 0.0195(3) 0.0386(4) 0.0153(4) 0.0105(3) 0.0047(2) 0.0079(2)
Zn2 0.0226(3) 0.0299(3) 0.0134(4) -0.0033(2) -0.0012(2) 0.0038(2)
C15A 0.023 0.042 0.048 -0.011 0.006 -0.001
C16A 0.026 0.035 0.056 -0.013 0.001 0.003
C17A 0.024 0.029 0.042 0.001 0 0.006
C18A 0.032 0.035 0.085 0.008 0.021 0.007
C19A 0.032 0.027 0.064 0.01 0.014 0.009
N1A 0.024 0.033 0.028 -0.005 -0.003 0.0054
C1A 0.015 0.018 0.015 -0.0013 0.0042 0.0007
C2A 0.021 0.025 0.01 -0.0013 0.0007 0.0002
C3A 0.02 0.032 0.013 0.002 -0.001 0.001
C4A 0.014 0.035 0.016 0.002 0.004 0.002
C5A 0.02 0.02 0.013 0.0015 0.0008 -0.0022
C6A 0.019 0.016 0.013 -0.0005 -0.0016 -0.0018
C7A 0.022 0.016 0.019 0.0006 0 0.004
C8A 0.017 0.035 0.017 0.001 0.004 0
C9A 0.014 0.04 0.02 0.003 -0.001 -0.002
C10A 0.021 0.037 0.013 0.001 0.001 0.002
C11A 0.022 0.05 0.016 0.007 -0.005 -0.003
C12A 0.017 0.058 0.023 0.002 -0.004 -0.008
C13A 0.022 0.053 0.017 0.008 0.006 -0.001
C14A 0.022 0.039 0.016 0.003 0.003 0
O1A 0.0274 0.035 0.018 -0.0081 0.0006 -0.0007
O2A 0.0186 0.037 0.015 -0.0014 0.0028 0.0049
O3A 0.0185 0.053 0.014 0.0113 0.002 0.0007
O4A 0.025 0.077 0.014 0.013 -0.0038 0.006
O5A 0.0129 0.0187 0.0091 0.0012 0.0012 -0.0003
C20A 0.017 0.015 0.016 -0.0025 -0.001 0.0001
O6A 0.0185 0.0309 0.018 0.0026 -0.0023 0.0031
O7A 0.0224 0.0306 0.0142 0.0007 0.002 0.0108
Zn1A 0.0195 0.0386 0.0153 -0.0105 -0.0047 0.0079
Zn2A 0.0226 0.0299 0.0134 0.0033 0.0012 0.0038
O1F 0.035 0.0274 0.018 0.0006 -0.0081 -0.0007
O1G 0.035 0.0274 0.018 -0.0006 0.0081 -0.0007
O2D 0.0186 0.037 0.015 -0.0014 -0.0028 -0.0049
O2E 0.0186 0.037 0.015 0.0014 0.0028 -0.0049
O3H 0.0185 0.053 0.014 -0.0113 -0.002 0.0007
O3I 0.0185 0.053 0.014 0.0113 0.002 0.0007
O4J 0.077 0.025 0.014 0.0038 0.013 -0.006
O4K 0.077 0.025 0.014 -0.0038 -0.013 -0.006
Zn1D 0.0195 0.0386 0.0153 -0.0105 0.0047 -0.0079
Zn1E 0.0195 0.0386 0.0153 0.0105 -0.0047 -0.0079
Zn1F 0.0386 0.0195 0.0153 -0.0047 -0.0105 0.0079
Zn1G 0.0386 0.0195 0.0153 0.0047 0.0105 0.0079
Zn2H 0.0226 0.0299 0.0134 -0.0033 -0.0012 0.0038
Zn2I 0.0226 0.0299 0.0134 0.0033 0.0012 0.0038
Zn2J 0.0299 0.0226 0.0134 -0.0012 0.0033 -0.0038
Zn2K 0.0299 0.0226 0.0134 0.0012 -0.0033 -0.0038
loop_
_geom_bond_atom_site_label_1
_geom_bond_atom_site_label_2
_geom_bond_site_symmetry_1
_geom_bond_site_symmetry_2
C1 C2 1_555 1_555
C2 H1 1_555 1_555
C3 C2 1_555 1_555
C4 C3 1_555 1_555
H2 C4 1_555 1_555
C5 C4 1_555 1_555
C6 C1 1_555 1_555
H3 C6 1_555 1_555
C7 C5 1_555 1_555
C8 C3 1_555 1_555
C9 C8 1_555 1_555
H4 C9 1_555 1_555
C10 C9 1_555 1_555
C11 C10 1_555 1_555
H5 C11 1_555 1_555
C12 C11 1_555 1_555
H6 C12 1_555 1_555
C13 C8 1_555 1_555
H7 C13 1_555 1_555
C14 C10 1_555 1_555
C15 H8 1_555 1_555
C16 C15 1_555 1_555
H9 C16 1_555 1_555
C17 C16 1_555 1_555
C18 C17 1_555 1_555
H10 C18 1_555 1_555
C19 C18 1_555 1_555
H11 C19 1_555 1_555
N1 C15 1_555 1_555
O1 C7 1_555 1_555
O2 C7 1_555 1_555
O3 C14 1_555 1_555
O4 C14 1_555 1_555
O5 H12 1_555 1_555
C20 C1 1_555 1_555
O6 C20 1_555 1_555
O7 C20 1_555 1_555
Zn1 N1 1_555 1_555
Zn2 O5 1_555 1_555
C15A H8A 1_555 1_555
C16A C15A 1_555 1_555
H9A C16A 1_555 1_555
C17A C17 1_555 1_555
C18A C17A 1_555 1_555
H10A C18A 1_555 1_555
C19A C18A 1_555 1_555
H11A C19A 1_555 1_555
N1A C15A 1_555 1_555
C1A C2A 1_555 1_555
C2A H1A 1_555 1_555
C3A C2A 1_555 1_555
C4A C3A 1_555 1_555
H2A C4A 1_555 1_555
C5A C4A 1_555 1_555
C6A C1A 1_555 1_555
H3A C6A 1_555 1_555
C7A C5A 1_555 1_555
C8A C3A 1_555 1_555
C9A C8A 1_555 1_555
H4A C9A 1_555 1_555
C10A C9A 1_555 1_555
C11A C10A 1_555 1_555
H5A C11A 1_555 1_555
C12A C11A 1_555 1_555
H6A C12A 1_555 1_555
C13A C8A 1_555 1_555
H7A C13A 1_555 1_555
C14A C10A 1_555 1_555
O1A C7A 1_555 1_555
O2A C7A 1_555 1_555
O3A C14A 1_555 1_555
O4A C14A 1_555 1_555
O5A H12A 1_555 1_555
C20A C1A 1_555 1_555
O6A C20A 1_555 1_555
O7A C20A 1_555 1_555
Zn1A N1A 1_555 1_555
Zn2A O5A 1_555 1_555
O1F Zn1 1_555 1_555
O1G Zn1A 1_555 1_555
O2D Zn1A 1_555 1_555
O2E Zn1 1_555 1_555
O3H Zn2 1_555 1_555
O3I Zn2A 1_555 1_555
O4J Zn2 1_555 1_555
O4K Zn2A 1_555 1_555
Zn1D O2A 1_555 1_555
Zn1E O2 1_555 1_555
Zn1F O1 1_555 1_555
Zn1G O1A 1_555 1_555
Zn2H O3 1_555 1_555
Zn2I O3A 1_555 1_555
Zn2J O4A 1_555 1_555
Zn2K O4 1_555 1_555
C5 C6 1_555 1_555
C12 C13 1_555 1_555
C19 N1 1_555 1_555
O5 Zn1 1_555 1_555
O6 Zn1 1_555 1_555
O7 Zn2 1_555 1_555
C16A C17A 1_555 1_555
C19A N1A 1_555 1_555
C5A C6A 1_555 1_555
C12A C13A 1_555 1_555
O5A Zn1A 1_555 1_555
O6A Zn1A 1_555 1_555
O7A Zn2A 1_555 1_555

#END
