
#######################################################################
#
#                 Cambridge Crystallographic Data Centre
#                                CCDC 
#
#######################################################################
#
# If this CIF has been generated from an entry in the Cambridge 
# Structural Database, then it will include bibliographic, chemical, 
# crystal, experimental, refinement or atomic coordinate data resulting 
# from the CCDC's data processing and validation procedures.
#
#######################################################################

data_AWOKED
_chemical_formula_moiety         '(C14 H13 Ag1 Cl1 N2 O11 Sm1)n'
_symmetry_cell_setting           monoclinic
_symmetry_space_group_name_H-M   'P 21/c'
_symmetry_Int_Tables_number      14
_space_group_name_Hall           '-P 2ybc'
loop_
_symmetry_equiv_pos_site_id
_symmetry_equiv_pos_as_xyz
1 x,y,z
2 -x,1/2+y,1/2-z
3 -x,-y,-z
4 x,1/2-y,1/2+z
_cell_length_a                   16.1703(15)
_cell_length_b                   15.1042(14)
_cell_length_c                   7.9858(7)
_cell_angle_alpha                90
_cell_angle_beta                 92.8450(10)
_cell_angle_gamma                90
_cell_volume                     1948.04
loop_
_atom_site_label
_atom_site_type_symbol
_atom_site_fract_x
_atom_site_fract_y
_atom_site_fract_z
Sm1 Sm 0.952467(14) 0.883640(13) 1.04772(3)
Ag1 Ag 0.47193(3) 0.76177(4) 1.60049(7)
C1 C 0.8319(3) 0.7491(3) 1.2966(5)
C2 C 0.7476(3) 0.7499(3) 1.3658(6)
C3 C 0.7080(3) 0.8290(3) 1.3907(6)
H1 H 0.7332 0.8822 1.3639
C4 C 0.6304(3) 0.8290(3) 1.4558(7)
H2 H 0.6042 0.8829 1.4726
C5 C 0.6303(3) 0.6778(3) 1.4692(6)
H3 H 0.6037 0.6253 1.4948
C6 C 0.7077(3) 0.6730(3) 1.4062(6)
H4 H 0.7328 0.6184 1.3911
C7 C 0.8665(3) 1.0831(3) 1.1375(7)
C8 C 0.7883(3) 1.1243(3) 1.1940(6)
C9 C 0.7177(3) 1.0739(3) 1.2021(7)
H5 H 0.7186 1.0143 1.1728
C10 C 0.6466(4) 1.1114(4) 1.2534(8)
H6 H 0.5991 1.0767 1.2566
C11 C 0.7115(3) 1.2455(3) 1.2903(8)
H7 H 0.7096 1.3048 1.3216
C12 C 0.7843(3) 1.2127(3) 1.2376(7)
H8 H 0.8304 1.2490 1.2310
O1 O 0.8543(2) 0.81567(19) 1.2172(4)
O2 O 0.87650(19) 0.68130(18) 1.3220(4)
O3 O 0.8699(2) 1.0005(2) 1.1391(5)
O4 O 0.9236(2) 1.1345(2) 1.0941(5)
O5 O 0.9496(2) 0.99873(19) 0.8377(4)
O6 O 0.9636(2) 1.1151(2) 0.6844(4)
N1 N 0.5915(3) 0.7540(3) 1.4955(6)
N2 N 0.6427(3) 1.1970(3) 1.2995(6)
O7 O 0.9949(3) 0.72899(19) 1.0725(4)
H9 H 1.012(3) 0.698(2) 0.999(5)
H10 H 0.974(3) 0.696(2) 1.138(5)
C13 C 0.9284(3) 1.0421(3) 0.7094(6)
C14 C 0.8691(14) 1.0029(16) 0.577(3)
H11 H 0.8380 1.0496 0.5221
H12 H 0.8318 0.9631 0.6293
H13 H 0.8997 0.9712 0.4966
Sm1C Sm 0.952467(14) 0.616360(13) 1.54772(3)
Sm1B Sm 1.047533(14) 1.116360(13) 0.95228(3)
Ag1B Ag 0.52807(3) 1.23823(4) 1.39951(7)
O2C O 0.87650(19) 0.81870(18) 0.8220(4)
O4B O 1.0764(2) 0.8655(2) 0.9059(5)
O5B O 1.0504(2) 1.00127(19) 1.1623(4)
O6B O 1.0364(2) 0.8849(2) 1.3156(4)
N2B N 0.3573(3) 0.8030(3) 1.7005(6)
Cl1 Cl 0.58196(10) 0.45830(10) 0.2449(2)
O8 O 0.5434(8) 0.5371(7) 0.201(2)
O9 O 0.6654(5) 0.4696(6) 0.2946(18)
O10 O 0.5408(9) 0.4196(8) 0.3857(15)
O11 O 0.5760(8) 0.3951(8) 0.1174(13)
loop_
_geom_bond_atom_site_label_1
_geom_bond_atom_site_label_2
_geom_bond_site_symmetry_1
_geom_bond_site_symmetry_2
Sm1 O1 1_555 1_555
Ag1 N1 1_555 1_555
C1 C2 1_555 1_555
C2 C3 1_555 1_555
C3 H1 1_555 1_555
C4 C3 1_555 1_555
H2 C4 1_555 1_555
C5 H3 1_555 1_555
C6 C2 1_555 1_555
H4 C6 1_555 1_555
C7 C8 1_555 1_555
C8 C9 1_555 1_555
C9 H5 1_555 1_555
C10 C9 1_555 1_555
H6 C10 1_555 1_555
C11 H7 1_555 1_555
C12 C8 1_555 1_555
H8 C12 1_555 1_555
O1 C1 1_555 1_555
O2 C1 1_555 1_555
O3 Sm1 1_555 1_555
O4 C7 1_555 1_555
O5 Sm1 1_555 1_555
O6 C13 1_555 1_555
N1 C4 1_555 1_555
N2 C10 1_555 1_555
O7 Sm1 1_555 1_555
H9 O7 1_555 1_555
H10 O7 1_555 1_555
C13 O5 1_555 1_555
C14 C13 1_555 1_555
H11 C14 1_555 1_555
H12 C14 1_555 1_555
H13 C14 1_555 1_555
Cl1 O8 1_555 1_555
O9 Cl1 1_555 1_555
O10 Cl1 1_555 1_555
O11 Cl1 1_555 1_555
Sm1C O2 1_555 1_555
Sm1B O4 1_555 1_555
Ag1B N2 1_555 1_555
O2C Sm1 1_555 1_555
O4B Sm1 1_555 1_555
O5B Sm1 1_555 1_555
O6B Sm1 1_555 1_555
N2B Ag1 1_555 1_555
C5 C6 1_555 1_555
C5 N1 1_555 1_555
C7 O3 1_555 1_555
C11 C12 1_555 1_555
C11 N2 1_555 1_555
O5 Sm1B 1_555 1_555
O6 Sm1B 1_555 1_555
Sm1B O5B 1_555 1_555

#END
