
#######################################################################
#
#                 Cambridge Crystallographic Data Centre
#                                CCDC 
#
#######################################################################
#
# If this CIF has been generated from an entry in the Cambridge 
# Structural Database, then it will include bibliographic, chemical, 
# crystal, experimental, refinement or atomic coordinate data resulting 
# from the CCDC's data processing and validation procedures.
#
#######################################################################

data_HUWPIA
_chemical_formula_moiety         '(C40 H32 Al3 Cl8 N8 1+)n'
_symmetry_cell_setting           orthorhombic
_symmetry_space_group_name_H-M   'F d d 2'
_symmetry_Int_Tables_number      43
_space_group_name_Hall           'F 2 -2d'
loop_
_symmetry_equiv_pos_site_id
_symmetry_equiv_pos_as_xyz
1 x,y,z
2 -x,-y,z
3 1/4+x,1/4-y,1/4+z
4 1/4-x,1/4+y,1/4+z
5 x,1/2+y,1/2+z
6 -x,1/2-y,1/2+z
7 1/4+x,3/4-y,3/4+z
8 1/4-x,3/4+y,3/4+z
9 1/2+x,y,1/2+z
10 1/2-x,-y,1/2+z
11 3/4+x,1/4-y,3/4+z
12 3/4-x,1/4+y,3/4+z
13 1/2+x,1/2+y,z
14 1/2-x,1/2-y,z
15 3/4+x,3/4-y,1/4+z
16 3/4-x,3/4+y,1/4+z
_cell_length_a                   7.08090(10)
_cell_length_b                   38.7664(4)
_cell_length_c                   39.2286(4)
_cell_angle_alpha                90
_cell_angle_beta                 90
_cell_angle_gamma                90
_cell_volume                     10768.3
loop_
_atom_site_label
_atom_site_type_symbol
_atom_site_fract_x
_atom_site_fract_y
_atom_site_fract_z
_atom_site_U_iso_or_equiv
_atom_site_thermal_displace_type
Al1 Al 0.5705(4) 0.61913(6) 0.49959(6) 0.0153 Uani
Cl1 Cl 0.3187(3) 0.59295(5) 0.47543(5) 0.0185 Uani
Cl2 Cl 0.8268(3) 0.64411(5) 0.52467(5) 0.0196 Uani
N1 N 0.4503(11) 0.66682(19) 0.49238(18) 0.0190 Uani
C1 C 0.5522(13) 0.6943(2) 0.4826(2) 0.0207 Uani
H1 H 0.6806 0.6909 0.4764 0.0250 Uiso
C2 C 0.4788(14) 0.7269(2) 0.4812(2) 0.0240 Uani
H2 H 0.5553 0.7457 0.4740 0.0290 Uiso
C3 C 0.2910(14) 0.7325(2) 0.4905(2) 0.0233 Uani
C4 C 0.1841(13) 0.7041(2) 0.4999(2) 0.0223 Uani
H3 H 0.0547 0.7067 0.5058 0.0270 Uiso
C5 C 0.2685(14) 0.6721(2) 0.5005(2) 0.0233 Uani
H4 H 0.1943 0.6528 0.5071 0.0280 Uiso
N2 N 0.6940(10) 0.57166(18) 0.50533(17) 0.0153 Uani
C6 C 0.7962(12) 0.5637(2) 0.5333(2) 0.0180 Uani
H5 H 0.7876 0.5784 0.5526 0.0220 Uiso
C7 C 0.9114(13) 0.5355(2) 0.5352(2) 0.0190 Uani
H6 H 0.9765 0.5303 0.5557 0.0230 Uiso
C8 C 0.9323(13) 0.5144(2) 0.5066(2) 0.0173 Uani
C9 C 0.8197(13) 0.5218(2) 0.4785(2) 0.0213 Uani
H7 H 0.8238 0.5072 0.4591 0.0260 Uiso
C10 C 0.7032(14) 0.5499(2) 0.4787(2) 0.0250 Uani
H8 H 0.6260 0.5542 0.4594 0.0300 Uiso
N3 N 0.6995(10) 0.6243(2) 0.45274(19) 0.0190 Uani
C11 C 0.6076(14) 0.6355(2) 0.4250(2) 0.0217 Uani
H9 H 0.4774 0.6411 0.4268 0.0260 Uiso
C12 C 0.6969(13) 0.6391(3) 0.3933(2) 0.0210 Uani
H10 H 0.6305 0.6484 0.3744 0.0250 Uiso
C13 C 0.8821(13) 0.6289(2) 0.3900(2) 0.0190 Uani
C14 C 0.9762(14) 0.6172(3) 0.4190(2) 0.0243 Uani
H11 H 1.1052 0.6106 0.4176 0.0300 Uiso
C15 C 0.8826(13) 0.6151(3) 0.4495(2) 0.0213 Uani
H12 H 0.9485 0.6069 0.4690 0.0260 Uiso
N4 N 1.1916(10) 0.63299(18) 0.29647(19) 0.0157 Uani
C16 C 1.0838(13) 0.6596(2) 0.3065(2) 0.0197 Uani
H13 H 1.0790 0.6796 0.2926 0.0240 Uiso
C17 C 0.9798(13) 0.6592(2) 0.3362(2) 0.0203 Uani
H14 H 0.9030 0.6784 0.3420 0.0250 Uiso
C18 C 0.9878(13) 0.6304(2) 0.3576(2) 0.0210 Uani
C19 C 1.1017(13) 0.6029(2) 0.3480(2) 0.0210 Uani
H15 H 1.1118 0.5830 0.3619 0.0250 Uiso
C20 C 1.2016(13) 0.6055(2) 0.3172(2) 0.0190 Uani
H16 H 1.2803 0.5867 0.3107 0.0230 Uiso
N1M N 0.0497(11) 0.83318(19) 0.49238(18) 0.0190 Uani
C1M C -0.0522(13) 0.8057(2) 0.4826(2) 0.0207 Uani
H1M H -0.1806 0.8091 0.4764 0.0250 Uiso
C2M C 0.0212(14) 0.7731(2) 0.4812(2) 0.0240 Uani
H2M H -0.0553 0.7543 0.4740 0.0290 Uiso
C3M C 0.2090(14) 0.7675(2) 0.4905(2) 0.0233 Uani
C4M C 0.3159(13) 0.7959(2) 0.4999(2) 0.0223 Uani
H3M H 0.4453 0.7933 0.5058 0.0270 Uiso
C5M C 0.2315(14) 0.8279(2) 0.5005(2) 0.0233 Uani
H4M H 0.3057 0.8472 0.5071 0.0280 Uiso
N2A N 1.3060(10) 0.42834(18) 0.50533(17) 0.0153 Uani
C6A C 1.2038(12) 0.4363(2) 0.5333(2) 0.0180 Uani
H5A H 1.2124 0.4216 0.5526 0.0220 Uiso
C7A C 1.0886(13) 0.4645(2) 0.5352(2) 0.0190 Uani
H6A H 1.0235 0.4697 0.5557 0.0230 Uiso
C8A C 1.0677(13) 0.4856(2) 0.5066(2) 0.0173 Uani
C9A C 1.1803(13) 0.4782(2) 0.4785(2) 0.0213 Uani
H7A H 1.1762 0.4928 0.4591 0.0260 Uiso
C10A C 1.2968(14) 0.4501(2) 0.4787(2) 0.0250 Uani
H8A H 1.3740 0.4458 0.4594 0.0300 Uiso
Al1A Al 1.4295(4) 0.38087(6) 0.49959(6) 0.0153 Uani
Cl1A Cl 1.6813(3) 0.40705(5) 0.47543(5) 0.0185 Uani
Cl2A Cl 1.1732(3) 0.35589(5) 0.52467(5) 0.0196 Uani
N3A N 1.3005(10) 0.3757(2) 0.45274(19) 0.0190 Uani
C11A C 1.3924(14) 0.3645(2) 0.4250(2) 0.0217 Uani
H9A H 1.5226 0.3589 0.4268 0.0260 Uiso
C12A C 1.3031(13) 0.3609(3) 0.3933(2) 0.0210 Uani
H10A H 1.3695 0.3516 0.3744 0.0250 Uiso
C13A C 1.1179(13) 0.3711(2) 0.3900(2) 0.0190 Uani
C14A C 1.0238(14) 0.3828(3) 0.4190(2) 0.0243 Uani
H11A H 0.8948 0.3894 0.4176 0.0300 Uiso
C15A C 1.1174(13) 0.3849(3) 0.4495(2) 0.0213 Uani
H12A H 1.0515 0.3931 0.4690 0.0260 Uiso
N4A N 0.8084(10) 0.36701(18) 0.29647(19) 0.0157 Uani
C16A C 0.9162(13) 0.3404(2) 0.3065(2) 0.0197 Uani
H13A H 0.9210 0.3204 0.2926 0.0240 Uiso
C17A C 1.0202(13) 0.3408(2) 0.3362(2) 0.0203 Uani
H14A H 1.0970 0.3216 0.3420 0.0250 Uiso
C18A C 1.0122(13) 0.3696(2) 0.3576(2) 0.0210 Uani
C19A C 0.8983(13) 0.3971(2) 0.3480(2) 0.0210 Uani
H15A H 0.8882 0.4170 0.3619 0.0250 Uiso
C20A C 0.7984(13) 0.3945(2) 0.3172(2) 0.0190 Uani
H16A H 0.7197 0.4133 0.3107 0.0230 Uiso
Al1G Al 0.6795(4) 0.36913(6) 0.24959(6) 0.0153 Uani
Al1J Al 1.3205(4) 0.63087(6) 0.24959(6) 0.0153 Uani
Al1M Al -0.0705(4) 0.88087(6) 0.49959(6) 0.0153 Uani
N1A N 1.5497(11) 0.33318(19) 0.49238(18) 0.0190 Uani
N4B N 0.4416(10) 0.61701(18) 0.54647(19) 0.0157 Uani
N4O N 1.5584(10) 0.38299(18) 0.54647(19) 0.0157 Uani
Al2 Al 0.7500 0.7500 0.6142(3) 0.1233 Uani
Cl3 Cl 1.019(3) 0.7464(9) 0.5944(7) 0.1990 Uiso
Cl4 Cl 0.947(4) 0.7137(7) 0.6346(6) 0.1540 Uiso
Cl3M Cl 0.481(3) 0.7536(9) 0.5944(7) 0.1990 Uiso
Cl4M Cl 0.553(4) 0.7863(7) 0.6346(6) 0.1540 Uiso
loop_
_atom_site_aniso_label
_atom_site_aniso_U_11
_atom_site_aniso_U_22
_atom_site_aniso_U_33
_atom_site_aniso_U_23
_atom_site_aniso_U_13
_atom_site_aniso_U_12
Al1 0.0144(12) 0.0170(11) 0.0144(11) 0.0009(9) 0.0039(9) 0.0032(9)
Cl1 0.0154(9) 0.0225(10) 0.0176(9) -0.0004(8) -0.0004(8) 0.0038(8)
Cl2 0.0162(9) 0.0221(10) 0.0205(10) -0.0001(8) 0.0035(8) -0.0003(8)
N1 0.017(4) 0.021(4) 0.019(4) -0.001(3) 0.004(3) 0.003(3)
C1 0.020(4) 0.020(4) 0.022(4) 0.000(4) 0.008(4) 0.004(4)
C2 0.020(5) 0.022(4) 0.030(5) 0.008(4) 0.007(4) 0.001(4)
C3 0.024(5) 0.021(5) 0.025(5) 0.001(4) -0.001(4) 0.003(4)
C4 0.017(4) 0.024(5) 0.026(5) 0.007(4) 0.000(4) 0.005(4)
C5 0.021(5) 0.022(4) 0.027(5) 0.000(4) 0.008(4) 0.001(4)
N2 0.019(4) 0.019(4) 0.008(3) 0.002(3) -0.001(3) 0.002(3)
C6 0.018(4) 0.024(4) 0.012(4) -0.002(3) 0.002(3) 0.002(3)
C7 0.019(4) 0.025(4) 0.013(4) 0.004(3) -0.001(3) 0.003(4)
C8 0.021(4) 0.018(4) 0.013(4) 0.000(3) -0.001(3) 0.002(4)
C9 0.023(4) 0.023(4) 0.018(4) -0.006(3) -0.004(4) 0.009(4)
C10 0.024(5) 0.029(5) 0.022(5) 0.001(4) -0.002(4) 0.010(4)
N3 0.015(4) 0.028(4) 0.014(3) 0.003(3) 0.004(3) 0.007(3)
C11 0.019(4) 0.030(5) 0.016(4) 0.000(4) 0.002(4) 0.007(4)
C12 0.018(4) 0.035(5) 0.010(4) 0.000(4) 0.005(3) 0.007(4)
C13 0.019(4) 0.023(4) 0.015(4) 0.000(3) 0.000(4) 0.001(4)
C14 0.019(5) 0.030(5) 0.024(5) 0.002(4) 0.001(4) 0.004(4)
C15 0.015(4) 0.033(5) 0.016(4) -0.002(4) -0.001(4) 0.004(4)
N4 0.012 0.016 0.019 -0.003 0.004 -0.003
C16 0.023 0.018 0.018 0 0.003 -0.003
C17 0.018 0.025 0.018 0.003 0.003 0.007
C18 0.018 0.03 0.015 0.005 0.002 0.004
C19 0.024 0.025 0.014 0.004 0.006 0.006
C20 0.021 0.023 0.013 0.006 0.007 0.004
N1M 0.017 0.021 0.019 0.001 -0.004 0.003
C1M 0.02 0.02 0.022 0 -0.008 0.004
C2M 0.02 0.022 0.03 -0.008 -0.007 0.001
C3M 0.024 0.021 0.025 -0.001 0.001 0.003
C4M 0.017 0.024 0.026 -0.007 0 0.005
C5M 0.021 0.022 0.027 0 -0.008 0.001
N2A 0.019 0.019 0.008 -0.002 0.001 0.002
C6A 0.018 0.024 0.012 0.002 -0.002 0.002
C7A 0.019 0.025 0.013 -0.004 0.001 0.003
C8A 0.021 0.018 0.013 0 0.001 0.002
C9A 0.023 0.023 0.018 0.006 0.004 0.009
C10A 0.024 0.029 0.022 -0.001 0.002 0.01
Al1A 0.0144 0.017 0.0144 -0.0009 -0.0039 0.0032
Cl1A 0.0154 0.0225 0.0176 0.0004 0.0004 0.0038
Cl2A 0.0162 0.0221 0.0205 0.0001 -0.0035 -0.0003
N3A 0.015 0.028 0.014 -0.003 -0.004 0.007
C11A 0.019 0.03 0.016 0 -0.002 0.007
C12A 0.018 0.035 0.01 0 -0.005 0.007
C13A 0.019 0.023 0.015 0 0 0.001
C14A 0.019 0.03 0.024 -0.002 -0.001 0.004
C15A 0.015 0.033 0.016 0.002 0.001 0.004
N4A 0.012 0.016 0.019 0.003 -0.004 -0.003
C16A 0.023 0.018 0.018 0 -0.003 -0.003
C17A 0.018 0.025 0.018 -0.003 -0.003 0.007
C18A 0.018 0.03 0.015 -0.005 -0.002 0.004
C19A 0.024 0.025 0.014 -0.004 -0.006 0.006
C20A 0.021 0.023 0.013 -0.006 -0.007 0.004
Al1G 0.0144 0.017 0.0144 0.0009 -0.0039 -0.0032
Al1J 0.0144 0.017 0.0144 -0.0009 0.0039 -0.0032
Al1M 0.0144 0.017 0.0144 -0.0009 -0.0039 0.0032
N1A 0.017 0.021 0.019 0.001 -0.004 0.003
N4B 0.012 0.016 0.019 0.003 0.004 0.003
N4O 0.012 0.016 0.019 -0.003 -0.004 0.003
Al2 0.169(12) 0.067(5) 0.134(10) 0.000 0.000 -0.028(7)
loop_
_geom_bond_atom_site_label_1
_geom_bond_atom_site_label_2
_geom_bond_site_symmetry_1
_geom_bond_site_symmetry_2
Al1 Cl1 1_555 1_555
Cl2 Al1 1_555 1_555
N1 Al1 1_555 1_555
C1 N1 1_555 1_555
H1 C1 1_555 1_555
C2 C1 1_555 1_555
H2 C2 1_555 1_555
C3 C2 1_555 1_555
C4 C3 1_555 1_555
H3 C4 1_555 1_555
C5 N1 1_555 1_555
H4 C5 1_555 1_555
N2 Al1 1_555 1_555
C6 N2 1_555 1_555
H5 C6 1_555 1_555
C7 C6 1_555 1_555
H6 C7 1_555 1_555
C8 C7 1_555 1_555
C9 C8 1_555 1_555
H7 C9 1_555 1_555
C10 N2 1_555 1_555
H8 C10 1_555 1_555
N3 Al1 1_555 1_555
C11 N3 1_555 1_555
H9 C11 1_555 1_555
C12 C11 1_555 1_555
H10 C12 1_555 1_555
C13 C12 1_555 1_555
C14 C13 1_555 1_555
H11 C14 1_555 1_555
C15 N3 1_555 1_555
H12 C15 1_555 1_555
N4 C16 1_555 1_555
C16 H13 1_555 1_555
C17 C16 1_555 1_555
H14 C17 1_555 1_555
C18 C13 1_555 1_555
C19 C18 1_555 1_555
H15 C19 1_555 1_555
C20 N4 1_555 1_555
H16 C20 1_555 1_555
Al2 Cl3 1_555 1_555
Cl4 Al2 1_555 1_555
N1M C1M 1_555 1_555
C1M H1M 1_555 1_555
C2M C1M 1_555 1_555
H2M C2M 1_555 1_555
C3M C3 1_555 1_555
C4M C3M 1_555 1_555
H3M C4M 1_555 1_555
C5M N1M 1_555 1_555
H4M C5M 1_555 1_555
N2A C6A 1_555 1_555
C6A H5A 1_555 1_555
C7A C6A 1_555 1_555
H6A C7A 1_555 1_555
C8A C8 1_555 1_555
C9A C8A 1_555 1_555
H7A C9A 1_555 1_555
C10A N2A 1_555 1_555
H8A C10A 1_555 1_555
Al1A N2A 1_555 1_555
Cl1A Al1A 1_555 1_555
Cl2A Al1A 1_555 1_555
N3A Al1A 1_555 1_555
C11A N3A 1_555 1_555
H9A C11A 1_555 1_555
C12A C11A 1_555 1_555
H10A C12A 1_555 1_555
C13A C12A 1_555 1_555
C14A C13A 1_555 1_555
H11A C14A 1_555 1_555
C15A N3A 1_555 1_555
H12A C15A 1_555 1_555
N4A C16A 1_555 1_555
C16A H13A 1_555 1_555
C17A C16A 1_555 1_555
H14A C17A 1_555 1_555
C18A C13A 1_555 1_555
C19A C18A 1_555 1_555
H15A C19A 1_555 1_555
C20A N4A 1_555 1_555
H16A C20A 1_555 1_555
Al1G N4A 1_555 1_555
Al1J N4 1_555 1_555
Al1M N1M 1_555 1_555
N1A Al1A 1_555 1_555
N4B Al1 1_555 1_555
N4O Al1A 1_555 1_555
Cl3M Al2 1_555 1_555
Cl4M Al2 1_555 1_555
C4 C5 1_555 1_555
C9 C10 1_555 1_555
C14 C15 1_555 1_555
C17 C18 1_555 1_555
C19 C20 1_555 1_555
C2M C3M 1_555 1_555
C4M C5M 1_555 1_555
C7A C8A 1_555 1_555
C9A C10A 1_555 1_555
C14A C15A 1_555 1_555
C17A C18A 1_555 1_555
C19A C20A 1_555 1_555

#END
