
#######################################################################
#
#                 Cambridge Crystallographic Data Centre
#                                CCDC 
#
#######################################################################
#
# If this CIF has been generated from an entry in the Cambridge 
# Structural Database, then it will include bibliographic, chemical, 
# crystal, experimental, refinement or atomic coordinate data resulting 
# from the CCDC's data processing and validation procedures.
#
#######################################################################

data_EPAGEJ
_chemical_formula_moiety         'C86 H70 Cl1 Gd16 N12 O63 1-'
_symmetry_cell_setting           monoclinic
_symmetry_space_group_name_H-M   'C 2/c'
_symmetry_Int_Tables_number      15
_space_group_name_Hall           '-C 2yc'
loop_
_symmetry_equiv_pos_site_id
_symmetry_equiv_pos_as_xyz
1 x,y,z
2 -x,y,1/2-z
3 1/2+x,1/2+y,z
4 1/2-x,1/2+y,1/2-z
5 -x,-y,-z
6 x,-y,1/2+z
7 1/2-x,1/2-y,-z
8 1/2+x,1/2-y,1/2+z
_cell_length_a                   34.5583(8)
_cell_length_b                   19.0573(3)
_cell_length_c                   23.6880(4)
_cell_angle_alpha                90
_cell_angle_beta                 128.1880(10)
_cell_angle_gamma                90
_cell_volume                     12261.9
loop_
_atom_site_label
_atom_site_type_symbol
_atom_site_fract_x
_atom_site_fract_y
_atom_site_fract_z
O25 O -1.0795(5) -0.1967(7) -0.5078(7)
O26 O -1.0355(7) -0.1807(8) -0.5493(9)
O27 O -1.0873(3) -0.2754(4) -0.5884(4)
O28 O -1.0129(4) -0.2736(6) -0.4677(6)
Cl1 Cl -1.05172(9) -0.23887(11) -0.52407(13)
O29 O -0.83638(14) 0.0134(2) -0.1413(2)
Gd1 Gd -0.793762(9) 0.092032(14) -0.282240(14)
O1 O -0.86899(14) 0.1140(2) -0.2939(2)
O2 O -0.70272(14) 0.0938(2) -0.1950(2)
O3 O -0.76293(13) 0.0385(2) -0.3385(2)
O4 O -0.85918(13) 0.0664(2) -0.40555(19)
O5 O -0.81547(13) -0.0257(2) -0.2950(2)
O6 O -0.79167(15) 0.1949(2) -0.3361(2)
O7 O -0.77580(14) 0.07548(19) -0.1638(2)
O8 O -0.77218(14) 0.1841(2) -0.1931(2)
C1 C -0.9077(2) 0.0793(3) -0.3229(3)
C2 C -0.6838(2) 0.0337(3) -0.1758(3)
Gd2 Gd -0.824317(9) 0.042727(14) -0.464804(14)
Gd3 Gd -0.757819(10) -0.086082(14) -0.304909(14)
Gd4 Gd -0.894845(9) -0.044285(14) -0.412631(14)
C3 C -0.9468(2) 0.1055(3) -0.3185(3)
O9 O -0.91895(15) 0.0246(2) -0.3596(2)
C4 C -0.6294(2) 0.0255(3) -0.1223(3)
O10 O -0.70929(15) -0.0224(2) -0.1998(2)
O11 O -0.76158(14) -0.0239(2) -0.4513(2)
O12 O -0.83184(13) -0.0662(2) -0.42193(19)
O13 O -0.81095(15) 0.0919(2) -0.5454(2)
O14 O -0.86626(14) -0.0478(2) -0.5645(2)
O15 O -0.90576(14) 0.0796(2) -0.5578(2)
O16 O -0.81064(16) 0.1646(2) -0.4417(2)
O17 O -0.79757(16) -0.1702(2) -0.2848(2)
O18 O -0.70672(14) -0.0737(2) -0.3432(2)
O19 O -0.69528(16) -0.1714(2) -0.2190(2)
O20 O -0.76771(16) -0.1901(2) -0.3733(2)
O21 O -0.87783(16) -0.1469(2) -0.3466(2)
O22 O -0.92282(19) -0.1416(3) -0.4987(3)
O23 O -0.97872(15) -0.0710(2) -0.4630(2)
O24 O -0.94370(14) 0.0040(2) -0.5345(2)
C5 C -0.9543(2) 0.1770(3) -0.3183(3)
C6 C -0.9806(2) 0.0589(3) -0.3235(3)
C7 C -0.6099(3) -0.0397(4) -0.0930(4)
C8 C -0.5986(3) 0.0790(5) -0.1041(5)
C9 C -0.7234(2) -0.0578(3) -0.4071(3)
H1 H -0.8172 0.1359 -0.5505
H2 H -0.8300 0.0718 -0.5864
H3 H -0.8978 -0.0406 -0.5934
H4 H -0.8608 -0.0898 -0.5468
C10 C -0.9432(2) 0.0492(3) -0.5737(3)
C11 C -0.8389(2) -0.1784(3) -0.2986(3)
H5 H -0.6768 -0.1816 -0.2303
H6 H -0.7095 -0.2086 -0.2201
H7 H -0.7459 -0.2225 -0.3448
H8 H -0.7636 -0.1794 -0.4055
H9 H -0.9149 -0.1844 -0.4873
H10 H -0.9418 -0.1375 -0.5441
H11 H -0.9806 -0.1136 -0.4532
H12 H -0.9975 -0.0658 -0.5087
H13 H -0.9323 0.2091 -0.3140
C12 C -0.9949(2) 0.2002(4) -0.3248(4)
C13 C -0.9718(2) -0.0185(3) -0.3112(3)
N1 N -1.02117(18) 0.0817(3) -0.3328(3)
H14 H -0.6309 -0.0777 -0.1062
C14 C -0.5595(3) -0.0492(5) -0.0443(4)
C15 C -0.5473(3) 0.0694(5) -0.0558(5)
H15 H -0.6113 0.1232 -0.1235
C16 C -0.6936(2) -0.0782(3) -0.4306(3)
C17 C -0.9915(2) 0.0681(3) -0.6441(3)
C18 C -0.8412(2) -0.2306(3) -0.2536(4)
H16 H -0.9999 0.2478 -0.3225
C19 C -1.0281(2) 0.1500(4) -0.3348(4)
N2 N -0.92738(18) -0.0382(3) -0.2515(3)
H17 H -0.5471 -0.0931 -0.0235
C20 C -0.5272(2) 0.0053(4) -0.0257(4)
H18 H -0.5266 0.1073 -0.0443
C21 C -0.6456(2) -0.0549(4) -0.3916(4)
C22 C -0.7130(2) -0.1172(3) -0.4932(3)
C23 C -0.9999(2) 0.1382(4) -0.6644(3)
C24 C -0.8820(3) -0.2739(4) -0.2843(4)
C25 C -0.8027(2) -0.2394(4) -0.1810(4)
H19 H -1.0568 0.1657 -0.3433
C26 C -0.9197(2) -0.1053(4) -0.2342(4)
H20 H -0.6310 -0.0314 -0.3484
C27 C -0.6192(2) -0.0664(4) -0.4168(4)
C28 C -0.7619(2) -0.1537(3) -0.5359(3)
N3 N -0.68755(18) -0.1294(3) -0.5178(3)
C29 C -1.0454(2) 0.1572(4) -0.7269(4)
H21 H -0.9755 0.1717 -0.6366
H22 H -0.9091 -0.2682 -0.3322
C30 C -0.8822(4) -0.3247(5) -0.2441(5)
C31 C -0.7596(2) -0.1913(3) -0.1384(4)
N4 N -0.8027(3) -0.2887(4) -0.1410(4)
H23 H -0.8888 -0.1185 -0.1933
H24 H -0.5870 -0.0505 -0.3916
C32 C -0.6423(2) -0.1024(4) -0.4808(4)
C33 C -0.7875(2) -0.1693(3) -0.6086(3)
N5 N -0.77826(18) -0.1757(3) -0.4998(2)
H25 H -1.0523 0.2036 -0.7424
H26 H -0.9092 -0.3542 -0.2640
C34 C -0.8416(4) -0.3314(6) -0.1735(6)
C35 C -0.7112(2) -0.2178(3) -0.0968(3)
N6 N -0.7692(2) -0.1230(3) -0.1376(3)
H27 H -0.6253 -0.1081 -0.4993
C36 C -0.8294(2) -0.2114(3) -0.6434(3)
C37 C -0.77563(19) -0.1412(3) -0.6554(3)
C38 C -0.8198(2) -0.2132(3) -0.5353(3)
H28 H -0.8412 -0.3677 -0.1469
C39 C -0.6729(3) -0.1730(4) -0.0491(4)
C40 C -0.7025(2) -0.2924(3) -0.1064(3)
C41 C -0.7311(3) -0.0817(4) -0.0911(4)
C42 C -0.8463(2) -0.2332(3) -0.6066(3)
H29 H -0.8458 -0.2248 -0.6909
H30 H -0.8317 -0.2267 -0.5108
C43 C -0.6830(3) -0.1038(4) -0.0456(4)
H31 H -0.6406 -0.1893 -0.0197
H32 H -0.7374 -0.0346 -0.0894
H33 H -0.8745 -0.2604 -0.6288
H34 H -0.6579 -0.0729 -0.0132
C17D C -1.0085(2) -0.0681(3) -0.3559(3)
C13D C -1.0282(2) 0.0185(3) -0.6888(3)
C23D C -1.0001(2) -0.1382(4) -0.3356(3)
C10D C -1.0568(2) -0.0492(3) -0.4263(3)
C20D C -0.4728(2) -0.0053(4) 0.0257(4)
C6D C -1.0194(2) -0.0589(3) -0.6765(3)
N2D N -1.07262(18) 0.0382(3) -0.7485(3)
C29D C -0.9546(2) -0.1572(4) -0.2731(4)
H21D H -1.0245 -0.1717 -0.3634
O24D O -1.05630(14) -0.0040(2) -0.4655(2)
O15D O -1.09424(14) -0.0796(2) -0.4422(2)
C14D C -0.4405(3) 0.0492(5) 0.0443(4)
C15D C -0.4527(3) -0.0694(5) 0.0558(5)
C3D C -1.0532(2) -0.1055(3) -0.6815(3)
N1D N -0.97883(18) -0.0817(3) -0.6672(3)
C26D C -1.0803(2) 0.1053(4) -0.7658(4)
H25D H -0.9477 -0.2036 -0.2576
Gd4D Gd -1.105155(9) 0.044285(14) -0.587369(14)
Gd2D Gd -1.175683(9) -0.042727(14) -0.535196(14)
C7D C -0.3901(3) 0.0397(4) 0.0930(4)
H17D H -0.4529 0.0931 0.0235
H18D H -0.4734 -0.1073 0.0443
C8D C -0.4014(3) -0.0790(5) 0.1041(5)
C1D C -1.0923(2) -0.0793(3) -0.6771(3)
C5D C -1.0457(2) -0.1770(3) -0.6817(3)
C19D C -0.9719(2) -0.1500(4) -0.6652(4)
H23D H -1.1112 0.1185 -0.8067
O9D O -1.08105(15) -0.0246(2) -0.6404(2)
O21D O -1.12217(16) 0.1469(2) -0.6534(2)
O4D O -1.14082(13) -0.0664(2) -0.59445(19)
O12D O -1.16816(13) 0.0662(2) -0.57807(19)
O5D O -1.18453(13) 0.0257(2) -0.7050(2)
O22D O -1.07718(19) 0.1416(3) -0.5013(3)
O23D O -1.02128(15) 0.0710(2) -0.5370(2)
O11D O -1.23842(14) 0.0239(2) -0.5487(2)
O3D O -1.23707(13) -0.0385(2) -0.6615(2)
O13D O -1.18905(15) -0.0919(2) -0.4546(2)
O14D O -1.13374(14) 0.0478(2) -0.4355(2)
O16D O -1.18936(16) -0.1646(2) -0.5583(2)
C4D C -0.3706(2) -0.0255(3) 0.1223(3)
H14D H -0.3691 0.0777 0.1062
H15D H -0.3887 -0.1232 0.1235
O7E O -0.77580(14) -0.07548(19) -0.6638(2)
O8E O -0.77218(14) -0.1841(2) -0.6931(2)
O1D O -1.13101(14) -0.1140(2) -0.7061(2)
H13D H -1.0677 -0.2091 -0.6860
C12D C -1.0051(2) -0.2002(4) -0.6752(4)
H19D H -0.9432 -0.1657 -0.6567
O6C O -0.70833(15) -0.3051(2) -0.1639(2)
O16C O -0.68936(16) -0.3354(2) -0.0583(2)
C11D C -1.1611(2) 0.1784(3) -0.7014(3)
Gd1D Gd -1.206238(9) -0.092032(14) -0.717760(14)
Gd3D Gd -1.242181(10) 0.086082(14) -0.695091(14)
H9D H -1.0851 0.1844 -0.5127
H10D H -1.0582 0.1375 -0.4559
H11D H -1.0194 0.1136 -0.5468
H12D H -1.0025 0.0658 -0.4913
C9D C -1.2766(2) 0.0578(3) -0.5929(3)
H1D H -1.1828 -0.1359 -0.4495
H2D H -1.1700 -0.0718 -0.4136
H3D H -1.1022 0.0406 -0.4066
H4D H -1.1392 0.0898 -0.4532
C2D C -0.3162(2) -0.0337(3) 0.1758(3)
Gd1E Gd -0.793762(9) -0.092032(14) -0.782240(14)
H16D H -1.0001 -0.2478 -0.6775
Gd1C Gd -0.706238(9) -0.407968(14) -0.217760(14)
Gd2C Gd -0.675683(9) -0.457273(14) -0.035196(14)
C18D C -1.1588(2) 0.2306(3) -0.7464(4)
O17D O -1.20243(16) 0.1702(2) -0.7152(2)
O6D O -1.20833(15) -0.1949(2) -0.6639(2)
O7D O -1.22420(14) -0.07548(19) -0.8362(2)
O8D O -1.22782(14) -0.1841(2) -0.8069(2)
O2D O -1.29728(14) -0.0938(2) -0.8050(2)
O18D O -1.29328(14) 0.0737(2) -0.6568(2)
O19D O -1.30472(16) 0.1714(2) -0.7810(2)
O20D O -1.23229(16) 0.1901(2) -0.6267(2)
O10D O -1.29071(15) 0.0224(2) -0.8002(2)
C16D C -1.3064(2) 0.0782(3) -0.5694(3)
O10D_2 O -0.29071(15) 0.0224(2) 0.1998(2)
O2D_2 O -0.29728(14) -0.0938(2) 0.1950(2)
C24D C -1.1180(3) 0.2739(4) -0.7157(4)
C25D C -1.1973(2) 0.2394(4) -0.8190(4)
H5D H -1.3232 0.1816 -0.7697
H6D H -1.2905 0.2086 -0.7799
H7D H -1.2541 0.2225 -0.6552
H8D H -1.2364 0.1794 -0.5945
C21D C -1.3544(2) 0.0549(4) -0.6084(4)
C22D C -1.2870(2) 0.1172(3) -0.5068(3)
Gd3D_2 Gd -0.242181(10) 0.086082(14) 0.304909(14)
Gd1D_2 Gd -0.206238(9) -0.092032(14) 0.282240(14)
H22D H -1.0909 0.2682 -0.6678
C30D C -1.1178(4) 0.3247(5) -0.7559(5)
C31D C -1.2404(2) 0.1913(3) -0.8616(4)
N4D N -1.1973(3) 0.2887(4) -0.8590(4)
H20D H -1.3690 0.0314 -0.6516
C27D C -1.3808(2) 0.0664(4) -0.5832(4)
C28D C -1.2381(2) 0.1537(3) -0.4641(3)
N3D N -1.31245(18) 0.1294(3) -0.4822(3)
H26D H -1.0908 0.3542 -0.7360
C34D C -1.1584(4) 0.3314(6) -0.8265(6)
C35D C -1.2888(2) 0.2178(3) -0.9032(3)
N6D N -1.2308(2) 0.1230(3) -0.8624(3)
H24D H -1.4130 0.0505 -0.6084
C32D C -1.3577(2) 0.1024(4) -0.5192(4)
C33D C -1.2125(2) 0.1693(3) -0.3914(3)
N5D N -1.22174(18) 0.1757(3) -0.5002(2)
H28D H -1.1588 0.3677 -0.8531
C39D C -1.3271(3) 0.1730(4) -0.9509(4)
C40D C -1.2975(2) 0.2924(3) -0.8936(3)
C41D C -1.2689(3) 0.0817(4) -0.9089(4)
H27D H -1.3747 0.1081 -0.5007
C36D C -1.1706(2) 0.2114(3) -0.3566(3)
C37D C -1.22437(19) 0.1412(3) -0.3446(3)
C38D C -1.1802(2) 0.2132(3) -0.4647(3)
C43D C -1.3170(3) 0.1038(4) -0.9544(4)
H31D H -1.3594 0.1893 -0.9803
O6G O -1.29167(15) 0.3051(2) -0.8361(2)
O16G O -1.31064(16) 0.3354(2) -0.9417(2)
H32D H -1.2626 0.0346 -0.9106
C42D C -1.1537(2) 0.2332(3) -0.3934(3)
H29D H -1.1542 0.2248 -0.3091
O7A O -1.22420(14) 0.07548(19) -0.3362(2)
O8A O -1.22782(14) 0.1841(2) -0.3069(2)
H30D H -1.1683 0.2267 -0.4892
H34D H -1.3421 0.0729 -0.9868
Gd1G Gd -1.293762(9) 0.407968(14) -0.782240(14)
Gd2G Gd -1.324317(9) 0.457273(14) -0.964804(14)
H33D H -1.1255 0.2604 -0.3712
Gd1A Gd -1.206238(9) 0.092032(14) -0.217760(14)
loop_
_geom_bond_atom_site_label_1
_geom_bond_atom_site_label_2
_geom_bond_site_symmetry_1
_geom_bond_site_symmetry_2
Gd1 O1 1_555 1_555
O1 C1 1_555 1_555
O2 Gd1 1_555 1_555
O3 Gd1 1_555 1_555
O4 Gd1 1_555 1_555
O5 Gd1 1_555 1_555
O6 Gd1 1_555 1_555
O7 Gd1 1_555 1_555
O8 Gd1 1_555 1_555
C1 C3 1_555 1_555
C2 O2 1_555 1_555
Gd2 O3 1_555 1_555
Gd3 O3 1_555 1_555
Gd4 O4 1_555 1_555
C3 C5 1_555 1_555
O9 C1 1_555 1_555
C4 C2 1_555 1_555
O10 C2 1_555 1_555
O11 Gd2 1_555 1_555
O12 Gd2 1_555 1_555
O13 Gd2 1_555 1_555
O14 Gd2 1_555 1_555
O15 Gd2 1_555 1_555
O16 Gd2 1_555 1_555
O17 Gd3 1_555 1_555
O18 Gd3 1_555 1_555
O19 Gd3 1_555 1_555
O20 Gd3 1_555 1_555
O21 Gd4 1_555 1_555
O22 Gd4 1_555 1_555
O23 Gd4 1_555 1_555
O24 Gd4 1_555 1_555
C5 H13 1_555 1_555
C6 C3 1_555 1_555
C7 C4 1_555 1_555
C8 C4 1_555 1_555
C9 O11 1_555 1_555
H1 O13 1_555 1_555
H2 O13 1_555 1_555
H3 O14 1_555 1_555
H4 O14 1_555 1_555
C10 O15 1_555 1_555
C11 O17 1_555 1_555
H5 O19 1_555 1_555
H6 O19 1_555 1_555
H7 O20 1_555 1_555
H8 O20 1_555 1_555
H9 O22 1_555 1_555
H10 O22 1_555 1_555
H11 O23 1_555 1_555
H12 O23 1_555 1_555
C12 C5 1_555 1_555
C13 C6 1_555 1_555
N1 C6 1_555 1_555
H14 C7 1_555 1_555
C14 C7 1_555 1_555
C15 C8 1_555 1_555
H15 C8 1_555 1_555
C16 C9 1_555 1_555
C17 C10 1_555 1_555
C18 C11 1_555 1_555
H16 C12 1_555 1_555
C19 C12 1_555 1_555
N2 C13 1_555 1_555
H17 C14 1_555 1_555
C20 C14 1_555 1_555
H18 C15 1_555 1_555
C21 C16 1_555 1_555
C22 C16 1_555 1_555
C23 C17 1_555 1_555
C24 C18 1_555 1_555
C25 C18 1_555 1_555
H19 C19 1_555 1_555
C26 N2 1_555 1_555
H20 C21 1_555 1_555
C27 C21 1_555 1_555
C28 C22 1_555 1_555
N3 C22 1_555 1_555
C29 C23 1_555 1_555
H21 C23 1_555 1_555
H22 C24 1_555 1_555
C30 C24 1_555 1_555
C31 C25 1_555 1_555
N4 C25 1_555 1_555
H23 C26 1_555 1_555
H24 C27 1_555 1_555
C32 C27 1_555 1_555
C33 C28 1_555 1_555
N5 C28 1_555 1_555
H25 C29 1_555 1_555
H26 C30 1_555 1_555
C34 C30 1_555 1_555
C35 C31 1_555 1_555
N6 C31 1_555 1_555
H27 C32 1_555 1_555
C36 C33 1_555 1_555
C37 C33 1_555 1_555
C38 N5 1_555 1_555
H28 C34 1_555 1_555
C39 C35 1_555 1_555
C40 C35 1_555 1_555
C41 N6 1_555 1_555
C42 C36 1_555 1_555
H29 C36 1_555 1_555
H30 C38 1_555 1_555
C43 C39 1_555 1_555
H31 C39 1_555 1_555
H32 C41 1_555 1_555
H33 C42 1_555 1_555
H34 C43 1_555 1_555
O25 Cl1 1_555 1_555
O26 Cl1 1_555 1_555
O27 Cl1 1_555 1_555
O28 Cl1 1_555 1_555
C17D C13 1_555 1_555
C13D C17 1_555 1_555
C23D C17D 1_555 1_555
C10D C17D 1_555 1_555
C20D C20 1_555 1_555
C6D C13D 1_555 1_555
N2D C13D 1_555 1_555
C29D C26 1_555 1_555
H21D C23D 1_555 1_555
O24D C10D 1_555 1_555
O15D C10D 1_555 1_555
C14D C20D 1_555 1_555
C15D C20D 1_555 1_555
C3D C6D 1_555 1_555
N1D C6D 1_555 1_555
C26D C29 1_555 1_555
H25D C29D 1_555 1_555
Gd4D O24D 1_555 1_555
Gd2D O15D 1_555 1_555
C7D C14D 1_555 1_555
H17D C14D 1_555 1_555
H18D C15D 1_555 1_555
C8D C15D 1_555 1_555
C1D C3D 1_555 1_555
C5D C3D 1_555 1_555
C19D N1D 1_555 1_555
H23D C26D 1_555 1_555
O9D Gd4D 1_555 1_555
O21D Gd4D 1_555 1_555
O4D Gd4D 1_555 1_555
O12D Gd4D 1_555 1_555
O5D Gd4D 1_555 1_555
O22D Gd4D 1_555 1_555
O23D Gd4D 1_555 1_555
O11D Gd2D 1_555 1_555
O3D Gd2D 1_555 1_555
O13D Gd2D 1_555 1_555
O14D Gd2D 1_555 1_555
O16D Gd2D 1_555 1_555
C4D C7D 1_555 1_555
H14D C7D 1_555 1_555
H15D C8D 1_555 1_555
O7E C37 1_555 1_555
O8E C37 1_555 1_555
O1D C1D 1_555 1_555
H13D C5D 1_555 1_555
C12D C5D 1_555 1_555
H19D C19D 1_555 1_555
O6C C40 1_555 1_555
O16C C40 1_555 1_555
C11D O21D 1_555 1_555
Gd1D O4D 1_555 1_555
Gd3D O12D 1_555 1_555
H9D O22D 1_555 1_555
H10D O22D 1_555 1_555
H11D O23D 1_555 1_555
H12D O23D 1_555 1_555
C9D O11D 1_555 1_555
H1D O13D 1_555 1_555
H2D O13D 1_555 1_555
H3D O14D 1_555 1_555
H4D O14D 1_555 1_555
C2D C4D 1_555 1_555
Gd1E O7E 1_555 1_555
H16D C12D 1_555 1_555
Gd1C O6C 1_555 1_555
Gd2C O16C 1_555 1_555
C18D C11D 1_555 1_555
O17D C11D 1_555 1_555
O6D Gd1D 1_555 1_555
O7D Gd1D 1_555 1_555
O8D Gd1D 1_555 1_555
O2D Gd1D 1_555 1_555
O18D Gd3D 1_555 1_555
O19D Gd3D 1_555 1_555
O20D Gd3D 1_555 1_555
O10D Gd3D 1_555 1_555
C16D C9D 1_555 1_555
O10D_2 C2D 1_555 1_555
O2D_2 C2D 1_555 1_555
C24D C18D 1_555 1_555
C25D C18D 1_555 1_555
H5D O19D 1_555 1_555
H6D O19D 1_555 1_555
H7D O20D 1_555 1_555
H8D O20D 1_555 1_555
C21D C16D 1_555 1_555
C22D C16D 1_555 1_555
Gd3D_2 O10D_2 1_555 1_555
Gd1D_2 O2D_2 1_555 1_555
H22D C24D 1_555 1_555
C30D C24D 1_555 1_555
C31D C25D 1_555 1_555
N4D C25D 1_555 1_555
H20D C21D 1_555 1_555
C27D C21D 1_555 1_555
C28D C22D 1_555 1_555
N3D C22D 1_555 1_555
H26D C30D 1_555 1_555
C34D C30D 1_555 1_555
C35D C31D 1_555 1_555
N6D C31D 1_555 1_555
H24D C27D 1_555 1_555
C32D C27D 1_555 1_555
C33D C28D 1_555 1_555
N5D C28D 1_555 1_555
H28D C34D 1_555 1_555
C39D C35D 1_555 1_555
C40D C35D 1_555 1_555
C41D N6D 1_555 1_555
H27D C32D 1_555 1_555
C36D C33D 1_555 1_555
C37D C33D 1_555 1_555
C38D N5D 1_555 1_555
C43D C39D 1_555 1_555
H31D C39D 1_555 1_555
O6G C40D 1_555 1_555
O16G C40D 1_555 1_555
H32D C41D 1_555 1_555
C42D C36D 1_555 1_555
H29D C36D 1_555 1_555
O7A C37D 1_555 1_555
O8A C37D 1_555 1_555
H30D C38D 1_555 1_555
H34D C43D 1_555 1_555
Gd1G O6G 1_555 1_555
Gd2G O16G 1_555 1_555
H33D C42D 1_555 1_555
Gd1A O7A 1_555 1_555
O4 Gd2 1_555 1_555
O5 Gd3 1_555 1_555
O5 Gd4 1_555 1_555
Gd3 O10 1_555 1_555
Gd3 O12 1_555 1_555
Gd4 O9 1_555 1_555
Gd4 O12 1_555 1_555
O18 C9 1_555 1_555
O21 C11 1_555 1_555
O24 C10 1_555 1_555
N1 C19 1_555 1_555
C15 C20 1_555 1_555
N3 C32 1_555 1_555
N4 C34 1_555 1_555
C38 C42 1_555 1_555
C41 C43 1_555 1_555
C23D C29D 1_555 1_555
N2D C26D 1_555 1_555
Gd2D O4D 1_555 1_555
Gd2D O12D 1_555 1_555
C8D C4D 1_555 1_555
C1D O9D 1_555 1_555
C19D C12D 1_555 1_555
O5D Gd1D 1_555 1_555
O5D Gd3D 1_555 1_555
O3D Gd1D 1_555 1_555
O3D Gd3D 1_555 1_555
O8E Gd1E 1_555 1_555
O1D Gd1D 1_555 1_555
Gd3D O17D 1_555 1_555
C9D O18D 1_555 1_555
N4D C34D 1_555 1_555
N3D C32D 1_555 1_555
C41D C43D 1_555 1_555
C38D C42D 1_555 1_555
O8A Gd1A 1_555 1_555

#END
