
#######################################################################
#
#                 Cambridge Crystallographic Data Centre
#                                CCDC 
#
#######################################################################
#
# If this CIF has been generated from an entry in the Cambridge 
# Structural Database, then it will include bibliographic, chemical, 
# crystal, experimental, refinement or atomic coordinate data resulting 
# from the CCDC's data processing and validation procedures.
#
#######################################################################

data_EPAVAU
_chemical_formula_moiety         '(C86 H78 Cl1 N12 O53 Tb8 1+)n'
_symmetry_cell_setting           monoclinic
_symmetry_space_group_name_H-M   'C 2/c'
_symmetry_Int_Tables_number      15
_space_group_name_Hall           '-C 2yc'
loop_
_symmetry_equiv_pos_site_id
_symmetry_equiv_pos_as_xyz
1 x,y,z
2 -x,y,1/2-z
3 1/2+x,1/2+y,z
4 1/2-x,1/2+y,1/2-z
5 -x,-y,-z
6 x,-y,1/2+z
7 1/2-x,1/2-y,-z
8 1/2+x,1/2-y,1/2+z
_cell_length_a                   34.5079(8)
_cell_length_b                   19.1590(4)
_cell_length_c                   23.9838(5)
_cell_angle_alpha                90
_cell_angle_beta                 128.0190(10)
_cell_angle_gamma                90
_cell_volume                     12491.9
loop_
_atom_site_label
_atom_site_type_symbol
_atom_site_fract_x
_atom_site_fract_y
_atom_site_fract_z
C1 C -0.0565(2) -0.5485(3) 0.0713(3)
C2 C -0.0092(2) -0.5693(3) 0.1402(3)
C3 C -0.0011(2) -0.6390(4) 0.1591(3)
H1 H -0.0255 -0.6719 0.1307
C4 C 0.0430(3) -0.6589(4) 0.2197(4)
H2 H 0.0492 -0.7054 0.2336
C5 C 0.0781(3) -0.6091(4) 0.2598(4)
H3 H 0.1087 -0.6235 0.3000
C6 C 0.0275(2) -0.5215(3) 0.1854(3)
C7 C 0.0201(2) -0.4440(3) 0.1751(3)
C8 C -0.0255(3) -0.3514(4) 0.1663(3)
H4 H -0.0531 -0.3347 0.1603
C9 C 0.0067(2) -0.3042(4) 0.1740(4)
H5 H 0.0019 -0.2567 0.1752
C10 C 0.0466(2) -0.3281(3) 0.1798(3)
H6 H 0.0687 -0.2967 0.1839
C11 C 0.0535(2) -0.3995(3) 0.1796(3)
C12 C 0.0921(2) -0.4254(3) 0.1744(3)
C13 C -0.1540(2) -0.3160(3) -0.1874(3)
C14 C -0.1506(2) -0.2608(3) -0.2278(3)
C15 C -0.1103(3) -0.2181(4) -0.1939(4)
H7 H -0.0836 -0.2268 -0.1470
C16 C -0.1095(3) -0.1633(5) -0.2285(5)
H8 H -0.0828 -0.1330 -0.2055
C17 C -0.1480(4) -0.1533(5) -0.2968(6)
H9 H -0.1473 -0.1147 -0.3197
C18 C -0.1886(3) -0.2491(3) -0.2985(3)
C19 C -0.2315(2) -0.2974(3) -0.3439(3)
C20 C -0.2577(4) -0.4066(4) -0.3854(4)
H10 H -0.2505 -0.4537 -0.3838
C21 C -0.3063(3) -0.3865(4) -0.4346(4)
H11 H -0.3307 -0.4187 -0.4651
C22 C -0.3168(3) -0.3178(4) -0.4363(3)
H12 H -0.3489 -0.3017 -0.4684
C23 C -0.2789(2) -0.2722(3) -0.3896(3)
C24 C -0.2908(2) -0.1971(3) -0.3852(3)
C25 C -0.2228(2) -0.6364(3) -0.3388(3)
C26 C -0.2108(2) -0.6684(3) -0.3834(3)
C27 C -0.1696(3) -0.7099(3) -0.3485(3)
H13 H -0.1536 -0.7219 -0.3014
C28 C -0.1521(3) -0.7333(4) -0.3832(4)
H14 H -0.1241 -0.7610 -0.3602
C29 C -0.1768(3) -0.7151(4) -0.4516(4)
H15 H -0.1640 -0.7297 -0.4744
C30 C -0.2358(2) -0.6544(3) -0.4557(3)
C31 C -0.2841(2) -0.6187(3) -0.4993(3)
C32 C -0.3560(3) -0.6010(5) -0.5150(5)
H16 H -0.3748 -0.6068 -0.4996
C33 C -0.3751(3) -0.5651(6) -0.5753(5)
H17 H -0.4067 -0.5467 -0.6008
C34 C -0.3485(3) -0.5558(5) -0.5989(4)
H18 H -0.3621 -0.5322 -0.6411
C35 C -0.3014(2) -0.5814(3) -0.5600(3)
C36 C -0.2709(2) -0.5630(3) -0.5826(3)
C37 C -0.3156(2) -0.5113(4) -0.3195(3)
C38 C -0.3702(2) -0.5091(4) -0.3749(3)
C39 C -0.3979(2) -0.5682(4) -0.4014(4)
H19 H -0.3826 -0.6115 -0.3858
C40 C -0.4483(3) -0.5648(4) -0.4507(4)
H20 H -0.4662 -0.6060 -0.4688
C41 C -0.4724(3) -0.5028(4) -0.4738(4)
C42 C -0.4439(3) -0.4435(5) -0.4516(5)
H21 H -0.4589 -0.4005 -0.4705
C43 C -0.3929(3) -0.4470(5) -0.4011(5)
H22 H -0.3743 -0.4062 -0.3855
N1 N 0.07106(18) -0.5412(3) 0.2449(3)
N2 N -0.02003(18) -0.4211(3) 0.1668(3)
N3 N -0.1876(3) -0.1954(4) -0.3343(4)
N4 N -0.2206(2) -0.3647(3) -0.3405(3)
N5 N -0.3109(2) -0.6282(3) -0.4770(3)
N6 N -0.2180(2) -0.6778(3) -0.4888(3)
O1 O -0.09462(14) -0.5794(2) 0.0538(2)
O2 O -0.05492(14) -0.5032(2) 0.03451(19)
O3 O 0.08081(15) -0.4801(2) 0.1378(2)
O4 O 0.13147(14) -0.3927(2) 0.2039(2)
O5 O -0.11633(16) -0.3516(2) -0.1446(2)
O6 O -0.19454(17) -0.3223(2) -0.1983(2)
O7 O -0.28372(17) -0.1807(2) -0.3296(2)
O8 O -0.30656(16) -0.1588(2) -0.4375(2)
O9 O -0.22787(16) -0.6756(2) -0.3014(2)
O10 O -0.22167(14) -0.5713(2) -0.33234(18)
O11 O -0.23384(15) -0.5252(2) -0.5406(2)
O12 O -0.28496(17) -0.5840(2) -0.6420(2)
O13 O -0.23528(13) -0.5285(2) -0.15784(18)
O14 O -0.14099(13) -0.56255(19) -0.09449(17)
O15 O -0.18405(13) -0.46618(19) -0.20091(18)
O16 O -0.16415(13) -0.43150(19) -0.07142(18)
O17 O -0.22337(19) -0.3039(2) -0.1125(2)
H23 H -0.1958 -0.3077 -0.0701
H24 H -0.2469 -0.3003 -0.1091
O18 O -0.29794(18) -0.3143(2) -0.2600(2)
H25 H -0.3270 -0.3310 -0.2824
H26 H -0.2937 -0.3004 -0.2898
O19 O -0.18500(16) -0.5929(2) 0.0473(2)
H27 H -0.2132 -0.6145 0.0244
H28 H -0.1842 -0.5610 0.0738
O20 O -0.13141(16) -0.4526(2) 0.0672(2)
H29 H -0.0985 -0.4587 0.0965
H30 H -0.1417 -0.4566 0.0937
O21 O -0.07333(19) -0.3558(3) 0.0012(2)
H31 H -0.0526 -0.3592 0.0460
H32 H -0.0822 -0.3134 -0.0100
O22 O -0.02003(15) -0.4290(2) -0.0339(2)
H33 H -0.0156 -0.3849 -0.0303
H34 H -0.0138 -0.4454 -0.0608
O23 O -0.29506(15) -0.4536(2) -0.2916(2)
O24 O -0.29346(15) -0.5684(2) -0.3029(2)
Tb1 Tb -0.103674(9) -0.454269(14) -0.083884(13)
Tb2 Tb -0.206244(9) -0.582556(14) -0.216134(12)
Tb3 Tb -0.174693(9) -0.540628(14) -0.034235(12)
Tb4 Tb -0.237557(10) -0.405080(14) -0.183672(13)
C37D C -0.6844(2) -0.4887(4) -0.6805(3)
C38D C -0.6298(2) -0.4909(4) -0.6251(3)
C39D C -0.6021(2) -0.4318(4) -0.5986(4)
H19D H -0.6174 -0.3885 -0.6142
C40D C -0.5517(3) -0.4352(4) -0.5493(4)
H20D H -0.5338 -0.3940 -0.5312
C41D C -0.5276(3) -0.4972(4) -0.5262(4)
C42D C -0.5561(3) -0.5565(5) -0.5484(5)
H21D H -0.5411 -0.5995 -0.5295
C43D C -0.6071(3) -0.5530(5) -0.5989(5)
H22D H -0.6257 -0.5938 -0.6145
O23D O -0.70494(15) -0.5464(2) -0.7084(2)
O24D O -0.70654(15) -0.4316(2) -0.6971(2)
C1D C -0.9435(2) -0.4515(3) -1.0713(3)
C2D C -0.9908(2) -0.4307(3) -1.1402(3)
C3D C -0.9989(2) -0.3610(4) -1.1591(3)
H1D H -0.9745 -0.3281 -1.1307
C4D C -1.0430(3) -0.3411(4) -1.2197(4)
H2D H -1.0492 -0.2946 -1.2336
C5D C -1.0781(3) -0.3909(4) -1.2598(4)
H3D H -1.1087 -0.3765 -1.3000
C6D C -1.0275(2) -0.4785(3) -1.1854(3)
C7D C -1.0201(2) -0.5560(3) -1.1751(3)
C8D C -0.9745(3) -0.6486(4) -1.1663(3)
H4D H -0.9469 -0.6653 -1.1603
C9D C -1.0067(2) -0.6958(4) -1.1740(4)
H5D H -1.0019 -0.7433 -1.1752
C10D C -1.0466(2) -0.6719(3) -1.1798(3)
H6D H -1.0687 -0.7033 -1.1839
C11D C -1.0535(2) -0.6005(3) -1.1796(3)
C12D C -1.0921(2) -0.5746(3) -1.1744(3)
C13D C -0.8460(2) -0.6840(3) -0.8126(3)
C14D C -0.8494(2) -0.7392(3) -0.7722(3)
C15D C -0.8897(3) -0.7819(4) -0.8061(4)
H7D H -0.9164 -0.7732 -0.8530
C16D C -0.8905(3) -0.8367(5) -0.7715(5)
H8D H -0.9172 -0.8670 -0.7945
C17D C -0.8520(4) -0.8467(5) -0.7032(6)
H9D H -0.8527 -0.8853 -0.6803
C18D C -0.8114(3) -0.7509(3) -0.7015(3)
C19D C -0.7685(2) -0.7026(3) -0.6561(3)
C20D C -0.7423(4) -0.5934(4) -0.6146(4)
H10D H -0.7495 -0.5463 -0.6162
C21D C -0.6937(3) -0.6135(4) -0.5654(4)
H11D H -0.6693 -0.5813 -0.5349
C22D C -0.6832(3) -0.6822(4) -0.5637(3)
H12D H -0.6511 -0.6983 -0.5316
C23D C -0.7211(2) -0.7278(3) -0.6104(3)
C24D C -0.7092(2) -0.8029(3) -0.6148(3)
C25D C -0.7772(2) -0.3636(3) -0.6612(3)
C26D C -0.7892(2) -0.3316(3) -0.6166(3)
C27D C -0.8304(3) -0.2901(3) -0.6515(3)
H13D H -0.8464 -0.2781 -0.6986
C28D C -0.8479(3) -0.2667(4) -0.6168(4)
H14D H -0.8759 -0.2390 -0.6398
C29D C -0.8232(3) -0.2849(4) -0.5484(4)
H15D H -0.8360 -0.2703 -0.5256
C30D C -0.7642(2) -0.3456(3) -0.5443(3)
C31D C -0.7159(2) -0.3813(3) -0.5007(3)
C32D C -0.6440(3) -0.3990(5) -0.4850(5)
H16D H -0.6252 -0.3932 -0.5004
C33D C -0.6249(3) -0.4349(6) -0.4247(5)
H17D H -0.5933 -0.4533 -0.3992
C34D C -0.6515(3) -0.4442(5) -0.4011(4)
H18D H -0.6379 -0.4678 -0.3589
C35D C -0.6986(2) -0.4186(3) -0.4400(3)
C36D C -0.7291(2) -0.4370(3) -0.4174(3)
N1D N -1.07106(18) -0.4588(3) -1.2449(3)
N2D N -0.97997(18) -0.5789(3) -1.1668(3)
N3D N -0.8124(3) -0.8046(4) -0.6657(4)
N4D N -0.7794(2) -0.6353(3) -0.6595(3)
N5D N -0.6891(2) -0.3718(3) -0.5230(3)
N6D N -0.7820(2) -0.3222(3) -0.5112(3)
O1D O -0.90538(14) -0.4206(2) -1.0538(2)
O2D O -0.94508(14) -0.4968(2) -1.03451(19)
O3D O -1.08081(15) -0.5199(2) -1.1378(2)
O4D O -1.13147(14) -0.6073(2) -1.2039(2)
O5D O -0.88367(16) -0.6484(2) -0.8554(2)
O6D O -0.80546(17) -0.6777(2) -0.8017(2)
O7D O -0.71628(17) -0.8193(2) -0.6704(2)
O8D O -0.69344(16) -0.8412(2) -0.5625(2)
O9D O -0.77213(16) -0.3244(2) -0.6986(2)
O10D O -0.77833(14) -0.4287(2) -0.66766(18)
O11D O -0.76616(15) -0.4748(2) -0.4594(2)
O12D O -0.71504(17) -0.4160(2) -0.3580(2)
O13D O -0.76472(13) -0.4715(2) -0.84216(18)
O14D O -0.85901(13) -0.43745(19) -0.90551(17)
O15D O -0.81595(13) -0.53382(19) -0.79909(18)
O16D O -0.83585(13) -0.56850(19) -0.92858(18)
O17D O -0.77663(19) -0.6961(2) -0.8875(2)
H23D H -0.8042 -0.6923 -0.9299
H24D H -0.7531 -0.6997 -0.8909
O18D O -0.70206(18) -0.6857(2) -0.7400(2)
H25D H -0.6730 -0.6690 -0.7176
H26D H -0.7063 -0.6996 -0.7102
O19D O -0.81500(16) -0.4071(2) -1.0473(2)
H27D H -0.7868 -0.3855 -1.0244
H28D H -0.8158 -0.4390 -1.0738
O20D O -0.86859(16) -0.5474(2) -1.0672(2)
H29D H -0.9015 -0.5413 -1.0965
H30D H -0.8583 -0.5434 -1.0937
O21D O -0.92667(19) -0.6442(3) -1.0012(2)
H31D H -0.9474 -0.6408 -1.0460
H32D H -0.9178 -0.6866 -0.9900
O22D O -0.97997(15) -0.5710(2) -0.9661(2)
H33D H -0.9844 -0.6151 -0.9697
H34D H -0.9862 -0.5546 -0.9392
Tb1D Tb -0.896326(9) -0.545731(14) -0.916116(13)
Tb2D Tb -0.793756(9) -0.417444(14) -0.783866(12)
Tb3D Tb -0.825307(9) -0.459372(14) -0.965765(12)
Tb4D Tb -0.762443(10) -0.594920(14) -0.816328(13)
O3_2 O -0.91919(15) -0.4801(2) -0.8622(2)
O3D_2 O -0.08081(15) -0.5199(2) -0.1378(2)
O4_2 O -0.86853(14) -0.3927(2) -0.7961(2)
O4D_2 O -0.13147(14) -0.6073(2) -0.2039(2)
O7C O -0.21628(17) -0.6807(2) -0.1704(2)
O7G O -0.78372(17) -0.3193(2) -0.8296(2)
O8C O -0.19344(16) -0.6588(2) -0.0625(2)
O8G O -0.80656(16) -0.3412(2) -0.9375(2)
O11A O -0.76616(15) -0.5252(2) -0.9594(2)
O11E O -0.23384(15) -0.4748(2) -0.0406(2)
O12A O -0.71504(17) -0.5840(2) -0.8580(2)
O12E O -0.28496(17) -0.4160(2) -0.1420(2)
Tb1_2 Tb -1.103674(9) -0.454269(14) -1.083884(13)
Tb1D_2 Tb 0.103674(9) -0.545731(14) 0.083884(13)
Tb2_2 Tb -1.206244(9) -0.582556(14) -1.216134(12)
Tb2C Tb -0.293756(9) -0.082556(14) -0.283866(12)
Tb2D_2 Tb 0.206244(9) -0.417444(14) 0.216134(12)
Tb2G Tb -0.706244(9) -0.917444(14) -0.716134(12)
Tb3A Tb -0.825307(9) -0.540628(14) -0.465765(12)
Tb3C Tb -0.325307(9) -0.040628(14) -0.465765(12)
Tb3E Tb -0.174693(9) -0.459372(14) -0.534235(12)
Tb3G Tb -0.674693(9) -0.959372(14) -0.534235(12)
Tb4A Tb -0.762443(10) -0.405080(14) -0.316328(13)
Tb4E Tb -0.237557(10) -0.594920(14) -0.683672(13)
O25 O 0.0578(3) -0.3335(4) 0.0350(4)
O26 O 0.0911(3) -0.2302(5) 0.0968(4)
O27 O 0.0497(5) -0.2310(7) -0.0186(6)
O28 O 0.0098(5) -0.2473(7) 0.0188(7)
Cl1 Cl 0.05408(10) -0.26073(11) 0.03226(12)
O29 O -0.16091(15) -0.5116(2) -0.35588(19)
loop_
_geom_bond_atom_site_label_1
_geom_bond_atom_site_label_2
_geom_bond_site_symmetry_1
_geom_bond_site_symmetry_2
C1 C2 1_555 1_555
C2 C3 1_555 1_555
C3 H1 1_555 1_555
C4 C3 1_555 1_555
H2 C4 1_555 1_555
C5 C4 1_555 1_555
H3 C5 1_555 1_555
C6 C2 1_555 1_555
C7 C6 1_555 1_555
C8 H4 1_555 1_555
C9 C8 1_555 1_555
H5 C9 1_555 1_555
C10 C9 1_555 1_555
H6 C10 1_555 1_555
C11 C7 1_555 1_555
C12 C11 1_555 1_555
C13 C14 1_555 1_555
C14 C15 1_555 1_555
C15 H7 1_555 1_555
C16 C15 1_555 1_555
H8 C16 1_555 1_555
C17 C16 1_555 1_555
H9 C17 1_555 1_555
C18 C14 1_555 1_555
C19 C18 1_555 1_555
C20 H10 1_555 1_555
C21 C20 1_555 1_555
H11 C21 1_555 1_555
C22 C21 1_555 1_555
H12 C22 1_555 1_555
C23 C19 1_555 1_555
C24 C23 1_555 1_555
C25 C26 1_555 1_555
C26 C27 1_555 1_555
C27 H13 1_555 1_555
C28 C27 1_555 1_555
H14 C28 1_555 1_555
C29 C28 1_555 1_555
H15 C29 1_555 1_555
C30 C26 1_555 1_555
C31 C30 1_555 1_555
C32 H16 1_555 1_555
C33 C32 1_555 1_555
H17 C33 1_555 1_555
C34 C33 1_555 1_555
H18 C34 1_555 1_555
C35 C31 1_555 1_555
C36 C35 1_555 1_555
C37 C38 1_555 1_555
C38 C39 1_555 1_555
C39 H19 1_555 1_555
C40 C39 1_555 1_555
H20 C40 1_555 1_555
C41 C40 1_555 1_555
C42 C41 1_555 1_555
H21 C42 1_555 1_555
C43 C38 1_555 1_555
H22 C43 1_555 1_555
N1 C5 1_555 1_555
N2 C7 1_555 1_555
N3 C17 1_555 1_555
N4 C19 1_555 1_555
N5 C31 1_555 1_555
N6 C29 1_555 1_555
O1 C1 1_555 1_555
O2 C1 1_555 1_555
O3 C12 1_555 1_555
O4 C12 1_555 1_555
O5 C13 1_555 1_555
O6 C13 1_555 1_555
O7 C24 1_555 1_555
O8 C24 1_555 1_555
O9 C25 1_555 1_555
O10 C25 1_555 1_555
O11 C36 1_555 1_555
O12 C36 1_555 1_555
O13 Tb2 1_555 1_555
O14 Tb1 1_555 1_555
O15 Tb1 1_555 1_555
O16 Tb1 1_555 1_555
O17 H23 1_555 1_555
H24 O17 1_555 1_555
O18 H25 1_555 1_555
H26 O18 1_555 1_555
O19 H27 1_555 1_555
H28 O19 1_555 1_555
O20 H29 1_555 1_555
H30 O20 1_555 1_555
O21 H31 1_555 1_555
H32 O21 1_555 1_555
O22 H33 1_555 1_555
H34 O22 1_555 1_555
O23 C37 1_555 1_555
O24 C37 1_555 1_555
Tb1 O2 1_555 1_555
Tb2 O9 1_555 1_555
Tb3 O1 1_555 1_555
Tb4 O6 1_555 1_555
O25 Cl1 1_555 1_555
O26 Cl1 1_555 1_555
O27 Cl1 1_555 1_555
O28 Cl1 1_555 1_555
C37D C38D 1_555 1_555
C38D C39D 1_555 1_555
C39D H19D 1_555 1_555
C40D C39D 1_555 1_555
H20D C40D 1_555 1_555
C41D C41 1_555 1_555
C42D C41D 1_555 1_555
H21D C42D 1_555 1_555
C43D C38D 1_555 1_555
H22D C43D 1_555 1_555
O23D C37D 1_555 1_555
O24D C37D 1_555 1_555
C1D C2D 1_555 1_555
C2D C3D 1_555 1_555
C3D H1D 1_555 1_555
C4D C3D 1_555 1_555
H2D C4D 1_555 1_555
C5D C4D 1_555 1_555
H3D C5D 1_555 1_555
C6D C2D 1_555 1_555
C7D C6D 1_555 1_555
C8D H4D 1_555 1_555
C9D C8D 1_555 1_555
H5D C9D 1_555 1_555
C10D C9D 1_555 1_555
H6D C10D 1_555 1_555
C11D C7D 1_555 1_555
C12D C11D 1_555 1_555
C13D C14D 1_555 1_555
C14D C15D 1_555 1_555
C15D H7D 1_555 1_555
C16D C15D 1_555 1_555
H8D C16D 1_555 1_555
C17D C16D 1_555 1_555
H9D C17D 1_555 1_555
C18D C14D 1_555 1_555
C19D C18D 1_555 1_555
C20D H10D 1_555 1_555
C21D C20D 1_555 1_555
H11D C21D 1_555 1_555
C22D C21D 1_555 1_555
H12D C22D 1_555 1_555
C23D C19D 1_555 1_555
C24D C23D 1_555 1_555
C25D C26D 1_555 1_555
C26D C27D 1_555 1_555
C27D H13D 1_555 1_555
C28D C27D 1_555 1_555
H14D C28D 1_555 1_555
C29D C28D 1_555 1_555
H15D C29D 1_555 1_555
C30D C26D 1_555 1_555
C31D C30D 1_555 1_555
C32D H16D 1_555 1_555
C33D C32D 1_555 1_555
H17D C33D 1_555 1_555
C34D C33D 1_555 1_555
H18D C34D 1_555 1_555
C35D C31D 1_555 1_555
C36D C35D 1_555 1_555
N1D C5D 1_555 1_555
N2D C7D 1_555 1_555
N3D C17D 1_555 1_555
N4D C19D 1_555 1_555
N5D C31D 1_555 1_555
N6D C29D 1_555 1_555
O1D C1D 1_555 1_555
O2D C1D 1_555 1_555
O3D C12D 1_555 1_555
O4D C12D 1_555 1_555
O5D C13D 1_555 1_555
O6D C13D 1_555 1_555
O7D C24D 1_555 1_555
O8D C24D 1_555 1_555
O9D C25D 1_555 1_555
O10D C25D 1_555 1_555
O11D C36D 1_555 1_555
O12D C36D 1_555 1_555
O13D Tb2D 1_555 1_555
O14D Tb1D 1_555 1_555
O15D Tb1D 1_555 1_555
O16D Tb1D 1_555 1_555
O17D H23D 1_555 1_555
H24D O17D 1_555 1_555
O18D H25D 1_555 1_555
H26D O18D 1_555 1_555
O19D H27D 1_555 1_555
H28D O19D 1_555 1_555
O20D H29D 1_555 1_555
H30D O20D 1_555 1_555
O21D H31D 1_555 1_555
H32D O21D 1_555 1_555
O22D H33D 1_555 1_555
H34D O22D 1_555 1_555
Tb1D O2D 1_555 1_555
Tb2D O24D 1_555 1_555
Tb3D O1D 1_555 1_555
Tb4D O23D 1_555 1_555
O3_2 Tb1D 1_555 1_555
O3D_2 Tb1 1_555 1_555
O4_2 Tb2D 1_555 1_555
O4D_2 Tb2 1_555 1_555
O7C Tb2 1_555 1_555
O7G Tb2D 1_555 1_555
O8C Tb3 1_555 1_555
O8G Tb3D 1_555 1_555
O11A Tb3D 1_555 1_555
O11E Tb3 1_555 1_555
O12A Tb4D 1_555 1_555
O12E Tb4 1_555 1_555
Tb1_2 O3D 1_555 1_555
Tb1D_2 O3 1_555 1_555
Tb2_2 O4D 1_555 1_555
Tb2C O7 1_555 1_555
Tb2D_2 O4 1_555 1_555
Tb2G O7D 1_555 1_555
Tb3A O11D 1_555 1_555
Tb3C O8 1_555 1_555
Tb3E O11 1_555 1_555
Tb3G O8D 1_555 1_555
Tb4A O12D 1_555 1_555
Tb4E O12 1_555 1_555
C6 N1 1_555 1_555
C8 N2 1_555 1_555
C10 C11 1_555 1_555
C18 N3 1_555 1_555
C20 N4 1_555 1_555
C22 C23 1_555 1_555
C30 N6 1_555 1_555
C32 N5 1_555 1_555
C34 C35 1_555 1_555
C42 C43 1_555 1_555
O5 Tb1 1_555 1_555
O10 Tb2 1_555 1_555
O13 Tb3 1_555 1_555
O13 Tb4 1_555 1_555
O14 Tb2 1_555 1_555
O14 Tb3 1_555 1_555
O15 Tb2 1_555 1_555
O15 Tb4 1_555 1_555
O16 Tb3 1_555 1_555
O16 Tb4 1_555 1_555
O17 Tb4 1_555 1_555
O18 Tb4 1_555 1_555
O19 Tb3 1_555 1_555
O20 Tb3 1_555 1_555
O21 Tb1 1_555 1_555
O22 Tb1 1_555 1_555
O23 Tb4 1_555 1_555
O24 Tb2 1_555 1_555
C40D C41D 1_555 1_555
C42D C43D 1_555 1_555
C6D N1D 1_555 1_555
C8D N2D 1_555 1_555
C10D C11D 1_555 1_555
C18D N3D 1_555 1_555
C20D N4D 1_555 1_555
C22D C23D 1_555 1_555
C30D N6D 1_555 1_555
C32D N5D 1_555 1_555
C34D C35D 1_555 1_555
O5D Tb1D 1_555 1_555
O6D Tb4D 1_555 1_555
O9D Tb2D 1_555 1_555
O10D Tb2D 1_555 1_555
O13D Tb3D 1_555 1_555
O13D Tb4D 1_555 1_555
O14D Tb2D 1_555 1_555
O14D Tb3D 1_555 1_555
O15D Tb2D 1_555 1_555
O15D Tb4D 1_555 1_555
O16D Tb3D 1_555 1_555
O16D Tb4D 1_555 1_555
O17D Tb4D 1_555 1_555
O18D Tb4D 1_555 1_555
O19D Tb3D 1_555 1_555
O20D Tb3D 1_555 1_555
O21D Tb1D 1_555 1_555
O22D Tb1D 1_555 1_555

#END
