
#######################################################################
#
#                 Cambridge Crystallographic Data Centre
#                                CCDC 
#
#######################################################################
#
# If this CIF has been generated from an entry in the Cambridge 
# Structural Database, then it will include bibliographic, chemical, 
# crystal, experimental, refinement or atomic coordinate data resulting 
# from the CCDC's data processing and validation procedures.
#
#######################################################################

data_CUGVUW
_chemical_formula_moiety         '(C22 H14 Cu1 N12)n'
_symmetry_cell_setting           rhombohedral
_symmetry_space_group_name_H-M   'R -3'
_symmetry_Int_Tables_number      148
_space_group_name_Hall           '-R 3'
loop_
_symmetry_equiv_pos_site_id
_symmetry_equiv_pos_as_xyz
1 x,y,z
2 -y,x-y,z
3 -x+y,-x,z
4 2/3+x,1/3+y,1/3+z
5 2/3-y,1/3+x-y,1/3+z
6 2/3-x+y,1/3-x,1/3+z
7 1/3+x,2/3+y,2/3+z
8 1/3-y,2/3+x-y,2/3+z
9 1/3-x+y,2/3-x,2/3+z
10 -x,-y,-z
11 y,-x+y,-z
12 x-y,x,-z
13 1/3-x,2/3-y,2/3-z
14 1/3+y,2/3-x+y,2/3-z
15 1/3+x-y,2/3+x,2/3-z
16 2/3-x,1/3-y,1/3-z
17 2/3+y,1/3-x+y,1/3-z
18 2/3+x-y,1/3+x,1/3-z
_cell_length_a                   27.226(6)
_cell_length_b                   27.226(6)
_cell_length_c                   8.981(6)
_cell_angle_alpha                90
_cell_angle_beta                 90
_cell_angle_gamma                120
_cell_volume                     5765.31
loop_
_atom_site_label
_atom_site_type_symbol
_atom_site_fract_x
_atom_site_fract_y
_atom_site_fract_z
Cu1 Cu -0.3333 -0.1666 -0.1666
N1 N -0.18638(15) 0.23338(14) -0.6866(5)
N2 N -0.2256(2) 0.28123(19) -0.4809(7)
N3 N -0.19198(12) 0.13289(12) -0.6384(4)
N4 N -0.20028(12) 0.08171(12) -0.5892(4)
N5 N -0.23502(13) 0.11802(13) -0.4174(4)
N6 N -0.29109(14) -0.08314(12) -0.2388(4)
C1 C -0.1837(2) 0.2828(2) -0.7097(7)
H1 H -0.1680 0.3022 -0.7981
C2 C -0.2032(3) 0.3059(2) -0.6080(8)
H2 H -0.2006 0.3406 -0.6295
C3 C -0.22810(19) 0.23141(19) -0.4568(6)
H3 H -0.2433 0.2125 -0.3675
C4 C -0.20934(16) 0.20764(16) -0.5573(5)
C5 C -0.21253(15) 0.15269(15) -0.5351(4)
C6 C -0.22584(15) 0.07550(15) -0.4579(4)
C7 C -0.24566(16) 0.02227(15) -0.3733(4)
C8 C -0.28613(18) 0.00658(16) -0.2639(5)
H4 H -0.2983 0.0313 -0.2326
C9 C -0.30819(19) -0.04671(17) -0.2017(5)
H5 H -0.3365 -0.0577 -0.1302
C10 C -0.24954(18) -0.06611(16) -0.3388(5)
H6 H -0.2359 -0.0904 -0.3624
C11 C -0.22604(17) -0.01440(16) -0.4087(5)
H7 H -0.1974 -0.0042 -0.4787
Cu1D Cu -0.1667 0.1666 -0.8333
Cu1H Cu -0.5000 -0.0000 0.5001
N1H N -0.24691(21) -0.14695(15) -0.0199(5)
N1K N -0.41976(21) -0.18638(15) -0.3134(5)
N2H N -0.15984(28) -0.1077(2) 0.1858(7)
N3H N -0.34180(17) -0.14135(12) 0.0283(4)
N3K N -0.32487(17) -0.19198(12) -0.3616(4)
N4H N -0.38468(17) -0.13305(12) 0.0775(4)
N5H N -0.31363(18) -0.09831(13) 0.2493(4)
N6L N -0.37558(14) -0.25019(12) -0.0945(4)
N6H N -0.45872(18) -0.04224(14) 0.4279(4)
C1H C -0.2002(3) -0.1496(2) -0.0430(7)
H1H H -0.1965 -0.1653 -0.1314
C2H C -0.1576(4) -0.1301(3) 0.0587(8)
H2H H -0.1255 -0.1327 0.0372
C3H C -0.20716(27) -0.10523(19) 0.2099(6)
H3H H -0.2109 -0.0900 0.2992
C4H C -0.24969(23) -0.12399(16) 0.1094(5)
C5H C -0.30145(21) -0.12080(15) 0.1316(4)
C6H C -0.36533(21) -0.10749(15) 0.2088(4)
C7H C -0.39874(22) -0.08767(16) 0.2934(4)
C8H C -0.37396(24) -0.04720(18) 0.4028(5)
H4H H -0.3371 -0.0350 0.4341
C9H C -0.40519(25) -0.02514(19) 0.4650(5)
H5H H -0.3879 0.0032 0.5365
C10H C -0.48324(24) -0.08379(18) 0.3279(5)
H6H H -0.5212 -0.0974 0.3043
C11H C -0.45503(23) -0.10729(17) 0.2580(5)
H7H H -0.4735 -0.1359 0.1880
loop_
_geom_bond_atom_site_label_1
_geom_bond_atom_site_label_2
_geom_bond_site_symmetry_1
_geom_bond_site_symmetry_2
Cu1 N6 1_555 1_555
N1 C1 1_555 1_555
N2 C2 1_555 1_555
N3 N4 1_555 1_555
N4 C6 1_555 1_555
N5 C5 1_555 1_555
N6 C9 1_555 1_555
C1 H1 1_555 1_555
C2 C1 1_555 1_555
H2 C2 1_555 1_555
C3 N2 1_555 1_555
H3 C3 1_555 1_555
C4 N1 1_555 1_555
C5 N3 1_555 1_555
C6 N5 1_555 1_555
C7 C6 1_555 1_555
C8 C7 1_555 1_555
H4 C8 1_555 1_555
C9 C8 1_555 1_555
H5 C9 1_555 1_555
C10 N6 1_555 1_555
H6 C10 1_555 1_555
C11 C7 1_555 1_555
H7 C11 1_555 1_555
Cu1D N1 1_555 1_555
Cu1H N6H 1_555 1_555
N1H Cu1 1_555 1_555
N1K Cu1 1_555 1_555
N2H C2H 1_555 1_555
N3H Cu1 1_555 1_555
N3K Cu1 1_555 1_555
N4H N3H 1_555 1_555
N5H C5H 1_555 1_555
N6L Cu1 1_555 1_555
N6H C9H 1_555 1_555
C1H N1H 1_555 1_555
H1H C1H 1_555 1_555
C2H C1H 1_555 1_555
H2H C2H 1_555 1_555
C3H N2H 1_555 1_555
H3H C3H 1_555 1_555
C4H N1H 1_555 1_555
C5H N3H 1_555 1_555
C6H N4H 1_555 1_555
C7H C6H 1_555 1_555
C8H C7H 1_555 1_555
H4H C8H 1_555 1_555
C9H C8H 1_555 1_555
H5H C9H 1_555 1_555
C10H N6H 1_555 1_555
H6H C10H 1_555 1_555
C11H C7H 1_555 1_555
H7H C11H 1_555 1_555
N3 Cu1D 1_555 1_555
C3 C4 1_555 1_555
C4 C5 1_555 1_555
C10 C11 1_555 1_555
N5H C6H 1_555 1_555
C3H C4H 1_555 1_555
C4H C5H 1_555 1_555
C10H C11H 1_555 1_555

#END
