
#######################################################################
#
#                 Cambridge Crystallographic Data Centre
#                                CCDC 
#
#######################################################################
#
# If this CIF has been generated from an entry in the Cambridge 
# Structural Database, then it will include bibliographic, chemical, 
# crystal, experimental, refinement or atomic coordinate data resulting 
# from the CCDC's data processing and validation procedures.
#
#######################################################################

data_PEJFOA
_chemical_formula_moiety         '(C2 H6 Ga5 O27 P5 2-)n'
_symmetry_cell_setting           orthorhombic
_symmetry_space_group_name_H-M   'P n m a'
_symmetry_Int_Tables_number      62
_space_group_name_Hall           '-P 2ac 2n'
loop_
_symmetry_equiv_pos_site_id
_symmetry_equiv_pos_as_xyz
1 x,y,z
2 1/2-x,-y,1/2+z
3 1/2+x,1/2-y,1/2-z
4 -x,1/2+y,-z
5 -x,-y,-z
6 1/2+x,y,1/2-z
7 1/2-x,1/2+y,1/2+z
8 x,1/2-y,z
_cell_length_a                   9.039(4)
_cell_length_b                   19.370(8)
_cell_length_c                   15.641(7)
_cell_angle_alpha                90
_cell_angle_beta                 90
_cell_angle_gamma                90
_cell_volume                     2738.51
loop_
_atom_site_label
_atom_site_type_symbol
_atom_site_fract_x
_atom_site_fract_y
_atom_site_fract_z
Ga1 Ga 0.6125(2) 0.41129(9) 0.11285(11)
Ga2 Ga 1.0658(2) 0.49747(11) 0.13297(12)
Ga3 Ga 0.8524(4) 0.2500 -0.0711(2)
P1 P 0.8411(4) 0.4586(2) 0.2708(3)
P2 P 0.9269(5) 0.3952(2) 0.0146(3)
P3 P 0.5887(7) 0.2500 0.0584(4)
C1 C 0.5332(19) 0.5307(10) 0.0269(11)
O1 O 0.5901(15) 0.5157(7) 0.0958(8)
O2 O 0.5131(15) 0.5899(6) -0.0052(8)
O3 O 0.6248(17) 0.3130(6) 0.1118(8)
O4 O 0.7778(15) 0.4236(7) 0.0342(9)
O5 O 0.7350(13) 0.4185(7) 0.2132(8)
O6 O 0.7575(14) 0.5053(7) 0.3344(9)
O7 O 0.9389(15) 0.4069(7) 0.3177(9)
O8 O 0.9371(14) 0.5105(6) 0.2207(8)
O9 O 1.0360(17) 0.4123(7) 0.0894(9)
O10 O 0.9872(15) 0.4310(7) -0.0678(8)
O11 O 0.9323(16) 0.3177(7) 0.0044(9)
O12 O 1.042(3) 0.2500 -0.1402(17)
O13 O 0.791(2) 0.3202(11) -0.1563(11)
O14 O 0.663(2) 0.2500 -0.0262(13)
O15 O 0.417(2) 0.2500 0.0393(19)
Ga1G Ga 0.6125(2) 0.08871(9) 0.11285(11)
Ga1D Ga 0.3875(2) 0.58871(9) -0.11285(11)
Ga1E Ga 1.1125(2) 0.41129(9) 0.38715(11)
Ga1E_2 Ga 0.1125(2) 0.41129(9) 0.38715(11)
Ga2G Ga 1.0658(2) 0.00253(11) 0.13297(12)
Ga2E Ga 0.5658(2) 0.49747(11) 0.36703(12)
Ga2D Ga 0.9342(2) 0.50253(11) -0.13297(12)
Ga2C Ga 0.9342(2) -0.00253(11) -0.13297(12)
Ga2_2 Ga 0.0658(2) 0.49747(11) 0.13297(12)
P1E P 0.3411(4) 0.4586(2) 0.2292(3)
P2G P 0.9269(5) 0.1048(2) 0.0146(3)
C1D C 0.4668(19) 0.4693(10) -0.0269(11)
O1D O 0.4099(15) 0.4843(7) -0.0958(8)
O1G O 0.5901(15) -0.0157(7) 0.0958(8)
O2D O 0.4869(15) 0.4101(6) 0.0052(8)
O2C O 0.4869(15) 0.0899(6) 0.0052(8)
O3G O 0.6248(17) 0.1870(6) 0.1118(8)
O4G O 0.7778(15) 0.0764(7) 0.0342(9)
O5E O 0.2350(13) 0.4185(7) 0.2868(8)
O5G O 0.7350(13) 0.0815(7) 0.2132(8)
O6E O 0.2575(14) 0.5053(7) 0.1656(9)
O6E_2 O 1.2575(14) 0.5053(7) 0.1656(9)
O6B O 1.2575(14) -0.0053(7) 0.1656(9)
O7E O 0.4389(15) 0.4069(7) 0.1823(9)
O7B O 0.4389(15) 0.0931(7) 0.1823(9)
O8E O 0.4371(14) 0.5105(6) 0.2793(8)
O8G O 0.9371(14) -0.0105(6) 0.2207(8)
O9G O 1.0360(17) 0.0877(7) 0.0894(9)
O10G O 0.9872(15) 0.0690(7) -0.0678(8)
O10D O 1.0128(15) 0.5690(7) 0.0678(8)
O10C O 1.0128(15) -0.0690(7) 0.0678(8)
O11G O 0.9323(16) 0.1823(7) 0.0044(9)
O13G O 0.791(2) 0.1798(11) -0.1563(11)
loop_
_geom_bond_atom_site_label_1
_geom_bond_atom_site_label_2
_geom_bond_site_symmetry_1
_geom_bond_site_symmetry_2
Ga1 O1 1_555 1_555
Ga2 O8 1_555 1_555
Ga3 O11 1_555 1_555
P1 O5 1_555 1_555
P2 O4 1_555 1_555
P3 O3 1_555 1_555
C1 O1 1_555 1_555
O2 C1 1_555 1_555
O3 Ga1 1_555 1_555
O4 Ga1 1_555 1_555
O5 Ga1 1_555 1_555
O6 P1 1_555 1_555
O7 P1 1_555 1_555
O8 P1 1_555 1_555
O9 Ga2 1_555 1_555
O10 P2 1_555 1_555
O11 P2 1_555 1_555
O12 Ga3 1_555 1_555
O13 Ga3 1_555 1_555
O14 Ga3 1_555 1_555
O15 P3 1_555 1_555
Ga1G O1G 1_555 1_555
Ga1D O2 1_555 1_555
Ga1E O7 1_555 1_555
Ga1E_2 O5E 1_555 1_555
Ga2G O6B 1_555 1_555
Ga2E O6 1_555 1_555
Ga2D O10 1_555 1_555
Ga2C O10G 1_555 1_555
Ga2_2 O6E 1_555 1_555
P1E O5E 1_555 1_555
P2G O4G 1_555 1_555
C1D C1 1_555 1_555
O1D Ga1D 1_555 1_555
O2D Ga1 1_555 1_555
O2C Ga1G 1_555 1_555
O3G P3 1_555 1_555
O4G Ga1G 1_555 1_555
O5G Ga1G 1_555 1_555
O6E P1E 1_555 1_555
O6E_2 Ga2 1_555 1_555
O7E Ga1 1_555 1_555
O7B Ga1G 1_555 1_555
O8E Ga2E 1_555 1_555
O8G Ga2G 1_555 1_555
O9G Ga2G 1_555 1_555
O10G P2G 1_555 1_555
O10D Ga2 1_555 1_555
O10C Ga2G 1_555 1_555
O11G Ga3 1_555 1_555
O13G Ga3 1_555 1_555
P2 O9 1_555 1_555
P3 O14 1_555 1_555
Ga1G O3G 1_555 1_555
P1E O7E 1_555 1_555
P1E O8E 1_555 1_555
P2G O9G 1_555 1_555
P2G O11G 1_555 1_555
C1D O1D 1_555 1_555
C1D O2D 1_555 1_555

#END
