
#######################################################################
#
#                 Cambridge Crystallographic Data Centre
#                                CCDC 
#
#######################################################################
#
# If this CIF has been generated from an entry in the Cambridge 
# Structural Database, then it will include bibliographic, chemical, 
# crystal, experimental, refinement or atomic coordinate data resulting 
# from the CCDC's data processing and validation procedures.
#
#######################################################################

data_OSOTIB
_chemical_formula_moiety         'C22 H18 Cu8 N4 O16'
_symmetry_cell_setting           rhombohedral
_symmetry_space_group_name_H-M   'R -3 m'
_symmetry_Int_Tables_number      166
_space_group_name_Hall           '-R 3 2"'
loop_
_symmetry_equiv_pos_site_id
_symmetry_equiv_pos_as_xyz
1 x,y,z
2 -y,x-y,z
3 -x+y,-x,z
4 x-y,-y,-z
5 -x,-x+y,-z
6 y,x,-z
7 2/3+x,1/3+y,1/3+z
8 2/3-y,1/3+x-y,1/3+z
9 2/3-x+y,1/3-x,1/3+z
10 2/3+x-y,1/3-y,1/3-z
11 2/3-x,1/3-x+y,1/3-z
12 2/3+y,1/3+x,1/3-z
13 1/3+x,2/3+y,2/3+z
14 1/3-y,2/3+x-y,2/3+z
15 1/3-x+y,2/3-x,2/3+z
16 1/3+x-y,2/3-y,2/3-z
17 1/3-x,2/3-x+y,2/3-z
18 1/3+y,2/3+x,2/3-z
19 -x,-y,-z
20 y,-x+y,-z
21 x-y,x,-z
22 -x+y,y,z
23 x,x-y,z
24 -y,-x,z
25 1/3-x,2/3-y,2/3-z
26 1/3+y,2/3-x+y,2/3-z
27 1/3+x-y,2/3+x,2/3-z
28 1/3-x+y,2/3+y,2/3+z
29 1/3+x,2/3+x-y,2/3+z
30 1/3-y,2/3-x,2/3+z
31 2/3-x,1/3-y,1/3-z
32 2/3+y,1/3-x+y,1/3-z
33 2/3+x-y,1/3+x,1/3-z
34 2/3-x+y,1/3+y,1/3+z
35 2/3+x,1/3+x-y,1/3+z
36 2/3-y,1/3-x,1/3+z
_cell_length_a                   18.5944(6)
_cell_length_b                   18.5944(6)
_cell_length_c                   38.0120(14)
_cell_angle_alpha                90
_cell_angle_beta                 90
_cell_angle_gamma                120
_cell_volume                     11381.9
loop_
_atom_site_label
_atom_site_type_symbol
_atom_site_fract_x
_atom_site_fract_y
_atom_site_fract_z
_atom_site_U_iso_or_equiv
_atom_site_thermal_displace_type
C1 C 0.5129(3) 0.4871(3) 0.53412(17) 0.0719 Uani
C2 C 0.5264(3) 0.4736(3) 0.57055(18) 0.0643 Uani
C3 C 0.4698(3) 0.4014(3) 0.58794(12) 0.0602 Uani
H1 H 0.4216 0.3628 0.5765 0.0720 Uiso
C4 C 0.4845(3) 0.3863(3) 0.62218(11) 0.0524 Uani
C5 C 0.5562(2) 0.4438(2) 0.63927(15) 0.0504 Uani
H2 H 0.5657 0.4343 0.6624 0.0610 Uiso
C6 C 0.4256(2) 0.3056(3) 0.63963(10) 0.0473 Uani
C7 C 0.5489(8) 0.5672(4) 0.5220(2) 0.0661 Uani
H3 H 0.5790 0.6122 0.5369 0.0800 Uiso
Cu1 Cu 0.38082(4) 0.19041(2) 0.695394(18) 0.0373 Uani
N1 N 0.5785(5) 0.5387(7) 0.5130(2) 0.0766 Uani
O1 O 0.44424(18) 0.29552(19) 0.67035(7) 0.0525 Uani
O2 O 0.36460(18) 0.2557(2) 0.62219(8) 0.0575 Uani
O3 O 0.4473(4) 0.2237(2) 0.74409(15) 0.0978 Uani
H4 H 0.4629 0.2220 0.7649 0.1470 Uiso
H5 H 0.4785 0.2722 0.7361 0.1470 Uiso
C1E C 0.4871(3) 0.5129(3) 0.46588(17) 0.0719 Uani
C2E C 0.4736(3) 0.5264(3) 0.42945(18) 0.0643 Uani
C3E C 0.4014(3) 0.4698(3) 0.41206(12) 0.0602 Uani
H1E H 0.3628 0.4216 0.4235 0.0720 Uiso
C4E C 0.3863(3) 0.4845(3) 0.37782(11) 0.0524 Uani
C5E C 0.4438(2) 0.5562(2) 0.36073(15) 0.0504 Uani
H2E H 0.4343 0.5657 0.3376 0.0610 Uiso
C6E C 0.3056(3) 0.4256(2) 0.36037(10) 0.0473 Uani
C7E C 0.5672(4) 0.5489(8) 0.4780(2) 0.0661 Uani
H3E H 0.6122 0.5790 0.4631 0.0800 Uiso
N1E N 0.5387(7) 0.5785(5) 0.4870(2) 0.0766 Uani
O1E O 0.29552(19) 0.44424(18) 0.32965(7) 0.0525 Uani
O2E O 0.2557(2) 0.36460(18) 0.37781(8) 0.0575 Uani
C3R C 0.5302(3) 0.5986(3) 0.41206(12) 0.0602 Uani
H1R H 0.5784 0.6372 0.4235 0.0720 Uiso
C4R C 0.5155(3) 0.6137(3) 0.37782(11) 0.0524 Uani
C6R C 0.5744(2) 0.6944(3) 0.36037(10) 0.0473 Uani
C7R C 0.4511(8) 0.4328(4) 0.4780(2) 0.0661 Uani
H3R H 0.4210 0.3878 0.4631 0.0800 Uiso
N1R N 0.4215(5) 0.4613(7) 0.4870(2) 0.0766 Uani
O1R O 0.55576(18) 0.70448(19) 0.32965(7) 0.0525 Uani
O2R O 0.63540(18) 0.7443(2) 0.37781(8) 0.0575 Uani
C3W C 0.5986(3) 0.5302(3) 0.58794(12) 0.0602 Uani
H1W H 0.6372 0.5784 0.5765 0.0720 Uiso
C4W C 0.6137(3) 0.5155(3) 0.62218(11) 0.0524 Uani
C6W C 0.6944(3) 0.5744(2) 0.63963(10) 0.0473 Uani
C7W C 0.4328(4) 0.4511(8) 0.5220(2) 0.0661 Uani
H3W H 0.3878 0.4210 0.5369 0.0800 Uiso
N1W N 0.4613(7) 0.4215(5) 0.5130(2) 0.0766 Uani
O1W O 0.70448(19) 0.55576(18) 0.67035(7) 0.0525 Uani
O2W O 0.7443(2) 0.63540(18) 0.62219(8) 0.0575 Uani
H4V H 0.4629 0.2409 0.7649 0.1470 Uiso
H5V H 0.4785 0.2063 0.7361 0.1470 Uiso
Cu1J Cu 0.28585(4) 0.14292(4) 0.637939(18) 0.0373 Uani
O3J O 0.2194(4) 0.1097(4) 0.58924(15) 0.0978 Uani
H4J H 0.2038 0.0924 0.5684 0.1470 Uiso
H5J H 0.1882 0.1270 0.5972 0.1470 Uiso
H4DA H 0.2038 0.1113 0.5684 0.1470 Uiso
H5DA H 0.1882 0.0611 0.5972 0.1470 Uiso
Cu1B Cu 0.80959(4) 0.61918(4) 0.695394(18) 0.0373 Uani
Cu1D Cu 0.61918(4) 0.80959(4) 0.304606(18) 0.0373 Uani
Cu1E Cu 0.19041(2) 0.38082(4) 0.304606(18) 0.0373 Uani
Cu1K Cu 0.85708(2) 0.71415(4) 0.637939(18) 0.0373 Uani
Cu1L Cu 0.71415(4) 0.85708(2) 0.362061(18) 0.0373 Uani
Cu1N Cu 0.14292(4) 0.28585(4) 0.362061(18) 0.0373 Uani
O1J O 0.22243(18) 0.18461(26) 0.66298(7) 0.0525 Uani
O1V O 0.44424(18) 0.14872(26) 0.67035(7) 0.0525 Uani
O1DA O 0.22243(18) 0.03781(19) 0.66298(7) 0.0525 Uani
O2J O 0.30207(18) 0.22443(27) 0.71114(8) 0.0575 Uani
O2V O 0.36460(18) 0.10890(27) 0.62219(8) 0.0575 Uani
O2DA O 0.30207(18) 0.0776(2) 0.71114(8) 0.0575 Uani
loop_
_atom_site_aniso_label
_atom_site_aniso_U_11
_atom_site_aniso_U_22
_atom_site_aniso_U_33
_atom_site_aniso_U_23
_atom_site_aniso_U_13
_atom_site_aniso_U_12
C1 0.058(3) 0.058(3) 0.061(4) 0.015(2) -0.015(2) 0.000(4)
C2 0.056(3) 0.056(3) 0.057(4) 0.0080(18) -0.0080(18) 0.010(3)
C3 0.043(2) 0.051(3) 0.058(2) 0.006(2) -0.009(2) 0.002(2)
C4 0.039(2) 0.049(2) 0.054(2) 0.0079(19) -0.0008(18) 0.0106(19)
C5 0.050(2) 0.050(2) 0.046(3) 0.0001(14) -0.0001(14) 0.021(3)
C6 0.0328(19) 0.051(2) 0.048(2) 0.0029(18) 0.0036(16) 0.0134(18)
C7 0.068(6) 0.049(5) 0.057(5) 0.000(4) -0.011(5) 0.011(4)
Cu1 0.0243(4) 0.0470(4) 0.0330(4) -0.00070(14) -0.0014(3) 0.0122(2)
N1 0.053(5) 0.074(6) 0.063(5) 0.014(4) -0.009(4) 0.002(4)
O1 0.0427(16) 0.0465(16) 0.0501(15) 0.0058(13) -0.0024(12) 0.0086(13)
O2 0.0397(16) 0.0546(18) 0.0513(15) 0.0087(14) -0.0055(13) 0.0035(14)
O3 0.108(5) 0.103(3) 0.084(4) -0.0315(18) -0.063(4) 0.054(2)
C1E 0.058 0.058 0.061 0.015 -0.015 0
C2E 0.056 0.056 0.057 0.008 -0.008 0.01
C3E 0.051 0.043 0.058 0.009 -0.006 0.002
C4E 0.049 0.039 0.054 0.0008 -0.0079 0.0106
C5E 0.05 0.05 0.046 0.0001 -0.0001 0.021
C6E 0.051 0.0328 0.048 -0.0036 -0.0029 0.0134
C7E 0.049 0.068 0.057 0.011 0 0.011
N1E 0.074 0.053 0.063 0.009 -0.014 0.002
O1E 0.0465 0.0427 0.0501 0.0024 -0.0058 0.0086
O2E 0.0546 0.0397 0.0513 0.0055 -0.0087 0.0035
C3R 0.043 0.051 0.058 0.006 -0.009 0.002
C4R 0.039 0.049 0.054 0.0079 -0.0008 0.0106
C6R 0.0328 0.051 0.048 0.0029 0.0036 0.0134
C7R 0.068 0.049 0.057 0 -0.011 0.011
N1R 0.053 0.074 0.063 0.014 -0.009 0.002
O1R 0.0427 0.0465 0.0501 0.0058 -0.0024 0.0086
O2R 0.0397 0.0546 0.0513 0.0087 -0.0055 0.0035
C3W 0.051 0.043 0.058 0.009 -0.006 0.002
C4W 0.049 0.039 0.054 0.0008 -0.0079 0.0106
C6W 0.051 0.0328 0.048 -0.0036 -0.0029 0.0134
C7W 0.049 0.068 0.057 0.011 0 0.011
N1W 0.074 0.053 0.063 0.009 -0.014 0.002
O1W 0.0465 0.0427 0.0501 0.0024 -0.0058 0.0086
O2W 0.0546 0.0397 0.0513 0.0055 -0.0087 0.0035
Cu1J 0.0243 0.0469 0.033 -0.0007 -0.0014 0.0121
O3J 0.108 0.103 0.084 -0.0315 -0.063 0.054
Cu1B 0.0469 0.0243 0.033 0.0014 0.0007 0.0121
Cu1D 0.0243 0.0469 0.033 -0.0007 -0.0014 0.0121
Cu1E 0.047 0.0243 0.033 0.0014 0.0007 0.0122
Cu1K 0.047 0.0243 0.033 0.0014 0.0007 0.0122
Cu1L 0.0243 0.047 0.033 -0.0007 -0.0014 0.0122
Cu1N 0.0469 0.0243 0.033 0.0014 0.0007 0.0121
O1J 0.0427 0.072 0.0501 -0.0082 -0.0024 0.0341
O1V 0.0427 0.072 0.0501 -0.0082 -0.0024 0.0341
O1DA 0.0427 0.0465 0.0501 0.0058 -0.0024 0.0086
O2J 0.0397 0.0873 0.0513 -0.0142 -0.0055 0.0362
O2V 0.0397 0.0873 0.0513 -0.0142 -0.0055 0.0362
O2DA 0.0397 0.0546 0.0513 0.0087 -0.0055 0.0035
loop_
_geom_bond_atom_site_label_1
_geom_bond_atom_site_label_2
_geom_bond_site_symmetry_1
_geom_bond_site_symmetry_2
C1 C2 1_555 1_555
C2 C3 1_555 1_555
C3 H1 1_555 1_555
C4 C3 1_555 1_555
C5 C4 1_555 1_555
H2 C5 1_555 1_555
C6 C4 1_555 1_555
C7 C1 1_555 1_555
H3 C7 1_555 1_555
Cu1 O1 1_555 1_555
N1 C1 1_555 1_555
O1 C6 1_555 1_555
O2 C6 1_555 1_555
O3 Cu1 1_555 1_555
H4 O3 1_555 1_555
H5 O3 1_555 1_555
C1E C2E 1_555 1_555
C2E C3E 1_555 1_555
C3E H1E 1_555 1_555
C4E C3E 1_555 1_555
C5E C4E 1_555 1_555
H2E C5E 1_555 1_555
C6E C4E 1_555 1_555
C7E N1 1_555 1_555
H3E C7E 1_555 1_555
N1E C7 1_555 1_555
O1E C6E 1_555 1_555
O2E C6E 1_555 1_555
C3R C2E 1_555 1_555
H1R C3R 1_555 1_555
C4R C5E 1_555 1_555
C6R C4R 1_555 1_555
C7R C1E 1_555 1_555
H3R C7R 1_555 1_555
N1R C1E 1_555 1_555
O1R C6R 1_555 1_555
O2R C6R 1_555 1_555
C3W C2 1_555 1_555
H1W C3W 1_555 1_555
C4W C5 1_555 1_555
C6W C4W 1_555 1_555
C7W C1 1_555 1_555
H3W C7W 1_555 1_555
N1W C1 1_555 1_555
O1W C6W 1_555 1_555
O2W C6W 1_555 1_555
H4V O3 1_555 1_555
H5V O3 1_555 1_555
Cu1J Cu1 1_555 1_555
O3J Cu1J 1_555 1_555
H4J O3J 1_555 1_555
H5J O3J 1_555 1_555
H4DA O3J 1_555 1_555
H5DA O3J 1_555 1_555
Cu1B O1W 1_555 1_555
Cu1D O1R 1_555 1_555
Cu1E O1E 1_555 1_555
Cu1K O2W 1_555 1_555
Cu1L O2R 1_555 1_555
Cu1N O2E 1_555 1_555
O1J Cu1J 1_555 1_555
O1V Cu1 1_555 1_555
O1DA Cu1J 1_555 1_555
O2J Cu1 1_555 1_555
O2V Cu1J 1_555 1_555
O2DA Cu1 1_555 1_555
C7 N1 1_555 1_555
O2 Cu1J 1_555 1_555
C1E C7E 1_555 1_555
C1E N1E 1_555 1_555
C7E N1E 1_555 1_555
C3R C4R 1_555 1_555
C7R N1R 1_555 1_555
C7R N1W 1_555 1_555
N1R C7W 1_555 1_555
C3W C4W 1_555 1_555
C7W N1W 1_555 1_555
Cu1B Cu1K 1_555 1_555
Cu1D Cu1L 1_555 1_555
Cu1E Cu1N 1_555 1_555

#END
