
#######################################################################
#
#                 Cambridge Crystallographic Data Centre
#                                CCDC 
#
#######################################################################
#
# If this CIF has been generated from an entry in the Cambridge 
# Structural Database, then it will include bibliographic, chemical, 
# crystal, experimental, refinement or atomic coordinate data resulting 
# from the CCDC's data processing and validation procedures.
#
#######################################################################

data_RUBGUS
_chemical_formula_moiety         '(C25 H22 Mn2 N4 O12 S4)n'
_symmetry_cell_setting           monoclinic
_symmetry_space_group_name_H-M   'C 2/c'
_symmetry_Int_Tables_number      15
_space_group_name_Hall           '-C 2yc'
loop_
_symmetry_equiv_pos_site_id
_symmetry_equiv_pos_as_xyz
1 x,y,z
2 -x,y,1/2-z
3 1/2+x,1/2+y,z
4 1/2-x,1/2+y,1/2-z
5 -x,-y,-z
6 x,-y,1/2+z
7 1/2-x,1/2-y,-z
8 1/2+x,1/2-y,1/2+z
_cell_length_a                   22.739(5)
_cell_length_b                   16.038(3)
_cell_length_c                   9.7046(19)
_cell_angle_alpha                90
_cell_angle_beta                 94.00(3)
_cell_angle_gamma                90
_cell_volume                     3530.53
loop_
_atom_site_label
_atom_site_type_symbol
_atom_site_fract_x
_atom_site_fract_y
_atom_site_fract_z
Mn1 Mn 1.0000 -0.0000 1.0000
Mn2 Mn 1.0000 0.16922(3) 1.2500
S1 S 0.85887(3) 0.41436(5) 0.51029(7)
S2 S 0.83504(3) 0.52186(5) 0.60011(8)
C1 C 0.94271(12) 0.17428(17) 0.9532(3)
C2 C 0.91742(12) 0.23548(17) 0.8482(3)
C3 C 0.92404(12) 0.22312(17) 0.7084(3)
H1 H 0.9423 0.1731 0.6806
C4 C 0.87936(13) 0.34745(18) 0.6519(3)
C5 C 0.86874(16) 0.3639(2) 0.7882(3)
H2 H 0.8483 0.4128 0.8126
C6 C 0.88878(16) 0.3070(2) 0.8872(3)
H3 H 0.8829 0.3168 0.9818
C7 C 0.75979(12) 0.50632(17) 0.6366(3)
C8 C 0.67161(12) 0.43460(19) 0.6207(3)
H4 H 0.6479 0.3902 0.5835
C9 C 0.64728(11) 0.49124(17) 0.7078(3)
C10 C 0.68170(12) 0.55748(18) 0.7559(3)
H5 H 0.6659 0.5973 0.8156
C11 C 0.73833(12) 0.56642(17) 0.7185(3)
H6 H 0.7618 0.6129 0.7485
C12 C 0.58634(11) 0.47708(16) 0.7534(2)
N1 N 0.90603(10) 0.27815(15) 0.6114(2)
N2 N 0.72850(11) 0.44048(17) 0.5865(3)
O1 O 0.96720(8) 0.11114(11) 0.90780(18)
O2 O 0.93914(11) 0.19244(14) 1.0780(2)
O3 O 0.55214(8) 0.43310(11) 0.67117(17)
O4 O 0.57422(8) 0.50641(11) 0.86684(18)
O5 O 1.06019(14) 0.25826(16) 1.1596(2)
H7 H 1.063(2) 0.264(3) 1.077(2)
H8 H 1.0924(14) 0.271(3) 1.198(4)
S1A S 1.14113(3) 0.41436(5) 1.98971(7)
S2A S 1.16496(3) 0.52186(5) 1.89989(8)
C1A C 1.05729(12) 0.17428(17) 1.5468(3)
C2A C 1.08258(12) 0.23548(17) 1.6518(3)
C3A C 1.07596(12) 0.22312(17) 1.7916(3)
H1A H 1.0577 0.1731 1.8194
C4A C 1.12064(13) 0.34745(18) 1.8481(3)
C5A C 1.13126(16) 0.3639(2) 1.7118(3)
H2A H 1.1517 0.4128 1.6874
C6A C 1.11122(16) 0.3070(2) 1.6128(3)
H3A H 1.1171 0.3168 1.5182
C7A C 1.24021(12) 0.50632(17) 1.8634(3)
C8A C 1.32839(12) 0.43460(19) 1.8793(3)
H4A H 1.3521 0.3902 1.9165
C9A C 1.35272(11) 0.49124(17) 1.7922(3)
C10A C 1.31830(12) 0.55748(18) 1.7441(3)
H5A H 1.3341 0.5973 1.6844
C11A C 1.26167(12) 0.56642(17) 1.7815(3)
H6A H 1.2382 0.6129 1.7515
C12A C 1.41366(11) 0.47708(16) 1.7466(2)
N1A N 1.09397(10) 0.27815(15) 1.8886(2)
N2A N 1.27150(11) 0.44048(17) 1.9135(3)
O1A O 1.03280(8) 0.11114(11) 1.59220(18)
O2A O 1.06086(11) 0.19244(14) 1.4220(2)
O3A O 1.44786(8) 0.43310(11) 1.82883(17)
O4A O 1.42578(8) 0.50641(11) 1.63316(18)
O5A O 0.93981(14) 0.25826(16) 1.3404(2)
H7A H 0.937(2) 0.264(3) 1.423(2)
H8A H 0.9076(14) 0.271(3) 1.302(4)
Mn1A Mn 1.0000 0.0000 1.5000
Mn1B Mn 0.5000 0.5000 1.0000
Mn1B_2 Mn 1.5000 0.5000 2.0000
Mn1C Mn 0.5000 0.5000 0.5000
Mn1C_2 Mn 1.5000 0.5000 1.5000
Mn2F Mn 0.5000 0.33078(3) 0.7500
Mn2F_2 Mn 1.5000 0.33078(3) 1.7500
O1D O 1.03280(8) -0.11114(11) 1.09220(18)
O3C O 0.94786(8) -0.06690(11) 0.82883(17)
O3F O 0.94786(8) 0.06690(11) 1.32883(17)
O3G O 1.05214(8) 0.06690(11) 1.17117(17)
O4B O 1.07422(8) 0.00641(11) 0.86684(18)
O4F O 0.92578(8) -0.00641(11) 1.13316(18)
O6 O 1.1833(2) 0.2640(3) 1.2352(5)
C13 C 1.2103(3) 0.2222(5) 1.3466(7)
H9 H 1.2272 0.2627 1.4139
H10 H 1.2417 0.1866 1.3151
H11 H 1.1812 0.1877 1.3900
O7 O 1.2590(3) 0.2756(4) 1.0259(9)
loop_
_geom_bond_atom_site_label_1
_geom_bond_atom_site_label_2
_geom_bond_site_symmetry_1
_geom_bond_site_symmetry_2
Mn1 O1 1_555 1_555
Mn2 O2 1_555 1_555
S1 S2 1_555 1_555
S2 C7 1_555 1_555
C1 C2 1_555 1_555
C2 C3 1_555 1_555
C3 H1 1_555 1_555
C4 S1 1_555 1_555
C5 C4 1_555 1_555
H2 C5 1_555 1_555
C6 C2 1_555 1_555
H3 C6 1_555 1_555
C7 C11 1_555 1_555
C8 H4 1_555 1_555
C9 C8 1_555 1_555
C10 C9 1_555 1_555
H5 C10 1_555 1_555
C11 C10 1_555 1_555
H6 C11 1_555 1_555
C12 C9 1_555 1_555
N1 C3 1_555 1_555
N2 C7 1_555 1_555
O1 C1 1_555 1_555
O2 C1 1_555 1_555
O3 C12 1_555 1_555
O4 C12 1_555 1_555
O5 Mn2 1_555 1_555
H7 O5 1_555 1_555
H8 O5 1_555 1_555
O6 C13 1_555 1_555
C13 H9 1_555 1_555
H10 C13 1_555 1_555
H11 C13 1_555 1_555
S1A S2A 1_555 1_555
S2A C7A 1_555 1_555
C1A C2A 1_555 1_555
C2A C3A 1_555 1_555
C3A H1A 1_555 1_555
C4A S1A 1_555 1_555
C5A C4A 1_555 1_555
H2A C5A 1_555 1_555
C6A C2A 1_555 1_555
H3A C6A 1_555 1_555
C7A C11A 1_555 1_555
C8A H4A 1_555 1_555
C9A C8A 1_555 1_555
C10A C9A 1_555 1_555
H5A C10A 1_555 1_555
C11A C10A 1_555 1_555
H6A C11A 1_555 1_555
C12A C9A 1_555 1_555
N1A C3A 1_555 1_555
N2A C7A 1_555 1_555
O1A C1A 1_555 1_555
O2A Mn2 1_555 1_555
O3A C12A 1_555 1_555
O4A C12A 1_555 1_555
O5A Mn2 1_555 1_555
H7A O5A 1_555 1_555
H8A O5A 1_555 1_555
Mn1A O1A 1_555 1_555
Mn1B O4 1_555 1_555
Mn1B_2 O3A 1_555 1_555
Mn1C O3 1_555 1_555
Mn1C_2 O4A 1_555 1_555
Mn2F O3 1_555 1_555
Mn2F_2 O3A 1_555 1_555
O1D Mn1 1_555 1_555
O3C Mn1 1_555 1_555
O3F Mn2 1_555 1_555
O3G Mn1 1_555 1_555
O4B Mn1 1_555 1_555
O4F Mn1 1_555 1_555
Mn2 O3G 1_555 1_555
C4 N1 1_555 1_555
C5 C6 1_555 1_555
C8 N2 1_555 1_555
C1A O2A 1_555 1_555
C4A N1A 1_555 1_555
C5A C6A 1_555 1_555
C8A N2A 1_555 1_555
Mn1A O3F 1_555 1_555

#END
