
#######################################################################
#
#                 Cambridge Crystallographic Data Centre
#                                CCDC 
#
#######################################################################
#
# If this CIF has been generated from an entry in the Cambridge 
# Structural Database, then it will include bibliographic, chemical, 
# crystal, experimental, refinement or atomic coordinate data resulting 
# from the CCDC's data processing and validation procedures.
#
#######################################################################

data_LOSYID
_chemical_formula_moiety         '(C14 H7 Mg2 O10 S2 1-)n'
_symmetry_cell_setting           tetragonal
_symmetry_space_group_name_H-M   'P 42/n m c'
_symmetry_Int_Tables_number      137
_space_group_name_Hall           '-P 4ac 2a'
loop_
_symmetry_equiv_pos_site_id
_symmetry_equiv_pos_as_xyz
1 x,y,z
2 1/2-x,1/2-y,z
3 1/2-y,x,1/2+z
4 y,1/2-x,1/2+z
5 -x,1/2+y,-z
6 1/2+x,-y,-z
7 1/2+y,1/2+x,1/2-z
8 -y,-x,1/2-z
9 -x,-y,-z
10 1/2+x,1/2+y,-z
11 1/2+y,-x,1/2-z
12 -y,1/2+x,1/2-z
13 x,1/2-y,z
14 1/2-x,y,z
15 1/2-y,1/2-x,1/2+z
16 y,x,1/2+z
_cell_length_a                   22.23980(10)
_cell_length_b                   22.23980(10)
_cell_length_c                   12.30100(10)
_cell_angle_alpha                90
_cell_angle_beta                 90
_cell_angle_gamma                90
_cell_volume                     6084.18
loop_
_atom_site_label
_atom_site_type_symbol
_atom_site_fract_x
_atom_site_fract_y
_atom_site_fract_z
Mg1 Mg 0.5000 0.5000 0.5000
Mg2 Mg 0.43905(2) 0.56095(2) 0.7500
S1 S 0.50433(2) 0.7500 0.64233(4)
S2 S 0.2500 0.56239(2) 0.59152(4)
O1 O 0.51189(5) 0.59171(4) 0.50830(8)
O2 O 0.49632(5) 0.62201(4) 0.68041(8)
O3 O 0.40747(4) 0.51181(5) 0.48678(8)
O4 O 0.37954(4) 0.57089(5) 0.62695(8)
O5 O 0.50849(4) 0.51059(4) 0.83454(8)
C1 C 0.50601(6) 0.63092(6) 0.58047(12)
C2 C 0.51023(7) 0.69467(6) 0.54616(12)
C3 C 0.51608(11) 0.71839(7) 0.44396(14)
H1 H 0.5197 0.6947 0.3800
C4 C 0.36945(6) 0.54034(6) 0.54239(11)
C5 C 0.30555(6) 0.53642(7) 0.50675(11)
C6 C 0.28167(7) 0.50949(9) 0.41639(13)
H2 H 0.3053 0.4926 0.3598
C7 C 0.51957(6) 0.48043(6) 0.7500
C8 C 0.56739(7) 0.43261(7) 0.7500
O1L O 0.51189(5) 0.90829(4) 0.50830(8)
O2L O 0.49632(5) 0.87799(4) 0.68041(8)
C1L C 0.50601(6) 0.86908(6) 0.58047(12)
C2L C 0.51023(7) 0.80533(6) 0.54616(12)
C3L C 0.51608(11) 0.78161(7) 0.44396(14)
H1L H 0.5197 0.8053 0.3800
O3M O 0.09253(4) 0.51181(5) 0.48678(8)
O4M O 0.12046(4) 0.57089(5) 0.62695(8)
C4M C 0.13055(6) 0.54034(6) 0.54239(11)
C5M C 0.19445(6) 0.53642(7) 0.50675(11)
C6M C 0.21833(7) 0.50949(9) 0.41639(13)
H2M H 0.1947 0.4926 0.3598
O5G O 0.48941(4) 0.49151(4) 0.66546(8)
Mg1D Mg 0.5000 1.0000 0.5000
Mg1E Mg 0.0000 0.5000 0.5000
Mg1G Mg 0.5000 0.5000 1.0000
Mg2J Mg 0.06095(2) 0.56095(2) 0.7500
Mg2K Mg 0.43905(2) 0.93905(2) 0.7500
O1H O 0.48811(5) 0.40829(4) 0.49170(8)
O2G O 0.37799(4) 0.50368(5) 0.81959(8)
O3H O 0.59253(4) 0.48819(5) 0.51322(8)
O4G O 0.42911(5) 0.62046(4) 0.87305(8)
O5O O 0.51059(4) 0.50849(4) 0.33454(8)
loop_
_geom_bond_atom_site_label_1
_geom_bond_atom_site_label_2
_geom_bond_site_symmetry_1
_geom_bond_site_symmetry_2
Mg1 O1 1_555 1_555
Mg2 O2 1_555 1_555
S1 C2 1_555 1_555
S2 C5 1_555 1_555
O1 C1 1_555 1_555
O2 C1 1_555 1_555
O3 Mg1 1_555 1_555
O4 Mg2 1_555 1_555
O5 Mg2 1_555 1_555
C1 C2 1_555 1_555
C2 C3 1_555 1_555
C3 H1 1_555 1_555
C4 O3 1_555 1_555
C5 C4 1_555 1_555
C6 C5 1_555 1_555
H2 C6 1_555 1_555
C7 O5 1_555 1_555
C8 C7 1_555 1_555
O1L C1L 1_555 1_555
O2L C1L 1_555 1_555
C1L C2L 1_555 1_555
C2L S1 1_555 1_555
C3L C3 1_555 1_555
H1L C3L 1_555 1_555
O3M C4M 1_555 1_555
O4M C4M 1_555 1_555
C4M C5M 1_555 1_555
C5M S2 1_555 1_555
C6M C6 1_555 1_555
H2M C6M 1_555 1_555
O5G Mg1 1_555 1_555
Mg1D O1L 1_555 1_555
Mg1E O3M 1_555 1_555
Mg1G O5 1_555 1_555
Mg2J O4M 1_555 1_555
Mg2K O2L 1_555 1_555
O1H Mg1 1_555 1_555
O2G Mg2 1_555 1_555
O3H Mg1 1_555 1_555
O4G Mg2 1_555 1_555
O5O Mg1 1_555 1_555
Mg2 O5G 1_555 1_555
O4 C4 1_555 1_555
C7 O5G 1_555 1_555
C2L C3L 1_555 1_555
C5M C6M 1_555 1_555

#END
