
#######################################################################
#
#                 Cambridge Crystallographic Data Centre
#                                CCDC 
#
#######################################################################
#
# If this CIF has been generated from an entry in the Cambridge 
# Structural Database, then it will include bibliographic, chemical, 
# crystal, experimental, refinement or atomic coordinate data resulting 
# from the CCDC's data processing and validation procedures.
#
#######################################################################

data_GOPLUS
_chemical_formula_moiety         'C24 H40 Cl3 N5 O24 Pr3 3-'
_symmetry_cell_setting           monoclinic
_symmetry_space_group_name_H-M   'P 21/n'
_symmetry_Int_Tables_number      14
_space_group_name_Hall           '-P 2yn'
loop_
_symmetry_equiv_pos_site_id
_symmetry_equiv_pos_as_xyz
1 x,y,z
2 1/2-x,1/2+y,1/2-z
3 -x,-y,-z
4 1/2+x,1/2-y,1/2+z
_cell_length_a                   8.085(2)
_cell_length_b                   14.316(3)
_cell_length_c                   29.775(6)
_cell_angle_alpha                90
_cell_angle_beta                 103.04(3)
_cell_angle_gamma                90
_cell_volume                     3357.43
loop_
_atom_site_label
_atom_site_type_symbol
_atom_site_fract_x
_atom_site_fract_y
_atom_site_fract_z
O9 O 0.2904(26) 0.4944(16) 0.3573(7)
H41 H 0.3168(26) 0.5595(16) 0.3624(7)
H42 H 0.3798(26) 0.4642(16) 0.3464(7)
Cl1 Cl 0.5117(5) -0.0404(3) 0.7355(2)
O10 O 0.5418(29) -0.0172(15) 0.6920(5)
O11 O 0.6334(22) -0.1032(12) 0.7559(7)
O12 O 0.3522(19) -0.0807(11) 0.7285(6)
O13 O 0.5290(18) 0.0384(9) 0.7644(6)
Cl2 Cl 0.1635(5) 0.2295(3) 0.3645(1)
O14 O 0.0939(15) 0.1954(9) 0.4002(4)
O15 O 0.3348(14) 0.2571(17) 0.3799(7)
O16 O 0.0708(29) 0.3184(11) 0.3550(9)
O17 O 0.1236(35) 0.1793(18) 0.3231(6)
Cl3 Cl 0.4269(13) 0.2819(7) 0.6477(3)
O21 O 0.3231(26) 0.3626(13) 0.6329(9)
O22 O 0.3171(36) 0.2033(15) 0.6336(12)
O23 O 0.4737(43) 0.2830(25) 0.6969(4)
O24 O 0.5664(30) 0.2737(25) 0.6271(11)
Pr1 Pr 0.26277(6) -0.03767(3) 0.52004(1)
O1 O 0.2237(9) -0.0433(5) 0.4344(2)
O2 O -0.0149(8) -0.0051(5) 0.4515(2)
C1 C 0.0698(13) -0.0260(6) 0.4222(3)
C2 C -0.0235(13) -0.0337(7) 0.3725(3)
C3 C 0.0976(13) -0.0806(9) 0.3457(3)
N1 N 0.0234(10) -0.0977(6) 0.2955(2)
C4 C -0.0027(16) -0.0094(8) 0.2675(3)
C5 C -0.0911(16) -0.0323(7) 0.2179(3)
C6 C -0.1436(13) -0.1500(8) 0.2873(3)
C7 C -0.1909(14) -0.1845(8) 0.2371(3)
C8 C 0.1479(14) -0.1602(9) 0.2778(3)
C9 C 0.0961(12) -0.1645(8) 0.2254(3)
N2 N -0.0845(11) -0.1350(6) 0.2092(2)
C10 C -0.1463(15) -0.1536(7) 0.1585(3)
C11 C -0.1609(16) -0.2570(8) 0.1462(3)
C12 C -0.2100(14) -0.2733(8) 0.0950(3)
O3 O -0.2587(11) -0.2081(5) 0.0685(2)
O4 O 0.3112(10) -0.1449(6) 0.5827(2)
O5 O 0.4493(14) 0.0288(7) 0.5912(3)
O6 O 0.1052(9) -0.1865(5) 0.4945(2)
O7 O 0.2340(9) 0.1371(5) 0.5119(2)
O8 O 0.4753(9) 0.0964(5) 0.4954(2)
C13 C 0.3714(13) 0.1578(7) 0.5013(3)
C14 C 0.4190(29) 0.2570(11) 0.4959(7)
C15 C 0.3073(43) 0.3220(16) 0.4912(13)
N3 N 0.3637(41) 0.4267(14) 0.4895(8)
C16 C 0.4578(36) 0.4567(1) 0.5390(7)
C17 C 0.4863(32) 0.4403(10) 0.4603(7)
C18 C 0.1992(66) 0.4868(25) 0.4736(14)
C19 C 0.2182(67) 0.5825(32) 0.4708(18)
N4 N 0.5919(38) 0.4044(13) 0.5157(8)
C20 C 0.5573(43) 0.2956(24) 0.5163(11)
H1 H -0.0555(13) 0.0272(7) 0.3601(3)
H2 H -0.1232(13) -0.0716(7) 0.3699(3)
H3 H 0.1942(13) -0.0403(9) 0.3482(3)
H4 H 0.1334(13) -0.1393(9) 0.3603(3)
H5 H 0.1051(16) 0.0194(8) 0.2682(3)
H6 H -0.0725(16) 0.0327(8) 0.2802(3)
H7 H -0.2076(16) -0.0128(7) 0.2123(3)
H8 H -0.0351(16) 0.0001(7) 0.1974(3)
H9 H -0.2300(13) -0.1094(8) 0.2936(3)
H10 H -0.1311(13) -0.2030(8) 0.3075(3)
H11 H -0.1760(14) -0.2509(8) 0.2359(3)
H12 H -0.3077(14) -0.1691(8) 0.2244(3)
H13 H 0.1480(14) -0.2215(9) 0.2908(3)
H14 H 0.2595(14) -0.1336(9) 0.2869(3)
H15 H 0.1671(12) -0.1242(8) 0.2121(3)
H16 H 0.1077(12) -0.2276(8) 0.2157(3)
H17 H -0.0721(15) -0.1254(7) 0.1413(3)
H18 H -0.2564(15) -0.1255(7) 0.1486(3)
H19 H -0.2465(16) -0.2842(8) 0.1599(3)
H20 H -0.0534(16) -0.2859(8) 0.1590(3)
H21 H 0.5688(14) 0.0371(7) 0.5936(3)
H22 H 0.4085(14) 0.0767(7) 0.6085(3)
H23 H -0.0153(9) -0.1791(5) 0.4905(2)
H24 H 0.1294(9) -0.2108(5) 0.4666(2)
H25 H 0.4675(29) 0.2605(11) 0.4693(7)
H26 H 0.5085(29) 0.2721(11) 0.5220(7)
H29 H 0.2427(43) 0.3165(16) 0.5145(13)
H30 H 0.2320(43) 0.3091(16) 0.4620(13)
H31 H 0.5587(36) 0.4197(12) 0.5484(7)
H32 H 0.3873(36) 0.4465(12) 0.5605(7)
H33 H 0.3655(32) 0.4322(10) 0.4549(7)
H34 H 0.5285(32) 0.4058(10) 0.4376(7)
H35 H 0.1057(66) 0.4678(25) 0.4864(14)
H36 H 0.1674(66) 0.4752(25) 0.4410(14)
H37 H 0.1676(67) 0.6035(32) 0.4953(18)
H38 H 0.1676(67) 0.6158(32) 0.4431(18)
H39 H 0.6411(43) 0.2676(24) 0.5023(11)
H40 H 0.5832(43) 0.2762(24) 0.5480(11)
O2B O 0.0149(8) 0.0051(5) 0.5485(2)
O8B O 0.5247(9) -0.0964(5) 0.5046(2)
Pr1B Pr -0.26277(6) 0.03767(3) 0.47996(1)
O4C O -0.1888(10) -0.3551(6) 0.0827(2)
C12C C 0.2900(14) -0.2267(8) 0.5950(3)
Pr1B_2 Pr 0.73723(6) 0.03767(3) 0.47996(1)
C17B C 0.5137(32) 0.5597(10) 0.5397(7)
C16B C 0.5422(36) 0.5433(1) 0.4610(7)
N4B N 0.4081(38) 0.5956(13) 0.4843(8)
C19B C 0.7818(67) 0.4175(32) 0.5292(18)
loop_
_geom_bond_atom_site_label_1
_geom_bond_atom_site_label_2
_geom_bond_site_symmetry_1
_geom_bond_site_symmetry_2
Pr1 O1 1_555 1_555
O1 C1 1_555 1_555
O2 Pr1 1_555 1_555
C1 O2 1_555 1_555
C2 C1 1_555 1_555
C3 C2 1_555 1_555
N1 C3 1_555 1_555
C4 N1 1_555 1_555
C5 C4 1_555 1_555
C6 N1 1_555 1_555
C7 C6 1_555 1_555
C8 N1 1_555 1_555
C9 C8 1_555 1_555
N2 C5 1_555 1_555
C10 N2 1_555 1_555
C11 C10 1_555 1_555
C12 C11 1_555 1_555
O3 C12 1_555 1_555
O4 Pr1 1_555 1_555
O5 Pr1 1_555 1_555
O6 Pr1 1_555 1_555
O7 Pr1 1_555 1_555
O8 Pr1 1_555 1_555
C13 O7 1_555 1_555
C14 C13 1_555 1_555
C15 C14 1_555 1_555
N3 C15 1_555 1_555
C16 N3 1_555 1_555
C17 N3 1_555 1_555
C18 N3 1_555 1_555
C19 C18 1_555 1_555
N4 C16 1_555 1_555
C20 C14 1_555 1_555
O9 H41 1_555 1_555
Cl1 O10 1_555 1_555
O11 Cl1 1_555 1_555
O12 Cl1 1_555 1_555
O13 Cl1 1_555 1_555
Cl2 O14 1_555 1_555
O15 Cl2 1_555 1_555
O16 Cl2 1_555 1_555
O17 Cl2 1_555 1_555
Cl3 O21 1_555 1_555
O22 Cl3 1_555 1_555
O23 Cl3 1_555 1_555
O24 Cl3 1_555 1_555
H1 C2 1_555 1_555
H2 C2 1_555 1_555
H3 C3 1_555 1_555
H4 C3 1_555 1_555
H5 C4 1_555 1_555
H6 C4 1_555 1_555
H7 C5 1_555 1_555
H8 C5 1_555 1_555
H9 C6 1_555 1_555
H10 C6 1_555 1_555
H11 C7 1_555 1_555
H12 C7 1_555 1_555
H13 C8 1_555 1_555
H14 C8 1_555 1_555
H15 C9 1_555 1_555
H16 C9 1_555 1_555
H17 C10 1_555 1_555
H18 C10 1_555 1_555
H19 C11 1_555 1_555
H20 C11 1_555 1_555
H21 O5 1_555 1_555
H22 O5 1_555 1_555
H23 O6 1_555 1_555
H24 O6 1_555 1_555
H25 C14 1_555 1_555
H26 C14 1_555 1_555
H29 C15 1_555 1_555
H30 C15 1_555 1_555
H31 C16 1_555 1_555
H32 C16 1_555 1_555
H33 N3 1_555 1_555
H34 C17 1_555 1_555
H35 C18 1_555 1_555
H36 C18 1_555 1_555
H37 C19 1_555 1_555
H38 C19 1_555 1_555
H39 C20 1_555 1_555
H40 C20 1_555 1_555
H42 O9 1_555 1_555
O2B Pr1 1_555 1_555
O8B Pr1 1_555 1_555
Pr1B O2 1_555 1_555
O4C C12 1_555 1_555
C12C O4 1_555 1_555
Pr1B_2 O8 1_555 1_555
C17B C16 1_555 1_555
C16B C17 1_555 1_555
N4B C19 1_555 1_555
C19B N4 1_555 1_555
C7 N2 1_555 1_555
C9 N2 1_555 1_555
O8 C13 1_555 1_555
C17 N4 1_555 1_555
C17 H33 1_555 1_555
N4 C20 1_555 1_555
N4 H31 1_555 1_555
C20 H26 1_555 1_555
O2B Pr1B 1_555 1_555
O8B Pr1B_2 1_555 1_555
C17B N4B 1_555 1_555
C16B N4B 1_555 1_555

#END
