
#######################################################################
#
#                 Cambridge Crystallographic Data Centre
#                                CCDC 
#
#######################################################################
#
# If this CIF has been generated from an entry in the Cambridge 
# Structural Database, then it will include bibliographic, chemical, 
# crystal, experimental, refinement or atomic coordinate data resulting 
# from the CCDC's data processing and validation procedures.
#
#######################################################################

data_DOLXOR
_chemical_formula_moiety         '(C18 H28 Cu5 N10 O4)n'
_symmetry_cell_setting           monoclinic
_symmetry_space_group_name_H-M   'C 2/c'
_symmetry_Int_Tables_number      15
_space_group_name_Hall           '-C 2yc'
loop_
_symmetry_equiv_pos_site_id
_symmetry_equiv_pos_as_xyz
1 x,y,z
2 1/2+x,1/2+y,z
3 -x,y,1/2-z
4 1/2-x,1/2+y,1/2-z
5 -x,-y,-z
6 1/2-x,1/2-y,-z
7 x,-y,1/2+z
8 1/2+x,1/2-y,1/2+z
_cell_length_a                   14.034(4)
_cell_length_b                   12.591(3)
_cell_length_c                   16.403(3)
_cell_angle_alpha                90
_cell_angle_beta                 91.99(2)
_cell_angle_gamma                90
_cell_volume                     2896.7
loop_
_atom_site_label
_atom_site_type_symbol
_atom_site_fract_x
_atom_site_fract_y
_atom_site_fract_z
Cu1 Cu 0.31427(7) 0.17814(9) 0.49746(6)
Cu2 Cu 0.00000 0.00000 0.50000
Cu3 Cu 0.50000 0.10233(15) 0.75000
Cu4 Cu 0.50000 0.13662(16) 0.25000
O1 O -0.0504(4) 0.0473(5) 0.3845(4)
O2 O 0.0782(4) -0.1447(5) 0.4465(4)
N1 N 0.3795(5) 0.1363(6) 0.6009(5)
N2 N 0.1117(5) 0.0874(6) 0.4869(4)
N3 N 0.3848(5) 0.1567(6) 0.3969(5)
N4 N -0.1405(6) 0.0176(6) 0.2714(4)
N5 N 0.1312(5) -0.3115(6) 0.4752(4)
C1 C 0.4217(6) 0.1150(7) 0.6601(5)
C2 C 0.1784(5) 0.1381(7) 0.4891(5)
C3 C 0.4278(6) 0.1443(7) 0.3397(5)
C4 C -0.0958(6) -0.0125(8) 0.3388(5)
C5 C -0.1392(9) 0.1288(9) 0.2441(7)
C6 C -0.1977(10) -0.0539(11) 0.2193(7)
C7 C 0.0810(6) -0.2245(8) 0.4893(6)
C8 C 0.1851(7) -0.3242(10) 0.4016(7)
C9 C 0.1242(10) -0.3991(9) 0.5289(8)
H1 H -0.098(5) 0.159(6) 0.272(4)
H2 H -0.096(6) -0.097(7) 0.343(5)
H3 H 0.087(9) -0.379(10) 0.580(8)
H4 H 0.201(5) -0.268(6) 0.379(5)
H5 H 0.141(9) -0.377(10) 0.360(7)
H6 H 0.259(6) -0.343(8) 0.404(6)
H7 H 0.180(6) -0.406(7) 0.540(5)
H8 H -0.177(7) 0.133(9) 0.205(7)
H9 H -0.092(6) 0.142(7) 0.201(5)
H10 H -0.173(8) -0.042(10) 0.165(7)
H11 H 0.039(5) -0.236(6) 0.534(4)
H12 H 0.137(5) -0.450(6) 0.516(5)
H13 H -0.265(13) -0.045(14) 0.210(10)
H14 H -0.176(6) -0.118(6) 0.233(5)
O1D O 0.0504(4) -0.0473(5) 0.6155(4)
N4D N 0.1405(6) -0.0176(6) 0.7286(4)
C4D C 0.0958(6) 0.0125(8) 0.6612(5)
C5D C 0.1392(9) -0.1288(9) 0.7559(7)
C6D C 0.1977(10) 0.0539(11) 0.7807(7)
H1D H 0.098(5) -0.159(6) 0.728(4)
H2D H 0.096(6) 0.097(7) 0.657(5)
H8D H 0.177(7) -0.133(9) 0.795(7)
H9D H 0.092(6) -0.142(7) 0.799(5)
H10D H 0.173(8) 0.042(10) 0.835(7)
H13D H 0.265(13) 0.045(14) 0.790(10)
H14D H 0.176(6) 0.118(6) 0.767(5)
O2D O -0.0782(4) 0.1447(5) 0.5535(4)
N5D N -0.1312(5) 0.3115(6) 0.5248(4)
C7D C -0.0810(6) 0.2245(8) 0.5107(6)
C8D C -0.1851(7) 0.3242(10) 0.5984(7)
C9D C -0.1242(10) 0.3991(9) 0.4711(8)
H3D H -0.087(9) 0.379(10) 0.420(8)
H4D H -0.201(5) 0.268(6) 0.621(5)
H5D H -0.141(9) 0.377(10) 0.640(7)
H6D H -0.259(6) 0.343(8) 0.596(6)
H7D H -0.180(6) 0.406(7) 0.460(5)
H11D H -0.039(5) 0.236(6) 0.466(4)
H12D H -0.137(5) 0.450(6) 0.484(5)
N2D N -0.1117(5) -0.0874(6) 0.5131(4)
C2D C -0.1784(5) -0.1381(7) 0.5109(5)
Cu1D Cu -0.31427(7) -0.17814(9) 0.50254(6)
N1D N -0.3795(5) -0.1363(6) 0.3991(5)
C1D C -0.4217(6) -0.1150(7) 0.3399(5)
N3D N -0.3848(5) -0.1567(6) 0.6031(5)
C3D C -0.4278(6) -0.1443(7) 0.6603(5)
Cu1E Cu 0.18573(7) 0.32186(9) 0.50254(6)
C2E C 0.3216(5) 0.3619(7) 0.5109(5)
Cu4D Cu 0.50000 -0.13662(16) 0.75000
C1B C 0.5783(6) 0.1150(7) 0.8399(5)
Cu3D Cu 0.50000 -0.10233(15) 0.25000
C3B C 0.5722(6) 0.1443(7) 0.1603(5)
Cu1A Cu -0.18573(7) -0.32186(9) 0.49746(6)
C2A C -0.3216(5) -0.3619(7) 0.4891(5)
Cu3D_2 Cu -0.50000 -0.10233(15) 0.25000
Cu4D_2 Cu -0.50000 -0.13662(16) 0.75000
loop_
_geom_bond_atom_site_label_1
_geom_bond_atom_site_label_2
_geom_bond_site_symmetry_1
_geom_bond_site_symmetry_2
Cu1 N1 1_555 1_555
Cu2 O1 1_555 1_555
Cu3 C1 1_555 1_555
Cu4 C3 1_555 1_555
O1 C4 1_555 1_555
O2 Cu2 1_555 1_555
N1 C1 1_555 1_555
N2 Cu2 1_555 1_555
N3 Cu1 1_555 1_555
N4 C4 1_555 1_555
N5 C7 1_555 1_555
C2 Cu1 1_555 1_555
C3 N3 1_555 1_555
C4 H2 1_555 1_555
C5 N4 1_555 1_555
C6 N4 1_555 1_555
C7 O2 1_555 1_555
C8 N5 1_555 1_555
C9 N5 1_555 1_555
H1 C5 1_555 1_555
H3 C9 1_555 1_555
H4 C8 1_555 1_555
H5 C8 1_555 1_555
H6 C8 1_555 1_555
H7 C9 1_555 1_555
H8 C5 1_555 1_555
H9 C5 1_555 1_555
H10 C6 1_555 1_555
H11 C7 1_555 1_555
H12 C9 1_555 1_555
H13 C6 1_555 1_555
H14 C6 1_555 1_555
O1D Cu2 1_555 1_555
N4D C4D 1_555 1_555
C4D O1D 1_555 1_555
C5D N4D 1_555 1_555
C6D N4D 1_555 1_555
H1D C5D 1_555 1_555
H2D C4D 1_555 1_555
H8D C5D 1_555 1_555
H9D C5D 1_555 1_555
H10D C6D 1_555 1_555
H13D C6D 1_555 1_555
H14D C6D 1_555 1_555
O2D Cu2 1_555 1_555
N5D C7D 1_555 1_555
C7D O2D 1_555 1_555
C8D N5D 1_555 1_555
C9D N5D 1_555 1_555
H3D C9D 1_555 1_555
H4D C8D 1_555 1_555
H5D C8D 1_555 1_555
H6D C8D 1_555 1_555
H7D C9D 1_555 1_555
H11D C7D 1_555 1_555
H12D C9D 1_555 1_555
N2D Cu2 1_555 1_555
C2D N2D 1_555 1_555
Cu1D C2D 1_555 1_555
N1D Cu1D 1_555 1_555
C1D N1D 1_555 1_555
N3D Cu1D 1_555 1_555
C3D N3D 1_555 1_555
Cu1E Cu1 1_555 1_555
C2E Cu1 1_555 1_555
Cu4D Cu3 1_555 1_555
C1B Cu3 1_555 1_555
Cu3D Cu4 1_555 1_555
C3B Cu4 1_555 1_555
Cu1A C2D 1_555 1_555
C2A Cu1D 1_555 1_555
Cu3D_2 C1D 1_555 1_555
Cu4D_2 C3D 1_555 1_555
N2 C2 1_555 1_555
C2 Cu1E 1_555 1_555
Cu1D Cu1A 1_555 1_555
Cu1E C2E 1_555 1_555
Cu1A C2A 1_555 1_555

#END
