
#######################################################################
#
#                 Cambridge Crystallographic Data Centre
#                                CCDC 
#
#######################################################################
#
# If this CIF has been generated from an entry in the Cambridge 
# Structural Database, then it will include bibliographic, chemical, 
# crystal, experimental, refinement or atomic coordinate data resulting 
# from the CCDC's data processing and validation procedures.
#
#######################################################################

data_UBUROY
_chemical_formula_moiety         '(C18 H28 Cu4 N10 O4 Zn1)n'
_symmetry_cell_setting           monoclinic
_symmetry_space_group_name_H-M   'C 2/c'
_symmetry_Int_Tables_number      15
_space_group_name_Hall           '-C 2yc'
loop_
_symmetry_equiv_pos_site_id
_symmetry_equiv_pos_as_xyz
1 x,y,z
2 1/2+x,1/2+y,z
3 x,-y,1/2+z
4 1/2+x,1/2-y,1/2+z
5 -x,-y,-z
6 1/2-x,1/2-y,-z
7 -x,y,1/2-z
8 1/2-x,1/2+y,1/2-z
_cell_length_a                   14.1758(8)
_cell_length_b                   12.5879(7)
_cell_length_c                   16.3869(9)
_cell_angle_alpha                90
_cell_angle_beta                 91.8160(10)
_cell_angle_gamma                90
_cell_volume                     2922.67
loop_
_atom_site_label
_atom_site_type_symbol
_atom_site_fract_x
_atom_site_fract_y
_atom_site_fract_z
_atom_site_U_iso_or_equiv
_atom_site_thermal_displace_type
Zn1 Zn 0.0000 0.0000 0.5000 0.0368 Uani
Cu1 Cu -0.31429(4) -0.17798(5) 0.50206(4) 0.0383 Uani
Cu2 Cu -0.5000 -0.13604(10) 0.7500 0.0566 Uani
Cu3 Cu -0.5000 -0.10215(9) 0.2500 0.0567 Uani
O1 O -0.0511(3) 0.0468(3) 0.3831(2) 0.0526 Uani
O2 O 0.0753(3) -0.1422(3) 0.4490(3) 0.0576 Uani
N1 N -0.3859(3) -0.1565(4) 0.6022(3) 0.0520 Uani
N2 N -0.1144(3) -0.0878(4) 0.5145(3) 0.0374 Uani
N3 N -0.3798(4) -0.1358(4) 0.3988(3) 0.0550 Uani
N4 N -0.1421(4) 0.0208(4) 0.2699(3) 0.0570 Uani
N5 N 0.1287(3) -0.3090(4) 0.4747(3) 0.0511 Uani
C1 C -0.4265(4) -0.1440(5) 0.6603(3) 0.0424 Uani
C2 C -0.1797(4) -0.1376(4) 0.5111(3) 0.0373 Uani
C3 C -0.4213(4) -0.1153(5) 0.3399(3) 0.0457 Uani
C4 C -0.0984(4) -0.0122(5) 0.3376(4) 0.0503 Uani
C5 C -0.1366(6) 0.1309(6) 0.2430(4) 0.0733 Uani
C6 C -0.1965(6) -0.0532(8) 0.2179(5) 0.0926 Uani
C7 C 0.0775(4) -0.2237(5) 0.4913(4) 0.0509 Uani
C8 C 0.1844(5) -0.3160(7) 0.4020(5) 0.0756 Uani
C9 C 0.1261(6) -0.4033(6) 0.5278(5) 0.0768 Uani
O1D O 0.0511(3) -0.0468(3) 0.6169(2) 0.0526 Uani
N4D N 0.1421(4) -0.0208(4) 0.7301(3) 0.0570 Uani
C4D C 0.0984(4) 0.0122(5) 0.6624(4) 0.0503 Uani
C5D C 0.1366(6) -0.1309(6) 0.7570(4) 0.0733 Uani
C6D C 0.1965(6) 0.0532(8) 0.7821(5) 0.0926 Uani
O2D O -0.0753(3) 0.1422(3) 0.5510(3) 0.0576 Uani
N5D N -0.1287(3) 0.3090(4) 0.5253(3) 0.0511 Uani
C7D C -0.0775(4) 0.2237(5) 0.5087(4) 0.0509 Uani
C8D C -0.1844(5) 0.3160(7) 0.5980(5) 0.0756 Uani
C9D C -0.1261(6) 0.4033(6) 0.4722(5) 0.0768 Uani
N2D N 0.1144(3) 0.0878(4) 0.4855(3) 0.0374 Uani
Cu1E Cu -0.18571(4) -0.32202(5) 0.49794(4) 0.0383 Uani
C2E C -0.3203(4) -0.3624(4) 0.4889(3) 0.0373 Uani
C1F C -0.5735(4) -0.1440(5) 0.8397(3) 0.0424 Uani
C3F C -0.5787(4) -0.1153(5) 0.1601(3) 0.0457 Uani
N1E N -0.1141(3) -0.3435(4) 0.3978(3) 0.0520 Uani
N3E N -0.1202(4) -0.3642(4) 0.6012(3) 0.0550 Uani
N2E N -0.3856(3) -0.4122(4) 0.4855(3) 0.0374 Uani
C1E C -0.0735(4) -0.3560(5) 0.3397(3) 0.0424 Uani
C3E C -0.0787(4) -0.3847(5) 0.6601(3) 0.0457 Uani
Zn1A Zn -0.5000 -0.5000 0.5000 0.0368 Uani
Cu2C Cu 0.0000 -0.36396(10) 0.2500 0.0566 Uani
Cu3C Cu -0.0000 -0.39785(9) 0.7500 0.0567 Uani
loop_
_atom_site_aniso_label
_atom_site_aniso_U_11
_atom_site_aniso_U_22
_atom_site_aniso_U_33
_atom_site_aniso_U_23
_atom_site_aniso_U_13
_atom_site_aniso_U_12
Zn1 0.0321(5) 0.0374(5) 0.0408(5) 0.0050(4) -0.0025(4) -0.0123(4)
Cu1 0.0305(3) 0.0449(4) 0.0395(4) -0.0006(3) 0.0016(3) -0.0043(3)
Cu2 0.0535(6) 0.0770(8) 0.0403(6) 0.000 0.0195(5) 0.000
Cu3 0.0642 0.0674 0.0372 0 -0.0171 0
O1 0.058(3) 0.049(2) 0.050(2) 0.005(2) -0.009(2) -0.013(2)
O2 0.057(3) 0.044(2) 0.072(3) 0.013(2) 0.006(2) -0.006(2)
N1 0.045(3) 0.052(3) 0.059(3) 0.000(2) 0.001(3) -0.004(2)
N2 0.032(2) 0.040(3) 0.040(2) 0.001(2) -0.001(2) -0.006(2)
N3 0.053(3) 0.053(3) 0.059(3) -0.009(3) 0.004(3) -0.004(2)
N4 0.061(3) 0.072(4) 0.038(3) -0.008(2) 0.002(2) -0.009(3)
N5 0.051(3) 0.047(3) 0.055(3) -0.001(2) -0.003(2) -0.002(2)
C1 0.039(3) 0.057(4) 0.032(3) -0.004(2) 0.015(2) -0.003(3)
C2 0.033(3) 0.048(3) 0.031(3) -0.001(2) 0.002(2) -0.010(3)
C3 0.055(3) 0.053(4) 0.028(3) -0.001(2) -0.015(3) 0.008(3)
C4 0.053(4) 0.059(4) 0.039(3) 0.000(3) 0.002(3) -0.006(3)
C5 0.093(6) 0.068(5) 0.059(4) 0.019(4) 0.002(4) 0.016(4)
C6 0.109(7) 0.111(7) 0.057(4) -0.025(5) -0.011(4) -0.041(6)
C7 0.041(3) 0.046(4) 0.065(4) 0.000(3) -0.008(3) -0.006(3)
C8 0.069(5) 0.087(6) 0.072(5) -0.009(4) 0.019(4) 0.002(4)
C9 0.100(6) 0.054(4) 0.077(5) 0.016(4) 0.014(4) 0.016(4)
O1D 0.058 0.049 0.05 0.005 -0.009 -0.013
N4D 0.061 0.072 0.038 -0.008 0.002 -0.009
C4D 0.053 0.059 0.039 0 0.002 -0.006
C5D 0.093 0.068 0.059 0.019 0.002 0.016
C6D 0.109 0.111 0.057 -0.025 -0.011 -0.041
O2D 0.057 0.044 0.072 0.013 0.006 -0.006
N5D 0.051 0.047 0.055 -0.001 -0.003 -0.002
C7D 0.041 0.046 0.065 0 -0.008 -0.006
C8D 0.069 0.087 0.072 -0.009 0.019 0.002
C9D 0.1 0.054 0.077 0.016 0.014 0.016
N2D 0.032 0.04 0.04 0.001 -0.001 -0.006
Cu1E 0.0305 0.0449 0.0395 -0.0006 0.0016 -0.0043
C2E 0.033 0.048 0.031 -0.001 0.002 -0.01
C1F 0.039 0.057 0.032 0.004 0.015 0.003
C3F 0.055 0.053 0.028 0.001 -0.015 -0.008
N1E 0.045 0.052 0.059 0 0.001 -0.004
N3E 0.053 0.053 0.059 -0.009 0.004 -0.004
N2E 0.032 0.04 0.04 0.001 -0.001 -0.006
C1E 0.039 0.057 0.032 -0.004 0.015 -0.003
C3E 0.055 0.053 0.028 -0.001 -0.015 0.008
Zn1A 0.0321 0.0374 0.0408 0.005 -0.0025 -0.0123
Cu2C 0.0535 0.077 0.0403 0 0.0195 0
Cu3C 0.0642 0.0674 0.0372 0 -0.0171 0
loop_
_geom_bond_atom_site_label_1
_geom_bond_atom_site_label_2
_geom_bond_site_symmetry_1
_geom_bond_site_symmetry_2
Zn1 O1 1_555 1_555
Cu1 N1 1_555 1_555
Cu2 C1 1_555 1_555
Cu3 C3 1_555 1_555
O1 C4 1_555 1_555
O2 Zn1 1_555 1_555
N1 C1 1_555 1_555
N2 Zn1 1_555 1_555
N3 Cu1 1_555 1_555
N4 C4 1_555 1_555
N5 C7 1_555 1_555
C2 Cu1 1_555 1_555
C3 N3 1_555 1_555
C5 N4 1_555 1_555
C6 N4 1_555 1_555
C7 O2 1_555 1_555
C8 N5 1_555 1_555
C9 N5 1_555 1_555
O1D Zn1 1_555 1_555
N4D C4D 1_555 1_555
C4D O1D 1_555 1_555
C5D N4D 1_555 1_555
C6D N4D 1_555 1_555
O2D Zn1 1_555 1_555
N5D C7D 1_555 1_555
C7D O2D 1_555 1_555
C8D N5D 1_555 1_555
C9D N5D 1_555 1_555
N2D Zn1 1_555 1_555
Cu1E Cu1 1_555 1_555
C2E Cu1 1_555 1_555
C1F Cu2 1_555 1_555
C3F Cu3 1_555 1_555
N1E Cu1E 1_555 1_555
N3E Cu1E 1_555 1_555
N2E C2E 1_555 1_555
C1E N1E 1_555 1_555
C3E N3E 1_555 1_555
Zn1A N2E 1_555 1_555
Cu2C C1E 1_555 1_555
Cu3C C3E 1_555 1_555
N2 C2 1_555 1_555
C2 Cu1E 1_555 1_555
Cu1E C2E 1_555 1_555

#END
