
#######################################################################
#
#                 Cambridge Crystallographic Data Centre
#                                CCDC 
#
#######################################################################
#
# If this CIF has been generated from an entry in the Cambridge 
# Structural Database, then it will include bibliographic, chemical, 
# crystal, experimental, refinement or atomic coordinate data resulting 
# from the CCDC's data processing and validation procedures.
#
#######################################################################

data_EJIBUW
_chemical_formula_moiety         '(C22 H14 N12 Zn1)n'
_symmetry_cell_setting           rhombohedral
_symmetry_space_group_name_H-M   'R -3'
_symmetry_Int_Tables_number      148
_space_group_name_Hall           '-R 3'
loop_
_symmetry_equiv_pos_site_id
_symmetry_equiv_pos_as_xyz
1 x,y,z
2 -y,x-y,z
3 -x+y,-x,z
4 2/3+x,1/3+y,1/3+z
5 2/3-y,1/3+x-y,1/3+z
6 2/3-x+y,1/3-x,1/3+z
7 1/3+x,2/3+y,2/3+z
8 1/3-y,2/3+x-y,2/3+z
9 1/3-x+y,2/3-x,2/3+z
10 -x,-y,-z
11 y,-x+y,-z
12 x-y,x,-z
13 1/3-x,2/3-y,2/3-z
14 1/3+y,2/3-x+y,2/3-z
15 1/3+x-y,2/3+x,2/3-z
16 2/3-x,1/3-y,1/3-z
17 2/3+y,1/3-x+y,1/3-z
18 2/3+x-y,1/3+x,1/3-z
_cell_length_a                   28.60(4)
_cell_length_b                   28.60(4)
_cell_length_c                   17.60(2)
_cell_angle_alpha                90
_cell_angle_beta                 90
_cell_angle_gamma                120
_cell_volume                     12467.4
loop_
_atom_site_label
_atom_site_type_symbol
_atom_site_fract_x
_atom_site_fract_y
_atom_site_fract_z
_atom_site_U_iso_or_equiv
_atom_site_thermal_displace_type
Zn1 Zn 0.15980(4) 0.31800(7) 0.08420(5) 0.0813 Uani
N1 N 0.2171(5) 0.3950(5) 0.1577(6) 0.1104 Uani
N2 N 0.2654(7) 0.4780(7) 0.2638(9) 0.1448 Uani
N3 N 0.1060(4) 0.3385(5) 0.2880(5) 0.0934 Uani
N4 N 0.1183(3) 0.3073(4) 0.1819(5) 0.0731 Uani
N5 N 0.0712(3) 0.2706(4) 0.2044(6) 0.0850 Uani
N6 N -0.0872(4) 0.2145(5) 0.3775(5) 0.1007 Uani
N7 N 0.1078(3) 0.2497(5) 0.0113(5) 0.1034 Uani
N8 N 0.0580(6) 0.1807(7) -0.1045(9) 0.1428 Uani
N9 N 0.2026(3) 0.3422(4) -0.0112(4) 0.0908 Uani
N10 N 0.2520(3) 0.3793(3) -0.0311(4) 0.0677 Uani
N11 N 0.2199(4) 0.3191(5) -0.1208(5) 0.0976 Uani
N12 N 0.4104(4) 0.4626(4) -0.2079(5) 0.0956 Uani
C1 C 0.2629(8) 0.4367(8) 0.1438(12) 0.1663 Uani
H1 H 0.2780 0.4397 0.0959 0.2000 Uiso
C2 C 0.2907(11) 0.4764(9) 0.1944(18) 0.2180 Uani
H2 H 0.3262 0.5026 0.1843 0.2610 Uiso
C3 C 0.2153(6) 0.4314(7) 0.2754(11) 0.1418 Uani
H3 H 0.1983 0.4261 0.3222 0.1700 Uiso
C4 C 0.1913(5) 0.3940(5) 0.2208(6) 0.0907 Uani
C5 C 0.1383(4) 0.3467(5) 0.2338(5) 0.0758 Uani
C6 C 0.0632(4) 0.2913(5) 0.2685(6) 0.0812 Uani
C7 C 0.0124(5) 0.2645(5) 0.3083(6) 0.0846 Uani
C8 C 0.0008(5) 0.2906(6) 0.3675(8) 0.1178 Uani
H4 H 0.0265 0.3246 0.3848 0.1410 Uiso
C9 C -0.0502(5) 0.2635(5) 0.3985(7) 0.1069 Uani
H5 H -0.0590 0.2806 0.4362 0.1280 Uiso
C10 C -0.0722(6) 0.1917(6) 0.3276(7) 0.1016 Uani
H6 H -0.0969 0.1559 0.3161 0.1220 Uiso
C11 C -0.0243(5) 0.2139(6) 0.2898(8) 0.1096 Uani
H7 H -0.0174 0.1948 0.2529 0.1310 Uiso
C12 C 0.0577(9) 0.2102(7) 0.0134(11) 0.1417 Uani
H8 H 0.0371 0.2058 0.0565 0.1700 Uiso
C13 C 0.0357(8) 0.1763(10) -0.0440(13) 0.1631 Uani
H9 H 0.0009 0.1473 -0.0377 0.1950 Uiso
C14 C 0.1066(5) 0.2222(6) -0.1129(9) 0.1170 Uani
H10 H 0.1247 0.2268 -0.1586 0.1400 Uiso
C15 C 0.1306(6) 0.2581(6) -0.0570(8) 0.1050 Uani
C16 C 0.1859(4) 0.3045(5) -0.0653(6) 0.0903 Uani
C17 C 0.2626(4) 0.3646(5) -0.0987(5) 0.0769 Uani
C18 C 0.3107(4) 0.3985(5) -0.1377(6) 0.0778 Uani
C19 C 0.3486(4) 0.4465(5) -0.1063(7) 0.0953 Uani
H11 H 0.3417 0.4598 -0.0620 0.1140 Uiso
C20 C 0.3992(4) 0.4753(5) -0.1452(8) 0.1006 Uani
H12 H 0.4263 0.5062 -0.1217 0.1200 Uiso
C21 C 0.3723(7) 0.4108(6) -0.2345(8) 0.1278 Uani
H13 H 0.3814 0.3974 -0.2766 0.1530 Uiso
C22 C 0.3224(6) 0.3788(6) -0.2019(8) 0.1123 Uani
H14 H 0.2978 0.3454 -0.2223 0.1350 Uiso
Zn1E Zn -0.17513(8) 0.17353(4) 0.41753(5) 0.0813 Uani
Zn1H Zn 0.49153(8) 0.50687(4) -0.24913(5) 0.0813 Uani
N6G N 0.1188(5) 0.3650(6) 0.0442(5) 0.1007 Uani
N12D N 0.2041(4) 0.2811(6) 0.1254(5) 0.0956 Uani
loop_
_atom_site_aniso_label
_atom_site_aniso_U_11
_atom_site_aniso_U_22
_atom_site_aniso_U_33
_atom_site_aniso_U_23
_atom_site_aniso_U_13
_atom_site_aniso_U_12
Zn1 0.0609(8) 0.1382(14) 0.0552(8) 0.0251(6) 0.0138(4) 0.0576(8)
N1 0.099(7) 0.111(8) 0.074(6) -0.017(5) 0.013(5) 0.017(6)
N2 0.141(12) 0.150(13) 0.113(10) 0.014(9) 0.012(9) 0.050(10)
N3 0.078(6) 0.129(8) 0.059(4) -0.016(5) -0.002(4) 0.041(6)
N4 0.061(4) 0.097(6) 0.074(5) -0.003(4) -0.003(4) 0.049(4)
N5 0.061(5) 0.093(6) 0.091(6) -0.017(5) 0.000(4) 0.031(4)
N6 0.076(5) 0.128(8) 0.070(5) -0.033(5) 0.001(4) 0.030(6)
N7 0.047(4) 0.147(9) 0.077(6) -0.015(6) 0.022(4) 0.019(5)
N8 0.122(11) 0.136(11) 0.127(11) 0.010(9) 0.033(9) 0.032(9)
N9 0.070(5) 0.114(7) 0.043(4) -0.017(4) 0.019(3) 0.012(5)
N10 0.065(4) 0.086(5) 0.051(4) 0.002(3) 0.016(3) 0.037(4)
N11 0.084(6) 0.127(8) 0.066(5) -0.020(5) 0.008(4) 0.041(6)
N12 0.066(5) 0.109(7) 0.068(5) 0.000(5) 0.013(4) 0.011(5)
C1 0.140(15) 0.145(15) 0.131(14) -0.009(12) 0.042(12) 0.009(13)
C2 0.17(2) 0.119(15) 0.23(3) 0.032(17) -0.06(2) -0.029(14)
C3 0.092(9) 0.140(13) 0.140(14) -0.043(11) 0.019(9) 0.018(9)
C4 0.081(7) 0.092(7) 0.072(6) -0.007(5) 0.016(5) 0.023(6)
C5 0.068(5) 0.101(7) 0.062(5) -0.003(5) -0.002(4) 0.045(5)
C6 0.057(5) 0.101(7) 0.077(6) -0.020(6) 0.001(4) 0.033(5)
C7 0.089(7) 0.095(7) 0.075(6) -0.017(6) -0.011(5) 0.050(6)
C8 0.089(8) 0.107(9) 0.100(9) -0.018(7) 0.013(7) 0.006(7)
C9 0.089(8) 0.094(8) 0.098(8) -0.022(7) 0.023(7) 0.016(6)
C10 0.108(9) 0.103(9) 0.082(7) -0.020(6) -0.004(7) 0.044(7)
C11 0.090(8) 0.131(11) 0.098(8) -0.028(8) 0.008(7) 0.048(8)
C12 0.196(19) 0.107(11) 0.129(13) 0.019(9) 0.091(13) 0.081(12)
C13 0.118(13) 0.19(2) 0.144(16) 0.028(16) 0.028(13) 0.049(14)
C14 0.076(7) 0.128(11) 0.111(10) -0.028(9) -0.005(7) 0.024(8)
C15 0.099(9) 0.130(11) 0.091(8) 0.010(8) 0.001(7) 0.061(8)
C16 0.074(6) 0.113(9) 0.071(6) 0.026(6) -0.001(5) 0.037(6)
C17 0.075(6) 0.101(7) 0.056(5) 0.003(5) 0.002(4) 0.045(6)
C18 0.070(6) 0.093(7) 0.064(5) 0.003(5) 0.004(4) 0.036(5)
C19 0.058(5) 0.103(8) 0.106(8) -0.053(7) 0.011(5) 0.026(5)
C20 0.054(5) 0.088(7) 0.127(10) -0.048(7) 0.019(6) 0.011(5)
C21 0.144(13) 0.101(9) 0.102(9) -0.003(7) 0.064(9) 0.034(9)
C22 0.095(8) 0.114(10) 0.093(8) -0.018(7) 0.017(7) 0.026(7)
Zn1E 0.0839 0.0609 0.0552 -0.0138 0.0113 0.0033
Zn1H 0.0839 0.0609 0.0552 -0.0138 0.0113 0.0033
N6G 0.128 0.144 0.07 0.034 0.033 0.098
N12D 0.109 0.153 0.068 0.013 0 0.098
loop_
_geom_bond_atom_site_label_1
_geom_bond_atom_site_label_2
_geom_bond_site_symmetry_1
_geom_bond_site_symmetry_2
Zn1 N1 1_555 1_555
N1 C1 1_555 1_555
N2 C2 1_555 1_555
N3 C5 1_555 1_555
N4 Zn1 1_555 1_555
N5 N4 1_555 1_555
N6 C9 1_555 1_555
N7 Zn1 1_555 1_555
N8 C13 1_555 1_555
N9 Zn1 1_555 1_555
N10 N9 1_555 1_555
N11 C16 1_555 1_555
N12 C20 1_555 1_555
C1 H1 1_555 1_555
C2 C1 1_555 1_555
H2 C2 1_555 1_555
C3 N2 1_555 1_555
H3 C3 1_555 1_555
C4 N1 1_555 1_555
C5 N4 1_555 1_555
C6 N3 1_555 1_555
C7 C6 1_555 1_555
C8 C7 1_555 1_555
H4 C8 1_555 1_555
C9 C8 1_555 1_555
H5 C9 1_555 1_555
C10 N6 1_555 1_555
H6 C10 1_555 1_555
C11 C7 1_555 1_555
H7 C11 1_555 1_555
C12 N7 1_555 1_555
H8 C12 1_555 1_555
C13 C12 1_555 1_555
H9 C13 1_555 1_555
C14 N8 1_555 1_555
H10 C14 1_555 1_555
C15 N7 1_555 1_555
C16 N9 1_555 1_555
C17 N10 1_555 1_555
C18 C17 1_555 1_555
C19 C18 1_555 1_555
H11 C19 1_555 1_555
C20 C19 1_555 1_555
H12 C20 1_555 1_555
C21 N12 1_555 1_555
H13 C21 1_555 1_555
C22 C18 1_555 1_555
H14 C22 1_555 1_555
Zn1E N6 1_555 1_555
Zn1H N12 1_555 1_555
N6G Zn1 1_555 1_555
N12D Zn1 1_555 1_555
N5 C6 1_555 1_555
N11 C17 1_555 1_555
C3 C4 1_555 1_555
C4 C5 1_555 1_555
C10 C11 1_555 1_555
C14 C15 1_555 1_555
C15 C16 1_555 1_555
C21 C22 1_555 1_555

#END
