
#######################################################################
#
#                 Cambridge Crystallographic Data Centre
#                                CCDC 
#
#######################################################################
#
# If this CIF has been generated from an entry in the Cambridge 
# Structural Database, then it will include bibliographic, chemical, 
# crystal, experimental, refinement or atomic coordinate data resulting 
# from the CCDC's data processing and validation procedures.
#
#######################################################################

data_EJIBOQ
_chemical_formula_moiety         '(C22 H14 Co1 N12)n'
_symmetry_cell_setting           rhombohedral
_symmetry_space_group_name_H-M   'R -3'
_symmetry_Int_Tables_number      148
_space_group_name_Hall           '-R 3'
loop_
_symmetry_equiv_pos_site_id
_symmetry_equiv_pos_as_xyz
1 x,y,z
2 -y,x-y,z
3 -x+y,-x,z
4 2/3+x,1/3+y,1/3+z
5 2/3-y,1/3+x-y,1/3+z
6 2/3-x+y,1/3-x,1/3+z
7 1/3+x,2/3+y,2/3+z
8 1/3-y,2/3+x-y,2/3+z
9 1/3-x+y,2/3-x,2/3+z
10 -x,-y,-z
11 y,-x+y,-z
12 x-y,x,-z
13 1/3-x,2/3-y,2/3-z
14 1/3+y,2/3-x+y,2/3-z
15 1/3+x-y,2/3+x,2/3-z
16 2/3-x,1/3-y,1/3-z
17 2/3+y,1/3-x+y,1/3-z
18 2/3+x-y,1/3+x,1/3-z
_cell_length_a                   27.720(5)
_cell_length_b                   27.720(5)
_cell_length_c                   8.840(3)
_cell_angle_alpha                90
_cell_angle_beta                 90
_cell_angle_gamma                120
_cell_volume                     5882.6
loop_
_atom_site_label
_atom_site_type_symbol
_atom_site_fract_x
_atom_site_fract_y
_atom_site_fract_z
_atom_site_U_iso_or_equiv
_atom_site_thermal_displace_type
Co1 Co 0.5000 0.5000 0.0000 0.0507 Uani
N1 N 0.75204(15) 0.62583(16) 0.5939(4) 0.0574 Uani
N2 N 0.55319(16) 0.56752(16) 0.4160(4) 0.0606 Uani
N3 N 0.53832(15) 0.52403(15) 0.1935(4) 0.0555 Uani
N4 N 0.58831(15) 0.53253(15) 0.2443(4) 0.0560 Uani
N5 N 0.44247(15) 0.51860(16) 0.1354(4) 0.0628 Uani
N6 N 0.3906(2) 0.5548(2) 0.3364(7) 0.1001 Uani
C1 C 0.7341(2) 0.5834(2) 0.4969(5) 0.0629 Uani
H1 H 0.7575 0.5694 0.4744 0.0750 Uiso
C2 C 0.68323(19) 0.55969(19) 0.4291(5) 0.0617 Uani
H2 H 0.6729 0.5304 0.3617 0.0740 Uiso
C3 C 0.64696(18) 0.57885(18) 0.4600(4) 0.0528 Uani
C4 C 0.6644(2) 0.6211(2) 0.5654(5) 0.0661 Uani
H3 H 0.6408 0.6345 0.5933 0.0790 Uiso
C5 C 0.7163(2) 0.6434(2) 0.6291(5) 0.0703 Uani
H4 H 0.7272 0.6718 0.6997 0.0840 Uiso
C6 C 0.59542(18) 0.55883(17) 0.3760(4) 0.0534 Uani
C7 C 0.51885(18) 0.54481(17) 0.2978(5) 0.0541 Uani
C8 C 0.46576(18) 0.54129(19) 0.2692(5) 0.0590 Uani
C9 C 0.4393(2) 0.5582(2) 0.3689(6) 0.0790 Uani
H5 H 0.4558 0.5726 0.4622 0.0950 Uiso
C10 C 0.3688(3) 0.5326(3) 0.2049(8) 0.0982 Uani
H6 H 0.3347 0.5291 0.1783 0.1180 Uiso
C11 C 0.3935(2) 0.5145(2) 0.1065(7) 0.0831 Uani
H7 H 0.3757 0.4986 0.0156 0.0990 Uiso
N1I N 0.24796(15) 0.37417(16) -0.5939(4) 0.0574 Uani
N2I N 0.44681(16) 0.43248(16) -0.4160(4) 0.0606 Uani
N3I N 0.46168(15) 0.47597(15) -0.1935(4) 0.0555 Uani
N4I N 0.41169(15) 0.46747(15) -0.2443(4) 0.0560 Uani
N5I N 0.55753(15) 0.48140(16) -0.1354(4) 0.0628 Uani
N6I N 0.6094(2) 0.4452(2) -0.3364(7) 0.1001 Uani
C1I C 0.2659(2) 0.4166(2) -0.4969(5) 0.0629 Uani
H1I H 0.2425 0.4306 -0.4744 0.0750 Uiso
C2I C 0.31677(19) 0.44031(19) -0.4291(5) 0.0617 Uani
H2I H 0.3271 0.4696 -0.3617 0.0740 Uiso
C3I C 0.35304(18) 0.42115(18) -0.4600(4) 0.0528 Uani
C4I C 0.3356(2) 0.3789(2) -0.5654(5) 0.0661 Uani
H3I H 0.3592 0.3655 -0.5933 0.0790 Uiso
C5I C 0.2837(2) 0.3566(2) -0.6291(5) 0.0703 Uani
H4I H 0.2728 0.3282 -0.6997 0.0840 Uiso
C6I C 0.40458(18) 0.44117(17) -0.3760(4) 0.0534 Uani
C7I C 0.48115(18) 0.45519(17) -0.2978(5) 0.0541 Uani
C8I C 0.53424(18) 0.45871(19) -0.2692(5) 0.0590 Uani
C9I C 0.5607(2) 0.4418(2) -0.3689(6) 0.0790 Uani
H5I H 0.5442 0.4274 -0.4622 0.0950 Uiso
C10I C 0.6312(3) 0.4674(3) -0.2049(8) 0.0982 Uani
H6I H 0.6653 0.4709 -0.1783 0.1180 Uiso
C11I C 0.6065(2) 0.4855(2) -0.1065(7) 0.0831 Uani
H7I H 0.6243 0.5014 -0.0156 0.0990 Uiso
Co1D Co 0.1667 0.3333 -0.6667 0.0507 Uani
Co1G Co 0.8333 0.6667 0.6667 0.0507 Uani
N1E N 0.54046(22) 0.58129(15) -0.0728(4) 0.0574 Uani
N1N N 0.45954(22) 0.41871(15) 0.0728(4) 0.0574 Uani
loop_
_atom_site_aniso_label
_atom_site_aniso_U_11
_atom_site_aniso_U_22
_atom_site_aniso_U_33
_atom_site_aniso_U_23
_atom_site_aniso_U_13
_atom_site_aniso_U_12
Co1 0.0501(5) 0.0475(5) 0.0438(5) 0.0035(3) -0.0090(3) 0.0164(4)
N1 0.061(2) 0.069(2) 0.0483(19) -0.0121(18) -0.0046(17) 0.037(2)
N2 0.059(2) 0.064(2) 0.051(2) -0.0044(18) -0.0032(18) 0.025(2)
N3 0.053(2) 0.053(2) 0.0495(19) 0.0005(17) -0.0046(17) 0.0183(18)
N4 0.054(2) 0.056(2) 0.0477(19) -0.0004(17) -0.0087(17) 0.0197(18)
N5 0.052(2) 0.061(2) 0.062(2) 0.0028(19) -0.0110(18) 0.0181(19)
N6 0.076(3) 0.121(4) 0.107(4) -0.009(3) 0.007(3) 0.052(3)
C1 0.063(3) 0.064(3) 0.062(3) -0.017(2) -0.003(2) 0.032(2)
C2 0.061(3) 0.060(3) 0.057(3) -0.016(2) -0.008(2) 0.025(2)
C3 0.055(3) 0.054(3) 0.045(2) 0.002(2) 0.001(2) 0.024(2)
C4 0.070(3) 0.084(3) 0.057(3) -0.018(2) -0.015(2) 0.048(3)
C5 0.069(3) 0.085(4) 0.063(3) -0.028(3) -0.017(2) 0.043(3)
C6 0.058(3) 0.047(2) 0.043(2) 0.0002(19) -0.008(2) 0.017(2)
C7 0.053(3) 0.051(3) 0.045(2) 0.002(2) -0.003(2) 0.016(2)
C8 0.051(3) 0.057(3) 0.057(3) 0.005(2) -0.001(2) 0.018(2)
C9 0.065(3) 0.087(4) 0.077(3) -0.006(3) 0.002(3) 0.032(3)
C10 0.067(4) 0.119(5) 0.108(5) -0.008(4) -0.010(4) 0.046(4)
C11 0.063(3) 0.091(4) 0.084(4) -0.001(3) -0.015(3) 0.030(3)
N1I 0.061 0.069 0.0483 -0.0121 -0.0046 0.037
N2I 0.059 0.064 0.051 -0.0044 -0.0032 0.025
N3I 0.053 0.053 0.0495 0.0005 -0.0046 0.0183
N4I 0.054 0.056 0.0477 -0.0004 -0.0087 0.0197
N5I 0.052 0.061 0.062 0.0028 -0.011 0.0181
N6I 0.076 0.121 0.107 -0.009 0.007 0.052
C1I 0.063 0.064 0.062 -0.017 -0.003 0.032
C2I 0.061 0.06 0.057 -0.016 -0.008 0.025
C3I 0.055 0.054 0.045 0.002 0.001 0.024
C4I 0.07 0.084 0.057 -0.018 -0.015 0.048
C5I 0.069 0.085 0.063 -0.028 -0.017 0.043
C6I 0.058 0.047 0.043 0.0002 -0.008 0.017
C7I 0.053 0.051 0.045 0.002 -0.003 0.016
C8I 0.051 0.057 0.057 0.005 -0.001 0.018
C9I 0.065 0.087 0.077 -0.006 0.002 0.032
C10I 0.067 0.119 0.108 -0.008 -0.01 0.046
C11I 0.063 0.091 0.084 -0.001 -0.015 0.03
Co1D 0.0475 0.0648 0.0438 -0.0125 -0.0035 0.0311
Co1G 0.0475 0.0648 0.0438 -0.0125 -0.0035 0.0311
N1E 0.056 0.061 0.0483 0.0046 -0.0075 0.024
N1N 0.056 0.061 0.0483 0.0046 -0.0075 0.024
loop_
_geom_bond_atom_site_label_1
_geom_bond_atom_site_label_2
_geom_bond_site_symmetry_1
_geom_bond_site_symmetry_2
Co1 N3 1_555 1_555
N1 C1 1_555 1_555
N2 C6 1_555 1_555
N3 N4 1_555 1_555
N4 C6 1_555 1_555
N5 Co1 1_555 1_555
N6 C9 1_555 1_555
C1 H1 1_555 1_555
C2 C1 1_555 1_555
H2 C2 1_555 1_555
C3 C2 1_555 1_555
C4 C3 1_555 1_555
H3 C4 1_555 1_555
C5 N1 1_555 1_555
H4 C5 1_555 1_555
C6 C3 1_555 1_555
C7 N2 1_555 1_555
C8 N5 1_555 1_555
C9 C8 1_555 1_555
H5 C9 1_555 1_555
C10 N6 1_555 1_555
H6 C10 1_555 1_555
C11 N5 1_555 1_555
H7 C11 1_555 1_555
N1I C1I 1_555 1_555
N2I C6I 1_555 1_555
N3I Co1 1_555 1_555
N4I N3I 1_555 1_555
N5I Co1 1_555 1_555
N6I C9I 1_555 1_555
C1I H1I 1_555 1_555
C2I C1I 1_555 1_555
H2I C2I 1_555 1_555
C3I C2I 1_555 1_555
C4I C3I 1_555 1_555
H3I C4I 1_555 1_555
C5I N1I 1_555 1_555
H4I C5I 1_555 1_555
C6I N4I 1_555 1_555
C7I N2I 1_555 1_555
C8I N5I 1_555 1_555
C9I C8I 1_555 1_555
H5I C9I 1_555 1_555
C10I N6I 1_555 1_555
H6I C10I 1_555 1_555
C11I N5I 1_555 1_555
H7I C11I 1_555 1_555
Co1D N1I 1_555 1_555
Co1G N1 1_555 1_555
N1E Co1 1_555 1_555
N1N Co1 1_555 1_555
N3 C7 1_555 1_555
C4 C5 1_555 1_555
C7 C8 1_555 1_555
C10 C11 1_555 1_555
N3I C7I 1_555 1_555
C3I C6I 1_555 1_555
C4I C5I 1_555 1_555
C7I C8I 1_555 1_555
C10I C11I 1_555 1_555

#END
