
#######################################################################
#
#                 Cambridge Crystallographic Data Centre
#                                CCDC 
#
#######################################################################
#
# If this CIF has been generated from an entry in the Cambridge 
# Structural Database, then it will include bibliographic, chemical, 
# crystal, experimental, refinement or atomic coordinate data resulting 
# from the CCDC's data processing and validation procedures.
#
#######################################################################

data_QOHTOX
_chemical_formula_moiety         '(C21 H23 Co1 N3 O6)n'
_symmetry_cell_setting           orthorhombic
_symmetry_space_group_name_H-M   'P b c a'
_symmetry_Int_Tables_number      61
_space_group_name_Hall           '-P 2ac 2ab'
loop_
_symmetry_equiv_pos_site_id
_symmetry_equiv_pos_as_xyz
1 x,y,z
2 1/2-x,-y,1/2+z
3 -x,1/2+y,1/2-z
4 1/2+x,1/2-y,-z
5 -x,-y,-z
6 1/2+x,y,1/2-z
7 x,1/2-y,1/2+z
8 1/2-x,1/2+y,z
_cell_length_a                   13.7170(6)
_cell_length_b                   14.7878(6)
_cell_length_c                   21.0282(8)
_cell_angle_alpha                90
_cell_angle_beta                 90
_cell_angle_gamma                90
_cell_volume                     4265.45
loop_
_atom_site_label
_atom_site_type_symbol
_atom_site_fract_x
_atom_site_fract_y
_atom_site_fract_z
Co1 Co 0.46908(4) 0.09976(4) 0.43806(3)
N1 N 0.6257(3) 0.1025(2) 0.44423(16)
C1 C 0.6821(3) 0.0614(3) 0.4004(2)
H1 H 0.6511 0.0323 0.3662
C2 C 0.7818(3) 0.0594(3) 0.4027(2)
H2 H 0.8172 0.0293 0.3708
C3 C 0.8309(3) 0.1022(3) 0.4525(2)
C4 C 0.7736(3) 0.1453(3) 0.4977(2)
H3 H 0.8028 0.1750 0.5323
C5 C 0.6738(3) 0.1443(3) 0.4914(2)
H4 H 0.6368 0.1749 0.5223
N2 N 1.3121(3) 0.0904(2) 0.43388(17)
C6 C 1.2678(3) 0.0521(3) 0.3839(2)
H5 H 1.3070 0.0284 0.3512
C7 C 1.1683(3) 0.0453(3) 0.3777(2)
H6 H 1.1412 0.0179 0.3414
C8 C 1.1076(3) 0.0789(3) 0.4252(2)
C9 C 1.1533(3) 0.1179(3) 0.4773(2)
H7 H 1.1160 0.1417 0.5109
C10 C 1.2534(3) 0.1217(3) 0.4797(2)
H8 H 1.2824 0.1478 0.5158
C11 C 0.9366(3) 0.1053(3) 0.4595(2)
H9 H 0.9611 0.1325 0.4966
C12 C 1.0019(3) 0.0731(3) 0.4181(2)
H10 H 0.9779 0.0444 0.3815
O1 O 0.4741(2) 0.1477(2) 0.34240(15)
O2 O 0.4705(3) 0.2511(2) 0.41648(15)
C13 C 0.4736(3) 0.2306(3) 0.3588(2)
C14 C 0.4783(3) 0.3017(3) 0.3096(2)
H11 H 0.4829 0.3623 0.3226
C15 C 0.4764(3) 0.2837(3) 0.2473(2)
H12 H 0.4697 0.2229 0.2351
O3 O 0.4556(2) 0.3729(2) 0.03115(15)
O4 O 0.5265(2) 0.4721(2) 0.09688(14)
C16 C 0.4882(3) 0.3980(3) 0.0841(2)
C17 C 0.4795(4) 0.3302(3) 0.1363(2)
H13 H 0.4705 0.2693 0.1249
C18 C 0.4838(3) 0.3503(3) 0.1974(2)
H14 H 0.4921 0.4112 0.2090
Co1_2 Co 1.46908(4) 0.09976(4) 0.43806(3)
Co1F Co 0.46908(4) 0.40024(4) -0.06194(3)
Co1B Co 0.53092(4) 0.59976(4) 0.06194(3)
N2_2 N 0.3121(3) 0.0904(2) 0.43388(17)
O3F O 0.4556(2) 0.1271(2) 0.53115(15)
O4B O 0.4735(2) -0.0279(2) 0.40312(14)
O5 O 0.4421(4) 0.0473(3) 0.23215(19)
H15 H 0.458(6) 0.087(5) 0.265(3)
H16 H 0.387(5) 0.012(5) 0.228(3)
O6 O 0.2326(4) 0.0541(3) 0.7392(2)
C19 C 0.2310(5) 0.1326(7) 0.7520(5)
H17 H 0.2320 0.1389 0.7964
N3 N 0.2286(4) 0.2050(4) 0.7288(4)
C20 C 0.2256(7) 0.1995(7) 0.6543(4)
H18 H 0.2736 0.2406 0.6366
H19 H 0.1612 0.2163 0.6394
H20 H 0.2402 0.1383 0.6409
C21 C 0.2238(5) 0.2970(5) 0.7470(4)
H21 H 0.1624 0.3226 0.7330
H22 H 0.2773 0.3299 0.7276
H23 H 0.2286 0.3015 0.7929
loop_
_geom_bond_atom_site_label_1
_geom_bond_atom_site_label_2
_geom_bond_site_symmetry_1
_geom_bond_site_symmetry_2
Co1 N1 1_555 1_555
N1 C1 1_555 1_555
C1 H1 1_555 1_555
C2 C1 1_555 1_555
H2 C2 1_555 1_555
C3 C2 1_555 1_555
C4 C3 1_555 1_555
H3 C4 1_555 1_555
C5 N1 1_555 1_555
H4 C5 1_555 1_555
N2 C6 1_555 1_555
C6 H5 1_555 1_555
C7 C6 1_555 1_555
H6 C7 1_555 1_555
C8 C7 1_555 1_555
C9 C8 1_555 1_555
H7 C9 1_555 1_555
C10 N2 1_555 1_555
H8 C10 1_555 1_555
C11 C3 1_555 1_555
H9 C11 1_555 1_555
C12 C8 1_555 1_555
H10 C12 1_555 1_555
O1 Co1 1_555 1_555
O2 Co1 1_555 1_555
C13 O1 1_555 1_555
C14 C13 1_555 1_555
H11 C14 1_555 1_555
C15 C14 1_555 1_555
H12 C15 1_555 1_555
O3 C16 1_555 1_555
O4 C16 1_555 1_555
C16 C17 1_555 1_555
C17 H13 1_555 1_555
C18 C15 1_555 1_555
H14 C18 1_555 1_555
O5 H15 1_555 1_555
H16 O5 1_555 1_555
O6 C19 1_555 1_555
C19 H17 1_555 1_555
N3 C19 1_555 1_555
C20 N3 1_555 1_555
H18 C20 1_555 1_555
H19 C20 1_555 1_555
H20 C20 1_555 1_555
C21 N3 1_555 1_555
H21 C21 1_555 1_555
H22 C21 1_555 1_555
H23 C21 1_555 1_555
Co1_2 N2 1_555 1_555
Co1F O3 1_555 1_555
Co1B O4 1_555 1_555
N2_2 Co1 1_555 1_555
O3F Co1 1_555 1_555
O4B Co1 1_555 1_555
C4 C5 1_555 1_555
C9 C10 1_555 1_555
C11 C12 1_555 1_555
O2 C13 1_555 1_555
C17 C18 1_555 1_555

#END
