
#######################################################################
#
#                 Cambridge Crystallographic Data Centre
#                                CCDC 
#
#######################################################################
#
# If this CIF has been generated from an entry in the Cambridge 
# Structural Database, then it will include bibliographic, chemical, 
# crystal, experimental, refinement or atomic coordinate data resulting 
# from the CCDC's data processing and validation procedures.
#
#######################################################################

data_QOHTUD
_chemical_formula_moiety         '(C36 H46 Co2 N4 O17)n'
_symmetry_cell_setting           monoclinic
_symmetry_space_group_name_H-M   'C 2/c'
_symmetry_Int_Tables_number      15
_space_group_name_Hall           '-C 2yc'
loop_
_symmetry_equiv_pos_site_id
_symmetry_equiv_pos_as_xyz
1 x,y,z
2 1/2+x,1/2+y,z
3 -x,y,1/2-z
4 1/2-x,1/2+y,1/2-z
5 -x,-y,-z
6 1/2-x,1/2-y,-z
7 x,-y,1/2+z
8 1/2+x,1/2-y,1/2+z
_cell_length_a                   37.552(3)
_cell_length_b                   13.1257(9)
_cell_length_c                   9.4044(6)
_cell_angle_alpha                90
_cell_angle_beta                 103.218(2)
_cell_angle_gamma                90
_cell_volume                     4512.59
loop_
_atom_site_label
_atom_site_type_symbol
_atom_site_fract_x
_atom_site_fract_y
_atom_site_fract_z
Co1 Co 0.637488(9) 0.78039(2) -0.17572(4)
N1 N 0.66862(6) 0.77454(16) 0.0418(2)
C1 C 0.65386(8) 0.7892(2) 0.1576(3)
H1 H 0.6288 0.8042 0.1407
C2 C 0.67367(8) 0.7834(2) 0.2992(3)
H2 H 0.6621 0.7943 0.3765
C3 C 0.71093(8) 0.76133(19) 0.3288(3)
C4 C 0.72614(7) 0.74580(19) 0.2069(3)
H3 H 0.7511 0.7306 0.2202
C5 C 0.70444(7) 0.7529(2) 0.0694(3)
H4 H 0.7152 0.7420 -0.0103
N2 N 0.59595(6) 0.68601(18) -0.1211(3)
C6 C 0.56239(8) 0.7189(2) -0.1226(4)
H5 H 0.5565 0.7868 -0.1504
C7 C 0.53587(8) 0.6591(3) -0.0857(4)
H6 H 0.5127 0.6866 -0.0876
C8 C 0.54318(9) 0.5588(3) -0.0459(5)
C9 C 0.57775(10) 0.5244(3) -0.0460(7)
H7 H 0.5841 0.4564 -0.0213
C10 C 0.60304(9) 0.5892(3) -0.0819(6)
H8 H 0.6266 0.5639 -0.0786
C11 C 0.73206(8) 0.7564(2) 0.4792(3)
H9 H 0.7191 0.7628 0.5532
C12 C 0.51672(9) 0.4888(3) -0.0041(6)
H10 H 0.5246 0.4215 0.0191
O1 O 0.67813(5) 0.87054(14) -0.2312(2)
O2 O 0.64740(5) 0.94206(15) -0.4385(2)
C13 C 0.67597(7) 0.92878(19) -0.3392(3)
C14 C 0.70944(7) 0.98436(19) -0.3538(3)
H11 H 0.7092 1.0189 -0.4415
C15 C 0.73974(7) 0.98712(19) -0.2473(3)
H12 H 0.7396 0.9516 -0.1606
O3 O 0.83368(5) 1.15509(14) -0.2794(2)
O4 O 0.85737(6) 1.13247(16) -0.0402(2)
C16 C 0.83358(7) 1.1165(2) -0.1565(3)
C17 C 0.80193(8) 1.0509(2) -0.1468(3)
H13 H 0.8027 1.0149 -0.0598
C18 C 0.77270(7) 1.04098(19) -0.2562(3)
H14 H 0.7735 1.0713 -0.3459
O5 O 0.60511(5) 0.78899(14) -0.3972(2)
H15 H 0.6144(7) 0.8426(13) -0.436(2)
H16 H 0.6127(8) 0.7363(13) -0.444(2)
O6 O 0.61160(5) 0.91777(14) -0.1259(2)
H17 H 0.6293(5) 0.9572(14) -0.074(3)
H18 H 0.6040(8) 0.9528(15) -0.2088(14)
Co1E Co 0.862512(9) 0.71961(2) 1.17572(4)
Co1C Co 0.862512(9) 1.28039(2) -0.32428(4)
Co1D Co 0.362512(9) 0.21961(2) 0.17572(4)
Co1C_2 Co 0.862512(9) 0.28039(2) -0.32428(4)
N1E N 0.83138(6) 0.72546(16) 0.9582(2)
C1E C 0.84614(8) 0.7108(2) 0.8424(3)
H1E H 0.8712 0.6958 0.8593
C2E C 0.82633(8) 0.7166(2) 0.7008(3)
H2E H 0.8379 0.7057 0.6235
C3E C 0.78907(8) 0.73867(19) 0.6712(3)
C4E C 0.77386(7) 0.75420(19) 0.7931(3)
H3E H 0.7489 0.7694 0.7798
C5E C 0.79556(7) 0.7471(2) 0.9306(3)
H4E H 0.7848 0.7580 1.0103
N2D N 0.40405(6) 0.31399(18) 0.1211(3)
N2E N 0.90405(6) 0.81399(18) 1.1211(3)
C6D C 0.43761(8) 0.2811(2) 0.1226(4)
H5D H 0.4435 0.2132 0.1504
C7D C 0.46413(8) 0.3409(3) 0.0857(4)
H6D H 0.4873 0.3134 0.0876
C8D C 0.45682(9) 0.4412(3) 0.0459(5)
C9D C 0.42225(10) 0.4756(3) 0.0460(7)
H7D H 0.4159 0.5436 0.0213
C10D C 0.39696(9) 0.4108(3) 0.0819(6)
H8D H 0.3734 0.4361 0.0786
C11E C 0.76794(8) 0.7436(2) 0.5208(3)
H9E H 0.7809 0.7372 0.4468
C12D C 0.48328(9) 0.5112(3) 0.0041(6)
H10D H 0.4754 0.5785 -0.0191
O1C O 0.82187(5) 0.37054(14) -0.2688(2)
O1E O 0.82187(5) 0.62946(14) 1.2312(2)
O2C O 0.85260(5) 0.44206(15) -0.0615(2)
C13C C 0.82403(7) 0.42878(19) -0.1608(3)
C14C C 0.79056(7) 0.48436(19) -0.1462(3)
H11C H 0.7908 0.5189 -0.0585
C15C C 0.76026(7) 0.48712(19) -0.2527(3)
H12C H 0.7604 0.4516 -0.3394
O3C O 0.66632(5) 0.65509(14) -0.2206(2)
O3F O 0.83368(5) 0.84491(14) 1.2206(2)
O4C O 0.64263(6) 0.63247(16) -0.4598(2)
C16C C 0.66642(7) 0.6165(2) -0.3435(3)
C17C C 0.69807(8) 0.5509(2) -0.3532(3)
H13C H 0.6973 0.5149 -0.4402
C18C C 0.72730(7) 0.54098(19) -0.2438(3)
H14C H 0.7265 0.5713 -0.1541
O5E O 0.89489(5) 0.71101(14) 1.3972(2)
H15E H 0.8856(7) 0.6574(13) 1.436(2)
H16E H 0.8873(8) 0.7637(13) 1.444(2)
O6E O 0.88840(5) 0.58223(14) 1.1259(2)
H17E H 0.8707(5) 0.5428(14) 1.074(3)
H18E H 0.8960(8) 0.5472(15) 1.2088(14)
O7 O 0.57398(8) 1.0386(2) -0.3610(4)
O8 O 0.53042(16) 0.8392(7) -0.4711(8)
H19 H 0.5537(7) 0.826(6) -0.425(6)
H20 H 0.5219(16) 0.872(6) -0.401(5)
O12 O 0.4993(5) 0.9630(13) -0.1035(19)
O13 O 0.6064(4) 0.3987(13) -0.2519(17)
O14 O 0.4322(8) 0.749(2) -0.742(3)
loop_
_geom_bond_atom_site_label_1
_geom_bond_atom_site_label_2
_geom_bond_site_symmetry_1
_geom_bond_site_symmetry_2
Co1 N1 1_555 1_555
N1 C1 1_555 1_555
C1 H1 1_555 1_555
C2 C1 1_555 1_555
H2 C2 1_555 1_555
C3 C2 1_555 1_555
C4 C3 1_555 1_555
H3 C4 1_555 1_555
C5 N1 1_555 1_555
H4 C5 1_555 1_555
N2 Co1 1_555 1_555
C6 N2 1_555 1_555
H5 C6 1_555 1_555
C7 C6 1_555 1_555
H6 C7 1_555 1_555
C8 C7 1_555 1_555
C9 C8 1_555 1_555
H7 C9 1_555 1_555
C10 N2 1_555 1_555
H8 C10 1_555 1_555
C11 C3 1_555 1_555
H9 C11 1_555 1_555
C12 C8 1_555 1_555
H10 C12 1_555 1_555
O1 Co1 1_555 1_555
O2 C13 1_555 1_555
C13 O1 1_555 1_555
C14 C13 1_555 1_555
H11 C14 1_555 1_555
C15 C14 1_555 1_555
H12 C15 1_555 1_555
O3 C16 1_555 1_555
O4 C16 1_555 1_555
C16 C17 1_555 1_555
C17 H13 1_555 1_555
C18 C15 1_555 1_555
H14 C18 1_555 1_555
O5 Co1 1_555 1_555
H15 O5 1_555 1_555
H16 O5 1_555 1_555
O6 Co1 1_555 1_555
H17 O6 1_555 1_555
H18 O6 1_555 1_555
O8 H19 1_555 1_555
H20 O8 1_555 1_555
Co1E N1E 1_555 1_555
Co1C O3 1_555 1_555
Co1D N2D 1_555 1_555
Co1C_2 O1C 1_555 1_555
N1E C1E 1_555 1_555
C1E H1E 1_555 1_555
C2E C1E 1_555 1_555
H2E C2E 1_555 1_555
C3E C2E 1_555 1_555
C4E C3E 1_555 1_555
H3E C4E 1_555 1_555
C5E N1E 1_555 1_555
H4E C5E 1_555 1_555
N2D C6D 1_555 1_555
N2E Co1E 1_555 1_555
C6D H5D 1_555 1_555
C7D C6D 1_555 1_555
H6D C7D 1_555 1_555
C8D C7D 1_555 1_555
C9D C8D 1_555 1_555
H7D C9D 1_555 1_555
C10D N2D 1_555 1_555
H8D C10D 1_555 1_555
C11E C11 1_555 1_555
H9E C11E 1_555 1_555
C12D C12 1_555 1_555
H10D C12D 1_555 1_555
O1C C13C 1_555 1_555
O1E Co1E 1_555 1_555
O2C C13C 1_555 1_555
C13C C14C 1_555 1_555
C14C H11C 1_555 1_555
C15C C14C 1_555 1_555
H12C C15C 1_555 1_555
O3C Co1 1_555 1_555
O3F Co1E 1_555 1_555
O4C C16C 1_555 1_555
C16C O3C 1_555 1_555
C17C C16C 1_555 1_555
H13C C17C 1_555 1_555
C18C C15C 1_555 1_555
H14C C18C 1_555 1_555
O5E Co1E 1_555 1_555
H15E O5E 1_555 1_555
H16E O5E 1_555 1_555
O6E Co1E 1_555 1_555
H17E O6E 1_555 1_555
H18E O6E 1_555 1_555
C4 C5 1_555 1_555
C9 C10 1_555 1_555
C17 C18 1_555 1_555
C3E C11E 1_555 1_555
C4E C5E 1_555 1_555
C8D C12D 1_555 1_555
C9D C10D 1_555 1_555
C17C C18C 1_555 1_555

#END
