
#######################################################################
#
#                 Cambridge Crystallographic Data Centre
#                                CCDC 
#
#######################################################################
#
# If this CIF has been generated from an entry in the Cambridge 
# Structural Database, then it will include bibliographic, chemical, 
# crystal, experimental, refinement or atomic coordinate data resulting 
# from the CCDC's data processing and validation procedures.
#
#######################################################################

data_PAQMAY
_chemical_formula_moiety         'C39 H15 N7 O33 Tb10'
_symmetry_cell_setting           tetragonal
_symmetry_space_group_name_H-M   'I 4/m c m'
_symmetry_Int_Tables_number      140
_space_group_name_Hall           '-I 4 2c'
loop_
_symmetry_equiv_pos_site_id
_symmetry_equiv_pos_as_xyz
1 x,y,z
2 -x,-y,z
3 -y,x,z
4 y,-x,z
5 -x,y,1/2-z
6 x,-y,1/2-z
7 y,x,1/2-z
8 -y,-x,1/2-z
9 1/2+x,1/2+y,1/2+z
10 1/2-x,1/2-y,1/2+z
11 1/2-y,1/2+x,1/2+z
12 1/2+y,1/2-x,1/2+z
13 1/2-x,1/2+y,-z
14 1/2+x,1/2-y,-z
15 1/2+y,1/2+x,-z
16 1/2-y,1/2-x,-z
17 -x,-y,-z
18 x,y,-z
19 y,-x,-z
20 -y,x,-z
21 x,-y,1/2+z
22 -x,y,1/2+z
23 -y,-x,1/2+z
24 y,x,1/2+z
25 1/2-x,1/2-y,1/2-z
26 1/2+x,1/2+y,1/2-z
27 1/2+y,1/2-x,1/2-z
28 1/2-y,1/2+x,1/2-z
29 1/2+x,1/2-y,z
30 1/2-x,1/2+y,z
31 1/2-y,1/2-x,z
32 1/2+y,1/2+x,z
_cell_length_a                   35.963(4)
_cell_length_b                   35.963(4)
_cell_length_c                   31.900(8)
_cell_angle_alpha                90
_cell_angle_beta                 90
_cell_angle_gamma                90
_cell_volume                     41257.5
loop_
_atom_site_label
_atom_site_type_symbol
_atom_site_fract_x
_atom_site_fract_y
_atom_site_fract_z
_atom_site_U_iso_or_equiv
_atom_site_thermal_displace_type
Tb1 Tb 0.28721(2) 0.21279(2) 0.22453(2) 0.0167 Uani
Tb2 Tb 0.20283(2) 0.12728(2) 0.0000 0.0266 Uani
Tb3 Tb 0.08058(2) 0.12699(2) 0.0000 0.0623 Uani
O1 O 0.28726(12) 0.15382(11) 0.19726(13) 0.0316 Uani
O2 O 0.29765(15) 0.10994(12) 0.24460(14) 0.0400 Uani
O3 O 0.25007(16) 0.12244(15) 0.05283(17) 0.0513 Uani
O4 O 0.21087(18) 0.07532(14) 0.04879(17) 0.0543 Uani
O5 O 0.21085(13) -0.23252(12) 0.18331(15) 0.0373 Uani
O6 O 0.24478(13) -0.19730(14) 0.22550(15) 0.0400 Uani
O7 O 0.15687(18) -0.17307(15) 0.05479(17) 0.0567 Uani
O8 O 0.1621(2) -0.11212(18) 0.0472(2) 0.0787 Uani
O9 O 0.32370(11) 0.17630(11) 0.27574(18) 0.0293 Uani
O10 O 0.1434(2) 0.0979(2) 0.0000 0.0500 Uani
O11 O 0.2312(3) 0.1861(3) 0.0000 0.0813 Uani
O12 O 0.0450(3) 0.1802(3) 0.0000 0.0700 Uiso
C1 C 0.0636(5) 0.2099(4) 0.0000 0.0700 Uiso
H1 H 0.0894 0.2100 0.0000 0.0840 Uiso
N1 N 0.0429(8) 0.2423(3) 0.0000 0.0700 Uiso
C2 C 0.0014(7) 0.2377(8) 0.0000 0.0700 Uiso
C3 C 0.0660(12) 0.2779(4) 0.0000 0.0700 Uiso
O13 O 0.0271(2) 0.1021(4) -0.0384(3) 0.0700 Uiso
O14 O 0.0845(8) 0.1165(4) 0.07577(7) 0.0700 Uiso
O15 O 0.1010(5) 0.06198(17) 0.0000 0.0700 Uiso
N2 N 0.2767(2) -0.02556(15) 0.2002(2) 0.0517 Uani
N3 N 0.2676(2) -0.06208(15) 0.19723(19) 0.0500 Uani
H2 H 0.2752 -0.0792 0.2140 0.0600 Uiso
N4 N 0.2389(2) -0.03570(14) 0.1444(2) 0.0490 Uani
C4 C 0.28755(16) 0.12037(15) 0.20890(18) 0.0270 Uani
C5 C 0.27516(18) 0.09215(15) 0.17733(19) 0.0307 Uani
C6 C 0.2634(2) 0.10414(16) 0.1382(2) 0.0360 Uani
H3 H 0.2649 0.1292 0.1314 0.0430 Uiso
C7 C 0.2494(2) 0.07915(16) 0.1090(2) 0.0377 Uani
C8 C 0.2477(2) 0.04139(18) 0.1195(2) 0.0453 Uani
H4 H 0.2378 0.0245 0.1004 0.0540 Uiso
C9 C 0.2605(2) 0.02899(16) 0.1574(2) 0.0413 Uani
C10 C 0.2742(2) 0.05456(16) 0.18679(19) 0.0360 Uani
H5 H 0.2827 0.0463 0.2127 0.0430 Uiso
C11 C 0.2590(2) -0.01119(17) 0.1675(2) 0.0440 Uani
C12 C 0.2450(2) -0.06762(18) 0.1643(2) 0.0460 Uani
C13 C 0.2364(2) 0.09261(17) 0.0673(2) 0.0377 Uani
C14 C 0.22539(16) -0.20236(16) 0.19331(19) 0.0290 Uani
C15 C 0.21909(18) -0.16906(16) 0.16566(19) 0.0303 Uani
C16 C 0.2348(2) -0.13499(16) 0.1772(2) 0.0370 Uani
H6 H 0.2493 -0.1333 0.2012 0.0440 Uiso
C17 C 0.2286(2) -0.10388(17) 0.1526(2) 0.0403 Uani
C18 C 0.2072(2) -0.10611(18) 0.1170(2) 0.0463 Uani
H7 H 0.2031 -0.0850 0.1009 0.0560 Uiso
C19 C 0.1918(2) -0.13975(18) 0.1050(2) 0.0403 Uani
C20 C 0.19735(19) -0.17134(17) 0.1298(2) 0.0350 Uani
H8 H 0.1865 -0.1938 0.1223 0.0420 Uiso
C21 C 0.1684(2) -0.1417(2) 0.0655(2) 0.0467 Uani
O1B O -0.15382(11) 0.28726(12) 0.19726(13) 0.0316 Uani
O2B O -0.10994(12) 0.29765(15) 0.24460(14) 0.0400 Uani
O3B O -0.12244(15) 0.25007(16) 0.05283(17) 0.0513 Uani
O4B O -0.07532(14) 0.21087(18) 0.04879(17) 0.0543 Uani
O5B O 0.23252(12) 0.21085(13) 0.18331(15) 0.0373 Uani
O6B O 0.19730(14) 0.24478(13) 0.22550(15) 0.0400 Uani
O7B O 0.17307(15) 0.15687(18) 0.05479(17) 0.0567 Uani
O8B O 0.11212(18) 0.1621(2) 0.0472(2) 0.0787 Uani
N2B N 0.02556(15) 0.2767(2) 0.2002(2) 0.0517 Uani
N3B N 0.06208(15) 0.2676(2) 0.19723(19) 0.0500 Uani
H2B H 0.0792 0.2752 0.2140 0.0600 Uiso
N4B N 0.03570(14) 0.2389(2) 0.1444(2) 0.0490 Uani
C4B C -0.12037(15) 0.28755(16) 0.20890(18) 0.0270 Uani
C5B C -0.09215(15) 0.27516(18) 0.17733(19) 0.0307 Uani
C6B C -0.10414(16) 0.2634(2) 0.1382(2) 0.0360 Uani
H3B H -0.1292 0.2649 0.1314 0.0430 Uiso
C7B C -0.07915(16) 0.2494(2) 0.1090(2) 0.0377 Uani
C8B C -0.04139(18) 0.2477(2) 0.1195(2) 0.0453 Uani
H4B H -0.0245 0.2378 0.1004 0.0540 Uiso
C9B C -0.02899(16) 0.2605(2) 0.1574(2) 0.0413 Uani
C10B C -0.05456(16) 0.2742(2) 0.18679(19) 0.0360 Uani
H5B H -0.0463 0.2827 0.2127 0.0430 Uiso
C11B C 0.01119(17) 0.2590(2) 0.1675(2) 0.0440 Uani
C12B C 0.06762(18) 0.2450(2) 0.1643(2) 0.0460 Uani
C13B C -0.09261(17) 0.2364(2) 0.0673(2) 0.0377 Uani
C14B C 0.20236(16) 0.22539(16) 0.19331(19) 0.0290 Uani
C15B C 0.16906(16) 0.21909(18) 0.16566(19) 0.0303 Uani
C16B C 0.13499(16) 0.2348(2) 0.1772(2) 0.0370 Uani
H6B H 0.1333 0.2493 0.2012 0.0440 Uiso
C17B C 0.10388(17) 0.2286(2) 0.1526(2) 0.0403 Uani
C18B C 0.10611(18) 0.2072(2) 0.1170(2) 0.0463 Uani
H7B H 0.0850 0.2031 0.1009 0.0560 Uiso
C19B C 0.13975(18) 0.1918(2) 0.1050(2) 0.0403 Uani
C20B C 0.17134(17) 0.19735(19) 0.1298(2) 0.0350 Uani
H8B H 0.1938 0.1865 0.1223 0.0420 Uiso
C21B C 0.1417(2) 0.1684(2) 0.0655(2) 0.0467 Uani
O13Q O 0.0271(2) 0.1021(4) 0.0384(3) 0.0700 Uiso
O14Q O 0.0845(8) 0.1165(4) -0.07577(7) 0.0700 Uiso
Tb1B Tb -0.21279(2) 0.28721(2) 0.22453(2) 0.0167 Uani
Tb1C Tb 0.21279(2) -0.28721(2) 0.22453(2) 0.0167 Uani
Tb1E Tb 0.28721(2) -0.21279(2) 0.27547(2) 0.0167 Uani
Tb1F Tb 0.21279(2) 0.28721(2) 0.27547(2) 0.0167 Uani
Tb2B Tb -0.12728(2) 0.20283(2) 0.0000 0.0266 Uani
Tb2C Tb 0.12728(2) -0.20283(2) 0.0000 0.0266 Uani
Tb3C Tb 0.12699(2) -0.08058(2) 0.0000 0.0623 Uani
O1DA O 0.34618(11) 0.21274(12) 0.19726(13) 0.0316 Uani
O3Q O 0.25007(16) 0.12244(15) -0.05283(17) 0.0513 Uani
O4Q O 0.21087(18) 0.07532(14) -0.04879(17) 0.0543 Uani
O5CA O 0.28915(13) 0.26748(12) 0.18331(15) 0.0373 Uani
O6E O 0.24478(13) 0.19730(14) 0.27450(15) 0.0400 Uani
O6Z O 0.30270(14) 0.25522(13) 0.27450(15) 0.0400 Uani
O7S O 0.17307(15) 0.15687(18) -0.05479(17) 0.0567 Uani
O8S O 0.11212(18) 0.1621(2) -0.0472(2) 0.0787 Uani
loop_
_atom_site_aniso_label
_atom_site_aniso_U_11
_atom_site_aniso_U_22
_atom_site_aniso_U_33
_atom_site_aniso_U_23
_atom_site_aniso_U_13
_atom_site_aniso_U_12
Tb1 0.01527(13) 0.01527(13) 0.01961(18) -0.00093(8) 0.00093(8) 0.00067(10)
Tb2 0.0388(2) 0.0241(2) 0.01702(19) 0.000 0.000 0.00527(15)
Tb3 0.0449(3) 0.0899(5) 0.0520(3) 0.000 0.000 -0.0272(3)
O1 0.049(3) 0.0158(17) 0.030(2) -0.0037(16) -0.0062(18) 0.0012(16)
O2 0.067(3) 0.027(2) 0.026(2) 0.0015(17) -0.005(2) -0.008(2)
O3 0.059(3) 0.052(3) 0.043(3) 0.023(2) -0.016(2) -0.011(2)
O4 0.091(4) 0.034(3) 0.038(3) 0.009(2) -0.029(3) -0.012(3)
O5 0.05 0.02 0.042 0.01 -0.006 -0.0026
O6 0.029 0.05 0.041 0.021 -0.0147 -0.01
O7 0.083 0.042 0.045 -0.004 -0.039 -0.002
O8 0.123 0.051 0.062 0.026 -0.056 -0.018
O9 0.0290(17) 0.0290(17) 0.030(3) 0.0011(16) -0.0011(16) 0.002(2)
O10 0.052(4) 0.043(4) 0.055(4) 0.000 0.000 -0.016(3)
O11 0.092(8) 0.043(5) 0.109(9) 0.000 0.000 -0.007(5)
N2 0.087(5) 0.020(2) 0.048(3) 0.005(2) -0.034(3) -0.014(3)
N3 0.089(5) 0.020(2) 0.041(3) 0.005(2) -0.031(3) -0.009(3)
N4 0.086(5) 0.018(2) 0.043(3) 0.003(2) -0.033(3) -0.009(3)
C4 0.034(3) 0.019(2) 0.028(3) -0.003(2) 0.000(2) 0.001(2)
C5 0.044(3) 0.018(2) 0.030(3) 0.001(2) -0.006(3) -0.001(2)
C6 0.054(4) 0.021(3) 0.033(3) 0.004(2) -0.007(3) 0.001(2)
C7 0.058(4) 0.022(3) 0.033(3) 0.004(2) -0.016(3) 0.005(3)
C8 0.076(5) 0.026(3) 0.034(3) 0.000(2) -0.021(3) -0.005(3)
C9 0.071(5) 0.017(3) 0.036(3) 0.001(2) -0.017(3) -0.004(3)
C10 0.062(4) 0.019(3) 0.027(3) 0.003(2) -0.012(3) -0.005(3)
C11 0.072(5) 0.022(3) 0.038(3) 0.004(2) -0.022(3) -0.006(3)
C12 0.077(5) 0.023(3) 0.038(3) 0.004(3) -0.025(4) -0.009(3)
C13 0.057(4) 0.027(3) 0.029(3) 0.002(2) -0.007(3) 0.004(3)
C14 0.026 0.028 0.033 0.007 -0.003 0.001
C15 0.041 0.023 0.027 0.004 -0.011 -0.004
C16 0.056 0.024 0.031 0.003 -0.019 -0.009
C17 0.064 0.02 0.037 0.001 -0.018 -0.008
C18 0.077 0.022 0.04 0.008 -0.026 -0.012
C19 0.061 0.03 0.03 0.001 -0.02 -0.004
C20 0.048 0.024 0.033 0 -0.013 -0.007
C21 0.067 0.043 0.03 0.004 -0.024 -0.009
O1B 0.0158 0.049 0.03 -0.0062 0.0037 -0.0012
O2B 0.027 0.067 0.026 -0.005 -0.0015 0.008
O3B 0.052 0.059 0.043 -0.016 -0.023 0.011
O4B 0.034 0.091 0.038 -0.029 -0.009 0.012
O5B 0.02 0.05 0.042 -0.006 -0.01 0.0026
O6B 0.05 0.029 0.041 -0.0147 -0.021 0.01
O7B 0.042 0.083 0.045 -0.039 0.004 0.002
O8B 0.051 0.123 0.062 -0.056 -0.026 0.018
N2B 0.02 0.087 0.048 -0.034 -0.005 0.014
N3B 0.02 0.089 0.041 -0.031 -0.005 0.009
N4B 0.018 0.086 0.043 -0.033 -0.003 0.009
C4B 0.019 0.034 0.028 0 0.003 -0.001
C5B 0.018 0.044 0.03 -0.006 -0.001 0.001
C6B 0.021 0.054 0.033 -0.007 -0.004 -0.001
C7B 0.022 0.058 0.033 -0.016 -0.004 -0.005
C8B 0.026 0.076 0.034 -0.021 0 0.005
C9B 0.017 0.071 0.036 -0.017 -0.001 0.004
C10B 0.019 0.062 0.027 -0.012 -0.003 0.005
C11B 0.022 0.072 0.038 -0.022 -0.004 0.006
C12B 0.023 0.077 0.038 -0.025 -0.004 0.009
C13B 0.027 0.057 0.029 -0.007 -0.002 -0.004
C14B 0.028 0.026 0.033 -0.003 -0.007 -0.001
C15B 0.023 0.041 0.027 -0.011 -0.004 0.004
C16B 0.024 0.056 0.031 -0.019 -0.003 0.009
C17B 0.02 0.064 0.037 -0.018 -0.001 0.008
C18B 0.022 0.077 0.04 -0.026 -0.008 0.012
C19B 0.03 0.061 0.03 -0.02 -0.001 0.004
C20B 0.024 0.048 0.033 -0.013 0 0.007
C21B 0.043 0.067 0.03 -0.024 -0.004 0.009
Tb1B 0.01527 0.01527 0.01961 0.00093 0.00093 -0.00067
Tb1C 0.01527 0.01527 0.01961 -0.00093 -0.00093 -0.00067
Tb1E 0.01527 0.01527 0.01961 -0.00093 -0.00093 -0.00067
Tb1F 0.01527 0.01527 0.01961 -0.00093 0.00093 0.00067
Tb2B 0.0241 0.0388 0.01702 0 0 -0.00527
Tb2C 0.0241 0.0388 0.01702 0 0 -0.00527
Tb3C 0.0899 0.0449 0.052 0 0 0.0272
O1DA 0.0158 0.049 0.03 0.0062 0.0037 0.0012
O3Q 0.059 0.052 0.043 -0.023 0.016 -0.011
O4Q 0.091 0.034 0.038 -0.009 0.029 -0.012
O5CA 0.05 0.02 0.042 0.01 0.006 0.0026
O6E 0.029 0.05 0.041 0.021 0.0147 0.01
O6Z 0.05 0.029 0.041 -0.0147 -0.021 0.01
O7S 0.042 0.083 0.045 0.039 -0.004 0.002
O8S 0.051 0.123 0.062 0.056 0.026 0.018
loop_
_geom_bond_atom_site_label_1
_geom_bond_atom_site_label_2
_geom_bond_site_symmetry_1
_geom_bond_site_symmetry_2
Tb1 O1 1_555 1_555
Tb2 O3 1_555 1_555
Tb3 O10 1_555 1_555
O1 C4 1_555 1_555
O2 C4 1_555 1_555
O3 C13 1_555 1_555
O4 Tb2 1_555 1_555
O5 C14 1_555 1_555
O6 C14 1_555 1_555
O7 C21 1_555 1_555
O8 C21 1_555 1_555
O9 Tb1 1_555 1_555
O10 Tb2 1_555 1_555
O11 Tb2 1_555 1_555
O12 Tb3 1_555 1_555
C1 O12 1_555 1_555
H1 C1 1_555 1_555
N1 C1 1_555 1_555
C2 N1 1_555 1_555
C3 N1 1_555 1_555
O13 Tb3 1_555 1_555
O14 Tb3 1_555 1_555
O15 Tb3 1_555 1_555
N2 N3 1_555 1_555
N3 H2 1_555 1_555
N4 C11 1_555 1_555
C4 C5 1_555 1_555
C5 C6 1_555 1_555
C6 H3 1_555 1_555
C7 C6 1_555 1_555
C8 C7 1_555 1_555
H4 C8 1_555 1_555
C9 C8 1_555 1_555
C10 C5 1_555 1_555
H5 C10 1_555 1_555
C11 N2 1_555 1_555
C12 N3 1_555 1_555
C13 O4 1_555 1_555
C14 C15 1_555 1_555
C15 C16 1_555 1_555
C16 H6 1_555 1_555
C17 C12 1_555 1_555
C18 C17 1_555 1_555
H7 C18 1_555 1_555
C19 C18 1_555 1_555
C20 C15 1_555 1_555
H8 C20 1_555 1_555
C21 C19 1_555 1_555
O1B C4B 1_555 1_555
O2B C4B 1_555 1_555
O3B C13B 1_555 1_555
O4B C13B 1_555 1_555
O5B Tb1 1_555 1_555
O6B C14B 1_555 1_555
O7B Tb2 1_555 1_555
O8B Tb3 1_555 1_555
N2B N3B 1_555 1_555
N3B H2B 1_555 1_555
N4B C11B 1_555 1_555
C4B C5B 1_555 1_555
C5B C6B 1_555 1_555
C6B H3B 1_555 1_555
C7B C6B 1_555 1_555
C8B C7B 1_555 1_555
H4B C8B 1_555 1_555
C9B C8B 1_555 1_555
C10B C5B 1_555 1_555
H5B C10B 1_555 1_555
C11B N2B 1_555 1_555
C12B N3B 1_555 1_555
C13B C7B 1_555 1_555
C14B O5B 1_555 1_555
C15B C14B 1_555 1_555
C16B C15B 1_555 1_555
H6B C16B 1_555 1_555
C17B C12B 1_555 1_555
C18B C17B 1_555 1_555
H7B C18B 1_555 1_555
C19B C18B 1_555 1_555
C20B C15B 1_555 1_555
H8B C20B 1_555 1_555
C21B O7B 1_555 1_555
O13Q Tb3 1_555 1_555
O14Q Tb3 1_555 1_555
Tb1B O1B 1_555 1_555
Tb1C O5 1_555 1_555
Tb1E O6 1_555 1_555
Tb1F O6B 1_555 1_555
Tb2B O3B 1_555 1_555
Tb2C O7 1_555 1_555
Tb3C O8 1_555 1_555
O1DA Tb1 1_555 1_555
O3Q Tb2 1_555 1_555
O4Q Tb2 1_555 1_555
O5CA Tb1 1_555 1_555
O6E Tb1 1_555 1_555
O6Z Tb1 1_555 1_555
O7S Tb2 1_555 1_555
O8S Tb3 1_555 1_555
N4 C12 1_555 1_555
C7 C13 1_555 1_555
C9 C10 1_555 1_555
C9 C11 1_555 1_555
C16 C17 1_555 1_555
C19 C20 1_555 1_555
O4B Tb2B 1_555 1_555
O8B C21B 1_555 1_555
N4B C12B 1_555 1_555
C9B C10B 1_555 1_555
C9B C11B 1_555 1_555
C16B C17B 1_555 1_555
C19B C20B 1_555 1_555
C19B C21B 1_555 1_555

#END
