
#######################################################################
#
#                 Cambridge Crystallographic Data Centre
#                                CCDC 
#
#######################################################################
#
# If this CIF has been generated from an entry in the Cambridge 
# Structural Database, then it will include bibliographic, chemical, 
# crystal, experimental, refinement or atomic coordinate data resulting 
# from the CCDC's data processing and validation procedures.
#
#######################################################################

data_HITXUE
_chemical_formula_moiety         '(C18 Al6 N6 O24 P6)n'
_symmetry_cell_setting           monoclinic
_symmetry_space_group_name_H-M   'C 2/c'
_symmetry_Int_Tables_number      15
_space_group_name_Hall           '-C 2yc'
loop_
_symmetry_equiv_pos_site_id
_symmetry_equiv_pos_as_xyz
1 x,y,z
2 -x,y,1/2-z
3 1/2+x,1/2+y,z
4 1/2-x,1/2+y,1/2-z
5 -x,-y,-z
6 x,-y,1/2+z
7 1/2-x,1/2-y,-z
8 1/2+x,1/2-y,1/2+z
_cell_length_a                   13.795(3)
_cell_length_b                   12.830(3)
_cell_length_c                   18.815(5)
_cell_angle_alpha                90
_cell_angle_beta                 89.959(7)
_cell_angle_gamma                90
_cell_volume                     3330.06
loop_
_atom_site_label
_atom_site_type_symbol
_atom_site_fract_x
_atom_site_fract_y
_atom_site_fract_z
_atom_site_U_iso_or_equiv
_atom_site_thermal_displace_type
N1 N 0.4871 0.9778 0.3703 0.1900 Uiso
N2 N 0.6485 0.8244 0.2436 0.1900 Uiso
N3 N 0.6245 0.8121 0.2772 0.1900 Uiso
C1 C 0.5055 0.9672 0.4491 0.1900 Uiso
C2 C 0.7060 0.7434 0.2523 0.1900 Uiso
C3 C 0.5795 0.9698 0.3269 0.1900 Uiso
C4 C 0.6241 0.8582 0.3190 0.1900 Uiso
C5 C 0.4061 0.9070 0.3455 0.1900 Uiso
C6 C 0.6212 0.9136 0.2358 0.1900 Uiso
C7 C 0.5634 0.8148 0.1922 0.1900 Uiso
C8 C 0.5293 0.7530 0.2829 0.1900 Uiso
C9 C 0.7117 0.7295 0.2439 0.1900 Uiso
N1A N 0.5129 0.9778 0.1297 0.1900 Uiso
N2A N 0.3515 0.8244 0.2564 0.1900 Uiso
N3A N 0.3755 0.8121 0.2228 0.1900 Uiso
C1A C 0.4945 0.9672 0.0509 0.1900 Uiso
C2A C 0.2940 0.7434 0.2477 0.1900 Uiso
C3A C 0.4205 0.9698 0.1731 0.1900 Uiso
C4A C 0.3759 0.8582 0.1810 0.1900 Uiso
C5A C 0.5939 0.9070 0.1545 0.1900 Uiso
C6A C 0.3788 0.9136 0.2642 0.1900 Uiso
C7A C 0.4366 0.8148 0.3078 0.1900 Uiso
C8A C 0.4707 0.7530 0.2171 0.1900 Uiso
C9A C 0.2883 0.7295 0.2561 0.1900 Uiso
P1 P 0.7722(2) 1.0963(2) 0.0554(1) 0.0173 Uani
P2 P 0.8887(1) 0.7676(2) 0.0618(1) 0.0176 Uani
P3 P 1.1187(1) 0.9643(2) 0.1667(1) 0.0173 Uani
Al1 Al 0.8895(2) 0.9596(2) 0.1655(1) 0.0163 Uani
Al2 Al 1.1172(2) 0.7746(2) 0.0615(1) 0.0177 Uani
Al3 Al 1.2267(2) 1.0961(2) 0.0495(1) 0.0180 Uani
O1 O 1.1803(5) 1.0474(6) 0.1306(4) 0.0370 Uani
O2 O 0.8595(5) 0.8240(6) -0.0061(4) 0.0343 Uani
O3 O 0.9947(4) 0.7385(5) 0.0578(4) 0.0360 Uani
O4 O 0.8466(5) 1.1647(6) 0.0178(4) 0.0363 Uani
O5 O 0.8168(5) 1.0538(5) 0.1236(3) 0.0340 Uani
O6 O 1.0124(5) 0.9949(6) 0.1582(4) 0.0340 Uani
O7 O 1.1377(5) 0.8583(5) 0.1335(4) 0.0333 Uani
O8 O 0.8319(5) 0.6678(5) 0.0702(4) 0.0370 Uani
O9 O 1.1471(5) 0.9590(6) 0.2449(3) 0.0367 Uani
O10 O 0.6837(5) 1.1601(5) 0.0758(4) 0.0380 Uani
O11 O 0.8700(5) 0.8364(5) 0.1267(4) 0.0363 Uani
O12 O 0.7400(5) 1.0091(5) 0.0071(4) 0.0347 Uani
P1D P 1.2278(2) 0.9037(2) -0.0554(1) 0.0173 Uani
P2D P 1.1113(1) 1.2324(2) -0.0618(1) 0.0176 Uani
P3A P 0.8813(1) 0.9643(2) 0.3333(1) 0.0173 Uani
Al1A Al 1.1105(2) 0.9596(2) 0.3345(1) 0.0163 Uani
Al1D Al 1.1105(2) 1.0404(2) -0.1655(1) 0.0163 Uani
Al2D Al 0.8828(2) 1.2254(2) -0.0615(1) 0.0177 Uani
Al2B Al 0.6172(2) 1.2746(2) 0.0615(1) 0.0177 Uani
Al2A Al 0.8828(2) 0.7746(2) 0.4385(1) 0.0177 Uani
Al2F Al 1.3828(2) 0.7254(2) -0.0615(1) 0.0177 Uani
Al3A Al 0.7733(2) 1.0961(2) 0.4505(1) 0.0180 Uani
Al3D Al 0.7733(2) 0.9039(2) -0.0495(1) 0.0180 Uani
Al3B Al 0.7267(2) 0.5961(2) 0.0495(1) 0.0180 Uani
Al3F Al 1.2733(2) 1.4039(2) -0.0495(1) 0.0180 Uani
O1A O 0.8197(5) 1.0474(6) 0.3694(4) 0.0370 Uani
O2D O 1.1405(5) 1.1760(6) 0.0061(4) 0.0343 Uani
O2E O 0.8595(5) 1.1760(6) 0.4939(4) 0.0343 Uani
O3D O 1.0053(4) 1.2615(5) -0.0578(4) 0.0360 Uani
O4D O 1.1534(5) 0.8353(6) -0.0178(4) 0.0363 Uani
O5D O 1.1832(5) 0.9462(5) -0.1236(3) 0.0340 Uani
O5A O 1.1832(5) 1.0538(5) 0.3764(3) 0.0340 Uani
O6A O 0.9876(5) 0.9949(6) 0.3418(4) 0.0340 Uani
O7A O 0.8623(5) 0.8583(5) 0.3665(4) 0.0333 Uani
O7D O 0.8623(5) 1.1417(5) -0.1335(4) 0.0333 Uani
O8D O 1.1681(5) 1.3322(5) -0.0702(4) 0.0370 Uani
O8B O 1.3319(5) 1.1678(5) 0.0702(4) 0.0370 Uani
O8C O 0.6681(5) 1.1678(5) 0.4298(4) 0.0370 Uani
O9A O 0.8529(5) 0.9590(6) 0.2551(3) 0.0367 Uani
O10D O 1.3163(5) 0.8399(5) -0.0758(4) 0.0380 Uani
O10B O 1.1837(5) 0.6601(5) 0.0758(4) 0.0380 Uani
O10F O 0.8163(5) 1.3399(5) -0.0758(4) 0.0380 Uani
O11D O 1.1300(5) 1.1636(5) -0.1267(4) 0.0363 Uani
O11A O 1.1300(5) 0.8364(5) 0.3733(4) 0.0363 Uani
O12D O 1.2600(5) 0.9909(5) -0.0071(4) 0.0347 Uani
O12E O 0.7400(5) 0.9909(5) 0.5071(4) 0.0347 Uani
loop_
_atom_site_aniso_label
_atom_site_aniso_U_11
_atom_site_aniso_U_22
_atom_site_aniso_U_33
_atom_site_aniso_U_23
_atom_site_aniso_U_13
_atom_site_aniso_U_12
P1 0.02 0.015 0.017 0.0029 0.0041 0.0065
P2 0.011 0.0127 0.029 0.0005 -0.0025 -0.001
P3 0.0162 0.024 0.0116 -0.0033 0.0037 -0.0062
Al1 0.018 0.02 0.011 -0.0006 -0.0004 0.005
Al2 0.012 0.014 0.027 -0.0017 0.003 0.0021
Al3 0.02 0.016 0.018 0.0019 0.002 -0.009
O1 0.041 0.037 0.033 -0.002 0.016 -0.023
O2 0.029 0.038 0.036 0.014 -0.004 0.004
O3 0.014 0.031 0.063 -0.003 -0.003 0.004
O4 0.03 0.043 0.036 0.016 0.008 -0.007
O5 0.051 0.034 0.017 0.005 -0.001 0.018
O6 0.02 0.047 0.035 0.005 0.006 0
O7 0.038 0.03 0.032 -0.013 0.003 0
O8 0.027 0.025 0.059 0.007 -0.012 -0.014
O9 0.033 0.067 0.01 -0.004 -0.003 0.002
O10 0.032 0.03 0.052 0.005 0.018 0.019
O11 0.042 0.03 0.037 -0.005 0.004 0.001
O12 0.045 0.028 0.031 -0.004 0 -0.003
P1D 0.02 0.015 0.017 0.0029 0.0041 0.0065
P2D 0.011 0.0127 0.029 0.0005 -0.0025 -0.001
P3A 0.0162 0.024 0.0116 0.0033 0.0037 0.0062
Al1A 0.018 0.02 0.011 0.0006 -0.0004 -0.005
Al1D 0.018 0.02 0.011 -0.0006 -0.0004 0.005
Al2D 0.012 0.014 0.027 -0.0017 0.003 0.0021
Al2B 0.012 0.014 0.027 -0.0017 0.003 0.0021
Al2A 0.012 0.014 0.027 0.0017 0.003 -0.0021
Al2F 0.012 0.014 0.027 -0.0017 0.003 0.0021
Al3A 0.02 0.016 0.018 -0.0019 0.002 0.009
Al3D 0.02 0.016 0.018 0.0019 0.002 -0.009
Al3B 0.02 0.016 0.018 0.0019 0.002 -0.009
Al3F 0.02 0.016 0.018 0.0019 0.002 -0.009
O1A 0.041 0.037 0.033 0.002 0.016 0.023
O2D 0.029 0.038 0.036 0.014 -0.004 0.004
O2E 0.029 0.038 0.036 -0.014 -0.004 -0.004
O3D 0.014 0.031 0.063 -0.003 -0.003 0.004
O4D 0.03 0.043 0.036 0.016 0.008 -0.007
O5D 0.051 0.034 0.017 0.005 -0.001 0.018
O5A 0.051 0.034 0.017 -0.005 -0.001 -0.018
O6A 0.02 0.047 0.035 -0.005 0.006 0
O7A 0.038 0.03 0.032 0.013 0.003 0
O7D 0.038 0.03 0.032 -0.013 0.003 0
O8D 0.027 0.025 0.059 0.007 -0.012 -0.014
O8B 0.027 0.025 0.059 0.007 -0.012 -0.014
O8C 0.027 0.025 0.059 -0.007 -0.012 0.014
O9A 0.033 0.067 0.01 0.004 -0.003 -0.002
O10D 0.032 0.03 0.052 0.005 0.018 0.019
O10B 0.032 0.03 0.052 0.005 0.018 0.019
O10F 0.032 0.03 0.052 0.005 0.018 0.019
O11D 0.042 0.03 0.037 -0.005 0.004 0.001
O11A 0.042 0.03 0.037 0.005 0.004 -0.001
O12D 0.045 0.028 0.031 -0.004 0 -0.003
O12E 0.045 0.028 0.031 0.004 0 0.003
loop_
_geom_bond_atom_site_label_1
_geom_bond_atom_site_label_2
_geom_bond_site_symmetry_1
_geom_bond_site_symmetry_2
P1 O4 1_555 1_555
P2 O2 1_555 1_555
P3 O1 1_555 1_555
Al1 O5 1_555 1_555
Al2 O3 1_555 1_555
Al3 O1 1_555 1_555
O2 Al3D 1_555 1_555
O3 P2 1_555 1_555
O4 Al2D 1_555 1_555
O5 P1 1_555 1_555
O6 P3 1_555 1_555
O7 P3 1_555 1_555
O8 P2 1_555 1_555
O9 P3 1_555 1_555
O10 P1 1_555 1_555
O11 P2 1_555 1_555
O12 P1 1_555 1_555
N1 C1 1_555 1_555
N2 N3 1_555 1_555
N3 C2 1_555 1_555
C2 N2 1_555 1_555
C3 N1 1_555 1_555
C4 N2 1_555 1_555
C5 N1 1_555 1_555
C6 N2 1_555 1_555
C7 N2 1_555 1_555
C8 N3 1_555 1_555
C9 N2 1_555 1_555
P1D O4D 1_555 1_555
P2D O2D 1_555 1_555
P3A O1A 1_555 1_555
Al1A O9 1_555 1_555
Al1D O5D 1_555 1_555
Al2D O3D 1_555 1_555
Al2B O10 1_555 1_555
Al2A O7A 1_555 1_555
Al2F O10D 1_555 1_555
Al3A O1A 1_555 1_555
Al3D O12 1_555 1_555
Al3B O8 1_555 1_555
Al3F O8D 1_555 1_555
O2D Al3 1_555 1_555
O2E Al3A 1_555 1_555
O3D P2D 1_555 1_555
O4D Al2 1_555 1_555
O5D P1D 1_555 1_555
O5A Al1A 1_555 1_555
O6A P3A 1_555 1_555
O7A P3A 1_555 1_555
O7D Al2D 1_555 1_555
O8D P2D 1_555 1_555
O8B Al3 1_555 1_555
O8C Al3A 1_555 1_555
O9A Al1 1_555 1_555
O10D P1D 1_555 1_555
O10B Al2 1_555 1_555
O10F Al2D 1_555 1_555
O11D P2D 1_555 1_555
O11A Al1A 1_555 1_555
O12D Al3 1_555 1_555
O12E Al3A 1_555 1_555
N1A C1A 1_555 1_555
N2A N3A 1_555 1_555
N3A C2A 1_555 1_555
C2A N2A 1_555 1_555
C3A N1A 1_555 1_555
C4A N2A 1_555 1_555
C5A C6 1_555 1_555
C6A C5 1_555 1_555
C7A C5 1_555 1_555
C8A C7 1_555 1_555
C9A N2A 1_555 1_555
Al1 O6 1_555 1_555
Al1 O11 1_555 1_555
Al2 O7 1_555 1_555
N3 C4 1_555 1_555
N3 C6 1_555 1_555
N3 C9 1_555 1_555
C2 C9 1_555 1_555
C3 C4 1_555 1_555
C4 C6 1_555 1_555
C6 C7 1_555 1_555
C7 C5A 1_555 1_555
C8 C7A 1_555 1_555
C8 C8A 1_555 1_555
P1D O12D 1_555 1_555
P3A O9A 1_555 1_555
Al1A O6A 1_555 1_555
Al1D O11D 1_555 1_555
N1A C5A 1_555 1_555
N2A C6A 1_555 1_555
N2A C7A 1_555 1_555
N3A C4A 1_555 1_555
N3A C6A 1_555 1_555
N3A C8A 1_555 1_555
N3A C9A 1_555 1_555
C2A C9A 1_555 1_555
C3A C4A 1_555 1_555
C4A C6A 1_555 1_555
C6A C7A 1_555 1_555

#END
