
#######################################################################
#
#                 Cambridge Crystallographic Data Centre
#                                CCDC 
#
#######################################################################
#
# If this CIF has been generated from an entry in the Cambridge 
# Structural Database, then it will include bibliographic, chemical, 
# crystal, experimental, refinement or atomic coordinate data resulting 
# from the CCDC's data processing and validation procedures.
#
#######################################################################

data_ILEPEW
_chemical_formula_moiety         '(C111 H79 Ba6 La1 N2 O37)n'
_symmetry_cell_setting           monoclinic
_symmetry_space_group_name_H-M   'C 2'
_symmetry_Int_Tables_number      5
_space_group_name_Hall           'C 2y'
loop_
_symmetry_equiv_pos_site_id
_symmetry_equiv_pos_as_xyz
1 x,y,z
2 -x,y,-z
3 1/2+x,1/2+y,z
4 1/2-x,1/2+y,-z
_cell_length_a                   10.7045(4)
_cell_length_b                   34.7385(12)
_cell_length_c                   17.9860(6)
_cell_angle_alpha                90
_cell_angle_beta                 101.0690(10)
_cell_angle_gamma                90
_cell_volume                     6563.82
loop_
_atom_site_label
_atom_site_type_symbol
_atom_site_fract_x
_atom_site_fract_y
_atom_site_fract_z
Ba1 Ba 0.03389(2) 0.229296(6) 0.151329(13)
Ba2 Ba -0.29372(2) 0.278863(7) -0.007938(14)
Ba3 Ba 0.23274(2) 0.267378(7) 0.371108(15)
La1 La 0.0000 0.317561(11) 0.5000
N1 N 0.3022(6) 0.40039(15) 0.3118(3)
O1 O 0.0240(3) 0.31897(10) 0.35651(17)
O2 O -0.0070(3) 0.27735(11) 0.26170(18)
O3 O -0.4539(3) 0.28454(9) 0.08976(17)
O4 O -0.5870(3) 0.32165(13) 0.1351(3)
O5 O -0.1786(4) 0.69068(14) 0.3692(3)
O6 O -0.3498(3) 0.69839(11) 0.2815(2)
O7 O -0.0836(3) 0.29859(9) 0.08591(17)
O8 O 0.1252(3) 0.29695(9) 0.09494(17)
O9 O -0.3106(3) 0.66499(11) 0.0922(2)
O10 O -0.2110(3) 0.72092(9) 0.10610(17)
O11 O 0.2647(3) 0.72018(9) 0.09018(18)
O12 O 0.3655(4) 0.66970(13) 0.1459(2)
O13 O -0.0000 0.20349(12) 0.0000
H1 H -0.0739 0.1860 -0.0026
O14 O -0.3777(7) 0.3595(2) 0.0063(4)
O15 O 0.4701(8) 0.7445(2) 0.5583(4)
C1 C 0.5242(11) 0.6240(2) 0.4375(6)
H2 H 0.5409 0.6105 0.3944
C2 C 0.5240(11) 0.6638(2) 0.4381(5)
H3 H 0.5406 0.6774 0.3952
C3 C 0.5000 0.68391(15) 0.5000
C4 C 0.5000 0.7276(2) 0.5000
O16 O 0.3092(5) 0.33551(16) 0.3191(3)
O17 O 0.2620(3) 0.31946(12) 0.4941(2)
O18 O 0.1742(3) 0.37506(11) 0.5208(2)
O19 O 0.3063(5) 0.26562(13) 0.2333(2)
H4 H 0.3226 0.2915 0.2141
C5 C -0.0390(4) 0.30651(13) 0.2949(3)
C6 C -0.1584(4) 0.32767(13) 0.2611(2)
C7 C -0.1699(4) 0.36670(12) 0.2783(2)
H5 H -0.1026 0.3788 0.3125
C8 C -0.2755(4) 0.38825(12) 0.2472(2)
C9 C -0.3766(4) 0.36875(12) 0.2012(2)
H6 H -0.4533 0.3822 0.1821
C10 C -0.3664(4) 0.33013(12) 0.1833(2)
C11 C -0.2558(4) 0.30995(12) 0.2102(2)
H7 H -0.2464 0.2842 0.1942
C12 C -0.4775(4) 0.31099(12) 0.1321(2)
C13 C -0.2807(4) 0.43015(12) 0.2595(2)
C14 C -0.2100(4) 0.44793(13) 0.3231(3)
H8 H -0.1607 0.4325 0.3615
C15 C -0.2096(5) 0.48799(13) 0.3319(3)
H9 H -0.1592 0.4992 0.3758
C16 C -0.2815(4) 0.51150(12) 0.2776(2)
C17 C -0.3547(4) 0.49396(13) 0.2143(3)
H10 H -0.4058 0.5094 0.1767
C18 C -0.3541(4) 0.45415(13) 0.2053(3)
H11 H -0.4046 0.4430 0.1614
C19 C -0.2774(4) 0.55398(13) 0.2862(2)
C20 C -0.1750(5) 0.57218(14) 0.3317(3)
H12 H -0.1064 0.5570 0.3575
C21 C -0.1694(5) 0.61180(15) 0.3407(4)
H13 H -0.0975 0.6234 0.3718
C22 C -0.2689(4) 0.63432(14) 0.3045(3)
C23 C -0.3703(5) 0.61750(15) 0.2579(3)
H14 H -0.4376 0.6330 0.2314
C24 C -0.3745(6) 0.57770(15) 0.2493(3)
H15 H -0.4459 0.5664 0.2172
C25 C -0.2641(5) 0.67696(14) 0.3186(3)
C26 C 0.0235(3) 0.31472(12) 0.0940(2)
C27 C 0.0300(4) 0.35796(12) 0.1044(2)
C28 C -0.0816(4) 0.37913(13) 0.1051(3)
H16 H -0.1610 0.3663 0.1010
C29 C -0.0749(4) 0.41835(13) 0.1119(3)
H17 H -0.1503 0.4325 0.1136
C30 C 0.0392(4) 0.43796(12) 0.1163(3)
C31 C 0.1500(4) 0.41645(13) 0.1176(3)
H18 H 0.2297 0.4292 0.1229
C32 C 0.1448(4) 0.37702(13) 0.1115(3)
H19 H 0.2208 0.3628 0.1122
C33 C 0.0417(4) 0.48046(13) 0.1191(3)
C34 C -0.0401(4) 0.50121(13) 0.1564(3)
H20 H -0.0945 0.4877 0.1833
C35 C -0.0436(4) 0.54106(13) 0.1549(3)
H21 H -0.1010 0.5544 0.1800
C36 C 0.0352(4) 0.56159(13) 0.1173(3)
C37 C 0.1180(5) 0.54136(14) 0.0804(4)
H22 H 0.1727 0.5550 0.0540
C38 C 0.1210(5) 0.50145(14) 0.0820(3)
H23 H 0.1788 0.4882 0.0571
C39 C -0.2109(4) 0.68450(13) 0.1006(3)
C40 C -0.0857(4) 0.66470(12) 0.1050(3)
C41 C -0.0822(4) 0.62480(13) 0.1094(3)
H24 H -0.1586 0.6110 0.1096
C42 C 0.0326(4) 0.60457(13) 0.1134(3)
C43 C 0.1433(4) 0.62586(14) 0.1165(3)
H25 H 0.2224 0.6127 0.1230
C44 C 0.1425(4) 0.66556(13) 0.1104(3)
C45 C 0.2668(4) 0.68656(14) 0.1152(3)
C46 C 0.0263(4) 0.68501(12) 0.1046(3)
H26 H 0.0240 0.7123 0.1004
C47 C 0.5000 0.35636(19) 0.5000
H27 H 0.5000 0.3290 0.5000
C48 C 0.3889(4) 0.37664(14) 0.5050(3)
C49 C 0.2676(5) 0.35545(15) 0.5068(3)
C50 C 0.3907(4) 0.41601(13) 0.5065(3)
H28 H 0.3156 0.4294 0.5122
C51 C 0.5000 0.43760(19) 0.5000
C52 C 0.5000 0.47925(19) 0.5000
C53 C 0.5687(6) 0.50012(16) 0.4550(3)
H29 H 0.6165 0.4868 0.4237
C54 C 0.5681(6) 0.53995(16) 0.4553(4)
H30 H 0.6156 0.5534 0.4241
C55 C 0.5000 0.5607(2) 0.5000
C56 C 0.5000 0.60343(15) 0.5000
C57 C 0.1763(8) 0.4029(3) 0.3192(5)
H31 H 0.1461 0.3774 0.3310
H32 H 0.1247 0.4122 0.2716
H33 H 0.1689 0.4208 0.3602
C58 C 0.3648(7) 0.3652(2) 0.3123(4)
H34 H 0.4515 0.3646 0.3073
C59 C 0.3779(8) 0.4338(3) 0.3023(4)
H35 H 0.3384 0.4476 0.2563
H36 H 0.4638 0.4256 0.2979
H37 H 0.3829 0.4508 0.3463
H1A H 0.0739 0.1860 0.0026
O15A O 0.5299(8) 0.7445(2) 0.4417(4)
C1A C 0.4758(11) 0.6240(2) 0.5625(6)
H2A H 0.4591 0.6105 0.6056
C2A C 0.4760(11) 0.6638(2) 0.5619(5)
H3A H 0.4594 0.6774 0.6048
O17A O 0.7380(3) 0.31946(12) 0.5059(2)
O18A O 0.8258(3) 0.37506(11) 0.4792(2)
C48A C 0.6111(4) 0.37664(14) 0.4950(3)
C49A C 0.7324(5) 0.35545(15) 0.4932(3)
C50A C 0.6093(4) 0.41601(13) 0.4935(3)
H28A H 0.6844 0.4294 0.4878
C53A C 0.4313(6) 0.50012(16) 0.5450(3)
H29A H 0.3835 0.4868 0.5763
C54A C 0.4319(6) 0.53995(16) 0.5447(4)
H30A H 0.3844 0.5534 0.5759
Ba1A Ba -1.03389(2) 0.229296(6) -0.151329(13)
Ba2A Ba -0.70628(2) 0.278863(7) 0.007938(14)
Ba3A Ba -1.23274(2) 0.267378(7) -0.371108(15)
N1A N -1.3022(6) 0.40039(15) -0.3118(3)
O1A O -1.0240(3) 0.31897(10) -0.35651(17)
O2A O -0.9930(3) 0.27735(11) -0.26170(18)
O3A O -0.5461(3) 0.28454(9) -0.08976(17)
O4A O -0.4130(3) 0.32165(13) -0.1351(3)
O5A O -0.8214(4) 0.69068(14) -0.3692(3)
O6A O -0.6502(3) 0.69839(11) -0.2815(2)
O7A O -0.9164(3) 0.29859(9) -0.08591(17)
O8A O -1.1252(3) 0.29695(9) -0.09494(17)
O9A O -0.6894(3) 0.66499(11) -0.0922(2)
O10A O -0.7890(3) 0.72092(9) -0.10610(17)
O11A O -1.2647(3) 0.72018(9) -0.09018(18)
O12A O -1.3655(4) 0.66970(13) -0.1459(2)
O14A O -0.6223(7) 0.3595(2) -0.0063(4)
O16A O -1.3092(5) 0.33551(16) -0.3191(3)
O19A O -1.3063(5) 0.26562(13) -0.2333(2)
H4A H -1.3226 0.2915 -0.2141
C5A C -0.9610(4) 0.30651(13) -0.2949(3)
C6A C -0.8416(4) 0.32767(13) -0.2611(2)
C7A C -0.8301(4) 0.36670(12) -0.2783(2)
H5A H -0.8974 0.3788 -0.3125
C8A C -0.7245(4) 0.38825(12) -0.2472(2)
C9A C -0.6234(4) 0.36875(12) -0.2012(2)
H6A H -0.5467 0.3822 -0.1821
C10A C -0.6336(4) 0.33013(12) -0.1833(2)
C11A C -0.7442(4) 0.30995(12) -0.2102(2)
H7A H -0.7536 0.2842 -0.1942
C12A C -0.5225(4) 0.31099(12) -0.1321(2)
C13A C -0.7193(4) 0.43015(12) -0.2595(2)
C14A C -0.7900(4) 0.44793(13) -0.3231(3)
H8A H -0.8393 0.4325 -0.3615
C15A C -0.7904(5) 0.48799(13) -0.3319(3)
H9A H -0.8408 0.4992 -0.3758
C16A C -0.7185(4) 0.51150(12) -0.2776(2)
C17A C -0.6453(4) 0.49396(13) -0.2143(3)
H10A H -0.5942 0.5094 -0.1767
C18A C -0.6459(4) 0.45415(13) -0.2053(3)
H11A H -0.5954 0.4430 -0.1614
C19A C -0.7226(4) 0.55398(13) -0.2862(2)
C20A C -0.8250(5) 0.57218(14) -0.3317(3)
H12A H -0.8936 0.5570 -0.3575
C21A C -0.8306(5) 0.61180(15) -0.3407(4)
H13A H -0.9025 0.6234 -0.3718
C22A C -0.7311(4) 0.63432(14) -0.3045(3)
C23A C -0.6297(5) 0.61750(15) -0.2579(3)
H14A H -0.5624 0.6330 -0.2314
C24A C -0.6255(6) 0.57770(15) -0.2493(3)
H15A H -0.5541 0.5664 -0.2172
C25A C -0.7359(5) 0.67696(14) -0.3186(3)
C26A C -1.0235(3) 0.31472(12) -0.0940(2)
C27A C -1.0300(4) 0.35796(12) -0.1044(2)
C28A C -0.9184(4) 0.37913(13) -0.1051(3)
H16A H -0.8390 0.3663 -0.1010
C29A C -0.9251(4) 0.41835(13) -0.1119(3)
H17A H -0.8497 0.4325 -0.1136
C30A C -1.0392(4) 0.43796(12) -0.1163(3)
C31A C -1.1500(4) 0.41645(13) -0.1176(3)
H18A H -1.2297 0.4292 -0.1229
C32A C -1.1448(4) 0.37702(13) -0.1115(3)
H19A H -1.2208 0.3628 -0.1122
C33A C -1.0417(4) 0.48046(13) -0.1191(3)
C34A C -0.9599(4) 0.50121(13) -0.1564(3)
H20A H -0.9055 0.4877 -0.1833
C35A C -0.9564(4) 0.54106(13) -0.1549(3)
H21A H -0.8990 0.5544 -0.1800
C36A C -1.0352(4) 0.56159(13) -0.1173(3)
C37A C -1.1180(5) 0.54136(14) -0.0804(4)
H22A H -1.1727 0.5550 -0.0540
C38A C -1.1210(5) 0.50145(14) -0.0820(3)
H23A H -1.1788 0.4882 -0.0571
C39A C -0.7891(4) 0.68450(13) -0.1006(3)
C40A C -0.9143(4) 0.66470(12) -0.1050(3)
C41A C -0.9178(4) 0.62480(13) -0.1094(3)
H24A H -0.8414 0.6110 -0.1096
C42A C -1.0326(4) 0.60457(13) -0.1134(3)
C43A C -1.1433(4) 0.62586(14) -0.1165(3)
H25A H -1.2224 0.6127 -0.1230
C44A C -1.1425(4) 0.66556(13) -0.1104(3)
C45A C -1.2668(4) 0.68656(14) -0.1152(3)
C46A C -1.0263(4) 0.68501(12) -0.1046(3)
H26A H -1.0240 0.7123 -0.1004
C57A C -1.1763(8) 0.4029(3) -0.3192(5)
H31A H -1.1461 0.3774 -0.3310
H32A H -1.1247 0.4122 -0.2716
H33A H -1.1689 0.4208 -0.3602
C58A C -1.3648(7) 0.3652(2) -0.3123(4)
H34A H -1.4515 0.3646 -0.3073
C59A C -1.3779(8) 0.4338(3) -0.3023(4)
H35A H -1.3384 0.4476 -0.2563
H36A H -1.4638 0.4256 -0.2979
H37A H -1.3829 0.4508 -0.3463
Ba1A_2 Ba -0.03389(2) 0.229296(6) -0.151329(13)
Ba1B Ba -0.46611(2) 0.729296(6) 0.151329(13)
Ba1B_2 Ba 0.53389(2) 0.729296(6) 0.151329(13)
Ba1C Ba -1.53389(2) 0.729296(6) -0.151329(13)
Ba1C_2 Ba -0.53389(2) 0.729296(6) -0.151329(13)
Ba2_2 Ba -1.29372(2) 0.278863(7) -0.007938(14)
Ba2A_2 Ba 0.29372(2) 0.278863(7) 0.007938(14)
Ba2B Ba -0.79372(2) 0.778863(7) -0.007938(14)
Ba2B_2 Ba 0.20628(2) 0.778863(7) -0.007938(14)
Ba2C Ba -1.20628(2) 0.778863(7) 0.007938(14)
Ba2C_2 Ba -0.20628(2) 0.778863(7) 0.007938(14)
Ba3A_2 Ba 0.76726(2) 0.267378(7) 0.628892(15)
Ba3B Ba -0.26726(2) 0.767378(7) 0.371108(15)
Ba3B_2 Ba 0.73274(2) 0.767378(7) 0.371108(15)
Ba3C Ba -0.73274(2) 0.767378(7) -0.371108(15)
Ba3C_2 Ba 0.26726(2) 0.767378(7) 0.628892(15)
La1_2 La -1.0000 0.317561(11) -0.5000
La1_3 La 1.0000 0.317561(11) 0.5000
La1B La 0.5000 0.817561(11) 0.5000
O1A_2 O -0.0240(3) 0.31897(10) 0.64349(17)
O5B O 0.3214(4) 0.19068(14) 0.3692(3)
O5C O -1.3214(4) 0.19068(14) -0.3692(3)
O6B O 0.1502(3) 0.19839(11) 0.2815(2)
O6C O -1.1502(3) 0.19839(11) -0.2815(2)
O8_2 O -0.8748(3) 0.29695(9) 0.09494(17)
O8A_2 O -0.1252(3) 0.29695(9) -0.09494(17)
O9B O 0.1894(3) 0.16499(11) 0.0922(2)
O9C O -1.1894(3) 0.16499(11) -0.0922(2)
O10B O -0.7110(3) 0.22092(9) 0.10610(17)
O10B_2 O 0.2890(3) 0.22092(9) 0.10610(17)
O10C O -1.2890(3) 0.22092(9) -0.10610(17)
O10C_2 O -0.2890(3) 0.22092(9) -0.10610(17)
O11B O -0.2353(3) 0.22018(9) 0.09018(18)
O11C O -0.7647(3) 0.22018(9) -0.09018(18)
O12B O -0.1345(4) 0.16970(13) 0.1459(2)
O12C O -0.8655(4) 0.16970(13) -0.1459(2)
O13_2 O -1.0000 0.20349(12) 0.0000
O15B O -1.0299(8) 0.2445(2) -0.4417(4)
O15B_2 O -0.0299(8) 0.2445(2) 0.5583(4)
O15C O 0.0299(8) 0.2445(2) 0.4417(4)
O17A_2 O -1.2620(3) 0.31946(12) -0.4941(2)
O17A_3 O -0.2620(3) 0.31946(12) 0.5059(2)
O18A_2 O -0.1742(3) 0.37506(11) 0.4792(2)
loop_
_geom_bond_atom_site_label_1
_geom_bond_atom_site_label_2
_geom_bond_site_symmetry_1
_geom_bond_site_symmetry_2
Ba1 O2 1_555 1_555
Ba2 O3 1_555 1_555
Ba3 O1 1_555 1_555
La1 O1 1_555 1_555
N1 C57 1_555 1_555
O1 C5 1_555 1_555
O2 Ba3 1_555 1_555
O3 C12 1_555 1_555
O4 C12 1_555 1_555
O5 C25 1_555 1_555
O6 C25 1_555 1_555
O7 Ba1 1_555 1_555
O8 Ba1 1_555 1_555
O9 C39 1_555 1_555
O10 C39 1_555 1_555
O11 C45 1_555 1_555
O12 C45 1_555 1_555
O13 Ba1 1_555 1_555
H1 O13 1_555 1_555
O14 Ba2 1_555 1_555
O15 C4 1_555 1_555
C1 H2 1_555 1_555
C2 C1 1_555 1_555
H3 C2 1_555 1_555
C3 C2 1_555 1_555
C4 C3 1_555 1_555
O16 Ba3 1_555 1_555
O17 Ba3 1_555 1_555
O18 La1 1_555 1_555
O19 Ba1 1_555 1_555
H4 O19 1_555 1_555
C5 O2 1_555 1_555
C6 C5 1_555 1_555
C7 C6 1_555 1_555
H5 C7 1_555 1_555
C8 C7 1_555 1_555
C9 C8 1_555 1_555
H6 C9 1_555 1_555
C10 C9 1_555 1_555
C11 C6 1_555 1_555
H7 C11 1_555 1_555
C12 C10 1_555 1_555
C13 C8 1_555 1_555
C14 C13 1_555 1_555
H8 C14 1_555 1_555
C15 C14 1_555 1_555
H9 C15 1_555 1_555
C16 C15 1_555 1_555
C17 C16 1_555 1_555
H10 C17 1_555 1_555
C18 C13 1_555 1_555
H11 C18 1_555 1_555
C19 C16 1_555 1_555
C20 C19 1_555 1_555
H12 C20 1_555 1_555
C21 C20 1_555 1_555
H13 C21 1_555 1_555
C22 C21 1_555 1_555
C23 C22 1_555 1_555
H14 C23 1_555 1_555
C24 C19 1_555 1_555
H15 C24 1_555 1_555
C25 C22 1_555 1_555
C26 O7 1_555 1_555
C27 C26 1_555 1_555
C28 C27 1_555 1_555
H16 C28 1_555 1_555
C29 C28 1_555 1_555
H17 C29 1_555 1_555
C30 C29 1_555 1_555
C31 C30 1_555 1_555
H18 C31 1_555 1_555
C32 C27 1_555 1_555
H19 C32 1_555 1_555
C33 C30 1_555 1_555
C34 C33 1_555 1_555
H20 C34 1_555 1_555
C35 C34 1_555 1_555
H21 C35 1_555 1_555
C36 C35 1_555 1_555
C37 C36 1_555 1_555
H22 C37 1_555 1_555
C38 C33 1_555 1_555
H23 C38 1_555 1_555
C39 C40 1_555 1_555
C40 C41 1_555 1_555
C41 H24 1_555 1_555
C42 C36 1_555 1_555
C43 C42 1_555 1_555
H25 C43 1_555 1_555
C44 C43 1_555 1_555
C45 C44 1_555 1_555
C46 C40 1_555 1_555
H26 C46 1_555 1_555
C47 H27 1_555 1_555
C48 C47 1_555 1_555
C49 O17 1_555 1_555
C50 C48 1_555 1_555
H28 C50 1_555 1_555
C51 C50 1_555 1_555
C52 C51 1_555 1_555
C53 C52 1_555 1_555
H29 C53 1_555 1_555
C54 C53 1_555 1_555
H30 C54 1_555 1_555
C55 C54 1_555 1_555
C56 C1 1_555 1_555
C57 H31 1_555 1_555
H32 C57 1_555 1_555
H33 C57 1_555 1_555
C58 N1 1_555 1_555
H34 C58 1_555 1_555
C59 N1 1_555 1_555
H35 C59 1_555 1_555
H36 C59 1_555 1_555
H37 C59 1_555 1_555
H1A O13 1_555 1_555
O15A C4 1_555 1_555
C1A C56 1_555 1_555
H2A C1A 1_555 1_555
C2A C3 1_555 1_555
H3A C2A 1_555 1_555
O17A C49A 1_555 1_555
O18A C49A 1_555 1_555
C48A C47 1_555 1_555
C49A C48A 1_555 1_555
C50A C51 1_555 1_555
H28A C50A 1_555 1_555
C53A C52 1_555 1_555
H29A C53A 1_555 1_555
C54A C55 1_555 1_555
H30A C54A 1_555 1_555
Ba1A O2A 1_555 1_555
Ba2A O3 1_555 1_555
Ba3A O1A 1_555 1_555
N1A C57A 1_555 1_555
O1A C5A 1_555 1_555
O2A Ba3A 1_555 1_555
O3A Ba2 1_555 1_555
O4A Ba2 1_555 1_555
O5A C25A 1_555 1_555
O6A C25A 1_555 1_555
O7A Ba1A 1_555 1_555
O8A Ba1A 1_555 1_555
O9A C39A 1_555 1_555
O10A C39A 1_555 1_555
O11A C45A 1_555 1_555
O12A C45A 1_555 1_555
O14A Ba2A 1_555 1_555
O16A Ba3A 1_555 1_555
O19A Ba1A 1_555 1_555
H4A O19A 1_555 1_555
C5A O2A 1_555 1_555
C6A C5A 1_555 1_555
C7A C6A 1_555 1_555
H5A C7A 1_555 1_555
C8A C7A 1_555 1_555
C9A C8A 1_555 1_555
H6A C9A 1_555 1_555
C10A C9A 1_555 1_555
C11A C6A 1_555 1_555
H7A C11A 1_555 1_555
C12A O3A 1_555 1_555
C13A C8A 1_555 1_555
C14A C13A 1_555 1_555
H8A C14A 1_555 1_555
C15A C14A 1_555 1_555
H9A C15A 1_555 1_555
C16A C15A 1_555 1_555
C17A C16A 1_555 1_555
H10A C17A 1_555 1_555
C18A C13A 1_555 1_555
H11A C18A 1_555 1_555
C19A C16A 1_555 1_555
C20A C19A 1_555 1_555
H12A C20A 1_555 1_555
C21A C20A 1_555 1_555
H13A C21A 1_555 1_555
C22A C21A 1_555 1_555
C23A C22A 1_555 1_555
H14A C23A 1_555 1_555
C24A C19A 1_555 1_555
H15A C24A 1_555 1_555
C25A C22A 1_555 1_555
C26A O7A 1_555 1_555
C27A C26A 1_555 1_555
C28A C27A 1_555 1_555
H16A C28A 1_555 1_555
C29A C28A 1_555 1_555
H17A C29A 1_555 1_555
C30A C29A 1_555 1_555
C31A C30A 1_555 1_555
H18A C31A 1_555 1_555
C32A C27A 1_555 1_555
H19A C32A 1_555 1_555
C33A C30A 1_555 1_555
C34A C33A 1_555 1_555
H20A C34A 1_555 1_555
C35A C34A 1_555 1_555
H21A C35A 1_555 1_555
C36A C35A 1_555 1_555
C37A C36A 1_555 1_555
H22A C37A 1_555 1_555
C38A C33A 1_555 1_555
H23A C38A 1_555 1_555
C39A C40A 1_555 1_555
C40A C41A 1_555 1_555
C41A H24A 1_555 1_555
C42A C36A 1_555 1_555
C43A C42A 1_555 1_555
H25A C43A 1_555 1_555
C44A C43A 1_555 1_555
C45A C44A 1_555 1_555
C46A C40A 1_555 1_555
H26A C46A 1_555 1_555
C57A H31A 1_555 1_555
H32A C57A 1_555 1_555
H33A C57A 1_555 1_555
C58A N1A 1_555 1_555
H34A C58A 1_555 1_555
C59A N1A 1_555 1_555
H35A C59A 1_555 1_555
H36A C59A 1_555 1_555
H37A C59A 1_555 1_555
Ba1A_2 O13 1_555 1_555
Ba1B O6 1_555 1_555
Ba1B_2 O11 1_555 1_555
Ba1C O11A 1_555 1_555
Ba1C_2 O6A 1_555 1_555
Ba2_2 O8A 1_555 1_555
Ba2A_2 O8 1_555 1_555
Ba2B O10A 1_555 1_555
Ba2B_2 O11 1_555 1_555
Ba2C O11A 1_555 1_555
Ba2C_2 O10 1_555 1_555
Ba3A_2 O17A 1_555 1_555
Ba3B O5 1_555 1_555
Ba3B_2 O15A 1_555 1_555
Ba3C O5A 1_555 1_555
Ba3C_2 O15 1_555 1_555
La1_2 O1A 1_555 1_555
La1_3 O17A 1_555 1_555
La1B O15 1_555 1_555
O1A_2 La1 1_555 1_555
O5B Ba3 1_555 1_555
O5C Ba3A 1_555 1_555
O6B Ba1 1_555 1_555
O6C Ba1A 1_555 1_555
O8_2 Ba2A 1_555 1_555
O8A_2 Ba2 1_555 1_555
O9B Ba1 1_555 1_555
O9C Ba1A 1_555 1_555
O10B Ba2A 1_555 1_555
O10B_2 Ba1 1_555 1_555
O10C Ba1A 1_555 1_555
O10C_2 Ba2 1_555 1_555
O11B Ba1 1_555 1_555
O11C Ba1A 1_555 1_555
O12B Ba1 1_555 1_555
O12C Ba1A 1_555 1_555
O13_2 Ba1A 1_555 1_555
O15B Ba3A 1_555 1_555
O15B_2 La1 1_555 1_555
O15C Ba3 1_555 1_555
O17A_2 Ba3A 1_555 1_555
O17A_3 La1 1_555 1_555
O18A_2 La1 1_555 1_555
Ba2 O7 1_555 1_555
Ba2 O11B 1_555 1_555
Ba3 O19 1_555 1_555
Ba3 O6B 1_555 1_555
La1 O17 1_555 1_555
La1 O15C 1_555 1_555
O4 Ba2A 1_555 1_555
O6 Ba3B 1_555 1_555
O8 C26 1_555 1_555
O9 Ba1B 1_555 1_555
O10 Ba1B 1_555 1_555
O12 Ba1B_2 1_555 1_555
O16 C58 1_555 1_555
O18 C49 1_555 1_555
C10 C11 1_555 1_555
C17 C18 1_555 1_555
C23 C24 1_555 1_555
C31 C32 1_555 1_555
C37 C38 1_555 1_555
C41 C42 1_555 1_555
C44 C46 1_555 1_555
C48 C49 1_555 1_555
C55 C56 1_555 1_555
O15A La1B 1_555 1_555
C1A C2A 1_555 1_555
O18A La1_3 1_555 1_555
C48A C50A 1_555 1_555
C53A C54A 1_555 1_555
Ba2A O3A 1_555 1_555
Ba2A O7A 1_555 1_555
Ba2A O11C 1_555 1_555
Ba3A O19A 1_555 1_555
Ba3A O6C 1_555 1_555
O4A C12A 1_555 1_555
O6A Ba3C 1_555 1_555
O8A C26A 1_555 1_555
O9A Ba1C_2 1_555 1_555
O10A Ba1C_2 1_555 1_555
O12A Ba1C 1_555 1_555
O16A C58A 1_555 1_555
C10A C11A 1_555 1_555
C10A C12A 1_555 1_555
C17A C18A 1_555 1_555
C23A C24A 1_555 1_555
C31A C32A 1_555 1_555
C37A C38A 1_555 1_555
C41A C42A 1_555 1_555
C44A C46A 1_555 1_555
Ba1A_2 O8A_2 1_555 1_555
Ba1A_2 O10C_2 1_555 1_555
Ba2_2 O10C 1_555 1_555
Ba2A_2 O10B_2 1_555 1_555
La1_2 O15B 1_555 1_555
La1_2 O17A_2 1_555 1_555

#END
