
#######################################################################
#
#                 Cambridge Crystallographic Data Centre
#                                CCDC 
#
#######################################################################
#
# If this CIF has been generated from an entry in the Cambridge 
# Structural Database, then it will include bibliographic, chemical, 
# crystal, experimental, refinement or atomic coordinate data resulting 
# from the CCDC's data processing and validation procedures.
#
#######################################################################

data_OPIFIE
_chemical_formula_moiety         '(C50 H32 N2 O8 Zn2)n'
_symmetry_cell_setting           monoclinic
_symmetry_space_group_name_H-M   'C 2/c'
_symmetry_Int_Tables_number      15
_space_group_name_Hall           '-C 2yc'
loop_
_symmetry_equiv_pos_site_id
_symmetry_equiv_pos_as_xyz
1 x,y,z
2 -x,y,1/2-z
3 1/2+x,1/2+y,z
4 1/2-x,1/2+y,1/2-z
5 -x,-y,-z
6 x,-y,1/2+z
7 1/2-x,1/2-y,-z
8 1/2+x,1/2-y,1/2+z
_cell_length_a                   23.9468(10)
_cell_length_b                   9.1029(3)
_cell_length_c                   26.8693(10)
_cell_angle_alpha                90
_cell_angle_beta                 116.161(5)
_cell_angle_gamma                90
_cell_volume                     5257.1
loop_
_atom_site_label
_atom_site_type_symbol
_atom_site_fract_x
_atom_site_fract_y
_atom_site_fract_z
_atom_site_U_iso_or_equiv
_atom_site_thermal_displace_type
Zn1 Zn 0.24399(2) 0.02430(4) 0.27174(2) 0.0313 Uani
O1 O 0.24010(9) 0.0804(2) 0.19955(7) 0.0301 Uani
O2 O 0.23938(9) 0.3106(2) 0.22493(7) 0.0275 Uani
O3 O 0.35409(11) 0.1100(3) 0.31988(9) 0.0474 Uani
O4 O 0.27774(11) 0.1343(3) 0.34318(9) 0.0457 Uani
C1 C 0.11564(12) -0.0921(3) 0.24400(12) 0.0335 Uani
H1 H 0.1313 -0.1781 0.2363 0.0400 Uiso
N1 N 0.15169(10) 0.0277(3) 0.25844(9) 0.0284 Uani
C2 C 0.24789(15) 0.1728(3) 0.10396(11) 0.0362 Uani
H2 H 0.2504 0.0734 0.1126 0.0430 Uiso
C3 C 0.42713(14) 0.2990(3) 0.41112(11) 0.0373 Uani
H3 H 0.4465 0.2586 0.3910 0.0450 Uiso
C4 C 0.37005(16) 0.2613(4) 0.39723(14) 0.0480 Uani
H4 H 0.3509 0.2993 0.4179 0.0580 Uiso
C5 C 0.46409(12) 0.4018(3) 0.45680(11) 0.0312 Uani
C6 C 0.03162(12) 0.0338(3) 0.25117(11) 0.0296 Uani
C7 C 0.46074(12) 0.5526(3) 0.44629(11) 0.0320 Uani
C8 C 0.24072(11) 0.2164(3) 0.19111(9) 0.0246 Uani
C9 C 0.42092(19) 0.7579(4) 0.38232(14) 0.0582 Uani
H5 H 0.3963 0.7933 0.3468 0.0700 Uiso
C10 C 0.15646(16) 0.0594(4) 0.00124(13) 0.0455 Uani
H6 H 0.1560 0.0349 0.0347 0.0550 Uiso
C11 C 0.25005(14) 0.2140(3) 0.05128(11) 0.0337 Uani
C12 C 0.50327(13) 0.3478(3) 0.51002(12) 0.0348 Uani
C13 C 0.4560(3) 0.8561(4) 0.42533(17) 0.0781 Uani
H7 H 0.4544 0.9563 0.4181 0.0930 Uiso
C14 C 0.05616(13) -0.0936(3) 0.24000(12) 0.0356 Uani
H8 H 0.0326 -0.1793 0.2299 0.0430 Uiso
C15 C 0.06847(14) 0.1594(3) 0.26448(14) 0.0394 Uani
H9 H 0.0533 0.2478 0.2710 0.0470 Uiso
C16 C 0.33281(15) 0.1604(3) 0.35006(11) 0.0384 Uani
C17 C 0.4920(2) 0.8057(4) 0.47710(14) 0.0613 Uani
H10 H 0.5143 0.8725 0.5051 0.0740 Uiso
C18 C 0.24273(14) 0.2649(3) 0.13917(11) 0.0337 Uani
H11 H 0.2402 0.3649 0.1313 0.0400 Uiso
C19 C 0.42310(14) 0.6122(4) 0.39267(12) 0.0411 Uani
H12 H 0.3993 0.5489 0.3640 0.0490 Uiso
C20 C 0.12779(14) 0.1518(3) 0.26797(13) 0.0390 Uani
H13 H 0.1521 0.2363 0.2773 0.0470 Uiso
C21 C 0.29614(14) 0.3077(3) 0.05077(11) 0.0357 Uani
C22 C 0.20393(14) 0.1551(3) 0.00144(11) 0.0342 Uani
C23 C 0.3890(2) 0.4548(6) 0.09792(16) 0.0637 Uani
H14 H 0.4207 0.4897 0.1308 0.0760 Uiso
C24 C 0.34503(16) 0.3661(5) 0.09966(12) 0.0496 Uani
H15 H 0.3466 0.3421 0.1339 0.0600 Uiso
C25 C 0.38739(19) 0.4956(5) 0.04619(17) 0.0569 Uani
H16 H 0.4168 0.5607 0.0453 0.0690 Uiso
O1F O 0.25990(9) 0.4196(2) -0.19955(7) 0.0301 Uani
O2F O 0.26062(9) 0.1894(2) -0.22493(7) 0.0275 Uani
C2F C 0.25211(15) 0.3272(3) -0.10396(11) 0.0362 Uani
H2F H 0.2496 0.4266 -0.1126 0.0430 Uiso
C8F C 0.25928(11) 0.2836(3) -0.19111(9) 0.0246 Uani
C10F C 0.34354(16) 0.4406(4) -0.00124(13) 0.0455 Uani
H6F H 0.3440 0.4651 -0.0347 0.0550 Uiso
C11F C 0.24995(14) 0.2860(3) -0.05128(11) 0.0337 Uani
C18F C 0.25727(14) 0.2351(3) -0.13917(11) 0.0337 Uani
H11F H 0.2598 0.1351 -0.1313 0.0400 Uiso
C21F C 0.20386(14) 0.1923(3) -0.05077(11) 0.0357 Uani
C22F C 0.29607(14) 0.3449(3) -0.00144(11) 0.0342 Uani
C23F C 0.1110(2) 0.0452(6) -0.09792(16) 0.0637 Uani
H14F H 0.0793 0.0103 -0.1308 0.0760 Uiso
C24F C 0.15497(16) 0.1339(5) -0.09966(12) 0.0496 Uani
H15F H 0.1534 0.1579 -0.1339 0.0600 Uiso
C25F C 0.11261(19) 0.0044(5) -0.04619(17) 0.0569 Uani
H16F H 0.0832 -0.0607 -0.0453 0.0690 Uiso
O3D O 0.64591(11) 0.8900(3) 0.68012(9) 0.0474 Uani
O4D O 0.72226(11) 0.8657(3) 0.65682(9) 0.0457 Uani
C3D C 0.57287(14) 0.7010(3) 0.58888(11) 0.0373 Uani
H3D H 0.5535 0.7414 0.6090 0.0450 Uiso
C4D C 0.62995(16) 0.7387(4) 0.60277(14) 0.0480 Uani
H4D H 0.6491 0.7007 0.5821 0.0580 Uiso
C5D C 0.53591(12) 0.5982(3) 0.54320(11) 0.0312 Uani
C7D C 0.53926(12) 0.4474(3) 0.55371(11) 0.0320 Uani
C9D C 0.57908(19) 0.2421(4) 0.61768(14) 0.0582 Uani
H5D H 0.6037 0.2067 0.6532 0.0700 Uiso
C12D C 0.49673(13) 0.6522(3) 0.48998(12) 0.0348 Uani
C13D C 0.5440(3) 0.1439(4) 0.57467(17) 0.0781 Uani
H7D H 0.5456 0.0437 0.5819 0.0930 Uiso
C16D C 0.66719(15) 0.8396(3) 0.64994(11) 0.0384 Uani
C17D C 0.5080(2) 0.1943(4) 0.52290(14) 0.0613 Uani
H10D H 0.4857 0.1275 0.4949 0.0740 Uiso
C19D C 0.57690(14) 0.3878(4) 0.60733(12) 0.0411 Uani
H12D H 0.6007 0.4511 0.6360 0.0490 Uiso
C1A C -0.11564(12) -0.0921(3) 0.25600(12) 0.0335 Uani
H1A H -0.1313 -0.1781 0.2637 0.0400 Uiso
N1A N -0.15169(10) 0.0277(3) 0.24156(9) 0.0284 Uani
C6A C -0.03162(12) 0.0338(3) 0.24883(11) 0.0296 Uani
C14A C -0.05616(13) -0.0936(3) 0.26000(12) 0.0356 Uani
H8A H -0.0326 -0.1793 0.2701 0.0430 Uiso
C15A C -0.06847(14) 0.1594(3) 0.23552(14) 0.0394 Uani
H9A H -0.0533 0.2478 0.2290 0.0470 Uiso
C20A C -0.12779(14) 0.1518(3) 0.23203(13) 0.0390 Uani
H13A H -0.1521 0.2363 0.2227 0.0470 Uiso
Zn1A Zn -0.24399(2) 0.02430(4) 0.22826(2) 0.0313 Uani
Zn1C Zn 0.25601(2) 0.52430(4) 0.22826(2) 0.0313 Uani
Zn1D Zn 0.75601(2) 0.97570(4) 0.72826(2) 0.0313 Uani
Zn1E Zn 0.24399(2) -0.02430(4) -0.22826(2) 0.0313 Uani
Zn1F Zn 0.25601(2) 0.47570(4) -0.27174(2) 0.0313 Uani
O1A O -0.24010(9) 0.0804(2) 0.30045(7) 0.0301 Uani
O2B O -0.26062(9) -0.1894(2) 0.22493(7) 0.0275 Uani
O2C O 0.26062(9) -0.1894(2) 0.27507(7) 0.0275 Uani
O3A O -0.35409(11) 0.1100(3) 0.18012(9) 0.0474 Uani
O4A O -0.27774(11) 0.1343(3) 0.15682(9) 0.0457 Uani
loop_
_atom_site_aniso_label
_atom_site_aniso_U_11
_atom_site_aniso_U_22
_atom_site_aniso_U_33
_atom_site_aniso_U_23
_atom_site_aniso_U_13
_atom_site_aniso_U_12
Zn1 0.0345(2) 0.0331(2) 0.0248(2) -0.00087(11) 0.01170(16) -0.00364(12)
O1 0.0462(10) 0.0239(10) 0.0212(8) -0.0007(7) 0.0158(8) -0.0021(8)
O2 0.0380(9) 0.0265(9) 0.0202(8) -0.0012(7) 0.0148(7) -0.0009(8)
O3 0.0596(14) 0.0412(12) 0.0314(10) -0.0147(10) 0.0108(10) -0.0115(11)
O4 0.0454(12) 0.0450(13) 0.0334(10) -0.0117(10) 0.0053(9) -0.0200(10)
C1 0.0306(13) 0.0312(15) 0.0364(13) -0.0079(11) 0.0126(11) -0.0010(11)
N1 0.0228(10) 0.0342(13) 0.0251(11) -0.0024(9) 0.0078(9) -0.0029(8)
C2 0.0546(17) 0.0343(14) 0.0241(12) 0.0029(11) 0.0215(12) 0.0009(13)
C3 0.0407(15) 0.0324(15) 0.0272(13) -0.0101(12) 0.0044(11) -0.0055(12)
C4 0.0456(17) 0.0501(19) 0.0409(16) -0.0267(16) 0.0123(14) -0.0173(15)
C5 0.0285(12) 0.0282(14) 0.0268(12) -0.0107(11) 0.0029(10) -0.0069(10)
C6 0.0271(13) 0.0309(15) 0.0278(13) -0.0011(10) 0.0094(10) -0.0007(10)
C7 0.0275(12) 0.0311(14) 0.0274(13) -0.0075(12) 0.0031(10) -0.0033(11)
C8 0.0259(11) 0.0287(13) 0.0181(10) 0.0022(10) 0.0088(9) -0.0002(10)
C9 0.069(2) 0.0400(18) 0.0335(16) 0.0005(15) -0.0067(15) 0.0023(17)
C10 0.0563(19) 0.0538(18) 0.0360(15) 0.0009(15) 0.0291(14) -0.0046(16)
C11 0.0466(15) 0.0361(15) 0.0227(12) 0.0024(11) 0.0192(11) 0.0053(12)
C12 0.0369(14) 0.0263(13) 0.0295(12) -0.0073(12) 0.0040(11) -0.0038(11)
C13 0.111(4) 0.0269(18) 0.050(2) 0.0005(16) -0.007(2) -0.002(2)
C14 0.0303(13) 0.0323(15) 0.0415(15) -0.0069(12) 0.0134(11) -0.0067(11)
C15 0.0349(14) 0.0289(14) 0.0543(17) -0.0064(13) 0.0197(13) 0.0000(11)
C16 0.0453(16) 0.0282(13) 0.0234(12) -0.0020(11) -0.0017(11) -0.0112(12)
C17 0.085(3) 0.0267(16) 0.0365(17) -0.0087(13) -0.0057(17) -0.0051(17)
C18 0.0537(16) 0.0280(13) 0.0232(12) 0.0057(11) 0.0203(12) 0.0022(12)
C19 0.0425(15) 0.0358(15) 0.0273(13) -0.0065(12) -0.0007(12) -0.0035(13)
C20 0.0345(14) 0.0316(15) 0.0506(17) -0.0047(13) 0.0186(13) -0.0074(11)
C21 0.0463(15) 0.0402(16) 0.0241(12) -0.0006(12) 0.0187(11) 0.0034(13)
C22 0.0449(15) 0.0372(15) 0.0253(12) -0.0006(11) 0.0199(11) 0.0008(12)
C23 0.059(2) 0.093(3) 0.0362(17) -0.0157(19) 0.0184(16) -0.023(2)
C24 0.0506(18) 0.074(3) 0.0257(13) -0.0050(15) 0.0183(13) -0.0084(17)
C25 0.051(2) 0.074(2) 0.051(2) -0.0078(19) 0.0274(18) -0.0204(18)
O1F 0.0462 0.0239 0.0212 -0.0007 0.0158 -0.0021
O2F 0.038 0.0265 0.0202 -0.0012 0.0148 -0.0009
C2F 0.0546 0.0343 0.0241 0.0029 0.0215 0.0009
C8F 0.0259 0.0287 0.0181 0.0022 0.0088 -0.0002
C10F 0.0563 0.0538 0.036 0.0009 0.0291 -0.0046
C11F 0.0466 0.0361 0.0227 0.0024 0.0192 0.0053
C18F 0.0537 0.028 0.0232 0.0057 0.0203 0.0022
C21F 0.0463 0.0402 0.0241 -0.0006 0.0187 0.0034
C22F 0.0449 0.0372 0.0253 -0.0006 0.0199 0.0008
C23F 0.059 0.093 0.0362 -0.0157 0.0184 -0.023
C24F 0.0506 0.074 0.0257 -0.005 0.0183 -0.0084
C25F 0.051 0.074 0.051 -0.0078 0.0274 -0.0204
O3D 0.0596 0.0412 0.0314 -0.0147 0.0108 -0.0115
O4D 0.0454 0.045 0.0334 -0.0117 0.0053 -0.02
C3D 0.0407 0.0324 0.0272 -0.0101 0.0044 -0.0055
C4D 0.0456 0.0501 0.0409 -0.0267 0.0123 -0.0173
C5D 0.0285 0.0282 0.0268 -0.0107 0.0029 -0.0069
C7D 0.0275 0.0311 0.0274 -0.0075 0.0031 -0.0033
C9D 0.069 0.04 0.0335 0.0005 -0.0067 0.0023
C12D 0.0369 0.0263 0.0295 -0.0073 0.004 -0.0038
C13D 0.111 0.0269 0.05 0.0005 -0.007 -0.002
C16D 0.0453 0.0282 0.0234 -0.002 -0.0017 -0.0112
C17D 0.085 0.0267 0.0365 -0.0087 -0.0057 -0.0051
C19D 0.0425 0.0358 0.0273 -0.0065 -0.0007 -0.0035
C1A 0.0306 0.0312 0.0364 0.0079 0.0126 0.001
N1A 0.0228 0.0342 0.0251 0.0024 0.0078 0.0029
C6A 0.0271 0.0309 0.0278 0.0011 0.0094 0.0007
C14A 0.0303 0.0323 0.0415 0.0069 0.0134 0.0067
C15A 0.0349 0.0289 0.0543 0.0064 0.0197 0
C20A 0.0345 0.0316 0.0506 0.0047 0.0186 0.0074
Zn1A 0.0345 0.0331 0.0248 0.00087 0.0117 0.00364
Zn1C 0.0345 0.0331 0.0248 0.00087 0.0117 0.00364
Zn1D 0.0345 0.0331 0.0248 -0.00087 0.0117 -0.00364
Zn1E 0.0345 0.0331 0.0248 0.00087 0.0117 0.00364
Zn1F 0.0345 0.0331 0.0248 -0.00087 0.0117 -0.00364
O1A 0.0462 0.0239 0.0212 0.0007 0.0158 0.0021
O2B 0.038 0.0265 0.0202 -0.0012 0.0148 -0.0009
O2C 0.038 0.0265 0.0202 0.0012 0.0148 0.0009
O3A 0.0596 0.0412 0.0314 0.0147 0.0108 0.0115
O4A 0.0454 0.045 0.0334 0.0117 0.0053 0.02
loop_
_geom_bond_atom_site_label_1
_geom_bond_atom_site_label_2
_geom_bond_site_symmetry_1
_geom_bond_site_symmetry_2
Zn1 O1 1_555 1_555
O1 C8 1_555 1_555
O2 C8 1_555 1_555
O3 Zn1 1_555 1_555
O4 Zn1 1_555 1_555
C1 H1 1_555 1_555
N1 Zn1 1_555 1_555
C2 H2 1_555 1_555
C3 H3 1_555 1_555
C4 C3 1_555 1_555
H4 C4 1_555 1_555
C5 C3 1_555 1_555
C6 C14 1_555 1_555
C7 C5 1_555 1_555
C8 C18 1_555 1_555
C9 H5 1_555 1_555
C10 H6 1_555 1_555
C11 C2 1_555 1_555
C12 C5 1_555 1_555
C13 C9 1_555 1_555
H7 C13 1_555 1_555
C14 C1 1_555 1_555
H8 C14 1_555 1_555
C15 C6 1_555 1_555
H9 C15 1_555 1_555
C16 O3 1_555 1_555
C17 C13 1_555 1_555
H10 C17 1_555 1_555
C18 C2 1_555 1_555
H11 C18 1_555 1_555
C19 C7 1_555 1_555
H12 C19 1_555 1_555
C20 N1 1_555 1_555
H13 C20 1_555 1_555
C21 C11 1_555 1_555
C22 C10 1_555 1_555
C23 H14 1_555 1_555
C24 C21 1_555 1_555
H15 C24 1_555 1_555
C25 C23 1_555 1_555
H16 C25 1_555 1_555
O1F C8F 1_555 1_555
O2F C8F 1_555 1_555
C2F H2F 1_555 1_555
C8F C18F 1_555 1_555
C10F C25 1_555 1_555
H6F C10F 1_555 1_555
C11F C2F 1_555 1_555
C18F C2F 1_555 1_555
H11F C18F 1_555 1_555
C21F C22 1_555 1_555
C22F C21 1_555 1_555
C23F H14F 1_555 1_555
C24F C21F 1_555 1_555
H15F C24F 1_555 1_555
C25F C10 1_555 1_555
H16F C25F 1_555 1_555
O3D C16D 1_555 1_555
O4D C16D 1_555 1_555
C3D H3D 1_555 1_555
C4D C3D 1_555 1_555
H4D C4D 1_555 1_555
C5D C3D 1_555 1_555
C7D C12 1_555 1_555
C9D H5D 1_555 1_555
C12D C7 1_555 1_555
C13D C9D 1_555 1_555
H7D C13D 1_555 1_555
C16D C4D 1_555 1_555
C17D C12 1_555 1_555
H10D C17D 1_555 1_555
C19D C7D 1_555 1_555
H12D C19D 1_555 1_555
C1A H1A 1_555 1_555
N1A C1A 1_555 1_555
C6A C6 1_555 1_555
C14A C1A 1_555 1_555
H8A C14A 1_555 1_555
C15A C6A 1_555 1_555
H9A C15A 1_555 1_555
C20A N1A 1_555 1_555
H13A C20A 1_555 1_555
Zn1A N1A 1_555 1_555
Zn1C O2 1_555 1_555
Zn1D O3D 1_555 1_555
Zn1E O2F 1_555 1_555
Zn1F O1F 1_555 1_555
O1A Zn1A 1_555 1_555
O2B Zn1A 1_555 1_555
O2C Zn1 1_555 1_555
O3A Zn1A 1_555 1_555
O4A Zn1A 1_555 1_555
O4 C16 1_555 1_555
C1 N1 1_555 1_555
C4 C16 1_555 1_555
C9 C19 1_555 1_555
C11 C22 1_555 1_555
C15 C20 1_555 1_555
C17 C12D 1_555 1_555
C23 C24 1_555 1_555
C10F C22F 1_555 1_555
C11F C21F 1_555 1_555
C11F C22F 1_555 1_555
C23F C24F 1_555 1_555
C23F C25F 1_555 1_555
O4D Zn1D 1_555 1_555
C5D C7D 1_555 1_555
C5D C12D 1_555 1_555
C9D C19D 1_555 1_555
C13D C17D 1_555 1_555
C6A C14A 1_555 1_555
C15A C20A 1_555 1_555

#END
