
#######################################################################
#
#                 Cambridge Crystallographic Data Centre
#                                CCDC 
#
#######################################################################
#
# If this CIF has been generated from an entry in the Cambridge 
# Structural Database, then it will include bibliographic, chemical, 
# crystal, experimental, refinement or atomic coordinate data resulting 
# from the CCDC's data processing and validation procedures.
#
#######################################################################

data_GUTYIE
_chemical_formula_moiety         '(C15 H9 N2 O8 Zn1 1-)n'
_symmetry_cell_setting           monoclinic
_symmetry_space_group_name_H-M   'C 2/c'
_symmetry_Int_Tables_number      15
_space_group_name_Hall           '-C 2yc'
loop_
_symmetry_equiv_pos_site_id
_symmetry_equiv_pos_as_xyz
1 x,y,z
2 -x,y,1/2-z
3 1/2+x,1/2+y,z
4 1/2-x,1/2+y,1/2-z
5 -x,-y,-z
6 x,-y,1/2+z
7 1/2-x,1/2-y,-z
8 1/2+x,1/2-y,1/2+z
_cell_length_a                   9.9218(3)
_cell_length_b                   12.6530(4)
_cell_length_c                   15.5131(4)
_cell_angle_alpha                90
_cell_angle_beta                 90.7610(10)
_cell_angle_gamma                90
_cell_volume                     1947.35
loop_
_atom_site_label
_atom_site_type_symbol
_atom_site_fract_x
_atom_site_fract_y
_atom_site_fract_z
_atom_site_U_iso_or_equiv
_atom_site_thermal_displace_type
Zn1 Zn 0.00000 1.003412(15) 0.25000 0.0132 Uani
O1 O 0.08033(11) 0.91261(9) 0.33845(6) 0.0267 Uani
O2 O 0.24474(16) 0.82630(13) 0.27283(8) 0.0515 Uani
O3 O 0.42578(11) 0.60225(9) 0.33355(7) 0.0284 Uani
O4 O 0.20598(12) 0.59379(11) 0.30487(7) 0.0352 Uani
C1 C 0.21048(13) 0.79261(11) 0.41998(9) 0.0160 Uani
C2 C 0.28047(13) 0.69662(11) 0.42340(9) 0.0160 Uani
C3 C 0.31984(14) 0.65644(11) 0.50319(9) 0.0167 Uani
H1 H 0.368 0.5934 0.5053 0.0200 Uiso
C4 C 0.17617(15) 0.84669(11) 0.33556(9) 0.0195 Uani
C5 C 0.30448(14) 0.62737(11) 0.34556(9) 0.0182 Uani
Zn1B Zn 0.50000 0.503412(15) 0.25000 0.0132 Uani
Zn1D Zn 0.00000 0.996588(15) 0.75000 0.0132 Uani
Zn1F Zn 0.50000 0.496588(15) 0.75000 0.0132 Uani
O1F O 0.41967(11) 0.58739(9) 0.66155(6) 0.0267 Uani
O1A O -0.08033(11) 0.91261(9) 0.16155(6) 0.0267 Uani
O2F O 0.25526(16) 0.67370(13) 0.72717(8) 0.0515 Uani
O3F O 0.07422(11) 0.89775(9) 0.66645(7) 0.0284 Uani
O3B O -0.07422(11) 1.10225(9) 0.33355(7) 0.0284 Uani
O3C O 0.07422(11) 1.10225(9) 0.16645(7) 0.0284 Uani
O4F O 0.29402(12) 0.90621(11) 0.69513(7) 0.0352 Uani
C1F C 0.28952(13) 0.70739(11) 0.58002(9) 0.0160 Uani
C2F C 0.21953(13) 0.80338(11) 0.57660(9) 0.0160 Uani
C3F C 0.18016(14) 0.84356(11) 0.49681(9) 0.0167 Uani
H1F H 0.132 0.9066 0.4947 0.0200 Uiso
C4F C 0.32383(15) 0.65331(11) 0.66444(9) 0.0195 Uani
C5F C 0.19552(14) 0.87263(11) 0.65444(9) 0.0182 Uani
N1 N 0.27858(15) 0.86519(11) 0.10611(9) 0.0318 Uani
H2 H 0.2495 0.8591 0.1578 0.0380 Uiso
C6 C 0.19016(17) 0.87414(13) 0.04024(11) 0.0304 Uani
H3 H 0.0983 0.8736 0.0514 0.0370 Uiso
C7 C 0.23198(16) 0.88393(13) -0.04223(11) 0.0267 Uani
H4 H 0.1693 0.8899 -0.0871 0.0320 Uiso
C8 C 0.37112(16) 0.88508(12) -0.05962(10) 0.0247 Uani
C9 C 0.46029(17) 0.87587(14) 0.01159(10) 0.0282 Uani
H5 H 0.5529 0.8768 0.0031 0.0340 Uiso
C10 C 0.41120(18) 0.86564(14) 0.09227(10) 0.0321 Uani
H6 H 0.4708 0.8588 0.1387 0.0390 Uiso
N2 N 0.41791(16) 0.89375(14) -0.13919(9) 0.0393 Uani
H7 H 0.3627 0.8989 -0.1822 0.0470 Uiso
H8 H 0.5034 0.8942 -0.1477 0.0470 Uiso
loop_
_atom_site_aniso_label
_atom_site_aniso_U_11
_atom_site_aniso_U_22
_atom_site_aniso_U_33
_atom_site_aniso_U_23
_atom_site_aniso_U_13
_atom_site_aniso_U_12
Zn1 0.01551(15) 0.01322(14) 0.01076(14) 0 0.00016(8) 0
O1 0.0323(6) 0.0293(6) 0.0183(5) 0.0060(4) -0.0017(4) 0.0142(5)
O2 0.0696(10) 0.0638(9) 0.0216(6) 0.0175(6) 0.0203(6) 0.0396(8)
O3 0.0263(6) 0.0333(6) 0.0257(6) -0.0116(5) 0.0034(4) 0.0104(5)
O4 0.0320(6) 0.0494(8) 0.0241(6) -0.0143(5) -0.0051(5) 0.0017(5)
C1 0.0164(6) 0.0175(7) 0.0141(6) 0.0014(5) 0.0002(5) 0.0025(5)
C2 0.0163(6) 0.0177(7) 0.0139(6) -0.0006(5) 0.0018(5) 0.0024(5)
C3 0.0177(6) 0.0159(6) 0.0165(7) 0.0005(5) 0.0001(5) 0.0049(5)
C4 0.0257(7) 0.0183(7) 0.0144(7) 0.0013(5) -0.0003(5) 0.0032(6)
C5 0.0251(7) 0.0170(7) 0.0125(6) 0.0014(5) 0.0014(5) 0.0050(5)
Zn1B 0.01551 0.01322 0.01076 0 0.00016 0
Zn1D 0.01551 0.01322 0.01076 0 0.00016 0
Zn1F 0.01551 0.01322 0.01076 0 0.00016 0
O1F 0.0323 0.0293 0.0183 0.006 -0.0017 0.0142
O1A 0.0323 0.0293 0.0183 -0.006 -0.0017 -0.0142
O2F 0.0696 0.0638 0.0216 0.0175 0.0203 0.0396
O3F 0.0263 0.0333 0.0257 -0.0116 0.0034 0.0104
O3B 0.0263 0.0333 0.0257 -0.0116 0.0034 0.0104
O3C 0.0263 0.0333 0.0257 0.0116 0.0034 -0.0104
O4F 0.032 0.0494 0.0241 -0.0143 -0.0051 0.0017
C1F 0.0164 0.0175 0.0141 0.0014 0.0002 0.0025
C2F 0.0163 0.0177 0.0139 -0.0006 0.0018 0.0024
C3F 0.0177 0.0159 0.0165 0.0005 0.0001 0.0049
C4F 0.0257 0.0183 0.0144 0.0013 -0.0003 0.0032
C5F 0.0251 0.017 0.0125 0.0014 0.0014 0.005
N1 0.0436(8) 0.0322(7) 0.0200(7) 0.0013(5) 0.0111(6) 0.0034(6)
C6 0.0279(8) 0.0269(8) 0.0367(9) 0.0029(7) 0.0087(7) 0.0051(6)
C7 0.0255(8) 0.0274(8) 0.0272(8) 0.0031(6) -0.0035(6) 0.0030(6)
C8 0.0285(8) 0.0258(8) 0.0198(7) -0.0001(6) 0.0006(6) -0.0005(6)
C9 0.0234(7) 0.0366(9) 0.0247(8) -0.0005(6) -0.0014(6) 0.0011(7)
C10 0.0402(9) 0.0358(9) 0.0202(8) 0.0004(7) -0.0052(7) 0.0022(7)
N2 0.0313(8) 0.0680(11) 0.0187(7) 0.0028(7) 0.0014(6) -0.0048(7)
loop_
_geom_bond_atom_site_label_1
_geom_bond_atom_site_label_2
_geom_bond_site_symmetry_1
_geom_bond_site_symmetry_2
Zn1 O1 1_555 1_555
O1 C4 1_555 1_555
O2 C4 1_555 1_555
O3 C5 1_555 1_555
O4 C5 1_555 1_555
C1 C2 1_555 1_555
C2 C3 1_555 1_555
C3 H1 1_555 1_555
C4 C1 1_555 1_555
C5 C2 1_555 1_555
N1 H2 1_555 1_555
C6 N1 1_555 1_555
H3 C6 1_555 1_555
C7 C6 1_555 1_555
H4 C7 1_555 1_555
C8 C7 1_555 1_555
C9 C8 1_555 1_555
H5 C9 1_555 1_555
C10 N1 1_555 1_555
H6 C10 1_555 1_555
N2 C8 1_555 1_555
H7 N2 1_555 1_555
H8 N2 1_555 1_555
Zn1B O3 1_555 1_555
Zn1D O3F 1_555 1_555
Zn1F O1F 1_555 1_555
O1F C4F 1_555 1_555
O1A Zn1 1_555 1_555
O2F C4F 1_555 1_555
O3F C5F 1_555 1_555
O3B Zn1 1_555 1_555
O3C Zn1 1_555 1_555
O4F C5F 1_555 1_555
C1F C3 1_555 1_555
C2F C1F 1_555 1_555
C3F C1 1_555 1_555
H1F C3F 1_555 1_555
C4F C1F 1_555 1_555
C5F C2F 1_555 1_555
C9 C10 1_555 1_555
C2F C3F 1_555 1_555

#END
