
#######################################################################
#
#                 Cambridge Crystallographic Data Centre
#                                CCDC 
#
#######################################################################
#
# If this CIF has been generated from an entry in the Cambridge 
# Structural Database, then it will include bibliographic, chemical, 
# crystal, experimental, refinement or atomic coordinate data resulting 
# from the CCDC's data processing and validation procedures.
#
#######################################################################

data_MORFEG
_chemical_formula_moiety         '(C48 H42 Cu4 N14 O10 4+)n'
_symmetry_cell_setting           orthorhombic
_symmetry_space_group_name_H-M   'F d d d'
_symmetry_Int_Tables_number      70
_space_group_name_Hall           '-F 2uv 2vw'
loop_
_symmetry_equiv_pos_site_id
_symmetry_equiv_pos_as_xyz
1 x,y,z
2 3/4-x,3/4-y,z
3 3/4-x,y,3/4-z
4 x,3/4-y,3/4-z
5 x,1/2+y,1/2+z
6 3/4-x,1/4-y,1/2+z
7 3/4-x,1/2+y,1/4-z
8 x,1/4-y,1/4-z
9 1/2+x,y,1/2+z
10 1/4-x,3/4-y,1/2+z
11 1/4-x,y,1/4-z
12 1/2+x,3/4-y,1/4-z
13 1/2+x,1/2+y,z
14 1/4-x,1/4-y,z
15 1/4-x,1/2+y,3/4-z
16 1/2+x,1/4-y,3/4-z
17 -x,-y,-z
18 1/4+x,1/4+y,-z
19 1/4+x,-y,1/4+z
20 -x,1/4+y,1/4+z
21 -x,1/2-y,1/2-z
22 1/4+x,3/4+y,1/2-z
23 1/4+x,1/2-y,3/4+z
24 -x,3/4+y,3/4+z
25 1/2-x,-y,1/2-z
26 3/4+x,1/4+y,1/2-z
27 3/4+x,-y,3/4+z
28 1/2-x,1/4+y,3/4+z
29 1/2-x,1/2-y,-z
30 3/4+x,3/4+y,-z
31 3/4+x,1/2-y,1/4+z
32 1/2-x,3/4+y,1/4+z
_cell_length_a                   14.6315(16)
_cell_length_b                   24.776(3)
_cell_length_c                   33.169(4)
_cell_angle_alpha                90
_cell_angle_beta                 90
_cell_angle_gamma                90
_cell_volume                     12024.1
loop_
_atom_site_label
_atom_site_type_symbol
_atom_site_fract_x
_atom_site_fract_y
_atom_site_fract_z
O4 O 0.524(4) 0.3750 0.3750
Cu1 Cu 0.56113(4) 0.17568(2) 0.590361(18)
C1 C 0.5078(5) 0.0799(2) 0.54442(19)
C2 C 0.4293(6) 0.0528(3) 0.5215(3)
H1 H 0.4539 0.0336 0.4985
H2 H 0.4001 0.0266 0.5390
C3 C 0.3596(5) 0.1057(3) 0.4685(3)
H3 H 0.4023 0.0904 0.4512
C4 C 0.3005(5) 0.1140(2) 0.5329(2)
H4 H 0.3023 0.1046 0.5600
C5 C 0.2969(4) 0.1420(3) 0.4537(2)
H5 H 0.2974 0.1512 0.4266
C6 C 0.2369(4) 0.1498(2) 0.51971(19)
H6 H 0.1953 0.1646 0.5379
C7 C 0.2333(4) 0.1647(2) 0.47930(18)
C8 C 0.1612(4) 0.2016(2) 0.46360(16)
C9 C 0.1437(4) 0.2044(3) 0.42270(18)
H7 H 0.1773 0.1834 0.4048
C10 C 0.1078(4) 0.2335(2) 0.48844(16)
H8 H 0.1169 0.2326 0.5162
C11 C 0.0766(4) 0.2382(3) 0.40847(17)
H9 H 0.0657 0.2394 0.3809
C12 C 0.0417(4) 0.2663(2) 0.47258(17)
H10 H 0.0063 0.2870 0.4900
N1 N 0.6250 0.2289(3) 0.6250
N2 N 0.6250 0.2767(3) 0.6250
N3 N 0.6250 0.3228(3) 0.6250
N4 N 0.3600(4) 0.0922(2) 0.50743(19)
N5 N 0.0261(3) 0.26955(17) 0.43273(13)
O1 O 0.6250 0.1250 0.6250
O2 O 0.4861(3) 0.12220(16) 0.56270(13)
O3 O 0.5818(3) 0.05592(19) 0.54412(14)
Cu1G Cu 0.56113(4) 0.07432(2) 0.659639(18)
C1G C 0.5078(5) 0.1701(2) 0.70558(19)
C2G C 0.4293(6) 0.1972(3) 0.7285(3)
H1G H 0.4539 0.2164 0.7515
H2G H 0.4001 0.2234 0.7110
C3G C 0.3596(5) 0.1443(3) 0.7815(3)
H3G H 0.4023 0.1596 0.7988
C4G C 0.3005(5) 0.1360(2) 0.7171(2)
H4G H 0.3023 0.1454 0.6900
C5G C 0.2969(4) 0.1080(3) 0.7963(2)
H5G H 0.2974 0.0988 0.8234
C6G C 0.2369(4) 0.1002(2) 0.73029(19)
H6G H 0.1953 0.0854 0.7121
C7G C 0.2333(4) 0.0853(2) 0.77070(18)
C8G C 0.1612(4) 0.0484(2) 0.78640(16)
C9G C 0.1437(4) 0.0456(3) 0.82730(18)
H7G H 0.1773 0.0666 0.8452
C10G C 0.1078(4) 0.0165(2) 0.76156(16)
H8G H 0.1169 0.0174 0.7338
C11G C 0.0766(4) 0.0118(3) 0.84153(17)
H9G H 0.0657 0.0106 0.8691
C12G C 0.0417(4) -0.0163(2) 0.77742(17)
H10G H 0.0063 -0.0370 0.7600
N1G N 0.6250 0.0211(3) 0.6250
N2G N 0.6250 -0.0267(3) 0.6250
N3G N 0.6250 -0.0728(3) 0.6250
N4G N 0.3600(4) 0.1578(2) 0.74257(19)
N5G N 0.0261(3) -0.01955(17) 0.81727(13)
O2G O 0.4861(3) 0.12780(16) 0.68730(13)
O3G O 0.5818(3) 0.19408(19) 0.70588(14)
Cu1J Cu 0.68887(4) 0.17568(2) 0.659639(18)
C1J C 0.7422(5) 0.0799(2) 0.70558(19)
C2J C 0.8207(6) 0.0528(3) 0.7285(3)
H1J H 0.7961 0.0336 0.7515
H2J H 0.8499 0.0266 0.7110
C3J C 0.8904(5) 0.1057(3) 0.7815(3)
H3J H 0.8477 0.0904 0.7988
C4J C 0.9495(5) 0.1140(2) 0.7171(2)
H4J H 0.9477 0.1046 0.6900
C5J C 0.9531(4) 0.1420(3) 0.7963(2)
H5J H 0.9526 0.1512 0.8234
C6J C 1.0131(4) 0.1498(2) 0.73029(19)
H6J H 1.0547 0.1646 0.7121
C7J C 1.0167(4) 0.1647(2) 0.77070(18)
C8J C 1.0888(4) 0.2016(2) 0.78640(16)
C9J C 1.1063(4) 0.2044(3) 0.82730(18)
H7J H 1.0727 0.1834 0.8452
C10J C 1.1422(4) 0.2335(2) 0.76156(16)
H8J H 1.1331 0.2326 0.7338
C11J C 1.1734(4) 0.2382(3) 0.84153(17)
H9J H 1.1843 0.2394 0.8691
C12J C 1.2083(4) 0.2663(2) 0.77742(17)
H10J H 1.2437 0.2870 0.7600
N4J N 0.8900(4) 0.0922(2) 0.74257(19)
N5J N 1.2239(3) 0.26955(17) 0.81727(13)
O2J O 0.7639(3) 0.12220(16) 0.68730(13)
O3J O 0.6682(3) 0.05592(19) 0.70588(14)
Cu1M Cu 0.68887(4) 0.07432(2) 0.590361(18)
C1M C 0.7422(5) 0.1701(2) 0.54442(19)
C2M C 0.8207(6) 0.1972(3) 0.5215(3)
H1M H 0.7961 0.2164 0.4985
H2M H 0.8499 0.2234 0.5390
C3M C 0.8904(5) 0.1443(3) 0.4685(3)
H3M H 0.8477 0.1596 0.4512
C4M C 0.9495(5) 0.1360(2) 0.5329(2)
H4M H 0.9477 0.1454 0.5600
C5M C 0.9531(4) 0.1080(3) 0.4537(2)
H5M H 0.9526 0.0988 0.4266
C6M C 1.0131(4) 0.1002(2) 0.51971(19)
H6M H 1.0547 0.0854 0.5379
C7M C 1.0167(4) 0.0853(2) 0.47930(18)
C8M C 1.0888(4) 0.0484(2) 0.46360(16)
C9M C 1.1063(4) 0.0456(3) 0.42270(18)
H7M H 1.0727 0.0666 0.4048
C10M C 1.1422(4) 0.0165(2) 0.48844(16)
H8M H 1.1331 0.0174 0.5162
C11M C 1.1734(4) 0.0118(3) 0.40847(17)
H9M H 1.1843 0.0106 0.3809
C12M C 1.2083(4) -0.0163(2) 0.47258(17)
H10M H 1.2437 -0.0370 0.4900
N4M N 0.8900(4) 0.1578(2) 0.50743(19)
N5M N 1.2239(3) -0.01955(17) 0.43273(13)
O2M O 0.7639(3) 0.12780(16) 0.56270(13)
O3M O 0.6682(3) 0.19408(19) 0.54412(14)
Cu1BA Cu -0.06113(4) 0.32432(2) 0.409639(18)
Cu1CA Cu 1.31113(4) -0.07432(2) 0.409639(18)
Cu1DA Cu 1.31113(4) 0.32432(2) 0.840361(18)
Cu1EA Cu -0.06113(4) -0.07432(2) 0.840361(18)
N5BA N 0.4739(3) 0.23045(17) 0.56727(13)
N5CA N 0.7761(3) 0.01955(17) 0.56727(13)
N5DA N 0.7761(3) 0.23045(17) 0.68273(13)
N5EA N 0.4739(3) 0.01955(17) 0.68273(13)
loop_
_geom_bond_atom_site_label_1
_geom_bond_atom_site_label_2
_geom_bond_site_symmetry_1
_geom_bond_site_symmetry_2
Cu1 N1 1_555 1_555
C1 C2 1_555 1_555
C2 H1 1_555 1_555
H2 C2 1_555 1_555
C3 H3 1_555 1_555
C4 H4 1_555 1_555
C5 C3 1_555 1_555
H5 C5 1_555 1_555
C6 C4 1_555 1_555
H6 C6 1_555 1_555
C7 C5 1_555 1_555
C8 C7 1_555 1_555
C9 C8 1_555 1_555
H7 C9 1_555 1_555
C10 C8 1_555 1_555
H8 C10 1_555 1_555
C11 C9 1_555 1_555
H9 C11 1_555 1_555
C12 C10 1_555 1_555
H10 C12 1_555 1_555
N1 N2 1_555 1_555
N2 N3 1_555 1_555
N4 C2 1_555 1_555
N5 C11 1_555 1_555
O1 Cu1 1_555 1_555
O2 Cu1 1_555 1_555
O3 C1 1_555 1_555
Cu1G O1 1_555 1_555
C1G C2G 1_555 1_555
C2G H1G 1_555 1_555
H2G C2G 1_555 1_555
C3G H3G 1_555 1_555
C4G H4G 1_555 1_555
C5G C3G 1_555 1_555
H5G C5G 1_555 1_555
C6G C4G 1_555 1_555
H6G C6G 1_555 1_555
C7G C5G 1_555 1_555
C8G C7G 1_555 1_555
C9G C8G 1_555 1_555
H7G C9G 1_555 1_555
C10G C8G 1_555 1_555
H8G C10G 1_555 1_555
C11G C9G 1_555 1_555
H9G C11G 1_555 1_555
C12G C10G 1_555 1_555
H10G C12G 1_555 1_555
N1G Cu1G 1_555 1_555
N2G N1G 1_555 1_555
N3G N2G 1_555 1_555
N4G C2G 1_555 1_555
N5G C11G 1_555 1_555
O2G Cu1G 1_555 1_555
O3G C1G 1_555 1_555
Cu1J N1 1_555 1_555
C1J C2J 1_555 1_555
C2J H1J 1_555 1_555
H2J C2J 1_555 1_555
C3J H3J 1_555 1_555
C4J H4J 1_555 1_555
C5J C3J 1_555 1_555
H5J C5J 1_555 1_555
C6J C4J 1_555 1_555
H6J C6J 1_555 1_555
C7J C5J 1_555 1_555
C8J C7J 1_555 1_555
C9J C8J 1_555 1_555
H7J C9J 1_555 1_555
C10J C8J 1_555 1_555
H8J C10J 1_555 1_555
C11J C9J 1_555 1_555
H9J C11J 1_555 1_555
C12J C10J 1_555 1_555
H10J C12J 1_555 1_555
N4J C2J 1_555 1_555
N5J C11J 1_555 1_555
O2J Cu1J 1_555 1_555
O3J Cu1G 1_555 1_555
Cu1M O1 1_555 1_555
C1M C2M 1_555 1_555
C2M H1M 1_555 1_555
H2M C2M 1_555 1_555
C3M H3M 1_555 1_555
C4M H4M 1_555 1_555
C5M C3M 1_555 1_555
H5M C5M 1_555 1_555
C6M C4M 1_555 1_555
H6M C6M 1_555 1_555
C7M C5M 1_555 1_555
C8M C7M 1_555 1_555
C9M C8M 1_555 1_555
H7M C9M 1_555 1_555
C10M C8M 1_555 1_555
H8M C10M 1_555 1_555
C11M C9M 1_555 1_555
H9M C11M 1_555 1_555
C12M C10M 1_555 1_555
H10M C12M 1_555 1_555
N4M C2M 1_555 1_555
N5M C11M 1_555 1_555
O2M Cu1M 1_555 1_555
O3M Cu1 1_555 1_555
Cu1BA N5 1_555 1_555
Cu1CA N5M 1_555 1_555
Cu1DA N5J 1_555 1_555
Cu1EA N5G 1_555 1_555
N5BA Cu1 1_555 1_555
N5CA Cu1M 1_555 1_555
N5DA Cu1J 1_555 1_555
N5EA Cu1G 1_555 1_555
C1 O2 1_555 1_555
C3 N4 1_555 1_555
C4 N4 1_555 1_555
C6 C7 1_555 1_555
C12 N5 1_555 1_555
O1 Cu1J 1_555 1_555
O3 Cu1M 1_555 1_555
C1G O2G 1_555 1_555
C3G N4G 1_555 1_555
C4G N4G 1_555 1_555
C6G C7G 1_555 1_555
C12G N5G 1_555 1_555
N1G Cu1M 1_555 1_555
O3G Cu1J 1_555 1_555
C1J O2J 1_555 1_555
C1J O3J 1_555 1_555
C3J N4J 1_555 1_555
C4J N4J 1_555 1_555
C6J C7J 1_555 1_555
C12J N5J 1_555 1_555
C1M O2M 1_555 1_555
C1M O3M 1_555 1_555
C3M N4M 1_555 1_555
C4M N4M 1_555 1_555
C6M C7M 1_555 1_555
C12M N5M 1_555 1_555

#END
