
#######################################################################
#
#                 Cambridge Crystallographic Data Centre
#                                CCDC 
#
#######################################################################
#
# If this CIF has been generated from an entry in the Cambridge 
# Structural Database, then it will include bibliographic, chemical, 
# crystal, experimental, refinement or atomic coordinate data resulting 
# from the CCDC's data processing and validation procedures.
#
#######################################################################

data_JOVXUP
_chemical_formula_moiety         '(C38 H22 N4 O8 Zn2)n'
_symmetry_cell_setting           orthorhombic
_symmetry_space_group_name_H-M   'P b a m'
_symmetry_Int_Tables_number      55
_space_group_name_Hall           '-P 2 2ab'
loop_
_symmetry_equiv_pos_site_id
_symmetry_equiv_pos_as_xyz
1 x,y,z
2 -x,-y,z
3 1/2+x,1/2-y,-z
4 1/2-x,1/2+y,-z
5 -x,-y,-z
6 x,y,-z
7 1/2-x,1/2+y,z
8 1/2+x,1/2-y,z
_cell_length_a                   15.1201(18)
_cell_length_b                   18.105(2)
_cell_length_c                   11.4444(14)
_cell_angle_alpha                90
_cell_angle_beta                 90
_cell_angle_gamma                90
_cell_volume                     3132.9
loop_
_atom_site_label
_atom_site_type_symbol
_atom_site_fract_x
_atom_site_fract_y
_atom_site_fract_z
C1 C 0.2653(3) 0.0867(2) 0.0000
C2 C 0.2514(3) 0.16261(19) 0.0000
H1 H 0.3002 0.1939 0.0000
C3 C 0.1657(3) 0.1939(2) 0.0000
C4 C 0.0933(3) 0.1436(2) 0.0000
H2 H 0.0358 0.1618 0.0000
C5 C 0.1073(3) 0.0664(2) 0.0000
C6 C 0.1925(3) 0.03894(19) 0.0000
H3 H 0.2017 -0.0119 0.0000
C7 C 0.1507(3) 0.2718(2) 0.0000
C8 C 0.3591(2) 0.05569(19) 0.0000
C9 C 0.0319(3) 0.0198(2) 0.0000
C10 C 0.6181(2) 0.0659(2) 0.2499(3)
H4 H 0.6645 0.0441 0.2093
C11 C 0.6211(2) 0.0667(2) 0.3724(3)
H5 H 0.6695 0.0459 0.4103
C12 C 0.5567(2) 0.09666(17) 0.4355(3)
C13 C 0.4884(2) 0.12608(19) 0.3695(3)
H6 H 0.4394 0.1463 0.4067
C14 C 0.4922(2) 0.12565(19) 0.2527(3)
H7 H 0.4473 0.1499 0.2125
N1 N 0.55347(17) 0.09419(15) 0.1912(2)
O1 O 0.2113(2) 0.31652(15) 0.0000
O2 O 0.07222(19) 0.29469(16) 0.0000
O3 O 0.36464(16) -0.01295(13) 0.0000
O4 O 0.41848(18) 0.10000(16) 0.0000
Zn1 Zn 0.55230(3) 0.09850(2) 0.0000
C1A C -0.2653(3) -0.0867(2) 0.0000
C2A C -0.2514(3) -0.16261(19) 0.0000
H1A H -0.3002 -0.1939 0.0000
C3A C -0.1657(3) -0.1939(2) 0.0000
C4A C -0.0933(3) -0.1436(2) 0.0000
H2A H -0.0358 -0.1618 0.0000
C5A C -0.1073(3) -0.0664(2) 0.0000
C6A C -0.1925(3) -0.03894(19) 0.0000
H3A H -0.2017 0.0119 0.0000
C7A C -0.1507(3) -0.2718(2) 0.0000
C8A C -0.3591(2) -0.05569(19) 0.0000
C9A C -0.0319(3) -0.0198(2) 0.0000
O1A O -0.2113(2) -0.31652(15) 0.0000
O2A O -0.07222(19) -0.29469(16) 0.0000
O3A O -0.36464(16) 0.01295(13) 0.0000
O4A O -0.41848(18) -0.10000(16) 0.0000
C10E C 0.6181(2) 0.0659(2) 0.7501(3)
H4E H 0.6645 0.0441 0.7907
C11E C 0.6211(2) 0.0667(2) 0.6276(3)
H5E H 0.6695 0.0459 0.5897
C12E C 0.5567(2) 0.09666(17) 0.5645(3)
C13E C 0.4884(2) 0.12608(19) 0.6305(3)
H6E H 0.4394 0.1463 0.5933
C14E C 0.4922(2) 0.12565(19) 0.7473(3)
H7E H 0.4473 0.1499 0.7875
N1E N 0.55347(17) 0.09419(15) 0.8088(2)
C10A C -0.6181(2) -0.0659(2) 0.2499(3)
H4A H -0.6645 -0.0441 0.2093
C11A C -0.6211(2) -0.0667(2) 0.3724(3)
H5A H -0.6695 -0.0459 0.4103
C12A C -0.5567(2) -0.09666(17) 0.4355(3)
C13A C -0.4884(2) -0.12608(19) 0.3695(3)
H6A H -0.4394 -0.1463 0.4067
C14A C -0.4922(2) -0.12565(19) 0.2527(3)
H7A H -0.4473 -0.1499 0.2125
N1A N -0.55347(17) -0.09419(15) 0.1912(2)
Zn1A Zn -0.55230(3) -0.09850(2) 0.0000
C10D C -0.6181(2) -0.0659(2) 0.7501(3)
H4D H -0.6645 -0.0441 0.7907
C11D C -0.6211(2) -0.0667(2) 0.6276(3)
H5D H -0.6695 -0.0459 0.5897
C12D C -0.5567(2) -0.09666(17) 0.5645(3)
C13D C -0.4884(2) -0.12608(19) 0.6305(3)
H6D H -0.4394 -0.1463 0.5933
C14D C -0.4922(2) -0.12565(19) 0.7473(3)
H7D H -0.4473 -0.1499 0.7875
N1D N -0.55347(17) -0.09419(15) 0.8088(2)
N1D_2 N -0.55347(17) -0.09419(15) -0.1912(2)
N1E_2 N 0.55347(17) 0.09419(15) -0.1912(2)
O2B O 0.57222(19) 0.20531(16) 0.0000
O2C O -0.57222(19) -0.20531(16) 0.0000
O3_2 O -0.63536(16) -0.01295(13) 0.0000
O3A_2 O 0.63536(16) 0.01295(13) 0.0000
Zn1_2 Zn -0.44770(3) 0.09850(2) 0.0000
Zn1_3 Zn 0.55230(3) 0.09850(2) 1.0000
Zn1A_2 Zn -0.55230(3) -0.09850(2) 1.0000
Zn1A_3 Zn 0.44770(3) -0.09850(2) 0.0000
Zn1B Zn 0.05230(3) 0.40150(2) 0.0000
Zn1C Zn -0.05230(3) -0.40150(2) 0.0000
loop_
_geom_bond_atom_site_label_1
_geom_bond_atom_site_label_2
_geom_bond_site_symmetry_1
_geom_bond_site_symmetry_2
C1 C2 1_555 1_555
C2 H1 1_555 1_555
C3 C2 1_555 1_555
C4 C3 1_555 1_555
H2 C4 1_555 1_555
C5 C4 1_555 1_555
C6 C1 1_555 1_555
H3 C6 1_555 1_555
C7 C3 1_555 1_555
C8 C1 1_555 1_555
C9 C5 1_555 1_555
C10 H4 1_555 1_555
C11 C10 1_555 1_555
H5 C11 1_555 1_555
C12 C11 1_555 1_555
C13 C12 1_555 1_555
H6 C13 1_555 1_555
C14 C13 1_555 1_555
H7 C14 1_555 1_555
N1 C10 1_555 1_555
O1 C7 1_555 1_555
O2 C7 1_555 1_555
O3 C8 1_555 1_555
O4 C8 1_555 1_555
Zn1 N1 1_555 1_555
C1A C2A 1_555 1_555
C2A H1A 1_555 1_555
C3A C2A 1_555 1_555
C4A C3A 1_555 1_555
H2A C4A 1_555 1_555
C5A C4A 1_555 1_555
C6A C1A 1_555 1_555
H3A C6A 1_555 1_555
C7A C3A 1_555 1_555
C8A C1A 1_555 1_555
C9A C9 1_555 1_555
O1A C7A 1_555 1_555
O2A C7A 1_555 1_555
O3A C8A 1_555 1_555
O4A C8A 1_555 1_555
C10E H4E 1_555 1_555
C11E C10E 1_555 1_555
H5E C11E 1_555 1_555
C12E C12 1_555 1_555
C13E C12E 1_555 1_555
H6E C13E 1_555 1_555
C14E C13E 1_555 1_555
H7E C14E 1_555 1_555
N1E C10E 1_555 1_555
C10A H4A 1_555 1_555
C11A C10A 1_555 1_555
H5A C11A 1_555 1_555
C12A C11A 1_555 1_555
C13A C12A 1_555 1_555
H6A C13A 1_555 1_555
C14A C13A 1_555 1_555
H7A C14A 1_555 1_555
N1A C10A 1_555 1_555
Zn1A O4A 1_555 1_555
C10D H4D 1_555 1_555
C11D C10D 1_555 1_555
H5D C11D 1_555 1_555
C12D C12A 1_555 1_555
C13D C12D 1_555 1_555
H6D C13D 1_555 1_555
C14D C13D 1_555 1_555
H7D C14D 1_555 1_555
N1D C10D 1_555 1_555
N1D_2 Zn1A 1_555 1_555
N1E_2 Zn1 1_555 1_555
O2B Zn1 1_555 1_555
O2C Zn1A 1_555 1_555
O3_2 Zn1A 1_555 1_555
O3A_2 Zn1 1_555 1_555
Zn1_2 O3A 1_555 1_555
Zn1_3 N1E 1_555 1_555
Zn1A_2 N1D 1_555 1_555
Zn1A_3 O3 1_555 1_555
Zn1B O2 1_555 1_555
Zn1C O2A 1_555 1_555
C5 C6 1_555 1_555
C14 N1 1_555 1_555
O4 Zn1 1_555 1_555
C5A C6A 1_555 1_555
C5A C9A 1_555 1_555
C11E C12E 1_555 1_555
C14E N1E 1_555 1_555
C14A N1A 1_555 1_555
N1A Zn1A 1_555 1_555
C11D C12D 1_555 1_555
C14D N1D 1_555 1_555

#END
