
#######################################################################
#
#                 Cambridge Crystallographic Data Centre
#                                CCDC 
#
#######################################################################
#
# If this CIF has been generated from an entry in the Cambridge 
# Structural Database, then it will include bibliographic, chemical, 
# crystal, experimental, refinement or atomic coordinate data resulting 
# from the CCDC's data processing and validation procedures.
#
#######################################################################

data_OXOZUY
_chemical_formula_moiety         '(C42 H33 N2 O8 Tb1)n'
_symmetry_cell_setting           monoclinic
_symmetry_space_group_name_H-M   'P 2/c'
_symmetry_Int_Tables_number      13
_space_group_name_Hall           '-P 2yc'
loop_
_symmetry_equiv_pos_site_id
_symmetry_equiv_pos_as_xyz
1 x,y,z
2 -x,y,1/2-z
3 -x,-y,-z
4 x,-y,1/2+z
_cell_length_a                   21.8891(18)
_cell_length_b                   9.1070(8)
_cell_length_c                   32.038(3)
_cell_angle_alpha                90
_cell_angle_beta                 124.121(2)
_cell_angle_gamma                90
_cell_volume                     5287.16
loop_
_atom_site_label
_atom_site_type_symbol
_atom_site_fract_x
_atom_site_fract_y
_atom_site_fract_z
C1 C 0.3074(4) -0.2746(8) 0.3426(3)
C2 C 0.5713(4) -0.0923(7) 0.4164(3)
O1 O 0.8957(3) -0.0817(6) 0.4513(2)
Tb1 Tb -0.01767(2) 0.79816(4) 0.444780(16)
O2 O -0.0032(3) 0.7088(7) 0.5214(2)
O3 O 0.0130(3) -0.9497(5) 0.0826(2)
C3 C 0.2957(4) 0.2094(8) 0.3962(3)
H1 H 0.3067 0.3099 0.3956
O4 O 0.0506(3) 0.5658(5) 0.4625(2)
C4 C 0.2017(4) 0.2841(8) 0.4149(3)
O5 O 0.0957(3) -1.1054(5) 0.1395(2)
C5 C 0.0750(4) -0.7160(9) 0.1553(3)
H2 H 0.0295 -0.6951 0.1244
N1 N 0.3502(3) -0.1595(6) 0.3753(3)
O6 O 0.9038(3) 0.1220(6) 0.4931(2)
O7 O 0.0473(3) 0.7182(5) 0.4071(2)
C6 C 0.0676(5) -0.9771(8) 0.1267(3)
C7 C 0.7919(4) -0.0136(8) 0.4534(3)
C8 C 0.6471(4) -0.0696(8) 0.4271(3)
C9 C 0.1186(4) 0.4912(8) 0.4279(3)
C10 C 0.1859(4) 0.2658(7) 0.4498(3)
H3 H 0.2041 0.1810 0.4707
C11 C 0.3172(4) -0.0467(8) 0.3877(3)
C12 C 0.1029(5) -0.8556(9) 0.1653(3)
C13 C 0.4815(4) -0.1016(7) 0.4394(3)
H4 H 0.4716 -0.0926 0.4646
C14 C 0.2231(4) -0.5079(8) 0.2749(3)
C15 C 0.2662(4) -0.0850(8) 0.3989(3)
H5 H 0.2565 -0.1856 0.4007
C16 C 0.0697(4) 0.6001(9) 0.4318(3)
C17 C 0.3327(4) 0.1004(8) 0.3874(3)
H6 H 0.3688 0.1282 0.3812
C18 C 0.2022(5) -0.7678(9) 0.2490(4)
H7 H 0.2446 -0.7915 0.2813
C19 C 0.6922(4) 0.0486(7) 0.4605(3)
H8 H 0.6729 0.1098 0.4745
O8 O -0.1135(4) 0.6217(7) 0.4051(3)
C20 C 0.4245(4) -0.1406(8) 0.3896(3)
C21 C 0.1784(5) -0.6268(9) 0.2385(3)
C22 C 0.2289(4) 0.0250(8) 0.4075(3)
H9 H 0.1935 -0.0019 0.4145
C23 C 0.1140(5) -0.6026(8) 0.1911(3)
H10 H 0.0952 -0.5053 0.1823
C24 C 0.2968(5) -0.5227(8) 0.3129(3)
H11 H 0.3202 -0.6144 0.3169
C25 C 0.2438(4) 0.1722(8) 0.4058(3)
C26 C 0.8684(4) 0.0106(9) 0.4658(3)
C27 C 0.1438(4) 0.3671(8) 0.4563(3)
H12 H 0.1328 0.3490 0.4806
C28 C 0.6772(4) -0.1585(8) 0.4084(3)
H13 H 0.6498 -0.2393 0.3873
C29 C 0.7486(4) -0.1297(8) 0.4205(3)
H14 H 0.7681 -0.1894 0.4063
C30 C 0.1367(4) 0.5135(8) 0.3945(4)
H15 H 0.1205 0.6018 0.3755
C31 C 0.3375(4) -0.4106(8) 0.3451(3)
H16 H 0.3884 -0.4267 0.3701
C32 C 0.7643(4) 0.0756(7) 0.4728(3)
H17 H 0.7928 0.1547 0.4944
C33 C 0.1929(4) -0.3702(9) 0.2730(3)
H18 H 0.1419 -0.3553 0.2481
C34 C 0.5136(4) -0.1350(8) 0.3664(3)
H19 H 0.5239 -0.1479 0.3415
C35 C 0.1779(5) 0.4142(9) 0.3860(4)
H20 H 0.1892 0.4339 0.3620
C36 C 0.2329(4) -0.2534(7) 0.3054(3)
H21 H 0.2098 -0.1619 0.3022
C37 C 0.1653(5) -0.8802(9) 0.2129(4)
H22 H 0.1842 -0.9772 0.2217
C38 C 0.4406(4) -0.1582(9) 0.3538(3)
H23 H 0.4026 -0.1860 0.3204
C39 C 0.5535(4) -0.0760(8) 0.4515(3)
H24 H 0.5910 -0.0466 0.4849
N2 N -0.2115(6) 0.4840(12) 0.3718(5)
C40 C -0.1673(13) 0.594(2) 0.3680(12)
C41 C -0.2753(9) 0.5141(15) 0.3215(6)
C42 C -0.2157(9) 0.3658(19) 0.3991(7)
H25 H -0.030(3) 0.641(4) 0.520(2)
H26 H 0.011(6) 0.763(9) 0.547(3)
O1_2 O -0.1043(3) 0.9183(6) 0.4513(2)
Tb1_2 Tb 0.98233(2) -0.20184(4) 0.444780(16)
Tb1A Tb 0.01767(2) -1.20184(4) 0.055220(16)
Tb1B Tb 1.01767(2) 0.20184(4) 0.555220(16)
O3A O -0.0130(3) 1.0503(5) 0.4174(2)
O5A O -0.0957(3) 0.8946(5) 0.3605(2)
O6B O 0.0962(3) 0.8780(6) 0.5069(2)
loop_
_geom_bond_atom_site_label_1
_geom_bond_atom_site_label_2
_geom_bond_site_symmetry_1
_geom_bond_site_symmetry_2
C1 N1 1_555 1_555
C2 C8 1_555 1_555
O1 C26 1_555 1_555
Tb1 O2 1_555 1_555
O2 H25 1_555 1_555
O3 C6 1_555 1_555
C3 H1 1_555 1_555
O4 Tb1 1_555 1_555
C4 C10 1_555 1_555
O5 C6 1_555 1_555
C5 H2 1_555 1_555
N1 C11 1_555 1_555
O6 C26 1_555 1_555
O7 Tb1 1_555 1_555
C6 C12 1_555 1_555
C7 C26 1_555 1_555
C8 C19 1_555 1_555
C9 C16 1_555 1_555
C10 H3 1_555 1_555
C11 C15 1_555 1_555
C12 C5 1_555 1_555
C13 H4 1_555 1_555
C14 C21 1_555 1_555
C15 H5 1_555 1_555
C16 O4 1_555 1_555
C17 C3 1_555 1_555
H6 C17 1_555 1_555
C18 H7 1_555 1_555
C19 H8 1_555 1_555
O8 Tb1 1_555 1_555
C20 N1 1_555 1_555
C21 C18 1_555 1_555
C22 C15 1_555 1_555
H9 C22 1_555 1_555
C23 C5 1_555 1_555
H10 C23 1_555 1_555
C24 C14 1_555 1_555
H11 C24 1_555 1_555
C25 C3 1_555 1_555
C27 C9 1_555 1_555
H12 C27 1_555 1_555
C28 C8 1_555 1_555
H13 C28 1_555 1_555
C29 C7 1_555 1_555
H14 C29 1_555 1_555
C30 C9 1_555 1_555
H15 C30 1_555 1_555
C31 C1 1_555 1_555
H16 C31 1_555 1_555
C32 C7 1_555 1_555
H17 C32 1_555 1_555
C33 C14 1_555 1_555
H18 C33 1_555 1_555
C34 C2 1_555 1_555
H19 C34 1_555 1_555
C35 C4 1_555 1_555
H20 C35 1_555 1_555
C36 C1 1_555 1_555
H21 C36 1_555 1_555
C37 C12 1_555 1_555
H22 C37 1_555 1_555
C38 C20 1_555 1_555
H23 C38 1_555 1_555
C39 C2 1_555 1_555
H24 C39 1_555 1_555
N2 C40 1_555 1_555
C40 O8 1_555 1_555
C41 N2 1_555 1_555
C42 N2 1_555 1_555
H26 O2 1_555 1_555
O1_2 Tb1 1_555 1_555
Tb1_2 O1 1_555 1_555
Tb1A O3 1_555 1_555
Tb1B O6 1_555 1_555
O3A Tb1 1_555 1_555
O5A Tb1 1_555 1_555
O6B Tb1 1_555 1_555
C4 C25 1_555 1_555
O5 Tb1A 1_555 1_555
O7 C16 1_555 1_555
C10 C27 1_555 1_555
C11 C17 1_555 1_555
C13 C20 1_555 1_555
C13 C39 1_555 1_555
C18 C37 1_555 1_555
C19 C32 1_555 1_555
C21 C23 1_555 1_555
C22 C25 1_555 1_555
C24 C31 1_555 1_555
C28 C29 1_555 1_555
C30 C35 1_555 1_555
C33 C36 1_555 1_555
C34 C38 1_555 1_555

#END
