
#######################################################################
#
#                 Cambridge Crystallographic Data Centre
#                                CCDC 
#
#######################################################################
#
# If this CIF has been generated from an entry in the Cambridge 
# Structural Database, then it will include bibliographic, chemical, 
# crystal, experimental, refinement or atomic coordinate data resulting 
# from the CCDC's data processing and validation procedures.
#
#######################################################################

data_ALAHUS
_chemical_formula_moiety         '(C43 H29 N2 O23 Tb3)n'
_symmetry_cell_setting           tetragonal
_symmetry_space_group_name_H-M   'I -4 2 d'
_symmetry_Int_Tables_number      122
_space_group_name_Hall           'I -4 2bw'
loop_
_symmetry_equiv_pos_site_id
_symmetry_equiv_pos_as_xyz
1 x,y,z
2 y,-x,-z
3 -x,-y,z
4 -y,x,-z
5 x,1/2-y,1/4-z
6 -x,1/2+y,1/4-z
7 -y,1/2-x,1/4+z
8 y,1/2+x,1/4+z
9 1/2+x,1/2+y,1/2+z
10 1/2+y,1/2-x,1/2-z
11 1/2-x,1/2-y,1/2+z
12 1/2-y,1/2+x,1/2-z
13 1/2+x,-y,3/4-z
14 1/2-x,y,3/4-z
15 1/2-y,-x,3/4+z
16 1/2+y,x,3/4+z
_cell_length_a                   14.234(4)
_cell_length_b                   14.234(4)
_cell_length_c                   63.76(3)
_cell_angle_alpha                90
_cell_angle_beta                 90
_cell_angle_gamma                90
_cell_volume                     12918.2
loop_
_atom_site_label
_atom_site_type_symbol
_atom_site_fract_x
_atom_site_fract_y
_atom_site_fract_z
Tb1 Tb 0.5000 0.0000 0.459415(7)
Tb2 Tb 0.22408(4) -0.01677(4) 0.438196(7)
O1 O 0.3691(4) 0.0391(4) 0.42818(9)
O2 O 0.5052(6) 0.1127(4) 0.43022(9)
O3 O 0.3238(5) 0.0072(6) 0.34779(9)
O4 O 0.3180(7) 0.1361(6) 0.32923(11)
O5 O 0.4059(5) 0.1283(5) 0.47003(11)
O6 O 0.2548(5) 0.0934(5) 0.46430(11)
O7 O 0.1116(6) 0.2190(6) 0.53200(12)
O8 O 0.0927(5) 0.3718(5) 0.53451(12)
O9 O 0.5000 -0.0000 0.49783(16)
O10 O 0.3067(9) -0.1450(7) 0.42180(15)
O11 O 0.1253(13) -0.1662(17) 0.4288(3)
O12 O 0.0752(6) 0.0107(13) 0.44945(19)
N1 N 0.5402(8) 0.3944(8) 0.44220(15)
C1 C 0.4291(7) 0.0991(6) 0.42146(13)
C2 C 0.4061(7) 0.1517(7) 0.40145(14)
C3 C 0.3811(7) 0.1038(7) 0.38384(14)
H1 H 0.3757 0.0387 0.3842
C4 C 0.3638(8) 0.1509(8) 0.36559(17)
C5 C 0.3329(9) 0.0923(9) 0.34593(18)
C6 C 0.3741(9) 0.2467(9) 0.36447(16)
H2 H 0.3671 0.2774 0.3517
C7 C 0.3944(9) 0.2960(9) 0.38191(17)
H3 H 0.3962 0.3613 0.3812
C8 C 0.4129(8) 0.2510(8) 0.40116(15)
C9 C 0.4302(8) 0.3011(6) 0.42074(13)
C10 C 0.5205(9) 0.3512(9) 0.42412(17)
H4 H 0.5645 0.3525 0.4134
C11 C 0.4777(8) 0.3823(8) 0.45813(17)
H5 H 0.4936 0.4096 0.4709
C12 C 0.3946(8) 0.3350(7) 0.45755(15)
C13 C 0.3688(8) 0.2935(7) 0.43793(17)
H6 H 0.3120 0.2618 0.4366
C14 C 0.3286(8) 0.3244(7) 0.47582(14)
C15 C 0.2927(7) 0.2371(7) 0.48139(13)
C16 C 0.3205(8) 0.1459(7) 0.47118(16)
C17 C 0.2286(8) 0.2354(7) 0.49690(14)
H7 H 0.1991 0.1787 0.4999
C18 C 0.2038(8) 0.3152(7) 0.50880(13)
C19 C 0.2373(10) 0.3986(8) 0.50291(17)
H8 H 0.2164 0.4535 0.5093
C20 C 0.3049(9) 0.4022(7) 0.48680(16)
H9 H 0.3338 0.4591 0.4837
C21 C 0.1326(8) 0.2991(7) 0.52630(15)
C22 C 0.0000 -0.0000 0.4417(5)
H10 H 0.0000 -0.0000 0.4271
O12B O -0.0752(6) -0.0107(13) 0.44945(19)
Tb2A Tb -0.01677(4) -0.22408(4) 0.561804(7)
O1A O 0.0391(4) -0.3691(4) 0.57182(9)
O2A O 0.1127(4) -0.5052(6) 0.56978(9)
O3A O 0.0072(6) -0.3238(5) 0.65221(9)
O4A O 0.1361(6) -0.3180(7) 0.67077(11)
O5A O 0.1283(5) -0.4059(5) 0.52997(11)
O6A O 0.0934(5) -0.2548(5) 0.53570(11)
O7A O 0.2190(6) -0.1116(6) 0.46800(12)
O8A O 0.3718(5) -0.0927(5) 0.46549(12)
O10A O -0.1450(7) -0.3067(9) 0.57820(15)
O11A O -0.1662(17) -0.1253(13) 0.5712(3)
N1A N 0.3944(8) -0.5402(8) 0.55780(15)
C1A C 0.0991(6) -0.4291(7) 0.57854(13)
C2A C 0.1517(7) -0.4061(7) 0.59855(14)
C3A C 0.1038(7) -0.3811(7) 0.61616(14)
H1A H 0.0387 -0.3757 0.6158
C4A C 0.1509(8) -0.3638(8) 0.63441(17)
C5A C 0.0923(9) -0.3329(9) 0.65407(18)
C6A C 0.2467(9) -0.3741(9) 0.63553(16)
H2A H 0.2774 -0.3671 0.6483
C7A C 0.2960(9) -0.3944(9) 0.61809(17)
H3A H 0.3613 -0.3962 0.6188
C8A C 0.2510(8) -0.4129(8) 0.59884(15)
C9A C 0.3011(6) -0.4302(8) 0.57926(13)
C10A C 0.3512(9) -0.5205(9) 0.57588(17)
H4A H 0.3525 -0.5645 0.5866
C11A C 0.3823(8) -0.4777(8) 0.54187(17)
H5A H 0.4096 -0.4936 0.5291
C12A C 0.3350(7) -0.3946(8) 0.54245(15)
C13A C 0.2935(7) -0.3688(8) 0.56207(17)
H6A H 0.2618 -0.3120 0.5634
C14A C 0.3244(7) -0.3286(8) 0.52418(14)
C15A C 0.2371(7) -0.2927(7) 0.51861(13)
C16A C 0.1459(7) -0.3205(8) 0.52882(16)
C17A C 0.2354(7) -0.2286(8) 0.50310(14)
H7A H 0.1787 -0.1991 0.5001
C18A C 0.3152(7) -0.2038(8) 0.49120(13)
C19A C 0.3986(8) -0.2373(10) 0.49709(17)
H8A H 0.4535 -0.2164 0.4907
C20A C 0.4022(7) -0.3049(9) 0.51320(16)
H9A H 0.4591 -0.3338 0.5163
C21A C 0.2991(7) -0.1326(8) 0.47370(15)
Tb1A Tb 0.0000 -0.5000 0.540585(7)
Tb1A_2 Tb 0.0000 0.5000 0.540585(7)
Tb2B Tb -0.22408(4) 0.01677(4) 0.438196(7)
Tb2C Tb 0.01677(4) 0.22408(4) 0.561804(7)
Tb2G Tb -0.01677(4) -0.27592(4) 0.688196(7)
Tb2M Tb 0.27592(4) -0.01677(4) 0.311804(7)
O1B O 0.6309(4) -0.0391(4) 0.42818(9)
O2B O 0.4948(6) -0.1127(4) 0.43022(9)
O3G O 0.0072(6) -0.1762(5) 0.59779(9)
O3M O 0.1762(5) 0.0072(6) 0.40221(9)
O4G O 0.1361(6) -0.1820(7) 0.57923(11)
O4M O 0.1820(7) 0.1361(6) 0.42077(11)
O5B O 0.5941(5) -0.1283(5) 0.47003(11)
O7B O -0.1116(6) -0.2190(6) 0.53200(12)
O8C O 0.6282(5) 0.0927(5) 0.46549(12)
O12A O 0.0107(13) -0.0752(6) 0.55055(19)
loop_
_geom_bond_atom_site_label_1
_geom_bond_atom_site_label_2
_geom_bond_site_symmetry_1
_geom_bond_site_symmetry_2
Tb1 O1 1_555 1_555
Tb2 O1 1_555 1_555
O1 C1 1_555 1_555
O2 Tb1 1_555 1_555
O3 C5 1_555 1_555
O4 C5 1_555 1_555
O5 Tb1 1_555 1_555
O6 Tb2 1_555 1_555
O7 C21 1_555 1_555
O8 C21 1_555 1_555
O9 Tb1 1_555 1_555
O10 Tb2 1_555 1_555
O11 Tb2 1_555 1_555
O12 Tb2 1_555 1_555
N1 C10 1_555 1_555
C1 O2 1_555 1_555
C2 C1 1_555 1_555
C3 C2 1_555 1_555
H1 C3 1_555 1_555
C4 C3 1_555 1_555
C5 C4 1_555 1_555
C6 C4 1_555 1_555
H2 C6 1_555 1_555
C7 C6 1_555 1_555
H3 C7 1_555 1_555
C8 C2 1_555 1_555
C9 C8 1_555 1_555
C10 C9 1_555 1_555
H4 C10 1_555 1_555
C11 N1 1_555 1_555
H5 C11 1_555 1_555
C12 C11 1_555 1_555
C13 C9 1_555 1_555
H6 C13 1_555 1_555
C14 C12 1_555 1_555
C15 C14 1_555 1_555
C16 O5 1_555 1_555
C17 C15 1_555 1_555
H7 C17 1_555 1_555
C18 C17 1_555 1_555
C19 C18 1_555 1_555
H8 C19 1_555 1_555
C20 C14 1_555 1_555
H9 C20 1_555 1_555
C21 C18 1_555 1_555
C22 O12 1_555 1_555
H10 C22 1_555 1_555
O12B C22 1_555 1_555
Tb2A O1A 1_555 1_555
O1A C1A 1_555 1_555
O2A C1A 1_555 1_555
O3A C5A 1_555 1_555
O4A C5A 1_555 1_555
O5A C16A 1_555 1_555
O6A Tb2A 1_555 1_555
O7A Tb2 1_555 1_555
O8A Tb1 1_555 1_555
O10A Tb2A 1_555 1_555
O11A Tb2A 1_555 1_555
N1A C10A 1_555 1_555
C1A C2A 1_555 1_555
C2A C3A 1_555 1_555
C3A H1A 1_555 1_555
C4A C3A 1_555 1_555
C5A C4A 1_555 1_555
C6A C4A 1_555 1_555
H2A C6A 1_555 1_555
C7A C6A 1_555 1_555
H3A C7A 1_555 1_555
C8A C2A 1_555 1_555
C9A C8A 1_555 1_555
C10A C9A 1_555 1_555
H4A C10A 1_555 1_555
C11A N1A 1_555 1_555
H5A C11A 1_555 1_555
C12A C11A 1_555 1_555
C13A C9A 1_555 1_555
H6A C13A 1_555 1_555
C14A C12A 1_555 1_555
C15A C14A 1_555 1_555
C16A O6A 1_555 1_555
C17A C15A 1_555 1_555
H7A C17A 1_555 1_555
C18A C17A 1_555 1_555
C19A C18A 1_555 1_555
H8A C19A 1_555 1_555
C20A C14A 1_555 1_555
H9A C20A 1_555 1_555
C21A O7A 1_555 1_555
Tb1A O1A 1_555 1_555
Tb1A_2 O8 1_555 1_555
Tb2B O12B 1_555 1_555
Tb2C O7 1_555 1_555
Tb2G O3A 1_555 1_555
Tb2M O3 1_555 1_555
O1B Tb1 1_555 1_555
O2B Tb1 1_555 1_555
O3G Tb2A 1_555 1_555
O3M Tb2 1_555 1_555
O4G Tb2A 1_555 1_555
O4M Tb2 1_555 1_555
O5B Tb1 1_555 1_555
O7B Tb2A 1_555 1_555
O8C Tb1 1_555 1_555
O12A Tb2A 1_555 1_555
O4 Tb2M 1_555 1_555
O6 C16 1_555 1_555
C7 C8 1_555 1_555
C12 C13 1_555 1_555
C15 C16 1_555 1_555
C19 C20 1_555 1_555
O2A Tb1A 1_555 1_555
O4A Tb2G 1_555 1_555
O5A Tb1A 1_555 1_555
O8A C21A 1_555 1_555
C7A C8A 1_555 1_555
C12A C13A 1_555 1_555
C15A C16A 1_555 1_555
C18A C21A 1_555 1_555
C19A C20A 1_555 1_555

#END
