
#######################################################################
#
#                 Cambridge Crystallographic Data Centre
#                                CCDC 
#
#######################################################################
#
# If this CIF has been generated from an entry in the Cambridge 
# Structural Database, then it will include bibliographic, chemical, 
# crystal, experimental, refinement or atomic coordinate data resulting 
# from the CCDC's data processing and validation procedures.
#
#######################################################################

data_DABFAQ
_chemical_formula_moiety         '(C54 H44 Cd2 N4 O8)n'
_symmetry_cell_setting           orthorhombic
_symmetry_space_group_name_H-M   'F d d d'
_symmetry_Int_Tables_number      70
_space_group_name_Hall           '-F 2uv 2vw'
loop_
_symmetry_equiv_pos_site_id
_symmetry_equiv_pos_as_xyz
1 x,y,z
2 3/4-x,3/4-y,z
3 3/4-x,y,3/4-z
4 x,3/4-y,3/4-z
5 x,1/2+y,1/2+z
6 3/4-x,1/4-y,1/2+z
7 3/4-x,1/2+y,1/4-z
8 x,1/4-y,1/4-z
9 1/2+x,y,1/2+z
10 1/4-x,3/4-y,1/2+z
11 1/4-x,y,1/4-z
12 1/2+x,3/4-y,1/4-z
13 1/2+x,1/2+y,z
14 1/4-x,1/4-y,z
15 1/4-x,1/2+y,3/4-z
16 1/2+x,1/4-y,3/4-z
17 -x,-y,-z
18 1/4+x,1/4+y,-z
19 1/4+x,-y,1/4+z
20 -x,1/4+y,1/4+z
21 -x,1/2-y,1/2-z
22 1/4+x,3/4+y,1/2-z
23 1/4+x,1/2-y,3/4+z
24 -x,3/4+y,3/4+z
25 1/2-x,-y,1/2-z
26 3/4+x,1/4+y,1/2-z
27 3/4+x,-y,3/4+z
28 1/2-x,1/4+y,3/4+z
29 1/2-x,1/2-y,-z
30 3/4+x,3/4+y,-z
31 3/4+x,1/2-y,1/4+z
32 1/2-x,3/4+y,1/4+z
_cell_length_a                   10.5042(13)
_cell_length_b                   43.810(4)
_cell_length_c                   43.810(4)
_cell_angle_alpha                90
_cell_angle_beta                 90
_cell_angle_gamma                90
_cell_volume                     20160.9
loop_
_atom_site_label
_atom_site_type_symbol
_atom_site_fract_x
_atom_site_fract_y
_atom_site_fract_z
_atom_site_U_iso_or_equiv
_atom_site_thermal_displace_type
Cd1 Cd 1.89802(3) -0.012505(8) -0.222917(8) 0.0467 Uani
C1 C 2.0431(5) -0.04129(13) -0.18030(11) 0.0590 Uani
N1 N 2.0192(4) -0.03624(10) -0.26143(9) 0.0593 Uani
O1 O 2.0891(4) -0.01757(9) -0.19124(10) 0.0793 Uani
N2 N 2.5252(4) -0.01081(11) -0.43457(10) 0.0713 Uani
O2 O 1.9400(3) -0.05253(9) -0.18938(8) 0.0690 Uani
C2 C 2.1150(7) -0.0619(2) -0.1566(2) 0.0460 Uani
C3 C 2.2422(4) -0.05440(12) -0.15079(11) 0.0680 Uani
H1 H 2.2854 -0.0406 -0.1631 0.0820 Uiso
O3 O 1.7232(3) -0.03462(8) -0.24373(9) 0.0743 Uani
C4 C 2.3019(5) -0.06805(19) -0.12633(14) 0.1110 Uani
O4 O 1.5276(3) -0.03344(8) -0.26089(9) 0.0687 Uani
C5 C 2.2396(10) -0.0921(3) -0.1110(3) 0.1070 Uani
H2 H 2.2853 -0.1044 -0.0976 0.1280 Uiso
C6 C 2.1117(10) -0.0975(3) -0.1156(3) 0.1100 Uani
H3 H 2.0679 -0.1112 -0.1032 0.1320 Uiso
C7 C 2.0498(8) -0.0824(3) -0.1388(2) 0.0697 Uani
H4 H 1.9639 -0.0860 -0.1424 0.0830 Uiso
C8 C 1.6156(5) -0.04640(11) -0.24679(11) 0.0510 Uani
C9 C 1.5915(4) -0.07789(10) -0.23403(10) 0.0470 Uani
C10 C 1.6893(4) -0.09617(11) -0.22292(11) 0.0550 Uani
H5 H 1.7719 -0.0885 -0.2222 0.0660 Uiso
C11 C 1.6656(5) -0.12541(12) -0.21306(13) 0.0623 Uani
H6 H 1.7318 -0.1375 -0.2057 0.0750 Uiso
C12 C 1.5421(5) -0.13699(12) -0.21405(12) 0.0610 Uani
H7 H 1.5267 -0.1569 -0.2078 0.0730 Uiso
C13 C 1.4419(5) -0.11900(10) -0.22424(10) 0.0473 Uani
C14 C 1.4676(4) -0.08958(10) -0.23439(10) 0.0473 Uani
H8 H 1.4013 -0.0775 -0.2415 0.0570 Uiso
C15 C 2.1222(6) -0.02253(17) -0.27144(16) 0.0970 Uani
H9 H 2.1339 -0.0021 -0.2664 0.1160 Uiso
C16 C 2.2129(6) -0.03644(15) -0.28873(16) 0.0917 Uani
H10 H 2.2839 -0.0254 -0.2949 0.1100 Uiso
C17 C 2.2014(5) -0.06620(13) -0.29706(12) 0.0640 Uani
C18 C 2.0938(7) -0.08050(14) -0.28698(16) 0.0903 Uani
H11 H 2.0796 -0.1009 -0.2918 0.1080 Uiso
C19 C 2.0067(6) -0.06489(14) -0.26973(15) 0.0827 Uani
H12 H 1.9340 -0.0753 -0.2635 0.0990 Uiso
C20 C 2.3025(6) -0.08353(15) -0.31458(14) 0.0853 Uani
H13 H 2.2618 -0.1003 -0.3253 0.1020 Uiso
H14 H 2.3617 -0.0923 -0.3000 0.1020 Uiso
C21 C 2.3783(6) -0.06484(16) -0.33774(14) 0.0853 Uani
H15 H 2.4183 -0.0479 -0.3272 0.1020 Uiso
H16 H 2.4455 -0.0775 -0.3461 0.1020 Uiso
C22 C 2.3010(7) -0.0528(2) -0.36315(16) 0.1063 Uani
H17 H 2.2409 -0.0380 -0.3551 0.1280 Uiso
H18 H 2.2525 -0.0694 -0.3720 0.1280 Uiso
C23 C 2.3805(6) -0.03749(16) -0.38837(14) 0.0887 Uani
C24 C 2.4437(9) -0.05633(19) -0.41008(19) 0.0913 Uani
H19 H 2.4377 -0.0775 -0.4089 0.1090 Uiso
C25 C 2.5137(9) -0.04260(17) -0.43282(18) 0.0843 Uani
H20 H 2.5542 -0.0547 -0.4473 0.1010 Uiso
C26 C 2.4532(10) 0.0047(2) -0.4161(2) 0.0917 Uani
H21 H 2.4518 0.0258 -0.4182 0.1100 Uiso
C27 C 2.3793(11) -0.0080(2) -0.3938(3) 0.1007 Uani
H22 H 2.3270 0.0045 -0.3821 0.1210 Uiso
C1B C 2.7069(5) -0.04129(13) -0.06970(11) 0.0590 Uani
O1B O 2.6609(4) -0.01757(9) -0.05876(10) 0.0793 Uani
O2B O 2.8100(3) -0.05253(9) -0.06062(8) 0.0690 Uani
C2B C 2.6350(7) -0.0619(2) -0.0934(2) 0.0460 Uani
C3B C 2.5078(4) -0.05440(12) -0.09921(11) 0.0680 Uani
H1B H 2.4646 -0.0406 -0.0869 0.0820 Uiso
C4B C 2.4481(5) -0.06805(19) -0.12367(14) 0.1110 Uani
C5B C 2.5104(10) -0.0921(3) -0.1390(3) 0.1070 Uani
H2B H 2.4647 -0.1044 -0.1524 0.1280 Uiso
C6B C 2.6383(10) -0.0975(3) -0.1344(3) 0.1100 Uani
H3B H 2.6821 -0.1112 -0.1468 0.1320 Uiso
C7B C 2.7002(8) -0.0824(3) -0.1112(2) 0.0697 Uani
H4B H 2.7861 -0.0860 -0.1076 0.0830 Uiso
O3A O 1.0268(3) -0.21538(8) -0.24373(9) 0.0743 Uani
O4A O 1.2224(3) -0.21656(8) -0.26089(9) 0.0687 Uani
C8A C 1.1344(5) -0.20360(11) -0.24679(11) 0.0510 Uani
C9A C 1.1585(4) -0.17211(10) -0.23403(10) 0.0470 Uani
C10A C 1.0607(4) -0.15383(11) -0.22292(11) 0.0550 Uani
H5A H 0.9781 -0.1615 -0.2222 0.0660 Uiso
C11A C 1.0844(5) -0.12459(12) -0.21306(13) 0.0623 Uani
H6A H 1.0182 -0.1125 -0.2057 0.0750 Uiso
C12A C 1.2079(5) -0.11301(12) -0.21405(12) 0.0610 Uani
H7A H 1.2233 -0.0931 -0.2078 0.0730 Uiso
C13A C 1.3081(5) -0.13100(10) -0.22424(10) 0.0473 Uani
C14A C 1.2824(4) -0.16042(10) -0.23439(10) 0.0473 Uani
H8A H 1.3487 -0.1725 -0.2415 0.0570 Uiso
Cd1A Cd 0.85198(3) -0.237495(8) -0.222917(8) 0.0467 Uani
N1A N 0.7308(4) -0.21376(10) -0.26143(9) 0.0593 Uani
N2A N 0.2248(4) -0.23919(11) -0.43457(10) 0.0713 Uani
C15A C 0.6278(6) -0.22747(17) -0.27144(16) 0.0970 Uani
H9A H 0.6161 -0.2479 -0.2664 0.1160 Uiso
C16A C 0.5371(6) -0.21356(15) -0.28873(16) 0.0917 Uani
H10A H 0.4661 -0.2246 -0.2949 0.1100 Uiso
C17A C 0.5486(5) -0.18380(13) -0.29706(12) 0.0640 Uani
C18A C 0.6562(7) -0.16950(14) -0.28698(16) 0.0903 Uani
H11A H 0.6704 -0.1491 -0.2918 0.1080 Uiso
C19A C 0.7433(6) -0.18511(14) -0.26973(15) 0.0827 Uani
H12A H 0.8160 -0.1747 -0.2635 0.0990 Uiso
C20A C 0.4475(6) -0.16647(15) -0.31458(14) 0.0853 Uani
H13A H 0.4882 -0.1497 -0.3253 0.1020 Uiso
H14A H 0.3883 -0.1577 -0.3000 0.1020 Uiso
C21A C 0.3717(6) -0.18516(16) -0.33774(14) 0.0853 Uani
H15A H 0.3317 -0.2021 -0.3272 0.1020 Uiso
H16A H 0.3045 -0.1725 -0.3461 0.1020 Uiso
C22A C 0.4490(7) -0.1972(2) -0.36315(16) 0.1063 Uani
H17A H 0.5091 -0.2120 -0.3551 0.1280 Uiso
H18A H 0.4975 -0.1806 -0.3720 0.1280 Uiso
C23A C 0.3695(6) -0.21251(16) -0.38837(14) 0.0887 Uani
C24A C 0.3063(9) -0.19367(19) -0.41008(19) 0.0913 Uani
H19A H 0.3123 -0.1725 -0.4089 0.1090 Uiso
C25A C 0.2363(9) -0.20740(17) -0.43282(18) 0.0843 Uani
H20A H 0.1958 -0.1953 -0.4473 0.1010 Uiso
C26A C 0.2968(10) -0.2547(2) -0.4161(2) 0.0917 Uani
H21A H 0.2982 -0.2758 -0.4182 0.1100 Uiso
C27A C 0.3707(11) -0.2420(2) -0.3938(3) 0.1007 Uani
H22A H 0.4230 -0.2545 -0.3821 0.1210 Uiso
Cd1B Cd 2.85198(3) -0.012505(8) -0.027083(8) 0.0467 Uani
Cd1U Cd 1.14802(3) -0.262505(8) -0.277083(8) 0.0467 Uani
Cd1W Cd 0.10198(3) -0.262505(8) -0.472917(8) 0.0467 Uani
Cd1X Cd 1.60198(3) 0.012505(8) -0.277083(8) 0.0467 Uani
Cd1Z Cd 2.64802(3) 0.012505(8) -0.472917(8) 0.0467 Uani
O1A O 0.6609(4) -0.23243(9) -0.19124(10) 0.0793 Uani
N2R N 1.7752(4) 0.01081(11) -0.18457(10) 0.0713 Uani
N2EA N 0.9748(4) -0.26081(11) -0.18457(10) 0.0713 Uani
O2A O 0.8100(3) -0.19747(9) -0.18938(8) 0.0690 Uani
O4U O 0.7776(3) -0.28344(8) -0.23911(9) 0.0687 Uani
O4X O 1.9724(3) 0.03344(8) -0.23911(9) 0.0687 Uani
loop_
_atom_site_aniso_label
_atom_site_aniso_U_11
_atom_site_aniso_U_22
_atom_site_aniso_U_33
_atom_site_aniso_U_23
_atom_site_aniso_U_13
_atom_site_aniso_U_12
Cd1 0.0379(2) 0.0526(2) 0.0496(2) 0.00362(15) 0.00027(15) -0.01213(15)
C1 0.044(3) 0.081(4) 0.052(3) 0.001(3) 0.000(2) -0.005(3)
N1 0.050(2) 0.069(3) 0.059(3) -0.004(2) 0.011(2) -0.021(2)
O1 0.061(2) 0.087(3) 0.090(3) 0.009(2) -0.018(2) -0.023(2)
N2 0.063(3) 0.092(3) 0.059(3) 0.007(2) 0.004(2) 0.001(3)
O2 0.045(2) 0.093(3) 0.069(2) 0.024(2) -0.0131(17) -0.0158(19)
C2 0.047(5) 0.050(6) 0.041(5) -0.018(4) -0.005(4) 0.000(4)
C3 0.047(3) 0.103(4) 0.054(3) -0.006(3) -0.010(2) -0.008(3)
O3 0.062(2) 0.075(2) 0.086(3) 0.006(2) -0.008(2) -0.045(2)
C4 0.049(4) 0.207(9) 0.077(4) 0.024(5) -0.021(3) -0.008(5)
O4 0.050(2) 0.061(2) 0.095(3) 0.022(2) 0.002(2) -0.0125(17)
C5 0.088(7) 0.140(9) 0.093(8) 0.030(7) -0.023(6) 0.012(7)
C6 0.095(8) 0.140(10) 0.095(8) 0.044(7) -0.005(6) -0.008(7)
C7 0.051(5) 0.097(7) 0.061(6) 0.016(6) -0.007(4) -0.005(5)
C8 0.051(3) 0.050(3) 0.052(3) -0.006(2) 0.009(2) -0.020(2)
C9 0.045(3) 0.048(3) 0.048(3) -0.004(2) 0.001(2) -0.018(2)
C10 0.037(2) 0.065(3) 0.063(3) 0.003(3) 0.000(2) -0.018(2)
C11 0.046(3) 0.062(3) 0.079(4) 0.008(3) -0.004(3) -0.009(2)
C12 0.058(3) 0.054(3) 0.071(3) 0.012(3) 0.001(3) -0.019(3)
C13 0.043(3) 0.050(3) 0.049(3) -0.002(2) 0.000(2) -0.022(2)
C14 0.042(3) 0.050(3) 0.050(3) -0.002(2) -0.003(2) -0.019(2)
C15 0.086(5) 0.096(5) 0.109(5) -0.039(4) 0.049(4) -0.042(4)
C16 0.068(4) 0.095(5) 0.112(5) -0.033(4) 0.039(4) -0.041(4)
C17 0.062(3) 0.077(4) 0.053(3) 0.002(3) 0.011(3) -0.005(3)
C18 0.106(5) 0.060(4) 0.105(5) -0.007(3) 0.049(4) -0.017(3)
C19 0.075(4) 0.075(4) 0.098(5) -0.001(3) 0.040(4) -0.027(3)
C20 0.090(4) 0.099(5) 0.067(4) 0.008(3) 0.026(3) 0.015(4)
C21 0.072(4) 0.117(5) 0.067(4) 0.001(4) 0.020(3) 0.007(4)
C22 0.069(4) 0.166(7) 0.084(5) 0.027(5) 0.022(4) -0.001(5)
C23 0.065(4) 0.127(5) 0.074(4) 0.014(4) 0.017(3) 0.009(4)
C24 0.112(7) 0.080(6) 0.082(6) 0.004(5) 0.029(5) -0.009(5)
C25 0.105(6) 0.084(6) 0.064(5) -0.003(4) 0.026(5) 0.002(5)
C26 0.105(7) 0.079(6) 0.091(6) -0.010(5) 0.029(6) 0.003(5)
C27 0.100(7) 0.102(7) 0.100(7) -0.022(6) 0.041(6) 0.010(6)
C1B 0.044 0.081 0.052 -0.001 0 0.005
O1B 0.061 0.087 0.09 -0.009 -0.018 0.023
O2B 0.045 0.093 0.069 -0.024 -0.0131 0.0158
C2B 0.047 0.05 0.041 0.018 -0.005 0
C3B 0.047 0.103 0.054 0.006 -0.01 0.008
C4B 0.049 0.207 0.077 -0.024 -0.021 0.008
C5B 0.088 0.14 0.093 -0.03 -0.023 -0.012
C6B 0.095 0.14 0.095 -0.044 -0.005 0.008
C7B 0.051 0.097 0.061 -0.016 -0.007 0.005
O3A 0.062 0.075 0.086 -0.006 0.008 -0.045
O4A 0.05 0.061 0.095 -0.022 -0.002 -0.0125
C8A 0.051 0.05 0.052 0.006 -0.009 -0.02
C9A 0.045 0.048 0.048 0.004 -0.001 -0.018
C10A 0.037 0.065 0.063 -0.003 0 -0.018
C11A 0.046 0.062 0.079 -0.008 0.004 -0.009
C12A 0.058 0.054 0.071 -0.012 -0.001 -0.019
C13A 0.043 0.05 0.049 0.002 0 -0.022
C14A 0.042 0.05 0.05 0.002 0.003 -0.019
Cd1A 0.0379 0.0526 0.0496 -0.00362 -0.00027 -0.01213
N1A 0.05 0.069 0.059 0.004 -0.011 -0.021
N2A 0.063 0.092 0.059 -0.007 -0.004 0.001
C15A 0.086 0.096 0.109 0.039 -0.049 -0.042
C16A 0.068 0.095 0.112 0.033 -0.039 -0.041
C17A 0.062 0.077 0.053 -0.002 -0.011 -0.005
C18A 0.106 0.06 0.105 0.007 -0.049 -0.017
C19A 0.075 0.075 0.098 0.001 -0.04 -0.027
C20A 0.09 0.099 0.067 -0.008 -0.026 0.015
C21A 0.072 0.117 0.067 -0.001 -0.02 0.007
C22A 0.069 0.166 0.084 -0.027 -0.022 -0.001
C23A 0.065 0.127 0.074 -0.014 -0.017 0.009
C24A 0.112 0.08 0.082 -0.004 -0.029 -0.009
C25A 0.105 0.084 0.064 0.003 -0.026 0.002
C26A 0.105 0.079 0.091 0.01 -0.029 0.003
C27A 0.1 0.102 0.1 0.022 -0.041 0.01
Cd1B 0.0379 0.0526 0.0496 -0.00362 0.00027 0.01213
Cd1U 0.0379 0.0526 0.0496 -0.00362 -0.00027 -0.01213
Cd1W 0.0379 0.0526 0.0496 0.00362 -0.00027 0.01213
Cd1X 0.0379 0.0526 0.0496 0.00362 0.00027 -0.01213
Cd1Z 0.0379 0.0526 0.0496 -0.00362 0.00027 0.01213
O1A 0.061 0.087 0.09 -0.009 0.018 -0.023
N2R 0.063 0.092 0.059 -0.007 0.004 -0.001
N2EA 0.063 0.092 0.059 0.007 -0.004 -0.001
O2A 0.045 0.093 0.069 -0.024 0.0131 -0.0158
O4U 0.05 0.061 0.095 -0.022 -0.002 -0.0125
O4X 0.05 0.061 0.095 0.022 0.002 -0.0125
loop_
_geom_bond_atom_site_label_1
_geom_bond_atom_site_label_2
_geom_bond_site_symmetry_1
_geom_bond_site_symmetry_2
Cd1 N1 1_555 1_555
C1 O1 1_555 1_555
N1 C15 1_555 1_555
O1 Cd1 1_555 1_555
N2 C25 1_555 1_555
O2 Cd1 1_555 1_555
C2 C1 1_555 1_555
C3 C2 1_555 1_555
H1 C3 1_555 1_555
O3 Cd1 1_555 1_555
C4 C3 1_555 1_555
O4 C8 1_555 1_555
C5 C4 1_555 1_555
H2 C5 1_555 1_555
C6 C5 1_555 1_555
H3 C6 1_555 1_555
C7 C2 1_555 1_555
H4 C7 1_555 1_555
C8 O3 1_555 1_555
C9 C8 1_555 1_555
C10 C9 1_555 1_555
H5 C10 1_555 1_555
C11 C10 1_555 1_555
H6 C11 1_555 1_555
C12 C11 1_555 1_555
H7 C12 1_555 1_555
C13 C12 1_555 1_555
C14 C9 1_555 1_555
H8 C14 1_555 1_555
C15 H9 1_555 1_555
C16 C15 1_555 1_555
H10 C16 1_555 1_555
C17 C16 1_555 1_555
C18 C17 1_555 1_555
H11 C18 1_555 1_555
C19 N1 1_555 1_555
H12 C19 1_555 1_555
C20 C17 1_555 1_555
H13 C20 1_555 1_555
H14 C20 1_555 1_555
C21 C20 1_555 1_555
H15 C21 1_555 1_555
H16 C21 1_555 1_555
C22 C21 1_555 1_555
H17 C22 1_555 1_555
H18 C22 1_555 1_555
C23 C22 1_555 1_555
C24 C23 1_555 1_555
H19 C24 1_555 1_555
C25 C24 1_555 1_555
H20 C25 1_555 1_555
C26 N2 1_555 1_555
H21 C26 1_555 1_555
C27 C23 1_555 1_555
H22 C27 1_555 1_555
C1B O1B 1_555 1_555
O1B Cd1B 1_555 1_555
O2B C1B 1_555 1_555
C2B C1B 1_555 1_555
C3B C2B 1_555 1_555
H1B C3B 1_555 1_555
C4B C4 1_555 1_555
C5B C4B 1_555 1_555
H2B C5B 1_555 1_555
C6B C5B 1_555 1_555
H3B C6B 1_555 1_555
C7B C2B 1_555 1_555
H4B C7B 1_555 1_555
O3A C8A 1_555 1_555
O4A C8A 1_555 1_555
C8A C9A 1_555 1_555
C9A C10A 1_555 1_555
C10A H5A 1_555 1_555
C11A C10A 1_555 1_555
H6A C11A 1_555 1_555
C12A C11A 1_555 1_555
H7A C12A 1_555 1_555
C13A C13 1_555 1_555
C14A C9A 1_555 1_555
H8A C14A 1_555 1_555
Cd1A O3A 1_555 1_555
N1A Cd1A 1_555 1_555
N2A C25A 1_555 1_555
C15A N1A 1_555 1_555
H9A C15A 1_555 1_555
C16A C15A 1_555 1_555
H10A C16A 1_555 1_555
C17A C16A 1_555 1_555
C18A C17A 1_555 1_555
H11A C18A 1_555 1_555
C19A N1A 1_555 1_555
H12A C19A 1_555 1_555
C20A C17A 1_555 1_555
H13A C20A 1_555 1_555
H14A C20A 1_555 1_555
C21A C20A 1_555 1_555
H15A C21A 1_555 1_555
H16A C21A 1_555 1_555
C22A C21A 1_555 1_555
H17A C22A 1_555 1_555
H18A C22A 1_555 1_555
C23A C22A 1_555 1_555
C24A C23A 1_555 1_555
H19A C24A 1_555 1_555
C25A C24A 1_555 1_555
H20A C25A 1_555 1_555
C26A N2A 1_555 1_555
H21A C26A 1_555 1_555
C27A C23A 1_555 1_555
H22A C27A 1_555 1_555
Cd1B O2B 1_555 1_555
Cd1U O4A 1_555 1_555
Cd1W N2A 1_555 1_555
Cd1X O4 1_555 1_555
Cd1Z N2 1_555 1_555
O1A Cd1A 1_555 1_555
N2R Cd1 1_555 1_555
N2EA Cd1A 1_555 1_555
O2A Cd1A 1_555 1_555
O4U Cd1A 1_555 1_555
O4X Cd1 1_555 1_555
C1 O2 1_555 1_555
C6 C7 1_555 1_555
C13 C14 1_555 1_555
C18 C19 1_555 1_555
C26 C27 1_555 1_555
C3B C4B 1_555 1_555
C6B C7B 1_555 1_555
C12A C13A 1_555 1_555
C13A C14A 1_555 1_555
C18A C19A 1_555 1_555
C26A C27A 1_555 1_555

#END
