
#######################################################################
#
#                 Cambridge Crystallographic Data Centre
#                                CCDC 
#
#######################################################################
#
# If this CIF has been generated from an entry in the Cambridge 
# Structural Database, then it will include bibliographic, chemical, 
# crystal, experimental, refinement or atomic coordinate data resulting 
# from the CCDC's data processing and validation procedures.
#
#######################################################################

data_COMNAU
_chemical_formula_moiety         'C59 H72 O37 S20 Zn10'
_symmetry_cell_setting           tetragonal
_symmetry_space_group_name_H-M   'I 41/a c d'
_symmetry_Int_Tables_number      142
_space_group_name_Hall           '-I 4bd 2c'
loop_
_symmetry_equiv_pos_site_id
_symmetry_equiv_pos_as_xyz
1 x,y,z
2 1/4-y,3/4+x,1/4+z
3 1/4+y,1/4-x,3/4+z
4 1/4+y,3/4+x,3/4-z
5 1/4-y,1/4-x,1/4-z
6 1/2+x,1/2+y,1/2+z
7 3/4-y,1/4+x,3/4+z
8 3/4+y,3/4-x,1/4+z
9 3/4+y,1/4+x,1/4-z
10 1/2-x,-y,1/2+z
11 1/2-x,y,-z
12 x,-y,1/2-z
13 -x,1/2-y,z
14 -x,1/2+y,1/2-z
15 1/2+x,1/2-y,-z
16 3/4-y,3/4-x,3/4-z
17 -x,-y,-z
18 3/4+y,1/4-x,3/4-z
19 3/4-y,3/4+x,1/4-z
20 3/4-y,1/4-x,1/4+z
21 3/4+y,3/4+x,3/4+z
22 1/2-x,1/2-y,1/2-z
23 1/4+y,3/4-x,1/4-z
24 1/4-y,1/4+x,3/4-z
25 1/4-y,3/4-x,3/4+z
26 1/2+x,y,1/2-z
27 1/2+x,-y,z
28 -x,y,1/2+z
29 x,1/2+y,-z
30 x,1/2-y,1/2+z
31 1/2-x,1/2+y,z
32 1/4+y,1/4+x,1/4+z
_cell_length_a                   25.5191(12)
_cell_length_b                   25.5191(12)
_cell_length_c                   50.910(5)
_cell_angle_alpha                90
_cell_angle_beta                 90
_cell_angle_gamma                90
_cell_volume                     33153.8
loop_
_atom_site_label
_atom_site_type_symbol
_atom_site_fract_x
_atom_site_fract_y
_atom_site_fract_z
C1 C 0.2349(3) 0.9575(3) 0.93068(12)
C2 C 0.2256(3) 0.9617(3) 0.90150(12)
C3 C 0.2545(3) 0.9314(3) 0.88423(13)
C4 C 0.1885(3) 0.9970(3) 0.89272(12)
C5 C 0.3588(5) 0.9241(8) 0.8947(5)
H1 H 0.3533 0.9531 0.8824
H2 H 0.3877 0.9020 0.8885
H3 H 0.3675 0.9381 0.9121
C6 C 0.0945(4) 0.9907(6) 0.9176(3)
H4 H 0.0825 0.9836 0.8997
H5 H 0.0664 1.0082 0.9274
H6 H 0.1034 0.9576 0.9263
S1 S 0.40573(16) 1.08831(18) 1.02216(7)
S2 S 0.53063(17) 1.11944(18) 1.02525(7)
S3 S 0.41800(14) 1.06451(17) 1.02275(6)
S4 S 0.54374(15) 1.09549(17) 1.02615(7)
O1 O 0.3639(4) 0.9608(5) 1.0144(2)
O2 O 0.3605(4) 1.0018(4) 0.97549(19)
O3 O 0.3778(4) 0.9371(4) 1.0161(2)
O4 O 0.3713(4) 0.9786(5) 0.9778(2)
C7 C 0.3834(4) 0.9847(4) 0.99690(15)
C8 C 0.4408(2) 0.9988(3) 0.99838(10)
C9 C 0.4561(3) 1.0459(2) 1.00964(9)
C10 C 0.5089(3) 1.05894(18) 1.01093(9)
C11 C 0.4536(2) 0.9752(3) 0.99904(10)
C12 C 0.4690(3) 1.0224(2) 1.01030(9)
C13 C 0.5218(3) 1.03542(18) 1.01159(9)
C14 C 0.3960(4) 0.9613(4) 0.99772(15)
C15 C 0.3960(8) 1.1307(8) 0.9944(4)
H7 H 0.3924 1.1096 0.9784
H8 H 0.4262 1.1542 0.9926
H9 H 0.3642 1.1515 0.9970
C16 C 0.5290(19) 1.0990(12) 1.0594(3)
H10 H 0.5509 1.0678 1.0616
H11 H 0.4929 1.0909 1.0644
H12 H 0.5424 1.1274 1.0705
C17 C 0.4164(8) 1.1133(7) 0.9971(4)
H13 H 0.4201 1.0962 0.9799
H14 H 0.3830 1.1322 0.9977
H15 H 0.4453 1.1381 0.9996
C18 C 0.535(3) 1.0774(15) 1.0602(3)
H16 H 0.5450 1.0407 1.0626
H17 H 0.5568 1.0998 1.0713
H18 H 0.4980 1.0819 1.0651
S5 S 0.2829(2) 1.27118(15) 1.04564(8)
S6 S 0.29087(18) 1.14312(14) 1.04517(8)
S7 S 0.32112(17) 1.13773(16) 1.04648(8)
S8 S 0.33137(19) 1.2607(2) 1.04681(10)
O5 O 0.1948(4) 1.3395(3) 1.0159(2)
O6 O 0.2568(4) 1.3394(4) 0.9847(2)
C19 C 0.2247(3) 1.3184(4) 1.0006(2)
C20 C 0.2271(2) 1.25928(18) 0.99972(13)
C21 C 0.2534(2) 1.2334(3) 1.01978(10)
C22 C 0.25689(18) 1.1790(3) 1.01957(11)
C23 C 0.2340(2) 1.15056(18) 0.99930(14)
C24 C 0.29229(19) 1.1765(3) 1.02076(11)
C25 C 0.29577(19) 1.2308(3) 1.02055(10)
C26 C 0.2256(12) 1.2846(15) 1.0664(8)
H19 H 0.2367 1.3037 1.0821
H20 H 0.2003 1.3058 1.0565
H21 H 0.2092 1.2514 1.0716
C27 C 0.2386(8) 1.1327(11) 1.0691(4)
H22 H 0.2088 1.1156 1.0605
H23 H 0.2515 1.1103 1.0834
H24 H 0.2275 1.1665 1.0763
C28 C 0.2662(8) 1.1397(13) 1.0690(4)
H25 H 0.2334 1.1377 1.0591
H26 H 0.2684 1.1100 1.0812
H27 H 0.2672 1.1725 1.0790
C29 C 0.3961(8) 1.2485(18) 1.0328(7)
H28 H 0.4051 1.2114 1.0349
H29 H 0.3958 1.2573 1.0140
H30 H 0.4222 1.2701 1.0418
O7 O 0.1407(5) 1.3565(5) 1.0284(3)
H31 H 0.111(4) 1.354(7) 1.021(4)
H32 H 0.140(5) 1.328(5) 1.037(4)
C30 C 0.2500 1.0929(4) 1.0000
O8 O 0.2824(4) 1.0706(2) 0.98528(12)
O9 O 0.2089(2) 0.9247(2) 0.94306(10)
O10 O 0.2693(2) 0.9888(2) 0.93950(9)
O11 O 0.2500 0.9538(2) 1.0000
O12 O 0.1768(4) 0.8891(4) 1.02567(18)
H33 H 0.202(4) 0.902(5) 1.0348(17)
H34 H 0.180(6) 0.8573(17) 1.032(2)
S9 S 0.29974(11) 0.88529(11) 0.89690(5)
S10 S 0.15167(11) 1.03258(8) 0.91663(4)
Zn1 Zn 0.28979(3) 0.99630(3) 0.976110(13)
Zn2 Zn 0.19714(3) 0.91168(3) 0.981087(15)
C1C C 0.2075(3) 0.9849(3) 0.81932(12)
C2C C 0.2117(3) 0.9756(3) 0.84850(12)
C3C C 0.1814(3) 1.0045(3) 0.86577(13)
C4C C 0.2470(3) 0.9385(3) 0.85728(12)
C5C C 0.1741(8) 1.1088(5) 0.8553(5)
H1C H 0.2031 1.1033 0.8676
H2C H 0.1520 1.1377 0.8615
H3C H 0.1881 1.1175 0.8379
C6C C 0.2407(6) 0.8445(4) 0.8324(3)
H4C H 0.2336 0.8325 0.8503
H5C H 0.2582 0.8164 0.8226
H6C H 0.2076 0.8534 0.8237
S1P S 0.59427(16) 0.91169(18) 0.97784(7)
S2P S 0.46937(17) 0.88056(18) 0.97475(7)
S3P S 0.58200(14) 0.93549(17) 0.97725(6)
S4P S 0.45626(15) 0.90451(17) 0.97385(7)
O1P O 0.6361(4) 1.0392(5) 0.9856(2)
O1J O 0.1361(4) 0.9608(5) 0.9856(2)
O1B O 0.2108(5) 0.8861(4) 0.7644(2)
O2P O 0.6395(4) 0.9982(4) 1.02451(19)
O3P O 0.6222(4) 1.0629(4) 0.9839(2)
O3J O 0.1222(4) 0.9371(4) 0.9839(2)
O3B O 0.1871(4) 0.8722(4) 0.7661(2)
O4P O 0.6287(4) 1.0214(5) 1.0222(2)
C7P C 0.6166(4) 1.0153(4) 1.00310(15)
C8P C 0.5592(2) 1.0012(3) 1.00162(10)
C9P C 0.5439(3) 0.9541(2) 0.99036(9)
C10P C 0.4911(3) 0.94106(18) 0.98907(9)
C11P C 0.5464(2) 1.0248(3) 1.00096(10)
C12P C 0.5310(3) 0.9776(2) 0.98970(9)
C13P C 0.4782(3) 0.96458(18) 0.98841(9)
C14P C 0.6040(4) 1.0387(4) 1.00228(15)
C15P C 0.6040(8) 0.8693(8) 1.0056(4)
H7P H 0.6076 0.8904 1.0216
H8P H 0.5738 0.8458 1.0074
H9P H 0.6358 0.8485 1.0030
C16P C 0.4710(19) 0.9010(12) 0.9406(3)
H10P H 0.4491 0.9322 0.9384
H11P H 0.5071 0.9091 0.9356
H12P H 0.4576 0.8726 0.9295
C17P C 0.5836(8) 0.8867(7) 1.0029(4)
H13P H 0.5799 0.9038 1.0201
H14P H 0.6170 0.8678 1.0023
H15P H 0.5547 0.8619 1.0004
C18P C 0.465(3) 0.9226(15) 0.9398(3)
H16P H 0.4550 0.9593 0.9374
H17P H 0.4432 0.9002 0.9287
H18P H 0.5020 0.9181 0.9349
S5J S 0.2171(2) 1.27118(15) 0.95436(8)
S6J S 0.20913(18) 1.14312(14) 0.95483(8)
S7J S 0.17888(17) 1.13773(16) 0.95352(8)
S8J S 0.16863(19) 1.2607(2) 0.95319(10)
O5J O 0.3052(4) 1.3395(3) 0.9841(2)
O5BA O 0.1948(4) 0.8395(3) 0.9841(2)
O5T O 0.0895(3) 0.9448(4) 0.7659(2)
O6J O 0.2432(4) 1.3394(4) 1.0153(2)
O6DA O 0.2432(4) 0.8394(4) 0.9847(2)
O6Q O 0.0894(4) 0.9932(4) 0.7653(2)
C19J C 0.2753(3) 1.3184(4) 0.9994(2)
C20J C 0.2729(2) 1.25928(18) 1.00028(13)
C21J C 0.2466(2) 1.2334(3) 0.98022(10)
C22J C 0.24311(18) 1.1790(3) 0.98043(11)
C23J C 0.2660(2) 1.15056(18) 1.00070(14)
C24J C 0.20771(19) 1.1765(3) 0.97924(11)
C25J C 0.20423(19) 1.2308(3) 0.97945(10)
C26J C 0.2744(12) 1.2846(15) 0.9336(8)
H19J H 0.2633 1.3037 0.9179
H20J H 0.2997 1.3058 0.9435
H21J H 0.2908 1.2514 0.9284
C27J C 0.2614(8) 1.1327(11) 0.9309(4)
H22J H 0.2912 1.1156 0.9395
H23J H 0.2485 1.1103 0.9166
H24J H 0.2725 1.1665 0.9237
C28J C 0.2338(8) 1.1397(13) 0.9310(4)
H25J H 0.2666 1.1377 0.9409
H26J H 0.2316 1.1100 0.9188
H27J H 0.2328 1.1725 0.9210
C29J C 0.1039(8) 1.2485(18) 0.9672(7)
H28J H 0.0949 1.2114 0.9651
H29J H 0.1042 1.2573 0.9860
H30J H 0.0778 1.2701 0.9582
O7J O 0.3593(5) 1.3565(5) 0.9716(3)
O7BA O 0.1407(5) 0.8565(5) 0.9716(3)
O7T O 0.1065(5) 0.8907(5) 0.7784(3)
H31J H 0.389(4) 1.354(7) 0.979(4)
H31BA H 0.111(4) 0.854(7) 0.979(4)
H31T H 0.104(7) 0.861(4) 0.771(4)
H32J H 0.360(5) 1.328(5) 0.963(4)
H32BA H 0.140(5) 0.828(5) 0.963(4)
H32T H 0.078(5) 0.890(5) 0.787(4)
O8J O 0.2176(4) 1.0706(2) 1.01472(12)
O8P O 0.7176(4) 0.9294(2) 1.01472(12)
O9C O 0.1747(2) 0.9589(2) 0.80694(10)
O10C O 0.2388(2) 1.0193(2) 0.81050(9)
O10P O 0.7307(2) 1.0112(2) 1.06050(9)
O11Z O 0.7500 1.0462(2) 1.0000
O11B O 0.2038(2) 1.0000 0.7500
O12C O 0.1391(4) 0.9268(4) 0.72433(18)
H33C H 0.152(5) 0.952(4) 0.7152(17)
H34C H 0.1073(17) 0.930(6) 0.718(2)
S9C S 0.13529(11) 1.04974(11) 0.85310(5)
S10C S 0.28258(8) 0.90167(11) 0.83337(4)
Zn1P Zn 0.71021(3) 1.00370(3) 1.023890(13)
Zn1J Zn 0.21021(3) 0.99630(3) 1.023890(13)
Zn1C Zn 0.24630(3) 1.03979(3) 0.773890(13)
Zn2C Zn 0.16168(3) 0.94714(3) 0.768913(15)
Zn2J Zn 0.30286(3) 0.91168(3) 1.018913(15)
Zn2BA Zn 0.19714(3) 1.41168(3) 1.018913(15)
Zn2DA Zn 0.30286(3) 1.41168(3) 0.981087(15)
Zn2Z Zn 0.69714(3) 1.08832(3) 0.981087(15)
loop_
_geom_bond_atom_site_label_1
_geom_bond_atom_site_label_2
_geom_bond_site_symmetry_1
_geom_bond_site_symmetry_2
C1 C2 1_555 1_555
C2 C3 1_555 1_555
C3 S9 1_555 1_555
C4 C2 1_555 1_555
C5 H1 1_555 1_555
H2 C5 1_555 1_555
H3 C5 1_555 1_555
C6 H4 1_555 1_555
H5 C6 1_555 1_555
H6 C6 1_555 1_555
S1 S3 1_555 1_555
S2 S4 1_555 1_555
S3 C9 1_555 1_555
S4 C10 1_555 1_555
O1 O3 1_555 1_555
O2 O4 1_555 1_555
O3 C7 1_555 1_555
O4 C7 1_555 1_555
C7 O1 1_555 1_555
C8 C7 1_555 1_555
C9 S1 1_555 1_555
C10 S2 1_555 1_555
C11 C8 1_555 1_555
C12 S3 1_555 1_555
C13 S4 1_555 1_555
C14 O1 1_555 1_555
C15 S1 1_555 1_555
H7 C15 1_555 1_555
H8 C15 1_555 1_555
H9 C15 1_555 1_555
C16 S2 1_555 1_555
H10 C16 1_555 1_555
H11 C16 1_555 1_555
H12 C16 1_555 1_555
C17 S1 1_555 1_555
H13 C15 1_555 1_555
H14 C15 1_555 1_555
H15 C15 1_555 1_555
C18 S2 1_555 1_555
H16 H10 1_555 1_555
H17 C16 1_555 1_555
H18 C16 1_555 1_555
S5 S8 1_555 1_555
S6 S7 1_555 1_555
S7 C24 1_555 1_555
S8 C25 1_555 1_555
O5 C19 1_555 1_555
O6 C19 1_555 1_555
C19 C20 1_555 1_555
C20 C21 1_555 1_555
C21 S5 1_555 1_555
C22 S6 1_555 1_555
C23 C22 1_555 1_555
C24 S6 1_555 1_555
C25 S5 1_555 1_555
C26 S5 1_555 1_555
H19 C26 1_555 1_555
H20 C26 1_555 1_555
H21 C26 1_555 1_555
C27 S6 1_555 1_555
H22 C27 1_555 1_555
H23 C27 1_555 1_555
H24 C27 1_555 1_555
C28 S6 1_555 1_555
H25 S6 1_555 1_555
H26 C27 1_555 1_555
H27 C28 1_555 1_555
C29 S8 1_555 1_555
H28 C29 1_555 1_555
H29 C29 1_555 1_555
H30 C29 1_555 1_555
O7 O5 1_555 1_555
H31 O7 1_555 1_555
H32 O7 1_555 1_555
C30 C23 1_555 1_555
O8 C30 1_555 1_555
O9 C1 1_555 1_555
O10 C1 1_555 1_555
O11 Zn1 1_555 1_555
O12 H33 1_555 1_555
H34 O12 1_555 1_555
S9 C5 1_555 1_555
S10 C4 1_555 1_555
Zn1 O2 1_555 1_555
Zn2 O9 1_555 1_555
C1C C2C 1_555 1_555
C2C C3C 1_555 1_555
C3C C4 1_555 1_555
C4C C3 1_555 1_555
C5C H1C 1_555 1_555
H2C C5C 1_555 1_555
H3C C5C 1_555 1_555
C6C H4C 1_555 1_555
H5C C6C 1_555 1_555
H6C C6C 1_555 1_555
S1P S3P 1_555 1_555
S2P S4P 1_555 1_555
S3P C9P 1_555 1_555
S4P C10P 1_555 1_555
O1P O3P 1_555 1_555
O1J Zn2 1_555 1_555
O1B O3B 1_555 1_555
O2P O4P 1_555 1_555
O3P C7P 1_555 1_555
O3J Zn2 1_555 1_555
O3B Zn2C 1_555 1_555
O4P C7P 1_555 1_555
C7P O1P 1_555 1_555
C8P C13 1_555 1_555
C9P S1P 1_555 1_555
C10P C11 1_555 1_555
C11P C10 1_555 1_555
C12P S3P 1_555 1_555
C13P C8 1_555 1_555
C14P O1P 1_555 1_555
C15P S1P 1_555 1_555
H7P C15P 1_555 1_555
H8P C15P 1_555 1_555
H9P C15P 1_555 1_555
C16P S2P 1_555 1_555
H10P C16P 1_555 1_555
H11P C16P 1_555 1_555
H12P C16P 1_555 1_555
C17P S1P 1_555 1_555
H13P C15P 1_555 1_555
H14P C15P 1_555 1_555
H15P C15P 1_555 1_555
C18P S2P 1_555 1_555
H16P H10P 1_555 1_555
H17P C16P 1_555 1_555
H18P C16P 1_555 1_555
S5J S8J 1_555 1_555
S6J S7J 1_555 1_555
S7J C24J 1_555 1_555
S8J C25J 1_555 1_555
O5J O6 1_555 1_555
O5BA Zn2 1_555 1_555
O5T O6Q 1_555 1_555
O6J O5 1_555 1_555
O6DA Zn2 1_555 1_555
O6Q Zn2C 1_555 1_555
C19J O6 1_555 1_555
C20J C20 1_555 1_555
C21J C20 1_555 1_555
C22J C23 1_555 1_555
C23J C22 1_555 1_555
C24J C23 1_555 1_555
C25J C20 1_555 1_555
C26J S5J 1_555 1_555
H19J C26J 1_555 1_555
H20J C26J 1_555 1_555
H21J C26J 1_555 1_555
C27J S6J 1_555 1_555
H22J C27J 1_555 1_555
H23J C27J 1_555 1_555
H24J C27J 1_555 1_555
C28J S6J 1_555 1_555
H25J S6J 1_555 1_555
H26J C27J 1_555 1_555
H27J C28J 1_555 1_555
C29J S8J 1_555 1_555
H28J C29J 1_555 1_555
H29J C29J 1_555 1_555
H30J C29J 1_555 1_555
O7J O5J 1_555 1_555
O7BA Zn2 1_555 1_555
O7T O5T 1_555 1_555
H31J O7J 1_555 1_555
H31BA O7BA 1_555 1_555
H31T O7T 1_555 1_555
H32J O7J 1_555 1_555
H32BA O7BA 1_555 1_555
H32T O7T 1_555 1_555
O8J C30 1_555 1_555
O8P Zn1P 1_555 1_555
O9C C1C 1_555 1_555
O10C C1C 1_555 1_555
O10P Zn1P 1_555 1_555
O11Z Zn1P 1_555 1_555
O11B Zn1C 1_555 1_555
O12C H33C 1_555 1_555
H34C O12C 1_555 1_555
S9C C3C 1_555 1_555
S10C C4C 1_555 1_555
Zn1P O2P 1_555 1_555
Zn1J O11 1_555 1_555
Zn1C O10C 1_555 1_555
Zn2C O1B 1_555 1_555
Zn2J O1 1_555 1_555
Zn2BA O5 1_555 1_555
Zn2DA O6 1_555 1_555
Zn2Z O1P 1_555 1_555
C6 S10 1_555 1_555
S3 C17 1_555 1_555
S4 C16 1_555 1_555
S4 C18 1_555 1_555
O2 C7 1_555 1_555
O3 C14 1_555 1_555
O3 Zn2J 1_555 1_555
O4 C14 1_555 1_555
O4 Zn1 1_555 1_555
C7 C14 1_555 1_555
C8 C9 1_555 1_555
C8 C12 1_555 1_555
C8 C14 1_555 1_555
C9 C10 1_555 1_555
C9 C12 1_555 1_555
C9 C13 1_555 1_555
C10 C12 1_555 1_555
C10 C13 1_555 1_555
C11 C12 1_555 1_555
C11 C14 1_555 1_555
C11 C13P 1_555 1_555
C12 C13 1_555 1_555
C13 C11P 1_555 1_555
C15 C17 1_555 1_555
H7 C17 1_555 1_555
H7 H13 1_555 1_555
H8 C17 1_555 1_555
H8 H15 1_555 1_555
H9 H14 1_555 1_555
C16 C18 1_555 1_555
H10 C18 1_555 1_555
H11 C18 1_555 1_555
H11 H18 1_555 1_555
H12 H17 1_555 1_555
C17 H13 1_555 1_555
C17 H14 1_555 1_555
C17 H15 1_555 1_555
C18 H16 1_555 1_555
C18 H17 1_555 1_555
C18 H18 1_555 1_555
S7 C28 1_555 1_555
O6 O6J 1_555 1_555
C19 O6J 1_555 1_555
C19 C19J 1_555 1_555
C21 C22 1_555 1_555
C21 C24 1_555 1_555
C21 C25 1_555 1_555
C21 C20J 1_555 1_555
C22 C24 1_555 1_555
C22 C25 1_555 1_555
C23 C23J 1_555 1_555
C24 C25 1_555 1_555
C24 C23J 1_555 1_555
C25 C20J 1_555 1_555
C27 C28 1_555 1_555
C27 H25 1_555 1_555
H22 H25 1_555 1_555
H23 C28 1_555 1_555
H23 H26 1_555 1_555
H24 C28 1_555 1_555
C28 H25 1_555 1_555
C28 H26 1_555 1_555
O7 Zn2BA 1_555 1_555
C30 C23J 1_555 1_555
O8 Zn1 1_555 1_555
O10 Zn1 1_555 1_555
O11 Zn2 1_555 1_555
O11 Zn2J 1_555 1_555
O12 Zn2 1_555 1_555
C2C C4C 1_555 1_555
C5C S9C 1_555 1_555
C6C S10C 1_555 1_555
S2P C10P 1_555 1_555
S3P C17P 1_555 1_555
S4P C13P 1_555 1_555
S4P C16P 1_555 1_555
S4P C18P 1_555 1_555
O1J O3J 1_555 1_555
O2P C7P 1_555 1_555
O3P C14P 1_555 1_555
O3P Zn2Z 1_555 1_555
O4P C14P 1_555 1_555
O4P Zn1P 1_555 1_555
C7P C8P 1_555 1_555
C7P C14P 1_555 1_555
C8P C9P 1_555 1_555
C8P C11P 1_555 1_555
C8P C12P 1_555 1_555
C8P C14P 1_555 1_555
C9P C10P 1_555 1_555
C9P C12P 1_555 1_555
C9P C13P 1_555 1_555
C10P C12P 1_555 1_555
C10P C13P 1_555 1_555
C11P C12P 1_555 1_555
C11P C14P 1_555 1_555
C12P C13P 1_555 1_555
C15P C17P 1_555 1_555
H7P C17P 1_555 1_555
H7P H13P 1_555 1_555
H8P C17P 1_555 1_555
H8P H15P 1_555 1_555
H9P H14P 1_555 1_555
C16P C18P 1_555 1_555
H10P C18P 1_555 1_555
H11P C18P 1_555 1_555
H11P H18P 1_555 1_555
H12P H17P 1_555 1_555
C17P H13P 1_555 1_555
C17P H14P 1_555 1_555
C17P H15P 1_555 1_555
C18P H16P 1_555 1_555
C18P H17P 1_555 1_555
C18P H18P 1_555 1_555
S5J C21J 1_555 1_555
S5J C25J 1_555 1_555
S6J C22J 1_555 1_555
S6J C24J 1_555 1_555
S7J C28J 1_555 1_555
O5J C19J 1_555 1_555
O5J Zn2DA 1_555 1_555
O5BA O6DA 1_555 1_555
O5BA O7BA 1_555 1_555
O5T Zn2C 1_555 1_555
O6J C19J 1_555 1_555
O6J Zn2BA 1_555 1_555
C19J C20J 1_555 1_555
C20J C21J 1_555 1_555
C21J C22J 1_555 1_555
C21J C24J 1_555 1_555
C21J C25J 1_555 1_555
C22J C23J 1_555 1_555
C22J C24J 1_555 1_555
C22J C25J 1_555 1_555
C24J C25J 1_555 1_555
C27J C28J 1_555 1_555
C27J H25J 1_555 1_555
H22J H25J 1_555 1_555
H23J C28J 1_555 1_555
H23J H26J 1_555 1_555
H24J C28J 1_555 1_555
C28J H25J 1_555 1_555
C28J H26J 1_555 1_555
O7J Zn2DA 1_555 1_555
O7T Zn2C 1_555 1_555
O8J Zn1J 1_555 1_555
O9C Zn2C 1_555 1_555
O11Z Zn2Z 1_555 1_555
O11B Zn2C 1_555 1_555
O12C Zn2C 1_555 1_555

#END
