
#######################################################################
#
#                 Cambridge Crystallographic Data Centre
#                                CCDC 
#
#######################################################################
#
# If this CIF has been generated from an entry in the Cambridge 
# Structural Database, then it will include bibliographic, chemical, 
# crystal, experimental, refinement or atomic coordinate data resulting 
# from the CCDC's data processing and validation procedures.
#
#######################################################################

data_DUWYEB
_chemical_formula_moiety         'C66 H48 O29 Zr12'
_symmetry_cell_setting           cubic
_symmetry_space_group_name_H-M   'F m -3 m'
_symmetry_Int_Tables_number      225
_space_group_name_Hall           '-F 4 2 3'
loop_
_symmetry_equiv_pos_site_id
_symmetry_equiv_pos_as_xyz
1 x,y,z
2 x,1/2+y,1/2+z
3 1/2+x,y,1/2+z
4 1/2+x,1/2+y,z
5 y,z,x
6 y,1/2+z,1/2+x
7 1/2+y,z,1/2+x
8 1/2+y,1/2+z,x
9 z,x,y
10 z,1/2+x,1/2+y
11 1/2+z,x,1/2+y
12 1/2+z,1/2+x,y
13 -x,-y,z
14 -x,1/2-y,1/2+z
15 1/2-x,-y,1/2+z
16 1/2-x,1/2-y,z
17 -y,-z,x
18 -y,1/2-z,1/2+x
19 1/2-y,-z,1/2+x
20 1/2-y,1/2-z,x
21 -z,-x,y
22 -z,1/2-x,1/2+y
23 1/2-z,-x,1/2+y
24 1/2-z,1/2-x,y
25 y,-z,-x
26 y,1/2-z,1/2-x
27 1/2+y,-z,1/2-x
28 1/2+y,1/2-z,-x
29 z,-x,-y
30 z,1/2-x,1/2-y
31 1/2+z,-x,1/2-y
32 1/2+z,1/2-x,-y
33 -z,x,-y
34 -z,1/2+x,1/2-y
35 1/2-z,x,1/2-y
36 1/2-z,1/2+x,-y
37 -x,y,-z
38 -x,1/2+y,1/2-z
39 1/2-x,y,1/2-z
40 1/2-x,1/2+y,-z
41 -y,z,-x
42 -y,1/2+z,1/2-x
43 1/2-y,z,1/2-x
44 1/2-y,1/2+z,-x
45 x,-y,-z
46 x,1/2-y,1/2-z
47 1/2+x,-y,1/2-z
48 1/2+x,1/2-y,-z
49 -y,-x,-z
50 -y,1/2-x,1/2-z
51 1/2-y,-x,1/2-z
52 1/2-y,1/2-x,-z
53 -z,-y,-x
54 -z,1/2-y,1/2-x
55 1/2-z,-y,1/2-x
56 1/2-z,1/2-y,-x
57 -x,-z,-y
58 -x,1/2-z,1/2-y
59 1/2-x,-z,1/2-y
60 1/2-x,1/2-z,-y
61 y,x,-z
62 y,1/2+x,1/2-z
63 1/2+y,x,1/2-z
64 1/2+y,1/2+x,-z
65 z,y,-x
66 z,1/2+y,1/2-x
67 1/2+z,y,1/2-x
68 1/2+z,1/2+y,-x
69 x,z,-y
70 x,1/2+z,1/2-y
71 1/2+x,z,1/2-y
72 1/2+x,1/2+z,-y
73 z,-y,x
74 z,1/2-y,1/2+x
75 1/2+z,-y,1/2+x
76 1/2+z,1/2-y,x
77 x,-z,y
78 x,1/2-z,1/2+y
79 1/2+x,-z,1/2+y
80 1/2+x,1/2-z,y
81 -x,z,y
82 -x,1/2+z,1/2+y
83 1/2-x,z,1/2+y
84 1/2-x,1/2+z,y
85 -y,x,z
86 -y,1/2+x,1/2+z
87 1/2-y,x,1/2+z
88 1/2-y,1/2+x,z
89 -z,y,x
90 -z,1/2+y,1/2+x
91 1/2-z,y,1/2+x
92 1/2-z,1/2+y,x
93 y,-x,z
94 y,1/2-x,1/2+z
95 1/2+y,-x,1/2+z
96 1/2+y,1/2-x,z
97 -x,-y,-z
98 -x,1/2-y,1/2-z
99 1/2-x,-y,1/2-z
100 1/2-x,1/2-y,-z
101 -y,-z,-x
102 -y,1/2-z,1/2-x
103 1/2-y,-z,1/2-x
104 1/2-y,1/2-z,-x
105 -z,-x,-y
106 -z,1/2-x,1/2-y
107 1/2-z,-x,1/2-y
108 1/2-z,1/2-x,-y
109 x,y,-z
110 x,1/2+y,1/2-z
111 1/2+x,y,1/2-z
112 1/2+x,1/2+y,-z
113 y,z,-x
114 y,1/2+z,1/2-x
115 1/2+y,z,1/2-x
116 1/2+y,1/2+z,-x
117 z,x,-y
118 z,1/2+x,1/2-y
119 1/2+z,x,1/2-y
120 1/2+z,1/2+x,-y
121 -y,z,x
122 -y,1/2+z,1/2+x
123 1/2-y,z,1/2+x
124 1/2-y,1/2+z,x
125 -z,x,y
126 -z,1/2+x,1/2+y
127 1/2-z,x,1/2+y
128 1/2-z,1/2+x,y
129 z,-x,y
130 z,1/2-x,1/2+y
131 1/2+z,-x,1/2+y
132 1/2+z,1/2-x,y
133 x,-y,z
134 x,1/2-y,1/2+z
135 1/2+x,-y,1/2+z
136 1/2+x,1/2-y,z
137 y,-z,x
138 y,1/2-z,1/2+x
139 1/2+y,-z,1/2+x
140 1/2+y,1/2-z,x
141 -x,y,z
142 -x,1/2+y,1/2+z
143 1/2-x,y,1/2+z
144 1/2-x,1/2+y,z
145 y,x,z
146 y,1/2+x,1/2+z
147 1/2+y,x,1/2+z
148 1/2+y,1/2+x,z
149 z,y,x
150 z,1/2+y,1/2+x
151 1/2+z,y,1/2+x
152 1/2+z,1/2+y,x
153 x,z,y
154 x,1/2+z,1/2+y
155 1/2+x,z,1/2+y
156 1/2+x,1/2+z,y
157 -y,-x,z
158 -y,1/2-x,1/2+z
159 1/2-y,-x,1/2+z
160 1/2-y,1/2-x,z
161 -z,-y,x
162 -z,1/2-y,1/2+x
163 1/2-z,-y,1/2+x
164 1/2-z,1/2-y,x
165 -x,-z,y
166 -x,1/2-z,1/2+y
167 1/2-x,-z,1/2+y
168 1/2-x,1/2-z,y
169 -z,y,-x
170 -z,1/2+y,1/2-x
171 1/2-z,y,1/2-x
172 1/2-z,1/2+y,-x
173 -x,z,-y
174 -x,1/2+z,1/2-y
175 1/2-x,z,1/2-y
176 1/2-x,1/2+z,-y
177 x,-z,-y
178 x,1/2-z,1/2-y
179 1/2+x,-z,1/2-y
180 1/2+x,1/2-z,-y
181 y,-x,-z
182 y,1/2-x,1/2-z
183 1/2+y,-x,1/2-z
184 1/2+y,1/2-x,-z
185 z,-y,-x
186 z,1/2-y,1/2-x
187 1/2+z,-y,1/2-x
188 1/2+z,1/2-y,-x
189 -y,x,-z
190 -y,1/2+x,1/2-z
191 1/2-y,x,1/2-z
192 1/2-y,1/2+x,-z
_cell_length_a                   29.8884(3)
_cell_length_b                   29.8884(3)
_cell_length_c                   29.8884(3)
_cell_angle_alpha                90
_cell_angle_beta                 90
_cell_angle_gamma                90
_cell_volume                     26699.8
loop_
_atom_site_label
_atom_site_type_symbol
_atom_site_fract_x
_atom_site_fract_y
_atom_site_fract_z
_atom_site_U_iso_or_equiv
_atom_site_thermal_displace_type
Zr1 Zr 0.58231(3) 0.5000 0.5000 0.0302 Uani
O1 O 0.61834(18) 0.5642(2) 0.5000 0.0853 Uani
C1 C 0.6051(3) 0.6051(3) 0.5000 0.1193 Uani
C2 C 0.6399(2) 0.6399(2) 0.5000 0.1050 Uani
C3 C 0.7057(2) 0.7057(2) 0.5000 0.1067 Uani
C4 C 0.72845(15) 0.7467(2) 0.5143(4) 0.1050 Uiso
C5 C 0.6280(3) 0.6846(3) 0.500000(7) 0.1050 Uiso
C6 C 0.6608(3) 0.7174(4) 0.500000(7) 0.1050 Uiso
O2 O 0.5458(2) 0.4542(2) 0.4542(2) 0.0350 Uani
H1 H 0.5973 0.6928 0.5000 0.1260 Uiso
H2 H 0.6525 0.7481 0.5000 0.1259 Uiso
H3 H 0.7102 0.7707 0.5244 0.1263 Uiso
O1UC O 0.88166(18) 0.9358(2) 0.5000 0.0853 Uani
C1UC C 0.8949(3) 0.8949(3) 0.5000 0.1193 Uani
C2UC C 0.8601(2) 0.8601(2) 0.5000 0.1050 Uani
C3UC C 0.7943(2) 0.7943(2) 0.5000 0.1067 Uani
C4UC C 0.77155(15) 0.7533(2) 0.4857(4) 0.1050 Uiso
C5UC C 0.8720(3) 0.8154(3) 0.500000(7) 0.1050 Uiso
C6UC C 0.8392(3) 0.7826(4) 0.500000(7) 0.1050 Uiso
H1UC H 0.9027 0.8072 0.5000 0.1260 Uiso
H2UC H 0.8475 0.7519 0.5000 0.1259 Uiso
H3UC H 0.7898 0.7293 0.4756 0.1263 Uiso
C4DD C 0.72845(15) 0.7467(2) 0.4857(4) 0.1050 Uiso
H3DD H 0.7102 0.7707 0.4756 0.1263 Uiso
C4O C 0.77155(15) 0.7533(2) 0.5143(4) 0.1050 Uiso
H3O H 0.7898 0.7293 0.5244 0.1263 Uiso
O1NE O 0.5642(2) 0.61834(18) 0.5000 0.0853 Uani
C4NE C 0.7467(2) 0.72845(15) 0.5143(4) 0.1050 Uiso
C5NE C 0.6846(3) 0.6280(3) 0.500000(7) 0.1050 Uiso
C6NE C 0.7174(4) 0.6608(3) 0.500000(7) 0.1050 Uiso
H1NE H 0.6928 0.5973 0.5000 0.1260 Uiso
H2NE H 0.7481 0.6525 0.5000 0.1259 Uiso
H3NE H 0.7707 0.7102 0.5244 0.1263 Uiso
O1YA O 0.9358(2) 0.88166(18) 0.5000 0.0853 Uani
C4YA C 0.7533(2) 0.77155(15) 0.4857(4) 0.1050 Uiso
C5YA C 0.8154(3) 0.8720(3) 0.500000(7) 0.1050 Uiso
C6YA C 0.7826(4) 0.8392(3) 0.500000(7) 0.1050 Uiso
H1YA H 0.8072 0.9027 0.5000 0.1260 Uiso
H2YA H 0.7519 0.8475 0.5000 0.1259 Uiso
H3YA H 0.7293 0.7898 0.4756 0.1263 Uiso
C4HB C 0.7467(2) 0.72845(15) 0.4857(4) 0.1050 Uiso
H3HB H 0.7707 0.7102 0.4756 0.1263 Uiso
C4CF C 0.7533(2) 0.77155(15) 0.5143(4) 0.1050 Uiso
H3CF H 0.7293 0.7898 0.5244 0.1263 Uiso
Zr1D Zr 0.5000 0.5000 0.58231(3) 0.0302 Uani
O1D O 0.5642(2) 0.5000 0.61834(18) 0.0853 Uani
C1D C 0.6051(3) 0.5000 0.6051(3) 0.1193 Uani
C2D C 0.6399(2) 0.5000 0.6399(2) 0.1050 Uani
C3D C 0.7057(2) 0.5000 0.7057(2) 0.1067 Uani
C4D C 0.7467(2) 0.5143(4) 0.72845(15) 0.1050 Uiso
C5D C 0.6846(3) 0.500000(7) 0.6280(3) 0.1050 Uiso
C6D C 0.7174(4) 0.500000(7) 0.6608(3) 0.1050 Uiso
O2D O 0.4542(2) 0.4542(2) 0.5458(2) 0.0350 Uani
H1D H 0.6928 0.5000 0.5973 0.1260 Uiso
H2D H 0.7481 0.5000 0.6525 0.1259 Uiso
H3D H 0.7707 0.5244 0.7102 0.1263 Uiso
O1XC O 0.9358(2) 0.5000 0.88166(18) 0.0853 Uani
C1XC C 0.8949(3) 0.5000 0.8949(3) 0.1193 Uani
C2XC C 0.8601(2) 0.5000 0.8601(2) 0.1050 Uani
C3XC C 0.7943(2) 0.5000 0.7943(2) 0.1067 Uani
C4XC C 0.7533(2) 0.4857(4) 0.77155(15) 0.1050 Uiso
C5XC C 0.8154(3) 0.500000(7) 0.8720(3) 0.1050 Uiso
C6XC C 0.7826(4) 0.500000(7) 0.8392(3) 0.1050 Uiso
H1XC H 0.8072 0.5000 0.9027 0.1260 Uiso
H2XC H 0.7519 0.5000 0.8475 0.1259 Uiso
H3XC H 0.7293 0.4756 0.7898 0.1263 Uiso
C4FE C 0.7467(2) 0.4857(4) 0.72845(15) 0.1050 Uiso
H3FE H 0.7707 0.4756 0.7102 0.1263 Uiso
C4PA C 0.7533(2) 0.5143(4) 0.77155(15) 0.1050 Uiso
H3PA H 0.7293 0.5244 0.7898 0.1263 Uiso
O1VE O 0.61834(18) 0.5000 0.5642(2) 0.0853 Uani
C4VE C 0.72845(15) 0.5143(4) 0.7467(2) 0.1050 Uiso
C5VE C 0.6280(3) 0.500000(7) 0.6846(3) 0.1050 Uiso
C6VE C 0.6608(3) 0.500000(7) 0.7174(4) 0.1050 Uiso
H1VE H 0.5973 0.5000 0.6928 0.1260 Uiso
H2VE H 0.6525 0.5000 0.7481 0.1259 Uiso
H3VE H 0.7102 0.5244 0.7707 0.1263 Uiso
O1FB O 0.88166(18) 0.5000 0.9358(2) 0.0853 Uani
C4FB C 0.77155(15) 0.4857(4) 0.7533(2) 0.1050 Uiso
C5FB C 0.8720(3) 0.500000(7) 0.8154(3) 0.1050 Uiso
C6FB C 0.8392(3) 0.500000(7) 0.7826(4) 0.1050 Uiso
H1FB H 0.9027 0.5000 0.8072 0.1260 Uiso
H2FB H 0.8475 0.5000 0.7519 0.1259 Uiso
H3FB H 0.7898 0.4756 0.7293 0.1263 Uiso
C4XB C 0.72845(15) 0.4857(4) 0.7467(2) 0.1050 Uiso
H3XB H 0.7102 0.4756 0.7707 0.1263 Uiso
C4RF C 0.77155(15) 0.5143(4) 0.7533(2) 0.1050 Uiso
H3RF H 0.7898 0.5244 0.7293 0.1263 Uiso
Zr1XC Zr 1.0000 0.5000 0.91769(3) 0.0302 Uani
O1H O 0.5000 0.61834(18) 0.5642(2) 0.0853 Uani
C1H C 0.5000 0.6051(3) 0.6051(3) 0.1193 Uani
C2H C 0.5000 0.6399(2) 0.6399(2) 0.1050 Uani
C3H C 0.5000 0.7057(2) 0.7057(2) 0.1067 Uani
C4H C 0.5143(4) 0.72845(15) 0.7467(2) 0.1050 Uiso
C5H C 0.500000(7) 0.6280(3) 0.6846(3) 0.1050 Uiso
C6H C 0.500000(7) 0.6608(3) 0.7174(4) 0.1050 Uiso
H1H H 0.5000 0.5973 0.6928 0.1260 Uiso
H2H H 0.5000 0.6525 0.7481 0.1259 Uiso
H3H H 0.5244 0.7102 0.7707 0.1263 Uiso
O1AD O 0.5000 0.88166(18) 0.9358(2) 0.0853 Uani
C1AD C 0.5000 0.8949(3) 0.8949(3) 0.1193 Uani
C2AD C 0.5000 0.8601(2) 0.8601(2) 0.1050 Uani
C3AD C 0.5000 0.7943(2) 0.7943(2) 0.1067 Uani
C4AD C 0.4857(4) 0.77155(15) 0.7533(2) 0.1050 Uiso
C5AD C 0.500000(7) 0.8720(3) 0.8154(3) 0.1050 Uiso
C6AD C 0.500000(7) 0.8392(3) 0.7826(4) 0.1050 Uiso
H1AD H 0.5000 0.9027 0.8072 0.1260 Uiso
H2AD H 0.5000 0.8475 0.7519 0.1259 Uiso
H3AD H 0.4756 0.7898 0.7293 0.1263 Uiso
C4TD C 0.4857(4) 0.72845(15) 0.7467(2) 0.1050 Uiso
H3TD H 0.4756 0.7102 0.7707 0.1263 Uiso
C4CA C 0.5143(4) 0.77155(15) 0.7533(2) 0.1050 Uiso
H3CA H 0.5244 0.7898 0.7293 0.1263 Uiso
O1RE O 0.5000 0.5642(2) 0.61834(18) 0.0853 Uani
C4RE C 0.5143(4) 0.7467(2) 0.72845(15) 0.1050 Uiso
C5RE C 0.500000(7) 0.6846(3) 0.6280(3) 0.1050 Uiso
C6RE C 0.500000(7) 0.7174(4) 0.6608(3) 0.1050 Uiso
H1RE H 0.5000 0.6928 0.5973 0.1260 Uiso
H2RE H 0.5000 0.7481 0.6525 0.1259 Uiso
H3RE H 0.5244 0.7707 0.7102 0.1263 Uiso
O1AB O 0.5000 0.9358(2) 0.88166(18) 0.0853 Uani
C4AB C 0.4857(4) 0.7533(2) 0.77155(15) 0.1050 Uiso
C5AB C 0.500000(7) 0.8154(3) 0.8720(3) 0.1050 Uiso
C6AB C 0.500000(7) 0.7826(4) 0.8392(3) 0.1050 Uiso
H1AB H 0.5000 0.8072 0.9027 0.1260 Uiso
H2AB H 0.5000 0.7519 0.8475 0.1259 Uiso
H3AB H 0.4756 0.7293 0.7898 0.1263 Uiso
C4JC C 0.4857(4) 0.7467(2) 0.72845(15) 0.1050 Uiso
H3JC H 0.4756 0.7707 0.7102 0.1263 Uiso
C4CG C 0.5143(4) 0.7533(2) 0.77155(15) 0.1050 Uiso
H3CG H 0.5244 0.7293 0.7898 0.1263 Uiso
O2ZC O 0.5458(2) 0.4542(2) 0.5458(2) 0.0350 Uani
O2VC O 0.5458(2) 0.5458(2) 0.4542(2) 0.0350 Uani
Zr1RC Zr 0.41769(3) 0.5000 0.5000 0.0302 Uani
Zr1TC Zr 0.91769(3) 0.5000 1.0000 0.0302 Uani
Zr1UC Zr 0.91769(3) 1.0000 0.5000 0.0302 Uani
Zr1VC Zr 0.5000 0.5000 0.41769(3) 0.0302 Uani
Zr1WC Zr 0.5000 1.0000 0.91769(3) 0.0302 Uani
Zr1H Zr 0.5000 0.58231(3) 0.5000 0.0302 Uani
Zr1ZC Zr 0.5000 0.41769(3) 0.5000 0.0302 Uani
Zr1AD Zr 0.5000 0.91769(3) 1.0000 0.0302 Uani
Zr1CD Zr 1.0000 0.91769(3) 0.5000 0.0302 Uani
O1P O 0.4358(2) 0.5000 0.61834(18) 0.0853 Uani
O1JD O 1.0642(2) 0.5000 0.88166(18) 0.0853 Uani
O1BE O 0.61834(18) 0.4358(2) 0.5000 0.0853 Uani
O1BB O 1.0000 0.4358(2) 0.88166(18) 0.0853 Uani
O1DF O 0.5000 0.4358(2) 0.61834(18) 0.0853 Uani
O1NB O 1.0000 0.5642(2) 0.88166(18) 0.0853 Uani
O1PB O 0.61834(18) 0.5000 0.4358(2) 0.0853 Uani
O2RC O 0.4542(2) 0.5458(2) 0.5458(2) 0.0350 Uani
O2B O 1.0458(2) 0.4542(2) 0.9542(2) 0.0350 Uani
O2XC O 1.0458(2) 0.5458(2) 0.9542(2) 0.0350 Uani
O2J O 0.9542(2) 0.5458(2) 0.9542(2) 0.0350 Uani
O2P O 0.5458(2) 0.5458(2) 0.5458(2) 0.0350 Uani
O2JD O 0.9542(2) 0.4542(2) 0.9542(2) 0.0350 Uani
loop_
_atom_site_aniso_label
_atom_site_aniso_U_11
_atom_site_aniso_U_22
_atom_site_aniso_U_33
_atom_site_aniso_U_23
_atom_site_aniso_U_13
_atom_site_aniso_U_12
Zr1 0.0158(5) 0.0374(5) 0.0374(5) 0.0000 0.0000 0.0000
O1 0.046(3) 0.111(4) 0.099(5) 0.0000 0.0000 -0.030(3)
C1 0.112(3) 0.112(3) 0.134(12) 0.0000 0.0000 -0.017(3)
C2 0.101(3) 0.101(3) 0.113(5) 0.0000 0.0000 -0.0064(18)
C3 0.104(3) 0.104(3) 0.112(4) 0.0000 0.0000 -0.0002(13)
O2 0.035(4) 0.035(4) 0.035(4) -0.005(4) 0.005(4) 0.005(4)
O1UC 0.046 0.111 0.099 0 0 -0.03
C1UC 0.112 0.112 0.134 0 0 -0.017
C2UC 0.101 0.101 0.113 0 0 -0.0064
C3UC 0.104 0.104 0.112 0 0 -0.0002
O1NE 0.111 0.046 0.099 0 0 -0.03
O1YA 0.111 0.046 0.099 0 0 -0.03
Zr1D 0.0374 0.0374 0.0158 0 0 0
O1D 0.111 0.099 0.046 0 -0.03 0
C1D 0.112 0.134 0.112 0 -0.017 0
C2D 0.101 0.113 0.101 0 -0.0064 0
C3D 0.104 0.112 0.104 0 -0.0002 0
O2D 0.035 0.035 0.035 0.005 0.005 -0.005
O1XC 0.111 0.099 0.046 0 -0.03 0
C1XC 0.112 0.134 0.112 0 -0.017 0
C2XC 0.101 0.113 0.101 0 -0.0064 0
C3XC 0.104 0.112 0.104 0 -0.0002 0
O1VE 0.046 0.099 0.111 0 -0.03 0
O1FB 0.046 0.099 0.111 0 -0.03 0
Zr1XC 0.0374 0.0374 0.0158 0 0 0
O1H 0.099 0.046 0.111 -0.03 0 0
C1H 0.134 0.112 0.112 -0.017 0 0
C2H 0.113 0.101 0.101 -0.0064 0 0
C3H 0.112 0.104 0.104 -0.0002 0 0
O1AD 0.099 0.046 0.111 -0.03 0 0
C1AD 0.134 0.112 0.112 -0.017 0 0
C2AD 0.113 0.101 0.101 -0.0064 0 0
C3AD 0.112 0.104 0.104 -0.0002 0 0
O1RE 0.099 0.111 0.046 -0.03 0 0
O1AB 0.099 0.111 0.046 -0.03 0 0
O2ZC 0.035 0.035 0.035 0.005 -0.005 0.005
O2VC 0.035 0.035 0.035 0.005 0.005 -0.005
Zr1RC 0.0158 0.0374 0.0374 0 0 0
Zr1TC 0.0158 0.0374 0.0374 0 0 0
Zr1UC 0.0158 0.0374 0.0374 0 0 0
Zr1VC 0.0374 0.0374 0.0158 0 0 0
Zr1WC 0.0374 0.0374 0.0158 0 0 0
Zr1H 0.0374 0.0158 0.0374 0 0 0
Zr1ZC 0.0374 0.0158 0.0374 0 0 0
Zr1AD 0.0374 0.0158 0.0374 0 0 0
Zr1CD 0.0374 0.0158 0.0374 0 0 0
O1P 0.111 0.099 0.046 0 0.03 0
O1JD 0.111 0.099 0.046 0 0.03 0
O1BE 0.046 0.111 0.099 0 0 0.03
O1BB 0.099 0.111 0.046 -0.03 0 0
O1DF 0.099 0.111 0.046 0.03 0 0
O1NB 0.099 0.111 0.046 0.03 0 0
O1PB 0.046 0.099 0.111 0 0.03 0
O2RC 0.035 0.035 0.035 -0.005 0.005 0.005
O2B 0.035 0.035 0.035 -0.005 0.005 0.005
O2XC 0.035 0.035 0.035 0.005 0.005 -0.005
O2J 0.035 0.035 0.035 0.005 -0.005 0.005
O2P 0.035 0.035 0.035 -0.005 -0.005 -0.005
O2JD 0.035 0.035 0.035 -0.005 -0.005 -0.005
loop_
_geom_bond_atom_site_label_1
_geom_bond_atom_site_label_2
_geom_bond_site_symmetry_1
_geom_bond_site_symmetry_2
Zr1 O1 1_555 1_555
O1 C1 1_555 1_555
C1 C2 1_555 1_555
C2 C5 1_555 1_555
C3 C4 1_555 1_555
C4 H3 1_555 1_555
C5 C6 1_555 1_555
C6 C3 1_555 1_555
O2 Zr1 1_555 1_555
H1 C5 1_555 1_555
H2 C6 1_555 1_555
O1UC C1UC 1_555 1_555
C1UC C2UC 1_555 1_555
C2UC C5UC 1_555 1_555
C3UC C4UC 1_555 1_555
C4UC C4 1_555 1_555
C5UC C6UC 1_555 1_555
C6UC C3UC 1_555 1_555
H1UC C5UC 1_555 1_555
H2UC C6UC 1_555 1_555
H3UC C4UC 1_555 1_555
C4DD C3 1_555 1_555
H3DD C4DD 1_555 1_555
C4O C3UC 1_555 1_555
H3O C4O 1_555 1_555
O1NE C1 1_555 1_555
C4NE C3 1_555 1_555
C5NE C2 1_555 1_555
C6NE C3 1_555 1_555
H1NE C5NE 1_555 1_555
H2NE C6NE 1_555 1_555
H3NE C4NE 1_555 1_555
O1YA C1UC 1_555 1_555
C4YA C3UC 1_555 1_555
C5YA C2UC 1_555 1_555
C6YA C3UC 1_555 1_555
H1YA C5YA 1_555 1_555
H2YA C6YA 1_555 1_555
H3YA C4YA 1_555 1_555
C4HB C3 1_555 1_555
H3HB C4HB 1_555 1_555
C4CF C3UC 1_555 1_555
H3CF C4CF 1_555 1_555
Zr1D O1D 1_555 1_555
O1D C1D 1_555 1_555
C1D C2D 1_555 1_555
C2D C5D 1_555 1_555
C3D C4D 1_555 1_555
C4D H3D 1_555 1_555
C5D C6D 1_555 1_555
C6D C3D 1_555 1_555
O2D Zr1D 1_555 1_555
H1D C5D 1_555 1_555
H2D C6D 1_555 1_555
O1XC C1XC 1_555 1_555
C1XC C2XC 1_555 1_555
C2XC C5XC 1_555 1_555
C3XC C4XC 1_555 1_555
C4XC C4D 1_555 1_555
C5XC C6XC 1_555 1_555
C6XC C3XC 1_555 1_555
H1XC C5XC 1_555 1_555
H2XC C6XC 1_555 1_555
H3XC C4XC 1_555 1_555
C4FE C3D 1_555 1_555
H3FE C4FE 1_555 1_555
C4PA C3XC 1_555 1_555
H3PA C4PA 1_555 1_555
O1VE Zr1 1_555 1_555
C4VE C3D 1_555 1_555
C5VE C2D 1_555 1_555
C6VE C3D 1_555 1_555
H1VE C5VE 1_555 1_555
H2VE C6VE 1_555 1_555
H3VE C4VE 1_555 1_555
O1FB C1XC 1_555 1_555
C4FB C3XC 1_555 1_555
C5FB C2XC 1_555 1_555
C6FB C3XC 1_555 1_555
H1FB C5FB 1_555 1_555
H2FB C6FB 1_555 1_555
H3FB C4FB 1_555 1_555
C4XB C3D 1_555 1_555
H3XB C4XB 1_555 1_555
C4RF C3XC 1_555 1_555
H3RF C4RF 1_555 1_555
Zr1XC O1XC 1_555 1_555
O1H C1H 1_555 1_555
C1H C2H 1_555 1_555
C2H C5H 1_555 1_555
C3H C4H 1_555 1_555
C4H H3H 1_555 1_555
C5H C6H 1_555 1_555
C6H C3H 1_555 1_555
H1H C5H 1_555 1_555
H2H C6H 1_555 1_555
O1AD C1AD 1_555 1_555
C1AD C2AD 1_555 1_555
C2AD C5AD 1_555 1_555
C3AD C4AD 1_555 1_555
C4AD C4H 1_555 1_555
C5AD C6AD 1_555 1_555
C6AD C3AD 1_555 1_555
H1AD C5AD 1_555 1_555
H2AD C6AD 1_555 1_555
H3AD C4AD 1_555 1_555
C4TD C3H 1_555 1_555
H3TD C4TD 1_555 1_555
C4CA C3AD 1_555 1_555
H3CA C4CA 1_555 1_555
O1RE Zr1D 1_555 1_555
C4RE C3H 1_555 1_555
C5RE C2H 1_555 1_555
C6RE C3H 1_555 1_555
H1RE C5RE 1_555 1_555
H2RE C6RE 1_555 1_555
H3RE C4RE 1_555 1_555
O1AB C1AD 1_555 1_555
C4AB C3AD 1_555 1_555
C5AB C2AD 1_555 1_555
C6AB C3AD 1_555 1_555
H1AB C5AB 1_555 1_555
H2AB C6AB 1_555 1_555
H3AB C4AB 1_555 1_555
C4JC C3H 1_555 1_555
H3JC C4JC 1_555 1_555
C4CG C3AD 1_555 1_555
H3CG C4CG 1_555 1_555
O2ZC Zr1 1_555 1_555
O2VC Zr1 1_555 1_555
Zr1RC O2D 1_555 1_555
Zr1TC O1FB 1_555 1_555
Zr1UC O1UC 1_555 1_555
Zr1VC O2 1_555 1_555
Zr1WC O1AB 1_555 1_555
Zr1H O1NE 1_555 1_555
Zr1ZC O2 1_555 1_555
Zr1AD O1AD 1_555 1_555
Zr1CD O1YA 1_555 1_555
O1P Zr1D 1_555 1_555
O1JD Zr1XC 1_555 1_555
O1BE Zr1 1_555 1_555
O1BB Zr1XC 1_555 1_555
O1DF Zr1D 1_555 1_555
O1NB Zr1XC 1_555 1_555
O1PB Zr1 1_555 1_555
O2RC Zr1D 1_555 1_555
O2B Zr1XC 1_555 1_555
O2XC Zr1XC 1_555 1_555
O2J Zr1XC 1_555 1_555
O2P Zr1 1_555 1_555
O2JD Zr1XC 1_555 1_555
C4DD C4O 1_555 1_555
C4NE C4YA 1_555 1_555
C5NE C6NE 1_555 1_555
C5YA C6YA 1_555 1_555
C4HB C4CF 1_555 1_555
Zr1D O2ZC 1_555 1_555
Zr1D O2P 1_555 1_555
C1D O1VE 1_555 1_555
O2D Zr1ZC 1_555 1_555
C4FE C4PA 1_555 1_555
C4VE C4FB 1_555 1_555
C5VE C6VE 1_555 1_555
C5FB C6FB 1_555 1_555
C4XB C4RF 1_555 1_555
O1H Zr1H 1_555 1_555
C1H O1RE 1_555 1_555
C4TD C4CA 1_555 1_555
C4RE C4AB 1_555 1_555
C5RE C6RE 1_555 1_555
C5AB C6AB 1_555 1_555
C4JC C4CG 1_555 1_555
O2ZC Zr1ZC 1_555 1_555
O2VC Zr1VC 1_555 1_555
O2VC Zr1H 1_555 1_555
Zr1RC O2RC 1_555 1_555
Zr1TC O2J 1_555 1_555
Zr1TC O2JD 1_555 1_555
Zr1H O2RC 1_555 1_555
Zr1H O2P 1_555 1_555

#END
