
#######################################################################
#
#                 Cambridge Crystallographic Data Centre
#                                CCDC 
#
#######################################################################
#
# If this CIF has been generated from an entry in the Cambridge 
# Structural Database, then it will include bibliographic, chemical, 
# crystal, experimental, refinement or atomic coordinate data resulting 
# from the CCDC's data processing and validation procedures.
#
#######################################################################

data_GAWCUF
_chemical_formula_moiety         '(C33 H38 Co2 N6 O10)n'
_symmetry_cell_setting           monoclinic
_symmetry_space_group_name_H-M   'P 21/n'
_symmetry_Int_Tables_number      14
_space_group_name_Hall           '-P 2yn'
loop_
_symmetry_equiv_pos_site_id
_symmetry_equiv_pos_as_xyz
1 x,y,z
2 1/2-x,1/2+y,1/2-z
3 -x,-y,-z
4 1/2+x,1/2-y,1/2+z
_cell_length_a                   18.3638(12)
_cell_length_b                   10.9135(4)
_cell_length_c                   18.8942(11)
_cell_angle_alpha                90
_cell_angle_beta                 108.374(5)
_cell_angle_gamma                90
_cell_volume                     3593.6
loop_
_atom_site_label
_atom_site_type_symbol
_atom_site_fract_x
_atom_site_fract_y
_atom_site_fract_z
Co1 Co 0.18635(2) 0.29472(4) 0.47069(2)
Co2 Co 0.28547(2) 0.29775(4) 0.37667(2)
O1 O 0.11172(13) 0.3015(2) 0.36397(11)
O2 O 0.18544(12) 0.3057(2) 0.28995(11)
O3 O 0.25962(14) 0.1177(2) 0.38731(13)
O4 O 0.18782(16) 0.1106(2) 0.46227(14)
O5 O 0.28131(13) -0.5185(2) 0.39262(12)
O6 O 0.20443(14) -0.5209(2) 0.46415(13)
O7 O -0.21096(13) 0.2149(3) 0.05285(12)
O8 O -0.13533(13) 0.2179(2) -0.01935(11)
N1 N 0.10528(15) 0.3257(2) 0.52198(14)
N2 N 0.04164(16) 0.4047(3) 0.59159(14)
N3 N -0.07349(16) 0.2262(3) 0.73942(15)
N4 N -0.13943(14) 0.1873(2) 0.81585(13)
C1 C 0.12169(18) 0.2968(3) 0.30130(16)
C2 C 0.22508(19) 0.0614(3) 0.42456(18)
C3 C 0.23038(19) -0.0750(3) 0.42573(18)
C4 C 0.2092(2) -0.1415(3) 0.47964(18)
H1 H 0.1905 -0.1004 0.5141
C5 C 0.25712(19) -0.1369(3) 0.37473(18)
H2 H 0.2714 -0.0925 0.3386
C6 C 0.24353(19) -0.4672(3) 0.42987(17)
C7 C 0.24215(19) -0.3301(3) 0.43074(17)
C8 C 0.21584(19) -0.2679(3) 0.48200(17)
H3 H 0.2024 -0.3121 0.5187
C9 C 0.26292(19) -0.2639(3) 0.37662(18)
H4 H 0.2807 -0.3052 0.3416
C10 C 0.05139(17) 0.2793(3) 0.23478(16)
C11 C 0.05623(17) 0.2914(3) 0.16288(16)
H5 H 0.1036 0.3107 0.1563
C12 C -0.00828(18) 0.2753(3) 0.10106(17)
H6 H -0.0044 0.2839 0.0529
C13 C -0.07873(18) 0.2464(3) 0.11001(17)
C14 C -0.14666(18) 0.2250(3) 0.04217(17)
C15 C -0.08367(18) 0.2356(3) 0.18126(17)
H7 H -0.1311 0.2166 0.1878
C16 C -0.01933(19) 0.2525(3) 0.24322(17)
H8 H -0.0237 0.2458 0.2913
C17 C 0.11166(18) 0.3878(3) 0.58426(16)
C18 C -0.0115(2) 0.3521(4) 0.53113(19)
H9 H -0.0649 0.3504 0.5211
C19 C 0.02817(18) 0.3038(3) 0.48918(17)
H10 H 0.0065 0.2614 0.4441
C20 C 0.0244(2) 0.4678(3) 0.65302(19)
H11 H -0.0238 0.5130 0.6331
H12 H 0.0651 0.5275 0.6753
C21 C 0.0177(2) 0.3800(3) 0.71364(19)
H13 H 0.0658 0.3343 0.7336
H14 H 0.0093 0.4270 0.7545
C22 C -0.0481(2) 0.2906(4) 0.68308(18)
H15 H -0.0919 0.3355 0.6500
H16 H -0.0325 0.2294 0.6527
C23 C -0.11670(18) 0.2741(3) 0.77845(16)
C24 C -0.1094(2) 0.0783(3) 0.79902(18)
H17 H -0.1164 0.0007 0.8175
C25 C -0.0688(2) 0.1006(3) 0.7523(2)
H18 H -0.0425 0.0429 0.7325
C26 C -0.1362(2) 0.4064(3) 0.7783(2)
H19 H -0.1440 0.4402 0.7289
H20 H -0.0945 0.4496 0.8142
H21 H -0.1827 0.4158 0.7916
C27 C 0.1838(2) 0.4343(4) 0.6375(2)
H22 H 0.1948 0.3901 0.6842
H23 H 0.1785 0.5210 0.6462
H24 H 0.2255 0.4224 0.6170
Co1_2 Co 0.18635(2) -0.70528(4) 0.47069(2)
Co1C Co -0.31365(2) 0.20528(4) -0.02931(2)
Co2_2 Co 0.28547(2) -0.70225(4) 0.37667(2)
Co2C Co -0.21453(2) 0.20225(4) -0.12333(2)
Co2C_2 Co -0.21453(2) 0.20225(4) 0.87667(2)
O5_2 O 0.28131(13) 0.4815(2) 0.39262(12)
O6_2 O 0.20443(14) 0.4791(2) 0.46415(13)
O7C O 0.28904(13) 0.2851(3) 0.55285(12)
O8C O 0.36467(13) 0.2821(2) 0.48065(11)
N4C N 0.36057(14) 0.3127(2) 0.31585(13)
O9 O 0.64877(19) 0.3140(4) 0.32886(19)
N5 N 0.58780(19) 0.3291(3) 0.41666(18)
C28 C 0.6213(3) 0.3732(5) 0.3689(2)
H25 H 0.6240 0.4590 0.3657
C29 C 0.5561(3) 0.4079(4) 0.4612(2)
H26 H 0.5581 0.4925 0.4460
H27 H 0.5857 0.3992 0.5135
H28 H 0.5032 0.3850 0.4540
C30 C 0.5817(3) 0.1980(4) 0.4256(2)
H29 H 0.6010 0.1554 0.3902
H30 H 0.5283 0.1762 0.4168
H31 H 0.6116 0.1746 0.4759
O10 O 0.6342(2) 0.7323(3) 0.1527(2)
N6 N 0.6824(3) 0.5393(4) 0.1575(2)
C31 C 0.6874(3) 0.6609(4) 0.1602(2)
H32 H 0.7364 0.6951 0.1687
C32 C 0.7506(4) 0.4631(6) 0.1643(3)
H33 H 0.7611 0.4121 0.2085
H34 H 0.7944 0.5156 0.1686
H35 H 0.7411 0.4116 0.1205
C33 C 0.6094(4) 0.4775(7) 0.1452(5)
H36 H 0.5698 0.5377 0.1425
H37 H 0.6132 0.4215 0.1860
H38 H 0.5965 0.4321 0.0987
loop_
_geom_bond_atom_site_label_1
_geom_bond_atom_site_label_2
_geom_bond_site_symmetry_1
_geom_bond_site_symmetry_2
Co1 Co2 1_555 1_555
Co2 O2 1_555 1_555
O1 Co1 1_555 1_555
O2 C1 1_555 1_555
O3 Co2 1_555 1_555
O4 Co1 1_555 1_555
O5 C6 1_555 1_555
O6 C6 1_555 1_555
O7 C14 1_555 1_555
O8 C14 1_555 1_555
N1 Co1 1_555 1_555
N2 C17 1_555 1_555
N3 C22 1_555 1_555
N4 C23 1_555 1_555
C1 O1 1_555 1_555
C2 O3 1_555 1_555
C3 C2 1_555 1_555
C4 C3 1_555 1_555
H1 C4 1_555 1_555
C5 C3 1_555 1_555
H2 C5 1_555 1_555
C6 C7 1_555 1_555
C7 C8 1_555 1_555
C8 C4 1_555 1_555
H3 C8 1_555 1_555
C9 C5 1_555 1_555
H4 C9 1_555 1_555
C10 C1 1_555 1_555
C11 C10 1_555 1_555
H5 C11 1_555 1_555
C12 C11 1_555 1_555
H6 C12 1_555 1_555
C13 C12 1_555 1_555
C14 C13 1_555 1_555
C15 C13 1_555 1_555
H7 C15 1_555 1_555
C16 C10 1_555 1_555
H8 C16 1_555 1_555
C17 N1 1_555 1_555
C18 N2 1_555 1_555
H9 C18 1_555 1_555
C19 N1 1_555 1_555
H10 C19 1_555 1_555
C20 N2 1_555 1_555
H11 C20 1_555 1_555
H12 C20 1_555 1_555
C21 C20 1_555 1_555
H13 C21 1_555 1_555
H14 C21 1_555 1_555
C22 C21 1_555 1_555
H15 C22 1_555 1_555
H16 C22 1_555 1_555
C23 N3 1_555 1_555
C24 N4 1_555 1_555
H17 C24 1_555 1_555
C25 N3 1_555 1_555
H18 C25 1_555 1_555
C26 C23 1_555 1_555
H19 C26 1_555 1_555
H20 C26 1_555 1_555
H21 C26 1_555 1_555
C27 C17 1_555 1_555
H22 C27 1_555 1_555
H23 C27 1_555 1_555
H24 C27 1_555 1_555
O9 C28 1_555 1_555
N5 C28 1_555 1_555
C28 H25 1_555 1_555
C29 N5 1_555 1_555
H26 C29 1_555 1_555
H27 C29 1_555 1_555
H28 C29 1_555 1_555
C30 N5 1_555 1_555
H29 C30 1_555 1_555
H30 C30 1_555 1_555
H31 C30 1_555 1_555
O10 C31 1_555 1_555
N6 C31 1_555 1_555
C31 H32 1_555 1_555
C32 N6 1_555 1_555
H33 C32 1_555 1_555
H34 C32 1_555 1_555
H35 C32 1_555 1_555
C33 N6 1_555 1_555
H36 C33 1_555 1_555
H37 C33 1_555 1_555
H38 C33 1_555 1_555
Co1_2 O6 1_555 1_555
Co1C O7 1_555 1_555
Co2_2 O5 1_555 1_555
Co2C O8 1_555 1_555
Co2C_2 N4 1_555 1_555
O5_2 Co2 1_555 1_555
O6_2 Co1 1_555 1_555
O7C Co1 1_555 1_555
O8C Co2 1_555 1_555
N4C Co2 1_555 1_555
O4 C2 1_555 1_555
C7 C9 1_555 1_555
C15 C16 1_555 1_555
C18 C19 1_555 1_555
C24 C25 1_555 1_555
Co1_2 Co2_2 1_555 1_555
Co1C Co2C 1_555 1_555

#END
