
#######################################################################
#
#                 Cambridge Crystallographic Data Centre
#                                CCDC 
#
#######################################################################
#
# If this CIF has been generated from an entry in the Cambridge 
# Structural Database, then it will include bibliographic, chemical, 
# crystal, experimental, refinement or atomic coordinate data resulting 
# from the CCDC's data processing and validation procedures.
#
#######################################################################

data_KEWJIG
_chemical_formula_moiety         'C36 H33 Cu10 O24 P4'
_symmetry_cell_setting           rhombohedral
_symmetry_space_group_name_H-M   'R -3'
_symmetry_Int_Tables_number      148
_space_group_name_Hall           '-R 3'
loop_
_symmetry_equiv_pos_site_id
_symmetry_equiv_pos_as_xyz
1 x,y,z
2 -y,x-y,z
3 -x+y,-x,z
4 2/3+x,1/3+y,1/3+z
5 2/3-y,1/3+x-y,1/3+z
6 2/3-x+y,1/3-x,1/3+z
7 1/3+x,2/3+y,2/3+z
8 1/3-y,2/3+x-y,2/3+z
9 1/3-x+y,2/3-x,2/3+z
10 -x,-y,-z
11 y,-x+y,-z
12 x-y,x,-z
13 1/3-x,2/3-y,2/3-z
14 1/3+y,2/3-x+y,2/3-z
15 1/3+x-y,2/3+x,2/3-z
16 2/3-x,1/3-y,1/3-z
17 2/3+y,1/3-x+y,1/3-z
18 2/3+x-y,1/3+x,1/3-z
_cell_length_a                   18.812(3)
_cell_length_b                   18.812(3)
_cell_length_c                   34.892(7)
_cell_angle_alpha                90
_cell_angle_beta                 90
_cell_angle_gamma                120.00
_cell_volume                     10693.7
loop_
_atom_site_label
_atom_site_type_symbol
_atom_site_fract_x
_atom_site_fract_y
_atom_site_fract_z
C1 C 0.2276(4) 0.1718(4) -0.0675(3)
H1 H 0.2078 0.1994 -0.0831
C2 C 0.3086(5) 0.2121(5) -0.0531(3)
H2 H 0.3431 0.2691 -0.0579
C3 C 0.2866(5) 0.0948(5) -0.0170(3)
H3 H 0.3013 0.0725 0.0039
C4 C 0.2104(5) 0.0529(5) -0.0335(3)
H4 H 0.1777 -0.0042 -0.0284
C5 C 0.0339(10) -0.0357(10) -0.1937(4)
H5 H 0.0583 -0.0614 -0.1797
C6 C 0.0349(10) -0.0369(10) -0.2317(5)
H6 H 0.0600 -0.0635 -0.2443
C13 C 0.0436(2) -0.0442(2) -0.05711(12)
H13 H 0.0723 -0.0732 -0.0660
H14 H 0.0437 -0.0443 -0.0287
C14 C 0.0900(2) 0.0447(2) -0.07150(12)
C15 C 0.0870(2) 0.0436(2) -0.11643(12)
H15 H 0.1156 0.1007 -0.1262
H16 H 0.1160 0.0158 -0.1264
C16 C 0.0000 0.0000 -0.1307(2)
C17 C 0.1781(2) 0.0892(2) -0.05746(12)
C18 C 0.3399(3) 0.1695(3) -0.03165(17)
C19 C 0.0000 0.0000 -0.1748(2)
C20 C -0.0000 0.0000 -0.2541(2)
O1 O 0.5683(5) 0.1352(6) -0.0853(3)
O2 O 0.4825(3) 0.1746(4) -0.0306(2)
O3 O 0.4842(4) 0.3084(3) -0.0306(2)
O4 O 0.4437(5) 0.2211(6) 0.0314(2)
H17 H 0.4224 0.2480 0.0397
O5 O -0.04318(18) -0.08717(18) -0.31756(9)
P1 P 0.44372(14) 0.2221(2) -0.01300(8)
P2 P 0.0000 0.0000 -0.30598(5)
Cu1 Cu 0.59404(6) 0.18806(7) -0.03297(3)
O6 O 0.6667 0.3333 -0.0703(4)
C1B C -0.0558(6) -0.2276(4) -0.0675(3)
C1A C -0.1718(4) 0.0558(6) -0.0675(3)
H1B H -0.0084 -0.2078 -0.0831
H1A H -0.1994 0.0084 -0.0831
C2B C -0.0965(7) -0.3086(5) -0.0531(3)
C2A C -0.2121(5) 0.0965(7) -0.0531(3)
H2B H -0.0740 -0.3431 -0.0579
H2A H -0.2691 0.0740 -0.0579
C3B C -0.1918(7) -0.2866(5) -0.0170(3)
C3A C -0.0948(5) 0.1918(7) -0.0170(3)
H3B H -0.2288 -0.3013 0.0039
H3A H -0.0725 0.2288 0.0039
C4B C -0.1575(7) -0.2104(5) -0.0335(3)
C4A C -0.0529(5) 0.1575(7) -0.0335(3)
H4B H -0.1819 -0.1777 -0.0284
H4A H 0.0042 0.1819 -0.0284
C5B C -0.0696(14) -0.0339(10) -0.1937(4)
C5A C 0.0357(10) 0.0696(14) -0.1937(4)
H5B H -0.1197 -0.0583 -0.1797
H5A H 0.0614 0.1197 -0.1797
C6B C -0.0718(14) -0.0349(10) -0.2317(5)
C6A C 0.0369(10) 0.0718(14) -0.2317(5)
H6A H 0.0635 0.1235 -0.2443
H6B H -0.1235 -0.0600 -0.2443
C13B C -0.0878(3) -0.0436(2) -0.05711(12)
C13A C 0.0442(2) 0.0878(3) -0.05711(12)
H13B H -0.1455 -0.0723 -0.0660
H13A H 0.0732 0.1455 -0.0660
H14B H -0.0880 -0.0437 -0.0287
H14A H 0.0443 0.0880 -0.0287
C14B C -0.0453(3) -0.0900(2) -0.07150(12)
C14A C -0.0447(2) 0.0453(3) -0.07150(12)
C15B C -0.0434(3) -0.0870(2) -0.11643(12)
C15A C -0.0436(2) 0.0434(3) -0.11643(12)
H15B H -0.0149 -0.1156 -0.1262
H15A H -0.1007 0.0149 -0.1262
H16B H -0.1002 -0.1160 -0.1264
H16A H -0.0158 0.1002 -0.1264
C17B C -0.0889(3) -0.1781(2) -0.05746(12)
C17A C -0.0892(2) 0.0889(3) -0.05746(12)
C18B C -0.1704(4) -0.3399(3) -0.03165(17)
C18A C -0.1695(3) 0.1704(4) -0.03165(17)
O1B O -0.4331(8) -0.5683(5) -0.0853(3)
O1A O -0.1352(6) 0.4331(8) -0.0853(3)
O2B O -0.3079(5) -0.4825(3) -0.0306(2)
O2A O -0.1746(4) 0.3079(5) -0.0306(2)
O3B O -0.1758(5) -0.4842(4) -0.0306(2)
O3A O -0.3084(3) 0.1758(5) -0.0306(2)
O3A_2 O 0.6916(3) 0.1758(5) -0.0306(2)
O3_2 O -0.5158(4) -0.6916(3) -0.0306(2)
O3B_2 O -0.1758(5) 0.5158(4) -0.0306(2)
O4B O -0.2226(8) -0.4437(5) 0.0314(2)
O4A O -0.2211(6) 0.2226(8) 0.0314(2)
H17B H -0.1744 -0.4224 0.0397
H17A H -0.2480 0.1744 0.0397
O5B O -0.04399(25) 0.04318(18) -0.31756(9)
O5A O 0.08717(18) 0.04399(25) -0.31756(9)
O5C O 0.62349(18) 0.24616(18) 0.01577(9)
O5E O -0.37732(25) -0.62349(18) 0.01577(9)
O5D O -0.24616(18) 0.37732(25) 0.01577(9)
P1B P -0.22162(24) -0.44372(14) -0.01300(8)
P1A P -0.2221(2) 0.22162(24) -0.01300(8)
Cu1B Cu -0.40598(9) -0.59404(6) -0.03297(3)
Cu1A Cu -0.18806(7) 0.40598(9) -0.03297(3)
Cu1B_2 Cu 0.59402(9) 0.40596(6) -0.03297(3)
Cu1F Cu -0.07263(6) -0.14527(7) -0.36630(3)
Cu1A_2 Cu 0.81194(7) 0.40598(9) -0.03297(3)
Cu1A_3 Cu -0.18806(7) -0.59402(9) -0.03297(3)
Cu1_2 Cu -0.40596(6) 0.18806(7) -0.03297(3)
Cu1H Cu -0.07265(9) 0.07263(6) -0.36630(3)
Cu1G Cu 0.14527(7) 0.07265(9) -0.36630(3)
O6_2 O -0.3333 -0.6667 -0.0703(4)
O6_3 O -0.3333 0.3333 -0.0703(4)
loop_
_geom_bond_atom_site_label_1
_geom_bond_atom_site_label_2
_geom_bond_site_symmetry_1
_geom_bond_site_symmetry_2
C1 H1 1_555 1_555
C2 C1 1_555 1_555
H2 C2 1_555 1_555
C3 H3 1_555 1_555
C4 C3 1_555 1_555
H4 C4 1_555 1_555
C5 H5 1_555 1_555
C6 C5 1_555 1_555
H6 C6 1_555 1_555
C13 H13 1_555 1_555
H14 C13 1_555 1_555
C14 C13 1_555 1_555
C15 C14 1_555 1_555
H15 C15 1_555 1_555
H16 C15 1_555 1_555
C16 C15 1_555 1_555
C17 C1 1_555 1_555
C18 C2 1_555 1_555
C19 C5 1_555 1_555
C20 C6 1_555 1_555
O1 Cu1 1_555 1_555
O2 P1 1_555 1_555
O3 P1 1_555 1_555
O4 H17 1_555 1_555
O5 P2 1_555 1_555
P1 C18 1_555 1_555
P2 C20 1_555 1_555
Cu1 O2 1_555 1_555
O6 Cu1 1_555 1_555
C1B H1B 1_555 1_555
C1A H1A 1_555 1_555
C2B C1B 1_555 1_555
C2A C1A 1_555 1_555
H2B C2B 1_555 1_555
H2A C2A 1_555 1_555
C3B H3B 1_555 1_555
C3A H3A 1_555 1_555
C4B C3B 1_555 1_555
C4A C3A 1_555 1_555
H4B C4B 1_555 1_555
H4A C4A 1_555 1_555
C5B C19 1_555 1_555
C5A C19 1_555 1_555
H5B C5B 1_555 1_555
H5A C5A 1_555 1_555
C6B C20 1_555 1_555
C6A C20 1_555 1_555
H6A C6A 1_555 1_555
H6B C6B 1_555 1_555
C13B H13B 1_555 1_555
C13A C14 1_555 1_555
H13A C13A 1_555 1_555
H14B C13B 1_555 1_555
H14A C13A 1_555 1_555
C14B C13 1_555 1_555
C14A C13B 1_555 1_555
C15B C16 1_555 1_555
C15A C16 1_555 1_555
H15B C15B 1_555 1_555
H15A C15A 1_555 1_555
H16B C15B 1_555 1_555
H16A C15A 1_555 1_555
C17B C1B 1_555 1_555
C17A C1A 1_555 1_555
C18B C2B 1_555 1_555
C18A C2A 1_555 1_555
O1B Cu1B 1_555 1_555
O1A Cu1A 1_555 1_555
O2B P1B 1_555 1_555
O2A P1A 1_555 1_555
O3B P1B 1_555 1_555
O3A P1A 1_555 1_555
O3A_2 Cu1 1_555 1_555
O3_2 Cu1B 1_555 1_555
O3B_2 Cu1A 1_555 1_555
O4B H17B 1_555 1_555
O4A H17A 1_555 1_555
O5B P2 1_555 1_555
O5A P2 1_555 1_555
O5C Cu1 1_555 1_555
O5E Cu1B 1_555 1_555
O5D Cu1A 1_555 1_555
P1B C18B 1_555 1_555
P1A C18A 1_555 1_555
Cu1B O2B 1_555 1_555
Cu1A O2A 1_555 1_555
Cu1B_2 O3 1_555 1_555
Cu1F O5 1_555 1_555
Cu1A_2 O6 1_555 1_555
Cu1A_3 O3B 1_555 1_555
Cu1_2 O3A 1_555 1_555
Cu1H O5B 1_555 1_555
Cu1G O5A 1_555 1_555
O6_2 Cu1B 1_555 1_555
O6_3 Cu1A 1_555 1_555
C3 C18 1_555 1_555
C4 C17 1_555 1_555
C14 C17 1_555 1_555
C16 C19 1_555 1_555
O4 P1 1_555 1_555
O6 Cu1B_2 1_555 1_555
C3B C18B 1_555 1_555
C3A C18A 1_555 1_555
C4B C17B 1_555 1_555
C4A C17A 1_555 1_555
C5B C6B 1_555 1_555
C5A C6A 1_555 1_555
C13B C14B 1_555 1_555
C13A C14A 1_555 1_555
C14B C15B 1_555 1_555
C14B C17B 1_555 1_555
C14A C15A 1_555 1_555
C14A C17A 1_555 1_555
O4B P1B 1_555 1_555
O4A P1A 1_555 1_555
Cu1A_3 O6_2 1_555 1_555
Cu1_2 O6_3 1_555 1_555

#END
