
#######################################################################
#
#                 Cambridge Crystallographic Data Centre
#                                CCDC 
#
#######################################################################
#
# If this CIF has been generated from an entry in the Cambridge 
# Structural Database, then it will include bibliographic, chemical, 
# crystal, experimental, refinement or atomic coordinate data resulting 
# from the CCDC's data processing and validation procedures.
#
#######################################################################

data_SACDOR
_chemical_formula_moiety         '(C69 H52 I6 N12 O1 Zn3)n'
_symmetry_cell_setting           orthorhombic
_symmetry_space_group_name_H-M   'P b c a'
_symmetry_Int_Tables_number      61
_space_group_name_Hall           '-P 2ac 2ab'
loop_
_symmetry_equiv_pos_site_id
_symmetry_equiv_pos_as_xyz
1 x,y,z
2 1/2-x,-y,1/2+z
3 -x,1/2+y,1/2-z
4 1/2+x,1/2-y,-z
5 -x,-y,-z
6 1/2+x,y,1/2-z
7 x,1/2-y,1/2+z
8 1/2-x,1/2+y,z
_cell_length_a                   27.394(3)
_cell_length_b                   13.7377(13)
_cell_length_c                   45.072(4)
_cell_angle_alpha                90
_cell_angle_beta                 90
_cell_angle_gamma                90
_cell_volume                     16962
loop_
_atom_site_label
_atom_site_type_symbol
_atom_site_fract_x
_atom_site_fract_y
_atom_site_fract_z
_atom_site_U_iso_or_equiv
_atom_site_thermal_displace_type
C1 C 0.7952(9) 0.3041(15) 0.8591(5) 0.1363 Uani
C2 C 0.8338(9) 0.3208(19) 0.8787(7) 0.1287 Uani
H1 H 0.8666 0.3154 0.8720 0.1540 Uiso
C3 C 0.8237(12) 0.346(2) 0.9084(6) 0.1440 Uani
H2 H 0.8495 0.3587 0.9219 0.1730 Uiso
C4 C 0.7752(13) 0.351(3) 0.9175(5) 0.1400 Uani
H3 H 0.7682 0.3628 0.9379 0.1680 Uiso
C5 C 0.7371(11) 0.340(3) 0.8979(6) 0.1273 Uani
H4 H 0.7044 0.3497 0.9043 0.1530 Uiso
C6 C 0.7468(9) 0.313(4) 0.8679(5) 0.1270 Uani
C7 C 0.7094(8) 0.296(2) 0.8472(5) 0.1090 Uani
C8 C 0.6613(10) 0.306(4) 0.8568(7) 0.1443 Uani
H5 H 0.6545 0.3218 0.8769 0.1730 Uiso
C9 C 0.6228(9) 0.291(3) 0.8364(7) 0.1433 Uani
H6 H 0.5899 0.3042 0.8419 0.1720 Uiso
C10 C 0.6341(9) 0.258(3) 0.8083(7) 0.1560 Uani
C11 C 0.6818(10) 0.248(3) 0.7986(6) 0.1320 Uani
H7 H 0.6884 0.2273 0.7789 0.1580 Uiso
C12 C 0.7205(8) 0.270(3) 0.8180(6) 0.1210 Uani
C13 C 0.7702(9) 0.262(4) 0.8093(6) 0.1280 Uani
C14 C 0.7834(12) 0.236(3) 0.7798(6) 0.1293 Uani
H8 H 0.7590 0.2205 0.7656 0.1550 Uiso
C15 C 0.8326(13) 0.233(4) 0.7722(7) 0.1473 Uani
H9 H 0.8416 0.2185 0.7523 0.1770 Uiso
C16 C 0.8691(11) 0.251(4) 0.7932(8) 0.1580 Uani
H10 H 0.9025 0.2448 0.7878 0.1890 Uiso
C17 C 0.8559(9) 0.277(3) 0.8223(8) 0.1427 Uani
H11 H 0.8802 0.2925 0.8366 0.1710 Uiso
C18 C 0.8062(9) 0.281(3) 0.8296(6) 0.1353 Uani
C19 C 0.5951(12) 0.242(4) 0.7874(9) 0.2333 Uani
H12 H 0.5625 0.2534 0.7937 0.2820 Uiso
O1 O 0.602(2) 0.214(4) 0.7617(9) 0.3033 Uani
C20 C 0.8005(12) 0.178(2) 0.9713(6) 0.1437 Uani
H13 H 0.7922 0.2447 0.9701 0.1720 Uiso
C21 C 0.8485(10) 0.150(2) 0.9770(5) 0.1073 Uani
H14 H 0.8729 0.1986 0.9796 0.1300 Uiso
C22 C 0.8606(8) 0.052(2) 0.9789(5) 0.1063 Uani
H15 H 0.8934 0.0335 0.9828 0.1270 Uiso
C23 C 0.8248(10) -0.0184(19) 0.9751(6) 0.1360 Uani
C24 C 0.7769(9) 0.009(2) 0.9694(6) 0.1383 Uani
H16 H 0.7524 -0.0393 0.9668 0.1660 Uiso
C25 C 0.7647(9) 0.107(3) 0.9675(6) 0.1277 Uani
H17 H 0.7320 0.1258 0.9636 0.1540 Uiso
C26 C 0.8366(19) -0.121(2) 0.9816(17) 0.2400 Uani
H18 H 0.8078 -0.1611 0.9778 0.3600 Uiso
H19 H 0.8462 -0.1268 1.0024 0.3600 Uiso
H20 H 0.8635 -0.1418 0.9688 0.3600 Uiso
C27 C 0.4377(7) 0.0001(15) 0.7638(3) 0.0817 Uani
C28 C 0.4186(7) 0.0672(12) 0.7837(4) 0.0793 Uani
H21 H 0.4137 0.1329 0.7778 0.0950 Uiso
C29 C 0.4065(6) 0.0382(15) 0.8124(4) 0.0700 Uani
H22 H 0.3934 0.0841 0.8260 0.0840 Uiso
C30 C 0.4136(7) -0.0578(16) 0.8210(3) 0.0777 Uani
H23 H 0.4054 -0.0776 0.8406 0.0930 Uiso
C31 C 0.4327(8) -0.1249(12) 0.8011(4) 0.0883 Uani
H24 H 0.4376 -0.1906 0.8070 0.1050 Uiso
C32 C 0.4448(7) -0.0959(14) 0.7725(4) 0.0977 Uani
H25 H 0.4579 -0.1418 0.7588 0.1190 Uiso
C33 C 0.4540(13) 0.034(2) 0.7343(5) 0.1333 Uani
H26 H 0.4463 0.1028 0.7319 0.1950 Uiso
H27 H 0.4373 -0.0041 0.7188 0.1950 Uiso
H28 H 0.4894 0.0241 0.7324 0.1950 Uiso
Zn1 Zn 0.74305(6) 0.17100(10) 1.18330(3) 0.0488 Uani
Zn2 Zn 0.54597(5) 0.14741(11) 0.91870(3) 0.0453 Uani
Zn3 Zn 0.47402(5) -0.12407(11) 1.41482(3) 0.0483 Uani
I1 I 0.83370(4) 0.18505(9) 1.17259(2) 0.0807 Uani
I2 I 0.69323(4) 0.32568(7) 1.19226(2) 0.0697 Uani
I3 I 0.55770(5) 0.32997(8) 0.92278(3) 0.0799 Uani
I4 I 0.48041(4) 0.05840(10) 0.89038(2) 0.0819 Uani
I5 I 0.49408(4) -0.20065(7) 1.46501(2) 0.0680 Uani
I6 I 0.42543(5) -0.20962(10) 1.37559(3) 0.0943 Uani
C34 C 0.7106(7) -0.0044(10) 1.1499(3) 0.0723 Uani
H29 H 0.7279 -0.0380 1.1651 0.0870 Uiso
C35 C 0.6885(6) -0.0574(10) 1.1284(3) 0.0680 Uani
H30 H 0.6892 -0.1265 1.1291 0.0810 Uiso
C36 C 0.6649(5) -0.0099(9) 1.1054(2) 0.0457 Uani
C37 C 0.6643(6) 0.0892(10) 1.1067(3) 0.0610 Uani
H31 H 0.6482 0.1248 1.0915 0.0730 Uiso
C38 C 0.6860(6) 0.1380(10) 1.1291(3) 0.0593 Uani
H32 H 0.6846 0.2071 1.1294 0.0710 Uiso
C39 C 0.5771(5) 0.1327(9) 0.9813(2) 0.0497 Uani
H33 H 0.5830 0.2004 0.9791 0.0590 Uiso
C40 C 0.5926(5) 0.0877(9) 1.0074(3) 0.0520 Uani
H34 H 0.6097 0.1234 1.0221 0.0620 Uiso
C41 C 0.5826(4) -0.0090(9) 1.0111(2) 0.0393 Uani
C42 C 0.5574(5) -0.0559(11) 0.9895(3) 0.0600 Uani
H35 H 0.5484 -0.1221 0.9921 0.0720 Uiso
C43 C 0.5447(5) -0.0072(10) 0.9637(3) 0.0537 Uani
H36 H 0.5285 -0.0418 0.9483 0.0640 Uiso
C44 C 0.5534(5) -0.4480(9) 1.0505(3) 0.0553 Uani
H37 H 0.5386 -0.4826 1.0347 0.0660 Uiso
C45 C 0.5701(6) -0.3551(10) 1.0453(3) 0.0590 Uani
H38 H 0.5669 -0.3268 1.0262 0.0710 Uiso
C46 C 0.5915(4) -0.3032(9) 1.0682(2) 0.0420 Uani
C47 C 0.5959(5) -0.3491(9) 1.0954(3) 0.0487 Uani
H39 H 0.6108 -0.3161 1.1116 0.0580 Uiso
C48 C 0.5788(4) -0.4413(9) 1.0990(3) 0.0473 Uani
H40 H 0.5823 -0.4712 1.1179 0.0570 Uiso
C49 C 0.6397(5) -0.0649(9) 1.0815(2) 0.0450 Uani
C50 C 0.6004(5) -0.0615(10) 1.0377(3) 0.0463 Uani
C51 C 0.6065(5) -0.2000(9) 1.0640(3) 0.0463 Uani
C52 C 0.8893(5) -0.0709(8) 1.3707(2) 0.0423 Uani
H41 H 0.9199 -0.0611 1.3612 0.0510 Uiso
C53 C 0.8483(4) -0.0536(7) 1.3551(2) 0.0333 Uani
H42 H 0.8500 -0.0323 1.3351 0.0400 Uiso
C54 C 0.8038(4) -0.0675(7) 1.3689(2) 0.0323 Uani
C55 C 0.8027(4) -0.0955(9) 1.3982(2) 0.0397 Uani
H43 H 0.7726 -0.1032 1.4084 0.0470 Uiso
C56 C 0.8466(4) -0.1121(9) 1.4123(2) 0.0433 Uani
H44 H 0.8461 -0.1322 1.4325 0.0520 Uiso
C57 C 0.5816(5) -0.0941(9) 1.4090(3) 0.0483 Uani
H45 H 0.5809 -0.1052 1.4298 0.0580 Uiso
C58 C 0.6262(4) -0.0809(8) 1.3951(3) 0.0413 Uani
H46 H 0.6556 -0.0858 1.4063 0.0500 Uiso
C59 C 0.6280(4) -0.0609(7) 1.3654(2) 0.0303 Uani
C60 C 0.5846(5) -0.0563(9) 1.3501(3) 0.0510 Uani
H47 H 0.5841 -0.0426 1.3295 0.0610 Uiso
C61 C 0.5420(5) -0.0718(10) 1.3652(3) 0.0513 Uani
H48 H 0.5122 -0.0680 1.3545 0.0620 Uiso
C62 C 0.6903(5) 0.0799(9) 1.2338(2) 0.0453 Uani
H49 H 0.6624 0.0986 1.2226 0.0540 Uiso
C63 C 0.6837(5) 0.0456(9) 1.2619(3) 0.0463 Uani
H50 H 0.6518 0.0414 1.2701 0.0560 Uiso
C64 C 0.7233(4) 0.0171(7) 1.2782(2) 0.0353 Uani
C65 C 0.7683(5) 0.0214(7) 1.2645(2) 0.0417 Uani
H51 H 0.7967 0.0002 1.2747 0.0500 Uiso
C66 C 0.7721(5) 0.0560(8) 1.2361(2) 0.0407 Uani
H52 H 0.8032 0.0565 1.2269 0.0490 Uiso
C67 C 0.7569(4) -0.0518(7) 1.3523(2) 0.0297 Uani
C68 C 0.6756(4) -0.0496(7) 1.3504(2) 0.0353 Uani
C69 C 0.7199(4) -0.0136(7) 1.3099(2) 0.0343 Uani
N1 N 0.7092(4) 0.0921(7) 1.1509(2) 0.0490 Uani
N2 N 0.5549(3) 0.0873(8) 0.9599(2) 0.0423 Uani
N3 N 0.5572(4) -0.4923(7) 1.0773(2) 0.0483 Uani
N4 N 0.6324(4) -0.1592(7) 1.0854(2) 0.0467 Uani
N5 N 0.6251(4) -0.0110(7) 1.0577(2) 0.0450 Uani
N6 N 0.5886(4) -0.1555(8) 1.03953(19) 0.0473 Uani
N7 N 0.8891(3) -0.1017(7) 1.39930(19) 0.0377 Uani
N8 N 0.5397(4) -0.0917(7) 1.3941(2) 0.0443 Uani
N9 N 0.7343(4) 0.0885(7) 1.22118(19) 0.0410 Uani
N10 N 0.7615(3) -0.0263(6) 1.32367(18) 0.0310 Uani
N11 N 0.7150(3) -0.0620(6) 1.36647(18) 0.0283 Uani
N12 N 0.6754(3) -0.0234(6) 1.32144(18) 0.0357 Uani
Zn2A Zn 0.95403(5) -0.14741(11) 1.41870(3) 0.0453 Uani
Zn3B Zn 0.52598(5) -0.62407(11) 1.08518(3) 0.0483 Uani
N3B N 0.4428(4) 0.0077(7) 1.4227(2) 0.0483 Uani
N7A N 0.6109(3) 0.1017(7) 0.89930(19) 0.0377 Uani
loop_
_atom_site_aniso_label
_atom_site_aniso_U_11
_atom_site_aniso_U_22
_atom_site_aniso_U_33
_atom_site_aniso_U_23
_atom_site_aniso_U_13
_atom_site_aniso_U_12
C1 0.143(10) 0.124(17) 0.142(11) 0.009(14) 0.007(8) -0.006(14)
C2 0.142(12) 0.100(17) 0.144(12) 0.013(14) 0.007(10) -0.017(15)
C3 0.156(13) 0.127(18) 0.149(13) 0.003(15) 0.003(12) -0.013(16)
C4 0.156(15) 0.124(18) 0.140(13) 0.000(15) 0.004(10) -0.003(15)
C5 0.155(13) 0.103(17) 0.124(12) 0.018(14) 0.005(9) -0.002(15)
C6 0.144(10) 0.104(17) 0.133(11) 0.010(14) 0.007(8) -0.002(14)
C7 0.142(10) 0.068(14) 0.117(10) 0.036(12) 0.007(8) 0.000(13)
C8 0.144(10) 0.138(18) 0.151(14) 0.018(15) 0.009(9) 0.001(16)
C9 0.143(12) 0.134(18) 0.153(15) 0.019(15) 0.007(11) 0.000(15)
C10 0.156(11) 0.155(17) 0.157(14) 0.015(14) 0.001(12) -0.006(15)
C11 0.157(11) 0.108(17) 0.131(13) 0.015(14) 0.000(10) 0.006(15)
C12 0.150(10) 0.089(15) 0.124(11) 0.026(13) 0.004(8) 0.005(14)
C13 0.152(10) 0.101(17) 0.131(11) 0.021(14) 0.010(8) 0.007(14)
C14 0.159(13) 0.095(17) 0.134(12) 0.019(14) 0.010(10) 0.018(15)
C15 0.163(14) 0.133(19) 0.146(14) 0.009(15) 0.017(11) 0.009(16)
C16 0.158(13) 0.157(19) 0.159(15) 0.001(15) 0.015(11) 0.011(16)
C17 0.150(10) 0.128(18) 0.150(14) 0.013(15) 0.011(10) 0.010(15)
C18 0.149(10) 0.119(16) 0.138(11) 0.013(14) 0.008(8) 0.004(14)
C19 0.23(2) 0.22(2) 0.25(2) 0.018(17) -0.013(17) -0.019(18)
O1 0.32(3) 0.31(3) 0.28(3) -0.019(19) 0.020(19) 0.001(19)
C20 0.16(2) 0.18(2) 0.091(18) 0.022(18) 0.013(18) -0.004(19)
C21 0.115(19) 0.15(2) 0.057(14) 0.016(16) 0.014(15) 0.003(18)
C22 0.106(18) 0.16(2) 0.053(14) -0.009(16) 0.014(14) -0.014(17)
C23 0.13(2) 0.18(2) 0.098(18) 0.003(18) 0.027(18) 0.007(19)
C24 0.14(2) 0.17(2) 0.105(19) 0.001(19) 0.014(18) -0.002(19)
C25 0.13(2) 0.17(2) 0.083(17) 0.017(18) -0.020(16) 0.006(19)
C26 0.23(4) 0.25(4) 0.24(4) 0.00(3) 0.04(3) 0.00(3)
C27 0.070(16) 0.14(2) 0.035(13) 0.023(15) -0.026(12) -0.013(17)
C28 0.062(15) 0.097(19) 0.079(17) 0.001(15) -0.048(14) -0.010(14)
C29 0.039(12) 0.092(18) 0.079(16) -0.017(15) -0.029(12) -0.011(13)
C30 0.065(16) 0.11(2) 0.058(15) 0.019(15) -0.023(13) -0.012(16)
C31 0.092(19) 0.10(2) 0.073(17) 0.028(16) -0.014(16) -0.004(17)
C32 0.071(17) 0.14(2) 0.082(18) -0.032(19) -0.005(16) -0.008(19)
C33 0.15(3) 0.13(3) 0.12(3) 0.05(3) -0.08(3) -0.01(3)
Zn1 0.0735(10) 0.0407(8) 0.0321(7) 0.0038(6) -0.0022(7) -0.0055(7)
Zn2 0.0468(8) 0.0552(9) 0.0338(7) 0.0026(6) -0.0037(6) 0.0169(7)
Zn3 0.0454 0.0424 0.057 0.0027 -0.0016 -0.0095
I1 0.0812(7) 0.0990(9) 0.0619(6) 0.0260(6) 0.0147(5) -0.0052(6)
I2 0.0976(8) 0.0384(5) 0.0732(7) -0.0035(4) 0.0011(5) -0.0005(5)
I3 0.1104(9) 0.0542(6) 0.0750(7) 0.0066(5) -0.0052(6) 0.0344(6)
I4 0.0548(6) 0.1258(10) 0.0652(6) -0.0182(6) -0.0041(5) 0.0140(6)
I5 0.0708 0.0612 0.0719 0.0294 0.004 -0.0077
I6 0.0838 0.0907 0.1085 -0.0276 -0.0158 -0.0352
C34 0.134(14) 0.048(9) 0.035(7) 0.006(6) -0.032(8) 0.017(9)
C35 0.121(13) 0.045(8) 0.038(7) -0.005(6) -0.018(8) 0.010(8)
C36 0.066(8) 0.052(8) 0.019(5) 0.004(5) -0.001(5) 0.008(6)
C37 0.099(11) 0.043(8) 0.041(7) 0.007(6) -0.026(7) 0.019(7)
C38 0.097(11) 0.039(7) 0.042(7) 0.003(6) -0.022(7) 0.008(7)
C39 0.073(9) 0.044(7) 0.032(6) -0.001(6) 0.005(6) 0.011(6)
C40 0.081(9) 0.038(7) 0.037(7) -0.006(5) 0.002(6) 0.013(6)
C41 0.046(7) 0.045(7) 0.027(6) -0.004(5) 0.002(5) 0.004(5)
C42 0.068(9) 0.061(9) 0.051(8) 0.024(7) -0.011(7) -0.014(7)
C43 0.069(9) 0.053(8) 0.039(7) 0.009(6) -0.013(6) -0.009(7)
C44 0.077(9) 0.046(8) 0.043(7) -0.006(6) -0.006(6) 0.000(7)
C45 0.088(10) 0.051(8) 0.038(7) 0.001(6) 0.003(7) 0.001(7)
C46 0.040(6) 0.054(7) 0.032(6) -0.011(5) 0.000(5) 0.008(6)
C47 0.057(8) 0.035(7) 0.054(8) 0.000(6) -0.018(6) -0.009(6)
C48 0.055(7) 0.052(8) 0.035(6) 0.011(6) -0.010(6) -0.004(6)
C49 0.054(7) 0.055(8) 0.026(6) 0.006(5) -0.001(5) 0.005(6)
C50 0.050(7) 0.054(8) 0.035(6) 0.009(6) 0.007(5) 0.009(6)
C51 0.055(7) 0.042(7) 0.042(7) 0.006(6) 0.009(6) -0.001(6)
C52 0.053 0.042 0.032 -0.002 0.01 0.008
C53 0.047 0.031 0.022 0.003 -0.003 -0.001
C54 0.047 0.023 0.027 -0.001 0 -0.001
C55 0.039 0.046 0.034 0.003 0.003 0.001
C56 0.042 0.06 0.028 0.008 -0.001 0.003
C57 0.05 0.055 0.04 0 -0.001 -0.001
C58 0.045 0.032 0.047 -0.004 -0.003 0.003
C59 0.039 0.023 0.029 -0.002 -0.002 0
C60 0.053 0.051 0.049 0.011 -0.007 0.001
C61 0.043 0.058 0.053 0.01 -0.015 -0.003
C62 0.055 0.048 0.033 0.002 -0.014 0
C63 0.052 0.047 0.04 -0.005 -0.007 -0.011
C64 0.058 0.022 0.026 -0.008 -0.004 -0.001
C65 0.07 0.018 0.037 -0.001 -0.001 0.008
C66 0.052 0.03 0.04 -0.008 0.003 0.008
C67 0.041 0.016 0.032 -0.002 -0.003 -0.001
C68 0.05 0.014 0.042 0.001 -0.003 -0.002
C69 0.06 0.016 0.027 -0.008 -0.001 0.002
N1 0.080(8) 0.038(6) 0.029(5) 0.002(4) -0.007(5) 0.004(5)
N2 0.035(5) 0.058(7) 0.034(5) 0.003(5) 0.006(4) 0.013(5)
N3 0.053(6) 0.045(6) 0.047(6) -0.002(5) -0.005(5) 0.014(5)
N4 0.057(6) 0.048(6) 0.035(5) 0.006(5) -0.010(5) 0.005(5)
N5 0.054(6) 0.048(6) 0.033(5) 0.000(5) 0.002(5) 0.008(5)
N6 0.059(6) 0.060(7) 0.023(5) 0.003(5) 0.003(4) 0.003(5)
N7 0.051 0.035 0.027 -0.001 0.003 0.003
N8 0.048 0.033 0.052 0.007 -0.006 -0.001
N9 0.056 0.039 0.028 -0.001 -0.006 -0.006
N10 0.042 0.024 0.027 -0.004 -0.008 -0.002
N11 0.034 0.019 0.032 -0.002 -0.001 0
N12 0.055 0.025 0.027 -0.006 -0.005 -0.003
Zn2A 0.0468 0.0552 0.0338 -0.0026 0.0037 0.0169
Zn3B 0.0454 0.0424 0.057 -0.0027 -0.0016 0.0095
N3B 0.053 0.045 0.047 0.002 -0.005 -0.014
N7A 0.051(6) 0.035(5) 0.027(5) 0.001(4) -0.003(4) 0.003(4)
loop_
_geom_bond_atom_site_label_1
_geom_bond_atom_site_label_2
_geom_bond_site_symmetry_1
_geom_bond_site_symmetry_2
C1 C2 1_555 1_555
C2 H1 1_555 1_555
C3 C2 1_555 1_555
H2 C3 1_555 1_555
C4 C3 1_555 1_555
H3 C4 1_555 1_555
C5 C4 1_555 1_555
H4 C5 1_555 1_555
C6 C1 1_555 1_555
C7 C6 1_555 1_555
C8 C7 1_555 1_555
H5 C8 1_555 1_555
C9 C8 1_555 1_555
H6 C9 1_555 1_555
C10 C9 1_555 1_555
C11 C10 1_555 1_555
H7 C11 1_555 1_555
C12 C7 1_555 1_555
C13 C12 1_555 1_555
C14 C13 1_555 1_555
H8 C14 1_555 1_555
C15 C14 1_555 1_555
H9 C15 1_555 1_555
C16 C15 1_555 1_555
H10 C16 1_555 1_555
C17 C16 1_555 1_555
H11 C17 1_555 1_555
C18 C1 1_555 1_555
C19 C10 1_555 1_555
H12 C19 1_555 1_555
O1 C19 1_555 1_555
C20 H13 1_555 1_555
C21 C20 1_555 1_555
H14 C21 1_555 1_555
C22 C21 1_555 1_555
H15 C22 1_555 1_555
C23 C22 1_555 1_555
C24 C23 1_555 1_555
H16 C24 1_555 1_555
C25 C20 1_555 1_555
H17 C25 1_555 1_555
C26 C23 1_555 1_555
H18 C26 1_555 1_555
H19 C26 1_555 1_555
H20 C26 1_555 1_555
C27 C28 1_555 1_555
C28 H21 1_555 1_555
C29 C28 1_555 1_555
H22 C29 1_555 1_555
C30 C29 1_555 1_555
H23 C30 1_555 1_555
C31 C30 1_555 1_555
H24 C31 1_555 1_555
C32 C27 1_555 1_555
H25 C32 1_555 1_555
C33 C27 1_555 1_555
H26 C33 1_555 1_555
H27 C33 1_555 1_555
H28 C33 1_555 1_555
Zn1 I1 1_555 1_555
Zn2 I3 1_555 1_555
Zn3 I5 1_555 1_555
I2 Zn1 1_555 1_555
I4 Zn2 1_555 1_555
I6 Zn3 1_555 1_555
C34 H29 1_555 1_555
C35 C34 1_555 1_555
H30 C35 1_555 1_555
C36 C35 1_555 1_555
C37 C36 1_555 1_555
H31 C37 1_555 1_555
C38 C37 1_555 1_555
H32 C38 1_555 1_555
C39 H33 1_555 1_555
C40 C39 1_555 1_555
H34 C40 1_555 1_555
C41 C40 1_555 1_555
C42 C41 1_555 1_555
H35 C42 1_555 1_555
C43 C42 1_555 1_555
H36 C43 1_555 1_555
C44 H37 1_555 1_555
C45 C44 1_555 1_555
H38 C45 1_555 1_555
C46 C45 1_555 1_555
C47 C46 1_555 1_555
H39 C47 1_555 1_555
C48 C47 1_555 1_555
H40 C48 1_555 1_555
C49 C36 1_555 1_555
C50 C41 1_555 1_555
C51 C46 1_555 1_555
C52 H41 1_555 1_555
C53 C52 1_555 1_555
H42 C53 1_555 1_555
C54 C53 1_555 1_555
C55 C54 1_555 1_555
H43 C55 1_555 1_555
C56 C55 1_555 1_555
H44 C56 1_555 1_555
C57 H45 1_555 1_555
C58 C57 1_555 1_555
H46 C58 1_555 1_555
C59 C58 1_555 1_555
C60 C59 1_555 1_555
H47 C60 1_555 1_555
C61 C60 1_555 1_555
H48 C61 1_555 1_555
C62 H49 1_555 1_555
C63 C62 1_555 1_555
H50 C63 1_555 1_555
C64 C63 1_555 1_555
C65 C64 1_555 1_555
H51 C65 1_555 1_555
C66 C65 1_555 1_555
H52 C66 1_555 1_555
C67 C54 1_555 1_555
C68 C59 1_555 1_555
C69 C64 1_555 1_555
N1 Zn1 1_555 1_555
N2 Zn2 1_555 1_555
N3 C44 1_555 1_555
N4 C49 1_555 1_555
N5 C49 1_555 1_555
N6 C50 1_555 1_555
N7 C52 1_555 1_555
N8 Zn3 1_555 1_555
N9 Zn1 1_555 1_555
N10 C67 1_555 1_555
N11 C67 1_555 1_555
N12 C68 1_555 1_555
Zn2A N7 1_555 1_555
Zn3B N3 1_555 1_555
N3B Zn3 1_555 1_555
N7A Zn2 1_555 1_555
C5 C6 1_555 1_555
C11 C12 1_555 1_555
C13 C18 1_555 1_555
C17 C18 1_555 1_555
C24 C25 1_555 1_555
C31 C32 1_555 1_555
C34 N1 1_555 1_555
C38 N1 1_555 1_555
C39 N2 1_555 1_555
C43 N2 1_555 1_555
C48 N3 1_555 1_555
C50 N5 1_555 1_555
C51 N4 1_555 1_555
C51 N6 1_555 1_555
C56 N7 1_555 1_555
C57 N8 1_555 1_555
C61 N8 1_555 1_555
C62 N9 1_555 1_555
C66 N9 1_555 1_555
C68 N11 1_555 1_555
C69 N10 1_555 1_555
C69 N12 1_555 1_555

#END
