
#######################################################################
#
#                 Cambridge Crystallographic Data Centre
#                                CCDC 
#
#######################################################################
#
# If this CIF has been generated from an entry in the Cambridge 
# Structural Database, then it will include bibliographic, chemical, 
# crystal, experimental, refinement or atomic coordinate data resulting 
# from the CCDC's data processing and validation procedures.
#
#######################################################################

data_SACDUX
_chemical_formula_moiety         '(C77 H64 I6 N12 O1 Zn3)n'
_symmetry_cell_setting           orthorhombic
_symmetry_space_group_name_H-M   'P b c a'
_symmetry_Int_Tables_number      61
_space_group_name_Hall           '-P 2ac 2ab'
loop_
_symmetry_equiv_pos_site_id
_symmetry_equiv_pos_as_xyz
1 x,y,z
2 1/2-x,-y,1/2+z
3 -x,1/2+y,1/2-z
4 1/2+x,1/2-y,-z
5 -x,-y,-z
6 1/2+x,y,1/2-z
7 x,1/2-y,1/2+z
8 1/2-x,1/2+y,z
_cell_length_a                   27.540(4)
_cell_length_b                   13.812(2)
_cell_length_c                   45.022(7)
_cell_angle_alpha                90
_cell_angle_beta                 90
_cell_angle_gamma                90
_cell_volume                     17125.6
loop_
_atom_site_label
_atom_site_type_symbol
_atom_site_fract_x
_atom_site_fract_y
_atom_site_fract_z
Zn1 Zn -0.54598(4) -0.14989(9) -0.08331(2)
Zn2 Zn -0.52592(4) 0.62268(8) 0.08525(3)
Zn3 Zn -0.25762(5) 0.32664(8) 0.31795(2)
I1 I -0.47932(3) -0.06496(8) -0.11211(2)
I2 I -0.55938(4) -0.33109(6) -0.07815(2)
I3 I -0.50523(3) 0.69976(6) 0.034840(19)
I4 I -0.57615(4) 0.70730(8) 0.12401(3)
I5 I -0.16696(4) 0.31485(8) 0.32890(2)
I6 I -0.30501(3) 0.16960(5) 0.309680(18)
C1 C -0.5443(4) 0.0067(8) -0.0384(2)
H1 H -0.5284 0.0404 -0.0540
C2 C -0.5569(4) 0.0576(8) -0.0127(2)
H2 H -0.5492 0.1243 -0.0107
C3 C -0.5811(4) 0.0080(7) 0.00977(19)
C4 C -0.5889(4) -0.0906(7) 0.0069(2)
H3 H -0.6038 -0.1269 0.0223
C5 C -0.5744(4) -0.1345(8) -0.0192(2)
H4 H -0.5794 -0.2023 -0.0210
C6 C -0.5781(4) 0.4409(7) 0.0983(2)
H5 H -0.5828 0.4719 0.1169
C7 C -0.5945(4) 0.3460(7) 0.0946(2)
H6 H -0.6088 0.3121 0.1108
C8 C -0.5898(4) 0.3018(7) 0.0674(2)
C9 C -0.5676(4) 0.3543(7) 0.0440(2)
H7 H -0.5639 0.3266 0.0248
C10 C -0.5516(4) 0.4467(8) 0.0499(2)
H8 H -0.5365 0.4821 0.0344
C11 C -0.6878(5) -0.1403(7) 0.1267(2)
H9 H -0.6888 -0.2090 0.1262
C12 C -0.6657(5) -0.0911(8) 0.1039(2)
H10 H -0.6515 -0.1263 0.0880
C13 C -0.6638(4) 0.0078(7) 0.1039(2)
C14 C -0.6854(6) 0.0564(8) 0.1279(3)
H11 H -0.6850 0.1251 0.1290
C15 C -0.7072(6) 0.0019(9) 0.1499(2)
H12 H -0.7222 0.0350 0.1660
C16 C -0.5977(4) 0.0613(7) 0.0367(2)
C17 C -0.6042(4) 0.1989(7) 0.0629(2)
C18 C -0.6387(4) 0.0632(7) 0.08014(19)
C19 C -0.4183(4) 0.5923(8) 0.0914(2)
H13 H -0.4190 0.6026 0.0705
C20 C -0.3735(4) 0.5806(7) 0.1052(2)
H14 H -0.3442 0.5870 0.0942
C21 C -0.3725(3) 0.5599(6) 0.1347(2)
C22 C -0.4159(4) 0.5541(9) 0.1500(2)
H15 H -0.4161 0.5406 0.1707
C23 C -0.4586(4) 0.5679(10) 0.1350(3)
H16 H -0.4883 0.5618 0.1457
C24 C -0.1107(4) 0.5723(7) 0.1307(2)
H17 H -0.0805 0.5644 0.1406
C25 C -0.1525(4) 0.5536(7) 0.1460(2)
H18 H -0.1510 0.5340 0.1662
C26 C -0.1970(3) 0.5633(6) 0.13199(18)
C27 C -0.1969(4) 0.5914(9) 0.1020(2)
H19 H -0.2265 0.5984 0.0914
C28 C -0.1527(4) 0.6086(9) 0.0884(2)
H20 H -0.1526 0.6265 0.0680
C29 C -0.3106(4) 0.4147(7) 0.2673(2)
H21 H -0.3382 0.3946 0.2783
C30 C -0.3174(4) 0.4502(8) 0.2388(2)
H22 H -0.3491 0.4539 0.2305
C31 C -0.2778(4) 0.4799(6) 0.22246(19)
C32 C -0.2316(4) 0.4779(6) 0.2364(2)
H23 H -0.2035 0.5004 0.2263
C33 C -0.2285(4) 0.4422(7) 0.2651(2)
H24 H -0.1978 0.4421 0.2747
C34 C -0.3251(3) 0.5467(6) 0.1502(2)
C35 C -0.2431(3) 0.5481(6) 0.14864(19)
C36 C -0.2813(3) 0.5112(6) 0.1910(2)
N1 N -0.5538(3) -0.0883(6) -0.04191(17)
N2 N -0.5561(3) 0.4895(6) 0.07671(19)
N3 N -0.7082(3) -0.0936(6) 0.14984(18)
N4 N -0.5861(3) 0.1551(6) 0.03853(17)
N5 N -0.6313(3) 0.1580(6) 0.08386(18)
N6 N -0.6228(3) 0.0101(6) 0.05685(16)
N7 N -0.4604(3) 0.5895(6) 0.10618(19)
N8 N -0.1105(3) 0.6013(6) 0.10241(17)
N9 N -0.2672(3) 0.4078(6) 0.27995(16)
N10 N -0.3255(3) 0.5217(5) 0.17917(16)
N11 N -0.2850(3) 0.5597(5) 0.13370(16)
N12 N -0.2393(3) 0.5238(5) 0.17696(15)
Zn1C Zn -0.04598(4) 0.64989(9) 0.08331(2)
Zn3B Zn -0.74238(5) -0.17336(8) 0.18205(2)
N3B N -0.2918(3) 0.4064(6) 0.35016(18)
N8C N -0.6105(3) -0.1013(6) -0.10241(17)
C37 C -0.2198(8) 0.1857(14) -0.3729(5)
C38 C -0.2375(7) 0.1633(18) -0.4017(5)
H25 H -0.2150 0.1493 -0.4171
C39 C -0.2862(10) 0.1614(15) -0.4081(5)
C40 C -0.3187(10) 0.175(2) -0.3838(5)
H26 H -0.3526 0.1676 -0.3872
C41 C -0.3027(8) 0.1974(14) -0.3548(5)
H27 H -0.3252 0.2086 -0.3392
C42 C -0.2496(8) 0.2034(16) -0.3497(5)
C43 C -0.2241(8) 0.2283(11) -0.3205(4)
C44 C -0.2592(9) 0.2533(17) -0.2976(5)
H28 H -0.2934 0.2532 -0.3004
C45 C -0.2366(10) 0.2771(18) -0.2714(5)
H29 H -0.2576 0.2989 -0.2560
C46 C -0.1899(9) 0.2741(16) -0.2645(5)
H30 H -0.1797 0.2886 -0.2448
C47 C -0.1555(9) 0.2492(19) -0.2864(5)
H31 H -0.1216 0.2480 -0.2826
C48 C -0.1778(9) 0.2240(13) -0.3171(4)
C49 C -0.1465(8) 0.2031(17) -0.3427(5)
C50 C -0.0957(9) 0.191(2) -0.3379(5)
H32 H -0.0844 0.1951 -0.3180
C51 C -0.0629(9) 0.174(2) -0.3588(7)
H33 H -0.0293 0.1659 -0.3546
C52 C -0.0819(9) 0.1692(18) -0.3881(6)
H34 H -0.0597 0.1648 -0.4042
C53 C -0.1308(7) 0.1706(16) -0.3944(5)
H35 H -0.1412 0.1606 -0.4143
C54 C -0.1671(8) 0.1869(14) -0.3714(5)
C55 C -0.3029(18) 0.134(4) -0.4396(7)
H36 H -0.3364 0.1074 -0.4366
C56 C -0.272(3) 0.043(4) -0.4513(12)
H37 H -0.2838 0.0253 -0.4712
H38 H -0.2767 -0.0113 -0.4377
H39 H -0.2379 0.0608 -0.4523
O1 O -0.309(3) 0.204(3) -0.4620(8)
H40 H -0.3255 0.2504 -0.4554
C57 C -0.5620(7) 0.5014(17) -0.2636(3)
C58 C -0.5520(7) 0.5958(16) -0.2725(4)
H41 H -0.5380 0.6402 -0.2588
C59 C -0.5626(8) 0.6253(13) -0.3013(5)
H42 H -0.5558 0.6898 -0.3073
C60 C -0.5832(7) 0.5604(16) -0.3212(3)
H43 H -0.5904 0.5805 -0.3409
C61 C -0.5931(6) 0.4660(15) -0.3124(4)
H44 H -0.6072 0.4217 -0.3261
C62 C -0.5825(7) 0.4365(13) -0.2836(4)
H45 H -0.5894 0.3721 -0.2776
C63 C -0.5484(14) 0.466(3) -0.2340(6)
H46 H -0.5348 0.5199 -0.2224
H47 H -0.5242 0.4148 -0.2358
H48 H -0.5773 0.4410 -0.2239
C64 C -0.4452(11) 0.296(2) -0.3062(6)
C65 C -0.4590(9) 0.392(3) -0.3024(6)
H49 H -0.4853 0.4172 -0.3135
C66 C -0.4344(12) 0.450(2) -0.2822(7)
H50 H -0.4438 0.5155 -0.2796
C67 C -0.3959(11) 0.412(3) -0.2659(6)
H51 H -0.3791 0.4521 -0.2522
C68 C -0.3821(9) 0.316(3) -0.2697(6)
H52 H -0.3558 0.2905 -0.2586
C69 C -0.4067(11) 0.258(2) -0.2899(7)
H53 H -0.3973 0.1923 -0.2925
C70 C -0.4728(19) 0.231(3) -0.3261(11)
H54 H -0.4984 0.2680 -0.3360
H55 H -0.4873 0.1785 -0.3145
H56 H -0.4508 0.2037 -0.3410
C71 C -0.2017(9) 0.267(3) -0.5266(6)
C72 C -0.1987(13) 0.174(3) -0.5151(10)
H57 H -0.2126 0.1214 -0.5257
C73 C -0.1752(15) 0.158(3) -0.4883(11)
H58 H -0.1731 0.0942 -0.4804
C74 C -0.1548(13) 0.235(3) -0.4728(7)
H59 H -0.1388 0.2240 -0.4544
C75 C -0.1579(15) 0.328(3) -0.4843(7)
H60 H -0.1440 0.3810 -0.4737
C76 C -0.1814(14) 0.344(3) -0.5112(7)
H61 H -0.1835 0.4082 -0.5190
C77 C -0.230(3) 0.289(5) -0.5538(13)
H62 H -0.2426 0.2279 -0.5623
H63 H -0.2097 0.3214 -0.5684
H64 H -0.2579 0.3305 -0.5487
loop_
_geom_bond_atom_site_label_1
_geom_bond_atom_site_label_2
_geom_bond_site_symmetry_1
_geom_bond_site_symmetry_2
Zn1 I1 1_555 1_555
Zn2 I3 1_555 1_555
Zn3 I5 1_555 1_555
I2 Zn1 1_555 1_555
I4 Zn2 1_555 1_555
I6 Zn3 1_555 1_555
C1 H1 1_555 1_555
C2 C1 1_555 1_555
H2 C2 1_555 1_555
C3 C2 1_555 1_555
C4 C3 1_555 1_555
H3 C4 1_555 1_555
C5 C4 1_555 1_555
H4 C5 1_555 1_555
C6 H5 1_555 1_555
C7 C6 1_555 1_555
H6 C7 1_555 1_555
C8 C7 1_555 1_555
C9 C8 1_555 1_555
H7 C9 1_555 1_555
C10 C9 1_555 1_555
H8 C10 1_555 1_555
C11 H9 1_555 1_555
C12 C11 1_555 1_555
H10 C12 1_555 1_555
C13 C12 1_555 1_555
C14 C13 1_555 1_555
H11 C14 1_555 1_555
C15 C14 1_555 1_555
H12 C15 1_555 1_555
C16 C3 1_555 1_555
C17 C8 1_555 1_555
C18 C13 1_555 1_555
C19 H13 1_555 1_555
C20 C19 1_555 1_555
H14 C20 1_555 1_555
C21 C20 1_555 1_555
C22 C21 1_555 1_555
H15 C22 1_555 1_555
C23 C22 1_555 1_555
H16 C23 1_555 1_555
C24 H17 1_555 1_555
C25 C24 1_555 1_555
H18 C25 1_555 1_555
C26 C25 1_555 1_555
C27 C26 1_555 1_555
H19 C27 1_555 1_555
C28 C27 1_555 1_555
H20 C28 1_555 1_555
C29 H21 1_555 1_555
C30 C29 1_555 1_555
H22 C30 1_555 1_555
C31 C30 1_555 1_555
C32 C31 1_555 1_555
H23 C32 1_555 1_555
C33 C32 1_555 1_555
H24 C33 1_555 1_555
C34 C21 1_555 1_555
C35 C26 1_555 1_555
C36 C31 1_555 1_555
N1 Zn1 1_555 1_555
N2 Zn2 1_555 1_555
N3 C11 1_555 1_555
N4 C16 1_555 1_555
N5 C17 1_555 1_555
N6 C16 1_555 1_555
N7 Zn2 1_555 1_555
N8 C24 1_555 1_555
N9 Zn3 1_555 1_555
N10 C34 1_555 1_555
N11 C34 1_555 1_555
N12 C35 1_555 1_555
C37 C38 1_555 1_555
C38 H25 1_555 1_555
C39 C38 1_555 1_555
C40 C39 1_555 1_555
H26 C40 1_555 1_555
C41 C40 1_555 1_555
H27 C41 1_555 1_555
C42 C37 1_555 1_555
C43 C42 1_555 1_555
C44 C43 1_555 1_555
H28 C44 1_555 1_555
C45 C44 1_555 1_555
H29 C45 1_555 1_555
C46 C45 1_555 1_555
H30 C46 1_555 1_555
C47 C46 1_555 1_555
H31 C47 1_555 1_555
C48 C43 1_555 1_555
C49 C48 1_555 1_555
C50 C49 1_555 1_555
H32 C50 1_555 1_555
C51 C50 1_555 1_555
H33 C51 1_555 1_555
C52 C51 1_555 1_555
H34 C52 1_555 1_555
C53 C52 1_555 1_555
H35 C53 1_555 1_555
C54 C37 1_555 1_555
C55 C39 1_555 1_555
H36 C55 1_555 1_555
C56 C55 1_555 1_555
H37 C56 1_555 1_555
H38 C56 1_555 1_555
H39 C56 1_555 1_555
O1 C55 1_555 1_555
H40 O1 1_555 1_555
C57 C58 1_555 1_555
C58 H41 1_555 1_555
C59 C58 1_555 1_555
H42 C59 1_555 1_555
C60 C59 1_555 1_555
H43 C60 1_555 1_555
C61 C60 1_555 1_555
H44 C61 1_555 1_555
C62 C57 1_555 1_555
H45 C62 1_555 1_555
C63 C57 1_555 1_555
H46 C63 1_555 1_555
H47 C63 1_555 1_555
H48 C63 1_555 1_555
C64 C65 1_555 1_555
C65 H49 1_555 1_555
C66 C65 1_555 1_555
H50 C66 1_555 1_555
C67 C66 1_555 1_555
H51 C67 1_555 1_555
C68 C67 1_555 1_555
H52 C68 1_555 1_555
C69 C64 1_555 1_555
H53 C69 1_555 1_555
C70 C64 1_555 1_555
H54 C70 1_555 1_555
H55 C70 1_555 1_555
H56 C70 1_555 1_555
C71 C72 1_555 1_555
C72 H57 1_555 1_555
C73 C72 1_555 1_555
H58 C73 1_555 1_555
C74 C73 1_555 1_555
H59 C74 1_555 1_555
C75 C74 1_555 1_555
H60 C75 1_555 1_555
C76 C71 1_555 1_555
H61 C76 1_555 1_555
C77 C71 1_555 1_555
H62 C77 1_555 1_555
H63 C77 1_555 1_555
H64 C77 1_555 1_555
Zn1C N8 1_555 1_555
Zn3B N3 1_555 1_555
N3B Zn3 1_555 1_555
N8C Zn1 1_555 1_555
C1 N1 1_555 1_555
C5 N1 1_555 1_555
C6 N2 1_555 1_555
C10 N2 1_555 1_555
C15 N3 1_555 1_555
C17 N4 1_555 1_555
C18 N5 1_555 1_555
C18 N6 1_555 1_555
C19 N7 1_555 1_555
C23 N7 1_555 1_555
C28 N8 1_555 1_555
C29 N9 1_555 1_555
C33 N9 1_555 1_555
C35 N11 1_555 1_555
C36 N10 1_555 1_555
C36 N12 1_555 1_555
C41 C42 1_555 1_555
C47 C48 1_555 1_555
C49 C54 1_555 1_555
C53 C54 1_555 1_555
C61 C62 1_555 1_555
C68 C69 1_555 1_555
C75 C76 1_555 1_555

#END
