
#######################################################################
#
#                 Cambridge Crystallographic Data Centre
#                                CCDC 
#
#######################################################################
#
# If this CIF has been generated from an entry in the Cambridge 
# Structural Database, then it will include bibliographic, chemical, 
# crystal, experimental, refinement or atomic coordinate data resulting 
# from the CCDC's data processing and validation procedures.
#
#######################################################################

data_LEJZOQ
_chemical_formula_moiety         'C38 H35 Co1 N7 O12 1-'
_symmetry_cell_setting           monoclinic
_symmetry_space_group_name_H-M   'C 2/c'
_symmetry_Int_Tables_number      15
_space_group_name_Hall           '-C 2yc'
loop_
_symmetry_equiv_pos_site_id
_symmetry_equiv_pos_as_xyz
1 x,y,z
2 1/2+x,1/2+y,z
3 -x,y,1/2-z
4 1/2-x,1/2+y,1/2-z
5 -x,-y,-z
6 1/2-x,1/2-y,-z
7 x,-y,1/2+z
8 1/2+x,1/2-y,1/2+z
_cell_length_a                   26.200(9)
_cell_length_b                   17.465(5)
_cell_length_c                   17.275(5)
_cell_angle_alpha                90
_cell_angle_beta                 118.183(10)
_cell_angle_gamma                90
_cell_volume                     6967.59
loop_
_atom_site_label
_atom_site_type_symbol
_atom_site_fract_x
_atom_site_fract_y
_atom_site_fract_z
_atom_site_U_iso_or_equiv
_atom_site_thermal_displace_type
O5 O 0.2655(3) 0.1094(4) 0.4523(4) 0.1102 Uani
N5 N 0.2326(3) 0.1498(3) 0.5436(5) 0.0854 Uani
C31 C 0.2737(4) 0.1355(5) 0.5237(6) 0.0894 Uani
H36 H 0.3125 0.1458 0.5667 0.1080 Uiso
C32 C 0.1730(4) 0.1355(6) 0.4798(7) 0.1122 Uani
H37 H 0.1592 0.1767 0.4361 0.1350 Uiso
H38 H 0.1491 0.1337 0.5095 0.1350 Uiso
H39 H 0.1703 0.0864 0.4505 0.1350 Uiso
C33 C 0.2431(5) 0.1849(5) 0.6258(7) 0.1238 Uani
H40 H 0.2305 0.1501 0.6580 0.1490 Uiso
H41 H 0.2213 0.2329 0.6138 0.1490 Uiso
H42 H 0.2845 0.1956 0.6612 0.1490 Uiso
O11 O 0.4652(3) 0.2947(5) 0.5906(5) 0.1428 Uani
O12 O 0.4323(3) 0.2132(4) 0.4844(4) 0.1193 Uani
O13 O 0.4108(4) 0.1992(5) 0.5896(5) 0.1448 Uani
N2 N 0.4366(3) 0.2335(5) 0.5574(6) 0.1020 Uani
Co1 Co 0.17809(3) 0.59423(4) 0.23947(5) 0.0470 Uani
O1 O 0.46448(16) 0.4598(2) 0.3981(3) 0.0514 Uani
O2 O 0.63522(16) 0.46204(18) 0.3649(3) 0.0504 Uani
O3 O 0.61061(18) 0.2710(2) 0.5409(3) 0.0636 Uani
O4 O 0.0882(2) 0.6064(3) 0.2021(3) 0.0834 Uani
O6 O 0.15977(18) 0.6237(2) 0.1112(3) 0.0641 Uani
O8 O 0.19732(18) 0.5582(3) 0.3666(3) 0.0633 Uani
O9 O 0.1607(3) 0.6392(3) 0.4198(4) 0.0971 Uani
O10 O 0.1438(3) 0.5216(4) 0.4211(5) 0.1273 Uani
N1 N 0.1686(3) 0.5722(3) 0.4018(3) 0.0610 Uani
N4 N 0.0092(5) 0.5148(6) 0.1230(8) 0.0699 Uani
N6 N 0.2683(2) 0.5753(2) 0.2804(3) 0.0474 Uani
N7 N 0.1895(2) 0.7129(3) 0.2748(3) 0.0515 Uani
N8 N 0.1563(2) 0.4764(3) 0.1999(3) 0.0581 Uani
C1 C 0.5174(2) 0.4306(3) 0.4146(4) 0.0436 Uani
C2 C 0.5519(2) 0.4634(3) 0.3828(4) 0.0431 Uani
H1 H 0.5404 0.5088 0.3483 0.0520 Uiso
C3 C 0.6046(2) 0.4272(3) 0.4033(4) 0.0429 Uani
C4 C 0.6230(2) 0.3634(3) 0.4553(4) 0.0447 Uani
H2 H 0.6589 0.3398 0.4687 0.0540 Uiso
C5 C 0.5877(2) 0.3341(3) 0.4880(4) 0.0492 Uani
C6 C 0.5348(2) 0.3664(3) 0.4681(4) 0.0481 Uani
H3 H 0.5110 0.3452 0.4904 0.0570 Uiso
C7 C 0.4451(2) 0.5262(3) 0.3459(4) 0.0465 Uani
H4 H 0.4469 0.5184 0.2905 0.0560 Uiso
H5 H 0.4704 0.5700 0.3774 0.0560 Uiso
C8 C 0.2982(2) 0.5201(3) 0.3378(4) 0.0500 Uani
H6 H 0.2792 0.4916 0.3636 0.0600 Uiso
C9 C 0.3551(2) 0.5024(3) 0.3615(4) 0.0508 Uani
H7 H 0.3742 0.4622 0.4022 0.0610 Uiso
C10 C 0.3840(2) 0.5432(3) 0.3259(4) 0.0439 Uani
C11 C 0.3539(3) 0.6017(3) 0.2687(4) 0.0554 Uani
H8 H 0.3722 0.6318 0.2432 0.0670 Uiso
C12 C 0.2974(3) 0.6166(3) 0.2485(4) 0.0536 Uani
H9 H 0.2781 0.6581 0.2102 0.0640 Uiso
C13 C 0.6916(2) 0.4323(3) 0.3891(5) 0.0559 Uani
H10 H 0.7130 0.4264 0.4537 0.0670 Uiso
H11 H 0.7129 0.4698 0.3722 0.0670 Uiso
C14 C 0.1482(3) 0.7647(4) 0.2318(4) 0.0629 Uani
H12 H 0.1177 0.7518 0.1754 0.0760 Uiso
C15 C 0.1476(3) 0.8368(3) 0.2659(4) 0.0555 Uani
H13 H 0.1175 0.8721 0.2329 0.0660 Uiso
C16 C 0.6906(2) 0.3563(3) 0.3470(4) 0.0478 Uani
C17 C 0.7343(2) 0.3037(3) 0.3909(4) 0.0571 Uani
H14 H 0.7656 0.3159 0.4468 0.0690 Uiso
C18 C 0.2323(3) 0.7332(3) 0.3530(4) 0.0558 Uani
H15 H 0.2627 0.6977 0.3841 0.0670 Uiso
C19 C 0.5780(3) 0.2386(4) 0.5804(5) 0.0690 Uani
H16 H 0.5772 0.2744 0.6243 0.0830 Uiso
H17 H 0.5376 0.2285 0.5351 0.0830 Uiso
C20 C 0.1274(4) 0.4330(5) 0.2308(5) 0.0941 Uani
H18 H 0.1234 0.4512 0.2795 0.1130 Uiso
C21 C 0.1033(4) 0.3629(4) 0.1945(6) 0.1007 Uani
H19 H 0.0837 0.3341 0.2192 0.1210 Uiso
C22 C 0.6072(3) 0.1653(4) 0.6238(4) 0.0643 Uani
C23 C 0.6383(3) 0.1219(3) 0.5934(4) 0.0558 Uani
H20 H 0.6433 0.1395 0.5453 0.0670 Uiso
C24 C 0.1619(2) 0.4468(3) 0.1332(4) 0.0547 Uani
H21 H 0.1836 0.4749 0.1116 0.0660 Uiso
C26 C 0.0510(5) 0.5606(7) 0.1253(9) 0.0641 Uani
H23 H 0.0566 0.5634 0.0749 0.0770 Uiso
C28 C 0.0012(8) 0.4974(10) 0.1984(13) 0.1078 Uani
H27 H 0.0346 0.5158 0.2518 0.1290 Uiso
H28 H -0.0026 0.4419 0.2024 0.1290 Uiso
H29 H -0.0340 0.5227 0.1920 0.1290 Uiso
C30 C -0.0286(6) 0.4739(9) 0.0422(11) 0.0935 Uani
H33 H -0.0170 0.4853 -0.0028 0.1120 Uiso
H34 H -0.0687 0.4902 0.0215 0.1120 Uiso
H35 H -0.0254 0.4187 0.0538 0.1120 Uiso
C15A C 0.6476(3) 0.3368(3) 0.2659(4) 0.0555 Uani
C16A C 0.1906(2) 0.8563(3) 0.3470(4) 0.0478 Uani
C17A C 0.2343(2) 0.8037(3) 0.3909(4) 0.0571 Uani
C18A C 0.7323(3) 0.2332(3) 0.3530(4) 0.0558 Uani
C21G C 0.6033(4) 0.1371(4) 0.6945(6) 0.1007 Uani
C22G C 0.1072(3) 0.3347(4) 0.1238(4) 0.0643 Uani
C23G C 0.1383(3) 0.3781(3) 0.0934(4) 0.0558 Uani
C24G C 0.6619(2) 0.0532(3) 0.6332(4) 0.0547 Uani
loop_
_atom_site_aniso_label
_atom_site_aniso_U_11
_atom_site_aniso_U_22
_atom_site_aniso_U_33
_atom_site_aniso_U_23
_atom_site_aniso_U_13
_atom_site_aniso_U_12
O5 0.097(4) 0.164(6) 0.089(4) -0.009(4) 0.060(4) -0.006(4)
N5 0.107(6) 0.075(4) 0.098(5) -0.003(4) 0.068(5) -0.002(4)
C31 0.096(6) 0.096(6) 0.087(6) 0.000(5) 0.052(5) 0.004(5)
C32 0.106(8) 0.116(7) 0.140(9) 0.006(6) 0.079(7) -0.007(6)
C33 0.178(11) 0.094(6) 0.130(8) -0.031(6) 0.098(8) -0.021(7)
O11 0.119(5) 0.202(8) 0.140(6) -0.084(6) 0.088(5) -0.074(6)
O12 0.093(4) 0.160(6) 0.092(4) -0.045(4) 0.033(4) -0.019(4)
O13 0.173(8) 0.144(6) 0.149(7) -0.018(5) 0.102(6) -0.030(5)
N2 0.070(5) 0.133(7) 0.105(6) -0.034(5) 0.043(5) -0.013(4)
Co1 0.0396(4) 0.0496(4) 0.0520(5) -0.0023(4) 0.0217(4) 0.0025(3)
O1 0.045(2) 0.053(2) 0.062(2) 0.0086(19) 0.030(2) 0.0092(17)
O2 0.049(2) 0.0351(18) 0.079(3) 0.0062(18) 0.040(2) 0.0057(15)
O3 0.058(3) 0.068(3) 0.079(3) 0.031(2) 0.044(2) 0.024(2)
O4 0.049(3) 0.111(4) 0.094(4) 0.022(3) 0.037(3) 0.016(3)
O6 0.061(3) 0.071(3) 0.056(3) 0.002(2) 0.024(2) -0.004(2)
O8 0.051(3) 0.076(3) 0.061(3) 0.003(2) 0.025(2) 0.006(2)
O9 0.111(5) 0.092(4) 0.110(4) -0.031(3) 0.070(4) -0.011(3)
O10 0.185(7) 0.099(4) 0.166(6) -0.007(4) 0.139(6) -0.019(4)
N1 0.074(4) 0.057(3) 0.055(3) -0.008(3) 0.033(3) -0.012(3)
N4 0.060(7) 0.073(7) 0.084(8) -0.015(6) 0.040(7) -0.011(6)
N6 0.049(3) 0.040(2) 0.055(3) -0.004(2) 0.026(2) 0.006(2)
N7 0.049 0.052 0.058 0.004 0.029 0.011
N8 0.055 0.069 0.056 -0.013 0.031 -0.015
C1 0.040(3) 0.043(3) 0.047(3) -0.006(2) 0.020(3) 0.006(2)
C2 0.041(3) 0.035(3) 0.053(3) -0.001(2) 0.022(3) 0.004(2)
C3 0.042(3) 0.037(3) 0.050(3) -0.010(2) 0.022(3) -0.006(2)
C4 0.040(3) 0.046(3) 0.052(3) -0.003(3) 0.025(3) 0.002(2)
C5 0.053(3) 0.052(3) 0.045(3) 0.003(3) 0.025(3) 0.008(3)
C6 0.048(3) 0.053(3) 0.054(3) 0.004(3) 0.033(3) 0.004(3)
C7 0.039(3) 0.046(3) 0.060(4) 0.001(3) 0.028(3) 0.006(2)
C8 0.048(3) 0.051(3) 0.061(4) -0.001(3) 0.034(3) 0.003(3)
C9 0.052(3) 0.046(3) 0.057(4) 0.003(3) 0.028(3) 0.008(3)
C10 0.041(3) 0.035(3) 0.053(3) -0.007(2) 0.020(3) 0.000(2)
C11 0.052(4) 0.049(3) 0.073(4) 0.002(3) 0.036(3) 0.006(3)
C12 0.048(3) 0.044(3) 0.071(4) 0.005(3) 0.030(3) 0.008(3)
C13 0.046 0.041 0.095 0.009 0.045 0.002
C14 0.069 0.068 0.053 0.008 0.03 0.029
C15 0.063 0.056 0.055 0.02 0.034 0.03
C16 0.046 0.039 0.072 0.006 0.039 0.004
C17 0.038 0.054 0.074 -0.007 0.022 0
C18 0.041 0.042 0.081 0.005 0.026 0.01
C19 0.074 0.072 0.082 0.034 0.054 0.025
C20 0.136 0.09 0.09 -0.039 0.081 -0.05
C21 0.15 0.084 0.113 -0.042 0.099 -0.063
C22 0.067 0.073 0.064 0.02 0.04 0.021
C23 0.056 0.062 0.06 0.008 0.036 0.005
C24 0.047 0.056 0.069 -0.002 0.034 -0.002
C26 0.050(8) 0.067(8) 0.070(9) 0.004(7) 0.024(7) 0.011(6)
C28 0.101(13) 0.097(12) 0.157(18) -0.035(12) 0.087(14) -0.035(10)
C30 0.053(9) 0.083(10) 0.106(13) -0.010(9) 0.006(9) 0.000(7)
C15A 0.063 0.056 0.055 0.02 0.034 0.03
C16A 0.046 0.039 0.072 0.006 0.039 0.004
C17A 0.038 0.054 0.074 -0.007 0.022 0
C18A 0.041 0.042 0.081 0.005 0.026 0.01
C21G 0.15 0.084 0.113 0.042 0.099 0.063
C22G 0.067 0.073 0.064 -0.02 0.04 -0.021
C23G 0.056 0.062 0.06 -0.008 0.036 -0.005
C24G 0.047 0.056 0.069 0.002 0.034 0.002
loop_
_geom_bond_atom_site_label_1
_geom_bond_atom_site_label_2
_geom_bond_site_symmetry_1
_geom_bond_site_symmetry_2
Co1 O4 1_555 1_555
O1 C1 1_555 1_555
O2 C3 1_555 1_555
O3 C5 1_555 1_555
O4 C26 1_555 1_555
O5 C31 1_555 1_555
O6 Co1 1_555 1_555
O8 Co1 1_555 1_555
O9 N1 1_555 1_555
O10 N1 1_555 1_555
O11 N2 1_555 1_555
O12 N2 1_555 1_555
O13 N2 1_555 1_555
N1 O8 1_555 1_555
N4 C26 1_555 1_555
N5 C31 1_555 1_555
N6 Co1 1_555 1_555
N7 Co1 1_555 1_555
N8 Co1 1_555 1_555
C1 C2 1_555 1_555
C2 H1 1_555 1_555
C3 C2 1_555 1_555
C4 C3 1_555 1_555
H2 C4 1_555 1_555
C5 C4 1_555 1_555
C6 C1 1_555 1_555
H3 C6 1_555 1_555
C7 O1 1_555 1_555
H4 C7 1_555 1_555
H5 C7 1_555 1_555
C8 N6 1_555 1_555
H6 C8 1_555 1_555
C9 C8 1_555 1_555
H7 C9 1_555 1_555
C10 C7 1_555 1_555
C11 C10 1_555 1_555
H8 C11 1_555 1_555
C12 N6 1_555 1_555
H9 C12 1_555 1_555
C13 O2 1_555 1_555
H10 C13 1_555 1_555
H11 C13 1_555 1_555
C14 N7 1_555 1_555
H12 C14 1_555 1_555
C15 C14 1_555 1_555
H13 C15 1_555 1_555
C16 C13 1_555 1_555
C17 C16 1_555 1_555
H14 C17 1_555 1_555
C18 N7 1_555 1_555
H15 C18 1_555 1_555
C19 O3 1_555 1_555
H16 C19 1_555 1_555
H17 C19 1_555 1_555
C20 N8 1_555 1_555
H18 C20 1_555 1_555
C21 C20 1_555 1_555
H19 C21 1_555 1_555
C22 C19 1_555 1_555
C23 C22 1_555 1_555
H20 C23 1_555 1_555
C24 N8 1_555 1_555
H21 C24 1_555 1_555
C26 H23 1_555 1_555
C28 N4 1_555 1_555
H27 C28 1_555 1_555
H28 C28 1_555 1_555
H29 C28 1_555 1_555
C30 N4 1_555 1_555
H33 C30 1_555 1_555
H34 C30 1_555 1_555
H35 C30 1_555 1_555
C31 H36 1_555 1_555
C32 N5 1_555 1_555
H37 C32 1_555 1_555
H38 C32 1_555 1_555
H39 C32 1_555 1_555
C33 N5 1_555 1_555
H40 C33 1_555 1_555
H41 C33 1_555 1_555
H42 C33 1_555 1_555
C15A C16 1_555 1_555
C16A C15 1_555 1_555
C17A C18 1_555 1_555
C18A C17 1_555 1_555
C21G C22 1_555 1_555
C22G C21 1_555 1_555
C23G C24 1_555 1_555
C24G C23 1_555 1_555
C5 C6 1_555 1_555
C9 C10 1_555 1_555
C11 C12 1_555 1_555
C16A C17A 1_555 1_555
C22G C23G 1_555 1_555

#END
