
#######################################################################
#
#                 Cambridge Crystallographic Data Centre
#                                CCDC 
#
#######################################################################
#
# If this CIF has been generated from an entry in the Cambridge 
# Structural Database, then it will include bibliographic, chemical, 
# crystal, experimental, refinement or atomic coordinate data resulting 
# from the CCDC's data processing and validation procedures.
#
#######################################################################

data_NAGRUL
_chemical_formula_moiety         '(C72 H43 Co3 N6 O13)n'
_symmetry_cell_setting           rhombohedral
_symmetry_space_group_name_H-M   'R 3'
_symmetry_Int_Tables_number      146
_space_group_name_Hall           'R 3'
loop_
_symmetry_equiv_pos_site_id
_symmetry_equiv_pos_as_xyz
1 x,y,z
2 -y,x-y,z
3 -x+y,-x,z
4 2/3+x,1/3+y,1/3+z
5 2/3-y,1/3+x-y,1/3+z
6 2/3-x+y,1/3-x,1/3+z
7 1/3+x,2/3+y,2/3+z
8 1/3-y,2/3+x-y,2/3+z
9 1/3-x+y,2/3-x,2/3+z
_cell_length_a                   20.1860(10)
_cell_length_b                   20.1860(10)
_cell_length_c                   20.2891(8)
_cell_angle_alpha                90
_cell_angle_beta                 90
_cell_angle_gamma                120
_cell_volume                     7159.69
loop_
_atom_site_label
_atom_site_type_symbol
_atom_site_fract_x
_atom_site_fract_y
_atom_site_fract_z
Co1 Co 0.44059(4) 0.68051(4) 0.07740(3)
O1 O 0.3333 0.6667 0.0827(3)
H1 H 0.3333 0.6667 0.1320
O2 O 0.4123(2) 0.6066(2) 0.1583(2)
O3 O 0.2910(2) 0.5138(3) 0.1373(2)
O4 O 0.5897(2) 0.3853(2) 0.65812(19)
O5 O 0.5134(2) 0.2590(2) 0.6797(2)
N1 N 0.8073(3) 0.7804(3) 0.4089(2)
N2 N 0.4816(3) 0.4132(3) 0.3692(3)
C1 C 0.3588(3) 0.5395(3) 0.1587(3)
C2 C 0.3762(4) 0.4810(4) 0.1877(4)
C3 C 0.4313(4) 0.5025(4) 0.2384(3)
H2 H 0.4594 0.5545 0.2520
C4 C 0.4451(5) 0.4478(4) 0.2692(5)
C5 C 0.4109(7) 0.3738(5) 0.2390(5)
H3 H 0.4226 0.3370 0.2559
C6 C 0.3629(7) 0.3549(6) 0.1879(6)
H4 H 0.3441 0.3064 0.1674
C7 C 0.3402(6) 0.4055(5) 0.1644(5)
H5 H 0.3004 0.3888 0.1326
C8 C 0.4977(4) 0.4687(4) 0.3260(4)
C9 C 0.5605(4) 0.5432(4) 0.3326(4)
H6 H 0.5710 0.5818 0.3008
C10 C 0.6068(3) 0.5579(3) 0.3885(3)
C11 C 0.6760(3) 0.6362(3) 0.3969(3)
C12 C 0.7209(4) 0.6718(4) 0.3428(3)
H7 H 0.7076 0.6479 0.3008
C13 C 0.7869(4) 0.7444(4) 0.3504(3)
H8 H 0.8180 0.7685 0.3129
C14 C 0.7634(3) 0.7454(3) 0.4610(3)
H9 H 0.7770 0.7705 0.5025
C15 C 0.6980(4) 0.6731(3) 0.4568(3)
H10 H 0.6687 0.6494 0.4952
C16 C 0.5882(3) 0.5001(3) 0.4342(3)
H11 H 0.6184 0.5099 0.4728
C17 C 0.5260(3) 0.4287(3) 0.4239(3)
C18 C 0.5006(3) 0.3608(3) 0.4685(3)
C19 C 0.5310(3) 0.3703(3) 0.5324(3)
H12 H 0.5675 0.4200 0.5474
C20 C 0.5083(3) 0.3078(3) 0.5739(3)
C21 C 0.4547(4) 0.2351(4) 0.5517(4)
H13 H 0.4377 0.1923 0.5802
C22 C 0.4259(4) 0.2250(4) 0.4880(3)
H14 H 0.3908 0.1751 0.4725
C23 C 0.4486(4) 0.2878(4) 0.4470(3)
H15 H 0.4281 0.2806 0.4037
C24 C 0.5397(3) 0.3184(3) 0.6431(3)
Co1A Co 0.31949(4) 0.76008(6) 0.07740(3)
O2A O 0.3934(2) 0.8057(3) 0.1583(2)
O3A O 0.4862(3) 0.7772(4) 0.1373(2)
O4A O 0.6147(2) 1.2044(3) 0.65812(19)
O5A O 0.7410(2) 1.2544(3) 0.6797(2)
N1A N 0.2196(3) 1.0269(4) 0.4089(2)
N2A N 0.5868(3) 1.0684(4) 0.3692(3)
C1A C 0.4605(3) 0.8193(4) 0.1587(3)
C2A C 0.5190(4) 0.8952(6) 0.1877(4)
C3A C 0.4975(4) 0.9288(6) 0.2384(3)
H2A H 0.4455 0.9049 0.2520
C4A C 0.5522(4) 0.9973(6) 0.2692(5)
C5A C 0.6262(5) 1.0371(9) 0.2390(5)
H3A H 0.6630 1.0856 0.2559
C6A C 0.6451(6) 1.0080(9) 0.1879(6)
H4A H 0.6936 1.0377 0.1674
C7A C 0.5945(5) 0.9347(8) 0.1644(5)
H5A H 0.6112 0.9116 0.1326
C8A C 0.5313(4) 1.0290(6) 0.3260(4)
C9A C 0.4568(4) 1.0173(6) 0.3326(4)
H6A H 0.4182 0.9892 0.3008
C10A C 0.4421(3) 1.0489(4) 0.3885(3)
C11A C 0.3638(3) 1.0398(4) 0.3969(3)
C12A C 0.3282(4) 1.0491(6) 0.3428(3)
H7A H 0.3521 1.0597 0.3008
C13A C 0.2556(4) 1.0425(6) 0.3504(3)
H8A H 0.2315 1.0495 0.3129
C14A C 0.2546(3) 1.0180(4) 0.4610(3)
H9A H 0.2295 1.0065 0.5025
C15A C 0.3269(3) 1.0249(5) 0.4568(3)
H10A H 0.3506 1.0193 0.4952
C16A C 0.4999(3) 1.0881(4) 0.4342(3)
H11A H 0.4901 1.1085 0.4728
C17A C 0.5713(3) 1.0973(4) 0.4239(3)
C18A C 0.6392(3) 1.1398(4) 0.4685(3)
C19A C 0.6297(3) 1.1607(4) 0.5324(3)
H12A H 0.5800 1.1475 0.5474
C20A C 0.6922(3) 1.2005(4) 0.5739(3)
C21A C 0.7649(4) 1.2196(6) 0.5517(4)
H13A H 0.8077 1.2454 0.5802
C22A C 0.7750(4) 1.2009(6) 0.4880(3)
H14A H 0.8249 1.2157 0.4725
C23A C 0.7122(4) 1.1608(6) 0.4470(3)
H15A H 0.7194 1.1475 0.4037
C24A C 0.6816(3) 1.2213(4) 0.6431(3)
Co1B Co 0.23992(6) 0.55941(4) 0.07740(3)
O2B O 0.1943(3) 0.5877(2) 0.1583(2)
O3B O 0.2228(4) 0.7090(2) 0.1373(2)
O4B O -0.2044(3) 0.4103(2) 0.65812(19)
O5B O -0.2544(3) 0.4866(2) 0.6797(2)
N1B N -0.0269(4) 0.1927(3) 0.4089(2)
N2B N -0.0684(4) 0.5184(3) 0.3692(3)
C1B C 0.1807(4) 0.6412(3) 0.1587(3)
C2B C 0.1048(6) 0.6238(4) 0.1877(4)
C3B C 0.0712(6) 0.5687(4) 0.2384(3)
H2B H 0.0951 0.5406 0.2520
C4B C 0.0027(6) 0.5549(5) 0.2692(5)
C5B C -0.0371(9) 0.5891(7) 0.2390(5)
H3B H -0.0856 0.5774 0.2559
C6B C -0.0080(9) 0.6371(7) 0.1879(6)
H4B H -0.0377 0.6559 0.1674
C7B C 0.0653(8) 0.6598(6) 0.1644(5)
H5B H 0.0884 0.6996 0.1326
C8B C -0.0290(6) 0.5023(4) 0.3260(4)
C9B C -0.0173(6) 0.4395(4) 0.3326(4)
H6B H 0.0108 0.4290 0.3008
C10B C -0.0489(4) 0.3932(3) 0.3885(3)
C11B C -0.0398(4) 0.3240(3) 0.3969(3)
C12B C -0.0491(6) 0.2791(4) 0.3428(3)
H7B H -0.0597 0.2924 0.3008
C13B C -0.0425(6) 0.2131(4) 0.3504(3)
H8B H -0.0495 0.1820 0.3129
C14B C -0.0180(4) 0.2366(3) 0.4610(3)
H9B H -0.0065 0.2230 0.5025
C15B C -0.0249(5) 0.3020(4) 0.4568(3)
H10B H -0.0193 0.3313 0.4952
C16B C -0.0881(4) 0.4118(3) 0.4342(3)
H11B H -0.1085 0.3816 0.4728
C17B C -0.0973(4) 0.4740(3) 0.4239(3)
C18B C -0.1398(4) 0.4994(3) 0.4685(3)
C19B C -0.1607(4) 0.4690(3) 0.5324(3)
H12B H -0.1475 0.4325 0.5474
C20B C -0.2005(4) 0.4917(3) 0.5739(3)
C21B C -0.2196(6) 0.5453(4) 0.5517(4)
H13B H -0.2454 0.5623 0.5802
C22B C -0.2009(6) 0.5741(4) 0.4880(3)
H14B H -0.2157 0.6092 0.4725
C23B C -0.1608(6) 0.5514(4) 0.4470(3)
H15B H -0.1475 0.5719 0.4037
C24B C -0.2213(4) 0.4603(3) 0.6431(3)
Co1C Co 0.10726(4) 1.01384(4) 0.41073(3)
Co1D Co -0.01384(4) 0.09341(6) 0.41073(3)
Co1E Co 0.90659(6) 0.89274(4) 0.41073(3)
Co1F Co -0.22608(4) 0.34718(4) 0.74407(3)
Co1F_2 Co 0.77392(4) 1.34718(4) 0.74407(3)
Co1G Co -0.34718(4) 0.42675(6) 0.74407(3)
Co1G_2 Co 0.65282(4) 0.42675(6) 0.74407(3)
Co1H Co 0.57325(6) 0.22608(4) 0.74407(3)
Co1H_2 Co 0.57325(6) 1.22608(4) 0.74407(3)
O4C O 0.2564(2) 0.7186(2) -0.00855(19)
O4D O 0.2814(2) 0.5377(3) -0.00855(19)
O4E O 0.4623(3) 0.7436(2) -0.00855(19)
O5C O 0.1801(2) 0.5923(2) 0.0130(2)
O5D O 0.4077(2) 0.5877(3) 0.0130(2)
O5E O 0.4123(3) 0.8199(2) 0.0130(2)
N1F N 0.1406(3) 0.4471(3) 0.0756(2)
N1G N 0.5529(3) 0.6936(4) 0.0756(2)
N1H N 0.3064(4) 0.8594(3) 0.0756(2)
loop_
_geom_bond_atom_site_label_1
_geom_bond_atom_site_label_2
_geom_bond_site_symmetry_1
_geom_bond_site_symmetry_2
Co1 O1 1_555 1_555
O1 H1 1_555 1_555
O2 Co1 1_555 1_555
O3 C1 1_555 1_555
O4 C24 1_555 1_555
O5 C24 1_555 1_555
N1 C13 1_555 1_555
N2 C8 1_555 1_555
C1 O2 1_555 1_555
C2 C1 1_555 1_555
C3 C2 1_555 1_555
H2 C3 1_555 1_555
C4 C3 1_555 1_555
C5 C4 1_555 1_555
H3 C5 1_555 1_555
C6 C5 1_555 1_555
H4 C6 1_555 1_555
C7 C2 1_555 1_555
H5 C7 1_555 1_555
C8 C4 1_555 1_555
C9 C8 1_555 1_555
H6 C9 1_555 1_555
C10 C9 1_555 1_555
C11 C10 1_555 1_555
C12 C11 1_555 1_555
H7 C12 1_555 1_555
C13 C12 1_555 1_555
H8 C13 1_555 1_555
C14 N1 1_555 1_555
H9 C14 1_555 1_555
C15 C11 1_555 1_555
H10 C15 1_555 1_555
C16 C10 1_555 1_555
H11 C16 1_555 1_555
C17 N2 1_555 1_555
C18 C17 1_555 1_555
C19 C18 1_555 1_555
H12 C19 1_555 1_555
C20 C19 1_555 1_555
C21 C20 1_555 1_555
H13 C21 1_555 1_555
C22 C21 1_555 1_555
H14 C22 1_555 1_555
C23 C18 1_555 1_555
H15 C23 1_555 1_555
C24 C20 1_555 1_555
Co1A O1 1_555 1_555
O2A Co1A 1_555 1_555
O3A Co1 1_555 1_555
O4A C24A 1_555 1_555
O5A C24A 1_555 1_555
N1A C13A 1_555 1_555
N2A C8A 1_555 1_555
C1A O2A 1_555 1_555
C2A C1A 1_555 1_555
C3A C2A 1_555 1_555
H2A C3A 1_555 1_555
C4A C3A 1_555 1_555
C5A C4A 1_555 1_555
H3A C5A 1_555 1_555
C6A C5A 1_555 1_555
H4A C6A 1_555 1_555
C7A C2A 1_555 1_555
H5A C7A 1_555 1_555
C8A C4A 1_555 1_555
C9A C8A 1_555 1_555
H6A C9A 1_555 1_555
C10A C9A 1_555 1_555
C11A C10A 1_555 1_555
C12A C11A 1_555 1_555
H7A C12A 1_555 1_555
C13A C12A 1_555 1_555
H8A C13A 1_555 1_555
C14A N1A 1_555 1_555
H9A C14A 1_555 1_555
C15A C11A 1_555 1_555
H10A C15A 1_555 1_555
C16A C10A 1_555 1_555
H11A C16A 1_555 1_555
C17A N2A 1_555 1_555
C18A C17A 1_555 1_555
C19A C18A 1_555 1_555
H12A C19A 1_555 1_555
C20A C19A 1_555 1_555
C21A C20A 1_555 1_555
H13A C21A 1_555 1_555
C22A C21A 1_555 1_555
H14A C22A 1_555 1_555
C23A C18A 1_555 1_555
H15A C23A 1_555 1_555
C24A C20A 1_555 1_555
Co1B O1 1_555 1_555
O2B Co1B 1_555 1_555
O3B Co1A 1_555 1_555
O4B C24B 1_555 1_555
O5B C24B 1_555 1_555
N1B C13B 1_555 1_555
N2B C8B 1_555 1_555
C1B O2B 1_555 1_555
C2B C1B 1_555 1_555
C3B C2B 1_555 1_555
H2B C3B 1_555 1_555
C4B C3B 1_555 1_555
C5B C4B 1_555 1_555
H3B C5B 1_555 1_555
C6B C5B 1_555 1_555
H4B C6B 1_555 1_555
C7B C2B 1_555 1_555
H5B C7B 1_555 1_555
C8B C4B 1_555 1_555
C9B C8B 1_555 1_555
H6B C9B 1_555 1_555
C10B C9B 1_555 1_555
C11B C10B 1_555 1_555
C12B C11B 1_555 1_555
H7B C12B 1_555 1_555
C13B C12B 1_555 1_555
H8B C13B 1_555 1_555
C14B N1B 1_555 1_555
H9B C14B 1_555 1_555
C15B C11B 1_555 1_555
H10B C15B 1_555 1_555
C16B C10B 1_555 1_555
H11B C16B 1_555 1_555
C17B N2B 1_555 1_555
C18B C17B 1_555 1_555
C19B C18B 1_555 1_555
H12B C19B 1_555 1_555
C20B C19B 1_555 1_555
C21B C20B 1_555 1_555
H13B C21B 1_555 1_555
C22B C21B 1_555 1_555
H14B C22B 1_555 1_555
C23B C18B 1_555 1_555
H15B C23B 1_555 1_555
C24B C20B 1_555 1_555
Co1C N1A 1_555 1_555
Co1D N1B 1_555 1_555
Co1E N1 1_555 1_555
Co1F O4B 1_555 1_555
Co1F_2 O5A 1_555 1_555
Co1G O5B 1_555 1_555
Co1G_2 O4 1_555 1_555
Co1H O5 1_555 1_555
Co1H_2 O4A 1_555 1_555
O4C Co1A 1_555 1_555
O4D Co1B 1_555 1_555
O4E Co1 1_555 1_555
O5C Co1B 1_555 1_555
O5D Co1 1_555 1_555
O5E Co1A 1_555 1_555
N1F Co1B 1_555 1_555
N1G Co1 1_555 1_555
N1H Co1A 1_555 1_555
O3 Co1B 1_555 1_555
C6 C7 1_555 1_555
C14 C15 1_555 1_555
C16 C17 1_555 1_555
C22 C23 1_555 1_555
O3A C1A 1_555 1_555
C6A C7A 1_555 1_555
C14A C15A 1_555 1_555
C16A C17A 1_555 1_555
C22A C23A 1_555 1_555
O3B C1B 1_555 1_555
C6B C7B 1_555 1_555
C14B C15B 1_555 1_555
C16B C17B 1_555 1_555
C22B C23B 1_555 1_555

#END
