
#######################################################################
#
#                 Cambridge Crystallographic Data Centre
#                                CCDC 
#
#######################################################################
#
# If this CIF has been generated from an entry in the Cambridge 
# Structural Database, then it will include bibliographic, chemical, 
# crystal, experimental, refinement or atomic coordinate data resulting 
# from the CCDC's data processing and validation procedures.
#
#######################################################################

data_NAGROF
_chemical_formula_moiety         '(C72 H43 Co3 N6 O13)n'
_symmetry_cell_setting           rhombohedral
_symmetry_space_group_name_H-M   'R 3 2'
_symmetry_Int_Tables_number      155
_space_group_name_Hall           'R 3 2"'
loop_
_symmetry_equiv_pos_site_id
_symmetry_equiv_pos_as_xyz
1 x,y,z
2 -y,x-y,z
3 -x+y,-x,z
4 y,x,-z
5 x-y,-y,-z
6 -x,-x+y,-z
7 2/3+x,1/3+y,1/3+z
8 2/3-y,1/3+x-y,1/3+z
9 2/3-x+y,1/3-x,1/3+z
10 2/3+y,1/3+x,1/3-z
11 2/3+x-y,1/3-y,1/3-z
12 2/3-x,1/3-x+y,1/3-z
13 1/3+x,2/3+y,2/3+z
14 1/3-y,2/3+x-y,2/3+z
15 1/3-x+y,2/3-x,2/3+z
16 1/3+y,2/3+x,2/3-z
17 1/3+x-y,2/3-y,2/3-z
18 1/3-x,2/3-x+y,2/3-z
_cell_length_a                   24.8110(10)
_cell_length_b                   24.8110(10)
_cell_length_c                   21.455(2)
_cell_angle_alpha                90
_cell_angle_beta                 90
_cell_angle_gamma                120
_cell_volume                     11437.9
loop_
_atom_site_label
_atom_site_type_symbol
_atom_site_fract_x
_atom_site_fract_y
_atom_site_fract_z
Co1 Co 0.62352(2) 0.38427(2) 0.59185(3)
O1 O 0.6667 0.3333 0.5929(3)
H1 H 0.6667 0.3333 0.6395
O2 O 0.55543(11) 0.32100(11) 0.52857(18)
O3 O 0.55661(12) 0.23149(11) 0.51765(19)
O4 O 0.10095(11) 0.10330(10) 0.33340(17)
O5 O 0.01914(12) 0.11860(12) 0.32131(19)
N1 N 0.43372(13) 0.57330(14) 0.40913(17)
N2 N 0.30254(13) 0.27179(13) 0.41734(19)
C1 C 0.53308(14) 0.26581(18) 0.5091(2)
C2 C 0.47270(15) 0.23900(17) 0.4734(2)
C3 C 0.44727(16) 0.27722(16) 0.4612(3)
H2 H 0.4692 0.3194 0.4745
C4 C 0.39060(17) 0.25509(16) 0.4301(2)
C5 C 0.3583(2) 0.19300(17) 0.4114(3)
H3 H 0.3194 0.1768 0.3907
C6 C 0.3837(2) 0.15468(19) 0.4234(3)
H4 H 0.3617 0.1124 0.4104
C7 C 0.4399(2) 0.17692(19) 0.4539(3)
H5 H 0.4562 0.1501 0.4615
C8 C 0.36460(16) 0.29799(16) 0.4205(2)
C9 C 0.40600(16) 0.36210(15) 0.4189(2)
H6 H 0.4496 0.3779 0.4203
C10 C 0.38239(15) 0.40238(15) 0.4152(2)
C11 C 0.42492(16) 0.47111(16) 0.4147(2)
C12 C 0.40026(16) 0.51122(16) 0.4110(2)
H7 H 0.3562 0.4926 0.4096
C13 C 0.49639(17) 0.60023(18) 0.4118(3)
H8 H 0.5211 0.6443 0.4110
C14 C 0.52511(18) 0.56503(19) 0.4156(3)
H9 H 0.5692 0.5849 0.4173
C15 C 0.48917(18) 0.49975(18) 0.4171(3)
H10 H 0.5089 0.4754 0.4196
C16 C 0.31811(16) 0.37581(16) 0.4132(2)
H11 H 0.3002 0.4018 0.4117
C17 C 0.27983(16) 0.31153(16) 0.4132(2)
C18 C 0.21003(16) 0.28313(16) 0.4061(2)
C19 C 0.17459(16) 0.22378(16) 0.3804(2)
H12 H 0.1942 0.2003 0.3707
C20 C 0.11155(16) 0.19837(16) 0.3690(2)
C21 C 0.08248(17) 0.23309(19) 0.3845(3)
H13 H 0.0394 0.2164 0.3765
C22 C 0.1166(2) 0.2913(2) 0.4114(3)
H14 H 0.0968 0.3142 0.4227
C23 C 0.18057(19) 0.31623(19) 0.4220(3)
H15 H 0.2040 0.3563 0.4403
C24 C 0.07416(15) 0.13479(14) 0.3385(2)
Co1A Co 0.61573(2) 0.23925(3) 0.59185(3)
O2A O 0.67900(11) 0.23443(16) 0.52857(18)
O3A O 0.76851(11) 0.32512(16) 0.51765(19)
O4A O 0.89670(10) -0.00235(15) 0.33340(17)
O5A O 0.88140(12) -0.09946(17) 0.32131(19)
N1A N 0.42670(14) -0.13958(19) 0.40913(17)
N2A N 0.72821(13) 0.03075(18) 0.41734(19)
C1A C 0.73419(18) 0.26727(23) 0.5091(2)
C2A C 0.76100(17) 0.23370(23) 0.4734(2)
C3A C 0.72278(16) 0.17005(23) 0.4612(3)
H2A H 0.6806 0.1498 0.4745
C4A C 0.74491(16) 0.13551(23) 0.4301(2)
C5A C 0.80700(17) 0.16530(26) 0.4114(3)
H3A H 0.8232 0.1426 0.3907
C6A C 0.84532(19) 0.22902(28) 0.4234(3)
H4A H 0.8876 0.2493 0.4104
C7A C 0.82308(19) 0.26298(28) 0.4539(3)
H5A H 0.8499 0.3061 0.4615
C8A C 0.70201(16) 0.06661(23) 0.4205(2)
C9A C 0.63790(15) 0.04390(22) 0.4189(2)
H6A H 0.6221 0.0717 0.4203
C10A C 0.59762(15) -0.01999(21) 0.4152(2)
C11A C 0.52889(16) -0.04619(23) 0.4147(2)
C12A C 0.48878(16) -0.11096(23) 0.4110(2)
H7A H 0.5074 -0.1364 0.4096
C13A C 0.39977(18) -0.10384(25) 0.4118(3)
H8A H 0.3557 -0.1232 0.4110
C14A C 0.43497(19) -0.03992(26) 0.4156(3)
H9A H 0.4151 -0.0157 0.4173
C15A C 0.50025(18) -0.01058(25) 0.4171(3)
H10A H 0.5246 0.0335 0.4196
C16A C 0.62419(16) -0.05770(23) 0.4132(2)
H11A H 0.5982 -0.1016 0.4117
C17A C 0.68847(16) -0.03170(23) 0.4132(2)
C18A C 0.71687(16) -0.07310(23) 0.4061(2)
C19A C 0.77622(16) -0.04919(23) 0.3804(2)
H12A H 0.7997 -0.0061 0.3707
C20A C 0.80163(16) -0.08682(23) 0.3690(2)
C21A C 0.76691(19) -0.15061(25) 0.3845(3)
H13A H 0.7836 -0.1770 0.3765
C22A C 0.7087(2) -0.1747(3) 0.4114(3)
H14A H 0.6858 -0.2174 0.4227
C23A C 0.68377(19) -0.13566(27) 0.4220(3)
H15A H 0.6437 -0.1523 0.4403
C24A C 0.86521(14) -0.06063(21) 0.3385(2)
Co1B Co 0.76075(3) 0.37648(2) 0.59185(3)
O2B O 0.76557(16) 0.44457(11) 0.52857(18)
O3B O 0.67488(16) 0.44339(12) 0.51765(19)
O4B O 1.00235(15) 0.89905(11) 0.33340(17)
O5B O 1.09946(17) 0.98086(12) 0.32131(19)
N1B N 1.13958(19) 0.56628(13) 0.40913(17)
N2B N 0.96925(18) 0.69746(13) 0.41734(19)
C1B C 0.73273(23) 0.46692(14) 0.5091(2)
C2B C 0.76630(23) 0.52730(15) 0.4734(2)
C3B C 0.82995(23) 0.55273(16) 0.4612(3)
H2B H 0.8502 0.5308 0.4745
C4B C 0.86449(23) 0.60940(17) 0.4301(2)
C5B C 0.83470(26) 0.6417(2) 0.4114(3)
H3B H 0.8574 0.6806 0.3907
C6B C 0.77098(28) 0.6163(2) 0.4234(3)
H4B H 0.7507 0.6383 0.4104
C7B C 0.73702(28) 0.5601(2) 0.4539(3)
H5B H 0.6939 0.5438 0.4615
C8B C 0.93339(23) 0.63540(16) 0.4205(2)
C9B C 0.95610(22) 0.59400(16) 0.4189(2)
H6B H 0.9283 0.5504 0.4203
C10B C 1.01999(21) 0.61761(15) 0.4152(2)
C11B C 1.04619(23) 0.57508(16) 0.4147(2)
C12B C 1.11096(23) 0.59974(16) 0.4110(2)
H7B H 1.1364 0.6438 0.4096
C13B C 1.10384(25) 0.50361(17) 0.4118(3)
H8B H 1.1232 0.4789 0.4110
C14B C 1.03992(26) 0.47489(18) 0.4156(3)
H9B H 1.0157 0.4308 0.4173
C15B C 1.01058(25) 0.51083(18) 0.4171(3)
H10B H 0.9665 0.4911 0.4196
C16B C 1.05770(23) 0.68189(16) 0.4132(2)
H11B H 1.1016 0.6998 0.4117
C17B C 1.03170(23) 0.72017(16) 0.4132(2)
C18B C 1.07310(23) 0.78997(16) 0.4061(2)
C19B C 1.04919(23) 0.82541(16) 0.3804(2)
H12B H 1.0061 0.8058 0.3707
C20B C 1.08682(23) 0.88845(16) 0.3690(2)
C21B C 1.15061(25) 0.91752(17) 0.3845(3)
H13B H 1.1770 0.9606 0.3765
C22B C 1.1747(3) 0.8834(2) 0.4114(3)
H14B H 1.2174 0.9032 0.4227
C23B C 1.13566(27) 0.81943(19) 0.4220(3)
H15B H 1.1523 0.7960 0.4403
C24B C 1.06063(21) 0.92584(15) 0.3385(2)
Co1C Co 0.38427(2) 0.62352(2) 0.40815(3)
Co1D Co 1.23925(3) 0.61573(2) 0.40815(3)
Co1E Co 0.37648(2) -0.23925(3) 0.40815(3)
Co1L Co -0.04315(2) 0.05094(2) 0.25852(3)
Co1L_2 Co 0.95685(2) 0.05094(2) 0.25852(3)
Co1M Co 0.94906(2) -0.09408(3) 0.25852(3)
Co1M_2 Co 0.94906(2) 0.90592(3) 0.25852(3)
Co1N Co 0.09408(3) 0.04315(2) 0.25852(3)
Co1N_2 Co 1.09408(3) 1.04315(2) 0.25852(3)
O4F O 0.76762(11) 0.43663(10) 0.66673(17)
O4G O 0.56337(10) 0.33098(15) 0.66673(17)
O4H O 0.66902(15) 0.23238(11) 0.66673(17)
O5F O 0.68581(12) 0.45193(12) 0.65464(19)
O5G O 0.54807(12) 0.23387(17) 0.65464(19)
O5H O 0.76613(17) 0.31419(12) 0.65464(19)
N1C N 0.57330(14) 0.43372(13) 0.59087(17)
N1D N 0.86042(19) 0.42670(14) 0.59087(17)
N1E N 0.56628(13) 0.13958(19) 0.59087(17)
loop_
_geom_bond_atom_site_label_1
_geom_bond_atom_site_label_2
_geom_bond_site_symmetry_1
_geom_bond_site_symmetry_2
Co1 O1 1_555 1_555
O1 H1 1_555 1_555
O2 Co1 1_555 1_555
O3 C1 1_555 1_555
O4 C24 1_555 1_555
O5 C24 1_555 1_555
N1 C12 1_555 1_555
N2 C8 1_555 1_555
C1 O2 1_555 1_555
C2 C1 1_555 1_555
C3 C2 1_555 1_555
H2 C3 1_555 1_555
C4 C3 1_555 1_555
C5 C4 1_555 1_555
H3 C5 1_555 1_555
C6 C5 1_555 1_555
H4 C6 1_555 1_555
C7 C2 1_555 1_555
H5 C7 1_555 1_555
C8 C4 1_555 1_555
C9 C8 1_555 1_555
H6 C9 1_555 1_555
C10 C9 1_555 1_555
C11 C10 1_555 1_555
C12 C11 1_555 1_555
H7 C12 1_555 1_555
C13 N1 1_555 1_555
H8 C13 1_555 1_555
C14 C13 1_555 1_555
H9 C14 1_555 1_555
C15 C11 1_555 1_555
H10 C15 1_555 1_555
C16 C10 1_555 1_555
H11 C16 1_555 1_555
C17 N2 1_555 1_555
C18 C17 1_555 1_555
C19 C18 1_555 1_555
H12 C19 1_555 1_555
C20 C19 1_555 1_555
C21 C20 1_555 1_555
H13 C21 1_555 1_555
C22 C21 1_555 1_555
H14 C22 1_555 1_555
C23 C18 1_555 1_555
H15 C23 1_555 1_555
C24 C20 1_555 1_555
Co1A O1 1_555 1_555
O2A Co1A 1_555 1_555
O3A C1A 1_555 1_555
O4A C24A 1_555 1_555
O5A C24A 1_555 1_555
N1A C12A 1_555 1_555
N2A C8A 1_555 1_555
C1A O2A 1_555 1_555
C2A C1A 1_555 1_555
C3A C2A 1_555 1_555
H2A C3A 1_555 1_555
C4A C3A 1_555 1_555
C5A C4A 1_555 1_555
H3A C5A 1_555 1_555
C6A C5A 1_555 1_555
H4A C6A 1_555 1_555
C7A C2A 1_555 1_555
H5A C7A 1_555 1_555
C8A C4A 1_555 1_555
C9A C8A 1_555 1_555
H6A C9A 1_555 1_555
C10A C9A 1_555 1_555
C11A C10A 1_555 1_555
C12A C11A 1_555 1_555
H7A C12A 1_555 1_555
C13A N1A 1_555 1_555
H8A C13A 1_555 1_555
C14A C13A 1_555 1_555
H9A C14A 1_555 1_555
C15A C11A 1_555 1_555
H10A C15A 1_555 1_555
C16A C10A 1_555 1_555
H11A C16A 1_555 1_555
C17A N2A 1_555 1_555
C18A C17A 1_555 1_555
C19A C18A 1_555 1_555
H12A C19A 1_555 1_555
C20A C19A 1_555 1_555
C21A C20A 1_555 1_555
H13A C21A 1_555 1_555
C22A C21A 1_555 1_555
H14A C22A 1_555 1_555
C23A C18A 1_555 1_555
H15A C23A 1_555 1_555
C24A C20A 1_555 1_555
Co1B O1 1_555 1_555
O2B Co1B 1_555 1_555
O3B Co1 1_555 1_555
O4B C24B 1_555 1_555
O5B C24B 1_555 1_555
N1B C12B 1_555 1_555
N2B C8B 1_555 1_555
C1B O2B 1_555 1_555
C2B C1B 1_555 1_555
C3B C2B 1_555 1_555
H2B C3B 1_555 1_555
C4B C3B 1_555 1_555
C5B C4B 1_555 1_555
H3B C5B 1_555 1_555
C6B C5B 1_555 1_555
H4B C6B 1_555 1_555
C7B C2B 1_555 1_555
H5B C7B 1_555 1_555
C8B C4B 1_555 1_555
C9B C8B 1_555 1_555
H6B C9B 1_555 1_555
C10B C9B 1_555 1_555
C11B C10B 1_555 1_555
C12B C11B 1_555 1_555
H7B C12B 1_555 1_555
C13B N1B 1_555 1_555
H8B C13B 1_555 1_555
C14B C13B 1_555 1_555
H9B C14B 1_555 1_555
C15B C11B 1_555 1_555
H10B C15B 1_555 1_555
C16B C10B 1_555 1_555
H11B C16B 1_555 1_555
C17B N2B 1_555 1_555
C18B C17B 1_555 1_555
C19B C18B 1_555 1_555
H12B C19B 1_555 1_555
C20B C19B 1_555 1_555
C21B C20B 1_555 1_555
H13B C21B 1_555 1_555
C22B C21B 1_555 1_555
H14B C22B 1_555 1_555
C23B C18B 1_555 1_555
H15B C23B 1_555 1_555
C24B C20B 1_555 1_555
Co1C N1 1_555 1_555
Co1D N1B 1_555 1_555
Co1E N1A 1_555 1_555
Co1L O5 1_555 1_555
Co1L_2 O4A 1_555 1_555
Co1M O5A 1_555 1_555
Co1M_2 O4B 1_555 1_555
Co1N O4 1_555 1_555
Co1N_2 O5B 1_555 1_555
O4F Co1B 1_555 1_555
O4G Co1 1_555 1_555
O4H Co1A 1_555 1_555
O5F Co1 1_555 1_555
O5G Co1A 1_555 1_555
O5H Co1B 1_555 1_555
N1C Co1 1_555 1_555
N1D Co1B 1_555 1_555
N1E Co1A 1_555 1_555
O3 Co1A 1_555 1_555
C6 C7 1_555 1_555
C14 C15 1_555 1_555
C16 C17 1_555 1_555
C22 C23 1_555 1_555
O3A Co1B 1_555 1_555
C6A C7A 1_555 1_555
C14A C15A 1_555 1_555
C16A C17A 1_555 1_555
C22A C23A 1_555 1_555
O3B C1B 1_555 1_555
C6B C7B 1_555 1_555
C14B C15B 1_555 1_555
C16B C17B 1_555 1_555
C22B C23B 1_555 1_555

#END
