
#######################################################################
#
#                 Cambridge Crystallographic Data Centre
#                                CCDC 
#
#######################################################################
#
# If this CIF has been generated from an entry in the Cambridge 
# Structural Database, then it will include bibliographic, chemical, 
# crystal, experimental, refinement or atomic coordinate data resulting 
# from the CCDC's data processing and validation procedures.
#
#######################################################################

data_NAGSAS
_chemical_formula_moiety         '(C72 H43 Co3 N30 O1)n'
_symmetry_cell_setting           rhombohedral
_symmetry_space_group_name_H-M   'R -3 c'
_symmetry_Int_Tables_number      167
_space_group_name_Hall           '-R 3 2"c'
loop_
_symmetry_equiv_pos_site_id
_symmetry_equiv_pos_as_xyz
1 x,y,z
2 -y,x-y,z
3 -x+y,-x,z
4 y,x,1/2-z
5 x-y,-y,1/2-z
6 -x,-x+y,1/2-z
7 2/3+x,1/3+y,1/3+z
8 2/3-y,1/3+x-y,1/3+z
9 2/3-x+y,1/3-x,1/3+z
10 2/3+y,1/3+x,5/6-z
11 2/3+x-y,1/3-y,5/6-z
12 2/3-x,1/3-x+y,5/6-z
13 1/3+x,2/3+y,2/3+z
14 1/3-y,2/3+x-y,2/3+z
15 1/3-x+y,2/3-x,2/3+z
16 1/3+y,2/3+x,1/6-z
17 1/3+x-y,2/3-y,1/6-z
18 1/3-x,2/3-x+y,1/6-z
19 -x,-y,-z
20 y,-x+y,-z
21 x-y,x,-z
22 -y,-x,1/2+z
23 -x+y,y,1/2+z
24 x,x-y,1/2+z
25 1/3-x,2/3-y,2/3-z
26 1/3+y,2/3-x+y,2/3-z
27 1/3+x-y,2/3+x,2/3-z
28 1/3-y,2/3-x,1/6+z
29 1/3-x+y,2/3+y,1/6+z
30 1/3+x,2/3+x-y,1/6+z
31 2/3-x,1/3-y,1/3-z
32 2/3+y,1/3-x+y,1/3-z
33 2/3+x-y,1/3+x,1/3-z
34 2/3-y,1/3-x,5/6+z
35 2/3-x+y,1/3+y,5/6+z
36 2/3+x,1/3+x-y,5/6+z
_cell_length_a                   27.3444(8)
_cell_length_b                   27.3444(8)
_cell_length_c                   71.115(2)
_cell_angle_alpha                90
_cell_angle_beta                 90
_cell_angle_gamma                120
_cell_volume                     46049.9
loop_
_atom_site_label
_atom_site_type_symbol
_atom_site_fract_x
_atom_site_fract_y
_atom_site_fract_z
Co1 Co 0.33517(2) 0.59428(2) 0.56606(2)
O1 O 0.3333 0.6667 0.56766(4)
H1 H 0.3333 0.6667 0.5817
N1 N 0.15169(13) 0.14649(13) 0.60404(4)
N2 N 0.41197(14) 0.39221(13) 0.62623(4)
N3 N 0.40423(13) 0.63933(13) 0.58637(4)
N4 N 0.43253(12) 0.69667(12) 0.58535(4)
N5 N 0.47836(14) 0.71667(14) 0.59572(4)
N6 N 0.48122(16) 0.67368(14) 0.60374(5)
N7 N 0.58632(13) 0.38381(13) 0.69775(4)
N8 N 0.60414(13) 0.36449(14) 0.71188(4)
N9 N 0.57501(12) 0.30809(12) 0.71198(4)
N10 N 0.53789(13) 0.28971(13) 0.69760(4)
C1 C 0.43484(16) 0.62658(16) 0.59787(5)
C2 C 0.41980(16) 0.56854(16) 0.60307(5)
C3 C 0.36322(17) 0.52769(17) 0.60541(5)
H2 H 0.3350 0.5382 0.6046
C4 C 0.34736(16) 0.47126(16) 0.60895(5)
H3 H 0.3086 0.4434 0.6101
C5 C 0.38939(16) 0.45654(15) 0.61073(5)
C6 C 0.44639(16) 0.49825(16) 0.60878(6)
H4 H 0.4749 0.4884 0.6102
C7 C 0.46126(16) 0.55314(16) 0.60489(5)
H5 H 0.5000 0.5808 0.6034
C8 C 0.37385(17) 0.39725(16) 0.61553(5)
C9 C 0.32336(16) 0.35064(16) 0.60951(5)
H6 H 0.2980 0.3557 0.6017
C10 C 0.31072(16) 0.29670(16) 0.61510(5)
C11 C 0.25605(16) 0.24527(16) 0.61038(5)
C12 C 0.20661(16) 0.24807(16) 0.60767(5)
H7 H 0.2078 0.2834 0.6078
C13 C 0.15604(17) 0.19832(17) 0.60472(5)
H8 H 0.1227 0.2005 0.6031
C14 C 0.19976(15) 0.14441(16) 0.60606(5)
H9 H 0.1977 0.1087 0.6055
C15 C 0.25140(16) 0.19155(16) 0.60895(5)
H10 H 0.2842 0.1881 0.6100
C16 C 0.34993(17) 0.29238(17) 0.62638(6)
H11 H 0.3433 0.2564 0.6303
C17 C 0.39878(17) 0.34087(17) 0.63182(5)
C18 C 0.43932(19) 0.33790(18) 0.64532(6)
C19 C 0.4418(6) 0.2901(5) 0.64912(18)
H12 H 0.4188 0.2564 0.6423
C20 C 0.4782(6) 0.2909(5) 0.66299(18)
H13 H 0.4796 0.2574 0.6653
C21 C 0.5102(7) 0.3863(5) 0.6694(2)
H14 H 0.5358 0.4201 0.6758
C22 C 0.4736(7) 0.3875(5) 0.6567(2)
H15 H 0.4704 0.4203 0.6554
C23 C 0.51124(17) 0.33701(16) 0.67328(5)
C24 C 0.54559(17) 0.33681(16) 0.68925(5)
Co1A Co 0.40572(2) 0.74089(3) 0.56606(2)
N1A N 0.85351(13) 1.00520(18) 0.60404(4)
N2A N 0.60779(13) 1.01976(19) 0.62623(4)
N3A N 0.36067(13) 0.76490(18) 0.58637(4)
N4A N 0.30333(12) 0.73586(17) 0.58535(4)
N5A N 0.28333(14) 0.76169(20) 0.59572(4)
N6A N 0.32632(14) 0.80754(21) 0.60374(5)
N7A N 0.61619(13) 1.20251(18) 0.69775(4)
N8A N 0.63551(14) 1.23965(19) 0.71188(4)
N9A N 0.69191(12) 1.26692(17) 0.71198(4)
N10A N 0.71029(13) 1.24818(18) 0.69760(4)
C1A C 0.37342(16) 0.80826(23) 0.59787(5)
C2A C 0.43146(16) 0.85126(23) 0.60307(5)
C3A C 0.47231(17) 0.83553(24) 0.60541(5)
H2A H 0.4618 0.7968 0.6046
C4A C 0.52874(16) 0.87610(23) 0.60895(5)
H3A H 0.5566 0.8652 0.6101
C5A C 0.54346(15) 0.93285(22) 0.61073(5)
C6A C 0.50175(16) 0.94814(23) 0.60878(6)
H4A H 0.5116 0.9865 0.6102
C7A C 0.44686(16) 0.90812(23) 0.60489(5)
H5A H 0.4192 0.9192 0.6034
C8A C 0.60275(16) 0.97660(23) 0.61553(5)
C9A C 0.64936(16) 0.97272(23) 0.60951(5)
H6A H 0.6443 0.9423 0.6017
C10A C 0.70330(16) 1.01402(23) 0.61510(5)
C11A C 0.75473(16) 1.01078(23) 0.61038(5)
C12A C 0.75193(16) 0.95854(23) 0.60767(5)
H7A H 0.7166 0.9244 0.6078
C13A C 0.80168(17) 0.95772(24) 0.60472(5)
H8A H 0.7995 0.9222 0.6031
C14A C 0.85559(16) 1.05535(22) 0.60606(5)
H9A H 0.8913 1.0890 0.6055
C15A C 0.80845(16) 1.05985(23) 0.60895(5)
H10A H 0.8119 1.0961 0.6100
C16A C 0.70762(17) 1.05755(24) 0.62638(6)
H11A H 0.7436 1.0869 0.6303
C17A C 0.65913(17) 1.05791(24) 0.63182(5)
C18A C 0.66210(18) 1.10142(26) 0.64532(6)
C19A C 0.7099(5) 1.1517(8) 0.64912(18)
H12A H 0.7436 1.1624 0.6423
C20A C 0.7091(5) 1.1873(8) 0.66299(18)
H13A H 0.7426 1.2222 0.6653
C21A C 0.6137(5) 1.1239(9) 0.6694(2)
H14A H 0.5799 1.1157 0.6758
C22A C 0.6125(5) 1.0861(9) 0.6567(2)
H15A H 0.5797 1.0501 0.6554
C23A C 0.66299(16) 1.17423(23) 0.67328(5)
C24A C 0.66319(16) 1.20878(23) 0.68925(5)
Co1B Co 0.25911(3) 0.66483(2) 0.56606(2)
N1B N -0.00520(18) 0.84831(13) 0.60404(4)
N2B N -0.01976(19) 0.58803(14) 0.62623(4)
N3B N 0.23510(18) 0.59577(13) 0.58637(4)
N4B N 0.26414(17) 0.56747(12) 0.58535(4)
N5B N 0.23831(20) 0.52164(14) 0.59572(4)
N6B N 0.19246(21) 0.51878(16) 0.60374(5)
N7B N -0.20251(18) 0.41368(13) 0.69775(4)
N8B N -0.23965(19) 0.39586(13) 0.71188(4)
N9B N -0.26692(17) 0.42499(12) 0.71198(4)
N10B N -0.24818(18) 0.46211(13) 0.69760(4)
C1B C 0.19174(23) 0.56516(16) 0.59787(5)
C2B C 0.14874(23) 0.58020(16) 0.60307(5)
C3B C 0.16447(24) 0.63678(17) 0.60541(5)
H2B H 0.2032 0.6650 0.6046
C4B C 0.12390(23) 0.65264(16) 0.60895(5)
H3B H 0.1348 0.6914 0.6101
C5B C 0.06715(22) 0.61061(16) 0.61073(5)
C6B C 0.05186(23) 0.55361(16) 0.60878(6)
H4B H 0.0135 0.5251 0.6102
C7B C 0.09188(23) 0.53874(16) 0.60489(5)
H5B H 0.0808 0.5000 0.6034
C8B C 0.02340(23) 0.62615(17) 0.61553(5)
C9B C 0.02728(23) 0.67664(16) 0.60951(5)
H6B H 0.0577 0.7020 0.6017
C10B C -0.01402(23) 0.68928(16) 0.61510(5)
C11B C -0.01078(23) 0.74395(16) 0.61038(5)
C12B C 0.04146(23) 0.79339(16) 0.60767(5)
H7B H 0.0756 0.7922 0.6078
C13B C 0.04228(24) 0.84396(17) 0.60472(5)
H8B H 0.0778 0.8773 0.6031
C14B C -0.05535(22) 0.80024(15) 0.60606(5)
H9B H -0.0890 0.8023 0.6055
C15B C -0.05985(23) 0.74860(16) 0.60895(5)
H10B H -0.0961 0.7158 0.6100
C16B C -0.05755(24) 0.65007(17) 0.62638(6)
H11B H -0.0869 0.6567 0.6303
C17B C -0.05791(24) 0.60122(17) 0.63182(5)
C18B C -0.10142(26) 0.56068(19) 0.64532(6)
C19B C -0.1517(8) 0.5582(6) 0.64912(18)
H12B H -0.1624 0.5812 0.6423
C20B C -0.1873(8) 0.5218(6) 0.66299(18)
H13B H -0.2222 0.5204 0.6653
C21B C -0.1239(9) 0.4898(7) 0.6694(2)
H14B H -0.1157 0.4642 0.6758
C22B C -0.0861(9) 0.5264(7) 0.6567(2)
H15B H -0.0501 0.5296 0.6554
C23B C -0.17423(23) 0.48876(17) 0.67328(5)
C24B C -0.20878(23) 0.45441(17) 0.68925(5)
Co1O Co 0.92761(2) 1.00184(2) 0.60061(2)
Co1P Co 0.07422(3) 0.07239(2) 0.60061(2)
Co1Q Co -0.00184(2) 0.92578(3) 0.60061(2)
Co1AA Co -0.26095(2) 0.33150(2) 0.73273(2)
Co1AA_2 Co 0.73905(2) 1.33150(2) 0.73273(2)
Co1BA Co 0.59244(3) 0.26095(2) 0.73273(2)
Co1BA_2 Co 0.59244(3) 1.26095(2) 0.73273(2)
Co1CA Co -0.33150(2) 0.40756(3) 0.73273(2)
Co1CA_2 Co 0.66850(2) 0.40756(3) 0.73273(2)
N1O N 0.47982(13) 0.81836(13) 0.56263(4)
N1P N 0.33853(18) 0.52018(13) 0.56263(4)
N1Q N 0.18164(13) 0.66147(18) 0.56263(4)
N8GA N 0.30218(14) 0.72919(13) 0.54521(4)
N8HA N 0.42702(19) 0.69782(14) 0.54521(4)
N8IA N 0.27081(13) 0.57298(19) 0.54521(4)
N9GA N 0.35858(12) 0.75832(12) 0.54531(4)
N9HA N 0.39975(17) 0.64142(12) 0.54531(4)
N9IA N 0.24168(12) 0.60025(17) 0.54531(4)
loop_
_geom_bond_atom_site_label_1
_geom_bond_atom_site_label_2
_geom_bond_site_symmetry_1
_geom_bond_site_symmetry_2
Co1 O1 1_555 1_555
O1 H1 1_555 1_555
N1 C13 1_555 1_555
N2 C8 1_555 1_555
N3 Co1 1_555 1_555
N4 N3 1_555 1_555
N5 N4 1_555 1_555
N6 N5 1_555 1_555
N7 N8 1_555 1_555
N8 N9 1_555 1_555
N9 N10 1_555 1_555
N10 C24 1_555 1_555
C1 N3 1_555 1_555
C2 C1 1_555 1_555
C3 C2 1_555 1_555
H2 C3 1_555 1_555
C4 C3 1_555 1_555
H3 C4 1_555 1_555
C5 C4 1_555 1_555
C6 C5 1_555 1_555
H4 C6 1_555 1_555
C7 C2 1_555 1_555
H5 C7 1_555 1_555
C8 C5 1_555 1_555
C9 C8 1_555 1_555
H6 C9 1_555 1_555
C10 C9 1_555 1_555
C11 C10 1_555 1_555
C12 C11 1_555 1_555
H7 C12 1_555 1_555
C13 C12 1_555 1_555
H8 C13 1_555 1_555
C14 N1 1_555 1_555
H9 C14 1_555 1_555
C15 C11 1_555 1_555
H10 C15 1_555 1_555
C16 C10 1_555 1_555
H11 C16 1_555 1_555
C17 N2 1_555 1_555
C18 C17 1_555 1_555
C19 C18 1_555 1_555
H12 C19 1_555 1_555
C20 C19 1_555 1_555
H13 C20 1_555 1_555
C21 H14 1_555 1_555
C22 C18 1_555 1_555
H15 C22 1_555 1_555
C23 C20 1_555 1_555
C24 N7 1_555 1_555
Co1A O1 1_555 1_555
N1A C13A 1_555 1_555
N2A C8A 1_555 1_555
N3A Co1A 1_555 1_555
N4A N3A 1_555 1_555
N5A N4A 1_555 1_555
N6A N5A 1_555 1_555
N7A N8A 1_555 1_555
N8A N9A 1_555 1_555
N9A N10A 1_555 1_555
N10A C24A 1_555 1_555
C1A N3A 1_555 1_555
C2A C1A 1_555 1_555
C3A C2A 1_555 1_555
H2A C3A 1_555 1_555
C4A C3A 1_555 1_555
H3A C4A 1_555 1_555
C5A C4A 1_555 1_555
C6A C5A 1_555 1_555
H4A C6A 1_555 1_555
C7A C2A 1_555 1_555
H5A C7A 1_555 1_555
C8A C5A 1_555 1_555
C9A C8A 1_555 1_555
H6A C9A 1_555 1_555
C10A C9A 1_555 1_555
C11A C10A 1_555 1_555
C12A C11A 1_555 1_555
H7A C12A 1_555 1_555
C13A C12A 1_555 1_555
H8A C13A 1_555 1_555
C14A N1A 1_555 1_555
H9A C14A 1_555 1_555
C15A C11A 1_555 1_555
H10A C15A 1_555 1_555
C16A C10A 1_555 1_555
H11A C16A 1_555 1_555
C17A N2A 1_555 1_555
C18A C17A 1_555 1_555
C19A C18A 1_555 1_555
H12A C19A 1_555 1_555
C20A C19A 1_555 1_555
H13A C20A 1_555 1_555
C21A H14A 1_555 1_555
C22A C18A 1_555 1_555
H15A C22A 1_555 1_555
C23A C20A 1_555 1_555
C24A N7A 1_555 1_555
Co1B O1 1_555 1_555
N1B C13B 1_555 1_555
N2B C8B 1_555 1_555
N3B Co1B 1_555 1_555
N4B Co1 1_555 1_555
N5B N4B 1_555 1_555
N6B N5B 1_555 1_555
N7B N8B 1_555 1_555
N8B N9B 1_555 1_555
N9B N10B 1_555 1_555
N10B C24B 1_555 1_555
C1B N3B 1_555 1_555
C2B C1B 1_555 1_555
C3B C2B 1_555 1_555
H2B C3B 1_555 1_555
C4B C3B 1_555 1_555
H3B C4B 1_555 1_555
C5B C4B 1_555 1_555
C6B C5B 1_555 1_555
H4B C6B 1_555 1_555
C7B C2B 1_555 1_555
H5B C7B 1_555 1_555
C8B C5B 1_555 1_555
C9B C8B 1_555 1_555
H6B C9B 1_555 1_555
C10B C9B 1_555 1_555
C11B C10B 1_555 1_555
C12B C11B 1_555 1_555
H7B C12B 1_555 1_555
C13B C12B 1_555 1_555
H8B C13B 1_555 1_555
C14B N1B 1_555 1_555
H9B C14B 1_555 1_555
C15B C11B 1_555 1_555
H10B C15B 1_555 1_555
C16B C10B 1_555 1_555
H11B C16B 1_555 1_555
C17B N2B 1_555 1_555
C18B C17B 1_555 1_555
C19B C18B 1_555 1_555
H12B C19B 1_555 1_555
C20B C19B 1_555 1_555
H13B C20B 1_555 1_555
C21B H14B 1_555 1_555
C22B C18B 1_555 1_555
H15B C22B 1_555 1_555
C23B C20B 1_555 1_555
C24B N7B 1_555 1_555
Co1O N1A 1_555 1_555
Co1P N1 1_555 1_555
Co1Q N1B 1_555 1_555
Co1AA N8B 1_555 1_555
Co1AA_2 N9A 1_555 1_555
Co1BA N9 1_555 1_555
Co1BA_2 N8A 1_555 1_555
Co1CA N9B 1_555 1_555
Co1CA_2 N8 1_555 1_555
N1O Co1A 1_555 1_555
N1P Co1 1_555 1_555
N1Q Co1B 1_555 1_555
N8GA Co1B 1_555 1_555
N8HA Co1A 1_555 1_555
N8IA Co1 1_555 1_555
N9GA Co1A 1_555 1_555
N9HA Co1 1_555 1_555
N9IA Co1B 1_555 1_555
N4 Co1A 1_555 1_555
N6 C1 1_555 1_555
C6 C7 1_555 1_555
C14 C15 1_555 1_555
C16 C17 1_555 1_555
C21 C22 1_555 1_555
C21 C23 1_555 1_555
C23 C24 1_555 1_555
N4A Co1B 1_555 1_555
N6A C1A 1_555 1_555
C6A C7A 1_555 1_555
C14A C15A 1_555 1_555
C16A C17A 1_555 1_555
C21A C22A 1_555 1_555
C21A C23A 1_555 1_555
C23A C24A 1_555 1_555
N3B N4B 1_555 1_555
N6B C1B 1_555 1_555
C6B C7B 1_555 1_555
C14B C15B 1_555 1_555
C16B C17B 1_555 1_555
C21B C22B 1_555 1_555
C21B C23B 1_555 1_555
C23B C24B 1_555 1_555
N8GA N9GA 1_555 1_555
N8HA N9HA 1_555 1_555
N8IA N9IA 1_555 1_555

#END
