
#######################################################################
#
#                 Cambridge Crystallographic Data Centre
#                                CCDC 
#
#######################################################################
#
# If this CIF has been generated from an entry in the Cambridge 
# Structural Database, then it will include bibliographic, chemical, 
# crystal, experimental, refinement or atomic coordinate data resulting 
# from the CCDC's data processing and validation procedures.
#
#######################################################################

data_MOCQIF
_chemical_formula_moiety         '(Ga20 O1 S37 12-)n'
_symmetry_cell_setting           monoclinic
_symmetry_space_group_name_H-M   'C 2/c'
_symmetry_Int_Tables_number      15
_space_group_name_Hall           '-C 2yc'
loop_
_symmetry_equiv_pos_site_id
_symmetry_equiv_pos_as_xyz
1 x,y,z
2 1/2+x,1/2+y,z
3 -x,y,1/2-z
4 1/2-x,1/2+y,1/2-z
5 -x,-y,-z
6 1/2-x,1/2-y,-z
7 x,-y,1/2+z
8 1/2+x,1/2-y,1/2+z
_cell_length_a                   33.8210(11)
_cell_length_b                   18.4173(6)
_cell_length_c                   20.9778(7)
_cell_angle_alpha                90
_cell_angle_beta                 116.601(1)
_cell_angle_gamma                90
_cell_volume                     11683.7
loop_
_atom_site_label
_atom_site_type_symbol
_atom_site_fract_x
_atom_site_fract_y
_atom_site_fract_z
Ga1 Ga 0.28846(4) -0.44835(6) 0.37058(7)
Ga2 Ga 0.37622(3) -0.40971(5) 0.32556(6)
Ga3 Ga 0.36331(4) -0.30785(6) 0.47127(6)
Ga4 Ga 0.27961(3) -0.28041(5) 0.27859(6)
Ga5 Ga 0.21681(3) -0.61262(5) 0.30611(6)
Ga6 Ga 0.37284(3) -0.23267(5) 0.23300(5)
Ga7 Ga 0.46049(4) -0.35562(6) 0.28364(7)
Ga8 Ga 0.45614(3) -0.26024(6) 0.42400(6)
Ga9 Ga 0.43945(4) -0.16257(7) 0.55800(6)
Ga10 Ga 0.35990(3) -0.13127(5) 0.37809(6)
S1 S 0.25448(10) -0.53787(16) 0.40025(19)
S2 S 0.33676(9) -0.50153(13) 0.33647(18)
S3 S 0.32285(9) -0.39755(14) 0.48136(16)
S4 S 0.23932(8) -0.37341(14) 0.28592(15)
S5 S 0.33029(7) -0.32728(12) 0.24197(13)
S6 S 0.42363(10) -0.45536(14) 0.28830(19)
S7 S 0.41457(8) -0.35432(13) 0.43569(14)
S8 S 0.31687(7) -0.22433(12) 0.38882(13)
S9 S 0.26356(8) -0.69900(14) 0.30094(15)
S10 S 0.16915(9) -0.65265(15) 0.34766(15)
S11 S 0.40136(11) -0.25380(19) 0.57738(16)
S12 S 0.42163(9) -0.27638(14) 0.19722(16)
S13 S 0.50461(8) -0.30408(15) 0.38848(16)
S14 S 0.41103(7) -0.17517(12) 0.34204(13)
S15 S 0.31691(9) -0.05039(13) 0.29730(15)
S16 S 0.39415(9) -0.07665(15) 0.48348(16)
S17 S 0.49290(9) -0.20332(16) 0.52827(16)
S18 S 0.47616(16) -0.0977(2) 0.65878(17)
S19 S 0.5000 -0.16871(18) 0.7500
O1 O 0.5000 -0.3983(5) 0.2500
Ga1C Ga 0.21154(4) -0.94835(6) 0.12942(7)
Ga1C_2 Ga 0.21154(4) 0.05165(6) 0.12942(7)
Ga2C Ga 0.12378(3) -0.90971(5) 0.17444(6)
Ga2C_2 Ga 0.12378(3) 0.09029(5) 0.17444(6)
Ga3C Ga 0.13669(4) -0.80785(6) 0.02873(6)
Ga3C_2 Ga 0.13669(4) 0.19215(6) 0.02873(6)
Ga4C Ga 0.22039(3) -0.78041(5) 0.22141(6)
Ga5C Ga 0.28319(3) -0.11262(5) 0.19389(6)
Ga6C Ga 0.12716(3) -0.73267(5) 0.26700(5)
Ga7B Ga 0.53951(4) -0.35562(6) 0.21636(7)
Ga7C Ga 0.03951(4) -0.85562(6) 0.21636(7)
Ga8C Ga 0.04386(3) -0.76024(6) 0.07600(6)
Ga9B Ga 0.56055(4) -0.16257(7) 0.94200(6)
Ga9C Ga 0.06055(4) -0.66257(7) -0.05800(6)
Ga10C Ga 0.14010(3) -0.63127(5) 0.12191(6)
S1C S 0.24552(10) -0.03787(16) 0.09975(19)
S1C_2 S 0.24552(10) -1.03787(16) 0.09975(19)
S2C S 0.16324(9) -1.00153(13) 0.16353(18)
S2C_2 S 0.16324(9) -0.00153(13) 0.16353(18)
S3C S 0.17715(9) -0.89755(14) 0.01864(16)
S3C_2 S 0.17715(9) 0.10245(14) 0.01864(16)
S4C S 0.26068(8) -0.87341(14) 0.21408(15)
S4C_2 S 0.26068(8) 0.12659(14) 0.21408(15)
S5C S 0.16971(7) -0.82728(12) 0.25803(13)
S6C S 0.07637(10) -0.95536(14) 0.21170(19)
S7C S 0.08543(8) -0.85432(13) 0.06431(14)
S8C S 0.18313(7) -0.72433(12) 0.11118(13)
S9C S 0.23644(8) -0.19900(14) 0.19906(15)
S10C S 0.33085(9) -0.15265(15) 0.15234(15)
S11C S 0.09864(11) -0.75380(19) -0.07738(16)
S12C S 0.07837(9) -0.77638(14) 0.30278(16)
S13C S -0.00461(8) -0.80408(15) 0.11152(16)
S14C S 0.08897(7) -0.67517(12) 0.15796(13)
S15C S 0.18309(9) -0.55039(13) 0.20270(15)
S16C S 0.10585(9) -0.57665(15) 0.01652(16)
S17C S 0.00710(9) -0.70332(16) -0.02827(16)
S18B S 0.52384(16) -0.0977(2) 0.84122(17)
O1A O 0.0000 -0.8983(5) 0.2500
loop_
_geom_bond_atom_site_label_1
_geom_bond_atom_site_label_2
_geom_bond_site_symmetry_1
_geom_bond_site_symmetry_2
Ga1 S1 1_555 1_555
Ga2 S2 1_555 1_555
Ga3 S3 1_555 1_555
Ga4 S4 1_555 1_555
Ga5 S1 1_555 1_555
Ga6 S5 1_555 1_555
Ga7 S6 1_555 1_555
Ga8 S7 1_555 1_555
Ga9 S11 1_555 1_555
Ga10 S8 1_555 1_555
S2 Ga1 1_555 1_555
S3 Ga1 1_555 1_555
S4 Ga1 1_555 1_555
S5 Ga2 1_555 1_555
S6 Ga2 1_555 1_555
S7 Ga2 1_555 1_555
S8 Ga3 1_555 1_555
S9 Ga5 1_555 1_555
S10 Ga5 1_555 1_555
S11 Ga3 1_555 1_555
S12 Ga6 1_555 1_555
S13 Ga7 1_555 1_555
S14 Ga6 1_555 1_555
S15 Ga10 1_555 1_555
S16 Ga9 1_555 1_555
S17 Ga8 1_555 1_555
S18 Ga9 1_555 1_555
S19 S18 1_555 1_555
O1 Ga7 1_555 1_555
Ga1C S1C_2 1_555 1_555
Ga1C_2 S1C 1_555 1_555
Ga2C S2C 1_555 1_555
Ga2C_2 S2C_2 1_555 1_555
Ga3C S3C 1_555 1_555
Ga3C_2 S3C_2 1_555 1_555
Ga4C S9 1_555 1_555
Ga5C S15 1_555 1_555
Ga6C S10 1_555 1_555
Ga7B O1 1_555 1_555
Ga7C S6C 1_555 1_555
Ga8C S7C 1_555 1_555
Ga9B S18B 1_555 1_555
Ga9C S11C 1_555 1_555
Ga10C S8C 1_555 1_555
S1C Ga5C 1_555 1_555
S2C Ga1C 1_555 1_555
S2C_2 Ga1C_2 1_555 1_555
S3C Ga1C 1_555 1_555
S3C_2 Ga1C_2 1_555 1_555
S4C Ga1C 1_555 1_555
S4C_2 Ga1C_2 1_555 1_555
S5C Ga2C 1_555 1_555
S6C Ga2C 1_555 1_555
S7C Ga2C 1_555 1_555
S8C Ga3C 1_555 1_555
S9C Ga4 1_555 1_555
S10C Ga6 1_555 1_555
S11C Ga3C 1_555 1_555
S12C Ga6C 1_555 1_555
S13C Ga7C 1_555 1_555
S14C Ga6C 1_555 1_555
S15C Ga5 1_555 1_555
S16C Ga9C 1_555 1_555
S17C Ga8C 1_555 1_555
S18B S19 1_555 1_555
O1A Ga7C 1_555 1_555
Ga3 S7 1_555 1_555
Ga4 S5 1_555 1_555
Ga4 S8 1_555 1_555
Ga7 S12 1_555 1_555
Ga8 S13 1_555 1_555
Ga8 S14 1_555 1_555
Ga9 S17 1_555 1_555
Ga10 S14 1_555 1_555
Ga10 S16 1_555 1_555
Ga3C S7C 1_555 1_555
Ga4C S4C 1_555 1_555
Ga4C S5C 1_555 1_555
Ga4C S8C 1_555 1_555
Ga5C S9C 1_555 1_555
Ga5C S10C 1_555 1_555
Ga6C S5C 1_555 1_555
Ga7C S12C 1_555 1_555
Ga8C S13C 1_555 1_555
Ga8C S14C 1_555 1_555
Ga9C S17C 1_555 1_555
Ga10C S14C 1_555 1_555
Ga10C S15C 1_555 1_555
Ga10C S16C 1_555 1_555

#END
