
#######################################################################
#
#                 Cambridge Crystallographic Data Centre
#                                CCDC 
#
#######################################################################
#
# If this CIF has been generated from an entry in the Cambridge 
# Structural Database, then it will include bibliographic, chemical, 
# crystal, experimental, refinement or atomic coordinate data resulting 
# from the CCDC's data processing and validation procedures.
#
#######################################################################

data_QUQMOG
_chemical_formula_moiety         '(C74 H50 Cd2 N4 O9)n'
_symmetry_cell_setting           triclinic
_symmetry_space_group_name_H-M   'P -1'
_symmetry_Int_Tables_number      2
_space_group_name_Hall           '-P 1'
loop_
_symmetry_equiv_pos_site_id
_symmetry_equiv_pos_as_xyz
1 x,y,z
2 -x,-y,-z
_cell_length_a                   13.849(3)
_cell_length_b                   14.724(3)
_cell_length_c                   22.987(5)
_cell_angle_alpha                88.25(3)
_cell_angle_beta                 74.38(3)
_cell_angle_gamma                87.86(3)
_cell_volume                     4510.06
loop_
_atom_site_label
_atom_site_type_symbol
_atom_site_fract_x
_atom_site_fract_y
_atom_site_fract_z
C1 C 0.9484(18) 0.5819(13) 0.2020(7)
H1 H 0.9547 0.5288 0.1802
Cd1 Cd 0.31679(4) 1.06089(3) 0.098518(18)
Cd2 Cd 0.20572(4) 1.95482(3) 0.447613(19)
O1 O 0.2585(4) 1.0880(3) 0.0145(2)
O2 O 0.3613(4) 0.9702(3) 0.00076(18)
O3 O 0.1595(4) 1.0247(4) -0.4560(2)
O4 O 0.2531(5) 0.9005(4) -0.4679(2)
O5 O 0.2457(5) 1.1995(3) 0.1286(3)
O6 O 0.2843(5) 1.1320(4) 0.2045(2)
O7 O 0.1428(5) 1.8254(3) 0.4242(3)
N1 N 1.0948(4) 0.0543(3) 0.4163(2)
N2 N 0.3292(5) 0.0582(4) 0.4085(3)
N3 N 1.1881(4) 0.9578(4) 0.1400(3)
N4 N 0.4134(4) 0.9531(3) 0.1361(2)
O8 O 0.4679(4) 1.1352(3) 0.0558(2)
H2 H 0.4855 1.1902 0.0500
H3 H 0.5184 1.1016 0.0394
C2 C 0.2030(4) 1.3661(3) 0.1884(2)
H4 H 0.1803 1.3611 0.1541
C3 C 0.1974(9) 1.4491(6) 0.2166(5)
H5 H 0.1706 1.4993 0.2001
C4 C 0.2524(11) 1.3833(6) 0.2940(5)
H6 H 0.2628 1.3877 0.3321
C5 C 0.2274(8) 1.4610(6) 0.2651(4)
C6 C 0.2209(7) 1.5503(6) 0.2949(4)
C7 C 0.2432(7) 1.2913(5) 0.2125(4)
C8 C 0.2625(9) 1.2981(6) 0.2671(5)
H7 H 0.2821 1.2469 0.2863
C9 C 0.2128(7) 1.7184(5) 0.3491(4)
C10 C 1.0950(6) 0.0612(5) 0.3602(3)
H8 H 1.1282 0.0154 0.3347
C11 C 1.0504(6) 0.1302(5) 0.3353(3)
H9 H 1.0540 0.1304 0.2943
C12 C 0.9998(5) 0.2003(4) 0.3710(3)
C13 C 0.9941(6) 0.1890(5) 0.4322(3)
H10 H 0.9581 0.2316 0.4594
C14 C 1.0404(6) 0.1163(5) 0.4529(3)
H11 H 1.0337 0.1100 0.4942
C15 C 0.9507(6) 0.2798(5) 0.3466(3)
C16 C 0.4532(6) 0.2061(5) 0.3658(3)
C17 C 1.1660(8) 0.8962(7) 0.1050(4)
H12 H 1.1957 0.8998 0.0636
C18 C 1.1007(8) 0.8268(6) 0.1274(4)
H13 H 1.0837 0.7884 0.1005
C19 C 1.0609(5) 0.8133(4) 0.1875(3)
C20 C 1.0846(6) 0.8782(5) 0.2232(3)
H14 H 1.0577 0.8755 0.2649
C21 C 1.1474(6) 0.9459(5) 0.1974(3)
H15 H 1.1623 0.9874 0.2232
C22 C 0.9966(5) 0.7349(4) 0.2107(3)
C23 C 1.0148(17) 0.6527(12) 0.1784(8)
H16 H 1.0675 0.6458 0.1437
C24 C 0.3039(5) 1.0261(5) -0.0169(3)
C25 C 0.2328(6) 1.0797(6) -0.1031(3)
H17 H 0.2038 1.1291 -0.0797
C26 C 0.2179(7) 1.0739(5) -0.1604(3)
H18 H 0.1824 1.1195 -0.1754
C27 C 0.2879(5) 1.0169(5) -0.0794(3)
C28 C 0.3268(6) 0.9436(6) -0.1137(3)
H19 H 0.3654 0.9003 -0.0990
C29 C 0.3108(6) 0.9315(6) -0.1699(3)
H20 H 0.3353 0.8793 -0.1915
C30 C 0.2568(6) 0.9992(5) -0.1941(3)
C31 C 0.2439(6) 0.9899(5) -0.2553(3)
C32 C 0.5170(6) 0.2849(5) 0.3423(4)
C33 C 0.6300(15) 0.3966(11) 0.3570(6)
H21 H 0.6640 0.4208 0.3824
C34 C 0.6435(6) 0.4312(5) 0.3013(4)
C35 C 0.5659(16) 0.3244(11) 0.3780(6)
H22 H 0.5566 0.3031 0.4176
C36 C 0.6023(16) 0.3816(13) 0.2615(8)
H23 H 0.6181 0.3986 0.2208
C37 C 0.5394(18) 0.3089(14) 0.2813(8)
H24 H 0.5134 0.2775 0.2547
C38 C 0.7100(6) 0.5105(5) 0.2791(4)
C39 C 0.8067(6) 0.5077(4) 0.2797(4)
C40 C 0.8576(6) 0.4284(5) 0.3040(4)
C41 C 0.8720(6) 0.5881(4) 0.2577(3)
C42 C 0.7033(12) 0.6179(8) 0.1924(6)
H25 H 0.7617 0.5895 0.1695
C43 C 0.6592(6) 0.5888(5) 0.2552(4)
C44 C 0.2092(6) 0.9674(5) -0.4368(3)
C45 C 0.2218(6) 0.9735(5) -0.3736(3)
C46 C 0.2127(7) 1.8064(5) 0.3804(4)
C47 C 0.4631(6) 0.8871(5) 0.1022(3)
H26 H 0.4625 0.8872 0.0618
C48 C 0.4191(7) 0.9526(5) 0.1924(3)
H27 H 0.3880 1.0006 0.2165
C49 C 0.4679(7) 0.8858(5) 0.2183(3)
H28 H 0.4692 0.8889 0.2585
C50 C 0.5150(6) 0.8191(5) 0.1226(3)
H29 H 0.5508 0.7759 0.0959
C51 C 0.5154(5) 0.8133(4) 0.1825(3)
C52 C 0.5673(6) 0.7359(5) 0.2098(3)
C53 C 0.6592(13) 0.6850(8) 0.1686(6)
H30 H 0.6829 0.7013 0.1279
C54 C 0.5380(12) 0.7043(11) 0.2653(7)
H31 H 0.4840 0.7330 0.2922
C55 C 0.2582(7) 1.1990(5) 0.1801(4)
C56 C 0.5846(13) 0.6296(12) 0.2851(7)
H32 H 0.5570 0.6087 0.3244
C57 C 0.9219(16) 0.7414(13) 0.2649(8)
H33 H 0.9131 0.7940 0.2874
C58 C 0.859(2) 0.6654(13) 0.2852(9)
H34 H 0.8060 0.6716 0.3199
C59 C 0.9115(12) 0.4328(9) 0.3417(7)
H35 H 0.9198 0.4906 0.3545
C60 C 0.9573(12) 0.3635(8) 0.3649(7)
H36 H 0.9926 0.3741 0.3931
C61 C 0.8695(13) 0.3389(10) 0.2714(7)
H37 H 0.8461 0.3322 0.2374
C62 C 0.9157(12) 0.2692(10) 0.2941(6)
H38 H 0.9248 0.2133 0.2752
C63 C 0.370(2) 0.2119(15) 0.4156(14)
H39 H 0.3595 0.2666 0.4359
C64 C 0.302(3) 0.1445(18) 0.4381(15)
H40 H 0.2445 0.1539 0.4695
C65 C 0.394(3) 0.055(4) 0.359(2)
H41 H 0.3971 0.0041 0.3357
C66 C 0.465(3) 0.128(2) 0.3363(19)
H42 H 0.5171 0.1199 0.3016
C67 C 0.1532(14) 1.6488(9) 0.3762(9)
H43 H 0.1102 1.6580 0.4144
C68 C 0.2580(12) 1.7118(8) 0.2874(6)
H44 H 0.2862 1.7628 0.2654
C69 C 0.2614(13) 1.6283(9) 0.2577(7)
H45 H 0.2885 1.6238 0.2162
C70 C 0.153(2) 1.5683(14) 0.3509(10)
H46 H 0.1083 1.5245 0.3704
C71 C 0.167(3) 1.042(3) -0.2753(11)
H47 H 0.1253 1.0843 -0.2503
C72 C 0.158(2) 1.028(3) -0.3283(9)
H48 H 0.1032 1.0569 -0.3382
C73 C 0.276(5) 0.9223(16) -0.2914(16)
H49 H 0.2970 0.8711 -0.2731
C74 C 0.283(3) 0.914(2) -0.3505(13)
H50 H 0.3264 0.8709 -0.3742
O9 O 0.251(3) 1.8747(10) 0.3495(10)
Cd1_2 Cd 1.31679(4) 1.06089(3) 0.098518(18)
Cd2_2 Cd 0.20572(4) -0.04518(3) 0.447613(19)
Cd2_3 Cd 0.20572(4) 0.95482(3) -0.552387(19)
Cd2_4 Cd 1.20572(4) -0.04518(3) 0.447613(19)
O3_2 O 0.1595(4) 2.0247(4) 0.5440(2)
O4_2 O 0.2531(5) 1.9005(4) 0.5321(2)
N1_2 N 0.0948(4) 2.0543(3) 0.4163(2)
N2_2 N 0.3292(5) 2.0582(4) 0.4085(3)
N3_2 N 0.1881(4) 0.9578(4) 0.1400(3)
loop_
_geom_bond_atom_site_label_1
_geom_bond_atom_site_label_2
_geom_bond_site_symmetry_1
_geom_bond_site_symmetry_2
C1 H1 1_555 1_555
Cd1 O1 1_555 1_555
Cd2 O7 1_555 1_555
O1 C24 1_555 1_555
O2 Cd1 1_555 1_555
O3 C44 1_555 1_555
O4 C44 1_555 1_555
O5 Cd1 1_555 1_555
O6 Cd1 1_555 1_555
O7 C46 1_555 1_555
N1 C10 1_555 1_555
N2 C64 1_555 1_555
N3 C17 1_555 1_555
N4 Cd1 1_555 1_555
O8 Cd1 1_555 1_555
H2 O8 1_555 1_555
H3 O8 1_555 1_555
C2 H4 1_555 1_555
C3 C2 1_555 1_555
H5 C3 1_555 1_555
C4 H6 1_555 1_555
C5 C3 1_555 1_555
C6 C5 1_555 1_555
C7 C2 1_555 1_555
C8 C4 1_555 1_555
H7 C8 1_555 1_555
C9 C46 1_555 1_555
C10 H8 1_555 1_555
C11 C10 1_555 1_555
H9 C11 1_555 1_555
C12 C11 1_555 1_555
C13 C12 1_555 1_555
H10 C13 1_555 1_555
C14 N1 1_555 1_555
H11 C14 1_555 1_555
C15 C12 1_555 1_555
C16 C32 1_555 1_555
C17 H12 1_555 1_555
C18 C17 1_555 1_555
H13 C18 1_555 1_555
C19 C18 1_555 1_555
C20 C19 1_555 1_555
H14 C20 1_555 1_555
C21 N3 1_555 1_555
H15 C21 1_555 1_555
C22 C19 1_555 1_555
C23 C1 1_555 1_555
H16 C23 1_555 1_555
C24 O2 1_555 1_555
C25 H17 1_555 1_555
C26 C25 1_555 1_555
H18 C26 1_555 1_555
C27 C24 1_555 1_555
C28 C27 1_555 1_555
H19 C28 1_555 1_555
C29 C28 1_555 1_555
H20 C29 1_555 1_555
C30 C26 1_555 1_555
C31 C30 1_555 1_555
C32 C35 1_555 1_555
C33 H21 1_555 1_555
C34 C33 1_555 1_555
C35 C33 1_555 1_555
H22 C35 1_555 1_555
C36 C34 1_555 1_555
H23 C36 1_555 1_555
C37 C32 1_555 1_555
H24 C37 1_555 1_555
C38 C34 1_555 1_555
C39 C38 1_555 1_555
C40 C39 1_555 1_555
C41 C1 1_555 1_555
C42 H25 1_555 1_555
C43 C38 1_555 1_555
C44 C45 1_555 1_555
C45 C72 1_555 1_555
C46 O9 1_555 1_555
C47 N4 1_555 1_555
H26 C47 1_555 1_555
C48 N4 1_555 1_555
H27 C48 1_555 1_555
C49 C48 1_555 1_555
H28 C49 1_555 1_555
C50 C47 1_555 1_555
H29 C50 1_555 1_555
C51 C49 1_555 1_555
C52 C51 1_555 1_555
C53 C42 1_555 1_555
H30 C53 1_555 1_555
C54 C52 1_555 1_555
H31 C54 1_555 1_555
C55 O5 1_555 1_555
C56 C43 1_555 1_555
H32 C56 1_555 1_555
C57 C22 1_555 1_555
H33 C57 1_555 1_555
C58 C41 1_555 1_555
H34 C58 1_555 1_555
C59 C40 1_555 1_555
H35 C59 1_555 1_555
C60 C15 1_555 1_555
H36 C60 1_555 1_555
C61 C40 1_555 1_555
H37 C61 1_555 1_555
C62 C15 1_555 1_555
H38 C62 1_555 1_555
C63 C16 1_555 1_555
H39 C63 1_555 1_555
C64 C63 1_555 1_555
H40 C64 1_555 1_555
C65 N2 1_555 1_555
H41 C65 1_555 1_555
C66 C16 1_555 1_555
H42 C66 1_555 1_555
C67 C9 1_555 1_555
H43 C67 1_555 1_555
C68 C9 1_555 1_555
H44 C68 1_555 1_555
C69 C6 1_555 1_555
H45 C69 1_555 1_555
C70 C6 1_555 1_555
H46 C70 1_555 1_555
C71 C31 1_555 1_555
H47 C71 1_555 1_555
C72 C71 1_555 1_555
H48 C72 1_555 1_555
C73 C31 1_555 1_555
H49 C73 1_555 1_555
C74 C45 1_555 1_555
H50 C74 1_555 1_555
O9 Cd2 1_555 1_555
Cd1_2 N3 1_555 1_555
Cd2_2 N2 1_555 1_555
Cd2_3 O3 1_555 1_555
Cd2_4 N1 1_555 1_555
O3_2 Cd2 1_555 1_555
O4_2 Cd2 1_555 1_555
N1_2 Cd2 1_555 1_555
N2_2 Cd2 1_555 1_555
N3_2 Cd1 1_555 1_555
O4 Cd2_3 1_555 1_555
O6 C55 1_555 1_555
C4 C5 1_555 1_555
C7 C8 1_555 1_555
C7 C55 1_555 1_555
C13 C14 1_555 1_555
C20 C21 1_555 1_555
C22 C23 1_555 1_555
C25 C27 1_555 1_555
C29 C30 1_555 1_555
C36 C37 1_555 1_555
C39 C41 1_555 1_555
C42 C43 1_555 1_555
C50 C51 1_555 1_555
C52 C53 1_555 1_555
C54 C56 1_555 1_555
C57 C58 1_555 1_555
C59 C60 1_555 1_555
C61 C62 1_555 1_555
C65 C66 1_555 1_555
C67 C70 1_555 1_555
C68 C69 1_555 1_555
C73 C74 1_555 1_555

#END
