
#######################################################################
#
#                 Cambridge Crystallographic Data Centre
#                                CCDC 
#
#######################################################################
#
# If this CIF has been generated from an entry in the Cambridge 
# Structural Database, then it will include bibliographic, chemical, 
# crystal, experimental, refinement or atomic coordinate data resulting 
# from the CCDC's data processing and validation procedures.
#
#######################################################################

data_SARBUK
_chemical_formula_moiety         '(C12 H10 N4 O4 Zn1)n'
_symmetry_cell_setting           orthorhombic
_symmetry_space_group_name_H-M   'F d d d'
_symmetry_Int_Tables_number      70
_space_group_name_Hall           '-F 2uv 2vw'
loop_
_symmetry_equiv_pos_site_id
_symmetry_equiv_pos_as_xyz
1 x,y,z
2 3/4-x,3/4-y,z
3 3/4-x,y,3/4-z
4 x,3/4-y,3/4-z
5 x,1/2+y,1/2+z
6 3/4-x,1/4-y,1/2+z
7 3/4-x,1/2+y,1/4-z
8 x,1/4-y,1/4-z
9 1/2+x,y,1/2+z
10 1/4-x,3/4-y,1/2+z
11 1/4-x,y,1/4-z
12 1/2+x,3/4-y,1/4-z
13 1/2+x,1/2+y,z
14 1/4-x,1/4-y,z
15 1/4-x,1/2+y,3/4-z
16 1/2+x,1/4-y,3/4-z
17 -x,-y,-z
18 1/4+x,1/4+y,-z
19 1/4+x,-y,1/4+z
20 -x,1/4+y,1/4+z
21 -x,1/2-y,1/2-z
22 1/4+x,3/4+y,1/2-z
23 1/4+x,1/2-y,3/4+z
24 -x,3/4+y,3/4+z
25 1/2-x,-y,1/2-z
26 3/4+x,1/4+y,1/2-z
27 3/4+x,-y,3/4+z
28 1/2-x,1/4+y,3/4+z
29 1/2-x,1/2-y,-z
30 3/4+x,3/4+y,-z
31 3/4+x,1/2-y,1/4+z
32 1/2-x,3/4+y,1/4+z
_cell_length_a                   12.7589(13)
_cell_length_b                   22.66(3)
_cell_length_c                   24.053(4)
_cell_angle_alpha                90
_cell_angle_beta                 90
_cell_angle_gamma                90
_cell_volume                     6954.12
loop_
_atom_site_label
_atom_site_type_symbol
_atom_site_fract_x
_atom_site_fract_y
_atom_site_fract_z
Zn1 Zn 0.1250 0.334000(19) -0.3750
O1 O -0.17480(16) 0.16220(11) -0.55904(9)
O2 O -0.02154(15) 0.12108(8) -0.57148(7)
C1 C -0.0563(2) 0.26868(13) -0.43113(12)
C2 C -0.0977(2) 0.23152(15) -0.47195(13)
H1 H -0.1699 0.2296 -0.4770
C3 C -0.0335(2) 0.19806(13) -0.50431(11)
C4 C 0.0748(2) 0.20195(15) -0.49628(12)
H2 H 0.1210 0.1796 -0.5175
C5 C 0.1101(2) 0.23932(14) -0.45653(13)
H3 H 0.1822 0.2416 -0.4510
C6 C -0.0802(2) 0.15791(14) -0.54770(11)
N1 N 0.04814(16) 0.27351(10) -0.42438(9)
N2 N -0.11910(18) 0.30041(15) -0.39808(13)
H4 H -0.0926 0.3232 -0.3732
H5 H -0.1860 0.2980 -0.4017
Zn1W Zn -0.1250 0.084000(19) -0.6250
Zn1Q Zn 0.3750 0.584000(19) -0.6250
O1Q O 0.07520(16) 0.41220(11) -0.44096(9)
O2Q O 0.22846(15) 0.37108(8) -0.42852(7)
O2S O 0.02154(15) 0.37108(8) -0.32148(7)
C1Q C 0.1937(2) 0.51868(13) -0.56887(12)
C2Q C 0.1523(2) 0.48152(15) -0.52805(13)
H1Q H 0.0801 0.4796 -0.5230
C3Q C 0.2165(2) 0.44806(13) -0.49569(11)
C4Q C 0.3248(2) 0.45195(15) -0.50372(12)
H2Q H 0.3710 0.4296 -0.4825
C5Q C 0.3601(2) 0.48932(14) -0.54347(13)
H3Q H 0.4322 0.4916 -0.5490
C6Q C 0.1698(2) 0.40791(14) -0.45230(11)
N1Q N 0.29814(16) 0.52351(10) -0.57562(9)
N1J N 0.20186(16) 0.27351(10) -0.32562(9)
N2Q N 0.13090(18) 0.55041(15) -0.60192(13)
H4Q H 0.1574 0.5732 -0.6268
H5Q H 0.0640 0.5480 -0.5983
loop_
_geom_bond_atom_site_label_1
_geom_bond_atom_site_label_2
_geom_bond_site_symmetry_1
_geom_bond_site_symmetry_2
Zn1 N1 1_555 1_555
O1 C6 1_555 1_555
O2 C6 1_555 1_555
C1 C2 1_555 1_555
C2 H1 1_555 1_555
C3 C2 1_555 1_555
C4 C3 1_555 1_555
H2 C4 1_555 1_555
C5 C4 1_555 1_555
H3 C5 1_555 1_555
C6 C3 1_555 1_555
N1 C1 1_555 1_555
N2 C1 1_555 1_555
H4 N2 1_555 1_555
H5 N2 1_555 1_555
Zn1W O2 1_555 1_555
Zn1Q N1Q 1_555 1_555
O1Q C6Q 1_555 1_555
O2Q Zn1 1_555 1_555
O2S Zn1 1_555 1_555
C1Q C2Q 1_555 1_555
C2Q H1Q 1_555 1_555
C3Q C2Q 1_555 1_555
C4Q C3Q 1_555 1_555
H2Q C4Q 1_555 1_555
C5Q C4Q 1_555 1_555
H3Q C5Q 1_555 1_555
C6Q O2Q 1_555 1_555
N1Q C1Q 1_555 1_555
N1J Zn1 1_555 1_555
N2Q C1Q 1_555 1_555
H4Q N2Q 1_555 1_555
H5Q N2Q 1_555 1_555
C5 N1 1_555 1_555
C3Q C6Q 1_555 1_555
C5Q N1Q 1_555 1_555

#END
