
#######################################################################
#
#                 Cambridge Crystallographic Data Centre
#                                CCDC 
#
#######################################################################
#
# If this CIF has been generated from an entry in the Cambridge 
# Structural Database, then it will include bibliographic, chemical, 
# crystal, experimental, refinement or atomic coordinate data resulting 
# from the CCDC's data processing and validation procedures.
#
#######################################################################

data_SARBOE
_chemical_formula_moiety         '(C12 H10 N4 O4 Zn1)n'
_symmetry_cell_setting           orthorhombic
_symmetry_space_group_name_H-M   'P 21 21 2'
_symmetry_Int_Tables_number      18
_space_group_name_Hall           'P 2 2ab'
loop_
_symmetry_equiv_pos_site_id
_symmetry_equiv_pos_as_xyz
1 x,y,z
2 -x,-y,z
3 1/2-x,1/2+y,-z
4 1/2+x,1/2-y,-z
_cell_length_a                   14.3885(5)
_cell_length_b                   15.4745(6)
_cell_length_c                   8.4241(3)
_cell_angle_alpha                90
_cell_angle_beta                 90
_cell_angle_gamma                90
_cell_volume                     1875.67
loop_
_atom_site_label
_atom_site_type_symbol
_atom_site_fract_x
_atom_site_fract_y
_atom_site_fract_z
_atom_site_U_iso_or_equiv
_atom_site_thermal_displace_type
Zn1 Zn 0.24968(4) 1.18986(3) 0.21275(5) 0.0274 Uani
O1 O 0.0471(3) 1.2435(4) 0.1448(4) 0.0810 Uani
O2 O 0.1428(2) 1.2134(3) 0.3435(4) 0.0505 Uani
O3 O 0.2226(2) 0.7659(2) -0.0385(4) 0.0442 Uani
O4 O 0.3279(3) 0.7475(2) 0.1527(4) 0.0464 Uani
C1 C -0.0575(3) 1.2690(4) 0.6803(6) 0.0360 Uani
C2 C 0.0126(3) 1.2542(3) 0.5657(5) 0.0290 Uani
H1 H 0.0734 1.2448 0.5986 0.0350 Uiso
C3 C -0.0078(3) 1.2535(4) 0.4081(5) 0.0387 Uani
C4 C -0.1002(3) 1.2666(4) 0.3614(6) 0.0450 Uani
H2 H -0.1163 1.2659 0.2545 0.0540 Uiso
C5 C -0.1669(3) 1.2805(4) 0.4761(5) 0.0447 Uani
H3 H -0.2284 1.2880 0.4449 0.0540 Uiso
C6 C 0.0662(3) 1.2351(4) 0.2897(6) 0.0380 Uani
C7 C 0.1959(4) 1.0241(3) 0.0551(5) 0.0377 Uani
C8 C 0.2019(3) 0.9360(3) 0.0299(5) 0.0357 Uani
H4 H 0.1613 0.9092 -0.0406 0.0430 Uiso
C9 C 0.2674(3) 0.8882(3) 0.1083(5) 0.0313 Uani
C10 C 0.3293(4) 0.9293(3) 0.2077(6) 0.0430 Uani
H5 H 0.3752 0.8984 0.2609 0.0510 Uiso
C11 C 0.3213(4) 1.0151(3) 0.2254(6) 0.0410 Uani
H6 H 0.3641 1.0428 0.2908 0.0490 Uiso
C12 C 0.2755(3) 0.7916(3) 0.0772(5) 0.0343 Uani
N1 N -0.1456(3) 1.2836(3) 0.6342(4) 0.0311 Uani
N2 N -0.0370(3) 1.2682(4) 0.8324(5) 0.0517 Uani
H7 H -0.0799 1.2770 0.9018 0.0620 Uiso
H8 H 0.0192 1.2589 0.8626 0.0620 Uiso
N3 N 0.2570(3) 1.0631(2) 0.1565(4) 0.0321 Uani
N4 N 0.1322(3) 1.0712(3) -0.0166(5) 0.0633 Uani
H9 H 0.1294 1.1259 0.0007 0.0760 Uiso
H10 H 0.0934 1.0473 -0.0806 0.0760 Uiso
Zn1B Zn 0.25032(4) 0.68986(3) -0.21275(5) 0.0274 Uani
Zn1C Zn -0.25032(4) 1.31014(3) 0.78725(5) 0.0274 Uani
O3B O 0.2774(2) 1.2659(2) 0.0385(4) 0.0442 Uani
N1C N 0.3544(3) 1.2164(3) 0.3658(4) 0.0311 Uani
loop_
_atom_site_aniso_label
_atom_site_aniso_U_11
_atom_site_aniso_U_22
_atom_site_aniso_U_33
_atom_site_aniso_U_23
_atom_site_aniso_U_13
_atom_site_aniso_U_12
Zn1 0.0201(2) 0.0364(3) 0.0257(3) -0.00241(19) -0.0011(3) 0.0017(4)
O1 0.066(3) 0.161(6) 0.0161(18) -0.022(3) 0.0096(18) 0.036(3)
O2 0.026(2) 0.088(3) 0.0374(19) -0.015(2) 0.0065(16) 0.011(2)
O3 0.030(2) 0.057(2) 0.0456(18) -0.0207(18) -0.0123(14) 0.0032(17)
O4 0.040(2) 0.049(2) 0.0502(19) 0.0015(18) -0.0121(17) 0.0033(19)
C1 0.023(3) 0.048(3) 0.037(3) -0.012(3) 0.007(2) -0.007(3)
C2 0.017(2) 0.046(4) 0.024(2) -0.008(3) 0.0029(19) 0.005(2)
C3 0.022(3) 0.055(4) 0.039(3) 0.006(3) -0.002(2) 0.000(3)
C4 0.024(2) 0.082(4) 0.029(2) -0.005(3) 0.001(2) 0.004(3)
C5 0.023(2) 0.084(4) 0.027(2) -0.013(3) -0.0003(19) 0.002(3)
C6 0.025(3) 0.063(4) 0.026(3) -0.005(3) 0.000(2) 0.008(3)
C7 0.045(3) 0.035(3) 0.033(3) -0.006(2) -0.007(2) -0.003(2)
C8 0.028(2) 0.050(3) 0.029(2) 0.001(2) -0.008(2) -0.007(2)
C9 0.025(3) 0.043(2) 0.026(2) -0.0027(19) -0.0011(19) 0.003(2)
C10 0.038(3) 0.050(3) 0.041(3) -0.009(3) -0.017(2) 0.011(3)
C11 0.040(3) 0.034(3) 0.049(3) -0.002(2) -0.015(3) 0.004(2)
C12 0.026(3) 0.042(3) 0.035(2) 0.000(2) 0.008(2) -0.003(2)
N1 0.020(2) 0.052(3) 0.0213(18) 0.0026(19) -0.0041(16) -0.003(2)
N2 0.016(2) 0.103(4) 0.036(2) 0.007(3) -0.0107(17) 0.004(3)
N3 0.0239(18) 0.0380(18) 0.0345(17) -0.0030(15) -0.007(2) -0.007(2)
N4 0.059(3) 0.055(3) 0.076(4) -0.016(3) -0.046(3) 0.002(3)
Zn1B 0.0201 0.0364 0.0257 0.00241 -0.0011 -0.0017
Zn1C 0.0201 0.0364 0.0257 -0.00241 0.0011 -0.0017
O3B 0.03 0.057 0.0456 0.0207 -0.0123 -0.0032
N1C 0.02 0.052 0.0213 0.0026 0.0041 0.003
loop_
_geom_bond_atom_site_label_1
_geom_bond_atom_site_label_2
_geom_bond_site_symmetry_1
_geom_bond_site_symmetry_2
Zn1 O2 1_555 1_555
O1 C6 1_555 1_555
O2 C6 1_555 1_555
O3 C12 1_555 1_555
O4 C12 1_555 1_555
C1 C2 1_555 1_555
C2 H1 1_555 1_555
C3 C2 1_555 1_555
C4 C3 1_555 1_555
H2 C4 1_555 1_555
C5 C4 1_555 1_555
H3 C5 1_555 1_555
C6 C3 1_555 1_555
C7 C8 1_555 1_555
C8 H4 1_555 1_555
C9 C8 1_555 1_555
C10 C9 1_555 1_555
H5 C10 1_555 1_555
C11 C10 1_555 1_555
H6 C11 1_555 1_555
C12 C9 1_555 1_555
N1 C1 1_555 1_555
N2 C1 1_555 1_555
H7 N2 1_555 1_555
H8 N2 1_555 1_555
N3 Zn1 1_555 1_555
N4 C7 1_555 1_555
H9 N4 1_555 1_555
H10 N4 1_555 1_555
Zn1B O3 1_555 1_555
Zn1C N1 1_555 1_555
O3B Zn1 1_555 1_555
N1C Zn1 1_555 1_555
C5 N1 1_555 1_555
C7 N3 1_555 1_555
C11 N3 1_555 1_555

#END
