
#######################################################################
#
#                 Cambridge Crystallographic Data Centre
#                                CCDC 
#
#######################################################################
#
# If this CIF has been generated from an entry in the Cambridge 
# Structural Database, then it will include bibliographic, chemical, 
# crystal, experimental, refinement or atomic coordinate data resulting 
# from the CCDC's data processing and validation procedures.
#
#######################################################################

data_YIKJUZ
_chemical_formula_moiety         '(C8 H8 Ag2 Cl1 N12 O4 1+)n'
_symmetry_cell_setting           cubic
_symmetry_space_group_name_H-M   'F d -3 c'
_symmetry_Int_Tables_number      228
_space_group_name_Hall           '-F 4ud 2vw 3'
loop_
_symmetry_equiv_pos_site_id
_symmetry_equiv_pos_as_xyz
1 x,y,z
2 -y,1/4+x,3/4+z
3 1/4-x,1/4-y,z
4 1/4+y,-x,3/4+z
5 1/4+x,-z,3/4+y
6 x,1/4-y,1/4-z
7 1/4+x,3/4+z,-y
8 1/4+z,3/4+y,-x
9 1/4-x,y,1/4-z
10 -z,1/4+y,3/4+x
11 z,x,y
12 y,z,x
13 1/4-y,1/4-z,x
14 z,1/4-x,1/4-y
15 1/4-y,z,1/4-x
16 1/4-z,1/4-x,y
17 1/4-z,x,1/4-y
18 y,1/4-z,1/4-x
19 1/4+y,3/4+x,-z
20 -y,-x,1/2-z
21 -x,1/4+z,3/4+y
22 -x,-z,1/2-y
23 1/4+z,-y,3/4+x
24 -z,-y,1/2-x
25 x,1/2+y,1/2+z
26 -y,3/4+x,1/4+z
27 1/4-x,3/4-y,1/2+z
28 1/4+y,1/2-x,1/4+z
29 1/4+x,1/2-z,1/4+y
30 x,3/4-y,3/4-z
31 1/4+x,1/4+z,1/2-y
32 1/4+z,1/4+y,1/2-x
33 1/4-x,1/2+y,3/4-z
34 -z,3/4+y,1/4+x
35 z,1/2+x,1/2+y
36 y,1/2+z,1/2+x
37 1/4-y,3/4-z,1/2+x
38 z,3/4-x,3/4-y
39 1/4-y,1/2+z,3/4-x
40 1/4-z,3/4-x,1/2+y
41 1/4-z,1/2+x,3/4-y
42 y,3/4-z,3/4-x
43 1/4+y,1/4+x,1/2-z
44 -y,1/2-x,-z
45 -x,3/4+z,1/4+y
46 -x,1/2-z,-y
47 1/4+z,1/2-y,1/4+x
48 -z,1/2-y,-x
49 1/2+x,y,1/2+z
50 1/2-y,1/4+x,1/4+z
51 3/4-x,1/4-y,1/2+z
52 3/4+y,-x,1/4+z
53 3/4+x,-z,1/4+y
54 1/2+x,1/4-y,3/4-z
55 3/4+x,3/4+z,1/2-y
56 3/4+z,3/4+y,1/2-x
57 3/4-x,y,3/4-z
58 1/2-z,1/4+y,1/4+x
59 1/2+z,x,1/2+y
60 1/2+y,z,1/2+x
61 3/4-y,1/4-z,1/2+x
62 1/2+z,1/4-x,3/4-y
63 3/4-y,z,3/4-x
64 3/4-z,1/4-x,1/2+y
65 3/4-z,x,3/4-y
66 1/2+y,1/4-z,3/4-x
67 3/4+y,3/4+x,1/2-z
68 1/2-y,-x,-z
69 1/2-x,1/4+z,1/4+y
70 1/2-x,-z,-y
71 3/4+z,-y,1/4+x
72 1/2-z,-y,-x
73 1/2+x,1/2+y,z
74 1/2-y,3/4+x,3/4+z
75 3/4-x,3/4-y,z
76 3/4+y,1/2-x,3/4+z
77 3/4+x,1/2-z,3/4+y
78 1/2+x,3/4-y,1/4-z
79 3/4+x,1/4+z,-y
80 3/4+z,1/4+y,-x
81 3/4-x,1/2+y,1/4-z
82 1/2-z,3/4+y,3/4+x
83 1/2+z,1/2+x,y
84 1/2+y,1/2+z,x
85 3/4-y,3/4-z,x
86 1/2+z,3/4-x,1/4-y
87 3/4-y,1/2+z,1/4-x
88 3/4-z,3/4-x,y
89 3/4-z,1/2+x,1/4-y
90 1/2+y,3/4-z,1/4-x
91 3/4+y,1/4+x,-z
92 1/2-y,1/2-x,1/2-z
93 1/2-x,3/4+z,3/4+y
94 1/2-x,1/2-z,1/2-y
95 3/4+z,1/2-y,3/4+x
96 1/2-z,1/2-y,1/2-x
97 -x,-y,-z
98 y,3/4-x,1/4-z
99 3/4+x,3/4+y,-z
100 3/4-y,x,1/4-z
101 3/4-x,z,1/4-y
102 -x,3/4+y,3/4+z
103 3/4-x,1/4-z,y
104 3/4-z,1/4-y,x
105 3/4+x,-y,3/4+z
106 z,3/4-y,1/4-x
107 -z,-x,-y
108 -y,-z,-x
109 3/4+y,3/4+z,-x
110 -z,3/4+x,3/4+y
111 3/4+y,-z,3/4+x
112 3/4+z,3/4+x,-y
113 3/4+z,-x,3/4+y
114 -y,3/4+z,3/4+x
115 3/4-y,1/4-x,z
116 y,x,1/2+z
117 x,3/4-z,1/4-y
118 x,z,1/2+y
119 3/4-z,y,1/4-x
120 z,y,1/2+x
121 -x,1/2-y,1/2-z
122 y,1/4-x,3/4-z
123 3/4+x,1/4+y,1/2-z
124 3/4-y,1/2+x,3/4-z
125 3/4-x,1/2+z,3/4-y
126 -x,1/4+y,1/4+z
127 3/4-x,3/4-z,1/2+y
128 3/4-z,3/4-y,1/2+x
129 3/4+x,1/2-y,1/4+z
130 z,1/4-y,3/4-x
131 -z,1/2-x,1/2-y
132 -y,1/2-z,1/2-x
133 3/4+y,1/4+z,1/2-x
134 -z,1/4+x,1/4+y
135 3/4+y,1/2-z,1/4+x
136 3/4+z,1/4+x,1/2-y
137 3/4+z,1/2-x,1/4+y
138 -y,1/4+z,1/4+x
139 3/4-y,3/4-x,1/2+z
140 y,1/2+x,z
141 x,1/4-z,3/4-y
142 x,1/2+z,y
143 3/4-z,1/2+y,3/4-x
144 z,1/2+y,x
145 1/2-x,-y,1/2-z
146 1/2+y,3/4-x,3/4-z
147 1/4+x,3/4+y,1/2-z
148 1/4-y,x,3/4-z
149 1/4-x,z,3/4-y
150 1/2-x,3/4+y,1/4+z
151 1/4-x,1/4-z,1/2+y
152 1/4-z,1/4-y,1/2+x
153 1/4+x,-y,1/4+z
154 1/2+z,3/4-y,3/4-x
155 1/2-z,-x,1/2-y
156 1/2-y,-z,1/2-x
157 1/4+y,3/4+z,1/2-x
158 1/2-z,3/4+x,1/4+y
159 1/4+y,-z,1/4+x
160 1/4+z,3/4+x,1/2-y
161 1/4+z,-x,1/4+y
162 1/2-y,3/4+z,1/4+x
163 1/4-y,1/4-x,1/2+z
164 1/2+y,x,z
165 1/2+x,3/4-z,3/4-y
166 1/2+x,z,y
167 1/4-z,y,3/4-x
168 1/2+z,y,x
169 1/2-x,1/2-y,-z
170 1/2+y,1/4-x,1/4-z
171 1/4+x,1/4+y,-z
172 1/4-y,1/2+x,1/4-z
173 1/4-x,1/2+z,1/4-y
174 1/2-x,1/4+y,3/4+z
175 1/4-x,3/4-z,y
176 1/4-z,3/4-y,x
177 1/4+x,1/2-y,3/4+z
178 1/2+z,1/4-y,1/4-x
179 1/2-z,1/2-x,-y
180 1/2-y,1/2-z,-x
181 1/4+y,1/4+z,-x
182 1/2-z,1/4+x,3/4+y
183 1/4+y,1/2-z,3/4+x
184 1/4+z,1/4+x,-y
185 1/4+z,1/2-x,3/4+y
186 1/2-y,1/4+z,3/4+x
187 1/4-y,3/4-x,z
188 1/2+y,1/2+x,1/2+z
189 1/2+x,1/4-z,1/4-y
190 1/2+x,1/2+z,1/2+y
191 1/4-z,1/2+y,1/4-x
192 1/2+z,1/2+y,1/2+x
_cell_length_a                   49.8724(6)
_cell_length_b                   49.8724(6)
_cell_length_c                   49.8724(6)
_cell_angle_alpha                90
_cell_angle_beta                 90
_cell_angle_gamma                90
_cell_volume                     124045
loop_
_atom_site_label
_atom_site_type_symbol
_atom_site_fract_x
_atom_site_fract_y
_atom_site_fract_z
_atom_site_U_iso_or_equiv
_atom_site_thermal_displace_type
Cl1 Cl 0.18048(6) 0.87850(7) -0.02425(5) 0.1483 Uani
O1 O 0.15355(6) 0.86811(7) -0.02451(5) 0.1700 Uiso
O2 O 0.19862(6) 0.85838(7) -0.03422(5) 0.2790 Uiso
O3 O 0.18785(6) 0.88551(7) 0.00276(5) 0.1560 Uiso
O4 O 0.18195(8) 0.90193(8) -0.04104(7) 0.4000 Uiso
Ag1 Ag 0.099505(10) 0.807872(9) 0.023765(9) 0.0539 Uani
Ag2 Ag 0.126996(9) 0.779133(10) 0.086868(9) 0.0545 Uani
N1 N 0.13643(11) 0.82880(11) 0.04704(11) 0.0607 Uani
N2 N 0.14497(11) 0.81692(10) 0.07076(11) 0.0593 Uani
N3 N 0.16988(10) 0.85145(10) 0.06234(10) 0.0547 Uani
N4 N 0.18959(10) 0.87079(10) 0.06472(11) 0.0547 Uani
N5 N 0.20997(10) 0.90771(11) 0.07386(11) 0.0590 Uani
N6 N 0.22794(9) 0.89045(10) 0.06214(10) 0.0520 Uani
N7 N 0.10804(12) 0.76338(10) 0.02574(10) 0.0567 Uani
N8 N 0.11643(13) 0.75094(10) 0.04879(10) 0.0633 Uani
N9 N 0.11634(11) 0.72203(9) 0.01776(11) 0.0560 Uani
N10 N 0.11913(10) 0.69732(10) 0.00451(12) 0.0570 Uani
N11 N 0.13632(11) 0.66269(10) -0.01461(13) 0.0640 Uani
N12 N 0.10903(10) 0.66034(9) -0.01515(12) 0.0570 Uani
C1 C 0.15155(14) 0.84908(13) 0.04238(13) 0.0607 Uani
H1 H 0.1501 0.8606 0.0273 0.0730 Uiso
C2 C 0.16510(14) 0.83153(14) 0.07989(14) 0.0683 Uani
H2 H 0.1746 0.8285 0.0961 0.0820 Uiso
C3 C 0.18716(12) 0.89559(13) 0.07554(13) 0.0563 Uani
H3 H 0.1713 0.9029 0.0831 0.0680 Uiso
C4 C 0.21504(13) 0.86897(13) 0.05605(15) 0.0617 Uani
H4 H 0.2224 0.8540 0.0468 0.0740 Uiso
C5 C 0.10854(13) 0.74481(11) 0.00698(13) 0.0580 Uani
H5 H 0.1040 0.7474 -0.0113 0.0690 Uiso
C6 C 0.12085(16) 0.72661(13) 0.04389(14) 0.0657 Uani
H6 H 0.1265 0.7136 0.0566 0.0790 Uiso
C7 C 0.14164(15) 0.68479(14) -0.00249(15) 0.0680 Uani
H7 H 0.1592 0.6913 0.0010 0.0810 Uiso
C8 C 0.09881(6) 0.68117(7) -0.00323(5) 0.0653 Uani
H8 H 0.0803 0.6845 -0.0005 0.0790 Uiso
Ag1DF Ag 0.273765(9) 0.900495(10) 0.057872(9) 0.0539 Uani
Ag1SF Ag 0.226235(9) 0.942128(9) 0.099505(10) 0.0539 Uani
Ag2KA Ag 0.086868(9) 0.623004(9) -0.029133(10) 0.0545 Uani
Ag2NA Ag 0.163132(9) 0.626996(9) -0.029133(10) 0.0545 Uani
N5AD N 0.07386(11) 0.84229(11) 0.04003(10) 0.0590 Uani
N6ID N 0.10955(10) 0.81214(10) -0.02206(9) 0.0520 Uani
N11KC N 0.16269(10) 0.76461(13) 0.11368(11) 0.0640 Uani
N12FC N 0.08966(9) 0.76515(12) 0.10903(10) 0.0570 Uani
loop_
_atom_site_aniso_label
_atom_site_aniso_U_11
_atom_site_aniso_U_22
_atom_site_aniso_U_33
_atom_site_aniso_U_23
_atom_site_aniso_U_13
_atom_site_aniso_U_12
Cl1 0.0975(19) 0.269(5) 0.0785(17) -0.011(2) 0.0036(14) -0.001(2)
Ag1 0.0709(3) 0.0430(3) 0.0477(3) -0.00858(17) -0.0061(2) 0.0093(2)
Ag2 0.0495(3) 0.0622(3) 0.0519(3) 0.0084(2) -0.00548(19) -0.0157(2)
N1 0.057(3) 0.058(3) 0.067(3) 0.013(2) -0.026(3) -0.021(3)
N2 0.065(3) 0.055(3) 0.058(3) 0.006(2) -0.014(2) -0.025(2)
N3 0.050(3) 0.053(3) 0.061(3) 0.002(2) -0.004(2) -0.020(2)
N4 0.055(3) 0.052(3) 0.057(3) -0.005(2) 0.002(2) -0.018(2)
N5 0.050(3) 0.056(3) 0.071(3) -0.016(2) 0.009(2) -0.012(2)
N6 0.043(3) 0.052(3) 0.061(3) -0.016(2) 0.005(2) -0.012(2)
N7 0.086(4) 0.037(2) 0.047(3) -0.003(2) -0.006(2) 0.001(2)
N8 0.106(4) 0.036(2) 0.048(3) -0.001(2) -0.015(3) -0.003(3)
N9 0.075(3) 0.030(2) 0.063(3) -0.013(2) 0.001(3) 0.003(2)
N10 0.056(3) 0.039(2) 0.076(3) -0.024(2) 0.005(2) -0.001(2)
N11 0.058(3) 0.041(3) 0.093(4) -0.018(3) 0.005(3) 0.002(2)
N12 0.053(3) 0.033(2) 0.085(4) -0.018(2) 0.008(3) 0.001(2)
C1 0.066(4) 0.059(4) 0.057(3) 0.009(3) -0.017(3) -0.020(3)
C2 0.066(4) 0.071(4) 0.068(4) 0.018(3) -0.020(3) -0.030(3)
C3 0.047(3) 0.055(3) 0.067(4) -0.013(3) 0.010(3) -0.014(3)
C4 0.044(3) 0.054(3) 0.087(5) -0.015(3) 0.008(3) -0.009(3)
C5 0.079(4) 0.042(3) 0.053(3) -0.009(2) -0.005(3) 0.002(3)
C6 0.093(5) 0.047(3) 0.057(4) -0.005(3) -0.003(3) 0.012(3)
C7 0.061(4) 0.063(4) 0.080(5) -0.013(3) -0.001(3) -0.001(3)
C8 0.052(3) 0.046(3) 0.098(5) -0.028(3) 0.005(3) 0.002(3)
Ag1DF 0.0477 0.0709 0.043 -0.0093 -0.00858 0.0061
Ag1SF 0.0477 0.043 0.0709 -0.0093 0.0061 -0.00858
Ag2KA 0.0519 0.0495 0.0622 -0.0157 -0.0084 0.00548
Ag2NA 0.0519 0.0495 0.0622 0.0157 0.0084 0.00548
N5AD 0.071 0.056 0.05 -0.012 -0.009 0.016
N6ID 0.052 0.061 0.043 0.005 0.012 0.016
N11KC 0.041 0.093 0.058 0.005 -0.002 0.018
N12FC 0.033 0.085 0.053 -0.008 -0.001 -0.018
loop_
_geom_bond_atom_site_label_1
_geom_bond_atom_site_label_2
_geom_bond_site_symmetry_1
_geom_bond_site_symmetry_2
Ag1 N1 1_555 1_555
Ag2 N2 1_555 1_555
N1 N2 1_555 1_555
N2 C2 1_555 1_555
N3 N4 1_555 1_555
N4 C3 1_555 1_555
N5 N6 1_555 1_555
N6 C4 1_555 1_555
N7 Ag1 1_555 1_555
N8 Ag2 1_555 1_555
N9 N10 1_555 1_555
N10 C7 1_555 1_555
N11 N12 1_555 1_555
N12 C8 1_555 1_555
C1 N1 1_555 1_555
H1 C1 1_555 1_555
C2 N3 1_555 1_555
H2 C2 1_555 1_555
C3 N5 1_555 1_555
H3 C3 1_555 1_555
C4 N4 1_555 1_555
H4 C4 1_555 1_555
C5 N7 1_555 1_555
H5 C5 1_555 1_555
C6 N8 1_555 1_555
H6 C6 1_555 1_555
C7 N11 1_555 1_555
H7 C7 1_555 1_555
C8 N10 1_555 1_555
H8 C8 1_555 1_555
Cl1 O1 1_555 1_555
O2 Cl1 1_555 1_555
O3 Cl1 1_555 1_555
O4 Cl1 1_555 1_555
Ag1DF N6 1_555 1_555
Ag1SF N5 1_555 1_555
Ag2KA N12 1_555 1_555
Ag2NA N11 1_555 1_555
N5AD Ag1 1_555 1_555
N6ID Ag1 1_555 1_555
N11KC Ag2 1_555 1_555
N12FC Ag2 1_555 1_555
N3 C1 1_555 1_555
N7 N8 1_555 1_555
N9 C5 1_555 1_555
N9 C6 1_555 1_555

#END
