
#######################################################################
#
#                 Cambridge Crystallographic Data Centre
#                                CCDC 
#
#######################################################################
#
# If this CIF has been generated from an entry in the Cambridge 
# Structural Database, then it will include bibliographic, chemical, 
# crystal, experimental, refinement or atomic coordinate data resulting 
# from the CCDC's data processing and validation procedures.
#
#######################################################################

data_ELOGUJ
_chemical_formula_moiety         '(C36 H42 Co2 N12 O46 V1 W12)n'
_symmetry_cell_setting           orthorhombic
_symmetry_space_group_name_H-M   'P n m a'
_symmetry_Int_Tables_number      62
_space_group_name_Hall           '-P 2ac 2n'
loop_
_symmetry_equiv_pos_site_id
_symmetry_equiv_pos_as_xyz
1 x,y,z
2 1/2-x,-y,1/2+z
3 1/2+x,1/2-y,1/2-z
4 -x,1/2+y,-z
5 -x,-y,-z
6 1/2+x,y,1/2-z
7 1/2-x,1/2+y,1/2+z
8 x,1/2-y,z
_cell_length_a                   26.867(5)
_cell_length_b                   20.084(5)
_cell_length_c                   13.099(5)
_cell_angle_alpha                90
_cell_angle_beta                 90
_cell_angle_gamma                90
_cell_volume                     7068.18
loop_
_atom_site_label
_atom_site_type_symbol
_atom_site_fract_x
_atom_site_fract_y
_atom_site_fract_z
W1 W 0.65363(2) 0.16622(3) 0.52874(5)
W2 W 0.65380(4) 0.2500 0.75134(7)
W3 W 0.86842(4) 0.2500 0.44110(7)
W4 W 0.76624(3) 0.16667(4) 0.36822(5)
W5 W 0.86864(2) 0.34216(3) 0.68514(5)
W6 W 0.76589(3) 0.07493(3) 0.61145(5)
W7 W 0.76670(3) 0.15837(4) 0.83299(5)
V1 V 0.76358(16) 0.2500 0.6034(3)
Co1 Co 0.74025(14) -0.10955(19) 0.6069(2)
O1 O 0.8761(5) 0.2500 0.7193(11)
O2 O 0.7552(6) 0.2500 0.2981(13)
O3 O 0.8372(4) 0.1837(6) 0.3595(9)
O4 O 0.6269(4) 0.1828(6) 0.6632(8)
O5 O 0.7010(4) 0.1850(6) 0.7992(8)
O6 O 0.7557(4) 0.0780(6) 0.7568(10)
O7 O 0.7021(6) 0.2500 0.6030(11)
O8 O 0.8762(4) 0.3174(5) 0.5438(8)
O9 O 0.7594(4) 0.1132(6) 0.2676(9)
O10 O 0.6097(4) 0.1130(6) 0.4802(9)
O11 O 0.6992(4) 0.1060(5) 0.5953(8)
O12 O 0.7784(4) 0.1060(5) 0.4772(8)
O13 O 0.7833(4) 0.3158(5) 0.6620(8)
O14 O 0.8371(4) 0.3549(6) 0.8146(8)
O15 O 0.6994(4) 0.1706(6) 0.4196(9)
O16 O 0.9262(7) 0.2500 0.3881(14)
O17 O 0.9264(4) 0.3724(6) 0.7118(10)
O18 O 0.6261(5) 0.2500 0.4880(11)
O19 O 0.8364(4) 0.4218(5) 0.6384(9)
O20 O 0.7789(6) 0.2500 0.8582(12)
O21 O 0.7579(4) -0.0088(6) 0.5933(10)
O22 O 0.7846(5) 0.2500 0.4866(11)
O23 O 0.6116(7) 0.2500 0.8480(14)
N1 N 0.8197(8) -0.1224(11) 0.6114(14)
N2 N 0.9003(7) -0.1159(9) 0.6538(14)
N3 N 1.0801(7) -0.0704(9) 0.8598(13)
C1 C 1.0276(9) -0.1415(12) 0.756(2)
H1 H 1.0527 -0.1732 0.7506
C2 C 1.0901(11) -0.0311(12) 0.944(2)
H2 H 1.0672 -0.0055 0.9804
C3 C 1.0352(8) -0.0826(11) 0.8098(18)
C4 C 0.9446(9) -0.1047(11) 0.7073(16)
C5 C 0.8951(9) -0.1561(13) 0.5624(17)
H3 H 0.9205 -0.1773 0.5266
C6 C 0.8477(9) -0.1565(12) 0.5405(16)
H4 H 0.8344 -0.1775 0.4834
C7 C 0.8528(9) -0.0977(13) 0.676(2)
H5 H 0.8444 -0.0707 0.7316
C8 C 0.9800(9) -0.1515(13) 0.711(2)
H6 H 0.9731 -0.1929 0.6822
C9 C 0.9524(9) -0.0434(12) 0.7523(19)
H7 H 0.9288 -0.0096 0.7475
C10 C 1.1381(10) -0.0367(11) 0.9647(16)
H8 H 1.1546 -0.0138 1.0163
C11 C 0.9971(9) -0.0340(14) 0.806(2)
H9 H 1.0020 0.0060 0.8396
C12 C 1.1264(9) -0.0994(13) 0.8323(17)
H10 H 1.1316 -0.1267 0.7761
N4 N 1.1607(7) -0.0820(10) 0.8978(13)
O24 O 0.7590(5) 0.1281(7) 0.9539(9)
W1G W 0.65363(2) 0.33378(3) 0.52874(5)
W4G W 0.76624(3) 0.33333(4) 0.36822(5)
W5G W 0.86864(2) 0.15784(3) 0.68514(5)
W6G W 0.76589(3) 0.42507(3) 0.61145(5)
W7G W 0.76670(3) 0.34163(4) 0.83299(5)
Co1G Co 0.74025(14) 0.60955(19) 0.6069(2)
O3G O 0.8372(4) 0.3163(6) 0.3595(9)
O4G O 0.6269(4) 0.3172(6) 0.6632(8)
O5G O 0.7010(4) 0.3150(6) 0.7992(8)
O6G O 0.7557(4) 0.4220(6) 0.7568(10)
O8G O 0.8762(4) 0.1826(5) 0.5438(8)
O9G O 0.7594(4) 0.3868(6) 0.2676(9)
O10G O 0.6097(4) 0.3870(6) 0.4802(9)
O11G O 0.6992(4) 0.3940(5) 0.5953(8)
O12G O 0.7784(4) 0.3940(5) 0.4772(8)
O13G O 0.7833(4) 0.1842(5) 0.6620(8)
O14G O 0.8371(4) 0.1451(6) 0.8146(8)
O15G O 0.6994(4) 0.3294(6) 0.4196(9)
O17G O 0.9264(4) 0.1276(6) 0.7118(10)
O19G O 0.8364(4) 0.0782(5) 0.6384(9)
O21G O 0.7579(4) 0.5088(6) 0.5933(10)
N1G N 0.8197(8) 0.6224(11) 0.6114(14)
N2G N 0.9003(7) 0.6159(9) 0.6538(14)
N3G N 1.0801(7) 0.5704(9) 0.8598(13)
C1G C 1.0276(9) 0.6415(12) 0.756(2)
H1G H 1.0527 0.6732 0.7506
C2G C 1.0901(11) 0.5311(12) 0.944(2)
H2G H 1.0672 0.5055 0.9804
C3G C 1.0352(8) 0.5826(11) 0.8098(18)
C4G C 0.9446(9) 0.6047(11) 0.7073(16)
C5G C 0.8951(9) 0.6561(13) 0.5624(17)
H3G H 0.9205 0.6773 0.5266
C6G C 0.8477(9) 0.6565(12) 0.5405(16)
H4G H 0.8344 0.6775 0.4834
C7G C 0.8528(9) 0.5977(13) 0.676(2)
H5G H 0.8444 0.5707 0.7316
C8G C 0.9800(9) 0.6515(13) 0.711(2)
H6G H 0.9731 0.6929 0.6822
C9G C 0.9524(9) 0.5434(12) 0.7523(19)
H7G H 0.9288 0.5096 0.7475
C10G C 1.1381(10) 0.5367(11) 0.9647(16)
H8G H 1.1546 0.5138 1.0163
C11G C 0.9971(9) 0.5340(14) 0.806(2)
H9G H 1.0020 0.4940 0.8396
C12G C 1.1264(9) 0.5994(13) 0.8323(17)
H10G H 1.1316 0.6267 0.7761
N4G N 1.1607(7) 0.5820(10) 0.8978(13)
O24G O 0.7590(5) 0.3719(7) 0.9539(9)
Co1A Co 0.75975(14) 0.10955(19) 0.1069(2)
Co1A_2 Co 0.75975(14) 0.10955(19) 1.1069(2)
Co1B Co 1.24025(14) 0.60955(19) 0.8931(2)
Co1E Co 1.24025(14) -0.10955(19) 0.8931(2)
Co1F Co 0.75975(14) 0.39045(19) 0.1069(2)
Co1F_2 Co 0.75975(14) 0.39045(19) 1.1069(2)
O9A O 0.7406(4) -0.1132(6) 0.7676(9)
O9F O 0.7406(4) 0.6132(6) 0.7676(9)
N4B N 0.6607(7) 0.5820(10) 0.6022(13)
N4E N 0.6607(7) -0.0820(10) 0.6022(13)
O24A O 0.7410(5) -0.1281(7) 0.4539(9)
O24F O 0.7410(5) 0.6281(7) 0.4539(9)
N5 N 0.5894(5) 0.0183(7) 0.8920(10)
C13 C 0.5981(7) 0.0625(10) 0.8164(14)
H11 H 0.5747 0.0915 0.7891
C14 C 0.6677(7) 0.0079(10) 0.8448(17)
H12 H 0.7002 -0.0073 0.8390
N6 N 0.6457(5) 0.0582(8) 0.7868(13)
C15 C 0.5433(6) 0.0090(9) 0.9474(13)
C16 C 0.6332(7) -0.0144(11) 0.9105(15)
H13 H 0.6382 -0.0466 0.9604
C17 C 0.5101(7) 0.0603(11) 0.9529(16)
H14 H 0.5171 0.1009 0.9219
C18 C 0.5347(7) -0.0507(10) 0.9939(16)
H15 H 0.5582 -0.0847 0.9905
N5D N 0.4106(5) -0.0183(7) 1.1080(10)
C13D C 0.4019(7) -0.0625(10) 1.1836(14)
H11D H 0.4253 -0.0915 1.2109
C14D C 0.3323(7) -0.0079(10) 1.1552(17)
H12D H 0.2998 0.0073 1.1610
N6D N 0.3543(5) -0.0582(8) 1.2132(13)
C15D C 0.4567(6) -0.0090(9) 1.0526(13)
C16D C 0.3668(7) 0.0144(11) 1.0895(15)
H13D H 0.3618 0.0466 1.0396
C17D C 0.4899(7) -0.0603(11) 1.0471(16)
H14D H 0.4829 -0.1009 1.0781
C18D C 0.4653(7) 0.0507(10) 1.0061(16)
H15D H 0.4418 0.0847 1.0095
O25 O 0.9865(9) 0.7500 0.467(2)
O26 O 0.870(2) 0.7500 0.767(3)
O27 O 0.5205(8) 0.171(2) 0.734(3)
O28 O 1.179(2) 0.015(2) 1.133(3)
O29 O 0.5119(13) 0.118(2) 0.550(5)
O30 O 0.419(2) 0.180(3) 0.540(3)
loop_
_geom_bond_atom_site_label_1
_geom_bond_atom_site_label_2
_geom_bond_site_symmetry_1
_geom_bond_site_symmetry_2
W1 O4 1_555 1_555
W2 O4 1_555 1_555
W3 O3 1_555 1_555
W4 O2 1_555 1_555
W5 O1 1_555 1_555
W6 O6 1_555 1_555
W7 O5 1_555 1_555
V1 O7 1_555 1_555
Co1 O21 1_555 1_555
O1 W5G 1_555 1_555
O2 W4G 1_555 1_555
O3 W4 1_555 1_555
O5 W2 1_555 1_555
O6 W7 1_555 1_555
O7 W1 1_555 1_555
O8 W3 1_555 1_555
O9 W4 1_555 1_555
O10 W1 1_555 1_555
O11 W1 1_555 1_555
O12 W4 1_555 1_555
O13 W5 1_555 1_555
O14 W5 1_555 1_555
O15 W1 1_555 1_555
O16 W3 1_555 1_555
O17 W5 1_555 1_555
O18 W1 1_555 1_555
O19 W5 1_555 1_555
O20 W7 1_555 1_555
O21 W6 1_555 1_555
O22 W3 1_555 1_555
O23 W2 1_555 1_555
N1 Co1 1_555 1_555
N2 C4 1_555 1_555
N3 C2 1_555 1_555
C1 H1 1_555 1_555
C2 H2 1_555 1_555
C3 N3 1_555 1_555
C4 C8 1_555 1_555
C5 N2 1_555 1_555
H3 C5 1_555 1_555
C6 N1 1_555 1_555
H4 C6 1_555 1_555
C7 N1 1_555 1_555
H5 C7 1_555 1_555
C8 C1 1_555 1_555
H6 C8 1_555 1_555
C9 C4 1_555 1_555
H7 C9 1_555 1_555
C10 C2 1_555 1_555
H8 C10 1_555 1_555
C11 C3 1_555 1_555
H9 C11 1_555 1_555
C12 N3 1_555 1_555
H10 C12 1_555 1_555
N4 C10 1_555 1_555
O24 W7 1_555 1_555
N5 C13 1_555 1_555
C13 H11 1_555 1_555
C14 H12 1_555 1_555
N6 C13 1_555 1_555
C15 N5 1_555 1_555
C16 N5 1_555 1_555
H13 C16 1_555 1_555
C17 C15 1_555 1_555
H14 C17 1_555 1_555
C18 C15 1_555 1_555
H15 C18 1_555 1_555
W1G O7 1_555 1_555
W4G O22 1_555 1_555
W5G O8G 1_555 1_555
W6G O13 1_555 1_555
W7G O13 1_555 1_555
Co1G O21G 1_555 1_555
O3G W3 1_555 1_555
O4G W2 1_555 1_555
O5G W2 1_555 1_555
O6G W6G 1_555 1_555
O8G W3 1_555 1_555
O9G W4G 1_555 1_555
O10G W1G 1_555 1_555
O11G W1G 1_555 1_555
O12G W4G 1_555 1_555
O13G W6 1_555 1_555
O14G W7 1_555 1_555
O15G W1G 1_555 1_555
O17G W5G 1_555 1_555
O19G W6 1_555 1_555
O21G W6G 1_555 1_555
N1G Co1G 1_555 1_555
N2G C4G 1_555 1_555
N3G C2G 1_555 1_555
C1G H1G 1_555 1_555
C2G H2G 1_555 1_555
C3G N3G 1_555 1_555
C4G C8G 1_555 1_555
C5G N2G 1_555 1_555
H3G C5G 1_555 1_555
C6G N1G 1_555 1_555
H4G C6G 1_555 1_555
C7G N1G 1_555 1_555
H5G C7G 1_555 1_555
C8G C1G 1_555 1_555
H6G C8G 1_555 1_555
C9G C4G 1_555 1_555
H7G C9G 1_555 1_555
C10G C2G 1_555 1_555
H8G C10G 1_555 1_555
C11G C3G 1_555 1_555
H9G C11G 1_555 1_555
C12G N3G 1_555 1_555
H10G C12G 1_555 1_555
N4G C10G 1_555 1_555
O24G W7G 1_555 1_555
Co1A O9 1_555 1_555
Co1A_2 O24 1_555 1_555
Co1B N4G 1_555 1_555
Co1E N4 1_555 1_555
Co1F O9G 1_555 1_555
Co1F_2 O24G 1_555 1_555
O9A Co1 1_555 1_555
O9F Co1G 1_555 1_555
N4B Co1G 1_555 1_555
N4E Co1 1_555 1_555
O24A Co1 1_555 1_555
O24F Co1G 1_555 1_555
N5D C13D 1_555 1_555
C13D H11D 1_555 1_555
C14D H12D 1_555 1_555
N6D C13D 1_555 1_555
C15D N5D 1_555 1_555
C16D N5D 1_555 1_555
H13D C16D 1_555 1_555
C17D C18 1_555 1_555
H14D C17D 1_555 1_555
C18D C17 1_555 1_555
H15D C18D 1_555 1_555
W2 O7 1_555 1_555
W4 O15 1_555 1_555
W4 O22 1_555 1_555
W5 O8 1_555 1_555
W6 O11 1_555 1_555
W6 O12 1_555 1_555
W7 O13G 1_555 1_555
V1 O13 1_555 1_555
V1 O22 1_555 1_555
V1 O13G 1_555 1_555
O14 W7G 1_555 1_555
O18 W1G 1_555 1_555
O19 W6G 1_555 1_555
O20 W7G 1_555 1_555
N2 C7 1_555 1_555
C1 C3 1_555 1_555
C5 C6 1_555 1_555
C9 C11 1_555 1_555
C12 N4 1_555 1_555
C14 N6 1_555 1_555
C14 C16 1_555 1_555
W1G O4G 1_555 1_555
W4G O3G 1_555 1_555
W4G O15G 1_555 1_555
W5G O13G 1_555 1_555
W5G O14G 1_555 1_555
W5G O19G 1_555 1_555
W6G O11G 1_555 1_555
W6G O12G 1_555 1_555
W7G O5G 1_555 1_555
W7G O6G 1_555 1_555
N2G C7G 1_555 1_555
C1G C3G 1_555 1_555
C5G C6G 1_555 1_555
C9G C11G 1_555 1_555
C12G N4G 1_555 1_555
C14D N6D 1_555 1_555
C14D C16D 1_555 1_555
C15D C17D 1_555 1_555
C15D C18D 1_555 1_555

#END
