
#######################################################################
#
#                 Cambridge Crystallographic Data Centre
#                                CCDC 
#
#######################################################################
#
# If this CIF has been generated from an entry in the Cambridge 
# Structural Database, then it will include bibliographic, chemical, 
# crystal, experimental, refinement or atomic coordinate data resulting 
# from the CCDC's data processing and validation procedures.
#
#######################################################################

data_UKEVIR
_chemical_formula_moiety         '(C31 H22 Cu1 F6 N2 O5)n'
_symmetry_cell_setting           trigonal
_symmetry_space_group_name_H-M   'P -3'
_symmetry_Int_Tables_number      147
_space_group_name_Hall           '-P 3'
loop_
_symmetry_equiv_pos_site_id
_symmetry_equiv_pos_as_xyz
1 x,y,z
2 -y,x-y,z
3 -x+y,-x,z
4 -x,-y,-z
5 y,-x+y,-z
6 x-y,x,-z
_cell_length_a                   21.5669(5)
_cell_length_b                   21.5669(5)
_cell_length_c                   7.7969(2)
_cell_angle_alpha                90
_cell_angle_beta                 90
_cell_angle_gamma                120
_cell_volume                     3140.71
loop_
_atom_site_label
_atom_site_type_symbol
_atom_site_fract_x
_atom_site_fract_y
_atom_site_fract_z
Cu1 Cu 0.5000 0.0000 0.0000
F1 F 0.4067(2) 0.05394(19) -0.4716(4)
F2 F 0.3076(2) -0.0046(2) -0.3302(6)
F3 F 0.3625(2) 0.11042(18) -0.3423(4)
O1 O 0.42226(18) 0.00073(15) -0.1622(4)
O2 O 0.50349(19) 0.08603(17) 0.1406(4)
N1 N 0.49523(19) 0.42559(19) 0.8356(4)
C1 C 0.4860(2) 0.4326(2) 0.6676(4)
H1 H 0.4804 0.4708 0.6324
C2 C 0.4843(2) 0.3861(2) 0.5466(4)
H2 H 0.4773 0.3926 0.4319
C3 C 0.4931(3) 0.3288(2) 0.5952(5)
C4 C 0.5047(3) 0.3712(3) 0.8822(5)
H3 H 0.5119 0.3661 0.9977
C5 C 0.5043(4) 0.3227(3) 0.7680(6)
H4 H 0.5116 0.2860 0.8061
C6 C 0.4904(3) 0.2775(2) 0.4645(5)
C7 C 0.4447(3) 0.2596(3) 0.3244(5)
H5 H 0.4178 0.2821 0.3107
C8 C 0.4383(3) 0.2097(3) 0.2056(5)
H6 H 0.4059 0.1975 0.1156
C9 C 0.4805(3) 0.1770(3) 0.2198(5)
C10 C 0.5292(3) 0.1977(3) 0.3563(6)
H7 H 0.5586 0.1778 0.3655
C11 C 0.5343(3) 0.2466(3) 0.4769(6)
H8 H 0.5668 0.2592 0.5667
C12 C 0.4741(3) 0.1218(2) 0.0969(6)
C13 C 0.4365(3) 0.1120(3) -0.0609(6)
H9 H 0.4262 0.1475 -0.0924
C14 C 0.4145(3) 0.0550(3) -0.1694(6)
C15 C 0.3738(4) 0.0550(3) -0.3289(7)
F1C F 0.5933(2) -0.05394(19) 0.4716(4)
F2C F 0.6924(2) 0.0046(2) 0.3302(6)
F3C F 0.6375(2) -0.11042(18) 0.3423(4)
O1C O 0.57774(18) -0.00073(15) 0.1622(4)
O2C O 0.49651(19) -0.08603(17) -0.1406(4)
N1C N 0.50477(19) -0.42559(19) -0.8356(4)
C1C C 0.5140(2) -0.4326(2) -0.6676(4)
H1C H 0.5196 -0.4708 -0.6324
C2C C 0.5157(2) -0.3861(2) -0.5466(4)
H2C H 0.5227 -0.3926 -0.4319
C3C C 0.5069(3) -0.3288(2) -0.5952(5)
C4C C 0.4953(3) -0.3712(3) -0.8822(5)
H3C H 0.4881 -0.3661 -0.9977
C5C C 0.4957(4) -0.3227(3) -0.7680(6)
H4C H 0.4884 -0.2860 -0.8061
C6C C 0.5096(3) -0.2775(2) -0.4645(5)
C7C C 0.5553(3) -0.2596(3) -0.3244(5)
H5C H 0.5822 -0.2821 -0.3107
C8C C 0.5617(3) -0.2097(3) -0.2056(5)
H6C H 0.5941 -0.1975 -0.1156
C9C C 0.5195(3) -0.1770(3) -0.2198(5)
C10C C 0.4708(3) -0.1977(3) -0.3563(6)
H7C H 0.4414 -0.1778 -0.3655
C11C C 0.4657(3) -0.2466(3) -0.4769(6)
H8C H 0.4332 -0.2592 -0.5667
C12C C 0.5259(3) -0.1218(2) -0.0969(6)
C13C C 0.5635(3) -0.1120(3) 0.0609(6)
H9C H 0.5738 -0.1475 0.0924
C14C C 0.5855(3) -0.0550(3) 0.1694(6)
C15C C 0.6262(4) -0.0550(3) 0.3289(7)
Cu1B Cu 0.5000 -0.5000 -1.0000
Cu1B_2 Cu 0.5000 0.5000 1.0000
N1A N 0.57441(19) 0.06964(27) -0.1644(4)
N1D N 0.42559(19) -0.06964(27) 0.1644(4)
O3 O 0.6331(6) 0.3108(10) 1.066(2)
C16 C 0.6252(8) 0.2763(7) 0.8598(16)
loop_
_geom_bond_atom_site_label_1
_geom_bond_atom_site_label_2
_geom_bond_site_symmetry_1
_geom_bond_site_symmetry_2
Cu1 O1 1_555 1_555
F1 C15 1_555 1_555
F2 C15 1_555 1_555
F3 C15 1_555 1_555
O1 C14 1_555 1_555
O2 Cu1 1_555 1_555
N1 C1 1_555 1_555
C1 H1 1_555 1_555
C2 C1 1_555 1_555
H2 C2 1_555 1_555
C3 C2 1_555 1_555
C4 N1 1_555 1_555
H3 C4 1_555 1_555
C5 C3 1_555 1_555
H4 C5 1_555 1_555
C6 C3 1_555 1_555
C7 C6 1_555 1_555
H5 C7 1_555 1_555
C8 C7 1_555 1_555
H6 C8 1_555 1_555
C9 C8 1_555 1_555
C10 C9 1_555 1_555
H7 C10 1_555 1_555
C11 C6 1_555 1_555
H8 C11 1_555 1_555
C12 O2 1_555 1_555
C13 C12 1_555 1_555
H9 C13 1_555 1_555
C14 C13 1_555 1_555
C15 C14 1_555 1_555
O3 C16 1_555 1_555
F1C C15C 1_555 1_555
F2C C15C 1_555 1_555
F3C C15C 1_555 1_555
O1C Cu1 1_555 1_555
O2C Cu1 1_555 1_555
N1C C1C 1_555 1_555
C1C H1C 1_555 1_555
C2C C1C 1_555 1_555
H2C C2C 1_555 1_555
C3C C2C 1_555 1_555
C4C N1C 1_555 1_555
H3C C4C 1_555 1_555
C5C C3C 1_555 1_555
H4C C5C 1_555 1_555
C6C C3C 1_555 1_555
C7C C6C 1_555 1_555
H5C C7C 1_555 1_555
C8C C7C 1_555 1_555
H6C C8C 1_555 1_555
C9C C8C 1_555 1_555
C10C C9C 1_555 1_555
H7C C10C 1_555 1_555
C11C C6C 1_555 1_555
H8C C11C 1_555 1_555
C12C O2C 1_555 1_555
C13C C12C 1_555 1_555
H9C C13C 1_555 1_555
C14C O1C 1_555 1_555
C15C C14C 1_555 1_555
Cu1B N1C 1_555 1_555
Cu1B_2 N1 1_555 1_555
N1A Cu1 1_555 1_555
N1D Cu1 1_555 1_555
C4 C5 1_555 1_555
C9 C12 1_555 1_555
C10 C11 1_555 1_555
C4C C5C 1_555 1_555
C9C C12C 1_555 1_555
C10C C11C 1_555 1_555
C13C C14C 1_555 1_555

#END
