
#######################################################################
#
#                 Cambridge Crystallographic Data Centre
#                                CCDC 
#
#######################################################################
#
# If this CIF has been generated from an entry in the Cambridge 
# Structural Database, then it will include bibliographic, chemical, 
# crystal, experimental, refinement or atomic coordinate data resulting 
# from the CCDC's data processing and validation procedures.
#
#######################################################################

data_UGUTOF
_chemical_formula_moiety         '(C20 H40 Cu6 N16)n'
_symmetry_cell_setting           monoclinic
_symmetry_space_group_name_H-M   'P 21/n'
_symmetry_Int_Tables_number      14
_space_group_name_Hall           '-P 2yn'
loop_
_symmetry_equiv_pos_site_id
_symmetry_equiv_pos_as_xyz
1 x,y,z
2 1/2+x,1/2-y,1/2+z
3 -x,-y,-z
4 1/2-x,1/2+y,1/2-z
_cell_length_a                   13.506(3)
_cell_length_b                   8.444(2)
_cell_length_c                   13.580(3)
_cell_angle_alpha                90
_cell_angle_beta                 103.83(3)
_cell_angle_gamma                90
_cell_volume                     1503.83
loop_
_atom_site_label
_atom_site_type_symbol
_atom_site_fract_x
_atom_site_fract_y
_atom_site_fract_z
Cu1 Cu -0.28128(9) -0.86271(14) -0.65652(8)
Cu2 Cu -0.14925(9) -0.82941(14) -0.27041(9)
N1 N 0.0670(6) -0.7049(10) -0.1714(6)
C2 C -0.0134(8) -0.7559(10) -0.2055(6)
N3 N -0.2087(6) -0.8509(10) -0.5131(7)
C4 C -0.1710(6) -0.8366(10) -0.4286(6)
N5 N -0.2192(7) -0.5644(12) -0.7675(6)
C6 C -0.2287(6) -0.6810(10) -0.7258(6)
N7 N -0.2141(6) -1.0346(12) -0.2530(6)
C8 C -0.2440(6) -0.6489(9) -0.2543(6)
Cu1A Cu 0.21872(9) -0.63729(14) -0.15652(8)
N1A N -0.4330(6) -0.7951(10) -0.6714(6)
C2A C -0.5134(8) -0.7441(10) -0.7055(6)
Cu2A Cu -0.64925(9) -0.67059(14) -0.77041(9)
C4A C -0.6710(6) -0.6634(10) -0.9286(6)
Cu2C Cu -0.35075(9) -0.32941(14) -1.22959(9)
C4C C -0.3290(6) -0.3366(10) -1.0714(6)
N3C N -0.2913(6) -0.3509(10) -0.9869(7)
Cu1C Cu -0.21872(9) -0.36271(14) -0.84348(8)
N1B N -0.0670(6) -0.2951(10) -0.8286(6)
N5C N -0.2808(7) -1.0644(12) -0.7325(6)
C6C C -0.2713(6) -1.1810(10) -0.7742(6)
Cu1C_2 Cu -0.21872(9) -1.36271(14) -0.84348(8)
C6C_2 C -0.2713(6) -0.1810(10) -0.7742(6)
N7A N -0.7141(6) -0.4654(12) -0.7530(6)
C8A C -0.7440(6) -0.8511(9) -0.7543(6)
C8C C -0.2560(6) -1.1489(9) -0.2457(6)
N7C N -0.2859(6) -0.5346(12) -0.2470(6)
Cu2C_2 Cu -0.35075(9) -1.32941(14) -0.22959(9)
Cu2C_3 Cu -0.35075(9) -0.32941(14) -0.22959(9)
Cu3 Cu -0.0000 -0.5000 0.0000
N9 N 0.1184(6) -0.3589(10) 0.0055(6)
N10 N -0.0810(6) -0.3250(11) -0.0773(7)
C9 C 0.1616(8) -0.0872(13) -0.0502(9)
C10 C 0.0832(11) -0.1918(19) -0.0216(13)
C11 C -0.0051(12) -0.217(2) -0.1100(14)
H1 H 0.1551 -0.3946 -0.0391
H2 H 0.1605 -0.3609 0.0697
H3 H 0.0591 -0.1430 0.0357
H4 H -0.1156 -0.2707 -0.0371
H5 H -0.1276 -0.3637 -0.1329
H6 H -0.0376 -0.1144 -0.1336
H7 H 0.0184 -0.2662 -0.1666
H8 H 0.1331 0.0188 -0.0666
H9 H 0.2218 -0.0806 0.0067
H10 H 0.1813 -0.1319 -0.1094
N9B N -0.1184(6) -0.6411(10) -0.0055(6)
C10B C -0.0832(11) -0.8082(19) 0.0216(13)
C9B C -0.1616(8) -0.9128(13) 0.0502(9)
H8B H -0.1331 -1.0188 0.0666
H9B H -0.2218 -0.9194 -0.0067
H10B H -0.1813 -0.8681 0.1094
C11B C 0.0051(12) -0.783(2) 0.1100(14)
N10B N 0.0810(6) -0.6750(11) 0.0773(7)
H4B H 0.1156 -0.7293 0.0371
H5B H 0.1276 -0.6363 0.1329
H6B H 0.0376 -0.8856 0.1336
H7B H -0.0184 -0.7338 0.1666
H3B H -0.0591 -0.8570 -0.0357
H1B H -0.1551 -0.6054 0.0391
H2B H -0.1605 -0.6391 -0.0697
Cu4 Cu 0.0000 0.0000 -0.5000
N11 N -0.0067(6) -0.1425(9) -0.3837(5)
N12 N -0.0654(6) -0.1762(9) -0.5879(5)
C14 C -0.0716(8) -0.4114(12) -0.3516(8)
C15 C -0.028(2) -0.305(3) -0.4228(15)
C16 C -0.107(2) -0.288(3) -0.5244(18)
H21 H -0.0574 -0.1091 -0.3539
H22 H 0.0543 -0.1398 -0.3357
H23 H -0.0184 -0.2264 -0.6162
H24 H -0.1171 -0.1383 -0.6394
H25 H 0.0359 -0.3536 -0.4344
H26 H -0.1195 -0.3917 -0.5586
H27 H -0.1715 -0.2469 -0.5131
H28 H -0.0213 -0.4225 -0.2867
H29 H -0.1339 -0.3635 -0.3400
H30 H -0.0875 -0.5161 -0.3825
N11B N 0.0067(6) 0.1425(9) -0.6163(5)
C15B C 0.028(2) 0.305(3) -0.5772(15)
C14B C 0.0716(8) 0.4114(12) -0.6484(8)
H28B H 0.0213 0.4225 -0.7133
H29B H 0.1339 0.3635 -0.6600
H30B H 0.0875 0.5161 -0.6175
C16B C 0.107(2) 0.288(3) -0.4756(18)
N12B N 0.0654(6) 0.1762(9) -0.4121(5)
H23B H 0.0184 0.2264 -0.3838
H24B H 0.1171 0.1383 -0.3606
H26B H 0.1195 0.3917 -0.4414
H27B H 0.1715 0.2469 -0.4869
H25B H -0.0359 0.3536 -0.5656
H21B H 0.0574 0.1091 -0.6461
H22B H -0.0543 0.1398 -0.6643
loop_
_geom_bond_atom_site_label_1
_geom_bond_atom_site_label_2
_geom_bond_site_symmetry_1
_geom_bond_site_symmetry_2
Cu1 N3 1_555 1_555
Cu2 C2 1_555 1_555
Cu3 N9 1_555 1_555
Cu4 N11 1_555 1_555
N1 C2 1_555 1_555
N3 C4 1_555 1_555
C4 Cu2 1_555 1_555
N5 C6 1_555 1_555
C6 Cu1 1_555 1_555
N7 Cu2 1_555 1_555
C8 Cu2 1_555 1_555
N9 C10 1_555 1_555
N10 Cu3 1_555 1_555
C9 C10 1_555 1_555
C10 C11 1_555 1_555
C11 N10 1_555 1_555
H1 N9 1_555 1_555
H2 N9 1_555 1_555
H3 C10 1_555 1_555
H4 N10 1_555 1_555
H5 N10 1_555 1_555
H6 C11 1_555 1_555
H7 C11 1_555 1_555
H8 C9 1_555 1_555
H9 C9 1_555 1_555
H10 C9 1_555 1_555
N11 C15 1_555 1_555
N12 Cu4 1_555 1_555
C14 C15 1_555 1_555
C15 C16 1_555 1_555
C16 N12 1_555 1_555
H21 N11 1_555 1_555
H22 N11 1_555 1_555
H23 N12 1_555 1_555
H24 N12 1_555 1_555
H25 C15 1_555 1_555
H26 C16 1_555 1_555
H27 C16 1_555 1_555
H28 C14 1_555 1_555
H29 C14 1_555 1_555
H30 C14 1_555 1_555
Cu1A N1 1_555 1_555
N1A Cu1 1_555 1_555
C2A N1A 1_555 1_555
Cu2A C2A 1_555 1_555
C4A Cu2A 1_555 1_555
Cu2C C4C 1_555 1_555
C4C N3C 1_555 1_555
N3C Cu1C 1_555 1_555
Cu1C N5 1_555 1_555
N1B Cu1C 1_555 1_555
N5C Cu1 1_555 1_555
C6C N5C 1_555 1_555
Cu1C_2 C6C 1_555 1_555
C6C_2 Cu1C 1_555 1_555
N7A Cu2A 1_555 1_555
C8A Cu2A 1_555 1_555
N9B Cu3 1_555 1_555
C10B N9B 1_555 1_555
C9B C10B 1_555 1_555
H8B C9B 1_555 1_555
H9B C9B 1_555 1_555
H10B C9B 1_555 1_555
C11B C10B 1_555 1_555
N10B Cu3 1_555 1_555
H4B N10B 1_555 1_555
H5B N10B 1_555 1_555
H6B C11B 1_555 1_555
H7B C11B 1_555 1_555
H3B C10B 1_555 1_555
H1B N9B 1_555 1_555
H2B N9B 1_555 1_555
N11B Cu4 1_555 1_555
C15B N11B 1_555 1_555
C14B C15B 1_555 1_555
H28B C14B 1_555 1_555
H29B C14B 1_555 1_555
H30B C14B 1_555 1_555
C16B C15B 1_555 1_555
N12B Cu4 1_555 1_555
H23B N12B 1_555 1_555
H24B N12B 1_555 1_555
H26B C16B 1_555 1_555
H27B C16B 1_555 1_555
H25B C15B 1_555 1_555
H21B N11B 1_555 1_555
H22B N11B 1_555 1_555
C8C N7 1_555 1_555
N7C C8 1_555 1_555
Cu2C_2 C8C 1_555 1_555
Cu2C_3 N7C 1_555 1_555
C11B N10B 1_555 1_555
C16B N12B 1_555 1_555

#END
