
#######################################################################
#
#                 Cambridge Crystallographic Data Centre
#                                CCDC 
#
#######################################################################
#
# If this CIF has been generated from an entry in the Cambridge 
# Structural Database, then it will include bibliographic, chemical, 
# crystal, experimental, refinement or atomic coordinate data resulting 
# from the CCDC's data processing and validation procedures.
#
#######################################################################

data_GOQSIQ
_chemical_formula_moiety         '(C105 H155 N45 O5 Zn10)n'
_symmetry_cell_setting           orthorhombic
_symmetry_space_group_name_H-M   'P 21 21 21'
_symmetry_Int_Tables_number      19
_space_group_name_Hall           'P 2ac 2ab'
loop_
_symmetry_equiv_pos_site_id
_symmetry_equiv_pos_as_xyz
1 x,y,z
2 1/2-x,-y,1/2+z
3 -x,1/2+y,1/2-z
4 1/2+x,1/2-y,-z
_cell_length_a                   9.5161(2)
_cell_length_b                   30.1575(5)
_cell_length_c                   45.9367(8)
_cell_angle_alpha                90
_cell_angle_beta                 90
_cell_angle_gamma                90
_cell_volume                     13183
loop_
_atom_site_label
_atom_site_type_symbol
_atom_site_fract_x
_atom_site_fract_y
_atom_site_fract_z
Zn1 Zn 1.33586(8) -0.00355(2) 1.142042(17)
Zn2 Zn 0.84489(9) -0.02926(2) 1.067229(18)
Zn3 Zn 1.08599(8) 0.14231(2) 1.024756(17)
Zn4 Zn 1.08772(8) 0.26259(2) 0.924811(16)
Zn5 Zn 0.84202(8) 0.31689(2) 0.812509(16)
Zn6 Zn 0.49646(8) 0.17173(2) 0.763214(18)
Zn7 Zn -0.00145(8) 0.05440(2) 0.764644(18)
Zn8 Zn -0.07208(8) -0.13154(2) 0.804020(16)
Zn9 Zn 0.42962(8) -0.22942(3) 0.847290(17)
Zn10 Zn 0.34825(11) -0.28162(3) 0.97008(2)
C1 C 1.5850(8) -0.0216(3) 1.10203(15)
H1 H 1.6090 -0.0484 1.1117
C2 C 1.5954(12) 0.0334(4) 1.0749(2)
H2 H 1.6218 0.0539 1.0602
C3 C 1.4860(12) 0.0381(3) 1.0934(2)
H3 H 1.4274 0.0636 1.0947
C4 C 1.0973(8) -0.0229(2) 1.10444(16)
H4 H 1.1361 -0.0031 1.0905
C5 C 0.9540(8) -0.0670(3) 1.12547(19)
H5 H 0.8746 -0.0849 1.1299
C6 C 1.0695(8) -0.0614(2) 1.14267(18)
H6 H 1.0833 -0.0746 1.1612
C7 C 0.9576(7) 0.0589(2) 1.04579(16)
H7 H 0.9033 0.0753 1.0594
C8 C 1.1054(11) 0.0427(3) 1.0127(2)
H8 H 1.1767 0.0447 0.9983
C9 C 1.0427(10) 0.0047(3) 1.0220(2)
H9 H 1.0619 -0.0242 1.0148
C10 C 1.0903(8) 0.2015(2) 0.97411(15)
H10 H 1.1245 0.2248 0.9861
C11 C 1.0240(8) 0.1649(2) 0.93647(16)
H11 H 1.0011 0.1567 0.9171
C12 C 1.0197(9) 0.1378(2) 0.96018(17)
H12 H 0.9925 0.1075 0.9600
C13 C 0.8328(7) 0.3060(2) 0.95366(14)
H13 H 0.7861 0.2787 0.9572
C14 C 0.8731(7) 0.3756(2) 0.95150(15)
H14 H 0.8628 0.4069 0.9532
C15 C 0.9865(8) 0.3540(2) 0.93993(16)
H15 H 1.0682 0.3677 0.9321
C16 C 1.3419(7) 0.3034(2) 0.95261(15)
H16 H 1.3095 0.2962 0.9716
C17 C 1.4659(8) 0.3298(3) 0.91820(16)
H17 H 1.5382 0.3445 0.9077
C18 C 1.3554(9) 0.3078(3) 0.90621(16)
H18 H 1.3361 0.3051 0.8860
C19 C 0.9659(7) 0.2882(2) 0.86892(15)
H19 H 0.9299 0.3139 0.8782
C20 C 1.0149(8) 0.2399(2) 0.83634(15)
H20 H 1.0205 0.2241 0.8185
C21 C 1.0729(8) 0.2271(2) 0.86227(16)
H21 H 1.1275 0.2012 0.8654
C22 C 0.9513(7) 0.3450(2) 0.75406(15)
H22 H 0.8597 0.3526 0.7475
C23 C 1.1185(8) 0.3255(3) 0.78137(16)
H23 H 1.1717 0.3163 0.7978
C24 C 1.1704(8) 0.3361(3) 0.75553(18)
H24 H 1.2671 0.3350 0.7505
C25 C 0.8315(7) 0.4123(2) 0.83128(15)
H25 H 0.9012 0.4206 0.8175
C26 C 0.6824(10) 0.4154(3) 0.8656(2)
H26 H 0.6256 0.4256 0.8813
C27 C 0.6842(10) 0.3738(3) 0.85453(19)
H27 H 0.6263 0.3501 0.8609
C28 C 0.6705(7) 0.2434(2) 0.78879(16)
H28 H 0.7516 0.2251 0.7876
C29 C 0.5386(8) 0.2986(3) 0.7971(2)
H29 H 0.5046 0.3267 0.8031
C30 C 0.4577(7) 0.2649(2) 0.7862(2)
H30 H 0.3595 0.2662 0.7826
C31 C 0.2475(7) 0.1146(2) 0.76232(15)
H31 H 0.2819 0.1008 0.7451
C32 C 0.1177(8) 0.1311(3) 0.79892(19)
H32 H 0.0427 0.1318 0.8126
C33 C 0.2284(8) 0.1585(3) 0.79841(18)
H33 H 0.2468 0.1812 0.8123
C34 C 0.5314(7) 0.2221(2) 0.70837(16)
H34 H 0.5337 0.2491 0.7190
C35 C 0.5287(9) 0.1757(2) 0.67321(17)
H35 H 0.5294 0.1630 0.6543
C36 C 0.5156(9) 0.1527(2) 0.69823(17)
H36 H 0.5059 0.1215 0.6999
C37 C 0.7494(7) 0.1133(2) 0.76410(18)
H37 H 0.7924 0.1303 0.7491
C38 C 0.6089(10) 0.0930(4) 0.7958(2)
H38 H 0.5311 0.0914 0.8087
C39 C 0.7174(9) 0.0640(4) 0.7954(2)
H39 H 0.7278 0.0387 0.8074
C40 C -0.0230(7) -0.0405(2) 0.78291(15)
H40 H -0.0614 -0.0484 0.7645
C41 C 0.0419(13) -0.0444(3) 0.8259(2)
H41 H 0.0606 -0.0546 0.8451
C42 C 0.0648(14) -0.0026(3) 0.8158(2)
H42 H 0.1051 0.0209 0.8268
C43 C 0.1005(8) 0.0311(3) 0.70426(16)
H43 H 0.1933 0.0251 0.7108
C44 C -0.0872(12) 0.0350(4) 0.6775(2)
H44 H -0.1515 0.0325 0.6617
C45 C -0.1183(13) 0.0472(5) 0.7058(3)
H45 H -0.2079 0.0561 0.7127
C46 C 0.1813(7) -0.1793(3) 0.82583(16)
H46 H 0.2361 -0.1679 0.8102
C47 C 0.0107(12) -0.1921(4) 0.8531(2)
H47 H -0.0805 -0.1924 0.8615
C48 C 0.1247(9) -0.2150(4) 0.8630(2)
H48 H 0.1263 -0.2338 0.8796
C49 C -0.3313(8) -0.1795(2) 0.81994(16)
H49 H -0.2966 -0.2054 0.8107
C50 C -0.3485(8) -0.1130(3) 0.83504(17)
H50 H -0.3295 -0.0825 0.8387
C51 C -0.4612(8) -0.1349(3) 0.84471(18)
H51 H -0.5347 -0.1227 0.8562
C52 C 0.4073(8) -0.2672(3) 0.90708(17)
H52 H 0.3374 -0.2881 0.9015
C53 C 0.5503(11) -0.2281(3) 0.9329(2)
H53 H 0.6000 -0.2156 0.9489
C54 C 0.5704(10) -0.2174(3) 0.90472(18)
H54 H 0.6368 -0.1966 0.8975
C55 C 0.0930(13) -0.2405(4) 0.9952(2)
H55 H 0.1441 -0.2341 1.0125
C56 C 0.0522(15) -0.2699(5) 0.9564(3)
H56 H 0.0592 -0.2872 0.9392
C57 C -0.0695(16) -0.2557(5) 0.9690(3)
H57 H -0.1612 -0.2594 0.9612
C58 C 0.3484(10) -0.3768(3) 0.95020(19)
H58 H 0.3947 -0.3696 0.9325
C59 C 0.2441(19) -0.3694(5) 0.9874(4)
H59 H 0.2075 -0.3579 1.0050
C60 C 0.2263(19) -0.4128(5) 0.9786(3)
H60 H 0.1653 -0.4346 0.9865
N1 N 1.4731(6) 0.00114(19) 1.10947(13)
N2 N 1.6621(7) -0.00592(19) 1.08088(14)
N3 N 1.1627(6) -0.03352(18) 1.12901(13)
N4 N 0.9727(6) -0.04241(18) 1.10093(13)
N5 N 0.9501(6) 0.01429(19) 1.04294(13)
N6 N 1.0493(6) 0.07738(18) 1.02744(13)
N7 N 1.0602(6) 0.16076(17) 0.98400(12)
N8 N 1.0670(6) 0.20577(17) 0.94544(12)
N9 N 0.9622(5) 0.30956(18) 0.94158(12)
N10 N 0.7796(6) 0.34544(19) 0.95996(12)
N11 N 1.2769(6) 0.29035(19) 0.92843(12)
N12 N 1.4560(6) 0.32741(19) 0.94762(12)
N13 N 1.0395(5) 0.25763(18) 0.88266(12)
N14 N 0.9469(6) 0.27954(18) 0.84066(11)
N15 N 0.9764(5) 0.33004(17) 0.78053(11)
N16 N 1.0648(6) 0.34879(17) 0.73716(12)
N17 N 0.7813(6) 0.37114(18) 0.83293(12)
N18 N 0.7778(6) 0.44054(18) 0.85003(13)
N19 N 0.6740(6) 0.28549(18) 0.79786(12)
N20 N 0.5423(5) 0.22954(19) 0.78157(13)
N21 N 0.3101(5) 0.14891(18) 0.77508(13)
N22 N 0.1317(6) 0.10166(18) 0.77614(13)
N23 N 0.5186(6) 0.18237(18) 0.72070(13)
N24 N 0.5409(6) 0.21976(19) 0.67904(13)
N25 N 0.6271(5) 0.12411(19) 0.77541(13)
N26 N 0.8079(6) 0.07768(18) 0.77477(13)
N27 N 0.0220(6) 0.0002(2) 0.78837(13)
N28 N -0.0118(6) -0.06888(18) 0.80399(12)
N29 N -0.0006(6) 0.04420(18) 0.72191(13)
N30 N 0.0618(6) 0.02699(18) 0.67655(13)
N31 N 0.0494(6) -0.16905(19) 0.82940(12)
N32 N 0.2331(6) -0.20678(19) 0.84552(13)
N33 N -0.2646(6) -0.14069(19) 0.81919(13)
N34 N -0.4525(6) -0.1786(2) 0.83506(13)
N35 N 0.4765(6) -0.2421(2) 0.88821(13)
N36 N 0.4465(7) -0.2601(2) 0.93515(13)
N37 N 0.1624(9) -0.2551(2) 0.97282(15)
N38 N -0.0363(9) -0.2344(3) 0.99542(15)
N39 N 0.3169(8) -0.3458(2) 0.96878(15)
N40 N 0.3166(7) -0.4168(2) 0.95596(15)
Zn1A Zn 0.16414(8) 0.00355(2) 0.642042(17)
Zn1C Zn 0.83586(8) 0.50355(2) 0.857958(17)
Zn2_2 Zn 1.84489(9) -0.02926(2) 1.067229(18)
Zn2C Zn 0.34489(9) -0.47074(2) 0.932771(18)
Zn3C Zn 0.58599(8) 0.35769(2) 0.975244(17)
Zn3C_2 Zn 1.58599(8) 0.35769(2) 0.975244(17)
Zn7_2 Zn 0.99855(8) 0.05440(2) 0.764644(18)
Zn8B Zn 1.07208(8) 0.36846(2) 0.695980(16)
Zn9_2 Zn -0.57038(8) -0.22942(3) 0.847290(17)
Zn9B Zn 0.57038(8) 0.27058(3) 0.652710(17)
Zn10C Zn -0.15175(11) -0.21838(3) 1.02992(2)
N2_2 N 0.6621(7) -0.00592(19) 1.08088(14)
N10C N 1.2796(6) 0.15456(19) 1.04004(12)
N12C N 0.9560(6) 0.17259(19) 1.05238(12)
N16B N -0.0648(6) -0.15121(17) 0.76284(12)
N18C N 1.2778(6) 0.05946(18) 1.14997(13)
N24B N 0.4591(6) -0.28024(19) 0.82096(13)
N26_2 N -0.1921(6) 0.07768(18) 0.77477(13)
N30A N 1.4382(6) -0.02699(18) 1.17655(13)
N34_2 N 0.5475(6) -0.1786(2) 0.83506(13)
N38C N 0.4637(9) -0.2656(3) 1.00458(15)
N40C N 0.8166(7) -0.0832(2) 1.04404(15)
C61 C -0.0690(11) 0.3672(4) 0.0369(2)
H61 H -0.1475 0.3622 0.0507
H62 H -0.1078 0.3655 0.0169
C62 C -0.0114(17) 0.4126(4) 0.0417(3)
H63 H 0.0251 0.4152 0.0618
H64 H -0.0868 0.4349 0.0391
C63 C 0.1137(19) 0.4217(5) 0.0187(4)
H65 H 0.1942 0.4023 0.0235
H66 H 0.0806 0.4134 -0.0010
C64 C 0.163(3) 0.4682(6) 0.0181(5)
H67 H 0.0905 0.4870 0.0091
H68 H 0.2497 0.4702 0.0067
H69 H 0.1805 0.4784 0.0380
C65 C 0.112(2) 0.3278(6) 0.0695(3)
H70 H 0.2070 0.3152 0.0659
H71 H 0.1247 0.3577 0.0780
C66 C 0.040(2) 0.3006(8) 0.0894(5)
H72 H 0.0048 0.2737 0.0794
H73 H -0.0422 0.3168 0.0974
C67 C 0.145(2) 0.2867(8) 0.1156(4)
H74 H 0.1668 0.2545 0.1162
H75 H 0.2326 0.3045 0.1162
C68 C 0.040(3) 0.3005(9) 0.1372(5)
H76 H 0.0635 0.2879 0.1563
H77 H -0.0533 0.2899 0.1312
H78 H 0.0384 0.3329 0.1386
C69 C 0.0859(11) 0.3096(3) 0.01820(19)
H79 H 0.0502 0.3177 -0.0004
N41 N 0.0340(8) 0.3318(3) 0.04058(16)
O1 O 0.1719(7) 0.28054(18) 0.01822(12)
C70 C 0.592(2) 0.3550(6) 0.3289(4)
H80 H 0.6799 0.3716 0.3331
H81 H 0.5249 0.3756 0.3196
C71 C 0.6253(19) 0.3152(6) 0.3076(4)
H82 H 0.6913 0.3242 0.2920
H83 H 0.6650 0.2895 0.3182
C72 C 0.485(3) 0.3049(7) 0.2956(5)
H84 H 0.4370 0.3332 0.2912
H85 H 0.4298 0.2897 0.3109
C73 C 0.482(2) 0.2766(6) 0.2687(4)
H86 H 0.5081 0.2946 0.2518
H87 H 0.3873 0.2646 0.2659
H88 H 0.5489 0.2521 0.2708
C74 C 0.619(2) 0.3170(7) 0.3771(4)
H89 H 0.6989 0.3013 0.3678
H90 H 0.5644 0.2956 0.3888
C75 C 0.671(3) 0.3557(7) 0.3958(5)
H91 H 0.7376 0.3735 0.3841
H92 H 0.5897 0.3749 0.4005
C76 C 0.740(3) 0.3434(9) 0.4229(6)
H93 H 0.8350 0.3321 0.4186
H94 H 0.6858 0.3193 0.4324
C77 C 0.751(3) 0.3841(8) 0.4445(5)
H95 H 0.8329 0.4022 0.4393
H96 H 0.7616 0.3732 0.4644
H97 H 0.6657 0.4022 0.4430
C78 C 0.3965(16) 0.3446(5) 0.3604(3)
H98 H 0.3431 0.3569 0.3448
N42 N 0.5332(11) 0.3380(4) 0.3559(3)
O2 O 0.3361(11) 0.3363(4) 0.3825(2)
C79 C 0.578(3) 0.9582(9) 0.7516(5)
H99 H 0.6619 0.9733 0.7595
H100 H 0.6064 0.9273 0.7473
C80 C 0.464(3) 0.9558(12) 0.7776(7)
H101 H 0.5083 0.9437 0.7954
H102 H 0.4285 0.9859 0.7821
C81 C 0.347(3) 0.9274(10) 0.7687(7)
H103 H 0.2959 0.9384 0.7515
H104 H 0.2816 0.9201 0.7848
C82 C 0.454(3) 0.8897(11) 0.7618(7)
C83 C 0.4313(19) 0.9551(7) 0.7118(4)
C84 C 0.549(3) 0.9338(9) 0.6884(5)
H105 H 0.5331 0.9015 0.6909
H106 H 0.5050 0.9409 0.6694
C85 C 0.706(2) 0.9351(8) 0.6807(6)
H107 H 0.7604 0.9192 0.6958
H108 H 0.7386 0.9664 0.6804
C86 C 0.737(2) 0.9130(8) 0.6496(6)
H109 H 0.7004 0.8826 0.6495
H110 H 0.8383 0.9125 0.6461
H111 H 0.6903 0.9303 0.6343
C87 C 0.5199(14) 1.0248(4) 0.7282(4)
H112 H 0.5757 1.0385 0.7428
N43 N 0.5456(10) 0.9797(3) 0.7231(3)
O3 O 0.4428(8) 1.0462(2) 0.71737(15)
C88 C 0.699(2) 0.4526(8) 0.0938(5)
H113 H 0.6809 0.4234 0.0846
H114 H 0.7539 0.4707 0.0800
C89 C 0.558(3) 0.4755(9) 0.0993(7)
H115 H 0.5198 0.4857 0.0804
H116 H 0.5746 0.5020 0.1114
C90 C 0.447(3) 0.4460(10) 0.1144(7)
H117 H 0.4800 0.4390 0.1343
H118 H 0.4395 0.4177 0.1036
C91 C 0.299(3) 0.4671(10) 0.1164(6)
H119 H 0.3004 0.4912 0.1307
H120 H 0.2309 0.4446 0.1225
H121 H 0.2718 0.4789 0.0974
C92 C 0.863(3) 0.4824(9) 0.1318(6)
H122 H 0.8682 0.4782 0.1531
H123 H 0.8089 0.5099 0.1283
C93 C 1.013(3) 0.4904(12) 0.1207(8)
H124 H 1.0604 0.5147 0.1314
H125 H 1.0156 0.4966 0.0995
C94 C 1.078(3) 0.4448(13) 0.1279(12)
H126 H 1.1788 0.4476 0.1330
H127 H 1.0682 0.4240 0.1114
C95 C 0.990(6) 0.4291(16) 0.1546(11)
C96 C 0.788(3) 0.4021(7) 0.1314(5)
H128 H 0.8470 0.3969 0.1478
N44 N 0.781(2) 0.4460(6) 0.1201(4)
O4 O 0.724(3) 0.3712(8) 0.1214(5)
C97 C 0.168(6) 0.9122(14) 0.9494(7)
H129 H 0.0854 0.9319 0.9498
H130 H 0.2507 0.9314 0.9456
C98 C 0.187(4) 0.8937(16) 0.9819(8)
H131 H 0.2417 0.9129 0.9952
H132 H 0.1009 0.8818 0.9911
C99 C 0.274(5) 0.8600(13) 0.9641(11)
H133 H 0.2423 0.8573 0.9437
H134 H 0.2795 0.8304 0.9734
C100 C 0.412(4) 0.8870(16) 0.9673(11)
H135 H 0.4173 0.9101 0.9523
H136 H 0.4951 0.8680 0.9661
H137 H 0.4073 0.9008 0.9865
C101 C 0.041(4) 0.8522(14) 0.9315(9)
H138 H 0.0721 0.8369 0.9495
H139 H 0.0400 0.8296 0.9159
C102 C -0.111(5) 0.8670(15) 0.9364(11)
H140 H -0.1220 0.8773 0.9568
H141 H -0.1743 0.8412 0.9337
C103 C -0.158(5) 0.9044(16) 0.9157(9)
H142 H -0.1384 0.8969 0.8951
H143 H -0.1118 0.9329 0.9205
C104 C -0.318(5) 0.9055(16) 0.9222(9)
H144 H -0.3561 0.8756 0.9196
H145 H -0.3663 0.9261 0.9091
H146 H -0.3306 0.9150 0.9424
C105 C 0.215(3) 0.8843(8) 0.8956(5)
H147 H 0.2168 0.8571 0.8851
N45 N 0.153(2) 0.8846(6) 0.9239(4)
O5 O 0.2629(17) 0.9152(6) 0.8849(4)
loop_
_geom_bond_atom_site_label_1
_geom_bond_atom_site_label_2
_geom_bond_site_symmetry_1
_geom_bond_site_symmetry_2
Zn1 N1 1_555 1_555
Zn2 N4 1_555 1_555
Zn3 N6 1_555 1_555
Zn4 N8 1_555 1_555
Zn5 N14 1_555 1_555
Zn6 N20 1_555 1_555
Zn7 N22 1_555 1_555
Zn8 N28 1_555 1_555
Zn9 N32 1_555 1_555
Zn10 N36 1_555 1_555
C1 H1 1_555 1_555
C2 H2 1_555 1_555
C3 C2 1_555 1_555
H3 C3 1_555 1_555
C4 H4 1_555 1_555
C5 H5 1_555 1_555
C6 C5 1_555 1_555
H6 C6 1_555 1_555
C7 H7 1_555 1_555
C8 H8 1_555 1_555
C9 C8 1_555 1_555
H9 C9 1_555 1_555
C10 H10 1_555 1_555
C11 H11 1_555 1_555
C12 C11 1_555 1_555
H12 C12 1_555 1_555
C13 H13 1_555 1_555
C14 H14 1_555 1_555
C15 C14 1_555 1_555
H15 C15 1_555 1_555
C16 H16 1_555 1_555
C17 H17 1_555 1_555
C18 C17 1_555 1_555
H18 C18 1_555 1_555
C19 H19 1_555 1_555
C20 H20 1_555 1_555
C21 C20 1_555 1_555
H21 C21 1_555 1_555
C22 H22 1_555 1_555
C23 H23 1_555 1_555
C24 C23 1_555 1_555
H24 C24 1_555 1_555
C25 H25 1_555 1_555
C26 H26 1_555 1_555
C27 C26 1_555 1_555
H27 C27 1_555 1_555
C28 H28 1_555 1_555
C29 H29 1_555 1_555
C30 C29 1_555 1_555
H30 C30 1_555 1_555
C31 H31 1_555 1_555
C32 H32 1_555 1_555
C33 C32 1_555 1_555
H33 C33 1_555 1_555
C34 H34 1_555 1_555
C35 H35 1_555 1_555
C36 C35 1_555 1_555
H36 C36 1_555 1_555
C37 H37 1_555 1_555
C38 H38 1_555 1_555
C39 C38 1_555 1_555
H39 C39 1_555 1_555
C40 H40 1_555 1_555
C41 H41 1_555 1_555
C42 C41 1_555 1_555
H42 C42 1_555 1_555
C43 H43 1_555 1_555
C44 H44 1_555 1_555
C45 C44 1_555 1_555
H45 C45 1_555 1_555
C46 H46 1_555 1_555
C47 H47 1_555 1_555
C48 C47 1_555 1_555
H48 C48 1_555 1_555
C49 H49 1_555 1_555
C50 H50 1_555 1_555
C51 C50 1_555 1_555
H51 C51 1_555 1_555
C52 H52 1_555 1_555
C53 H53 1_555 1_555
C54 C53 1_555 1_555
H54 C54 1_555 1_555
C55 H55 1_555 1_555
C56 H56 1_555 1_555
C57 C56 1_555 1_555
H57 C57 1_555 1_555
C58 H58 1_555 1_555
C59 H59 1_555 1_555
C60 C59 1_555 1_555
H60 C60 1_555 1_555
N1 C1 1_555 1_555
N2 C1 1_555 1_555
N3 Zn1 1_555 1_555
N4 C4 1_555 1_555
N5 Zn2 1_555 1_555
N6 C7 1_555 1_555
N7 Zn3 1_555 1_555
N8 C10 1_555 1_555
N9 Zn4 1_555 1_555
N10 C13 1_555 1_555
N11 Zn4 1_555 1_555
N12 C16 1_555 1_555
N13 Zn4 1_555 1_555
N14 C19 1_555 1_555
N15 Zn5 1_555 1_555
N16 C22 1_555 1_555
N17 Zn5 1_555 1_555
N18 C25 1_555 1_555
N19 Zn5 1_555 1_555
N20 C28 1_555 1_555
N21 Zn6 1_555 1_555
N22 C31 1_555 1_555
N23 Zn6 1_555 1_555
N24 C34 1_555 1_555
N25 Zn6 1_555 1_555
N26 C37 1_555 1_555
N27 Zn7 1_555 1_555
N28 C40 1_555 1_555
N29 Zn7 1_555 1_555
N30 C43 1_555 1_555
N31 Zn8 1_555 1_555
N32 C46 1_555 1_555
N33 Zn8 1_555 1_555
N34 C49 1_555 1_555
N35 Zn9 1_555 1_555
N36 C52 1_555 1_555
N37 Zn10 1_555 1_555
N38 C55 1_555 1_555
N39 Zn10 1_555 1_555
N40 C58 1_555 1_555
C61 H61 1_555 1_555
H62 C61 1_555 1_555
C62 C61 1_555 1_555
H63 C62 1_555 1_555
H64 C62 1_555 1_555
C63 C62 1_555 1_555
H65 C63 1_555 1_555
H66 C63 1_555 1_555
C64 C63 1_555 1_555
H67 C64 1_555 1_555
H68 C64 1_555 1_555
H69 C64 1_555 1_555
C65 H70 1_555 1_555
H71 C65 1_555 1_555
C66 C65 1_555 1_555
H72 C66 1_555 1_555
H73 C66 1_555 1_555
C67 C66 1_555 1_555
H74 C67 1_555 1_555
H75 C67 1_555 1_555
C68 C67 1_555 1_555
H76 C68 1_555 1_555
H77 C68 1_555 1_555
H78 C68 1_555 1_555
C69 H79 1_555 1_555
N41 C61 1_555 1_555
O1 C69 1_555 1_555
C70 H80 1_555 1_555
H81 C70 1_555 1_555
C71 C70 1_555 1_555
H82 C71 1_555 1_555
H83 C71 1_555 1_555
C72 C71 1_555 1_555
H84 C72 1_555 1_555
H85 C72 1_555 1_555
C73 C72 1_555 1_555
H86 C73 1_555 1_555
H87 C73 1_555 1_555
H88 C73 1_555 1_555
C74 H89 1_555 1_555
H90 C74 1_555 1_555
C75 C74 1_555 1_555
H91 C75 1_555 1_555
H92 C75 1_555 1_555
C76 C75 1_555 1_555
H93 C76 1_555 1_555
H94 C76 1_555 1_555
C77 C76 1_555 1_555
H95 C77 1_555 1_555
H96 C77 1_555 1_555
H97 C77 1_555 1_555
C78 H98 1_555 1_555
N42 C70 1_555 1_555
O2 C78 1_555 1_555
C79 H99 1_555 1_555
H100 C79 1_555 1_555
C80 C79 1_555 1_555
H101 C80 1_555 1_555
H102 C80 1_555 1_555
C81 C80 1_555 1_555
H103 C81 1_555 1_555
H104 C81 1_555 1_555
C82 C81 1_555 1_555
C83 C84 1_555 1_555
C84 H105 1_555 1_555
H106 C84 1_555 1_555
C85 C84 1_555 1_555
H107 C85 1_555 1_555
H108 C85 1_555 1_555
C86 C85 1_555 1_555
H109 C86 1_555 1_555
H110 C86 1_555 1_555
H111 C86 1_555 1_555
C87 H112 1_555 1_555
N43 C79 1_555 1_555
O3 C87 1_555 1_555
C88 H113 1_555 1_555
H114 C88 1_555 1_555
C89 C88 1_555 1_555
H115 C89 1_555 1_555
H116 C89 1_555 1_555
C90 C89 1_555 1_555
H117 C90 1_555 1_555
H118 C90 1_555 1_555
C91 C90 1_555 1_555
H119 C91 1_555 1_555
H120 C91 1_555 1_555
H121 C91 1_555 1_555
C92 H122 1_555 1_555
H123 C92 1_555 1_555
C93 C92 1_555 1_555
H124 C93 1_555 1_555
H125 C93 1_555 1_555
C94 C93 1_555 1_555
H126 C94 1_555 1_555
H127 C94 1_555 1_555
C95 C94 1_555 1_555
C96 H128 1_555 1_555
N44 C88 1_555 1_555
O4 C96 1_555 1_555
C97 H129 1_555 1_555
H130 C97 1_555 1_555
C98 C97 1_555 1_555
H131 C98 1_555 1_555
H132 C98 1_555 1_555
C99 C98 1_555 1_555
H133 C99 1_555 1_555
H134 C99 1_555 1_555
C100 C99 1_555 1_555
H135 C100 1_555 1_555
H136 C100 1_555 1_555
H137 C100 1_555 1_555
C101 H138 1_555 1_555
H139 C101 1_555 1_555
C102 C101 1_555 1_555
H140 C102 1_555 1_555
H141 C102 1_555 1_555
C103 C102 1_555 1_555
H142 C103 1_555 1_555
H143 C103 1_555 1_555
C104 C103 1_555 1_555
H144 C104 1_555 1_555
H145 C104 1_555 1_555
H146 C104 1_555 1_555
C105 H147 1_555 1_555
N45 C97 1_555 1_555
O5 C105 1_555 1_555
Zn1A N30 1_555 1_555
Zn1C N18 1_555 1_555
Zn2_2 N2 1_555 1_555
Zn2C N40 1_555 1_555
Zn3C N10 1_555 1_555
Zn3C_2 N12 1_555 1_555
Zn7_2 N26 1_555 1_555
Zn8B N16 1_555 1_555
Zn9_2 N34 1_555 1_555
Zn9B N24 1_555 1_555
Zn10C N38 1_555 1_555
N2_2 Zn2 1_555 1_555
N10C Zn3 1_555 1_555
N12C Zn3 1_555 1_555
N16B Zn8 1_555 1_555
N18C Zn1 1_555 1_555
N24B Zn9 1_555 1_555
N26_2 Zn7 1_555 1_555
N30A Zn1 1_555 1_555
N34_2 Zn9 1_555 1_555
N38C Zn10 1_555 1_555
N40C Zn2 1_555 1_555
C2 N2 1_555 1_555
C3 N1 1_555 1_555
C4 N3 1_555 1_555
C5 N4 1_555 1_555
C6 N3 1_555 1_555
C7 N5 1_555 1_555
C8 N6 1_555 1_555
C9 N5 1_555 1_555
C10 N7 1_555 1_555
C11 N8 1_555 1_555
C12 N7 1_555 1_555
C13 N9 1_555 1_555
C14 N10 1_555 1_555
C15 N9 1_555 1_555
C16 N11 1_555 1_555
C17 N12 1_555 1_555
C18 N11 1_555 1_555
C19 N13 1_555 1_555
C20 N14 1_555 1_555
C21 N13 1_555 1_555
C22 N15 1_555 1_555
C23 N15 1_555 1_555
C24 N16 1_555 1_555
C25 N17 1_555 1_555
C26 N18 1_555 1_555
C27 N17 1_555 1_555
C28 N19 1_555 1_555
C29 N19 1_555 1_555
C30 N20 1_555 1_555
C31 N21 1_555 1_555
C32 N22 1_555 1_555
C33 N21 1_555 1_555
C34 N23 1_555 1_555
C35 N24 1_555 1_555
C36 N23 1_555 1_555
C37 N25 1_555 1_555
C38 N25 1_555 1_555
C39 N26 1_555 1_555
C40 N27 1_555 1_555
C41 N28 1_555 1_555
C42 N27 1_555 1_555
C43 N29 1_555 1_555
C44 N30 1_555 1_555
C45 N29 1_555 1_555
C46 N31 1_555 1_555
C47 N31 1_555 1_555
C48 N32 1_555 1_555
C49 N33 1_555 1_555
C50 N33 1_555 1_555
C51 N34 1_555 1_555
C52 N35 1_555 1_555
C53 N36 1_555 1_555
C54 N35 1_555 1_555
C55 N37 1_555 1_555
C56 N37 1_555 1_555
C57 N38 1_555 1_555
C58 N39 1_555 1_555
C59 N39 1_555 1_555
C60 N40 1_555 1_555
C65 N41 1_555 1_555
C69 N41 1_555 1_555
C74 N42 1_555 1_555
C78 N42 1_555 1_555
C83 N43 1_555 1_555
C87 N43 1_555 1_555
C92 N44 1_555 1_555
C96 N44 1_555 1_555
C101 N45 1_555 1_555
C105 N45 1_555 1_555

#END
