
#######################################################################
#
#                 Cambridge Crystallographic Data Centre
#                                CCDC 
#
#######################################################################
#
# If this CIF has been generated from an entry in the Cambridge 
# Structural Database, then it will include bibliographic, chemical, 
# crystal, experimental, refinement or atomic coordinate data resulting 
# from the CCDC's data processing and validation procedures.
#
#######################################################################

data_DADPEG
_chemical_formula_moiety         '(C6 H16 Er2 Fe1 N1 O24 S4)n'
_symmetry_cell_setting           monoclinic
_symmetry_space_group_name_H-M   'C 2/c'
_symmetry_Int_Tables_number      15
_space_group_name_Hall           '-C 2yc'
loop_
_symmetry_equiv_pos_site_id
_symmetry_equiv_pos_as_xyz
1 x,y,z
2 -x,y,1/2-z
3 1/2+x,1/2+y,z
4 1/2-x,1/2+y,1/2-z
5 -x,-y,-z
6 x,-y,1/2+z
7 1/2-x,1/2-y,-z
8 1/2+x,1/2-y,1/2+z
_cell_length_a                   15.5555(14)
_cell_length_b                   16.5429(14)
_cell_length_c                   12.3964(11)
_cell_angle_alpha                90
_cell_angle_beta                 91.9060(10)
_cell_angle_gamma                90
_cell_volume                     3188.24
loop_
_atom_site_label
_atom_site_type_symbol
_atom_site_fract_x
_atom_site_fract_y
_atom_site_fract_z
C3 C -0.1246(19) -0.216(2) 0.676(3)
H2 H -0.1056 -0.2570 0.7258
H3 H -0.1483 -0.2411 0.6114
H4 H -0.0766 -0.1827 0.6575
C4 C -0.2239(16) -0.1012(15) 0.654(2)
H5 H -0.2670 -0.0691 0.6873
H6 H -0.1764 -0.0674 0.6357
H7 H -0.2480 -0.1257 0.5896
N1 N -0.1944(17) -0.1631(14) 0.728(2)
H8 H -0.2386 -0.1941 0.7453
H9 H -0.1727 -0.1404 0.7876
O12 O 0.219(3) 0.507(2) 0.862(3)
H10 H 0.2486 0.5148 0.9174
H11 H 0.1981 0.4613 0.8695
O13 O 0.004(3) 0.430(3) 0.8547(8)
Er1 Er 0.11801(2) 0.18608(2) 0.90641(3)
Fe1 Fe 0.0000 0.04728(9) 0.7500
S1 S 0.10482(12) 0.21854(14) 0.66307(16)
S2 S 0.18953(15) 0.35092(16) 1.0709(2)
O1 O 0.0565(3) 0.0627(3) 0.8993(4)
O2 O 0.1007(3) 0.1403(4) 0.7243(4)
O3 O 0.0827(5) 0.1464(4) 1.0735(5)
O4 O 0.0220(4) 0.2328(4) 0.6067(5)
O5 O 0.1376(5) 0.3051(4) 0.9934(6)
O6 O 0.1192(4) 0.2805(4) 0.7487(5)
O7 O 0.0745(4) 0.0429(4) 1.1834(5)
O8 O 0.1740(4) 0.2180(5) 0.5885(5)
O9 O 0.2626(5) 0.3884(6) 1.0189(10)
C1 C 0.0660(6) 0.0735(6) 1.0912(7)
O10 O 0.1348(6) 0.4060(7) 1.1228(12)
O11 O 0.2357(6) 0.2963(6) 1.1454(7)
C2 C 0.0438(6) 0.0185(6) 0.9962(7)
H1 H 0.0856 -0.0258 0.9982
O1D O -0.0565(3) -0.0627(3) 1.1007(4)
O3D O -0.0827(5) -0.1464(4) 0.9265(5)
O7D O -0.0745(4) -0.0429(4) 0.8166(5)
C1D C -0.0660(6) -0.0735(6) 0.9088(7)
C2D C -0.0438(6) -0.0185(6) 1.0038(7)
H1D H -0.0856 0.0258 1.0018
Er1A Er -0.11801(2) 0.18608(2) 0.59359(3)
S1A S -0.10482(12) 0.21854(14) 0.83693(16)
S2A S -0.18953(15) 0.35092(16) 0.4291(2)
O2A O -0.1007(3) 0.1403(4) 0.7757(4)
O4A O -0.0220(4) 0.2328(4) 0.8933(5)
O5A O -0.1376(5) 0.3051(4) 0.5066(6)
O6A O -0.1192(4) 0.2805(4) 0.7513(5)
O8A O -0.1740(4) 0.2180(5) 0.9115(5)
O9A O -0.2626(5) 0.3884(6) 0.4811(10)
O10A O -0.1348(6) 0.4060(7) 0.3772(12)
O11A O -0.2357(6) 0.2963(6) 0.3546(7)
Er1D Er -0.11801(2) -0.18608(2) 1.09359(3)
Er1F Er 0.38199(2) 0.31392(2) 1.09359(3)
Er1G Er -0.38199(2) 0.31392(2) 0.40641(3)
Fe1D Fe -0.0000 -0.04728(9) 1.2500
O1A O -0.0565(3) 0.0627(3) 0.6007(4)
O3A O -0.0827(5) 0.1464(4) 0.4265(5)
O7E O 0.0745(4) -0.0429(4) 0.6834(5)
O9F O 0.2374(5) 0.1116(6) 0.9811(10)
O9G O -0.2374(5) 0.1116(6) 0.5189(10)
O11F O 0.2643(6) 0.2037(6) 0.8546(7)
O11G O -0.2643(6) 0.2037(6) 0.6454(7)
loop_
_geom_bond_atom_site_label_1
_geom_bond_atom_site_label_2
_geom_bond_site_symmetry_1
_geom_bond_site_symmetry_2
Er1 O1 1_555 1_555
Fe1 O1 1_555 1_555
S1 O2 1_555 1_555
S2 O5 1_555 1_555
O1 C2 1_555 1_555
O2 Er1 1_555 1_555
O3 Er1 1_555 1_555
O4 S1 1_555 1_555
O5 Er1 1_555 1_555
O6 Er1 1_555 1_555
O7 C1 1_555 1_555
O8 S1 1_555 1_555
O9 S2 1_555 1_555
C1 O3 1_555 1_555
O10 S2 1_555 1_555
O11 S2 1_555 1_555
C2 C1 1_555 1_555
H1 C2 1_555 1_555
C3 H2 1_555 1_555
H3 C3 1_555 1_555
H4 C3 1_555 1_555
C4 H5 1_555 1_555
H6 C4 1_555 1_555
H7 C4 1_555 1_555
N1 C3 1_555 1_555
H8 N1 1_555 1_555
H9 N1 1_555 1_555
O12 H10 1_555 1_555
H11 O12 1_555 1_555
O1D C2D 1_555 1_555
O3D C1D 1_555 1_555
O7D Fe1 1_555 1_555
C1D O7D 1_555 1_555
C2D C2 1_555 1_555
H1D C2D 1_555 1_555
Er1A O4 1_555 1_555
S1A O2A 1_555 1_555
S2A O5A 1_555 1_555
O2A Fe1 1_555 1_555
O4A Er1 1_555 1_555
O5A Er1A 1_555 1_555
O6A Er1A 1_555 1_555
O8A S1A 1_555 1_555
O9A S2A 1_555 1_555
O10A S2A 1_555 1_555
O11A S2A 1_555 1_555
Er1D O1D 1_555 1_555
Er1F O9 1_555 1_555
Er1G O9A 1_555 1_555
Fe1D O7 1_555 1_555
O1A Fe1 1_555 1_555
O3A Er1A 1_555 1_555
O7E Fe1 1_555 1_555
O9F Er1 1_555 1_555
O9G Er1A 1_555 1_555
O11F Er1 1_555 1_555
O11G Er1A 1_555 1_555
Fe1 O2 1_555 1_555
S1 O6 1_555 1_555
O11 Er1F 1_555 1_555
C4 N1 1_555 1_555
O1D Fe1D 1_555 1_555
O3D Er1D 1_555 1_555
C1D C2D 1_555 1_555
Er1A O2A 1_555 1_555
Er1A O1A 1_555 1_555
S1A O4A 1_555 1_555
S1A O6A 1_555 1_555
O11A Er1G 1_555 1_555

#END
