
#######################################################################
#
#                 Cambridge Crystallographic Data Centre
#                                CCDC 
#
#######################################################################
#
# If this CIF has been generated from an entry in the Cambridge 
# Structural Database, then it will include bibliographic, chemical, 
# crystal, experimental, refinement or atomic coordinate data resulting 
# from the CCDC's data processing and validation procedures.
#
#######################################################################

data_BASJUB
_chemical_formula_moiety         '(C31 H28 Cl8 Co1 N4 O10)n'
_symmetry_cell_setting           tetragonal
_symmetry_space_group_name_H-M   'P 42/n'
_symmetry_Int_Tables_number      86
_space_group_name_Hall           '-P 4bc'
loop_
_symmetry_equiv_pos_site_id
_symmetry_equiv_pos_as_xyz
1 x,y,z
2 -y,1/2+x,1/2+z
3 1/2+y,-x,1/2+z
4 1/2+x,1/2+y,-z
5 -x,-y,-z
6 y,1/2-x,1/2-z
7 1/2-y,x,1/2-z
8 1/2-x,1/2-y,z
_cell_length_a                   13.0678(9)
_cell_length_b                   13.0678(9)
_cell_length_c                   25.914(1)
_cell_angle_alpha                90
_cell_angle_beta                 90
_cell_angle_gamma                90
_cell_volume                     4425.27
loop_
_atom_site_label
_atom_site_type_symbol
_atom_site_fract_x
_atom_site_fract_y
_atom_site_fract_z
O5 O 0.176(2) 0.173(2) 0.323(1)
C16 C 0.011(1) 0.074(1) 0.0769(6)
Cl2 Cl -0.0880(1) 0.1827(1) 0.0948(6)
Cl3 Cl -0.0031(1) 0.0662(1) 0.0032(6)
Cl4 Cl 0.1306(1) 0.1006(1) 0.0935(6)
Cl3D Cl 0.0031(1) -0.0662(1) -0.0032(6)
C16D C -0.011(1) -0.074(1) -0.0769(6)
Cl2D Cl 0.0880(1) -0.1827(1) -0.0948(6)
Cl4D Cl -0.1306(1) -0.1006(1) -0.0935(6)
O6 O -0.2500 0.2500 0.165(2)
Co1 Co 0.2500 0.2500 0.6187(1)
Cl1 Cl 0.3278(3) 0.0824(3) 0.6190(2)
N1 N 0.143(1) 0.200(1) 0.5590(4)
C1 C 0.171(1) 0.141(2) 0.5198(6)
C2 C 0.107(1) 0.115(1) 0.4779(6)
C3 C 0.006(1) 0.153(1) 0.4801(5)
C4 C -0.025(1) 0.210(1) 0.5211(6)
C5 C 0.048(1) 0.232(1) 0.5595(6)
C6 C -0.063(1) 0.131(1) 0.4349(5)
O1 O -0.037(1) 0.080(1) 0.3989(5)
O2 O -0.1541(8) 0.1745(8) 0.4421(4)
C7 C -0.232(1) 0.154(1) 0.4028(6)
C8 C -0.2500 0.2500 0.3694(8)
C9 C -0.344(1) 0.232(1) 0.3362(5)
O3 O -0.3171(9) 0.1491(9) 0.3023(4)
C10 C -0.390(1) 0.115(2) 0.2691(7)
C11 C -0.359(1) 0.031(1) 0.2365(5)
C12 C -0.262(1) -0.010(1) 0.2405(5)
C13 C -0.235(1) -0.091(1) 0.2090(5)
N2 N -0.298(1) -0.133(1) 0.1744(4)
C14 C -0.392(1) -0.091(1) 0.1704(5)
C15 C -0.424(1) -0.010(1) 0.2000(6)
O4 O -0.474(1) 0.155(1) 0.2677(6)
H1 H 0.2389 0.1147 0.5200
H2 H 0.1303 0.0750 0.4499
H3 H -0.0935 0.2343 0.5238
H4 H 0.0272 0.2735 0.5878
H5 H -0.2944 0.1358 0.4193
H6 H -0.2100 0.0996 0.3814
H7 H -0.3593 0.2919 0.3168
H8 H -0.4007 0.2142 0.3570
H9 H -0.2140 0.0180 0.2644
H10 H -0.1677 -0.1192 0.2122
H11 H -0.4389 -0.1181 0.1459
H12 H -0.4905 0.0171 0.1956
C7G C -0.268(1) 0.346(1) 0.4028(6)
O2G O -0.3459(8) 0.3255(8) 0.4421(4)
C6G C -0.437(1) 0.369(1) 0.4349(5)
C3G C -0.506(1) 0.347(1) 0.4801(5)
C2G C -0.607(1) 0.385(1) 0.4779(6)
C1G C -0.671(1) 0.359(2) 0.5198(6)
N1G N -0.643(1) 0.300(1) 0.5590(4)
C5G C -0.548(1) 0.268(1) 0.5595(6)
C4G C -0.475(1) 0.290(1) 0.5211(6)
H3G H -0.4065 0.2657 0.5238
H4G H -0.5272 0.2265 0.5878
H1G H -0.7389 0.3853 0.5200
H2G H -0.6303 0.4250 0.4499
O1G O -0.463(1) 0.420(1) 0.3989(5)
H5G H -0.2056 0.3642 0.4193
H6G H -0.2900 0.4004 0.3814
C9G C -0.156(1) 0.268(1) 0.3362(5)
O3G O -0.1829(9) 0.3509(9) 0.3023(4)
C10G C -0.110(1) 0.385(2) 0.2691(7)
C11G C -0.141(1) 0.469(1) 0.2365(5)
C12G C -0.238(1) 0.510(1) 0.2405(5)
C13G C -0.265(1) 0.591(1) 0.2090(5)
N2G N -0.202(1) 0.633(1) 0.1744(4)
C14G C -0.108(1) 0.591(1) 0.1704(5)
C15G C -0.076(1) 0.510(1) 0.2000(6)
H12G H -0.0095 0.4829 0.1956
H11G H -0.0611 0.6181 0.1459
H10G H -0.3323 0.6192 0.2122
H9G H -0.2860 0.4820 0.2644
O4G O -0.026(1) 0.345(1) 0.2677(6)
H7G H -0.1407 0.2081 0.3168
H8G H -0.0993 0.2858 0.3570
Cl1G Cl 0.1722(3) 0.4176(3) 0.6190(2)
N1G_2 N 0.357(1) 0.300(1) 0.5590(4)
N2A N 0.133(1) 0.202(1) 0.6744(4)
N2B N 0.367(1) 0.298(1) 0.6744(4)
Co1A Co -0.2500 -0.2500 0.1187(1)
Co1_2 Co -0.7500 0.2500 0.6187(1)
Co1A_2 Co -0.2500 0.7500 0.1187(1)
loop_
_geom_bond_atom_site_label_1
_geom_bond_atom_site_label_2
_geom_bond_site_symmetry_1
_geom_bond_site_symmetry_2
Co1 Cl1 1_555 1_555
N1 Co1 1_555 1_555
C1 N1 1_555 1_555
C2 C1 1_555 1_555
C3 C2 1_555 1_555
C4 C3 1_555 1_555
C5 N1 1_555 1_555
C6 C3 1_555 1_555
O1 C6 1_555 1_555
O2 C6 1_555 1_555
C7 O2 1_555 1_555
C8 C7 1_555 1_555
C9 C8 1_555 1_555
O3 C9 1_555 1_555
C10 O3 1_555 1_555
C11 C10 1_555 1_555
C12 C11 1_555 1_555
C13 C12 1_555 1_555
N2 C13 1_555 1_555
C14 N2 1_555 1_555
C15 C11 1_555 1_555
O4 C10 1_555 1_555
C16 Cl2 1_555 1_555
Cl3 C16 1_555 1_555
Cl4 C16 1_555 1_555
H1 C1 1_555 1_555
H2 C2 1_555 1_555
H3 C4 1_555 1_555
H4 C5 1_555 1_555
H5 C7 1_555 1_555
H6 C7 1_555 1_555
H7 C9 1_555 1_555
H8 C9 1_555 1_555
H9 C12 1_555 1_555
H10 C13 1_555 1_555
H11 C14 1_555 1_555
H12 C15 1_555 1_555
C7G C8 1_555 1_555
O2G C7G 1_555 1_555
C6G O2G 1_555 1_555
C3G C6G 1_555 1_555
C2G C3G 1_555 1_555
C1G C2G 1_555 1_555
N1G C1G 1_555 1_555
C5G N1G 1_555 1_555
C4G C3G 1_555 1_555
H3G C4G 1_555 1_555
H4G C5G 1_555 1_555
H1G C1G 1_555 1_555
H2G C2G 1_555 1_555
O1G C6G 1_555 1_555
H5G C7G 1_555 1_555
H6G C7G 1_555 1_555
C9G C8 1_555 1_555
O3G C9G 1_555 1_555
C10G O3G 1_555 1_555
C11G C10G 1_555 1_555
C12G C11G 1_555 1_555
C13G C12G 1_555 1_555
N2G C13G 1_555 1_555
C14G N2G 1_555 1_555
C15G C11G 1_555 1_555
H12G C15G 1_555 1_555
H11G C14G 1_555 1_555
H10G C13G 1_555 1_555
H9G C12G 1_555 1_555
O4G C10G 1_555 1_555
H7G C9G 1_555 1_555
H8G C9G 1_555 1_555
Cl3D Cl3 1_555 1_555
C16D Cl3D 1_555 1_555
Cl2D C16D 1_555 1_555
Cl4D C16D 1_555 1_555
Cl1G Co1 1_555 1_555
N1G_2 Co1 1_555 1_555
N2A Co1 1_555 1_555
N2B Co1 1_555 1_555
Co1A N2 1_555 1_555
Co1_2 N1G 1_555 1_555
Co1A_2 N2G 1_555 1_555
C4 C5 1_555 1_555
C14 C15 1_555 1_555
C5G C4G 1_555 1_555
C14G C15G 1_555 1_555

#END
