
#######################################################################
#
#                 Cambridge Crystallographic Data Centre
#                                CCDC 
#
#######################################################################
#
# If this CIF has been generated from an entry in the Cambridge 
# Structural Database, then it will include bibliographic, chemical, 
# crystal, experimental, refinement or atomic coordinate data resulting 
# from the CCDC's data processing and validation procedures.
#
#######################################################################

data_IVUVIG
_chemical_formula_moiety         '(C60 H59 N9 O34 Sm4)n'
_symmetry_cell_setting           triclinic
_symmetry_space_group_name_H-M   'P -1'
_symmetry_Int_Tables_number      2
_space_group_name_Hall           '-P 1'
loop_
_symmetry_equiv_pos_site_id
_symmetry_equiv_pos_as_xyz
1 x,y,z
2 -x,-y,-z
_cell_length_a                   11.038(2)
_cell_length_b                   11.249(2)
_cell_length_c                   16.132(3)
_cell_angle_alpha                75.24(3)
_cell_angle_beta                 82.80(3)
_cell_angle_gamma                75.26(3)
_cell_volume                     1869.29
loop_
_atom_site_label
_atom_site_type_symbol
_atom_site_fract_x
_atom_site_fract_y
_atom_site_fract_z
O1 O 0.7585(5) 0.1533(5) 0.2176(3)
C1 C 0.7162(7) 0.2500(7) 0.2461(5)
C2 C 0.7622(7) 0.3659(7) 0.2000(5)
N1 N 0.9750(7) 0.4551(7) 0.0146(5)
O2 O 0.8516(4) 0.9320(5) 1.0076(3)
C3 C 0.9049(7) 0.9250(7) 0.9348(5)
O3 O 1.0207(4) 0.9241(5) 0.9154(3)
O4 O 0.4247(4) 1.0053(5) 0.7587(3)
O5 O 0.4290(5) 0.9811(6) 0.8978(3)
C4 C 0.4864(7) 0.9779(7) 0.8259(5)
C5 C 0.6256(6) 0.9389(7) 0.8165(5)
C6 C 0.6983(7) 0.9404(7) 0.8812(5)
H1 H 0.659862 0.957769 0.932836
C7 C 0.8301(6) 0.9156(7) 0.8675(4)
O6 O 1.3880(4) 0.8814(5) 0.4598(3)
O7 O 1.3794(5) 0.8150(5) 0.3435(3)
C8 C 1.3273(6) 0.8438(7) 0.4121(5)
C9 C 1.1948(7) 0.8373(7) 0.4379(5)
C10 C 1.1467(7) 0.8369(7) 0.5210(5)
H2 H 1.199051 0.835676 0.562286
C11 C 1.1172(7) 0.8399(7) 0.3766(5)
H3 H 1.150136 0.838526 0.320779
Sm1 Sm 0.58754(3) 0.83987(3) 0.37340(2)
Sm2 Sm 0.79283(3) 1.00495(3) 0.13442(2)
C12 C 0.6318(12) 1.3183(17) -0.1906(7)
H4 H 0.695925 1.363950 -0.212822
H5 H 0.551136 1.372396 -0.205199
H6 H 0.646197 1.246166 -0.215059
O8 O 0.9352(5) 0.9028(5) 0.2509(3)
O9 O 0.6383(4) 0.8040(5) 0.5260(3)
H7 H 0.683479 0.727615 0.543772
H8 H 0.569698 0.813603 0.559325
O10 O 0.5790(5) 1.0465(5) 0.4020(3)
H9 H 0.606884 1.095117 0.356962
H10 H 0.624637 1.037189 0.444157
O11 O 0.6409(5) 0.7129(5) 0.2735(3)
O12 O 0.5831(5) 0.6237(5) 0.4452(3)
H11 H 0.657917 0.579719 0.456602
H12 H 0.552706 0.590217 0.412526
O13 O 0.7759(5) 0.7951(5) 0.1747(3)
N2 N 0.9784(6) 0.8481(6) 0.6304(4)
O14 O 0.6418(5) 0.2545(5) 0.3105(4)
C13 C 0.7661(7) 0.5855(7) 0.1850(5)
O15 O 0.7971(5) 0.8327(5) 0.3540(3)
N3 N 0.8620(5) 0.8593(6) 0.6454(4)
O16 O 0.7170(5) 1.1978(5) 0.0297(3)
C14 C 0.7249(6) 0.7074(7) 0.2129(5)
C15 C 0.9402(6) 0.8433(7) 0.4808(4)
H13 H 0.855477 0.845646 0.494916
C16 C 0.8452(7) 0.3618(8) 0.1295(5)
H14 H 0.872540 0.287639 0.110165
C17 C 0.7218(7) 0.4796(7) 0.2281(5)
H15 H 0.665241 0.483676 0.275743
C18 C 0.9910(6) 0.8444(7) 0.3971(4)
C19 C 0.8140(7) 0.8796(7) 0.7285(5)
C20 C 0.9010(6) 0.8606(7) 0.3279(5)
C21 C 1.0209(7) 0.8384(7) 0.5438(4)
C22 C 0.6853(6) 0.9057(7) 0.7416(5)
H16 H 0.637308 0.901071 0.699549
C23 C 0.8891(8) 0.4701(8) 0.0864(5)
C24 C 0.8487(7) 0.5801(8) 0.1125(5)
H17 H 0.875975 0.651694 0.082072
C25 C 0.8874(6) 0.8880(7) 0.7918(5)
H18 H 0.974086 0.874939 0.782166
N4 N 0.6348(15) 1.2761(11) -0.0967(7)
C26 C 0.8512(8) 1.2427(11) -0.1035(7)
H19 H 0.858427 1.202922 -0.150520
H20 H 0.918355 1.199362 -0.066550
H21 H 0.855673 1.329314 -0.125304
C27 C 0.7211(13) 1.2368(10) -0.0510(8)
C28 C 0.5040(9) 1.2645(14) -0.0479(8)
H22 H 0.449195 1.347091 -0.053655
H23 H 0.515590 1.226234 0.011874
H24 H 0.467426 1.213119 -0.072011
O1A O 1.2415(5) 0.8467(5) -0.2176(3)
C1A C 1.2838(7) 0.7500(7) -0.2461(5)
C2A C 1.2378(7) 0.6341(7) -0.2000(5)
N1A N 1.0250(7) 0.5449(7) -0.0146(5)
O11A O 1.3591(5) 0.2871(5) -0.2735(3)
O13A O 1.2241(5) 0.2049(5) -0.1747(3)
O14A O 1.3582(5) 0.7455(5) -0.3105(4)
C13A C 1.2339(7) 0.4145(7) -0.1850(5)
C14A C 1.2751(6) 0.2926(7) -0.2129(5)
C16A C 1.1548(7) 0.6382(8) -0.1295(5)
H14A H 1.127460 0.712361 -0.110165
C17A C 1.2782(7) 0.5204(7) -0.2281(5)
H15A H 1.334759 0.516324 -0.275743
C23A C 1.1109(8) 0.5299(8) -0.0864(5)
C24A C 1.1513(7) 0.4199(8) -0.1125(5)
H17A H 1.124025 0.348306 -0.082072
O2A O 0.1484(4) 1.0680(5) -0.0076(3)
C3A C 0.0951(7) 1.0750(7) 0.0652(5)
O3A O -0.0207(4) 1.0759(5) 0.0846(3)
O4A O 0.5753(4) 0.9947(5) 0.2413(3)
O5A O 0.5710(5) 1.0189(6) 0.1022(3)
C4A C 0.5136(7) 1.0221(7) 0.1741(5)
C5A C 0.3744(6) 1.0611(7) 0.1835(5)
C6A C 0.3017(7) 1.0596(7) 0.1188(5)
H1A H 0.340138 1.042231 0.067164
C7A C 0.1699(6) 1.0844(7) 0.1325(4)
O6A O -0.3880(4) 1.1186(5) 0.5402(3)
O7A O -0.3794(5) 1.1850(5) 0.6565(3)
C8A C -0.3273(6) 1.1562(7) 0.5879(5)
C9A C -0.1948(7) 1.1627(7) 0.5621(5)
C10A C -0.1467(7) 1.1631(7) 0.4790(5)
H2A H -0.199051 1.164324 0.437714
C11A C -0.1172(7) 1.1601(7) 0.6234(5)
H3A H -0.150136 1.161474 0.679221
Sm1A Sm 0.41246(3) 1.16013(3) 0.62660(2)
Sm2A Sm 0.20717(3) 0.99505(3) 0.86558(2)
C12A C 0.3682(12) 0.6817(17) 1.1906(7)
H4A H 0.304075 0.636050 1.212822
H5A H 0.448864 0.627604 1.205199
H6A H 0.353803 0.753834 1.215059
O8A O 0.0648(5) 1.0972(5) 0.7491(3)
O9A O 0.3617(4) 1.1960(5) 0.4740(3)
H7A H 0.316521 1.272385 0.456228
H8A H 0.430302 1.186397 0.440675
O10A O 0.4210(5) 0.9535(5) 0.5980(3)
H9A H 0.393116 0.904883 0.643038
H10A H 0.375363 0.962811 0.555843
O12A O 0.4169(5) 1.3763(5) 0.5548(3)
H11A H 0.342083 1.420281 0.543398
H12A H 0.447294 1.409783 0.587474
N2A N 0.0216(6) 1.1519(6) 0.3696(4)
O15A O 0.2029(5) 1.1673(5) 0.6460(3)
N3A N 0.1380(5) 1.1407(6) 0.3546(4)
O16A O 0.2830(5) 0.8022(5) 0.9703(3)
C15A C 0.0598(6) 1.1567(7) 0.5192(4)
H13A H 0.144523 1.154354 0.505084
C18A C 0.0090(6) 1.1556(7) 0.6029(4)
C19A C 0.1860(7) 1.1204(7) 0.2715(5)
C20A C 0.0990(6) 1.1394(7) 0.6721(5)
C21A C -0.0209(7) 1.1616(7) 0.4562(4)
C22A C 0.3147(6) 1.0943(7) 0.2584(5)
H16A H 0.362692 1.098929 0.300451
C25A C 0.1126(6) 1.1120(7) 0.2082(5)
H18A H 0.025914 1.125061 0.217834
N4A N 0.3652(15) 0.7239(11) 1.0967(7)
C26A C 0.1488(8) 0.7573(11) 1.1035(7)
H19A H 0.141573 0.797078 1.150520
H20A H 0.081645 0.800638 1.066550
H21A H 0.144327 0.670686 1.125304
C27A C 0.2789(13) 0.7632(10) 1.0510(8)
C28A C 0.4960(9) 0.7355(14) 1.0479(8)
H22A H 0.550805 0.652909 1.053655
H23A H 0.484410 0.773766 0.988126
H24A H 0.532574 0.786881 1.072011
O1_2 O 0.7585(5) 1.1533(5) 0.2176(3)
O1A_2 O 0.2415(5) 0.8467(5) 0.7824(3)
O2_2 O 0.8516(4) 0.9320(5) 0.0076(3)
O2A_2 O 0.1484(4) 1.0680(5) 0.9924(3)
O3_2 O 0.0207(4) 0.9241(5) 0.9154(3)
O3A_2 O 0.9793(4) 1.0759(5) 0.0846(3)
O6_2 O 0.3880(4) 0.8814(5) 0.4598(3)
O6A_2 O 0.6120(4) 1.1186(5) 0.5402(3)
O7_2 O 0.3794(5) 0.8150(5) 0.3435(3)
O7A_2 O 0.6206(5) 1.1850(5) 0.6565(3)
Sm1_2 Sm 1.58754(3) 0.83987(3) 0.37340(2)
Sm1A_2 Sm -0.58754(3) 1.16013(3) 0.62660(2)
Sm1A_3 Sm 1.41246(3) 0.16013(3) -0.37340(2)
Sm2_2 Sm -0.20717(3) 1.00495(3) 0.13442(2)
Sm2_3 Sm 0.79283(3) 0.00495(3) 0.13442(2)
Sm2_4 Sm 0.79283(3) 1.00495(3) 1.13442(2)
Sm2A_2 Sm 0.20717(3) 0.99505(3) -0.13442(2)
Sm2A_3 Sm 1.20717(3) -0.00495(3) -0.13442(2)
Sm2A_4 Sm 1.20717(3) 0.99505(3) -0.13442(2)
Sm2A_5 Sm 1.20717(3) 0.99505(3) 0.86558(2)
O11A_2 O 0.3591(5) 1.2871(5) 0.7265(3)
O13A_2 O 0.2241(5) 1.2049(5) 0.8253(3)
O17 O 0.5059(5) 0.5582(6) 0.6134(4)
H25 H 0.481806 0.610277 0.645418
H26 H 0.584129 0.526283 0.617024
C29 C 0.9247(11) 1.5412(11) -0.2803(7)
H27 H 0.955469 1.607192 -0.268339
H28 H 0.960024 1.526409 -0.335276
H29 H 0.948378 1.465160 -0.236655
N5 N 0.7171(14) 1.5923(16) -0.1969(10)
O18 O 0.7411(13) 1.5872(10) -0.3560(9)
C30 C 0.5787(15) 1.6220(19) -0.1835(13)
H30 H 0.555095 1.595993 -0.123537
H31 H 0.544780 1.578032 -0.215421
H32 H 0.546222 1.711412 -0.203013
C31 C 0.792(3) 1.571(2) -0.1189(13)
H33 H 0.777292 1.649059 -0.100533
H34 H 0.880317 1.544664 -0.134190
H35 H 0.767037 1.507707 -0.072961
C32 C 0.773(2) 1.5833(17) -0.281(2)
loop_
_geom_bond_atom_site_label_1
_geom_bond_atom_site_label_2
_geom_bond_site_symmetry_1
_geom_bond_site_symmetry_2
O1 C1 1_555 1_555
C1 C2 1_555 1_555
C2 C16 1_555 1_555
N1 C23 1_555 1_555
O2 C3 1_555 1_555
C3 O3 1_555 1_555
O3 Sm2A_5 1_555 1_555
O4 C4 1_555 1_555
O5 C4 1_555 1_555
C4 C5 1_555 1_555
C5 C6 1_555 1_555
C6 H1 1_555 1_555
C7 C3 1_555 1_555
O6 C8 1_555 1_555
O7 C8 1_555 1_555
C8 C9 1_555 1_555
C9 C10 1_555 1_555
C10 H2 1_555 1_555
C11 C9 1_555 1_555
H3 C11 1_555 1_555
Sm1 O9 1_555 1_555
Sm2 O8 1_555 1_555
C12 H4 1_555 1_555
H5 C12 1_555 1_555
H6 C12 1_555 1_555
O8 C20 1_555 1_555
O9 H7 1_555 1_555
H8 O9 1_555 1_555
O10 Sm1 1_555 1_555
H9 O10 1_555 1_555
H10 O10 1_555 1_555
O11 Sm1 1_555 1_555
O12 Sm1 1_555 1_555
H11 O12 1_555 1_555
H12 O12 1_555 1_555
O13 Sm2 1_555 1_555
N2 N3 1_555 1_555
O14 C1 1_555 1_555
C13 C14 1_555 1_555
O15 Sm1 1_555 1_555
N3 C19 1_555 1_555
O16 Sm2 1_555 1_555
C14 O11 1_555 1_555
C15 H13 1_555 1_555
C16 H14 1_555 1_555
C17 C2 1_555 1_555
H15 C17 1_555 1_555
C18 C11 1_555 1_555
C19 C22 1_555 1_555
C20 O15 1_555 1_555
C21 C10 1_555 1_555
C22 C5 1_555 1_555
H16 C22 1_555 1_555
C23 C16 1_555 1_555
C24 C13 1_555 1_555
H17 C24 1_555 1_555
C25 C7 1_555 1_555
H18 C25 1_555 1_555
N4 C12 1_555 1_555
C26 H19 1_555 1_555
H20 C26 1_555 1_555
H21 C26 1_555 1_555
C27 O16 1_555 1_555
C28 N4 1_555 1_555
H22 C28 1_555 1_555
H23 C28 1_555 1_555
H24 C28 1_555 1_555
O17 H25 1_555 1_555
H26 O17 1_555 1_555
C29 H27 1_555 1_555
H28 C29 1_555 1_555
H29 C29 1_555 1_555
N5 C30 1_555 1_555
O18 C32 1_555 1_555
C30 H30 1_555 1_555
H31 C30 1_555 1_555
H32 C30 1_555 1_555
C31 N5 1_555 1_555
H33 C31 1_555 1_555
H34 C31 1_555 1_555
H35 C31 1_555 1_555
C32 C29 1_555 1_555
O1A C1A 1_555 1_555
C1A C2A 1_555 1_555
C2A C16A 1_555 1_555
N1A N1 1_555 1_555
O11A C14A 1_555 1_555
O13A C14A 1_555 1_555
O14A C1A 1_555 1_555
C13A C14A 1_555 1_555
C16A H14A 1_555 1_555
C17A C2A 1_555 1_555
H15A C17A 1_555 1_555
C23A N1A 1_555 1_555
C24A C13A 1_555 1_555
H17A C24A 1_555 1_555
O2A C3A 1_555 1_555
C3A O3A 1_555 1_555
O3A Sm2_2 1_555 1_555
O4A Sm1 1_555 1_555
O5A Sm2 1_555 1_555
C4A O4A 1_555 1_555
C5A C4A 1_555 1_555
C6A C5A 1_555 1_555
H1A C6A 1_555 1_555
C7A C3A 1_555 1_555
O6A C8A 1_555 1_555
O7A C8A 1_555 1_555
C8A C9A 1_555 1_555
C9A C10A 1_555 1_555
C10A H2A 1_555 1_555
C11A C9A 1_555 1_555
H3A C11A 1_555 1_555
Sm1A O4 1_555 1_555
Sm2A O4 1_555 1_555
C12A H4A 1_555 1_555
H5A C12A 1_555 1_555
H6A C12A 1_555 1_555
O8A Sm2A 1_555 1_555
O9A Sm1A 1_555 1_555
H7A O9A 1_555 1_555
H8A O9A 1_555 1_555
O10A Sm1A 1_555 1_555
H9A O10A 1_555 1_555
H10A O10A 1_555 1_555
O12A Sm1A 1_555 1_555
H11A O12A 1_555 1_555
H12A O12A 1_555 1_555
N2A N3A 1_555 1_555
O15A Sm1A 1_555 1_555
N3A C19A 1_555 1_555
O16A Sm2A 1_555 1_555
C15A H13A 1_555 1_555
C18A C11A 1_555 1_555
C19A C22A 1_555 1_555
C20A O8A 1_555 1_555
C21A C10A 1_555 1_555
C22A C5A 1_555 1_555
H16A C22A 1_555 1_555
C25A C7A 1_555 1_555
H18A C25A 1_555 1_555
N4A C12A 1_555 1_555
C26A H19A 1_555 1_555
H20A C26A 1_555 1_555
H21A C26A 1_555 1_555
C27A O16A 1_555 1_555
C28A N4A 1_555 1_555
H22A C28A 1_555 1_555
H23A C28A 1_555 1_555
H24A C28A 1_555 1_555
O1_2 Sm2 1_555 1_555
O1A_2 Sm2A 1_555 1_555
O2_2 Sm2 1_555 1_555
O2A_2 Sm2A 1_555 1_555
O3_2 Sm2A 1_555 1_555
O3A_2 Sm2 1_555 1_555
O6_2 Sm1 1_555 1_555
O6A_2 Sm1A 1_555 1_555
O7_2 Sm1 1_555 1_555
O7A_2 Sm1A 1_555 1_555
Sm1_2 O6 1_555 1_555
Sm1A_2 O6A 1_555 1_555
Sm1A_3 O11A 1_555 1_555
Sm2_3 O1 1_555 1_555
Sm2_4 O2 1_555 1_555
Sm2A_2 O2A 1_555 1_555
Sm2A_3 O13A 1_555 1_555
Sm2A_4 O1A 1_555 1_555
O11A_2 Sm1A 1_555 1_555
O13A_2 Sm2A 1_555 1_555
O5 Sm2A 1_555 1_555
C6 C7 1_555 1_555
O7 Sm1_2 1_555 1_555
Sm2 O4A 1_555 1_555
O13 C14 1_555 1_555
N2 C21 1_555 1_555
C13 C17 1_555 1_555
C15 C18 1_555 1_555
C15 C21 1_555 1_555
C18 C20 1_555 1_555
C19 C25 1_555 1_555
C23 C24 1_555 1_555
N4 C27 1_555 1_555
C26 C27 1_555 1_555
N5 C32 1_555 1_555
C13A C17A 1_555 1_555
C16A C23A 1_555 1_555
C23A C24A 1_555 1_555
O5A C4A 1_555 1_555
C6A C7A 1_555 1_555
O7A Sm1A_2 1_555 1_555
N2A C21A 1_555 1_555
O15A C20A 1_555 1_555
C15A C18A 1_555 1_555
C15A C21A 1_555 1_555
C18A C20A 1_555 1_555
C19A C25A 1_555 1_555
N4A C27A 1_555 1_555
C26A C27A 1_555 1_555

#END
