
#######################################################################
#
#                 Cambridge Crystallographic Data Centre
#                                CCDC 
#
#######################################################################
#
# If this CIF has been generated from an entry in the Cambridge 
# Structural Database, then it will include bibliographic, chemical, 
# crystal, experimental, refinement or atomic coordinate data resulting 
# from the CCDC's data processing and validation procedures.
#
#######################################################################

data_BOJDAG
_chemical_formula_moiety         'C4 H12 F5 N2 O46 P10 Zr15'
_symmetry_cell_setting           orthorhombic
_symmetry_space_group_name_H-M   'P n n m'
_symmetry_Int_Tables_number      58
_space_group_name_Hall           '-P 2 2n'
loop_
_symmetry_equiv_pos_site_id
_symmetry_equiv_pos_as_xyz
1 x,y,z
2 1/2+x,1/2-y,1/2-z
3 1/2-x,1/2+y,1/2-z
4 -x,-y,z
5 -x,-y,-z
6 1/2-x,1/2+y,1/2+z
7 1/2+x,1/2-y,1/2+z
8 x,y,-z
_cell_length_a                   19.15954(23)
_cell_length_b                   15.14276(13)
_cell_length_c                   6.61804(6)
_cell_angle_alpha                90
_cell_angle_beta                 90
_cell_angle_gamma                90
_cell_volume                     1920.08
loop_
_atom_site_label
_atom_site_type_symbol
_atom_site_fract_x
_atom_site_fract_y
_atom_site_fract_z
_atom_site_U_iso_or_equiv
_atom_site_thermal_displace_type
O1 O 0.50000 0.00000 0.0000 0.0390 Uiso
Zr1 Zr 0.11320(16) 0.60463(17) 1.0000 0.0163 Uiso
Zr2 Zr 0.31685(16) 0.51094(18) 0.5000 0.0163 Uiso
Zr3 Zr 0.22056(16) 0.27578(18) 1.0000 0.0163 Uiso
P1 P 0.1532(5) 0.6142(5) 0.5000 0.0093 Uiso
P2 P 0.2773(4) 0.4992(5) 1.0000 0.0093 Uiso
P3 P 0.2267(5) 0.7836(5) 1.0000 0.0093 Uiso
P4 P 0.0599(6) 0.3875(7) 0.9217(13) 0.0093 Uiso
O2 O 0.2093(9) 0.5516(11) 1.0000 0.0111 Uiso
O3 O 0.0777(9) 0.4794(12) 1.0000 0.0111 Uiso
F1 F 0.3309(8) 0.6502(9) 0.5000 0.0111 Uiso
O4 O 0.1584(10) 0.7180(11) 1.0000 0.0111 Uiso
O5 O 0.2617(9) 0.4018(12) 1.0000 0.0111 Uiso
O6 O 0.1148(10) 0.3252(11) 1.0000 0.0111 Uiso
O7 O 0.1883(10) 0.7073(11) 0.5000 0.0111 Uiso
O8 O 0.2107(9) 0.5484(11) 0.5000 0.0111 Uiso
O9 O 0.3194(6) 0.5179(7) 0.8108(15) 0.0111 Uiso
O10 O 0.1073(6) 0.6046(7) 0.6843(14) 0.0111 Uiso
O11 O 0.2751(6) 0.7704(7) 0.8132(15) 0.0111 Uiso
F2 F 0.4184(7) 0.5105(9) 0.5000 0.0111 Uiso
O12 O -0.0122(10) 0.3515(11) 1.0000 0.0111 Uiso
O13 O 0.2037(10) 0.8809(11) 1.0000 0.0111 Uiso
O14 O 0.0660(13) 0.3837(15) 0.6809(29) 0.0111 Uiso
H5 H 0.041(12) 0.423(12) 0.5831(6) 0.0800 Uiso
Zr1D Zr -0.11320(16) 0.39537(17) 1.0000 0.0163 Uiso
Zr1_2 Zr 0.11320(16) 0.60463(17) 0.0000 0.0163 Uiso
Zr1_3 Zr 0.11320(16) 0.60463(17) 2.0000 0.0163 Uiso
Zr1E Zr 0.38680(16) 0.10463(17) 0.5000 0.0163 Uiso
Zr2_2 Zr 0.31685(16) 0.51094(18) 1.5000 0.0163 Uiso
Zr2E Zr 0.18315(16) 1.01094(18) 1.0000 0.0163 Uiso
Zr2_3 Zr 0.31685(16) 0.51094(18) -0.5000 0.0163 Uiso
Zr2E_2 Zr 0.18315(16) 0.01094(18) 1.0000 0.0163 Uiso
Zr3E Zr 0.27944(16) 0.77578(18) 0.5000 0.0163 Uiso
Zr3E_2 Zr 0.27944(16) 0.77578(18) 1.5000 0.0163 Uiso
Zr3D Zr -0.22056(16) 0.72422(18) 1.0000 0.0163 Uiso
Zr3_2 Zr 0.22056(16) 0.27578(18) 0.0000 0.0163 Uiso
P1_2 P 0.1532(5) 0.6142(5) 1.5000 0.0093 Uiso
P2_2 P 0.2773(4) 0.4992(5) 0.0000 0.0093 Uiso
P3E P 0.2733(5) 0.2836(5) 0.5000 0.0093 Uiso
P4G P 0.0599(6) 0.3875(7) 1.0783(13) 0.0093 Uiso
P4D P -0.0599(6) 0.6125(7) 1.0783(13) 0.0093 Uiso
P4C P -0.0599(6) 0.6125(7) 0.9217(13) 0.0093 Uiso
O2_2 O 0.2093(9) 0.5516(11) 0.0000 0.0111 Uiso
O2D O -0.2093(9) 0.4484(11) 1.0000 0.0111 Uiso
O3D O -0.0777(9) 0.5206(12) 1.0000 0.0111 Uiso
F1E F 0.1691(8) 0.1502(9) 1.0000 0.0111 Uiso
F1_2 F 0.3309(8) 0.6502(9) 1.5000 0.0111 Uiso
O4E O 0.3416(10) 0.2180(11) 0.5000 0.0111 Uiso
O4D O -0.1584(10) 0.2820(11) 1.0000 0.0111 Uiso
O5_2 O 0.2617(9) 0.4018(12) 0.0000 0.0111 Uiso
O5E O 0.2383(9) 0.9018(12) 0.5000 0.0111 Uiso
O6D O -0.1148(10) 0.6748(11) 1.0000 0.0111 Uiso
O6E O 0.3852(10) 0.8252(11) 0.5000 0.0111 Uiso
O7_2 O 0.1883(10) 0.7073(11) 1.5000 0.0111 Uiso
O7E O 0.3117(10) 0.2073(11) 1.0000 0.0111 Uiso
O8_2 O 0.2107(9) 0.5484(11) 1.5000 0.0111 Uiso
O9G O 0.3194(6) 0.5179(7) 1.1892(15) 0.0111 Uiso
O9G_2 O 0.3194(6) 0.5179(7) 0.1892(15) 0.0111 Uiso
O9_2 O 0.3194(6) 0.5179(7) -0.1892(15) 0.0111 Uiso
O9_3 O 0.3194(6) 0.5179(7) 1.8108(15) 0.0111 Uiso
O10G O 0.1073(6) 0.6046(7) 0.3157(14) 0.0111 Uiso
O10G_2 O 0.1073(6) 0.6046(7) 1.3157(14) 0.0111 Uiso
O10_2 O 0.1073(6) 0.6046(7) 1.6843(14) 0.0111 Uiso
O10D O -0.1073(6) 0.3954(7) 1.3157(14) 0.0111 Uiso
O10C O -0.1073(6) 0.3954(7) 0.6843(14) 0.0111 Uiso
O11G O 0.2751(6) 0.7704(7) 1.1868(15) 0.0111 Uiso
O11B O 0.2249(6) 0.2704(7) 0.6868(15) 0.0111 Uiso
O11E O 0.2249(6) 0.2704(7) 0.3132(15) 0.0111 Uiso
O11E_2 O 0.2249(6) 0.2704(7) 1.3132(15) 0.0111 Uiso
O11G_2 O 0.2751(6) 0.7704(7) 0.1868(15) 0.0111 Uiso
F2_2 F 0.4184(7) 0.5105(9) 1.5000 0.0111 Uiso
O12D O 0.0122(10) 0.6485(11) 1.0000 0.0111 Uiso
O13E O 0.2963(10) 0.3809(11) 0.5000 0.0111 Uiso
O13E_2 O 0.2963(10) 0.3809(11) 1.5000 0.0111 Uiso
O14G O 0.0660(13) 0.3837(15) 1.3191(29) 0.0111 Uiso
O14D O -0.0660(13) 0.6163(15) 1.3191(29) 0.0111 Uiso
O14C O -0.0660(13) 0.6163(15) 0.6809(29) 0.0111 Uiso
H5G H 0.041(12) 0.423(12) 1.4169(6) 0.0800 Uiso
H5D H -0.041(12) 0.577(12) 1.4169(6) 0.0800 Uiso
H5C H -0.041(12) 0.577(12) 0.5831(6) 0.0800 Uiso
C1 C 0.5758(9) 0.3049(17) 0.0000 0.0670 Uiso
C2 C 0.5548(8) 0.3609(18) 0.1571(25) 0.0670 Uiso
N1 N 0.4865(8) 0.3937(14) 0.1617(26) 0.0670 Uiso
C3 C 0.4412(8) 0.3771(18) 0.0000 0.0670 Uiso
H1 H 0.6240(13) 0.2785(28) 0.0000 0.0800 Uiso
H2 H 0.587(4) 0.373(11) 0.274(16) 0.0800 Uiso
H3 H 0.4689(23) 0.425(6) 0.287(8) 0.0800 Uiso
H4 H 0.3930(11) 0.4036(29) 0.0000 0.0800 Uiso
C2G C 0.5548(8) 0.3609(18) -0.1571(25) 0.0670 Uiso
N1G N 0.4865(8) 0.3937(14) -0.1617(26) 0.0670 Uiso
H2G H 0.587(4) 0.373(11) -0.274(16) 0.0800 Uiso
H3G H 0.4689(23) 0.425(6) -0.287(8) 0.0800 Uiso
loop_
_geom_bond_atom_site_label_1
_geom_bond_atom_site_label_2
_geom_bond_site_symmetry_1
_geom_bond_site_symmetry_2
C1 C2 1_555 1_555
C2 N1 1_555 1_555
N1 C3 1_555 1_555
C3 H4 1_555 1_555
H1 C1 1_555 1_555
H2 C2 1_555 1_555
H3 N1 1_555 1_555
Zr1 O2 1_555 1_555
Zr2 F1 1_555 1_555
Zr3 O5 1_555 1_555
P1 O7 1_555 1_555
P2 O2 1_555 1_555
P3 O4 1_555 1_555
P4 O3 1_555 1_555
O3 Zr1 1_555 1_555
F1 Zr3E 1_555 1_555
O4 Zr1 1_555 1_555
O5 P2 1_555 1_555
O6 Zr3 1_555 1_555
O7 Zr3E 1_555 1_555
O8 Zr2 1_555 1_555
O9 Zr2 1_555 1_555
O10 Zr1 1_555 1_555
O11 P3 1_555 1_555
F2 Zr2 1_555 1_555
O12 P4 1_555 1_555
O13 P3 1_555 1_555
O14 P4 1_555 1_555
H5 O14 1_555 1_555
C2G C1 1_555 1_555
N1G C3 1_555 1_555
H2G C2G 1_555 1_555
H3G N1G 1_555 1_555
Zr1D O12 1_555 1_555
Zr1_2 O2_2 1_555 1_555
Zr1_3 O10_2 1_555 1_555
Zr1E O4E 1_555 1_555
Zr2_2 F1_2 1_555 1_555
Zr2E O13 1_555 1_555
Zr2_3 O9_2 1_555 1_555
Zr2E_2 F1E 1_555 1_555
Zr3E O11 1_555 1_555
Zr3E_2 F1_2 1_555 1_555
Zr3D O6D 1_555 1_555
Zr3_2 O5_2 1_555 1_555
P1_2 O7_2 1_555 1_555
P2_2 O2_2 1_555 1_555
P3E O4E 1_555 1_555
P4G P4 1_555 1_555
P4D P4C 1_555 1_555
P4C O3D 1_555 1_555
O2D Zr1D 1_555 1_555
O3D Zr1D 1_555 1_555
F1E Zr3 1_555 1_555
O4D Zr1D 1_555 1_555
O5_2 P2_2 1_555 1_555
O5E Zr3E 1_555 1_555
O6D P4D 1_555 1_555
O6E Zr3E 1_555 1_555
O7_2 Zr3E_2 1_555 1_555
O7E Zr3 1_555 1_555
O8_2 Zr2_2 1_555 1_555
O9G P2 1_555 1_555
O9G_2 Zr2 1_555 1_555
O9_2 P2_2 1_555 1_555
O9_3 Zr2_2 1_555 1_555
O10G P1 1_555 1_555
O10G_2 Zr1 1_555 1_555
O10_2 P1_2 1_555 1_555
O10D Zr1D 1_555 1_555
O10C Zr1D 1_555 1_555
O11G P3 1_555 1_555
O11B Zr3 1_555 1_555
O11E Zr3_2 1_555 1_555
O11E_2 Zr3 1_555 1_555
O11G_2 Zr3E 1_555 1_555
F2_2 Zr2_2 1_555 1_555
O12D Zr1 1_555 1_555
O13E Zr2 1_555 1_555
O13E_2 Zr2_2 1_555 1_555
O14G P4G 1_555 1_555
O14D P4D 1_555 1_555
O14C P4C 1_555 1_555
H5G O14G 1_555 1_555
H5D O14D 1_555 1_555
H5C O14C 1_555 1_555
P1 O8 1_555 1_555
P1 O10 1_555 1_555
P2 O9 1_555 1_555
P4 O6 1_555 1_555
O3 P4G 1_555 1_555
O6 P4G 1_555 1_555
O12 P4G 1_555 1_555
C2G N1G 1_555 1_555
Zr1_2 O10G 1_555 1_555
Zr2_2 O9G 1_555 1_555
Zr3E_2 O11G 1_555 1_555
P1_2 O8_2 1_555 1_555
P1_2 O10G_2 1_555 1_555
P2_2 O9G_2 1_555 1_555
P3E O11B 1_555 1_555
P3E O11E 1_555 1_555
P3E O13E 1_555 1_555
P4D O3D 1_555 1_555
P4D O12D 1_555 1_555
P4C O6D 1_555 1_555
P4C O12D 1_555 1_555

#END
