
#######################################################################
#
#                 Cambridge Crystallographic Data Centre
#                                CCDC 
#
#######################################################################
#
# If this CIF has been generated from an entry in the Cambridge 
# Structural Database, then it will include bibliographic, chemical, 
# crystal, experimental, refinement or atomic coordinate data resulting 
# from the CCDC's data processing and validation procedures.
#
#######################################################################

data_FIGQUJ
_chemical_formula_moiety         '(C21 H31 Cu2 N3 O14)n'
_symmetry_cell_setting           triclinic
_symmetry_space_group_name_H-M   'P -1'
_symmetry_Int_Tables_number      2
_space_group_name_Hall           '-P 1'
loop_
_symmetry_equiv_pos_site_id
_symmetry_equiv_pos_as_xyz
1 x,y,z
2 -x,-y,-z
_cell_length_a                   8.531(2)
_cell_length_b                   12.570(4)
_cell_length_c                   13.252(4)
_cell_angle_alpha                105.078(3)
_cell_angle_beta                 90.123(3)
_cell_angle_gamma                107.139(3)
_cell_volume                     1306.43
loop_
_atom_site_label
_atom_site_type_symbol
_atom_site_fract_x
_atom_site_fract_y
_atom_site_fract_z
Cu1 Cu 0.50779(15) 0.40404(11) 0.02052(9)
Cu2 Cu 0.00930(14) 0.40511(11) 0.43273(9)
O1 O 0.2468(8) 0.4938(7) 0.4550(5)
O2 O 0.0177(9) 0.5144(7) -0.3282(5)
O3 O 0.4784(8) 0.4857(6) 0.1650(5)
O4 O 0.2307(7) 0.6559(6) 0.5623(5)
O5 O 0.2583(9) 0.5095(7) -0.0415(5)
O6 O 0.2671(8) 0.3461(6) -0.0109(5)
O7 O 0.4740(9) 0.6506(7) 0.1308(5)
O8 O 0.0305(9) 0.3517(6) -0.4431(5)
O9 O 0.6957(14) 0.0732(9) -0.2093(10)
N1 N 0.5680(9) 0.2641(7) 0.0622(6)
N2 N 0.7368(11) 0.0234(8) -0.0524(7)
H1 H 0.7680 -0.0254 -0.0262
N3 N 0.9355(10) -0.2628(9) -0.3245(8)
C1 C 0.3071(12) 0.5950(10) 0.5053(8)
C2 C 0.4836(11) 0.6525(9) 0.4984(7)
H2 H 0.5508 0.6377 0.5511
H3 H 0.5040 0.7371 0.5145
C3 C 0.5366(11) 0.6075(9) 0.3874(7)
H4 H 0.5163 0.5229 0.3710
H5 H 0.6559 0.6447 0.3857
C4 C 0.4373(12) 0.6353(9) 0.3029(7)
H6 H 0.3183 0.6044 0.3105
H7 H 0.4648 0.7204 0.3176
C5 C 0.4686(11) 0.5870(10) 0.1910(8)
C6 C 0.1926(13) 0.4069(10) -0.0411(8)
C7 C 0.0149(13) 0.3515(11) -0.0782(8)
H8 H -0.0522 0.3685 -0.0187
H9 H -0.0078 0.2665 -0.1023
C8 C -0.0365(13) 0.3938(11) -0.1677(8)
H10 H -0.0144 0.4787 -0.1441
H11 H -0.1561 0.3574 -0.1875
C9 C 0.0599(14) 0.3625(11) -0.2634(8)
H12 H 0.1790 0.3906 -0.2405
H13 H 0.0278 0.2772 -0.2907
C10 C 0.0305(11) 0.4138(11) -0.3521(9)
C11 C 0.6134(12) 0.1845(9) -0.0078(8)
H14 H 0.5999 0.1806 -0.0799
C12 C 0.6799(12) 0.1064(10) 0.0199(8)
C13 C 0.6977(14) 0.1171(11) 0.1282(9)
H15 H 0.7415 0.0657 0.1518
C14 C 0.6532(18) 0.1997(11) 0.1985(9)
H16 H 0.6664 0.2074 0.2715
C15 C 0.5895(13) 0.2713(9) 0.1633(8)
H17 H 0.5588 0.3295 0.2132
C16 C 0.870(2) -0.0841(15) -0.2994(15)
H18 H 0.8728 -0.0196 -0.3250
C17 C 0.817(2) -0.0922(16) -0.212(2)
C18 C 0.9216(17) -0.1726(12) -0.3547(12)
H19 H 0.9519 -0.1699 -0.4231
C19 C 0.8850(19) -0.2698(12) -0.2321(12)
H20 H 0.8885 -0.3329 -0.2062
C20 C 0.8235(17) -0.1790(15) -0.1704(12)
H21 H 0.7888 -0.1802 -0.1025
C21 C 0.749(2) 0.0101(15) -0.1561(13)
Cu1A Cu 0.49221(15) 0.59596(11) -0.02052(9)
Cu2_2 Cu 0.00930(14) 0.40511(11) -0.56727(9)
Cu2A Cu -0.00930(14) 0.59489(11) -0.43273(9)
Cu2A_2 Cu -0.00930(14) 0.59489(11) 0.56727(9)
Cu2A_3 Cu 0.99070(14) -0.40511(11) -0.43273(9)
O2A O -0.0177(9) 0.4856(7) 0.3282(5)
O4A O -0.2307(7) 0.3441(6) 0.4377(5)
O5A O 0.7417(9) 0.4905(7) 0.0415(5)
O7A O 0.5260(9) 0.3494(7) -0.1308(5)
O8_2 O 0.0305(9) 0.3517(6) 0.5569(5)
N3A N 0.0645(10) 0.2628(9) 0.3245(8)
O10 O 0.1506(13) 0.0970(10) -0.0783(9)
O11 O 0.2822(19) 0.1138(13) -0.2550(13)
O12 O 0.130(4) 0.0576(19) -0.450(3)
O13 O 0.286(4) -0.122(2) -0.494(3)
O14 O 0.511(3) 0.033(2) -0.3733(18)
loop_
_geom_bond_atom_site_label_1
_geom_bond_atom_site_label_2
_geom_bond_site_symmetry_1
_geom_bond_site_symmetry_2
Cu1 O3 1_555 1_555
Cu2 O1 1_555 1_555
O1 C1 1_555 1_555
O2 C10 1_555 1_555
O3 C5 1_555 1_555
O4 C1 1_555 1_555
O5 C6 1_555 1_555
O6 Cu1 1_555 1_555
O7 C5 1_555 1_555
O8 C10 1_555 1_555
O9 C21 1_555 1_555
N1 Cu1 1_555 1_555
N2 H1 1_555 1_555
N3 C18 1_555 1_555
C1 C2 1_555 1_555
C2 H2 1_555 1_555
H3 C2 1_555 1_555
C3 C2 1_555 1_555
H4 C3 1_555 1_555
H5 C3 1_555 1_555
C4 C3 1_555 1_555
H6 C4 1_555 1_555
H7 C4 1_555 1_555
C5 C4 1_555 1_555
C6 O6 1_555 1_555
C7 C6 1_555 1_555
H8 C7 1_555 1_555
H9 C7 1_555 1_555
C8 C7 1_555 1_555
H10 C8 1_555 1_555
H11 C8 1_555 1_555
C9 C8 1_555 1_555
H12 C9 1_555 1_555
H13 C9 1_555 1_555
C10 C9 1_555 1_555
C11 N1 1_555 1_555
H14 C11 1_555 1_555
C12 N2 1_555 1_555
C13 C12 1_555 1_555
H15 C13 1_555 1_555
C14 C13 1_555 1_555
H16 C14 1_555 1_555
C15 N1 1_555 1_555
H17 C15 1_555 1_555
C16 H18 1_555 1_555
C17 C16 1_555 1_555
C18 C16 1_555 1_555
H19 C18 1_555 1_555
C19 N3 1_555 1_555
H20 C19 1_555 1_555
C20 C17 1_555 1_555
H21 C20 1_555 1_555
C21 N2 1_555 1_555
Cu1A O5 1_555 1_555
Cu2_2 O8 1_555 1_555
Cu2A O2 1_555 1_555
Cu2A_2 O4 1_555 1_555
Cu2A_3 N3 1_555 1_555
O2A Cu2 1_555 1_555
O4A Cu2 1_555 1_555
O5A Cu1 1_555 1_555
O7A Cu1 1_555 1_555
O8_2 Cu2 1_555 1_555
N3A Cu2 1_555 1_555
O7 Cu1A 1_555 1_555
C11 C12 1_555 1_555
C14 C15 1_555 1_555
C17 C21 1_555 1_555
C19 C20 1_555 1_555

#END
