
#######################################################################
#
#                 Cambridge Crystallographic Data Centre
#                                CCDC 
#
#######################################################################
#
# If this CIF has been generated from an entry in the Cambridge 
# Structural Database, then it will include bibliographic, chemical, 
# crystal, experimental, refinement or atomic coordinate data resulting 
# from the CCDC's data processing and validation procedures.
#
#######################################################################

data_XUNVEJ
_chemical_formula_moiety         '(C82 H108 B2 Cd3 N4 O16)n'
_symmetry_cell_setting           monoclinic
_symmetry_space_group_name_H-M   'P 21/c'
_symmetry_Int_Tables_number      14
_space_group_name_Hall           '-P 2ybc'
loop_
_symmetry_equiv_pos_site_id
_symmetry_equiv_pos_as_xyz
1 x,y,z
2 -x,1/2+y,1/2-z
3 -x,-y,-z
4 x,1/2-y,1/2+z
_cell_length_a                   14.9156(7)
_cell_length_b                   15.0624(8)
_cell_length_c                   28.7668(11)
_cell_angle_alpha                90
_cell_angle_beta                 117.561(3)
_cell_angle_gamma                90
_cell_volume                     5729.47
loop_
_atom_site_label
_atom_site_type_symbol
_atom_site_fract_x
_atom_site_fract_y
_atom_site_fract_z
Cd1 Cd 0.5000 1.0000 0.5000
Cd2 Cd 1.29345(4) 0.66412(4) 0.930248(18)
O1 O 1.1423(4) 0.6243(5) 0.8538(2)
O2 O 1.1340(4) 0.6756(5) 0.9233(2)
O3 O 0.5065(5) 0.8593(4) 0.5266(2)
O4 O 0.3658(5) 0.7853(4) 0.5109(2)
O5 O 0.5139(4) 0.5444(4) 0.93104(19)
O6 O 0.3940(4) 0.6487(4) 0.8936(2)
O7 O 1.2808(5) 0.8067(5) 0.8949(3)
O8 O 0.6773(4) 1.0154(4) 0.5420(2)
N1 N 1.3938(9) 0.8693(8) 0.8727(5)
N2 N 0.7852(9) 0.9139(8) 0.5481(5)
C1 C 0.5907(5) 0.7193(5) 0.7008(3)
C2 C 0.6182(5) 0.6824(5) 0.6640(3)
C3 C 0.5752(6) 0.7132(5) 0.6126(3)
C4 C 0.5005(6) 0.7789(5) 0.5965(3)
C5 C 0.4679(5) 0.8154(5) 0.6307(3)
C6 C 0.5150(5) 0.7860(5) 0.6831(3)
C7 C 0.4800(6) 0.8282(6) 0.7199(3)
H1 H 0.4249 0.7945 0.7193
H2 H 0.4582 0.8879 0.7087
H3 H 0.5350 0.8289 0.7549
C8 C 0.3861(6) 0.8839(6) 0.6122(3)
H4 H 0.3379 0.8689 0.6243
H5 H 0.3530 0.8859 0.5746
H6 H 0.4151 0.9410 0.6259
C9 C 0.4535(6) 0.8098(5) 0.5409(3)
C10 C 0.6095(7) 0.6766(6) 0.5742(3)
H7 H 0.5838 0.6174 0.5641
H8 H 0.6820 0.6755 0.5905
H9 H 0.5843 0.7137 0.5436
C11 C 0.6904(6) 0.6049(6) 0.6779(3)
H10 H 0.7532 0.6246 0.6798
H11 H 0.6615 0.5598 0.6515
H12 H 0.7023 0.5810 0.7112
C12 C 0.7673(6) 0.6789(5) 0.7886(3)
C13 C 0.8308(6) 0.7471(6) 0.7885(3)
C14 C 0.9377(6) 0.7400(6) 0.8175(3)
C15 C 0.9788(6) 0.6610(6) 0.8443(3)
C16 C 0.9148(6) 0.5904(6) 0.8439(4)
C17 C 0.8116(6) 0.5997(6) 0.8165(3)
C18 C 0.7468(7) 0.5218(6) 0.8145(4)
H13 H 0.7448 0.5170 0.8473
H14 H 0.7747 0.4684 0.8083
H15 H 0.6794 0.5303 0.7867
C19 C 0.9608(7) 0.5048(7) 0.8746(5)
H16 H 0.9263 0.4888 0.8945
H17 H 1.0312 0.5140 0.8979
H18 H 0.9535 0.4578 0.8505
C20 C 1.0920(6) 0.6541(7) 0.8752(3)
C21 C 1.0059(6) 0.8150(7) 0.8180(4)
H19 H 0.9916 0.8289 0.7826
H20 H 1.0753 0.7972 0.8376
H21 H 0.9940 0.8665 0.8340
C22 C 0.7898(6) 0.8362(6) 0.7620(3)
H22 H 0.8099 0.8458 0.7352
H23 H 0.8163 0.8829 0.7875
H24 H 0.7173 0.8360 0.7466
C23 C 0.5919(5) 0.6737(5) 0.7947(3)
C24 C 0.5092(5) 0.6162(5) 0.7785(2)
C25 C 0.4672(5) 0.5954(5) 0.8112(3)
C26 C 0.5106(6) 0.6315(5) 0.8620(3)
C27 C 0.5902(6) 0.6912(5) 0.8787(3)
C28 C 0.6316(6) 0.7141(5) 0.8452(3)
C29 C 0.7122(7) 0.7853(6) 0.8621(3)
H25 H 0.6967 0.8316 0.8802
H26 H 0.7142 0.8096 0.8317
H27 H 0.7768 0.7599 0.8850
C30 C 0.6327(7) 0.7333(6) 0.9331(3)
H28 H 0.6189 0.7959 0.9296
H29 H 0.7045 0.7239 0.9515
H30 H 0.6016 0.7065 0.9523
C31 C 0.4698(6) 0.6062(6) 0.8989(3)
C32 C 0.3783(6) 0.5330(6) 0.7945(3)
H31 H 0.3998 0.4735 0.7928
H32 H 0.3263 0.5502 0.7606
H33 H 0.3525 0.5355 0.8194
C33 C 0.4639(6) 0.5730(5) 0.7244(3)
H34 H 0.4565 0.5103 0.7278
H35 H 0.5079 0.5827 0.7089
H36 H 0.3989 0.5986 0.7025
C34 C 1.3208(10) 0.8244(8) 0.8635(4)
C35 C 1.2717(9) 0.7910(9) 0.8065(4)
H37 H 1.2235 0.7453 0.8021
H38 H 1.3229 0.7675 0.7987
H39 H 1.2379 0.8394 0.7832
C36 C 1.4372(10) 0.8903(9) 0.8389(5)
H40 H 1.4832 0.9392 0.8534
H41 H 1.3844 0.9063 0.8049
H42 H 1.4730 0.8396 0.8358
C37 C 1.4441(10) 0.9020(9) 0.9310(5)
H43 H 1.3924 0.9185 0.9404
H44 H 1.4862 0.9524 0.9348
H45 H 1.4844 0.8551 0.9536
C38 C 0.7325(7) 0.9547(8) 0.5606(4)
C39 C 0.7435(8) 0.9099(8) 0.6150(4)
H46 H 0.7015 0.9414 0.6266
H47 H 0.8127 0.9133 0.6415
H48 H 0.7229 0.8489 0.6088
C40 C 0.8513(9) 0.8308(9) 0.5719(5)
H49 H 0.8848 0.8151 0.5515
H50 H 0.8093 0.7823 0.5717
H51 H 0.9009 0.8432 0.6073
C41 C 0.7804(9) 0.9607(9) 0.4980(5)
H52 H 0.7127 0.9573 0.4698
H53 H 0.8258 0.9315 0.4879
H54 H 0.7997 1.0218 0.5058
B1 B 0.6482(6) 0.6920(6) 0.7601(3)
Cd2B Cd -0.29345(4) 1.33588(4) 0.069752(18)
O1B O -0.1423(4) 1.3757(5) 0.1462(2)
O2B O -0.1340(4) 1.3244(5) 0.0767(2)
O3B O 0.4935(5) 1.1407(4) 0.4734(2)
O4B O 0.6342(5) 1.2147(4) 0.4891(2)
O5B O 0.4861(4) 1.4556(4) 0.06896(19)
O6B O 0.6060(4) 1.3513(4) 0.1064(2)
O7B O -0.2808(5) 1.1933(5) 0.1051(3)
O8B O 0.3227(4) 0.9846(4) 0.4580(2)
N1B N -0.3938(9) 1.1307(8) 0.1273(5)
N2B N 0.2148(9) 1.0861(8) 0.4519(5)
C1B C 0.4093(5) 1.2807(5) 0.2992(3)
C2B C 0.3818(5) 1.3176(5) 0.3360(3)
C3B C 0.4248(6) 1.2868(5) 0.3874(3)
C4B C 0.4995(6) 1.2211(5) 0.4035(3)
C5B C 0.5321(5) 1.1846(5) 0.3693(3)
C6B C 0.4850(5) 1.2140(5) 0.3169(3)
C7B C 0.5200(6) 1.1718(6) 0.2801(3)
H1B H 0.5751 1.2055 0.2807
H2B H 0.5418 1.1121 0.2913
H3B H 0.4650 1.1711 0.2451
C8B C 0.6139(6) 1.1161(6) 0.3878(3)
H4B H 0.6621 1.1311 0.3757
H5B H 0.6470 1.1141 0.4254
H6B H 0.5849 1.0590 0.3741
C9B C 0.5465(6) 1.1902(5) 0.4591(3)
C10B C 0.3905(7) 1.3234(6) 0.4258(3)
H7B H 0.4162 1.3826 0.4359
H8B H 0.3180 1.3245 0.4095
H9B H 0.4157 1.2863 0.4564
C11B C 0.3096(6) 1.3951(6) 0.3221(3)
H10B H 0.2468 1.3754 0.3202
H11B H 0.3385 1.4402 0.3485
H12B H 0.2977 1.4190 0.2888
C12B C 0.2327(6) 1.3211(5) 0.2114(3)
C13B C 0.1692(6) 1.2529(6) 0.2115(3)
C14B C 0.0623(6) 1.2600(6) 0.1825(3)
C15B C 0.0212(6) 1.3390(6) 0.1557(3)
C16B C 0.0852(6) 1.4096(6) 0.1561(4)
C17B C 0.1884(6) 1.4003(6) 0.1835(3)
C18B C 0.2532(7) 1.4782(6) 0.1855(4)
H13B H 0.2552 1.4830 0.1527
H14B H 0.2253 1.5316 0.1917
H15B H 0.3206 1.4697 0.2133
C19B C 0.0392(7) 1.4952(7) 0.1254(5)
H16B H 0.0737 1.5112 0.1055
H17B H -0.0312 1.4860 0.1021
H18B H 0.0465 1.5422 0.1495
C20B C -0.0920(6) 1.3459(7) 0.1248(3)
C21B C -0.0059(6) 1.1850(7) 0.1820(4)
H19B H 0.0084 1.1711 0.2174
H20B H -0.0753 1.2028 0.1624
H21B H 0.0060 1.1335 0.1660
C22B C 0.2102(6) 1.1638(6) 0.2380(3)
H22B H 0.1901 1.1542 0.2648
H23B H 0.1837 1.1171 0.2125
H24B H 0.2827 1.1640 0.2534
C23B C 0.4081(5) 1.3263(5) 0.2053(3)
C24B C 0.4908(5) 1.3838(5) 0.2215(2)
C25B C 0.5328(5) 1.4046(5) 0.1888(3)
C26B C 0.4894(6) 1.3685(5) 0.1380(3)
C27B C 0.4098(6) 1.3088(5) 0.1213(3)
C28B C 0.3684(6) 1.2859(5) 0.1548(3)
C29B C 0.2878(7) 1.2147(6) 0.1379(3)
H25B H 0.3033 1.1684 0.1198
H26B H 0.2858 1.1904 0.1683
H27B H 0.2232 1.2401 0.1150
C30B C 0.3673(7) 1.2667(6) 0.0669(3)
H28B H 0.3811 1.2041 0.0704
H29B H 0.2955 1.2761 0.0485
H30B H 0.3984 1.2935 0.0477
C31B C 0.5302(6) 1.3938(6) 0.1011(3)
C32B C 0.6217(6) 1.4670(6) 0.2055(3)
H31B H 0.6002 1.5265 0.2072
H32B H 0.6737 1.4498 0.2394
H33B H 0.6475 1.4645 0.1806
C33B C 0.5361(6) 1.4270(5) 0.2756(3)
H34B H 0.5435 1.4897 0.2722
H35B H 0.4921 1.4173 0.2911
H36B H 0.6011 1.4014 0.2975
C34B C -0.3208(10) 1.1756(8) 0.1365(4)
C35B C -0.2717(9) 1.2090(9) 0.1935(4)
H37B H -0.2235 1.2547 0.1979
H38B H -0.3229 1.2325 0.2013
H39B H -0.2379 1.1606 0.2168
C36B C -0.4372(10) 1.1097(9) 0.1611(5)
H40B H -0.4832 1.0608 0.1466
H41B H -0.3844 1.0937 0.1951
H42B H -0.4730 1.1604 0.1642
C37B C -0.4441(10) 1.0980(9) 0.0690(5)
H43B H -0.3924 1.0815 0.0596
H44B H -0.4862 1.0476 0.0652
H45B H -0.4844 1.1449 0.0464
C38B C 0.2675(7) 1.0453(8) 0.4394(4)
C39B C 0.2565(8) 1.0901(8) 0.3850(4)
H46B H 0.2985 1.0586 0.3734
H47B H 0.1873 1.0867 0.3585
H48B H 0.2771 1.1511 0.3912
C40B C 0.1487(9) 1.1692(9) 0.4281(5)
H49B H 0.1152 1.1849 0.4485
H50B H 0.1907 1.2177 0.4283
H51B H 0.0991 1.1568 0.3927
C41B C 0.2196(9) 1.0393(9) 0.5020(5)
H52B H 0.2873 1.0427 0.5302
H53B H 0.1742 1.0685 0.5121
H54B H 0.2003 0.9782 0.4942
B1B B 0.3518(6) 1.3080(6) 0.2399(3)
Cd1A Cd 0.5000 0.5000 1.0000
Cd1A_2 Cd 0.5000 1.5000 0.0000
Cd2_2 Cd 0.29345(4) 0.66412(4) 0.930248(18)
Cd2A Cd 0.70655(4) 1.16412(4) 0.569752(18)
Cd2B_2 Cd 0.70655(4) 1.33588(4) 0.069752(18)
Cd2C Cd 0.29345(4) 0.83588(4) 0.430248(18)
O4A O -0.3658(5) 1.2853(4) -0.0109(2)
O4C O 1.3658(5) 0.7147(4) 1.0109(2)
O5A O 0.4861(4) 1.0444(4) 0.56896(19)
O5C O 0.5139(4) 0.9556(4) 0.43104(19)
O6_2 O 1.3940(4) 0.6487(4) 0.8936(2)
O6B_2 O -0.3940(4) 1.3513(4) 0.1064(2)
O8A O 1.3227(4) 0.5154(4) 0.9580(2)
O8C O -0.3227(4) 1.4846(4) 0.0420(2)
loop_
_geom_bond_atom_site_label_1
_geom_bond_atom_site_label_2
_geom_bond_site_symmetry_1
_geom_bond_site_symmetry_2
Cd1 O3 1_555 1_555
Cd2 O1 1_555 1_555
O1 C20 1_555 1_555
O2 Cd2 1_555 1_555
O3 C9 1_555 1_555
O4 C9 1_555 1_555
O5 C31 1_555 1_555
O6 C31 1_555 1_555
O7 Cd2 1_555 1_555
O8 Cd1 1_555 1_555
N1 C34 1_555 1_555
N2 C38 1_555 1_555
C1 C2 1_555 1_555
C2 C3 1_555 1_555
C3 C4 1_555 1_555
C4 C5 1_555 1_555
C5 C6 1_555 1_555
C6 C1 1_555 1_555
C7 C6 1_555 1_555
H1 C7 1_555 1_555
H2 C7 1_555 1_555
H3 C7 1_555 1_555
C8 C5 1_555 1_555
H4 C8 1_555 1_555
H5 C8 1_555 1_555
H6 C8 1_555 1_555
C9 C4 1_555 1_555
C10 C3 1_555 1_555
H7 C10 1_555 1_555
H8 C10 1_555 1_555
H9 C10 1_555 1_555
C11 C2 1_555 1_555
H10 C11 1_555 1_555
H11 C11 1_555 1_555
H12 C11 1_555 1_555
C12 C13 1_555 1_555
C13 C14 1_555 1_555
C14 C15 1_555 1_555
C15 C16 1_555 1_555
C16 C17 1_555 1_555
C17 C12 1_555 1_555
C18 C17 1_555 1_555
H13 C18 1_555 1_555
H14 C18 1_555 1_555
H15 C18 1_555 1_555
C19 C16 1_555 1_555
H16 C19 1_555 1_555
H17 C19 1_555 1_555
H18 C19 1_555 1_555
C20 O2 1_555 1_555
C21 C14 1_555 1_555
H19 C21 1_555 1_555
H20 C21 1_555 1_555
H21 C21 1_555 1_555
C22 C13 1_555 1_555
H22 C22 1_555 1_555
H23 C22 1_555 1_555
H24 C22 1_555 1_555
C23 C24 1_555 1_555
C24 C25 1_555 1_555
C25 C26 1_555 1_555
C26 C27 1_555 1_555
C27 C28 1_555 1_555
C28 C23 1_555 1_555
C29 C28 1_555 1_555
H25 C29 1_555 1_555
H26 C29 1_555 1_555
H27 C29 1_555 1_555
C30 C27 1_555 1_555
H28 C30 1_555 1_555
H29 C30 1_555 1_555
H30 C30 1_555 1_555
C31 C26 1_555 1_555
C32 C25 1_555 1_555
H31 C32 1_555 1_555
H32 C32 1_555 1_555
H33 C32 1_555 1_555
C33 C24 1_555 1_555
H34 C33 1_555 1_555
H35 C33 1_555 1_555
H36 C33 1_555 1_555
C34 O7 1_555 1_555
C35 C34 1_555 1_555
H37 C35 1_555 1_555
H38 C35 1_555 1_555
H39 C35 1_555 1_555
C36 N1 1_555 1_555
H40 C36 1_555 1_555
H41 C36 1_555 1_555
H42 C36 1_555 1_555
C37 N1 1_555 1_555
H43 C37 1_555 1_555
H44 C37 1_555 1_555
H45 C37 1_555 1_555
C38 O8 1_555 1_555
C39 C38 1_555 1_555
H46 C39 1_555 1_555
H47 C39 1_555 1_555
H48 C39 1_555 1_555
C40 N2 1_555 1_555
H49 C40 1_555 1_555
H50 C40 1_555 1_555
H51 C40 1_555 1_555
C41 N2 1_555 1_555
H52 C41 1_555 1_555
H53 C41 1_555 1_555
H54 C41 1_555 1_555
B1 C1 1_555 1_555
Cd2B O1B 1_555 1_555
O1B C20B 1_555 1_555
O2B Cd2B 1_555 1_555
O3B Cd1 1_555 1_555
O4B C9B 1_555 1_555
O5B C31B 1_555 1_555
O6B C31B 1_555 1_555
O7B Cd2B 1_555 1_555
O8B Cd1 1_555 1_555
N1B C34B 1_555 1_555
N2B C38B 1_555 1_555
C1B C2B 1_555 1_555
C2B C3B 1_555 1_555
C3B C4B 1_555 1_555
C4B C5B 1_555 1_555
C5B C6B 1_555 1_555
C6B C1B 1_555 1_555
C7B C6B 1_555 1_555
H1B C7B 1_555 1_555
H2B C7B 1_555 1_555
H3B C7B 1_555 1_555
C8B C5B 1_555 1_555
H4B C8B 1_555 1_555
H5B C8B 1_555 1_555
H6B C8B 1_555 1_555
C9B O3B 1_555 1_555
C10B C3B 1_555 1_555
H7B C10B 1_555 1_555
H8B C10B 1_555 1_555
H9B C10B 1_555 1_555
C11B C2B 1_555 1_555
H10B C11B 1_555 1_555
H11B C11B 1_555 1_555
H12B C11B 1_555 1_555
C12B C13B 1_555 1_555
C13B C14B 1_555 1_555
C14B C15B 1_555 1_555
C15B C16B 1_555 1_555
C16B C17B 1_555 1_555
C17B C12B 1_555 1_555
C18B C17B 1_555 1_555
H13B C18B 1_555 1_555
H14B C18B 1_555 1_555
H15B C18B 1_555 1_555
C19B C16B 1_555 1_555
H16B C19B 1_555 1_555
H17B C19B 1_555 1_555
H18B C19B 1_555 1_555
C20B O2B 1_555 1_555
C21B C14B 1_555 1_555
H19B C21B 1_555 1_555
H20B C21B 1_555 1_555
H21B C21B 1_555 1_555
C22B C13B 1_555 1_555
H22B C22B 1_555 1_555
H23B C22B 1_555 1_555
H24B C22B 1_555 1_555
C23B C24B 1_555 1_555
C24B C25B 1_555 1_555
C25B C26B 1_555 1_555
C26B C27B 1_555 1_555
C27B C28B 1_555 1_555
C28B C23B 1_555 1_555
C29B C28B 1_555 1_555
H25B C29B 1_555 1_555
H26B C29B 1_555 1_555
H27B C29B 1_555 1_555
C30B C27B 1_555 1_555
H28B C30B 1_555 1_555
H29B C30B 1_555 1_555
H30B C30B 1_555 1_555
C31B C26B 1_555 1_555
C32B C25B 1_555 1_555
H31B C32B 1_555 1_555
H32B C32B 1_555 1_555
H33B C32B 1_555 1_555
C33B C24B 1_555 1_555
H34B C33B 1_555 1_555
H35B C33B 1_555 1_555
H36B C33B 1_555 1_555
C34B O7B 1_555 1_555
C35B C34B 1_555 1_555
H37B C35B 1_555 1_555
H38B C35B 1_555 1_555
H39B C35B 1_555 1_555
C36B N1B 1_555 1_555
H40B C36B 1_555 1_555
H41B C36B 1_555 1_555
H42B C36B 1_555 1_555
C37B N1B 1_555 1_555
H43B C37B 1_555 1_555
H44B C37B 1_555 1_555
H45B C37B 1_555 1_555
C38B O8B 1_555 1_555
C39B C38B 1_555 1_555
H46B C39B 1_555 1_555
H47B C39B 1_555 1_555
H48B C39B 1_555 1_555
C40B N2B 1_555 1_555
H49B C40B 1_555 1_555
H50B C40B 1_555 1_555
H51B C40B 1_555 1_555
C41B N2B 1_555 1_555
H52B C41B 1_555 1_555
H53B C41B 1_555 1_555
H54B C41B 1_555 1_555
B1B C1B 1_555 1_555
Cd1A O5 1_555 1_555
Cd1A_2 O5B 1_555 1_555
Cd2_2 O6 1_555 1_555
Cd2A O8 1_555 1_555
Cd2B_2 O6B 1_555 1_555
Cd2C O4 1_555 1_555
O4A Cd2B 1_555 1_555
O4C Cd2 1_555 1_555
O5A Cd1 1_555 1_555
O5C Cd1 1_555 1_555
O6_2 Cd2 1_555 1_555
O6B_2 Cd2B 1_555 1_555
O8A Cd2 1_555 1_555
O8C Cd2B 1_555 1_555
C12 B1 1_555 1_555
C15 C20 1_555 1_555
C23 B1 1_555 1_555
O4B Cd2A 1_555 1_555
O8B Cd2C 1_555 1_555
C4B C9B 1_555 1_555
C12B B1B 1_555 1_555
C15B C20B 1_555 1_555
C23B B1B 1_555 1_555

#END
