
#######################################################################
#
#                 Cambridge Crystallographic Data Centre
#                                CCDC 
#
#######################################################################
#
# If this CIF has been generated from an entry in the Cambridge 
# Structural Database, then it will include bibliographic, chemical, 
# crystal, experimental, refinement or atomic coordinate data resulting 
# from the CCDC's data processing and validation procedures.
#
#######################################################################

data_CAVROI
_chemical_formula_moiety         'C40 H44 N16 O9 Zn4'
_symmetry_cell_setting           tetragonal
_symmetry_space_group_name_H-M   'I 41/a m d'
_symmetry_Int_Tables_number      141
_space_group_name_Hall           '-I 4bd 2'
loop_
_symmetry_equiv_pos_site_id
_symmetry_equiv_pos_as_xyz
1 x,y,z
2 1/2-x,-y,1/2+z
3 1/4-y,3/4+x,1/4+z
4 1/4+y,1/4-x,3/4+z
5 1/2-x,y,1/2-z
6 x,-y,-z
7 1/4+y,3/4+x,1/4-z
8 1/4-y,1/4-x,3/4-z
9 1/2+x,1/2+y,1/2+z
10 -x,1/2-y,z
11 3/4-y,1/4+x,3/4+z
12 3/4+y,3/4-x,1/4+z
13 -x,1/2+y,-z
14 1/2+x,1/2-y,1/2-z
15 3/4+y,1/4+x,3/4-z
16 3/4-y,3/4-x,1/4-z
17 -x,-y,-z
18 1/2+x,y,1/2-z
19 3/4+y,1/4-x,3/4-z
20 3/4-y,3/4+x,1/4-z
21 1/2+x,-y,1/2+z
22 -x,y,z
23 3/4-y,1/4-x,3/4+z
24 3/4+y,3/4+x,1/4+z
25 1/2-x,1/2-y,1/2-z
26 x,1/2+y,-z
27 1/4+y,3/4-x,1/4-z
28 1/4-y,1/4+x,3/4-z
29 x,1/2-y,z
30 1/2-x,1/2+y,1/2+z
31 1/4-y,3/4-x,1/4+z
32 1/4+y,1/4+x,3/4+z
_cell_length_a                   19.496(7)
_cell_length_b                   19.496(7)
_cell_length_c                   15.769(7)
_cell_angle_alpha                90
_cell_angle_beta                 90
_cell_angle_gamma                90
_cell_volume                     5993.7
loop_
_atom_site_label
_atom_site_type_symbol
_atom_site_fract_x
_atom_site_fract_y
_atom_site_fract_z
_atom_site_U_iso_or_equiv
_atom_site_thermal_displace_type
Zn1 Zn 0.0000 0.7500 1.416870(17) 0.0191 Uani
C1 C 0.25483(13) 0.78589(12) 1.32829(14) 0.0284 Uani
C2 C 0.19273(8) 0.7500 1.30336(11) 0.0271 Uani
C3 C 0.31048(11) 0.78197(12) 1.27497(14) 0.0257 Uani
H1 H 0.3526 0.8019 1.2925 0.0310 Uiso
C4 C 0.25899(11) 0.82721(12) 1.40785(15) 0.0277 Uani
O1 O 0.21765(10) 0.87550(11) 1.41663(12) 0.0405 Uani
N1 N 0.30667(10) 0.80999(12) 1.46267(13) 0.0318 Uani
H2 H 0.3341 0.7756 1.4501 0.0380 Uiso
C5 C 0.13294(9) 0.7500 1.36339(11) 0.0263 Uani
O2 O 0.14252(7) 0.7500 1.43794(9) 0.0660 Uani
O3 O 0.07375(6) 0.7500 1.32983(8) 0.0354 Uani
C6 C 0.31641(13) 0.84535(17) 1.54393(17) 0.0406 Uani
H3 H 0.2992 0.8930 1.5393 0.0490 Uiso
H4 H 0.3660 0.8474 1.5573 0.0490 Uiso
C7 C 0.27814(14) 0.80807(19) 1.61660(17) 0.0448 Uani
H5 H 0.2925 0.7594 1.6183 0.0540 Uiso
H6 H 0.2904 0.8294 1.6715 0.0540 Uiso
C8 C 0.20088(14) 0.81216(16) 1.60365(18) 0.0393 Uani
H7 H 0.1862 0.8607 1.6057 0.0470 Uiso
H8 H 0.1891 0.7937 1.5470 0.0470 Uiso
N2 N 0.16407(10) 0.77296(10) 1.66934(12) 0.0259 Uani
C9 C 0.10751(12) 0.79604(13) 1.71147(15) 0.0292 Uani
H9 H 0.0874 0.8402 1.7061 0.0350 Uiso
N3 N 0.08516(14) 0.74486(7) 1.76219(9) 0.0237 Uani
C10 C 0.12483(12) 0.80800(12) 1.74855(18) 0.0320 Uani
H10 H 0.1192 0.8514 1.7750 0.0380 Uiso
C11 C 0.17458(14) 0.79336(13) 1.69249(18) 0.0352 Uani
H11 H 0.2098 0.8232 1.6731 0.0420 Uiso
Zn1F Zn 0.0000 0.7500 1.833130(17) 0.0191 Uani
Zn1D Zn 0.5000 0.7500 1.083130(17) 0.0191 Uani
Zn1B Zn 0.5000 0.7500 0.666870(17) 0.0191 Uani
C1BA C 0.25483(13) 0.71411(12) 1.32829(14) 0.0284 Uani
C1X C 0.24517(13) 0.71411(12) 1.17171(14) 0.0284 Uani
C1D C 0.24517(13) 0.78589(12) 1.17171(14) 0.0284 Uani
C2D C 0.30727(8) 0.7500 1.19664(11) 0.0271 Uani
C3BA C 0.31048(11) 0.71803(12) 1.27497(14) 0.0257 Uani
C3D C 0.18952(11) 0.78197(12) 1.22503(14) 0.0257 Uani
C3X C 0.18952(11) 0.71803(12) 1.22503(14) 0.0257 Uani
H1BA H 0.3526 0.6981 1.2925 0.0310 Uiso
H1X H 0.1474 0.6981 1.2075 0.0310 Uiso
H1D H 0.1474 0.8019 1.2075 0.0310 Uiso
C4BA C 0.25899(11) 0.67279(12) 1.40785(15) 0.0277 Uani
C4X C 0.24101(11) 0.67279(12) 1.09215(15) 0.0277 Uani
C4D C 0.24101(11) 0.82721(12) 1.09215(15) 0.0277 Uani
O1BA O 0.21765(10) 0.62450(11) 1.41663(12) 0.0405 Uani
O1X O 0.28235(10) 0.62450(11) 1.08337(12) 0.0405 Uani
O1D O 0.28235(10) 0.87550(11) 1.08337(12) 0.0405 Uani
N1BA N 0.30667(10) 0.69001(12) 1.46267(13) 0.0318 Uani
N1X N 0.19333(10) 0.69001(12) 1.03733(13) 0.0318 Uani
N1D N 0.19333(10) 0.80999(12) 1.03733(13) 0.0318 Uani
H2BA H 0.3341 0.7244 1.4501 0.0380 Uiso
H2X H 0.1659 0.7244 1.0499 0.0380 Uiso
H2D H 0.1659 0.7756 1.0499 0.0380 Uiso
C5D C 0.36706(9) 0.7500 1.13661(11) 0.0263 Uani
O2D O 0.35748(7) 0.7500 1.06206(9) 0.0660 Uani
O3D O 0.42625(6) 0.7500 1.17017(8) 0.0354 Uani
O3I O -0.07375(6) 0.7500 1.32983(8) 0.0354 Uani
C6BA C 0.31641(13) 0.65465(17) 1.54393(17) 0.0406 Uani
C6X C 0.18359(13) 0.65465(17) 0.95607(17) 0.0406 Uani
C6D C 0.18359(13) 0.84535(17) 0.95607(17) 0.0406 Uani
H3BA H 0.2992 0.6070 1.5393 0.0490 Uiso
H3X H 0.2008 0.6070 0.9607 0.0490 Uiso
H3D H 0.2008 0.8930 0.9607 0.0490 Uiso
H4BA H 0.3660 0.6526 1.5573 0.0490 Uiso
H4X H 0.1340 0.6526 0.9427 0.0490 Uiso
H4D H 0.1340 0.8474 0.9427 0.0490 Uiso
C7BA C 0.27814(14) 0.69193(19) 1.61660(17) 0.0448 Uani
C7X C 0.22186(14) 0.69193(19) 0.88340(17) 0.0448 Uani
C7D C 0.22186(14) 0.80807(19) 0.88340(17) 0.0448 Uani
H5BA H 0.2925 0.7406 1.6183 0.0540 Uiso
H5X H 0.2075 0.7406 0.8817 0.0540 Uiso
H5D H 0.2075 0.7594 0.8817 0.0540 Uiso
H6BA H 0.2904 0.6706 1.6715 0.0540 Uiso
H6X H 0.2096 0.6706 0.8285 0.0540 Uiso
H6D H 0.2096 0.8294 0.8285 0.0540 Uiso
C8BA C 0.20088(14) 0.68784(16) 1.60365(18) 0.0393 Uani
C8X C 0.29912(14) 0.68784(16) 0.89635(18) 0.0393 Uani
C8D C 0.29912(14) 0.81216(16) 0.89635(18) 0.0393 Uani
H7BA H 0.1862 0.6393 1.6057 0.0470 Uiso
H7X H 0.3138 0.6393 0.8943 0.0470 Uiso
H7D H 0.3138 0.8607 0.8943 0.0470 Uiso
H8BA H 0.1891 0.7063 1.5470 0.0470 Uiso
H8X H 0.3109 0.7063 0.9530 0.0470 Uiso
H8D H 0.3109 0.7937 0.9530 0.0470 Uiso
N2BA N 0.16407(10) 0.72704(10) 1.66934(12) 0.0259 Uani
N2X N 0.33593(10) 0.72704(10) 0.83066(12) 0.0259 Uani
N2D N 0.33593(10) 0.77296(10) 0.83066(12) 0.0259 Uani
C9BA C 0.10751(12) 0.70396(13) 1.71147(15) 0.0292 Uani
C9X C 0.39249(12) 0.70396(13) 0.78853(15) 0.0292 Uani
C9D C 0.39249(12) 0.79604(13) 0.78853(15) 0.0292 Uani
H9BA H 0.0874 0.6598 1.7061 0.0350 Uiso
H9X H 0.4126 0.6598 0.7939 0.0350 Uiso
H9D H 0.4126 0.8402 0.7939 0.0350 Uiso
N3BA N 0.08516(14) 0.75514(7) 1.76219(9) 0.0237 Uani
N3D N 0.41484(14) 0.74486(7) 0.73781(9) 0.0237 Uani
N3X N 0.41484(14) 0.75514(7) 0.73781(9) 0.0237 Uani
N3F N -0.00514(7) 0.83516(14) 1.48781(9) 0.0237 Uani
N3O N 0.00514(7) 0.66484(14) 1.48781(9) 0.0237 Uani
N3S N 0.00514(7) 0.83516(14) 1.48781(9) 0.0237 Uani
N3Z N -0.00514(7) 0.66484(14) 1.48781(9) 0.0237 Uani
C10BA C 0.12483(12) 0.69200(12) 1.74855(18) 0.0320 Uani
C10X C 0.37517(12) 0.69200(12) 0.75145(18) 0.0320 Uani
C10D C 0.37517(12) 0.80800(12) 0.75145(18) 0.0320 Uani
H10BA H 0.1192 0.6486 1.7750 0.0380 Uiso
H10X H 0.3808 0.6486 0.7250 0.0380 Uiso
H10D H 0.3808 0.8514 0.7250 0.0380 Uiso
C11BA C 0.17458(14) 0.70664(13) 1.69249(18) 0.0352 Uani
C11D C 0.32542(14) 0.79336(13) 0.80751(18) 0.0352 Uani
C11X C 0.32542(14) 0.70664(13) 0.80751(18) 0.0352 Uani
H11BA H 0.2098 0.6768 1.6731 0.0420 Uiso
H11X H 0.2902 0.6768 0.8269 0.0420 Uiso
H11D H 0.2902 0.8232 0.8269 0.0420 Uiso
loop_
_atom_site_aniso_label
_atom_site_aniso_U_11
_atom_site_aniso_U_22
_atom_site_aniso_U_33
_atom_site_aniso_U_23
_atom_site_aniso_U_13
_atom_site_aniso_U_12
Zn1 0.01672 0.02089 0.01955 0 0 0
C1 0.0281 0.0266 0.0304 0.0079 0.0035 0.0001
C2 0.0184 0.0326 0.0303 0 0.0052 0
C3 0.0184 0.0296 0.029 0.0033 0.0022 0.0003
C4 0.0207 0.0297 0.0326 0.0064 0.0101 0.001
O1 0.0388 0.042 0.0408 0.0057 0.0091 0.0116
N1 0.0205 0.0411 0.0339 -0.001 0.0072 0.0035
C5 0.0233 0.0258 0.0297 0 0.0073 0
O2 0.0221 0.1456 0.0304 0 0.0027 0
O3 0.0178 0.0582 0.0302 0 0.0041 0
C6 0.0223 0.0641 0.0353 0.0007 0.0059 -0.0125
C7 0.0234 0.078 0.0329 -0.003 0.001 -0.0057
C8 0.0292 0.0547 0.0339 0.0058 0.0058 0.0022
N2 0.0243 0.0303 0.023 -0.0058 0.0058 -0.0031
C9 0.0286 0.0285 0.0306 -0.0035 0.0004 -0.0044
N3 0.0208 0.0204 0.0298 0.0029 0.0023 -0.0129
C10 0.0242 0.0234 0.0483 0.0089 0.0052 -0.0008
C11 0.0375 0.0218 0.0464 0.0017 0.0061 -0.0065
Zn1F 0.02089 0.01672 0.01955 0 0 0
Zn1D 0.01672(12) 0.02089(13) 0.01955(14) 0.000 0.000 0.000
Zn1B 0.02089 0.01672 0.01955 0 0 0
C1BA 0.0281 0.0266 0.0304 -0.0079 0.0035 -0.0001
C1X 0.0281 0.0266 0.0304 0.0079 0.0035 0.0001
C1D 0.0281(11) 0.0266(11) 0.0304(11) -0.0079(9) 0.0035(9) -0.0001(9)
C2D 0.0184(6) 0.0326(8) 0.0303(7) 0.000 0.0052(6) 0.000
C3BA 0.0184(9) 0.0296(10) 0.0290(10) -0.0033(9) 0.0022(8) -0.0003(9)
C3D 0.0184 0.0296 0.029 -0.0033 0.0022 -0.0003
C3X 0.0184 0.0296 0.029 0.0033 0.0022 0.0003
C4BA 0.0207 0.0297 0.0326 -0.0064 0.0101 -0.001
C4X 0.0207 0.0297 0.0326 0.0064 0.0101 0.001
C4D 0.0207(9) 0.0297(11) 0.0326(11) -0.0064(9) 0.0101(8) -0.0010(9)
O1BA 0.0388 0.042 0.0408 -0.0057 0.0091 -0.0116
O1X 0.0388 0.042 0.0408 0.0057 0.0091 0.0116
O1D 0.0388(9) 0.0420(10) 0.0408(9) -0.0057(8) 0.0091(8) -0.0116(8)
N1BA 0.0205 0.0411 0.0339 0.001 0.0072 -0.0035
N1X 0.0205 0.0411 0.0339 -0.001 0.0072 0.0035
N1D 0.0205(8) 0.0411(11) 0.0339(9) 0.0010(9) 0.0072(8) -0.0035(8)
C5D 0.0233(7) 0.0258(7) 0.0297(7) 0.000 0.0073(6) 0.000
O2D 0.0221(6) 0.1456(18) 0.0304(7) 0.000 0.0027(6) 0.000
O3D 0.0178(5) 0.0582(8) 0.0302(6) 0.000 0.0041(5) 0.000
O3I 0.0178 0.0582 0.0302 0 -0.0041 0
C6BA 0.0223 0.0641 0.0353 -0.0007 0.0059 0.0125
C6X 0.0223 0.0641 0.0353 0.0007 0.0059 -0.0125
C6D 0.0223(10) 0.0641(17) 0.0353(12) -0.0007(13) 0.0059(10) 0.0125(12)
C7BA 0.0234 0.078 0.0329 0.003 0.001 0.0057
C7X 0.0234 0.078 0.0329 -0.003 0.001 -0.0057
C7D 0.0234(11) 0.078(2) 0.0329(12) 0.0030(13) 0.0010(10) 0.0057(13)
C8BA 0.0292 0.0547 0.0339 -0.0058 0.0058 -0.0022
C8X 0.0292 0.0547 0.0339 0.0058 0.0058 0.0022
C8D 0.0292(11) 0.0547(16) 0.0339(11) -0.0058(12) 0.0058(11) -0.0022(12)
N2BA 0.0243 0.0303 0.023 0.0058 0.0058 0.0031
N2X 0.0243 0.0303 0.023 -0.0058 0.0058 -0.0031
N2D 0.0243(8) 0.0303(9) 0.0230(8) 0.0058(6) 0.0058(7) 0.0031(7)
C9BA 0.0286 0.0285 0.0306 0.0035 0.0004 0.0044
C9X 0.0286 0.0285 0.0306 -0.0035 0.0004 -0.0044
C9D 0.0286(10) 0.0285(10) 0.0306(11) 0.0035(9) 0.0004(9) 0.0044(9)
N3BA 0.0208 0.0204 0.0298 -0.0029 0.0023 0.0129
N3D 0.0208(6) 0.0204(6) 0.0298(6) -0.0029(12) 0.0023(5) 0.0129(11)
N3X 0.0208 0.0204 0.0298 0.0029 0.0023 -0.0129
N3F 0.0204 0.0208 0.0298 -0.0023 -0.0029 -0.0129
N3O 0.0204 0.0208 0.0298 0.0023 0.0029 -0.0129
N3S 0.0204 0.0208 0.0298 -0.0023 0.0029 0.0129
N3Z 0.0204 0.0208 0.0298 0.0023 -0.0029 0.0129
C10BA 0.0242 0.0234 0.0483 -0.0089 0.0052 0.0008
C10X 0.0242(10) 0.0234(10) 0.0483(13) 0.0089(10) 0.0052(10) -0.0008(9)
C10D 0.0242 0.0234 0.0483 -0.0089 0.0052 0.0008
C11BA 0.0375 0.0218 0.0464 -0.0017 0.0061 0.0065
C11D 0.0375 0.0218 0.0464 -0.0017 0.0061 0.0065
C11X 0.0375(12) 0.0218(10) 0.0464(14) 0.0017(10) 0.0061(11) -0.0065(10)
loop_
_geom_bond_atom_site_label_1
_geom_bond_atom_site_label_2
_geom_bond_site_symmetry_1
_geom_bond_site_symmetry_2
Zn1 O3 1_555 1_555
C1 C2 1_555 1_555
C2 C5 1_555 1_555
C3 C1 1_555 1_555
H1 C3 1_555 1_555
C4 C1 1_555 1_555
O1 C4 1_555 1_555
N1 C4 1_555 1_555
H2 N1 1_555 1_555
C5 O2 1_555 1_555
O3 C5 1_555 1_555
C6 N1 1_555 1_555
H3 C6 1_555 1_555
H4 C6 1_555 1_555
C7 C6 1_555 1_555
H5 C7 1_555 1_555
H6 C7 1_555 1_555
C8 C7 1_555 1_555
H7 C8 1_555 1_555
H8 C8 1_555 1_555
N2 C8 1_555 1_555
C9 N2 1_555 1_555
H9 C9 1_555 1_555
N3 C9 1_555 1_555
C10 N2 1_555 1_555
H10 C10 1_555 1_555
C11 C8 1_555 1_555
H11 C8 1_555 1_555
Zn1F N3 1_555 1_555
Zn1D O3D 1_555 1_555
Zn1B N3D 1_555 1_555
C1BA C1 1_555 1_555
C1X C1D 1_555 1_555
C1D C2D 1_555 1_555
C2D C3 1_555 1_555
C3BA C3 1_555 1_555
C3D C2 1_555 1_555
C3X C2 1_555 1_555
H1BA C3BA 1_555 1_555
H1X C3X 1_555 1_555
H1D C3D 1_555 1_555
C4BA C1BA 1_555 1_555
C4X C1X 1_555 1_555
C4D C1D 1_555 1_555
O1BA C4BA 1_555 1_555
O1X C4X 1_555 1_555
O1D C4D 1_555 1_555
N1BA C4BA 1_555 1_555
N1X C4X 1_555 1_555
N1D C4D 1_555 1_555
H2BA N1BA 1_555 1_555
H2X N1X 1_555 1_555
H2D N1D 1_555 1_555
C5D C2D 1_555 1_555
O2D C5D 1_555 1_555
O3D C5D 1_555 1_555
O3I Zn1 1_555 1_555
C6BA N1BA 1_555 1_555
C6X N1X 1_555 1_555
C6D N1D 1_555 1_555
H3BA C6BA 1_555 1_555
H3X C6X 1_555 1_555
H3D C6D 1_555 1_555
H4BA C6BA 1_555 1_555
H4X C6X 1_555 1_555
H4D C6D 1_555 1_555
C7BA C6BA 1_555 1_555
C7X C6X 1_555 1_555
C7D C6D 1_555 1_555
H5BA H5 1_555 1_555
H5X C7X 1_555 1_555
H5D C7D 1_555 1_555
H6BA C7BA 1_555 1_555
H6X C7X 1_555 1_555
H6D C7D 1_555 1_555
C8BA C7BA 1_555 1_555
C8X C7X 1_555 1_555
C8D C7D 1_555 1_555
H7BA C8BA 1_555 1_555
H7X C8X 1_555 1_555
H7D C8D 1_555 1_555
H8BA C8BA 1_555 1_555
H8X C8X 1_555 1_555
H8D C8D 1_555 1_555
N2BA N2 1_555 1_555
N2X C8X 1_555 1_555
N2D C8D 1_555 1_555
C9BA N3 1_555 1_555
C9X N2X 1_555 1_555
C9D N2D 1_555 1_555
H9BA C9BA 1_555 1_555
H9X C9X 1_555 1_555
H9D C9D 1_555 1_555
N3BA C9 1_555 1_555
N3D C9X 1_555 1_555
N3X Zn1B 1_555 1_555
N3F Zn1 1_555 1_555
N3O Zn1 1_555 1_555
N3S Zn1 1_555 1_555
N3Z Zn1 1_555 1_555
C10BA N3 1_555 1_555
C10X N2X 1_555 1_555
C10D N2D 1_555 1_555
H10BA C10BA 1_555 1_555
H10X C10X 1_555 1_555
H10D C10D 1_555 1_555
C11BA N2 1_555 1_555
C11D C8D 1_555 1_555
C11X C8X 1_555 1_555
H11BA C8BA 1_555 1_555
H11X C8X 1_555 1_555
H11D C8D 1_555 1_555
C2 C1BA 1_555 1_555
N2 C11 1_555 1_555
C9 C10 1_555 1_555
C9 C11 1_555 1_555
H9 C10 1_555 1_555
N3 C10 1_555 1_555
N3 N3BA 1_555 1_555
C10 C11 1_555 1_555
C10 N3BA 1_555 1_555
C11 H11 1_555 1_555
C11 N2BA 1_555 1_555
C11 C11BA 1_555 1_555
Zn1F N3BA 1_555 1_555
C1BA C3BA 1_555 1_555
C1X C2D 1_555 1_555
C1X C3X 1_555 1_555
C1D C3D 1_555 1_555
C2D C3BA 1_555 1_555
C3D C3X 1_555 1_555
C7BA H5BA 1_555 1_555
H5X H5D 1_555 1_555
C8BA N2BA 1_555 1_555
C8BA C11BA 1_555 1_555
N2BA C9BA 1_555 1_555
N2BA C10BA 1_555 1_555
N2BA C11BA 1_555 1_555
N2X N2D 1_555 1_555
N2X C11D 1_555 1_555
N2X C11X 1_555 1_555
N2D C11D 1_555 1_555
N2D C11X 1_555 1_555
C9BA N3BA 1_555 1_555
C9BA C10BA 1_555 1_555
C9BA C11BA 1_555 1_555
C9X N3X 1_555 1_555
C9X C10X 1_555 1_555
C9X C11X 1_555 1_555
C9D N3D 1_555 1_555
C9D N3X 1_555 1_555
C9D C10D 1_555 1_555
C9D C11D 1_555 1_555
H9BA C10BA 1_555 1_555
H9X C10X 1_555 1_555
H9D C10D 1_555 1_555
N3BA C10BA 1_555 1_555
N3D N3X 1_555 1_555
N3D C10X 1_555 1_555
N3D C10D 1_555 1_555
N3X C10X 1_555 1_555
N3X C10D 1_555 1_555
N3F N3S 1_555 1_555
N3O N3Z 1_555 1_555
C10BA C11BA 1_555 1_555
C10X C11X 1_555 1_555
C10D C11D 1_555 1_555
C11BA H11BA 1_555 1_555
C11D C11X 1_555 1_555
C11D H11D 1_555 1_555
C11X H11X 1_555 1_555

#END
