
#######################################################################
#
#                 Cambridge Crystallographic Data Centre
#                                CCDC 
#
#######################################################################
#
# If this CIF has been generated from an entry in the Cambridge 
# Structural Database, then it will include bibliographic, chemical, 
# crystal, experimental, refinement or atomic coordinate data resulting 
# from the CCDC's data processing and validation procedures.
#
#######################################################################

data_SUKYIH
_chemical_formula_moiety         '(C29 H20 Cu2 O10)n'
_symmetry_cell_setting           tetragonal
_symmetry_space_group_name_H-M   'P 42/m m c'
_symmetry_Int_Tables_number      131
_space_group_name_Hall           '-P 4c 2'
loop_
_symmetry_equiv_pos_site_id
_symmetry_equiv_pos_as_xyz
1 x,y,z
2 -x,-y,z
3 -y,x,1/2+z
4 y,-x,1/2+z
5 -x,y,-z
6 x,-y,-z
7 y,x,1/2-z
8 -y,-x,1/2-z
9 -x,-y,-z
10 x,y,-z
11 y,-x,1/2-z
12 -y,x,1/2-z
13 x,-y,z
14 -x,y,z
15 -y,-x,1/2+z
16 y,x,1/2+z
_cell_length_a                   12.2480(9)
_cell_length_b                   12.2480(9)
_cell_length_c                   22.8767(17)
_cell_angle_alpha                90
_cell_angle_beta                 90
_cell_angle_gamma                90
_cell_volume                     3431.81
loop_
_atom_site_label
_atom_site_type_symbol
_atom_site_fract_x
_atom_site_fract_y
_atom_site_fract_z
Cu1 Cu 0.0000 0.39229(10) 0.0000
C1 C 0.4004(5) 0.5000 0.2072(3)
O1 O 0.1131(3) 0.4075(3) 0.05953(15)
C2 C 0.5000 0.5000 0.2500
C3 C 0.1449(6) 0.5000 0.0764(3)
C4 C 0.3608(4) 0.4039(4) 0.18525(19)
H1 H 0.3889 0.3380 0.1987
C5 C 0.2800(4) 0.4038(4) 0.1436(2)
H2 H 0.2535 0.3377 0.1296
C6 C 0.2375(5) 0.5000 0.1223(2)
O2 O 0.0000 0.2174(7) 0.0000
Cu1A Cu 1.0000 0.60771(10) 0.0000
Cu1_2 Cu 1.0000 0.39229(10) 0.0000
Cu1C Cu 0.39229(10) 0.0000 0.5000
Cu1B Cu 0.60771(10) 0.0000 0.5000
Cu1B_2 Cu 0.60771(10) 1.0000 0.5000
Cu1C_2 Cu 0.39229(10) 1.0000 0.5000
Cu1A_2 Cu 0.0000 0.60771(10) 0.0000
C1A C 0.5996(5) 0.5000 0.2072(3)
C1F C 0.5000 0.4004(5) 0.2928(3)
C1G C 0.5000 0.5996(5) 0.2928(3)
O1A O 0.8869(3) 0.5925(3) 0.05953(15)
O1M O 0.8869(3) 0.4075(3) 0.05953(15)
O1F O 0.4075(3) 0.1131(3) 0.44047(15)
O1K O 0.5925(3) 0.1131(3) 0.44047(15)
O1G O 0.5925(3) 0.8869(3) 0.44047(15)
O1J O 0.4075(3) 0.8869(3) 0.44047(15)
O1L O 0.1131(3) 0.5925(3) 0.05953(15)
O1D O -0.1131(3) 0.4075(3) -0.05953(15)
O1I O 0.1131(3) 0.4075(3) -0.05953(15)
O1M_2 O -0.1131(3) 0.4075(3) 0.05953(15)
O1A_2 O -0.1131(3) 0.5925(3) 0.05953(15)
O1E O 0.1131(3) 0.5925(3) -0.05953(15)
O1H O -0.1131(3) 0.5925(3) -0.05953(15)
C3A C 0.8551(6) 0.5000 0.0764(3)
C3F C 0.5000 0.1449(6) 0.4236(3)
C3G C 0.5000 0.8551(6) 0.4236(3)
C4A C 0.6392(4) 0.5961(4) 0.18525(19)
C4M C 0.6392(4) 0.4039(4) 0.18525(19)
C4F C 0.4039(4) 0.3608(4) 0.31475(19)
C4K C 0.5961(4) 0.3608(4) 0.31475(19)
C4G C 0.5961(4) 0.6392(4) 0.31475(19)
C4J C 0.4039(4) 0.6392(4) 0.31475(19)
C4L C 0.3608(4) 0.5961(4) 0.18525(19)
H1A H 0.6111 0.6620 0.1987
H1M H 0.6111 0.3380 0.1987
H1F H 0.3380 0.3889 0.3013
H1K H 0.6620 0.3889 0.3013
H1G H 0.6620 0.6111 0.3013
H1J H 0.3380 0.6111 0.3013
H1L H 0.3889 0.6620 0.1987
C5A C 0.7200(4) 0.5962(4) 0.1436(2)
C5M C 0.7200(4) 0.4038(4) 0.1436(2)
C5F C 0.4038(4) 0.2800(4) 0.3564(2)
C5K C 0.5962(4) 0.2800(4) 0.3564(2)
C5G C 0.5962(4) 0.7200(4) 0.3564(2)
C5J C 0.4038(4) 0.7200(4) 0.3564(2)
C5L C 0.2800(4) 0.5962(4) 0.1436(2)
H2A H 0.7465 0.6623 0.1296
H2M H 0.7465 0.3377 0.1296
H2F H 0.3377 0.2535 0.3704
H2K H 0.6623 0.2535 0.3704
H2G H 0.6623 0.7465 0.3704
H2J H 0.3377 0.7465 0.3704
H2L H 0.2535 0.6623 0.1296
C6A C 0.7625(5) 0.5000 0.1223(2)
C6F C 0.5000 0.2375(5) 0.3777(2)
C6G C 0.5000 0.7625(5) 0.3777(2)
O2A O 0.0000 0.7826(7) 0.0000
loop_
_geom_bond_atom_site_label_1
_geom_bond_atom_site_label_2
_geom_bond_site_symmetry_1
_geom_bond_site_symmetry_2
Cu1 O1 1_555 1_555
C1 C2 1_555 1_555
O1 C3 1_555 1_555
C2 C1A 1_555 1_555
C3 C6 1_555 1_555
C4 C1 1_555 1_555
H1 C4 1_555 1_555
C5 C4 1_555 1_555
H2 C5 1_555 1_555
C6 C5 1_555 1_555
O2 Cu1 1_555 1_555
Cu1A O1A 1_555 1_555
Cu1_2 O1M 1_555 1_555
Cu1C O1F 1_555 1_555
Cu1B O1K 1_555 1_555
Cu1B_2 O1G 1_555 1_555
Cu1C_2 O1J 1_555 1_555
Cu1A_2 O1L 1_555 1_555
C1A C4A 1_555 1_555
C1F C2 1_555 1_555
C1G C2 1_555 1_555
O1A C3A 1_555 1_555
O1M C3A 1_555 1_555
O1F C3F 1_555 1_555
O1K C3F 1_555 1_555
O1G C3G 1_555 1_555
O1J C3G 1_555 1_555
O1L C3 1_555 1_555
O1D Cu1 1_555 1_555
O1I Cu1 1_555 1_555
O1M_2 Cu1 1_555 1_555
O1A_2 Cu1A_2 1_555 1_555
O1E Cu1A_2 1_555 1_555
O1H Cu1A_2 1_555 1_555
C3A C6A 1_555 1_555
C3F C6F 1_555 1_555
C3G C6G 1_555 1_555
C4A H1A 1_555 1_555
C4M C1A 1_555 1_555
C4F C1F 1_555 1_555
C4K C1F 1_555 1_555
C4G C1G 1_555 1_555
C4J C1G 1_555 1_555
C4L C1 1_555 1_555
H1M C4M 1_555 1_555
H1F C4F 1_555 1_555
H1K C4K 1_555 1_555
H1G C4G 1_555 1_555
H1J C4J 1_555 1_555
H1L C4L 1_555 1_555
C5A C4A 1_555 1_555
C5M C4M 1_555 1_555
C5F C4F 1_555 1_555
C5K C4K 1_555 1_555
C5G C4G 1_555 1_555
C5J C4J 1_555 1_555
C5L C6 1_555 1_555
H2A C5A 1_555 1_555
H2M C5M 1_555 1_555
H2F C5F 1_555 1_555
H2K C5K 1_555 1_555
H2G C5G 1_555 1_555
H2J C5J 1_555 1_555
H2L C5L 1_555 1_555
C6A C5A 1_555 1_555
C6F C5F 1_555 1_555
C6G C5G 1_555 1_555
O2A Cu1A_2 1_555 1_555
C4L C5L 1_555 1_555
C5M C6A 1_555 1_555
C5K C6F 1_555 1_555
C5J C6G 1_555 1_555

#END
