
#######################################################################
#
#                 Cambridge Crystallographic Data Centre
#                                CCDC 
#
#######################################################################
#
# If this CIF has been generated from an entry in the Cambridge 
# Structural Database, then it will include bibliographic, chemical, 
# crystal, experimental, refinement or atomic coordinate data resulting 
# from the CCDC's data processing and validation procedures.
#
#######################################################################

data_SUKYON
_chemical_formula_moiety         '(C53 H36 Cu2 O10)n'
_symmetry_cell_setting           tetragonal
_symmetry_space_group_name_H-M   'P -4 21 c'
_symmetry_Int_Tables_number      114
_space_group_name_Hall           'P -4 2n'
loop_
_symmetry_equiv_pos_site_id
_symmetry_equiv_pos_as_xyz
1 x,y,z
2 -x,-y,z
3 y,-x,-z
4 -y,x,-z
5 1/2-x,1/2+y,1/2-z
6 1/2+x,1/2-y,1/2-z
7 1/2-y,1/2-x,1/2+z
8 1/2+y,1/2+x,1/2+z
_cell_length_a                   18.1427(6)
_cell_length_b                   18.1427(6)
_cell_length_c                   35.410(2)
_cell_angle_alpha                90
_cell_angle_beta                 90
_cell_angle_gamma                90
_cell_volume                     11655.5
loop_
_atom_site_label
_atom_site_type_symbol
_atom_site_fract_x
_atom_site_fract_y
_atom_site_fract_z
C1 C 0.1754(5) 0.5037(9) 0.4554(3)
C2 C 0.1525(7) 0.4361(7) 0.4696(4)
H1 H 0.1744 0.3923 0.4608
C3 C 0.0971(7) 0.4331(7) 0.4966(4)
H2 H 0.0816 0.3874 0.5062
C4 C 0.0647(5) 0.4978(9) 0.5096(3)
C5 C 0.0877(8) 0.5655(7) 0.4954(4)
H3 H 0.0657 0.6092 0.5041
C6 C 0.1430(8) 0.5684(7) 0.4683(4)
H4 H 0.1585 0.6142 0.4587
C7 C 0.4022(8) 0.4907(10) 0.3398(4)
C8 C 0.0072(9) 0.3210(6) 0.6192(3)
C9 C -0.0556(7) 0.3640(8) 0.6151(3)
H5 H -0.0973 0.3549 0.6301
C10 C -0.0569(7) 0.4207(7) 0.5886(3)
H6 H -0.0994 0.4498 0.5858
C11 C 0.0047(9) 0.4343(5) 0.5664(3)
C12 C 0.0675(6) 0.3912(8) 0.5705(3)
H7 H 0.1092 0.4004 0.5554
C13 C 0.0688(7) 0.3346(7) 0.5969(3)
H8 H 0.1113 0.3055 0.5997
O1 O 0.4222(7) 0.5526(6) 0.3246(3)
C14 C 0.3436(4) 0.4966(8) 0.3699(2)
C15 C 0.3246(6) 0.4326(6) 0.3892(3)
H9 H 0.3482 0.3879 0.3834
C16 C 0.2708(7) 0.4348(7) 0.4172(3)
H10 H 0.2580 0.3916 0.4302
C17 C 0.2360(4) 0.5010(9) 0.4258(2)
C18 C 0.2550(6) 0.5649(6) 0.4065(3)
H11 H 0.2315 0.6096 0.4123
C19 C 0.3088(7) 0.5627(6) 0.3786(3)
H12 H 0.3217 0.6060 0.3655
O2 O -0.0624(7) 0.0855(6) 0.7516(3)
C20 C 0.0059(9) 0.1571(4) 0.7063(2)
C21 C 0.0725(7) 0.1797(7) 0.6908(3)
H13 H 0.1170 0.1599 0.6998
C22 C 0.0733(7) 0.2316(8) 0.6619(4)
H14 H 0.1184 0.2468 0.6514
C23 C 0.0075(9) 0.2609(5) 0.6486(2)
C24 C -0.0591(7) 0.2383(8) 0.6641(4)
H15 H -0.1036 0.2581 0.6551
C25 C -0.0599(7) 0.1864(7) 0.6930(4)
H16 H -0.1050 0.1712 0.7035
Cu1 Cu 0.49295(15) 0.57321(11) 0.28811(6)
O3 O 0.4303(7) 0.4252(6) 0.3334(3)
C26 C -0.0000 0.5000 0.5383(4)
O4 O 0.0616(8) 0.0647(8) 0.7484(3)
O5 O 0.4788(4) 0.6924(4) 0.28657(19)
C27 C 0.0018(11) 0.1026(8) 0.7375(4)
C1A C -0.1754(5) 0.4963(9) 0.4554(3)
C2A C -0.1525(7) 0.5639(7) 0.4696(4)
H1A H -0.1744 0.6077 0.4608
C3A C -0.0971(7) 0.5669(7) 0.4966(4)
H2A H -0.0816 0.6126 0.5062
C4A C -0.0647(5) 0.5022(9) 0.5096(3)
C5A C -0.0877(8) 0.4345(7) 0.4954(4)
H3A H -0.0657 0.3908 0.5041
C6A C -0.1430(8) 0.4316(7) 0.4683(4)
H4A H -0.1585 0.3858 0.4587
C7A C -0.4022(8) 0.5093(10) 0.3398(4)
C8A C -0.0072(9) 0.6790(6) 0.6192(3)
C9A C 0.0556(7) 0.6360(8) 0.6151(3)
H5A H 0.0973 0.6451 0.6301
C10A C 0.0569(7) 0.5793(7) 0.5886(3)
H6A H 0.0994 0.5502 0.5858
C11A C -0.0047(9) 0.5657(5) 0.5664(3)
C12A C -0.0675(6) 0.6088(8) 0.5705(3)
H7A H -0.1092 0.5996 0.5554
C13A C -0.0688(7) 0.6654(7) 0.5969(3)
H8A H -0.1113 0.6945 0.5997
O1A O -0.4222(7) 0.4474(6) 0.3246(3)
O1A_2 O 0.5778(7) 0.4474(6) 0.3246(3)
C14A C -0.3436(4) 0.5034(8) 0.3699(2)
C15A C -0.3246(6) 0.5674(6) 0.3892(3)
H9A H -0.3482 0.6121 0.3834
C16A C -0.2708(7) 0.5652(7) 0.4172(3)
H10A H -0.2580 0.6084 0.4302
C17A C -0.2360(4) 0.4990(9) 0.4258(2)
C18A C -0.2550(6) 0.4351(6) 0.4065(3)
H11A H -0.2315 0.3904 0.4123
C19A C -0.3088(7) 0.4373(6) 0.3786(3)
H12A H -0.3217 0.3940 0.3655
O2A O 0.0624(7) 0.9145(6) 0.7516(3)
O2F O 0.4145(6) 0.5624(7) 0.2516(3)
O2G O 0.5855(6) 0.4376(7) 0.2516(3)
C20A C -0.0059(9) 0.8429(4) 0.7063(2)
C21A C -0.0725(7) 0.8203(7) 0.6908(3)
H13A H -0.1170 0.8401 0.6998
C22A C -0.0733(7) 0.7684(8) 0.6619(4)
H14A H -0.1184 0.7532 0.6514
C23A C -0.0075(9) 0.7391(5) 0.6486(2)
C24A C 0.0591(7) 0.7617(8) 0.6641(4)
H15A H 0.1036 0.7419 0.6551
C25A C 0.0599(7) 0.8136(7) 0.6930(4)
H16A H 0.1050 0.8288 0.7035
Cu1A Cu -0.49295(15) 0.42679(11) 0.28811(6)
Cu1F Cu -0.07321(11) 0.00705(15) 0.78811(6)
Cu1A_2 Cu 0.50705(15) 0.42679(11) 0.28811(6)
Cu1G Cu 0.07321(11) -0.00705(15) 0.78811(6)
Cu1_2 Cu -0.50705(15) 0.57321(11) 0.28811(6)
Cu1G_2 Cu 0.07321(11) 0.99295(15) 0.78811(6)
Cu1F_2 Cu -0.07321(11) 1.00705(15) 0.78811(6)
O3A O -0.4303(7) 0.5748(6) 0.3334(3)
O3A_2 O 0.5697(7) 0.5748(6) 0.3334(3)
O4A O -0.0616(8) 0.9353(8) 0.7484(3)
O4G O 0.5647(8) 0.5616(8) 0.2484(3)
O4F O 0.4353(8) 0.4384(8) 0.2484(3)
O5A O 0.5212(4) 0.3076(4) 0.28657(19)
C27A C -0.0018(11) 0.8974(8) 0.7375(4)
loop_
_geom_bond_atom_site_label_1
_geom_bond_atom_site_label_2
_geom_bond_site_symmetry_1
_geom_bond_site_symmetry_2
C1 C2 1_555 1_555
C2 H1 1_555 1_555
C3 C2 1_555 1_555
H2 C3 1_555 1_555
C4 C3 1_555 1_555
C5 C4 1_555 1_555
H3 C5 1_555 1_555
C6 C1 1_555 1_555
H4 C6 1_555 1_555
C7 O1 1_555 1_555
C8 C9 1_555 1_555
C9 H5 1_555 1_555
C10 C9 1_555 1_555
H6 C10 1_555 1_555
C11 C10 1_555 1_555
C12 C11 1_555 1_555
H7 C12 1_555 1_555
C13 C8 1_555 1_555
H8 C13 1_555 1_555
O1 Cu1 1_555 1_555
C14 C7 1_555 1_555
C15 C14 1_555 1_555
H9 C15 1_555 1_555
C16 C15 1_555 1_555
H10 C16 1_555 1_555
C17 C1 1_555 1_555
C18 C17 1_555 1_555
H11 C18 1_555 1_555
C19 C14 1_555 1_555
H12 C19 1_555 1_555
O2 C27 1_555 1_555
C20 C21 1_555 1_555
C21 H13 1_555 1_555
C22 C21 1_555 1_555
H14 C22 1_555 1_555
C23 C8 1_555 1_555
C24 C23 1_555 1_555
H15 C24 1_555 1_555
C25 C20 1_555 1_555
H16 C25 1_555 1_555
Cu1 O5 1_555 1_555
O3 C7 1_555 1_555
C26 C4 1_555 1_555
O4 C27 1_555 1_555
C27 C20 1_555 1_555
C1A C2A 1_555 1_555
C2A H1A 1_555 1_555
C3A C2A 1_555 1_555
H2A C3A 1_555 1_555
C4A C26 1_555 1_555
C5A C4A 1_555 1_555
H3A C5A 1_555 1_555
C6A C1A 1_555 1_555
H4A C6A 1_555 1_555
C7A O1A 1_555 1_555
C8A C9A 1_555 1_555
C9A H5A 1_555 1_555
C10A C9A 1_555 1_555
H6A C10A 1_555 1_555
C11A C26 1_555 1_555
C12A C11A 1_555 1_555
H7A C12A 1_555 1_555
C13A C8A 1_555 1_555
H8A C13A 1_555 1_555
O1A Cu1A 1_555 1_555
O1A_2 Cu1A_2 1_555 1_555
C14A C7A 1_555 1_555
C15A C14A 1_555 1_555
H9A C15A 1_555 1_555
C16A C15A 1_555 1_555
H10A C16A 1_555 1_555
C17A C1A 1_555 1_555
C18A C17A 1_555 1_555
H11A C18A 1_555 1_555
C19A C14A 1_555 1_555
H12A C19A 1_555 1_555
O2A Cu1G_2 1_555 1_555
O2F Cu1 1_555 1_555
O2G Cu1A_2 1_555 1_555
C20A C21A 1_555 1_555
C21A H13A 1_555 1_555
C22A C21A 1_555 1_555
H14A C22A 1_555 1_555
C23A C8A 1_555 1_555
C24A C23A 1_555 1_555
H15A C24A 1_555 1_555
C25A C20A 1_555 1_555
H16A C25A 1_555 1_555
Cu1F O2 1_555 1_555
Cu1A_2 O3 1_555 1_555
Cu1G O4 1_555 1_555
Cu1_2 O3A 1_555 1_555
Cu1F_2 O4A 1_555 1_555
O3A C7A 1_555 1_555
O3A_2 Cu1 1_555 1_555
O4A C27A 1_555 1_555
O4G Cu1 1_555 1_555
O4F Cu1A_2 1_555 1_555
O5A Cu1A_2 1_555 1_555
C27A O2A 1_555 1_555
C5 C6 1_555 1_555
C11 C26 1_555 1_555
C12 C13 1_555 1_555
C16 C17 1_555 1_555
C18 C19 1_555 1_555
C22 C23 1_555 1_555
C24 C25 1_555 1_555
C3A C4A 1_555 1_555
C5A C6A 1_555 1_555
C10A C11A 1_555 1_555
C12A C13A 1_555 1_555
C16A C17A 1_555 1_555
C18A C19A 1_555 1_555
C20A C27A 1_555 1_555
C22A C23A 1_555 1_555
C24A C25A 1_555 1_555

#END
