
#######################################################################
#
#                 Cambridge Crystallographic Data Centre
#                                CCDC 
#
#######################################################################
#
# If this CIF has been generated from an entry in the Cambridge 
# Structural Database, then it will include bibliographic, chemical, 
# crystal, experimental, refinement or atomic coordinate data resulting 
# from the CCDC's data processing and validation procedures.
#
#######################################################################

data_OBUFEX
_chemical_formula_moiety         '(C42 H40 N6 O16 Zn2)n'
_symmetry_cell_setting           monoclinic
_symmetry_space_group_name_H-M   'P 21/c'
_symmetry_Int_Tables_number      14
_space_group_name_Hall           '-P 2ybc'
loop_
_symmetry_equiv_pos_site_id
_symmetry_equiv_pos_as_xyz
1 x,y,z
2 x,1/2-y,1/2+z
3 -x,-y,-z
4 -x,1/2+y,1/2-z
_cell_length_a                   11.442(2)
_cell_length_b                   15.807(3)
_cell_length_c                   13.373(3)
_cell_angle_alpha                90
_cell_angle_beta                 101.36(3)
_cell_angle_gamma                90
_cell_volume                     2371.31
loop_
_atom_site_label
_atom_site_type_symbol
_atom_site_fract_x
_atom_site_fract_y
_atom_site_fract_z
Zn1 Zn 0.571112(19) 0.421160(16) 0.108367(18)
C6 C 0.5752(2) 0.30978(18) 0.2538(2)
C7 C 0.2626(2) 0.18131(17) 0.2316(2)
C8 C 0.3863(2) 0.1699(2) 0.20623(19)
H5 H 0.3902 0.1155 0.1735
H6 H 0.3996 0.2136 0.1588
C9 C 0.5624(2) 0.23694(16) 0.32011(19)
H7 H 0.6159 0.2340 0.3821
C10 C 0.48135(19) 0.17453(15) 0.30011(18)
C11 C 0.48254(17) 0.10559(13) 0.37721(17)
C12 C -0.0694(2) 0.35635(18) 0.0678(2)
H8 H -0.0390 0.3112 0.0364
C13 C -0.1896(2) 0.35964(17) 0.0700(2)
H9 H -0.2378 0.3156 0.0395
C14 C -0.16724(18) 0.48001(16) 0.1592(2)
H10 H -0.1998 0.5220 0.1940
C15 C -0.04705(19) 0.48315(17) 0.1596(2)
H11 H -0.0012 0.5277 0.1916
C16 C 0.00529(16) 0.42000(15) 0.11223(16)
C17 C 0.13497(16) 0.41934(14) 0.11106(15)
C18 C 0.18313(18) 0.37113(15) 0.04422(17)
H12 H 0.1336 0.3367 -0.0022
C19 C 0.30362(18) 0.37283(15) 0.04464(17)
H13 H 0.3332 0.3398 -0.0023
C20 C 0.33459(18) 0.46589(17) 0.17663(17)
H14 H 0.3860 0.4986 0.2237
C21 C 0.21562(19) 0.46714(17) 0.17948(18)
H15 H 0.1886 0.5003 0.2277
N2 N 0.38010(13) 0.42072(12) 0.11064(12)
N3 N -0.23948(13) 0.42026(12) 0.11193(13)
O1 O 0.17526(19) 0.15627(17) 0.16124(19)
O2 O 0.24837(17) 0.21074(16) 0.30915(18)
O3 O 0.58348(18) 0.38190(13) 0.28831(18)
O4 O 0.57745(15) 0.29479(13) 0.16130(16)
O5 O 0.41717(11) 0.04266(9) 0.34827(12)
O6 O 0.54923(12) 0.11455(10) 0.46269(11)
C12_2 C 0.9306(2) 0.35635(18) 0.0678(2)
H8_2 H 0.9610 0.3112 0.0364
C13_2 C 0.8104(2) 0.35964(17) 0.0700(2)
H9_2 H 0.7622 0.3156 0.0395
C14_2 C 0.83276(18) 0.48001(16) 0.1592(2)
H10_2 H 0.8002 0.5220 0.1940
C15_2 C 0.95295(19) 0.48315(17) 0.1596(2)
H11_2 H 0.9988 0.5277 0.1916
C16_2 C 1.00529(16) 0.42000(15) 0.11223(16)
C17_2 C 1.13497(16) 0.41934(14) 0.11106(15)
C18_2 C 1.18313(18) 0.37113(15) 0.04422(17)
H12_2 H 1.1336 0.3367 -0.0022
C19_2 C 1.30362(18) 0.37283(15) 0.04464(17)
H13_2 H 1.3332 0.3398 -0.0023
C20_2 C 1.33459(18) 0.46589(17) 0.17663(17)
H14_2 H 1.3860 0.4986 0.2237
C21_2 C 1.21562(19) 0.46714(17) 0.17948(18)
H15_2 H 1.1886 0.5003 0.2277
N2_2 N 1.38010(13) 0.42072(12) 0.11064(12)
N3_2 N 0.76052(13) 0.42026(12) 0.11193(13)
C6C C 0.4248(2) 0.80978(18) 0.2462(2)
C7C C 0.7374(2) 0.68131(17) 0.2684(2)
C8C C 0.6137(2) 0.6699(2) 0.29377(19)
H5C H 0.6098 0.6155 0.3265
H6C H 0.6004 0.7136 0.3412
C9C C 0.4376(2) 0.73694(16) 0.17989(19)
H7C H 0.3841 0.7340 0.1179
C10C C 0.51865(19) 0.67453(15) 0.19989(18)
C11C C 0.51746(17) 0.60559(13) 0.12279(17)
O1C O 0.82474(19) 0.65627(17) 0.33876(19)
O2C O 0.75163(17) 0.71074(16) 0.19085(18)
O3C O 0.41652(18) 0.88190(13) 0.21169(18)
O4C O 0.42255(15) 0.79479(13) 0.33870(16)
O5C O 0.58283(11) 0.54266(9) 0.15173(12)
O6C O 0.45077(12) 0.61455(10) 0.03731(11)
Zn1_2 Zn 1.571112(19) 0.421160(16) 0.108367(18)
O6A O 0.54923(12) 0.38545(10) -0.03731(11)
Zn1_3 Zn -0.428888(19) 0.421160(16) 0.108367(18)
Zn1C Zn 0.428888(19) -0.078840(16) 0.391633(18)
Zn1A Zn 0.571112(19) 0.078840(16) 0.608367(18)
Zn1C_2 Zn 0.428888(19) 0.921160(16) 0.391633(18)
Zn1B Zn 0.428888(19) 0.578840(16) -0.108367(18)
N3_3 N 1.76052(13) 0.42026(12) 0.11193(13)
O3_2 O 1.58348(18) 0.38190(13) 0.28831(18)
O4_2 O 1.57745(15) 0.29479(13) 0.16130(16)
O5C_2 O 1.58283(11) 0.54266(9) 0.15173(12)
O6A_2 O 1.54923(12) 0.38545(10) -0.03731(11)
C1 C 0.8874(3) 0.3418(3) 0.3841(3)
H1 H 0.8155 0.3127 0.3685
C2 C 0.8919(3) 0.4170(3) 0.4368(3)
H2 H 0.8212 0.4391 0.4501
C3 C 0.9954(3) 0.46069(19) 0.4705(2)
C4 C 1.0914(3) 0.4259(2) 0.4386(3)
H3 H 1.1644 0.4538 0.4535
C5 C 1.0831(3) 0.3513(2) 0.3852(3)
H4 H 1.1526 0.3289 0.3697
N1 N 0.9829(3) 0.30961(19) 0.3546(2)
C3B C 1.0046(3) 0.53931(19) 0.5295(2)
C2B C 1.1081(3) 0.5830(3) 0.5632(3)
C1B C 1.1126(3) 0.6582(3) 0.6159(3)
H1B H 1.1845 0.6873 0.6315
N1B N 1.0171(3) 0.69039(19) 0.6454(2)
C5B C 0.9169(3) 0.6487(2) 0.6148(3)
C4B C 0.9086(3) 0.5741(2) 0.5614(3)
H3B H 0.8356 0.5462 0.5465
H4B H 0.8474 0.6711 0.6303
H2B H 1.1788 0.5609 0.5499
O7 O 0.9672(2) 0.17121(14) 0.22242(19)
O8 O 0.7215(2) 0.15098(19) 0.1292(2)
O9 O 0.5983(4) 0.0457(3) -0.0203(3)
O10 O 0.3800(10) 0.1544(7) -0.0487(7)
loop_
_geom_bond_atom_site_label_1
_geom_bond_atom_site_label_2
_geom_bond_site_symmetry_1
_geom_bond_site_symmetry_2
Zn1 N2 1_555 1_555
C1 H1 1_555 1_555
C2 C1 1_555 1_555
H2 C2 1_555 1_555
C3 C2 1_555 1_555
C4 C3 1_555 1_555
H3 C4 1_555 1_555
C5 C4 1_555 1_555
H4 C5 1_555 1_555
C6 C9 1_555 1_555
C7 C8 1_555 1_555
C8 H5 1_555 1_555
H6 C8 1_555 1_555
C9 H7 1_555 1_555
C10 C8 1_555 1_555
C11 C10 1_555 1_555
C12 H8 1_555 1_555
C13 C12 1_555 1_555
H9 C13 1_555 1_555
C14 H10 1_555 1_555
C15 C14 1_555 1_555
H11 C15 1_555 1_555
C16 C12 1_555 1_555
C17 C16 1_555 1_555
C18 C17 1_555 1_555
H12 C18 1_555 1_555
C19 C18 1_555 1_555
H13 C19 1_555 1_555
C20 H14 1_555 1_555
C21 C17 1_555 1_555
H15 C21 1_555 1_555
N1 C1 1_555 1_555
N2 C19 1_555 1_555
N3 C13 1_555 1_555
O1 C7 1_555 1_555
O2 C7 1_555 1_555
O3 Zn1 1_555 1_555
O4 Zn1 1_555 1_555
O5 C11 1_555 1_555
O6 C11 1_555 1_555
C3B C3 1_555 1_555
C2B C3B 1_555 1_555
C1B C2B 1_555 1_555
H1B C1B 1_555 1_555
N1B C1B 1_555 1_555
C5B N1B 1_555 1_555
C4B C3B 1_555 1_555
H3B C4B 1_555 1_555
H4B C5B 1_555 1_555
H2B C2B 1_555 1_555
C12_2 H8_2 1_555 1_555
C13_2 C12_2 1_555 1_555
H9_2 C13_2 1_555 1_555
C14_2 H10_2 1_555 1_555
C15_2 C14_2 1_555 1_555
H11_2 C15_2 1_555 1_555
C16_2 C12_2 1_555 1_555
C17_2 C16_2 1_555 1_555
C18_2 C17_2 1_555 1_555
H12_2 C18_2 1_555 1_555
C19_2 C18_2 1_555 1_555
H13_2 C19_2 1_555 1_555
C20_2 H14_2 1_555 1_555
C21_2 C17_2 1_555 1_555
H15_2 C21_2 1_555 1_555
N2_2 C19_2 1_555 1_555
N3_2 Zn1 1_555 1_555
C6C C9C 1_555 1_555
C7C C8C 1_555 1_555
C8C H5C 1_555 1_555
H6C C8C 1_555 1_555
C9C H7C 1_555 1_555
C10C C8C 1_555 1_555
C11C C10C 1_555 1_555
O1C C7C 1_555 1_555
O2C C7C 1_555 1_555
O3C C6C 1_555 1_555
O4C C6C 1_555 1_555
O5C Zn1 1_555 1_555
O6C C11C 1_555 1_555
Zn1_2 N2_2 1_555 1_555
O6A Zn1 1_555 1_555
Zn1_3 N3 1_555 1_555
Zn1C O5 1_555 1_555
Zn1A O6 1_555 1_555
Zn1C_2 O3C 1_555 1_555
Zn1B O6C 1_555 1_555
N3_3 Zn1_2 1_555 1_555
O3_2 Zn1_2 1_555 1_555
O4_2 Zn1_2 1_555 1_555
O5C_2 Zn1_2 1_555 1_555
O6A_2 Zn1_2 1_555 1_555
C5 N1 1_555 1_555
C6 O3 1_555 1_555
C6 O4 1_555 1_555
C9 C10 1_555 1_555
C14 N3 1_555 1_555
C15 C16 1_555 1_555
C20 N2 1_555 1_555
C20 C21 1_555 1_555
C5B C4B 1_555 1_555
C13_2 N3_2 1_555 1_555
C14_2 N3_2 1_555 1_555
C15_2 C16_2 1_555 1_555
C20_2 N2_2 1_555 1_555
C20_2 C21_2 1_555 1_555
C9C C10C 1_555 1_555
C11C O5C 1_555 1_555
O4C Zn1C_2 1_555 1_555

#END
