
#######################################################################
#
#                 Cambridge Crystallographic Data Centre
#                                CCDC 
#
#######################################################################
#
# If this CIF has been generated from an entry in the Cambridge 
# Structural Database, then it will include bibliographic, chemical, 
# crystal, experimental, refinement or atomic coordinate data resulting 
# from the CCDC's data processing and validation procedures.
#
#######################################################################

data_EWILIH
_chemical_formula_moiety         'C24 N12 O25 Zr12'
_symmetry_cell_setting           cubic
_symmetry_space_group_name_H-M   'F m -3 m'
_symmetry_Int_Tables_number      225
_space_group_name_Hall           '-F 4 2 3'
loop_
_symmetry_equiv_pos_site_id
_symmetry_equiv_pos_as_xyz
1 x,y,z
2 z,x,y
3 y,z,x
4 -z,x,-y
5 -y,-z,x
6 y,-z,-x
7 -x,y,-z
8 -z,-x,y
9 x,-y,-z
10 y,x,-z
11 -z,y,x
12 x,-z,y
13 -x,-y,z
14 z,-x,-y
15 -y,z,-x
16 -y,-x,-z
17 -z,-y,-x
18 -x,-z,-y
19 z,-y,x
20 x,z,-y
21 -x,z,y
22 y,-x,z
23 z,y,-x
24 -y,x,z
25 x,1/2+y,1/2+z
26 z,1/2+x,1/2+y
27 y,1/2+z,1/2+x
28 -z,1/2+x,1/2-y
29 -y,1/2-z,1/2+x
30 y,1/2-z,1/2-x
31 -x,1/2+y,1/2-z
32 -z,1/2-x,1/2+y
33 x,1/2-y,1/2-z
34 y,1/2+x,1/2-z
35 -z,1/2+y,1/2+x
36 x,1/2-z,1/2+y
37 -x,1/2-y,1/2+z
38 z,1/2-x,1/2-y
39 -y,1/2+z,1/2-x
40 -y,1/2-x,1/2-z
41 -z,1/2-y,1/2-x
42 -x,1/2-z,1/2-y
43 z,1/2-y,1/2+x
44 x,1/2+z,1/2-y
45 -x,1/2+z,1/2+y
46 y,1/2-x,1/2+z
47 z,1/2+y,1/2-x
48 -y,1/2+x,1/2+z
49 1/2+x,y,1/2+z
50 1/2+z,x,1/2+y
51 1/2+y,z,1/2+x
52 1/2-z,x,1/2-y
53 1/2-y,-z,1/2+x
54 1/2+y,-z,1/2-x
55 1/2-x,y,1/2-z
56 1/2-z,-x,1/2+y
57 1/2+x,-y,1/2-z
58 1/2+y,x,1/2-z
59 1/2-z,y,1/2+x
60 1/2+x,-z,1/2+y
61 1/2-x,-y,1/2+z
62 1/2+z,-x,1/2-y
63 1/2-y,z,1/2-x
64 1/2-y,-x,1/2-z
65 1/2-z,-y,1/2-x
66 1/2-x,-z,1/2-y
67 1/2+z,-y,1/2+x
68 1/2+x,z,1/2-y
69 1/2-x,z,1/2+y
70 1/2+y,-x,1/2+z
71 1/2+z,y,1/2-x
72 1/2-y,x,1/2+z
73 1/2+x,1/2+y,z
74 1/2+z,1/2+x,y
75 1/2+y,1/2+z,x
76 1/2-z,1/2+x,-y
77 1/2-y,1/2-z,x
78 1/2+y,1/2-z,-x
79 1/2-x,1/2+y,-z
80 1/2-z,1/2-x,y
81 1/2+x,1/2-y,-z
82 1/2+y,1/2+x,-z
83 1/2-z,1/2+y,x
84 1/2+x,1/2-z,y
85 1/2-x,1/2-y,z
86 1/2+z,1/2-x,-y
87 1/2-y,1/2+z,-x
88 1/2-y,1/2-x,-z
89 1/2-z,1/2-y,-x
90 1/2-x,1/2-z,-y
91 1/2+z,1/2-y,x
92 1/2+x,1/2+z,-y
93 1/2-x,1/2+z,y
94 1/2+y,1/2-x,z
95 1/2+z,1/2+y,-x
96 1/2-y,1/2+x,z
97 -x,-y,-z
98 -z,-x,-y
99 -y,-z,-x
100 z,-x,y
101 y,z,-x
102 -y,z,x
103 x,-y,z
104 z,x,-y
105 -x,y,z
106 -y,-x,z
107 z,-y,-x
108 -x,z,-y
109 x,y,-z
110 -z,x,y
111 y,-z,x
112 y,x,z
113 z,y,x
114 x,z,y
115 -z,y,-x
116 -x,-z,y
117 x,-z,-y
118 -y,x,-z
119 -z,-y,x
120 y,-x,-z
121 -x,1/2-y,1/2-z
122 -z,1/2-x,1/2-y
123 -y,1/2-z,1/2-x
124 z,1/2-x,1/2+y
125 y,1/2+z,1/2-x
126 -y,1/2+z,1/2+x
127 x,1/2-y,1/2+z
128 z,1/2+x,1/2-y
129 -x,1/2+y,1/2+z
130 -y,1/2-x,1/2+z
131 z,1/2-y,1/2-x
132 -x,1/2+z,1/2-y
133 x,1/2+y,1/2-z
134 -z,1/2+x,1/2+y
135 y,1/2-z,1/2+x
136 y,1/2+x,1/2+z
137 z,1/2+y,1/2+x
138 x,1/2+z,1/2+y
139 -z,1/2+y,1/2-x
140 -x,1/2-z,1/2+y
141 x,1/2-z,1/2-y
142 -y,1/2+x,1/2-z
143 -z,1/2-y,1/2+x
144 y,1/2-x,1/2-z
145 1/2-x,-y,1/2-z
146 1/2-z,-x,1/2-y
147 1/2-y,-z,1/2-x
148 1/2+z,-x,1/2+y
149 1/2+y,z,1/2-x
150 1/2-y,z,1/2+x
151 1/2+x,-y,1/2+z
152 1/2+z,x,1/2-y
153 1/2-x,y,1/2+z
154 1/2-y,-x,1/2+z
155 1/2+z,-y,1/2-x
156 1/2-x,z,1/2-y
157 1/2+x,y,1/2-z
158 1/2-z,x,1/2+y
159 1/2+y,-z,1/2+x
160 1/2+y,x,1/2+z
161 1/2+z,y,1/2+x
162 1/2+x,z,1/2+y
163 1/2-z,y,1/2-x
164 1/2-x,-z,1/2+y
165 1/2+x,-z,1/2-y
166 1/2-y,x,1/2-z
167 1/2-z,-y,1/2+x
168 1/2+y,-x,1/2-z
169 1/2-x,1/2-y,-z
170 1/2-z,1/2-x,-y
171 1/2-y,1/2-z,-x
172 1/2+z,1/2-x,y
173 1/2+y,1/2+z,-x
174 1/2-y,1/2+z,x
175 1/2+x,1/2-y,z
176 1/2+z,1/2+x,-y
177 1/2-x,1/2+y,z
178 1/2-y,1/2-x,z
179 1/2+z,1/2-y,-x
180 1/2-x,1/2+z,-y
181 1/2+x,1/2+y,-z
182 1/2-z,1/2+x,y
183 1/2+y,1/2-z,x
184 1/2+y,1/2+x,z
185 1/2+z,1/2+y,x
186 1/2+x,1/2+z,y
187 1/2-z,1/2+y,-x
188 1/2-x,1/2-z,y
189 1/2+x,1/2-z,-y
190 1/2-y,1/2+x,-z
191 1/2-z,1/2-y,x
192 1/2+y,1/2-x,-z
_cell_length_a                   20.76973(31)
_cell_length_b                   20.76973
_cell_length_c                   20.76973
_cell_angle_alpha                90
_cell_angle_beta                 90
_cell_angle_gamma                90
_cell_volume                     8959.68
loop_
_atom_site_label
_atom_site_type_symbol
_atom_site_fract_x
_atom_site_fract_y
_atom_site_fract_z
_atom_site_U_iso_or_equiv
_atom_site_thermal_displace_type
Zr1 Zr 0.11985(10) 0.000 0.000 0.0174 Uiso
O1 O 0.17332(22) 0.000 0.09511(23) 0.0265 Uiso
O2 O 0.05987(25) 0.05987(25) 0.05987(25) 0.0560 Uiso
C1 C 0.1536 -0.000 0.1536 0.0730 Uiso
C2 C 0.205 0.000 0.205 0.0730 Uiso
C3 C 0.2675 0.000 0.1844 0.0730 Uiso
N1 N 0.2843 0.000 0.1217 0.0730 Uiso
O1HD O 0.09511(23) 0.000 0.17332(22) 0.0265 Uiso
C3HD C 0.1844 0.000 0.2675 0.0730 Uiso
N1HD N 0.1217 0.000 0.2843 0.0730 Uiso
O1FF O 0.40489(23) -0.000 0.32668(22) 0.0265 Uiso
C1BB C 0.3464 0.000 0.3464 0.0730 Uiso
C2BB C 0.295 0.000 0.295 0.0730 Uiso
C3FF C 0.3156 -0.000 0.2325 0.0730 Uiso
N1FF N 0.3783 -0.000 0.2157 0.0730 Uiso
O1BB O 0.32668(22) 0.000 0.40489(23) 0.0265 Uiso
C3BB C 0.2325 -0.000 0.3156 0.0730 Uiso
N1BB N 0.2157 -0.000 0.3783 0.0730 Uiso
Zr1A Zr 0.000 0.11985(10) 0.000 0.0174 Uiso
O1A O 0.09511(23) 0.17332(22) 0.000 0.0265 Uiso
C1A C 0.1536 0.1536 0.000 0.0730 Uiso
C2A C 0.205 0.205 0.000 0.0730 Uiso
C3A C 0.1844 0.2675 0.000 0.0730 Uiso
N1A N 0.1217 0.2843 0.000 0.0730 Uiso
O1ID O 0.17332(22) 0.09511(23) 0.000 0.0265 Uiso
C3ID C 0.2675 0.1844 0.000 0.0730 Uiso
N1ID N 0.2843 0.1217 0.000 0.0730 Uiso
O1EG O 0.32668(22) 0.40489(23) 0.000 0.0265 Uiso
C1AC C 0.3464 0.3464 0.000 0.0730 Uiso
C2AC C 0.295 0.295 0.000 0.0730 Uiso
C3EG C 0.2325 0.3156 0.000 0.0730 Uiso
N1EG N 0.2157 0.3783 0.000 0.0730 Uiso
O1AC O 0.40489(23) 0.32668(22) 0.000 0.0265 Uiso
C3AC C 0.3156 0.2325 0.000 0.0730 Uiso
N1AC N 0.3783 0.2157 0.000 0.0730 Uiso
Zr1B Zr 0.000 0.000 0.11985(10) 0.0174 Uiso
O1B O -0.000 0.09511(23) 0.17332(22) 0.0265 Uiso
C1B C -0.000 0.1536 0.1536 0.0730 Uiso
C2B C 0.000 0.205 0.205 0.0730 Uiso
C3B C 0.000 0.1844 0.2675 0.0730 Uiso
N1B N 0.000 0.1217 0.2843 0.0730 Uiso
O1GD O -0.000 0.17332(22) 0.09511(23) 0.0265 Uiso
C3GD C 0.000 0.2675 0.1844 0.0730 Uiso
N1GD N 0.000 0.2843 0.1217 0.0730 Uiso
O1ME O -0.000 0.32668(22) 0.40489(23) 0.0265 Uiso
C1CA C 0.000 0.3464 0.3464 0.0730 Uiso
C2CA C 0.000 0.295 0.295 0.0730 Uiso
C3ME C -0.000 0.2325 0.3156 0.0730 Uiso
N1ME N -0.000 0.2157 0.3783 0.0730 Uiso
O1CA O -0.000 0.40489(23) 0.32668(22) 0.0265 Uiso
C3CA C -0.000 0.3156 0.2325 0.0730 Uiso
N1CA N -0.000 0.3783 0.2157 0.0730 Uiso
O2DD O 0.05987(25) 0.05987(25) -0.05987(25) 0.0560 Uiso
O2ED O -0.05987(25) 0.05987(25) 0.05987(25) 0.0560 Uiso
O2FD O 0.05987(25) -0.05987(25) 0.05987(25) 0.0560 Uiso
Zr1E Zr 0.000 0.000 -0.11985(10) 0.0174 Uiso
Zr1F Zr -0.11985(10) 0.000 0.000 0.0174 Uiso
Zr1G Zr 0.000 -0.11985(10) 0.000 0.0174 Uiso
Zr1CA Zr -0.000 0.500 0.38015(10) 0.0174 Uiso
Zr1EA Zr -0.000 0.38015(10) 0.500 0.0174 Uiso
Zr1AB Zr 0.500 0.000 0.38015(10) 0.0174 Uiso
Zr1BB Zr 0.38015(10) -0.000 0.500 0.0174 Uiso
Zr1ZB Zr 0.38015(10) 0.500 0.000 0.0174 Uiso
Zr1AC Zr 0.500 0.38015(10) 0.000 0.0174 Uiso
O1DD O 0.17332(22) 0.000 -0.09511(23) 0.0265 Uiso
O1ED O -0.09511(23) 0.17332(22) 0.000 0.0265 Uiso
O1FD O 0.000 -0.09511(23) 0.17332(22) 0.0265 Uiso
O1I O 0.000 0.17332(22) -0.09511(23) 0.0265 Uiso
O1J O -0.09511(23) 0.000 0.17332(22) 0.0265 Uiso
O1K O 0.17332(22) -0.09511(23) 0.000 0.0265 Uiso
O2C O -0.05987(25) 0.05987(25) -0.05987(25) 0.0560 Uiso
O2D O -0.05987(25) -0.05987(25) 0.05987(25) 0.0560 Uiso
O2E O 0.05987(25) -0.05987(25) -0.05987(25) 0.0560 Uiso
loop_
_geom_bond_atom_site_label_1
_geom_bond_atom_site_label_2
_geom_bond_site_symmetry_1
_geom_bond_site_symmetry_2
Zr1 O1 1_555 1_555
O1 C1 1_555 1_555
O2 Zr1 1_555 1_555
C1 C2 1_555 1_555
C2 C3 1_555 1_555
C3 N1 1_555 1_555
O1HD C1 1_555 1_555
C3HD C2 1_555 1_555
N1HD C3HD 1_555 1_555
O1FF C1BB 1_555 1_555
C1BB C2BB 1_555 1_555
C2BB C3FF 1_555 1_555
C3FF C3 1_555 1_555
N1FF C3FF 1_555 1_555
O1BB C1BB 1_555 1_555
C3BB C3HD 1_555 1_555
N1BB C3BB 1_555 1_555
Zr1A O2 1_555 1_555
O1A Zr1A 1_555 1_555
C1A O1A 1_555 1_555
C2A C1A 1_555 1_555
C3A C2A 1_555 1_555
N1A C3A 1_555 1_555
O1ID Zr1 1_555 1_555
C3ID C2A 1_555 1_555
N1ID C3ID 1_555 1_555
O1EG C1AC 1_555 1_555
C1AC C2AC 1_555 1_555
C2AC C3EG 1_555 1_555
C3EG C3A 1_555 1_555
N1EG C3EG 1_555 1_555
O1AC C1AC 1_555 1_555
C3AC C3ID 1_555 1_555
N1AC C3AC 1_555 1_555
Zr1B O2 1_555 1_555
O1B Zr1B 1_555 1_555
C1B O1B 1_555 1_555
C2B C1B 1_555 1_555
C3B C2B 1_555 1_555
N1B C3B 1_555 1_555
O1GD Zr1A 1_555 1_555
C3GD C2B 1_555 1_555
N1GD C3GD 1_555 1_555
O1ME C1CA 1_555 1_555
C1CA C2CA 1_555 1_555
C2CA C3ME 1_555 1_555
C3ME C3B 1_555 1_555
N1ME C3ME 1_555 1_555
O1CA C1CA 1_555 1_555
C3CA C3GD 1_555 1_555
N1CA C3CA 1_555 1_555
O2DD Zr1 1_555 1_555
O2ED Zr1A 1_555 1_555
O2FD Zr1 1_555 1_555
Zr1E O2DD 1_555 1_555
Zr1F O2ED 1_555 1_555
Zr1G O2FD 1_555 1_555
Zr1CA O1CA 1_555 1_555
Zr1EA O1ME 1_555 1_555
Zr1AB O1FF 1_555 1_555
Zr1BB O1BB 1_555 1_555
Zr1ZB O1EG 1_555 1_555
Zr1AC O1AC 1_555 1_555
O1DD Zr1 1_555 1_555
O1ED Zr1A 1_555 1_555
O1FD Zr1B 1_555 1_555
O1I Zr1A 1_555 1_555
O1J Zr1B 1_555 1_555
O1K Zr1 1_555 1_555
O2C Zr1A 1_555 1_555
O2D Zr1B 1_555 1_555
O2E Zr1 1_555 1_555
O1HD Zr1B 1_555 1_555
C2BB C3BB 1_555 1_555
Zr1A O2DD 1_555 1_555
C1A O1ID 1_555 1_555
C2AC C3AC 1_555 1_555
Zr1B O2ED 1_555 1_555
Zr1B O2FD 1_555 1_555
C1B O1GD 1_555 1_555
C2CA C3CA 1_555 1_555
Zr1E O2C 1_555 1_555
Zr1E O2E 1_555 1_555
Zr1F O2C 1_555 1_555
Zr1F O2D 1_555 1_555
Zr1G O2D 1_555 1_555
Zr1G O2E 1_555 1_555

#END
